
#######################################################################
#
#                 Cambridge Crystallographic Data Centre
#                                CCDC 
#
#######################################################################
#
# If this CIF has been generated from an entry in the Cambridge 
# Structural Database, then it will include bibliographic, chemical, 
# crystal, experimental, refinement or atomic coordinate data resulting 
# from the CCDC's data processing and validation procedures.
#
#######################################################################

data_BAXREY
_chemical_formula_moiety         '(C84 H146 Cu10 N34 O33 W3)n'
_symmetry_cell_setting           orthorhombic
_symmetry_space_group_name_H-M   'P b c n'
_symmetry_Int_Tables_number      60
_space_group_name_Hall           '-P 2n 2ab'
loop_
_symmetry_equiv_pos_site_id
_symmetry_equiv_pos_as_xyz
1 x,y,z
2 1/2+x,1/2+y,1/2-z
3 1/2-x,1/2+y,z
4 x,-y,1/2+z
5 -x,-y,-z
6 1/2-x,1/2-y,1/2+z
7 1/2+x,1/2-y,-z
8 -x,y,1/2-z
_cell_length_a                   32.349(2)
_cell_length_b                   20.892(2)
_cell_length_c                   21.162(2)
_cell_angle_alpha                90
_cell_angle_beta                 90
_cell_angle_gamma                90
_cell_volume                     14302
loop_
_atom_site_label
_atom_site_type_symbol
_atom_site_fract_x
_atom_site_fract_y
_atom_site_fract_z
_atom_site_U_iso_or_equiv
_atom_site_thermal_displace_type
W1 W 0.257910(8) 0.576270(12) 0.474210(11) 0.0193 Uani
W2 W 0.5000 0.17816(2) 0.7500 0.0283 Uani
Cu1 Cu 0.26953(2) 0.72052(4) 0.27219(4) 0.0288 Uani
Cu2 Cu 0.26126(3) 0.76130(4) 0.64430(4) 0.0295 Uani
Cu3 Cu 0.34867(2) 0.44265(4) 0.63274(4) 0.0307 Uani
Cu4 Cu 0.39623(2) 0.32413(4) 0.62904(4) 0.0291 Uani
Cu5 Cu 0.47991(2) 0.02960(4) 0.94578(4) 0.0283 Uani
O1 O 0.28096(14) 0.7753(2) 0.2001(2) 0.0360 Uani
O2 O 0.21250(15) 0.7855(2) 0.3070(2) 0.0457 Uani
H1 H 0.1944 0.7623 0.3250 0.0550 Uiso
O3 O 0.33470(15) 0.6784(2) 0.2766(2) 0.0400 Uani
H2 H 0.3433 0.6701 0.2395 0.0500 Uiso
O4 O 0.24154(13) 0.67111(19) 0.2075(2) 0.0293 Uani
O5 O 0.27498(14) 0.6809(2) 0.0683(2) 0.0307 Uani
H3 H 0.2963 0.6632 0.0842 0.0400 Uiso
O6 O 0.17974(13) 0.7947(2) 0.1839(2) 0.0340 Uani
H4 H 0.1806 0.7960 0.2240 0.0410 Uiso
O7 O 0.37782(14) 0.3855(2) 0.6906(2) 0.0380 Uani
O8 O 0.28593(14) 0.4362(2) 0.6868(2) 0.0407 Uani
H5 H 0.2814 0.3980 0.6988 0.0500 Uiso
O9 O 0.40473(16) 0.5057(2) 0.5924(2) 0.0490 Uani
H6 H 0.4276 0.4778 0.5815 0.0600 Uiso
O10 O 0.35162(14) 0.3669(2) 0.5815(2) 0.0367 Uani
O11 O 0.45841(17) 0.3857(2) 0.5737(2) 0.0447 Uani
H7 H 0.4419 0.3732 0.5908 0.0500 Uiso
O12 O 0.35632(16) 0.2367(2) 0.6483(2) 0.0390 Uani
H8 H 0.3314 0.2479 0.6549 0.0500 Uiso
O13 O 0.46400(13) -0.0718(2) 0.8622(2) 0.0307 Uani
H9 H 0.4727 -0.0444 0.8872 0.0400 Uiso
O14 O 0.45745(13) 0.1329(2) 0.9794(2) 0.0307 Uani
H10 H 0.4676 0.1609 0.9547 0.0400 Uiso
O15 O 0.46647(13) -0.0057(2) 1.0337(2) 0.0307 Uani
N1 N 0.25755(16) 0.6615(2) 0.3419(2) 0.0253 Uani
N2 N 0.25881(15) 0.6918(2) 0.5810(2) 0.0200 Uani
N3 N 0.31638(15) 0.4938(2) 0.5740(2) 0.0250 Uani
N4 N 0.20270(16) 0.4648(3) 0.4024(2) 0.0260 Uani
N5 N 0.32130(16) 0.4849(2) 0.3899(2) 0.0257 Uani
N6 N 0.34879(19) 0.6510(3) 0.4738(3) 0.0383 Uani
N7 N 0.16971(19) 0.6454(3) 0.4490(3) 0.0390 Uani
N8 N 0.19662(16) 0.5243(3) 0.5857(3) 0.0303 Uani
N9 N 0.43969(16) 0.2843(3) 0.6802(2) 0.0273 Uani
N10 N 0.49853(15) 0.0762(3) 0.8651(2) 0.0283 Uani
N11 N 0.45136(16) 0.2418(3) 0.8713(3) 0.0307 Uani
N12 N 0.40617(17) 0.1086(3) 0.7401(3) 0.0317 Uani
N13 N 0.29943(19) 0.7901(3) 0.3224(3) 0.0407 Uani
N14 N 0.19182(17) 0.6871(3) 0.1085(3) 0.0313 Uani
N15 N 0.35865(18) 0.5113(3) 0.7001(3) 0.0427 Uani
N16 N 0.40737(18) 0.2737(3) 0.5484(3) 0.0393 Uani
N17 N 0.41765(16) 0.0294(3) 0.9329(2) 0.0287 Uani
C1 C 0.2577(2) 0.6315(3) 0.3853(3) 0.0253 Uani
C2 C 0.25760(19) 0.6508(3) 0.5426(3) 0.0193 Uani
C3 C 0.29555(19) 0.5222(3) 0.5400(3) 0.0243 Uani
C4 C 0.22046(19) 0.5054(3) 0.4258(3) 0.0193 Uani
C5 C 0.29792(18) 0.5197(3) 0.4172(3) 0.0193 Uani
C6 C 0.3169(2) 0.6249(3) 0.4712(3) 0.0360 Uani
C7 C 0.2002(2) 0.6205(4) 0.4588(3) 0.0373 Uani
C8 C 0.2165(2) 0.5426(3) 0.5469(3) 0.0283 Uani
C9 C 0.4627(2) 0.2454(3) 0.7065(3) 0.0273 Uani
C10 C 0.50059(19) 0.1084(3) 0.8189(3) 0.0283 Uani
C11 C 0.46680(19) 0.2201(3) 0.8248(3) 0.0283 Uani
C12 C 0.4387(2) 0.1347(3) 0.7452(3) 0.0297 Uani
C13 C 0.2685(2) 0.8126(4) 0.3756(3) 0.0427 Uani
H11 H 0.2809 0.8479 0.3986 0.0500 Uiso
H12 H 0.2644 0.7777 0.4052 0.0500 Uiso
C14 C 0.2285(2) 0.8327(4) 0.3513(4) 0.0443 Uani
H13 H 0.2093 0.8378 0.3861 0.0500 Uiso
H14 H 0.2313 0.8737 0.3303 0.0500 Uiso
C15 C 0.3349(2) 0.7640(4) 0.3498(3) 0.0407 Uani
H15 H 0.3519 0.7984 0.3664 0.0500 Uiso
H16 H 0.3269 0.7369 0.3849 0.0500 Uiso
C16 C 0.3591(2) 0.7267(3) 0.3055(3) 0.0407 Uani
H17 H 0.3821 0.7070 0.3275 0.0500 Uiso
H18 H 0.3703 0.7547 0.2732 0.0500 Uiso
C17 C 0.3081(2) 0.8446(4) 0.2798(3) 0.0393 Uani
H19 H 0.3024 0.8847 0.3012 0.0500 Uiso
H20 H 0.3370 0.8444 0.2675 0.0500 Uiso
C18 C 0.2803(2) 0.8380(3) 0.2206(3) 0.0380 Uani
H21 H 0.2903 0.8660 0.1874 0.0500 Uiso
H22 H 0.2523 0.8505 0.2309 0.0500 Uiso
C19 C 0.1825(2) 0.6332(3) 0.1510(3) 0.0307 Uani
H23 H 0.1528 0.6279 0.1549 0.0400 Uiso
H24 H 0.1940 0.5939 0.1339 0.0400 Uiso
C20 C 0.2018(2) 0.6472(3) 0.2170(3) 0.0300 Uani
H25 H 0.2029 0.6082 0.2419 0.0360 Uiso
H26 H 0.1851 0.6783 0.2396 0.0400 Uiso
C21 C 0.2043(2) 0.6613(3) 0.0454(3) 0.0313 Uani
H27 H 0.2029 0.6953 0.0142 0.0370 Uiso
H28 H 0.1850 0.6280 0.0328 0.0370 Uiso
C22 C 0.2465(2) 0.6348(3) 0.0468(3) 0.0310 Uani
H29 H 0.2542 0.6208 0.0047 0.0370 Uiso
H30 H 0.2472 0.5979 0.0745 0.0370 Uiso
C23 C 0.1538(2) 0.7286(3) 0.1029(3) 0.0323 Uani
H31 H 0.1579 0.7598 0.0695 0.0400 Uiso
H32 H 0.1303 0.7022 0.0915 0.0400 Uiso
C24 C 0.1445(2) 0.7634(3) 0.1644(3) 0.0333 Uani
H33 H 0.1359 0.7329 0.1964 0.0400 Uiso
H34 H 0.1223 0.7939 0.1581 0.0400 Uiso
C25 C 0.3834(2) 0.4823(3) 0.7512(4) 0.0413 Uani
H35 H 0.4040 0.5127 0.7658 0.0500 Uiso
H36 H 0.3656 0.4717 0.7866 0.0500 Uiso
C26 C 0.4040(2) 0.4239(3) 0.7278(4) 0.0397 Uani
H37 H 0.4137 0.3990 0.7636 0.0500 Uiso
H38 H 0.4280 0.4360 0.7030 0.0500 Uiso
C27 C 0.3771(2) 0.5658(4) 0.6660(4) 0.0450 Uani
H39 H 0.3582 0.5793 0.6330 0.0500 Uiso
H40 H 0.3802 0.6013 0.6952 0.0500 Uiso
C28 C 0.4182(2) 0.5515(4) 0.6371(4) 0.0470 Uani
H41 H 0.4375 0.5335 0.6674 0.0600 Uiso
H42 H 0.4304 0.5888 0.6171 0.0600 Uiso
C29 C 0.3157(2) 0.5299(3) 0.7215(4) 0.0417 Uani
H43 H 0.3029 0.5554 0.6886 0.0500 Uiso
H44 H 0.3181 0.5567 0.7588 0.0500 Uiso
C30 C 0.2890(2) 0.4763(3) 0.7360(4) 0.0410 Uani
H45 H 0.2617 0.4920 0.7471 0.0500 Uiso
H46 H 0.2999 0.4534 0.7722 0.0500 Uiso
C31 C 0.3777(2) 0.3015(4) 0.4997(3) 0.0387 Uani
H47 H 0.3539 0.2736 0.4961 0.0500 Uiso
H48 H 0.3914 0.3025 0.4589 0.0500 Uiso
C32 C 0.3640(2) 0.3653(4) 0.5155(3) 0.0377 Uani
H49 H 0.3861 0.3957 0.5083 0.0500 Uiso
H50 H 0.3408 0.3771 0.4889 0.0500 Uiso
C33 C 0.4500(2) 0.2824(4) 0.5315(3) 0.0407 Uani
H51 H 0.4669 0.2676 0.5665 0.0500 Uiso
H52 H 0.4559 0.2549 0.4957 0.0500 Uiso
C34 C 0.4641(2) 0.3517(4) 0.5143(3) 0.0420 Uani
H53 H 0.4470 0.3698 0.4811 0.0500 Uiso
H54 H 0.4928 0.3525 0.5010 0.0500 Uiso
C35 C 0.3993(2) 0.2058(4) 0.5631(3) 0.0390 Uani
H55 H 0.3989 0.1812 0.5243 0.0500 Uiso
H56 H 0.4213 0.1893 0.5896 0.0500 Uiso
C36 C 0.3592(2) 0.1987(4) 0.5962(3) 0.0393 Uani
H57 H 0.3557 0.1544 0.6088 0.0500 Uiso
H58 H 0.3370 0.2093 0.5673 0.0500 Uiso
C37 C 0.42043(19) -0.0648(3) 0.8577(3) 0.0290 Uani
H59 H 0.4122 -0.0780 0.8157 0.0350 Uiso
H60 H 0.4079 -0.0944 0.8873 0.0350 Uiso
C38 C 0.4029(2) -0.0023(3) 0.8692(3) 0.0290 Uani
H61 H 0.4103 0.0258 0.8344 0.0350 Uiso
H62 H 0.3730 -0.0059 0.8699 0.0350 Uiso
C39 C 0.41293(19) 0.1337(3) 0.9719(3) 0.0290 Uani
H63 H 0.4043 0.1769 0.9617 0.0350 Uiso
H64 H 0.4003 0.1222 1.0119 0.0350 Uiso
C40 C 0.3979(2) 0.0911(3) 0.9237(3) 0.0287 Uani
H65 H 0.3681 0.0867 0.9270 0.0350 Uiso
H66 H 0.4045 0.1078 0.8822 0.0350 Uiso
C41 C 0.3984(2) -0.0089(3) 0.9861(3) 0.0287 Uani
H67 H 0.3813 -0.0426 0.9687 0.0350 Uiso
H68 H 0.3809 0.0188 1.0115 0.0350 Uiso
C42 C 0.43142(19) -0.0374(3) 1.0265(3) 0.0287 Uani
H69 H 0.4381 -0.0792 1.0093 0.0350 Uiso
H70 H 0.4198 -0.0443 1.0682 0.0350 Uiso
N9G N 0.56031(16) 0.2843(3) 0.8198(2) 0.0273 Uani
C9G C 0.5373(2) 0.2454(3) 0.7935(3) 0.0273 Uani
N10G N 0.50147(15) 0.0762(3) 0.6349(2) 0.0283 Uani
C10G C 0.49941(19) 0.1084(3) 0.6811(3) 0.0283 Uani
N11G N 0.54864(16) 0.2418(3) 0.6287(3) 0.0307 Uani
C11G C 0.53320(19) 0.2201(3) 0.6752(3) 0.0283 Uani
N12G N 0.59383(17) 0.1086(3) 0.7599(3) 0.0317 Uani
C12G C 0.5613(2) 0.1347(3) 0.7548(3) 0.0297 Uani
Cu4G Cu 0.60377(2) 0.32413(4) 0.87096(4) 0.0291 Uani
Cu5G Cu 0.52009(2) 0.02960(4) 0.55422(4) 0.0283 Uani
O13D O 0.53600(13) 0.0718(2) 1.1378(2) 0.0307 Uani
H9D H 0.5273 0.0444 1.1128 0.0400 Uiso
O14D O 0.54255(13) -0.1329(2) 1.0206(2) 0.0307 Uani
H10D H 0.5324 -0.1609 1.0453 0.0400 Uiso
O15D O 0.53353(13) 0.0057(2) 0.9663(2) 0.0307 Uani
N17D N 0.58235(16) -0.0294(3) 1.0671(2) 0.0287 Uani
C37D C 0.57957(19) 0.0648(3) 1.1423(3) 0.0290 Uani
H59D H 0.5878 0.0780 1.1843 0.0350 Uiso
H60D H 0.5921 0.0944 1.1127 0.0350 Uiso
C38D C 0.5971(2) 0.0023(3) 1.1308(3) 0.0290 Uani
H61D H 0.5897 -0.0258 1.1656 0.0350 Uiso
H62D H 0.6270 0.0059 1.1301 0.0350 Uiso
C39D C 0.58707(19) -0.1337(3) 1.0281(3) 0.0290 Uani
H63D H 0.5957 -0.1769 1.0383 0.0350 Uiso
H64D H 0.5997 -0.1222 0.9881 0.0350 Uiso
C40D C 0.6021(2) -0.0911(3) 1.0763(3) 0.0287 Uani
H65D H 0.6319 -0.0867 1.0730 0.0350 Uiso
H66D H 0.5955 -0.1078 1.1178 0.0350 Uiso
C41D C 0.6016(2) 0.0089(3) 1.0139(3) 0.0287 Uani
H67D H 0.6187 0.0426 1.0313 0.0350 Uiso
H68D H 0.6191 -0.0188 0.9885 0.0350 Uiso
C42D C 0.56858(19) 0.0374(3) 0.9735(3) 0.0287 Uani
H69D H 0.5619 0.0792 0.9907 0.0350 Uiso
H70D H 0.5802 0.0443 0.9318 0.0350 Uiso
O7G O 0.62218(14) 0.3855(2) 0.8094(2) 0.0380 Uani
O8G O 0.71407(14) 0.4362(2) 0.8132(2) 0.0407 Uani
H5G H 0.7186 0.3980 0.8012 0.0500 Uiso
O9G O 0.59527(16) 0.5057(2) 0.9076(2) 0.0490 Uani
H6G H 0.5724 0.4778 0.9185 0.0600 Uiso
N15G N 0.64135(18) 0.5113(3) 0.7999(3) 0.0427 Uani
C25G C 0.6166(2) 0.4823(3) 0.7488(4) 0.0413 Uani
H35G H 0.5960 0.5127 0.7342 0.0500 Uiso
H36G H 0.6344 0.4717 0.7134 0.0500 Uiso
C26G C 0.5960(2) 0.4239(3) 0.7722(4) 0.0397 Uani
H37G H 0.5863 0.3990 0.7364 0.0500 Uiso
H38G H 0.5720 0.4360 0.7970 0.0500 Uiso
C27G C 0.6229(2) 0.5658(4) 0.8340(4) 0.0450 Uani
H39G H 0.6418 0.5793 0.8670 0.0500 Uiso
H40G H 0.6198 0.6013 0.8048 0.0500 Uiso
C28G C 0.5818(2) 0.5515(4) 0.8629(4) 0.0470 Uani
H41G H 0.5625 0.5335 0.8326 0.0600 Uiso
H42G H 0.5696 0.5888 0.8829 0.0600 Uiso
C29G C 0.6843(2) 0.5299(3) 0.7785(4) 0.0417 Uani
H43G H 0.6971 0.5554 0.8114 0.0500 Uiso
H44G H 0.6819 0.5567 0.7412 0.0500 Uiso
C30G C 0.7110(2) 0.4763(3) 0.7640(4) 0.0410 Uani
H45G H 0.7383 0.4920 0.7529 0.0500 Uiso
H46G H 0.7001 0.4534 0.7278 0.0500 Uiso
O10G O 0.64838(14) 0.3669(2) 0.9185(2) 0.0367 Uani
O11G O 0.54159(17) 0.3857(2) 0.9263(2) 0.0447 Uani
H7G H 0.5581 0.3732 0.9092 0.0500 Uiso
O12G O 0.64368(16) 0.2367(2) 0.8517(2) 0.0390 Uani
H8G H 0.6686 0.2479 0.8451 0.0500 Uiso
N16G N 0.59263(18) 0.2737(3) 0.9516(3) 0.0393 Uani
C31G C 0.6223(2) 0.3015(4) 1.0003(3) 0.0387 Uani
H47G H 0.6461 0.2736 1.0039 0.0500 Uiso
H48G H 0.6086 0.3025 1.0411 0.0500 Uiso
C32G C 0.6360(2) 0.3653(4) 0.9845(3) 0.0377 Uani
H49G H 0.6139 0.3957 0.9917 0.0500 Uiso
H50G H 0.6592 0.3771 1.0111 0.0500 Uiso
C33G C 0.5500(2) 0.2824(4) 0.9685(3) 0.0407 Uani
H51G H 0.5331 0.2676 0.9335 0.0500 Uiso
H52G H 0.5441 0.2549 1.0043 0.0500 Uiso
C34G C 0.5359(2) 0.3517(4) 0.9857(3) 0.0420 Uani
H53G H 0.5530 0.3698 1.0189 0.0500 Uiso
H54G H 0.5072 0.3525 0.9990 0.0500 Uiso
C35G C 0.6007(2) 0.2058(4) 0.9369(3) 0.0390 Uani
H55G H 0.6011 0.1812 0.9757 0.0500 Uiso
H56G H 0.5787 0.1893 0.9104 0.0500 Uiso
C36G C 0.6408(2) 0.1987(4) 0.9038(3) 0.0393 Uani
H57G H 0.6443 0.1544 0.8912 0.0500 Uiso
H58G H 0.6630 0.2093 0.9327 0.0500 Uiso
Cu3G Cu 0.65133(2) 0.44265(4) 0.86726(4) 0.0307 Uani
N3G N 0.68362(15) 0.4938(2) 0.9260(2) 0.0250 Uani
C3G C 0.70445(19) 0.5222(3) 0.9600(3) 0.0243 Uani
W1G W 0.742090(8) 0.576270(12) 1.025790(11) 0.0193 Uani
N1G N 0.74245(16) 0.6615(2) 1.1581(2) 0.0253 Uani
C1G C 0.7423(2) 0.6315(3) 1.1147(3) 0.0253 Uani
N2G N 0.74119(15) 0.6918(2) 0.9190(2) 0.0200 Uani
C2G C 0.74240(19) 0.6508(3) 0.9574(3) 0.0193 Uani
N4G N 0.79730(16) 0.4648(3) 1.0976(2) 0.0260 Uani
C4G C 0.77954(19) 0.5054(3) 1.0742(3) 0.0193 Uani
N5G N 0.67870(16) 0.4849(2) 1.1101(2) 0.0257 Uani
C5G C 0.70208(18) 0.5197(3) 1.0828(3) 0.0193 Uani
N6G N 0.65121(19) 0.6510(3) 1.0262(3) 0.0383 Uani
C6G C 0.6831(2) 0.6249(3) 1.0288(3) 0.0360 Uani
N7G N 0.83029(19) 0.6454(3) 1.0510(3) 0.0390 Uani
C7G C 0.7998(2) 0.6205(4) 1.0412(3) 0.0373 Uani
N8G N 0.80338(16) 0.5243(3) 0.9143(3) 0.0303 Uani
C8G C 0.7835(2) 0.5426(3) 0.9531(3) 0.0283 Uani
Cu1G Cu 0.73047(2) 0.72052(4) 1.22781(4) 0.0288 Uani
Cu2G Cu 0.73874(3) 0.76130(4) 0.85570(4) 0.0295 Uani
O1E O 0.21904(14) 0.7247(2) 0.7001(2) 0.0360 Uani
O2E O 0.28750(15) 0.7145(2) 0.8070(2) 0.0457 Uani
H1E H 0.3056 0.7377 0.8250 0.0550 Uiso
O3E O 0.16530(15) 0.8216(2) 0.7766(2) 0.0400 Uani
H2E H 0.1567 0.8299 0.7395 0.0500 Uiso
N13E N 0.20057(19) 0.7099(3) 0.8224(3) 0.0407 Uani
C13E C 0.2315(2) 0.6874(4) 0.8756(3) 0.0427 Uani
H11E H 0.2191 0.6521 0.8986 0.0500 Uiso
H12E H 0.2356 0.7223 0.9052 0.0500 Uiso
C14E C 0.2715(2) 0.6673(4) 0.8513(4) 0.0443 Uani
H13E H 0.2907 0.6622 0.8861 0.0500 Uiso
H14E H 0.2687 0.6263 0.8303 0.0500 Uiso
C15E C 0.1651(2) 0.7360(4) 0.8498(3) 0.0407 Uani
H15E H 0.1481 0.7016 0.8664 0.0500 Uiso
H16E H 0.1731 0.7631 0.8849 0.0500 Uiso
C16E C 0.1409(2) 0.7733(3) 0.8055(3) 0.0407 Uani
H17E H 0.1179 0.7930 0.8275 0.0500 Uiso
H18E H 0.1297 0.7453 0.7732 0.0500 Uiso
C17E C 0.1919(2) 0.6554(4) 0.7798(3) 0.0393 Uani
H19E H 0.1976 0.6153 0.8012 0.0500 Uiso
H20E H 0.1630 0.6556 0.7675 0.0500 Uiso
C18E C 0.2197(2) 0.6620(3) 0.7206(3) 0.0380 Uani
H21E H 0.2097 0.6340 0.6874 0.0500 Uiso
H22E H 0.2477 0.6495 0.7309 0.0500 Uiso
O4E O 0.25846(13) 0.82889(19) 0.7075(2) 0.0293 Uani
O5E O 0.22502(14) 0.8191(2) 0.5683(2) 0.0307 Uani
H3E H 0.2037 0.8368 0.5842 0.0400 Uiso
O6E O 0.32026(13) 0.7053(2) 0.6839(2) 0.0340 Uani
H4E H 0.3194 0.7040 0.7240 0.0410 Uiso
N14E N 0.30818(17) 0.8129(3) 0.6085(3) 0.0313 Uani
C19E C 0.3175(2) 0.8668(3) 0.6510(3) 0.0307 Uani
H23E H 0.3472 0.8721 0.6549 0.0400 Uiso
H24E H 0.3060 0.9061 0.6339 0.0400 Uiso
C20E C 0.2982(2) 0.8528(3) 0.7170(3) 0.0300 Uani
H25E H 0.2971 0.8918 0.7419 0.0360 Uiso
H26E H 0.3149 0.8217 0.7396 0.0400 Uiso
C21E C 0.2957(2) 0.8387(3) 0.5454(3) 0.0313 Uani
H27E H 0.2971 0.8047 0.5142 0.0370 Uiso
H28E H 0.3150 0.8720 0.5328 0.0370 Uiso
C22E C 0.2535(2) 0.8652(3) 0.5468(3) 0.0310 Uani
H29E H 0.2458 0.8792 0.5047 0.0370 Uiso
H30E H 0.2528 0.9021 0.5745 0.0370 Uiso
C23E C 0.3462(2) 0.7714(3) 0.6029(3) 0.0323 Uani
H31E H 0.3421 0.7402 0.5695 0.0400 Uiso
H32E H 0.3697 0.7978 0.5915 0.0400 Uiso
C24E C 0.3555(2) 0.7366(3) 0.6644(3) 0.0333 Uani
H33E H 0.3641 0.7671 0.6964 0.0400 Uiso
H34E H 0.3777 0.7061 0.6581 0.0400 Uiso
Cu2E Cu 0.23874(3) 0.73870(4) 0.14430(4) 0.0295 Uani
Cu5D Cu 0.52009(2) -0.02960(4) 1.05422(4) 0.0283 Uani
O14G O 0.54255(13) 0.1329(2) 0.5206(2) 0.0307 Uani
O15C O 0.46647(13) 0.0057(2) 0.5337(2) 0.0307 Uani
O15G O 0.53353(13) -0.0057(2) 0.4663(2) 0.0307 Uani
N17G N 0.58235(16) 0.0294(3) 0.5671(2) 0.0287 Uani
O1G O 0.71904(14) 0.7753(2) 1.2999(2) 0.0360 Uani
O2G O 0.78750(15) 0.7855(2) 1.1930(2) 0.0457 Uani
O3G O 0.66530(15) 0.6784(2) 1.2234(2) 0.0400 Uani
O4G O 0.75846(13) 0.67111(19) 1.2925(2) 0.0293 Uani
N13G N 0.70057(19) 0.7901(3) 1.1776(3) 0.0407 Uani
O1F O 0.78096(14) 0.7247(2) 0.7999(2) 0.0360 Uani
O4F O 0.74154(13) 0.82889(19) 0.7925(2) 0.0293 Uani
O5F O 0.77498(14) 0.8191(2) 0.9317(2) 0.0307 Uani
O6F O 0.67974(13) 0.7053(2) 0.8161(2) 0.0340 Uani
N14F N 0.69182(17) 0.8129(3) 0.8915(3) 0.0313 Uani
Cu1E Cu 0.23047(2) 0.77948(4) 0.77219(4) 0.0288 Uani
H10G H 0.5324 0.1609 0.5453 0.0400 Uiso
H1G H 0.8056 0.7623 1.1750 0.0550 Uiso
H2G H 0.6567 0.6701 1.2605 0.0500 Uiso
H3F H 0.7963 0.8368 0.9158 0.0400 Uiso
H4F H 0.6806 0.7040 0.7760 0.0410 Uiso
O16 O 0.3594(3) 0.7740(4) 0.8514(4) 0.0297 Uani
H71 H 0.3486 0.7924 0.8832 0.0450 Uiso
H72 H 0.3817 0.7932 0.8414 0.0450 Uiso
O17 O 0.42852(15) 0.69814(19) 0.4964(2) 0.0297 Uani
H73 H 0.4025 0.7038 0.4942 0.0400 Uiso
H74 H 0.4387 0.6984 0.4594 0.0400 Uiso
O18 O 0.36631(12) 0.0036(2) 0.6889(2) 0.0297 Uani
H75 H 0.3682 0.0056 0.6488 0.0400 Uiso
H76 H 0.3785 0.0357 0.7052 0.0400 Uiso
loop_
_atom_site_aniso_label
_atom_site_aniso_U_11
_atom_site_aniso_U_22
_atom_site_aniso_U_33
_atom_site_aniso_U_23
_atom_site_aniso_U_13
_atom_site_aniso_U_12
W1 0.02800(13) 0.01800(12) 0.01180(11) 0.00050(11) -0.00120(11) 0.00230(12)
W2 0.0254(2) 0.0327(2) 0.0269(2) 0.000 -0.00030(17) 0.000
Cu1 0.0365 0.0283 0.0216 0.0001 -0.0001 0.0001
Cu2 0.0398(5) 0.0297(5) 0.0191(4) -0.0055(3) 0.0016(4) -0.0070(4)
Cu3 0.0365(5) 0.0300(5) 0.0256(5) 0.0037(4) -0.0024(4) 0.0037(4)
Cu4 0.0353(5) 0.0287(5) 0.0232(4) 0.0016(4) -0.0021(4) 0.0039(4)
Cu5 0.0254(4) 0.0327(5) 0.0269(5) 0.0000(4) -0.0004(4) 0.0000(4)
O1 0.05 0.035 0.023 0.005 -0.013 -0.007
O2 0.059 0.045 0.033 0.003 -0.016 -0.003
O3 0.052 0.038 0.03 0.002 -0.015 -0.005
O4 0.037 0.023 0.028 -0.001 -0.005 0
O5 0.037 0.025 0.03 0.001 -0.005 0.003
O6 0.041 0.028 0.033 0 -0.003 0.002
O7 0.046(3) 0.029(3) 0.039(3) 0.004(2) 0.000(2) -0.004(2)
O8 0.048(3) 0.032(3) 0.042(3) 0.003(3) 0.000(2) -0.006(2)
O9 0.056(4) 0.039(3) 0.052(4) 0.003(3) 0.002(3) -0.006(3)
O10 0.037(3) 0.045(3) 0.028(3) 0.000(2) 0.003(2) 0.008(2)
O11 0.044(3) 0.051(4) 0.039(3) 0.000(3) 0.003(3) 0.007(3)
O12 0.039(3) 0.046(3) 0.032(3) 0.000(2) 0.003(2) 0.005(3)
O13 0.036(3) 0.030(3) 0.026(3) 0.004(2) -0.002(2) 0.004(2)
O14 0.036(3) 0.030(3) 0.026(3) 0.004(2) -0.002(2) 0.004(2)
O15 0.036(3) 0.030(3) 0.026(3) 0.004(2) -0.002(2) 0.004(2)
N1 0.044(3) 0.016(3) 0.016(3) 0.004(2) 0.008(3) 0.011(3)
N2 0.029(3) 0.019(3) 0.012(3) 0.000(2) -0.001(2) 0.002(2)
N3 0.027(3) 0.019(3) 0.029(3) 0.011(2) 0.008(2) 0.010(2)
N4 0.034(3) 0.025(3) 0.019(3) -0.003(3) -0.001(2) 0.002(3)
N5 0.035(3) 0.024(3) 0.018(3) 0.002(2) 0.001(2) 0.004(3)
N6 0.058(4) 0.028(3) 0.029(3) 0.009(3) -0.005(3) -0.009(3)
N7 0.034(4) 0.041(4) 0.042(4) 0.006(3) 0.005(3) -0.004(3)
N8 0.024(3) 0.039(4) 0.028(3) 0.003(3) -0.002(3) -0.002(3)
N9 0.031(3) 0.038(4) 0.013(3) -0.006(3) 0.000(2) -0.003(3)
N10 0.025(3) 0.033(3) 0.027(3) 0.000(3) 0.000(2) 0.000(3)
N11 0.027(3) 0.033(3) 0.032(3) 0.001(3) -0.003(3) 0.008(3)
N12 0.036(4) 0.021(3) 0.038(4) -0.014(3) -0.003(3) 0.006(3)
N13 0.054 0.039 0.029 0.003 -0.014 -0.005
N14 0.038 0.025 0.031 0 -0.004 0.002
N15 0.050(4) 0.033(4) 0.045(4) 0.003(3) 0.000(3) -0.005(3)
N16 0.039(4) 0.047(4) 0.032(3) -0.001(3) 0.003(3) 0.007(3)
N17 0.036(3) 0.028(3) 0.022(3) 0.000(3) 0.000(2) 0.000(3)
C1 0.044(4) 0.016(3) 0.016(3) 0.003(3) 0.008(3) 0.011(3)
C2 0.028(3) 0.018(3) 0.012(3) 0.001(2) -0.001(3) 0.002(3)
C3 0.027(4) 0.018(4) 0.028(4) 0.011(3) 0.008(3) 0.010(3)
C4 0.028(4) 0.018(3) 0.012(3) 0.001(3) -0.001(3) 0.002(3)
C5 0.028(4) 0.018(3) 0.012(3) 0.001(3) -0.001(3) 0.002(3)
C6 0.056(5) 0.025(4) 0.027(4) 0.009(3) -0.005(4) -0.009(4)
C7 0.032(4) 0.039(5) 0.041(5) 0.007(4) 0.005(4) -0.004(4)
C8 0.022(4) 0.037(4) 0.026(4) 0.004(3) -0.001(3) -0.003(3)
C9 0.031(4) 0.038(4) 0.013(3) -0.006(3) 0.000(3) -0.004(3)
C10 0.025(4) 0.033(4) 0.027(4) 0.000(3) 0.000(3) 0.000(3)
C11 0.025(4) 0.033(4) 0.027(4) 0.000(3) 0.000(3) 0.000(3)
C12 0.034(4) 0.018(4) 0.037(4) -0.014(3) -0.003(3) 0.006(3)
C13 0.056 0.041 0.031 0.002 -0.014 -0.004
C14 0.058 0.043 0.032 0.003 -0.014 -0.003
C15 0.053 0.039 0.03 0.002 -0.014 -0.005
C16 0.053 0.039 0.03 0.003 -0.015 -0.005
C17 0.053 0.038 0.027 0.003 -0.013 -0.006
C18 0.051 0.037 0.026 0.004 -0.012 -0.007
C19 0.038 0.024 0.03 0 -0.005 0.001
C20 0.037 0.024 0.029 -0.001 -0.005 0.001
C21 0.038 0.025 0.031 0 -0.004 0.002
C22 0.038 0.025 0.03 0 -0.004 0.003
C23 0.039 0.026 0.032 0 -0.004 0.002
C24 0.04 0.027 0.033 0 -0.003 0.003
C25 0.049(5) 0.032(5) 0.043(5) 0.003(4) 0.000(4) -0.005(4)
C26 0.048(5) 0.030(4) 0.041(5) 0.004(4) 0.000(4) -0.004(4)
C27 0.052(5) 0.035(5) 0.048(5) 0.002(4) 0.001(4) -0.006(4)
C28 0.054(5) 0.037(5) 0.050(5) 0.003(4) 0.001(4) -0.006(4)
C29 0.049(5) 0.032(4) 0.044(5) 0.002(4) 0.000(4) -0.006(4)
C30 0.048(5) 0.032(4) 0.043(5) 0.003(4) 0.000(4) -0.006(4)
C31 0.039(5) 0.047(5) 0.030(4) -0.001(4) 0.003(3) 0.008(4)
C32 0.038(5) 0.046(5) 0.029(4) 0.000(4) 0.003(3) 0.008(4)
C33 0.040(5) 0.049(5) 0.033(5) -0.001(4) 0.004(4) 0.008(4)
C34 0.041(5) 0.050(5) 0.035(5) -0.001(4) 0.004(4) 0.007(4)
C35 0.039(5) 0.046(5) 0.032(4) -0.001(4) 0.003(4) 0.006(4)
C36 0.039(5) 0.046(5) 0.033(4) 0.000(4) 0.003(4) 0.006(4)
C37 0.035(4) 0.029(4) 0.023(4) 0.002(3) -0.002(3) 0.004(3)
C38 0.035(4) 0.029(4) 0.023(4) 0.002(3) -0.002(3) 0.004(3)
C39 0.035(4) 0.029(4) 0.023(4) 0.002(3) -0.002(3) 0.004(3)
C40 0.036(4) 0.028(4) 0.022(4) 0.000(3) 0.000(3) 0.000(3)
C41 0.036(4) 0.028(4) 0.022(4) 0.000(3) 0.000(3) 0.000(3)
C42 0.036(4) 0.028(4) 0.022(4) 0.000(3) 0.000(3) 0.000(3)
N9G 0.031 0.038 0.013 0.006 0 0.003
C9G 0.031 0.038 0.013 0.006 0 0.004
N10G 0.025 0.033 0.027 0 0 0
C10G 0.025 0.033 0.027 0 0 0
N11G 0.027 0.033 0.032 -0.001 -0.003 -0.008
C11G 0.025 0.033 0.027 0 0 0
N12G 0.036 0.021 0.038 0.014 -0.003 -0.006
C12G 0.034 0.018 0.037 0.014 -0.003 -0.006
Cu4G 0.0353 0.0287 0.0232 -0.0016 -0.0021 -0.0039
Cu5G 0.0254 0.0327 0.0269 0 -0.0004 0
O13D 0.036 0.03 0.026 0.004 -0.002 0.004
O14D 0.036 0.03 0.026 0.004 -0.002 0.004
O15D 0.036 0.03 0.026 0.004 -0.002 0.004
N17D 0.036 0.028 0.022 0 0 0
C37D 0.035 0.029 0.023 0.002 -0.002 0.004
C38D 0.035 0.029 0.023 0.002 -0.002 0.004
C39D 0.035 0.029 0.023 0.002 -0.002 0.004
C40D 0.036 0.028 0.022 0 0 0
C41D 0.036 0.028 0.022 0 0 0
C42D 0.036 0.028 0.022 0 0 0
O7G 0.046 0.029 0.039 -0.004 0 0.004
O8G 0.048 0.032 0.042 -0.003 0 0.006
O9G 0.056 0.039 0.052 -0.003 0.002 0.006
N15G 0.05 0.033 0.045 -0.003 0 0.005
C25G 0.049 0.032 0.043 -0.003 0 0.005
C26G 0.048 0.03 0.041 -0.004 0 0.004
C27G 0.052 0.035 0.048 -0.002 0.001 0.006
C28G 0.054 0.037 0.05 -0.003 0.001 0.006
C29G 0.049 0.032 0.044 -0.002 0 0.006
C30G 0.048 0.032 0.043 -0.003 0 0.006
O10G 0.037 0.045 0.028 0 0.003 -0.008
O11G 0.044 0.051 0.039 0 0.003 -0.007
O12G 0.039 0.046 0.032 0 0.003 -0.005
N16G 0.039 0.047 0.032 0.001 0.003 -0.007
C31G 0.039 0.047 0.03 0.001 0.003 -0.008
C32G 0.038 0.046 0.029 0 0.003 -0.008
C33G 0.04 0.049 0.033 0.001 0.004 -0.008
C34G 0.041 0.05 0.035 0.001 0.004 -0.007
C35G 0.039 0.046 0.032 0.001 0.003 -0.006
C36G 0.039 0.046 0.033 0 0.003 -0.006
Cu3G 0.0365 0.03 0.0256 -0.0037 -0.0024 -0.0037
N3G 0.027 0.019 0.029 -0.011 0.008 -0.01
C3G 0.027 0.018 0.028 -0.011 0.008 -0.01
W1G 0.028 0.018 0.0118 -0.0005 -0.0012 -0.0023
N1G 0.044 0.016 0.016 -0.004 0.008 -0.011
C1G 0.044 0.016 0.016 -0.003 0.008 -0.011
N2G 0.029 0.019 0.012 0 -0.001 -0.002
C2G 0.028 0.018 0.012 -0.001 -0.001 -0.002
N4G 0.034 0.025 0.019 0.003 -0.001 -0.002
C4G 0.028 0.018 0.012 -0.001 -0.001 -0.002
N5G 0.035 0.024 0.018 -0.002 0.001 -0.004
C5G 0.028 0.018 0.012 -0.001 -0.001 -0.002
N6G 0.058 0.028 0.029 -0.009 -0.005 0.009
C6G 0.056 0.025 0.027 -0.009 -0.005 0.009
N7G 0.034 0.041 0.042 -0.006 0.005 0.004
C7G 0.032 0.039 0.041 -0.007 0.005 0.004
N8G 0.024 0.039 0.028 -0.003 -0.002 0.002
C8G 0.022 0.037 0.026 -0.004 -0.001 0.003
Cu1G 0.0365 0.0283 0.0216 -0.0001 -0.0001 -0.0001
Cu2G 0.0398 0.0297 0.0191 0.0055 0.0016 0.007
O1E 0.050(3) 0.035(3) 0.023(3) -0.005(2) 0.013(2) -0.007(2)
O2E 0.059(3) 0.045(3) 0.033(3) -0.003(3) 0.016(3) -0.003(3)
O3E 0.052(3) 0.038(3) 0.030(3) -0.002(2) 0.015(2) -0.005(2)
N13E 0.054(4) 0.039(4) 0.029(4) -0.003(3) 0.014(3) -0.005(3)
C13E 0.056(5) 0.041(5) 0.031(4) -0.002(4) 0.014(4) -0.004(4)
C14E 0.058(5) 0.043(5) 0.032(4) -0.003(4) 0.014(4) -0.003(4)
C15E 0.053(5) 0.039(5) 0.030(4) -0.002(4) 0.014(4) -0.005(4)
C16E 0.053(5) 0.039(5) 0.030(4) -0.003(4) 0.015(4) -0.005(4)
C17E 0.053(6) 0.038(5) 0.027(4) -0.003(4) 0.013(4) -0.006(4)
C18E 0.051(5) 0.037(5) 0.026(4) -0.004(3) 0.012(4) -0.007(4)
O4E 0.037(3) 0.023(2) 0.028(3) 0.001(2) 0.005(2) 0.000(2)
O5E 0.037(3) 0.025(3) 0.030(3) -0.001(2) 0.005(2) 0.003(2)
O6E 0.041(3) 0.028(3) 0.033(3) 0.000(2) 0.003(2) 0.002(2)
N14E 0.038(3) 0.025(3) 0.031(3) 0.000(3) 0.004(3) 0.002(3)
C19E 0.038(5) 0.024(4) 0.030(4) 0.000(3) 0.005(3) 0.001(3)
C20E 0.037(4) 0.024(4) 0.029(4) 0.001(3) 0.005(3) 0.001(3)
C21E 0.038(4) 0.025(4) 0.031(4) 0.000(3) 0.004(3) 0.002(3)
C22E 0.038(4) 0.025(4) 0.030(4) 0.000(3) 0.004(3) 0.003(3)
C23E 0.039(4) 0.026(4) 0.032(4) 0.000(3) 0.004(3) 0.002(3)
C24E 0.040(5) 0.027(4) 0.033(4) 0.000(3) 0.003(3) 0.003(4)
Cu2E 0.0398 0.0297 0.0191 0.0055 -0.0016 -0.007
Cu5D 0.0254 0.0327 0.0269 0 -0.0004 0
O14G 0.036 0.03 0.026 -0.004 -0.002 -0.004
O15C 0.036 0.03 0.026 -0.004 -0.002 -0.004
O15G 0.036 0.03 0.026 -0.004 -0.002 -0.004
N17G 0.036 0.028 0.022 0 0 0
O1G 0.05 0.035 0.023 -0.005 -0.013 0.007
O2G 0.059 0.045 0.033 -0.003 -0.016 0.003
O3G 0.052 0.038 0.03 -0.002 -0.015 0.005
O4G 0.037 0.023 0.028 0.001 -0.005 0
N13G 0.054 0.039 0.029 -0.003 -0.014 0.005
O1F 0.05 0.035 0.023 0.005 0.013 0.007
O4F 0.037 0.023 0.028 -0.001 0.005 0
O5F 0.037 0.025 0.03 0.001 0.005 -0.003
O6F 0.041 0.028 0.033 0 0.003 -0.002
N14F 0.038 0.025 0.031 0 0.004 -0.002
Cu1E 0.0365(5) 0.0283(5) 0.0216(4) -0.0001(4) 0.0001(4) 0.0001(4)
O16 0.040(6) 0.030(5) 0.019(5) -0.006(4) 0.002(4) -0.007(4)
O17 0.040(3) 0.030(3) 0.019(3) -0.006(2) 0.002(2) -0.007(2)
O18 0.040(3) 0.030(3) 0.019(3) -0.006(2) 0.002(2) -0.007(2)
loop_
_geom_bond_atom_site_label_1
_geom_bond_atom_site_label_2
_geom_bond_site_symmetry_1
_geom_bond_site_symmetry_2
W1 C1 1_555 1_555
W2 C9 1_555 1_555
Cu1 O1 1_555 1_555
Cu2 N2 1_555 1_555
Cu3 O7 1_555 1_555
Cu4 O7 1_555 1_555
Cu5 O14 1_555 1_555
O1 C18 1_555 1_555
O2 Cu1 1_555 1_555
H1 O2 1_555 1_555
O3 Cu1 1_555 1_555
H2 O3 1_555 1_555
O4 Cu1 1_555 1_555
O5 H3 1_555 1_555
O6 H4 1_555 1_555
O7 C26 1_555 1_555
O8 Cu3 1_555 1_555
H5 O8 1_555 1_555
O9 Cu3 1_555 1_555
H6 O9 1_555 1_555
O10 Cu3 1_555 1_555
O11 H7 1_555 1_555
O12 Cu4 1_555 1_555
H8 O12 1_555 1_555
O13 H9 1_555 1_555
O14 H10 1_555 1_555
O15 Cu5 1_555 1_555
N1 Cu1 1_555 1_555
N2 C2 1_555 1_555
N3 Cu3 1_555 1_555
N4 C4 1_555 1_555
N5 C5 1_555 1_555
N6 C6 1_555 1_555
N7 C7 1_555 1_555
N8 C8 1_555 1_555
N9 Cu4 1_555 1_555
N10 Cu5 1_555 1_555
N11 C11 1_555 1_555
N12 C12 1_555 1_555
N13 Cu1 1_555 1_555
N14 C19 1_555 1_555
N15 Cu3 1_555 1_555
N16 Cu4 1_555 1_555
N17 Cu5 1_555 1_555
C1 N1 1_555 1_555
C2 W1 1_555 1_555
C3 W1 1_555 1_555
C4 W1 1_555 1_555
C5 W1 1_555 1_555
C6 W1 1_555 1_555
C7 W1 1_555 1_555
C8 W1 1_555 1_555
C9 N9 1_555 1_555
C10 W2 1_555 1_555
C11 W2 1_555 1_555
C12 W2 1_555 1_555
C13 N13 1_555 1_555
H11 C13 1_555 1_555
H12 C13 1_555 1_555
C14 O2 1_555 1_555
H13 C14 1_555 1_555
H14 C14 1_555 1_555
C15 N13 1_555 1_555
H15 C15 1_555 1_555
H16 C15 1_555 1_555
C16 O3 1_555 1_555
H17 C16 1_555 1_555
H18 C16 1_555 1_555
C17 N13 1_555 1_555
H19 C17 1_555 1_555
H20 C17 1_555 1_555
C18 C17 1_555 1_555
H21 C18 1_555 1_555
H22 C18 1_555 1_555
C19 H23 1_555 1_555
H24 C19 1_555 1_555
C20 O4 1_555 1_555
H25 C20 1_555 1_555
H26 C20 1_555 1_555
C21 N14 1_555 1_555
H27 C21 1_555 1_555
H28 C21 1_555 1_555
C22 O5 1_555 1_555
H29 C22 1_555 1_555
H30 C22 1_555 1_555
C23 N14 1_555 1_555
H31 C23 1_555 1_555
H32 C23 1_555 1_555
C24 O6 1_555 1_555
H33 C24 1_555 1_555
H34 C24 1_555 1_555
C25 N15 1_555 1_555
H35 C25 1_555 1_555
H36 C25 1_555 1_555
C26 C25 1_555 1_555
H37 C26 1_555 1_555
H38 C26 1_555 1_555
C27 N15 1_555 1_555
H39 C27 1_555 1_555
H40 C27 1_555 1_555
C28 O9 1_555 1_555
H41 C28 1_555 1_555
H42 C28 1_555 1_555
C29 N15 1_555 1_555
H43 C29 1_555 1_555
H44 C29 1_555 1_555
C30 O8 1_555 1_555
H45 C30 1_555 1_555
H46 C30 1_555 1_555
C31 N16 1_555 1_555
H47 C31 1_555 1_555
H48 C31 1_555 1_555
C32 O10 1_555 1_555
H49 C32 1_555 1_555
H50 C32 1_555 1_555
C33 N16 1_555 1_555
H51 C33 1_555 1_555
H52 C33 1_555 1_555
C34 O11 1_555 1_555
H53 C34 1_555 1_555
H54 C34 1_555 1_555
C35 N16 1_555 1_555
H55 C35 1_555 1_555
H56 C35 1_555 1_555
C36 O12 1_555 1_555
H57 C36 1_555 1_555
H58 C36 1_555 1_555
C37 O13 1_555 1_555
H59 C37 1_555 1_555
H60 C37 1_555 1_555
C38 N17 1_555 1_555
H61 C38 1_555 1_555
H62 C38 1_555 1_555
C39 O14 1_555 1_555
H63 C39 1_555 1_555
H64 C39 1_555 1_555
C40 N17 1_555 1_555
H65 C40 1_555 1_555
H66 C40 1_555 1_555
C41 N17 1_555 1_555
H67 C41 1_555 1_555
H68 C41 1_555 1_555
C42 O15 1_555 1_555
H69 C42 1_555 1_555
H70 C42 1_555 1_555
O16 H71 1_555 1_555
H72 O16 1_555 1_555
O17 H73 1_555 1_555
H74 O17 1_555 1_555
O18 H75 1_555 1_555
H76 O18 1_555 1_555
N9G C9G 1_555 1_555
C9G W2 1_555 1_555
N10G C10G 1_555 1_555
C10G W2 1_555 1_555
N11G C11G 1_555 1_555
C11G W2 1_555 1_555
N12G C12G 1_555 1_555
C12G W2 1_555 1_555
Cu4G N9G 1_555 1_555
Cu5G N10G 1_555 1_555
O13D H9D 1_555 1_555
O14D H10D 1_555 1_555
O15D Cu5 1_555 1_555
N17D C38D 1_555 1_555
C37D O13D 1_555 1_555
H59D C37D 1_555 1_555
H60D C37D 1_555 1_555
C38D C37D 1_555 1_555
H61D C38D 1_555 1_555
H62D C38D 1_555 1_555
C39D O14D 1_555 1_555
H63D C39D 1_555 1_555
H64D C39D 1_555 1_555
C40D N17D 1_555 1_555
H65D C40D 1_555 1_555
H66D C40D 1_555 1_555
C41D N17D 1_555 1_555
H67D C41D 1_555 1_555
H68D C41D 1_555 1_555
C42D O15D 1_555 1_555
H69D C42D 1_555 1_555
H70D C42D 1_555 1_555
O7G Cu4G 1_555 1_555
O8G H5G 1_555 1_555
O9G H6G 1_555 1_555
N15G C25G 1_555 1_555
C25G H35G 1_555 1_555
H36G C25G 1_555 1_555
C26G O7G 1_555 1_555
H37G C26G 1_555 1_555
H38G C26G 1_555 1_555
C27G N15G 1_555 1_555
H39G C27G 1_555 1_555
H40G C27G 1_555 1_555
C28G O9G 1_555 1_555
H41G C28G 1_555 1_555
H42G C28G 1_555 1_555
C29G N15G 1_555 1_555
H43G C29G 1_555 1_555
H44G C29G 1_555 1_555
C30G O8G 1_555 1_555
H45G C30G 1_555 1_555
H46G C30G 1_555 1_555
O10G Cu4G 1_555 1_555
O11G H7G 1_555 1_555
O12G Cu4G 1_555 1_555
H8G O12G 1_555 1_555
N16G Cu4G 1_555 1_555
C31G N16G 1_555 1_555
H47G C31G 1_555 1_555
H48G C31G 1_555 1_555
C32G O10G 1_555 1_555
H49G C32G 1_555 1_555
H50G C32G 1_555 1_555
C33G N16G 1_555 1_555
H51G C33G 1_555 1_555
H52G C33G 1_555 1_555
C34G O11G 1_555 1_555
H53G C34G 1_555 1_555
H54G C34G 1_555 1_555
C35G N16G 1_555 1_555
H55G C35G 1_555 1_555
H56G C35G 1_555 1_555
C36G O12G 1_555 1_555
H57G C36G 1_555 1_555
H58G C36G 1_555 1_555
Cu3G O7G 1_555 1_555
N3G Cu3G 1_555 1_555
C3G N3G 1_555 1_555
W1G C3G 1_555 1_555
N1G C1G 1_555 1_555
C1G W1G 1_555 1_555
N2G C2G 1_555 1_555
C2G W1G 1_555 1_555
N4G C4G 1_555 1_555
C4G W1G 1_555 1_555
N5G C5G 1_555 1_555
C5G W1G 1_555 1_555
N6G C6G 1_555 1_555
C6G W1G 1_555 1_555
N7G C7G 1_555 1_555
C7G W1G 1_555 1_555
N8G C8G 1_555 1_555
C8G W1G 1_555 1_555
Cu1G N1G 1_555 1_555
Cu2G N2G 1_555 1_555
O1E Cu2 1_555 1_555
O2E H1E 1_555 1_555
O3E H2E 1_555 1_555
N13E C13E 1_555 1_555
C13E H11E 1_555 1_555
H12E C13E 1_555 1_555
C14E O2E 1_555 1_555
H13E C14E 1_555 1_555
H14E C14E 1_555 1_555
C15E N13E 1_555 1_555
H15E C15E 1_555 1_555
H16E C15E 1_555 1_555
C16E O3E 1_555 1_555
H17E C16E 1_555 1_555
H18E C16E 1_555 1_555
C17E N13E 1_555 1_555
H19E C17E 1_555 1_555
H20E C17E 1_555 1_555
C18E O1E 1_555 1_555
H21E C18E 1_555 1_555
H22E C18E 1_555 1_555
O4E Cu2 1_555 1_555
O5E Cu2 1_555 1_555
H3E O5E 1_555 1_555
O6E Cu2 1_555 1_555
H4E O6E 1_555 1_555
N14E Cu2 1_555 1_555
C19E N14E 1_555 1_555
H23E C19E 1_555 1_555
H24E C19E 1_555 1_555
C20E O4E 1_555 1_555
H25E C20E 1_555 1_555
H26E C20E 1_555 1_555
C21E N14E 1_555 1_555
H27E C21E 1_555 1_555
H28E C21E 1_555 1_555
C22E O5E 1_555 1_555
H29E C22E 1_555 1_555
H30E C22E 1_555 1_555
C23E N14E 1_555 1_555
H31E C23E 1_555 1_555
H32E C23E 1_555 1_555
C24E O6E 1_555 1_555
H33E C24E 1_555 1_555
H34E C24E 1_555 1_555
Cu2E O1 1_555 1_555
Cu5D O15 1_555 1_555
O14G Cu5G 1_555 1_555
O15C Cu5G 1_555 1_555
O15G Cu5G 1_555 1_555
N17G Cu5G 1_555 1_555
O1G Cu1G 1_555 1_555
O2G Cu1G 1_555 1_555
O3G Cu1G 1_555 1_555
O4G Cu1G 1_555 1_555
N13G Cu1G 1_555 1_555
O1F Cu2G 1_555 1_555
O4F Cu2G 1_555 1_555
O5F Cu2G 1_555 1_555
O6F Cu2G 1_555 1_555
N14F Cu2G 1_555 1_555
Cu1E O1E 1_555 1_555
H10G O14G 1_555 1_555
H1G O2G 1_555 1_555
H2G O3G 1_555 1_555
H3F O5F 1_555 1_555
H4F O6F 1_555 1_555
Cu4 O10 1_555 1_555
O4 Cu2E 1_555 1_555
O5 Cu2E 1_555 1_555
O6 Cu2E 1_555 1_555
N3 C3 1_555 1_555
N10 C10 1_555 1_555
N14 Cu2E 1_555 1_555
C13 C14 1_555 1_555
C15 C16 1_555 1_555
C19 C20 1_555 1_555
C21 C22 1_555 1_555
C23 C24 1_555 1_555
C27 C28 1_555 1_555
C29 C30 1_555 1_555
C31 C32 1_555 1_555
C33 C34 1_555 1_555
C35 C36 1_555 1_555
C37 C38 1_555 1_555
C39 C40 1_555 1_555
C41 C42 1_555 1_555
O14D Cu5D 1_555 1_555
O15D Cu5D 1_555 1_555
N17D Cu5D 1_555 1_555
C39D C40D 1_555 1_555
C41D C42D 1_555 1_555
O8G Cu3G 1_555 1_555
O9G Cu3G 1_555 1_555
N15G Cu3G 1_555 1_555
C25G C26G 1_555 1_555
C27G C28G 1_555 1_555
C29G C30G 1_555 1_555
O10G Cu3G 1_555 1_555
C31G C32G 1_555 1_555
C33G C34G 1_555 1_555
C35G C36G 1_555 1_555
O2E Cu1E 1_555 1_555
O3E Cu1E 1_555 1_555
N13E Cu1E 1_555 1_555
C13E C14E 1_555 1_555
C15E C16E 1_555 1_555
C17E C18E 1_555 1_555
O4E Cu1E 1_555 1_555
C19E C20E 1_555 1_555
C21E C22E 1_555 1_555
C23E C24E 1_555 1_555

#END
