
#######################################################################
#
#                 Cambridge Crystallographic Data Centre
#                                CCDC 
#
#######################################################################
#
# If this CIF has been generated from an entry in the Cambridge 
# Structural Database, then it will include bibliographic, chemical, 
# crystal, experimental, refinement or atomic coordinate data resulting 
# from the CCDC's data processing and validation procedures.
#
#######################################################################

data_SERKOQ
_chemical_formula_moiety         '(C32 H18 O16 Zn3)n'
_symmetry_cell_setting           monoclinic
_symmetry_space_group_name_H-M   'C 2/c'
_symmetry_Int_Tables_number      15
_space_group_name_Hall           '-C 2yc'
loop_
_symmetry_equiv_pos_site_id
_symmetry_equiv_pos_as_xyz
1 x,y,z
2 -x,y,1/2-z
3 1/2+x,1/2+y,z
4 1/2-x,1/2+y,1/2-z
5 -x,-y,-z
6 x,-y,1/2+z
7 1/2-x,1/2-y,-z
8 1/2+x,1/2-y,1/2+z
_cell_length_a                   33.237(12)
_cell_length_b                   9.719(4)
_cell_length_c                   18.423(7)
_cell_angle_alpha                90
_cell_angle_beta                 90.538(5)
_cell_angle_gamma                90
_cell_volume                     5950.93
loop_
_atom_site_label
_atom_site_type_symbol
_atom_site_fract_x
_atom_site_fract_y
_atom_site_fract_z
O1 O 0.16000(10) 0.6675(4) 0.41218(18)
Zn1 Zn 0.153713(15) 0.79380(5) 0.49384(3)
Zn2 Zn 0.2500 0.7500 0.5000
O2 O 0.20202(9) 0.9092(3) 0.50421(17)
O3 O 0.22735(11) 0.6819(4) 0.40374(17)
O4 O 0.09720(10) 0.8395(5) 0.4752(3)
C1 C 0.19318(14) 0.6425(5) 0.3815(3)
C2 C 0.18686(14) 0.3646(5) 0.1038(3)
O5 O 0.17688(14) 1.0217(5) 0.4112(3)
O6 O 0.10651(12) 0.9979(5) 0.5575(3)
C3 C 0.08453(16) 0.9325(6) 0.5128(3)
C4 C 0.19156(13) 0.5691(5) 0.3107(2)
C5 C 0.22847(19) 1.2508(6) 0.4365(3)
H1 H 0.2138 1.2510 0.3932
C6 C 0.18848(14) 0.4360(5) 0.1765(3)
C7 C 0.24821(17) 1.1394(6) 0.5452(3)
H2 H 0.2472 1.0643 0.5765
C8 C 0.22664(15) 1.1365(5) 0.4836(3)
C9 C 0.15737(17) 0.5048(6) 0.2879(3)
H3 H 0.1349 0.5054 0.3176
C10 C 0.15521(16) 0.4372(7) 0.2202(3)
H4 H 0.1316 0.3940 0.2053
C11 C 0.19963(15) 1.0158(5) 0.4620(3)
C12 C 0.22303(16) 0.5010(7) 0.1984(3)
H5 H 0.2452 0.5025 0.1680
C13 C 0.22519(16) 0.5649(7) 0.2658(3)
H6 H 0.2492 0.6050 0.2812
O7 O 0.15507(11) 0.3038(4) 0.0885(2)
O8 O 0.21580(10) 0.3784(4) 0.06266(19)
C14 C 0.04057(15) 0.9699(6) 0.5072(3)
C15 C 0.01392(17) 0.8734(6) 0.4795(4)
H7 H 0.0232 0.7867 0.4662
C16 C 0.02623(19) 1.0948(8) 0.5285(4)
H8 H 0.0438 1.1592 0.5487
O1F O 0.34000(10) 0.8325(4) 0.58782(18)
Zn1F Zn 0.346287(15) 0.70620(5) 0.50616(3)
Zn1E Zn 0.153713(15) 0.20620(5) -0.00616(3)
Zn1F_2 Zn 0.346287(15) 1.70620(5) 0.50616(3)
Zn1D Zn -0.153713(15) 1.20620(5) 0.50616(3)
Zn1C Zn 0.346287(15) 1.29380(5) 1.00616(3)
Zn2C Zn 0.2500 0.2500 0.0000
Zn2_2 Zn 0.2500 1.7500 0.5000
Zn2C_2 Zn 0.2500 1.2500 1.0000
O2F O 0.29798(9) 1.5908(3) 0.49579(17)
O2F_2 O 0.29798(9) 0.5908(3) 0.49579(17)
O3F O 0.27265(11) 0.8181(4) 0.59626(17)
O4D O -0.09720(10) 1.1605(5) 0.5248(3)
O4F O 0.40280(10) 0.6605(5) 0.5248(3)
C1F C 0.30682(14) 0.8575(5) 0.6185(3)
C2F C 0.31314(14) 1.1354(5) 0.8962(3)
O5F O 0.32312(14) 1.4783(5) 0.5888(3)
O6D O -0.10651(12) 1.0021(5) 0.4425(3)
C3D C -0.08453(16) 1.0675(6) 0.4872(3)
C4F C 0.30844(13) 0.9309(5) 0.6893(2)
C5F C 0.27153(19) 1.2492(6) 0.5635(3)
H1F H 0.2862 1.2490 0.6068
C6F C 0.31152(14) 1.0640(5) 0.8235(3)
C7F C 0.25179(17) 1.3606(6) 0.4548(3)
H2F H 0.2528 1.4357 0.4235
C8F C 0.27336(15) 1.3635(5) 0.5164(3)
C9F C 0.34263(17) 0.9952(6) 0.7121(3)
H3F H 0.3651 0.9946 0.6824
C10F C 0.34479(16) 1.0628(7) 0.7798(3)
H4F H 0.3684 1.1060 0.7947
C11F C 0.30037(15) 1.4842(5) 0.5380(3)
C12F C 0.27697(16) 0.9990(7) 0.8016(3)
H5F H 0.2548 0.9975 0.8320
C13F C 0.27481(16) 0.9351(7) 0.7342(3)
H6F H 0.2508 0.8950 0.7188
O7F O 0.34493(11) 1.1962(4) 0.9115(2)
O7E O 0.15507(11) 0.6962(4) 0.5885(2)
O7C O 0.34493(11) 0.8038(4) 0.4115(2)
O8F O 0.28420(10) 1.1216(4) 0.93734(19)
O8C O 0.28420(10) 0.8784(4) 0.43734(19)
O8E O 0.21580(10) 0.6216(4) 0.56266(19)
C14D C -0.04057(15) 1.0301(6) 0.4928(3)
C15D C -0.01392(17) 1.1266(6) 0.5205(4)
H7D H -0.0232 1.2133 0.5338
C16D C -0.02623(19) 0.9052(8) 0.4715(4)
H8D H -0.0438 0.8408 0.4513
loop_
_geom_bond_atom_site_label_1
_geom_bond_atom_site_label_2
_geom_bond_site_symmetry_1
_geom_bond_site_symmetry_2
O1 Zn1 1_555 1_555
Zn1 O2 1_555 1_555
Zn2 O2 1_555 1_555
O2 C11 1_555 1_555
O3 Zn2 1_555 1_555
O4 Zn1 1_555 1_555
C1 O1 1_555 1_555
C2 C6 1_555 1_555
O5 C11 1_555 1_555
O6 C3 1_555 1_555
C3 O4 1_555 1_555
C4 C1 1_555 1_555
C5 H1 1_555 1_555
C6 C10 1_555 1_555
C7 H2 1_555 1_555
C8 C5 1_555 1_555
C9 C4 1_555 1_555
H3 C9 1_555 1_555
C10 C9 1_555 1_555
H4 C10 1_555 1_555
C11 C8 1_555 1_555
C12 C6 1_555 1_555
H5 C12 1_555 1_555
C13 C4 1_555 1_555
H6 C13 1_555 1_555
O7 C2 1_555 1_555
O8 C2 1_555 1_555
C14 C3 1_555 1_555
C15 C14 1_555 1_555
H7 C15 1_555 1_555
C16 C14 1_555 1_555
H8 C16 1_555 1_555
O1F Zn1F 1_555 1_555
Zn1F O2F_2 1_555 1_555
Zn1E O7 1_555 1_555
Zn1F_2 O2F 1_555 1_555
Zn1D O4D 1_555 1_555
Zn1C O7F 1_555 1_555
Zn2C O8 1_555 1_555
Zn2_2 O2F 1_555 1_555
Zn2C_2 O8F 1_555 1_555
O2F C11F 1_555 1_555
O2F_2 Zn2 1_555 1_555
O3F Zn2 1_555 1_555
O4D C3D 1_555 1_555
O4F Zn1F 1_555 1_555
C1F O1F 1_555 1_555
C2F C6F 1_555 1_555
O5F C11F 1_555 1_555
O6D C3D 1_555 1_555
C3D C14D 1_555 1_555
C4F C1F 1_555 1_555
C5F C7 1_555 1_555
H1F C5F 1_555 1_555
C6F C10F 1_555 1_555
C7F C5 1_555 1_555
H2F C7F 1_555 1_555
C8F C5F 1_555 1_555
C9F C4F 1_555 1_555
H3F C9F 1_555 1_555
C10F C9F 1_555 1_555
H4F C10F 1_555 1_555
C11F C8F 1_555 1_555
C12F C6F 1_555 1_555
H5F C12F 1_555 1_555
C13F C4F 1_555 1_555
H6F C13F 1_555 1_555
O7F C2F 1_555 1_555
O7E Zn1 1_555 1_555
O7C Zn1F 1_555 1_555
O8F C2F 1_555 1_555
O8C Zn2 1_555 1_555
O8E Zn2 1_555 1_555
C14D C15D 1_555 1_555
C15D C16 1_555 1_555
H7D C15D 1_555 1_555
C16D C15 1_555 1_555
H8D C16D 1_555 1_555
O3 C1 1_555 1_555
C7 C8 1_555 1_555
C12 C13 1_555 1_555
O3F C1F 1_555 1_555
C7F C8F 1_555 1_555
C12F C13F 1_555 1_555
C14D C16D 1_555 1_555

#END
