
#######################################################################
#
#                 Cambridge Crystallographic Data Centre
#                                CCDC 
#
#######################################################################
#
# If this CIF has been generated from an entry in the Cambridge 
# Structural Database, then it will include bibliographic, chemical, 
# crystal, experimental, refinement or atomic coordinate data resulting 
# from the CCDC's data processing and validation procedures.
#
#######################################################################

data_RAXYOF
_chemical_formula_moiety         '(C12 H12 Mn1 N10 O1)n'
_symmetry_cell_setting           monoclinic
_symmetry_space_group_name_H-M   'C 2/c'
_symmetry_Int_Tables_number      15
_space_group_name_Hall           '-C 2yc'
loop_
_symmetry_equiv_pos_site_id
_symmetry_equiv_pos_as_xyz
1 x,y,z
2 1/2+x,1/2+y,z
3 -x,y,1/2-z
4 1/2-x,1/2+y,1/2-z
5 -x,-y,-z
6 1/2-x,1/2-y,-z
7 x,-y,1/2+z
8 1/2+x,1/2-y,1/2+z
_cell_length_a                   27.8153(5)
_cell_length_b                   8.6615(2)
_cell_length_c                   15.2390(3)
_cell_angle_alpha                90
_cell_angle_beta                 103.6010(10)
_cell_angle_gamma                90
_cell_volume                     3568.46
loop_
_atom_site_label
_atom_site_type_symbol
_atom_site_fract_x
_atom_site_fract_y
_atom_site_fract_z
_atom_site_U_iso_or_equiv
_atom_site_thermal_displace_type
Mn1 Mn 0.75326(2) 0.24496(6) 0.61615(4) 0.0332 Uani
N1 N 0.69032(12) 0.4217(4) 0.6032(2) 0.0406 Uani
N2 N 0.52533(13) 0.5359(5) 0.6224(3) 0.0579 Uani
N3 N 0.48084(13) 0.4571(5) 0.6284(3) 0.0571 Uani
N4 N 0.31488(11) 0.5636(4) 0.6430(2) 0.0369 Uani
N5 N 0.78492(13) 0.3695(4) 0.5126(2) 0.0414 Uani
N6 N 0.82576(15) 0.4243(4) 0.5241(2) 0.0468 Uani
N7 N 0.86478(17) 0.4758(6) 0.5354(3) 0.0800 Uani
N8 N 0.79839(14) 0.3927(5) 0.7196(2) 0.0538 Uani
N9 N 0.79211(11) 0.4991(4) 0.7625(2) 0.0367 Uani
N10 N 0.78720(14) 0.6064(5) 0.8044(3) 0.0598 Uani
C1 C 0.64457(14) 0.3836(5) 0.6109(3) 0.0425 Uani
H1 H 0.6377 0.2801 0.6189 0.0510 Uiso
C2 C 0.69926(15) 0.5700(5) 0.5905(3) 0.0409 Uani
H2 H 0.7304 0.5979 0.5836 0.0490 Uiso
C3 C 0.66429(17) 0.6841(5) 0.5872(3) 0.0512 Uani
H3 H 0.6721 0.7868 0.5793 0.0620 Uiso
C4 C 0.61787(17) 0.6442(6) 0.5956(3) 0.0554 Uani
H4 H 0.5937 0.7194 0.5933 0.0670 Uiso
C5 C 0.60736(14) 0.4899(5) 0.6076(3) 0.0436 Uani
C6 C 0.55880(15) 0.4369(6) 0.6169(3) 0.0507 Uani
H5 H 0.5523 0.3319 0.6188 0.0610 Uiso
C7 C 0.44749(15) 0.5549(6) 0.6363(3) 0.0495 Uani
H6 H 0.4542 0.6602 0.6381 0.0600 Uiso
C8 C 0.39871(14) 0.4986(5) 0.6423(3) 0.0414 Uani
C9 C 0.38770(16) 0.3434(5) 0.6472(3) 0.0501 Uani
H7 H 0.4119 0.2690 0.6477 0.0600 Uiso
C10 C 0.34108(18) 0.3005(5) 0.6514(3) 0.0508 Uani
H8 H 0.3332 0.1970 0.6566 0.0610 Uiso
C11 C 0.30570(15) 0.4145(5) 0.6480(3) 0.0444 Uani
H9 H 0.2738 0.3845 0.6491 0.0530 Uiso
C12 C 0.36149(14) 0.6041(5) 0.6420(3) 0.0427 Uani
H10 H 0.3690 0.7087 0.6411 0.0510 Uiso
Mn1A Mn 0.25326(2) 0.74496(6) 0.61615(4) 0.0332 Uani
Mn1E Mn 0.74674(2) 0.25504(6) 0.38385(4) 0.0332 Uani
Mn1C Mn 0.74674(2) 0.74496(6) 0.88385(4) 0.0332 Uani
N4A N 0.81488(11) 0.0636(4) 0.6430(2) 0.0369 Uani
N5E N 0.71508(13) 0.1305(4) 0.4874(2) 0.0414 Uani
N10C N 0.71280(14) 0.1064(5) 0.6956(3) 0.0598 Uani
O1 O 0.5672(7) -0.020(2) 0.7181(14) 0.2421 Uani
loop_
_atom_site_aniso_label
_atom_site_aniso_U_11
_atom_site_aniso_U_22
_atom_site_aniso_U_33
_atom_site_aniso_U_23
_atom_site_aniso_U_13
_atom_site_aniso_U_12
Mn1 0.0276(3) 0.0391(4) 0.0346(3) 0.0013(2) 0.0109(2) 0.0067(3)
N1 0.0340(19) 0.045(2) 0.0448(19) 0.0005(16) 0.0132(15) 0.0080(15)
N2 0.031(2) 0.072(3) 0.074(3) 0.005(2) 0.0191(18) 0.0089(19)
N3 0.0305(19) 0.073(3) 0.072(3) 0.003(2) 0.0205(18) 0.0110(19)
N4 0.0263(17) 0.042(2) 0.0428(18) 0.0022(15) 0.0092(14) 0.0071(14)
N5 0.0343(19) 0.052(2) 0.0398(18) 0.0005(16) 0.0124(15) -0.0016(17)
N6 0.051(2) 0.038(2) 0.052(2) 0.0028(16) 0.0132(18) 0.0020(18)
N7 0.051(3) 0.075(3) 0.112(4) 0.009(3) 0.015(3) -0.026(2)
N8 0.042(2) 0.062(3) 0.054(2) -0.019(2) 0.0047(17) 0.0071(18)
N9 0.0292(17) 0.046(2) 0.0366(17) -0.0020(16) 0.0109(14) -0.0065(15)
N10 0.050(2) 0.066(3) 0.074(3) -0.031(2) 0.036(2) -0.016(2)
C1 0.032(2) 0.047(2) 0.051(2) 0.0052(19) 0.0147(18) 0.0042(18)
C2 0.035(2) 0.048(3) 0.040(2) 0.0032(19) 0.0092(17) 0.0046(19)
C3 0.049(3) 0.041(2) 0.062(3) 0.007(2) 0.010(2) 0.010(2)
C4 0.045(3) 0.060(3) 0.062(3) 0.005(2) 0.014(2) 0.023(2)
C5 0.031(2) 0.057(3) 0.043(2) 0.004(2) 0.0090(17) 0.012(2)
C6 0.034(2) 0.061(3) 0.061(3) 0.009(2) 0.019(2) 0.014(2)
C7 0.029(2) 0.059(3) 0.061(3) 0.006(2) 0.0113(19) 0.011(2)
C8 0.029(2) 0.053(3) 0.044(2) 0.0059(19) 0.0119(17) 0.0114(19)
C9 0.044(3) 0.050(3) 0.061(3) 0.008(2) 0.022(2) 0.022(2)
C10 0.057(3) 0.038(2) 0.066(3) 0.008(2) 0.032(2) 0.009(2)
C11 0.035(2) 0.049(3) 0.053(2) 0.001(2) 0.0177(19) 0.0024(19)
C12 0.030(2) 0.047(2) 0.052(2) 0.001(2) 0.0112(18) 0.0080(19)
Mn1A 0.0276 0.0391 0.0346 0.0013 0.0109 0.0067
Mn1E 0.0276 0.0391 0.0346 0.0013 0.0109 0.0067
Mn1C 0.0276 0.0391 0.0346 -0.0013 0.0109 -0.0067
N4A 0.0263 0.042 0.0428 0.0022 0.0092 0.0071
N5E 0.0343 0.052 0.0398 0.0005 0.0124 -0.0016
N10C 0.05 0.066 0.074 0.031 0.036 0.016
O1 0.204(13) 0.259(16) 0.27(2) -0.070(16) 0.069(13) -0.037(11)
loop_
_geom_bond_atom_site_label_1
_geom_bond_atom_site_label_2
_geom_bond_site_symmetry_1
_geom_bond_site_symmetry_2
Mn1 N1 1_555 1_555
N1 C1 1_555 1_555
N2 N3 1_555 1_555
N3 C7 1_555 1_555
N4 C11 1_555 1_555
N5 Mn1 1_555 1_555
N6 N5 1_555 1_555
N7 N6 1_555 1_555
N8 Mn1 1_555 1_555
N9 N8 1_555 1_555
N10 N9 1_555 1_555
C1 H1 1_555 1_555
C2 N1 1_555 1_555
H2 C2 1_555 1_555
C3 C2 1_555 1_555
H3 C3 1_555 1_555
C4 C3 1_555 1_555
H4 C4 1_555 1_555
C5 C1 1_555 1_555
C6 N2 1_555 1_555
H5 C6 1_555 1_555
C7 H6 1_555 1_555
C8 C7 1_555 1_555
C9 C8 1_555 1_555
H7 C9 1_555 1_555
C10 C9 1_555 1_555
H8 C10 1_555 1_555
C11 C10 1_555 1_555
H9 C11 1_555 1_555
C12 N4 1_555 1_555
H10 C12 1_555 1_555
Mn1A N4 1_555 1_555
Mn1E N5 1_555 1_555
Mn1C N10 1_555 1_555
N4A Mn1 1_555 1_555
N5E Mn1 1_555 1_555
N10C Mn1 1_555 1_555
C4 C5 1_555 1_555
C5 C6 1_555 1_555
C8 C12 1_555 1_555
Mn1E N5E 1_555 1_555

#END
