
#######################################################################
#
#                 Cambridge Crystallographic Data Centre
#                                CCDC 
#
#######################################################################
#
# If this CIF has been generated from an entry in the Cambridge 
# Structural Database, then it will include bibliographic, chemical, 
# crystal, experimental, refinement or atomic coordinate data resulting 
# from the CCDC's data processing and validation procedures.
#
#######################################################################

data_PELQII
_chemical_formula_moiety         '(C194 H154 Cd4 N18 O32 S4)n'
_symmetry_cell_setting           orthorhombic
_symmetry_space_group_name_H-M   'P 21 21 21'
_symmetry_Int_Tables_number      19
_space_group_name_Hall           'P 2ac 2ab'
loop_
_symmetry_equiv_pos_site_id
_symmetry_equiv_pos_as_xyz
1 x,y,z
2 1/2-x,-y,1/2+z
3 -x,1/2+y,1/2-z
4 1/2+x,1/2-y,-z
_cell_length_a                   18.4538(13)
_cell_length_b                   25.3442(17)
_cell_length_c                   37.783(3)
_cell_angle_alpha                90
_cell_angle_beta                 90
_cell_angle_gamma                90
_cell_volume                     17671
loop_
_atom_site_label
_atom_site_type_symbol
_atom_site_fract_x
_atom_site_fract_y
_atom_site_fract_z
C1 C 0.8143(3) 0.4535(3) 0.37172(16)
H1 H 0.8505 0.4782 0.3673
C2 C 0.7761(3) 0.4571(2) 0.40335(15)
H2 H 0.7890 0.4820 0.4203
C3 C 0.7150(3) 0.4210(2) 0.40972(14)
C4 C 0.7028(3) 0.3825(3) 0.38342(15)
H3 H 0.6665 0.3573 0.3861
C5 C 0.7497(4) 0.3833(3) 0.35126(19)
H4 H 0.7411 0.3590 0.3333
C6 C 0.2994(4) 0.6976(3) 0.56234(19)
H5 H 0.3015 0.7194 0.5821
C7 C 0.3424(3) 0.6527(2) 0.5604(2)
H6 H 0.3737 0.6459 0.5791
C8 C 0.3416(3) 0.6155(2) 0.53098(16)
C9 C 0.2956(4) 0.6277(2) 0.50548(19)
H7 H 0.2911 0.6061 0.4857
C10 C 0.2509(4) 0.6767(2) 0.50870(19)
H8 H 0.2182 0.6850 0.4908
C11 C 0.5237(4) 0.1897(2) 0.65514(16)
H9 H 0.5525 0.1596 0.6545
C12 C 0.5357(4) 0.2296(2) 0.62888(17)
H10 H 0.5716 0.2256 0.6118
C13 C 0.4938(3) 0.2727(2) 0.62965(15)
C14 C 0.4396(3) 0.2780(3) 0.65536(15)
H11 H 0.4109 0.3080 0.6566
C15 C 0.4306(4) 0.2359(2) 0.67919(15)
H12 H 0.3922 0.2378 0.6951
C16 C 0.6728(3) 0.4240(2) 0.44175(14)
C17 C 0.6665(3) 0.4706(2) 0.46056(14)
H13 H 0.6925 0.4999 0.4530
C18 C 0.6230(3) 0.4752(3) 0.49007(17)
H14 H 0.6224 0.5065 0.5029
C19 C 0.5804(3) 0.4331(2) 0.50060(16)
C20 C 0.5844(3) 0.3869(2) 0.48128(16)
H15 H 0.5559 0.3583 0.4879
C21 C 0.6289(3) 0.3821(2) 0.45279(16)
H16 H 0.6302 0.3503 0.4404
C22 C 0.4513(3) 0.5002(2) 0.49830(15)
H17 H 0.4609 0.4832 0.4770
C23 C 0.4041(3) 0.5429(2) 0.49920(17)
H18 H 0.3821 0.5546 0.4785
C24 C 0.3899(3) 0.5683(2) 0.53106(16)
C25 C 0.4228(3) 0.5510(2) 0.56203(17)
H19 H 0.4133 0.5680 0.5833
C26 C 0.4700(3) 0.5083(2) 0.56113(15)
H20 H 0.4921 0.4966 0.5819
C27 C 0.4843(3) 0.4829(2) 0.52927(16)
C28 C 0.4524(3) 0.3879(2) 0.56817(17)
H21 H 0.4138 0.4094 0.5618
C29 C 0.4422(3) 0.3475(2) 0.59200(15)
H22 H 0.3958 0.3406 0.6005
C30 C 0.5009(3) 0.3160(2) 0.60386(16)
C31 C 0.5714(3) 0.3259(2) 0.58848(16)
H23 H 0.6106 0.3048 0.5949
C32 C 0.5814(3) 0.3676(2) 0.56362(16)
H24 H 0.6270 0.3750 0.5544
C33 C 0.5212(3) 0.3966(2) 0.55360(16)
C34 C 0.4928(3) 0.0593(2) 0.80625(17)
C35 C 0.4362(3) 0.0175(2) 0.81496(16)
C36 C 0.3745(3) 0.0142(2) 0.79376(17)
H25 H 0.3671 0.0382 0.7755
C37 C 0.3244(3) -0.0253(2) 0.80029(17)
H26 H 0.2832 -0.0282 0.7863
C38 C 0.3359(3) -0.0596(2) 0.82713(16)
C39 C 0.3964(4) -0.0568(2) 0.84885(17)
H27 H 0.4006 -0.0799 0.8679
C40 C 0.4525(4) -0.0190(2) 0.84239(15)
H28 H 0.4958 -0.0183 0.8550
C41 C 0.3016(3) -0.1647(2) 0.81041(17)
C42 C 0.3713(3) -0.1781(2) 0.80572(16)
H29 H 0.4079 -0.1577 0.8157
C43 C 0.3889(3) -0.2231(2) 0.78580(18)
H30 H 0.4375 -0.2311 0.7820
C44 C 0.3386(3) -0.2544(2) 0.77217(16)
C45 C 0.2673(3) -0.2434(2) 0.77844(16)
H31 H 0.2318 -0.2659 0.7696
C46 C 0.2461(3) -0.1972(2) 0.79859(16)
H32 H 0.1978 -0.1897 0.8034
C47 C 0.3576(3) -0.3003(2) 0.75083(14)
C48 C 0.4617(3) 0.5516(2) 0.82316(17)
C49 C 0.4155(3) 0.5079(2) 0.83468(15)
C50 C 0.3425(3) 0.5068(2) 0.82557(17)
H33 H 0.3229 0.5337 0.8119
C51 C 0.2989(4) 0.4655(3) 0.83697(16)
H34 H 0.2501 0.4647 0.8309
C52 C 0.3282(3) 0.4252(2) 0.85748(15)
C53 C 0.4012(3) 0.4264(2) 0.86658(16)
H35 H 0.4208 0.3995 0.8803
C54 C 0.4448(3) 0.4677(3) 0.85518(15)
H36 H 0.4936 0.4685 0.8613
C55 C 0.2943(3) 0.3220(2) 0.83868(15)
C56 C 0.2517(3) 0.3188(3) 0.80893(16)
H37 H 0.2137 0.3424 0.8053
C57 C 0.2673(3) 0.2783(2) 0.78368(16)
H38 H 0.2370 0.2734 0.7643
C58 C 0.3292(3) 0.2456(2) 0.78833(16)
C59 C 0.3702(3) 0.2518(3) 0.81896(15)
H39 H 0.4105 0.2303 0.8223
C60 C 0.3532(3) 0.2891(2) 0.84488(18)
H40 H 0.3803 0.2917 0.8656
C61 C 0.3504(3) 0.2042(2) 0.76319(17)
C62 C 0.6993(3) 0.0588(2) 0.86048(15)
H41 H 0.6602 0.0361 0.8574
C63 C 0.7446(3) 0.0501(2) 0.88850(15)
H42 H 0.7380 0.0205 0.9027
C64 C 0.7997(3) 0.0849(2) 0.89586(14)
C65 C 0.8122(3) 0.1264(3) 0.87213(17)
H43 H 0.8523 0.1484 0.8743
C66 C 0.7607(3) 0.1334(3) 0.84473(17)
H44 H 0.7635 0.1640 0.8313
C67 C 1.0293(3) 0.3151(2) 1.13479(15)
H45 H 1.0066 0.3478 1.1326
C68 C 1.0118(3) 0.2793(2) 1.11140(17)
H46 H 0.9802 0.2876 1.0930
C69 C 1.0414(3) 0.2270(2) 1.11420(16)
C70 C 1.0907(3) 0.2196(2) 1.14147(17)
H47 H 1.1118 0.1868 1.1454
C71 C 1.1077(3) 0.2626(2) 1.16289(17)
H48 H 1.1441 0.2579 1.1796
C72 C 1.1571(4) -0.2084(3) 1.0795(2)
H49 H 1.1521 -0.2280 1.1002
C73 C 1.1172(4) -0.1634(3) 1.0755(2)
H50 H 1.0842 -0.1532 1.0927
C74 C 1.1267(3) -0.1335(2) 1.04538(17)
C75 C 1.1771(4) -0.1511(2) 1.0207(2)
H51 H 1.1882 -0.1316 1.0006
C76 C 1.2110(4) -0.2005(3) 1.02766(19)
H52 H 1.2409 -0.2145 1.0102
C77 C 0.8445(3) 0.0811(2) 0.92898(14)
C78 C 0.8409(3) 0.0323(2) 0.94976(16)
H53 H 0.8093 0.0054 0.9433
C79 C 0.8852(3) 0.0267(2) 0.97933(15)
H54 H 0.8851 -0.0046 0.9921
C80 C 0.9303(3) 0.0688(2) 0.98986(16)
C81 C 0.9336(3) 0.1137(2) 0.96944(14)
H55 H 0.9661 0.1402 0.9757
C82 C 0.8913(3) 0.1208(3) 0.94044(15)
H56 H 0.8934 0.1524 0.9281
C83 C 1.0263(3) 0.1861(2) 1.08913(16)
C84 C 0.9607(3) 0.1850(2) 1.06991(15)
H57 H 0.9293 0.2136 1.0714
C85 C 0.9420(3) 0.1429(2) 1.04923(15)
H58 H 0.8954 0.1404 1.0400
C86 C 0.9933(3) 0.1034(2) 1.04198(16)
C87 C 1.0587(3) 0.1044(3) 1.06082(16)
H59 H 1.0920 0.0773 1.0574
C88 C 1.0750(3) 0.1437(3) 1.08401(16)
H60 H 1.1183 0.1426 1.0966
C89 C 1.0114(3) 0.0101(2) 1.02460(17)
C90 C 1.0525(4) -0.0106(2) 0.99859(17)
H61 H 1.0545 0.0058 0.9766
C91 C 1.0928(4) -0.0575(2) 1.00479(16)
H62 H 1.1226 -0.0714 0.9873
C92 C 1.0868(3) -0.0828(2) 1.03806(15)
C93 C 1.0449(3) -0.0607(2) 1.06345(16)
H63 H 1.0437 -0.0758 1.0859
C94 C 1.0025(3) -0.0150(2) 1.05650(18)
H64 H 0.9697 -0.0024 1.0731
Cd1 Cd 0.47314(2) 0.132680(15) 0.726053(10)
Cd2 Cd 0.61450(2) 0.122910(17) 0.799176(11)
N1 N 0.8016(3) 0.4167(2) 0.34763(14)
N2 N 0.2567(3) 0.7088(2) 0.53642(15)
N3 N 0.4731(3) 0.19357(19) 0.68054(13)
N4 N 0.5325(3) 0.4384(2) 0.52875(14)
N5 N 0.7084(2) 0.0988(2) 0.83685(13)
N6 N 1.0765(3) 0.30989(18) 1.16156(12)
N7 N 1.2035(3) -0.2254(2) 1.05449(15)
N8 N 0.9770(3) 0.0594(2) 1.01934(12)
O1 O 0.4911(2) 0.08373(16) 0.77943(12)
O2 O 0.5428(2) 0.06456(17) 0.83040(12)
O3 O 0.3105(2) -0.31573(16) 0.72940(11)
O4 O 0.4205(2) -0.31887(16) 0.75068(12)
O5 O 0.4146(2) 0.19034(18) 0.76148(11)
O6 O 0.2966(2) 0.1924(2) 0.74346(12)
O7 O 0.5222(3) 0.55703(18) 0.83734(13)
O8 O 0.4431(2) 0.58037(17) 0.79671(11)
O17 O 0.2790(3) -0.12395(18) 0.87331(12)
O18 O 0.2065(2) -0.09392(18) 0.82178(13)
O19 O 0.1986(2) 0.38675(17) 0.86502(12)
O20 O 0.2963(2) 0.35322(16) 0.90310(12)
O27 O 0.3635(2) 0.09566(16) 0.71849(11)
H143 H 0.3272 0.1185 0.7283
H144 H 0.3540 0.0905 0.6937
O28 O 0.6530(2) 0.06280(15) 0.75765(11)
H145 H 0.7048 0.0599 0.7586
H146 H 0.6386 0.0744 0.7345
S1 S 0.27265(9) -0.11033(7) 0.83592(5)
S2 S 0.27261(8) 0.37067(7) 0.86932(4)
Cd1B Cd 0.52686(2) -0.367320(15) 0.773947(10)
Cd1B_2 Cd 0.52686(2) 0.632680(15) 0.773947(10)
Cd2C Cd 1.11450(2) 0.377090(17) 1.200824(11)
Cd2B Cd 0.38550(2) -0.377090(17) 0.700824(11)
N6C N 0.5765(3) 0.19011(18) 0.83844(12)
O3B O 0.6895(2) 0.18427(16) 0.77060(11)
O4B O 0.5795(2) 0.18113(16) 0.74932(12)
O8B O 0.5569(2) 0.08037(17) 0.70329(11)
C95 C 1.0070(3) 0.6915(2) -0.31056(15)
C96 C 1.0597(3) 0.7333(2) -0.31720(18)
C97 C 1.1232(3) 0.7369(2) -0.29757(16)
H65 H 1.1326 0.7125 -0.2798
C98 C 1.1727(3) 0.7768(2) -0.30457(18)
H66 H 1.2152 0.7792 -0.2914
C99 C 1.1587(4) 0.8133(3) -0.33119(18)
C100 C 1.0952(3) 0.8098(3) -0.35081(17)
H67 H 1.0858 0.8342 -0.3686
C101 C 1.0457(4) 0.7698(2) -0.34382(17)
H68 H 1.0032 0.7674 -0.3570
C102 C 1.1917(3) 0.9195(2) -0.31550(15)
C103 C 1.1198(3) 0.9303(2) -0.30722(16)
H69 H 1.0832 0.9083 -0.3155
C104 C 1.1027(3) 0.9740(3) -0.28663(17)
H70 H 1.0546 0.9812 -0.2811
C105 C 1.1574(3) 1.0069(2) -0.27432(17)
C106 C 1.2293(3) 0.9961(2) -0.28259(16)
H71 H 1.2659 1.0181 -0.2743
C107 C 1.2465(3) 0.9524(2) -0.30318(16)
H72 H 1.2945 0.9451 -0.3087
C108 C 1.1430(3) 1.0502(2) -0.24924(16)
C109 C 1.0481(4) 0.1997(3) -0.31921(16)
C110 C 1.0970(3) 0.2441(2) -0.32996(17)
C111 C 1.0702(4) 0.2828(2) -0.35300(16)
H73 H 1.0239 0.2788 -0.3623
C112 C 1.1119(3) 0.3280(2) -0.36263(15)
H74 H 1.0928 0.3554 -0.3761
C113 C 1.1837(3) 0.3281(2) -0.35034(15)
C114 C 1.2141(3) 0.2904(2) -0.32706(16)
H75 H 1.2610 0.2932 -0.3182
C115 C 1.1669(3) 0.2477(3) -0.31831(18)
H76 H 1.1847 0.2210 -0.3039
C116 C 1.2124(3) 0.4324(2) -0.32957(15)
C117 C 1.1530(4) 0.4642(2) -0.33694(16)
H77 H 1.1269 0.4591 -0.3577
C118 C 1.1332(3) 0.5022(2) -0.31436(17)
H78 H 1.0944 0.5244 -0.3195
C119 C 1.1732(3) 0.5078(2) -0.28217(16)
C120 C 1.2331(3) 0.4727(2) -0.2745(2)
H79 H 1.2589 0.4760 -0.2534
C121 C 1.2507(4) 0.4355(2) -0.29797(15)
H80 H 1.2882 0.4120 -0.2933
C122 C 1.1528(3) 0.5503(2) -0.25692(17)
C123 C 0.5983(4) 0.4925(2) 0.16616(19)
H81 H 0.6314 0.4979 0.1843
C124 C 0.5821(4) 0.5347(3) 0.14454(17)
H82 H 0.6035 0.5674 0.1485
C125 C 0.5324(3) 0.5279(2) 0.11622(16)
C126 C 0.5024(3) 0.4803(2) 0.11344(15)
H83 H 0.4665 0.4749 0.0965
C127 C 0.5231(3) 0.4383(3) 0.13504(17)
H84 H 0.5046 0.4049 0.1305
C128 C 0.7343(4) 0.9450(3) 0.02998(19)
H85 H 0.7699 0.9546 0.0138
C129 C 0.6930(3) 0.9016(2) 0.02462(19)
H86 H 0.7001 0.8817 0.0042
C130 C 0.6399(4) 0.8859(2) 0.0488(2)
C131 C 0.6321(4) 0.9180(3) 0.07996(18)
H87 H 0.5990 0.9084 0.0973
C132 C 0.6735(4) 0.9634(3) 0.0844(2)
H88 H 0.6664 0.9848 0.1040
C133 C 0.2416(4) 0.6435(3) -0.14890(19)
H89 H 0.2447 0.6155 -0.1647
C134 C 0.2934(4) 0.6450(3) -0.12034(19)
H90 H 0.3324 0.6218 -0.1193
C135 C 0.2813(3) 0.6840(2) -0.09388(14)
C136 C 0.2273(4) 0.7197(3) -0.1003(2)
H91 H 0.2214 0.7486 -0.0854
C137 C 0.1801(4) 0.7125(2) -0.12969(17)
H92 H 0.1392 0.7339 -0.1310
C138 C 0.5169(3) 0.5724(2) 0.09254(15)
C139 C 0.5686(3) 0.6129(2) 0.08747(16)
H93 H 0.6124 0.6117 0.0996
C140 C 0.5541(3) 0.6557(2) 0.06396(17)
H94 H 0.5882 0.6819 0.0598
C141 C 0.4839(4) 0.6565(2) 0.04681(18)
C142 C 0.4353(3) 0.6183(3) 0.05302(16)
H95 H 0.3898 0.6203 0.0426
C143 C 0.4512(3) 0.5769(3) 0.07411(15)
H96 H 0.4171 0.5502 0.0765
C144 C 0.5068(3) 0.7741(2) 0.06220(16)
H97 H 0.4789 0.7595 0.0802
C145 C 0.5465(3) 0.8211(2) 0.06922(16)
H98 H 0.5420 0.8390 0.0906
C146 C 0.5925(3) 0.8391(3) 0.04258(16)
C147 C 0.5926(3) 0.8161(3) 0.00837(19)
H99 H 0.6188 0.8316 -0.0099
C148 C 0.5522(3) 0.7690(2) 0.00206(16)
H100 H 0.5547 0.7516 -0.0196
C149 C 0.5084(3) 0.7499(2) 0.02992(16)
C150 C 0.4244(3) 0.6955(2) -0.00486(16)
C151 C 0.3793(3) 0.7387(2) -0.01405(16)
H101 H 0.3806 0.7695 -0.0007
C152 C 0.3314(3) 0.7349(3) -0.04393(17)
H102 H 0.3022 0.7630 -0.0506
C153 C 0.3306(3) 0.6855(3) -0.06320(17)
C154 C 0.3769(4) 0.6466(3) -0.05366(17)
H103 H 0.3782 0.6161 -0.0674
C155 C 0.4245(3) 0.6496(2) -0.02342(16)
H104 H 0.4539 0.6214 -0.0169
C156 C 0.7585(3) 0.3903(3) 0.15099(16)
H105 H 0.7593 0.4217 0.1637
C157 C 0.8099(4) 0.3837(3) 0.12525(17)
H106 H 0.8501 0.4058 0.1238
C158 C 0.7991(3) 0.3412(2) 0.10044(16)
C159 C 0.7444(3) 0.3065(2) 0.10888(16)
H107 H 0.7363 0.2774 0.0944
C160 C 0.7012(3) 0.3140(2) 0.13852(15)
H108 H 0.6666 0.2884 0.1437
C161 C 1.0660(4) 0.5149(3) -0.17715(16)
H109 H 1.0997 0.5096 -0.1951
C162 C 1.0614(3) 0.4787(2) -0.15168(16)
H110 H 1.0938 0.4506 -0.1514
C163 C 1.0097(3) 0.4824(2) -0.12600(17)
C164 C 0.9636(3) 0.5262(2) -0.12672(17)
H111 H 0.9283 0.5299 -0.1093
C165 C 1.2379(4) 0.0702(3) -0.01921(18)
H112 H 1.2740 0.0611 -0.0032
C166 C 1.1984(3) 0.1192(3) -0.01349(16)
H113 H 1.2087 0.1405 0.0059
C167 C 1.1447(3) 0.1336(2) -0.03761(14)
C168 C 1.1363(3) 0.0980(2) -0.06486(16)
H114 H 1.1023 0.1057 -0.0823
C169 C 1.1752(4) 0.0515(3) -0.06791(19)
H115 H 1.1651 0.0288 -0.0866
C170 C 0.8457(3) 0.3357(2) 0.06869(16)
C171 C 0.8906(3) 0.3768(2) 0.05698(17)
H116 H 0.8927 0.4081 0.0698
C172 C 0.9307(3) 0.3716(2) 0.02729(17)
H117 H 0.9599 0.3996 0.0202
C173 C 0.9297(3) 0.3247(3) 0.00658(15)
C174 C 0.8825(3) 0.2850(2) 0.01749(16)
H118 H 0.8784 0.2545 0.0040
C175 C 0.8417(3) 0.2903(2) 0.04808(16)
H119 H 0.8111 0.2630 0.0550
C176 C 0.9991(3) 0.4406(2) -0.09966(14)
C177 C 1.0566(3) 0.4080(2) -0.09117(16)
H120 H 1.1012 0.4130 -0.1021
C178 C 1.0481(3) 0.3677(2) -0.06622(16)
H121 H 1.0875 0.3460 -0.0613
C179 C 0.9811(3) 0.3585(3) -0.04796(14)
C180 C 0.9230(3) 0.3932(2) -0.05664(15)
H122 H 0.8784 0.3893 -0.0455
C181 C 0.9327(3) 0.4336(3) -0.08202(15)
H123 H 0.8942 0.4560 -0.0872
C182 C 1.1018(3) 0.1822(2) -0.03445(15)
C183 C 1.0950(3) 0.2079(2) -0.00242(17)
H124 H 1.1183 0.1941 0.0173
C184 C 1.0554(3) 0.2526(2) 0.00127(16)
H125 H 1.0555 0.2710 0.0226
C185 C 1.0145(3) 0.2708(2) -0.02726(18)
C186 C 1.0208(4) 0.2474(2) -0.05941(16)
H126 H 0.9962 0.2613 -0.0788
C187 C 1.0653(3) 0.2011(2) -0.06368(17)
H127 H 1.0693 0.1845 -0.0855
Cd3 Cd 1.02281(2) 0.620540(16) -0.225130(11)
Cd4 Cd 0.61227(2) 0.375930(16) 0.198010(11)
N9 N 0.5703(3) 0.4453(2) 0.16293(13)
N10 N 0.7219(3) 0.9756(2) 0.06105(14)
N11 N 0.1900(3) 0.6787(2) -0.15446(15)
N12 N 0.7063(3) 0.3546(2) 0.15949(14)
N13 N 1.0238(3) 0.56002(18) -0.17863(12)
C194 C 0.9693(4) 0.5623(2) -0.15170(15)
H142 H 0.9367 0.5903 -0.1518
N14 N 1.2256(3) 0.0387(2) -0.04532(15)
N15 N 0.9740(2) 0.31862(19) -0.02394(12)
N16 N 0.4690(3) 0.7004(2) 0.02495(14)
O9 O 0.9590(2) 0.68126(19) -0.33447(12)
O10 O 1.0064(2) 0.66630(16) -0.28171(11)
O11 O 1.0783(2) 1.06993(16) -0.24962(11)
O12 O 1.1867(2) 1.06405(17) -0.22844(11)
O13 O 1.2015(2) 0.57176(19) -0.23784(13)
O14 O 1.0864(2) 0.56332(17) -0.25737(12)
O15 O 1.0666(2) 0.17275(18) -0.29286(11)
O16 O 0.9915(2) 0.19416(17) -0.33827(12)
O21 O 1.2127(2) 0.87696(19) -0.37664(12)
O22 O 1.2875(2) 0.84788(17) -0.32804(13)
O23 O 1.3113(2) 0.37109(17) -0.35367(12)
O24 O 1.2144(2) 0.39954(18) -0.39504(11)
O29 O 1.1288(2) 0.66168(16) -0.21874(11)
H147 H 1.1669 0.6388 -0.2268
H148 H 1.1361 0.6698 -0.1942
O30 O 0.6522(2) 0.31193(16) 0.23577(11)
H149 H 0.6847 0.3271 0.2528
H150 H 0.6117 0.2964 0.2478
S3 S 1.22022(9) 0.86436(7) -0.34113(5)
S4 S 1.23786(9) 0.38296(7) -0.36064(5)
Cd3B Cd 0.97719(2) 1.120540(16) -0.274870(11)
Cd3B_2 Cd 0.97719(2) 0.120540(16) -0.274870(11)
Cd4A Cd 0.88773(2) 0.624070(16) -0.301990(11)
Cd4C Cd 1.11227(2) 1.124070(16) -0.198010(11)
O9A O 0.5410(2) 0.31874(19) 0.16553(12)
O11B O 0.9217(2) 0.56993(16) -0.25038(11)
O11C O 0.5783(2) 0.43007(16) 0.24962(11)
O12C O 0.6867(2) 0.43595(17) 0.22844(11)
O15B O 0.9334(2) 0.67275(18) -0.20714(11)
C188 C 0.5165(4) 0.9349(3) 0.7295(2)
H128 H 0.5245 0.9598 0.7482
H129 H 0.4682 0.9390 0.7205
H130 H 0.5507 0.9410 0.7108
C189 C 0.4926(5) 0.8421(3) 0.7190(2)
H131 H 0.5289 0.8289 0.7031
H132 H 0.4542 0.8581 0.7056
H133 H 0.4734 0.8135 0.7327
C190 C 0.5699(4) 0.8736(3) 0.7732(2)
H134 H 0.5951 0.8421 0.7759
N17 N 0.5255(3) 0.8821(2) 0.74303(15)
O25 O 0.5746(3) 0.91011(19) 0.79650(14)
C191 C 0.4675(4) 0.1284(3) 0.2862(2)
H135 H 0.4345 0.1021 0.2774
H136 H 0.4412 0.1601 0.2915
H137 H 0.4906 0.1156 0.3073
C192 C 0.5353(4) 0.1928(3) 0.2476(2)
H138 H 0.5838 0.1959 0.2387
H139 H 0.5289 0.2164 0.2672
H140 H 0.5015 0.2016 0.2292
C193 C 0.5642(4) 0.0977(3) 0.24433(19)
H141 H 0.5536 0.0637 0.2520
N18 N 0.5228(3) 0.1396(2) 0.25910(15)
O26 O 0.6141(2) 0.10264(17) 0.22166(13)
O31 O 0.2540(2) 0.20573(17) 0.11138(11)
H151 H 0.2758 0.1768 0.1073
H152 H 0.2323 0.2026 0.1311
O32 O 0.2026(3) 0.2938(2) 0.56237(14)
H153 H 0.2369 0.2908 0.5474
H154 H 0.1952 0.3263 0.5667
loop_
_geom_bond_atom_site_label_1
_geom_bond_atom_site_label_2
_geom_bond_site_symmetry_1
_geom_bond_site_symmetry_2
C1 H1 1_555 1_555
C2 C1 1_555 1_555
H2 C2 1_555 1_555
C3 C2 1_555 1_555
C4 C3 1_555 1_555
H3 C4 1_555 1_555
C5 C4 1_555 1_555
H4 C5 1_555 1_555
C6 H5 1_555 1_555
C7 C6 1_555 1_555
H6 C7 1_555 1_555
C8 C7 1_555 1_555
C9 C8 1_555 1_555
H7 C9 1_555 1_555
C10 C9 1_555 1_555
H8 C10 1_555 1_555
C11 H9 1_555 1_555
C12 C11 1_555 1_555
H10 C12 1_555 1_555
C13 C12 1_555 1_555
C14 C13 1_555 1_555
H11 C14 1_555 1_555
C15 C14 1_555 1_555
H12 C15 1_555 1_555
C16 C3 1_555 1_555
C17 C16 1_555 1_555
H13 C17 1_555 1_555
C18 C17 1_555 1_555
H14 C18 1_555 1_555
C19 C18 1_555 1_555
C20 C19 1_555 1_555
H15 C20 1_555 1_555
C21 C16 1_555 1_555
H16 C21 1_555 1_555
C22 H17 1_555 1_555
C23 C22 1_555 1_555
H18 C23 1_555 1_555
C24 C8 1_555 1_555
C25 C24 1_555 1_555
H19 C25 1_555 1_555
C26 C25 1_555 1_555
H20 C26 1_555 1_555
C27 C22 1_555 1_555
C28 H21 1_555 1_555
C29 C28 1_555 1_555
H22 C29 1_555 1_555
C30 C13 1_555 1_555
C31 C30 1_555 1_555
H23 C31 1_555 1_555
C32 C31 1_555 1_555
H24 C32 1_555 1_555
C33 C28 1_555 1_555
C34 C35 1_555 1_555
C35 C36 1_555 1_555
C36 H25 1_555 1_555
C37 C36 1_555 1_555
H26 C37 1_555 1_555
C38 C37 1_555 1_555
C39 C38 1_555 1_555
H27 C39 1_555 1_555
C40 C35 1_555 1_555
H28 C40 1_555 1_555
C41 C42 1_555 1_555
C42 H29 1_555 1_555
C43 C42 1_555 1_555
H30 C43 1_555 1_555
C44 C43 1_555 1_555
C45 C44 1_555 1_555
H31 C45 1_555 1_555
C46 C41 1_555 1_555
H32 C46 1_555 1_555
C47 C44 1_555 1_555
C48 C49 1_555 1_555
C49 C50 1_555 1_555
C50 H33 1_555 1_555
C51 C50 1_555 1_555
H34 C51 1_555 1_555
C52 C51 1_555 1_555
C53 C52 1_555 1_555
H35 C53 1_555 1_555
C54 C49 1_555 1_555
H36 C54 1_555 1_555
C55 C56 1_555 1_555
C56 H37 1_555 1_555
C57 C56 1_555 1_555
H38 C57 1_555 1_555
C58 C57 1_555 1_555
C59 C58 1_555 1_555
H39 C59 1_555 1_555
C60 C55 1_555 1_555
H40 C60 1_555 1_555
C61 C58 1_555 1_555
C62 H41 1_555 1_555
C63 C62 1_555 1_555
H42 C63 1_555 1_555
C64 C63 1_555 1_555
C65 C64 1_555 1_555
H43 C65 1_555 1_555
C66 C65 1_555 1_555
H44 C66 1_555 1_555
C67 H45 1_555 1_555
C68 C67 1_555 1_555
H46 C68 1_555 1_555
C69 C68 1_555 1_555
C70 C69 1_555 1_555
H47 C70 1_555 1_555
C71 C70 1_555 1_555
H48 C71 1_555 1_555
C72 H49 1_555 1_555
C73 C72 1_555 1_555
H50 C73 1_555 1_555
C74 C73 1_555 1_555
C75 C74 1_555 1_555
H51 C75 1_555 1_555
C76 C75 1_555 1_555
H52 C76 1_555 1_555
C77 C64 1_555 1_555
C78 C77 1_555 1_555
H53 C78 1_555 1_555
C79 C78 1_555 1_555
H54 C79 1_555 1_555
C80 C79 1_555 1_555
C81 C80 1_555 1_555
H55 C81 1_555 1_555
C82 C77 1_555 1_555
H56 C82 1_555 1_555
C83 C69 1_555 1_555
C84 C83 1_555 1_555
H57 C84 1_555 1_555
C85 C84 1_555 1_555
H58 C85 1_555 1_555
C86 C85 1_555 1_555
C87 C86 1_555 1_555
H59 C87 1_555 1_555
C88 C83 1_555 1_555
H60 C88 1_555 1_555
C89 C90 1_555 1_555
C90 H61 1_555 1_555
C91 C90 1_555 1_555
H62 C91 1_555 1_555
C92 C74 1_555 1_555
C93 C92 1_555 1_555
H63 C93 1_555 1_555
C94 C89 1_555 1_555
H64 C94 1_555 1_555
C95 C96 1_555 1_555
C96 C97 1_555 1_555
C97 H65 1_555 1_555
C98 C97 1_555 1_555
H66 C98 1_555 1_555
C99 C98 1_555 1_555
C100 C99 1_555 1_555
H67 C100 1_555 1_555
C101 C96 1_555 1_555
H68 C101 1_555 1_555
C102 C103 1_555 1_555
C103 H69 1_555 1_555
C104 C103 1_555 1_555
H70 C104 1_555 1_555
C105 C104 1_555 1_555
C106 C105 1_555 1_555
H71 C106 1_555 1_555
C107 C102 1_555 1_555
H72 C107 1_555 1_555
C108 C105 1_555 1_555
C109 C110 1_555 1_555
C110 C111 1_555 1_555
C111 H73 1_555 1_555
C112 C111 1_555 1_555
H74 C112 1_555 1_555
C113 C112 1_555 1_555
C114 C113 1_555 1_555
H75 C114 1_555 1_555
C115 C110 1_555 1_555
H76 C115 1_555 1_555
C116 C117 1_555 1_555
C117 H77 1_555 1_555
C118 C117 1_555 1_555
H78 C118 1_555 1_555
C119 C118 1_555 1_555
C120 C119 1_555 1_555
H79 C120 1_555 1_555
C121 C116 1_555 1_555
H80 C121 1_555 1_555
C122 C119 1_555 1_555
C123 H81 1_555 1_555
C124 C123 1_555 1_555
H82 C124 1_555 1_555
C125 C124 1_555 1_555
C126 C125 1_555 1_555
H83 C126 1_555 1_555
C127 C126 1_555 1_555
H84 C127 1_555 1_555
C128 H85 1_555 1_555
C129 C128 1_555 1_555
H86 C129 1_555 1_555
C130 C129 1_555 1_555
C131 C130 1_555 1_555
H87 C131 1_555 1_555
C132 C131 1_555 1_555
H88 C132 1_555 1_555
C133 H89 1_555 1_555
C134 C133 1_555 1_555
H90 C134 1_555 1_555
C135 C134 1_555 1_555
C136 C135 1_555 1_555
H91 C136 1_555 1_555
C137 C136 1_555 1_555
H92 C137 1_555 1_555
C138 C125 1_555 1_555
C139 C138 1_555 1_555
H93 C139 1_555 1_555
C140 C139 1_555 1_555
H94 C140 1_555 1_555
C141 C140 1_555 1_555
C142 C141 1_555 1_555
H95 C142 1_555 1_555
C143 C138 1_555 1_555
H96 C143 1_555 1_555
C144 H97 1_555 1_555
C145 C144 1_555 1_555
H98 C145 1_555 1_555
C146 C130 1_555 1_555
C147 C146 1_555 1_555
H99 C147 1_555 1_555
C148 C147 1_555 1_555
H100 C148 1_555 1_555
C149 C144 1_555 1_555
C150 C151 1_555 1_555
C151 H101 1_555 1_555
C152 C151 1_555 1_555
H102 C152 1_555 1_555
C153 C135 1_555 1_555
C154 C153 1_555 1_555
H103 C154 1_555 1_555
C155 C150 1_555 1_555
H104 C155 1_555 1_555
C156 H105 1_555 1_555
C157 C156 1_555 1_555
H106 C157 1_555 1_555
C158 C157 1_555 1_555
C159 C158 1_555 1_555
H107 C159 1_555 1_555
C160 C159 1_555 1_555
H108 C160 1_555 1_555
C161 H109 1_555 1_555
C162 C161 1_555 1_555
H110 C162 1_555 1_555
C163 C162 1_555 1_555
C164 C163 1_555 1_555
H111 C164 1_555 1_555
C165 H112 1_555 1_555
C166 C165 1_555 1_555
H113 C166 1_555 1_555
C167 C166 1_555 1_555
C168 C167 1_555 1_555
H114 C168 1_555 1_555
C169 C168 1_555 1_555
H115 C169 1_555 1_555
C170 C158 1_555 1_555
C171 C170 1_555 1_555
H116 C171 1_555 1_555
C172 C171 1_555 1_555
H117 C172 1_555 1_555
C173 C172 1_555 1_555
C174 C173 1_555 1_555
H118 C174 1_555 1_555
C175 C170 1_555 1_555
H119 C175 1_555 1_555
C176 C163 1_555 1_555
C177 C176 1_555 1_555
H120 C177 1_555 1_555
C178 C177 1_555 1_555
H121 C178 1_555 1_555
C179 C178 1_555 1_555
C180 C179 1_555 1_555
H122 C180 1_555 1_555
C181 C176 1_555 1_555
H123 C181 1_555 1_555
C182 C167 1_555 1_555
C183 C182 1_555 1_555
H124 C183 1_555 1_555
C184 C183 1_555 1_555
H125 C184 1_555 1_555
C185 C184 1_555 1_555
C186 C185 1_555 1_555
H126 C186 1_555 1_555
C187 C182 1_555 1_555
H127 C187 1_555 1_555
C188 H128 1_555 1_555
H129 C188 1_555 1_555
H130 C188 1_555 1_555
C189 H131 1_555 1_555
H132 C189 1_555 1_555
H133 C189 1_555 1_555
C190 H134 1_555 1_555
C191 H135 1_555 1_555
H136 C191 1_555 1_555
H137 C191 1_555 1_555
C192 H138 1_555 1_555
H139 C192 1_555 1_555
H140 C192 1_555 1_555
C193 H141 1_555 1_555
Cd1 N3 1_555 1_555
Cd2 N5 1_555 1_555
Cd3 N13 1_555 1_555
Cd4 N9 1_555 1_555
N1 C1 1_555 1_555
N2 C6 1_555 1_555
N3 C11 1_555 1_555
N4 C19 1_555 1_555
N5 C62 1_555 1_555
N6 C67 1_555 1_555
N7 C72 1_555 1_555
N8 C80 1_555 1_555
N9 C123 1_555 1_555
N10 C128 1_555 1_555
N11 C133 1_555 1_555
N12 C156 1_555 1_555
N13 C161 1_555 1_555
C194 C164 1_555 1_555
H142 C194 1_555 1_555
N14 C165 1_555 1_555
N15 C173 1_555 1_555
N16 C141 1_555 1_555
N17 C188 1_555 1_555
N18 C191 1_555 1_555
O1 C34 1_555 1_555
O2 C34 1_555 1_555
O3 C47 1_555 1_555
O4 C47 1_555 1_555
O5 C61 1_555 1_555
O6 C61 1_555 1_555
O7 C48 1_555 1_555
O8 C48 1_555 1_555
O9 C95 1_555 1_555
O10 C95 1_555 1_555
O11 C108 1_555 1_555
O12 C108 1_555 1_555
O13 C122 1_555 1_555
O14 C122 1_555 1_555
O15 C109 1_555 1_555
O16 C109 1_555 1_555
O17 S1 1_555 1_555
O18 S1 1_555 1_555
O19 S2 1_555 1_555
O20 S2 1_555 1_555
O21 S3 1_555 1_555
O22 S3 1_555 1_555
O23 S4 1_555 1_555
O24 S4 1_555 1_555
O25 C190 1_555 1_555
O26 C193 1_555 1_555
O27 Cd1 1_555 1_555
H143 O27 1_555 1_555
H144 O27 1_555 1_555
O28 Cd2 1_555 1_555
H145 O28 1_555 1_555
H146 O28 1_555 1_555
O29 Cd3 1_555 1_555
H147 O29 1_555 1_555
H148 O29 1_555 1_555
O30 Cd4 1_555 1_555
H149 O30 1_555 1_555
H150 O30 1_555 1_555
O31 H151 1_555 1_555
H152 O31 1_555 1_555
O32 H153 1_555 1_555
H154 O32 1_555 1_555
S1 C38 1_555 1_555
S2 C52 1_555 1_555
S3 C99 1_555 1_555
S4 C113 1_555 1_555
Cd1B O4 1_555 1_555
Cd1B_2 O8 1_555 1_555
Cd2C N6 1_555 1_555
Cd2B O3 1_555 1_555
Cd3B O11 1_555 1_555
Cd3B_2 O15 1_555 1_555
Cd4A O9 1_555 1_555
Cd4C O11 1_555 1_555
N6C Cd2 1_555 1_555
O3B Cd2 1_555 1_555
O4B Cd1 1_555 1_555
O8B Cd1 1_555 1_555
O9A Cd4 1_555 1_555
O11B Cd3 1_555 1_555
O11C Cd4 1_555 1_555
O12C Cd4 1_555 1_555
O15B Cd3 1_555 1_555
C5 N1 1_555 1_555
C10 N2 1_555 1_555
C15 N3 1_555 1_555
C20 C21 1_555 1_555
C23 C24 1_555 1_555
C26 C27 1_555 1_555
C27 N4 1_555 1_555
C29 C30 1_555 1_555
C32 C33 1_555 1_555
C33 N4 1_555 1_555
C39 C40 1_555 1_555
C41 S1 1_555 1_555
C45 C46 1_555 1_555
C53 C54 1_555 1_555
C55 S2 1_555 1_555
C59 C60 1_555 1_555
C66 N5 1_555 1_555
C71 N6 1_555 1_555
C76 N7 1_555 1_555
C81 C82 1_555 1_555
C86 N8 1_555 1_555
C87 C88 1_555 1_555
C89 N8 1_555 1_555
C91 C92 1_555 1_555
C93 C94 1_555 1_555
C100 C101 1_555 1_555
C102 S3 1_555 1_555
C106 C107 1_555 1_555
C114 C115 1_555 1_555
C116 S4 1_555 1_555
C120 C121 1_555 1_555
C127 N9 1_555 1_555
C132 N10 1_555 1_555
C137 N11 1_555 1_555
C142 C143 1_555 1_555
C145 C146 1_555 1_555
C148 C149 1_555 1_555
C149 N16 1_555 1_555
C150 N16 1_555 1_555
C152 C153 1_555 1_555
C154 C155 1_555 1_555
C160 N12 1_555 1_555
C169 N14 1_555 1_555
C174 C175 1_555 1_555
C179 N15 1_555 1_555
C180 C181 1_555 1_555
C185 N15 1_555 1_555
C186 C187 1_555 1_555
C189 N17 1_555 1_555
C190 N17 1_555 1_555
C192 N18 1_555 1_555
C193 N18 1_555 1_555
Cd1 O1 1_555 1_555
Cd1 O5 1_555 1_555
Cd2 O2 1_555 1_555
Cd2 O4B 1_555 1_555
Cd3 O10 1_555 1_555
Cd3 O14 1_555 1_555
Cd4 N12 1_555 1_555
N13 C194 1_555 1_555
O4 Cd2B 1_555 1_555
O12 Cd4C 1_555 1_555
Cd4A O11B 1_555 1_555

#END
