
#######################################################################
#
#                 Cambridge Crystallographic Data Centre
#                                CCDC 
#
#######################################################################
#
# If this CIF has been generated from an entry in the Cambridge 
# Structural Database, then it will include bibliographic, chemical, 
# crystal, experimental, refinement or atomic coordinate data resulting 
# from the CCDC's data processing and validation procedures.
#
#######################################################################

data_FATKIW
_chemical_formula_moiety         '(C14 H20 N4 O18 Sm2)n'
_symmetry_cell_setting           monoclinic
_symmetry_space_group_name_H-M   'P 21/n'
_symmetry_Int_Tables_number      14
_space_group_name_Hall           '-P 2yn'
loop_
_symmetry_equiv_pos_site_id
_symmetry_equiv_pos_as_xyz
1 x,y,z
2 1/2-x,1/2+y,1/2-z
3 -x,-y,-z
4 1/2+x,1/2-y,1/2+z
_cell_length_a                   10.255(3)
_cell_length_b                   11.268(4)
_cell_length_c                   22.194(7)
_cell_angle_alpha                90
_cell_angle_beta                 97.061(4)
_cell_angle_gamma                90
_cell_volume                     2545.14
loop_
_atom_site_label
_atom_site_type_symbol
_atom_site_fract_x
_atom_site_fract_y
_atom_site_fract_z
Sm1 Sm 0.61008(5) -0.18834(4) 0.22551(2)
Sm2 Sm 0.26023(5) 0.08515(5) 0.06417(2)
N1 N 0.1072(8) 0.1829(8) 0.2906(4)
N2 N 0.2777(8) 0.0666(8) 0.3135(4)
H1 H 0.3373 0.0259 0.3350
N3 N 0.8368(8) -0.1615(7) 0.1847(4)
N4 N 1.0318(8) -0.1312(8) 0.1592(4)
H2 H 1.1154 -0.1207 0.1620
O1 O 0.6587(7) -0.3882(6) 0.1842(3)
O2 O 0.7717(7) -0.5573(6) 0.1993(3)
O3 O 0.7692(7) -0.3059(6) 0.2910(3)
O4 O 0.8670(7) -0.4792(6) 0.3104(3)
O5 O 0.4277(7) -0.0621(6) 0.2482(3)
O6 O 0.3137(8) -0.0154(7) 0.1602(3)
O7 O 0.1243(8) 0.1597(8) 0.1311(4)
O8 O -0.0245(6) 0.2419(7) 0.1824(3)
O9 O 0.9386(7) -0.1341(8) -0.0015(3)
O10 O 1.1254(7) -0.0886(7) 0.0544(4)
O11 O 0.6797(7) -0.1279(8) 0.0322(3)
O12 O 0.5977(6) -0.1774(6) 0.1162(3)
O13 O 0.3942(7) -0.0809(7) 0.0334(4)
O14 O 0.4873(8) 0.1418(8) 0.0981(4)
O15 O 0.2724(11) 0.3080(8) 0.0601(5)
C1 C 0.7348(9) -0.4552(8) 0.2144(5)
C2 C 0.7958(10) -0.4088(8) 0.2775(5)
C3 C 0.3400(9) -0.0073(9) 0.2164(5)
C4 C 0.2595(10) 0.0703(8) 0.2523(5)
C5 C 0.1881(11) 0.1364(10) 0.3358(5)
C6 C 0.1802(15) 0.1516(12) 0.4017(6)
H3 H 0.1095 0.2047 0.4073
H4 H 0.2614 0.1841 0.4209
H5 H 0.1648 0.0760 0.4194
C7 C 0.1499(10) 0.1441(9) 0.2382(4)
C8 C 0.0806(10) 0.1850(9) 0.1797(5)
C9 C 1.0071(10) -0.1147(9) 0.0485(5)
C10 C 0.9491(9) -0.1305(10) 0.1064(5)
C11 C 0.9645(10) -0.1505(9) 0.2063(5)
C12 C 1.0240(12) -0.1584(12) 0.2691(5)
H6 H 1.1173 -0.1473 0.2711
H7 H 0.9877 -0.0981 0.2926
H8 H 1.0063 -0.2351 0.2851
C13 C 0.8262(9) -0.1499(9) 0.1230(5)
C14 C 0.6938(9) -0.1521(8) 0.0873(5)
Sm1A Sm -0.11008(5) 0.31166(4) 0.27449(2)
Sm1A_2 Sm 0.88992(5) -0.68834(4) 0.27449(2)
Sm2B Sm 0.73977(5) -0.08515(5) -0.06417(2)
Sm2_2 Sm 1.26023(5) 0.08515(5) 0.06417(2)
N1A N 0.3928(8) -0.3171(8) 0.2094(4)
O2A O 0.7283(7) -0.0573(6) 0.3007(3)
O4A O 0.6330(7) 0.0208(6) 0.1896(3)
O8A O 0.5245(6) -0.2581(7) 0.3176(3)
O9B O 0.0614(7) 0.1341(8) 0.0015(3)
O10_2 O 0.1254(7) -0.0886(7) 0.0544(4)
O11B O 0.3203(7) 0.1279(8) -0.0322(3)
O16 O 0.4467(13) 0.9319(11) 0.3975(6)
H10 H 0.475(10) 0.864(6) 0.388(7)
H11 H 0.512(7) 0.972(8) 0.415(5)
O17 O 0.6338(12) 0.3510(11) 0.0858(5)
H12 H 0.67(2) 0.37(2) 0.121(4)
O18 O 0.8102(14) 0.1773(15) 0.0671(6)
H9 H 0.836(15) 0.246(6) 0.058(7)
loop_
_geom_bond_atom_site_label_1
_geom_bond_atom_site_label_2
_geom_bond_site_symmetry_1
_geom_bond_site_symmetry_2
Sm1 N3 1_555 1_555
Sm2 O6 1_555 1_555
N1 C5 1_555 1_555
N2 H1 1_555 1_555
N3 C11 1_555 1_555
N4 H2 1_555 1_555
O1 Sm1 1_555 1_555
O2 C1 1_555 1_555
O3 Sm1 1_555 1_555
O4 C2 1_555 1_555
O5 Sm1 1_555 1_555
O6 C3 1_555 1_555
O7 Sm2 1_555 1_555
O8 C8 1_555 1_555
O9 C9 1_555 1_555
O10 C9 1_555 1_555
O11 C14 1_555 1_555
O12 Sm1 1_555 1_555
O13 Sm2 1_555 1_555
O14 Sm2 1_555 1_555
O15 Sm2 1_555 1_555
O16 H10 1_555 1_555
O17 H12 1_555 1_555
O18 H9 1_555 1_555
C1 O1 1_555 1_555
C2 O3 1_555 1_555
C3 O5 1_555 1_555
C4 N2 1_555 1_555
C5 N2 1_555 1_555
C6 C5 1_555 1_555
H3 C6 1_555 1_555
H4 C6 1_555 1_555
H5 C6 1_555 1_555
C7 N1 1_555 1_555
C8 O7 1_555 1_555
C9 C10 1_555 1_555
C10 N4 1_555 1_555
C11 N4 1_555 1_555
C12 C11 1_555 1_555
H6 C12 1_555 1_555
H7 C12 1_555 1_555
H8 C12 1_555 1_555
C13 N3 1_555 1_555
C14 O12 1_555 1_555
H11 O16 1_555 1_555
Sm1A N1 1_555 1_555
Sm1A_2 O2 1_555 1_555
Sm2B O9 1_555 1_555
Sm2_2 O10 1_555 1_555
N1A Sm1 1_555 1_555
O2A Sm1 1_555 1_555
O4A Sm1 1_555 1_555
O8A Sm1 1_555 1_555
O9B Sm2 1_555 1_555
O10_2 Sm2 1_555 1_555
O11B Sm2 1_555 1_555
O4 Sm1A_2 1_555 1_555
O8 Sm1A 1_555 1_555
O11 Sm2B 1_555 1_555
C1 C2 1_555 1_555
C3 C4 1_555 1_555
C4 C7 1_555 1_555
C7 C8 1_555 1_555
C10 C13 1_555 1_555
C13 C14 1_555 1_555

#END
