
#######################################################################
#
#                 Cambridge Crystallographic Data Centre
#                                CCDC 
#
#######################################################################
#
# If this CIF has been generated from an entry in the Cambridge 
# Structural Database, then it will include bibliographic, chemical, 
# crystal, experimental, refinement or atomic coordinate data resulting 
# from the CCDC's data processing and validation procedures.
#
#######################################################################

data_FESTUT
_chemical_formula_moiety         '(C5 H18 N2 O12 P4 Zn3)n'
_symmetry_cell_setting           monoclinic
_symmetry_space_group_name_H-M   'P 21/n'
_symmetry_Int_Tables_number      14
_space_group_name_Hall           '-P 2yn'
loop_
_symmetry_equiv_pos_site_id
_symmetry_equiv_pos_as_xyz
1 x,y,z
2 1/2-x,1/2+y,1/2-z
3 -x,-y,-z
4 1/2+x,1/2-y,1/2+z
_cell_length_a                   12.109(3)
_cell_length_b                   9.209(3)
_cell_length_c                   16.081(6)
_cell_angle_alpha                90
_cell_angle_beta                 92.94(2)
_cell_angle_gamma                90
_cell_volume                     1790.86
loop_
_atom_site_label
_atom_site_type_symbol
_atom_site_fract_x
_atom_site_fract_y
_atom_site_fract_z
Zn1 Zn 1.00784(6) -0.24305(9) 0.79829(7)
Zn2 Zn 1.22118(6) -0.24804(9) 0.58678(7)
Zn3 Zn 1.23040(6) -0.32618(10) 0.99901(7)
P1 P 0.96237(15) -0.1648(2) 0.60530(17)
H1 H 0.964(6) -0.040(5) 0.567(5)
P2 P 0.85636(13) -0.3742(2) 0.93653(15)
H2 H 0.942(3) -0.337(7) 0.983(4)
P3 P 1.13742(15) -0.0308(2) 0.93287(16)
H3 H 1.074(5) 0.074(6) 0.959(5)
P4 P 1.20440(14) -0.4737(2) 0.81517(14)
H4 H 1.271(3) -0.450(7) 0.755(2)
O1 O 1.0635(4) -0.2452(7) 0.5843(5)
O2 O 0.9439(5) -0.1607(7) 0.6961(5)
O3 O 1.0890(4) -0.4239(6) 0.7869(4)
O4 O 1.0810(6) -0.0904(8) 0.8555(5)
O5 O 0.8762(4) -0.3125(7) 0.8504(4)
O6 O 0.7551(4) -0.3019(7) 0.9709(4)
O7 O 1.1999(5) -0.6353(7) 0.8299(4)
O8 O 1.2429(4) 0.0455(6) 0.9148(4)
O9 O 1.1531(5) -0.1419(7) 1.0022(4)
O10 O 0.8661(5) -0.2374(7) 0.5564(5)
O11 O 0.8473(4) -0.5379(6) 0.9355(4)
O12 O 1.2557(4) -0.3891(7) 0.8872(4)
Zn2C Zn 0.72118(6) -0.25196(9) 1.08678(7)
Zn2A Zn 1.27882(6) -0.74804(9) 0.91322(7)
Zn2A_2 Zn 1.27882(6) 0.25196(9) 0.91322(7)
Zn3C Zn 0.73040(6) -0.17382(10) 0.49901(7)
Zn3B Zn 0.76960(6) -0.67382(10) 1.00099(7)
O6C O 1.2551(4) -0.1981(7) 0.4709(4)
O7A O 1.3001(5) -0.1353(7) 0.6701(4)
O8A O 1.2571(4) -0.4545(6) 0.5852(4)
O10C O 1.3661(5) -0.2626(7) 1.0564(5)
O11B O 1.1527(4) -0.4621(6) 1.0645(4)
C1 C 0.5045(7) -0.2054(10) 0.8384(7)
H5 H 0.5372 -0.2944 0.8605
H6 H 0.4250 -0.2185 0.8328
C2 C 0.5321(7) -0.0805(11) 0.8977(6)
H7 H 0.4937 0.0063 0.8779
H8 H 0.5067 -0.1036 0.9523
C3 C 0.6964(6) -0.0201(11) 0.8216(7)
H9 H 0.7760 -0.0075 0.8276
H10 H 0.6644 0.0698 0.8002
C4 C 0.6692(6) -0.1424(10) 0.7606(7)
H11 H 0.6937 -0.1159 0.7061
H12 H 0.7088 -0.2294 0.7786
C5 C 0.5250(8) -0.2975(12) 0.6976(8)
H13 H 0.4466 -0.3142 0.6929
H14 H 0.5615 -0.3828 0.7197
H15 H 0.5513 -0.2761 0.6437
N1 N 0.5488(5) -0.1732(8) 0.7543(5)
H16 H 0.5133 -0.0935 0.7328
N2 N 0.6526(6) -0.0526(9) 0.9040(5)
H17 H 0.6876 -0.1310 0.9260
H18 H 0.6665 0.0229 0.9385
loop_
_geom_bond_atom_site_label_1
_geom_bond_atom_site_label_2
_geom_bond_site_symmetry_1
_geom_bond_site_symmetry_2
Zn1 O2 1_555 1_555
Zn2 O1 1_555 1_555
Zn3 O9 1_555 1_555
P1 H1 1_555 1_555
P2 H2 1_555 1_555
P3 H3 1_555 1_555
P4 H4 1_555 1_555
O1 P1 1_555 1_555
O2 P1 1_555 1_555
O3 Zn1 1_555 1_555
O4 Zn1 1_555 1_555
O5 Zn1 1_555 1_555
O6 P2 1_555 1_555
O7 P4 1_555 1_555
O8 P3 1_555 1_555
O9 P3 1_555 1_555
O10 P1 1_555 1_555
O11 P2 1_555 1_555
O12 Zn3 1_555 1_555
C1 H5 1_555 1_555
H6 C1 1_555 1_555
C2 C1 1_555 1_555
H7 C2 1_555 1_555
H8 C2 1_555 1_555
C3 H9 1_555 1_555
H10 C3 1_555 1_555
C4 C3 1_555 1_555
H11 C4 1_555 1_555
H12 C4 1_555 1_555
C5 H13 1_555 1_555
H14 C5 1_555 1_555
H15 C5 1_555 1_555
N1 C1 1_555 1_555
H16 N1 1_555 1_555
N2 C2 1_555 1_555
H17 N2 1_555 1_555
H18 N2 1_555 1_555
Zn2C O6 1_555 1_555
Zn2A O7 1_555 1_555
Zn2A_2 O8 1_555 1_555
Zn3C O10 1_555 1_555
Zn3B O11 1_555 1_555
O6C Zn2 1_555 1_555
O7A Zn2 1_555 1_555
O8A Zn2 1_555 1_555
O10C Zn3 1_555 1_555
O11B Zn3 1_555 1_555
P2 O5 1_555 1_555
P3 O4 1_555 1_555
P4 O3 1_555 1_555
P4 O12 1_555 1_555
C3 N2 1_555 1_555
C4 N1 1_555 1_555
C5 N1 1_555 1_555

#END
