
#######################################################################
#
#                 Cambridge Crystallographic Data Centre
#                                CCDC 
#
#######################################################################
#
# If this CIF has been generated from an entry in the Cambridge 
# Structural Database, then it will include bibliographic, chemical, 
# crystal, experimental, refinement or atomic coordinate data resulting 
# from the CCDC's data processing and validation procedures.
#
#######################################################################

data_NAYPIM
_chemical_formula_moiety         '(C5 H6 Al3 F1 N1 O14 P3)n'
_symmetry_cell_setting           triclinic
_symmetry_space_group_name_H-M   'P -1'
_symmetry_Int_Tables_number      2
_space_group_name_Hall           '-P 1'
loop_
_symmetry_equiv_pos_site_id
_symmetry_equiv_pos_as_xyz
1 x,y,z
2 -x,-y,-z
_cell_length_a                   9.118(1)
_cell_length_b                   9.161(1)
_cell_length_c                   9.335(1)
_cell_angle_alpha                85.98(1)
_cell_angle_beta                 77.45(1)
_cell_angle_gamma                89.01(1)
_cell_volume                     759.247
loop_
_atom_site_label
_atom_site_type_symbol
_atom_site_fract_x
_atom_site_fract_y
_atom_site_fract_z
O1 O -0.0140(33) 0.0241(31) 0.0916(30)
O1A O 0.0140(33) -0.0241(31) -0.0916(30)
P1 P 0.3812(1) 0.1856(1) 0.9004(1)
P2 P 0.8300(1) 0.3545(1) 0.8567(1)
P3 P 0.6276(1) 0.3793(1) 1.3238(1)
F1 F -0.0129(1) 0.3924(1) 1.0822(1)
O2 O 0.7744(2) 0.2022(2) 0.9276(2)
O3 O 0.4575(2) 0.1884(2) 1.0306(2)
O4 O 0.3529(2) 0.0269(2) 0.8735(2)
O5 O 0.4868(2) 0.2494(2) 0.7611(2)
O6 O 0.2339(2) 0.2648(2) 0.9306(2)
O7 O 0.7647(2) 0.4692(2) 0.9622(2)
O8 O 0.7749(2) 0.3784(2) 0.7121(2)
O9 O 1.0011(2) 0.3554(2) 0.8119(2)
O10 O 0.7460(2) 0.4919(2) 1.2583(2)
O11 O 0.6476(2) 0.3246(2) 1.4769(2)
O12 O 0.6373(2) 0.2449(2) 1.2348(2)
O13 O 0.4707(2) 0.4469(2) 1.3387(2)
Al1 Al 0.6296(1) 0.1572(1) 1.0791(1)
Al2 Al 0.1345(1) 0.4377(1) 0.9148(1)
Al3 Al 0.6062(1) 0.3786(1) 0.6560(1)
Al2A Al 0.8655(1) 0.5623(1) 1.0852(1)
Al2_2 Al 1.1345(1) 0.4377(1) 0.9148(1)
O7A O 0.2353(2) 0.5308(2) 1.0378(2)
F1A F 0.0129(1) 0.6076(1) 0.9178(1)
Al1A Al 0.3704(1) -0.1572(1) 0.9209(1)
O4A O 0.6471(2) -0.0269(2) 1.1265(2)
Al3_2 Al 0.6062(1) 0.3786(1) 1.6560(1)
O9_2 O 0.0011(2) 0.3554(2) 0.8119(2)
O10A O 0.2540(2) 0.5081(2) 0.7417(2)
Al3A Al 0.3938(1) 0.6214(1) 1.3440(1)
O13A O 0.5293(2) 0.5531(2) 0.6613(2)
Al2A_2 Al -0.1345(1) 0.5623(1) 1.0852(1)
O11_2 O 0.6476(2) 0.3246(2) 0.4769(2)
N1 N 0.1140(4) 0.2363(4) 0.5518(4)
C1 C 0.0828(6) 0.2707(5) 0.4208(6)
C2 C 0.1299(7) 0.1814(6) 0.3111(5)
C3 C 0.2115(6) 0.0617(5) 0.3332(5)
C4 C 0.2469(6) 0.0338(5) 0.4666(6)
C5 C 0.1927(6) 0.1227(6) 0.5767(5)
H1 H 0.0783(4) 0.2942(4) 0.6257(4)
H2 H 0.0274(6) 0.3583(5) 0.4054(6)
H3 H 0.1043(7) 0.2029(6) 0.2174(5)
H4 H 0.2442(6) -0.0035(5) 0.2564(5)
H5 H 0.3096(6) -0.0483(5) 0.4824(6)
H6 H 0.2145(6) 0.1023(6) 0.6722(5)
loop_
_geom_bond_atom_site_label_1
_geom_bond_atom_site_label_2
_geom_bond_site_symmetry_1
_geom_bond_site_symmetry_2
N1 C1 1_555 1_555
C1 C2 1_555 1_555
C2 C3 1_555 1_555
C3 C4 1_555 1_555
C4 C5 1_555 1_555
C5 N1 1_555 1_555
H1 N1 1_555 1_555
H2 C1 1_555 1_555
H3 C2 1_555 1_555
H4 C3 1_555 1_555
H5 C4 1_555 1_555
H6 C5 1_555 1_555
O1 O1A 1_555 1_555
P1 O3 1_555 1_555
P2 O2 1_555 1_555
P3 O10 1_555 1_555
F1 Al2 1_555 1_555
O2 Al1 1_555 1_555
O3 Al1 1_555 1_555
O4 P1 1_555 1_555
O5 P1 1_555 1_555
O6 P1 1_555 1_555
O7 P2 1_555 1_555
O8 P2 1_555 1_555
O9 P2 1_555 1_555
O10 Al2A 1_555 1_555
O11 P3 1_555 1_555
O12 P3 1_555 1_555
O13 P3 1_555 1_555
Al1 O12 1_555 1_555
Al2 O6 1_555 1_555
Al3 O5 1_555 1_555
Al2A O7 1_555 1_555
Al2_2 O9 1_555 1_555
O7A Al2 1_555 1_555
F1A Al2 1_555 1_555
Al1A O4 1_555 1_555
O4A Al1 1_555 1_555
Al3_2 O11 1_555 1_555
O9_2 Al2 1_555 1_555
O10A Al2 1_555 1_555
Al3A O13 1_555 1_555
O13A Al3 1_555 1_555
Al2A_2 F1 1_555 1_555
O11_2 Al3 1_555 1_555
O8 Al3 1_555 1_555
F1A Al2A_2 1_555 1_555

#END
