
#######################################################################
#
#                 Cambridge Crystallographic Data Centre
#                                CCDC 
#
#######################################################################
#
# If this CIF has been generated from an entry in the Cambridge 
# Structural Database, then it will include bibliographic, chemical, 
# crystal, experimental, refinement or atomic coordinate data resulting 
# from the CCDC's data processing and validation procedures.
#
#######################################################################

data_PUZLOM
_chemical_formula_moiety         '(C78 H48 Co3 N30 S6)n'
_symmetry_cell_setting           cubic
_symmetry_space_group_name_H-M   'F m -3 m'
_symmetry_Int_Tables_number      225
_space_group_name_Hall           '-F 4 2 3'
loop_
_symmetry_equiv_pos_site_id
_symmetry_equiv_pos_as_xyz
1 x,y,z
2 y,x,-z
3 x,-z,y
4 -z,y,x
5 z,y,-x
6 -z,x,-y
7 x,z,-y
8 y,-z,-x
9 y,-x,z
10 x,-y,-z
11 -x,-y,z
12 -y,-x,-z
13 -z,-y,-x
14 z,-x,-y
15 x,1/2+y,1/2+z
16 y,1/2+x,1/2-z
17 x,1/2-z,1/2+y
18 -z,1/2+y,1/2+x
19 z,1/2+y,1/2-x
20 -z,1/2+x,1/2-y
21 x,1/2+z,1/2-y
22 y,1/2-z,1/2-x
23 y,1/2-x,1/2+z
24 x,1/2-y,1/2-z
25 -x,1/2-y,1/2+z
26 -y,1/2-x,1/2-z
27 -z,1/2-y,1/2-x
28 z,1/2-x,1/2-y
29 1/2+x,y,1/2+z
30 1/2+y,x,1/2-z
31 1/2+x,-z,1/2+y
32 1/2-z,y,1/2+x
33 1/2+z,y,1/2-x
34 1/2-z,x,1/2-y
35 1/2+x,z,1/2-y
36 1/2+y,-z,1/2-x
37 1/2+y,-x,1/2+z
38 1/2+x,-y,1/2-z
39 1/2-x,-y,1/2+z
40 1/2-y,-x,1/2-z
41 1/2-z,-y,1/2-x
42 1/2+z,-x,1/2-y
43 1/2+x,1/2+y,z
44 1/2+y,1/2+x,-z
45 1/2+x,1/2-z,y
46 1/2-z,1/2+y,x
47 1/2+z,1/2+y,-x
48 1/2-z,1/2+x,-y
49 1/2+x,1/2+z,-y
50 1/2+y,1/2-z,-x
51 1/2+y,1/2-x,z
52 1/2+x,1/2-y,-z
53 1/2-x,1/2-y,z
54 1/2-y,1/2-x,-z
55 1/2-z,1/2-y,-x
56 1/2+z,1/2-x,-y
57 -x,-z,-y
58 -y,z,-x
59 -z,-x,y
60 -y,-z,x
61 -x,z,y
62 z,-y,x
63 -x,y,-z
64 -y,x,z
65 y,z,x
66 z,x,y
67 -x,1/2-z,1/2-y
68 -y,1/2+z,1/2-x
69 -z,1/2-x,1/2+y
70 -y,1/2-z,1/2+x
71 -x,1/2+z,1/2+y
72 z,1/2-y,1/2+x
73 -x,1/2+y,1/2-z
74 -y,1/2+x,1/2+z
75 y,1/2+z,1/2+x
76 z,1/2+x,1/2+y
77 1/2-x,-z,1/2-y
78 1/2-y,z,1/2-x
79 1/2-z,-x,1/2+y
80 1/2-y,-z,1/2+x
81 1/2-x,z,1/2+y
82 1/2+z,-y,1/2+x
83 1/2-x,y,1/2-z
84 1/2-y,x,1/2+z
85 1/2+y,z,1/2+x
86 1/2+z,x,1/2+y
87 1/2-x,1/2-z,-y
88 1/2-y,1/2+z,-x
89 1/2-z,1/2-x,y
90 1/2-y,1/2-z,x
91 1/2-x,1/2+z,y
92 1/2+z,1/2-y,x
93 1/2-x,1/2+y,-z
94 1/2-y,1/2+x,z
95 1/2+y,1/2+z,x
96 1/2+z,1/2+x,y
97 -x,-y,-z
98 -y,-x,z
99 -x,z,-y
100 z,-y,-x
101 -z,-y,x
102 z,-x,y
103 -x,-z,y
104 -y,z,x
105 -y,x,-z
106 -x,y,z
107 x,y,-z
108 y,x,z
109 z,y,x
110 -z,x,y
111 -x,1/2-y,1/2-z
112 -y,1/2-x,1/2+z
113 -x,1/2+z,1/2-y
114 z,1/2-y,1/2-x
115 -z,1/2-y,1/2+x
116 z,1/2-x,1/2+y
117 -x,1/2-z,1/2+y
118 -y,1/2+z,1/2+x
119 -y,1/2+x,1/2-z
120 -x,1/2+y,1/2+z
121 x,1/2+y,1/2-z
122 y,1/2+x,1/2+z
123 z,1/2+y,1/2+x
124 -z,1/2+x,1/2+y
125 1/2-x,-y,1/2-z
126 1/2-y,-x,1/2+z
127 1/2-x,z,1/2-y
128 1/2+z,-y,1/2-x
129 1/2-z,-y,1/2+x
130 1/2+z,-x,1/2+y
131 1/2-x,-z,1/2+y
132 1/2-y,z,1/2+x
133 1/2-y,x,1/2-z
134 1/2-x,y,1/2+z
135 1/2+x,y,1/2-z
136 1/2+y,x,1/2+z
137 1/2+z,y,1/2+x
138 1/2-z,x,1/2+y
139 1/2-x,1/2-y,-z
140 1/2-y,1/2-x,z
141 1/2-x,1/2+z,-y
142 1/2+z,1/2-y,-x
143 1/2-z,1/2-y,x
144 1/2+z,1/2-x,y
145 1/2-x,1/2-z,y
146 1/2-y,1/2+z,x
147 1/2-y,1/2+x,-z
148 1/2-x,1/2+y,z
149 1/2+x,1/2+y,-z
150 1/2+y,1/2+x,z
151 1/2+z,1/2+y,x
152 1/2-z,1/2+x,y
153 x,z,y
154 y,-z,x
155 z,x,-y
156 y,z,-x
157 x,-z,-y
158 -z,y,-x
159 x,-y,z
160 y,-x,-z
161 -y,-z,-x
162 -z,-x,-y
163 x,1/2+z,1/2+y
164 y,1/2-z,1/2+x
165 z,1/2+x,1/2-y
166 y,1/2+z,1/2-x
167 x,1/2-z,1/2-y
168 -z,1/2+y,1/2-x
169 x,1/2-y,1/2+z
170 y,1/2-x,1/2-z
171 -y,1/2-z,1/2-x
172 -z,1/2-x,1/2-y
173 1/2+x,z,1/2+y
174 1/2+y,-z,1/2+x
175 1/2+z,x,1/2-y
176 1/2+y,z,1/2-x
177 1/2+x,-z,1/2-y
178 1/2-z,y,1/2-x
179 1/2+x,-y,1/2+z
180 1/2+y,-x,1/2-z
181 1/2-y,-z,1/2-x
182 1/2-z,-x,1/2-y
183 1/2+x,1/2+z,y
184 1/2+y,1/2-z,x
185 1/2+z,1/2+x,-y
186 1/2+y,1/2+z,-x
187 1/2+x,1/2-z,-y
188 1/2-z,1/2+y,-x
189 1/2+x,1/2-y,z
190 1/2+y,1/2-x,-z
191 1/2-y,1/2-z,-x
192 1/2-z,1/2-x,-y
_cell_length_a                   37.461(5)
_cell_length_b                   37.461(5)
_cell_length_c                   37.461(5)
_cell_angle_alpha                90
_cell_angle_beta                 90
_cell_angle_gamma                90
_cell_volume                     52570
loop_
_atom_site_label
_atom_site_type_symbol
_atom_site_fract_x
_atom_site_fract_y
_atom_site_fract_z
_atom_site_U_iso_or_equiv
_atom_site_thermal_displace_type
C1 C 0.26713(19) 0.44608(17) 0.30825(16) 0.1543 Uani
C2 C 0.1880(2) 0.5000 0.3120(2) 0.1220 Uani
S1 S 0.15940(7) 0.5000 0.34060(7) 0.3643 Uani
N1 N 0.21058(12) 0.5000 0.28942(12) 0.0860 Uani
Co1 Co 0.2500 0.5000 0.2500 0.0736 Uani
N2 N 0.27817(11) 0.45903(12) 0.27817(11) 0.0950 Uani
H1 H 0.2468 0.4565 0.3192 0.1850 Uiso
C3 C 0.28377(18) 0.41737(17) 0.32541(16) 0.1590 Uani
H2 H 0.2734 0.4081 0.3466 0.1910 Uiso
C4 C 0.31326(12) 0.40273(15) 0.31326(12) 0.0853 Uani
C5 C 0.33078(13) 0.37392(15) 0.33078(13) 0.0930 Uani
N3 N 0.35988(10) 0.35988(10) 0.31569(13) 0.0947 Uani
C1DD C 0.30825(16) 0.44608(17) 0.26713(19) 0.1543 Uani
C1CD C 0.44608(17) 0.26713(19) 0.30825(16) 0.1543 Uani
C1LB C 0.44608(17) 0.30825(16) 0.26713(19) 0.1543 Uani
C1VE C 0.26713(19) 0.30825(16) 0.44608(17) 0.1543 Uani
C1MB C 0.30825(16) 0.26713(19) 0.44608(17) 0.1543 Uani
C1IB C 0.30825(16) 0.55392(17) 0.26713(19) 0.1543 Uani
C1BF C 0.26713(19) 0.55392(17) 0.30825(16) 0.1543 Uani
C1WC C 0.30825(16) 0.73287(19) 0.44608(17) 0.1543 Uani
C1B C 0.26713(19) 0.69175(16) 0.44608(17) 0.1543 Uani
C1WE C 0.44608(17) 0.69175(16) 0.26713(19) 0.1543 Uani
C1H C 0.44608(17) 0.73287(19) 0.30825(16) 0.1543 Uani
C1DC C 0.23287(19) 0.44608(17) 0.19175(16) 0.1543 Uani
C1UF C 0.19175(16) 0.44608(17) 0.23287(19) 0.1543 Uani
C1BE C 0.05392(17) 0.26713(19) 0.19175(16) 0.1543 Uani
C1YB C 0.05392(17) 0.30825(16) 0.23287(19) 0.1543 Uani
C1VD C 0.23287(19) 0.30825(16) 0.05392(17) 0.1543 Uani
C1GA C 0.19175(16) 0.26713(19) 0.05392(17) 0.1543 Uani
C1NA C 0.19175(16) 0.55392(17) 0.23287(19) 0.1543 Uani
C1TD C 0.23287(19) 0.55392(17) 0.19175(16) 0.1543 Uani
C1YF C 0.19175(16) 0.73287(19) 0.05392(17) 0.1543 Uani
C1XB C 0.23287(19) 0.69175(16) 0.05392(17) 0.1543 Uani
C1XF C 0.05392(17) 0.69175(16) 0.23287(19) 0.1543 Uani
C1MA C 0.05392(17) 0.73287(19) 0.19175(16) 0.1543 Uani
C2IB C 0.3120(2) 0.5000 0.1880(2) 0.1220 Uani
C2U C 0.5000 0.1880(2) 0.3120(2) 0.1220 Uani
C2Y C 0.5000 0.3120(2) 0.1880(2) 0.1220 Uani
C2F C 0.1880(2) 0.3120(2) 0.5000 0.1220 Uani
C2MB C 0.3120(2) 0.1880(2) 0.5000 0.1220 Uani
S1IB S 0.34060(7) 0.5000 0.15940(7) 0.3643 Uani
S1U S 0.5000 0.15940(7) 0.34060(7) 0.3643 Uani
S1Y S 0.5000 0.34060(7) 0.15940(7) 0.3643 Uani
S1F S 0.15940(7) 0.34060(7) 0.5000 0.3643 Uani
S1MB S 0.34060(7) 0.15940(7) 0.5000 0.3643 Uani
N1IB N 0.28942(12) 0.5000 0.21058(12) 0.0860 Uani
N1U N 0.5000 0.21058(12) 0.28942(12) 0.0860 Uani
N1Y N 0.5000 0.28942(12) 0.21058(12) 0.0860 Uani
N1F N 0.21058(12) 0.28942(12) 0.5000 0.0860 Uani
N1MB N 0.28942(12) 0.21058(12) 0.5000 0.0860 Uani
Co1U Co 0.5000 0.2500 0.2500 0.0736 Uani
Co1F Co 0.2500 0.2500 0.5000 0.0736 Uani
Co1B Co 0.2500 0.7500 0.5000 0.0736 Uani
Co1H Co 0.5000 0.7500 0.2500 0.0736 Uani
Co1CA Co 0.0000 0.2500 0.2500 0.0736 Uani
Co1P Co 0.2500 0.2500 0.0000 0.0736 Uani
Co1T Co 0.2500 0.7500 0.0000 0.0736 Uani
Co1IA Co -0.0000 0.7500 0.2500 0.0736 Uani
N2LB N 0.45903(12) 0.27817(11) 0.27817(11) 0.0950 Uani
N2MB N 0.27817(11) 0.27817(11) 0.45903(12) 0.0950 Uani
N2IB N 0.27817(11) 0.54097(12) 0.27817(11) 0.0950 Uani
N2B N 0.27817(11) 0.72183(11) 0.45903(12) 0.0950 Uani
N2H N 0.45903(12) 0.72183(11) 0.27817(11) 0.0950 Uani
N2DC N 0.22183(11) 0.45903(12) 0.22183(11) 0.0950 Uani
N2YB N 0.04097(12) 0.27817(11) 0.22183(11) 0.0950 Uani
N2GA N 0.22183(11) 0.27817(11) 0.04097(12) 0.0950 Uani
N2NA N 0.22183(11) 0.54097(12) 0.22183(11) 0.0950 Uani
N2XB N 0.22183(11) 0.72183(11) 0.04097(12) 0.0950 Uani
N2MA N 0.04097(12) 0.72183(11) 0.22183(11) 0.0950 Uani
N2KB N 0.54097(12) 0.27817(11) 0.27817(11) 0.0950 Uani
N2U N 0.45903(12) 0.22183(11) 0.22183(11) 0.0950 Uani
N2Y N 0.54097(12) 0.22183(11) 0.22183(11) 0.0950 Uani
N2F N 0.27817(11) 0.27817(11) 0.54097(12) 0.0950 Uani
N2JC N 0.22183(11) 0.22183(11) 0.45903(12) 0.0950 Uani
N2HC N 0.22183(11) 0.22183(11) 0.54097(12) 0.0950 Uani
H1DD H 0.3192 0.4565 0.2468 0.1850 Uiso
H1LB H 0.4565 0.3192 0.2468 0.1850 Uiso
H1CD H 0.4565 0.2468 0.3192 0.1850 Uiso
H1MB H 0.3192 0.2468 0.4565 0.1850 Uiso
H1VE H 0.2468 0.3192 0.4565 0.1850 Uiso
H1IB H 0.3192 0.5435 0.2468 0.1850 Uiso
H1BF H 0.2468 0.5435 0.3192 0.1850 Uiso
H1B H 0.2468 0.6808 0.4565 0.1850 Uiso
H1WC H 0.3192 0.7532 0.4565 0.1850 Uiso
H1H H 0.4565 0.7532 0.3192 0.1850 Uiso
H1WE H 0.4565 0.6808 0.2468 0.1850 Uiso
H1DC H 0.2532 0.4565 0.1808 0.1850 Uiso
H1UF H 0.1808 0.4565 0.2532 0.1850 Uiso
H1YB H 0.0435 0.3192 0.2532 0.1850 Uiso
H1BE H 0.0435 0.2468 0.1808 0.1850 Uiso
H1GA H 0.1808 0.2468 0.0435 0.1850 Uiso
H1VD H 0.2532 0.3192 0.0435 0.1850 Uiso
H1NA H 0.1808 0.5435 0.2532 0.1850 Uiso
H1TD H 0.2532 0.5435 0.1808 0.1850 Uiso
H1XB H 0.2532 0.6808 0.0435 0.1850 Uiso
H1YF H 0.1808 0.7532 0.0435 0.1850 Uiso
H1MA H 0.0435 0.7532 0.1808 0.1850 Uiso
H1XF H 0.0435 0.6808 0.2532 0.1850 Uiso
C3DD C 0.32541(16) 0.41737(17) 0.28377(18) 0.1590 Uani
C3CD C 0.41737(17) 0.28377(18) 0.32541(16) 0.1590 Uani
C3LB C 0.41737(17) 0.32541(16) 0.28377(18) 0.1590 Uani
C3VE C 0.28377(18) 0.32541(16) 0.41737(17) 0.1590 Uani
C3MB C 0.32541(16) 0.28377(18) 0.41737(17) 0.1590 Uani
C3IB C 0.32541(16) 0.58263(17) 0.28377(18) 0.1590 Uani
C3BF C 0.28377(18) 0.58263(17) 0.32541(16) 0.1590 Uani
C3WC C 0.32541(16) 0.71623(18) 0.41737(17) 0.1590 Uani
C3B C 0.28377(18) 0.67459(16) 0.41737(17) 0.1590 Uani
C3WE C 0.41737(17) 0.67459(16) 0.28377(18) 0.1590 Uani
C3H C 0.41737(17) 0.71623(18) 0.32541(16) 0.1590 Uani
C3DC C 0.21623(18) 0.41737(17) 0.17459(16) 0.1590 Uani
C3UF C 0.17459(16) 0.41737(17) 0.21623(18) 0.1590 Uani
C3BE C 0.08263(17) 0.28377(18) 0.17459(16) 0.1590 Uani
C3YB C 0.08263(17) 0.32541(16) 0.21623(18) 0.1590 Uani
C3VD C 0.21623(18) 0.32541(16) 0.08263(17) 0.1590 Uani
C3GA C 0.17459(16) 0.28377(18) 0.08263(17) 0.1590 Uani
C3NA C 0.17459(16) 0.58263(17) 0.21623(18) 0.1590 Uani
C3TD C 0.21623(18) 0.58263(17) 0.17459(16) 0.1590 Uani
C3YF C 0.17459(16) 0.71623(18) 0.08263(17) 0.1590 Uani
C3XB C 0.21623(18) 0.67459(16) 0.08263(17) 0.1590 Uani
C3XF C 0.08263(17) 0.67459(16) 0.21623(18) 0.1590 Uani
C3MA C 0.08263(17) 0.71623(18) 0.17459(16) 0.1590 Uani
H2DD H 0.3466 0.4081 0.2734 0.1910 Uiso
H2LB H 0.4081 0.3466 0.2734 0.1910 Uiso
H2CD H 0.4081 0.2734 0.3466 0.1910 Uiso
H2MB H 0.3466 0.2734 0.4081 0.1910 Uiso
H2VE H 0.2734 0.3466 0.4081 0.1910 Uiso
H2IB H 0.3466 0.5919 0.2734 0.1910 Uiso
H2BF H 0.2734 0.5919 0.3466 0.1910 Uiso
H2B H 0.2734 0.6534 0.4081 0.1910 Uiso
H2WC H 0.3466 0.7266 0.4081 0.1910 Uiso
H2H H 0.4081 0.7266 0.3466 0.1910 Uiso
H2WE H 0.4081 0.6534 0.2734 0.1910 Uiso
H2DC H 0.2266 0.4081 0.1534 0.1910 Uiso
H2UF H 0.1534 0.4081 0.2266 0.1910 Uiso
H2YB H 0.0919 0.3466 0.2266 0.1910 Uiso
H2BE H 0.0919 0.2734 0.1534 0.1910 Uiso
H2GA H 0.1534 0.2734 0.0919 0.1910 Uiso
H2VD H 0.2266 0.3466 0.0919 0.1910 Uiso
H2NA H 0.1534 0.5919 0.2266 0.1910 Uiso
H2TD H 0.2266 0.5919 0.1534 0.1910 Uiso
H2XB H 0.2266 0.6534 0.0919 0.1910 Uiso
H2YF H 0.1534 0.7266 0.0919 0.1910 Uiso
H2MA H 0.0919 0.7266 0.1534 0.1910 Uiso
H2XF H 0.0919 0.6534 0.2266 0.1910 Uiso
C4LB C 0.40273(15) 0.31326(12) 0.31326(12) 0.0853 Uani
C4MB C 0.31326(12) 0.31326(12) 0.40273(15) 0.0853 Uani
C4IB C 0.31326(12) 0.59727(15) 0.31326(12) 0.0853 Uani
C4B C 0.31326(12) 0.68674(12) 0.40273(15) 0.0853 Uani
C4H C 0.40273(15) 0.68674(12) 0.31326(12) 0.0853 Uani
C4DC C 0.18674(12) 0.40273(15) 0.18674(12) 0.0853 Uani
C4YB C 0.09727(15) 0.31326(12) 0.18674(12) 0.0853 Uani
C4GA C 0.18674(12) 0.31326(12) 0.09727(15) 0.0853 Uani
C4NA C 0.18674(12) 0.59727(15) 0.18674(12) 0.0853 Uani
C4XB C 0.18674(12) 0.68674(12) 0.09727(15) 0.0853 Uani
C4MA C 0.09727(15) 0.68674(12) 0.18674(12) 0.0853 Uani
C5LB C 0.37392(15) 0.33078(13) 0.33078(13) 0.0930 Uani
C5MB C 0.33078(13) 0.33078(13) 0.37392(15) 0.0930 Uani
C5IB C 0.33078(13) 0.62608(15) 0.33078(13) 0.0930 Uani
C5B C 0.33078(13) 0.66922(13) 0.37392(15) 0.0930 Uani
C5H C 0.37392(15) 0.66922(13) 0.33078(13) 0.0930 Uani
C5DC C 0.16922(13) 0.37392(15) 0.16922(13) 0.0930 Uani
C5YB C 0.12608(15) 0.33078(13) 0.16922(13) 0.0930 Uani
C5GA C 0.16922(13) 0.33078(13) 0.12608(15) 0.0930 Uani
C5NA C 0.16922(13) 0.62608(15) 0.16922(13) 0.0930 Uani
C5XB C 0.16922(13) 0.66922(13) 0.12608(15) 0.0930 Uani
C5MA C 0.12608(15) 0.66922(13) 0.16922(13) 0.0930 Uani
N3LB N 0.35988(10) 0.31569(13) 0.35988(10) 0.0947 Uani
N3MB N 0.31569(13) 0.35988(10) 0.35988(10) 0.0947 Uani
N3IB N 0.31569(13) 0.64012(10) 0.35988(10) 0.0947 Uani
N3B N 0.35988(10) 0.68431(13) 0.35988(10) 0.0947 Uani
N3H N 0.35988(10) 0.64012(10) 0.31569(13) 0.0947 Uani
N3DC N 0.14012(10) 0.35988(10) 0.18431(13) 0.0947 Uani
N3YB N 0.14012(10) 0.31569(13) 0.14012(10) 0.0947 Uani
N3GA N 0.18431(13) 0.35988(10) 0.14012(10) 0.0947 Uani
N3NA N 0.18431(13) 0.64012(10) 0.14012(10) 0.0947 Uani
N3XB N 0.14012(10) 0.68431(13) 0.14012(10) 0.0947 Uani
N3MA N 0.14012(10) 0.64012(10) 0.18431(13) 0.0947 Uani
loop_
_atom_site_aniso_label
_atom_site_aniso_U_11
_atom_site_aniso_U_22
_atom_site_aniso_U_33
_atom_site_aniso_U_23
_atom_site_aniso_U_13
_atom_site_aniso_U_12
C1 0.162 0.158 0.143 0.056 0.07 0.073
C2 0.134 0.098 0.134 0 0.058 0
S1 0.38 0.333 0.38 0 0.314 0
N1 0.107 0.044 0.107 0 0.043 0
Co1 0.0876 0.0455 0.0876 0 0.0307 0
N2 0.108 0.069 0.108 0.016 0.059 0.016
C3 0.178 0.162 0.137 0.065 0.073 0.049
C4 0.085 0.086 0.085 0.031 0.05 0.031
C5 0.099 0.081 0.099 0.02 0.044 0.02
N3 0.093 0.093 0.098 0.025 0.025 0.014
C1DD 0.143 0.158 0.162 0.073 0.07 0.056
C1CD 0.158 0.162 0.143 0.07 0.056 0.073
C1LB 0.158 0.143 0.162 0.07 0.073 0.056
C1VE 0.162 0.143 0.158 0.056 0.073 0.07
C1MB 0.143 0.162 0.158 0.073 0.056 0.07
C1IB 0.143 0.158 0.162 -0.073 0.07 -0.056
C1BF 0.162 0.158 0.143 -0.056 0.07 -0.073
C1WC 0.143 0.162 0.158 -0.073 0.056 -0.07
C1B 0.162 0.143 0.158 -0.056 0.073 -0.07
C1WE 0.158 0.143 0.162 -0.07 0.073 -0.056
C1H 0.158 0.162 0.143 -0.07 0.056 -0.073
C1DC 0.162 0.158 0.143 -0.056 0.07 -0.073
C1UF 0.143 0.158 0.162 -0.073 0.07 -0.056
C1BE 0.158(5) 0.162(5) 0.143(5) -0.070(4) 0.056(4) -0.073(4)
C1YB 0.158 0.143 0.162 -0.07 0.073 -0.056
C1VD 0.162 0.143 0.158 -0.056 0.073 -0.07
C1GA 0.143 0.162 0.158 -0.073 0.056 -0.07
C1NA 0.143 0.158 0.162 0.073 0.07 0.056
C1TD 0.162 0.158 0.143 0.056 0.07 0.073
C1YF 0.143 0.162 0.158 0.073 0.056 0.07
C1XB 0.162 0.143 0.158 0.056 0.073 0.07
C1XF 0.158 0.143 0.162 0.07 0.073 0.056
C1MA 0.158 0.162 0.143 0.07 0.056 0.073
C2IB 0.134 0.098 0.134 0 0.058 0
C2U 0.098 0.134 0.134 0.058 0 0
C2Y 0.098 0.134 0.134 0.058 0 0
C2F 0.134 0.134 0.098 0 0 0.058
C2MB 0.134 0.134 0.098 0 0 0.058
S1IB 0.38 0.333 0.38 0 0.314 0
S1U 0.333 0.38 0.38 0.314 0 0
S1Y 0.333 0.38 0.38 0.314 0 0
S1F 0.38 0.38 0.333 0 0 0.314
S1MB 0.38 0.38 0.333 0 0 0.314
N1IB 0.107 0.044 0.107 0 0.043 0
N1U 0.044 0.107 0.107 0.043 0 0
N1Y 0.044 0.107 0.107 0.043 0 0
N1F 0.107 0.107 0.044 0 0 0.043
N1MB 0.107 0.107 0.044 0 0 0.043
Co1U 0.0455 0.0876 0.0876 0.0307 0 0
Co1F 0.0876 0.0876 0.0455 0 0 0.0307
Co1B 0.0876 0.0876 0.0455 0 0 -0.0307
Co1H 0.0455 0.0876 0.0876 -0.0307 0 0
Co1CA 0.0455(9) 0.0876(9) 0.0876(9) -0.0307(8) 0.000 0.000
Co1P 0.0876 0.0876 0.0455 0 0 -0.0307
Co1T 0.0876 0.0876 0.0455 0 0 0.0307
Co1IA 0.0455 0.0876 0.0876 0.0307 0 0
N2LB 0.069 0.108 0.108 0.059 0.016 0.016
N2MB 0.108 0.108 0.069 0.016 0.016 0.059
N2IB 0.108 0.069 0.108 -0.016 0.059 -0.016
N2B 0.108 0.108 0.069 -0.016 0.016 -0.059
N2H 0.069 0.108 0.108 -0.059 0.016 -0.016
N2DC 0.108 0.069 0.108 -0.016 0.059 -0.016
N2YB 0.069(3) 0.108(3) 0.108(3) -0.059(3) 0.016(2) -0.016(2)
N2GA 0.108 0.108 0.069 -0.016 0.016 -0.059
N2NA 0.108 0.069 0.108 0.016 0.059 0.016
N2XB 0.108 0.108 0.069 0.016 0.016 0.059
N2MA 0.069 0.108 0.108 0.059 0.016 0.016
N2KB 0.069 0.108 0.108 0.059 -0.016 -0.016
N2U 0.069 0.108 0.108 0.059 -0.016 -0.016
N2Y 0.069 0.108 0.108 0.059 0.016 0.016
N2F 0.108 0.108 0.069 -0.016 -0.016 0.059
N2JC 0.108 0.108 0.069 -0.016 -0.016 0.059
N2HC 0.108 0.108 0.069 0.016 0.016 0.059
C3DD 0.137 0.162 0.178 0.049 0.073 0.065
C3CD 0.162 0.178 0.137 0.073 0.065 0.049
C3LB 0.162 0.137 0.178 0.073 0.049 0.065
C3VE 0.178 0.137 0.162 0.065 0.049 0.073
C3MB 0.137 0.178 0.162 0.049 0.065 0.073
C3IB 0.137 0.162 0.178 -0.049 0.073 -0.065
C3BF 0.178 0.162 0.137 -0.065 0.073 -0.049
C3WC 0.137 0.178 0.162 -0.049 0.065 -0.073
C3B 0.178 0.137 0.162 -0.065 0.049 -0.073
C3WE 0.162 0.137 0.178 -0.073 0.049 -0.065
C3H 0.162 0.178 0.137 -0.073 0.065 -0.049
C3DC 0.178 0.162 0.137 -0.065 0.073 -0.049
C3UF 0.137 0.162 0.178 -0.049 0.073 -0.065
C3BE 0.162(5) 0.178(5) 0.137(4) -0.073(4) 0.065(4) -0.049(4)
C3YB 0.162 0.137 0.178 -0.073 0.049 -0.065
C3VD 0.178 0.137 0.162 -0.065 0.049 -0.073
C3GA 0.137 0.178 0.162 -0.049 0.065 -0.073
C3NA 0.137 0.162 0.178 0.049 0.073 0.065
C3TD 0.178 0.162 0.137 0.065 0.073 0.049
C3YF 0.137 0.178 0.162 0.049 0.065 0.073
C3XB 0.178 0.137 0.162 0.065 0.049 0.073
C3XF 0.162 0.137 0.178 0.073 0.049 0.065
C3MA 0.162 0.178 0.137 0.073 0.065 0.049
C4LB 0.086 0.085 0.085 0.05 0.031 0.031
C4MB 0.085 0.085 0.086 0.031 0.031 0.05
C4IB 0.085 0.086 0.085 -0.031 0.05 -0.031
C4B 0.085 0.085 0.086 -0.031 0.031 -0.05
C4H 0.086 0.085 0.085 -0.05 0.031 -0.031
C4DC 0.085 0.086 0.085 -0.031 0.05 -0.031
C4YB 0.086(4) 0.085(3) 0.085(3) -0.050(3) 0.031(3) -0.031(3)
C4GA 0.085 0.085 0.086 -0.031 0.031 -0.05
C4NA 0.085 0.086 0.085 0.031 0.05 0.031
C4XB 0.085 0.085 0.086 0.031 0.031 0.05
C4MA 0.086 0.085 0.085 0.05 0.031 0.031
C5LB 0.081 0.099 0.099 0.044 0.02 0.02
C5MB 0.099 0.099 0.081 0.02 0.02 0.044
C5IB 0.099 0.081 0.099 -0.02 0.044 -0.02
C5B 0.099 0.099 0.081 -0.02 0.02 -0.044
C5H 0.081 0.099 0.099 -0.044 0.02 -0.02
C5DC 0.099 0.081 0.099 -0.02 0.044 -0.02
C5YB 0.081(4) 0.099(3) 0.099(3) -0.044(4) 0.020(3) -0.020(3)
C5GA 0.099 0.099 0.081 -0.02 0.02 -0.044
C5NA 0.099 0.081 0.099 0.02 0.044 0.02
C5XB 0.099 0.099 0.081 0.02 0.02 0.044
C5MA 0.081 0.099 0.099 0.044 0.02 0.02
N3LB 0.093 0.098 0.093 0.025 0.014 0.025
N3MB 0.098 0.093 0.093 0.014 0.025 0.025
N3IB 0.098 0.093 0.093 -0.014 0.025 -0.025
N3B 0.093 0.098 0.093 -0.025 0.014 -0.025
N3H 0.093 0.093 0.098 -0.025 0.025 -0.014
N3DC 0.093(2) 0.093(2) 0.098(4) -0.025(2) 0.025(2) -0.014(3)
N3YB 0.093 0.098 0.093 -0.025 0.014 -0.025
N3GA 0.098 0.093 0.093 -0.014 0.025 -0.025
N3NA 0.098 0.093 0.093 0.014 0.025 0.025
N3XB 0.093 0.098 0.093 0.025 0.014 0.025
N3MA 0.093 0.093 0.098 0.025 0.025 0.014
loop_
_geom_bond_atom_site_label_1
_geom_bond_atom_site_label_2
_geom_bond_site_symmetry_1
_geom_bond_site_symmetry_2
C1 N2 1_555 1_555
C2 S1 1_555 1_555
N1 C2 1_555 1_555
Co1 N1 1_555 1_555
N2 Co1 1_555 1_555
H1 C1 1_555 1_555
C3 C1 1_555 1_555
H2 C3 1_555 1_555
C4 C3 1_555 1_555
C5 C4 1_555 1_555
N3 C5 1_555 1_555
C1DD N2 1_555 1_555
C1CD N2LB 1_555 1_555
C1LB N2LB 1_555 1_555
C1VE N2MB 1_555 1_555
C1MB N2MB 1_555 1_555
C1IB N2IB 1_555 1_555
C1BF N2IB 1_555 1_555
C1WC N2B 1_555 1_555
C1B N2B 1_555 1_555
C1WE N2H 1_555 1_555
C1H N2H 1_555 1_555
C1DC N2DC 1_555 1_555
C1UF N2DC 1_555 1_555
C1BE N2YB 1_555 1_555
C1YB N2YB 1_555 1_555
C1VD N2GA 1_555 1_555
C1GA N2GA 1_555 1_555
C1NA N2NA 1_555 1_555
C1TD N2NA 1_555 1_555
C1YF N2XB 1_555 1_555
C1XB N2XB 1_555 1_555
C1XF N2MA 1_555 1_555
C1MA N2MA 1_555 1_555
C2IB S1IB 1_555 1_555
C2U S1U 1_555 1_555
C2Y S1Y 1_555 1_555
C2F S1F 1_555 1_555
C2MB S1MB 1_555 1_555
N1IB Co1 1_555 1_555
N1U C2U 1_555 1_555
N1Y C2Y 1_555 1_555
N1F C2F 1_555 1_555
N1MB C2MB 1_555 1_555
Co1U N1U 1_555 1_555
Co1F N1F 1_555 1_555
Co1B N2B 1_555 1_555
Co1H N2H 1_555 1_555
Co1CA N2YB 1_555 1_555
Co1P N2GA 1_555 1_555
Co1T N2XB 1_555 1_555
Co1IA N2MA 1_555 1_555
N2LB Co1U 1_555 1_555
N2MB Co1F 1_555 1_555
N2IB Co1 1_555 1_555
N2DC Co1 1_555 1_555
N2NA Co1 1_555 1_555
N2KB Co1U 1_555 1_555
N2U Co1U 1_555 1_555
N2Y Co1U 1_555 1_555
N2F Co1F 1_555 1_555
N2JC Co1F 1_555 1_555
N2HC Co1F 1_555 1_555
H1DD C1DD 1_555 1_555
H1LB C1LB 1_555 1_555
H1CD C1CD 1_555 1_555
H1MB C1MB 1_555 1_555
H1VE C1VE 1_555 1_555
H1IB C1IB 1_555 1_555
H1BF C1BF 1_555 1_555
H1B C1B 1_555 1_555
H1WC C1WC 1_555 1_555
H1H C1H 1_555 1_555
H1WE C1WE 1_555 1_555
H1DC C1DC 1_555 1_555
H1UF C1UF 1_555 1_555
H1YB C1YB 1_555 1_555
H1BE C1BE 1_555 1_555
H1GA C1GA 1_555 1_555
H1VD C1VD 1_555 1_555
H1NA C1NA 1_555 1_555
H1TD C1TD 1_555 1_555
H1XB C1XB 1_555 1_555
H1YF C1YF 1_555 1_555
H1MA C1MA 1_555 1_555
H1XF C1XF 1_555 1_555
C3DD C4 1_555 1_555
C3CD C1CD 1_555 1_555
C3LB C1LB 1_555 1_555
C3VE C1VE 1_555 1_555
C3MB C1MB 1_555 1_555
C3IB C1IB 1_555 1_555
C3BF C1BF 1_555 1_555
C3WC C1WC 1_555 1_555
C3B C1B 1_555 1_555
C3WE C1WE 1_555 1_555
C3H C1H 1_555 1_555
C3DC C1DC 1_555 1_555
C3UF C1UF 1_555 1_555
C3BE C1BE 1_555 1_555
C3YB C1YB 1_555 1_555
C3VD C1VD 1_555 1_555
C3GA C1GA 1_555 1_555
C3NA C1NA 1_555 1_555
C3TD C1TD 1_555 1_555
C3YF C1YF 1_555 1_555
C3XB C1XB 1_555 1_555
C3XF C1XF 1_555 1_555
C3MA C1MA 1_555 1_555
H2DD C3DD 1_555 1_555
H2LB C3LB 1_555 1_555
H2CD C3CD 1_555 1_555
H2MB C3MB 1_555 1_555
H2VE C3VE 1_555 1_555
H2IB C3IB 1_555 1_555
H2BF C3BF 1_555 1_555
H2B C3B 1_555 1_555
H2WC C3WC 1_555 1_555
H2H C3H 1_555 1_555
H2WE C3WE 1_555 1_555
H2DC C3DC 1_555 1_555
H2UF C3UF 1_555 1_555
H2YB C3YB 1_555 1_555
H2BE C3BE 1_555 1_555
H2GA C3GA 1_555 1_555
H2VD C3VD 1_555 1_555
H2NA C3NA 1_555 1_555
H2TD C3TD 1_555 1_555
H2XB C3XB 1_555 1_555
H2YF C3YF 1_555 1_555
H2MA C3MA 1_555 1_555
H2XF C3XF 1_555 1_555
C4LB C3CD 1_555 1_555
C4MB C3VE 1_555 1_555
C4IB C3IB 1_555 1_555
C4B C3WC 1_555 1_555
C4H C3WE 1_555 1_555
C4DC C3DC 1_555 1_555
C4YB C3BE 1_555 1_555
C4GA C3VD 1_555 1_555
C4NA C3NA 1_555 1_555
C4XB C3YF 1_555 1_555
C4MA C3XF 1_555 1_555
C5LB N3 1_555 1_555
C5MB C4MB 1_555 1_555
C5IB C4IB 1_555 1_555
C5B C4B 1_555 1_555
C5H C4H 1_555 1_555
C5DC C4DC 1_555 1_555
C5YB C4YB 1_555 1_555
C5GA C4GA 1_555 1_555
C5NA C4NA 1_555 1_555
C5XB C4XB 1_555 1_555
C5MA C4MA 1_555 1_555
N3LB C5LB 1_555 1_555
N3MB C5 1_555 1_555
N3IB C5IB 1_555 1_555
N3B C5B 1_555 1_555
N3H C5IB 1_555 1_555
N3DC C5DC 1_555 1_555
N3YB C5YB 1_555 1_555
N3GA C5DC 1_555 1_555
N3NA C5NA 1_555 1_555
N3XB C5XB 1_555 1_555
N3MA C5NA 1_555 1_555
C1DD C3DD 1_555 1_555
C2IB N1IB 1_555 1_555
N1Y Co1U 1_555 1_555
N1MB Co1F 1_555 1_555
C3LB C4LB 1_555 1_555
C3MB C4MB 1_555 1_555
C3BF C4IB 1_555 1_555
C3B C4B 1_555 1_555
C3H C4H 1_555 1_555
C3UF C4DC 1_555 1_555
C3YB C4YB 1_555 1_555
C3GA C4GA 1_555 1_555
C3TD C4NA 1_555 1_555
C3XB C4XB 1_555 1_555
C3MA C4MA 1_555 1_555
C4LB C5LB 1_555 1_555
C5MB N3LB 1_555 1_555
C5MB N3MB 1_555 1_555
C5B N3IB 1_555 1_555
C5H N3B 1_555 1_555
C5H N3H 1_555 1_555
C5YB N3DC 1_555 1_555
C5GA N3YB 1_555 1_555
C5GA N3GA 1_555 1_555
C5XB N3NA 1_555 1_555
C5MA N3XB 1_555 1_555
C5MA N3MA 1_555 1_555

#END
