
#######################################################################
#
#                 Cambridge Crystallographic Data Centre
#                                CCDC 
#
#######################################################################
#
# If this CIF has been generated from an entry in the Cambridge 
# Structural Database, then it will include bibliographic, chemical, 
# crystal, experimental, refinement or atomic coordinate data resulting 
# from the CCDC's data processing and validation procedures.
#
#######################################################################

data_PUZLUS
_chemical_formula_moiety         '(C84 H52 Co3 N30 S10)n'
_symmetry_cell_setting           tetragonal
_symmetry_space_group_name_H-M   'P 42/m n m'
_symmetry_Int_Tables_number      136
_space_group_name_Hall           '-P 4n 2n'
loop_
_symmetry_equiv_pos_site_id
_symmetry_equiv_pos_as_xyz
1 x,y,z
2 -x,-y,z
3 1/2+x,1/2-y,1/2-z
4 1/2-x,1/2+y,1/2-z
5 -y,-x,-z
6 y,x,-z
7 1/2+y,1/2-x,1/2+z
8 1/2-y,1/2+x,1/2+z
9 -x,-y,-z
10 x,y,-z
11 1/2-x,1/2+y,1/2+z
12 1/2+x,1/2-y,1/2+z
13 y,x,z
14 -y,-x,z
15 1/2-y,1/2+x,1/2-z
16 1/2+y,1/2-x,1/2-z
_cell_length_a                   26.405(4)
_cell_length_b                   26.405(4)
_cell_length_c                   36.631(5)
_cell_angle_alpha                90
_cell_angle_beta                 90
_cell_angle_gamma                90
_cell_volume                     25540
loop_
_atom_site_label
_atom_site_type_symbol
_atom_site_fract_x
_atom_site_fract_y
_atom_site_fract_z
_atom_site_U_iso_or_equiv
_atom_site_thermal_displace_type
Co1 Co 0.29835(2) 0.29835(2) -0.23703(2) 0.0506 Uani
Co2 Co 0.0000 0.5000 0.0000 0.0487 Uani
N1 N 0.01973(18) 0.42443(17) 0.0000 0.0547 Uani
S1 S 0.20771(13) 0.20771(13) -0.14329(14) 0.2657 Uani
N2 N 0.15663(14) 0.58191(12) 0.14873(10) 0.0697 Uani
N3 N 0.33360(12) 0.33360(12) -0.27938(13) 0.0495 Uani
N4 N 0.26230(15) 0.26230(15) -0.19480(14) 0.0670 Uani
N5 N 0.28417(12) 0.36993(12) 0.21098(9) 0.0607 Uani
N6 N 0.18672(14) 0.49924(12) 0.13967(10) 0.0652 Uani
S2 S 0.0276(2) 0.31993(9) 0.0000 0.2133 Uani
N7 N 0.05497(13) 0.51401(11) 0.04289(9) 0.0560 Uani
N8 N 0.21626(13) 0.54779(12) 0.19008(10) 0.0638 Uani
C1 C 0.24340(17) 0.45985(15) 0.18301(12) 0.0647 Uani
C2 C 0.21350(18) 0.50506(14) 0.16983(12) 0.0683 Uani
C3 C 0.12312(16) 0.53096(15) 0.09986(12) 0.0670 Uani
C4 C 0.18810(17) 0.58454(14) 0.17757(12) 0.0650 Uani
C5 C 0.15775(16) 0.53720(15) 0.13114(12) 0.0653 Uani
C6 C 0.28522(17) 0.41460(14) 0.22917(13) 0.0690 Uani
H1 H 0.2994 0.4148 0.2530 0.0830 Uiso
C7 C 0.26733(16) 0.45933(16) 0.21555(13) 0.0743 Uani
H2 H 0.2717 0.4899 0.2289 0.0890 Uiso
C8 C 0.0226(3) 0.3799(2) 0.0000 0.0870 Uani
C9 C 0.24515(18) 0.41716(17) 0.16218(13) 0.0773 Uani
H3 H 0.2339 0.4181 0.1375 0.0920 Uiso
C10 C 0.2630(2) 0.37302(17) 0.17674(12) 0.0833 Uani
H4 H 0.2608 0.3430 0.1625 0.1000 Uiso
C11 C 0.0534(2) 0.55405(19) 0.06427(14) 0.0940 Uani
H5 H 0.0272 0.5779 0.0596 0.1130 Uiso
C12 C 0.08585(18) 0.56481(17) 0.09274(14) 0.0817 Uani
H6 H 0.0822 0.5948 0.1068 0.0980 Uiso
C13 C 0.09401(19) 0.48299(18) 0.04829(14) 0.0883 Uani
H7 H 0.0989 0.4554 0.0320 0.1060 Uiso
C14 C 0.2397(2) 0.2397(2) -0.1731(2) 0.0917 Uani
C15 C 0.1282(2) 0.48954(18) 0.07720(17) 0.1047 Uani
H8 H 0.1546 0.4657 0.0811 0.1260 Uiso
C16 C 0.3514(3) 0.3514(3) -0.3038(2) 0.1227 Uani
S3 S 0.3777(2) 0.3777(2) -0.33768(18) 0.3917 Uani
C17 C 0.19039(15) 0.63333(15) 0.19760(12) 0.0603 Uani
C18 C 0.1655(2) 0.67533(17) 0.18465(15) 0.1027 Uani
H9 H 0.1469 0.6738 0.1625 0.1230 Uiso
C19 C 0.2122(3) 0.63620(16) 0.23000(16) 0.1150 Uani
H10 H 0.2254 0.6067 0.2414 0.1380 Uiso
N9 N 0.19460(12) 0.72549(12) 0.23512(10) 0.0613 Uani
C20 C 0.2158(2) 0.68635(19) 0.24818(15) 0.1010 Uani
H11 H 0.2345 0.6892 0.2702 0.1210 Uiso
C21 C 0.1681(2) 0.71905(17) 0.20410(15) 0.1030 Uani
H12 H 0.1497 0.7473 0.1951 0.1240 Uiso
Co1E Co 0.29835(2) 0.29835(2) 0.23703(2) 0.0506 Uani
Co1F Co -0.20165(2) 0.20165(2) 0.26297(2) 0.0506 Uani
Co1G Co 0.20165(2) 0.79835(2) 0.26297(2) 0.0506 Uani
Co1A Co -0.29835(2) 0.70165(2) -0.23703(2) 0.0506 Uani
Co1B Co -0.20165(2) 0.20165(2) -0.26297(2) 0.0506 Uani
Co1C Co 0.20165(2) 0.79835(2) -0.26297(2) 0.0506 Uani
Co1D Co -0.29835(2) 0.70165(2) 0.23703(2) 0.0506 Uani
N1A N -0.01973(18) 0.57557(17) 0.0000 0.0547 Uani
S1C S 0.29229(13) 0.70771(13) -0.35671(14) 0.2657 Uani
N2A N -0.15663(14) 0.41809(12) 0.14873(10) 0.0697 Uani
N2H N -0.15663(14) 0.41809(12) -0.14873(10) 0.0697 Uani
N2I N 0.15663(14) 0.58191(12) -0.14873(10) 0.0697 Uani
N3C N 0.16640(12) 0.83360(12) -0.22062(13) 0.0495 Uani
N4C N 0.23770(15) 0.76230(15) -0.30520(14) 0.0670 Uani
N5A N -0.28417(12) 0.63007(12) 0.21098(9) 0.0607 Uani
N5H N -0.28417(12) 0.63007(12) -0.21098(9) 0.0607 Uani
N5I N 0.28417(12) 0.36993(12) -0.21098(9) 0.0607 Uani
N5E N 0.36993(12) 0.28417(12) -0.21098(9) 0.0607 Uani
N5G N 0.13007(12) 0.78417(12) -0.28902(9) 0.0607 Uani
N5J N 0.21583(12) 0.86993(12) -0.28902(9) 0.0607 Uani
N6A N -0.18672(14) 0.50076(12) 0.13967(10) 0.0652 Uani
N6H N -0.18672(14) 0.50076(12) -0.13967(10) 0.0652 Uani
N6I N 0.18672(14) 0.49924(12) -0.13967(10) 0.0652 Uani
S2A S -0.0276(2) 0.68007(9) 0.0000 0.2133 Uani
N7A N -0.05497(13) 0.48599(11) 0.04289(9) 0.0560 Uani
N7H N -0.05497(13) 0.48599(11) -0.04289(9) 0.0560 Uani
N7I N 0.05497(13) 0.51401(11) -0.04289(9) 0.0560 Uani
N8A N -0.21626(13) 0.45221(12) 0.19008(10) 0.0638 Uani
N8H N -0.21626(13) 0.45221(12) -0.19008(10) 0.0638 Uani
N8I N 0.21626(13) 0.54779(12) -0.19008(10) 0.0638 Uani
C1A C -0.24340(17) 0.54015(15) 0.18301(12) 0.0647 Uani
C1H C -0.24340(17) 0.54015(15) -0.18301(12) 0.0647 Uani
C1I C 0.24340(17) 0.45985(15) -0.18301(12) 0.0647 Uani
C2A C -0.21350(18) 0.49494(14) 0.16983(12) 0.0683 Uani
C2H C -0.21350(18) 0.49494(14) -0.16983(12) 0.0683 Uani
C2I C 0.21350(18) 0.50506(14) -0.16983(12) 0.0683 Uani
C3A C -0.12312(16) 0.46904(15) 0.09986(12) 0.0670 Uani
C3H C -0.12312(16) 0.46904(15) -0.09986(12) 0.0670 Uani
C3I C 0.12312(16) 0.53096(15) -0.09986(12) 0.0670 Uani
C4A C -0.18810(17) 0.41546(14) 0.17757(12) 0.0650 Uani
C4H C -0.18810(17) 0.41546(14) -0.17757(12) 0.0650 Uani
C4I C 0.18810(17) 0.58454(14) -0.17757(12) 0.0650 Uani
C5A C -0.15775(16) 0.46280(15) 0.13114(12) 0.0653 Uani
C5H C -0.15775(16) 0.46280(15) -0.13114(12) 0.0653 Uani
C5I C 0.15775(16) 0.53720(15) -0.13114(12) 0.0653 Uani
C6A C -0.28522(17) 0.58540(14) 0.22917(13) 0.0690 Uani
C6H C -0.28522(17) 0.58540(14) -0.22917(13) 0.0690 Uani
C6I C 0.28522(17) 0.41460(14) -0.22917(13) 0.0690 Uani
H1A H -0.2994 0.5852 0.2530 0.0830 Uiso
H1H H -0.2994 0.5852 -0.2530 0.0830 Uiso
H1I H 0.2994 0.4148 -0.2530 0.0830 Uiso
C7A C -0.26733(16) 0.54067(16) 0.21555(13) 0.0743 Uani
C7H C -0.26733(16) 0.54067(16) -0.21555(13) 0.0743 Uani
C7I C 0.26733(16) 0.45933(16) -0.21555(13) 0.0743 Uani
H2A H -0.2717 0.5101 0.2289 0.0890 Uiso
H2H H -0.2717 0.5101 -0.2289 0.0890 Uiso
H2I H 0.2717 0.4899 -0.2289 0.0890 Uiso
C8A C -0.0226(3) 0.6201(2) 0.0000 0.0870 Uani
C9A C -0.24515(18) 0.58284(17) 0.16218(13) 0.0773 Uani
C9H C -0.24515(18) 0.58284(17) -0.16218(13) 0.0773 Uani
C9I C 0.24515(18) 0.41716(17) -0.16218(13) 0.0773 Uani
H3A H -0.2339 0.5819 0.1375 0.0920 Uiso
H3H H -0.2339 0.5819 -0.1375 0.0920 Uiso
H3I H 0.2339 0.4181 -0.1375 0.0920 Uiso
C10A C -0.2630(2) 0.62698(17) 0.17674(12) 0.0833 Uani
C10H C -0.2630(2) 0.62698(17) -0.17674(12) 0.0833 Uani
C10I C 0.2630(2) 0.37302(17) -0.17674(12) 0.0833 Uani
H4A H -0.2608 0.6570 0.1625 0.1000 Uiso
H4H H -0.2608 0.6570 -0.1625 0.1000 Uiso
H4I H 0.2608 0.3430 -0.1625 0.1000 Uiso
C11A C -0.0534(2) 0.44595(19) 0.06427(14) 0.0940 Uani
C11H C -0.0534(2) 0.44595(19) -0.06427(14) 0.0940 Uani
C11I C 0.0534(2) 0.55405(19) -0.06427(14) 0.0940 Uani
H5A H -0.0272 0.4221 0.0596 0.1130 Uiso
H5H H -0.0272 0.4221 -0.0596 0.1130 Uiso
H5I H 0.0272 0.5779 -0.0596 0.1130 Uiso
C12A C -0.08585(18) 0.43519(17) 0.09274(14) 0.0817 Uani
C12H C -0.08585(18) 0.43519(17) -0.09274(14) 0.0817 Uani
C12I C 0.08585(18) 0.56481(17) -0.09274(14) 0.0817 Uani
H6A H -0.0822 0.4052 0.1068 0.0980 Uiso
H6H H -0.0822 0.4052 -0.1068 0.0980 Uiso
H6I H 0.0822 0.5948 -0.1068 0.0980 Uiso
C13A C -0.09401(19) 0.51701(18) 0.04829(14) 0.0883 Uani
C13H C -0.09401(19) 0.51701(18) -0.04829(14) 0.0883 Uani
C13I C 0.09401(19) 0.48299(18) -0.04829(14) 0.0883 Uani
H7A H -0.0989 0.5446 0.0320 0.1060 Uiso
H7H H -0.0989 0.5446 -0.0320 0.1060 Uiso
H7I H 0.0989 0.4554 -0.0320 0.1060 Uiso
C14C C 0.2603(2) 0.7397(2) -0.3269(2) 0.0917 Uani
C15A C -0.1282(2) 0.51046(18) 0.07720(17) 0.1047 Uani
C15H C -0.1282(2) 0.51046(18) -0.07720(17) 0.1047 Uani
C15I C 0.1282(2) 0.48954(18) -0.07720(17) 0.1047 Uani
H8A H -0.1546 0.5343 0.0811 0.1260 Uiso
H8H H -0.1546 0.5343 -0.0811 0.1260 Uiso
H8I H 0.1546 0.4657 -0.0811 0.1260 Uiso
C16C C 0.1486(3) 0.8514(3) -0.1962(2) 0.1227 Uani
S3C S 0.1223(2) 0.8777(2) -0.16232(18) 0.3917 Uani
C17A C -0.19039(15) 0.36667(15) 0.19760(12) 0.0603 Uani
C17H C -0.19039(15) 0.36667(15) -0.19760(12) 0.0603 Uani
C17I C 0.19039(15) 0.63333(15) -0.19760(12) 0.0603 Uani
C18A C -0.1655(2) 0.32467(17) 0.18465(15) 0.1027 Uani
C18H C -0.1655(2) 0.32467(17) -0.18465(15) 0.1027 Uani
C18I C 0.1655(2) 0.67533(17) -0.18465(15) 0.1027 Uani
H9A H -0.1469 0.3262 0.1625 0.1230 Uiso
H9H H -0.1469 0.3262 -0.1625 0.1230 Uiso
H9I H 0.1469 0.6738 -0.1625 0.1230 Uiso
C19A C -0.2122(3) 0.36380(16) 0.23000(16) 0.1150 Uani
C19H C -0.2122(3) 0.36380(16) -0.23000(16) 0.1150 Uani
C19I C 0.2122(3) 0.63620(16) -0.23000(16) 0.1150 Uani
H10A H -0.2254 0.3933 0.2414 0.1380 Uiso
H10H H -0.2254 0.3933 -0.2414 0.1380 Uiso
H10I H 0.2254 0.6067 -0.2414 0.1380 Uiso
N9A N -0.19460(12) 0.27451(12) 0.23512(10) 0.0613 Uani
N9H N -0.19460(12) 0.27451(12) -0.23512(10) 0.0613 Uani
N9I N 0.19460(12) 0.72549(12) -0.23512(10) 0.0613 Uani
N9F N 0.22549(12) 0.30540(12) -0.26488(10) 0.0613 Uani
N9J N 0.30540(12) 0.22549(12) -0.26488(10) 0.0613 Uani
N9D N 0.27451(12) 0.80540(12) -0.23512(10) 0.0613 Uani
C20A C -0.2158(2) 0.31365(19) 0.24818(15) 0.1010 Uani
C20H C -0.2158(2) 0.31365(19) -0.24818(15) 0.1010 Uani
C20I C 0.2158(2) 0.68635(19) -0.24818(15) 0.1010 Uani
H11A H -0.2345 0.3108 0.2702 0.1210 Uiso
H11H H -0.2345 0.3108 -0.2702 0.1210 Uiso
H11I H 0.2345 0.6892 -0.2702 0.1210 Uiso
C21A C -0.1681(2) 0.28095(17) 0.20410(15) 0.1030 Uani
C21H C -0.1681(2) 0.28095(17) -0.20410(15) 0.1030 Uani
C21I C 0.1681(2) 0.71905(17) -0.20410(15) 0.1030 Uani
H12A H -0.1497 0.2527 0.1951 0.1240 Uiso
H12H H -0.1497 0.2527 -0.1951 0.1240 Uiso
H12I H 0.1497 0.7473 -0.1951 0.1240 Uiso
S4 S 0.13297(10) 0.32975(11) 0.15898(9) 0.1850 Uani
S5 S 0.05770(15) 0.38063(17) 0.11441(12) 0.2717 Uani
C22 C 0.1193(4) 0.3026(4) 0.1166(3) 0.2573 Uani
H13 H 0.1359 0.2727 0.1085 0.3090 Uiso
C23 C 0.0952(4) 0.3825(4) 0.1536(3) 0.2363 Uani
C24 C 0.0851(4) 0.3253(4) 0.0964(3) 0.2620 Uani
H14 H 0.0756 0.3125 0.0732 0.3140 Uiso
S6 S 0.12736(15) 0.41413(15) 0.22035(12) 0.2683 Uani
S7 S 0.0548(2) 0.4722(2) 0.17584(17) 0.3280 Uani
C25 C 0.0933(4) 0.4178(4) 0.1805(3) 0.2327 Uani
C26 C 0.0807(4) 0.5006(3) 0.2142(3) 0.1933 Uani
H15 H 0.0725 0.5348 0.2195 0.2320 Uiso
C27 C 0.1114(4) 0.4759(4) 0.2362(3) 0.2293 Uani
H16 H 0.1239 0.4898 0.2584 0.2750 Uiso
loop_
_atom_site_aniso_label
_atom_site_aniso_U_11
_atom_site_aniso_U_22
_atom_site_aniso_U_33
_atom_site_aniso_U_23
_atom_site_aniso_U_13
_atom_site_aniso_U_12
Co1 0.0441 0.0441 0.0636 0.0116 0.0116 0.0163
Co2 0.0627(7) 0.0398(6) 0.0435(6) 0.000 0.000 0.0126(5)
N1 0.075(3) 0.047(3) 0.042(3) 0.000 0.000 0.001(2)
S1 0.24 0.24 0.317 0.182 0.182 0.053
N2 0.076(2) 0.046(2) 0.087(3) -0.0087(18) -0.030(2) 0.0154(17)
N3 0.0473 0.0473 0.054 0.0038 0.0038 0.013
N4 0.067 0.067 0.067 0.018 0.018 0.023
N5 0.059(2) 0.050(2) 0.073(2) -0.0115(17) -0.0146(17) 0.0211(15)
N6 0.074(2) 0.0446(19) 0.077(2) 0.0012(18) -0.0225(19) 0.0132(16)
S2 0.343(6) 0.0458(13) 0.251(4) 0.000 0.000 0.042(2)
N7 0.076(2) 0.0408(18) 0.0512(19) 0.0020(15) -0.0125(16) 0.0083(16)
N8 0.072(2) 0.0413(19) 0.078(2) -0.0088(17) -0.0131(18) 0.0152(16)
C1 0.081(3) 0.052(2) 0.061(3) 0.000(2) -0.014(2) 0.014(2)
C2 0.085(3) 0.038(2) 0.082(3) 0.006(2) -0.022(3) 0.012(2)
C3 0.067(3) 0.052(3) 0.082(3) -0.005(2) -0.020(2) 0.004(2)
C4 0.084(3) 0.039(2) 0.072(3) -0.001(2) -0.025(2) 0.008(2)
C5 0.066(3) 0.048(2) 0.082(3) -0.004(2) -0.026(2) -0.002(2)
C6 0.087(3) 0.033(2) 0.087(3) -0.010(2) -0.044(3) 0.015(2)
C7 0.070(3) 0.057(3) 0.096(4) -0.018(2) -0.035(3) 0.009(2)
C8 0.130(6) 0.043(4) 0.088(5) 0.000 0.000 0.003(4)
C9 0.094(3) 0.067(3) 0.071(3) -0.010(2) -0.027(3) 0.031(3)
C10 0.129(4) 0.059(3) 0.062(3) -0.019(2) -0.029(3) 0.043(3)
C11 0.121(4) 0.072(3) 0.089(4) -0.028(3) -0.040(3) 0.046(3)
C12 0.087(3) 0.062(3) 0.096(4) -0.025(3) -0.036(3) 0.019(3)
C13 0.099(4) 0.073(3) 0.093(4) -0.020(3) -0.041(3) 0.048(3)
C14 0.082 0.082 0.111 0.041 0.041 0.007
C15 0.114(4) 0.065(3) 0.135(5) -0.033(3) -0.056(4) 0.043(3)
C16 0.142 0.142 0.084 0.032 0.032 0.069
S3 0.424 0.424 0.327 0.215 0.215 -0.012
C17 0.057(3) 0.046(2) 0.078(3) 0.000(2) -0.017(2) -0.0117(19)
C18 0.163(6) 0.051(3) 0.094(4) -0.004(3) -0.076(4) 0.010(3)
C19 0.199(7) 0.026(2) 0.120(5) -0.003(2) -0.099(5) 0.014(3)
N9 0.057 0.051 0.076 0.0258 -0.0296 -0.0188
C20 0.144(5) 0.059(3) 0.100(4) 0.000(3) -0.074(4) -0.003(3)
C21 0.161(6) 0.042(3) 0.106(4) 0.000(3) -0.065(4) 0.022(3)
Co1E 0.0441(3) 0.0441(3) 0.0636(5) -0.0116(3) -0.0116(3) 0.0163(3)
Co1F 0.0441 0.0441 0.0636 -0.0116 0.0116 -0.0163
Co1G 0.0441 0.0441 0.0636 0.0116 -0.0116 -0.0163
Co1A 0.0441 0.0441 0.0636 -0.0116 -0.0116 0.0163
Co1B 0.0441 0.0441 0.0636 0.0116 -0.0116 -0.0163
Co1C 0.0441 0.0441 0.0636 -0.0116 0.0116 -0.0163
Co1D 0.0441 0.0441 0.0636 0.0116 0.0116 0.0163
N1A 0.075 0.047 0.042 0 0 0.001
S1C 0.24 0.24 0.317 -0.182 0.182 -0.053
N2A 0.076 0.046 0.087 0.0087 0.03 0.0154
N2H 0.076 0.046 0.087 -0.0087 -0.03 0.0154
N2I 0.076 0.046 0.087 0.0087 0.03 0.0154
N3C 0.0473 0.0473 0.054 -0.0038 0.0038 -0.013
N4C 0.067 0.067 0.067 -0.018 0.018 -0.023
N5A 0.059 0.05 0.073 0.0115 0.0146 0.0211
N5H 0.059 0.05 0.073 -0.0115 -0.0146 0.0211
N5I 0.059 0.05 0.073 0.0115 0.0146 0.0211
N5E 0.05 0.059 0.073 0.0146 0.0115 0.0211
N5G 0.05 0.059 0.073 -0.0146 0.0115 -0.0211
N5J 0.059 0.05 0.073 -0.0115 0.0146 -0.0211
N6A 0.074 0.0446 0.077 -0.0012 0.0225 0.0132
N6H 0.074 0.0446 0.077 0.0012 -0.0225 0.0132
N6I 0.074 0.0446 0.077 -0.0012 0.0225 0.0132
S2A 0.343 0.0458 0.251 0 0 0.042
N7A 0.076 0.0408 0.0512 -0.002 0.0125 0.0083
N7H 0.076 0.0408 0.0512 0.002 -0.0125 0.0083
N7I 0.076 0.0408 0.0512 -0.002 0.0125 0.0083
N8A 0.072 0.0413 0.078 0.0088 0.0131 0.0152
N8H 0.072 0.0413 0.078 -0.0088 -0.0131 0.0152
N8I 0.072 0.0413 0.078 0.0088 0.0131 0.0152
C1A 0.081 0.052 0.061 0 0.014 0.014
C1H 0.081 0.052 0.061 0 -0.014 0.014
C1I 0.081 0.052 0.061 0 0.014 0.014
C2A 0.085 0.038 0.082 -0.006 0.022 0.012
C2H 0.085 0.038 0.082 0.006 -0.022 0.012
C2I 0.085 0.038 0.082 -0.006 0.022 0.012
C3A 0.067 0.052 0.082 0.005 0.02 0.004
C3H 0.067 0.052 0.082 -0.005 -0.02 0.004
C3I 0.067 0.052 0.082 0.005 0.02 0.004
C4A 0.084 0.039 0.072 0.001 0.025 0.008
C4H 0.084 0.039 0.072 -0.001 -0.025 0.008
C4I 0.084 0.039 0.072 0.001 0.025 0.008
C5A 0.066 0.048 0.082 0.004 0.026 -0.002
C5H 0.066 0.048 0.082 -0.004 -0.026 -0.002
C5I 0.066 0.048 0.082 0.004 0.026 -0.002
C6A 0.087 0.033 0.087 0.01 0.044 0.015
C6H 0.087 0.033 0.087 -0.01 -0.044 0.015
C6I 0.087 0.033 0.087 0.01 0.044 0.015
C7A 0.07 0.057 0.096 0.018 0.035 0.009
C7H 0.07 0.057 0.096 -0.018 -0.035 0.009
C7I 0.07 0.057 0.096 0.018 0.035 0.009
C8A 0.13 0.043 0.088 0 0 0.003
C9A 0.094 0.067 0.071 0.01 0.027 0.031
C9H 0.094 0.067 0.071 -0.01 -0.027 0.031
C9I 0.094 0.067 0.071 0.01 0.027 0.031
C10A 0.129 0.059 0.062 0.019 0.029 0.043
C10H 0.129 0.059 0.062 -0.019 -0.029 0.043
C10I 0.129 0.059 0.062 0.019 0.029 0.043
C11A 0.121 0.072 0.089 0.028 0.04 0.046
C11H 0.121 0.072 0.089 -0.028 -0.04 0.046
C11I 0.121 0.072 0.089 0.028 0.04 0.046
C12A 0.087 0.062 0.096 0.025 0.036 0.019
C12H 0.087 0.062 0.096 -0.025 -0.036 0.019
C12I 0.087 0.062 0.096 0.025 0.036 0.019
C13A 0.099 0.073 0.093 0.02 0.041 0.048
C13H 0.099 0.073 0.093 -0.02 -0.041 0.048
C13I 0.099 0.073 0.093 0.02 0.041 0.048
C14C 0.082 0.082 0.111 -0.041 0.041 -0.007
C15A 0.114 0.065 0.135 0.033 0.056 0.043
C15H 0.114 0.065 0.135 -0.033 -0.056 0.043
C15I 0.114 0.065 0.135 0.033 0.056 0.043
C16C 0.142 0.142 0.084 -0.032 0.032 -0.069
S3C 0.424 0.424 0.327 -0.215 0.215 0.012
C17A 0.057 0.046 0.078 0 0.017 -0.0117
C17H 0.057 0.046 0.078 0 -0.017 -0.0117
C17I 0.057 0.046 0.078 0 0.017 -0.0117
C18A 0.163 0.051 0.094 0.004 0.076 0.01
C18H 0.163 0.051 0.094 -0.004 -0.076 0.01
C18I 0.163 0.051 0.094 0.004 0.076 0.01
C19A 0.199 0.026 0.12 0.003 0.099 0.014
C19H 0.199 0.026 0.12 -0.003 -0.099 0.014
C19I 0.199 0.026 0.12 0.003 0.099 0.014
N9A 0.057 0.051 0.076 -0.0258 0.0296 -0.0188
N9H 0.057 0.051 0.076 0.0258 -0.0296 -0.0188
N9I 0.057 0.051 0.076 -0.0258 0.0296 -0.0188
N9F 0.051 0.057 0.076 0.0296 0.0258 0.0188
N9J 0.057 0.051 0.076 0.0258 0.0296 0.0188
N9D 0.051 0.057 0.076 -0.0296 0.0258 -0.0188
C20A 0.144 0.059 0.1 0 0.074 -0.003
C20H 0.144 0.059 0.1 0 -0.074 -0.003
C20I 0.144 0.059 0.1 0 0.074 -0.003
C21A 0.161 0.042 0.106 0 0.065 0.022
C21H 0.161 0.042 0.106 0 -0.065 0.022
C21I 0.161 0.042 0.106 0 0.065 0.022
S4 0.1379(19) 0.174(2) 0.243(3) 0.017(2) -0.0583(19) 0.0144(16)
S5 0.249(4) 0.282(4) 0.284(4) 0.116(3) -0.028(3) 0.047(3)
C22 0.241(8) 0.278(8) 0.253(8) 0.007(7) -0.026(7) 0.013(7)
C23 0.221(7) 0.240(8) 0.248(8) 0.018(7) 0.011(7) 0.000(7)
C24 0.247(8) 0.273(8) 0.266(8) 0.014(7) -0.012(7) 0.023(7)
S6 0.235(4) 0.214(3) 0.356(5) -0.063(3) 0.096(4) -0.028(3)
S7 0.323(5) 0.269(4) 0.392(6) 0.054(5) 0.089(5) 0.046(4)
C25 0.213(7) 0.232(8) 0.253(8) 0.012(7) 0.013(7) -0.019(7)
C26 0.189(7) 0.179(7) 0.212(7) 0.012(6) 0.033(6) -0.017(6)
C27 0.217(8) 0.220(7) 0.251(8) -0.009(6) 0.048(6) -0.015(6)
loop_
_geom_bond_atom_site_label_1
_geom_bond_atom_site_label_2
_geom_bond_site_symmetry_1
_geom_bond_site_symmetry_2
Co1 N3 1_555 1_555
Co2 N1 1_555 1_555
N1 C8 1_555 1_555
S1 C14 1_555 1_555
N2 C4 1_555 1_555
N3 C16 1_555 1_555
N4 Co1 1_555 1_555
N5 C6 1_555 1_555
N6 C2 1_555 1_555
S2 C8 1_555 1_555
N7 Co2 1_555 1_555
N8 C2 1_555 1_555
C1 C2 1_555 1_555
C3 C5 1_555 1_555
C4 N8 1_555 1_555
C5 N2 1_555 1_555
C6 H1 1_555 1_555
C7 C1 1_555 1_555
H2 C7 1_555 1_555
C9 C1 1_555 1_555
H3 C9 1_555 1_555
C10 N5 1_555 1_555
H4 C10 1_555 1_555
C11 N7 1_555 1_555
H5 C11 1_555 1_555
C12 C3 1_555 1_555
H6 C12 1_555 1_555
C13 N7 1_555 1_555
H7 C13 1_555 1_555
C14 N4 1_555 1_555
C15 C3 1_555 1_555
H8 C15 1_555 1_555
C16 S3 1_555 1_555
C17 C4 1_555 1_555
C18 C17 1_555 1_555
H9 C18 1_555 1_555
C19 C17 1_555 1_555
H10 C19 1_555 1_555
N9 C20 1_555 1_555
C20 C19 1_555 1_555
H11 C20 1_555 1_555
C21 C18 1_555 1_555
H12 C21 1_555 1_555
S4 C22 1_555 1_555
S5 C23 1_555 1_555
C22 H13 1_555 1_555
C23 S4 1_555 1_555
C24 S5 1_555 1_555
H14 C24 1_555 1_555
S6 C25 1_555 1_555
S7 C25 1_555 1_555
C25 C23 1_555 1_555
C26 S7 1_555 1_555
H15 C26 1_555 1_555
C27 S6 1_555 1_555
H16 C27 1_555 1_555
Co1E N5 1_555 1_555
Co1F N9A 1_555 1_555
Co1G N9 1_555 1_555
Co1A N5H 1_555 1_555
Co1B N9H 1_555 1_555
Co1C N3C 1_555 1_555
Co1D N5A 1_555 1_555
N1A Co2 1_555 1_555
S1C C14C 1_555 1_555
N2A C4A 1_555 1_555
N2H C4H 1_555 1_555
N2I C4I 1_555 1_555
N3C C16C 1_555 1_555
N4C Co1C 1_555 1_555
N5A C6A 1_555 1_555
N5H C6H 1_555 1_555
N5I Co1 1_555 1_555
N5E Co1 1_555 1_555
N5G Co1C 1_555 1_555
N5J Co1C 1_555 1_555
N6A C2A 1_555 1_555
N6H C2H 1_555 1_555
N6I C2I 1_555 1_555
S2A C8A 1_555 1_555
N7A Co2 1_555 1_555
N7H Co2 1_555 1_555
N7I Co2 1_555 1_555
N8A C2A 1_555 1_555
N8H C2H 1_555 1_555
N8I C2I 1_555 1_555
C1A C2A 1_555 1_555
C1H C2H 1_555 1_555
C1I C2I 1_555 1_555
C3A C5A 1_555 1_555
C3H C5H 1_555 1_555
C3I C5I 1_555 1_555
C4A N8A 1_555 1_555
C4H N8H 1_555 1_555
C4I N8I 1_555 1_555
C5A N2A 1_555 1_555
C5H N2H 1_555 1_555
C5I N2I 1_555 1_555
C6A H1A 1_555 1_555
C6H H1H 1_555 1_555
C6I N5I 1_555 1_555
H1I C6I 1_555 1_555
C7A C1A 1_555 1_555
C7H C1H 1_555 1_555
C7I C1I 1_555 1_555
H2A C7A 1_555 1_555
H2H C7H 1_555 1_555
H2I C7I 1_555 1_555
C8A N1A 1_555 1_555
C9A C1A 1_555 1_555
C9H C1H 1_555 1_555
C9I C1I 1_555 1_555
H3A C9A 1_555 1_555
H3H C9H 1_555 1_555
H3I C9I 1_555 1_555
C10A N5A 1_555 1_555
C10H N5H 1_555 1_555
C10I N5I 1_555 1_555
H4A C10A 1_555 1_555
H4H C10H 1_555 1_555
H4I C10I 1_555 1_555
C11A N7A 1_555 1_555
C11H N7H 1_555 1_555
C11I N7I 1_555 1_555
H5A C11A 1_555 1_555
H5H C11H 1_555 1_555
H5I C11I 1_555 1_555
C12A C3A 1_555 1_555
C12H C3H 1_555 1_555
C12I C3I 1_555 1_555
H6A C12A 1_555 1_555
H6H C12H 1_555 1_555
H6I C12I 1_555 1_555
C13A N7A 1_555 1_555
C13H N7H 1_555 1_555
C13I N7I 1_555 1_555
H7A C13A 1_555 1_555
H7H C13H 1_555 1_555
H7I C13I 1_555 1_555
C14C N4C 1_555 1_555
C15A C3A 1_555 1_555
C15H C3H 1_555 1_555
C15I C3I 1_555 1_555
H8A C15A 1_555 1_555
H8H C15H 1_555 1_555
H8I C15I 1_555 1_555
C16C S3C 1_555 1_555
C17A C4A 1_555 1_555
C17H C4H 1_555 1_555
C17I C4I 1_555 1_555
C18A C17A 1_555 1_555
C18H C17H 1_555 1_555
C18I C17I 1_555 1_555
H9A C18A 1_555 1_555
H9H C18H 1_555 1_555
H9I C18I 1_555 1_555
C19A C17A 1_555 1_555
C19H C17H 1_555 1_555
C19I C17I 1_555 1_555
H10A C19A 1_555 1_555
H10H C19H 1_555 1_555
H10I C19I 1_555 1_555
N9A C20A 1_555 1_555
N9H C20H 1_555 1_555
N9I Co1C 1_555 1_555
N9F Co1 1_555 1_555
N9J Co1 1_555 1_555
N9D Co1C 1_555 1_555
C20A C19A 1_555 1_555
C20H C19H 1_555 1_555
C20I C19I 1_555 1_555
H11A C20A 1_555 1_555
H11H C20H 1_555 1_555
H11I C20I 1_555 1_555
C21A C18A 1_555 1_555
C21H C18H 1_555 1_555
C21I C18I 1_555 1_555
H12A C21A 1_555 1_555
H12H C21H 1_555 1_555
H12I C21I 1_555 1_555
N6 C5 1_555 1_555
C6 C7 1_555 1_555
C9 C10 1_555 1_555
C11 C12 1_555 1_555
C13 C15 1_555 1_555
N9 C21 1_555 1_555
C22 C24 1_555 1_555
C26 C27 1_555 1_555
N6A C5A 1_555 1_555
N6H C5H 1_555 1_555
N6I C5I 1_555 1_555
C6A C7A 1_555 1_555
C6H C7H 1_555 1_555
C6I C7I 1_555 1_555
C9A C10A 1_555 1_555
C9H C10H 1_555 1_555
C9I C10I 1_555 1_555
C11A C12A 1_555 1_555
C11H C12H 1_555 1_555
C11I C12I 1_555 1_555
C13A C15A 1_555 1_555
C13H C15H 1_555 1_555
C13I C15I 1_555 1_555
N9A C21A 1_555 1_555
N9H C21H 1_555 1_555
N9I C20I 1_555 1_555
N9I C21I 1_555 1_555

#END
