
#######################################################################
#
#                 Cambridge Crystallographic Data Centre
#                                CCDC 
#
#######################################################################
#
# If this CIF has been generated from an entry in the Cambridge 
# Structural Database, then it will include bibliographic, chemical, 
# crystal, experimental, refinement or atomic coordinate data resulting 
# from the CCDC's data processing and validation procedures.
#
#######################################################################

data_HAJDII
_chemical_formula_moiety         '(C42 H60 N14 O10 Tb1 3+)n'
_symmetry_cell_setting           hexagonal
_symmetry_space_group_name_H-M   'P 64 2 2'
_symmetry_Int_Tables_number      181
_space_group_name_Hall           'P 64 2 (0 0 2)'
loop_
_symmetry_equiv_pos_site_id
_symmetry_equiv_pos_as_xyz
1 x,y,z
2 x-y,x,2/3+z
3 -y,x-y,1/3+z
4 -x,-y,z
5 -x+y,-x,2/3+z
6 y,-x+y,1/3+z
7 x-y,-y,-z
8 -x,-x+y,2/3-z
9 y,x,1/3-z
10 -y,-x,1/3-z
11 -x+y,y,-z
12 x,x-y,2/3-z
_cell_length_a                   15.1834(4)
_cell_length_b                   15.1834(4)
_cell_length_c                   26.5282(9)
_cell_angle_alpha                90
_cell_angle_beta                 90
_cell_angle_gamma                120
_cell_volume                     5296.35
loop_
_atom_site_label
_atom_site_type_symbol
_atom_site_fract_x
_atom_site_fract_y
_atom_site_fract_z
C15 C 0.1726(10) -0.1725(5) 0.6667
N1 N 0.2201(10) -0.2201(4) 0.6667
H9 H 0.1910 -0.2819 0.6772
N2 N 0.0759(8) -0.1992(5) 0.6810(5)
N3 N 0.0383(21) -0.1439(16) 0.6582(11)
H10 H -0.0314 -0.1563 0.6605
C16 C 0.0602(22) -0.1185(17) 0.6906(11)
H11 H 0.0003 -0.1207 0.7059
H9I H 0.2819 -0.1910 0.6561
N2I N 0.1992(5) -0.0759(8) 0.6523(5)
N3I N 0.1439(16) -0.0383(21) 0.6751(11)
H10I H 0.1563 0.0314 0.6728
C16I C 0.1185(17) -0.0602(22) 0.6427(11)
H11I H 0.1207 -0.0003 0.6274
C17 C 0.006(3) -0.094(3) 0.7884(14)
H12 H 0.0121 -0.1451 0.8070
H13 H -0.0362 -0.0749 0.8070
H14 H -0.0255 -0.1218 0.7564
N4 N 0.104(2) -0.007(3) 0.7807(13)
H15 H 0.1448 0.0227 0.8102
H16 H 0.1410 -0.0296 0.7591
C18 C 0.094(3) 0.066(2) 0.7536(15)
H17 H 0.0907 0.0517 0.7182
H18 H 0.1512 0.1322 0.7603
H19 H 0.0326 0.0649 0.7638
C15C C -0.1726(10) 0.1725(5) 0.6667
N1C N -0.2201(10) 0.2201(4) 0.6667
H9C H -0.1910 0.2819 0.6772
N2C N -0.0759(8) 0.1992(5) 0.6810(5)
N3C N -0.0383(21) 0.1439(16) 0.6582(11)
H10C H 0.0314 0.1563 0.6605
C16C C -0.0602(22) 0.1185(17) 0.6906(11)
H11C H -0.0003 0.1207 0.7059
H9H H -0.2819 0.1910 0.6561
N2H N -0.1992(5) 0.0759(8) 0.6523(5)
N3H N -0.1439(16) 0.0383(21) 0.6751(11)
H10H H -0.1563 -0.0314 0.6728
C16H C -0.1185(17) 0.0602(22) 0.6427(11)
H11H H -0.1207 0.0003 0.6274
C17C C -0.006(3) 0.094(3) 0.7884(14)
H12C H -0.0121 0.1451 0.8070
H13C H 0.0362 0.0749 0.8070
H14C H 0.0255 0.1218 0.7564
N4C N -0.104(2) 0.007(3) 0.7807(13)
H15C H -0.1448 -0.0227 0.8102
H16C H -0.1410 0.0296 0.7591
C18C C -0.094(3) -0.066(2) 0.7536(15)
H17C H -0.0907 -0.0517 0.7182
H18C H -0.1512 -0.1322 0.7603
H19C H -0.0326 -0.0649 0.7638
C17H C -0.094(3) 0.006(3) 0.5449(14)
H12H H -0.1451 0.0121 0.5263
H13H H -0.0749 -0.0362 0.5263
H14H H -0.1218 -0.0255 0.5769
N4H N -0.007(3) 0.104(2) 0.5526(13)
H15H H 0.0227 0.1448 0.5231
H16H H -0.0296 0.1410 0.5742
C18H C 0.066(2) 0.094(3) 0.5797(15)
H17H H 0.0517 0.0907 0.6151
H18H H 0.1322 0.1512 0.5730
H19H H 0.0649 0.0326 0.5695
C17I C 0.094(3) -0.006(3) 0.5449(14)
H12I H 0.1451 -0.0121 0.5263
H13I H 0.0749 0.0362 0.5263
H14I H 0.1218 0.0255 0.5769
N4I N 0.007(3) -0.104(2) 0.5526(13)
H15I H -0.0227 -0.1448 0.5231
H16I H 0.0296 -0.1410 0.5742
C18I C -0.066(2) -0.094(3) 0.5797(15)
H17I H -0.0517 -0.0907 0.6151
H18I H -0.1322 -0.1512 0.5730
H19I H -0.0649 -0.0326 0.5695
Tb1 Tb 0.5000 0.5000 1.08869(2)
O1 O 0.5715(6) 0.4389(6) 1.0231(2)
C1 C 0.4830(7) 0.3641(7) 1.0090(3)
C2 C 0.2287(7) -0.2000(7) 0.8352(4)
O2 O 0.4587(7) 0.0980(6) 0.8560(3)
O3 O 0.4148(4) 0.3574(6) 1.0311(3)
O4 O 0.1149(6) -0.3327(5) 0.7806(3)
C3 C 0.3812(9) 0.0003(10) 0.8516(4)
C4 C 0.2588(9) -0.1642(9) 0.8828(4)
H1 H 0.2279 -0.2075 0.9100
C5 C 0.3743(9) 0.1467(10) 0.9184(5)
H2 H 0.3105 0.0939 0.9091
C6 C 0.4595(9) 0.1588(9) 0.8948(5)
C7 C 0.4759(8) 0.2945(8) 0.9691(4)
C8 C 0.3832(9) 0.2131(8) 0.9560(5)
H3 H 0.3252 0.2027 0.9730
C9 C 0.5602(9) 0.3077(8) 0.9444(4)
H4 H 0.6236 0.3620 0.9530
O5 O 0.1062(6) -0.3650(5) 0.8628(3)
C10 C 0.1432(7) -0.3068(7) 0.8250(4)
C11 C 0.3350(10) -0.0638(9) 0.8917(4)
H5 H 0.3543 -0.0406 0.9245
C12 C 0.2799(10) -0.1361(8) 0.7955(4)
H6 H 0.2633 -0.1607 0.7627
C13 C 0.5528(10) 0.2401(9) 0.9059(5)
H7 H 0.6104 0.2508 0.8884
C14 C 0.3544(11) -0.0374(8) 0.8031(4)
H8 H 0.3871 0.0045 0.7756
O1C O 0.4285(6) 0.5611(6) 1.0231(2)
C1C C 0.5170(7) 0.6359(7) 1.0090(3)
C2C C 0.7713(7) 1.2000(7) 0.8352(4)
O2C O 0.5413(7) 0.9020(6) 0.8560(3)
O3C O 0.5852(4) 0.6426(6) 1.0311(3)
O4C O 0.8851(6) 1.3327(5) 0.7806(3)
C3C C 0.6188(9) 0.9997(10) 0.8516(4)
C4C C 0.7412(9) 1.1642(9) 0.8828(4)
H1C H 0.7721 1.2075 0.9100
C5C C 0.6257(9) 0.8533(10) 0.9184(5)
H2C H 0.6895 0.9061 0.9091
C6C C 0.5405(9) 0.8412(9) 0.8948(5)
C7C C 0.5241(8) 0.7055(8) 0.9691(4)
C8C C 0.6168(9) 0.7869(8) 0.9560(5)
H3C H 0.6748 0.7973 0.9730
C9C C 0.4398(9) 0.6923(8) 0.9444(4)
H4C H 0.3764 0.6380 0.9530
O5C O 0.8938(6) 1.3650(5) 0.8628(3)
C10C C 0.8568(7) 1.3068(7) 0.8250(4)
C11C C 0.6650(10) 1.0638(9) 0.8917(4)
H5C H 0.6457 1.0406 0.9245
C12C C 0.7201(10) 1.1361(8) 0.7955(4)
H6C H 0.7367 1.1607 0.7627
C13C C 0.4472(10) 0.7599(9) 0.9059(5)
H7C H 0.3896 0.7492 0.8884
C14C C 0.6456(11) 1.0374(8) 0.8031(4)
H8C H 0.6129 0.9955 0.7756
Tb1A Tb 0.0000 -0.5000 0.75536(2)
Tb1A_2 Tb 1.0000 1.5000 0.75536(2)
Tb1F Tb -0.0000 -0.5000 0.91131(2)
Tb1F_2 Tb 1.0000 1.5000 0.91131(2)
O4B O 0.3327(5) 0.4476(8) 1.1139(3)
O4E O 0.6673(5) 0.5524(8) 1.1139(3)
O5F O 0.4712(8) 0.3650(5) 1.1372(3)
O5J O 0.5288(8) 0.6350(5) 1.1372(3)
loop_
_geom_bond_atom_site_label_1
_geom_bond_atom_site_label_2
_geom_bond_site_symmetry_1
_geom_bond_site_symmetry_2
Tb1 O1 1_555 1_555
O1 C1 1_555 1_555
C1 O3 1_555 1_555
C2 C4 1_555 1_555
O2 C3 1_555 1_555
O3 Tb1 1_555 1_555
O4 C10 1_555 1_555
C3 C11 1_555 1_555
C4 H1 1_555 1_555
C5 H2 1_555 1_555
C6 O2 1_555 1_555
C7 C1 1_555 1_555
C8 C5 1_555 1_555
H3 C8 1_555 1_555
C9 C7 1_555 1_555
H4 C9 1_555 1_555
O5 C10 1_555 1_555
C10 C2 1_555 1_555
C11 C4 1_555 1_555
H5 C11 1_555 1_555
C12 C2 1_555 1_555
H6 C12 1_555 1_555
C13 C6 1_555 1_555
H7 C13 1_555 1_555
C14 C3 1_555 1_555
H8 C14 1_555 1_555
C15 N1 1_555 1_555
N1 H9 1_555 1_555
N2 C15 1_555 1_555
N3 N2 1_555 1_555
H10 N3 1_555 1_555
C16 N2 1_555 1_555
H11 C16 1_555 1_555
C17 H12 1_555 1_555
H13 C17 1_555 1_555
H14 C17 1_555 1_555
N4 C17 1_555 1_555
H15 N4 1_555 1_555
H16 N4 1_555 1_555
C18 N4 1_555 1_555
H17 C18 1_555 1_555
H18 C18 1_555 1_555
H19 C18 1_555 1_555
O1C Tb1 1_555 1_555
C1C O1C 1_555 1_555
C2C C4C 1_555 1_555
O2C C3C 1_555 1_555
O3C Tb1 1_555 1_555
O4C C10C 1_555 1_555
C3C C11C 1_555 1_555
C4C H1C 1_555 1_555
C5C H2C 1_555 1_555
C6C O2C 1_555 1_555
C7C C1C 1_555 1_555
C8C C5C 1_555 1_555
H3C C8C 1_555 1_555
C9C C7C 1_555 1_555
H4C C9C 1_555 1_555
O5C C10C 1_555 1_555
C10C C2C 1_555 1_555
C11C C4C 1_555 1_555
H5C C11C 1_555 1_555
C12C C2C 1_555 1_555
H6C C12C 1_555 1_555
C13C C6C 1_555 1_555
H7C C13C 1_555 1_555
C14C C3C 1_555 1_555
H8C C14C 1_555 1_555
Tb1A O4 1_555 1_555
Tb1A_2 O4C 1_555 1_555
Tb1F O5 1_555 1_555
Tb1F_2 O5C 1_555 1_555
O4B Tb1 1_555 1_555
O4E Tb1 1_555 1_555
O5F Tb1 1_555 1_555
O5J Tb1 1_555 1_555
H9I N1 1_555 1_555
N2I C15 1_555 1_555
N3I C16 1_555 1_555
H10I N3I 1_555 1_555
C16I N3 1_555 1_555
H11I C16I 1_555 1_555
C15C N1C 1_555 1_555
N1C H9C 1_555 1_555
N2C C15C 1_555 1_555
N3C N2C 1_555 1_555
H10C N3C 1_555 1_555
C16C N2C 1_555 1_555
H11C C16C 1_555 1_555
H9H N1C 1_555 1_555
N2H C15C 1_555 1_555
N3H C16C 1_555 1_555
H10H N3H 1_555 1_555
C16H N3C 1_555 1_555
H11H C16H 1_555 1_555
C17C H12C 1_555 1_555
H13C C17C 1_555 1_555
H14C C17C 1_555 1_555
N4C C17C 1_555 1_555
H15C N4C 1_555 1_555
H16C N4C 1_555 1_555
C18C N4C 1_555 1_555
H17C C18C 1_555 1_555
H18C C18C 1_555 1_555
H19C C18C 1_555 1_555
C17H H12H 1_555 1_555
H13H C17H 1_555 1_555
H14H C17H 1_555 1_555
N4H C17H 1_555 1_555
H15H N4H 1_555 1_555
H16H N4H 1_555 1_555
C18H N4H 1_555 1_555
H17H C18H 1_555 1_555
H18H C18H 1_555 1_555
H19H C18H 1_555 1_555
C17I H12I 1_555 1_555
H13I C17I 1_555 1_555
H14I C17I 1_555 1_555
N4I C17I 1_555 1_555
H15I N4I 1_555 1_555
H16I N4I 1_555 1_555
C18I N4I 1_555 1_555
H17I C18I 1_555 1_555
H18I C18I 1_555 1_555
H19I C18I 1_555 1_555
C5 C6 1_555 1_555
C7 C8 1_555 1_555
C9 C13 1_555 1_555
C12 C14 1_555 1_555
N3 C16 1_555 1_555
C1C O3C 1_555 1_555
C5C C6C 1_555 1_555
C7C C8C 1_555 1_555
C9C C13C 1_555 1_555
C12C C14C 1_555 1_555
N2I N3I 1_555 1_555
N2I C16I 1_555 1_555
N3I C16I 1_555 1_555
N3C C16C 1_555 1_555
N2H N3H 1_555 1_555
N2H C16H 1_555 1_555
N3H C16H 1_555 1_555

#END
