
#######################################################################
#
#                 Cambridge Crystallographic Data Centre
#                                CCDC 
#
#######################################################################
#
# If this CIF has been generated from an entry in the Cambridge 
# Structural Database, then it will include bibliographic, chemical, 
# crystal, experimental, refinement or atomic coordinate data resulting 
# from the CCDC's data processing and validation procedures.
#
#######################################################################

data_FAFDEX
_chemical_formula_moiety         '(C12 H16 I3 K1 Mn1 O15)n'
_symmetry_cell_setting           triclinic
_symmetry_space_group_name_H-M   'P 1'
_symmetry_Int_Tables_number      1
_space_group_name_Hall           'P 1'
loop_
_symmetry_equiv_pos_site_id
_symmetry_equiv_pos_as_xyz
1 x,y,z
_cell_length_a                   5.8478(3)
_cell_length_b                   9.1080(5)
_cell_length_c                   11.0349(6)
_cell_angle_alpha                91.713(3)
_cell_angle_beta                 93.054(3)
_cell_angle_gamma                97.672(3)
_cell_volume                     581.243
loop_
_atom_site_label
_atom_site_type_symbol
_atom_site_fract_x
_atom_site_fract_y
_atom_site_fract_z
I1 I 0.69198(14) 0.71659(13) 0.69359(11)
I2 I 1.03422(13) 0.64473(12) 0.86403(9)
I3 I 0.32136(11) 0.77981(10) 0.51116(9)
K1 K 0.8221(4) 1.0458(3) 0.4252(3)
Mn1 Mn 0.4432(2) 1.14529(18) 0.15502(14)
O1 O 0.2983(11) 0.8924(9) 0.1303(8)
O2 O 0.3906(10) 0.6669(8) 0.1404(8)
O3 O 0.7504(10) 0.9949(9) 0.1631(7)
H1 H 0.834(15) 1.063(4) 0.135(6)
O4 O 0.8269(12) 0.7684(9) 0.3053(8)
H2 H 0.884(19) 0.703(10) 0.342(10)
O5 O 0.3718(10) 0.3769(8) 0.2094(8)
H3 H 0.248(10) 0.407(12) 0.219(10)
O6 O 0.9637(11) 0.4803(9) 0.3053(9)
O7 O 0.7565(10) 0.2668(9) 0.2393(7)
O8 O 0.6194(13) 1.2840(11) 0.5282(8)
O9 O 0.5293(10) 1.2638(9) 0.7218(7)
O10 O 0.1528(13) 1.3040(10) 0.4718(7)
H4 H 0.10(2) 1.374(9) 0.439(11)
O11 O 0.0416(11) 1.1145(10) 0.6480(7)
H5 H -0.025(17) 1.063(12) 0.698(9)
O12 O 0.5049(10) 1.1661(9) 0.9628(7)
H6 H 0.623(12) 1.156(13) 0.928(10)
O13 O 0.1080(10) 1.1392(8) 1.0588(7)
O14 O -0.0969(10) 1.0974(9) 0.8824(7)
O15 O 0.3133(13) 1.0908(11) 0.3324(8)
H7 H 0.435(11) 1.145(10) 0.362(4)
H8 H 0.296(17) 1.009(7) 0.368(10)
C1 C 0.4418(14) 0.8100(12) 0.1263(10)
C2 C 0.6966(15) 0.8504(12) 0.1151(10)
H9 H 0.7313 0.8456 0.0311
C3 C 0.7991(14) 0.7301(12) 0.1816(10)
H10 H 0.9450 0.7113 0.1483
C4 C 0.6062(14) 0.5989(12) 0.1521(10)
H11 H 0.6337 0.5510 0.0765
C5 C 0.5649(14) 0.4832(13) 0.2481(11)
H12 H 0.5339 0.5317 0.3249
C6 C 0.7783(15) 0.4011(14) 0.2657(10)
C7 C 0.4862(16) 1.2979(13) 0.6068(11)
C8 C 0.2483(15) 1.3422(14) 0.5917(9)
H13 H 0.2576 1.4495 0.6067
C9 C 0.1216(14) 1.2611(13) 0.6923(9)
H14 H -0.0049 1.3124 0.7192
C10 C 0.3119(14) 1.1415(13) 0.8755(9)
H15 H 0.3172 1.0518 0.8285
C11 C 0.3211(14) 1.2692(14) 0.7904(9)
H16 H 0.3356 1.3604 0.8378
C12 C 0.0893(15) 1.1250(13) 0.9449(11)
K1_2 K 0.8221(4) 0.0458(3) 0.4252(3)
K1_3 K -0.1779(4) 1.0458(3) 0.4252(3)
Mn1_2 Mn 0.4432(2) 0.14529(18) 0.15502(14)
Mn1_3 Mn 0.4432(2) 1.14529(18) 1.15502(14)
O5_2 O 0.3718(10) 1.3769(8) 0.2094(8)
H3_2 H 0.248(10) 1.407(12) 0.219(10)
O7_2 O 0.7565(10) 1.2668(9) 0.2393(7)
O10_2 O 1.1528(13) 1.3040(10) 0.4718(7)
H4_2 H 1.10(2) 1.374(9) 0.439(11)
O11_2 O 1.0416(11) 1.1145(10) 0.6480(7)
H5_2 H 0.975(17) 1.063(12) 0.698(9)
O12_2 O 0.5049(10) 1.1661(9) -0.0372(7)
H6_2 H 0.623(12) 1.156(13) -0.072(10)
O13_2 O 0.1080(10) 1.1392(8) 0.0588(7)
O15_2 O 1.3133(13) 1.0908(11) 0.3324(8)
H7_2 H 1.435(11) 1.145(10) 0.362(4)
H8_2 H 1.296(17) 1.009(7) 0.368(10)
loop_
_geom_bond_atom_site_label_1
_geom_bond_atom_site_label_2
_geom_bond_site_symmetry_1
_geom_bond_site_symmetry_2
I1 I2 1_555 1_555
I3 I1 1_555 1_555
K1 I3 1_555 1_555
Mn1 O1 1_555 1_555
O1 C1 1_555 1_555
O2 C1 1_555 1_555
O3 K1 1_555 1_555
H1 O3 1_555 1_555
O4 K1 1_555 1_555
H2 O4 1_555 1_555
O5 H3 1_555 1_555
O6 C6 1_555 1_555
O7 C6 1_555 1_555
O8 K1 1_555 1_555
O9 C7 1_555 1_555
O10 H4 1_555 1_555
O11 H5 1_555 1_555
O12 H6 1_555 1_555
O13 C12 1_555 1_555
O14 C12 1_555 1_555
O15 K1 1_555 1_555
H7 O15 1_555 1_555
H8 O15 1_555 1_555
C1 C2 1_555 1_555
C2 O3 1_555 1_555
H9 C2 1_555 1_555
C3 O4 1_555 1_555
H10 C3 1_555 1_555
C4 O2 1_555 1_555
H11 C4 1_555 1_555
C5 O5 1_555 1_555
H12 C5 1_555 1_555
C6 C5 1_555 1_555
C7 O8 1_555 1_555
C8 O10 1_555 1_555
H13 C8 1_555 1_555
C9 O11 1_555 1_555
H14 C9 1_555 1_555
C10 O12 1_555 1_555
H15 C10 1_555 1_555
C11 O9 1_555 1_555
H16 C11 1_555 1_555
C12 C10 1_555 1_555
K1_2 O7 1_555 1_555
K1_3 O10 1_555 1_555
Mn1_2 O5 1_555 1_555
Mn1_3 O12 1_555 1_555
O5_2 Mn1 1_555 1_555
H3_2 O5_2 1_555 1_555
O7_2 K1 1_555 1_555
O10_2 K1 1_555 1_555
H4_2 O10_2 1_555 1_555
O11_2 K1 1_555 1_555
H5_2 O11_2 1_555 1_555
O12_2 Mn1 1_555 1_555
H6_2 O12_2 1_555 1_555
O13_2 Mn1 1_555 1_555
O15_2 K1 1_555 1_555
H7_2 O15_2 1_555 1_555
H8_2 O15_2 1_555 1_555
Mn1 O3 1_555 1_555
Mn1 O15 1_555 1_555
Mn1 O7_2 1_555 1_555
O7 Mn1_2 1_555 1_555
O11 K1_3 1_555 1_555
O13 Mn1_3 1_555 1_555
O15 K1_3 1_555 1_555
C2 C3 1_555 1_555
C3 C4 1_555 1_555
C4 C5 1_555 1_555
C7 C8 1_555 1_555
C8 C9 1_555 1_555
C9 C11 1_555 1_555
C10 C11 1_555 1_555

#END
