
#######################################################################
#
#                 Cambridge Crystallographic Data Centre
#                                CCDC 
#
#######################################################################
#
# If this CIF has been generated from an entry in the Cambridge 
# Structural Database, then it will include bibliographic, chemical, 
# crystal, experimental, refinement or atomic coordinate data resulting 
# from the CCDC's data processing and validation procedures.
#
#######################################################################

data_QOGREK
_chemical_formula_moiety         '(C16 H28 B1 Cd1 F4 N12 O2 1+)n'
_symmetry_cell_setting           orthorhombic
_symmetry_space_group_name_H-M   'F d d d'
_symmetry_Int_Tables_number      70
_space_group_name_Hall           '-F 2uv 2vw'
loop_
_symmetry_equiv_pos_site_id
_symmetry_equiv_pos_as_xyz
1 x,y,z
2 x,1/2+y,1/2+z
3 1/4-x,1/4-y,z
4 1/2+x,y,1/2+z
5 1/2+x,1/2+y,z
6 x,1/4-y,1/4-z
7 1/4-x,y,1/4-z
8 x,3/4-y,3/4-z
9 3/4-x,y,3/4-z
10 3/4-x,1/2+y,1/4-z
11 1/2+x,3/4-y,1/4-z
12 1/2+x,1/4-y,3/4-z
13 1/4-x,1/2+y,3/4-z
14 1/4-x,3/4-y,1/2+z
15 3/4-x,3/4-y,z
16 3/4-x,1/4-y,1/2+z
17 -x,-y,-z
18 -x,1/2-y,1/2-z
19 3/4+x,3/4+y,-z
20 1/2-x,-y,1/2-z
21 1/2-x,1/2-y,-z
22 -x,3/4+y,3/4+z
23 3/4+x,-y,3/4+z
24 -x,1/4+y,1/4+z
25 1/4+x,-y,1/4+z
26 1/4+x,1/2-y,3/4+z
27 1/2-x,1/4+y,3/4+z
28 1/2-x,3/4+y,1/4+z
29 3/4+x,1/2-y,1/4+z
30 3/4+x,1/4+y,1/2-z
31 1/4+x,1/4+y,-z
32 1/4+x,3/4+y,1/2-z
_cell_length_a                   13.092(3)
_cell_length_b                   16.956(4)
_cell_length_c                   26.765(6)
_cell_angle_alpha                90
_cell_angle_beta                 90
_cell_angle_gamma                90
_cell_volume                     5941.51
loop_
_atom_site_label
_atom_site_type_symbol
_atom_site_fract_x
_atom_site_fract_y
_atom_site_fract_z
_atom_site_U_iso_or_equiv
_atom_site_thermal_displace_type
Cd1 Cd 0.6250 0.6250 0.6250 0.0289 Uani
O1 O 0.6250 0.7644(3) 0.6250 0.0407 Uani
N1 N 0.4114(3) 0.5908(2) 0.75031(14) 0.0377 Uani
N2 N 0.3750(4) 0.6623(3) 0.7375(2) 0.0617 Uani
N3 N 0.5045(3) 0.62748(19) 0.68730(14) 0.0340 Uani
C1 C 0.4338(5) 0.6824(3) 0.7000(3) 0.0623 Uani
H1 H 0.4275 0.7315 0.6832 0.0750 Uiso
C2 C 0.4877(3) 0.5709(3) 0.72044(16) 0.0330 Uani
H2 H 0.5250 0.5230 0.7224 0.0400 Uiso
C3 C 0.3620(4) 0.5429(4) 0.7888(2) 0.0457 Uani
C4 C 0.2539(10) 0.5217(8) 0.7738(4) 0.0483 Uani
H3 H 0.565(4) 0.790(4) 0.619(2) 0.0700 Uiso
H4 H 0.352(4) 0.570(4) 0.817(2) 0.0540 Uiso
H5 H 0.410(5) 0.513(4) 0.800(2) 0.0510 Uiso
Cd1X Cd -0.1250 0.3750 0.8750 0.0289 Uani
Cd1W Cd 1.3750 0.8750 0.8750 0.0289 Uani
O1B O 0.6250 0.4856(3) 0.6250 0.0407 Uani
N1S N 0.0886(3) 0.4092(2) 0.74969(14) 0.0377 Uani
N1B N 0.8386(3) 0.6592(2) 0.75031(14) 0.0377 Uani
N1CA N 1.1614(3) 0.8408(2) 0.74969(14) 0.0377 Uani
N2S N 0.1250(4) 0.3377(3) 0.7625(2) 0.0617 Uani
N2B N 0.8750(4) 0.5877(3) 0.7375(2) 0.0617 Uani
N2CA N 1.1250(4) 0.9123(3) 0.7625(2) 0.0617 Uani
N3S N -0.0045(3) 0.37252(19) 0.81270(14) 0.0340 Uani
N3B N 0.7455(3) 0.62252(19) 0.68730(14) 0.0340 Uani
N3CA N 1.2545(3) 0.87748(19) 0.81270(14) 0.0340 Uani
N3E N 0.5045(3) 0.62252(19) 0.56270(14) 0.0340 Uani
N3F N 0.7455(3) 0.62748(19) 0.56270(14) 0.0340 Uani
C1S C 0.0662(5) 0.3176(3) 0.8000(3) 0.0623 Uani
C1B C 0.8162(5) 0.5676(3) 0.7000(3) 0.0623 Uani
C1CA C 1.1838(5) 0.9324(3) 0.8000(3) 0.0623 Uani
H1S H 0.0725 0.2685 0.8168 0.0750 Uiso
H1B H 0.8225 0.5185 0.6832 0.0750 Uiso
H1CA H 1.1775 0.9815 0.8168 0.0750 Uiso
C2S C 0.0123(3) 0.4291(3) 0.77956(16) 0.0330 Uani
C2B C 0.7623(3) 0.6791(3) 0.72044(16) 0.0330 Uani
C2CA C 1.2377(3) 0.8209(3) 0.77956(16) 0.0330 Uani
H2S H -0.0250 0.4770 0.7776 0.0400 Uiso
H2B H 0.7250 0.7270 0.7224 0.0400 Uiso
H2CA H 1.2750 0.7730 0.7776 0.0400 Uiso
C3S C 0.1380(4) 0.4571(4) 0.7112(2) 0.0457 Uani
C3B C 0.8880(4) 0.7071(4) 0.7888(2) 0.0457 Uani
C3CA C 1.1120(4) 0.7929(4) 0.7112(2) 0.0457 Uani
C4S C 0.2461(10) 0.4783(8) 0.7262(4) 0.0483 Uani
C4B C 0.9961(10) 0.7283(8) 0.7738(4) 0.0483 Uani
C4CA C 1.0039(10) 0.7717(8) 0.7262(4) 0.0483 Uani
H3F H 0.685(4) 0.790(4) 0.631(2) 0.0700 Uiso
H3B H 0.685(4) 0.460(4) 0.619(2) 0.0700 Uiso
H3E H 0.565(4) 0.460(4) 0.631(2) 0.0700 Uiso
H4S H 0.148(4) 0.430(4) 0.683(2) 0.0540 Uiso
H4B H 0.898(4) 0.680(4) 0.817(2) 0.0540 Uiso
H4CA H 1.102(4) 0.820(4) 0.683(2) 0.0540 Uiso
H5S H 0.090(5) 0.487(4) 0.700(2) 0.0510 Uiso
H5B H 0.840(5) 0.737(4) 0.800(2) 0.0510 Uiso
H5CA H 1.160(5) 0.763(4) 0.700(2) 0.0510 Uiso
B1 B 0.3750 0.8750 0.6302(4) 0.0617 Uani
F1 F 0.4386(4) 0.8313(3) 0.60441(18) 0.0933 Uani
F3 F 0.4349(16) 0.8863(14) 0.6642(10) 0.2040 Uani
F1N F 0.3114(4) 0.9187(3) 0.60441(18) 0.0933 Uani
F3N F 0.3151(16) 0.8637(14) 0.6642(10) 0.2040 Uani
loop_
_atom_site_aniso_label
_atom_site_aniso_U_11
_atom_site_aniso_U_22
_atom_site_aniso_U_33
_atom_site_aniso_U_23
_atom_site_aniso_U_13
_atom_site_aniso_U_12
Cd1 0.0184(4) 0.0302(4) 0.0380(4) 0.000 0.000 0.000
O1 0.024(2) 0.028(2) 0.070(3) 0.000 -0.001(2) 0.000
N1 0.034(2) 0.038(2) 0.041(2) -0.0049(16) 0.0048(16) -0.0083(17)
N2 0.057(3) 0.033(2) 0.095(4) -0.003(2) 0.039(3) 0.0036(18)
N3 0.0270(19) 0.0299(18) 0.045(2) 0.0011(14) 0.0099(16) 0.0005(13)
C1 0.058(3) 0.032(2) 0.097(4) 0.014(3) 0.044(3) 0.011(2)
C2 0.024(2) 0.037(2) 0.038(2) -0.0040(17) -0.0021(17) 0.0011(17)
C3 0.044(3) 0.056(3) 0.037(2) 0.000(2) 0.008(2) -0.007(2)
C4 0.052(6) 0.058(7) 0.035(6) -0.005(5) 0.015(5) -0.017(6)
Cd1X 0.0184 0.0302 0.038 0 0 0
Cd1W 0.0184 0.0302 0.038 0 0 0
O1B 0.024 0.028 0.07 0 0.001 0
N1S 0.034 0.038 0.041 -0.0049 0.0048 -0.0083
N1B 0.034 0.038 0.041 0.0049 -0.0048 -0.0083
N1CA 0.034 0.038 0.041 0.0049 -0.0048 -0.0083
N2S 0.057 0.033 0.095 -0.003 0.039 0.0036
N2B 0.057 0.033 0.095 0.003 -0.039 0.0036
N2CA 0.057 0.033 0.095 0.003 -0.039 0.0036
N3S 0.027 0.0299 0.045 0.0011 0.0099 0.0005
N3B 0.027 0.0299 0.045 -0.0011 -0.0099 0.0005
N3CA 0.027 0.0299 0.045 -0.0011 -0.0099 0.0005
N3E 0.027 0.0299 0.045 0.0011 -0.0099 -0.0005
N3F 0.027 0.0299 0.045 -0.0011 0.0099 -0.0005
C1S 0.058 0.032 0.097 0.014 0.044 0.011
C1B 0.058 0.032 0.097 -0.014 -0.044 0.011
C1CA 0.058 0.032 0.097 -0.014 -0.044 0.011
C2S 0.024 0.037 0.038 -0.004 -0.0021 0.0011
C2B 0.024 0.037 0.038 0.004 0.0021 0.0011
C2CA 0.024 0.037 0.038 0.004 0.0021 0.0011
C3S 0.044 0.056 0.037 0 0.008 -0.007
C3B 0.044 0.056 0.037 0 -0.008 -0.007
C3CA 0.044 0.056 0.037 0 -0.008 -0.007
C4S 0.052 0.058 0.035 -0.005 0.015 -0.017
C4B 0.052 0.058 0.035 0.005 -0.015 -0.017
C4CA 0.052 0.058 0.035 0.005 -0.015 -0.017
B1 0.037(5) 0.095(8) 0.053(5) 0.000 0.000 0.036(5)
F1 0.086(3) 0.104(3) 0.090(3) 0.013(3) 0.019(2) 0.059(3)
F3 0.18(2) 0.122(14) 0.31(3) -0.03(2) -0.21(2) -0.002(18)
F1N 0.086 0.104 0.09 -0.013 -0.019 0.059
F3N 0.18 0.122 0.31 0.03 0.21 -0.002
loop_
_geom_bond_atom_site_label_1
_geom_bond_atom_site_label_2
_geom_bond_site_symmetry_1
_geom_bond_site_symmetry_2
Cd1 O1 1_555 1_555
O1 H3 1_555 1_555
N1 N2 1_555 1_555
N2 C1 1_555 1_555
N3 Cd1 1_555 1_555
C1 N3 1_555 1_555
H1 C1 1_555 1_555
C2 N1 1_555 1_555
H2 C2 1_555 1_555
C3 N1 1_555 1_555
C4 C3 1_555 1_555
H4 C3 1_555 1_555
H5 C3 1_555 1_555
B1 F1 1_555 1_555
F3 B1 1_555 1_555
Cd1X N3S 1_555 1_555
Cd1W N3CA 1_555 1_555
O1B Cd1 1_555 1_555
N1S N2S 1_555 1_555
N1B N2B 1_555 1_555
N1CA N2CA 1_555 1_555
N2S C1S 1_555 1_555
N2B C1B 1_555 1_555
N2CA C1CA 1_555 1_555
N3S C1S 1_555 1_555
N3B Cd1 1_555 1_555
N3CA C1CA 1_555 1_555
N3E Cd1 1_555 1_555
N3F Cd1 1_555 1_555
C1S H1S 1_555 1_555
C1B N3B 1_555 1_555
C1CA H1CA 1_555 1_555
H1B C1B 1_555 1_555
C2S N1S 1_555 1_555
C2B N1B 1_555 1_555
C2CA N1CA 1_555 1_555
H2S C2S 1_555 1_555
H2B C2B 1_555 1_555
H2CA C2CA 1_555 1_555
C3S N1S 1_555 1_555
C3B N1B 1_555 1_555
C3CA N1CA 1_555 1_555
C4S C4 1_555 1_555
C4B C3B 1_555 1_555
C4CA C3CA 1_555 1_555
H3F O1 1_555 1_555
H3B O1B 1_555 1_555
H3E O1B 1_555 1_555
H4S C3S 1_555 1_555
H4B C3B 1_555 1_555
H4CA C3CA 1_555 1_555
H5S C3S 1_555 1_555
H5B C3B 1_555 1_555
H5CA C3CA 1_555 1_555
F1N B1 1_555 1_555
F3N B1 1_555 1_555
N3 C2 1_555 1_555
N3S C2S 1_555 1_555
N3B C2B 1_555 1_555
N3CA C2CA 1_555 1_555
C3S C4S 1_555 1_555
C4B C4CA 1_555 1_555

#END
