
#######################################################################
#
#                 Cambridge Crystallographic Data Centre
#                                CCDC 
#
#######################################################################
#
# If this CIF has been generated from an entry in the Cambridge 
# Structural Database, then it will include bibliographic, chemical, 
# crystal, experimental, refinement or atomic coordinate data resulting 
# from the CCDC's data processing and validation procedures.
#
#######################################################################

data_HIJSOK
_chemical_formula_moiety         '(C36 H32 Co4 N28 O6)n'
_symmetry_cell_setting           tetragonal
_symmetry_space_group_name_H-M   'P 43 21 2'
_symmetry_Int_Tables_number      96
_space_group_name_Hall           'P 4nw 2abw'
loop_
_symmetry_equiv_pos_site_id
_symmetry_equiv_pos_as_xyz
1 x,y,z
2 -x,-y,1/2+z
3 1/2-y,1/2+x,3/4+z
4 1/2+y,1/2-x,1/4+z
5 1/2-x,1/2+y,3/4-z
6 1/2+x,1/2-y,1/4-z
7 y,x,-z
8 -y,-x,1/2-z
_cell_length_a                   18.2791(6)
_cell_length_b                   18.2791(6)
_cell_length_c                   17.5839(12)
_cell_angle_alpha                90
_cell_angle_beta                 90
_cell_angle_gamma                90
_cell_volume                     5875.23
loop_
_atom_site_label
_atom_site_type_symbol
_atom_site_fract_x
_atom_site_fract_y
_atom_site_fract_z
_atom_site_U_iso_or_equiv
_atom_site_thermal_displace_type
Co1 Co 0.65928(3) 0.65928(3) 0.0000 0.0283 Uani
Co2 Co 0.56646(3) 0.84633(3) 0.08471(3) 0.0342 Uani
Co3 Co 0.55681(4) 0.44319(4) 0.2500 0.0478 Uani
N1 N 0.5875(2) 0.7513(2) 0.14315(19) 0.0410 Uani
N2 N 0.61092(19) 0.68732(19) 0.10533(19) 0.0300 Uani
N3 N 0.5737(3) 0.6542(2) 0.2206(2) 0.0610 Uani
N4 N 0.6477(2) 0.5564(2) 0.0572(2) 0.0363 Uani
N5 N 0.6589(2) 0.4831(2) 0.0426(2) 0.0450 Uani
N6 N 0.6109(2) 0.4947(2) 0.1591(2) 0.0420 Uani
N7 N 0.5936(2) 0.3513(2) 0.1786(2) 0.0533 Uani
N8 N 0.63106(19) 0.8218(2) -0.0126(2) 0.0343 Uani
N9 N 0.6670(2) 0.7642(2) -0.0447(2) 0.0340 Uani
N10 N 0.6811(2) 0.8624(2) -0.1208(2) 0.0477 Uani
N11 N 0.5606(2) 0.9457(2) 0.0202(2) 0.0430 Uani
N12 N 0.5337(2) 1.0144(2) 0.0291(2) 0.0477 Uani
N13 N 0.60814(19) 1.01054(19) -0.0730(2) 0.0310 Uani
N14 N 0.5932(2) 1.1551(2) -0.1032(2) 0.0420 Uani
C1 C 0.5668(3) 0.7267(3) 0.2105(3) 0.0597 Uani
H1 H 0.5487 0.7575 0.2482 0.0720 Uiso
C2 C 0.6015(3) 0.6334(2) 0.1537(3) 0.0353 Uani
C3 C 0.6198(3) 0.5612(3) 0.1260(3) 0.0357 Uani
C4 C 0.6349(3) 0.4494(3) 0.1047(3) 0.0437 Uani
C5 C 0.6309(3) 0.3707(3) 0.1156(3) 0.0500 Uani
C6 C 0.6618(4) 0.3184(3) 0.0688(4) 0.0840 Uani
H2 H 0.6877 0.3336 0.0261 0.1010 Uiso
C7 C 0.6560(4) 0.2476(3) 0.0823(4) 0.0813 Uani
H3 H 0.6768 0.2129 0.0502 0.0980 Uiso
C8 C 0.6205(4) 0.2292(4) 0.1416(5) 0.0927 Uani
H4 H 0.6157 0.1796 0.1521 0.1110 Uiso
C9 C 0.5881(3) 0.2789(3) 0.1922(4) 0.0783 Uani
H5 H 0.5630 0.2621 0.2348 0.0940 Uiso
C10 C 0.6971(3) 0.7906(3) -0.1083(3) 0.0487 Uani
H6 H 0.7260 0.7628 -0.1408 0.0580 Uiso
C11 C 0.6407(2) 0.8780(3) -0.0600(2) 0.0337 Uani
C12 C 0.6040(2) 0.9458(3) -0.0402(2) 0.0303 Uani
C13 C 0.5635(3) 1.0508(3) -0.0286(3) 0.0407 Uani
C14 C 0.5528(3) 1.1282(3) -0.0452(3) 0.0470 Uani
C15 C 0.5050(4) 1.1741(4) -0.0077(4) 0.0910 Uani
H7 H 0.4764 1.1552 0.0313 0.1090 Uiso
C16 C 0.4985(4) 1.2437(3) -0.0254(3) 0.0793 Uani
H8 H 0.4675 1.2743 0.0019 0.0950 Uiso
C17 C 0.5366(4) 1.2683(3) -0.0821(4) 0.0950 Uani
H9 H 0.5311 1.3167 -0.0972 0.1140 Uiso
C18 C 0.5856(3) 1.2235(3) -0.1206(3) 0.0633 Uani
H10 H 0.6135 1.2431 -0.1598 0.0760 Uiso
O1 O 0.47397(17) 0.79937(19) 0.0306(2) 0.0500 Uani
H11 H 0.4669 0.8205 -0.0121 0.1700 Uiso
H12 H 0.4363 0.8054 0.0587 0.0120 Uiso
O2 O 0.5463(3) 0.5388(2) 0.3129(2) 0.0857 Uani
H13 H 0.4977 0.5511 0.3243 0.3000 Uiso
H14 H 0.5650 0.5803 0.2882 0.0680 Uiso
Co2F Co 0.84633(3) 0.56646(3) -0.08471(3) 0.0342 Uani
N1F N 0.7513(2) 0.5875(2) -0.14315(19) 0.0410 Uani
N2F N 0.68732(19) 0.61092(19) -0.10533(19) 0.0300 Uani
N3F N 0.6542(2) 0.5737(3) -0.2206(2) 0.0610 Uani
N4F N 0.5564(2) 0.6477(2) -0.0572(2) 0.0363 Uani
N5F N 0.4831(2) 0.6589(2) -0.0426(2) 0.0450 Uani
N6F N 0.4947(2) 0.6109(2) -0.1591(2) 0.0420 Uani
N7F N 0.3513(2) 0.5936(2) -0.1786(2) 0.0533 Uani
N8F N 0.8218(2) 0.63106(19) 0.0126(2) 0.0343 Uani
N9F N 0.7642(2) 0.6670(2) 0.0447(2) 0.0340 Uani
N10F N 0.8624(2) 0.6811(2) 0.1208(2) 0.0477 Uani
N11F N 0.9457(2) 0.5606(2) -0.0202(2) 0.0430 Uani
N12F N 1.0144(2) 0.5337(2) -0.0291(2) 0.0477 Uani
N13F N 1.01054(19) 0.60814(19) 0.0730(2) 0.0310 Uani
N14F N 1.1551(2) 0.5932(2) 0.1032(2) 0.0420 Uani
C1F C 0.7267(3) 0.5668(3) -0.2105(3) 0.0597 Uani
H1F H 0.7575 0.5487 -0.2482 0.0720 Uiso
C2F C 0.6334(2) 0.6015(3) -0.1537(3) 0.0353 Uani
C3F C 0.5612(3) 0.6198(3) -0.1260(3) 0.0357 Uani
C4F C 0.4494(3) 0.6349(3) -0.1047(3) 0.0437 Uani
C5F C 0.3707(3) 0.6309(3) -0.1156(3) 0.0500 Uani
C6F C 0.3184(3) 0.6618(4) -0.0688(4) 0.0840 Uani
H2F H 0.3336 0.6877 -0.0261 0.1010 Uiso
C7F C 0.2476(3) 0.6560(4) -0.0823(4) 0.0813 Uani
H3F H 0.2129 0.6768 -0.0502 0.0980 Uiso
C8F C 0.2292(4) 0.6205(4) -0.1416(5) 0.0927 Uani
H4F H 0.1796 0.6157 -0.1521 0.1110 Uiso
C9F C 0.2789(3) 0.5881(3) -0.1922(4) 0.0783 Uani
H5F H 0.2621 0.5630 -0.2348 0.0940 Uiso
C10F C 0.7906(3) 0.6971(3) 0.1083(3) 0.0487 Uani
H6F H 0.7628 0.7260 0.1408 0.0580 Uiso
C11F C 0.8780(3) 0.6407(2) 0.0600(2) 0.0337 Uani
C12F C 0.9458(3) 0.6040(2) 0.0402(2) 0.0303 Uani
C13F C 1.0508(3) 0.5635(3) 0.0286(3) 0.0407 Uani
C14F C 1.1282(3) 0.5528(3) 0.0452(3) 0.0470 Uani
C15F C 1.1741(4) 0.5050(4) 0.0077(4) 0.0910 Uani
H7F H 1.1552 0.4764 -0.0313 0.1090 Uiso
C16F C 1.2437(3) 0.4985(4) 0.0254(3) 0.0793 Uani
H8F H 1.2743 0.4675 -0.0019 0.0950 Uiso
C17F C 1.2683(3) 0.5366(4) 0.0821(4) 0.0950 Uani
H9F H 1.3167 0.5311 0.0972 0.1140 Uiso
C18F C 1.2235(3) 0.5856(3) 0.1206(3) 0.0633 Uani
H10F H 1.2431 0.6135 0.1598 0.0760 Uiso
O1F O 0.79937(19) 0.47397(17) -0.0306(2) 0.0500 Uani
H11F H 0.8205 0.4669 0.0121 0.1700 Uiso
H12F H 0.8054 0.4363 -0.0587 0.0120 Uiso
O2G O 0.4612(2) 0.4537(3) 0.1871(2) 0.0857 Uani
H13G H 0.4489 0.5023 0.1757 0.3000 Uiso
H14G H 0.4197 0.4350 0.2118 0.0680 Uiso
Co2B Co 0.65367(3) 1.06646(3) -0.16529(3) 0.0342 Uani
Co2E Co 1.06646(3) 0.65367(3) 0.16529(3) 0.0342 Uani
Co3A Co 0.44319(4) 0.55681(4) -0.2500 0.0478 Uani
N6G N 0.5053(2) 0.3891(2) 0.3409(2) 0.0420 Uani
N7G N 0.6487(2) 0.4064(2) 0.3214(2) 0.0533 Uani
N13C N 0.51054(19) 0.89186(19) 0.1770(2) 0.0310 Uani
N13D N 0.89186(19) 0.51054(19) -0.1770(2) 0.0310 Uani
N14C N 0.6551(2) 0.9068(2) 0.1468(2) 0.0420 Uani
N14D N 0.9068(2) 0.6551(2) -0.1468(2) 0.0420 Uani
O3 O 0.6353(6) 0.3647(6) 0.7500 0.2913 Uani
O4 O 0.4304(6) 0.3597(6) 0.0597(5) 0.3277 Uani
loop_
_atom_site_aniso_label
_atom_site_aniso_U_11
_atom_site_aniso_U_22
_atom_site_aniso_U_33
_atom_site_aniso_U_23
_atom_site_aniso_U_13
_atom_site_aniso_U_12
Co1 0.0307(3) 0.0307(3) 0.0235(4) -0.0010(3) 0.0010(3) -0.0024(4)
Co2 0.0381(4) 0.0337(4) 0.0307(3) 0.0025(3) 0.0098(3) 0.0015(3)
Co3 0.0495(4) 0.0495(4) 0.0443(6) 0.0159(4) 0.0159(4) 0.0033(5)
N1 0.058(3) 0.042(2) 0.023(2) -0.002(2) 0.007(2) 0.002(2)
N2 0.037(2) 0.026(2) 0.027(2) -0.0025(17) 0.0068(18) 0.0059(17)
N3 0.109(4) 0.038(3) 0.036(3) 0.009(2) 0.024(3) 0.007(3)
N4 0.043(2) 0.032(2) 0.034(2) 0.0018(18) 0.0087(19) -0.005(2)
N5 0.055(3) 0.041(3) 0.039(2) 0.001(2) 0.020(2) -0.010(2)
N6 0.047(3) 0.040(3) 0.039(2) 0.003(2) 0.017(2) -0.003(2)
N7 0.065(3) 0.041(3) 0.054(3) 0.017(2) 0.014(2) -0.002(2)
N8 0.033(2) 0.038(2) 0.032(2) 0.0031(19) 0.0020(18) 0.0014(18)
N9 0.036(2) 0.035(2) 0.031(2) 0.0001(18) 0.0020(19) 0.0010(19)
N10 0.064(3) 0.041(3) 0.038(2) 0.008(2) 0.029(2) 0.006(2)
N11 0.056(3) 0.035(2) 0.038(2) 0.0069(19) 0.018(2) 0.007(2)
N12 0.054(3) 0.039(3) 0.050(3) 0.003(2) 0.014(2) 0.011(2)
N13 0.028(2) 0.033(2) 0.032(2) 0.0022(19) 0.0052(18) 0.0042(18)
N14 0.047(3) 0.038(2) 0.041(2) 0.006(2) -0.0044(19) 0.003(2)
C1 0.102(5) 0.046(4) 0.031(3) 0.002(3) 0.023(3) 0.012(3)
C2 0.044(3) 0.032(3) 0.030(3) 0.003(2) 0.007(2) 0.001(2)
C3 0.043(3) 0.037(3) 0.027(3) 0.006(2) 0.006(2) -0.004(3)
C4 0.053(4) 0.041(3) 0.037(3) 0.002(3) 0.004(2) 0.007(3)
C5 0.051(4) 0.039(3) 0.060(4) 0.001(3) 0.004(3) -0.002(3)
C6 0.128(6) 0.042(4) 0.082(5) -0.010(3) 0.046(5) -0.003(4)
C7 0.138(6) 0.027(3) 0.079(5) -0.010(3) 0.052(5) 0.009(4)
C8 0.138(7) 0.039(4) 0.101(6) 0.002(4) 0.001(5) 0.009(4)
C9 0.103(6) 0.048(4) 0.084(5) 0.025(4) 0.014(4) -0.005(4)
C10 0.065(4) 0.042(3) 0.039(3) 0.007(3) 0.021(3) 0.017(3)
C11 0.027(3) 0.041(3) 0.033(3) 0.005(2) 0.004(2) -0.003(2)
C12 0.036(3) 0.030(3) 0.025(3) 0.010(2) 0.005(2) 0.002(2)
C13 0.042(3) 0.041(3) 0.039(3) 0.011(2) 0.009(3) 0.007(3)
C14 0.060(4) 0.028(3) 0.053(3) 0.004(2) 0.015(3) 0.015(3)
C15 0.111(6) 0.079(5) 0.083(5) 0.016(4) 0.040(4) 0.028(4)
C16 0.121(6) 0.041(4) 0.076(5) 0.016(3) 0.042(4) 0.057(4)
C17 0.142(7) 0.033(4) 0.110(6) 0.010(4) -0.001(5) 0.009(4)
C18 0.080(5) 0.042(4) 0.068(4) 0.013(3) -0.001(3) 0.009(3)
O1 0.039(2) 0.075(3) 0.036(2) -0.017(2) 0.0086(18) -0.0016(18)
O2 0.150(5) 0.046(3) 0.061(3) 0.016(2) 0.047(3) 0.014(3)
Co2F 0.0337 0.0381 0.0307 -0.0098 -0.0025 0.0015
N1F 0.042 0.058 0.023 -0.007 0.002 0.002
N2F 0.026 0.037 0.027 -0.0068 0.0025 0.0059
N3F 0.038 0.109 0.036 -0.024 -0.009 0.007
N4F 0.032 0.043 0.034 -0.0087 -0.0018 -0.005
N5F 0.041 0.055 0.039 -0.02 -0.001 -0.01
N6F 0.04 0.047 0.039 -0.017 -0.003 -0.003
N7F 0.041 0.065 0.054 -0.014 -0.017 -0.002
N8F 0.038 0.033 0.032 -0.002 -0.0031 0.0014
N9F 0.035 0.036 0.031 -0.002 -0.0001 0.001
N10F 0.041 0.064 0.038 -0.029 -0.008 0.006
N11F 0.035 0.056 0.038 -0.018 -0.0069 0.007
N12F 0.039 0.054 0.05 -0.014 -0.003 0.011
N13F 0.033 0.028 0.032 -0.0052 -0.0022 0.0042
N14F 0.038 0.047 0.041 0.0044 -0.006 0.003
C1F 0.046 0.102 0.031 -0.023 -0.002 0.012
C2F 0.032 0.044 0.03 -0.007 -0.003 0.001
C3F 0.037 0.043 0.027 -0.006 -0.006 -0.004
C4F 0.041 0.053 0.037 -0.004 -0.002 0.007
C5F 0.039 0.051 0.06 -0.004 -0.001 -0.002
C6F 0.042 0.128 0.082 -0.046 0.01 -0.003
C7F 0.027 0.138 0.079 -0.052 0.01 0.009
C8F 0.039 0.138 0.101 -0.001 -0.002 0.009
C9F 0.048 0.103 0.084 -0.014 -0.025 -0.005
C10F 0.042 0.065 0.039 -0.021 -0.007 0.017
C11F 0.041 0.027 0.033 -0.004 -0.005 -0.003
C12F 0.03 0.036 0.025 -0.005 -0.01 0.002
C13F 0.041 0.042 0.039 -0.009 -0.011 0.007
C14F 0.028 0.06 0.053 -0.015 -0.004 0.015
C15F 0.079 0.111 0.083 -0.04 -0.016 0.028
C16F 0.041 0.121 0.076 -0.042 -0.016 0.057
C17F 0.033 0.142 0.11 0.001 -0.01 0.009
C18F 0.042 0.08 0.068 0.001 -0.013 0.009
O1F 0.075 0.039 0.036 -0.0086 0.017 -0.0016
O2G 0.046 0.15 0.061 0.047 0.016 0.014
Co2B 0.0337 0.0381 0.0307 0.0098 -0.0025 -0.0015
Co2E 0.0381 0.0337 0.0307 0.0025 -0.0098 -0.0015
Co3A 0.0495 0.0495 0.0443 -0.0159 -0.0159 0.0033
N6G 0.04 0.047 0.039 0.017 0.003 -0.003
N7G 0.041 0.065 0.054 0.014 0.017 -0.002
N13C 0.033 0.028 0.032 -0.0052 0.0022 -0.0042
N13D 0.028 0.033 0.032 -0.0022 0.0052 -0.0042
N14C 0.038 0.047 0.041 0.0044 0.006 -0.003
N14D 0.047 0.038 0.041 -0.006 -0.0044 -0.003
O3 0.270(9) 0.270(9) 0.334(16) 0.056(8) 0.056(8) -0.054(12)
O4 0.344(12) 0.393(13) 0.246(9) -0.187(9) -0.082(9) 0.236(11)
loop_
_geom_bond_atom_site_label_1
_geom_bond_atom_site_label_2
_geom_bond_site_symmetry_1
_geom_bond_site_symmetry_2
Co1 N2 1_555 1_555
Co2 N1 1_555 1_555
Co3 N6 1_555 1_555
N1 N2 1_555 1_555
N2 C2 1_555 1_555
N3 C1 1_555 1_555
N4 Co1 1_555 1_555
N5 N4 1_555 1_555
N6 C3 1_555 1_555
N7 Co3 1_555 1_555
N8 Co2 1_555 1_555
N9 Co1 1_555 1_555
N10 C10 1_555 1_555
N11 Co2 1_555 1_555
N12 N11 1_555 1_555
N13 C12 1_555 1_555
N14 C14 1_555 1_555
C1 N1 1_555 1_555
H1 C1 1_555 1_555
C2 N3 1_555 1_555
C3 N4 1_555 1_555
C4 N5 1_555 1_555
C5 N7 1_555 1_555
C6 C5 1_555 1_555
H2 C6 1_555 1_555
C7 C6 1_555 1_555
H3 C7 1_555 1_555
C8 C7 1_555 1_555
H4 C8 1_555 1_555
C9 N7 1_555 1_555
H5 C9 1_555 1_555
C10 N9 1_555 1_555
H6 C10 1_555 1_555
C11 N8 1_555 1_555
C12 N11 1_555 1_555
C13 N12 1_555 1_555
C14 C13 1_555 1_555
C15 C14 1_555 1_555
H7 C15 1_555 1_555
C16 C15 1_555 1_555
H8 C16 1_555 1_555
C17 C16 1_555 1_555
H9 C17 1_555 1_555
C18 N14 1_555 1_555
H10 C18 1_555 1_555
O1 Co2 1_555 1_555
H11 O1 1_555 1_555
H12 O1 1_555 1_555
O2 Co3 1_555 1_555
H13 O2 1_555 1_555
H14 O2 1_555 1_555
Co2F N1F 1_555 1_555
N1F N2F 1_555 1_555
N2F Co1 1_555 1_555
N3F C1F 1_555 1_555
N4F Co1 1_555 1_555
N5F N4F 1_555 1_555
N6F C3F 1_555 1_555
N7F C5F 1_555 1_555
N8F Co2F 1_555 1_555
N9F Co1 1_555 1_555
N10F C10F 1_555 1_555
N11F Co2F 1_555 1_555
N12F N11F 1_555 1_555
N13F C12F 1_555 1_555
N14F C14F 1_555 1_555
C1F N1F 1_555 1_555
H1F C1F 1_555 1_555
C2F N2F 1_555 1_555
C3F N4F 1_555 1_555
C4F N5F 1_555 1_555
C5F C4F 1_555 1_555
C6F C5F 1_555 1_555
H2F C6F 1_555 1_555
C7F C6F 1_555 1_555
H3F C7F 1_555 1_555
C8F C7F 1_555 1_555
H4F C8F 1_555 1_555
C9F N7F 1_555 1_555
H5F C9F 1_555 1_555
C10F N9F 1_555 1_555
H6F C10F 1_555 1_555
C11F N8F 1_555 1_555
C12F N11F 1_555 1_555
C13F N12F 1_555 1_555
C14F C13F 1_555 1_555
C15F C14F 1_555 1_555
H7F C15F 1_555 1_555
C16F C15F 1_555 1_555
H8F C16F 1_555 1_555
C17F C16F 1_555 1_555
H9F C17F 1_555 1_555
C18F N14F 1_555 1_555
H10F C18F 1_555 1_555
O1F Co2F 1_555 1_555
H11F O1F 1_555 1_555
H12F O1F 1_555 1_555
O2G Co3 1_555 1_555
H13G O2G 1_555 1_555
H14G O2G 1_555 1_555
Co2B N13 1_555 1_555
Co2E N13F 1_555 1_555
Co3A N6F 1_555 1_555
N6G Co3 1_555 1_555
N7G Co3 1_555 1_555
N13C Co2 1_555 1_555
N13D Co2F 1_555 1_555
N14C Co2 1_555 1_555
N14D Co2F 1_555 1_555
N6 C4 1_555 1_555
N8 N9 1_555 1_555
N10 C11 1_555 1_555
N13 C13 1_555 1_555
N14 Co2B 1_555 1_555
C2 C3 1_555 1_555
C4 C5 1_555 1_555
C8 C9 1_555 1_555
C11 C12 1_555 1_555
C17 C18 1_555 1_555
N3F C2F 1_555 1_555
N6F C4F 1_555 1_555
N7F Co3A 1_555 1_555
N8F N9F 1_555 1_555
N10F C11F 1_555 1_555
N13F C13F 1_555 1_555
N14F Co2E 1_555 1_555
C2F C3F 1_555 1_555
C8F C9F 1_555 1_555
C11F C12F 1_555 1_555
C17F C18F 1_555 1_555

#END
