
#######################################################################
#
#                 Cambridge Crystallographic Data Centre
#                                CCDC 
#
#######################################################################
#
# If this CIF has been generated from an entry in the Cambridge 
# Structural Database, then it will include bibliographic, chemical, 
# crystal, experimental, refinement or atomic coordinate data resulting 
# from the CCDC's data processing and validation procedures.
#
#######################################################################

data_HAZNON
_chemical_formula_moiety         '(C28 H22 Br4 Cd2 N4 O11)n'
_symmetry_cell_setting           monoclinic
_symmetry_space_group_name_H-M   'C 2/c'
_symmetry_Int_Tables_number      15
_space_group_name_Hall           '-C 2yc'
loop_
_symmetry_equiv_pos_site_id
_symmetry_equiv_pos_as_xyz
1 x,y,z
2 -x,y,1/2-z
3 1/2+x,1/2+y,z
4 1/2-x,1/2+y,1/2-z
5 -x,-y,-z
6 x,-y,1/2+z
7 1/2-x,1/2-y,-z
8 1/2+x,1/2-y,1/2+z
_cell_length_a                   15.2993(8)
_cell_length_b                   17.7292(10)
_cell_length_c                   14.7332(8)
_cell_angle_alpha                90
_cell_angle_beta                 120.1640(10)
_cell_angle_gamma                90
_cell_volume                     3455.16
loop_
_atom_site_label
_atom_site_type_symbol
_atom_site_fract_x
_atom_site_fract_y
_atom_site_fract_z
Cd1 Cd 0.59779(2) 0.378127(16) 0.21250(2)
Br1 Br 0.07766(4) 0.38971(3) -0.31857(4)
Br2 Br 0.33129(5) 0.35517(4) -0.38533(4)
O1 O 0.4601(2) 0.45781(18) 0.1329(2)
O2 O 0.3158(2) 0.41352(17) 0.1154(2)
O3 O 0.4208(3) 0.24070(18) 0.0684(2)
O4 O 0.5146(2) 0.32605(18) 0.0434(2)
O5 O 0.5000 0.3000(2) 0.2500
H1 H 0.4670 0.2751 0.1933
N1 N 0.3206(2) 0.5318(2) -0.1701(2)
N2 N 0.2287(2) 0.2103(2) -0.2427(2)
C1 C 0.3587(3) 0.5140(2) -0.0689(3)
H2 H 0.4173 0.5382 -0.0193
C2 C 0.3152(3) 0.4614(2) -0.0346(3)
C3 C 0.2285(3) 0.4245(2) -0.1082(3)
H3 H 0.1963 0.3896 -0.0878
C4 C 0.1911(3) 0.4412(3) -0.2132(3)
C5 C 0.2378(3) 0.4950(2) -0.2414(3)
H4 H 0.2111 0.5062 -0.3121
C6 C 0.3681(3) 0.4426(2) 0.0811(3)
C7 C 0.2943(3) 0.2215(2) -0.1407(3)
H5 H 0.2856 0.1946 -0.0917
C8 C 0.3747(3) 0.2714(2) -0.1049(3)
C9 C 0.3868(3) 0.3126(3) -0.1769(3)
H6 H 0.4388 0.3476 -0.1556
C10 C 0.3193(3) 0.3004(3) -0.2813(3)
C11 C 0.2417(3) 0.2497(3) -0.3128(3)
H7 H 0.1972 0.2426 -0.3841
C12 C 0.4428(3) 0.2800(2) 0.0121(3)
Cd1A Cd 0.40221(2) 0.378127(16) 0.28750(2)
Cd1D Cd 0.40221(2) 0.621873(16) -0.21250(2)
Cd1G Cd 0.09779(2) 0.121873(16) -0.28750(2)
Cd1E Cd 0.59779(2) 0.621873(16) 0.71250(2)
Cd1G_2 Cd 1.09779(2) 0.121873(16) 0.71250(2)
Br1A Br 0.92234(4) 0.38971(3) 0.81857(4)
Br2G Br 0.83129(5) 0.14483(4) 0.11467(4)
O1A O 0.5399(2) 0.45781(18) 0.3671(2)
O2A O 0.6842(2) 0.41352(17) 0.3846(2)
O3G O 0.9208(3) 0.25930(18) 0.5684(2)
O4G O 1.0146(2) 0.17395(18) 0.5434(2)
O4A O 0.4854(2) 0.32605(18) 0.4566(2)
H1A H 0.5330 0.2751 0.3067
N1A N 0.6794(2) 0.5318(2) 0.6701(2)
N1D N 0.6794(2) 0.4682(2) 0.1701(2)
N1E N 0.3206(2) 0.4682(2) 0.3299(2)
N2G N 0.7287(2) 0.2897(2) 0.2573(2)
N2F N 0.2713(2) 0.2897(2) 0.2427(2)
C1A C 0.6413(3) 0.5140(2) 0.5689(3)
H2A H 0.5827 0.5382 0.5193
C2A C 0.6848(3) 0.4614(2) 0.5346(3)
C3A C 0.7715(3) 0.4245(2) 0.6082(3)
H3A H 0.8037 0.3896 0.5878
C4A C 0.8089(3) 0.4412(3) 0.7132(3)
C5A C 0.7622(3) 0.4950(2) 0.7414(3)
H4A H 0.7889 0.5062 0.8121
C6A C 0.6319(3) 0.4426(2) 0.4189(3)
C7G C 0.7943(3) 0.2785(2) 0.3593(3)
H5G H 0.7856 0.3054 0.4083
C8G C 0.8747(3) 0.2286(2) 0.3951(3)
C9G C 0.8868(3) 0.1874(3) 0.3231(3)
H6G H 0.9388 0.1524 0.3444
C10G C 0.8193(3) 0.1996(3) 0.2187(3)
C11G C 0.7417(3) 0.2503(3) 0.1872(3)
H7G H 0.6972 0.2574 0.1159
C12G C 0.9428(3) 0.2200(2) 0.5121(3)
O6 O 0.4211(5) 0.1176(4) 0.7694(7)
C13 C 0.4097(10) 0.1120(10) 0.6673(10)
H8 H 0.3822 0.0624 0.6407
H9 H 0.3580 0.1481 0.6231
C14 C 0.5179(10) 0.1213(12) 0.8483(13)
H10 H 0.5268 0.1704 0.8809
H11 H 0.5254 0.0842 0.9001
O6A O 0.5789(5) 0.1176(4) 0.7306(7)
C13A C 0.5903(10) 0.1120(10) 0.8327(10)
H8A H 0.6178 0.0624 0.8593
H9A H 0.6420 0.1481 0.8769
C14A C 0.4821(10) 0.1213(12) 0.6517(13)
H10A H 0.4732 0.1704 0.6191
H11A H 0.4746 0.0842 0.5999
loop_
_geom_bond_atom_site_label_1
_geom_bond_atom_site_label_2
_geom_bond_site_symmetry_1
_geom_bond_site_symmetry_2
Cd1 O1 1_555 1_555
Br1 C4 1_555 1_555
Br2 C10 1_555 1_555
O1 C6 1_555 1_555
O2 C6 1_555 1_555
O3 C12 1_555 1_555
O4 Cd1 1_555 1_555
O5 Cd1 1_555 1_555
H1 O5 1_555 1_555
O6 C13 1_555 1_555
N1 C1 1_555 1_555
N2 C7 1_555 1_555
C1 H2 1_555 1_555
C2 C1 1_555 1_555
C3 C2 1_555 1_555
H3 C3 1_555 1_555
C4 C3 1_555 1_555
C5 N1 1_555 1_555
H4 C5 1_555 1_555
C6 C2 1_555 1_555
C7 H5 1_555 1_555
C8 C7 1_555 1_555
C9 C8 1_555 1_555
H6 C9 1_555 1_555
C10 C9 1_555 1_555
C11 N2 1_555 1_555
H7 C11 1_555 1_555
C12 O4 1_555 1_555
C13 H8 1_555 1_555
H9 C13 1_555 1_555
C14 O6 1_555 1_555
H10 C14 1_555 1_555
H11 C14 1_555 1_555
Cd1A O2 1_555 1_555
Cd1D N1 1_555 1_555
Cd1G N2 1_555 1_555
Cd1E N1A 1_555 1_555
Cd1G_2 O4G 1_555 1_555
Br1A C4A 1_555 1_555
Br2G C10G 1_555 1_555
O1A Cd1A 1_555 1_555
O2A Cd1 1_555 1_555
O3G C12G 1_555 1_555
O4G C12G 1_555 1_555
O4A Cd1A 1_555 1_555
H1A O5 1_555 1_555
O6A C13A 1_555 1_555
N1A C1A 1_555 1_555
N1D Cd1 1_555 1_555
N1E Cd1A 1_555 1_555
N2G Cd1 1_555 1_555
N2F Cd1A 1_555 1_555
C1A H2A 1_555 1_555
C2A C1A 1_555 1_555
C3A C2A 1_555 1_555
H3A C3A 1_555 1_555
C4A C3A 1_555 1_555
C5A N1A 1_555 1_555
H4A C5A 1_555 1_555
C6A O1A 1_555 1_555
C7G N2G 1_555 1_555
H5G C7G 1_555 1_555
C8G C7G 1_555 1_555
C9G C8G 1_555 1_555
H6G C9G 1_555 1_555
C10G C9G 1_555 1_555
C11G N2G 1_555 1_555
H7G C11G 1_555 1_555
C12G C8G 1_555 1_555
C13A C14 1_555 1_555
H8A C13A 1_555 1_555
H9A C13A 1_555 1_555
C14A C13 1_555 1_555
H10A C14A 1_555 1_555
H11A C14A 1_555 1_555
O5 Cd1A 1_555 1_555
C4 C5 1_555 1_555
C8 C12 1_555 1_555
C10 C11 1_555 1_555
O2A C6A 1_555 1_555
O6A C14A 1_555 1_555
C2A C6A 1_555 1_555
C4A C5A 1_555 1_555
C10G C11G 1_555 1_555

#END
