
#######################################################################
#
#                 Cambridge Crystallographic Data Centre
#                                CCDC 
#
#######################################################################
#
# If this CIF has been generated from an entry in the Cambridge 
# Structural Database, then it will include bibliographic, chemical, 
# crystal, experimental, refinement or atomic coordinate data resulting 
# from the CCDC's data processing and validation procedures.
#
#######################################################################

data_NEKMUN
_chemical_formula_moiety         '(C38 H35 Co2 N1 O14)n'
_symmetry_cell_setting           monoclinic
_symmetry_space_group_name_H-M   'P 21/c'
_symmetry_Int_Tables_number      14
_space_group_name_Hall           '-P 2ybc'
loop_
_symmetry_equiv_pos_site_id
_symmetry_equiv_pos_as_xyz
1 x,y,z
2 -x,1/2+y,1/2-z
3 -x,-y,-z
4 x,1/2-y,1/2+z
_cell_length_a                   19.936(5)
_cell_length_b                   10.251(4)
_cell_length_c                   17.910(5)
_cell_angle_alpha                90
_cell_angle_beta                 94.734(2)
_cell_angle_gamma                90
_cell_volume                     3647.67
loop_
_atom_site_label
_atom_site_type_symbol
_atom_site_fract_x
_atom_site_fract_y
_atom_site_fract_z
Co1 Co 0.85554(2) 0.25313(5) -0.06492(3)
Co2 Co 0.75209(2) 0.45256(5) -0.16475(3)
O1 O 0.77057(13) 0.2561(3) -0.01211(15)
O2 O 0.69552(12) 0.3653(3) -0.08909(14)
O3 O 0.70467(12) 0.1128(3) 0.23735(14)
O4 O 0.59436(13) 0.1166(3) 0.25543(16)
O5 O 0.48205(12) 0.3556(2) 0.03765(14)
O6 O 0.41492(14) 0.4558(3) 0.14499(17)
O7 O 0.31088(12) 0.3837(2) 0.15873(14)
O8 O 0.90395(12) 0.1206(2) 0.00233(13)
O9 O 0.83788(13) 0.0327(3) -0.08805(14)
O10 O 0.81129(13) -0.4495(3) -0.08460(15)
O11 O 0.89248(13) -0.5740(2) -0.02645(14)
O12 O 1.03797(12) -0.2482(2) 0.12392(13)
O13 O 1.17173(12) -0.3088(2) 0.17075(13)
O14 O 1.16099(13) -0.4822(3) 0.24049(14)
C1 C 0.71398(19) 0.3062(4) -0.0297(2)
C2 C 0.66187(19) 0.2916(4) 0.0273(2)
C3 C 0.59636(19) 0.3345(4) 0.0079(2)
H1 H 0.5855 0.3759 -0.0377
C4 C 0.54762(18) 0.3142(4) 0.0579(2)
C5 C 0.56315(19) 0.2539(4) 0.1263(2)
H2 H 0.5299 0.2416 0.1590
C6 C 0.62873(19) 0.2116(4) 0.1460(2)
C7 C 0.6784(2) 0.2300(4) 0.0953(2)
H3 H 0.7221 0.2009 0.1073
C8 C 0.64421(19) 0.1405(4) 0.2190(2)
C9 C 0.43423(19) 0.2579(4) 0.0359(2)
C10 C 0.4427(2) 0.1471(4) -0.0072(2)
H4 H 0.4823 0.1360 -0.0305
C11 C 0.3929(2) 0.0538(4) -0.0154(2)
H5 H 0.3998 -0.0216 -0.0427
C12 C 0.3328(2) 0.0713(4) 0.0165(2)
H6 H 0.2985 0.0099 0.0093
C13 C 0.32424(19) 0.1811(4) 0.0594(2)
H7 H 0.2835 0.1937 0.0802
C14 C 0.37536(19) 0.2740(4) 0.0722(2)
C15 C 0.36532(19) 0.3797(4) 0.1282(2)
C16 C 0.87883(18) 0.0203(4) -0.0323(2)
C17 C 0.90295(18) -0.1101(4) -0.0040(2)
C18 C 0.95606(18) -0.1178(4) 0.0507(2)
H8 H 0.9756 -0.0425 0.0717
C19 C 0.97956(18) -0.2398(4) 0.0738(2)
C20 C 0.95113(19) -0.3538(4) 0.0449(2)
H9 H 0.9678 -0.4346 0.0612
C21 C 0.89708(18) -0.3453(4) -0.0091(2)
C22 C 0.87384(18) -0.2238(4) -0.0338(2)
H10 H 0.8383 -0.2185 -0.0707
C23 C 0.86415(19) -0.4655(4) -0.0429(2)
C24 C 1.02929(19) -0.2496(4) 0.2006(2)
C25 C 0.97593(18) -0.1879(4) 0.2305(2)
H11 H 0.9443 -0.1426 0.1994
C26 C 0.96995(19) -0.1941(4) 0.3071(2)
H12 H 0.9338 -0.1534 0.3270
C27 C 1.0167(2) -0.2597(4) 0.3543(2)
H13 H 1.0122 -0.2630 0.4055
C28 C 1.07138(19) -0.3216(4) 0.3237(2)
H14 H 1.1031 -0.3664 0.3549
C29 C 1.07813(18) -0.3158(4) 0.2469(2)
C30 C 1.13912(19) -0.3755(4) 0.2178(2)
H35 H 0.416(3) 0.506(7) 0.184(4)
Co1_2 Co 0.85554(2) -0.74687(5) -0.06492(3)
Co1B Co 1.14446(2) -0.25313(5) 0.06492(3)
Co2C Co 0.75209(2) 0.04744(5) 0.33525(3)
Co2B Co 0.24791(2) 0.54744(5) 0.16475(3)
Co2_2 Co 0.75209(2) -0.54744(5) -0.16475(3)
Co2B_2 Co 1.24791(2) -0.45256(5) 0.16475(3)
O3C O 0.70467(12) 0.3872(3) -0.26265(14)
O7B O 0.68912(12) 0.6163(2) -0.15873(14)
O10_2 O 0.81129(13) 0.5505(3) -0.08460(15)
O11_2 O 0.89248(13) 0.4260(2) -0.02645(14)
O12B O 0.96203(12) 0.2482(2) -0.12392(13)
O13B O 0.82827(12) 0.3088(2) -0.17075(13)
O14B O 0.83901(13) 0.4822(3) -0.24049(14)
N1 N 0.74258(16) 0.6063(3) 0.19737(18)
C31 C 0.7927(2) 0.5166(4) 0.1643(3)
H15 H 0.7985 0.5448 0.1136
H16 H 0.7741 0.4292 0.1616
C32 C 0.8613(2) 0.5115(5) 0.2078(3)
H17 H 0.8804 0.5975 0.2108
H18 H 0.8904 0.4544 0.1828
H19 H 0.8566 0.4793 0.2575
C33 C 0.7677(2) 0.7460(4) 0.2027(2)
H20 H 0.7326 0.8000 0.2209
H21 H 0.8061 0.7495 0.2396
C34 C 0.7882(2) 0.8040(5) 0.1307(2)
H22 H 0.8277 0.7606 0.1162
H23 H 0.7975 0.8953 0.1378
H24 H 0.7522 0.7932 0.0920
C35 C 0.7314(2) 0.5669(4) 0.2771(2)
H25 H 0.7010 0.6295 0.2970
H26 H 0.7740 0.5728 0.3071
C36 C 0.7028(2) 0.4307(4) 0.2864(2)
H27 H 0.6579 0.4268 0.2626
H28 H 0.7019 0.4114 0.3387
H29 H 0.7305 0.3680 0.2636
C37 C 0.6775(2) 0.5966(5) 0.1468(2)
H30 H 0.6859 0.6285 0.0975
H31 H 0.6652 0.5053 0.1417
C38 C 0.6186(3) 0.6707(6) 0.1737(3)
H32 H 0.6102 0.6412 0.2229
H33 H 0.5794 0.6557 0.1400
H34 H 0.6288 0.7622 0.1753
loop_
_geom_bond_atom_site_label_1
_geom_bond_atom_site_label_2
_geom_bond_site_symmetry_1
_geom_bond_site_symmetry_2
Co1 O1 1_555 1_555
Co2 O2 1_555 1_555
O1 C1 1_555 1_555
O2 C1 1_555 1_555
O3 C8 1_555 1_555
O4 C8 1_555 1_555
O5 C4 1_555 1_555
O6 C15 1_555 1_555
O7 C15 1_555 1_555
O8 Co1 1_555 1_555
O9 Co1 1_555 1_555
O10 C23 1_555 1_555
O11 C23 1_555 1_555
O12 C19 1_555 1_555
O13 C30 1_555 1_555
O14 C30 1_555 1_555
N1 C31 1_555 1_555
C1 C2 1_555 1_555
C2 C3 1_555 1_555
C3 H1 1_555 1_555
C4 C3 1_555 1_555
C5 C4 1_555 1_555
H2 C5 1_555 1_555
C6 C5 1_555 1_555
C7 C2 1_555 1_555
H3 C7 1_555 1_555
C8 C6 1_555 1_555
C9 O5 1_555 1_555
C10 C9 1_555 1_555
H4 C10 1_555 1_555
C11 C10 1_555 1_555
H5 C11 1_555 1_555
C12 C11 1_555 1_555
H6 C12 1_555 1_555
C13 C12 1_555 1_555
H7 C13 1_555 1_555
C14 C9 1_555 1_555
C15 C14 1_555 1_555
C16 O8 1_555 1_555
C17 C16 1_555 1_555
C18 C17 1_555 1_555
H8 C18 1_555 1_555
C19 C18 1_555 1_555
C20 C19 1_555 1_555
H9 C20 1_555 1_555
C21 C20 1_555 1_555
C22 C17 1_555 1_555
H10 C22 1_555 1_555
C23 C21 1_555 1_555
C24 O12 1_555 1_555
C25 C24 1_555 1_555
H11 C25 1_555 1_555
C26 C25 1_555 1_555
H12 C26 1_555 1_555
C27 C26 1_555 1_555
H13 C27 1_555 1_555
C28 C27 1_555 1_555
H14 C28 1_555 1_555
C29 C24 1_555 1_555
C30 C29 1_555 1_555
C31 H15 1_555 1_555
H16 C31 1_555 1_555
C32 C31 1_555 1_555
H17 C32 1_555 1_555
H18 C32 1_555 1_555
H19 C32 1_555 1_555
C33 N1 1_555 1_555
H20 C33 1_555 1_555
H21 C33 1_555 1_555
C34 C33 1_555 1_555
H22 C34 1_555 1_555
H23 C34 1_555 1_555
H24 C34 1_555 1_555
C35 N1 1_555 1_555
H25 C35 1_555 1_555
H26 C35 1_555 1_555
C36 C35 1_555 1_555
H27 C36 1_555 1_555
H28 C36 1_555 1_555
H29 C36 1_555 1_555
C37 N1 1_555 1_555
H30 C37 1_555 1_555
H31 C37 1_555 1_555
C38 C37 1_555 1_555
H32 C38 1_555 1_555
H33 C38 1_555 1_555
H34 C38 1_555 1_555
H35 O6 1_555 1_555
Co1_2 O11 1_555 1_555
Co1B O12 1_555 1_555
Co2C O3 1_555 1_555
Co2B O7 1_555 1_555
Co2_2 O10 1_555 1_555
Co2B_2 O13 1_555 1_555
O3C Co2 1_555 1_555
O7B Co2 1_555 1_555
O10_2 Co2 1_555 1_555
O11_2 Co1 1_555 1_555
O12B Co1 1_555 1_555
O13B Co1 1_555 1_555
O14B Co2 1_555 1_555
Co2 O13B 1_555 1_555
O9 C16 1_555 1_555
O13 Co1B 1_555 1_555
O14 Co2B_2 1_555 1_555
C6 C7 1_555 1_555
C13 C14 1_555 1_555
C21 C22 1_555 1_555
C28 C29 1_555 1_555

#END
