
#######################################################################
#
#                 Cambridge Crystallographic Data Centre
#                                CCDC 
#
#######################################################################
#
# If this CIF has been generated from an entry in the Cambridge 
# Structural Database, then it will include bibliographic, chemical, 
# crystal, experimental, refinement or atomic coordinate data resulting 
# from the CCDC's data processing and validation procedures.
#
#######################################################################

data_SOPLEQ
_chemical_formula_moiety         '(C89 H73 N11 O23 Zn4)n'
_symmetry_cell_setting           monoclinic
_symmetry_space_group_name_H-M   'P 21/c'
_symmetry_Int_Tables_number      14
_space_group_name_Hall           '-P 2ybc'
loop_
_symmetry_equiv_pos_site_id
_symmetry_equiv_pos_as_xyz
1 x,y,z
2 -x,1/2+y,1/2-z
3 -x,-y,-z
4 x,1/2-y,1/2+z
_cell_length_a                   19.7220(5)
_cell_length_b                   28.0588(6)
_cell_length_c                   28.0835(4)
_cell_angle_alpha                90
_cell_angle_beta                 94.423(2)
_cell_angle_gamma                90
_cell_volume                     15494.4
loop_
_atom_site_label
_atom_site_type_symbol
_atom_site_fract_x
_atom_site_fract_y
_atom_site_fract_z
Zn1 Zn 0.39004(3) 0.24642(2) 0.16131(2)
Zn2 Zn 0.39189(3) 0.24935(2) 0.05708(2)
Zn3 Zn 0.89337(3) 0.75258(2) 0.15309(2)
Zn4 Zn 0.88477(3) 0.74817(2) 0.04834(2)
O1 O 0.3068(2) 0.20520(15) 0.14656(13)
O2 O 0.3050(2) 0.21146(13) 0.06738(13)
O3 O 0.4475(2) 0.18796(14) 0.14934(14)
O4 O 0.4432(2) 0.18774(14) 0.06950(13)
O5 O 0.3313(2) 0.30476(13) 0.14299(13)
O6 O 0.3407(2) 0.31164(13) 0.06481(13)
O7 O 0.4707(2) 0.28936(16) 0.15687(14)
O8 O 0.4782(2) 0.28684(15) 0.07873(14)
O9 O 0.8380(3) 0.69299(15) 0.13720(14)
O10 O 0.8269(2) 0.68867(13) 0.05810(13)
O11 O 0.8084(2) -0.20850(15) 0.13624(14)
O12 O 0.8016(2) -0.21098(13) 0.05702(13)
O13 O -0.0528(3) -0.18811(16) 0.14193(15)
O14 O -0.0583(2) -0.19214(15) 0.06318(14)
O15 O -0.0232(3) 0.71247(18) 0.14552(15)
O16 O -0.0326(2) 0.70642(15) 0.06689(14)
O17 O 0.0366(5) 0.0466(3) 0.0498(3)
O18 O 0.5293(4) -0.0506(3) 0.0471(3)
O19 O 0.1910(5) 0.5235(4) 0.1812(4)
O20 O 0.6932(3) 0.4791(2) 0.1859(2)
N1 N 0.3896(2) 0.24709(14) 0.23362(14)
N2 N 0.3923(2) 0.24925(15) 0.48484(14)
N3 N 0.8903(2) 0.75177(16) 0.22482(14)
N4 N 0.8868(2) 0.75200(15) 0.47586(14)
N5 N 0.0946(5) 0.0119(4) 0.1082(4)
H1 H 0.1282 0.0132 0.1307
N6 N 0.5842(5) -0.0165(3) 0.1134(3)
H2 H 0.6105 -0.0218 0.1396
N7 N 0.1912(4) 0.5090(3) 0.1008(3)
H3 H 0.1826 0.5202 0.0717
N8 N 0.6723(4) 0.4963(3) 0.1087(3)
H4 H 0.6516 0.4869 0.0815
C1 C 0.3318(3) 0.2476(2) 0.25572(19)
H5 H 0.2898 0.2470 0.2367
C2 C 0.3301(3) 0.2488(2) 0.30489(19)
H6 H 0.2880 0.2495 0.3192
C3 C 0.3908(3) 0.2491(2) 0.33269(17)
C4 C 0.4511(3) 0.2484(3) 0.3103(2)
H7 H 0.4938 0.2484 0.3286
C5 C 0.4481(3) 0.2476(2) 0.26110(19)
H8 H 0.4896 0.2473 0.2460
C6 C 0.3439(3) 0.2271(2) 0.45787(18)
H9 H 0.3090 0.2112 0.4732
C7 C 0.3418(3) 0.2259(2) 0.40910(18)
H10 H 0.3063 0.2095 0.3913
C8 C 0.3920(3) 0.2490(2) 0.38592(17)
C9 C 0.4423(3) 0.2727(3) 0.41364(19)
H11 H 0.4775 0.2891 0.3993
C10 C 0.4401(3) 0.2718(3) 0.4622(2)
H12 H 0.4746 0.2883 0.4810
C11 C 0.8636(4) 0.7878(3) 0.2481(2)
H13 H 0.8448 0.8139 0.2300
C12 C 0.8621(4) 0.7889(3) 0.2969(2)
H14 H 0.8427 0.8154 0.3119
C13 C 0.8891(3) 0.7510(2) 0.32412(17)
C14 C 0.9137(5) 0.7141(3) 0.3003(3)
H15 H 0.9323 0.6873 0.3173
C15 C 0.9120(5) 0.7150(3) 0.2506(2)
H16 H 0.9272 0.6877 0.2346
C16 C 0.8355(3) 0.7718(2) 0.44856(18)
H17 H 0.7983 0.7854 0.4633
C17 C 0.8359(3) 0.7726(2) 0.39904(18)
H18 H 0.7998 0.7875 0.3802
C18 C 0.8890(3) 0.7515(2) 0.37719(17)
C19 C 0.9396(3) 0.7296(3) 0.4062(2)
H19 H 0.9758 0.7136 0.3926
C20 C 0.9370(3) 0.7311(3) 0.4546(2)
H20 H 0.9728 0.7165 0.4740
C21 C 0.2844(3) 0.19444(19) 0.10526(19)
C22 C 0.2304(3) 0.1576(2) 0.1008(2)
C23 C 0.2130(4) 0.1330(2) 0.1411(2)
H21 H 0.2336 0.1414 0.1716
C24 C 0.1665(4) 0.0967(3) 0.1373(3)
H22 H 0.1559 0.0797 0.1650
C25 C 0.1341(4) 0.0844(3) 0.0921(3)
C26 C 0.1484(4) 0.1104(3) 0.0523(3)
H23 H 0.1257 0.1035 0.0221
C27 C 0.0865(6) 0.0448(4) 0.0844(4)
C28 C 0.0520(6) -0.0355(3) 0.1049(5)
C29 C 0.1966(3) 0.1468(2) 0.0570(2)
H24 H 0.2064 0.1646 0.0296
C30 C 0.0258(5) -0.0530(4) 0.0619(4)
H25 H 0.0269 -0.0345 0.0336
C31 C -0.0036(4) -0.1004(3) 0.0604(3)
H26 H -0.0190 -0.1144 0.0308
C32 C -0.0088(3) -0.1240(2) 0.1009(3)
C33 C 0.0156(6) -0.1034(3) 0.1428(4)
H27 H 0.0077 -0.1194 0.1717
C34 C 0.0499(9) -0.0622(5) 0.1458(5)
H28 H 0.0720 -0.0518 0.1753
C35 C -0.0426(3) -0.1717(2) 0.1022(2)
C36 C 0.4576(3) 0.1689(2) 0.1096(2)
C37 C 0.4891(4) 0.1203(2) 0.1106(2)
C38 C 0.4966(4) 0.0962(3) 0.0686(3)
H29 H 0.4828 0.1110 0.0390
C39 C 0.5243(4) 0.0504(3) 0.0689(3)
H30 H 0.5272 0.0334 0.0398
C40 C 0.5472(5) 0.0302(3) 0.1116(4)
C41 C 0.5391(6) 0.0542(3) 0.1543(4)
H31 H 0.5536 0.0398 0.1839
C42 C 0.5103(6) 0.0985(3) 0.1532(3)
H32 H 0.5048 0.1146 0.1824
C43 C 0.5831(6) -0.0480(3) 0.0840(4)
C44 C 0.6307(4) -0.0866(3) 0.0905(3)
C45 C 0.6430(4) -0.1119(3) 0.0491(3)
H33 H 0.6182 -0.1046 0.0197
C46 C 0.6911(3) -0.1476(2) 0.0510(2)
H34 H 0.6998 -0.1642 0.0227
C47 C 0.7270(3) -0.15951(19) 0.0937(2)
C48 C 0.7121(4) -0.1364(2) 0.1354(2)
H35 H 0.7347 -0.1452 0.1652
C49 C 0.6640(4) -0.1004(3) 0.1329(3)
H36 H 0.6537 -0.0848 0.1615
C50 C 0.7835(3) -0.19596(18) 0.09596(19)
C51 C 0.3235(3) 0.32692(19) 0.10352(19)
C52 C 0.2894(3) 0.3748(2) 0.1036(2)
C53 C 0.2906(4) 0.4051(2) 0.0654(2)
H37 H 0.3132 0.3951 0.0384
C54 C 0.2603(4) 0.4493(2) 0.0646(3)
H38 H 0.2626 0.4696 0.0377
C55 C 0.2273(4) 0.4633(2) 0.1023(3)
C56 C 0.2254(4) 0.4343(3) 0.1425(3)
H39 H 0.2031 0.4447 0.1695
C57 C 0.2570(4) 0.3893(2) 0.1426(3)
H40 H 0.2558 0.3689 0.1696
C58 C 0.1711(7) 0.5341(4) 0.1312(5)
C59 C 0.1308(6) 0.5774(4) 0.1227(4)
C60 C 0.1015(6) 0.5874(4) 0.0785(5)
H41 H 0.1109 0.5683 0.0519
C61 C 0.0553(5) 0.6280(3) 0.0725(3)
H42 H 0.0336 0.6351 0.0420
C62 C 0.0435(4) 0.6556(2) 0.1109(3)
C63 C 0.0785(6) 0.6444(4) 0.1538(4)
H43 H 0.0736 0.6641 0.1808
C64 C 0.1202(6) 0.6052(5) 0.1583(5)
H44 H 0.1423 0.5982 0.1888
C65 C -0.0078(3) 0.6947(2) 0.1074(2)
C66 C 0.4943(3) 0.3033(2) 0.1195(2)
C67 C 0.5429(3) 0.3448(2) 0.1237(2)
C68 C 0.5508(5) 0.3700(3) 0.1663(3)
H45 H 0.5274 0.3591 0.1926
C69 C 0.5892(6) 0.4085(4) 0.1722(4)
H46 H 0.5940 0.4243 0.2021
C70 C 0.6218(5) 0.4249(3) 0.1346(5)
C71 C 0.6155(4) 0.4018(3) 0.0904(4)
H47 H 0.6378 0.4137 0.0641
C72 C 0.5759(4) 0.3611(3) 0.0858(3)
H48 H 0.5715 0.3444 0.0563
C73 C 0.6681(7) 0.4710(4) 0.1450(4)
C74 C 0.7110(4) 0.5416(3) 0.1101(3)
C75 C 0.7315(4) 0.5675(3) 0.1514(3)
H49 H 0.7220 0.5558 0.1820
C76 C 0.7656(4) 0.6102(2) 0.1474(3)
H50 H 0.7794 0.6278 0.1753
C77 C 0.7797(3) 0.6276(2) 0.1033(2)
C78 C 0.7592(4) 0.6016(2) 0.0629(3)
H51 H 0.7695 0.6127 0.0324
C79 C 0.7231(4) 0.5587(3) 0.0671(3)
H52 H 0.7073 0.5417 0.0391
C80 C 0.8179(3) 0.67314(18) 0.0988(2)
Zn2C Zn 0.39189(3) 0.25065(2) 0.55708(2)
Zn3_2 Zn -0.10663(3) -0.24742(2) 0.15309(2)
Zn3_3 Zn -0.10663(3) 0.75258(2) 0.15309(2)
Zn3_4 Zn 0.89337(3) -0.24742(2) 0.15309(2)
Zn4_2 Zn -0.11523(3) -0.25183(2) 0.04834(2)
Zn4_3 Zn -0.11523(3) 0.74817(2) 0.04834(2)
Zn4_4 Zn 0.88477(3) -0.25183(2) 0.04834(2)
Zn4C Zn 0.88477(3) 0.75183(2) 0.54834(2)
O11_2 O 0.8084(2) 0.79150(15) 0.13624(14)
O12_2 O 0.8016(2) 0.78902(13) 0.05702(13)
O13_2 O 0.9472(3) 0.81189(16) 0.14193(15)
O14_2 O 0.9417(2) 0.80786(15) 0.06318(14)
O15_2 O 0.9768(3) 0.71247(18) 0.14552(15)
O16_2 O 0.9674(2) 0.70642(15) 0.06689(14)
N2C N 0.3923(2) 0.25075(15) -0.01516(14)
N4C N 0.8868(2) 0.74800(15) -0.02414(14)
O21 O 0.6061(3) 0.4900(2) 0.0103(2)
N9 N 0.5898(4) 0.4789(3) -0.0696(3)
C81 C 0.6201(6) 0.4696(4) -0.0243(4)
C82 C 0.6175(7) 0.4534(5) -0.1111(5)
C83 C 0.5423(7) 0.5138(5) -0.0776(5)
O22 O 0.5747(10) 0.1533(7) 0.4649(7)
N10 N 0.4778(5) 0.1307(4) 0.4356(3)
C84 C 0.5287(12) 0.1562(8) 0.4335(8)
C85 C 0.4520(8) 0.1152(6) 0.4811(6)
C86 C 0.4446(8) 0.1198(6) 0.3906(6)
O23 O 0.4826(9) 0.0572(6) 0.2886(6)
N11 N 0.3930(5) 0.0740(3) 0.2484(3)
C87 C 0.4359(9) 0.0467(6) 0.2674(6)
C88 C 0.3846(6) 0.1250(5) 0.2516(4)
C89 C 0.3384(10) 0.0516(7) 0.2202(7)
loop_
_geom_bond_atom_site_label_1
_geom_bond_atom_site_label_2
_geom_bond_site_symmetry_1
_geom_bond_site_symmetry_2
Zn1 O1 1_555 1_555
Zn2 O2 1_555 1_555
Zn3 O9 1_555 1_555
Zn4 O10 1_555 1_555
O1 C21 1_555 1_555
O2 C21 1_555 1_555
O3 Zn1 1_555 1_555
O4 Zn2 1_555 1_555
O5 Zn1 1_555 1_555
O6 Zn2 1_555 1_555
O7 Zn1 1_555 1_555
O8 Zn2 1_555 1_555
O9 C80 1_555 1_555
O10 C80 1_555 1_555
O11 C50 1_555 1_555
O12 C50 1_555 1_555
O13 C35 1_555 1_555
O14 C35 1_555 1_555
O15 C65 1_555 1_555
O16 C65 1_555 1_555
O17 C27 1_555 1_555
O18 C43 1_555 1_555
O19 C58 1_555 1_555
O20 C73 1_555 1_555
N1 Zn1 1_555 1_555
N2 C6 1_555 1_555
N3 Zn3 1_555 1_555
N4 C16 1_555 1_555
N5 H1 1_555 1_555
N6 H2 1_555 1_555
N7 H3 1_555 1_555
N8 H4 1_555 1_555
C1 N1 1_555 1_555
H5 C1 1_555 1_555
C2 C1 1_555 1_555
H6 C2 1_555 1_555
C3 C2 1_555 1_555
C4 C3 1_555 1_555
H7 C4 1_555 1_555
C5 N1 1_555 1_555
H8 C5 1_555 1_555
C6 H9 1_555 1_555
C7 C6 1_555 1_555
H10 C7 1_555 1_555
C8 C3 1_555 1_555
C9 C8 1_555 1_555
H11 C9 1_555 1_555
C10 N2 1_555 1_555
H12 C10 1_555 1_555
C11 N3 1_555 1_555
H13 C11 1_555 1_555
C12 C11 1_555 1_555
H14 C12 1_555 1_555
C13 C12 1_555 1_555
C14 C13 1_555 1_555
H15 C14 1_555 1_555
C15 N3 1_555 1_555
H16 C15 1_555 1_555
C16 H17 1_555 1_555
C17 C16 1_555 1_555
H18 C17 1_555 1_555
C18 C13 1_555 1_555
C19 C18 1_555 1_555
H19 C19 1_555 1_555
C20 N4 1_555 1_555
H20 C20 1_555 1_555
C21 C22 1_555 1_555
C22 C23 1_555 1_555
C23 H21 1_555 1_555
C24 C23 1_555 1_555
H22 C24 1_555 1_555
C25 C24 1_555 1_555
C26 C25 1_555 1_555
H23 C26 1_555 1_555
C27 N5 1_555 1_555
C28 N5 1_555 1_555
C29 C22 1_555 1_555
H24 C29 1_555 1_555
C30 C28 1_555 1_555
H25 C30 1_555 1_555
C31 C30 1_555 1_555
H26 C31 1_555 1_555
C32 C31 1_555 1_555
C33 C32 1_555 1_555
H27 C33 1_555 1_555
C34 C28 1_555 1_555
H28 C34 1_555 1_555
C35 C32 1_555 1_555
C36 O3 1_555 1_555
C37 C36 1_555 1_555
C38 C37 1_555 1_555
H29 C38 1_555 1_555
C39 C38 1_555 1_555
H30 C39 1_555 1_555
C40 N6 1_555 1_555
C41 C40 1_555 1_555
H31 C41 1_555 1_555
C42 C37 1_555 1_555
H32 C42 1_555 1_555
C43 N6 1_555 1_555
C44 C43 1_555 1_555
C45 C44 1_555 1_555
H33 C45 1_555 1_555
C46 C45 1_555 1_555
H34 C46 1_555 1_555
C47 C46 1_555 1_555
C48 C47 1_555 1_555
H35 C48 1_555 1_555
C49 C44 1_555 1_555
H36 C49 1_555 1_555
C50 C47 1_555 1_555
C51 O5 1_555 1_555
C52 C51 1_555 1_555
C53 C52 1_555 1_555
H37 C53 1_555 1_555
C54 C53 1_555 1_555
H38 C54 1_555 1_555
C55 N7 1_555 1_555
C56 C55 1_555 1_555
H39 C56 1_555 1_555
C57 C52 1_555 1_555
H40 C57 1_555 1_555
C58 N7 1_555 1_555
C59 C58 1_555 1_555
C60 C59 1_555 1_555
H41 C60 1_555 1_555
C61 C60 1_555 1_555
H42 C61 1_555 1_555
C62 C61 1_555 1_555
C63 C62 1_555 1_555
H43 C63 1_555 1_555
C64 C59 1_555 1_555
H44 C64 1_555 1_555
C65 C62 1_555 1_555
C66 O7 1_555 1_555
C67 C66 1_555 1_555
C68 C67 1_555 1_555
H45 C68 1_555 1_555
C69 C68 1_555 1_555
H46 C69 1_555 1_555
C70 C69 1_555 1_555
C71 C70 1_555 1_555
H47 C71 1_555 1_555
C72 C67 1_555 1_555
H48 C72 1_555 1_555
C73 N8 1_555 1_555
C74 N8 1_555 1_555
C75 C74 1_555 1_555
H49 C75 1_555 1_555
C76 C75 1_555 1_555
H50 C76 1_555 1_555
C77 C76 1_555 1_555
C78 C77 1_555 1_555
H51 C78 1_555 1_555
C79 C74 1_555 1_555
H52 C79 1_555 1_555
C80 C77 1_555 1_555
O21 C81 1_555 1_555
N9 C81 1_555 1_555
C82 N9 1_555 1_555
C83 N9 1_555 1_555
O22 C84 1_555 1_555
N10 C84 1_555 1_555
C85 N10 1_555 1_555
C86 N10 1_555 1_555
O23 C87 1_555 1_555
N11 C87 1_555 1_555
C88 N11 1_555 1_555
C89 N11 1_555 1_555
Zn2C N2 1_555 1_555
Zn3_2 O13 1_555 1_555
Zn3_3 O15 1_555 1_555
Zn3_4 O11 1_555 1_555
Zn4_2 O14 1_555 1_555
Zn4_3 O16 1_555 1_555
Zn4_4 O12 1_555 1_555
Zn4C N4 1_555 1_555
O11_2 Zn3 1_555 1_555
O12_2 Zn4 1_555 1_555
O13_2 Zn3 1_555 1_555
O14_2 Zn4 1_555 1_555
O15_2 Zn3 1_555 1_555
O16_2 Zn4 1_555 1_555
N2C Zn2 1_555 1_555
N4C Zn4 1_555 1_555
O4 C36 1_555 1_555
O6 C51 1_555 1_555
O8 C66 1_555 1_555
C4 C5 1_555 1_555
C7 C8 1_555 1_555
C9 C10 1_555 1_555
C14 C15 1_555 1_555
C17 C18 1_555 1_555
C19 C20 1_555 1_555
C25 C27 1_555 1_555
C26 C29 1_555 1_555
C33 C34 1_555 1_555
C39 C40 1_555 1_555
C41 C42 1_555 1_555
C48 C49 1_555 1_555
C54 C55 1_555 1_555
C56 C57 1_555 1_555
C63 C64 1_555 1_555
C70 C73 1_555 1_555
C71 C72 1_555 1_555
C78 C79 1_555 1_555

#END
