
#######################################################################
#
#                 Cambridge Crystallographic Data Centre
#                                CCDC 
#
#######################################################################
#
# If this CIF has been generated from an entry in the Cambridge 
# Structural Database, then it will include bibliographic, chemical, 
# crystal, experimental, refinement or atomic coordinate data resulting 
# from the CCDC's data processing and validation procedures.
#
#######################################################################

data_KATDAM
_chemical_formula_moiety         '(C27 H27 Cd1 N5 O8)n'
_symmetry_cell_setting           hexagonal
_symmetry_space_group_name_H-M   'P 61'
_symmetry_Int_Tables_number      169
_space_group_name_Hall           'P 61'
loop_
_symmetry_equiv_pos_site_id
_symmetry_equiv_pos_as_xyz
1 x,y,z
2 x-y,x,1/6+z
3 -y,x-y,1/3+z
4 -x,-y,1/2+z
5 -x+y,-x,2/3+z
6 y,-x+y,5/6+z
_cell_length_a                   21.0747(7)
_cell_length_b                   21.0747(7)
_cell_length_c                   11.2029(5)
_cell_angle_alpha                90
_cell_angle_beta                 90
_cell_angle_gamma                120
_cell_volume                     4309.07
loop_
_atom_site_label
_atom_site_type_symbol
_atom_site_fract_x
_atom_site_fract_y
_atom_site_fract_z
_atom_site_U_iso_or_equiv
_atom_site_thermal_displace_type
Cd1 Cd 0.57100(2) 0.54737(2) 0.06081(4) 0.0438 Uani
O1 O 0.4508(3) 0.4738(3) 0.0057(5) 0.0566 Uani
O2 O 0.4722(2) 0.4553(2) 0.1896(4) 0.0559 Uani
O3 O 0.3741(2) 0.4639(2) 0.3754(4) 0.0517 Uani
O4 O 0.3833(2) 0.3656(2) 0.4095(4) 0.0546 Uani
O5 O 0.1493(5) 0.2505(5) 0.7144(8) 0.1747 Uani
N1 N 0.6380(3) 0.5080(3) 0.1540(4) 0.0481 Uani
N2 N 0.7209(3) 0.4793(3) 0.2058(4) 0.0421 Uani
N3 N 0.6743(3) 0.1161(3) 0.1889(4) 0.0480 Uani
N4 N 0.6312(3) 0.0524(3) 0.0249(4) 0.0479 Uani
N5 N 0.2157(3) 0.2938(3) 0.3663(6) 0.0621 Uani
C1 C 0.4289(3) 0.4421(3) 0.1050(7) 0.0418 Uani
C2 C 0.3634(3) 0.4019(3) 0.3471(5) 0.0433 Uani
C3 C 0.3500(3) 0.3849(3) 0.1211(6) 0.0432 Uani
C4 C 0.3204(3) 0.3669(3) 0.2366(6) 0.0441 Uani
C5 C 0.2467(4) 0.3130(3) 0.2476(7) 0.0568 Uani
C6 C 0.2048(4) 0.2787(4) 0.1498(8) 0.0699 Uani
H7 H 0.1556 0.2435 0.1590 0.0840 Uiso
C7 C 0.2352(4) 0.2960(5) 0.0381(8) 0.0786 Uani
H8 H 0.2073 0.2710 -0.0281 0.0950 Uiso
C8 C 0.3061(4) 0.3497(4) 0.0237(6) 0.0611 Uani
H9 H 0.3254 0.3629 -0.0529 0.0740 Uiso
C9 C 0.2078(5) 0.2341(6) 0.4204(10) 0.1093 Uani
H10 H 0.2181 0.2021 0.3786 0.1310 Uiso
C10 C 0.1845(6) 0.2187(7) 0.5383(13) 0.1248 Uani
H11 H 0.1794 0.1763 0.5732 0.1500 Uiso
C11 C 0.1684(5) 0.2648(8) 0.6068(11) 0.1183 Uani
C12 C 0.1758(6) 0.3253(6) 0.5419(10) 0.1144 Uani
H12 H 0.1635 0.3573 0.5788 0.1380 Uiso
C13 C 0.1995(5) 0.3383(5) 0.4307(9) 0.0888 Uani
H13 H 0.2055 0.3806 0.3943 0.1070 Uiso
C14 C 0.6381(4) 0.5012(4) 0.2769(6) 0.0549 Uani
H14 H 0.6077 0.5077 0.3295 0.0660 Uiso
C15 C 0.6889(4) 0.4838(4) 0.3084(6) 0.0540 Uani
H15 H 0.7001 0.4763 0.3855 0.0660 Uiso
C16 C 0.6895(3) 0.4948(3) 0.1179(5) 0.0449 Uani
H16 H 0.7025 0.4963 0.0382 0.0540 Uiso
C17 C 0.7762(3) 0.4567(3) 0.1979(6) 0.0506 Uani
H17 H 0.8168 0.4875 0.2501 0.0610 Uiso
H18 H 0.7948 0.4643 0.1168 0.0610 Uiso
C18 C 0.7476(3) 0.3789(3) 0.2309(6) 0.0389 Uani
C19 C 0.7942(3) 0.3588(3) 0.2883(5) 0.0411 Uani
H19 H 0.8412 0.3947 0.3101 0.0500 Uiso
C20 C 0.7707(3) 0.2856(3) 0.3128(5) 0.0432 Uani
H20 H 0.8025 0.2731 0.3496 0.0520 Uiso
C21 C 0.7007(3) 0.2312(3) 0.2831(5) 0.0400 Uani
C22 C 0.6540(3) 0.2526(3) 0.2296(6) 0.0453 Uani
H21 H 0.6063 0.2169 0.2108 0.0540 Uiso
C23 C 0.6765(3) 0.3238(3) 0.2047(5) 0.0396 Uani
H22 H 0.6440 0.3359 0.1696 0.0480 Uiso
C24 C 0.6758(4) 0.1519(3) 0.3007(6) 0.0536 Uani
H23 H 0.7085 0.1472 0.3562 0.0640 Uiso
H24 H 0.6271 0.1277 0.3354 0.0640 Uiso
C25 C 0.7321(4) 0.1208(4) 0.1286(7) 0.0618 Uani
H25 H 0.7810 0.1467 0.1518 0.0740 Uiso
C26 C 0.7057(4) 0.0811(4) 0.0296(6) 0.0598 Uani
H26 H 0.7335 0.0740 -0.0276 0.0720 Uiso
C27 C 0.6148(3) 0.0746(3) 0.1243(5) 0.0434 Uani
H27 H 0.5676 0.0626 0.1463 0.0520 Uiso
Cd1C Cd 0.42900(2) 0.45263(2) 0.56081(4) 0.0438 Uani
Cd1E Cd 0.54737(2) -0.02363(3) -0.10586(4) 0.0438 Uani
O3C O 0.6259(2) 0.5361(2) -0.1246(4) 0.0517 Uani
O4C O 0.6167(2) 0.6344(2) -0.0905(4) 0.0546 Uani
N4A N 0.5788(4) 0.6312(3) 0.1916(4) 0.0479 Uani
O6 O 0.4673(3) 0.3155(3) 0.2675(5) 0.0943 Uani
H1 H 0.4428 0.3298 0.3086 0.1410 Uiso
H2 H 0.4936 0.3532 0.2254 0.1410 Uiso
O7 O 0.1094(12) 0.1315(10) 0.8418(15) 0.2162 Uani
H3 H 0.1220 0.1705 0.8026 0.3270 Uiso
H4 H 0.1159 0.1001 0.7959 0.3270 Uiso
O8 O 0.978(4) 0.045(4) 0.687(8) 0.3111 Uani
H5 H 1.0136 0.0676 0.7272 0.4650 Uiso
H6 H 0.9546 0.0006 0.7112 0.4650 Uiso
loop_
_atom_site_aniso_label
_atom_site_aniso_U_11
_atom_site_aniso_U_22
_atom_site_aniso_U_33
_atom_site_aniso_U_23
_atom_site_aniso_U_13
_atom_site_aniso_U_12
Cd1 0.0566(3) 0.0559(3) 0.02989(19) -0.0002(2) 0.0001(2) 0.0363(3)
O1 0.059(3) 0.077(3) 0.035(3) 0.007(3) 0.003(3) 0.035(3)
O2 0.049(2) 0.073(3) 0.037(3) 0.003(2) -0.005(2) 0.024(2)
O3 0.067(3) 0.057(3) 0.039(2) -0.005(2) 0.001(2) 0.037(2)
O4 0.071(3) 0.056(2) 0.041(3) 0.000(2) -0.009(2) 0.035(2)
O5 0.147(7) 0.225(9) 0.104(6) 0.067(7) 0.067(6) 0.057(6)
N1 0.059(3) 0.065(3) 0.031(3) 0.000(3) -0.003(3) 0.039(3)
N2 0.051(3) 0.052(3) 0.033(3) 0.004(2) 0.002(2) 0.033(2)
N3 0.057(3) 0.041(3) 0.044(3) -0.005(2) -0.008(3) 0.023(3)
N4 0.050(3) 0.049(3) 0.041(3) -0.004(2) -0.004(2) 0.022(3)
N5 0.049(3) 0.062(4) 0.073(5) 0.016(3) 0.012(3) 0.026(3)
C1 0.056(4) 0.056(4) 0.028(3) -0.008(3) -0.003(3) 0.039(3)
C2 0.043(4) 0.054(4) 0.030(3) 0.001(3) 0.005(3) 0.022(3)
C3 0.050(4) 0.050(4) 0.039(3) -0.008(3) -0.006(3) 0.032(3)
C4 0.048(3) 0.050(3) 0.043(3) 0.001(3) -0.003(3) 0.031(3)
C5 0.048(4) 0.055(4) 0.065(5) -0.001(4) -0.005(4) 0.024(3)
C6 0.040(4) 0.064(4) 0.083(6) -0.011(5) -0.011(4) 0.009(3)
C7 0.065(5) 0.090(6) 0.077(7) -0.034(5) -0.033(5) 0.036(5)
C8 0.075(5) 0.075(5) 0.042(4) -0.012(3) -0.017(4) 0.044(4)
C9 0.104(7) 0.129(8) 0.116(9) 0.048(7) 0.042(7) 0.074(6)
C10 0.116(9) 0.135(9) 0.121(11) 0.070(9) 0.028(8) 0.061(8)
C11 0.068(6) 0.159(11) 0.087(8) 0.004(9) 0.016(6) 0.026(7)
C12 0.125(8) 0.101(7) 0.082(7) 0.012(6) 0.046(7) 0.030(6)
C13 0.083(6) 0.080(6) 0.089(7) 0.024(5) 0.026(5) 0.030(5)
C14 0.078(5) 0.072(4) 0.034(3) 0.003(3) 0.009(3) 0.052(4)
C15 0.071(4) 0.067(4) 0.034(4) 0.000(3) -0.006(3) 0.042(4)
C16 0.054(4) 0.050(4) 0.032(3) 0.000(3) 0.003(3) 0.027(3)
C17 0.039(3) 0.051(4) 0.061(5) 0.010(3) 0.007(3) 0.022(3)
C18 0.040(3) 0.046(3) 0.034(3) -0.006(3) 0.006(3) 0.024(3)
C19 0.032(3) 0.045(3) 0.046(3) -0.009(3) -0.011(3) 0.019(3)
C20 0.047(4) 0.048(4) 0.035(3) -0.001(3) -0.003(3) 0.024(3)
C21 0.044(3) 0.046(3) 0.024(3) -0.004(3) -0.001(3) 0.018(3)
C22 0.033(3) 0.053(4) 0.032(3) -0.005(3) 0.000(3) 0.008(3)
C23 0.031(3) 0.053(4) 0.036(4) -0.012(3) -0.009(3) 0.022(3)
C24 0.068(4) 0.054(4) 0.030(3) -0.001(3) -0.011(3) 0.024(3)
C25 0.054(4) 0.062(4) 0.068(5) -0.013(4) -0.013(4) 0.028(4)
C26 0.062(5) 0.063(4) 0.062(5) -0.009(4) 0.001(4) 0.037(4)
C27 0.045(4) 0.039(3) 0.037(3) -0.001(3) -0.003(3) 0.014(3)
Cd1C 0.0566 0.0559 0.02989 0.0002 -0.0001 0.0363
Cd1E 0.0559 0.0399 0.02989 -0.0003 -0.0002 0.0196
O3C 0.067 0.057 0.039 0.005 -0.001 0.037
O4C 0.071 0.056 0.041 0 0.009 0.035
N4A 0.055 0.05 0.041 -0.004 6.9276e-19 0.028
O6 0.142(5) 0.103(4) 0.067(4) -0.004(3) -0.011(3) 0.083(4)
O7 0.28(2) 0.147(15) 0.122(15) 0.068(12) -0.011(15) 0.032(16)
O8 0.32(4) 0.31(4) 0.32(4) 0.01(2) -0.01(2) 0.17(2)
loop_
_geom_bond_atom_site_label_1
_geom_bond_atom_site_label_2
_geom_bond_site_symmetry_1
_geom_bond_site_symmetry_2
Cd1 O1 1_555 1_555
O1 C1 1_555 1_555
O2 Cd1 1_555 1_555
O3 C2 1_555 1_555
O4 C2 1_555 1_555
O5 C11 1_555 1_555
O6 H1 1_555 1_555
H2 O6 1_555 1_555
O7 H3 1_555 1_555
H4 O7 1_555 1_555
O8 H5 1_555 1_555
H6 O8 1_555 1_555
N1 Cd1 1_555 1_555
N2 C15 1_555 1_555
N3 C24 1_555 1_555
N4 C26 1_555 1_555
N5 C5 1_555 1_555
C1 O2 1_555 1_555
C2 C4 1_555 1_555
C3 C1 1_555 1_555
C4 C3 1_555 1_555
C5 C4 1_555 1_555
C6 C5 1_555 1_555
H7 C6 1_555 1_555
C7 C6 1_555 1_555
H8 C7 1_555 1_555
C8 C3 1_555 1_555
H9 C8 1_555 1_555
C9 N5 1_555 1_555
H10 C9 1_555 1_555
C10 C9 1_555 1_555
H11 C10 1_555 1_555
C11 C10 1_555 1_555
C12 C11 1_555 1_555
H12 C12 1_555 1_555
C13 N5 1_555 1_555
H13 C13 1_555 1_555
C14 N1 1_555 1_555
H14 C14 1_555 1_555
C15 C14 1_555 1_555
H15 C15 1_555 1_555
C16 N1 1_555 1_555
H16 C16 1_555 1_555
C17 N2 1_555 1_555
H17 C17 1_555 1_555
H18 C17 1_555 1_555
C18 C17 1_555 1_555
C19 C18 1_555 1_555
H19 C19 1_555 1_555
C20 C19 1_555 1_555
H20 C20 1_555 1_555
C21 C20 1_555 1_555
C22 C21 1_555 1_555
H21 C22 1_555 1_555
C23 C18 1_555 1_555
H22 C23 1_555 1_555
C24 C21 1_555 1_555
H23 C24 1_555 1_555
H24 C24 1_555 1_555
C25 N3 1_555 1_555
H25 C25 1_555 1_555
C26 C25 1_555 1_555
H26 C26 1_555 1_555
C27 N3 1_555 1_555
H27 C27 1_555 1_555
Cd1C O3 1_555 1_555
Cd1E N4 1_555 1_555
O3C Cd1 1_555 1_555
O4C Cd1 1_555 1_555
N4A Cd1 1_555 1_555
O4 Cd1C 1_555 1_555
N2 C16 1_555 1_555
N4 C27 1_555 1_555
C7 C8 1_555 1_555
C12 C13 1_555 1_555
C22 C23 1_555 1_555

#END
