
#######################################################################
#
#                 Cambridge Crystallographic Data Centre
#                                CCDC 
#
#######################################################################
#
# If this CIF has been generated from an entry in the Cambridge 
# Structural Database, then it will include bibliographic, chemical, 
# crystal, experimental, refinement or atomic coordinate data resulting 
# from the CCDC's data processing and validation procedures.
#
#######################################################################

data_OMAMEU
_chemical_formula_moiety         '(C6 H34 Co1 N6 O25 P6 Zn4)n'
_symmetry_cell_setting           orthorhombic
_symmetry_space_group_name_H-M   'P b c n'
_symmetry_Int_Tables_number      60
_space_group_name_Hall           '-P 2n 2ab'
loop_
_symmetry_equiv_pos_site_id
_symmetry_equiv_pos_as_xyz
1 x,y,z
2 1/2-x,1/2-y,1/2+z
3 -x,y,1/2-z
4 1/2+x,1/2-y,-z
5 -x,-y,-z
6 1/2+x,1/2+y,1/2-z
7 x,-y,1/2+z
8 1/2-x,1/2+y,z
_cell_length_a                   10.4787(8)
_cell_length_b                   20.0091(14)
_cell_length_c                   14.9594(10)
_cell_angle_alpha                90
_cell_angle_beta                 90
_cell_angle_gamma                90
_cell_volume                     3136.53
loop_
_atom_site_label
_atom_site_type_symbol
_atom_site_fract_x
_atom_site_fract_y
_atom_site_fract_z
Zn1 Zn 0.07352(9) -0.24372(5) -0.61342(6)
Zn2 Zn -0.09432(18) -0.41107(9) -0.56584(14)
P1 P 0.0000 -0.11979(17) -0.7500
P2 P 0.0000 -0.36202(15) -0.7500
P3 P 0.30773(18) -0.23431(10) -0.47849(13)
P4 P 0.1364(3) -0.55873(12) -0.92104(19)
O1 O 0.0753(7) -0.1616(4) -0.6860(5)
O2 O -0.0800(6) -0.3209(4) -0.8112(5)
O3 O 0.2450(5) -0.2542(3) -0.5652(3)
O4 O -0.0542(5) -0.2420(3) -0.5204(4)
O5 O 0.0870(7) -0.0689(3) -0.7981(5)
H1 H 0.1418 -0.0890 -0.8266
O6 O -0.0921(8) -0.4068(4) -0.6980(5)
O7 O -0.2642(6) -0.2329(3) -0.6023(4)
H2 H -0.2621 -0.1921 -0.5974
O8 O 0.2928(6) -0.1600(3) -0.4603(4)
O9 O 0.1907(7) -0.4937(3) -0.9495(5)
O10 O 0.2441(8) -0.6065(3) -0.8970(5)
O11 O 0.0529(8) -0.5914(4) -0.9881(9)
O12 O -0.0566(16) -0.4560(6) -1.1622(10)
H3 H -0.0816 -0.4328 -1.2038
Zn1C Zn 0.57352(9) -0.25628(5) -0.38658(6)
Zn2C Zn 0.40568(18) -0.08893(9) -0.43416(14)
O1B O -0.0753(7) -0.1616(4) -0.8140(5)
Zn1B Zn -0.07352(9) -0.24372(5) -0.88658(6)
O2B O 0.0800(6) -0.3209(4) -0.6888(5)
P3C P -0.19227(18) -0.26569(10) -0.52151(13)
O3C O -0.2550(5) -0.2458(3) -0.4348(3)
Zn1C_2 Zn -0.42648(9) -0.25628(5) -0.38658(6)
O8C O -0.2072(6) -0.3400(3) -0.5397(4)
O6B O 0.0921(8) -0.4068(4) -0.8020(5)
Zn2B Zn 0.09432(18) -0.41107(9) -0.93416(14)
O8A O 0.2072(6) -0.3400(3) -0.9603(4)
O4B O 0.0542(5) -0.2420(3) -0.9796(4)
Zn2F Zn -0.09432(18) -0.58893(9) -1.06584(14)
O9D O -0.1907(7) -0.5063(3) -1.0505(5)
P4D P -0.1364(3) -0.44127(12) -1.07896(19)
O10D O -0.2441(8) -0.3935(3) -1.1030(5)
O11D O -0.0529(8) -0.4086(4) -1.0119(9)
O12D O 0.0566(16) -0.5440(6) -0.8378(10)
H3D H 0.0816 -0.5672 -0.7962
O9B O -0.1907(7) -0.4937(3) -0.5505(5)
O11F O 0.0529(8) -0.4086(4) -0.4881(9)
O3B O -0.2450(5) -0.2542(3) -0.9348(3)
O5B O -0.0870(7) -0.0689(3) -0.7019(5)
H1B H -0.1418 -0.0890 -0.6734
O4C O 0.4458(5) -0.2580(3) -0.4796(4)
O7C O 0.2358(6) -0.2671(3) -0.3977(4)
H2C H 0.2379 -0.3079 -0.4026
Co1 Co -1.0000 0.14397(7) 1.2500
N1 N -0.9652(6) 0.1412(3) 1.1209(4)
H4 H -0.9983 0.1776 1.0942
H5 H -0.8805 0.1408 1.1111
N2 N -0.8759(6) 0.2159(3) 1.2673(4)
H6 H -0.8273 0.2070 1.3155
H7 H -0.8244 0.2186 1.2193
N3 N -0.8682(7) 0.0766(3) 1.2753(5)
H8 H -0.8933 0.0367 1.2539
H9 H -0.7951 0.0881 1.2476
C1 C -1.0252(10) 0.0790(5) 1.0831(6)
H10 H -0.9723 0.0403 1.0959
H11 H -1.0347 0.0829 1.0189
C2 C -0.9436(8) 0.2806(4) 1.2802(5)
H12 H -0.9706 0.2853 1.3419
H13 H -0.8874 0.3176 1.2657
C3 C -0.8455(9) 0.0714(5) 1.3728(6)
H14 H -0.7881 0.1065 1.3927
H15 H -0.8081 0.0285 1.3876
C3B C -1.1545(9) 0.0714(5) 1.1272(6)
N3B N -1.1318(7) 0.0766(3) 1.2247(5)
N1B N -1.0348(6) 0.1412(3) 1.3791(4)
H4B H -1.0017 0.1776 1.4058
H5B H -1.1195 0.1408 1.3889
C1B C -0.9748(10) 0.0790(5) 1.4169(6)
H10B H -1.0277 0.0403 1.4041
H11B H -0.9653 0.0829 1.4811
C2B C -1.0564(8) 0.2806(4) 1.2198(5)
N2B N -1.1241(6) 0.2159(3) 1.2327(4)
H6B H -1.1727 0.2070 1.1845
H7B H -1.1756 0.2186 1.2807
H12B H -1.0294 0.2853 1.1581
H13B H -1.1126 0.3176 1.2343
H8B H -1.1067 0.0367 1.2461
H9B H -1.2049 0.0881 1.2524
H14B H -1.2119 0.1065 1.1073
H15B H -1.1919 0.0285 1.1124
O13 O -0.7138(9) 0.0818(4) 0.8634(6)
loop_
_geom_bond_atom_site_label_1
_geom_bond_atom_site_label_2
_geom_bond_site_symmetry_1
_geom_bond_site_symmetry_2
Zn1 O1 1_555 1_555
Zn2 O6 1_555 1_555
P1 O1 1_555 1_555
P2 O2 1_555 1_555
P3 O3 1_555 1_555
P4 O9 1_555 1_555
O2 Zn1B 1_555 1_555
O3 Zn1 1_555 1_555
O4 Zn1 1_555 1_555
O5 P1 1_555 1_555
H1 O5 1_555 1_555
O6 P2 1_555 1_555
O7 H2 1_555 1_555
O8 P3 1_555 1_555
O9 Zn2B 1_555 1_555
O10 P4 1_555 1_555
O11 P4 1_555 1_555
O12 H3 1_555 1_555
Co1 N1 1_555 1_555
N1 H4 1_555 1_555
H5 N1 1_555 1_555
N2 Co1 1_555 1_555
H6 N2 1_555 1_555
H7 N2 1_555 1_555
N3 Co1 1_555 1_555
H8 N3 1_555 1_555
H9 N3 1_555 1_555
C1 N1 1_555 1_555
H10 C1 1_555 1_555
H11 C1 1_555 1_555
C2 N2 1_555 1_555
H12 C2 1_555 1_555
H13 C2 1_555 1_555
C3 N3 1_555 1_555
H14 C3 1_555 1_555
H15 C3 1_555 1_555
Zn1C O4C 1_555 1_555
Zn2C O8 1_555 1_555
O1B P1 1_555 1_555
Zn1B O1B 1_555 1_555
O2B Zn1 1_555 1_555
P3C O4 1_555 1_555
O3C P3C 1_555 1_555
Zn1C_2 O3C 1_555 1_555
O8C Zn2 1_555 1_555
O6B P2 1_555 1_555
Zn2B O6B 1_555 1_555
O8A Zn2B 1_555 1_555
O4B Zn1B 1_555 1_555
Zn2F O11 1_555 1_555
O9D Zn2F 1_555 1_555
P4D O12 1_555 1_555
O10D P4D 1_555 1_555
O11D Zn2B 1_555 1_555
O12D P4 1_555 1_555
H3D O12D 1_555 1_555
O9B Zn2 1_555 1_555
O11F Zn2 1_555 1_555
O3B Zn1B 1_555 1_555
O5B P1 1_555 1_555
H1B O5B 1_555 1_555
O4C P3 1_555 1_555
O7C P3 1_555 1_555
H2C O7C 1_555 1_555
C3B C1 1_555 1_555
N3B Co1 1_555 1_555
N1B Co1 1_555 1_555
H4B N1B 1_555 1_555
H5B N1B 1_555 1_555
C1B C3 1_555 1_555
H10B C1B 1_555 1_555
H11B C1B 1_555 1_555
C2B C2 1_555 1_555
N2B Co1 1_555 1_555
H6B N2B 1_555 1_555
H7B N2B 1_555 1_555
H12B C2B 1_555 1_555
H13B C2B 1_555 1_555
H8B N3B 1_555 1_555
H9B N3B 1_555 1_555
H14B C3B 1_555 1_555
H15B C3B 1_555 1_555
P2 O2B 1_555 1_555
O7 P3C 1_555 1_555
P3C O8C 1_555 1_555
O9D P4D 1_555 1_555
P4D O11D 1_555 1_555
C3B N3B 1_555 1_555
N1B C1B 1_555 1_555
C2B N2B 1_555 1_555

#END
