
#######################################################################
#
#                 Cambridge Crystallographic Data Centre
#                                CCDC 
#
#######################################################################
#
# If this CIF has been generated from an entry in the Cambridge 
# Structural Database, then it will include bibliographic, chemical, 
# crystal, experimental, refinement or atomic coordinate data resulting 
# from the CCDC's data processing and validation procedures.
#
#######################################################################

data_OPEGOG
_chemical_formula_moiety         '(C6 H44 In6 N4 O43 P14)n'
_symmetry_cell_setting           orthorhombic
_symmetry_space_group_name_H-M   'P n a 21'
_symmetry_Int_Tables_number      33
_space_group_name_Hall           'P 2c -2n'
loop_
_symmetry_equiv_pos_site_id
_symmetry_equiv_pos_as_xyz
1 x,y,z
2 -x,-y,1/2+z
3 1/2-x,1/2+y,1/2+z
4 1/2+x,1/2-y,z
_cell_length_a                   26.7974(9)
_cell_length_b                   9.8459(3)
_cell_length_c                   18.5441(6)
_cell_angle_alpha                90
_cell_angle_beta                 90
_cell_angle_gamma                90
_cell_volume                     4892.76
loop_
_atom_site_label
_atom_site_type_symbol
_atom_site_fract_x
_atom_site_fract_y
_atom_site_fract_z
C1 C 0.0272(4) 0.2470(10) 0.3354(7)
H1 H 0.0257 0.2316 0.3870
H2 H 0.0087 0.1749 0.3119
C2 C 0.0033(4) 0.3808(9) 0.3182(6)
H3 H -0.0126 0.3733 0.2714
H4 H 0.0295 0.4484 0.3139
C3 C -0.0349(3) 0.4331(9) 0.3713(6)
H5 H -0.0578 0.4932 0.3464
H6 H -0.0540 0.3571 0.3899
N1 N 0.0798(4) 0.2417(10) 0.3117(6)
H22 H 0.0822 0.2740 0.2670
H23 H 0.0904 0.1560 0.3126
H24 H 0.0984 0.2917 0.3412
N2 N -0.0116(3) 0.5084(8) 0.4334(5)
H25 H 0.0052 0.4502 0.4611
H26 H -0.0354 0.5482 0.4593
H27 H 0.0093 0.5711 0.4165
C4 C 0.2296(6) 0.7167(16) 0.7821(10)
H7 H 0.2310 0.6805 0.7335
H8 H 0.2588 0.6828 0.8074
C5 C 0.2343(5) 0.8595(13) 0.7772(9)
H9 H 0.2365 0.8946 0.8259
H10 H 0.2035 0.8940 0.7567
C6 C 0.2775(3) 0.9216(9) 0.7340(5)
H11 H 0.3008 0.9654 0.7665
H12 H 0.2951 0.8507 0.7081
N3 N 0.1874(5) 0.6617(10) 0.8158(6)
H28 H 0.1653 0.6367 0.7825
H29 H 0.1738 0.7238 0.8446
H30 H 0.1963 0.5896 0.8418
N4 N 0.2575(3) 1.0216(8) 0.6828(5)
H31 H 0.2426 1.0884 0.7069
H32 H 0.2354 0.9814 0.6539
H33 H 0.2823 1.0554 0.6565
H13 H 0.437(5) 0.073(13) 0.648(7)
H14 H 0.422(5) 0.412(13) 0.960(8)
H15 H 0.355(5) 0.508(13) 0.729(8)
H16 H 0.688(5) 0.080(13) 0.646(8)
H17 H 0.408(5) -0.555(13) 0.390(7)
H18 H 0.584(5) 0.529(13) 0.717(7)
H19 H 0.313(5) -0.077(13) 0.492(7)
H20 H 0.272(4) -0.377(13) 0.496(8)
H21 H 0.492(4) 0.373(13) 0.607(7)
In1 In 0.40038(2) 0.23682(5) 0.80539(4)
In2 In 0.401071(19) -0.26922(5) 0.56957(3)
In3 In 0.65009(2) 0.24873(5) 0.80811(4)
In4 In 0.348757(19) 0.25515(5) 1.07099(3)
In5 In 0.35529(2) 0.24232(5) 0.54460(3)
In6 In 0.39443(2) -0.24689(5) 1.03502(3)
O1 O 0.5719(2) 0.2673(7) 0.8261(5)
O2 O 0.2726(4) 0.3130(19) 0.9001(7)
H34 H 0.2994 0.3414 0.9153
O3 O 0.4160(2) 0.3564(5) 0.7136(3)
O4 O 0.3887(2) -0.1061(6) 0.9499(4)
O5 O 0.3388(2) 0.0844(6) 1.0048(4)
O6 O 0.3937(2) -0.1148(6) 0.4923(4)
O7 O 0.3235(2) -0.2817(6) 0.5871(4)
O8 O 0.3607(2) 0.0848(6) 0.6240(4)
O9 O 0.2310(2) -0.2367(5) 0.5825(4)
O10 O 0.4021(2) -0.4228(6) 0.4874(3)
O11 O 0.34823(19) 0.3868(6) 0.9772(3)
O12 O 0.4055(2) -0.1325(6) 0.6598(3)
O13 O 0.3488(2) 0.4018(6) 0.6207(4)
O14 O 0.6431(2) -0.1241(6) 0.6626(3)
O15 O 0.4334(2) 0.2564(6) 0.5309(5)
O16 O 0.6012(2) 0.0932(6) 0.6183(4)
O17 O 0.4796(2) 0.2243(6) 0.8246(4)
O18 O 0.27638(19) 0.2150(6) 0.5611(4)
O19 O 0.2293(2) 0.2482(6) 0.7849(4)
O20 O 0.3213(2) 0.2374(6) 0.7890(5)
O21 O 0.3392(2) -0.6098(6) 0.4625(4)
O22 O 0.52559(19) 0.2236(5) 0.5224(4)
O23 O 0.3374(2) -0.4022(6) 0.3857(4)
O24 O 0.4793(2) -0.2527(6) 0.5503(4)
O25 O 0.3998(2) 0.0517(5) 0.7470(3)
O26 O 0.6563(2) 0.5746(6) 0.6380(4)
O27 O 0.6372(3) 0.0743(6) 0.7440(4)
O28 O 0.4164(2) 0.5767(6) 0.6479(3)
O29 O 0.3920(2) 0.4291(6) 0.8590(3)
O30 O 0.5725(2) -0.2640(6) 0.5684(5)
O31 O 0.3984(2) 0.1296(6) 0.9030(3)
O32 O 0.3354(2) -0.0961(6) 0.3844(4)
O33 O 0.1831(2) 0.2362(6) 0.5521(4)
O34 O 0.3521(2) 0.1068(6) 0.4573(3)
O35 O 0.6480(3) 0.3815(7) 0.7207(4)
O36 O 0.3900(2) 0.6123(6) 0.9494(3)
O37 O 0.5899(2) 0.3970(6) 0.6130(4)
O38 O 0.2621(2) -0.4660(6) 0.6089(5)
H35 H 0.2843 -0.5214 0.6010
O39 O 0.4903(2) 0.4475(6) 0.4962(4)
H36 H 0.4692 0.5037 0.5078
O40 O 0.2421(4) 0.3209(12) 0.4519(6)
H37 H 0.2675 0.2985 0.4304
O41 O 0.5217(3) -0.0608(8) 0.6011(8)
H38 H 0.5452 -0.0342 0.6257
O42 O 0.5249(4) 0.1793(15) 0.7149(7)
H39 H 0.5478 0.2024 0.6883
O43 O 0.2794(7) 0.4461(15) 0.8251(11)
H40 H 0.3061 0.4650 0.8444
P1 P 0.36312(8) 0.02944(19) 0.93787(13)
H41 H 0.3289 0.0105 0.9050
P2 P 0.40311(7) 0.0214(2) 0.66696(12)
P3 P 0.39188(8) 0.4591(2) 0.93986(13)
P4 P 0.52317(8) -0.2180(2) 0.59599(15)
H42 H 0.5118 -0.3366 0.6634
P5 P 0.38394(8) 0.46329(19) 0.67702(12)
P6 P 0.52407(9) 0.2738(3) 0.78372(18)
H43 H 0.5102 0.4235 0.7602
P7 P 0.64311(7) 0.0325(2) 0.66544(13)
P8 P 0.37085(7) -0.49413(19) 0.43069(13)
P9 P 0.61959(8) 0.4723(2) 0.66932(13)
P10 P 0.27516(9) 0.3000(3) 0.81801(18)
P11 P 0.23161(8) 0.2191(2) 0.51228(15)
H44 H 0.2290 0.1027 0.4634
P12 P 0.34749(7) -0.04720(19) 0.45988(13)
P13 P 0.27258(7) -0.3339(2) 0.56601(15)
P14 P 0.48378(7) 0.3182(2) 0.54195(14)
O28_2 O 0.4164(2) -0.4233(6) 0.6479(3)
O19C O 0.7293(2) 0.2518(6) 0.7849(4)
O23A O 0.6626(2) 0.4022(6) 0.8857(4)
O32A O 0.6646(2) 0.0961(6) 0.8844(4)
O9B O 0.2690(2) 0.2633(5) 1.0825(4)
O14A O 0.3569(2) 0.1241(6) 1.1626(3)
O26A O 0.3437(2) 0.4254(6) 1.1380(4)
O30A O 0.4275(2) 0.2640(6) 1.0684(5)
O21_2 O 0.3392(2) 0.3902(6) 0.4625(4)
O16A O 0.3988(2) -0.0932(6) 1.1183(4)
O33B O 0.3169(2) -0.2638(6) 1.0521(4)
O36_2 O 0.3900(2) -0.3877(6) 0.9494(3)
O22A O 0.47441(19) -0.2236(5) 1.0224(4)
O37A O 0.4101(2) -0.3970(6) 1.1130(4)
In4B In 0.151243(19) -0.24485(5) 0.57099(3)
In4A In 0.651243(19) -0.25515(5) 0.57099(3)
In6A In 0.60557(2) 0.24689(5) 0.53502(3)
In3C In 0.15009(2) 0.25127(5) 0.80811(4)
In5_2 In 0.35529(2) -0.75768(5) 0.54460(3)
In3A In 0.34991(2) -0.24873(5) 0.30811(4)
In4A_2 In 0.651243(19) 0.74485(5) 0.57099(3)
In2_2 In 0.401071(19) 0.73078(5) 0.56957(3)
In6B In 0.10557(2) 0.25311(5) 0.53502(3)
In6_2 In 0.39443(2) 0.75311(5) 1.03502(3)
loop_
_geom_bond_atom_site_label_1
_geom_bond_atom_site_label_2
_geom_bond_site_symmetry_1
_geom_bond_site_symmetry_2
C1 H1 1_555 1_555
H2 C1 1_555 1_555
C2 C1 1_555 1_555
H3 C2 1_555 1_555
H4 C2 1_555 1_555
C3 C2 1_555 1_555
H5 C3 1_555 1_555
H6 C3 1_555 1_555
C4 H7 1_555 1_555
H8 C4 1_555 1_555
C5 C4 1_555 1_555
H9 C5 1_555 1_555
H10 C5 1_555 1_555
C6 C5 1_555 1_555
H11 C6 1_555 1_555
H12 C6 1_555 1_555
H13 P2 1_555 1_555
H14 P3 1_555 1_555
H15 P5 1_555 1_555
H16 P7 1_555 1_555
H17 P8 1_555 1_555
H18 P9 1_555 1_555
H19 P12 1_555 1_555
H20 P13 1_555 1_555
H21 P14 1_555 1_555
In1 O3 1_555 1_555
In2 O6 1_555 1_555
In3 O1 1_555 1_555
In4 O5 1_555 1_555
In5 O8 1_555 1_555
In6 O4 1_555 1_555
N1 C1 1_555 1_555
H22 N1 1_555 1_555
H23 N1 1_555 1_555
H24 N1 1_555 1_555
N2 C3 1_555 1_555
H25 N2 1_555 1_555
H26 N2 1_555 1_555
H27 N2 1_555 1_555
N3 C4 1_555 1_555
H28 N3 1_555 1_555
H29 N3 1_555 1_555
H30 N3 1_555 1_555
N4 C6 1_555 1_555
H31 N4 1_555 1_555
H32 N4 1_555 1_555
H33 N4 1_555 1_555
O1 P6 1_555 1_555
O2 H34 1_555 1_555
O3 P5 1_555 1_555
O4 P1 1_555 1_555
O5 P1 1_555 1_555
O6 P12 1_555 1_555
O7 In2 1_555 1_555
O8 P2 1_555 1_555
O9 P13 1_555 1_555
O10 In2 1_555 1_555
O11 In4 1_555 1_555
O12 In2 1_555 1_555
O13 In5 1_555 1_555
O14 P7 1_555 1_555
O15 In5 1_555 1_555
O16 P7 1_555 1_555
O17 In1 1_555 1_555
O18 In5 1_555 1_555
O19 P10 1_555 1_555
O20 In1 1_555 1_555
O21 P8 1_555 1_555
O22 P14 1_555 1_555
O23 P8 1_555 1_555
O24 In2 1_555 1_555
O25 In1 1_555 1_555
O26 P9 1_555 1_555
O27 In3 1_555 1_555
O28 P5 1_555 1_555
O29 In1 1_555 1_555
O30 P4 1_555 1_555
O31 In1 1_555 1_555
O32 P12 1_555 1_555
O33 P11 1_555 1_555
O34 In5 1_555 1_555
O35 In3 1_555 1_555
O36 P3 1_555 1_555
O37 P9 1_555 1_555
O38 H35 1_555 1_555
O39 H36 1_555 1_555
O40 H37 1_555 1_555
O41 H38 1_555 1_555
O42 H39 1_555 1_555
O43 H40 1_555 1_555
P1 O31 1_555 1_555
H41 P1 1_555 1_555
P2 O12 1_555 1_555
P3 O11 1_555 1_555
P4 O24 1_555 1_555
H42 P4 1_555 1_555
P5 O13 1_555 1_555
P6 O17 1_555 1_555
H43 P6 1_555 1_555
P7 O27 1_555 1_555
P8 O10 1_555 1_555
P9 O35 1_555 1_555
P10 O2 1_555 1_555
P11 O18 1_555 1_555
H44 P11 1_555 1_555
P12 O34 1_555 1_555
P13 O7 1_555 1_555
P14 O15 1_555 1_555
O28_2 In2 1_555 1_555
O19C In3 1_555 1_555
O23A In3 1_555 1_555
O32A In3 1_555 1_555
O9B In4 1_555 1_555
O14A In4 1_555 1_555
O26A In4 1_555 1_555
O30A In4 1_555 1_555
O21_2 In5 1_555 1_555
O16A In6 1_555 1_555
O33B In6 1_555 1_555
O36_2 In6 1_555 1_555
O22A In6 1_555 1_555
O37A In6 1_555 1_555
In4B O9 1_555 1_555
In4A O14 1_555 1_555
In6A O16 1_555 1_555
In3C O19 1_555 1_555
In5_2 O21 1_555 1_555
In3A O23 1_555 1_555
In4A_2 O26 1_555 1_555
In2_2 O28 1_555 1_555
In6B O33 1_555 1_555
In6_2 O36 1_555 1_555
O20 P10 1_555 1_555
O22 In6A 1_555 1_555
O25 P2 1_555 1_555
O29 P3 1_555 1_555
O30 In4A 1_555 1_555
O32 In3A 1_555 1_555
O37 In6A 1_555 1_555
O38 P13 1_555 1_555
O39 P14 1_555 1_555
O40 P11 1_555 1_555
O41 P4 1_555 1_555
O42 P6 1_555 1_555
O43 P10 1_555 1_555

#END
