
#######################################################################
#
#                 Cambridge Crystallographic Data Centre
#                                CCDC 
#
#######################################################################
#
# If this CIF has been generated from an entry in the Cambridge 
# Structural Database, then it will include bibliographic, chemical, 
# crystal, experimental, refinement or atomic coordinate data resulting 
# from the CCDC's data processing and validation procedures.
#
#######################################################################

data_XOVXAI
_chemical_formula_moiety         '(C28 H28 Co5 N4 O29)n'
_symmetry_cell_setting           triclinic
_symmetry_space_group_name_H-M   'P -1'
_symmetry_Int_Tables_number      2
_space_group_name_Hall           '-P 1'
loop_
_symmetry_equiv_pos_site_id
_symmetry_equiv_pos_as_xyz
1 x,y,z
2 -x,-y,-z
_cell_length_a                   11.098(4)
_cell_length_b                   11.194(4)
_cell_length_c                   16.587(6)
_cell_angle_alpha                99.085(5)
_cell_angle_beta                 109.296(5)
_cell_angle_gamma                91.098(5)
_cell_volume                     1914.83
loop_
_atom_site_label
_atom_site_type_symbol
_atom_site_fract_x
_atom_site_fract_y
_atom_site_fract_z
Co1 Co 0.82226(8) 0.13341(8) 0.74904(6)
Co2 Co 0.79881(8) 0.29184(8) 0.95126(6)
Co3 Co 1.07936(8) 0.23274(8) 0.96403(5)
Co4 Co 0.75854(8) -0.08115(7) 0.54368(5)
Co5 Co 0.82751(8) 0.19057(7) 0.53943(5)
C1 C 1.3773(6) -0.0325(6) 0.6729(4)
H1 H 1.4314 -0.0551 0.6416
C2 C 1.4198(7) -0.0157(6) 0.7635(4)
H2 H 1.5039 -0.0270 0.7953
C3 C 1.3355(6) 0.0170(5) 0.8024(4)
H3 H 1.3649 0.0276 0.8627
C4 C 1.2111(6) 0.0366(6) 0.7638(4)
C5 C 1.1635(6) 0.0130(6) 0.6753(4)
C6 C 1.0325(6) 0.0264(5) 0.6201(4)
C7 C 1.1209(5) 0.0870(5) 0.8092(4)
C8 C 0.1941(7) 0.3237(6) 0.6599(5)
H4 H 0.1092 0.3392 0.6339
C9 C 0.2441(6) 0.3468(6) 0.7480(4)
H5 H 0.1968 0.3807 0.7817
C10 C 0.3704(6) 0.3173(6) 0.7859(4)
H6 H 0.4063 0.3289 0.8460
C11 C 0.4423(6) 0.2718(6) 0.7367(4)
C12 C 0.3876(6) 0.2584(5) 0.6466(4)
C13 C 0.4545(6) 0.2228(6) 0.5813(4)
C14 C 0.5784(6) 0.2444(5) 0.7794(4)
C15 C 1.0053(6) 0.7464(5) 0.8280(4)
H7 H 1.0227 0.8259 0.8579
C16 C 0.9860(6) 0.7212(6) 0.7397(4)
H8 H 0.9963 0.7829 0.7105
C17 C 0.9506(6) 0.6007(6) 0.6947(4)
H9 H 0.9330 0.5846 0.6350
C18 C 0.9421(6) 0.5115(5) 0.7349(4)
C19 C 0.9653(6) 0.5378(5) 0.8287(4)
C20 C 0.9587(6) 0.4447(6) 0.8844(4)
C21 C 0.8977(6) 0.3829(6) 0.6948(4)
C22 C 0.6442(6) -0.4350(5) 0.8226(4)
H10 H 0.6348 -0.5005 0.8488
C23 C 0.6088(6) -0.4506(6) 0.7328(4)
H11 H 0.5684 -0.5229 0.6973
C24 C 0.6373(6) -0.3513(6) 0.6991(4)
H12 H 0.6179 -0.3604 0.6393
C25 C 0.6919(6) -0.2421(6) 0.7480(4)
C26 C 0.7174(7) -0.2262(6) 0.8402(4)
C27 C 0.7602(6) -0.1163(5) 0.9051(4)
C28 C 0.7249(6) -0.1415(5) 0.7103(4)
N1 N 1.2524(5) -0.0139(5) 0.6331(3)
N2 N 0.2622(5) 0.2784(5) 0.6066(3)
N3 N 0.9983(5) 0.6548(5) 0.8693(3)
N4 N 0.6931(5) -0.3238(5) 0.8729(3)
O1 O 1.2077(4) -0.0273(4) 0.5465(3)
O2 O 0.9599(4) -0.0690(4) 0.5983(3)
O3 O 1.0040(4) 0.1276(4) 0.6003(3)
O4 O 1.0015(4) 0.0690(4) 0.7650(3)
O5 O 1.1681(4) 0.1444(4) 0.8859(3)
O6 O 0.2142(4) 0.2561(4) 0.5228(3)
O7 O 0.5263(4) 0.3062(4) 0.5749(3)
O8 O 0.4349(4) 0.1125(4) 0.5413(3)
O9 O 0.6368(4) 0.1920(4) 0.7344(3)
O10 O 0.6221(5) 0.2788(5) 0.8629(3)
O11 O 1.0265(4) 0.6793(4) 0.9560(3)
O12 O 0.8586(4) 0.4326(4) 0.8975(3)
O13 O 1.0604(4) 0.3883(4) 0.9084(3)
O14 O 0.8828(4) 0.3089(4) 0.7405(3)
O15 O 0.8793(4) 0.3587(4) 0.6143(3)
O16 O 0.7281(4) -0.3178(4) 0.9585(3)
O17 O 0.8786(4) -0.1019(3) 0.9521(3)
O18 O 0.6769(4) -0.0465(4) 0.9137(3)
O19 O 0.7566(4) -0.0392(4) 0.7581(3)
O20 O 0.7246(4) -0.1664(4) 0.6322(3)
O21 O 0.7520(4) 0.0915(4) 0.6103(3)
H13 H 0.6731 0.1045 0.5954
O22 O 0.9117(4) 0.2621(4) 0.4544(3)
H14 H 0.8929 0.2204 0.4038
H15 H 0.9907 0.2858 0.4767
O23 O 0.6530(4) 0.2566(4) 0.4679(3)
H16 H 0.5949 0.2406 0.4883
H17 H 0.6637 0.3329 0.4717
O24 O 0.8893(4) 0.1693(4) 0.8894(3)
H18 H 0.8774 0.1020 0.9043
O25 O 0.7317(4) 0.1678(4) 1.0183(3)
H19 H 0.7433 0.0957 0.9989
H20 H 0.6524 0.1742 1.0097
O26 O 0.7391(4) 0.4306(4) 1.0315(3)
H21 H 0.7542 0.4994 1.0198
H22 H 0.7801 0.4292 1.0846
Co2A Co 1.20119(8) 0.70816(8) 1.04874(6)
Co3A Co 0.92064(8) 0.76726(8) 1.03597(5)
Co3A_2 Co 0.92064(8) -0.23274(8) 1.03597(5)
Co4A Co 1.24146(8) 0.08115(7) 0.45632(5)
Co4A_2 Co 0.24146(8) 0.08115(7) 0.45632(5)
Co5A Co 1.17249(8) -0.19057(7) 0.46057(5)
O1A O 0.7923(4) 0.0273(4) 0.4535(3)
O6A O 0.7858(4) -0.2561(4) 0.4772(3)
O8A O 0.5651(4) -0.1125(4) 0.4587(3)
O11A O 0.9735(4) 0.3207(4) 1.0440(3)
O16A O 1.2719(4) 0.3178(4) 1.0415(3)
O17A O 1.1214(4) 0.1019(3) 1.0479(3)
O27 O 0.4820(4) 0.1831(4) 0.0279(3)
H23 H 0.4336 0.2310 0.0454
H24 H 0.4377 0.1198 -0.0040
O28 O 0.6503(4) 0.3651(4) 0.1600(3)
H25 H 0.5952 0.3935 0.1197
H26 H 0.6375 0.2871 0.1488
O29 O 0.6663(4) 0.5179(4) 0.4818(3)
H27 H 0.7398 0.5531 0.5008
H28 H 0.6198 0.5443 0.4374
loop_
_geom_bond_atom_site_label_1
_geom_bond_atom_site_label_2
_geom_bond_site_symmetry_1
_geom_bond_site_symmetry_2
Co1 O4 1_555 1_555
Co2 O10 1_555 1_555
Co3 O5 1_555 1_555
Co4 O2 1_555 1_555
Co5 O3 1_555 1_555
C1 H1 1_555 1_555
C2 C1 1_555 1_555
H2 C2 1_555 1_555
C3 C2 1_555 1_555
H3 C3 1_555 1_555
C4 C3 1_555 1_555
C5 C4 1_555 1_555
C6 C5 1_555 1_555
C7 C4 1_555 1_555
C8 H4 1_555 1_555
C9 C8 1_555 1_555
H5 C9 1_555 1_555
C10 C9 1_555 1_555
H6 C10 1_555 1_555
C11 C10 1_555 1_555
C12 C11 1_555 1_555
C13 C12 1_555 1_555
C14 C11 1_555 1_555
C15 H7 1_555 1_555
C16 C15 1_555 1_555
H8 C16 1_555 1_555
C17 C16 1_555 1_555
H9 C17 1_555 1_555
C18 C17 1_555 1_555
C19 C18 1_555 1_555
C20 C19 1_555 1_555
C21 C18 1_555 1_555
C22 H10 1_555 1_555
C23 C22 1_555 1_555
H11 C23 1_555 1_555
C24 C23 1_555 1_555
H12 C24 1_555 1_555
C25 C24 1_555 1_555
C26 C25 1_555 1_555
C27 C26 1_555 1_555
C28 C25 1_555 1_555
N1 C1 1_555 1_555
N2 C8 1_555 1_555
N3 C15 1_555 1_555
N4 C22 1_555 1_555
O1 N1 1_555 1_555
O2 C6 1_555 1_555
O3 C6 1_555 1_555
O4 C7 1_555 1_555
O5 C7 1_555 1_555
O6 N2 1_555 1_555
O7 C13 1_555 1_555
O8 C13 1_555 1_555
O9 Co1 1_555 1_555
O10 C14 1_555 1_555
O11 N3 1_555 1_555
O12 Co2 1_555 1_555
O13 Co3 1_555 1_555
O14 Co1 1_555 1_555
O15 Co5 1_555 1_555
O16 N4 1_555 1_555
O17 C27 1_555 1_555
O18 C27 1_555 1_555
O19 Co1 1_555 1_555
O20 Co4 1_555 1_555
O21 Co1 1_555 1_555
H13 O21 1_555 1_555
O22 Co5 1_555 1_555
H14 O22 1_555 1_555
H15 O22 1_555 1_555
O23 Co5 1_555 1_555
H16 O23 1_555 1_555
H17 O23 1_555 1_555
O24 Co1 1_555 1_555
H18 O24 1_555 1_555
O25 Co2 1_555 1_555
H19 O25 1_555 1_555
H20 O25 1_555 1_555
O26 Co2 1_555 1_555
H21 O26 1_555 1_555
H22 O26 1_555 1_555
O27 H23 1_555 1_555
H24 O27 1_555 1_555
O28 H25 1_555 1_555
H26 O28 1_555 1_555
O29 H27 1_555 1_555
H28 O29 1_555 1_555
Co2A O11 1_555 1_555
Co3A O11 1_555 1_555
Co3A_2 O16 1_555 1_555
Co4A O1 1_555 1_555
Co4A_2 O6 1_555 1_555
Co5A O1 1_555 1_555
O1A Co4 1_555 1_555
O6A Co4 1_555 1_555
O8A Co4 1_555 1_555
O11A Co2 1_555 1_555
O16A Co3 1_555 1_555
O17A Co3 1_555 1_555
Co2 O24 1_555 1_555
Co3 O24 1_555 1_555
Co3 O11A 1_555 1_555
Co4 O21 1_555 1_555
Co5 O21 1_555 1_555
Co5 O1A 1_555 1_555
C5 N1 1_555 1_555
C12 N2 1_555 1_555
C14 O9 1_555 1_555
C19 N3 1_555 1_555
C20 O12 1_555 1_555
C20 O13 1_555 1_555
C21 O14 1_555 1_555
C21 O15 1_555 1_555
C26 N4 1_555 1_555
C28 O19 1_555 1_555
C28 O20 1_555 1_555
O8 Co4A_2 1_555 1_555
O17 Co3A_2 1_555 1_555

#END
