
#######################################################################
#
#                 Cambridge Crystallographic Data Centre
#                                CCDC 
#
#######################################################################
#
# If this CIF has been generated from an entry in the Cambridge 
# Structural Database, then it will include bibliographic, chemical, 
# crystal, experimental, refinement or atomic coordinate data resulting 
# from the CCDC's data processing and validation procedures.
#
#######################################################################

data_NAWHOL
_chemical_formula_moiety         '(C15 H34 La2 O20)n'
_symmetry_cell_setting           triclinic
_symmetry_space_group_name_H-M   'P -1'
_symmetry_Int_Tables_number      2
_space_group_name_Hall           '-P 1'
loop_
_symmetry_equiv_pos_site_id
_symmetry_equiv_pos_as_xyz
1 x,y,z
2 -x,-y,-z
_cell_length_a                   9.076(2)
_cell_length_b                   9.867(3)
_cell_length_c                   16.303(4)
_cell_angle_alpha                103.349(16)
_cell_angle_beta                 104.110(9)
_cell_angle_gamma                98.526(10)
_cell_volume                     1344.92
loop_
_atom_site_label
_atom_site_type_symbol
_atom_site_fract_x
_atom_site_fract_y
_atom_site_fract_z
La1 La 0.69213(2) 0.45144(2) 0.598112(12)
La2 La 0.84842(2) 0.42670(2) 0.864327(12)
O1 O 1.0202(4) 0.6711(4) 0.8933(2)
H1 H 1.0711 0.6683 0.8558
H2 H 1.0848 0.6945 0.9444
O2 O 0.6981(4) 0.2153(3) 0.7428(2)
O3 O 0.7914(4) 0.2230(3) 0.5464(2)
H3 H 0.8546 0.2074 0.5893
H4 H 0.8363 0.2300 0.5071
O4 O 0.5332(4) 0.2580(3) 0.6325(2)
O5 O 0.7621(3) -0.2747(3) 0.64299(18)
O6 O 0.7649(4) 0.4550(4) 0.4585(2)
O7 O 0.5595(3) -0.3580(3) 0.52672(16)
O8 O 0.7584(3) 0.2440(3) 0.94335(19)
O9 O 0.5833(3) 0.3571(3) 0.8898(2)
O10 O 0.1082(3) 0.4269(3) 0.97591(18)
O11 O 0.0446(3) 0.2608(3) 0.85126(18)
O12 O 0.6818(3) 0.5521(3) 0.7778(2)
O13 O 0.4860(3) 0.5471(3) 0.66773(17)
O14 O -0.0758(3) 0.4445(3) 0.72570(18)
O15 O 0.0021(3) 0.5417(3) 0.63185(19)
C1 C 0.5718(4) 0.1837(4) 0.6833(2)
C2 C 0.4583(5) 0.0484(4) 0.6722(3)
H5 H 0.3774 0.0275 0.6169
H6 H 0.4095 0.0631 0.7193
C3 C 0.5334(6) -0.0791(4) 0.6728(3)
H7 H 0.6093 -0.0614 0.7296
H8 H 0.4543 -0.1626 0.6649
C4 C 0.6130(5) -0.1086(4) 0.6010(3)
H9 H 0.5459 -0.1027 0.5463
H10 H 0.7087 -0.0375 0.6168
C5 C 0.6486(4) -0.2545(4) 0.5888(2)
C6 C 0.6177(4) 0.2572(4) 0.9198(2)
C7 C 0.4925(5) 0.1436(4) 0.9256(3)
H11 H 0.5125 0.1417 0.9865
H12 H 0.5005 0.0517 0.8917
C8 C 0.3257(5) 0.1624(4) 0.8929(3)
H13 H 0.3114 0.1844 0.8369
H14 H 0.2535 0.0734 0.8835
C9 C 0.2889(5) 0.2800(5) 0.9575(3)
H15 H 0.2874 0.2497 1.0099
H16 H 0.3726 0.3636 0.9747
C10 C 0.1385(4) 0.3222(4) 0.9249(2)
C11 C 0.5500(4) 0.5787(4) 0.7489(2)
C12 C 0.4742(5) 0.6530(5) 0.8133(3)
H17 H 0.5339 0.7501 0.8404
H18 H 0.4795 0.6056 0.8595
C13 C 0.3051(4) 0.6579(4) 0.7745(3)
H19 H 0.2953 0.6926 0.7228
H20 H 0.2725 0.7233 0.8173
C14 C 0.1998(4) 0.5092(5) 0.7490(3)
H21 H 0.2422 0.4420 0.7129
H22 H 0.2011 0.4804 0.8021
C15 C 0.0342(4) 0.5010(4) 0.6998(2)
H23 H 0.681(7) 0.445(6) 0.411(4)
H24 H 0.837(7) 0.448(6) 0.446(3)
La1_2 La -0.30787(2) 0.45144(2) 0.598112(12)
La1_3 La 0.69213(2) -0.54856(2) 0.598112(12)
La1A La 0.30787(2) -0.45144(2) 0.401888(12)
La2_2 La -0.15158(2) 0.42670(2) 0.864327(12)
La2A La 0.15158(2) 0.57330(2) 1.135673(12)
O5_2 O 0.7621(3) 0.7253(3) 0.64299(18)
O7_2 O 0.5595(3) 0.6420(3) 0.52672(16)
O7A O 0.4405(3) 0.3580(3) 0.47328(16)
O10_2 O 1.1082(3) 0.4269(3) 0.97591(18)
O10A O 0.8918(3) 0.5731(3) 1.02409(18)
O11_2 O 1.0446(3) 0.2608(3) 0.85126(18)
O14_2 O 0.9242(3) 0.4445(3) 0.72570(18)
O15_2 O 1.0021(3) 0.5417(3) 0.63185(19)
O16 O 0.8414(6) -0.0232(6) 0.9405(4)
H25 H 0.8180 0.0566 0.9390
H26 H 0.8795 -0.0506 0.8984
O17 O 0.9728(6) -0.1267(5) 0.8024(3)
H27 H 0.9078 -0.1703 0.7526
H28 H 0.9895 -0.1869 0.8315
O18 O 0.1998(5) 0.2194(5) 0.5774(3)
H29 H 0.2923 0.2672 0.5902
H30 H 0.1827 0.1454 0.5346
O19 O 0.0079(5) 0.1065(4) 0.6634(2)
H31 H 0.0246 0.1556 0.7163
H32 H 0.0706 0.1473 0.6409
O20 O 0.9469(5) 0.1772(4) 0.4147(3)
H33 H 0.9586 0.2546 0.4001
H34 H 1.0186 0.1867 0.4616
loop_
_geom_bond_atom_site_label_1
_geom_bond_atom_site_label_2
_geom_bond_site_symmetry_1
_geom_bond_site_symmetry_2
La1 O3 1_555 1_555
La2 O1 1_555 1_555
O1 H1 1_555 1_555
H2 O1 1_555 1_555
O2 La2 1_555 1_555
O3 H3 1_555 1_555
H4 O3 1_555 1_555
O4 La1 1_555 1_555
O5 C5 1_555 1_555
O6 La1 1_555 1_555
O7 C5 1_555 1_555
O8 La2 1_555 1_555
O9 La2 1_555 1_555
O10 C10 1_555 1_555
O11 C10 1_555 1_555
O12 La1 1_555 1_555
O13 La1 1_555 1_555
O14 C15 1_555 1_555
O15 C15 1_555 1_555
C1 O2 1_555 1_555
C2 C1 1_555 1_555
H5 C2 1_555 1_555
H6 C2 1_555 1_555
C3 C2 1_555 1_555
H7 C3 1_555 1_555
H8 C3 1_555 1_555
C4 C3 1_555 1_555
H9 C4 1_555 1_555
H10 C4 1_555 1_555
C5 C4 1_555 1_555
C6 O8 1_555 1_555
C7 C6 1_555 1_555
H11 C7 1_555 1_555
H12 C7 1_555 1_555
C8 C7 1_555 1_555
H13 C8 1_555 1_555
H14 C8 1_555 1_555
C9 C8 1_555 1_555
H15 C9 1_555 1_555
H16 C9 1_555 1_555
C10 C9 1_555 1_555
C11 O12 1_555 1_555
C12 C11 1_555 1_555
H17 C12 1_555 1_555
H18 C12 1_555 1_555
C13 C12 1_555 1_555
H19 C13 1_555 1_555
H20 C13 1_555 1_555
C14 C13 1_555 1_555
H21 C14 1_555 1_555
H22 C14 1_555 1_555
C15 C14 1_555 1_555
H23 O6 1_555 1_555
H24 O6 1_555 1_555
O16 H25 1_555 1_555
H26 O16 1_555 1_555
O17 H27 1_555 1_555
H28 O17 1_555 1_555
O18 H29 1_555 1_555
H30 O18 1_555 1_555
O19 H31 1_555 1_555
H32 O19 1_555 1_555
O20 H33 1_555 1_555
H34 O20 1_555 1_555
La1_2 O14 1_555 1_555
La1_3 O5 1_555 1_555
La1A O7 1_555 1_555
La2_2 O10 1_555 1_555
La2A O10 1_555 1_555
O5_2 La1 1_555 1_555
O7_2 La1 1_555 1_555
O7A La1 1_555 1_555
O10_2 La2 1_555 1_555
O10A La2 1_555 1_555
O11_2 La2 1_555 1_555
O14_2 La1 1_555 1_555
O15_2 La1 1_555 1_555
La2 O12 1_555 1_555
La2 O14_2 1_555 1_555
O4 C1 1_555 1_555
O7 La1_3 1_555 1_555
O9 C6 1_555 1_555
O11 La2_2 1_555 1_555
O13 C11 1_555 1_555
O14 La2_2 1_555 1_555
O15 La1_2 1_555 1_555

#END
