
#######################################################################
#
#                 Cambridge Crystallographic Data Centre
#                                CCDC 
#
#######################################################################
#
# If this CIF has been generated from an entry in the Cambridge 
# Structural Database, then it will include bibliographic, chemical, 
# crystal, experimental, refinement or atomic coordinate data resulting 
# from the CCDC's data processing and validation procedures.
#
#######################################################################

data_AWASAU
_chemical_formula_moiety         '(C22 H24 Cu4 I4 N5 O9 Pr1)n'
_symmetry_cell_setting           monoclinic
_symmetry_space_group_name_H-M   'P 21/n'
_symmetry_Int_Tables_number      14
_space_group_name_Hall           '-P 2yn'
loop_
_symmetry_equiv_pos_site_id
_symmetry_equiv_pos_as_xyz
1 x,y,z
2 1/2-x,1/2+y,1/2-z
3 -x,-y,-z
4 1/2+x,1/2-y,1/2+z
_cell_length_a                   15.289(6)
_cell_length_b                   8.168(3)
_cell_length_c                   28.995(11)
_cell_angle_alpha                90
_cell_angle_beta                 100.646(5)
_cell_angle_gamma                90
_cell_volume                     3558.59
loop_
_atom_site_label
_atom_site_type_symbol
_atom_site_fract_x
_atom_site_fract_y
_atom_site_fract_z
Pr1 Pr 0.55017(3) 0.25071(5) 0.011807(13)
Cu1 Cu -0.00157(6) 0.56998(11) 0.17016(3)
Cu2 Cu 0.14509(6) 0.70179(11) 0.21415(3)
Cu3 Cu 0.42503(6) 0.92063(12) 0.25049(3)
Cu4 Cu 0.35247(6) 0.89653(11) 0.32433(3)
I1 I 0.12366(3) 0.67954(6) 0.122443(16)
I2 I 0.00516(3) 0.71975(6) 0.254322(18)
I3 I 0.24726(3) 0.96087(5) 0.240975(15)
I4 I 0.50912(3) 0.74941(6) 0.328526(17)
O1 O 0.3589(3) -0.0421(7) -0.05754(18)
O2 O 0.4211(4) 0.2068(7) -0.04940(19)
O3 O 0.5666(4) 0.3747(7) 0.09308(18)
O4 O 0.4646(3) 0.5059(6) 0.04332(16)
O5 O 0.6413(4) 0.1259(7) -0.0395(2)
O6 O 0.5522(4) -0.0877(9) -0.0453(2)
O7 O 0.6937(4) 0.3887(8) 0.0228(2)
N1 N 0.1155(4) 0.3283(8) -0.1359(2)
N2 N 0.4489(4) 0.7716(8) 0.1982(2)
N3 N 0.7781(4) -0.2592(7) -0.1397(2)
C1 C 0.1205(6) 0.1699(11) -0.1256(4)
H1 H 0.0687 0.1048 -0.1348
C2 C 0.1968(5) 0.0943(11) -0.1024(4)
H2 H 0.1963 -0.0192 -0.0952
C3 C 0.2734(5) 0.1840(9) -0.0897(2)
C4 C 0.2695(5) 0.3481(10) -0.1017(3)
H3 H 0.3211 0.4148 -0.0943
C5 C 0.1901(5) 0.4143(10) -0.1246(3)
H4 H 0.1888 0.5271 -0.1327
C6 C 0.3577(5) 0.1092(10) -0.0638(2)
C7 C 0.5275(6) 0.6983(12) 0.2007(3)
H5 H 0.5714 0.7128 0.2281
C8 C 0.5478(6) 0.6018(13) 0.1646(3)
H6 H 0.6042 0.5499 0.1678
C9 C 0.4850(5) 0.5821(9) 0.1243(2)
C10 C 0.4046(5) 0.6541(9) 0.1223(2)
H7 H 0.3595 0.6403 0.0953
C11 C 0.3878(5) 0.7482(9) 0.1597(2)
H8 H 0.3308 0.7973 0.1576
C12 C 0.5073(5) 0.4804(9) 0.0846(2)
C13 C 0.8124(5) -0.1420(10) -0.1092(3)
H9 H 0.8736 -0.1152 -0.1065
C14 C 0.7628(6) -0.0591(10) -0.0817(3)
H10 H 0.7893 0.0236 -0.0607
C15 C 0.6742(5) -0.0975(9) -0.0852(2)
C16 C 0.6368(5) -0.2120(10) -0.1179(2)
H11 H 0.5751 -0.2368 -0.1224
C17 C 0.6915(5) -0.2897(9) -0.1441(3)
H12 H 0.6658 -0.3692 -0.1665
C18 C 0.6187(5) -0.0138(10) -0.0543(2)
N4 N 0.8462(11) 0.409(2) 0.0141(6)
C19 C 0.7668(13) 0.333(3) 0.0229(8)
H13 H 0.7725 0.2200 0.0300
C20 C 0.8101(17) 0.559(3) -0.0039(8)
H14 H 0.8577 0.6289 -0.0114
H15 H 0.7817 0.6136 0.0196
H16 H 0.7658 0.5396 -0.0324
Pr1B Pr 0.44983(3) -0.25071(5) -0.011807(13)
Pr1B_2 Pr 0.44983(3) 0.74929(5) -0.011807(13)
Cu1A Cu 0.50157(6) 1.06998(11) 0.32984(3)
Cu1B Cu 0.00157(6) 0.43002(11) -0.17016(3)
Cu2A Cu 0.35491(6) 1.20179(11) 0.28585(3)
Cu3A Cu 0.07497(6) 0.42063(12) 0.24951(3)
Cu4A Cu 0.14753(6) 0.39653(11) 0.17567(3)
Cu4C Cu 0.85247(6) -0.39653(11) -0.17567(3)
I1A I 0.37634(3) 1.17954(6) 0.377557(16)
I2A I 0.49484(3) 1.21975(6) 0.245678(18)
I3A I 0.25274(3) 0.46087(5) 0.259025(15)
I4A I -0.00912(3) 0.24941(6) 0.171474(17)
O1B O 0.6411(3) 0.0421(7) 0.05754(18)
O4B O 0.5354(3) 0.4941(6) -0.04332(16)
O6B O 0.4478(4) 0.0877(9) 0.0453(2)
N1B N -0.1155(4) 0.6717(8) 0.1359(2)
N3C N 0.2781(4) 0.7592(7) 0.3603(2)
O8 O 0.6928(15) 0.160(3) 0.1790(8)
C21 C 0.726(2) 0.090(4) 0.2172(10)
N5 N 0.738(2) 0.245(4) 0.2409(11)
C22 C 0.742(2) 0.409(4) 0.2214(12)
O9 O 1.0000 0.0000 0.0000
loop_
_geom_bond_atom_site_label_1
_geom_bond_atom_site_label_2
_geom_bond_site_symmetry_1
_geom_bond_site_symmetry_2
Pr1 O2 1_555 1_555
Cu1 I1 1_555 1_555
Cu2 I1 1_555 1_555
Cu3 I3 1_555 1_555
Cu4 I3 1_555 1_555
I1 Cu4A 1_555 1_555
I2 Cu1 1_555 1_555
I3 Cu2 1_555 1_555
I4 Cu3 1_555 1_555
O1 C6 1_555 1_555
O2 C6 1_555 1_555
O3 Pr1 1_555 1_555
O4 Pr1 1_555 1_555
O5 Pr1 1_555 1_555
O6 C18 1_555 1_555
O7 Pr1 1_555 1_555
N1 C1 1_555 1_555
N2 Cu3 1_555 1_555
N3 C13 1_555 1_555
C1 H1 1_555 1_555
C2 C1 1_555 1_555
H2 C2 1_555 1_555
C3 C2 1_555 1_555
C4 C3 1_555 1_555
H3 C4 1_555 1_555
C5 N1 1_555 1_555
H4 C5 1_555 1_555
C6 C3 1_555 1_555
C7 N2 1_555 1_555
H5 C7 1_555 1_555
C8 C7 1_555 1_555
H6 C8 1_555 1_555
C9 C8 1_555 1_555
C10 C9 1_555 1_555
H7 C10 1_555 1_555
C11 N2 1_555 1_555
H8 C11 1_555 1_555
C12 O3 1_555 1_555
C13 H9 1_555 1_555
C14 C13 1_555 1_555
H10 C14 1_555 1_555
C15 C14 1_555 1_555
C16 C15 1_555 1_555
H11 C16 1_555 1_555
C17 N3 1_555 1_555
H12 C17 1_555 1_555
C18 O5 1_555 1_555
N4 C19 1_555 1_555
C19 O7 1_555 1_555
H13 C19 1_555 1_555
C20 N4 1_555 1_555
H14 C20 1_555 1_555
H15 C20 1_555 1_555
H16 C20 1_555 1_555
O8 C21 1_555 1_555
C21 N5 1_555 1_555
N5 C22 1_555 1_555
Pr1B O1 1_555 1_555
Pr1B_2 O4 1_555 1_555
Cu1A I4 1_555 1_555
Cu1B N1 1_555 1_555
Cu2A I3 1_555 1_555
Cu3A I2 1_555 1_555
Cu4A I3A 1_555 1_555
Cu4C N3 1_555 1_555
I1A Cu4 1_555 1_555
I2A Cu3 1_555 1_555
I3A Cu2 1_555 1_555
I4A Cu1 1_555 1_555
O1B Pr1 1_555 1_555
O4B Pr1 1_555 1_555
O6B Pr1 1_555 1_555
N1B Cu1 1_555 1_555
N3C Cu4 1_555 1_555
Cu2 I2 1_555 1_555
Cu4 I4 1_555 1_555
O4 C12 1_555 1_555
O6 Pr1B 1_555 1_555
C4 C5 1_555 1_555
C9 C12 1_555 1_555
C10 C11 1_555 1_555
C15 C18 1_555 1_555
C16 C17 1_555 1_555
Pr1B_2 O4B 1_555 1_555
Cu1A I1A 1_555 1_555
Cu1A I2A 1_555 1_555
Cu2A I1A 1_555 1_555
Cu2A I2A 1_555 1_555
Cu3A I3A 1_555 1_555
Cu3A I4A 1_555 1_555
Cu4A I4A 1_555 1_555

#END
