
#######################################################################
#
#                 Cambridge Crystallographic Data Centre
#                                CCDC 
#
#######################################################################
#
# If this CIF has been generated from an entry in the Cambridge 
# Structural Database, then it will include bibliographic, chemical, 
# crystal, experimental, refinement or atomic coordinate data resulting 
# from the CCDC's data processing and validation procedures.
#
#######################################################################

data_LENRUS
_chemical_formula_moiety         '(C9 H7 Ag1 N2 O3 S1)n'
_symmetry_cell_setting           orthorhombic
_symmetry_space_group_name_H-M   'P 21 21 21'
_symmetry_Int_Tables_number      19
_space_group_name_Hall           'P 2ac 2ab'
loop_
_symmetry_equiv_pos_site_id
_symmetry_equiv_pos_as_xyz
1 x,y,z
2 1/2-x,-y,1/2+z
3 -x,1/2+y,1/2-z
4 1/2+x,1/2-y,-z
_cell_length_a                   7.0373(5)
_cell_length_b                   10.4399(7)
_cell_length_c                   13.3105(9)
_cell_angle_alpha                90
_cell_angle_beta                 90
_cell_angle_gamma                90
_cell_volume                     977.905
loop_
_atom_site_label
_atom_site_type_symbol
_atom_site_fract_x
_atom_site_fract_y
_atom_site_fract_z
_atom_site_U_iso_or_equiv
_atom_site_thermal_displace_type
Ag1 Ag 0.21885(5) 0.10605(3) 0.68030(2) 0.0395 Uani
S1 S 0.05242(17) 0.46998(9) 0.48408(8) 0.0348 Uani
C1 C 0.1134(5) 0.3786(4) 0.7742(3) 0.0335 Uani
C2 C 0.0975(5) 0.3895(4) 0.6612(3) 0.0270 Uani
C3 C 0.0607(6) 0.4974(4) 0.6105(3) 0.0320 Uani
H1 H 0.0421 0.5770 0.6403 0.0380 Uiso
C4 C 0.0986(5) 0.3097(3) 0.5063(3) 0.0262 Uani
C5 C 0.1055(5) 0.2168(3) 0.4232(3) 0.0252 Uani
C6 C 0.1500(6) 0.2543(4) 0.3255(3) 0.0335 Uani
H2 H 0.1761 0.3396 0.3109 0.0400 Uiso
C7 C 0.1545(7) 0.1633(4) 0.2513(3) 0.0354 Uani
H3 H 0.1827 0.1898 0.1863 0.0430 Uiso
C8 C 0.0717(6) 0.0049(4) 0.3601(3) 0.0347 Uani
H4 H 0.0431 -0.0807 0.3721 0.0410 Uiso
C9 C 0.0605(6) 0.0889(4) 0.4400(3) 0.0307 Uani
H5 H 0.0239 0.0607 0.5033 0.0370 Uiso
N1 N 0.1207(5) 0.2819(3) 0.6013(2) 0.0255 Uani
N2 N 0.1207(6) 0.0382(3) 0.2666(3) 0.0341 Uani
O1 O 0.1567(5) 0.2727(3) 0.8098(2) 0.0497 Uani
O2 O 0.0801(5) 0.4798(3) 0.8228(2) 0.0429 Uani
Ag1A Ag 0.28115(5) -0.10605(3) 0.18030(2) 0.0395 Uani
Ag1B Ag -0.21885(5) 0.60605(3) 0.81970(2) 0.0395 Uani
N2A N 0.3793(6) -0.0382(3) 0.7666(3) 0.0341 Uani
O2B O -0.0801(5) -0.0202(3) 0.6772(2) 0.0429 Uani
O3 O 0.225(2) 0.7709(11) 0.5127(9) 0.0492 Uiso
loop_
_atom_site_aniso_label
_atom_site_aniso_U_11
_atom_site_aniso_U_22
_atom_site_aniso_U_33
_atom_site_aniso_U_23
_atom_site_aniso_U_13
_atom_site_aniso_U_12
Ag1 0.0541(2) 0.02921(16) 0.03505(17) 0.00716(12) -0.00059(14) 0.00807(14)
S1 0.0524(6) 0.0245(5) 0.0276(5) 0.0016(4) 0.0015(5) 0.0067(5)
C1 0.034(2) 0.035(2) 0.0315(19) -0.0069(18) -0.0022(16) 0.0005(19)
C2 0.0269(18) 0.0254(17) 0.0288(18) -0.0056(17) 0.0027(13) 0.0014(16)
C3 0.040(2) 0.027(2) 0.029(2) -0.0072(15) 0.0026(18) 0.0018(18)
C4 0.027(2) 0.0195(17) 0.032(2) -0.0008(15) 0.0000(16) 0.0008(15)
C5 0.0240(19) 0.0253(18) 0.0264(18) -0.0004(14) -0.0019(15) 0.0041(15)
C6 0.044(2) 0.0245(17) 0.032(2) 0.0026(16) -0.0007(18) 0.0048(16)
C7 0.046(3) 0.035(2) 0.0253(19) 0.0042(16) -0.0006(17) 0.0071(19)
C8 0.043(3) 0.027(2) 0.034(2) -0.0004(16) -0.0039(19) 0.0004(18)
C9 0.0338(19) 0.031(2) 0.0274(18) 0.0006(16) 0.0051(15) -0.0013(18)
N1 0.0294(17) 0.0215(15) 0.0257(16) 0.0012(12) 0.0012(14) 0.0009(13)
N2 0.042(2) 0.0334(18) 0.0268(17) -0.0087(14) -0.0045(15) 0.0046(16)
O1 0.085(2) 0.0344(16) 0.0296(15) 0.0024(12) -0.0025(17) 0.0085(16)
O2 0.0583(19) 0.0357(15) 0.0347(15) -0.0117(13) -0.0061(16) 0.0095(14)
Ag1A 0.0541 0.02921 0.03505 -0.00716 0.00059 0.00807
Ag1B 0.0541 0.02921 0.03505 -0.00716 -0.00059 -0.00807
N2A 0.042 0.0334 0.0268 0.0087 0.0045 0.0046
O2B 0.0583 0.0357 0.0347 0.0117 -0.0061 -0.0095
loop_
_geom_bond_atom_site_label_1
_geom_bond_atom_site_label_2
_geom_bond_site_symmetry_1
_geom_bond_site_symmetry_2
Ag1 N1 1_555 1_555
S1 C3 1_555 1_555
C1 C2 1_555 1_555
C2 C3 1_555 1_555
C3 H1 1_555 1_555
C4 S1 1_555 1_555
C5 C4 1_555 1_555
C6 C5 1_555 1_555
H2 C6 1_555 1_555
C7 C6 1_555 1_555
H3 C7 1_555 1_555
C8 H4 1_555 1_555
C9 C5 1_555 1_555
H5 C9 1_555 1_555
N1 C2 1_555 1_555
N2 C7 1_555 1_555
O1 Ag1 1_555 1_555
O2 C1 1_555 1_555
Ag1A N2 1_555 1_555
Ag1B O2 1_555 1_555
N2A Ag1 1_555 1_555
O2B Ag1 1_555 1_555
C1 O1 1_555 1_555
C4 N1 1_555 1_555
C8 C9 1_555 1_555
C8 N2 1_555 1_555

#END
