
#######################################################################
#
#                 Cambridge Crystallographic Data Centre
#                                CCDC 
#
#######################################################################
#
# If this CIF has been generated from an entry in the Cambridge 
# Structural Database, then it will include bibliographic, chemical, 
# crystal, experimental, refinement or atomic coordinate data resulting 
# from the CCDC's data processing and validation procedures.
#
#######################################################################

data_EKOKIA
_chemical_formula_moiety         '(C35 H49 Cd4 N21 O19)n'
_symmetry_cell_setting           monoclinic
_symmetry_space_group_name_H-M   'P 21/c'
_symmetry_Int_Tables_number      14
_space_group_name_Hall           '-P 2ybc'
loop_
_symmetry_equiv_pos_site_id
_symmetry_equiv_pos_as_xyz
1 x,y,z
2 -x,1/2+y,1/2-z
3 -x,-y,-z
4 x,1/2-y,1/2+z
_cell_length_a                   15.3162(11)
_cell_length_b                   12.6184(9)
_cell_length_c                   15.5659(11)
_cell_angle_alpha                90
_cell_angle_beta                 96.1650(10)
_cell_angle_gamma                90
_cell_volume                     2990.96
loop_
_atom_site_label
_atom_site_type_symbol
_atom_site_fract_x
_atom_site_fract_y
_atom_site_fract_z
Cd1 Cd 0.681998(17) 0.82646(2) 0.683930(17)
Cd2 Cd 0.390639(16) 0.830105(19) 0.730819(15)
C1 C 0.9623(3) 0.7603(3) 0.7454(3)
C2 C 1.0558(2) 0.7778(3) 0.7362(3)
C3 C 1.0867(3) 0.8730(4) 0.7111(3)
H1 H 1.0482 0.9287 0.6966
C4 C 1.1755(3) 0.8861(4) 0.7072(3)
H2 H 1.1951 0.9520 0.6907
C5 C 1.2034(3) 0.7177(4) 0.7452(4)
H3 H 1.2430 0.6619 0.7548
C6 C 1.1164(3) 0.6977(4) 0.7525(4)
H4 H 1.0986 0.6307 0.7683
C7 C 0.6309(2) 0.5062(3) 0.5969(2)
C8 C 0.6281(2) 0.4315(3) 0.5240(2)
C9 C 0.5890(2) 0.4625(3) 0.4434(2)
H5 H 0.5643 0.5296 0.4357
C10 C 0.5871(2) 0.3933(3) 0.3752(2)
H6 H 0.5605 0.4152 0.3217
C11 C 0.6612(2) 0.2667(3) 0.4597(2)
H7 H 0.6865 0.1997 0.4653
C12 C 0.6659(3) 0.3316(3) 0.5312(2)
H8 H 0.6942 0.3087 0.5838
C13 C 0.4866(2) 0.9478(3) 0.6145(2)
C14 C 0.5193(2) 1.0199(3) 0.54545(19)
H9 H 0.5835 1.0163 0.5497
C15 C 0.4915(2) 1.1351(3) 0.5595(2)
H10 H 0.5013 1.1758 0.5086
H11 H 0.4289 1.1361 0.5645
C16 C 0.5383(2) 1.1898(3) 0.6379(2)
N1 N 0.8249(2) 0.7765(3) 0.7339(2)
N2 N 0.8453(2) 0.6941(3) 0.7833(3)
N3 N 0.9321(2) 0.6819(3) 0.7911(3)
N4 N 0.8976(2) 0.8210(3) 0.7093(2)
N5 N 1.2345(2) 0.8110(2) 0.7254(2)
N6 N 0.6387(2) 0.6509(2) 0.6653(2)
N7 N 0.6347(2) 0.5754(2) 0.72243(19)
N8 N 0.6299(2) 0.4820(2) 0.68084(18)
N9 N 0.6358(2) 0.6099(2) 0.58529(19)
N10 N 0.6217(2) 0.2960(2) 0.38211(19)
O1 O 0.53746(16) 0.8866(2) 0.65864(16)
O2 O 0.40567(16) 0.95065(19) 0.62298(15)
O3 O 0.60672(17) 1.1531(2) 0.67688(16)
O4 O 0.50779(17) 1.2777(2) 0.66004(16)
O5 O 0.6584(2) 0.8377(3) 0.82355(19)
O6 O 0.7154(2) 0.7991(2) 0.54493(19)
O7 O 0.72593(18) 0.9953(2) 0.6708(2)
H12 H 0.6997 0.8381 0.8655
H13 H 0.7241 0.8310 0.4983
H14 H 0.7550 1.0141 0.6293
H15 H 0.6076 0.8198 0.8332
H16 H 0.7111 0.7321 0.5432
H17 H 0.6856 1.0404 0.6722
C13B C 0.5134(2) 1.0522(3) 0.3855(2)
C14B C 0.4807(2) 0.9801(3) 0.45455(19)
H9B H 0.4165 0.9837 0.4503
C15B C 0.5085(2) 0.8649(3) 0.4405(2)
H10B H 0.4987 0.8242 0.4914
H11B H 0.5711 0.8639 0.4355
C16B C 0.4617(2) 0.8102(3) 0.3621(2)
O1B O 0.46254(16) 1.1134(2) 0.34136(16)
O2B O 0.59433(16) 1.04935(19) 0.37702(15)
O3B O 0.39328(17) 0.8469(2) 0.32312(16)
O4B O 0.49221(17) 0.7223(2) 0.33996(16)
Cd1B Cd 0.318002(17) 0.17354(2) 0.316070(17)
Cd2B Cd 0.609361(16) 0.169895(19) 0.269181(15)
C1B C 0.0377(3) 0.2397(3) 0.2546(3)
C2B C -0.0558(2) 0.2222(3) 0.2638(3)
C3B C -0.0867(3) 0.1270(4) 0.2889(3)
H1B H -0.0482 0.0713 0.3034
C4B C -0.1755(3) 0.1139(4) 0.2928(3)
H2B H -0.1951 0.0480 0.3093
C5B C -0.2034(3) 0.2823(4) 0.2548(4)
H3B H -0.2430 0.3381 0.2452
C6B C -0.1164(3) 0.3023(4) 0.2475(4)
H4B H -0.0986 0.3693 0.2317
C7B C 0.3691(2) 0.4938(3) 0.4031(2)
C8B C 0.3719(2) 0.5685(3) 0.4760(2)
C9B C 0.4110(2) 0.5375(3) 0.5566(2)
H5B H 0.4357 0.4704 0.5643
C10B C 0.4129(2) 0.6067(3) 0.6248(2)
H6B H 0.4395 0.5848 0.6783
C11B C 0.3388(2) 0.7333(3) 0.5403(2)
H7B H 0.3135 0.8003 0.5347
C12B C 0.3341(3) 0.6684(3) 0.4688(2)
H8B H 0.3058 0.6913 0.4162
N1B N 0.1751(2) 0.2235(3) 0.2661(2)
N2B N 0.1547(2) 0.3059(3) 0.2167(3)
N3B N 0.0679(2) 0.3181(3) 0.2089(3)
N4B N 0.1024(2) 0.1790(3) 0.2907(2)
N5B N -0.2345(2) 0.1890(2) 0.2746(2)
N6B N 0.3613(2) 0.3491(2) 0.3347(2)
N7B N 0.3653(2) 0.4246(2) 0.27757(19)
N8B N 0.3701(2) 0.5180(2) 0.31916(18)
N9B N 0.3642(2) 0.3901(2) 0.41471(19)
N10B N 0.3783(2) 0.7040(2) 0.61789(19)
O5B O 0.3416(2) 0.1623(3) 0.17645(19)
O6B O 0.2846(2) 0.2009(2) 0.45507(19)
O7B O 0.27407(18) 0.0047(2) 0.3292(2)
H12B H 0.3003 0.1619 0.1345
H13B H 0.2759 0.1690 0.5017
H14B H 0.2450 -0.0141 0.3707
H15B H 0.3924 0.1802 0.1668
H16B H 0.2889 0.2679 0.4568
H17B H 0.3144 -0.0404 0.3278
Cd1B_2 Cd 0.318002(17) 1.17354(2) 0.316070(17)
Cd2_2 Cd 1.390639(16) 0.830105(19) 0.730819(15)
Cd2A Cd 0.609361(16) 0.330105(19) 0.769181(15)
Cd2A_2 Cd 0.609361(16) 1.330105(19) 0.769181(15)
Cd2B_2 Cd -0.390639(16) 0.169895(19) 0.269181(15)
Cd2B_3 Cd 0.609361(16) 1.169895(19) 0.269181(15)
Cd2C Cd 0.390639(16) 0.669895(19) 0.230819(15)
N5_2 N 0.2345(2) 0.8110(2) 0.7254(2)
N5B_2 N 0.7655(2) 0.1890(2) 0.2746(2)
N8A N 0.3701(2) 0.9820(2) 0.81916(18)
N8C N 0.6299(2) 0.0180(2) 0.18084(18)
O1B_2 O 0.46254(16) 0.1134(2) 0.34136(16)
O2B_2 O 0.59433(16) 0.04935(19) 0.37702(15)
O3A O 0.39328(17) 0.6531(2) 0.82312(16)
O3C O 0.60672(17) 0.3469(2) 0.17688(16)
O4A O 0.49221(17) 0.7777(2) 0.83996(16)
O4C O 0.50779(17) 0.2223(2) 0.16004(16)
C17 C 0.8223(5) -0.0239(6) -0.0550(5)
H18 H 0.8106 0.0150 -0.1057
C18 C 0.8838(6) -0.0327(8) 0.0926(5)
H19 H 0.8478 -0.0010 0.1324
H20 H 0.9446 -0.0260 0.1146
H21 H 0.8691 -0.1063 0.0854
C19 C 0.8994(6) 0.1293(7) 0.0083(7)
H22 H 0.8857 0.1579 -0.0487
H23 H 0.9618 0.1311 0.0236
H24 H 0.8710 0.1708 0.0488
N11 N 0.8688(3) 0.0206(5) 0.0100(4)
O8 O 0.7929(3) -0.1149(4) -0.0531(3)
O9 O 0.0175(3) 0.9133(5) 0.4468(4)
H25 H 0.0221 0.8549 0.4746
H26 H -0.0068 0.9052 0.3956
O10 O 0.25669(18) 0.0892(2) 0.59780(18)
H27 H 0.2270 0.1240 0.6309
H28 H 0.3077 0.0689 0.6202
O11 O 0.8037(3) 0.0615(3) 0.5323(2)
H29 H 0.8601 0.0691 0.5407
H30 H 0.8000 0.0147 0.4927
O12 O 0.9219(6) 0.7878(9) 0.5245(6)
H31 H 0.8977 0.8149 0.5660
H32 H 0.9234 0.7558 0.4766
loop_
_geom_bond_atom_site_label_1
_geom_bond_atom_site_label_2
_geom_bond_site_symmetry_1
_geom_bond_site_symmetry_2
Cd1 N1 1_555 1_555
Cd2 O1 1_555 1_555
C1 C2 1_555 1_555
C2 C3 1_555 1_555
C3 H1 1_555 1_555
C4 C3 1_555 1_555
H2 C4 1_555 1_555
C5 H3 1_555 1_555
C6 C2 1_555 1_555
H4 C6 1_555 1_555
C7 C8 1_555 1_555
C8 C9 1_555 1_555
C9 H5 1_555 1_555
C10 C9 1_555 1_555
H6 C10 1_555 1_555
C11 H7 1_555 1_555
C12 C8 1_555 1_555
H8 C12 1_555 1_555
C13 C14 1_555 1_555
C14 H9 1_555 1_555
C15 C14 1_555 1_555
H10 C15 1_555 1_555
H11 C15 1_555 1_555
C16 C15 1_555 1_555
N1 N2 1_555 1_555
N2 N3 1_555 1_555
N3 C1 1_555 1_555
N4 C1 1_555 1_555
N5 C4 1_555 1_555
N6 Cd1 1_555 1_555
N7 N6 1_555 1_555
N8 C7 1_555 1_555
N9 C7 1_555 1_555
N10 C10 1_555 1_555
O1 Cd1 1_555 1_555
O2 Cd2 1_555 1_555
O3 C16 1_555 1_555
O4 C16 1_555 1_555
O5 Cd1 1_555 1_555
O6 Cd1 1_555 1_555
O7 Cd1 1_555 1_555
H12 O5 1_555 1_555
H13 O6 1_555 1_555
H14 O7 1_555 1_555
H15 O5 1_555 1_555
H16 O6 1_555 1_555
H17 O7 1_555 1_555
C17 H18 1_555 1_555
C18 H19 1_555 1_555
H20 C18 1_555 1_555
H21 C18 1_555 1_555
C19 H22 1_555 1_555
H23 C19 1_555 1_555
H24 C19 1_555 1_555
N11 C17 1_555 1_555
O8 C17 1_555 1_555
O9 H25 1_555 1_555
H26 O9 1_555 1_555
O10 H27 1_555 1_555
H28 O10 1_555 1_555
O11 H29 1_555 1_555
H30 O11 1_555 1_555
O12 H31 1_555 1_555
H32 O12 1_555 1_555
C13B C14B 1_555 1_555
C14B C14 1_555 1_555
H9B C14B 1_555 1_555
C15B C14B 1_555 1_555
H10B C15B 1_555 1_555
H11B C15B 1_555 1_555
C16B C15B 1_555 1_555
O1B C13B 1_555 1_555
O2B C13B 1_555 1_555
O3B C16B 1_555 1_555
O4B C16B 1_555 1_555
Cd1B N1B 1_555 1_555
Cd2B N10 1_555 1_555
C1B C2B 1_555 1_555
C2B C3B 1_555 1_555
C3B H1B 1_555 1_555
C4B C3B 1_555 1_555
H2B C4B 1_555 1_555
C5B H3B 1_555 1_555
C6B C2B 1_555 1_555
H4B C6B 1_555 1_555
C7B C8B 1_555 1_555
C8B C9B 1_555 1_555
C9B H5B 1_555 1_555
C10B C9B 1_555 1_555
H6B C10B 1_555 1_555
C11B H7B 1_555 1_555
C12B C8B 1_555 1_555
H8B C12B 1_555 1_555
N1B N2B 1_555 1_555
N2B N3B 1_555 1_555
N3B C1B 1_555 1_555
N4B C1B 1_555 1_555
N5B C4B 1_555 1_555
N6B Cd1B 1_555 1_555
N7B N6B 1_555 1_555
N8B C7B 1_555 1_555
N9B C7B 1_555 1_555
N10B Cd2 1_555 1_555
O5B Cd1B 1_555 1_555
O6B Cd1B 1_555 1_555
O7B Cd1B 1_555 1_555
H12B O5B 1_555 1_555
H13B O6B 1_555 1_555
H14B O7B 1_555 1_555
H15B O5B 1_555 1_555
H16B O6B 1_555 1_555
H17B O7B 1_555 1_555
Cd1B_2 O1B 1_555 1_555
Cd2_2 N5 1_555 1_555
Cd2A N8 1_555 1_555
Cd2A_2 O3 1_555 1_555
Cd2B_2 N5B 1_555 1_555
Cd2B_3 O1B 1_555 1_555
Cd2C O3B 1_555 1_555
N5_2 Cd2 1_555 1_555
N5B_2 Cd2B 1_555 1_555
N8A Cd2 1_555 1_555
N8C Cd2B 1_555 1_555
O1B_2 Cd1B 1_555 1_555
O2B_2 Cd2B 1_555 1_555
O3A Cd2 1_555 1_555
O3C Cd2B 1_555 1_555
O4A Cd2 1_555 1_555
O4C Cd2B 1_555 1_555
C5 C6 1_555 1_555
C5 N5 1_555 1_555
C11 C12 1_555 1_555
C11 N10 1_555 1_555
C13 O1 1_555 1_555
C13 O2 1_555 1_555
N1 N4 1_555 1_555
N6 N9 1_555 1_555
N7 N8 1_555 1_555
O4 Cd2A_2 1_555 1_555
C18 N11 1_555 1_555
C19 N11 1_555 1_555
O2B Cd2B_3 1_555 1_555
O4B Cd2C 1_555 1_555
Cd2B O1B_2 1_555 1_555
C5B C6B 1_555 1_555
C5B N5B 1_555 1_555
C10B N10B 1_555 1_555
C11B C12B 1_555 1_555
C11B N10B 1_555 1_555
N1B N4B 1_555 1_555
N6B N9B 1_555 1_555
N7B N8B 1_555 1_555
N8B Cd2C 1_555 1_555

#END
