
#######################################################################
#
#                 Cambridge Crystallographic Data Centre
#                                CCDC 
#
#######################################################################
#
# If this CIF has been generated from an entry in the Cambridge 
# Structural Database, then it will include bibliographic, chemical, 
# crystal, experimental, refinement or atomic coordinate data resulting 
# from the CCDC's data processing and validation procedures.
#
#######################################################################

data_KECRAL12
_chemical_formula_moiety         'C9 H10 Cd2 N7 O3'
_symmetry_cell_setting           orthorhombic
_symmetry_space_group_name_H-M   'P b c m'
_symmetry_Int_Tables_number      57
_space_group_name_Hall           '-P 2c 2b'
loop_
_symmetry_equiv_pos_site_id
_symmetry_equiv_pos_as_xyz
1 x,y,z
2 x,y,1/2-z
3 -x,1/2+y,z
4 x,1/2-y,1/2+z
5 -x,-y,-z
6 -x,-y,1/2+z
7 x,1/2-y,-z
8 -x,1/2+y,1/2-z
_cell_length_a                   8.694(1)
_cell_length_b                   16.908(4)
_cell_length_c                   21.157(3)
_cell_angle_alpha                90
_cell_angle_beta                 90
_cell_angle_gamma                90
_cell_volume                     3110.04
loop_
_atom_site_label
_atom_site_type_symbol
_atom_site_fract_x
_atom_site_fract_y
_atom_site_fract_z
C5 C 0.0170(7) 0.1250(6) 0.5934(3)
O3 O 0.0458(6) 0.1242(3) 0.6612(2)
C6 C -0.0866(15) 0.1947(8) 0.5824(7)
C7 C -0.0830(16) 0.0521(8) 0.5794(7)
C8 C 0.1612(15) 0.1236(9) 0.5576(6)
Cd1 Cd 0.01046(6) 0.12374(7) 0.2500
Cd2 Cd -0.48951(4) 0.12496(5) 0.414978(17)
C1 C -0.2798(7) 0.1180(5) 0.3575(3)
N1 N -0.1758(6) 0.1128(4) 0.3264(2)
C2 C -0.6995(7) 0.1322(5) 0.3576(3)
N2 N 0.1966(6) 0.1344(4) 0.3257(2)
C3 C -0.4783(7) 0.2248(4) 0.4816(5)
N4 N -0.4986(5) 0.0248(4) 0.4817(5)
O1 O 0.0495(10) -0.0116(4) 0.2500
O2 O -0.0297(10) 0.2599(5) 0.2500
N1A N -0.1758(6) 0.1128(4) 0.1736(2)
N2A N 0.1966(6) 0.1344(4) 0.1743(2)
N2_2 N -0.8034(6) 0.1344(4) 0.3257(2)
C2_2 C 0.3005(7) 0.1322(5) 0.3576(3)
C3F C -0.4783(7) 0.2752(4) 0.5184(5)
N4D N -0.5014(5) -0.0248(4) 0.5183(5)
loop_
_geom_bond_atom_site_label_1
_geom_bond_atom_site_label_2
_geom_bond_site_symmetry_1
_geom_bond_site_symmetry_2
Cd1 N1 1_555 1_555
Cd2 C1 1_555 1_555
C1 N1 1_555 1_555
C2 Cd2 1_555 1_555
N2 Cd1 1_555 1_555
C3 Cd2 1_555 1_555
N4 Cd2 1_555 1_555
O1 Cd1 1_555 1_555
O2 Cd1 1_555 1_555
C5 O3 1_555 1_555
C6 C5 1_555 1_555
C7 C5 1_555 1_555
C8 C5 1_555 1_555
N1A Cd1 1_555 1_555
N2A Cd1 1_555 1_555
N2_2 C2 1_555 1_555
C2_2 N2 1_555 1_555
C3F C3 1_555 1_555
N4D N4 1_555 1_555

#END
