
#######################################################################
#
#                 Cambridge Crystallographic Data Centre
#                                CCDC 
#
#######################################################################
#
# If this CIF has been generated from an entry in the Cambridge 
# Structural Database, then it will include bibliographic, chemical, 
# crystal, experimental, refinement or atomic coordinate data resulting 
# from the CCDC's data processing and validation procedures.
#
#######################################################################

data_KECRAL11
_chemical_formula_moiety         'C5 Cd2 N7 O4'
_symmetry_cell_setting           orthorhombic
_symmetry_space_group_name_H-M   'C m m m'
_symmetry_Int_Tables_number      65
_space_group_name_Hall           '-C 2 2'
loop_
_symmetry_equiv_pos_site_id
_symmetry_equiv_pos_as_xyz
1 x,y,z
2 -x,-y,z
3 x,-y,-z
4 -x,y,-z
5 1/2+x,1/2+y,z
6 1/2-x,1/2-y,z
7 1/2+x,1/2-y,-z
8 1/2-x,1/2+y,-z
9 -x,-y,-z
10 x,y,-z
11 -x,y,z
12 x,-y,z
13 1/2-x,1/2-y,-z
14 1/2+x,1/2+y,-z
15 1/2-x,1/2+y,z
16 1/2+x,1/2-y,z
_cell_length_a                   8.548(1)
_cell_length_b                   21.092(4)
_cell_length_c                   8.695(1)
_cell_angle_alpha                90
_cell_angle_beta                 90
_cell_angle_gamma                90
_cell_volume                     1567.66
loop_
_atom_site_label
_atom_site_type_symbol
_atom_site_fract_x
_atom_site_fract_y
_atom_site_fract_z
_atom_site_U_iso_or_equiv
_atom_site_thermal_displace_type
Cd1 Cd 0.0000 0.0000 0.0000 0.0477 Uani
Cd2 Cd -0.0000 -0.16603(2) 0.5000 0.0484 Uani
N1 N 0.0000 -0.0761(2) 0.1876(5) 0.0770 Uani
C1 C 0.0000 -0.1084(2) 0.2895(5) 0.0600 Uani
N2 N -0.215(2) -0.2275(8) 0.5000 0.0397 Uani
C2 C -0.178(3) -0.2402(11) 0.5000 0.0537 Uani
O1 O 0.2723(8) 0.0000 -0.0362(10) 0.0677 Uani
N1A N -0.0000 0.0761(2) 0.1876(5) 0.0770 Uani
N1B N -0.0000 0.0761(2) -0.1876(5) 0.0770 Uani
N1C N 0.0000 -0.0761(2) -0.1876(5) 0.0770 Uani
O1A O -0.2723(8) 0.0000 -0.0362(10) 0.0677 Uani
O1B O 0.2723(8) 0.0000 0.0362(10) 0.0677 Uani
O1C O -0.2723(8) 0.0000 0.0362(10) 0.0677 Uani
C1C C -0.0000 -0.1084(2) 0.7105(5) 0.0600 Uani
N2C N 0.215(2) -0.2275(8) 0.5000 0.0397 Uani
C2C C 0.178(3) -0.2402(11) 0.5000 0.0537 Uani
N2E N -0.285(2) -0.2725(8) 0.5000 0.0397 Uani
C2E C -0.322(3) -0.2598(11) 0.5000 0.0537 Uani
loop_
_atom_site_aniso_label
_atom_site_aniso_U_11
_atom_site_aniso_U_22
_atom_site_aniso_U_33
_atom_site_aniso_U_23
_atom_site_aniso_U_13
_atom_site_aniso_U_12
Cd1 0.0630(5) 0.0419(4) 0.0381(3) 0.000 0.000 0.000
Cd2 0.0623(4) 0.0415(3) 0.0415(3) 0.000 0.000 0.000
N1 0.119(4) 0.057(3) 0.055(2) 0.013(2) 0.000 0.000
C1 0.079(3) 0.056(3) 0.045(2) 0.008(2) 0.000 0.000
N2 0.026(7) 0.035(6) 0.058(5) 0.000 0.000 0.017(5)
C2 0.042 0.047 0.072 0 0 0.024
O1 0.060(4) 0.059(3) 0.084(9) 0.000 0.006(4) 0.000
N1A 0.119 0.057 0.055 -0.013 0 0
N1B 0.119 0.057 0.055 0.013 0 0
N1C 0.119 0.057 0.055 -0.013 0 0
O1A 0.06 0.059 0.084 0 -0.006 0
O1B 0.06 0.059 0.084 0 -0.006 0
O1C 0.06 0.059 0.084 0 0.006 0
C1C 0.079 0.056 0.045 -0.008 0 0
N2C 0.026 0.035 0.058 0 0 -0.017
C2C 0.042 0.047 0.072 0 0 -0.024
N2E 0.026 0.035 0.058 0 0 0.017
C2E 0.042 0.047 0.072 0 0 0.024
loop_
_geom_bond_atom_site_label_1
_geom_bond_atom_site_label_2
_geom_bond_site_symmetry_1
_geom_bond_site_symmetry_2
Cd1 N1 1_555 1_555
Cd2 C1 1_555 1_555
N1 C1 1_555 1_555
N2 Cd2 1_555 1_555
C2 Cd2 1_555 1_555
O1 Cd1 1_555 1_555
N1A Cd1 1_555 1_555
N1B Cd1 1_555 1_555
N1C Cd1 1_555 1_555
O1A Cd1 1_555 1_555
O1B Cd1 1_555 1_555
O1C Cd1 1_555 1_555
C1C Cd2 1_555 1_555
N2C Cd2 1_555 1_555
C2C Cd2 1_555 1_555
N2E N2 1_555 1_555
C2E N2 1_555 1_555
N2 C2 1_555 1_555
C2 C2E 1_555 1_555
C2 N2E 1_555 1_555
O1 O1B 1_555 1_555
O1A O1C 1_555 1_555
N2C C2C 1_555 1_555
N2E C2E 1_555 1_555

#END
