
#######################################################################
#
#                 Cambridge Crystallographic Data Centre
#                                CCDC 
#
#######################################################################
#
# If this CIF has been generated from an entry in the Cambridge 
# Structural Database, then it will include bibliographic, chemical, 
# crystal, experimental, refinement or atomic coordinate data resulting 
# from the CCDC's data processing and validation procedures.
#
#######################################################################

data_PAJRUQ
_chemical_formula_moiety         '(C36 H36 N24 Zn6)n'
_symmetry_cell_setting           orthorhombic
_symmetry_space_group_name_H-M   'P n m a'
_symmetry_Int_Tables_number      62
_space_group_name_Hall           '-P 2ac 2n'
loop_
_symmetry_equiv_pos_site_id
_symmetry_equiv_pos_as_xyz
1 x,y,z
2 1/2-x,-y,1/2+z
3 1/2+x,1/2-y,1/2-z
4 -x,1/2+y,-z
5 -x,-y,-z
6 1/2+x,y,1/2-z
7 1/2-x,1/2+y,1/2+z
8 x,1/2-y,z
_cell_length_a                   9.6256(8)
_cell_length_b                   23.436(2)
_cell_length_c                   41.593(3)
_cell_angle_alpha                90
_cell_angle_beta                 90
_cell_angle_gamma                90
_cell_volume                     9382.78
loop_
_atom_site_label
_atom_site_type_symbol
_atom_site_fract_x
_atom_site_fract_y
_atom_site_fract_z
Zn1 Zn 0.79618(12) 0.50186(5) 0.91718(3)
Zn2 Zn 0.70126(12) 0.37567(5) 1.03948(3)
Zn3 Zn 0.79661(13) 0.37476(5) 0.79178(3)
N1 N 0.7510(8) 0.4407(3) 0.9470(2)
N2 N 0.7167(8) 0.3931(3) 0.99333(18)
N3 N 0.7550(7) 0.4773(4) 0.87313(17)
N4 N 0.7548(8) 0.4294(4) 0.8263(2)
N5 N 0.6775(7) 0.5666(3) 0.92832(18)
N6 N 0.4876(7) 0.6117(3) 0.94486(19)
N7 N 0.8207(7) 0.4274(3) 1.06334(18)
N8 N 1.0104(7) 0.4726(3) 1.07983(19)
N9 N 0.6740(8) 0.3899(3) 0.75522(18)
N10 N 0.4843(7) 0.3901(3) 0.72409(18)
N11 N 0.7571(6) 0.2970(3) 1.04841(18)
N12 N 0.7755(7) 0.2978(3) 0.80786(17)
C1 C 0.7558(8) 0.4395(4) 0.9787(2)
H1 H 0.7864 0.4710 0.9903
C2 C 0.6721(14) 0.3606(5) 0.9672(3)
H2 H 0.6327 0.3245 0.9686
C3 C 0.6946(14) 0.3893(5) 0.9400(3)
H3 H 0.6746 0.3761 0.9194
C4 C 0.8054(10) 0.4348(4) 0.8558(2)
H4 H 0.8726 0.4102 0.8639
C5 C 0.6621(12) 0.4728(5) 0.8243(3)
H5 H 0.6059 0.4809 0.8067
C6 C 0.6652(12) 0.5025(5) 0.8525(3)
H6 H 0.6135 0.5352 0.8568
C7 C 0.5537(9) 0.5635(4) 0.9424(2)
H7 H 0.5169 0.5293 0.9498
C8 C 0.5687(11) 0.6495(5) 0.9294(3)
H8 H 0.5480 0.6878 0.9259
C9 C 0.6860(12) 0.6224(5) 0.9196(3)
H9 H 0.7599 0.6391 0.9088
C10 C 0.9522(9) 0.4378(4) 1.0587(2)
H10 H 1.0016 0.4220 1.0416
C11 C 0.9122(12) 0.4815(5) 1.1022(3)
H11 H 0.9214 0.5022 1.1212
C12 C 0.7936(13) 0.4535(6) 1.0912(3)
H12 H 0.7082 0.4531 1.1016
C13 C 0.5463(11) 0.3662(4) 0.7487(2)
H13 H 0.5080 0.3365 0.7606
C14 C 0.5694(12) 0.4336(5) 0.7147(2)
H14 H 0.5522 0.4589 0.6979
C15 C 0.6814(12) 0.4340(5) 0.7336(3)
H15 H 0.7537 0.4602 0.7323
C16 C 0.7062(13) 0.2500 1.0367(3)
H16 H 0.6377 0.2500 1.0209
C17 C 0.8511(10) 0.2788(3) 1.0695(2)
H17 H 0.9075 0.3019 1.0821
C18 C 0.7952(14) 0.2500 0.7922(3)
H18 H 0.8223 0.2500 0.7708
C19 C 0.7341(9) 0.2781(4) 0.8380(2)
H19 H 0.7103 0.3010 0.8554
N11G N 0.7571(6) 0.2030(3) 1.04841(18)
C17G C 0.8511(10) 0.2212(3) 1.0695(2)
H17G H 0.9075 0.1981 1.0821
N12G N 0.7755(7) 0.2022(3) 0.80786(17)
C19G C 0.7341(9) 0.2219(4) 0.8380(2)
H19G H 0.7103 0.1990 0.8554
Zn1D Zn 0.20382(12) 0.49814(5) 1.08282(3)
Zn2D Zn 0.29874(12) 0.62433(5) 0.96052(3)
Zn3D Zn 0.20339(13) 0.62524(5) 1.20822(3)
N1D N 0.2490(8) 0.5593(3) 1.0530(2)
N2D N 0.2833(8) 0.6069(3) 1.00667(18)
N3D N 0.2450(7) 0.5227(4) 1.12687(17)
N4D N 0.2452(8) 0.5706(4) 1.1737(2)
N5D N 0.3225(7) 0.4334(3) 1.07168(18)
N6D N 0.5124(7) 0.3883(3) 1.05514(19)
N7D N 0.1793(7) 0.5726(3) 0.93666(18)
N8D N -0.0104(7) 0.5274(3) 0.92017(19)
N9D N 0.3260(8) 0.6101(3) 1.24478(18)
N10D N 0.5157(7) 0.6099(3) 1.27591(18)
C1D C 0.2442(8) 0.5605(4) 1.0213(2)
H1D H 0.2136 0.5290 1.0097
C2D C 0.3279(14) 0.6394(5) 1.0328(3)
H2D H 0.3673 0.6755 1.0314
C3D C 0.3054(14) 0.6107(5) 1.0600(3)
H3D H 0.3254 0.6239 1.0806
C4D C 0.1946(10) 0.5652(4) 1.1442(2)
H4D H 0.1274 0.5898 1.1361
C5D C 0.3379(12) 0.5272(5) 1.1757(3)
H5D H 0.3941 0.5191 1.1933
C6D C 0.3348(12) 0.4975(5) 1.1475(3)
H6D H 0.3865 0.4648 1.1432
C7D C 0.4463(9) 0.4365(4) 1.0576(2)
H7D H 0.4831 0.4707 1.0502
C8D C 0.4313(11) 0.3505(5) 1.0706(3)
H8D H 0.4520 0.3122 1.0741
C9D C 0.3140(12) 0.3776(5) 1.0804(3)
H9D H 0.2401 0.3609 1.0912
C10D C 0.0478(9) 0.5622(4) 0.9413(2)
H10D H -0.0016 0.5780 0.9584
C11D C 0.0878(12) 0.5185(5) 0.8978(3)
H11D H 0.0786 0.4978 0.8788
C12D C 0.2064(13) 0.5465(6) 0.9088(3)
H12D H 0.2918 0.5469 0.8984
C13D C 0.4537(11) 0.6338(4) 1.2513(2)
H13D H 0.4920 0.6635 1.2394
C14D C 0.4306(12) 0.5664(5) 1.2853(2)
H14D H 0.4478 0.5411 1.3021
C15D C 0.3186(12) 0.5660(5) 1.2664(3)
H15D H 0.2463 0.5398 1.2677
Zn1_2 Zn -0.20382(12) 0.50186(5) 0.91718(3)
Zn1D_2 Zn 1.20382(12) 0.49814(5) 1.08282(3)
Zn2G Zn 0.70126(12) 0.12433(5) 1.03948(3)
Zn3A Zn 0.70339(13) 0.62524(5) 1.29178(3)
Zn3E Zn 0.29661(13) 0.37476(5) 0.70822(3)
Zn3G Zn 0.79661(13) 0.12524(5) 0.79178(3)
N8_2 N 0.0104(7) 0.4726(3) 1.07983(19)
N8D_2 N 0.9896(7) 0.5274(3) 0.92017(19)
N10A N 0.0157(7) 0.6099(3) 1.22409(18)
N10E N 0.9843(7) 0.3901(3) 0.77591(18)
N11D N 0.2429(6) 0.7030(3) 0.95159(18)
N12D N 0.2245(7) 0.7022(3) 1.19214(17)
loop_
_geom_bond_atom_site_label_1
_geom_bond_atom_site_label_2
_geom_bond_site_symmetry_1
_geom_bond_site_symmetry_2
Zn1 N1 1_555 1_555
Zn2 N2 1_555 1_555
Zn3 N4 1_555 1_555
N1 C1 1_555 1_555
N2 C1 1_555 1_555
N3 Zn1 1_555 1_555
N4 C4 1_555 1_555
N5 Zn1 1_555 1_555
N6 C7 1_555 1_555
N7 Zn2 1_555 1_555
N8 C10 1_555 1_555
N9 Zn3 1_555 1_555
N10 C13 1_555 1_555
N11 Zn2 1_555 1_555
N12 Zn3 1_555 1_555
C1 H1 1_555 1_555
C2 N2 1_555 1_555
H2 C2 1_555 1_555
C3 N1 1_555 1_555
H3 C3 1_555 1_555
C4 N3 1_555 1_555
H4 C4 1_555 1_555
C5 N4 1_555 1_555
H5 C5 1_555 1_555
C6 N3 1_555 1_555
H6 C6 1_555 1_555
C7 N5 1_555 1_555
H7 C7 1_555 1_555
C8 N6 1_555 1_555
H8 C8 1_555 1_555
C9 N5 1_555 1_555
H9 C9 1_555 1_555
C10 N7 1_555 1_555
H10 C10 1_555 1_555
C11 N8 1_555 1_555
H11 C11 1_555 1_555
C12 N7 1_555 1_555
H12 C12 1_555 1_555
C13 N9 1_555 1_555
H13 C13 1_555 1_555
C14 N10 1_555 1_555
H14 C14 1_555 1_555
C15 N9 1_555 1_555
H15 C15 1_555 1_555
C16 N11 1_555 1_555
H16 C16 1_555 1_555
C17 N11 1_555 1_555
H17 C17 1_555 1_555
C18 N12 1_555 1_555
H18 C18 1_555 1_555
C19 N12 1_555 1_555
H19 C19 1_555 1_555
N11G C16 1_555 1_555
C17G C17 1_555 1_555
H17G C17G 1_555 1_555
N12G C18 1_555 1_555
C19G C19 1_555 1_555
H19G C19G 1_555 1_555
Zn1D N1D 1_555 1_555
Zn2D N6 1_555 1_555
Zn3D N4D 1_555 1_555
N1D C1D 1_555 1_555
N2D Zn2D 1_555 1_555
N3D Zn1D 1_555 1_555
N4D C4D 1_555 1_555
N5D Zn1D 1_555 1_555
N6D Zn2 1_555 1_555
N7D Zn2D 1_555 1_555
N8D C10D 1_555 1_555
N9D Zn3D 1_555 1_555
N10D C13D 1_555 1_555
C1D N2D 1_555 1_555
H1D C1D 1_555 1_555
C2D N2D 1_555 1_555
H2D C2D 1_555 1_555
C3D N1D 1_555 1_555
H3D C3D 1_555 1_555
C4D N3D 1_555 1_555
H4D C4D 1_555 1_555
C5D N4D 1_555 1_555
H5D C5D 1_555 1_555
C6D N3D 1_555 1_555
H6D C6D 1_555 1_555
C7D N5D 1_555 1_555
H7D C7D 1_555 1_555
C8D N6D 1_555 1_555
H8D C8D 1_555 1_555
C9D N5D 1_555 1_555
H9D C9D 1_555 1_555
C10D N7D 1_555 1_555
H10D C10D 1_555 1_555
C11D N8D 1_555 1_555
H11D C11D 1_555 1_555
C12D N7D 1_555 1_555
H12D C12D 1_555 1_555
C13D N9D 1_555 1_555
H13D C13D 1_555 1_555
C14D N10D 1_555 1_555
H14D C14D 1_555 1_555
C15D N9D 1_555 1_555
H15D C15D 1_555 1_555
Zn1_2 N8D 1_555 1_555
Zn1D_2 N8 1_555 1_555
Zn2G N11G 1_555 1_555
Zn3A N10D 1_555 1_555
Zn3E N10 1_555 1_555
Zn3G N12G 1_555 1_555
N8_2 Zn1D 1_555 1_555
N8D_2 Zn1 1_555 1_555
N10A Zn3D 1_555 1_555
N10E Zn3 1_555 1_555
N11D Zn2D 1_555 1_555
N12D Zn3D 1_555 1_555
C2 C3 1_555 1_555
C5 C6 1_555 1_555
C8 C9 1_555 1_555
C11 C12 1_555 1_555
C14 C15 1_555 1_555
N11G C17G 1_555 1_555
N12G C19G 1_555 1_555
N6D C7D 1_555 1_555
C2D C3D 1_555 1_555
C5D C6D 1_555 1_555
C8D C9D 1_555 1_555
C11D C12D 1_555 1_555
C14D C15D 1_555 1_555

#END
