
#######################################################################
#
#                 Cambridge Crystallographic Data Centre
#                                CCDC 
#
#######################################################################
#
# If this CIF has been generated from an entry in the Cambridge 
# Structural Database, then it will include bibliographic, chemical, 
# crystal, experimental, refinement or atomic coordinate data resulting 
# from the CCDC's data processing and validation procedures.
#
#######################################################################

data_PAJSAX
_chemical_formula_moiety         '(C45 H55 N25 O1 Zn6)n'
_symmetry_cell_setting           orthorhombic
_symmetry_space_group_name_H-M   'P n m a'
_symmetry_Int_Tables_number      62
_space_group_name_Hall           '-P 2ac 2n'
loop_
_symmetry_equiv_pos_site_id
_symmetry_equiv_pos_as_xyz
1 x,y,z
2 1/2-x,-y,1/2+z
3 1/2+x,1/2-y,1/2-z
4 -x,1/2+y,-z
5 -x,-y,-z
6 1/2+x,y,1/2-z
7 1/2-x,1/2+y,1/2+z
8 x,1/2-y,z
_cell_length_a                   9.6256(8)
_cell_length_b                   23.436(2)
_cell_length_c                   41.593(3)
_cell_angle_alpha                90
_cell_angle_beta                 90
_cell_angle_gamma                90
_cell_volume                     9382.78
loop_
_atom_site_label
_atom_site_type_symbol
_atom_site_fract_x
_atom_site_fract_y
_atom_site_fract_z
Zn1 Zn 0.79659(16) 0.50188(7) 0.91714(3)
Zn2 Zn 0.70094(16) 0.37572(6) 1.03945(4)
Zn3 Zn 0.79692(17) 0.37473(7) 0.79179(3)
N1 N 0.7497(10) 0.4412(4) 0.9465(2)
N2 N 0.7142(6) 0.3925(3) 0.99328(14)
N3 N 0.7543(6) 0.4781(3) 0.87299(14)
N4 N 0.7548(6) 0.4299(3) 0.82595(14)
N5 N 0.6794(9) 0.5663(4) 0.9283(2)
N6 N 0.4868(9) 0.6129(4) 0.9446(2)
N7 N 0.8177(10) 0.4276(4) 1.0637(2)
N8 N 1.0108(10) 0.4734(5) 1.0807(2)
N9 N 0.6732(10) 0.3945(5) 0.7568(2)
N10 N 0.4829(10) 0.3905(4) 0.7236(2)
N11 N 0.7570(9) 0.2968(4) 1.0483(2)
N12 N 0.7744(9) 0.2965(4) 0.8085(2)
C1 C 0.7591(11) 0.4421(5) 0.9795(3)
H1 H 0.7925 0.4731 0.9911
C2 C 0.6718(18) 0.3581(7) 0.9679(4)
H2 H 0.6368 0.3213 0.9696
C3 C 0.6906(19) 0.3883(7) 0.9392(4)
H3 H 0.6677 0.3754 0.9187
C4 C 0.8125(13) 0.4333(6) 0.8560(3)
H4 H 0.8809 0.4090 0.8639
C5 C 0.6561(16) 0.4732(7) 0.8235(3)
H5 H 0.5975 0.4798 0.8061
C6 C 0.6615(16) 0.5049(7) 0.8520(3)
H6 H 0.6118 0.5381 0.8562
C7 C 0.5528(12) 0.5613(5) 0.9433(3)
H7 H 0.5169 0.5274 0.9514
C8 C 0.5692(15) 0.6523(7) 0.9281(4)
H8 H 0.5481 0.6904 0.9241
C9 C 0.6892(16) 0.6234(6) 0.9185(4)
H9 H 0.7636 0.6394 0.9074
C10 C 0.9548(12) 0.4381(5) 1.0577(3)
H10 H 1.0039 0.4233 1.0403
C11 C 0.9087(15) 0.4813(8) 1.1038(4)
H11 H 0.9185 0.5011 1.1231
C12 C 0.7881(16) 0.4538(7) 1.0929(4)
H12 H 0.7028 0.4533 1.1034
C13 C 0.5384(14) 0.3634(6) 0.7497(3)
H13 H 0.5015 0.3324 0.7607
C14 C 0.5698(15) 0.4353(6) 0.7145(3)
H14 H 0.5524 0.4605 0.6977
C15 C 0.6856(9) 0.4368(4) 0.7341(2)
H15 H 0.7594 0.4621 0.7323
C16 C 0.7039(9) 0.2500(4) 1.0360(2)
H16 H 0.6358 0.2500 1.0201
C17 C 0.8533(9) 0.2789(4) 1.0697(2)
H17 H 0.9098 0.3023 1.0822
C18 C 0.799(2) 0.2500 0.7895(5)
H18 H 0.8267 0.2500 0.7681
C19 C 0.7327(10) 0.2789(5) 0.8387(2)
H19 H 0.7090 0.3024 0.8559
N11G N 0.7570(9) 0.2032(4) 1.0483(2)
C17G C 0.8533(9) 0.2211(4) 1.0697(2)
H17G H 0.9098 0.1977 1.0822
N12G N 0.7744(9) 0.2035(4) 0.8085(2)
C19G C 0.7327(10) 0.2211(5) 0.8387(2)
H19G H 0.7090 0.1976 0.8559
Zn1D Zn 0.20341(16) 0.49812(7) 1.08286(3)
Zn2D Zn 0.29906(16) 0.62428(6) 0.96055(4)
Zn3D Zn 0.20308(17) 0.62527(7) 1.20821(3)
N1D N 0.2503(10) 0.5588(4) 1.0535(2)
N2D N 0.2858(6) 0.6075(3) 1.00672(14)
N3D N 0.2457(6) 0.5219(3) 1.12701(14)
N4D N 0.2452(6) 0.5701(3) 1.17405(14)
N5D N 0.3206(9) 0.4337(4) 1.0717(2)
N6D N 0.5132(9) 0.3871(4) 1.0554(2)
N7D N 0.1823(10) 0.5724(4) 0.9363(2)
N8D N -0.0108(10) 0.5266(5) 0.9193(2)
N9D N 0.3268(10) 0.6055(5) 1.2432(2)
N10D N 0.5171(10) 0.6095(4) 1.2764(2)
C1D C 0.2409(11) 0.5579(5) 1.0205(3)
H1D H 0.2075 0.5269 1.0089
C2D C 0.3282(18) 0.6419(7) 1.0321(4)
H2D H 0.3632 0.6787 1.0304
C3D C 0.3094(19) 0.6117(7) 1.0608(4)
H3D H 0.3323 0.6246 1.0813
C4D C 0.1875(13) 0.5667(6) 1.1440(3)
H4D H 0.1191 0.5910 1.1361
C5D C 0.3439(16) 0.5268(7) 1.1765(3)
H5D H 0.4025 0.5202 1.1939
C6D C 0.3385(16) 0.4951(7) 1.1480(3)
H6D H 0.3882 0.4619 1.1438
C7D C 0.4472(12) 0.4387(5) 1.0567(3)
H7D H 0.4831 0.4726 1.0486
C8D C 0.4308(15) 0.3477(7) 1.0719(4)
H8D H 0.4519 0.3096 1.0759
C9D C 0.3108(16) 0.3766(6) 1.0815(4)
H9D H 0.2364 0.3606 1.0926
C10D C 0.0452(12) 0.5619(5) 0.9423(3)
H10D H -0.0039 0.5767 0.9597
C11D C 0.0913(15) 0.5187(8) 0.8962(4)
H11D H 0.0815 0.4989 0.8769
C12D C 0.2119(16) 0.5462(7) 0.9071(4)
H12D H 0.2972 0.5467 0.8966
C13D C 0.4616(14) 0.6366(6) 1.2503(3)
H13D H 0.4985 0.6676 1.2393
C14D C 0.4302(15) 0.5647(6) 1.2855(3)
H14D H 0.4476 0.5395 1.3023
C15D C 0.3144(9) 0.5632(4) 1.2659(2)
H15D H 0.2406 0.5379 1.2677
Zn1_2 Zn -0.20341(16) 0.50188(7) 0.91714(3)
Zn1D_2 Zn 1.20341(16) 0.49812(7) 1.08286(3)
Zn2G Zn 0.70094(16) 0.12428(6) 1.03945(4)
Zn3A Zn 0.70308(17) 0.62527(7) 1.29179(3)
Zn3E Zn 0.29692(17) 0.37473(7) 0.70821(3)
Zn3G Zn 0.79692(17) 0.12527(7) 0.79179(3)
N8_2 N 0.0108(10) 0.4734(5) 1.0807(2)
N8D_2 N 0.9892(10) 0.5266(5) 0.9193(2)
N10A N 0.0171(10) 0.6095(4) 1.2236(2)
N10E N 0.9829(10) 0.3905(4) 0.7764(2)
N11D N 0.2430(9) 0.7032(4) 0.9517(2)
N12D N 0.2256(9) 0.7035(4) 1.1915(2)
N13 N 1.2749(9) 0.7500(4) 0.6712(2)
O1 O 1.0810(9) 0.7500(4) 0.6954(2)
C20 C 1.1364(10) 0.7500(5) 0.6685(2)
H20 H 1.0882 0.7500 0.6491
C21 C 1.3457(10) 0.6968(5) 0.6816(2)
H21 H 1.2789 0.6668 0.6859
H22 H 1.4011 0.7034 0.7007
C22 C 1.4375(10) 0.6816(5) 0.6529(2)
H23 H 1.5307 0.6960 0.6566
H24 H 1.4013 0.7000 0.6337
C23 C 1.4435(10) 0.6170(5) 0.6474(2)
H25 H 1.3650 0.5991 0.6580
H26 H 1.4363 0.6091 0.6246
C24 C 1.5783(10) 0.5913(5) 0.6604(2)
H27 H 1.6178 0.6166 0.6761
H28 H 1.6428 0.5861 0.6430
H29 H 1.5590 0.5551 0.6702
C21G C 1.3457(10) 0.8032(5) 0.6816(2)
H21G H 1.2789 0.8332 0.6859
H22G H 1.4011 0.7966 0.7007
C22G C 1.4375(10) 0.8184(5) 0.6529(2)
H23G H 1.5307 0.8040 0.6566
H24G H 1.4013 0.8000 0.6337
C23G C 1.4435(10) 0.8830(5) 0.6474(2)
H25G H 1.3650 0.9009 0.6580
H26G H 1.4363 0.8909 0.6246
C24G C 1.5783(10) 0.9087(5) 0.6604(2)
H27G H 1.6178 0.8834 0.6761
H28G H 1.6428 0.9139 0.6430
H29G H 1.5590 0.9449 0.6702
loop_
_geom_bond_atom_site_label_1
_geom_bond_atom_site_label_2
_geom_bond_site_symmetry_1
_geom_bond_site_symmetry_2
Zn1 N1 1_555 1_555
Zn2 N2 1_555 1_555
Zn3 N4 1_555 1_555
N1 C1 1_555 1_555
N2 C1 1_555 1_555
N3 Zn1 1_555 1_555
N4 C4 1_555 1_555
N5 Zn1 1_555 1_555
N6 C7 1_555 1_555
N7 Zn2 1_555 1_555
N8 C10 1_555 1_555
N9 Zn3 1_555 1_555
N10 C13 1_555 1_555
N11 Zn2 1_555 1_555
N12 Zn3 1_555 1_555
C1 H1 1_555 1_555
C2 N2 1_555 1_555
H2 C2 1_555 1_555
C3 N1 1_555 1_555
H3 C3 1_555 1_555
C4 N3 1_555 1_555
H4 C4 1_555 1_555
C5 N4 1_555 1_555
H5 C5 1_555 1_555
C6 N3 1_555 1_555
H6 C6 1_555 1_555
C7 N5 1_555 1_555
H7 C7 1_555 1_555
C8 N6 1_555 1_555
H8 C8 1_555 1_555
C9 N5 1_555 1_555
H9 C9 1_555 1_555
C10 N7 1_555 1_555
H10 C10 1_555 1_555
C11 N8 1_555 1_555
H11 C11 1_555 1_555
C12 N7 1_555 1_555
H12 C12 1_555 1_555
C13 N9 1_555 1_555
H13 C13 1_555 1_555
C14 N10 1_555 1_555
H14 C14 1_555 1_555
C15 N9 1_555 1_555
H15 C15 1_555 1_555
C16 N11 1_555 1_555
H16 C16 1_555 1_555
C17 N11 1_555 1_555
H17 C17 1_555 1_555
C18 N12 1_555 1_555
H18 C18 1_555 1_555
C19 N12 1_555 1_555
H19 C19 1_555 1_555
N13 C20 1_555 1_555
O1 C20 1_555 1_555
C20 H20 1_555 1_555
C21 N13 1_555 1_555
H21 C21 1_555 1_555
H22 C21 1_555 1_555
C22 C21 1_555 1_555
H23 C22 1_555 1_555
H24 C22 1_555 1_555
C23 C22 1_555 1_555
H25 C23 1_555 1_555
H26 C23 1_555 1_555
C24 C23 1_555 1_555
H27 C24 1_555 1_555
H28 C24 1_555 1_555
H29 C24 1_555 1_555
N11G C16 1_555 1_555
C17G C17 1_555 1_555
H17G C17G 1_555 1_555
N12G C18 1_555 1_555
C19G C19 1_555 1_555
H19G C19G 1_555 1_555
Zn1D N1D 1_555 1_555
Zn2D N6 1_555 1_555
Zn3D N4D 1_555 1_555
N1D C1D 1_555 1_555
N2D Zn2D 1_555 1_555
N3D Zn1D 1_555 1_555
N4D C4D 1_555 1_555
N5D Zn1D 1_555 1_555
N6D Zn2 1_555 1_555
N7D Zn2D 1_555 1_555
N8D C10D 1_555 1_555
N9D Zn3D 1_555 1_555
N10D C13D 1_555 1_555
C1D N2D 1_555 1_555
H1D C1D 1_555 1_555
C2D N2D 1_555 1_555
H2D C2D 1_555 1_555
C3D N1D 1_555 1_555
H3D C3D 1_555 1_555
C4D N3D 1_555 1_555
H4D C4D 1_555 1_555
C5D N4D 1_555 1_555
H5D C5D 1_555 1_555
C6D N3D 1_555 1_555
H6D C6D 1_555 1_555
C7D N5D 1_555 1_555
H7D C7D 1_555 1_555
C8D N6D 1_555 1_555
H8D C8D 1_555 1_555
C9D N5D 1_555 1_555
H9D C9D 1_555 1_555
C10D N7D 1_555 1_555
H10D C10D 1_555 1_555
C11D N8D 1_555 1_555
H11D C11D 1_555 1_555
C12D N7D 1_555 1_555
H12D C12D 1_555 1_555
C13D N9D 1_555 1_555
H13D C13D 1_555 1_555
C14D N10D 1_555 1_555
H14D C14D 1_555 1_555
C15D N9D 1_555 1_555
H15D C15D 1_555 1_555
Zn1_2 N8D 1_555 1_555
Zn1D_2 N8 1_555 1_555
Zn2G N11G 1_555 1_555
Zn3A N10D 1_555 1_555
Zn3E N10 1_555 1_555
Zn3G N12G 1_555 1_555
N8_2 Zn1D 1_555 1_555
N8D_2 Zn1 1_555 1_555
N10A Zn3D 1_555 1_555
N10E Zn3 1_555 1_555
N11D Zn2D 1_555 1_555
N12D Zn3D 1_555 1_555
C21G N13 1_555 1_555
H21G C21G 1_555 1_555
H22G C21G 1_555 1_555
C22G C21G 1_555 1_555
H23G C22G 1_555 1_555
H24G C22G 1_555 1_555
C23G C22G 1_555 1_555
H25G C23G 1_555 1_555
H26G C23G 1_555 1_555
C24G C23G 1_555 1_555
H27G C24G 1_555 1_555
H28G C24G 1_555 1_555
H29G C24G 1_555 1_555
C2 C3 1_555 1_555
C5 C6 1_555 1_555
C8 C9 1_555 1_555
C11 C12 1_555 1_555
C14 C15 1_555 1_555
N11G C17G 1_555 1_555
N12G C19G 1_555 1_555
N6D C7D 1_555 1_555
C2D C3D 1_555 1_555
C5D C6D 1_555 1_555
C8D C9D 1_555 1_555
C11D C12D 1_555 1_555
C14D C15D 1_555 1_555

#END
