
#######################################################################
#
#                 Cambridge Crystallographic Data Centre
#                                CCDC 
#
#######################################################################
#
# If this CIF has been generated from an entry in the Cambridge 
# Structural Database, then it will include bibliographic, chemical, 
# crystal, experimental, refinement or atomic coordinate data resulting 
# from the CCDC's data processing and validation procedures.
#
#######################################################################

data_COJTAX
_chemical_formula_moiety         'C72 O36 Zn18'
_symmetry_cell_setting           cubic
_symmetry_space_group_name_H-M   'F m -3 m'
_symmetry_Int_Tables_number      225
_space_group_name_Hall           '-F 4 2 3'
loop_
_symmetry_equiv_pos_site_id
_symmetry_equiv_pos_as_xyz
1 x,y,z
2 z,x,y
3 y,z,x
4 y,x,-z
5 y,-x,z
6 -y,x,z
7 x,z,-y
8 -x,z,y
9 x,-z,y
10 z,y,-x
11 z,-y,x
12 -z,y,x
13 x,1/2+y,1/2+z
14 z,1/2+x,1/2+y
15 y,1/2+z,1/2+x
16 y,1/2+x,1/2-z
17 y,1/2-x,1/2+z
18 -y,1/2+x,1/2+z
19 x,1/2+z,1/2-y
20 -x,1/2+z,1/2+y
21 x,1/2-z,1/2+y
22 z,1/2+y,1/2-x
23 z,1/2-y,1/2+x
24 -z,1/2+y,1/2+x
25 1/2+x,y,1/2+z
26 1/2+z,x,1/2+y
27 1/2+y,z,1/2+x
28 1/2+y,x,1/2-z
29 1/2+y,-x,1/2+z
30 1/2-y,x,1/2+z
31 1/2+x,z,1/2-y
32 1/2-x,z,1/2+y
33 1/2+x,-z,1/2+y
34 1/2+z,y,1/2-x
35 1/2+z,-y,1/2+x
36 1/2-z,y,1/2+x
37 1/2+x,1/2+y,z
38 1/2+z,1/2+x,y
39 1/2+y,1/2+z,x
40 1/2+y,1/2+x,-z
41 1/2+y,1/2-x,z
42 1/2-y,1/2+x,z
43 1/2+x,1/2+z,-y
44 1/2-x,1/2+z,y
45 1/2+x,1/2-z,y
46 1/2+z,1/2+y,-x
47 1/2+z,1/2-y,x
48 1/2-z,1/2+y,x
49 -x,-y,z
50 -x,y,-z
51 x,-y,-z
52 z,-x,-y
53 -z,-x,y
54 -z,x,-y
55 -y,z,-x
56 y,-z,-x
57 -y,-z,x
58 -y,-x,-z
59 -x,-z,-y
60 -z,-y,-x
61 -x,1/2-y,1/2+z
62 -x,1/2+y,1/2-z
63 x,1/2-y,1/2-z
64 z,1/2-x,1/2-y
65 -z,1/2-x,1/2+y
66 -z,1/2+x,1/2-y
67 -y,1/2+z,1/2-x
68 y,1/2-z,1/2-x
69 -y,1/2-z,1/2+x
70 -y,1/2-x,1/2-z
71 -x,1/2-z,1/2-y
72 -z,1/2-y,1/2-x
73 1/2-x,-y,1/2+z
74 1/2-x,y,1/2-z
75 1/2+x,-y,1/2-z
76 1/2+z,-x,1/2-y
77 1/2-z,-x,1/2+y
78 1/2-z,x,1/2-y
79 1/2-y,z,1/2-x
80 1/2+y,-z,1/2-x
81 1/2-y,-z,1/2+x
82 1/2-y,-x,1/2-z
83 1/2-x,-z,1/2-y
84 1/2-z,-y,1/2-x
85 1/2-x,1/2-y,z
86 1/2-x,1/2+y,-z
87 1/2+x,1/2-y,-z
88 1/2+z,1/2-x,-y
89 1/2-z,1/2-x,y
90 1/2-z,1/2+x,-y
91 1/2-y,1/2+z,-x
92 1/2+y,1/2-z,-x
93 1/2-y,1/2-z,x
94 1/2-y,1/2-x,-z
95 1/2-x,1/2-z,-y
96 1/2-z,1/2-y,-x
97 -x,-y,-z
98 -z,-x,-y
99 -y,-z,-x
100 -y,-x,z
101 -y,x,-z
102 y,-x,-z
103 -x,-z,y
104 x,-z,-y
105 -x,z,-y
106 -z,-y,x
107 -z,y,-x
108 z,-y,-x
109 -x,1/2-y,1/2-z
110 -z,1/2-x,1/2-y
111 -y,1/2-z,1/2-x
112 -y,1/2-x,1/2+z
113 -y,1/2+x,1/2-z
114 y,1/2-x,1/2-z
115 -x,1/2-z,1/2+y
116 x,1/2-z,1/2-y
117 -x,1/2+z,1/2-y
118 -z,1/2-y,1/2+x
119 -z,1/2+y,1/2-x
120 z,1/2-y,1/2-x
121 1/2-x,-y,1/2-z
122 1/2-z,-x,1/2-y
123 1/2-y,-z,1/2-x
124 1/2-y,-x,1/2+z
125 1/2-y,x,1/2-z
126 1/2+y,-x,1/2-z
127 1/2-x,-z,1/2+y
128 1/2+x,-z,1/2-y
129 1/2-x,z,1/2-y
130 1/2-z,-y,1/2+x
131 1/2-z,y,1/2-x
132 1/2+z,-y,1/2-x
133 1/2-x,1/2-y,-z
134 1/2-z,1/2-x,-y
135 1/2-y,1/2-z,-x
136 1/2-y,1/2-x,z
137 1/2-y,1/2+x,-z
138 1/2+y,1/2-x,-z
139 1/2-x,1/2-z,y
140 1/2+x,1/2-z,-y
141 1/2-x,1/2+z,-y
142 1/2-z,1/2-y,x
143 1/2-z,1/2+y,-x
144 1/2+z,1/2-y,-x
145 x,y,-z
146 x,-y,z
147 -x,y,z
148 -z,x,y
149 z,x,-y
150 z,-x,y
151 y,-z,x
152 -y,z,x
153 y,z,-x
154 y,x,z
155 x,z,y
156 z,y,x
157 x,1/2+y,1/2-z
158 x,1/2-y,1/2+z
159 -x,1/2+y,1/2+z
160 -z,1/2+x,1/2+y
161 z,1/2+x,1/2-y
162 z,1/2-x,1/2+y
163 y,1/2-z,1/2+x
164 -y,1/2+z,1/2+x
165 y,1/2+z,1/2-x
166 y,1/2+x,1/2+z
167 x,1/2+z,1/2+y
168 z,1/2+y,1/2+x
169 1/2+x,y,1/2-z
170 1/2+x,-y,1/2+z
171 1/2-x,y,1/2+z
172 1/2-z,x,1/2+y
173 1/2+z,x,1/2-y
174 1/2+z,-x,1/2+y
175 1/2+y,-z,1/2+x
176 1/2-y,z,1/2+x
177 1/2+y,z,1/2-x
178 1/2+y,x,1/2+z
179 1/2+x,z,1/2+y
180 1/2+z,y,1/2+x
181 1/2+x,1/2+y,-z
182 1/2+x,1/2-y,z
183 1/2-x,1/2+y,z
184 1/2-z,1/2+x,y
185 1/2+z,1/2+x,-y
186 1/2+z,1/2-x,y
187 1/2+y,1/2-z,x
188 1/2-y,1/2+z,x
189 1/2+y,1/2+z,-x
190 1/2+y,1/2+x,z
191 1/2+x,1/2+z,y
192 1/2+z,1/2+y,x
_cell_length_a                   25.7386(6)
_cell_length_b                   25.7386(6)
_cell_length_c                   25.7386(6)
_cell_angle_alpha                90
_cell_angle_beta                 90
_cell_angle_gamma                90
_cell_volume                     17051.2
loop_
_atom_site_label
_atom_site_type_symbol
_atom_site_fract_x
_atom_site_fract_y
_atom_site_fract_z
_atom_site_U_iso_or_equiv
_atom_site_thermal_displace_type
Zn1 Zn 0.206575(9) 0.206575(9) 0.206575(9) 0.0431 Uani
O1 O 0.21946(5) 0.21946(5) 0.13421(7) 0.0773 Uani
O2 O 0.2500 0.2500 0.2500 0.0367 Uani
C1 C 0.2500 0.2500 0.11152(13) 0.0650 Uani
C2 C 0.2500 0.2500 0.05391(14) 0.0729 Uani
C3 C 0.20872(18) 0.2295(2) 0.02634(13) 0.0843 Uani
Zn1EE Zn 0.293425(9) 0.293425(9) 0.206575(9) 0.0431 Uani
Zn1C Zn 0.206575(9) 0.206575(9) -0.206575(9) 0.0431 Uani
Zn1BE Zn 0.293425(9) 0.293425(9) -0.206575(9) 0.0431 Uani
Zn1ID Zn 0.206575(9) 0.293425(9) 0.293425(9) 0.0431 Uani
Zn1E Zn -0.206575(9) 0.206575(9) 0.206575(9) 0.0431 Uani
Zn1DD Zn -0.206575(9) 0.293425(9) 0.293425(9) 0.0431 Uani
Zn1TD Zn 0.293425(9) 0.206575(9) 0.293425(9) 0.0431 Uani
Zn1D Zn 0.206575(9) -0.206575(9) 0.206575(9) 0.0431 Uani
Zn1PD Zn 0.293425(9) -0.206575(9) 0.293425(9) 0.0431 Uani
Zn1OA Zn 0.293425(9) 0.706575(9) 0.206575(9) 0.0431 Uani
Zn1O Zn 0.206575(9) 0.706575(9) 0.293425(9) 0.0431 Uani
Zn1NA Zn 0.706575(9) 0.293425(9) 0.206575(9) 0.0431 Uani
Zn1AA Zn 0.706575(9) 0.206575(9) 0.293425(9) 0.0431 Uani
Zn1CA Zn 0.293425(9) 0.206575(9) -0.293425(9) 0.0431 Uani
Zn1WC Zn 0.206575(9) -0.206575(9) -0.206575(9) 0.0431 Uani
Zn1SD Zn 0.293425(9) -0.206575(9) -0.293425(9) 0.0431 Uani
Zn1P Zn 0.206575(9) 0.293425(9) -0.293425(9) 0.0431 Uani
O1EE O 0.28054(5) 0.28054(5) 0.13421(7) 0.0773 Uani
O1C O 0.21946(5) 0.21946(5) -0.13421(7) 0.0773 Uani
O1BE O 0.28054(5) 0.28054(5) -0.13421(7) 0.0773 Uani
O1A O 0.13421(7) 0.21946(5) 0.21946(5) 0.0773 Uani
O1OD O 0.13421(7) 0.28054(5) 0.28054(5) 0.0773 Uani
O1K O -0.13421(7) 0.21946(5) 0.21946(5) 0.0773 Uani
O1ED O -0.13421(7) 0.28054(5) 0.28054(5) 0.0773 Uani
O1B O 0.21946(5) 0.13421(7) 0.21946(5) 0.0773 Uani
O1XD O 0.28054(5) 0.13421(7) 0.28054(5) 0.0773 Uani
O1H O 0.21946(5) -0.13421(7) 0.21946(5) 0.0773 Uani
O1RD O 0.28054(5) -0.13421(7) 0.28054(5) 0.0773 Uani
O1HE O 0.28054(5) 0.36579(7) 0.21946(5) 0.0773 Uani
O1KD O 0.21946(5) 0.36579(7) 0.28054(5) 0.0773 Uani
O1QA O 0.28054(5) 0.63421(7) 0.21946(5) 0.0773 Uani
O1R O 0.21946(5) 0.63421(7) 0.28054(5) 0.0773 Uani
O1KE O 0.36579(7) 0.28054(5) 0.21946(5) 0.0773 Uani
O1ZD O 0.36579(7) 0.21946(5) 0.28054(5) 0.0773 Uani
O1TA O 0.63421(7) 0.28054(5) 0.21946(5) 0.0773 Uani
O1GA O 0.63421(7) 0.21946(5) 0.28054(5) 0.0773 Uani
O1F O 0.21946(5) 0.13421(7) -0.21946(5) 0.0773 Uani
O1EA O 0.28054(5) 0.13421(7) -0.28054(5) 0.0773 Uani
O1YC O 0.21946(5) -0.13421(7) -0.21946(5) 0.0773 Uani
O1VD O 0.28054(5) -0.13421(7) -0.28054(5) 0.0773 Uani
O1I O 0.13421(7) 0.21946(5) -0.21946(5) 0.0773 Uani
O1CE O 0.36579(7) 0.28054(5) -0.21946(5) 0.0773 Uani
O1DE O 0.28054(5) 0.36579(7) -0.21946(5) 0.0773 Uani
O1ID O 0.21946(5) 0.28054(5) 0.36579(7) 0.0773 Uani
O1E O -0.21946(5) 0.21946(5) 0.13421(7) 0.0773 Uani
O1G O -0.21946(5) 0.13421(7) 0.21946(5) 0.0773 Uani
O1DD O -0.21946(5) 0.28054(5) 0.36579(7) 0.0773 Uani
O1FD O -0.21946(5) 0.36579(7) 0.28054(5) 0.0773 Uani
O1TD O 0.28054(5) 0.21946(5) 0.36579(7) 0.0773 Uani
O2C O 0.2500 0.2500 -0.2500 0.0367 Uani
O2E O -0.2500 0.2500 0.2500 0.0367 Uani
C1C C 0.2500 0.2500 -0.11152(13) 0.0650 Uani
C1A C 0.11152(13) 0.2500 0.2500 0.0650 Uani
C1K C -0.11152(13) 0.2500 0.2500 0.0650 Uani
C1B C 0.2500 0.11152(13) 0.2500 0.0650 Uani
C1H C 0.2500 -0.11152(13) 0.2500 0.0650 Uani
C1KD C 0.2500 0.38848(13) 0.2500 0.0650 Uani
C1R C 0.2500 0.61152(13) 0.2500 0.0650 Uani
C1ZD C 0.38848(13) 0.2500 0.2500 0.0650 Uani
C1GA C 0.61152(13) 0.2500 0.2500 0.0650 Uani
C1F C 0.2500 0.11152(13) -0.2500 0.0650 Uani
C1YC C 0.2500 -0.11152(13) -0.2500 0.0650 Uani
C2C C 0.2500 0.2500 -0.05391(14) 0.0729 Uani
C2A C 0.05391(14) 0.2500 0.2500 0.0729 Uani
C2K C -0.05391(14) 0.2500 0.2500 0.0729 Uani
C2B C 0.2500 0.05391(14) 0.2500 0.0729 Uani
C2H C 0.2500 -0.05391(14) 0.2500 0.0729 Uani
C2KD C 0.2500 0.44609(14) 0.2500 0.0729 Uani
C2R C 0.2500 0.55391(14) 0.2500 0.0729 Uani
C2ZD C 0.44609(14) 0.2500 0.2500 0.0729 Uani
C2GA C 0.55391(14) 0.2500 0.2500 0.0729 Uani
C2F C 0.2500 0.05391(14) -0.2500 0.0729 Uani
C2YC C 0.2500 -0.05391(14) -0.2500 0.0729 Uani
C3C C 0.2295(2) 0.20872(18) -0.02634(13) 0.0843 Uani
C3NE C 0.20872(18) 0.2295(2) -0.02634(13) 0.0843 Uani
C3WE C 0.2295(2) 0.20872(18) 0.02634(13) 0.0843 Uani
C3EE C 0.2705(2) 0.29128(18) 0.02634(13) 0.0843 Uani
C3BE C 0.29128(18) 0.2705(2) -0.02634(13) 0.0843 Uani
C3OC C 0.2705(2) 0.29128(18) -0.02634(13) 0.0843 Uani
C3FC C 0.29128(18) 0.2705(2) 0.02634(13) 0.0843 Uani
C3A C 0.02634(13) 0.20872(18) 0.2295(2) 0.0843 Uani
C3K C -0.02634(13) 0.2295(2) 0.20872(18) 0.0843 Uani
C3QE C -0.02634(13) 0.20872(18) 0.2295(2) 0.0843 Uani
C3YE C 0.02634(13) 0.2295(2) 0.20872(18) 0.0843 Uani
C3OD C 0.02634(13) 0.2705(2) 0.29128(18) 0.0843 Uani
C3ED C -0.02634(13) 0.29128(18) 0.2705(2) 0.0843 Uani
C3SB C -0.02634(13) 0.2705(2) 0.29128(18) 0.0843 Uani
C3KB C 0.02634(13) 0.29128(18) 0.2705(2) 0.0843 Uani
C3B C 0.2295(2) 0.02634(13) 0.20872(18) 0.0843 Uani
C3H C 0.20872(18) -0.02634(13) 0.2295(2) 0.0843 Uani
C3TE C 0.2295(2) -0.02634(13) 0.20872(18) 0.0843 Uani
C3XE C 0.20872(18) 0.02634(13) 0.2295(2) 0.0843 Uani
C3XD C 0.29128(18) 0.02634(13) 0.2705(2) 0.0843 Uani
C3RD C 0.2705(2) -0.02634(13) 0.29128(18) 0.0843 Uani
C3DC C 0.29128(18) -0.02634(13) 0.2705(2) 0.0843 Uani
C3ZB C 0.2705(2) 0.02634(13) 0.29128(18) 0.0843 Uani
C3HE C 0.29128(18) 0.47366(13) 0.2295(2) 0.0843 Uani
C3EG C 0.2705(2) 0.52634(13) 0.20872(18) 0.0843 Uani
C3QA C 0.29128(18) 0.52634(13) 0.2295(2) 0.0843 Uani
C3NC C 0.2705(2) 0.47366(13) 0.20872(18) 0.0843 Uani
C3OB C 0.2295(2) 0.47366(13) 0.29128(18) 0.0843 Uani
C3R C 0.20872(18) 0.52634(13) 0.2705(2) 0.0843 Uani
C3HF C 0.2295(2) 0.52634(13) 0.29128(18) 0.0843 Uani
C3KD C 0.20872(18) 0.47366(13) 0.2705(2) 0.0843 Uani
C3KE C 0.47366(13) 0.2705(2) 0.20872(18) 0.0843 Uani
C3CG C 0.52634(13) 0.29128(18) 0.2295(2) 0.0843 Uani
C3TA C 0.52634(13) 0.2705(2) 0.20872(18) 0.0843 Uani
C3JC C 0.47366(13) 0.29128(18) 0.2295(2) 0.0843 Uani
C3YB C 0.47366(13) 0.20872(18) 0.2705(2) 0.0843 Uani
C3GA C 0.52634(13) 0.2295(2) 0.29128(18) 0.0843 Uani
C3PF C 0.52634(13) 0.20872(18) 0.2705(2) 0.0843 Uani
C3ZD C 0.47366(13) 0.2295(2) 0.29128(18) 0.0843 Uani
C3F C 0.20872(18) 0.02634(13) -0.2295(2) 0.0843 Uani
C3CB C 0.2295(2) -0.02634(13) -0.20872(18) 0.0843 Uani
C3YC C 0.20872(18) -0.02634(13) -0.2295(2) 0.0843 Uani
C3VE C 0.2295(2) 0.02634(13) -0.20872(18) 0.0843 Uani
C3SF C 0.2705(2) 0.02634(13) -0.29128(18) 0.0843 Uani
C3VD C 0.29128(18) -0.02634(13) -0.2705(2) 0.0843 Uani
C3BC C 0.2705(2) -0.02634(13) -0.29128(18) 0.0843 Uani
C3EA C 0.29128(18) 0.02634(13) -0.2705(2) 0.0843 Uani
loop_
_atom_site_aniso_label
_atom_site_aniso_U_11
_atom_site_aniso_U_22
_atom_site_aniso_U_33
_atom_site_aniso_U_23
_atom_site_aniso_U_13
_atom_site_aniso_U_12
Zn1 0.04315(19) 0.04315(19) 0.04315(19) -0.00220(11) -0.00220(11) -0.00220(11)
O1 0.0945(9) 0.0945(9) 0.0428(10) -0.0001(7) -0.0001(7) -0.0259(11)
O2 0.0367(10) 0.0367(10) 0.0367(10) 0.000 0.000 0.000
C1 0.0770(15) 0.0770(15) 0.0411(19) 0.000 0.000 0.004(2)
C2 0.0866(18) 0.0866(18) 0.0455(19) 0.000 0.000 -0.005(2)
C3 0.095(4) 0.112(5) 0.0460(17) -0.001(2) -0.0005(17) -0.017(4)
Zn1EE 0.04315 0.04315 0.04315 0.0022 0.0022 -0.0022
Zn1C 0.04315 0.04315 0.04315 0.0022 0.0022 -0.0022
Zn1BE 0.04315 0.04315 0.04315 -0.0022 -0.0022 -0.0022
Zn1ID 0.04315 0.04315 0.04315 -0.0022 0.0022 0.0022
Zn1E 0.04315 0.04315 0.04315 -0.0022 0.0022 0.0022
Zn1DD 0.04315 0.04315 0.04315 -0.0022 -0.0022 -0.0022
Zn1TD 0.04315 0.04315 0.04315 0.0022 -0.0022 0.0022
Zn1D 0.04315 0.04315 0.04315 0.0022 -0.0022 0.0022
Zn1PD 0.04315 0.04315 0.04315 -0.0022 -0.0022 -0.0022
Zn1OA 0.04315 0.04315 0.04315 -0.0022 0.0022 0.0022
Zn1O 0.04315 0.04315 0.04315 0.0022 0.0022 -0.0022
Zn1NA 0.04315 0.04315 0.04315 0.0022 -0.0022 0.0022
Zn1AA 0.04315 0.04315 0.04315 0.0022 0.0022 -0.0022
Zn1CA 0.04315 0.04315 0.04315 -0.0022 0.0022 0.0022
Zn1WC 0.04315 0.04315 0.04315 -0.0022 0.0022 0.0022
Zn1SD 0.04315 0.04315 0.04315 0.0022 0.0022 -0.0022
Zn1P 0.04315 0.04315 0.04315 0.0022 -0.0022 0.0022
O1EE 0.0945 0.0945 0.0428 0.0001 0.0001 -0.0259
O1C 0.0945 0.0945 0.0428 0.0001 0.0001 -0.0259
O1BE 0.0945 0.0945 0.0428 -0.0001 -0.0001 -0.0259
O1A 0.0428 0.0945 0.0945 -0.0259 -0.0001 -0.0001
O1OD 0.0428 0.0945 0.0945 -0.0259 0.0001 0.0001
O1K 0.0428 0.0945 0.0945 -0.0259 0.0001 0.0001
O1ED 0.0428 0.0945 0.0945 -0.0259 -0.0001 -0.0001
O1B 0.0945 0.0428 0.0945 -0.0001 -0.0259 -0.0001
O1XD 0.0945 0.0428 0.0945 0.0001 -0.0259 0.0001
O1H 0.0945 0.0428 0.0945 0.0001 -0.0259 0.0001
O1RD 0.0945 0.0428 0.0945 -0.0001 -0.0259 -0.0001
O1HE 0.0945 0.0428 0.0945 0.0001 0.0259 -0.0001
O1KD 0.0945 0.0428 0.0945 -0.0001 0.0259 0.0001
O1QA 0.0945 0.0428 0.0945 -0.0001 0.0259 0.0001
O1R 0.0945 0.0428 0.0945 0.0001 0.0259 -0.0001
O1KE 0.0428 0.0945 0.0945 0.0259 0.0001 -0.0001
O1ZD 0.0428 0.0945 0.0945 0.0259 -0.0001 0.0001
O1TA 0.0428 0.0945 0.0945 0.0259 -0.0001 0.0001
O1GA 0.0428 0.0945 0.0945 0.0259 0.0001 -0.0001
O1F 0.0945 0.0428 0.0945 0.0001 0.0259 -0.0001
O1EA 0.0945 0.0428 0.0945 -0.0001 0.0259 0.0001
O1YC 0.0945 0.0428 0.0945 -0.0001 0.0259 0.0001
O1VD 0.0945 0.0428 0.0945 0.0001 0.0259 -0.0001
O1I 0.0428 0.0945 0.0945 0.0259 0.0001 -0.0001
O1CE 0.0428 0.0945 0.0945 -0.0259 -0.0001 -0.0001
O1DE 0.0945 0.0428 0.0945 -0.0001 -0.0259 -0.0001
O1ID 0.0945 0.0945 0.0428 -0.0001 0.0001 0.0259
O1E 0.0945 0.0945 0.0428 -0.0001 0.0001 0.0259
O1G 0.0945 0.0428 0.0945 -0.0001 0.0259 0.0001
O1DD 0.0945 0.0945 0.0428 -0.0001 -0.0001 -0.0259
O1FD 0.0945 0.0428 0.0945 -0.0001 -0.0259 -0.0001
O1TD 0.0945 0.0945 0.0428 0.0001 -0.0001 0.0259
O2C 0.0367 0.0367 0.0367 0 0 0
O2E 0.0367 0.0367 0.0367 0 0 0
C1C 0.077 0.077 0.0411 0 0 0.004
C1A 0.0411 0.077 0.077 0.004 0 0
C1K 0.0411 0.077 0.077 0.004 0 0
C1B 0.077 0.0411 0.077 0 0.004 0
C1H 0.077 0.0411 0.077 0 0.004 0
C1KD 0.077 0.0411 0.077 0 -0.004 0
C1R 0.077 0.0411 0.077 0 -0.004 0
C1ZD 0.0411 0.077 0.077 -0.004 0 0
C1GA 0.0411 0.077 0.077 -0.004 0 0
C1F 0.077 0.0411 0.077 0 -0.004 0
C1YC 0.077 0.0411 0.077 0 -0.004 0
C2C 0.0866 0.0866 0.0455 0 0 -0.005
C2A 0.0455 0.0866 0.0866 -0.005 0 0
C2K 0.0455 0.0866 0.0866 -0.005 0 0
C2B 0.0866 0.0455 0.0866 0 -0.005 0
C2H 0.0866 0.0455 0.0866 0 -0.005 0
C2KD 0.0866 0.0455 0.0866 0 0.005 0
C2R 0.0866 0.0455 0.0866 0 0.005 0
C2ZD 0.0455 0.0866 0.0866 0.005 0 0
C2GA 0.0455 0.0866 0.0866 0.005 0 0
C2F 0.0866 0.0455 0.0866 0 0.005 0
C2YC 0.0866 0.0455 0.0866 0 0.005 0
C3C 0.112 0.095 0.046 0.0005 0.001 -0.017
C3NE 0.095 0.112 0.046 0.001 0.0005 -0.017
C3WE 0.112 0.095 0.046 -0.0005 -0.001 -0.017
C3EE 0.112 0.095 0.046 0.0005 0.001 -0.017
C3BE 0.095 0.112 0.046 -0.001 -0.0005 -0.017
C3OC 0.112 0.095 0.046 -0.0005 -0.001 -0.017
C3FC 0.095 0.112 0.046 0.001 0.0005 -0.017
C3A 0.046 0.095 0.112 -0.017 -0.001 -0.0005
C3K 0.046 0.112 0.095 -0.017 0.0005 0.001
C3QE 0.046 0.095 0.112 -0.017 0.001 0.0005
C3YE 0.046 0.112 0.095 -0.017 -0.0005 -0.001
C3OD 0.046 0.112 0.095 -0.017 0.0005 0.001
C3ED 0.046 0.095 0.112 -0.017 -0.001 -0.0005
C3SB 0.046 0.112 0.095 -0.017 -0.0005 -0.001
C3KB 0.046 0.095 0.112 -0.017 0.001 0.0005
C3B 0.112 0.046 0.095 -0.0005 -0.017 -0.001
C3H 0.095 0.046 0.112 0.001 -0.017 0.0005
C3TE 0.112 0.046 0.095 0.0005 -0.017 0.001
C3XE 0.095 0.046 0.112 -0.001 -0.017 -0.0005
C3XD 0.095 0.046 0.112 0.001 -0.017 0.0005
C3RD 0.112 0.046 0.095 -0.0005 -0.017 -0.001
C3DC 0.095 0.046 0.112 -0.001 -0.017 -0.0005
C3ZB 0.112 0.046 0.095 0.0005 -0.017 0.001
C3HE 0.095 0.046 0.112 0.001 0.017 -0.0005
C3EG 0.112 0.046 0.095 -0.0005 0.017 0.001
C3QA 0.095 0.046 0.112 -0.001 0.017 0.0005
C3NC 0.112 0.046 0.095 0.0005 0.017 -0.001
C3OB 0.112 0.046 0.095 -0.0005 0.017 0.001
C3R 0.095 0.046 0.112 0.001 0.017 -0.0005
C3HF 0.112 0.046 0.095 0.0005 0.017 -0.001
C3KD 0.095 0.046 0.112 -0.001 0.017 0.0005
C3KE 0.046 0.112 0.095 0.017 0.0005 -0.001
C3CG 0.046 0.095 0.112 0.017 -0.001 0.0005
C3TA 0.046 0.112 0.095 0.017 -0.0005 0.001
C3JC 0.046 0.095 0.112 0.017 0.001 -0.0005
C3YB 0.046 0.095 0.112 0.017 -0.001 0.0005
C3GA 0.046 0.112 0.095 0.017 0.0005 -0.001
C3PF 0.046 0.095 0.112 0.017 0.001 -0.0005
C3ZD 0.046 0.112 0.095 0.017 -0.0005 0.001
C3F 0.095 0.046 0.112 0.001 0.017 -0.0005
C3CB 0.112 0.046 0.095 -0.0005 0.017 0.001
C3YC 0.095 0.046 0.112 -0.001 0.017 0.0005
C3VE 0.112 0.046 0.095 0.0005 0.017 -0.001
C3SF 0.112 0.046 0.095 -0.0005 0.017 0.001
C3VD 0.095 0.046 0.112 0.001 0.017 -0.0005
C3BC 0.112 0.046 0.095 0.0005 0.017 -0.001
C3EA 0.095 0.046 0.112 -0.001 0.017 0.0005
loop_
_geom_bond_atom_site_label_1
_geom_bond_atom_site_label_2
_geom_bond_site_symmetry_1
_geom_bond_site_symmetry_2
Zn1 O1 1_555 1_555
O1 C1 1_555 1_555
O2 Zn1 1_555 1_555
C1 C2 1_555 1_555
C2 C3 1_555 1_555
C3 C3C 1_555 1_555
Zn1EE O2 1_555 1_555
Zn1C O1C 1_555 1_555
Zn1BE O1BE 1_555 1_555
Zn1ID O2 1_555 1_555
Zn1E O1K 1_555 1_555
Zn1DD O1ED 1_555 1_555
Zn1TD O2 1_555 1_555
Zn1D O1H 1_555 1_555
Zn1PD O1RD 1_555 1_555
Zn1OA O1QA 1_555 1_555
Zn1O O1R 1_555 1_555
Zn1NA O1TA 1_555 1_555
Zn1AA O1GA 1_555 1_555
Zn1CA O1EA 1_555 1_555
Zn1WC O1YC 1_555 1_555
Zn1SD O1VD 1_555 1_555
Zn1P O2C 1_555 1_555
O1EE C1 1_555 1_555
O1C C1C 1_555 1_555
O1BE C1C 1_555 1_555
O1A Zn1 1_555 1_555
O1OD Zn1ID 1_555 1_555
O1K C1K 1_555 1_555
O1ED C1K 1_555 1_555
O1B Zn1 1_555 1_555
O1XD Zn1TD 1_555 1_555
O1H C1H 1_555 1_555
O1RD C1H 1_555 1_555
O1HE Zn1EE 1_555 1_555
O1KD Zn1ID 1_555 1_555
O1QA C1R 1_555 1_555
O1R C1R 1_555 1_555
O1KE Zn1EE 1_555 1_555
O1ZD Zn1TD 1_555 1_555
O1TA C1GA 1_555 1_555
O1GA C1GA 1_555 1_555
O1F Zn1C 1_555 1_555
O1EA C1F 1_555 1_555
O1YC C1YC 1_555 1_555
O1VD C1YC 1_555 1_555
O1I Zn1C 1_555 1_555
O1CE Zn1BE 1_555 1_555
O1DE Zn1BE 1_555 1_555
O1ID Zn1ID 1_555 1_555
O1E Zn1E 1_555 1_555
O1G Zn1E 1_555 1_555
O1DD Zn1DD 1_555 1_555
O1FD Zn1DD 1_555 1_555
O1TD Zn1TD 1_555 1_555
O2C Zn1C 1_555 1_555
O2E Zn1E 1_555 1_555
C1C C2C 1_555 1_555
C1A O1A 1_555 1_555
C1K C2K 1_555 1_555
C1B O1B 1_555 1_555
C1H C2H 1_555 1_555
C1KD O1HE 1_555 1_555
C1R C2R 1_555 1_555
C1ZD O1KE 1_555 1_555
C1GA C2GA 1_555 1_555
C1F O1F 1_555 1_555
C1YC C2YC 1_555 1_555
C2C C3C 1_555 1_555
C2A C1A 1_555 1_555
C2K C3K 1_555 1_555
C2B C1B 1_555 1_555
C2H C3H 1_555 1_555
C2KD C1KD 1_555 1_555
C2R C3EG 1_555 1_555
C2ZD C1ZD 1_555 1_555
C2GA C3CG 1_555 1_555
C2F C1F 1_555 1_555
C2YC C3CB 1_555 1_555
C3C C3NE 1_555 1_555
C3NE C3 1_555 1_555
C3WE C2 1_555 1_555
C3EE C2 1_555 1_555
C3BE C2C 1_555 1_555
C3OC C2C 1_555 1_555
C3FC C2 1_555 1_555
C3A C2A 1_555 1_555
C3K C3A 1_555 1_555
C3QE C2K 1_555 1_555
C3YE C2A 1_555 1_555
C3OD C2A 1_555 1_555
C3ED C2K 1_555 1_555
C3SB C2K 1_555 1_555
C3KB C2A 1_555 1_555
C3B C2B 1_555 1_555
C3H C3B 1_555 1_555
C3TE C2H 1_555 1_555
C3XE C2B 1_555 1_555
C3XD C2B 1_555 1_555
C3RD C2H 1_555 1_555
C3DC C2H 1_555 1_555
C3ZB C2B 1_555 1_555
C3HE C2KD 1_555 1_555
C3EG C3HE 1_555 1_555
C3QA C2R 1_555 1_555
C3NC C2KD 1_555 1_555
C3OB C2KD 1_555 1_555
C3R C2R 1_555 1_555
C3HF C2R 1_555 1_555
C3KD C2KD 1_555 1_555
C3KE C2ZD 1_555 1_555
C3CG C3KE 1_555 1_555
C3TA C2GA 1_555 1_555
C3JC C2ZD 1_555 1_555
C3YB C2ZD 1_555 1_555
C3GA C2GA 1_555 1_555
C3PF C2GA 1_555 1_555
C3ZD C2ZD 1_555 1_555
C3F C2F 1_555 1_555
C3CB C3F 1_555 1_555
C3YC C2YC 1_555 1_555
C3VE C2F 1_555 1_555
C3SF C2F 1_555 1_555
C3VD C2YC 1_555 1_555
C3BC C2YC 1_555 1_555
C3EA C2F 1_555 1_555
C3 C3WE 1_555 1_555
Zn1EE O1EE 1_555 1_555
Zn1BE O2C 1_555 1_555
Zn1DD O2E 1_555 1_555
Zn1CA O2C 1_555 1_555
O1OD C1A 1_555 1_555
O1XD C1B 1_555 1_555
O1KD C1KD 1_555 1_555
O1ZD C1ZD 1_555 1_555
C2C C3NE 1_555 1_555
C3C C3WE 1_555 1_555
C3NE C3WE 1_555 1_555
C3EE C3BE 1_555 1_555
C3EE C3OC 1_555 1_555
C3EE C3FC 1_555 1_555
C3BE C3OC 1_555 1_555
C3BE C3FC 1_555 1_555
C3OC C3FC 1_555 1_555
C3A C3QE 1_555 1_555
C3A C3YE 1_555 1_555
C3K C3QE 1_555 1_555
C3K C3YE 1_555 1_555
C3QE C3YE 1_555 1_555
C3OD C3ED 1_555 1_555
C3OD C3SB 1_555 1_555
C3OD C3KB 1_555 1_555
C3ED C3SB 1_555 1_555
C3ED C3KB 1_555 1_555
C3SB C3KB 1_555 1_555
C3B C3TE 1_555 1_555
C3B C3XE 1_555 1_555
C3H C3TE 1_555 1_555
C3H C3XE 1_555 1_555
C3TE C3XE 1_555 1_555
C3XD C3RD 1_555 1_555
C3XD C3DC 1_555 1_555
C3XD C3ZB 1_555 1_555
C3RD C3DC 1_555 1_555
C3RD C3ZB 1_555 1_555
C3DC C3ZB 1_555 1_555
C3HE C3QA 1_555 1_555
C3HE C3NC 1_555 1_555
C3EG C3QA 1_555 1_555
C3EG C3NC 1_555 1_555
C3QA C3NC 1_555 1_555
C3OB C3R 1_555 1_555
C3OB C3HF 1_555 1_555
C3OB C3KD 1_555 1_555
C3R C3HF 1_555 1_555
C3R C3KD 1_555 1_555
C3HF C3KD 1_555 1_555
C3KE C3TA 1_555 1_555
C3KE C3JC 1_555 1_555
C3CG C3TA 1_555 1_555
C3CG C3JC 1_555 1_555
C3TA C3JC 1_555 1_555
C3YB C3GA 1_555 1_555
C3YB C3PF 1_555 1_555
C3YB C3ZD 1_555 1_555
C3GA C3PF 1_555 1_555
C3GA C3ZD 1_555 1_555
C3PF C3ZD 1_555 1_555
C3F C3YC 1_555 1_555
C3F C3VE 1_555 1_555
C3CB C3YC 1_555 1_555
C3CB C3VE 1_555 1_555
C3YC C3VE 1_555 1_555
C3SF C3VD 1_555 1_555
C3SF C3BC 1_555 1_555
C3SF C3EA 1_555 1_555
C3VD C3BC 1_555 1_555
C3VD C3EA 1_555 1_555
C3BC C3EA 1_555 1_555

#END
