
#######################################################################
#
#                 Cambridge Crystallographic Data Centre
#                                CCDC 
#
#######################################################################
#
# If this CIF has been generated from an entry in the Cambridge 
# Structural Database, then it will include bibliographic, chemical, 
# crystal, experimental, refinement or atomic coordinate data resulting 
# from the CCDC's data processing and validation procedures.
#
#######################################################################

data_FOKWIN
_chemical_formula_moiety         '(C25 H26 Co2 N16 O5)n'
_symmetry_cell_setting           tetragonal
_symmetry_space_group_name_H-M   'I 41/a'
_symmetry_Int_Tables_number      88
_space_group_name_Hall           '-I 4ad'
loop_
_symmetry_equiv_pos_site_id
_symmetry_equiv_pos_as_xyz
1 x,y,z
2 1/2-x,-y,1/2+z
3 3/4-y,1/4+x,1/4+z
4 3/4+y,3/4-x,3/4+z
5 1/2+x,1/2+y,1/2+z
6 -x,1/2-y,z
7 1/4-y,3/4+x,3/4+z
8 1/4+y,1/4-x,1/4+z
9 -x,-y,-z
10 1/2+x,y,1/2-z
11 1/4+y,3/4-x,3/4-z
12 1/4-y,1/4+x,1/4-z
13 1/2-x,1/2-y,1/2-z
14 x,1/2+y,-z
15 3/4+y,1/4-x,1/4-z
16 3/4-y,3/4+x,3/4-z
_cell_length_a                   10.3163(2)
_cell_length_b                   10.3163(2)
_cell_length_c                   33.0950(13)
_cell_angle_alpha                90
_cell_angle_beta                 90
_cell_angle_gamma                90
_cell_volume                     3522.17
loop_
_atom_site_label
_atom_site_type_symbol
_atom_site_fract_x
_atom_site_fract_y
_atom_site_fract_z
C1 C 0.1484(3) 0.5914(3) 0.07360(9)
H1 H 0.2151 0.6033 0.0537
C2 C 0.1752(3) 0.6185(3) 0.11322(9)
C3 C 0.0800(3) 0.6004(3) 0.14212(10)
H2 H 0.0974 0.6169 0.1702
C4 C -0.0385(4) 0.5578(4) 0.12977(11)
H3 H -0.1069 0.5443 0.1490
C5 C -0.0600(3) 0.5337(4) 0.08937(11)
H4 H -0.1442 0.5056 0.0807
C6 C 0.3882(3) 0.7016(3) 0.09844(8)
H5 H 0.4156 0.6304 0.0818
H6 H 0.3559 0.7698 0.0814
C7 C 0.5000 0.7500 0.1250
N1 N 0.0322(2) 0.5493(3) 0.06146(8)
N2 N -0.1343(3) 0.3515(3) 0.01968(8)
N3 N -0.1449(2) 0.2431(2) 0.01082(7)
N4 N -0.1602(3) 0.1334(3) 0.00187(8)
O1 O 0.2912(2) 0.6612(3) 0.12682(6)
Co1 Co -0.0000 0.5000 0.0000
C1E C 0.8516(3) 0.9086(3) 0.07360(9)
H1E H 0.7849 0.8967 0.0537
C2E C 0.8248(3) 0.8815(3) 0.11322(9)
C3E C 0.9200(3) 0.8996(3) 0.14212(10)
H2E H 0.9026 0.8831 0.1702
C4E C 1.0385(4) 0.9422(4) 0.12977(11)
H3E H 1.1069 0.9557 0.1490
C5E C 1.0600(3) 0.9663(4) 0.08937(11)
H4E H 1.1442 0.9944 0.0807
C6E C 0.6118(3) 0.7984(3) 0.09844(8)
H5E H 0.5844 0.8696 0.0818
H6E H 0.6441 0.7302 0.0814
N1E N 0.9678(2) 0.9507(3) 0.06146(8)
O1E O 0.7088(2) 0.8388(3) 0.12682(6)
C1K C 0.6586(3) 0.3984(3) 0.17640(9)
H1K H 0.6467 0.4651 0.1963
C2K C 0.6315(3) 0.4252(3) 0.13678(9)
C3K C 0.6496(3) 0.3300(3) 0.10788(10)
H2K H 0.6331 0.3474 0.0798
C4K C 0.6922(4) 0.2115(4) 0.12023(11)
H3K H 0.7057 0.1431 0.1010
C5K C 0.7163(4) 0.1900(3) 0.16063(11)
H4K H 0.7444 0.1058 0.1693
C6K C 0.5484(3) 0.6382(3) 0.15156(8)
H5K H 0.6196 0.6656 0.1682
H6K H 0.4802 0.6059 0.1686
N1K N 0.7007(3) 0.2822(2) 0.18854(8)
O1K O 0.5888(3) 0.5412(2) 0.12318(6)
C1N C 0.3414(3) 1.1016(3) 0.17640(9)
H1N H 0.3533 1.0349 0.1963
C2N C 0.3685(3) 1.0748(3) 0.13678(9)
C3N C 0.3504(3) 1.1700(3) 0.10788(10)
H2N H 0.3669 1.1526 0.0798
C4N C 0.3078(4) 1.2885(4) 0.12023(11)
H3N H 0.2943 1.3569 0.1010
C5N C 0.2837(4) 1.3100(3) 0.16063(11)
H4N H 0.2556 1.3942 0.1693
C6N C 0.4516(3) 0.8618(3) 0.15156(8)
H5N H 0.3804 0.8344 0.1682
H6N H 0.5198 0.8941 0.1686
N1N N 0.2993(3) 1.2178(2) 0.18854(8)
O1N O 0.4112(3) 0.9588(2) 0.12318(6)
N2E N 0.1343(3) 0.1485(3) 0.01968(8)
N3E N 0.1449(2) 0.2569(2) 0.01082(7)
N4E N 0.1602(3) 0.3666(3) 0.00187(8)
Co1E Co 0.0000 0.0000 0.0000
N2H N 0.1343(3) 0.6485(3) -0.01968(8)
N3H N 0.1449(2) 0.7569(2) -0.01082(7)
N4H N 0.1602(3) 0.8666(3) -0.00187(8)
N2M N -0.1343(3) 0.8515(3) -0.01968(8)
N3M N -0.1449(2) 0.7431(2) -0.01082(7)
N4M N -0.1602(3) 0.6334(3) -0.00187(8)
N1E_2 N -0.0322(2) -0.0493(3) 0.06146(8)
N1H N -0.0322(2) 0.4507(3) -0.06146(8)
N1M N 0.0322(2) 0.0493(3) -0.06146(8)
N2M_2 N -0.1343(3) -0.1485(3) -0.01968(8)
N4H_2 N 0.1602(3) -0.1334(3) -0.00187(8)
Co1B Co 0.2500 1.2500 0.2500
Co1E_2 Co -0.0000 1.0000 0.0000
Co1E_3 Co 1.0000 1.0000 0.0000
Co1G Co 0.7500 0.2500 0.2500
O2 O 0.5528(4) 0.1243(6) 0.00465(16)
H7 H 0.6351 0.1234 0.0032
H8 H 0.5288 0.1516 0.0277
loop_
_geom_bond_atom_site_label_1
_geom_bond_atom_site_label_2
_geom_bond_site_symmetry_1
_geom_bond_site_symmetry_2
C1 H1 1_555 1_555
C2 C1 1_555 1_555
C3 C2 1_555 1_555
H2 C3 1_555 1_555
C4 C3 1_555 1_555
H3 C4 1_555 1_555
C5 C4 1_555 1_555
H4 C5 1_555 1_555
C6 H5 1_555 1_555
H6 C6 1_555 1_555
C7 C6 1_555 1_555
N1 C1 1_555 1_555
N2 N3 1_555 1_555
N3 N4 1_555 1_555
N4 Co1E 1_555 1_555
O1 C2 1_555 1_555
Co1 N1 1_555 1_555
O2 H7 1_555 1_555
H8 O2 1_555 1_555
C1E H1E 1_555 1_555
C2E C1E 1_555 1_555
C3E C2E 1_555 1_555
H2E C3E 1_555 1_555
C4E C3E 1_555 1_555
H3E C4E 1_555 1_555
C5E C4E 1_555 1_555
H4E C5E 1_555 1_555
C6E C7 1_555 1_555
H5E C6E 1_555 1_555
H6E C6E 1_555 1_555
N1E C1E 1_555 1_555
O1E C2E 1_555 1_555
C1K H1K 1_555 1_555
C2K C1K 1_555 1_555
C3K C2K 1_555 1_555
H2K C3K 1_555 1_555
C4K C3K 1_555 1_555
H3K C4K 1_555 1_555
C5K C4K 1_555 1_555
H4K C5K 1_555 1_555
C6K C7 1_555 1_555
H5K C6K 1_555 1_555
H6K C6K 1_555 1_555
N1K C1K 1_555 1_555
O1K C2K 1_555 1_555
C1N H1N 1_555 1_555
C2N C1N 1_555 1_555
C3N C2N 1_555 1_555
H2N C3N 1_555 1_555
C4N C3N 1_555 1_555
H3N C4N 1_555 1_555
C5N C4N 1_555 1_555
H4N C5N 1_555 1_555
C6N C7 1_555 1_555
H5N C6N 1_555 1_555
H6N C6N 1_555 1_555
N1N C1N 1_555 1_555
O1N C2N 1_555 1_555
N2E N3E 1_555 1_555
N3E N4E 1_555 1_555
N4E Co1 1_555 1_555
Co1E N2E 1_555 1_555
N2H Co1 1_555 1_555
N3H N2H 1_555 1_555
N4H N3H 1_555 1_555
N2M N3M 1_555 1_555
N3M N4M 1_555 1_555
N4M Co1 1_555 1_555
N1E_2 Co1E 1_555 1_555
N1H Co1 1_555 1_555
N1M Co1E 1_555 1_555
N2M_2 Co1E 1_555 1_555
N4H_2 Co1E 1_555 1_555
Co1B N1N 1_555 1_555
Co1E_2 N4H 1_555 1_555
Co1E_3 N1E 1_555 1_555
Co1G N1K 1_555 1_555
C5 N1 1_555 1_555
C6 O1 1_555 1_555
N2 Co1 1_555 1_555
C5E N1E 1_555 1_555
C6E O1E 1_555 1_555
C5K N1K 1_555 1_555
C6K O1K 1_555 1_555
C5N N1N 1_555 1_555
C6N O1N 1_555 1_555
N2M Co1E_2 1_555 1_555

#END
