
#######################################################################
#
#                 Cambridge Crystallographic Data Centre
#                                CCDC 
#
#######################################################################
#
# If this CIF has been generated from an entry in the Cambridge 
# Structural Database, then it will include bibliographic, chemical, 
# crystal, experimental, refinement or atomic coordinate data resulting 
# from the CCDC's data processing and validation procedures.
#
#######################################################################

data_QOBWIN
_chemical_formula_moiety         '(C6 H27 N4 O21 P5 Zn5)n'
_symmetry_cell_setting           monoclinic
_symmetry_space_group_name_H-M   'P 21'
_symmetry_Int_Tables_number      4
_space_group_name_Hall           'P 2yb'
loop_
_symmetry_equiv_pos_site_id
_symmetry_equiv_pos_as_xyz
1 x,y,z
2 -x,1/2+y,-z
_cell_length_a                   9.2994(4)
_cell_length_b                   9.7510(4)
_cell_length_c                   14.3348(6)
_cell_angle_alpha                90
_cell_angle_beta                 90.9740(10)
_cell_angle_gamma                90
_cell_volume                     1299.67
loop_
_atom_site_label
_atom_site_type_symbol
_atom_site_fract_x
_atom_site_fract_y
_atom_site_fract_z
Zn1 Zn -0.4677(1) 0.8853(1) 0.2673(1)
Zn2 Zn -0.7716(1) 1.3769(1) 0.3755(1)
Zn3 Zn -0.2437(1) 0.9040(1) -0.1300(1)
Zn4 Zn -0.0706(1) 1.1135(1) 0.2456(1)
Zn5 Zn -0.0770(1) 0.7396(1) 0.2270(1)
P1 P -0.2046(2) 0.9262(2) 0.3935(1)
P2 P -0.2438(2) 0.9165(2) 0.0986(1)
P3 P -1.0444(2) 1.4289(2) 0.2378(1)
P4 P -0.7354(2) 1.1220(2) 0.2423(1)
P5 P -0.5556(2) 0.5628(2) 0.2725(1)
O1 O -0.3718(5) 0.8606(6) 0.1506(3)
O2 O -0.3611(5) 0.9699(4) 0.3709(3)
O3 O -0.5245(5) 0.7045(4) 0.3087(3)
O4 O -0.6355(6) 1.0012(5) 0.2483(4)
O5 O -0.7584(6) 1.1857(5) 0.3378(3)
O6 O -0.5877(4) 0.4629(4) 0.3518(3)
O7 O -0.1834(5) 0.8883(6) 0.4955(3)
O8 O -0.9418(4) 1.4608(5) 0.3193(3)
O9 O -0.9623(4) 1.4074(5) 0.1467(3)
O10 O -0.2863(5) 0.9401(5) -0.0026(3)
O11 O -0.6758(5) 0.5618(4) 0.1994(3)
O12 O -0.6762(5) 1.2292(5) 0.1740(3)
O13 O -0.1010(5) 1.0443(5) 0.3700(3)
O14 O -1.1369(5) 1.3025(4) 0.2579(3)
O15 O -0.8804(5) 1.0699(5) 0.2030(3)
O16 O -0.1940(5) 1.0540(5) 0.1425(3)
O17 O -0.1687(5) 0.7987(5) 0.3363(4)
O18 O 0.1325(7) 0.7620(8) 0.2482(5)
O19 O -0.1178(5) 0.8135(5) 0.1043(3)
O20 O -1.1471(5) 1.5511(4) 0.2250(3)
O21 O -0.4180(5) 0.5024(5) 0.2219(4)
H1 H -0.4364(5) 0.4232(5) 0.2019(4)
H26 H 0.1499(85) 0.8093(76) 0.2335(58)
H27 H 0.2064(94) 0.7148(84) 0.2350(58)
O6_2 O -0.5877(4) 1.4629(4) 0.3518(3)
O7A O -0.8166(5) 1.3883(6) 0.5045(3)
O9A O -0.0377(4) 0.9074(5) -0.1467(3)
O11A O -0.3242(5) 1.0618(4) -0.1994(3)
O12A O -0.3238(5) 0.7292(5) -0.1740(3)
O14_2 O -0.1369(5) 1.3025(4) 0.2579(3)
O15_2 O 0.1196(5) 1.0699(5) 0.2030(3)
O20_2 O -0.1471(5) 0.5511(4) 0.2250(3)
Zn2_2 Zn -0.7716(1) 0.3769(1) 0.3755(1)
Zn2A Zn -0.2284(1) 0.8769(1) 0.6245(1)
Zn3A Zn -0.7563(1) 1.4040(1) 0.1300(1)
Zn3A_2 Zn -0.7563(1) 0.4040(1) 0.1300(1)
Zn4_2 Zn -1.0706(1) 1.1135(1) 0.2456(1)
Zn5_2 Zn -1.0770(1) 1.7396(1) 0.2270(1)
P5_2 P -0.5556(2) 1.5628(2) 0.2725(1)
O11_2 O -0.6758(5) 1.5618(4) 0.1994(3)
N1 N 0.6030(6) 0.2529(6) 1.1083(4)
N2 N 0.8921(7) 0.5632(6) 0.9971(4)
C1 C 0.7481(8) 0.4995(7) 1.0064(5)
C2 C 0.7501(8) 0.3487(8) 0.9837(5)
C3 C 0.6125(8) 0.2742(9) 1.0073(5)
H2 H 0.5198(6) 0.2081(6) 1.1212(4)
H3 H 0.6039(6) 0.3356(6) 1.1378(4)
H4 H 0.6792(6) 0.2019(6) 1.1287(4)
H5 H 0.8867(7) 0.6540(6) 1.0113(4)
H6 H 0.9223(7) 0.5533(6) 0.9374(4)
H7 H 0.9556(7) 0.5214(6) 1.0368(4)
H8 H 0.6789(8) 0.5465(7) 0.9640(5)
H9 H 0.7149(8) 0.5121(7) 1.0711(5)
H10 H 0.8311(8) 0.3053(8) 1.0182(5)
H11 H 0.7679(8) 0.3376(8) 0.9162(5)
H12 H 0.5288(8) 0.3284(9) 0.9850(5)
H13 H 0.6100(8) 0.1844(9) 0.9751(5)
N3 N 0.3783(6) 0.7535(6) 0.6152(4)
N4 N 0.0981(6) 1.0844(6) 0.5232(4)
C4 C 0.2336(8) 1.0094(8) 0.5269(6)
C5 C 0.2144(8) 0.8623(8) 0.4968(5)
C6 C 0.3464(9) 0.7751(9) 0.5144(5)
H14 H 0.4585(6) 0.7006(6) 0.6219(4)
H15 H 0.3026(6) 0.7106(6) 0.6420(4)
H16 H 0.3935(6) 0.8359(6) 0.6433(4)
H17 H 0.1133(6) 1.1725(6) 0.5417(4)
H18 H 0.0341(6) 1.0438(6) 0.5618(4)
H19 H 0.0622(6) 1.0836(6) 0.4637(4)
H20 H 0.2733(8) 1.0118(8) 0.5914(6)
H21 H 0.3035(8) 1.0548(8) 0.4857(6)
H22 H 0.1899(8) 0.8601(8) 0.4293(5)
H23 H 0.1326(8) 0.8221(8) 0.5307(5)
H24 H 0.3323(9) 0.6848(9) 0.4840(5)
H25 H 0.4302(9) 0.8197(9) 0.4854(5)
loop_
_geom_bond_atom_site_label_1
_geom_bond_atom_site_label_2
_geom_bond_site_symmetry_1
_geom_bond_site_symmetry_2
Zn1 O1 1_555 1_555
Zn2 O5 1_555 1_555
Zn3 O10 1_555 1_555
Zn4 O13 1_555 1_555
Zn5 O17 1_555 1_555
P1 O2 1_555 1_555
P2 O1 1_555 1_555
P3 O8 1_555 1_555
P4 O4 1_555 1_555
P5 O3 1_555 1_555
O2 Zn1 1_555 1_555
O3 Zn1 1_555 1_555
O4 Zn1 1_555 1_555
O5 P4 1_555 1_555
O6 P5 1_555 1_555
O7 P1 1_555 1_555
O8 Zn2 1_555 1_555
O9 P3 1_555 1_555
O10 P2 1_555 1_555
O11 P5 1_555 1_555
O12 P4 1_555 1_555
O13 P1 1_555 1_555
O14 P3 1_555 1_555
O15 P4 1_555 1_555
O16 Zn4 1_555 1_555
O17 P1 1_555 1_555
O18 Zn5 1_555 1_555
O19 Zn5 1_555 1_555
O20 P3 1_555 1_555
O21 P5 1_555 1_555
N1 C3 1_555 1_555
N2 C1 1_555 1_555
C1 C2 1_555 1_555
C2 C3 1_555 1_555
C3 H12 1_555 1_555
N3 C6 1_555 1_555
N4 C4 1_555 1_555
C4 C5 1_555 1_555
C5 C6 1_555 1_555
C6 H24 1_555 1_555
H1 O21 1_555 1_555
H2 N1 1_555 1_555
H3 N1 1_555 1_555
H4 N1 1_555 1_555
H5 N2 1_555 1_555
H6 N2 1_555 1_555
H7 N2 1_555 1_555
H8 C1 1_555 1_555
H9 C1 1_555 1_555
H10 C2 1_555 1_555
H11 C2 1_555 1_555
H13 C3 1_555 1_555
H14 N3 1_555 1_555
H15 N3 1_555 1_555
H16 N3 1_555 1_555
H17 N4 1_555 1_555
H18 N4 1_555 1_555
H19 N4 1_555 1_555
H20 C4 1_555 1_555
H21 C4 1_555 1_555
H22 C5 1_555 1_555
H23 C5 1_555 1_555
H25 C6 1_555 1_555
H26 O18 1_555 1_555
H27 O18 1_555 1_555
O6_2 Zn2 1_555 1_555
O7A Zn2 1_555 1_555
O9A Zn3 1_555 1_555
O11A Zn3 1_555 1_555
O12A Zn3 1_555 1_555
O14_2 Zn4 1_555 1_555
O15_2 Zn4 1_555 1_555
O20_2 Zn5 1_555 1_555
Zn2_2 O6 1_555 1_555
Zn2A O7 1_555 1_555
Zn3A O9 1_555 1_555
Zn3A_2 O11 1_555 1_555
Zn4_2 O14 1_555 1_555
Zn5_2 O20 1_555 1_555
P5_2 O6_2 1_555 1_555
O11_2 Zn3A 1_555 1_555
P2 O16 1_555 1_555
P2 O19 1_555 1_555
O12 Zn3A 1_555 1_555
O15 Zn4_2 1_555 1_555
P5_2 O11_2 1_555 1_555

#END
