
#######################################################################
#
#                 Cambridge Crystallographic Data Centre
#                                CCDC 
#
#######################################################################
#
# If this CIF has been generated from an entry in the Cambridge 
# Structural Database, then it will include bibliographic, chemical, 
# crystal, experimental, refinement or atomic coordinate data resulting 
# from the CCDC's data processing and validation procedures.
#
#######################################################################

data_INIGET
_chemical_formula_moiety         '(C24 H24 Mo2 N4 Ni1 O10)n'
_symmetry_cell_setting           monoclinic
_symmetry_space_group_name_H-M   'I 2/a'
_symmetry_Int_Tables_number      15
_space_group_name_Hall           '-I 2ya'
loop_
_symmetry_equiv_pos_site_id
_symmetry_equiv_pos_as_xyz
1 x,y,z
2 1/2-x,y,-z
3 1/2+x,1/2+y,1/2+z
4 -x,1/2+y,1/2-z
5 -x,-y,-z
6 1/2+x,-y,z
7 1/2-x,1/2-y,1/2-z
8 x,1/2-y,1/2+z
_cell_length_a                   8.9864(4)
_cell_length_b                   27.7885(12)
_cell_length_c                   10.9530(4)
_cell_angle_alpha                90
_cell_angle_beta                 99.196(4)
_cell_angle_gamma                90
_cell_volume                     2700.01
loop_
_atom_site_label
_atom_site_type_symbol
_atom_site_fract_x
_atom_site_fract_y
_atom_site_fract_z
Mo1 Mo 0.58569(2) 0.64903(2) -0.12595(2)
Ni1 Ni 0.2500 0.61722(2) 0.0000
O1 O 0.66937(19) 0.18396(6) 0.41340(16)
O2 O 0.43090(19) 0.61583(6) -0.09343(16)
O3 O 0.5395(2) 0.70919(7) -0.13701(18)
O4 O 0.7500 0.63799(11) 0.0000
O5 O 0.6293(2) 0.62918(7) -0.26423(17)
N1 N 0.3716(2) 0.57232(7) 0.13399(18)
N2 N 0.7500 0.51590(10) 0.5000
C1 C 0.3380(3) 0.52701(9) 0.1604(2)
H1 H 0.2514 0.5133 0.1162
C2 C 0.4247(3) 0.49932(9) 0.2496(2)
H2 H 0.3977 0.4676 0.2621
C3 C 0.5524(3) 0.51900(8) 0.3207(2)
C4 C 0.5858(3) 0.56648(9) 0.2951(2)
H3 H 0.6691 0.5816 0.3406
C5 C 0.4953(3) 0.59108(9) 0.2024(3)
H4 H 0.5214 0.6226 0.1862
C6 C 0.6537(3) 0.49093(8) 0.4162(2)
C7 C 0.6502(3) 0.44084(8) 0.4142(2)
H5 H 0.5814 0.4247 0.3558
C8 C 0.7500 0.41499(11) 0.5000
C9 C 0.7500 0.36161(12) 0.5000
C10 C 0.7212(3) 0.33597(8) 0.3893(2)
H6 H 0.7047 0.3525 0.3146
C11 C 0.7167(3) 0.28610(8) 0.3894(2)
H7 H 0.6914 0.2695 0.3152
C12 C 0.7500 0.26070(11) 0.5000
C13 C 0.7500 0.20669(12) 0.5000
O1A O 0.83063(19) 0.18396(6) 0.58660(16)
N1A N 1.1284(2) 0.57232(7) 0.86601(18)
C1A C 1.1620(3) 0.52701(9) 0.8396(2)
H1A H 1.2486 0.5133 0.8838
C2A C 1.0753(3) 0.49932(9) 0.7504(2)
H2A H 1.1023 0.4676 0.7379
C3A C 0.9476(3) 0.51900(8) 0.6793(2)
C4A C 0.9142(3) 0.56648(9) 0.7049(2)
H3A H 0.8309 0.5816 0.6594
C5A C 1.0047(3) 0.59108(9) 0.7976(3)
H4A H 0.9786 0.6226 0.8138
C6A C 0.8463(3) 0.49093(8) 0.5838(2)
C7A C 0.8498(3) 0.44084(8) 0.5858(2)
H5A H 0.9186 0.4247 0.6442
C10A C 0.7788(3) 0.33597(8) 0.6107(2)
H6A H 0.7953 0.3525 0.6854
C11A C 0.7833(3) 0.28610(8) 0.6106(2)
H7A H 0.8086 0.2695 0.6848
Mo1A Mo -0.08569(2) 0.64903(2) 0.12595(2)
O2A O 0.06910(19) 0.61583(6) 0.09343(16)
O3A O -0.0395(2) 0.70919(7) 0.13701(18)
O5A O -0.1293(2) 0.62918(7) 0.26423(17)
Mo1A_2 Mo 0.91431(2) 0.64903(2) 0.12595(2)
Ni1_2 Ni 1.2500 0.61722(2) 1.0000
Ni1B Ni 0.7500 0.11722(2) 0.5000
O1B O 0.16937(19) 0.68396(6) -0.08660(16)
O1C O 0.33063(19) 0.68396(6) 0.08660(16)
O4_2 O -0.2500 0.63799(11) 0.0000
N1A_2 N 0.1284(2) 0.57232(7) -0.13399(18)
N3 N 0.7500 0.71297(11) 0.5000
H8 H 0.7724 0.7318 0.4398
C14 C 0.8829(3) 0.68336(11) 0.5483(3)
H9 H 0.9044 0.6618 0.4849
H10 H 0.8625 0.6651 0.6182
H11 H 0.9682 0.7039 0.5732
H8A H 0.7276 0.7318 0.5602
C14A C 0.6171(3) 0.68336(11) 0.4517(3)
H9A H 0.5956 0.6618 0.5151
H10A H 0.6375 0.6651 0.3818
H11A H 0.5318 0.7039 0.4268
O6 O 0.3821(3) 0.27155(9) 0.8303(2)
H13 H 0.466(5) 0.2837(14) 0.862(4)
H14 H 0.395(5) 0.2571(15) 0.780(4)
loop_
_geom_bond_atom_site_label_1
_geom_bond_atom_site_label_2
_geom_bond_site_symmetry_1
_geom_bond_site_symmetry_2
Mo1 O2 1_555 1_555
Ni1 O2 1_555 1_555
O1 C13 1_555 1_555
O3 Mo1 1_555 1_555
O4 Mo1 1_555 1_555
O5 Mo1 1_555 1_555
N1 Ni1 1_555 1_555
N2 C6 1_555 1_555
C1 N1 1_555 1_555
H1 C1 1_555 1_555
C2 C1 1_555 1_555
H2 C2 1_555 1_555
C3 C2 1_555 1_555
C4 C3 1_555 1_555
H3 C4 1_555 1_555
C5 N1 1_555 1_555
H4 C5 1_555 1_555
C6 C3 1_555 1_555
C7 C6 1_555 1_555
H5 C7 1_555 1_555
C8 C7 1_555 1_555
C9 C8 1_555 1_555
C10 C9 1_555 1_555
H6 C10 1_555 1_555
C11 C10 1_555 1_555
H7 C11 1_555 1_555
C12 C11 1_555 1_555
C13 C12 1_555 1_555
N3 H8 1_555 1_555
C14 N3 1_555 1_555
H9 C14 1_555 1_555
H10 C14 1_555 1_555
H11 C14 1_555 1_555
O6 H13 1_555 1_555
H14 O6 1_555 1_555
O1A C13 1_555 1_555
N1A C1A 1_555 1_555
C1A H1A 1_555 1_555
C2A C1A 1_555 1_555
H2A C2A 1_555 1_555
C3A C2A 1_555 1_555
C4A C3A 1_555 1_555
H3A C4A 1_555 1_555
C5A N1A 1_555 1_555
H4A C5A 1_555 1_555
C6A N2 1_555 1_555
C7A C8 1_555 1_555
H5A C7A 1_555 1_555
C10A C9 1_555 1_555
H6A C10A 1_555 1_555
C11A C12 1_555 1_555
H7A C11A 1_555 1_555
Mo1A O2A 1_555 1_555
O2A Ni1 1_555 1_555
O3A Mo1A 1_555 1_555
O5A Mo1A 1_555 1_555
Mo1A_2 O4 1_555 1_555
Ni1_2 N1A 1_555 1_555
Ni1B O1 1_555 1_555
O1B Ni1 1_555 1_555
O1C Ni1 1_555 1_555
O4_2 Mo1A 1_555 1_555
N1A_2 Ni1 1_555 1_555
H8A N3 1_555 1_555
C14A N3 1_555 1_555
H9A C14A 1_555 1_555
H10A C14A 1_555 1_555
H11A C14A 1_555 1_555
C4 C5 1_555 1_555
O1A Ni1B 1_555 1_555
C3A C6A 1_555 1_555
C4A C5A 1_555 1_555
C6A C7A 1_555 1_555
C10A C11A 1_555 1_555

#END
