
#######################################################################
#
#                 Cambridge Crystallographic Data Centre
#                                CCDC 
#
#######################################################################
#
# If this CIF has been generated from an entry in the Cambridge 
# Structural Database, then it will include bibliographic, chemical, 
# crystal, experimental, refinement or atomic coordinate data resulting 
# from the CCDC's data processing and validation procedures.
#
#######################################################################

data_ILIFUE
_chemical_formula_moiety         '(C18 H28 Ce2 O26)n'
_symmetry_cell_setting           trigonal
_symmetry_space_group_name_H-M   'P -3'
_symmetry_Int_Tables_number      147
_space_group_name_Hall           '-P 3'
loop_
_symmetry_equiv_pos_site_id
_symmetry_equiv_pos_as_xyz
1 x,y,z
2 -y,x-y,z
3 -x+y,-x,z
4 -x,-y,-z
5 y,-x+y,-z
6 x-y,x,-z
_cell_length_a                   10.2880(15)
_cell_length_b                   10.2880(15)
_cell_length_c                   8.9427(18)
_cell_angle_alpha                90
_cell_angle_beta                 90
_cell_angle_gamma                120
_cell_volume                     819.712
loop_
_atom_site_label
_atom_site_type_symbol
_atom_site_fract_x
_atom_site_fract_y
_atom_site_fract_z
O1 O 0.6965(3) 0.6076(3) 0.4409(3)
O2 O 0.6491(3) 0.5663(3) 0.0782(3)
O3 O 0.5187(3) 0.6782(3) 0.1371(3)
C1 C 0.5545(4) 0.5798(4) 0.1562(4)
Ce1 Ce 0.6667 0.3333 0.04988(3)
O7 O 0.5120(4) 0.3510(3) 0.2654(3)
C2 C 0.5381(4) 0.5503(4) 0.4334(4)
H1 H 0.5201 0.6352 0.4376
C3 C 0.4790(4) 0.4701(4) 0.2844(4)
H2 H 0.3702 0.4291 0.2793
C2C C 0.4619(4) 0.4497(4) 0.5666(4)
O1C O 0.3035(3) 0.3924(3) 0.5591(3)
H1C H 0.4799 0.3648 0.5624
C3C C 0.5210(4) 0.5299(4) 0.7156(4)
C1C C 0.4455(4) 0.4202(4) 0.8438(4)
O2C O 0.3509(3) 0.4337(3) 0.9218(3)
O3C O 0.4813(3) 0.3218(3) 0.8629(3)
O7C O 0.4880(4) 0.6490(3) 0.7346(3)
H2C H 0.6298 0.5709 0.7207
O1A O 0.3924(3) 0.0889(4) 0.4409(3)
O2A O 0.4337(3) 0.0828(4) 0.0782(3)
O3A O 0.3218(3) -0.1595(4) 0.1371(3)
C1A C 0.4202(4) -0.0253(6) 0.1562(4)
O7A O 0.6490(3) 0.1610(5) 0.2654(3)
C2A C 0.4497(4) -0.0122(6) 0.4334(4)
H1A H 0.3648 -0.1151 0.4376
C3A C 0.5299(4) 0.0089(6) 0.2844(4)
H2A H 0.5709 -0.0589 0.2793
C2D C 0.5503(4) 0.0122(6) 0.5666(4)
O1D O 0.6076(3) -0.0889(4) 0.5591(3)
H1D H 0.6352 0.1151 0.5624
C3D C 0.4701(4) -0.0089(6) 0.7156(4)
C1D C 0.5798(4) 0.0253(6) 0.8438(4)
O2D O 0.5663(3) -0.0828(4) 0.9218(3)
O3D O 0.6782(3) 0.1595(4) 0.8629(3)
O7D O 0.3510(3) -0.1610(5) 0.7346(3)
H2D H 0.4291 0.0589 0.7207
O1B O 0.9111(4) 0.3035(3) 0.4409(3)
O2B O 0.9172(4) 0.3509(3) 0.0782(3)
O3B O 1.1595(4) 0.4813(3) 0.1371(3)
C1B C 1.0253(6) 0.4455(4) 0.1562(4)
O7B O 0.8390(5) 0.4880(4) 0.2654(3)
C2B C 1.0122(6) 0.4619(4) 0.4334(4)
H1B H 1.1151 0.4799 0.4376
C3B C 0.9911(6) 0.5210(4) 0.2844(4)
H2B H 1.0589 0.6298 0.2793
C2E C 0.9878(6) 0.5381(4) 0.5666(4)
O1E O 1.0889(4) 0.6965(3) 0.5591(3)
H1E H 0.8849 0.5201 0.5624
C3E C 1.0089(6) 0.4790(4) 0.7156(4)
C1E C 0.9747(6) 0.5545(4) 0.8438(4)
O2E O 1.0828(4) 0.6491(3) 0.9218(3)
O3E O 0.8405(4) 0.5187(3) 0.8629(3)
O7E O 1.1610(5) 0.5120(4) 0.7346(3)
H2E H 0.9411 0.3702 0.7207
Ce1C Ce 0.3333 0.6667 0.95012(3)
Ce1C_2 Ce 0.3333 0.6667 -0.04988(3)
O3C_2 O 0.4813(3) 0.3218(3) -0.1371(3)
O3D_2 O 0.6782(3) 0.1595(4) -0.1371(3)
O3E_2 O 0.8405(4) 0.5187(3) -0.1371(3)
Ce1_2 Ce 0.6667 0.3333 1.04988(3)
Ce1C_3 Ce 0.3333 -0.3333 -0.04988(3)
Ce1C_4 Ce 0.3333 -0.3333 0.95012(3)
Ce1C_5 Ce 1.3333 0.6667 -0.04988(3)
Ce1C_6 Ce 1.3333 0.6667 0.95012(3)
O2D_2 O 0.5663(3) 0.9172(4) 0.9218(3)
O2E_2 O 0.0828(4) 0.6491(3) 0.9218(3)
O3_2 O 0.5187(3) 0.6782(3) 1.1371(3)
O3A_2 O 0.3218(3) 0.8405(4) 1.1371(3)
O3B_2 O 0.1595(4) 0.4813(3) 1.1371(3)
O7D_2 O 0.3510(3) 0.8390(5) 0.7346(3)
O7E_2 O 0.1610(5) 0.5120(4) 0.7346(3)
O4 O 0.8211(16) 0.8204(16) -0.1035(12)
O5 O 0.899(3) 0.817(2) 0.643(2)
loop_
_geom_bond_atom_site_label_1
_geom_bond_atom_site_label_2
_geom_bond_site_symmetry_1
_geom_bond_site_symmetry_2
O1 C2 1_555 1_555
O2 C1 1_555 1_555
O3 C1 1_555 1_555
C1 C3 1_555 1_555
Ce1 O2 1_555 1_555
O7 Ce1 1_555 1_555
C2 H1 1_555 1_555
C3 O7 1_555 1_555
H2 C3 1_555 1_555
C2C C2 1_555 1_555
O1C C2C 1_555 1_555
H1C C2C 1_555 1_555
C3C C2C 1_555 1_555
C1C C3C 1_555 1_555
O2C C1C 1_555 1_555
O3C C1C 1_555 1_555
O7C C3C 1_555 1_555
H2C C3C 1_555 1_555
O1A C2A 1_555 1_555
O2A Ce1 1_555 1_555
O3A C1A 1_555 1_555
C1A O2A 1_555 1_555
O7A Ce1 1_555 1_555
C2A H1A 1_555 1_555
C3A C1A 1_555 1_555
H2A C3A 1_555 1_555
C2D C2A 1_555 1_555
O1D C2D 1_555 1_555
H1D C2D 1_555 1_555
C3D C2D 1_555 1_555
C1D C3D 1_555 1_555
O2D C1D 1_555 1_555
O3D C1D 1_555 1_555
O7D C3D 1_555 1_555
H2D C3D 1_555 1_555
O1B C2B 1_555 1_555
O2B Ce1 1_555 1_555
O3B C1B 1_555 1_555
C1B O2B 1_555 1_555
O7B Ce1 1_555 1_555
C2B H1B 1_555 1_555
C3B C1B 1_555 1_555
H2B C3B 1_555 1_555
C2E C2B 1_555 1_555
O1E C2E 1_555 1_555
H1E C2E 1_555 1_555
C3E C2E 1_555 1_555
C1E C3E 1_555 1_555
O2E C1E 1_555 1_555
O3E C1E 1_555 1_555
O7E C3E 1_555 1_555
H2E C3E 1_555 1_555
Ce1C O2C 1_555 1_555
Ce1C_2 O3 1_555 1_555
O3C_2 Ce1 1_555 1_555
O3D_2 Ce1 1_555 1_555
O3E_2 Ce1 1_555 1_555
Ce1_2 O3C 1_555 1_555
Ce1C_3 O3A 1_555 1_555
Ce1C_4 O2D 1_555 1_555
Ce1C_5 O3B 1_555 1_555
Ce1C_6 O2E 1_555 1_555
O2D_2 Ce1C 1_555 1_555
O2E_2 Ce1C 1_555 1_555
O3_2 Ce1C 1_555 1_555
O3A_2 Ce1C 1_555 1_555
O3B_2 Ce1C 1_555 1_555
O7D_2 Ce1C 1_555 1_555
O7E_2 Ce1C 1_555 1_555
C2 C3 1_555 1_555
O7C Ce1C 1_555 1_555
O7A C3A 1_555 1_555
C2A C3A 1_555 1_555
O3D Ce1_2 1_555 1_555
O7D Ce1C_4 1_555 1_555
O7B C3B 1_555 1_555
C2B C3B 1_555 1_555
O3E Ce1_2 1_555 1_555
O7E Ce1C_6 1_555 1_555

#END
