
#######################################################################
#
#                 Cambridge Crystallographic Data Centre
#                                CCDC 
#
#######################################################################
#
# If this CIF has been generated from an entry in the Cambridge 
# Structural Database, then it will include bibliographic, chemical, 
# crystal, experimental, refinement or atomic coordinate data resulting 
# from the CCDC's data processing and validation procedures.
#
#######################################################################

data_ILIGEP
_chemical_formula_moiety         '(C18 H28 Nd2 O26)n'
_symmetry_cell_setting           trigonal
_symmetry_space_group_name_H-M   'P -3'
_symmetry_Int_Tables_number      147
_space_group_name_Hall           '-P 3'
loop_
_symmetry_equiv_pos_site_id
_symmetry_equiv_pos_as_xyz
1 x,y,z
2 -y,x-y,z
3 -x+y,-x,z
4 -x,-y,-z
5 y,-x+y,-z
6 x-y,x,-z
_cell_length_a                   10.2151(14)
_cell_length_b                   10.2151(14)
_cell_length_c                   8.9021(18)
_cell_angle_alpha                90
_cell_angle_beta                 90
_cell_angle_gamma                120
_cell_volume                     804.467
loop_
_atom_site_label
_atom_site_type_symbol
_atom_site_fract_x
_atom_site_fract_y
_atom_site_fract_z
O1 O 0.1786(11) 0.1795(11) 0.1031(9)
O2 O 0.104(2) 0.1857(19) 0.351(2)
O3 O 0.6974(3) 0.6096(3) 0.4408(4)
O4 O 0.6500(3) 0.5660(3) 0.0764(3)
O5 O 0.5175(3) 0.6784(3) 0.1354(3)
C1 C 0.5543(4) 0.5796(4) 0.1550(4)
Nd1 Nd 0.6667 0.3333 0.05114(4)
O6 O 0.5112(4) 0.3496(3) 0.2633(3)
C2 C 0.5376(4) 0.5505(4) 0.4326(5)
H1 H 0.5187 0.6355 0.4371
C3 C 0.4782(5) 0.4698(4) 0.2832(4)
H2 H 0.3686 0.4288 0.2780
C2C C 0.4624(4) 0.4495(4) 0.5674(5)
O3C O 0.3026(3) 0.3904(3) 0.5592(4)
H1C H 0.4813 0.3645 0.5629
C3C C 0.5218(5) 0.5302(4) 0.7168(4)
C1C C 0.4457(4) 0.4204(4) 0.8450(4)
O4C O 0.3500(3) 0.4340(3) 0.9236(3)
O5C O 0.4825(3) 0.3216(3) 0.8646(3)
O6C O 0.4888(4) 0.6504(3) 0.7367(3)
H2C H 0.6314 0.5712 0.7220
O3A O 0.3904(3) 0.0878(4) 0.4408(4)
O4A O 0.4340(3) 0.0840(4) 0.0764(3)
O5A O 0.3216(3) -0.1609(4) 0.1354(3)
C1A C 0.4204(4) -0.0253(6) 0.1550(4)
O6A O 0.6504(3) 0.1616(5) 0.2633(3)
C2A C 0.4495(4) -0.0129(6) 0.4326(5)
H1A H 0.3645 -0.1168 0.4371
C3A C 0.5302(4) 0.0084(6) 0.2832(4)
H2A H 0.5712 -0.0602 0.2780
C2D C 0.5505(4) 0.0129(6) 0.5674(5)
O3D O 0.6096(3) -0.0878(4) 0.5592(4)
H1D H 0.6355 0.1168 0.5629
C3D C 0.4698(4) -0.0084(6) 0.7168(4)
C1D C 0.5796(4) 0.0253(6) 0.8450(4)
O4D O 0.5660(3) -0.0840(4) 0.9236(3)
O5D O 0.6784(3) 0.1609(4) 0.8646(3)
O6D O 0.3496(3) -0.1616(5) 0.7367(3)
H2D H 0.4288 0.0602 0.7220
O3B O 0.9122(4) 0.3026(3) 0.4408(4)
O4B O 0.9160(4) 0.3500(3) 0.0764(3)
O5B O 1.1609(4) 0.4825(3) 0.1354(3)
C1B C 1.0253(6) 0.4457(4) 0.1550(4)
O6B O 0.8384(5) 0.4888(4) 0.2633(3)
C2B C 1.0129(6) 0.4624(4) 0.4326(5)
H1B H 1.1168 0.4813 0.4371
C3B C 0.9916(6) 0.5218(5) 0.2832(4)
H2B H 1.0602 0.6314 0.2780
C2E C 0.9871(6) 0.5376(4) 0.5674(5)
O3E O 1.0878(4) 0.6974(3) 0.5592(4)
H1E H 0.8832 0.5187 0.5629
C3E C 1.0084(6) 0.4782(5) 0.7168(4)
C1E C 0.9747(6) 0.5543(4) 0.8450(4)
O4E O 1.0840(4) 0.6500(3) 0.9236(3)
O5E O 0.8391(4) 0.5175(3) 0.8646(3)
O6E O 1.1616(5) 0.5112(4) 0.7367(3)
H2E H 0.9398 0.3686 0.7220
Nd1C Nd 0.3333 0.6667 0.94886(4)
Nd1C_2 Nd 0.3333 0.6667 -0.05114(4)
O5C_2 O 0.4825(3) 0.3216(3) -0.1354(3)
O5D_2 O 0.6784(3) 0.1609(4) -0.1354(3)
O5E_2 O 0.8391(4) 0.5175(3) -0.1354(3)
Nd1_2 Nd 0.6667 0.3333 1.05114(4)
Nd1C_3 Nd 0.3333 -0.3333 -0.05114(4)
Nd1C_4 Nd 0.3333 -0.3333 0.94886(4)
Nd1C_5 Nd 1.3333 0.6667 -0.05114(4)
Nd1C_6 Nd 1.3333 0.6667 0.94886(4)
O4D_2 O 0.5660(3) 0.9160(4) 0.9236(3)
O4E_2 O 0.0840(4) 0.6500(3) 0.9236(3)
O5_2 O 0.5175(3) 0.6784(3) 1.1354(3)
O5A_2 O 0.3216(3) 0.8391(4) 1.1354(3)
O5B_2 O 0.1609(4) 0.4825(3) 1.1354(3)
O6D_2 O 0.3496(3) 0.8384(5) 0.7367(3)
O6E_2 O 0.1616(5) 0.5112(4) 0.7367(3)
loop_
_geom_bond_atom_site_label_1
_geom_bond_atom_site_label_2
_geom_bond_site_symmetry_1
_geom_bond_site_symmetry_2
O3 C2 1_555 1_555
O4 C1 1_555 1_555
O5 C1 1_555 1_555
C1 C3 1_555 1_555
Nd1 O4 1_555 1_555
O6 Nd1 1_555 1_555
C2 H1 1_555 1_555
C3 O6 1_555 1_555
H2 C3 1_555 1_555
C2C C2 1_555 1_555
O3C C2C 1_555 1_555
H1C C2C 1_555 1_555
C3C C2C 1_555 1_555
C1C C3C 1_555 1_555
O4C C1C 1_555 1_555
O5C C1C 1_555 1_555
O6C C3C 1_555 1_555
H2C C3C 1_555 1_555
O3A C2A 1_555 1_555
O4A Nd1 1_555 1_555
O5A C1A 1_555 1_555
C1A O4A 1_555 1_555
O6A Nd1 1_555 1_555
C2A H1A 1_555 1_555
C3A C1A 1_555 1_555
H2A C3A 1_555 1_555
C2D C2A 1_555 1_555
O3D C2D 1_555 1_555
H1D C2D 1_555 1_555
C3D C2D 1_555 1_555
C1D C3D 1_555 1_555
O4D C1D 1_555 1_555
O5D C1D 1_555 1_555
O6D C3D 1_555 1_555
H2D C3D 1_555 1_555
O3B C2B 1_555 1_555
O4B Nd1 1_555 1_555
O5B C1B 1_555 1_555
C1B O4B 1_555 1_555
O6B Nd1 1_555 1_555
C2B H1B 1_555 1_555
C3B C1B 1_555 1_555
H2B C3B 1_555 1_555
C2E C2B 1_555 1_555
O3E C2E 1_555 1_555
H1E C2E 1_555 1_555
C3E C2E 1_555 1_555
C1E C3E 1_555 1_555
O4E C1E 1_555 1_555
O5E C1E 1_555 1_555
O6E C3E 1_555 1_555
H2E C3E 1_555 1_555
Nd1C O4C 1_555 1_555
Nd1C_2 O5 1_555 1_555
O5C_2 Nd1 1_555 1_555
O5D_2 Nd1 1_555 1_555
O5E_2 Nd1 1_555 1_555
Nd1_2 O5C 1_555 1_555
Nd1C_3 O5A 1_555 1_555
Nd1C_4 O4D 1_555 1_555
Nd1C_5 O5B 1_555 1_555
Nd1C_6 O4E 1_555 1_555
O4D_2 Nd1C 1_555 1_555
O4E_2 Nd1C 1_555 1_555
O5_2 Nd1C 1_555 1_555
O5A_2 Nd1C 1_555 1_555
O5B_2 Nd1C 1_555 1_555
O6D_2 Nd1C 1_555 1_555
O6E_2 Nd1C 1_555 1_555
C2 C3 1_555 1_555
O6C Nd1C 1_555 1_555
O6A C3A 1_555 1_555
C2A C3A 1_555 1_555
O5D Nd1_2 1_555 1_555
O6D Nd1C_4 1_555 1_555
O6B C3B 1_555 1_555
C2B C3B 1_555 1_555
O5E Nd1_2 1_555 1_555
O6E Nd1C_6 1_555 1_555

#END
