
#######################################################################
#
#                 Cambridge Crystallographic Data Centre
#                                CCDC 
#
#######################################################################
#
# If this CIF has been generated from an entry in the Cambridge 
# Structural Database, then it will include bibliographic, chemical, 
# crystal, experimental, refinement or atomic coordinate data resulting 
# from the CCDC's data processing and validation procedures.
#
#######################################################################

data_QADWOK
_chemical_formula_moiety         '(C16 H24 N2 O21 P2 Tb2)n'
_symmetry_cell_setting           monoclinic
_symmetry_space_group_name_H-M   'P 21/c'
_symmetry_Int_Tables_number      14
_space_group_name_Hall           '-P 2ybc'
loop_
_symmetry_equiv_pos_site_id
_symmetry_equiv_pos_as_xyz
1 x,y,z
2 -x,1/2+y,1/2-z
3 -x,-y,-z
4 x,1/2-y,1/2+z
_cell_length_a                   9.7284(3)
_cell_length_b                   10.4717(3)
_cell_length_c                   16.4594(6)
_cell_angle_alpha                90
_cell_angle_beta                 112.511(3)
_cell_angle_gamma                90
_cell_volume                     1549.01
loop_
_atom_site_label
_atom_site_type_symbol
_atom_site_fract_x
_atom_site_fract_y
_atom_site_fract_z
C1 C -0.3216(5) 1.0573(6) -0.0309(4)
H1 H -0.3913 1.1140 -0.0677
C2 C -0.3566(7) 0.9298(7) -0.0301(4)
H2 H -0.4501 0.8999 -0.0663
C3 C -0.2536(8) 0.8484(6) 0.0238(4)
H3 H -0.2763 0.7624 0.0250
C4 C -0.1147(8) 0.8934(5) 0.0770(4)
H4 H -0.0444 0.8372 0.1139
C5 C -0.0793(5) 1.0206(5) 0.0760(3)
C6 C 0.0677(5) 1.0756(5) 0.1297(3)
H5 H 0.0929 1.1397 0.0951
H6 H 0.1421 1.0087 0.1436
C7 C -0.0716(4) 0.9683(4) 0.4673(3)
C8 C 0.5177(4) 0.9387(4) 0.5274(3)
Tb1 Tb 0.178729(19) 0.892522(18) 0.393138(11)
N1 N -0.1854(4) 1.0994(4) 0.0222(2)
O1 O 0.0600(3) 1.0452(3) 0.29084(18)
O2 O 0.2349(3) 1.2092(3) 0.2710(2)
H7 H 0.2867 1.1691 0.3148
O3 O -0.0404(3) 1.2501(3) 0.20993(18)
O4 O -0.1542(3) 1.2221(3) 0.01776(19)
O5 O -0.1857(3) 0.9798(3) 0.48470(19)
O6 O -0.0626(3) 0.9123(3) 0.40331(19)
O7 O 0.4238(3) 0.8513(3) 0.5052(2)
O8 O 0.6407(3) 0.9367(3) 0.59170(18)
O9 O 0.3165(4) 0.8297(5) 0.3081(3)
H8 H 0.2797 0.7751 0.2770
H9 H 0.3945 0.8707 0.3106
P1 P 0.07489(11) 1.14779(11) 0.23106(7)
C7B C 0.0716(4) 1.0317(4) 0.5327(3)
O5B O 0.1857(3) 1.0202(3) 0.51530(19)
O6B O 0.0626(3) 1.0877(3) 0.59669(19)
C8B C 0.4823(4) 1.0613(4) 0.4726(3)
O7B O 0.5762(3) 1.1487(3) 0.4948(2)
O8B O 0.3593(3) 1.0633(3) 0.40830(18)
C1B C 0.3216(5) 0.9427(6) 1.0309(4)
H1B H 0.3913 0.8860 1.0677
C2B C 0.3566(7) 1.0702(7) 1.0301(4)
H2B H 0.4501 1.1001 1.0663
C3B C 0.2536(8) 1.1516(6) 0.9762(4)
H3B H 0.2763 1.2376 0.9750
C4B C 0.1147(8) 1.1066(5) 0.9230(4)
H4B H 0.0444 1.1628 0.8861
C5B C 0.0793(5) 0.9794(5) 0.9240(3)
C6B C -0.0677(5) 0.9244(5) 0.8703(3)
H5B H -0.0929 0.8603 0.9049
H6B H -0.1421 0.9913 0.8564
Tb1B Tb -0.178729(19) 1.107478(18) 0.606862(11)
N1B N 0.1854(4) 0.9006(4) 0.9778(2)
O1B O -0.0600(3) 0.9548(3) 0.70916(18)
O2B O -0.2349(3) 0.7908(3) 0.7290(2)
H7B H -0.2867 0.8309 0.6852
O3B O 0.0404(3) 0.7499(3) 0.79007(18)
O4B O 0.1542(3) 0.7779(3) 0.98224(19)
O9B O -0.3165(4) 1.1703(5) 0.6919(3)
H8B H -0.2797 1.2249 0.7230
H9B H -0.3945 1.1293 0.6894
P1B P -0.07489(11) 0.85221(11) 0.76894(7)
Tb1A Tb -0.178729(19) 1.392522(18) 0.106862(11)
Tb1B_2 Tb 0.821271(19) 1.107478(18) 0.606862(11)
Tb1C Tb 0.178729(19) 0.607478(18) 0.893138(11)
O3A O 0.0404(3) 0.7501(3) 0.29007(18)
O3C O -0.0404(3) 1.2499(3) 0.70993(18)
O4A O 0.1542(3) 0.7221(3) 0.48224(19)
O4C O -0.1542(3) 1.2779(3) 0.51776(19)
O7B_2 O -0.4238(3) 1.1487(3) 0.4948(2)
O8_2 O -0.3593(3) 0.9367(3) 0.59170(18)
O10 O 0.5982(5) 0.8769(7) 0.3231(4)
H10 H 0.6465 0.8737 0.2929
H11 H 0.6452 0.9203 0.3709
O11 O 0.2821(10) 0.5349(12) 0.2801(6)
H12 H 0.2854 0.4598 0.3034
H13 H 0.2090 0.5736 0.2872
O12 O 0.2379(15) 0.6983(14) 0.1623(8)
H14 H 0.2374 0.6229 0.1806
H15 H 0.1788 0.6763 0.1108
loop_
_geom_bond_atom_site_label_1
_geom_bond_atom_site_label_2
_geom_bond_site_symmetry_1
_geom_bond_site_symmetry_2
C1 H1 1_555 1_555
C2 C1 1_555 1_555
H2 C2 1_555 1_555
C3 C2 1_555 1_555
H3 C3 1_555 1_555
C4 C3 1_555 1_555
H4 C4 1_555 1_555
C5 C4 1_555 1_555
C6 C5 1_555 1_555
H5 C6 1_555 1_555
H6 C6 1_555 1_555
C7 O5 1_555 1_555
C8 O7 1_555 1_555
Tb1 O1 1_555 1_555
N1 C1 1_555 1_555
O1 P1 1_555 1_555
O2 H7 1_555 1_555
O3 P1 1_555 1_555
O4 N1 1_555 1_555
O5 Tb1B 1_555 1_555
O6 C7 1_555 1_555
O7 Tb1 1_555 1_555
O8 C8 1_555 1_555
O9 Tb1 1_555 1_555
H8 O9 1_555 1_555
H9 O9 1_555 1_555
P1 C6 1_555 1_555
O10 H10 1_555 1_555
H11 O10 1_555 1_555
O11 H12 1_555 1_555
H13 O11 1_555 1_555
O12 H14 1_555 1_555
H15 O12 1_555 1_555
C7B C7 1_555 1_555
O5B Tb1 1_555 1_555
O6B C7B 1_555 1_555
C8B C8 1_555 1_555
O7B C8B 1_555 1_555
O8B Tb1 1_555 1_555
C1B H1B 1_555 1_555
C2B C1B 1_555 1_555
H2B C2B 1_555 1_555
C3B C2B 1_555 1_555
H3B C3B 1_555 1_555
C4B C3B 1_555 1_555
H4B C4B 1_555 1_555
C5B C4B 1_555 1_555
C6B C5B 1_555 1_555
H5B C6B 1_555 1_555
H6B C6B 1_555 1_555
Tb1B O6B 1_555 1_555
N1B C1B 1_555 1_555
O1B Tb1B 1_555 1_555
O2B H7B 1_555 1_555
O3B P1B 1_555 1_555
O4B N1B 1_555 1_555
O9B Tb1B 1_555 1_555
H8B O9B 1_555 1_555
H9B O9B 1_555 1_555
P1B C6B 1_555 1_555
Tb1A O3 1_555 1_555
Tb1B_2 O8 1_555 1_555
Tb1C O3B 1_555 1_555
O3A Tb1 1_555 1_555
O3C Tb1B 1_555 1_555
O4A Tb1 1_555 1_555
O4C Tb1B 1_555 1_555
O7B_2 Tb1B 1_555 1_555
O8_2 Tb1B 1_555 1_555
C5 N1 1_555 1_555
Tb1 O6 1_555 1_555
O2 P1 1_555 1_555
O4 Tb1A 1_555 1_555
C7B O5B 1_555 1_555
C8B O8B 1_555 1_555
O7B Tb1B_2 1_555 1_555
C5B N1B 1_555 1_555
O1B P1B 1_555 1_555
O2B P1B 1_555 1_555
O4B Tb1C 1_555 1_555

#END
