
#######################################################################
#
#                 Cambridge Crystallographic Data Centre
#                                CCDC 
#
#######################################################################
#
# If this CIF has been generated from an entry in the Cambridge 
# Structural Database, then it will include bibliographic, chemical, 
# crystal, experimental, refinement or atomic coordinate data resulting 
# from the CCDC's data processing and validation procedures.
#
#######################################################################

data_QADWEA
_chemical_formula_moiety         '(C16 H24 Eu2 N2 O21 P2)n'
_symmetry_cell_setting           monoclinic
_symmetry_space_group_name_H-M   'P 21/c'
_symmetry_Int_Tables_number      14
_space_group_name_Hall           '-P 2ybc'
loop_
_symmetry_equiv_pos_site_id
_symmetry_equiv_pos_as_xyz
1 x,y,z
2 -x,1/2+y,1/2-z
3 -x,-y,-z
4 x,1/2-y,1/2+z
_cell_length_a                   9.7558(2)
_cell_length_b                   10.5549(2)
_cell_length_c                   16.5111(4)
_cell_angle_alpha                90
_cell_angle_beta                 112.447(2)
_cell_angle_gamma                90
_cell_volume                     1571.36
loop_
_atom_site_label
_atom_site_type_symbol
_atom_site_fract_x
_atom_site_fract_y
_atom_site_fract_z
C1 C -0.3214(6) 1.0510(6) -0.0291(4)
H1 H -0.3926 1.1064 -0.0654
C2 C -0.3538(7) 0.9248(7) -0.0280(5)
H2 H -0.4466 0.8944 -0.0640
C3 C -0.2505(9) 0.8441(7) 0.0258(4)
H3 H -0.2725 0.7586 0.0271
C4 C -0.1126(8) 0.8902(5) 0.0784(4)
H4 H -0.0418 0.8352 0.1153
C5 C -0.0789(5) 1.0165(5) 0.0768(3)
C6 C 0.0670(5) 1.0724(5) 0.1292(3)
H5 H 0.0904 1.1364 0.0943
H6 H 0.1421 1.0068 0.1426
C7 C -0.0717(4) 0.9673(4) 0.4681(3)
C8 C 0.5177(4) 0.9401(4) 0.5284(3)
Eu1 Eu 0.17947(2) 0.88824(2) 0.393348(12)
N1 N -0.1856(4) 1.0947(4) 0.0227(3)
O1 O 0.0602(3) 1.0407(3) 0.28972(19)
O2 O 0.2346(3) 1.2043(4) 0.2702(2)
H7 H 0.2862 1.1643 0.3138
O3 O -0.0391(3) 1.2457(3) 0.21039(18)
O4 O -0.1560(4) 1.2166(3) 0.0178(2)
O5 O -0.1858(3) 0.9804(3) 0.4847(2)
O6 O -0.0618(3) 0.9092(3) 0.4054(2)
O7 O 0.4265(3) 0.8518(3) 0.5068(2)
O8 O 0.6395(3) 0.9408(3) 0.59289(19)
O9 O 0.3205(4) 0.8226(5) 0.3091(3)
H8 H 0.2837 0.7680 0.2780
H9 H 0.3985 0.8635 0.3116
P1 P 0.07484(12) 1.14356(12) 0.23056(7)
C7B C 0.0717(4) 1.0327(4) 0.5319(3)
O5B O 0.1858(3) 1.0196(3) 0.5153(2)
O6B O 0.0618(3) 1.0908(3) 0.5946(2)
C8B C 0.4823(4) 1.0599(4) 0.4716(3)
O7B O 0.5735(3) 1.1482(3) 0.4932(2)
O8B O 0.3605(3) 1.0592(3) 0.40711(19)
C1B C 0.3214(6) 0.9490(6) 1.0291(4)
H1B H 0.3926 0.8936 1.0654
C2B C 0.3538(7) 1.0752(7) 1.0280(5)
H2B H 0.4466 1.1056 1.0640
C3B C 0.2505(9) 1.1559(7) 0.9742(4)
H3B H 0.2725 1.2414 0.9729
C4B C 0.1126(8) 1.1098(5) 0.9216(4)
H4B H 0.0418 1.1648 0.8847
C5B C 0.0789(5) 0.9835(5) 0.9232(3)
C6B C -0.0670(5) 0.9276(5) 0.8708(3)
H5B H -0.0904 0.8636 0.9057
H6B H -0.1421 0.9932 0.8574
Eu1B Eu -0.17947(2) 1.11176(2) 0.606652(12)
N1B N 0.1856(4) 0.9053(4) 0.9773(3)
O1B O -0.0602(3) 0.9593(3) 0.71028(19)
O2B O -0.2346(3) 0.7957(4) 0.7298(2)
H7B H -0.2862 0.8357 0.6862
O3B O 0.0391(3) 0.7543(3) 0.78961(18)
O4B O 0.1560(4) 0.7834(3) 0.9822(2)
O9B O -0.3205(4) 1.1774(5) 0.6909(3)
H8B H -0.2837 1.2320 0.7220
H9B H -0.3985 1.1365 0.6884
P1B P -0.07484(12) 0.85644(12) 0.76944(7)
Eu1A Eu -0.17947(2) 1.38824(2) 0.106652(12)
Eu1B_2 Eu 0.82053(2) 1.11176(2) 0.606652(12)
Eu1C Eu 0.17947(2) 0.61176(2) 0.893348(12)
O3A O 0.0391(3) 0.7457(3) 0.28961(18)
O3C O -0.0391(3) 1.2543(3) 0.71039(18)
O4A O 0.1560(4) 0.7166(3) 0.4822(2)
O4C O -0.1560(4) 1.2834(3) 0.5178(2)
O7B_2 O -0.4265(3) 1.1482(3) 0.4932(2)
O8_2 O -0.3605(3) 0.9408(3) 0.59289(19)
O10 O 0.6006(5) 0.8742(7) 0.3237(4)
H10 H 0.6489 0.8710 0.2935
H11 H 0.6476 0.9176 0.3715
O11 O 0.2811(9) 0.5317(11) 0.2788(6)
H12 H 0.2844 0.4565 0.3021
H13 H 0.2080 0.5704 0.2859
O12 O 0.2457(16) 0.6985(15) 0.1612(9)
H14 H 0.2452 0.6231 0.1795
H15 H 0.1866 0.6766 0.1096
loop_
_geom_bond_atom_site_label_1
_geom_bond_atom_site_label_2
_geom_bond_site_symmetry_1
_geom_bond_site_symmetry_2
C1 H1 1_555 1_555
C2 C1 1_555 1_555
H2 C2 1_555 1_555
C3 C2 1_555 1_555
H3 C3 1_555 1_555
C4 C3 1_555 1_555
H4 C4 1_555 1_555
C5 C4 1_555 1_555
C6 C5 1_555 1_555
H5 C6 1_555 1_555
H6 C6 1_555 1_555
C7 O5 1_555 1_555
C8 O7 1_555 1_555
Eu1 O1 1_555 1_555
N1 C1 1_555 1_555
O1 P1 1_555 1_555
O2 H7 1_555 1_555
O3 P1 1_555 1_555
O4 N1 1_555 1_555
O5 Eu1B 1_555 1_555
O6 C7 1_555 1_555
O7 Eu1 1_555 1_555
O8 C8 1_555 1_555
O9 Eu1 1_555 1_555
H8 O9 1_555 1_555
H9 O9 1_555 1_555
P1 C6 1_555 1_555
O10 H10 1_555 1_555
H11 O10 1_555 1_555
O11 H12 1_555 1_555
H13 O11 1_555 1_555
O12 H14 1_555 1_555
H15 O12 1_555 1_555
C7B C7 1_555 1_555
O5B Eu1 1_555 1_555
O6B C7B 1_555 1_555
C8B C8 1_555 1_555
O7B C8B 1_555 1_555
O8B Eu1 1_555 1_555
C1B H1B 1_555 1_555
C2B C1B 1_555 1_555
H2B C2B 1_555 1_555
C3B C2B 1_555 1_555
H3B C3B 1_555 1_555
C4B C3B 1_555 1_555
H4B C4B 1_555 1_555
C5B C4B 1_555 1_555
C6B C5B 1_555 1_555
H5B C6B 1_555 1_555
H6B C6B 1_555 1_555
Eu1B O6B 1_555 1_555
N1B C1B 1_555 1_555
O1B Eu1B 1_555 1_555
O2B H7B 1_555 1_555
O3B P1B 1_555 1_555
O4B N1B 1_555 1_555
O9B Eu1B 1_555 1_555
H8B O9B 1_555 1_555
H9B O9B 1_555 1_555
P1B C6B 1_555 1_555
Eu1A O3 1_555 1_555
Eu1B_2 O8 1_555 1_555
Eu1C O3B 1_555 1_555
O3A Eu1 1_555 1_555
O3C Eu1B 1_555 1_555
O4A Eu1 1_555 1_555
O4C Eu1B 1_555 1_555
O7B_2 Eu1B 1_555 1_555
O8_2 Eu1B 1_555 1_555
C5 N1 1_555 1_555
Eu1 O6 1_555 1_555
O2 P1 1_555 1_555
O4 Eu1A 1_555 1_555
C7B O5B 1_555 1_555
C8B O8B 1_555 1_555
O7B Eu1B_2 1_555 1_555
C5B N1B 1_555 1_555
O1B P1B 1_555 1_555
O2B P1B 1_555 1_555
O4B Eu1C 1_555 1_555

#END
