
#######################################################################
#
#                 Cambridge Crystallographic Data Centre
#                                CCDC 
#
#######################################################################
#
# If this CIF has been generated from an entry in the Cambridge 
# Structural Database, then it will include bibliographic, chemical, 
# crystal, experimental, refinement or atomic coordinate data resulting 
# from the CCDC's data processing and validation procedures.
#
#######################################################################

data_FASJAL
_chemical_formula_moiety         '(C8 H10 Ca2 O21 Zr1)n'
_symmetry_cell_setting           orthorhombic
_symmetry_space_group_name_H-M   'P n a 21'
_symmetry_Int_Tables_number      33
_space_group_name_Hall           'P 2c -2n'
loop_
_symmetry_equiv_pos_site_id
_symmetry_equiv_pos_as_xyz
1 x,y,z
2 -x,-y,1/2+z
3 1/2-x,1/2+y,1/2+z
4 1/2+x,1/2-y,z
_cell_length_a                   8.4181(5)
_cell_length_b                   15.8885(8)
_cell_length_c                   15.8885(8)
_cell_angle_alpha                90
_cell_angle_beta                 90
_cell_angle_gamma                90
_cell_volume                     2125.1
loop_
_atom_site_label
_atom_site_type_symbol
_atom_site_fract_x
_atom_site_fract_y
_atom_site_fract_z
Zr1 Zr 0.7487(2) 0.49976(8) 0.3690
Ca1 Ca 0.9978(4) 0.24069(16) 0.6194(2)
Ca2 Ca 0.9974(3) 0.73964(15) 0.6184(2)
O1 O 0.7446(9) 0.6918(6) 0.5505(6)
O2 O 0.7476(10) 0.3055(6) 0.5518(6)
O3 O 0.7503(10) 0.3166(6) 0.1731(6)
O4 O 0.7532(11) 0.6833(6) 0.1746(6)
O5 O 0.8206(9) 0.3980(4) 0.2851(5)
O6 O 0.5312(8) 0.5604(4) 0.4219(5)
O7 O 0.8224(12) 0.5918(6) 0.4622(6)
O8 O 1.0632(11) 0.3601(6) 0.5271(6)
O9 O 0.4409(12) 0.3419(6) 0.2251(6)
O10 O 0.4361(11) 0.6434(6) 0.5251(6)
O11 O 0.6779(10) 0.4118(5) 0.4669(6)
O12 O 0.9637(13) 0.4370(6) 0.4202(7)
O13 O 1.0628(11) 0.6562(5) 0.2244(6)
O14 O 0.6794(13) 0.6005(6) 0.2818(7)
O15 O 0.9659(10) 0.5519(5) 0.3059(5)
O16 O 0.5378(11) 0.4504(6) 0.3036(6)
C1 C 0.9475(14) 0.3855(7) 0.4795(8)
C2 C 0.9548(16) 0.6162(8) 0.2623(9)
C3 C 0.5428(16) 0.6135(7) 0.4819(8)
C4 C 0.5502(14) 0.3910(7) 0.2548(7)
C5 C 0.7866(14) 0.6326(7) 0.2340(8)
C6 C 0.7714(11) 0.3576(6) 0.4998(6)
C7 C 0.7223(16) 0.6372(7) 0.4982(8)
C8 C 0.7233(19) 0.3695(8) 0.2325(9)
O17 O 0.8900(14) 0.6483(8) 0.7240(8)
O18 O 1.1046(16) 0.1522(8) 0.7265(9)
O19 O 0.8962(11) 0.1312(6) 0.5327(7)
O20 O 1.1029(12) 0.6314(6) 0.5321(7)
Ca1C Ca 0.4978(4) 0.25931(16) 0.6194(2)
Ca1A Ca 1.0022(4) 0.75931(16) 0.1194(2)
Ca1B Ca 0.5022(4) 0.74069(16) 0.1194(2)
Ca2C Ca 0.4974(3) 0.76036(15) 0.6184(2)
Ca2A Ca 1.0026(3) 0.26036(15) 0.1184(2)
Ca2B Ca 0.5026(3) 0.23964(15) 0.1184(2)
O1C O 1.2446(9) 0.8082(6) 0.5505(6)
O2C O 1.2476(10) 0.1945(6) 0.5518(6)
O3A O 1.2497(10) 0.6834(6) 0.6731(6)
O3B O 0.7497(10) 0.8166(6) 0.6731(6)
O4A O 1.2468(11) 0.3167(6) 0.6746(6)
O4B O 0.7468(11) 0.1833(6) 0.6746(6)
O9B O 1.0591(12) 0.8419(6) 0.7251(6)
O10C O 0.9361(11) 0.8566(6) 0.5251(6)
O13A O 0.9372(11) 0.3438(5) 0.7244(6)
O21 O 0.0262(4) 0.4987(15) 0.6195(13)
loop_
_geom_bond_atom_site_label_1
_geom_bond_atom_site_label_2
_geom_bond_site_symmetry_1
_geom_bond_site_symmetry_2
Zr1 O5 1_555 1_555
Ca1 O2 1_555 1_555
Ca2 O1 1_555 1_555
O1 C7 1_555 1_555
O2 C6 1_555 1_555
O3 C8 1_555 1_555
O4 C5 1_555 1_555
O5 C8 1_555 1_555
O6 Zr1 1_555 1_555
O7 Zr1 1_555 1_555
O8 Ca1 1_555 1_555
O9 C4 1_555 1_555
O10 C3 1_555 1_555
O11 Zr1 1_555 1_555
O12 Zr1 1_555 1_555
O13 C2 1_555 1_555
O14 Zr1 1_555 1_555
O15 Zr1 1_555 1_555
O16 Zr1 1_555 1_555
C1 O8 1_555 1_555
C2 O15 1_555 1_555
C3 O6 1_555 1_555
C4 O16 1_555 1_555
C5 O14 1_555 1_555
C6 O11 1_555 1_555
C7 O7 1_555 1_555
C8 C4 1_555 1_555
O17 Ca2 1_555 1_555
O18 Ca1 1_555 1_555
O19 Ca1 1_555 1_555
O20 Ca2 1_555 1_555
Ca1C O2 1_555 1_555
Ca1A O4 1_555 1_555
Ca1B O4 1_555 1_555
Ca2C O1 1_555 1_555
Ca2A O3 1_555 1_555
Ca2B O3 1_555 1_555
O1C Ca2 1_555 1_555
O2C Ca1 1_555 1_555
O3A Ca2 1_555 1_555
O3B Ca2 1_555 1_555
O4A Ca1 1_555 1_555
O4B Ca1 1_555 1_555
O9B Ca2 1_555 1_555
O10C Ca2 1_555 1_555
O13A Ca1 1_555 1_555
O9 Ca2B 1_555 1_555
O10 Ca2C 1_555 1_555
O12 C1 1_555 1_555
O13 Ca1A 1_555 1_555
C1 C6 1_555 1_555
C2 C5 1_555 1_555
C3 C7 1_555 1_555
Ca1C O4B 1_555 1_555
Ca2C O3B 1_555 1_555

#END
