
#######################################################################
#
#                 Cambridge Crystallographic Data Centre
#                                CCDC 
#
#######################################################################
#
# If this CIF has been generated from an entry in the Cambridge 
# Structural Database, then it will include bibliographic, chemical, 
# crystal, experimental, refinement or atomic coordinate data resulting 
# from the CCDC's data processing and validation procedures.
#
#######################################################################

data_GAJZOI
_chemical_formula_moiety         '(C7 H19 Gd1 N1 O9 P1)n'
_symmetry_cell_setting           monoclinic
_symmetry_space_group_name_H-M   'P 21/c'
_symmetry_Int_Tables_number      14
_space_group_name_Hall           '-P 2ybc'
loop_
_symmetry_equiv_pos_site_id
_symmetry_equiv_pos_as_xyz
1 x,y,z
2 -x,1/2+y,1/2-z
3 -x,-y,-z
4 x,1/2-y,1/2+z
_cell_length_a                   5.534(1)
_cell_length_b                   13.436(3)
_cell_length_c                   20.891(4)
_cell_angle_alpha                90
_cell_angle_beta                 96.159(3)
_cell_angle_gamma                90
_cell_volume                     1544.38
loop_
_atom_site_label
_atom_site_type_symbol
_atom_site_fract_x
_atom_site_fract_y
_atom_site_fract_z
Gd1 Gd 0.37376(11) 0.86835(4) 1.02769(3)
P1 P 0.0864(6) 0.9777(2) 0.91355(14)
O1 O 0.3179(15) 1.0187(6) 0.9544(4)
O2 O 0.0408(14) 0.8776(6) 0.9427(3)
O3 O -0.1273(15) 1.0464(6) 0.9097(4)
O4 O -0.2976(17) 0.7522(7) 0.5669(4)
O5 O -0.4981(17) 0.6831(7) 0.6403(4)
O6 O 0.5744(15) 0.8167(6) 0.9356(4)
H1 H 0.6308 0.7584 0.9425
H2 H 0.4745 0.8162 0.9024
O7 O 0.1489(17) 0.7174(6) 1.0342(4)
H3 H 0.2142 0.6817 1.0644
H4 H 0.0053 0.7311 1.0408
N1 N -0.0021(19) 0.9201(7) 0.7835(4)
C1 C 0.179(2) 0.9618(9) 0.8333(5)
H9 H 0.2293 1.0262 0.8185
H10 H 0.3209 0.9189 0.8367
C2 C 0.076(3) 0.9344(11) 0.7196(5)
H11 H 0.2337 0.9034 0.7182
H12 H 0.0941 1.0051 0.7118
C3 C -0.098(3) 0.8917(10) 0.6682(6)
H13 H -0.0363 0.9019 0.6269
H14 H -0.2515 0.9268 0.6673
C4 C -0.142(2) 0.7805(8) 0.6773(5)
H15 H 0.0132 0.7465 0.6752
C5 C -0.211(3) 0.7666(10) 0.7443(6)
H16 H -0.2269 0.6960 0.7526
H17 H -0.3684 0.7973 0.7472
C6 C -0.026(3) 0.8117(10) 0.7959(6)
H18 H -0.0790 0.8014 0.8382
H19 H 0.1305 0.7793 0.7950
C7 C -0.322(2) 0.7360(9) 0.6253(6)
Gd1B Gd 0.62624(11) 1.13165(4) 0.97231(3)
Gd1B_2 Gd -0.37376(11) 1.13165(4) 0.97231(3)
Gd1C Gd -0.62624(11) 0.63165(4) 0.52769(3)
O1B O 0.6821(15) 0.9813(6) 1.0456(4)
O3B O 0.1273(15) 0.9536(6) 1.0903(4)
O4C O 0.7024(17) 0.7478(7) 1.0669(4)
O5C O 0.5019(17) 0.8169(7) 1.1403(4)
O8 O 0.488(2) 0.6272(9) 0.8706(5)
H5 H 0.5907 0.5851 0.8868
H6 H 0.3564 0.5976 0.8588
O9 O 0.333(2) 0.5760(8) 0.7413(5)
H7 H 0.2341 0.6025 0.7129
H8 H 0.4721 0.5744 0.7285
loop_
_geom_bond_atom_site_label_1
_geom_bond_atom_site_label_2
_geom_bond_site_symmetry_1
_geom_bond_site_symmetry_2
Gd1 O1 1_555 1_555
P1 O1 1_555 1_555
O1 Gd1B 1_555 1_555
O2 Gd1 1_555 1_555
O3 P1 1_555 1_555
O4 C7 1_555 1_555
O5 C7 1_555 1_555
O6 Gd1 1_555 1_555
H1 O6 1_555 1_555
H2 O6 1_555 1_555
O7 Gd1 1_555 1_555
H3 O7 1_555 1_555
H4 O7 1_555 1_555
O8 H5 1_555 1_555
H6 O8 1_555 1_555
O9 H7 1_555 1_555
H8 O9 1_555 1_555
N1 C1 1_555 1_555
C1 P1 1_555 1_555
H9 C1 1_555 1_555
H10 C1 1_555 1_555
C2 N1 1_555 1_555
H11 C2 1_555 1_555
H12 C2 1_555 1_555
C3 C2 1_555 1_555
H13 C3 1_555 1_555
H14 C3 1_555 1_555
C4 C3 1_555 1_555
H15 C4 1_555 1_555
C5 C4 1_555 1_555
H16 C5 1_555 1_555
H17 C5 1_555 1_555
C6 N1 1_555 1_555
H18 C6 1_555 1_555
H19 C6 1_555 1_555
C7 C4 1_555 1_555
Gd1B O1B 1_555 1_555
Gd1B_2 O3 1_555 1_555
Gd1C O4 1_555 1_555
O1B Gd1 1_555 1_555
O3B Gd1 1_555 1_555
O4C Gd1 1_555 1_555
O5C Gd1 1_555 1_555
P1 O2 1_555 1_555
O5 Gd1C 1_555 1_555
C5 C6 1_555 1_555

#END
