
#######################################################################
#
#                 Cambridge Crystallographic Data Centre
#                                CCDC 
#
#######################################################################
#
# If this CIF has been generated from an entry in the Cambridge 
# Structural Database, then it will include bibliographic, chemical, 
# crystal, experimental, refinement or atomic coordinate data resulting 
# from the CCDC's data processing and validation procedures.
#
#######################################################################

data_MAKFOW
_chemical_formula_moiety         '(C54 H33 Gd3 N10 O20)n'
_symmetry_cell_setting           triclinic
_symmetry_space_group_name_H-M   'P -1'
_symmetry_Int_Tables_number      2
_space_group_name_Hall           '-P 1'
loop_
_symmetry_equiv_pos_site_id
_symmetry_equiv_pos_as_xyz
1 x,y,z
2 -x,-y,-z
_cell_length_a                   15.0975(5)
_cell_length_b                   16.7752(7)
_cell_length_c                   16.9014(7)
_cell_angle_alpha                110.493(4)
_cell_angle_beta                 91.562(3)
_cell_angle_gamma                99.176(3)
_cell_volume                     3942.3
loop_
_atom_site_label
_atom_site_type_symbol
_atom_site_fract_x
_atom_site_fract_y
_atom_site_fract_z
N10 N 0.8495(12) 0.5215(16) 0.6824(13)
C53 C 0.9150(13) 0.4910(13) 0.6201(11)
C54 C 0.887(2) 0.559(2) 0.7724(12)
Gd1 Gd 0.55988(3) 0.12226(3) 0.02872(3)
Gd2 Gd 0.51499(3) 0.36249(3) 0.14630(3)
Gd3 Gd 0.45086(3) 0.47078(3) 0.38190(3)
O1 O 0.4355(5) 0.9253(4) 0.8568(4)
O2 O 0.5052(4) 1.0617(4) 0.8840(3)
O3 O 0.3735(4) 0.7749(4) 0.0242(3)
O4 O 0.4192(4) 0.6477(4) -0.0245(3)
O5 O 0.4665(5) 0.4870(4) 0.1552(4)
O6 O 0.4029(5) 0.5191(4) 0.2789(4)
O7 O 0.3076(4) 0.3686(4) 0.3131(4)
O8 O 0.4301(4) 0.3346(3) 0.2519(3)
O9 O 0.4209(4) 0.0365(4) 0.0323(4)
O10 O 0.3133(4) -0.0652(4) 0.0404(3)
O11 O -0.3659(5) -0.3176(4) -0.0728(4)
O12 O -0.4502(4) -0.2153(4) -0.0348(4)
O13 O 0.5849(4) 0.2546(3) 0.1640(3)
O14 O 0.7036(4) 0.1944(4) 0.1285(3)
O15 O 0.5775(4) 0.4653(4) 0.4610(3)
O16 O 0.6754(4) 0.4622(4) 0.5584(3)
O17 O 1.3329(4) 0.5580(4) 0.8097(3)
O18 O 1.4257(4) 0.5272(4) 0.7090(3)
O19 O 0.5131(4) 0.6179(4) 0.4389(4)
O20 O 0.5739(5) 0.6505(4) 0.5721(4)
N1 N 0.3991(8) 0.8357(6) 0.4232(6)
H1 H 0.4165 0.7935 0.4355
N2 N 0.3589(11) 0.9587(7) 0.4389(7)
N3 N 0.3551(10) 0.9099(7) 0.3514(6)
N4 N 0.0151(5) 0.0163(5) 0.1212(5)
H2 H 0.0358 -0.0292 0.0887
N5 N 0.0054(6) 0.1463(7) 0.2065(7)
N6 N -0.0802(6) 0.0989(7) 0.1895(7)
N7 N 0.9712(5) 0.3772(6) 0.4780(5)
H3 H 0.9491 0.4116 0.5222
N8 N 0.9846(6) 0.2896(7) 0.3506(5)
N9 N 1.0651(6) 0.3041(7) 0.3974(6)
C1 C 0.4667(7) 0.9867(5) 0.8350(5)
C2 C 0.4483(8) 0.9733(7) 0.7423(6)
C3 C 0.4425(10) 1.0390(7) 0.7123(7)
H4 H 0.4521 1.0974 0.7504
C4 C 0.4229(10) 1.0198(8) 0.6275(7)
H5 H 0.4190 1.0646 0.6061
C5 C 0.4087(9) 0.9351(7) 0.5736(6)
C6 C 0.4162(13) 0.8697(8) 0.6010(8)
H6 H 0.4084 0.8119 0.5618
C7 C 0.4354(12) 0.8875(8) 0.6869(8)
H7 H 0.4396 0.8421 0.7075
C8 C 0.3885(9) 0.9134(7) 0.4781(6)
C9 C 0.3780(9) 0.8361(6) 0.3473(6)
C10 C 0.3823(8) 0.7621(6) 0.2685(5)
C11 C 0.3786(7) 0.7694(6) 0.1894(5)
H8 H 0.3686 0.8218 0.1838
C12 C 0.3899(7) 0.6989(6) 0.1176(5)
C13 C 0.3943(6) 0.7088(5) 0.0335(4)
C14 C 0.4078(6) 0.6234(5) 0.1255(5)
H9 H 0.4191 0.5772 0.0772
C15 C 0.4092(6) 0.6160(5) 0.2055(5)
C16 C 0.4278(6) 0.5345(6) 0.2134(5)
C17 C 0.3960(7) 0.6847(6) 0.2767(5)
H10 H 0.3961 0.6791 0.3307
C18 C 0.3476(6) 0.3144(6) 0.2622(5)
C19 C 0.2987(6) 0.2249(5) 0.2135(5)
C20 C 0.2061(6) 0.2046(6) 0.2150(6)
H11 H 0.1741 0.2471 0.2483
C21 C 0.1599(6) 0.1207(6) 0.1670(6)
C22 C 0.2070(6) 0.0602(6) 0.1184(6)
H12 H 0.1758 0.0039 0.0850
C23 C 0.3003(6) 0.0805(5) 0.1175(5)
C24 C 0.3473(6) 0.0143(5) 0.0607(5)
C25 C 0.3457(6) 0.1625(6) 0.1657(5)
H13 H 0.4093 0.1762 0.1662
C26 C 0.0628(7) 0.0957(7) 0.1657(7)
C27 C -0.0705(7) 0.0218(6) 0.1374(6)
C28 C -0.1464(7) -0.0496(7) 0.1011(6)
C29 C -0.2336(7) -0.0344(7) 0.1200(6)
H14 H -0.2420 0.0194 0.1600
C30 C -0.3074(6) -0.0987(7) 0.0798(6)
H15 H -0.3664 -0.0887 0.0929
C31 C -0.2961(6) -0.1773(6) 0.0208(5)
C32 C -0.3746(6) -0.2421(6) -0.0301(5)
C33 C -0.2064(7) -0.1933(7) 0.0073(7)
H16 H -0.1970 -0.2488 -0.0282
C34 C -0.1347(7) -0.1295(7) 0.0452(7)
H17 H -0.0756 -0.1397 0.0331
C35 C 0.6640(5) 0.2429(5) 0.1824(5)
C36 C 0.7056(5) 0.2887(5) 0.2705(5)
C37 C 0.6555(6) 0.3360(5) 0.3348(5)
H18 H 0.5939 0.3361 0.3221
C38 C 0.6961(6) 0.3820(6) 0.4160(5)
C39 C 0.6475(6) 0.4393(5) 0.4818(5)
C40 C 0.7850(6) 0.3806(6) 0.4352(5)
H19 H 0.8123 0.4130 0.4910
C41 C 0.8348(6) 0.3340(6) 0.3759(5)
C42 C 0.7961(6) 0.2873(6) 0.2930(5)
H20 H 0.8307 0.2545 0.2518
C43 C 0.9280(7) 0.3319(7) 0.4002(6)
C44 C 1.0549(7) 0.3589(7) 0.4741(6)
C45 C 1.1247(7) 0.3921(7) 0.5440(6)
C46 C 1.1096(7) 0.4446(7) 0.6246(7)
H21 H 1.0505 0.4555 0.6360
C47 C 1.1790(6) 0.4814(6) 0.6887(6)
H22 H 1.1670 0.5150 0.7442
C48 C 1.2674(7) 0.4690(6) 0.6711(6)
C49 C 1.3451(6) 0.5198(5) 0.7337(5)
C50 C 1.2826(7) 0.4145(6) 0.5898(6)
H23 H 1.3416 0.4036 0.5782
C51 C 1.2129(7) 0.3771(6) 0.5272(6)
H24 H 1.2241 0.3411 0.4723
C52 C 0.5474(7) 0.6730(7) 0.5120(6)
H25 H 0.5533 0.7330 0.5215
Gd1_2 Gd 0.55988(3) 1.12226(3) 1.02872(3)
Gd1A Gd -0.55988(3) -0.12226(3) -0.02872(3)
Gd1A_2 Gd 0.44012(3) -0.12226(3) -0.02872(3)
Gd1A_3 Gd 0.44012(3) 0.87774(3) -0.02872(3)
Gd1A_4 Gd 0.44012(3) 0.87774(3) 0.97128(3)
Gd2A Gd -0.51499(3) -0.36249(3) -0.14630(3)
Gd2A_2 Gd 0.48501(3) 0.63751(3) -0.14630(3)
Gd2A_3 Gd 1.48501(3) 0.63751(3) 0.85370(3)
Gd3A Gd 0.54914(3) 0.52922(3) 0.61810(3)
Gd3A_2 Gd 1.54914(3) 0.52922(3) 0.61810(3)
O1A O 0.5645(5) 0.0747(4) 0.1432(4)
O2_2 O 0.5052(4) 0.0617(4) -0.1160(3)
O3A O 0.6265(4) 0.2251(4) -0.0242(3)
O4A O 0.5808(4) 0.3523(4) 0.0245(3)
O9A O 0.5791(4) -0.0365(4) -0.0323(4)
O10A O 0.6867(4) 0.0652(4) -0.0404(3)
O11A O 0.3659(5) 0.3176(4) 0.0728(4)
O12A O 0.4502(4) 0.2153(4) 0.0348(4)
O15A O 0.4225(4) 0.5347(4) 0.5390(3)
O16A O 0.3246(4) 0.5378(4) 0.4416(3)
O17A O 0.6671(4) 0.4420(4) 0.1903(3)
O18A O 0.5743(4) 0.4728(4) 0.2910(3)
O20A O 0.4261(5) 0.3495(4) 0.4279(4)
loop_
_geom_bond_atom_site_label_1
_geom_bond_atom_site_label_2
_geom_bond_site_symmetry_1
_geom_bond_site_symmetry_2
Gd1 O9 1_555 1_555
Gd2 O5 1_555 1_555
Gd3 O6 1_555 1_555
O1 C1 1_555 1_555
O2 C1 1_555 1_555
O3 C13 1_555 1_555
O4 C13 1_555 1_555
O5 C16 1_555 1_555
O6 C16 1_555 1_555
O7 Gd3 1_555 1_555
O8 Gd2 1_555 1_555
O9 C24 1_555 1_555
O10 C24 1_555 1_555
O11 C32 1_555 1_555
O12 C32 1_555 1_555
O13 Gd1 1_555 1_555
O14 Gd1 1_555 1_555
O15 Gd3 1_555 1_555
O16 C39 1_555 1_555
O17 C49 1_555 1_555
O18 C49 1_555 1_555
O19 Gd3 1_555 1_555
O20 C52 1_555 1_555
N1 H1 1_555 1_555
N2 N3 1_555 1_555
N3 C9 1_555 1_555
N4 H2 1_555 1_555
N5 N6 1_555 1_555
N6 C27 1_555 1_555
N7 H3 1_555 1_555
N8 N9 1_555 1_555
N9 C44 1_555 1_555
C1 C2 1_555 1_555
C2 C3 1_555 1_555
C3 H4 1_555 1_555
C4 C3 1_555 1_555
H5 C4 1_555 1_555
C5 C4 1_555 1_555
C6 C5 1_555 1_555
H6 C6 1_555 1_555
C7 C2 1_555 1_555
H7 C7 1_555 1_555
C8 N1 1_555 1_555
C9 N1 1_555 1_555
C10 C9 1_555 1_555
C11 C10 1_555 1_555
H8 C11 1_555 1_555
C12 C11 1_555 1_555
C13 C12 1_555 1_555
C14 C12 1_555 1_555
H9 C14 1_555 1_555
C15 C14 1_555 1_555
C16 C15 1_555 1_555
C17 C10 1_555 1_555
H10 C17 1_555 1_555
C18 O7 1_555 1_555
C19 C18 1_555 1_555
C20 C19 1_555 1_555
H11 C20 1_555 1_555
C21 C20 1_555 1_555
C22 C21 1_555 1_555
H12 C22 1_555 1_555
C23 C22 1_555 1_555
C24 C23 1_555 1_555
C25 C19 1_555 1_555
H13 C25 1_555 1_555
C26 N4 1_555 1_555
C27 N4 1_555 1_555
C28 C27 1_555 1_555
C29 C28 1_555 1_555
H14 C29 1_555 1_555
C30 C29 1_555 1_555
H15 C30 1_555 1_555
C31 C30 1_555 1_555
C32 C31 1_555 1_555
C33 C31 1_555 1_555
H16 C33 1_555 1_555
C34 C28 1_555 1_555
H17 C34 1_555 1_555
C35 O13 1_555 1_555
C36 C35 1_555 1_555
C37 C36 1_555 1_555
H18 C37 1_555 1_555
C38 C37 1_555 1_555
C39 O15 1_555 1_555
C40 C38 1_555 1_555
H19 C40 1_555 1_555
C41 C40 1_555 1_555
C42 C36 1_555 1_555
H20 C42 1_555 1_555
C43 N7 1_555 1_555
C44 N7 1_555 1_555
C45 C44 1_555 1_555
C46 C45 1_555 1_555
H21 C46 1_555 1_555
C47 C46 1_555 1_555
H22 C47 1_555 1_555
C48 C47 1_555 1_555
C49 C48 1_555 1_555
C50 C48 1_555 1_555
H23 C50 1_555 1_555
C51 C45 1_555 1_555
H24 C51 1_555 1_555
C52 O19 1_555 1_555
H25 C52 1_555 1_555
N10 C53 1_555 1_555
C54 N10 1_555 1_555
Gd1_2 O2 1_555 1_555
Gd1A O12 1_555 1_555
Gd1A_2 O9 1_555 1_555
Gd1A_3 O3 1_555 1_555
Gd1A_4 O1 1_555 1_555
Gd2A O11 1_555 1_555
Gd2A_2 O4 1_555 1_555
Gd2A_3 O17 1_555 1_555
Gd3A O15 1_555 1_555
Gd3A_2 O18 1_555 1_555
O1A Gd1 1_555 1_555
O2_2 Gd1 1_555 1_555
O3A Gd1 1_555 1_555
O4A Gd2 1_555 1_555
O9A Gd1 1_555 1_555
O10A Gd1 1_555 1_555
O11A Gd2 1_555 1_555
O12A Gd1 1_555 1_555
O15A Gd3 1_555 1_555
O16A Gd3 1_555 1_555
O17A Gd2 1_555 1_555
O18A Gd2 1_555 1_555
O20A Gd3 1_555 1_555
Gd2 O13 1_555 1_555
Gd2 O12A 1_555 1_555
Gd3 O8 1_555 1_555
Gd3 O18A 1_555 1_555
O8 C18 1_555 1_555
O10 Gd1A_2 1_555 1_555
O12 Gd2A 1_555 1_555
O14 C35 1_555 1_555
O16 Gd3A 1_555 1_555
O18 Gd2A_3 1_555 1_555
O20 Gd3A 1_555 1_555
N2 C8 1_555 1_555
N5 C26 1_555 1_555
N8 C43 1_555 1_555
C5 C8 1_555 1_555
C6 C7 1_555 1_555
C15 C17 1_555 1_555
C21 C26 1_555 1_555
C23 C25 1_555 1_555
C33 C34 1_555 1_555
C38 C39 1_555 1_555
C41 C42 1_555 1_555
C41 C43 1_555 1_555
C50 C51 1_555 1_555
Gd1A_2 O9A 1_555 1_555
Gd3A O15A 1_555 1_555

#END
