
#######################################################################
#
#                 Cambridge Crystallographic Data Centre
#                                CCDC 
#
#######################################################################
#
# If this CIF has been generated from an entry in the Cambridge 
# Structural Database, then it will include bibliographic, chemical, 
# crystal, experimental, refinement or atomic coordinate data resulting 
# from the CCDC's data processing and validation procedures.
#
#######################################################################

data_MAKFIQ
_chemical_formula_moiety         '(C54 H33 Eu3 N10 O20)n'
_symmetry_cell_setting           triclinic
_symmetry_space_group_name_H-M   'P -1'
_symmetry_Int_Tables_number      2
_space_group_name_Hall           '-P 1'
loop_
_symmetry_equiv_pos_site_id
_symmetry_equiv_pos_as_xyz
1 x,y,z
2 -x,-y,-z
_cell_length_a                   15.1321(6)
_cell_length_b                   16.9762(4)
_cell_length_c                   17.0413(6)
_cell_angle_alpha                110.922(3)
_cell_angle_beta                 93.255(3)
_cell_angle_gamma                97.511(3)
_cell_volume                     4028.57
loop_
_atom_site_label
_atom_site_type_symbol
_atom_site_fract_x
_atom_site_fract_y
_atom_site_fract_z
N10 N 1.273(3) 1.419(2) 1.167(4)
C53 C 1.174(3) 1.386(4) 1.151(4)
C54 C 1.327(2) 1.351(3) 1.123(3)
Eu1 Eu 1.05785(3) 0.62127(2) 0.52860(2)
Eu2 Eu 0.94761(3) 0.97034(2) 0.88081(2)
Eu3 Eu 1.00793(3) 0.86027(2) 0.64410(2)
O1 O 1.9186(3) 1.2476(3) 1.3351(3)
O2 O 0.9261(3) 0.8344(3) 0.7505(3)
O3 O 1.8206(3) 1.0382(3) 0.9410(3)
O4 O 0.8813(4) 1.2759(3) 0.5242(3)
O5 O 1.9208(3) 1.0355(3) 1.0387(3)
O6 O 0.0565(3) 0.2869(3) 0.4668(3)
O7 O 1.0687(3) 0.9696(3) 0.7897(3)
O8 O 0.9207(3) 0.5372(3) 0.5355(3)
O9 O 0.8966(4) 1.0193(3) 0.7756(3)
O10 O 0.8141(3) 0.4372(3) 0.5395(3)
O11 O 0.9994(3) 1.5600(3) 1.3828(3)
O12 O 1.0748(4) 1.1500(4) 1.0727(3)
O13 O 1.0089(4) 1.1176(3) 0.9396(3)
O14 O 0.8036(3) 0.8683(3) 0.8086(3)
O15 O 0.1416(4) 0.1861(3) 0.4314(4)
O16 O 1.7986(3) 1.3043(3) 1.3706(3)
O17 O 0.9299(4) 1.1506(3) 0.4785(3)
O18 O 0.9299(4) 1.4258(3) 1.3550(3)
O19 O 1.1600(4) 0.9385(4) 0.6899(3)
O20 O 0.9570(4) 0.9849(3) 0.6534(3)
N1 N 1.5261(4) 1.1219(5) 1.0213(4)
C1 C 0.9593(6) 1.4855(4) 1.3329(4)
N2 N 0.5196(5) 0.5193(5) 0.6203(5)
C2 C 1.0458(5) 1.1697(5) 1.0130(4)
H1 H 1.0517 1.2290 1.0228
C3 C 0.9064(5) 1.1168(4) 0.7047(4)
C4 C 0.9028(5) 1.2111(4) 0.5354(4)
C5 C 1.7945(5) 1.2109(4) 1.2275(4)
C6 C 0.8953(5) 1.2013(4) 0.6182(4)
C7 C 0.8840(6) 1.2712(5) 0.6890(4)
H2 H 0.8766 1.3240 0.6841
C8 C 1.8032(5) 1.1181(5) 1.0834(4)
C9 C 0.8441(5) 0.8149(5) 0.7597(5)
C10 C 1.1485(5) 0.9767(4) 0.7657(4)
C11 C 0.9194(5) 1.0351(4) 0.7127(4)
C12 C 0.9079(5) 1.1253(4) 0.6273(4)
H3 H 0.9178 1.0784 0.5794
C13 C 0.8837(6) 1.2621(5) 0.7676(4)
C14 C 0.7996(5) 0.5821(5) 0.6163(5)
C15 C 0.8437(5) 0.6636(4) 0.6656(4)
H4 H 0.9069 0.6768 0.6677
C16 C 1.8382(5) 1.2568(4) 1.3158(4)
C17 C 0.7962(5) 0.7255(5) 0.7117(5)
C18 C 0.8926(5) 1.1854(4) 0.7753(4)
H5 H 0.8893 1.1793 0.8284
C19 C 1.8512(5) 1.0602(4) 1.0169(4)
C20 C 0.8480(5) 0.5155(4) 0.5611(4)
C21 C 1.8440(5) 1.1645(5) 1.1648(4)
H6 H 1.9058 1.1648 1.1783
C22 C 1.2269(5) 1.0265(5) 0.8291(5)
C23 C 0.1325(5) 0.2617(5) 0.4718(5)
C24 C 1.7146(5) 1.1209(5) 1.0634(5)
H7 H 1.6871 1.0903 1.0072
C25 C 0.7088(6) 0.5610(5) 0.6178(5)
H8 H 0.6788 0.5045 0.5865
C26 C 1.2129(5) 1.0830(5) 0.9095(5)
H9 H 1.1544 1.0956 0.9201
C27 C 0.2006(6) 0.4049(5) 0.5801(5)
H10 H 0.1420 0.4145 0.5938
C28 C 1.3137(6) 1.0149(6) 0.8128(5)
H11 H 1.3246 0.9807 0.7576
C29 C 1.7043(5) 1.2125(5) 1.2061(5)
H12 H 1.6703 1.2442 1.2480
C30 C 0.2983(6) 0.3096(5) 0.5093(6)
H13 H 0.3073 0.2545 0.4736
C31 C 0.2118(6) 0.3258(5) 0.5228(5)
C32 C 1.2836(6) 1.1204(5) 0.9734(5)
H14 H 1.2731 1.1558 1.0282
C33 C 0.7046(5) 0.7051(5) 0.7121(6)
H15 H 0.6718 0.7473 0.7442
C34 C 0.8792(7) 1.3388(5) 0.8452(5)
N3 N 1.4348(7) 1.1971(8) 1.1006(6)
C35 C 0.2717(6) 0.4697(6) 0.6175(6)
H16 H 0.2623 0.5242 0.6545
N4 N 0.8967(7) 1.3347(6) 0.9235(5)
C36 C 1.6643(6) 1.1679(6) 1.1241(5)
C37 C 0.6611(6) 0.6231(5) 0.6657(6)
C38 C 1.3846(6) 1.0519(6) 0.8753(6)
H17 H 1.4434 1.0411 0.8635
C39 C 0.3571(6) 0.4539(6) 0.6000(6)
N5 N 0.5070(6) 0.6484(6) 0.7044(8)
N6 N 1.5149(6) 1.2126(7) 1.1482(6)
C40 C 1.5701(6) 1.1686(7) 1.0989(6)
C41 C 0.5637(6) 0.5970(6) 0.6647(7)
N7 N 0.4246(6) 0.6014(6) 0.6885(8)
C42 C 1.3703(6) 1.1054(6) 0.9563(6)
C43 C 1.4442(6) 1.1408(7) 1.0249(6)
C44 C 0.4335(6) 0.5240(6) 0.6367(7)
N8 N 0.8624(8) 1.4109(7) 0.8489(7)
C45 C 0.3720(6) 0.3733(6) 0.5475(6)
H18 H 0.4312 0.3622 0.5381
C46 C 0.9400(8) 1.5353(7) 1.2115(7)
H19 H 0.9504 1.5933 1.2491
C47 C 0.9433(7) 1.4706(6) 1.2432(7)
C48 C 0.9223(9) 1.5163(7) 1.1282(6)
H20 H 0.9207 1.5618 1.1084
N9 N 0.8650(8) 1.4584(7) 0.9360(7)
C49 C 0.8870(9) 1.4135(8) 0.9757(7)
C50 C 0.9058(9) 1.4318(7) 1.0689(7)
C51 C 0.9227(11) 1.3861(7) 1.1868(7)
H21 H 0.9194 1.3414 1.2083
C52 C 0.9068(11) 1.3650(7) 1.0995(7)
H22 H 0.8969 1.3071 1.0617
Eu1_2 Eu 1.05785(3) 1.62127(2) 1.52860(2)
Eu1A Eu -0.05785(3) 0.37873(2) 0.47140(2)
Eu1A_2 Eu 0.94215(3) 0.37873(2) 0.47140(2)
Eu1A_3 Eu 0.94215(3) 1.37873(2) 0.47140(2)
Eu1A_4 Eu 0.94215(3) 1.37873(2) 1.47140(2)
Eu1A_5 Eu 1.94215(3) 1.37873(2) 1.47140(2)
Eu2_2 Eu 1.94761(3) 0.97034(2) 0.88081(2)
Eu2A Eu 1.05239(3) 1.02966(2) 1.11919(2)
Eu2A_2 Eu 2.05239(3) 1.02966(2) 1.11919(2)
Eu3A Eu -0.00793(3) 0.13973(2) 0.35590(2)
Eu3A_2 Eu 0.99207(3) 1.13973(2) 0.35590(2)
Eu3A_3 Eu 1.99207(3) 1.13973(2) 1.35590(2)
O1A O 1.0814(3) 0.7524(3) 0.6649(3)
O3_2 O 0.8206(3) 1.0382(3) 0.9410(3)
O4A O 1.1187(4) 0.7241(3) 0.4758(3)
O5_2 O 0.9208(3) 1.0355(3) 1.0387(3)
O5A O 1.0792(3) 0.9645(3) 0.9613(3)
O6A O 0.9435(3) 0.7131(3) 0.5332(3)
O8A O 1.0793(3) 0.4628(3) 0.4645(3)
O10A O 1.1859(3) 0.5628(3) 0.4605(3)
O11_2 O 0.9994(3) 0.5600(3) 0.3828(3)
O12A O 0.9252(4) 0.8500(4) 0.9273(3)
O15A O 0.8584(4) 0.8139(3) 0.5686(4)
O16A O 1.2014(3) 0.6957(3) 0.6294(3)
O17A O 1.0701(4) 0.8494(3) 0.5215(3)
O18A O 1.0701(4) 0.5742(3) 0.6450(3)
loop_
_geom_bond_atom_site_label_1
_geom_bond_atom_site_label_2
_geom_bond_site_symmetry_1
_geom_bond_site_symmetry_2
Eu1 O8 1_555 1_555
Eu2 O2 1_555 1_555
Eu3 O2 1_555 1_555
O1 C16 1_555 1_555
O2 C9 1_555 1_555
O3 C19 1_555 1_555
O4 C4 1_555 1_555
O5 C19 1_555 1_555
O6 C23 1_555 1_555
O7 Eu2 1_555 1_555
O8 C20 1_555 1_555
O9 Eu2 1_555 1_555
O10 C20 1_555 1_555
O11 C1 1_555 1_555
O12 C2 1_555 1_555
O13 Eu2 1_555 1_555
O14 Eu2 1_555 1_555
O15 C23 1_555 1_555
O16 C16 1_555 1_555
O17 C4 1_555 1_555
O18 C1 1_555 1_555
O19 Eu3 1_555 1_555
O20 Eu3 1_555 1_555
N1 C40 1_555 1_555
C1 C47 1_555 1_555
N2 C41 1_555 1_555
C2 O13 1_555 1_555
H1 C2 1_555 1_555
C3 C11 1_555 1_555
C4 C6 1_555 1_555
C5 C16 1_555 1_555
C6 C7 1_555 1_555
C7 H2 1_555 1_555
C8 C19 1_555 1_555
C9 O14 1_555 1_555
C10 O7 1_555 1_555
C11 O9 1_555 1_555
C12 C3 1_555 1_555
H3 C12 1_555 1_555
C13 C7 1_555 1_555
C14 C15 1_555 1_555
C15 H4 1_555 1_555
C17 C9 1_555 1_555
C18 C3 1_555 1_555
H5 C18 1_555 1_555
C20 C14 1_555 1_555
C21 C5 1_555 1_555
H6 C21 1_555 1_555
C22 C10 1_555 1_555
C23 C31 1_555 1_555
C24 C8 1_555 1_555
H7 C24 1_555 1_555
C25 C14 1_555 1_555
H8 C25 1_555 1_555
C26 C22 1_555 1_555
H9 C26 1_555 1_555
C27 H10 1_555 1_555
C28 C22 1_555 1_555
H11 C28 1_555 1_555
C29 C5 1_555 1_555
H12 C29 1_555 1_555
C30 H13 1_555 1_555
C31 C27 1_555 1_555
C32 C26 1_555 1_555
H14 C32 1_555 1_555
C33 C17 1_555 1_555
H15 C33 1_555 1_555
C34 C13 1_555 1_555
N3 N6 1_555 1_555
C35 C27 1_555 1_555
H16 C35 1_555 1_555
N4 C34 1_555 1_555
C36 C24 1_555 1_555
C37 C25 1_555 1_555
C38 C28 1_555 1_555
H17 C38 1_555 1_555
C39 C35 1_555 1_555
N5 C41 1_555 1_555
N6 C40 1_555 1_555
C40 C36 1_555 1_555
C41 C37 1_555 1_555
N7 N5 1_555 1_555
C42 C32 1_555 1_555
C43 N1 1_555 1_555
C44 N2 1_555 1_555
N8 C34 1_555 1_555
C45 C30 1_555 1_555
H18 C45 1_555 1_555
C46 H19 1_555 1_555
C47 C46 1_555 1_555
C48 C46 1_555 1_555
H20 C48 1_555 1_555
N9 N8 1_555 1_555
C49 N4 1_555 1_555
C50 C48 1_555 1_555
C51 C47 1_555 1_555
H21 C51 1_555 1_555
C52 C50 1_555 1_555
H22 C52 1_555 1_555
N10 C53 1_555 1_555
C54 N10 1_555 1_555
Eu1_2 O11 1_555 1_555
Eu1A O6 1_555 1_555
Eu1A_2 O8 1_555 1_555
Eu1A_3 O4 1_555 1_555
Eu1A_4 O18 1_555 1_555
Eu1A_5 O1 1_555 1_555
Eu2_2 O3 1_555 1_555
Eu2A O12 1_555 1_555
Eu2A_2 O5 1_555 1_555
Eu3A O6 1_555 1_555
Eu3A_2 O17 1_555 1_555
Eu3A_3 O1 1_555 1_555
O1A Eu1 1_555 1_555
O3_2 Eu2 1_555 1_555
O4A Eu1 1_555 1_555
O5_2 Eu2 1_555 1_555
O5A Eu2 1_555 1_555
O6A Eu1 1_555 1_555
O8A Eu1 1_555 1_555
O10A Eu1 1_555 1_555
O11_2 Eu1 1_555 1_555
O12A Eu2 1_555 1_555
O15A Eu3 1_555 1_555
O16A Eu1 1_555 1_555
O17A Eu3 1_555 1_555
O18A Eu1 1_555 1_555
Eu3 O7 1_555 1_555
Eu3 O1A 1_555 1_555
Eu3 O6A 1_555 1_555
O5 Eu2_2 1_555 1_555
O10 Eu1A_2 1_555 1_555
O15 Eu3A 1_555 1_555
O16 Eu1A_5 1_555 1_555
O19 C10 1_555 1_555
O20 C11 1_555 1_555
C6 C12 1_555 1_555
C8 C21 1_555 1_555
C13 C18 1_555 1_555
C15 C17 1_555 1_555
C29 C36 1_555 1_555
C30 C31 1_555 1_555
C33 C37 1_555 1_555
N3 C43 1_555 1_555
C38 C42 1_555 1_555
C39 C44 1_555 1_555
C39 C45 1_555 1_555
N7 C44 1_555 1_555
C42 C43 1_555 1_555
N9 C49 1_555 1_555
C49 C50 1_555 1_555
C51 C52 1_555 1_555
Eu1A_2 O8A 1_555 1_555
Eu2A O5_2 1_555 1_555
Eu2A O5A 1_555 1_555

#END
