
#######################################################################
#
#                 Cambridge Crystallographic Data Centre
#                                CCDC 
#
#######################################################################
#
# If this CIF has been generated from an entry in the Cambridge 
# Structural Database, then it will include bibliographic, chemical, 
# crystal, experimental, refinement or atomic coordinate data resulting 
# from the CCDC's data processing and validation procedures.
#
#######################################################################

data_HETZOW
_chemical_formula_moiety         '(C50 H48 Cl2 N10 O40 V16 Zn2 1+)n'
_symmetry_cell_setting           tetragonal
_symmetry_space_group_name_H-M   'P -4 n 2'
_symmetry_Int_Tables_number      118
_space_group_name_Hall           'P -4 -2n'
loop_
_symmetry_equiv_pos_site_id
_symmetry_equiv_pos_as_xyz
1 x,y,z
2 -x,-y,z
3 y,-x,-z
4 -y,x,-z
5 1/2+x,1/2-y,1/2+z
6 1/2-x,1/2+y,1/2+z
7 1/2+y,1/2+x,1/2-z
8 1/2-y,1/2-x,1/2-z
_cell_length_a                   17.124(2)
_cell_length_b                   17.124(2)
_cell_length_c                   14.724(3)
_cell_angle_alpha                90
_cell_angle_beta                 90
_cell_angle_gamma                90
_cell_volume                     4317.54
loop_
_atom_site_label
_atom_site_type_symbol
_atom_site_fract_x
_atom_site_fract_y
_atom_site_fract_z
Zn1 Zn 0.25571(3) 0.75571(3) 0.7500
V1 V 0.06438(7) 1.07189(7) 0.77040(6)
V2 V -0.03011(5) 0.81246(5) 0.91410(6)
V3 V 0.18314(4) 1.05149(5) 0.91155(6)
V4 V 0.12228(4) 0.89045(4) 0.87366(5)
O1 O 0.2687(2) 1.0722(3) 0.8752(3)
O3 O 0.1191(2) 1.1352(2) 0.8784(2)
O5 O 0.18211(19) 0.83371(19) 0.8186(2)
O7 O 0.1281(2) 0.9937(2) 0.8205(3)
O8 O 0.0755(2) 0.82345(19) 0.9636(2)
O9 O 0.0203(2) 0.8730(2) 0.8204(3)
O10 O 0.1015(3) 1.1155(3) 0.6839(3)
O11 O 0.1863(2) 0.9446(2) 0.9619(2)
O12 O -0.0378(3) 0.7244(2) 0.8788(3)
O13 O 0.0000 1.0000 0.7158(4)
N1 N 0.2222(3) 0.6609(2) 0.8408(3)
N2 N 0.2127(2) 0.3509(3) 1.1577(3)
C1 C 0.1947(3) 0.6726(3) 0.9250(4)
H1 H 0.1789 0.7226 0.9416
C2 C 0.2402(4) 0.5877(3) 0.8170(4)
H2 H 0.2572 0.5785 0.7579
C3 C 0.1950(3) 0.3385(4) 1.0710(4)
H3 H 0.1832 0.2878 1.0530
C4 C 0.2261(3) 0.4247(4) 1.1826(4)
H4 H 0.2375 0.4347 1.2433
C5 C 0.2241(3) 0.4869(4) 1.1233(4)
H5 H 0.2330 0.5375 1.1439
C6 C 0.2347(4) 0.5250(3) 0.8754(4)
H6 H 0.2473 0.4750 0.8558
C7 C 0.1931(3) 0.3967(4) 1.0065(4)
H7 H 0.1817 0.3849 0.9462
C8 C 0.2083(3) 0.4728(3) 1.0323(4)
C9 C 0.2099(3) 0.5379(3) 0.9646(4)
C10 C 0.1890(4) 0.6136(3) 0.9877(4)
H8 H 0.1711 0.6244 1.0460
Zn1B Zn 0.75571(3) 0.74429(3) 1.2500
Zn1C Zn 0.24429(3) 0.25571(3) 1.2500
Zn1B_2 Zn -0.24429(3) 0.74429(3) 0.2500
Zn1C_2 Zn 0.24429(3) 1.25571(3) 0.2500
Zn1C_3 Zn 0.24429(3) 1.25571(3) 1.2500
Zn1A Zn -0.25571(3) 1.24429(3) 0.7500
Zn1B_3 Zn -0.24429(3) 0.74429(3) 1.2500
V1A V -0.06438(7) 0.92811(7) 0.77040(6)
V1B V 0.07189(7) 0.93562(7) 1.22960(6)
V1C V -0.07189(7) 1.06438(7) 1.22960(6)
V2C V 0.18754(5) 0.96989(5) 1.08590(6)
V2A V 0.03011(5) 1.18754(5) 0.91410(6)
V2B V -0.18754(5) 1.03011(5) 1.08590(6)
V3B V 0.05149(5) 0.81686(4) 1.08845(6)
V3A V -0.18314(4) 0.94851(5) 0.91155(6)
V3C V -0.05149(5) 1.18314(4) 1.08845(6)
V4C V 0.10955(4) 1.12228(4) 1.12634(5)
V4B V -0.10955(4) 0.87772(4) 1.12634(5)
V4A V -0.12228(4) 1.10955(4) 0.87366(5)
O1B O 0.0722(3) 0.7313(2) 1.1248(3)
O1A O -0.2687(2) 0.9278(3) 0.8752(3)
O1C O -0.0722(3) 1.2687(2) 1.1248(3)
O3A O -0.1191(2) 0.8648(2) 0.8784(2)
O3B O 0.1352(2) 0.8809(2) 1.1216(2)
O3C O -0.1352(2) 1.1191(2) 1.1216(2)
O5F O 0.33371(19) 0.68211(19) 0.6814(2)
O5C O 0.16629(19) 1.18211(19) 1.1814(2)
O5A O -0.18211(19) 1.16629(19) 0.8186(2)
O5B O -0.16629(19) 0.81789(19) 1.1814(2)
O5B_2 O -0.16629(19) 0.81789(19) 0.1814(2)
O5D O -0.31789(19) 0.66629(19) 0.3186(2)
O7A O -0.1281(2) 1.0063(2) 0.8205(3)
O7B O -0.0063(2) 0.8719(2) 1.1795(3)
O7C O 0.0063(2) 1.1281(2) 1.1795(3)
O8C O 0.17655(19) 1.0755(2) 1.0364(2)
O8A O -0.0755(2) 1.17655(19) 0.9636(2)
O8B O -0.17655(19) 0.9245(2) 1.0364(2)
O9A O -0.0203(2) 1.1270(2) 0.8204(3)
O9C O 0.1270(2) 1.0203(2) 1.1796(3)
O9B O -0.1270(2) 0.9797(2) 1.1796(3)
O10A O -0.1015(3) 0.8845(3) 0.6839(3)
O10C O -0.1155(3) 1.1015(3) 1.3161(3)
O10B O 0.1155(3) 0.8985(3) 1.3161(3)
O11B O -0.0554(2) 0.8137(2) 1.0381(2)
O11C O 0.0554(2) 1.1863(2) 1.0381(2)
O11A O -0.1863(2) 1.0554(2) 0.9619(2)
O12C O 0.2756(2) 0.9622(3) 1.1212(3)
O12A O 0.0378(3) 1.2756(2) 0.8788(3)
O12B O -0.2756(2) 1.0378(3) 1.1212(3)
O13B O 0.0000 1.0000 1.2842(4)
N1F N 0.1609(2) 0.7222(3) 0.6592(3)
N1B N 0.6609(2) 0.7778(3) 1.1592(3)
N1E N 0.2778(3) 1.1609(2) 0.3408(3)
N1B_2 N -0.3391(2) 0.7778(3) 0.1592(3)
N1D N -0.2778(3) 0.8391(2) 0.3408(3)
N2F N -0.1491(3) 0.7127(2) 0.3423(3)
N2B N 0.3509(3) 0.7873(2) 0.8423(3)
N2E N 0.2873(2) 0.8509(3) 0.6577(3)
N2A N -0.2127(2) 0.6491(3) 0.1577(3)
C1F C 0.1726(3) 0.6947(3) 0.5750(4)
C1B C 0.6726(3) 0.8053(3) 1.0750(4)
C1E C 0.3053(3) 1.1726(3) 0.4250(4)
H1F H 0.2226 0.6789 0.5584
H1B H 0.7226 0.8211 1.0584
H1E H 0.3211 1.2226 0.4416
C2F C 0.0877(3) 0.7402(4) 0.6830(4)
C2B C 0.5877(3) 0.7598(4) 1.1830(4)
C2E C 0.2598(4) 1.0877(3) 0.3170(4)
H2F H 0.0785 0.7572 0.7421
H2B H 0.5785 0.7428 1.2421
H2E H 0.2428 1.0785 0.2579
C3F C -0.1615(4) 0.6950(3) 0.4290(4)
C3B C 0.3385(4) 0.8050(3) 0.9290(4)
C3E C 0.3050(3) 0.8385(4) 0.5710(4)
H3F H -0.2122 0.6832 0.4470
H3B H 0.2878 0.8168 0.9470
H3E H 0.3168 0.7878 0.5530
C4F C -0.0753(4) 0.7261(3) 0.3174(4)
C4B C 0.4247(4) 0.7739(3) 0.8174(4)
C4E C 0.2739(3) 0.9247(4) 0.6826(4)
H4F H -0.0653 0.7375 0.2567
H4B H 0.4347 0.7625 0.7567
H4E H 0.2625 0.9347 0.7433
C5F C -0.0131(4) 0.7241(3) 0.3767(4)
C5B C 0.4869(4) 0.7759(3) 0.8767(4)
C5E C 0.2759(3) 0.9869(4) 0.6233(4)
H5F H 0.0375 0.7330 0.3561
H5B H 0.5375 0.7670 0.8561
H5E H 0.2670 1.0375 0.6439
C6F C 0.0250(3) 0.7347(4) 0.6246(4)
C6B C 0.5250(3) 0.7653(4) 1.1246(4)
C6E C 0.2653(4) 1.0250(3) 0.3754(4)
H6F H -0.0250 0.7473 0.6442
H6B H 0.4750 0.7527 1.1442
H6E H 0.2527 0.9750 0.3558
C7F C -0.1033(4) 0.6931(3) 0.4935(4)
C7B C 0.3967(4) 0.8069(3) 0.9935(4)
C7E C 0.3069(3) 0.8967(4) 0.5065(4)
H7F H -0.1151 0.6817 0.5538
H7B H 0.3849 0.8183 1.0538
H7E H 0.3183 0.8849 0.4462
C8F C -0.0272(3) 0.7083(3) 0.4677(4)
C8B C 0.4728(3) 0.7917(3) 0.9677(4)
C8E C 0.2917(3) 0.9728(3) 0.5323(4)
C9F C 0.0379(3) 0.7099(3) 0.5354(4)
C9B C 0.5379(3) 0.7901(3) 1.0354(4)
C9E C 0.2901(3) 1.0379(3) 0.4646(4)
C10F C 0.1136(3) 0.6890(4) 0.5123(4)
C10B C 0.6136(3) 0.8110(4) 1.0123(4)
C10E C 0.3110(4) 1.1136(3) 0.4877(4)
H8F H 0.1244 0.6711 0.4540
H8B H 0.6244 0.8289 0.9540
H8E H 0.3289 1.1244 0.5460
O2 O -0.063(4) 0.945(5) 0.4841(15)
O6 O -0.1765(11) 0.6765(11) 0.7500
N4 N -0.0000 0.5000 1.0072(11)
C16 C 0.0000 0.5000 1.1932(11)
C17 C 0.0011(7) 0.5683(7) 1.1454(10)
C18 C -0.0003(7) 0.5682(7) 1.0480(11)
N4F N -0.0000 0.5000 1.4928(11)
C16F C -0.0000 0.5000 1.3068(11)
C17F C 0.0683(7) 0.5011(7) 1.3546(10)
C17G C -0.0683(7) 0.4989(7) 1.3546(10)
C17A C -0.0011(7) 0.4317(7) 1.1454(10)
C18F C 0.0682(7) 0.4997(7) 1.4520(11)
C18G C -0.0682(7) 0.5003(7) 1.4520(11)
C18A C 0.0003(7) 0.4318(7) 1.0480(11)
Cl1 Cl -0.0000 1.0000 0.9872(5)
Cl1B Cl 0.0000 1.0000 1.0128(5)
loop_
_geom_bond_atom_site_label_1
_geom_bond_atom_site_label_2
_geom_bond_site_symmetry_1
_geom_bond_site_symmetry_2
Cl1 Cl1B 1_555 1_555
Zn1 O5 1_555 1_555
V1 V3 1_555 1_555
V2 V4 1_555 1_555
V3 V4 1_555 1_555
V4 O5 1_555 1_555
O1 V3 1_555 1_555
O3 V1 1_555 1_555
O7 V1 1_555 1_555
O8 V2 1_555 1_555
O9 V2 1_555 1_555
O10 V1 1_555 1_555
O11 V3 1_555 1_555
O12 V2 1_555 1_555
O13 V1 1_555 1_555
N1 Zn1 1_555 1_555
N2 C3 1_555 1_555
N4 C18 1_555 1_555
C1 N1 1_555 1_555
H1 C1 1_555 1_555
C2 N1 1_555 1_555
H2 C2 1_555 1_555
C3 H3 1_555 1_555
C4 N2 1_555 1_555
H4 C4 1_555 1_555
C5 C4 1_555 1_555
H5 C5 1_555 1_555
C6 C2 1_555 1_555
H6 C6 1_555 1_555
C7 C3 1_555 1_555
H7 C7 1_555 1_555
C8 C5 1_555 1_555
C9 C6 1_555 1_555
C10 C1 1_555 1_555
H8 C10 1_555 1_555
C16 C17 1_555 1_555
C17 C18 1_555 1_555
Zn1B N1B 1_555 1_555
Zn1C N2 1_555 1_555
Zn1B_2 O5B_2 1_555 1_555
Zn1C_2 N1E 1_555 1_555
Zn1C_3 O5C 1_555 1_555
Zn1A O5A 1_555 1_555
Zn1B_3 O5B 1_555 1_555
V1A V2 1_555 1_555
V1B V2C 1_555 1_555
V1C V2B 1_555 1_555
V2C V3 1_555 1_555
V2A V1 1_555 1_555
V2B V3A 1_555 1_555
V3B V2 1_555 1_555
V3A V1A 1_555 1_555
V3C V1C 1_555 1_555
V4C V2C 1_555 1_555
V4B V2B 1_555 1_555
V4A V2A 1_555 1_555
O1B V3B 1_555 1_555
O1A V3A 1_555 1_555
O1C V3C 1_555 1_555
O3A V2 1_555 1_555
O3B V1B 1_555 1_555
O3C V1C 1_555 1_555
O5F Zn1 1_555 1_555
O5C V4C 1_555 1_555
O5A V4A 1_555 1_555
O5B V4B 1_555 1_555
O5D Zn1B_2 1_555 1_555
O7A V1A 1_555 1_555
O7B V1B 1_555 1_555
O7C V1C 1_555 1_555
O8C V3 1_555 1_555
O8A V2A 1_555 1_555
O8B V2B 1_555 1_555
O9A V1 1_555 1_555
O9C V1B 1_555 1_555
O9B V1C 1_555 1_555
O10A V1A 1_555 1_555
O10C V1C 1_555 1_555
O10B V1B 1_555 1_555
O11B V2 1_555 1_555
O11C V2A 1_555 1_555
O11A V2B 1_555 1_555
O12C V2C 1_555 1_555
O12A V2A 1_555 1_555
O12B V2B 1_555 1_555
O13B V1B 1_555 1_555
N1F Zn1 1_555 1_555
N1B C1B 1_555 1_555
N1E C1E 1_555 1_555
N1B_2 Zn1B_2 1_555 1_555
N1D Zn1B_2 1_555 1_555
N2F Zn1B_2 1_555 1_555
N2B Zn1 1_555 1_555
N2E Zn1 1_555 1_555
N2A Zn1B_2 1_555 1_555
N4F C18F 1_555 1_555
C1F N1F 1_555 1_555
C1B H1B 1_555 1_555
C1E H1E 1_555 1_555
H1F C1F 1_555 1_555
C2F N1F 1_555 1_555
C2B N1B 1_555 1_555
C2E N1E 1_555 1_555
H2F C2F 1_555 1_555
H2B C2B 1_555 1_555
H2E C2E 1_555 1_555
C3F N2F 1_555 1_555
C3B N2B 1_555 1_555
C3E N2E 1_555 1_555
H3F C3F 1_555 1_555
H3B C3B 1_555 1_555
H3E C3E 1_555 1_555
C4F N2F 1_555 1_555
C4B N2B 1_555 1_555
C4E N2E 1_555 1_555
H4F C4F 1_555 1_555
H4B C4B 1_555 1_555
H4E C4E 1_555 1_555
C5F C4F 1_555 1_555
C5B C4B 1_555 1_555
C5E C4E 1_555 1_555
H5F C5F 1_555 1_555
H5B C5B 1_555 1_555
H5E C5E 1_555 1_555
C6F C2F 1_555 1_555
C6B C2B 1_555 1_555
C6E C2E 1_555 1_555
H6F C6F 1_555 1_555
H6B C6B 1_555 1_555
H6E C6E 1_555 1_555
C7F C3F 1_555 1_555
C7B C3B 1_555 1_555
C7E C3E 1_555 1_555
H7F C7F 1_555 1_555
H7B C7B 1_555 1_555
H7E C7E 1_555 1_555
C8F C5F 1_555 1_555
C8B C5B 1_555 1_555
C8E C5E 1_555 1_555
C9F C6F 1_555 1_555
C9B C6B 1_555 1_555
C9E C6E 1_555 1_555
C10F C1F 1_555 1_555
C10B C1B 1_555 1_555
C10E C1E 1_555 1_555
H8F C10F 1_555 1_555
H8B C10B 1_555 1_555
H8E C10E 1_555 1_555
C16F C16 1_555 1_555
C17F C16F 1_555 1_555
C17G C16F 1_555 1_555
C17A C16 1_555 1_555
C18F C17F 1_555 1_555
C18G N4F 1_555 1_555
C18A N4 1_555 1_555
V3 O3 1_555 1_555
V3 O7 1_555 1_555
V4 O7 1_555 1_555
V4 O8 1_555 1_555
V4 O9 1_555 1_555
V4 O11 1_555 1_555
O3 V2A 1_555 1_555
O8 V3B 1_555 1_555
O9 V1A 1_555 1_555
O11 V2C 1_555 1_555
O13 V1A 1_555 1_555
C7 C8 1_555 1_555
C8 C9 1_555 1_555
C9 C10 1_555 1_555
V1A O3A 1_555 1_555
V1B V3B 1_555 1_555
V1C O13B 1_555 1_555
V2C O3B 1_555 1_555
V2C O8C 1_555 1_555
V2C O9C 1_555 1_555
V2A V3C 1_555 1_555
V2A O9A 1_555 1_555
V2B O3C 1_555 1_555
V2B O9B 1_555 1_555
V3B V4B 1_555 1_555
V3B O3B 1_555 1_555
V3B O7B 1_555 1_555
V3B O11B 1_555 1_555
V3A V4A 1_555 1_555
V3A O3A 1_555 1_555
V3A O7A 1_555 1_555
V3A O8B 1_555 1_555
V3A O11A 1_555 1_555
V3C V4C 1_555 1_555
V3C O3C 1_555 1_555
V3C O7C 1_555 1_555
V3C O8A 1_555 1_555
V3C O11C 1_555 1_555
V4C O7C 1_555 1_555
V4C O8C 1_555 1_555
V4C O9C 1_555 1_555
V4C O11C 1_555 1_555
V4B O7B 1_555 1_555
V4B O8B 1_555 1_555
V4B O9B 1_555 1_555
V4B O11B 1_555 1_555
V4A O7A 1_555 1_555
V4A O8A 1_555 1_555
V4A O9A 1_555 1_555
V4A O11A 1_555 1_555
C7F C8F 1_555 1_555
C7B C8B 1_555 1_555
C7E C8E 1_555 1_555
C8F C9F 1_555 1_555
C8B C9B 1_555 1_555
C8E C9E 1_555 1_555
C9F C10F 1_555 1_555
C9B C10B 1_555 1_555
C9E C10E 1_555 1_555
C17G C18G 1_555 1_555
C17A C18A 1_555 1_555

#END
