
#######################################################################
#
#                 Cambridge Crystallographic Data Centre
#                                CCDC 
#
#######################################################################
#
# If this CIF has been generated from an entry in the Cambridge 
# Structural Database, then it will include bibliographic, chemical, 
# crystal, experimental, refinement or atomic coordinate data resulting 
# from the CCDC's data processing and validation procedures.
#
#######################################################################

data_OBENAL
_chemical_formula_moiety         'C41 H159 Co41 O146'
_symmetry_cell_setting           orthorhombic
_symmetry_space_group_name_H-M   'I m m a'
_symmetry_Int_Tables_number      74
_space_group_name_Hall           '-I 2b 2'
loop_
_symmetry_equiv_pos_site_id
_symmetry_equiv_pos_as_xyz
1 x,y,z
2 1/2+x,1/2+y,1/2+z
3 x,1/2+y,-z
4 x,1/2-y,z
5 -x,y,z
6 1/2+x,y,1/2-z
7 1/2+x,-y,1/2+z
8 1/2-x,1/2+y,1/2+z
9 -x,-y,-z
10 1/2-x,1/2-y,1/2-z
11 -x,1/2-y,z
12 -x,1/2+y,-z
13 x,-y,-z
14 1/2-x,-y,1/2+z
15 1/2-x,y,1/2-z
16 1/2+x,1/2-y,1/2-z
_cell_length_a                   12.446(3)
_cell_length_b                   28.949(7)
_cell_length_c                   5.3971(14)
_cell_angle_alpha                90
_cell_angle_beta                 90
_cell_angle_gamma                90
_cell_volume                     1944.57
loop_
_atom_site_label
_atom_site_type_symbol
_atom_site_fract_x
_atom_site_fract_y
_atom_site_fract_z
Co1 Co 0.37561(11) 0.7500 0.2454(3)
Co2 Co 0.2500 0.7500 0.7500
Co3 Co 0.5000 0.80909(6) -0.2582(3)
O1 O 0.5000 0.7946(7) 0.103(4)
H1 H 0.5000 0.8182 0.1796
O2 O 0.3680(10) 0.7075(4) 0.574(2)
H2 H 0.3388 0.6839 0.5363
O3 O 0.5000 0.7897(6) 0.386(3)
H3 H 0.5000 0.8131 0.3067
O4 O 0.3707(10) 0.7093(5) -0.079(2)
H4 H 0.3417 0.6858 -0.0403
O5 O 0.2524(11) 0.7853(4) 0.418(2)
H5 H 0.2526 0.8129 0.4183
O6 O 0.5000 0.8788(4) -0.2653(16)
O7 O 0.5000 0.8800(5) -0.670(2)
C1 C 0.5000 0.8992(5) -0.477(3)
C2 C 0.480(2) 0.9515(7) -0.462(4)
H6 H 0.4415 0.9552 -0.3044
C3 C 0.418(3) 0.9737(10) -0.624(6)
H7 H 0.3469 0.9605 -0.6175
H8 H 0.4467 0.9679 -0.7888
C4 C 0.592(3) 0.9732(10) -0.410(6)
H9 H 0.3601 0.9666 -0.5471
H10 H 0.3776 0.9596 -0.2613
Co1D Co 0.62439(11) 0.7500 0.2454(3)
O1J O 0.5000 0.7054(7) 0.103(4)
O2C O 0.3680(10) 0.7925(4) 0.574(2)
O2D O 0.6320(10) 0.7075(4) 0.574(2)
Co2D Co 0.7500 0.7500 0.7500
O2J O 0.6320(10) 0.7925(4) 0.574(2)
O3J O 0.5000 0.7103(6) 0.386(3)
Co2_2 Co 0.2500 0.7500 -0.2500
O2_2 O 0.3680(10) 0.7075(4) -0.426(2)
O2C_2 O 0.3680(10) 0.7925(4) -0.426(2)
O2I O 0.1320(10) 0.7925(4) -0.074(2)
Co1I Co 0.12439(11) 0.7500 0.2546(3)
O1I O -0.0000 0.7054(7) 0.397(4)
Co1O Co -0.12439(11) 0.7500 0.2546(3)
O1E O -0.0000 0.7946(7) 0.397(4)
O2N O 0.1320(10) 0.7075(4) -0.074(2)
O4C O 0.3707(10) 0.7907(5) -0.079(2)
O3I O 0.0000 0.7103(6) 0.114(3)
O2O O -0.1320(10) 0.7925(4) -0.074(2)
Co2O Co -0.2500 0.7500 -0.2500
O2E O -0.1320(10) 0.7075(4) -0.074(2)
O3E O 0.0000 0.7897(6) 0.114(3)
O4I O 0.1293(10) 0.7907(5) 0.579(2)
O2I_2 O 0.1320(10) 0.7925(4) 0.926(2)
O2N_2 O 0.1320(10) 0.7075(4) 0.926(2)
O4_2 O 0.3707(10) 0.7093(5) 0.921(2)
O4C_2 O 0.3707(10) 0.7907(5) 0.921(2)
O4N O 0.1293(10) 0.7093(5) 0.579(2)
O5I O 0.2476(11) 0.7147(4) 0.082(2)
O5C O 0.2524(11) 0.7147(4) 0.418(2)
O5N O 0.2476(11) 0.7853(4) 0.082(2)
O4I_2 O 0.1293(10) 0.7907(5) -0.421(2)
O4N_2 O 0.1293(10) 0.7093(5) -0.421(2)
O5_2 O 0.2524(11) 0.7853(4) -0.582(2)
Co1_2 Co 0.37561(11) 0.7500 -0.7546(3)
Co1I_2 Co 0.12439(11) 0.7500 -0.7454(3)
Co3_2 Co 0.5000 0.80909(6) 0.7418(3)
O1_2 O 0.5000 0.7946(7) 1.103(4)
H2J H 0.6612 0.8161 0.5363
O5D O 0.7476(11) 0.7853(4) 0.418(2)
O4D O 0.6293(10) 0.7093(5) -0.079(2)
Co2D_2 Co 0.7500 0.7500 -0.2500
O2D_2 O 0.6320(10) 0.7075(4) -0.426(2)
O2J_2 O 0.6320(10) 0.7925(4) -0.426(2)
O2O_2 O 0.8680(10) 0.7925(4) -0.074(2)
O2E_2 O 0.8680(10) 0.7075(4) -0.074(2)
O4J O 0.6293(10) 0.7907(5) -0.079(2)
O5J O 0.7476(11) 0.7147(4) 0.418(2)
Co1E Co 0.87561(11) 0.7500 0.2546(3)
O1E_2 O 1.0000 0.7946(7) 0.397(4)
O1O O 1.0000 0.7054(7) 0.397(4)
O3E_2 O 1.0000 0.7897(6) 0.114(3)
O3O O 1.0000 0.7103(6) 0.114(3)
O4E O 0.8707(10) 0.7093(5) 0.579(2)
O2O_3 O 0.8680(10) 0.7925(4) 0.926(2)
O2E_3 O 0.8680(10) 0.7075(4) 0.926(2)
O4D_2 O 0.6293(10) 0.7093(5) 0.921(2)
O4J_2 O 0.6293(10) 0.7907(5) 0.921(2)
O4O O 0.8707(10) 0.7907(5) 0.579(2)
O5E O 0.7524(11) 0.7853(4) 0.082(2)
O5O O 0.7524(11) 0.7147(4) 0.082(2)
Co3J Co 0.5000 0.69091(6) 0.7418(3)
O1J_2 O 0.5000 0.7054(7) 1.103(4)
Co1J Co 0.62439(11) 0.7500 1.2454(3)
Co1C Co 0.37561(11) 0.7500 1.2454(3)
H1J H 0.5000 0.6818 1.1796
H3J H 0.5000 0.6869 1.3067
O3J_2 O 0.5000 0.7103(6) 1.386(3)
Co3J_2 Co 0.5000 0.69091(6) 1.7418(3)
O1J_3 O 0.5000 0.7054(7) 2.103(4)
O2D_3 O 0.6320(10) 0.7075(4) 1.574(2)
O2_3 O 0.3680(10) 0.7075(4) 1.574(2)
Co2_3 Co 0.2500 0.7500 1.7500
H2_2 H 0.3388 0.6839 1.5363
O5C_2 O 0.2524(11) 0.7147(4) 1.418(2)
Co1N Co 0.12439(11) 0.7500 1.2546(3)
O2C_3 O 0.3680(10) 0.7925(4) 1.574(2)
O2I_3 O 0.1320(10) 0.7925(4) 1.926(2)
O2N_3 O 0.1320(10) 0.7075(4) 1.926(2)
O4_3 O 0.3707(10) 0.7093(5) 1.921(2)
O4C_3 O 0.3707(10) 0.7907(5) 1.921(2)
O4I_3 O 0.1293(10) 0.7907(5) 1.579(2)
O4N_3 O 0.1293(10) 0.7093(5) 1.579(2)
O5_3 O 0.2524(11) 0.7853(4) 1.418(2)
O5I_2 O 0.2476(11) 0.7147(4) 2.082(2)
Co1I_3 Co 0.12439(11) 0.7500 2.2546(3)
Co1_3 Co 0.37561(11) 0.7500 2.2454(3)
Co3I Co 0.0000 0.69091(6) 1.7582(3)
O1I_2 O 0.0000 0.7054(7) 1.397(4)
Co1O_2 Co -0.12439(11) 0.7500 1.2546(3)
H1I H -0.0000 0.6818 1.3204
H3I H -0.0000 0.6869 1.1933
O3I_2 O 0.0000 0.7103(6) 1.114(3)
Co3I_2 Co -0.0000 0.69091(6) 0.7582(3)
O2E_4 O -0.1320(10) 0.7075(4) 0.926(2)
H2E H -0.1612 0.6839 0.9637
O5O_2 O -0.2476(11) 0.7147(4) 1.082(2)
Co1D_2 Co -0.37561(11) 0.7500 1.2454(3)
Co2O_2 Co -0.2500 0.7500 0.7500
O2D_4 O -0.3680(10) 0.7075(4) 0.574(2)
O2J_3 O -0.3680(10) 0.7925(4) 0.574(2)
O4O_2 O -0.1293(10) 0.7907(5) 0.579(2)
O4E_2 O -0.1293(10) 0.7093(5) 0.579(2)
O4D_3 O -0.3707(10) 0.7093(5) 0.921(2)
O4J_3 O -0.3707(10) 0.7907(5) 0.921(2)
O5E_2 O -0.2476(11) 0.7853(4) 1.082(2)
O2O_4 O -0.1320(10) 0.7925(4) 0.926(2)
Co3E Co 0.0000 0.80909(6) 0.7582(3)
H1E H -0.0000 0.8182 0.3204
H3E H -0.0000 0.8131 0.1933
Co3E_2 Co -0.0000 0.80909(6) -0.2418(3)
O1E_3 O 0.0000 0.7946(7) -0.603(4)
H2I H 0.1612 0.8161 -0.0363
H5N H 0.2474 0.8129 0.0817
O4O_3 O -0.1293(10) 0.7907(5) -0.421(2)
Co1O_3 Co -0.12439(11) 0.7500 -0.7454(3)
H4O H -0.1583 0.8142 -0.4597
H4I H 0.1583 0.8142 -0.4597
O6E O 0.0000 0.8788(4) -0.2347(16)
C1E C -0.0000 0.8992(5) -0.023(3)
O7E O 0.0000 0.8800(5) 0.170(2)
C2E C -0.020(2) 0.9515(7) -0.038(4)
C2N C 0.020(2) 0.9515(7) -0.038(4)
H6N H 0.0585 0.9552 -0.1956
H6E H -0.0585 0.9552 -0.1956
C3N C 0.082(3) 0.9737(10) 0.124(6)
C3E C -0.082(3) 0.9737(10) 0.124(6)
C4N C -0.092(3) 0.9732(10) -0.090(6)
C4E C 0.092(3) 0.9732(10) -0.090(6)
H10N H 0.1224 0.9596 -0.2387
C3M C 0.082(3) 1.0263(10) -0.124(6)
C2M C 0.020(2) 1.0485(7) 0.038(4)
C1M C -0.0000 1.1008(5) 0.023(3)
O6M O 0.0000 1.1212(4) 0.2347(16)
Co3M Co -0.0000 1.19091(6) 0.2418(3)
O1M O 0.0000 1.2054(7) 0.603(4)
O2G O 0.1320(10) 1.2075(4) 0.074(2)
O2A O -0.1320(10) 1.2075(4) 0.074(2)
O3M O -0.0000 1.2103(6) -0.114(3)
O4G O 0.1293(10) 1.2093(5) 0.421(2)
Co1G Co 0.12439(11) 1.2500 0.7454(3)
H4G H 0.1583 1.1858 0.4597
O4A O -0.1293(10) 1.2093(5) 0.421(2)
Co1A Co -0.12439(11) 1.2500 0.7454(3)
H4A H -0.1583 1.1858 0.4597
O7M O -0.0000 1.1200(5) -0.170(2)
C2F C -0.020(2) 1.0485(7) 0.038(4)
H6F H -0.0585 1.0448 0.1956
H6M H 0.0585 1.0448 0.1956
C3F C -0.082(3) 1.0263(10) -0.124(6)
C4M C -0.092(3) 1.0268(10) 0.090(6)
H7M H 0.1531 1.0395 -0.1175
H9M H 0.1399 1.0334 -0.0471
H8M H 0.0533 1.0321 -0.2888
C4F C 0.092(3) 1.0268(10) 0.090(6)
H10M H 0.1224 1.0404 0.2387
H7N H 0.1531 0.9605 0.1175
H9N H 0.1399 0.9666 0.0471
H8N H 0.0533 0.9679 0.2888
H10F H -0.1224 1.0404 0.2387
H7E H -0.1531 0.9605 0.1175
H9E H -0.1399 0.9666 0.0471
H8E H -0.0533 0.9679 0.2888
H10E H -0.1224 0.9596 -0.2387
H7F H -0.1531 1.0395 -0.1175
H9F H -0.1399 1.0334 -0.0471
H8F H -0.0533 1.0321 -0.2888
O3E_3 O 0.0000 0.7897(6) 1.114(3)
O6E_2 O -0.0000 0.8788(4) 0.7653(16)
H2O H -0.1612 0.8161 0.9637
H5E H -0.2474 0.8129 1.0817
O5D_2 O -0.2524(11) 0.7853(4) 0.418(2)
O5J_2 O -0.2524(11) 0.7147(4) 0.418(2)
H5O H -0.2474 0.6871 1.0817
H4N H 0.1583 0.6858 0.5403
H4E H -0.1583 0.6858 0.5403
O6I O 0.0000 0.6212(4) 0.7653(16)
C1I C 0.0000 0.6008(5) 0.977(3)
O7I O 0.0000 0.6200(5) 1.170(2)
C2I C 0.020(2) 0.5485(7) 0.962(4)
C2O C -0.020(2) 0.5485(7) 0.962(4)
H6O H -0.0585 0.5448 0.8044
H6I H 0.0585 0.5448 0.8044
C3O C -0.082(3) 0.5263(10) 1.124(6)
C3I C 0.082(3) 0.5263(10) 1.124(6)
C4O C 0.092(3) 0.5268(10) 0.910(6)
C4I C -0.092(3) 0.5268(10) 0.910(6)
H10O H -0.1224 0.5404 0.7613
C3A C -0.082(3) 0.4737(10) 0.876(6)
C2A C -0.020(2) 0.4515(7) 1.038(4)
C1A C 0.0000 0.3992(5) 1.023(3)
O6A O -0.0000 0.3788(4) 1.2347(16)
Co3A Co 0.0000 0.30909(6) 1.2418(3)
O1A O 0.0000 0.2946(7) 1.603(4)
O2F O -0.1320(10) 0.2925(4) 1.074(2)
O2M O 0.1320(10) 0.2925(4) 1.074(2)
O3A O 0.0000 0.2897(6) 0.886(3)
O4F O -0.1293(10) 0.2907(5) 1.421(2)
Co1F Co -0.12439(11) 0.2500 1.7454(3)
H4F H -0.1583 0.3142 1.4597
O4M O 0.1293(10) 0.2907(5) 1.421(2)
Co1M Co 0.12439(11) 0.2500 1.7454(3)
H4M H 0.1583 0.3142 1.4597
O7A O -0.0000 0.3800(5) 0.830(2)
C2G C 0.020(2) 0.4515(7) 1.038(4)
H6G H 0.0585 0.4552 1.1956
H6A H -0.0585 0.4552 1.1956
C3G C 0.082(3) 0.4737(10) 0.876(6)
C4A C 0.092(3) 0.4732(10) 1.090(6)
H7A H -0.1531 0.4605 0.8825
H9A H -0.1399 0.4666 0.9529
H8A H -0.0533 0.4679 0.7112
C4G C -0.092(3) 0.4732(10) 1.090(6)
H10A H -0.1224 0.4596 1.2387
H7O H -0.1531 0.5395 1.1175
H9O H -0.1399 0.5334 1.0471
H8O H -0.0533 0.5321 1.2888
H10G H 0.1224 0.4596 1.2387
H7I H 0.1531 0.5395 1.1175
H9I H 0.1399 0.5334 1.0471
H8I H 0.0533 0.5321 1.2888
H10I H 0.1224 0.5404 0.7613
H7G H 0.1531 0.4605 0.8825
H9G H 0.1399 0.4666 0.9529
H8G H 0.0533 0.4679 0.7112
O2E_5 O -0.1320(10) 0.7075(4) 1.926(2)
O3I_3 O -0.0000 0.7103(6) 2.114(3)
O4E_3 O -0.1293(10) 0.7093(5) 1.579(2)
O6I_2 O -0.0000 0.6212(4) 1.7653(16)
H2N H 0.1612 0.6839 1.9637
H5I H 0.2474 0.6871 2.0817
O5N_2 O 0.2476(11) 0.7853(4) 2.082(2)
H5C H 0.2526 0.6871 1.4183
O4D_4 O 0.6293(10) 0.7093(5) 1.921(2)
O6J O 0.5000 0.6212(4) 1.7347(16)
O6J_2 O 0.5000 0.6212(4) 0.7347(16)
H2D H 0.6612 0.6839 0.5363
H5J H 0.7474 0.6871 0.4183
O5O_3 O 0.7524(11) 0.7147(4) 1.082(2)
O5E_3 O 0.7524(11) 0.7853(4) 1.082(2)
H5D H 0.7474 0.8129 0.4183
H5O_2 H 0.7526 0.6871 0.0817
H5E_2 H 0.7526 0.8129 0.0817
Co3E_3 Co 1.0000 0.80909(6) 0.7582(3)
H4O_2 H 0.8417 0.8142 0.5403
Co3O Co 1.0000 0.69091(6) 0.7582(3)
H4E_2 H 0.8417 0.6858 0.5403
H4J H 0.6583 0.8142 -0.0403
O4E_4 O 0.8707(10) 0.7093(5) -0.421(2)
O5D_3 O 0.7476(11) 0.7853(4) -0.582(2)
O5J_3 O 0.7476(11) 0.7147(4) -0.582(2)
H4D H 0.6583 0.6858 -0.0403
O6_2 O 0.5000 0.8788(4) 0.7347(16)
O3_2 O 0.5000 0.7897(6) -0.614(3)
H2C H 0.3388 0.8161 -0.4637
H5_2 H 0.2526 0.8129 -0.5817
O5C_3 O 0.2524(11) 0.7147(4) -0.582(2)
H5C_2 H 0.2526 0.6871 0.4183
H5I_2 H 0.2474 0.6871 0.0817
O5I_3 O 0.2476(11) 0.7147(4) 1.082(2)
O5N_3 O 0.2476(11) 0.7853(4) 1.082(2)
H4I_2 H 0.1583 0.8142 0.5403
O5O_4 O -0.2476(11) 0.7147(4) 0.082(2)
O5E_4 O -0.2476(11) 0.7853(4) 0.082(2)
Co3O_2 Co -0.0000 0.69091(6) -0.2418(3)
H2E_2 H -0.1612 0.6839 -0.0363
H2O_2 H -0.1612 0.8161 -0.0363
H3I_2 H -0.0000 0.6869 0.1933
H4C H 0.3417 0.8142 -0.0403
H2N_2 H 0.1612 0.6839 -0.0363
H1I_2 H -0.0000 0.6818 0.3204
H3J_2 H 0.5000 0.6869 0.3067
H2C_2 H 0.3388 0.8161 0.5363
H1J_2 H 0.5000 0.6818 0.1796
C2D C 0.520(2) 0.9515(7) -0.462(4)
H6D H 0.5585 0.9552 -0.3044
C3D C 0.582(3) 0.9737(10) -0.624(6)
C4D C 0.408(3) 0.9732(10) -0.410(6)
C4H C 0.408(3) 1.0268(10) -0.590(6)
C3H C 0.582(3) 1.0263(10) -0.376(6)
H9D H 0.6399 0.9666 -0.5471
H10D H 0.6224 0.9596 -0.2613
O3C O 0.5000 0.7103(6) -0.614(3)
H2_3 H 0.3388 0.6839 -0.4637
H5C_3 H 0.2526 0.6871 -0.5817
O1N O -0.0000 0.7946(7) 1.397(4)
H2I_2 H 0.1612 0.8161 0.9637
H5N_2 H 0.2474 0.8129 1.0817
H2N_3 H 0.1612 0.6839 0.9637
H5I_3 H 0.2474 0.6871 1.0817
O3_3 O 0.5000 0.7897(6) 1.386(3)
H4_2 H 0.3417 0.6858 0.9597
H4C_2 H 0.3417 0.8142 0.9597
O1I_3 O -0.0000 0.7054(7) -0.603(4)
O3N O -0.0000 0.7897(6) -0.886(3)
H4N_2 H 0.1583 0.6858 -0.4597
O6O O -0.0000 0.6212(4) -0.2347(16)
Co1D_3 Co 0.62439(11) 0.7500 -0.7546(3)
O1_3 O 0.5000 0.7946(7) -0.897(4)
H3_2 H 0.5000 0.8131 -0.6933
H1E_2 H -0.0000 0.8182 -0.6796
H3E_2 H -0.0000 0.8131 -0.8067
H1_2 H 0.5000 0.8182 1.1796
H3_3 H 0.5000 0.8131 1.3067
O2J_4 O 0.6320(10) 0.7925(4) 1.574(2)
O5J_4 O 0.7476(11) 0.7147(4) 1.418(2)
O5D_4 O 0.7476(11) 0.7853(4) 1.418(2)
Co1E_2 Co 0.87561(11) 0.7500 -0.7454(3)
H5J_2 H 0.7474 0.6871 -0.5817
H2D_2 H 0.6612 0.6839 -0.4637
H5D_2 H 0.7474 0.8129 -0.5817
H2J_2 H 0.6612 0.8161 -0.4637
O2I_4 O 1.1320(10) 0.7925(4) 0.926(2)
O3E_4 O 1.0000 0.7897(6) 1.114(3)
O4I_4 O 1.1293(10) 0.7907(5) 0.579(2)
O6E_3 O 1.0000 0.8788(4) 0.7653(16)
H1E_3 H 1.0000 0.8182 0.3204
H3E_3 H 1.0000 0.8131 0.1933
H1O H 1.0000 0.6818 0.3204
H3O H 1.0000 0.6869 0.1933
H2O_3 H 0.8388 0.8161 0.9637
H4D_2 H 0.6583 0.6858 0.9597
H4J_2 H 0.6583 0.8142 0.9597
H2D_3 H 0.6612 0.6839 1.5363
H5E_3 H 0.7526 0.8129 1.0817
H5O_3 H 0.7526 0.6871 1.0817
H2C_3 H 0.3388 0.8161 1.5363
H5_3 H 0.2526 0.8129 1.4183
H1J_3 H 0.5000 0.6818 2.1796
O3J_3 O 0.5000 0.7103(6) 2.386(3)
H3J_3 H 0.5000 0.6869 2.3067
H3E_4 H -0.0000 0.8131 1.1933
H4N_3 H 0.1583 0.6858 1.5403
H4I_3 H 0.1583 0.8142 1.5403
H2I_3 H 0.1612 0.8161 1.9637
H5N_3 H 0.2474 0.8129 2.0817
H4E_3 H -0.1583 0.6858 1.5403
H5J_3 H -0.2526 0.6871 0.4183
H5D_3 H -0.2526 0.8129 0.4183
H2J_3 H -0.3388 0.8161 0.5363
O3M_2 O -0.0000 1.2103(6) 0.886(3)
H1A H -0.0000 0.3182 1.6796
H3A H 0.0000 0.3131 1.8067
H7D H 0.6531 0.9605 -0.6175
H8D H 0.5533 0.9679 -0.7888
C4L C 0.592(3) 1.0268(10) -0.590(6)
C3L C 0.418(3) 1.0263(10) -0.376(6)
C2L C 0.480(2) 1.0485(7) -0.538(4)
C2H C 0.520(2) 1.0485(7) -0.538(4)
H7L H 0.3469 1.0395 -0.3825
H8L H 0.4467 1.0321 -0.2112
H9L H 0.3601 1.0334 -0.4529
H6L H 0.4415 1.0448 -0.6956
H10L H 0.3776 1.0404 -0.7387
H6H H 0.5585 1.0448 -0.6956
H9H H 0.6399 1.0334 -0.4529
H10H H 0.6224 1.0404 -0.7387
H7H H 0.6531 1.0395 -0.3825
H8H H 0.5533 1.0321 -0.2112
O8 O 0.7084(8) 0.8837(4) 0.0051(19)
H11 H 0.651(6) 0.876(5) 0.05(2)
H12 H 0.703(15) 0.881(11) -0.137(10)
H13 H 0.733(14) 0.889(10) 0.142(18)
loop_
_geom_bond_atom_site_label_1
_geom_bond_atom_site_label_2
_geom_bond_site_symmetry_1
_geom_bond_site_symmetry_2
Co1 O1 1_555 1_555
Co2 O2 1_555 1_555
Co3 O1 1_555 1_555
O1 H1 1_555 1_555
H1 H3 1_555 1_555
O2 Co1 1_555 1_555
H2 O2 1_555 1_555
O3 Co1 1_555 1_555
H3 O1 1_555 1_555
O4 Co1 1_555 1_555
H4 O4 1_555 1_555
O5 Co1 1_555 1_555
H5 O5 1_555 1_555
O6 Co3 1_555 1_555
O7 C1 1_555 1_555
C1 O6 1_555 1_555
C2 C1 1_555 1_555
H6 C2 1_555 1_555
C3 C2 1_555 1_555
H7 C3 1_555 1_555
H8 C3 1_555 1_555
C4 C2 1_555 1_555
H9 C3 1_555 1_555
H10 H6 1_555 1_555
O8 H11 1_555 1_555
H12 O8 1_555 1_555
H13 O8 1_555 1_555
Co1D O1 1_555 1_555
O1J Co1 1_555 1_555
O2C Co1 1_555 1_555
O2D Co1D 1_555 1_555
Co2D O2D 1_555 1_555
O2J Co1D 1_555 1_555
O3J Co1 1_555 1_555
Co2_2 O4 1_555 1_555
O2_2 Co2_2 1_555 1_555
O2C_2 Co3 1_555 1_555
O2I Co2_2 1_555 1_555
Co1I O5 1_555 1_555
O1I Co1I 1_555 1_555
Co1O O1I 1_555 1_555
O1E Co1I 1_555 1_555
O2N Co2_2 1_555 1_555
O4C Co1 1_555 1_555
O3I Co1I 1_555 1_555
O2O Co1O 1_555 1_555
Co2O O2O 1_555 1_555
O2E Co1O 1_555 1_555
O3E Co1I 1_555 1_555
O4I Co2 1_555 1_555
O2I_2 Co2 1_555 1_555
O2N_2 Co2 1_555 1_555
O4_2 Co2 1_555 1_555
O4C_2 Co2 1_555 1_555
O4N Co2 1_555 1_555
O5I Co1 1_555 1_555
O5C Co1 1_555 1_555
O5N Co1 1_555 1_555
O4I_2 Co2_2 1_555 1_555
O4N_2 Co2_2 1_555 1_555
O5_2 Co2_2 1_555 1_555
Co1_2 O2_2 1_555 1_555
Co1I_2 O4I_2 1_555 1_555
Co3_2 O3 1_555 1_555
O1_2 Co3_2 1_555 1_555
H2J O2J 1_555 1_555
O5D Co1D 1_555 1_555
O4D Co1D 1_555 1_555
Co2D_2 O4D 1_555 1_555
O2D_2 Co2D_2 1_555 1_555
O2J_2 Co3 1_555 1_555
O2O_2 Co2D_2 1_555 1_555
O2E_2 Co2D_2 1_555 1_555
O4J Co3 1_555 1_555
O5J Co1D 1_555 1_555
Co1E O5D 1_555 1_555
O1E_2 Co1E 1_555 1_555
O1O Co1E 1_555 1_555
O3E_2 Co1E 1_555 1_555
O3O Co1E 1_555 1_555
O4E Co2D 1_555 1_555
O2O_3 Co2D 1_555 1_555
O2E_3 Co2D 1_555 1_555
O4D_2 Co2D 1_555 1_555
O4J_2 Co2D 1_555 1_555
O4O Co2D 1_555 1_555
O5E Co1D 1_555 1_555
O5O Co1D 1_555 1_555
Co3J O2 1_555 1_555
O1J_2 Co3J 1_555 1_555
Co1J O1_2 1_555 1_555
Co1C O4_2 1_555 1_555
H1J O1J_2 1_555 1_555
H3J O1J_2 1_555 1_555
O3J_2 O1J_2 1_555 1_555
Co3J_2 O3J_2 1_555 1_555
O1J_3 Co3J_2 1_555 1_555
O2D_3 Co1J 1_555 1_555
O2_3 Co1C 1_555 1_555
Co2_3 O2_3 1_555 1_555
H2_2 O2_3 1_555 1_555
O5C_2 Co1C 1_555 1_555
Co1N O2I_2 1_555 1_555
O2C_3 Co1C 1_555 1_555
O2I_3 Co2_3 1_555 1_555
O2N_3 Co2_3 1_555 1_555
O4_3 Co3J_2 1_555 1_555
O4C_3 Co2_3 1_555 1_555
O4I_3 Co2_3 1_555 1_555
O4N_3 Co2_3 1_555 1_555
O5_3 Co1C 1_555 1_555
O5I_2 Co2_3 1_555 1_555
Co1I_3 O2I_3 1_555 1_555
Co1_3 O1J_3 1_555 1_555
Co3I O2N_3 1_555 1_555
O1I_2 Co1N 1_555 1_555
Co1O_2 O1I_2 1_555 1_555
H1I O1I_2 1_555 1_555
H3I O1I_2 1_555 1_555
O3I_2 Co1N 1_555 1_555
Co3I_2 O1I 1_555 1_555
O2E_4 Co1O_2 1_555 1_555
H2E O2E_4 1_555 1_555
O5O_2 Co1O_2 1_555 1_555
Co1D_2 O5O_2 1_555 1_555
Co2O_2 O5O_2 1_555 1_555
O2D_4 Co2O_2 1_555 1_555
O2J_3 Co2O_2 1_555 1_555
O4O_2 Co1O 1_555 1_555
O4E_2 Co1O 1_555 1_555
O4D_3 Co2O_2 1_555 1_555
O4J_3 Co2O_2 1_555 1_555
O5E_2 Co1O_2 1_555 1_555
O2O_4 Co1O_2 1_555 1_555
Co3E O1E 1_555 1_555
H1E O1E 1_555 1_555
H3E O1E 1_555 1_555
Co3E_2 O2I 1_555 1_555
O1E_3 Co1I_2 1_555 1_555
H2I O2I 1_555 1_555
H5N O5N 1_555 1_555
O4O_3 Co2O 1_555 1_555
Co1O_3 O1E_3 1_555 1_555
H4O O4O_3 1_555 1_555
H4I O4I_2 1_555 1_555
O6E Co3E_2 1_555 1_555
C1E O6E 1_555 1_555
O7E C1E 1_555 1_555
C2E C1E 1_555 1_555
C2N C1E 1_555 1_555
H6N C2E 1_555 1_555
H6E C2E 1_555 1_555
C3N C2E 1_555 1_555
C3E C2E 1_555 1_555
C4N C2E 1_555 1_555
C4E C2E 1_555 1_555
H10N H6N 1_555 1_555
C3M C4E 1_555 1_555
C2M C3M 1_555 1_555
C1M C2M 1_555 1_555
O6M C1M 1_555 1_555
Co3M O6M 1_555 1_555
O1M Co3M 1_555 1_555
O2G Co3M 1_555 1_555
O2A Co3M 1_555 1_555
O3M Co3M 1_555 1_555
O4G Co3M 1_555 1_555
Co1G O1M 1_555 1_555
H4G O4G 1_555 1_555
O4A Co3M 1_555 1_555
Co1A O4A 1_555 1_555
H4A O4A 1_555 1_555
O7M C1M 1_555 1_555
C2F C3M 1_555 1_555
H6F C2M 1_555 1_555
H6M C2M 1_555 1_555
C3F C4N 1_555 1_555
C4M C3E 1_555 1_555
H7M C3M 1_555 1_555
H9M C3M 1_555 1_555
H8M C3M 1_555 1_555
C4F C3N 1_555 1_555
H10M H6M 1_555 1_555
H7N C3N 1_555 1_555
H9N C3N 1_555 1_555
H8N C3N 1_555 1_555
H10F H6F 1_555 1_555
H7E C3E 1_555 1_555
H9E C3E 1_555 1_555
H8E C3E 1_555 1_555
H10E H6E 1_555 1_555
H7F C3F 1_555 1_555
H9F C3F 1_555 1_555
H8F C3F 1_555 1_555
O3E_3 Co1N 1_555 1_555
O6E_2 Co3E 1_555 1_555
H2O O2O_4 1_555 1_555
H5E O5E_2 1_555 1_555
O5D_2 Co1O 1_555 1_555
O5J_2 Co1O 1_555 1_555
H5O O5O_2 1_555 1_555
H4N O4N 1_555 1_555
H4E O4E_2 1_555 1_555
O6I Co3I_2 1_555 1_555
C1I O6I 1_555 1_555
O7I C1I 1_555 1_555
C2I C1I 1_555 1_555
C2O C1I 1_555 1_555
H6O C2I 1_555 1_555
H6I C2I 1_555 1_555
C3O C2I 1_555 1_555
C3I C2I 1_555 1_555
C4O C2I 1_555 1_555
C4I C2I 1_555 1_555
H10O H6O 1_555 1_555
C3A C4I 1_555 1_555
C2A C3A 1_555 1_555
C1A C2A 1_555 1_555
O6A C1A 1_555 1_555
Co3A O6A 1_555 1_555
O1A Co3A 1_555 1_555
O2F Co3A 1_555 1_555
O2M Co3A 1_555 1_555
O3A Co3A 1_555 1_555
O4F Co3A 1_555 1_555
Co1F O1A 1_555 1_555
H4F O4F 1_555 1_555
O4M Co3A 1_555 1_555
Co1M O1A 1_555 1_555
H4M O4M 1_555 1_555
O7A C1A 1_555 1_555
C2G C3A 1_555 1_555
H6G C2A 1_555 1_555
H6A C2A 1_555 1_555
C3G C4O 1_555 1_555
C4A C3I 1_555 1_555
H7A C3A 1_555 1_555
H9A C3A 1_555 1_555
H8A C3A 1_555 1_555
C4G C3O 1_555 1_555
H10A H6A 1_555 1_555
H7O C3O 1_555 1_555
H9O C3O 1_555 1_555
H8O C3O 1_555 1_555
H10G H6G 1_555 1_555
H7I C3I 1_555 1_555
H9I C3I 1_555 1_555
H8I C3I 1_555 1_555
H10I H6I 1_555 1_555
H7G C3G 1_555 1_555
H9G C3G 1_555 1_555
H8G C3G 1_555 1_555
O2E_5 Co3I 1_555 1_555
O3I_3 Co1I_3 1_555 1_555
O4E_3 Co3I 1_555 1_555
O6I_2 Co3I 1_555 1_555
H2N O2N_3 1_555 1_555
H5I O5I_2 1_555 1_555
O5N_2 Co2_3 1_555 1_555
H5C O5C_2 1_555 1_555
O4D_4 Co3J_2 1_555 1_555
O6J Co3J_2 1_555 1_555
O6J_2 Co3J 1_555 1_555
H2D O2D 1_555 1_555
H5J O5J 1_555 1_555
O5O_3 Co2D 1_555 1_555
O5E_3 Co2D 1_555 1_555
H5D O5D 1_555 1_555
H5O_2 O5O 1_555 1_555
H5E_2 O5E 1_555 1_555
Co3E_3 O1E_2 1_555 1_555
H4O_2 O4O 1_555 1_555
Co3O O1O 1_555 1_555
H4E_2 O4E 1_555 1_555
H4J O4J 1_555 1_555
O4E_4 Co2D_2 1_555 1_555
O5D_3 Co2D_2 1_555 1_555
O5J_3 Co2D_2 1_555 1_555
H4D O4D 1_555 1_555
O6_2 Co3_2 1_555 1_555
O3_2 Co3 1_555 1_555
H2C O2C_2 1_555 1_555
H5_2 O5_2 1_555 1_555
O5C_3 Co2_2 1_555 1_555
H5C_2 O5C 1_555 1_555
H5I_2 O5I 1_555 1_555
O5I_3 Co2 1_555 1_555
O5N_3 Co2 1_555 1_555
H4I_2 O4I 1_555 1_555
O5O_4 Co1O 1_555 1_555
O5E_4 Co1O 1_555 1_555
Co3O_2 O2N 1_555 1_555
H2E_2 O2E 1_555 1_555
H2O_2 O2O 1_555 1_555
H3I_2 O1I 1_555 1_555
H4C O4C 1_555 1_555
H2N_2 O2N 1_555 1_555
H1I_2 O1I 1_555 1_555
H3J_2 O1J 1_555 1_555
H2C_2 O2C 1_555 1_555
H1J_2 O1J 1_555 1_555
C2D C1 1_555 1_555
H6D C2 1_555 1_555
C3D C2 1_555 1_555
C4D C2 1_555 1_555
C4H C3 1_555 1_555
C3H C4 1_555 1_555
H9D C4 1_555 1_555
H10D C4 1_555 1_555
O3C Co1_2 1_555 1_555
H2_3 O2_2 1_555 1_555
H5C_3 O5C_3 1_555 1_555
O1N Co1N 1_555 1_555
H2I_2 O2I_2 1_555 1_555
H5N_2 O5N_3 1_555 1_555
H2N_3 O2N_2 1_555 1_555
H5I_3 O5I_3 1_555 1_555
O3_3 O1_2 1_555 1_555
H4_2 O4_2 1_555 1_555
H4C_2 O4C_2 1_555 1_555
O1I_3 Co1I_2 1_555 1_555
O3N Co1I_2 1_555 1_555
H4N_2 O4N_2 1_555 1_555
O6O Co3O_2 1_555 1_555
Co1D_3 O2D_2 1_555 1_555
O1_3 O3_2 1_555 1_555
H3_2 O3_2 1_555 1_555
H1E_2 O1E_3 1_555 1_555
H3E_2 O1E_3 1_555 1_555
H1_2 O1_2 1_555 1_555
H3_3 O1_2 1_555 1_555
O2J_4 Co1J 1_555 1_555
O5J_4 Co1J 1_555 1_555
O5D_4 Co1J 1_555 1_555
Co1E_2 O5D_3 1_555 1_555
H5J_2 O5J_3 1_555 1_555
H2D_2 O2D_2 1_555 1_555
H5D_2 O5D_3 1_555 1_555
H2J_2 O2J_2 1_555 1_555
O2I_4 Co3E_3 1_555 1_555
O3E_4 Co3E_3 1_555 1_555
O4I_4 Co3E_3 1_555 1_555
O6E_3 Co3E_3 1_555 1_555
H1E_3 O1E_2 1_555 1_555
H3E_3 O1E_2 1_555 1_555
H1O O1O 1_555 1_555
H3O O1O 1_555 1_555
H2O_3 O2O_3 1_555 1_555
H4D_2 O4D_2 1_555 1_555
H4J_2 O4J_2 1_555 1_555
H2D_3 O2D_3 1_555 1_555
H5E_3 O5E_3 1_555 1_555
H5O_3 O5O_3 1_555 1_555
H2C_3 O2C_3 1_555 1_555
H5_3 O5_3 1_555 1_555
H1J_3 O1J_3 1_555 1_555
O3J_3 O1J_3 1_555 1_555
H3J_3 O1J_3 1_555 1_555
H3E_4 O3E_3 1_555 1_555
H4N_3 O4N_3 1_555 1_555
H4I_3 O4I_3 1_555 1_555
H2I_3 O2I_3 1_555 1_555
H5N_3 O5N_2 1_555 1_555
H4E_3 O4E_3 1_555 1_555
H5J_3 O5J_2 1_555 1_555
H5D_3 O5D_2 1_555 1_555
H2J_3 O2J_3 1_555 1_555
O3M_2 Co1G 1_555 1_555
H1A O1A 1_555 1_555
H3A O1A 1_555 1_555
H7D C3D 1_555 1_555
H8D C3D 1_555 1_555
C4L C3D 1_555 1_555
C3L C4D 1_555 1_555
C2L C4H 1_555 1_555
C2H C4H 1_555 1_555
H7L C3L 1_555 1_555
H8L C3L 1_555 1_555
H9L C4H 1_555 1_555
H6L C4H 1_555 1_555
H10L C4H 1_555 1_555
H6H C4L 1_555 1_555
H9H C3H 1_555 1_555
H10H C4L 1_555 1_555
H7H C3H 1_555 1_555
H8H C3H 1_555 1_555
Co2 O2C 1_555 1_555
Co2 O5C 1_555 1_555
Co2 O5 1_555 1_555
Co3 O4C 1_555 1_555
O1 O3 1_555 1_555
O2 O5C 1_555 1_555
O3 Co1D 1_555 1_555
O3 H3 1_555 1_555
O5 O2C 1_555 1_555
C2 C2D 1_555 1_555
H6 C2D 1_555 1_555
H6 C4D 1_555 1_555
C3 C2D 1_555 1_555
C3 C4D 1_555 1_555
H7 H9 1_555 1_555
C4 C2D 1_555 1_555
C4 H6D 1_555 1_555
C4 C3D 1_555 1_555
H9 C4D 1_555 1_555
H10 C4D 1_555 1_555
Co1D O1J 1_555 1_555
Co1D O3J 1_555 1_555
Co1D O4J 1_555 1_555
O1J O3J 1_555 1_555
O2C Co3_2 1_555 1_555
O2D Co3J 1_555 1_555
O2D O5J 1_555 1_555
Co2D O2J 1_555 1_555
Co2D O5D 1_555 1_555
Co2D O5J 1_555 1_555
O2J O5D 1_555 1_555
O2J Co3_2 1_555 1_555
O3J H3J_2 1_555 1_555
O3J Co3J 1_555 1_555
Co2_2 O2C_2 1_555 1_555
Co2_2 O4C 1_555 1_555
Co2_2 O5N 1_555 1_555
Co2_2 O5I 1_555 1_555
O2_2 O5C_3 1_555 1_555
O2C_2 O5_2 1_555 1_555
O2C_2 Co1_2 1_555 1_555
O2I Co1I 1_555 1_555
O2I O5N 1_555 1_555
Co1I O2N 1_555 1_555
Co1I O4I 1_555 1_555
Co1I O5I 1_555 1_555
Co1I O5N 1_555 1_555
Co1I O4N 1_555 1_555
Co1I O5C 1_555 1_555
O1I O3I 1_555 1_555
Co1O O1E 1_555 1_555
Co1O O3E 1_555 1_555
Co1O O3I 1_555 1_555
O1E O3E 1_555 1_555
O2N O5I 1_555 1_555
O3I H3I_2 1_555 1_555
O3I Co3O_2 1_555 1_555
O2O Co3E_2 1_555 1_555
O2O O5E_4 1_555 1_555
Co2O O2E 1_555 1_555
O2E Co3O_2 1_555 1_555
O2E O5O_4 1_555 1_555
O3E Co3E_2 1_555 1_555
O3E H3E 1_555 1_555
O4I Co3E 1_555 1_555
O2I_2 Co3E 1_555 1_555
O2I_2 O5N_3 1_555 1_555
O2N_2 Co3I_2 1_555 1_555
O2N_2 Co1N 1_555 1_555
O2N_2 O5I_3 1_555 1_555
O4_2 Co3J 1_555 1_555
O4C_2 Co3_2 1_555 1_555
O4C_2 Co1C 1_555 1_555
O4N Co3I_2 1_555 1_555
O4I_2 Co3E_2 1_555 1_555
O4N_2 Co1I_2 1_555 1_555
O4N_2 Co3O_2 1_555 1_555
O5_2 Co1_2 1_555 1_555
O5_2 Co1I_2 1_555 1_555
Co1_2 O3_2 1_555 1_555
Co1_2 O5C_3 1_555 1_555
Co1I_2 O5C_3 1_555 1_555
Co3_2 O4J_2 1_555 1_555
O1_2 Co1C 1_555 1_555
Co2D_2 O2J_2 1_555 1_555
Co2D_2 O4J 1_555 1_555
Co2D_2 O5O 1_555 1_555
Co2D_2 O5E 1_555 1_555
O2D_2 O5J_3 1_555 1_555
O2J_2 O5D_3 1_555 1_555
O2J_2 Co1D_3 1_555 1_555
O2O_2 Co1E 1_555 1_555
O2O_2 O5E 1_555 1_555
O2E_2 Co1E 1_555 1_555
O2E_2 O5O 1_555 1_555
O5J Co1E 1_555 1_555
Co1E O4E 1_555 1_555
Co1E O5E 1_555 1_555
Co1E O4O 1_555 1_555
Co1E O5O 1_555 1_555
O1E_2 O3E_2 1_555 1_555
O1O O3O 1_555 1_555
O3E_2 H3E_3 1_555 1_555
O3O H3O 1_555 1_555
O4E Co3O 1_555 1_555
O2O_3 Co3E_3 1_555 1_555
O4D_2 Co3J 1_555 1_555
O4D_2 Co1J 1_555 1_555
O4J_2 Co1J 1_555 1_555
O4O Co3E_3 1_555 1_555
O1J_2 Co1J 1_555 1_555
O1J_2 Co1C 1_555 1_555
Co1J O3J_2 1_555 1_555
Co1J O5E_3 1_555 1_555
Co1J O5O_3 1_555 1_555
Co1J O3_3 1_555 1_555
Co1C O3_3 1_555 1_555
Co1C O3J_2 1_555 1_555
Co1C O5N_3 1_555 1_555
Co1C O5I_3 1_555 1_555
H1J H3J 1_555 1_555
H3J O3J_2 1_555 1_555
Co3J_2 O2D_3 1_555 1_555
Co3J_2 O2_3 1_555 1_555
O2_3 O5C_2 1_555 1_555
Co2_3 O2C_3 1_555 1_555
Co2_3 O4_3 1_555 1_555
Co2_3 O5_3 1_555 1_555
Co2_3 O5C_2 1_555 1_555
O5C_2 Co1N 1_555 1_555
Co1N O4N_3 1_555 1_555
Co1N O4I_3 1_555 1_555
Co1N O5N_3 1_555 1_555
Co1N O5I_3 1_555 1_555
Co1N O5_3 1_555 1_555
O2C_3 O5_3 1_555 1_555
O2I_3 O5N_2 1_555 1_555
O2N_3 O5I_2 1_555 1_555
O2N_3 Co1I_3 1_555 1_555
O4N_3 Co3I 1_555 1_555
O5I_2 Co1I_3 1_555 1_555
O5I_2 Co1_3 1_555 1_555
Co1I_3 O5N_2 1_555 1_555
Co1_3 O5N_2 1_555 1_555
Co3I O1I_2 1_555 1_555
Co3I O3I_3 1_555 1_555
O1I_2 O3I_2 1_555 1_555
Co1O_2 O3I_2 1_555 1_555
Co1O_2 O3E_3 1_555 1_555
Co1O_2 O4E_3 1_555 1_555
H1I H3I 1_555 1_555
H3I O3I_2 1_555 1_555
O3I_2 Co3I_2 1_555 1_555
Co3I_2 O2E_4 1_555 1_555
Co3I_2 O4E_2 1_555 1_555
O2E_4 O5O_2 1_555 1_555
Co1D_2 O5E_2 1_555 1_555
Co2O_2 O4O_2 1_555 1_555
Co2O_2 O4E_2 1_555 1_555
Co2O_2 O5E_2 1_555 1_555
Co2O_2 O5D_2 1_555 1_555
Co2O_2 O5J_2 1_555 1_555
O2D_4 O5J_2 1_555 1_555
O2J_3 O5D_2 1_555 1_555
O4O_2 Co3E 1_555 1_555
O5E_2 O2O_4 1_555 1_555
O2O_4 Co3E 1_555 1_555
Co3E O3E_3 1_555 1_555
H1E H3E 1_555 1_555
Co3E_2 O1E_3 1_555 1_555
Co3E_2 O4O_3 1_555 1_555
O1E_3 O3N 1_555 1_555
O4O_3 Co1O_3 1_555 1_555
C2E C2N 1_555 1_555
C2N H6N 1_555 1_555
C2N C3N 1_555 1_555
C2N C4N 1_555 1_555
C2N H6E 1_555 1_555
C2N C3E 1_555 1_555
C2N C4E 1_555 1_555
H6N C4E 1_555 1_555
H6E C4N 1_555 1_555
C3N C4E 1_555 1_555
C3E C4N 1_555 1_555
C4N H10E 1_555 1_555
C4N H9E 1_555 1_555
C4E H10N 1_555 1_555
C4E H9N 1_555 1_555
C3M C4F 1_555 1_555
C2M C4M 1_555 1_555
C2M C2F 1_555 1_555
C2M C3F 1_555 1_555
C2M C4F 1_555 1_555
C1M C2F 1_555 1_555
O4G Co1G 1_555 1_555
C2F H6F 1_555 1_555
C2F C3F 1_555 1_555
C2F H6M 1_555 1_555
C2F C4M 1_555 1_555
C2F C4F 1_555 1_555
H6F C4M 1_555 1_555
H6M C4F 1_555 1_555
C3F C4M 1_555 1_555
C4M H10F 1_555 1_555
C4M H9F 1_555 1_555
H7M H9M 1_555 1_555
H9M C4F 1_555 1_555
C4F H10M 1_555 1_555
H7N H9N 1_555 1_555
H7E H9E 1_555 1_555
H7F H9F 1_555 1_555
C2I C2O 1_555 1_555
C2O H6O 1_555 1_555
C2O C3O 1_555 1_555
C2O C4O 1_555 1_555
C2O H6I 1_555 1_555
C2O C3I 1_555 1_555
C2O C4I 1_555 1_555
H6O C4I 1_555 1_555
H6I C4O 1_555 1_555
C3O C4I 1_555 1_555
C3I C4O 1_555 1_555
C4O H10I 1_555 1_555
C4O H9I 1_555 1_555
C4I H10O 1_555 1_555
C4I H9O 1_555 1_555
C3A C4G 1_555 1_555
C2A C4A 1_555 1_555
C2A C2G 1_555 1_555
C2A C3G 1_555 1_555
C2A C4G 1_555 1_555
C1A C2G 1_555 1_555
O4F Co1F 1_555 1_555
O4M Co1M 1_555 1_555
C2G H6G 1_555 1_555
C2G C3G 1_555 1_555
C2G H6A 1_555 1_555
C2G C4A 1_555 1_555
C2G C4G 1_555 1_555
H6G C4A 1_555 1_555
H6A C4G 1_555 1_555
C3G C4A 1_555 1_555
C4A H10G 1_555 1_555
C4A H9G 1_555 1_555
H7A H9A 1_555 1_555
H9A C4G 1_555 1_555
C4G H10A 1_555 1_555
H7O H9O 1_555 1_555
H7I H9I 1_555 1_555
H7G H9G 1_555 1_555
O5D_3 Co1D_3 1_555 1_555
O5J_3 Co1E_2 1_555 1_555
O5J_3 Co1D_3 1_555 1_555
O3_2 Co1D_3 1_555 1_555
H3I_2 H1I_2 1_555 1_555
H3J_2 H1J_2 1_555 1_555
C2D H6D 1_555 1_555
C2D C3D 1_555 1_555
C2D C4D 1_555 1_555
H6D H10D 1_555 1_555
C3D H9D 1_555 1_555
C4H C3L 1_555 1_555
C3H C4L 1_555 1_555
C3H C2H 1_555 1_555
C3H C2L 1_555 1_555
H9D H7D 1_555 1_555
O3_3 H3_3 1_555 1_555
H1E_2 H3E_2 1_555 1_555
H1_2 H3_3 1_555 1_555
H1E_3 H3E_3 1_555 1_555
H1O H3O 1_555 1_555
H1J_3 H3J_3 1_555 1_555
O3J_3 H3J_3 1_555 1_555
H1A H3A 1_555 1_555
C4L H9H 1_555 1_555
C4L C2L 1_555 1_555
C4L C2H 1_555 1_555
C3L C2L 1_555 1_555
C3L C2H 1_555 1_555
C3L H9L 1_555 1_555

#END
