
#######################################################################
#
#                 Cambridge Crystallographic Data Centre
#                                CCDC 
#
#######################################################################
#
# If this CIF has been generated from an entry in the Cambridge 
# Structural Database, then it will include bibliographic, chemical, 
# crystal, experimental, refinement or atomic coordinate data resulting 
# from the CCDC's data processing and validation procedures.
#
#######################################################################

data_OBENAL01
_chemical_formula_moiety         'C9 H16 Co9 O27'
_symmetry_cell_setting           orthorhombic
_symmetry_space_group_name_H-M   'I m m a'
_symmetry_Int_Tables_number      74
_space_group_name_Hall           '-I 2b 2'
loop_
_symmetry_equiv_pos_site_id
_symmetry_equiv_pos_as_xyz
1 x,y,z
2 1/2+x,1/2+y,1/2+z
3 x,1/2+y,-z
4 x,1/2-y,z
5 -x,y,z
6 1/2+x,y,1/2-z
7 1/2+x,-y,1/2+z
8 1/2-x,1/2+y,1/2+z
9 -x,-y,-z
10 1/2-x,1/2-y,1/2-z
11 -x,1/2-y,z
12 -x,1/2+y,-z
13 x,-y,-z
14 1/2-x,-y,1/2+z
15 1/2-x,y,1/2-z
16 1/2+x,1/2-y,1/2-z
_cell_length_a                   12.456(3)
_cell_length_b                   29.027(7)
_cell_length_c                   5.3996(13)
_cell_angle_alpha                90
_cell_angle_beta                 90
_cell_angle_gamma                90
_cell_volume                     1952.28
loop_
_atom_site_label
_atom_site_type_symbol
_atom_site_fract_x
_atom_site_fract_y
_atom_site_fract_z
Co1 Co 0.37551(9) 0.7500 0.2454(2)
Co2 Co 0.2500 0.7500 0.7500
Co3 Co 0.5000 0.80905(4) -0.2576(2)
O1 O 0.5000 0.7938(5) 0.103(3)
H1 H 0.5000 0.8173 0.1797
O2 O 0.3683(7) 0.7065(3) 0.5739(17)
H2 H 0.3393 0.6829 0.5359
O3 O 0.5000 0.7882(4) 0.388(2)
H3 H 0.5000 0.8114 0.3085
O4 O 0.3705(7) 0.7095(3) -0.0802(17)
H4 H 0.3415 0.6860 -0.0412
O5 O 0.2518(8) 0.7854(3) 0.4187(18)
H5 H 0.2519 0.8130 0.4192
O6 O 0.5000 0.8786(3) -0.2627(13)
O7 O 0.5000 0.8807(3) -0.6736(18)
C1 C 0.5000 0.8997(4) -0.472(3)
C2 C 0.4779(12) 0.9518(5) -0.452(3)
H6 H 0.4309 0.9558 -0.3038
C3 C 0.4236(18) 0.9744(7) -0.652(4)
H7 H 0.3512 0.9608 -0.6711
H8 H 0.4636 0.9687 -0.8078
C4 C 0.5880(18) 0.9740(7) -0.383(4)
H9 H 0.3594 0.9679 -0.5168
H10 H 0.3846 0.9599 -0.2289
O1C O 0.5000 0.7062(5) 0.103(3)
O2C O 0.3683(7) 0.7935(3) 0.5739(17)
O3C O 0.5000 0.7118(4) 0.388(2)
O4C O 0.3705(7) 0.7905(3) -0.0802(17)
O5C O 0.2518(8) 0.7146(3) 0.4187(18)
O5I O 0.2482(8) 0.7146(3) 0.0813(18)
O5N O 0.2482(8) 0.7854(3) 0.0813(18)
O2I O 0.1317(7) 0.7935(3) 0.9261(17)
O2N O 0.1317(7) 0.7065(3) 0.9261(17)
O4_2 O 0.3705(7) 0.7095(3) 0.9198(17)
O4C_2 O 0.3705(7) 0.7905(3) 0.9198(17)
O4I O 0.1295(7) 0.7905(3) 0.5802(17)
O4N O 0.1295(7) 0.7095(3) 0.5802(17)
O5I_2 O 0.2482(8) 0.7146(3) 1.0813(18)
O5N_2 O 0.2482(8) 0.7854(3) 1.0813(18)
O2C_2 O 0.3683(7) 0.7935(3) -0.4261(17)
O2J O 0.6317(7) 0.7935(3) -0.4261(17)
O3_2 O 0.5000 0.7882(4) -0.612(2)
O4J O 0.6295(7) 0.7905(3) -0.0802(17)
Co1D Co 0.62449(9) 0.7500 0.2454(2)
Co3C Co 0.5000 0.69095(4) 0.7424(2)
Co3_2 Co 0.5000 0.80905(4) 0.7424(2)
Co2_2 Co 0.2500 0.7500 -0.2500
Co3C_2 Co 0.5000 0.69095(4) -0.2576(2)
Co1I Co 0.12449(9) 0.7500 0.2546(2)
C2D C 0.5221(12) 0.9518(5) -0.452(3)
C4D C 0.4120(18) 0.9740(7) -0.383(4)
C4H C 0.4120(18) 1.0260(7) -0.617(4)
H9D H 0.6406 0.9679 -0.5168
H10D H 0.6154 0.9599 -0.2289
H6D H 0.5691 0.9558 -0.3038
C3H C 0.5764(18) 1.0256(7) -0.348(4)
C3D C 0.5764(18) 0.9744(7) -0.652(4)
O8 O 0.7088(5) 0.8835(2) 0.0052(13)
H11 H 0.649(4) 0.881(4) 0.046(17)
H12 H 0.706(11) 0.879(7) -0.138(11)
H13 H 0.735(10) 0.884(7) 0.143(15)
loop_
_geom_bond_atom_site_label_1
_geom_bond_atom_site_label_2
_geom_bond_site_symmetry_1
_geom_bond_site_symmetry_2
Co1 O1 1_555 1_555
Co2 O2 1_555 1_555
Co3 O1 1_555 1_555
O1 H1 1_555 1_555
H1 H3 1_555 1_555
O2 Co1 1_555 1_555
H2 O2 1_555 1_555
O3 Co1 1_555 1_555
H3 O1 1_555 1_555
O4 Co1 1_555 1_555
H4 O4 1_555 1_555
O5 Co1 1_555 1_555
H5 O5 1_555 1_555
O6 Co3 1_555 1_555
O7 C1 1_555 1_555
C1 O6 1_555 1_555
C2 C1 1_555 1_555
H6 C2 1_555 1_555
C3 C2 1_555 1_555
H7 C3 1_555 1_555
H8 C3 1_555 1_555
C4 C2 1_555 1_555
H9 C3 1_555 1_555
H10 H6 1_555 1_555
O8 H11 1_555 1_555
H12 O8 1_555 1_555
H13 O8 1_555 1_555
O1C Co1 1_555 1_555
O2C Co1 1_555 1_555
O3C Co1 1_555 1_555
O4C Co1 1_555 1_555
O5C Co1 1_555 1_555
O5I Co1 1_555 1_555
O5N Co1 1_555 1_555
O2I Co2 1_555 1_555
O2N Co2 1_555 1_555
O4_2 Co2 1_555 1_555
O4C_2 Co2 1_555 1_555
O4I Co2 1_555 1_555
O4N Co2 1_555 1_555
O5I_2 Co2 1_555 1_555
O5N_2 Co2 1_555 1_555
O2C_2 Co3 1_555 1_555
O2J Co3 1_555 1_555
O3_2 Co3 1_555 1_555
O4J Co3 1_555 1_555
Co1D O1 1_555 1_555
Co3C O2 1_555 1_555
Co3_2 O3 1_555 1_555
Co2_2 O4 1_555 1_555
Co3C_2 O4 1_555 1_555
Co1I O5 1_555 1_555
C2D C1 1_555 1_555
C4D C2 1_555 1_555
C4H C3 1_555 1_555
H9D C4 1_555 1_555
H10D C4 1_555 1_555
H6D C4 1_555 1_555
C3H C4 1_555 1_555
C3D C4 1_555 1_555
Co2 O2C 1_555 1_555
Co2 O5 1_555 1_555
Co2 O5C 1_555 1_555
Co3 O4C 1_555 1_555
O1 O3 1_555 1_555
O2 O5C 1_555 1_555
O3 H3 1_555 1_555
O3 Co1D 1_555 1_555
O5 O2C 1_555 1_555
C2 C2D 1_555 1_555
H6 C4D 1_555 1_555
C3 C4D 1_555 1_555
C4 C2D 1_555 1_555
H9 C4D 1_555 1_555
H10 C4D 1_555 1_555
O1C O3C 1_555 1_555
O1C Co1D 1_555 1_555
O1C Co3C_2 1_555 1_555
O2C Co3_2 1_555 1_555
O3C Co1D 1_555 1_555
O3C Co3C 1_555 1_555
O4C Co2_2 1_555 1_555
O5C Co1I 1_555 1_555
O5I Co1I 1_555 1_555
O5I Co2_2 1_555 1_555
O5N Co1I 1_555 1_555
O5N Co2_2 1_555 1_555
O2I O5N_2 1_555 1_555
O2N O5I_2 1_555 1_555
O4_2 Co3C 1_555 1_555
O4C_2 Co3_2 1_555 1_555
O4I Co1I 1_555 1_555
O4N Co1I 1_555 1_555
O2C_2 Co2_2 1_555 1_555
O4J Co1D 1_555 1_555
C2D H6D 1_555 1_555
C2D C3D 1_555 1_555
C2D C4D 1_555 1_555
H9D C3D 1_555 1_555
H10D H6D 1_555 1_555

#END
