
#######################################################################
#
#                 Cambridge Crystallographic Data Centre
#                                CCDC 
#
#######################################################################
#
# If this CIF has been generated from an entry in the Cambridge 
# Structural Database, then it will include bibliographic, chemical, 
# crystal, experimental, refinement or atomic coordinate data resulting 
# from the CCDC's data processing and validation procedures.
#
#######################################################################

data_NACZUP01
_chemical_formula_moiety         'C186 N24 O19 Zn10'
_symmetry_cell_setting           cubic
_symmetry_space_group_name_H-M   'P -4 3 m'
_symmetry_Int_Tables_number      215
_space_group_name_Hall           'P -4 2 3'
loop_
_symmetry_equiv_pos_site_id
_symmetry_equiv_pos_as_xyz
1 x,y,z
2 -x,y,-z
3 -x,-y,z
4 x,-y,-z
5 y,-x,-z
6 -y,x,-z
7 -y,-x,z
8 y,x,z
9 z,x,y
10 y,z,x
11 z,y,x
12 x,z,y
13 -z,-x,y
14 z,-x,-y
15 -z,x,-y
16 y,-z,-x
17 -y,z,-x
18 -y,-z,x
19 x,-z,-y
20 -x,z,-y
21 -x,-z,y
22 z,-y,-x
23 -z,-y,x
24 -z,y,-x
_cell_length_a                   17.20(5)
_cell_length_b                   17.20(5)
_cell_length_c                   17.20(5)
_cell_angle_alpha                90
_cell_angle_beta                 90
_cell_angle_gamma                90
_cell_volume                     5088.45
loop_
_atom_site_label
_atom_site_type_symbol
_atom_site_fract_x
_atom_site_fract_y
_atom_site_fract_z
_atom_site_U_iso_or_equiv
_atom_site_thermal_displace_type
Zn1 Zn 0.56546(9) 0.43454(9) 0.43454(9) 0.1262 Uiso
O1 O 0.5459(5) 0.3254(5) 0.4541(5) 0.1690 Uiso
O2 O 0.5000 0.5000 0.5000 0.1030 Uiso
C1 C 0.5000 0.2886(16) 0.5000 0.1710 Uiso
C2 C 0.5000 0.2076(12) 0.5000 0.1940 Uiso
C3 C 0.530(2) 0.1675(10) 0.4379(17) 0.2100 Uiso
C4 C 0.532(3) 0.0863(13) 0.436(2) 0.2300 Uiso
C5 C 0.5000 0.0452(15) 0.5000 0.2550 Uiso
N1 N 0.559(5) 0.046(2) 0.367(2) 0.3700 Uiso
C6 C 0.5443(8) -0.002(9) 0.312(7) 0.6600 Uiso
C7 C 0.601(3) -0.029(5) 0.249(5) 0.6600 Uiso
C8 C 0.574(4) -0.046(6) 0.175(6) 0.6600 Uiso
C9 C 0.731(2) -0.060(5) 0.209(6) 0.6600 Uiso
C10 C 0.680(2) -0.036(4) 0.266(5) 0.6600 Uiso
O1A O 0.4541(5) 0.3254(5) 0.5459(5) 0.1690 Uiso
C3A C 0.470(2) 0.1675(10) 0.5621(17) 0.2100 Uiso
C4A C 0.468(3) 0.0863(13) 0.564(2) 0.2300 Uiso
N1A N 0.441(5) 0.046(2) 0.633(2) 0.3700 Uiso
C6A C 0.4557(8) -0.002(9) 0.688(7) 0.6600 Uiso
C7A C 0.399(3) -0.029(5) 0.751(5) 0.6600 Uiso
C8A C 0.426(4) -0.046(6) 0.825(6) 0.6600 Uiso
C9A C 0.269(2) -0.060(5) 0.791(6) 0.6600 Uiso
C10A C 0.320(2) -0.036(4) 0.734(5) 0.6600 Uiso
O1B O 0.4541(5) -0.3254(5) 0.4541(5) 0.1690 Uiso
C1B C 0.5000 -0.2886(16) 0.5000 0.1710 Uiso
C2B C 0.5000 -0.2076(12) 0.5000 0.1940 Uiso
C3B C 0.470(2) -0.1675(10) 0.4379(17) 0.2100 Uiso
C4B C 0.468(3) -0.0863(13) 0.436(2) 0.2300 Uiso
C5B C 0.5000 -0.0452(15) 0.5000 0.2550 Uiso
N1B N 0.441(5) -0.046(2) 0.367(2) 0.3700 Uiso
C6B C 0.4557(8) 0.002(9) 0.312(7) 0.6600 Uiso
C7B C 0.399(3) 0.029(5) 0.249(5) 0.6600 Uiso
C8B C 0.426(4) 0.046(6) 0.175(6) 0.6600 Uiso
C9B C 0.269(2) 0.060(5) 0.209(6) 0.6600 Uiso
C10B C 0.320(2) 0.036(4) 0.266(5) 0.6600 Uiso
O1C O 0.5459(5) -0.3254(5) 0.5459(5) 0.1690 Uiso
C3C C 0.530(2) -0.1675(10) 0.5621(17) 0.2100 Uiso
C4C C 0.532(3) -0.0863(13) 0.564(2) 0.2300 Uiso
N1C N 0.559(5) -0.046(2) 0.633(2) 0.3700 Uiso
C6C C 0.5443(8) 0.002(9) 0.688(7) 0.6600 Uiso
C7C C 0.601(3) 0.029(5) 0.751(5) 0.6600 Uiso
C8C C 0.574(4) 0.046(6) 0.825(6) 0.6600 Uiso
C9C C 0.731(2) 0.060(5) 0.791(6) 0.6600 Uiso
C10C C 0.680(2) 0.036(4) 0.734(5) 0.6600 Uiso
C3J C 0.4379(17) 0.1675(10) 0.530(2) 0.2100 Uiso
C4J C 0.436(2) 0.0863(13) 0.532(3) 0.2300 Uiso
N1J N 0.367(2) 0.046(2) 0.559(5) 0.3700 Uiso
C6J C 0.312(7) -0.002(9) 0.5443(8) 0.6600 Uiso
C7J C 0.249(5) -0.029(5) 0.601(3) 0.6600 Uiso
C8J C 0.175(6) -0.046(6) 0.574(4) 0.6600 Uiso
C9J C 0.209(6) -0.060(5) 0.731(2) 0.6600 Uiso
C10J C 0.266(5) -0.036(4) 0.680(2) 0.6600 Uiso
C3U C 0.4379(17) -0.1675(10) 0.470(2) 0.2100 Uiso
C4U C 0.436(2) -0.0863(13) 0.468(3) 0.2300 Uiso
N1U N 0.367(2) -0.046(2) 0.441(5) 0.3700 Uiso
C6U C 0.312(7) 0.002(9) 0.4557(8) 0.6600 Uiso
C7U C 0.249(5) 0.029(5) 0.399(3) 0.6600 Uiso
C8U C 0.175(6) 0.046(6) 0.426(4) 0.6600 Uiso
C9U C 0.209(6) 0.060(5) 0.269(2) 0.6600 Uiso
C10U C 0.266(5) 0.036(4) 0.320(2) 0.6600 Uiso
C3V C 0.5621(17) -0.1675(10) 0.530(2) 0.2100 Uiso
C4V C 0.564(2) -0.0863(13) 0.532(3) 0.2300 Uiso
N1V N 0.633(2) -0.046(2) 0.559(5) 0.3700 Uiso
C6V C 0.688(7) 0.002(9) 0.5443(8) 0.6600 Uiso
C7V C 0.751(5) 0.029(5) 0.601(3) 0.6600 Uiso
C8V C 0.825(6) 0.046(6) 0.574(4) 0.6600 Uiso
C9V C 0.791(6) 0.060(5) 0.731(2) 0.6600 Uiso
C10V C 0.734(5) 0.036(4) 0.680(2) 0.6600 Uiso
C3W C 0.5621(17) 0.1675(10) 0.470(2) 0.2100 Uiso
C4W C 0.564(2) 0.0863(13) 0.468(3) 0.2300 Uiso
N1W N 0.633(2) 0.046(2) 0.441(5) 0.3700 Uiso
C6W C 0.688(7) -0.002(9) 0.4557(8) 0.6600 Uiso
C7W C 0.751(5) -0.029(5) 0.399(3) 0.6600 Uiso
C8W C 0.825(6) -0.046(6) 0.426(4) 0.6600 Uiso
C9W C 0.791(6) -0.060(5) 0.269(2) 0.6600 Uiso
C10W C 0.734(5) -0.036(4) 0.320(2) 0.6600 Uiso
Zn1A Zn 0.43454(9) 0.43454(9) 0.56546(9) 0.1262 Uiso
Zn1B Zn 0.43454(9) 0.56546(9) 0.43454(9) 0.1262 Uiso
O1B_2 O 0.4541(5) 0.6746(5) 0.4541(5) 0.1690 Uiso
C1B_2 C 0.5000 0.7114(16) 0.5000 0.1710 Uiso
C2B_2 C 0.5000 0.7924(12) 0.5000 0.1940 Uiso
C3B_2 C 0.470(2) 0.8325(10) 0.4379(17) 0.2100 Uiso
C4B_2 C 0.468(3) 0.9137(13) 0.436(2) 0.2300 Uiso
C5B_2 C 0.5000 0.9548(15) 0.5000 0.2550 Uiso
N1B_2 N 0.441(5) 0.954(2) 0.367(2) 0.3700 Uiso
C6B_2 C 0.4557(8) 1.002(9) 0.312(7) 0.6600 Uiso
C7B_2 C 0.399(3) 1.029(5) 0.249(5) 0.6600 Uiso
C8B_2 C 0.426(4) 1.046(6) 0.175(6) 0.6600 Uiso
C9B_2 C 0.269(2) 1.060(5) 0.209(6) 0.6600 Uiso
C10B_2 C 0.320(2) 1.036(4) 0.266(5) 0.6600 Uiso
O1C_2 O 0.5459(5) 0.6746(5) 0.5459(5) 0.1690 Uiso
C3C_2 C 0.530(2) 0.8325(10) 0.5621(17) 0.2100 Uiso
C4C_2 C 0.532(3) 0.9137(13) 0.564(2) 0.2300 Uiso
N1C_2 N 0.559(5) 0.954(2) 0.633(2) 0.3700 Uiso
C6C_2 C 0.5443(8) 1.002(9) 0.688(7) 0.6600 Uiso
C7C_2 C 0.601(3) 1.029(5) 0.751(5) 0.6600 Uiso
C8C_2 C 0.574(4) 1.046(6) 0.825(6) 0.6600 Uiso
C9C_2 C 0.731(2) 1.060(5) 0.791(6) 0.6600 Uiso
C10C_2 C 0.680(2) 1.036(4) 0.734(5) 0.6600 Uiso
O1_2 O 0.5459(5) 1.3254(5) 0.4541(5) 0.1690 Uiso
C1_2 C 0.5000 1.2886(16) 0.5000 0.1710 Uiso
C2_2 C 0.5000 1.2076(12) 0.5000 0.1940 Uiso
C3_2 C 0.530(2) 1.1675(10) 0.4379(17) 0.2100 Uiso
C4_2 C 0.532(3) 1.0863(13) 0.436(2) 0.2300 Uiso
C5_2 C 0.5000 1.0452(15) 0.5000 0.2550 Uiso
N1_2 N 0.559(5) 1.046(2) 0.367(2) 0.3700 Uiso
C6_2 C 0.5443(8) 0.998(9) 0.312(7) 0.6600 Uiso
C7_2 C 0.601(3) 0.971(5) 0.249(5) 0.6600 Uiso
C8_2 C 0.574(4) 0.954(6) 0.175(6) 0.6600 Uiso
C9_2 C 0.731(2) 0.940(5) 0.209(6) 0.6600 Uiso
C10_2 C 0.680(2) 0.964(4) 0.266(5) 0.6600 Uiso
O1A_2 O 0.4541(5) 1.3254(5) 0.5459(5) 0.1690 Uiso
C3A_2 C 0.470(2) 1.1675(10) 0.5621(17) 0.2100 Uiso
C4A_2 C 0.468(3) 1.0863(13) 0.564(2) 0.2300 Uiso
N1A_2 N 0.441(5) 1.046(2) 0.633(2) 0.3700 Uiso
C6A_2 C 0.4557(8) 0.998(9) 0.688(7) 0.6600 Uiso
C7A_2 C 0.399(3) 0.971(5) 0.751(5) 0.6600 Uiso
C8A_2 C 0.426(4) 0.954(6) 0.825(6) 0.6600 Uiso
C9A_2 C 0.269(2) 0.940(5) 0.791(6) 0.6600 Uiso
C10A_2 C 0.320(2) 0.964(4) 0.734(5) 0.6600 Uiso
C3V_2 C 0.5621(17) 0.8325(10) 0.530(2) 0.2100 Uiso
C4V_2 C 0.564(2) 0.9137(13) 0.532(3) 0.2300 Uiso
N1V_2 N 0.633(2) 0.954(2) 0.559(5) 0.3700 Uiso
C6V_2 C 0.688(7) 1.002(9) 0.5443(8) 0.6600 Uiso
C7V_2 C 0.751(5) 1.029(5) 0.601(3) 0.6600 Uiso
C8V_2 C 0.825(6) 1.046(6) 0.574(4) 0.6600 Uiso
C9V_2 C 0.791(6) 1.060(5) 0.731(2) 0.6600 Uiso
C10V_2 C 0.734(5) 1.036(4) 0.680(2) 0.6600 Uiso
C3W_2 C 0.5621(17) 1.1675(10) 0.470(2) 0.2100 Uiso
C4W_2 C 0.564(2) 1.0863(13) 0.468(3) 0.2300 Uiso
N1W_2 N 0.633(2) 1.046(2) 0.441(5) 0.3700 Uiso
C6W_2 C 0.688(7) 0.998(9) 0.4557(8) 0.6600 Uiso
C7W_2 C 0.751(5) 0.971(5) 0.399(3) 0.6600 Uiso
C8W_2 C 0.825(6) 0.954(6) 0.426(4) 0.6600 Uiso
C9W_2 C 0.791(6) 0.940(5) 0.269(2) 0.6600 Uiso
C10W_2 C 0.734(5) 0.964(4) 0.320(2) 0.6600 Uiso
C3J_2 C 0.4379(17) 1.1675(10) 0.530(2) 0.2100 Uiso
C4J_2 C 0.436(2) 1.0863(13) 0.532(3) 0.2300 Uiso
N1J_2 N 0.367(2) 1.046(2) 0.559(5) 0.3700 Uiso
C6J_2 C 0.312(7) 0.998(9) 0.5443(8) 0.6600 Uiso
C7J_2 C 0.249(5) 0.971(5) 0.601(3) 0.6600 Uiso
C8J_2 C 0.175(6) 0.954(6) 0.574(4) 0.6600 Uiso
C9J_2 C 0.209(6) 0.940(5) 0.731(2) 0.6600 Uiso
C10J_2 C 0.266(5) 0.964(4) 0.680(2) 0.6600 Uiso
C3U_2 C 0.4379(17) 0.8325(10) 0.470(2) 0.2100 Uiso
C4U_2 C 0.436(2) 0.9137(13) 0.468(3) 0.2300 Uiso
N1U_2 N 0.367(2) 0.954(2) 0.441(5) 0.3700 Uiso
C6U_2 C 0.312(7) 1.002(9) 0.4557(8) 0.6600 Uiso
C7U_2 C 0.249(5) 1.029(5) 0.399(3) 0.6600 Uiso
C8U_2 C 0.175(6) 1.046(6) 0.426(4) 0.6600 Uiso
C9U_2 C 0.209(6) 1.060(5) 0.269(2) 0.6600 Uiso
C10U_2 C 0.266(5) 1.036(4) 0.320(2) 0.6600 Uiso
Zn1C Zn 0.56546(9) 0.56546(9) 0.56546(9) 0.1262 Uiso
O1F O 0.6746(5) 0.4541(5) 0.4541(5) 0.1690 Uiso
C1E C 0.7114(16) 0.5000 0.5000 0.1710 Uiso
C2E C 0.7924(12) 0.5000 0.5000 0.1940 Uiso
C3F C 0.8325(10) 0.470(2) 0.4379(17) 0.2100 Uiso
C4F C 0.9137(13) 0.468(3) 0.436(2) 0.2300 Uiso
C5E C 0.9548(15) 0.5000 0.5000 0.2550 Uiso
N1F N 0.954(2) 0.441(5) 0.367(2) 0.3700 Uiso
C6F C 1.002(9) 0.4557(8) 0.312(7) 0.6600 Uiso
C7F C 1.029(5) 0.399(3) 0.249(5) 0.6600 Uiso
C8F C 1.046(6) 0.426(4) 0.175(6) 0.6600 Uiso
C9F C 1.060(5) 0.269(2) 0.209(6) 0.6600 Uiso
C10F C 1.036(4) 0.320(2) 0.266(5) 0.6600 Uiso
O1E O 0.6746(5) 0.5459(5) 0.5459(5) 0.1690 Uiso
C3E C 0.8325(10) 0.530(2) 0.5621(17) 0.2100 Uiso
C4E C 0.9137(13) 0.532(3) 0.564(2) 0.2300 Uiso
N1E N 0.954(2) 0.559(5) 0.633(2) 0.3700 Uiso
C6E C 1.002(9) 0.5443(8) 0.688(7) 0.6600 Uiso
C7E C 1.029(5) 0.601(3) 0.751(5) 0.6600 Uiso
C8E C 1.046(6) 0.574(4) 0.825(6) 0.6600 Uiso
C9E C 1.060(5) 0.731(2) 0.791(6) 0.6600 Uiso
C10E C 1.036(4) 0.680(2) 0.734(5) 0.6600 Uiso
O1G O 1.3254(5) 0.5459(5) 0.4541(5) 0.1690 Uiso
C1D C 1.2886(16) 0.5000 0.5000 0.1710 Uiso
C2D C 1.2076(12) 0.5000 0.5000 0.1940 Uiso
C3G C 1.1675(10) 0.530(2) 0.4379(17) 0.2100 Uiso
C4G C 1.0863(13) 0.532(3) 0.436(2) 0.2300 Uiso
C5D C 1.0452(15) 0.5000 0.5000 0.2550 Uiso
N1G N 1.046(2) 0.559(5) 0.367(2) 0.3700 Uiso
C6G C 0.998(9) 0.5443(8) 0.312(7) 0.6600 Uiso
C7G C 0.971(5) 0.601(3) 0.249(5) 0.6600 Uiso
C8G C 0.954(6) 0.574(4) 0.175(6) 0.6600 Uiso
C9G C 0.940(5) 0.731(2) 0.209(6) 0.6600 Uiso
C10G C 0.964(4) 0.680(2) 0.266(5) 0.6600 Uiso
O1D O 1.3254(5) 0.4541(5) 0.5459(5) 0.1690 Uiso
C3D C 1.1675(10) 0.470(2) 0.5621(17) 0.2100 Uiso
C4D C 1.0863(13) 0.468(3) 0.564(2) 0.2300 Uiso
N1D N 1.046(2) 0.441(5) 0.633(2) 0.3700 Uiso
C6D C 0.998(9) 0.4557(8) 0.688(7) 0.6600 Uiso
C7D C 0.971(5) 0.399(3) 0.751(5) 0.6600 Uiso
C8D C 0.954(6) 0.426(4) 0.825(6) 0.6600 Uiso
C9D C 0.940(5) 0.269(2) 0.791(6) 0.6600 Uiso
C10D C 0.964(4) 0.320(2) 0.734(5) 0.6600 Uiso
C3Q C 0.8325(10) 0.5621(17) 0.530(2) 0.2100 Uiso
C4Q C 0.9137(13) 0.564(2) 0.532(3) 0.2300 Uiso
N1Q N 0.954(2) 0.633(2) 0.559(5) 0.3700 Uiso
C6Q C 1.002(9) 0.688(7) 0.5443(8) 0.6600 Uiso
C7Q C 1.029(5) 0.751(5) 0.601(3) 0.6600 Uiso
C8Q C 1.046(6) 0.825(6) 0.574(4) 0.6600 Uiso
C9Q C 1.060(5) 0.791(6) 0.731(2) 0.6600 Uiso
C10Q C 1.036(4) 0.734(5) 0.680(2) 0.6600 Uiso
C3O C 1.1675(10) 0.5621(17) 0.470(2) 0.2100 Uiso
C4O C 1.0863(13) 0.564(2) 0.468(3) 0.2300 Uiso
N1O N 1.046(2) 0.633(2) 0.441(5) 0.3700 Uiso
C6O C 0.998(9) 0.688(7) 0.4557(8) 0.6600 Uiso
C7O C 0.971(5) 0.751(5) 0.399(3) 0.6600 Uiso
C8O C 0.954(6) 0.825(6) 0.426(4) 0.6600 Uiso
C9O C 0.940(5) 0.791(6) 0.269(2) 0.6600 Uiso
C10O C 0.964(4) 0.734(5) 0.320(2) 0.6600 Uiso
C3I C 1.1675(10) 0.4379(17) 0.530(2) 0.2100 Uiso
C4I C 1.0863(13) 0.436(2) 0.532(3) 0.2300 Uiso
N1I N 1.046(2) 0.367(2) 0.559(5) 0.3700 Uiso
C6I C 0.998(9) 0.312(7) 0.5443(8) 0.6600 Uiso
C7I C 0.971(5) 0.249(5) 0.601(3) 0.6600 Uiso
C8I C 0.954(6) 0.175(6) 0.574(4) 0.6600 Uiso
C9I C 0.940(5) 0.209(6) 0.731(2) 0.6600 Uiso
C10I C 0.964(4) 0.266(5) 0.680(2) 0.6600 Uiso
C3P C 0.8325(10) 0.4379(17) 0.470(2) 0.2100 Uiso
C4P C 0.9137(13) 0.436(2) 0.468(3) 0.2300 Uiso
N1P N 0.954(2) 0.367(2) 0.441(5) 0.3700 Uiso
C6P C 1.002(9) 0.312(7) 0.4557(8) 0.6600 Uiso
C7P C 1.029(5) 0.249(5) 0.399(3) 0.6600 Uiso
C8P C 1.046(6) 0.175(6) 0.426(4) 0.6600 Uiso
C9P C 1.060(5) 0.209(6) 0.269(2) 0.6600 Uiso
C10P C 1.036(4) 0.266(5) 0.320(2) 0.6600 Uiso
Zn1_2 Zn 0.56546(9) 1.43454(9) 0.43454(9) 0.1262 Uiso
Zn1A_2 Zn 0.43454(9) 1.43454(9) 0.56546(9) 0.1262 Uiso
Zn1A_3 Zn 1.43454(9) 0.43454(9) 0.56546(9) 0.1262 Uiso
Zn1B_2 Zn 0.43454(9) -0.43454(9) 0.43454(9) 0.1262 Uiso
Zn1B_3 Zn 1.43454(9) 0.56546(9) 0.43454(9) 0.1262 Uiso
Zn1C_2 Zn 0.56546(9) -0.43454(9) 0.56546(9) 0.1262 Uiso
O1D_2 O 0.3254(5) 0.4541(5) 0.5459(5) 0.1690 Uiso
O1G_2 O 0.3254(5) 0.5459(5) 0.4541(5) 0.1690 Uiso
O1H O 0.4541(5) 0.5459(5) 0.3254(5) 0.1690 Uiso
O1K O 0.5459(5) 0.4541(5) 0.3254(5) 0.1690 Uiso
O1M O 0.4541(5) 0.4541(5) 0.6746(5) 0.1690 Uiso
O1N O 0.5459(5) 0.5459(5) 0.6746(5) 0.1690 Uiso
loop_
_geom_bond_atom_site_label_1
_geom_bond_atom_site_label_2
_geom_bond_site_symmetry_1
_geom_bond_site_symmetry_2
Zn1 O1 1_555 1_555
O1 C1 1_555 1_555
O2 Zn1 1_555 1_555
C1 C2 1_555 1_555
C2 C3 1_555 1_555
C3 C4 1_555 1_555
C4 C5 1_555 1_555
C5 C4A 1_555 1_555
N1 C4 1_555 1_555
C6 N1 1_555 1_555
C7 C6 1_555 1_555
C8 C7 1_555 1_555
C9 C10 1_555 1_555
C10 C7 1_555 1_555
O1A C1 1_555 1_555
C3A C2 1_555 1_555
C4A C3A 1_555 1_555
N1A C4A 1_555 1_555
C6A N1A 1_555 1_555
C7A C6A 1_555 1_555
C8A C7A 1_555 1_555
C9A C10A 1_555 1_555
C10A C7A 1_555 1_555
O1B C1B 1_555 1_555
C1B C2B 1_555 1_555
C2B C3B 1_555 1_555
C3B C4B 1_555 1_555
C4B C5B 1_555 1_555
C5B C5 1_555 1_555
N1B C4B 1_555 1_555
C6B C6 1_555 1_555
C7B C6B 1_555 1_555
C8B C7B 1_555 1_555
C9B C10B 1_555 1_555
C10B C7B 1_555 1_555
O1C C1B 1_555 1_555
C3C C2B 1_555 1_555
C4C C5B 1_555 1_555
N1C C4C 1_555 1_555
C6C C6A 1_555 1_555
C7C C6C 1_555 1_555
C8C C7C 1_555 1_555
C9C C10C 1_555 1_555
C10C C7C 1_555 1_555
C3J C2 1_555 1_555
C4J C5 1_555 1_555
N1J N1A 1_555 1_555
C6J N1J 1_555 1_555
C7J C6J 1_555 1_555
C8J C7J 1_555 1_555
C9J C9A 1_555 1_555
C10J C10A 1_555 1_555
C3U C2B 1_555 1_555
C4U C3B 1_555 1_555
N1U N1B 1_555 1_555
C6U C6J 1_555 1_555
C7U C6U 1_555 1_555
C8U C7U 1_555 1_555
C9U C9B 1_555 1_555
C10U C10B 1_555 1_555
C3V C2B 1_555 1_555
C4V C5B 1_555 1_555
N1V N1C 1_555 1_555
C6V N1V 1_555 1_555
C7V C6V 1_555 1_555
C8V C7V 1_555 1_555
C9V C9C 1_555 1_555
C10V C10C 1_555 1_555
C3W C2 1_555 1_555
C4W C3 1_555 1_555
N1W N1 1_555 1_555
C6W C6V 1_555 1_555
C7W C6W 1_555 1_555
C8W C7W 1_555 1_555
C9W C9 1_555 1_555
C10W C10 1_555 1_555
Zn1A O2 1_555 1_555
Zn1B O2 1_555 1_555
O1B_2 Zn1B 1_555 1_555
C1B_2 O1B_2 1_555 1_555
C2B_2 C1B_2 1_555 1_555
C3B_2 C2B_2 1_555 1_555
C4B_2 C3B_2 1_555 1_555
C5B_2 C4B_2 1_555 1_555
N1B_2 C4B_2 1_555 1_555
C6B_2 N1B_2 1_555 1_555
C7B_2 C6B_2 1_555 1_555
C8B_2 C7B_2 1_555 1_555
C9B_2 C10B_2 1_555 1_555
C10B_2 C7B_2 1_555 1_555
O1C_2 C1B_2 1_555 1_555
C3C_2 C2B_2 1_555 1_555
C4C_2 C5B_2 1_555 1_555
N1C_2 C4C_2 1_555 1_555
C6C_2 N1C_2 1_555 1_555
C7C_2 C6C_2 1_555 1_555
C8C_2 C7C_2 1_555 1_555
C9C_2 C10C_2 1_555 1_555
C10C_2 C7C_2 1_555 1_555
O1_2 C1_2 1_555 1_555
C1_2 C2_2 1_555 1_555
C2_2 C3_2 1_555 1_555
C3_2 C4_2 1_555 1_555
C4_2 C5_2 1_555 1_555
C5_2 C5B_2 1_555 1_555
N1_2 C4_2 1_555 1_555
C6_2 C6B_2 1_555 1_555
C7_2 C6_2 1_555 1_555
C8_2 C7_2 1_555 1_555
C9_2 C10_2 1_555 1_555
C10_2 C7_2 1_555 1_555
O1A_2 C1_2 1_555 1_555
C3A_2 C2_2 1_555 1_555
C4A_2 C5_2 1_555 1_555
N1A_2 C4A_2 1_555 1_555
C6A_2 C6C_2 1_555 1_555
C7A_2 C6A_2 1_555 1_555
C8A_2 C7A_2 1_555 1_555
C9A_2 C10A_2 1_555 1_555
C10A_2 C7A_2 1_555 1_555
C3V_2 C2B_2 1_555 1_555
C4V_2 C5B_2 1_555 1_555
N1V_2 N1C_2 1_555 1_555
C6V_2 N1V_2 1_555 1_555
C7V_2 C6V_2 1_555 1_555
C8V_2 C7V_2 1_555 1_555
C9V_2 C9C_2 1_555 1_555
C10V_2 C10C_2 1_555 1_555
C3W_2 C2_2 1_555 1_555
C4W_2 C3_2 1_555 1_555
N1W_2 N1_2 1_555 1_555
C6W_2 C6V_2 1_555 1_555
C7W_2 C6W_2 1_555 1_555
C8W_2 C7W_2 1_555 1_555
C9W_2 C9_2 1_555 1_555
C10W_2 C10_2 1_555 1_555
C3J_2 C2_2 1_555 1_555
C4J_2 C5_2 1_555 1_555
N1J_2 N1A_2 1_555 1_555
C6J_2 N1J_2 1_555 1_555
C7J_2 C6J_2 1_555 1_555
C8J_2 C7J_2 1_555 1_555
C9J_2 C9A_2 1_555 1_555
C10J_2 C10A_2 1_555 1_555
C3U_2 C2B_2 1_555 1_555
C4U_2 C3B_2 1_555 1_555
N1U_2 N1B_2 1_555 1_555
C6U_2 C6J_2 1_555 1_555
C7U_2 C6U_2 1_555 1_555
C8U_2 C7U_2 1_555 1_555
C9U_2 C9B_2 1_555 1_555
C10U_2 C10B_2 1_555 1_555
Zn1C O2 1_555 1_555
O1F Zn1 1_555 1_555
C1E O1F 1_555 1_555
C2E C1E 1_555 1_555
C3F C2E 1_555 1_555
C4F C3F 1_555 1_555
C5E C4F 1_555 1_555
N1F C4F 1_555 1_555
C6F N1F 1_555 1_555
C7F C6F 1_555 1_555
C8F C7F 1_555 1_555
C9F C10F 1_555 1_555
C10F C7F 1_555 1_555
O1E Zn1C 1_555 1_555
C3E C2E 1_555 1_555
C4E C5E 1_555 1_555
N1E C4E 1_555 1_555
C6E N1E 1_555 1_555
C7E C6E 1_555 1_555
C8E C7E 1_555 1_555
C9E C10E 1_555 1_555
C10E C7E 1_555 1_555
O1G C1D 1_555 1_555
C1D C2D 1_555 1_555
C2D C3G 1_555 1_555
C3G C4G 1_555 1_555
C4G C5D 1_555 1_555
C5D C5E 1_555 1_555
N1G C4G 1_555 1_555
C6G C6F 1_555 1_555
C7G C6G 1_555 1_555
C8G C7G 1_555 1_555
C9G C10G 1_555 1_555
C10G C7G 1_555 1_555
O1D C1D 1_555 1_555
C3D C2D 1_555 1_555
C4D C5D 1_555 1_555
N1D C4D 1_555 1_555
C6D C6E 1_555 1_555
C7D C6D 1_555 1_555
C8D C7D 1_555 1_555
C9D C10D 1_555 1_555
C10D C7D 1_555 1_555
C3Q C2E 1_555 1_555
C4Q C5E 1_555 1_555
N1Q N1E 1_555 1_555
C6Q N1Q 1_555 1_555
C7Q C6Q 1_555 1_555
C8Q C7Q 1_555 1_555
C9Q C9E 1_555 1_555
C10Q C10E 1_555 1_555
C3O C2D 1_555 1_555
C4O C3G 1_555 1_555
N1O N1G 1_555 1_555
C6O C6Q 1_555 1_555
C7O C6O 1_555 1_555
C8O C7O 1_555 1_555
C9O C9G 1_555 1_555
C10O C10G 1_555 1_555
C3I C2D 1_555 1_555
C4I C5D 1_555 1_555
N1I N1D 1_555 1_555
C6I N1I 1_555 1_555
C7I C6I 1_555 1_555
C8I C7I 1_555 1_555
C9I C9D 1_555 1_555
C10I C10D 1_555 1_555
C3P C2E 1_555 1_555
C4P C3F 1_555 1_555
N1P N1F 1_555 1_555
C6P C6I 1_555 1_555
C7P C6P 1_555 1_555
C8P C7P 1_555 1_555
C9P C9F 1_555 1_555
C10P C10F 1_555 1_555
Zn1_2 O1_2 1_555 1_555
Zn1A_2 O1A_2 1_555 1_555
Zn1A_3 O1D 1_555 1_555
Zn1B_2 O1B 1_555 1_555
Zn1B_3 O1G 1_555 1_555
Zn1C_2 O1C 1_555 1_555
O1D_2 Zn1A 1_555 1_555
O1G_2 Zn1B 1_555 1_555
O1H Zn1B 1_555 1_555
O1K Zn1 1_555 1_555
O1M Zn1A 1_555 1_555
O1N Zn1C 1_555 1_555
C3 C3W 1_555 1_555
C4 C3W 1_555 1_555
C4 C4W 1_555 1_555
C5 C4W 1_555 1_555
O1A Zn1A 1_555 1_555
C3A C3J 1_555 1_555
C3A C4J 1_555 1_555
C4A C3J 1_555 1_555
C4A C4J 1_555 1_555
C3B C3U 1_555 1_555
C4B C3U 1_555 1_555
C4B C4U 1_555 1_555
C5B C4U 1_555 1_555
N1B C6B 1_555 1_555
C3C C4C 1_555 1_555
C3C C3V 1_555 1_555
C3C C4V 1_555 1_555
C4C C3V 1_555 1_555
C4C C4V 1_555 1_555
N1C C6C 1_555 1_555
C3J C4J 1_555 1_555
C4J N1J 1_555 1_555
C7J C10J 1_555 1_555
C9J C10J 1_555 1_555
C3U C4U 1_555 1_555
C4U N1U 1_555 1_555
N1U C6U 1_555 1_555
C7U C10U 1_555 1_555
C9U C10U 1_555 1_555
C3V C4V 1_555 1_555
C4V N1V 1_555 1_555
C7V C10V 1_555 1_555
C9V C10V 1_555 1_555
C3W C4W 1_555 1_555
C4W N1W 1_555 1_555
N1W C6W 1_555 1_555
C7W C10W 1_555 1_555
C9W C10W 1_555 1_555
C3B_2 C3U_2 1_555 1_555
C4B_2 C3U_2 1_555 1_555
C4B_2 C4U_2 1_555 1_555
C5B_2 C4U_2 1_555 1_555
O1C_2 Zn1C 1_555 1_555
C3C_2 C4C_2 1_555 1_555
C3C_2 C3V_2 1_555 1_555
C3C_2 C4V_2 1_555 1_555
C4C_2 C3V_2 1_555 1_555
C4C_2 C4V_2 1_555 1_555
C3_2 C3W_2 1_555 1_555
C4_2 C3W_2 1_555 1_555
C4_2 C4W_2 1_555 1_555
C5_2 C4W_2 1_555 1_555
N1_2 C6_2 1_555 1_555
C3A_2 C4A_2 1_555 1_555
C3A_2 C3J_2 1_555 1_555
C3A_2 C4J_2 1_555 1_555
C4A_2 C3J_2 1_555 1_555
C4A_2 C4J_2 1_555 1_555
N1A_2 C6A_2 1_555 1_555
C3V_2 C4V_2 1_555 1_555
C4V_2 N1V_2 1_555 1_555
C7V_2 C10V_2 1_555 1_555
C9V_2 C10V_2 1_555 1_555
C3W_2 C4W_2 1_555 1_555
C4W_2 N1W_2 1_555 1_555
N1W_2 C6W_2 1_555 1_555
C7W_2 C10W_2 1_555 1_555
C9W_2 C10W_2 1_555 1_555
C3J_2 C4J_2 1_555 1_555
C4J_2 N1J_2 1_555 1_555
C7J_2 C10J_2 1_555 1_555
C9J_2 C10J_2 1_555 1_555
C3U_2 C4U_2 1_555 1_555
C4U_2 N1U_2 1_555 1_555
N1U_2 C6U_2 1_555 1_555
C7U_2 C10U_2 1_555 1_555
C9U_2 C10U_2 1_555 1_555
C1E O1E 1_555 1_555
C3F C3P 1_555 1_555
C4F C3P 1_555 1_555
C4F C4P 1_555 1_555
C5E C4P 1_555 1_555
C3E C4E 1_555 1_555
C3E C3Q 1_555 1_555
C3E C4Q 1_555 1_555
C4E C3Q 1_555 1_555
C4E C4Q 1_555 1_555
C3G C3O 1_555 1_555
C4G C3O 1_555 1_555
C4G C4O 1_555 1_555
C5D C4O 1_555 1_555
N1G C6G 1_555 1_555
C3D C4D 1_555 1_555
C3D C3I 1_555 1_555
C3D C4I 1_555 1_555
C4D C3I 1_555 1_555
C4D C4I 1_555 1_555
N1D C6D 1_555 1_555
C3Q C4Q 1_555 1_555
C4Q N1Q 1_555 1_555
C7Q C10Q 1_555 1_555
C9Q C10Q 1_555 1_555
C3O C4O 1_555 1_555
C4O N1O 1_555 1_555
N1O C6O 1_555 1_555
C7O C10O 1_555 1_555
C9O C10O 1_555 1_555
C3I C4I 1_555 1_555
C4I N1I 1_555 1_555
C7I C10I 1_555 1_555
C9I C10I 1_555 1_555
C3P C4P 1_555 1_555
C4P N1P 1_555 1_555
N1P C6P 1_555 1_555
C7P C10P 1_555 1_555
C9P C10P 1_555 1_555

#END
