
#######################################################################
#
#                 Cambridge Crystallographic Data Centre
#                                CCDC 
#
#######################################################################
#
# If this CIF has been generated from an entry in the Cambridge 
# Structural Database, then it will include bibliographic, chemical, 
# crystal, experimental, refinement or atomic coordinate data resulting 
# from the CCDC's data processing and validation procedures.
#
#######################################################################

data_NACZUP03
_chemical_formula_moiety         'C186 N24 O21 Zn11'
_symmetry_cell_setting           cubic
_symmetry_space_group_name_H-M   'P -4 3 m'
_symmetry_Int_Tables_number      215
_space_group_name_Hall           'P -4 2 3'
loop_
_symmetry_equiv_pos_site_id
_symmetry_equiv_pos_as_xyz
1 x,y,z
2 y,-x,-z
3 -x,-y,z
4 -y,x,-z
5 -x,z,-y
6 x,-y,-z
7 -x,-z,y
8 -z,-y,x
9 -x,y,-z
10 z,-y,-x
11 z,x,y
12 y,z,x
13 -y,-z,x
14 z,-x,-y
15 -y,z,-x
16 -z,-x,y
17 -z,x,-y
18 y,-z,-x
19 -y,-x,z
20 y,x,z
21 x,-z,-y
22 x,z,y
23 -z,y,-x
24 z,y,x
_cell_length_a                   17.1794(18)
_cell_length_b                   17.1794(18)
_cell_length_c                   17.1794(18)
_cell_angle_alpha                90
_cell_angle_beta                 90
_cell_angle_gamma                90
_cell_volume                     5070.19
loop_
_atom_site_label
_atom_site_type_symbol
_atom_site_fract_x
_atom_site_fract_y
_atom_site_fract_z
Zn1 Zn 0.56525(7) 0.43475(7) 0.43475(7)
O1 O 0.5460(5) 0.3269(5) 0.4540(5)
O2 O 0.5000 0.5000 0.5000
C1 C 0.5000 0.2902(11) 0.5000
C2 C 0.5000 0.2056(11) 0.5000
C3 C 0.5317(19) 0.1662(9) 0.4383(17)
C4 C 0.535(4) 0.0847(10) 0.437(3)
C5 C 0.5000 0.0432(13) 0.5000
N1 N 0.564(5) 0.047(2) 0.366(3)
C6 C 0.5439(15) 0.006(10) 0.307(8)
C7 C 0.599(3) -0.027(5) 0.244(5)
C8 C 0.570(4) -0.052(5) 0.173(6)
C9 C 0.678(3) -0.030(5) 0.259(5)
C10 C 0.728(3) -0.059(5) 0.203(8)
O1B O 0.4540(5) -0.3269(5) 0.4540(5)
C1B C 0.5000 -0.2902(11) 0.5000
C2B C 0.5000 -0.2056(11) 0.5000
C3B C 0.4683(19) -0.1662(9) 0.4383(17)
C4B C 0.465(4) -0.0847(10) 0.437(3)
C5B C 0.5000 -0.0432(13) 0.5000
N1B N 0.436(5) -0.047(2) 0.366(3)
C6B C 0.4561(15) -0.006(10) 0.307(8)
C7B C 0.401(3) 0.027(5) 0.244(5)
C8B C 0.430(4) 0.052(5) 0.173(6)
C9B C 0.322(3) 0.030(5) 0.259(5)
C10B C 0.272(3) 0.059(5) 0.203(8)
O1E O 0.5460(5) -0.3269(5) 0.5460(5)
C3E C 0.5317(19) -0.1662(9) 0.5617(17)
C4E C 0.535(4) -0.0847(10) 0.563(3)
N1E N 0.564(5) -0.047(2) 0.634(3)
C6E C 0.5439(15) -0.006(10) 0.693(8)
C7E C 0.599(3) 0.027(5) 0.756(5)
C8E C 0.570(4) 0.052(5) 0.827(6)
C9E C 0.678(3) 0.030(5) 0.741(5)
C10E C 0.728(3) 0.059(5) 0.797(8)
C3G C 0.5617(17) -0.1662(9) 0.5317(19)
C4G C 0.563(3) -0.0847(10) 0.535(4)
N1G N 0.634(3) -0.047(2) 0.564(5)
C6G C 0.693(8) -0.006(10) 0.5439(15)
C7G C 0.756(5) 0.027(5) 0.599(3)
C8G C 0.827(6) 0.052(5) 0.570(4)
C9G C 0.741(5) 0.030(5) 0.678(3)
C10G C 0.797(8) 0.059(5) 0.728(3)
O1H O 0.4540(5) 0.3269(5) 0.5460(5)
C3H C 0.4683(19) 0.1662(9) 0.5617(17)
C4H C 0.465(4) 0.0847(10) 0.563(3)
N1H N 0.436(5) 0.047(2) 0.634(3)
C6H C 0.4561(15) 0.006(10) 0.693(8)
C7H C 0.401(3) -0.027(5) 0.756(5)
C8H C 0.430(4) -0.052(5) 0.827(6)
C9H C 0.322(3) -0.030(5) 0.741(5)
C10H C 0.272(3) -0.059(5) 0.797(8)
C3I C 0.4383(17) -0.1662(9) 0.4683(19)
C4I C 0.437(3) -0.0847(10) 0.465(4)
N1I N 0.366(3) -0.047(2) 0.436(5)
C6I C 0.307(8) -0.006(10) 0.4561(15)
C7I C 0.244(5) 0.027(5) 0.401(3)
C8I C 0.173(6) 0.052(5) 0.430(4)
C9I C 0.259(5) 0.030(5) 0.322(3)
C10I C 0.203(8) 0.059(5) 0.272(3)
C3V C 0.5617(17) 0.1662(9) 0.4683(19)
C4V C 0.563(3) 0.0847(10) 0.465(4)
N1V N 0.634(3) 0.047(2) 0.436(5)
C6V C 0.693(8) 0.006(10) 0.4561(15)
C7V C 0.756(5) -0.027(5) 0.401(3)
C8V C 0.827(6) -0.052(5) 0.430(4)
C9V C 0.741(5) -0.030(5) 0.322(3)
C10V C 0.797(8) -0.059(5) 0.272(3)
C3W C 0.4383(17) 0.1662(9) 0.5317(19)
C4W C 0.437(3) 0.0847(10) 0.535(4)
N1W N 0.366(3) 0.047(2) 0.564(5)
C6W C 0.307(8) 0.006(10) 0.5439(15)
C7W C 0.244(5) -0.027(5) 0.599(3)
C8W C 0.173(6) -0.052(5) 0.570(4)
C9W C 0.259(5) -0.030(5) 0.678(3)
C10W C 0.203(8) -0.059(5) 0.728(3)
Zn1A Zn 0.43475(7) 0.43475(7) 0.56525(7)
O1A O 0.3269(5) 0.4540(5) 0.5460(5)
C1A C 0.2902(11) 0.5000 0.5000
C2A C 0.2056(11) 0.5000 0.5000
C3A C 0.1662(9) 0.4683(19) 0.5617(17)
C4A C 0.0847(10) 0.465(4) 0.563(3)
C5A C 0.0432(13) 0.5000 0.5000
N1A N 0.047(2) 0.436(5) 0.634(3)
C6A C 0.006(10) 0.4561(15) 0.693(8)
C7A C -0.027(5) 0.401(3) 0.756(5)
C8A C -0.052(5) 0.430(4) 0.827(6)
C9A C -0.030(5) 0.322(3) 0.741(5)
C10A C -0.059(5) 0.272(3) 0.797(8)
O1C O -0.3269(5) 0.5460(5) 0.5460(5)
C1C C -0.2902(11) 0.5000 0.5000
C2C C -0.2056(11) 0.5000 0.5000
C3C C -0.1662(9) 0.5317(19) 0.5617(17)
C4C C -0.0847(10) 0.535(4) 0.563(3)
C5C C -0.0432(13) 0.5000 0.5000
N1C N -0.047(2) 0.564(5) 0.634(3)
C6C C -0.006(10) 0.5439(15) 0.693(8)
C7C C 0.027(5) 0.599(3) 0.756(5)
C8C C 0.052(5) 0.570(4) 0.827(6)
C9C C 0.030(5) 0.678(3) 0.741(5)
C10C C 0.059(5) 0.728(3) 0.797(8)
O1N O -0.3269(5) 0.4540(5) 0.4540(5)
C3R C -0.1662(9) 0.4683(19) 0.4383(17)
C4R C -0.0847(10) 0.465(4) 0.437(3)
N1R N -0.047(2) 0.436(5) 0.366(3)
C6R C -0.006(10) 0.4561(15) 0.307(8)
C7R C 0.027(5) 0.401(3) 0.244(5)
C8R C 0.052(5) 0.430(4) 0.173(6)
C9R C 0.030(5) 0.322(3) 0.259(5)
C10R C 0.059(5) 0.272(3) 0.203(8)
C3N C -0.1662(9) 0.4383(17) 0.4683(19)
C4N C -0.0847(10) 0.437(3) 0.465(4)
N1N N -0.047(2) 0.366(3) 0.436(5)
C6N C -0.006(10) 0.307(8) 0.4561(15)
C7N C 0.027(5) 0.244(5) 0.401(3)
C8N C 0.052(5) 0.173(6) 0.430(4)
C9N C 0.030(5) 0.259(5) 0.322(3)
C10N C 0.059(5) 0.203(8) 0.272(3)
O1Q O 0.3269(5) 0.5460(5) 0.4540(5)
C3S C 0.1662(9) 0.5317(19) 0.4383(17)
C4S C 0.0847(10) 0.535(4) 0.437(3)
N1S N 0.047(2) 0.564(5) 0.366(3)
C6S C 0.006(10) 0.5439(15) 0.307(8)
C7S C -0.027(5) 0.599(3) 0.244(5)
C8S C -0.052(5) 0.570(4) 0.173(6)
C9S C -0.030(5) 0.678(3) 0.259(5)
C10S C -0.059(5) 0.728(3) 0.203(8)
C3L C -0.1662(9) 0.5617(17) 0.5317(19)
C4L C -0.0847(10) 0.563(3) 0.535(4)
N1L N -0.047(2) 0.634(3) 0.564(5)
C6L C -0.006(10) 0.693(8) 0.5439(15)
C7L C 0.027(5) 0.756(5) 0.599(3)
C8L C 0.052(5) 0.827(6) 0.570(4)
C9L C 0.030(5) 0.741(5) 0.678(3)
C10L C 0.059(5) 0.797(8) 0.728(3)
C3K C 0.1662(9) 0.4383(17) 0.5317(19)
C4K C 0.0847(10) 0.437(3) 0.535(4)
N1K N 0.047(2) 0.366(3) 0.564(5)
C6K C 0.006(10) 0.307(8) 0.5439(15)
C7K C -0.027(5) 0.244(5) 0.599(3)
C8K C -0.052(5) 0.173(6) 0.570(4)
C9K C -0.030(5) 0.259(5) 0.678(3)
C10K C -0.059(5) 0.203(8) 0.728(3)
C3Q C 0.1662(9) 0.5617(17) 0.4683(19)
C4Q C 0.0847(10) 0.563(3) 0.465(4)
N1Q N 0.047(2) 0.634(3) 0.436(5)
C6Q C 0.006(10) 0.693(8) 0.4561(15)
C7Q C -0.027(5) 0.756(5) 0.401(3)
C8Q C -0.052(5) 0.827(6) 0.430(4)
C9Q C -0.030(5) 0.741(5) 0.322(3)
C10Q C -0.059(5) 0.797(8) 0.272(3)
Zn1B Zn 0.43475(7) -0.43475(7) 0.43475(7)
Zn1C Zn -0.43475(7) -0.43475(7) 0.56525(7)
O1C_2 O -0.3269(5) -0.4540(5) 0.5460(5)
C1C_2 C -0.2902(11) -0.5000 0.5000
C2C_2 C -0.2056(11) -0.5000 0.5000
C3C_2 C -0.1662(9) -0.4683(19) 0.5617(17)
C4C_2 C -0.0847(10) -0.465(4) 0.563(3)
C5C_2 C -0.0432(13) -0.5000 0.5000
N1C_2 N -0.047(2) -0.436(5) 0.634(3)
C6C_2 C -0.006(10) -0.4561(15) 0.693(8)
C7C_2 C 0.027(5) -0.401(3) 0.756(5)
C8C_2 C 0.052(5) -0.430(4) 0.827(6)
C9C_2 C 0.030(5) -0.322(3) 0.741(5)
C10C_2 C 0.059(5) -0.272(3) 0.797(8)
O1A_2 O 0.3269(5) -0.5460(5) 0.5460(5)
C1A_2 C 0.2902(11) -0.5000 0.5000
C2A_2 C 0.2056(11) -0.5000 0.5000
C3A_2 C 0.1662(9) -0.5317(19) 0.5617(17)
C4A_2 C 0.0847(10) -0.535(4) 0.563(3)
C5A_2 C 0.0432(13) -0.5000 0.5000
N1A_2 N 0.047(2) -0.564(5) 0.634(3)
C6A_2 C 0.006(10) -0.5439(15) 0.693(8)
C7A_2 C -0.027(5) -0.599(3) 0.756(5)
C8A_2 C -0.052(5) -0.570(4) 0.827(6)
C9A_2 C -0.030(5) -0.678(3) 0.741(5)
C10A_2 C -0.059(5) -0.728(3) 0.797(8)
O1Q_2 O 0.3269(5) -0.4540(5) 0.4540(5)
C3S_2 C 0.1662(9) -0.4683(19) 0.4383(17)
C4S_2 C 0.0847(10) -0.465(4) 0.437(3)
N1S_2 N 0.047(2) -0.436(5) 0.366(3)
C6S_2 C 0.006(10) -0.4561(15) 0.307(8)
C7S_2 C -0.027(5) -0.401(3) 0.244(5)
C8S_2 C -0.052(5) -0.430(4) 0.173(6)
C9S_2 C -0.030(5) -0.322(3) 0.259(5)
C10S_2 C -0.059(5) -0.272(3) 0.203(8)
C3Q_2 C 0.1662(9) -0.4383(17) 0.4683(19)
C4Q_2 C 0.0847(10) -0.437(3) 0.465(4)
N1Q_2 N 0.047(2) -0.366(3) 0.436(5)
C6Q_2 C 0.006(10) -0.307(8) 0.4561(15)
C7Q_2 C -0.027(5) -0.244(5) 0.401(3)
C8Q_2 C -0.052(5) -0.173(6) 0.430(4)
C9Q_2 C -0.030(5) -0.259(5) 0.322(3)
C10Q_2 C -0.059(5) -0.203(8) 0.272(3)
O1N_2 O -0.3269(5) -0.5460(5) 0.4540(5)
C3R_2 C -0.1662(9) -0.5317(19) 0.4383(17)
C4R_2 C -0.0847(10) -0.535(4) 0.437(3)
N1R_2 N -0.047(2) -0.564(5) 0.366(3)
C6R_2 C -0.006(10) -0.5439(15) 0.307(8)
C7R_2 C 0.027(5) -0.599(3) 0.244(5)
C8R_2 C 0.052(5) -0.570(4) 0.173(6)
C9R_2 C 0.030(5) -0.678(3) 0.259(5)
C10R_2 C 0.059(5) -0.728(3) 0.203(8)
C3K_2 C 0.1662(9) -0.5617(17) 0.5317(19)
C4K_2 C 0.0847(10) -0.563(3) 0.535(4)
N1K_2 N 0.047(2) -0.634(3) 0.564(5)
C6K_2 C 0.006(10) -0.693(8) 0.5439(15)
C7K_2 C -0.027(5) -0.756(5) 0.599(3)
C8K_2 C -0.052(5) -0.827(6) 0.570(4)
C9K_2 C -0.030(5) -0.741(5) 0.678(3)
C10K_2 C -0.059(5) -0.797(8) 0.728(3)
C3L_2 C -0.1662(9) -0.4383(17) 0.5317(19)
C4L_2 C -0.0847(10) -0.437(3) 0.535(4)
N1L_2 N -0.047(2) -0.366(3) 0.564(5)
C6L_2 C -0.006(10) -0.307(8) 0.5439(15)
C7L_2 C 0.027(5) -0.244(5) 0.599(3)
C8L_2 C 0.052(5) -0.173(6) 0.570(4)
C9L_2 C 0.030(5) -0.259(5) 0.678(3)
C10L_2 C 0.059(5) -0.203(8) 0.728(3)
C3N_2 C -0.1662(9) -0.5617(17) 0.4683(19)
C4N_2 C -0.0847(10) -0.563(3) 0.465(4)
N1N_2 N -0.047(2) -0.634(3) 0.436(5)
C6N_2 C -0.006(10) -0.693(8) 0.4561(15)
C7N_2 C 0.027(5) -0.756(5) 0.401(3)
C8N_2 C 0.052(5) -0.827(6) 0.430(4)
C9N_2 C 0.030(5) -0.741(5) 0.322(3)
C10N_2 C 0.059(5) -0.797(8) 0.272(3)
Zn1_2 Zn -0.43475(7) -0.56525(7) 0.43475(7)
Zn1_3 Zn -0.43475(7) 0.43475(7) 0.43475(7)
Zn1A_2 Zn 0.43475(7) -0.56525(7) 0.56525(7)
Zn1B_2 Zn 0.43475(7) 0.56525(7) 0.43475(7)
Zn1C_2 Zn -0.43475(7) 0.56525(7) 0.56525(7)
Zn1C_3 Zn 0.56525(7) -0.43475(7) 0.56525(7)
Zn1C_4 Zn 0.56525(7) 0.56525(7) 0.56525(7)
O1D O 0.4540(5) 0.4540(5) 0.6731(5)
O1E_2 O -0.4540(5) -0.3269(5) 0.5460(5)
O1F O 0.4540(5) -0.4540(5) 0.3269(5)
O1N_3 O 0.6731(5) 0.4540(5) 0.4540(5)
O1O O 0.5460(5) 0.4540(5) 0.3269(5)
O1P O -0.4540(5) -0.4540(5) 0.6731(5)
O2_2 O -0.5000 -0.5000 0.5000
O2_3 O 0.5000 -0.5000 0.5000
loop_
_geom_bond_atom_site_label_1
_geom_bond_atom_site_label_2
_geom_bond_site_symmetry_1
_geom_bond_site_symmetry_2
Zn1 O1 1_555 1_555
O1 C1 1_555 1_555
O2 Zn1 1_555 1_555
C1 C2 1_555 1_555
C2 C3 1_555 1_555
C3 C4 1_555 1_555
C4 C5 1_555 1_555
C5 C5B 1_555 1_555
N1 C4 1_555 1_555
C6 N1 1_555 1_555
C7 C6 1_555 1_555
C8 C7 1_555 1_555
C9 C7 1_555 1_555
C10 C9 1_555 1_555
O1B C1B 1_555 1_555
C1B C2B 1_555 1_555
C2B C3B 1_555 1_555
C3B C4B 1_555 1_555
C4B C5B 1_555 1_555
C5B C4E 1_555 1_555
N1B C4B 1_555 1_555
C6B C6 1_555 1_555
C7B C6B 1_555 1_555
C8B C7B 1_555 1_555
C9B C7B 1_555 1_555
C10B C9B 1_555 1_555
O1E C1B 1_555 1_555
C3E C2B 1_555 1_555
C4E C3E 1_555 1_555
N1E C4E 1_555 1_555
C6E N1E 1_555 1_555
C7E C6E 1_555 1_555
C8E C7E 1_555 1_555
C9E C7E 1_555 1_555
C10E C9E 1_555 1_555
C3G C2B 1_555 1_555
C4G C5B 1_555 1_555
N1G N1E 1_555 1_555
C6G N1G 1_555 1_555
C7G C6G 1_555 1_555
C8G C7G 1_555 1_555
C9G C9E 1_555 1_555
C10G C10E 1_555 1_555
O1H C1 1_555 1_555
C3H C2 1_555 1_555
C4H C5 1_555 1_555
N1H C4H 1_555 1_555
C6H C6E 1_555 1_555
C7H C6H 1_555 1_555
C8H C7H 1_555 1_555
C9H C7H 1_555 1_555
C10H C9H 1_555 1_555
C3I C2B 1_555 1_555
C4I C3B 1_555 1_555
N1I N1B 1_555 1_555
C6I N1I 1_555 1_555
C7I C6I 1_555 1_555
C8I C7I 1_555 1_555
C9I C9B 1_555 1_555
C10I C10B 1_555 1_555
C3V C2 1_555 1_555
C4V C3 1_555 1_555
N1V N1 1_555 1_555
C6V C6G 1_555 1_555
C7V C6V 1_555 1_555
C8V C7V 1_555 1_555
C9V C9 1_555 1_555
C10V C10 1_555 1_555
C3W C2 1_555 1_555
C4W C5 1_555 1_555
N1W N1H 1_555 1_555
C6W C6I 1_555 1_555
C7W C6W 1_555 1_555
C8W C7W 1_555 1_555
C9W C9H 1_555 1_555
C10W C10H 1_555 1_555
Zn1A O2 1_555 1_555
O1A Zn1A 1_555 1_555
C1A O1A 1_555 1_555
C2A C1A 1_555 1_555
C3A C2A 1_555 1_555
C4A C3A 1_555 1_555
C5A C4A 1_555 1_555
N1A C4A 1_555 1_555
C6A N1A 1_555 1_555
C7A C6A 1_555 1_555
C8A C7A 1_555 1_555
C9A C7A 1_555 1_555
C10A C9A 1_555 1_555
O1C C1C 1_555 1_555
C1C C2C 1_555 1_555
C2C C3C 1_555 1_555
C3C C4C 1_555 1_555
C4C C5C 1_555 1_555
C5C C5A 1_555 1_555
N1C C4C 1_555 1_555
C6C C6A 1_555 1_555
C7C C6C 1_555 1_555
C8C C7C 1_555 1_555
C9C C7C 1_555 1_555
C10C C9C 1_555 1_555
O1N C1C 1_555 1_555
C3R C2C 1_555 1_555
C4R C5C 1_555 1_555
N1R C4R 1_555 1_555
C6R N1R 1_555 1_555
C7R C6R 1_555 1_555
C8R C7R 1_555 1_555
C9R C7R 1_555 1_555
C10R C9R 1_555 1_555
C3N C2C 1_555 1_555
C4N C5C 1_555 1_555
N1N N1R 1_555 1_555
C6N N1N 1_555 1_555
C7N C6N 1_555 1_555
C8N C7N 1_555 1_555
C9N C9R 1_555 1_555
C10N C10R 1_555 1_555
O1Q C1A 1_555 1_555
C3S C2A 1_555 1_555
C4S C5A 1_555 1_555
N1S C4S 1_555 1_555
C6S C6R 1_555 1_555
C7S C6S 1_555 1_555
C8S C7S 1_555 1_555
C9S C7S 1_555 1_555
C10S C9S 1_555 1_555
C3L C2C 1_555 1_555
C4L C3C 1_555 1_555
N1L N1C 1_555 1_555
C6L N1L 1_555 1_555
C7L C6L 1_555 1_555
C8L C7L 1_555 1_555
C9L C9C 1_555 1_555
C10L C10C 1_555 1_555
C3K C2A 1_555 1_555
C4K C3A 1_555 1_555
N1K N1A 1_555 1_555
C6K C6N 1_555 1_555
C7K C6K 1_555 1_555
C8K C7K 1_555 1_555
C9K C9A 1_555 1_555
C10K C10A 1_555 1_555
C3Q C2A 1_555 1_555
C4Q C5A 1_555 1_555
N1Q N1S 1_555 1_555
C6Q C6L 1_555 1_555
C7Q C6Q 1_555 1_555
C8Q C7Q 1_555 1_555
C9Q C9S 1_555 1_555
C10Q C10S 1_555 1_555
Zn1B O1B 1_555 1_555
Zn1C O1C_2 1_555 1_555
O1C_2 C1C_2 1_555 1_555
C1C_2 C2C_2 1_555 1_555
C2C_2 C3C_2 1_555 1_555
C3C_2 C4C_2 1_555 1_555
C4C_2 C5C_2 1_555 1_555
C5C_2 C5A_2 1_555 1_555
N1C_2 C4C_2 1_555 1_555
C6C_2 N1C_2 1_555 1_555
C7C_2 C6C_2 1_555 1_555
C8C_2 C7C_2 1_555 1_555
C9C_2 C7C_2 1_555 1_555
C10C_2 C9C_2 1_555 1_555
O1A_2 C1A_2 1_555 1_555
C1A_2 C2A_2 1_555 1_555
C2A_2 C3A_2 1_555 1_555
C3A_2 C4A_2 1_555 1_555
C4A_2 C5A_2 1_555 1_555
C5A_2 C4S_2 1_555 1_555
N1A_2 C4A_2 1_555 1_555
C6A_2 C6C_2 1_555 1_555
C7A_2 C6A_2 1_555 1_555
C8A_2 C7A_2 1_555 1_555
C9A_2 C7A_2 1_555 1_555
C10A_2 C9A_2 1_555 1_555
O1Q_2 Zn1B 1_555 1_555
C3S_2 C2A_2 1_555 1_555
C4S_2 C3S_2 1_555 1_555
N1S_2 C4S_2 1_555 1_555
C6S_2 N1S_2 1_555 1_555
C7S_2 C6S_2 1_555 1_555
C8S_2 C7S_2 1_555 1_555
C9S_2 C7S_2 1_555 1_555
C10S_2 C9S_2 1_555 1_555
C3Q_2 C2A_2 1_555 1_555
C4Q_2 C5A_2 1_555 1_555
N1Q_2 N1S_2 1_555 1_555
C6Q_2 N1Q_2 1_555 1_555
C7Q_2 C6Q_2 1_555 1_555
C8Q_2 C7Q_2 1_555 1_555
C9Q_2 C9S_2 1_555 1_555
C10Q_2 C10S_2 1_555 1_555
O1N_2 C1C_2 1_555 1_555
C3R_2 C2C_2 1_555 1_555
C4R_2 C5C_2 1_555 1_555
N1R_2 C4R_2 1_555 1_555
C6R_2 C6S_2 1_555 1_555
C7R_2 C6R_2 1_555 1_555
C8R_2 C7R_2 1_555 1_555
C9R_2 C7R_2 1_555 1_555
C10R_2 C9R_2 1_555 1_555
C3K_2 C2A_2 1_555 1_555
C4K_2 C3A_2 1_555 1_555
N1K_2 N1A_2 1_555 1_555
C6K_2 N1K_2 1_555 1_555
C7K_2 C6K_2 1_555 1_555
C8K_2 C7K_2 1_555 1_555
C9K_2 C9A_2 1_555 1_555
C10K_2 C10A_2 1_555 1_555
C3L_2 C2C_2 1_555 1_555
C4L_2 C3C_2 1_555 1_555
N1L_2 N1C_2 1_555 1_555
C6L_2 C6Q_2 1_555 1_555
C7L_2 C6L_2 1_555 1_555
C8L_2 C7L_2 1_555 1_555
C9L_2 C9C_2 1_555 1_555
C10L_2 C10C_2 1_555 1_555
C3N_2 C2C_2 1_555 1_555
C4N_2 C5C_2 1_555 1_555
N1N_2 N1R_2 1_555 1_555
C6N_2 C6K_2 1_555 1_555
C7N_2 C6N_2 1_555 1_555
C8N_2 C7N_2 1_555 1_555
C9N_2 C9R_2 1_555 1_555
C10N_2 C10R_2 1_555 1_555
Zn1_2 O1N_2 1_555 1_555
Zn1_3 O1N 1_555 1_555
Zn1A_2 O1A_2 1_555 1_555
Zn1B_2 O2 1_555 1_555
Zn1C_2 O1C 1_555 1_555
Zn1C_3 O1E 1_555 1_555
Zn1C_4 O2 1_555 1_555
O1D Zn1A 1_555 1_555
O1E_2 Zn1C 1_555 1_555
O1F Zn1B 1_555 1_555
O1N_3 Zn1 1_555 1_555
O1O Zn1 1_555 1_555
O1P Zn1C 1_555 1_555
O2_2 Zn1C 1_555 1_555
O2_3 Zn1B 1_555 1_555
C3 C3V 1_555 1_555
C4 C3V 1_555 1_555
C4 C4V 1_555 1_555
C5 C4V 1_555 1_555
C3B C3I 1_555 1_555
C4B C3I 1_555 1_555
C4B C4I 1_555 1_555
C5B C4I 1_555 1_555
N1B C6B 1_555 1_555
C3E C3G 1_555 1_555
C3E C4G 1_555 1_555
C4E C3G 1_555 1_555
C4E C4G 1_555 1_555
C3G C4G 1_555 1_555
C4G N1G 1_555 1_555
C7G C9G 1_555 1_555
C9G C10G 1_555 1_555
O1H Zn1A 1_555 1_555
C3H C4H 1_555 1_555
C3H C3W 1_555 1_555
C3H C4W 1_555 1_555
C4H C3W 1_555 1_555
C4H C4W 1_555 1_555
N1H C6H 1_555 1_555
C3I C4I 1_555 1_555
C4I N1I 1_555 1_555
C7I C9I 1_555 1_555
C9I C10I 1_555 1_555
C3V C4V 1_555 1_555
C4V N1V 1_555 1_555
N1V C6V 1_555 1_555
C7V C9V 1_555 1_555
C9V C10V 1_555 1_555
C3W C4W 1_555 1_555
C4W N1W 1_555 1_555
N1W C6W 1_555 1_555
C7W C9W 1_555 1_555
C9W C10W 1_555 1_555
C3A C3K 1_555 1_555
C4A C3K 1_555 1_555
C4A C4K 1_555 1_555
C5A C4K 1_555 1_555
C3C C3L 1_555 1_555
C4C C3L 1_555 1_555
C4C C4L 1_555 1_555
C5C C4L 1_555 1_555
N1C C6C 1_555 1_555
C3R C4R 1_555 1_555
C3R C3N 1_555 1_555
C3R C4N 1_555 1_555
C4R C3N 1_555 1_555
C4R C4N 1_555 1_555
C3N C4N 1_555 1_555
C4N N1N 1_555 1_555
C7N C9N 1_555 1_555
C9N C10N 1_555 1_555
O1Q Zn1B_2 1_555 1_555
C3S C4S 1_555 1_555
C3S C3Q 1_555 1_555
C3S C4Q 1_555 1_555
C4S C3Q 1_555 1_555
C4S C4Q 1_555 1_555
N1S C6S 1_555 1_555
C3L C4L 1_555 1_555
C4L N1L 1_555 1_555
C7L C9L 1_555 1_555
C9L C10L 1_555 1_555
C3K C4K 1_555 1_555
C4K N1K 1_555 1_555
N1K C6K 1_555 1_555
C7K C9K 1_555 1_555
C9K C10K 1_555 1_555
C3Q C4Q 1_555 1_555
C4Q N1Q 1_555 1_555
N1Q C6Q 1_555 1_555
C7Q C9Q 1_555 1_555
C9Q C10Q 1_555 1_555
C3C_2 C3L_2 1_555 1_555
C4C_2 C3L_2 1_555 1_555
C4C_2 C4L_2 1_555 1_555
C5C_2 C4L_2 1_555 1_555
C1A_2 O1Q_2 1_555 1_555
C3A_2 C3K_2 1_555 1_555
C4A_2 C3K_2 1_555 1_555
C4A_2 C4K_2 1_555 1_555
C5A_2 C4K_2 1_555 1_555
N1A_2 C6A_2 1_555 1_555
C3S_2 C3Q_2 1_555 1_555
C3S_2 C4Q_2 1_555 1_555
C4S_2 C3Q_2 1_555 1_555
C4S_2 C4Q_2 1_555 1_555
C3Q_2 C4Q_2 1_555 1_555
C4Q_2 N1Q_2 1_555 1_555
C7Q_2 C9Q_2 1_555 1_555
C9Q_2 C10Q_2 1_555 1_555
C3R_2 C4R_2 1_555 1_555
C3R_2 C3N_2 1_555 1_555
C3R_2 C4N_2 1_555 1_555
C4R_2 C3N_2 1_555 1_555
C4R_2 C4N_2 1_555 1_555
N1R_2 C6R_2 1_555 1_555
C3K_2 C4K_2 1_555 1_555
C4K_2 N1K_2 1_555 1_555
C7K_2 C9K_2 1_555 1_555
C9K_2 C10K_2 1_555 1_555
C3L_2 C4L_2 1_555 1_555
C4L_2 N1L_2 1_555 1_555
N1L_2 C6L_2 1_555 1_555
C7L_2 C9L_2 1_555 1_555
C9L_2 C10L_2 1_555 1_555
C3N_2 C4N_2 1_555 1_555
C4N_2 N1N_2 1_555 1_555
N1N_2 C6N_2 1_555 1_555
C7N_2 C9N_2 1_555 1_555
C9N_2 C10N_2 1_555 1_555
Zn1_2 O2_2 1_555 1_555
Zn1A_2 O2_3 1_555 1_555
Zn1C_3 O2_3 1_555 1_555

#END
