
#######################################################################
#
#                 Cambridge Crystallographic Data Centre
#                                CCDC 
#
#######################################################################
#
# If this CIF has been generated from an entry in the Cambridge 
# Structural Database, then it will include bibliographic, chemical, 
# crystal, experimental, refinement or atomic coordinate data resulting 
# from the CCDC's data processing and validation procedures.
#
#######################################################################

data_HIFVUO01
_chemical_formula_moiety         '(C6 H6 N4 Zn1)n'
_symmetry_cell_setting           cubic
_symmetry_space_group_name_H-M   'I -4 3 m'
_symmetry_Int_Tables_number      217
_space_group_name_Hall           'I -4 2 3'
loop_
_symmetry_equiv_pos_site_id
_symmetry_equiv_pos_as_xyz
1 x,y,z
2 y,-x,-z
3 -x,-y,z
4 -y,x,-z
5 -x,z,-y
6 x,-y,-z
7 -x,-z,y
8 -z,-y,x
9 -x,y,-z
10 z,-y,-x
11 z,x,y
12 y,z,x
13 -y,-z,x
14 z,-x,-y
15 -y,z,-x
16 -z,-x,y
17 -z,x,-y
18 y,-z,-x
19 -y,-x,z
20 y,x,z
21 x,-z,-y
22 x,z,y
23 -z,y,-x
24 z,y,x
25 1/2+x,1/2+y,1/2+z
26 1/2+y,1/2-x,1/2-z
27 1/2-x,1/2-y,1/2+z
28 1/2-y,1/2+x,1/2-z
29 1/2-x,1/2+z,1/2-y
30 1/2+x,1/2-y,1/2-z
31 1/2-x,1/2-z,1/2+y
32 1/2-z,1/2-y,1/2+x
33 1/2-x,1/2+y,1/2-z
34 1/2+z,1/2-y,1/2-x
35 1/2+z,1/2+x,1/2+y
36 1/2+y,1/2+z,1/2+x
37 1/2-y,1/2-z,1/2+x
38 1/2+z,1/2-x,1/2-y
39 1/2-y,1/2+z,1/2-x
40 1/2-z,1/2-x,1/2+y
41 1/2-z,1/2+x,1/2-y
42 1/2+y,1/2-z,1/2-x
43 1/2-y,1/2-x,1/2+z
44 1/2+y,1/2+x,1/2+z
45 1/2+x,1/2-z,1/2-y
46 1/2+x,1/2+z,1/2+y
47 1/2-z,1/2+y,1/2-x
48 1/2+z,1/2+y,1/2+x
_cell_length_a                   16.8303(2)
_cell_length_b                   16.8303(2)
_cell_length_c                   16.8303(2)
_cell_angle_alpha                90
_cell_angle_beta                 90
_cell_angle_gamma                90
_cell_volume                     4767.33
loop_
_atom_site_label
_atom_site_type_symbol
_atom_site_fract_x
_atom_site_fract_y
_atom_site_fract_z
_atom_site_U_iso_or_equiv
_atom_site_thermal_displace_type
Zn1 Zn 0.5000 0.2500 0.0000 0.0516 Uani
N1 N 0.53642(9) 0.18275(9) 0.08956(10) 0.0630 Uani
C1 C 0.5042(3) 0.12078(8) 0.12078(8) 0.0576 Uani
C2 C 0.6089(3) 0.1818(6) 0.1261(5) 0.0950 Uani
H1 H 0.6523 0.2156 0.1136 0.1140 Uiso
H2 H 0.4575 0.0984 0.0984 0.0690 Uiso
N1U N 0.53642(9) 0.08956(10) 0.18275(9) 0.0630 Uani
C2U C 0.6089(3) 0.1261(5) 0.1818(6) 0.0950 Uani
H1U H 0.6523 0.1136 0.2156 0.1140 Uiso
N1D N 0.46358(9) 0.08956(10) -0.18275(9) 0.0630 Uani
C1D C 0.4958(3) 0.12078(8) -0.12078(8) 0.0576 Uani
C2D C 0.3911(3) 0.1261(5) -0.1818(6) 0.0950 Uani
H1D H 0.3477 0.1136 -0.2156 0.1140 Uiso
H2D H 0.5425 0.0984 -0.0984 0.0690 Uiso
N1H N 0.46358(9) 0.18275(9) -0.08956(10) 0.0630 Uani
C2H C 0.3911(3) 0.1818(6) -0.1261(5) 0.0950 Uani
H1H H 0.3477 0.2156 -0.1136 0.1140 Uiso
Zn1D Zn 0.5000 0.0000 -0.2500 0.0516 Uani
Zn1F Zn 0.5000 0.0000 0.2500 0.0516 Uani
N1EA N 0.41044(10) 0.31725(9) 0.03642(9) 0.0630 Uani
N1GA N 0.58956(10) 0.31725(9) -0.03642(9) 0.0630 Uani
loop_
_atom_site_aniso_label
_atom_site_aniso_U_11
_atom_site_aniso_U_22
_atom_site_aniso_U_33
_atom_site_aniso_U_23
_atom_site_aniso_U_13
_atom_site_aniso_U_12
Zn1 0.05506(17) 0.04471(19) 0.05506(17) 0.000 0.000 0.000
N1 0.0575(7) 0.0608(7) 0.0708(9) 0.0161(7) -0.0053(7) -0.0033(6)
C1 0.0625(12) 0.0552(6) 0.0552(6) 0.0006(7) -0.0036(11) -0.0036(11)
C2 0.056(2) 0.108(5) 0.121(4) 0.053(4) -0.015(2) -0.021(2)
N1U 0.0575 0.0708 0.0608 0.0161 -0.0033 -0.0053
C2U 0.056 0.121 0.108 0.053 -0.021 -0.015
N1D 0.0575 0.0708 0.0608 -0.0161 -0.0033 0.0053
C1D 0.0625 0.0552 0.0552 -0.0006 -0.0036 0.0036
C2D 0.056 0.121 0.108 -0.053 -0.021 0.015
N1H 0.0575 0.0608 0.0708 -0.0161 -0.0053 0.0033
C2H 0.056 0.108 0.121 -0.053 -0.015 0.021
Zn1D 0.05506 0.05506 0.04471 0 0 0
Zn1F 0.05506 0.05506 0.04471 0 0 0
N1EA 0.0708 0.0608 0.0575 0.0033 0.0053 0.0161
N1GA 0.0708 0.0608 0.0575 -0.0033 0.0053 -0.0161
loop_
_geom_bond_atom_site_label_1
_geom_bond_atom_site_label_2
_geom_bond_site_symmetry_1
_geom_bond_site_symmetry_2
Zn1 N1 1_555 1_555
N1 C1 1_555 1_555
C1 H2 1_555 1_555
C2 N1 1_555 1_555
H1 C2 1_555 1_555
N1U C1 1_555 1_555
C2U C2 1_555 1_555
H1U C2U 1_555 1_555
N1D C1D 1_555 1_555
C1D H2D 1_555 1_555
C2D N1D 1_555 1_555
H1D C2D 1_555 1_555
N1H Zn1 1_555 1_555
C2H C2D 1_555 1_555
H1H C2H 1_555 1_555
Zn1D N1D 1_555 1_555
Zn1F N1U 1_555 1_555
N1EA Zn1 1_555 1_555
N1GA Zn1 1_555 1_555
N1U C2U 1_555 1_555
C1D N1H 1_555 1_555
N1H C2H 1_555 1_555

#END
