
#######################################################################
#
#                 Cambridge Crystallographic Data Centre
#                                CCDC 
#
#######################################################################
#
# If this CIF has been generated from an entry in the Cambridge 
# Structural Database, then it will include bibliographic, chemical, 
# crystal, experimental, refinement or atomic coordinate data resulting 
# from the CCDC's data processing and validation procedures.
#
#######################################################################

data_NAVLIG
_chemical_formula_moiety         '(C48 H40 Cu2 N9 O3 1+)n'
_symmetry_cell_setting           tetragonal
_symmetry_space_group_name_H-M   'I -4'
_symmetry_Int_Tables_number      82
_space_group_name_Hall           'I -4'
loop_
_symmetry_equiv_pos_site_id
_symmetry_equiv_pos_as_xyz
1 x,y,z
2 -x,-y,z
3 y,-x,-z
4 -y,x,-z
5 1/2+x,1/2+y,1/2+z
6 1/2-x,1/2-y,1/2+z
7 1/2+y,1/2-x,1/2-z
8 1/2-y,1/2+x,1/2-z
_cell_length_a                   17.398(3)
_cell_length_b                   17.398(3)
_cell_length_c                   8.0808(16)
_cell_angle_alpha                90
_cell_angle_beta                 90
_cell_angle_gamma                90
_cell_volume                     2445.98
loop_
_atom_site_label
_atom_site_type_symbol
_atom_site_fract_x
_atom_site_fract_y
_atom_site_fract_z
Cu1 Cu 0.0000 0.0000 0.0000
Cu2 Cu -0.5000 0.0000 1.2500
N1 N -0.0931(4) -0.0012(5) 0.1562(13)
N2 N -0.4083(6) 0.0027(6) 1.1013(14)
C1 C -0.0942(7) -0.0528(7) 0.2753(17)
H1 H -0.0618 -0.0952 0.2673
C2 C -0.1411(6) -0.0465(6) 0.4103(18)
H2 H -0.1347 -0.0795 0.4997
C3 C -0.1999(8) 0.0105(6) 0.4146(16)
C4 C -0.1952(6) 0.0624(6) 0.2851(16)
H3 H -0.2289 0.1038 0.2821
C5 C -0.1418(5) 0.0542(5) 0.1607(18)
H4 H -0.1410 0.0904 0.0761
C6 C -0.2539(6) 0.0211(6) 0.5497(16)
H5 H -0.2881 0.0621 0.5420
C7 C -0.2582(6) -0.0219(7) 0.6797(19)
H6 H -0.2282 -0.0661 0.6768
C8 C -0.3036(6) -0.0113(6) 0.8314(15)
C9 C -0.3039(6) -0.0637(6) 0.9571(19)
H7 H -0.2708 -0.1057 0.9552
C10 C -0.3538(7) -0.0531(6) 1.0857(16)
H8 H -0.3501 -0.0879 1.1726
C11 C -0.3987(8) 0.0559(9) 0.985(2)
H9 H -0.4292 0.0997 0.9911
C12 C -0.3470(7) 0.0512(7) 0.8547(19)
H10 H -0.3425 0.0924 0.7820
Cu2_2 Cu 0.5000 0.0000 1.2500
Cu2B Cu 0.0000 0.5000 -1.2500
Cu2B_2 Cu 0.0000 -0.5000 -1.2500
N1A N 0.0931(4) 0.0012(5) 0.1562(13)
N1B N -0.0012(5) 0.0931(4) -0.1562(13)
N1C N 0.0012(5) -0.0931(4) -0.1562(13)
N2A N 0.4083(6) -0.0027(6) 1.1013(14)
N2B N 0.0027(6) 0.4083(6) -1.1013(14)
N2C N -0.0027(6) -0.4083(6) -1.1013(14)
N2A_2 N -0.5917(6) -0.0027(6) 1.1013(14)
N2F N -0.4973(6) -0.0917(6) 1.3987(14)
N2G N -0.5027(6) 0.0917(6) 1.3987(14)
C1A C 0.0942(7) 0.0528(7) 0.2753(17)
C1B C -0.0528(7) 0.0942(7) -0.2753(17)
C1C C 0.0528(7) -0.0942(7) -0.2753(17)
H1A H 0.0618 0.0952 0.2673
H1B H -0.0952 0.0618 -0.2673
H1C H 0.0952 -0.0618 -0.2673
C2A C 0.1411(6) 0.0465(6) 0.4103(18)
C2B C -0.0465(6) 0.1411(6) -0.4103(18)
C2C C 0.0465(6) -0.1411(6) -0.4103(18)
H2A H 0.1347 0.0795 0.4997
H2B H -0.0795 0.1347 -0.4997
H2C H 0.0795 -0.1347 -0.4997
C3A C 0.1999(8) -0.0105(6) 0.4146(16)
C3B C 0.0105(6) 0.1999(8) -0.4146(16)
C3C C -0.0105(6) -0.1999(8) -0.4146(16)
C4A C 0.1952(6) -0.0624(6) 0.2851(16)
C4B C 0.0624(6) 0.1952(6) -0.2851(16)
C4C C -0.0624(6) -0.1952(6) -0.2851(16)
H3A H 0.2289 -0.1038 0.2821
H3B H 0.1038 0.2289 -0.2821
H3C H -0.1038 -0.2289 -0.2821
C5A C 0.1418(5) -0.0542(5) 0.1607(18)
C5B C 0.0542(5) 0.1418(5) -0.1607(18)
C5C C -0.0542(5) -0.1418(5) -0.1607(18)
H4A H 0.1410 -0.0904 0.0761
H4B H 0.0904 0.1410 -0.0761
H4C H -0.0904 -0.1410 -0.0761
C6A C 0.2539(6) -0.0211(6) 0.5497(16)
C6B C 0.0211(6) 0.2539(6) -0.5497(16)
C6C C -0.0211(6) -0.2539(6) -0.5497(16)
H5A H 0.2881 -0.0621 0.5420
H5B H 0.0621 0.2881 -0.5420
H5C H -0.0621 -0.2881 -0.5420
C7A C 0.2582(6) 0.0219(7) 0.6797(19)
C7B C -0.0219(7) 0.2582(6) -0.6797(19)
C7C C 0.0219(7) -0.2582(6) -0.6797(19)
H6A H 0.2282 0.0661 0.6768
H6B H -0.0661 0.2282 -0.6768
H6C H 0.0661 -0.2282 -0.6768
C8A C 0.3036(6) 0.0113(6) 0.8314(15)
C8B C -0.0113(6) 0.3036(6) -0.8314(15)
C8C C 0.0113(6) -0.3036(6) -0.8314(15)
C9A C 0.3039(6) 0.0637(6) 0.9571(19)
C9B C -0.0637(6) 0.3039(6) -0.9571(19)
C9C C 0.0637(6) -0.3039(6) -0.9571(19)
H7A H 0.2708 0.1057 0.9552
H7B H -0.1057 0.2708 -0.9552
H7C H 0.1057 -0.2708 -0.9552
C10A C 0.3538(7) 0.0531(6) 1.0857(16)
C10B C -0.0531(6) 0.3538(7) -1.0857(16)
C10C C 0.0531(6) -0.3538(7) -1.0857(16)
H8A H 0.3501 0.0879 1.1726
H8B H -0.0879 0.3501 -1.1726
H8C H 0.0879 -0.3501 -1.1726
C11A C 0.3987(8) -0.0559(9) 0.985(2)
C11B C 0.0559(9) 0.3987(8) -0.985(2)
C11C C -0.0559(9) -0.3987(8) -0.985(2)
H9A H 0.4292 -0.0997 0.9911
H9B H 0.0997 0.4292 -0.9911
H9C H -0.0997 -0.4292 -0.9911
C12A C 0.3470(7) -0.0512(7) 0.8547(19)
C12B C 0.0512(7) 0.3470(7) -0.8547(19)
C12C C -0.0512(7) -0.3470(7) -0.8547(19)
H10A H 0.3425 -0.0924 0.7820
H10B H 0.0924 0.3425 -0.7820
H10C H -0.0924 -0.3425 -0.7820
N3 N -0.2179(18) 0.2344(18) 0.702(5)
O1 O -0.185(2) 0.291(2) 0.642(5)
O2 O -0.258(3) 0.194(2) 0.611(6)
O3 O -0.210(3) 0.216(3) 0.849(5)
loop_
_geom_bond_atom_site_label_1
_geom_bond_atom_site_label_2
_geom_bond_site_symmetry_1
_geom_bond_site_symmetry_2
Cu1 N1 1_555 1_555
Cu2 N2 1_555 1_555
N1 C1 1_555 1_555
N2 C10 1_555 1_555
C1 H1 1_555 1_555
C2 C1 1_555 1_555
H2 C2 1_555 1_555
C3 C2 1_555 1_555
C4 C3 1_555 1_555
H3 C4 1_555 1_555
C5 N1 1_555 1_555
H4 C5 1_555 1_555
C6 C3 1_555 1_555
H5 C6 1_555 1_555
C7 C6 1_555 1_555
H6 C7 1_555 1_555
C8 C7 1_555 1_555
C9 C8 1_555 1_555
H7 C9 1_555 1_555
C10 C9 1_555 1_555
H8 C10 1_555 1_555
C11 N2 1_555 1_555
H9 C11 1_555 1_555
C12 C8 1_555 1_555
H10 C12 1_555 1_555
N3 O1 1_555 1_555
O2 N3 1_555 1_555
O3 N3 1_555 1_555
Cu2_2 N2A 1_555 1_555
Cu2B N2B 1_555 1_555
Cu2B_2 N2C 1_555 1_555
N1A Cu1 1_555 1_555
N1B Cu1 1_555 1_555
N1C Cu1 1_555 1_555
N2A C10A 1_555 1_555
N2B C10B 1_555 1_555
N2C C10C 1_555 1_555
N2A_2 Cu2 1_555 1_555
N2F Cu2 1_555 1_555
N2G Cu2 1_555 1_555
C1A N1A 1_555 1_555
C1B N1B 1_555 1_555
C1C N1C 1_555 1_555
H1A C1A 1_555 1_555
H1B C1B 1_555 1_555
H1C C1C 1_555 1_555
C2A C1A 1_555 1_555
C2B C1B 1_555 1_555
C2C C1C 1_555 1_555
H2A C2A 1_555 1_555
H2B C2B 1_555 1_555
H2C C2C 1_555 1_555
C3A C2A 1_555 1_555
C3B C2B 1_555 1_555
C3C C2C 1_555 1_555
C4A C3A 1_555 1_555
C4B C3B 1_555 1_555
C4C C3C 1_555 1_555
H3A C4A 1_555 1_555
H3B C4B 1_555 1_555
H3C C4C 1_555 1_555
C5A N1A 1_555 1_555
C5B N1B 1_555 1_555
C5C N1C 1_555 1_555
H4A C5A 1_555 1_555
H4B C5B 1_555 1_555
H4C C5C 1_555 1_555
C6A C3A 1_555 1_555
C6B C3B 1_555 1_555
C6C C3C 1_555 1_555
H5A C6A 1_555 1_555
H5B C6B 1_555 1_555
H5C C6C 1_555 1_555
C7A C6A 1_555 1_555
C7B C6B 1_555 1_555
C7C C6C 1_555 1_555
H6A C7A 1_555 1_555
H6B C7B 1_555 1_555
H6C C7C 1_555 1_555
C8A C7A 1_555 1_555
C8B C7B 1_555 1_555
C8C C7C 1_555 1_555
C9A C8A 1_555 1_555
C9B C8B 1_555 1_555
C9C C8C 1_555 1_555
H7A C9A 1_555 1_555
H7B C9B 1_555 1_555
H7C C9C 1_555 1_555
C10A C9A 1_555 1_555
C10B C9B 1_555 1_555
C10C C9C 1_555 1_555
H8A C10A 1_555 1_555
H8B C10B 1_555 1_555
H8C C10C 1_555 1_555
C11A N2A 1_555 1_555
C11B N2B 1_555 1_555
C11C N2C 1_555 1_555
H9A C11A 1_555 1_555
H9B C11B 1_555 1_555
H9C C11C 1_555 1_555
C12A C8A 1_555 1_555
C12B C8B 1_555 1_555
C12C C8C 1_555 1_555
H10A C12A 1_555 1_555
H10B C12B 1_555 1_555
H10C C12C 1_555 1_555
C4 C5 1_555 1_555
C11 C12 1_555 1_555
C4A C5A 1_555 1_555
C4B C5B 1_555 1_555
C4C C5C 1_555 1_555
C11A C12A 1_555 1_555
C11B C12B 1_555 1_555
C11C C12C 1_555 1_555

#END
