
#######################################################################
#
#                 Cambridge Crystallographic Data Centre
#                                CCDC 
#
#######################################################################
#
# If this CIF has been generated from an entry in the Cambridge 
# Structural Database, then it will include bibliographic, chemical, 
# crystal, experimental, refinement or atomic coordinate data resulting 
# from the CCDC's data processing and validation procedures.
#
#######################################################################

data_XUGSUO
_chemical_formula_moiety         'C390 H198 O158 S24 Zn70'
_symmetry_cell_setting           hexagonal
_symmetry_space_group_name_H-M   'P 63/m'
_symmetry_Int_Tables_number      176
_space_group_name_Hall           '-P 6c'
loop_
_symmetry_equiv_pos_site_id
_symmetry_equiv_pos_as_xyz
1 x,y,z
2 x-y,x,1/2+z
3 -y,x-y,z
4 -x,-y,1/2+z
5 -x+y,-x,z
6 y,-x+y,1/2+z
7 -x,-y,-z
8 -x+y,-x,1/2-z
9 y,-x+y,-z
10 x,y,1/2-z
11 x-y,x,-z
12 -y,x-y,1/2-z
_cell_length_a                   42.1589(8)
_cell_length_b                   42.1589(8)
_cell_length_c                   52.5682(10)
_cell_angle_alpha                90
_cell_angle_beta                 90
_cell_angle_gamma                120
_cell_volume                     80915.6
loop_
_atom_site_label
_atom_site_type_symbol
_atom_site_fract_x
_atom_site_fract_y
_atom_site_fract_z
Zn1 Zn 0.53808(2) 0.91495(2) 0.083150(16)
Zn2 Zn 0.61069(2) 0.95512(2) 0.049620(14)
Zn3 Zn 0.581820(19) 0.87408(2) 0.071300(14)
Zn4 Zn 0.61543(2) 0.94249(2) 0.108230(14)
Zn5 Zn 0.71073(2) 0.73619(2) 0.219729(14)
Zn6 Zn 0.74631(3) 0.81050(3) 0.2500
Zn7 Zn 0.78396(3) 0.76052(3) 0.2500
S1 S 0.55091(10) 1.00582(10) 0.00030(7)
H1 H 0.5815 1.0189 -0.0079
S2 S 0.48556(9) 0.96717(9) 0.03058(6)
C1 C 0.69593(10) 0.85563(10) 0.19052(7)
H2 H 0.7088 0.8736 0.2032
S3 S 0.66430(10) 0.78941(10) 0.16068(7)
C2 C 0.63405(9) 0.82082(9) 0.12675(6)
H3 H 0.6213 0.8032 0.1139
S4 S 0.66617(10) 0.88609(10) 0.15697(7)
O1 O 0.58647(8) 0.92160(8) 0.07794(6)
O2 O 0.73828(12) 0.76108(13) 0.2500
O3 O 0.57980(10) 0.97251(12) 0.03475(7)
O4 O 0.52742(10) 0.94237(10) 0.05787(8)
O5 O 0.53511(12) 0.93306(13) 0.11672(10)
O6 O 0.58984(14) 0.95300(15) 0.13376(9)
O7 O 0.67069(14) 0.65973(11) -0.10116(9)
O8 O 0.65875(13) 0.65640(11) -0.06025(9)
O9 O 0.62215(13) 0.93002(11) 0.02283(7)
O10 O 0.60087(11) 0.87457(13) 0.03756(9)
O11 O 0.53047(13) 0.83556(12) 0.07154(9)
O12 O 0.50049(13) 0.86409(10) 0.08185(11)
O13 O 0.60818(10) 0.86198(12) 0.09753(8)
O14 O 0.63028(13) 0.91023(13) 0.12265(9)
O15 O 0.82353(16) 0.8110(2) 0.2500
O16 O 0.79839(18) 0.84576(16) 0.2500
O17 O 0.72310(14) 0.81862(13) 0.22056(9)
O18 O 0.69634(13) 0.76523(13) 0.19875(8)
O19 O 0.73774(10) 0.94779(12) -0.21985(7)
O20 O 0.72346(14) 0.98331(15) -0.19877(8)
O21 O 0.30854(12) 0.97640(13) 0.22881(8)
C3 C 0.54700(18) 0.9627(2) 0.03997(14)
C4 C 0.52790(16) 0.97630(17) 0.02579(12)
C5 C 0.51476(16) 1.00897(15) -0.00818(11)
C6 C 0.5013(2) 0.8354(3) 0.07598(14)
C7 C 0.4664(3) 0.7998(2) 0.07496(18)
C8 C 0.4373(2) 0.7984(2) 0.0836(2)
H4 H 0.4383 0.8191 0.0916
C9 C 0.4045(3) 0.7663(2) 0.0811(3)
H5 H 0.3823 0.7662 0.0844
C10 C 0.4028(3) 0.7353(3) 0.07416(19)
C11 C 0.4325(2) 0.7370(3) 0.0653(2)
H6 H 0.4318 0.7159 0.0582
C12 C 0.4658(2) 0.7707(2) 0.0665(3)
H7 H 0.4879 0.7721 0.0609
C13 C 0.3660(3) 0.6991(2) 0.07310(19)
C14 C 0.3654(2) 0.6667(2) 0.0721(2)
H8 H 0.3878 0.6666 0.0707
C15 C 0.5588(3) 0.9469(3) 0.13459(17)
C16 C 0.5452(3) 0.9566(3) 0.15799(17)
C17 C 0.5700(3) 0.9756(3) 0.1763(2)
H9 H 0.5951 0.9839 0.1732
C18 C 0.5591(3) 0.9832(3) 0.20004(19)
H10 H 0.5761 0.9962 0.2133
C19 C 0.5213(3) 0.9701(4) 0.2025(2)
C20 C 0.4943(3) 0.9505(3) 0.1835(2)
H11 H 0.4692 0.9428 0.1860
C21 C 0.5073(3) 0.9432(4) 0.16056(19)
H12 H 0.4908 0.9296 0.1473
C22 C 0.6159(2) 0.8978(2) 0.02030(19)
C23 C 0.6279(2) 0.8886(2) -0.00219(15)
C24 C 0.6495(3) 0.9126(3) -0.0203(2)
H13 H 0.6588 0.9381 -0.0179
C25 C 0.6582(3) 0.9003(3) -0.04231(17)
H14 H 0.6725 0.9182 -0.0547
C26 C 0.6485(3) 0.8663(3) -0.04753(19)
C27 C 0.6231(3) 0.8423(4) -0.0298(2)
H15 H 0.6111 0.8168 -0.0338
C28 C 0.6134(3) 0.8522(3) -0.00649(18)
H16 H 0.5976 0.8342 0.0055
C29 C 0.6597(3) 0.8557(3) -0.06953(18)
C30 C 0.6701(2) 0.8765(3) -0.09154(16)
H17 H 0.6708 0.8993 -0.0924
C31 C 0.6792(3) 0.8630(3) -0.11176(17)
C32 C 0.6802(2) 0.8303(3) -0.11150(15)
H18 H 0.6878 0.8224 -0.1260
C33 C 0.6694(3) 0.8093(3) -0.08885(19)
C34 C 0.6605(3) 0.8214(3) -0.06752(17)
H19 H 0.6550 0.8082 -0.0520
C35 C 0.6689(3) 0.7743(3) -0.08724(19)
C36 C 0.6700(4) 0.7598(5) -0.0645(2)
H20 H 0.6736 0.7734 -0.0493
C37 C 0.6656(3) 0.7236(4) -0.06340(18)
H21 H 0.6617 0.7115 -0.0475
C38 C 0.6671(2) 0.7073(2) -0.08449(18)
C39 C 0.6685(3) 0.7231(3) -0.10673(16)
H22 H 0.6692 0.7117 -0.1222
C40 C 0.6690(3) 0.7567(4) -0.1073(2)
H23 H 0.6695 0.7671 -0.1234
C41 C 0.66528(19) 0.6717(2) -0.08148(14)
C42 C 0.6920(3) 0.8861(3) -0.1350(2)
C43 C 0.7064(3) 0.8813(4) -0.1551(2)
H24 H 0.7105 0.8611 -0.1550
C44 C 0.7166(3) 0.9029(3) -0.17741(17)
H25 H 0.7266 0.8965 -0.1914
C45 C 0.7128(2) 0.9300(2) -0.17894(13)
C46 C 0.6944(3) 0.9332(4) -0.1601(2)
H26 H 0.6854 0.9498 -0.1618
C47 C 0.6873(4) 0.9131(5) -0.1375(2)
H27 H 0.6785 0.9204 -0.1232
C48 C 0.7272(2) 0.9563(2) -0.20086(14)
C49 C 0.7039(2) 0.7967(3) 0.20259(17)
C50 C 0.6883(2) 0.8143(2) 0.18424(14)
C51 C 0.6715(2) 0.8524(2) 0.16525(14)
C52 C 0.6571(2) 0.8217(2) 0.15127(15)
C53 C 0.64100(19) 0.8620(2) 0.13243(15)
C54 C 0.6256(3) 0.8791(2) 0.11710(16)
C55 C 0.3227(4) 0.9769(4) 0.2500
C56 C 0.3569(5) 0.9776(5) 0.2500
C57 C 0.3748(3) 0.9821(3) 0.23022(18)
H28 H 0.3654 0.9857 0.2148
C58 C 0.4088(3) 0.9821(3) 0.22928(17)
H29 H 0.4197 0.9824 0.2134
C59 C 0.4241(4) 0.9818(5) 0.2500
C60 C 0.4634(4) 0.9875(5) 0.2500
C61 C 0.5227(4) 0.9760(4) 0.2500
H30 H 0.5448 0.9752 0.2500
C62 C 0.5062(4) 0.9766(3) 0.22689(18)
C63 C 0.4776(3) 0.9836(3) 0.22706(17)
H31 H 0.4675 0.9857 0.2114
C64 C 0.8629(3) 0.8747(3) 0.2500
C65 C 0.8633(4) 0.9030(4) 0.2500
H32 H 0.8412 0.9039 0.2500
C66 C 0.8989(5) 0.9361(5) 0.2500
H33 H 0.9002 0.9593 0.2500
C67 C 0.9291(4) 0.9347(4) 0.2500
C68 C 0.9257(5) 0.9037(6) 0.2500
H34 H 0.9470 0.9014 0.2500
C69 C 0.8911(5) 0.8720(4) 0.2500
H35 H 0.8890 0.8485 0.2500
C70 C 0.9658(4) 0.9688(4) 0.2500
C71 C 0.9977(4) 0.9655(3) 0.2500
H36 H 0.9958 0.9421 0.2500
C72 C 0.8250(4) 0.8423(4) 0.2500
Zn1I Zn 0.53808(2) 0.91495(2) 0.416850(16)
Zn1D Zn 0.37687(3) 0.46192(2) 0.083150(16)
Zn1G Zn 0.37687(3) 0.46192(2) 0.416850(16)
Zn1B Zn 0.08505(2) 0.62313(3) 0.083150(16)
Zn1K Zn 0.08505(2) 0.62313(3) 0.416850(16)
Zn1F Zn 0.46192(2) 1.08505(2) -0.083150(16)
Zn1C Zn 0.46192(2) 1.08505(2) 0.583150(16)
Zn1J Zn 0.62313(3) 0.53808(2) -0.083150(16)
Zn2I Zn 0.61069(2) 0.95512(2) 0.450380(14)
Zn2J Zn 0.65557(3) 0.61069(2) -0.049620(14)
Zn2B Zn 1.04488(2) 0.65557(3) 0.049620(14)
Zn2K Zn 1.04488(2) 0.65557(3) 0.450380(14)
Zn2G Zn 1.34443(3) 1.38931(2) 0.450380(14)
Zn2F Zn 0.38931(2) 1.04488(2) -0.049620(14)
Zn2H Zn 0.95512(2) 1.34443(3) -0.049620(14)
Zn2A Zn 0.65557(3) 0.61069(2) 0.549620(14)
Zn2C Zn 1.38931(2) 1.04488(2) 0.549620(14)
Zn2D Zn 1.34443(3) 1.38931(2) 0.049620(14)
Zn2F_2 Zn 1.38931(2) 1.04488(2) -0.049620(14)
Zn2C_2 Zn 0.38931(2) 1.04488(2) 0.549620(14)
Zn2D_2 Zn 0.34443(3) 0.38931(2) 0.049620(14)
Zn2G_2 Zn 0.34443(3) 0.38931(2) 0.450380(14)
Zn2B_2 Zn 0.04488(2) 0.65557(3) 0.049620(14)
Zn2K_2 Zn 0.04488(2) 0.65557(3) 0.450380(14)
Zn3I Zn 0.581820(19) 0.87408(2) 0.428700(14)
Zn3H Zn 0.87408(2) 1.292260(28) -0.071300(14)
Zn3J Zn 0.707740(28) 0.581820(19) -0.071300(14)
Zn3A Zn 0.707740(28) 0.581820(19) 0.571300(14)
Zn3C Zn 1.418180(19) 1.12592(2) 0.571300(14)
Zn3D Zn 0.292260(28) 0.418180(19) 0.071300(14)
Zn3B Zn 0.12592(2) 0.707740(28) 0.071300(14)
Zn3B_2 Zn 1.12592(2) 0.707740(28) 0.071300(14)
Zn3K Zn 1.12592(2) 0.707740(28) 0.428700(14)
Zn3D_2 Zn 1.292260(28) 1.418180(19) 0.071300(14)
Zn3G Zn 1.292260(28) 1.418180(19) 0.428700(14)
Zn3F Zn 1.418180(19) 1.12592(2) -0.071300(14)
Zn3G_2 Zn 0.292260(28) 0.418180(19) 0.428700(14)
Zn3K_2 Zn 0.12592(2) 0.707740(28) 0.428700(14)
Zn4I Zn 0.61543(2) 0.94249(2) 0.391770(14)
Zn4D Zn 0.32706(3) 0.38457(2) 0.108230(14)
Zn4G Zn 0.32706(3) 0.38457(2) 0.391770(14)
Zn4J Zn 0.67294(3) 0.61543(2) -0.108230(14)
Zn4B Zn 1.05751(2) 0.67294(3) 0.108230(14)
Zn4K Zn 1.05751(2) 0.67294(3) 0.391770(14)
Zn4D_2 Zn 1.32706(3) 1.38457(2) 0.108230(14)
Zn4G_2 Zn 1.32706(3) 1.38457(2) 0.391770(14)
Zn4B_2 Zn 0.05751(2) 0.67294(3) 0.108230(14)
Zn4K_2 Zn 0.05751(2) 0.67294(3) 0.391770(14)
Zn5I Zn 0.71073(2) 0.73619(2) 0.280271(14)
Zn5B Zn 1.26381(2) 0.97454(3) 0.219729(14)
Zn5D Zn 1.02546(3) 1.28927(2) 0.219729(14)
Zn5K Zn 1.26381(2) 0.97454(3) 0.280271(14)
Zn5G Zn 1.02546(3) 1.28927(2) 0.280271(14)
Zn5H Zn 0.73619(2) 1.02546(3) -0.219729(14)
Zn5B_2 Zn 0.26381(2) 0.97454(3) 0.219729(14)
Zn5K_2 Zn 0.26381(2) 0.97454(3) 0.280271(14)
Zn5D_2 Zn 0.02546(3) 0.28927(2) 0.219729(14)
Zn5G_2 Zn 0.02546(3) 0.28927(2) 0.280271(14)
Zn6B Zn 1.18950(3) 0.93581(4) 0.2500
Zn6D Zn 1.06419(4) 1.25369(3) 0.2500
Zn7B Zn 1.23948(3) 1.02344(4) 0.2500
Zn7D Zn 0.97656(4) 1.21604(3) 0.2500
Zn7E Zn 0.76052(3) 0.97656(4) -0.2500
S1F S 0.44909(10) 0.99418(10) -0.00030(7)
S1I S 0.55091(10) 1.00582(10) 0.49970(7)
S1C S 0.44909(10) 0.99418(10) 0.50030(7)
S1D S 0.45491(14) 0.44909(10) 0.00030(7)
S1J S 0.54509(14) 0.55091(10) -0.00030(7)
H1F H 0.4185 0.9811 0.0079
H1I H 0.5815 1.0189 0.5079
H1C H 0.4185 0.9811 0.4921
H1D H 0.4374 0.4185 -0.0079
H1J H 0.5626 0.5815 0.0079
S2F S 0.51444(9) 1.03283(9) -0.03058(6)
S2I S 0.48556(9) 0.96717(9) 0.46942(6)
S2C S 0.51444(9) 1.03283(9) 0.53058(6)
S2D S 0.48161(13) 0.51444(9) 0.03058(6)
S2J S 0.51839(13) 0.48556(9) -0.03058(6)
C1I C 0.69593(10) 0.85563(10) 0.30948(7)
C1B C 1.14437(10) 0.84030(14) 0.19052(7)
C1K C 1.14437(10) 0.84030(14) 0.30948(7)
C1D C 1.15970(14) 1.30407(10) 0.19052(7)
C1G C 1.15970(14) 1.30407(10) 0.30948(7)
H2I H 0.7088 0.8736 0.2968
H2B H 1.1264 0.8352 0.2032
H2K H 1.1264 0.8352 0.2968
H2D H 1.1648 1.2912 0.2032
H2G H 1.1648 1.2912 0.2968
S3I S 0.66430(10) 0.78941(10) 0.33932(7)
S3B S 1.21059(10) 0.87489(14) 0.16068(7)
S3K S 1.21059(10) 0.87489(14) 0.33932(7)
S3D S 1.12511(14) 1.33570(10) 0.16068(7)
S3G S 1.12511(14) 1.33570(10) 0.33932(7)
C2I C 0.63405(9) 0.82082(9) 0.37325(6)
C2B C 1.17918(9) 0.81323(13) 0.12675(6)
C2K C 1.17918(9) 0.81323(13) 0.37325(6)
C2D C 1.18677(13) 1.36595(9) 0.12675(6)
C2G C 1.18677(13) 1.36595(9) 0.37325(6)
H3I H 0.6213 0.8032 0.3861
H3B H 1.1968 0.8181 0.1139
H3K H 1.1968 0.8181 0.3861
H3D H 1.1819 1.3787 0.1139
H3G H 1.1819 1.3787 0.3861
S4I S 0.66617(10) 0.88609(10) 0.34303(7)
S4B S 1.11391(10) 0.78008(14) 0.15697(7)
S4K S 1.11391(10) 0.78008(14) 0.34303(7)
S4D S 1.21992(14) 1.33383(10) 0.15697(7)
S4G S 1.21992(14) 1.33383(10) 0.34303(7)
O1I O 0.58647(8) 0.92160(8) 0.42206(6)
O1D O 0.33513(11) 0.41353(8) 0.07794(6)
O1G O 0.33513(11) 0.41353(8) 0.42206(6)
O1B O 0.07840(8) 0.66487(11) 0.07794(6)
O1K O 0.07840(8) 0.66487(11) 0.42206(6)
O1J O 0.66487(11) 0.58647(8) -0.07794(6)
O1B_2 O 1.07840(8) 0.66487(11) 0.07794(6)
O1K_2 O 1.07840(8) 0.66487(11) 0.42206(6)
O1G_2 O 1.33513(11) 1.41353(8) 0.42206(6)
O1H O 0.92160(8) 1.33513(11) -0.07794(6)
O1A O 0.66487(11) 0.58647(8) 0.57794(6)
O1C O 1.41353(8) 1.07840(8) 0.57794(6)
O2B O 1.23892(13) 0.97720(18) 0.2500
O2D O 1.02280(18) 1.26172(12) 0.2500
O3F O 0.42020(10) 1.02749(12) -0.03475(7)
O3I O 0.57980(10) 0.97251(12) 0.46525(7)
O3C O 0.42020(10) 1.02749(12) 0.53475(7)
O3D O 0.39271(16) 0.42020(10) 0.03475(7)
O3J O 0.60729(16) 0.57980(10) -0.03475(7)
O3B O 1.02749(12) 0.60729(16) 0.03475(7)
O3K O 1.02749(12) 0.60729(16) 0.46525(7)
O3G O 1.39271(16) 1.42020(10) 0.46525(7)
O4F O 0.47258(10) 1.05763(10) -0.05787(8)
O4I O 0.52742(10) 0.94237(10) 0.44213(8)
O4C O 0.47258(10) 1.05763(10) 0.55787(8)
O4D O 0.41495(14) 0.47258(10) 0.05787(8)
O4J O 0.58505(14) 0.52742(10) -0.05787(8)
O4G O 0.41495(14) 0.47258(10) 0.44213(8)
O4B O 0.05763(10) 0.58505(14) 0.05787(8)
O4K O 0.05763(10) 0.58505(14) 0.44213(8)
O5I O 0.53511(12) 0.93306(13) 0.38328(10)
O5D O 0.39795(18) 0.46489(12) 0.11672(10)
O5G O 0.39795(18) 0.46489(12) 0.38328(10)
O5B O 0.06694(13) 0.60205(18) 0.11672(10)
O5K O 0.06694(13) 0.60205(18) 0.38328(10)
O6I O 0.58984(14) 0.95300(15) 0.36624(9)
O6D O 0.36316(21) 0.41016(14) 0.13376(9)
O6G O 0.36316(21) 0.41016(14) 0.36624(9)
O6B O 0.04700(15) 0.63684(21) 0.13376(9)
O6K O 0.04700(15) 0.63684(21) 0.36624(9)
O6J O 0.63684(21) 0.58984(14) -0.13376(9)
O6B_2 O 1.04700(15) 0.63684(21) 0.13376(9)
O7H O 0.65973(11) 0.98904(18) 0.10116(9)
O7J O 1.01096(18) 0.67069(14) 0.10116(9)
O7A O 1.01096(18) 0.67069(14) 0.39884(9)
O7C O 1.32931(14) 1.34027(11) 0.39884(9)
O7F O 1.32931(14) 1.34027(11) 0.10116(9)
O7E O 0.65973(11) 0.98904(18) 0.39884(9)
O7F_2 O 0.32931(14) 0.34027(11) 0.10116(9)
O7C_2 O 0.32931(14) 0.34027(11) 0.39884(9)
O8H O 0.65640(11) 0.99765(17) 0.06025(9)
O8J O 1.00235(17) 0.65875(13) 0.06025(9)
O8A O 1.00235(17) 0.65875(13) 0.43975(9)
O8C O 1.34125(13) 1.34360(11) 0.43975(9)
O8F O 1.34125(13) 1.34360(11) 0.06025(9)
O8E O 0.65640(11) 0.99765(17) 0.43975(9)
O9H O 0.93002(11) 1.30787(17) -0.02283(7)
O9J O 0.69213(17) 0.62215(13) -0.02283(7)
O9A O 0.69213(17) 0.62215(13) 0.52283(7)
O9C O 1.37785(13) 1.06998(11) 0.52283(7)
O9F O 1.37785(13) 1.06998(11) -0.02283(7)
O9I O 0.62215(13) 0.93002(11) 0.47717(7)
O9B O 1.06998(11) 0.69213(17) 0.02283(7)
O9K O 1.06998(11) 0.69213(17) 0.47717(7)
O9G O 1.30787(17) 1.37785(13) 0.47717(7)
O10H O 0.87457(13) 1.27370(17) -0.03756(9)
O10J O 0.72630(17) 0.60087(11) -0.03756(9)
O10A O 0.72630(17) 0.60087(11) 0.53756(9)
O10C O 1.39913(11) 1.12543(13) 0.53756(9)
O10F O 1.39913(11) 1.12543(13) -0.03756(9)
O10I O 0.60087(11) 0.87457(13) 0.46244(9)
O11D O 0.30509(18) 0.46953(13) 0.07154(9)
O11B O 0.16444(12) 0.69491(18) 0.07154(9)
O11I O 0.53047(13) 0.83556(12) 0.42846(9)
O11G O 0.30509(18) 0.46953(13) 0.42846(9)
O11K O 0.16444(12) 0.69491(18) 0.42846(9)
O11H O 0.83556(12) 1.30509(18) -0.07154(9)
O11J O 0.69491(18) 0.53047(13) -0.07154(9)
O11A O 0.69491(18) 0.53047(13) 0.57154(9)
O11C O 1.46953(13) 1.16444(12) 0.57154(9)
O12D O 0.36360(16) 0.49951(13) 0.08185(11)
O12B O 0.13591(10) 0.63640(16) 0.08185(11)
O12I O 0.50049(13) 0.86409(10) 0.41815(11)
O12G O 0.36360(16) 0.49951(13) 0.41815(11)
O12K O 0.13591(10) 0.63640(16) 0.41815(11)
O13I O 0.60818(10) 0.86198(12) 0.40247(8)
O13B O 1.13802(12) 0.74620(16) 0.09753(8)
O13K O 1.13802(12) 0.74620(16) 0.40247(8)
O13D O 1.25380(16) 1.39182(10) 0.09753(8)
O13G O 1.25380(16) 1.39182(10) 0.40247(8)
O13H O 0.86198(12) 1.25380(16) -0.09753(8)
O13J O 0.74620(16) 0.60818(10) -0.09753(8)
O13A O 0.74620(16) 0.60818(10) 0.59753(8)
O13C O 1.39182(10) 1.13802(12) 0.59753(8)
O14I O 0.63028(13) 0.91023(13) 0.37735(9)
O14B O 1.08977(13) 0.72005(18) 0.12265(9)
O14K O 1.08977(13) 0.72005(18) 0.37735(9)
O14D O 1.27995(18) 1.36972(13) 0.12265(9)
O14G O 1.27995(18) 1.36972(13) 0.37735(9)
O14D_2 O 0.27995(18) 0.36972(13) 0.12265(9)
O14G_2 O 0.27995(18) 0.36972(13) 0.37735(9)
O14J O 0.72005(18) 0.63028(13) -0.12265(9)
O15B O 1.1890(2) 1.01253(26) 0.2500
O15D O 0.98747(26) 1.17647(16) 0.2500
O16B O 1.15424(16) 0.95263(24) 0.2500
O16D O 1.04737(24) 1.20161(18) 0.2500
O17I O 0.72310(14) 0.81862(13) 0.27944(9)
O17B O 1.18138(13) 0.90448(19) 0.22056(9)
O17K O 1.18138(13) 0.90448(19) 0.27944(9)
O17D O 1.09552(19) 1.27690(14) 0.22056(9)
O17G O 1.09552(19) 1.27690(14) 0.27944(9)
O18I O 0.69634(13) 0.76523(13) 0.30125(8)
O18B O 1.23477(13) 0.93111(18) 0.19875(8)
O18K O 1.23477(13) 0.93111(18) 0.30125(8)
O18D O 1.06889(18) 1.30366(13) 0.19875(8)
O18G O 1.06889(18) 1.30366(13) 0.30125(8)
O19H O 0.94779(12) 1.21005(16) 0.21985(7)
O19J O 0.78995(16) 0.73774(10) 0.21985(7)
O19A O 0.78995(16) 0.73774(10) 0.28015(7)
O19C O 1.26226(10) 1.05221(12) 0.28015(7)
O19F O 1.26226(10) 1.05221(12) 0.21985(7)
O19E O 0.94779(12) 1.21005(16) 0.28015(7)
O20H O 0.98331(15) 1.25985(21) 0.19877(8)
O20J O 0.74015(21) 0.72346(14) 0.19877(8)
O20A O 0.74015(21) 0.72346(14) 0.30123(8)
O20C O 1.27654(14) 1.01669(15) 0.30123(8)
O20F O 1.27654(14) 1.01669(15) 0.19877(8)
O20E O 0.98331(15) 1.25985(21) 0.30123(8)
O21I O 0.30854(12) 0.97640(13) 0.27119(8)
O21D O 0.66786(18) 0.69146(12) 0.22881(8)
O21G O 0.66786(18) 0.69146(12) 0.27119(8)
O21B O 0.02360(13) 0.33214(18) 0.22881(8)
O21K O 0.02360(13) 0.33214(18) 0.27119(8)
O21_2 O 1.30854(12) 0.97640(13) 0.22881(8)
O21B_2 O 1.02360(13) 1.33214(18) 0.22881(8)
O21I_2 O 1.30854(12) 0.97640(13) 0.27119(8)
O21K_2 O 1.02360(13) 1.33214(18) 0.27119(8)
C3F C 0.45300(18) 1.0373(2) -0.03997(14)
C3I C 0.54700(18) 0.9627(2) 0.46003(14)
C3C C 0.45300(18) 1.0373(2) 0.53997(14)
C3D C 0.41570(27) 0.45300(18) 0.03997(14)
C3J C 0.58430(27) 0.54700(18) -0.03997(14)
C4F C 0.47210(16) 1.02370(17) -0.02579(12)
C4I C 0.52790(16) 0.97630(17) 0.47421(12)
C4C C 0.47210(16) 1.02370(17) 0.52579(12)
C4D C 0.44840(23) 0.47210(16) 0.02579(12)
C4J C 0.55160(23) 0.52790(16) -0.02579(12)
C5F C 0.48524(16) 0.99103(15) 0.00818(11)
C5I C 0.51476(16) 1.00897(15) 0.50818(11)
C5C C 0.48524(16) 0.99103(15) 0.49182(11)
C5D C 0.49421(22) 0.48524(16) -0.00818(11)
C5J C 0.50579(22) 0.51476(16) 0.00818(11)
C6D C 0.3341(4) 0.4987(2) 0.07598(14)
C6B C 0.1646(3) 0.6659(4) 0.07598(14)
C6I C 0.5013(2) 0.8354(3) 0.42402(14)
C6G C 0.3341(4) 0.4987(2) 0.42402(14)
C6K C 0.1646(3) 0.6659(4) 0.42402(14)
C7D C 0.3334(4) 0.5336(3) 0.07496(18)
C7B C 0.2002(2) 0.6666(4) 0.07496(18)
C7I C 0.4664(3) 0.7998(2) 0.42504(18)
C7G C 0.3334(4) 0.5336(3) 0.42504(18)
C7K C 0.2002(2) 0.6666(4) 0.42504(18)
C8D C 0.3611(3) 0.5627(2) 0.0836(2)
C8B C 0.2016(2) 0.6389(3) 0.0836(2)
C8I C 0.4373(2) 0.7984(2) 0.4164(2)
C8G C 0.3611(3) 0.5627(2) 0.4164(2)
C8K C 0.2016(2) 0.6389(3) 0.4164(2)
H4D H 0.3808 0.5617 0.0916
H4B H 0.1809 0.6192 0.0916
H4I H 0.4383 0.8191 0.4084
H4G H 0.3808 0.5617 0.4084
H4K H 0.1809 0.6192 0.4084
C9D C 0.3618(4) 0.5955(3) 0.0811(3)
C9B C 0.2337(2) 0.6382(4) 0.0811(3)
C9I C 0.4045(3) 0.7663(2) 0.4189(3)
C9G C 0.3618(4) 0.5955(3) 0.4189(3)
C9K C 0.2337(2) 0.6382(4) 0.4189(3)
H5D H 0.3839 0.6177 0.0844
H5B H 0.2338 0.6161 0.0844
H5I H 0.3823 0.7662 0.4156
H5G H 0.3839 0.6177 0.4156
H5K H 0.2338 0.6161 0.4156
C10D C 0.3325(4) 0.5972(3) 0.07416(19)
C10B C 0.2647(3) 0.6675(4) 0.07416(19)
C10I C 0.4028(3) 0.7353(3) 0.42584(19)
C10G C 0.3325(4) 0.5972(3) 0.42584(19)
C10K C 0.2647(3) 0.6675(4) 0.42584(19)
C11D C 0.3045(4) 0.5675(2) 0.0653(2)
C11B C 0.2630(3) 0.6955(4) 0.0653(2)
C11I C 0.4325(2) 0.7370(3) 0.4347(2)
C11G C 0.3045(4) 0.5675(2) 0.4347(2)
C11K C 0.2630(3) 0.6955(4) 0.4347(2)
H6D H 0.2841 0.5682 0.0582
H6B H 0.2841 0.7159 0.0582
H6I H 0.4318 0.7159 0.4418
H6G H 0.2841 0.5682 0.4418
H6K H 0.2841 0.7159 0.4418
C12D C 0.3049(3) 0.5342(2) 0.0665(3)
C12B C 0.2293(2) 0.6951(3) 0.0665(3)
C12I C 0.4658(2) 0.7707(2) 0.4335(3)
C12G C 0.3049(3) 0.5342(2) 0.4335(3)
C12K C 0.2293(2) 0.6951(3) 0.4335(3)
H7D H 0.2842 0.5121 0.0609
H7B H 0.2279 0.7158 0.0609
H7I H 0.4879 0.7721 0.4391
H7G H 0.2842 0.5121 0.4391
H7K H 0.2279 0.7158 0.4391
C13D C 0.3331(4) 0.6340(3) 0.07310(19)
C13B C 0.3009(2) 0.6669(4) 0.07310(19)
C13I C 0.3660(3) 0.6991(2) 0.42690(19)
C13G C 0.3331(4) 0.6340(3) 0.42690(19)
C13K C 0.3009(2) 0.6669(4) 0.42690(19)
C14D C 0.3013(3) 0.6346(2) 0.0721(2)
C14B C 0.3333(2) 0.6987(3) 0.0721(2)
C14I C 0.3654(2) 0.6667(2) 0.4279(2)
C14G C 0.3013(3) 0.6346(2) 0.4279(2)
C14K C 0.3333(2) 0.6987(3) 0.4279(2)
H8B H 0.3334 0.7212 0.0707
H8D H 0.2788 0.6122 0.0707
H8I H 0.3878 0.6666 0.4293
H8K H 0.3334 0.7212 0.4293
H8G H 0.2788 0.6122 0.4293
C15I C 0.5588(3) 0.9469(3) 0.36541(17)
C15D C 0.3881(4) 0.4412(3) 0.13459(17)
C15G C 0.3881(4) 0.4412(3) 0.36541(17)
C15B C 0.0531(3) 0.6119(4) 0.13459(17)
C15K C 0.0531(3) 0.6119(4) 0.36541(17)
C16I C 0.5452(3) 0.9566(3) 0.34201(17)
C16D C 0.4114(4) 0.4548(3) 0.15799(17)
C16G C 0.4114(4) 0.4548(3) 0.34201(17)
C16B C 0.0434(3) 0.5886(4) 0.15799(17)
C16K C 0.0434(3) 0.5886(4) 0.34201(17)
C17I C 0.5700(3) 0.9756(3) 0.3237(2)
C17D C 0.4056(4) 0.4300(3) 0.1763(2)
C17G C 0.4056(4) 0.4300(3) 0.3237(2)
C17B C 0.0244(3) 0.5944(4) 0.1763(2)
C17K C 0.0244(3) 0.5944(4) 0.3237(2)
H9I H 0.5951 0.9839 0.3268
H9D H 0.3888 0.4049 0.1732
H9G H 0.3888 0.4049 0.3268
H9B H 0.0161 0.6112 0.1732
H9K H 0.0161 0.6112 0.3268
C18I C 0.5591(3) 0.9832(3) 0.29996(19)
C18D C 0.4241(4) 0.4409(3) 0.20004(19)
C18G C 0.4241(4) 0.4409(3) 0.29996(19)
C18B C 0.0168(3) 0.5759(4) 0.20004(19)
C18K C 0.0168(3) 0.5759(4) 0.29996(19)
H10I H 0.5761 0.9962 0.2867
H10D H 0.4201 0.4239 0.2133
H10G H 0.4201 0.4239 0.2867
H10B H 0.0038 0.5799 0.2133
H10K H 0.0038 0.5799 0.2867
C19I C 0.5213(3) 0.9701(4) 0.2975(2)
C19D C 0.4488(5) 0.4787(3) 0.2025(2)
C19G C 0.4488(5) 0.4787(3) 0.2975(2)
C19B C 0.0299(4) 0.5512(5) 0.2025(2)
C19K C 0.0299(4) 0.5512(5) 0.2975(2)
C20I C 0.4943(3) 0.9505(3) 0.3165(2)
C20D C 0.4562(4) 0.5057(3) 0.1835(2)
C20G C 0.4562(4) 0.5057(3) 0.3165(2)
C20B C 0.0495(3) 0.5438(4) 0.1835(2)
C20K C 0.0495(3) 0.5438(4) 0.3165(2)
H11I H 0.4692 0.9428 0.3140
H11D H 0.4736 0.5308 0.1860
H11G H 0.4736 0.5308 0.3140
H11B H 0.0572 0.5264 0.1860
H11K H 0.0572 0.5264 0.3140
C21I C 0.5073(3) 0.9432(4) 0.33944(19)
C21D C 0.4359(5) 0.4927(3) 0.16056(19)
C21G C 0.4359(5) 0.4927(3) 0.33944(19)
C21B C 0.0568(4) 0.5641(5) 0.16056(19)
C21K C 0.0568(4) 0.5641(5) 0.33944(19)
H12I H 0.4908 0.9296 0.3527
H12D H 0.4388 0.5092 0.1473
H12G H 0.4388 0.5092 0.3527
H12B H 0.0704 0.5612 0.1473
H12K H 0.0704 0.5612 0.3527
C22H C 0.8978(2) 1.2819(3) -0.02030(19)
C22J C 0.7181(3) 0.6159(2) -0.02030(19)
C22A C 0.7181(3) 0.6159(2) 0.52030(19)
C22C C 1.3841(2) 1.1022(2) 0.52030(19)
C22F C 1.3841(2) 1.1022(2) -0.02030(19)
C23H C 0.8886(2) 1.2607(3) 0.00219(15)
C23J C 0.7393(3) 0.6279(2) 0.00219(15)
C23A C 0.7393(3) 0.6279(2) 0.49781(15)
C23C C 1.3721(2) 1.1114(2) 0.49781(15)
C23F C 1.3721(2) 1.1114(2) 0.00219(15)
C24H C 0.9126(3) 1.2631(4) 0.0203(2)
C24J C 0.7369(4) 0.6495(3) 0.0203(2)
C24A C 0.7369(4) 0.6495(3) 0.4797(2)
C24C C 1.3505(3) 1.0874(3) 0.4797(2)
C24F C 1.3505(3) 1.0874(3) 0.0203(2)
H13H H 0.9381 1.2793 0.0179
H13J H 0.7207 0.6588 0.0179
H13A H 0.7207 0.6588 0.4821
H13C H 1.3412 1.0619 0.4821
H13F H 1.3412 1.0619 0.0179
C25H C 0.9003(3) 1.2421(4) 0.04231(17)
C25J C 0.7579(4) 0.6582(3) 0.04231(17)
C25A C 0.7579(4) 0.6582(3) 0.45769(17)
C25C C 1.3418(3) 1.0997(3) 0.45769(17)
C25F C 1.3418(3) 1.0997(3) 0.04231(17)
H14H H 0.9182 1.2457 0.0547
H14J H 0.7543 0.6725 0.0547
H14A H 0.7543 0.6725 0.4453
H14C H 1.3275 1.0818 0.4453
H14F H 1.3275 1.0818 0.0547
C26H C 0.8663(3) 1.2178(4) 0.04753(19)
C26J C 0.7822(4) 0.6485(3) 0.04753(19)
C26A C 0.7822(4) 0.6485(3) 0.45247(19)
C26C C 1.3515(3) 1.1337(3) 0.45247(19)
C26F C 1.3515(3) 1.1337(3) 0.04753(19)
C27H C 0.8423(4) 1.2192(5) 0.0298(2)
C27J C 0.7808(5) 0.6231(3) 0.0298(2)
C27A C 0.7808(5) 0.6231(3) 0.4702(2)
C27C C 1.3769(3) 1.1577(4) 0.4702(2)
C27F C 1.3769(3) 1.1577(4) 0.0298(2)
H15H H 0.8168 1.2057 0.0338
H15J H 0.7943 0.6111 0.0338
H15A H 0.7943 0.6111 0.4662
H15C H 1.3889 1.1832 0.4662
H15F H 1.3889 1.1832 0.0338
C28H C 0.8522(3) 1.2388(4) 0.00649(18)
C28J C 0.7612(4) 0.6134(3) 0.00649(18)
C28A C 0.7612(4) 0.6134(3) 0.49351(18)
C28C C 1.3866(3) 1.1478(3) 0.49351(18)
C28F C 1.3866(3) 1.1478(3) 0.00649(18)
H16H H 0.8342 1.2366 -0.0055
H16J H 0.7634 0.5976 -0.0055
H16A H 0.7634 0.5976 0.5055
H16C H 1.4024 1.1658 0.5055
H16F H 1.4024 1.1658 -0.0055
C29H C 0.8557(3) 1.1960(4) 0.06953(18)
C29J C 0.8040(4) 0.6597(3) 0.06953(18)
C29A C 0.8040(4) 0.6597(3) 0.43047(18)
C29C C 1.3403(3) 1.1443(3) 0.43047(18)
C29F C 1.3403(3) 1.1443(3) 0.06953(18)
C30H C 0.8765(3) 1.2064(4) 0.09154(16)
C30J C 0.7936(4) 0.6701(2) 0.09154(16)
C30A C 0.7936(4) 0.6701(2) 0.40846(16)
C30C C 1.3299(2) 1.1235(3) 0.40846(16)
C30F C 1.3299(2) 1.1235(3) 0.09154(16)
H17H H 0.8993 1.2285 0.0924
H17J H 0.7715 0.6708 0.0924
H17A H 0.7715 0.6708 0.4076
H17C H 1.3292 1.1007 0.4076
H17F H 1.3292 1.1007 0.0924
C31H C 0.8630(3) 1.1838(4) 0.11176(17)
C31J C 0.8162(4) 0.6792(3) 0.11176(17)
C31A C 0.8162(4) 0.6792(3) 0.38824(17)
C31C C 1.3208(3) 1.1370(3) 0.38824(17)
C31F C 1.3208(3) 1.1370(3) 0.11176(17)
C32H C 0.8303(3) 1.1501(4) 0.11150(15)
C32J C 0.8499(4) 0.6802(2) 0.11150(15)
C32A C 0.8499(4) 0.6802(2) 0.38850(15)
C32C C 1.3198(2) 1.1697(3) 0.38850(15)
C32F C 1.3198(2) 1.1697(3) 0.11150(15)
H18H H 0.8224 1.1346 0.1260
H18J H 0.8654 0.6878 0.1260
H18A H 0.8654 0.6878 0.3740
H18C H 1.3122 1.1776 0.3740
H18F H 1.3122 1.1776 0.1260
C33H C 0.8093(3) 1.1399(4) 0.08885(19)
C33J C 0.8601(4) 0.6694(3) 0.08885(19)
C33A C 0.8601(4) 0.6694(3) 0.41115(19)
C33C C 1.3306(3) 1.1907(3) 0.41115(19)
C33F C 1.3306(3) 1.1907(3) 0.08885(19)
C34H C 0.8214(3) 1.1609(4) 0.06752(17)
C34J C 0.8391(4) 0.6605(3) 0.06752(17)
C34A C 0.8391(4) 0.6605(3) 0.43248(17)
C34C C 1.3395(3) 1.1786(3) 0.43248(17)
C34F C 1.3395(3) 1.1786(3) 0.06752(17)
H19H H 0.8082 1.1532 0.0520
H19J H 0.8468 0.6550 0.0520
H19A H 0.8468 0.6550 0.4480
H19C H 1.3450 1.1918 0.4480
H19F H 1.3450 1.1918 0.0520
C35H C 0.7743(3) 1.1054(4) 0.08724(19)
C35J C 0.8946(4) 0.6689(3) 0.08724(19)
C35A C 0.8946(4) 0.6689(3) 0.41276(19)
C35C C 1.3311(3) 1.2257(3) 0.41276(19)
C35F C 1.3311(3) 1.2257(3) 0.08724(19)
C36H C 0.7598(5) 1.0898(6) 0.0645(2)
C36J C 0.9102(6) 0.6700(4) 0.0645(2)
C36A C 0.9102(6) 0.6700(4) 0.4355(2)
C36C C 1.3300(4) 1.2402(5) 0.4355(2)
C36F C 1.3300(4) 1.2402(5) 0.0645(2)
H20H H 0.7734 1.0998 0.0493
H20J H 0.9002 0.6736 0.0493
H20A H 0.9002 0.6736 0.4507
H20C H 1.3264 1.2266 0.4507
H20F H 1.3264 1.2266 0.0493
C37H C 0.7236(4) 1.0580(5) 0.06340(18)
C37J C 0.9420(5) 0.6656(3) 0.06340(18)
C37A C 0.9420(5) 0.6656(3) 0.43660(18)
C37C C 1.3344(3) 1.2764(4) 0.43660(18)
C37F C 1.3344(3) 1.2764(4) 0.06340(18)
H21H H 0.7115 1.0498 0.0475
H21J H 0.9502 0.6617 0.0475
H21A H 0.9502 0.6617 0.4525
H21C H 1.3383 1.2885 0.4525
H21F H 1.3383 1.2885 0.0475
C38H C 0.7073(2) 1.0402(3) 0.08449(18)
C38J C 0.9598(3) 0.6671(2) 0.08449(18)
C38A C 0.9598(3) 0.6671(2) 0.41551(18)
C38C C 1.3329(2) 1.2927(2) 0.41551(18)
C38F C 1.3329(2) 1.2927(2) 0.08449(18)
C39H C 0.7231(3) 1.0546(4) 0.10673(16)
C39J C 0.9454(4) 0.6685(3) 0.10673(16)
C39A C 0.9454(4) 0.6685(3) 0.39327(16)
C39C C 1.3315(3) 1.2769(3) 0.39327(16)
C39F C 1.3315(3) 1.2769(3) 0.10673(16)
H22H H 0.7117 1.0425 0.1222
H22J H 0.9575 0.6692 0.1222
H22A H 0.9575 0.6692 0.3778
H22C H 1.3308 1.2883 0.3778
H22F H 1.3308 1.2883 0.1222
C40H C 0.7567(4) 1.0877(5) 0.1073(2)
C40J C 0.9123(5) 0.6690(3) 0.1073(2)
C40A C 0.9123(5) 0.6690(3) 0.3927(2)
C40C C 1.3310(3) 1.2433(4) 0.3927(2)
C40F C 1.3310(3) 1.2433(4) 0.1073(2)
H23H H 0.7671 1.0976 0.1234
H23J H 0.9024 0.6695 0.1234
H23A H 0.9024 0.6695 0.3766
H23C H 1.3305 1.2329 0.3766
H23F H 1.3305 1.2329 0.1234
C41H C 0.6717(2) 1.00642(28) 0.08148(14)
C41J C 0.99358(28) 0.66528(19) 0.08148(14)
C41A C 0.99358(28) 0.66528(19) 0.41852(14)
C41C C 1.33472(19) 1.3283(2) 0.41852(14)
C41F C 1.33472(19) 1.3283(2) 0.08148(14)
C42H C 0.8861(3) 1.1941(4) 0.1350(2)
C42J C 0.8059(4) 0.6920(3) 0.1350(2)
C42A C 0.8059(4) 0.6920(3) 0.3650(2)
C42C C 1.3080(3) 1.1139(3) 0.3650(2)
C42F C 1.3080(3) 1.1139(3) 0.1350(2)
C43H C 0.8813(4) 1.1749(5) 0.1551(2)
C43J C 0.8251(5) 0.7064(3) 0.1551(2)
C43A C 0.8251(5) 0.7064(3) 0.3449(2)
C43C C 1.2936(3) 1.1187(4) 0.3449(2)
C43F C 1.2936(3) 1.1187(4) 0.1551(2)
H24H H 0.8611 1.1506 0.1550
H24J H 0.8494 0.7105 0.1550
H24A H 0.8494 0.7105 0.3450
H24C H 1.2895 1.1389 0.3450
H24F H 1.2895 1.1389 0.1550
C44H C 0.9029(3) 1.1863(4) 0.17741(17)
C44J C 0.8137(4) 0.7166(3) 0.17741(17)
C44A C 0.8137(4) 0.7166(3) 0.32259(17)
C44C C 1.2834(3) 1.0971(3) 0.32259(17)
C44F C 1.2834(3) 1.0971(3) 0.17741(17)
H25H H 0.8965 1.1699 0.1914
H25J H 0.8301 0.7266 0.1914
H25A H 0.8301 0.7266 0.3086
H25C H 1.2734 1.1035 0.3086
H25F H 1.2734 1.1035 0.1914
C45H C 0.9300(2) 1.2172(3) 0.17894(13)
C45J C 0.7828(3) 0.7128(2) 0.17894(13)
C45A C 0.7828(3) 0.7128(2) 0.32106(13)
C45C C 1.2872(2) 1.0700(2) 0.32106(13)
C45F C 1.2872(2) 1.0700(2) 0.17894(13)
C46H C 0.9332(4) 1.2388(5) 0.1601(2)
C46J C 0.7612(5) 0.6944(3) 0.1601(2)
C46A C 0.7612(5) 0.6944(3) 0.3399(2)
C46C C 1.3056(3) 1.0668(4) 0.3399(2)
C46F C 1.3056(3) 1.0668(4) 0.1601(2)
H26H H 0.9498 1.2644 0.1618
H26J H 0.7356 0.6854 0.1618
H26A H 0.7356 0.6854 0.3382
H26C H 1.3146 1.0502 0.3382
H26F H 1.3146 1.0502 0.1618
C47H C 0.9131(5) 1.2258(6) 0.1375(2)
C47J C 0.7742(6) 0.6873(4) 0.1375(2)
C47A C 0.7742(6) 0.6873(4) 0.3625(2)
C47C C 1.3127(4) 1.0869(5) 0.3625(2)
C47F C 1.3127(4) 1.0869(5) 0.1375(2)
H27H H 0.9204 1.2419 0.1232
H27J H 0.7581 0.6785 0.1232
H27A H 0.7581 0.6785 0.3768
H27C H 1.3215 1.0796 0.3768
H27F H 1.3215 1.0796 0.1232
C48H C 0.9563(2) 1.2291(3) 0.20086(14)
C48J C 0.7709(3) 0.7272(2) 0.20086(14)
C48A C 0.7709(3) 0.7272(2) 0.29914(14)
C48C C 1.2728(2) 1.0437(2) 0.29914(14)
C48F C 1.2728(2) 1.0437(2) 0.20086(14)
C49I C 0.7039(2) 0.7967(3) 0.29741(17)
C49B C 1.2033(3) 0.9072(4) 0.20259(17)
C49K C 1.2033(3) 0.9072(4) 0.29741(17)
C49D C 1.0928(4) 1.2961(2) 0.20259(17)
C49G C 1.0928(4) 1.2961(2) 0.29741(17)
C50I C 0.6883(2) 0.8143(2) 0.31576(14)
C50B C 1.1857(2) 0.8740(3) 0.18424(14)
C50K C 1.1857(2) 0.8740(3) 0.31576(14)
C50D C 1.1260(3) 1.3117(2) 0.18424(14)
C50G C 1.1260(3) 1.3117(2) 0.31576(14)
C51I C 0.6715(2) 0.8524(2) 0.33475(14)
C51B C 1.1476(2) 0.8191(3) 0.16525(14)
C51K C 1.1476(2) 0.8191(3) 0.33475(14)
C51D C 1.1809(3) 1.3285(2) 0.16525(14)
C51G C 1.1809(3) 1.3285(2) 0.33475(14)
C52I C 0.6571(2) 0.8217(2) 0.34873(15)
C52B C 1.1783(2) 0.8354(3) 0.15127(15)
C52K C 1.1783(2) 0.8354(3) 0.34873(15)
C52D C 1.1646(3) 1.3429(2) 0.15127(15)
C52G C 1.1646(3) 1.3429(2) 0.34873(15)
C53I C 0.64100(19) 0.8620(2) 0.36757(15)
C53B C 1.1380(2) 0.77900(28) 0.13243(15)
C53K C 1.1380(2) 0.77900(28) 0.36757(15)
C53D C 1.22100(28) 1.35900(19) 0.13243(15)
C53G C 1.22100(28) 1.35900(19) 0.36757(15)
C54I C 0.6256(3) 0.8791(2) 0.38290(16)
C54B C 1.1209(2) 0.7465(4) 0.11710(16)
C54K C 1.1209(2) 0.7465(4) 0.38290(16)
C54D C 1.2535(4) 1.3744(3) 0.11710(16)
C54G C 1.2535(4) 1.3744(3) 0.38290(16)
C55D C 0.6542(6) 0.6773(4) 0.2500
C55B C 0.0231(4) 0.3458(6) 0.2500
C56D C 0.6207(7) 0.6431(5) 0.2500
C56B C 0.0224(5) 0.3793(7) 0.2500
C57I C 0.3748(3) 0.9821(3) 0.26978(18)
C57D C 0.6073(4) 0.6252(3) 0.23022(18)
C57G C 0.6073(4) 0.6252(3) 0.26978(18)
C57B C 0.0179(3) 0.3927(4) 0.23022(18)
C57K C 0.0179(3) 0.3927(4) 0.26978(18)
H28I H 0.3654 0.9857 0.2852
H28D H 0.6203 0.6346 0.2148
H28G H 0.6203 0.6346 0.2852
H28B H 0.0143 0.3797 0.2148
H28K H 0.0143 0.3797 0.2852
C58I C 0.4088(3) 0.9821(3) 0.27072(17)
C58D C 0.5733(4) 0.5912(3) 0.22928(17)
C58G C 0.5733(4) 0.5912(3) 0.27072(17)
C58B C 0.0179(3) 0.4267(4) 0.22928(17)
C58K C 0.0179(3) 0.4267(4) 0.27072(17)
H29I H 0.4197 0.9824 0.2866
H29D H 0.5627 0.5803 0.2134
H29G H 0.5627 0.5803 0.2866
H29B H 0.0176 0.4373 0.2134
H29K H 0.0176 0.4373 0.2866
C59D C 0.5577(6) 0.5759(4) 0.2500
C59B C 0.0182(5) 0.4423(6) 0.2500
C60D C 0.5241(6) 0.5366(4) 0.2500
C60B C 0.0125(5) 0.4759(6) 0.2500
C61D C 0.4533(6) 0.4773(4) 0.2500
C61B C 0.0240(4) 0.5467(6) 0.2500
H30D H 0.4304 0.4552 0.2500
H30B H 0.0248 0.5696 0.2500
C62I C 0.5062(4) 0.9766(3) 0.27311(18)
C62D C 0.4704(5) 0.4938(4) 0.22689(18)
C62G C 0.4704(5) 0.4938(4) 0.27311(18)
C62B C 0.0234(3) 0.5296(5) 0.22689(18)
C62K C 0.0234(3) 0.5296(5) 0.27311(18)
C63I C 0.4776(3) 0.9836(3) 0.27294(17)
C63D C 0.5060(4) 0.5224(3) 0.22706(17)
C63G C 0.5060(4) 0.5224(3) 0.27294(17)
C63B C 0.0164(3) 0.4940(4) 0.22706(17)
C63K C 0.0164(3) 0.4940(4) 0.27294(17)
H31I H 0.4675 0.9857 0.2886
H31D H 0.5182 0.5325 0.2114
H31G H 0.5182 0.5325 0.2886
H31B H 0.0143 0.4818 0.2114
H31K H 0.0143 0.4818 0.2886
C64B C 1.1253(3) 0.9882(4) 0.2500
C64D C 1.0118(4) 1.1371(3) 0.2500
C65B C 1.0970(4) 0.9603(6) 0.2500
C65D C 1.0397(6) 1.1367(4) 0.2500
H32B H 1.0961 0.9373 0.2500
H32D H 1.0627 1.1588 0.2500
C66B C 1.0639(5) 0.9628(7) 0.2500
C66D C 1.0372(7) 1.1011(5) 0.2500
H33B H 1.0407 0.9409 0.2500
H33D H 1.0591 1.0998 0.2500
C67B C 1.0653(4) 0.9944(6) 0.2500
C67D C 1.0056(6) 1.0709(4) 0.2500
C68B C 1.0963(6) 1.0220(8) 0.2500
C68D C 0.9780(8) 1.0743(5) 0.2500
H34B H 1.0986 1.0456 0.2500
H34D H 0.9544 1.0530 0.2500
C69B C 1.1280(4) 1.0191(6) 0.2500
C69D C 0.9809(6) 1.1089(5) 0.2500
H35B H 1.1515 1.0405 0.2500
H35D H 0.9595 1.1110 0.2500
C70B C 1.0312(4) 0.9970(6) 0.2500
C70D C 1.0030(6) 1.0342(4) 0.2500
C71B C 1.0345(3) 1.0322(5) 0.2500
C71D C 0.9678(5) 1.0023(4) 0.2500
H36D H 0.9463 1.0042 0.2500
H36B H 1.0579 1.0537 0.2500
C72B C 1.1577(4) 0.9827(6) 0.2500
C72D C 1.0173(6) 1.1750(4) 0.2500
loop_
_geom_bond_atom_site_label_1
_geom_bond_atom_site_label_2
_geom_bond_site_symmetry_1
_geom_bond_site_symmetry_2
Zn1 O1 1_555 1_555
Zn2 O1 1_555 1_555
Zn3 O1 1_555 1_555
Zn4 O1 1_555 1_555
Zn5 O2 1_555 1_555
Zn6 O2 1_555 1_555
Zn7 O2 1_555 1_555
S1 H1 1_555 1_555
S2 C4 1_555 1_555
C1 H2 1_555 1_555
S3 C50 1_555 1_555
C2 H3 1_555 1_555
S4 C51 1_555 1_555
O2 Zn5I 1_555 1_555
O3 Zn2 1_555 1_555
O4 Zn1 1_555 1_555
O5 Zn1 1_555 1_555
O6 Zn4 1_555 1_555
O7 C41 1_555 1_555
O8 C41 1_555 1_555
O9 Zn2 1_555 1_555
O10 Zn3 1_555 1_555
O11 Zn3 1_555 1_555
O12 Zn1 1_555 1_555
O13 Zn3 1_555 1_555
O14 Zn4 1_555 1_555
O15 Zn7 1_555 1_555
O16 Zn6 1_555 1_555
O17 Zn6 1_555 1_555
O18 Zn5 1_555 1_555
O19 C48 1_555 1_555
O20 C48 1_555 1_555
O21 C55 1_555 1_555
C3 O3 1_555 1_555
C4 S1 1_555 1_555
C5 S1 1_555 1_555
C6 O11 1_555 1_555
C7 C6 1_555 1_555
C8 C7 1_555 1_555
H4 C8 1_555 1_555
C9 C8 1_555 1_555
H5 C9 1_555 1_555
C10 C9 1_555 1_555
C11 C10 1_555 1_555
H6 C11 1_555 1_555
C12 C7 1_555 1_555
H7 C12 1_555 1_555
C13 C10 1_555 1_555
C14 C13 1_555 1_555
H8 C14 1_555 1_555
C15 O5 1_555 1_555
C16 C15 1_555 1_555
C17 C16 1_555 1_555
H9 C17 1_555 1_555
C18 C17 1_555 1_555
H10 C18 1_555 1_555
C19 C18 1_555 1_555
C20 C19 1_555 1_555
H11 C20 1_555 1_555
C21 C16 1_555 1_555
H12 C21 1_555 1_555
C22 O9 1_555 1_555
C23 C22 1_555 1_555
C24 C23 1_555 1_555
H13 C24 1_555 1_555
C25 C24 1_555 1_555
H14 C25 1_555 1_555
C26 C25 1_555 1_555
C27 C26 1_555 1_555
H15 C27 1_555 1_555
C28 C23 1_555 1_555
H16 C28 1_555 1_555
C29 C26 1_555 1_555
C30 C29 1_555 1_555
H17 C30 1_555 1_555
C31 C30 1_555 1_555
C32 C31 1_555 1_555
H18 C32 1_555 1_555
C33 C32 1_555 1_555
C34 C29 1_555 1_555
H19 C34 1_555 1_555
C35 C33 1_555 1_555
C36 C35 1_555 1_555
H20 C36 1_555 1_555
C37 C36 1_555 1_555
H21 C37 1_555 1_555
C38 C37 1_555 1_555
C39 C38 1_555 1_555
H22 C39 1_555 1_555
C40 C35 1_555 1_555
H23 C40 1_555 1_555
C41 C38 1_555 1_555
C42 C31 1_555 1_555
C43 C42 1_555 1_555
H24 C43 1_555 1_555
C44 C43 1_555 1_555
H25 C44 1_555 1_555
C45 C44 1_555 1_555
C46 C45 1_555 1_555
H26 C46 1_555 1_555
C47 C42 1_555 1_555
H27 C47 1_555 1_555
C48 C45 1_555 1_555
C49 O17 1_555 1_555
C50 C1 1_555 1_555
C51 C1 1_555 1_555
C52 S3 1_555 1_555
C53 C2 1_555 1_555
C54 O13 1_555 1_555
C55 C56 1_555 1_555
C56 C57 1_555 1_555
C57 H28 1_555 1_555
C58 C57 1_555 1_555
H29 C58 1_555 1_555
C59 C58 1_555 1_555
C60 C59 1_555 1_555
C61 H30 1_555 1_555
C62 C19 1_555 1_555
C63 C60 1_555 1_555
H31 C63 1_555 1_555
C64 C65 1_555 1_555
C65 H32 1_555 1_555
C66 C65 1_555 1_555
H33 C66 1_555 1_555
C67 C66 1_555 1_555
C68 C67 1_555 1_555
H34 C68 1_555 1_555
C69 C64 1_555 1_555
H35 C69 1_555 1_555
C70 C67 1_555 1_555
C71 C70 1_555 1_555
H36 C71 1_555 1_555
C72 O15 1_555 1_555
Zn1I O1I 1_555 1_555
Zn1D O1D 1_555 1_555
Zn1G O1G 1_555 1_555
Zn1B O1B 1_555 1_555
Zn1K O1K 1_555 1_555
Zn1F O4F 1_555 1_555
Zn1C O4C 1_555 1_555
Zn1J O1J 1_555 1_555
Zn2I O1I 1_555 1_555
Zn2J O8 1_555 1_555
Zn2B O1B_2 1_555 1_555
Zn2K O1K_2 1_555 1_555
Zn2G O1G_2 1_555 1_555
Zn2F O3F 1_555 1_555
Zn2H O1H 1_555 1_555
Zn2A O1A 1_555 1_555
Zn2C O1C 1_555 1_555
Zn2D O8F 1_555 1_555
Zn2F_2 O9F 1_555 1_555
Zn2C_2 O3C 1_555 1_555
Zn2D_2 O1D 1_555 1_555
Zn2G_2 O1G 1_555 1_555
Zn2B_2 O1B 1_555 1_555
Zn2K_2 O1K 1_555 1_555
Zn3I O1I 1_555 1_555
Zn3H O1H 1_555 1_555
Zn3J O1J 1_555 1_555
Zn3A O1A 1_555 1_555
Zn3C O1C 1_555 1_555
Zn3D O1D 1_555 1_555
Zn3B O1B 1_555 1_555
Zn3B_2 O1B_2 1_555 1_555
Zn3K O1K_2 1_555 1_555
Zn3D_2 O13D 1_555 1_555
Zn3G O1G_2 1_555 1_555
Zn3F O10F 1_555 1_555
Zn3G_2 O1G 1_555 1_555
Zn3K_2 O1K 1_555 1_555
Zn4I O1I 1_555 1_555
Zn4D O1D 1_555 1_555
Zn4G O1G 1_555 1_555
Zn4J O7 1_555 1_555
Zn4B O1B_2 1_555 1_555
Zn4K O1K_2 1_555 1_555
Zn4D_2 O7F 1_555 1_555
Zn4G_2 O1G_2 1_555 1_555
Zn4B_2 O1B 1_555 1_555
Zn4K_2 O1K 1_555 1_555
Zn5I O18I 1_555 1_555
Zn5B O2B 1_555 1_555
Zn5D O2D 1_555 1_555
Zn5K O2B 1_555 1_555
Zn5G O2D 1_555 1_555
Zn5H O20 1_555 1_555
Zn5B_2 O21 1_555 1_555
Zn5K_2 O21I 1_555 1_555
Zn5D_2 O21B 1_555 1_555
Zn5G_2 O21K 1_555 1_555
Zn6B O2B 1_555 1_555
Zn6D O2D 1_555 1_555
Zn7B O2B 1_555 1_555
Zn7D O2D 1_555 1_555
Zn7E O19 1_555 1_555
S1F H1F 1_555 1_555
S1I H1I 1_555 1_555
S1C H1C 1_555 1_555
S1D H1D 1_555 1_555
S1J H1J 1_555 1_555
S2F C5 1_555 1_555
S2I C4I 1_555 1_555
S2C C4C 1_555 1_555
S2D C4D 1_555 1_555
S2J C4J 1_555 1_555
C1I H2I 1_555 1_555
C1B H2B 1_555 1_555
C1K H2K 1_555 1_555
C1D H2D 1_555 1_555
C1G H2G 1_555 1_555
S3I C50I 1_555 1_555
S3B C50B 1_555 1_555
S3K C50K 1_555 1_555
S3D C50D 1_555 1_555
S3G C50G 1_555 1_555
C2I H3I 1_555 1_555
C2B H3B 1_555 1_555
C2K H3K 1_555 1_555
C2D H3D 1_555 1_555
C2G H3G 1_555 1_555
S4I C51I 1_555 1_555
S4B C51B 1_555 1_555
S4K C51K 1_555 1_555
S4D C51D 1_555 1_555
S4G C51G 1_555 1_555
O1J Zn2J 1_555 1_555
O3F C3F 1_555 1_555
O3I Zn2I 1_555 1_555
O3C C3C 1_555 1_555
O3D Zn2D_2 1_555 1_555
O3J Zn2J 1_555 1_555
O3B Zn2B 1_555 1_555
O3K Zn2K 1_555 1_555
O3G Zn2G 1_555 1_555
O4F C3F 1_555 1_555
O4I Zn1I 1_555 1_555
O4C C3C 1_555 1_555
O4D Zn1D 1_555 1_555
O4J Zn1J 1_555 1_555
O4G Zn1G 1_555 1_555
O4B Zn1B 1_555 1_555
O4K Zn1K 1_555 1_555
O5I Zn1I 1_555 1_555
O5D Zn1D 1_555 1_555
O5G Zn1G 1_555 1_555
O5B Zn1B 1_555 1_555
O5K Zn1K 1_555 1_555
O6I Zn4I 1_555 1_555
O6D Zn4D 1_555 1_555
O6G Zn4G 1_555 1_555
O6B Zn4B_2 1_555 1_555
O6K Zn4K_2 1_555 1_555
O6J Zn4J 1_555 1_555
O6B_2 Zn4B 1_555 1_555
O7H Zn4 1_555 1_555
O7J Zn4B 1_555 1_555
O7A Zn4K 1_555 1_555
O7C Zn4G_2 1_555 1_555
O7F C41F 1_555 1_555
O7E Zn4I 1_555 1_555
O7F_2 Zn4D 1_555 1_555
O7C_2 Zn4G 1_555 1_555
O8H Zn2 1_555 1_555
O8J Zn2B 1_555 1_555
O8A Zn2K 1_555 1_555
O8C Zn2G 1_555 1_555
O8F C41F 1_555 1_555
O8E Zn2I 1_555 1_555
O9H Zn2H 1_555 1_555
O9J Zn2J 1_555 1_555
O9A Zn2A 1_555 1_555
O9C Zn2C 1_555 1_555
O9F C22F 1_555 1_555
O9I Zn2I 1_555 1_555
O9B Zn2B 1_555 1_555
O9K Zn2K 1_555 1_555
O9G Zn2G 1_555 1_555
O10H Zn3H 1_555 1_555
O10J Zn3J 1_555 1_555
O10A Zn3A 1_555 1_555
O10C Zn3C 1_555 1_555
O10F C22F 1_555 1_555
O10I Zn3I 1_555 1_555
O11D Zn3D 1_555 1_555
O11B Zn3B 1_555 1_555
O11I Zn3I 1_555 1_555
O11G Zn3G_2 1_555 1_555
O11K Zn3K_2 1_555 1_555
O11H Zn3H 1_555 1_555
O11J Zn3J 1_555 1_555
O11A Zn3A 1_555 1_555
O11C Zn3C 1_555 1_555
O12D Zn1D 1_555 1_555
O12B Zn1B 1_555 1_555
O12I Zn1I 1_555 1_555
O12G Zn1G 1_555 1_555
O12K Zn1K 1_555 1_555
O13I Zn3I 1_555 1_555
O13B Zn3B_2 1_555 1_555
O13K Zn3K 1_555 1_555
O13D C54D 1_555 1_555
O13G Zn3G 1_555 1_555
O13H Zn3H 1_555 1_555
O13J Zn3J 1_555 1_555
O13A Zn3A 1_555 1_555
O13C Zn3C 1_555 1_555
O14I Zn4I 1_555 1_555
O14B Zn4B 1_555 1_555
O14K Zn4K 1_555 1_555
O14D Zn4D_2 1_555 1_555
O14G Zn4G_2 1_555 1_555
O14D_2 Zn4D 1_555 1_555
O14G_2 Zn4G 1_555 1_555
O14J Zn4J 1_555 1_555
O15B Zn7B 1_555 1_555
O15D Zn7D 1_555 1_555
O16B Zn6B 1_555 1_555
O16D Zn6D 1_555 1_555
O17I Zn6 1_555 1_555
O17B Zn6B 1_555 1_555
O17K Zn6B 1_555 1_555
O17D Zn6D 1_555 1_555
O17G Zn6D 1_555 1_555
O18I C49I 1_555 1_555
O18B Zn5B 1_555 1_555
O18K Zn5K 1_555 1_555
O18D Zn5D 1_555 1_555
O18G Zn5G 1_555 1_555
O19H Zn7D 1_555 1_555
O19J Zn7 1_555 1_555
O19A Zn7 1_555 1_555
O19C Zn7B 1_555 1_555
O19F Zn7B 1_555 1_555
O19E Zn7D 1_555 1_555
O20H Zn5D 1_555 1_555
O20J Zn5 1_555 1_555
O20A Zn5I 1_555 1_555
O20C Zn5K 1_555 1_555
O20F Zn5B 1_555 1_555
O20E Zn5G 1_555 1_555
O21I C55 1_555 1_555
O21D Zn5 1_555 1_555
O21G Zn5I 1_555 1_555
O21B C55B 1_555 1_555
O21K C55B 1_555 1_555
O21_2 Zn5B 1_555 1_555
O21B_2 Zn5D 1_555 1_555
O21I_2 Zn5K 1_555 1_555
O21K_2 Zn5G 1_555 1_555
C3F C4F 1_555 1_555
C3I O3I 1_555 1_555
C3C C4C 1_555 1_555
C3D O3D 1_555 1_555
C3J O3J 1_555 1_555
C4F S1F 1_555 1_555
C4I S1I 1_555 1_555
C4C S1C 1_555 1_555
C4D S1D 1_555 1_555
C4J S1J 1_555 1_555
C5F S2 1_555 1_555
C5I S1I 1_555 1_555
C5C S1C 1_555 1_555
C5D S1D 1_555 1_555
C5J S1J 1_555 1_555
C6D O11D 1_555 1_555
C6B O11B 1_555 1_555
C6I O11I 1_555 1_555
C6G O11G 1_555 1_555
C6K O11K 1_555 1_555
C7D C6D 1_555 1_555
C7B C6B 1_555 1_555
C7I C6I 1_555 1_555
C7G C6G 1_555 1_555
C7K C6K 1_555 1_555
C8D C7D 1_555 1_555
C8B C7B 1_555 1_555
C8I C7I 1_555 1_555
C8G C7G 1_555 1_555
C8K C7K 1_555 1_555
H4D C8D 1_555 1_555
H4B C8B 1_555 1_555
H4I C8I 1_555 1_555
H4G C8G 1_555 1_555
H4K C8K 1_555 1_555
C9D C8D 1_555 1_555
C9B C8B 1_555 1_555
C9I C8I 1_555 1_555
C9G C8G 1_555 1_555
C9K C8K 1_555 1_555
H5D C9D 1_555 1_555
H5B C9B 1_555 1_555
H5I C9I 1_555 1_555
H5G C9G 1_555 1_555
H5K C9K 1_555 1_555
C10D C9D 1_555 1_555
C10B C9B 1_555 1_555
C10I C9I 1_555 1_555
C10G C9G 1_555 1_555
C10K C9K 1_555 1_555
C11D C10D 1_555 1_555
C11B C10B 1_555 1_555
C11I C10I 1_555 1_555
C11G C10G 1_555 1_555
C11K C10K 1_555 1_555
H6D C11D 1_555 1_555
H6B C11B 1_555 1_555
H6I C11I 1_555 1_555
H6G C11G 1_555 1_555
H6K C11K 1_555 1_555
C12D C7D 1_555 1_555
C12B C7B 1_555 1_555
C12I C7I 1_555 1_555
C12G C7G 1_555 1_555
C12K C7K 1_555 1_555
H7D C12D 1_555 1_555
H7B C12B 1_555 1_555
H7I C12I 1_555 1_555
H7G C12G 1_555 1_555
H7K C12K 1_555 1_555
C13D C14 1_555 1_555
C13B C10B 1_555 1_555
C13I C10I 1_555 1_555
C13G C10G 1_555 1_555
C13K C10K 1_555 1_555
C14D C13D 1_555 1_555
C14B C13 1_555 1_555
C14I C13I 1_555 1_555
C14G C13G 1_555 1_555
C14K C13I 1_555 1_555
H8B C14B 1_555 1_555
H8D C14D 1_555 1_555
H8I C14I 1_555 1_555
H8K C14K 1_555 1_555
H8G C14G 1_555 1_555
C15I O5I 1_555 1_555
C15D O5D 1_555 1_555
C15G O5G 1_555 1_555
C15B O5B 1_555 1_555
C15K O5K 1_555 1_555
C16I C15I 1_555 1_555
C16D C15D 1_555 1_555
C16G C15G 1_555 1_555
C16B C15B 1_555 1_555
C16K C15K 1_555 1_555
C17I C16I 1_555 1_555
C17D C16D 1_555 1_555
C17G C16G 1_555 1_555
C17B C16B 1_555 1_555
C17K C16K 1_555 1_555
H9I C17I 1_555 1_555
H9D C17D 1_555 1_555
H9G C17G 1_555 1_555
H9B C17B 1_555 1_555
H9K C17K 1_555 1_555
C18I C17I 1_555 1_555
C18D C17D 1_555 1_555
C18G C17G 1_555 1_555
C18B C17B 1_555 1_555
C18K C17K 1_555 1_555
H10I C18I 1_555 1_555
H10D C18D 1_555 1_555
H10G C18G 1_555 1_555
H10B C18B 1_555 1_555
H10K C18K 1_555 1_555
C19I C18I 1_555 1_555
C19D C18D 1_555 1_555
C19G C18G 1_555 1_555
C19B C18B 1_555 1_555
C19K C18K 1_555 1_555
C20I C19I 1_555 1_555
C20D C19D 1_555 1_555
C20G C19G 1_555 1_555
C20B C19B 1_555 1_555
C20K C19K 1_555 1_555
H11I C20I 1_555 1_555
H11D C20D 1_555 1_555
H11G C20G 1_555 1_555
H11B C20B 1_555 1_555
H11K C20K 1_555 1_555
C21I C16I 1_555 1_555
C21D C16D 1_555 1_555
C21G C16G 1_555 1_555
C21B C16B 1_555 1_555
C21K C16K 1_555 1_555
H12I C21I 1_555 1_555
H12D C21D 1_555 1_555
H12G C21G 1_555 1_555
H12B C21B 1_555 1_555
H12K C21K 1_555 1_555
C22H O9H 1_555 1_555
C22J O9J 1_555 1_555
C22A O9A 1_555 1_555
C22C O9C 1_555 1_555
C22F C23F 1_555 1_555
C23H C22H 1_555 1_555
C23J C22J 1_555 1_555
C23A C22A 1_555 1_555
C23C C22C 1_555 1_555
C23F C24F 1_555 1_555
C24H C23H 1_555 1_555
C24J C23J 1_555 1_555
C24A C23A 1_555 1_555
C24C C23C 1_555 1_555
C24F H13F 1_555 1_555
H13H C24H 1_555 1_555
H13J C24J 1_555 1_555
H13A C24A 1_555 1_555
H13C C24C 1_555 1_555
C25H C24H 1_555 1_555
C25J C24J 1_555 1_555
C25A C24A 1_555 1_555
C25C C24C 1_555 1_555
C25F C24F 1_555 1_555
H14H C25H 1_555 1_555
H14J C25J 1_555 1_555
H14A C25A 1_555 1_555
H14C C25C 1_555 1_555
H14F C25F 1_555 1_555
C26H C25H 1_555 1_555
C26J C25J 1_555 1_555
C26A C25A 1_555 1_555
C26C C25C 1_555 1_555
C26F C25F 1_555 1_555
C27H C26H 1_555 1_555
C27J C26J 1_555 1_555
C27A C26A 1_555 1_555
C27C C26C 1_555 1_555
C27F C26F 1_555 1_555
H15H C27H 1_555 1_555
H15J C27J 1_555 1_555
H15A C27A 1_555 1_555
H15C C27C 1_555 1_555
H15F C27F 1_555 1_555
C28H C23H 1_555 1_555
C28J C23J 1_555 1_555
C28A C23A 1_555 1_555
C28C C23C 1_555 1_555
C28F C23F 1_555 1_555
H16H C28H 1_555 1_555
H16J C28J 1_555 1_555
H16A C28A 1_555 1_555
H16C C28C 1_555 1_555
H16F C28F 1_555 1_555
C29H C26H 1_555 1_555
C29J C26J 1_555 1_555
C29A C26A 1_555 1_555
C29C C26C 1_555 1_555
C29F C26F 1_555 1_555
C30H C29H 1_555 1_555
C30J C29J 1_555 1_555
C30A C29A 1_555 1_555
C30C C29C 1_555 1_555
C30F C29F 1_555 1_555
H17H C30H 1_555 1_555
H17J C30J 1_555 1_555
H17A C30A 1_555 1_555
H17C C30C 1_555 1_555
H17F C30F 1_555 1_555
C31H C30H 1_555 1_555
C31J C30J 1_555 1_555
C31A C30A 1_555 1_555
C31C C30C 1_555 1_555
C31F C30F 1_555 1_555
C32H C31H 1_555 1_555
C32J C31J 1_555 1_555
C32A C31A 1_555 1_555
C32C C31C 1_555 1_555
C32F C31F 1_555 1_555
H18H C32H 1_555 1_555
H18J C32J 1_555 1_555
H18A C32A 1_555 1_555
H18C C32C 1_555 1_555
H18F C32F 1_555 1_555
C33H C32H 1_555 1_555
C33J C32J 1_555 1_555
C33A C32A 1_555 1_555
C33C C32C 1_555 1_555
C33F C32F 1_555 1_555
C34H C29H 1_555 1_555
C34J C29J 1_555 1_555
C34A C29A 1_555 1_555
C34C C29C 1_555 1_555
C34F C29F 1_555 1_555
H19H C34H 1_555 1_555
H19J C34J 1_555 1_555
H19A C34A 1_555 1_555
H19C C34C 1_555 1_555
H19F C34F 1_555 1_555
C35H C33H 1_555 1_555
C35J C33J 1_555 1_555
C35A C33A 1_555 1_555
C35C C33C 1_555 1_555
C35F C33F 1_555 1_555
C36H C35H 1_555 1_555
C36J C35J 1_555 1_555
C36A C35A 1_555 1_555
C36C C35C 1_555 1_555
C36F C35F 1_555 1_555
H20H C36H 1_555 1_555
H20J C36J 1_555 1_555
H20A C36A 1_555 1_555
H20C C36C 1_555 1_555
H20F C36F 1_555 1_555
C37H C36H 1_555 1_555
C37J C36J 1_555 1_555
C37A C36A 1_555 1_555
C37C C36C 1_555 1_555
C37F C36F 1_555 1_555
H21H C37H 1_555 1_555
H21J C37J 1_555 1_555
H21A C37A 1_555 1_555
H21C C37C 1_555 1_555
H21F C37F 1_555 1_555
C38H C37H 1_555 1_555
C38J C37J 1_555 1_555
C38A C37A 1_555 1_555
C38C C37C 1_555 1_555
C38F C37F 1_555 1_555
C39H C38H 1_555 1_555
C39J C38J 1_555 1_555
C39A C38A 1_555 1_555
C39C C38C 1_555 1_555
C39F C38F 1_555 1_555
H22H C39H 1_555 1_555
H22J C39J 1_555 1_555
H22A C39A 1_555 1_555
H22C C39C 1_555 1_555
H22F C39F 1_555 1_555
C40H C35H 1_555 1_555
C40J C35J 1_555 1_555
C40A C35A 1_555 1_555
C40C C35C 1_555 1_555
C40F C35F 1_555 1_555
H23H C40H 1_555 1_555
H23J C40J 1_555 1_555
H23A C40A 1_555 1_555
H23C C40C 1_555 1_555
H23F C40F 1_555 1_555
C41H O7H 1_555 1_555
C41J O7J 1_555 1_555
C41A O7A 1_555 1_555
C41C O7C 1_555 1_555
C41F C38F 1_555 1_555
C42H C31H 1_555 1_555
C42J C31J 1_555 1_555
C42A C31A 1_555 1_555
C42C C31C 1_555 1_555
C42F C31F 1_555 1_555
C43H C42H 1_555 1_555
C43J C42J 1_555 1_555
C43A C42A 1_555 1_555
C43C C42C 1_555 1_555
C43F C42F 1_555 1_555
H24H C43H 1_555 1_555
H24J C43J 1_555 1_555
H24A C43A 1_555 1_555
H24C C43C 1_555 1_555
H24F C43F 1_555 1_555
C44H C43H 1_555 1_555
C44J C43J 1_555 1_555
C44A C43A 1_555 1_555
C44C C43C 1_555 1_555
C44F C43F 1_555 1_555
H25H C44H 1_555 1_555
H25J C44J 1_555 1_555
H25A C44A 1_555 1_555
H25C C44C 1_555 1_555
H25F C44F 1_555 1_555
C45H C44H 1_555 1_555
C45J C44J 1_555 1_555
C45A C44A 1_555 1_555
C45C C44C 1_555 1_555
C45F C44F 1_555 1_555
C46H C45H 1_555 1_555
C46J C45J 1_555 1_555
C46A C45A 1_555 1_555
C46C C45C 1_555 1_555
C46F C45F 1_555 1_555
H26H C46H 1_555 1_555
H26J C46J 1_555 1_555
H26A C46A 1_555 1_555
H26C C46C 1_555 1_555
H26F C46F 1_555 1_555
C47H C42H 1_555 1_555
C47J C42J 1_555 1_555
C47A C42A 1_555 1_555
C47C C42C 1_555 1_555
C47F C42F 1_555 1_555
H27H C47H 1_555 1_555
H27J C47J 1_555 1_555
H27A C47A 1_555 1_555
H27C C47C 1_555 1_555
H27F C47F 1_555 1_555
C48H O19H 1_555 1_555
C48J O19J 1_555 1_555
C48A O19A 1_555 1_555
C48C O19C 1_555 1_555
C48F O19F 1_555 1_555
C49I O17I 1_555 1_555
C49B O17B 1_555 1_555
C49K O17K 1_555 1_555
C49D O17D 1_555 1_555
C49G O17G 1_555 1_555
C50I C1I 1_555 1_555
C50B C1B 1_555 1_555
C50K C1K 1_555 1_555
C50D C1D 1_555 1_555
C50G C1G 1_555 1_555
C51I C1I 1_555 1_555
C51B C1B 1_555 1_555
C51K C1K 1_555 1_555
C51D C1D 1_555 1_555
C51G C1G 1_555 1_555
C52I S3I 1_555 1_555
C52B S3B 1_555 1_555
C52K S3K 1_555 1_555
C52D S3D 1_555 1_555
C52G S3G 1_555 1_555
C53I C2I 1_555 1_555
C53B C2B 1_555 1_555
C53K C2K 1_555 1_555
C53D C2D 1_555 1_555
C53G C2G 1_555 1_555
C54I O13I 1_555 1_555
C54B O13B 1_555 1_555
C54K O13K 1_555 1_555
C54D O14D 1_555 1_555
C54G O13G 1_555 1_555
C55D O21D 1_555 1_555
C55B C56B 1_555 1_555
C56D C55D 1_555 1_555
C56B C57B 1_555 1_555
C57I C56 1_555 1_555
C57D C56D 1_555 1_555
C57G C56D 1_555 1_555
C57B H28B 1_555 1_555
C57K C56B 1_555 1_555
H28I C57I 1_555 1_555
H28D C57D 1_555 1_555
H28G C57G 1_555 1_555
H28K C57K 1_555 1_555
C58I C59 1_555 1_555
C58D C57D 1_555 1_555
C58G C57G 1_555 1_555
C58B C57B 1_555 1_555
C58K C57K 1_555 1_555
H29I C58I 1_555 1_555
H29D C58D 1_555 1_555
H29G C58G 1_555 1_555
H29B C58B 1_555 1_555
H29K C58K 1_555 1_555
C59D C58D 1_555 1_555
C59B C58B 1_555 1_555
C60D C59D 1_555 1_555
C60B C59B 1_555 1_555
C61D H30D 1_555 1_555
C61B H30B 1_555 1_555
C62I C61 1_555 1_555
C62D C19D 1_555 1_555
C62G C19G 1_555 1_555
C62B C19B 1_555 1_555
C62K C19K 1_555 1_555
C63I C60 1_555 1_555
C63D C60D 1_555 1_555
C63G C60D 1_555 1_555
C63B C60B 1_555 1_555
C63K C60B 1_555 1_555
H31I C63I 1_555 1_555
H31D C63D 1_555 1_555
H31G C63G 1_555 1_555
H31B C63B 1_555 1_555
H31K C63K 1_555 1_555
C64B C65B 1_555 1_555
C64D C65D 1_555 1_555
C65B H32B 1_555 1_555
C65D H32D 1_555 1_555
C66B C65B 1_555 1_555
C66D C65D 1_555 1_555
H33B C66B 1_555 1_555
H33D C66D 1_555 1_555
C67B C66B 1_555 1_555
C67D C66D 1_555 1_555
C68B C67B 1_555 1_555
C68D C67D 1_555 1_555
H34B C68B 1_555 1_555
H34D C68D 1_555 1_555
C69B C64B 1_555 1_555
C69D C64D 1_555 1_555
H35B C69B 1_555 1_555
H35D C69D 1_555 1_555
C70B C71 1_555 1_555
C70D C67D 1_555 1_555
C71B C70B 1_555 1_555
C71D C70 1_555 1_555
H36D C71D 1_555 1_555
H36B C71B 1_555 1_555
C72B O15B 1_555 1_555
C72D O15D 1_555 1_555
C2 C52 1_555 1_555
S4 C53 1_555 1_555
O4 C3 1_555 1_555
O6 C15 1_555 1_555
O10 C22 1_555 1_555
O12 C6 1_555 1_555
O14 C54 1_555 1_555
O16 C72 1_555 1_555
O18 C49 1_555 1_555
C3 C4 1_555 1_555
C5 C5F 1_555 1_555
C11 C12 1_555 1_555
C20 C21 1_555 1_555
C27 C28 1_555 1_555
C33 C34 1_555 1_555
C39 C40 1_555 1_555
C46 C47 1_555 1_555
C49 C50 1_555 1_555
C51 C52 1_555 1_555
C53 C54 1_555 1_555
C61 C62 1_555 1_555
C62 C63 1_555 1_555
C64 C72 1_555 1_555
C68 C69 1_555 1_555
Zn4J O1J 1_555 1_555
S1F C5F 1_555 1_555
S2F C4F 1_555 1_555
S2I C5C 1_555 1_555
S2C C5I 1_555 1_555
S2D C5J 1_555 1_555
S2J C5D 1_555 1_555
C2I C52I 1_555 1_555
C2B C52B 1_555 1_555
C2K C52K 1_555 1_555
C2D C52D 1_555 1_555
C2G C52G 1_555 1_555
S4I C53I 1_555 1_555
S4B C53B 1_555 1_555
S4K C53K 1_555 1_555
S4D C53D 1_555 1_555
S4G C53G 1_555 1_555
O4I C3I 1_555 1_555
O4D C3D 1_555 1_555
O4J C3J 1_555 1_555
O6I C15I 1_555 1_555
O6D C15D 1_555 1_555
O6G C15G 1_555 1_555
O6B C15B 1_555 1_555
O6K C15K 1_555 1_555
O8H C41H 1_555 1_555
O8J C41J 1_555 1_555
O8A C41A 1_555 1_555
O8C C41C 1_555 1_555
O10H C22H 1_555 1_555
O10J C22J 1_555 1_555
O10A C22A 1_555 1_555
O10C C22C 1_555 1_555
O12D C6D 1_555 1_555
O12B C6B 1_555 1_555
O12I C6I 1_555 1_555
O12G C6G 1_555 1_555
O12K C6K 1_555 1_555
O14I C54I 1_555 1_555
O14B C54B 1_555 1_555
O14K C54K 1_555 1_555
O14G C54G 1_555 1_555
O16B C72B 1_555 1_555
O16D C72D 1_555 1_555
O18B C49B 1_555 1_555
O18K C49K 1_555 1_555
O18D C49D 1_555 1_555
O18G C49G 1_555 1_555
O20H C48H 1_555 1_555
O20J C48J 1_555 1_555
O20A C48A 1_555 1_555
O20C C48C 1_555 1_555
O20F C48F 1_555 1_555
O21G C55D 1_555 1_555
C3I C4I 1_555 1_555
C3D C4D 1_555 1_555
C3J C4J 1_555 1_555
C5I C5C 1_555 1_555
C5D C5J 1_555 1_555
C10D C13D 1_555 1_555
C11D C12D 1_555 1_555
C11B C12B 1_555 1_555
C11I C12I 1_555 1_555
C11G C12G 1_555 1_555
C11K C12K 1_555 1_555
C13B C14D 1_555 1_555
C13B C14B 1_555 1_555
C13G C14I 1_555 1_555
C13K C14G 1_555 1_555
C13K C14K 1_555 1_555
C19I C62I 1_555 1_555
C20I C21I 1_555 1_555
C20D C21D 1_555 1_555
C20G C21G 1_555 1_555
C20B C21B 1_555 1_555
C20K C21K 1_555 1_555
C27H C28H 1_555 1_555
C27J C28J 1_555 1_555
C27A C28A 1_555 1_555
C27C C28C 1_555 1_555
C27F C28F 1_555 1_555
C33H C34H 1_555 1_555
C33J C34J 1_555 1_555
C33A C34A 1_555 1_555
C33C C34C 1_555 1_555
C33F C34F 1_555 1_555
C38H C41H 1_555 1_555
C38J C41J 1_555 1_555
C38A C41A 1_555 1_555
C38C C41C 1_555 1_555
C39H C40H 1_555 1_555
C39J C40J 1_555 1_555
C39A C40A 1_555 1_555
C39C C40C 1_555 1_555
C39F C40F 1_555 1_555
C45H C48H 1_555 1_555
C45J C48J 1_555 1_555
C45A C48A 1_555 1_555
C45C C48C 1_555 1_555
C45F C48F 1_555 1_555
C46H C47H 1_555 1_555
C46J C47J 1_555 1_555
C46A C47A 1_555 1_555
C46C C47C 1_555 1_555
C46F C47F 1_555 1_555
C49I C50I 1_555 1_555
C49B C50B 1_555 1_555
C49K C50K 1_555 1_555
C49D C50D 1_555 1_555
C49G C50G 1_555 1_555
C51I C52I 1_555 1_555
C51B C52B 1_555 1_555
C51K C52K 1_555 1_555
C51D C52D 1_555 1_555
C51G C52G 1_555 1_555
C53I C54I 1_555 1_555
C53B C54B 1_555 1_555
C53K C54K 1_555 1_555
C53D C54D 1_555 1_555
C53G C54G 1_555 1_555
C57I C58I 1_555 1_555
C58G C59D 1_555 1_555
C58K C59B 1_555 1_555
C61D C62D 1_555 1_555
C61D C62G 1_555 1_555
C61B C62B 1_555 1_555
C61B C62K 1_555 1_555
C62I C63I 1_555 1_555
C62D C63D 1_555 1_555
C62G C63G 1_555 1_555
C62B C63B 1_555 1_555
C62K C63K 1_555 1_555
C64B C72B 1_555 1_555
C64D C72D 1_555 1_555
C67B C70B 1_555 1_555
C68B C69B 1_555 1_555
C68D C69D 1_555 1_555
C70D C71B 1_555 1_555
C70D C71D 1_555 1_555

#END
