
#######################################################################
#
#                 Cambridge Crystallographic Data Centre
#                                CCDC 
#
#######################################################################
#
# If this CIF has been generated from an entry in the Cambridge 
# Structural Database, then it will include bibliographic, chemical, 
# crystal, experimental, refinement or atomic coordinate data resulting 
# from the CCDC's data processing and validation procedures.
#
#######################################################################

data_CUHLUO
_chemical_formula_moiety         'C42 H48 Co6 N18 O6'
_symmetry_cell_setting           rhombohedral
_symmetry_space_group_name_H-M   'R -3'
_symmetry_Int_Tables_number      148
_space_group_name_Hall           '-R 3'
loop_
_symmetry_equiv_pos_site_id
_symmetry_equiv_pos_as_xyz
1 x,y,z
2 -y,x-y,z
3 -x+y,-x,z
4 2/3+x,1/3+y,1/3+z
5 2/3-y,1/3+x-y,1/3+z
6 2/3-x+y,1/3-x,1/3+z
7 1/3+x,2/3+y,2/3+z
8 1/3-y,2/3+x-y,2/3+z
9 1/3-x+y,2/3-x,2/3+z
10 -x,-y,-z
11 y,-x+y,-z
12 x-y,x,-z
13 1/3-x,2/3-y,2/3-z
14 1/3+y,2/3-x+y,2/3-z
15 1/3+x-y,2/3+x,2/3-z
16 2/3-x,1/3-y,1/3-z
17 2/3+y,1/3-x+y,1/3-z
18 2/3+x-y,1/3+x,1/3-z
_cell_length_a                   13.1007(12)
_cell_length_b                   13.1007(12)
_cell_length_c                   25.985(5)
_cell_angle_alpha                90
_cell_angle_beta                 90
_cell_angle_gamma                120
_cell_volume                     3862.27
loop_
_atom_site_label
_atom_site_type_symbol
_atom_site_fract_x
_atom_site_fract_y
_atom_site_fract_z
O1 O 0.9421(8) 0.8926(7) 0.2841(6)
N3 N 1.0 1.0 0.2928(2)
O1A O 1.1074(7) 1.0495(11) 0.2841(6)
O1B O 0.9505(11) 1.0579(8) 0.2841(6)
O2 O 1.0 1.0 0.0695(18)
O3 O 0.905(3) 0.864(4) 0.1596(15)
O4 O 0.771(3) 0.678(3) 0.2038(12)
Co1 Co 1.0 1.0 0.500
N1 N 0.8497(2) 0.8873(2) 0.45173(9)
C1 C 0.8482(3) 0.8323(3) 0.40865(13)
C2 C 0.7347(3) 0.8549(4) 0.46018(15)
N2 N 0.7392(2) 0.7668(2) 0.38952(9)
H1 H 0.91679 0.83865 0.39307
C3 C 0.6660(3) 0.7808(4) 0.42208(17)
H2 H 0.70667 0.88025 0.48836
C4 C 0.703(2) 0.701(2) 0.3379(8)
H3 H 0.58289 0.74563 0.41892
C5 C 0.7002(6) 0.5803(6) 0.3498(3)
H4 H 0.76169 0.74581 0.31072
H5 H 0.62484 0.68636 0.32677
C6 C 0.5625(8) 0.4827(6) 0.3084(3)
H6 H 0.65103 0.54499 0.38078
H7 H 0.66018 0.52575 0.32073
C7 C 0.6046(7) 0.5618(5) 0.3563(3)
N1M N 1.2206(2) 0.7043(3) 0.21494(9)
C1M C 1.1656(3) 0.6508(4) 0.25802(13)
C2M C 1.1882(4) 0.7869(5) 0.20649(15)
N2M N 1.1001(2) 0.6943(3) 0.27715(9)
H1M H 1.17198 0.58853 0.27360
C3M C 1.1141(4) 0.7815(5) 0.24459(17)
H2M H 1.21358 0.84025 0.17831
C4M C 1.034(2) 0.665(3) 0.3288(8)
H3M H 1.07896 0.82941 0.24775
C5M C 0.9136(6) 0.5468(8) 0.3169(3)
H4M H 1.07914 0.65079 0.35595
H5M H 1.01969 0.72819 0.33990
C6M C 0.8160(6) 0.5869(10) 0.3583(3)
H6M H 0.87832 0.56063 0.28589
H7M H 0.85908 0.53224 0.34594
C7M C 0.8951(5) 0.6239(9) 0.3104(3)
N1N N 0.2957(3) 0.5164(2) 0.21494(9)
C1N C 0.3492(4) 0.5149(3) 0.25802(13)
C2N C 0.2131(5) 0.4014(3) 0.20649(15)
N2N N 0.3057(3) 0.4059(2) 0.27715(9)
H1N H 0.41147 0.58346 0.27360
C3N C 0.2185(5) 0.3327(3) 0.24459(17)
H2N H 0.15975 0.37334 0.17831
C4N C 0.335(3) 0.370(2) 0.3288(8)
H3N H 0.17059 0.24956 0.24775
C5N C 0.4532(8) 0.3669(6) 0.3169(3)
H4N H 0.34921 0.42836 0.35595
H5N H 0.27181 0.29151 0.33990
C6N C 0.4131(10) 0.2292(8) 0.3583(3)
H6N H 0.43937 0.31770 0.28589
H7N H 0.46776 0.32685 0.34594
C7N C 0.3761(9) 0.2713(7) 0.3104(3)
N1A N 0.1127(2) -0.0376(3) 0.45173(9)
C1A C 0.1677(3) 0.0159(4) 0.40865(13)
C2A C 0.1451(4) -0.1202(5) 0.46018(15)
N2A N 0.2332(2) -0.0276(3) 0.38952(9)
H1A H 0.16135 0.07814 0.39307
C3A C 0.2192(4) -0.1148(5) 0.42208(17)
H2A H 0.11975 -0.17358 0.48836
C4A C 0.299(2) 0.002(3) 0.3379(8)
H3A H 0.25437 -0.16274 0.41892
C5A C 0.4197(6) 0.1199(8) 0.3498(3)
H4A H 0.25419 0.01588 0.31072
H5A H 0.31364 -0.06152 0.32677
C6A C 0.5173(6) 0.0798(10) 0.3084(3)
H6A H 0.45501 0.10604 0.38078
H7A H 0.47425 0.13443 0.32073
C7A C 0.4382(5) 0.0428(9) 0.3563(3)
N1B N 1.0376(3) 0.1503(2) 0.45173(9)
C1B C 0.9841(4) 0.1518(3) 0.40865(13)
C2B C 1.1202(5) 0.2653(3) 0.46018(15)
N2B N 1.0276(3) 0.2608(2) 0.38952(9)
H1B H 0.92186 0.08321 0.39307
C3B C 1.1148(5) 0.3340(3) 0.42208(17)
H2B H 1.17358 0.29333 0.48836
C4B C 0.998(3) 0.297(2) 0.3379(8)
H3B H 1.16274 0.41711 0.41892
C5B C 0.8801(8) 0.2998(6) 0.3498(3)
H4B H 0.98412 0.23831 0.31072
H5B H 1.06152 0.37516 0.32677
C6B C 0.9202(10) 0.4375(8) 0.3084(3)
H6B H 0.89396 0.34897 0.38078
H7B H 0.86557 0.33982 0.32073
C7B C 0.9572(9) 0.3954(7) 0.3563(3)
N1L N 0.4836(2) -0.2206(2) 0.21494(9)
C1L C 0.4851(3) -0.1656(3) 0.25802(13)
C2L C 0.5986(3) -0.1882(4) 0.20649(15)
N2L N 0.5941(2) -0.1001(2) 0.27715(9)
H1L H 0.41654 -0.17198 0.27360
C3L C 0.6673(3) -0.1141(4) 0.24459(17)
H2L H 0.62666 -0.21358 0.17831
C4L C 0.630(2) -0.034(2) 0.3288(8)
H3L H 0.75044 -0.07896 0.24775
C5L C 0.6331(6) 0.0864(6) 0.3169(3)
H4L H 0.57164 -0.07914 0.35595
H5L H 0.70849 -0.01969 0.33990
C6L C 0.7708(8) 0.1840(6) 0.3583(3)
H6L H 0.68230 0.12168 0.28589
H7L H 0.67315 0.14092 0.34594
C7L C 0.7287(7) 0.1049(5) 0.3104(3)
Co1_2 Co 0.0 0.0 0.500
Co1_3 Co 1.0 0.0 0.500
Co1F Co 0.333333 -0.333333 0.166667
Co1F_2 Co 0.333333 0.666667 0.166667
Co1F_3 Co 1.333333 0.666667 0.166667
N1A_2 N 1.1127(2) 0.9624(3) 0.45173(9)
N1B_2 N 1.0376(3) 1.1503(2) 0.45173(9)
N1I N 1.1503(2) 1.1127(2) 0.54827(9)
N1J N 0.8873(2) 1.0376(3) 0.54827(9)
N1K N 0.9624(3) 0.8497(2) 0.54827(9)
loop_
_geom_bond_atom_site_label_1
_geom_bond_atom_site_label_2
_geom_bond_site_symmetry_1
_geom_bond_site_symmetry_2
Co1 N1 1_555 1_555
N1 C1 1_555 1_555
C1 N2 1_555 1_555
C2 N1 1_555 1_555
N2 C3 1_555 1_555
H1 C1 1_555 1_555
C3 C2 1_555 1_555
H2 C2 1_555 1_555
C4 N2 1_555 1_555
H3 C3 1_555 1_555
C5 C4 1_555 1_555
H4 C4 1_555 1_555
H5 C4 1_555 1_555
C6 H7 1_555 1_555
H6 C5 1_555 1_555
H7 C5 1_555 1_555
C7 C4 1_555 1_555
O1 N3 1_555 1_555
N3 O1A 1_555 1_555
N1M C1M 1_555 1_555
C1M N2M 1_555 1_555
C2M N1M 1_555 1_555
N2M C3M 1_555 1_555
H1M C1M 1_555 1_555
C3M C2M 1_555 1_555
H2M C2M 1_555 1_555
C4M N2M 1_555 1_555
H3M C3M 1_555 1_555
C5M C4M 1_555 1_555
H4M C4M 1_555 1_555
H5M C4M 1_555 1_555
C6M C5 1_555 1_555
H6M C5M 1_555 1_555
H7M C5M 1_555 1_555
C7M C4M 1_555 1_555
N1N C1N 1_555 1_555
C1N N2N 1_555 1_555
C2N N1N 1_555 1_555
N2N C3N 1_555 1_555
H1N C1N 1_555 1_555
C3N C2N 1_555 1_555
H2N C2N 1_555 1_555
C4N N2N 1_555 1_555
H3N C3N 1_555 1_555
C5N C6 1_555 1_555
H4N C4N 1_555 1_555
H5N C4N 1_555 1_555
C6N H7N 1_555 1_555
H6N C5N 1_555 1_555
H7N C5N 1_555 1_555
C7N C4N 1_555 1_555
N1A C1A 1_555 1_555
C1A N2A 1_555 1_555
C2A N1A 1_555 1_555
N2A C3A 1_555 1_555
H1A C1A 1_555 1_555
C3A C2A 1_555 1_555
H2A C2A 1_555 1_555
C4A N2A 1_555 1_555
H3A C3A 1_555 1_555
C5A C6N 1_555 1_555
H4A C4A 1_555 1_555
H5A C4A 1_555 1_555
C6A H7A 1_555 1_555
H6A C5A 1_555 1_555
H7A C5A 1_555 1_555
C7A C4A 1_555 1_555
N1B C1B 1_555 1_555
C1B N2B 1_555 1_555
C2B N1B 1_555 1_555
N2B C3B 1_555 1_555
H1B C1B 1_555 1_555
C3B C2B 1_555 1_555
H2B C2B 1_555 1_555
C4B N2B 1_555 1_555
H3B C3B 1_555 1_555
C5B C4B 1_555 1_555
H4B C4B 1_555 1_555
H5B C4B 1_555 1_555
C6B C5M 1_555 1_555
H6B C5B 1_555 1_555
H7B C5B 1_555 1_555
C7B C4B 1_555 1_555
N1L C1L 1_555 1_555
C1L N2L 1_555 1_555
C2L N1L 1_555 1_555
N2L C3L 1_555 1_555
H1L C1L 1_555 1_555
C3L C2L 1_555 1_555
H2L C2L 1_555 1_555
C4L N2L 1_555 1_555
H3L C3L 1_555 1_555
C5L C6A 1_555 1_555
H4L C4L 1_555 1_555
H5L C4L 1_555 1_555
C6L C5B 1_555 1_555
H6L C5L 1_555 1_555
H7L C5L 1_555 1_555
C7L C4L 1_555 1_555
Co1_2 N1A 1_555 1_555
Co1_3 N1B 1_555 1_555
Co1F N1L 1_555 1_555
Co1F_2 N1N 1_555 1_555
Co1F_3 N1M 1_555 1_555
N1A_2 Co1 1_555 1_555
N1B_2 Co1 1_555 1_555
N1I Co1 1_555 1_555
N1J Co1 1_555 1_555
N1K Co1 1_555 1_555
O1B N3 1_555 1_555
C5 C7 1_555 1_555
C6 C7 1_555 1_555
H6 C7 1_555 1_555
C5M C7M 1_555 1_555
C6M H7M 1_555 1_555
C6M C7M 1_555 1_555
H6M C7M 1_555 1_555
C4N C5N 1_555 1_555
C5N C7N 1_555 1_555
C6N C7N 1_555 1_555
H6N C7N 1_555 1_555
C4A C5A 1_555 1_555
C5A C7A 1_555 1_555
C6A C7A 1_555 1_555
H6A C7A 1_555 1_555
C5B C7B 1_555 1_555
C6B H7B 1_555 1_555
C6B C7B 1_555 1_555
H6B C7B 1_555 1_555
C4L C5L 1_555 1_555
C5L C7L 1_555 1_555
C6L H7L 1_555 1_555
C6L C7L 1_555 1_555
H6L C7L 1_555 1_555

#END
