
#######################################################################
#
#                 Cambridge Crystallographic Data Centre
#                                CCDC 
#
#######################################################################
#
# If this CIF has been generated from an entry in the Cambridge 
# Structural Database, then it will include bibliographic, chemical, 
# crystal, experimental, refinement or atomic coordinate data resulting 
# from the CCDC's data processing and validation procedures.
#
#######################################################################

data_IMIXEI
_chemical_formula_moiety         '(C18 H18 Cu3 N9 O3 3+)n'
_symmetry_cell_setting           monoclinic
_symmetry_space_group_name_H-M   'P 21/c'
_symmetry_Int_Tables_number      14
_space_group_name_Hall           '-P 2ybc'
loop_
_symmetry_equiv_pos_site_id
_symmetry_equiv_pos_as_xyz
1 x,y,z
2 -x,1/2+y,1/2-z
3 -x,-y,-z
4 x,1/2-y,1/2+z
_cell_length_a                   14.0966(5)
_cell_length_b                   14.1845(7)
_cell_length_c                   24.6706(11)
_cell_angle_alpha                90
_cell_angle_beta                 92.5110(10)
_cell_angle_gamma                90
_cell_volume                     4928.23
loop_
_atom_site_label
_atom_site_type_symbol
_atom_site_fract_x
_atom_site_fract_y
_atom_site_fract_z
_atom_site_U_iso_or_equiv
_atom_site_thermal_displace_type
Cu1 Cu 0.85956(3) 0.66522(3) 0.33858(2) 0.0255 Uani
Cu2 Cu 0.81741(3) 0.44552(4) 0.27765(2) 0.0261 Uani
Cu3 Cu 0.52166(4) 0.96297(4) 0.42878(2) 0.0376 Uani
N1 N 0.7671(2) 0.7668(2) 0.36012(14) 0.0252 Uani
N2 N 0.6237(2) 0.8811(2) 0.39524(14) 0.0283 Uani
N3 N 0.7440(3) 0.5898(3) 0.34244(16) 0.0351 Uani
C1 C 0.7831(3) 0.8561(3) 0.36962(17) 0.0286 Uani
H1 H 0.8447 0.8810 0.3648 0.0340 Uiso
C2 C 0.7108(3) 0.9161(3) 0.38695(18) 0.0327 Uani
H2 H 0.7234 0.9812 0.3928 0.0390 Uiso
C3 C 0.6081(3) 0.7909(3) 0.38415(19) 0.0355 Uani
H3 H 0.5461 0.7661 0.3879 0.0430 Uiso
C4 C 0.6780(3) 0.7322(3) 0.36758(16) 0.0260 Uani
C5 C 0.6702(3) 0.6312(4) 0.3576(2) 0.0423 Uani
C6 C 0.5717(4) 0.5787(4) 0.3610(3) 0.0636 Uani
H4 H 0.5199 0.6237 0.3538 0.0960 Uiso
H5 H 0.5664 0.5517 0.3973 0.0960 Uiso
H6 H 0.5677 0.5282 0.3339 0.0960 Uiso
O1 O 0.73762(19) 0.4977(2) 0.33023(13) 0.0334 Uani
N4 N 0.9058(2) 0.3657(2) 0.23489(14) 0.0248 Uani
N5 N 1.0407(2) 0.2557(2) 0.18982(13) 0.0201 Uani
N6 N 0.9438(2) 0.4918(2) 0.30510(13) 0.0223 Uani
C7 C 0.8812(3) 0.2999(3) 0.19856(18) 0.0317 Uani
H7 H 0.8160 0.2910 0.1884 0.0380 Uiso
C8 C 0.9463(3) 0.2461(3) 0.17625(17) 0.0278 Uani
H8 H 0.9265 0.1999 0.1502 0.0330 Uiso
C9 C 1.0639(2) 0.3182(2) 0.22844(14) 0.0158 Uani
H9 H 1.1282 0.3239 0.2412 0.0190 Uiso
C10 C 0.9950(2) 0.3755(3) 0.25033(15) 0.0205 Uani
C11 C 1.0172(3) 0.4516(3) 0.28993(17) 0.0278 Uani
C12 C 1.1176(3) 0.4756(3) 0.3074(2) 0.0383 Uani
H10 H 1.1181 0.5099 0.3419 0.0580 Uiso
H11 H 1.1456 0.5152 0.2798 0.0580 Uiso
H12 H 1.1547 0.4175 0.3120 0.0580 Uiso
O2 O 0.95300(18) 0.56512(19) 0.34033(11) 0.0248 Uani
N7 N 0.7105(2) 0.4457(2) 0.21864(13) 0.0224 Uani
N8 N 0.5652(2) 0.4570(2) 0.13851(15) 0.0280 Uani
N9 N 0.5941(2) 0.5129(3) 0.04087(16) 0.0356 Uani
C13 C 0.6191(3) 0.4233(3) 0.22867(17) 0.0274 Uani
H13 H 0.6027 0.4068 0.2644 0.0330 Uiso
C14 C 0.5500(3) 0.4245(3) 0.1872(2) 0.0360 Uani
H14 H 0.4887 0.4008 0.1942 0.0440 Uiso
C15 C 0.6549(3) 0.4830(3) 0.12924(18) 0.0262 Uani
C16 C 0.7277(3) 0.4772(3) 0.16838(17) 0.0235 Uani
H15 H 0.7901 0.4956 0.1599 0.0280 Uiso
C17 C 0.6732(3) 0.5204(4) 0.0730(2) 0.0410 Uani
C18 C 0.7667(4) 0.5520(5) 0.0561(2) 0.0585 Uani
H16 H 0.8055 0.4970 0.0476 0.0880 Uiso
H17 H 0.7984 0.5879 0.0856 0.0880 Uiso
H18 H 0.7587 0.5921 0.0239 0.0880 Uiso
O3 O 0.6040(2) 0.5515(3) -0.00815(14) 0.0468 Uani
Cu1A Cu 1.14044(3) 0.16522(3) 0.16142(2) 0.0255 Uani
Cu3A Cu 0.47834(4) 0.46297(4) 0.07122(2) 0.0376 Uani
Cu3C Cu 0.52166(4) 0.53703(4) -0.07122(2) 0.0376 Uani
N5A N 0.9593(2) 0.7557(2) 0.31018(13) 0.0201 Uani
N8A N 0.4348(2) 0.9570(2) 0.36149(15) 0.0280 Uani
N9A N 0.4059(2) 1.0129(3) 0.45913(16) 0.0356 Uani
O3C O 0.6040(2) 0.9485(3) 0.49185(14) 0.0468 Uani
loop_
_atom_site_aniso_label
_atom_site_aniso_U_11
_atom_site_aniso_U_22
_atom_site_aniso_U_33
_atom_site_aniso_U_23
_atom_site_aniso_U_13
_atom_site_aniso_U_12
Cu1 0.0215(3) 0.0191(3) 0.0364(3) 0.0006(2) 0.00574(19) 0.00180(19)
Cu2 0.0192(3) 0.0259(3) 0.0334(3) -0.0035(2) 0.00344(19) -0.00046(19)
Cu3 0.0236(3) 0.0475(4) 0.0415(3) -0.0152(3) 0.0000(2) 0.0058(2)
N1 0.0221(16) 0.0229(18) 0.0310(18) 0.0000(14) 0.0056(13) -0.0013(13)
N2 0.0216(17) 0.032(2) 0.0314(19) -0.0106(15) 0.0036(14) 0.0047(14)
N3 0.033(2) 0.028(2) 0.045(2) 0.0022(17) 0.0085(16) -0.0044(16)
C1 0.025(2) 0.024(2) 0.037(2) -0.0016(18) 0.0044(17) 0.0012(17)
C2 0.028(2) 0.030(2) 0.040(3) -0.004(2) 0.0013(18) 0.0009(18)
C3 0.025(2) 0.041(3) 0.041(3) -0.009(2) 0.0063(18) -0.0063(19)
C4 0.0203(19) 0.029(2) 0.029(2) -0.0018(17) 0.0034(15) 0.0009(16)
C5 0.028(2) 0.043(3) 0.057(3) -0.008(2) 0.016(2) -0.016(2)
C6 0.039(3) 0.054(4) 0.100(5) -0.021(3) 0.028(3) -0.011(3)
O1 0.0297(15) 0.0270(16) 0.0447(18) -0.0111(14) 0.0152(13) -0.0047(13)
N4 0.0186(16) 0.0240(17) 0.0318(19) -0.0008(15) 0.0002(13) 0.0017(13)
N5 0.0170(15) 0.0182(16) 0.0254(17) 0.0002(13) 0.0053(12) -0.0003(12)
N6 0.0194(16) 0.0184(17) 0.0288(18) 0.0025(14) -0.0011(13) -0.0001(13)
C7 0.026(2) 0.030(2) 0.039(2) -0.0059(19) -0.0002(18) 0.0041(18)
C8 0.024(2) 0.024(2) 0.035(2) 0.0025(18) -0.0017(17) -0.0015(17)
C9 0.0109(16) 0.0129(17) 0.0236(18) 0.0029(14) -0.0001(13) -0.0040(13)
C10 0.0151(17) 0.0203(19) 0.026(2) 0.0047(16) 0.0011(14) 0.0030(15)
C11 0.027(2) 0.020(2) 0.036(2) 0.0012(17) -0.0021(17) 0.0001(16)
C12 0.032(2) 0.034(3) 0.048(3) -0.009(2) -0.008(2) 0.014(2)
O2 0.0237(14) 0.0195(14) 0.0310(15) -0.0023(12) -0.0009(11) 0.0023(11)
N7 0.0179(15) 0.0220(17) 0.0277(18) 0.0020(14) 0.0062(13) 0.0009(13)
N8 0.0202(16) 0.0257(19) 0.038(2) 0.0079(15) -0.0006(14) 0.0050(14)
N9 0.0258(18) 0.045(2) 0.036(2) 0.0152(18) 0.0029(15) -0.0077(16)
C13 0.0225(19) 0.028(2) 0.032(2) 0.0047(18) 0.0048(16) 0.0037(17)
C14 0.018(2) 0.042(3) 0.048(3) 0.017(2) 0.0001(18) 0.0002(19)
C15 0.0159(18) 0.022(2) 0.041(2) 0.0114(18) 0.0045(16) -0.0040(16)
C16 0.0165(18) 0.0143(18) 0.040(2) 0.0060(16) 0.0033(16) -0.0002(15)
C17 0.032(2) 0.052(3) 0.039(3) 0.007(2) 0.002(2) -0.002(2)
C18 0.052(3) 0.074(4) 0.049(3) 0.022(3) -0.003(3) -0.011(3)
O3 0.0342(17) 0.066(2) 0.040(2) 0.0109(17) -0.0011(14) -0.0144(16)
Cu1A 0.0215 0.0191 0.0364 -0.0006 0.00574 -0.0018
Cu3A 0.0236 0.0475 0.0415 0.0152 0 -0.0058
Cu3C 0.0236 0.0475 0.0415 0.0152 0 -0.0058
N5A 0.017 0.0182 0.0254 -0.0002 0.0053 0.0003
N8A 0.0202 0.0257 0.038 -0.0079 -0.0006 -0.005
N9A 0.0258 0.045 0.036 -0.0152 0.0029 0.0077
O3C 0.0342 0.066 0.04 -0.0109 -0.0011 0.0144
loop_
_geom_bond_atom_site_label_1
_geom_bond_atom_site_label_2
_geom_bond_site_symmetry_1
_geom_bond_site_symmetry_2
Cu1 N1 1_555 1_555
Cu2 O1 1_555 1_555
Cu3 N2 1_555 1_555
N1 C1 1_555 1_555
N2 C2 1_555 1_555
N3 Cu1 1_555 1_555
C1 H1 1_555 1_555
C2 C1 1_555 1_555
H2 C2 1_555 1_555
C3 N2 1_555 1_555
H3 C3 1_555 1_555
C4 N1 1_555 1_555
C5 N3 1_555 1_555
C6 C5 1_555 1_555
H4 C6 1_555 1_555
H5 C6 1_555 1_555
H6 C6 1_555 1_555
O1 N3 1_555 1_555
N4 Cu2 1_555 1_555
N5 C8 1_555 1_555
N6 Cu2 1_555 1_555
C7 N4 1_555 1_555
H7 C7 1_555 1_555
C8 C7 1_555 1_555
H8 C8 1_555 1_555
C9 N5 1_555 1_555
H9 C9 1_555 1_555
C10 N4 1_555 1_555
C11 N6 1_555 1_555
C12 C11 1_555 1_555
H10 C12 1_555 1_555
H11 C12 1_555 1_555
H12 C12 1_555 1_555
O2 Cu1 1_555 1_555
N7 Cu2 1_555 1_555
N8 C14 1_555 1_555
N9 C17 1_555 1_555
C13 N7 1_555 1_555
H13 C13 1_555 1_555
C14 C13 1_555 1_555
H14 C14 1_555 1_555
C15 N8 1_555 1_555
C16 N7 1_555 1_555
H15 C16 1_555 1_555
C17 C15 1_555 1_555
C18 C17 1_555 1_555
H16 C18 1_555 1_555
H17 C18 1_555 1_555
H18 C18 1_555 1_555
O3 N9 1_555 1_555
Cu1A N5 1_555 1_555
Cu3A N8 1_555 1_555
Cu3C O3 1_555 1_555
N5A Cu1 1_555 1_555
N8A Cu3 1_555 1_555
N9A Cu3 1_555 1_555
O3C Cu3 1_555 1_555
C3 C4 1_555 1_555
C4 C5 1_555 1_555
N6 O2 1_555 1_555
C9 C10 1_555 1_555
C10 C11 1_555 1_555
N9 Cu3A 1_555 1_555
C15 C16 1_555 1_555

#END
