
#######################################################################
#
#                 Cambridge Crystallographic Data Centre
#                                CCDC 
#
#######################################################################
#
# If this CIF has been generated from an entry in the Cambridge 
# Structural Database, then it will include bibliographic, chemical, 
# crystal, experimental, refinement or atomic coordinate data resulting 
# from the CCDC's data processing and validation procedures.
#
#######################################################################

data_QOPCEE
_chemical_formula_moiety         '(C12 H26 Mn5 N2 O26 P4)n'
_symmetry_cell_setting           triclinic
_symmetry_space_group_name_H-M   'P -1'
_symmetry_Int_Tables_number      2
_space_group_name_Hall           '-P 1'
loop_
_symmetry_equiv_pos_site_id
_symmetry_equiv_pos_as_xyz
1 x,y,z
2 -x,-y,-z
_cell_length_a                   5.624(6)
_cell_length_b                   10.303(12)
_cell_length_c                   13.269(15)
_cell_angle_alpha                79.445(15)
_cell_angle_beta                 83.893(14)
_cell_angle_gamma                76.488(14)
_cell_volume                     733.301
loop_
_atom_site_label
_atom_site_type_symbol
_atom_site_fract_x
_atom_site_fract_y
_atom_site_fract_z
Mn1 Mn 1.3204(3) 0.07745(19) 0.40549(14)
Mn2 Mn 1.0000 0.0000 0.0000
Mn3 Mn 1.6002(3) -0.3825(2) 0.34244(15)
P1 P 1.5127(6) -0.1466(3) 0.1192(2)
P2 P 0.7395(5) 0.2243(3) 0.4724(2)
O1 O 1.3305(15) -0.1430(9) 0.0416(6)
O2 O 1.7712(15) -0.1466(9) 0.0730(7)
O3 O 1.5147(17) -0.2667(9) 0.2034(6)
O4 O 1.5531(14) 0.0044(9) 0.2627(6)
H1 H 1.6304 -0.0730 0.2808
O5 O 0.9822(15) 0.0516(9) 0.1521(6)
O6 O 1.0874(14) 0.0319(9) 0.3080(6)
O7 O 0.6173(15) 0.3334(9) 0.5353(6)
O8 O 1.0085(13) 0.1790(8) 0.4873(6)
O9 O 0.6086(15) 0.1074(8) 0.4858(6)
O10 O 0.8305(14) 0.4167(8) 0.3165(6)
H2 H 0.9791 0.3865 0.3152
O11 O 0.3046(14) 0.2858(8) 0.3169(6)
O12 O 0.3637(15) 0.4912(9) 0.3142(6)
O13 O 1.907(3) -0.3150(16) 0.3701(10)
H3 H 2.0181 -0.3306 0.3225
H4 H 1.9601 -0.3572 0.4274
C1 C 1.409(2) 0.0070(12) 0.1772(8)
H8 H 1.4351 0.0830 0.1259
C2 C 1.140(2) 0.0335(13) 0.2148(9)
C3 C 0.707(2) 0.3071(13) 0.3384(10)
H9 H 0.7742 0.2415 0.2921
C4 C 0.437(2) 0.3652(14) 0.3226(9)
Mn1A Mn 1.6796(3) -0.07745(19) -0.40549(14)
Mn1_2 Mn 0.3204(3) 0.07745(19) 0.40549(14)
Mn1A_2 Mn 0.6796(3) -0.07745(19) 0.59451(14)
Mn1_3 Mn 2.3204(3) 0.07745(19) 0.40549(14)
Mn1A_3 Mn 1.6796(3) -0.07745(19) 0.59451(14)
Mn2_2 Mn 2.0000 0.0000 0.0000
Mn3A Mn 1.3998(3) 0.3825(2) -0.34244(15)
Mn3A_2 Mn 0.3998(3) 0.3825(2) 0.65756(15)
Mn3_2 Mn 0.6002(3) 0.6175(2) 0.34244(15)
Mn3A_3 Mn 1.3998(3) 0.3825(2) 0.65756(15)
Mn3_3 Mn 1.6002(3) 0.6175(2) 0.34244(15)
P1A P 1.4873(6) 0.1466(3) -0.1192(2)
P2_2 P 1.7395(5) 0.2243(3) 0.4724(2)
O1A O 1.6695(15) 0.1430(9) -0.0416(6)
O1A_2 O 0.6695(15) 0.1430(9) -0.0416(6)
O2A O 1.2288(15) 0.1466(9) -0.0730(7)
O2_2 O 0.7712(15) -0.1466(9) 0.0730(7)
O3A O 1.4853(17) 0.2667(9) -0.2034(6)
O4A O 1.4469(14) -0.0044(9) -0.2627(6)
H1A H 1.3696 0.0730 -0.2808
O5A O 2.0178(15) -0.0516(9) -0.1521(6)
O5A_2 O 1.0178(15) -0.0516(9) -0.1521(6)
O6A O 1.9126(14) -0.0319(9) -0.3080(6)
O7_2 O 1.6173(15) 0.3334(9) 0.5353(6)
O7A O 1.3827(15) -0.3334(9) 0.4647(6)
O7_3 O 1.6173(15) 0.3334(9) -0.4647(6)
O8_2 O 2.0085(13) 0.1790(8) 0.4873(6)
O8A O 1.9915(13) -0.1790(8) -0.4873(6)
O9_2 O 1.6086(15) 0.1074(8) 0.4858(6)
O9A O 1.3914(15) -0.1074(8) 0.5142(6)
O9A_2 O 1.3914(15) -0.1074(8) -0.4858(6)
O9_3 O 1.6086(15) 0.1074(8) -0.5142(6)
O10_2 O 1.8305(14) 0.4167(8) 0.3165(6)
O10_3 O 1.8305(14) -0.5833(8) 0.3165(6)
O10A O 1.1695(14) 0.5833(8) -0.3165(6)
H2_2 H 1.9791 0.3865 0.3152
H2_3 H 1.9791 -0.6135 0.3152
H2A H 1.0209 0.6135 -0.3152
O11_2 O 1.3046(14) 0.2858(8) 0.3169(6)
O11A O 1.6954(14) -0.2858(8) -0.3169(6)
O12_2 O 1.3637(15) 0.4912(9) 0.3142(6)
O12_3 O 1.3637(15) -0.5088(9) 0.3142(6)
O12A O 1.6363(15) 0.5088(9) -0.3142(6)
O13A O 1.093(3) 0.3150(16) -0.3701(10)
H3A H 0.9819 0.3306 -0.3225
H4A H 1.0399 0.3572 -0.4274
C1A C 1.591(2) -0.0070(12) -0.1772(8)
H8A H 1.5649 -0.0830 -0.1259
C2A C 1.860(2) -0.0335(13) -0.2148(9)
C3_2 C 1.707(2) 0.3071(13) 0.3384(10)
H9_2 H 1.7742 0.2415 0.2921
C4_2 C 1.437(2) 0.3652(14) 0.3226(9)
N1 N 0.118(2) 0.6313(12) 0.1345(10)
H5 H 0.2197 0.6161 0.1844
H6 H -0.0272 0.6160 0.1613
H7 H 0.0991 0.7168 0.1033
C5 C 0.217(5) 0.542(3) 0.061(2)
H10 H 0.2354 0.4493 0.0956
H11 H 0.3777 0.5565 0.0348
C6 C 0.035(10) 0.569(5) -0.038(4)
H12 H -0.0947 0.6499 -0.0434
H13 H 0.1190 0.5534 -0.1041
N1A N -0.118(2) 0.3687(12) -0.1345(10)
H5A H -0.2197 0.3839 -0.1844
H6A H 0.0272 0.3840 -0.1613
H7A H -0.0991 0.2832 -0.1033
C5A C -0.217(5) 0.458(3) -0.061(2)
H10A H -0.2354 0.5507 -0.0956
H11A H -0.3777 0.4435 -0.0348
C6A C -0.035(10) 0.431(5) 0.038(4)
H12A H 0.0947 0.3501 0.0434
H13A H -0.1190 0.4466 0.1041
loop_
_geom_bond_atom_site_label_1
_geom_bond_atom_site_label_2
_geom_bond_site_symmetry_1
_geom_bond_site_symmetry_2
Mn1 O4 1_555 1_555
Mn2 O1 1_555 1_555
Mn3 O3 1_555 1_555
P1 O1 1_555 1_555
P2 O7 1_555 1_555
O2 P1 1_555 1_555
O3 P1 1_555 1_555
O4 H1 1_555 1_555
O5 Mn2 1_555 1_555
O6 Mn1 1_555 1_555
O7 Mn3A_2 1_555 1_555
O8 Mn1 1_555 1_555
O9 P2 1_555 1_555
O10 H2 1_555 1_555
O11 C4 1_555 1_555
O12 C4 1_555 1_555
O13 Mn3 1_555 1_555
H3 O13 1_555 1_555
H4 O13 1_555 1_555
N1 H5 1_555 1_555
H6 N1 1_555 1_555
H7 N1 1_555 1_555
C1 P1 1_555 1_555
H8 C1 1_555 1_555
C2 O5 1_555 1_555
C3 P2 1_555 1_555
H9 C3 1_555 1_555
C4 C3 1_555 1_555
C5 N1 1_555 1_555
H10 C5 1_555 1_555
H11 C5 1_555 1_555
C6 C5 1_555 1_555
H12 C6 1_555 1_555
H13 C6 1_555 1_555
Mn1A O4A 1_555 1_555
Mn1_2 O9 1_555 1_555
Mn1A_2 O9 1_555 1_555
Mn1_3 O8_2 1_555 1_555
Mn1A_3 O9_2 1_555 1_555
Mn2_2 O2 1_555 1_555
Mn3A O3A 1_555 1_555
Mn3_2 O10 1_555 1_555
Mn3A_3 O7_2 1_555 1_555
Mn3_3 O10_2 1_555 1_555
P1A O1A 1_555 1_555
P2_2 O7_2 1_555 1_555
O1A Mn2_2 1_555 1_555
O1A_2 Mn2 1_555 1_555
O2A Mn2 1_555 1_555
O2_2 Mn2 1_555 1_555
O3A P1A 1_555 1_555
O4A H1A 1_555 1_555
O5A Mn2_2 1_555 1_555
O5A_2 Mn2 1_555 1_555
O6A Mn1A 1_555 1_555
O7A Mn3 1_555 1_555
O7_3 Mn3A 1_555 1_555
O8_2 P2_2 1_555 1_555
O8A Mn1A 1_555 1_555
O9_2 Mn1 1_555 1_555
O9A Mn1 1_555 1_555
O9A_2 Mn1A 1_555 1_555
O9_3 Mn1A 1_555 1_555
O10_2 H2_2 1_555 1_555
O10_3 Mn3 1_555 1_555
O10A Mn3A 1_555 1_555
H2_3 O10_3 1_555 1_555
H2A O10A 1_555 1_555
O11_2 Mn1 1_555 1_555
O11A Mn1A 1_555 1_555
O12_2 Mn3_3 1_555 1_555
O12_3 Mn3 1_555 1_555
O12A Mn3A 1_555 1_555
O13A Mn3A 1_555 1_555
H3A O13A 1_555 1_555
H4A O13A 1_555 1_555
N1A H5A 1_555 1_555
H6A N1A 1_555 1_555
H7A N1A 1_555 1_555
C1A P1A 1_555 1_555
H8A C1A 1_555 1_555
C2A O5A 1_555 1_555
C3_2 P2_2 1_555 1_555
H9_2 C3_2 1_555 1_555
C4_2 O11_2 1_555 1_555
C5A N1A 1_555 1_555
H10A C5A 1_555 1_555
H11A C5A 1_555 1_555
C6A C6 1_555 1_555
H12A C6A 1_555 1_555
H13A C6A 1_555 1_555
P2 O8 1_555 1_555
O4 C1 1_555 1_555
O6 C2 1_555 1_555
O10 C3 1_555 1_555
O11 Mn1_2 1_555 1_555
O12 Mn3_2 1_555 1_555
C1 C2 1_555 1_555
Mn1A_3 O9A 1_555 1_555
P1A O2A 1_555 1_555
P2_2 O9_2 1_555 1_555
O4A C1A 1_555 1_555
O6A C2A 1_555 1_555
O10_2 C3_2 1_555 1_555
O12_2 C4_2 1_555 1_555
C1A C2A 1_555 1_555
C3_2 C4_2 1_555 1_555
C5A C6A 1_555 1_555

#END
