
#######################################################################
#
#                 Cambridge Crystallographic Data Centre
#                                CCDC 
#
#######################################################################
#
# If this CIF has been generated from an entry in the Cambridge 
# Structural Database, then it will include bibliographic, chemical, 
# crystal, experimental, refinement or atomic coordinate data resulting 
# from the CCDC's data processing and validation procedures.
#
#######################################################################

data_IMEDOV
_chemical_formula_moiety         'C162 H132 N49 Ni11 O18 S3 2-'
_symmetry_cell_setting           monoclinic
_symmetry_space_group_name_H-M   'C 2/c'
_symmetry_Int_Tables_number      15
_space_group_name_Hall           '-C 2yc'
loop_
_symmetry_equiv_pos_site_id
_symmetry_equiv_pos_as_xyz
1 x,y,z
2 -x,y,1/2-z
3 1/2+x,1/2+y,z
4 1/2-x,1/2+y,1/2-z
5 -x,-y,-z
6 x,-y,1/2+z
7 1/2-x,1/2-y,-z
8 1/2+x,1/2-y,1/2+z
_cell_length_a                   46.618(8)
_cell_length_b                   15.159(2)
_cell_length_c                   27.704(4)
_cell_angle_alpha                90
_cell_angle_beta                 107.721(5)
_cell_angle_gamma                90
_cell_volume                     18649
loop_
_atom_site_label
_atom_site_type_symbol
_atom_site_fract_x
_atom_site_fract_y
_atom_site_fract_z
S2 S 0.94037(3) 0.70739(8) 0.52123(4)
O8 O 0.93178(7) 0.7781(2) 0.55128(11)
O9 O 0.95518(7) 0.7466(2) 0.48691(11)
O10 O 0.96138(8) 0.6444(2) 0.55584(12)
O11 O 0.91313(7) 0.6603(2) 0.49112(12)
C1 C 0.90772(10) 0.8338(3) 0.28694(15)
O1 O 0.99577(7) 1.12378(17) 0.03396(10)
H1 H 0.9917 1.1153 0.0603
Ni1 Ni 1.0000 1.0000 0.0000
Ni2 Ni 0.879198(13) 0.40998(3) 0.44657(2)
Ni3 Ni 1.2500 0.7500 0.5000
N1 N 0.91938(8) 0.9101(2) 0.26992(12)
N2 N 0.84191(8) -0.4218(2) 0.53387(12)
N3 N 1.20169(8) 0.8030(2) 0.13328(13)
N4 N 1.24013(8) 0.5224(2) 0.03403(13)
N5 N 0.98708(7) 0.8937(2) 0.13315(11)
N6 N 0.91849(8) 1.2382(2) 0.36549(13)
N7 N 0.89138(8) 0.3136(2) 0.50235(12)
N8 N 0.87264(8) 0.6084(2) 0.33833(12)
N9 N 1.04677(8) 1.0176(2) 0.02270(12)
S1 S 0.81457(3) 0.29013(8) 0.38070(4)
O2 O 0.91732(6) 0.48417(17) 0.48672(11)
H2 H 0.9126 0.5361 0.4874
O3 O 0.84355(7) 0.32652(19) 0.41230(10)
O4 O 0.79131(7) 0.3602(2) 0.37058(11)
O5 O 1.20647(7) 0.7651(2) 0.50797(11)
H3 H 1.2079 0.7715 0.5380
C2 C 0.86020(10) -0.1923(3) 0.58072(15)
H4 H 0.8751 -0.1502 0.5829
C3 C 1.00889(10) 0.8338(3) 0.13004(15)
H5 H 1.0166 0.7871 0.1520
O6 O 0.81822(8) 0.2565(2) 0.33333(11)
N10 N 1.22853(9) 0.7334(2) 0.42301(13)
C4 C 0.85355(11) 0.0715(3) 0.53308(16)
H6 H 0.8493 0.0812 0.4985
C5 C 0.89709(9) 0.7521(3) 0.35443(15)
H7 H 0.8976 0.7480 0.3882
O7 O 0.80585(7) 0.2162(2) 0.40836(11)
N11 N 1.00087(8) 0.9302(2) 0.06551(12)
N12 N 0.85449(8) -0.5255(2) 0.48757(12)
N13 N 0.86757(8) 0.5018(2) 0.38932(12)
N14 N 1.24771(8) 0.3875(2) 0.00899(13)
N15 N 0.90471(9) 1.3450(2) 0.40844(13)
C6 C 1.12720(10) 0.8678(3) 0.04339(15)
H8 H 1.1120 0.8450 0.0162
C7 C 0.91778(12) 0.3022(3) 0.54193(17)
H9 H 0.9349 0.3371 0.5477
C8 C 0.91491(12) 0.2327(3) 0.57089(18)
H10 H 0.9294 0.2118 0.5996
N16 N 0.76480(10) -0.0357(3) 0.75350(14)
N17 N 0.74702(14) -0.0441(4) 0.8178(2)
C9 C 0.77120(13) -0.0733(3) 0.80084(19)
H11 H 0.7874 -0.1091 0.8176
C10 C 0.87340(10) 0.2504(3) 0.50829(15)
H12 H 0.8540 0.2414 0.4869
C11 C 0.94255(12) 1.2959(3) 0.3819(2)
H13 H 0.9612 1.2910 0.3763
C12 C 0.74129(15) 0.0056(3) 0.74473(19)
H14 H 0.7332 0.0355 0.7143
C13 C 0.94132(10) 0.9788(3) 0.21079(15)
H15 H 0.9323 1.0316 0.2152
C14 C 1.25444(12) 0.5325(3) -0.00177(18)
H16 H 1.2601 0.5852 -0.0135
C15 C 1.23492(10) 0.7621(3) 0.38210(16)
H17 H 1.2524 0.7926 0.3828
C16 C 0.83763(11) -0.5619(3) 0.51582(17)
H18 H 0.8322 -0.6211 0.5150
C17 C 1.22390(14) 0.7457(3) 0.0707(2)
H19 H 1.2262 0.8034 0.0611
C18 C 0.89127(10) 1.1161(3) 0.31307(16)
H20 H 0.8731 1.1447 0.3097
C19 C 0.81961(11) -0.1314(3) 0.69394(17)
H21 H 0.8328 -0.1788 0.6988
C20 C 1.20143(12) 0.6911(3) 0.40468(19)
H22 H 1.1914 0.6633 0.4248
C21 C 0.84707(10) 0.5624(3) 0.31300(16)
H23 H 0.8342 0.5735 0.2806
C22 C 0.93362(12) 1.3609(3) 0.40791(19)
H24 H 0.9453 1.4090 0.4230
C23 C 1.23615(10) 0.7590(3) 0.27165(16)
H25 H 1.2550 0.7464 0.2944
C24 C 0.81447(11) -0.2364(3) 0.59618(17)
H26 H 0.7985 -0.2246 0.6086
C25 C 1.17604(10) 0.8539(3) 0.10452(16)
C26 C 1.01687(10) 0.8569(3) 0.08832(15)
H27 H 1.0311 0.8275 0.0769
C27 C 0.89619(10) 1.2719(3) 0.38220(15)
H28 H 0.8772 1.2465 0.3759
C28 C 0.95844(10) 0.9756(3) 0.17765(15)
H29 H 0.9611 1.0264 0.1606
C29 C 0.88380(10) 0.5689(3) 0.38360(15)
H30 H 0.9012 0.5874 0.4082
C30 C 0.85648(10) -0.4403(3) 0.49913(15)
H31 H 0.8664 -0.3987 0.4854
C31 C 1.23001(10) 0.5916(3) 0.05947(16)
C32 C 1.21087(10) 0.7293(3) 0.10870(15)
C33 C 0.84026(10) -0.3380(3) 0.55609(15)
C34 C 1.23653(10) 0.4349(3) 0.03945(16)
H32 H 1.2273 0.4107 0.0618
C35 C 0.86220(10) -0.2739(3) 0.55962(15)
H33 H 0.8784 -0.2861 0.5477
C36 C 0.87312(11) 0.1277(3) 0.56782(16)
C37 C 0.90847(9) 0.8272(3) 0.33734(15)
H34 H 0.9166 0.8729 0.3598
C38 C 0.89538(9) 0.7654(3) 0.25399(15)
H35 H 0.8944 0.7699 0.2201
C39 C 1.14736(11) 0.9872(3) 0.09974(17)
H36 H 1.1455 1.0439 0.1111
C40 C 1.23344(14) 0.6762(3) 0.0472(2)
H37 H 1.2425 0.6881 0.0223
C41 C 0.94548(10) 1.1119(3) 0.34594(16)
H38 H 0.9635 1.1371 0.3652
C42 C 1.21700(12) 0.5742(3) 0.09631(18)
H39 H 1.2145 0.5162 0.1052
C43 C 0.84683(11) -0.0138(3) 0.60213(16)
C44 C 0.84445(11) 0.4977(3) 0.34500(16)
H40 H 0.8290 0.4562 0.3378
C45 C 0.88448(9) 0.6909(3) 0.27096(15)
H41 H 0.8767 0.6450 0.2486
C46 C 1.19100(12) 0.6949(4) 0.35253(19)
H42 H 1.1732 0.6713 0.3312
C47 C 0.94543(10) 1.0319(3) 0.32219(15)
H43 H 0.9636 1.0039 0.3247
C48 C 0.78383(11) -0.0485(3) 0.72014(16)
C49 C 1.17366(11) 0.9392(3) 0.12039(17)
H44 H 1.1897 0.9647 0.1450
C50 C 1.23300(10) 0.7743(3) 0.22069(16)
H45 H 1.2498 0.7722 0.2093
C51 C 0.83589(10) -0.1727(3) 0.59876(16)
C52 C 0.81663(11) -0.3189(3) 0.57497(17)
H46 H 0.8020 -0.3615 0.5735
C53 C 0.87921(11) 0.1135(3) 0.61900(16)
H47 H 0.8921 0.1513 0.6421
C54 C 1.25880(12) 0.4485(3) -0.01699(18)
H48 H 1.2680 0.4351 -0.0415
C55 C 0.84036(10) 0.0008(3) 0.55058(16)
H49 H 0.8272 -0.0366 0.5276
C56 C 1.20746(12) 0.6433(3) 0.12054(18)
H50 H 1.1985 0.6307 0.1455
C57 C 0.79886(11) -0.0010(3) 0.64897(16)
H51 H 0.7977 0.0395 0.6232
C58 C 1.18009(11) 0.8007(3) 0.20533(17)
H52 H 1.1613 0.8159 0.1834
C59 C 0.78209(11) 0.0119(3) 0.68174(16)
H53 H 0.7697 0.0611 0.6781
C60 C 0.81736(10) -0.0737(3) 0.65424(15)
C61 C 1.21097(11) 0.7627(3) 0.28798(16)
C62 C 0.72800(12) 0.0060(3) 0.78018(19)
H54 H 0.7101 0.0333 0.7799
C63 C 0.91836(10) 1.1546(3) 0.34086(15)
C64 C 0.86614(11) 0.0428(3) 0.63610(16)
H55 H 0.8704 0.0332 0.6707
C65 C 0.83001(11) -0.4997(3) 0.54486(17)
H56 H 0.8190 -0.5079 0.5675
C66 C 0.80260(11) -0.1200(3) 0.72644(17)
H57 H 0.8039 -0.1603 0.7523
C67 C 1.18349(11) 0.7861(3) 0.25556(17)
H58 H 1.1671 0.7922 0.2677
C68 C 1.15331(10) 0.8191(3) 0.06541(15)
H59 H 1.1553 0.7628 0.0535
C69 C 1.20467(11) 0.7927(3) 0.18678(16)
C70 C 0.89157(10) 1.0346(3) 0.29043(15)
H60 H 0.8735 1.0080 0.2723
N18 N 1.21262(9) 0.7411(2) 0.33900(13)
N19 N 0.83418(9) -0.0882(2) 0.61985(13)
C71 C 0.88509(9) 0.6841(3) 0.32144(15)
C72 C 0.93756(9) 0.9046(3) 0.23734(15)
C73 C 0.96832(9) 0.8236(3) 0.19704(14)
H61 H 0.9774 0.7710 0.1925
C74 C 0.91859(10) 0.9931(3) 0.29476(14)
C75 C 0.97137(9) 0.8980(3) 0.16997(14)
C76 C 1.06115(10) 1.0985(3) 0.02863(14)
H62 H 1.0515 1.1531 0.0241
C77 C 0.95172(9) 0.8273(3) 0.23100(14)
H63 H 0.9501 0.7775 0.2496
C78 C 0.98281(9) 0.9498(3) 0.09372(15)
H64 H 0.9691 0.9961 0.0869
N20 N 0.88686(8) 0.1993(2) 0.55001(13)
N21 N 1.09595(8) 0.9954(2) 0.04450(12)
C79 C 1.06820(10) 0.9576(3) 0.03210(14)
H65 H 1.0648 0.8970 0.0305
C80 C 1.09159(10) 1.0861(3) 0.04215(15)
H66 H 1.1064 1.1295 0.0485
C81 C 1.12430(10) 0.9498(3) 0.06243(15)
C1D C 1.09228(10) 1.1662(3) -0.28694(15)
O1D O 1.00423(7) 0.87622(17) -0.03396(10)
H1D H 1.0083 0.8847 -0.0603
Ni2D Ni 1.120802(13) 1.59002(3) -0.44657(2)
N1D N 1.08062(8) 1.0899(2) -0.26992(12)
N2D N 1.15809(8) 2.4218(2) -0.53387(12)
N3D N 0.79831(8) 1.1970(2) -0.13328(13)
N4D N 0.75987(8) 1.4776(2) -0.03403(13)
N5D N 1.01292(7) 1.1063(2) -0.13315(11)
N6D N 1.08151(8) 0.7618(2) -0.36549(13)
N7D N 1.10862(8) 1.6864(2) -0.50235(12)
N8D N 1.12736(8) 1.3916(2) -0.33833(12)
N9D N 0.95323(8) 0.9824(2) -0.02270(12)
S1D S 1.18543(3) 1.70987(8) -0.38070(4)
O2D O 1.08268(6) 1.51583(17) -0.48672(11)
H2D H 1.0874 1.4639 -0.4874
O3D O 1.15645(7) 1.67348(19) -0.41230(10)
O4D O 1.20869(7) 1.6398(2) -0.37058(11)
C2D C 1.13980(10) 2.1923(3) -0.58072(15)
H4D H 1.1249 2.1502 -0.5829
C3D C 0.99111(10) 1.1662(3) -0.13004(15)
H5D H 0.9834 1.2129 -0.1520
O6D O 1.18178(8) 1.7435(2) -0.33333(11)
N10D N 0.77147(9) 1.2666(2) -0.42301(13)
C4D C 1.14645(11) 1.9285(3) -0.53308(16)
H6D H 1.1507 1.9188 -0.4985
C5D C 1.10291(9) 1.2479(3) -0.35443(15)
H7D H 1.1024 1.2520 -0.3882
O7D O 1.19415(7) 1.7838(2) -0.40836(11)
N11D N 0.99913(8) 1.0698(2) -0.06551(12)
N12D N 1.14551(8) 2.5255(2) -0.48757(12)
N13D N 1.13243(8) 1.4982(2) -0.38932(12)
N14D N 0.75229(8) 1.6125(2) -0.00899(13)
N15D N 1.09529(9) 0.6550(2) -0.40844(13)
C6D C 0.87280(10) 1.1322(3) -0.04339(15)
H8D H 0.8880 1.1550 -0.0162
C7D C 1.08222(12) 1.6978(3) -0.54193(17)
H9D H 1.0651 1.6629 -0.5477
C8D C 1.08509(12) 1.7673(3) -0.57089(18)
H10D H 1.0706 1.7882 -0.5996
N16D N 1.23520(10) 2.0357(3) -0.75350(14)
N17D N 1.25298(14) 2.0441(4) -0.8178(2)
C9D C 1.22880(13) 2.0733(3) -0.80084(19)
H11D H 1.2126 2.1091 -0.8176
C10D C 1.12660(10) 1.7496(3) -0.50829(15)
H12D H 1.1460 1.7586 -0.4869
C11D C 1.05745(12) 0.7041(3) -0.3819(2)
H13D H 1.0388 0.7090 -0.3763
C12D C 1.25871(15) 1.9944(3) -0.74473(19)
H14D H 1.2668 1.9645 -0.7143
C13D C 1.05868(10) 1.0212(3) -0.21079(15)
H15D H 1.0677 0.9684 -0.2152
C14D C 0.74556(12) 1.4675(3) 0.00177(18)
H16D H 0.7399 1.4148 0.0135
C15D C 0.76508(10) 1.2379(3) -0.38210(16)
H17D H 0.7476 1.2074 -0.3828
C16D C 1.16237(11) 2.5619(3) -0.51582(17)
H18D H 1.1678 2.6211 -0.5150
C17D C 0.77610(14) 1.2543(3) -0.0707(2)
H19D H 0.7738 1.1966 -0.0611
C18D C 1.10873(10) 0.8839(3) -0.31307(16)
H20D H 1.1269 0.8553 -0.3097
C19D C 1.18039(11) 2.1314(3) -0.69394(17)
H21D H 1.1672 2.1788 -0.6988
C20D C 0.79857(12) 1.3089(3) -0.40468(19)
H22D H 0.8086 1.3367 -0.4248
C21D C 1.15293(10) 1.4376(3) -0.31300(16)
H23D H 1.1658 1.4265 -0.2806
C22D C 1.06638(12) 0.6391(3) -0.40791(19)
H24D H 1.0547 0.5910 -0.4230
C23D C 0.76385(10) 1.2410(3) -0.27165(16)
H25D H 0.7450 1.2536 -0.2944
C24D C 1.18553(11) 2.2364(3) -0.59618(17)
H26D H 1.2015 2.2246 -0.6086
C25D C 0.82396(10) 1.1461(3) -0.10452(16)
C26D C 0.98313(10) 1.1431(3) -0.08832(15)
H27D H 0.9689 1.1725 -0.0769
C27D C 1.10381(10) 0.7281(3) -0.38220(15)
H28D H 1.1228 0.7535 -0.3759
C28D C 1.04156(10) 1.0244(3) -0.17765(15)
H29D H 1.0389 0.9736 -0.1606
C29D C 1.11620(10) 1.4311(3) -0.38360(15)
H30D H 1.0988 1.4126 -0.4082
C30D C 1.14352(10) 2.4403(3) -0.49913(15)
H31D H 1.1336 2.3987 -0.4854
C31D C 0.76999(10) 1.4084(3) -0.05947(16)
C32D C 0.78913(10) 1.2707(3) -0.10870(15)
C33D C 1.15974(10) 2.3380(3) -0.55609(15)
C34D C 0.76347(10) 1.5651(3) -0.03945(16)
H32D H 0.7727 1.5893 -0.0618
C35D C 1.13780(10) 2.2739(3) -0.55962(15)
H33D H 1.1216 2.2861 -0.5477
C36D C 1.12688(11) 1.8723(3) -0.56782(16)
C37D C 1.09153(9) 1.1728(3) -0.33734(15)
H34D H 1.0834 1.1271 -0.3598
C38D C 1.10462(9) 1.2346(3) -0.25399(15)
H35D H 1.1056 1.2301 -0.2201
C39D C 0.85264(11) 1.0128(3) -0.09974(17)
H36D H 0.8545 0.9561 -0.1111
C40D C 0.76656(14) 1.3238(3) -0.0472(2)
H37D H 0.7575 1.3119 -0.0223
C41D C 1.05452(10) 0.8881(3) -0.34594(16)
H38D H 1.0365 0.8629 -0.3652
C42D C 0.78300(12) 1.4258(3) -0.09631(18)
H39D H 0.7855 1.4838 -0.1052
C43D C 1.15317(11) 2.0138(3) -0.60213(16)
C44D C 1.15555(11) 1.5023(3) -0.34500(16)
H40D H 1.1710 1.5438 -0.3378
C45D C 1.11552(9) 1.3091(3) -0.27096(15)
H41D H 1.1233 1.3550 -0.2486
C46D C 0.80900(12) 1.3051(4) -0.35253(19)
H42D H 0.8268 1.3287 -0.3312
C47D C 1.05457(10) 0.9681(3) -0.32219(15)
H43D H 1.0364 0.9961 -0.3247
C48D C 1.21617(11) 2.0485(3) -0.72014(16)
C49D C 0.82634(11) 1.0608(3) -0.12039(17)
H44D H 0.8103 1.0353 -0.1450
C50D C 0.76700(10) 1.2257(3) -0.22069(16)
H45D H 0.7502 1.2278 -0.2093
C51D C 1.16411(10) 2.1727(3) -0.59876(16)
C52D C 1.18337(11) 2.3189(3) -0.57497(17)
H46D H 1.1980 2.3615 -0.5735
C53D C 1.12079(11) 1.8865(3) -0.61900(16)
H47D H 1.1079 1.8487 -0.6421
C54D C 0.74120(12) 1.5515(3) 0.01699(18)
H48D H 0.7320 1.5649 0.0415
C55D C 1.15964(10) 1.9992(3) -0.55058(16)
H49D H 1.1728 2.0366 -0.5276
C56D C 0.79254(12) 1.3567(3) -0.12054(18)
H50D H 0.8015 1.3693 -0.1455
C57D C 1.20114(11) 2.0010(3) -0.64897(16)
H51D H 1.2023 1.9605 -0.6232
C58D C 0.81991(11) 1.1993(3) -0.20533(17)
H52D H 0.8387 1.1841 -0.1834
C59D C 1.21791(11) 1.9881(3) -0.68174(16)
H53D H 1.2303 1.9389 -0.6781
C60D C 1.18264(10) 2.0737(3) -0.65424(15)
C61D C 0.78903(11) 1.2373(3) -0.28798(16)
C62D C 1.27200(12) 1.9940(3) -0.78018(19)
H54D H 1.2899 1.9667 -0.7799
C63D C 1.08164(10) 0.8454(3) -0.34086(15)
C64D C 1.13386(11) 1.9572(3) -0.63610(16)
H55D H 1.1296 1.9668 -0.6707
C65D C 1.16999(11) 2.4997(3) -0.54486(17)
H56D H 1.1810 2.5079 -0.5675
C66D C 1.19740(11) 2.1200(3) -0.72644(17)
H57D H 1.1961 2.1603 -0.7523
C67D C 0.81651(11) 1.2139(3) -0.25556(17)
H58D H 0.8329 1.2078 -0.2677
C68D C 0.84669(10) 1.1809(3) -0.06541(15)
H59D H 0.8447 1.2372 -0.0535
C69D C 0.79533(11) 1.2073(3) -0.18678(16)
C70D C 1.10843(10) 0.9654(3) -0.29043(15)
H60D H 1.1265 0.9920 -0.2723
N18D N 0.78738(9) 1.2589(2) -0.33900(13)
N19D N 1.16582(9) 2.0882(2) -0.61985(13)
C71D C 1.11491(9) 1.3159(3) -0.32144(15)
C72D C 1.06244(9) 1.0954(3) -0.23734(15)
C73D C 1.03168(9) 1.1764(3) -0.19704(14)
H61D H 1.0226 1.2290 -0.1925
C74D C 1.08141(10) 1.0069(3) -0.29476(14)
C75D C 1.02863(9) 1.1020(3) -0.16997(14)
C76D C 0.93885(10) 0.9015(3) -0.02863(14)
H62D H 0.9485 0.8469 -0.0241
C77D C 1.04828(9) 1.1727(3) -0.23100(14)
H63D H 1.0499 1.2225 -0.2496
C78D C 1.01719(9) 1.0502(3) -0.09372(15)
H64D H 1.0309 1.0039 -0.0869
N20D N 1.11314(8) 1.8007(2) -0.55001(13)
N21D N 0.90405(8) 1.0046(2) -0.04450(12)
C79D C 0.93180(10) 1.0424(3) -0.03210(14)
H65D H 0.9352 1.1030 -0.0305
C80D C 0.90841(10) 0.9139(3) -0.04215(15)
H66D H 0.8936 0.8705 -0.0485
C81D C 0.87570(10) 1.0502(3) -0.06243(15)
O5F O 1.29353(7) 0.7349(2) 0.49203(11)
H3F H 1.2921 0.7285 0.4620
Ni2_2 Ni 0.879198(13) -0.59002(3) 0.44657(2)
Ni2_3 Ni 0.879198(13) 1.40998(3) 0.44657(2)
Ni2D_2 Ni 1.120802(13) 0.59002(3) -0.44657(2)
Ni2D_3 Ni 1.120802(13) 2.59002(3) -0.44657(2)
Ni3A Ni 0.7500 1.7500 0.0000
Ni3B Ni 0.7500 1.2500 -0.5000
Ni3C Ni 1.2500 0.2500 0.0000
N10F N 1.27147(9) 0.7666(2) 0.57699(13)
N12_2 N 0.85449(8) 0.4745(2) 0.48757(12)
N12D_2 N 1.14551(8) 1.5255(2) -0.48757(12)
N14C N 1.25229(8) 0.8875(2) 0.49101(13)
N14E N 1.24771(8) 0.6125(2) 0.50899(13)
N15_2 N 0.90471(9) 0.3450(2) 0.40844(13)
N15D_2 N 1.09529(9) 1.6550(2) -0.40844(13)
loop_
_geom_bond_atom_site_label_1
_geom_bond_atom_site_label_2
_geom_bond_site_symmetry_1
_geom_bond_site_symmetry_2
C1 N1 1_555 1_555
O1 H1 1_555 1_555
Ni1 O1 1_555 1_555
Ni2 N7 1_555 1_555
Ni3 O5 1_555 1_555
N1 C72 1_555 1_555
N2 C30 1_555 1_555
N3 C25 1_555 1_555
N4 C14 1_555 1_555
N5 C3 1_555 1_555
N6 C11 1_555 1_555
N7 C7 1_555 1_555
N8 C21 1_555 1_555
N9 Ni1 1_555 1_555
S1 O3 1_555 1_555
O2 Ni2 1_555 1_555
H2 O2 1_555 1_555
O3 Ni2 1_555 1_555
O4 S1 1_555 1_555
O5 H3 1_555 1_555
C2 H4 1_555 1_555
C3 H5 1_555 1_555
O6 S1 1_555 1_555
N10 Ni3 1_555 1_555
C4 H6 1_555 1_555
C5 H7 1_555 1_555
O7 S1 1_555 1_555
N11 Ni1 1_555 1_555
N12 C16 1_555 1_555
N13 Ni2 1_555 1_555
N14 C34 1_555 1_555
N15 C22 1_555 1_555
C6 H8 1_555 1_555
C7 H9 1_555 1_555
C8 C7 1_555 1_555
H10 C8 1_555 1_555
N16 C9 1_555 1_555
N17 C9 1_555 1_555
C9 H11 1_555 1_555
C10 N7 1_555 1_555
H12 C10 1_555 1_555
C11 H13 1_555 1_555
C12 N16 1_555 1_555
H14 C12 1_555 1_555
C13 H15 1_555 1_555
C14 H16 1_555 1_555
C15 N10 1_555 1_555
H17 C15 1_555 1_555
C16 H18 1_555 1_555
C17 H19 1_555 1_555
C18 H20 1_555 1_555
C19 H21 1_555 1_555
C20 N10 1_555 1_555
H22 C20 1_555 1_555
C21 H23 1_555 1_555
C22 C11 1_555 1_555
H24 C22 1_555 1_555
C23 H25 1_555 1_555
C24 H26 1_555 1_555
C25 C49 1_555 1_555
C26 C3 1_555 1_555
H27 C26 1_555 1_555
C27 N6 1_555 1_555
H28 C27 1_555 1_555
C28 C13 1_555 1_555
H29 C28 1_555 1_555
C29 N8 1_555 1_555
H30 C29 1_555 1_555
C30 N12 1_555 1_555
H31 C30 1_555 1_555
C31 N4 1_555 1_555
C32 N3 1_555 1_555
C33 N2 1_555 1_555
C34 N4 1_555 1_555
H32 C34 1_555 1_555
C35 C2 1_555 1_555
H33 C35 1_555 1_555
C36 C4 1_555 1_555
C37 C1 1_555 1_555
H34 C37 1_555 1_555
C38 C1 1_555 1_555
H35 C38 1_555 1_555
C39 H36 1_555 1_555
C40 C17 1_555 1_555
H37 C40 1_555 1_555
C41 H38 1_555 1_555
C42 C31 1_555 1_555
H39 C42 1_555 1_555
C43 C55 1_555 1_555
C44 N13 1_555 1_555
H40 C44 1_555 1_555
C45 C38 1_555 1_555
H41 C45 1_555 1_555
C46 C20 1_555 1_555
H42 C46 1_555 1_555
C47 C41 1_555 1_555
H43 C47 1_555 1_555
C48 N16 1_555 1_555
C49 C39 1_555 1_555
H44 C49 1_555 1_555
C50 C23 1_555 1_555
H45 C50 1_555 1_555
C51 C2 1_555 1_555
C52 C24 1_555 1_555
H46 C52 1_555 1_555
C53 C36 1_555 1_555
H47 C53 1_555 1_555
C54 N14 1_555 1_555
H48 C54 1_555 1_555
C55 C4 1_555 1_555
H49 C55 1_555 1_555
C56 C32 1_555 1_555
H50 C56 1_555 1_555
C57 H51 1_555 1_555
C58 H52 1_555 1_555
C59 C48 1_555 1_555
H53 C59 1_555 1_555
C60 C19 1_555 1_555
C61 C23 1_555 1_555
C62 N17 1_555 1_555
H54 C62 1_555 1_555
C63 N6 1_555 1_555
C64 C43 1_555 1_555
H55 C64 1_555 1_555
C65 N2 1_555 1_555
H56 C65 1_555 1_555
C66 C19 1_555 1_555
H57 C66 1_555 1_555
C67 C58 1_555 1_555
H58 C67 1_555 1_555
C68 C6 1_555 1_555
H59 C68 1_555 1_555
C69 N3 1_555 1_555
C70 C18 1_555 1_555
H60 C70 1_555 1_555
N18 C15 1_555 1_555
N19 C43 1_555 1_555
C71 N8 1_555 1_555
C72 C13 1_555 1_555
C73 H61 1_555 1_555
C74 N1 1_555 1_555
C75 N5 1_555 1_555
C76 N9 1_555 1_555
H62 C76 1_555 1_555
C77 C72 1_555 1_555
H63 C77 1_555 1_555
C78 N5 1_555 1_555
H64 C78 1_555 1_555
N20 C8 1_555 1_555
N21 C79 1_555 1_555
C79 N9 1_555 1_555
H65 C79 1_555 1_555
C80 C76 1_555 1_555
H66 C80 1_555 1_555
C81 C6 1_555 1_555
S2 O8 1_555 1_555
O9 S2 1_555 1_555
O10 S2 1_555 1_555
O11 S2 1_555 1_555
C1D N1D 1_555 1_555
O1D Ni1 1_555 1_555
H1D O1D 1_555 1_555
Ni2D N7D 1_555 1_555
N1D C72D 1_555 1_555
N2D C30D 1_555 1_555
N3D C25D 1_555 1_555
N4D C14D 1_555 1_555
N5D C3D 1_555 1_555
N6D C11D 1_555 1_555
N7D C7D 1_555 1_555
N8D C21D 1_555 1_555
N9D Ni1 1_555 1_555
S1D O3D 1_555 1_555
O2D Ni2D 1_555 1_555
H2D O2D 1_555 1_555
O3D Ni2D 1_555 1_555
O4D S1D 1_555 1_555
C2D H4D 1_555 1_555
C3D H5D 1_555 1_555
O6D S1D 1_555 1_555
N10D C15D 1_555 1_555
C4D H6D 1_555 1_555
C5D H7D 1_555 1_555
O7D S1D 1_555 1_555
N11D Ni1 1_555 1_555
N12D C16D 1_555 1_555
N13D Ni2D 1_555 1_555
N14D C34D 1_555 1_555
N15D C22D 1_555 1_555
C6D H8D 1_555 1_555
C7D H9D 1_555 1_555
C8D C7D 1_555 1_555
H10D C8D 1_555 1_555
N16D C9D 1_555 1_555
N17D C9D 1_555 1_555
C9D H11D 1_555 1_555
C10D N7D 1_555 1_555
H12D C10D 1_555 1_555
C11D H13D 1_555 1_555
C12D N16D 1_555 1_555
H14D C12D 1_555 1_555
C13D H15D 1_555 1_555
C14D H16D 1_555 1_555
C15D H17D 1_555 1_555
C16D H18D 1_555 1_555
C17D H19D 1_555 1_555
C18D H20D 1_555 1_555
C19D H21D 1_555 1_555
C20D N10D 1_555 1_555
H22D C20D 1_555 1_555
C21D H23D 1_555 1_555
C22D C11D 1_555 1_555
H24D C22D 1_555 1_555
C23D H25D 1_555 1_555
C24D H26D 1_555 1_555
C25D C49D 1_555 1_555
C26D C3D 1_555 1_555
H27D C26D 1_555 1_555
C27D N6D 1_555 1_555
H28D C27D 1_555 1_555
C28D C13D 1_555 1_555
H29D C28D 1_555 1_555
C29D N8D 1_555 1_555
H30D C29D 1_555 1_555
C30D N12D 1_555 1_555
H31D C30D 1_555 1_555
C31D N4D 1_555 1_555
C32D N3D 1_555 1_555
C33D N2D 1_555 1_555
C34D N4D 1_555 1_555
H32D C34D 1_555 1_555
C35D C2D 1_555 1_555
H33D C35D 1_555 1_555
C36D C4D 1_555 1_555
C37D C1D 1_555 1_555
H34D C37D 1_555 1_555
C38D C1D 1_555 1_555
H35D C38D 1_555 1_555
C39D H36D 1_555 1_555
C40D C17D 1_555 1_555
H37D C40D 1_555 1_555
C41D H38D 1_555 1_555
C42D C31D 1_555 1_555
H39D C42D 1_555 1_555
C43D C55D 1_555 1_555
C44D N13D 1_555 1_555
H40D C44D 1_555 1_555
C45D C38D 1_555 1_555
H41D C45D 1_555 1_555
C46D C20D 1_555 1_555
H42D C46D 1_555 1_555
C47D C41D 1_555 1_555
H43D C47D 1_555 1_555
C48D N16D 1_555 1_555
C49D C39D 1_555 1_555
H44D C49D 1_555 1_555
C50D C23D 1_555 1_555
H45D C50D 1_555 1_555
C51D C2D 1_555 1_555
C52D C24D 1_555 1_555
H46D C52D 1_555 1_555
C53D C36D 1_555 1_555
H47D C53D 1_555 1_555
C54D N14D 1_555 1_555
H48D C54D 1_555 1_555
C55D C4D 1_555 1_555
H49D C55D 1_555 1_555
C56D C32D 1_555 1_555
H50D C56D 1_555 1_555
C57D H51D 1_555 1_555
C58D H52D 1_555 1_555
C59D C48D 1_555 1_555
H53D C59D 1_555 1_555
C60D C19D 1_555 1_555
C61D C23D 1_555 1_555
C62D N17D 1_555 1_555
H54D C62D 1_555 1_555
C63D N6D 1_555 1_555
C64D C43D 1_555 1_555
H55D C64D 1_555 1_555
C65D N2D 1_555 1_555
H56D C65D 1_555 1_555
C66D C19D 1_555 1_555
H57D C66D 1_555 1_555
C67D C58D 1_555 1_555
H58D C67D 1_555 1_555
C68D C6D 1_555 1_555
H59D C68D 1_555 1_555
C69D N3D 1_555 1_555
C70D C18D 1_555 1_555
H60D C70D 1_555 1_555
N18D C15D 1_555 1_555
N19D C43D 1_555 1_555
C71D N8D 1_555 1_555
C72D C13D 1_555 1_555
C73D H61D 1_555 1_555
C74D N1D 1_555 1_555
C75D N5D 1_555 1_555
C76D N9D 1_555 1_555
H62D C76D 1_555 1_555
C77D C72D 1_555 1_555
H63D C77D 1_555 1_555
C78D N5D 1_555 1_555
H64D C78D 1_555 1_555
N20D C8D 1_555 1_555
N21D C79D 1_555 1_555
C79D N9D 1_555 1_555
H65D C79D 1_555 1_555
C80D C76D 1_555 1_555
H66D C80D 1_555 1_555
C81D C6D 1_555 1_555
O5F Ni3 1_555 1_555
H3F O5F 1_555 1_555
Ni2_2 N12 1_555 1_555
Ni2_3 N15 1_555 1_555
Ni2D_2 N15D 1_555 1_555
Ni2D_3 N12D 1_555 1_555
Ni3A N14D 1_555 1_555
Ni3B N10D 1_555 1_555
Ni3C N14 1_555 1_555
N10F Ni3 1_555 1_555
N12_2 Ni2 1_555 1_555
N12D_2 Ni2D 1_555 1_555
N14C Ni3 1_555 1_555
N14E Ni3 1_555 1_555
N15_2 Ni2 1_555 1_555
N15D_2 Ni2D 1_555 1_555
C5 C37 1_555 1_555
C5 C71 1_555 1_555
N11 C26 1_555 1_555
N11 C78 1_555 1_555
N13 C29 1_555 1_555
N15 C27 1_555 1_555
C10 N20 1_555 1_555
C12 C62 1_555 1_555
C14 C54 1_555 1_555
C16 C65 1_555 1_555
C17 C32 1_555 1_555
C18 C63 1_555 1_555
C21 C44 1_555 1_555
C24 C51 1_555 1_555
C25 C68 1_555 1_555
C28 C75 1_555 1_555
C31 C40 1_555 1_555
C33 C35 1_555 1_555
C33 C52 1_555 1_555
C36 N20 1_555 1_555
C39 C81 1_555 1_555
C41 C63 1_555 1_555
C42 C56 1_555 1_555
C45 C71 1_555 1_555
C46 N18 1_555 1_555
C47 C74 1_555 1_555
C48 C66 1_555 1_555
C50 C69 1_555 1_555
C51 N19 1_555 1_555
C53 C64 1_555 1_555
C57 C59 1_555 1_555
C57 C60 1_555 1_555
C58 C69 1_555 1_555
C60 N19 1_555 1_555
C61 C67 1_555 1_555
C61 N18 1_555 1_555
C70 C74 1_555 1_555
C73 C75 1_555 1_555
C73 C77 1_555 1_555
N21 C80 1_555 1_555
N21 C81 1_555 1_555
C5D C37D 1_555 1_555
C5D C71D 1_555 1_555
N11D C26D 1_555 1_555
N11D C78D 1_555 1_555
N13D C29D 1_555 1_555
N15D C27D 1_555 1_555
C10D N20D 1_555 1_555
C12D C62D 1_555 1_555
C14D C54D 1_555 1_555
C16D C65D 1_555 1_555
C17D C32D 1_555 1_555
C18D C63D 1_555 1_555
C21D C44D 1_555 1_555
C24D C51D 1_555 1_555
C25D C68D 1_555 1_555
C28D C75D 1_555 1_555
C31D C40D 1_555 1_555
C33D C35D 1_555 1_555
C33D C52D 1_555 1_555
C36D N20D 1_555 1_555
C39D C81D 1_555 1_555
C41D C63D 1_555 1_555
C42D C56D 1_555 1_555
C45D C71D 1_555 1_555
C46D N18D 1_555 1_555
C47D C74D 1_555 1_555
C48D C66D 1_555 1_555
C50D C69D 1_555 1_555
C51D N19D 1_555 1_555
C53D C64D 1_555 1_555
C57D C59D 1_555 1_555
C57D C60D 1_555 1_555
C58D C69D 1_555 1_555
C60D N19D 1_555 1_555
C61D C67D 1_555 1_555
C61D N18D 1_555 1_555
C70D C74D 1_555 1_555
C73D C75D 1_555 1_555
C73D C77D 1_555 1_555
N21D C80D 1_555 1_555
N21D C81D 1_555 1_555

#END
