
#######################################################################
#
#                 Cambridge Crystallographic Data Centre
#                                CCDC 
#
#######################################################################
#
# If this CIF has been generated from an entry in the Cambridge 
# Structural Database, then it will include bibliographic, chemical, 
# crystal, experimental, refinement or atomic coordinate data resulting 
# from the CCDC's data processing and validation procedures.
#
#######################################################################

data_JAJZAY
_chemical_formula_moiety         'C26 H6 N8 O16 S4 Zn8'
_symmetry_cell_setting           rhombohedral
_symmetry_space_group_name_H-M   'R -3 m'
_symmetry_Int_Tables_number      166
_space_group_name_Hall           '-R 3 2"'
loop_
_symmetry_equiv_pos_site_id
_symmetry_equiv_pos_as_xyz
1 x,y,z
2 -y,x-y,z
3 -x+y,-x,z
4 y,x,-z
5 -x,-x+y,-z
6 x-y,-y,-z
7 2/3+x,1/3+y,1/3+z
8 2/3-y,1/3+x-y,1/3+z
9 2/3-x+y,1/3-x,1/3+z
10 2/3+y,1/3+x,1/3-z
11 2/3-x,1/3-x+y,1/3-z
12 2/3+x-y,1/3-y,1/3-z
13 1/3+x,2/3+y,2/3+z
14 1/3-y,2/3+x-y,2/3+z
15 1/3-x+y,2/3-x,2/3+z
16 1/3+y,2/3+x,2/3-z
17 1/3-x,2/3-x+y,2/3-z
18 1/3+x-y,2/3-y,2/3-z
19 -x,-y,-z
20 y,-x+y,-z
21 x-y,x,-z
22 -y,-x,z
23 x,x-y,z
24 -x+y,y,z
25 1/3-x,2/3-y,2/3-z
26 1/3+y,2/3-x+y,2/3-z
27 1/3+x-y,2/3+x,2/3-z
28 1/3-y,2/3-x,2/3+z
29 1/3+x,2/3+x-y,2/3+z
30 1/3-x+y,2/3+y,2/3+z
31 2/3-x,1/3-y,1/3-z
32 2/3+y,1/3-x+y,1/3-z
33 2/3+x-y,1/3+x,1/3-z
34 2/3-y,1/3-x,1/3+z
35 2/3+x,1/3+x-y,1/3+z
36 2/3-x+y,1/3+y,1/3+z
_cell_length_a                   19.1998(12)
_cell_length_b                   19.1998(12)
_cell_length_c                   37.747(2)
_cell_angle_alpha                90
_cell_angle_beta                 90
_cell_angle_gamma                120
_cell_volume                     12050.5
loop_
_atom_site_label
_atom_site_type_symbol
_atom_site_fract_x
_atom_site_fract_y
_atom_site_fract_z
Zn1 Zn 0.28519(6) 0.14260(3) 0.13328(3)
S1 S -0.0383(9) 0.1953(15) 0.3562(4)
O1 O 0.2199(3) 0.1825(4) 0.15965(16)
O2 O 0.2955(3) 0.2213(4) 0.20854(16)
O3 O 0.2374(6) 0.1187(3) 0.0851(2)
C1 C 0.1081(4) 0.2162(7) 0.1906(3)
H1 H 0.0995 0.1991 0.1671
N1 N 0.024(6) 0.239(4) 0.3884(18)
N2 N -0.009(3) 0.192(4) 0.3189(11)
C2 C 0.1516(6) 0.3032(11) 0.2971(4)
C3 C 0.2362(5) 0.2087(5) 0.1915(2)
C4 C 0.1771(4) 0.2288(5) 0.2078(2)
C5 C 0.1327(18) 0.359(2) 0.3083(8)
C6 C 0.1375(5) 0.2750(9) 0.2601(3)
C7 C 0.1904(5) 0.2592(6) 0.2421(2)
H2 H 0.2376 0.2694 0.2535
C8 C 0.0905(16) 0.275(3) 0.3222(7)
S1Q S 0.0997(17) 0.4714(15) 0.3105(4)
O1Q O 0.3707(5) 0.4842(4) 0.50702(16)
O2Q O 0.4075(5) 0.4454(4) 0.45813(16)
C1Q C 0.2252(8) 0.4505(7) 0.4761(3)
H1Q H 0.2337 0.4676 0.4996
N1Q N 0.118(7) 0.428(4) 0.2783(18)
N2Q N 0.132(5) 0.475(4) 0.3478(11)
C2Q C 0.1817(13) 0.3635(11) 0.3696(4)
C3Q C 0.3608(7) 0.4580(5) 0.4752(2)
C4Q C 0.2816(6) 0.4379(5) 0.4589(2)
C5Q C 0.1070(27) 0.308(2) 0.3584(8)
C6Q C 0.1958(10) 0.3917(9) 0.4066(3)
C7Q C 0.2645(8) 0.4075(6) 0.4246(2)
H2Q H 0.3015 0.3973 0.4132
C8Q C 0.1488(34) 0.392(3) 0.3445(7)
S1W S 0.2336(17) 0.1953(15) 0.3562(4)
O1W O -0.0374(5) 0.1825(4) 0.15965(16)
O2W O -0.0742(5) 0.2213(4) 0.20854(16)
N1W N 0.215(7) 0.239(4) 0.3884(18)
N2W N 0.201(5) 0.192(4) 0.3189(11)
C3W C -0.0275(7) 0.2087(5) 0.1915(2)
C4W C 0.0517(6) 0.2288(5) 0.2078(2)
C5W C 0.2263(27) 0.359(2) 0.3083(8)
C7W C 0.0688(8) 0.2592(6) 0.2421(2)
H2W H 0.0318 0.2694 0.2535
C8W C 0.1845(34) 0.275(3) 0.3222(7)
S1X S 0.3716(9) 0.4714(15) 0.3105(4)
O1X O 0.1134(3) 0.4842(4) 0.50702(16)
O2X O 0.0378(3) 0.4454(4) 0.45813(16)
N1X N 0.309(6) 0.428(4) 0.2783(18)
N2X N 0.342(3) 0.475(4) 0.3478(11)
C3X C 0.0971(5) 0.4580(5) 0.4752(2)
C4X C 0.1562(4) 0.4379(5) 0.4589(2)
C5X C 0.2006(18) 0.308(2) 0.3584(8)
C7X C 0.1429(5) 0.4075(6) 0.4246(2)
H2X H 0.0957 0.3973 0.4132
C8X C 0.2428(16) 0.392(3) 0.3445(7)
Zn1A Zn -0.14260(3) 0.14259(7) 0.13328(3)
O3A O -0.1187(3) 0.1187(7) 0.0851(2)
Zn1F Zn -0.04814(6) 0.47593(3) 0.46661(3)
Zn1G Zn 0.52407(3) 0.47592(7) 0.46661(3)
Zn1J Zn 0.38148(6) 0.19074(7) 0.20005(3)
Zn1K Zn -0.19074(7) 0.19073(3) 0.20005(3)
Zn1P Zn 0.04814(6) 0.52408(7) 0.53339(3)
Zn1Q Zn 0.47592(7) 0.52407(3) 0.53339(3)
O1A O -0.1825(4) 0.0374(5) 0.15965(16)
O1V O 0.2199(3) 0.0374(5) 0.15965(16)
O2J O 0.3712(3) 0.2591(5) 0.12479(16)
O2K O -0.2591(5) 0.1120(4) 0.12479(16)
O2DA O 0.3712(3) 0.1120(4) 0.12479(16)
O2EA O -0.1120(4) 0.2591(5) 0.12479(16)
loop_
_geom_bond_atom_site_label_1
_geom_bond_atom_site_label_2
_geom_bond_site_symmetry_1
_geom_bond_site_symmetry_2
Zn1 O1 1_555 1_555
S1 N1 1_555 1_555
O1 C3 1_555 1_555
O2 C3 1_555 1_555
O3 Zn1 1_555 1_555
C1 H1 1_555 1_555
N2 S1 1_555 1_555
C2 C5 1_555 1_555
C3 C4 1_555 1_555
C4 C1 1_555 1_555
C5 C8 1_555 1_555
C6 C2 1_555 1_555
C7 C4 1_555 1_555
H2 C7 1_555 1_555
C8 N2 1_555 1_555
S1Q N1Q 1_555 1_555
O1Q C3Q 1_555 1_555
O2Q C3Q 1_555 1_555
C1Q H1Q 1_555 1_555
N2Q S1Q 1_555 1_555
C2Q C5Q 1_555 1_555
C3Q C4Q 1_555 1_555
C4Q C1Q 1_555 1_555
C5Q C8 1_555 1_555
C6Q C2Q 1_555 1_555
C7Q C4Q 1_555 1_555
H2Q C7Q 1_555 1_555
C8Q C5 1_555 1_555
S1W N1W 1_555 1_555
O1W C3W 1_555 1_555
O2W C3W 1_555 1_555
N2W S1W 1_555 1_555
C3W C4W 1_555 1_555
C4W C1 1_555 1_555
C5W C2 1_555 1_555
C7W C6 1_555 1_555
H2W C7W 1_555 1_555
C8W C2 1_555 1_555
S1X N1X 1_555 1_555
O1X C3X 1_555 1_555
O2X C3X 1_555 1_555
N2X S1X 1_555 1_555
C3X C4X 1_555 1_555
C4X C1Q 1_555 1_555
C5X C2Q 1_555 1_555
C7X C6Q 1_555 1_555
H2X C7X 1_555 1_555
C8X C2Q 1_555 1_555
Zn1A O1W 1_555 1_555
O3A Zn1A 1_555 1_555
Zn1F O2X 1_555 1_555
Zn1G O2Q 1_555 1_555
Zn1J O2 1_555 1_555
Zn1K O2W 1_555 1_555
Zn1P O1X 1_555 1_555
Zn1Q O1Q 1_555 1_555
O1A Zn1A 1_555 1_555
O1V Zn1 1_555 1_555
O2J Zn1 1_555 1_555
O2K Zn1A 1_555 1_555
O2DA Zn1 1_555 1_555
O2EA Zn1A 1_555 1_555
C2 C8 1_555 1_555
C5 C5W 1_555 1_555
C6 C7 1_555 1_555
C8 C8W 1_555 1_555
N2Q C8Q 1_555 1_555
C2Q C8Q 1_555 1_555
C5Q C8Q 1_555 1_555
C5Q C5X 1_555 1_555
C6Q C7Q 1_555 1_555
C8Q C8X 1_555 1_555
N2W C8W 1_555 1_555
C4W C7W 1_555 1_555
C5W C8W 1_555 1_555
C5W C8X 1_555 1_555
C8W C5X 1_555 1_555
N2X C8X 1_555 1_555
C4X C7X 1_555 1_555
C5X C8X 1_555 1_555

#END
