
#######################################################################
#
#                 Cambridge Crystallographic Data Centre
#                                CCDC 
#
#######################################################################
#
# If this CIF has been generated from an entry in the Cambridge 
# Structural Database, then it will include bibliographic, chemical, 
# crystal, experimental, refinement or atomic coordinate data resulting 
# from the CCDC's data processing and validation procedures.
#
#######################################################################

data_OQIKOQ
_chemical_formula_moiety         'C230 O109 S12 Zr36'
_symmetry_cell_setting           hexagonal
_symmetry_space_group_name_H-M   'P 6/m m m'
_symmetry_Int_Tables_number      191
_space_group_name_Hall           '-P 6 2'
loop_
_symmetry_equiv_pos_site_id
_symmetry_equiv_pos_as_xyz
1 x,y,z
2 x-y,x,z
3 -y,x-y,z
4 -x,-y,z
5 -x+y,-x,z
6 y,-x+y,z
7 x-y,-y,-z
8 -x,-x+y,-z
9 y,x,-z
10 -y,-x,-z
11 -x+y,y,-z
12 x,x-y,-z
13 -x,-y,-z
14 -x+y,-x,-z
15 y,-x+y,-z
16 x,y,-z
17 x-y,x,-z
18 -y,x-y,-z
19 -x+y,y,z
20 x,x-y,z
21 -y,-x,z
22 y,x,z
23 x-y,-y,z
24 -x,-x+y,z
_cell_length_a                   20.096(14)
_cell_length_b                   20.096
_cell_length_c                   16.372(14)
_cell_angle_alpha                90
_cell_angle_beta                 90
_cell_angle_gamma                120
_cell_volume                     5726
loop_
_atom_site_label
_atom_site_type_symbol
_atom_site_fract_x
_atom_site_fract_y
_atom_site_fract_z
Zr1 Zr 0.1026(3) 0.0000 0.0853(6)
O1 O 0.0932(17) -0.0000 0.0443(14)
O2 O -0.0000 -0.0000 0.125(4)
O3 O 0.2221(9) 0.0783(9) 0.0597(17)
C1 C 0.2533(16) 0.1266(8) 0.0000
C2 C 0.3417(6) 0.1708(3) 0.0000
C3 C 0.3824(4) 0.2323(7) -0.0523(9)
C4 C 0.4621(4) 0.2724(7) -0.0518(9)
C5 C 0.5028(7) 0.2514(4) 0.0000
C6 C 0.5864(9) 0.2932(4) 0.0000
C7 C 0.62673(14) 0.2535(3) 0.0000
O4 O 0.0726(4) -0.0726(4) 0.1835(12)
C8 C 0.0000 -0.11877(17) 0.2029(5)
C9 C -0.0000 -0.16257(15) 0.2875(3)
C10 C 0.0693(4) -0.1609(3) 0.3010(4)
C11 C 0.0781(4) -0.1957(4) 0.3703(5)
C12 C 0.0179(4) -0.2319(4) 0.4257(5)
C13 C -0.0511(4) -0.2335(4) 0.4121(5)
C14 C -0.0603(5) -0.1988(4) 0.3429(5)
S1 S 0.0264(18) -0.2848(19) 0.5000
O5 O 0.104(3) -0.285(4) 0.5000
O6 O -0.038(3) -0.371(3) 0.5000
O3B O 0.9217(9) 0.1438(13) 0.0597(17)
C1B C 0.8734(8) 0.1267(18) 0.0000
C2B C 0.8292(3) 0.1709(7) 0.0000
C3B C 0.7677(7) 0.1501(8) -0.0523(9)
C4B C 0.7276(7) 0.1897(8) -0.0518(9)
C5B C 0.7486(4) 0.2514(8) 0.0000
C6B C 0.7068(4) 0.2932(10) 0.0000
C7B C 0.7465(3) 0.37323(33) 0.0000
O3D O 0.8562(13) 0.7779(9) 0.0597(17)
C1D C 0.8733(18) 0.7467(16) 0.0000
C2D C 0.8291(7) 0.6583(6) 0.0000
C3D C 0.8499(8) 0.6176(4) -0.0523(9)
C4D C 0.8103(8) 0.5379(4) -0.0518(9)
C5D C 0.7486(8) 0.4972(7) 0.0000
C6D C 0.7068(10) 0.4136(9) 0.0000
C7D C 0.62677(33) 0.37327(14) 0.0000
O3J O 0.8562(13) 0.0783(9) -0.0597(17)
C3J C 0.8499(8) 0.2323(7) 0.0523(9)
C4J C 0.8103(8) 0.2724(7) 0.0518(9)
O3K O 0.2221(9) 0.1438(13) -0.0597(17)
C3K C 0.3824(4) 0.1501(8) 0.0523(9)
C4K C 0.4621(4) 0.1897(8) 0.0518(9)
O3M O 0.8562(13) 0.7779(9) -0.0597(17)
C3M C 0.8499(8) 0.6176(4) 0.0523(9)
C4M C 0.8103(8) 0.5379(4) 0.0518(9)
O3O O 0.2221(9) 0.0783(9) -0.0597(17)
C3O C 0.3824(4) 0.2323(7) 0.0523(9)
C4O C 0.4621(4) 0.2724(7) 0.0518(9)
O3Q O 0.9217(9) 0.1438(13) -0.0597(17)
C3Q C 0.7677(7) 0.1501(8) 0.0523(9)
C4Q C 0.7276(7) 0.1897(8) 0.0518(9)
O3R O 0.8562(13) 0.0783(9) 0.0597(17)
C3R C 0.8499(8) 0.2323(7) -0.0523(9)
C4R C 0.8103(8) 0.2724(7) -0.0518(9)
O3S O 0.2221(9) 0.1438(13) 0.0597(17)
C3S C 0.3824(4) 0.1501(8) -0.0523(9)
C4S C 0.4621(4) 0.1897(8) -0.0518(9)
O3I O 0.9217(9) 0.7779(9) -0.0597(17)
C3I C 0.7677(7) 0.6176(4) 0.0523(9)
C4I C 0.7276(7) 0.5379(4) 0.0518(9)
O3T O 0.9217(9) 0.7779(9) 0.0597(17)
C3T C 0.7677(7) 0.6176(4) -0.0523(9)
C4T C 0.7276(7) 0.5379(4) -0.0518(9)
O4A O 0.1452(6) 0.0726(4) 0.1835(12)
C8A C 0.11877(17) -0.0000 0.2029(5)
C9A C 0.16257(15) -0.0000 0.2875(3)
C10A C 0.2302(5) 0.0693(4) 0.3010(4)
C11A C 0.2738(6) 0.0781(4) 0.3703(5)
C12A C 0.2498(6) 0.0179(4) 0.4257(5)
C13A C 0.1824(6) -0.0511(4) 0.4121(5)
C14A C 0.1385(6) -0.0603(5) 0.3429(5)
S1A S 0.3112(26) 0.0264(18) 0.5000
O5A O 0.389(5) 0.104(3) 0.5000
O6A O 0.333(4) -0.038(3) 0.5000
O4E O -0.0726(4) -0.1452(6) 0.1835(12)
C8E C -0.11877(17) -0.11877(17) 0.2029(5)
C9E C -0.16257(15) -0.16257(15) 0.2875(3)
C10E C -0.1609(3) -0.2302(5) 0.3010(4)
C11E C -0.1957(4) -0.2738(6) 0.3703(5)
C12E C -0.2319(4) -0.2498(6) 0.4257(5)
C13E C -0.2335(4) -0.1824(6) 0.4121(5)
C14E C -0.1988(4) -0.1385(6) 0.3429(5)
S1E S -0.2848(19) -0.3112(26) 0.5000
O5E O -0.285(4) -0.389(5) 0.5000
O6E O -0.371(3) -0.333(4) 0.5000
O4G O -0.0726(4) -0.1452(6) 0.8165(12)
C8G C 0.0000 -0.11877(17) 0.7971(5)
C9G C -0.0000 -0.16257(15) 0.7125(3)
C10G C -0.0693(4) -0.2302(5) 0.6990(4)
C11G C -0.0781(4) -0.2738(6) 0.6297(5)
C12G C -0.0179(4) -0.2498(6) 0.5743(5)
C13G C 0.0511(4) -0.1824(6) 0.5879(5)
C14G C 0.0603(5) -0.1385(6) 0.6571(5)
S1G S -0.0264(18) -0.3112(26) 0.5000
O5G O -0.104(3) -0.389(5) 0.5000
O6G O 0.038(3) -0.333(4) 0.5000
O4I O 0.0726(4) -0.0726(4) 0.8165(12)
C8I C 0.11877(17) -0.0000 0.7971(5)
C9I C 0.16257(15) -0.0000 0.7125(3)
C10I C 0.1609(3) -0.0693(4) 0.6990(4)
C11I C 0.1957(4) -0.0781(4) 0.6297(5)
C12I C 0.2319(4) -0.0179(4) 0.5743(5)
C13I C 0.2335(4) 0.0511(4) 0.5879(5)
C14I C 0.1988(4) 0.0603(5) 0.6571(5)
S1I S 0.2848(19) -0.0264(18) 0.5000
O5I O 0.285(4) -0.104(3) 0.5000
O6I O 0.371(3) 0.038(3) 0.5000
O4J O -0.1452(6) -0.0726(4) 0.8165(12)
C8J C -0.11877(17) -0.11877(17) 0.7971(5)
C9J C -0.16257(15) -0.16257(15) 0.7125(3)
C10J C -0.2302(5) -0.1609(3) 0.6990(4)
C11J C -0.2738(6) -0.1957(4) 0.6297(5)
C12J C -0.2498(6) -0.2319(4) 0.5743(5)
C13J C -0.1824(6) -0.2335(4) 0.5879(5)
C14J C -0.1385(6) -0.1988(4) 0.6571(5)
S1J S -0.3112(26) -0.2848(19) 0.5000
O5J O -0.389(5) -0.285(4) 0.5000
O6J O -0.333(4) -0.371(3) 0.5000
C8H C -0.11877(17) -0.0000 0.7971(5)
C9H C -0.16257(15) -0.0000 0.7125(3)
C10M C -0.2302(5) -0.0693(4) 0.6990(4)
C11M C -0.2738(6) -0.0781(4) 0.6297(5)
C12M C -0.2498(6) -0.0179(4) 0.5743(5)
C13M C -0.1824(6) 0.0511(4) 0.5879(5)
C14M C -0.1385(6) 0.0603(5) 0.6571(5)
S1D S -0.3112(26) -0.0264(18) 0.5000
O5D O -0.389(5) -0.104(3) 0.5000
O6D O -0.333(4) 0.038(3) 0.5000
C10N C -0.1609(3) -0.2302(5) 0.6990(4)
C11N C -0.1957(4) -0.2738(6) 0.6297(5)
C12N C -0.2319(4) -0.2498(6) 0.5743(5)
C13N C -0.2335(4) -0.1824(6) 0.5879(5)
C14N C -0.1988(4) -0.1385(6) 0.6571(5)
C10O C 0.0693(4) -0.1609(3) 0.6990(4)
C11O C 0.0781(4) -0.1957(4) 0.6297(5)
C12O C 0.0179(4) -0.2319(4) 0.5743(5)
C13O C -0.0511(4) -0.2335(4) 0.5879(5)
C14O C -0.0603(5) -0.1988(4) 0.6571(5)
O4F O 0.1452(6) 0.0726(4) 0.8165(12)
C10P C 0.2302(5) 0.0693(4) 0.6990(4)
C11P C 0.2738(6) 0.0781(4) 0.6297(5)
C12P C 0.2498(6) 0.0179(4) 0.5743(5)
C13P C 0.1824(6) -0.0511(4) 0.5879(5)
C14P C 0.1385(6) -0.0603(5) 0.6571(5)
O4D O -0.1452(6) -0.0726(4) 0.1835(12)
C10R C -0.2302(5) -0.1609(3) 0.3010(4)
C11R C -0.2738(6) -0.1957(4) 0.3703(5)
C12R C -0.2498(6) -0.2319(4) 0.4257(5)
C13R C -0.1824(6) -0.2335(4) 0.4121(5)
C14R C -0.1385(6) -0.1988(4) 0.3429(5)
C10T C 0.1609(3) -0.0693(4) 0.3010(4)
C11T C 0.1957(4) -0.0781(4) 0.3703(5)
C12T C 0.2319(4) -0.0179(4) 0.4257(5)
C13T C 0.2335(4) 0.0511(4) 0.4121(5)
C14T C 0.1988(4) 0.0603(5) 0.3429(5)
O4C O -0.0726(4) 0.0726(4) 0.1835(12)
C8D C -0.11877(17) -0.0000 0.2029(5)
C9D C -0.16257(15) -0.0000 0.2875(3)
C10U C -0.1609(3) 0.0693(4) 0.3010(4)
C11U C -0.1957(4) 0.0781(4) 0.3703(5)
C12U C -0.2319(4) 0.0179(4) 0.4257(5)
C13U C -0.2335(4) -0.0511(4) 0.4121(5)
C14U C -0.1988(4) -0.0603(5) 0.3429(5)
S1H S -0.2848(19) 0.0264(18) 0.5000
O5H O -0.285(4) 0.104(3) 0.5000
O6H O -0.371(3) -0.038(3) 0.5000
C10W C -0.0693(4) -0.2302(5) 0.3010(4)
C11W C -0.0781(4) -0.2738(6) 0.3703(5)
C12W C -0.0179(4) -0.2498(6) 0.4257(5)
C13W C 0.0511(4) -0.1824(6) 0.4121(5)
C14W C 0.0603(5) -0.1385(6) 0.3429(5)
O4B O 0.0726(4) 0.1452(6) 0.1835(12)
C8B C 0.11877(17) 0.11877(17) 0.2029(5)
C9B C 0.16257(15) 0.16257(15) 0.2875(3)
C10B C 0.1609(3) 0.2302(5) 0.3010(4)
C11B C 0.1957(4) 0.2738(6) 0.3703(5)
C12B C 0.2319(4) 0.2498(6) 0.4257(5)
C13B C 0.2335(4) 0.1824(6) 0.4121(5)
C14B C 0.1988(4) 0.1385(6) 0.3429(5)
S1B S 0.2848(19) 0.3112(26) 0.5000
O5B O 0.285(4) 0.389(5) 0.5000
O6B O 0.371(3) 0.333(4) 0.5000
C8C C 0.0000 0.11877(17) 0.2029(5)
C9C C -0.0000 0.16257(15) 0.2875(3)
C10C C -0.0693(4) 0.1609(3) 0.3010(4)
C11C C -0.0781(4) 0.1957(4) 0.3703(5)
C12C C -0.0179(4) 0.2319(4) 0.4257(5)
C13C C 0.0511(4) 0.2335(4) 0.4121(5)
C14C C 0.0603(5) 0.1988(4) 0.3429(5)
S1C S -0.0264(18) 0.2848(19) 0.5000
O5C O -0.104(3) 0.285(4) 0.5000
O6C O 0.038(3) 0.371(3) 0.5000
C10D C -0.2302(5) -0.0693(4) 0.3010(4)
C11D C -0.2738(6) -0.0781(4) 0.3703(5)
C12D C -0.2498(6) -0.0179(4) 0.4257(5)
C13D C -0.1824(6) 0.0511(4) 0.4121(5)
C14D C -0.1385(6) 0.0603(5) 0.3429(5)
C8F C 0.11877(17) 0.11877(17) 0.7971(5)
C9F C 0.16257(15) 0.16257(15) 0.7125(3)
C10F C 0.2302(5) 0.1609(3) 0.6990(4)
C11F C 0.2738(6) 0.1957(4) 0.6297(5)
C12F C 0.2498(6) 0.2319(4) 0.5743(5)
C13F C 0.1824(6) 0.2335(4) 0.5879(5)
C14F C 0.1385(6) 0.1988(4) 0.6571(5)
S1F S 0.3112(26) 0.2848(19) 0.5000
O5F O 0.389(5) 0.285(4) 0.5000
O6F O 0.333(4) 0.371(3) 0.5000
O4H O -0.0726(4) 0.0726(4) 0.8165(12)
C10H C -0.1609(3) 0.0693(4) 0.6990(4)
C11H C -0.1957(4) 0.0781(4) 0.6297(5)
C12H C -0.2319(4) 0.0179(4) 0.5743(5)
C13H C -0.2335(4) -0.0511(4) 0.5879(5)
C14H C -0.1988(4) -0.0603(5) 0.6571(5)
O4K O 0.0726(4) 0.1452(6) 0.8165(12)
C8K C -0.0000 0.11877(17) 0.7971(5)
C9K C -0.0000 0.16257(15) 0.7125(3)
C10K C 0.0693(4) 0.2302(5) 0.6990(4)
C11K C 0.0781(4) 0.2738(6) 0.6297(5)
C12K C 0.0179(4) 0.2498(6) 0.5743(5)
C13K C -0.0511(4) 0.1824(6) 0.5879(5)
C14K C -0.0603(5) 0.1385(6) 0.6571(5)
S1K S 0.0264(18) 0.3112(26) 0.5000
O5K O 0.104(3) 0.389(5) 0.5000
O6K O -0.038(3) 0.333(4) 0.5000
C10L C -0.0693(4) 0.1609(3) 0.6990(4)
C11L C -0.0781(4) 0.1957(4) 0.6297(5)
C12L C -0.0179(4) 0.2319(4) 0.5743(5)
C13L C 0.0511(4) 0.2335(4) 0.5879(5)
C14L C 0.0603(5) 0.1988(4) 0.6571(5)
C10Q C 0.1609(3) 0.2302(5) 0.6990(4)
C11Q C 0.1957(4) 0.2738(6) 0.6297(5)
C12Q C 0.2319(4) 0.2498(6) 0.5743(5)
C13Q C 0.2335(4) 0.1824(6) 0.5879(5)
C14Q C 0.1988(4) 0.1385(6) 0.6571(5)
C10S C 0.0693(4) 0.2302(5) 0.3010(4)
C11S C 0.0781(4) 0.2738(6) 0.3703(5)
C12S C 0.0179(4) 0.2498(6) 0.4257(5)
C13S C -0.0511(4) 0.1824(6) 0.4121(5)
C14S C -0.0603(5) 0.1385(6) 0.3429(5)
C10V C 0.2302(5) 0.1609(3) 0.3010(4)
C11V C 0.2738(6) 0.1957(4) 0.3703(5)
C12V C 0.2498(6) 0.2319(4) 0.4257(5)
C13V C 0.1824(6) 0.2335(4) 0.4121(5)
C14V C 0.1385(6) 0.1988(4) 0.3429(5)
Zr1A Zr 0.1026(3) -0.8974(3) 0.0853(6)
O1A O 0.0932(17) -0.9068(17) 0.0443(14)
O3A O 0.1438(13) -0.7779(9) 0.0597(17)
C1A C 0.1267(18) -0.7467(16) 0.0000
C2A C 0.1709(7) -0.6583(6) 0.0000
C3A C 0.1501(8) -0.6176(4) -0.0523(9)
C4A C 0.1897(8) -0.5379(4) -0.0518(9)
C5A C 0.2514(8) -0.4972(7) 0.0000
C6A C 0.2932(10) -0.4136(9) 0.0000
C7A C 0.37323(33) -0.37327(14) 0.0000
O3C O 0.7779(9) -0.0783(9) 0.0597(17)
C1C C 0.7467(16) -0.1266(8) 0.0000
C2C C 0.6583(6) -0.1708(3) 0.0000
C3C C 0.6176(4) -0.2323(7) -0.0523(9)
C4C C 0.5379(4) -0.2724(7) -0.0518(9)
C5C C 0.4972(7) -0.2514(4) 0.0000
C6C C 0.4136(9) -0.2932(4) 0.0000
C7C C 0.37327(14) -0.2535(3) 0.0000
O3E O 0.0783(9) -0.1438(13) 0.0597(17)
C1E C 0.1266(8) -0.1267(18) 0.0000
C2E C 0.1708(3) -0.1709(7) 0.0000
C3E C 0.2323(7) -0.1501(8) -0.0523(9)
C4E C 0.2724(7) -0.1897(8) -0.0518(9)
C5E C 0.2514(4) -0.2514(8) 0.0000
C6E C 0.2932(4) -0.2932(10) 0.0000
C7E C 0.2535(3) -0.37323(33) 0.0000
O3G O 0.7779(9) -0.1438(13) -0.0597(17)
C3G C 0.6176(4) -0.1501(8) 0.0523(9)
C4G C 0.5379(4) -0.1897(8) 0.0518(9)
O3H O 0.0783(9) -0.7779(9) -0.0597(17)
C3H C 0.2323(7) -0.6176(4) 0.0523(9)
C4H C 0.2724(7) -0.5379(4) 0.0518(9)
O3N O 0.0783(9) -0.1438(13) -0.0597(17)
C3N C 0.2323(7) -0.1501(8) 0.0523(9)
C4N C 0.2724(7) -0.1897(8) 0.0518(9)
O3P O 0.1438(13) -0.7779(9) -0.0597(17)
C3P C 0.1501(8) -0.6176(4) 0.0523(9)
C4P C 0.1897(8) -0.5379(4) 0.0518(9)
O3L O 0.7779(9) -0.0783(9) -0.0597(17)
C3L C 0.6176(4) -0.2323(7) 0.0523(9)
C4L C 0.5379(4) -0.2724(7) 0.0518(9)
O3W O 0.7779(9) -0.1438(13) 0.0597(17)
C3W C 0.6176(4) -0.1501(8) -0.0523(9)
C4W C 0.5379(4) -0.1897(8) -0.0518(9)
O3U O 0.0783(9) -0.7779(9) 0.0597(17)
C3U C 0.2323(7) -0.6176(4) -0.0523(9)
C4U C 0.2724(7) -0.5379(4) -0.0518(9)
O3F O 0.1438(13) -0.0783(9) -0.0597(17)
C3F C 0.1501(8) -0.2323(7) 0.0523(9)
C4F C 0.1897(8) -0.2724(7) 0.0518(9)
O3V O 0.1438(13) -0.0783(9) 0.0597(17)
C3V C 0.1501(8) -0.2323(7) -0.0523(9)
C4V C 0.1897(8) -0.2724(7) -0.0518(9)
Zr1B Zr 0.0000 -0.8974(3) 0.0853(6)
O1B O -0.0000 -0.9068(17) 0.0443(14)
Zr1C Zr -0.1026(3) 0.0000 0.0853(6)
O1C O -0.0932(17) -0.0000 0.0443(14)
Zr1D Zr -0.1026(3) -0.1026(3) 0.0853(6)
O1D O -0.0932(17) -0.0932(17) 0.0443(14)
Zr1J Zr -0.1026(3) 0.0000 -0.0853(6)
O1J O -0.0932(17) 0.0000 -0.0443(14)
O2F O 0.0000 0.0000 -0.125(4)
Zr1G Zr -0.1026(3) -0.1026(3) -0.0853(6)
O1G O -0.0932(17) -0.0932(17) -0.0443(14)
Zr1F Zr 0.1026(3) 0.0000 -0.0853(6)
O1F O 0.0932(17) 0.0000 -0.0443(14)
Zr1K Zr 0.1026(3) -0.8974(3) -0.0853(6)
O1K O 0.0932(17) -0.9068(17) -0.0443(14)
Zr1H Zr 0.0000 -0.8974(3) -0.0853(6)
O1H O 0.0000 -0.9068(17) -0.0443(14)
Zr1E Zr -0.0000 -0.1026(3) 0.0853(6)
O1E O 0.0000 -0.0932(17) 0.0443(14)
Zr1I Zr 0.0000 -0.1026(3) -0.0853(6)
O1I O 0.0000 -0.0932(17) -0.0443(14)
Zr1_2 Zr 0.1026(3) -1.0000 0.0853(6)
Zr1A_2 Zr 0.1026(3) 0.1026(3) 0.0853(6)
Zr1B_2 Zr -0.0000 0.1026(3) 0.0853(6)
Zr1B_3 Zr 1.0000 0.1026(3) 0.0853(6)
Zr1C_2 Zr -0.1026(3) -1.0000 0.0853(6)
Zr1C_3 Zr 0.8974(3) 0.0000 0.0853(6)
Zr1D_2 Zr 0.8974(3) -0.1026(3) 0.0853(6)
Zr1D_3 Zr 0.8974(3) 0.8974(3) 0.0853(6)
Zr1E_2 Zr 1.0000 0.8974(3) 0.0853(6)
Zr1F_2 Zr 0.1026(3) -1.0000 -0.0853(6)
Zr1F_3 Zr 0.1026(3) 0.0000 0.9147(6)
Zr1G_2 Zr -0.1026(3) -0.1026(3) 0.9147(6)
Zr1G_3 Zr 0.8974(3) -0.1026(3) -0.0853(6)
Zr1G_4 Zr 0.8974(3) 0.8974(3) -0.0853(6)
Zr1H_2 Zr 0.0000 0.1026(3) -0.0853(6)
Zr1H_3 Zr -0.0000 0.1026(3) 0.9147(6)
Zr1H_4 Zr 1.0000 0.1026(3) -0.0853(6)
Zr1I_2 Zr 0.0000 -0.1026(3) 0.9147(6)
Zr1I_3 Zr 1.0000 0.8974(3) -0.0853(6)
Zr1J_2 Zr -0.1026(3) -1.0000 -0.0853(6)
Zr1J_3 Zr -0.1026(3) 0.0000 0.9147(6)
Zr1J_4 Zr 0.8974(3) 0.0000 -0.0853(6)
Zr1K_2 Zr 0.1026(3) 0.1026(3) -0.0853(6)
Zr1K_3 Zr 0.1026(3) 0.1026(3) 0.9147(6)
O1_2 O 0.0932(17) -1.0000 0.0443(14)
O1A_2 O 0.0932(17) 0.0932(17) 0.0443(14)
O1B_2 O -0.0000 0.0932(17) 0.0443(14)
O1C_2 O -0.0932(17) -1.0000 0.0443(14)
O1F_2 O 0.0932(17) -1.0000 -0.0443(14)
O1H_2 O -0.0000 0.0932(17) -0.0443(14)
O1J_2 O -0.0932(17) -1.0000 -0.0443(14)
O1K_2 O 0.0932(17) 0.0932(17) -0.0443(14)
O2_2 O 0.0000 -1.0000 0.125(4)
O2F_2 O 0.0000 -1.0000 -0.125(4)
O3B_2 O -0.0783(9) -0.8562(13) 0.0597(17)
O3C_2 O -0.2221(9) -0.0783(9) 0.0597(17)
O3D_2 O -0.1438(13) -0.2221(9) 0.0597(17)
O3G_2 O -0.2221(9) -0.1438(13) -0.0597(17)
O3I_2 O -0.0783(9) -0.2221(9) -0.0597(17)
O3J_2 O -0.1438(13) 0.0783(9) -0.0597(17)
O3K_2 O 0.2221(9) -0.8562(13) -0.0597(17)
O3L_2 O -0.2221(9) -0.0783(9) -0.0597(17)
O3M_2 O -0.1438(13) -0.2221(9) -0.0597(17)
O3Q_2 O -0.0783(9) -0.8562(13) -0.0597(17)
O3R_2 O -0.1438(13) 0.0783(9) 0.0597(17)
O3S_2 O 0.2221(9) -0.8562(13) 0.0597(17)
O3T_2 O -0.0783(9) -0.2221(9) 0.0597(17)
O3W_2 O -0.2221(9) -0.1438(13) 0.0597(17)
O4A_2 O 0.1452(6) -0.9274(4) 0.1835(12)
O4B_2 O 0.0726(4) -0.8548(6) 0.1835(12)
O4C_2 O -0.0726(4) -0.9274(4) 0.1835(12)
O4F_2 O 0.1452(6) -0.9274(4) -0.1835(12)
O4F_3 O 0.1452(6) 0.0726(4) -0.1835(12)
O4G_2 O -0.0726(4) -0.1452(6) -0.1835(12)
O4H_2 O -0.0726(4) -0.9274(4) -0.1835(12)
O4H_3 O -0.0726(4) 0.0726(4) -0.1835(12)
O4I_2 O 0.0726(4) -0.0726(4) -0.1835(12)
O4J_2 O -0.1452(6) -0.0726(4) -0.1835(12)
O4K_2 O 0.0726(4) -0.8548(6) -0.1835(12)
C8B_2 C 0.11877(17) -0.88123(17) 0.2029(5)
C8C_2 C -0.0000 -0.88123(17) 0.2029(5)
C8F_2 C 0.11877(17) -0.88123(17) -0.2029(5)
C8G_2 C -0.0000 -0.11877(17) -0.2029(5)
C8H_2 C -0.11877(17) 0.0000 -0.2029(5)
C8I_2 C 0.11877(17) 0.0000 -0.2029(5)
C8J_2 C -0.11877(17) -0.11877(17) -0.2029(5)
C8K_2 C 0.0000 -0.88123(17) -0.2029(5)
loop_
_geom_bond_atom_site_label_1
_geom_bond_atom_site_label_2
_geom_bond_site_symmetry_1
_geom_bond_site_symmetry_2
Zr1 O1 1_555 1_555
O1 Zr1F 1_555 1_555
O2 Zr1 1_555 1_555
O3 Zr1 1_555 1_555
C1 O3 1_555 1_555
C2 C1 1_555 1_555
C3 C2 1_555 1_555
C4 C3 1_555 1_555
C5 C4 1_555 1_555
C6 C5 1_555 1_555
C7 C6 1_555 1_555
O4 Zr1 1_555 1_555
C8 O4 1_555 1_555
C9 C8 1_555 1_555
C10 C9 1_555 1_555
C11 C10 1_555 1_555
C12 C11 1_555 1_555
C13 C12 1_555 1_555
C14 C9 1_555 1_555
S1 C12 1_555 1_555
O5 S1 1_555 1_555
O6 S1 1_555 1_555
O3B C1B 1_555 1_555
C1B C2B 1_555 1_555
C2B C3B 1_555 1_555
C3B C4B 1_555 1_555
C4B C5B 1_555 1_555
C5B C6B 1_555 1_555
C6B C7 1_555 1_555
C7B C6B 1_555 1_555
O3D C1D 1_555 1_555
C1D C2D 1_555 1_555
C2D C3D 1_555 1_555
C3D C4D 1_555 1_555
C4D C5D 1_555 1_555
C5D C6D 1_555 1_555
C6D C7B 1_555 1_555
C7D C6 1_555 1_555
O3J C1B 1_555 1_555
C3J C2B 1_555 1_555
C4J C5B 1_555 1_555
O3K C1 1_555 1_555
C3K C2 1_555 1_555
C4K C5 1_555 1_555
O3M C1D 1_555 1_555
C3M C2D 1_555 1_555
C4M C4D 1_555 1_555
O3O C1 1_555 1_555
C3O C2 1_555 1_555
C4O C4 1_555 1_555
O3Q C1B 1_555 1_555
C3Q C2B 1_555 1_555
C4Q C4B 1_555 1_555
O3R O3B 1_555 1_555
C3R C2B 1_555 1_555
C4R C4B 1_555 1_555
O3S O3 1_555 1_555
C3S C2 1_555 1_555
C4S C4 1_555 1_555
O3I C1D 1_555 1_555
C3I C2D 1_555 1_555
C4I C5D 1_555 1_555
O3T O3D 1_555 1_555
C3T C2D 1_555 1_555
C4T C4D 1_555 1_555
O4A Zr1 1_555 1_555
C8A Zr1 1_555 1_555
C9A C8A 1_555 1_555
C10A C9A 1_555 1_555
C11A C10A 1_555 1_555
C12A C11A 1_555 1_555
C13A C12A 1_555 1_555
C14A C9A 1_555 1_555
S1A C12A 1_555 1_555
O5A S1A 1_555 1_555
O6A S1A 1_555 1_555
O4E C8 1_555 1_555
C8E O4E 1_555 1_555
C9E C8E 1_555 1_555
C10E C9E 1_555 1_555
C11E C10E 1_555 1_555
C12E C11E 1_555 1_555
C13E C12E 1_555 1_555
C14E C9E 1_555 1_555
S1E C12E 1_555 1_555
O5E S1E 1_555 1_555
O6E S1E 1_555 1_555
O4G C8G 1_555 1_555
C8G C9G 1_555 1_555
C9G C10G 1_555 1_555
C10G C11G 1_555 1_555
C11G C12G 1_555 1_555
C12G S1 1_555 1_555
C13G C12G 1_555 1_555
C14G C9G 1_555 1_555
S1G C12 1_555 1_555
O5G O6 1_555 1_555
O6G S1 1_555 1_555
O4I C8G 1_555 1_555
C8I O4I 1_555 1_555
C9I C8I 1_555 1_555
C10I C9I 1_555 1_555
C11I C10I 1_555 1_555
C12I S1A 1_555 1_555
C13I C12I 1_555 1_555
C14I C9I 1_555 1_555
S1I C12A 1_555 1_555
O5I O6A 1_555 1_555
O6I S1A 1_555 1_555
O4J C8J 1_555 1_555
C8J O4G 1_555 1_555
C9J C8J 1_555 1_555
C10J C9J 1_555 1_555
C11J C10J 1_555 1_555
C12J S1E 1_555 1_555
C13J C12J 1_555 1_555
C14J C9J 1_555 1_555
S1J C12E 1_555 1_555
O5J O6E 1_555 1_555
O6J S1E 1_555 1_555
C8H O4J 1_555 1_555
C9H C8H 1_555 1_555
C10M C9H 1_555 1_555
C11M C10M 1_555 1_555
C12M C11M 1_555 1_555
C13M C12M 1_555 1_555
C14M C9H 1_555 1_555
S1D C12M 1_555 1_555
O5D S1D 1_555 1_555
O6D S1D 1_555 1_555
C10N C9J 1_555 1_555
C11N C13J 1_555 1_555
C12N S1E 1_555 1_555
C13N C11J 1_555 1_555
C14N C9J 1_555 1_555
C10O C9G 1_555 1_555
C11O C13G 1_555 1_555
C12O S1 1_555 1_555
C13O C11G 1_555 1_555
C14O C9G 1_555 1_555
O4F C8I 1_555 1_555
C10P C9I 1_555 1_555
C11P C13I 1_555 1_555
C12P S1A 1_555 1_555
C13P C11I 1_555 1_555
C14P C14G 1_555 1_555
O4D C8E 1_555 1_555
C10R C9E 1_555 1_555
C11R C13E 1_555 1_555
C12R C12E 1_555 1_555
C13R C11E 1_555 1_555
C14R C14 1_555 1_555
C10T C9A 1_555 1_555
C11T C13A 1_555 1_555
C12T C12A 1_555 1_555
C13T C11A 1_555 1_555
C14T C9A 1_555 1_555
O4C C8D 1_555 1_555
C8D O4D 1_555 1_555
C9D C8D 1_555 1_555
C10U C9D 1_555 1_555
C11U C10U 1_555 1_555
C12U S1D 1_555 1_555
C13U C12U 1_555 1_555
C14U C14E 1_555 1_555
S1H C12M 1_555 1_555
O5H O6D 1_555 1_555
O6H S1D 1_555 1_555
C10W C9 1_555 1_555
C11W C13 1_555 1_555
C12W C12 1_555 1_555
C13W C11 1_555 1_555
C14W C9 1_555 1_555
O4B C8B 1_555 1_555
C8B O4A 1_555 1_555
C9B C8B 1_555 1_555
C10B C9B 1_555 1_555
C11B C10B 1_555 1_555
C12B C11B 1_555 1_555
C13B C12B 1_555 1_555
C14B C14T 1_555 1_555
S1B C12B 1_555 1_555
O5B S1B 1_555 1_555
O6B S1B 1_555 1_555
C8C O4C 1_555 1_555
C9C C8C 1_555 1_555
C10C C9C 1_555 1_555
C11C C10C 1_555 1_555
C12C C11C 1_555 1_555
C13C C12C 1_555 1_555
C14C C9C 1_555 1_555
S1C C12C 1_555 1_555
O5C S1C 1_555 1_555
O6C S1C 1_555 1_555
C10D C9D 1_555 1_555
C11D C13U 1_555 1_555
C12D S1D 1_555 1_555
C13D C11U 1_555 1_555
C14D C9D 1_555 1_555
C8F O4F 1_555 1_555
C9F C8F 1_555 1_555
C10F C9F 1_555 1_555
C11F C10F 1_555 1_555
C12F S1B 1_555 1_555
C13F C12F 1_555 1_555
C14F C9F 1_555 1_555
S1F C12B 1_555 1_555
O5F O6B 1_555 1_555
O6F S1B 1_555 1_555
O4H C8H 1_555 1_555
C10H C9H 1_555 1_555
C11H C13M 1_555 1_555
C12H C12M 1_555 1_555
C13H C11M 1_555 1_555
C14H C9H 1_555 1_555
O4K C8F 1_555 1_555
C8K O4H 1_555 1_555
C9K C8K 1_555 1_555
C10K C9K 1_555 1_555
C11K C10K 1_555 1_555
C12K S1C 1_555 1_555
C13K C12K 1_555 1_555
C14K C14M 1_555 1_555
S1K C12C 1_555 1_555
O5K O6C 1_555 1_555
O6K S1C 1_555 1_555
C10L C9K 1_555 1_555
C11L C13K 1_555 1_555
C12L S1C 1_555 1_555
C13L C11K 1_555 1_555
C14L C14F 1_555 1_555
C10Q C9F 1_555 1_555
C11Q C13F 1_555 1_555
C12Q S1B 1_555 1_555
C13Q C11F 1_555 1_555
C14Q C14I 1_555 1_555
C10S C9C 1_555 1_555
C11S C13C 1_555 1_555
C12S C12C 1_555 1_555
C13S C11C 1_555 1_555
C14S C9C 1_555 1_555
C10V C9B 1_555 1_555
C11V C13B 1_555 1_555
C12V C12B 1_555 1_555
C13V C11B 1_555 1_555
C14V C9B 1_555 1_555
Zr1A O1A 1_555 1_555
O1A Zr1B 1_555 1_555
O3A Zr1A 1_555 1_555
C1A O3A 1_555 1_555
C2A C1A 1_555 1_555
C3A C2A 1_555 1_555
C4A C3A 1_555 1_555
C5A C4A 1_555 1_555
C6A C5A 1_555 1_555
C7A C6A 1_555 1_555
O3C C1C 1_555 1_555
C1C C2C 1_555 1_555
C2C C3C 1_555 1_555
C3C C4C 1_555 1_555
C4C C5C 1_555 1_555
C5C C6C 1_555 1_555
C6C C7A 1_555 1_555
C7C C6C 1_555 1_555
O3E C1E 1_555 1_555
C1E C2E 1_555 1_555
C2E C3E 1_555 1_555
C3E C4E 1_555 1_555
C4E C5E 1_555 1_555
C5E C6E 1_555 1_555
C6E C7C 1_555 1_555
C7E C6A 1_555 1_555
O3G C1C 1_555 1_555
C3G C2C 1_555 1_555
C4G C5C 1_555 1_555
O3H C1A 1_555 1_555
C3H C2A 1_555 1_555
C4H C5A 1_555 1_555
O3N C1E 1_555 1_555
C3N C2E 1_555 1_555
C4N C4E 1_555 1_555
O3P C1A 1_555 1_555
C3P C2A 1_555 1_555
C4P C4A 1_555 1_555
O3L C1C 1_555 1_555
C3L C2C 1_555 1_555
C4L C4C 1_555 1_555
O3W O3C 1_555 1_555
C3W C2C 1_555 1_555
C4W C4C 1_555 1_555
O3U O3A 1_555 1_555
C3U C2A 1_555 1_555
C4U C4A 1_555 1_555
O3F C1E 1_555 1_555
C3F C2E 1_555 1_555
C4F C5E 1_555 1_555
O3V Zr1 1_555 1_555
C3V C2E 1_555 1_555
C4V C4E 1_555 1_555
Zr1B O3U 1_555 1_555
O1B Zr1A 1_555 1_555
Zr1C O2 1_555 1_555
O1C Zr1C 1_555 1_555
Zr1D O2 1_555 1_555
O1D Zr1C 1_555 1_555
Zr1J O1C 1_555 1_555
O1J Zr1C 1_555 1_555
O2F Zr1J 1_555 1_555
Zr1G O1D 1_555 1_555
O1G Zr1D 1_555 1_555
Zr1F O3O 1_555 1_555
O1F Zr1 1_555 1_555
Zr1K O1A 1_555 1_555
O1K Zr1A 1_555 1_555
Zr1H O3H 1_555 1_555
O1H Zr1B 1_555 1_555
Zr1E O1 1_555 1_555
O1E Zr1 1_555 1_555
Zr1I O3N 1_555 1_555
O1I Zr1G 1_555 1_555
Zr1_2 O1A 1_555 1_555
Zr1A_2 O1 1_555 1_555
Zr1B_2 O2 1_555 1_555
Zr1B_3 O3B 1_555 1_555
Zr1C_2 O1B 1_555 1_555
Zr1C_3 O3R 1_555 1_555
Zr1D_2 O3W 1_555 1_555
Zr1D_3 O3D 1_555 1_555
Zr1E_2 O3T 1_555 1_555
Zr1F_2 O1K 1_555 1_555
Zr1F_3 O4I 1_555 1_555
Zr1G_2 O4G 1_555 1_555
Zr1G_3 O3G 1_555 1_555
Zr1G_4 O3M 1_555 1_555
Zr1H_2 O1J 1_555 1_555
Zr1H_3 O4H 1_555 1_555
Zr1H_4 O3Q 1_555 1_555
Zr1I_2 O4G 1_555 1_555
Zr1I_3 O3I 1_555 1_555
Zr1J_2 O1H 1_555 1_555
Zr1J_3 O4J 1_555 1_555
Zr1J_4 O3J 1_555 1_555
Zr1K_2 O3K 1_555 1_555
Zr1K_3 O4F 1_555 1_555
O1_2 Zr1A 1_555 1_555
O1A_2 Zr1 1_555 1_555
O1B_2 Zr1C 1_555 1_555
O1C_2 Zr1B 1_555 1_555
O1F_2 Zr1K 1_555 1_555
O1H_2 Zr1J 1_555 1_555
O1J_2 Zr1H 1_555 1_555
O1K_2 Zr1F 1_555 1_555
O2_2 Zr1A 1_555 1_555
O2F_2 Zr1K 1_555 1_555
O3B_2 Zr1B 1_555 1_555
O3C_2 Zr1C 1_555 1_555
O3D_2 Zr1D 1_555 1_555
O3G_2 Zr1G 1_555 1_555
O3I_2 Zr1I 1_555 1_555
O3J_2 Zr1J 1_555 1_555
O3K_2 Zr1K 1_555 1_555
O3L_2 Zr1J 1_555 1_555
O3M_2 Zr1G 1_555 1_555
O3Q_2 Zr1H 1_555 1_555
O3R_2 Zr1C 1_555 1_555
O3S_2 Zr1A 1_555 1_555
O3T_2 Zr1E 1_555 1_555
O3W_2 Zr1D 1_555 1_555
O4A_2 Zr1A 1_555 1_555
O4B_2 Zr1A 1_555 1_555
O4C_2 Zr1B 1_555 1_555
O4F_2 Zr1K 1_555 1_555
O4F_3 Zr1F 1_555 1_555
O4G_2 Zr1G 1_555 1_555
O4H_2 Zr1H 1_555 1_555
O4H_3 Zr1J 1_555 1_555
O4I_2 Zr1F 1_555 1_555
O4J_2 Zr1J 1_555 1_555
O4K_2 Zr1K 1_555 1_555
C8B_2 Zr1A 1_555 1_555
C8C_2 Zr1B 1_555 1_555
C8F_2 Zr1K 1_555 1_555
C8G_2 Zr1I 1_555 1_555
C8H_2 Zr1J 1_555 1_555
C8I_2 Zr1F 1_555 1_555
C8J_2 Zr1G 1_555 1_555
C8K_2 Zr1H 1_555 1_555
O1 O1F 1_555 1_555
O2 Zr1E 1_555 1_555
O2 Zr1A_2 1_555 1_555
C1 O3S 1_555 1_555
C3 C3O 1_555 1_555
C3 C3S 1_555 1_555
C5 C4O 1_555 1_555
C5 C4S 1_555 1_555
O4 C8A 1_555 1_555
O4 Zr1E 1_555 1_555
C8 Zr1E 1_555 1_555
C10 C14W 1_555 1_555
C11 C14W 1_555 1_555
C12 C13W 1_555 1_555
C13 C14 1_555 1_555
C13 C12W 1_555 1_555
C13 C13W 1_555 1_555
C14 C10W 1_555 1_555
C14 C11W 1_555 1_555
S1 S1G 1_555 1_555
S1 C12W 1_555 1_555
O5 O6G 1_555 1_555
O6 S1G 1_555 1_555
O6 O6G 1_555 1_555
C1B O3R 1_555 1_555
C3B C3Q 1_555 1_555
C3B C3R 1_555 1_555
C5B C4Q 1_555 1_555
C5B C4R 1_555 1_555
C1D O3T 1_555 1_555
C3D C3M 1_555 1_555
C3D C3T 1_555 1_555
C5D C4M 1_555 1_555
C5D C4T 1_555 1_555
C6D C7D 1_555 1_555
O3J O3Q 1_555 1_555
C3J C4J 1_555 1_555
C3J C3Q 1_555 1_555
C3J C3R 1_555 1_555
C4J C4Q 1_555 1_555
C4J C4R 1_555 1_555
O3K O3O 1_555 1_555
C3K C4K 1_555 1_555
C3K C3O 1_555 1_555
C3K C3S 1_555 1_555
C4K C4O 1_555 1_555
C4K C4S 1_555 1_555
O3M O3I 1_555 1_555
C3M C4M 1_555 1_555
C3M C3I 1_555 1_555
C4M C4I 1_555 1_555
C3O C4O 1_555 1_555
C3Q C4Q 1_555 1_555
C3R C4R 1_555 1_555
O3S Zr1A_2 1_555 1_555
C3S C4S 1_555 1_555
C3I C4I 1_555 1_555
C3I C3T 1_555 1_555
C4I C4T 1_555 1_555
C3T C4T 1_555 1_555
O4A C8A 1_555 1_555
O4A Zr1A_2 1_555 1_555
C10A C14T 1_555 1_555
C11A C14T 1_555 1_555
C12A C13T 1_555 1_555
C13A C14A 1_555 1_555
C13A C12T 1_555 1_555
C13A C13T 1_555 1_555
C14A C10T 1_555 1_555
C14A C11T 1_555 1_555
C14A C14W 1_555 1_555
S1A S1I 1_555 1_555
S1A C12T 1_555 1_555
O5A O6I 1_555 1_555
O6A S1I 1_555 1_555
O6A O6I 1_555 1_555
O4E Zr1D 1_555 1_555
O4E Zr1E 1_555 1_555
C8E Zr1D 1_555 1_555
C9E C14R 1_555 1_555
C10E C14R 1_555 1_555
C11E C14R 1_555 1_555
C12E C13R 1_555 1_555
C13E C14E 1_555 1_555
C13E C12R 1_555 1_555
C13E C13R 1_555 1_555
C14E C10R 1_555 1_555
C14E C11R 1_555 1_555
S1E S1J 1_555 1_555
S1E C12R 1_555 1_555
O5E O6J 1_555 1_555
O6E S1J 1_555 1_555
O6E O6J 1_555 1_555
C8G Zr1I_2 1_555 1_555
C10G C14O 1_555 1_555
C11G C14O 1_555 1_555
C12G S1G 1_555 1_555
C12G C12O 1_555 1_555
C12G C13O 1_555 1_555
C13G C14G 1_555 1_555
C13G C12O 1_555 1_555
C13G C13O 1_555 1_555
C14G C10O 1_555 1_555
C14G C11O 1_555 1_555
S1G O5G 1_555 1_555
S1G O6G 1_555 1_555
S1G C12O 1_555 1_555
S1G C12W 1_555 1_555
O4I Zr1I_2 1_555 1_555
C8I Zr1F_3 1_555 1_555
C9I C14P 1_555 1_555
C10I C14P 1_555 1_555
C11I C12I 1_555 1_555
C11I C14P 1_555 1_555
C12I S1I 1_555 1_555
C12I C12P 1_555 1_555
C12I C13P 1_555 1_555
C13I C14I 1_555 1_555
C13I C12P 1_555 1_555
C13I C13P 1_555 1_555
C14I C10P 1_555 1_555
C14I C11P 1_555 1_555
S1I O5I 1_555 1_555
S1I O6I 1_555 1_555
S1I C12P 1_555 1_555
S1I C12T 1_555 1_555
O4J Zr1G_2 1_555 1_555
C8J Zr1G_2 1_555 1_555
C10J C14N 1_555 1_555
C11J C12J 1_555 1_555
C11J C14N 1_555 1_555
C12J S1J 1_555 1_555
C12J C12N 1_555 1_555
C12J C13N 1_555 1_555
C13J C14J 1_555 1_555
C13J C12N 1_555 1_555
C13J C13N 1_555 1_555
C14J C10N 1_555 1_555
C14J C11N 1_555 1_555
C14J C14O 1_555 1_555
S1J O5J 1_555 1_555
S1J O6J 1_555 1_555
S1J C12N 1_555 1_555
S1J C12R 1_555 1_555
C8H Zr1J_3 1_555 1_555
C10M C14H 1_555 1_555
C11M C14H 1_555 1_555
C12M C13H 1_555 1_555
C13M C14M 1_555 1_555
C13M C12H 1_555 1_555
C13M C13H 1_555 1_555
C14M C10H 1_555 1_555
C14M C11H 1_555 1_555
S1D S1H 1_555 1_555
S1D C12H 1_555 1_555
O5D O6H 1_555 1_555
O6D S1H 1_555 1_555
O6D O6H 1_555 1_555
C10N C11N 1_555 1_555
C11N C12N 1_555 1_555
C12N C13N 1_555 1_555
C13N C14N 1_555 1_555
C14N C14H 1_555 1_555
C10O C11O 1_555 1_555
C11O C12O 1_555 1_555
C12O C13O 1_555 1_555
C13O C14O 1_555 1_555
O4F Zr1F_3 1_555 1_555
C10P C11P 1_555 1_555
C11P C12P 1_555 1_555
C12P C13P 1_555 1_555
C13P C14P 1_555 1_555
O4D Zr1C 1_555 1_555
O4D Zr1D 1_555 1_555
C10R C11R 1_555 1_555
C11R C12R 1_555 1_555
C12R C13R 1_555 1_555
C13R C14R 1_555 1_555
C10T C11T 1_555 1_555
C11T C12T 1_555 1_555
C12T C13T 1_555 1_555
C13T C14T 1_555 1_555
O4C Zr1C 1_555 1_555
O4C Zr1B_2 1_555 1_555
C8D Zr1C 1_555 1_555
C9D C14U 1_555 1_555
C10U C14D 1_555 1_555
C11U C12U 1_555 1_555
C11U C14D 1_555 1_555
C12U S1H 1_555 1_555
C12U C12D 1_555 1_555
C12U C13D 1_555 1_555
C13U C14U 1_555 1_555
C13U C12D 1_555 1_555
C13U C13D 1_555 1_555
C14U C10D 1_555 1_555
C14U C11D 1_555 1_555
S1H O5H 1_555 1_555
S1H O6H 1_555 1_555
S1H C12D 1_555 1_555
S1H C12H 1_555 1_555
C10W C11W 1_555 1_555
C11W C12W 1_555 1_555
C12W C13W 1_555 1_555
C13W C14W 1_555 1_555
O4B C8C 1_555 1_555
O4B Zr1A_2 1_555 1_555
O4B Zr1B_2 1_555 1_555
C8B Zr1A_2 1_555 1_555
C9B C14B 1_555 1_555
C10B C14V 1_555 1_555
C11B C14V 1_555 1_555
C12B C13V 1_555 1_555
C13B C14B 1_555 1_555
C13B C12V 1_555 1_555
C13B C13V 1_555 1_555
C14B C10V 1_555 1_555
C14B C11V 1_555 1_555
S1B S1F 1_555 1_555
S1B C12V 1_555 1_555
O5B O6F 1_555 1_555
O6B S1F 1_555 1_555
O6B O6F 1_555 1_555
C8C Zr1B_2 1_555 1_555
C10C C14S 1_555 1_555
C11C C14S 1_555 1_555
C12C C13S 1_555 1_555
C13C C14C 1_555 1_555
C13C C12S 1_555 1_555
C13C C13S 1_555 1_555
C14C C10S 1_555 1_555
C14C C11S 1_555 1_555
C14C C14V 1_555 1_555
S1C S1K 1_555 1_555
S1C C12S 1_555 1_555
O5C O6K 1_555 1_555
O6C S1K 1_555 1_555
O6C O6K 1_555 1_555
C10D C11D 1_555 1_555
C11D C12D 1_555 1_555
C12D C13D 1_555 1_555
C13D C14D 1_555 1_555
C14D C14S 1_555 1_555
C8F Zr1K_3 1_555 1_555
C9F C14Q 1_555 1_555
C10F C14Q 1_555 1_555
C11F C12F 1_555 1_555
C11F C14Q 1_555 1_555
C12F S1F 1_555 1_555
C12F C12Q 1_555 1_555
C12F C13Q 1_555 1_555
C13F C14F 1_555 1_555
C13F C12Q 1_555 1_555
C13F C13Q 1_555 1_555
C14F C10Q 1_555 1_555
C14F C11Q 1_555 1_555
S1F O5F 1_555 1_555
S1F O6F 1_555 1_555
S1F C12Q 1_555 1_555
S1F C12V 1_555 1_555
O4H Zr1J_3 1_555 1_555
C10H C11H 1_555 1_555
C11H C12H 1_555 1_555
C12H C13H 1_555 1_555
C13H C14H 1_555 1_555
O4K C8K 1_555 1_555
O4K Zr1H_3 1_555 1_555
O4K Zr1K_3 1_555 1_555
C8K Zr1H_3 1_555 1_555
C9K C14K 1_555 1_555
C9K C14L 1_555 1_555
C10K C14L 1_555 1_555
C11K C12K 1_555 1_555
C11K C14L 1_555 1_555
C12K S1K 1_555 1_555
C12K C12L 1_555 1_555
C12K C13L 1_555 1_555
C13K C14K 1_555 1_555
C13K C12L 1_555 1_555
C13K C13L 1_555 1_555
C14K C10L 1_555 1_555
C14K C11L 1_555 1_555
S1K O5K 1_555 1_555
S1K O6K 1_555 1_555
S1K C12L 1_555 1_555
S1K C12S 1_555 1_555
C10L C11L 1_555 1_555
C11L C12L 1_555 1_555
C12L C13L 1_555 1_555
C13L C14L 1_555 1_555
C10Q C11Q 1_555 1_555
C11Q C12Q 1_555 1_555
C12Q C13Q 1_555 1_555
C13Q C14Q 1_555 1_555
C10S C11S 1_555 1_555
C11S C12S 1_555 1_555
C12S C13S 1_555 1_555
C13S C14S 1_555 1_555
C10V C11V 1_555 1_555
C11V C12V 1_555 1_555
C12V C13V 1_555 1_555
C13V C14V 1_555 1_555
O1A O1K 1_555 1_555
C1A O3U 1_555 1_555
C3A C3P 1_555 1_555
C3A C3U 1_555 1_555
C5A C4P 1_555 1_555
C5A C4U 1_555 1_555
O3C Zr1C_3 1_555 1_555
C1C O3W 1_555 1_555
C3C C3L 1_555 1_555
C3C C3W 1_555 1_555
C5C C4L 1_555 1_555
C5C C4W 1_555 1_555
O3E O3V 1_555 1_555
O3E Zr1E 1_555 1_555
C1E O3V 1_555 1_555
C3E C3N 1_555 1_555
C3E C3V 1_555 1_555
C5E C4N 1_555 1_555
C5E C4V 1_555 1_555
C6E C7E 1_555 1_555
O3G O3L 1_555 1_555
C3G C4G 1_555 1_555
C3G C3L 1_555 1_555
C3G C3W 1_555 1_555
C4G C4L 1_555 1_555
C4G C4W 1_555 1_555
O3H O3P 1_555 1_555
C3H C4H 1_555 1_555
C3H C3P 1_555 1_555
C3H C3U 1_555 1_555
C4H C4P 1_555 1_555
C4H C4U 1_555 1_555
O3N O3F 1_555 1_555
C3N C4N 1_555 1_555
C3N C3F 1_555 1_555
C4N C4F 1_555 1_555
O3P Zr1K 1_555 1_555
C3P C4P 1_555 1_555
O3L Zr1J_4 1_555 1_555
C3L C4L 1_555 1_555
C3W C4W 1_555 1_555
C3U C4U 1_555 1_555
O3F Zr1F 1_555 1_555
C3F C4F 1_555 1_555
C3F C3V 1_555 1_555
C4F C4V 1_555 1_555
C3V C4V 1_555 1_555
Zr1B O1B 1_555 1_555
Zr1B O2_2 1_555 1_555
Zr1B O4B_2 1_555 1_555
O1B Zr1H 1_555 1_555
O1B O1H 1_555 1_555
O1C Zr1D 1_555 1_555
O1C O1J 1_555 1_555
O1C Zr1B_2 1_555 1_555
Zr1D O1D 1_555 1_555
Zr1D O1E 1_555 1_555
O1D O1G 1_555 1_555
O1D Zr1E 1_555 1_555
Zr1J O1J 1_555 1_555
Zr1J O1G 1_555 1_555
O1J Zr1G 1_555 1_555
O2F Zr1G 1_555 1_555
O2F Zr1F 1_555 1_555
O2F Zr1I 1_555 1_555
O2F Zr1H_2 1_555 1_555
O2F Zr1K_2 1_555 1_555
Zr1G O1G 1_555 1_555
Zr1G O4J_2 1_555 1_555
O1G Zr1I 1_555 1_555
Zr1F O1F 1_555 1_555
Zr1F O1I 1_555 1_555
O1F Zr1I 1_555 1_555
O1F Zr1K_2 1_555 1_555
Zr1K O1K 1_555 1_555
Zr1K O1H 1_555 1_555
O1K Zr1H 1_555 1_555
Zr1H O1H 1_555 1_555
Zr1H O2F_2 1_555 1_555
Zr1H O4K_2 1_555 1_555
Zr1E O1E 1_555 1_555
Zr1E O1I 1_555 1_555
O1E Zr1I 1_555 1_555
O1E O1I 1_555 1_555
Zr1I O1I 1_555 1_555
Zr1I O4G_2 1_555 1_555
Zr1I O4I_2 1_555 1_555
Zr1_2 O1_2 1_555 1_555
Zr1_2 O1F_2 1_555 1_555
Zr1_2 O2_2 1_555 1_555
Zr1_2 O4A_2 1_555 1_555
Zr1A_2 O1A_2 1_555 1_555
Zr1A_2 O1B_2 1_555 1_555
Zr1A_2 O1K_2 1_555 1_555
Zr1B_2 O1A_2 1_555 1_555
Zr1B_2 O1B_2 1_555 1_555
Zr1B_2 O1H_2 1_555 1_555
Zr1C_2 O1C_2 1_555 1_555
Zr1C_2 O1J_2 1_555 1_555
Zr1C_2 O2_2 1_555 1_555
Zr1C_2 O4C_2 1_555 1_555
Zr1F_2 O1_2 1_555 1_555
Zr1F_2 O1F_2 1_555 1_555
Zr1F_2 O2F_2 1_555 1_555
Zr1F_2 O4F_2 1_555 1_555
Zr1H_2 O1B_2 1_555 1_555
Zr1H_2 O1H_2 1_555 1_555
Zr1H_2 O1K_2 1_555 1_555
Zr1H_2 O4H_3 1_555 1_555
Zr1J_2 O1C_2 1_555 1_555
Zr1J_2 O1J_2 1_555 1_555
Zr1J_2 O2F_2 1_555 1_555
Zr1J_2 O4H_2 1_555 1_555
Zr1K_2 O1A_2 1_555 1_555
Zr1K_2 O1H_2 1_555 1_555
Zr1K_2 O1K_2 1_555 1_555
Zr1K_2 O4F_3 1_555 1_555
O1_2 O1F_2 1_555 1_555
O1A_2 O1K_2 1_555 1_555
O1B_2 O1H_2 1_555 1_555
O1C_2 O1J_2 1_555 1_555
O3C_2 O3W_2 1_555 1_555
O3D_2 O3T_2 1_555 1_555
O3G_2 O3L_2 1_555 1_555
O3I_2 O3M_2 1_555 1_555
O4A_2 C8B_2 1_555 1_555
O4B_2 C8B_2 1_555 1_555
O4B_2 C8C_2 1_555 1_555
O4C_2 C8C_2 1_555 1_555
O4F_2 C8F_2 1_555 1_555
O4F_3 C8I_2 1_555 1_555
O4G_2 C8G_2 1_555 1_555
O4G_2 C8J_2 1_555 1_555
O4H_2 C8K_2 1_555 1_555
O4H_3 C8H_2 1_555 1_555
O4I_2 C8G_2 1_555 1_555
O4I_2 C8I_2 1_555 1_555
O4J_2 C8H_2 1_555 1_555
O4J_2 C8J_2 1_555 1_555
O4K_2 C8F_2 1_555 1_555
O4K_2 C8K_2 1_555 1_555

#END
