
#######################################################################
#
#                 Cambridge Crystallographic Data Centre
#                                CCDC 
#
#######################################################################
#
# If this CIF has been generated from an entry in the Cambridge 
# Structural Database, then it will include bibliographic, chemical, 
# crystal, experimental, refinement or atomic coordinate data resulting 
# from the CCDC's data processing and validation procedures.
#
#######################################################################

data_ESURER04
_chemical_formula_moiety         '(C17 H15 Co3 N7 O7)n'
_symmetry_cell_setting           monoclinic
_symmetry_space_group_name_H-M   'C 2/c'
_symmetry_Int_Tables_number      15
_space_group_name_Hall           '-C 2yc'
loop_
_symmetry_equiv_pos_site_id
_symmetry_equiv_pos_as_xyz
1 x,y,z
2 -x,y,1/2-z
3 1/2+x,1/2+y,z
4 1/2-x,1/2+y,1/2-z
5 -x,-y,-z
6 x,-y,1/2+z
7 1/2-x,1/2-y,-z
8 1/2+x,1/2-y,1/2+z
_cell_length_a                   17.518(9)
_cell_length_b                   13.309(9)
_cell_length_c                   11.181(6)
_cell_angle_alpha                90
_cell_angle_beta                 95.873(15)
_cell_angle_gamma                90
_cell_volume                     2593.13
loop_
_atom_site_label
_atom_site_type_symbol
_atom_site_fract_x
_atom_site_fract_y
_atom_site_fract_z
Co1 Co 1.0000 1.09134(12) 0.2500
Co2 Co 0.91929(6) 0.94188(9) -0.00149(10)
C1 C 0.6339(5) 0.7188(7) 0.1702(8)
C2 C 0.6972(5) 0.7908(7) 0.2193(7)
C3 C 0.7498(5) 0.8283(7) 0.1473(7)
H1 H 0.7465 0.8124 0.0659
C4 C 0.8084(5) 0.8912(6) 0.1996(7)
C5 C 0.8110(5) 0.9135(7) 0.3252(8)
C6 C 0.7576(5) 0.8770(7) 0.3985(8)
H2 H 0.7596 0.8934 0.4796
C7 C 0.7017(5) 0.8151(7) 0.3432(8)
H3 H 0.6654 0.7881 0.3891
N1 N 0.8730(4) 0.9741(5) 0.3531(6)
N2 N 0.9073(4) 0.9860(5) 0.2510(6)
N3 N 0.8700(4) 0.9388(5) 0.1602(6)
O1 O 0.5823(3) 0.7019(5) 0.2361(5)
O2 O 0.6369(3) 0.6830(5) 0.0634(5)
O3 O 0.9781(3) 1.0764(4) 0.0645(5)
H4 H 0.951(2) 1.130(2) 0.061(6)
Co2A Co 1.08071(6) 0.94188(9) 0.50149(10)
C1A C 1.3661(5) 0.7188(7) 0.3298(8)
C2A C 1.3028(5) 0.7908(7) 0.2807(7)
C3A C 1.2502(5) 0.8283(7) 0.3527(7)
H1A H 1.2535 0.8124 0.4341
C4A C 1.1916(5) 0.8912(6) 0.3004(7)
C5A C 1.1890(5) 0.9135(7) 0.1748(8)
C6A C 1.2424(5) 0.8770(7) 0.1015(8)
H2A H 1.2404 0.8934 0.0204
C7A C 1.2983(5) 0.8151(7) 0.1568(8)
H3A H 1.3346 0.7881 0.1109
N1A N 1.1270(4) 0.9741(5) 0.1469(6)
N2A N 1.0927(4) 0.9860(5) 0.2490(6)
N3A N 1.1300(4) 0.9388(5) 0.3398(6)
O1A O 1.4177(3) 0.7019(5) 0.2639(5)
O2A O 1.3631(3) 0.6830(5) 0.4366(5)
O3A O 1.0219(3) 1.0764(4) 0.4355(5)
H4A H 1.049(2) 1.130(2) 0.439(6)
Co1B Co 0.5000 0.59134(12) 0.2500
Co1B_2 Co 1.5000 0.59134(12) 0.2500
Co2D Co 1.08071(6) 1.05812(9) 0.00149(10)
Co2E Co 0.91929(6) 1.05812(9) 0.49851(10)
Co2F Co 0.58071(6) 0.55812(9) 0.00149(10)
Co2G Co 1.41929(6) 0.55812(9) 0.49851(10)
N1D N 1.1270(4) 1.0259(5) 0.6469(6)
N1E N 0.8730(4) 1.0259(5) -0.1469(6)
O1B O 1.0823(3) 1.2019(5) 0.2361(5)
O1C O 0.9177(3) 1.2019(5) 0.2639(5)
O2F O 0.8631(3) 0.8170(5) -0.0634(5)
O2G O 1.1369(3) 0.8170(5) 0.5634(5)
O3D O 1.0219(3) 0.9236(4) -0.0645(5)
O3E O 0.9781(3) 0.9236(4) 0.5645(5)
C8 C 0.8863(13) 0.5503(15) 0.3678(18)
H5 H 0.8356 0.5245 0.3457
H6 H 0.8906 0.5717 0.4502
H7 H 0.9234 0.4987 0.3580
C9 C 0.8863(12) 0.6198(15) 0.1754(17)
H8 H 0.8898 0.5500 0.1549
H9 H 0.9238 0.6573 0.1372
H10 H 0.8359 0.6443 0.1486
C10 C 0.9323(12) 0.7148(13) 0.3474(16)
H11 H 0.9500 0.7626 0.2962
N4 N 0.8994(8) 0.6305(10) 0.2955(13)
O4 O 0.9402(7) 0.7328(8) 0.4508(10)
loop_
_geom_bond_atom_site_label_1
_geom_bond_atom_site_label_2
_geom_bond_site_symmetry_1
_geom_bond_site_symmetry_2
Co1 N2 1_555 1_555
Co2 N3 1_555 1_555
C1 C2 1_555 1_555
C2 C3 1_555 1_555
C3 H1 1_555 1_555
C4 C3 1_555 1_555
C5 C4 1_555 1_555
C6 C5 1_555 1_555
H2 C6 1_555 1_555
C7 C2 1_555 1_555
H3 C7 1_555 1_555
N1 C5 1_555 1_555
N2 N1 1_555 1_555
N3 C4 1_555 1_555
O1 C1 1_555 1_555
O2 C1 1_555 1_555
O3 Co1 1_555 1_555
H4 O3 1_555 1_555
C8 H5 1_555 1_555
H6 C8 1_555 1_555
H7 C8 1_555 1_555
C9 H8 1_555 1_555
H9 C9 1_555 1_555
H10 C9 1_555 1_555
C10 H11 1_555 1_555
N4 C8 1_555 1_555
O4 C10 1_555 1_555
Co2A N3A 1_555 1_555
C1A C2A 1_555 1_555
C2A C3A 1_555 1_555
C3A H1A 1_555 1_555
C4A C3A 1_555 1_555
C5A C4A 1_555 1_555
C6A C5A 1_555 1_555
H2A C6A 1_555 1_555
C7A C2A 1_555 1_555
H3A C7A 1_555 1_555
N1A C5A 1_555 1_555
N2A Co1 1_555 1_555
N3A C4A 1_555 1_555
O1A C1A 1_555 1_555
O2A C1A 1_555 1_555
O3A Co1 1_555 1_555
H4A O3A 1_555 1_555
Co1B O1 1_555 1_555
Co1B_2 O1A 1_555 1_555
Co2D O3 1_555 1_555
Co2E N1 1_555 1_555
Co2F O2 1_555 1_555
Co2G O2A 1_555 1_555
N1D Co2A 1_555 1_555
N1E Co2 1_555 1_555
O1B Co1 1_555 1_555
O1C Co1 1_555 1_555
O2F Co2 1_555 1_555
O2G Co2A 1_555 1_555
O3D Co2 1_555 1_555
O3E Co2A 1_555 1_555
Co2 O3 1_555 1_555
C6 C7 1_555 1_555
N2 N3 1_555 1_555
C9 N4 1_555 1_555
C10 N4 1_555 1_555
Co2A O3A 1_555 1_555
C6A C7A 1_555 1_555
N1A N2A 1_555 1_555
N1A Co2D 1_555 1_555
N2A N3A 1_555 1_555
O3A Co2E 1_555 1_555
Co2D O3D 1_555 1_555
Co2E O3E 1_555 1_555

#END
