
#######################################################################
#
#                 Cambridge Crystallographic Data Centre
#                                CCDC 
#
#######################################################################
#
# If this CIF has been generated from an entry in the Cambridge 
# Structural Database, then it will include bibliographic, chemical, 
# crystal, experimental, refinement or atomic coordinate data resulting 
# from the CCDC's data processing and validation procedures.
#
#######################################################################

data_RAJFAM
_chemical_formula_moiety         '(C14 H12 Co3 N6 O8)n'
_symmetry_cell_setting           monoclinic
_symmetry_space_group_name_H-M   'C 2/c'
_symmetry_Int_Tables_number      15
_space_group_name_Hall           '-C 2yc'
loop_
_symmetry_equiv_pos_site_id
_symmetry_equiv_pos_as_xyz
1 x,y,z
2 -x,y,1/2-z
3 1/2+x,1/2+y,z
4 1/2-x,1/2+y,1/2-z
5 -x,-y,-z
6 x,-y,1/2+z
7 1/2-x,1/2-y,-z
8 1/2+x,1/2-y,1/2+z
_cell_length_a                   18.373(9)
_cell_length_b                   11.523(6)
_cell_length_c                   11.034(5)
_cell_angle_alpha                90
_cell_angle_beta                 94.251(9)
_cell_angle_gamma                90
_cell_volume                     2329.6
loop_
_atom_site_label
_atom_site_type_symbol
_atom_site_fract_x
_atom_site_fract_y
_atom_site_fract_z
Co1 Co 0.0000 0.89567(9) 0.2500
Co2 Co 0.07530(4) 0.93022(7) -0.00715(6)
C1 C 0.1280(3) 0.7522(5) 0.1658(5)
C2 C 0.1954(3) 0.6876(5) 0.2210(5)
C3 C 0.2004(3) 0.6651(7) 0.3469(5)
H1 H 0.1614 0.6881 0.3936
C4 C 0.2595(3) 0.6114(6) 0.4035(5)
H2 H 0.2633 0.5973 0.4886
C5 C 0.3131(3) 0.5791(5) 0.3311(5)
C6 C 0.3105(3) 0.6019(5) 0.2085(5)
C7 C 0.2498(3) 0.6591(5) 0.1495(5)
H3 H 0.2472 0.6765 0.0651
N1 N 0.3771(2) 0.5238(4) 0.3615(4)
N2 N 0.4115(2) 0.5131(4) 0.2600(4)
N3 N 0.3728(3) 0.5595(4) 0.1661(4)
O1 O -0.0204(2) 0.9136(4) 0.0676(3)
H4 H -0.0425(3) 0.8572(6) 0.0380(4)
O2 O 0.0777(2) 0.7672(4) 0.2335(4)
O3 O 0.1303(2) 0.7862(4) 0.0570(3)
Co2A Co -0.07530(4) 0.93022(7) 0.50715(6)
C1A C -0.1280(3) 0.7522(5) 0.3342(5)
C2A C -0.1954(3) 0.6876(5) 0.2790(5)
C3A C -0.2004(3) 0.6651(7) 0.1531(5)
H1A H -0.1614 0.6881 0.1064
C4A C -0.2595(3) 0.6114(6) 0.0965(5)
H2A H -0.2633 0.5973 0.0114
C5A C -0.3131(3) 0.5791(5) 0.1689(5)
C6A C -0.3105(3) 0.6019(5) 0.2915(5)
C7A C -0.2498(3) 0.6591(5) 0.3505(5)
H3A H -0.2472 0.6765 0.4349
N1A N -0.3771(2) 0.5238(4) 0.1385(4)
N2A N -0.4115(2) 0.5131(4) 0.2400(4)
N3A N -0.3728(3) 0.5595(4) 0.3339(4)
O1A O 0.0204(2) 0.9136(4) 0.4324(3)
H4A H 0.0425(3) 0.8572(6) 0.4620(4)
O2A O -0.0777(2) 0.7672(4) 0.2665(4)
O3A O -0.1303(2) 0.7862(4) 0.4430(3)
Co1B Co -0.5000 0.39567(9) 0.2500
Co1B_2 Co 0.5000 0.39567(9) 0.2500
Co2B Co -0.42470(4) 0.43022(7) -0.00715(6)
Co2C Co 0.42470(4) 0.43022(7) 0.50715(6)
Co2D Co -0.07530(4) 1.06978(7) 0.00715(6)
Co2E Co 0.07530(4) 1.06978(7) 0.49285(6)
Co2F Co 0.42470(4) 0.56978(7) 0.00715(6)
Co2G Co -0.42470(4) 0.56978(7) 0.49285(6)
N1B N -0.1229(2) 1.0238(4) 0.3615(4)
N1C N 0.1229(2) 1.0238(4) 0.1385(4)
N2B N -0.0885(2) 1.0131(4) 0.2600(4)
N2C N 0.0885(2) 1.0131(4) 0.2400(4)
N3F N 0.1272(3) 0.9405(4) -0.1661(4)
N3G N -0.1272(3) 0.9405(4) 0.6661(4)
O1D O 0.0204(2) 1.0864(4) -0.0676(3)
O1E O -0.0204(2) 1.0864(4) 0.5676(3)
O4 O 0.9611(12) 0.712(3) 0.8719(16)
O5 O 0.1201(18) 0.616(2) 0.812(2)
loop_
_geom_bond_atom_site_label_1
_geom_bond_atom_site_label_2
_geom_bond_site_symmetry_1
_geom_bond_site_symmetry_2
Co1 O1 1_555 1_555
Co2 O1 1_555 1_555
C1 C2 1_555 1_555
C2 C3 1_555 1_555
C3 H1 1_555 1_555
C4 C3 1_555 1_555
H2 C4 1_555 1_555
C5 C4 1_555 1_555
C6 C5 1_555 1_555
C7 C2 1_555 1_555
H3 C7 1_555 1_555
N1 C5 1_555 1_555
N2 N1 1_555 1_555
N3 C6 1_555 1_555
O1 H4 1_555 1_555
O2 Co1 1_555 1_555
O3 Co2 1_555 1_555
Co2A O1A 1_555 1_555
C1A C2A 1_555 1_555
C2A C3A 1_555 1_555
C3A H1A 1_555 1_555
C4A C3A 1_555 1_555
H2A C4A 1_555 1_555
C5A C4A 1_555 1_555
C6A C5A 1_555 1_555
C7A C2A 1_555 1_555
H3A C7A 1_555 1_555
N1A C5A 1_555 1_555
N2A N1A 1_555 1_555
N3A C6A 1_555 1_555
O1A Co1 1_555 1_555
H4A O1A 1_555 1_555
O2A Co1 1_555 1_555
O3A Co2A 1_555 1_555
Co1B N2A 1_555 1_555
Co1B_2 N2 1_555 1_555
Co2B N1A 1_555 1_555
Co2C N1 1_555 1_555
Co2D O1 1_555 1_555
Co2E O1A 1_555 1_555
Co2F N3 1_555 1_555
Co2G N3A 1_555 1_555
N1B Co2A 1_555 1_555
N1C Co2 1_555 1_555
N2B Co1 1_555 1_555
N2C Co1 1_555 1_555
N3F Co2 1_555 1_555
N3G Co2A 1_555 1_555
O1D Co2 1_555 1_555
O1E Co2A 1_555 1_555
C1 O2 1_555 1_555
C1 O3 1_555 1_555
C6 C7 1_555 1_555
N2 N3 1_555 1_555
C1A O2A 1_555 1_555
C1A O3A 1_555 1_555
C6A C7A 1_555 1_555
N2A N3A 1_555 1_555
Co2D O1D 1_555 1_555
Co2E O1E 1_555 1_555
N1B N2B 1_555 1_555
N1C N2C 1_555 1_555

#END
