
#######################################################################
#
#                 Cambridge Crystallographic Data Centre
#                                CCDC 
#
#######################################################################
#
# If this CIF has been generated from an entry in the Cambridge 
# Structural Database, then it will include bibliographic, chemical, 
# crystal, experimental, refinement or atomic coordinate data resulting 
# from the CCDC's data processing and validation procedures.
#
#######################################################################

data_POCPAZ
_chemical_formula_moiety         '(C62 H48 Co2 N14 O31)n'
_symmetry_cell_setting           orthorhombic
_symmetry_space_group_name_H-M   'P n a 21'
_symmetry_Int_Tables_number      33
_space_group_name_Hall           'P 2c -2n'
loop_
_symmetry_equiv_pos_site_id
_symmetry_equiv_pos_as_xyz
1 x,y,z
2 -x,-y,1/2+z
3 1/2-x,1/2+y,1/2+z
4 1/2+x,1/2-y,z
_cell_length_a                   21.1573(8)
_cell_length_b                   13.5422(6)
_cell_length_c                   24.0112(10)
_cell_angle_alpha                90
_cell_angle_beta                 90
_cell_angle_gamma                90
_cell_volume                     6879.6
loop_
_atom_site_label
_atom_site_type_symbol
_atom_site_fract_x
_atom_site_fract_y
_atom_site_fract_z
_atom_site_U_iso_or_equiv
_atom_site_thermal_displace_type
Co1 Co -1.03143(3) 0.63730(6) -0.19840(3) 0.0456 Uani
Co2 Co -1.18047(3) 0.63364(6) -0.12407(3) 0.0447 Uani
O1 O -1.10772(19) 0.5538(2) -0.16366(17) 0.0498 Uani
H1 H -1.0902 0.5078 -0.1368 0.0600 Uiso
H2 H -1.1265 0.5150 -0.1933 0.0600 Uiso
O2 O -1.02922(17) 0.7395(3) -0.13446(18) 0.0597 Uani
O3 O -1.11508(18) 0.7177(3) -0.08118(16) 0.0557 Uani
O4 O -0.9034(3) 1.1006(5) -0.0186(3) 0.0993 Uani
O5 O -0.8910(3) 1.0197(5) -0.0949(3) 0.1100 Uani
O6 O -1.0929(3) 1.0574(5) 0.0883(3) 0.1233 Uani
O7 O -1.1650(3) 0.9586(4) 0.0603(2) 0.0917 Uani
O8 O -1.09616(18) 0.7266(3) -0.23925(16) 0.0593 Uani
O9 O -1.18278(17) 0.7426(3) -0.18666(17) 0.0580 Uani
O10 O -1.1306(4) 1.0666(6) -0.4101(3) 0.1447 Uani
O11 O -1.0587(4) 0.9668(6) -0.3865(3) 0.1490 Uani
O12 O -1.3132(3) 1.1109(5) -0.2905(2) 0.1037 Uani
O13 O -1.3225(3) 1.0209(4) -0.2184(3) 0.0977 Uani
O14 O -0.96571(18) 0.5545(3) -0.14985(17) 0.0553 Uani
O15 O -1.03126(19) 0.4530(4) -0.1046(2) 0.0803 Uani
O16 O -0.8622(3) 0.2860(6) 0.0845(3) 0.1467 Uani
O17 O -0.9607(4) 0.2975(6) 0.0667(3) 0.1363 Uani
O18 O -0.7409(3) 0.5393(6) -0.0994(3) 0.1373 Uani
O19 O -0.7095(3) 0.4390(5) -0.0362(3) 0.1133 Uani
O20 O -1.24854(17) 0.5559(3) -0.17221(17) 0.0560 Uani
O21 O -1.18737(19) 0.4709(4) -0.2301(2) 0.0803 Uani
O22 O -1.4772(3) 0.5570(7) -0.2093(3) 0.1367 Uani
O23 O -1.5160(3) 0.4604(6) -0.2663(4) 0.1590 Uani
O24 O -1.3803(3) 0.2656(4) -0.3872(2) 0.1083 Uani
O25 O -1.2793(3) 0.2740(4) -0.3754(2) 0.1033 Uani
N1 N -0.9202(3) 1.0397(5) -0.0531(3) 0.0753 Uani
N2 N -1.1133(3) 0.9965(5) 0.0562(3) 0.0750 Uani
N3 N -1.1093(4) 1.0043(6) -0.3795(3) 0.0933 Uani
N4 N -1.2942(3) 1.0471(5) -0.2596(3) 0.0763 Uani
N5 N -0.9060(4) 0.3123(6) 0.0560(3) 0.0980 Uani
N6 N -0.7511(3) 0.4813(6) -0.0613(3) 0.0867 Uani
N7 N -1.4718(3) 0.4939(5) -0.2437(3) 0.0850 Uani
N8 N -1.3332(4) 0.2979(5) -0.3638(2) 0.0800 Uani
N9 N -1.0445(2) 0.2927(4) 0.25676(19) 0.0503 Uani
N10 N -1.4700(2) 1.0372(4) 0.2324(2) 0.0527 Uani
N11 N -1.1813(2) 0.5266(4) -0.0566(2) 0.0530 Uani
N12 N -1.2558(2) 0.7029(4) -0.08086(18) 0.0507 Uani
C1 C -1.0665(3) 0.7634(4) -0.0961(2) 0.0470 Uani
C2 C -1.0508(3) 0.8542(4) -0.0640(2) 0.0453 Uani
C3 C -0.9960(3) 0.9066(4) -0.0758(3) 0.0533 Uani
H3 H -0.9701 0.8879 -0.1053 0.0640 Uiso
C4 C -0.9806(3) 0.9873(5) -0.0428(3) 0.0570 Uani
C5 C -1.0169(3) 1.0181(5) 0.0009(3) 0.0583 Uani
H4 H -1.0050 1.0713 0.0231 0.0700 Uiso
C6 C -1.0719(3) 0.9667(5) 0.0103(2) 0.0540 Uani
C7 C -1.0894(3) 0.8841(4) -0.0211(2) 0.0507 Uani
H5 H -1.1265 0.8500 -0.0131 0.0610 Uiso
C8 C -1.1462(3) 0.7691(4) -0.2245(2) 0.0483 Uani
C9 C -1.1645(2) 0.8610(4) -0.2568(2) 0.0443 Uani
C10 C -1.1290(3) 0.8916(5) -0.3021(2) 0.0553 Uani
H6 H -1.0926 0.8575 -0.3123 0.0660 Uiso
C11 C -1.1480(3) 0.9723(5) -0.3317(3) 0.0607 Uani
C12 C -1.2017(3) 1.0265(5) -0.3191(3) 0.0633 Uani
H7 H -1.2145 1.0806 -0.3402 0.0760 Uiso
C13 C -1.2350(3) 0.9941(4) -0.2728(3) 0.0550 Uani
C14 C -1.2173(3) 0.9143(4) -0.2418(2) 0.0500 Uani
H8 H -1.2408 0.8960 -0.2108 0.0600 Uiso
C15 C -0.9790(3) 0.4917(5) -0.1129(3) 0.0590 Uani
C16 C -0.9264(3) 0.4612(4) -0.0735(3) 0.0540 Uani
C17 C -0.9398(3) 0.4052(5) -0.0273(3) 0.0643 Uani
H9 H -0.9812 0.3866 -0.0197 0.0770 Uiso
C18 C -0.8913(4) 0.3766(5) 0.0076(3) 0.0727 Uani
C19 C -0.8295(4) 0.4025(6) -0.0030(3) 0.0753 Uani
H10 H -0.7970 0.3824 0.0205 0.0910 Uiso
C20 C -0.8177(3) 0.4581(5) -0.0487(3) 0.0617 Uani
C21 C -0.8639(3) 0.4892(4) -0.0846(3) 0.0560 Uani
H11 H -0.8541 0.5277 -0.1154 0.0670 Uiso
C22 C -1.2390(3) 0.5006(5) -0.2131(2) 0.0547 Uani
C23 C -1.2967(3) 0.4690(4) -0.2453(2) 0.0490 Uani
C24 C -1.3569(3) 0.4973(4) -0.2305(3) 0.0527 Uani
H12 H -1.3628 0.5395 -0.2004 0.0630 Uiso
C25 C -1.4084(3) 0.4636(5) -0.2599(3) 0.0557 Uani
C26 C -1.4021(3) 0.3976(5) -0.3040(3) 0.0657 Uani
H13 H -1.4370 0.3734 -0.3232 0.0790 Uiso
C27 C -1.3414(3) 0.3700(5) -0.3176(2) 0.0597 Uani
C28 C -1.2889(3) 0.4040(4) -0.2900(2) 0.0563 Uani
H14 H -1.2487 0.3841 -0.3009 0.0680 Uiso
C29 C -1.0338(3) 0.2632(5) 0.2045(3) 0.0630 Uani
H15 H -0.9924 0.2650 0.1916 0.0760 Uiso
C30 C -1.0794(3) 0.2306(5) 0.1689(3) 0.0630 Uani
H16 H -1.0689 0.2092 0.1333 0.0750 Uiso
C31 C -1.1416(3) 0.2298(4) 0.1867(2) 0.0477 Uani
C32 C -1.1529(3) 0.2593(4) 0.2401(2) 0.0543 Uani
H17 H -1.1939 0.2575 0.2540 0.0660 Uiso
C33 C -1.1045(3) 0.2916(5) 0.2737(2) 0.0563 Uani
H18 H -1.1139 0.3134 0.3095 0.0680 Uiso
C34 C -1.1944(3) 0.1999(5) 0.1471(2) 0.0560 Uani
H19 H -1.1920 0.1293 0.1406 0.0670 Uiso
H20 H -1.2348 0.2138 0.1645 0.0670 Uiso
C35 C -1.1914(3) 0.2540(5) 0.0907(2) 0.0640 Uani
H21 H -1.2222 0.2253 0.0655 0.0760 Uiso
H22 H -1.1498 0.2449 0.0745 0.0760 Uiso
C36 C -1.2042(4) 0.3606(5) 0.0967(3) 0.0773 Uani
H23 H -1.2470 0.3694 0.1103 0.0930 Uiso
H24 H -1.1756 0.3878 0.1244 0.0930 Uiso
C37 C -1.5213(3) 0.9841(5) 0.2199(3) 0.0557 Uani
H25 H -1.5545 0.9840 0.2453 0.0670 Uiso
C38 C -1.5280(3) 0.9295(5) 0.1720(3) 0.0657 Uani
H26 H -1.5653 0.8952 0.1650 0.0790 Uiso
C39 C -1.4782(3) 0.9265(6) 0.1342(3) 0.0727 Uani
C40 C -1.4249(3) 0.9816(6) 0.1483(3) 0.0757 Uani
H27 H -1.3902 0.9828 0.1244 0.0910 Uiso
C41 C -1.4232(3) 1.0330(6) 0.1961(3) 0.0663 Uani
H28 H -1.3865 1.0680 0.2042 0.0790 Uiso
C42 C -1.4835(3) 0.8672(7) 0.0819(3) 0.1003 Uani
H29 H -1.5088 0.9037 0.0552 0.1200 Uiso
H30 H -1.5055 0.8061 0.0901 0.1200 Uiso
C43 C -1.4196(3) 0.8427(6) 0.0553(3) 0.0813 Uani
H31 H -1.3991 0.9035 0.0440 0.0980 Uiso
H32 H -1.3929 0.8110 0.0829 0.0980 Uiso
C44 C -1.4258(3) 0.7784(6) 0.0075(3) 0.0847 Uani
H33 H -1.4554 0.8083 -0.0183 0.1020 Uiso
H34 H -1.4439 0.7163 0.0198 0.1020 Uiso
C45 C -1.1363(3) 0.5234(6) -0.0173(3) 0.0747 Uani
H35 H -1.0991 0.5584 -0.0234 0.0900 Uiso
C46 C -1.1422(3) 0.4711(6) 0.0315(3) 0.0793 Uani
H36 H -1.1094 0.4717 0.0572 0.0950 Uiso
C47 C -1.1965(3) 0.4176(5) 0.0429(3) 0.0643 Uani
C48 C -1.2421(3) 0.4183(5) 0.0020(3) 0.0710 Uani
H37 H -1.2789 0.3819 0.0070 0.0850 Uiso
C49 C -1.2339(3) 0.4718(5) -0.0461(3) 0.0623 Uani
H38 H -1.2659 0.4706 -0.0727 0.0750 Uiso
C50 C -1.2545(3) 0.7197(5) -0.0264(3) 0.0680 Uani
H39 H -1.2162 0.7141 -0.0075 0.0810 Uiso
C51 C -1.3077(3) 0.7452(5) 0.0032(3) 0.0710 Uani
H40 H -1.3050 0.7547 0.0414 0.0850 Uiso
C52 C -1.3651(3) 0.7567(5) -0.0234(3) 0.0643 Uani
C53 C -1.3652(3) 0.7485(5) -0.0796(3) 0.0593 Uani
H41 H -1.4016 0.7625 -0.0999 0.0710 Uiso
C54 C -1.3112(3) 0.7194(4) -0.1062(2) 0.0537 Uani
H42 H -1.3131 0.7105 -0.1446 0.0640 Uiso
Co1A Co -0.96857(3) 0.36270(6) 0.30160(3) 0.0456 Uani
Co1B Co -1.46857(3) 1.13730(6) 0.30160(3) 0.0456 Uani
N9A N -0.9555(2) 0.7073(4) -0.24324(19) 0.0503 Uani
N10B N -1.0300(2) 0.5372(4) -0.2676(2) 0.0527 Uani
O26 O -0.8139(3) 0.2516(4) -0.1845(3) 0.1020 Uani
O27 O -0.7958(3) 0.2516(5) -0.0931(3) 0.1087 Uani
O28 O -0.5761(4) 0.2553(6) -0.0302(4) 0.1403 Uani
O29 O -0.5017(3) 0.2818(5) -0.0876(4) 0.1443 Uani
O30 O -0.5450(5) 0.2563(6) -0.2849(4) 0.1740 Uani
O31 O -0.6424(5) 0.2560(8) -0.3141(4) 0.1643 Uani
N13 N -0.5563(5) 0.2668(6) -0.0766(5) 0.1127 Uani
N14 N -0.6028(7) 0.2560(8) -0.2773(5) 0.1440 Uani
C55 C -0.7771(4) 0.2516(5) -0.1399(4) 0.0800 Uani
C56 C -0.7091(4) 0.2549(5) -0.1548(4) 0.0820 Uani
C57 C -0.6654(4) 0.2551(5) -0.1115(4) 0.0843 Uani
H43 H -0.6792 0.2525 -0.0748 0.1010 Uiso
C58 C -0.6026(4) 0.2592(6) -0.1228(5) 0.0943 Uani
C59 C -0.5805(5) 0.2604(6) -0.1766(6) 0.1057 Uani
H44 H -0.5374 0.2631 -0.1840 0.1270 Uiso
C60 C -0.6236(5) 0.2575(7) -0.2191(5) 0.1020 Uani
C61 C -0.6873(4) 0.2558(5) -0.2088(4) 0.0847 Uani
H45 H -0.7158 0.2553 -0.2383 0.1020 Uiso
C62 C -0.8821(4) 0.2552(6) -0.1755(4) 0.1040 Uiso
H46 H -0.9034 0.2547 -0.2108 0.1560 Uiso
H47 H -0.8927 0.3145 -0.1557 0.1560 Uiso
H48 H -0.8950 0.1988 -0.1541 0.1560 Uiso
loop_
_atom_site_aniso_label
_atom_site_aniso_U_11
_atom_site_aniso_U_22
_atom_site_aniso_U_33
_atom_site_aniso_U_23
_atom_site_aniso_U_13
_atom_site_aniso_U_12
Co1 0.0347 0.0578 0.0444 0 0.0025 0.0036
Co2 0.0336 0.0564 0.0442 0.002 0.0008 0.0008
O1 0.0403 0.056 0.053 0.005 0.0011 0.006
O2 0.048 0.063 0.068 -0.011 0.016 -0.0042
O3 0.047 0.066 0.054 -0.008 0.005 -0.01
O4 0.088 0.096 0.114 -0.015 -0.015 -0.041
O5 0.076 0.116 0.138 -0.025 0.038 -0.033
O6 0.134 0.124 0.112 -0.068 0.032 -0.018
O7 0.088 0.103 0.084 -0.006 0.038 0.005
O8 0.046 0.072 0.06 0.009 0.011 0.016
O9 0.047 0.07 0.057 0.016 0.012 0.0093
O10 0.172 0.155 0.107 0.067 0.066 0.045
O11 0.138 0.184 0.125 0.069 0.08 0.056
O12 0.096 0.103 0.112 0.034 0.001 0.041
O13 0.083 0.091 0.119 0.031 0.045 0.027
O14 0.046 0.063 0.057 0.009 -0.002 0.001
O15 0.045 0.087 0.109 0.043 -0.004 0.004
O16 0.145 0.19 0.105 0.069 -0.033 0.023
O17 0.128 0.188 0.093 0.052 0.02 0.01
O18 0.049 0.211 0.152 0.036 -0.007 -0.009
O19 0.065 0.122 0.153 0.002 -0.05 0.016
O20 0.04 0.073 0.055 -0.006 -0.002 -0.002
O21 0.039 0.1 0.102 -0.04 -0.001 0.004
O22 0.059 0.209 0.142 -0.046 -0.004 0.008
O23 0.059 0.179 0.239 -0.103 -0.04 0.006
O24 0.122 0.115 0.088 -0.034 -0.014 -0.046
O25 0.117 0.111 0.082 -0.032 0.01 0.004
N1 0.055 0.074 0.097 -0.004 -0.003 -0.015
N2 0.078 0.077 0.07 -0.008 0.016 0.008
N3 0.105 0.098 0.077 0.029 0.025 0.01
N4 0.062 0.072 0.095 0.015 0.003 0.015
N5 0.113 0.109 0.072 0.027 -0.006 0.025
N6 0.067 0.101 0.092 -0.012 -0.009 0.005
N7 0.062 0.095 0.098 -0.017 -0.02 -0.001
N8 0.104 0.081 0.055 -0.003 0.007 -0.014
N9 0.04 0.063 0.048 0.009 -0.004 0.002
N10 0.04 0.068 0.05 0.001 0.004 -0.003
N11 0.037 0.068 0.054 0.008 -0.008 -0.002
N12 0.046 0.068 0.038 0.003 0.003 0.004
C1 0.032 0.062 0.047 0 0.003 0.005
C2 0.037 0.059 0.04 -0.003 -0.003 0.005
C3 0.044 0.059 0.057 -0.006 0.009 0.002
C4 0.044 0.063 0.064 -0.004 0.001 -0.004
C5 0.062 0.055 0.058 -0.006 -0.005 0.002
C6 0.057 0.063 0.042 -0.002 -0.007 0.006
C7 0.049 0.058 0.045 0.005 0.004 0.001
C8 0.035 0.06 0.05 -0.008 -0.002 0.005
C9 0.035 0.056 0.042 -0.005 -0.002 0.001
C10 0.047 0.068 0.051 0.004 0.004 0.004
C11 0.062 0.062 0.058 0.016 0.018 0
C12 0.06 0.059 0.071 0.013 -0.013 -0.001
C13 0.039 0.058 0.068 0.009 0.002 0.001
C14 0.044 0.054 0.052 0.003 0.005 0
C15 0.045 0.069 0.063 0.011 0.007 0.011
C16 0.048 0.054 0.06 0.002 -0.007 0.009
C17 0.063 0.07 0.06 0.009 0 0.012
C18 0.091 0.071 0.056 0.01 -0.005 0.019
C19 0.077 0.08 0.069 -0.004 -0.021 0.022
C20 0.05 0.062 0.073 -0.012 -0.006 0.007
C21 0.052 0.056 0.06 0.002 -0.006 0.014
C22 0.05 0.058 0.056 -0.001 -0.001 -0.003
C23 0.047 0.055 0.045 -0.001 0.005 -0.005
C24 0.06 0.05 0.048 0.007 -0.006 0
C25 0.047 0.059 0.061 0.007 0.001 0
C26 0.068 0.062 0.067 0.002 -0.009 -0.016
C27 0.078 0.055 0.046 0.003 -0.01 -0.011
C28 0.06 0.057 0.052 0.006 0.004 -0.011
C29 0.047 0.089 0.053 -0.018 0 0.005
C30 0.052 0.085 0.052 -0.011 -0.003 -0.001
C31 0.045 0.052 0.046 0.004 -0.01 0.001
C32 0.044 0.069 0.05 0.001 0.006 -0.004
C33 0.055 0.073 0.041 0.009 0.002 -0.005
C34 0.052 0.06 0.056 0.006 -0.01 -0.011
C35 0.06 0.078 0.054 -0.003 -0.015 -0.007
C36 0.091 0.081 0.06 -0.001 -0.002 0.011
C37 0.045 0.07 0.052 -0.02 0.009 -0.007
C38 0.041 0.09 0.066 -0.024 0.007 -0.009
C39 0.05 0.104 0.064 -0.025 0.011 0.011
C40 0.044 0.106 0.077 -0.018 0.021 -0.01
C41 0.047 0.092 0.06 -0.007 0.01 -0.004
C42 0.076 0.141 0.084 -0.06 0.029 -0.004
C43 0.066 0.117 0.061 -0.019 0.01 0.01
C44 0.066 0.119 0.069 -0.021 0.011 0.01
C45 0.045 0.097 0.082 0.028 -0.013 -0.005
C46 0.054 0.112 0.072 0.026 -0.022 -0.013
C47 0.071 0.067 0.055 0.012 -0.004 0.006
C48 0.062 0.075 0.076 0.031 -0.003 -0.01
C49 0.053 0.075 0.059 0.004 -0.012 0.007
C50 0.047 0.104 0.053 -0.004 -0.001 0.001
C51 0.057 0.109 0.047 -0.008 0.008 0.009
C52 0.042 0.075 0.076 -0.005 0.01 0.003
C53 0.041 0.092 0.045 0.001 -0.001 0.005
C54 0.052 0.068 0.041 0.005 0 0.009
Co1A 0.0347 0.0578 0.0444 0 -0.0025 0.0036
Co1B 0.0347 0.0578 0.0444 0 -0.0025 -0.0036
N9A 0.04 0.063 0.048 -0.009 0.004 0.002
N10B 0.04 0.068 0.05 0.001 -0.004 0.003
O26 0.088(4) 0.108(4) 0.110(4) -0.027(3) 0.005(4) 0.012(3)
O27 0.089(4) 0.130(5) 0.107(5) -0.015(4) 0.020(4) 0.003(3)
O28 0.123(6) 0.155(7) 0.143(6) -0.025(6) -0.020(5) 0.006(5)
O29 0.084(4) 0.127(6) 0.222(8) -0.045(5) 0.013(5) -0.020(4)
O30 0.163(7) 0.153(7) 0.206(9) -0.008(6) 0.099(7) 0.009(6)
O31 0.188(10) 0.174(8) 0.131(7) 0.021(6) 0.051(6) 0.076(7)
N13 0.101(7) 0.098(6) 0.139(8) -0.012(6) 0.009(7) 0.007(5)
N14 0.158(11) 0.117(7) 0.157(10) 0.020(7) 0.077(9) 0.047(7)
C55 0.082(6) 0.058(4) 0.100(6) -0.016(4) 0.017(5) -0.001(4)
C56 0.091(6) 0.056(5) 0.099(6) -0.006(4) 0.009(5) 0.006(4)
C57 0.087(6) 0.058(5) 0.108(6) -0.007(4) 0.024(5) 0.008(4)
C58 0.081(6) 0.065(5) 0.137(8) -0.017(6) 0.020(7) -0.002(4)
C59 0.085(6) 0.065(5) 0.167(11) 0.009(6) 0.033(7) 0.011(5)
C60 0.098(7) 0.083(6) 0.125(9) 0.013(6) 0.035(7) 0.020(5)
C61 0.099(6) 0.061(5) 0.094(6) -0.002(4) 0.018(5) 0.014(4)
loop_
_geom_bond_atom_site_label_1
_geom_bond_atom_site_label_2
_geom_bond_site_symmetry_1
_geom_bond_site_symmetry_2
Co1 O1 1_555 1_555
Co2 O1 1_555 1_555
O1 H1 1_555 1_555
H2 O1 1_555 1_555
O2 Co1 1_555 1_555
O3 Co2 1_555 1_555
O4 N1 1_555 1_555
O5 N1 1_555 1_555
O6 N2 1_555 1_555
O7 N2 1_555 1_555
O8 Co1 1_555 1_555
O9 Co2 1_555 1_555
O10 N3 1_555 1_555
O11 N3 1_555 1_555
O12 N4 1_555 1_555
O13 N4 1_555 1_555
O14 Co1 1_555 1_555
O15 C15 1_555 1_555
O16 N5 1_555 1_555
O17 N5 1_555 1_555
O18 N6 1_555 1_555
O19 N6 1_555 1_555
O20 Co2 1_555 1_555
O21 C22 1_555 1_555
O22 N7 1_555 1_555
O23 N7 1_555 1_555
O24 N8 1_555 1_555
O25 N8 1_555 1_555
N1 C4 1_555 1_555
N2 C6 1_555 1_555
N3 C11 1_555 1_555
N4 C13 1_555 1_555
N5 C18 1_555 1_555
N6 C20 1_555 1_555
N7 C25 1_555 1_555
N8 C27 1_555 1_555
N9 C29 1_555 1_555
N10 C37 1_555 1_555
N11 Co2 1_555 1_555
N12 Co2 1_555 1_555
C1 O2 1_555 1_555
C2 C1 1_555 1_555
C3 C2 1_555 1_555
H3 C3 1_555 1_555
C4 C3 1_555 1_555
C5 C4 1_555 1_555
H4 C5 1_555 1_555
C6 C5 1_555 1_555
C7 C2 1_555 1_555
H5 C7 1_555 1_555
C8 O8 1_555 1_555
C9 C8 1_555 1_555
C10 C9 1_555 1_555
H6 C10 1_555 1_555
C11 C10 1_555 1_555
C12 C11 1_555 1_555
H7 C12 1_555 1_555
C13 C12 1_555 1_555
C14 C9 1_555 1_555
H8 C14 1_555 1_555
C15 O14 1_555 1_555
C16 C15 1_555 1_555
C17 C16 1_555 1_555
H9 C17 1_555 1_555
C18 C17 1_555 1_555
C19 C18 1_555 1_555
H10 C19 1_555 1_555
C20 C19 1_555 1_555
C21 C16 1_555 1_555
H11 C21 1_555 1_555
C22 O20 1_555 1_555
C23 C22 1_555 1_555
C24 C23 1_555 1_555
H12 C24 1_555 1_555
C25 C24 1_555 1_555
C26 C25 1_555 1_555
H13 C26 1_555 1_555
C27 C26 1_555 1_555
C28 C23 1_555 1_555
H14 C28 1_555 1_555
C29 H15 1_555 1_555
C30 C29 1_555 1_555
H16 C30 1_555 1_555
C31 C30 1_555 1_555
C32 C31 1_555 1_555
H17 C32 1_555 1_555
C33 N9 1_555 1_555
H18 C33 1_555 1_555
C34 C31 1_555 1_555
H19 C34 1_555 1_555
H20 C34 1_555 1_555
C35 C34 1_555 1_555
H21 C35 1_555 1_555
H22 C35 1_555 1_555
C36 C35 1_555 1_555
H23 C36 1_555 1_555
H24 C36 1_555 1_555
C37 H25 1_555 1_555
C38 C37 1_555 1_555
H26 C38 1_555 1_555
C39 C38 1_555 1_555
C40 C39 1_555 1_555
H27 C40 1_555 1_555
C41 N10 1_555 1_555
H28 C41 1_555 1_555
C42 C39 1_555 1_555
H29 C42 1_555 1_555
H30 C42 1_555 1_555
C43 C42 1_555 1_555
H31 C43 1_555 1_555
H32 C43 1_555 1_555
C44 C43 1_555 1_555
H33 C44 1_555 1_555
H34 C44 1_555 1_555
C45 N11 1_555 1_555
H35 C45 1_555 1_555
C46 C45 1_555 1_555
H36 C46 1_555 1_555
C47 C36 1_555 1_555
C48 C47 1_555 1_555
H37 C48 1_555 1_555
C49 N11 1_555 1_555
H38 C49 1_555 1_555
C50 N12 1_555 1_555
H39 C50 1_555 1_555
C51 C50 1_555 1_555
H40 C51 1_555 1_555
C52 C44 1_555 1_555
C53 C52 1_555 1_555
H41 C53 1_555 1_555
C54 N12 1_555 1_555
H42 C54 1_555 1_555
O26 C55 1_555 1_555
O27 C55 1_555 1_555
O28 N13 1_555 1_555
O29 N13 1_555 1_555
O30 N14 1_555 1_555
O31 N14 1_555 1_555
N13 C58 1_555 1_555
N14 C60 1_555 1_555
C55 C56 1_555 1_555
C56 C57 1_555 1_555
C57 H43 1_555 1_555
C58 C57 1_555 1_555
C59 C58 1_555 1_555
H44 C59 1_555 1_555
C60 C59 1_555 1_555
C61 C56 1_555 1_555
H45 C61 1_555 1_555
C62 O26 1_555 1_555
H46 C62 1_555 1_555
H47 C62 1_555 1_555
H48 C62 1_555 1_555
Co1A N9 1_555 1_555
Co1B N10 1_555 1_555
N9A Co1 1_555 1_555
N10B Co1 1_555 1_555
O3 C1 1_555 1_555
O9 C8 1_555 1_555
C6 C7 1_555 1_555
C13 C14 1_555 1_555
C20 C21 1_555 1_555
C27 C28 1_555 1_555
C32 C33 1_555 1_555
C40 C41 1_555 1_555
C46 C47 1_555 1_555
C48 C49 1_555 1_555
C51 C52 1_555 1_555
C53 C54 1_555 1_555
C60 C61 1_555 1_555

#END
