
#######################################################################
#
#                 Cambridge Crystallographic Data Centre
#                                CCDC 
#
#######################################################################
#
# If this CIF has been generated from an entry in the Cambridge 
# Structural Database, then it will include bibliographic, chemical, 
# crystal, experimental, refinement or atomic coordinate data resulting 
# from the CCDC's data processing and validation procedures.
#
#######################################################################

data_JAVNIE
_chemical_formula_moiety         '(C24 H28 Cl2 Cu3 N20 O6)n'
_symmetry_cell_setting           orthorhombic
_symmetry_space_group_name_H-M   'P n m n'
_symmetry_Int_Tables_number      58
_space_group_name_Hall           '-P 2n 2n'
loop_
_symmetry_equiv_pos_site_id
_symmetry_equiv_pos_as_xyz
1 x,y,z
2 1/2-x,1/2-y,1/2+z
3 1/2+x,1/2-y,1/2-z
4 -x,y,-z
5 -x,-y,-z
6 1/2+x,1/2+y,1/2-z
7 1/2-x,1/2+y,1/2+z
8 x,-y,z
_cell_length_a                   12.3305(2)
_cell_length_b                   15.5069(3)
_cell_length_c                   15.6412(3)
_cell_angle_alpha                90
_cell_angle_beta                 90
_cell_angle_gamma                90
_cell_volume                     2990.72
loop_
_atom_site_label
_atom_site_type_symbol
_atom_site_fract_x
_atom_site_fract_y
_atom_site_fract_z
O2 O 1.226(5) 0.00000 0.777(3)
O3 O 0.6888(19) -0.2377(19) 0.4282(18)
O4 O 0.8906(19) -0.355(2) 0.5541(15)
O7 O 0.647(3) -0.358(3) 0.950(2)
Cu1 Cu 1.00000 0.00000 1.00000
Cu2 Cu 0.84749(4) 0.00000 0.80784(4)
C1 C 1.0665(3) 0.1946(2) 0.8331(2)
C2 C 1.1284(3) 0.2701(2) 0.8014(2)
C3 C 1.2098(5) 0.3057(4) 0.8489(3)
H1 H 1.2263 0.2838 0.9027
C4 C 1.2676(5) 0.3750(4) 0.8161(3)
H2 H 1.3214 0.3995 0.8499
C5 C 1.1723(5) 0.3732(4) 0.6952(4)
H3 H 1.1576 0.3961 0.6415
C6 C 1.1106(5) 0.3041(4) 0.7236(4)
H4 H 1.0567 0.2812 0.6888
Cl1 Cl 0.78383(9) 0.00000 0.96229(8)
N1 N 1.0148(2) 0.09184(16) 0.90895(17)
N2 N 0.9600(2) 0.09064(16) 0.83611(18)
N3 N 0.9913(2) 0.15513(18) 0.7868(2)
N4 N 1.0836(2) 0.15791(18) 0.90859(17)
N5 N 1.2503(2) 0.40756(17) 0.74049(19)
O1 O 0.9671(7) 0.00000 0.6456(6)
Cu2D Cu 1.15251(4) 0.00000 1.19216(4)
Cu2E Cu 1.34749(4) 0.50000 0.69216(4)
Cu2F Cu 0.65251(4) 0.50000 1.30784(4)
Cu2F_2 Cu 0.65251(4) -0.50000 1.30784(4)
Cu2E_2 Cu 1.34749(4) -0.50000 0.69216(4)
C1C C 0.9335(3) 0.1946(2) 1.1669(2)
C1D C 0.9335(3) -0.1946(2) 1.1669(2)
C1G C 1.0665(3) -0.1946(2) 0.8331(2)
C2C C 0.8716(3) 0.2701(2) 1.1986(2)
C2D C 0.8716(3) -0.2701(2) 1.1986(2)
C2G C 1.1284(3) -0.2701(2) 0.8014(2)
C3C C 0.7902(5) 0.3057(4) 1.1511(3)
C3D C 0.7902(5) -0.3057(4) 1.1511(3)
C3G C 1.2098(5) -0.3057(4) 0.8489(3)
H1C H 0.7737 0.2838 1.0973
H1D H 0.7737 -0.2838 1.0973
H1G H 1.2263 -0.2838 0.9027
C4C C 0.7324(5) 0.3750(4) 1.1839(3)
C4D C 0.7324(5) -0.3750(4) 1.1839(3)
C4G C 1.2676(5) -0.3750(4) 0.8161(3)
H2C H 0.6786 0.3995 1.1501
H2D H 0.6786 -0.3995 1.1501
H2G H 1.3214 -0.3995 0.8499
C5C C 0.8277(5) 0.3732(4) 1.3048(4)
C5D C 0.8277(5) -0.3732(4) 1.3048(4)
C5G C 1.1723(5) -0.3732(4) 0.6952(4)
H3C H 0.8424 0.3961 1.3585
H3D H 0.8424 -0.3961 1.3585
H3G H 1.1576 -0.3961 0.6415
C6C C 0.8894(5) 0.3041(4) 1.2764(4)
C6D C 0.8894(5) -0.3041(4) 1.2764(4)
C6G C 1.1106(5) -0.3041(4) 0.7236(4)
H4C H 0.9433 0.2812 1.3112
H4D H 0.9433 -0.2812 1.3112
H4G H 1.0567 -0.2812 0.6888
Cl1D Cl 1.21617(9) 0.00000 1.03771(8)
N1C N 0.9852(2) 0.09184(16) 1.09105(17)
N1D N 0.9852(2) -0.09184(16) 1.09105(17)
N1G N 1.0148(2) -0.09184(16) 0.90895(17)
N2C N 1.0400(2) 0.09064(16) 1.16389(18)
N2D N 1.0400(2) -0.09064(16) 1.16389(18)
N2G N 0.9600(2) -0.09064(16) 0.83611(18)
N3C N 1.0087(2) 0.15513(18) 1.2132(2)
N3D N 1.0087(2) -0.15513(18) 1.2132(2)
N3G N 0.9913(2) -0.15513(18) 0.7868(2)
N4C N 0.9164(2) 0.15791(18) 1.09141(17)
N4D N 0.9164(2) -0.15791(18) 1.09141(17)
N4G N 1.0836(2) -0.15791(18) 0.90859(17)
N5C N 0.7497(2) 0.40756(17) 1.25951(19)
N5D N 0.7497(2) -0.40756(17) 1.25951(19)
N5G N 1.2503(2) -0.40756(17) 0.74049(19)
N5E N 0.7503(2) -0.09244(17) 0.75951(19)
N5B N 0.7503(2) 0.09244(17) 0.75951(19)
N5F N 1.2497(2) -0.09244(17) 1.24049(19)
N5A N 1.2497(2) 0.09244(17) 1.24049(19)
O1D O 1.0329(7) 0.00000 1.3544(6)
loop_
_geom_bond_atom_site_label_1
_geom_bond_atom_site_label_2
_geom_bond_site_symmetry_1
_geom_bond_site_symmetry_2
Cu1 Cl1 1_555 1_555
Cu2 Cl1 1_555 1_555
C1 C2 1_555 1_555
C2 C3 1_555 1_555
C3 H1 1_555 1_555
C4 C3 1_555 1_555
H2 C4 1_555 1_555
C5 H3 1_555 1_555
C6 C2 1_555 1_555
H4 C6 1_555 1_555
N1 Cu1 1_555 1_555
N2 Cu2 1_555 1_555
N3 C1 1_555 1_555
N4 C1 1_555 1_555
N5 C4 1_555 1_555
O1 Cu2 1_555 1_555
Cu2D Cl1D 1_555 1_555
Cu2E N5 1_555 1_555
Cu2F N5C 1_555 1_555
Cu2F_2 N5D 1_555 1_555
Cu2E_2 N5G 1_555 1_555
C1C C2C 1_555 1_555
C1D C2D 1_555 1_555
C1G C2G 1_555 1_555
C2C C3C 1_555 1_555
C2D C3D 1_555 1_555
C2G C3G 1_555 1_555
C3C H1C 1_555 1_555
C3D H1D 1_555 1_555
C3G H1G 1_555 1_555
C4C C3C 1_555 1_555
C4D C3D 1_555 1_555
C4G C3G 1_555 1_555
H2C C4C 1_555 1_555
H2D C4D 1_555 1_555
H2G C4G 1_555 1_555
C5C H3C 1_555 1_555
C5D H3D 1_555 1_555
C5G H3G 1_555 1_555
C6C C2C 1_555 1_555
C6D C2D 1_555 1_555
C6G C2G 1_555 1_555
H4C C6C 1_555 1_555
H4D C6D 1_555 1_555
H4G C6G 1_555 1_555
Cl1D Cu1 1_555 1_555
N1C Cu1 1_555 1_555
N1D Cu1 1_555 1_555
N1G Cu1 1_555 1_555
N2C Cu2D 1_555 1_555
N2D Cu2D 1_555 1_555
N2G Cu2 1_555 1_555
N3C C1C 1_555 1_555
N3D C1D 1_555 1_555
N3G C1G 1_555 1_555
N4C C1C 1_555 1_555
N4D C1D 1_555 1_555
N4G C1G 1_555 1_555
N5C C4C 1_555 1_555
N5D C4D 1_555 1_555
N5G C4G 1_555 1_555
N5E Cu2 1_555 1_555
N5B Cu2 1_555 1_555
N5F Cu2D 1_555 1_555
N5A Cu2D 1_555 1_555
O1D Cu2D 1_555 1_555
C5 C6 1_555 1_555
C5 N5 1_555 1_555
N1 N2 1_555 1_555
N1 N4 1_555 1_555
N2 N3 1_555 1_555
C5C C6C 1_555 1_555
C5C N5C 1_555 1_555
C5D C6D 1_555 1_555
C5D N5D 1_555 1_555
C5G C6G 1_555 1_555
C5G N5G 1_555 1_555
N1C N2C 1_555 1_555
N1C N4C 1_555 1_555
N1D N2D 1_555 1_555
N1D N4D 1_555 1_555
N1G N2G 1_555 1_555
N1G N4G 1_555 1_555
N2C N3C 1_555 1_555
N2D N3D 1_555 1_555
N2G N3G 1_555 1_555

#END
