
#######################################################################
#
#                 Cambridge Crystallographic Data Centre
#                                CCDC 
#
#######################################################################
#
# If this CIF has been generated from an entry in the Cambridge 
# Structural Database, then it will include bibliographic, chemical, 
# crystal, experimental, refinement or atomic coordinate data resulting 
# from the CCDC's data processing and validation procedures.
#
#######################################################################

data_CEFDAU
_chemical_formula_moiety         '(C8 H14 N1 O10 Zn1 1-)n'
_symmetry_cell_setting           monoclinic
_symmetry_space_group_name_H-M   'C 2/c'
_symmetry_Int_Tables_number      15
_space_group_name_Hall           '-C 2yc'
loop_
_symmetry_equiv_pos_site_id
_symmetry_equiv_pos_as_xyz
1 x,y,z
2 -x,y,1/2-z
3 1/2+x,1/2+y,z
4 1/2-x,1/2+y,1/2-z
5 -x,-y,-z
6 x,-y,1/2+z
7 1/2-x,1/2-y,-z
8 1/2+x,1/2-y,1/2+z
_cell_length_a                   14.1153(12)
_cell_length_b                   8.8505(8)
_cell_length_c                   13.5704(11)
_cell_angle_alpha                90
_cell_angle_beta                 111.761(2)
_cell_angle_gamma                90
_cell_volume                     1574.5
loop_
_atom_site_label
_atom_site_type_symbol
_atom_site_fract_x
_atom_site_fract_y
_atom_site_fract_z
_atom_site_U_iso_or_equiv
_atom_site_thermal_displace_type
Zn1 Zn 0.5000 0.50029(6) 0.7500 0.0196 Uani
O1 O 0.41853(19) 0.6486(3) 0.6404(2) 0.0291 Uani
O2 O 0.3143(2) 0.4535(4) 0.5878(2) 0.0340 Uani
O3 O 0.3480(3) 0.4657(4) 0.3648(3) 0.0413 Uani
O4 O 0.44049(18) 0.6425(3) 0.32532(19) 0.0262 Uani
C1 C 0.3369(3) 0.5846(4) 0.5744(3) 0.0211 Uani
C2 C 0.3742(3) 0.5970(5) 0.3645(3) 0.0245 Uani
C3 C 0.2700(3) 0.6794(4) 0.4801(3) 0.0203 Uani
H9 H 0.2111 0.6180 0.4378 0.0240 Uiso
C4 C 0.3286(3) 0.7247(4) 0.4090(3) 0.0254 Uani
H10 H 0.2827 0.7823 0.3496 0.0300 Uiso
H11 H 0.3836 0.7918 0.4494 0.0300 Uiso
Zn1D Zn 0.5000 0.49971(6) 0.2500 0.0196 Uani
Zn1F Zn 0.0000 0.99971(6) 0.2500 0.0196 Uani
Zn1B Zn 0.0000 1.00029(6) 0.7500 0.0196 Uani
O1F O 0.08147(19) 0.8514(3) 0.3596(2) 0.0291 Uani
O1A O 0.58147(19) 0.6486(3) 0.8596(2) 0.0291 Uani
O2F O 0.1857(2) 1.0465(4) 0.4122(2) 0.0340 Uani
O3F O 0.1520(3) 1.0343(4) 0.6352(3) 0.0413 Uani
O4F O 0.05951(18) 0.8575(3) 0.67468(19) 0.0262 Uani
O4D O 0.55951(18) 0.3575(3) 0.67468(19) 0.0262 Uani
O4E O 0.44049(18) 0.3575(3) 0.82532(19) 0.0262 Uani
C1F C 0.1631(3) 0.9154(4) 0.4256(3) 0.0211 Uani
C2F C 0.1258(3) 0.9030(5) 0.6355(3) 0.0245 Uani
C3F C 0.2300(3) 0.8206(4) 0.5199(3) 0.0203 Uani
H9F H 0.2889 0.8820 0.5622 0.0240 Uiso
C4F C 0.1714(3) 0.7753(4) 0.5910(3) 0.0254 Uani
H10F H 0.2173 0.7177 0.6504 0.0300 Uiso
H11F H 0.1164 0.7082 0.5506 0.0300 Uiso
N1 N 0.6212(3) 0.8163(4) 0.5030(3) 0.0382 Uani
H1 H 0.5861 0.8480 0.5427 0.0450 Uiso
H2 H 0.6836 0.8588 0.5287 0.0450 Uiso
H3 H 0.5884 0.8440 0.4350 0.0450 Uiso
H4 H 0.6269 0.7150 0.5062 0.0450 Uiso
O5 O 0.5186(2) 0.9191(4) 0.6280(3) 0.0517 Uani
H5 H 0.4923 0.8395 0.6420 0.0620 Uiso
H6 H 0.5526 0.9635 0.6859 0.0620 Uiso
O6 O 0.6370(2) 0.0991(3) 0.7995(2) 0.0470 Uani
H7 H 0.7008 0.0871 0.8163 0.0560 Uiso
H8 H 0.6189 0.1787 0.7622 0.0560 Uiso
loop_
_atom_site_aniso_label
_atom_site_aniso_U_11
_atom_site_aniso_U_22
_atom_site_aniso_U_33
_atom_site_aniso_U_23
_atom_site_aniso_U_13
_atom_site_aniso_U_12
Zn1 0.0194(4) 0.0239(5) 0.0197(5) 0.000 0.0122(3) 0.000
O1 0.0260(14) 0.0341(16) 0.0247(15) 0.0014(12) 0.0064(12) 0.0003(12)
O2 0.0367(17) 0.0293(16) 0.0373(18) 0.0075(14) 0.0152(14) 0.0002(14)
O3 0.053(2) 0.0317(17) 0.056(2) -0.0033(15) 0.0396(18) -0.0036(16)
O4 0.0259(13) 0.0337(15) 0.0268(14) -0.0014(11) 0.0187(12) 0.0008(12)
C1 0.0232(18) 0.028(2) 0.0190(18) -0.0022(15) 0.0157(16) 0.0074(16)
C2 0.0236(18) 0.035(2) 0.0190(19) -0.0008(16) 0.0126(16) 0.0058(17)
C3 0.0197(17) 0.026(2) 0.0183(18) -0.0012(14) 0.0108(15) 0.0006(15)
C4 0.0267(19) 0.031(2) 0.025(2) 0.0035(16) 0.0170(17) 0.0040(17)
Zn1D 0.0194 0.0239 0.0197 0 0.0122 0
Zn1F 0.0194 0.0239 0.0197 0 0.0122 0
Zn1B 0.0194 0.0239 0.0197 0 0.0122 0
O1F 0.026 0.0341 0.0247 0.0014 0.0064 0.0003
O1A 0.026 0.0341 0.0247 -0.0014 0.0064 -0.0003
O2F 0.0367 0.0293 0.0373 0.0075 0.0152 0.0002
O3F 0.053 0.0317 0.056 -0.0033 0.0396 -0.0036
O4F 0.0259 0.0337 0.0268 -0.0014 0.0187 0.0008
O4D 0.0259 0.0337 0.0268 -0.0014 0.0187 0.0008
O4E 0.0259 0.0337 0.0268 0.0014 0.0187 -0.0008
C1F 0.0232 0.028 0.019 -0.0022 0.0157 0.0074
C2F 0.0236 0.035 0.019 -0.0008 0.0126 0.0058
C3F 0.0197 0.026 0.0183 -0.0012 0.0108 0.0006
C4F 0.0267 0.031 0.025 0.0035 0.017 0.004
N1 0.039(2) 0.039(2) 0.042(2) -0.0064(16) 0.0213(18) -0.0020(16)
O5 0.061(2) 0.055(2) 0.053(2) -0.0061(17) 0.0373(18) -0.0072(18)
O6 0.0522(18) 0.0453(19) 0.0493(19) 0.0129(16) 0.0257(16) 0.0042(16)
loop_
_geom_bond_atom_site_label_1
_geom_bond_atom_site_label_2
_geom_bond_site_symmetry_1
_geom_bond_site_symmetry_2
Zn1 O1 1_555 1_555
N1 H1 1_555 1_555
H2 N1 1_555 1_555
H3 N1 1_555 1_555
H4 N1 1_555 1_555
O1 C1 1_555 1_555
O2 C1 1_555 1_555
O3 C2 1_555 1_555
O4 C2 1_555 1_555
O5 H5 1_555 1_555
H6 O5 1_555 1_555
O6 H7 1_555 1_555
H8 O6 1_555 1_555
C1 C3 1_555 1_555
C2 C4 1_555 1_555
C3 H9 1_555 1_555
C4 C3 1_555 1_555
H10 C4 1_555 1_555
H11 C4 1_555 1_555
Zn1D O4 1_555 1_555
Zn1F O1F 1_555 1_555
Zn1B O4F 1_555 1_555
O1F C1F 1_555 1_555
O1A Zn1 1_555 1_555
O2F C1F 1_555 1_555
O3F C2F 1_555 1_555
O4F C2F 1_555 1_555
O4D Zn1 1_555 1_555
O4E Zn1 1_555 1_555
C1F C3F 1_555 1_555
C2F C4F 1_555 1_555
C3F C3 1_555 1_555
H9F C3F 1_555 1_555
C4F C3F 1_555 1_555
H10F C4F 1_555 1_555
H11F C4F 1_555 1_555

#END
