
#######################################################################
#
#                 Cambridge Crystallographic Data Centre
#                                CCDC 
#
#######################################################################
#
# If this CIF has been generated from an entry in the Cambridge 
# Structural Database, then it will include bibliographic, chemical, 
# crystal, experimental, refinement or atomic coordinate data resulting 
# from the CCDC's data processing and validation procedures.
#
#######################################################################

data_BEGBOG
_chemical_formula_moiety         '(C8 H15 Na1 O6 Pb1)n'
_symmetry_cell_setting           cubic
_symmetry_space_group_name_H-M   'P 21 3'
_symmetry_Int_Tables_number      198
_space_group_name_Hall           'P 2ac 2ab 3'
loop_
_symmetry_equiv_pos_site_id
_symmetry_equiv_pos_as_xyz
1 x,y,z
2 1/2-x,-y,1/2+z
3 1/2+x,1/2-y,-z
4 -x,1/2+y,1/2-z
5 z,x,y
6 y,z,x
7 1/2-z,-x,1/2+y
8 -y,1/2+z,1/2-x
9 1/2+z,1/2-x,-y
10 1/2-y,-z,1/2+x
11 -z,1/2+x,1/2-y
12 1/2+y,1/2-z,-x
_cell_length_a                   11.0845(8)
_cell_length_b                   11.0845(8)
_cell_length_c                   11.0845(8)
_cell_angle_alpha                90
_cell_angle_beta                 90
_cell_angle_gamma                90
_cell_volume                     1361.91
loop_
_atom_site_label
_atom_site_type_symbol
_atom_site_fract_x
_atom_site_fract_y
_atom_site_fract_z
_atom_site_U_iso_or_equiv
_atom_site_thermal_displace_type
C1 C 0.0116(7) 0.5116(7) 0.9884(7) 0.0160 Uani
H1 H -0.0107 0.5946 0.9990 0.0250 Uiso
C2 C -0.2118(7) 0.2882(7) 1.2118(7) 0.0170 Uani
H2 H -0.1837 0.2064 1.2080 0.0250 Uiso
C3 C -0.2919(7) 0.5752(7) 1.0685(7) 0.0107 Uani
C4 C -0.3878(8) 0.6703(7) 1.0507(8) 0.0183 Uani
H3 H -0.4288 0.6562 0.9757 0.0280 Uiso
H4 H -0.3509 0.7486 1.0491 0.0280 Uiso
H5 H -0.4447 0.6665 1.1158 0.0280 Uiso
O1 O -0.2279(5) 0.5777(5) 1.1628(5) 0.0167 Uani
O2 O -0.2759(5) 0.4961(5) 0.9877(5) 0.0147 Uani
Pb1 Pb -0.10001(3) 0.39999(3) 1.10001(3) 0.0079 Uani
Na1 Na -0.1521(3) 0.6521(3) 1.3479(3) 0.0086 Uani
H1J H 0.0010 0.4893 0.9054 0.0250 Uiso
H1K H 0.0946 0.5010 1.0107 0.0250 Uiso
H2J H -0.2080 0.3163 1.2936 0.0250 Uiso
H2K H -0.2936 0.2920 1.1837 0.0250 Uiso
C3K C 0.0752(7) 0.4315(7) 1.2919(7) 0.0107 Uani
C3J C -0.0685(7) 0.2081(7) 0.9248(7) 0.0107 Uani
C4K C 0.1703(7) 0.4493(8) 1.3878(8) 0.0183 Uani
C4J C -0.0507(8) 0.1122(8) 0.8297(7) 0.0183 Uani
H3K H 0.1562 0.5243 1.4288 0.0280 Uiso
H3J H 0.0243 0.0712 0.8438 0.0280 Uiso
H4K H 0.2486 0.4509 1.3509 0.0280 Uiso
H4J H -0.0491 0.1491 0.7514 0.0280 Uiso
H5K H 0.1665 0.3842 1.4447 0.0280 Uiso
H5J H -0.1158 0.0553 0.8335 0.0280 Uiso
O1K O 0.0777(5) 0.3372(5) 1.2279(5) 0.0167 Uani
O1J O -0.1628(5) 0.2721(5) 0.9223(5) 0.0167 Uani
O1I O -0.0777(5) 0.8372(5) 1.2721(5) 0.0167 Uani
O1H O -0.3372(5) 0.7279(5) 1.4223(5) 0.0167 Uani
O2K O -0.0039(5) 0.5123(5) 1.2759(5) 0.0147 Uani
O2J O 0.0123(5) 0.2241(5) 1.0039(5) 0.0147 Uani
O2A O -0.2241(5) 0.5039(5) 1.4877(5) 0.0147 Uani
O2D O -0.0123(5) 0.7241(5) 1.4961(5) 0.0147 Uani
Na1A Na -0.3479(3) 0.3479(3) 0.8479(3) 0.0086 Uani
Na1C Na 0.1521(3) 0.1521(3) 1.1521(3) 0.0086 Uani
loop_
_atom_site_aniso_label
_atom_site_aniso_U_11
_atom_site_aniso_U_22
_atom_site_aniso_U_33
_atom_site_aniso_U_23
_atom_site_aniso_U_13
_atom_site_aniso_U_12
C1 0.016(4) 0.016(4) 0.016(4) 0.003(4) 0.003(4) -0.003(4)
C2 0.017(3) 0.017(3) 0.017(3) 0.005(4) 0.005(4) -0.005(4)
C3 0.012(4) 0.008(5) 0.012(4) 0.001(3) 0.000(3) 0.001(3)
C4 0.010(4) 0.012(4) 0.033(5) 0.000(4) -0.004(4) 0.003(4)
O1 0.013(3) 0.020(4) 0.017(3) -0.002(3) -0.005(3) 0.007(3)
O2 0.020(3) 0.008(3) 0.016(3) -0.003(3) -0.006(3) -0.001(3)
Pb1 0.00786(14) 0.00786(14) 0.00786(14) 0.00014(14) 0.00014(14) -0.00014(14)
Na1 0.0086 0.0086 0.0086 -0.0029 0.0029 -0.0029
C3K 0.008 0.012 0.012 0 -0.001 -0.001
C3J 0.012 0.012 0.008 -0.001 0.001 0
C4K 0.012 0.033 0.01 -0.004 -0.003 0
C4J 0.033 0.01 0.012 -0.003 0 0.004
O1K 0.02 0.017 0.013 -0.005 -0.007 0.002
O1J 0.017 0.013 0.02 -0.007 -0.002 0.005
O1I 0.02 0.017 0.013 0.005 -0.007 -0.002
O1H 0.017 0.013 0.02 0.007 0.002 0.005
O2K 0.008 0.016 0.02 -0.006 0.001 0.003
O2J 0.016 0.02 0.008 0.001 -0.003 0.006
O2A 0.02 0.008 0.016 0.003 0.006 -0.001
O2D 0.016 0.02 0.008 -0.001 -0.003 -0.006
Na1A 0.0086(12) 0.0086(12) 0.0086(12) 0.0029(13) -0.0029(13) -0.0029(13)
Na1C 0.0086 0.0086 0.0086 0.0029 0.0029 0.0029
loop_
_geom_bond_atom_site_label_1
_geom_bond_atom_site_label_2
_geom_bond_site_symmetry_1
_geom_bond_site_symmetry_2
C1 H1 1_555 1_555
C2 H2 1_555 1_555
C3 C4 1_555 1_555
C4 H3 1_555 1_555
H4 C4 1_555 1_555
H5 C4 1_555 1_555
O1 C3 1_555 1_555
O2 C3 1_555 1_555
Pb1 C1 1_555 1_555
Na1 O1 1_555 1_555
H1J C1 1_555 1_555
H1K C1 1_555 1_555
H2J C2 1_555 1_555
H2K C2 1_555 1_555
C3K C4K 1_555 1_555
C3J C4J 1_555 1_555
C4K H3K 1_555 1_555
C4J H3J 1_555 1_555
H4K C4K 1_555 1_555
H4J C4J 1_555 1_555
H5K C4K 1_555 1_555
H5J C4J 1_555 1_555
O1K Pb1 1_555 1_555
O1J Pb1 1_555 1_555
O1I Na1 1_555 1_555
O1H Na1 1_555 1_555
O2K Na1 1_555 1_555
O2J C3J 1_555 1_555
O2A Na1 1_555 1_555
O2D Na1 1_555 1_555
Na1A O2 1_555 1_555
Na1C O1K 1_555 1_555
C2 Pb1 1_555 1_555
O1 Pb1 1_555 1_555
C3K O1K 1_555 1_555
C3K O2K 1_555 1_555
C3J O1J 1_555 1_555
O1J Na1A 1_555 1_555
O2J Na1C 1_555 1_555

#END
