
#######################################################################
#
#                 Cambridge Crystallographic Data Centre
#                                CCDC 
#
#######################################################################
#
# If this CIF has been generated from an entry in the Cambridge 
# Structural Database, then it will include bibliographic, chemical, 
# crystal, experimental, refinement or atomic coordinate data resulting 
# from the CCDC's data processing and validation procedures.
#
#######################################################################

data_LALPIZ
_chemical_formula_moiety         '(C30 H54 N24 O21 S6 Y2)n'
_symmetry_cell_setting           triclinic
_symmetry_space_group_name_H-M   'P -1'
_symmetry_Int_Tables_number      2
_space_group_name_Hall           '-P 1'
loop_
_symmetry_equiv_pos_site_id
_symmetry_equiv_pos_as_xyz
1 x,y,z
2 -x,-y,-z
_cell_length_a                   9.4609(19)
_cell_length_b                   11.458(2)
_cell_length_c                   14.593(3)
_cell_angle_alpha                69.96(3)
_cell_angle_beta                 85.42(3)
_cell_angle_gamma                86.41(3)
_cell_volume                     1480.35
loop_
_atom_site_label
_atom_site_type_symbol
_atom_site_fract_x
_atom_site_fract_y
_atom_site_fract_z
Y1 Y 1.20317(4) 0.04528(3) -0.00251(3)
S1 S 0.95139(12) -0.22605(12) -0.23579(9)
S2 S 1.43093(11) 0.36519(10) 0.14969(9)
S3 S 1.22413(12) -0.26440(11) 0.24817(8)
O1 O 1.1719(3) -0.0414(3) -0.1243(2)
O2 O 1.0527(3) -0.1146(2) 0.0751(2)
O3 O 0.8726(3) -0.2365(3) 0.1218(2)
O4 O 0.9497(3) -0.1084(3) -0.1057(2)
C1 C 1.0747(4) -0.0976(4) -0.1423(3)
C2 C 1.1143(5) -0.1974(4) 0.3188(3)
N1 N 1.6909(3) 0.4680(3) 0.0949(2)
N2 N 1.7923(4) 0.3684(3) 0.0022(3)
N3 N 0.9237(4) -0.3478(3) -0.3612(3)
N4 N 0.9780(4) -0.2045(3) 0.3380(3)
C3 C 0.9994(4) -0.2162(3) 0.1270(3)
C4 C 1.0889(4) -0.3183(4) 0.1951(3)
H1 H 1.1334 -0.3694 0.1591
H2 H 1.0270 -0.3705 0.2472
N5 N 1.6556(4) 0.3246(3) 0.0327(3)
N6 N 1.1693(4) -0.1278(3) 0.3665(3)
N7 N 1.6617(4) 0.5479(4) 0.1495(3)
H3 H 1.659(5) 0.622(5) 0.102(4)
H4 H 1.738(5) 0.524(4) 0.188(4)
C5 C 1.0721(5) -0.0174(5) 0.4802(3)
H5 H 1.1212 0.0577 0.4431
H6 H 1.1286 -0.0643 0.5345
C6 C 1.0161(5) -0.3031(4) -0.3154(3)
N8 N 0.7769(4) -0.3250(5) -0.3567(4)
H7 H 0.7245 -0.3492 -0.3918
H8 H 0.7390 -0.2868 -0.3189
C7 C 1.1112(4) -0.1591(4) -0.2195(3)
H9 H 1.1447 -0.0980 -0.2806
H10 H 1.1852 -0.2233 -0.1980
N9 N 0.9411(4) -0.1368(4) 0.4018(3)
N10 N 1.1367(4) -0.3974(4) -0.4041(3)
C8 C 1.0581(5) -0.0929(4) 0.4167(3)
N11 N 1.1461(4) -0.3306(4) -0.3395(3)
C9 C 1.0037(5) -0.4056(4) -0.4151(3)
C10 C 0.9427(5) -0.4705(4) -0.4745(3)
H11 H 0.8812 -0.5345 -0.4324
H12 H 0.8854 -0.4115 -0.5231
N12 N 1.3090(4) -0.0928(4) 0.3608(3)
H13 H 1.3309 -0.0445 0.3910
H14 H 1.3735 -0.1195 0.3270
O5 O 1.3128(3) 0.2224(3) 0.0292(2)
O6 O 1.3518(3) 0.0346(3) 0.1328(2)
C11 C 1.4202(4) 0.1995(4) 0.1801(3)
H15 H 1.5152 0.1628 0.1913
H16 H 1.3642 0.1682 0.2416
C12 C 1.3586(4) 0.1523(4) 0.1078(3)
C13 C 1.5973(4) 0.3849(4) 0.0876(3)
C14 C 1.8101(4) 0.4541(4) 0.0401(3)
C15 C 1.9407(4) 0.5248(4) 0.0273(3)
H17 H 1.9707 0.5186 0.0908
H18 H 1.9205 0.6118 -0.0088
O7 O 1.3686(3) -0.1221(3) 0.0188(2)
H19 H 1.3719 -0.1902 0.0052
H20 H 1.4281 -0.1570 0.0707
O8 O 1.3987(3) 0.1179(3) -0.1271(2)
Y1A Y 0.79683(4) -1.04528(3) -0.99749(3)
Y1A_2 Y 0.79683(4) -0.04528(3) 0.00251(3)
Y1_2 Y 1.20317(4) -0.95472(3) -1.00251(3)
Y1A_3 Y 2.79683(4) 0.95472(3) 0.00251(3)
Y1A_4 Y 0.79683(4) -0.04528(3) 1.00251(3)
Y1_3 Y 1.20317(4) 0.04528(3) 0.99749(3)
S1A S 1.04861(12) -0.77395(12) -0.76421(9)
S2A S 2.56907(11) 0.63481(10) -0.14969(9)
S3A S 0.77587(12) 0.26440(11) 0.75183(8)
O1A O 0.8281(3) -0.9586(3) -0.8757(2)
O2A O 0.9473(3) 0.1146(2) 0.9249(2)
O2A_2 O 0.9473(3) 0.1146(2) -0.0751(2)
O2A_3 O 0.9473(3) -0.8854(2) -1.0751(2)
O2_2 O 1.0527(3) -1.1146(2) -0.9249(2)
O3A O 1.1274(3) 0.2365(3) 0.8782(2)
O3A_2 O 1.1274(3) 0.2365(3) -0.1218(2)
O3_2 O 0.8726(3) -1.2365(3) -0.8782(2)
O4A O 1.0503(3) -0.8916(3) -0.8943(2)
O4A_2 O 1.0503(3) 0.1084(3) 0.1057(2)
O4_2 O 0.9497(3) -1.1084(3) -1.1057(2)
C1A C 0.9253(4) -0.9024(4) -0.8577(3)
C2A C 0.8857(5) 0.1974(4) 0.6812(3)
N1A N 2.3091(3) 0.5320(3) -0.0949(2)
N2A N 2.2077(4) 0.6316(3) -0.0022(3)
N3A N 1.0763(4) -0.6522(3) -0.6388(3)
N4A N 1.0220(4) 0.2045(3) 0.6620(3)
C3A C 1.0006(4) 0.2162(3) 0.8730(3)
C4A C 0.9111(4) 0.3183(4) 0.8049(3)
H1A H 0.8666 0.3694 0.8409
H2A H 0.9730 0.3705 0.7528
N5A N 2.3444(4) 0.6754(3) -0.0327(3)
N6A N 0.8307(4) 0.1278(3) 0.6335(3)
N7A N 2.3383(4) 0.4521(4) -0.1495(3)
H3A H 2.341(5) 0.378(5) -0.102(4)
H4A H 2.262(5) 0.476(4) -0.188(4)
C5A C 0.9279(5) 0.0174(5) 0.5198(3)
H5A H 0.8788 -0.0577 0.5569
H6A H 0.8714 0.0643 0.4655
C6A C 0.9839(5) -0.6969(4) -0.6846(3)
N8A N 1.2231(4) -0.6750(5) -0.6433(4)
H7A H 1.2755 -0.6508 -0.6082
H8A H 1.2610 -0.7132 -0.6811
C7A C 0.8888(4) -0.8409(4) -0.7805(3)
H9A H 0.8553 -0.9020 -0.7194
H10A H 0.8148 -0.7767 -0.8020
N9A N 1.0589(4) 0.1368(4) 0.5982(3)
N10A N 0.8633(4) -0.6026(4) -0.5959(3)
C8A C 0.9419(5) 0.0929(4) 0.5833(3)
N11A N 0.8539(4) -0.6694(4) -0.6605(3)
C9A C 0.9963(5) -0.5944(4) -0.5849(3)
C10A C 1.0573(5) -0.5295(4) -0.5255(3)
H11A H 1.1188 -0.4655 -0.5676
H12A H 1.1146 -0.5885 -0.4769
N12A N 0.6910(4) 0.0928(4) 0.6392(3)
H13A H 0.6691 0.0445 0.6090
H14A H 0.6265 0.1195 0.6730
O5A O 2.6872(3) 0.7776(3) -0.0292(2)
O5A_2 O 0.6872(3) -1.2224(3) -1.0292(2)
O6A O 2.6482(3) 0.9654(3) -0.1328(2)
O6A_2 O 0.6482(3) -1.0346(3) -1.1328(2)
C11A C 2.5798(4) 0.8005(4) -0.1801(3)
H15A H 2.4848 0.8372 -0.1913
H16A H 2.6358 0.8318 -0.2416
C12A C 2.6414(4) 0.8477(4) -0.1078(3)
C13A C 2.4027(4) 0.6151(4) -0.0876(3)
C14A C 2.1899(4) 0.5459(4) -0.0401(3)
C15A C 2.0593(4) 0.4752(4) -0.0273(3)
H17A H 2.0293 0.4814 -0.0908
H18A H 2.0795 0.3882 0.0088
O7A O 0.6314(3) -0.8779(3) -1.0188(2)
H19A H 0.6281 -0.8098 -1.0052
H20A H 0.5719 -0.8430 -1.0707
O8A O 0.6013(3) -1.1179(3) -0.8729(2)
O9 O 1.3214(5) 0.2648(5) -0.3061(3)
O10 O 0.6037(5) 0.3597(4) 0.5254(3)
O11 O 1.4583(5) 0.4875(4) 0.3484(4)
O12 O 0.5909(6) 0.1655(7) 0.3869(5)
O13 O 0.6389(6) -0.1183(8) 0.4407(5)
loop_
_geom_bond_atom_site_label_1
_geom_bond_atom_site_label_2
_geom_bond_site_symmetry_1
_geom_bond_site_symmetry_2
Y1 O1 1_555 1_555
S1 C6 1_555 1_555
S2 C11 1_555 1_555
S3 C2 1_555 1_555
O1 C1 1_555 1_555
O2 Y1 1_555 1_555
O3 C3 1_555 1_555
O4 C1 1_555 1_555
C1 C7 1_555 1_555
C2 N4 1_555 1_555
N1 N7 1_555 1_555
N2 N5 1_555 1_555
N3 C6 1_555 1_555
N4 N9 1_555 1_555
C3 O2 1_555 1_555
C4 S3 1_555 1_555
H1 C4 1_555 1_555
H2 C4 1_555 1_555
N5 C13 1_555 1_555
N6 C2 1_555 1_555
N7 H3 1_555 1_555
H4 N7 1_555 1_555
C5 H5 1_555 1_555
H6 C5 1_555 1_555
C6 N11 1_555 1_555
N8 N3 1_555 1_555
H7 N8 1_555 1_555
H8 N8 1_555 1_555
C7 S1 1_555 1_555
H9 C7 1_555 1_555
H10 C7 1_555 1_555
N9 C8 1_555 1_555
N10 N11 1_555 1_555
C8 N6 1_555 1_555
C9 N3 1_555 1_555
C10 C9 1_555 1_555
H11 C10 1_555 1_555
H12 C10 1_555 1_555
N12 N6 1_555 1_555
H13 N12 1_555 1_555
H14 N12 1_555 1_555
O5 Y1 1_555 1_555
O6 Y1 1_555 1_555
C11 H15 1_555 1_555
H16 C11 1_555 1_555
C12 O5 1_555 1_555
C13 S2 1_555 1_555
C14 N1 1_555 1_555
C15 C14 1_555 1_555
H17 C15 1_555 1_555
H18 C15 1_555 1_555
O7 Y1 1_555 1_555
H19 O7 1_555 1_555
H20 O7 1_555 1_555
O8 Y1 1_555 1_555
Y1A O1A 1_555 1_555
Y1A_2 O2 1_555 1_555
Y1_2 O2A_3 1_555 1_555
Y1A_3 O5A 1_555 1_555
Y1A_4 O2A 1_555 1_555
Y1_3 O2A 1_555 1_555
S1A C6A 1_555 1_555
S2A C11A 1_555 1_555
S3A C2A 1_555 1_555
O1A C1A 1_555 1_555
O2A C3A 1_555 1_555
O2A_2 Y1 1_555 1_555
O2A_3 Y1A 1_555 1_555
O2_2 Y1A 1_555 1_555
O3A Y1_3 1_555 1_555
O3A_2 Y1 1_555 1_555
O3_2 Y1A 1_555 1_555
O4A Y1_2 1_555 1_555
O4A_2 Y1 1_555 1_555
O4_2 Y1A 1_555 1_555
C1A O4A 1_555 1_555
C2A N4A 1_555 1_555
N1A N7A 1_555 1_555
N2A N5A 1_555 1_555
N3A C6A 1_555 1_555
N4A N9A 1_555 1_555
C3A O3A 1_555 1_555
C4A S3A 1_555 1_555
H1A C4A 1_555 1_555
H2A C4A 1_555 1_555
N5A C13A 1_555 1_555
N6A C2A 1_555 1_555
N7A H3A 1_555 1_555
H4A N7A 1_555 1_555
C5A C5 1_555 1_555
H5A C5A 1_555 1_555
H6A C5A 1_555 1_555
C6A N11A 1_555 1_555
N8A N3A 1_555 1_555
H7A N8A 1_555 1_555
H8A N8A 1_555 1_555
C7A S1A 1_555 1_555
H9A C7A 1_555 1_555
H10A C7A 1_555 1_555
N9A C8A 1_555 1_555
N10A N11A 1_555 1_555
C8A N6A 1_555 1_555
C9A N3A 1_555 1_555
C10A C10 1_555 1_555
H11A C10A 1_555 1_555
H12A C10A 1_555 1_555
N12A N6A 1_555 1_555
H13A N12A 1_555 1_555
H14A N12A 1_555 1_555
O5A C12A 1_555 1_555
O5A_2 Y1A 1_555 1_555
O6A Y1A_3 1_555 1_555
O6A_2 Y1A 1_555 1_555
C11A H15A 1_555 1_555
H16A C11A 1_555 1_555
C12A O6A 1_555 1_555
C13A S2A 1_555 1_555
C14A N1A 1_555 1_555
C15A C15 1_555 1_555
H17A C15A 1_555 1_555
H18A C15A 1_555 1_555
O7A Y1A 1_555 1_555
H19A O7A 1_555 1_555
H20A O7A 1_555 1_555
O8A Y1A 1_555 1_555
O3 Y1A_2 1_555 1_555
O4 Y1A_2 1_555 1_555
N1 C13 1_555 1_555
N2 C14 1_555 1_555
C3 C4 1_555 1_555
C5 C8 1_555 1_555
N10 C9 1_555 1_555
O6 C12 1_555 1_555
C11 C12 1_555 1_555
Y1A_2 O2A_2 1_555 1_555
Y1_2 O2_2 1_555 1_555
C1A C7A 1_555 1_555
N1A C13A 1_555 1_555
N2A C14A 1_555 1_555
C3A C4A 1_555 1_555
C5A C8A 1_555 1_555
N10A C9A 1_555 1_555
C9A C10A 1_555 1_555
C11A C12A 1_555 1_555
C14A C15A 1_555 1_555

#END
