
#######################################################################
#
#                 Cambridge Crystallographic Data Centre
#                                CCDC 
#
#######################################################################
#
# If this CIF has been generated from an entry in the Cambridge 
# Structural Database, then it will include bibliographic, chemical, 
# crystal, experimental, refinement or atomic coordinate data resulting 
# from the CCDC's data processing and validation procedures.
#
#######################################################################

data_NATHUO
_chemical_formula_moiety         '(C50 H26 F18 N1 O12 Zn2 1-)n'
_symmetry_cell_setting           orthorhombic
_symmetry_space_group_name_H-M   'A b a 2'
_symmetry_Int_Tables_number      41
_space_group_name_Hall           'A 2 -2ab'
loop_
_symmetry_equiv_pos_site_id
_symmetry_equiv_pos_as_xyz
1 x,y,z
2 -x,-y,z
3 1/2-x,y,1/2+z
4 1/2+x,-y,1/2+z
5 x,1/2+y,1/2+z
6 -x,1/2-y,1/2+z
7 1/2-x,1/2+y,z
8 1/2+x,1/2-y,z
_cell_length_a                   7.8849(2)
_cell_length_b                   36.8328(7)
_cell_length_c                   26.7656(5)
_cell_angle_alpha                90
_cell_angle_beta                 90
_cell_angle_gamma                90
_cell_volume                     7773.34
loop_
_atom_site_label
_atom_site_type_symbol
_atom_site_fract_x
_atom_site_fract_y
_atom_site_fract_z
_atom_site_U_iso_or_equiv
_atom_site_thermal_displace_type
Zn1 Zn 0.86761(5) 0.20475(2) 0.13361(2) 0.0288 Uani
F1 F 0.8657(6) 0.12807(9) -0.01253(15) 0.0993 Uani
F2 F 1.0691(6) 0.14840(12) -0.05638(14) 0.1013 Uani
F3 F 0.8610(7) 0.12251(9) -0.09237(15) 0.1187 Uani
F4 F 0.3779(3) 0.33225(7) -0.23616(11) 0.0560 Uani
F5 F 0.5854(4) 0.32216(7) -0.28660(9) 0.0543 Uani
F6 F 0.6336(3) 0.33457(7) -0.20970(11) 0.0573 Uani
F7 F 0.8957(6) 0.12190(9) 0.24015(14) 0.0943 Uani
F8 F 1.1615(6) 0.11809(11) 0.2243(2) 0.1207 Uani
F9 F 1.0350(9) 0.07635(10) 0.26734(16) 0.1417 Uani
O1 O 0.7899(4) 0.21544(7) 0.06640(10) 0.0447 Uani
O2 O 1.0094(4) 0.18668(11) 0.03393(12) 0.0648 Uani
O3 O 0.2952(4) 0.28299(7) -0.31385(9) 0.0402 Uani
O4 O 0.4410(3) 0.23839(7) -0.34922(9) 0.0394 Uani
O5 O 0.9699(4) 0.15683(7) 0.14667(11) 0.0542 Uani
O6 O 0.7123(5) 0.14195(8) 0.12192(17) 0.0769 Uani
C1 C 0.8714(5) 0.20118(10) 0.03092(15) 0.0387 Uani
C2 C 0.7891(5) 0.20499(9) -0.01995(13) 0.0352 Uani
C3 C 0.8088(5) 0.18073(10) -0.05985(14) 0.0409 Uani
C4 C 0.7408(5) 0.18875(10) -0.10645(13) 0.0403 Uani
H1 H 0.7554 0.1720 -0.1331 0.0480 Uiso
C5 C 0.6514(4) 0.22086(10) -0.11494(13) 0.0355 Uani
C6 C 0.6288(5) 0.24442(11) -0.07460(15) 0.0419 Uani
H2 H 0.5664 0.2662 -0.0793 0.0500 Uiso
C7 C 0.6947(5) 0.23675(10) -0.02820(13) 0.0406 Uani
H3 H 0.6762 0.2532 -0.0014 0.0490 Uiso
C8 C 0.9011(8) 0.14540(13) -0.0546(2) 0.0680 Uani
C9 C 0.5877(4) 0.23012(10) -0.16537(13) 0.0343 Uani
C10 C 0.5826(4) 0.26609(10) -0.18068(13) 0.0348 Uani
H4 H 0.6197 0.2845 -0.1583 0.0420 Uiso
C11 C 0.5249(4) 0.27601(9) -0.22779(13) 0.0344 Uani
C12 C 0.4726(4) 0.24934(9) -0.26109(12) 0.0310 Uani
C13 C 0.4808(5) 0.21355(10) -0.24650(13) 0.0352 Uani
H5 H 0.4497 0.1951 -0.2696 0.0420 Uiso
C14 C 0.5330(5) 0.20369(9) -0.19915(14) 0.0359 Uani
H6 H 0.5317 0.1789 -0.1895 0.0430 Uiso
C15 C 0.5291(5) 0.31584(10) -0.24042(15) 0.0412 Uani
C16 C 0.4009(4) 0.25726(9) -0.31217(13) 0.0326 Uani
C17 C 0.8589(6) 0.13420(10) 0.1362(2) 0.0553 Uani
C18 C 0.9059(7) 0.09406(10) 0.1391(2) 0.0589 Uani
C19 C 0.9815(7) 0.07772(11) 0.1813(2) 0.0637 Uani
C20 C 1.0181(7) 0.04087(12) 0.1801(2) 0.0650 Uani
H7 H 1.0693 0.0296 0.2082 0.0780 Uiso
C21 C 0.9800(7) 0.02014(9) 0.1374(2) 0.0641 Uani
C22 C 0.9185(11) 0.03734(13) 0.0965(2) 0.0900 Uani
H8 H 0.9021 0.0240 0.0665 0.1080 Uiso
C23 C 0.8796(10) 0.07362(14) 0.0976(3) 0.0883 Uani
H9 H 0.8331 0.0847 0.0686 0.1060 Uiso
C24 C 1.0160(10) 0.09835(13) 0.2280(2) 0.0797 Uani
F7A F 1.1043(6) -0.12190(9) 0.24015(14) 0.0943 Uani
F8A F 0.8385(6) -0.11809(11) 0.2243(2) 0.1207 Uani
F9A F 0.9650(9) -0.07635(10) 0.26734(16) 0.1417 Uani
O5A O 1.0301(4) -0.15683(7) 0.14667(11) 0.0542 Uani
O6A O 1.2877(5) -0.14195(8) 0.12192(17) 0.0769 Uani
C17A C 1.1411(6) -0.13420(10) 0.1362(2) 0.0553 Uani
C18A C 1.0941(7) -0.09406(10) 0.1391(2) 0.0589 Uani
C19A C 1.0185(7) -0.07772(11) 0.1813(2) 0.0637 Uani
C20A C 0.9819(7) -0.04087(12) 0.1801(2) 0.0650 Uani
H7A H 0.9307 -0.0296 0.2082 0.0780 Uiso
C21A C 1.0200(7) -0.02014(9) 0.1374(2) 0.0641 Uani
C22A C 1.0815(11) -0.03734(13) 0.0965(2) 0.0900 Uani
H8A H 1.0979 -0.0240 0.0665 0.1080 Uiso
C23A C 1.1204(10) -0.07362(14) 0.0976(3) 0.0883 Uani
H9A H 1.1669 -0.0847 0.0686 0.1060 Uiso
C24A C 0.9840(10) -0.09835(13) 0.2280(2) 0.0797 Uani
Zn1A Zn 1.13239(5) -0.20475(2) 0.13361(2) 0.0288 Uani
F1A F 1.1343(6) -0.12807(9) -0.01253(15) 0.0993 Uani
F2A F 0.9309(6) -0.14840(12) -0.05638(14) 0.1013 Uani
F3A F 1.1390(7) -0.12251(9) -0.09237(15) 0.1187 Uani
F4A F 1.6221(3) -0.33225(7) -0.23616(11) 0.0560 Uani
F5A F 1.4146(4) -0.32216(7) -0.28660(9) 0.0543 Uani
F6A F 1.3664(3) -0.33457(7) -0.20970(11) 0.0573 Uani
O1A O 1.2101(4) -0.21544(7) 0.06640(10) 0.0447 Uani
O2A O 0.9906(4) -0.18668(11) 0.03393(12) 0.0648 Uani
O3A O 1.7048(4) -0.28299(7) -0.31385(9) 0.0402 Uani
O4A O 1.5590(3) -0.23839(7) -0.34922(9) 0.0394 Uani
C1A C 1.1286(5) -0.20118(10) 0.03092(15) 0.0387 Uani
C2A C 1.2109(5) -0.20499(9) -0.01995(13) 0.0352 Uani
C3A C 1.1912(5) -0.18073(10) -0.05985(14) 0.0409 Uani
C4A C 1.2592(5) -0.18875(10) -0.10645(13) 0.0403 Uani
H1A H 1.2446 -0.1720 -0.1331 0.0480 Uiso
C5A C 1.3486(4) -0.22086(10) -0.11494(13) 0.0355 Uani
C6A C 1.3712(5) -0.24442(11) -0.07460(15) 0.0419 Uani
H2A H 1.4336 -0.2662 -0.0793 0.0500 Uiso
C7A C 1.3053(5) -0.23675(10) -0.02820(13) 0.0406 Uani
H3A H 1.3238 -0.2532 -0.0014 0.0490 Uiso
C8A C 1.0989(8) -0.14540(13) -0.0546(2) 0.0680 Uani
C9A C 1.4123(4) -0.23012(10) -0.16537(13) 0.0343 Uani
C10A C 1.4174(4) -0.26609(10) -0.18068(13) 0.0348 Uani
H4A H 1.3803 -0.2845 -0.1583 0.0420 Uiso
C11A C 1.4751(4) -0.27601(9) -0.22779(13) 0.0344 Uani
C12A C 1.5274(4) -0.24934(9) -0.26109(12) 0.0310 Uani
C13A C 1.5192(5) -0.21355(10) -0.24650(13) 0.0352 Uani
H5A H 1.5503 -0.1951 -0.2696 0.0420 Uiso
C14A C 1.4670(5) -0.20369(9) -0.19915(14) 0.0359 Uani
H6A H 1.4683 -0.1789 -0.1895 0.0430 Uiso
C15A C 1.4709(5) -0.31584(10) -0.24042(15) 0.0412 Uani
C16A C 1.5991(4) -0.25726(9) -0.31217(13) 0.0326 Uani
Zn1B Zn 0.63239(5) 0.20475(2) -0.36639(2) 0.0288 Uani
Zn1C Zn 1.36761(5) -0.20475(2) -0.36639(2) 0.0288 Uani
Zn1D Zn 1.86761(5) -0.29525(2) -0.36639(2) 0.0288 Uani
Zn1E Zn 0.13239(5) 0.29525(2) -0.36639(2) 0.0288 Uani
O3D O 1.2952(4) -0.21701(7) 0.18615(9) 0.0402 Uani
O3E O 0.7048(4) 0.21701(7) 0.18615(9) 0.0402 Uani
O4B O 1.0590(3) 0.23839(7) 0.15078(9) 0.0394 Uani
O4C O 0.9410(3) -0.23839(7) 0.15078(9) 0.0394 Uani
N1 N 1.3086(6) 0.15841(14) 0.0674(3) 0.0980 Uani
H10 H 1.3247 0.1386 0.0872 0.1180 Uiso
H11 H 1.1954 0.1606 0.0615 0.1180 Uiso
C25 C 1.3695(7) 0.1905(2) 0.0929(3) 0.0947 Uani
H12 H 1.4929 0.1890 0.0967 0.1420 Uiso
H13 H 1.3165 0.1921 0.1259 0.1420 Uiso
H14 H 1.3404 0.2121 0.0733 0.1420 Uiso
C26 C 1.3964(16) 0.1534(4) 0.0209(5) 0.1927 Uani
H15 H 1.4112 0.1769 0.0044 0.2890 Uiso
H16 H 1.3301 0.1373 -0.0008 0.2890 Uiso
H17 H 1.5077 0.1425 0.0272 0.2890 Uiso
loop_
_atom_site_aniso_label
_atom_site_aniso_U_11
_atom_site_aniso_U_22
_atom_site_aniso_U_33
_atom_site_aniso_U_23
_atom_site_aniso_U_13
_atom_site_aniso_U_12
Zn1 0.0405(2) 0.02380(17) 0.02208(19) -0.00029(18) 0.0003(2) 0.00435(14)
F1 0.169(4) 0.0560(17) 0.073(2) 0.0245(17) -0.039(2) 0.0142(19)
F2 0.105(3) 0.124(3) 0.075(2) -0.009(2) 0.000(2) 0.074(2)
F3 0.218(5) 0.0580(18) 0.080(3) -0.0254(17) -0.060(3) 0.056(2)
F4 0.0585(15) 0.0410(12) 0.0684(18) 0.0026(11) -0.0010(12) 0.0133(10)
F5 0.0698(15) 0.0494(13) 0.0438(14) 0.0141(11) 0.0011(11) -0.0134(12)
F6 0.0788(17) 0.0385(12) 0.0547(15) -0.0002(11) -0.0192(12) -0.0147(11)
F7 0.151(3) 0.0608(19) 0.071(2) -0.0094(17) 0.005(2) 0.0300(19)
F8 0.118(3) 0.079(2) 0.165(5) -0.037(3) -0.060(3) -0.003(2)
F9 0.291(7) 0.063(2) 0.071(3) -0.0027(18) -0.058(3) 0.039(3)
O1 0.0632(17) 0.0438(13) 0.0271(13) 0.0008(11) -0.0057(12) 0.0090(13)
O2 0.0492(17) 0.101(3) 0.0443(17) -0.0022(17) -0.0103(13) 0.0210(17)
O3 0.0455(14) 0.0429(13) 0.0321(13) -0.0006(10) -0.0063(10) 0.0102(12)
O4 0.0503(14) 0.0400(12) 0.0278(12) -0.0014(10) -0.0056(10) 0.0068(11)
O5 0.080(2) 0.0274(11) 0.0551(19) 0.0013(11) -0.0036(14) 0.0069(12)
O6 0.096(3) 0.0388(14) 0.096(3) 0.0010(17) -0.011(2) 0.0095(16)
C1 0.042(2) 0.048(2) 0.0260(18) 0.0030(15) -0.0028(14) 0.0000(15)
C2 0.0394(18) 0.0397(17) 0.0266(18) 0.0032(13) 0.0006(14) 0.0000(14)
C3 0.053(2) 0.0410(18) 0.0286(18) 0.0021(14) -0.0033(15) 0.0027(16)
C4 0.0529(19) 0.0391(16) 0.029(2) -0.0038(13) -0.0052(17) 0.0066(17)
C5 0.0412(17) 0.0422(18) 0.0232(16) 0.0007(14) 0.0007(13) 0.0014(14)
C6 0.051(2) 0.0438(19) 0.0309(19) -0.0020(16) -0.0017(14) 0.0131(16)
C7 0.050(2) 0.0456(18) 0.0263(17) -0.0016(15) 0.0006(14) 0.0092(16)
C8 0.109(4) 0.047(2) 0.048(3) -0.005(2) -0.022(3) 0.025(3)
C9 0.0375(16) 0.0409(17) 0.0245(16) 0.0015(13) 0.0013(13) 0.0036(14)
C10 0.0360(16) 0.0394(16) 0.0289(17) -0.0040(14) 0.0011(13) 0.0003(13)
C11 0.0369(16) 0.0337(16) 0.0326(17) 0.0031(13) 0.0003(13) 0.0037(13)
C12 0.0348(16) 0.0380(16) 0.0203(14) 0.0026(13) -0.0005(12) 0.0000(13)
C13 0.0439(18) 0.0348(15) 0.0268(17) -0.0040(13) -0.0036(14) -0.0003(14)
C14 0.0447(18) 0.0332(16) 0.0297(18) 0.0016(13) -0.0019(14) -0.0004(13)
C15 0.049(2) 0.0385(18) 0.0360(19) 0.0022(15) -0.0079(15) -0.0022(16)
C16 0.0403(17) 0.0330(15) 0.0246(16) 0.0047(12) -0.0018(12) -0.0040(13)
C17 0.085(3) 0.0319(16) 0.049(2) 0.002(2) -0.003(2) 0.0172(17)
C18 0.093(3) 0.0256(15) 0.058(3) 0.0058(19) -0.006(3) 0.0002(17)
C19 0.081(3) 0.034(2) 0.076(4) -0.001(2) -0.010(3) 0.004(2)
C20 0.098(4) 0.035(2) 0.062(3) 0.0032(19) -0.010(3) 0.008(2)
C21 0.106(3) 0.0263(17) 0.060(3) 0.0001(19) -0.012(3) 0.0037(19)
C22 0.169(6) 0.033(2) 0.068(3) -0.009(2) -0.034(4) 0.015(3)
C23 0.153(7) 0.042(3) 0.070(4) 0.008(2) -0.013(4) 0.015(3)
C24 0.123(5) 0.038(2) 0.078(4) -0.001(2) -0.023(4) 0.007(3)
F7A 0.151 0.0608 0.071 0.0094 -0.005 0.03
F8A 0.118 0.079 0.165 0.037 0.06 -0.003
F9A 0.291 0.063 0.071 0.0027 0.058 0.039
O5A 0.08 0.0274 0.0551 -0.0013 0.0036 0.0069
O6A 0.096 0.0388 0.096 -0.001 0.011 0.0095
C17A 0.085 0.0319 0.049 -0.002 0.003 0.0172
C18A 0.093 0.0256 0.058 -0.0058 0.006 0.0002
C19A 0.081 0.034 0.076 0.001 0.01 0.004
C20A 0.098 0.035 0.062 -0.0032 0.01 0.008
C21A 0.106 0.0263 0.06 -0.0001 0.012 0.0037
C22A 0.169 0.033 0.068 0.009 0.034 0.015
C23A 0.153 0.042 0.07 -0.008 0.013 0.015
C24A 0.123 0.038 0.078 0.001 0.023 0.007
Zn1A 0.0405 0.0238 0.02208 0.00029 -0.0003 0.00435
F1A 0.169 0.056 0.073 -0.0245 0.039 0.0142
F2A 0.105 0.124 0.075 0.009 0 0.074
F3A 0.218 0.058 0.08 0.0254 0.06 0.056
F4A 0.0585 0.041 0.0684 -0.0026 0.001 0.0133
F5A 0.0698 0.0494 0.0438 -0.0141 -0.0011 -0.0134
F6A 0.0788 0.0385 0.0547 0.0002 0.0192 -0.0147
O1A 0.0632 0.0438 0.0271 -0.0008 0.0057 0.009
O2A 0.0492 0.101 0.0443 0.0022 0.0103 0.021
O3A 0.0455 0.0429 0.0321 0.0006 0.0063 0.0102
O4A 0.0503 0.04 0.0278 0.0014 0.0056 0.0068
C1A 0.042 0.048 0.026 -0.003 0.0028 0
C2A 0.0394 0.0397 0.0266 -0.0032 -0.0006 0
C3A 0.053 0.041 0.0286 -0.0021 0.0033 0.0027
C4A 0.0529 0.0391 0.029 0.0038 0.0052 0.0066
C5A 0.0412 0.0422 0.0232 -0.0007 -0.0007 0.0014
C6A 0.051 0.0438 0.0309 0.002 0.0017 0.0131
C7A 0.05 0.0456 0.0263 0.0016 -0.0006 0.0092
C8A 0.109 0.047 0.048 0.005 0.022 0.025
C9A 0.0375 0.0409 0.0245 -0.0015 -0.0013 0.0036
C10A 0.036 0.0394 0.0289 0.004 -0.0011 0.0003
C11A 0.0369 0.0337 0.0326 -0.0031 -0.0003 0.0037
C12A 0.0348 0.038 0.0203 -0.0026 0.0005 0
C13A 0.0439 0.0348 0.0268 0.004 0.0036 -0.0003
C14A 0.0447 0.0332 0.0297 -0.0016 0.0019 -0.0004
C15A 0.049 0.0385 0.036 -0.0022 0.0079 -0.0022
C16A 0.0403 0.033 0.0246 -0.0047 0.0018 -0.004
Zn1B 0.0405 0.0238 0.02208 -0.00029 -0.0003 -0.00435
Zn1C 0.0405 0.0238 0.02208 0.00029 0.0003 -0.00435
Zn1D 0.0405 0.0238 0.02208 -0.00029 0.0003 0.00435
Zn1E 0.0405 0.0238 0.02208 0.00029 -0.0003 0.00435
O3D 0.0455 0.0429 0.0321 -0.0006 -0.0063 0.0102
O3E 0.0455 0.0429 0.0321 0.0006 0.0063 0.0102
O4B 0.0503 0.04 0.0278 -0.0014 0.0056 -0.0068
O4C 0.0503 0.04 0.0278 0.0014 -0.0056 -0.0068
N1 0.058(3) 0.068(3) 0.168(7) -0.004(4) -0.016(3) 0.011(2)
C25 0.062(3) 0.102(5) 0.120(6) -0.045(5) -0.031(3) 0.025(3)
C26 0.196(12) 0.253(16) 0.129(10) -0.086(10) -0.019(8) 0.115(11)
loop_
_geom_bond_atom_site_label_1
_geom_bond_atom_site_label_2
_geom_bond_site_symmetry_1
_geom_bond_site_symmetry_2
Zn1 O1 1_555 1_555
F1 C8 1_555 1_555
F2 C8 1_555 1_555
F3 C8 1_555 1_555
F4 C15 1_555 1_555
F5 C15 1_555 1_555
F6 C15 1_555 1_555
F7 C24 1_555 1_555
F8 C24 1_555 1_555
F9 C24 1_555 1_555
O1 C1 1_555 1_555
O2 C1 1_555 1_555
O3 C16 1_555 1_555
O4 C16 1_555 1_555
O5 Zn1 1_555 1_555
O6 C17 1_555 1_555
C1 C2 1_555 1_555
C2 C3 1_555 1_555
C3 C4 1_555 1_555
C4 H1 1_555 1_555
C5 C4 1_555 1_555
C6 C5 1_555 1_555
H2 C6 1_555 1_555
C7 C2 1_555 1_555
H3 C7 1_555 1_555
C8 C3 1_555 1_555
C9 C5 1_555 1_555
C10 C9 1_555 1_555
H4 C10 1_555 1_555
C11 C10 1_555 1_555
C12 C11 1_555 1_555
C13 C12 1_555 1_555
H5 C13 1_555 1_555
C14 C9 1_555 1_555
H6 C14 1_555 1_555
C15 C11 1_555 1_555
C16 C12 1_555 1_555
C17 O5 1_555 1_555
C18 C17 1_555 1_555
C19 C18 1_555 1_555
C20 C19 1_555 1_555
H7 C20 1_555 1_555
C21 C20 1_555 1_555
C22 C21 1_555 1_555
H8 C22 1_555 1_555
C23 C18 1_555 1_555
H9 C23 1_555 1_555
C24 C19 1_555 1_555
N1 H10 1_555 1_555
H11 N1 1_555 1_555
C25 N1 1_555 1_555
H12 C25 1_555 1_555
H13 C25 1_555 1_555
H14 C25 1_555 1_555
C26 N1 1_555 1_555
H15 C26 1_555 1_555
H16 C26 1_555 1_555
H17 C26 1_555 1_555
F7A C24A 1_555 1_555
F8A C24A 1_555 1_555
F9A C24A 1_555 1_555
O5A C17A 1_555 1_555
O6A C17A 1_555 1_555
C17A C18A 1_555 1_555
C18A C19A 1_555 1_555
C19A C20A 1_555 1_555
C20A H7A 1_555 1_555
C21A C21 1_555 1_555
C22A C21A 1_555 1_555
H8A C22A 1_555 1_555
C23A C18A 1_555 1_555
H9A C23A 1_555 1_555
C24A C19A 1_555 1_555
Zn1A O5A 1_555 1_555
F1A C8A 1_555 1_555
F2A C8A 1_555 1_555
F3A C8A 1_555 1_555
F4A C15A 1_555 1_555
F5A C15A 1_555 1_555
F6A C15A 1_555 1_555
O1A Zn1A 1_555 1_555
O2A C1A 1_555 1_555
O3A C16A 1_555 1_555
O4A C16A 1_555 1_555
C1A O1A 1_555 1_555
C2A C1A 1_555 1_555
C3A C2A 1_555 1_555
C4A C3A 1_555 1_555
H1A C4A 1_555 1_555
C5A C4A 1_555 1_555
C6A C5A 1_555 1_555
H2A C6A 1_555 1_555
C7A C2A 1_555 1_555
H3A C7A 1_555 1_555
C8A C3A 1_555 1_555
C9A C5A 1_555 1_555
C10A C9A 1_555 1_555
H4A C10A 1_555 1_555
C11A C10A 1_555 1_555
C12A C11A 1_555 1_555
C13A C12A 1_555 1_555
H5A C13A 1_555 1_555
C14A C9A 1_555 1_555
H6A C14A 1_555 1_555
C15A C11A 1_555 1_555
C16A C12A 1_555 1_555
Zn1B O4 1_555 1_555
Zn1C O4A 1_555 1_555
Zn1D O3A 1_555 1_555
Zn1E O3 1_555 1_555
O3D Zn1A 1_555 1_555
O3E Zn1 1_555 1_555
O4B Zn1 1_555 1_555
O4C Zn1A 1_555 1_555
C6 C7 1_555 1_555
C13 C14 1_555 1_555
C22 C23 1_555 1_555
C20A C21A 1_555 1_555
C22A C23A 1_555 1_555
C6A C7A 1_555 1_555
C13A C14A 1_555 1_555

#END
