
#######################################################################
#
#                 Cambridge Crystallographic Data Centre
#                                CCDC 
#
#######################################################################
#
# If this CIF has been generated from an entry in the Cambridge 
# Structural Database, then it will include bibliographic, chemical, 
# crystal, experimental, refinement or atomic coordinate data resulting 
# from the CCDC's data processing and validation procedures.
#
#######################################################################

data_AXIMUP
_chemical_formula_moiety         '(C39 H40 F9 La1 N6 O17 S3)n'
_symmetry_cell_setting           monoclinic
_symmetry_space_group_name_H-M   'P 21/n'
_symmetry_Int_Tables_number      14
_space_group_name_Hall           '-P 2yn'
loop_
_symmetry_equiv_pos_site_id
_symmetry_equiv_pos_as_xyz
1 x,y,z
2 1/2+x,1/2-y,1/2+z
3 -x,-y,-z
4 1/2-x,1/2+y,1/2-z
_cell_length_a                   10.8304(9)
_cell_length_b                   16.7133(13)
_cell_length_c                   28.085(2)
_cell_angle_alpha                90
_cell_angle_beta                 94.967(2)
_cell_angle_gamma                90
_cell_volume                     5064.62
loop_
_atom_site_label
_atom_site_type_symbol
_atom_site_fract_x
_atom_site_fract_y
_atom_site_fract_z
La1 La 0.540315(13) 0.877349(7) 0.531695(4)
O4 O 0.31317(16) 0.88538(9) 0.50540(7)
O5 O -0.4673(3) 0.38367(13) 0.50418(11)
N1 N 0.2228(2) 0.83096(12) 0.50373(8)
N2 N -0.3820(3) 0.43767(16) 0.50558(12)
C2 C 0.1268(3) 0.84213(18) 0.52920(10)
H1 H 0.1233 0.8876 0.5481
C3 C 0.0329(3) 0.7874(2) 0.52786(12)
H2 H -0.0337 0.7961 0.5460
C4 C 0.0348(3) 0.7198(2) 0.50027(14)
C5 C 0.1360(3) 0.70966(19) 0.47347(13)
H3 H 0.1413 0.6642 0.4546
C6 C 0.2283(3) 0.76643(16) 0.47471(11)
H4 H 0.2940 0.7606 0.4558
C8 C -0.0863(7) 0.6704(4) 0.5035(2)
C9 C -0.1323(8) 0.6431(4) 0.5254(3)
C11 C -0.2005(5) 0.5515(3) 0.5137(2)
C12 C -0.2512(5) 0.5260(3) 0.5529(2)
H5 H -0.2256 0.5465 0.5829
C13 C -0.3421(5) 0.4684(2) 0.54731(18)
H6 H -0.3771 0.4502 0.5744
C14 C -0.3284(4) 0.4606(2) 0.46711(16)
H7 H -0.3507 0.4369 0.4377
C15 C -0.2405(4) 0.5190(2) 0.47103(18)
H8 H -0.2070 0.5371 0.4436
O6 O 0.44772(19) 0.74231(10) 0.55076(7)
H9 H 0.4577 0.7017 0.5259
H10 H 0.4167 0.7307 0.5804
O7 O 0.58716(18) 0.79637(10) 0.46776(6)
O8 O 1.0082(3) 0.60828(12) 0.11331(6)
N3 N 0.6530(2) 0.76445(12) 0.43471(6)
N4 N 0.9569(3) 0.61871(14) 0.15385(7)
C16 C 0.7634(3) 0.79492(16) 0.42650(9)
H11 H 0.7963 0.8370 0.4452
C17 C 0.8284(3) 0.76497(19) 0.39102(10)
H12 H 0.9058 0.7858 0.3859
C18 C 0.7783(3) 0.7033(2) 0.36261(11)
C19 C 0.6691(3) 0.6727(2) 0.37294(11)
H13 H 0.6364 0.6292 0.3555
C20 C 0.6044(3) 0.70401(17) 0.40861(10)
H14 H 0.5275 0.6831 0.4144
C21 C 0.8498(4) 0.6732(3) 0.32166(12)
H15 H 0.9072 0.7148 0.3140
H16 H 0.8987 0.6274 0.3331
C22 C 0.7867(5) 0.6531(5) 0.28325(14)
H17 H 0.7254 0.6947 0.2761
H18 H 0.7415 0.6050 0.2902
C23 C 0.8487(4) 0.6370(3) 0.23690(13)
C24 C 0.9709(4) 0.6204(4) 0.23688(13)
H19 H 1.0186 0.6131 0.2657
C25 C 1.0251(4) 0.6140(3) 0.19429(12)
H20 H 1.1102 0.6064 0.1945
C26 C 0.8377(4) 0.6289(2) 0.15370(11)
H21 H 0.7890 0.6299 0.1248
C27 C 0.7842(4) 0.6379(3) 0.19474(13)
H22 H 0.6988 0.6450 0.1935
O9 O 0.73997(16) 0.95300(9) 0.51871(6)
H23 H 0.7958 0.9553 0.5339
H24 H 0.7374 1.0162 0.5095
O10 O 0.72311(19) 0.80771(11) 0.57051(6)
O11 O 1.00609(15) 0.52713(9) 0.95580(5)
N5 N 0.7480(2) 0.77095(13) 0.61233(7)
N6 N 0.99226(18) 0.56032(10) 0.91200(6)
C28 C 0.8370(3) 0.7948(2) 0.64140(10)
H25 H 0.8814 0.8400 0.6338
C29 C 0.8693(4) 0.7561(2) 0.68338(11)
H26 H 0.9350 0.7760 0.7035
C30 C 0.8093(3) 0.68956(17) 0.69698(9)
C31 C 0.7171(4) 0.6686(2) 0.66607(13)
H27 H 0.6697 0.6245 0.6733
C32 C 0.6864(4) 0.7078(2) 0.62371(13)
H28 H 0.6211 0.6891 0.6030
C33 C 0.8406(4) 0.6435(2) 0.74367(10)
H29 H 0.7696 0.6468 0.7624
H30 H 0.8512 0.5876 0.7357
C34 C 0.9487(3) 0.66864(18) 0.77354(9)
H31 H 0.9439 0.7260 0.7783
H32 H 1.0216 0.6582 0.7567
C35 C 0.9654(3) 0.62813(16) 0.82225(8)
C36 C 1.0752(3) 0.59523(15) 0.83969(8)
H33 H 1.1417 0.5950 0.8208
C37 C 1.0895(2) 0.56211(14) 0.88511(8)
H34 H 1.1656 0.5413 0.8969
C38 C 0.8821(2) 0.58886(15) 0.89501(8)
H35 H 0.8145 0.5844 0.9131
C39 C 0.8684(3) 0.62471(16) 0.85093(9)
H36 H 0.7924 0.6471 0.8402
O8A O 0.5082(3) 0.89172(12) 0.61331(6)
O11A O 0.50609(15) 0.97287(9) 0.45580(5)
O11C O 0.49391(15) 1.02713(9) 0.54420(5)
La1A La 1.040315(13) 0.622651(7) 0.031695(4)
La1A_2 La 1.040315(13) 0.622651(7) 1.031695(4)
La1C La 0.959685(13) 0.377349(7) 0.968305(4)
S1 S 0.99801(8) 0.02607(5) -0.39603(3)
O1 O 0.9405(2) -0.04696(14) -0.41164(8)
O2 O 0.9327(3) 0.09543(15) -0.41281(9)
O3 O 1.1248(2) 0.02590(17) -0.39933(11)
C1 C 0.9826(3) 0.02498(17) -0.33272(16)
F1 F 1.0425(5) -0.0175(3) -0.30578(15)
F2 F 0.8744(4) 0.0030(3) -0.32706(18)
F3 F 0.9811(5) 0.0901(3) -0.3134(2)
S2 S 0.74724(13) -0.14939(8) -0.16435(5)
O12 O 0.6544(3) -0.0950(2) -0.15020(15)
O13 O 0.8295(3) -0.1785(2) -0.12661(13)
O14 O 0.7024(4) -0.2082(2) -0.19678(13)
C40 C 0.8352(4) -0.0842(2) -0.19395(18)
F7 F 0.9357(3) -0.11942(18) -0.21167(13)
F8 F 0.7707(4) -0.05171(19) -0.23432(13)
F9 F 0.8780(4) -0.02565(19) -0.17111(16)
S3 S 0.77603(17) 0.35130(10) 0.35378(6)
C41 C 0.7020(5) 0.3939(3) 0.3104(2)
F10 F 0.7696(5) 0.4304(3) 0.27945(16)
F11 F 0.6350(5) 0.4523(2) 0.3234(2)
F12 F 0.6221(5) 0.3493(3) 0.28434(16)
O15 O 0.6524(5) 0.3186(4) 0.3701(2)
O16 O 0.8165(9) 0.4367(3) 0.3727(3)
O17 O 0.8553(6) 0.3041(5) 0.3202(2)
loop_
_geom_bond_atom_site_label_1
_geom_bond_atom_site_label_2
_geom_bond_site_symmetry_1
_geom_bond_site_symmetry_2
La1 O4 1_555 1_555
S1 O1 1_555 1_555
O2 S1 1_555 1_555
O3 S1 1_555 1_555
C1 S1 1_555 1_555
F1 C1 1_555 1_555
F2 C1 1_555 1_555
F3 C1 1_555 1_555
O4 N1 1_555 1_555
O5 N2 1_555 1_555
N1 C2 1_555 1_555
N2 C13 1_555 1_555
C2 H1 1_555 1_555
C3 C2 1_555 1_555
H2 C3 1_555 1_555
C4 C3 1_555 1_555
C5 C4 1_555 1_555
H3 C5 1_555 1_555
C6 N1 1_555 1_555
H4 C6 1_555 1_555
C8 C4 1_555 1_555
C9 C8 1_555 1_555
C11 C9 1_555 1_555
C12 C11 1_555 1_555
H5 C12 1_555 1_555
C13 C12 1_555 1_555
H6 C13 1_555 1_555
C14 N2 1_555 1_555
H7 C14 1_555 1_555
C15 C11 1_555 1_555
H8 C15 1_555 1_555
O6 La1 1_555 1_555
H9 O6 1_555 1_555
H10 O6 1_555 1_555
O7 La1 1_555 1_555
O8 N4 1_555 1_555
N3 O7 1_555 1_555
N4 C25 1_555 1_555
C16 N3 1_555 1_555
H11 C16 1_555 1_555
C17 C16 1_555 1_555
H12 C17 1_555 1_555
C18 C17 1_555 1_555
C19 C18 1_555 1_555
H13 C19 1_555 1_555
C20 N3 1_555 1_555
H14 C20 1_555 1_555
C21 C18 1_555 1_555
H15 C21 1_555 1_555
H16 C21 1_555 1_555
C22 C21 1_555 1_555
H17 C22 1_555 1_555
H18 C22 1_555 1_555
C23 C22 1_555 1_555
C24 C23 1_555 1_555
H19 C24 1_555 1_555
C25 C24 1_555 1_555
H20 C25 1_555 1_555
C26 N4 1_555 1_555
H21 C26 1_555 1_555
C27 C23 1_555 1_555
H22 C27 1_555 1_555
O9 La1 1_555 1_555
H23 O9 1_555 1_555
H24 O9 1_555 1_555
O10 La1 1_555 1_555
O11 N6 1_555 1_555
N5 O10 1_555 1_555
N6 C37 1_555 1_555
C28 N5 1_555 1_555
H25 C28 1_555 1_555
C29 C28 1_555 1_555
H26 C29 1_555 1_555
C30 C29 1_555 1_555
C31 C30 1_555 1_555
H27 C31 1_555 1_555
C32 N5 1_555 1_555
H28 C32 1_555 1_555
C33 C30 1_555 1_555
H29 C33 1_555 1_555
H30 C33 1_555 1_555
C34 C33 1_555 1_555
H31 C34 1_555 1_555
H32 C34 1_555 1_555
C35 C34 1_555 1_555
C36 C35 1_555 1_555
H33 C36 1_555 1_555
C37 C36 1_555 1_555
H34 C37 1_555 1_555
C38 N6 1_555 1_555
H35 C38 1_555 1_555
C39 C35 1_555 1_555
H36 C39 1_555 1_555
S2 O12 1_555 1_555
O13 S2 1_555 1_555
O14 S2 1_555 1_555
C40 S2 1_555 1_555
F7 C40 1_555 1_555
F8 C40 1_555 1_555
F9 C40 1_555 1_555
S3 C41 1_555 1_555
C41 F10 1_555 1_555
F11 C41 1_555 1_555
F12 C41 1_555 1_555
O15 S3 1_555 1_555
O16 S3 1_555 1_555
O17 S3 1_555 1_555
O8A La1 1_555 1_555
O11A La1 1_555 1_555
O11C La1 1_555 1_555
La1A O8 1_555 1_555
La1A_2 O11 1_555 1_555
La1C O11 1_555 1_555
C5 C6 1_555 1_555
C14 C15 1_555 1_555
C19 C20 1_555 1_555
C26 C27 1_555 1_555
C31 C32 1_555 1_555
C38 C39 1_555 1_555

#END
