
#######################################################################
#
#                 Cambridge Crystallographic Data Centre
#                                CCDC 
#
#######################################################################
#
# If this CIF has been generated from an entry in the Cambridge 
# Structural Database, then it will include bibliographic, chemical, 
# crystal, experimental, refinement or atomic coordinate data resulting 
# from the CCDC's data processing and validation procedures.
#
#######################################################################

data_AXINEA
_chemical_formula_moiety         '(C26 H22 F6 La1 N4 O14 S2 1+)n'
_symmetry_cell_setting           orthorhombic
_symmetry_space_group_name_H-M   'F d d d'
_symmetry_Int_Tables_number      70
_space_group_name_Hall           '-F 2uv 2vw'
loop_
_symmetry_equiv_pos_site_id
_symmetry_equiv_pos_as_xyz
1 x,y,z
2 x,1/2+y,1/2+z
3 x,1/4-y,1/4-z
4 1/2+x,y,1/2+z
5 1/4-x,y,1/4-z
6 1/2+x,1/2+y,z
7 1/4-x,1/4-y,z
8 1/4+x,1/4+y,-z
9 1/4+x,-y,1/4+z
10 -x,1/4+y,1/4+z
11 1/4+x,3/4+y,1/2-z
12 1/4+x,1/2-y,3/4+z
13 3/4+x,1/4+y,1/2-z
14 1/2-x,1/4+y,3/4+z
15 3/4+x,1/2-y,1/4+z
16 1/2-x,3/4+y,1/4+z
17 -x,-y,-z
18 -x,1/2-y,1/2-z
19 -x,3/4+y,3/4+z
20 1/2-x,-y,1/2-z
21 3/4+x,-y,3/4+z
22 1/2-x,1/2-y,-z
23 3/4+x,3/4+y,-z
24 3/4-x,3/4-y,z
25 3/4-x,y,3/4-z
26 x,3/4-y,3/4-z
27 3/4-x,1/4-y,1/2+z
28 3/4-x,1/2+y,1/4-z
29 1/4-x,3/4-y,1/2+z
30 1/2+x,3/4-y,1/4-z
31 1/4-x,1/2+y,3/4-z
32 1/2+x,1/4-y,3/4-z
_cell_length_a                   15.4237(9)
_cell_length_b                   25.4287(14)
_cell_length_c                   30.7870(16)
_cell_angle_alpha                90
_cell_angle_beta                 90
_cell_angle_gamma                90
_cell_volume                     12074.8
loop_
_atom_site_label
_atom_site_type_symbol
_atom_site_fract_x
_atom_site_fract_y
_atom_site_fract_z
_atom_site_U_iso_or_equiv
_atom_site_thermal_displace_type
S1 S 0.6483(2) 0.90824(14) 0.60463(8) 0.1623 Uani
O5 O 0.6250 0.86026(15) 0.6250 0.1217 Uani
O6 O 0.6129(4) 0.9181(3) 0.56579(12) 0.1830 Uani
O7 O 0.7403(2) 0.9069(3) 0.6028(2) 0.2173 Uani
F1 F 0.6685(4) 0.99864(17) 0.6199(2) 0.2517 Uani
F2 F 0.7075(3) 0.9517(3) 0.6070(3) 0.2857 Uani
F3 F 0.5714(4) 0.9367(2) 0.57222(14) 0.2200 Uani
C13 C 0.6348(3) 0.9549(2) 0.64195(18) 0.1687 Uani
S1D S 0.6017(2) 0.90824(14) 0.64537(8) 0.1623 Uani
O6D O 0.6371(4) 0.9181(3) 0.68421(12) 0.1830 Uani
F3D F 0.6786(4) 0.9367(2) 0.67778(14) 0.2200 Uani
O7D O 0.5097(2) 0.9069(3) 0.6472(2) 0.2173 Uani
F2D F 0.5425(3) 0.9517(3) 0.6430(3) 0.2857 Uani
C13D C 0.6152(3) 0.9549(2) 0.60805(18) 0.1687 Uani
F1D F 0.5815(4) 0.99864(17) 0.6301(2) 0.2517 Uani
O9 O 0.6995(8) 1.0851(4) 0.6347(4) 0.2480 Uiso
La1 La 0.474656(9) 0.6250 0.6250 0.0259 Uani
O1 O 0.38027(10) 0.64080(5) 0.68957(4) 0.0443 Uani
O2 O 0.38754(11) 0.70625(6) 0.61231(5) 0.0528 Uani
N1 N 0.38227(11) 0.68044(6) 0.71748(5) 0.0347 Uani
O3 O 0.30568(11) 0.82715(5) 0.81561(4) 0.0461 Uani
C1 C 0.37862(13) 0.75942(7) 0.77859(6) 0.0345 Uani
C2 C 0.37422(14) 0.80155(7) 0.81288(5) 0.0358 Uani
O4 O 0.44057(11) 0.80683(6) 0.83595(4) 0.0474 Uani
N2 N 0.39409(13) 0.74127(7) 0.58099(6) 0.0470 Uani
C3 C 0.33314(15) 0.76404(8) 0.74014(6) 0.0416 Uani
H1 H 0.3000 0.7939 0.7348 0.0500 Uiso
C4 C 0.33701(15) 0.72416(8) 0.70965(6) 0.0428 Uani
H2 H 0.3078 0.7278 0.6834 0.0510 Uiso
C5 C 0.36426(18) 0.76856(10) 0.50967(8) 0.0585 Uani
H3 H 0.3387 0.7615 0.4829 0.0700 Uiso
C6 C 0.35863(18) 0.73200(9) 0.54194(8) 0.0581 Uani
H4 H 0.3300 0.7004 0.5369 0.0700 Uiso
C7 C 0.42906(16) 0.67544(8) 0.75394(6) 0.0453 Uani
H5 H 0.4618 0.6452 0.7585 0.0540 Uiso
C8 C 0.42895(16) 0.71502(8) 0.78472(6) 0.0462 Uani
H6 H 0.4628 0.7118 0.8096 0.0550 Uiso
C9 C 0.4460(2) 0.82350(10) 0.55592(8) 0.0633 Uani
H7 H 0.4777 0.8540 0.5612 0.0760 Uiso
C10 C 0.40689(17) 0.81581(9) 0.51557(7) 0.0507 Uani
C11 C 0.41154(19) 0.85525(9) 0.47929(8) 0.0591 Uani
H8 H 0.4112 0.8366 0.4518 0.0710 Uiso
H9 H 0.4661 0.8740 0.4813 0.0710 Uiso
C12 C 0.43796(19) 0.78634(10) 0.58779(8) 0.0630 Uani
H10 H 0.4633 0.7923 0.6147 0.0760 Uiso
C11W C 0.33846(19) 0.89475(9) 0.47929(8) 0.0591 Uani
C10W C 0.34311(17) 0.93419(9) 0.51557(7) 0.0507 Uani
C5W C 0.38574(18) 0.98144(10) 0.50967(8) 0.0585 Uani
H3W H 0.4113 0.9885 0.4829 0.0700 Uiso
C6W C 0.39137(18) 1.01800(9) 0.54194(8) 0.0581 Uani
N2W N 0.35591(13) 1.00873(7) 0.58099(6) 0.0470 Uani
O2W O 0.36246(11) 1.04375(6) 0.61231(5) 0.0528 Uani
C12W C 0.31204(19) 0.96366(10) 0.58779(8) 0.0630 Uani
C9W C 0.3040(2) 0.92650(10) 0.55592(8) 0.0633 Uani
H7W H 0.2723 0.8960 0.5612 0.0760 Uiso
H10W H 0.2867 0.9577 0.6147 0.0760 Uiso
H4W H 0.4200 1.0496 0.5369 0.0700 Uiso
H8W H 0.3388 0.9134 0.4518 0.0710 Uiso
H9W H 0.2839 0.8760 0.4813 0.0710 Uiso
O1B O 0.38027(10) 0.60920(5) 0.56043(4) 0.0443 Uani
N1B N 0.38227(11) 0.56956(6) 0.53252(5) 0.0347 Uani
O3B O 0.30568(11) 0.42285(5) 0.43439(4) 0.0461 Uani
C1B C 0.37862(13) 0.49058(7) 0.47141(6) 0.0345 Uani
C2B C 0.37422(14) 0.44845(7) 0.43712(5) 0.0358 Uani
O4B O 0.44057(11) 0.44317(6) 0.41405(4) 0.0474 Uani
C3B C 0.33314(15) 0.48596(8) 0.50986(6) 0.0416 Uani
H1B H 0.3000 0.4561 0.5152 0.0500 Uiso
C4B C 0.33701(15) 0.52584(8) 0.54035(6) 0.0428 Uani
H2B H 0.3078 0.5222 0.5666 0.0510 Uiso
C7B C 0.42906(16) 0.57456(8) 0.49606(6) 0.0453 Uani
H5B H 0.4618 0.6048 0.4915 0.0540 Uiso
C8B C 0.42895(16) 0.53498(8) 0.46528(6) 0.0462 Uani
H6B H 0.4628 0.5382 0.4404 0.0550 Uiso
O2B O 0.38754(11) 0.54375(6) 0.63769(5) 0.0528 Uani
O3J O 0.55568(11) 0.57715(5) 0.68439(4) 0.0461 Uani
O3K O 0.55568(11) 0.67285(5) 0.56561(4) 0.0461 Uani
O4Q O 0.55943(11) 0.69317(6) 0.66405(4) 0.0474 Uani
O4R O 0.55943(11) 0.55683(6) 0.58595(4) 0.0474 Uani
La1L La 0.224656(9) 0.8750 0.8750 0.0259 Uani
La1I La 0.525344(9) 0.8750 0.8750 0.0259 Uani
La1W La 0.275344(9) 1.1250 0.6250 0.0259 Uani
La1T La 0.224656(9) 0.3750 0.3750 0.0259 Uani
La1P La 0.525344(9) 0.3750 0.3750 0.0259 Uani
loop_
_atom_site_aniso_label
_atom_site_aniso_U_11
_atom_site_aniso_U_22
_atom_site_aniso_U_33
_atom_site_aniso_U_23
_atom_site_aniso_U_13
_atom_site_aniso_U_12
S1 0.194(3) 0.185(3) 0.1078(16) -0.0191(18) 0.0107(19) 0.010(3)
O5 0.259(10) 0.032(2) 0.074(3) 0.000 -0.028(5) 0.000
O6 0.297(9) 0.191(6) 0.061(3) 0.026(3) 0.003(4) 0.109(5)
O7 0.074(3) 0.359(8) 0.219(7) 0.030(8) 0.020(4) 0.121(4)
F1 0.210(8) 0.105(4) 0.440(12) 0.060(5) 0.081(8) -0.031(4)
F2 0.126 0.227 0.504 -0.106 0.056 -0.012
F3 0.284 0.169 0.207 0.102 -0.132 -0.063
C13 0.268(11) 0.100(6) 0.138(7) 0.011(5) -0.094(7) -0.066(6)
S1D 0.194 0.185 0.1078 0.0191 0.0107 -0.01
O6D 0.297 0.191 0.061 -0.026 0.003 -0.109
F3D 0.284(7) 0.169(4) 0.207(4) -0.102(3) -0.132(4) 0.063(5)
O7D 0.074 0.359 0.219 -0.03 0.02 -0.121
F2D 0.126(6) 0.227(8) 0.504(14) 0.106(9) 0.056(7) 0.012(6)
C13D 0.268 0.1 0.138 -0.011 -0.094 0.066
F1D 0.21 0.105 0.44 -0.06 0.081 0.031
La1 0.03655(7) 0.01980(5) 0.02147(5) -0.00322(5) 0.000 0.000
O1 0.0591 0.0355 0.0384 -0.0172 0.0116 -0.0086
O2 0.0730(11) 0.0398(7) 0.0457(7) 0.0036(6) 0.0034(7) 0.0216(7)
N1 0.0417 0.0308 0.0317 -0.0104 0.0077 -0.0015
O3 0.0578 0.0406 0.04 -0.0113 0.0062 0.0032
C1 0.0389 0.0318 0.0329 -0.011 0.0038 -0.0058
C2 0.0478 0.03 0.0296 -0.0062 0.0069 -0.0091
O4 0.0593 0.0413 0.0417 -0.0116 -0.007 -0.0088
N2 0.0614(12) 0.0344(8) 0.0453(8) -0.0040(7) -0.0042(8) 0.0152(8)
C3 0.0539 0.034 0.037 -0.0075 -0.0026 0.0054
C4 0.0525 0.0444 0.0314 -0.0091 -0.0044 0.0054
C5 0.0790(17) 0.0460(11) 0.0506(11) -0.0034(10) -0.0190(11) 0.0035(12)
C6 0.0784(18) 0.0387(11) 0.0572(12) -0.0017(10) -0.0174(11) -0.0014(12)
C7 0.0546 0.0369 0.0444 -0.0066 -0.0034 0.0104
C8 0.0552 0.0474 0.0361 -0.0106 -0.0094 0.0052
C9 0.0802(18) 0.0408(11) 0.0690(14) -0.0028(11) -0.0152(13) -0.0018(13)
C10 0.0549(13) 0.0431(11) 0.0540(11) -0.0040(10) 0.0021(10) 0.0124(10)
C11 0.0790(17) 0.0427(11) 0.0555(12) 0.0032(10) 0.0063(12) 0.0159(13)
C12 0.0827(18) 0.0532(13) 0.0531(11) -0.0132(10) -0.0207(12) 0.0089(13)
C11W 0.079 0.0427 0.0555 -0.0032 -0.0063 0.0159
C10W 0.0549 0.0431 0.054 0.004 -0.0021 0.0124
C5W 0.079 0.046 0.0506 0.0034 0.019 0.0035
C6W 0.0784 0.0387 0.0572 0.0017 0.0174 -0.0014
N2W 0.0614 0.0344 0.0453 0.004 0.0042 0.0152
O2W 0.073 0.0398 0.0457 -0.0036 -0.0034 0.0216
C12W 0.0827 0.0532 0.0531 0.0132 0.0207 0.0089
C9W 0.0802 0.0408 0.069 0.0028 0.0152 -0.0018
O1B 0.0591 0.0355 0.0384 -0.0172 -0.0116 0.0086
N1B 0.0417 0.0308 0.0317 -0.0104 -0.0077 0.0015
O3B 0.0578 0.0406 0.04 -0.0113 -0.0062 -0.0032
C1B 0.0389 0.0318 0.0329 -0.011 -0.0038 0.0058
C2B 0.0478 0.03 0.0296 -0.0062 -0.0069 0.0091
O4B 0.0593 0.0413 0.0417 -0.0116 0.007 0.0088
C3B 0.0539 0.034 0.037 -0.0075 0.0026 -0.0054
C4B 0.0525 0.0444 0.0314 -0.0091 0.0044 -0.0054
C7B 0.0546 0.0369 0.0444 -0.0066 0.0034 -0.0104
C8B 0.0552 0.0474 0.0361 -0.0106 0.0094 -0.0052
O2B 0.073 0.0398 0.0457 0.0036 -0.0034 -0.0216
O3J 0.0578 0.0406 0.04 0.0113 -0.0062 0.0032
O3K 0.0578 0.0406 0.04 0.0113 0.0062 -0.0032
O4Q 0.0593 0.0413 0.0417 -0.0116 -0.007 -0.0088
O4R 0.0593(9) 0.0413(7) 0.0417(7) -0.0116(6) 0.0070(7) 0.0088(7)
La1L 0.03655 0.0198 0.02147 0.00322 0 0
La1I 0.03655 0.0198 0.02147 -0.00322 0 0
La1W 0.03655 0.0198 0.02147 0.00322 0 0
La1T 0.03655 0.0198 0.02147 0.00322 0 0
La1P 0.03655 0.0198 0.02147 -0.00322 0 0
loop_
_geom_bond_atom_site_label_1
_geom_bond_atom_site_label_2
_geom_bond_site_symmetry_1
_geom_bond_site_symmetry_2
La1 O1 1_555 1_555
O1 N1 1_555 1_555
O2 La1 1_555 1_555
N1 C4 1_555 1_555
O3 C2 1_555 1_555
C1 C2 1_555 1_555
C2 O4 1_555 1_555
O4 La1I 1_555 1_555
N2 O2 1_555 1_555
C3 C1 1_555 1_555
H1 C3 1_555 1_555
C4 C3 1_555 1_555
H2 C4 1_555 1_555
C5 H3 1_555 1_555
C6 N2 1_555 1_555
H4 C6 1_555 1_555
C7 N1 1_555 1_555
H5 C7 1_555 1_555
C8 C1 1_555 1_555
H6 C8 1_555 1_555
C9 H7 1_555 1_555
C10 C5 1_555 1_555
C11 C10 1_555 1_555
H8 C11 1_555 1_555
H9 C11 1_555 1_555
C12 N2 1_555 1_555
H10 C12 1_555 1_555
S1 O5 1_555 1_555
O5 S1D 1_555 1_555
O6 S1 1_555 1_555
O7 S1 1_555 1_555
F1 F2 1_555 1_555
F2 S1 1_555 1_555
F3 S1 1_555 1_555
C13 S1 1_555 1_555
C11W C11 1_555 1_555
C10W C11W 1_555 1_555
C5W C10W 1_555 1_555
H3W C5W 1_555 1_555
C6W C5W 1_555 1_555
N2W C6W 1_555 1_555
O2W N2W 1_555 1_555
C12W N2W 1_555 1_555
C9W C10W 1_555 1_555
H7W C9W 1_555 1_555
H10W C12W 1_555 1_555
H4W C6W 1_555 1_555
H8W C11W 1_555 1_555
H9W C11W 1_555 1_555
S1D S1 1_555 1_555
O6D C13 1_555 1_555
F3D C13 1_555 1_555
O7D S1D 1_555 1_555
F2D C13 1_555 1_555
C13D S1 1_555 1_555
F1D F1 1_555 1_555
O1B La1 1_555 1_555
N1B O1B 1_555 1_555
O3B C2B 1_555 1_555
C1B C2B 1_555 1_555
C2B O4B 1_555 1_555
O4B La1P 1_555 1_555
C3B C1B 1_555 1_555
H1B C3B 1_555 1_555
C4B N1B 1_555 1_555
H2B C4B 1_555 1_555
C7B N1B 1_555 1_555
H5B C7B 1_555 1_555
C8B C1B 1_555 1_555
H6B C8B 1_555 1_555
O2B La1 1_555 1_555
O3J La1 1_555 1_555
O3K La1 1_555 1_555
O4Q La1 1_555 1_555
O4R La1 1_555 1_555
La1L O3 1_555 1_555
La1W O2W 1_555 1_555
La1T O3B 1_555 1_555
C5 C6 1_555 1_555
C7 C8 1_555 1_555
C9 C10 1_555 1_555
C9 C12 1_555 1_555
O6 F3 1_555 1_555
O6 C13D 1_555 1_555
O7 F2 1_555 1_555
F1 C13D 1_555 1_555
F1 C13 1_555 1_555
F2 C13D 1_555 1_555
F2 C13 1_555 1_555
F3 C13D 1_555 1_555
C13 S1D 1_555 1_555
C13 F1D 1_555 1_555
C13 C13D 1_555 1_555
C12W C9W 1_555 1_555
S1D O6D 1_555 1_555
S1D C13D 1_555 1_555
S1D F3D 1_555 1_555
S1D F2D 1_555 1_555
O6D F3D 1_555 1_555
O7D F2D 1_555 1_555
F2D F1D 1_555 1_555
F2D C13D 1_555 1_555
C13D F1D 1_555 1_555
C3B C4B 1_555 1_555
C7B C8B 1_555 1_555

#END
