
#######################################################################
#
#                 Cambridge Crystallographic Data Centre
#                                CCDC 
#
#######################################################################
#
# If this CIF has been generated from an entry in the Cambridge 
# Structural Database, then it will include bibliographic, chemical, 
# crystal, experimental, refinement or atomic coordinate data resulting 
# from the CCDC's data processing and validation procedures.
#
#######################################################################

data_MAPCUE
_chemical_formula_moiety         '(C21 H11 N1 O9 Tb1 1-)n'
_symmetry_cell_setting           monoclinic
_symmetry_space_group_name_H-M   'C 2/c'
_symmetry_Int_Tables_number      15
_space_group_name_Hall           '-C 2yc'
loop_
_symmetry_equiv_pos_site_id
_symmetry_equiv_pos_as_xyz
1 x,y,z
2 -x,y,1/2-z
3 1/2+x,1/2+y,z
4 1/2-x,1/2+y,1/2-z
5 -x,-y,-z
6 x,-y,1/2+z
7 1/2-x,1/2-y,-z
8 1/2+x,1/2-y,1/2+z
_cell_length_a                   19.6084(4)
_cell_length_b                   11.9016(3)
_cell_length_c                   21.9364(5)
_cell_angle_alpha                90
_cell_angle_beta                 97.186(2)
_cell_angle_gamma                90
_cell_volume                     5079.12
loop_
_atom_site_label
_atom_site_type_symbol
_atom_site_fract_x
_atom_site_fract_y
_atom_site_fract_z
_atom_site_U_iso_or_equiv
_atom_site_thermal_displace_type
Tb1 Tb 0.830757(8) 0.330838(14) 0.474263(7) 0.0087 Uani
O1 O 0.80021(11) 0.15739(17) 0.51471(9) 0.0121 Uani
O2 O 0.67796(11) 0.13537(18) 0.41949(9) 0.0115 Uani
O3 O 0.74268(11) 0.00212(19) 0.52434(10) 0.0184 Uani
O4 O 0.76697(11) 0.23539(19) 0.39205(9) 0.0143 Uani
C1 C 0.66408(17) 0.1744(3) 0.21109(14) 0.0152 Uani
H1 H 0.6505 0.2299 0.1808 0.0180 Uiso
O5 O 0.89518(6) 0.50763(9) 0.51326(5) 0.0200 Uani
H2 H 0.9292 0.4908 0.5413 0.0300 Uiso
H3 H 0.9118 0.5420 0.4832 0.0300 Uiso
O6 O 1.05228(6) -0.28004(9) 0.47769(6) 0.0195 Uani
O7 O 1.08600(7) -0.21778(9) 0.57034(6) 0.0224 Uani
C2 C 0.71848(7) 0.16747(9) 0.38192(7) 0.0129 Uani
O8 O 0.59540(7) 0.09071(9) 0.09798(6) 0.0186 Uani
C3 C 0.68855(6) -0.18282(9) 0.34566(5) 0.0194 Uani
H4 H 0.6493 -0.1962 0.3166 0.0230 Uiso
C4 C 0.92061(17) -0.1760(3) 0.47762(14) 0.0145 Uani
H5 H 0.9225 -0.2364 0.4496 0.0170 Uiso
O9 O 0.65282(14) -0.0704(2) 0.11425(10) 0.0229 Uani
C5 C 0.80073(16) -0.1364(3) 0.42918(13) 0.0131 Uani
C6 C 0.70080(15) 0.0109(3) 0.30168(13) 0.0129 Uani
C7 C 0.70320(16) 0.1253(3) 0.31697(13) 0.0131 Uani
C8 C 0.97711(16) -0.1535(3) 0.52218(14) 0.0133 Uani
N1 N 0.77696(14) -0.0549(2) 0.38954(12) 0.0146 Uani
C9 C 0.86133(16) -0.0176(3) 0.51470(14) 0.0130 Uani
C10 C 0.72289(17) -0.0779(3) 0.34791(13) 0.0144 Uani
C11 C 1.04178(17) -0.2221(3) 0.52357(14) 0.0152 Uani
C12 C 0.91787(17) 0.0045(3) 0.55822(14) 0.0168 Uani
H6 H 0.9171 0.0671 0.5850 0.0200 Uiso
C13 C 0.97525(18) -0.0647(3) 0.56244(15) 0.0193 Uani
H7 H 1.0131 -0.0510 0.5930 0.0230 Uiso
C14 C 0.63489(16) 0.0242(3) 0.13103(13) 0.0138 Uani
C15 C 0.68047(16) -0.0192(3) 0.24021(14) 0.0140 Uani
H8 H 0.6803 -0.0963 0.2290 0.0170 Uiso
C16 C 0.79766(17) 0.0515(3) 0.51725(13) 0.0143 Uani
C17 C 0.86182(16) -0.1092(3) 0.47482(14) 0.0145 Uani
C18 C 0.68729(17) 0.2061(3) 0.27073(14) 0.0164 Uani
H9 H 0.6925 0.2836 0.2806 0.0200 Uiso
C19 C 0.66058(16) 0.0605(3) 0.19545(14) 0.0144 Uani
C20 C 0.77108(17) -0.2436(3) 0.42885(14) 0.0165 Uani
H10 H 0.7898 -0.3000 0.4567 0.0200 Uiso
C21 C 0.71372(18) -0.2651(3) 0.38688(15) 0.0200 Uani
H11 H 0.6917 -0.3363 0.3865 0.0240 Uiso
Tb1C Tb 0.669243(8) -0.169162(14) 0.025737(7) 0.0087 Uani
Tb1D Tb 1.169243(8) -0.330838(14) 0.525737(7) 0.0087 Uani
Tb1F Tb 0.669243(8) 0.169162(14) 0.525737(7) 0.0087 Uani
O1F O 0.69979(11) 0.34261(17) 0.48529(9) 0.0121 Uani
O2F O 0.82204(11) 0.36463(18) 0.58051(9) 0.0115 Uani
O3F O 0.75732(11) 0.49788(19) 0.47566(10) 0.0184 Uani
O6D O 0.94772(6) 0.28004(9) 0.52231(6) 0.0195 Uani
O7D O 0.91400(7) 0.21778(9) 0.42966(6) 0.0224 Uani
O9C O 0.84718(14) 0.4296(2) 0.38575(10) 0.0229 Uani
loop_
_atom_site_aniso_label
_atom_site_aniso_U_11
_atom_site_aniso_U_22
_atom_site_aniso_U_33
_atom_site_aniso_U_23
_atom_site_aniso_U_13
_atom_site_aniso_U_12
Tb1 0.00972(10) 0.00653(10) 0.00955(10) 0.00029(6) 0.00030(6) 0.00173(6)
O1 0.0170(11) 0.0041(10) 0.0151(10) -0.0011(8) 0.0021(8) 0.0025(8)
O2 0.0124(10) 0.0099(10) 0.0129(10) -0.0005(8) 0.0038(8) -0.0001(8)
O3 0.0161(11) 0.0099(10) 0.0298(12) 0.0036(9) 0.0055(9) 0.0038(9)
O4 0.0162(11) 0.0134(11) 0.0128(9) -0.0022(8) 0.0003(8) -0.0059(8)
C1 0.0181(16) 0.0132(16) 0.0143(14) 0.0006(12) 0.0019(12) -0.0027(12)
O5 0.0254(13) 0.0163(12) 0.0171(10) 0.0036(9) -0.0024(9) -0.0063(10)
O6 0.0159(12) 0.0200(12) 0.0220(11) -0.0059(10) 0.0005(9) 0.0043(9)
O7 0.0162(12) 0.0326(14) 0.0176(11) -0.0039(10) -0.0015(9) 0.0124(10)
C2 0.0205(16) 0.0048(14) 0.0130(14) 0.0011(11) 0.0011(12) 0.0003(11)
O8 0.0248(13) 0.0155(11) 0.0148(10) -0.0010(9) -0.0002(9) 0.0047(9)
C3 0.0233(17) 0.0148(16) 0.0195(15) 0.0019(12) 0.0003(13) -0.0046(13)
C4 0.0169(16) 0.0111(15) 0.0155(14) -0.0006(11) 0.0024(12) 0.0029(11)
O9 0.0381(15) 0.0198(12) 0.0096(10) -0.0028(9) -0.0013(9) 0.0084(10)
C5 0.0159(15) 0.0124(15) 0.0114(13) -0.0012(11) 0.0034(11) 0.0022(12)
C6 0.0121(14) 0.0143(15) 0.0122(13) 0.0003(12) 0.0011(11) 0.0009(11)
C7 0.0130(15) 0.0162(15) 0.0095(13) -0.0027(12) -0.0004(11) -0.0027(11)
C8 0.0116(15) 0.0107(14) 0.0175(14) 0.0055(12) 0.0016(11) 0.0054(11)
N1 0.0166(13) 0.0096(13) 0.0172(12) -0.0013(10) 0.0006(10) 0.0027(10)
C9 0.0125(15) 0.0087(14) 0.0180(14) 0.0024(11) 0.0028(11) 0.0047(11)
C10 0.0177(15) 0.0124(15) 0.0130(13) -0.0020(12) 0.0011(11) 0.0018(12)
C11 0.0185(16) 0.0120(15) 0.0152(14) 0.0034(12) 0.0023(12) 0.0015(12)
C12 0.0197(16) 0.0107(15) 0.0201(14) -0.0030(12) 0.0025(12) -0.0003(12)
C13 0.0200(17) 0.0195(17) 0.0179(15) -0.0004(13) 0.0008(12) 0.0025(13)
C14 0.0155(15) 0.0136(15) 0.0124(13) 0.0002(11) 0.0017(11) -0.0012(11)
C15 0.0163(15) 0.0102(15) 0.0155(14) -0.0008(11) 0.0022(11) 0.0003(11)
C16 0.0192(16) 0.0114(15) 0.0117(13) 0.0019(11) 0.0001(11) 0.0046(12)
C17 0.0143(15) 0.0133(15) 0.0163(14) 0.0054(12) 0.0029(12) 0.0024(12)
C18 0.0195(16) 0.0124(15) 0.0171(15) -0.0004(12) 0.0014(12) -0.0047(12)
C19 0.0157(15) 0.0128(15) 0.0151(14) -0.0010(12) 0.0033(12) -0.0009(11)
C20 0.0206(17) 0.0134(15) 0.0156(14) 0.0015(12) 0.0032(12) 0.0041(12)
C21 0.0195(17) 0.0146(16) 0.0252(16) 0.0029(13) -0.0003(13) -0.0033(12)
Tb1C 0.00972 0.00653 0.00955 -0.00029 0.0003 -0.00173
Tb1D 0.00972 0.00653 0.00955 0.00029 0.0003 0.00173
Tb1F 0.00972 0.00653 0.00955 0.00029 0.0003 0.00173
O1F 0.017 0.0041 0.0151 -0.0011 0.0021 0.0025
O2F 0.0124 0.0099 0.0129 -0.0005 0.0038 -0.0001
O3F 0.0161 0.0099 0.0298 0.0036 0.0055 0.0038
O6D 0.0159 0.02 0.022 -0.0059 0.0005 0.0043
O7D 0.0162 0.0326 0.0176 -0.0039 -0.0015 0.0124
O9C 0.0381 0.0198 0.0096 0.0028 -0.0013 -0.0084
loop_
_geom_bond_atom_site_label_1
_geom_bond_atom_site_label_2
_geom_bond_site_symmetry_1
_geom_bond_site_symmetry_2
Tb1 O1 1_555 1_555
O1 C16 1_555 1_555
O2 C2 1_555 1_555
O3 C16 1_555 1_555
O4 Tb1 1_555 1_555
C1 H1 1_555 1_555
O5 Tb1 1_555 1_555
H2 O5 1_555 1_555
H3 O5 1_555 1_555
O6 C11 1_555 1_555
O7 C11 1_555 1_555
C2 O4 1_555 1_555
O8 C14 1_555 1_555
C3 H4 1_555 1_555
C4 H5 1_555 1_555
O9 C14 1_555 1_555
C5 N1 1_555 1_555
C6 C7 1_555 1_555
C7 C2 1_555 1_555
C8 C4 1_555 1_555
N1 C10 1_555 1_555
C9 C12 1_555 1_555
C10 C3 1_555 1_555
C11 C8 1_555 1_555
C12 H6 1_555 1_555
C13 C8 1_555 1_555
H7 C13 1_555 1_555
C14 C19 1_555 1_555
C15 C6 1_555 1_555
H8 C15 1_555 1_555
C16 C9 1_555 1_555
C17 C4 1_555 1_555
C18 C1 1_555 1_555
H9 C18 1_555 1_555
C19 C1 1_555 1_555
C20 C5 1_555 1_555
H10 C20 1_555 1_555
C21 C3 1_555 1_555
H11 C21 1_555 1_555
Tb1C O9 1_555 1_555
Tb1D O6 1_555 1_555
Tb1F O1 1_555 1_555
O1F Tb1 1_555 1_555
O2F Tb1 1_555 1_555
O3F Tb1 1_555 1_555
O6D Tb1 1_555 1_555
O7D Tb1 1_555 1_555
O9C Tb1 1_555 1_555
O2 Tb1F 1_555 1_555
O3 Tb1F 1_555 1_555
O7 Tb1D 1_555 1_555
C5 C17 1_555 1_555
C6 C10 1_555 1_555
C7 C18 1_555 1_555
C9 C17 1_555 1_555
C12 C13 1_555 1_555
C15 C19 1_555 1_555
C20 C21 1_555 1_555
Tb1F O1F 1_555 1_555

#END
