
#######################################################################
#
#                 Cambridge Crystallographic Data Centre
#                                CCDC 
#
#######################################################################
#
# If this CIF has been generated from an entry in the Cambridge 
# Structural Database, then it will include bibliographic, chemical, 
# crystal, experimental, refinement or atomic coordinate data resulting 
# from the CCDC's data processing and validation procedures.
#
#######################################################################

data_MAPLEX
_chemical_formula_moiety         '(C21 H11 Eu1 N1 O9 1-)n'
_symmetry_cell_setting           monoclinic
_symmetry_space_group_name_H-M   'C 2/c'
_symmetry_Int_Tables_number      15
_space_group_name_Hall           '-C 2yc'
loop_
_symmetry_equiv_pos_site_id
_symmetry_equiv_pos_as_xyz
1 x,y,z
2 -x,y,1/2-z
3 1/2+x,1/2+y,z
4 1/2-x,1/2+y,1/2-z
5 -x,-y,-z
6 x,-y,1/2+z
7 1/2-x,1/2-y,-z
8 1/2+x,1/2-y,1/2+z
_cell_length_a                   19.6675(3)
_cell_length_b                   11.9457(2)
_cell_length_c                   21.9773(4)
_cell_angle_alpha                90
_cell_angle_beta                 97.166(2)
_cell_angle_gamma                90
_cell_volume                     5123.06
loop_
_atom_site_label
_atom_site_type_symbol
_atom_site_fract_x
_atom_site_fract_y
_atom_site_fract_z
_atom_site_U_iso_or_equiv
_atom_site_thermal_displace_type
Eu1 Eu 0.331553(12) 0.32989(2) -0.025682(11) 0.0072 Uani
O1 O 0.30013(17) 0.1561(3) 0.01561(14) 0.0126 Uani
O2 O 0.17794(16) 0.1358(3) -0.08155(14) 0.0119 Uani
O3 O 0.24169(17) 0.0007(3) 0.02346(16) 0.0178 Uani
O4 O 0.26671(16) 0.2331(3) -0.10824(14) 0.0136 Uani
O5 O 0.55136(17) -0.2787(3) -0.02269(16) 0.0175 Uani
O6 O 0.39671(19) 0.5087(3) 0.01344(16) 0.0211 Uani
C1 C 0.1643(3) 0.1732(4) -0.2889(2) 0.0159 Uani
H1 H 0.1514 0.2286 -0.3192 0.0190 Uiso
O7 O 0.1515(2) -0.0712(3) -0.38567(15) 0.0210 Uani
O8 O 0.58393(19) -0.2151(4) 0.06972(16) 0.0245 Uani
C2 C 0.1883(3) -0.1816(4) -0.1545(2) 0.0196 Uani
H2 H 0.1491 -0.1944 -0.1835 0.0240 Uiso
O9 O 0.09562(19) 0.0907(3) -0.40171(15) 0.0179 Uani
C3 C 0.2184(2) 0.1665(4) -0.1186(2) 0.0111 Uani
C4 C 0.4761(2) -0.1527(4) 0.0210(2) 0.0131 Uani
C5 C 0.4201(3) -0.1750(4) -0.0230(2) 0.0139 Uani
H3 H 0.4223 -0.2349 -0.0511 0.0170 Uiso
N1 N 0.2768(2) -0.0549(3) -0.11077(18) 0.0128 Uani
C6 C 0.2998(2) -0.1363(4) -0.0716(2) 0.0130 Uani
C7 C 0.1344(2) 0.0244(4) -0.3692(2) 0.0130 Uani
C8 C 0.3591(2) -0.0186(4) 0.0139(2) 0.0129 Uani
C9 C 0.2035(2) 0.1239(4) -0.1837(2) 0.0125 Uani
C10 C 0.4163(3) 0.0044(4) 0.0570(2) 0.0162 Uani
H4 H 0.4158 0.0675 0.0833 0.0190 Uiso
C11 C 0.5403(3) -0.2204(4) 0.0227(2) 0.0152 Uani
C12 C 0.2011(2) 0.0105(4) -0.1988(2) 0.0122 Uani
C13 C 0.2225(3) -0.0786(4) -0.1526(2) 0.0151 Uani
C14 C 0.1801(2) -0.0203(4) -0.2598(2) 0.0139 Uani
H5 H 0.1794 -0.0972 -0.2709 0.0170 Uiso
C15 C 0.4736(3) -0.0646(4) 0.0616(2) 0.0160 Uani
H6 H 0.5111 -0.0512 0.0924 0.0200 Uiso
C16 C 0.1872(3) 0.2049(4) -0.2293(2) 0.0144 Uani
H7 H 0.1920 0.2821 -0.2193 0.0170 Uiso
C17 C 0.2967(2) 0.0495(4) 0.0170(2) 0.0124 Uani
C18 C 0.3605(2) -0.1091(4) -0.0258(2) 0.0132 Uani
C19 C 0.2128(2) -0.2644(4) -0.1135(2) 0.0173 Uani
H8 H 0.1907 -0.3351 -0.1138 0.0210 Uiso
C20 C 0.1602(2) 0.0603(4) -0.3045(2) 0.0140 Uani
C21 C 0.2700(3) -0.2424(4) -0.0719(2) 0.0172 Uani
H9 H 0.2888 -0.2986 -0.0441 0.0210 Uiso
Eu1C Eu 0.168447(12) -0.17011(2) -0.474318(11) 0.0072 Uani
Eu1D Eu 0.668447(12) -0.32989(2) 0.025682(11) 0.0072 Uani
Eu1F Eu 0.168447(12) 0.17011(2) 0.025682(11) 0.0072 Uani
O1F O 0.19987(17) 0.3439(3) -0.01561(14) 0.0126 Uani
O2F O 0.32206(16) 0.3642(3) 0.08155(14) 0.0119 Uani
O3F O 0.25831(17) 0.4993(3) -0.02346(16) 0.0178 Uani
O5D O 0.44864(17) 0.2787(3) 0.02269(16) 0.0175 Uani
O7C O 0.3485(2) 0.4288(3) -0.11433(15) 0.0210 Uani
O8D O 0.41607(19) 0.2151(4) -0.06972(16) 0.0245 Uani
loop_
_atom_site_aniso_label
_atom_site_aniso_U_11
_atom_site_aniso_U_22
_atom_site_aniso_U_33
_atom_site_aniso_U_23
_atom_site_aniso_U_13
_atom_site_aniso_U_12
Eu1 0.00736(14) 0.00725(14) 0.00716(13) 0.00029(9) 0.00108(8) 0.00176(10)
O1 0.0173(17) 0.0072(14) 0.0138(15) 0.0008(12) 0.0043(12) 0.0034(13)
O2 0.0092(15) 0.0144(15) 0.0133(15) -0.0010(12) 0.0064(12) 0.0003(13)
O3 0.0138(17) 0.0134(16) 0.0266(18) 0.0025(14) 0.0044(13) 0.0034(14)
O4 0.0078(15) 0.0188(17) 0.0136(15) -0.0023(13) -0.0006(12) -0.0058(13)
O5 0.0085(16) 0.0228(18) 0.0207(17) -0.0070(14) -0.0001(13) 0.0066(14)
O6 0.0266(19) 0.0181(17) 0.0186(17) 0.0016(14) 0.0028(14) -0.0052(15)
C1 0.022(3) 0.011(2) 0.015(2) 0.0027(18) 0.0031(18) -0.0014(19)
O7 0.031(2) 0.0201(18) 0.0117(16) -0.0005(14) 0.0019(14) 0.0108(16)
O8 0.0196(19) 0.039(2) 0.0142(16) -0.0068(15) -0.0005(14) 0.0120(17)
C2 0.022(3) 0.019(2) 0.017(2) 0.0016(19) -0.0007(19) -0.003(2)
O9 0.0246(19) 0.0162(17) 0.0127(15) 0.0007(13) 0.0011(13) 0.0046(14)
C3 0.0029(19) 0.011(2) 0.019(2) 0.0006(17) -0.0006(16) 0.0017(16)
C4 0.007(2) 0.015(2) 0.018(2) 0.0037(18) 0.0044(17) 0.0013(18)
C5 0.017(2) 0.013(2) 0.012(2) 0.0014(17) 0.0030(18) 0.0052(18)
N1 0.0095(18) 0.0137(19) 0.0153(18) -0.0008(15) 0.0020(14) 0.0035(15)
C6 0.013(2) 0.011(2) 0.016(2) -0.0002(18) 0.0055(17) 0.0041(18)
C7 0.011(2) 0.015(2) 0.014(2) 0.0015(18) 0.0052(17) -0.0027(18)
C8 0.011(2) 0.013(2) 0.016(2) 0.0030(17) 0.0066(17) 0.0017(18)
C9 0.012(2) 0.017(2) 0.009(2) 0.0004(18) 0.0028(16) -0.0036(18)
C10 0.018(2) 0.013(2) 0.018(2) -0.0019(18) 0.0035(18) 0.0034(19)
C11 0.018(2) 0.011(2) 0.017(2) 0.0043(18) 0.0038(18) 0.0022(19)
C12 0.0033(19) 0.018(2) 0.015(2) 0.0011(18) 0.0003(16) -0.0008(17)
C13 0.020(2) 0.014(2) 0.012(2) -0.0020(18) 0.0042(17) 0.0018(19)
C14 0.013(2) 0.014(2) 0.015(2) 0.0008(18) 0.0034(17) 0.0014(18)
C15 0.013(2) 0.017(2) 0.017(2) -0.0004(19) -0.0024(17) 0.0015(19)
C16 0.020(2) 0.012(2) 0.012(2) -0.0007(17) 0.0050(17) -0.0015(18)
C17 0.010(2) 0.015(2) 0.012(2) 0.0010(17) 0.0004(16) 0.0038(18)
C18 0.013(2) 0.012(2) 0.015(2) 0.0017(17) 0.0031(17) 0.0015(18)
C19 0.007(2) 0.018(2) 0.026(2) 0.001(2) -0.0015(18) -0.0043(18)
C20 0.014(2) 0.016(2) 0.012(2) -0.0004(17) 0.0018(17) 0.0006(18)
C21 0.023(3) 0.013(2) 0.016(2) 0.0028(18) 0.0042(19) 0.003(2)
Eu1C 0.00736 0.00725 0.00716 -0.00029 0.00108 -0.00176
Eu1D 0.00736 0.00725 0.00716 0.00029 0.00108 0.00176
Eu1F 0.00736 0.00725 0.00716 0.00029 0.00108 0.00176
O1F 0.0173 0.0072 0.0138 0.0008 0.0043 0.0034
O2F 0.0092 0.0144 0.0133 -0.001 0.0064 0.0003
O3F 0.0138 0.0134 0.0266 0.0025 0.0044 0.0034
O5D 0.0085 0.0228 0.0207 -0.007 -0.0001 0.0066
O7C 0.031 0.0201 0.0117 0.0005 0.0019 -0.0108
O8D 0.0196 0.039 0.0142 -0.0068 -0.0005 0.012
loop_
_geom_bond_atom_site_label_1
_geom_bond_atom_site_label_2
_geom_bond_site_symmetry_1
_geom_bond_site_symmetry_2
Eu1 O1 1_555 1_555
O1 C17 1_555 1_555
O2 C3 1_555 1_555
O3 C17 1_555 1_555
O4 Eu1 1_555 1_555
O5 C11 1_555 1_555
O6 Eu1 1_555 1_555
C1 H1 1_555 1_555
O7 C7 1_555 1_555
O8 C11 1_555 1_555
C2 H2 1_555 1_555
O9 C7 1_555 1_555
C3 O4 1_555 1_555
C4 C5 1_555 1_555
C5 H3 1_555 1_555
N1 C6 1_555 1_555
C6 C18 1_555 1_555
C7 C20 1_555 1_555
C8 C10 1_555 1_555
C9 C3 1_555 1_555
C10 H4 1_555 1_555
C11 C4 1_555 1_555
C12 C9 1_555 1_555
C13 C2 1_555 1_555
C14 C12 1_555 1_555
H5 C14 1_555 1_555
C15 C4 1_555 1_555
H6 C15 1_555 1_555
C16 C1 1_555 1_555
H7 C16 1_555 1_555
C17 C8 1_555 1_555
C18 C5 1_555 1_555
C19 C2 1_555 1_555
H8 C19 1_555 1_555
C20 C1 1_555 1_555
C21 C6 1_555 1_555
H9 C21 1_555 1_555
Eu1C O7 1_555 1_555
Eu1D O5 1_555 1_555
Eu1F O1 1_555 1_555
O1F Eu1 1_555 1_555
O2F Eu1 1_555 1_555
O3F Eu1 1_555 1_555
O5D Eu1 1_555 1_555
O7C Eu1 1_555 1_555
O8D Eu1 1_555 1_555
O2 Eu1F 1_555 1_555
O3 Eu1F 1_555 1_555
O8 Eu1D 1_555 1_555
N1 C13 1_555 1_555
C8 C18 1_555 1_555
C9 C16 1_555 1_555
C10 C15 1_555 1_555
C12 C13 1_555 1_555
C14 C20 1_555 1_555
C19 C21 1_555 1_555
Eu1F O1F 1_555 1_555

#END
