
#######################################################################
#
#                 Cambridge Crystallographic Data Centre
#                                CCDC 
#
#######################################################################
#
# If this CIF has been generated from an entry in the Cambridge 
# Structural Database, then it will include bibliographic, chemical, 
# crystal, experimental, refinement or atomic coordinate data resulting 
# from the CCDC's data processing and validation procedures.
#
#######################################################################

data_LARVIL
_chemical_formula_moiety         '(C5 H12 Cu2 I2 N2)n'
_symmetry_cell_setting           hexagonal
_symmetry_space_group_name_H-M   'P 62 2 2'
_symmetry_Int_Tables_number      180
_space_group_name_Hall           'P 62 2 (0 0 4)'
loop_
_symmetry_equiv_pos_site_id
_symmetry_equiv_pos_as_xyz
1 x,y,z
2 x-y,x,1/3+z
3 -y,x-y,2/3+z
4 -x,-y,z
5 -x+y,-x,1/3+z
6 y,-x+y,2/3+z
7 -y,-x,2/3-z
8 x-y,-y,-z
9 x,x-y,1/3-z
10 y,x,2/3-z
11 -x+y,y,-z
12 -x,-x+y,1/3-z
_cell_length_a                   18.120(3)
_cell_length_b                   18.120(3)
_cell_length_c                   7.5177(15)
_cell_angle_alpha                90
_cell_angle_beta                 90
_cell_angle_gamma                120
_cell_volume                     2137.63
loop_
_atom_site_label
_atom_site_type_symbol
_atom_site_fract_x
_atom_site_fract_y
_atom_site_fract_z
_atom_site_U_iso_or_equiv
_atom_site_thermal_displace_type
I1 I 0.46006(3) 0.35963(3) -0.37739(6) 0.0494 Uani
Cu1 Cu 0.47942(7) 0.41915(6) -0.03862(13) 0.0523 Uani
N1 N 0.4534(4) 0.3152(4) 0.1179(8) 0.0486 Uani
C1 C 0.3660(6) 0.2457(6) 0.0882(16) 0.0869 Uani
H1 H 0.3290 0.2679 0.1201 0.1040 Uiso
H2 H 0.3601 0.2361 -0.0392 0.1040 Uiso
C2 C 0.3308(13) 0.1654(6) 0.1667 0.1718 Uani
C3 C 0.5177(6) 0.2901(5) 0.1024(13) 0.0691 Uani
H3 H 0.5730 0.3415 0.1099 0.0830 Uiso
H4 H 0.5131 0.2671 -0.0161 0.0830 Uiso
I1F I 0.64037(3) 0.53994(3) 0.04406(6) 0.0494 Uani
I1I I 0.35963(3) 0.46006(3) 0.04406(6) 0.0494 Uani
I1C I 0.53994(3) 0.64037(3) -0.37739(6) 0.0494 Uani
Cu1F Cu 0.58085(6) 0.52058(7) -0.29471(13) 0.0523 Uani
Cu1I Cu 0.41915(6) 0.47942(7) -0.29471(13) 0.0523 Uani
Cu1H Cu 0.47942(7) 0.06027(9) 0.37195(13) 0.0523 Uani
Cu1C Cu 0.52058(7) 0.58085(6) -0.03862(13) 0.0523 Uani
N1H N 0.4534(4) 0.1382(6) 0.2154(8) 0.0486 Uani
N1F N 0.6848(4) 0.5466(4) -0.4512(8) 0.0486 Uani
C1H C 0.3660(6) 0.1203(8) 0.2451(16) 0.0869 Uani
H1H H 0.3290 0.0611 0.2132 0.1040 Uiso
H2H H 0.3601 0.1240 0.3725 0.1040 Uiso
C3H C 0.5177(6) 0.2276(8) 0.2309(13) 0.0691 Uani
H3H H 0.5730 0.2315 0.2234 0.0830 Uiso
H4H H 0.5131 0.2460 0.3494 0.0830 Uiso
loop_
_atom_site_aniso_label
_atom_site_aniso_U_11
_atom_site_aniso_U_22
_atom_site_aniso_U_33
_atom_site_aniso_U_23
_atom_site_aniso_U_13
_atom_site_aniso_U_12
I1 0.0578(3) 0.0561(3) 0.0414(2) -0.0151(2) -0.0055(2) 0.0338(3)
Cu1 0.0714(7) 0.0445(5) 0.0493(5) 0.0077(4) -0.0034(5) 0.0351(5)
N1 0.060(4) 0.039(3) 0.051(3) 0.008(3) -0.004(3) 0.028(3)
C1 0.057(5) 0.060(6) 0.126(9) 0.023(6) -0.016(6) 0.016(5)
C2 0.100(13) 0.074(7) 0.35(3) 0.099(14) 0.000 0.050(6)
C3 0.067(6) 0.043(4) 0.106(7) 0.033(4) 0.030(5) 0.034(4)
I1F 0.0561 0.0578 0.0414 -0.0055 -0.0151 0.0338
I1I 0.0561 0.0578 0.0414 0.0055 0.0151 0.0338
I1C 0.0578 0.0561 0.0414 0.0151 0.0055 0.0338
Cu1F 0.0445 0.0714 0.0493 -0.0034 0.0077 0.0351
Cu1I 0.0445 0.0714 0.0493 0.0034 -0.0077 0.0351
Cu1H 0.0714 0.0457 0.0493 0.0111 0.0034 0.0363
Cu1C 0.0714 0.0445 0.0493 -0.0077 0.0034 0.0351
N1H 0.06 0.043 0.051 0.012 0.004 0.032
N1F 0.039 0.06 0.051 -0.004 0.008 0.028
C1H 0.057 0.085 0.126 0.039 0.016 0.041
C3H 0.067 0.042 0.106 0.003 -0.03 0.033
loop_
_geom_bond_atom_site_label_1
_geom_bond_atom_site_label_2
_geom_bond_site_symmetry_1
_geom_bond_site_symmetry_2
I1 Cu1 1_555 1_555
Cu1 N1 1_555 1_555
N1 C1 1_555 1_555
C1 H1 1_555 1_555
H2 C1 1_555 1_555
C2 C1 1_555 1_555
C3 N1 1_555 1_555
H3 C3 1_555 1_555
H4 C3 1_555 1_555
I1F Cu1 1_555 1_555
I1I Cu1 1_555 1_555
I1C Cu1F 1_555 1_555
Cu1F I1 1_555 1_555
Cu1I I1 1_555 1_555
Cu1H N1H 1_555 1_555
Cu1C I1F 1_555 1_555
N1H C1H 1_555 1_555
N1F Cu1F 1_555 1_555
C1H C2 1_555 1_555
H1H C1H 1_555 1_555
H2H C1H 1_555 1_555
C3H C3 1_555 1_555
H3H C3H 1_555 1_555
H4H C3H 1_555 1_555
I1F Cu1F 1_555 1_555
I1I Cu1I 1_555 1_555
I1I Cu1C 1_555 1_555
I1C Cu1I 1_555 1_555
I1C Cu1C 1_555 1_555
N1H C3H 1_555 1_555

#END
