
#######################################################################
#
#                 Cambridge Crystallographic Data Centre
#                                CCDC 
#
#######################################################################
#
# If this CIF has been generated from an entry in the Cambridge 
# Structural Database, then it will include bibliographic, chemical, 
# crystal, experimental, refinement or atomic coordinate data resulting 
# from the CCDC's data processing and validation procedures.
#
#######################################################################

data_FUNLAD
_chemical_formula_moiety         '(C63 H49 N3 O10 Zn2)n'
_symmetry_cell_setting           monoclinic
_symmetry_space_group_name_H-M   'C 2/c'
_symmetry_Int_Tables_number      15
_space_group_name_Hall           '-C 2yc'
loop_
_symmetry_equiv_pos_site_id
_symmetry_equiv_pos_as_xyz
1 x,y,z
2 -x,y,1/2-z
3 1/2+x,1/2+y,z
4 1/2-x,1/2+y,1/2-z
5 -x,-y,-z
6 x,-y,1/2+z
7 1/2-x,1/2-y,-z
8 1/2+x,1/2-y,1/2+z
_cell_length_a                   15.084(13)
_cell_length_b                   27.43(2)
_cell_length_c                   15.799(13)
_cell_angle_alpha                90
_cell_angle_beta                 95.447(14)
_cell_angle_gamma                90
_cell_volume                     6507.38
loop_
_atom_site_label
_atom_site_type_symbol
_atom_site_fract_x
_atom_site_fract_y
_atom_site_fract_z
Zn1 Zn 0.06349(3) 0.503730(15) 0.43543(3)
O1 O 0.1040(2) 0.44027(11) 0.4942(2)
O2 O 0.0083(2) 0.43500(12) 0.5926(2)
O3 O 0.3742(2) 0.03909(13) 0.9625(2)
O4 O 0.4706(2) 0.03619(12) 0.8652(2)
N1 N 0.1597(3) 0.50962(15) 0.3554(2)
C1 C 0.0715(3) 0.41920(16) 0.5543(3)
C2 C 0.1121(3) 0.37153(16) 0.5827(3)
C3 C 0.0802(4) 0.3464(2) 0.6496(4)
H1 H 0.0321 0.3594 0.6772
C4 C 0.1182(5) 0.3025(2) 0.6764(4)
H2 H 0.0966 0.2857 0.7229
C5 C 0.1882(4) 0.2826(2) 0.6353(4)
C6 C 0.2189(4) 0.3084(2) 0.5694(4)
H3 H 0.2675 0.2958 0.5420
C7 C 0.1811(4) 0.35165(18) 0.5424(4)
H4 H 0.2025 0.3682 0.4956
C8 C 0.2318(4) 0.2361(2) 0.6627(4)
H5 H 0.2833 0.2269 0.6363
C9 C 0.2053(4) 0.2070(2) 0.7199(4)
H6 H 0.1502 0.2147 0.7413
C10 C 0.2519(4) 0.1630(2) 0.7553(4)
C11 C 0.2249(4) 0.1448(2) 0.8298(4)
H7 H 0.1735 0.1578 0.8520
C12 C 0.2717(3) 0.10806(19) 0.8722(4)
H8 H 0.2530 0.0964 0.9243
C13 C 0.3462(3) 0.08744(16) 0.8406(3)
C14 C 0.3703(3) 0.10342(18) 0.7629(3)
H9 H 0.4189 0.0885 0.7388
C15 C 0.3240(4) 0.1410(2) 0.7201(4)
H10 H 0.3410 0.1519 0.6670
C16 C 0.4009(3) 0.05120(16) 0.8933(3)
C17 C 0.2356(4) 0.4857(3) 0.3760(4)
H11 H 0.2421 0.4677 0.4277
C18 C 0.3051(4) 0.4859(3) 0.3252(4)
H12 H 0.3592 0.4696 0.3429
C19 C 0.2948(4) 0.5103(2) 0.2478(4)
C20 C 0.2136(3) 0.52985(19) 0.2241(3)
H13 H 0.2018 0.5445 0.1697
C21 C 0.1486(3) 0.52826(18) 0.2790(3)
H14 H 0.0920 0.5415 0.2604
C22 C 0.3680(4) 0.5072(3) 0.1917(4)
H15 H 0.4269 0.5042 0.2185
C23 C 0.3591(4) 0.50828(18) 0.1113(4)
H16 H 0.3005 0.5123 0.0845
C24 C 0.4319(3) 0.50380(18) 0.0554(3)
C25 C 0.4472(3) 0.54211(19) 0.0004(3)
C26 C 0.5157(3) 0.53810(19) -0.0566(3)
C27 C 0.5289(4) 0.5789(2) -0.1101(4)
H17 H 0.5755 0.5778 -0.1464
C28 C 0.4773(4) 0.6189(2) -0.1106(4)
H18 H 0.4864 0.6448 -0.1487
C29 C 0.4091(5) 0.6227(2) -0.0545(5)
H19 H 0.3729 0.6511 -0.0553
C30 C 0.3961(4) 0.5860(2) -0.0004(4)
H20 H 0.3519 0.5894 0.0383
N1D N 0.8403(3) 0.49038(15) -0.3554(2)
C17D C 0.7644(4) 0.5143(3) -0.3760(4)
H11D H 0.7579 0.5323 -0.4277
C18D C 0.6949(4) 0.5141(3) -0.3252(4)
H12D H 0.6408 0.5304 -0.3429
C19D C 0.7052(4) 0.4897(2) -0.2478(4)
C20D C 0.7864(3) 0.47015(19) -0.2241(3)
H13D H 0.7982 0.4555 -0.1697
C21D C 0.8514(3) 0.47174(18) -0.2790(3)
H14D H 0.9080 0.4585 -0.2604
C22D C 0.6320(4) 0.4928(3) -0.1917(4)
H15D H 0.5731 0.4958 -0.2185
C23D C 0.6409(4) 0.49172(18) -0.1113(4)
H16D H 0.6995 0.4877 -0.0845
C24D C 0.5681(3) 0.49620(18) -0.0554(3)
C25D C 0.5528(3) 0.45789(19) -0.0004(3)
C26D C 0.4843(3) 0.46190(19) 0.0566(3)
C27D C 0.4711(4) 0.4211(2) 0.1101(4)
H17D H 0.4245 0.4222 0.1464
C28D C 0.5227(4) 0.3811(2) 0.1106(4)
H18D H 0.5136 0.3552 0.1487
C29D C 0.5909(5) 0.3773(2) 0.0545(5)
H19D H 0.6271 0.3489 0.0553
C30D C 0.6039(4) 0.4140(2) 0.0004(4)
H20D H 0.6481 0.4106 -0.0383
Zn1D Zn -0.06349(3) 0.496270(15) 0.56457(3)
O1D O -0.1040(2) 0.55973(11) 0.5058(2)
O2D O -0.0083(2) 0.56500(12) 0.4074(2)
O3D O -0.3742(2) 0.96091(13) 0.0375(2)
O4D O -0.4706(2) 0.96381(12) 0.1348(2)
C1D C -0.0715(3) 0.58080(16) 0.4457(3)
C2D C -0.1121(3) 0.62847(16) 0.4173(3)
C3D C -0.0802(4) 0.6536(2) 0.3504(4)
H1D H -0.0321 0.6406 0.3228
C4D C -0.1182(5) 0.6975(2) 0.3236(4)
H2D H -0.0966 0.7143 0.2771
C5D C -0.1882(4) 0.7174(2) 0.3647(4)
C6D C -0.2189(4) 0.6916(2) 0.4306(4)
H3D H -0.2675 0.7042 0.4580
C7D C -0.1811(4) 0.64835(18) 0.4576(4)
H4D H -0.2025 0.6318 0.5044
C8D C -0.2318(4) 0.7639(2) 0.3373(4)
H5D H -0.2833 0.7731 0.3637
C9D C -0.2053(4) 0.7930(2) 0.2801(4)
H6D H -0.1502 0.7853 0.2587
C10D C -0.2519(4) 0.8370(2) 0.2447(4)
C11D C -0.2249(4) 0.8552(2) 0.1702(4)
H7D H -0.1735 0.8422 0.1480
C12D C -0.2717(3) 0.89194(19) 0.1278(4)
H8D H -0.2530 0.9036 0.0757
C13D C -0.3462(3) 0.91256(16) 0.1594(3)
C14D C -0.3703(3) 0.89658(18) 0.2371(3)
H9D H -0.4189 0.9115 0.2612
C15D C -0.3240(4) 0.8590(2) 0.2799(4)
H10D H -0.3410 0.8481 0.3330
C16D C -0.4009(3) 0.94880(16) 0.1067(3)
Zn1C Zn -0.56349(3) 1.003730(15) 0.06457(3)
Zn1C_2 Zn 0.43651(3) 0.003730(15) 1.06457(3)
Zn1D_2 Zn 0.93651(3) 0.496270(15) -0.43543(3)
Zn1G Zn -0.43651(3) 0.996270(15) -0.06457(3)
Zn1G_2 Zn 0.56349(3) -0.003730(15) 0.93543(3)
O3C O 0.1258(2) 0.53909(13) 0.5375(2)
O3G O -0.1258(2) 0.46091(13) 0.4625(2)
O4C O 0.0294(2) 0.53619(12) 0.6348(2)
O4G O -0.0294(2) 0.46381(12) 0.3652(2)
N1D_2 N -0.1597(3) 0.49038(15) 0.6446(2)
O5 O 0.4372(8) 0.2662(3) 1.1317(7)
C31 C 0.4542(13) 0.2505(5) 1.0673(12)
H21 H 0.4956 0.2696 1.0399
N2 N 0.4259(9) 0.2098(5) 1.0234(9)
C32 C 0.4551(9) 0.1954(4) 0.9371(9)
H22 H 0.4919 0.2214 0.9162
H23 H 0.4025 0.1903 0.8968
H24 H 0.4898 0.1651 0.9429
C33 C 0.3609(16) 0.1793(8) 1.0629(14)
H25 H 0.3019 0.1944 1.0541
H26 H 0.3787 0.1764 1.1240
H27 H 0.3589 0.1469 1.0369
O11 O 0.5534(14) 0.2897(8) 0.8836(14)
loop_
_geom_bond_atom_site_label_1
_geom_bond_atom_site_label_2
_geom_bond_site_symmetry_1
_geom_bond_site_symmetry_2
Zn1 O1 1_555 1_555
O1 C1 1_555 1_555
O2 C1 1_555 1_555
O3 C16 1_555 1_555
O4 C16 1_555 1_555
N1 Zn1 1_555 1_555
C1 C2 1_555 1_555
C2 C3 1_555 1_555
C3 H1 1_555 1_555
C4 C3 1_555 1_555
H2 C4 1_555 1_555
C5 C4 1_555 1_555
C6 C5 1_555 1_555
H3 C6 1_555 1_555
C7 C2 1_555 1_555
H4 C7 1_555 1_555
C8 C5 1_555 1_555
H5 C8 1_555 1_555
C9 C8 1_555 1_555
H6 C9 1_555 1_555
C10 C9 1_555 1_555
C11 C10 1_555 1_555
H7 C11 1_555 1_555
C12 C11 1_555 1_555
H8 C12 1_555 1_555
C13 C12 1_555 1_555
C14 C13 1_555 1_555
H9 C14 1_555 1_555
C15 C10 1_555 1_555
H10 C15 1_555 1_555
C16 C13 1_555 1_555
C17 N1 1_555 1_555
H11 C17 1_555 1_555
C18 C17 1_555 1_555
H12 C18 1_555 1_555
C19 C18 1_555 1_555
C20 C19 1_555 1_555
H13 C20 1_555 1_555
C21 N1 1_555 1_555
H14 C21 1_555 1_555
C22 C19 1_555 1_555
H15 C22 1_555 1_555
C23 C22 1_555 1_555
H16 C23 1_555 1_555
C24 C23 1_555 1_555
C25 C24 1_555 1_555
C26 C25 1_555 1_555
C27 C26 1_555 1_555
H17 C27 1_555 1_555
C28 C27 1_555 1_555
H18 C28 1_555 1_555
C29 C28 1_555 1_555
H19 C29 1_555 1_555
C30 C25 1_555 1_555
H20 C30 1_555 1_555
O5 C31 1_555 1_555
C31 H21 1_555 1_555
N2 C31 1_555 1_555
C32 N2 1_555 1_555
H22 C32 1_555 1_555
H23 C32 1_555 1_555
H24 C32 1_555 1_555
C33 N2 1_555 1_555
H25 C33 1_555 1_555
H26 C33 1_555 1_555
H27 C33 1_555 1_555
N1D C17D 1_555 1_555
C17D H11D 1_555 1_555
C18D C17D 1_555 1_555
H12D C18D 1_555 1_555
C19D C18D 1_555 1_555
C20D C19D 1_555 1_555
H13D C20D 1_555 1_555
C21D N1D 1_555 1_555
H14D C21D 1_555 1_555
C22D C19D 1_555 1_555
H15D C22D 1_555 1_555
C23D C22D 1_555 1_555
H16D C23D 1_555 1_555
C24D C26 1_555 1_555
C25D C24D 1_555 1_555
C26D C24 1_555 1_555
C27D C26D 1_555 1_555
H17D C27D 1_555 1_555
C28D C27D 1_555 1_555
H18D C28D 1_555 1_555
C29D C28D 1_555 1_555
H19D C29D 1_555 1_555
C30D C25D 1_555 1_555
H20D C30D 1_555 1_555
Zn1D O2 1_555 1_555
O1D Zn1D 1_555 1_555
O2D Zn1 1_555 1_555
O3D C16D 1_555 1_555
O4D C16D 1_555 1_555
C1D O1D 1_555 1_555
C2D C1D 1_555 1_555
C3D C2D 1_555 1_555
H1D C3D 1_555 1_555
C4D C3D 1_555 1_555
H2D C4D 1_555 1_555
C5D C4D 1_555 1_555
C6D C5D 1_555 1_555
H3D C6D 1_555 1_555
C7D C2D 1_555 1_555
H4D C7D 1_555 1_555
C8D C5D 1_555 1_555
H5D C8D 1_555 1_555
C9D C8D 1_555 1_555
H6D C9D 1_555 1_555
C10D C9D 1_555 1_555
C11D C10D 1_555 1_555
H7D C11D 1_555 1_555
C12D C11D 1_555 1_555
H8D C12D 1_555 1_555
C13D C12D 1_555 1_555
C14D C13D 1_555 1_555
H9D C14D 1_555 1_555
C15D C10D 1_555 1_555
H10D C15D 1_555 1_555
C16D C13D 1_555 1_555
Zn1C O4D 1_555 1_555
Zn1C_2 O3 1_555 1_555
Zn1D_2 N1D 1_555 1_555
Zn1G O3D 1_555 1_555
Zn1G_2 O4 1_555 1_555
O3C Zn1 1_555 1_555
O3G Zn1D 1_555 1_555
O4C Zn1D 1_555 1_555
O4G Zn1 1_555 1_555
N1D_2 Zn1D 1_555 1_555
C6 C7 1_555 1_555
C14 C15 1_555 1_555
C20 C21 1_555 1_555
C29 C30 1_555 1_555
C20D C21D 1_555 1_555
C23D C24D 1_555 1_555
C25D C26D 1_555 1_555
C29D C30D 1_555 1_555
O2D C1D 1_555 1_555
C6D C7D 1_555 1_555
C14D C15D 1_555 1_555

#END
