
#######################################################################
#
#                 Cambridge Crystallographic Data Centre
#                                CCDC 
#
#######################################################################
#
# If this CIF has been generated from an entry in the Cambridge 
# Structural Database, then it will include bibliographic, chemical, 
# crystal, experimental, refinement or atomic coordinate data resulting 
# from the CCDC's data processing and validation procedures.
#
#######################################################################

data_NAWWUG
_chemical_formula_moiety         '(C30 H22 N6 Ni3 O14)n'
_symmetry_cell_setting           monoclinic
_symmetry_space_group_name_H-M   'P 2/c'
_symmetry_Int_Tables_number      13
_space_group_name_Hall           '-P 2yc'
loop_
_symmetry_equiv_pos_site_id
_symmetry_equiv_pos_as_xyz
1 x,y,z
2 -x,y,1/2-z
3 -x,-y,-z
4 x,-y,1/2+z
_cell_length_a                   20.395(4)
_cell_length_b                   6.9410(14)
_cell_length_c                   20.070(4)
_cell_angle_alpha                90
_cell_angle_beta                 119.18(3)
_cell_angle_gamma                90
_cell_volume                     2480.58
loop_
_atom_site_label
_atom_site_type_symbol
_atom_site_fract_x
_atom_site_fract_y
_atom_site_fract_z
Ni1 Ni 0.42071(6) 0.51044(14) 0.13041(5)
Ni2 Ni 0.0000 0.4023(2) 0.2500
O1 O 0.4340(3) 0.4888(7) 0.5329(3)
O2 O 0.3218(3) 0.4842(8) 0.5211(3)
C1 C 0.3648(5) 0.4848(11) 0.4912(4)
C2 C 0.3314(5) 0.4825(10) 0.4051(5)
C3 C 0.3781(4) 0.4932(10) 0.3743(4)
H1 H 0.4310 0.5009 0.4062
C4 C 0.2559(4) 0.4650(9) 0.3613(4)
H2 H 0.2255 0.4557 0.3850
O3 O 0.3646(3) 0.5067(7) 0.1882(3)
O4 O 0.4652(3) 0.5114(8) 0.3035(3)
O5 O 0.1069(3) 0.4040(9) 0.2753(3)
O6 O 0.1054(3) 0.4577(12) 0.1657(3)
C5 C 0.3972(4) 0.5053(10) 0.2613(4)
C6 C 0.3466(4) 0.4927(10) 0.2951(5)
C7 C 0.2687(4) 0.4766(9) 0.2491(5)
H3 H 0.2476 0.4767 0.1951
C8 C 0.2217(4) 0.4603(10) 0.2810(4)
C9 C 0.1392(5) 0.4396(11) 0.2373(4)
C10 C 0.4799(6) 0.1078(13) 0.1421(8)
H4 H 0.5237 0.1744 0.1497
N1 N 0.4196(3) 0.2112(11) 0.1311(3)
N2 N 0.4211(3) -0.1941(12) 0.1324(3)
C11 C 0.4807(7) -0.0855(16) 0.1429(8)
H5 H 0.5252 -0.1494 0.1511
C12 C 0.3635(5) -0.0864(14) 0.1268(6)
H6 H 0.3209 -0.1510 0.1234
C13 C 0.3631(5) 0.1065(13) 0.1257(6)
H7 H 0.3199 0.1715 0.1207
N3 N 0.0000 0.1002(14) 0.2500
N4 N 0.0000 -0.3071(13) 0.2500
C14 C 0.0554(5) 0.0021(12) 0.3077(5)
H8 H 0.0950 0.0683 0.3493
C15 C 0.0536(4) -0.1988(13) 0.3056(4)
H9 H 0.0936 -0.2649 0.3468
O7 O 0.0376(3) 0.3921(9) 0.3660(3)
H10 H 0.003(4) 0.424(15) 0.376(6)
H11 H 0.075(4) 0.445(13) 0.403(4)
C14A C -0.0554(5) 0.0021(12) 0.1923(5)
H8A H -0.0950 0.0683 0.1507
C15A C -0.0536(4) -0.1988(13) 0.1944(4)
H9A H -0.0936 -0.2649 0.1532
Ni1A Ni -0.42071(6) 0.51044(14) 0.36959(5)
O1A O -0.4340(3) 0.4888(7) -0.0329(3)
O2A O -0.3218(3) 0.4842(8) -0.0211(3)
C1A C -0.3648(5) 0.4848(11) 0.0088(4)
C2A C -0.3314(5) 0.4825(10) 0.0949(5)
C3A C -0.3781(4) 0.4932(10) 0.1257(4)
H1A H -0.4310 0.5009 0.0938
C4A C -0.2559(4) 0.4650(9) 0.1387(4)
H2A H -0.2255 0.4557 0.1150
O3A O -0.3646(3) 0.5067(7) 0.3118(3)
O4A O -0.4652(3) 0.5114(8) 0.1965(3)
O5A O -0.1069(3) 0.4040(9) 0.2247(3)
O6A O -0.1054(3) 0.4577(12) 0.3343(3)
C5A C -0.3972(4) 0.5053(10) 0.2387(4)
C6A C -0.3466(4) 0.4927(10) 0.2049(5)
C7A C -0.2687(4) 0.4766(9) 0.2509(5)
H3A H -0.2476 0.4767 0.3049
C8A C -0.2217(4) 0.4603(10) 0.2190(4)
C9A C -0.1392(5) 0.4396(11) 0.2627(4)
C10A C -0.4799(6) 0.1078(13) 0.3579(8)
H4A H -0.5237 0.1744 0.3503
N1A N -0.4196(3) 0.2112(11) 0.3689(3)
N2A N -0.4211(3) -0.1941(12) 0.3676(3)
C11A C -0.4807(7) -0.0855(16) 0.3571(8)
H5A H -0.5252 -0.1494 0.3489
C12A C -0.3635(5) -0.0864(14) 0.3732(6)
H6A H -0.3209 -0.1510 0.3766
C13A C -0.3631(5) 0.1065(13) 0.3743(6)
H7A H -0.3199 0.1715 0.3793
O7A O -0.0376(3) 0.3921(9) 0.1340(3)
H10A H -0.003(4) 0.424(15) 0.124(6)
H11A H -0.075(4) 0.445(13) 0.097(4)
Ni1_2 Ni -0.57929(6) 0.51044(14) 0.13041(5)
Ni1_3 Ni 0.42071(6) -0.48956(14) 0.13041(5)
Ni1A_2 Ni -0.42071(6) -0.48956(14) 0.36959(5)
Ni1A_3 Ni 0.57929(6) 0.51044(14) 0.36959(5)
Ni1B Ni -0.42071(6) 0.48956(14) -0.13041(5)
Ni1C Ni 0.42071(6) 0.48956(14) 0.63041(5)
Ni2_2 Ni 0.0000 -0.5977(2) 0.2500
O1B O -0.4340(3) 0.5112(7) 0.4671(3)
O1C O 0.4340(3) 0.5112(7) 0.0329(3)
O2B O -0.3218(3) 0.5158(8) 0.4789(3)
O2C O 0.3218(3) 0.5158(8) 0.0211(3)
O4_2 O -0.5348(3) 0.5114(8) 0.3035(3)
O4A_2 O 0.5348(3) 0.5114(8) 0.1965(3)
N2_2 N 0.4211(3) 0.8059(12) 0.1324(3)
N2A_2 N -0.4211(3) 0.8059(12) 0.3676(3)
N4_2 N 0.0000 0.6929(13) 0.2500
loop_
_geom_bond_atom_site_label_1
_geom_bond_atom_site_label_2
_geom_bond_site_symmetry_1
_geom_bond_site_symmetry_2
Ni1 O3 1_555 1_555
Ni2 O5 1_555 1_555
O1 C1 1_555 1_555
O2 C1 1_555 1_555
C1 C2 1_555 1_555
C2 C3 1_555 1_555
C3 H1 1_555 1_555
C4 C2 1_555 1_555
H2 C4 1_555 1_555
O3 C5 1_555 1_555
O4 C5 1_555 1_555
O5 C9 1_555 1_555
O6 C9 1_555 1_555
C5 C6 1_555 1_555
C6 C3 1_555 1_555
C7 C6 1_555 1_555
H3 C7 1_555 1_555
C8 C4 1_555 1_555
C9 C8 1_555 1_555
C10 H4 1_555 1_555
N1 Ni1 1_555 1_555
N2 C11 1_555 1_555
C11 C10 1_555 1_555
H5 C11 1_555 1_555
C12 N2 1_555 1_555
H6 C12 1_555 1_555
C13 N1 1_555 1_555
H7 C13 1_555 1_555
N3 Ni2 1_555 1_555
N4 C15 1_555 1_555
C14 N3 1_555 1_555
H8 C14 1_555 1_555
C15 C14 1_555 1_555
H9 C15 1_555 1_555
O7 Ni2 1_555 1_555
H10 O7 1_555 1_555
H11 O7 1_555 1_555
C14A N3 1_555 1_555
H8A C14A 1_555 1_555
C15A N4 1_555 1_555
H9A C15A 1_555 1_555
Ni1A O3A 1_555 1_555
O1A C1A 1_555 1_555
O2A C1A 1_555 1_555
C1A C2A 1_555 1_555
C2A C3A 1_555 1_555
C3A H1A 1_555 1_555
C4A C2A 1_555 1_555
H2A C4A 1_555 1_555
O3A C5A 1_555 1_555
O4A C5A 1_555 1_555
O5A Ni2 1_555 1_555
O6A C9A 1_555 1_555
C5A C6A 1_555 1_555
C6A C3A 1_555 1_555
C7A C6A 1_555 1_555
H3A C7A 1_555 1_555
C8A C4A 1_555 1_555
C9A O5A 1_555 1_555
C10A H4A 1_555 1_555
N1A Ni1A 1_555 1_555
N2A C11A 1_555 1_555
C11A C10A 1_555 1_555
H5A C11A 1_555 1_555
C12A N2A 1_555 1_555
H6A C12A 1_555 1_555
C13A N1A 1_555 1_555
H7A C13A 1_555 1_555
O7A Ni2 1_555 1_555
H10A O7A 1_555 1_555
H11A O7A 1_555 1_555
Ni1_2 O4A 1_555 1_555
Ni1_3 N2 1_555 1_555
Ni1A_2 N2A 1_555 1_555
Ni1A_3 O4 1_555 1_555
Ni1B O1A 1_555 1_555
Ni1C O1 1_555 1_555
Ni2_2 N4 1_555 1_555
O1B Ni1A 1_555 1_555
O1C Ni1 1_555 1_555
O2B Ni1A 1_555 1_555
O2C Ni1 1_555 1_555
O4_2 Ni1A 1_555 1_555
O4A_2 Ni1 1_555 1_555
N2_2 Ni1 1_555 1_555
N2A_2 Ni1A 1_555 1_555
N4_2 Ni2 1_555 1_555
O2 Ni1C 1_555 1_555
C7 C8 1_555 1_555
C10 N1 1_555 1_555
C12 C13 1_555 1_555
C14A C15A 1_555 1_555
O2A Ni1B 1_555 1_555
C7A C8A 1_555 1_555
C8A C9A 1_555 1_555
C10A N1A 1_555 1_555
C12A C13A 1_555 1_555

#END
