
#######################################################################
#
#                 Cambridge Crystallographic Data Centre
#                                CCDC 
#
#######################################################################
#
# If this CIF has been generated from an entry in the Cambridge 
# Structural Database, then it will include bibliographic, chemical, 
# crystal, experimental, refinement or atomic coordinate data resulting 
# from the CCDC's data processing and validation procedures.
#
#######################################################################

data_ROSKER
_chemical_formula_moiety         '(C12 H20 Mn2 N10 O10 W1)n'
_symmetry_cell_setting           orthorhombic
_symmetry_space_group_name_H-M   'P n m a'
_symmetry_Int_Tables_number      62
_space_group_name_Hall           '-P 2ac 2n'
loop_
_symmetry_equiv_pos_site_id
_symmetry_equiv_pos_as_xyz
1 x,y,z
2 1/2-x,-y,1/2+z
3 1/2+x,1/2-y,1/2-z
4 -x,1/2+y,-z
5 -x,-y,-z
6 1/2+x,y,1/2-z
7 1/2-x,1/2+y,1/2+z
8 x,1/2-y,z
_cell_length_a                   11.3416(1)
_cell_length_b                   15.1979(1)
_cell_length_c                   14.7404(1)
_cell_angle_alpha                90
_cell_angle_beta                 90
_cell_angle_gamma                90
_cell_volume                     2540.78
loop_
_atom_site_label
_atom_site_type_symbol
_atom_site_fract_x
_atom_site_fract_y
_atom_site_fract_z
_atom_site_U_iso_or_equiv
_atom_site_thermal_displace_type
W1 W 0.367282(9) 0.75000 0.952999(6) 0.0130 Uani
C1 C 0.1834(3) 0.75000 0.9941(2) 0.0255 Uani
N1 N 0.0865(3) 0.75000 1.0172(3) 0.0482 Uani
C2 C 0.2853(2) 0.66404(14) 0.85443(14) 0.0208 Uani
N2 N 0.2444(2) 0.61824(14) 0.80034(15) 0.0288 Uani
C3 C 0.5081(3) 0.75000 1.0522(2) 0.0260 Uani
N3 N 0.5825(4) 0.75000 1.1050(3) 0.0483 Uani
C4 C 0.49900(19) 0.66360(14) 0.89594(14) 0.0206 Uani
N4 N 0.5693(2) 0.61669(14) 0.86688(15) 0.0282 Uani
C5 C 0.3436(2) 0.63804(15) 1.04080(14) 0.0211 Uani
N5 N 0.3339(2) 0.57799(15) 1.08818(16) 0.0308 Uani
Mn1 Mn 0.19392(3) 0.52249(2) 0.69358(2) 0.0193 Uani
O1 O 0.3488(2) 0.57490(13) 0.61481(17) 0.0357 Uani
N6 N 0.35884(18) 0.66052(15) 0.60812(17) 0.0270 Uani
C6 C 0.4313(2) 0.70502(18) 0.66517(18) 0.0293 Uani
H1 H 0.4809 0.6744 0.7042 0.0350 Uiso
C7 C 0.2952(3) 0.70470(19) 0.54571(17) 0.0300 Uani
H2 H 0.2514 0.674 0.5027 0.0360 Uiso
O2 O 0.3226(2) 0.42840(14) 0.75058(17) 0.0377 Uani
O3 O 0.0631(2) 0.46929(19) 0.78736(17) 0.0465 Uani
O1G O 0.3488(2) 0.92510(13) 0.61481(17) 0.0357 Uani
N6G N 0.35884(18) 0.83948(15) 0.60812(17) 0.0270 Uani
C6G C 0.4313(2) 0.79498(18) 0.66517(18) 0.0293 Uani
H1G H 0.4809 0.8256 0.7042 0.0350 Uiso
C7G C 0.2952(3) 0.79530(19) 0.54571(17) 0.0300 Uani
H2G H 0.2514 0.826 0.5027 0.0360 Uiso
C2G C 0.2853(2) 0.83596(14) 0.85443(14) 0.0208 Uani
N2G N 0.2444(2) 0.88176(14) 0.80034(15) 0.0288 Uani
C4G C 0.49900(19) 0.83640(14) 0.89594(14) 0.0206 Uani
N4G N 0.5693(2) 0.88331(14) 0.86688(15) 0.0282 Uani
C5G C 0.3436(2) 0.86196(15) 1.04080(14) 0.0211 Uani
N5G N 0.3339(2) 0.92201(15) 1.08818(16) 0.0308 Uani
Mn1G Mn 0.19392(3) 0.97751(2) 0.69358(2) 0.0193 Uani
O2G O 0.3226(2) 1.07160(14) 0.75058(17) 0.0377 Uani
O3G O 0.0631(2) 1.03071(19) 0.78736(17) 0.0465 Uani
N4B N 0.0693(2) 0.88331(14) 0.63312(15) 0.0282 Uani
N4E N 0.0693(2) 0.61669(14) 0.63312(15) 0.0282 Uani
N5A N 0.1661(2) 0.42201(15) 0.58818(16) 0.0308 Uani
N5F N 0.1661(2) 1.07799(15) 0.58818(16) 0.0308 Uani
Mn1A Mn 0.30608(3) 0.47751(2) 1.19358(2) 0.0193 Uani
Mn1B Mn 0.69392(3) 0.97751(2) 0.80642(2) 0.0193 Uani
Mn1E Mn 0.69392(3) 0.52249(2) 0.80642(2) 0.0193 Uani
Mn1F Mn 0.30608(3) 1.02249(2) 1.19358(2) 0.0193 Uani
O4 O 0.5987(7) 0.5295(6) 0.5382(3) 0.1240 Uani
O5 O 0.1514(5) 0.5527(3) 0.4293(3) 0.0904 Uani
O6 O 0.2547(6) 0.25000 0.7400(5) 0.0890 Uani
O7 O 0.5312(10) 0.25000 0.6942(7) 0.2263 Uani
loop_
_atom_site_aniso_label
_atom_site_aniso_U_11
_atom_site_aniso_U_22
_atom_site_aniso_U_33
_atom_site_aniso_U_23
_atom_site_aniso_U_13
_atom_site_aniso_U_12
W1 0.01782(6) 0.01060(5) 0.01061(5) 0 0.00016(3) 0
C1 0.0229(13) 0.0264(14) 0.0272(14) 0 0.0003(11) 0
N1 0.0236(15) 0.068(3) 0.053(2) 0 0.0082(15) 0
C2 0.0260(9) 0.0173(7) 0.0191(8) -0.0023(6) -0.0023(7) -0.0003(7)
N2 0.0367(10) 0.0240(9) 0.0257(9) -0.0077(7) -0.0049(8) -0.0030(8)
C3 0.0292(15) 0.0262(14) 0.0225(13) 0 -0.0054(11) 0
N3 0.048(2) 0.053(2) 0.044(2) 0 -0.0237(18) 0
C4 0.0232(8) 0.0195(8) 0.0190(8) -0.0002(6) 0.0004(6) 0.0018(7)
N4 0.0302(9) 0.0254(9) 0.0290(9) -0.0008(7) 0.0042(7) 0.0072(7)
C5 0.0261(9) 0.0177(8) 0.0194(8) 0.0039(6) 0.0025(7) 0.0008(7)
N5 0.0406(11) 0.0243(9) 0.0275(9) 0.0107(8) 0.0043(9) -0.0002(8)
Mn1 0.02293(14) 0.01534(12) 0.01954(13) -0.00417(10) -0.00395(10) 0.00182(10)
O1 0.0410(10) 0.0207(8) 0.0455(12) 0.0001(8) 0.0136(9) 0.0023(7)
N6 0.0289(9) 0.0216(8) 0.0305(10) -0.0002(7) 0.0064(7) 0.0014(7)
C6 0.0291(10) 0.0312(11) 0.0277(10) 0.0021(9) 0.0007(8) 0.0029(9)
C7 0.0306(11) 0.0285(11) 0.0308(12) -0.0020(8) -0.0006(8) 0.0016(9)
O2 0.0375(10) 0.0302(9) 0.0453(11) 0.0054(9) -0.0095(9) 0.0051(8)
O3 0.0344(10) 0.0613(16) 0.0437(12) 0.0049(11) 0.0065(9) -0.0100(10)
O1G 0.041 0.0207 0.0455 -0.0001 0.0136 -0.0023
N6G 0.0289 0.0216 0.0305 0.0002 0.0064 -0.0014
C6G 0.0291 0.0312 0.0277 -0.0021 0.0007 -0.0029
C7G 0.0306 0.0285 0.0308 0.002 -0.0006 -0.0016
C2G 0.026 0.0173 0.0191 0.0023 -0.0023 0.0003
N2G 0.0367 0.024 0.0257 0.0077 -0.0049 0.003
C4G 0.0232 0.0195 0.019 0.0002 0.0004 -0.0018
N4G 0.0302 0.0254 0.029 0.0008 0.0042 -0.0072
C5G 0.0261 0.0177 0.0194 -0.0039 0.0025 -0.0008
N5G 0.0406 0.0243 0.0275 -0.0107 0.0043 0.0002
Mn1G 0.02293 0.01534 0.01954 0.00417 -0.00395 -0.00182
O2G 0.0375 0.0302 0.0453 -0.0054 -0.0095 -0.0051
O3G 0.0344 0.0613 0.0437 -0.0049 0.0065 0.01
N4B 0.0302 0.0254 0.029 -0.0008 -0.0042 -0.0072
N4E 0.0302 0.0254 0.029 0.0008 -0.0042 0.0072
N5A 0.0406 0.0243 0.0275 -0.0107 -0.0043 -0.0002
N5F 0.0406 0.0243 0.0275 0.0107 -0.0043 0.0002
Mn1A 0.02293 0.01534 0.01954 0.00417 0.00395 0.00182
Mn1B 0.02293 0.01534 0.01954 -0.00417 0.00395 -0.00182
Mn1E 0.02293 0.01534 0.01954 0.00417 0.00395 0.00182
Mn1F 0.02293 0.01534 0.01954 -0.00417 0.00395 -0.00182
O4 0.156(5) 0.147(6) 0.069(3) -0.028(3) 0.031(3) -0.030(5)
O5 0.168(5) 0.053(2) 0.0501(18) -0.0033(18) 0.003(2) 0.007(2)
O6 0.108(4) 0.063(3) 0.096(4) 0 0.002(4) 0
O7 0.132(8) 0.42(2) 0.127(8) 0 -0.059(7) 0
loop_
_geom_bond_atom_site_label_1
_geom_bond_atom_site_label_2
_geom_bond_site_symmetry_1
_geom_bond_site_symmetry_2
W1 C1 1_555 1_555
C1 N1 1_555 1_555
C2 W1 1_555 1_555
N2 C2 1_555 1_555
C3 W1 1_555 1_555
N3 C3 1_555 1_555
C4 W1 1_555 1_555
N4 C4 1_555 1_555
C5 W1 1_555 1_555
N5 C5 1_555 1_555
Mn1 N2 1_555 1_555
O1 Mn1 1_555 1_555
N6 O1 1_555 1_555
C6 N6 1_555 1_555
H1 C6 1_555 1_555
C7 N6 1_555 1_555
H2 C7 1_555 1_555
O2 Mn1 1_555 1_555
O3 Mn1 1_555 1_555
O1G N6G 1_555 1_555
N6G C6G 1_555 1_555
C6G C6 1_555 1_555
H1G C6G 1_555 1_555
C7G C7 1_555 1_555
H2G C7G 1_555 1_555
C2G W1 1_555 1_555
N2G C2G 1_555 1_555
C4G W1 1_555 1_555
N4G C4G 1_555 1_555
C5G W1 1_555 1_555
N5G C5G 1_555 1_555
Mn1G O1G 1_555 1_555
O2G Mn1G 1_555 1_555
O3G Mn1G 1_555 1_555
N4B Mn1G 1_555 1_555
N4E Mn1 1_555 1_555
N5A Mn1 1_555 1_555
N5F Mn1G 1_555 1_555
Mn1A N5 1_555 1_555
Mn1B N4G 1_555 1_555
Mn1E N4 1_555 1_555
Mn1F N5G 1_555 1_555
N6G C7G 1_555 1_555
N2G Mn1G 1_555 1_555

#END
