
#######################################################################
#
#                 Cambridge Crystallographic Data Centre
#                                CCDC 
#
#######################################################################
#
# If this CIF has been generated from an entry in the Cambridge 
# Structural Database, then it will include bibliographic, chemical, 
# crystal, experimental, refinement or atomic coordinate data resulting 
# from the CCDC's data processing and validation procedures.
#
#######################################################################

data_OHUMIP
_chemical_formula_moiety         '(C63 H118 Mo12 N3 O46 P1 Zn4)n'
_symmetry_cell_setting           monoclinic
_symmetry_space_group_name_H-M   'C 2/c'
_symmetry_Int_Tables_number      15
_space_group_name_Hall           '-C 2yc'
loop_
_symmetry_equiv_pos_site_id
_symmetry_equiv_pos_as_xyz
1 x,y,z
2 -x,y,1/2-z
3 1/2+x,1/2+y,z
4 1/2-x,1/2+y,1/2-z
5 -x,-y,-z
6 x,-y,1/2+z
7 1/2-x,1/2-y,-z
8 1/2+x,1/2-y,1/2+z
_cell_length_a                   28.8818(13)
_cell_length_b                   27.4017(13)
_cell_length_c                   26.7889(12)
_cell_angle_alpha                90
_cell_angle_beta                 104.8600(10)
_cell_angle_gamma                90
_cell_volume                     20492
loop_
_atom_site_label
_atom_site_type_symbol
_atom_site_fract_x
_atom_site_fract_y
_atom_site_fract_z
_atom_site_U_iso_or_equiv
_atom_site_thermal_displace_type
Mo1 Mo 0.27872(2) 0.43989(2) 0.17288(3) 0.0382 Uani
Mo2 Mo 0.19254(2) 0.46321(2) 0.17754(3) 0.0398 Uani
Mo3 Mo 0.10998(2) 0.36904(3) 0.19061(3) 0.0396 Uani
Mo4 Mo 0.13791(2) 0.27816(3) 0.19626(3) 0.0383 Uani
Mo5 Mo 0.25058(2) 0.23996(3) 0.19215(2) 0.0374 Uani
Mo6 Mo 0.32362(2) 0.32363(3) 0.18035(3) 0.0376 Uani
Mo7 Mo 0.29999(2) 0.37961(2) 0.06152(3) 0.0335 Uani
Mo8 Mo 0.15863(2) 0.21682(2) 0.08511(2) 0.0324 Uani
Mo9 Mo 0.09270(2) 0.43793(2) 0.08061(3) 0.0366 Uani
Mo10 Mo 0.11015(2) 0.38359(2) -0.01807(3) 0.0333 Uani
Mo11 Mo 0.14689(2) 0.26472(2) -0.00154(2) 0.0299 Uani
Mo12 Mo 0.22706(2) 0.35701(2) -0.01563(2) 0.0304 Uani
Zn1 Zn 0.23886(3) 0.35142(4) 0.24933(3) 0.0440 Uani
Zn2 Zn 0.19879(3) 0.46491(3) 0.04487(3) 0.0358 Uani
Zn3 Zn 0.06608(3) 0.31228(3) 0.06702(4) 0.0357 Uani
Zn4 Zn 0.22634(3) 0.24719(3) -0.07036(3) 0.0313 Uani
P1 P 0.19370(6) 0.34688(6) 0.10957(7) 0.0276 Uani
O1 O 0.2616(2) 0.3554(2) 0.3225(2) 0.0569 Uani
O2 O 0.2033(2) 0.4089(2) 0.3243(2) 0.0542 Uani
O3 O 0.20766(18) 0.48002(19) 0.5031(2) 0.0416 Uani
O4 O 0.2804(2) 0.4784(2) 0.5581(2) 0.0570 Uani
O5 O 0.5025(2) 0.2152(2) 0.5469(3) 0.0550 Uani
O6 O 0.5308(2) 0.2803(2) 0.5962(3) 0.0594 Uani
O7 O 0.3747(2) 0.2998(2) 0.2180(2) 0.0554 Uani
O8 O 0.2889(2) 0.2016(2) 0.2314(2) 0.0516 Uani
O9 O 0.32295(19) 0.3860(2) 0.2053(2) 0.0429 Uani
O10 O 0.27595(19) 0.3054(2) 0.21984(19) 0.0419 Uani
O11 O 0.3091(2) 0.4873(2) 0.2045(2) 0.0552 Uani
O12 O 0.2020(2) 0.2478(2) 0.2244(2) 0.0439 Uani
O13 O 0.23886(19) 0.41628(19) 0.2171(2) 0.0413 Uani
O14 O 0.16944(19) 0.3375(2) 0.2280(2) 0.0415 Uani
O15 O 0.1086(2) 0.2562(2) 0.2375(2) 0.0555 Uani
O16 O 0.2040(2) 0.5159(2) 0.2091(2) 0.0568 Uani
O17 O 0.1480(2) 0.4322(2) 0.2185(2) 0.0445 Uani
O18 O 0.0735(2) 0.3692(2) 0.2298(2) 0.0549 Uani
O19 O 0.33856(17) 0.33990(19) 0.1208(2) 0.0383 Uani
O20 O 0.28976(17) 0.26413(18) 0.14500(18) 0.0350 Uani
O21 O 0.31058(18) 0.43824(19) 0.1124(2) 0.0403 Uani
O22 O 0.21736(18) 0.20111(18) 0.14066(19) 0.0378 Uani
O23 O 0.24671(17) 0.36453(18) 0.12489(18) 0.0330 Uani
O24 O 0.18843(17) 0.29666(18) 0.13458(18) 0.0322 Uani
O25 O 0.22386(18) 0.46776(18) 0.1213(2) 0.0377 Uani
O26 O 0.12419(19) 0.22171(18) 0.1442(2) 0.0374 Uani
O27 O 0.16300(17) 0.38526(17) 0.13000(19) 0.0332 Uani
O28 O 0.13374(19) 0.47994(19) 0.1227(2) 0.0428 Uani
O29 O 0.09086(18) 0.31400(19) 0.1436(2) 0.0382 Uani
O30 O 0.07111(18) 0.40861(19) 0.1317(2) 0.0407 Uani
O31 O 0.34100(19) 0.3934(2) 0.0304(2) 0.0459 Uani
O32 O 0.27181(16) 0.31690(17) 0.03519(18) 0.0301 Uani
O33 O 0.24185(17) 0.41547(17) 0.02751(19) 0.0336 Uani
O34 O 0.20430(16) 0.23892(17) 0.04715(18) 0.0302 Uani
O35 O 0.1396(2) 0.16179(19) 0.0629(2) 0.0449 Uani
O36 O 0.17713(16) 0.34181(17) 0.05007(18) 0.0297 Uani
O37 O 0.10924(16) 0.26304(17) 0.04963(19) 0.0327 Uani
O38 O 0.13334(17) 0.44022(17) 0.03098(19) 0.0343 Uani
O39 O 0.07861(17) 0.37590(18) 0.0405(2) 0.0363 Uani
O40 O 0.0465(2) 0.4734(2) 0.0507(2) 0.0500 Uani
O41 O 0.25128(19) 0.3663(2) -0.0651(2) 0.0420 Uani
O42 O 0.19194(16) 0.29465(17) -0.03889(17) 0.0295 Uani
O43 O 0.12458(19) 0.21961(19) -0.0430(2) 0.0412 Uani
O44 O 0.16317(17) 0.39048(18) -0.0419(2) 0.0367 Uani
O45 O 0.10067(16) 0.31914(18) -0.03139(19) 0.0342 Uani
O46 O 0.0665(2) 0.4107(2) -0.0632(2) 0.0503 Uani
C1 C 0.2388(3) 0.3843(3) 0.3457(3) 0.0438 Uani
C2 C 0.2608(3) 0.3877(3) 0.4031(3) 0.0376 Uani
C3 C 0.3005(3) 0.3602(3) 0.4257(3) 0.0455 Uani
H1 H 0.3122 0.3380 0.4057 0.0540 Uiso
C4 C 0.3236(3) 0.3648(3) 0.4778(3) 0.0454 Uani
C5 C 0.3058(3) 0.3987(3) 0.5063(3) 0.0447 Uani
H2 H 0.3213 0.4028 0.5410 0.0540 Uiso
C6 C 0.2663(3) 0.4266(3) 0.4852(3) 0.0405 Uani
C7 C 0.2428(3) 0.4214(3) 0.4330(3) 0.0394 Uani
H3 H 0.2158 0.4399 0.4183 0.0480 Uiso
C8 C 0.2507(3) 0.4641(3) 0.5188(3) 0.0402 Uani
C9 C 0.3677(3) 0.3361(3) 0.5012(3) 0.0490 Uani
C10 C 0.4043(3) 0.3559(4) 0.5393(4) 0.0654 Uani
H4 H 0.4011 0.3874 0.5509 0.0790 Uiso
C11 C 0.4453(3) 0.3303(4) 0.5603(4) 0.0673 Uani
H5 H 0.4690 0.3444 0.5865 0.0810 Uiso
C12 C 0.4524(3) 0.2835(3) 0.5432(4) 0.0524 Uani
C13 C 0.4158(3) 0.2631(3) 0.5062(4) 0.0545 Uani
H6 H 0.4192 0.2315 0.4950 0.0660 Uiso
C14 C 0.3737(3) 0.2887(3) 0.4849(4) 0.0571 Uani
H7 H 0.3494 0.2741 0.4598 0.0690 Uiso
C15 C 0.4989(3) 0.2585(3) 0.5645(3) 0.0453 Uani
Zn2E Zn 0.19879(3) 0.53509(3) 0.54487(3) 0.0358 Uani
Zn3G Zn 0.56608(3) 0.18772(3) 0.56702(4) 0.0357 Uani
Zn4F Zn 0.27366(3) 0.25281(3) 0.07036(3) 0.0313 Uani
O3E O 0.20766(18) 0.51998(19) 0.0031(2) 0.0416 Uani
O5G O 0.0025(2) 0.2848(2) 0.0469(3) 0.0550 Uani
O20F O 0.21024(17) 0.23587(18) -0.14500(18) 0.0350 Uani
O32F O 0.22819(16) 0.18310(17) -0.03519(18) 0.0301 Uani
O34F O 0.29570(16) 0.26108(17) -0.04715(18) 0.0302 Uani
N1 N 0.1880(4) 0.1315(4) 0.3036(4) 0.1390 Uiso
C16 C 0.1796(6) 0.1842(4) 0.3155(5) 0.1640 Uiso
H8 H 0.1965 0.2061 0.2978 0.1970 Uiso
H9 H 0.1456 0.1909 0.3034 0.1970 Uiso
C17 C 0.1936(12) 0.1915(6) 0.3710(6) 0.2720 Uiso
H10 H 0.2233 0.1742 0.3850 0.3270 Uiso
H11 H 0.1698 0.1790 0.3875 0.3270 Uiso
C18 C 0.2018(14) 0.2471(7) 0.3826(9) 0.3120 Uiso
H12 H 0.2337 0.2560 0.3804 0.3740 Uiso
H13 H 0.1790 0.2652 0.3563 0.3740 Uiso
C19 C 0.1953(16) 0.2614(10) 0.4341(12) 0.4000 Uiso
H14 H 0.1672 0.2461 0.4398 0.5950 Uiso
H15 H 0.1921 0.2962 0.4355 0.5950 Uiso
H16 H 0.2230 0.2511 0.4602 0.5950 Uiso
C20 C 0.1980(6) 0.1324(5) 0.2502(4) 0.1670 Uiso
H17 H 0.1798 0.1575 0.2282 0.2000 Uiso
H18 H 0.2319 0.1387 0.2547 0.2000 Uiso
C21 C 0.1874(8) 0.0834(6) 0.2288(6) 0.1750 Uiso
H19 H 0.1554 0.0748 0.2310 0.2100 Uiso
H20 H 0.2096 0.0593 0.2478 0.2100 Uiso
C22 C 0.1898(10) 0.0843(7) 0.1711(6) 0.2110 Uiso
H21 H 0.1605 0.0985 0.1501 0.2530 Uiso
H22 H 0.2164 0.1045 0.1677 0.2530 Uiso
C23 C 0.1947(16) 0.0334(9) 0.1518(10) 0.3900 Uiso
H23 H 0.2277 0.0281 0.1524 0.5800 Uiso
H24 H 0.1753 0.0297 0.1171 0.5800 Uiso
H25 H 0.1850 0.0100 0.1738 0.5800 Uiso
C24 C 0.2287(4) 0.1071(5) 0.3428(5) 0.1370 Uiso
H26 H 0.2266 0.1148 0.3775 0.1640 Uiso
H27 H 0.2286 0.0720 0.3385 0.1640 Uiso
C25 C 0.2714(5) 0.1308(8) 0.3327(7) 0.1970 Uiso
H28 H 0.2666 0.1657 0.3284 0.2370 Uiso
H29 H 0.2757 0.1177 0.3005 0.2370 Uiso
C26 C 0.3164(5) 0.1206(12) 0.3758(10) 0.3800 Uiso
H30 H 0.3437 0.1364 0.3676 0.4550 Uiso
H31 H 0.3226 0.0858 0.3785 0.4550 Uiso
C27 C 0.3102(12) 0.1385(13) 0.4277(8) 0.3120 Uiso
H32 H 0.3255 0.1698 0.4347 0.4670 Uiso
H33 H 0.3248 0.1161 0.4548 0.4670 Uiso
H34 H 0.2768 0.1418 0.4261 0.4670 Uiso
C28 C 0.1430(4) 0.1007(6) 0.3018(8) 0.3120 Uiso
H35 H 0.1412 0.0743 0.2773 0.3740 Uiso
H36 H 0.1412 0.0876 0.3349 0.3740 Uiso
C29 C 0.1053(5) 0.1384(9) 0.2783(12) 0.2720 Uiso
H37 H 0.0999 0.1423 0.2412 0.3270 Uiso
H38 H 0.1154 0.1696 0.2947 0.3270 Uiso
C30 C 0.0578(6) 0.1219(12) 0.2904(14) 0.3120 Uiso
H39 H 0.0463 0.1463 0.3105 0.3740 Uiso
H40 H 0.0329 0.1155 0.2592 0.3740 Uiso
C31 C 0.0701(12) 0.0741(12) 0.3227(16) 0.4000 Uiso
H41 H 0.0956 0.0580 0.3123 0.5950 Uiso
H42 H 0.0427 0.0529 0.3167 0.5950 Uiso
H43 H 0.0803 0.0820 0.3588 0.5950 Uiso
N2 N 0.0672(3) 0.4499(3) 0.3752(3) 0.1190 Uiso
C32 C 0.0292(5) 0.4877(5) 0.3756(5) 0.0740 Uiso
H44 H 0.0072 0.4764 0.3951 0.0890 Uiso
H45 H 0.0434 0.5183 0.3902 0.0890 Uiso
C33 C 0.0046(9) 0.4930(10) 0.3201(7) 0.1260 Uiso
H46 H -0.0067 0.4613 0.3059 0.1520 Uiso
H47 H 0.0272 0.5051 0.3018 0.1520 Uiso
C34 C -0.0385(9) 0.5280(11) 0.3117(12) 0.1180 Uiso
H48 H -0.0618 0.5197 0.2798 0.1420 Uiso
H49 H -0.0539 0.5247 0.3398 0.1420 Uiso
C35 C -0.023(2) 0.5801(9) 0.309(2) 0.2600 Uiso
H50 H 0.0086 0.5804 0.3032 0.3860 Uiso
H51 H -0.0216 0.5963 0.3414 0.3860 Uiso
H52 H -0.0448 0.5969 0.2817 0.3860 Uiso
C36 C 0.0430(5) 0.4020(4) 0.3519(7) 0.0970 Uiso
H53 H 0.0176 0.3922 0.3675 0.1170 Uiso
H54 H 0.0306 0.4039 0.3147 0.1170 Uiso
C37 C 0.0857(9) 0.3692(7) 0.3675(19) 0.2100 Uiso
H55 H 0.0948 0.3660 0.4049 0.2570 Uiso
H56 H 0.1122 0.3841 0.3572 0.2570 Uiso
C38 C 0.0760(9) 0.3190(6) 0.3432(14) 0.1120 Uiso
H57 H 0.0888 0.3174 0.3132 0.1350 Uiso
H58 H 0.0925 0.2948 0.3678 0.1350 Uiso
C39 C 0.0233(11) 0.3073(13) 0.3278(18) 0.1900 Uiso
H59 H 0.0178 0.2809 0.3035 0.2860 Uiso
H60 H 0.0057 0.3355 0.3121 0.2860 Uiso
H61 H 0.0128 0.2981 0.3577 0.2860 Uiso
C40 C 0.0988(5) 0.4416(6) 0.4295(4) 0.0820 Uiso
H62 H 0.1151 0.4104 0.4329 0.0990 Uiso
H63 H 0.1219 0.4676 0.4405 0.0990 Uiso
C41 C 0.0600(10) 0.4422(10) 0.4575(7) 0.1650 Uiso
H64 H 0.0305 0.4538 0.4342 0.1990 Uiso
H65 H 0.0688 0.4650 0.4861 0.1990 Uiso
C42 C 0.0525(15) 0.3926(10) 0.4783(11) 0.1770 Uiso
H66 H 0.0785 0.3709 0.4760 0.2120 Uiso
H67 H 0.0230 0.3791 0.4569 0.2120 Uiso
C43 C 0.0483(12) 0.3953(11) 0.5337(8) 0.1060 Uiso
H68 H 0.0762 0.4116 0.5543 0.1590 Uiso
H69 H 0.0467 0.3629 0.5466 0.1590 Uiso
H70 H 0.0202 0.4132 0.5353 0.1590 Uiso
C44 C 0.0997(5) 0.4673(6) 0.3408(6) 0.0710 Uiso
H71 H 0.1335 0.4665 0.3584 0.0850 Uiso
H72 H 0.0938 0.4499 0.3083 0.0850 Uiso
C45 C 0.0798(14) 0.5198(9) 0.336(2) 1.0000 Uiso
H73 H 0.0564 0.5232 0.3034 1.1770 Uiso
H74 H 0.0641 0.5266 0.3636 1.1770 Uiso
C46 C 0.122(2) 0.5549(8) 0.340(3) 0.4400 Uiso
H75 H 0.1340 0.5662 0.3752 0.5280 Uiso
H76 H 0.1109 0.5830 0.3181 0.5280 Uiso
C47 C 0.1599(9) 0.5285(12) 0.3200(14) 0.1160 Uiso
H77 H 0.1670 0.4981 0.3382 0.1730 Uiso
H78 H 0.1882 0.5483 0.3270 0.1730 Uiso
H79 H 0.1493 0.5222 0.2835 0.1730 Uiso
N3 N -0.0069(4) 0.2062(4) -0.1413(5) 0.1190 Uiso
C48 C -0.0038(10) 0.1952(8) -0.0852(6) 0.3100 Uiso
H80 H -0.0353 0.1944 -0.0785 0.3720 Uiso
H81 H 0.0169 0.2176 -0.0615 0.3720 Uiso
C49 C 0.0171(13) 0.1441(7) -0.0846(8) 0.3100 Uiso
H82 H 0.0382 0.1433 -0.1075 0.3720 Uiso
H83 H -0.0082 0.1204 -0.0969 0.3720 Uiso
C50 C 0.0454(9) 0.1301(9) -0.0308(11) 0.3510 Uiso
H84 H 0.0779 0.1216 -0.0312 0.4210 Uiso
H85 H 0.0468 0.1581 -0.0083 0.4210 Uiso
C51 C 0.0226(13) 0.0884(12) -0.0092(11) 0.3510 Uiso
H86 H 0.0447 0.0616 -0.0024 0.5260 Uiso
H87 H -0.0062 0.0787 -0.0340 0.5260 Uiso
H88 H 0.0151 0.0981 0.0223 0.5260 Uiso
C52 C 0.0429(6) 0.2233(9) -0.1466(13) 0.4500 Uiso
H89 H 0.0685 0.2140 -0.1170 0.5370 Uiso
H90 H 0.0503 0.2122 -0.1782 0.5370 Uiso
C53 C 0.0327(13) 0.2774(8) -0.1469(17) 0.4500 Uiso
H91 H -0.0017 0.2822 -0.1570 0.5370 Uiso
H92 H 0.0449 0.2909 -0.1126 0.5370 Uiso
C54 C 0.0545(12) 0.3042(12) -0.1852(12) 0.4400 Uiso
H93 H 0.0509 0.2847 -0.2162 0.5280 Uiso
H94 H 0.0379 0.3348 -0.1950 0.5280 Uiso
C55 C 0.1067(10) 0.3159(13) -0.1618(16) 0.3300 Uiso
H95 H 0.1107 0.3305 -0.1284 0.4980 Uiso
H96 H 0.1184 0.3377 -0.1838 0.4980 Uiso
H97 H 0.1242 0.2858 -0.1584 0.4980 Uiso
C56 C -0.0208(12) 0.1597(9) -0.1743(10) 0.6300 Uiso
H98 H -0.0399 0.1667 -0.2090 0.7560 Uiso
H99 H 0.0073 0.1409 -0.1758 0.7560 Uiso
C57 C -0.0499(17) 0.1363(12) -0.1411(13) 0.6300 Uiso
H100 H -0.0464 0.1548 -0.1095 0.7560 Uiso
H101 H -0.0376 0.1037 -0.1319 0.7560 Uiso
C58 C -0.1026(11) 0.1324(15) -0.170(3) 0.6300 Uiso
H102 H -0.1211 0.1516 -0.1514 0.7560 Uiso
H103 H -0.1074 0.1459 -0.2042 0.7560 Uiso
C59 C -0.1193(15) 0.0797(19) -0.174(3) 0.6300 Uiso
H104 H -0.1029 0.0613 -0.1947 0.9450 Uiso
H105 H -0.1531 0.0790 -0.1895 0.9450 Uiso
H106 H -0.1128 0.0657 -0.1400 0.9450 Uiso
C60 C -0.0427(8) 0.2469(10) -0.1633(9) 0.4110 Uiso
H107 H -0.0272 0.2781 -0.1648 0.4930 Uiso
H108 H -0.0623 0.2385 -0.1973 0.4930 Uiso
C61 C -0.0718(9) 0.2463(13) -0.1246(10) 0.4110 Uiso
H109 H -0.0523 0.2589 -0.0921 0.4930 Uiso
H110 H -0.0811 0.2132 -0.1188 0.4930 Uiso
C62 C -0.1169(8) 0.2784(9) -0.1436(16) 0.4000 Uiso
H111 H -0.1203 0.2996 -0.1158 0.4790 Uiso
H112 H -0.1140 0.2986 -0.1723 0.4790 Uiso
C63 C -0.1610(10) 0.2457(15) -0.1598(18) 0.4110 Uiso
H113 H -0.1513 0.2136 -0.1671 0.6160 Uiso
H114 H -0.1824 0.2590 -0.1903 0.6160 Uiso
H115 H -0.1771 0.2440 -0.1326 0.6160 Uiso
loop_
_atom_site_aniso_label
_atom_site_aniso_U_11
_atom_site_aniso_U_22
_atom_site_aniso_U_33
_atom_site_aniso_U_23
_atom_site_aniso_U_13
_atom_site_aniso_U_12
Mo1 0.0364(4) 0.0397(4) 0.0389(4) -0.0113(3) 0.0106(3) -0.0080(3)
Mo2 0.0410(4) 0.0399(4) 0.0422(4) -0.0103(3) 0.0174(3) -0.0059(3)
Mo3 0.0415(4) 0.0430(4) 0.0400(4) -0.0041(3) 0.0210(3) -0.0032(3)
Mo4 0.0435(4) 0.0426(4) 0.0336(4) 0.0015(3) 0.0184(3) -0.0031(3)
Mo5 0.0406(4) 0.0430(4) 0.0285(3) 0.0019(3) 0.0085(3) 0.0011(3)
Mo6 0.0323(3) 0.0464(4) 0.0318(3) -0.0067(3) 0.0039(3) -0.0019(3)
Mo7 0.0286(3) 0.0365(3) 0.0375(4) -0.0054(3) 0.0124(3) -0.0067(3)
Mo8 0.0331(3) 0.0332(3) 0.0332(3) 0.0006(3) 0.0129(3) -0.0044(3)
Mo9 0.0323(3) 0.0353(3) 0.0463(4) -0.0009(3) 0.0178(3) -0.0006(3)
Mo10 0.0284(3) 0.0367(3) 0.0354(4) 0.0038(3) 0.0093(3) -0.0006(3)
Mo11 0.0266(3) 0.0346(3) 0.0293(3) -0.0016(3) 0.0088(2) -0.0046(2)
Mo12 0.0299(3) 0.0327(3) 0.0308(3) 0.0000(3) 0.0117(3) -0.0038(2)
Zn1 0.0485(6) 0.0544(6) 0.0295(5) -0.0065(4) 0.0109(4) -0.0015(4)
Zn2 0.0361(5) 0.0328(4) 0.0423(5) 0.0023(4) 0.0169(4) -0.0048(4)
Zn3 0.0290(4) 0.0378(5) 0.0434(5) -0.0012(4) 0.0147(4) -0.0077(4)
Zn4 0.0302(4) 0.0360(4) 0.0288(4) -0.0036(3) 0.0096(3) -0.0022(3)
P1 0.0260(9) 0.0311(9) 0.0273(9) -0.0019(7) 0.0100(7) -0.0046(7)
O1 0.065(4) 0.069(4) 0.034(3) -0.008(3) 0.008(3) 0.030(3)
O2 0.053(4) 0.070(4) 0.034(3) -0.002(3) 0.001(3) 0.021(3)
O3 0.038(3) 0.040(3) 0.049(3) -0.008(2) 0.015(3) 0.009(2)
O4 0.067(4) 0.056(4) 0.040(3) -0.011(3) -0.001(3) 0.025(3)
O5 0.041(3) 0.053(4) 0.073(4) 0.002(3) 0.018(3) 0.019(3)
O6 0.040(3) 0.066(4) 0.071(4) -0.003(3) 0.012(3) 0.020(3)
O7 0.040(3) 0.071(4) 0.048(4) -0.010(3) -0.002(3) 0.004(3)
O8 0.055(4) 0.056(4) 0.041(3) 0.012(3) 0.007(3) 0.009(3)
O9 0.040(3) 0.049(3) 0.037(3) -0.014(2) 0.005(2) -0.004(2)
O10 0.046(3) 0.051(3) 0.029(3) -0.011(2) 0.010(2) -0.007(2)
O11 0.051(4) 0.053(4) 0.061(4) -0.019(3) 0.013(3) -0.012(3)
O12 0.051(3) 0.051(3) 0.031(3) 0.004(2) 0.013(2) -0.002(3)
O13 0.044(3) 0.048(3) 0.034(3) -0.008(2) 0.014(2) -0.005(2)
O14 0.045(3) 0.047(3) 0.033(3) -0.001(2) 0.011(2) 0.002(2)
O15 0.064(4) 0.062(4) 0.051(4) 0.008(3) 0.034(3) 0.001(3)
O16 0.061(4) 0.053(4) 0.060(4) -0.023(3) 0.022(3) -0.008(3)
O17 0.048(3) 0.047(3) 0.045(3) -0.012(3) 0.024(3) -0.004(3)
O18 0.056(4) 0.063(4) 0.057(4) -0.005(3) 0.035(3) 0.000(3)
O19 0.029(3) 0.047(3) 0.037(3) -0.007(2) 0.005(2) -0.005(2)
O20 0.036(3) 0.041(3) 0.029(3) -0.005(2) 0.010(2) -0.002(2)
O21 0.034(3) 0.044(3) 0.045(3) -0.011(2) 0.014(2) -0.014(2)
O22 0.042(3) 0.038(3) 0.035(3) 0.003(2) 0.013(2) -0.001(2)
O23 0.032(3) 0.037(3) 0.031(3) -0.004(2) 0.010(2) -0.004(2)
O24 0.033(3) 0.037(3) 0.030(3) 0.001(2) 0.014(2) -0.002(2)
O25 0.041(3) 0.038(3) 0.038(3) -0.005(2) 0.017(2) -0.008(2)
O26 0.046(3) 0.035(3) 0.037(3) 0.000(2) 0.021(2) -0.006(2)
O27 0.034(3) 0.036(3) 0.032(3) -0.004(2) 0.013(2) -0.004(2)
O28 0.043(3) 0.036(3) 0.054(3) -0.005(3) 0.021(3) 0.000(2)
O29 0.037(3) 0.043(3) 0.039(3) -0.001(2) 0.018(2) -0.003(2)
O30 0.037(3) 0.042(3) 0.049(3) -0.004(2) 0.022(2) -0.002(2)
O31 0.036(3) 0.053(3) 0.054(3) -0.009(3) 0.021(3) -0.011(2)
O32 0.028(2) 0.032(3) 0.031(3) -0.005(2) 0.009(2) -0.005(2)
O33 0.035(3) 0.033(3) 0.035(3) 0.000(2) 0.013(2) -0.008(2)
O34 0.030(2) 0.034(3) 0.028(3) 0.000(2) 0.010(2) -0.003(2)
O35 0.052(3) 0.035(3) 0.050(3) -0.004(3) 0.017(3) -0.007(2)
O36 0.027(2) 0.031(2) 0.033(3) 0.002(2) 0.011(2) -0.0034(19)
O37 0.030(3) 0.035(3) 0.036(3) 0.002(2) 0.014(2) -0.003(2)
O38 0.035(3) 0.032(3) 0.040(3) -0.002(2) 0.017(2) -0.006(2)
O39 0.029(3) 0.041(3) 0.042(3) -0.001(2) 0.015(2) -0.004(2)
O40 0.043(3) 0.047(3) 0.063(4) 0.003(3) 0.019(3) 0.002(3)
O41 0.046(3) 0.046(3) 0.039(3) 0.001(2) 0.020(2) -0.002(2)
O42 0.029(2) 0.034(3) 0.026(2) -0.002(2) 0.008(2) -0.003(2)
O43 0.042(3) 0.044(3) 0.038(3) -0.007(2) 0.011(2) -0.006(2)
O44 0.035(3) 0.038(3) 0.039(3) 0.005(2) 0.013(2) -0.002(2)
O45 0.028(2) 0.040(3) 0.033(3) -0.002(2) 0.005(2) -0.003(2)
O46 0.047(3) 0.051(3) 0.050(3) 0.006(3) 0.007(3) 0.005(3)
C1 0.050(5) 0.047(5) 0.032(4) -0.006(4) 0.006(4) 0.012(4)
C2 0.040(4) 0.039(4) 0.035(4) -0.008(3) 0.012(3) 0.009(3)
C3 0.052(5) 0.050(5) 0.035(4) -0.006(4) 0.012(4) 0.021(4)
C4 0.047(5) 0.049(5) 0.038(4) -0.005(4) 0.007(4) 0.019(4)
C5 0.049(5) 0.050(5) 0.029(4) -0.006(4) -0.001(3) 0.017(4)
C6 0.045(4) 0.043(4) 0.033(4) -0.003(3) 0.009(3) 0.014(4)
C7 0.039(4) 0.046(4) 0.032(4) -0.001(3) 0.007(3) 0.013(3)
C8 0.051(5) 0.040(4) 0.032(4) 0.005(3) 0.015(4) 0.012(4)
C9 0.046(5) 0.055(5) 0.044(5) -0.004(4) 0.008(4) 0.023(4)
C10 0.055(6) 0.057(6) 0.071(7) -0.019(5) -0.008(5) 0.030(5)
C11 0.053(6) 0.066(6) 0.071(7) -0.019(5) -0.006(5) 0.029(5)
C12 0.043(5) 0.059(6) 0.056(6) -0.004(4) 0.014(4) 0.014(4)
C13 0.051(5) 0.048(5) 0.064(6) -0.003(4) 0.014(5) 0.023(4)
C14 0.046(5) 0.059(6) 0.061(6) -0.010(5) 0.004(4) 0.018(4)
C15 0.033(4) 0.057(5) 0.047(5) 0.008(4) 0.012(4) 0.014(4)
Zn2E 0.0361 0.0328 0.0423 -0.0023 0.0169 0.0048
Zn3G 0.029 0.0378 0.0434 0.0012 0.0147 0.0077
Zn4F 0.0302 0.036 0.0288 -0.0036 0.0096 -0.0022
O3E 0.038 0.04 0.049 0.008 0.015 -0.009
O5G 0.041 0.053 0.073 -0.002 0.018 -0.019
O20F 0.036 0.041 0.029 -0.005 0.01 -0.002
O32F 0.028 0.032 0.031 -0.005 0.009 -0.005
O34F 0.03 0.034 0.028 0 0.01 -0.003
loop_
_geom_bond_atom_site_label_1
_geom_bond_atom_site_label_2
_geom_bond_site_symmetry_1
_geom_bond_site_symmetry_2
Mo1 O9 1_555 1_555
Mo2 O13 1_555 1_555
Mo3 O14 1_555 1_555
Mo4 O12 1_555 1_555
Mo5 O8 1_555 1_555
Mo6 O7 1_555 1_555
Mo7 O19 1_555 1_555
Mo8 O22 1_555 1_555
Mo9 O27 1_555 1_555
Mo10 O36 1_555 1_555
Mo11 O34 1_555 1_555
Mo12 O32 1_555 1_555
Zn1 O1 1_555 1_555
Zn2 O25 1_555 1_555
Zn3 O29 1_555 1_555
Zn4 O42 1_555 1_555
P1 O23 1_555 1_555
O1 C1 1_555 1_555
O2 C1 1_555 1_555
O3 C8 1_555 1_555
O4 C8 1_555 1_555
O5 C15 1_555 1_555
O6 C15 1_555 1_555
O9 Mo6 1_555 1_555
O10 Mo5 1_555 1_555
O11 Mo1 1_555 1_555
O12 Mo5 1_555 1_555
O13 Mo1 1_555 1_555
O14 Mo4 1_555 1_555
O15 Mo4 1_555 1_555
O16 Mo2 1_555 1_555
O17 Mo2 1_555 1_555
O18 Mo3 1_555 1_555
O19 Mo6 1_555 1_555
O20 Mo5 1_555 1_555
O21 Mo1 1_555 1_555
O22 Mo5 1_555 1_555
O23 Mo1 1_555 1_555
O24 Mo4 1_555 1_555
O25 Mo1 1_555 1_555
O26 Mo4 1_555 1_555
O27 Mo2 1_555 1_555
O28 Mo2 1_555 1_555
O29 Mo3 1_555 1_555
O30 Mo3 1_555 1_555
O31 Mo7 1_555 1_555
O32 Mo7 1_555 1_555
O33 Mo7 1_555 1_555
O34 Mo8 1_555 1_555
O35 Mo8 1_555 1_555
O36 Mo11 1_555 1_555
O37 Mo8 1_555 1_555
O38 Mo9 1_555 1_555
O39 Mo9 1_555 1_555
O40 Mo9 1_555 1_555
O41 Mo12 1_555 1_555
O42 Mo11 1_555 1_555
O43 Mo11 1_555 1_555
O44 Mo10 1_555 1_555
O45 Mo10 1_555 1_555
O46 Mo10 1_555 1_555
C1 C2 1_555 1_555
C2 C3 1_555 1_555
C3 H1 1_555 1_555
C4 C3 1_555 1_555
C5 C4 1_555 1_555
H2 C5 1_555 1_555
C6 C5 1_555 1_555
C7 C2 1_555 1_555
H3 C7 1_555 1_555
C8 C6 1_555 1_555
C9 C4 1_555 1_555
C10 C9 1_555 1_555
H4 C10 1_555 1_555
C11 C10 1_555 1_555
H5 C11 1_555 1_555
C12 C11 1_555 1_555
C13 C12 1_555 1_555
H6 C13 1_555 1_555
C14 C9 1_555 1_555
H7 C14 1_555 1_555
C15 C12 1_555 1_555
N1 C16 1_555 1_555
C16 H8 1_555 1_555
H9 C16 1_555 1_555
C17 C16 1_555 1_555
H10 C17 1_555 1_555
H11 C17 1_555 1_555
C18 C17 1_555 1_555
H12 C18 1_555 1_555
H13 C18 1_555 1_555
C19 C18 1_555 1_555
H14 C19 1_555 1_555
H15 C19 1_555 1_555
H16 C19 1_555 1_555
C20 N1 1_555 1_555
H17 C20 1_555 1_555
H18 C20 1_555 1_555
C21 C20 1_555 1_555
H19 C21 1_555 1_555
H20 C21 1_555 1_555
C22 C21 1_555 1_555
H21 C22 1_555 1_555
H22 C22 1_555 1_555
C23 C22 1_555 1_555
H23 C23 1_555 1_555
H24 C23 1_555 1_555
H25 C23 1_555 1_555
C24 N1 1_555 1_555
H26 C24 1_555 1_555
H27 C24 1_555 1_555
C25 C24 1_555 1_555
H28 C25 1_555 1_555
H29 C25 1_555 1_555
C26 C25 1_555 1_555
H30 C26 1_555 1_555
H31 C26 1_555 1_555
C27 C26 1_555 1_555
H32 C27 1_555 1_555
H33 C27 1_555 1_555
H34 C27 1_555 1_555
C28 N1 1_555 1_555
H35 C28 1_555 1_555
H36 C28 1_555 1_555
C29 C28 1_555 1_555
H37 C29 1_555 1_555
H38 C29 1_555 1_555
C30 C29 1_555 1_555
H39 C30 1_555 1_555
H40 C30 1_555 1_555
C31 C30 1_555 1_555
H41 C31 1_555 1_555
H42 C31 1_555 1_555
H43 C31 1_555 1_555
N2 C32 1_555 1_555
C32 H44 1_555 1_555
H45 C32 1_555 1_555
C33 C32 1_555 1_555
H46 C33 1_555 1_555
H47 C33 1_555 1_555
C34 C33 1_555 1_555
H48 C34 1_555 1_555
H49 C34 1_555 1_555
C35 C34 1_555 1_555
H50 C35 1_555 1_555
H51 C35 1_555 1_555
H52 C35 1_555 1_555
C36 N2 1_555 1_555
H53 C36 1_555 1_555
H54 C36 1_555 1_555
C37 C36 1_555 1_555
H55 C37 1_555 1_555
H56 C37 1_555 1_555
C38 C37 1_555 1_555
H57 C38 1_555 1_555
H58 C38 1_555 1_555
C39 C38 1_555 1_555
H59 C39 1_555 1_555
H60 C39 1_555 1_555
H61 C39 1_555 1_555
C40 N2 1_555 1_555
H62 C40 1_555 1_555
H63 C40 1_555 1_555
C41 C40 1_555 1_555
H64 C41 1_555 1_555
H65 C41 1_555 1_555
C42 C41 1_555 1_555
H66 C42 1_555 1_555
H67 C42 1_555 1_555
C43 C42 1_555 1_555
H68 C43 1_555 1_555
H69 C43 1_555 1_555
H70 C43 1_555 1_555
C44 N2 1_555 1_555
H71 C44 1_555 1_555
H72 C44 1_555 1_555
C45 C44 1_555 1_555
H73 C45 1_555 1_555
H74 C45 1_555 1_555
C46 C45 1_555 1_555
H75 C46 1_555 1_555
H76 C46 1_555 1_555
C47 C46 1_555 1_555
H77 C47 1_555 1_555
H78 C47 1_555 1_555
H79 C47 1_555 1_555
N3 C48 1_555 1_555
C48 H80 1_555 1_555
H81 C48 1_555 1_555
C49 C48 1_555 1_555
H82 C49 1_555 1_555
H83 C49 1_555 1_555
C50 C49 1_555 1_555
H84 C50 1_555 1_555
H85 C50 1_555 1_555
C51 C50 1_555 1_555
H86 C51 1_555 1_555
H87 C51 1_555 1_555
H88 C51 1_555 1_555
C52 N3 1_555 1_555
H89 C52 1_555 1_555
H90 C52 1_555 1_555
C53 C52 1_555 1_555
H91 C53 1_555 1_555
H92 C53 1_555 1_555
C54 C53 1_555 1_555
H93 C54 1_555 1_555
H94 C54 1_555 1_555
C55 C54 1_555 1_555
H95 C55 1_555 1_555
H96 C55 1_555 1_555
H97 C55 1_555 1_555
C56 N3 1_555 1_555
H98 C56 1_555 1_555
H99 C56 1_555 1_555
C57 C56 1_555 1_555
H100 C57 1_555 1_555
H101 C57 1_555 1_555
C58 C57 1_555 1_555
H102 C58 1_555 1_555
H103 C58 1_555 1_555
C59 C58 1_555 1_555
H104 C59 1_555 1_555
H105 C59 1_555 1_555
H106 C59 1_555 1_555
C60 N3 1_555 1_555
H107 C60 1_555 1_555
H108 C60 1_555 1_555
C61 C60 1_555 1_555
H109 C61 1_555 1_555
H110 C61 1_555 1_555
C62 C61 1_555 1_555
H111 C62 1_555 1_555
H112 C62 1_555 1_555
C63 C62 1_555 1_555
H113 C63 1_555 1_555
H114 C63 1_555 1_555
H115 C63 1_555 1_555
Zn2E O3 1_555 1_555
Zn3G O5 1_555 1_555
Zn4F O20 1_555 1_555
O3E Zn2 1_555 1_555
O5G Zn3 1_555 1_555
O20F Zn4 1_555 1_555
O32F Zn4 1_555 1_555
O34F Zn4 1_555 1_555
Mo2 O25 1_555 1_555
Mo3 O17 1_555 1_555
Mo3 O27 1_555 1_555
Mo4 O29 1_555 1_555
Mo5 O24 1_555 1_555
Mo6 O10 1_555 1_555
Mo6 O20 1_555 1_555
Mo6 O23 1_555 1_555
Mo7 O21 1_555 1_555
Mo8 O24 1_555 1_555
Mo8 O26 1_555 1_555
Mo9 O28 1_555 1_555
Mo9 O30 1_555 1_555
Mo10 O38 1_555 1_555
Mo10 O39 1_555 1_555
Mo11 O37 1_555 1_555
Mo11 O45 1_555 1_555
Mo12 O33 1_555 1_555
Mo12 O36 1_555 1_555
Mo12 O42 1_555 1_555
Mo12 O44 1_555 1_555
Zn1 O10 1_555 1_555
Zn1 O13 1_555 1_555
Zn1 O14 1_555 1_555
Zn2 O33 1_555 1_555
Zn2 O38 1_555 1_555
Zn3 O37 1_555 1_555
Zn3 O39 1_555 1_555
P1 O24 1_555 1_555
P1 O27 1_555 1_555
P1 O36 1_555 1_555
O32 Zn4F 1_555 1_555
O34 Zn4F 1_555 1_555
C6 C7 1_555 1_555
C13 C14 1_555 1_555

#END
