
#######################################################################
#
#                 Cambridge Crystallographic Data Centre
#                                CCDC 
#
#######################################################################
#
# If this CIF has been generated from an entry in the Cambridge 
# Structural Database, then it will include bibliographic, chemical, 
# crystal, experimental, refinement or atomic coordinate data resulting 
# from the CCDC's data processing and validation procedures.
#
#######################################################################

data_OHUMEL
_chemical_formula_moiety         'C108 H60 Mo48 O159 P3 Zn22'
_symmetry_cell_setting           cubic
_symmetry_space_group_name_H-M   'I a -3 d'
_symmetry_Int_Tables_number      230
_space_group_name_Hall           '-I 4bd 2c 3'
loop_
_symmetry_equiv_pos_site_id
_symmetry_equiv_pos_as_xyz
1 x,y,z
2 -x,1/2-y,z
3 x,-y,1/2-z
4 1/2-x,y,-z
5 z,x,y
6 y,z,x
7 -z,1/2-x,y
8 1/2-y,z,-x
9 z,-x,1/2-y
10 -y,1/2-z,x
11 1/2-z,x,-y
12 y,-z,1/2-x
13 1/4-y,1/4-x,1/4-z
14 3/4+y,1/4+x,1/4-z
15 1/4+y,1/4-x,3/4+z
16 1/4-y,3/4+x,1/4+z
17 1/4-x,1/4-z,1/4-y
18 1/4-z,1/4-y,1/4-x
19 3/4+x,1/4+z,1/4-y
20 1/4-z,3/4+y,1/4+x
21 1/4+x,1/4-z,3/4+y
22 3/4+z,1/4+y,1/4-x
23 1/4-x,3/4+z,1/4+y
24 1/4+z,1/4-y,3/4+x
25 1/2+x,1/2+y,1/2+z
26 1/2-x,-y,1/2+z
27 1/2+x,1/2-y,-z
28 -x,1/2+y,1/2-z
29 1/2+z,1/2+x,1/2+y
30 1/2+y,1/2+z,1/2+x
31 1/2-z,-x,1/2+y
32 -y,1/2+z,1/2-x
33 1/2+z,1/2-x,-y
34 1/2-y,-z,1/2+x
35 -z,1/2+x,1/2-y
36 1/2+y,1/2-z,-x
37 3/4-y,3/4-x,3/4-z
38 1/4+y,3/4+x,3/4-z
39 3/4+y,3/4-x,1/4+z
40 3/4-y,1/4+x,3/4+z
41 3/4-x,3/4-z,3/4-y
42 3/4-z,3/4-y,3/4-x
43 1/4+x,3/4+z,3/4-y
44 3/4-z,1/4+y,3/4+x
45 3/4+x,3/4-z,1/4+y
46 1/4+z,3/4+y,3/4-x
47 3/4-x,1/4+z,3/4+y
48 3/4+z,3/4-y,1/4+x
49 -x,-y,-z
50 x,1/2+y,-z
51 -x,y,1/2+z
52 1/2+x,-y,z
53 -z,-x,-y
54 -y,-z,-x
55 z,1/2+x,-y
56 1/2+y,-z,x
57 -z,x,1/2+y
58 y,1/2+z,-x
59 1/2+z,-x,y
60 -y,z,1/2+x
61 3/4+y,3/4+x,3/4+z
62 1/4-y,3/4-x,3/4+z
63 3/4-y,3/4+x,1/4-z
64 3/4+y,1/4-x,3/4-z
65 3/4+x,3/4+z,3/4+y
66 3/4+z,3/4+y,3/4+x
67 1/4-x,3/4-z,3/4+y
68 3/4+z,1/4-y,3/4-x
69 3/4-x,3/4+z,1/4-y
70 1/4-z,3/4-y,3/4+x
71 3/4+x,1/4-z,3/4-y
72 3/4-z,3/4+y,1/4-x
73 1/2-x,1/2-y,1/2-z
74 1/2+x,y,1/2-z
75 1/2-x,1/2+y,z
76 x,1/2-y,1/2+z
77 1/2-z,1/2-x,1/2-y
78 1/2-y,1/2-z,1/2-x
79 1/2+z,x,1/2-y
80 y,1/2-z,1/2+x
81 1/2-z,1/2+x,y
82 1/2+y,z,1/2-x
83 z,1/2-x,1/2+y
84 1/2-y,1/2+z,x
85 1/4+y,1/4+x,1/4+z
86 3/4-y,1/4-x,1/4+z
87 1/4-y,1/4+x,3/4-z
88 1/4+y,3/4-x,1/4-z
89 1/4+x,1/4+z,1/4+y
90 1/4+z,1/4+y,1/4+x
91 3/4-x,1/4-z,1/4+y
92 1/4+z,3/4-y,1/4-x
93 1/4-x,1/4+z,3/4-y
94 3/4-z,1/4-y,1/4+x
95 1/4+x,3/4-z,1/4-y
96 1/4-z,1/4+y,3/4-x
_cell_length_a                   48.9280(13)
_cell_length_b                   48.9280(13)
_cell_length_c                   48.9280(12)
_cell_angle_alpha                90
_cell_angle_beta                 90
_cell_angle_gamma                90
_cell_volume                     117131
loop_
_atom_site_label
_atom_site_type_symbol
_atom_site_fract_x
_atom_site_fract_y
_atom_site_fract_z
_atom_site_U_iso_or_equiv
_atom_site_thermal_displace_type
Mo1 Mo 0.60679(2) 0.939824(17) 0.791673(17) 0.1273 Uani
O1 O 0.60789(10) 0.97381(9) 0.75233(9) 0.0920 Uani
O2 O 0.60399(11) 0.97433(11) 0.81165(10) 0.1233 Uani
O3 O 0.60928(13) 0.91562(12) 0.75694(12) 0.1450 Uani
O4 O 0.56837(13) 0.94804(12) 0.78218(12) 0.1473 Uani
O5 O 0.60316(15) 0.91448(13) 0.81386(13) 0.1707 Uani
O6 O 0.64558(12) 0.94359(10) 0.78637(11) 0.1247 Uani
P1 P 0.6250 1.0000 0.7500 0.0875 Uani
Mo2 Mo 0.556035(19) 0.96726(2) 0.75266(2) 0.1451 Uani
Mo3 Mo 0.60731(2) 0.933476(17) 0.719150(18) 0.1275 Uani
Zn1 Zn 0.57844(2) 1.00518(2) 0.80894(2) 0.1330 Uani
O7 O 0.55877(12) 0.99725(13) 0.72512(13) 0.1430 Uani
O8 O 0.52201(15) 0.96327(17) 0.75335(19) 0.2227 Uani
O9 O 0.57080(17) 0.94200(11) 0.72614(12) 0.1577 Uani
O10 O 0.60343(15) 0.90473(13) 0.70085(14) 0.1770 Uani
O11 O 0.55479(17) 1.00613(17) 0.84094(19) 0.1577 Uani
C1 C 0.5668(3) 1.0093(3) 0.8627(3) 0.1547 Uani
C2 C 0.5478(2) 1.0116(2) 0.8858(3) 0.1527 Uani
O12 O 0.59239(18) 1.01026(17) 0.86508(15) 0.1717 Uani
C3 C 0.5583(2) 1.0174(2) 0.9103(3) 0.1477 Uani
C4 C 0.5223(3) 1.0063(2) 0.8830(2) 0.1667 Uani
H1 H 0.5770 1.0204 0.9116 0.1770 Uiso
C5 C 0.5419(2) 1.0191(2) 0.9350(2) 0.1610 Uani
C6 C 0.5035(3) 1.0093(2) 0.9064(3) 0.1930 Uani
H2 H 0.5156 1.0005 0.8662 0.2000 Uiso
H3 H 0.5496 1.0229 0.9519 0.1930 Uiso
C7 C 0.5137(2) 1.0149(2) 0.9318(3) 0.1607 Uani
H4 H 0.4847 1.0073 0.9039 0.2320 Uiso
C8 C 0.4969(2) 1.0178(3) 0.9567(2) 0.1643 Uani
C9 C 0.5003(2) 1.0401(2) 0.9735(2) 0.1583 Uani
H5 H 0.5140 1.0528 0.9700 0.1900 Uiso
Mo3NC Mo 0.64269(2) 0.969150(18) 0.816524(17) 0.1275 Uani
Zn1NB Zn 0.67156(2) 0.94106(2) 0.75518(2) 0.1330 Uani
O1B O 0.60789(10) 1.02619(9) 0.74767(9) 0.0920 Uani
O1NB O 0.64211(10) 0.99767(9) 0.72381(9) 0.0920 Uani
O1NC O 0.64211(10) 1.00233(9) 0.77619(9) 0.0920 Uani
O7B O 0.55877(12) 1.00275(13) 0.77488(13) 0.1430 Uani
O2NB O 0.64601(11) 0.93835(10) 0.72433(11) 0.1233 Uani
O6NB O 0.60442(12) 0.96363(11) 0.69359(10) 0.1247 Uani
O9NC O 0.67920(17) 0.97614(12) 0.80800(11) 0.1577 Uani
O10NC O 0.64657(15) 0.95085(14) 0.84527(13) 0.1770 Uani
O3NC O 0.64072(13) 1.00694(12) 0.83438(12) 0.1450 Uani
O6NC O 0.60442(12) 1.03637(11) 0.80641(10) 0.1247 Uani
O11NB O 0.69521(17) 0.90906(19) 0.75613(17) 0.1577 Uani
O7NC O 0.69123(12) 0.97512(13) 0.75275(13) 0.1430 Uani
Mo1B Mo 0.60679(2) 1.060176(17) 0.708327(17) 0.1273 Uani
Mo2B Mo 0.556035(19) 1.03274(2) 0.74734(2) 0.1451 Uani
Mo3B Mo 0.60731(2) 1.066524(17) 0.780850(18) 0.1275 Uani
Mo3NB Mo 0.64269(2) 1.030850(18) 0.683476(17) 0.1275 Uani
Mo1NB Mo 0.64321(2) 0.958327(17) 0.689824(17) 0.1273 Uani
Mo2NB Mo 0.693965(19) 0.99734(2) 0.71726(2) 0.1451 Uani
Mo1NC Mo 0.64321(2) 1.041673(17) 0.810176(17) 0.1273 Uani
Mo2NC Mo 0.693965(19) 1.00266(2) 0.78274(2) 0.1451 Uani
Zn1B Zn 0.57844(2) 0.99482(2) 0.69106(2) 0.1330 Uani
C1NB C 0.6832(3) 0.8873(3) 0.7593(3) 0.1547 Uani
O2B O 0.60399(11) 1.02567(11) 0.68835(10) 0.1233 Uani
O3B O 0.60928(13) 1.08438(12) 0.74306(12) 0.1450 Uani
O4B O 0.56837(13) 1.05196(12) 0.71782(12) 0.1473 Uani
O5B O 0.60316(15) 1.08552(13) 0.68614(13) 0.1707 Uani
O6B O 0.64558(12) 1.05641(10) 0.71363(11) 0.1247 Uani
O8B O 0.52201(15) 1.03673(17) 0.74665(19) 0.2227 Uani
O9B O 0.57080(17) 1.05800(11) 0.77386(12) 0.1577 Uani
O2NC O 0.64601(11) 1.06165(10) 0.77567(11) 0.1233 Uani
O10B O 0.60343(15) 1.09527(13) 0.79915(14) 0.1770 Uani
O9NB O 0.67920(17) 1.02386(12) 0.69200(11) 0.1577 Uani
O10NB O 0.64657(15) 1.04915(14) 0.65473(13) 0.1770 Uani
O3NB O 0.64072(13) 0.99306(12) 0.66562(12) 0.1450 Uani
O4NB O 0.68163(13) 0.96782(12) 0.69804(12) 0.1473 Uani
O5NB O 0.64684(15) 0.93614(13) 0.66448(13) 0.1707 Uani
O7NB O 0.69123(12) 1.02488(13) 0.74725(13) 0.1430 Uani
O8NB O 0.72799(15) 0.99665(19) 0.71327(17) 0.2227 Uani
O4NC O 0.68163(13) 1.03218(12) 0.80196(12) 0.1473 Uani
O5NC O 0.64684(15) 1.06386(13) 0.83552(13) 0.1707 Uani
O8NC O 0.72799(15) 1.00335(19) 0.78673(17) 0.2227 Uani
O11B O 0.55479(17) 0.99387(17) 0.65906(19) 0.1577 Uani
C2NB C 0.7022(2) 0.8642(3) 0.7616(2) 0.1527 Uani
O12NB O 0.65761(18) 0.88492(15) 0.76026(17) 0.1717 Uani
Zn1NC Zn 0.67156(2) 1.05894(2) 0.74482(2) 0.1330 Uani
C1B C 0.5668(3) 0.9907(3) 0.6373(3) 0.1547 Uani
C3NB C 0.6917(2) 0.8397(3) 0.7674(2) 0.1477 Uani
C4NB C 0.7277(3) 0.8670(2) 0.7563(2) 0.1667 Uani
O11NC O 0.69521(17) 1.09094(19) 0.74387(17) 0.1577 Uani
C2B C 0.5478(2) 0.9884(2) 0.6142(3) 0.1527 Uani
O12B O 0.59239(18) 0.98974(17) 0.63492(15) 0.1717 Uani
H1NB H 0.6730 0.8384 0.7704 0.1770 Uiso
C5NB C 0.7081(2) 0.8150(2) 0.7691(2) 0.1610 Uani
C6NB C 0.7465(3) 0.8436(3) 0.7593(2) 0.1930 Uani
H2NB H 0.7344 0.8838 0.7505 0.2000 Uiso
C3B C 0.5583(2) 0.9826(2) 0.5897(3) 0.1477 Uani
C4B C 0.5223(3) 0.9937(2) 0.6170(2) 0.1667 Uani
H3NB H 0.7004 0.7981 0.7729 0.1930 Uiso
C7NB C 0.7363(2) 0.8182(3) 0.7649(2) 0.1607 Uani
H4NB H 0.7653 0.8461 0.7573 0.2320 Uiso
H1B H 0.5770 0.9796 0.5884 0.1770 Uiso
C5B C 0.5419(2) 0.9809(2) 0.5650(2) 0.1610 Uani
C6B C 0.5035(3) 0.9907(2) 0.5936(3) 0.1930 Uani
H2B H 0.5156 0.9995 0.6338 0.2000 Uiso
C8NB C 0.7531(2) 0.7933(2) 0.7678(3) 0.1643 Uani
H3B H 0.5496 0.9771 0.5481 0.1930 Uiso
C7B C 0.5137(2) 0.9851(2) 0.5682(3) 0.1607 Uani
H4B H 0.4847 0.9927 0.5961 0.2320 Uiso
C9FA C 0.4735(2) 0.9997(2) 0.9599(2) 0.1583 Uani
C9NB C 0.7497(2) 0.7765(2) 0.7901(2) 0.1583 Uani
C9SB C 0.7765(2) 0.7901(2) 0.7497(2) 0.1583 Uani
C8B C 0.4969(2) 0.9822(3) 0.5433(2) 0.1643 Uani
C8GA C 0.4822(3) 1.0433(2) 0.9969(2) 0.1643 Uani
C8FA C 0.4567(2) 1.0031(2) 0.9822(3) 0.1643 Uani
H5FA H 0.4700 0.9860 0.9472 0.1900 Uiso
H5NB H 0.7360 0.7800 0.8028 0.1900 Uiso
C8KB C 0.7678(3) 0.7531(2) 0.7933(2) 0.1643 Uani
C8SB C 0.7933(2) 0.7678(3) 0.7531(2) 0.1643 Uani
H5SB H 0.7800 0.8028 0.7360 0.1900 Uiso
C9B C 0.5003(2) 0.9599(2) 0.5265(2) 0.1583 Uani
C9BA C 0.4735(2) 1.0003(2) 0.5401(2) 0.1583 Uani
C7GA C 0.4851(2) 1.0682(3) 1.0137(2) 0.1607 Uani
C9GA C 0.4599(2) 1.0265(2) 1.0003(2) 0.1583 Uani
C7FA C 0.4318(3) 0.9863(2) 0.9851(2) 0.1607 Uani
C7KB C 0.7649(2) 0.7363(2) 0.8182(3) 0.1607 Uani
C9KB C 0.7901(2) 0.7497(2) 0.7765(2) 0.1583 Uani
C7SB C 0.8182(3) 0.7649(2) 0.7363(2) 0.1607 Uani
H5B H 0.5140 0.9472 0.5300 0.1900 Uiso
C8G C 0.4822(3) 0.9567(2) 0.5031(2) 0.1643 Uani
C8BA C 0.4567(2) 0.9969(2) 0.5178(3) 0.1643 Uani
H5BA H 0.4700 1.0140 0.5528 0.1900 Uiso
C5GA C 0.4809(2) 1.0650(2) 1.0419(2) 0.1610 Uani
C6GA C 0.4907(2) 1.0936(3) 1.0035(3) 0.1930 Uani
H5GA H 0.4472 1.0300 1.0140 0.1900 Uiso
C5FA C 0.4350(2) 0.9581(2) 0.9809(2) 0.1610 Uani
C6FA C 0.4064(3) 0.9965(3) 0.9907(2) 0.1930 Uani
C5KB C 0.7691(2) 0.7081(2) 0.8150(2) 0.1610 Uani
C6KB C 0.7593(2) 0.7465(3) 0.8436(3) 0.1930 Uani
H5KB H 0.8028 0.7360 0.7800 0.1900 Uiso
C5SB C 0.8150(2) 0.7691(2) 0.7081(2) 0.1610 Uani
C6SB C 0.8436(3) 0.7593(2) 0.7465(3) 0.1930 Uani
C7G C 0.4851(2) 0.9318(3) 0.4863(2) 0.1607 Uani
C9G C 0.4599(2) 0.9735(2) 0.4997(2) 0.1583 Uani
C7BA C 0.4318(3) 1.0137(2) 0.5149(2) 0.1607 Uani
C3GA C 0.4826(2) 1.0897(3) 1.0583(2) 0.1477 Uani
H3GA H 0.4771 1.0481 1.0496 0.1930 Uiso
C4GA C 0.4937(2) 1.1170(2) 1.0223(3) 0.1667 Uani
H4GA H 0.4927 1.0961 0.9847 0.2320 Uiso
C3FA C 0.4103(3) 0.9417(2) 0.9826(2) 0.1477 Uani
H3FA H 0.4519 0.9504 0.9771 0.1930 Uiso
C4FA C 0.3830(2) 0.9777(3) 0.9937(2) 0.1667 Uani
H4FA H 0.4039 1.0153 0.9927 0.2320 Uiso
C3KB C 0.7674(2) 0.6917(2) 0.8397(3) 0.1477 Uani
H3KB H 0.7729 0.7004 0.7981 0.1930 Uiso
C4KB C 0.7563(2) 0.7277(3) 0.8670(2) 0.1667 Uani
H4KB H 0.7573 0.7653 0.8461 0.2320 Uiso
C3SB C 0.8397(3) 0.7674(2) 0.6917(2) 0.1477 Uani
H3SB H 0.7981 0.7729 0.7004 0.1930 Uiso
C4SB C 0.8670(2) 0.7563(2) 0.7277(3) 0.1667 Uani
H4SB H 0.8461 0.7573 0.7653 0.2320 Uiso
C5G C 0.4809(2) 0.9350(2) 0.4581(2) 0.1610 Uani
C6G C 0.4907(2) 0.9064(3) 0.4965(3) 0.1930 Uani
H5G H 0.4472 0.9700 0.4860 0.1900 Uiso
C5BA C 0.4350(2) 1.0419(2) 0.5191(2) 0.1610 Uani
C6BA C 0.4064(3) 1.0035(3) 0.5093(2) 0.1930 Uani
C2GA C 0.4884(2) 1.1142(3) 1.0478(2) 0.1527 Uani
H1GA H 0.4796 1.0884 1.0770 0.1770 Uiso
H2GA H 0.4995 1.1338 1.0156 0.2000 Uiso
C2FA C 0.3858(3) 0.9522(2) 0.9884(2) 0.1527 Uani
H1FA H 0.4116 0.9230 0.9796 0.1770 Uiso
H2FA H 0.3662 0.9844 0.9995 0.2000 Uiso
C2KB C 0.7616(2) 0.7022(2) 0.8642(3) 0.1527 Uani
H1KB H 0.7704 0.6730 0.8384 0.1770 Uiso
H2KB H 0.7505 0.7344 0.8838 0.2000 Uiso
C2SB C 0.8642(3) 0.7616(2) 0.7022(2) 0.1527 Uani
H1SB H 0.8384 0.7704 0.6730 0.1770 Uiso
H2SB H 0.8838 0.7505 0.7344 0.2000 Uiso
C3G C 0.4826(2) 0.9103(3) 0.4417(2) 0.1477 Uani
H3G H 0.4771 0.9519 0.4504 0.1930 Uiso
C4G C 0.4937(2) 0.8830(2) 0.4777(3) 0.1667 Uani
H4G H 0.4927 0.9039 0.5153 0.2320 Uiso
C3BA C 0.4103(3) 1.0583(2) 0.5174(2) 0.1477 Uani
H3BA H 0.4519 1.0496 0.5229 0.1930 Uiso
C4BA C 0.3830(2) 1.0223(3) 0.5063(2) 0.1667 Uani
H4BA H 0.4039 0.9847 0.5073 0.2320 Uiso
C1GA C 0.4907(3) 1.1373(3) 1.0668(3) 0.1547 Uani
C1FA C 0.3627(3) 0.9332(3) 0.9907(3) 0.1547 Uani
C1KB C 0.7593(3) 0.6832(3) 0.8873(3) 0.1547 Uani
C1SB C 0.8873(3) 0.7593(3) 0.6832(3) 0.1547 Uani
C2G C 0.4884(2) 0.8858(3) 0.4522(2) 0.1527 Uani
H1G H 0.4796 0.9116 0.4230 0.1770 Uiso
H2G H 0.4995 0.8662 0.4844 0.2000 Uiso
C2BA C 0.3858(3) 1.0478(2) 0.5116(2) 0.1527 Uani
H1BA H 0.4116 1.0770 0.5204 0.1770 Uiso
H2BA H 0.3662 1.0156 0.5005 0.2000 Uiso
O11GA O 0.49387(17) 1.15906(19) 1.05479(17) 0.1577 Uani
O12GA O 0.48974(17) 1.13492(15) 1.09239(18) 0.1717 Uani
O11FA O 0.34094(19) 0.94521(17) 0.99387(17) 0.1577 Uani
O12FA O 0.36508(15) 0.90761(18) 0.98974(17) 0.1717 Uani
O11KB O 0.75613(17) 0.69521(17) 0.90906(19) 0.1577 Uani
O12KB O 0.76026(17) 0.65761(18) 0.88492(15) 0.1717 Uani
O11SB O 0.90906(19) 0.75613(17) 0.69521(17) 0.1577 Uani
O12SB O 0.88492(15) 0.76026(17) 0.65761(18) 0.1717 Uani
C1G C 0.4907(3) 0.8627(3) 0.4332(3) 0.1547 Uani
C1BA C 0.3627(3) 1.0668(3) 0.5093(3) 0.1547 Uani
Zn1GA Zn 0.49482(2) 1.19106(2) 1.07844(2) 0.1330 Uani
Zn1FA Zn 0.30894(2) 0.92156(2) 0.99482(2) 0.1330 Uani
Zn1KB Zn 0.75518(2) 0.67156(2) 0.94106(2) 0.1330 Uani
Zn1SB Zn 0.94106(2) 0.75518(2) 0.67156(2) 0.1330 Uani
O11G O 0.49387(17) 0.84094(19) 0.44521(17) 0.1577 Uani
O12G O 0.48974(17) 0.86508(15) 0.40761(18) 0.1717 Uani
O11BA O 0.34094(19) 1.05479(17) 0.50613(17) 0.1577 Uani
O12BA O 0.36508(15) 1.09239(18) 0.51026(17) 0.1717 Uani
O2GA O 0.52567(11) 1.18835(10) 1.10399(11) 0.1233 Uani
O6QC O 0.46363(11) 1.19359(10) 1.10442(12) 0.1247 Uani
O7CA O 0.49725(13) 1.22512(13) 1.05877(12) 0.1430 Uani
O2FA O 0.31165(10) 0.89601(11) 1.02567(11) 0.1233 Uani
O6HC O 0.30641(10) 0.89558(12) 0.96363(11) 0.1247 Uani
O7F O 0.27488(13) 0.94123(12) 0.99725(13) 0.1430 Uani
O2KB O 0.72433(11) 0.64601(11) 0.93835(10) 0.1233 Uani
O6D O 0.78637(11) 0.64558(12) 0.94359(10) 0.1247 Uani
O7GC O 0.75275(13) 0.69123(12) 0.97512(13) 0.1430 Uani
Zn1G Zn 0.49482(2) 0.80894(2) 0.42156(2) 0.1330 Uani
Zn1BA Zn 0.30894(2) 1.07844(2) 0.50518(2) 0.1330 Uani
Mo1GA Mo 0.560176(17) 1.208327(17) 1.10679(2) 0.1273 Uani
Mo3QC Mo 0.530850(18) 1.183476(17) 1.14269(2) 0.1275 Uani
Mo1QC Mo 0.458327(17) 1.189824(17) 1.14321(2) 0.1273 Uani
Mo3CA Mo 0.433476(17) 1.219150(18) 1.10731(2) 0.1275 Uani
Mo2GA Mo 0.53274(2) 1.24734(2) 1.056035(19) 0.1451 Uani
Mo2CA Mo 0.46726(2) 1.25266(2) 1.056035(19) 0.1451 Uani
Mo1FA Mo 0.291673(17) 0.89321(2) 1.060176(17) 0.1273 Uani
Mo3HC Mo 0.316524(17) 0.85731(2) 1.030850(18) 0.1275 Uani
Mo1HC Mo 0.310176(17) 0.85679(2) 0.958327(17) 0.1273 Uani
Mo3F Mo 0.280850(18) 0.89269(2) 0.933476(17) 0.1275 Uani
Mo2FA Mo 0.25266(2) 0.943965(19) 1.03274(2) 0.1451 Uani
Mo2F Mo 0.24734(2) 0.943965(19) 0.96726(2) 0.1451 Uani
Mo1KB Mo 0.689824(17) 0.64321(2) 0.958327(17) 0.1273 Uani
Mo3D Mo 0.719150(18) 0.60731(2) 0.933476(17) 0.1275 Uani
Mo2KB Mo 0.71726(2) 0.693965(19) 0.99734(2) 0.1451 Uani
Mo2GC Mo 0.78274(2) 0.693965(19) 1.00266(2) 0.1451 Uani
O1GA O 0.52619(9) 1.24767(9) 1.10789(10) 0.0920 Uani
O3GA O 0.58438(12) 1.24306(12) 1.10928(13) 0.1450 Uani
O4GA O 0.55196(12) 1.21782(12) 1.06837(13) 0.1473 Uani
O5GA O 0.58552(13) 1.18614(13) 1.10316(15) 0.1707 Uani
O6GA O 0.55641(10) 1.21363(11) 1.14558(12) 0.1247 Uani
O9QC O 0.52386(12) 1.19200(11) 1.17920(17) 0.1577 Uani
O10QC O 0.54915(14) 1.15473(13) 1.14657(15) 0.1770 Uani
O1QC O 0.49767(9) 1.22381(9) 1.14211(10) 0.0920 Uani
O3QC O 0.49306(12) 1.16562(12) 1.14072(13) 0.1450 Uani
O2QC O 0.43835(10) 1.22433(11) 1.14601(11) 0.1233 Uani
O4QC O 0.46782(12) 1.19804(12) 1.18163(13) 0.1473 Uani
O5QC O 0.43614(13) 1.16448(13) 1.14684(15) 0.1707 Uani
O1CA O 0.47381(9) 1.25233(9) 1.10789(10) 0.0920 Uani
O9CA O 0.44200(11) 1.22614(12) 1.07080(17) 0.1577 Uani
O10CA O 0.40473(13) 1.20085(14) 1.10343(15) 0.1770 Uani
O3CA O 0.41562(12) 1.25694(12) 1.10928(13) 0.1450 Uani
O7GA O 0.50275(13) 1.27488(13) 1.05877(12) 0.1430 Uani
O8GA O 0.53673(17) 1.24665(19) 1.02201(15) 0.2227 Uani
O9GA O 0.55800(11) 1.27386(12) 1.07080(17) 0.1577 Uani
O1FA O 0.25233(9) 0.89211(10) 1.02619(9) 0.0920 Uani
O3FA O 0.25694(12) 0.89072(13) 1.08438(12) 0.1450 Uani
O4FA O 0.28218(12) 0.93163(13) 1.05196(12) 0.1473 Uani
O5FA O 0.31386(13) 0.89684(15) 1.08552(13) 0.1707 Uani
O6FA O 0.28637(11) 0.85442(12) 1.05641(10) 0.1247 Uani
O9HC O 0.30800(11) 0.82080(17) 1.02386(12) 0.1577 Uani
O10HC O 0.34527(13) 0.85343(15) 1.04915(14) 0.1770 Uani
O1HC O 0.27619(9) 0.85789(10) 0.99767(9) 0.0920 Uani
O3HC O 0.33438(12) 0.85928(13) 0.99306(12) 0.1450 Uani
O2HC O 0.27567(11) 0.85399(11) 0.93835(10) 0.1233 Uani
O4HC O 0.30196(12) 0.81837(13) 0.96782(12) 0.1473 Uani
O5HC O 0.33552(13) 0.85316(15) 0.93614(13) 0.1707 Uani
O1F O 0.24767(9) 0.89211(10) 0.97381(9) 0.0920 Uani
O9F O 0.27386(12) 0.92920(17) 0.94200(11) 0.1577 Uani
O10F O 0.29915(14) 0.89657(15) 0.90473(13) 0.1770 Uani
O3F O 0.24306(12) 0.89072(13) 0.91562(12) 0.1450 Uani
O7FA O 0.22512(13) 0.94123(12) 1.00275(13) 0.1430 Uani
O8FA O 0.25335(19) 0.97799(15) 1.03673(17) 0.2227 Uani
O9FA O 0.22614(12) 0.92920(17) 1.05800(11) 0.1577 Uani
O3KB O 0.66562(12) 0.64072(13) 0.99306(12) 0.1450 Uani
O4KB O 0.69804(12) 0.68163(13) 0.96782(12) 0.1473 Uani
O5KB O 0.66448(13) 0.64684(15) 0.93614(13) 0.1707 Uani
O6KB O 0.69359(10) 0.60442(12) 0.96363(11) 0.1247 Uani
O1KB O 0.72381(9) 0.64211(10) 0.99767(9) 0.0920 Uani
O9D O 0.72614(12) 0.57080(17) 0.94200(11) 0.1577 Uani
O10D O 0.70085(14) 0.60343(15) 0.90473(13) 0.1770 Uani
O1D O 0.75233(9) 0.60789(10) 0.97381(9) 0.0920 Uani
O3D O 0.75694(12) 0.60928(13) 0.91562(12) 0.1450 Uani
O7KB O 0.74725(13) 0.69123(12) 1.02488(13) 0.1430 Uani
O8KB O 0.71327(17) 0.72799(15) 0.99665(19) 0.2227 Uani
O9KB O 0.69200(11) 0.67920(17) 1.02386(12) 0.1577 Uani
P1CA P 0.5000 1.2500 1.1250 0.0875 Uani
Mo3GA Mo 0.566524(17) 1.280850(18) 1.10731(2) 0.1275 Uani
Zn1OB Zn 0.55894(2) 1.24482(2) 1.17156(2) 0.1330 Uani
Mo2QC Mo 0.49734(2) 1.21726(2) 1.193965(19) 0.1451 Uani
Zn1QC Zn 0.44106(2) 1.25518(2) 1.17156(2) 0.1330 Uani
Mo1CA Mo 0.439824(17) 1.291673(17) 1.10679(2) 0.1273 Uani
Zn1CA Zn 0.50518(2) 1.30894(2) 1.07844(2) 0.1330 Uani
P1F P 0.2500 0.8750 1.0000 0.0875 Uani
Mo3FA Mo 0.219150(18) 0.89269(2) 1.066524(17) 0.1275 Uani
Zn1FC Zn 0.25518(2) 0.82844(2) 1.05894(2) 0.1330 Uani
Mo2HC Mo 0.28274(2) 0.806035(19) 0.99734(2) 0.1451 Uani
Zn1HC Zn 0.24482(2) 0.82844(2) 0.94106(2) 0.1330 Uani
Mo1F Mo 0.208327(17) 0.89321(2) 0.939824(17) 0.1273 Uani
Zn1F Zn 0.19106(2) 0.92156(2) 1.00518(2) 0.1330 Uani
Mo3KB Mo 0.683476(17) 0.64269(2) 1.030850(18) 0.1275 Uani
Zn1J Zn 0.69106(2) 0.57844(2) 0.99482(2) 0.1330 Uani
Mo2D Mo 0.75266(2) 0.556035(19) 0.96726(2) 0.1451 Uani
Zn1GC Zn 0.74482(2) 0.67156(2) 1.05894(2) 0.1330 Uani
O1OB O 0.50233(9) 1.27619(9) 1.14211(10) 0.0920 Uani
O2OB O 0.56165(10) 1.27567(11) 1.14601(11) 0.1233 Uani
O6OB O 0.53637(11) 1.30641(10) 1.10442(12) 0.1247 Uani
O10GA O 0.59527(13) 1.29915(14) 1.10343(15) 0.1770 Uani
O11OB O 0.59094(19) 1.24387(17) 1.19521(17) 0.1577 Uani
O7QC O 0.52488(13) 1.24725(13) 1.19123(12) 0.1430 Uani
O7OB O 0.47512(13) 1.25275(13) 1.19123(12) 0.1430 Uani
O8QC O 0.49665(19) 1.21327(17) 1.22799(15) 0.2227 Uani
O6CA O 0.44359(10) 1.28637(11) 1.14558(12) 0.1247 Uani
O11QC O 0.40906(19) 1.25613(17) 1.19521(17) 0.1577 Uani
O1FC O 0.22381(9) 0.85789(10) 1.00233(9) 0.0920 Uani
O7HC O 0.25275(13) 0.80877(12) 1.02488(13) 0.1430 Uani
O8HC O 0.28673(17) 0.77201(15) 0.99665(19) 0.2227 Uani
O7FC O 0.24725(13) 0.80877(12) 0.97512(13) 0.1430 Uani
O6F O 0.21363(11) 0.85442(12) 0.94359(10) 0.1247 Uani
O11HC O 0.24387(17) 0.80479(17) 0.90906(19) 0.1577 Uani
Mo1OB Mo 0.541673(17) 1.310176(17) 1.14321(2) 0.1273 Uani
Mo2OB Mo 0.50266(2) 1.28274(2) 1.193965(19) 0.1451 Uani
Mo3OB Mo 0.469150(18) 1.316524(17) 1.14269(2) 0.1275 Uani
C1OB C 0.6127(3) 1.2407(3) 1.1832(3) 0.1547 Uani
Mo1FC Mo 0.189824(17) 0.85679(2) 1.041673(17) 0.1273 Uani
Mo3FC Mo 0.183476(17) 0.85731(2) 0.969150(18) 0.1275 Uani
Mo2FC Mo 0.21726(2) 0.806035(19) 1.00266(2) 0.1451 Uani
O3OB O 0.50694(12) 1.33438(12) 1.14072(13) 0.1450 Uani
O4OB O 0.53218(12) 1.30196(12) 1.18163(13) 0.1473 Uani
O5OB O 0.56386(13) 1.33552(13) 1.14684(15) 0.1707 Uani
O8OB O 0.50335(19) 1.28673(17) 1.22799(15) 0.2227 Uani
O9OB O 0.47614(12) 1.30800(11) 1.17920(17) 0.1577 Uani
C2OB C 0.6358(3) 1.2384(2) 1.2022(2) 0.1527 Uani
O12OB O 0.61508(15) 1.23974(17) 1.15761(18) 0.1717 Uani
C3OB C 0.6603(3) 1.2326(2) 1.1917(2) 0.1477 Uani
C4OB C 0.6330(2) 1.2437(2) 1.2277(3) 0.1667 Uani
H1OB H 0.6616 1.2296 1.1730 0.1770 Uiso
C5OB C 0.6850(2) 1.2309(2) 1.2081(2) 0.1610 Uani
C6OB C 0.6564(3) 1.2407(2) 1.2465(3) 0.1930 Uani
H2OB H 0.6162 1.2495 1.2344 0.2000 Uiso
H3OB H 0.7019 1.2271 1.2004 0.1930 Uiso
C7OB C 0.6818(3) 1.2351(2) 1.2363(2) 0.1607 Uani
H4OB H 0.6539 1.2427 1.2653 0.2320 Uiso
C8OB C 0.7067(2) 1.2322(3) 1.2531(2) 0.1643 Uani
C9OB C 0.7235(2) 1.2099(2) 1.2497(2) 0.1583 Uani
C9JB C 0.7099(2) 1.2503(2) 1.2765(2) 0.1583 Uani
H5OB H 0.7200 1.1972 1.2360 0.1900 Uiso
C8JC C 0.7469(2) 1.2067(2) 1.2678(3) 0.1643 Uani
C8JB C 0.7322(3) 1.2469(2) 1.2933(2) 0.1643 Uani
H5JB H 0.6972 1.2640 1.2800 0.1900 Uiso
C7JC C 0.7637(2) 1.1818(3) 1.2649(2) 0.1607 Uani
C9JC C 0.7503(2) 1.2235(2) 1.2901(2) 0.1583 Uani
C7JB C 0.7351(2) 1.2637(2) 1.3182(3) 0.1607 Uani
C5JC C 0.7919(2) 1.1850(2) 1.2691(2) 0.1610 Uani
C6JC C 0.7535(3) 1.1564(3) 1.2593(2) 0.1930 Uani
H5JC H 0.7640 1.2200 1.3028 0.1900 Uiso
C5JB C 0.7309(2) 1.2919(2) 1.3150(2) 0.1610 Uani
C6JB C 0.7407(2) 1.2535(3) 1.3436(3) 0.1930 Uani
C3JC C 0.8083(2) 1.1603(3) 1.2674(2) 0.1477 Uani
H3JC H 0.7996 1.2019 1.2729 0.1930 Uiso
C4JC C 0.7723(3) 1.1330(2) 1.2563(2) 0.1667 Uani
H4JC H 0.7347 1.1539 1.2573 0.2320 Uiso
C3JB C 0.7326(2) 1.3083(2) 1.3397(3) 0.1477 Uani
H3JB H 0.7271 1.2996 1.2981 0.1930 Uiso
C4JB C 0.7437(2) 1.2723(3) 1.3670(2) 0.1667 Uani
H4JB H 0.7427 1.2347 1.3461 0.2320 Uiso
C2JC C 0.7978(2) 1.1358(3) 1.2616(2) 0.1527 Uani
H1JC H 0.8270 1.1616 1.2704 0.1770 Uiso
H2JC H 0.7656 1.1162 1.2505 0.2000 Uiso
C2JB C 0.7384(2) 1.2978(2) 1.3642(3) 0.1527 Uani
H1JB H 0.7296 1.3270 1.3384 0.1770 Uiso
H2JB H 0.7495 1.2656 1.3838 0.2000 Uiso
C1JC C 0.8168(3) 1.1127(3) 1.2593(3) 0.1547 Uani
C1JB C 0.7407(3) 1.3168(3) 1.3873(3) 0.1547 Uani
O11JC O 0.80479(17) 1.09094(19) 1.25613(17) 0.1577 Uani
O12JC O 0.84239(18) 1.11508(15) 1.26026(17) 0.1717 Uani
O11JB O 0.74387(17) 1.30479(17) 1.40906(19) 0.1577 Uani
O12JB O 0.73974(17) 1.34239(18) 1.38492(15) 0.1717 Uani
Zn1JC Zn 0.82844(2) 1.05894(2) 1.25518(2) 0.1330 Uani
Zn1JB Zn 0.74482(2) 1.32844(2) 1.44106(2) 0.1330 Uani
O2JB O 0.77567(11) 1.35399(11) 1.43835(10) 0.1233 Uani
O6DA O 0.71363(11) 1.35442(12) 1.44359(10) 0.1247 Uani
O7HB O 0.74725(13) 1.30877(12) 1.47512(13) 0.1430 Uani
Mo1JB Mo 0.810176(17) 1.35679(2) 1.458327(17) 0.1273 Uani
Mo3DA Mo 0.780850(18) 1.39269(2) 1.433476(17) 0.1275 Uani
Mo2JB Mo 0.78274(2) 1.306035(19) 1.49734(2) 0.1451 Uani
Mo2HB Mo 0.71726(2) 1.306035(19) 1.50266(2) 0.1451 Uani
O3JB O 0.83438(12) 1.35928(13) 1.49306(12) 0.1450 Uani
O4JB O 0.80196(12) 1.31837(13) 1.46782(12) 0.1473 Uani
O5JB O 0.83552(13) 1.35316(15) 1.43614(13) 0.1707 Uani
O6JB O 0.80641(10) 1.39558(12) 1.46363(11) 0.1247 Uani
O1JB O 0.77619(9) 1.35789(10) 1.49767(9) 0.0920 Uani
O9DA O 0.77386(12) 1.42920(17) 1.44200(11) 0.1577 Uani
O10DA O 0.79915(14) 1.39657(15) 1.40473(13) 0.1770 Uani
O1DA O 0.74767(9) 1.39211(10) 1.47381(9) 0.0920 Uani
O3DA O 0.74306(12) 1.39072(13) 1.41562(12) 0.1450 Uani
O7JB O 0.75275(13) 1.30877(12) 1.52488(13) 0.1430 Uani
O8JB O 0.78673(17) 1.27201(15) 1.49665(19) 0.2227 Uani
O9JB O 0.80800(11) 1.32080(17) 1.52386(12) 0.1577 Uani
Mo3JB Mo 0.816524(17) 1.35731(2) 1.530850(18) 0.1275 Uani
Zn1H Zn 0.80894(2) 1.42156(2) 1.49482(2) 0.1330 Uani
Mo2DA Mo 0.74734(2) 1.443965(19) 1.46726(2) 0.1451 Uani
Zn1HB Zn 0.75518(2) 1.32844(2) 1.55894(2) 0.1330 Uani
loop_
_atom_site_aniso_label
_atom_site_aniso_U_11
_atom_site_aniso_U_22
_atom_site_aniso_U_33
_atom_site_aniso_U_23
_atom_site_aniso_U_13
_atom_site_aniso_U_12
Mo1 0.1691(10) 0.0969(6) 0.1159(7) 0.0306(5) 0.0079(6) 0.0066(6)
O1 0.109(4) 0.078(3) 0.089(3) 0.008(3) -0.005(3) -0.003(3)
O2 0.147(5) 0.135(5) 0.088(4) 0.053(3) 0.018(3) 0.021(4)
O3 0.194(6) 0.118(5) 0.123(5) 0.006(4) -0.013(4) -0.038(4)
O4 0.174(6) 0.136(5) 0.132(5) 0.041(4) 0.023(4) -0.026(4)
O5 0.231(8) 0.137(5) 0.144(6) 0.050(4) 0.004(5) 0.010(5)
O6 0.148(5) 0.089(4) 0.137(5) 0.015(3) -0.032(4) 0.005(3)
P1 0.105(3) 0.0788(17) 0.0788(17) 0.000 0.000 0.000
Mo2 0.1210(8) 0.1468(9) 0.1675(9) 0.0546(8) -0.0074(6) -0.0267(6)
Mo3 0.1653 0.0911 0.126 -0.0032 -0.0319 -0.0112
Zn1 0.1474(10) 0.1273(9) 0.1242(10) 0.0261(7) 0.0560(8) 0.0172(8)
O7 0.149(5) 0.147(5) 0.133(5) 0.039(4) -0.047(4) -0.015(4)
O8 0.141(7) 0.222(8) 0.305(10) 0.079(7) -0.004(6) -0.062(6)
O9 0.266 0.088 0.119 -0.011 -0.009 -0.062
O10 0.238 0.127 0.166 -0.008 -0.06 -0.05
O11 0.145(7) 0.165(7) 0.163(7) -0.015(6) 0.070(6) 0.000(5)
C1 0.143(13) 0.178(11) 0.143(12) -0.024(10) 0.044(13) -0.016(10)
C2 0.113(9) 0.178(10) 0.167(12) -0.036(8) 0.036(9) -0.054(7)
O12 0.166(7) 0.219(8) 0.130(6) -0.039(5) 0.049(6) -0.033(7)
C3 0.145(6) 0.152(6) 0.146(6) -0.005(5) 0.027(6) -0.016(5)
C4 0.158(8) 0.192(8) 0.150(7) -0.058(6) 0.038(7) -0.026(7)
C5 0.154(6) 0.173(6) 0.156(6) -0.032(5) 0.031(6) -0.027(5)
C6 0.178(8) 0.209(9) 0.192(8) -0.026(7) 0.031(8) -0.041(7)
C7 0.137(7) 0.179(8) 0.166(8) -0.038(7) 0.037(7) -0.052(6)
C8 0.160(7) 0.177(7) 0.156(7) -0.075(6) 0.075(6) -0.058(6)
C9 0.149(7) 0.163(7) 0.163(7) -0.052(7) 0.057(6) -0.047(6)
Mo3NC 0.1653(10) 0.1260(7) 0.0911(6) 0.0032(5) -0.0112(6) 0.0319(6)
Zn1NB 0.1474 0.1242 0.1273 -0.0261 -0.0172 0.056
O1B 0.109 0.078 0.089 0.008 0.005 0.003
O1NB 0.109 0.089 0.078 -0.008 0.003 -0.005
O1NC 0.109 0.089 0.078 -0.008 -0.003 0.005
O7B 0.149 0.147 0.133 0.039 0.047 0.015
O2NB 0.147 0.088 0.135 -0.053 -0.021 0.018
O6NB 0.148 0.137 0.089 -0.015 -0.005 -0.032
O9NC 0.266(9) 0.119(5) 0.088(4) 0.011(4) -0.062(5) 0.009(5)
O10NC 0.238(8) 0.166(6) 0.127(5) 0.008(5) -0.050(5) 0.060(6)
O3NC 0.194 0.123 0.118 -0.006 -0.038 0.013
O6NC 0.148 0.137 0.089 -0.015 0.005 0.032
O11NB 0.145 0.163 0.165 0.015 0 0.07
O7NC 0.149 0.133 0.147 -0.039 -0.015 0.047
Mo1B 0.1691 0.0969 0.1159 0.0306 -0.0079 -0.0066
Mo2B 0.121 0.1468 0.1675 0.0546 0.0074 0.0267
Mo3B 0.1653 0.0911 0.126 -0.0032 0.0319 0.0112
Mo3NB 0.1653 0.126 0.0911 0.0032 0.0112 -0.0319
Mo1NB 0.1691 0.1159 0.0969 -0.0306 -0.0066 0.0079
Mo2NB 0.121 0.1675 0.1468 -0.0546 0.0267 -0.0074
Mo1NC 0.1691 0.1159 0.0969 -0.0306 0.0066 -0.0079
Mo2NC 0.121 0.1675 0.1468 -0.0546 -0.0267 0.0074
Zn1B 0.1474 0.1273 0.1242 0.0261 -0.056 -0.0172
C1NB 0.143 0.143 0.178 0.024 0.016 0.044
O2B 0.147 0.135 0.088 0.053 -0.018 -0.021
O3B 0.194 0.118 0.123 0.006 0.013 0.038
O4B 0.174 0.136 0.132 0.041 -0.023 0.026
O5B 0.231 0.137 0.144 0.05 -0.004 -0.01
O6B 0.148 0.089 0.137 0.015 0.032 -0.005
O8B 0.141 0.222 0.305 0.079 0.004 0.062
O9B 0.266 0.088 0.119 -0.011 0.009 0.062
O2NC 0.147 0.088 0.135 -0.053 0.021 -0.018
O10B 0.238 0.127 0.166 -0.008 0.06 0.05
O9NB 0.266 0.119 0.088 0.011 0.062 -0.009
O10NB 0.238 0.166 0.127 0.008 0.05 -0.06
O3NB 0.194 0.123 0.118 -0.006 0.038 -0.013
O4NB 0.174 0.132 0.136 -0.041 0.026 0.023
O5NB 0.231 0.144 0.137 -0.05 -0.01 0.004
O7NB 0.149 0.133 0.147 -0.039 0.015 -0.047
O8NB 0.141 0.305 0.222 -0.079 0.062 -0.004
O4NC 0.174 0.132 0.136 -0.041 -0.026 -0.023
O5NC 0.231 0.144 0.137 -0.05 0.01 -0.004
O8NC 0.141 0.305 0.222 -0.079 -0.062 0.004
O11B 0.145 0.165 0.163 -0.015 -0.07 0
C2NB 0.113 0.167 0.178 0.036 0.054 0.036
O12NB 0.166 0.13 0.219 0.039 0.033 0.049
Zn1NC 0.1474 0.1242 0.1273 -0.0261 0.0172 -0.056
C1B 0.143 0.178 0.143 -0.024 -0.044 0.016
C3NB 0.145 0.146 0.152 0.005 0.016 0.027
C4NB 0.158 0.15 0.192 0.058 0.026 0.038
O11NC 0.145 0.163 0.165 0.015 0 -0.07
C2B 0.113 0.178 0.167 -0.036 -0.036 0.054
O12B 0.166 0.219 0.13 -0.039 -0.049 0.033
C5NB 0.154 0.156 0.173 0.032 0.027 0.031
C6NB 0.178 0.192 0.209 0.026 0.041 0.031
C3B 0.145 0.152 0.146 -0.005 -0.027 0.016
C4B 0.158 0.192 0.15 -0.058 -0.038 0.026
C7NB 0.137 0.166 0.179 0.038 0.052 0.037
C5B 0.154 0.173 0.156 -0.032 -0.031 0.027
C6B 0.178 0.209 0.192 -0.026 -0.031 0.041
C8NB 0.16 0.156 0.177 0.075 0.058 0.075
C7B 0.137 0.179 0.166 -0.038 -0.037 0.052
C9FA 0.163 0.149 0.163 -0.047 0.052 -0.057
C9NB 0.149 0.163 0.163 0.052 0.047 0.057
C9SB 0.163 0.163 0.149 0.047 0.057 0.052
C8B 0.16 0.177 0.156 -0.075 -0.075 0.058
C8GA 0.177 0.156 0.16 -0.075 0.058 -0.075
C8FA 0.156 0.16 0.177 -0.058 0.075 -0.075
C8KB 0.177 0.16 0.156 0.075 0.075 0.058
C8SB 0.156 0.177 0.16 0.058 0.075 0.075
C9B 0.149 0.163 0.163 -0.052 -0.057 0.047
C9BA 0.163 0.149 0.163 -0.047 -0.052 0.057
C7GA 0.179 0.166 0.137 -0.037 0.052 -0.038
C9GA 0.163 0.163 0.149 -0.057 0.047 -0.052
C7FA 0.166 0.137 0.179 -0.052 0.038 -0.037
C7KB 0.179 0.137 0.166 0.037 0.038 0.052
C9KB 0.163 0.149 0.163 0.057 0.052 0.047
C7SB 0.166 0.179 0.137 0.052 0.037 0.038
C8G 0.177 0.156 0.16 -0.075 -0.058 0.075
C8BA 0.156 0.16 0.177 -0.058 -0.075 0.075
C5GA 0.173 0.156 0.154 -0.031 0.027 -0.032
C6GA 0.209 0.192 0.178 -0.031 0.041 -0.026
C5FA 0.156 0.154 0.173 -0.027 0.032 -0.031
C6FA 0.192 0.178 0.209 -0.041 0.026 -0.031
C5KB 0.173 0.154 0.156 0.031 0.032 0.027
C6KB 0.209 0.178 0.192 0.031 0.026 0.041
C5SB 0.156 0.173 0.154 0.027 0.031 0.032
C6SB 0.192 0.209 0.178 0.041 0.031 0.026
C7G 0.179 0.166 0.137 -0.037 -0.052 0.038
C9G 0.163 0.163 0.149 -0.057 -0.047 0.052
C7BA 0.166 0.137 0.179 -0.052 -0.038 0.037
C3GA 0.152 0.146 0.145 -0.027 0.016 -0.005
C4GA 0.192 0.15 0.158 -0.038 0.026 -0.058
C3FA 0.146 0.145 0.152 -0.016 0.005 -0.027
C4FA 0.15 0.158 0.192 -0.026 0.058 -0.038
C3KB 0.152 0.145 0.146 0.027 0.005 0.016
C4KB 0.192 0.158 0.15 0.038 0.058 0.026
C3SB 0.146 0.152 0.145 0.016 0.027 0.005
C4SB 0.15 0.192 0.158 0.026 0.038 0.058
C5G 0.173 0.156 0.154 -0.031 -0.027 0.032
C6G 0.209 0.192 0.178 -0.031 -0.041 0.026
C5BA 0.156 0.154 0.173 -0.027 -0.032 0.031
C6BA 0.192 0.178 0.209 -0.041 -0.026 0.031
C2GA 0.178 0.167 0.113 -0.036 0.054 -0.036
C2FA 0.167 0.113 0.178 -0.054 0.036 -0.036
C2KB 0.178 0.113 0.167 0.036 0.036 0.054
C2SB 0.167 0.178 0.113 0.054 0.036 0.036
C3G 0.152 0.146 0.145 -0.027 -0.016 0.005
C4G 0.192 0.15 0.158 -0.038 -0.026 0.058
C3BA 0.146 0.145 0.152 -0.016 -0.005 0.027
C4BA 0.15 0.158 0.192 -0.026 -0.058 0.038
C1GA 0.178 0.143 0.143 -0.044 0.016 -0.024
C1FA 0.143 0.143 0.178 -0.016 0.024 -0.044
C1KB 0.178 0.143 0.143 0.044 0.024 0.016
C1SB 0.143 0.178 0.143 0.016 0.044 0.024
C2G 0.178 0.167 0.113 -0.036 -0.054 0.036
C2BA 0.167 0.113 0.178 -0.054 -0.036 0.036
O11GA 0.165 0.163 0.145 -0.07 0 -0.015
O12GA 0.219 0.13 0.166 -0.049 0.033 -0.039
O11FA 0.163 0.145 0.165 0 0.015 -0.07
O12FA 0.13 0.166 0.219 -0.033 0.039 -0.049
O11KB 0.165 0.145 0.163 0.07 0.015 0
O12KB 0.219 0.166 0.13 0.049 0.039 0.033
O11SB 0.163 0.165 0.145 0 0.07 0.015
O12SB 0.13 0.219 0.166 0.033 0.049 0.039
C1G 0.178 0.143 0.143 -0.044 -0.016 0.024
C1BA 0.143 0.143 0.178 -0.016 -0.024 0.044
Zn1GA 0.1273 0.1242 0.1474 -0.056 -0.0172 0.0261
Zn1FA 0.1242 0.1474 0.1273 0.0172 -0.0261 -0.056
Zn1KB 0.1273 0.1474 0.1242 0.056 -0.0261 -0.0172
Zn1SB 0.1242 0.1273 0.1474 -0.0172 0.056 -0.0261
O11G 0.165 0.163 0.145 -0.07 0 0.015
O12G 0.219 0.13 0.166 -0.049 -0.033 0.039
O11BA 0.163 0.145 0.165 0 -0.015 0.07
O12BA 0.13 0.166 0.219 -0.033 -0.039 0.049
O2GA 0.135 0.088 0.147 -0.018 -0.021 0.053
O6QC 0.137 0.089 0.148 -0.005 -0.032 -0.015
O7CA 0.147 0.133 0.149 -0.047 -0.015 0.039
O2FA 0.088 0.147 0.135 0.021 -0.053 -0.018
O6HC 0.089 0.148 0.137 0.032 0.015 -0.005
O7F 0.133 0.149 0.147 0.015 -0.039 -0.047
O2KB 0.135 0.147 0.088 0.018 -0.053 -0.021
O6D 0.137 0.148 0.089 0.005 0.015 -0.032
O7GC 0.147 0.149 0.133 0.047 -0.039 -0.015
Zn1G 0.1273 0.1242 0.1474 -0.056 0.0172 -0.0261
Zn1BA 0.1242 0.1474 0.1273 0.0172 0.0261 0.056
Mo1GA 0.0969 0.1159 0.1691 -0.0079 -0.0066 0.0306
Mo3QC 0.126 0.0911 0.1653 0.0112 -0.0319 0.0032
Mo1QC 0.1159 0.0969 0.1691 -0.0066 0.0079 -0.0306
Mo3CA 0.0911 0.126 0.1653 -0.0319 -0.0112 -0.0032
Mo2GA 0.1468 0.1675 0.121 0.0074 0.0267 0.0546
Mo2CA 0.1468 0.1675 0.121 -0.0074 -0.0267 0.0546
Mo1FA 0.1159 0.1691 0.0969 0.0066 -0.0306 -0.0079
Mo3HC 0.0911 0.1653 0.126 0.0319 -0.0032 0.0112
Mo1HC 0.0969 0.1691 0.1159 -0.0079 0.0306 -0.0066
Mo3F 0.126 0.1653 0.0911 0.0112 0.0032 -0.0319
Mo2FA 0.1675 0.121 0.1468 -0.0267 -0.0546 0.0074
Mo2F 0.1675 0.121 0.1468 0.0267 -0.0546 -0.0074
Mo1KB 0.0969 0.1691 0.1159 0.0079 -0.0306 -0.0066
Mo3D 0.126 0.1653 0.0911 -0.0112 -0.0032 -0.0319
Mo2KB 0.1468 0.121 0.1675 -0.0074 -0.0546 0.0267
Mo2GC 0.1468 0.121 0.1675 0.0074 -0.0546 -0.0267
O1GA 0.078 0.089 0.109 0.005 0.003 0.008
O3GA 0.118 0.123 0.194 0.013 0.038 0.006
O4GA 0.136 0.132 0.174 -0.023 0.026 0.041
O5GA 0.137 0.144 0.231 -0.004 -0.01 0.05
O6GA 0.089 0.137 0.148 0.032 -0.005 0.015
O9QC 0.119 0.088 0.266 0.062 -0.009 0.011
O10QC 0.166 0.127 0.238 0.05 -0.06 0.008
O1QC 0.089 0.078 0.109 0.003 -0.005 -0.008
O3QC 0.123 0.118 0.194 0.038 -0.013 -0.006
O2QC 0.088 0.135 0.147 -0.021 0.018 -0.053
O4QC 0.132 0.136 0.174 0.026 0.023 -0.041
O5QC 0.144 0.137 0.231 -0.01 0.004 -0.05
O1CA 0.078 0.089 0.109 -0.005 -0.003 0.008
O9CA 0.088 0.119 0.266 -0.009 -0.062 -0.011
O10CA 0.127 0.166 0.238 -0.06 -0.05 -0.008
O3CA 0.118 0.123 0.194 -0.013 -0.038 0.006
O7GA 0.147 0.133 0.149 0.047 0.015 0.039
O8GA 0.222 0.305 0.141 0.004 0.062 0.079
O9GA 0.088 0.119 0.266 0.009 0.062 -0.011
O1FA 0.089 0.109 0.078 -0.003 -0.008 0.005
O3FA 0.123 0.194 0.118 -0.038 -0.006 0.013
O4FA 0.132 0.174 0.136 -0.026 -0.041 -0.023
O5FA 0.144 0.231 0.137 0.01 -0.05 -0.004
O6FA 0.137 0.148 0.089 0.005 -0.015 0.032
O9HC 0.088 0.266 0.119 0.009 -0.011 0.062
O10HC 0.127 0.238 0.166 0.06 -0.008 0.05
O1HC 0.078 0.109 0.089 0.005 0.008 0.003
O3HC 0.118 0.194 0.123 0.013 0.006 0.038
O2HC 0.135 0.147 0.088 -0.018 0.053 -0.021
O4HC 0.136 0.174 0.132 -0.023 0.041 0.026
O5HC 0.137 0.231 0.144 -0.004 0.05 -0.01
O1F 0.089 0.109 0.078 0.003 -0.008 -0.005
O9F 0.119 0.266 0.088 0.062 0.011 -0.009
O10F 0.166 0.238 0.127 0.05 0.008 -0.06
O3F 0.123 0.194 0.118 0.038 -0.006 -0.013
O7FA 0.133 0.149 0.147 -0.015 -0.039 0.047
O8FA 0.305 0.141 0.222 -0.062 -0.079 0.004
O9FA 0.119 0.266 0.088 -0.062 0.011 0.009
O3KB 0.118 0.194 0.123 -0.013 -0.006 0.038
O4KB 0.136 0.174 0.132 0.023 -0.041 0.026
O5KB 0.137 0.231 0.144 0.004 -0.05 -0.01
O6KB 0.089 0.148 0.137 -0.032 -0.015 -0.005
O1KB 0.078 0.109 0.089 -0.005 -0.008 0.003
O9D 0.119 0.266 0.088 -0.062 -0.011 -0.009
O10D 0.166 0.238 0.127 -0.05 -0.008 -0.06
O1D 0.089 0.109 0.078 -0.003 0.008 -0.005
O3D 0.123 0.194 0.118 -0.038 0.006 -0.013
O7KB 0.147 0.149 0.133 -0.047 -0.039 0.015
O8KB 0.222 0.141 0.305 -0.004 -0.079 0.062
O9KB 0.088 0.266 0.119 -0.009 0.011 0.062
P1CA 0.0788 0.0788 0.105 0 0 0
Mo3GA 0.0911 0.126 0.1653 0.0319 0.0112 -0.0032
Zn1OB 0.1242 0.1273 0.1474 0.0172 -0.056 -0.0261
Mo2QC 0.1675 0.1468 0.121 0.0267 -0.0074 -0.0546
Zn1QC 0.1242 0.1273 0.1474 -0.0172 0.056 -0.0261
Mo1CA 0.0969 0.1159 0.1691 0.0079 0.0066 0.0306
Zn1CA 0.1273 0.1242 0.1474 0.056 0.0172 0.0261
P1F 0.0788 0.105 0.0788 0 0 0
Mo3FA 0.126 0.1653 0.0911 -0.0112 0.0032 0.0319
Zn1FC 0.1273 0.1474 0.1242 0.056 0.0261 0.0172
Mo2HC 0.1468 0.121 0.1675 0.0074 0.0546 0.0267
Zn1HC 0.1273 0.1474 0.1242 -0.056 0.0261 -0.0172
Mo1F 0.1159 0.1691 0.0969 -0.0066 -0.0306 0.0079
Zn1F 0.1242 0.1474 0.1273 -0.0172 -0.0261 0.056
Mo3KB 0.0911 0.1653 0.126 -0.0319 0.0032 0.0112
Zn1J 0.1242 0.1474 0.1273 -0.0172 0.0261 -0.056
Mo2D 0.1675 0.121 0.1468 -0.0267 0.0546 -0.0074
Zn1GC 0.1273 0.1474 0.1242 -0.056 -0.0261 0.0172
O1OB 0.089 0.078 0.109 -0.003 0.005 -0.008
O2OB 0.088 0.135 0.147 0.021 -0.018 -0.053
O6OB 0.137 0.089 0.148 0.005 0.032 -0.015
O10GA 0.127 0.166 0.238 0.06 0.05 -0.008
O11OB 0.163 0.165 0.145 0 -0.07 0.015
O7QC 0.133 0.147 0.149 0.015 -0.047 -0.039
O7OB 0.133 0.147 0.149 -0.015 0.047 -0.039
O8QC 0.305 0.222 0.141 0.062 -0.004 -0.079
O6CA 0.089 0.137 0.148 -0.032 0.005 0.015
O11QC 0.163 0.165 0.145 0 0.07 0.015
O1FC 0.078 0.109 0.089 -0.005 0.008 -0.003
O7HC 0.147 0.149 0.133 0.047 0.039 0.015
O8HC 0.222 0.141 0.305 0.004 0.079 0.062
O7FC 0.147 0.149 0.133 -0.047 0.039 -0.015
O6F 0.137 0.148 0.089 -0.005 -0.015 -0.032
O11HC 0.165 0.145 0.163 -0.07 -0.015 0
Mo1OB 0.1159 0.0969 0.1691 0.0066 -0.0079 -0.0306
Mo2OB 0.1675 0.1468 0.121 -0.0267 0.0074 -0.0546
Mo3OB 0.126 0.0911 0.1653 -0.0112 0.0319 0.0032
C1OB 0.143 0.178 0.143 -0.016 -0.044 0.024
Mo1FC 0.0969 0.1691 0.1159 0.0079 0.0306 0.0066
Mo3FC 0.0911 0.1653 0.126 -0.0319 -0.0032 -0.0112
Mo2FC 0.1468 0.121 0.1675 -0.0074 0.0546 -0.0267
O3OB 0.123 0.118 0.194 -0.038 0.013 -0.006
O4OB 0.132 0.136 0.174 -0.026 -0.023 -0.041
O5OB 0.144 0.137 0.231 0.01 -0.004 -0.05
O8OB 0.305 0.222 0.141 -0.062 0.004 -0.079
O9OB 0.119 0.088 0.266 -0.062 0.009 0.011
C2OB 0.167 0.178 0.113 -0.054 -0.036 0.036
O12OB 0.13 0.219 0.166 -0.033 -0.049 0.039
C3OB 0.146 0.152 0.145 -0.016 -0.027 0.005
C4OB 0.15 0.192 0.158 -0.026 -0.038 0.058
C5OB 0.156 0.173 0.154 -0.027 -0.031 0.032
C6OB 0.192 0.209 0.178 -0.041 -0.031 0.026
C7OB 0.166 0.179 0.137 -0.052 -0.037 0.038
C8OB 0.156 0.177 0.16 -0.058 -0.075 0.075
C9OB 0.163 0.163 0.149 -0.047 -0.057 0.052
C9JB 0.163 0.149 0.163 -0.057 -0.052 0.047
C8JC 0.16 0.156 0.177 -0.075 -0.058 0.075
C8JB 0.177 0.16 0.156 -0.075 -0.075 0.058
C7JC 0.137 0.166 0.179 -0.038 -0.052 0.037
C9JC 0.149 0.163 0.163 -0.052 -0.047 0.057
C7JB 0.179 0.137 0.166 -0.037 -0.038 0.052
C5JC 0.154 0.156 0.173 -0.032 -0.027 0.031
C6JC 0.178 0.192 0.209 -0.026 -0.041 0.031
C5JB 0.173 0.154 0.156 -0.031 -0.032 0.027
C6JB 0.209 0.178 0.192 -0.031 -0.026 0.041
C3JC 0.145 0.146 0.152 -0.005 -0.016 0.027
C4JC 0.158 0.15 0.192 -0.058 -0.026 0.038
C3JB 0.152 0.145 0.146 -0.027 -0.005 0.016
C4JB 0.192 0.158 0.15 -0.038 -0.058 0.026
C2JC 0.113 0.167 0.178 -0.036 -0.054 0.036
C2JB 0.178 0.113 0.167 -0.036 -0.036 0.054
C1JC 0.143 0.143 0.178 -0.024 -0.016 0.044
C1JB 0.178 0.143 0.143 -0.044 -0.024 0.016
O11JC 0.145 0.163 0.165 -0.015 0 0.07
O12JC 0.166 0.13 0.219 -0.039 -0.033 0.049
O11JB 0.165 0.145 0.163 -0.07 -0.015 0
O12JB 0.219 0.166 0.13 -0.049 -0.039 0.033
Zn1JC 0.1474 0.1242 0.1273 0.0261 0.0172 0.056
Zn1JB 0.1273 0.1474 0.1242 -0.056 0.0261 -0.0172
O2JB 0.135 0.147 0.088 -0.018 0.053 -0.021
O6DA 0.137 0.148 0.089 -0.005 -0.015 -0.032
O7HB 0.147 0.149 0.133 -0.047 0.039 -0.015
Mo1JB 0.0969 0.1691 0.1159 -0.0079 0.0306 -0.0066
Mo3DA 0.126 0.1653 0.0911 0.0112 0.0032 -0.0319
Mo2JB 0.1468 0.121 0.1675 0.0074 0.0546 0.0267
Mo2HB 0.1468 0.121 0.1675 -0.0074 0.0546 -0.0267
O3JB 0.118 0.194 0.123 0.013 0.006 0.038
O4JB 0.136 0.174 0.132 -0.023 0.041 0.026
O5JB 0.137 0.231 0.144 -0.004 0.05 -0.01
O6JB 0.089 0.148 0.137 0.032 0.015 -0.005
O1JB 0.078 0.109 0.089 0.005 0.008 0.003
O9DA 0.119 0.266 0.088 0.062 0.011 -0.009
O10DA 0.166 0.238 0.127 0.05 0.008 -0.06
O1DA 0.089 0.109 0.078 0.003 -0.008 -0.005
O3DA 0.123 0.194 0.118 0.038 -0.006 -0.013
O7JB 0.147 0.149 0.133 0.047 0.039 0.015
O8JB 0.222 0.141 0.305 0.004 0.079 0.062
O9JB 0.088 0.266 0.119 0.009 -0.011 0.062
Mo3JB 0.0911 0.1653 0.126 0.0319 -0.0032 0.0112
Zn1H 0.1242 0.1474 0.1273 0.0172 -0.0261 -0.056
Mo2DA 0.1675 0.121 0.1468 0.0267 -0.0546 -0.0074
Zn1HB 0.1273 0.1474 0.1242 0.056 0.0261 0.0172
loop_
_geom_bond_atom_site_label_1
_geom_bond_atom_site_label_2
_geom_bond_site_symmetry_1
_geom_bond_site_symmetry_2
Mo1 O1 1_555 1_555
O1 P1 1_555 1_555
O2 Mo1 1_555 1_555
O3 Mo1 1_555 1_555
O4 Mo1 1_555 1_555
O5 Mo1 1_555 1_555
O6 Mo1 1_555 1_555
P1 O1B 1_555 1_555
Mo2 O1 1_555 1_555
Mo3 O1 1_555 1_555
Zn1 O2 1_555 1_555
O7 Mo2 1_555 1_555
O8 Mo2 1_555 1_555
O9 Mo2 1_555 1_555
O10 Mo3 1_555 1_555
O11 Zn1 1_555 1_555
C1 O11 1_555 1_555
C2 C1 1_555 1_555
O12 C1 1_555 1_555
C3 C2 1_555 1_555
C4 C2 1_555 1_555
H1 C3 1_555 1_555
C5 C3 1_555 1_555
C6 C4 1_555 1_555
H2 C4 1_555 1_555
H3 C5 1_555 1_555
C7 C5 1_555 1_555
H4 C6 1_555 1_555
C8 C7 1_555 1_555
C9 C8 1_555 1_555
H5 C9 1_555 1_555
Mo3NC O2 1_555 1_555
Zn1NB O6 1_555 1_555
O1B Mo1B 1_555 1_555
O1NB P1 1_555 1_555
O1NC P1 1_555 1_555
O7B Mo2 1_555 1_555
O2NB Mo3 1_555 1_555
O6NB Mo3 1_555 1_555
O9NC Mo3NC 1_555 1_555
O10NC Mo3NC 1_555 1_555
O3NC Mo3NC 1_555 1_555
O6NC Zn1 1_555 1_555
O11NB Zn1NB 1_555 1_555
O7NC Zn1NB 1_555 1_555
Mo1B O2B 1_555 1_555
Mo2B O7 1_555 1_555
Mo3B O1B 1_555 1_555
Mo3NB O1NB 1_555 1_555
Mo1NB O1NB 1_555 1_555
Mo2NB O1NB 1_555 1_555
Mo1NC O1NC 1_555 1_555
Mo2NC O1NC 1_555 1_555
Zn1B O7 1_555 1_555
C1NB O11NB 1_555 1_555
O2B Mo3NB 1_555 1_555
O3B Mo1B 1_555 1_555
O4B Mo1B 1_555 1_555
O5B Mo1B 1_555 1_555
O6B Mo1B 1_555 1_555
O8B Mo2B 1_555 1_555
O9B Mo2B 1_555 1_555
O2NC Mo3B 1_555 1_555
O10B Mo3B 1_555 1_555
O9NB Mo3NB 1_555 1_555
O10NB Mo3NB 1_555 1_555
O3NB Mo3NB 1_555 1_555
O4NB Mo1NB 1_555 1_555
O5NB Mo1NB 1_555 1_555
O7NB Mo2NB 1_555 1_555
O8NB Mo2NB 1_555 1_555
O4NC Mo1NC 1_555 1_555
O5NC Mo1NC 1_555 1_555
O8NC Mo2NC 1_555 1_555
O11B Zn1B 1_555 1_555
C2NB C1NB 1_555 1_555
O12NB C1NB 1_555 1_555
Zn1NC O6B 1_555 1_555
C1B O11B 1_555 1_555
C3NB C2NB 1_555 1_555
C4NB C2NB 1_555 1_555
O11NC Zn1NC 1_555 1_555
C2B C1B 1_555 1_555
O12B C1B 1_555 1_555
H1NB C3NB 1_555 1_555
C5NB C3NB 1_555 1_555
C6NB C4NB 1_555 1_555
H2NB C4NB 1_555 1_555
C3B C2B 1_555 1_555
C4B C2B 1_555 1_555
H3NB C5NB 1_555 1_555
C7NB C5NB 1_555 1_555
H4NB C6NB 1_555 1_555
H1B C3B 1_555 1_555
C5B C3B 1_555 1_555
C6B C4B 1_555 1_555
H2B C4B 1_555 1_555
C8NB C7NB 1_555 1_555
H3B C5B 1_555 1_555
C7B C5B 1_555 1_555
H4B C6B 1_555 1_555
C9FA C8 1_555 1_555
C9NB C8NB 1_555 1_555
C9SB C8NB 1_555 1_555
C8B C7B 1_555 1_555
C8GA C9 1_555 1_555
C8FA C9FA 1_555 1_555
H5FA C9FA 1_555 1_555
H5NB C9NB 1_555 1_555
C8KB C9NB 1_555 1_555
C8SB C9SB 1_555 1_555
H5SB C9SB 1_555 1_555
C9B C8B 1_555 1_555
C9BA C8B 1_555 1_555
C7GA C8GA 1_555 1_555
C9GA C8GA 1_555 1_555
C7FA C8FA 1_555 1_555
C7KB C8KB 1_555 1_555
C9KB C8KB 1_555 1_555
C7SB C8SB 1_555 1_555
H5B C9B 1_555 1_555
C8G C9B 1_555 1_555
C8BA C9BA 1_555 1_555
H5BA C9BA 1_555 1_555
C5GA C7GA 1_555 1_555
C6GA C7GA 1_555 1_555
H5GA C9GA 1_555 1_555
C5FA C7FA 1_555 1_555
C6FA C7FA 1_555 1_555
C5KB C7KB 1_555 1_555
C6KB C7KB 1_555 1_555
H5KB C9KB 1_555 1_555
C5SB C7SB 1_555 1_555
C6SB C7SB 1_555 1_555
C7G C8G 1_555 1_555
C9G C8G 1_555 1_555
C7BA C8BA 1_555 1_555
C3GA C5GA 1_555 1_555
H3GA C5GA 1_555 1_555
C4GA C6GA 1_555 1_555
H4GA C6GA 1_555 1_555
C3FA C5FA 1_555 1_555
H3FA C5FA 1_555 1_555
C4FA C6FA 1_555 1_555
H4FA C6FA 1_555 1_555
C3KB C5KB 1_555 1_555
H3KB C5KB 1_555 1_555
C4KB C6KB 1_555 1_555
H4KB C6KB 1_555 1_555
C3SB C5SB 1_555 1_555
H3SB C5SB 1_555 1_555
C4SB C6SB 1_555 1_555
H4SB C6SB 1_555 1_555
C5G C7G 1_555 1_555
C6G C7G 1_555 1_555
H5G C9G 1_555 1_555
C5BA C7BA 1_555 1_555
C6BA C7BA 1_555 1_555
C2GA C3GA 1_555 1_555
H1GA C3GA 1_555 1_555
H2GA C4GA 1_555 1_555
C2FA C3FA 1_555 1_555
H1FA C3FA 1_555 1_555
H2FA C4FA 1_555 1_555
C2KB C3KB 1_555 1_555
H1KB C3KB 1_555 1_555
H2KB C4KB 1_555 1_555
C2SB C3SB 1_555 1_555
H1SB C3SB 1_555 1_555
H2SB C4SB 1_555 1_555
C3G C5G 1_555 1_555
H3G C5G 1_555 1_555
C4G C6G 1_555 1_555
H4G C6G 1_555 1_555
C3BA C5BA 1_555 1_555
H3BA C5BA 1_555 1_555
C4BA C6BA 1_555 1_555
H4BA C6BA 1_555 1_555
C1GA C2GA 1_555 1_555
C1FA C2FA 1_555 1_555
C1KB C2KB 1_555 1_555
C1SB C2SB 1_555 1_555
C2G C3G 1_555 1_555
H1G C3G 1_555 1_555
H2G C4G 1_555 1_555
C2BA C3BA 1_555 1_555
H1BA C3BA 1_555 1_555
H2BA C4BA 1_555 1_555
O11GA C1GA 1_555 1_555
O12GA C1GA 1_555 1_555
O11FA C1FA 1_555 1_555
O12FA C1FA 1_555 1_555
O11KB C1KB 1_555 1_555
O12KB C1KB 1_555 1_555
O11SB C1SB 1_555 1_555
O12SB C1SB 1_555 1_555
C1G C2G 1_555 1_555
C1BA C2BA 1_555 1_555
Zn1GA O11GA 1_555 1_555
Zn1FA O11FA 1_555 1_555
Zn1KB O11KB 1_555 1_555
Zn1SB O11SB 1_555 1_555
O11G C1G 1_555 1_555
O12G C1G 1_555 1_555
O11BA C1BA 1_555 1_555
O12BA C1BA 1_555 1_555
O2GA Zn1GA 1_555 1_555
O6QC Zn1GA 1_555 1_555
O7CA Zn1GA 1_555 1_555
O2FA Zn1FA 1_555 1_555
O6HC Zn1FA 1_555 1_555
O7F Zn1FA 1_555 1_555
O2KB Zn1KB 1_555 1_555
O6D Zn1KB 1_555 1_555
O7GC Zn1KB 1_555 1_555
Zn1G O11G 1_555 1_555
Zn1BA O11BA 1_555 1_555
Mo1GA O2GA 1_555 1_555
Mo3QC O2GA 1_555 1_555
Mo1QC O6QC 1_555 1_555
Mo3CA O6QC 1_555 1_555
Mo2GA O7CA 1_555 1_555
Mo2CA O7CA 1_555 1_555
Mo1FA O2FA 1_555 1_555
Mo3HC O2FA 1_555 1_555
Mo1HC O6HC 1_555 1_555
Mo3F O6HC 1_555 1_555
Mo2FA O7F 1_555 1_555
Mo2F O7F 1_555 1_555
Mo1KB O2KB 1_555 1_555
Mo3D O2KB 1_555 1_555
Mo2KB O7GC 1_555 1_555
Mo2GC O7GC 1_555 1_555
O1GA Mo1GA 1_555 1_555
O3GA Mo1GA 1_555 1_555
O4GA Mo1GA 1_555 1_555
O5GA Mo1GA 1_555 1_555
O6GA Mo1GA 1_555 1_555
O9QC Mo3QC 1_555 1_555
O10QC Mo3QC 1_555 1_555
O1QC Mo3QC 1_555 1_555
O3QC Mo3QC 1_555 1_555
O2QC Mo1QC 1_555 1_555
O4QC Mo1QC 1_555 1_555
O5QC Mo1QC 1_555 1_555
O1CA Mo3CA 1_555 1_555
O9CA Mo3CA 1_555 1_555
O10CA Mo3CA 1_555 1_555
O3CA Mo3CA 1_555 1_555
O7GA Mo2GA 1_555 1_555
O8GA Mo2GA 1_555 1_555
O9GA Mo2GA 1_555 1_555
O1FA Mo1FA 1_555 1_555
O3FA Mo1FA 1_555 1_555
O4FA Mo1FA 1_555 1_555
O5FA Mo1FA 1_555 1_555
O6FA Mo1FA 1_555 1_555
O9HC Mo3HC 1_555 1_555
O10HC Mo3HC 1_555 1_555
O1HC Mo3HC 1_555 1_555
O3HC Mo3HC 1_555 1_555
O2HC Mo1HC 1_555 1_555
O4HC Mo1HC 1_555 1_555
O5HC Mo1HC 1_555 1_555
O1F Mo3F 1_555 1_555
O9F Mo3F 1_555 1_555
O10F Mo3F 1_555 1_555
O3F Mo3F 1_555 1_555
O7FA Mo2FA 1_555 1_555
O8FA Mo2FA 1_555 1_555
O9FA Mo2FA 1_555 1_555
O3KB Mo1KB 1_555 1_555
O4KB Mo1KB 1_555 1_555
O5KB Mo1KB 1_555 1_555
O6KB Mo1KB 1_555 1_555
O1KB Mo1KB 1_555 1_555
O9D Mo3D 1_555 1_555
O10D Mo3D 1_555 1_555
O1D Mo3D 1_555 1_555
O3D Mo3D 1_555 1_555
O7KB Mo2KB 1_555 1_555
O8KB Mo2KB 1_555 1_555
O9KB Mo2KB 1_555 1_555
P1CA O1GA 1_555 1_555
Mo3GA O1GA 1_555 1_555
Zn1OB O6GA 1_555 1_555
Mo2QC O9QC 1_555 1_555
Zn1QC O2QC 1_555 1_555
Mo1CA O1CA 1_555 1_555
Zn1CA O7GA 1_555 1_555
P1F O1FA 1_555 1_555
Mo3FA O1FA 1_555 1_555
Zn1FC O6FA 1_555 1_555
Mo2HC O9HC 1_555 1_555
Zn1HC O2HC 1_555 1_555
Mo1F O1F 1_555 1_555
Zn1F O7FA 1_555 1_555
Mo3KB O3KB 1_555 1_555
Zn1J O6KB 1_555 1_555
Mo2D O9D 1_555 1_555
Zn1GC O7KB 1_555 1_555
O1OB P1CA 1_555 1_555
O2OB Mo3GA 1_555 1_555
O6OB Mo3GA 1_555 1_555
O10GA Mo3GA 1_555 1_555
O11OB Zn1OB 1_555 1_555
O7QC Zn1OB 1_555 1_555
O7OB Mo2QC 1_555 1_555
O8QC Mo2QC 1_555 1_555
O6CA Zn1QC 1_555 1_555
O11QC Zn1QC 1_555 1_555
O1FC P1F 1_555 1_555
O7HC Zn1FC 1_555 1_555
O8HC Mo2HC 1_555 1_555
O7FC Mo2HC 1_555 1_555
O6F Zn1HC 1_555 1_555
O11HC Zn1HC 1_555 1_555
Mo1OB O1OB 1_555 1_555
Mo2OB O1OB 1_555 1_555
Mo3OB O1OB 1_555 1_555
C1OB O11OB 1_555 1_555
Mo1FC O1FC 1_555 1_555
Mo3FC O1FC 1_555 1_555
Mo2FC O1FC 1_555 1_555
O3OB Mo1OB 1_555 1_555
O4OB Mo1OB 1_555 1_555
O5OB Mo1OB 1_555 1_555
O8OB Mo2OB 1_555 1_555
O9OB Mo2OB 1_555 1_555
C2OB C1OB 1_555 1_555
O12OB C1OB 1_555 1_555
C3OB C2OB 1_555 1_555
C4OB C2OB 1_555 1_555
H1OB C3OB 1_555 1_555
C5OB C3OB 1_555 1_555
C6OB C4OB 1_555 1_555
H2OB C4OB 1_555 1_555
H3OB C5OB 1_555 1_555
C7OB C5OB 1_555 1_555
H4OB C6OB 1_555 1_555
C8OB C7OB 1_555 1_555
C9OB C8OB 1_555 1_555
C9JB C8OB 1_555 1_555
H5OB C9OB 1_555 1_555
C8JC C9OB 1_555 1_555
C8JB C9JB 1_555 1_555
H5JB C9JB 1_555 1_555
C7JC C8JC 1_555 1_555
C9JC C8JC 1_555 1_555
C7JB C8JB 1_555 1_555
C5JC C7JC 1_555 1_555
C6JC C7JC 1_555 1_555
H5JC C9JC 1_555 1_555
C5JB C7JB 1_555 1_555
C6JB C7JB 1_555 1_555
C3JC C5JC 1_555 1_555
H3JC C5JC 1_555 1_555
C4JC C6JC 1_555 1_555
H4JC C6JC 1_555 1_555
C3JB C5JB 1_555 1_555
H3JB C5JB 1_555 1_555
C4JB C6JB 1_555 1_555
H4JB C6JB 1_555 1_555
C2JC C3JC 1_555 1_555
H1JC C3JC 1_555 1_555
H2JC C4JC 1_555 1_555
C2JB C3JB 1_555 1_555
H1JB C3JB 1_555 1_555
H2JB C4JB 1_555 1_555
C1JC C2JC 1_555 1_555
C1JB C2JB 1_555 1_555
O11JC C1JC 1_555 1_555
O12JC C1JC 1_555 1_555
O11JB C1JB 1_555 1_555
O12JB C1JB 1_555 1_555
Zn1JC O11JC 1_555 1_555
Zn1JB O11JB 1_555 1_555
O2JB Zn1JB 1_555 1_555
O6DA Zn1JB 1_555 1_555
O7HB Zn1JB 1_555 1_555
Mo1JB O2JB 1_555 1_555
Mo3DA O2JB 1_555 1_555
Mo2JB O7HB 1_555 1_555
Mo2HB O7HB 1_555 1_555
O3JB Mo1JB 1_555 1_555
O4JB Mo1JB 1_555 1_555
O5JB Mo1JB 1_555 1_555
O6JB Mo1JB 1_555 1_555
O1JB Mo1JB 1_555 1_555
O9DA Mo3DA 1_555 1_555
O10DA Mo3DA 1_555 1_555
O1DA Mo3DA 1_555 1_555
O3DA Mo3DA 1_555 1_555
O7JB Mo2JB 1_555 1_555
O8JB Mo2JB 1_555 1_555
O9JB Mo2JB 1_555 1_555
Mo3JB O3JB 1_555 1_555
Zn1H O6JB 1_555 1_555
Mo2DA O9DA 1_555 1_555
Zn1HB O7JB 1_555 1_555
O3 Mo3 1_555 1_555
O4 Mo2 1_555 1_555
O6 Mo3NC 1_555 1_555
Mo3 O9 1_555 1_555
Zn1 O7B 1_555 1_555
C6 C7 1_555 1_555
Mo3NC O1NC 1_555 1_555
Zn1NB O2NB 1_555 1_555
O1B Mo2B 1_555 1_555
O7B Mo2B 1_555 1_555
O2NB Mo1NB 1_555 1_555
O6NB Mo1NB 1_555 1_555
O6NB Zn1B 1_555 1_555
O9NC Mo2NC 1_555 1_555
O3NC Mo1NC 1_555 1_555
O6NC Mo3B 1_555 1_555
O6NC Mo1NC 1_555 1_555
O7NC Mo2NB 1_555 1_555
O7NC Mo2NC 1_555 1_555
Mo2B O4B 1_555 1_555
Mo3B O3B 1_555 1_555
Mo3B O9B 1_555 1_555
Mo3NB O6B 1_555 1_555
Mo1NB O3NB 1_555 1_555
Mo2NB O9NB 1_555 1_555
Mo2NB O4NB 1_555 1_555
Mo1NC O2NC 1_555 1_555
Mo2NC O7NB 1_555 1_555
Mo2NC O4NC 1_555 1_555
Zn1B O2B 1_555 1_555
O2NC Zn1NC 1_555 1_555
O7NB Zn1NC 1_555 1_555
C6NB C7NB 1_555 1_555
C6B C7B 1_555 1_555
C8FA C9GA 1_555 1_555
C8SB C9KB 1_555 1_555
C8BA C9G 1_555 1_555
C4GA C2GA 1_555 1_555
C4FA C2FA 1_555 1_555
C4KB C2KB 1_555 1_555
C4SB C2SB 1_555 1_555
C4G C2G 1_555 1_555
C4BA C2BA 1_555 1_555
Mo3QC O6GA 1_555 1_555
Mo1QC O1QC 1_555 1_555
Mo1QC O3QC 1_555 1_555
Mo3CA O2QC 1_555 1_555
Mo2GA O1GA 1_555 1_555
Mo2GA O4GA 1_555 1_555
Mo2CA O1CA 1_555 1_555
Mo2CA O9CA 1_555 1_555
Mo2CA O7GA 1_555 1_555
Mo3HC O6FA 1_555 1_555
Mo1HC O1HC 1_555 1_555
Mo1HC O3HC 1_555 1_555
Mo3F O2HC 1_555 1_555
Mo2FA O1FA 1_555 1_555
Mo2FA O4FA 1_555 1_555
Mo2F O1F 1_555 1_555
Mo2F O9F 1_555 1_555
Mo2F O7FA 1_555 1_555
Mo3D O6KB 1_555 1_555
Mo2KB O4KB 1_555 1_555
Mo2KB O1KB 1_555 1_555
Mo2GC O7KB 1_555 1_555
O3GA Mo3GA 1_555 1_555
O1QC P1CA 1_555 1_555
O1QC Mo2QC 1_555 1_555
O4QC Mo2QC 1_555 1_555
O1CA P1CA 1_555 1_555
O3CA Mo1CA 1_555 1_555
O9GA Mo3GA 1_555 1_555
O3FA Mo3FA 1_555 1_555
O1HC P1F 1_555 1_555
O1HC Mo2HC 1_555 1_555
O4HC Mo2HC 1_555 1_555
O1F P1F 1_555 1_555
O3F Mo1F 1_555 1_555
O9FA Mo3FA 1_555 1_555
O1KB Mo3KB 1_555 1_555
O1D Mo2D 1_555 1_555
O9KB Mo3KB 1_555 1_555
Zn1OB O2OB 1_555 1_555
Mo2QC O7QC 1_555 1_555
Zn1QC O7OB 1_555 1_555
Mo1CA O6CA 1_555 1_555
Zn1CA O6OB 1_555 1_555
Mo2HC O7HC 1_555 1_555
Zn1HC O7FC 1_555 1_555
Mo1F O6F 1_555 1_555
O2OB Mo1OB 1_555 1_555
O6OB Mo1OB 1_555 1_555
O7QC Mo2OB 1_555 1_555
O7OB Mo2OB 1_555 1_555
O6CA Mo3OB 1_555 1_555
O7HC Mo2FC 1_555 1_555
O7FC Mo2FC 1_555 1_555
O6F Mo3FC 1_555 1_555
Mo2OB O4OB 1_555 1_555
Mo3OB O3OB 1_555 1_555
Mo3OB O9OB 1_555 1_555
C6OB C7OB 1_555 1_555
C8JB C9JC 1_555 1_555
C4JC C2JC 1_555 1_555
C4JB C2JB 1_555 1_555
Mo3DA O6JB 1_555 1_555
Mo2JB O4JB 1_555 1_555
Mo2JB O1JB 1_555 1_555
Mo2HB O7JB 1_555 1_555
O1JB Mo3JB 1_555 1_555
O1DA Mo2DA 1_555 1_555
O9JB Mo3JB 1_555 1_555

#END
