
#######################################################################
#
#                 Cambridge Crystallographic Data Centre
#                                CCDC 
#
#######################################################################
#
# If this CIF has been generated from an entry in the Cambridge 
# Structural Database, then it will include bibliographic, chemical, 
# crystal, experimental, refinement or atomic coordinate data resulting 
# from the CCDC's data processing and validation procedures.
#
#######################################################################

data_MOQNUB
_chemical_formula_moiety         '(C4 H20 Mg4 N4 O16 P4)n'
_symmetry_cell_setting           monoclinic
_symmetry_space_group_name_H-M   'C 2/c'
_symmetry_Int_Tables_number      15
_space_group_name_Hall           '-C 2yc'
loop_
_symmetry_equiv_pos_site_id
_symmetry_equiv_pos_as_xyz
1 x,y,z
2 -x,y,1/2-z
3 1/2+x,1/2+y,z
4 1/2-x,1/2+y,1/2-z
5 -x,-y,-z
6 x,-y,1/2+z
7 1/2-x,1/2-y,-z
8 1/2+x,1/2-y,1/2+z
_cell_length_a                   20.9098(8)
_cell_length_b                   17.8855(7)
_cell_length_c                   14.7913(6)
_cell_angle_alpha                90
_cell_angle_beta                 134.842(2)
_cell_angle_gamma                90
_cell_volume                     3922.26
loop_
_atom_site_label
_atom_site_type_symbol
_atom_site_fract_x
_atom_site_fract_y
_atom_site_fract_z
Mg1 Mg 0.6337(2) 0.5791(1) 0.8697(2)
Mg2 Mg 0.8661(1) 0.4172(1) 1.1202(2)
Mg3 Mg 0.4866(1) 0.6686(1) 1.1062(2)
Mg4 Mg 0.5011(1) 0.8299(1) 0.8846(2)
P1 P 0.5120(1) 0.6450(1) 0.9141(2)
P2 P 0.8503(1) 0.6002(1) 1.1141(2)
P3 P 0.6496(1) 0.3955(1) 0.8964(2)
P4 P 1.0044(1) 0.3496(1) 1.4039(2)
O1 O 0.5787(3) 0.5965(3) 0.9299(2)
O2 O 0.5369(3) 0.7265(3) 0.9253(4)
O3 O 0.4149(3) 0.6279(2) 0.7857(4)
O4 O 0.5197(3) 0.6232(2) 1.0229(4)
O5 O 0.9112(3) 0.6126(3) 1.0934(4)
O6 O 0.8792(3) 0.6510(2) 1.2222(4)
O7 O 0.8516(3) 0.5192(2) 1.1478(4)
O8 O 0.7528(3) 0.6233(2) 0.9898(4)
O9 O 0.6387(3) 0.4745(3) 0.8498(4)
O10 O 0.5918(3) 0.3403(2) 0.7850(4)
O11 O 0.7491(3) 0.3707(2) 0.9848(4)
O12 O 0.6227(3) 0.3894(3) 0.9709(4)
O13 O 0.9148(3) 0.3526(2) 1.2629(4)
O14 O 1.0463(3) 0.2717(2) 1.4446(4)
O15 O 1.0703(3) 0.4079(2) 1.4290(5)
O16 O 0.9860(3) 0.3746(2) 1.4839(4)
O3A O 0.5851(3) 0.6279(2) 0.7143(4)
O15A O 0.9297(3) 0.4079(2) 1.0710(5)
O10E O 0.5918(3) 0.6597(2) 1.2850(4)
O12D O 0.3773(3) 0.6106(3) 1.0291(4)
O14C O 0.4537(3) 0.7717(2) 1.0554(4)
O5F O 0.5888(3) 0.8874(3) 0.9066(4)
O6G O 0.3792(3) 0.8490(2) 0.7222(4)
O16C O 0.5140(3) 0.8746(2) 1.0161(4)
Mg1A Mg 0.3663(2) 0.5791(1) 0.6303(2)
Mg4F Mg 0.9989(1) 0.6701(1) 1.1154(2)
Mg4G Mg 1.0011(1) 0.6701(1) 1.3846(2)
Mg3E Mg 0.4866(1) 0.3314(1) 0.6062(2)
Mg3D Mg 0.5134(1) 0.3314(1) 0.8938(2)
Mg3C Mg 1.0134(1) 0.1686(1) 1.3938(2)
Mg2A Mg 1.1339(1) 0.4172(1) 1.3798(2)
Mg4C Mg 0.9989(1) 0.3299(1) 1.6154(2)
N1 N 0.1204(4) 0.5010(3) 0.6262(5)
N2 N 0.3739(4) 0.5053(3) 0.8758(5)
C1 C 0.2831(4) 0.4716(4) 0.7832(6)
C2 C 0.2119(4) 0.5328(4) 0.7085(6)
H1 H 0.1088(6) 0.4709(12) 0.5670(20)
H2 H 0.0795(16) 0.5385(14) 0.5870(16)
H3 H 0.1169(4) 0.4741(11) 0.6744(18)
H4 H 0.3849(6) 0.5317(10) 0.8304(16)
H5 H 0.4188(17) 0.4661(14) 0.9280(20)
H6 H 0.3778(4) 0.5401(13) 0.9300(20)
H13 H 0.2741(6) 0.4409(14) 0.8280(20)
H14 H 0.2775(5) 0.4393(15) 0.7240(30)
H15 H 0.2226(6) 0.5690(17) 0.7690(30)
H16 H 0.2167(5) 0.5599(13) 0.6550(20)
N3 N 0.7586(4) 0.2534(3) 0.1335(5)
N4 N 0.7659(4) 0.2513(3) 0.3938(5)
C3 C 0.7604(4) 0.2203(4) 0.2269(6)
C4 C 0.7597(4) 0.2825(4) 0.2960(6)
H7 H 0.7113(18) 0.2849(12) 0.0820(20)
H8 H 0.7532(4) 0.2166(14) 0.0865(19)
H9 H 0.8103(19) 0.2788(10) 0.1752(15)
H10 H 0.7274(14) 0.2112(15) 0.3605(12)
H11 H 0.7501(7) 0.2873(13) 0.4196(11)
H12 H 0.8240(20) 0.2358(7) 0.4630(30)
H17 H 0.8150(20) 0.1896(14) 0.2890(30)
H18 H 0.7080(20) 0.1879(15) 0.1827(19)
H19 H 0.8140(20) 0.3187(15) 0.3390(17)
H20 H 0.7000(20) 0.3136(13) 0.2300(30)
loop_
_geom_bond_atom_site_label_1
_geom_bond_atom_site_label_2
_geom_bond_site_symmetry_1
_geom_bond_site_symmetry_2
Mg1 O1 1_555 1_555
Mg2 O7 1_555 1_555
Mg3 O4 1_555 1_555
Mg4 O2 1_555 1_555
P1 O1 1_555 1_555
P2 O5 1_555 1_555
P3 O9 1_555 1_555
P4 O13 1_555 1_555
O2 P1 1_555 1_555
O3 P1 1_555 1_555
O4 P1 1_555 1_555
O5 Mg4F 1_555 1_555
O6 P2 1_555 1_555
O7 P2 1_555 1_555
O8 Mg1 1_555 1_555
O9 Mg1 1_555 1_555
O10 P3 1_555 1_555
O11 Mg2 1_555 1_555
O12 P3 1_555 1_555
O13 Mg2 1_555 1_555
O14 P4 1_555 1_555
O15 P4 1_555 1_555
O16 P4 1_555 1_555
N1 C2 1_555 1_555
N2 C1 1_555 1_555
N3 C3 1_555 1_555
N4 C4 1_555 1_555
C1 C2 1_555 1_555
C2 H15 1_555 1_555
C3 C4 1_555 1_555
C4 H19 1_555 1_555
H1 N1 1_555 1_555
H2 N1 1_555 1_555
H3 N1 1_555 1_555
H4 N2 1_555 1_555
H5 N2 1_555 1_555
H6 N2 1_555 1_555
H7 N3 1_555 1_555
H8 N3 1_555 1_555
H9 N3 1_555 1_555
H10 N4 1_555 1_555
H11 N4 1_555 1_555
H12 N4 1_555 1_555
H13 C1 1_555 1_555
H14 C1 1_555 1_555
H16 C2 1_555 1_555
H17 C3 1_555 1_555
H18 C3 1_555 1_555
H20 C4 1_555 1_555
O3A Mg1 1_555 1_555
O15A Mg2 1_555 1_555
O10E Mg3 1_555 1_555
O12D Mg3 1_555 1_555
O14C Mg3 1_555 1_555
O5F Mg4 1_555 1_555
O6G Mg4 1_555 1_555
O16C Mg4 1_555 1_555
Mg1A O3 1_555 1_555
Mg4G O6 1_555 1_555
Mg3E O10 1_555 1_555
Mg3D O12 1_555 1_555
Mg3C O14 1_555 1_555
Mg2A O15 1_555 1_555
Mg4C O16 1_555 1_555
P2 O8 1_555 1_555
P3 O11 1_555 1_555

#END
