
#######################################################################
#
#                 Cambridge Crystallographic Data Centre
#                                CCDC 
#
#######################################################################
#
# If this CIF has been generated from an entry in the Cambridge 
# Structural Database, then it will include bibliographic, chemical, 
# crystal, experimental, refinement or atomic coordinate data resulting 
# from the CCDC's data processing and validation procedures.
#
#######################################################################

data_KEXFIC
_chemical_formula_moiety         '(C14 H20 Cd2 Cl2 N12 Ni2)n'
_symmetry_cell_setting           orthorhombic
_symmetry_space_group_name_H-M   'P n m a'
_symmetry_Int_Tables_number      62
_space_group_name_Hall           '-P 2ac 2n'
loop_
_symmetry_equiv_pos_site_id
_symmetry_equiv_pos_as_xyz
1 x,y,z
2 1/2-x,-y,1/2+z
3 1/2+x,1/2-y,1/2-z
4 -x,1/2+y,-z
5 -x,-y,-z
6 1/2+x,y,1/2-z
7 1/2-x,1/2+y,1/2+z
8 x,1/2-y,z
_cell_length_a                   13.916(3)
_cell_length_b                   26.638(2)
_cell_length_c                   7.631(4)
_cell_angle_alpha                90
_cell_angle_beta                 90
_cell_angle_gamma                90
_cell_volume                     2828.77
loop_
_atom_site_label
_atom_site_type_symbol
_atom_site_fract_x
_atom_site_fract_y
_atom_site_fract_z
Cl2 Cl -0.0089(7) 0.2500 0.7359(17)
Cd1 Cd 0.21820(5) 0.11477(2) 0.13364(8)
Ni1 Ni 0.24367(12) 0.25000 -0.37090(22)
Ni2 Ni 0.00000 0.00000 0.50000
N1 N 0.2474(7) 0.1722(3) -0.0866(11)
N2 N 0.2344(7) 0.1703(3) -0.6473(12)
N3 N 0.1723(6) 0.0489(3) 0.3391(13)
N4 N 0.3738(6) 0.0829(3) 0.1277(13)
N5 N 0.1790(7) 0.0577(4) -0.0957(14)
N6 N 0.0531(6) 0.1278(3) 0.0815(11)
C1 C 0.2463(7) 0.2012(4) -0.1960(13)
C2 C 0.2386(7) 0.2006(3) -0.5415(12)
C3 C 0.1074(7) 0.0299(3) 0.4017(13)
C4 C 0.4237(6) 0.0520(3) 0.0799(12)
C5 C 0.0766(10) 0.0590(7) -0.1186(28)
C6 C 0.0217(11) 0.0950(8) -0.0554(24)
C7 C -0.0861(9) 0.0972(6) -0.1034(18)
N1G N 0.2474(7) 0.3278(3) -0.0866(11)
C1G C 0.2463(7) 0.2988(4) -0.1960(13)
N2G N 0.2344(7) 0.3297(3) -0.6473(12)
C2G C 0.2386(7) 0.2994(3) -0.5415(12)
Cd1G Cd 0.21820(5) 0.38523(2) 0.13364(8)
N3G N 0.1723(6) 0.4511(3) 0.3391(13)
C3G C 0.1074(7) 0.4701(3) 0.4017(13)
N4G N 0.3738(6) 0.4171(3) 0.1277(13)
C4G C 0.4237(6) 0.4480(3) 0.0799(12)
N5G N 0.1790(7) 0.4423(4) -0.0957(14)
N6G N 0.0531(6) 0.3722(3) 0.0815(11)
C5G C 0.0766(10) 0.4410(7) -0.1186(28)
C6G C 0.0217(11) 0.4050(8) -0.0554(24)
C7G C -0.0861(9) 0.4028(6) -0.1034(18)
N2_2 N 0.2344(7) 0.1703(3) 0.3527(12)
C3D C -0.1074(7) -0.0299(3) 0.5983(13)
C4A C 0.0763(6) -0.0520(3) 0.5799(12)
C4E C -0.0763(6) 0.0520(3) 0.4201(12)
Cd1_2 Cd 0.21820(5) 0.11477(2) -0.86636(8)
Ni2A Ni 0.50000 0.00000 0.00000
Cd1G_2 Cd 0.21820(5) 0.38523(2) -0.86636(8)
N2G_2 N 0.2344(7) 0.3297(3) 0.3527(12)
Ni2G Ni 0.00000 0.50000 0.50000
Ni2F Ni 0.50000 0.50000 0.00000
Cl1 Cl -0.0234(6) 0.2500 0.1823(11)
loop_
_geom_bond_atom_site_label_1
_geom_bond_atom_site_label_2
_geom_bond_site_symmetry_1
_geom_bond_site_symmetry_2
Cd1 N1 1_555 1_555
Ni1 C1 1_555 1_555
Ni2 C3 1_555 1_555
N1 C1 1_555 1_555
N2 C2 1_555 1_555
N3 Cd1 1_555 1_555
N4 Cd1 1_555 1_555
N5 Cd1 1_555 1_555
N6 Cd1 1_555 1_555
C2 Ni1 1_555 1_555
C3 N3 1_555 1_555
C4 N4 1_555 1_555
C5 N5 1_555 1_555
C6 N6 1_555 1_555
C7 C6 1_555 1_555
N1G C1G 1_555 1_555
C1G Ni1 1_555 1_555
N2G C2G 1_555 1_555
C2G Ni1 1_555 1_555
Cd1G N1G 1_555 1_555
N3G Cd1G 1_555 1_555
C3G N3G 1_555 1_555
N4G Cd1G 1_555 1_555
C4G N4G 1_555 1_555
N5G Cd1G 1_555 1_555
N6G Cd1G 1_555 1_555
C5G N5G 1_555 1_555
C6G N6G 1_555 1_555
C7G C6G 1_555 1_555
N2_2 Cd1 1_555 1_555
C3D Ni2 1_555 1_555
C4A Ni2 1_555 1_555
C4E Ni2 1_555 1_555
Cd1_2 N2 1_555 1_555
Ni2A C4 1_555 1_555
Cd1G_2 N2G 1_555 1_555
N2G_2 Cd1G 1_555 1_555
Ni2G C3G 1_555 1_555
Ni2F C4G 1_555 1_555
C5 C6 1_555 1_555
C5G C6G 1_555 1_555

#END
