
#######################################################################
#
#                 Cambridge Crystallographic Data Centre
#                                CCDC 
#
#######################################################################
#
# If this CIF has been generated from an entry in the Cambridge 
# Structural Database, then it will include bibliographic, chemical, 
# crystal, experimental, refinement or atomic coordinate data resulting 
# from the CCDC's data processing and validation procedures.
#
#######################################################################

data_KITVEQ
_chemical_formula_moiety         '(C44 H33 N3 O6 Zn1)n'
_symmetry_cell_setting           orthorhombic
_symmetry_space_group_name_H-M   'P b a 2'
_symmetry_Int_Tables_number      32
_space_group_name_Hall           'P 2 -2ab'
loop_
_symmetry_equiv_pos_site_id
_symmetry_equiv_pos_as_xyz
1 x,y,z
2 -x,-y,z
3 1/2-x,1/2+y,z
4 1/2+x,1/2-y,z
_cell_length_a                   15.749(10)
_cell_length_b                   16.425(11)
_cell_length_c                   15.725(11)
_cell_angle_alpha                90
_cell_angle_beta                 90
_cell_angle_gamma                90
_cell_volume                     4067.7
loop_
_atom_site_label
_atom_site_type_symbol
_atom_site_fract_x
_atom_site_fract_y
_atom_site_fract_z
Zn1 Zn 0.3741(3) 0.0366(3) 0.135(3)
O1 O 0.374(2) -0.0869(19) 0.142(7)
O2 O 0.260(2) -0.458(2) 0.136(7)
O3 O 0.198(2) -0.337(2) 0.144(7)
O4 O 0.512(2) -0.097(2) 0.137(7)
O5 O 0.570(3) -0.401(2) 0.166(5)
N1 N 0.377(5) 0.040(5) -0.729(7)
N2 N 0.384(6) 0.044(5) -0.004(8)
C1 C 0.435(3) -0.219(3) 0.131(8)
C2 C 0.441(3) -0.127(3) 0.137(8)
C3 C 0.390(8) 0.050(8) -0.182(9)
C4 C 0.369(5) -0.025(4) -0.677(6)
H1 H 0.3666 -0.0754 -0.7042
C5 C 0.508(4) -0.264(3) 0.150(8)
H2 H 0.5553 -0.2444 0.1786
C6 C 0.365(6) -0.027(5) -0.593(8)
H3 H 0.3522 -0.0756 -0.5654
C7 C 0.265(3) -0.381(3) 0.123(7)
C8 C 0.350(3) -0.340(3) 0.121(6)
C9 C 0.500(3) -0.350(3) 0.116(7)
C10 C 0.413(8) 0.109(7) -0.125(9)
H4 H 0.4321 0.1572 -0.1484
C11 C 0.389(4) 0.048(4) -0.274(5)
C12 C 0.422(3) -0.387(4) 0.132(9)
H5 H 0.4178 -0.4411 0.1482
C13 C 0.355(3) -0.257(3) 0.125(7)
H6 H 0.3058 -0.2259 0.1230
C14 C 0.392(10) 0.111(9) -0.683(11)
H7 H 0.4008 0.1595 -0.7132
C15 C 0.410(8) 0.105(7) -0.044(9)
H8 H 0.4293 0.1499 -0.0133
C16 C 0.364(12) -0.005(10) -0.123(12)
H9 H 0.3542 -0.0547 -0.1498
C17 C 0.394(11) 0.114(11) -0.592(14)
H10 H 0.4031 0.1625 -0.5639
C18 C 0.381(8) 0.044(7) -0.546(9)
C19 C 0.696(11) -0.310(12) 0.432(13)
C20 C 0.690(19) -0.304(16) 0.343(13)
C21 C 0.778(14) -0.281(11) 0.325(15)
H11 H 0.7891 -0.2819 0.2670
C22 C 0.632(9) -0.356(9) 0.491(5)
C23 C 0.856(15) -0.257(14) 0.376(19)
H12 H 0.9037 -0.2333 0.3506
C24 C 0.852(10) -0.273(14) 0.468(19)
C25 C 0.644(9) -0.359(8) 0.304(10)
C26 C 0.648(6) -0.368(5) 0.198(8)
H13 H 0.6584 -0.3149 0.1733
H14 H 0.6954 -0.4033 0.1828
C27 C 0.581(12) -0.388(11) 0.431(13)
H15 H 0.5395 -0.4176 0.4594
C28 C 0.565(11) -0.396(10) 0.352(13)
H16 H 0.5171 -0.4186 0.3276
C29 C 0.761(16) -0.286(16) 0.494(19)
C30 C 0.679(11) -0.326(9) 0.615(15)
H17 H 0.6807 -0.3358 0.6732
C31 C 0.842(18) -0.266(13) 0.620(18)
H18 H 0.8531 -0.2805 0.6759
C32 C 0.92(2) -0.216(18) 0.48(2)
H19 H 0.9495 -0.1818 0.4474
C33 C 0.605(10) -0.364(13) 0.576(5)
H20 H 0.5560 -0.3855 0.5990
C34 C 0.754(16) -0.277(18) 0.59(2)
C35 C 0.911(19) -0.234(19) 0.568(19)
H21 H 0.9611 -0.2245 0.5984
C36 C 0.350(15) -0.008(15) -0.414(17)
H22 H 0.3288 -0.0521 -0.4437
C37 C 0.420(9) 0.109(9) -0.312(11)
H23 H 0.4467 0.1503 -0.2818
C38 C 0.351(11) -0.013(8) -0.323(9)
H24 H 0.3259 -0.0578 -0.2969
C39 C 0.413(18) 0.113(9) -0.402(11)
H25 H 0.4339 0.1591 -0.4294
C40 C 0.374(9) 0.047(9) -0.455(10)
C41 C 0.345(9) -0.014(8) -0.036(11)
H26 H 0.3121 -0.0540 -0.0100
Zn1_2 Zn 0.3741(3) 0.0366(3) -0.865(3)
Zn1A Zn 0.6259(3) -0.0366(3) 0.135(3)
Zn1B Zn 0.1259(3) -0.4634(3) 0.135(3)
O2B O 0.240(2) 0.042(2) 0.136(7)
O3B O 0.302(2) 0.163(2) 0.144(7)
O4A O 0.488(2) 0.097(2) 0.137(7)
N1_2 N 0.377(5) 0.040(5) 0.271(7)
C42 C 0.141(12) -0.068(8) -0.09(3)
H27 H 0.0927 -0.0781 -0.1189
N3 N 0.184(11) -0.148(14) -0.085(12)
C43 C 0.152(10) -0.139(10) 0.001(11)
H28 H 0.1809 -0.0946 0.0288
H29 H 0.1631 -0.1885 0.0326
H30 H 0.0925 -0.1289 0.0002
C44 C 0.187(10) -0.164(9) -0.173(10)
H31 H 0.2235 -0.1253 -0.2004
H32 H 0.1307 -0.1594 -0.1965
H33 H 0.2080 -0.2180 -0.1826
O6 O 0.133(9) 0.03(2) -0.062(16)
loop_
_geom_bond_atom_site_label_1
_geom_bond_atom_site_label_2
_geom_bond_site_symmetry_1
_geom_bond_site_symmetry_2
Zn1 O1 1_555 1_555
O1 C2 1_555 1_555
O2 C7 1_555 1_555
O3 C7 1_555 1_555
O4 C2 1_555 1_555
O5 C9 1_555 1_555
N1 C4 1_555 1_555
N2 Zn1 1_555 1_555
C1 C2 1_555 1_555
C3 C10 1_555 1_555
C4 H1 1_555 1_555
C5 C1 1_555 1_555
H2 C5 1_555 1_555
C6 C4 1_555 1_555
H3 C6 1_555 1_555
C7 C8 1_555 1_555
C8 C12 1_555 1_555
C9 C5 1_555 1_555
C10 H4 1_555 1_555
C11 C3 1_555 1_555
C12 C9 1_555 1_555
H5 C12 1_555 1_555
C13 C1 1_555 1_555
H6 C13 1_555 1_555
C14 N1 1_555 1_555
H7 C14 1_555 1_555
C15 N2 1_555 1_555
H8 C15 1_555 1_555
C16 C3 1_555 1_555
H9 C16 1_555 1_555
C17 C14 1_555 1_555
H10 C17 1_555 1_555
C18 C6 1_555 1_555
C19 C20 1_555 1_555
C20 C21 1_555 1_555
C21 H11 1_555 1_555
C22 C19 1_555 1_555
C23 C21 1_555 1_555
H12 C23 1_555 1_555
C24 C23 1_555 1_555
C25 C20 1_555 1_555
C26 O5 1_555 1_555
H13 C26 1_555 1_555
H14 C26 1_555 1_555
C27 C22 1_555 1_555
H15 C27 1_555 1_555
C28 C25 1_555 1_555
H16 C28 1_555 1_555
C29 C19 1_555 1_555
C30 H17 1_555 1_555
C31 H18 1_555 1_555
C32 C24 1_555 1_555
H19 C32 1_555 1_555
C33 C22 1_555 1_555
H20 C33 1_555 1_555
C34 C29 1_555 1_555
C35 C31 1_555 1_555
H21 C35 1_555 1_555
C36 H22 1_555 1_555
C37 C11 1_555 1_555
H23 C37 1_555 1_555
C38 C11 1_555 1_555
H24 C38 1_555 1_555
C39 C37 1_555 1_555
H25 C39 1_555 1_555
C40 C18 1_555 1_555
C41 N2 1_555 1_555
H26 C41 1_555 1_555
C42 H27 1_555 1_555
N3 C42 1_555 1_555
C43 N3 1_555 1_555
H28 C43 1_555 1_555
H29 C43 1_555 1_555
H30 C43 1_555 1_555
C44 N3 1_555 1_555
H31 C44 1_555 1_555
H32 C44 1_555 1_555
H33 C44 1_555 1_555
O6 C42 1_555 1_555
Zn1_2 N1 1_555 1_555
Zn1A O4 1_555 1_555
Zn1B O2 1_555 1_555
O2B Zn1 1_555 1_555
O3B Zn1 1_555 1_555
O4A Zn1 1_555 1_555
N1_2 Zn1 1_555 1_555
O3 Zn1B 1_555 1_555
C8 C13 1_555 1_555
C10 C15 1_555 1_555
C16 C41 1_555 1_555
C17 C18 1_555 1_555
C24 C29 1_555 1_555
C25 C26 1_555 1_555
C27 C28 1_555 1_555
C30 C33 1_555 1_555
C30 C34 1_555 1_555
C31 C34 1_555 1_555
C32 C35 1_555 1_555
C36 C38 1_555 1_555
C36 C40 1_555 1_555
C39 C40 1_555 1_555

#END
