
#######################################################################
#
#                 Cambridge Crystallographic Data Centre
#                                CCDC 
#
#######################################################################
#
# If this CIF has been generated from an entry in the Cambridge 
# Structural Database, then it will include bibliographic, chemical, 
# crystal, experimental, refinement or atomic coordinate data resulting 
# from the CCDC's data processing and validation procedures.
#
#######################################################################

data_KITVAM
_chemical_formula_moiety         '(C124 H88 N8 O20 Zn4)n'
_symmetry_cell_setting           triclinic
_symmetry_space_group_name_H-M   'P 1'
_symmetry_Int_Tables_number      1
_space_group_name_Hall           'P 1'
loop_
_symmetry_equiv_pos_site_id
_symmetry_equiv_pos_as_xyz
1 x,y,z
_cell_length_a                   15.657(2)
_cell_length_b                   15.6717(17)
_cell_length_c                   16.3386(18)
_cell_angle_alpha                89.904(7)
_cell_angle_beta                 89.961(8)
_cell_angle_gamma                81.862(9)
_cell_volume                     3968.65
loop_
_atom_site_label
_atom_site_type_symbol
_atom_site_fract_x
_atom_site_fract_y
_atom_site_fract_z
Zn1 Zn 0.44668(13) 0.95195(12) 0.08617(12)
N1 N 0.3116(8) 0.9502(8) 0.0907(8)
O1 O 0.4443(5) 1.0245(6) 0.2112(6)
O2 O 0.4460(5) 0.9529(5) -0.0374(5)
O3 O 0.4323(6) 1.0906(6) 0.0893(7)
N2 N 0.5828(7) 0.9452(7) 0.0824(7)
O4 O 0.4662(5) 0.8357(5) 0.1430(5)
C1 C 0.2628(9) 0.9908(8) 0.0285(9)
C2 C 0.2733(12) 0.9162(12) 0.1476(13)
C3 C 0.4276(8) 1.0939(8) 0.1678(8)
C4 C 0.4146(8) 0.8902(8) -0.0752(8)
H1 H 0.2908 1.0121 -0.0157
C5 C 0.1765(11) 1.0009(12) 0.0290(13)
C6 C 0.1844(10) 0.9070(11) 0.1525(10)
H2 H 0.3074 0.8945 0.1915
C7 C 0.4309(8) 1.1796(8) 0.2078(8)
O5 O 0.4190(7) 0.8164(7) -0.0492(8)
C8 C 0.4226(10) 0.9016(10) -0.1702(10)
O6 O 0.4354(6) 0.6951(7) 0.1326(7)
C9 C 0.1418(8) 0.9440(11) 0.0862(11)
H3 H 0.1423 1.0403 -0.0040
H4 H 0.1592 0.8797 0.1949
C10 C 0.4271(7) 1.1841(7) 0.2975(7)
C11 C 0.4434(7) 1.2465(7) 0.1568(8)
Zn2 Zn 0.43285(13) 0.70355(13) 0.01106(13)
C12 C 0.4218(8) 0.8210(8) -0.2162(8)
C13 C 0.4328(7) 0.9770(7) -0.2070(7)
C14 C 0.0406(8) 0.9426(9) 0.0834(10)
H5 H 0.4154 1.1377 0.3290
C15 C 0.4418(11) 1.2619(10) 0.3333(10)
C16 C 0.4227(8) 1.3303(8) 0.1974(8)
H6 H 0.4627 1.2395 0.1031
O7 O 0.4431(7) 0.6318(7) -0.1127(7)
O8 O 0.4446(9) 0.5678(8) 0.0059(8)
N3 N 0.2882(5) 0.7113(4) 0.0156(4)
N4 N 0.5568(5) 0.7039(4) 0.0109(4)
H7 H 0.4212 0.7685 -0.1898
C17 C 0.4220(11) 0.8272(10) -0.2981(11)
C18 C 0.4374(8) 0.9845(8) -0.2882(8)
C19 C -0.0069(9) 0.9404(8) 0.1532(8)
C20 C -0.0134(12) 0.9749(12) 0.0215(13)
C21 C 0.4419(12) 1.2677(13) 0.4204(13)
C22 C 0.4289(12) 1.3400(11) 0.2888(12)
O9 O 0.4220(7) 1.4028(7) 0.1454(7)
C23 C 0.4231(10) 0.5673(10) -0.0664(10)
C24 C 0.2573(11) 0.6804(11) 0.0839(11)
C25 C 0.2484(13) 0.7558(13) -0.0352(16)
O10 O 0.4464(8) 0.7526(7) -0.3467(7)
C26 C 0.4251(9) 0.9082(9) -0.3394(10)
C27 C 0.4311(7) 1.0664(6) -0.3311(6)
H8 H 0.0238 0.9306 0.2018
C28 C -0.0903(11) 0.9506(11) 0.1589(11)
C29 C -0.0918(16) 0.9849(16) 0.0288(16)
H9 H 0.0104 0.9897 -0.0278
O11 O 0.4552(7) 1.3401(6) 0.4563(7)
O12 O 0.4254(6) 1.2020(6) 0.4623(6)
H10 H 0.4246 1.3936 0.3141
C30 C 0.3848(10) 1.4788(9) 0.1792(10)
C31 C 0.4268(10) 0.4845(9) -0.1102(9)
C32 C 0.1677(14) 0.6796(13) 0.0826(12)
H11 H 0.2919 0.6611 0.1284
H12 H 0.2783 0.7898 -0.0682
C33 C 0.1557(11) 0.7594(10) -0.0481(10)
C34 C 0.3896(9) 0.6810(11) -0.3220(13)
H13 H 0.4196 0.9128 -0.3959
O13 O 0.4350(7) 1.0683(7) -0.4106(7)
O14 O 0.4262(6) 1.1350(6) -0.2917(7)
C35 C -0.1427(10) 0.9526(13) 0.0838(13)
H14 H -0.1168 0.9566 0.2099
H15 H -0.1213 1.0210 -0.0103
Zn3 Zn 0.43508(12) 1.45340(10) 0.51128(9)
Zn4 Zn 0.42024(10) 1.20540(9) 0.58644(9)
H16 H 0.3904 1.5256 0.1415
H17 H 0.4151 1.4892 0.2292
C36 C 0.2836(12) 1.4780(11) 0.1997(11)
C37 C 0.4421(9) 0.4027(8) -0.0622(9)
C38 C 0.4243(8) 0.4766(7) -0.1903(7)
C39 C 0.1251(9) 0.7048(12) 0.0076(11)
H18 H 0.1379 0.6635 0.1281
H19 H 0.1229 0.7927 -0.0870
H20 H 0.4014 0.6353 -0.3622
H21 H 0.4122 0.6571 -0.2703
C40 C 0.2899(10) 0.6994(11) -0.3124(13)
C41 C -0.2424(8) 0.9487(9) 0.0834(9)
O15 O 0.4353(8) 1.5274(8) 0.3839(9)
O16 O 0.4266(9) 1.5905(8) 0.5073(8)
N5 N 0.5816(5) 1.4470(5) 0.5118(5)
O17 O 0.4363(8) 1.4591(8) 0.6288(9)
N6 N 0.3186(5) 1.4546(5) 0.5118(6)
C42 C 0.2449(13) 1.5385(14) 0.2587(13)
C43 C 0.2381(15) 1.4347(13) 0.1398(14)
H22 H 0.4690 0.3987 -0.0114
C44 C 0.4118(12) 0.3309(12) -0.1014(12)
C45 C 0.4266(9) 0.3966(8) -0.2346(8)
H23 H 0.4209 0.5270 -0.2211
C46 C 0.0246(7) 0.7114(9) 0.0108(7)
C47 C 0.2531(13) 0.6630(11) -0.2479(13)
C48 C 0.2405(13) 0.7385(12) -0.3720(14)
N7 N 0.5737(8) 1.2062(8) -0.4038(9)
O18 O 0.4053(6) 1.3217(6) -0.3523(6)
N8 N 0.2857(6) 1.2140(6) -0.4183(6)
C49 C -0.2761(10) 0.9075(10) 0.1386(10)
C50 C -0.2868(13) 0.9897(13) 0.0289(13)
C51 C 0.4326(11) 1.5904(9) 0.4354(9)
C52 C 0.6227(7) 1.4141(7) 0.4553(8)
C53 C 0.6138(13) 1.4808(12) 0.5621(13)
H24 H 0.2742 1.5749 0.2895
C54 C 0.1490(15) 1.5343(17) 0.2636(17)
H25 H 0.2683 1.4187 0.0919
C55 C 0.1514(16) 1.4129(16) 0.1444(15)
O19 O 0.4168(6) 0.2615(6) -0.0510(6)
C56 C 0.4208(11) 0.3226(12) -0.1843(12)
C57 C 0.4272(9) 0.3908(10) -0.3262(10)
C58 C -0.0209(9) 0.7273(9) -0.0517(9)
C59 C -0.0198(9) 0.7047(9) 0.0949(7)
C60 C 0.157(2) 0.6587(19) -0.2477(19)
H26 H 0.2870 0.6408 -0.2040
C61 C 0.1483(16) 0.7486(19) -0.3450(19)
H27 H 0.2602 0.7565 -0.4219
C62 C 0.5945(9) 1.2517(9) -0.3496(9)
C63 C 0.6051(14) 1.1789(12) -0.4670(14)
H28 H -0.2404 0.8751 0.1761
C64 C -0.3665(9) 0.9093(9) 0.1449(9)
C65 C -0.3754(11) 0.9813(11) 0.0329(11)
H29 H -0.2637 1.0227 -0.0106
C66 C 0.4379(9) 1.6816(8) 0.3936(8)
H30 H 0.5917 1.4027 0.4090
C67 C 0.7201(10) 1.3891(13) 0.4513(12)
C68 C 0.6997(15) 1.4725(14) 0.5764(16)
H31 H 0.5781 1.5174 0.5964
C69 C 0.1106(16) 1.4782(15) 0.2001(16)
H32 H 0.1146 1.5645 0.3034
H33 H 0.1281 1.3687 0.1185
C70 C 0.3902(12) 0.1794(12) -0.0810(14)
H34 H 0.4232 0.2685 -0.2083
H35 H 0.0081 0.7238 -0.1016
C71 C -0.1126(15) 0.7502(15) -0.0551(16)
H36 H 0.0123 0.6951 0.1427
C72 C -0.1249(16) 0.7150(14) 0.0963(11)
C73 C 0.102(2) 0.7073(17) -0.2996(18)
H37 H 0.1355 0.6219 -0.2110
H38 H 0.1166 0.7979 -0.3670
H39 H 0.5574 1.2793 -0.3103
C74 C 0.6826(13) 1.2565(14) -0.3550(14)
C75 C 0.6905(8) 1.1681(8) -0.4774(7)
H40 H 0.5697 1.1650 -0.5092
H41 H -0.3908 0.8866 0.1905
H42 H -0.4081 1.0082 -0.0098
C76 C 0.4242(9) 1.7458(9) 0.4376(10)
C77 C 0.4363(7) 1.6814(7) 0.3074(7)
C78 C 0.7394(9) 1.4508(11) 0.5059(11)
H43 H 0.7549 1.3466 0.4220
H44 H 0.7260 1.4804 0.6263
H45 H 0.0507 1.4879 0.1968
H46 H 0.4136 0.1651 -0.1350
H47 H 0.4092 0.1322 -0.0439
C79 C 0.2920(12) 0.1985(10) -0.0835(12)
C80 C -0.1597(10) 0.7009(10) 0.0101(10)
H48 H -0.1408 0.7899 -0.0919
H49 H -0.1589 0.7275 0.1427
H50 H 0.0420 0.7098 -0.3015
C81 C 0.7208(8) 1.2132(9) -0.4091(9)
H51 H 0.7103 1.2902 -0.3197
H52 H 0.7228 1.1385 -0.5189
H53 H 0.4142 1.7397 0.4933
C82 C 0.4236(11) 1.8307(11) 0.4026(11)
C83 C 0.4314(10) 1.7621(9) 0.2614(10)
H54 H 0.4383 1.6295 0.2795
C84 C 0.8401(10) 1.4515(11) 0.5101(12)
C85 C 0.2481(15) 0.1632(12) -0.1470(13)
C86 C 0.2352(12) 0.2402(10) -0.0259(12)
C87 C -0.2530(9) 0.7020(9) 0.0099(9)
C88 C 0.8236(9) 1.2146(11) -0.4128(13)
O20 O 0.4440(7) 1.8966(7) 0.4522(8)
C89 C 0.4195(12) 1.8393(12) 0.3095(12)
C90 C 0.4331(7) 1.7655(7) 0.1756(7)
C91 C 0.8828(12) 1.4928(12) 0.5612(12)
C92 C 0.8887(8) 1.4242(8) 0.4477(8)
H55 H 0.2803 0.1403 -0.1918
C93 C 0.158(3) 0.160(2) -0.148(2)
H56 H 0.2545 0.2632 0.0220
C94 C 0.1456(19) 0.2456(17) -0.0447(18)
C95 C -0.3008(12) 0.7351(12) -0.0377(12)
C96 C -0.2912(10) 0.6708(10) 0.0697(11)
C97 C 0.8709(11) 1.2313(12) -0.3505(12)
C98 C 0.8708(14) 1.2052(13) -0.4735(15)
C99 C 0.3909(8) 1.9781(10) 0.4203(10)
H57 H 0.4095 1.8932 0.2846
C100 C 0.9768(11) 1.4602(11) 0.5906(12)
H58 H 0.8557 1.5451 0.5815
C101 C 0.9811(13) 1.4509(13) 0.4340(14)
H59 H 0.8680 1.3877 0.4100
H60 H 0.1390 0.1206 -0.1832
C102 C 0.1039(19) 0.2036(17) -0.1066(17)
H61 H 0.1089 0.2823 -0.0112
C103 C -0.3935(10) 0.7480(10) -0.0483(11)
H62 H -0.2729 0.7598 -0.0800
C104 C -0.3799(15) 0.6731(15) 0.0729(17)
H63 H -0.2581 0.6455 0.1129
H64 H 0.8412 1.2586 -0.3063
C105 C 0.9611(11) 1.2131(11) -0.3419(12)
H65 H 0.8414 1.1932 -0.5206
C106 C 0.9667(7) 1.2088(7) -0.4892(7)
H66 H 0.4147 1.9914 0.3677
H67 H 0.3992 2.0246 0.4572
C107 C 0.2911(10) 1.9795(12) 0.4089(13)
H68 H 0.9982 1.4473 0.6430
C108 C 1.0227(10) 1.4558(10) 0.5088(10)
H69 H 1.0044 1.4618 0.3833
H70 H 0.0446 0.2085 -0.1146
H71 H -0.4202 0.7821 -0.0902
H72 H -0.4016 0.6522 0.1208
C109 C 1.0072(7) 1.2105(8) -0.4159(8)
H73 H 0.9881 1.2035 -0.2914
H74 H 0.9928 1.2098 -0.5403
C110 C 0.2335(17) 2.0296(15) 0.3490(15)
C111 C 0.2410(16) 1.9304(14) 0.4604(14)
C112 C 1.1204(8) 1.4562(7) 0.5107(7)
C113 C 1.1073(7) 1.2116(9) -0.4159(9)
H75 H 0.2612 2.0620 0.3124
C114 C 0.1431(19) 2.036(2) 0.3382(19)
C115 C 0.1563(15) 1.9215(15) 0.4525(15)
H76 H 0.2701 1.9016 0.5042
C116 C 1.1716(9) 1.4163(8) 0.4525(8)
C117 C 1.1589(12) 1.4965(12) 0.5590(12)
C118 C 1.1446(9) 1.2485(8) -0.3568(9)
C119 C 1.1536(11) 1.1705(11) -0.4776(11)
H77 H 0.1101 2.0723 0.3014
C120 C 0.112(2) 1.9781(17) 0.3933(17)
H78 H 0.1299 1.8822 0.4827
H79 H 1.1485 1.3850 0.4118
C121 C 1.2641(11) 1.4223(10) 0.4532(11)
C122 C 1.2513(9) 1.4976(8) 0.5707(8)
H80 H 1.1235 1.5323 0.5942
H81 H 1.1121 1.2659 -0.3106
C123 C 1.2361(10) 1.2644(9) -0.3589(10)
C124 C 1.2478(10) 1.1817(9) -0.4804(9)
H82 H 1.1291 1.1375 -0.5159
H83 H 0.0529 1.9767 0.3905
H84 H 1.2929 1.4008 0.4061
H85 H 1.2695 1.5258 0.6162
H86 H 1.2583 1.3033 -0.3247
H87 H 1.2797 1.1654 -0.5272
Zn4_2 Zn 0.42024(10) 1.20540(9) -0.41356(9)
O12_2 O 0.4254(6) 1.2020(6) -0.5377(6)
O18_2 O 0.4053(6) 0.3217(6) -0.3523(6)
O17_2 O 0.4363(8) 0.4591(8) -0.3712(9)
N2_2 N -0.4172(7) 0.9452(7) 0.0824(7)
Zn4_3 Zn 0.42024(10) 0.20540(9) -0.41356(9)
Zn3_2 Zn 0.43508(12) 0.45340(10) -0.48872(9)
Zn1_2 Zn -0.55332(13) 0.95195(12) 0.08617(12)
O4_2 O 0.4662(5) 1.8357(5) 0.1430(5)
O6_2 O 0.4354(6) 1.6951(7) 0.1326(7)
Zn1_3 Zn 0.44668(13) 1.95195(12) 0.08617(12)
Zn2_2 Zn 0.43285(13) 1.70355(13) 0.01106(13)
N4_2 N -0.4432(5) 0.7039(4) 0.0109(4)
Zn2_3 Zn -0.56715(13) 0.70355(13) 0.01106(13)
N6_2 N 1.3186(5) 1.4546(5) 0.5118(6)
N8_2 N 1.2857(6) 1.2140(6) -0.4183(6)
Zn3_3 Zn 1.43508(12) 1.45340(10) 0.51128(9)
Zn4_4 Zn 1.42024(10) 1.20540(9) -0.41356(9)
loop_
_geom_bond_atom_site_label_1
_geom_bond_atom_site_label_2
_geom_bond_site_symmetry_1
_geom_bond_site_symmetry_2
Zn1 N1 1_555 1_555
N1 C1 1_555 1_555
O1 Zn1 1_555 1_555
O2 Zn1 1_555 1_555
O3 Zn1 1_555 1_555
N2 Zn1 1_555 1_555
O4 Zn1 1_555 1_555
C1 H1 1_555 1_555
C2 N1 1_555 1_555
C3 O1 1_555 1_555
C4 O2 1_555 1_555
C5 C1 1_555 1_555
C6 C2 1_555 1_555
H2 C2 1_555 1_555
C7 C3 1_555 1_555
O5 C4 1_555 1_555
C8 C4 1_555 1_555
O6 Zn2 1_555 1_555
C9 C5 1_555 1_555
H3 C5 1_555 1_555
H4 C6 1_555 1_555
C10 C7 1_555 1_555
C11 C7 1_555 1_555
Zn2 O5 1_555 1_555
C12 C8 1_555 1_555
C13 C8 1_555 1_555
C14 C9 1_555 1_555
H5 C10 1_555 1_555
C15 C10 1_555 1_555
C16 C11 1_555 1_555
H6 C11 1_555 1_555
O7 Zn2 1_555 1_555
O8 Zn2 1_555 1_555
N3 Zn2 1_555 1_555
N4 Zn2 1_555 1_555
H7 C12 1_555 1_555
C17 C12 1_555 1_555
C18 C13 1_555 1_555
C19 C14 1_555 1_555
C20 C14 1_555 1_555
C21 C15 1_555 1_555
C22 C15 1_555 1_555
O9 C16 1_555 1_555
C23 O7 1_555 1_555
C24 N3 1_555 1_555
C25 N3 1_555 1_555
O10 C17 1_555 1_555
C26 C17 1_555 1_555
C27 C18 1_555 1_555
H8 C19 1_555 1_555
C28 C19 1_555 1_555
C29 C20 1_555 1_555
H9 C20 1_555 1_555
O11 C21 1_555 1_555
O12 C21 1_555 1_555
H10 C22 1_555 1_555
C30 O9 1_555 1_555
C31 C23 1_555 1_555
C32 C24 1_555 1_555
H11 C24 1_555 1_555
H12 C25 1_555 1_555
C33 C25 1_555 1_555
C34 O10 1_555 1_555
H13 C26 1_555 1_555
O13 C27 1_555 1_555
O14 C27 1_555 1_555
C35 C28 1_555 1_555
H14 C28 1_555 1_555
H15 C29 1_555 1_555
Zn3 O11 1_555 1_555
Zn4 O12 1_555 1_555
H16 C30 1_555 1_555
H17 C30 1_555 1_555
C36 C30 1_555 1_555
C37 C31 1_555 1_555
C38 C31 1_555 1_555
C39 C32 1_555 1_555
H18 C32 1_555 1_555
H19 C33 1_555 1_555
H20 C34 1_555 1_555
H21 C34 1_555 1_555
C40 C34 1_555 1_555
C41 C35 1_555 1_555
O15 Zn3 1_555 1_555
O16 Zn3 1_555 1_555
N5 Zn3 1_555 1_555
O17 Zn3 1_555 1_555
N6 Zn3 1_555 1_555
C42 C36 1_555 1_555
C43 C36 1_555 1_555
H22 C37 1_555 1_555
C44 C37 1_555 1_555
C45 C38 1_555 1_555
H23 C38 1_555 1_555
C46 C39 1_555 1_555
C47 C40 1_555 1_555
C48 C40 1_555 1_555
N7 C62 1_555 1_555
O18 Zn4_2 1_555 1_555
N8 Zn4_2 1_555 1_555
C49 C41 1_555 1_555
C50 C41 1_555 1_555
C51 O15 1_555 1_555
C52 N5 1_555 1_555
C53 N5 1_555 1_555
H24 C42 1_555 1_555
C54 C42 1_555 1_555
H25 C43 1_555 1_555
C55 C43 1_555 1_555
O19 C44 1_555 1_555
C56 C44 1_555 1_555
C57 C45 1_555 1_555
C58 C46 1_555 1_555
C59 C46 1_555 1_555
C60 C47 1_555 1_555
H26 C47 1_555 1_555
C61 C48 1_555 1_555
H27 C48 1_555 1_555
C62 H39 1_555 1_555
C63 N7 1_555 1_555
H28 C49 1_555 1_555
C64 C49 1_555 1_555
C65 C50 1_555 1_555
H29 C50 1_555 1_555
C66 C51 1_555 1_555
H30 C52 1_555 1_555
C67 C52 1_555 1_555
C68 C53 1_555 1_555
H31 C53 1_555 1_555
C69 C54 1_555 1_555
H32 C54 1_555 1_555
H33 C55 1_555 1_555
C70 O19 1_555 1_555
H34 C56 1_555 1_555
H35 C58 1_555 1_555
C71 C58 1_555 1_555
H36 C59 1_555 1_555
C72 C59 1_555 1_555
C73 C60 1_555 1_555
H37 C60 1_555 1_555
H38 C61 1_555 1_555
C74 C62 1_555 1_555
C75 C63 1_555 1_555
H40 C63 1_555 1_555
H41 C64 1_555 1_555
H42 C65 1_555 1_555
C76 C66 1_555 1_555
C77 C66 1_555 1_555
C78 C67 1_555 1_555
H43 C67 1_555 1_555
H44 C68 1_555 1_555
H45 C69 1_555 1_555
H46 C70 1_555 1_555
H47 C70 1_555 1_555
C79 C70 1_555 1_555
C80 C71 1_555 1_555
H48 C71 1_555 1_555
H49 C72 1_555 1_555
H50 C73 1_555 1_555
C81 C74 1_555 1_555
H51 C74 1_555 1_555
H52 C75 1_555 1_555
H53 C76 1_555 1_555
C82 C76 1_555 1_555
C83 C77 1_555 1_555
H54 C77 1_555 1_555
C84 C78 1_555 1_555
C85 C79 1_555 1_555
C86 C79 1_555 1_555
C87 C80 1_555 1_555
C88 C81 1_555 1_555
O20 C82 1_555 1_555
C89 C82 1_555 1_555
C90 C83 1_555 1_555
C91 C84 1_555 1_555
C92 C84 1_555 1_555
H55 C85 1_555 1_555
C93 C85 1_555 1_555
H56 C86 1_555 1_555
C94 C86 1_555 1_555
C95 C87 1_555 1_555
C96 C87 1_555 1_555
C97 C88 1_555 1_555
C98 C88 1_555 1_555
C99 O20 1_555 1_555
H57 C89 1_555 1_555
C100 C91 1_555 1_555
H58 C91 1_555 1_555
C101 C92 1_555 1_555
H59 C92 1_555 1_555
H60 C93 1_555 1_555
C102 C93 1_555 1_555
H61 C94 1_555 1_555
C103 C95 1_555 1_555
H62 C95 1_555 1_555
C104 C96 1_555 1_555
H63 C96 1_555 1_555
H64 C97 1_555 1_555
C105 C97 1_555 1_555
H65 C98 1_555 1_555
C106 C98 1_555 1_555
H66 C99 1_555 1_555
H67 C99 1_555 1_555
C107 C99 1_555 1_555
H68 C100 1_555 1_555
C108 C100 1_555 1_555
H69 C101 1_555 1_555
H70 C102 1_555 1_555
H71 C103 1_555 1_555
H72 C104 1_555 1_555
C109 C105 1_555 1_555
H73 C105 1_555 1_555
H74 C106 1_555 1_555
C110 C107 1_555 1_555
C111 C107 1_555 1_555
C112 C108 1_555 1_555
C113 C109 1_555 1_555
H75 C110 1_555 1_555
C114 C110 1_555 1_555
C115 C111 1_555 1_555
H76 C111 1_555 1_555
C116 C112 1_555 1_555
C117 C112 1_555 1_555
C118 C113 1_555 1_555
C119 C113 1_555 1_555
H77 C114 1_555 1_555
C120 C114 1_555 1_555
H78 C115 1_555 1_555
H79 C116 1_555 1_555
C121 C116 1_555 1_555
C122 C117 1_555 1_555
H80 C117 1_555 1_555
H81 C118 1_555 1_555
C123 C118 1_555 1_555
C124 C119 1_555 1_555
H82 C119 1_555 1_555
H83 C120 1_555 1_555
H84 C121 1_555 1_555
H85 C122 1_555 1_555
H86 C123 1_555 1_555
H87 C124 1_555 1_555
Zn4_2 O13 1_555 1_555
O12_2 Zn4_2 1_555 1_555
O18_2 C57 1_555 1_555
O17_2 C57 1_555 1_555
N2_2 C64 1_555 1_555
Zn4_3 O18_2 1_555 1_555
Zn3_2 O17_2 1_555 1_555
Zn1_2 N2_2 1_555 1_555
O4_2 C90 1_555 1_555
O6_2 C90 1_555 1_555
Zn1_3 O4_2 1_555 1_555
Zn2_2 O6_2 1_555 1_555
N4_2 C103 1_555 1_555
Zn2_3 N4_2 1_555 1_555
N6_2 C121 1_555 1_555
N8_2 C123 1_555 1_555
Zn3_3 N6_2 1_555 1_555
Zn4_4 N8_2 1_555 1_555
O3 C3 1_555 1_555
C6 C9 1_555 1_555
C16 C22 1_555 1_555
O8 C23 1_555 1_555
C18 C26 1_555 1_555
C29 C35 1_555 1_555
C33 C39 1_555 1_555
O14 Zn4_2 1_555 1_555
O16 C51 1_555 1_555
C45 C56 1_555 1_555
N7 Zn4_2 1_555 1_555
C55 C69 1_555 1_555
C61 C73 1_555 1_555
C65 N2_2 1_555 1_555
C68 C78 1_555 1_555
C72 C80 1_555 1_555
C75 C81 1_555 1_555
C83 C89 1_555 1_555
C94 C102 1_555 1_555
C101 C108 1_555 1_555
C104 N4_2 1_555 1_555
C106 C109 1_555 1_555
C115 C120 1_555 1_555
C122 N6_2 1_555 1_555
C124 N8_2 1_555 1_555

#END
