
#######################################################################
#
#                 Cambridge Crystallographic Data Centre
#                                CCDC 
#
#######################################################################
#
# If this CIF has been generated from an entry in the Cambridge 
# Structural Database, then it will include bibliographic, chemical, 
# crystal, experimental, refinement or atomic coordinate data resulting 
# from the CCDC's data processing and validation procedures.
#
#######################################################################

data_HEFDON
_chemical_formula_moiety         '(C104 H72 Ba1 Cd6 Cl2 N8 O28 2-)n'
_symmetry_cell_setting           triclinic
_symmetry_space_group_name_H-M   'P -1'
_symmetry_Int_Tables_number      2
_space_group_name_Hall           '-P 1'
loop_
_symmetry_equiv_pos_site_id
_symmetry_equiv_pos_as_xyz
1 x,y,z
2 -x,-y,-z
_cell_length_a                   9.9445(6)
_cell_length_b                   18.5391(11)
_cell_length_c                   20.2889(12)
_cell_angle_alpha                88.904(3)
_cell_angle_beta                 83.648(3)
_cell_angle_gamma                86.713(3)
_cell_volume                     3711.12
loop_
_atom_site_label
_atom_site_type_symbol
_atom_site_fract_x
_atom_site_fract_y
_atom_site_fract_z
Ba1 Ba 1.0427(3) 0.24190(15) -0.42362(13)
O1 O 1.314(4) 0.274(3) -0.479(2)
O2 O 1.0726(16) 0.1952(9) -0.2718(7)
O3 O 1.183(5) 0.359(3) -0.341(3)
O4 O 0.822(4) 0.248(2) -0.4846(17)
Cd2 Cd 0.61289(4) 0.45305(2) 0.038866(19)
Cd3 Cd 0.89934(4) -0.04124(2) 0.455620(19)
C23 C 1.0156(9) 0.1149(4) 0.4157(4)
C24 C 1.0353(8) 0.1679(4) 0.3588(3)
C25 C 1.1141(8) 0.2272(4) 0.3631(4)
H19 H 1.1563 0.2343 0.4020
C26 C 1.1304(8) 0.2756(4) 0.3105(3)
H20 H 1.1846 0.3157 0.3136
C27 C 1.0685(7) 0.2664(4) 0.2531(3)
C28 C 0.9930(7) 0.2062(4) 0.2488(4)
H21 H 0.9536 0.1983 0.2092
C29 C 0.9743(7) 0.1576(4) 0.3012(4)
H22 H 0.9202 0.1175 0.2980
C30 C 1.0804(7) 0.3188(4) 0.1974(3)
C31 C 1.2066(7) 0.3462(4) 0.1750(3)
H23 H 1.2837 0.3322 0.1970
C32 C 1.2199(6) 0.3936(3) 0.1209(3)
C33 C 1.1084(7) 0.4162(3) 0.0893(3)
H24 H 1.1166 0.4491 0.0529
C34 C 0.9829(7) 0.3892(4) 0.1124(3)
C35 C 0.9711(7) 0.3415(4) 0.1646(3)
H25 H 0.8850 0.3234 0.1786
C36 C 0.8584(7) 0.4150(4) 0.0793(3)
C37 C 1.3575(7) 0.4161(4) 0.0930(3)
C38 C 0.5283(7) 0.3978(4) -0.0957(3)
C39 C 0.5347(7) 0.3407(4) -0.1484(3)
C40 C 0.4536(9) 0.3485(4) -0.1973(4)
H26 H 0.3920 0.3896 -0.1978
C41 C 0.4582(9) 0.2970(5) -0.2477(4)
H27 H 0.4015 0.3039 -0.2823
C42 C 0.5458(7) 0.2361(4) -0.2467(3)
C43 C 0.6227(8) 0.2269(4) -0.1949(4)
H28 H 0.6802 0.1845 -0.1924
C44 C 0.6179(8) 0.2784(5) -0.1462(4)
H29 H 0.6724 0.2710 -0.1107
C45 C 0.5526(7) 0.1833(4) -0.3004(3)
C46 C 0.4354(7) 0.1635(4) -0.3251(3)
H30 H 0.3502 0.1856 -0.3084
C47 C 0.4420(7) 0.1108(4) -0.3747(3)
C48 C 0.5656(7) 0.0795(4) -0.4007(3)
H31 H 0.5698 0.0440 -0.4341
C49 C 0.6842(7) 0.1006(4) -0.3774(3)
C50 C 0.6773(8) 0.1512(4) -0.3271(3)
H32 H 0.7583 0.1641 -0.3106
C51 C 0.8191(7) 0.0706(4) -0.4099(3)
C52 C 0.3155(7) 0.0873(4) -0.4016(3)
O5 O 0.9297(6) 0.0677(3) 0.4104(3)
O6 O 1.0812(7) 0.1230(3) 0.4631(3)
O7 O 0.7630(6) 0.3718(3) 0.0825(3)
O8 O 0.8539(5) 0.4741(3) 0.0516(2)
O9 O 1.3648(5) 0.4512(3) 0.0389(2)
O10 O 1.4589(5) 0.3960(3) 0.1202(2)
O11 O 0.6112(5) 0.3876(3) -0.0522(2)
O12 O 0.4416(5) 0.4478(3) -0.1003(2)
O13 O 0.9232(6) 0.0944(4) -0.3938(3)
O14 O 0.8173(6) 0.0225(4) -0.4498(3)
O15 O 0.3206(6) 0.0334(3) -0.4329(3)
O16 O 0.2107(7) 0.1256(5) -0.3901(5)
Cd2_2 Cd -0.38711(4) 0.45305(2) 0.038866(19)
Cd2_3 Cd 1.61289(4) 0.45305(2) 0.038866(19)
Cd2A Cd 1.38711(4) 0.54695(2) -0.038866(19)
Cd2A_2 Cd 0.38711(4) 0.54695(2) -0.038866(19)
Cd3_2 Cd -0.10066(4) -0.04124(2) 0.455620(19)
Cd3A Cd 1.10066(4) 0.04124(2) 0.544380(19)
Cd3A_2 Cd 1.10066(4) 0.04124(2) -0.455620(19)
Cd3_3 Cd 0.89934(4) -0.04124(2) -0.544380(19)
Cd3A_3 Cd 0.10066(4) 0.04124(2) -0.455620(19)
Cd3A_4 Cd 0.10066(4) 0.04124(2) 0.544380(19)
Cd3_4 Cd -0.10066(4) 0.95876(2) 0.455620(19)
Cd3A_5 Cd 0.10066(4) 1.04124(2) 0.544380(19)
Cd3_5 Cd 0.89934(4) 0.95876(2) 0.455620(19)
C23_2 C 0.0156(9) 0.1149(4) 0.4157(4)
C24_2 C 0.0353(8) 0.1679(4) 0.3588(3)
C25_2 C 0.1141(8) 0.2272(4) 0.3631(4)
H19_2 H 0.1563 0.2343 0.4020
C26_2 C 0.1304(8) 0.2756(4) 0.3105(3)
H20_2 H 0.1846 0.3157 0.3136
C27_2 C 0.0685(7) 0.2664(4) 0.2531(3)
C28_2 C -0.0070(7) 0.2062(4) 0.2488(4)
H21_2 H -0.0464 0.1983 0.2092
C29_2 C -0.0257(7) 0.1576(4) 0.3012(4)
H22_2 H -0.0798 0.1175 0.2980
C30_2 C 0.0804(7) 0.3188(4) 0.1974(3)
C31_2 C 0.2066(7) 0.3462(4) 0.1750(3)
H23_2 H 0.2837 0.3322 0.1970
C32_2 C 0.2199(6) 0.3936(3) 0.1209(3)
C33_2 C 0.1084(7) 0.4162(3) 0.0893(3)
H24_2 H 0.1166 0.4491 0.0529
C34_2 C -0.0171(7) 0.3892(4) 0.1124(3)
C35_2 C -0.0289(7) 0.3415(4) 0.1646(3)
H25_2 H -0.1150 0.3234 0.1786
C36_2 C -0.1416(7) 0.4150(4) 0.0793(3)
C37_2 C 0.3575(7) 0.4161(4) 0.0930(3)
C38A C 0.4717(7) 0.6022(4) 0.0957(3)
C39A C 0.4653(7) 0.6593(4) 0.1484(3)
C40A C 0.5464(9) 0.6515(4) 0.1973(4)
H26A H 0.6080 0.6104 0.1978
C41A C 0.5418(9) 0.7030(5) 0.2477(4)
H27A H 0.5985 0.6961 0.2823
C42A C 0.4542(7) 0.7639(4) 0.2467(3)
C43A C 0.3773(8) 0.7731(4) 0.1949(4)
H28A H 0.3198 0.8155 0.1924
C44A C 0.3821(8) 0.7216(5) 0.1462(4)
H29A H 0.3276 0.7290 0.1107
C45A C 0.4474(7) 0.8167(4) 0.3004(3)
C46A C 0.5646(7) 0.8365(4) 0.3251(3)
H30A H 0.6498 0.8144 0.3084
C47A C 0.5580(7) 0.8892(4) 0.3747(3)
C48A C 0.4344(7) 0.9205(4) 0.4007(3)
H31A H 0.4302 0.9560 0.4341
C49A C 0.3158(7) 0.8994(4) 0.3774(3)
C50A C 0.3227(8) 0.8488(4) 0.3271(3)
H32A H 0.2417 0.8359 0.3106
C51A C 0.1809(7) 0.9294(4) 0.4099(3)
C52A C 0.6845(7) 0.9127(4) 0.4016(3)
O5_2 O -0.0703(6) 0.0677(3) 0.4104(3)
O6_2 O 0.0812(7) 0.1230(3) 0.4631(3)
O6A O 0.9188(7) -0.1230(3) 0.5369(3)
O6A_2 O -0.0812(7) -0.1230(3) 0.5369(3)
O7_2 O -0.2370(6) 0.3718(3) 0.0825(3)
O8_2 O -0.1461(5) 0.4741(3) 0.0516(2)
O9_2 O 0.3648(5) 0.4512(3) 0.0389(2)
O9A O 0.6352(5) 0.5488(3) -0.0389(2)
O9_3 O -0.6352(5) 0.4512(3) 0.0389(2)
O9A_2 O -0.3648(5) 0.5488(3) -0.0389(2)
O10_2 O 0.4589(5) 0.3960(3) 0.1202(2)
O10_3 O -0.5411(5) 0.3960(3) 0.1202(2)
O11A O 0.3888(5) 0.6124(3) 0.0522(2)
O11_2 O -0.3888(5) 0.3876(3) -0.0522(2)
O12A O 0.5584(5) 0.5522(3) 0.1003(2)
O12A_2 O -0.4416(5) 0.5522(3) 0.1003(2)
O13A O 0.0768(6) 0.9056(4) 0.3938(3)
O13A_2 O 1.0768(6) -0.0944(4) 0.3938(3)
O13A_3 O 0.0768(6) -0.0944(4) 0.3938(3)
O14A O 0.1827(6) 0.9775(4) 0.4498(3)
O14_2 O 0.8173(6) 0.0225(4) 0.5502(3)
O14_3 O -0.1827(6) 0.0225(4) 0.5502(3)
O15A O 0.6794(6) 0.9666(3) 0.4329(3)
O15A_2 O 0.6794(6) -0.0334(3) 0.4329(3)
O15A_3 O -0.3206(6) -0.0334(3) 0.4329(3)
O16A O 0.7893(7) 0.8744(5) 0.3901(5)
O16A_2 O 0.7893(7) -0.1256(5) 0.3901(5)
O16A_3 O -0.2107(7) -0.1256(5) 0.3901(5)
Cd1 Cd 0.41284(10) -0.02898(5) 0.01904(4)
C1 C 1.0417(9) -0.3954(5) 0.0955(4)
H1 H 1.0074 -0.4400 0.0804
H2 H 1.1360 -0.3914 0.0765
H3 H 1.0370 -0.3963 0.1441
C2 C 0.8325(8) -0.3404(4) 0.0606(4)
H4 H 0.7972 -0.3870 0.0628
C3 C 0.7548(8) -0.2808(4) 0.0439(4)
H5 H 0.6652 -0.2871 0.0338
C4 C 0.8015(9) -0.2120(4) 0.0410(4)
C5 C 0.9341(11) -0.2067(6) 0.0554(7)
H6 H 0.9721 -0.1608 0.0552
C6 C 1.0071(11) -0.2657(6) 0.0695(6)
H7 H 1.0988 -0.2614 0.0771
C7 C 0.6704(11) -0.1012(4) 0.0832(5)
C8 C 0.7056(9) -0.1158(4) 0.1493(4)
H8 H 0.7594 -0.1558 0.1636
C9 C 0.6471(10) -0.0614(5) 0.1863(4)
H9 H 0.6519 -0.0558 0.2324
C10 C 0.5750(11) -0.0125(5) 0.1442(4)
C11 C 0.7111(10) -0.1472(5) 0.0266(5)
C12 C 0.6795(11) -0.1379(4) -0.0383(5)
C13 C 0.7263(9) -0.1836(5) -0.0931(4)
H10 H 0.7875 -0.2248 -0.0919
C14 C 0.6686(9) -0.1582(5) -0.1464(4)
H11 H 0.6789 -0.1789 -0.1893
C15 C 0.5873(11) -0.0929(5) -0.1259(5)
C16 C 0.4945(11) 0.0498(5) 0.1643(4)
C17 C 0.4955(9) 0.0692(4) 0.2349(4)
C18 C 0.3752(10) 0.0749(5) 0.2795(5)
H12 H 0.2899 0.0673 0.2647
C19 C 0.3839(11) 0.0915(5) 0.3449(5)
H13 H 0.3032 0.0967 0.3745
C20 C 0.5029(11) 0.1171(6) 0.4374(4)
H14 H 0.4550 0.0805 0.4648
H15 H 0.4580 0.1648 0.4466
H16 H 0.5969 0.1170 0.4477
C21 C 0.6170(9) 0.0965(5) 0.3259(4)
H17 H 0.7008 0.1042 0.3423
C22 C 0.6148(8) 0.0815(4) 0.2610(3)
H18 H 0.6975 0.0795 0.2325
Cl1 Cl 0.2200(5) -0.1009(3) 0.0672(3)
N1 N 0.5923(11) -0.0844(4) -0.0596(4)
N2 N 0.5970(10) -0.0385(4) 0.0802(4)
N3 N 0.9569(6) -0.3316(4) 0.0735(3)
N4 N 0.5013(8) 0.1005(4) 0.3672(3)
Cd1A Cd 0.58716(10) 0.02898(5) -0.01904(4)
C1A C -0.0417(9) 0.3954(5) -0.0955(4)
H1A H -0.0074 0.4400 -0.0804
H2A H -0.1360 0.3914 -0.0765
H3A H -0.0370 0.3963 -0.1441
C2A C 0.1675(8) 0.3404(4) -0.0606(4)
H4A H 0.2028 0.3870 -0.0628
C3A C 0.2452(8) 0.2808(4) -0.0439(4)
H5A H 0.3348 0.2871 -0.0338
C4A C 0.1985(9) 0.2120(4) -0.0410(4)
C5A C 0.0659(11) 0.2067(6) -0.0554(7)
H6A H 0.0279 0.1608 -0.0552
C6A C -0.0071(11) 0.2657(6) -0.0695(6)
H7A H -0.0988 0.2614 -0.0771
C7A C 0.3296(11) 0.1012(4) -0.0832(5)
C8A C 0.2944(9) 0.1158(4) -0.1493(4)
H8A H 0.2406 0.1558 -0.1636
C9A C 0.3529(10) 0.0614(5) -0.1863(4)
H9A H 0.3481 0.0558 -0.2324
C10A C 0.4250(11) 0.0125(5) -0.1442(4)
C11A C 0.2889(10) 0.1472(5) -0.0266(5)
C12A C 0.3205(11) 0.1379(4) 0.0383(5)
C13A C 0.2737(9) 0.1836(5) 0.0931(4)
H10A H 0.2125 0.2248 0.0919
C14A C 0.3314(9) 0.1582(5) 0.1464(4)
H11A H 0.3211 0.1789 0.1893
C15A C 0.4127(11) 0.0929(5) 0.1259(5)
C16A C 0.5055(11) -0.0498(5) -0.1643(4)
C17A C 0.5045(9) -0.0692(4) -0.2349(4)
C18A C 0.6248(10) -0.0749(5) -0.2795(5)
H12A H 0.7101 -0.0673 -0.2647
C19A C 0.6161(11) -0.0915(5) -0.3449(5)
H13A H 0.6968 -0.0967 -0.3745
C20A C 0.4971(11) -0.1171(6) -0.4374(4)
H14A H 0.5450 -0.0805 -0.4648
H15A H 0.5420 -0.1648 -0.4466
H16A H 0.4031 -0.1170 -0.4477
C21A C 0.3830(9) -0.0965(5) -0.3259(4)
H17A H 0.2992 -0.1042 -0.3423
C22A C 0.3852(8) -0.0815(4) -0.2610(3)
H18A H 0.3025 -0.0795 -0.2325
Cl1A Cl 0.7800(5) 0.1009(3) -0.0672(3)
N1A N 0.4077(11) 0.0844(4) 0.0596(4)
N2A N 0.4030(10) 0.0385(4) -0.0802(4)
N3A N 0.0431(6) 0.3316(4) -0.0735(3)
N4A N 0.4987(8) -0.1005(4) -0.3672(3)
loop_
_geom_bond_atom_site_label_1
_geom_bond_atom_site_label_2
_geom_bond_site_symmetry_1
_geom_bond_site_symmetry_2
Cd1 Cl1 1_555 1_555
C1 H1 1_555 1_555
H2 C1 1_555 1_555
H3 C1 1_555 1_555
C2 H4 1_555 1_555
C3 C2 1_555 1_555
H5 C3 1_555 1_555
C4 C3 1_555 1_555
C5 C4 1_555 1_555
H6 C5 1_555 1_555
C6 C5 1_555 1_555
H7 C6 1_555 1_555
C7 C8 1_555 1_555
C8 H8 1_555 1_555
C9 C8 1_555 1_555
H9 C9 1_555 1_555
C10 C9 1_555 1_555
C11 C4 1_555 1_555
C12 C11 1_555 1_555
C13 C12 1_555 1_555
H10 C13 1_555 1_555
C14 C13 1_555 1_555
H11 C14 1_555 1_555
C15 C14 1_555 1_555
C16 C10 1_555 1_555
C17 C16 1_555 1_555
C18 C17 1_555 1_555
H12 C18 1_555 1_555
C19 C18 1_555 1_555
H13 C19 1_555 1_555
C20 H14 1_555 1_555
H15 C20 1_555 1_555
H16 C20 1_555 1_555
C21 H17 1_555 1_555
C22 C17 1_555 1_555
H18 C22 1_555 1_555
N1 Cd1 1_555 1_555
N2 Cd1 1_555 1_555
N3 C1 1_555 1_555
N4 C19 1_555 1_555
Cd2 O7 1_555 1_555
Cd3 O5 1_555 1_555
C23 C24 1_555 1_555
C24 C25 1_555 1_555
C25 H19 1_555 1_555
C26 C25 1_555 1_555
H20 C26 1_555 1_555
C27 C26 1_555 1_555
C28 C27 1_555 1_555
H21 C28 1_555 1_555
C29 C24 1_555 1_555
H22 C29 1_555 1_555
C30 C27 1_555 1_555
C31 C30 1_555 1_555
H23 C31 1_555 1_555
C32 C31 1_555 1_555
C33 C32 1_555 1_555
H24 C33 1_555 1_555
C34 C33 1_555 1_555
C35 C30 1_555 1_555
H25 C35 1_555 1_555
C36 C34 1_555 1_555
C37 C32 1_555 1_555
C38 C39 1_555 1_555
C39 C40 1_555 1_555
C40 H26 1_555 1_555
C41 C40 1_555 1_555
H27 C41 1_555 1_555
C42 C41 1_555 1_555
C43 C42 1_555 1_555
H28 C43 1_555 1_555
C44 C39 1_555 1_555
H29 C44 1_555 1_555
C45 C42 1_555 1_555
C46 C45 1_555 1_555
H30 C46 1_555 1_555
C47 C46 1_555 1_555
C48 C47 1_555 1_555
H31 C48 1_555 1_555
C49 C48 1_555 1_555
C50 C45 1_555 1_555
H32 C50 1_555 1_555
C51 C49 1_555 1_555
C52 C47 1_555 1_555
O5 C23 1_555 1_555
O6 C23 1_555 1_555
O7 C36 1_555 1_555
O8 C36 1_555 1_555
O9 C37 1_555 1_555
O10 C37 1_555 1_555
O11 Cd2 1_555 1_555
O12 C38 1_555 1_555
O13 C51 1_555 1_555
O14 C51 1_555 1_555
O15 C52 1_555 1_555
O16 C52 1_555 1_555
Cd1A Cd1 1_555 1_555
C1A H1A 1_555 1_555
H2A C1A 1_555 1_555
H3A C1A 1_555 1_555
C2A H4A 1_555 1_555
C3A C2A 1_555 1_555
H5A C3A 1_555 1_555
C4A C3A 1_555 1_555
C5A C4A 1_555 1_555
H6A C5A 1_555 1_555
C6A C5A 1_555 1_555
H7A C6A 1_555 1_555
C7A C8A 1_555 1_555
C8A H8A 1_555 1_555
C9A C8A 1_555 1_555
H9A C9A 1_555 1_555
C10A C9A 1_555 1_555
C11A C4A 1_555 1_555
C12A C11A 1_555 1_555
C13A C12A 1_555 1_555
H10A C13A 1_555 1_555
C14A C13A 1_555 1_555
H11A C14A 1_555 1_555
C15A C16 1_555 1_555
C16A C15 1_555 1_555
C17A C16A 1_555 1_555
C18A C17A 1_555 1_555
H12A C18A 1_555 1_555
C19A C18A 1_555 1_555
H13A C19A 1_555 1_555
C20A H14A 1_555 1_555
H15A C20A 1_555 1_555
H16A C20A 1_555 1_555
C21A H17A 1_555 1_555
C22A C17A 1_555 1_555
H18A C22A 1_555 1_555
Cl1A Cd1A 1_555 1_555
N1A Cd1 1_555 1_555
N2A Cd1 1_555 1_555
N3A C1A 1_555 1_555
N4A C19A 1_555 1_555
Cd2_2 O7_2 1_555 1_555
Cd2_3 O9 1_555 1_555
Cd2A O9 1_555 1_555
Cd2A_2 O12 1_555 1_555
Cd3_2 O5_2 1_555 1_555
Cd3A O6 1_555 1_555
Cd3A_2 O13 1_555 1_555
Cd3_3 O14 1_555 1_555
Cd3A_3 O15 1_555 1_555
Cd3A_4 O6_2 1_555 1_555
Cd3_4 O13A 1_555 1_555
Cd3A_5 O14A 1_555 1_555
Cd3_5 O15A 1_555 1_555
C23_2 C24_2 1_555 1_555
C24_2 C25_2 1_555 1_555
C25_2 H19_2 1_555 1_555
C26_2 C25_2 1_555 1_555
H20_2 C26_2 1_555 1_555
C27_2 C26_2 1_555 1_555
C28_2 C27_2 1_555 1_555
H21_2 C28_2 1_555 1_555
C29_2 C24_2 1_555 1_555
H22_2 C29_2 1_555 1_555
C30_2 C27_2 1_555 1_555
C31_2 C30_2 1_555 1_555
H23_2 C31_2 1_555 1_555
C32_2 C31_2 1_555 1_555
C33_2 C32_2 1_555 1_555
H24_2 C33_2 1_555 1_555
C34_2 C33_2 1_555 1_555
C35_2 C30_2 1_555 1_555
H25_2 C35_2 1_555 1_555
C36_2 C34_2 1_555 1_555
C37_2 C32_2 1_555 1_555
C38A C39A 1_555 1_555
C39A C40A 1_555 1_555
C40A H26A 1_555 1_555
C41A C40A 1_555 1_555
H27A C41A 1_555 1_555
C42A C41A 1_555 1_555
C43A C42A 1_555 1_555
H28A C43A 1_555 1_555
C44A C39A 1_555 1_555
H29A C44A 1_555 1_555
C45A C42A 1_555 1_555
C46A C45A 1_555 1_555
H30A C46A 1_555 1_555
C47A C46A 1_555 1_555
C48A C47A 1_555 1_555
H31A C48A 1_555 1_555
C49A C48A 1_555 1_555
C50A C45A 1_555 1_555
H32A C50A 1_555 1_555
C51A C49A 1_555 1_555
C52A C47A 1_555 1_555
O5_2 C23_2 1_555 1_555
O6_2 C23_2 1_555 1_555
O6A Cd3 1_555 1_555
O6A_2 Cd3_2 1_555 1_555
O7_2 C36_2 1_555 1_555
O8_2 C36_2 1_555 1_555
O9_2 Cd2 1_555 1_555
O9A Cd2 1_555 1_555
O9_3 Cd2_2 1_555 1_555
O9A_2 Cd2_2 1_555 1_555
O10_2 Cd2 1_555 1_555
O10_3 Cd2_2 1_555 1_555
O11A Cd2A_2 1_555 1_555
O11_2 Cd2_2 1_555 1_555
O12A Cd2 1_555 1_555
O12A_2 Cd2_2 1_555 1_555
O13A C51A 1_555 1_555
O13A_2 Cd3 1_555 1_555
O13A_3 Cd3_2 1_555 1_555
O14A C51A 1_555 1_555
O14_2 Cd3 1_555 1_555
O14_3 Cd3_2 1_555 1_555
O15A C52A 1_555 1_555
O15A_2 Cd3 1_555 1_555
O15A_3 Cd3_2 1_555 1_555
O16A Cd3_5 1_555 1_555
O16A_2 Cd3 1_555 1_555
O16A_3 Cd3_2 1_555 1_555
C2 N3 1_555 1_555
C6 N3 1_555 1_555
C7 C11 1_555 1_555
C7 N2 1_555 1_555
C10 N2 1_555 1_555
C12 N1 1_555 1_555
C15 N1 1_555 1_555
C20 N4 1_555 1_555
C21 C22 1_555 1_555
C21 N4 1_555 1_555
N1 Cd1A 1_555 1_555
N2 Cd1A 1_555 1_555
C28 C29 1_555 1_555
C34 C35 1_555 1_555
C38 O11 1_555 1_555
C43 C44 1_555 1_555
C49 C50 1_555 1_555
O10 Cd2_3 1_555 1_555
O16 Cd3A_3 1_555 1_555
Cd1A N1A 1_555 1_555
Cd1A N2A 1_555 1_555
C2A N3A 1_555 1_555
C6A N3A 1_555 1_555
C7A C11A 1_555 1_555
C7A N2A 1_555 1_555
C10A C16A 1_555 1_555
C10A N2A 1_555 1_555
C12A N1A 1_555 1_555
C14A C15A 1_555 1_555
C15A N1A 1_555 1_555
C20A N4A 1_555 1_555
C21A C22A 1_555 1_555
C21A N4A 1_555 1_555
Cd2A_2 O9_2 1_555 1_555
Cd2A_2 O9A 1_555 1_555
C28_2 C29_2 1_555 1_555
C34_2 C35_2 1_555 1_555
C37_2 O9_2 1_555 1_555
C37_2 O10_2 1_555 1_555
C38A O11A 1_555 1_555
C38A O12A 1_555 1_555
C43A C44A 1_555 1_555
C49A C50A 1_555 1_555
C52A O16A 1_555 1_555

#END
