
#######################################################################
#
#                 Cambridge Crystallographic Data Centre
#                                CCDC 
#
#######################################################################
#
# If this CIF has been generated from an entry in the Cambridge 
# Structural Database, then it will include bibliographic, chemical, 
# crystal, experimental, refinement or atomic coordinate data resulting 
# from the CCDC's data processing and validation procedures.
#
#######################################################################

data_HEFFEF
_chemical_formula_moiety         '(C104 H70 Cd6 Cl2 N8 Na1 O27 3-)n'
_symmetry_cell_setting           triclinic
_symmetry_space_group_name_H-M   'P -1'
_symmetry_Int_Tables_number      2
_space_group_name_Hall           '-P 1'
loop_
_symmetry_equiv_pos_site_id
_symmetry_equiv_pos_as_xyz
1 x,y,z
2 -x,-y,-z
_cell_length_a                   10.006(11)
_cell_length_b                   18.34(2)
_cell_length_c                   20.26(3)
_cell_angle_alpha                88.72(5)
_cell_angle_beta                 83.46(8)
_cell_angle_gamma                86.86(4)
_cell_volume                     3687.69
loop_
_atom_site_label
_atom_site_type_symbol
_atom_site_fract_x
_atom_site_fract_y
_atom_site_fract_z
Na1 Na 0.8929(12) 0.7208(8) 0.8791(9)
O1 O 0.740(2) 0.810(2) 0.8960(12)
O2 O 0.938(3) 0.6998(18) 0.7682(13)
O3 O 0.898(4) 0.754(2) 0.9849(17)
Cd2 Cd 0.88666(8) 0.54786(5) 0.96064(5)
Cd3 Cd 0.38930(9) 0.95980(7) 0.45490(4)
C23 C 0.9640(12) 0.5971(8) 1.1007(8)
C24 C 0.9570(12) 0.6564(7) 1.1534(6)
C25 C 1.0432(15) 0.6513(8) 1.2015(8)
H19 H 1.1069 0.6124 1.2015
C26 C 1.0356(13) 0.7045(8) 1.2507(6)
H20 H 1.0922 0.6990 1.2840
C27 C 0.9499(13) 0.7624(9) 1.2511(7)
C28 C 0.8626(15) 0.7681(10) 1.2011(6)
H21 H 0.7979 0.8066 1.2026
C29 C 0.8692(14) 0.7184(8) 1.1497(8)
H22 H 0.8178 0.7260 1.1145
C30 C 0.9346(12) 0.8207(7) 1.3043(6)
C31 C 0.8113(14) 0.8492(10) 1.3304(7)
H23 H 0.7339 0.8351 1.3138
C32 C 0.8003(13) 0.8997(8) 1.3824(6)
C33 C 0.9163(12) 0.9241(9) 1.4040(5)
H24 H 0.9110 0.9596 1.4363
C34 C 1.0393(11) 0.8949(8) 1.3770(6)
C35 C 1.0508(13) 0.8402(9) 1.3303(7)
H25 H 1.1340 0.8169 1.3167
C36 C 1.1687(14) 0.9121(9) 1.4007(7)
C37 C 0.6669(17) 0.9305(9) 1.4118(6)
C38 C 0.4827(19) 0.8933(12) 0.5852(11)
C39 C 0.4630(16) 0.8378(11) 0.6448(7)
C40 C 0.3870(19) 0.7762(13) 0.6364(10)
H26 H 0.3503 0.7692 0.5970
C41 C 0.3684(18) 0.7238(12) 0.6925(9)
H27 H 0.3159 0.6836 0.6917
C42 C 0.4327(16) 0.7385(9) 0.7449(8)
C43 C 0.5028(15) 0.7971(10) 0.7523(8)
H28 H 0.5354 0.8045 0.7927
C44 C 0.5295(16) 0.8505(10) 0.6971(7)
H29 H 0.5863 0.8889 0.6985
C45 C 0.4199(12) 0.6812(8) 0.8001(8)
C46 C 0.2931(10) 0.6540(7) 0.8227(6)
H30 H 0.2188 0.6646 0.7998
C47 C 0.2820(11) 0.6090(6) 0.8829(6)
C48 C 0.3939(10) 0.5872(6) 0.9102(6)
H31 H 0.3871 0.5541 0.9458
C49 C 0.5203(11) 0.6125(7) 0.8871(7)
C50 C 0.5296(13) 0.6601(10) 0.8309(8)
H32 H 0.6130 0.6772 0.8146
C51 C 0.6500(12) 0.5836(7) 0.9165(8)
C52 C 0.1480(11) 0.5844(6) 0.9130(7)
O4 O 0.6509(8) 0.5337(5) 0.9481(5)
O5 O 0.7435(11) 0.6295(6) 0.9126(8)
O6 O 0.1388(7) 0.5480(4) 0.9641(4)
O7 O 0.0420(8) 0.6082(5) 0.8877(5)
O8 O 0.4052(17) 0.8882(10) 0.5411(7)
O9 O 0.5782(16) 0.9309(7) 0.5928(10)
O10 O 1.1692(13) 0.9650(7) 1.4415(5)
O11 O 1.2792(14) 0.8894(8) 1.3815(7)
O12 O 0.675(2) 0.9665(14) 1.4579(11)
O13 O 0.5676(10) 0.9087(8) 1.3956(7)
O14 O 0.8878(8) 0.6119(5) 1.0536(5)
O15 O 1.0541(10) 0.5491(5) 1.1030(5)
Cd2_2 Cd 1.88666(8) 0.54786(5) 0.96064(5)
Cd2_3 Cd -0.11334(8) 0.54786(5) 0.96064(5)
Cd2A Cd 0.11334(8) 0.45214(5) 1.03936(5)
Cd2A_2 Cd 1.11334(8) 0.45214(5) 1.03936(5)
Cd3_2 Cd 1.38930(9) 0.95980(7) 0.45490(4)
Cd3A Cd 0.61070(9) 1.04020(7) 0.54510(4)
Cd3_3 Cd 1.38930(9) 0.95980(7) 1.45490(4)
Cd3A_2 Cd 0.61070(9) 1.04020(7) 1.54510(4)
Cd3_4 Cd 0.38930(9) 0.95980(7) 1.45490(4)
Cd3A_3 Cd 1.61070(9) 1.04020(7) 0.54510(4)
Cd3A_4 Cd 0.61070(9) 0.04020(7) 0.54510(4)
Cd3_5 Cd 1.38930(9) -0.04020(7) 0.45490(4)
Cd3A_5 Cd 1.61070(9) 0.04020(7) 0.54510(4)
C23A C 1.0360(12) 0.4029(8) 0.8993(8)
C24A C 1.0430(12) 0.3436(7) 0.8466(6)
C25A C 0.9568(15) 0.3487(8) 0.7985(8)
H19A H 0.8931 0.3876 0.7985
C26A C 0.9644(13) 0.2955(8) 0.7493(6)
H20A H 0.9078 0.3010 0.7160
C27A C 1.0501(13) 0.2376(9) 0.7489(7)
C28A C 1.1374(15) 0.2319(10) 0.7989(6)
H21A H 1.2021 0.1934 0.7974
C29A C 1.1308(14) 0.2816(8) 0.8503(8)
H22A H 1.1822 0.2740 0.8855
C30A C 1.0654(12) 0.1793(7) 0.6957(6)
C31A C 1.1887(14) 0.1508(10) 0.6696(7)
H23A H 1.2661 0.1649 0.6862
C32A C 1.1997(13) 0.1003(8) 0.6176(6)
C33A C 1.0837(12) 0.0759(9) 0.5960(5)
H24A H 1.0890 0.0404 0.5637
C34A C 0.9607(11) 0.1051(8) 0.6230(6)
C35A C 0.9492(13) 0.1598(9) 0.6697(7)
H25A H 0.8660 0.1831 0.6833
C36A C 0.8313(14) 0.0879(9) 0.5993(7)
C37A C 1.3331(17) 0.0695(9) 0.5882(6)
C38_2 C 1.4827(19) 0.8933(12) 0.5852(11)
C39_2 C 1.4630(16) 0.8378(11) 0.6448(7)
C40_2 C 1.3870(19) 0.7762(13) 0.6364(10)
H26_2 H 1.3503 0.7692 0.5970
C41_2 C 1.3684(18) 0.7238(12) 0.6925(9)
H27_2 H 1.3159 0.6836 0.6917
C42_2 C 1.4327(16) 0.7385(9) 0.7449(8)
C43_2 C 1.5028(15) 0.7971(10) 0.7523(8)
H28_2 H 1.5354 0.8045 0.7927
C44_2 C 1.5295(16) 0.8505(10) 0.6971(7)
H29_2 H 1.5863 0.8889 0.6985
C45_2 C 1.4199(12) 0.6812(8) 0.8001(8)
C46_2 C 1.2931(10) 0.6540(7) 0.8227(6)
H30_2 H 1.2188 0.6646 0.7998
C47_2 C 1.2820(11) 0.6090(6) 0.8829(6)
C48_2 C 1.3939(10) 0.5872(6) 0.9102(6)
H31_2 H 1.3871 0.5541 0.9458
C49_2 C 1.5203(11) 0.6125(7) 0.8871(7)
C50_2 C 1.5296(13) 0.6601(10) 0.8309(8)
H32_2 H 1.6130 0.6772 0.8146
C51_2 C 1.6500(12) 0.5836(7) 0.9165(8)
C52_2 C 1.1480(11) 0.5844(6) 0.9130(7)
O4_2 O 1.6509(8) 0.5337(5) 0.9481(5)
O5_2 O 1.7435(11) 0.6295(6) 0.9126(8)
O6_2 O 1.1388(7) 0.5480(4) 0.9641(4)
O6A O 0.8612(7) 0.4520(4) 1.0359(4)
O6_3 O 2.1388(7) 0.5480(4) 0.9641(4)
O6A_2 O 1.8612(7) 0.4520(4) 1.0359(4)
O7_2 O 1.0420(8) 0.6082(5) 0.8877(5)
O7_3 O 2.0420(8) 0.6082(5) 0.8877(5)
O8_2 O 1.4052(17) 0.8882(10) 0.5411(7)
O9_2 O 1.5782(16) 0.9309(7) 0.5928(10)
O9A O 0.4218(16) 1.0691(7) 0.4072(10)
O9A_2 O 1.4218(16) 1.0691(7) 0.4072(10)
O10A O 0.8308(13) 0.0350(7) 0.5585(5)
O10_2 O 0.1692(13) 0.9650(7) 0.4415(5)
O10_3 O 1.1692(13) 0.9650(7) 0.4415(5)
O11A O 0.7208(14) 0.1106(8) 0.6185(7)
O11_2 O 0.2792(14) 0.8894(8) 0.3815(7)
O11_3 O 1.2792(14) 0.8894(8) 0.3815(7)
O12A O 1.325(2) 0.0335(14) 0.5421(11)
O12A_2 O 0.325(2) 1.0335(14) 0.5421(11)
O12A_3 O 1.325(2) 1.0335(14) 0.5421(11)
O13A O 1.4324(10) 0.0913(8) 0.6044(7)
O13_2 O 0.5676(10) 0.9087(8) 0.3956(7)
O13_3 O 1.5676(10) 0.9087(8) 0.3956(7)
O14A O 1.1122(8) 0.3881(5) 0.9464(5)
O14_2 O 1.8878(8) 0.6119(5) 1.0536(5)
O15A O 0.9459(10) 0.4509(5) 0.8970(5)
O15A_2 O 1.9459(10) 0.4509(5) 0.8970(5)
Cd1 Cd 0.91568(15) -0.03078(9) 1.01845(7)
Cl1 Cl 0.7295(8) -0.1177(5) 1.0525(4)
N1 N 0.9002(19) 0.0835(8) 1.0606(9)
N2 N 0.9019(16) 0.0362(7) 0.9219(7)
N3 N 1.0014(14) 0.1066(8) 1.3674(5)
N4 N 0.5400(13) 0.3367(7) 0.9232(10)
C1 C 0.4665(14) 0.4001(8) 0.8976(8)
H1 H 0.4283 0.3869 0.8585
H2 H 0.5271 0.4385 0.8867
H3 H 0.3958 0.4167 0.9308
C2 C 0.6618(15) 0.3427(11) 0.9335(8)
H4 H 0.6961 0.3889 0.9287
C3 C 0.7527(13) 0.2820(8) 0.9524(9)
H5 H 0.8384 0.2901 0.9634
C4 C 0.7075(13) 0.2152(8) 0.9533(9)
C5 C 0.5568(15) 0.2119(9) 0.9517(11)
H6 H 0.5098 0.1710 0.9658
C6 C 0.4970(16) 0.2725(8) 0.9284(12)
H7 H 0.4131 0.2671 0.9141
C7 C 0.7866(16) 0.1464(8) 0.9726(8)
C8 C 0.8194(18) 0.1366(7) 1.0394(8)
C9 C 0.7735(15) 0.1886(8) 1.0919(7)
H8 H 0.7196 0.2313 1.0892
C10 C 0.8293(12) 0.1594(8) 1.1464(8)
H9 H 0.8155 0.1781 1.1890
C11 C 0.9123(18) 0.0955(9) 1.1266(7)
C12 C 0.8242(16) 0.1037(7) 0.9161(7)
C13 C 0.7946(12) 0.1168(7) 0.8489(7)
H10 H 0.7430 0.1562 0.8339
C14 C 0.8548(17) 0.0622(10) 0.8117(9)
H11 H 0.8525 0.0574 0.7663
C15 C 0.9244(15) 0.0117(10) 0.8542(8)
C16 C 0.9936(13) 0.0493(8) 1.1648(6)
C17 C 0.9942(16) 0.0703(8) 1.2373(8)
C18 C 0.8794(14) 0.0778(9) 1.2805(8)
H12 H 0.7963 0.0709 1.2658
C19 C 0.8862(16) 0.0958(14) 1.3460(8)
H13 H 0.8075 0.1002 1.3752
C20 C 1.1221(17) 0.0815(11) 1.2613(7)
H14 H 1.2034 0.0742 1.2345
C21 C 1.1164(16) 0.1035(10) 1.3251(6)
H15 H 1.1953 0.1171 1.3405
C22 C 1.011(3) 0.1285(14) 1.4376(9)
H16 H 0.9307 0.1567 1.4539
H17 H 1.0201 0.0856 1.4650
H18 H 1.0878 0.1573 1.4388
Cd1A Cd 1.08432(15) 0.03078(9) 0.98155(7)
Cl1A Cl 1.2705(8) 0.1177(5) 0.9475(4)
N1A N 1.0998(19) -0.0835(8) 0.9394(9)
N2A N 1.0981(16) -0.0362(7) 1.0781(7)
N3A N 0.9986(14) -0.1066(8) 0.6326(5)
N4A N 1.4600(13) -0.3367(7) 1.0768(10)
C1A C 1.5335(14) -0.4001(8) 1.1024(8)
H1A H 1.5717 -0.3869 1.1415
H2A H 1.4729 -0.4385 1.1133
H3A H 1.6042 -0.4167 1.0692
C2A C 1.3382(15) -0.3427(11) 1.0665(8)
H4A H 1.3039 -0.3889 1.0713
C3A C 1.2473(13) -0.2820(8) 1.0476(9)
H5A H 1.1616 -0.2901 1.0366
C4A C 1.2925(13) -0.2152(8) 1.0467(9)
C5A C 1.4432(15) -0.2119(9) 1.0483(11)
H6A H 1.4902 -0.1710 1.0342
C6A C 1.5030(16) -0.2725(8) 1.0716(12)
H7A H 1.5869 -0.2671 1.0859
C7A C 1.2134(16) -0.1464(8) 1.0274(8)
C8A C 1.1806(18) -0.1366(7) 0.9606(8)
C9A C 1.2265(15) -0.1886(8) 0.9081(7)
H8A H 1.2804 -0.2313 0.9108
C10A C 1.1707(12) -0.1594(8) 0.8536(8)
H9A H 1.1845 -0.1781 0.8110
C11A C 1.0877(18) -0.0955(9) 0.8734(7)
C12A C 1.1758(16) -0.1037(7) 1.0839(7)
C13A C 1.2054(12) -0.1168(7) 1.1511(7)
H10A H 1.2570 -0.1562 1.1661
C14A C 1.1452(17) -0.0622(10) 1.1883(9)
H11A H 1.1475 -0.0574 1.2337
C15A C 1.0756(15) -0.0117(10) 1.1458(8)
C16A C 1.0064(13) -0.0493(8) 0.8352(6)
C17A C 1.0058(16) -0.0703(8) 0.7627(8)
C18A C 1.1206(14) -0.0778(9) 0.7195(8)
H12A H 1.2037 -0.0709 0.7342
C19A C 1.1138(16) -0.0958(14) 0.6540(8)
H13A H 1.1925 -0.1002 0.6248
C20A C 0.8779(17) -0.0815(11) 0.7387(7)
H14A H 0.7966 -0.0742 0.7655
C21A C 0.8836(16) -0.1035(10) 0.6749(6)
H15A H 0.8047 -0.1171 0.6595
C22A C 0.989(3) -0.1285(14) 0.5624(9)
H16A H 1.0693 -0.1567 0.5461
H17A H 0.9799 -0.0856 0.5350
H18A H 0.9122 -0.1573 0.5612
loop_
_geom_bond_atom_site_label_1
_geom_bond_atom_site_label_2
_geom_bond_site_symmetry_1
_geom_bond_site_symmetry_2
Cd1 Cl1 1_555 1_555
N1 Cd1 1_555 1_555
N2 Cd1 1_555 1_555
N3 C19 1_555 1_555
N4 C1 1_555 1_555
C1 H1 1_555 1_555
H2 C1 1_555 1_555
H3 C1 1_555 1_555
C2 N4 1_555 1_555
H4 C2 1_555 1_555
C3 C2 1_555 1_555
H5 C3 1_555 1_555
C4 C3 1_555 1_555
C5 C4 1_555 1_555
H6 C5 1_555 1_555
C6 N4 1_555 1_555
H7 C6 1_555 1_555
C7 C4 1_555 1_555
C8 N1 1_555 1_555
C9 C8 1_555 1_555
H8 C9 1_555 1_555
C10 C9 1_555 1_555
H9 C10 1_555 1_555
C11 N1 1_555 1_555
C12 N2 1_555 1_555
C13 C12 1_555 1_555
H10 C13 1_555 1_555
C14 C13 1_555 1_555
H11 C14 1_555 1_555
C15 N2 1_555 1_555
C16 C11 1_555 1_555
C17 C16 1_555 1_555
C18 C17 1_555 1_555
H12 C18 1_555 1_555
C19 C18 1_555 1_555
H13 C19 1_555 1_555
C20 C17 1_555 1_555
H14 C20 1_555 1_555
C21 N3 1_555 1_555
H15 C21 1_555 1_555
C22 N3 1_555 1_555
H16 C22 1_555 1_555
H17 C22 1_555 1_555
H18 C22 1_555 1_555
Cd2 O4 1_555 1_555
Cd3 O8 1_555 1_555
C23 C24 1_555 1_555
C24 C25 1_555 1_555
C25 H19 1_555 1_555
C26 C25 1_555 1_555
H20 C26 1_555 1_555
C27 C26 1_555 1_555
C28 C27 1_555 1_555
H21 C28 1_555 1_555
C29 C24 1_555 1_555
H22 C29 1_555 1_555
C30 C27 1_555 1_555
C31 C30 1_555 1_555
H23 C31 1_555 1_555
C32 C31 1_555 1_555
C33 C32 1_555 1_555
H24 C33 1_555 1_555
C34 C33 1_555 1_555
C35 C30 1_555 1_555
H25 C35 1_555 1_555
C36 C34 1_555 1_555
C37 C32 1_555 1_555
C38 C39 1_555 1_555
C39 C40 1_555 1_555
C40 H26 1_555 1_555
C41 C40 1_555 1_555
H27 C41 1_555 1_555
C42 C41 1_555 1_555
C43 C42 1_555 1_555
H28 C43 1_555 1_555
C44 C39 1_555 1_555
H29 C44 1_555 1_555
C45 C42 1_555 1_555
C46 C45 1_555 1_555
H30 C46 1_555 1_555
C47 C46 1_555 1_555
C48 C47 1_555 1_555
H31 C48 1_555 1_555
C49 C48 1_555 1_555
C50 C45 1_555 1_555
H32 C50 1_555 1_555
C51 C49 1_555 1_555
C52 C47 1_555 1_555
O4 C51 1_555 1_555
O5 Cd2 1_555 1_555
O6 C52 1_555 1_555
O7 C52 1_555 1_555
O8 C38 1_555 1_555
O9 C38 1_555 1_555
O10 C36 1_555 1_555
O11 C36 1_555 1_555
O12 C37 1_555 1_555
O13 C37 1_555 1_555
O14 Cd2 1_555 1_555
O15 C23 1_555 1_555
Cd1A Cd1 1_555 1_555
Cl1A Cd1A 1_555 1_555
N1A Cd1 1_555 1_555
N2A Cd1 1_555 1_555
N3A C19A 1_555 1_555
N4A C1A 1_555 1_555
C1A H1A 1_555 1_555
H2A C1A 1_555 1_555
H3A C1A 1_555 1_555
C2A N4A 1_555 1_555
H4A C2A 1_555 1_555
C3A C2A 1_555 1_555
H5A C3A 1_555 1_555
C4A C3A 1_555 1_555
C5A C4A 1_555 1_555
H6A C5A 1_555 1_555
C6A N4A 1_555 1_555
H7A C6A 1_555 1_555
C7A C4A 1_555 1_555
C8A N1A 1_555 1_555
C9A C8A 1_555 1_555
H8A C9A 1_555 1_555
C10A C9A 1_555 1_555
H9A C10A 1_555 1_555
C11A N1A 1_555 1_555
C12A N2A 1_555 1_555
C13A C12A 1_555 1_555
H10A C13A 1_555 1_555
C14A C13A 1_555 1_555
H11A C14A 1_555 1_555
C15A C16 1_555 1_555
C16A C15 1_555 1_555
C17A C16A 1_555 1_555
C18A C17A 1_555 1_555
H12A C18A 1_555 1_555
C19A C18A 1_555 1_555
H13A C19A 1_555 1_555
C20A C17A 1_555 1_555
H14A C20A 1_555 1_555
C21A N3A 1_555 1_555
H15A C21A 1_555 1_555
C22A N3A 1_555 1_555
H16A C22A 1_555 1_555
H17A C22A 1_555 1_555
H18A C22A 1_555 1_555
Cd2_2 O4_2 1_555 1_555
Cd2_3 O6 1_555 1_555
Cd2A O6 1_555 1_555
Cd2A_2 O15 1_555 1_555
Cd3_2 O8_2 1_555 1_555
Cd3A O9 1_555 1_555
Cd3_3 O10 1_555 1_555
Cd3A_2 O12 1_555 1_555
Cd3_4 O13 1_555 1_555
Cd3A_3 O9_2 1_555 1_555
Cd3A_4 O10A 1_555 1_555
Cd3_5 O12A 1_555 1_555
Cd3A_5 O13A 1_555 1_555
C23A C24A 1_555 1_555
C24A C25A 1_555 1_555
C25A H19A 1_555 1_555
C26A C25A 1_555 1_555
H20A C26A 1_555 1_555
C27A C26A 1_555 1_555
C28A C27A 1_555 1_555
H21A C28A 1_555 1_555
C29A C24A 1_555 1_555
H22A C29A 1_555 1_555
C30A C27A 1_555 1_555
C31A C30A 1_555 1_555
H23A C31A 1_555 1_555
C32A C31A 1_555 1_555
C33A C32A 1_555 1_555
H24A C33A 1_555 1_555
C34A C33A 1_555 1_555
C35A C30A 1_555 1_555
H25A C35A 1_555 1_555
C36A C34A 1_555 1_555
C37A C32A 1_555 1_555
C38_2 C39_2 1_555 1_555
C39_2 C40_2 1_555 1_555
C40_2 H26_2 1_555 1_555
C41_2 C40_2 1_555 1_555
H27_2 C41_2 1_555 1_555
C42_2 C41_2 1_555 1_555
C43_2 C42_2 1_555 1_555
H28_2 C43_2 1_555 1_555
C44_2 C39_2 1_555 1_555
H29_2 C44_2 1_555 1_555
C45_2 C42_2 1_555 1_555
C46_2 C45_2 1_555 1_555
H30_2 C46_2 1_555 1_555
C47_2 C46_2 1_555 1_555
C48_2 C47_2 1_555 1_555
H31_2 C48_2 1_555 1_555
C49_2 C48_2 1_555 1_555
C50_2 C45_2 1_555 1_555
H32_2 C50_2 1_555 1_555
C51_2 C49_2 1_555 1_555
C52_2 C47_2 1_555 1_555
O4_2 C51_2 1_555 1_555
O5_2 Cd2_2 1_555 1_555
O6_2 Cd2 1_555 1_555
O6A Cd2 1_555 1_555
O6_3 Cd2_2 1_555 1_555
O6A_2 Cd2_2 1_555 1_555
O7_2 Cd2 1_555 1_555
O7_3 Cd2_2 1_555 1_555
O8_2 C38_2 1_555 1_555
O9_2 C38_2 1_555 1_555
O9A Cd3 1_555 1_555
O9A_2 Cd3_2 1_555 1_555
O10A C36A 1_555 1_555
O10_2 Cd3 1_555 1_555
O10_3 Cd3_2 1_555 1_555
O11A Cd3A_4 1_555 1_555
O11_2 Cd3 1_555 1_555
O11_3 Cd3_2 1_555 1_555
O12A C37A 1_555 1_555
O12A_2 Cd3 1_555 1_555
O12A_3 Cd3_2 1_555 1_555
O13A C37A 1_555 1_555
O13_2 Cd3 1_555 1_555
O13_3 Cd3_2 1_555 1_555
O14A Cd2A_2 1_555 1_555
O14_2 Cd2_2 1_555 1_555
O15A Cd2 1_555 1_555
O15A_2 Cd2_2 1_555 1_555
N1 Cd1A 1_555 1_555
N2 Cd1A 1_555 1_555
C5 C6 1_555 1_555
C7 C8 1_555 1_555
C7 C12 1_555 1_555
C10 C11 1_555 1_555
C14 C15 1_555 1_555
C20 C21 1_555 1_555
C23 O14 1_555 1_555
C28 C29 1_555 1_555
C34 C35 1_555 1_555
C43 C44 1_555 1_555
C49 C50 1_555 1_555
C51 O5 1_555 1_555
O7 Cd2_3 1_555 1_555
O11 Cd3_3 1_555 1_555
Cd1A N1A 1_555 1_555
Cd1A N2A 1_555 1_555
N2A C15A 1_555 1_555
C5A C6A 1_555 1_555
C7A C8A 1_555 1_555
C7A C12A 1_555 1_555
C10A C11A 1_555 1_555
C11A C16A 1_555 1_555
C14A C15A 1_555 1_555
C20A C21A 1_555 1_555
Cd2A_2 O6_2 1_555 1_555
Cd2A_2 O6A 1_555 1_555
C23A O14A 1_555 1_555
C23A O15A 1_555 1_555
C28A C29A 1_555 1_555
C34A C35A 1_555 1_555
C36A O11A 1_555 1_555
C43_2 C44_2 1_555 1_555
C49_2 C50_2 1_555 1_555
C51_2 O5_2 1_555 1_555
C52_2 O6_2 1_555 1_555
C52_2 O7_2 1_555 1_555

#END
