
#######################################################################
#
#                 Cambridge Crystallographic Data Centre
#                                CCDC 
#
#######################################################################
#
# If this CIF has been generated from an entry in the Cambridge 
# Structural Database, then it will include bibliographic, chemical, 
# crystal, experimental, refinement or atomic coordinate data resulting 
# from the CCDC's data processing and validation procedures.
#
#######################################################################

data_MAQBIS
_chemical_formula_moiety         '(C57 H59 Cu3 N1 O27)n'
_symmetry_cell_setting           monoclinic
_symmetry_space_group_name_H-M   'P 21/n'
_symmetry_Int_Tables_number      14
_space_group_name_Hall           '-P 2yn'
loop_
_symmetry_equiv_pos_site_id
_symmetry_equiv_pos_as_xyz
1 x,y,z
2 1/2-x,1/2+y,1/2-z
3 -x,-y,-z
4 1/2+x,1/2-y,1/2+z
_cell_length_a                   15.3035(3)
_cell_length_b                   39.6946(6)
_cell_length_c                   21.5934(5)
_cell_angle_alpha                90
_cell_angle_beta                 107.402(2)
_cell_angle_gamma                90
_cell_volume                     12516.9
loop_
_atom_site_label
_atom_site_type_symbol
_atom_site_fract_x
_atom_site_fract_y
_atom_site_fract_z
_atom_site_U_iso_or_equiv
_atom_site_thermal_displace_type
Cu1 Cu 0.29913(2) 0.236483(9) 0.202848(16) 0.0261 Uani
Cu2 Cu 0.19147(2) 0.283385(9) 0.133712(16) 0.0258 Uani
Cu3 Cu -0.48137(2) -0.007829(9) -0.054086(17) 0.0268 Uani
O1 O 0.13726(12) 0.28602(5) 0.20530(9) 0.0369 Uani
O2 O 0.29022(12) 0.31408(5) 0.17927(9) 0.0363 Uani
O3 O 0.19826(12) 0.20632(5) 0.16305(9) 0.0382 Uani
O4 O -0.39906(12) 0.03083(5) -0.03408(9) 0.0381 Uani
O5 O -0.24304(12) 0.22653(5) 0.57063(8) 0.0349 Uani
O6 O -0.15578(13) 0.26793(5) 0.62768(9) 0.0377 Uani
O7 O 0.23476(13) 0.24849(6) 0.26648(9) 0.0412 Uani
O8 O 0.38522(12) 0.27312(5) 0.23310(9) 0.0371 Uani
O9 O 0.10655(12) 0.24585(5) 0.10113(9) 0.0366 Uani
C1 C -0.38647(16) 0.04743(7) 0.01735(13) 0.0314 Uani
C2 C 0.16528(17) 0.26723(7) 0.25428(12) 0.0312 Uani
C3 C 0.36592(17) 0.30346(7) 0.21697(13) 0.0334 Uani
C4 C -0.18267(16) 0.24922(7) 0.57918(12) 0.0301 Uani
C5 C 0.03415(18) 0.28635(7) 0.29232(13) 0.0361 Uani
H1 H 0.0168 0.3012 0.2575 0.0430 Uiso
C6 C 0.00783(18) 0.26164(8) 0.38708(13) 0.0393 Uani
C7 C -0.04069(17) 0.20139(7) 0.07185(13) 0.0345 Uani
H2 H -0.0521 0.2238 0.0596 0.0410 Uiso
C8 C -0.04506(18) 0.25952(8) 0.43461(13) 0.0385 Uani
C9 C -0.17083(18) 0.11970(7) 0.05936(14) 0.0389 Uani
C10 C 0.08472(19) 0.24103(8) 0.39514(13) 0.0381 Uani
C11 C -0.25735(18) 0.07585(7) -0.00870(14) 0.0378 Uani
H3 H -0.2681 0.0621 -0.0451 0.0450 Uiso
C12 C -0.2277(2) 0.11708(8) 0.09951(15) 0.0421 Uani
C13 C -0.01610(19) 0.28417(8) 0.33521(13) 0.0391 Uani
C14 C -0.09416(18) 0.14471(7) 0.07491(14) 0.0382 Uani
C15 C -0.11120(17) 0.17853(7) 0.05817(13) 0.0345 Uani
C16 C -0.18670(18) 0.09895(8) 0.00517(14) 0.0396 Uani
C17 C 0.11153(17) 0.26605(7) 0.30132(12) 0.0339 Uani
C18 C 0.12264(17) 0.21628(7) 0.12320(12) 0.0311 Uani
C19 C -0.29766(18) 0.09364(7) 0.08617(14) 0.0372 Uani
H4 H -0.3345 0.0916 0.1133 0.0450 Uiso
C20 C 0.13718(18) 0.24386(7) 0.35296(13) 0.0369 Uani
H5 H 0.1896 0.2308 0.3594 0.0440 Uiso
C21 C 0.04782(17) 0.19086(7) 0.10401(12) 0.0342 Uani
C22 C -0.01706(18) 0.27847(7) 0.49186(14) 0.0376 Uani
C23 C 0.52617(18) 0.31801(7) 0.27725(13) 0.0359 Uani
H6 H 0.5390 0.2951 0.2807 0.0430 Uiso
C24 C -0.31235(17) 0.07322(7) 0.03205(13) 0.0340 Uani
C25 C 0.59460(17) 0.34140(7) 0.30519(14) 0.0371 Uani
C26 C 0.43952(17) 0.32918(7) 0.24452(13) 0.0350 Uani
C27 C 0.4190(2) 0.36287(8) 0.23950(15) 0.0444 Uani
H7 H 0.3599 0.3699 0.2176 0.0530 Uiso
C28 C 0.57560(19) 0.37559(8) 0.29963(15) 0.0407 Uani
C29 C 0.64803(18) 0.40037(8) 0.33198(14) 0.0386 Uani
C30 C 0.06608(18) 0.15736(8) 0.12121(14) 0.0376 Uani
H8 H 0.1256 0.1505 0.1427 0.0450 Uiso
C31 C -0.1193(2) 0.23766(9) 0.42452(14) 0.0451 Uani
C32 C -0.00435(19) 0.13417(8) 0.10637(15) 0.0420 Uani
C33 C 0.4857(2) 0.38629(8) 0.26670(16) 0.0461 Uani
O10 O 0.91722(13) 0.47778(5) 0.40224(10) 0.0416 Uani
O11 O 0.88378(12) 0.46589(5) 0.49406(10) 0.0419 Uani
O12 O 0.10381(14) 0.32061(6) 0.07457(10) 0.0437 Uani
O13 O -0.43030(12) 0.04407(5) 0.05823(10) 0.0390 Uani
O14 O -0.20069(12) 0.18578(5) 0.02663(10) 0.0409 Uani
O15 O 0.37867(16) 0.19725(6) 0.25850(11) 0.0541 Uani
H9 H 0.3524 0.1804 0.2696 0.0650 Uiso
H10 H 0.4368 0.1983 0.2698 0.0650 Uiso
O16 O 0.68187(13) 0.33354(5) 0.33942(11) 0.0449 Uani
O17 O -0.12985(14) 0.10417(6) -0.03204(11) 0.0466 Uani
O18 O -0.20731(15) 0.13840(6) 0.15105(11) 0.0505 Uani
O19 O 0.10323(14) 0.21978(6) 0.44739(10) 0.0479 Uani
O20 O -0.09209(15) 0.30325(6) 0.33177(10) 0.0508 Uani
O21 O 0.00570(15) 0.10090(6) 0.12074(12) 0.0536 Uani
O22 O -0.44774(18) -0.02216(7) -0.13848(12) 0.0620 Uani
H11 H -0.4030 -0.0354 -0.1355 0.0740 Uiso
H12 H -0.4789 -0.0147 -0.1754 0.0740 Uiso
C34 C -0.16539(19) 0.23473(8) 0.47079(14) 0.0417 Uani
H13 H -0.2152 0.2203 0.4637 0.0500 Uiso
C35 C -0.06347(18) 0.27570(7) 0.53873(13) 0.0352 Uani
H14 H -0.0456 0.2885 0.5765 0.0420 Uiso
C36 C 0.72704(18) 0.43283(8) 0.42671(15) 0.0396 Uani
H15 H 0.7316 0.4403 0.4684 0.0480 Uiso
O23 O 0.47338(17) 0.42041(7) 0.26558(15) 0.0680 Uani
O24 O 0.05613(13) 0.29881(5) 0.49807(10) 0.0426 Uani
O25 O 0.58937(13) 0.40074(6) 0.41966(11) 0.0472 Uani
O26 O -0.14125(16) 0.21994(8) 0.36759(12) 0.0641 Uani
C37 C 0.79118(17) 0.44254(7) 0.39684(14) 0.0368 Uani
C38 C -0.13688(17) 0.25337(7) 0.52732(12) 0.0335 Uani
C39 C 0.78341(19) 0.43256(8) 0.33375(15) 0.0432 Uani
H16 H 0.8251 0.4401 0.3131 0.0520 Uiso
C40 C 0.87059(16) 0.46392(7) 0.43340(13) 0.0337 Uani
C41 C 0.65564(18) 0.41181(7) 0.39380(15) 0.0394 Uani
C42 C 0.71224(19) 0.41117(8) 0.30202(15) 0.0436 Uani
C43 C -0.2210(2) 0.21996(9) 0.00766(16) 0.0476 Uani
H17 H -0.2853 0.2222 -0.0141 0.0710 Uiso
H18 H -0.1870 0.2266 -0.0212 0.0710 Uiso
H19 H -0.2043 0.2341 0.0454 0.0710 Uiso
C44 C 0.0914(2) 0.31685(9) 0.55708(15) 0.0469 Uani
H20 H 0.1427 0.3302 0.5550 0.0700 Uiso
H21 H 0.1106 0.3012 0.5925 0.0700 Uiso
H22 H 0.0446 0.3313 0.5636 0.0700 Uiso
C45 C -0.1198(2) 0.32638(10) 0.28050(17) 0.0567 Uani
H23 H -0.1733 0.3382 0.2832 0.0850 Uiso
H24 H -0.1338 0.3146 0.2399 0.0850 Uiso
H25 H -0.0714 0.3422 0.2833 0.0850 Uiso
C46 C 0.1792(2) 0.19744(9) 0.45649(16) 0.0514 Uani
H26 H 0.1853 0.1839 0.4943 0.0770 Uiso
H27 H 0.2342 0.2103 0.4621 0.0770 Uiso
H28 H 0.1693 0.1832 0.4192 0.0770 Uiso
C47 C -0.1442(2) 0.08384(9) -0.08903(17) 0.0534 Uani
H29 H -0.1002 0.0898 -0.1109 0.0800 Uiso
H30 H -0.2049 0.0875 -0.1175 0.0800 Uiso
H31 H -0.1369 0.0605 -0.0769 0.0800 Uiso
C48 C -0.2627(3) 0.13581(10) 0.19390(18) 0.0610 Uani
H32 H -0.2422 0.1519 0.2284 0.0920 Uiso
H33 H -0.2576 0.1135 0.2118 0.0920 Uiso
H34 H -0.3255 0.1403 0.1702 0.0920 Uiso
C49 C 0.0951(3) 0.08969(11) 0.1566(2) 0.0636 Uani
H35 H 0.0939 0.0659 0.1638 0.0950 Uiso
H36 H 0.1144 0.1012 0.1976 0.0950 Uiso
H37 H 0.1372 0.0945 0.1325 0.0950 Uiso
O27 O 0.70143(17) 0.39844(7) 0.24151(12) 0.0601 Uani
C50 C 0.5949(2) 0.41122(11) 0.48370(19) 0.0613 Uani
H38 H 0.5448 0.4017 0.4960 0.0920 Uiso
H39 H 0.5918 0.4354 0.4851 0.0920 Uiso
H40 H 0.6517 0.4037 0.5132 0.0920 Uiso
C51 C 0.7032(2) 0.29849(10) 0.3516(2) 0.0682 Uani
H41 H 0.7665 0.2961 0.3761 0.1030 Uiso
H42 H 0.6917 0.2868 0.3111 0.1030 Uiso
H43 H 0.6656 0.2892 0.3758 0.1030 Uiso
C52 C 0.7681(3) 0.40706(13) 0.2100(2) 0.0793 Uani
H44 H 0.7524 0.3966 0.1681 0.1190 Uiso
H45 H 0.8272 0.3993 0.2357 0.1190 Uiso
H46 H 0.7694 0.4311 0.2051 0.1190 Uiso
N1 N -0.0128(2) 0.33450(10) -0.01314(16) 0.0676 Uani
C53 C 0.0433(2) 0.31352(10) 0.02320(17) 0.0554 Uani
H47 H 0.0385 0.2911 0.0101 0.0670 Uiso
C54 C 0.3821(3) 0.43290(13) 0.2345(3) 0.0922 Uani
H48 H 0.3821 0.4571 0.2368 0.1380 Uiso
H49 H 0.3408 0.4240 0.2562 0.1380 Uiso
H50 H 0.3627 0.4260 0.1899 0.1380 Uiso
C55 C -0.2170(3) 0.19828(18) 0.3550(2) 0.1032 Uani
H51 H -0.2254 0.1872 0.3141 0.1550 Uiso
H52 H -0.2709 0.2111 0.3535 0.1550 Uiso
H53 H -0.2067 0.1817 0.3888 0.1550 Uiso
C56 C -0.0833(4) 0.32417(16) -0.0734(3) 0.0942 Uani
H54 H -0.0793 0.3003 -0.0795 0.1410 Uiso
H55 H -0.0735 0.3358 -0.1097 0.1410 Uiso
H56 H -0.1429 0.3296 -0.0702 0.1410 Uiso
C57 C -0.0126(5) 0.37022(17) 0.0019(3) 0.1160 Uani
H57 H 0.0346 0.3747 0.0417 0.1740 Uiso
H58 H -0.0709 0.3764 0.0065 0.1740 Uiso
H59 H -0.0012 0.3831 -0.0326 0.1740 Uiso
Cu1C Cu -0.20087(2) 0.263517(9) 0.702848(16) 0.0261 Uani
Cu2C Cu -0.30853(2) 0.216615(9) 0.633712(16) 0.0258 Uani
Cu3A Cu 0.98137(2) 0.492171(9) 0.554086(17) 0.0268 Uani
Cu3B Cu -0.51863(2) 0.007829(9) 0.054086(17) 0.0268 Uani
Cu3C Cu 1.01863(2) 0.507829(9) 0.445914(17) 0.0268 Uani
O5C O 0.25696(12) 0.27347(5) 0.07063(8) 0.0349 Uani
O6C O 0.34422(13) 0.23207(5) 0.12768(9) 0.0377 Uani
O10C O -0.58278(13) 0.02222(5) -0.09776(10) 0.0416 Uani
O11A O -0.38378(12) -0.03411(5) 0.00594(10) 0.0419 Uani
O13B O -0.56970(12) -0.04407(5) -0.05823(10) 0.0390 Uani
loop_
_atom_site_aniso_label
_atom_site_aniso_U_11
_atom_site_aniso_U_22
_atom_site_aniso_U_33
_atom_site_aniso_U_23
_atom_site_aniso_U_13
_atom_site_aniso_U_12
Cu1 0.02475(17) 0.03057(19) 0.02698(18) -0.00429(14) 0.01390(13) -0.00609(13)
Cu2 0.02515(17) 0.02956(19) 0.02669(18) -0.00444(14) 0.01395(13) -0.00614(13)
Cu3 0.02085(16) 0.02325(18) 0.03628(19) 0.00140(14) 0.00857(13) -0.00042(12)
O1 0.0400(10) 0.0426(11) 0.0369(10) -0.0007(8) 0.0249(8) -0.0025(8)
O2 0.0336(9) 0.0369(11) 0.0382(10) -0.0042(8) 0.0105(8) -0.0104(7)
O3 0.0330(9) 0.0376(11) 0.0433(11) -0.0007(8) 0.0105(8) -0.0086(8)
O4 0.0357(9) 0.0362(11) 0.0430(11) -0.0028(9) 0.0125(8) -0.0115(8)
O5 0.0353 0.0459 0.0294 0.0032 0.0188 0.0037
O6 0.0422 0.0435 0.0359 0.0027 0.0244 0.0004
O7 0.0391(10) 0.0587(13) 0.0326(10) -0.0017(9) 0.0210(8) 0.0000(9)
O8 0.0315(9) 0.0349(11) 0.0451(11) -0.0064(8) 0.0116(8) -0.0071(7)
O9 0.0325(9) 0.0357(11) 0.0417(10) -0.0015(8) 0.0113(8) -0.0085(7)
C1 0.0264(11) 0.0299(14) 0.0363(14) 0.0075(11) 0.0069(10) -0.0002(9)
C2 0.0320(12) 0.0354(14) 0.0316(13) -0.0081(11) 0.0176(10) -0.0081(10)
C3 0.0330(13) 0.0382(16) 0.0348(13) -0.0107(11) 0.0188(11) -0.0099(10)
C4 0.0293 0.0339 0.0307 0.0071 0.0144 0.0109
C5 0.0359(13) 0.0445(16) 0.0331(13) 0.0006(11) 0.0182(11) -0.0018(11)
C6 0.0354(13) 0.0553(18) 0.0346(14) -0.0007(13) 0.0217(11) 0.0013(12)
C7 0.0333(13) 0.0386(15) 0.0350(13) -0.0024(11) 0.0152(11) -0.0090(10)
C8 0.0349(13) 0.0540(18) 0.0325(13) 0.0052(12) 0.0189(11) 0.0038(12)
C9 0.0359(13) 0.0383(16) 0.0453(16) -0.0021(12) 0.0162(12) -0.0129(11)
C10 0.0417(14) 0.0480(17) 0.0299(13) 0.0011(12) 0.0190(11) 0.0012(12)
C11 0.0348(13) 0.0334(15) 0.0459(15) -0.0020(12) 0.0133(12) -0.0069(10)
C12 0.0425(15) 0.0395(16) 0.0459(16) -0.0043(13) 0.0156(13) -0.0106(12)
C13 0.0368(14) 0.0504(18) 0.0354(14) 0.0007(12) 0.0189(11) 0.0049(12)
C14 0.0333(13) 0.0393(16) 0.0444(15) -0.0045(12) 0.0155(11) -0.0123(11)
C15 0.0297(12) 0.0399(15) 0.0355(13) -0.0038(11) 0.0124(10) -0.0089(10)
C16 0.0353(13) 0.0420(16) 0.0443(16) 0.0013(12) 0.0160(12) -0.0060(11)
C17 0.0321(12) 0.0426(15) 0.0323(13) -0.0063(11) 0.0177(11) -0.0056(10)
C18 0.0308(12) 0.0388(15) 0.0293(12) -0.0087(11) 0.0176(10) -0.0090(10)
C19 0.0352(13) 0.0376(15) 0.0423(15) 0.0018(12) 0.0167(11) -0.0068(11)
C20 0.0334(13) 0.0452(16) 0.0371(14) -0.0006(12) 0.0181(11) 0.0024(11)
C21 0.0336(13) 0.0393(15) 0.0332(13) -0.0054(11) 0.0151(11) -0.0086(10)
C22 0.0351(13) 0.0412(16) 0.0434(15) 0.0039(12) 0.0224(12) 0.0029(11)
C23 0.0359(13) 0.0355(15) 0.0406(14) -0.0093(11) 0.0181(11) -0.0085(11)
C24 0.0290(12) 0.0343(14) 0.0397(14) 0.0027(11) 0.0120(11) -0.0040(10)
C25 0.0298(13) 0.0400(16) 0.0437(15) -0.0098(12) 0.0143(11) -0.0091(11)
C26 0.0309(12) 0.0424(16) 0.0344(13) -0.0079(11) 0.0141(10) -0.0102(11)
C27 0.0368(14) 0.0463(18) 0.0459(16) -0.0009(13) 0.0058(12) -0.0059(12)
C28 0.0372(14) 0.0375(16) 0.0455(16) -0.0049(12) 0.0096(12) -0.0126(11)
C29 0.0315(13) 0.0377(16) 0.0431(15) -0.0041(12) 0.0057(11) -0.0073(11)
C30 0.0296(12) 0.0414(16) 0.0417(15) -0.0047(12) 0.0103(11) -0.0048(11)
C31 0.0415(15) 0.066(2) 0.0329(14) -0.0060(14) 0.0187(12) -0.0022(13)
C32 0.0402(15) 0.0398(17) 0.0481(16) -0.0018(13) 0.0165(13) -0.0076(12)
C33 0.0387(15) 0.0426(18) 0.0527(18) 0.0024(14) 0.0069(13) -0.0055(12)
O10 0.0351 0.0396 0.0471 -0.0029 0.0077 -0.0105
O11 0.0298 0.0467 0.0497 -0.0092 0.0127 -0.01
O12 0.0461(11) 0.0459(12) 0.0392(11) -0.0001(9) 0.0131(9) 0.0023(9)
O13 0.0353(9) 0.0326(10) 0.0537(12) -0.0067(9) 0.0203(9) -0.0104(7)
O14 0.0338(9) 0.0444(12) 0.0452(11) -0.0026(9) 0.0128(8) -0.0102(8)
O15 0.0513(12) 0.0570(15) 0.0547(13) 0.0131(11) 0.0168(10) 0.0043(10)
O16 0.0317(10) 0.0407(12) 0.0623(13) -0.0075(10) 0.0139(9) -0.0069(8)
O17 0.0430(11) 0.0465(12) 0.0550(12) -0.0085(10) 0.0219(9) -0.0134(9)
O18 0.0551(12) 0.0489(13) 0.0528(13) -0.0132(10) 0.0241(10) -0.0210(10)
O19 0.0498(12) 0.0589(14) 0.0425(11) 0.0083(10) 0.0254(9) 0.0083(10)
O20 0.0487(11) 0.0667(15) 0.0451(12) 0.0102(11) 0.0263(10) 0.0145(10)
O21 0.0494(12) 0.0401(13) 0.0688(15) 0.0019(11) 0.0138(11) -0.0071(9)
O22 0.0748(16) 0.0624(16) 0.0585(14) -0.0035(12) 0.0346(13) -0.0005(12)
C34 0.0357(13) 0.0579(19) 0.0372(15) -0.0016(13) 0.0194(12) -0.0045(12)
C35 0.0383(13) 0.0414(15) 0.0309(13) 0.0022(11) 0.0180(11) 0.0068(11)
C36 0.0341(13) 0.0382(16) 0.0459(16) -0.0082(12) 0.0109(12) -0.0048(11)
O23 0.0517(14) 0.0459(15) 0.091(2) 0.0039(13) -0.0022(12) -0.0065(10)
O24 0.0448(10) 0.0475(12) 0.0441(11) -0.0030(9) 0.0263(9) -0.0028(9)
O25 0.0384(10) 0.0523(13) 0.0517(12) -0.0145(10) 0.0147(9) -0.0149(9)
O26 0.0552(13) 0.097(2) 0.0493(13) -0.0193(13) 0.0298(11) -0.0215(13)
C37 0.0303(12) 0.0315(14) 0.0478(16) -0.0045(12) 0.0106(11) -0.0030(10)
C38 0.0334(13) 0.0392(15) 0.0329(13) 0.0063(11) 0.0176(11) 0.0053(10)
C39 0.0377(14) 0.0436(17) 0.0478(17) 0.0003(13) 0.0120(12) -0.0084(12)
C40 0.0274 0.0292 0.044 -0.0013 0.0099 0.0041
C41 0.0314(13) 0.0366(15) 0.0508(17) -0.0065(12) 0.0133(12) -0.0056(11)
C42 0.0371(14) 0.0477(18) 0.0435(16) -0.0035(13) 0.0083(12) -0.0112(12)
C43 0.0377(15) 0.054(2) 0.0513(18) 0.0007(15) 0.0137(13) -0.0051(13)
C44 0.0477(16) 0.0519(19) 0.0483(17) -0.0008(14) 0.0253(14) -0.0042(13)
C45 0.0504(18) 0.072(2) 0.0541(19) 0.0129(17) 0.0254(15) 0.0192(16)
C46 0.0572(18) 0.062(2) 0.0429(17) 0.0069(15) 0.0270(15) 0.0080(15)
C47 0.0507(17) 0.055(2) 0.061(2) -0.0062(16) 0.0267(16) -0.0111(15)
C48 0.075(2) 0.060(2) 0.056(2) -0.0129(17) 0.0316(18) -0.0223(18)
C49 0.060(2) 0.056(2) 0.073(2) 0.0042(19) 0.0171(18) -0.0029(16)
O27 0.0616(14) 0.0666(17) 0.0527(14) -0.0125(12) 0.0180(11) -0.0262(12)
C50 0.0440(17) 0.074(3) 0.069(2) -0.0143(19) 0.0218(16) -0.0130(16)
C51 0.0415(18) 0.054(2) 0.107(3) -0.008(2) 0.0190(19) -0.0019(15)
C52 0.088(3) 0.093(3) 0.063(2) -0.020(2) 0.032(2) -0.039(3)
N1 0.070(2) 0.073(2) 0.0550(18) 0.0007(16) 0.0112(15) 0.0100(16)
C53 0.062(2) 0.051(2) 0.054(2) -0.0035(16) 0.0186(17) -0.0035(16)
C54 0.065(3) 0.063(3) 0.130(4) 0.002(3) 0.001(3) -0.002(2)
C55 0.081(3) 0.174(6) 0.067(3) -0.049(3) 0.041(2) -0.050(3)
C56 0.085(3) 0.096(4) 0.092(4) 0.005(3) 0.012(3) 0.001(3)
C57 0.133(5) 0.090(4) 0.106(4) -0.007(4) 0.007(4) 0.029(4)
Cu1C 0.02475 0.03057 0.02698 0.00429 0.0139 0.00609
Cu2C 0.02515 0.02956 0.02669 0.00444 0.01395 0.00614
Cu3A 0.02085 0.02325 0.03628 -0.0014 0.00857 0.00042
Cu3B 0.02085 0.02325 0.03628 0.0014 0.00857 -0.00042
Cu3C 0.02085 0.02325 0.03628 -0.0014 0.00857 0.00042
O5C 0.0353 0.0459 0.0294 -0.0032 0.0188 -0.0037
O6C 0.0422 0.0435 0.0359 -0.0027 0.0244 -0.0004
O10C 0.0351 0.0396 0.0471 0.0029 0.0077 0.0105
O11A 0.0298 0.0467 0.0497 0.0092 0.0127 0.01
O13B 0.0353 0.0326 0.0537 -0.0067 0.0203 -0.0104
loop_
_geom_bond_atom_site_label_1
_geom_bond_atom_site_label_2
_geom_bond_site_symmetry_1
_geom_bond_site_symmetry_2
Cu1 Cu2 1_555 1_555
Cu2 O1 1_555 1_555
Cu3 O4 1_555 1_555
O1 C2 1_555 1_555
O2 Cu2 1_555 1_555
O3 Cu1 1_555 1_555
O4 C1 1_555 1_555
O5 C4 1_555 1_555
O6 C4 1_555 1_555
O7 Cu1 1_555 1_555
O8 Cu1 1_555 1_555
O9 Cu2 1_555 1_555
C1 C24 1_555 1_555
C2 O7 1_555 1_555
C3 O2 1_555 1_555
C4 C38 1_555 1_555
C5 H1 1_555 1_555
C6 C8 1_555 1_555
C7 H2 1_555 1_555
C8 C22 1_555 1_555
C9 C12 1_555 1_555
C10 C6 1_555 1_555
C11 H3 1_555 1_555
C12 C19 1_555 1_555
C13 C5 1_555 1_555
C14 C9 1_555 1_555
C15 C7 1_555 1_555
C16 C9 1_555 1_555
C17 C2 1_555 1_555
C18 O3 1_555 1_555
C19 H4 1_555 1_555
C20 C10 1_555 1_555
H5 C20 1_555 1_555
C21 C7 1_555 1_555
C22 C35 1_555 1_555
C23 H6 1_555 1_555
C24 C11 1_555 1_555
C25 C23 1_555 1_555
C26 C3 1_555 1_555
C27 C26 1_555 1_555
H7 C27 1_555 1_555
C28 C25 1_555 1_555
C29 C28 1_555 1_555
C30 C21 1_555 1_555
H8 C30 1_555 1_555
C31 C8 1_555 1_555
C32 C14 1_555 1_555
C33 C27 1_555 1_555
O10 C40 1_555 1_555
O11 C40 1_555 1_555
O12 Cu2 1_555 1_555
O13 C1 1_555 1_555
O14 C15 1_555 1_555
O15 Cu1 1_555 1_555
H9 O15 1_555 1_555
H10 O15 1_555 1_555
O16 C25 1_555 1_555
O17 C16 1_555 1_555
O18 C12 1_555 1_555
O19 C10 1_555 1_555
O20 C13 1_555 1_555
O21 C32 1_555 1_555
O22 Cu3 1_555 1_555
H11 O22 1_555 1_555
H12 O22 1_555 1_555
C34 C31 1_555 1_555
H13 C34 1_555 1_555
C35 H14 1_555 1_555
C36 H15 1_555 1_555
O23 C33 1_555 1_555
O24 C22 1_555 1_555
O25 C41 1_555 1_555
O26 C31 1_555 1_555
C37 C36 1_555 1_555
C38 C34 1_555 1_555
C39 C37 1_555 1_555
H16 C39 1_555 1_555
C40 C37 1_555 1_555
C41 C29 1_555 1_555
C42 C29 1_555 1_555
C43 O14 1_555 1_555
H17 C43 1_555 1_555
H18 C43 1_555 1_555
H19 C43 1_555 1_555
C44 O24 1_555 1_555
H20 C44 1_555 1_555
H21 C44 1_555 1_555
H22 C44 1_555 1_555
C45 O20 1_555 1_555
H23 C45 1_555 1_555
H24 C45 1_555 1_555
H25 C45 1_555 1_555
C46 O19 1_555 1_555
H26 C46 1_555 1_555
H27 C46 1_555 1_555
H28 C46 1_555 1_555
C47 O17 1_555 1_555
H29 C47 1_555 1_555
H30 C47 1_555 1_555
H31 C47 1_555 1_555
C48 O18 1_555 1_555
H32 C48 1_555 1_555
H33 C48 1_555 1_555
H34 C48 1_555 1_555
C49 O21 1_555 1_555
H35 C49 1_555 1_555
H36 C49 1_555 1_555
H37 C49 1_555 1_555
O27 C42 1_555 1_555
C50 O25 1_555 1_555
H38 C50 1_555 1_555
H39 C50 1_555 1_555
H40 C50 1_555 1_555
C51 O16 1_555 1_555
H41 C51 1_555 1_555
H42 C51 1_555 1_555
H43 C51 1_555 1_555
C52 O27 1_555 1_555
H44 C52 1_555 1_555
H45 C52 1_555 1_555
H46 C52 1_555 1_555
N1 C53 1_555 1_555
C53 O12 1_555 1_555
H47 C53 1_555 1_555
C54 O23 1_555 1_555
H48 C54 1_555 1_555
H49 C54 1_555 1_555
H50 C54 1_555 1_555
C55 O26 1_555 1_555
H51 C55 1_555 1_555
H52 C55 1_555 1_555
H53 C55 1_555 1_555
C56 N1 1_555 1_555
H54 C56 1_555 1_555
H55 C56 1_555 1_555
H56 C56 1_555 1_555
C57 N1 1_555 1_555
H57 C57 1_555 1_555
H58 C57 1_555 1_555
H59 C57 1_555 1_555
Cu1C O6 1_555 1_555
Cu2C O5 1_555 1_555
Cu3A O11 1_555 1_555
Cu3B Cu3 1_555 1_555
Cu3C O10 1_555 1_555
O5C Cu2 1_555 1_555
O6C Cu1 1_555 1_555
O10C Cu3 1_555 1_555
O11A Cu3 1_555 1_555
O13B Cu3 1_555 1_555
O8 C3 1_555 1_555
O9 C18 1_555 1_555
C5 C17 1_555 1_555
C6 C13 1_555 1_555
C11 C16 1_555 1_555
C14 C15 1_555 1_555
C17 C20 1_555 1_555
C18 C21 1_555 1_555
C19 C24 1_555 1_555
C23 C26 1_555 1_555
C28 C33 1_555 1_555
C30 C32 1_555 1_555
O13 Cu3B 1_555 1_555
C35 C38 1_555 1_555
C36 C41 1_555 1_555
C39 C42 1_555 1_555
Cu1C Cu2C 1_555 1_555
Cu3A Cu3C 1_555 1_555

#END
