
#######################################################################
#
#                 Cambridge Crystallographic Data Centre
#                                CCDC 
#
#######################################################################
#
# If this CIF has been generated from an entry in the Cambridge 
# Structural Database, then it will include bibliographic, chemical, 
# crystal, experimental, refinement or atomic coordinate data resulting 
# from the CCDC's data processing and validation procedures.
#
#######################################################################

data_MAQBEO
_chemical_formula_moiety         '(C59 H61 N1 O27 Zn4)n'
_symmetry_cell_setting           triclinic
_symmetry_space_group_name_H-M   'P -1'
_symmetry_Int_Tables_number      2
_space_group_name_Hall           '-P 1'
loop_
_symmetry_equiv_pos_site_id
_symmetry_equiv_pos_as_xyz
1 x,y,z
2 -x,-y,-z
_cell_length_a                   16.8289(5)
_cell_length_b                   16.9625(5)
_cell_length_c                   17.0341(5)
_cell_angle_alpha                94.812(2)
_cell_angle_beta                 95.549(2)
_cell_angle_gamma                91.609(2)
_cell_volume                     4819.5
loop_
_atom_site_label
_atom_site_type_symbol
_atom_site_fract_x
_atom_site_fract_y
_atom_site_fract_z
Zn1 Zn 0.32934(3) 0.23404(3) 0.21228(3)
Zn2 Zn 0.18474(3) 0.35198(3) 0.22890(3)
Zn3 Zn 0.34782(3) 0.36496(3) 0.35456(3)
Zn4 Zn 0.22972(3) 0.22488(3) 0.35457(3)
O1 O 0.27379(16) 0.29606(16) 0.28625(15)
O2 O 0.35890(17) 0.46897(17) 0.31675(17)
O3 O 0.32541(18) 0.37876(18) -0.53420(16)
O4 O 0.23342(19) 0.36225(19) 0.12163(17)
O5 O 0.27213(18) 1.11976(17) 0.33289(17)
O6 O 0.22890(19) 0.46401(17) 0.27570(19)
O7 O 0.45349(17) 0.31764(18) 0.35955(17)
O8 O 0.74524(18) 0.3121(2) 0.46063(17)
O9 O 0.4112(2) 0.3019(2) -0.16247(18)
O10 O 0.31902(19) 0.26530(18) 0.10674(17)
O11 O 0.2725(2) 0.25639(18) -0.53573(17)
O12 O 1.11656(18) 0.20790(19) 0.3600(2)
O13 O 0.44563(18) 0.2448(2) 0.24263(18)
O14 O 0.31120(19) 1.11931(17) 0.21151(17)
O15 O 0.44393(19) 0.75567(19) 0.3099(2)
O16 O 1.11418(19) 0.3331(2) 0.3337(2)
O17 O 0.1731(2) 0.74605(18) 0.2149(2)
O18 O 0.81803(18) 0.38847(19) 0.3020(2)
O19 O 0.82359(19) 0.12713(19) 0.3661(2)
O20 O 0.3541(2) 0.46674(19) -0.23748(17)
O21 O 0.3531(2) 0.82765(18) 0.13773(19)
O22 O 0.1376(2) 0.2382(2) 0.1812(2)
O23 O 0.7350(2) 0.1973(3) 0.20247(19)
C1 C 0.2381(3) 0.7026(3) 0.2414(3)
C2 C 0.6137(3) 0.2934(3) 0.3866(2)
H1 H 0.5880 0.3146 0.4290
C3 C 0.3290(3) 0.8752(3) 0.2000(2)
C4 C 0.4820(3) 0.2766(2) 0.3047(2)
C5 C 0.2952(3) 0.4991(3) 0.2888(2)
C6 C 0.3199(3) 0.4064(3) -0.2878(2)
C7 C 0.8657(3) 0.3285(3) 0.3200(3)
C8 C 0.6084(3) 0.2326(3) 0.2525(3)
H2 H 0.5787 0.2128 0.2057
C9 C 0.2156(3) 0.3685(3) -0.1266(2)
C10 C 0.7363(3) 0.2562(3) 0.3308(3)
C11 C 0.3010(3) 0.5857(2) 0.2757(2)
C12 C 0.5707(2) 0.2668(3) 0.3158(3)
C13 C 0.3736(3) 0.6278(2) 0.2956(2)
H3 H 0.4192 0.6020 0.3127
C14 C 0.2796(3) 0.3340(3) -0.0036(2)
C15 C 0.3487(3) 0.3219(3) -0.1200(2)
C16 C 0.3082(3) 0.7473(2) 0.2620(2)
C17 C 0.2141(3) 0.3624(3) -0.0451(2)
H4 H 0.1696 0.3772 -0.0198
C18 C 0.3482(3) 0.3136(3) -0.0401(3)
H5 H 0.3924 0.2949 -0.0112
C19 C 0.8250(3) 0.2587(3) 0.3355(2)
C20 C 0.8691(3) 0.1934(3) 0.3532(3)
C21 C 0.3097(3) 0.8345(2) 0.2638(3)
C22 C 0.9486(3) 0.3324(3) 0.3244(3)
H6 H 0.9758 0.3787 0.3152
C23 C 0.2767(3) 0.3202(3) 0.0816(2)
C24 C 0.2817(3) 0.3487(3) -0.1644(2)
C25 C 0.0800(3) 0.4102(4) -0.1395(3)
H7 H 0.0405 0.4257 -0.1792
H8 H 0.0907 0.4527 -0.0986
H9 H 0.0605 0.3642 -0.1172
C26 C 0.2808(3) 0.3472(3) -0.2518(2)
C27 C 0.8559(3) 0.4567(3) 0.2771(3)
H10 H 0.8168 0.4957 0.2669
H11 H 0.8805 0.4425 0.2296
H12 H 0.8959 0.4781 0.3179
C28 C 0.6911(3) 0.2288(3) 0.2607(3)
C29 C 0.3766(3) 0.7086(3) 0.2892(2)
C30 C 0.2328(3) 0.6221(3) 0.2480(2)
H13 H 0.1849 0.5933 0.2342
C31 C 0.0998(3) 0.7045(3) 0.1927(3)
H14 H 0.0600 0.7409 0.1764
H15 H 0.0835 0.6788 0.2369
H16 H 0.1057 0.6655 0.1496
C32 C 0.6968(3) 0.2879(3) 0.3933(2)
C33 C 0.5143(3) 0.7191(3) 0.3406(3)
H17 H 0.5569 0.7583 0.3527
H18 H 0.5292 0.6793 0.3019
H19 H 0.5040 0.6951 0.3879
C34 C 0.7071(3) 0.3418(3) 0.5290(3)
H20 H 0.7471 0.3576 0.5719
H21 H 0.6726 0.3010 0.5444
H22 H 0.6762 0.3865 0.5162
C35 C 0.8661(4) 0.0579(3) 0.3805(4)
H23 H 0.8292 0.0161 0.3895
H24 H 0.9039 0.0686 0.4263
H25 H 0.8938 0.0420 0.3354
C36 C 0.3872(4) 0.5333(3) -0.2718(3)
H26 H 0.4097 0.5716 -0.2304
H27 H 0.3458 0.5568 -0.3039
H28 H 0.4282 0.5158 -0.3040
C37 C 0.3767(4) 0.8670(3) 0.0725(3)
H29 H 0.3917 0.8285 0.0325
H30 H 0.4213 0.9027 0.0902
H31 H 0.3329 0.8962 0.0510
C38 C 0.4793(4) 0.2696(5) -0.1205(3)
H32 H 0.5187 0.2575 -0.1564
H33 H 0.4630 0.2222 -0.0984
H34 H 0.5016 0.3076 -0.0787
C39 C 0.6905(4) 0.1681(6) 0.1296(4)
H35 H 0.7264 0.1483 0.0928
H36 H 0.6610 0.2102 0.1079
H37 H 0.6540 0.1262 0.1391
O24 O 0.15212(18) 0.3922(2) -0.17485(17)
C40 C 0.9899(3) 0.2659(3) 0.3428(3)
C41 C 1.0791(3) 0.2692(3) 0.3453(3)
C42 C 0.9517(3) 0.1964(3) 0.3576(3)
H38 H 0.9808 0.1527 0.3703
C43 C 0.3234(3) 0.3996(3) -0.3701(2)
H39 H 0.3487 0.4392 -0.3943
C44 C 0.2893(3) 0.3340(3) -0.4145(2)
C45 C 0.2960(3) 0.3227(3) -0.5017(2)
C46 C 0.2483(3) 0.2756(3) -0.3806(3)
H40 H 0.2242 0.2321 -0.4117
C47 C 0.2440(3) 0.2832(3) -0.2990(3)
O25 O 0.2059(2) 0.2289(2) -0.25984(19)
C48 C 0.1611(5) 0.1672(5) -0.3086(4)
H41 H 0.1355 0.1330 -0.2758
H42 H 0.1964 0.1372 -0.3395
H43 H 0.1213 0.1899 -0.3433
C49 C 0.2840(3) 0.8781(3) 0.3300(3)
O26 O 0.2663(3) 0.83396(19) 0.3894(2)
C50 C 0.2805(3) 0.9594(3) 0.3331(3)
H44 H 0.2652 0.9882 0.3777
C51 C 0.3246(3) 0.9563(3) 0.2019(3)
H45 H 0.3379 0.9829 0.1591
C52 C 0.3004(3) 0.9974(3) 0.2676(3)
C53 C 0.2931(2) 1.0861(2) 0.2716(2)
C54 C 0.2365(5) 0.8750(3) 0.4570(3)
H46 H 0.2262 0.8380 0.4948
H47 H 0.1879 0.9001 0.4406
H48 H 0.2755 0.9145 0.4808
O27 O 0.0841(2) 0.4078(2) 0.1879(2)
H49 H 0.0444 0.4109 0.2152
H50 H 0.0822 0.4278 0.1437
N1 N 0.0274(4) 0.1500(4) 0.1481(5)
C55 C 0.0648(6) 0.2250(5) 0.1673(5)
H51 H 0.0322 0.2683 0.1698
C56 C 0.0788(7) 0.0810(7) 0.1423(7)
H52 H 0.0605 0.0458 0.0958
H53 H 0.1335 0.0982 0.1382
C57 C -0.0631(5) 0.1437(8) 0.1357(7)
H54 H -0.0859 0.1914 0.1580
H55 H -0.0831 0.0989 0.1607
C58 C 0.0737(9) 0.0397(9) 0.2146(8)
H56 H 0.1067 -0.0056 0.2128
H57 H 0.0193 0.0228 0.2180
H58 H 0.0919 0.0751 0.2602
C59 C -0.0845(10) 0.1326(11) 0.0453(8)
H59 H -0.1415 0.1278 0.0338
H60 H -0.0609 0.0855 0.0242
H61 H -0.0643 0.1775 0.0216
Zn1_2 Zn 0.32934(3) 1.23404(3) 0.21228(3)
Zn2_2 Zn 1.18474(3) 0.35198(3) 0.22890(3)
Zn3_2 Zn 0.34782(3) 0.36496(3) -0.64544(3)
Zn4_2 Zn 0.22972(3) 0.22488(3) -0.64543(3)
Zn4_3 Zn 0.22972(3) 1.22488(3) 0.35457(3)
Zn4_4 Zn 1.22972(3) 0.22488(3) 0.35457(3)
O3_2 O 0.32541(18) 0.37876(18) 0.46580(16)
O5_2 O 0.27213(18) 0.11976(17) 0.33289(17)
O11_2 O 0.2725(2) 0.25639(18) 0.46427(17)
O12_2 O 0.11656(18) 0.20790(19) 0.3600(2)
O14_2 O 0.31120(19) 0.11931(17) 0.21151(17)
O16_2 O 0.11418(19) 0.3331(2) 0.3337(2)
loop_
_geom_bond_atom_site_label_1
_geom_bond_atom_site_label_2
_geom_bond_site_symmetry_1
_geom_bond_site_symmetry_2
Zn1 O1 1_555 1_555
Zn2 O1 1_555 1_555
Zn3 O1 1_555 1_555
Zn4 O1 1_555 1_555
O2 Zn3 1_555 1_555
O3 C45 1_555 1_555
O4 Zn2 1_555 1_555
O5 C53 1_555 1_555
O6 Zn2 1_555 1_555
O7 Zn3 1_555 1_555
O8 C32 1_555 1_555
O9 C15 1_555 1_555
O10 Zn1 1_555 1_555
O11 C45 1_555 1_555
O12 C41 1_555 1_555
O13 Zn1 1_555 1_555
O14 C53 1_555 1_555
O15 C29 1_555 1_555
O16 C41 1_555 1_555
O17 C1 1_555 1_555
O18 C7 1_555 1_555
O19 C20 1_555 1_555
O20 C6 1_555 1_555
O21 C3 1_555 1_555
O22 Zn2 1_555 1_555
O23 C28 1_555 1_555
C1 C16 1_555 1_555
C2 H1 1_555 1_555
C3 C21 1_555 1_555
C4 O7 1_555 1_555
C5 O2 1_555 1_555
C6 C26 1_555 1_555
C7 C19 1_555 1_555
C8 H2 1_555 1_555
C9 C17 1_555 1_555
C10 C19 1_555 1_555
C11 C5 1_555 1_555
C12 C2 1_555 1_555
C13 C11 1_555 1_555
H3 C13 1_555 1_555
C14 C17 1_555 1_555
C15 C18 1_555 1_555
C16 C21 1_555 1_555
C17 H4 1_555 1_555
C18 C14 1_555 1_555
H5 C18 1_555 1_555
C19 C20 1_555 1_555
C20 C42 1_555 1_555
C21 C49 1_555 1_555
C22 C7 1_555 1_555
H6 C22 1_555 1_555
C23 O4 1_555 1_555
C24 C9 1_555 1_555
C25 H7 1_555 1_555
H8 C25 1_555 1_555
H9 C25 1_555 1_555
C26 C24 1_555 1_555
C27 O18 1_555 1_555
H10 C27 1_555 1_555
H11 C27 1_555 1_555
H12 C27 1_555 1_555
C28 C8 1_555 1_555
C29 C13 1_555 1_555
C30 C1 1_555 1_555
H13 C30 1_555 1_555
C31 O17 1_555 1_555
H14 C31 1_555 1_555
H15 C31 1_555 1_555
H16 C31 1_555 1_555
C32 C2 1_555 1_555
C33 O15 1_555 1_555
H17 C33 1_555 1_555
H18 C33 1_555 1_555
H19 C33 1_555 1_555
C34 O8 1_555 1_555
H20 C34 1_555 1_555
H21 C34 1_555 1_555
H22 C34 1_555 1_555
C35 O19 1_555 1_555
H23 C35 1_555 1_555
H24 C35 1_555 1_555
H25 C35 1_555 1_555
C36 O20 1_555 1_555
H26 C36 1_555 1_555
H27 C36 1_555 1_555
H28 C36 1_555 1_555
C37 O21 1_555 1_555
H29 C37 1_555 1_555
H30 C37 1_555 1_555
H31 C37 1_555 1_555
C38 O9 1_555 1_555
H32 C38 1_555 1_555
H33 C38 1_555 1_555
H34 C38 1_555 1_555
C39 O23 1_555 1_555
H35 C39 1_555 1_555
H36 C39 1_555 1_555
H37 C39 1_555 1_555
O24 C9 1_555 1_555
C40 C22 1_555 1_555
C41 C40 1_555 1_555
C42 C40 1_555 1_555
H38 C42 1_555 1_555
C43 C6 1_555 1_555
H39 C43 1_555 1_555
C44 C43 1_555 1_555
C45 C44 1_555 1_555
C46 C44 1_555 1_555
H40 C46 1_555 1_555
C47 C26 1_555 1_555
O25 C47 1_555 1_555
C48 O25 1_555 1_555
H41 C48 1_555 1_555
H42 C48 1_555 1_555
H43 C48 1_555 1_555
C49 O26 1_555 1_555
O26 C54 1_555 1_555
C50 C49 1_555 1_555
H44 C50 1_555 1_555
C51 C3 1_555 1_555
H45 C51 1_555 1_555
C52 C50 1_555 1_555
C53 C52 1_555 1_555
C54 H46 1_555 1_555
H47 C54 1_555 1_555
H48 C54 1_555 1_555
O27 Zn2 1_555 1_555
H49 O27 1_555 1_555
H50 O27 1_555 1_555
N1 C55 1_555 1_555
C55 O22 1_555 1_555
H51 C55 1_555 1_555
C56 N1 1_555 1_555
H52 C56 1_555 1_555
H53 C56 1_555 1_555
C57 N1 1_555 1_555
H54 C57 1_555 1_555
H55 C57 1_555 1_555
C58 C56 1_555 1_555
H56 C58 1_555 1_555
H57 C58 1_555 1_555
H58 C58 1_555 1_555
C59 C57 1_555 1_555
H59 C59 1_555 1_555
H60 C59 1_555 1_555
H61 C59 1_555 1_555
Zn1_2 O14 1_555 1_555
Zn2_2 O16 1_555 1_555
Zn3_2 O3 1_555 1_555
Zn4_2 O11 1_555 1_555
Zn4_3 O5 1_555 1_555
Zn4_4 O12 1_555 1_555
O3_2 Zn3 1_555 1_555
O5_2 Zn4 1_555 1_555
O11_2 Zn4 1_555 1_555
O12_2 Zn4 1_555 1_555
O14_2 Zn1 1_555 1_555
O16_2 Zn2 1_555 1_555
O6 C5 1_555 1_555
O10 C23 1_555 1_555
O13 C4 1_555 1_555
C4 C12 1_555 1_555
C8 C12 1_555 1_555
C10 C28 1_555 1_555
C10 C32 1_555 1_555
C11 C30 1_555 1_555
C14 C23 1_555 1_555
C15 C24 1_555 1_555
C16 C29 1_555 1_555
C25 O24 1_555 1_555
C46 C47 1_555 1_555
C51 C52 1_555 1_555

#END
