
#######################################################################
#
#                 Cambridge Crystallographic Data Centre
#                                CCDC 
#
#######################################################################
#
# If this CIF has been generated from an entry in the Cambridge 
# Structural Database, then it will include bibliographic, chemical, 
# crystal, experimental, refinement or atomic coordinate data resulting 
# from the CCDC's data processing and validation procedures.
#
#######################################################################

data_NEHMET
_chemical_formula_moiety         '(C15 H14 Cd1 N2 O6)n'
_symmetry_cell_setting           orthorhombic
_symmetry_space_group_name_H-M   'P b c a'
_symmetry_Int_Tables_number      61
_space_group_name_Hall           '-P 2ac 2ab'
loop_
_symmetry_equiv_pos_site_id
_symmetry_equiv_pos_as_xyz
1 x,y,z
2 1/2-x,-y,1/2+z
3 -x,1/2+y,1/2-z
4 1/2+x,1/2-y,-z
5 -x,-y,-z
6 1/2+x,y,1/2-z
7 x,1/2-y,1/2+z
8 1/2-x,1/2+y,z
_cell_length_a                   15.1129(15)
_cell_length_b                   12.4966(11)
_cell_length_c                   16.8480(16)
_cell_angle_alpha                90
_cell_angle_beta                 90
_cell_angle_gamma                90
_cell_volume                     3181.91
loop_
_atom_site_label
_atom_site_type_symbol
_atom_site_fract_x
_atom_site_fract_y
_atom_site_fract_z
_atom_site_U_iso_or_equiv
_atom_site_thermal_displace_type
Cd1 Cd 0.10359(3) 1.01264(3) 0.42593(2) 0.0218 Uani
O1 O 0.2086(4) 0.8651(4) 0.4512(3) 0.0450 Uani
O2 O 0.2030(4) 1.0068(4) 0.5257(3) 0.0497 Uani
O3 O 0.4807(3) 0.6243(3) 0.5056(2) 0.0267 Uani
O4 O 0.4980(3) 0.5847(4) 0.6330(3) 0.0343 Uani
O5 O 0.4047(4) 0.8488(4) 0.8344(3) 0.0403 Uani
O6 O 0.3255(3) 0.9872(4) 0.7979(3) 0.0403 Uani
C1 C 0.2320(4) 0.9158(5) 0.5102(4) 0.0290 Uani
C2 C 0.2976(4) 0.8671(5) 0.5666(3) 0.0253 Uani
C3 C 0.3479(4) 0.7792(5) 0.5459(4) 0.0240 Uani
H1 H 0.3443 0.7523 0.4945 0.0290 Uiso
C4 C 0.4643(4) 0.6397(5) 0.5775(4) 0.0243 Uani
C5 C 0.4045(4) 0.7296(5) 0.6009(4) 0.0243 Uani
C6 C 0.4075(4) 0.7690(4) 0.6783(3) 0.0223 Uani
H2 H 0.4436 0.7360 0.7157 0.0270 Uiso
C7 C 0.3618(4) 0.9006(5) 0.7838(4) 0.0270 Uani
C8 C 0.3571(4) 0.8572(5) 0.7000(3) 0.0197 Uani
C9 C 0.3039(4) 0.9069(5) 0.6439(4) 0.0240 Uani
H3 H 0.2720 0.9677 0.6579 0.0290 Uiso
Cd1G Cd 0.39641(3) 0.51264(3) 0.42593(2) 0.0218 Uani
Cd1C Cd 0.60359(3) 0.48736(3) 0.57407(2) 0.0218 Uani
Cd1A Cd 0.39641(3) 0.98736(3) 0.92593(2) 0.0218 Uani
O3G O 0.0193(3) 1.1243(3) 0.5056(2) 0.0267 Uani
O4C O -0.0020(3) 0.9153(4) 0.3670(3) 0.0343 Uani
O5A O 0.0953(4) 1.1512(4) 0.3344(3) 0.0403 Uani
O6A O 0.1745(3) 1.0128(4) 0.2979(3) 0.0403 Uani
N1 N 0.1228(6) 0.9021(10) 0.7913(9) 0.0970 Uani
N2 N 0.1204(5) 0.7758(7) 0.7056(6) 0.0653 Uani
C10 C 0.1087(10) 0.7125(12) 0.6332(9) 0.1267 Uani
H4 H 0.0897 0.7584 0.5908 0.1900 Uiso
H5 H 0.0648 0.6582 0.6421 0.1900 Uiso
H6 H 0.1638 0.6794 0.6191 0.1900 Uiso
C11 C 0.1005(6) 0.8807(10) 0.7158(9) 0.0900 Uani
H7 H 0.0767 0.9276 0.6786 0.1080 Uiso
C12 C 0.1525(7) 0.7424(10) 0.7775(8) 0.0803 Uani
H8 H 0.1706 0.6728 0.7884 0.0960 Uiso
C13 C 0.1546(8) 0.8211(12) 0.8291(10) 0.1057 Uani
H9 H 0.1745 0.8189 0.8813 0.1270 Uiso
C14 C 0.1148(10) 1.0145(14) 0.8310(13) 0.1493 Uani
H10 H 0.0790 1.0626 0.7991 0.1810 Uiso
H11 H 0.1725 1.0464 0.8396 0.1810 Uiso
C15 C 0.0677(15) 0.987(2) 0.9125(14) 0.3233 Uani
H12 H 0.0079 0.9649 0.9025 0.4880 Uiso
H13 H 0.0676 1.0491 0.9459 0.4880 Uiso
H14 H 0.0991 0.9301 0.9384 0.4880 Uiso
loop_
_atom_site_aniso_label
_atom_site_aniso_U_11
_atom_site_aniso_U_22
_atom_site_aniso_U_33
_atom_site_aniso_U_23
_atom_site_aniso_U_13
_atom_site_aniso_U_12
Cd1 0.0262(2) 0.0226(2) 0.0167(2) 0.00187(17) -0.00242(19) -0.00017(19)
O1 0.056(4) 0.048(3) 0.031(3) -0.009(2) -0.027(3) 0.017(3)
O2 0.060(4) 0.046(3) 0.043(3) -0.013(2) -0.026(3) 0.026(3)
O3 0.025(3) 0.028(2) 0.027(2) -0.0100(18) 0.006(2) -0.0004(19)
O4 0.038(3) 0.036(3) 0.029(2) 0.001(2) -0.001(2) 0.016(2)
O5 0.056(3) 0.043(3) 0.022(2) -0.007(2) -0.011(2) 0.006(3)
O6 0.048(3) 0.040(3) 0.033(3) -0.019(2) -0.005(2) 0.011(2)
C1 0.030(4) 0.033(4) 0.024(3) 0.002(3) -0.005(3) 0.004(3)
C2 0.026(3) 0.033(3) 0.017(3) -0.001(3) -0.004(3) -0.001(3)
C3 0.030(3) 0.027(3) 0.015(3) -0.005(2) -0.005(3) 0.001(3)
C4 0.019(3) 0.023(3) 0.031(3) -0.005(3) 0.001(3) -0.003(2)
C5 0.026(3) 0.025(3) 0.022(3) -0.005(2) -0.003(3) 0.001(3)
C6 0.022(3) 0.023(3) 0.022(3) -0.004(2) -0.006(3) 0.005(2)
C7 0.028(3) 0.033(3) 0.020(3) -0.007(3) 0.001(3) -0.005(3)
C8 0.021(3) 0.024(3) 0.014(3) -0.005(2) 0.001(2) 0.000(2)
C9 0.022(3) 0.024(3) 0.026(3) -0.003(2) -0.002(3) 0.005(3)
Cd1G 0.0262 0.0226 0.0167 0.00187 0.00242 0.00017
Cd1C 0.0262 0.0226 0.0167 0.00187 0.00242 0.00017
Cd1A 0.0262 0.0226 0.0167 -0.00187 0.00242 -0.00017
O3G 0.025 0.028 0.027 -0.01 -0.006 0.0004
O4C 0.038 0.036 0.029 0.001 0.001 -0.016
O5A 0.056 0.043 0.022 0.007 0.011 0.006
O6A 0.048 0.04 0.033 0.019 0.005 0.011
N1 0.040(6) 0.093(8) 0.158(12) 0.005(9) 0.017(7) -0.009(5)
N2 0.037(4) 0.071(6) 0.088(7) 0.026(5) 0.001(4) -0.004(4)
C10 0.126(13) 0.128(13) 0.126(13) 0.001(11) 0.007(11) -0.034(10)
C11 0.026(5) 0.093(9) 0.151(12) 0.073(9) -0.010(7) -0.008(5)
C12 0.041(6) 0.071(7) 0.129(11) 0.056(8) -0.001(7) -0.013(6)
C13 0.065(8) 0.098(10) 0.154(15) 0.064(11) 0.018(9) -0.014(8)
C14 0.090(12) 0.138(15) 0.22(2) 0.024(15) -0.031(13) -0.001(11)
C15 0.18(2) 0.57(6) 0.22(3) -0.19(3) 0.08(2) -0.22(3)
loop_
_geom_bond_atom_site_label_1
_geom_bond_atom_site_label_2
_geom_bond_site_symmetry_1
_geom_bond_site_symmetry_2
Cd1 O1 1_555 1_555
O1 C1 1_555 1_555
O2 Cd1 1_555 1_555
O3 C4 1_555 1_555
O4 C4 1_555 1_555
O5 C7 1_555 1_555
O6 C7 1_555 1_555
N1 C11 1_555 1_555
N2 C10 1_555 1_555
C1 O2 1_555 1_555
C2 C1 1_555 1_555
C3 C2 1_555 1_555
H1 C3 1_555 1_555
C4 C5 1_555 1_555
C5 C3 1_555 1_555
C6 C5 1_555 1_555
H2 C6 1_555 1_555
C7 C8 1_555 1_555
C8 C6 1_555 1_555
C9 C2 1_555 1_555
H3 C9 1_555 1_555
C10 H4 1_555 1_555
H5 C10 1_555 1_555
H6 C10 1_555 1_555
C11 N2 1_555 1_555
H7 C11 1_555 1_555
C12 N2 1_555 1_555
H8 C12 1_555 1_555
C13 N1 1_555 1_555
H9 C13 1_555 1_555
C14 N1 1_555 1_555
H10 C14 1_555 1_555
H11 C14 1_555 1_555
C15 C14 1_555 1_555
H12 C15 1_555 1_555
H13 C15 1_555 1_555
H14 C15 1_555 1_555
Cd1G O3 1_555 1_555
Cd1C O4 1_555 1_555
Cd1A O5 1_555 1_555
O3G Cd1 1_555 1_555
O4C Cd1 1_555 1_555
O5A Cd1 1_555 1_555
O6A Cd1 1_555 1_555
O6 Cd1A 1_555 1_555
C8 C9 1_555 1_555
C12 C13 1_555 1_555

#END
