
#######################################################################
#
#                 Cambridge Crystallographic Data Centre
#                                CCDC 
#
#######################################################################
#
# If this CIF has been generated from an entry in the Cambridge 
# Structural Database, then it will include bibliographic, chemical, 
# crystal, experimental, refinement or atomic coordinate data resulting 
# from the CCDC's data processing and validation procedures.
#
#######################################################################

data_DUGBAJ
_chemical_formula_moiety         '(C42 H32 Fe3 N6 O31 Tb2)n'
_symmetry_cell_setting           hexagonal
_symmetry_space_group_name_H-M   'P 6/m c c'
_symmetry_Int_Tables_number      192
_space_group_name_Hall           '-P 6 2c'
loop_
_symmetry_equiv_pos_site_id
_symmetry_equiv_pos_as_xyz
1 x,y,z
2 -y,x-y,z
3 -x+y,-x,z
4 -x,-y,z
5 y,-x+y,z
6 x-y,x,z
7 y,x,1/2-z
8 x-y,-y,1/2-z
9 -x,-x+y,1/2-z
10 -y,-x,1/2-z
11 -x+y,y,1/2-z
12 x,x-y,1/2-z
13 -x,-y,-z
14 y,-x+y,-z
15 x-y,x,-z
16 x,y,-z
17 -y,x-y,-z
18 -x+y,-x,-z
19 -y,-x,1/2+z
20 -x+y,y,1/2+z
21 x,x-y,1/2+z
22 y,x,1/2+z
23 x-y,-y,1/2+z
24 -x,-x+y,1/2+z
_cell_length_a                   15.199(2)
_cell_length_b                   15.199(2)
_cell_length_c                   15.589(5)
_cell_angle_alpha                90
_cell_angle_beta                 90
_cell_angle_gamma                120
_cell_volume                     3118.74
loop_
_atom_site_label
_atom_site_type_symbol
_atom_site_fract_x
_atom_site_fract_y
_atom_site_fract_z
Tb1 Tb 0.3333 0.6667 0.2500
Fe1 Fe 0.5000 0.5000 0.0000
O1 O 0.4136(2) 0.6125(2) 0.14348(19)
O2 O 0.5521(3) 0.6152(3) 0.0920(2)
O3 O 0.6505(3) 0.5127(4) 0.0000
N1 N 0.5222(4) 0.76111(18) 0.2500
C1 C 0.7306(5) 0.8653(3) 0.2500
H1 H 0.8013 0.9006 0.2500
C2 C 0.6778(4) 0.7863(4) 0.1940(4)
H2 H 0.7121 0.7676 0.1553
C3 C 0.5736(3) 0.7353(3) 0.1961(3)
C4 C 0.5082(4) 0.6471(4) 0.1388(3)
Tb1L Tb 0.6667 0.3333 -0.2500
Fe1H Fe 0.5000 1.0000 0.5000
Fe1B Fe 0.0000 0.5000 0.0000
Fe1F Fe 0.5000 0.5000 0.5000
Fe1A Fe 0.5000 1.0000 0.0000
Fe1G Fe -0.0000 0.5000 0.5000
Fe1H_2 Fe 0.5000 0.0000 -0.5000
Fe1F_2 Fe 0.5000 0.5000 -0.5000
Fe1B_2 Fe 1.0000 0.5000 0.0000
Fe1A_2 Fe 0.5000 0.0000 0.0000
Fe1G_2 Fe 1.0000 0.5000 -0.5000
O1K O 0.4136(2) 0.8011(3) 0.35652(19)
O1B O 0.1989(3) 0.5864(2) 0.14348(19)
O1I O 0.3875(2) 0.5864(2) 0.35652(19)
O1A O 0.3875(2) 0.8011(3) 0.14348(19)
O1J O 0.1989(3) 0.6125(2) 0.35652(19)
O1L O 0.5864(2) 0.3875(2) -0.14348(19)
O1W O 0.5864(2) 0.1989(3) -0.35652(19)
O1N O 0.8011(3) 0.4136(2) -0.14348(19)
O1U O 0.6125(2) 0.4136(2) -0.35652(19)
O1M O 0.6125(2) 0.1989(3) -0.14348(19)
O1V O 0.8011(3) 0.3875(2) -0.35652(19)
O2K O 0.5521(3) 0.9369(4) 0.4080(2)
O2B O 0.0631(4) 0.4479(3) 0.0920(2)
O2I O 0.3848(3) 0.4479(3) 0.4080(2)
O2A O 0.3848(3) 0.9369(4) 0.0920(2)
O2J O 0.0631(4) 0.6152(3) 0.4080(2)
O2L O 0.4479(3) 0.3848(3) -0.0920(2)
O2W O 0.4479(3) 0.0631(4) -0.4080(2)
O2O O 0.5521(3) 0.6152(3) -0.0920(2)
O2C O 0.4479(3) 0.3848(3) 0.0920(2)
O2N O -0.0631(4) 0.5521(3) -0.0920(2)
O2Q O 0.0631(4) 0.4479(3) -0.0920(2)
O2E O -0.0631(4) 0.5521(3) 0.0920(2)
O2U O 0.6152(3) 0.5521(3) -0.4080(2)
O2N_2 O 0.9369(4) 0.5521(3) -0.0920(2)
O2M O 0.6152(3) 0.0631(4) -0.0920(2)
O2V O 0.9369(4) 0.3848(3) -0.4080(2)
O2E_2 O 0.9369(4) 0.5521(3) 0.0920(2)
O2B_2 O 1.0631(4) 0.4479(3) 0.0920(2)
O2Q_2 O 1.0631(4) 0.4479(3) -0.0920(2)
O3C O 0.3495(3) 0.4873(4) 0.0000
O3B O -0.1378(5) 0.3495(3) 0.0000
O3E O 0.1378(5) 0.6505(3) 0.0000
O3B_2 O 0.8622(5) 0.3495(3) 0.0000
O3E_2 O 1.1378(5) 0.6505(3) 0.0000
N1B N 0.23891(44) 0.4778(4) 0.2500
N1A N 0.23889(18) 0.76109(44) 0.2500
N1L N 0.4778(4) 0.23889(18) -0.2500
N1N N 0.76109(44) 0.5222(4) -0.2500
N1M N 0.76111(18) 0.23891(44) -0.2500
C1B C 0.1347(6) 0.2694(5) 0.2500
C1A C 0.1347(3) 0.8653(6) 0.2500
C1L C 0.2694(5) 0.1347(3) -0.2500
C1N C 0.8653(6) 0.7306(5) -0.2500
C1M C 0.8653(3) 0.1347(6) -0.2500
H1B H 0.0993 0.1987 0.2500
H1A H 0.0994 0.9007 0.2500
H1L H 0.1987 0.0994 -0.2500
H1N H 0.9007 0.8013 -0.2500
H1M H 0.9006 0.0993 -0.2500
C2K C 0.6778(4) 0.8915(6) 0.3060(4)
C2B C 0.1085(6) 0.3222(4) 0.1940(4)
C2I C 0.2137(4) 0.3222(4) 0.3060(4)
C2A C 0.2137(4) 0.8915(6) 0.1940(4)
C2J C 0.1085(6) 0.7863(4) 0.3060(4)
C2L C 0.3222(4) 0.2137(4) -0.1940(4)
C2W C 0.3222(4) 0.1085(6) -0.3060(4)
C2N C 0.8915(6) 0.6778(4) -0.1940(4)
C2U C 0.7863(4) 0.6778(4) -0.3060(4)
C2M C 0.7863(4) 0.1085(6) -0.1940(4)
C2V C 0.8915(6) 0.2137(4) -0.3060(4)
H2K H 0.7121 0.9445 0.3447
H2B H 0.0555 0.2879 0.1553
H2I H 0.2324 0.2879 0.3447
H2A H 0.2324 0.9445 0.1553
H2J H 0.0555 0.7676 0.3447
H2L H 0.2879 0.2324 -0.1553
H2W H 0.2879 0.0555 -0.3447
H2N H 0.9445 0.7121 -0.1553
H2U H 0.7676 0.7121 -0.3447
H2M H 0.7676 0.0555 -0.1553
H2V H 0.9445 0.2324 -0.3447
C3K C 0.5736(3) 0.8383(4) 0.3039(3)
C3B C 0.1617(4) 0.4264(3) 0.1961(3)
C3I C 0.2647(3) 0.4264(3) 0.3039(3)
C3A C 0.2647(3) 0.8383(4) 0.1961(3)
C3J C 0.1617(4) 0.7353(3) 0.3039(3)
C3L C 0.4264(3) 0.2647(3) -0.1961(3)
C3W C 0.4264(3) 0.1617(4) -0.3039(3)
C3N C 0.8383(4) 0.5736(3) -0.1961(3)
C3U C 0.7353(3) 0.5736(3) -0.3039(3)
C3M C 0.7353(3) 0.1617(4) -0.1961(3)
C3V C 0.8383(4) 0.2647(3) -0.3039(3)
C4K C 0.5082(4) 0.8611(6) 0.3612(3)
C4B C 0.1389(6) 0.4918(4) 0.1388(3)
C4I C 0.3529(4) 0.4918(4) 0.3612(3)
C4A C 0.3529(4) 0.8611(6) 0.1388(3)
C4J C 0.1389(6) 0.6471(4) 0.3612(3)
C4L C 0.4918(4) 0.3529(4) -0.1388(3)
C4W C 0.4918(4) 0.1389(6) -0.3612(3)
C4N C 0.8611(6) 0.5082(4) -0.1388(3)
C4U C 0.6471(4) 0.5082(4) -0.3612(3)
C4M C 0.6471(4) 0.1389(6) -0.1388(3)
C4V C 0.8611(6) 0.3529(4) -0.3612(3)
O4 O 0.7879(13) 0.7391(12) 0.0000
loop_
_geom_bond_atom_site_label_1
_geom_bond_atom_site_label_2
_geom_bond_site_symmetry_1
_geom_bond_site_symmetry_2
Tb1 O1 1_555 1_555
Fe1 O2 1_555 1_555
O1 C4 1_555 1_555
O2 C4 1_555 1_555
O3 Fe1 1_555 1_555
N1 Tb1 1_555 1_555
C1 H1 1_555 1_555
C2 C1 1_555 1_555
H2 C2 1_555 1_555
C3 N1 1_555 1_555
C4 C3 1_555 1_555
Tb1L O1L 1_555 1_555
Fe1H O2K 1_555 1_555
Fe1B O2B 1_555 1_555
Fe1F O2I 1_555 1_555
Fe1A O2A 1_555 1_555
Fe1G O2J 1_555 1_555
Fe1H_2 O2W 1_555 1_555
Fe1F_2 O2U 1_555 1_555
Fe1B_2 O2N_2 1_555 1_555
Fe1A_2 O2M 1_555 1_555
Fe1G_2 O2V 1_555 1_555
O1K Tb1 1_555 1_555
O1B Tb1 1_555 1_555
O1I Tb1 1_555 1_555
O1A Tb1 1_555 1_555
O1J Tb1 1_555 1_555
O1L C4L 1_555 1_555
O1W Tb1L 1_555 1_555
O1N Tb1L 1_555 1_555
O1U Tb1L 1_555 1_555
O1M Tb1L 1_555 1_555
O1V Tb1L 1_555 1_555
O2K C4K 1_555 1_555
O2B C4B 1_555 1_555
O2I C4I 1_555 1_555
O2A C4A 1_555 1_555
O2J C4J 1_555 1_555
O2L Fe1 1_555 1_555
O2W C4W 1_555 1_555
O2O Fe1 1_555 1_555
O2C Fe1 1_555 1_555
O2N Fe1B 1_555 1_555
O2Q Fe1B 1_555 1_555
O2E Fe1B 1_555 1_555
O2U C4U 1_555 1_555
O2N_2 C4N 1_555 1_555
O2M C4M 1_555 1_555
O2V C4V 1_555 1_555
O2E_2 Fe1B_2 1_555 1_555
O2B_2 Fe1B_2 1_555 1_555
O2Q_2 Fe1B_2 1_555 1_555
O3C Fe1 1_555 1_555
O3B Fe1B 1_555 1_555
O3E Fe1B 1_555 1_555
O3B_2 Fe1B_2 1_555 1_555
O3E_2 Fe1B_2 1_555 1_555
N1B Tb1 1_555 1_555
N1A Tb1 1_555 1_555
N1L Tb1L 1_555 1_555
N1N Tb1L 1_555 1_555
N1M Tb1L 1_555 1_555
C1B H1B 1_555 1_555
C1A H1A 1_555 1_555
C1L H1L 1_555 1_555
C1N H1N 1_555 1_555
C1M H1M 1_555 1_555
C2K C1 1_555 1_555
C2B C1B 1_555 1_555
C2I C1B 1_555 1_555
C2A C1A 1_555 1_555
C2J C1A 1_555 1_555
C2L C1L 1_555 1_555
C2W C1L 1_555 1_555
C2N C1N 1_555 1_555
C2U C1N 1_555 1_555
C2M C1M 1_555 1_555
C2V C1M 1_555 1_555
H2K C2K 1_555 1_555
H2B C2B 1_555 1_555
H2I C2I 1_555 1_555
H2A C2A 1_555 1_555
H2J C2J 1_555 1_555
H2L C2L 1_555 1_555
H2W C2W 1_555 1_555
H2N C2N 1_555 1_555
H2U C2U 1_555 1_555
H2M C2M 1_555 1_555
H2V C2V 1_555 1_555
C3K N1 1_555 1_555
C3B N1B 1_555 1_555
C3I N1B 1_555 1_555
C3A N1A 1_555 1_555
C3J N1A 1_555 1_555
C3L N1L 1_555 1_555
C3W N1L 1_555 1_555
C3N N1N 1_555 1_555
C3U N1N 1_555 1_555
C3M N1M 1_555 1_555
C3V N1M 1_555 1_555
C4K O1K 1_555 1_555
C4B O1B 1_555 1_555
C4I O1I 1_555 1_555
C4A O1A 1_555 1_555
C4J O1J 1_555 1_555
C4L O2L 1_555 1_555
C4W O1W 1_555 1_555
C4N O1N 1_555 1_555
C4U O1U 1_555 1_555
C4M O1M 1_555 1_555
C4V O1V 1_555 1_555
C2 C3 1_555 1_555
C2K C3K 1_555 1_555
C2B C3B 1_555 1_555
C2I C3I 1_555 1_555
C2A C3A 1_555 1_555
C2J C3J 1_555 1_555
C2L C3L 1_555 1_555
C2W C3W 1_555 1_555
C2N C3N 1_555 1_555
C2U C3U 1_555 1_555
C2M C3M 1_555 1_555
C2V C3V 1_555 1_555
C3K C4K 1_555 1_555
C3B C4B 1_555 1_555
C3I C4I 1_555 1_555
C3A C4A 1_555 1_555
C3J C4J 1_555 1_555
C3L C4L 1_555 1_555
C3W C4W 1_555 1_555
C3N C4N 1_555 1_555
C3U C4U 1_555 1_555
C3M C4M 1_555 1_555
C3V C4V 1_555 1_555

#END
