
#######################################################################
#
#                 Cambridge Crystallographic Data Centre
#                                CCDC 
#
#######################################################################
#
# If this CIF has been generated from an entry in the Cambridge 
# Structural Database, then it will include bibliographic, chemical, 
# crystal, experimental, refinement or atomic coordinate data resulting 
# from the CCDC's data processing and validation procedures.
#
#######################################################################

data_FEYJID
_chemical_formula_moiety         'C8 H2 Co5 O12'
_symmetry_cell_setting           cubic
_symmetry_space_group_name_H-M   'F m -3 m'
_symmetry_Int_Tables_number      225
_space_group_name_Hall           '-F 4 2 3'
loop_
_symmetry_equiv_pos_site_id
_symmetry_equiv_pos_as_xyz
1 x,y,z
2 z,x,y
3 y,z,x
4 y,x,-z
5 y,-x,z
6 -y,x,z
7 x,z,-y
8 -x,z,y
9 x,-z,y
10 z,y,-x
11 z,-y,x
12 -z,y,x
13 x,1/2+y,1/2+z
14 z,1/2+x,1/2+y
15 y,1/2+z,1/2+x
16 y,1/2+x,1/2-z
17 y,1/2-x,1/2+z
18 -y,1/2+x,1/2+z
19 x,1/2+z,1/2-y
20 -x,1/2+z,1/2+y
21 x,1/2-z,1/2+y
22 z,1/2+y,1/2-x
23 z,1/2-y,1/2+x
24 -z,1/2+y,1/2+x
25 1/2+x,y,1/2+z
26 1/2+z,x,1/2+y
27 1/2+y,z,1/2+x
28 1/2+y,x,1/2-z
29 1/2+y,-x,1/2+z
30 1/2-y,x,1/2+z
31 1/2+x,z,1/2-y
32 1/2-x,z,1/2+y
33 1/2+x,-z,1/2+y
34 1/2+z,y,1/2-x
35 1/2+z,-y,1/2+x
36 1/2-z,y,1/2+x
37 1/2+x,1/2+y,z
38 1/2+z,1/2+x,y
39 1/2+y,1/2+z,x
40 1/2+y,1/2+x,-z
41 1/2+y,1/2-x,z
42 1/2-y,1/2+x,z
43 1/2+x,1/2+z,-y
44 1/2-x,1/2+z,y
45 1/2+x,1/2-z,y
46 1/2+z,1/2+y,-x
47 1/2+z,1/2-y,x
48 1/2-z,1/2+y,x
49 -x,-y,z
50 -x,y,-z
51 x,-y,-z
52 z,-x,-y
53 -z,-x,y
54 -z,x,-y
55 -y,z,-x
56 y,-z,-x
57 -y,-z,x
58 -y,-x,-z
59 -x,-z,-y
60 -z,-y,-x
61 -x,1/2-y,1/2+z
62 -x,1/2+y,1/2-z
63 x,1/2-y,1/2-z
64 z,1/2-x,1/2-y
65 -z,1/2-x,1/2+y
66 -z,1/2+x,1/2-y
67 -y,1/2+z,1/2-x
68 y,1/2-z,1/2-x
69 -y,1/2-z,1/2+x
70 -y,1/2-x,1/2-z
71 -x,1/2-z,1/2-y
72 -z,1/2-y,1/2-x
73 1/2-x,-y,1/2+z
74 1/2-x,y,1/2-z
75 1/2+x,-y,1/2-z
76 1/2+z,-x,1/2-y
77 1/2-z,-x,1/2+y
78 1/2-z,x,1/2-y
79 1/2-y,z,1/2-x
80 1/2+y,-z,1/2-x
81 1/2-y,-z,1/2+x
82 1/2-y,-x,1/2-z
83 1/2-x,-z,1/2-y
84 1/2-z,-y,1/2-x
85 1/2-x,1/2-y,z
86 1/2-x,1/2+y,-z
87 1/2+x,1/2-y,-z
88 1/2+z,1/2-x,-y
89 1/2-z,1/2-x,y
90 1/2-z,1/2+x,-y
91 1/2-y,1/2+z,-x
92 1/2+y,1/2-z,-x
93 1/2-y,1/2-z,x
94 1/2-y,1/2-x,-z
95 1/2-x,1/2-z,-y
96 1/2-z,1/2-y,-x
97 -x,-y,-z
98 -z,-x,-y
99 -y,-z,-x
100 -y,-x,z
101 -y,x,-z
102 y,-x,-z
103 -x,-z,y
104 x,-z,-y
105 -x,z,-y
106 -z,-y,x
107 -z,y,-x
108 z,-y,-x
109 -x,1/2-y,1/2-z
110 -z,1/2-x,1/2-y
111 -y,1/2-z,1/2-x
112 -y,1/2-x,1/2+z
113 -y,1/2+x,1/2-z
114 y,1/2-x,1/2-z
115 -x,1/2-z,1/2+y
116 x,1/2-z,1/2-y
117 -x,1/2+z,1/2-y
118 -z,1/2-y,1/2+x
119 -z,1/2+y,1/2-x
120 z,1/2-y,1/2-x
121 1/2-x,-y,1/2-z
122 1/2-z,-x,1/2-y
123 1/2-y,-z,1/2-x
124 1/2-y,-x,1/2+z
125 1/2-y,x,1/2-z
126 1/2+y,-x,1/2-z
127 1/2-x,-z,1/2+y
128 1/2+x,-z,1/2-y
129 1/2-x,z,1/2-y
130 1/2-z,-y,1/2+x
131 1/2-z,y,1/2-x
132 1/2+z,-y,1/2-x
133 1/2-x,1/2-y,-z
134 1/2-z,1/2-x,-y
135 1/2-y,1/2-z,-x
136 1/2-y,1/2-x,z
137 1/2-y,1/2+x,-z
138 1/2+y,1/2-x,-z
139 1/2-x,1/2-z,y
140 1/2+x,1/2-z,-y
141 1/2-x,1/2+z,-y
142 1/2-z,1/2-y,x
143 1/2-z,1/2+y,-x
144 1/2+z,1/2-y,-x
145 x,y,-z
146 x,-y,z
147 -x,y,z
148 -z,x,y
149 z,x,-y
150 z,-x,y
151 y,-z,x
152 -y,z,x
153 y,z,-x
154 y,x,z
155 x,z,y
156 z,y,x
157 x,1/2+y,1/2-z
158 x,1/2-y,1/2+z
159 -x,1/2+y,1/2+z
160 -z,1/2+x,1/2+y
161 z,1/2+x,1/2-y
162 z,1/2-x,1/2+y
163 y,1/2-z,1/2+x
164 -y,1/2+z,1/2+x
165 y,1/2+z,1/2-x
166 y,1/2+x,1/2+z
167 x,1/2+z,1/2+y
168 z,1/2+y,1/2+x
169 1/2+x,y,1/2-z
170 1/2+x,-y,1/2+z
171 1/2-x,y,1/2+z
172 1/2-z,x,1/2+y
173 1/2+z,x,1/2-y
174 1/2+z,-x,1/2+y
175 1/2+y,-z,1/2+x
176 1/2-y,z,1/2+x
177 1/2+y,z,1/2-x
178 1/2+y,x,1/2+z
179 1/2+x,z,1/2+y
180 1/2+z,y,1/2+x
181 1/2+x,1/2+y,-z
182 1/2+x,1/2-y,z
183 1/2-x,1/2+y,z
184 1/2-z,1/2+x,y
185 1/2+z,1/2+x,-y
186 1/2+z,1/2-x,y
187 1/2+y,1/2-z,x
188 1/2-y,1/2+z,x
189 1/2+y,1/2+z,-x
190 1/2+y,1/2+x,z
191 1/2+x,1/2+z,y
192 1/2+z,1/2+y,x
_cell_length_a                   28.7135(6)
_cell_length_b                   28.7135(6)
_cell_length_c                   28.7135(6)
_cell_angle_alpha                90
_cell_angle_beta                 90
_cell_angle_gamma                90
_cell_volume                     23673.3
loop_
_atom_site_label
_atom_site_type_symbol
_atom_site_fract_x
_atom_site_fract_y
_atom_site_fract_z
_atom_site_U_iso_or_equiv
_atom_site_thermal_displace_type
Co1 Co 0.19516(6) 0.5000 0.5000 0.0494 Uani
Co2 Co 0.30753(12) 0.54163(9) 0.54163(9) 0.0470 Uani
O1 O 0.1919(2) 0.5703(2) 0.5000 0.0907 Uani
O2 O 0.2650(3) 0.5920(3) 0.5177(8) 0.1347 Uani
C1 C 0.1629(4) 0.6629(4) 0.5000 0.0817 Uani
H1 H 0.1395 0.6395 0.5000 0.0980 Uiso
C2 C 0.2102(3) 0.6515(3) 0.5000 0.0970 Uani
C3 C 0.2431(4) 0.6851(4) 0.5000 0.1220 Uani
H2 H 0.2751 0.6767 0.5000 0.1460 Uiso
C4 C 0.2309(4) 0.7309(4) 0.5000 0.1067 Uani
C5 C 0.2244(4) 0.6003(4) 0.5000 0.1210 Uani
O3 O 0.1206(4) 0.5000 0.5000 0.1347 Uani
O4 O 0.2712(3) 0.5000 0.5000 0.0463 Uani
O5 O 0.3541(5) 0.5638(8) 0.5000 0.1507 Uani
O6 O 0.3422(10) 0.5903(8) 0.5903(8) 0.1660 Uani
Co2F Co 0.30753(12) 0.54163(9) 0.45837(9) 0.0470 Uani
Co2H Co 0.30753(12) 0.45837(9) 0.54163(9) 0.0470 Uani
Co2YC Co 0.30753(12) 0.45837(9) 0.45837(9) 0.0470 Uani
O1F O 0.1919(2) 0.5000 0.4297(2) 0.0907 Uani
O1H O 0.1919(2) 0.5000 0.5703(2) 0.0907 Uani
O1OE O 0.1919(2) 0.4297(2) 0.5000 0.0907 Uani
O2XE O 0.2650(3) 0.5177(8) 0.5920(3) 0.1347 Uani
O2NE O 0.2650(3) 0.5920(3) 0.4823(8) 0.1347 Uani
C2MA C 0.1515(3) 0.7102(3) 0.5000 0.0970 Uani
C3MA C 0.1851(4) 0.7431(4) 0.5000 0.1220 Uani
C4UC C 0.2691(4) 0.7691(4) 0.5000 0.1067 Uani
O5H O 0.3541(5) 0.5000 0.5638(8) 0.1507 Uani
loop_
_atom_site_aniso_label
_atom_site_aniso_U_11
_atom_site_aniso_U_22
_atom_site_aniso_U_33
_atom_site_aniso_U_23
_atom_site_aniso_U_13
_atom_site_aniso_U_12
Co1 0.0182(9) 0.0650(10) 0.0650(10) 0.000 0.000 0.000
Co2 0.0331 0.054 0.054 -0.0057 -0.0024 -0.0024
O1 0.055(4) 0.070(4) 0.147(7) 0.000 0.000 0.024(3)
O2 0.048(4) 0.066(5) 0.29(4) 0.008(8) -0.014(8) 0.027(4)
C1 0.063(4) 0.063(4) 0.119(12) 0.000 0.000 0.028(5)
C2 0.058(5) 0.053(4) 0.180(12) 0.000 0.000 0.020(4)
C3 0.064(6) 0.053(5) 0.249(18) 0.000 0.000 0.018(4)
C4 0.060(4) 0.060(4) 0.20(2) 0.000 0.000 0.021(6)
C5 0.064(6) 0.061(5) 0.238(17) 0.000 0.000 0.033(5)
O3 0.022(6) 0.191(12) 0.191(12) 0.000 0.000 0.000
O4 0.033(5) 0.053(3) 0.053(3) 0.000 0.000 0.000
O5 0.042(7) 0.21(2) 0.20(2) 0.000 0.000 -0.065(11)
O6 0.058 0.22 0.22 -0.16 -0.035 -0.035
Co2F 0.0331(18) 0.0540(14) 0.0540(14) 0.0057(17) 0.0024(10) -0.0024(10)
Co2H 0.0331 0.054 0.054 0.0057 -0.0024 0.0024
Co2YC 0.0331 0.054 0.054 -0.0057 0.0024 0.0024
O1F 0.055 0.147 0.07 0 -0.024 0
O1H 0.055 0.147 0.07 0 0.024 0
O1OE 0.055 0.07 0.147 0 0 -0.024
O2XE 0.048 0.29 0.066 0.008 0.027 -0.014
O2NE 0.048 0.066 0.29 -0.008 0.014 0.027
C2MA 0.053 0.058 0.18 0 0 0.02
C3MA 0.053 0.064 0.249 0 0 0.018
C4UC 0.06 0.06 0.2 0 0 0.021
O5H 0.042 0.2 0.21 0 -0.065 0
loop_
_geom_bond_atom_site_label_1
_geom_bond_atom_site_label_2
_geom_bond_site_symmetry_1
_geom_bond_site_symmetry_2
Co1 O1 1_555 1_555
Co2 O2 1_555 1_555
O1 C5 1_555 1_555
O2 C5 1_555 1_555
C1 H1 1_555 1_555
C2 C1 1_555 1_555
C3 C2 1_555 1_555
H2 C3 1_555 1_555
C4 C3 1_555 1_555
C5 C2 1_555 1_555
O3 Co1 1_555 1_555
O4 Co1 1_555 1_555
O5 Co2 1_555 1_555
O6 Co2 1_555 1_555
Co2F Co2 1_555 1_555
Co2H Co2 1_555 1_555
Co2YC O4 1_555 1_555
O1F Co1 1_555 1_555
O1H Co1 1_555 1_555
O1OE Co1 1_555 1_555
O2XE Co2 1_555 1_555
O2NE O2 1_555 1_555
C2MA C1 1_555 1_555
C3MA C4 1_555 1_555
C4UC C4 1_555 1_555
O5H Co2 1_555 1_555
Co2 O4 1_555 1_555
C5 O2NE 1_555 1_555
O4 Co2F 1_555 1_555
O4 Co2H 1_555 1_555
O5 Co2F 1_555 1_555
Co2F Co2YC 1_555 1_555
Co2F O2NE 1_555 1_555
Co2H Co2YC 1_555 1_555
Co2H O5H 1_555 1_555
C2MA C3MA 1_555 1_555

#END
