
#######################################################################
#
#                 Cambridge Crystallographic Data Centre
#                                CCDC 
#
#######################################################################
#
# If this CIF has been generated from an entry in the Cambridge 
# Structural Database, then it will include bibliographic, chemical, 
# crystal, experimental, refinement or atomic coordinate data resulting 
# from the CCDC's data processing and validation procedures.
#
#######################################################################

data_IZIKOT02
_chemical_formula_moiety         '(C8 H7 Fe1 K1 N8 1-)n'
_symmetry_cell_setting           monoclinic
_symmetry_space_group_name_H-M   'C 2/m'
_symmetry_Int_Tables_number      12
_space_group_name_Hall           '-C 2y'
loop_
_symmetry_equiv_pos_site_id
_symmetry_equiv_pos_as_xyz
1 x,y,z
2 -x,y,-z
3 1/2+x,1/2+y,z
4 1/2-x,1/2+y,-z
5 -x,-y,-z
6 x,-y,z
7 1/2-x,1/2-y,-z
8 1/2+x,1/2-y,z
_cell_length_a                   13.7368(14)
_cell_length_b                   8.8737(9)
_cell_length_c                   7.9839(8)
_cell_angle_alpha                90
_cell_angle_beta                 120.815(8)
_cell_angle_gamma                90
_cell_volume                     835.816
loop_
_atom_site_label
_atom_site_type_symbol
_atom_site_fract_x
_atom_site_fract_y
_atom_site_fract_z
Fe1 Fe 0.5000 -0.0000 0.5000
K1 K 1.0000 -0.0000 1.0000
C1 C 0.4965(4) 0.1594(5) 0.6620(7)
N1 N 0.4944(4) 0.2591(5) 0.7522(6)
N2 N 0.7601(5) -0.0000 0.7561(8)
C2 C 0.6630(5) -0.0000 0.6578(9)
C1A C 0.5035(4) 0.1594(5) 0.3380(7)
N1A N 0.5056(4) 0.2591(5) 0.2478(6)
N2A N 0.2399(5) -0.0000 0.2439(8)
C2A C 0.3370(5) 0.0000 0.3422(9)
C1D C 0.5035(4) -0.1594(5) 0.3380(7)
N1D N 0.5056(4) -0.2591(5) 0.2478(6)
C1E C 0.4965(4) -0.1594(5) 0.6620(7)
N1E N 0.4944(4) -0.2591(5) 0.7522(6)
K1_2 K 0.0000 0.0000 0.0000
K1B K 0.5000 -0.5000 0.0000
K1B_2 K 0.5000 -0.5000 1.0000
K1B_3 K 0.5000 0.5000 0.0000
K1B_4 K 0.5000 0.5000 1.0000
N1B N 0.9944(4) -0.2409(5) 0.7522(6)
N1C N 1.0056(4) -0.2409(5) 1.2478(6)
N1F N 1.0056(4) 0.2409(5) 1.2478(6)
N1G N 0.9944(4) 0.2409(5) 0.7522(6)
N2A_2 N 1.2399(5) -0.0000 1.2439(8)
N3 N 0.2190(4) 0.3648(5) 0.1764(7)
H1 H 0.2496 0.2787 0.2340
H2 H 0.1576 0.3653 0.0596
C3 C 0.3584(6) 0.5000 0.4426(9)
C4 C 0.2675(6) 0.5000 0.2697(10)
N3E N 0.2190(4) 0.6352(5) 0.1764(7)
H1E H 0.2496 0.7213 0.2340
H2E H 0.1576 0.6347 0.0596
loop_
_geom_bond_atom_site_label_1
_geom_bond_atom_site_label_2
_geom_bond_site_symmetry_1
_geom_bond_site_symmetry_2
Fe1 C1 1_555 1_555
K1 N2 1_555 1_555
C1 N1 1_555 1_555
N1 K1B_4 1_555 1_555
N2 C2 1_555 1_555
C2 Fe1 1_555 1_555
N3 H1 1_555 1_555
H2 N3 1_555 1_555
C3 C4 1_555 1_555
C4 N3 1_555 1_555
C1A Fe1 1_555 1_555
N1A C1A 1_555 1_555
N2A C2A 1_555 1_555
C2A Fe1 1_555 1_555
C1D Fe1 1_555 1_555
N1D C1D 1_555 1_555
C1E Fe1 1_555 1_555
N1E C1E 1_555 1_555
K1_2 N2A 1_555 1_555
K1B N1D 1_555 1_555
K1B_2 N1E 1_555 1_555
K1B_3 N1A 1_555 1_555
N1B K1 1_555 1_555
N1C K1 1_555 1_555
N1F K1 1_555 1_555
N1G K1 1_555 1_555
N2A_2 K1 1_555 1_555
N3E C4 1_555 1_555
H1E N3E 1_555 1_555
H2E N3E 1_555 1_555

#END
