
#######################################################################
#
#                 Cambridge Crystallographic Data Centre
#                                CCDC 
#
#######################################################################
#
# If this CIF has been generated from an entry in the Cambridge 
# Structural Database, then it will include bibliographic, chemical, 
# crystal, experimental, refinement or atomic coordinate data resulting 
# from the CCDC's data processing and validation procedures.
#
#######################################################################

data_XEWRUO
_chemical_formula_moiety         '(C2 H6 Cd1 N10 O3)n'
_symmetry_cell_setting           tetragonal
_symmetry_space_group_name_H-M   'I 41/a'
_symmetry_Int_Tables_number      88
_space_group_name_Hall           '-I 4ad'
loop_
_symmetry_equiv_pos_site_id
_symmetry_equiv_pos_as_xyz
1 x,y,z
2 1/2-x,-y,1/2+z
3 3/4-y,1/4+x,1/4+z
4 3/4+y,3/4-x,3/4+z
5 1/2+x,1/2+y,1/2+z
6 -x,1/2-y,z
7 1/4-y,3/4+x,3/4+z
8 1/4+y,1/4-x,1/4+z
9 -x,-y,-z
10 1/2+x,y,1/2-z
11 1/4+y,3/4-x,3/4-z
12 1/4-y,1/4+x,1/4-z
13 1/2-x,1/2-y,1/2-z
14 x,1/2+y,-z
15 3/4+y,1/4-x,1/4-z
16 3/4-y,3/4+x,3/4-z
_cell_length_a                   9.94110(10)
_cell_length_b                   9.94110(10)
_cell_length_c                   17.4643(3)
_cell_angle_alpha                90
_cell_angle_beta                 90
_cell_angle_gamma                90
_cell_volume                     1725.92
loop_
_atom_site_label
_atom_site_type_symbol
_atom_site_fract_x
_atom_site_fract_y
_atom_site_fract_z
_atom_site_U_iso_or_equiv
_atom_site_thermal_displace_type
Cd1 Cd 0.5000 0.2500 0.114160(11) 0.0218 Uani
N1 N 0.49006(19) 0.48890(19) 0.24258(9) 0.0286 Uani
N2 N 0.55904(19) 0.43679(19) 0.18470(9) 0.0252 Uani
N3 N 0.66777(19) 0.50978(19) 0.16983(10) 0.0268 Uani
N4 N 0.55499(18) 0.59840(18) 0.26615(9) 0.0241 Uani
N5 N 0.76164(18) 0.70683(17) 0.22434(8) 0.0215 Uani
O1 O 0.72346(18) 0.17883(18) 0.17127(9) 0.0471 Uani
H1 H 0.7121 0.1306 0.2045 0.0710 Uiso
H2 H 0.7951 0.2066 0.1639 0.0710 Uiso
C1 C 0.6623 0.6079 0.2209 0.0210 Uani
N1L N 1.00994(19) 1.01110(19) 0.25742(9) 0.0286 Uani
N2L N 0.94096(19) 1.06321(19) 0.31530(9) 0.0252 Uani
N3L N 0.83223(19) 0.99022(19) 0.33017(10) 0.0268 Uani
N4L N 0.94501(18) 0.90160(18) 0.23385(9) 0.0241 Uani
N5L N 0.73836(18) 0.79317(17) 0.27566(8) 0.0215 Uani
C1L C 0.8377 0.8921 0.2791 0.0210 Uani
O1E O 0.27654(18) 0.32117(18) 0.17127(9) 0.0471 Uani
H1E H 0.2879 0.3694 0.2045 0.0710 Uiso
H2E H 0.2049 0.2934 0.1639 0.0710 Uiso
Cd1B Cd 0.5000 0.7500 0.364160(11) 0.0218 Uani
Cd1I Cd 1.0000 1.2500 0.385840(11) 0.0218 Uani
Cd1K Cd 1.0000 0.7500 0.135840(11) 0.0218 Uani
N2E N 0.44096(19) 0.06321(19) 0.18470(9) 0.0252 Uani
N4C N 0.34840(18) 0.19501(18) 0.01615(9) 0.0241 Uani
N4F N 0.65160(18) 0.30499(18) 0.01615(9) 0.0241 Uani
O2 O 0.5000 0.2500 0.3750 0.0897 Uani
H3 H 0.5000 0.2500 0.4199 0.1340 Uiso
H3J H 0.5000 0.2500 0.3301 0.1340 Uiso
loop_
_atom_site_aniso_label
_atom_site_aniso_U_11
_atom_site_aniso_U_22
_atom_site_aniso_U_33
_atom_site_aniso_U_23
_atom_site_aniso_U_13
_atom_site_aniso_U_12
Cd1 0.02557(16) 0.02021(15) 0.01958(14) 0.000 0.000 -0.00579(10)
N1 0.0286(11) 0.0279(11) 0.0294(9) -0.0067(8) 0.0028(8) -0.0067(9)
N2 0.0248(11) 0.0238(11) 0.0271(9) -0.0059(7) 0.0015(8) -0.0035(8)
N3 0.0248(11) 0.0271(11) 0.0286(9) -0.0079(8) 0.0029(8) -0.0053(9)
N4 0.0243(10) 0.0216(10) 0.0264(9) -0.0047(7) 0.0025(7) -0.0055(8)
N5 0.0226(10) 0.0205(10) 0.0214(8) -0.0014(7) 0.0004(7) -0.0026(8)
O1 0.0417(12) 0.0468(12) 0.0528(11) 0.0162(9) -0.0033(9) -0.0034(9)
C1 0.0206(12) 0.0220(12) 0.0205(10) -0.0021(8) -0.0004(8) -0.0012(9)
N1L 0.0286 0.0279 0.0294 -0.0067 0.0028 -0.0067
N2L 0.0248 0.0238 0.0271 -0.0059 0.0015 -0.0035
N3L 0.0248 0.0271 0.0286 -0.0079 0.0029 -0.0053
N4L 0.0243 0.0216 0.0264 -0.0047 0.0025 -0.0055
N5L 0.0226 0.0205 0.0214 -0.0014 0.0004 -0.0026
C1L 0.0206 0.022 0.0205 -0.0021 -0.0004 -0.0012
O1E 0.0417 0.0468 0.0528 -0.0162 0.0033 -0.0034
Cd1B 0.02021 0.02557 0.01958 0 0 0.00579
Cd1I 0.02557 0.02021 0.01958 0 0 -0.00579
Cd1K 0.02021 0.02557 0.01958 0 0 0.00579
N2E 0.0248 0.0238 0.0271 0.0059 -0.0015 -0.0035
N4C 0.0216 0.0243 0.0264 -0.0025 -0.0047 0.0055
N4F 0.0216 0.0243 0.0264 0.0025 0.0047 0.0055
O2 0.093(3) 0.093(3) 0.083(3) 0.000 0.000 0.000
loop_
_geom_bond_atom_site_label_1
_geom_bond_atom_site_label_2
_geom_bond_site_symmetry_1
_geom_bond_site_symmetry_2
Cd1 N2 1_555 1_555
N1 N2 1_555 1_555
N2 N3 1_555 1_555
N3 C1 1_555 1_555
N4 N1 1_555 1_555
N5 C1 1_555 1_555
O1 Cd1 1_555 1_555
H1 O1 1_555 1_555
H2 O1 1_555 1_555
C1 N4 1_555 1_555
O2 H3 1_555 1_555
N1L N2L 1_555 1_555
N2L N3L 1_555 1_555
N3L C1L 1_555 1_555
N4L N1L 1_555 1_555
N5L N5 1_555 1_555
C1L N4L 1_555 1_555
O1E Cd1 1_555 1_555
H1E O1E 1_555 1_555
H2E O1E 1_555 1_555
Cd1B N4 1_555 1_555
Cd1I N2L 1_555 1_555
Cd1K N4L 1_555 1_555
N2E Cd1 1_555 1_555
N4C Cd1 1_555 1_555
N4F Cd1 1_555 1_555
H3J O2 1_555 1_555
N5L C1L 1_555 1_555

#END
