
#######################################################################
#
#                 Cambridge Crystallographic Data Centre
#                                CCDC 
#
#######################################################################
#
# If this CIF has been generated from an entry in the Cambridge 
# Structural Database, then it will include bibliographic, chemical, 
# crystal, experimental, refinement or atomic coordinate data resulting 
# from the CCDC's data processing and validation procedures.
#
#######################################################################

data_OLAWUU
_chemical_formula_moiety         'C62 H175 Ag8 Cl1 La4 N12 O73 Pd6 S12'
_symmetry_cell_setting           tetragonal
_symmetry_space_group_name_H-M   'P 41 21 2'
_symmetry_Int_Tables_number      92
_space_group_name_Hall           'P 4abw 2nw'
loop_
_symmetry_equiv_pos_site_id
_symmetry_equiv_pos_as_xyz
1 x,y,z
2 -x,-y,1/2+z
3 1/2+x,1/2-y,3/4-z
4 1/2-x,1/2+y,1/4-z
5 -y,-x,1/2-z
6 y,x,-z
7 1/2+y,1/2-x,3/4+z
8 1/2-y,1/2+x,1/4+z
_cell_length_a                   24.927(4)
_cell_length_b                   24.927(4)
_cell_length_c                   46.045(10)
_cell_angle_alpha                90
_cell_angle_beta                 90
_cell_angle_gamma                90
_cell_volume                     28610.3
loop_
_atom_site_label
_atom_site_type_symbol
_atom_site_fract_x
_atom_site_fract_y
_atom_site_fract_z
_atom_site_U_iso_or_equiv
_atom_site_thermal_displace_type
O25 O 0.9495(5) 0.7794(5) 0.3210(3) 0.0837 Uani
O37 O 0.5300(4) 0.9283(4) 0.3616(2) 0.0500 Uiso
O38 O 0.5206(4) 0.7409(4) 0.3891(2) 0.0690 Uiso
O39 O 0.7832(5) 0.4832(5) 0.1250(2) 0.0760 Uiso
O40 O 0.5240(4) 0.4638(4) 0.0973(2) 0.0700 Uiso
O41 O 0.8473(5) 0.7729(5) 0.4918(2) 0.0770 Uiso
O42 O 0.9968(4) 0.6878(4) 0.4621(2) 0.0620 Uiso
O43 O 0.5050(5) 0.6060(4) 0.1281(2) 0.0710 Uiso
O44 O 0.7428(5) 0.3685(5) 0.1289(3) 0.0960 Uiso
O45 O 0.5005(6) 0.5847(6) 0.3950(4) 0.1240 Uiso
O46 O 0.5062(6) 0.9333(5) 0.2357(3) 0.1010 Uiso
O47 O 0.7710(6) 0.7148(6) 0.4660(3) 0.1060 Uiso
O48 O 0.6435(6) 0.3877(6) 0.0983(3) 0.1150 Uiso
O49 O 0.8467(7) 1.0028(7) 0.3283(4) 0.1380 Uiso
O50 O 0.7069(7) 0.8041(7) 0.4570(4) 0.1450 Uiso
O51 O 0.7463(7) 1.1348(7) 0.3245(4) 0.1460 Uiso
O52 O 0.9164(7) 0.3200(7) 0.3062(4) 0.1390 Uiso
O53 O 0.5390(7) 0.6971(7) 0.1527(4) 0.1390 Uiso
O54 O 0.8124(7) 0.2888(7) 0.3112(4) 0.1420 Uiso
O55 O 0.5483(7) 0.9180(8) 0.2976(4) 0.1520 Uiso
O56 O 0.4640(9) 0.6809(9) 0.1994(5) 0.1890 Uiso
O57 O 0.6890(6) 0.8075(6) 0.0329(3) 0.1220 Uiso
O58 O 0.6526(10) 0.9495(9) 0.2898(5) 0.0800 Uiso
O59 O 0.7942(12) 1.0529(12) 0.2564(7) 0.1170 Uiso
O60 O 0.6560(13) 0.7052(13) 0.1501(7) 0.1260 Uiso
O61 O 0.4711(8) 0.7659(8) 0.0793(4) 0.0540 Uiso
O62 O 0.4258(9) 0.7560(9) 0.1295(5) 0.0750 Uiso
O63 O 0.7633(9) 0.8816(9) 0.1899(5) 0.0730 Uiso
O64 O 0.8811(11) 1.1428(11) 0.3574(6) 0.1020 Uiso
O65 O 0.8352(10) 0.8806(10) 0.3893(5) 0.0870 Uiso
O66 O 0.5181(10) 0.4630(10) 0.4613(5) 0.0810 Uiso
O67 O 0.7196(11) 0.5454(11) 0.0830(6) 0.0950 Uiso
Ag1 Ag 0.71208(4) 0.65604(4) 0.22785(3) 0.0435 Uani
Ag2 Ag 0.84585(4) 0.61015(4) 0.24873(2) 0.0347 Uani
Ag3 Ag 0.81020(4) 0.50038(4) 0.28849(2) 0.0406 Uani
Ag4 Ag 0.67479(4) 0.55774(4) 0.27382(2) 0.0310 Uani
Ag5 Ag 0.72925(4) 0.73215(4) 0.29047(2) 0.0312 Uani
Ag6 Ag 0.87110(5) 0.71398(5) 0.30986(3) 0.0582 Uani
Ag7 Ag 0.80061(4) 0.59139(4) 0.34450(2) 0.0326 Uani
Ag8 Ag 0.65067(4) 0.64009(4) 0.34684(2) 0.0305 Uani
Pd1 Pd 0.75550(4) 0.49710(4) 0.20383(2) 0.0281 Uani
Pd2 Pd 0.83075(5) 0.77110(4) 0.22625(3) 0.0442 Uani
Pd3 Pd 0.95410(4) 0.57041(4) 0.31228(2) 0.0277 Uani
Pd4 Pd 0.68492(4) 0.47676(4) 0.34935(2) 0.0297 Uani
Pd5 Pd 0.57106(4) 0.68222(4) 0.27109(2) 0.0256 Uani
Pd6 Pd 0.76551(4) 0.74581(4) 0.37538(2) 0.0281 Uani
Cl1 Cl 0.76219(11) 0.62296(11) 0.28936(6) 0.0254 Uani
S1 S 0.69517(12) 0.55910(12) 0.21963(7) 0.0288 Uani
S2 S 0.82294(13) 0.51506(12) 0.23571(7) 0.0300 Uani
S3 S 0.80555(14) 0.68532(13) 0.21844(7) 0.0362 Uani
S4 S 0.81762(13) 0.77051(13) 0.27501(8) 0.0368 Uani
S5 S 0.91706(13) 0.63588(13) 0.28407(8) 0.0351 Uani
S6 S 0.87531(12) 0.53189(12) 0.32561(7) 0.0260 Uani
S7 S 0.71530(12) 0.48088(12) 0.30295(7) 0.0319 Uani
S8 S 0.70981(12) 0.56162(12) 0.36131(7) 0.0258 Uani
S9 S 0.60550(12) 0.61529(12) 0.29927(7) 0.0257 Uani
S10 S 0.65158(12) 0.71463(12) 0.25581(7) 0.0278 Uani
S11 S 0.69927(12) 0.72883(12) 0.34272(7) 0.0255 Uani
S12 S 0.82657(12) 0.68658(13) 0.35705(8) 0.0336 Uani
O1 O 0.6089(4) 0.4514(4) 0.1464(2) 0.0533 Uani
O2 O 0.5899(4) 0.5344(4) 0.1317(2) 0.0597 Uani
O3 O 0.8826(4) 0.3913(3) 0.16023(19) 0.0387 Uani
O4 O 0.9342(5) 0.3729(5) 0.1996(2) 0.0807 Uani
O5 O 0.8710(5) 0.7565(5) 0.1290(3) 0.0787 Uani
O6 O 0.7946(8) 0.7137(7) 0.1174(3) 0.1300 Uani
O7 O 0.8551(9) 0.9549(6) 0.2414(4) 0.1487 Uani
O8 O 0.9001(7) 0.9406(6) 0.2844(4) 0.1433 Uani
O9 O 1.1107(4) 0.6497(5) 0.2745(2) 0.0763 Uani
O10 O 1.0761(6) 0.7325(6) 0.2771(3) 0.1043 Uani
O11 O 1.0226(3) 0.4298(3) 0.36901(19) 0.0360 Uani
O12 O 0.9615(3) 0.3699(4) 0.3535(2) 0.0507 Uani
O13 O 0.6346(4) 0.3028(4) 0.3170(2) 0.0513 Uani
O14 O 0.7102(4) 0.2914(3) 0.2929(2) 0.0517 Uani
O15 O 0.6675(6) 0.4687(7) 0.4512(3) 0.1083 Uani
O16 O 0.6243(7) 0.5562(7) 0.4552(3) 0.1280 Uani
O17 O 0.4143(4) 0.5868(4) 0.2977(3) 0.0650 Uani
O18 O 0.4351(4) 0.5855(5) 0.3454(3) 0.0727 Uani
O19 O 0.5092(4) 0.8218(3) 0.20855(18) 0.0367 Uani
O20 O 0.5752(3) 0.8101(3) 0.17729(19) 0.0377 Uani
O21 O 0.6466(4) 0.8861(4) 0.3989(2) 0.0457 Uani
O22 O 0.5713(3) 0.8393(3) 0.3938(2) 0.0410 Uani
O23 O 0.9050(5) 0.7653(6) 0.4434(3) 0.0920 Uani
O24 O 0.9686(4) 0.7576(4) 0.4146(3) 0.0687 Uani
N1 N 0.6994(4) 0.4817(4) 0.1722(2) 0.0387 Uani
H1 H 0.7171 0.4748 0.1551 0.0470 Uiso
H2 H 0.6810 0.4511 0.1773 0.0470 Uiso
N2 N 0.8051(4) 0.4351(4) 0.1894(2) 0.0323 Uani
H3 H 0.7851 0.4041 0.1890 0.0380 Uiso
H4 H 0.8149 0.4426 0.1706 0.0380 Uiso
N3 N 0.8329(6) 0.7780(5) 0.1822(3) 0.0647 Uani
H5 H 0.8153 0.8089 0.1769 0.0780 Uiso
H6 H 0.8681 0.7813 0.1764 0.0780 Uiso
N4 N 0.8607(5) 0.8472(4) 0.2316(3) 0.0503 Uani
H7 H 0.8926 0.8497 0.2217 0.0600 Uiso
H8 H 0.8372 0.8712 0.2233 0.0600 Uiso
N5 N 1.0265(4) 0.6054(4) 0.3036(2) 0.0347 Uani
H9 H 1.0449 0.6096 0.3208 0.0410 Uiso
H10 H 1.0462 0.5827 0.2920 0.0410 Uiso
N6 N 0.9890(4) 0.5083(4) 0.3359(2) 0.0260 Uani
H11 H 1.0209 0.4986 0.3274 0.0310 Uiso
H12 H 0.9962 0.5199 0.3545 0.0310 Uiso
N7 N 0.6689(4) 0.3970(4) 0.3414(2) 0.0303 Uani
H13 H 0.6791 0.3771 0.3573 0.0370 Uiso
H14 H 0.6325 0.3927 0.3390 0.0370 Uiso
N8 N 0.6544(5) 0.4718(4) 0.3908(3) 0.0517 Uani
H15 H 0.6190 0.4615 0.3898 0.0620 Uiso
H16 H 0.6727 0.4457 0.4009 0.0620 Uiso
N9 N 0.4979(4) 0.6581(4) 0.2862(2) 0.0393 Uani
H17 H 0.4790 0.6879 0.2919 0.0470 Uiso
H18 H 0.4794 0.6424 0.2712 0.0470 Uiso
N10 N 0.5389(4) 0.7365(4) 0.2436(2) 0.0283 Uani
H19 H 0.5091 0.7216 0.2351 0.0340 Uiso
H20 H 0.5277 0.7657 0.2543 0.0340 Uiso
N11 N 0.7114(4) 0.8004(4) 0.3937(2) 0.0323 Uani
H21 H 0.7118 0.7961 0.4136 0.0390 Uiso
H22 H 0.7232 0.8346 0.3898 0.0390 Uiso
N12 N 0.8247(4) 0.7658(5) 0.4042(3) 0.0520 Uani
H23 H 0.8255 0.8025 0.4061 0.0620 Uiso
H24 H 0.8161 0.7516 0.4221 0.0620 Uiso
C1 C 0.6373(5) 0.5414(5) 0.1969(3) 0.0340 Uani
C2 C 0.6614(5) 0.5234(5) 0.1671(3) 0.0377 Uani
H25 H 0.6794 0.5545 0.1575 0.0450 Uiso
C3 C 0.6147(5) 0.5001(7) 0.1463(3) 0.0453 Uani
C4 C 0.6058(5) 0.4993(6) 0.2098(3) 0.0447 Uani
H26 H 0.6281 0.4673 0.2123 0.0670 Uiso
H27 H 0.5754 0.4909 0.1971 0.0670 Uiso
H28 H 0.5925 0.5112 0.2288 0.0670 Uiso
C5 C 0.6026(6) 0.5929(6) 0.1923(4) 0.0617 Uani
H29 H 0.6247 0.6209 0.1834 0.0920 Uiso
H30 H 0.5891 0.6055 0.2110 0.0920 Uiso
H31 H 0.5724 0.5845 0.1795 0.0920 Uiso
C6 C 0.8784(5) 0.4788(5) 0.2179(3) 0.0350 Uani
C7 C 0.8546(5) 0.4244(5) 0.2063(3) 0.0360 Uani
H32 H 0.8452 0.4013 0.2233 0.0430 Uiso
C8 C 0.8931(5) 0.3926(5) 0.1862(4) 0.0463 Uani
C9 C 0.9003(5) 0.5107(6) 0.1926(3) 0.0467 Uani
H33 H 0.8721 0.5158 0.1781 0.0700 Uiso
H34 H 0.9304 0.4912 0.1839 0.0700 Uiso
H35 H 0.9127 0.5457 0.1996 0.0700 Uiso
C10 C 0.9211(5) 0.4705(7) 0.2422(3) 0.0623 Uani
H36 H 0.9053 0.4501 0.2582 0.0940 Uiso
H37 H 0.9332 0.5055 0.2494 0.0940 Uiso
H38 H 0.9518 0.4507 0.2343 0.0940 Uiso
C11 C 0.8240(5) 0.6776(5) 0.1805(3) 0.0333 Uani
C12 C 0.8082(8) 0.7316(8) 0.1663(3) 0.0720 Uani
H39 H 0.7682 0.7355 0.1663 0.0860 Uiso
C13 C 0.8301(12) 0.7357(8) 0.1342(4) 0.0817 Uani
C14 C 0.8848(5) 0.6701(5) 0.1781(3) 0.0387 Uani
H40 H 0.9030 0.7009 0.1869 0.0580 Uiso
H41 H 0.8949 0.6676 0.1575 0.0580 Uiso
H42 H 0.8954 0.6372 0.1881 0.0580 Uiso
C15 C 0.7950(6) 0.6323(6) 0.1680(3) 0.0560 Uani
H43 H 0.7563 0.6386 0.1697 0.0840 Uiso
H44 H 0.8045 0.5994 0.1784 0.0840 Uiso
H45 H 0.8047 0.6286 0.1475 0.0840 Uiso
C16 C 0.8213(6) 0.8441(5) 0.2804(3) 0.0430 Uani
C17 C 0.8698(6) 0.8631(5) 0.2618(4) 0.0543 Uani
H46 H 0.9041 0.8475 0.2693 0.0650 Uiso
C18 C 0.8742(9) 0.9284(7) 0.2594(5) 0.0853 Uani
C19 C 0.7725(6) 0.8734(6) 0.2725(4) 0.0597 Uani
H47 H 0.7422 0.8597 0.2839 0.0900 Uiso
H48 H 0.7652 0.8686 0.2518 0.0900 Uiso
H49 H 0.7774 0.9117 0.2767 0.0900 Uiso
C20 C 0.8305(6) 0.8495(6) 0.3146(4) 0.0673 Uani
H50 H 0.8630 0.8299 0.3201 0.1010 Uiso
H51 H 0.7996 0.8346 0.3249 0.1010 Uiso
H52 H 0.8347 0.8875 0.3197 0.1010 Uiso
C21 C 0.9778(5) 0.6593(5) 0.2649(3) 0.0323 Uani
C22 C 1.0219(6) 0.6598(6) 0.2887(3) 0.0470 Uani
H53 H 1.0080 0.6846 0.3040 0.0560 Uiso
C23 C 1.0741(7) 0.6833(7) 0.2795(4) 0.0603 Uani
C24 C 0.9926(5) 0.6213(5) 0.2418(3) 0.0383 Uani
H54 H 0.9998 0.5860 0.2503 0.0580 Uiso
H55 H 1.0249 0.6342 0.2318 0.0580 Uiso
H56 H 0.9631 0.6184 0.2278 0.0580 Uiso
C25 C 0.9670(6) 0.7129(5) 0.2515(3) 0.0513 Uani
H57 H 0.9577 0.7387 0.2667 0.0770 Uiso
H58 H 0.9370 0.7098 0.2378 0.0770 Uiso
H59 H 0.9990 0.7253 0.2412 0.0770 Uiso
C26 C 0.8990(5) 0.4759(5) 0.3496(3) 0.0250 Uani
C27 C 0.9528(5) 0.4612(5) 0.3372(3) 0.0303 Uani
H60 H 0.9470 0.4484 0.3168 0.0360 Uiso
C28 C 0.9816(5) 0.4155(6) 0.3543(3) 0.0363 Uani
C29 C 0.9029(5) 0.4964(6) 0.3801(3) 0.0387 Uani
H61 H 0.9301 0.5247 0.3810 0.0580 Uiso
H62 H 0.9132 0.4669 0.3930 0.0580 Uiso
H63 H 0.8681 0.5109 0.3861 0.0580 Uiso
C30 C 0.8574(5) 0.4314(5) 0.3468(3) 0.0400 Uani
H64 H 0.8558 0.4193 0.3266 0.0600 Uiso
H65 H 0.8222 0.4451 0.3527 0.0600 Uiso
H66 H 0.8675 0.4013 0.3593 0.0600 Uiso
C31 C 0.6919(5) 0.4144(5) 0.2901(3) 0.0333 Uani
C32 C 0.6965(5) 0.3764(5) 0.3156(3) 0.0323 Uani
H67 H 0.7355 0.3748 0.3207 0.0390 Uiso
C33 C 0.6798(6) 0.3185(5) 0.3077(3) 0.0393 Uani
C34 C 0.6336(5) 0.4185(5) 0.2817(3) 0.0390 Uani
H68 H 0.6297 0.4436 0.2654 0.0590 Uiso
H69 H 0.6127 0.4314 0.2983 0.0590 Uiso
H70 H 0.6204 0.3830 0.2758 0.0590 Uiso
C35 C 0.7255(5) 0.3991(5) 0.2647(3) 0.0387 Uani
H71 H 0.7631 0.3961 0.2707 0.0580 Uiso
H72 H 0.7224 0.4266 0.2495 0.0580 Uiso
H73 H 0.7133 0.3645 0.2570 0.0580 Uiso
C36 C 0.7106(5) 0.5539(5) 0.4015(3) 0.0320 Uani
C37 C 0.6583(5) 0.5253(6) 0.4077(3) 0.0433 Uani
H74 H 0.6287 0.5489 0.4005 0.0520 Uiso
C38 C 0.6484(8) 0.5160(10) 0.4411(4) 0.0937 Uani
C39 C 0.7607(5) 0.5230(5) 0.4102(3) 0.0403 Uani
H75 H 0.7600 0.4874 0.4012 0.0600 Uiso
H76 H 0.7618 0.5192 0.4314 0.0600 Uiso
H77 H 0.7926 0.5425 0.4036 0.0600 Uiso
C40 C 0.7119(5) 0.6106(5) 0.4151(3) 0.0407 Uani
H78 H 0.6804 0.6309 0.4086 0.0610 Uiso
H79 H 0.7446 0.6292 0.4089 0.0610 Uiso
H80 H 0.7114 0.6076 0.4363 0.0610 Uiso
C41 C 0.5414(5) 0.5776(5) 0.3058(3) 0.0277 Uani
C42 C 0.4997(5) 0.6195(5) 0.3111(3) 0.0323 Uani
H81 H 0.5115 0.6402 0.3285 0.0390 Uiso
C43 C 0.4469(6) 0.5970(6) 0.3179(4) 0.0570 Uani
C44 C 0.5292(5) 0.5446(5) 0.2791(3) 0.0310 Uani
H82 H 0.5574 0.5176 0.2764 0.0470 Uiso
H83 H 0.5277 0.5681 0.2620 0.0470 Uiso
H84 H 0.4945 0.5266 0.2815 0.0470 Uiso
C45 C 0.5526(5) 0.5430(5) 0.3314(3) 0.0323 Uani
H85 H 0.5806 0.5170 0.3264 0.0480 Uiso
H86 H 0.5199 0.5240 0.3370 0.0480 Uiso
H87 H 0.5648 0.5654 0.3476 0.0480 Uiso
C46 C 0.6300(5) 0.7743(5) 0.2335(3) 0.0383 Uani
C47 C 0.5759(5) 0.7558(5) 0.2200(3) 0.0333 Uani
H88 H 0.5837 0.7244 0.2072 0.0400 Uiso
C48 C 0.5504(5) 0.8003(4) 0.2006(3) 0.0247 Uani
C49 C 0.6201(5) 0.8235(5) 0.2529(3) 0.0373 Uani
H89 H 0.5915 0.8154 0.2668 0.0560 Uiso
H90 H 0.6095 0.8540 0.2408 0.0560 Uiso
H91 H 0.6532 0.8323 0.2634 0.0560 Uiso
C50 C 0.6732(5) 0.7837(5) 0.2106(3) 0.0430 Uani
H92 H 0.6776 0.7513 0.1988 0.0640 Uiso
H93 H 0.7073 0.7923 0.2202 0.0640 Uiso
H94 H 0.6626 0.8137 0.1981 0.0640 Uiso
C51 C 0.6552(4) 0.7876(5) 0.3502(3) 0.0270 Uani
C52 C 0.6549(4) 0.7954(5) 0.3834(3) 0.0283 Uani
H95 H 0.6383 0.7632 0.3927 0.0340 Uiso
C53 C 0.6235(6) 0.8463(5) 0.3930(3) 0.0360 Uani
C54 C 0.6752(6) 0.8367(5) 0.3351(3) 0.0460 Uani
H96 H 0.6501 0.8663 0.3383 0.0690 Uiso
H97 H 0.6782 0.8295 0.3142 0.0690 Uiso
H98 H 0.7105 0.8464 0.3429 0.0690 Uiso
C55 C 0.6013(5) 0.7727(5) 0.3359(3) 0.0440 Uani
H99 H 0.5746 0.8003 0.3404 0.0660 Uiso
H100 H 0.5890 0.7380 0.3435 0.0660 Uiso
H101 H 0.6061 0.7702 0.3148 0.0660 Uiso
C56 C 0.8781(5) 0.6893(5) 0.3871(3) 0.0400 Uani
C57 C 0.8820(5) 0.7457(5) 0.3954(3) 0.0453 Uani
H102 H 0.8933 0.7664 0.3778 0.0550 Uiso
C58 C 0.9228(8) 0.7559(6) 0.4189(4) 0.0607 Uani
C59 C 0.8623(6) 0.6521(5) 0.4105(3) 0.0440 Uani
H103 H 0.8613 0.6154 0.4029 0.0660 Uiso
H104 H 0.8266 0.6619 0.4177 0.0660 Uiso
H105 H 0.8883 0.6542 0.4264 0.0660 Uiso
C60 C 0.9306(5) 0.6700(5) 0.3738(3) 0.0400 Uani
H106 H 0.9268 0.6324 0.3679 0.0600 Uiso
H107 H 0.9594 0.6731 0.3882 0.0600 Uiso
H108 H 0.9392 0.6919 0.3568 0.0600 Uiso
O26 O 0.5856(4) 0.6525(4) 0.3883(2) 0.0507 Uani
La1 La 0.92207(3) 0.37786(3) 0.111820(17) 0.0311 Uani
La2 La 0.61403(5) 0.61403(5) 0.5000 0.0812 Uani
O27 O 0.9168(5) 0.4302(4) 0.0610(2) 0.0567 Uani
O28 O 0.8407(5) 0.4103(5) 0.0835(4) 0.1053 Uani
C61 C 0.8703(8) 0.4299(9) 0.0598(5) 0.0813 Uani
C62 C 0.8335(9) 0.4540(8) 0.0340(5) 0.1157 Uani
H109 H 0.7955 0.4490 0.0388 0.1750 Uiso
H110 H 0.8417 0.4354 0.0158 0.1750 Uiso
H111 H 0.8410 0.4924 0.0317 0.1750 Uiso
O29 O 0.9993(3) 0.3874(3) 0.14779(19) 0.0397 Uani
O30 O 1.0155(3) 0.3889(3) 0.08486(18) 0.0327 Uani
O31 O 0.8369(5) 0.3193(5) 0.1169(3) 0.0867 Uani
O32 O 0.9519(7) 0.2877(4) 0.1320(3) 0.1160 Uani
O33 O 0.7136(5) 0.6315(6) 0.4874(3) 0.1013 Uani
O34 O 0.6150(6) 0.6713(6) 0.4518(3) 0.1087 Uani
O35 O 0.5209(6) 0.6605(7) 0.4880(3) 0.1230 Uani
O36 O 0.54071(15) 0.54071(15) 0.5000 0.1290 Uiso
La1G La 1.12214(3) 0.42207(3) 0.361820(17) 0.0311 Uani
La1C La 0.57793(3) 0.87786(3) 0.138180(17) 0.0311 Uani
O11F O 0.9298(3) 0.4774(3) 0.11901(19) 0.0360 Uani
O20C O 0.9248(3) 0.3101(3) 0.07271(19) 0.0377 Uani
O33E O 0.6315(6) 0.7136(5) 0.5126(3) 0.1013 Uani
O34E O 0.6713(6) 0.6150(6) 0.5482(3) 0.1087 Uani
O35E O 0.6605(7) 0.5209(6) 0.5120(3) 0.1230 Uani
O16E O 0.5562(7) 0.6243(7) 0.5448(3) 0.1280 Uani
loop_
_atom_site_aniso_label
_atom_site_aniso_U_11
_atom_site_aniso_U_22
_atom_site_aniso_U_33
_atom_site_aniso_U_23
_atom_site_aniso_U_13
_atom_site_aniso_U_12
O25 0.063(8) 0.072(9) 0.116(11) 0.022(8) -0.014(7) -0.006(6)
Ag1 0.0440(7) 0.0299(6) 0.0567(8) -0.0034(5) 0.0163(6) -0.0007(5)
Ag2 0.0365(6) 0.0309(6) 0.0368(6) -0.0027(5) 0.0045(5) 0.0000(4)
Ag3 0.0328(6) 0.0522(7) 0.0368(6) 0.0004(5) -0.0063(5) -0.0026(5)
Ag4 0.0272(5) 0.0245(5) 0.0412(6) -0.0023(5) 0.0014(5) 0.0017(4)
Ag5 0.0296(6) 0.0271(5) 0.0368(6) -0.0006(5) -0.0005(5) 0.0034(4)
Ag6 0.0595(8) 0.0665(9) 0.0486(8) 0.0023(6) 0.0072(6) 0.0289(6)
Ag7 0.0238(5) 0.0364(6) 0.0375(6) -0.0029(5) 0.0004(5) 0.0000(4)
Ag8 0.0302(6) 0.0236(5) 0.0378(6) 0.0020(4) -0.0029(5) 0.0013(4)
Pd1 0.0260(6) 0.0261(5) 0.0323(6) -0.0046(4) -0.0011(4) -0.0001(4)
Pd2 0.0493(7) 0.0298(6) 0.0534(8) 0.0054(6) 0.0221(6) -0.0019(5)
Pd3 0.0213(5) 0.0274(6) 0.0345(6) -0.0001(5) 0.0011(4) -0.0003(4)
Pd4 0.0251(6) 0.0206(5) 0.0435(7) 0.0007(5) -0.0055(5) 0.0019(4)
Pd5 0.0241(5) 0.0202(5) 0.0324(6) 0.0039(4) 0.0002(4) 0.0047(4)
Pd6 0.0160(5) 0.0273(5) 0.0409(6) -0.0099(4) -0.0009(4) 0.0029(4)
Cl1 0.0255(16) 0.0225(15) 0.0282(17) -0.0030(13) 0.0022(13) 0.0027(12)
S1 0.0224(17) 0.0250(17) 0.039(2) -0.0037(14) 0.0004(14) -0.0016(13)
S2 0.0265(18) 0.0317(18) 0.0318(19) -0.0086(15) -0.0045(15) 0.0069(14)
S3 0.041(2) 0.0306(19) 0.037(2) 0.0052(16) 0.0087(16) 0.0016(15)
S4 0.0333(19) 0.0290(19) 0.048(2) 0.0012(17) 0.0093(17) -0.0003(15)
S5 0.0284(19) 0.034(2) 0.043(2) 0.0014(16) 0.0024(16) 0.0024(14)
S6 0.0175(16) 0.0293(18) 0.0312(19) 0.0001(14) -0.0006(14) 0.0028(13)
S7 0.0238(18) 0.0259(18) 0.046(2) -0.0037(16) -0.0066(15) 0.0018(13)
S8 0.0247(17) 0.0218(17) 0.0309(18) 0.0006(14) 0.0016(14) 0.0038(13)
S9 0.0248(17) 0.0198(17) 0.0325(18) 0.0036(14) 0.0009(14) 0.0019(13)
S10 0.0278(18) 0.0225(17) 0.033(2) 0.0062(14) -0.0043(15) 0.0038(13)
S11 0.0239(17) 0.0207(16) 0.0320(19) -0.0037(14) 0.0011(14) 0.0035(12)
S12 0.0235(18) 0.0324(19) 0.045(2) -0.0109(16) -0.0029(15) 0.0072(14)
O1 0.056(7) 0.050(7) 0.054(7) -0.009(6) -0.012(5) -0.004(6)
O2 0.044(6) 0.060(7) 0.075(8) 0.000(6) -0.016(6) 0.016(5)
O3 0.060(6) 0.034(5) 0.022(5) -0.006(4) 0.009(5) -0.005(5)
O4 0.088(9) 0.080(9) 0.074(9) -0.032(7) -0.013(7) 0.045(7)
O5 0.088(10) 0.064(9) 0.084(10) 0.028(7) 0.042(8) -0.016(7)
O6 0.192(18) 0.155(16) 0.043(9) 0.049(10) 0.003(10) 0.040(14)
O7 0.25(2) 0.047(9) 0.149(17) 0.043(10) -0.003(15) -0.010(11)
O8 0.141(14) 0.104(12) 0.185(17) -0.077(12) 0.089(13) -0.085(11)
O9 0.038(7) 0.118(11) 0.073(8) 0.023(8) 0.010(6) -0.026(7)
O10 0.113(8) 0.084(7) 0.116(8) 0.000(7) 0.003(7) -0.052(7)
O11 0.029(5) 0.034(5) 0.045(6) -0.006(4) 0.005(4) 0.005(4)
O12 0.033(6) 0.031(6) 0.088(8) 0.015(5) -0.008(5) -0.006(4)
O13 0.038(6) 0.030(6) 0.086(8) -0.005(5) 0.004(6) -0.007(4)
O14 0.053(7) 0.017(5) 0.085(8) -0.003(5) -0.002(6) 0.006(4)
O15 0.094(8) 0.121(8) 0.110(8) 0.032(7) 0.003(7) -0.027(7)
O16 0.204(18) 0.152(15) 0.028(7) -0.040(9) 0.039(9) -0.121(14)
O17 0.039(7) 0.058(7) 0.098(9) 0.019(7) 0.005(7) -0.001(5)
O18 0.049(7) 0.079(9) 0.090(9) 0.012(7) 0.026(7) -0.013(6)
O19 0.049(6) 0.031(5) 0.030(5) 0.007(4) -0.003(5) 0.013(4)
O20 0.035(5) 0.046(6) 0.032(5) 0.019(4) -0.002(4) 0.010(4)
O21 0.039(6) 0.029(6) 0.069(7) -0.031(5) -0.006(5) 0.000(4)
O22 0.016(5) 0.040(6) 0.067(7) -0.004(5) 0.013(4) 0.010(4)
O23 0.048(7) 0.132(12) 0.096(10) -0.044(9) -0.043(7) -0.009(7)
O24 0.017(6) 0.036(6) 0.153(12) -0.006(6) -0.021(6) 0.010(4)
N1 0.039(7) 0.044(7) 0.033(7) -0.017(5) -0.012(5) 0.008(6)
N2 0.033(6) 0.027(6) 0.037(6) -0.026(5) -0.003(5) -0.009(5)
N3 0.113(12) 0.029(7) 0.052(9) 0.003(6) 0.018(8) -0.020(7)
N4 0.054(8) 0.041(7) 0.056(8) 0.002(6) 0.029(7) -0.013(6)
N5 0.016(5) 0.022(6) 0.066(8) 0.006(5) -0.006(5) -0.007(4)
N6 0.021(6) 0.028(6) 0.029(6) 0.006(5) 0.006(4) -0.004(4)
N7 0.036(6) 0.025(6) 0.030(7) 0.008(5) -0.011(5) 0.000(5)
N8 0.050(8) 0.040(7) 0.065(9) 0.011(7) -0.014(7) -0.016(6)
N9 0.036(7) 0.031(7) 0.051(8) -0.003(6) 0.011(6) 0.020(5)
N10 0.023(6) 0.022(6) 0.040(7) 0.004(5) 0.008(5) 0.004(4)
N11 0.018(6) 0.045(7) 0.034(7) -0.004(5) 0.000(5) 0.005(5)
N12 0.020(6) 0.045(7) 0.091(10) -0.035(7) -0.012(6) 0.019(5)
C1 0.035(8) 0.033(8) 0.034(8) -0.010(6) -0.008(6) 0.010(6)
C2 0.047(9) 0.039(8) 0.027(8) 0.013(6) -0.015(7) -0.013(7)
C3 0.027(8) 0.075(12) 0.034(9) -0.013(9) 0.004(7) 0.017(8)
C4 0.037(9) 0.061(10) 0.036(9) -0.001(8) 0.006(7) -0.003(7)
C5 0.041(10) 0.064(11) 0.080(12) 0.015(9) -0.021(9) 0.017(8)
C6 0.034(8) 0.029(8) 0.042(9) -0.004(6) 0.000(7) 0.013(6)
C7 0.047(9) 0.034(8) 0.027(8) -0.010(6) -0.002(7) 0.000(6)
C8 0.023(8) 0.029(8) 0.087(14) -0.004(8) 0.013(8) 0.007(6)
C9 0.032(8) 0.052(10) 0.056(10) -0.004(8) 0.016(7) -0.004(7)
C10 0.022(8) 0.100(14) 0.065(12) -0.034(10) -0.002(8) 0.021(8)
C11 0.042(8) 0.032(8) 0.026(8) 0.005(6) 0.011(6) -0.001(6)
C12 0.093(14) 0.096(15) 0.027(9) 0.017(10) 0.022(9) 0.028(11)
C13 0.15(2) 0.063(14) 0.032(12) -0.004(10) -0.002(14) 0.048(15)
C14 0.044(9) 0.026(8) 0.046(9) -0.005(6) 0.025(7) -0.003(6)
C15 0.067(11) 0.065(11) 0.036(9) 0.014(8) 0.025(8) 0.006(9)
C16 0.048(9) 0.025(7) 0.056(10) 0.006(7) 0.019(8) -0.012(7)
C17 0.049(7) 0.039(7) 0.075(8) 0.001(6) 0.009(7) -0.019(6)
C18 0.083(15) 0.063(15) 0.11(2) -0.055(14) 0.023(14) -0.013(12)
C19 0.042(9) 0.041(9) 0.096(13) 0.014(9) 0.022(9) 0.003(7)
C20 0.041(10) 0.059(11) 0.102(15) -0.046(10) 0.016(9) -0.019(8)
C21 0.039(6) 0.024(6) 0.034(6) -0.016(5) 0.003(5) -0.009(5)
C22 0.043(9) 0.043(9) 0.055(10) 0.002(8) 0.002(8) -0.010(7)
C23 0.059(8) 0.060(8) 0.062(8) 0.001(7) 0.005(7) -0.030(7)
C24 0.026(8) 0.048(9) 0.041(9) -0.010(7) 0.001(6) -0.010(6)
C25 0.055(10) 0.035(9) 0.064(10) 0.028(8) 0.019(8) 0.006(7)
C26 0.028(7) 0.027(7) 0.020(7) 0.007(6) -0.003(6) -0.004(5)
C27 0.042(8) 0.030(7) 0.019(7) 0.006(6) 0.006(6) -0.002(6)
C28 0.016(6) 0.047(7) 0.046(7) -0.001(6) 0.008(5) -0.001(5)
C29 0.020(7) 0.056(9) 0.040(9) 0.002(7) 0.000(6) -0.002(6)
C30 0.019(7) 0.045(9) 0.056(10) 0.010(7) 0.002(7) -0.011(6)
C31 0.035(8) 0.014(7) 0.051(9) 0.002(6) 0.006(7) 0.009(5)
C32 0.030(7) 0.031(8) 0.036(8) 0.017(6) -0.018(6) 0.001(6)
C33 0.033(9) 0.030(8) 0.055(10) -0.015(7) -0.014(7) 0.009(7)
C34 0.040(9) 0.027(8) 0.050(9) -0.001(7) -0.005(7) -0.003(6)
C35 0.050(9) 0.021(7) 0.045(9) 0.004(6) 0.006(7) 0.003(6)
C36 0.031(8) 0.026(7) 0.039(8) -0.001(6) 0.009(6) -0.014(6)
C37 0.032(8) 0.062(10) 0.036(9) 0.012(8) 0.008(7) 0.009(7)
C38 0.093(16) 0.13(2) 0.058(14) 0.053(14) -0.027(12) -0.085(15)
C39 0.034(8) 0.051(9) 0.036(8) 0.011(7) -0.003(6) 0.019(7)
C40 0.032(8) 0.049(9) 0.041(9) -0.017(7) 0.004(6) -0.008(7)
C41 0.034(7) 0.019(7) 0.030(8) 0.009(6) 0.017(6) -0.001(5)
C42 0.024(7) 0.031(8) 0.042(8) 0.004(6) 0.014(6) 0.008(6)
C43 0.030(9) 0.051(10) 0.090(15) 0.001(10) -0.015(10) 0.019(8)
C44 0.031(8) 0.025(7) 0.037(8) 0.001(6) -0.011(6) 0.001(6)
C45 0.029(8) 0.038(8) 0.030(8) -0.007(6) -0.007(6) 0.000(6)
C46 0.030(8) 0.041(8) 0.044(9) 0.027(7) -0.003(7) 0.011(6)
C47 0.018(7) 0.047(9) 0.035(8) -0.006(6) -0.006(6) 0.004(6)
C48 0.022(7) 0.009(6) 0.043(9) 0.000(6) -0.005(6) 0.004(5)
C49 0.056(9) 0.023(7) 0.033(8) -0.010(6) -0.036(7) 0.017(6)
C50 0.030(8) 0.044(9) 0.055(10) 0.023(7) 0.004(7) -0.006(6)
C51 0.020(6) 0.030(6) 0.031(6) -0.003(5) -0.005(5) 0.018(5)
C52 0.014(6) 0.037(8) 0.034(8) 0.005(6) 0.004(6) 0.010(5)
C53 0.046(9) 0.029(8) 0.033(8) 0.011(6) 0.017(7) 0.011(7)
C54 0.051(9) 0.024(8) 0.063(10) 0.020(7) 0.022(8) 0.003(7)
C55 0.023(7) 0.027(8) 0.082(11) -0.023(7) -0.011(7) 0.007(6)
C56 0.022(7) 0.032(8) 0.066(10) -0.018(7) -0.017(7) 0.005(6)
C57 0.024(8) 0.039(9) 0.073(11) -0.033(8) -0.009(7) 0.005(6)
C58 0.071(14) 0.054(11) 0.057(12) -0.043(9) -0.025(10) 0.032(9)
C59 0.049(9) 0.044(9) 0.039(9) 0.009(7) -0.018(7) -0.003(7)
C60 0.030(8) 0.039(8) 0.051(9) -0.005(7) 0.006(7) 0.015(6)
O26 0.041(6) 0.050(6) 0.061(7) 0.012(5) 0.023(5) 0.017(5)
La1 0.0337 0.0218 0.0377 -0.0029 0.002 -0.0019
La2 0.0800(7) 0.0800(7) 0.0836(12) 0.0024(7) -0.0024(7) 0.0039(9)
O27 0.075 0.048 0.047 -0.011 -0.023 0.012
O28 0.06 0.072 0.184 -0.053 -0.055 0.028
C61 0.034 0.124 0.086 -0.057 0.008 0.003
C62 0.14 0.067 0.14 -0.007 -0.07 0.028
O29 0.034 0.042 0.043 0.001 -0.013 0.001
O30 0.026 0.033 0.039 -0.001 -0.012 -0.008
O31 0.096 0.063 0.101 -0.009 0.039 -0.033
O32 0.238 0.029 0.081 -0.004 -0.092 0.008
O33 0.087(10) 0.127(12) 0.090(10) -0.033(9) -0.005(8) 0.025(8)
O34 0.101(11) 0.121(12) 0.104(11) -0.031(9) 0.021(9) -0.005(9)
O35 0.091(11) 0.176(16) 0.102(12) 0.021(11) 0.009(9) 0.069(11)
La1G 0.0218 0.0337 0.0377 0.002 0.0029 0.0019
La1C 0.0337(5) 0.0218(4) 0.0377(5) 0.0029(3) 0.0020(4) 0.0019(3)
O11F 0.034 0.029 0.045 -0.005 -0.006 -0.005
O20C 0.035 0.046 0.032 -0.019 -0.002 -0.01
O33E 0.127 0.087 0.09 0.005 0.033 0.025
O34E 0.121 0.101 0.104 -0.021 0.031 -0.005
O35E 0.176 0.091 0.102 -0.009 -0.021 0.069
O16E 0.152 0.204 0.028 -0.039 0.04 -0.121
loop_
_geom_bond_atom_site_label_1
_geom_bond_atom_site_label_2
_geom_bond_site_symmetry_1
_geom_bond_site_symmetry_2
Ag1 S1 1_555 1_555
Ag2 Cl1 1_555 1_555
Ag3 S2 1_555 1_555
Ag4 Cl1 1_555 1_555
Ag5 S4 1_555 1_555
Ag6 S4 1_555 1_555
Ag7 Cl1 1_555 1_555
Ag8 S8 1_555 1_555
Pd1 S1 1_555 1_555
Pd2 S3 1_555 1_555
Pd3 S5 1_555 1_555
Pd4 S7 1_555 1_555
Pd5 S9 1_555 1_555
Pd6 S11 1_555 1_555
S1 Ag4 1_555 1_555
S2 Ag2 1_555 1_555
S3 Ag1 1_555 1_555
S4 Pd2 1_555 1_555
S5 Ag2 1_555 1_555
S6 Ag3 1_555 1_555
S7 Ag3 1_555 1_555
S8 Ag7 1_555 1_555
S9 Ag4 1_555 1_555
S10 Ag1 1_555 1_555
S11 Ag5 1_555 1_555
S12 Ag6 1_555 1_555
O1 C3 1_555 1_555
O2 C3 1_555 1_555
O3 C8 1_555 1_555
O4 C8 1_555 1_555
O5 C13 1_555 1_555
O6 C13 1_555 1_555
O7 C18 1_555 1_555
O8 C18 1_555 1_555
O9 C23 1_555 1_555
O10 C23 1_555 1_555
O11 C28 1_555 1_555
O12 C28 1_555 1_555
O13 C33 1_555 1_555
O14 C33 1_555 1_555
O15 C38 1_555 1_555
O16 C38 1_555 1_555
O17 C43 1_555 1_555
O18 C43 1_555 1_555
O19 C48 1_555 1_555
O20 C48 1_555 1_555
O21 C53 1_555 1_555
O22 C53 1_555 1_555
O23 C58 1_555 1_555
O24 C58 1_555 1_555
N1 Pd1 1_555 1_555
H1 N1 1_555 1_555
H2 N1 1_555 1_555
N2 Pd1 1_555 1_555
H3 N2 1_555 1_555
H4 N2 1_555 1_555
N3 Pd2 1_555 1_555
H5 N3 1_555 1_555
H6 N3 1_555 1_555
N4 Pd2 1_555 1_555
H7 N4 1_555 1_555
H8 N4 1_555 1_555
N5 Pd3 1_555 1_555
H9 N5 1_555 1_555
H10 N5 1_555 1_555
N6 Pd3 1_555 1_555
H11 N6 1_555 1_555
H12 N6 1_555 1_555
N7 Pd4 1_555 1_555
H13 N7 1_555 1_555
H14 N7 1_555 1_555
N8 Pd4 1_555 1_555
H15 N8 1_555 1_555
H16 N8 1_555 1_555
N9 Pd5 1_555 1_555
H17 N9 1_555 1_555
H18 N9 1_555 1_555
N10 Pd5 1_555 1_555
H19 N10 1_555 1_555
H20 N10 1_555 1_555
N11 Pd6 1_555 1_555
H21 N11 1_555 1_555
H22 N11 1_555 1_555
N12 Pd6 1_555 1_555
H23 N12 1_555 1_555
H24 N12 1_555 1_555
C1 S1 1_555 1_555
C2 N1 1_555 1_555
H25 C2 1_555 1_555
C3 C2 1_555 1_555
C4 C1 1_555 1_555
H26 C4 1_555 1_555
H27 C4 1_555 1_555
H28 C4 1_555 1_555
C5 C1 1_555 1_555
H29 C5 1_555 1_555
H30 C5 1_555 1_555
H31 C5 1_555 1_555
C6 S2 1_555 1_555
C7 N2 1_555 1_555
H32 C7 1_555 1_555
C8 C7 1_555 1_555
C9 C6 1_555 1_555
H33 C9 1_555 1_555
H34 C9 1_555 1_555
H35 C9 1_555 1_555
C10 C6 1_555 1_555
H36 C10 1_555 1_555
H37 C10 1_555 1_555
H38 C10 1_555 1_555
C11 S3 1_555 1_555
C12 N3 1_555 1_555
H39 C12 1_555 1_555
C13 C12 1_555 1_555
C14 C11 1_555 1_555
H40 C14 1_555 1_555
H41 C14 1_555 1_555
H42 C14 1_555 1_555
C15 C11 1_555 1_555
H43 C15 1_555 1_555
H44 C15 1_555 1_555
H45 C15 1_555 1_555
C16 S4 1_555 1_555
C17 N4 1_555 1_555
H46 C17 1_555 1_555
C18 C17 1_555 1_555
C19 C16 1_555 1_555
H47 C19 1_555 1_555
H48 C19 1_555 1_555
H49 C19 1_555 1_555
C20 C16 1_555 1_555
H50 C20 1_555 1_555
H51 C20 1_555 1_555
H52 C20 1_555 1_555
C21 S5 1_555 1_555
C22 N5 1_555 1_555
H53 C22 1_555 1_555
C23 C22 1_555 1_555
C24 C21 1_555 1_555
H54 C24 1_555 1_555
H55 C24 1_555 1_555
H56 C24 1_555 1_555
C25 C21 1_555 1_555
H57 C25 1_555 1_555
H58 C25 1_555 1_555
H59 C25 1_555 1_555
C26 S6 1_555 1_555
C27 N6 1_555 1_555
H60 C27 1_555 1_555
C28 C27 1_555 1_555
C29 C26 1_555 1_555
H61 C29 1_555 1_555
H62 C29 1_555 1_555
H63 C29 1_555 1_555
C30 C26 1_555 1_555
H64 C30 1_555 1_555
H65 C30 1_555 1_555
H66 C30 1_555 1_555
C31 S7 1_555 1_555
C32 N7 1_555 1_555
H67 C32 1_555 1_555
C33 C32 1_555 1_555
C34 C31 1_555 1_555
H68 C34 1_555 1_555
H69 C34 1_555 1_555
H70 C34 1_555 1_555
C35 C31 1_555 1_555
H71 C35 1_555 1_555
H72 C35 1_555 1_555
H73 C35 1_555 1_555
C36 S8 1_555 1_555
C37 N8 1_555 1_555
H74 C37 1_555 1_555
C38 C37 1_555 1_555
C39 C36 1_555 1_555
H75 C39 1_555 1_555
H76 C39 1_555 1_555
H77 C39 1_555 1_555
C40 C36 1_555 1_555
H78 C40 1_555 1_555
H79 C40 1_555 1_555
H80 C40 1_555 1_555
C41 S9 1_555 1_555
C42 N9 1_555 1_555
H81 C42 1_555 1_555
C43 C42 1_555 1_555
C44 C41 1_555 1_555
H82 C44 1_555 1_555
H83 C44 1_555 1_555
H84 C44 1_555 1_555
C45 C41 1_555 1_555
H85 C45 1_555 1_555
H86 C45 1_555 1_555
H87 C45 1_555 1_555
C46 S10 1_555 1_555
C47 N10 1_555 1_555
H88 C47 1_555 1_555
C48 C47 1_555 1_555
C49 C46 1_555 1_555
H89 C49 1_555 1_555
H90 C49 1_555 1_555
H91 C49 1_555 1_555
C50 C46 1_555 1_555
H92 C50 1_555 1_555
H93 C50 1_555 1_555
H94 C50 1_555 1_555
C51 S11 1_555 1_555
C52 N11 1_555 1_555
H95 C52 1_555 1_555
C53 C52 1_555 1_555
C54 C51 1_555 1_555
H96 C54 1_555 1_555
H97 C54 1_555 1_555
H98 C54 1_555 1_555
C55 C51 1_555 1_555
H99 C55 1_555 1_555
H100 C55 1_555 1_555
H101 C55 1_555 1_555
C56 S12 1_555 1_555
C57 N12 1_555 1_555
H102 C57 1_555 1_555
C58 C57 1_555 1_555
C59 C56 1_555 1_555
H103 C59 1_555 1_555
H104 C59 1_555 1_555
H105 C59 1_555 1_555
C60 C56 1_555 1_555
H106 C60 1_555 1_555
H107 C60 1_555 1_555
H108 C60 1_555 1_555
O26 Ag8 1_555 1_555
La1 O3 1_555 1_555
La2 O16 1_555 1_555
O27 La1 1_555 1_555
O28 La1 1_555 1_555
C61 O27 1_555 1_555
C62 C61 1_555 1_555
H109 C62 1_555 1_555
H110 C62 1_555 1_555
H111 C62 1_555 1_555
O29 La1 1_555 1_555
O30 La1 1_555 1_555
O31 La1 1_555 1_555
O32 La1 1_555 1_555
O33 La2 1_555 1_555
O34 La2 1_555 1_555
O35 La2 1_555 1_555
O36 La2 1_555 1_555
La1G O11 1_555 1_555
La1C O20 1_555 1_555
O11F La1 1_555 1_555
O20C La1 1_555 1_555
O33E La2 1_555 1_555
O34E La2 1_555 1_555
O35E La2 1_555 1_555
O16E La2 1_555 1_555
Ag2 S3 1_555 1_555
Ag4 S7 1_555 1_555
Ag5 S10 1_555 1_555
Ag6 S5 1_555 1_555
Ag7 S6 1_555 1_555
Ag7 S12 1_555 1_555
Ag8 S9 1_555 1_555
Ag8 S11 1_555 1_555
Pd1 S2 1_555 1_555
Pd3 S6 1_555 1_555
Pd4 S8 1_555 1_555
Pd5 S10 1_555 1_555
Pd6 S12 1_555 1_555
C1 C2 1_555 1_555
C6 C7 1_555 1_555
C11 C12 1_555 1_555
C16 C17 1_555 1_555
C21 C22 1_555 1_555
C26 C27 1_555 1_555
C31 C32 1_555 1_555
C36 C37 1_555 1_555
C41 C42 1_555 1_555
C46 C47 1_555 1_555
C51 C52 1_555 1_555
C56 C57 1_555 1_555
O28 C61 1_555 1_555

#END
