
#######################################################################
#
#                 Cambridge Crystallographic Data Centre
#                                CCDC 
#
#######################################################################
#
# If this CIF has been generated from an entry in the Cambridge 
# Structural Database, then it will include bibliographic, chemical, 
# crystal, experimental, refinement or atomic coordinate data resulting 
# from the CCDC's data processing and validation procedures.
#
#######################################################################

data_MUGQAI
_chemical_formula_moiety         '(C28 H18 Cu4 N16 O1)n'
_symmetry_cell_setting           orthorhombic
_symmetry_space_group_name_H-M   'P b c n'
_symmetry_Int_Tables_number      60
_space_group_name_Hall           '-P 2n 2ab'
loop_
_symmetry_equiv_pos_site_id
_symmetry_equiv_pos_as_xyz
1 x,y,z
2 1/2-x,1/2-y,1/2+z
3 1/2+x,1/2-y,-z
4 -x,y,1/2-z
5 -x,-y,-z
6 1/2+x,1/2+y,1/2-z
7 1/2-x,1/2+y,z
8 x,-y,1/2+z
_cell_length_a                   14.6978(14)
_cell_length_b                   19.3933(17)
_cell_length_c                   10.3560(9)
_cell_angle_alpha                90
_cell_angle_beta                 90
_cell_angle_gamma                90
_cell_volume                     2951.86
loop_
_atom_site_label
_atom_site_type_symbol
_atom_site_fract_x
_atom_site_fract_y
_atom_site_fract_z
Cu1 Cu 0.0000 0.26499(4) 0.2500
Cu2 Cu 0.5000 0.50941(4) 0.7500
Cu3 Cu 0.34552(5) 0.38215(3) 0.75452(6)
N1 N 0.0947(3) 0.33589(19) 0.3296(4)
N2 N 0.3276(3) 0.52242(17) 0.4449(3)
N3 N 0.3442(3) 0.45002(17) 0.6134(3)
N4 N 0.4065(3) 0.50304(17) 0.6251(3)
N5 N 0.5097(3) 0.62976(18) 0.5822(4)
N6 N 0.4423(3) 0.64023(16) 0.3883(3)
N7 N 0.5033(3) 0.69355(17) 0.4000(4)
N8 N 0.7421(3) 0.8177(2) 0.6824(4)
C1 C 0.1271(4) 0.3929(3) 0.2719(5)
H1 H 0.1037 0.4045 0.1913
C2 C 0.1930(4) 0.4353(2) 0.3247(5)
H2 H 0.2145 0.4730 0.2783
C3 C 0.2266(3) 0.4216(2) 0.4465(4)
C4 C 0.1894(4) 0.3653(3) 0.5104(5)
H3 H 0.2070 0.3553 0.5946
C5 C 0.1260(4) 0.3243(3) 0.4481(5)
H4 H 0.1038 0.2860 0.4921
C6 C 0.2992(3) 0.4642(2) 0.5036(4)
C7 C 0.3934(3) 0.5431(2) 0.5229(4)
C8 C 0.4486(3) 0.6049(2) 0.4978(4)
C9 C 0.5408(3) 0.6851(2) 0.5178(4)
C10 C 0.6086(3) 0.7319(2) 0.5737(4)
C11 C 0.6349(4) 0.7923(3) 0.5148(5)
H5 H 0.6089 0.8053 0.4367
C12 C 0.7005(4) 0.8339(3) 0.5722(5)
H6 H 0.7161 0.8750 0.5317
C13 C 0.7160(4) 0.7587(3) 0.7386(5)
H7 H 0.7440 0.7464 0.8158
C14 C 0.6505(4) 0.7150(3) 0.6896(5)
H8 H 0.6346 0.6749 0.7335
Cu3C Cu -0.34552(5) 0.38215(3) -0.25452(6)
N1C N -0.0947(3) 0.33589(19) 0.1704(4)
N2C N -0.3276(3) 0.52242(17) 0.0551(3)
N3C N -0.3442(3) 0.45002(17) -0.1134(3)
N4C N -0.4065(3) 0.50304(17) -0.1251(3)
N5C N -0.5097(3) 0.62976(18) -0.0822(4)
N6C N -0.4423(3) 0.64023(16) 0.1117(3)
N7C N -0.5033(3) 0.69355(17) 0.1000(4)
N8C N -0.7421(3) 0.8177(2) -0.1824(4)
C1C C -0.1271(4) 0.3929(3) 0.2281(5)
H1C H -0.1037 0.4045 0.3087
C2C C -0.1930(4) 0.4353(2) 0.1753(5)
H2C H -0.2145 0.4730 0.2217
C3C C -0.2266(3) 0.4216(2) 0.0535(4)
C4C C -0.1894(4) 0.3653(3) -0.0104(5)
H3C H -0.2070 0.3553 -0.0946
C5C C -0.1260(4) 0.3243(3) 0.0519(5)
H4C H -0.1038 0.2860 0.0079
C6C C -0.2992(3) 0.4642(2) -0.0036(4)
C7C C -0.3934(3) 0.5431(2) -0.0229(4)
C8C C -0.4486(3) 0.6049(2) 0.0022(4)
C9C C -0.5408(3) 0.6851(2) -0.0178(4)
C10C C -0.6086(3) 0.7319(2) -0.0737(4)
C11C C -0.6349(4) 0.7923(3) -0.0148(5)
H5C H -0.6089 0.8053 0.0633
C12C C -0.7005(4) 0.8339(3) -0.0722(5)
H6C H -0.7161 0.8750 -0.0317
C13C C -0.7160(4) 0.7587(3) -0.2386(5)
H7C H -0.7440 0.7464 -0.3158
C14C C -0.6505(4) 0.7150(3) -0.1896(5)
H8C H -0.6346 0.6749 -0.2335
Cu1E Cu -0.5000 0.76499(4) 0.2500
Cu1E_2 Cu 0.5000 0.76499(4) 0.2500
Cu2_2 Cu -0.5000 0.50941(4) -0.2500
Cu3D Cu -0.34552(5) 0.61785(3) 0.24548(6)
Cu3E Cu 0.84552(5) 0.88215(3) 0.74548(6)
Cu3F Cu -0.84552(5) 0.88215(3) -0.24548(6)
Cu3G Cu 0.34552(5) 0.61785(3) 0.25452(6)
N2D N -0.3276(3) 0.47758(17) -0.4449(3)
N2G N 0.3276(3) 0.47758(17) 0.9449(3)
N4C_2 N 0.5935(3) 0.50304(17) 0.8749(3)
N6D N -0.4423(3) 0.35977(16) -0.3883(3)
N6G N 0.4423(3) 0.35977(16) 0.8883(3)
N7E N 0.0033(3) 0.19355(17) 0.1000(4)
N7F N -0.0033(3) 0.19355(17) 0.4000(4)
N8E N 0.2421(3) 0.3177(2) 0.8176(4)
N8F N -0.2421(3) 0.3177(2) -0.3176(4)
O1 O -0.0000 0.580(4) 0.2500
loop_
_geom_bond_atom_site_label_1
_geom_bond_atom_site_label_2
_geom_bond_site_symmetry_1
_geom_bond_site_symmetry_2
Cu1 N1 1_555 1_555
Cu2 N4 1_555 1_555
Cu3 N3 1_555 1_555
N1 C1 1_555 1_555
N2 C6 1_555 1_555
N3 N4 1_555 1_555
N4 C7 1_555 1_555
N5 C8 1_555 1_555
N6 N7 1_555 1_555
N7 C9 1_555 1_555
N8 C12 1_555 1_555
C1 H1 1_555 1_555
C2 C1 1_555 1_555
H2 C2 1_555 1_555
C3 C2 1_555 1_555
C4 C3 1_555 1_555
H3 C4 1_555 1_555
C5 N1 1_555 1_555
H4 C5 1_555 1_555
C6 N3 1_555 1_555
C7 N2 1_555 1_555
C8 N6 1_555 1_555
C9 N5 1_555 1_555
C10 C9 1_555 1_555
C11 C10 1_555 1_555
H5 C11 1_555 1_555
C12 C11 1_555 1_555
H6 C12 1_555 1_555
C13 N8 1_555 1_555
H7 C13 1_555 1_555
C14 C10 1_555 1_555
H8 C14 1_555 1_555
Cu3C N3C 1_555 1_555
N1C Cu1 1_555 1_555
N2C C6C 1_555 1_555
N3C N4C 1_555 1_555
N4C C7C 1_555 1_555
N5C C8C 1_555 1_555
N6C N7C 1_555 1_555
N7C C9C 1_555 1_555
N8C C12C 1_555 1_555
C1C N1C 1_555 1_555
H1C C1C 1_555 1_555
C2C C1C 1_555 1_555
H2C C2C 1_555 1_555
C3C C2C 1_555 1_555
C4C C3C 1_555 1_555
H3C C4C 1_555 1_555
C5C N1C 1_555 1_555
H4C C5C 1_555 1_555
C6C N3C 1_555 1_555
C7C N2C 1_555 1_555
C8C N6C 1_555 1_555
C9C N5C 1_555 1_555
C10C C9C 1_555 1_555
C11C C10C 1_555 1_555
H5C C11C 1_555 1_555
C12C C11C 1_555 1_555
H6C C12C 1_555 1_555
C13C N8C 1_555 1_555
H7C C13C 1_555 1_555
C14C C10C 1_555 1_555
H8C C14C 1_555 1_555
Cu1E N7C 1_555 1_555
Cu1E_2 N7 1_555 1_555
Cu2_2 N4C 1_555 1_555
Cu3D N2C 1_555 1_555
Cu3E N8 1_555 1_555
Cu3F N8C 1_555 1_555
Cu3G N2 1_555 1_555
N2D Cu3C 1_555 1_555
N2G Cu3 1_555 1_555
N4C_2 Cu2 1_555 1_555
N6D Cu3C 1_555 1_555
N6G Cu3 1_555 1_555
N7E Cu1 1_555 1_555
N7F Cu1 1_555 1_555
N8E Cu3 1_555 1_555
N8F Cu3C 1_555 1_555
N6 Cu3G 1_555 1_555
C3 C6 1_555 1_555
C4 C5 1_555 1_555
C7 C8 1_555 1_555
C13 C14 1_555 1_555
N6C Cu3D 1_555 1_555
C3C C6C 1_555 1_555
C4C C5C 1_555 1_555
C7C C8C 1_555 1_555
C13C C14C 1_555 1_555

#END
