
#######################################################################
#
#                 Cambridge Crystallographic Data Centre
#                                CCDC 
#
#######################################################################
#
# If this CIF has been generated from an entry in the Cambridge 
# Structural Database, then it will include bibliographic, chemical, 
# crystal, experimental, refinement or atomic coordinate data resulting 
# from the CCDC's data processing and validation procedures.
#
#######################################################################

data_MUHNAG
_chemical_formula_moiety         '(C31 H20 Co3 N8 O9)n'
_symmetry_cell_setting           triclinic
_symmetry_space_group_name_H-M   'P -1'
_symmetry_Int_Tables_number      2
_space_group_name_Hall           '-P 1'
loop_
_symmetry_equiv_pos_site_id
_symmetry_equiv_pos_as_xyz
1 x,y,z
2 -x,-y,-z
_cell_length_a                   9.2529(12)
_cell_length_b                   10.6355(11)
_cell_length_c                   11.0493(13)
_cell_angle_alpha                63.622(11)
_cell_angle_beta                 86.489(10)
_cell_angle_gamma                74.907(10)
_cell_volume                     938.672
loop_
_atom_site_label
_atom_site_type_symbol
_atom_site_fract_x
_atom_site_fract_y
_atom_site_fract_z
Co1 Co 0.5000 0.5000 0.5000
Co2 Co 0.22196(7) 0.27529(7) 0.48166(6)
O1 O 0.4734(4) 0.3090(4) 0.6677(4)
O2 O 0.3242(5) 0.1765(4) 0.6608(4)
O3 O 0.4904(4) 0.4171(5) 0.3592(4)
O4 O 0.3163(5) 0.3339(5) 0.3089(4)
N1 N -0.0221(4) 0.3385(4) 0.4905(4)
N2 N -0.1945(4) 0.5125(5) 0.5213(4)
N3 N -0.2656(4) 0.4141(4) 0.5213(4)
N4 N -0.2251(5) -0.0714(5) 0.5084(5)
C1 C 0.4166(6) 0.2056(6) 0.7180(5)
C2 C 0.4608(6) 0.0985(6) 0.8648(5)
C3 C 0.5565(8) 0.1209(7) 0.9404(6)
H1 H 0.5940 0.2024 0.9008
C4 C 0.5969(8) 0.0221(7) 1.0753(6)
H2 H 0.6624 0.0369 1.1252
C5 C 0.4212(6) 0.3974(6) 0.2799(5)
C6 C 0.4629(6) 0.4492(6) 0.1343(5)
C7 C 0.5759(8) 0.5187(8) 0.0933(6)
H3 H 0.6270 0.5318 0.1549
C8 C 0.6134(8) 0.5694(8) -0.0417(6)
H4 H 0.6902 0.6159 -0.0697
C9 C -0.0546(5) 0.4632(5) 0.5018(5)
C10 C -0.1608(5) 0.3124(5) 0.5024(5)
C11 C -0.1897(5) 0.1828(5) 0.5017(6)
C12 C -0.1524(7) 0.1504(6) 0.3925(6)
H5 H -0.1148 0.2134 0.3162
C13 C -0.1725(7) 0.0230(6) 0.4004(5)
H6 H -0.1485 0.0018 0.3273
C14 C -0.2623(7) -0.0374(7) 0.6112(6)
H7 H -0.3000 -0.1016 0.6866
C15 C -0.2470(7) 0.0888(7) 0.6103(6)
H8 H -0.2755 0.1093 0.6831
O1A O 0.5266(4) -0.3090(4) 1.3323(4)
O2A O 0.6758(5) -0.1765(4) 1.3392(4)
C1A C 0.5834(6) -0.2056(6) 1.2820(5)
C2A C 0.5392(6) -0.0985(6) 1.1352(5)
C3A C 0.4435(8) -0.1209(7) 1.0596(6)
H1A H 0.4060 -0.2024 1.0992
C4A C 0.4031(8) -0.0221(7) 0.9247(6)
H2A H 0.3376 -0.0369 0.8748
O3A O 0.5096(4) 0.5829(5) -0.3592(4)
O4A O 0.6837(5) 0.6661(5) -0.3089(4)
C5A C 0.5788(6) 0.6026(6) -0.2799(5)
C6A C 0.5371(6) 0.5508(6) -0.1343(5)
C7A C 0.4241(8) 0.4813(8) -0.0933(6)
H3A H 0.3730 0.4682 -0.1549
C8A C 0.3866(8) 0.4306(8) 0.0417(6)
H4A H 0.3098 0.3841 0.0697
N1A N 0.0221(4) 0.6615(4) 0.5095(4)
N2A N 0.1945(4) 0.4875(5) 0.4787(4)
N3A N 0.2656(4) 0.5859(4) 0.4787(4)
N4A N 0.2251(5) 1.0714(5) 0.4916(5)
C9A C 0.0546(5) 0.5368(5) 0.4982(5)
C10A C 0.1608(5) 0.6876(5) 0.4976(5)
C11A C 0.1897(5) 0.8172(5) 0.4983(6)
C12A C 0.1524(7) 0.8496(6) 0.6075(6)
H5A H 0.1148 0.7866 0.6838
C13A C 0.1725(7) 0.9770(6) 0.5996(5)
H6A H 0.1485 0.9982 0.6727
C14A C 0.2623(7) 1.0374(7) 0.3888(6)
H7A H 0.3000 1.1016 0.3134
C15A C 0.2470(7) 0.9112(7) 0.3897(6)
H8A H 0.2755 0.8907 0.3169
Co2A Co -0.22196(7) -0.27529(7) 0.51834(6)
Co1_2 Co -0.5000 0.5000 0.5000
Co1_3 Co 0.5000 -0.5000 1.5000
Co1_4 Co 0.5000 0.5000 -0.5000
Co2_2 Co 0.22196(7) 1.27529(7) 0.48166(6)
Co2A_2 Co -0.22196(7) 0.72471(7) 0.51834(6)
Co2A_3 Co 0.77804(7) -0.27529(7) 1.51834(6)
Co2A_4 Co 0.77804(7) 0.72471(7) -0.48166(6)
O1A_2 O 0.5266(4) 0.6910(4) 0.3323(4)
O2A_2 O -0.3242(5) -0.1765(4) 0.3392(4)
O3A_2 O 0.5096(4) 0.5829(5) 0.6408(4)
O4A_2 O -0.3163(5) -0.3339(5) 0.6911(4)
N1A_2 N 0.0221(4) -0.3385(4) 0.5095(4)
N2_2 N -0.1945(4) -0.4875(5) 0.5213(4)
N3_2 N 0.7344(4) 0.4141(4) 0.5213(4)
N4A_2 N 0.2251(5) 0.0714(5) 0.4916(5)
O5 O -0.058(5) 0.259(5) 0.881(4)
H9 H -0.0930 0.2246 0.9555
C16 C 0.044(6) 0.320(6) 0.889(4)
H10 H 0.0106 0.3721 0.9418
H11 H 0.0613 0.3869 0.7991
H12 H 0.1355 0.2470 0.9301
loop_
_geom_bond_atom_site_label_1
_geom_bond_atom_site_label_2
_geom_bond_site_symmetry_1
_geom_bond_site_symmetry_2
Co1 O1 1_555 1_555
Co2 O2 1_555 1_555
O1 C1 1_555 1_555
O2 C1 1_555 1_555
O3 Co1 1_555 1_555
O4 Co2 1_555 1_555
N1 Co2 1_555 1_555
N2 N3 1_555 1_555
N3 C10 1_555 1_555
N4 C13 1_555 1_555
C1 C2 1_555 1_555
C2 C3 1_555 1_555
C3 H1 1_555 1_555
C4 C3 1_555 1_555
H2 C4 1_555 1_555
C5 O3 1_555 1_555
C6 C5 1_555 1_555
C7 C6 1_555 1_555
H3 C7 1_555 1_555
C8 C7 1_555 1_555
H4 C8 1_555 1_555
C9 N1 1_555 1_555
C10 N1 1_555 1_555
C11 C10 1_555 1_555
C12 C11 1_555 1_555
H5 C12 1_555 1_555
C13 C12 1_555 1_555
H6 C13 1_555 1_555
C14 N4 1_555 1_555
H7 C14 1_555 1_555
C15 C11 1_555 1_555
H8 C15 1_555 1_555
O5 H9 1_555 1_555
C16 O5 1_555 1_555
H10 C16 1_555 1_555
H11 C16 1_555 1_555
H12 C16 1_555 1_555
O1A C1A 1_555 1_555
O2A C1A 1_555 1_555
C1A C2A 1_555 1_555
C2A C4 1_555 1_555
C3A C2A 1_555 1_555
H1A C3A 1_555 1_555
C4A C2 1_555 1_555
H2A C4A 1_555 1_555
O3A C5A 1_555 1_555
O4A C5A 1_555 1_555
C5A C6A 1_555 1_555
C6A C8 1_555 1_555
C7A C6A 1_555 1_555
H3A C7A 1_555 1_555
C8A C6 1_555 1_555
H4A C8A 1_555 1_555
N1A C9A 1_555 1_555
N2A Co2 1_555 1_555
N3A Co1 1_555 1_555
N4A C13A 1_555 1_555
C9A C9 1_555 1_555
C10A N1A 1_555 1_555
C11A C10A 1_555 1_555
C12A C11A 1_555 1_555
H5A C12A 1_555 1_555
C13A C12A 1_555 1_555
H6A C13A 1_555 1_555
C14A N4A 1_555 1_555
H7A C14A 1_555 1_555
C15A C11A 1_555 1_555
H8A C15A 1_555 1_555
Co2A N4 1_555 1_555
Co1_2 N3 1_555 1_555
Co1_3 O1A 1_555 1_555
Co1_4 O3A 1_555 1_555
Co2_2 N4A 1_555 1_555
Co2A_2 N2 1_555 1_555
Co2A_3 O2A 1_555 1_555
Co2A_4 O4A 1_555 1_555
O1A_2 Co1 1_555 1_555
O2A_2 Co2A 1_555 1_555
O3A_2 Co1 1_555 1_555
O4A_2 Co2A 1_555 1_555
N1A_2 Co2A 1_555 1_555
N2_2 Co2A 1_555 1_555
N3_2 Co1 1_555 1_555
N4A_2 Co2 1_555 1_555
O4 C5 1_555 1_555
N2 C9 1_555 1_555
C14 C15 1_555 1_555
C3A C4A 1_555 1_555
C7A C8A 1_555 1_555
N1A Co2A_2 1_555 1_555
N2A N3A 1_555 1_555
N2A C9A 1_555 1_555
N3A C10A 1_555 1_555
C14A C15A 1_555 1_555

#END
