
#######################################################################
#
#                 Cambridge Crystallographic Data Centre
#                                CCDC 
#
#######################################################################
#
# If this CIF has been generated from an entry in the Cambridge 
# Structural Database, then it will include bibliographic, chemical, 
# crystal, experimental, refinement or atomic coordinate data resulting 
# from the CCDC's data processing and validation procedures.
#
#######################################################################

data_GUYLUI01
_chemical_formula_moiety         '(C30 H16 N2 O8 S4 Zn2)n'
_symmetry_cell_setting           monoclinic
_symmetry_space_group_name_H-M   'C 2/c'
_symmetry_Int_Tables_number      15
_space_group_name_Hall           '-C 2yc'
loop_
_symmetry_equiv_pos_site_id
_symmetry_equiv_pos_as_xyz
1 x,y,z
2 -x,y,1/2-z
3 1/2+x,1/2+y,z
4 1/2-x,1/2+y,1/2-z
5 -x,-y,-z
6 x,-y,1/2+z
7 1/2-x,1/2-y,-z
8 1/2+x,1/2-y,1/2+z
_cell_length_a                   17.7608(4)
_cell_length_b                   21.7728(4)
_cell_length_c                   9.4874(2)
_cell_angle_alpha                90
_cell_angle_beta                 109.188(2)
_cell_angle_gamma                90
_cell_volume                     3464.98
loop_
_atom_site_label
_atom_site_type_symbol
_atom_site_fract_x
_atom_site_fract_y
_atom_site_fract_z
Zn1 Zn 0.94931(2) 0.226478(17) 0.08880(4)
S1 S 0.70240(5) 0.55738(4) 0.30174(10)
S2 S 0.79208(5) 0.39093(4) 0.17997(9)
O1 O 0.51721(15) 0.65368(11) 0.0720(3)
O2 O 0.90197(15) 0.29532(12) 0.1751(3)
O3 O 0.96181(14) 0.28447(11) 0.4219(3)
O4 O 0.60394(15) 0.66573(11) 0.3027(3)
N1 N 0.87423(16) 0.23261(12) -0.1254(3)
C1 C 0.7002(2) 0.48667(16) 0.2201(4)
C2 C 0.86108(19) 0.35830(15) 0.3331(4)
C3 C 0.91236(19) 0.30871(14) 0.3086(4)
C4 C 0.8031(3) 0.43265(19) 0.4366(4)
H1 H 0.7949 0.4557 0.5128
C5 C 0.57678(19) 0.63789(15) 0.1811(4)
C6 C 0.6369(2) 0.48238(18) 0.0914(4)
H2 H 0.6258 0.4476 0.0312
C7 C 0.8598(2) 0.38491(18) 0.4618(4)
H3 H 0.8926 0.3730 0.5562
C8 C 0.77636(19) 0.24635(17) -0.4215(3)
C9 C 0.61682(19) 0.58029(16) 0.1652(4)
C10 C 0.7616(2) 0.44153(17) 0.2893(4)
C11 C 0.5901(2) 0.53608(18) 0.0588(4)
H4 H 0.5457 0.5408 -0.0262
C12 C 0.7630(3) 0.2776(2) -0.3077(5)
H5 H 0.7198 0.3043 -0.3281
C13 C 0.8373(3) 0.2045(2) -0.3805(5)
H6 H 0.8473 0.1799 -0.4524
C14 C 0.8125(3) 0.2701(2) -0.1627(5)
H7 H 0.8020 0.2926 -0.0878
C15 C 0.8838(3) 0.1988(2) -0.2332(4)
H8 H 0.9242 0.1695 -0.2084
Zn1A Zn 1.05069(2) 0.226478(17) 0.41120(4)
Zn1B Zn 0.44931(2) 0.726478(17) 0.08880(4)
Zn1C Zn 0.55069(2) 0.726478(17) 0.41120(4)
Zn1F Zn 0.55069(2) 0.273522(17) -1.08880(4)
Zn1C_2 Zn 1.55069(2) 0.726478(17) 0.41120(4)
Zn1B_2 Zn 1.44931(2) 0.726478(17) 0.08880(4)
S1A S 1.29760(5) 0.55738(4) 0.19826(10)
S2A S 1.20792(5) 0.39093(4) 0.32003(9)
O1A O 1.48279(15) 0.65368(11) 0.4280(3)
O1B O 1.01721(15) 0.15368(11) 0.0720(3)
O1C O 0.98279(15) 0.15368(11) 0.4280(3)
O2A O 1.09803(15) 0.29532(12) 0.3249(3)
O3A O 1.03819(14) 0.28447(11) 0.0781(3)
O4A O 1.39606(15) 0.66573(11) 0.1973(3)
O4C O 0.89606(15) 0.16573(11) 0.1973(3)
O4B O 1.10394(15) 0.16573(11) 0.3027(3)
N1F N 0.62577(16) 0.26739(12) -0.8746(3)
N1A N 1.12577(16) 0.23261(12) 0.6254(3)
C1A C 1.2998(2) 0.48667(16) 0.2799(4)
C2A C 1.13892(19) 0.35830(15) 0.1669(4)
C3A C 1.08764(19) 0.30871(14) 0.1914(4)
C4A C 1.1969(3) 0.43265(19) 0.0634(4)
H1A H 1.2051 0.4557 -0.0128
C5A C 1.42322(19) 0.63789(15) 0.3189(4)
C6A C 1.3631(2) 0.48238(18) 0.4086(4)
H2A H 1.3742 0.4476 0.4688
C7A C 1.1402(2) 0.38491(18) 0.0382(4)
H3A H 1.1074 0.3730 -0.0562
C8F C 0.72364(19) 0.25365(17) -0.5785(3)
C9A C 1.38318(19) 0.58029(16) 0.3348(4)
C10A C 1.2384(2) 0.44153(17) 0.2107(4)
C11A C 1.4099(2) 0.53608(18) 0.4412(4)
H4A H 1.4543 0.5408 0.5262
C12F C 0.7370(3) 0.2224(2) -0.6923(5)
H5F H 0.7802 0.1957 -0.6719
C13F C 0.6627(3) 0.2955(2) -0.6195(5)
H6F H 0.6527 0.3201 -0.5476
C14F C 0.6875(3) 0.2299(2) -0.8373(5)
H7F H 0.6980 0.2074 -0.9122
C15F C 0.6162(3) 0.3012(2) -0.7668(4)
H8F H 0.5758 0.3305 -0.7916
loop_
_geom_bond_atom_site_label_1
_geom_bond_atom_site_label_2
_geom_bond_site_symmetry_1
_geom_bond_site_symmetry_2
Zn1 O2 1_555 1_555
S1 C1 1_555 1_555
S2 C2 1_555 1_555
O1 C5 1_555 1_555
O2 C3 1_555 1_555
O3 C3 1_555 1_555
O4 C5 1_555 1_555
N1 Zn1 1_555 1_555
C1 C6 1_555 1_555
C2 C3 1_555 1_555
C4 H1 1_555 1_555
C5 C9 1_555 1_555
C6 H2 1_555 1_555
C7 C2 1_555 1_555
H3 C7 1_555 1_555
C8 C12 1_555 1_555
C9 S1 1_555 1_555
C10 S2 1_555 1_555
C11 C6 1_555 1_555
H4 C11 1_555 1_555
C12 H5 1_555 1_555
C13 C8 1_555 1_555
H6 C13 1_555 1_555
C14 N1 1_555 1_555
H7 C14 1_555 1_555
C15 N1 1_555 1_555
H8 C15 1_555 1_555
Zn1A O3 1_555 1_555
Zn1B O1 1_555 1_555
Zn1C O4 1_555 1_555
Zn1F N1F 1_555 1_555
Zn1C_2 O1A 1_555 1_555
Zn1B_2 O4A 1_555 1_555
S1A C1A 1_555 1_555
S2A C2A 1_555 1_555
O1A C5A 1_555 1_555
O1B Zn1 1_555 1_555
O1C Zn1A 1_555 1_555
O2A Zn1A 1_555 1_555
O3A Zn1 1_555 1_555
O4A C5A 1_555 1_555
O4C Zn1 1_555 1_555
O4B Zn1A 1_555 1_555
N1F C14F 1_555 1_555
N1A Zn1A 1_555 1_555
C1A C6A 1_555 1_555
C2A C3A 1_555 1_555
C3A O2A 1_555 1_555
C4A H1A 1_555 1_555
C5A C9A 1_555 1_555
C6A H2A 1_555 1_555
C7A C2A 1_555 1_555
H3A C7A 1_555 1_555
C8F C8 1_555 1_555
C9A S1A 1_555 1_555
C10A S2A 1_555 1_555
C11A C6A 1_555 1_555
H4A C11A 1_555 1_555
C12F C8F 1_555 1_555
H5F C12F 1_555 1_555
C13F C8F 1_555 1_555
H6F C13F 1_555 1_555
C14F C12F 1_555 1_555
H7F C14F 1_555 1_555
C15F N1F 1_555 1_555
H8F C15F 1_555 1_555
C1 C10 1_555 1_555
C4 C7 1_555 1_555
C4 C10 1_555 1_555
C9 C11 1_555 1_555
C12 C14 1_555 1_555
C13 C15 1_555 1_555
O3A C3A 1_555 1_555
C1A C10A 1_555 1_555
C4A C7A 1_555 1_555
C4A C10A 1_555 1_555
C9A C11A 1_555 1_555
C13F C15F 1_555 1_555

#END
