
#######################################################################
#
#                 Cambridge Crystallographic Data Centre
#                                CCDC 
#
#######################################################################
#
# If this CIF has been generated from an entry in the Cambridge 
# Structural Database, then it will include bibliographic, chemical, 
# crystal, experimental, refinement or atomic coordinate data resulting 
# from the CCDC's data processing and validation procedures.
#
#######################################################################

data_YOCCIE
_chemical_formula_moiety         '(C40 H24 N2 O14 Zn4)n'
_symmetry_cell_setting           tetragonal
_symmetry_space_group_name_H-M   'P 4/n c c'
_symmetry_Int_Tables_number      130
_space_group_name_Hall           '-P 4a 2ac'
loop_
_symmetry_equiv_pos_site_id
_symmetry_equiv_pos_as_xyz
1 x,y,z
2 1/2-y,x,z
3 1/2-x,1/2-y,z
4 y,1/2-x,z
5 1/2+x,-y,1/2-z
6 -x,1/2+y,1/2-z
7 1/2+y,1/2+x,1/2-z
8 -y,-x,1/2-z
9 -x,-y,-z
10 1/2+y,-x,-z
11 1/2+x,1/2+y,-z
12 -y,1/2+x,-z
13 1/2-x,y,1/2+z
14 x,1/2-y,1/2+z
15 1/2-y,1/2-x,1/2+z
16 y,x,1/2+z
_cell_length_a                   16.2644(14)
_cell_length_b                   16.2644(14)
_cell_length_c                   30.563(3)
_cell_angle_alpha                90
_cell_angle_beta                 90
_cell_angle_gamma                90
_cell_volume                     8084.85
loop_
_atom_site_label
_atom_site_type_symbol
_atom_site_fract_x
_atom_site_fract_y
_atom_site_fract_z
_atom_site_U_iso_or_equiv
_atom_site_thermal_displace_type
Zn1 Zn 0.37579(7) 1.11217(8) 0.10042(3) 0.0582 Uani
Zn2 Zn 0.36196(7) 1.09021(9) 0.20367(4) 0.0645 Uani
C1 C 0.5921(6) 1.0066(6) 0.1536(3) 0.0527 Uani
C2 C 0.6289(6) 0.9830(6) 0.1931(3) 0.0530 Uani
H1 H 0.5988 0.9865 0.2189 0.0630 Uiso
C3 C 0.7074(6) 0.9552(6) 0.1944(3) 0.0543 Uani
C4 C 0.7541(6) 0.9550(7) 0.1554(3) 0.0563 Uani
H2 H 0.8091 0.9396 0.1564 0.0680 Uiso
C5 C 0.7194(6) 0.9775(6) 0.1156(3) 0.0560 Uani
C6 C 0.6387(6) 1.0028(6) 0.1155(3) 0.0563 Uani
H3 H 0.6145 1.0178 0.0891 0.0670 Uiso
C7 C 0.7697(6) 0.9824(7) 0.0747(3) 0.0630 Uani
C8 C 0.7359(6) 0.9615(7) 0.0343(3) 0.0587 Uani
H4 H 0.6821 0.9423 0.0331 0.0700 Uiso
C9 C 0.7802(6) 0.9684(6) -0.0038(3) 0.0587 Uani
C10 C 0.8617(7) 0.9946(7) -0.0025(3) 0.0677 Uani
H5 H 0.8928 0.9972 -0.0280 0.0810 Uiso
C11 C 0.8956(6) 1.0166(8) 0.0370(3) 0.0710 Uani
H6 H 0.9489 1.0371 0.0380 0.0850 Uiso
C12 C 0.8506(6) 1.0084(7) 0.0757(3) 0.0673 Uani
H7 H 0.8754 1.0205 0.1023 0.0800 Uiso
C13 C 0.5075(6) 1.0395(6) 0.1539(3) 0.0513 Uani
C14 C 0.7484(6) 0.9336(6) 0.2364(3) 0.0560 Uani
C15 C 0.7433(6) 0.9428(6) -0.0463(3) 0.0617 Uani
C16 C 0.2511(8) 0.9363(8) 0.1684(5) 0.0860 Uani
H8 H 0.2176 0.9800 0.1602 0.1030 Uiso
C17 C 0.2185(9) 0.8599(9) 0.1652(5) 0.1043 Uani
H9 H 0.1653 0.8523 0.1548 0.1250 Uiso
C18 C 0.2663(7) 0.7933(7) 0.1778(4) 0.0747 Uani
C19 C 0.3453(7) 0.8122(7) 0.1916(4) 0.0833 Uani
H10 H 0.3814 0.7706 0.1998 0.1000 Uiso
C20 C 0.3689(7) 0.8908(8) 0.1929(4) 0.0860 Uani
H11 H 0.4220 0.9012 0.2026 0.1030 Uiso
N1 N 0.3244(6) 0.9543(6) 0.1819(3) 0.0737 Uani
O1 O 0.4732(4) 1.0498(5) 0.11697(19) 0.0657 Uani
O2 O 0.4764(4) 1.0551(4) 0.19036(19) 0.0610 Uani
O3 O 0.7082(5) 0.9108(5) 0.2689(2) 0.0687 Uani
O4 O 0.8260(4) 0.9412(5) 0.23755(19) 0.0640 Uani
O5 O 0.6659(4) 0.9387(5) -0.04752(19) 0.0667 Uani
O6 O 0.7853(4) 0.9270(5) -0.0789(2) 0.0770 Uani
O7 O 0.3229(4) 1.1479(4) 0.15292(16) 0.0540 Uani
H12 H 0.2715 1.1400 0.1505 0.0640 Uiso
C16B C 0.2489(8) 0.5637(8) 0.1684(5) 0.0860 Uani
H8B H 0.2824 0.5200 0.1602 0.1030 Uiso
C17B C 0.2815(9) 0.6401(9) 0.1652(5) 0.1043 Uani
H9B H 0.3347 0.6477 0.1548 0.1250 Uiso
C18B C 0.2337(7) 0.7067(7) 0.1778(4) 0.0747 Uani
C19B C 0.1547(7) 0.6878(7) 0.1916(4) 0.0833 Uani
H10B H 0.1186 0.7294 0.1998 0.1000 Uiso
C20B C 0.1311(7) 0.6092(8) 0.1929(4) 0.0860 Uani
H11B H 0.0780 0.5988 0.2026 0.1030 Uiso
N1B N 0.1756(6) 0.5457(6) 0.1819(3) 0.0737 Uani
Zn1B Zn 0.12421(7) 0.38783(8) 0.10042(3) 0.0582 Uani
Zn2B Zn 0.13804(7) 0.40979(9) 0.20367(4) 0.0645 Uani
C1B C -0.0921(6) 0.4934(6) 0.1536(3) 0.0527 Uani
C2B C -0.1289(6) 0.5170(6) 0.1931(3) 0.0530 Uani
H1B H -0.0988 0.5135 0.2189 0.0630 Uiso
C3B C -0.2074(6) 0.5448(6) 0.1944(3) 0.0543 Uani
C4B C -0.2541(6) 0.5450(7) 0.1554(3) 0.0563 Uani
H2B H -0.3091 0.5604 0.1564 0.0680 Uiso
C5B C -0.2194(6) 0.5225(6) 0.1156(3) 0.0560 Uani
C6B C -0.1387(6) 0.4972(6) 0.1155(3) 0.0563 Uani
H3B H -0.1145 0.4822 0.0891 0.0670 Uiso
C7B C -0.2697(6) 0.5176(7) 0.0747(3) 0.0630 Uani
C8B C -0.2359(6) 0.5385(7) 0.0343(3) 0.0587 Uani
H4B H -0.1821 0.5577 0.0331 0.0700 Uiso
C9B C -0.2802(6) 0.5316(6) -0.0038(3) 0.0587 Uani
C10B C -0.3617(7) 0.5054(7) -0.0025(3) 0.0677 Uani
H5B H -0.3928 0.5028 -0.0280 0.0810 Uiso
C11B C -0.3956(6) 0.4834(8) 0.0370(3) 0.0710 Uani
H6B H -0.4489 0.4629 0.0380 0.0850 Uiso
C12B C -0.3506(6) 0.4916(7) 0.0757(3) 0.0673 Uani
H7B H -0.3754 0.4795 0.1023 0.0800 Uiso
C13B C -0.0075(6) 0.4605(6) 0.1539(3) 0.0513 Uani
C14B C -0.2484(6) 0.5664(6) 0.2364(3) 0.0560 Uani
C15B C -0.2433(6) 0.5572(6) -0.0463(3) 0.0617 Uani
O1B O 0.0268(4) 0.4502(5) 0.11697(19) 0.0657 Uani
O2B O 0.0236(4) 0.4449(4) 0.19036(19) 0.0610 Uani
O3B O -0.2082(5) 0.5892(5) 0.2689(2) 0.0687 Uani
O4B O -0.3260(4) 0.5588(5) 0.23755(19) 0.0640 Uani
O5B O -0.1659(4) 0.5613(5) -0.04752(19) 0.0667 Uani
O6B O -0.2853(4) 0.5730(5) -0.0789(2) 0.0770 Uani
O7B O 0.1771(4) 0.3521(4) 0.15292(16) 0.0540 Uani
H12B H 0.2285 0.3600 0.1505 0.0640 Uiso
Zn1H Zn 0.62421(7) 0.88783(8) -0.10042(3) 0.0582 Uani
Zn1I Zn -0.38783(8) 0.62421(7) -0.10042(3) 0.0582 Uani
Zn1J Zn -0.12421(7) 0.61217(8) -0.10042(3) 0.0582 Uani
Zn1K Zn 0.88783(8) 0.87579(7) -0.10042(3) 0.0582 Uani
Zn2D Zn 0.86196(7) 0.90979(9) 0.29633(4) 0.0645 Uani
Zn2E Zn -0.36196(7) 0.59021(9) 0.29633(4) 0.0645 Uani
Zn2F Zn 0.59021(9) 0.86196(7) 0.29633(4) 0.0645 Uani
Zn2G Zn -0.09021(9) 0.63804(7) 0.29633(4) 0.0645 Uani
O3F O 0.4108(5) 1.2082(5) 0.2311(2) 0.0687 Uani
O3G O 0.0892(5) 0.2918(5) 0.2311(2) 0.0687 Uani
O4D O 0.3260(4) 1.0588(5) 0.26245(19) 0.0640 Uani
O4E O 0.1740(4) 0.4412(5) 0.26245(19) 0.0640 Uani
O5H O 0.3341(4) 1.0613(5) 0.04752(19) 0.0667 Uani
O5J O 0.1659(4) 0.4387(5) 0.04752(19) 0.0667 Uani
O6I O 0.4270(5) 1.2147(4) 0.0789(2) 0.0770 Uani
O6K O 0.0730(5) 0.2853(4) 0.0789(2) 0.0770 Uani
loop_
_atom_site_aniso_label
_atom_site_aniso_U_11
_atom_site_aniso_U_22
_atom_site_aniso_U_33
_atom_site_aniso_U_23
_atom_site_aniso_U_13
_atom_site_aniso_U_12
Zn1 0.0601(8) 0.0680(9) 0.0465(7) -0.0039(5) -0.0036(5) 0.0053(5)
Zn2 0.0597(8) 0.0837(10) 0.0502(7) 0.0119(6) 0.0056(5) 0.0106(6)
C1 0.055(6) 0.052(6) 0.051(5) 0.000(4) -0.002(4) 0.003(4)
C2 0.056(6) 0.058(6) 0.045(4) -0.002(4) 0.004(4) 0.005(4)
C3 0.051(6) 0.060(6) 0.052(5) 0.011(4) 0.001(4) 0.000(5)
C4 0.044(5) 0.066(6) 0.059(5) -0.007(5) -0.004(4) 0.010(5)
C5 0.057(6) 0.065(6) 0.046(5) -0.003(4) -0.002(4) 0.008(5)
C6 0.058(6) 0.051(6) 0.060(5) 0.004(4) -0.005(5) 0.006(4)
C7 0.059(6) 0.076(7) 0.054(5) -0.001(5) -0.001(4) 0.013(5)
C8 0.049(5) 0.076(7) 0.051(5) 0.001(5) 0.004(4) 0.006(5)
C9 0.056(6) 0.065(6) 0.055(5) -0.007(5) 0.004(4) 0.009(5)
C10 0.072(7) 0.084(8) 0.047(5) 0.000(5) 0.015(5) -0.006(6)
C11 0.054(6) 0.104(9) 0.055(6) -0.001(5) 0.008(5) -0.014(6)
C12 0.060(7) 0.086(8) 0.056(5) -0.007(5) -0.011(5) -0.004(6)
C13 0.057(6) 0.041(5) 0.056(5) 0.005(4) -0.002(5) -0.008(4)
C14 0.063(7) 0.056(6) 0.049(5) -0.003(4) -0.004(5) -0.001(5)
C15 0.056(6) 0.072(7) 0.057(5) 0.002(5) 0.001(5) -0.008(5)
C16 0.068(8) 0.066(8) 0.124(9) -0.003(7) 0.002(7) 0.010(6)
C17 0.083(9) 0.087(10) 0.143(12) -0.008(8) -0.032(8) 0.028(8)
C18 0.066(7) 0.079(7) 0.079(7) -0.011(6) 0.004(6) 0.010(6)
C19 0.070(8) 0.070(8) 0.110(9) 0.023(7) -0.014(6) 0.003(6)
C20 0.054(7) 0.088(9) 0.116(9) 0.027(7) -0.010(6) -0.010(6)
N1 0.064(6) 0.079(6) 0.078(5) 0.006(5) 0.001(5) 0.004(5)
O1 0.061(4) 0.086(5) 0.050(3) 0.004(3) -0.004(3) 0.014(4)
O2 0.052(4) 0.080(5) 0.051(3) -0.001(3) 0.000(3) 0.012(3)
O3 0.069(5) 0.084(5) 0.053(4) 0.009(3) -0.004(3) -0.004(4)
O4 0.055(4) 0.084(5) 0.053(4) 0.002(3) -0.002(3) 0.012(4)
O5 0.055(4) 0.099(5) 0.046(3) -0.010(3) -0.001(3) -0.007(4)
O6 0.060(4) 0.116(6) 0.055(4) -0.017(4) 0.004(4) 0.006(4)
O7 0.051(4) 0.062(4) 0.049(3) -0.001(3) -0.003(3) 0.002(3)
C16B 0.068 0.066 0.124 0.003 -0.002 0.01
C17B 0.083 0.087 0.143 0.008 0.032 0.028
C18B 0.066 0.079 0.079 0.011 -0.004 0.01
C19B 0.07 0.07 0.11 -0.023 0.014 0.003
C20B 0.054 0.088 0.116 -0.027 0.01 -0.01
N1B 0.064 0.079 0.078 -0.006 -0.001 0.004
Zn1B 0.0601 0.068 0.0465 0.0039 0.0036 0.0053
Zn2B 0.0597 0.0837 0.0502 -0.0119 -0.0056 0.0106
C1B 0.055 0.052 0.051 0 0.002 0.003
C2B 0.056 0.058 0.045 0.002 -0.004 0.005
C3B 0.051 0.06 0.052 -0.011 -0.001 0
C4B 0.044 0.066 0.059 0.007 0.004 0.01
C5B 0.057 0.065 0.046 0.003 0.002 0.008
C6B 0.058 0.051 0.06 -0.004 0.005 0.006
C7B 0.059 0.076 0.054 0.001 0.001 0.013
C8B 0.049 0.076 0.051 -0.001 -0.004 0.006
C9B 0.056 0.065 0.055 0.007 -0.004 0.009
C10B 0.072 0.084 0.047 0 -0.015 -0.006
C11B 0.054 0.104 0.055 0.001 -0.008 -0.014
C12B 0.06 0.086 0.056 0.007 0.011 -0.004
C13B 0.057 0.041 0.056 -0.005 0.002 -0.008
C14B 0.063 0.056 0.049 0.003 0.004 -0.001
C15B 0.056 0.072 0.057 -0.002 -0.001 -0.008
O1B 0.061 0.086 0.05 -0.004 0.004 0.014
O2B 0.052 0.08 0.051 0.001 0 0.012
O3B 0.069 0.084 0.053 -0.009 0.004 -0.004
O4B 0.055 0.084 0.053 -0.002 0.002 0.012
O5B 0.055 0.099 0.046 0.01 0.001 -0.007
O6B 0.06 0.116 0.055 0.017 -0.004 0.006
O7B 0.051 0.062 0.049 0.001 0.003 0.002
Zn1H 0.0601 0.068 0.0465 -0.0039 -0.0036 0.0053
Zn1I 0.068 0.0601 0.0465 -0.0036 0.0039 -0.0053
Zn1J 0.0601 0.068 0.0465 0.0039 0.0036 0.0053
Zn1K 0.068 0.0601 0.0465 0.0036 -0.0039 -0.0053
Zn2D 0.0597 0.0837 0.0502 0.0119 -0.0056 -0.0106
Zn2E 0.0597 0.0837 0.0502 -0.0119 0.0056 -0.0106
Zn2F 0.0837 0.0597 0.0502 -0.0056 -0.0119 0.0106
Zn2G 0.0837 0.0597 0.0502 0.0056 0.0119 0.0106
O3F 0.084 0.069 0.053 0.004 -0.009 -0.004
O3G 0.084 0.069 0.053 -0.004 0.009 -0.004
O4D 0.055 0.084 0.053 0.002 0.002 -0.012
O4E 0.055 0.084 0.053 -0.002 -0.002 -0.012
O5H 0.055 0.099 0.046 -0.01 -0.001 -0.007
O5J 0.055 0.099 0.046 0.01 0.001 -0.007
O6I 0.116 0.06 0.055 0.004 0.017 -0.006
O6K 0.116 0.06 0.055 -0.004 -0.017 -0.006
loop_
_geom_bond_atom_site_label_1
_geom_bond_atom_site_label_2
_geom_bond_site_symmetry_1
_geom_bond_site_symmetry_2
Zn1 O1 1_555 1_555
Zn2 N1 1_555 1_555
C1 C2 1_555 1_555
C2 H1 1_555 1_555
C3 C2 1_555 1_555
C4 C3 1_555 1_555
H2 C4 1_555 1_555
C5 C4 1_555 1_555
C6 C1 1_555 1_555
H3 C6 1_555 1_555
C7 C5 1_555 1_555
C8 C7 1_555 1_555
H4 C8 1_555 1_555
C9 C8 1_555 1_555
C10 C9 1_555 1_555
H5 C10 1_555 1_555
C11 C10 1_555 1_555
H6 C11 1_555 1_555
C12 C7 1_555 1_555
H7 C12 1_555 1_555
C13 C1 1_555 1_555
C14 C3 1_555 1_555
C15 C9 1_555 1_555
C16 H8 1_555 1_555
C17 C16 1_555 1_555
H9 C17 1_555 1_555
C18 C17 1_555 1_555
C19 C18 1_555 1_555
H10 C19 1_555 1_555
C20 C19 1_555 1_555
H11 C20 1_555 1_555
N1 C16 1_555 1_555
O1 C13 1_555 1_555
O2 Zn2 1_555 1_555
O3 C14 1_555 1_555
O4 C14 1_555 1_555
O5 C15 1_555 1_555
O6 C15 1_555 1_555
O7 Zn1 1_555 1_555
H12 O7 1_555 1_555
C16B H8B 1_555 1_555
C17B C16B 1_555 1_555
H9B C17B 1_555 1_555
C18B C18 1_555 1_555
C19B C18B 1_555 1_555
H10B C19B 1_555 1_555
C20B C19B 1_555 1_555
H11B C20B 1_555 1_555
N1B C16B 1_555 1_555
Zn1B O1B 1_555 1_555
Zn2B N1B 1_555 1_555
C1B C2B 1_555 1_555
C2B H1B 1_555 1_555
C3B C2B 1_555 1_555
C4B C3B 1_555 1_555
H2B C4B 1_555 1_555
C5B C4B 1_555 1_555
C6B C1B 1_555 1_555
H3B C6B 1_555 1_555
C7B C5B 1_555 1_555
C8B C7B 1_555 1_555
H4B C8B 1_555 1_555
C9B C8B 1_555 1_555
C10B C9B 1_555 1_555
H5B C10B 1_555 1_555
C11B C10B 1_555 1_555
H6B C11B 1_555 1_555
C12B C7B 1_555 1_555
H7B C12B 1_555 1_555
C13B C1B 1_555 1_555
C14B C3B 1_555 1_555
C15B C9B 1_555 1_555
O1B C13B 1_555 1_555
O2B Zn2B 1_555 1_555
O3B C14B 1_555 1_555
O4B C14B 1_555 1_555
O5B C15B 1_555 1_555
O6B C15B 1_555 1_555
O7B Zn1B 1_555 1_555
H12B O7B 1_555 1_555
Zn1H O5 1_555 1_555
Zn1I O6B 1_555 1_555
Zn1J O5B 1_555 1_555
Zn1K O6 1_555 1_555
Zn2D O4 1_555 1_555
Zn2E O4B 1_555 1_555
Zn2F O3 1_555 1_555
Zn2G O3B 1_555 1_555
O3F Zn2 1_555 1_555
O3G Zn2B 1_555 1_555
O4D Zn2 1_555 1_555
O4E Zn2B 1_555 1_555
O5H Zn1 1_555 1_555
O5J Zn1B 1_555 1_555
O6I Zn1 1_555 1_555
O6K Zn1B 1_555 1_555
Zn2 O7 1_555 1_555
C5 C6 1_555 1_555
C11 C12 1_555 1_555
C13 O2 1_555 1_555
C20 N1 1_555 1_555
C17B C18B 1_555 1_555
C20B N1B 1_555 1_555
Zn2B O7B 1_555 1_555
C5B C6B 1_555 1_555
C11B C12B 1_555 1_555
C13B O2B 1_555 1_555

#END
