
#######################################################################
#
#                 Cambridge Crystallographic Data Centre
#                                CCDC 
#
#######################################################################
#
# If this CIF has been generated from an entry in the Cambridge 
# Structural Database, then it will include bibliographic, chemical, 
# crystal, experimental, refinement or atomic coordinate data resulting 
# from the CCDC's data processing and validation procedures.
#
#######################################################################

data_PEVBUP
_chemical_formula_moiety         'C122 H63 Cu25 N81'
_symmetry_cell_setting           tetragonal
_symmetry_space_group_name_H-M   'P 42/n'
_symmetry_Int_Tables_number      86
_space_group_name_Hall           '-P 4bc'
loop_
_symmetry_equiv_pos_site_id
_symmetry_equiv_pos_as_xyz
1 x,y,z
2 1/2-x,1/2-y,z
3 -y,1/2+x,1/2+z
4 1/2+y,-x,1/2+z
5 -x,-y,-z
6 1/2+x,1/2+y,-z
7 y,1/2-x,1/2-z
8 1/2-y,x,1/2-z
_cell_length_a                   22.773(3)
_cell_length_b                   22.773(3)
_cell_length_c                   12.668(3)
_cell_angle_alpha                90
_cell_angle_beta                 90
_cell_angle_gamma                90
_cell_volume                     6569.75
loop_
_atom_site_label
_atom_site_type_symbol
_atom_site_fract_x
_atom_site_fract_y
_atom_site_fract_z
N21 N 0.7500 0.2500 0.2441(10)
C30 C 0.7500 0.2500 0.4465(12)
C31 C 0.7500 0.2500 0.3317(11)
Cu1 Cu 0.7500 0.7500 0.2500
Cu2 Cu 0.71090(2) 0.58873(3) 0.41497(4)
Cu3 Cu 0.54563(4) 0.63252(3) 0.25894(5)
Cu4 Cu 0.55784(4) 0.18421(4) 0.16905(7)
Cu5 Cu 0.5000 0.0000 0.0000
Cu6 Cu 0.62092(6) 0.37015(4) 0.01178(8)
N1 N 0.71406(16) 0.58872(18) 0.5725(3)
N2 N 0.62873(15) 0.61195(16) 0.4516(3)
N3 N 0.57898(15) 0.62803(16) 0.4023(3)
N4 N 0.56147(16) 0.62989(17) 0.5780(3)
N5 N 0.47006(16) 0.65777(16) 0.3457(3)
N6 N 0.3825(2) 0.6822(2) 0.4937(4)
N7 N 0.79542(15) 0.57176(16) 0.4414(3)
N8 N 0.86999(16) 0.56782(17) 0.5575(3)
N9 N 0.84509(15) 0.56634(16) 0.3848(3)
N10 N 0.95290(17) 0.53878(18) 0.3176(3)
N11 N 1.05235(16) 0.56107(17) 0.4394(3)
N12 N 0.7500 0.7500 0.0943(4)
N13 N 0.72610(16) 0.66112(15) 0.2172(3)
N14 N 0.71531(14) 0.60916(16) 0.2636(2)
N15 N 0.71578(18) 0.59371(16) 0.0887(3)
H1 H 0.7137 0.5774 0.0275
N16 N 0.69368(16) 0.49554(18) 0.3138(3)
N17 N 0.67912(19) 0.41022(18) 0.1575(3)
C1 C 0.5731(3) 0.2583(2) 0.1045(4)
N18 N 0.5211(2) 0.0724(2) 0.0535(4)
N19 N 0.6587(3) 0.4069(2) -0.1067(5)
C2 C 0.76454(19) 0.5762(2) 0.6208(3)
C3 C 0.7671(2) 0.5682(2) 0.7289(3)
H2 H 0.8023 0.5594 0.7625
C4 C 0.7153(2) 0.5738(2) 0.7853(3)
H3 H 0.7155 0.5666 0.8575
C5 C 0.6626(2) 0.5900(2) 0.7362(3)
H4 H 0.6282 0.5955 0.7745
C6 C 0.66450(19) 0.5975(2) 0.6266(3)
C7 C 0.61629(19) 0.6132(2) 0.5562(3)
C8 C 0.53997(19) 0.63831(19) 0.4795(3)
C9 C 0.48056(19) 0.65611(19) 0.4507(3)
C10 C 0.4364(2) 0.6691(2) 0.5231(4)
H5 H 0.4453 0.6684 0.5948
C11 C 0.3719(2) 0.6819(2) 0.3907(5)
H6 H 0.3339 0.6892 0.3673
C12 C 0.4152(2) 0.6711(2) 0.3171(4)
H7 H 0.4059 0.6731 0.2457
C13 C 0.81212(19) 0.5720(2) 0.5434(3)
C14 C 0.88885(18) 0.56406(18) 0.4558(3)
C15 C 0.94862(18) 0.55727(18) 0.4185(3)
C16 C 1.0075(2) 0.5302(2) 0.2810(4)
H8 H 1.0124 0.5170 0.2120
C17 C 1.0563(2) 0.5401(2) 0.3414(4)
H9 H 1.0932 0.5319 0.3135
C18 C 0.99864(19) 0.5692(2) 0.4779(3)
H10 H 0.9944 0.5833 0.5464
C19 C 0.7379(3) 0.6998(2) 0.0443(4)
C20 C 0.7383(7) 0.6983(3) -0.0631(5)
H11 H 0.7300 0.6613 -0.0997
C21 C 0.7747(6) 0.7445(6) -0.1166(7)
H12 H 0.7995 0.7389 -0.1790
C22 C 0.7261(2) 0.65003(19) 0.1139(3)
C23 C 0.70948(18) 0.56965(19) 0.1853(3)
C24 C 0.69803(18) 0.50885(19) 0.2107(3)
C25 C 0.69201(19) 0.4659(2) 0.1345(4)
H13 H 0.6972 0.4762 0.0640
C26 C 0.6750(2) 0.3978(2) 0.2596(4)
H14 H 0.6662 0.3595 0.2796
C27 C 0.6834(2) 0.4393(2) 0.3367(4)
H15 H 0.6818 0.4279 0.4071
N20 N 0.5890(3) 0.2999(3) 0.0690(4)
C28 C 0.5331(2) 0.1159(2) 0.0931(4)
C29 C 0.6730(3) 0.4256(3) -0.1822(4)
N13A N 0.77390(16) 0.83888(15) 0.2172(3)
N14A N 0.78469(14) 0.89084(16) 0.2636(2)
N15A N 0.78422(18) 0.90629(16) 0.0887(3)
H1A H 0.7863 0.9226 0.0275
N16A N 0.80632(16) 1.00446(18) 0.3138(3)
N17A N 0.82088(19) 1.08978(18) 0.1575(3)
C19A C 0.7621(3) 0.8002(2) 0.0443(4)
C20A C 0.7617(7) 0.8017(3) -0.0631(5)
H11A H 0.7700 0.8387 -0.0997
C21A C 0.7253(6) 0.7555(6) -0.1166(7)
H12A H 0.7005 0.7611 -0.1790
C22A C 0.7739(2) 0.84997(19) 0.1139(3)
C23A C 0.79052(18) 0.93035(19) 0.1853(3)
C24A C 0.80197(18) 0.99115(19) 0.2107(3)
C25A C 0.80799(19) 1.0341(2) 0.1345(4)
H13A H 0.8028 1.0238 0.0640
C26A C 0.8250(2) 1.1022(2) 0.2596(4)
H14A H 0.8338 1.1405 0.2796
C27A C 0.8166(2) 1.0607(2) 0.3367(4)
H15A H 0.8182 1.0721 0.4071
Cu2A Cu 0.78910(2) 0.91127(3) 0.41497(4)
Cu3A Cu 0.95437(4) 0.86748(3) 0.25894(5)
Cu4A Cu 0.94216(4) 1.31579(4) 0.16905(7)
Cu5A Cu 1.0000 1.5000 0.0000
Cu6A Cu 0.87908(6) 1.12985(4) 0.01178(8)
N1A N 0.78594(16) 0.91128(18) 0.5725(3)
N2A N 0.87127(15) 0.88805(16) 0.4516(3)
N3A N 0.92102(15) 0.87197(16) 0.4023(3)
N4A N 0.93853(16) 0.87011(17) 0.5780(3)
N5A N 1.02994(16) 0.84223(16) 0.3457(3)
N6A N 1.1175(2) 0.8178(2) 0.4937(4)
N7A N 0.70458(15) 0.92824(16) 0.4414(3)
N8A N 0.63001(16) 0.93218(17) 0.5575(3)
N9A N 0.65491(15) 0.93366(16) 0.3848(3)
N10A N 0.54710(17) 0.96122(18) 0.3176(3)
N11A N 0.44765(16) 0.93893(17) 0.4394(3)
C1A C 0.9269(3) 1.2417(2) 0.1045(4)
N18A N 0.9789(2) 1.4276(2) 0.0535(4)
N19A N 0.8413(3) 1.0931(2) -0.1067(5)
C2A C 0.73546(19) 0.9238(2) 0.6208(3)
C3A C 0.7329(2) 0.9318(2) 0.7289(3)
H2A H 0.6977 0.9406 0.7625
C4A C 0.7847(2) 0.9262(2) 0.7853(3)
H3A H 0.7845 0.9334 0.8575
C5A C 0.8374(2) 0.9100(2) 0.7362(3)
H4A H 0.8718 0.9045 0.7745
C6A C 0.83550(19) 0.9025(2) 0.6266(3)
C7A C 0.88371(19) 0.8868(2) 0.5562(3)
C8A C 0.96003(19) 0.86169(19) 0.4795(3)
C9A C 1.01944(19) 0.84389(19) 0.4507(3)
C10A C 1.0636(2) 0.8309(2) 0.5231(4)
H5A H 1.0547 0.8316 0.5948
C11A C 1.1281(2) 0.8181(2) 0.3907(5)
H6A H 1.1661 0.8108 0.3673
C12A C 1.0848(2) 0.8289(2) 0.3171(4)
H7A H 1.0941 0.8269 0.2457
C13A C 0.68788(19) 0.9280(2) 0.5434(3)
C14A C 0.61115(18) 0.93594(18) 0.4558(3)
C15A C 0.55138(18) 0.94273(18) 0.4185(3)
C16A C 0.4925(2) 0.9698(2) 0.2810(4)
H8A H 0.4876 0.9830 0.2120
C17A C 0.4437(2) 0.9599(2) 0.3414(4)
H9A H 0.4068 0.9681 0.3135
C18A C 0.50136(19) 0.9308(2) 0.4779(3)
H10A H 0.5056 0.9167 0.5464
N20A N 0.9110(3) 1.2001(3) 0.0690(4)
C28A C 0.9669(2) 1.3841(2) 0.0931(4)
C29A C 0.8270(3) 1.0744(3) -0.1822(4)
Cu2F Cu 0.58873(3) 0.78910(2) 0.08503(4)
Cu3F Cu 0.63252(3) 0.95437(4) 0.24106(5)
Cu4F Cu 0.18421(4) 0.94216(4) 0.33095(7)
Cu6F Cu 0.37015(4) 0.87908(6) 0.48822(8)
N1F N 0.58872(18) 0.78594(16) -0.0725(3)
N2F N 0.61195(16) 0.87127(15) 0.0484(3)
N3F N 0.62803(16) 0.92102(15) 0.0977(3)
N4F N 0.62989(17) 0.93853(16) -0.0780(3)
N5F N 0.65777(16) 1.02994(16) 0.1543(3)
N6F N 0.6822(2) 1.1175(2) 0.0063(4)
N7F N 0.57176(16) 0.70458(15) 0.0586(3)
N8F N 0.56782(17) 0.63001(16) -0.0575(3)
N9F N 0.56634(16) 0.65491(15) 0.1152(3)
N10F N 0.53878(18) 0.54710(17) 0.1824(3)
N11F N 0.56107(17) 0.44765(16) 0.0606(3)
N12F N 0.7500 0.7500 0.4057(4)
N13F N 0.66112(15) 0.77390(16) 0.2828(3)
N14F N 0.60916(16) 0.78469(14) 0.2364(2)
N15F N 0.59371(16) 0.78422(18) 0.4113(3)
H1F H 0.5774 0.7863 0.4725
N16F N 0.49554(18) 0.80632(16) 0.1862(3)
N17F N 0.41022(18) 0.82088(19) 0.3425(3)
C1F C 0.2583(2) 0.9269(3) 0.3955(4)
N18F N 0.0724(2) 0.9789(2) 0.4465(4)
N19F N 0.4069(2) 0.8413(3) 0.6067(5)
C2F C 0.5762(2) 0.73546(19) -0.1208(3)
C3F C 0.5682(2) 0.7329(2) -0.2289(3)
H2F H 0.5594 0.6977 -0.2625
C4F C 0.5738(2) 0.7847(2) -0.2853(3)
H3F H 0.5666 0.7845 -0.3575
C5F C 0.5900(2) 0.8374(2) -0.2362(3)
H4F H 0.5955 0.8718 -0.2745
C6F C 0.5975(2) 0.83550(19) -0.1266(3)
C7F C 0.6132(2) 0.88371(19) -0.0562(3)
C8F C 0.63831(19) 0.96003(19) 0.0205(3)
C9F C 0.65611(19) 1.01944(19) 0.0493(3)
C10F C 0.6691(2) 1.0636(2) -0.0231(4)
H5F H 0.6684 1.0547 -0.0948
C11F C 0.6819(2) 1.1281(2) 0.1093(5)
H6F H 0.6892 1.1661 0.1327
C12F C 0.6711(2) 1.0848(2) 0.1829(4)
H7F H 0.6731 1.0941 0.2543
C13F C 0.5720(2) 0.68788(19) -0.0434(3)
C14F C 0.56406(18) 0.61115(18) 0.0442(3)
C15F C 0.55727(18) 0.55138(18) 0.0815(3)
C16F C 0.5302(2) 0.4925(2) 0.2190(4)
H8F H 0.5170 0.4876 0.2880
C17F C 0.5401(2) 0.4437(2) 0.1586(4)
H9F H 0.5319 0.4068 0.1865
C18F C 0.5692(2) 0.50136(19) 0.0221(3)
H10F H 0.5833 0.5056 -0.0464
C19F C 0.6998(2) 0.7621(3) 0.4557(4)
C20F C 0.6983(3) 0.7617(7) 0.5631(5)
H11F H 0.6613 0.7700 0.5997
C21F C 0.7445(6) 0.7253(6) 0.6166(7)
H12F H 0.7389 0.7005 0.6790
C22F C 0.65003(19) 0.7739(2) 0.3861(3)
C23F C 0.56965(19) 0.79052(18) 0.3147(3)
C24F C 0.50885(19) 0.80197(18) 0.2893(3)
C25F C 0.4659(2) 0.80799(19) 0.3655(4)
H13F H 0.4762 0.8028 0.4360
C26F C 0.3978(2) 0.8250(2) 0.2404(4)
H14F H 0.3595 0.8338 0.2204
C27F C 0.4393(2) 0.8166(2) 0.1633(4)
H15F H 0.4279 0.8182 0.0929
N20F N 0.2999(3) 0.9110(3) 0.4310(4)
C28F C 0.1159(2) 0.9669(2) 0.4069(4)
C29F C 0.4256(3) 0.8270(3) 0.6822(4)
N13G N 0.83888(15) 0.72610(16) 0.2828(3)
N14G N 0.89084(16) 0.71531(14) 0.2364(2)
N15G N 0.90629(16) 0.71578(18) 0.4113(3)
H1G H 0.9226 0.7137 0.4725
N16G N 1.00446(18) 0.69368(16) 0.1862(3)
N17G N 1.08978(18) 0.67912(19) 0.3425(3)
C19G C 0.8002(2) 0.7379(3) 0.4557(4)
C20G C 0.8017(3) 0.7383(7) 0.5631(5)
H11G H 0.8387 0.7300 0.5997
C21G C 0.7555(6) 0.7747(6) 0.6166(7)
H12G H 0.7611 0.7995 0.6790
C22G C 0.84997(19) 0.7261(2) 0.3861(3)
C23G C 0.93035(19) 0.70948(18) 0.3147(3)
C24G C 0.99115(19) 0.69803(18) 0.2893(3)
C25G C 1.0341(2) 0.69201(19) 0.3655(4)
H13G H 1.0238 0.6972 0.4360
C26G C 1.1022(2) 0.6750(2) 0.2404(4)
H14G H 1.1405 0.6662 0.2204
C27G C 1.0607(2) 0.6834(2) 0.1633(4)
H15G H 1.0721 0.6818 0.0929
Cu2G Cu 0.91127(3) 0.71090(2) 0.08503(4)
Cu3G Cu 0.86748(3) 0.54563(4) 0.24106(5)
Cu4G Cu 1.31579(4) 0.55784(4) 0.33095(7)
Cu6G Cu 1.12985(4) 0.62092(6) 0.48822(8)
N1G N 0.91128(18) 0.71406(16) -0.0725(3)
N2G N 0.88805(16) 0.62873(15) 0.0484(3)
N3G N 0.87197(16) 0.57898(15) 0.0977(3)
N4G N 0.87011(17) 0.56147(16) -0.0780(3)
N5G N 0.84223(16) 0.47006(16) 0.1543(3)
N6G N 0.8178(2) 0.3825(2) 0.0063(4)
N7G N 0.92824(16) 0.79542(15) 0.0586(3)
N8G N 0.93218(17) 0.86999(16) -0.0575(3)
N9G N 0.93366(16) 0.84509(15) 0.1152(3)
N10G N 0.96122(18) 0.95290(17) 0.1824(3)
N11G N 0.93893(17) 1.05235(16) 0.0606(3)
C1G C 1.2417(2) 0.5731(3) 0.3955(4)
N18G N 1.4276(2) 0.5211(2) 0.4465(4)
N19G N 1.0931(2) 0.6587(3) 0.6067(5)
C2G C 0.9238(2) 0.76454(19) -0.1208(3)
C3G C 0.9318(2) 0.7671(2) -0.2289(3)
H2G H 0.9406 0.8023 -0.2625
C4G C 0.9262(2) 0.7153(2) -0.2853(3)
H3G H 0.9334 0.7155 -0.3575
C5G C 0.9100(2) 0.6626(2) -0.2362(3)
H4G H 0.9045 0.6282 -0.2745
C6G C 0.9025(2) 0.66450(19) -0.1266(3)
C7G C 0.8868(2) 0.61629(19) -0.0562(3)
C8G C 0.86169(19) 0.53997(19) 0.0205(3)
C9G C 0.84389(19) 0.48056(19) 0.0493(3)
C10G C 0.8309(2) 0.4364(2) -0.0231(4)
H5G H 0.8316 0.4453 -0.0948
C11G C 0.8181(2) 0.3719(2) 0.1093(5)
H6G H 0.8108 0.3339 0.1327
C12G C 0.8289(2) 0.4152(2) 0.1829(4)
H7G H 0.8269 0.4059 0.2543
C13G C 0.9280(2) 0.81212(19) -0.0434(3)
C14G C 0.93594(18) 0.88885(18) 0.0442(3)
C15G C 0.94273(18) 0.94862(18) 0.0815(3)
C16G C 0.9698(2) 1.0075(2) 0.2190(4)
H8G H 0.9830 1.0124 0.2880
C17G C 0.9599(2) 1.0563(2) 0.1586(4)
H9G H 0.9681 1.0932 0.1865
C18G C 0.9308(2) 0.99864(19) 0.0221(3)
H10G H 0.9167 0.9944 -0.0464
N20G N 1.2001(3) 0.5890(3) 0.4310(4)
C28G C 1.3841(2) 0.5331(2) 0.4069(4)
C29G C 1.0744(3) 0.6730(3) 0.6822(4)
Cu4B Cu 0.81579(4) 1.05784(4) -0.33095(7)
Cu4C Cu 0.68421(4) 0.44216(4) -0.33095(7)
Cu4D Cu 0.44216(4) 0.81579(4) 0.83095(7)
Cu4E Cu 1.05784(4) 0.68421(4) 0.83095(7)
Cu5B Cu -0.0000 1.0000 0.5000
Cu5C Cu 1.5000 0.5000 0.5000
N18D N 0.4789(2) -0.0724(2) -0.0535(4)
N18E N 1.0211(2) 1.5724(2) -0.0535(4)
C29B C 0.5744(3) 0.1730(3) 0.3178(4)
C29C C 0.9256(3) 1.3270(3) 0.3178(4)
C29D C 1.3270(3) 0.5744(3) 0.1822(4)
C29E C 0.1730(3) 0.9256(3) 0.1822(4)
loop_
_geom_bond_atom_site_label_1
_geom_bond_atom_site_label_2
_geom_bond_site_symmetry_1
_geom_bond_site_symmetry_2
Cu1 N12 1_555 1_555
Cu2 N1 1_555 1_555
Cu3 N3 1_555 1_555
Cu4 C1 1_555 1_555
Cu5 N18 1_555 1_555
Cu6 N17 1_555 1_555
N1 C2 1_555 1_555
N2 Cu2 1_555 1_555
N3 N2 1_555 1_555
N4 C7 1_555 1_555
N5 Cu3 1_555 1_555
N6 C10 1_555 1_555
N7 Cu2 1_555 1_555
N8 C13 1_555 1_555
N9 N7 1_555 1_555
N10 C15 1_555 1_555
N11 C17 1_555 1_555
N12 C19 1_555 1_555
N13 Cu1 1_555 1_555
N14 Cu2 1_555 1_555
N15 H1 1_555 1_555
N16 Cu2 1_555 1_555
N17 C25 1_555 1_555
C1 N20 1_555 1_555
N18 C28 1_555 1_555
N19 Cu6 1_555 1_555
C2 C3 1_555 1_555
C3 H2 1_555 1_555
C4 C3 1_555 1_555
H3 C4 1_555 1_555
C5 C4 1_555 1_555
H4 C5 1_555 1_555
C6 N1 1_555 1_555
C7 N2 1_555 1_555
C8 N3 1_555 1_555
C9 N5 1_555 1_555
C10 C9 1_555 1_555
H5 C10 1_555 1_555
C11 N6 1_555 1_555
H6 C11 1_555 1_555
C12 N5 1_555 1_555
H7 C12 1_555 1_555
C13 N7 1_555 1_555
C14 N8 1_555 1_555
C15 C14 1_555 1_555
C16 N10 1_555 1_555
H8 C16 1_555 1_555
C17 C16 1_555 1_555
H9 C17 1_555 1_555
C18 N11 1_555 1_555
H10 C18 1_555 1_555
C19 C20 1_555 1_555
C20 H11 1_555 1_555
C21 C20 1_555 1_555
H12 C21 1_555 1_555
C22 N13 1_555 1_555
C23 N14 1_555 1_555
C24 N16 1_555 1_555
C25 C24 1_555 1_555
H13 C25 1_555 1_555
C26 N17 1_555 1_555
H14 C26 1_555 1_555
C27 N16 1_555 1_555
H15 C27 1_555 1_555
N20 Cu6 1_555 1_555
C28 Cu4 1_555 1_555
C29 N19 1_555 1_555
N21 C31 1_555 1_555
C30 C31 1_555 1_555
N13A Cu1 1_555 1_555
N14A N13A 1_555 1_555
N15A H1A 1_555 1_555
N16A C24A 1_555 1_555
N17A C25A 1_555 1_555
C19A N12 1_555 1_555
C20A C21 1_555 1_555
H11A C20A 1_555 1_555
C21A C20 1_555 1_555
H12A C21A 1_555 1_555
C22A N13A 1_555 1_555
C23A N14A 1_555 1_555
C24A C23A 1_555 1_555
C25A C24A 1_555 1_555
H13A C25A 1_555 1_555
C26A N17A 1_555 1_555
H14A C26A 1_555 1_555
C27A N16A 1_555 1_555
H15A C27A 1_555 1_555
Cu2A N14A 1_555 1_555
Cu3A N3A 1_555 1_555
Cu4A C1A 1_555 1_555
Cu5A N18A 1_555 1_555
Cu6A N17A 1_555 1_555
N1A Cu2A 1_555 1_555
N2A Cu2A 1_555 1_555
N3A N2A 1_555 1_555
N4A C7A 1_555 1_555
N5A Cu3A 1_555 1_555
N6A C10A 1_555 1_555
N7A Cu2A 1_555 1_555
N8A C13A 1_555 1_555
N9A N7A 1_555 1_555
N10A C15A 1_555 1_555
N11A C17A 1_555 1_555
C1A N20A 1_555 1_555
N18A C28A 1_555 1_555
N19A Cu6A 1_555 1_555
C2A N1A 1_555 1_555
C3A C2A 1_555 1_555
H2A C3A 1_555 1_555
C4A C3A 1_555 1_555
H3A C4A 1_555 1_555
C5A C4A 1_555 1_555
H4A C5A 1_555 1_555
C6A N1A 1_555 1_555
C7A N2A 1_555 1_555
C8A N3A 1_555 1_555
C9A N5A 1_555 1_555
C10A C9A 1_555 1_555
H5A C10A 1_555 1_555
C11A N6A 1_555 1_555
H6A C11A 1_555 1_555
C12A N5A 1_555 1_555
H7A C12A 1_555 1_555
C13A N7A 1_555 1_555
C14A N8A 1_555 1_555
C15A C14A 1_555 1_555
C16A N10A 1_555 1_555
H8A C16A 1_555 1_555
C17A C16A 1_555 1_555
H9A C17A 1_555 1_555
C18A N11A 1_555 1_555
H10A C18A 1_555 1_555
N20A Cu6A 1_555 1_555
C28A Cu4A 1_555 1_555
C29A N19A 1_555 1_555
Cu2F N1F 1_555 1_555
Cu3F N9A 1_555 1_555
Cu4F C1F 1_555 1_555
Cu6F N11A 1_555 1_555
N1F C2F 1_555 1_555
N2F Cu2F 1_555 1_555
N3F Cu3F 1_555 1_555
N4F C7F 1_555 1_555
N5F Cu3F 1_555 1_555
N6F C10F 1_555 1_555
N7F Cu2F 1_555 1_555
N8F C13F 1_555 1_555
N9F Cu3 1_555 1_555
N10F Cu3 1_555 1_555
N11F Cu6 1_555 1_555
N12F Cu1 1_555 1_555
N13F Cu1 1_555 1_555
N14F Cu2F 1_555 1_555
N15F H1F 1_555 1_555
N16F Cu2F 1_555 1_555
N17F Cu6F 1_555 1_555
C1F N20F 1_555 1_555
N18F C28F 1_555 1_555
N19F Cu6F 1_555 1_555
C2F C3F 1_555 1_555
C3F H2F 1_555 1_555
C4F C3F 1_555 1_555
H3F C4F 1_555 1_555
C5F C4F 1_555 1_555
H4F C5F 1_555 1_555
C6F N1F 1_555 1_555
C7F N2F 1_555 1_555
C8F N3F 1_555 1_555
C9F N5F 1_555 1_555
C10F C9F 1_555 1_555
H5F C10F 1_555 1_555
C11F N6F 1_555 1_555
H6F C11F 1_555 1_555
C12F N5F 1_555 1_555
H7F C12F 1_555 1_555
C13F N7F 1_555 1_555
C14F N8F 1_555 1_555
C15F N10F 1_555 1_555
C16F N10F 1_555 1_555
H8F C16F 1_555 1_555
C17F N11F 1_555 1_555
H9F C17F 1_555 1_555
C18F N11F 1_555 1_555
H10F C18F 1_555 1_555
C19F N12F 1_555 1_555
C20F C19F 1_555 1_555
H11F C20F 1_555 1_555
C21F C20F 1_555 1_555
H12F C21F 1_555 1_555
C22F N13F 1_555 1_555
C23F N14F 1_555 1_555
C24F N16F 1_555 1_555
C25F N17F 1_555 1_555
H13F C25F 1_555 1_555
C26F N17F 1_555 1_555
H14F C26F 1_555 1_555
C27F N16F 1_555 1_555
H15F C27F 1_555 1_555
N20F Cu6F 1_555 1_555
C28F Cu4F 1_555 1_555
C29F N19F 1_555 1_555
N13G Cu1 1_555 1_555
N14G N13G 1_555 1_555
N15G H1G 1_555 1_555
N16G C24G 1_555 1_555
N17G C25G 1_555 1_555
C19G N12F 1_555 1_555
C20G C21F 1_555 1_555
H11G C20G 1_555 1_555
C21G C20F 1_555 1_555
H12G C21G 1_555 1_555
C22G N13G 1_555 1_555
C23G N14G 1_555 1_555
C24G C23G 1_555 1_555
C25G C24G 1_555 1_555
H13G C25G 1_555 1_555
C26G N17G 1_555 1_555
H14G C26G 1_555 1_555
C27G N16G 1_555 1_555
H15G C27G 1_555 1_555
Cu2G N14G 1_555 1_555
Cu3G N9 1_555 1_555
Cu4G C1G 1_555 1_555
Cu6G N11 1_555 1_555
N1G Cu2G 1_555 1_555
N2G Cu2G 1_555 1_555
N3G Cu3G 1_555 1_555
N4G C7G 1_555 1_555
N5G Cu3G 1_555 1_555
N6G C10G 1_555 1_555
N7G Cu2G 1_555 1_555
N8G C13G 1_555 1_555
N9G Cu3A 1_555 1_555
N10G Cu3A 1_555 1_555
N11G Cu6A 1_555 1_555
C1G N20G 1_555 1_555
N18G C28G 1_555 1_555
N19G Cu6G 1_555 1_555
C2G N1G 1_555 1_555
C3G C2G 1_555 1_555
H2G C3G 1_555 1_555
C4G C3G 1_555 1_555
H3G C4G 1_555 1_555
C5G C4G 1_555 1_555
H4G C5G 1_555 1_555
C6G N1G 1_555 1_555
C7G N2G 1_555 1_555
C8G N3G 1_555 1_555
C9G N5G 1_555 1_555
C10G C9G 1_555 1_555
H5G C10G 1_555 1_555
C11G N6G 1_555 1_555
H6G C11G 1_555 1_555
C12G N5G 1_555 1_555
H7G C12G 1_555 1_555
C13G N7G 1_555 1_555
C14G N8G 1_555 1_555
C15G N10G 1_555 1_555
C16G N10G 1_555 1_555
H8G C16G 1_555 1_555
C17G N11G 1_555 1_555
H9G C17G 1_555 1_555
C18G N11G 1_555 1_555
H10G C18G 1_555 1_555
N20G Cu6G 1_555 1_555
C28G Cu4G 1_555 1_555
C29G N19G 1_555 1_555
Cu4B C29A 1_555 1_555
Cu4C C29 1_555 1_555
Cu4D C29F 1_555 1_555
Cu4E C29G 1_555 1_555
Cu5B N18F 1_555 1_555
Cu5C N18G 1_555 1_555
N18D Cu5 1_555 1_555
N18E Cu5A 1_555 1_555
C29B Cu4 1_555 1_555
C29C Cu4A 1_555 1_555
C29D Cu4G 1_555 1_555
C29E Cu4F 1_555 1_555
N4 C8 1_555 1_555
N9 C14 1_555 1_555
N10 Cu3G 1_555 1_555
N13 N14 1_555 1_555
N15 C22 1_555 1_555
N15 C23 1_555 1_555
C2 C13 1_555 1_555
C5 C6 1_555 1_555
C6 C7 1_555 1_555
C8 C9 1_555 1_555
C11 C12 1_555 1_555
C15 C18 1_555 1_555
C19 C22 1_555 1_555
C21 C21A 1_555 1_555
C23 C24 1_555 1_555
C26 C27 1_555 1_555
N15A C22A 1_555 1_555
N15A C23A 1_555 1_555
N16A Cu2A 1_555 1_555
C19A C20A 1_555 1_555
C19A C22A 1_555 1_555
C20A C21A 1_555 1_555
C26A C27A 1_555 1_555
N4A C8A 1_555 1_555
N9A C14A 1_555 1_555
N10A Cu3F 1_555 1_555
C2A C13A 1_555 1_555
C5A C6A 1_555 1_555
C6A C7A 1_555 1_555
C8A C9A 1_555 1_555
C11A C12A 1_555 1_555
C15A C18A 1_555 1_555
N2F N3F 1_555 1_555
N4F C8F 1_555 1_555
N7F N9F 1_555 1_555
N9F C14F 1_555 1_555
N13F N14F 1_555 1_555
N15F C22F 1_555 1_555
N15F C23F 1_555 1_555
C2F C13F 1_555 1_555
C5F C6F 1_555 1_555
C6F C7F 1_555 1_555
C8F C9F 1_555 1_555
C11F C12F 1_555 1_555
C14F C15F 1_555 1_555
C15F C18F 1_555 1_555
C16F C17F 1_555 1_555
C19F C22F 1_555 1_555
C21F C21G 1_555 1_555
C23F C24F 1_555 1_555
C24F C25F 1_555 1_555
C26F C27F 1_555 1_555
N15G C22G 1_555 1_555
N15G C23G 1_555 1_555
N16G Cu2G 1_555 1_555
N17G Cu6G 1_555 1_555
C19G C20G 1_555 1_555
C19G C22G 1_555 1_555
C20G C21G 1_555 1_555
C26G C27G 1_555 1_555
N2G N3G 1_555 1_555
N4G C8G 1_555 1_555
N7G N9G 1_555 1_555
N9G C14G 1_555 1_555
C2G C13G 1_555 1_555
C5G C6G 1_555 1_555
C6G C7G 1_555 1_555
C8G C9G 1_555 1_555
C11G C12G 1_555 1_555
C14G C15G 1_555 1_555
C15G C18G 1_555 1_555
C16G C17G 1_555 1_555

#END
