
#######################################################################
#
#                 Cambridge Crystallographic Data Centre
#                                CCDC 
#
#######################################################################
#
# If this CIF has been generated from an entry in the Cambridge 
# Structural Database, then it will include bibliographic, chemical, 
# crystal, experimental, refinement or atomic coordinate data resulting 
# from the CCDC's data processing and validation procedures.
#
#######################################################################

data_OMAXEG
_chemical_formula_moiety         '(C9 H6 Ag1 F3 N4 O5 S2)n'
_symmetry_cell_setting           orthorhombic
_symmetry_space_group_name_H-M   'P n a 21'
_symmetry_Int_Tables_number      33
_space_group_name_Hall           'P 2c -2n'
loop_
_symmetry_equiv_pos_site_id
_symmetry_equiv_pos_as_xyz
1 x,y,z
2 -x,-y,1/2+z
3 1/2+x,1/2-y,z
4 1/2-x,1/2+y,1/2+z
_cell_length_a                   12.178(5)
_cell_length_b                   8.010(3)
_cell_length_c                   14.622(6)
_cell_angle_alpha                90
_cell_angle_beta                 90
_cell_angle_gamma                90
_cell_volume                     1426.31
loop_
_atom_site_label
_atom_site_type_symbol
_atom_site_fract_x
_atom_site_fract_y
_atom_site_fract_z
_atom_site_U_iso_or_equiv
_atom_site_thermal_displace_type
Ag1 Ag 0.43148(6) 0.06437(9) 0.31881(5) 0.0565 Uani
S1 S 0.6896(2) 0.0581(3) 0.42348(16) 0.0424 Uani
O1 O 0.6557(7) 0.1622(8) 0.3500(5) 0.0603 Uani
O2 O 0.7943(6) 0.0831(9) 0.4653(6) 0.0617 Uani
N1 N 0.5356(7) 0.0382(10) 0.6647(6) 0.0480 Uani
N2 N 0.4825(6) 0.0761(9) 0.4782(6) 0.0413 Uani
N3 N 0.7673(7) -0.4073(9) 0.3485(6) 0.0500 Uani
N4 N 0.5855(6) -0.1944(9) 0.3486(5) 0.0447 Uani
C1 C 0.6135(9) 0.0456(12) 0.5984(7) 0.0450 Uani
H1 H 0.6871 0.0402 0.6151 0.0540 Uiso
C2 C 0.5876(8) 0.0603(10) 0.5100(7) 0.0430 Uani
C3 C 0.4059(8) 0.0685(11) 0.5457(7) 0.0460 Uani
H2 H 0.3321 0.0778 0.5303 0.0550 Uiso
C4 C 0.4336(9) 0.0478(13) 0.6348(8) 0.0523 Uani
H3 H 0.3772 0.0400 0.6775 0.0630 Uiso
C5 C 0.6821(7) -0.1472(11) 0.3839(6) 0.0363 Uani
C6 C 0.7724(8) -0.2541(11) 0.3865(6) 0.0437 Uani
H4 H 0.8370 -0.2194 0.4147 0.0530 Uiso
C7 C 0.6718(8) -0.4539(10) 0.3133(10) 0.0520 Uani
H5 H 0.6651 -0.5603 0.2884 0.0620 Uiso
C8 C 0.5815(7) -0.3476(11) 0.3125(8) 0.0450 Uani
H6 H 0.5163 -0.3843 0.2862 0.0540 Uiso
C9 C 0.4598(10) 0.4551(13) 0.0811(8) 0.0543 Uani
F1 F 0.5421(7) 0.5510(9) 0.1129(6) 0.0823 Uani
F2 F 0.4165(9) 0.5320(11) 0.0141(6) 0.1037 Uani
F3 F 0.5069(7) 0.3148(8) 0.0501(5) 0.0797 Uani
S2 S 0.3640(2) 0.4070(3) 0.1732(2) 0.0496 Uani
O3 O 0.4314(6) 0.3327(10) 0.2429(5) 0.0587 Uani
O4 O 0.3242(7) 0.5729(9) 0.1980(7) 0.0703 Uani
O5 O 0.2860(6) 0.3010(10) 0.1307(7) 0.0807 Uani
Ag1A Ag 0.56852(6) -0.06437(9) 0.81881(5) 0.0565 Uani
Ag1B Ag 0.93148(6) -0.56437(9) 0.31881(5) 0.0565 Uani
N1A N 0.4644(7) -0.0382(10) 0.1647(6) 0.0480 Uani
N3B N 0.2673(7) -0.0927(9) 0.3485(6) 0.0500 Uani
loop_
_atom_site_aniso_label
_atom_site_aniso_U_11
_atom_site_aniso_U_22
_atom_site_aniso_U_33
_atom_site_aniso_U_23
_atom_site_aniso_U_13
_atom_site_aniso_U_12
Ag1 0.0657(5) 0.0609(5) 0.0428(4) 0.0089(4) -0.0050(5) -0.0161(4)
S1 0.0514(13) 0.0308(10) 0.0450(11) -0.0007(9) 0.0028(11) -0.0057(9)
O1 0.084(5) 0.035(3) 0.062(4) 0.019(3) 0.013(4) 0.010(3)
O2 0.055(4) 0.063(5) 0.067(5) -0.019(4) 0.000(4) -0.023(4)
N1 0.056(5) 0.049(5) 0.039(4) -0.010(3) 0.002(4) -0.003(4)
N2 0.044(4) 0.033(4) 0.047(4) -0.003(3) -0.006(4) 0.003(3)
N3 0.050(5) 0.035(4) 0.065(5) -0.002(3) -0.002(4) 0.006(3)
N4 0.050(5) 0.040(4) 0.044(4) -0.011(3) -0.009(3) -0.003(3)
C1 0.046(5) 0.035(5) 0.054(6) -0.010(4) -0.006(5) 0.008(4)
C2 0.049(5) 0.023(4) 0.057(6) -0.002(4) 0.000(4) 0.003(4)
C3 0.044(5) 0.040(5) 0.054(6) -0.002(4) 0.001(4) 0.005(4)
C4 0.051(6) 0.052(6) 0.054(6) -0.008(5) 0.006(5) -0.002(5)
C5 0.034(5) 0.041(5) 0.034(4) 0.011(4) 0.001(3) -0.001(4)
C6 0.040(5) 0.036(5) 0.055(5) -0.003(4) 0.000(4) 0.006(4)
C7 0.073(6) 0.027(4) 0.056(5) 0.002(5) -0.024(7) 0.000(4)
C8 0.046(5) 0.043(4) 0.046(5) -0.014(5) -0.006(5) -0.008(4)
C9 0.079(8) 0.042(6) 0.042(6) -0.010(4) 0.009(5) 0.004(5)
F1 0.097(5) 0.078(6) 0.072(5) -0.018(4) 0.027(4) -0.040(4)
F2 0.182(10) 0.079(6) 0.050(4) 0.009(4) -0.021(5) 0.014(5)
F3 0.110(6) 0.048(4) 0.081(4) -0.014(3) 0.042(4) 0.003(4)
S2 0.0506(14) 0.0365(12) 0.0617(15) -0.0072(11) -0.0032(13) -0.0034(11)
O3 0.067(5) 0.057(5) 0.052(4) 0.012(3) -0.005(3) -0.011(4)
O4 0.078(5) 0.045(5) 0.088(6) -0.025(4) -0.003(5) 0.007(4)
O5 0.043(4) 0.063(5) 0.136(8) -0.038(5) -0.019(5) -0.012(4)
Ag1A 0.0657 0.0609 0.0428 -0.0089 0.005 -0.0161
Ag1B 0.0657 0.0609 0.0428 -0.0089 -0.005 0.0161
N1A 0.056 0.049 0.039 0.01 -0.002 -0.003
N3B 0.05 0.035 0.065 0.002 -0.002 -0.006
loop_
_geom_bond_atom_site_label_1
_geom_bond_atom_site_label_2
_geom_bond_site_symmetry_1
_geom_bond_site_symmetry_2
Ag1 N2 1_555 1_555
S1 O1 1_555 1_555
O2 S1 1_555 1_555
N1 C1 1_555 1_555
N2 C2 1_555 1_555
N3 C6 1_555 1_555
N4 C5 1_555 1_555
C1 H1 1_555 1_555
C2 S1 1_555 1_555
C3 N2 1_555 1_555
H2 C3 1_555 1_555
C4 N1 1_555 1_555
H3 C4 1_555 1_555
C5 S1 1_555 1_555
C6 C5 1_555 1_555
H4 C6 1_555 1_555
C7 N3 1_555 1_555
H5 C7 1_555 1_555
C8 N4 1_555 1_555
H6 C8 1_555 1_555
C9 F1 1_555 1_555
F2 C9 1_555 1_555
F3 C9 1_555 1_555
S2 C9 1_555 1_555
O3 Ag1 1_555 1_555
O4 S2 1_555 1_555
O5 S2 1_555 1_555
Ag1A N1 1_555 1_555
Ag1B N3 1_555 1_555
N1A Ag1 1_555 1_555
N3B Ag1 1_555 1_555
C1 C2 1_555 1_555
C3 C4 1_555 1_555
C7 C8 1_555 1_555
S2 O3 1_555 1_555

#END
