
#######################################################################
#
#                 Cambridge Crystallographic Data Centre
#                                CCDC 
#
#######################################################################
#
# If this CIF has been generated from an entry in the Cambridge 
# Structural Database, then it will include bibliographic, chemical, 
# crystal, experimental, refinement or atomic coordinate data resulting 
# from the CCDC's data processing and validation procedures.
#
#######################################################################

data_GITSUY01
_chemical_formula_moiety         '(C13 H14 N8 Zn2)n'
_symmetry_cell_setting           tetragonal
_symmetry_space_group_name_H-M   'I 4/m m m'
_symmetry_Int_Tables_number      139
_space_group_name_Hall           '-I 4 2'
loop_
_symmetry_equiv_pos_site_id
_symmetry_equiv_pos_as_xyz
1 x,y,z
2 -y,x,z
3 y,-x,z
4 y,x,-z
5 1/2+x,1/2+y,1/2+z
6 1/2-y,1/2+x,1/2+z
7 1/2+y,1/2-x,1/2+z
8 1/2+y,1/2+x,1/2-z
9 -x,-y,z
10 -x,y,-z
11 x,-y,-z
12 -y,-x,-z
13 1/2-x,1/2-y,1/2+z
14 1/2-x,1/2+y,1/2-z
15 1/2+x,1/2-y,1/2-z
16 1/2-y,1/2-x,1/2-z
17 -x,-y,-z
18 y,-x,-z
19 -y,x,-z
20 -y,-x,z
21 1/2-x,1/2-y,1/2-z
22 1/2+y,1/2-x,1/2-z
23 1/2-y,1/2+x,1/2-z
24 1/2-y,1/2-x,1/2+z
25 x,y,-z
26 x,-y,z
27 -x,y,z
28 y,x,z
29 1/2+x,1/2+y,1/2-z
30 1/2+x,1/2-y,1/2+z
31 1/2-x,1/2+y,1/2+z
32 1/2+y,1/2+x,1/2+z
_cell_length_a                   27.2448(3)
_cell_length_b                   27.2448(3)
_cell_length_c                   19.2254(3)
_cell_angle_alpha                90
_cell_angle_beta                 90
_cell_angle_gamma                90
_cell_volume                     14270.6
loop_
_atom_site_label
_atom_site_type_symbol
_atom_site_fract_x
_atom_site_fract_y
_atom_site_fract_z
_atom_site_U_iso_or_equiv
_atom_site_thermal_displace_type
C1 C 0.32761(9) 0.17239(9) 0.2500 0.0697 Uani
H1 H 0.3035 0.1965 0.2500 0.0840 Uiso
C2 C 0.26840(14) 0.0000 0.15375(18) 0.0703 Uani
H2 H 0.2962 0.0000 0.1258 0.0850 Uiso
C3 C 0.19216(12) 0.15707(13) 0.25057(17) 0.1057 Uani
H3 H 0.2022 0.1389 0.2890 0.1270 Uiso
C4 C 0.18696(9) 0.18696(9) 0.14937(18) 0.0644 Uani
H4 H 0.1940 0.1940 0.1031 0.0770 Uiso
C5 C 0.32537(13) 0.14526(15) 0.03371(15) 0.1207 Uani
H5 H 0.3492 0.1599 0.0615 0.1450 Uiso
C6 C 0.26180(13) 0.10696(13) 0.0000 0.0667 Uani
C7 C 0.2128(3) 0.0828(3) 0.0000 0.1717 Uani
C8 C 0.3605(2) 0.1016(3) 0.2383(4) 0.0673 Uiso
H9 H 0.3624 0.0675 0.2395 0.0810 Uiso
C11 C 0.2021(2) 0.02519(18) 0.1957(3) 0.1043 Uiso
H12 H 0.1759 0.0453 0.2081 0.1250 Uiso
N1 N 0.32310(7) 0.13072(7) 0.21525(10) 0.0657 Uani
N2 N 0.24863(9) 0.04080(7) 0.17361(12) 0.0722 Uani
N3 N 0.21037(8) 0.15284(8) 0.18442(11) 0.0698 Uani
N4 N 0.28501(8) 0.12040(7) 0.05792(11) 0.0663 Uani
Zn1 Zn 0.266497(12) 0.110258(11) 0.156537(16) 0.0595 Uani
C3AA C 0.15707(13) 0.19216(12) 0.25057(17) 0.1057 Uani
H3AA H 0.1389 0.2022 0.2890 0.1270 Uiso
C5X C 0.32537(13) 0.14526(15) -0.03371(15) 0.1207 Uani
H5X H 0.3492 0.1599 -0.0615 0.1450 Uiso
C8O C 0.3984(3) 0.1395(2) 0.2617(4) 0.0673 Uiso
H9O H 0.4325 0.1376 0.2605 0.0810 Uiso
C11Y C 0.2021(2) -0.02519(18) 0.1957(3) 0.1043 Uiso
H12Y H 0.1759 -0.0453 0.2081 0.1250 Uiso
N1O N 0.36928(7) 0.17690(7) 0.28475(10) 0.0657 Uani
N2Y N 0.24863(9) -0.04080(7) 0.17361(12) 0.0722 Uani
N2O N 0.45920(7) 0.25137(9) 0.32639(12) 0.0722 Uani
N3AA N 0.15284(8) 0.21037(8) 0.18442(11) 0.0698 Uani
N3O N 0.34716(8) 0.28963(8) 0.31558(11) 0.0698 Uani
N4X N 0.28501(8) 0.12040(7) -0.05792(11) 0.0663 Uani
N4O N 0.37960(7) 0.21499(8) 0.44208(11) 0.0663 Uani
Zn1O Zn 0.389742(11) 0.233503(12) 0.343463(16) 0.0595 Uani
Zn1Y Zn 0.266497(12) -0.110258(11) 0.156537(16) 0.0595 Uani
Zn1AA Zn 0.110258(11) 0.266497(12) 0.156537(16) 0.0595 Uani
Zn1X Zn 0.266497(12) 0.110258(11) -0.156537(16) 0.0595 Uani
loop_
_atom_site_aniso_label
_atom_site_aniso_U_11
_atom_site_aniso_U_22
_atom_site_aniso_U_33
_atom_site_aniso_U_23
_atom_site_aniso_U_13
_atom_site_aniso_U_12
C1 0.0631(13) 0.0631(13) 0.083(2) -0.0136(14) -0.0136(14) 0.0109(16)
C2 0.075(2) 0.055(2) 0.081(3) 0.000 0.0146(18) 0.000
C3 0.129(3) 0.111(2) 0.077(2) 0.0154(18) 0.0015(19) 0.0500(19)
C4 0.0646(14) 0.0646(14) 0.064(2) -0.0003(12) -0.0003(12) 0.0095(18)
C5 0.106(3) 0.173(4) 0.083(2) 0.002(2) -0.0173(17) -0.064(2)
C6 0.073(2) 0.065(2) 0.062(2) 0.000 0.000 -0.0119(17)
C7 0.152(6) 0.252(9) 0.111(5) 0.000 0.000 -0.042(6)
N1 0.0667(13) 0.0600(12) 0.0704(13) -0.0094(10) -0.0148(10) 0.0115(9)
N2 0.0817(14) 0.0521(12) 0.0828(14) -0.0001(11) 0.0148(12) 0.0028(10)
N3 0.0736(13) 0.0665(13) 0.0693(13) 0.0009(11) 0.0002(11) 0.0161(11)
N4 0.0657(12) 0.0684(12) 0.0648(13) -0.0023(10) -0.0027(10) -0.0081(10)
Zn1 0.0670(3) 0.0486(2) 0.0629(3) -0.00518(13) -0.00835(14) 0.00688(13)
C3AA 0.111 0.129 0.077 0.0015 0.0154 0.05
C5X 0.106 0.173 0.083 -0.002 0.0173 -0.064
N1O 0.06 0.0667 0.0704 -0.0148 -0.0094 0.0115
N2Y 0.0817 0.0521 0.0828 0.0001 0.0148 -0.0028
N2O 0.0521 0.0817 0.0828 0.0148 -0.0001 0.0028
N3AA 0.0665 0.0736 0.0693 0.0002 0.0009 0.0161
N3O 0.0665 0.0736 0.0693 0.0002 0.0009 0.0161
N4X 0.0657 0.0684 0.0648 0.0023 0.0027 -0.0081
N4O 0.0684 0.0657 0.0648 -0.0027 -0.0023 -0.0081
Zn1O 0.0486 0.067 0.0629 -0.00835 -0.00518 0.00688
Zn1Y 0.067 0.0486 0.0629 0.00518 -0.00835 -0.00688
Zn1AA 0.0486 0.067 0.0629 -0.00835 -0.00518 0.00688
Zn1X 0.067 0.0486 0.0629 0.00518 0.00835 0.00688
loop_
_geom_bond_atom_site_label_1
_geom_bond_atom_site_label_2
_geom_bond_site_symmetry_1
_geom_bond_site_symmetry_2
C1 H1 1_555 1_555
C2 H2 1_555 1_555
C3 H3 1_555 1_555
C4 H4 1_555 1_555
C5 H5 1_555 1_555
C6 C7 1_555 1_555
C8 H9 1_555 1_555
C11 H12 1_555 1_555
N1 C1 1_555 1_555
N2 C2 1_555 1_555
N3 C3 1_555 1_555
N4 C5 1_555 1_555
Zn1 N1 1_555 1_555
C3AA C3 1_555 1_555
H3AA C3AA 1_555 1_555
C5X C5 1_555 1_555
H5X C5X 1_555 1_555
C8O C8 1_555 1_555
H9O C8O 1_555 1_555
C11Y C11 1_555 1_555
H12Y C11Y 1_555 1_555
N1O C1 1_555 1_555
N2Y C2 1_555 1_555
N2O Zn1O 1_555 1_555
N3AA C4 1_555 1_555
N3O Zn1O 1_555 1_555
N4X C6 1_555 1_555
N4O Zn1O 1_555 1_555
Zn1O N1O 1_555 1_555
Zn1Y N2Y 1_555 1_555
Zn1AA N3AA 1_555 1_555
Zn1X N4X 1_555 1_555
C4 N3 1_555 1_555
C6 N4 1_555 1_555
C8 N1 1_555 1_555
C11 N2 1_555 1_555
N2 Zn1 1_555 1_555
N3 Zn1 1_555 1_555
N4 Zn1 1_555 1_555
C3AA N3AA 1_555 1_555
C5X N4X 1_555 1_555
C8O N1O 1_555 1_555
C11Y N2Y 1_555 1_555

#END
