
#######################################################################
#
#                 Cambridge Crystallographic Data Centre
#                                CCDC 
#
#######################################################################
#
# If this CIF has been generated from an entry in the Cambridge 
# Structural Database, then it will include bibliographic, chemical, 
# crystal, experimental, refinement or atomic coordinate data resulting 
# from the CCDC's data processing and validation procedures.
#
#######################################################################

data_GITTIN
_chemical_formula_moiety         '(C6 H4 Co1 N6 O4)n'
_symmetry_cell_setting           cubic
_symmetry_space_group_name_H-M   'I -4 3 m'
_symmetry_Int_Tables_number      217
_space_group_name_Hall           'I -4 2 3'
loop_
_symmetry_equiv_pos_site_id
_symmetry_equiv_pos_as_xyz
1 x,y,z
2 -x,-y,z
3 -x,y,-z
4 x,-y,-z
5 z,x,y
6 z,-x,-y
7 -z,-x,y
8 -z,x,-y
9 y,z,x
10 -y,z,-x
11 y,-z,-x
12 -y,-z,x
13 y,x,z
14 -y,-x,z
15 y,-x,-z
16 -y,x,-z
17 x,z,y
18 -x,z,-y
19 -x,-z,y
20 x,-z,-y
21 z,y,x
22 z,-y,-x
23 -z,y,-x
24 -z,-y,x
25 1/2+x,1/2+y,1/2+z
26 1/2-x,1/2-y,1/2+z
27 1/2-x,1/2+y,1/2-z
28 1/2+x,1/2-y,1/2-z
29 1/2+z,1/2+x,1/2+y
30 1/2+z,1/2-x,1/2-y
31 1/2-z,1/2-x,1/2+y
32 1/2-z,1/2+x,1/2-y
33 1/2+y,1/2+z,1/2+x
34 1/2-y,1/2+z,1/2-x
35 1/2+y,1/2-z,1/2-x
36 1/2-y,1/2-z,1/2+x
37 1/2+y,1/2+x,1/2+z
38 1/2-y,1/2-x,1/2+z
39 1/2+y,1/2-x,1/2-z
40 1/2-y,1/2+x,1/2-z
41 1/2+x,1/2+z,1/2+y
42 1/2-x,1/2+z,1/2-y
43 1/2-x,1/2-z,1/2+y
44 1/2+x,1/2-z,1/2-y
45 1/2+z,1/2+y,1/2+x
46 1/2+z,1/2-y,1/2-x
47 1/2-z,1/2+y,1/2-x
48 1/2-z,1/2-y,1/2+x
_cell_length_a                   17.2715(4)
_cell_length_b                   17.2715(4)
_cell_length_c                   17.2715(4)
_cell_angle_alpha                90
_cell_angle_beta                 90
_cell_angle_gamma                90
_cell_volume                     5152.17
loop_
_atom_site_label
_atom_site_type_symbol
_atom_site_fract_x
_atom_site_fract_y
_atom_site_fract_z
_atom_site_U_iso_or_equiv
_atom_site_thermal_displace_type
Co1 Co 1.0000 0.5000 0.2500 0.0867 Uani
N1 N 0.9106(5) 0.4698(7) 0.1807(6) 0.0947 Uani
C1 C 0.8735(7) 0.509(2) 0.1265(7) 0.0967 Uani
N2 N 0.8931(6) 0.5844(16) 0.1069(6) 0.1120 Uani
O1 O 0.8580(5) 0.6150(6) 0.0553(6) 0.1430 Uani
C2 C 0.8745(6) 0.4001(9) 0.1798(6) 0.1303 Uani
H1 H 0.8863 0.3579 0.2129 0.1560 Uiso
Co1V Co 0.7500 0.5000 0.0000 0.0867 Uani
Co1T Co 1.2500 0.5000 0.0000 0.0867 Uani
N1V N 0.8193(6) 0.4698(7) 0.0894(5) 0.0947 Uani
N1A N 1.0894(5) 0.5302(7) 0.1807(6) 0.0947 Uani
N1U N 1.1807(6) 0.5302(7) 0.0894(5) 0.0947 Uani
N1LA N 0.9698(7) 0.5894(5) 0.3193(6) 0.0947 Uani
N1MA N 1.0302(7) 0.4106(5) 0.3193(6) 0.0947 Uani
C1A C 1.1265(7) 0.491(2) 0.1265(7) 0.0967 Uani
N2A N 1.1069(6) 0.4156(16) 0.1069(6) 0.1120 Uani
O1V O 0.9447(6) 0.6150(6) 0.1420(5) 0.1430 Uani
O1A O 1.1420(5) 0.3850(6) 0.0553(6) 0.1430 Uani
O1U O 1.0553(6) 0.3850(6) 0.1420(5) 0.1430 Uani
C2V C 0.8202(6) 0.4001(9) 0.1255(6) 0.1303 Uani
C2A C 1.1255(6) 0.5999(9) 0.1798(6) 0.1303 Uani
C2U C 1.1798(6) 0.5999(9) 0.1255(6) 0.1303 Uani
H1V H 0.7871 0.3579 0.1137 0.1560 Uiso
H1A H 1.1137 0.6421 0.2129 0.1560 Uiso
H1U H 1.2129 0.6421 0.1137 0.1560 Uiso
loop_
_atom_site_aniso_label
_atom_site_aniso_U_11
_atom_site_aniso_U_22
_atom_site_aniso_U_33
_atom_site_aniso_U_23
_atom_site_aniso_U_13
_atom_site_aniso_U_12
Co1 0.0901(16) 0.0901(16) 0.080(2) 0.000 0.000 0.000
N1 0.099(9) 0.084(10) 0.101(7) -0.002(6) 0.004(7) -0.017(6)
C1 0.085(9) 0.12(3) 0.085(9) -0.010(11) -0.018(13) 0.010(11)
N2 0.122(12) 0.092(16) 0.122(12) 0.009(8) -0.004(13) -0.009(8)
O1 0.148(9) 0.129(7) 0.152(8) 0.018(6) -0.037(6) -0.010(5)
C2 0.140(10) 0.134(11) 0.117(11) 0.028(8) -0.024(8) -0.017(9)
Co1V 0.08 0.0901 0.0901 0 0 0
Co1T 0.08 0.0901 0.0901 0 0 0
N1V 0.101 0.084 0.099 0.017 0.004 0.002
N1A 0.099 0.084 0.101 0.002 -0.004 -0.017
N1U 0.101 0.084 0.099 -0.017 -0.004 0.002
N1LA 0.084 0.099 0.101 0.004 0.002 0.017
N1MA 0.084 0.099 0.101 -0.004 -0.002 0.017
C1A 0.085 0.12 0.085 0.01 0.018 0.01
N2A 0.122 0.092 0.122 -0.009 0.004 -0.009
O1V 0.152 0.129 0.148 0.01 -0.037 -0.018
O1A 0.148 0.129 0.152 -0.018 0.037 -0.01
O1U 0.152 0.129 0.148 -0.01 0.037 -0.018
C2V 0.117 0.134 0.14 0.017 -0.024 -0.028
C2A 0.14 0.134 0.117 -0.028 0.024 -0.017
C2U 0.117 0.134 0.14 -0.017 0.024 -0.028
loop_
_geom_bond_atom_site_label_1
_geom_bond_atom_site_label_2
_geom_bond_site_symmetry_1
_geom_bond_site_symmetry_2
Co1 N1 1_555 1_555
N1 C1 1_555 1_555
C1 N2 1_555 1_555
N2 O1 1_555 1_555
C2 N1 1_555 1_555
H1 C2 1_555 1_555
Co1V N1V 1_555 1_555
Co1T N1U 1_555 1_555
N1V C1 1_555 1_555
N1A Co1 1_555 1_555
N1U C1A 1_555 1_555
N1LA Co1 1_555 1_555
N1MA Co1 1_555 1_555
C1A N1A 1_555 1_555
N2A C1A 1_555 1_555
O1V N2 1_555 1_555
O1A N2A 1_555 1_555
O1U N2A 1_555 1_555
C2V C2 1_555 1_555
C2A N1A 1_555 1_555
C2U N1U 1_555 1_555
H1V C2V 1_555 1_555
H1A C2A 1_555 1_555
H1U C2U 1_555 1_555
N1V C2V 1_555 1_555
C2A C2U 1_555 1_555

#END
