
#######################################################################
#
#                 Cambridge Crystallographic Data Centre
#                                CCDC 
#
#######################################################################
#
# If this CIF has been generated from an entry in the Cambridge 
# Structural Database, then it will include bibliographic, chemical, 
# crystal, experimental, refinement or atomic coordinate data resulting 
# from the CCDC's data processing and validation procedures.
#
#######################################################################

data_GITTUZ
_chemical_formula_moiety         '(C20 H14 N10 O4 Zn2)n'
_symmetry_cell_setting           hexagonal
_symmetry_space_group_name_H-M   'P 63/m m c'
_symmetry_Int_Tables_number      194
_space_group_name_Hall           '-P 6c 2c'
loop_
_symmetry_equiv_pos_site_id
_symmetry_equiv_pos_as_xyz
1 x,y,z
2 -y,x-y,z
3 -x+y,-x,z
4 y,-x+y,1/2+z
5 x-y,x,1/2+z
6 y,x,-z
7 -x+y,y,1/2-z
8 x,x-y,1/2-z
9 -x,-y,1/2+z
10 x-y,-y,-z
11 -x,-x+y,-z
12 -y,-x,1/2-z
13 -x,-y,-z
14 y,-x+y,-z
15 x-y,x,-z
16 -y,x-y,1/2-z
17 -x+y,-x,1/2-z
18 -y,-x,z
19 x-y,-y,1/2+z
20 -x,-x+y,1/2+z
21 x,y,1/2-z
22 -x+y,y,z
23 x,x-y,z
24 y,x,1/2+z
_cell_length_a                   26.6407(4)
_cell_length_b                   26.6407(4)
_cell_length_c                   18.4882(4)
_cell_angle_alpha                90
_cell_angle_beta                 90
_cell_angle_gamma                120
_cell_volume                     11363.6
loop_
_atom_site_label
_atom_site_type_symbol
_atom_site_fract_x
_atom_site_fract_y
_atom_site_fract_z
_atom_site_U_iso_or_equiv
_atom_site_thermal_displace_type
Zn1 Zn 0.10823(9) 0.44000(8) 0.58718(15) 0.0969 Uani
N1 N 0.1766(5) 0.4366(4) 0.5495(7) 0.0763 Uani
C1 C 0.2195(3) 0.4389(5) 0.5862(10) 0.0539 Uani
H1 H 0.2211 0.4421 0.6374 0.0650 Uiso
C2 C 0.1898(3) 0.4317(6) 0.4850(9) 0.1366 Uani
C3 C 0.1626(4) 0.4291(8) 0.4201(9) 0.1790 Uiso
H2 H 0.1276 0.4305 0.4200 0.2150 Uiso
C4 C 0.1863(5) 0.4246(10) 0.3555(9) 0.2380 Uiso
H3 H 0.1669 0.4214 0.3112 0.2860 Uiso
N2 N 0.1214(6) 0.5166(7) 0.5529(7) 0.1130 Uiso
C5 C 0.1633(9) 0.5532(10) 0.5180(10) 0.1500 Uiso
H4 H 0.1913 0.5467 0.4947 0.1800 Uiso
C6 C 0.0954(15) 0.5477(7) 0.5777(15) 0.1340 Uiso
N3 N 0.0503(16) 0.5252(8) 0.6136(16) 0.1880 Uiso
O1 O 0.0268(8) 0.4717(9) 0.6245(10) 0.1960 Uiso
N4 N 0.0437(7) 0.3816(7) 0.5340(6) 0.1240 Uiso
C7 C 0.0000 0.3839(17) 0.5000 0.2040 Uiso
H5 H 0.0000 0.4196 0.5000 0.2450 Uiso
C8 C 0.0271(6) 0.3225(8) 0.5210(6) 0.1110 Uiso
C9 C 0.0541(7) 0.2905(8) 0.5430(8) 0.1160 Uiso
H6 H 0.0883 0.3073 0.5717 0.1400 Uiso
C10 C 0.0273(8) 0.2326(8) 0.5201(8) 0.1280 Uiso
H7 H 0.0453 0.2104 0.5310 0.1540 Uiso
N5 N 0.0958(5) 0.4150(7) 0.6952(10) 0.1077 Uani
C11 C 0.0456(7) 0.3617(8) 0.7196(6) 0.0980 Uiso
H8 H 0.0176 0.3320 0.6895 0.1170 Uiso
C12 C 0.1261(15) 0.4478(17) 0.7500 0.1050 Uiso
N6 N 0.1711(7) 0.4960(7) 0.7500 0.0570 Uiso
O2 O 0.1879(4) 0.5158(4) 0.6942(5) 0.0720 Uiso
Zn1U Zn 0.33177(12) 0.44000(8) 0.58718(15) 0.0969 Uani
Zn1V Zn 0.10823(9) 0.66823(12) 0.58718(15) 0.0969 Uani
Zn1J Zn -0.10823(9) 0.33177(12) 0.41282(15) 0.0969 Uani
Zn1T Zn 0.10823(9) 0.44000(8) 0.91282(15) 0.0969 Uani
N1U N 0.2600(6) 0.4366(4) 0.5495(7) 0.0763 Uani
C2U C 0.2419(7) 0.4317(6) 0.4850(9) 0.1366 Uani
C3U C 0.2665(9) 0.4291(8) 0.4201(9) 0.1790 Uiso
H2U H 0.3029 0.4305 0.4200 0.2150 Uiso
C4U C 0.2383(11) 0.4246(10) 0.3555(9) 0.2380 Uiso
H3U H 0.2545 0.4214 0.3112 0.2860 Uiso
N2V N 0.1214(6) 0.6048(9) 0.5529(7) 0.1130 Uiso
N2U N 0.3952(9) 0.5166(7) 0.5529(7) 0.1130 Uiso
C5V C 0.1633(9) 0.6101(13) 0.5180(10) 0.1500 Uiso
H4V H 0.1913 0.6446 0.4947 0.1800 Uiso
O1V O 0.0268(8) 0.5551(12) 0.6245(10) 0.1960 Uiso
N4J N -0.0437(7) 0.3379(10) 0.4660(6) 0.1240 Uiso
N4U N 0.3379(10) 0.3816(7) 0.5340(6) 0.1240 Uiso
C8J C -0.0271(6) 0.2954(10) 0.4790(6) 0.1110 Uiso
C9J C -0.0541(7) 0.2364(11) 0.4570(8) 0.1160 Uiso
H6J H -0.0883 0.2190 0.4283 0.1400 Uiso
C10J C -0.0273(8) 0.2053(11) 0.4799(8) 0.1280 Uiso
H7J H -0.0453 0.1651 0.4690 0.1540 Uiso
N5T N 0.0958(5) 0.4150(7) 0.8048(10) 0.1077 Uani
N5U N 0.3192(9) 0.4150(7) 0.6952(10) 0.1077 Uani
C11T C 0.0456(7) 0.3617(8) 0.7804(6) 0.0980 Uiso
H8T H 0.0176 0.3320 0.8105 0.1170 Uiso
O2T O 0.1879(4) 0.5158(4) 0.8058(5) 0.0720 Uiso
loop_
_atom_site_aniso_label
_atom_site_aniso_U_11
_atom_site_aniso_U_22
_atom_site_aniso_U_33
_atom_site_aniso_U_23
_atom_site_aniso_U_13
_atom_site_aniso_U_12
Zn1 0.064(3) 0.054(2) 0.180(4) -0.0414(13) -0.0623(13) 0.0350(16)
N1 0.120(12) 0.093(10) 0.049(9) -0.020(6) -0.028(8) 0.078(9)
C1 0.064(12) 0.074(15) 0.027(13) 0.000(9) 0.000(4) 0.037(8)
C2 0.22(3) 0.093(13) 0.075(11) -0.018(9) -0.069(14) 0.062(12)
N5 0.037(8) 0.066(9) 0.231(16) 0.052(12) 0.049(10) 0.034(7)
Zn1U 0.048 0.054 0.18 -0.0414 0.0209 0.019
Zn1V 0.064 0.048 0.18 -0.0209 -0.0623 0.029
Zn1J 0.064 0.048 0.18 -0.0209 -0.0623 0.029
Zn1T 0.064 0.054 0.18 0.0414 0.0623 0.035
N1U 0.057 0.093 0.049 -0.02 0.008 0.015
C2U 0.189 0.093 0.075 -0.018 0.051 0.031
N5T 0.037 0.066 0.231 -0.052 -0.049 0.034
N5U 0.035 0.066 0.231 0.052 0.003 0.032
loop_
_geom_bond_atom_site_label_1
_geom_bond_atom_site_label_2
_geom_bond_site_symmetry_1
_geom_bond_site_symmetry_2
Zn1 N1 1_555 1_555
N1 C1 1_555 1_555
C1 H1 1_555 1_555
C2 N1 1_555 1_555
C3 C2 1_555 1_555
H2 C3 1_555 1_555
C4 C3 1_555 1_555
H3 C4 1_555 1_555
N2 Zn1 1_555 1_555
C5 N2 1_555 1_555
H4 C5 1_555 1_555
C6 N2 1_555 1_555
N3 C6 1_555 1_555
O1 N3 1_555 1_555
N4 Zn1 1_555 1_555
C7 N4 1_555 1_555
H5 C7 1_555 1_555
C8 N4 1_555 1_555
C9 C8 1_555 1_555
H6 C9 1_555 1_555
C10 C9 1_555 1_555
H7 C10 1_555 1_555
N5 Zn1 1_555 1_555
C11 N5 1_555 1_555
H8 C11 1_555 1_555
C12 N5 1_555 1_555
N6 C12 1_555 1_555
O2 N6 1_555 1_555
Zn1U N1U 1_555 1_555
Zn1V N2V 1_555 1_555
Zn1J N4J 1_555 1_555
Zn1T N5T 1_555 1_555
N1U C1 1_555 1_555
C2U C2 1_555 1_555
C3U C2U 1_555 1_555
H2U C3U 1_555 1_555
C4U C4 1_555 1_555
H3U C4U 1_555 1_555
N2V C6 1_555 1_555
N2U Zn1U 1_555 1_555
C5V C5 1_555 1_555
H4V C5V 1_555 1_555
O1V N3 1_555 1_555
N4J C7 1_555 1_555
N4U Zn1U 1_555 1_555
C8J C8 1_555 1_555
C9J C8J 1_555 1_555
H6J C9J 1_555 1_555
C10J C10 1_555 1_555
H7J C10J 1_555 1_555
N5T C12 1_555 1_555
N5U Zn1U 1_555 1_555
C11T C11 1_555 1_555
H8T C11T 1_555 1_555
O2T N6 1_555 1_555
N1U C2U 1_555 1_555
C3U C4U 1_555 1_555
N2V C5V 1_555 1_555
N4J C8J 1_555 1_555
C9J C10J 1_555 1_555
N5T C11T 1_555 1_555

#END
