
#######################################################################
#
#                 Cambridge Crystallographic Data Centre
#                                CCDC 
#
#######################################################################
#
# If this CIF has been generated from an entry in the Cambridge 
# Structural Database, then it will include bibliographic, chemical, 
# crystal, experimental, refinement or atomic coordinate data resulting 
# from the CCDC's data processing and validation procedures.
#
#######################################################################

data_GITVIP01
_chemical_formula_moiety         '(C12 H4 Cl8 N8 Zn2)n'
_symmetry_cell_setting           cubic
_symmetry_space_group_name_H-M   'P m -3 m'
_symmetry_Int_Tables_number      221
_space_group_name_Hall           '-P 4 2 3'
loop_
_symmetry_equiv_pos_site_id
_symmetry_equiv_pos_as_xyz
1 x,y,z
2 z,x,y
3 y,z,x
4 y,x,-z
5 y,-x,z
6 -y,x,z
7 x,z,-y
8 -x,z,y
9 x,-z,y
10 z,y,-x
11 z,-y,x
12 -z,y,x
13 -x,-y,z
14 -x,y,-z
15 x,-y,-z
16 z,-x,-y
17 -z,-x,y
18 -z,x,-y
19 -y,z,-x
20 y,-z,-x
21 -y,-z,x
22 -y,-x,-z
23 -x,-z,-y
24 -z,-y,-x
25 -x,-y,-z
26 -z,-x,-y
27 -y,-z,-x
28 -y,-x,z
29 -y,x,-z
30 y,-x,-z
31 -x,-z,y
32 x,-z,-y
33 -x,z,-y
34 -z,-y,x
35 -z,y,-x
36 z,-y,-x
37 x,y,-z
38 x,-y,z
39 -x,y,z
40 -z,x,y
41 z,x,-y
42 z,-x,y
43 y,-z,x
44 -y,z,x
45 y,z,-x
46 y,x,z
47 x,z,y
48 z,y,x
_cell_length_a                   28.5539(2)
_cell_length_b                   28.5539(2)
_cell_length_c                   28.5539(2)
_cell_angle_alpha                90
_cell_angle_beta                 90
_cell_angle_gamma                90
_cell_volume                     23280.7
loop_
_atom_site_label
_atom_site_type_symbol
_atom_site_fract_x
_atom_site_fract_y
_atom_site_fract_z
_atom_site_U_iso_or_equiv
_atom_site_thermal_displace_type
Zn1 Zn 0.39551(6) 0.10433(6) 0.25207(6) 0.1534 Uani
C1 C 0.3957(7) 0.0000 0.2590(6) 0.1440 Uani
H1 H 0.4239 0.0000 0.2766 0.1710 Uiso
N1 N 0.3721(3) 0.0380(5) 0.2443(3) 0.1383 Uani
C2 C 0.3358(4) 0.0243(4) 0.2215(3) 0.1293 Uani
Cl1 Cl 0.29541(10) 0.06062(11) 0.19564(10) 0.1960 Uani
C3 C 0.5000 0.1065(5) 0.2548(7) 0.1307 Uani
H2 H 0.5000 0.1171 0.2232 0.1580 Uiso
N2 N 0.4603(3) 0.0991(3) 0.2769(4) 0.1440 Uani
C4 C 0.4776(4) 0.0827(4) 0.3208(4) 0.1823 Uani
Cl2 Cl 0.43906(12) 0.06862(15) 0.36268(11) 0.2813 Uani
C5 C 0.3176(4) 0.1142(7) 0.3176(4) 0.1120 Uani
H3 H 0.3065 0.0849 0.3065 0.1340 Uiso
N3 N 0.3539(3) 0.1349(4) 0.2972(4) 0.1340 Uani
C6 C 0.3566(4) 0.1753(4) 0.3241(4) 0.1477 Uani
Cl3 Cl 0.39754(12) 0.21522(11) 0.31090(11) 0.2120 Uani
C7 C 0.3949(6) 0.1781(8) 0.1781(8) 0.1400 Uani
H4 H 0.3856 0.2007 0.2007 0.1680 Uiso
N4 N 0.4007(3) 0.1361(4) 0.1923(4) 0.1380 Uani
C8 C 0.4171(3) 0.1186(3) 0.1507(4) 0.1197 Uani
Cl4 Cl 0.43310(10) 0.05954(11) 0.14477(9) 0.1940 Uani
Zn1KA Zn 0.39551(6) -0.10433(6) 0.25207(6) 0.1534 Uani
Zn1LA Zn 0.60449(6) 0.10433(6) 0.25207(6) 0.1534 Uani
Zn1UA Zn 0.25207(6) 0.10433(6) 0.39551(6) 0.1534 Uani
Zn1TA Zn 0.39551(6) 0.25207(6) 0.10433(6) 0.1534 Uani
N1KA N 0.3721(3) -0.0380(5) 0.2443(3) 0.1383 Uani
C2KA C 0.3358(4) -0.0243(4) 0.2215(3) 0.1293 Uani
Cl1KA Cl 0.29541(10) -0.06062(11) 0.19564(10) 0.1960 Uani
N2LA N 0.5397(3) 0.0991(3) 0.2769(4) 0.1440 Uani
N2KA N 0.4603(3) -0.0991(3) 0.2769(4) 0.1440 Uani
C4LA C 0.5224(4) 0.0827(4) 0.3208(4) 0.1823 Uani
Cl2LA Cl 0.56094(12) 0.06862(15) 0.36268(11) 0.2813 Uani
N3UA N 0.2972(4) 0.1349(4) 0.3539(3) 0.1340 Uani
N3KA N 0.3539(3) -0.1349(4) 0.2972(4) 0.1340 Uani
C6UA C 0.3241(4) 0.1753(4) 0.3566(4) 0.1477 Uani
Cl3UA Cl 0.31090(11) 0.21522(11) 0.39754(12) 0.2120 Uani
N4TA N 0.4007(3) 0.1923(4) 0.1361(4) 0.1380 Uani
N4KA N 0.4007(3) -0.1361(4) 0.1923(4) 0.1380 Uani
C8TA C 0.4171(3) 0.1507(4) 0.1186(3) 0.1197 Uani
Cl4TA Cl 0.43310(10) 0.14477(9) 0.05954(11) 0.1940 Uani
loop_
_atom_site_aniso_label
_atom_site_aniso_U_11
_atom_site_aniso_U_22
_atom_site_aniso_U_33
_atom_site_aniso_U_23
_atom_site_aniso_U_13
_atom_site_aniso_U_12
Zn1 0.1456(17) 0.1508(17) 0.1637(18) -0.0145(13) 0.0069(13) -0.0010(12)
C1 0.061(17) 0.27(3) 0.101(14) 0.000 -0.027(12) 0.000
N1 0.077(11) 0.227(16) 0.111(8) -0.001(8) -0.034(7) 0.030(9)
C2 0.097(9) 0.168(15) 0.123(8) 0.034(7) -0.044(6) 0.062(9)
Cl1 0.181(3) 0.205(3) 0.202(3) 0.005(2) -0.043(2) 0.014(2)
C3 0.061(17) 0.141(14) 0.19(2) -0.029(13) 0.000 0.000
N2 0.081(12) 0.160(8) 0.191(12) -0.035(7) -0.010(10) -0.002(7)
C4 0.125(19) 0.288(13) 0.134(11) -0.040(9) -0.027(10) 0.016(9)
Cl2 0.152(3) 0.561(7) 0.131(3) -0.013(3) 0.018(2) -0.003(3)
C5 0.112(11) 0.112(17) 0.112(11) 0.013(8) -0.029(16) 0.013(8)
N3 0.108(9) 0.159(12) 0.135(12) -0.001(7) 0.016(10) 0.008(10)
C6 0.163(12) 0.139(11) 0.141(12) -0.011(8) 0.016(11) -0.006(10)
Cl3 0.219(3) 0.187(3) 0.230(3) -0.039(3) 0.049(3) -0.068(3)
C7 0.106(13) 0.157(13) 0.157(13) 0.07(3) -0.029(11) -0.029(11)
N4 0.142(8) 0.188(13) 0.084(11) 0.021(12) 0.021(7) -0.010(8)
C8 0.128(8) 0.113(13) 0.118(10) 0.007(10) 0.003(6) -0.001(6)
Cl4 0.249(3) 0.159(3) 0.174(3) -0.018(2) 0.021(2) 0.023(2)
Zn1KA 0.1456 0.1508 0.1637 0.0145 0.0069 0.001
Zn1LA 0.1456 0.1508 0.1637 -0.0145 -0.0069 0.001
Zn1UA 0.1637 0.1508 0.1456 -0.001 0.0069 -0.0145
Zn1TA 0.1456 0.1637 0.1508 -0.0145 -0.001 0.0069
N1KA 0.077 0.227 0.111 0.001 -0.034 -0.03
C2KA 0.097 0.168 0.123 -0.034 -0.044 -0.062
Cl1KA 0.181 0.205 0.202 -0.005 -0.043 -0.014
N2LA 0.081 0.16 0.191 -0.035 0.01 0.002
N2KA 0.081 0.16 0.191 0.035 -0.01 0.002
C4LA 0.125 0.288 0.134 -0.04 0.027 -0.016
Cl2LA 0.152 0.561 0.131 -0.013 -0.018 0.003
N3UA 0.135 0.159 0.108 0.008 0.016 -0.001
N3KA 0.108 0.159 0.135 0.001 0.016 -0.008
C6UA 0.141 0.139 0.163 -0.006 0.016 -0.011
Cl3UA 0.23 0.187 0.219 -0.068 0.049 -0.039
N4TA 0.142 0.084 0.188 0.021 -0.01 0.021
N4KA 0.142 0.188 0.084 -0.021 0.021 0.01
C8TA 0.128 0.118 0.113 0.007 -0.001 0.003
Cl4TA 0.249 0.174 0.159 -0.018 0.023 0.021
loop_
_geom_bond_atom_site_label_1
_geom_bond_atom_site_label_2
_geom_bond_site_symmetry_1
_geom_bond_site_symmetry_2
Zn1 N1 1_555 1_555
C1 H1 1_555 1_555
N1 C1 1_555 1_555
C2 N1 1_555 1_555
Cl1 C2 1_555 1_555
C3 H2 1_555 1_555
N2 Zn1 1_555 1_555
C4 N2 1_555 1_555
Cl2 C4 1_555 1_555
C5 H3 1_555 1_555
N3 Zn1 1_555 1_555
C6 N3 1_555 1_555
Cl3 C6 1_555 1_555
C7 H4 1_555 1_555
N4 Zn1 1_555 1_555
C8 N4 1_555 1_555
Cl4 C8 1_555 1_555
Zn1KA N1KA 1_555 1_555
Zn1LA N2LA 1_555 1_555
Zn1UA N3UA 1_555 1_555
Zn1TA N4TA 1_555 1_555
N1KA C1 1_555 1_555
C2KA C2 1_555 1_555
Cl1KA C2KA 1_555 1_555
N2LA C3 1_555 1_555
N2KA Zn1KA 1_555 1_555
C4LA C4 1_555 1_555
Cl2LA C4LA 1_555 1_555
N3UA C5 1_555 1_555
N3KA Zn1KA 1_555 1_555
C6UA C6 1_555 1_555
Cl3UA C6UA 1_555 1_555
N4TA C7 1_555 1_555
N4KA Zn1KA 1_555 1_555
C8TA C8 1_555 1_555
Cl4TA C8TA 1_555 1_555
C3 N2 1_555 1_555
C5 N3 1_555 1_555
C7 N4 1_555 1_555
N1KA C2KA 1_555 1_555
N2LA C4LA 1_555 1_555
N3UA C6UA 1_555 1_555
N4TA C8TA 1_555 1_555

#END
