
#######################################################################
#
#                 Cambridge Crystallographic Data Centre
#                                CCDC 
#
#######################################################################
#
# If this CIF has been generated from an entry in the Cambridge 
# Structural Database, then it will include bibliographic, chemical, 
# crystal, experimental, refinement or atomic coordinate data resulting 
# from the CCDC's data processing and validation procedures.
#
#######################################################################

data_GITVIP
_chemical_formula_moiety         '(C12 H4 Cl8 N8 Zn2)n'
_symmetry_cell_setting           cubic
_symmetry_space_group_name_H-M   'P m -3 m'
_symmetry_Int_Tables_number      221
_space_group_name_Hall           '-P 4 2 3'
loop_
_symmetry_equiv_pos_site_id
_symmetry_equiv_pos_as_xyz
1 x,y,z
2 z,x,y
3 y,z,x
4 y,x,-z
5 y,-x,z
6 -y,x,z
7 x,z,-y
8 -x,z,y
9 x,-z,y
10 z,y,-x
11 z,-y,x
12 -z,y,x
13 -x,-y,z
14 -x,y,-z
15 x,-y,-z
16 z,-x,-y
17 -z,-x,y
18 -z,x,-y
19 -y,z,-x
20 y,-z,-x
21 -y,-z,x
22 -y,-x,-z
23 -x,-z,-y
24 -z,-y,-x
25 -x,-y,-z
26 -z,-x,-y
27 -y,-z,-x
28 -y,-x,z
29 -y,x,-z
30 y,-x,-z
31 -x,-z,y
32 x,-z,-y
33 -x,z,-y
34 -z,-y,x
35 -z,y,-x
36 z,-y,-x
37 x,y,-z
38 x,-y,z
39 -x,y,z
40 -z,x,y
41 z,x,-y
42 z,-x,y
43 y,-z,x
44 -y,z,x
45 y,z,-x
46 y,x,z
47 x,z,y
48 z,y,x
_cell_length_a                   28.5539(2)
_cell_length_b                   28.5539(2)
_cell_length_c                   28.5539(2)
_cell_angle_alpha                90
_cell_angle_beta                 90
_cell_angle_gamma                90
_cell_volume                     23280.7
loop_
_atom_site_label
_atom_site_type_symbol
_atom_site_fract_x
_atom_site_fract_y
_atom_site_fract_z
_atom_site_U_iso_or_equiv
_atom_site_thermal_displace_type
Zn1 Zn 0.39539(9) 0.10407(9) 0.25185(8) 0.1543 Uani
C1 C 0.3924(9) 0.0000 0.2563(8) 0.1300 Uiso
H1 H 0.4210 0.0000 0.2733 0.1560 Uiso
N1 N 0.3714(5) 0.0400(5) 0.2439(4) 0.1353 Uani
C2 C 0.3333(7) 0.0233(5) 0.2209(6) 0.1413 Uani
Cl1 Cl 0.29524(18) 0.06132(19) 0.19575(18) 0.2000 Uani
C3 C 0.5000 0.1099(13) 0.2474(18) 0.1967 Uani
H2 H 0.5000 0.1219 0.2163 0.2340 Uiso
N2 N 0.4619(7) 0.1001(6) 0.2730(7) 0.1727 Uani
C4 C 0.4765(5) 0.0838(7) 0.3162(6) 0.1670 Uani
Cl2 Cl 0.4396(3) 0.0515(6) 0.3627(3) 0.1520 Uiso
C5 C 0.3165(7) 0.1102(12) 0.3165(7) 0.1367 Uani
H3 H 0.3058 0.0805 0.3058 0.1670 Uiso
N3 N 0.3528(6) 0.1335(6) 0.2971(7) 0.1460 Uani
C6 C 0.3557(5) 0.1723(7) 0.3218(6) 0.1367 Uani
Cl3 Cl 0.39725(19) 0.21499(19) 0.31110(18) 0.2147 Uani
C7 C 0.3941(8) 0.1780(7) 0.1780(7) 0.1370 Uiso
H4 H 0.3834 0.2003 0.2003 0.1640 Uiso
N4 N 0.4015(4) 0.1351(6) 0.1904(5) 0.1413 Uani
C8 C 0.4171(5) 0.1170(6) 0.1486(7) 0.1427 Uani
Cl4 Cl 0.43312(18) 0.0595(2) 0.14446(17) 0.2003 Uani
Zn1KA Zn 0.39539(9) -0.10407(9) 0.25185(8) 0.1543 Uani
Zn1LA Zn 0.60461(9) 0.10407(9) 0.25185(8) 0.1543 Uani
Zn1UA Zn 0.25185(8) 0.10407(9) 0.39539(9) 0.1543 Uani
Zn1TA Zn 0.39539(9) 0.25185(8) 0.10407(9) 0.1543 Uani
N1KA N 0.3714(5) -0.0400(5) 0.2439(4) 0.1353 Uani
C2KA C 0.3333(7) -0.0233(5) 0.2209(6) 0.1413 Uani
Cl1KA Cl 0.29524(18) -0.06132(19) 0.19575(18) 0.2000 Uani
N2LA N 0.5381(7) 0.1001(6) 0.2730(7) 0.1727 Uani
N2KA N 0.4619(7) -0.1001(6) 0.2730(7) 0.1727 Uani
C4LA C 0.5235(5) 0.0838(7) 0.3162(6) 0.1670 Uani
Cl2LA Cl 0.5604(3) 0.0515(6) 0.3627(3) 0.1520 Uiso
N3UA N 0.2971(7) 0.1335(6) 0.3528(6) 0.1460 Uani
N3KA N 0.3528(6) -0.1335(6) 0.2971(7) 0.1460 Uani
C6UA C 0.3218(6) 0.1723(7) 0.3557(5) 0.1367 Uani
Cl3UA Cl 0.31110(18) 0.21499(19) 0.39725(19) 0.2147 Uani
N4TA N 0.4015(4) 0.1904(5) 0.1351(6) 0.1413 Uani
N4KA N 0.4015(4) -0.1351(6) 0.1904(5) 0.1413 Uani
C8TA C 0.4171(5) 0.1486(7) 0.1170(6) 0.1427 Uani
Cl4TA Cl 0.43312(18) 0.14446(17) 0.0595(2) 0.2003 Uani
loop_
_atom_site_aniso_label
_atom_site_aniso_U_11
_atom_site_aniso_U_22
_atom_site_aniso_U_33
_atom_site_aniso_U_23
_atom_site_aniso_U_13
_atom_site_aniso_U_12
Zn1 0.145(3) 0.154(3) 0.164(3) -0.0150(19) 0.0035(19) 0.0041(17)
N1 0.129(13) 0.144(16) 0.133(12) -0.022(9) -0.005(9) 0.014(11)
C2 0.120(13) 0.17(2) 0.134(13) 0.010(11) -0.039(10) 0.019(14)
Cl1 0.184(5) 0.205(5) 0.211(5) 0.006(4) -0.048(4) 0.014(4)
C3 0.11(4) 0.19(3) 0.29(7) -0.04(4) 0.000 0.000
N2 0.20(3) 0.168(14) 0.15(2) -0.029(13) -0.038(19) 0.006(15)
C4 0.086(18) 0.28(2) 0.135(15) -0.052(15) 0.057(12) -0.022(11)
C5 0.16(2) 0.09(3) 0.16(2) 0.003(14) -0.07(3) 0.003(14)
N3 0.162(17) 0.099(17) 0.177(18) -0.015(11) -0.029(16) -0.031(14)
C6 0.127(14) 0.126(15) 0.157(17) 0.021(12) 0.008(14) -0.036(14)
Cl3 0.221(6) 0.196(5) 0.227(5) -0.040(4) 0.047(4) -0.065(5)
N4 0.138(12) 0.154(15) 0.132(13) 0.011(14) 0.005(9) 0.001(10)
C8 0.143(13) 0.16(2) 0.125(16) -0.016(17) 0.010(11) 0.005(11)
Cl4 0.251(6) 0.162(5) 0.188(5) -0.022(4) 0.024(4) 0.033(4)
Zn1KA 0.145 0.154 0.164 0.015 0.0035 -0.0041
Zn1LA 0.145 0.154 0.164 -0.015 -0.0035 -0.0041
Zn1UA 0.164 0.154 0.145 0.0041 0.0035 -0.015
Zn1TA 0.145 0.164 0.154 -0.015 0.0041 0.0035
N1KA 0.129 0.144 0.133 0.022 -0.005 -0.014
C2KA 0.12 0.17 0.134 -0.01 -0.039 -0.019
Cl1KA 0.184 0.205 0.211 -0.006 -0.048 -0.014
N2LA 0.2 0.168 0.15 -0.029 0.038 -0.006
N2KA 0.2 0.168 0.15 0.029 -0.038 -0.006
C4LA 0.086 0.28 0.135 -0.052 -0.057 0.022
N3UA 0.177 0.099 0.162 -0.031 -0.029 -0.015
N3KA 0.162 0.099 0.177 0.015 -0.029 0.031
C6UA 0.157 0.126 0.127 -0.036 0.008 0.021
Cl3UA 0.227 0.196 0.221 -0.065 0.047 -0.04
N4TA 0.138 0.132 0.154 0.011 0.001 0.005
N4KA 0.138 0.154 0.132 -0.011 0.005 -0.001
C8TA 0.143 0.125 0.16 -0.016 0.005 0.01
Cl4TA 0.251 0.188 0.162 -0.022 0.033 0.024
loop_
_geom_bond_atom_site_label_1
_geom_bond_atom_site_label_2
_geom_bond_site_symmetry_1
_geom_bond_site_symmetry_2
Zn1 N1 1_555 1_555
C1 H1 1_555 1_555
N1 C1 1_555 1_555
C2 N1 1_555 1_555
Cl1 C2 1_555 1_555
C3 H2 1_555 1_555
N2 Zn1 1_555 1_555
C4 N2 1_555 1_555
Cl2 C4 1_555 1_555
C5 H3 1_555 1_555
N3 Zn1 1_555 1_555
C6 N3 1_555 1_555
Cl3 C6 1_555 1_555
C7 H4 1_555 1_555
N4 Zn1 1_555 1_555
C8 N4 1_555 1_555
Cl4 C8 1_555 1_555
Zn1KA N1KA 1_555 1_555
Zn1LA N2LA 1_555 1_555
Zn1UA N3UA 1_555 1_555
Zn1TA N4TA 1_555 1_555
N1KA C1 1_555 1_555
C2KA C2 1_555 1_555
Cl1KA C2KA 1_555 1_555
N2LA C3 1_555 1_555
N2KA Zn1KA 1_555 1_555
C4LA C4 1_555 1_555
Cl2LA C4LA 1_555 1_555
N3UA C5 1_555 1_555
N3KA Zn1KA 1_555 1_555
C6UA C6 1_555 1_555
Cl3UA C6UA 1_555 1_555
N4TA C7 1_555 1_555
N4KA Zn1KA 1_555 1_555
C8TA C8 1_555 1_555
Cl4TA C8TA 1_555 1_555
C3 N2 1_555 1_555
C5 N3 1_555 1_555
C7 N4 1_555 1_555
N1KA C2KA 1_555 1_555
N2LA C4LA 1_555 1_555
N3UA C6UA 1_555 1_555
N4TA C8TA 1_555 1_555

#END
