
#######################################################################
#
#                 Cambridge Crystallographic Data Centre
#                                CCDC 
#
#######################################################################
#
# If this CIF has been generated from an entry in the Cambridge 
# Structural Database, then it will include bibliographic, chemical, 
# crystal, experimental, refinement or atomic coordinate data resulting 
# from the CCDC's data processing and validation procedures.
#
#######################################################################

data_GITVEL
_chemical_formula_moiety         '(C12 H11 N9 O2 Zn2)n'
_symmetry_cell_setting           hexagonal
_symmetry_space_group_name_H-M   'P 63/m m c'
_symmetry_Int_Tables_number      194
_space_group_name_Hall           '-P 6c 2c'
loop_
_symmetry_equiv_pos_site_id
_symmetry_equiv_pos_as_xyz
1 x,y,z
2 -y,x-y,z
3 -x+y,-x,z
4 y,-x+y,1/2+z
5 x-y,x,1/2+z
6 y,x,-z
7 -x+y,y,1/2-z
8 x,x-y,1/2-z
9 -x,-y,1/2+z
10 x-y,-y,-z
11 -x,-x+y,-z
12 -y,-x,1/2-z
13 -x,-y,-z
14 y,-x+y,-z
15 x-y,x,-z
16 -y,x-y,1/2-z
17 -x+y,-x,1/2-z
18 -y,-x,z
19 x-y,-y,1/2+z
20 -x,-x+y,1/2+z
21 x,y,1/2-z
22 -x+y,y,z
23 x,x-y,z
24 y,x,1/2+z
_cell_length_a                   27.0111(9)
_cell_length_b                   27.0111(9)
_cell_length_c                   18.0208(13)
_cell_angle_alpha                90
_cell_angle_beta                 90
_cell_angle_gamma                120
_cell_volume                     11386.5
loop_
_atom_site_label
_atom_site_type_symbol
_atom_site_fract_x
_atom_site_fract_y
_atom_site_fract_z
_atom_site_U_iso_or_equiv
_atom_site_thermal_displace_type
Zn1 Zn 0.66721(2) 0.11074(2) 0.42033(4) 0.0606 Uani
C1 C 0.7678(5) 0.1828(5) 0.5177(6) 0.1700 Uani
H1 H 0.7557 0.1550 0.5546 0.2040 Uiso
N1 N 0.73768(19) 0.17962(18) 0.4544(2) 0.0856 Uani
C2 C 0.7785(2) 0.2215(2) 0.4227(4) 0.0822 Uani
H2 H 0.7777 0.2223 0.3712 0.0990 Uiso
C3 C 0.6699(5) 0.0440(4) 0.2873(5) 0.1561 Uani
H3 H 0.6706 0.0163 0.3172 0.1870 Uiso
N2 N 0.6687(2) 0.0910(2) 0.3121(3) 0.0957 Uani
C4 C 0.6686(3) 0.1158(3) 0.2500 0.0639 Uani
N3 N 0.6682(3) 0.1694(3) 0.2500 0.0842 Uani
O1 O 0.6679(2) 0.1904(2) 0.3097(3) 0.1060 Uani
C5 C 0.55376(18) 0.1075(4) 0.4209(4) 0.0780 Uani
H4 H 0.5464 0.0928 0.3730 0.0940 Uiso
N4 N 0.60027(17) 0.11764(17) 0.4537(2) 0.0723 Uani
C6 C 0.5804(4) 0.1127(5) 0.5262(5) 0.0898 Uani
H5 H 0.5988 0.1099 0.5683 0.1080 Uiso
C7 C 0.6994(2) 0.0254(3) 0.4824(5) 0.1038 Uani
H6 H 0.7375 0.0456 0.4677 0.1240 Uiso
N5 N 0.66047(16) 0.04234(16) 0.4721(3) 0.0698 Uani
C8 C 0.6124(2) -0.0000 0.5000 0.0673 Uani
H7 H 0.5780 -0.0000 0.5000 0.0810 Uiso
Zn1Q Zn 0.88926(2) 0.33279(2) 0.42033(4) 0.0606 Uani
Zn1T Zn 0.66721(2) 0.11074(2) 0.07967(4) 0.0606 Uani
Zn1U Zn 0.44353(3) 0.11074(2) 0.42033(4) 0.0606 Uani
Zn1I Zn 0.55647(3) -0.11074(2) 0.57967(4) 0.0606 Uani
C1Q C 0.8172(5) 0.2322(5) 0.5177(6) 0.1700 Uani
H1Q H 0.8450 0.2443 0.5546 0.2040 Uiso
N1Q N 0.82038(18) 0.26232(19) 0.4544(2) 0.0856 Uani
C3T C 0.6699(5) 0.0440(4) 0.2127(5) 0.1561 Uani
H3T H 0.6706 0.0163 0.1828 0.1870 Uiso
N2T N 0.6687(2) 0.0910(2) 0.1879(3) 0.0957 Uani
N2Q N 0.9090(2) 0.3313(2) 0.3121(3) 0.0957 Uani
O1T O 0.6679(2) 0.1904(2) 0.1903(3) 0.1060 Uani
N4U N 0.51737(24) 0.11764(17) 0.4537(2) 0.0723 Uani
N4Q N 0.88236(17) 0.39973(17) 0.4537(2) 0.0723 Uani
C6U C 0.5323(6) 0.1127(5) 0.5262(5) 0.0898 Uani
H5U H 0.5111 0.1099 0.5683 0.1080 Uiso
C7I C 0.6740(4) -0.0254(3) 0.5176(5) 0.1038 Uani
H6I H 0.6919 -0.0456 0.5323 0.1240 Uiso
N5I N 0.61813(23) -0.04234(16) 0.5279(3) 0.0698 Uani
N5Q N 0.95766(16) 0.33953(16) 0.4721(3) 0.0698 Uani
loop_
_atom_site_aniso_label
_atom_site_aniso_U_11
_atom_site_aniso_U_22
_atom_site_aniso_U_33
_atom_site_aniso_U_23
_atom_site_aniso_U_13
_atom_site_aniso_U_12
Zn1 0.0503(5) 0.0484(5) 0.0730(6) 0.0097(2) 0.0016(2) 0.0172(3)
C1 0.131(9) 0.136(9) 0.110(7) 0.064(7) -0.046(7) -0.033(7)
N1 0.071(3) 0.066(2) 0.074(3) 0.008(2) -0.003(2) 0.000(2)
C2 0.064(3) 0.064(3) 0.080(5) -0.008(2) 0.008(2) 0.003(4)
C3 0.289(15) 0.122(6) 0.111(5) 0.003(4) 0.006(6) 0.143(8)
N2 0.118(4) 0.076(3) 0.095(4) 0.003(3) 0.000(3) 0.050(3)
C4 0.068(4) 0.057(4) 0.061(4) 0.000 0.000 0.027(3)
N3 0.091(5) 0.070(4) 0.090(5) 0.000 0.000 0.039(3)
O1 0.150(4) 0.095(3) 0.086(3) -0.004(2) 0.003(2) 0.071(3)
C5 0.065(3) 0.093(5) 0.086(5) -0.019(4) -0.010(2) 0.047(3)
N4 0.061(2) 0.075(3) 0.081(3) 0.002(2) -0.002(2) 0.034(2)
C6 0.078(6) 0.126(10) 0.068(5) 0.008(6) -0.002(5) 0.053(7)
C7 0.063(3) 0.098(4) 0.154(7) 0.051(4) 0.024(4) 0.043(3)
N5 0.058(2) 0.053(2) 0.091(3) 0.020(2) 0.0057(19) 0.0221(17)
C8 0.061(3) 0.055(3) 0.084(4) 0.014(3) 0.0069(16) 0.0276(17)
Zn1Q 0.0484 0.0503 0.073 -0.0016 -0.0097 0.0172
Zn1T 0.0503 0.0484 0.073 -0.0097 -0.0016 0.0172
Zn1U 0.0643 0.0484 0.073 0.0097 0.0081 0.0312
Zn1I 0.0643 0.0484 0.073 0.0097 0.0081 0.0312
C1Q 0.136 0.131 0.11 0.046 -0.064 -0.033
N1Q 0.066 0.071 0.074 0.003 -0.008 0
C3T 0.289 0.122 0.111 -0.003 -0.006 0.143
N2T 0.118 0.076 0.095 -0.003 0 0.05
N2Q 0.076 0.118 0.095 0 -0.003 0.05
O1T 0.15 0.095 0.086 0.004 -0.003 0.071
N4U 0.068 0.075 0.081 0.002 0.004 0.041
N4Q 0.075 0.061 0.081 0.002 -0.002 0.034
C6U 0.098 0.126 0.068 0.008 0.01 0.073
C7I 0.075 0.098 0.154 0.051 0.027 0.055
N5I 0.0668 0.053 0.091 0.02 0.0143 0.0309
N5Q 0.053 0.058 0.091 -0.0057 -0.02 0.0221
loop_
_geom_bond_atom_site_label_1
_geom_bond_atom_site_label_2
_geom_bond_site_symmetry_1
_geom_bond_site_symmetry_2
Zn1 N1 1_555 1_555
C1 H1 1_555 1_555
N1 C1 1_555 1_555
C2 N1 1_555 1_555
H2 C2 1_555 1_555
C3 H3 1_555 1_555
N2 Zn1 1_555 1_555
C4 N2 1_555 1_555
N3 C4 1_555 1_555
O1 N3 1_555 1_555
C5 H4 1_555 1_555
N4 Zn1 1_555 1_555
C6 N4 1_555 1_555
H5 C6 1_555 1_555
C7 H6 1_555 1_555
N5 Zn1 1_555 1_555
C8 N5 1_555 1_555
H7 C8 1_555 1_555
Zn1Q N1Q 1_555 1_555
Zn1T N2T 1_555 1_555
Zn1U N4U 1_555 1_555
Zn1I N5I 1_555 1_555
C1Q C1 1_555 1_555
H1Q C1Q 1_555 1_555
N1Q C2 1_555 1_555
C3T C3 1_555 1_555
H3T C3T 1_555 1_555
N2T C4 1_555 1_555
N2Q Zn1Q 1_555 1_555
O1T N3 1_555 1_555
N4U C5 1_555 1_555
N4Q Zn1Q 1_555 1_555
C6U C6 1_555 1_555
H5U C6U 1_555 1_555
C7I C7 1_555 1_555
H6I C7I 1_555 1_555
N5I C8 1_555 1_555
N5Q Zn1Q 1_555 1_555
C3 N2 1_555 1_555
C5 N4 1_555 1_555
C7 N5 1_555 1_555
C1Q N1Q 1_555 1_555
C3T N2T 1_555 1_555
N4U C6U 1_555 1_555
C7I N5I 1_555 1_555

#END
