
#######################################################################
#
#                 Cambridge Crystallographic Data Centre
#                                CCDC 
#
#######################################################################
#
# If this CIF has been generated from an entry in the Cambridge 
# Structural Database, then it will include bibliographic, chemical, 
# crystal, experimental, refinement or atomic coordinate data resulting 
# from the CCDC's data processing and validation procedures.
#
#######################################################################

data_GITVAH
_chemical_formula_moiety         'C120 H60 Cl24 N78 O24 Zn30'
_symmetry_cell_setting           hexagonal
_symmetry_space_group_name_H-M   'P 63/m m c'
_symmetry_Int_Tables_number      194
_space_group_name_Hall           '-P 6c 2c'
loop_
_symmetry_equiv_pos_site_id
_symmetry_equiv_pos_as_xyz
1 x,y,z
2 -y,x-y,z
3 -x+y,-x,z
4 y,-x+y,1/2+z
5 x-y,x,1/2+z
6 y,x,-z
7 -x+y,y,1/2-z
8 x,x-y,1/2-z
9 -x,-y,1/2+z
10 x-y,-y,-z
11 -x,-x+y,-z
12 -y,-x,1/2-z
13 -x,-y,-z
14 y,-x+y,-z
15 x-y,x,-z
16 -y,x-y,1/2-z
17 -x+y,-x,1/2-z
18 -y,-x,z
19 x-y,-y,1/2+z
20 -x,-x+y,1/2+z
21 x,y,1/2-z
22 -x+y,y,z
23 x,x-y,z
24 y,x,1/2+z
_cell_length_a                   26.0840(18)
_cell_length_b                   26.0840(18)
_cell_length_c                   19.4082(18)
_cell_angle_alpha                90
_cell_angle_beta                 90
_cell_angle_gamma                120
_cell_volume                     11435.7
loop_
_atom_site_label
_atom_site_type_symbol
_atom_site_fract_x
_atom_site_fract_y
_atom_site_fract_z
Zn1 Zn 0.43519(5) 0.33203(4) 0.40422(7)
N1 N 0.3731(7) 0.3417(6) 0.4508(8)
C1 C 0.3835(4) 0.3835(4) 0.5000
H1 H 0.4199 0.4199 0.5000
C2 C 0.3176(4) 0.2953(4) 0.4759(6)
C3 C 0.2286(5) 0.2050(6) 0.4745(11)
C4 C 0.2846(5) 0.2392(5) 0.4516(7)
H2 H 0.3008 0.2242 0.4189
Cl1 Cl 0.1784(3) 0.1348(3) 0.4560(7)
N2 N 0.5156(3) 0.3983(4) 0.4297(5)
C5 C 0.5480(3) 0.4520(3) 0.4087(7)
N3 N 0.5192(6) 0.4808(6) 0.381(2)
O1 O 0.4672(8) 0.4523(6) 0.3770(12)
C6 C 0.5565(8) 0.3884(8) 0.4669(11)
H3 H 0.5490 0.3524 0.4878
N4 N 0.4056(3) 0.3223(3) 0.3090(4)
C7 C 0.4319(5) 0.3223(5) 0.2500
N5 N 0.4884(4) 0.3247(3) 0.2500
O2 O 0.5099(3) 0.3250(2) 0.3052(3)
C8 C 0.3564(5) 0.3218(4) 0.2866(6)
H4 H 0.3267 0.3215 0.3151
N6 N 0.4313(3) 0.2589(3) 0.4396(3)
C9 C 0.4359(4) 0.2179(2) 0.4044(5)
H5 H 0.4421 0.2211 0.3560
C10 C 0.4252(5) 0.2393(4) 0.5059(5)
C11 C 0.4218(9) 0.2353(9) 0.6258(7)
C12 C 0.4183(7) 0.2666(7) 0.5649(6)
H6 H 0.4125 0.2998 0.5651
Cl2 Cl 0.4055(6) 0.2793(6) 0.6976(3)
Zn1E Zn 0.33203(4) 0.43519(5) 0.59578(7)
Zn1U Zn -0.10316(6) 0.33203(4) 0.40422(7)
Zn1N Zn 0.10316(6) 0.43519(5) 0.59578(7)
Zn1J Zn -0.43519(5) -0.10316(6) 0.59578(7)
Zn1A Zn -0.33203(4) 0.10316(6) 0.40422(7)
Zn1Q Zn -0.33203(4) -0.43519(5) 0.40422(7)
Zn1L Zn -0.43519(5) -0.33203(4) 0.59578(7)
Zn1I Zn 0.10316(6) -0.33203(4) 0.59578(7)
Zn1B Zn -0.10316(6) -0.43519(5) 0.40422(7)
Zn1V Zn 0.43519(5) 0.10316(6) 0.40422(7)
Zn1M Zn 0.33203(4) -0.10316(6) 0.59578(7)
Zn1Q_2 Zn 0.66797(4) 0.56481(5) 0.40422(7)
Zn1T Zn 0.43519(5) 0.33203(4) 0.09578(7)
Zn1T_2 Zn 0.43519(5) 0.33203(4) 1.09578(7)
Zn1G Zn 0.43519(5) 0.10316(6) 1.09578(7)
Zn1L_2 Zn 0.56481(5) 0.66797(4) 0.59578(7)
Zn1W Zn 0.33203(4) 0.43519(5) 0.90422(7)
Zn1W_2 Zn 0.33203(4) 0.43519(5) -0.09578(7)
Zn1D Zn 0.10316(6) 0.43519(5) -0.09578(7)
Zn1B_2 Zn -0.10316(6) 0.56481(5) 0.40422(7)
Zn1F Zn -0.10316(6) 0.33203(4) 0.09578(7)
Zn1F_2 Zn -0.10316(6) 0.33203(4) 1.09578(7)
Zn1O Zn -0.33203(4) 0.10316(6) 1.09578(7)
Zn1I_2 Zn 0.10316(6) 0.66797(4) 0.59578(7)
Zn1D_2 Zn 0.10316(6) 0.43519(5) 0.90422(7)
Zn1M_2 Zn -0.66797(4) -0.10316(6) 0.59578(7)
Zn1S Zn -0.43519(5) -0.10316(6) 0.90422(7)
Zn1V_2 Zn -0.56481(5) 0.10316(6) 0.40422(7)
Zn1O_2 Zn -0.33203(4) 0.10316(6) 0.09578(7)
N1E N 0.3417(6) 0.3731(7) 0.5492(8)
N1U N -0.0314(9) 0.3417(6) 0.4508(8)
N1N N 0.0314(9) 0.3731(7) 0.5492(8)
N1J N -0.3731(7) -0.0314(9) 0.5492(8)
N1A N -0.3417(6) 0.0314(9) 0.4508(8)
N1Q N -0.3417(6) -0.3731(7) 0.4508(8)
N1L N -0.3731(7) -0.3417(6) 0.5492(8)
N1I N 0.0314(9) -0.3417(6) 0.5492(8)
N1B N -0.0314(9) -0.3731(7) 0.4508(8)
N1V N 0.3731(7) 0.0314(9) 0.4508(8)
N1M N 0.3417(6) -0.0314(9) 0.5492(8)
C1U C 0.0000(6) 0.3835(4) 0.5000
C1A C -0.3835(4) 0.0000(6) 0.5000
C1L C -0.3835(4) -0.3835(4) 0.5000
C1B C 0.0000(6) -0.3835(4) 0.5000
C1V C 0.3835(4) 0.0000(6) 0.5000
H1U H 0.0000 0.4199 0.5000
H1A H -0.4199 0.0000 0.5000
H1L H -0.4199 -0.4199 0.5000
H1B H -0.0000 -0.4199 0.5000
H1V H 0.4199 0.0000 0.5000
C2E C 0.2953(4) 0.3176(4) 0.5241(6)
C2U C -0.0223(6) 0.2953(4) 0.4759(6)
C2N C 0.0223(6) 0.3176(4) 0.5241(6)
C2J C -0.3176(4) -0.0223(6) 0.5241(6)
C2A C -0.2953(4) 0.0223(6) 0.4759(6)
C2Q C -0.2953(4) -0.3176(4) 0.4759(6)
C2L C -0.3176(4) -0.2953(4) 0.5241(6)
C2I C 0.0223(6) -0.2953(4) 0.5241(6)
C2B C -0.0223(6) -0.3176(4) 0.4759(6)
C2V C 0.3176(4) 0.0223(6) 0.4759(6)
C2M C 0.2953(4) -0.0223(6) 0.5241(6)
C3E C 0.2050(6) 0.2286(5) 0.5255(11)
C3N C 0.0236(8) 0.2286(5) 0.5255(11)
C3U C -0.0236(8) 0.2050(6) 0.4745(11)
C3A C -0.2050(6) 0.0236(8) 0.4745(11)
C3J C -0.2286(5) -0.0236(8) 0.5255(11)
C3L C -0.2286(5) -0.2050(6) 0.5255(11)
C3Q C -0.2050(6) -0.2286(5) 0.4745(11)
C3B C -0.0236(8) -0.2286(5) 0.4745(11)
C3I C 0.0236(8) -0.2050(6) 0.5255(11)
C3M C 0.2050(6) -0.0236(8) 0.5255(11)
C3V C 0.2286(5) 0.0236(8) 0.4745(11)
C4E C 0.2392(5) 0.2846(5) 0.5484(7)
C4U C -0.0454(7) 0.2392(5) 0.4516(7)
C4N C 0.0454(7) 0.2846(5) 0.5484(7)
C4J C -0.2846(5) -0.0454(7) 0.5484(7)
C4A C -0.2392(5) 0.0454(7) 0.4516(7)
C4Q C -0.2392(5) -0.2846(5) 0.4516(7)
C4L C -0.2846(5) -0.2392(5) 0.5484(7)
C4I C 0.0454(7) -0.2392(5) 0.5484(7)
C4B C -0.0454(7) -0.2846(5) 0.4516(7)
C4V C 0.2846(5) 0.0454(7) 0.4516(7)
C4M C 0.2392(5) -0.0454(7) 0.5484(7)
H2E H 0.2242 0.3008 0.5811
H2N H 0.0766 0.3008 0.5811
H2U H -0.0766 0.2242 0.4189
H2A H -0.2242 0.0766 0.4189
H2J H -0.3008 -0.0766 0.5811
H2L H -0.3008 -0.2242 0.5811
H2Q H -0.2242 -0.3008 0.4189
H2B H -0.0766 -0.3008 0.4189
H2I H 0.0766 -0.2242 0.5811
H2M H 0.2242 -0.0766 0.5811
H2V H 0.3008 0.0766 0.4189
Cl1E Cl 0.1348(3) 0.1784(3) 0.5440(7)
Cl1N Cl 0.0436(4) 0.1784(3) 0.5440(7)
Cl1U Cl -0.0436(4) 0.1348(3) 0.4560(7)
Cl1A Cl -0.1348(3) 0.0436(4) 0.4560(7)
Cl1J Cl -0.1784(3) -0.0436(4) 0.5440(7)
Cl1L Cl -0.1784(3) -0.1348(3) 0.5440(7)
Cl1Q Cl -0.1348(3) -0.1784(3) 0.4560(7)
Cl1B Cl -0.0436(4) -0.1784(3) 0.4560(7)
Cl1I Cl 0.0436(4) -0.1348(3) 0.5440(7)
Cl1M Cl 0.1348(3) -0.0436(4) 0.5440(7)
Cl1V Cl 0.1784(3) 0.0436(4) 0.4560(7)
N2Q N 0.6017(4) 0.4844(3) 0.4297(5)
N2E N 0.3983(4) 0.5156(3) 0.5703(5)
N2L N 0.4844(3) 0.6017(4) 0.5703(5)
N2U N -0.1173(5) 0.3983(4) 0.4297(5)
N2B N -0.1173(5) 0.4844(3) 0.4297(5)
N2N N 0.1173(5) 0.5156(3) 0.5703(5)
N2I N 0.1173(5) 0.6017(4) 0.5703(5)
N2J N -0.5156(3) -0.1173(5) 0.5703(5)
N2M N -0.6017(4) -0.1173(5) 0.5703(5)
N2A N -0.3983(4) 0.1173(5) 0.4297(5)
N2V N -0.4844(3) 0.1173(5) 0.4297(5)
N2Q_2 N -0.3983(4) -0.5156(3) 0.4297(5)
N2L_2 N -0.5156(3) -0.3983(4) 0.5703(5)
N2I_2 N 0.1173(5) -0.3983(4) 0.5703(5)
N2B_2 N -0.1173(5) -0.5156(3) 0.4297(5)
N2V_2 N 0.5156(3) 0.1173(5) 0.4297(5)
N2M_2 N 0.3983(4) -0.1173(5) 0.5703(5)
C5E C 0.4520(3) 0.5480(3) 0.5913(7)
C5B C -0.0960(4) 0.4520(3) 0.4087(7)
C5N C 0.0960(4) 0.5480(3) 0.5913(7)
C5M C -0.5480(3) -0.0960(4) 0.5913(7)
C5A C -0.4520(3) 0.0960(4) 0.4087(7)
N3E N 0.4808(6) 0.5192(6) 0.619(2)
N3B N -0.0384(8) 0.4808(6) 0.381(2)
N3N N 0.0384(8) 0.5192(6) 0.619(2)
N3M N -0.5192(6) -0.0384(8) 0.619(2)
N3A N -0.4808(6) 0.0384(8) 0.381(2)
O1Q O 0.5477(6) 0.5328(8) 0.3770(12)
O1E O 0.4523(6) 0.4672(8) 0.6230(12)
O1L O 0.5328(8) 0.5477(6) 0.6230(12)
O1U O -0.0149(10) 0.4523(6) 0.3770(12)
O1B O -0.0149(10) 0.5328(8) 0.3770(12)
O1N O 0.0149(10) 0.4672(8) 0.6230(12)
O1I O 0.0149(10) 0.5477(6) 0.6230(12)
O1J O -0.4672(8) -0.0149(10) 0.6230(12)
O1M O -0.5477(6) -0.0149(10) 0.6230(12)
O1A O -0.4523(6) 0.0149(10) 0.3770(12)
O1V O -0.5328(8) 0.0149(10) 0.3770(12)
C6Q C 0.6116(8) 0.4435(8) 0.4669(11)
C6E C 0.3884(8) 0.5565(8) 0.5331(11)
C6L C 0.4435(8) 0.6116(8) 0.5331(11)
C6U C -0.1681(11) 0.3884(8) 0.4669(11)
C6B C -0.1681(11) 0.4435(8) 0.4669(11)
C6N C 0.1681(11) 0.5565(8) 0.5331(11)
C6I C 0.1681(11) 0.6116(8) 0.5331(11)
C6J C -0.5565(8) -0.1681(11) 0.5331(11)
C6M C -0.6116(8) -0.1681(11) 0.5331(11)
C6A C -0.3884(8) 0.1681(11) 0.4669(11)
C6V C -0.4435(8) 0.1681(11) 0.4669(11)
H3Q H 0.6476 0.4510 0.4878
H3E H 0.3524 0.5490 0.5122
H3L H 0.4510 0.6476 0.5122
H3U H -0.1966 0.3524 0.4878
H3B H -0.1966 0.4510 0.4878
H3N H 0.1966 0.5490 0.5122
H3I H 0.1966 0.6476 0.5122
H3J H -0.5490 -0.1966 0.5122
H3M H -0.6476 -0.1966 0.5122
H3A H -0.3524 0.1966 0.4878
H3V H -0.4510 0.1966 0.4878
N4T N 0.4056(3) 0.3223(3) 0.1910(4)
N4E N 0.3223(3) 0.4056(3) 0.6910(4)
N4W N 0.3223(3) 0.4056(3) 0.8090(4)
N4U N -0.0833(4) 0.3223(3) 0.3090(4)
N4F N -0.0833(4) 0.3223(3) 0.1910(4)
N4N N 0.0833(4) 0.4056(3) 0.6910(4)
N4D N 0.0833(4) 0.4056(3) 0.8090(4)
N4J N -0.4056(3) -0.0833(4) 0.6910(4)
N4S N -0.4056(3) -0.0833(4) 0.8090(4)
N4A N -0.3223(3) 0.0833(4) 0.3090(4)
N4O N -0.3223(3) 0.0833(4) 0.1910(4)
N4Q N -0.3223(3) -0.4056(3) 0.3090(4)
N4L N -0.4056(3) -0.3223(3) 0.6910(4)
N4I N 0.0833(4) -0.3223(3) 0.6910(4)
N4B N -0.0833(4) -0.4056(3) 0.3090(4)
N4V N 0.4056(3) 0.0833(4) 0.3090(4)
N4M N 0.3223(3) -0.0833(4) 0.6910(4)
C7E C 0.3223(5) 0.4319(5) 0.7500
C7F C -0.1096(7) 0.3223(5) 0.2500
C7D C 0.1096(7) 0.4319(5) 0.7500
C7S C -0.4319(5) -0.1096(7) 0.7500
C7A C -0.3223(5) 0.1096(7) 0.2500
N5E N 0.3247(3) 0.4884(4) 0.7500
N5F N -0.1637(5) 0.3247(3) 0.2500
N5D N 0.1637(5) 0.4884(4) 0.7500
N5S N -0.4884(4) -0.1637(5) 0.7500
N5A N -0.3247(3) 0.1637(5) 0.2500
O2T O 0.5099(3) 0.3250(2) 0.1948(3)
O2E O 0.3250(2) 0.5099(3) 0.6948(3)
O2W O 0.3250(2) 0.5099(3) 0.8052(3)
O2U O -0.1849(4) 0.3250(2) 0.3052(3)
O2F O -0.1849(4) 0.3250(2) 0.1948(3)
O2N O 0.1849(4) 0.5099(3) 0.6948(3)
O2D O 0.1849(4) 0.5099(3) 0.8052(3)
O2J O -0.5099(3) -0.1849(4) 0.6948(3)
O2S O -0.5099(3) -0.1849(4) 0.8052(3)
O2A O -0.3250(2) 0.1849(4) 0.3052(3)
O2O O -0.3250(2) 0.1849(4) 0.1948(3)
C8T C 0.3564(5) 0.3218(4) 0.2134(6)
C8E C 0.3218(4) 0.3564(5) 0.7134(6)
C8W C 0.3218(4) 0.3564(5) 0.7866(6)
C8U C -0.0346(6) 0.3218(4) 0.2866(6)
C8F C -0.0346(6) 0.3218(4) 0.2134(6)
C8N C 0.0346(6) 0.3564(5) 0.7134(6)
C8D C 0.0346(6) 0.3564(5) 0.7866(6)
C8J C -0.3564(5) -0.0346(6) 0.7134(6)
C8S C -0.3564(5) -0.0346(6) 0.7866(6)
C8A C -0.3218(4) 0.0346(6) 0.2866(6)
C8O C -0.3218(4) 0.0346(6) 0.2134(6)
H4T H 0.3267 0.3215 0.1849
H4E H 0.3215 0.3267 0.6849
H4W H 0.3215 0.3267 0.8151
H4U H -0.0052 0.3215 0.3151
H4F H -0.0052 0.3215 0.1849
H4N H 0.0052 0.3267 0.6849
H4D H 0.0052 0.3267 0.8151
H4J H -0.3267 -0.0052 0.6849
H4S H -0.3267 -0.0052 0.8151
H4A H -0.3215 0.0052 0.3151
H4O H -0.3215 0.0052 0.1849
N6V N 0.4313(3) 0.1724(4) 0.4396(3)
N6T N 0.4313(3) 0.2589(3) 1.0604(3)
N6G N 0.4313(3) 0.1724(4) 1.0604(3)
N6E N 0.2589(3) 0.4313(3) 0.5604(3)
N6N N 0.1724(4) 0.4313(3) 0.5604(3)
N6W N 0.2589(3) 0.4313(3) -0.0604(3)
N6D N 0.1724(4) 0.4313(3) -0.0604(3)
N6U N -0.1724(4) 0.2589(3) 0.4396(3)
N6A N -0.2589(3) 0.1724(4) 0.4396(3)
N6F N -0.1724(4) 0.2589(3) 1.0604(3)
N6O N -0.2589(3) 0.1724(4) 1.0604(3)
N6J N -0.4313(3) -0.1724(4) 0.5604(3)
N6Q N -0.2589(3) -0.4313(3) 0.4396(3)
N6L N -0.4313(3) -0.2589(3) 0.5604(3)
N6I N 0.1724(4) -0.2589(3) 0.5604(3)
N6B N -0.1724(4) -0.4313(3) 0.4396(3)
N6M N 0.2589(3) -0.1724(4) 0.5604(3)
C9T C 0.4359(4) 0.2179(2) 1.0956(5)
C9E C 0.2179(2) 0.4359(4) 0.5956(5)
C9W C 0.2179(2) 0.4359(4) -0.0956(5)
C9U C -0.2180(4) 0.2179(2) 0.4044(5)
C9F C -0.2180(4) 0.2179(2) 1.0956(5)
H5T H 0.4421 0.2211 1.1440
H5E H 0.2211 0.4421 0.6440
H5W H 0.2211 0.4421 -0.1440
H5U H -0.2210 0.2211 0.3560
H5F H -0.2210 0.2211 1.1440
C10V C 0.4252(5) 0.1859(6) 0.5059(5)
C10T C 0.4252(5) 0.2393(4) 0.9941(5)
C10G C 0.4252(5) 0.1859(6) 0.9941(5)
C10E C 0.2393(4) 0.4252(5) 0.4941(5)
C10N C 0.1859(6) 0.4252(5) 0.4941(5)
C10W C 0.2393(4) 0.4252(5) 0.0059(5)
C10D C 0.1859(6) 0.4252(5) 0.0059(5)
C10U C -0.1859(6) 0.2393(4) 0.5059(5)
C10A C -0.2393(4) 0.1859(6) 0.5059(5)
C10F C -0.1859(6) 0.2393(4) 0.9941(5)
C10O C -0.2393(4) 0.1859(6) 0.9941(5)
C11V C 0.4218(9) 0.1865(13) 0.6258(7)
C11G C 0.4218(9) 0.1865(13) 0.8742(7)
C11T C 0.4218(9) 0.2353(9) 0.8742(7)
C11E C 0.2353(9) 0.4218(9) 0.3742(7)
C11N C 0.1865(13) 0.4218(9) 0.3742(7)
C11D C 0.1865(13) 0.4218(9) 0.1258(7)
C11W C 0.2353(9) 0.4218(9) 0.1258(7)
C11U C -0.1865(13) 0.2353(9) 0.6258(7)
C11A C -0.2353(9) 0.1865(13) 0.6258(7)
C11O C -0.2353(9) 0.1865(13) 0.8742(7)
C11F C -0.1865(13) 0.2353(9) 0.8742(7)
C12V C 0.4183(7) 0.1517(10) 0.5649(6)
C12T C 0.4183(7) 0.2666(7) 0.9351(6)
C12G C 0.4183(7) 0.1517(10) 0.9351(6)
C12E C 0.2666(7) 0.4183(7) 0.4351(6)
C12N C 0.1517(10) 0.4183(7) 0.4351(6)
C12W C 0.2666(7) 0.4183(7) 0.0649(6)
C12D C 0.1517(10) 0.4183(7) 0.0649(6)
C12U C -0.1517(10) 0.2666(7) 0.5649(6)
C12A C -0.2666(7) 0.1517(10) 0.5649(6)
C12F C -0.1517(10) 0.2666(7) 0.9351(6)
C12O C -0.2666(7) 0.1517(10) 0.9351(6)
H6V H 0.4125 0.1127 0.5651
H6G H 0.4125 0.1127 0.9349
H6T H 0.4125 0.2998 0.9349
H6E H 0.2998 0.4125 0.4349
H6N H 0.1127 0.4125 0.4349
H6D H 0.1127 0.4125 0.0651
H6W H 0.2998 0.4125 0.0651
H6U H -0.1127 0.2998 0.5651
H6A H -0.2998 0.1127 0.5651
H6O H -0.2998 0.1127 0.9349
H6F H -0.1127 0.2998 0.9349
Cl2V Cl 0.4055(6) 0.1262(8) 0.6976(3)
Cl2G Cl 0.4055(6) 0.1262(8) 0.8024(3)
Cl2T Cl 0.4055(6) 0.2793(6) 0.8024(3)
Cl2E Cl 0.2793(6) 0.4055(6) 0.3024(3)
Cl2N Cl 0.1262(8) 0.4055(6) 0.3024(3)
Cl2D Cl 0.1262(8) 0.4055(6) 0.1976(3)
Cl2W Cl 0.2793(6) 0.4055(6) 0.1976(3)
Cl2U Cl -0.1262(8) 0.2793(6) 0.6976(3)
Cl2A Cl -0.2793(6) 0.1262(8) 0.6976(3)
Cl2O Cl -0.2793(6) 0.1262(8) 0.8024(3)
Cl2F Cl -0.1262(8) 0.2793(6) 0.8024(3)
loop_
_geom_bond_atom_site_label_1
_geom_bond_atom_site_label_2
_geom_bond_site_symmetry_1
_geom_bond_site_symmetry_2
Zn1 N1 1_555 1_555
N1 C1 1_555 1_555
C1 H1 1_555 1_555
C2 N1 1_555 1_555
C3 C4 1_555 1_555
C4 C2 1_555 1_555
H2 C4 1_555 1_555
Cl1 C3 1_555 1_555
N2 Zn1 1_555 1_555
C5 N2 1_555 1_555
N3 C5 1_555 1_555
O1 N3 1_555 1_555
C6 N2 1_555 1_555
H3 C6 1_555 1_555
N4 Zn1 1_555 1_555
C7 N4 1_555 1_555
N5 C7 1_555 1_555
O2 N5 1_555 1_555
C8 N4 1_555 1_555
H4 C8 1_555 1_555
N6 Zn1 1_555 1_555
C9 N6 1_555 1_555
H5 C9 1_555 1_555
C10 N6 1_555 1_555
C11 C12 1_555 1_555
C12 C10 1_555 1_555
H6 C12 1_555 1_555
Cl2 C11 1_555 1_555
Zn1E N1E 1_555 1_555
Zn1U N1U 1_555 1_555
Zn1N N1N 1_555 1_555
Zn1J N1J 1_555 1_555
Zn1A N1A 1_555 1_555
Zn1Q N1Q 1_555 1_555
Zn1L N1L 1_555 1_555
Zn1I N1I 1_555 1_555
Zn1B N1B 1_555 1_555
Zn1V N1V 1_555 1_555
Zn1M N1M 1_555 1_555
Zn1Q_2 N2Q 1_555 1_555
Zn1T N4T 1_555 1_555
Zn1T_2 N6T 1_555 1_555
Zn1G N6G 1_555 1_555
Zn1L_2 N2L 1_555 1_555
Zn1W N4W 1_555 1_555
Zn1W_2 N6W 1_555 1_555
Zn1D N6D 1_555 1_555
Zn1B_2 N2B 1_555 1_555
Zn1F N4F 1_555 1_555
Zn1F_2 N6F 1_555 1_555
Zn1O N6O 1_555 1_555
Zn1I_2 N2I 1_555 1_555
Zn1D_2 N4D 1_555 1_555
Zn1M_2 N2M 1_555 1_555
Zn1S N4S 1_555 1_555
Zn1V_2 N2V 1_555 1_555
Zn1O_2 N4O 1_555 1_555
N1E C1 1_555 1_555
N1U C1U 1_555 1_555
N1N C1U 1_555 1_555
N1J C1A 1_555 1_555
N1A C1A 1_555 1_555
N1Q C1L 1_555 1_555
N1L C1L 1_555 1_555
N1I C1B 1_555 1_555
N1B C1B 1_555 1_555
N1V C1V 1_555 1_555
N1M C1V 1_555 1_555
C1U H1U 1_555 1_555
C1A H1A 1_555 1_555
C1L H1L 1_555 1_555
C1B H1B 1_555 1_555
C1V H1V 1_555 1_555
C2E C2 1_555 1_555
C2U N1U 1_555 1_555
C2N N1N 1_555 1_555
C2J N1J 1_555 1_555
C2A N1A 1_555 1_555
C2Q N1Q 1_555 1_555
C2L N1L 1_555 1_555
C2I N1I 1_555 1_555
C2B N1B 1_555 1_555
C2V N1V 1_555 1_555
C2M N1M 1_555 1_555
C3E C3 1_555 1_555
C3N C3U 1_555 1_555
C3U C4U 1_555 1_555
C3A C3J 1_555 1_555
C3J C4J 1_555 1_555
C3L C3Q 1_555 1_555
C3Q C4Q 1_555 1_555
C3B C3I 1_555 1_555
C3I C4I 1_555 1_555
C3M C3V 1_555 1_555
C3V C4V 1_555 1_555
C4E C2E 1_555 1_555
C4U C2U 1_555 1_555
C4N C2N 1_555 1_555
C4J C2J 1_555 1_555
C4A C2A 1_555 1_555
C4Q C2Q 1_555 1_555
C4L C2L 1_555 1_555
C4I C2I 1_555 1_555
C4B C2B 1_555 1_555
C4V C2V 1_555 1_555
C4M C2M 1_555 1_555
H2E C4E 1_555 1_555
H2N C4N 1_555 1_555
H2U C4U 1_555 1_555
H2A C4A 1_555 1_555
H2J C4J 1_555 1_555
H2L C4L 1_555 1_555
H2Q C4Q 1_555 1_555
H2B C4B 1_555 1_555
H2I C4I 1_555 1_555
H2M C4M 1_555 1_555
H2V C4V 1_555 1_555
Cl1E C3E 1_555 1_555
Cl1N C3N 1_555 1_555
Cl1U C3U 1_555 1_555
Cl1A C3A 1_555 1_555
Cl1J C3J 1_555 1_555
Cl1L C3L 1_555 1_555
Cl1Q C3Q 1_555 1_555
Cl1B C3B 1_555 1_555
Cl1I C3I 1_555 1_555
Cl1M C3M 1_555 1_555
Cl1V Cl1 1_555 1_555
N2Q C5 1_555 1_555
N2E Zn1E 1_555 1_555
N2L C5E 1_555 1_555
N2U Zn1U 1_555 1_555
N2B C5B 1_555 1_555
N2N Zn1N 1_555 1_555
N2I C5N 1_555 1_555
N2J Zn1J 1_555 1_555
N2M C5M 1_555 1_555
N2A Zn1A 1_555 1_555
N2V C5A 1_555 1_555
N2Q_2 Zn1Q 1_555 1_555
N2L_2 Zn1L 1_555 1_555
N2I_2 Zn1I 1_555 1_555
N2B_2 Zn1B 1_555 1_555
N2V_2 Zn1V 1_555 1_555
N2M_2 Zn1M 1_555 1_555
C5E N2E 1_555 1_555
C5B N2U 1_555 1_555
C5N N2N 1_555 1_555
C5M N2J 1_555 1_555
C5A N2A 1_555 1_555
N3E C5E 1_555 1_555
N3B C5B 1_555 1_555
N3N C5N 1_555 1_555
N3M C5M 1_555 1_555
N3A C5A 1_555 1_555
O1Q N3 1_555 1_555
O1E N3E 1_555 1_555
O1L N3E 1_555 1_555
O1U N3B 1_555 1_555
O1B N3B 1_555 1_555
O1N N3N 1_555 1_555
O1I N3N 1_555 1_555
O1J N3M 1_555 1_555
O1M N3M 1_555 1_555
O1A N3A 1_555 1_555
O1V N3A 1_555 1_555
C6Q C6 1_555 1_555
C6E N2E 1_555 1_555
C6L N2L 1_555 1_555
C6U N2U 1_555 1_555
C6B N2B 1_555 1_555
C6N N2N 1_555 1_555
C6I N2I 1_555 1_555
C6J N2J 1_555 1_555
C6M N2M 1_555 1_555
C6A N2A 1_555 1_555
C6V N2V 1_555 1_555
H3Q C6Q 1_555 1_555
H3E C6E 1_555 1_555
H3L C6L 1_555 1_555
H3U C6U 1_555 1_555
H3B C6B 1_555 1_555
H3N C6N 1_555 1_555
H3I C6I 1_555 1_555
H3J C6J 1_555 1_555
H3M C6M 1_555 1_555
H3A C6A 1_555 1_555
H3V C6V 1_555 1_555
N4T C7 1_555 1_555
N4E Zn1E 1_555 1_555
N4W C7E 1_555 1_555
N4U Zn1U 1_555 1_555
N4F C7F 1_555 1_555
N4N Zn1N 1_555 1_555
N4D C7D 1_555 1_555
N4J Zn1J 1_555 1_555
N4S C7S 1_555 1_555
N4A Zn1A 1_555 1_555
N4O C7A 1_555 1_555
N4Q Zn1Q 1_555 1_555
N4L Zn1L 1_555 1_555
N4I Zn1I 1_555 1_555
N4B Zn1B 1_555 1_555
N4V Zn1V 1_555 1_555
N4M Zn1M 1_555 1_555
C7E N4E 1_555 1_555
C7F N4U 1_555 1_555
C7D N4N 1_555 1_555
C7S N4J 1_555 1_555
C7A N4A 1_555 1_555
N5E C7E 1_555 1_555
N5F C7F 1_555 1_555
N5D C7D 1_555 1_555
N5S C7S 1_555 1_555
N5A C7A 1_555 1_555
O2T N5 1_555 1_555
O2E N5E 1_555 1_555
O2W N5E 1_555 1_555
O2U N5F 1_555 1_555
O2F N5F 1_555 1_555
O2N N5D 1_555 1_555
O2D N5D 1_555 1_555
O2J N5S 1_555 1_555
O2S N5S 1_555 1_555
O2A N5A 1_555 1_555
O2O N5A 1_555 1_555
C8T C8 1_555 1_555
C8E N4E 1_555 1_555
C8W N4W 1_555 1_555
C8U N4U 1_555 1_555
C8F N4F 1_555 1_555
C8N N4N 1_555 1_555
C8D N4D 1_555 1_555
C8J N4J 1_555 1_555
C8S N4S 1_555 1_555
C8A N4A 1_555 1_555
C8O N4O 1_555 1_555
H4T C8T 1_555 1_555
H4E C8E 1_555 1_555
H4W C8W 1_555 1_555
H4U C8U 1_555 1_555
H4F C8F 1_555 1_555
H4N C8N 1_555 1_555
H4D C8D 1_555 1_555
H4J C8J 1_555 1_555
H4S C8S 1_555 1_555
H4A C8A 1_555 1_555
H4O C8O 1_555 1_555
N6V C9 1_555 1_555
N6T C9T 1_555 1_555
N6G C9T 1_555 1_555
N6E Zn1E 1_555 1_555
N6N Zn1N 1_555 1_555
N6W C9W 1_555 1_555
N6D C9W 1_555 1_555
N6U Zn1U 1_555 1_555
N6A Zn1A 1_555 1_555
N6F C9F 1_555 1_555
N6O C9F 1_555 1_555
N6J Zn1J 1_555 1_555
N6Q Zn1Q 1_555 1_555
N6L Zn1L 1_555 1_555
N6I Zn1I 1_555 1_555
N6B Zn1B 1_555 1_555
N6M Zn1M 1_555 1_555
C9T H5T 1_555 1_555
C9E N6E 1_555 1_555
C9W H5W 1_555 1_555
C9U N6U 1_555 1_555
C9F H5F 1_555 1_555
H5E C9E 1_555 1_555
H5U C9U 1_555 1_555
C10V C10 1_555 1_555
C10T N6T 1_555 1_555
C10G N6G 1_555 1_555
C10E N6E 1_555 1_555
C10N N6N 1_555 1_555
C10W N6W 1_555 1_555
C10D N6D 1_555 1_555
C10U N6U 1_555 1_555
C10A N6A 1_555 1_555
C10F N6F 1_555 1_555
C10O N6O 1_555 1_555
C11V C11 1_555 1_555
C11G C11T 1_555 1_555
C11T C12T 1_555 1_555
C11E C11N 1_555 1_555
C11N C12N 1_555 1_555
C11D C11W 1_555 1_555
C11W C12W 1_555 1_555
C11U C11A 1_555 1_555
C11A C12A 1_555 1_555
C11O C11F 1_555 1_555
C11F C12F 1_555 1_555
C12V C10V 1_555 1_555
C12T C10T 1_555 1_555
C12G C10G 1_555 1_555
C12E C10E 1_555 1_555
C12N C10N 1_555 1_555
C12W C10W 1_555 1_555
C12D C10D 1_555 1_555
C12U C10U 1_555 1_555
C12A C10A 1_555 1_555
C12F C10F 1_555 1_555
C12O C10O 1_555 1_555
H6V C12V 1_555 1_555
H6G C12G 1_555 1_555
H6T C12T 1_555 1_555
H6E C12E 1_555 1_555
H6N C12N 1_555 1_555
H6D C12D 1_555 1_555
H6W C12W 1_555 1_555
H6U C12U 1_555 1_555
H6A C12A 1_555 1_555
H6O C12O 1_555 1_555
H6F C12F 1_555 1_555
Cl2V C11V 1_555 1_555
Cl2G C11G 1_555 1_555
Cl2T Cl2 1_555 1_555
Cl2E C11E 1_555 1_555
Cl2N C11N 1_555 1_555
Cl2D C11D 1_555 1_555
Cl2W C11W 1_555 1_555
Cl2U C11U 1_555 1_555
Cl2A C11A 1_555 1_555
Cl2O C11O 1_555 1_555
Cl2F C11F 1_555 1_555
Zn1V N6V 1_555 1_555
N1E C2E 1_555 1_555
C2U C2N 1_555 1_555
C2J C2A 1_555 1_555
C2Q C2L 1_555 1_555
C2I C2B 1_555 1_555
C2V C2M 1_555 1_555
C3E C4E 1_555 1_555
C3N C4N 1_555 1_555
C3A C4A 1_555 1_555
C3L C4L 1_555 1_555
C3B C4B 1_555 1_555
C3M C4M 1_555 1_555
C3V Cl1V 1_555 1_555
Cl1E Cl1N 1_555 1_555
Cl1U Cl1A 1_555 1_555
Cl1J Cl1L 1_555 1_555
Cl1Q Cl1B 1_555 1_555
Cl1I Cl1M 1_555 1_555
N2Q C6Q 1_555 1_555
C6E C6L 1_555 1_555
C6U C6B 1_555 1_555
C6N C6I 1_555 1_555
C6J C6M 1_555 1_555
C6A C6V 1_555 1_555
N4T C8T 1_555 1_555
C8E C8W 1_555 1_555
C8U C8F 1_555 1_555
C8N C8D 1_555 1_555
C8J C8S 1_555 1_555
C8A C8O 1_555 1_555
N6V C10V 1_555 1_555
N6N C9E 1_555 1_555
N6A C9U 1_555 1_555
C10T C10G 1_555 1_555
C10E C10N 1_555 1_555
C10W C10D 1_555 1_555
C10U C10A 1_555 1_555
C10F C10O 1_555 1_555
C11V C12V 1_555 1_555
C11G C12G 1_555 1_555
C11T Cl2T 1_555 1_555
C11E C12E 1_555 1_555
C11D C12D 1_555 1_555
C11U C12U 1_555 1_555
C11O C12O 1_555 1_555
Cl2V Cl2G 1_555 1_555
Cl2E Cl2W 1_555 1_555
Cl2N Cl2D 1_555 1_555
Cl2U Cl2F 1_555 1_555
Cl2A Cl2O 1_555 1_555

#END
