
#######################################################################
#
#                 Cambridge Crystallographic Data Centre
#                                CCDC 
#
#######################################################################
#
# If this CIF has been generated from an entry in the Cambridge 
# Structural Database, then it will include bibliographic, chemical, 
# crystal, experimental, refinement or atomic coordinate data resulting 
# from the CCDC's data processing and validation procedures.
#
#######################################################################

data_GITWIQ
_chemical_formula_moiety         '(C30 H20 N30 O20 Zn5)n'
_symmetry_cell_setting           orthorhombic
_symmetry_space_group_name_H-M   'I b a m'
_symmetry_Int_Tables_number      72
_space_group_name_Hall           '-I 2 2c'
loop_
_symmetry_equiv_pos_site_id
_symmetry_equiv_pos_as_xyz
1 x,y,z
2 1/2+x,1/2+y,1/2+z
3 -x,-y,z
4 1/2-x,1/2+y,-z
5 1/2+x,1/2-y,-z
6 1/2-x,1/2-y,1/2+z
7 -x,y,1/2-z
8 x,-y,1/2-z
9 -x,-y,-z
10 1/2-x,1/2-y,1/2-z
11 x,y,-z
12 1/2+x,1/2-y,z
13 1/2-x,1/2+y,z
14 1/2+x,1/2+y,1/2-z
15 x,-y,1/2+z
16 -x,y,1/2+z
_cell_length_a                   11.1248(6)
_cell_length_b                   22.3469(12)
_cell_length_c                   24.9087(14)
_cell_angle_alpha                90
_cell_angle_beta                 90
_cell_angle_gamma                90
_cell_volume                     6192.42
loop_
_atom_site_label
_atom_site_type_symbol
_atom_site_fract_x
_atom_site_fract_y
_atom_site_fract_z
Zn1 Zn 0.71932(5) 0.30266(3) 0.37447(2)
Zn2 Zn 0.5000 0.5000 0.2500
O1 O 0.6084(3) 0.39065(15) 0.21617(14)
O2 O 0.6969(3) 0.31928(16) 0.26040(13)
O3 O 0.4825(3) 0.35606(18) 0.40307(18)
O4 O 0.8788(4) 0.36416(19) 0.45653(17)
O5 O 0.3008(3) 0.32067(18) 0.39624(19)
N1 N 0.6142(3) 0.46247(17) 0.30361(16)
N2 N 0.7080(3) 0.38935(18) 0.34987(16)
N3 N 0.6530(4) 0.36984(18) 0.25738(16)
N4 N 0.7022(5) 0.2845(2) 0.45465(19)
N5 N 0.8393(5) 0.3481(3) 0.5000
N6 N 0.5711(4) 0.25896(19) 0.34862(15)
N7 N 0.3839(3) 0.22042(18) 0.34854(15)
N8 N 0.4107(4) 0.3172(2) 0.38919(19)
C1 C 0.6421(5) 0.4829(2) 0.3534(2)
H1 H 0.6245 0.5217 0.3667
C2 C 0.6994(5) 0.4387(2) 0.3815(2)
H2 H 0.7285 0.4420 0.4172
C3 C 0.6569(4) 0.4068(2) 0.30411(19)
C4 C 0.7413(8) 0.3048(3) 0.5000
C5 C 0.6151(5) 0.2408(3) 0.4726(2)
H3 H 0.5664 0.2164 0.4502
C6 C 0.4550(4) 0.2651(2) 0.36273(19)
C7 C 0.4592(5) 0.1825(2) 0.3226(2)
H4 H 0.4366 0.1454 0.3069
C8 C 0.5722(5) 0.2057(2) 0.3228(2)
H5 H 0.6409 0.1874 0.3072
Zn1B Zn 0.28068(5) 0.69734(3) 0.37447(2)
Zn1F Zn 0.28068(5) 0.30266(3) 0.12553(2)
Zn1G Zn 0.71932(5) 0.69734(3) 0.12553(2)
Zn1K Zn 0.21932(5) 0.19734(3) 0.37447(2)
Zn1J Zn 0.71932(5) 0.30266(3) 0.62553(2)
Zn1K_2 Zn 1.21932(5) 0.19734(3) 0.37447(2)
Zn1H Zn 0.28068(5) 0.69734(3) 0.62553(2)
Zn1L Zn 0.78068(5) 0.80266(3) 0.37447(2)
Zn1L_2 Zn -0.21932(5) 0.80266(3) 0.37447(2)
O1B O 0.3916(3) 0.60935(15) 0.21617(14)
O1F O 0.3916(3) 0.39065(15) 0.28383(14)
O1G O 0.6084(3) 0.60935(15) 0.28383(14)
O2B O 0.3031(3) 0.68072(16) 0.26040(13)
O2F O 0.3031(3) 0.31928(16) 0.23960(13)
O2G O 0.6969(3) 0.68072(16) 0.23960(13)
O3K O 0.9825(3) 0.14394(18) 0.40307(18)
O3B O 0.5175(3) 0.64394(18) 0.40307(18)
O3L O 0.0175(3) 0.85606(18) 0.40307(18)
O4J O 0.8788(4) 0.36416(19) 0.54347(17)
O4B O 0.1212(4) 0.63584(19) 0.45653(17)
O4H O 0.1212(4) 0.63584(19) 0.54347(17)
O5K O 0.8008(3) 0.17933(18) 0.39624(19)
O5B O 0.6992(3) 0.67933(18) 0.39624(19)
O5L O 0.1992(3) 0.82067(18) 0.39624(19)
N1B N 0.3858(3) 0.53753(17) 0.30361(16)
N1F N 0.3858(3) 0.46247(17) 0.19639(16)
N1G N 0.6142(3) 0.53753(17) 0.19639(16)
N2B N 0.2920(3) 0.61065(18) 0.34987(16)
N2F N 0.2920(3) 0.38935(18) 0.15013(16)
N2G N 0.7080(3) 0.61065(18) 0.15013(16)
N3B N 0.3470(4) 0.63016(18) 0.25738(16)
N3F N 0.3470(4) 0.36984(18) 0.24262(16)
N3G N 0.6530(4) 0.63016(18) 0.24262(16)
N4J N 0.7022(5) 0.2845(2) 0.54535(19)
N4B N 0.2978(5) 0.7155(2) 0.45465(19)
N4H N 0.2978(5) 0.7155(2) 0.54535(19)
N4F N 0.2978(5) 0.2845(2) 0.04535(19)
N4G N 0.7022(5) 0.7155(2) 0.04535(19)
N5H N 0.1607(5) 0.6519(3) 0.5000
N6K N 1.0711(4) 0.24104(19) 0.34862(15)
N6B N 0.4289(4) 0.74104(19) 0.34862(15)
N6L N -0.0711(4) 0.75896(19) 0.34862(15)
N6F N 0.4289(4) 0.25896(19) 0.15138(15)
N6G N 0.5711(4) 0.74104(19) 0.15138(15)
N7K N 0.8839(3) 0.27958(18) 0.34854(15)
N7B N 0.6161(3) 0.77958(18) 0.34854(15)
N7L N 0.1161(3) 0.72042(18) 0.34854(15)
N7I N 0.1161(3) 0.27958(18) 0.15146(15)
N7M N 0.8839(3) 0.72042(18) 0.15146(15)
N8K N 0.9107(4) 0.1828(2) 0.38919(19)
N8B N 0.5893(4) 0.6828(2) 0.38919(19)
N8L N 0.0893(4) 0.8172(2) 0.38919(19)
C1B C 0.3579(5) 0.5171(2) 0.3534(2)
C1F C 0.3579(5) 0.4829(2) 0.1466(2)
C1G C 0.6421(5) 0.5171(2) 0.1466(2)
H1B H 0.3755 0.4783 0.3667
H1F H 0.3755 0.5217 0.1333
H1G H 0.6245 0.4783 0.1333
C2B C 0.3006(5) 0.5613(2) 0.3815(2)
C2F C 0.3006(5) 0.4387(2) 0.1185(2)
C2G C 0.6994(5) 0.5613(2) 0.1185(2)
H2B H 0.2715 0.5580 0.4172
H2F H 0.2715 0.4420 0.0828
H2G H 0.7285 0.5580 0.0828
C3B C 0.3431(4) 0.5932(2) 0.30411(19)
C3F C 0.3431(4) 0.4068(2) 0.19589(19)
C3G C 0.6569(4) 0.5932(2) 0.19589(19)
C4H C 0.2587(8) 0.6952(3) 0.5000
C5J C 0.6151(5) 0.2408(3) 0.5274(2)
C5B C 0.3849(5) 0.7592(3) 0.4726(2)
C5H C 0.3849(5) 0.7592(3) 0.5274(2)
H3J H 0.5664 0.2164 0.5498
H3B H 0.4336 0.7836 0.4502
H3H H 0.4336 0.7836 0.5498
C6K C 0.9550(4) 0.2349(2) 0.36273(19)
C6B C 0.5450(4) 0.7349(2) 0.36273(19)
C6L C 0.0450(4) 0.7651(2) 0.36273(19)
C7K C 0.9592(5) 0.3175(2) 0.3226(2)
C7B C 0.5408(5) 0.8175(2) 0.3226(2)
C7L C 0.0408(5) 0.6825(2) 0.3226(2)
H4K H 0.9366 0.3546 0.3069
H4B H 0.5634 0.8546 0.3069
H4L H 0.0634 0.6454 0.3069
C8K C 1.0722(5) 0.2943(2) 0.3228(2)
C8B C 0.4278(5) 0.7943(2) 0.3228(2)
C8L C -0.0722(5) 0.7057(2) 0.3228(2)
H5K H 1.1409 0.3126 0.3072
H5B H 0.3591 0.8126 0.3072
H5L H -0.1409 0.6874 0.3072
loop_
_geom_bond_atom_site_label_1
_geom_bond_atom_site_label_2
_geom_bond_site_symmetry_1
_geom_bond_site_symmetry_2
Zn1 N2 1_555 1_555
Zn2 N1 1_555 1_555
O1 N3 1_555 1_555
O2 N3 1_555 1_555
O3 N8 1_555 1_555
O4 N5 1_555 1_555
O5 N8 1_555 1_555
N1 C1 1_555 1_555
N2 C2 1_555 1_555
N3 C3 1_555 1_555
N4 Zn1 1_555 1_555
N5 C4 1_555 1_555
N6 Zn1 1_555 1_555
N7 C6 1_555 1_555
N8 C6 1_555 1_555
C1 H1 1_555 1_555
C2 C1 1_555 1_555
H2 C2 1_555 1_555
C3 N1 1_555 1_555
C4 N4 1_555 1_555
C5 N4 1_555 1_555
H3 C5 1_555 1_555
C6 N6 1_555 1_555
C7 N7 1_555 1_555
H4 C7 1_555 1_555
C8 N6 1_555 1_555
H5 C8 1_555 1_555
Zn1B N2B 1_555 1_555
Zn1F N2F 1_555 1_555
Zn1G N2G 1_555 1_555
Zn1K N7 1_555 1_555
Zn1J N4J 1_555 1_555
Zn1K_2 N6K 1_555 1_555
Zn1H N4H 1_555 1_555
Zn1L N7B 1_555 1_555
Zn1L_2 N6L 1_555 1_555
O1B N3B 1_555 1_555
O1F N3F 1_555 1_555
O1G N3G 1_555 1_555
O2B N3B 1_555 1_555
O2F N3F 1_555 1_555
O2G N3G 1_555 1_555
O3K N8K 1_555 1_555
O3B N8B 1_555 1_555
O3L N8L 1_555 1_555
O4J N5 1_555 1_555
O4B N5H 1_555 1_555
O4H N5H 1_555 1_555
O5K N8K 1_555 1_555
O5B N8B 1_555 1_555
O5L N8L 1_555 1_555
N1B Zn2 1_555 1_555
N1F Zn2 1_555 1_555
N1G Zn2 1_555 1_555
N2B C2B 1_555 1_555
N2F C2F 1_555 1_555
N2G C2G 1_555 1_555
N3B C3B 1_555 1_555
N3F C3F 1_555 1_555
N3G C3G 1_555 1_555
N4J C4 1_555 1_555
N4B Zn1B 1_555 1_555
N4H C4H 1_555 1_555
N4F Zn1F 1_555 1_555
N4G Zn1G 1_555 1_555
N5H C4H 1_555 1_555
N6K C6K 1_555 1_555
N6B Zn1B 1_555 1_555
N6L C6L 1_555 1_555
N6F Zn1F 1_555 1_555
N6G Zn1G 1_555 1_555
N7K Zn1 1_555 1_555
N7B C6B 1_555 1_555
N7L Zn1B 1_555 1_555
N7I Zn1F 1_555 1_555
N7M Zn1G 1_555 1_555
N8K C6K 1_555 1_555
N8B C6B 1_555 1_555
N8L C6L 1_555 1_555
C1B N1B 1_555 1_555
C1F N1F 1_555 1_555
C1G N1G 1_555 1_555
H1B C1B 1_555 1_555
H1F C1F 1_555 1_555
H1G C1G 1_555 1_555
C2B C1B 1_555 1_555
C2F C1F 1_555 1_555
C2G C1G 1_555 1_555
H2B C2B 1_555 1_555
H2F C2F 1_555 1_555
H2G C2G 1_555 1_555
C3B N1B 1_555 1_555
C3F N1F 1_555 1_555
C3G N1G 1_555 1_555
C4H N4B 1_555 1_555
C5J C5 1_555 1_555
C5B N4B 1_555 1_555
C5H N4H 1_555 1_555
H3J C5J 1_555 1_555
H3B C5B 1_555 1_555
H3H C5H 1_555 1_555
C6K N7K 1_555 1_555
C6B N6B 1_555 1_555
C6L N7L 1_555 1_555
C7K N7K 1_555 1_555
C7B N7B 1_555 1_555
C7L N7L 1_555 1_555
H4K C7K 1_555 1_555
H4B C7B 1_555 1_555
H4L C7L 1_555 1_555
C8K N6K 1_555 1_555
C8B N6B 1_555 1_555
C8L N6L 1_555 1_555
H5K C8K 1_555 1_555
H5B C8B 1_555 1_555
H5L C8L 1_555 1_555
N2 C3 1_555 1_555
C7 C8 1_555 1_555
N2B C3B 1_555 1_555
N2F C3F 1_555 1_555
N2G C3G 1_555 1_555
N4J C5J 1_555 1_555
C5B C5H 1_555 1_555
C7K C8K 1_555 1_555
C7B C8B 1_555 1_555
C7L C8L 1_555 1_555

#END
