
#######################################################################
#
#                 Cambridge Crystallographic Data Centre
#                                CCDC 
#
#######################################################################
#
# If this CIF has been generated from an entry in the Cambridge 
# Structural Database, then it will include bibliographic, chemical, 
# crystal, experimental, refinement or atomic coordinate data resulting 
# from the CCDC's data processing and validation procedures.
#
#######################################################################

data_GITWEM01
_chemical_formula_moiety         'C417 H185 Cl27 N226 Zn46'
_symmetry_cell_setting           cubic
_symmetry_space_group_name_H-M   'P -4 3 m'
_symmetry_Int_Tables_number      215
_space_group_name_Hall           'P -4 2 3'
loop_
_symmetry_equiv_pos_site_id
_symmetry_equiv_pos_as_xyz
1 x,y,z
2 -x,-y,z
3 -x,y,-z
4 x,-y,-z
5 z,x,y
6 z,-x,-y
7 -z,-x,y
8 -z,x,-y
9 y,z,x
10 -y,z,-x
11 y,-z,-x
12 -y,-z,x
13 y,x,z
14 -y,-x,z
15 y,-x,-z
16 -y,x,-z
17 x,z,y
18 -x,z,-y
19 -x,-z,y
20 x,-z,-y
21 z,y,x
22 z,-y,-x
23 -z,y,-x
24 -z,-y,x
_cell_length_a                   22.6702(2)
_cell_length_b                   22.6702(2)
_cell_length_c                   22.6702(2)
_cell_angle_alpha                90
_cell_angle_beta                 90
_cell_angle_gamma                90
_cell_volume                     11651.1
loop_
_atom_site_label
_atom_site_type_symbol
_atom_site_fract_x
_atom_site_fract_y
_atom_site_fract_z
Zn1 Zn 0.81667(6) 0.36830(6) 0.00022(14)
C1 C 0.7267(5) 0.2733(5) -0.0034(11)
H1 H 0.7563 0.2437 -0.0015
N1 N 0.7380(4) 0.3320(4) -0.0049(7)
C2 C 0.6834(4) 0.3593(4) -0.0038(9)
C3 C 0.6639(14) 0.4149(9) 0.0127(11)
H2 H 0.6938 0.4442 0.0136
C4 C 0.6083(10) 0.4348(10) 0.0280(17)
H3 H 0.6004 0.4747 0.0378
Cl1 Cl 0.5920(15) 0.4859(17) 0.0348(12)
C5 C 0.8995(6) 0.3630(8) 0.1005(6)
H4 H 0.9290 0.3582 0.0710
N2 N 0.8423(10) 0.3658(9) 0.0783(9)
C6 C 0.8230(9) 0.3779(12) 0.1336(9)
C7 C 0.7673(15) 0.403(2) 0.136(2)
C8 C 0.763(2) 0.424(5) 0.194(2)
H6 H 0.7258 0.4395 0.2049
C13 C 0.8220(11) 0.5000 0.0000
H10 H 0.8426 0.5033 0.0363
N4 N 0.8043(9) 0.4458(6) -0.0257(9)
N5 N 0.8051(10) 0.4515(8) 0.0352(10)
C15 C 0.7799(10) 0.4646(14) -0.0799(10)
H12 H 0.7685 0.4380 -0.1103
C16 C 0.7741(14) 0.4739(14) 0.0847(13)
C17 C 0.9096(6) 0.3657(11) -0.0904(6)
H14 H 0.9026 0.4064 -0.0974
N6 N 0.8847(10) 0.3380(10) -0.0562(10)
C19 C 0.9020(11) 0.2858(15) -0.0549(12)
H16 H 0.8890 0.2542 -0.0306
N7 N 0.8544(14) 0.3764(12) -0.0844(13)
C21 C 0.7452(11) 0.4367(11) 0.1244(11)
Zn1M Zn 0.63170(6) 0.18333(6) 0.00022(14)
Zn1I Zn 0.63170(6) 0.00022(14) 0.18333(6)
Zn1P Zn 0.81667(6) 0.00022(14) 0.36830(6)
Zn1F Zn 0.99978(14) 0.18333(6) 0.36830(6)
Zn1V Zn 0.99978(14) 0.36830(6) 0.18333(6)
Zn1C Zn 0.81667(6) 0.63170(6) -0.00022(14)
Zn1O Zn 0.63170(6) 0.81667(6) -0.00022(14)
Zn1K Zn 0.63170(6) 0.99978(14) -0.18333(6)
Zn1S Zn 0.81667(6) 0.99978(14) -0.36830(6)
Zn1G Zn 0.99978(14) 0.81667(6) -0.36830(6)
Zn1W Zn 0.99978(14) 0.63170(6) -0.18333(6)
Zn1T Zn 1.00022(14) 0.36830(6) -0.18333(6)
Zn1E Zn 1.00022(14) 0.18333(6) -0.36830(6)
Zn1Q Zn 1.18333(6) 0.00022(14) -0.36830(6)
Zn1H Zn 1.36830(6) 0.00022(14) -0.18333(6)
Zn1N Zn 1.36830(6) 0.18333(6) -0.00022(14)
Zn1B Zn 1.18333(6) 0.36830(6) -0.00022(14)
Zn1A Zn 1.18333(6) 0.63170(6) 0.00022(14)
Zn1L Zn 1.36830(6) 0.81667(6) 0.00022(14)
Zn1J Zn 1.36830(6) 0.99978(14) 0.18333(6)
Zn1R Zn 1.18333(6) 0.99978(14) 0.36830(6)
Zn1D Zn 1.00022(14) 0.81667(6) 0.36830(6)
Zn1U Zn 1.00022(14) 0.63170(6) 0.18333(6)
Zn1E_2 Zn 1.00022(14) 0.18333(6) 0.63170(6)
Zn1T_2 Zn 1.00022(14) 0.36830(6) 0.81667(6)
Zn1W_2 Zn 0.99978(14) 0.63170(6) 0.81667(6)
Zn1G_2 Zn 0.99978(14) 0.81667(6) 0.63170(6)
Zn1P_2 Zn 0.81667(6) 1.00022(14) 0.36830(6)
Zn1S_2 Zn 0.81667(6) 0.99978(14) 0.63170(6)
Zn1F_2 Zn 0.99978(14) 1.18333(6) 0.36830(6)
Zn1E_3 Zn 1.00022(14) 1.18333(6) 0.63170(6)
Zn1Q_2 Zn 1.18333(6) 1.00022(14) 0.63170(6)
Zn1H_2 Zn 1.36830(6) 1.00022(14) 0.81667(6)
Zn1K_2 Zn 1.63170(6) 0.99978(14) 0.81667(6)
Zn1S_3 Zn 1.81667(6) 0.99978(14) 0.63170(6)
Zn1P_3 Zn 1.81667(6) 1.00022(14) 0.36830(6)
Zn1I_2 Zn 1.63170(6) 1.00022(14) 0.18333(6)
Zn1N_2 Zn 1.36830(6) 1.18333(6) -0.00022(14)
Zn1M_2 Zn 1.63170(6) 1.18333(6) 0.00022(14)
Zn1H_3 Zn 1.36830(6) 1.00022(14) -0.18333(6)
Zn1K_3 Zn 1.63170(6) 0.99978(14) -0.18333(6)
Zn1O_2 Zn 1.63170(6) 0.81667(6) -0.00022(14)
Zn1C_2 Zn 1.81667(6) 0.63170(6) -0.00022(14)
Zn1_2 Zn 1.81667(6) 0.36830(6) 0.00022(14)
Zn1M_3 Zn 1.63170(6) 0.18333(6) 0.00022(14)
C1I C 0.7267(5) -0.0034(11) 0.2733(5)
C1F C 1.0034(11) 0.2733(5) 0.2733(5)
C1C C 0.7267(5) 0.7267(5) 0.0034(11)
C1K C 0.7267(5) 1.0034(11) -0.2733(5)
C1G C 1.0034(11) 0.7267(5) -0.2733(5)
C1E C 0.9966(11) 0.2733(5) -0.2733(5)
C1H C 1.2733(5) -0.0034(11) -0.2733(5)
C1B C 1.2733(5) 0.2733(5) 0.0034(11)
C1A C 1.2733(5) 0.7267(5) -0.0034(11)
C1J C 1.2733(5) 1.0034(11) 0.2733(5)
C1D C 0.9966(11) 0.7267(5) 0.2733(5)
C1E_2 C 0.9966(11) 0.2733(5) 0.7267(5)
C1G_2 C 1.0034(11) 0.7267(5) 0.7267(5)
C1H_2 C 1.2733(5) 0.9966(11) 0.7267(5)
C1K_2 C 1.7267(5) 1.0034(11) 0.7267(5)
C1I_2 C 1.7267(5) 0.9966(11) 0.2733(5)
C1C_2 C 1.7267(5) 0.7267(5) 0.0034(11)
C1_2 C 1.7267(5) 0.2733(5) -0.0034(11)
H1I H 0.7563 -0.0015 0.2437
H1F H 1.0015 0.2437 0.2437
H1C H 0.7563 0.7563 0.0015
H1K H 0.7563 1.0015 -0.2437
H1G H 1.0015 0.7563 -0.2437
H1E H 0.9985 0.2437 -0.2437
H1H H 1.2437 -0.0015 -0.2437
H1B H 1.2437 0.2437 0.0015
H1A H 1.2437 0.7563 -0.0015
H1J H 1.2437 1.0015 0.2437
H1D H 0.9985 0.7563 0.2437
N1M N 0.6680(4) 0.2620(4) -0.0049(7)
N1I N 0.6680(4) -0.0049(7) 0.2620(4)
N1P N 0.7380(4) -0.0049(7) 0.3320(4)
N1F N 1.0049(7) 0.2620(4) 0.3320(4)
N1V N 1.0049(7) 0.3320(4) 0.2620(4)
N1C N 0.7380(4) 0.6680(4) 0.0049(7)
N1O N 0.6680(4) 0.7380(4) 0.0049(7)
N1K N 0.6680(4) 1.0049(7) -0.2620(4)
N1S N 0.7380(4) 1.0049(7) -0.3320(4)
N1G N 1.0049(7) 0.7380(4) -0.3320(4)
N1W N 1.0049(7) 0.6680(4) -0.2620(4)
N1T N 0.9951(7) 0.3320(4) -0.2620(4)
N1E N 0.9951(7) 0.2620(4) -0.3320(4)
N1Q N 1.2620(4) -0.0049(7) -0.3320(4)
N1H N 1.3320(4) -0.0049(7) -0.2620(4)
N1N N 1.3320(4) 0.2620(4) 0.0049(7)
N1B N 1.2620(4) 0.3320(4) 0.0049(7)
N1A N 1.2620(4) 0.6680(4) -0.0049(7)
N1L N 1.3320(4) 0.7380(4) -0.0049(7)
N1J N 1.3320(4) 1.0049(7) 0.2620(4)
N1R N 1.2620(4) 1.0049(7) 0.3320(4)
N1D N 0.9951(7) 0.7380(4) 0.3320(4)
N1U N 0.9951(7) 0.6680(4) 0.2620(4)
N1E_2 N 0.9951(7) 0.2620(4) 0.6680(4)
N1T_2 N 0.9951(7) 0.3320(4) 0.7380(4)
N1W_2 N 1.0049(7) 0.6680(4) 0.7380(4)
N1G_2 N 1.0049(7) 0.7380(4) 0.6680(4)
N1P_2 N 0.7380(4) 0.9951(7) 0.3320(4)
N1S_2 N 0.7380(4) 1.0049(7) 0.6680(4)
N1F_2 N 1.0049(7) 1.2620(4) 0.3320(4)
N1E_3 N 0.9951(7) 1.2620(4) 0.6680(4)
N1Q_2 N 1.2620(4) 0.9951(7) 0.6680(4)
N1H_2 N 1.3320(4) 0.9951(7) 0.7380(4)
N1K_2 N 1.6680(4) 1.0049(7) 0.7380(4)
N1S_3 N 1.7380(4) 1.0049(7) 0.6680(4)
N1P_3 N 1.7380(4) 0.9951(7) 0.3320(4)
N1I_2 N 1.6680(4) 0.9951(7) 0.2620(4)
N1N_2 N 1.3320(4) 1.2620(4) 0.0049(7)
N1M_2 N 1.6680(4) 1.2620(4) -0.0049(7)
N1H_3 N 1.3320(4) 0.9951(7) -0.2620(4)
N1K_3 N 1.6680(4) 1.0049(7) -0.2620(4)
N1O_2 N 1.6680(4) 0.7380(4) 0.0049(7)
N1C_2 N 1.7380(4) 0.6680(4) 0.0049(7)
N1_2 N 1.7380(4) 0.3320(4) -0.0049(7)
N1M_3 N 1.6680(4) 0.2620(4) -0.0049(7)
C2U C 0.9962(9) 0.6407(4) 0.3166(4)
C2D C 0.9962(9) 0.6834(4) 0.3593(4)
C2V C 1.0038(9) 0.3593(4) 0.3166(4)
C2F C 1.0038(9) 0.3166(4) 0.3593(4)
C2E C 0.9962(9) 0.3166(4) 0.6407(4)
C2T C 0.9962(9) 0.3593(4) 0.6834(4)
C2W C 1.0038(9) 0.6407(4) 0.6834(4)
C2G C 1.0038(9) 0.6834(4) 0.6407(4)
C2R C 1.3166(4) 1.0038(9) 0.3593(4)
C2J C 1.3593(4) 1.0038(9) 0.3166(4)
C2Q C 1.3166(4) 0.9962(9) 0.6407(4)
C2H C 1.3593(4) 0.9962(9) 0.6834(4)
C2K C 1.6407(4) 1.0038(9) 0.6834(4)
C2S C 1.6834(4) 1.0038(9) 0.6407(4)
C2P C 1.6834(4) 0.9962(9) 0.3593(4)
C2I C 1.6407(4) 0.9962(9) 0.3166(4)
C2L C 1.3593(4) 0.6834(4) -0.0038(9)
C2A C 1.3166(4) 0.6407(4) -0.0038(9)
C2O C 1.6407(4) 0.6834(4) 0.0038(9)
C2C C 1.6834(4) 0.6407(4) 0.0038(9)
C2_2 C 1.6834(4) 0.3593(4) -0.0038(9)
C2M C 1.6407(4) 0.3166(4) -0.0038(9)
C2N C 1.3593(4) 0.3166(4) 0.0038(9)
C2B C 1.3166(4) 0.3593(4) 0.0038(9)
C2H_2 C 1.3593(4) -0.0038(9) -0.3166(4)
C2Q_2 C 1.3166(4) -0.0038(9) -0.3593(4)
C2E_2 C 0.9962(9) 0.3166(4) -0.3593(4)
C2T_2 C 0.9962(9) 0.3593(4) -0.3166(4)
C2W_2 C 1.0038(9) 0.6407(4) -0.3166(4)
C2G_2 C 1.0038(9) 0.6834(4) -0.3593(4)
C2S_2 C 0.6834(4) 1.0038(9) -0.3593(4)
C2K_2 C 0.6407(4) 1.0038(9) -0.3166(4)
C2O_2 C 0.6407(4) 0.6834(4) 0.0038(9)
C2C_2 C 0.6834(4) 0.6407(4) 0.0038(9)
C2P_2 C 0.6834(4) -0.0038(9) 0.3593(4)
C2I_2 C 0.6407(4) -0.0038(9) 0.3166(4)
C2M_2 C 0.6407(4) 0.3166(4) -0.0038(9)
C3D C 1.0127(11) 0.6639(14) 0.4149(9)
C3U C 1.0127(11) 0.5851(9) 0.3361(14)
C3V C 0.9873(11) 0.4149(9) 0.3361(14)
C3F C 0.9873(11) 0.3361(14) 0.4149(9)
C3E C 1.0127(11) 0.3361(14) 0.5851(9)
C3T C 1.0127(11) 0.4149(9) 0.6639(14)
C3W C 0.9873(11) 0.5851(9) 0.6639(14)
C3G C 0.9873(11) 0.6639(14) 0.5851(9)
C3J C 1.4149(9) 0.9873(11) 0.3361(14)
C3R C 1.3361(14) 0.9873(11) 0.4149(9)
C3Q C 1.3361(14) 1.0127(11) 0.5851(9)
C3H C 1.4149(9) 1.0127(11) 0.6639(14)
C3K C 1.5851(9) 0.9873(11) 0.6639(14)
C3S C 1.6639(14) 0.9873(11) 0.5851(9)
C3P C 1.6639(14) 1.0127(11) 0.4149(9)
C3I C 1.5851(9) 1.0127(11) 0.3361(14)
C3A C 1.3361(14) 0.5851(9) 0.0127(11)
C3L C 1.4149(9) 0.6639(14) 0.0127(11)
C3O C 1.5851(9) 0.6639(14) -0.0127(11)
C3C C 1.6639(14) 0.5851(9) -0.0127(11)
C3_2 C 1.6639(14) 0.4149(9) 0.0127(11)
C3M C 1.5851(9) 0.3361(14) 0.0127(11)
C3N C 1.4149(9) 0.3361(14) -0.0127(11)
C3B C 1.3361(14) 0.4149(9) -0.0127(11)
C3Q_2 C 1.3361(14) 0.0127(11) -0.4149(9)
C3H_2 C 1.4149(9) 0.0127(11) -0.3361(14)
C3T_2 C 1.0127(11) 0.4149(9) -0.3361(14)
C3E_2 C 1.0127(11) 0.3361(14) -0.4149(9)
C3G_2 C 0.9873(11) 0.6639(14) -0.4149(9)
C3W_2 C 0.9873(11) 0.5851(9) -0.3361(14)
C3K_2 C 0.5851(9) 0.9873(11) -0.3361(14)
C3S_2 C 0.6639(14) 0.9873(11) -0.4149(9)
C3C_2 C 0.6639(14) 0.5851(9) -0.0127(11)
C3O_2 C 0.5851(9) 0.6639(14) -0.0127(11)
C3I_2 C 0.5851(9) 0.0127(11) 0.3361(14)
C3P_2 C 0.6639(14) 0.0127(11) 0.4149(9)
H2D H 1.0136 0.6938 0.4442
H2U H 1.0136 0.5558 0.3062
H2F H 0.9864 0.3062 0.4442
H2E H 1.0136 0.3062 0.5558
H2T H 1.0136 0.4442 0.6938
H2G H 0.9864 0.6938 0.5558
H2W H 0.9864 0.5558 0.6938
H2V H 0.9864 0.4442 0.3062
H2J H 1.4442 0.9864 0.3062
H2R H 1.3062 0.9864 0.4442
H2H H 1.4442 1.0136 0.6938
H2K H 1.5558 0.9864 0.6938
H2S H 1.6938 0.9864 0.5558
H2I H 1.5558 1.0136 0.3062
H2P H 1.6938 1.0136 0.4442
H2Q H 1.3062 1.0136 0.5558
H2A H 1.3062 0.5558 0.0136
H2L H 1.4442 0.6938 0.0136
H2C H 1.6938 0.5558 -0.0136
H2_2 H 1.6938 0.4442 0.0136
H2M H 1.5558 0.3062 0.0136
H2B H 1.3062 0.4442 -0.0136
H2N H 1.4442 0.3062 -0.0136
H2O H 1.5558 0.6938 -0.0136
H2O_2 H 0.5558 0.6938 -0.0136
C4D C 1.0280(17) 0.6083(10) 0.4348(10)
C4U C 1.0280(17) 0.5652(10) 0.3917(10)
C4V C 0.9720(17) 0.4348(10) 0.3917(10)
C4F C 0.9720(17) 0.3917(10) 0.4348(10)
C4E C 1.0280(17) 0.3917(10) 0.5652(10)
C4T C 1.0280(17) 0.4348(10) 0.6083(10)
C4W C 0.9720(17) 0.5652(10) 0.6083(10)
C4G C 0.9720(17) 0.6083(10) 0.5652(10)
C4J C 1.4348(10) 0.9720(17) 0.3917(10)
C4R C 1.3917(10) 0.9720(17) 0.4348(10)
C4Q C 1.3917(10) 1.0280(17) 0.5652(10)
C4H C 1.4348(10) 1.0280(17) 0.6083(10)
C4K C 1.5652(10) 0.9720(17) 0.6083(10)
C4S C 1.6083(10) 0.9720(17) 0.5652(10)
C4P C 1.6083(10) 1.0280(17) 0.4348(10)
C4I C 1.5652(10) 1.0280(17) 0.3917(10)
C4A C 1.3917(10) 0.5652(10) 0.0280(17)
C4L C 1.4348(10) 0.6083(10) 0.0280(17)
C4O C 1.5652(10) 0.6083(10) -0.0280(17)
C4C C 1.6083(10) 0.5652(10) -0.0280(17)
C4_2 C 1.6083(10) 0.4348(10) 0.0280(17)
C4M C 1.5652(10) 0.3917(10) 0.0280(17)
C4N C 1.4348(10) 0.3917(10) -0.0280(17)
C4B C 1.3917(10) 0.4348(10) -0.0280(17)
C4M_2 C 0.5652(10) 0.3917(10) 0.0280(17)
C4C_2 C 0.6083(10) 0.5652(10) -0.0280(17)
C4O_2 C 0.5652(10) 0.6083(10) -0.0280(17)
H3U H 1.0378 0.5253 0.3996
H3V H 0.9622 0.4747 0.3996
H3F H 0.9622 0.3996 0.4747
H3T H 1.0378 0.4747 0.6004
H3W H 0.9622 0.5253 0.6004
H3G H 0.9622 0.6004 0.5253
H3D H 1.0378 0.6004 0.4747
H3E H 1.0378 0.3996 0.5253
H3R H 1.3996 0.9622 0.4747
H3Q H 1.3996 1.0378 0.5253
H3H H 1.4747 1.0378 0.6004
H3S H 1.6004 0.9622 0.5253
H3P H 1.6004 1.0378 0.4747
H3I H 1.5253 1.0378 0.3996
H3J H 1.4747 0.9622 0.3996
H3K H 1.5253 0.9622 0.6004
H3L H 1.4747 0.6004 0.0378
H3O H 1.5253 0.6004 -0.0378
H3C H 1.6004 0.5253 -0.0378
H3M H 1.5253 0.3996 0.0378
H3N H 1.4747 0.3996 -0.0378
H3B H 1.3996 0.4747 -0.0378
H3A H 1.3996 0.5253 0.0378
H3_2 H 1.6004 0.4747 0.0378
H3C_2 H 0.6004 0.5253 -0.0378
H3O_2 H 0.5253 0.6004 -0.0378
Cl1U Cl 1.0348(12) 0.5141(17) 0.4080(15)
Cl1V Cl 0.9652(12) 0.4859(17) 0.4080(15)
Cl1F Cl 0.9652(12) 0.4080(15) 0.4859(17)
Cl1E Cl 1.0348(12) 0.4080(15) 0.5141(17)
Cl1T Cl 1.0348(12) 0.4859(17) 0.5920(15)
Cl1W Cl 0.9652(12) 0.5141(17) 0.5920(15)
Cl1G Cl 0.9652(12) 0.5920(15) 0.5141(17)
Cl1D Cl 1.0348(12) 0.5920(15) 0.4859(17)
Cl1R Cl 1.4080(15) 0.9652(12) 0.4859(17)
Cl1Q Cl 1.4080(15) 1.0348(12) 0.5141(17)
Cl1H Cl 1.4859(17) 1.0348(12) 0.5920(15)
Cl1K Cl 1.5141(17) 0.9652(12) 0.5920(15)
Cl1S Cl 1.5920(15) 0.9652(12) 0.5141(17)
Cl1P Cl 1.5920(15) 1.0348(12) 0.4859(17)
Cl1I Cl 1.5141(17) 1.0348(12) 0.4080(15)
Cl1J Cl 1.4859(17) 0.9652(12) 0.4080(15)
Cl1L Cl 1.4859(17) 0.5920(15) 0.0348(12)
Cl1O Cl 1.5141(17) 0.5920(15) -0.0348(12)
Cl1C Cl 1.5920(15) 0.5141(17) -0.0348(12)
Cl1_2 Cl 1.5920(15) 0.4859(17) 0.0348(12)
Cl1M Cl 1.5141(17) 0.4080(15) 0.0348(12)
Cl1N Cl 1.4859(17) 0.4080(15) -0.0348(12)
Cl1B Cl 1.4080(15) 0.4859(17) -0.0348(12)
Cl1A Cl 1.4080(15) 0.5141(17) 0.0348(12)
Cl1C_2 Cl 0.5920(15) 0.5141(17) -0.0348(12)
Cl1O_2 Cl 0.5141(17) 0.5920(15) -0.0348(12)
C5I C 0.6370(8) 0.1005(6) 0.1005(6)
C5F C 0.8995(6) 0.1005(6) 0.3630(8)
C5K C 0.6370(8) 0.8995(6) -0.1005(6)
C5G C 0.8995(6) 0.8995(6) -0.3630(8)
C5C C 0.8995(6) 0.6370(8) -0.1005(6)
C5E C 1.1005(6) 0.1005(6) -0.3630(8)
C5H C 1.3630(8) 0.1005(6) -0.1005(6)
C5B C 1.1005(6) 0.3630(8) -0.1005(6)
C5J C 1.3630(8) 0.8995(6) 0.1005(6)
C5D C 1.1005(6) 0.8995(6) 0.3630(8)
C5A C 1.1005(6) 0.6370(8) 0.1005(6)
C5F_2 C 0.8995(6) 1.1005(6) 0.3630(8)
C5E_2 C 1.1005(6) 1.1005(6) 0.6370(8)
C5G_2 C 0.8995(6) 0.8995(6) 0.6370(8)
C5H_2 C 1.3630(8) 1.1005(6) -0.1005(6)
C5K_2 C 1.6370(8) 0.8995(6) -0.1005(6)
C5I_2 C 1.6370(8) 1.1005(6) 0.1005(6)
H4I H 0.6418 0.0710 0.0710
H4F H 0.9290 0.0710 0.3582
H4K H 0.6418 0.9290 -0.0710
H4G H 0.9290 0.9290 -0.3582
H4C H 0.9290 0.6418 -0.0710
H4E H 1.0710 0.0710 -0.3582
H4H H 1.3582 0.0710 -0.0710
H4B H 1.0710 0.3582 -0.0710
H4J H 1.3582 0.9290 0.0710
H4D H 1.0710 0.9290 0.3582
H4A H 1.0710 0.6418 0.0710
N2M N 0.6342(9) 0.1577(10) 0.0783(9)
N2I N 0.6342(9) 0.0783(9) 0.1577(10)
N2P N 0.8423(10) 0.0783(9) 0.3658(9)
N2F N 0.9217(9) 0.1577(10) 0.3658(9)
N2V N 0.9217(9) 0.3658(9) 0.1577(10)
N2O N 0.6342(9) 0.8423(10) -0.0783(9)
N2K N 0.6342(9) 0.9217(9) -0.1577(10)
N2S N 0.8423(10) 0.9217(9) -0.3658(9)
N2G N 0.9217(9) 0.8423(10) -0.3658(9)
N2W N 0.9217(9) 0.6342(9) -0.1577(10)
N2C N 0.8423(10) 0.6342(9) -0.0783(9)
N2E N 1.0783(9) 0.1577(10) -0.3658(9)
N2Q N 1.1577(10) 0.0783(9) -0.3658(9)
N2H N 1.3658(9) 0.0783(9) -0.1577(10)
N2N N 1.3658(9) 0.1577(10) -0.0783(9)
N2B N 1.1577(10) 0.3658(9) -0.0783(9)
N2T N 1.0783(9) 0.3658(9) -0.1577(10)
N2L N 1.3658(9) 0.8423(10) 0.0783(9)
N2J N 1.3658(9) 0.9217(9) 0.1577(10)
N2R N 1.1577(10) 0.9217(9) 0.3658(9)
N2D N 1.0783(9) 0.8423(10) 0.3658(9)
N2U N 1.0783(9) 0.6342(9) 0.1577(10)
N2A N 1.1577(10) 0.6342(9) 0.0783(9)
N2G_2 N 0.9217(9) 0.8423(10) 0.6342(9)
N2P_2 N 0.8423(10) 1.0783(9) 0.3658(9)
N2S_2 N 0.8423(10) 0.9217(9) 0.6342(9)
N2F_2 N 0.9217(9) 1.1577(10) 0.3658(9)
N2E_2 N 1.0783(9) 1.1577(10) 0.6342(9)
N2Q_2 N 1.1577(10) 1.0783(9) 0.6342(9)
N2I_2 N 1.6342(9) 1.0783(9) 0.1577(10)
N2N_2 N 1.3658(9) 1.1577(10) -0.0783(9)
N2M_2 N 1.6342(9) 1.1577(10) 0.0783(9)
N2H_2 N 1.3658(9) 1.0783(9) -0.1577(10)
N2K_2 N 1.6342(9) 0.9217(9) -0.1577(10)
N2O_2 N 1.6342(9) 0.8423(10) -0.0783(9)
C6T C 1.1336(9) 0.3779(12) -0.1770(9)
C6B C 1.1770(9) 0.3779(12) -0.1336(9)
C6A C 1.1770(9) 0.6221(12) 0.1336(9)
C6U C 1.1336(9) 0.6221(12) 0.1770(9)
C6V C 0.8664(9) 0.3779(12) 0.1770(9)
C6C C 0.8230(9) 0.6221(12) -0.1336(9)
C6W C 0.8664(9) 0.6221(12) -0.1770(9)
C6P C 0.8230(9) 1.1336(9) 0.3779(12)
C6F C 0.8664(9) 1.1770(9) 0.3779(12)
C6E C 1.1336(9) 1.1770(9) 0.6221(12)
C6Q C 1.1770(9) 1.1336(9) 0.6221(12)
C6R C 1.1770(9) 0.8664(9) 0.3779(12)
C6D C 1.1336(9) 0.8230(9) 0.3779(12)
C6G C 0.8664(9) 0.8230(9) 0.6221(12)
C6S C 0.8230(9) 0.8664(9) 0.6221(12)
C6N C 1.3779(12) 1.1770(9) -0.1336(9)
C6H C 1.3779(12) 1.1336(9) -0.1770(9)
C6K C 1.6221(12) 0.8664(9) -0.1770(9)
C6O C 1.6221(12) 0.8230(9) -0.1336(9)
C6L C 1.3779(12) 0.8230(9) 0.1336(9)
C6J C 1.3779(12) 0.8664(9) 0.1770(9)
C6I C 1.6221(12) 1.1336(9) 0.1770(9)
C6M C 1.6221(12) 1.1770(9) 0.1336(9)
C6N_2 C 1.3779(12) 0.1770(9) -0.1336(9)
C6H_2 C 1.3779(12) 0.1336(9) -0.1770(9)
C6Q_2 C 1.1770(9) 0.1336(9) -0.3779(12)
C6E_2 C 1.1336(9) 0.1770(9) -0.3779(12)
C6G_2 C 0.8664(9) 0.8230(9) -0.3779(12)
C6S_2 C 0.8230(9) 0.8664(9) -0.3779(12)
C6K_2 C 0.6221(12) 0.8664(9) -0.1770(9)
C6O_2 C 0.6221(12) 0.8230(9) -0.1336(9)
C6F_2 C 0.8664(9) 0.1770(9) 0.3779(12)
C6P_2 C 0.8230(9) 0.1336(9) 0.3779(12)
C6I_2 C 0.6221(12) 0.1336(9) 0.1770(9)
C6M_2 C 0.6221(12) 0.1770(9) 0.1336(9)
C7T C 1.136(2) 0.403(2) -0.2327(15)
C7B C 1.2327(15) 0.403(2) -0.136(2)
C7A C 1.2327(15) 0.597(2) 0.136(2)
C7U C 1.136(2) 0.597(2) 0.2327(15)
C7V C 0.864(2) 0.403(2) 0.2327(15)
C7C C 0.7673(15) 0.597(2) -0.136(2)
C7W C 0.864(2) 0.597(2) -0.2327(15)
C7P C 0.7673(15) 1.136(2) 0.403(2)
C7F C 0.864(2) 1.2327(15) 0.403(2)
C7E C 1.136(2) 1.2327(15) 0.597(2)
C7Q C 1.2327(15) 1.136(2) 0.597(2)
C7R C 1.2327(15) 0.864(2) 0.403(2)
C7D C 1.136(2) 0.7673(15) 0.403(2)
C7G C 0.864(2) 0.7673(15) 0.597(2)
C7S C 0.7673(15) 0.864(2) 0.597(2)
C7N C 1.403(2) 1.2327(15) -0.136(2)
C7H C 1.403(2) 1.136(2) -0.2327(15)
C7K C 1.597(2) 0.864(2) -0.2327(15)
C7O C 1.597(2) 0.7673(15) -0.136(2)
C7L C 1.403(2) 0.7673(15) 0.136(2)
C7J C 1.403(2) 0.864(2) 0.2327(15)
C7I C 1.597(2) 1.136(2) 0.2327(15)
C7M C 1.597(2) 1.2327(15) 0.136(2)
C7H_2 C 1.403(2) 0.136(2) -0.2327(15)
C7N_2 C 1.403(2) 0.2327(15) -0.136(2)
C7E_2 C 1.136(2) 0.2327(15) -0.403(2)
C7Q_2 C 1.2327(15) 0.136(2) -0.403(2)
C7S_2 C 0.7673(15) 0.864(2) -0.403(2)
C7G_2 C 0.864(2) 0.7673(15) -0.403(2)
C7O_2 C 0.597(2) 0.7673(15) -0.136(2)
C7K_2 C 0.597(2) 0.864(2) -0.2327(15)
C7P_2 C 0.7673(15) 0.136(2) 0.403(2)
C7F_2 C 0.864(2) 0.2327(15) 0.403(2)
C7M_2 C 0.597(2) 0.2327(15) 0.136(2)
C7I_2 C 0.597(2) 0.136(2) 0.2327(15)
C8B C 1.237(2) 0.424(5) -0.194(2)
C8T C 1.194(2) 0.424(5) -0.237(2)
C8U C 1.194(2) 0.576(5) 0.237(2)
C8A C 1.237(2) 0.576(5) 0.194(2)
C8V C 0.806(2) 0.424(5) 0.237(2)
C8W C 0.806(2) 0.576(5) -0.237(2)
C8C C 0.763(2) 0.576(5) -0.194(2)
C8F C 0.806(2) 1.237(2) 0.424(5)
C8P C 0.763(2) 1.194(2) 0.424(5)
C8Q C 1.237(2) 1.194(2) 0.576(5)
C8E C 1.194(2) 1.237(2) 0.576(5)
C8D C 1.194(2) 0.763(2) 0.424(5)
C8R C 1.237(2) 0.806(2) 0.424(5)
C8S C 0.763(2) 0.806(2) 0.576(5)
C8G C 0.806(2) 0.763(2) 0.576(5)
C8H C 1.424(5) 1.194(2) -0.237(2)
C8N C 1.424(5) 1.237(2) -0.194(2)
C8O C 1.576(5) 0.763(2) -0.194(2)
C8K C 1.576(5) 0.806(2) -0.237(2)
C8J C 1.424(5) 0.806(2) 0.237(2)
C8L C 1.424(5) 0.763(2) 0.194(2)
C8M C 1.576(5) 1.237(2) 0.194(2)
C8I C 1.576(5) 1.194(2) 0.237(2)
H6T H 1.2049 0.4395 -0.2742
H6B H 1.2742 0.4395 -0.2049
H6A H 1.2742 0.5605 0.2049
H6U H 1.2049 0.5605 0.2742
H6V H 0.7951 0.4395 0.2742
H6C H 0.7258 0.5605 -0.2049
H6W H 0.7951 0.5605 -0.2742
H6P H 0.7258 1.2049 0.4395
H6F H 0.7951 1.2742 0.4395
H6E H 1.2049 1.2742 0.5605
H6Q H 1.2742 1.2049 0.5605
H6R H 1.2742 0.7951 0.4395
H6D H 1.2049 0.7258 0.4395
H6G H 0.7951 0.7258 0.5605
H6S H 0.7258 0.7951 0.5605
H6N H 1.4395 1.2742 -0.2049
H6H H 1.4395 1.2049 -0.2742
H6K H 1.5605 0.7951 -0.2742
H6O H 1.5605 0.7258 -0.2049
H6L H 1.4395 0.7258 0.2049
H6J H 1.4395 0.7951 0.2742
H6I H 1.5605 1.2049 0.2742
H6M H 1.5605 1.2742 0.2049
C13T C 1.0000 0.5000 -0.1780(11)
C13A C 1.1780(11) 0.5000 0.0000
C13U C 1.0000 0.5000 0.1780(11)
C13D C 1.0000 0.8220(11) 0.5000
C13P C 0.8220(11) 1.0000 0.5000
C13E C 1.0000 1.1780(11) 0.5000
C13Q C 1.1780(11) 1.0000 0.5000
C13I C 1.5000 1.0000 0.1780(11)
C13M C 1.5000 1.1780(11) 0.0000
C13H C 1.5000 1.0000 -0.1780(11)
C13L C 1.5000 0.8220(11) 0.0000
C13M_2 C 1.5000 0.1780(11) 0.0000
C13H_2 C 1.5000 0.0000 -0.1780(11)
C13Q_2 C 1.1780(11) 0.0000 -0.5000
C13E_2 C 1.0000 0.1780(11) -0.5000
C13D_2 C 1.0000 0.8220(11) -0.5000
C13P_2 C 0.8220(11) 1.0000 -0.5000
C13H_3 C 0.5000 1.0000 -0.1780(11)
C13L_2 C 0.5000 0.8220(11) 0.0000
C13E_3 C 1.0000 0.1780(11) 0.5000
C13P_3 C 0.8220(11) 0.0000 0.5000
C13I_2 C 0.5000 0.0000 0.1780(11)
C13M_3 C 0.5000 0.1780(11) 0.0000
H10C H 0.8426 0.4967 -0.0363
H10T H 1.0363 0.5033 -0.1574
H10W H 0.9637 0.4967 -0.1574
H10B H 1.1574 0.5033 -0.0363
H10A H 1.1574 0.4967 0.0363
H10U H 1.0363 0.4967 0.1574
H10V H 0.9637 0.5033 0.1574
H10D H 1.0363 0.8426 0.5033
H10G H 0.9637 0.8426 0.4967
H10P H 0.8426 1.0363 0.5033
H10S H 0.8426 0.9637 0.4967
H10F H 0.9637 1.1574 0.5033
H10E H 1.0363 1.1574 0.4967
H10Q H 1.1574 1.0363 0.4967
H10R H 1.1574 0.9637 0.5033
H10J H 1.5033 0.9637 0.1574
H10I H 1.4967 1.0363 0.1574
H10N H 1.5033 1.1574 -0.0363
H10M H 1.4967 1.1574 0.0363
H10H H 1.5033 1.0363 -0.1574
H10K H 1.4967 0.9637 -0.1574
H10O H 1.4967 0.8426 -0.0363
H10L H 1.5033 0.8426 0.0363
N4C N 0.8043(9) 0.5542(6) 0.0257(9)
N4T N 0.9743(9) 0.4458(6) -0.1957(9)
N4W N 1.0257(9) 0.5542(6) -0.1957(9)
N4B N 1.1957(9) 0.4458(6) 0.0257(9)
N4A N 1.1957(9) 0.5542(6) -0.0257(9)
N4U N 0.9743(9) 0.5542(6) 0.1957(9)
N4V N 1.0257(9) 0.4458(6) 0.1957(9)
N4D N 0.9743(9) 0.8043(9) 0.4458(6)
N4G N 1.0257(9) 0.8043(9) 0.5542(6)
N4P N 0.8043(9) 0.9743(9) 0.4458(6)
N4S N 0.8043(9) 1.0257(9) 0.5542(6)
N4F N 1.0257(9) 1.1957(9) 0.4458(6)
N4E N 0.9743(9) 1.1957(9) 0.5542(6)
N4Q N 1.1957(9) 0.9743(9) 0.5542(6)
N4R N 1.1957(9) 1.0257(9) 0.4458(6)
N4J N 1.4458(6) 1.0257(9) 0.1957(9)
N4I N 1.5542(6) 0.9743(9) 0.1957(9)
N4N N 1.4458(6) 1.1957(9) 0.0257(9)
N4M N 1.5542(6) 1.1957(9) -0.0257(9)
N4H N 1.4458(6) 0.9743(9) -0.1957(9)
N4K N 1.5542(6) 1.0257(9) -0.1957(9)
N4O N 1.5542(6) 0.8043(9) 0.0257(9)
N4L N 1.4458(6) 0.8043(9) -0.0257(9)
N4N_2 N 1.4458(6) 0.1957(9) 0.0257(9)
N4H_2 N 1.4458(6) -0.0257(9) -0.1957(9)
N4Q_2 N 1.1957(9) -0.0257(9) -0.4458(6)
N4E_2 N 0.9743(9) 0.1957(9) -0.4458(6)
N4G_2 N 1.0257(9) 0.8043(9) -0.4458(6)
N4S_2 N 0.8043(9) 1.0257(9) -0.4458(6)
N4K_2 N 0.5542(6) 1.0257(9) -0.1957(9)
N4O_2 N 0.5542(6) 0.8043(9) 0.0257(9)
N4F_2 N 1.0257(9) 0.1957(9) 0.4458(6)
N4P_2 N 0.8043(9) -0.0257(9) 0.4458(6)
N4I_2 N 0.5542(6) -0.0257(9) 0.1957(9)
N4M_2 N 0.5542(6) 0.1957(9) -0.0257(9)
N5C N 0.8051(10) 0.5485(8) -0.0352(10)
N5W N 0.9648(10) 0.5485(8) -0.1949(10)
N5T N 1.0352(10) 0.4515(8) -0.1949(10)
N5B N 1.1949(10) 0.4515(8) -0.0352(10)
N5A N 1.1949(10) 0.5485(8) 0.0352(10)
N5U N 1.0352(10) 0.5485(8) 0.1949(10)
N5V N 0.9648(10) 0.4515(8) 0.1949(10)
N5G N 0.9648(10) 0.8051(10) 0.5485(8)
N5D N 1.0352(10) 0.8051(10) 0.4515(8)
N5S N 0.8051(10) 0.9648(10) 0.5485(8)
N5P N 0.8051(10) 1.0352(10) 0.4515(8)
N5F N 0.9648(10) 1.1949(10) 0.4515(8)
N5E N 1.0352(10) 1.1949(10) 0.5485(8)
N5Q N 1.1949(10) 1.0352(10) 0.5485(8)
N5R N 1.1949(10) 0.9648(10) 0.4515(8)
N5I N 1.5485(8) 1.0352(10) 0.1949(10)
N5J N 1.4515(8) 0.9648(10) 0.1949(10)
N5M N 1.5485(8) 1.1949(10) 0.0352(10)
N5N N 1.4515(8) 1.1949(10) -0.0352(10)
N5H N 1.4515(8) 1.0352(10) -0.1949(10)
N5K N 1.5485(8) 0.9648(10) -0.1949(10)
N5O N 1.5485(8) 0.8051(10) -0.0352(10)
N5L N 1.4515(8) 0.8051(10) 0.0352(10)
N5N_2 N 1.4515(8) 0.1949(10) -0.0352(10)
N5H_2 N 1.4515(8) 0.0352(10) -0.1949(10)
N5Q_2 N 1.1949(10) 0.0352(10) -0.4515(8)
N5E_2 N 1.0352(10) 0.1949(10) -0.4515(8)
N5G_2 N 0.9648(10) 0.8051(10) -0.4515(8)
N5S_2 N 0.8051(10) 0.9648(10) -0.4515(8)
N5K_2 N 0.5485(8) 0.9648(10) -0.1949(10)
N5O_2 N 0.5485(8) 0.8051(10) -0.0352(10)
N5F_2 N 0.9648(10) 0.1949(10) 0.4515(8)
N5P_2 N 0.8051(10) 0.0352(10) 0.4515(8)
N5I_2 N 0.5485(8) 0.0352(10) 0.1949(10)
N5M_2 N 0.5485(8) 0.1949(10) 0.0352(10)
C15T C 0.9201(10) 0.4646(14) -0.2201(10)
C15W C 1.0799(10) 0.5354(14) -0.2201(10)
C15B C 1.2201(10) 0.4646(14) 0.0799(10)
C15A C 1.2201(10) 0.5354(14) -0.0799(10)
C15U C 0.9201(10) 0.5354(14) 0.2201(10)
C15V C 1.0799(10) 0.4646(14) 0.2201(10)
C15C C 0.7799(10) 0.5354(14) 0.0799(10)
C15P C 0.7799(10) 0.9201(10) 0.4646(14)
C15S C 0.7799(10) 1.0799(10) 0.5354(14)
C15F C 1.0799(10) 1.2201(10) 0.4646(14)
C15E C 0.9201(10) 1.2201(10) 0.5354(14)
C15Q C 1.2201(10) 0.9201(10) 0.5354(14)
C15R C 1.2201(10) 1.0799(10) 0.4646(14)
C15D C 0.9201(10) 0.7799(10) 0.4646(14)
C15G C 1.0799(10) 0.7799(10) 0.5354(14)
C15N C 1.4646(14) 1.2201(10) 0.0799(10)
C15M C 1.5354(14) 1.2201(10) -0.0799(10)
C15H C 1.4646(14) 0.9201(10) -0.2201(10)
C15K C 1.5354(14) 1.0799(10) -0.2201(10)
C15O C 1.5354(14) 0.7799(10) 0.0799(10)
C15L C 1.4646(14) 0.7799(10) -0.0799(10)
C15J C 1.4646(14) 1.0799(10) 0.2201(10)
C15I C 1.5354(14) 0.9201(10) 0.2201(10)
C15N_2 C 1.4646(14) 0.2201(10) 0.0799(10)
C15H_2 C 1.4646(14) -0.0799(10) -0.2201(10)
C15Q_2 C 1.2201(10) -0.0799(10) -0.4646(14)
C15E_2 C 0.9201(10) 0.2201(10) -0.4646(14)
C15G_2 C 1.0799(10) 0.7799(10) -0.4646(14)
C15S_2 C 0.7799(10) 1.0799(10) -0.4646(14)
C15K_2 C 0.5354(14) 1.0799(10) -0.2201(10)
C15O_2 C 0.5354(14) 0.7799(10) 0.0799(10)
C15F_2 C 1.0799(10) 0.2201(10) 0.4646(14)
C15P_2 C 0.7799(10) -0.0799(10) 0.4646(14)
C15I_2 C 0.5354(14) -0.0799(10) 0.2201(10)
C15M_2 C 0.5354(14) 0.2201(10) -0.0799(10)
H12T H 0.8897 0.4380 -0.2315
H12W H 1.1103 0.5620 -0.2315
H12B H 1.2315 0.4380 0.1103
H12A H 1.2315 0.5620 -0.1103
H12U H 0.8897 0.5620 0.2315
H12V H 1.1103 0.4380 0.2315
H12C H 0.7685 0.5620 0.1103
H12P H 0.7685 0.8897 0.4380
H12S H 0.7685 1.1103 0.5620
H12F H 1.1103 1.2315 0.4380
H12E H 0.8897 1.2315 0.5620
H12Q H 1.2315 0.8897 0.5620
H12R H 1.2315 1.1103 0.4380
H12D H 0.8897 0.7685 0.4380
H12G H 1.1103 0.7685 0.5620
H12N H 1.4380 1.2315 0.1103
H12M H 1.5620 1.2315 -0.1103
H12H H 1.4380 0.8897 -0.2315
H12K H 1.5620 1.1103 -0.2315
H12O H 1.5620 0.7685 0.1103
H12L H 1.4380 0.7685 -0.1103
H12J H 1.4380 1.1103 0.2315
H12I H 1.5620 0.8897 0.2315
C16W C 0.9153(13) 0.5261(14) -0.2259(14)
C16T C 1.0847(13) 0.4739(14) -0.2259(14)
C16B C 1.2259(14) 0.4739(14) -0.0847(13)
C16A C 1.2259(14) 0.5261(14) 0.0847(13)
C16U C 1.0847(13) 0.5261(14) 0.2259(14)
C16V C 0.9153(13) 0.4739(14) 0.2259(14)
C16C C 0.7741(14) 0.5261(14) -0.0847(13)
C16S C 0.7741(14) 0.9153(13) 0.5261(14)
C16P C 0.7741(14) 1.0847(13) 0.4739(14)
C16F C 0.9153(13) 1.2259(14) 0.4739(14)
C16E C 1.0847(13) 1.2259(14) 0.5261(14)
C16Q C 1.2259(14) 1.0847(13) 0.5261(14)
C16R C 1.2259(14) 0.9153(13) 0.4739(14)
C16D C 1.0847(13) 0.7741(14) 0.4739(14)
C16G C 0.9153(13) 0.7741(14) 0.5261(14)
C16M C 1.5261(14) 1.2259(14) 0.0847(13)
C16N C 1.4739(14) 1.2259(14) -0.0847(13)
C16H C 1.4739(14) 1.0847(13) -0.2259(14)
C16K C 1.5261(14) 0.9153(13) -0.2259(14)
C16O C 1.5261(14) 0.7741(14) -0.0847(13)
C16L C 1.4739(14) 0.7741(14) 0.0847(13)
C16J C 1.4739(14) 0.9153(13) 0.2259(14)
C16I C 1.5261(14) 1.0847(13) 0.2259(14)
C16N_2 C 1.4739(14) 0.2259(14) -0.0847(13)
C16H_2 C 1.4739(14) 0.0847(13) -0.2259(14)
C16Q_2 C 1.2259(14) 0.0847(13) -0.4739(14)
C16E_2 C 1.0847(13) 0.2259(14) -0.4739(14)
C16G_2 C 0.9153(13) 0.7741(14) -0.4739(14)
C16S_2 C 0.7741(14) 0.9153(13) -0.4739(14)
C16K_2 C 0.5261(14) 0.9153(13) -0.2259(14)
C16O_2 C 0.5261(14) 0.7741(14) -0.0847(13)
C16F_2 C 0.9153(13) 0.2259(14) 0.4739(14)
C16P_2 C 0.7741(14) 0.0847(13) 0.4739(14)
C16I_2 C 0.5261(14) 0.0847(13) 0.2259(14)
C16M_2 C 0.5261(14) 0.2259(14) 0.0847(13)
C17B C 1.0904(6) 0.3657(11) 0.0904(6)
C17C C 0.9096(6) 0.6343(11) 0.0904(6)
C17A C 1.0904(6) 0.6343(11) -0.0904(6)
C17D C 0.9096(6) 0.9096(6) 0.3657(11)
C17F C 1.0904(6) 1.0904(6) 0.3657(11)
C17G C 1.0904(6) 0.9096(6) 0.6343(11)
C17E C 0.9096(6) 1.0904(6) 0.6343(11)
C17J C 1.3657(11) 1.0904(6) 0.0904(6)
C17H C 1.3657(11) 0.9096(6) -0.0904(6)
C17I C 1.6343(11) 0.9096(6) 0.0904(6)
C17K C 1.6343(11) 1.0904(6) -0.0904(6)
C17J_2 C 1.3657(11) 0.0904(6) 0.0904(6)
C17H_2 C 1.3657(11) -0.0904(6) -0.0904(6)
C17G_2 C 1.0904(6) -0.0904(6) -0.3657(11)
C17E_2 C 0.9096(6) 0.0904(6) -0.3657(11)
C17G_3 C 1.0904(6) 0.9096(6) -0.3657(11)
C17E_3 C 0.9096(6) 1.0904(6) -0.3657(11)
C17K_2 C 0.6343(11) 1.0904(6) -0.0904(6)
C17I_2 C 0.6343(11) 0.9096(6) 0.0904(6)
C17F_2 C 1.0904(6) 0.0904(6) 0.3657(11)
C17D_2 C 0.9096(6) -0.0904(6) 0.3657(11)
C17I_3 C 0.6343(11) -0.0904(6) 0.0904(6)
C17K_3 C 0.6343(11) 0.0904(6) -0.0904(6)
H14B H 1.0974 0.4064 0.0974
H14C H 0.9026 0.5936 0.0974
H14A H 1.0974 0.5936 -0.0974
H14D H 0.9026 0.9026 0.4064
H14F H 1.0974 1.0974 0.4064
H14G H 1.0974 0.9026 0.5936
H14E H 0.9026 1.0974 0.5936
H14J H 1.4064 1.0974 0.0974
H14H H 1.4064 0.9026 -0.0974
H14I H 1.5936 0.9026 0.0974
H14K H 1.5936 1.0974 -0.0974
N6T N 0.9438(10) 0.3380(10) -0.1153(10)
N6V N 1.0562(10) 0.3380(10) 0.1153(10)
N6B N 1.1153(10) 0.3380(10) 0.0562(10)
N6U N 0.9438(10) 0.6620(10) 0.1153(10)
N6C N 0.8847(10) 0.6620(10) 0.0562(10)
N6A N 1.1153(10) 0.6620(10) -0.0562(10)
N6W N 1.0562(10) 0.6620(10) -0.1153(10)
N6D N 0.9438(10) 0.8847(10) 0.3380(10)
N6P N 0.8847(10) 0.9438(10) 0.3380(10)
N6R N 1.1153(10) 1.0562(10) 0.3380(10)
N6F N 1.0562(10) 1.1153(10) 0.3380(10)
N6Q N 1.1153(10) 0.9438(10) 0.6620(10)
N6G N 1.0562(10) 0.8847(10) 0.6620(10)
N6E N 0.9438(10) 1.1153(10) 0.6620(10)
N6S N 0.8847(10) 1.0562(10) 0.6620(10)
N6J N 1.3380(10) 1.0562(10) 0.1153(10)
N6N N 1.3380(10) 1.1153(10) 0.0562(10)
N6L N 1.3380(10) 0.8847(10) -0.0562(10)
N6H N 1.3380(10) 0.9438(10) -0.1153(10)
N6O N 1.6620(10) 0.8847(10) 0.0562(10)
N6I N 1.6620(10) 0.9438(10) 0.1153(10)
N6K N 1.6620(10) 1.0562(10) -0.1153(10)
N6M N 1.6620(10) 1.1153(10) -0.0562(10)
N6N_2 N 1.3380(10) 0.1153(10) 0.0562(10)
N6H_2 N 1.3380(10) -0.0562(10) -0.1153(10)
N6Q_2 N 1.1153(10) -0.0562(10) -0.3380(10)
N6E_2 N 0.9438(10) 0.1153(10) -0.3380(10)
N6G_2 N 1.0562(10) 0.8847(10) -0.3380(10)
N6S_2 N 0.8847(10) 1.0562(10) -0.3380(10)
N6K_2 N 0.6620(10) 1.0562(10) -0.1153(10)
N6O_2 N 0.6620(10) 0.8847(10) 0.0562(10)
N6F_2 N 1.0562(10) 0.1153(10) 0.3380(10)
N6P_2 N 0.8847(10) -0.0562(10) 0.3380(10)
N6I_2 N 0.6620(10) -0.0562(10) 0.1153(10)
N6M_2 N 0.6620(10) 0.1153(10) -0.0562(10)
C19T C 0.9451(12) 0.2858(15) -0.0980(11)
C19V C 1.0549(12) 0.2858(15) 0.0980(11)
C19B C 1.0980(11) 0.2858(15) 0.0549(12)
C19U C 0.9451(12) 0.7142(15) 0.0980(11)
C19C C 0.9020(11) 0.7142(15) 0.0549(12)
C19A C 1.0980(11) 0.7142(15) -0.0549(12)
C19W C 1.0549(12) 0.7142(15) -0.0980(11)
C19D C 0.9451(12) 0.9020(11) 0.2858(15)
C19P C 0.9020(11) 0.9451(12) 0.2858(15)
C19R C 1.0980(11) 1.0549(12) 0.2858(15)
C19F C 1.0549(12) 1.0980(11) 0.2858(15)
C19Q C 1.0980(11) 0.9451(12) 0.7142(15)
C19G C 1.0549(12) 0.9020(11) 0.7142(15)
C19E C 0.9451(12) 1.0980(11) 0.7142(15)
C19S C 0.9020(11) 1.0549(12) 0.7142(15)
C19J C 1.2858(15) 1.0549(12) 0.0980(11)
C19N C 1.2858(15) 1.0980(11) 0.0549(12)
C19L C 1.2858(15) 0.9020(11) -0.0549(12)
C19H C 1.2858(15) 0.9451(12) -0.0980(11)
C19O C 1.7142(15) 0.9020(11) 0.0549(12)
C19I C 1.7142(15) 0.9451(12) 0.0980(11)
C19K C 1.7142(15) 1.0549(12) -0.0980(11)
C19M C 1.7142(15) 1.0980(11) -0.0549(12)
C19N_2 C 1.2858(15) 0.0980(11) 0.0549(12)
C19H_2 C 1.2858(15) -0.0549(12) -0.0980(11)
C19Q_2 C 1.0980(11) -0.0549(12) -0.2858(15)
C19E_2 C 0.9451(12) 0.0980(11) -0.2858(15)
C19G_2 C 1.0549(12) 0.9020(11) -0.2858(15)
C19S_2 C 0.9020(11) 1.0549(12) -0.2858(15)
C19K_2 C 0.7142(15) 1.0549(12) -0.0980(11)
C19O_2 C 0.7142(15) 0.9020(11) 0.0549(12)
C19F_2 C 1.0549(12) 0.0980(11) 0.2858(15)
C19P_2 C 0.9020(11) -0.0549(12) 0.2858(15)
C19I_2 C 0.7142(15) -0.0549(12) 0.0980(11)
C19M_2 C 0.7142(15) 0.0980(11) -0.0549(12)
H16T H 0.9694 0.2542 -0.1110
H16V H 1.0306 0.2542 0.1110
H16B H 1.1110 0.2542 0.0306
H16C H 0.8890 0.7458 0.0306
H16U H 0.9694 0.7458 0.1110
H16A H 1.1110 0.7458 -0.0306
H16W H 1.0306 0.7458 -0.1110
H16P H 0.8890 0.9694 0.2542
H16D H 0.9694 0.8890 0.2542
H16R H 1.1110 1.0306 0.2542
H16F H 1.0306 1.1110 0.2542
H16G H 1.0306 0.8890 0.7458
H16Q H 1.1110 0.9694 0.7458
H16E H 0.9694 1.1110 0.7458
H16S H 0.8890 1.0306 0.7458
H16N H 1.2542 1.1110 0.0306
H16J H 1.2542 1.0306 0.1110
H16L H 1.2542 0.8890 -0.0306
H16H H 1.2542 0.9694 -0.1110
H16I H 1.7458 0.9694 0.1110
H16O H 1.7458 0.8890 0.0306
H16K H 1.7458 1.0306 -0.1110
H16M H 1.7458 1.1110 -0.0306
N7T N 0.9156(13) 0.3764(12) -0.1456(14)
N7B N 1.1456(14) 0.3764(12) 0.0844(13)
N7V N 1.0844(13) 0.3764(12) 0.1456(14)
N7C N 0.8544(14) 0.6236(12) 0.0844(13)
N7U N 0.9156(13) 0.6236(12) 0.1456(14)
N7W N 1.0844(13) 0.6236(12) -0.1456(14)
N7A N 1.1456(14) 0.6236(12) -0.0844(13)
N7P N 0.8544(14) 0.9156(13) 0.3764(12)
N7D N 0.9156(13) 0.8544(14) 0.3764(12)
N7F N 1.0844(13) 1.1456(14) 0.3764(12)
N7R N 1.1456(14) 1.0844(13) 0.3764(12)
N7G N 1.0844(13) 0.8544(14) 0.6236(12)
N7Q N 1.1456(14) 0.9156(13) 0.6236(12)
N7S N 0.8544(14) 1.0844(13) 0.6236(12)
N7E N 0.9156(13) 1.1456(14) 0.6236(12)
N7N N 1.3764(12) 1.1456(14) 0.0844(13)
N7J N 1.3764(12) 1.0844(13) 0.1456(14)
N7H N 1.3764(12) 0.9156(13) -0.1456(14)
N7L N 1.3764(12) 0.8544(14) -0.0844(13)
N7I N 1.6236(12) 0.9156(13) 0.1456(14)
N7O N 1.6236(12) 0.8544(14) 0.0844(13)
N7M N 1.6236(12) 1.1456(14) -0.0844(13)
N7K N 1.6236(12) 1.0844(13) -0.1456(14)
N7N_2 N 1.3764(12) 0.1456(14) 0.0844(13)
N7H_2 N 1.3764(12) -0.0844(13) -0.1456(14)
N7Q_2 N 1.1456(14) -0.0844(13) -0.3764(12)
N7E_2 N 0.9156(13) 0.1456(14) -0.3764(12)
N7G_2 N 1.0844(13) 0.8544(14) -0.3764(12)
N7S_2 N 0.8544(14) 1.0844(13) -0.3764(12)
N7K_2 N 0.6236(12) 1.0844(13) -0.1456(14)
N7O_2 N 0.6236(12) 0.8544(14) 0.0844(13)
N7F_2 N 1.0844(13) 0.1456(14) 0.3764(12)
N7P_2 N 0.8544(14) -0.0844(13) 0.3764(12)
N7I_2 N 0.6236(12) -0.0844(13) 0.1456(14)
N7M_2 N 0.6236(12) 0.1456(14) -0.0844(13)
C21T C 1.1244(11) 0.4367(11) -0.2548(11)
C21B C 1.2548(11) 0.4367(11) -0.1244(11)
C21A C 1.2548(11) 0.5633(11) 0.1244(11)
C21U C 1.1244(11) 0.5633(11) 0.2548(11)
C21V C 0.8756(11) 0.4367(11) 0.2548(11)
C21C C 0.7452(11) 0.5633(11) -0.1244(11)
C21W C 0.8756(11) 0.5633(11) -0.2548(11)
C21P C 0.7452(11) 1.1244(11) 0.4367(11)
C21F C 0.8756(11) 1.2548(11) 0.4367(11)
C21E C 1.1244(11) 1.2548(11) 0.5633(11)
C21Q C 1.2548(11) 1.1244(11) 0.5633(11)
C21R C 1.2548(11) 0.8756(11) 0.4367(11)
C21D C 1.1244(11) 0.7452(11) 0.4367(11)
C21G C 0.8756(11) 0.7452(11) 0.5633(11)
C21S C 0.7452(11) 0.8756(11) 0.5633(11)
C21N C 1.4367(11) 1.2548(11) -0.1244(11)
C21H C 1.4367(11) 1.1244(11) -0.2548(11)
C21K C 1.5633(11) 0.8756(11) -0.2548(11)
C21O C 1.5633(11) 0.7452(11) -0.1244(11)
C21L C 1.4367(11) 0.7452(11) 0.1244(11)
C21J C 1.4367(11) 0.8756(11) 0.2548(11)
C21I C 1.5633(11) 1.1244(11) 0.2548(11)
C21M C 1.5633(11) 1.2548(11) 0.1244(11)
C22 C 0.7588(15) 0.3482(17) -0.1439(16)
loop_
_geom_bond_atom_site_label_1
_geom_bond_atom_site_label_2
_geom_bond_site_symmetry_1
_geom_bond_site_symmetry_2
Zn1 N1 1_555 1_555
C1 H1 1_555 1_555
N1 C1 1_555 1_555
C2 N1 1_555 1_555
C3 C2 1_555 1_555
H2 C3 1_555 1_555
C4 C3 1_555 1_555
H3 C4 1_555 1_555
Cl1 C4 1_555 1_555
C5 H4 1_555 1_555
N2 Zn1 1_555 1_555
C6 N2 1_555 1_555
C7 C6 1_555 1_555
C8 C7 1_555 1_555
H6 C8 1_555 1_555
C13 H10 1_555 1_555
N4 Zn1 1_555 1_555
N5 Zn1 1_555 1_555
C15 N4 1_555 1_555
H12 C15 1_555 1_555
C16 N5 1_555 1_555
C17 H14 1_555 1_555
N6 Zn1 1_555 1_555
C19 N6 1_555 1_555
H16 C19 1_555 1_555
N7 Zn1 1_555 1_555
C21 C7 1_555 1_555
Zn1M N1M 1_555 1_555
Zn1I N1I 1_555 1_555
Zn1P N1P 1_555 1_555
Zn1F N1F 1_555 1_555
Zn1V N1V 1_555 1_555
Zn1C N1C 1_555 1_555
Zn1O N1O 1_555 1_555
Zn1K N1K 1_555 1_555
Zn1S N1S 1_555 1_555
Zn1G N1G 1_555 1_555
Zn1W N1W 1_555 1_555
Zn1T N1T 1_555 1_555
Zn1E N1E 1_555 1_555
Zn1Q N1Q 1_555 1_555
Zn1H N1H 1_555 1_555
Zn1N N1N 1_555 1_555
Zn1B N1B 1_555 1_555
Zn1A N1A 1_555 1_555
Zn1L N1L 1_555 1_555
Zn1J N1J 1_555 1_555
Zn1R N1R 1_555 1_555
Zn1D N1D 1_555 1_555
Zn1U N1U 1_555 1_555
Zn1E_2 N1E_2 1_555 1_555
Zn1T_2 N1T_2 1_555 1_555
Zn1W_2 N1W_2 1_555 1_555
Zn1G_2 N1G_2 1_555 1_555
Zn1P_2 N1P_2 1_555 1_555
Zn1S_2 N1S_2 1_555 1_555
Zn1F_2 N1F_2 1_555 1_555
Zn1E_3 N1E_3 1_555 1_555
Zn1Q_2 N1Q_2 1_555 1_555
Zn1H_2 N1H_2 1_555 1_555
Zn1K_2 N1K_2 1_555 1_555
Zn1S_3 N1S_3 1_555 1_555
Zn1P_3 N1P_3 1_555 1_555
Zn1I_2 N1I_2 1_555 1_555
Zn1N_2 N1N_2 1_555 1_555
Zn1M_2 N1M_2 1_555 1_555
Zn1H_3 N1H_3 1_555 1_555
Zn1K_3 N1K_3 1_555 1_555
Zn1O_2 N1O_2 1_555 1_555
Zn1C_2 N1C_2 1_555 1_555
Zn1_2 N1_2 1_555 1_555
Zn1M_3 N1M_3 1_555 1_555
C1I H1I 1_555 1_555
C1F H1F 1_555 1_555
C1C H1C 1_555 1_555
C1K H1K 1_555 1_555
C1G H1G 1_555 1_555
C1E H1E 1_555 1_555
C1H H1H 1_555 1_555
C1B H1B 1_555 1_555
C1A H1A 1_555 1_555
C1J H1J 1_555 1_555
C1D H1D 1_555 1_555
C1E_2 N1E_2 1_555 1_555
C1G_2 N1W_2 1_555 1_555
C1H_2 N1Q_2 1_555 1_555
C1K_2 N1K_2 1_555 1_555
C1I_2 N1P_3 1_555 1_555
C1C_2 N1O_2 1_555 1_555
C1_2 N1_2 1_555 1_555
N1M C1 1_555 1_555
N1I C1I 1_555 1_555
N1P C1I 1_555 1_555
N1F C1F 1_555 1_555
N1V C1F 1_555 1_555
N1C C1C 1_555 1_555
N1O C1C 1_555 1_555
N1K C1K 1_555 1_555
N1S C1K 1_555 1_555
N1G C1G 1_555 1_555
N1W C1G 1_555 1_555
N1T C1E 1_555 1_555
N1E C1E 1_555 1_555
N1Q C1H 1_555 1_555
N1H C1H 1_555 1_555
N1N C1B 1_555 1_555
N1B C1B 1_555 1_555
N1A C1A 1_555 1_555
N1L C1A 1_555 1_555
N1J C1J 1_555 1_555
N1R C1J 1_555 1_555
N1D C1D 1_555 1_555
N1U C1D 1_555 1_555
N1E_2 C2E 1_555 1_555
N1T_2 C1E_2 1_555 1_555
N1W_2 C2W 1_555 1_555
N1G_2 C1G_2 1_555 1_555
N1Q_2 C2Q 1_555 1_555
N1H_2 C1H_2 1_555 1_555
N1K_2 C2K 1_555 1_555
N1S_3 C1K_2 1_555 1_555
N1P_3 C2P 1_555 1_555
N1I_2 C1I_2 1_555 1_555
N1O_2 C2O 1_555 1_555
N1C_2 C1C_2 1_555 1_555
N1_2 C2_2 1_555 1_555
N1M_3 C1_2 1_555 1_555
C2U N1U 1_555 1_555
C2D N1D 1_555 1_555
C2V N1V 1_555 1_555
C2F N1F 1_555 1_555
C2E C2T 1_555 1_555
C2T N1T_2 1_555 1_555
C2W C2G 1_555 1_555
C2G N1G_2 1_555 1_555
C2R N1R 1_555 1_555
C2J N1J 1_555 1_555
C2Q C2H 1_555 1_555
C2H N1H_2 1_555 1_555
C2K C2S 1_555 1_555
C2S N1S_3 1_555 1_555
C2P C2I 1_555 1_555
C2I N1I_2 1_555 1_555
C2L N1L 1_555 1_555
C2A N1A 1_555 1_555
C2O C2C 1_555 1_555
C2C N1C_2 1_555 1_555
C2_2 C2M 1_555 1_555
C2M N1M_3 1_555 1_555
C2N N1N 1_555 1_555
C2B N1B 1_555 1_555
C2H_2 N1H 1_555 1_555
C2Q_2 N1Q 1_555 1_555
C2E_2 N1E 1_555 1_555
C2T_2 N1T 1_555 1_555
C2W_2 N1W 1_555 1_555
C2G_2 N1G 1_555 1_555
C2S_2 N1S 1_555 1_555
C2K_2 N1K 1_555 1_555
C2O_2 N1O 1_555 1_555
C2C_2 N1C 1_555 1_555
C2P_2 N1P 1_555 1_555
C2I_2 N1I 1_555 1_555
C2M_2 C2 1_555 1_555
C3D C2D 1_555 1_555
C3U C2U 1_555 1_555
C3V C2V 1_555 1_555
C3F C2F 1_555 1_555
C3E C2E 1_555 1_555
C3T C2T 1_555 1_555
C3W C2W 1_555 1_555
C3G C2G 1_555 1_555
C3J C2J 1_555 1_555
C3R C2R 1_555 1_555
C3Q C2Q 1_555 1_555
C3H C2H 1_555 1_555
C3K C2K 1_555 1_555
C3S C2S 1_555 1_555
C3P C2P 1_555 1_555
C3I C2I 1_555 1_555
C3A C2A 1_555 1_555
C3L C2L 1_555 1_555
C3O C2O 1_555 1_555
C3C C2C 1_555 1_555
C3_2 C2_2 1_555 1_555
C3M C2M 1_555 1_555
C3N C2N 1_555 1_555
C3B C2B 1_555 1_555
C3Q_2 C2Q_2 1_555 1_555
C3H_2 C2H_2 1_555 1_555
C3T_2 C2T_2 1_555 1_555
C3E_2 C2E_2 1_555 1_555
C3G_2 C2G_2 1_555 1_555
C3W_2 C2W_2 1_555 1_555
C3K_2 C2K_2 1_555 1_555
C3S_2 C2S_2 1_555 1_555
C3C_2 C2C_2 1_555 1_555
C3O_2 C2O_2 1_555 1_555
C3I_2 C2I_2 1_555 1_555
C3P_2 C2P_2 1_555 1_555
H2D C3D 1_555 1_555
H2U C3U 1_555 1_555
H2F C3F 1_555 1_555
H2E C3E 1_555 1_555
H2T C3T 1_555 1_555
H2G C3G 1_555 1_555
H2W C3W 1_555 1_555
H2V C3V 1_555 1_555
H2J C3J 1_555 1_555
H2R C3R 1_555 1_555
H2H C3H 1_555 1_555
H2K C3K 1_555 1_555
H2S C3S 1_555 1_555
H2I C3I 1_555 1_555
H2P C3P 1_555 1_555
H2Q C3Q 1_555 1_555
H2A C3A 1_555 1_555
H2L C3L 1_555 1_555
H2C C3C 1_555 1_555
H2_2 C3_2 1_555 1_555
H2M C3M 1_555 1_555
H2B C3B 1_555 1_555
H2N C3N 1_555 1_555
H2O C3O 1_555 1_555
H2O_2 C3O_2 1_555 1_555
C4D C3D 1_555 1_555
C4U C3U 1_555 1_555
C4V C3V 1_555 1_555
C4F C3F 1_555 1_555
C4E C3E 1_555 1_555
C4T C3T 1_555 1_555
C4W C3W 1_555 1_555
C4G C3G 1_555 1_555
C4J C3J 1_555 1_555
C4R C3R 1_555 1_555
C4Q C3Q 1_555 1_555
C4H C3H 1_555 1_555
C4K C3K 1_555 1_555
C4S C3S 1_555 1_555
C4P C3P 1_555 1_555
C4I C3I 1_555 1_555
C4A C3A 1_555 1_555
C4L C3L 1_555 1_555
C4O C3O 1_555 1_555
C4C C3C 1_555 1_555
C4_2 C3_2 1_555 1_555
C4M C3M 1_555 1_555
C4N C3N 1_555 1_555
C4B C3B 1_555 1_555
C4M_2 C4 1_555 1_555
C4C_2 C3C_2 1_555 1_555
C4O_2 C3O_2 1_555 1_555
H3U C4U 1_555 1_555
H3V C4V 1_555 1_555
H3F C4F 1_555 1_555
H3T C4T 1_555 1_555
H3W C4W 1_555 1_555
H3G C4G 1_555 1_555
H3D C4D 1_555 1_555
H3E C4E 1_555 1_555
H3R C4R 1_555 1_555
H3Q C4Q 1_555 1_555
H3H C4H 1_555 1_555
H3S C4S 1_555 1_555
H3P C4P 1_555 1_555
H3I C4I 1_555 1_555
H3J C4J 1_555 1_555
H3K C4K 1_555 1_555
H3L C4L 1_555 1_555
H3O C4O 1_555 1_555
H3C C4C 1_555 1_555
H3M C4M 1_555 1_555
H3N C4N 1_555 1_555
H3B C4B 1_555 1_555
H3A C4A 1_555 1_555
H3_2 C4_2 1_555 1_555
H3C_2 C4C_2 1_555 1_555
H3O_2 C4O_2 1_555 1_555
Cl1U C4U 1_555 1_555
Cl1V C4V 1_555 1_555
Cl1F C4F 1_555 1_555
Cl1E C4E 1_555 1_555
Cl1T C4T 1_555 1_555
Cl1W C4W 1_555 1_555
Cl1G C4G 1_555 1_555
Cl1D C4D 1_555 1_555
Cl1R C4R 1_555 1_555
Cl1Q C4Q 1_555 1_555
Cl1H C4H 1_555 1_555
Cl1K C4K 1_555 1_555
Cl1S C4S 1_555 1_555
Cl1P C4P 1_555 1_555
Cl1I C4I 1_555 1_555
Cl1J C4J 1_555 1_555
Cl1L C4L 1_555 1_555
Cl1O C4O 1_555 1_555
Cl1C C4C 1_555 1_555
Cl1_2 C4_2 1_555 1_555
Cl1M C4M 1_555 1_555
Cl1N C4N 1_555 1_555
Cl1B C4B 1_555 1_555
Cl1A C4A 1_555 1_555
Cl1C_2 Cl1 1_555 1_555
Cl1O_2 C4O_2 1_555 1_555
C5I H4I 1_555 1_555
C5F H4F 1_555 1_555
C5K H4K 1_555 1_555
C5G H4G 1_555 1_555
C5C H4C 1_555 1_555
C5E H4E 1_555 1_555
C5H H4H 1_555 1_555
C5B H4B 1_555 1_555
C5J H4J 1_555 1_555
C5D H4D 1_555 1_555
C5A H4A 1_555 1_555
C5F_2 N2P_2 1_555 1_555
C5E_2 N2E_2 1_555 1_555
C5G_2 N2G_2 1_555 1_555
C5H_2 N2N_2 1_555 1_555
C5K_2 N2K_2 1_555 1_555
C5I_2 N2I_2 1_555 1_555
N2M Zn1M 1_555 1_555
N2I Zn1I 1_555 1_555
N2P Zn1P 1_555 1_555
N2F Zn1F 1_555 1_555
N2V C5 1_555 1_555
N2O Zn1O 1_555 1_555
N2K Zn1K 1_555 1_555
N2S Zn1S 1_555 1_555
N2G Zn1G 1_555 1_555
N2W Zn1W 1_555 1_555
N2C Zn1C 1_555 1_555
N2E Zn1E 1_555 1_555
N2Q Zn1Q 1_555 1_555
N2H Zn1H 1_555 1_555
N2N Zn1N 1_555 1_555
N2B Zn1B 1_555 1_555
N2T Zn1T 1_555 1_555
N2L Zn1L 1_555 1_555
N2J Zn1J 1_555 1_555
N2R Zn1R 1_555 1_555
N2D Zn1D 1_555 1_555
N2U Zn1U 1_555 1_555
N2A Zn1A 1_555 1_555
N2G_2 Zn1G_2 1_555 1_555
N2P_2 Zn1P_2 1_555 1_555
N2S_2 Zn1S_2 1_555 1_555
N2F_2 Zn1F_2 1_555 1_555
N2E_2 Zn1E_3 1_555 1_555
N2Q_2 Zn1Q_2 1_555 1_555
N2I_2 Zn1I_2 1_555 1_555
N2N_2 Zn1N_2 1_555 1_555
N2M_2 Zn1M_2 1_555 1_555
N2H_2 Zn1H_3 1_555 1_555
N2K_2 Zn1K_3 1_555 1_555
N2O_2 Zn1O_2 1_555 1_555
C6T N2T 1_555 1_555
C6B N2B 1_555 1_555
C6A N2A 1_555 1_555
C6U N2U 1_555 1_555
C6V C6 1_555 1_555
C6C N2C 1_555 1_555
C6W N2W 1_555 1_555
C6P N2P_2 1_555 1_555
C6F N2F_2 1_555 1_555
C6E N2E_2 1_555 1_555
C6Q N2Q_2 1_555 1_555
C6R N2R 1_555 1_555
C6D N2D 1_555 1_555
C6G N2G_2 1_555 1_555
C6S N2S_2 1_555 1_555
C6N N2N_2 1_555 1_555
C6H N2H_2 1_555 1_555
C6K N2K_2 1_555 1_555
C6O N2O_2 1_555 1_555
C6L N2L 1_555 1_555
C6J N2J 1_555 1_555
C6I N2I_2 1_555 1_555
C6M N2M_2 1_555 1_555
C6N_2 N2N 1_555 1_555
C6H_2 N2H 1_555 1_555
C6Q_2 N2Q 1_555 1_555
C6E_2 N2E 1_555 1_555
C6G_2 N2G 1_555 1_555
C6S_2 N2S 1_555 1_555
C6K_2 N2K 1_555 1_555
C6O_2 N2O 1_555 1_555
C6F_2 N2F 1_555 1_555
C6P_2 N2P 1_555 1_555
C6I_2 N2I 1_555 1_555
C6M_2 N2M 1_555 1_555
C7T C6T 1_555 1_555
C7B C6B 1_555 1_555
C7A C6A 1_555 1_555
C7U C6U 1_555 1_555
C7V C6V 1_555 1_555
C7C C6C 1_555 1_555
C7W C6W 1_555 1_555
C7P C6P 1_555 1_555
C7F C6F 1_555 1_555
C7E C6E 1_555 1_555
C7Q C6Q 1_555 1_555
C7R C6R 1_555 1_555
C7D C6D 1_555 1_555
C7G C6G 1_555 1_555
C7S C6S 1_555 1_555
C7N C6N 1_555 1_555
C7H C6H 1_555 1_555
C7K C6K 1_555 1_555
C7O C6O 1_555 1_555
C7L C6L 1_555 1_555
C7J C6J 1_555 1_555
C7I C6I 1_555 1_555
C7M C6M 1_555 1_555
C7H_2 C6H_2 1_555 1_555
C7N_2 C6N_2 1_555 1_555
C7E_2 C6E_2 1_555 1_555
C7Q_2 C6Q_2 1_555 1_555
C7S_2 C6S_2 1_555 1_555
C7G_2 C6G_2 1_555 1_555
C7O_2 C6O_2 1_555 1_555
C7K_2 C6K_2 1_555 1_555
C7P_2 C6P_2 1_555 1_555
C7F_2 C6F_2 1_555 1_555
C7M_2 C6M_2 1_555 1_555
C7I_2 C6I_2 1_555 1_555
C8B C7B 1_555 1_555
C8T C7T 1_555 1_555
C8U C7U 1_555 1_555
C8A C7A 1_555 1_555
C8V C8 1_555 1_555
C8W C7W 1_555 1_555
C8C C7C 1_555 1_555
C8F C7F 1_555 1_555
C8P C7P 1_555 1_555
C8Q C7Q 1_555 1_555
C8E C7E 1_555 1_555
C8D C7D 1_555 1_555
C8R C7R 1_555 1_555
C8S C7S 1_555 1_555
C8G C7G 1_555 1_555
C8H C7H 1_555 1_555
C8N C7N 1_555 1_555
C8O C7O 1_555 1_555
C8K C7K 1_555 1_555
C8J C7J 1_555 1_555
C8L C7L 1_555 1_555
C8M C7M 1_555 1_555
C8I C7I 1_555 1_555
H6T C8T 1_555 1_555
H6B C8B 1_555 1_555
H6A C8A 1_555 1_555
H6U C8U 1_555 1_555
H6V C8V 1_555 1_555
H6C C8C 1_555 1_555
H6W C8W 1_555 1_555
H6P C8P 1_555 1_555
H6F C8F 1_555 1_555
H6E C8E 1_555 1_555
H6Q C8Q 1_555 1_555
H6R C8R 1_555 1_555
H6D C8D 1_555 1_555
H6G C8G 1_555 1_555
H6S C8S 1_555 1_555
H6N C8N 1_555 1_555
H6H C8H 1_555 1_555
H6K C8K 1_555 1_555
H6O C8O 1_555 1_555
H6L C8L 1_555 1_555
H6J C8J 1_555 1_555
H6I C8I 1_555 1_555
H6M C8M 1_555 1_555
C13T H10T 1_555 1_555
C13A H10B 1_555 1_555
C13U H10U 1_555 1_555
C13D H10D 1_555 1_555
C13P H10P 1_555 1_555
C13E H10F 1_555 1_555
C13Q H10Q 1_555 1_555
C13I H10J 1_555 1_555
C13M H10N 1_555 1_555
C13H H10H 1_555 1_555
C13L H10O 1_555 1_555
C13M_2 N4N_2 1_555 1_555
C13H_2 N4H_2 1_555 1_555
C13Q_2 N4Q_2 1_555 1_555
C13E_2 N4E_2 1_555 1_555
C13D_2 N4G_2 1_555 1_555
C13P_2 N4S_2 1_555 1_555
C13H_3 N4K_2 1_555 1_555
C13L_2 N4O_2 1_555 1_555
C13E_3 N4F_2 1_555 1_555
C13P_3 N4P_2 1_555 1_555
C13I_2 N4I_2 1_555 1_555
C13M_3 N4M_2 1_555 1_555
H10C C13 1_555 1_555
H10W C13T 1_555 1_555
H10A C13A 1_555 1_555
H10V C13U 1_555 1_555
H10G C13D 1_555 1_555
H10S C13P 1_555 1_555
H10E C13E 1_555 1_555
H10R C13Q 1_555 1_555
H10I C13I 1_555 1_555
H10M C13M 1_555 1_555
H10K C13H 1_555 1_555
H10L C13L 1_555 1_555
N4C C13 1_555 1_555
N4T Zn1T 1_555 1_555
N4W Zn1W 1_555 1_555
N4B Zn1B 1_555 1_555
N4A Zn1A 1_555 1_555
N4U Zn1U 1_555 1_555
N4V Zn1V 1_555 1_555
N4D Zn1D 1_555 1_555
N4G Zn1G_2 1_555 1_555
N4P Zn1P_2 1_555 1_555
N4S Zn1S_2 1_555 1_555
N4F Zn1F_2 1_555 1_555
N4E Zn1E_3 1_555 1_555
N4Q Zn1Q_2 1_555 1_555
N4R Zn1R 1_555 1_555
N4J Zn1J 1_555 1_555
N4I Zn1I_2 1_555 1_555
N4N Zn1N_2 1_555 1_555
N4M Zn1M_2 1_555 1_555
N4H Zn1H_3 1_555 1_555
N4K Zn1K_3 1_555 1_555
N4O Zn1O_2 1_555 1_555
N4L Zn1L 1_555 1_555
N4N_2 Zn1N 1_555 1_555
N4H_2 Zn1H 1_555 1_555
N4Q_2 Zn1Q 1_555 1_555
N4E_2 Zn1E 1_555 1_555
N4G_2 Zn1G 1_555 1_555
N4S_2 Zn1S 1_555 1_555
N4K_2 Zn1K 1_555 1_555
N4O_2 Zn1O 1_555 1_555
N4F_2 Zn1F 1_555 1_555
N4P_2 Zn1P 1_555 1_555
N4I_2 Zn1I 1_555 1_555
N4M_2 Zn1M 1_555 1_555
N5C C13 1_555 1_555
N5W Zn1W 1_555 1_555
N5T Zn1T 1_555 1_555
N5B Zn1B 1_555 1_555
N5A Zn1A 1_555 1_555
N5U Zn1U 1_555 1_555
N5V Zn1V 1_555 1_555
N5G Zn1G_2 1_555 1_555
N5D Zn1D 1_555 1_555
N5S Zn1S_2 1_555 1_555
N5P Zn1P_2 1_555 1_555
N5F Zn1F_2 1_555 1_555
N5E Zn1E_3 1_555 1_555
N5Q Zn1Q_2 1_555 1_555
N5R Zn1R 1_555 1_555
N5I Zn1I_2 1_555 1_555
N5J Zn1J 1_555 1_555
N5M Zn1M_2 1_555 1_555
N5N Zn1N_2 1_555 1_555
N5H Zn1H_3 1_555 1_555
N5K Zn1K_3 1_555 1_555
N5O Zn1O_2 1_555 1_555
N5L Zn1L 1_555 1_555
N5N_2 Zn1N 1_555 1_555
N5H_2 Zn1H 1_555 1_555
N5Q_2 Zn1Q 1_555 1_555
N5E_2 Zn1E 1_555 1_555
N5G_2 Zn1G 1_555 1_555
N5S_2 Zn1S 1_555 1_555
N5K_2 Zn1K 1_555 1_555
N5O_2 Zn1O 1_555 1_555
N5F_2 Zn1F 1_555 1_555
N5P_2 Zn1P 1_555 1_555
N5I_2 Zn1I 1_555 1_555
N5M_2 Zn1M 1_555 1_555
C15T N4T 1_555 1_555
C15W N4W 1_555 1_555
C15B N4B 1_555 1_555
C15A N4A 1_555 1_555
C15U N4U 1_555 1_555
C15V N4V 1_555 1_555
C15C C16 1_555 1_555
C15P N4P 1_555 1_555
C15S N4S 1_555 1_555
C15F N4F 1_555 1_555
C15E N4E 1_555 1_555
C15Q N4Q 1_555 1_555
C15R N4R 1_555 1_555
C15D N4D 1_555 1_555
C15G N4G 1_555 1_555
C15N N4N 1_555 1_555
C15M N4M 1_555 1_555
C15H N4H 1_555 1_555
C15K N4K 1_555 1_555
C15O N4O 1_555 1_555
C15L N4L 1_555 1_555
C15J N4J 1_555 1_555
C15I N4I 1_555 1_555
C15N_2 N4N_2 1_555 1_555
C15H_2 N4H_2 1_555 1_555
C15Q_2 N4Q_2 1_555 1_555
C15E_2 N4E_2 1_555 1_555
C15G_2 N4G_2 1_555 1_555
C15S_2 N4S_2 1_555 1_555
C15K_2 N4K_2 1_555 1_555
C15O_2 N4O_2 1_555 1_555
C15F_2 N4F_2 1_555 1_555
C15P_2 N4P_2 1_555 1_555
C15I_2 N4I_2 1_555 1_555
C15M_2 N4M_2 1_555 1_555
H12T C15T 1_555 1_555
H12W C15W 1_555 1_555
H12B C15B 1_555 1_555
H12A C15A 1_555 1_555
H12U C15U 1_555 1_555
H12V C15V 1_555 1_555
H12C C15C 1_555 1_555
H12P C15P 1_555 1_555
H12S C15S 1_555 1_555
H12F C15F 1_555 1_555
H12E C15E 1_555 1_555
H12Q C15Q 1_555 1_555
H12R C15R 1_555 1_555
H12D C15D 1_555 1_555
H12G C15G 1_555 1_555
H12N C15N 1_555 1_555
H12M C15M 1_555 1_555
H12H C15H 1_555 1_555
H12K C15K 1_555 1_555
H12O C15O 1_555 1_555
H12L C15L 1_555 1_555
H12J C15J 1_555 1_555
H12I C15I 1_555 1_555
C16W N5W 1_555 1_555
C16T N5T 1_555 1_555
C16B N5B 1_555 1_555
C16A N5A 1_555 1_555
C16U N5U 1_555 1_555
C16V N5V 1_555 1_555
C16C C15 1_555 1_555
C16S N5S 1_555 1_555
C16P N5P 1_555 1_555
C16F N5F 1_555 1_555
C16E N5E 1_555 1_555
C16Q N5Q 1_555 1_555
C16R N5R 1_555 1_555
C16D N5D 1_555 1_555
C16G N5G 1_555 1_555
C16M N5M 1_555 1_555
C16N N5N 1_555 1_555
C16H N5H 1_555 1_555
C16K N5K 1_555 1_555
C16O N5O 1_555 1_555
C16L N5L 1_555 1_555
C16J N5J 1_555 1_555
C16I N5I 1_555 1_555
C16N_2 N5N_2 1_555 1_555
C16H_2 N5H_2 1_555 1_555
C16Q_2 N5Q_2 1_555 1_555
C16E_2 N5E_2 1_555 1_555
C16G_2 N5G_2 1_555 1_555
C16S_2 N5S_2 1_555 1_555
C16K_2 N5K_2 1_555 1_555
C16O_2 N5O_2 1_555 1_555
C16F_2 N5F_2 1_555 1_555
C16P_2 N5P_2 1_555 1_555
C16I_2 N5I_2 1_555 1_555
C16M_2 N5M_2 1_555 1_555
C17B H14B 1_555 1_555
C17C H14C 1_555 1_555
C17A H14A 1_555 1_555
C17D H14D 1_555 1_555
C17F H14F 1_555 1_555
C17G H14G 1_555 1_555
C17E H14E 1_555 1_555
C17J H14J 1_555 1_555
C17H H14H 1_555 1_555
C17I H14I 1_555 1_555
C17K H14K 1_555 1_555
C17J_2 N6N_2 1_555 1_555
C17H_2 N6H_2 1_555 1_555
C17G_2 N6Q_2 1_555 1_555
C17E_2 N6E_2 1_555 1_555
C17G_3 N6G_2 1_555 1_555
C17E_3 N6S_2 1_555 1_555
C17K_2 N6K_2 1_555 1_555
C17I_2 N6O_2 1_555 1_555
C17F_2 N6F_2 1_555 1_555
C17D_2 N6P_2 1_555 1_555
C17I_3 N6I_2 1_555 1_555
C17K_3 N6M_2 1_555 1_555
N6T C17 1_555 1_555
N6V Zn1V 1_555 1_555
N6B Zn1B 1_555 1_555
N6U Zn1U 1_555 1_555
N6C Zn1C 1_555 1_555
N6A Zn1A 1_555 1_555
N6W Zn1W 1_555 1_555
N6D Zn1D 1_555 1_555
N6P Zn1P_2 1_555 1_555
N6R Zn1R 1_555 1_555
N6F Zn1F_2 1_555 1_555
N6Q Zn1Q_2 1_555 1_555
N6G Zn1G_2 1_555 1_555
N6E Zn1E_3 1_555 1_555
N6S Zn1S_2 1_555 1_555
N6J Zn1J 1_555 1_555
N6N Zn1N_2 1_555 1_555
N6L Zn1L 1_555 1_555
N6H Zn1H_3 1_555 1_555
N6O Zn1O_2 1_555 1_555
N6I Zn1I_2 1_555 1_555
N6K Zn1K_3 1_555 1_555
N6M Zn1M_2 1_555 1_555
N6N_2 Zn1N 1_555 1_555
N6H_2 Zn1H 1_555 1_555
N6Q_2 Zn1Q 1_555 1_555
N6E_2 Zn1E 1_555 1_555
N6G_2 Zn1G 1_555 1_555
N6S_2 Zn1S 1_555 1_555
N6K_2 Zn1K 1_555 1_555
N6O_2 Zn1O 1_555 1_555
N6F_2 Zn1F 1_555 1_555
N6P_2 Zn1P 1_555 1_555
N6I_2 Zn1I 1_555 1_555
N6M_2 Zn1M 1_555 1_555
C19T C19 1_555 1_555
C19V N6V 1_555 1_555
C19B N6B 1_555 1_555
C19U N6U 1_555 1_555
C19C N6C 1_555 1_555
C19A N6A 1_555 1_555
C19W N6W 1_555 1_555
C19D N6D 1_555 1_555
C19P N6P 1_555 1_555
C19R N6R 1_555 1_555
C19F N6F 1_555 1_555
C19Q N6Q 1_555 1_555
C19G N6G 1_555 1_555
C19E N6E 1_555 1_555
C19S N6S 1_555 1_555
C19J N6J 1_555 1_555
C19N N6N 1_555 1_555
C19L N6L 1_555 1_555
C19H N6H 1_555 1_555
C19O N6O 1_555 1_555
C19I N6I 1_555 1_555
C19K N6K 1_555 1_555
C19M N6M 1_555 1_555
C19N_2 N6N_2 1_555 1_555
C19H_2 N6H_2 1_555 1_555
C19Q_2 N6Q_2 1_555 1_555
C19E_2 N6E_2 1_555 1_555
C19G_2 N6G_2 1_555 1_555
C19S_2 N6S_2 1_555 1_555
C19K_2 N6K_2 1_555 1_555
C19O_2 N6O_2 1_555 1_555
C19F_2 N6F_2 1_555 1_555
C19P_2 N6P_2 1_555 1_555
C19I_2 N6I_2 1_555 1_555
C19M_2 N6M_2 1_555 1_555
H16T C19T 1_555 1_555
H16V C19V 1_555 1_555
H16B C19B 1_555 1_555
H16C C19C 1_555 1_555
H16U C19U 1_555 1_555
H16A C19A 1_555 1_555
H16W C19W 1_555 1_555
H16P C19P 1_555 1_555
H16D C19D 1_555 1_555
H16R C19R 1_555 1_555
H16F C19F 1_555 1_555
H16G C19G 1_555 1_555
H16Q C19Q 1_555 1_555
H16E C19E 1_555 1_555
H16S C19S 1_555 1_555
H16N C19N 1_555 1_555
H16J C19J 1_555 1_555
H16L C19L 1_555 1_555
H16H C19H 1_555 1_555
H16I C19I 1_555 1_555
H16O C19O 1_555 1_555
H16K C19K 1_555 1_555
H16M C19M 1_555 1_555
N7T C17 1_555 1_555
N7B Zn1B 1_555 1_555
N7V Zn1V 1_555 1_555
N7C Zn1C 1_555 1_555
N7U Zn1U 1_555 1_555
N7W Zn1W 1_555 1_555
N7A Zn1A 1_555 1_555
N7P Zn1P_2 1_555 1_555
N7D Zn1D 1_555 1_555
N7F Zn1F_2 1_555 1_555
N7R Zn1R 1_555 1_555
N7G Zn1G_2 1_555 1_555
N7Q Zn1Q_2 1_555 1_555
N7S Zn1S_2 1_555 1_555
N7E Zn1E_3 1_555 1_555
N7N Zn1N_2 1_555 1_555
N7J Zn1J 1_555 1_555
N7H Zn1H_3 1_555 1_555
N7L Zn1L 1_555 1_555
N7I Zn1I_2 1_555 1_555
N7O Zn1O_2 1_555 1_555
N7M Zn1M_2 1_555 1_555
N7K Zn1K_3 1_555 1_555
N7N_2 Zn1N 1_555 1_555
N7H_2 Zn1H 1_555 1_555
N7Q_2 Zn1Q 1_555 1_555
N7E_2 Zn1E 1_555 1_555
N7G_2 Zn1G 1_555 1_555
N7S_2 Zn1S 1_555 1_555
N7K_2 Zn1K 1_555 1_555
N7O_2 Zn1O 1_555 1_555
N7F_2 Zn1F 1_555 1_555
N7P_2 Zn1P 1_555 1_555
N7I_2 Zn1I 1_555 1_555
N7M_2 Zn1M 1_555 1_555
C21T C7T 1_555 1_555
C21B C7B 1_555 1_555
C21A C7A 1_555 1_555
C21U C7U 1_555 1_555
C21V C7V 1_555 1_555
C21C C7C 1_555 1_555
C21W C7W 1_555 1_555
C21P C7P 1_555 1_555
C21F C7F 1_555 1_555
C21E C7E 1_555 1_555
C21Q C7Q 1_555 1_555
C21R C7R 1_555 1_555
C21D C7D 1_555 1_555
C21G C7G 1_555 1_555
C21S C7S 1_555 1_555
C21N C7N 1_555 1_555
C21H C7H 1_555 1_555
C21K C7K 1_555 1_555
C21O C7O 1_555 1_555
C21L C7L 1_555 1_555
C21J C7J 1_555 1_555
C21I C7I 1_555 1_555
C21M C7M 1_555 1_555
H3 Cl1 1_555 1_555
C5 N2 1_555 1_555
C8 C21 1_555 1_555
C13 N4 1_555 1_555
C13 N5 1_555 1_555
N4 N5 1_555 1_555
C16 C21 1_555 1_555
C17 N6 1_555 1_555
C17 N7 1_555 1_555
N6 N7 1_555 1_555
Zn1V N2V 1_555 1_555
Zn1C N4C 1_555 1_555
Zn1C N5C 1_555 1_555
Zn1T N6T 1_555 1_555
Zn1T N7T 1_555 1_555
N1M C2M_2 1_555 1_555
C2U C2D 1_555 1_555
C2V C2F 1_555 1_555
C2R C2J 1_555 1_555
C2L C2A 1_555 1_555
C2N C2B 1_555 1_555
C2H_2 C2Q_2 1_555 1_555
C2E_2 C2T_2 1_555 1_555
C2W_2 C2G_2 1_555 1_555
C2S_2 C2K_2 1_555 1_555
C2O_2 C2C_2 1_555 1_555
C2P_2 C2I_2 1_555 1_555
C4D C4U 1_555 1_555
C4V C4F 1_555 1_555
C4E C4T 1_555 1_555
C4W C4G 1_555 1_555
C4J C4R 1_555 1_555
C4Q C4H 1_555 1_555
C4K C4S 1_555 1_555
C4P C4I 1_555 1_555
C4A C4L 1_555 1_555
C4O C4C 1_555 1_555
C4_2 C4M 1_555 1_555
C4N C4B 1_555 1_555
C4C_2 C4O_2 1_555 1_555
C4C_2 Cl1C_2 1_555 1_555
H3U Cl1U 1_555 1_555
H3V Cl1V 1_555 1_555
H3F Cl1F 1_555 1_555
H3T Cl1T 1_555 1_555
H3W Cl1W 1_555 1_555
H3G Cl1G 1_555 1_555
H3D Cl1D 1_555 1_555
H3E Cl1E 1_555 1_555
H3R Cl1R 1_555 1_555
H3Q Cl1Q 1_555 1_555
H3H Cl1H 1_555 1_555
H3S Cl1S 1_555 1_555
H3P Cl1P 1_555 1_555
H3I Cl1I 1_555 1_555
H3J Cl1J 1_555 1_555
H3K Cl1K 1_555 1_555
H3L Cl1L 1_555 1_555
H3O Cl1O 1_555 1_555
H3C Cl1C 1_555 1_555
H3M Cl1M 1_555 1_555
H3N Cl1N 1_555 1_555
H3B Cl1B 1_555 1_555
H3A Cl1A 1_555 1_555
H3_2 Cl1_2 1_555 1_555
H3C_2 Cl1C_2 1_555 1_555
Cl1U Cl1V 1_555 1_555
Cl1F Cl1E 1_555 1_555
Cl1T Cl1W 1_555 1_555
Cl1G Cl1D 1_555 1_555
Cl1R Cl1Q 1_555 1_555
Cl1H Cl1K 1_555 1_555
Cl1S Cl1P 1_555 1_555
Cl1I Cl1J 1_555 1_555
Cl1L Cl1O 1_555 1_555
Cl1C Cl1_2 1_555 1_555
Cl1M Cl1N 1_555 1_555
Cl1B Cl1A 1_555 1_555
C5I N2M 1_555 1_555
C5I N2I 1_555 1_555
C5F N2P 1_555 1_555
C5F N2F 1_555 1_555
C5K N2O 1_555 1_555
C5K N2K 1_555 1_555
C5G N2S 1_555 1_555
C5G N2G 1_555 1_555
C5C N2W 1_555 1_555
C5C N2C 1_555 1_555
C5E N2E 1_555 1_555
C5E N2Q 1_555 1_555
C5H N2H 1_555 1_555
C5H N2N 1_555 1_555
C5B N2B 1_555 1_555
C5B N2T 1_555 1_555
C5J N2L 1_555 1_555
C5J N2J 1_555 1_555
C5D N2R 1_555 1_555
C5D N2D 1_555 1_555
C5A N2U 1_555 1_555
C5A N2A 1_555 1_555
C5F_2 N2F_2 1_555 1_555
C5E_2 N2Q_2 1_555 1_555
C5G_2 N2S_2 1_555 1_555
C5H_2 N2H_2 1_555 1_555
C5K_2 N2O_2 1_555 1_555
C5I_2 N2M_2 1_555 1_555
N2V C6V 1_555 1_555
C6T C6B 1_555 1_555
C6A C6U 1_555 1_555
C6C C6W 1_555 1_555
C6P C6F 1_555 1_555
C6E C6Q 1_555 1_555
C6R C6D 1_555 1_555
C6G C6S 1_555 1_555
C6N C6H 1_555 1_555
C6K C6O 1_555 1_555
C6L C6J 1_555 1_555
C6I C6M 1_555 1_555
C6N_2 C6H_2 1_555 1_555
C6Q_2 C6E_2 1_555 1_555
C6G_2 C6S_2 1_555 1_555
C6K_2 C6O_2 1_555 1_555
C6F_2 C6P_2 1_555 1_555
C6I_2 C6M_2 1_555 1_555
C7V C8V 1_555 1_555
C8B C8T 1_555 1_555
C8B C21B 1_555 1_555
C8T C21T 1_555 1_555
C8U C8A 1_555 1_555
C8U C21U 1_555 1_555
C8A C21A 1_555 1_555
C8V C21V 1_555 1_555
C8W C8C 1_555 1_555
C8W C21W 1_555 1_555
C8C C21C 1_555 1_555
C8F C8P 1_555 1_555
C8F C21F 1_555 1_555
C8P C21P 1_555 1_555
C8Q C8E 1_555 1_555
C8Q C21Q 1_555 1_555
C8E C21E 1_555 1_555
C8D C8R 1_555 1_555
C8D C21D 1_555 1_555
C8R C21R 1_555 1_555
C8S C8G 1_555 1_555
C8S C21S 1_555 1_555
C8G C21G 1_555 1_555
C8H C8N 1_555 1_555
C8H C21H 1_555 1_555
C8N C21N 1_555 1_555
C8O C8K 1_555 1_555
C8O C21O 1_555 1_555
C8K C21K 1_555 1_555
C8J C8L 1_555 1_555
C8J C21J 1_555 1_555
C8L C21L 1_555 1_555
C8M C8I 1_555 1_555
C8M C21M 1_555 1_555
C8I C21I 1_555 1_555
C13T N4T 1_555 1_555
C13T N4W 1_555 1_555
C13T N5W 1_555 1_555
C13T N5T 1_555 1_555
C13A N4B 1_555 1_555
C13A N4A 1_555 1_555
C13A N5B 1_555 1_555
C13A N5A 1_555 1_555
C13U N4U 1_555 1_555
C13U N4V 1_555 1_555
C13U N5U 1_555 1_555
C13U N5V 1_555 1_555
C13D N4D 1_555 1_555
C13D N4G 1_555 1_555
C13D N5G 1_555 1_555
C13D N5D 1_555 1_555
C13P N4P 1_555 1_555
C13P N4S 1_555 1_555
C13P N5S 1_555 1_555
C13P N5P 1_555 1_555
C13E N4F 1_555 1_555
C13E N4E 1_555 1_555
C13E N5F 1_555 1_555
C13E N5E 1_555 1_555
C13Q N4Q 1_555 1_555
C13Q N4R 1_555 1_555
C13Q N5Q 1_555 1_555
C13Q N5R 1_555 1_555
C13I N4J 1_555 1_555
C13I N4I 1_555 1_555
C13I N5I 1_555 1_555
C13I N5J 1_555 1_555
C13M N4N 1_555 1_555
C13M N4M 1_555 1_555
C13M N5M 1_555 1_555
C13M N5N 1_555 1_555
C13H N4H 1_555 1_555
C13H N4K 1_555 1_555
C13H N5H 1_555 1_555
C13H N5K 1_555 1_555
C13L N4O 1_555 1_555
C13L N4L 1_555 1_555
C13L N5O 1_555 1_555
C13L N5L 1_555 1_555
C13M_2 N5N_2 1_555 1_555
C13H_2 N5H_2 1_555 1_555
C13Q_2 N5Q_2 1_555 1_555
C13E_2 N5E_2 1_555 1_555
C13D_2 N5G_2 1_555 1_555
C13P_2 N5S_2 1_555 1_555
C13H_3 N5K_2 1_555 1_555
C13L_2 N5O_2 1_555 1_555
C13E_3 N5F_2 1_555 1_555
C13P_3 N5P_2 1_555 1_555
C13I_2 N5I_2 1_555 1_555
C13M_3 N5M_2 1_555 1_555
N4C N5C 1_555 1_555
N4C C15C 1_555 1_555
N4T N5T 1_555 1_555
N4W N5W 1_555 1_555
N4B N5B 1_555 1_555
N4A N5A 1_555 1_555
N4U N5U 1_555 1_555
N4V N5V 1_555 1_555
N4D N5D 1_555 1_555
N4G N5G 1_555 1_555
N4P N5P 1_555 1_555
N4S N5S 1_555 1_555
N4F N5F 1_555 1_555
N4E N5E 1_555 1_555
N4Q N5Q 1_555 1_555
N4R N5R 1_555 1_555
N4J N5J 1_555 1_555
N4I N5I 1_555 1_555
N4N N5N 1_555 1_555
N4M N5M 1_555 1_555
N4H N5H 1_555 1_555
N4K N5K 1_555 1_555
N4O N5O 1_555 1_555
N4L N5L 1_555 1_555
N4N_2 N5N_2 1_555 1_555
N4H_2 N5H_2 1_555 1_555
N4Q_2 N5Q_2 1_555 1_555
N4E_2 N5E_2 1_555 1_555
N4G_2 N5G_2 1_555 1_555
N4S_2 N5S_2 1_555 1_555
N4K_2 N5K_2 1_555 1_555
N4O_2 N5O_2 1_555 1_555
N4F_2 N5F_2 1_555 1_555
N4P_2 N5P_2 1_555 1_555
N4I_2 N5I_2 1_555 1_555
N4M_2 N5M_2 1_555 1_555
N5C C16C 1_555 1_555
C15T C16W 1_555 1_555
C15W C16T 1_555 1_555
C15B C16A 1_555 1_555
C15A C16B 1_555 1_555
C15U C16V 1_555 1_555
C15V C16U 1_555 1_555
C15P C16S 1_555 1_555
C15S C16P 1_555 1_555
C15F C16E 1_555 1_555
C15E C16F 1_555 1_555
C15Q C16R 1_555 1_555
C15R C16Q 1_555 1_555
C15D C16G 1_555 1_555
C15G C16D 1_555 1_555
C15N C16M 1_555 1_555
C15M C16N 1_555 1_555
C15H C16K 1_555 1_555
C15K C16H 1_555 1_555
C15O C16L 1_555 1_555
C15L C16O 1_555 1_555
C15J C16I 1_555 1_555
C15I C16J 1_555 1_555
C16W C21W 1_555 1_555
C16T C21T 1_555 1_555
C16B C21B 1_555 1_555
C16A C21A 1_555 1_555
C16U C21U 1_555 1_555
C16V C21V 1_555 1_555
C16C C21C 1_555 1_555
C16S C21S 1_555 1_555
C16P C21P 1_555 1_555
C16F C21F 1_555 1_555
C16E C21E 1_555 1_555
C16Q C21Q 1_555 1_555
C16R C21R 1_555 1_555
C16D C21D 1_555 1_555
C16G C21G 1_555 1_555
C16M C21M 1_555 1_555
C16N C21N 1_555 1_555
C16H C21H 1_555 1_555
C16K C21K 1_555 1_555
C16O C21O 1_555 1_555
C16L C21L 1_555 1_555
C16J C21J 1_555 1_555
C16I C21I 1_555 1_555
C17B N6V 1_555 1_555
C17B N6B 1_555 1_555
C17B N7B 1_555 1_555
C17B N7V 1_555 1_555
C17C N6U 1_555 1_555
C17C N6C 1_555 1_555
C17C N7C 1_555 1_555
C17C N7U 1_555 1_555
C17A N6A 1_555 1_555
C17A N6W 1_555 1_555
C17A N7W 1_555 1_555
C17A N7A 1_555 1_555
C17D N6D 1_555 1_555
C17D N6P 1_555 1_555
C17D N7P 1_555 1_555
C17D N7D 1_555 1_555
C17F N6R 1_555 1_555
C17F N6F 1_555 1_555
C17F N7F 1_555 1_555
C17F N7R 1_555 1_555
C17G N6Q 1_555 1_555
C17G N6G 1_555 1_555
C17G N7G 1_555 1_555
C17G N7Q 1_555 1_555
C17E N6E 1_555 1_555
C17E N6S 1_555 1_555
C17E N7S 1_555 1_555
C17E N7E 1_555 1_555
C17J N6J 1_555 1_555
C17J N6N 1_555 1_555
C17J N7N 1_555 1_555
C17J N7J 1_555 1_555
C17H N6L 1_555 1_555
C17H N6H 1_555 1_555
C17H N7H 1_555 1_555
C17H N7L 1_555 1_555
C17I N6O 1_555 1_555
C17I N6I 1_555 1_555
C17I N7I 1_555 1_555
C17I N7O 1_555 1_555
C17K N6K 1_555 1_555
C17K N6M 1_555 1_555
C17K N7M 1_555 1_555
C17K N7K 1_555 1_555
C17J_2 N7N_2 1_555 1_555
C17H_2 N7H_2 1_555 1_555
C17G_2 N7Q_2 1_555 1_555
C17E_2 N7E_2 1_555 1_555
C17G_3 N7G_2 1_555 1_555
C17E_3 N7S_2 1_555 1_555
C17K_2 N7K_2 1_555 1_555
C17I_2 N7O_2 1_555 1_555
C17F_2 N7F_2 1_555 1_555
C17D_2 N7P_2 1_555 1_555
C17I_3 N7I_2 1_555 1_555
C17K_3 N7M_2 1_555 1_555
N6T C19T 1_555 1_555
N6T N7T 1_555 1_555
N6V N7V 1_555 1_555
N6B N7B 1_555 1_555
N6U N7U 1_555 1_555
N6C N7C 1_555 1_555
N6A N7A 1_555 1_555
N6W N7W 1_555 1_555
N6D N7D 1_555 1_555
N6P N7P 1_555 1_555
N6R N7R 1_555 1_555
N6F N7F 1_555 1_555
N6Q N7Q 1_555 1_555
N6G N7G 1_555 1_555
N6E N7E 1_555 1_555
N6S N7S 1_555 1_555
N6J N7J 1_555 1_555
N6N N7N 1_555 1_555
N6L N7L 1_555 1_555
N6H N7H 1_555 1_555
N6O N7O 1_555 1_555
N6I N7I 1_555 1_555
N6K N7K 1_555 1_555
N6M N7M 1_555 1_555
N6N_2 N7N_2 1_555 1_555
N6H_2 N7H_2 1_555 1_555
N6Q_2 N7Q_2 1_555 1_555
N6E_2 N7E_2 1_555 1_555
N6G_2 N7G_2 1_555 1_555
N6S_2 N7S_2 1_555 1_555
N6K_2 N7K_2 1_555 1_555
N6O_2 N7O_2 1_555 1_555
N6F_2 N7F_2 1_555 1_555
N6P_2 N7P_2 1_555 1_555
N6I_2 N7I_2 1_555 1_555
N6M_2 N7M_2 1_555 1_555
C19V C19B 1_555 1_555
C19U C19C 1_555 1_555
C19A C19W 1_555 1_555
C19D C19P 1_555 1_555
C19R C19F 1_555 1_555
C19Q C19G 1_555 1_555
C19E C19S 1_555 1_555
C19J C19N 1_555 1_555
C19L C19H 1_555 1_555
C19O C19I 1_555 1_555
C19K C19M 1_555 1_555

#END
