
#######################################################################
#
#                 Cambridge Crystallographic Data Centre
#                                CCDC 
#
#######################################################################
#
# If this CIF has been generated from an entry in the Cambridge 
# Structural Database, then it will include bibliographic, chemical, 
# crystal, experimental, refinement or atomic coordinate data resulting 
# from the CCDC's data processing and validation procedures.
#
#######################################################################

data_YIWSEE
_chemical_formula_moiety         '(C48 H66 Cu3 N6 O12)n'
_symmetry_cell_setting           cubic
_symmetry_space_group_name_H-M   'I a -3'
_symmetry_Int_Tables_number      206
_space_group_name_Hall           '-I 2b 2c 3'
loop_
_symmetry_equiv_pos_site_id
_symmetry_equiv_pos_as_xyz
1 x,y,z
2 1/2-x,-y,1/2+z
3 -x,1/2+y,1/2-z
4 1/2+x,1/2-y,-z
5 z,x,y
6 1/2+z,1/2-x,-y
7 1/2-z,-x,1/2+y
8 -z,1/2+x,1/2-y
9 y,z,x
10 -y,1/2+z,1/2-x
11 1/2+y,1/2-z,-x
12 1/2-y,-z,1/2+x
13 1/2+x,1/2+y,1/2+z
14 -x,1/2-y,z
15 1/2-x,y,-z
16 x,-y,1/2-z
17 1/2+z,1/2+x,1/2+y
18 z,-x,1/2-y
19 -z,1/2-x,y
20 1/2-z,x,-y
21 1/2+y,1/2+z,1/2+x
22 1/2-y,z,-x
23 y,-z,1/2-x
24 -y,1/2-z,x
25 -x,-y,-z
26 1/2+x,y,1/2-z
27 x,1/2-y,1/2+z
28 1/2-x,1/2+y,z
29 -z,-x,-y
30 1/2-z,1/2+x,y
31 1/2+z,x,1/2-y
32 z,1/2-x,1/2+y
33 -y,-z,-x
34 y,1/2-z,1/2+x
35 1/2-y,1/2+z,x
36 1/2+y,z,1/2-x
37 1/2-x,1/2-y,1/2-z
38 x,1/2+y,-z
39 1/2+x,-y,z
40 -x,y,1/2+z
41 1/2-z,1/2-x,1/2-y
42 -z,x,1/2+y
43 z,1/2+x,-y
44 1/2+z,-x,y
45 1/2-y,1/2-z,1/2-x
46 1/2+y,-z,x
47 -y,z,1/2+x
48 y,1/2+z,-x
_cell_length_a                   30.69(2)
_cell_length_b                   30.69(2)
_cell_length_c                   30.69(2)
_cell_angle_alpha                90
_cell_angle_beta                 90
_cell_angle_gamma                90
_cell_volume                     28906.2
loop_
_atom_site_label
_atom_site_type_symbol
_atom_site_fract_x
_atom_site_fract_y
_atom_site_fract_z
_atom_site_U_iso_or_equiv
_atom_site_thermal_displace_type
Cu1 Cu 0.65759(3) 0.54185(3) 0.25834(3) 0.0625 Uani
N1 N 0.6635(2) 0.60735(19) 0.2845(2) 0.0537 Uani
N2 N 0.7712(2) 0.68323(18) 0.2565(2) 0.0490 Uani
O1 O 0.70674(17) 0.54746(19) 0.21909(18) 0.0720 Uani
O2 O 0.69864(18) 0.4782(2) 0.19624(18) 0.0743 Uani
O3 O 0.61708(17) 0.54394(18) 0.20746(18) 0.0657 Uani
O4 O 0.60870(16) 0.47268(18) 0.20370(17) 0.0663 Uani
C1 C 0.7186(3) 0.5142(3) 0.1960(3) 0.0690 Uani
C2 C 0.7589(4) 0.5183(4) 0.1654(4) 0.1017 Uani
C3 C 0.7786(3) 0.5646(3) 0.1716(3) 0.1107 Uani
H1 H 0.8032 0.5684 0.1516 0.1660 Uiso
H2 H 0.7888 0.5679 0.2017 0.1660 Uiso
H3 H 0.7563 0.5866 0.1654 0.1660 Uiso
C4 C 0.7912(3) 0.4828(4) 0.1774(5) 0.1937 Uani
H4 H 0.7776 0.4542 0.1730 0.2920 Uiso
H5 H 0.7996 0.4860 0.2081 0.2920 Uiso
H6 H 0.8171 0.4853 0.1589 0.2920 Uiso
C5 C 0.7421(4) 0.5113(4) 0.1192(4) 0.1693 Uani
H7 H 0.7293 0.4822 0.1168 0.2540 Uiso
H8 H 0.7664 0.5140 0.0986 0.2540 Uiso
H9 H 0.7199 0.5333 0.1125 0.2540 Uiso
C6 C 0.6006(3) 0.5102(3) 0.1906(3) 0.0640 Uani
C7 C 0.5686(3) 0.5165(3) 0.1544(3) 0.0877 Uani
C8 C 0.5636(4) 0.5599(3) 0.1367(3) 0.1180 Uani
H10 H 0.5562 0.5802 0.1602 0.1780 Uiso
H11 H 0.5403 0.5599 0.1149 0.1780 Uiso
H12 H 0.5910 0.5690 0.1230 0.1780 Uiso
C9 C 0.5226(4) 0.5049(4) 0.1728(4) 0.1523 Uani
H13 H 0.5152 0.5250 0.1965 0.2280 Uiso
H14 H 0.5228 0.4750 0.1839 0.2280 Uiso
H15 H 0.5009 0.5074 0.1495 0.2280 Uiso
C10 C 0.5774(4) 0.4836(4) 0.1177(4) 0.1577 Uani
H16 H 0.6053 0.4903 0.1038 0.2370 Uiso
H17 H 0.5540 0.4854 0.0960 0.2370 Uiso
H18 H 0.5783 0.4541 0.1299 0.2370 Uiso
C11 C 0.6342(3) 0.6231(3) 0.3117(3) 0.0610 Uani
H19 H 0.6080 0.6072 0.3163 0.0730 Uiso
C12 C 0.6401(3) 0.6617(3) 0.3336(3) 0.0717 Uani
H20 H 0.6183 0.6723 0.3528 0.0860 Uiso
C13 C 0.6776(3) 0.6845(3) 0.3276(3) 0.0630 Uani
H21 H 0.6819 0.7113 0.3426 0.0760 Uiso
C14 C 0.7086(3) 0.6694(3) 0.3004(3) 0.0513 Uani
C15 C 0.6995(3) 0.6305(3) 0.2792(3) 0.0540 Uani
H22 H 0.7206 0.6197 0.2593 0.0650 Uiso
C16 C 0.7471(2) 0.6952(3) 0.2907(3) 0.0510 Uani
N1E N 0.7845(2) 0.8365(2) 0.39265(19) 0.0537 Uani
N2E N 0.7565(2) 0.7288(2) 0.31677(18) 0.0490 Uani
C11E C 0.8117(3) 0.8658(3) 0.3769(3) 0.0610 Uani
H19E H 0.8163 0.8920 0.3928 0.0730 Uiso
C12E C 0.8336(3) 0.8599(3) 0.3383(3) 0.0717 Uani
H20E H 0.8528 0.8817 0.3277 0.0860 Uiso
C13E C 0.8276(3) 0.8224(3) 0.3155(3) 0.0630 Uani
H21E H 0.8426 0.8181 0.2887 0.0760 Uiso
C14E C 0.8004(3) 0.7914(3) 0.3306(3) 0.0513 Uani
C15E C 0.7792(3) 0.8005(3) 0.3695(3) 0.0540 Uani
H22E H 0.7593 0.7794 0.3803 0.0650 Uiso
C16E C 0.7907(3) 0.7529(2) 0.3048(3) 0.0510 Uani
N1K N 0.89265(19) 0.7155(2) 0.1635(2) 0.0537 Uani
N2K N 0.81677(18) 0.7435(2) 0.2712(2) 0.0490 Uani
C11K C 0.8769(3) 0.6883(3) 0.1342(3) 0.0610 Uani
H19K H 0.8928 0.6837 0.1080 0.0730 Uiso
C12K C 0.8383(3) 0.6664(3) 0.1401(3) 0.0717 Uani
H20K H 0.8277 0.6472 0.1183 0.0860 Uiso
C13K C 0.8155(3) 0.6724(3) 0.1776(3) 0.0630 Uani
H21K H 0.7887 0.6574 0.1819 0.0760 Uiso
C14K C 0.8306(3) 0.6996(3) 0.2086(3) 0.0513 Uani
C15K C 0.8695(3) 0.7208(3) 0.1995(3) 0.0540 Uani
H22K H 0.8803 0.7407 0.2206 0.0650 Uiso
C16K C 0.8048(3) 0.7093(3) 0.2471(2) 0.0510 Uani
Cu1E Cu 0.75834(3) 0.84241(3) 0.45815(3) 0.0625 Uani
O1E O 0.71909(18) 0.79326(17) 0.45254(19) 0.0720 Uani
O2E O 0.69624(18) 0.80136(18) 0.5218(2) 0.0743 Uani
O3E O 0.70746(18) 0.88292(17) 0.45606(18) 0.0657 Uani
O4E O 0.70370(17) 0.89130(16) 0.52732(18) 0.0663 Uani
C1E C 0.6960(3) 0.7814(3) 0.4858(3) 0.0690 Uani
C2E C 0.6654(4) 0.7411(4) 0.4817(4) 0.1017 Uani
C3E C 0.6716(3) 0.7214(3) 0.4354(3) 0.1107 Uani
H1E H 0.6516 0.6968 0.4316 0.1660 Uiso
H2E H 0.7017 0.7112 0.4321 0.1660 Uiso
H3E H 0.6654 0.7437 0.4134 0.1660 Uiso
C4E C 0.6774(5) 0.7088(3) 0.5172(4) 0.1937 Uani
H4E H 0.6730 0.7224 0.5458 0.2920 Uiso
H5E H 0.7081 0.7004 0.5140 0.2920 Uiso
H6E H 0.6589 0.6829 0.5147 0.2920 Uiso
C5E C 0.6192(4) 0.7579(4) 0.4887(4) 0.1693 Uani
H7E H 0.6168 0.7707 0.5178 0.2540 Uiso
H8E H 0.5986 0.7336 0.4860 0.2540 Uiso
H9E H 0.6125 0.7801 0.4667 0.2540 Uiso
C6E C 0.6906(3) 0.8994(3) 0.4898(3) 0.0640 Uani
C7E C 0.6544(3) 0.9314(3) 0.4835(3) 0.0877 Uani
C8E C 0.6367(3) 0.9364(4) 0.4401(3) 0.1180 Uani
H10E H 0.6602 0.9438 0.4198 0.1780 Uiso
H11E H 0.6149 0.9597 0.4401 0.1780 Uiso
H12E H 0.6230 0.9090 0.4310 0.1780 Uiso
C9E C 0.6728(4) 0.9774(4) 0.4951(4) 0.1523 Uani
H13E H 0.6965 0.9848 0.4750 0.2280 Uiso
H14E H 0.6839 0.9772 0.5250 0.2280 Uiso
H15E H 0.6495 0.9991 0.4926 0.2280 Uiso
C10E C 0.6177(4) 0.9226(4) 0.5164(4) 0.1577 Uani
H16E H 0.6038 0.8947 0.5097 0.2370 Uiso
H17E H 0.5960 0.9460 0.5146 0.2370 Uiso
H18E H 0.6299 0.9217 0.5459 0.2370 Uiso
Cu1K Cu 0.95815(3) 0.74166(3) 0.15759(3) 0.0625 Uani
O1K O 0.95254(19) 0.78091(18) 0.20674(17) 0.0720 Uani
O2K O 1.0218(2) 0.80376(18) 0.19864(18) 0.0743 Uani
O3K O 0.95606(18) 0.79254(18) 0.11708(17) 0.0657 Uani
O4K O 1.02732(18) 0.79630(17) 0.10870(16) 0.0663 Uani
C1K C 0.9858(3) 0.8040(3) 0.2186(3) 0.0690 Uani
C2K C 0.9817(4) 0.8346(4) 0.2589(4) 0.1017 Uani
C3K C 0.9354(3) 0.8284(3) 0.2786(3) 0.1107 Uani
H1K H 0.9316 0.8484 0.3032 0.1660 Uiso
H2K H 0.9321 0.7983 0.2888 0.1660 Uiso
H3K H 0.9134 0.8346 0.2563 0.1660 Uiso
C4K C 1.0172(4) 0.8226(5) 0.2912(3) 0.1937 Uani
H4K H 1.0458 0.8270 0.2776 0.2920 Uiso
H5K H 1.0140 0.7919 0.2996 0.2920 Uiso
H6K H 1.0147 0.8411 0.3171 0.2920 Uiso
C5K C 0.9887(4) 0.8808(4) 0.2421(4) 0.1693 Uani
H7K H 1.0178 0.8832 0.2293 0.2540 Uiso
H8K H 0.9860 0.9014 0.2664 0.2540 Uiso
H9K H 0.9667 0.8875 0.2199 0.2540 Uiso
C6K C 0.9898(3) 0.8094(3) 0.1006(3) 0.0640 Uani
C7K C 0.9835(3) 0.8456(3) 0.0686(3) 0.0877 Uani
C8K C 0.9401(3) 0.8633(3) 0.0636(4) 0.1180 Uani
H10K H 0.9198 0.8398 0.0562 0.1780 Uiso
H11K H 0.9401 0.8851 0.0403 0.1780 Uiso
H12K H 0.9310 0.8770 0.0910 0.1780 Uiso
C9K C 0.9951(4) 0.8272(4) 0.0226(4) 0.1523 Uani
H13K H 0.9750 0.8035 0.0152 0.2280 Uiso
H14K H 1.0250 0.8161 0.0228 0.2280 Uiso
H15K H 0.9926 0.8505 0.0009 0.2280 Uiso
C10K C 1.0164(4) 0.8823(4) 0.0774(4) 0.1577 Uani
H16K H 1.0097 0.8962 0.1053 0.2370 Uiso
H17K H 1.0146 0.9040 0.0540 0.2370 Uiso
H18K H 1.0459 0.8701 0.0783 0.2370 Uiso
Cu1O Cu 0.65759(3) 0.45815(3) 0.24166(3) 0.0625 Uani
Cu1R Cu 0.74166(3) 0.84241(3) 0.54185(3) 0.0625 Uani
Cu1T Cu 1.04185(3) 0.75834(3) 0.15759(3) 0.0625 Uani
O2O O 0.69864(18) 0.5218(2) 0.30376(18) 0.0743 Uani
O2R O 0.80376(18) 0.80136(18) 0.4782(2) 0.0743 Uani
O2T O 0.9782(2) 0.69624(18) 0.19864(18) 0.0743 Uani
O4O O 0.60870(16) 0.52732(18) 0.29630(17) 0.0663 Uani
O4R O 0.79630(17) 0.89130(16) 0.47268(18) 0.0663 Uani
O4T O 0.97268(18) 0.70370(17) 0.10870(16) 0.0663 Uani
loop_
_atom_site_aniso_label
_atom_site_aniso_U_11
_atom_site_aniso_U_22
_atom_site_aniso_U_33
_atom_site_aniso_U_23
_atom_site_aniso_U_13
_atom_site_aniso_U_12
Cu1 0.0604(7) 0.0525(7) 0.0746(8) -0.0071(6) 0.0055(6) -0.0037(6)
N1 0.056(5) 0.042(4) 0.063(5) -0.009(4) 0.006(4) -0.003(4)
N2 0.049(5) 0.037(4) 0.061(5) -0.001(4) 0.004(4) -0.012(4)
O1 0.064(4) 0.074(5) 0.078(4) -0.013(4) 0.007(3) -0.011(3)
O2 0.071(4) 0.064(4) 0.088(5) -0.017(4) -0.002(3) 0.003(4)
O3 0.067(4) 0.049(4) 0.081(4) 0.001(3) -0.005(3) 0.001(3)
O4 0.062(4) 0.056(4) 0.081(4) 0.003(3) -0.013(3) 0.001(3)
C1 0.064(7) 0.068(8) 0.075(8) -0.011(6) 0.000(6) 0.009(6)
C2 0.092(8) 0.091(8) 0.122(10) 0.000(8) 0.053(8) -0.018(7)
C3 0.097(8) 0.121(9) 0.114(9) -0.036(7) 0.057(7) -0.049(7)
C4 0.072(8) 0.159(13) 0.35(2) 0.058(13) 0.062(11) 0.056(9)
C5 0.210(15) 0.194(14) 0.104(10) -0.071(10) 0.075(10) -0.097(11)
C6 0.065(6) 0.052(6) 0.075(6) 0.001(5) 0.002(5) 0.011(5)
C7 0.103(6) 0.068(5) 0.092(6) 0.009(5) -0.034(5) 0.016(5)
C8 0.162(9) 0.076(7) 0.116(8) 0.010(6) -0.047(7) 0.005(7)
C9 0.116(8) 0.156(9) 0.185(10) 0.091(8) -0.044(8) -0.027(8)
C10 0.233(11) 0.122(9) 0.118(9) -0.024(8) -0.057(9) 0.068(9)
C11 0.054(6) 0.046(6) 0.083(7) -0.024(5) 0.004(6) -0.001(5)
C12 0.059(6) 0.081(7) 0.075(7) -0.010(6) 0.034(5) 0.005(6)
C13 0.048(6) 0.053(6) 0.088(7) -0.013(5) 0.019(5) -0.006(5)
C14 0.058(6) 0.038(6) 0.058(6) -0.018(5) 0.017(5) -0.002(5)
C15 0.047(6) 0.051(6) 0.064(6) 0.012(5) 0.008(5) 0.002(5)
C16 0.048(6) 0.060(7) 0.045(6) -0.002(5) 0.006(5) -0.005(5)
N1E 0.063 0.056 0.042 -0.003 0.009 -0.006
N2E 0.061 0.049 0.037 -0.012 0.001 -0.004
C11E 0.083 0.054 0.046 -0.001 0.024 -0.004
C12E 0.075 0.059 0.081 0.005 0.01 -0.034
C13E 0.088 0.048 0.053 -0.006 0.013 -0.019
C14E 0.058 0.058 0.038 -0.002 0.018 -0.017
C15E 0.064 0.047 0.051 0.002 -0.012 -0.008
C16E 0.045 0.048 0.06 -0.005 0.002 -0.006
N1K 0.042 0.063 0.056 -0.006 0.003 -0.009
N2K 0.037 0.061 0.049 -0.004 0.012 -0.001
C11K 0.046 0.083 0.054 -0.004 0.001 -0.024
C12K 0.081 0.075 0.059 -0.034 -0.005 -0.01
C13K 0.053 0.088 0.048 -0.019 0.006 -0.013
C14K 0.038 0.058 0.058 -0.017 0.002 -0.018
C15K 0.051 0.064 0.047 -0.008 -0.002 0.012
C16K 0.06 0.045 0.048 -0.006 0.005 -0.002
Cu1E 0.0746 0.0604 0.0525 -0.0037 0.0071 -0.0055
O1E 0.078 0.064 0.074 -0.011 0.013 -0.007
O2E 0.088 0.071 0.064 0.003 0.017 0.002
O3E 0.081 0.067 0.049 0.001 -0.001 0.005
O4E 0.081 0.062 0.056 0.001 -0.003 0.013
C1E 0.075 0.064 0.068 0.009 0.011 0
C2E 0.122 0.092 0.091 -0.018 0 -0.053
C3E 0.114 0.097 0.121 -0.049 0.036 -0.057
C4E 0.35 0.072 0.159 0.056 -0.058 -0.062
C5E 0.104 0.21 0.194 -0.097 0.071 -0.075
C6E 0.075 0.065 0.052 0.011 -0.001 -0.002
C7E 0.092 0.103 0.068 0.016 -0.009 0.034
C8E 0.116 0.162 0.076 0.005 -0.01 0.047
C9E 0.185 0.116 0.156 -0.027 -0.091 0.044
C10E 0.118 0.233 0.122 0.068 0.024 0.057
Cu1K 0.0525 0.0746 0.0604 -0.0055 0.0037 -0.0071
O1K 0.074 0.078 0.064 -0.007 0.011 -0.013
O2K 0.064 0.088 0.071 0.002 -0.003 -0.017
O3K 0.049 0.081 0.067 0.005 -0.001 0.001
O4K 0.056 0.081 0.062 0.013 -0.001 0.003
C1K 0.068 0.075 0.064 0 -0.009 -0.011
C2K 0.091 0.122 0.092 -0.053 0.018 0
C3K 0.121 0.114 0.097 -0.057 0.049 -0.036
C4K 0.159 0.35 0.072 -0.062 -0.056 0.058
C5K 0.194 0.104 0.21 -0.075 0.097 -0.071
C6K 0.052 0.075 0.065 -0.002 -0.011 0.001
C7K 0.068 0.092 0.103 0.034 -0.016 0.009
C8K 0.076 0.116 0.162 0.047 -0.005 0.01
C9K 0.156 0.185 0.116 0.044 0.027 0.091
C10K 0.122 0.118 0.233 0.057 -0.068 -0.024
Cu1O 0.0604 0.0525 0.0746 -0.0071 -0.0055 0.0037
Cu1R 0.0746 0.0604 0.0525 0.0037 0.0071 0.0055
Cu1T 0.0525 0.0746 0.0604 0.0055 -0.0037 -0.0071
O2O 0.071 0.064 0.088 -0.017 0.002 -0.003
O2R 0.088 0.071 0.064 -0.003 0.017 -0.002
O2T 0.064 0.088 0.071 -0.002 0.003 -0.017
O4O 0.062 0.056 0.081 0.003 0.013 -0.001
O4R 0.081 0.062 0.056 -0.001 -0.003 -0.013
O4T 0.056 0.081 0.062 -0.013 0.001 0.003
loop_
_geom_bond_atom_site_label_1
_geom_bond_atom_site_label_2
_geom_bond_site_symmetry_1
_geom_bond_site_symmetry_2
Cu1 N1 1_555 1_555
N1 C11 1_555 1_555
N2 C16 1_555 1_555
O1 Cu1 1_555 1_555
O2 C1 1_555 1_555
O3 Cu1 1_555 1_555
O4 C6 1_555 1_555
C1 O1 1_555 1_555
C2 C1 1_555 1_555
C3 C2 1_555 1_555
H1 C3 1_555 1_555
H2 C3 1_555 1_555
H3 C3 1_555 1_555
C4 C2 1_555 1_555
H4 C4 1_555 1_555
H5 C4 1_555 1_555
H6 C4 1_555 1_555
C5 C2 1_555 1_555
H7 C5 1_555 1_555
H8 C5 1_555 1_555
H9 C5 1_555 1_555
C6 O3 1_555 1_555
C7 C6 1_555 1_555
C8 C7 1_555 1_555
H10 C8 1_555 1_555
H11 C8 1_555 1_555
H12 C8 1_555 1_555
C9 C7 1_555 1_555
H13 C9 1_555 1_555
H14 C9 1_555 1_555
H15 C9 1_555 1_555
C10 C7 1_555 1_555
H16 C10 1_555 1_555
H17 C10 1_555 1_555
H18 C10 1_555 1_555
C11 H19 1_555 1_555
C12 C11 1_555 1_555
H20 C12 1_555 1_555
C13 C12 1_555 1_555
H21 C13 1_555 1_555
C14 C13 1_555 1_555
C15 N1 1_555 1_555
H22 C15 1_555 1_555
C16 C14 1_555 1_555
N1E C11E 1_555 1_555
N2E C16 1_555 1_555
C11E H19E 1_555 1_555
C12E C11E 1_555 1_555
H20E C12E 1_555 1_555
C13E C12E 1_555 1_555
H21E C13E 1_555 1_555
C14E C13E 1_555 1_555
C15E N1E 1_555 1_555
H22E C15E 1_555 1_555
C16E N2E 1_555 1_555
N1K C11K 1_555 1_555
N2K C16E 1_555 1_555
C11K H19K 1_555 1_555
C12K C11K 1_555 1_555
H20K C12K 1_555 1_555
C13K C12K 1_555 1_555
H21K C13K 1_555 1_555
C14K C13K 1_555 1_555
C15K N1K 1_555 1_555
H22K C15K 1_555 1_555
C16K N2 1_555 1_555
Cu1E N1E 1_555 1_555
O1E Cu1E 1_555 1_555
O2E C1E 1_555 1_555
O3E Cu1E 1_555 1_555
O4E C6E 1_555 1_555
C1E O1E 1_555 1_555
C2E C1E 1_555 1_555
C3E C2E 1_555 1_555
H1E C3E 1_555 1_555
H2E C3E 1_555 1_555
H3E C3E 1_555 1_555
C4E C2E 1_555 1_555
H4E C4E 1_555 1_555
H5E C4E 1_555 1_555
H6E C4E 1_555 1_555
C5E C2E 1_555 1_555
H7E C5E 1_555 1_555
H8E C5E 1_555 1_555
H9E C5E 1_555 1_555
C6E O3E 1_555 1_555
C7E C6E 1_555 1_555
C8E C7E 1_555 1_555
H10E C8E 1_555 1_555
H11E C8E 1_555 1_555
H12E C8E 1_555 1_555
C9E C7E 1_555 1_555
H13E C9E 1_555 1_555
H14E C9E 1_555 1_555
H15E C9E 1_555 1_555
C10E C7E 1_555 1_555
H16E C10E 1_555 1_555
H17E C10E 1_555 1_555
H18E C10E 1_555 1_555
Cu1K N1K 1_555 1_555
O1K Cu1K 1_555 1_555
O2K C1K 1_555 1_555
O3K Cu1K 1_555 1_555
O4K C6K 1_555 1_555
C1K O1K 1_555 1_555
C2K C1K 1_555 1_555
C3K C2K 1_555 1_555
H1K C3K 1_555 1_555
H2K C3K 1_555 1_555
H3K C3K 1_555 1_555
C4K C2K 1_555 1_555
H4K C4K 1_555 1_555
H5K C4K 1_555 1_555
H6K C4K 1_555 1_555
C5K C2K 1_555 1_555
H7K C5K 1_555 1_555
H8K C5K 1_555 1_555
H9K C5K 1_555 1_555
C6K O3K 1_555 1_555
C7K C6K 1_555 1_555
C8K C7K 1_555 1_555
H10K C8K 1_555 1_555
H11K C8K 1_555 1_555
H12K C8K 1_555 1_555
C9K C7K 1_555 1_555
H13K C9K 1_555 1_555
H14K C9K 1_555 1_555
H15K C9K 1_555 1_555
C10K C7K 1_555 1_555
H16K C10K 1_555 1_555
H17K C10K 1_555 1_555
H18K C10K 1_555 1_555
Cu1O Cu1 1_555 1_555
Cu1R Cu1E 1_555 1_555
Cu1T Cu1K 1_555 1_555
O2O Cu1 1_555 1_555
O2R Cu1E 1_555 1_555
O2T Cu1K 1_555 1_555
O4O Cu1 1_555 1_555
O4R Cu1E 1_555 1_555
O4T Cu1K 1_555 1_555
O2 Cu1O 1_555 1_555
O4 Cu1O 1_555 1_555
C14 C15 1_555 1_555
C14E C15E 1_555 1_555
C14E C16E 1_555 1_555
N2K C16K 1_555 1_555
C14K C15K 1_555 1_555
C14K C16K 1_555 1_555
O2E Cu1R 1_555 1_555
O4E Cu1R 1_555 1_555
O2K Cu1T 1_555 1_555
O4K Cu1T 1_555 1_555

#END
