
#######################################################################
#
#                 Cambridge Crystallographic Data Centre
#                                CCDC 
#
#######################################################################
#
# If this CIF has been generated from an entry in the Cambridge 
# Structural Database, then it will include bibliographic, chemical, 
# crystal, experimental, refinement or atomic coordinate data resulting 
# from the CCDC's data processing and validation procedures.
#
#######################################################################

data_GITTOT02
_chemical_formula_moiety         '(C8 H10 Co1 N4)n'
_symmetry_cell_setting           cubic
_symmetry_space_group_name_H-M   'I -4 3 m'
_symmetry_Int_Tables_number      217
_space_group_name_Hall           'I -4 2 3'
loop_
_symmetry_equiv_pos_site_id
_symmetry_equiv_pos_as_xyz
1 x,y,z
2 -x,-y,z
3 -x,y,-z
4 x,-y,-z
5 z,x,y
6 z,-x,-y
7 -z,-x,y
8 -z,x,-y
9 y,z,x
10 -y,z,-x
11 y,-z,-x
12 -y,-z,x
13 y,x,z
14 -y,-x,z
15 y,-x,-z
16 -y,x,-z
17 x,z,y
18 -x,z,-y
19 -x,-z,y
20 x,-z,-y
21 z,y,x
22 z,-y,-x
23 -z,y,-x
24 -z,-y,x
25 1/2+x,1/2+y,1/2+z
26 1/2-x,1/2-y,1/2+z
27 1/2-x,1/2+y,1/2-z
28 1/2+x,1/2-y,1/2-z
29 1/2+z,1/2+x,1/2+y
30 1/2+z,1/2-x,1/2-y
31 1/2-z,1/2-x,1/2+y
32 1/2-z,1/2+x,1/2-y
33 1/2+y,1/2+z,1/2+x
34 1/2-y,1/2+z,1/2-x
35 1/2+y,1/2-z,1/2-x
36 1/2-y,1/2-z,1/2+x
37 1/2+y,1/2+x,1/2+z
38 1/2-y,1/2-x,1/2+z
39 1/2+y,1/2-x,1/2-z
40 1/2-y,1/2+x,1/2-z
41 1/2+x,1/2+z,1/2+y
42 1/2-x,1/2+z,1/2-y
43 1/2-x,1/2-z,1/2+y
44 1/2+x,1/2-z,1/2-y
45 1/2+z,1/2+y,1/2+x
46 1/2+z,1/2-y,1/2-x
47 1/2-z,1/2+y,1/2-x
48 1/2-z,1/2-y,1/2+x
_cell_length_a                   16.9077(7)
_cell_length_b                   16.9077(7)
_cell_length_c                   16.9077(7)
_cell_angle_alpha                90
_cell_angle_beta                 90
_cell_angle_gamma                90
_cell_volume                     4833.41
loop_
_atom_site_label
_atom_site_type_symbol
_atom_site_fract_x
_atom_site_fract_y
_atom_site_fract_z
Co1 Co 0.5000 0.7500 1.0000
N1 N 0.41090(10) 0.68274(9) 0.96516(9)
C1 C 0.40292(13) 0.59708(13) 1.08553(16)
C2 C 0.37639(8) 0.62361(8) 1.0043(3)
C3 C 0.37118(12) 0.68525(13) 0.89362(11)
H1 H 0.3819 0.7208 0.8515
N1M N 0.31726(9) 0.58910(10) 0.96516(9)
C3M C 0.31475(13) 0.62882(12) 0.89362(11)
H1M H 0.2792 0.6181 0.8515
N1B N 0.58910(10) 0.68274(9) 1.03484(9)
C1B C 0.59708(13) 0.59708(13) 0.91447(16)
C2B C 0.62361(8) 0.62361(8) 0.9957(3)
C3B C 0.62882(12) 0.68525(13) 1.10638(11)
H1B H 0.6181 0.7208 1.1485
N1N N 0.68274(9) 0.58910(10) 1.03484(9)
C3N C 0.68525(13) 0.62882(12) 1.10638(11)
H1N H 0.7208 0.6181 1.1485
Co1L Co 0.7500 0.5000 1.0000
Co1M Co 0.2500 0.5000 1.0000
N1SA N 0.46516(9) 0.81726(9) 1.08910(10)
N1UA N 0.53484(9) 0.81726(9) 0.91090(10)
loop_
_geom_bond_atom_site_label_1
_geom_bond_atom_site_label_2
_geom_bond_site_symmetry_1
_geom_bond_site_symmetry_2
Co1 N1 1_555 1_555
N1 C2 1_555 1_555
C1 C2 1_555 1_555
C2 N1M 1_555 1_555
C3 N1 1_555 1_555
H1 C3 1_555 1_555
N1M C3M 1_555 1_555
C3M C3 1_555 1_555
H1M C3M 1_555 1_555
N1B Co1 1_555 1_555
C1B C2B 1_555 1_555
C2B N1B 1_555 1_555
C3B N1B 1_555 1_555
H1B C3B 1_555 1_555
N1N C2B 1_555 1_555
C3N C3B 1_555 1_555
H1N C3N 1_555 1_555
Co1L N1N 1_555 1_555
Co1M N1M 1_555 1_555
N1SA Co1 1_555 1_555
N1UA Co1 1_555 1_555
N1N C3N 1_555 1_555

#END
