
#######################################################################
#
#                 Cambridge Crystallographic Data Centre
#                                CCDC 
#
#######################################################################
#
# If this CIF has been generated from an entry in the Cambridge 
# Structural Database, then it will include bibliographic, chemical, 
# crystal, experimental, refinement or atomic coordinate data resulting 
# from the CCDC's data processing and validation procedures.
#
#######################################################################

data_GISWEM
_chemical_formula_moiety         '(C44 H36 N6 Ni2 O12)n'
_symmetry_cell_setting           monoclinic
_symmetry_space_group_name_H-M   'C 2/c'
_symmetry_Int_Tables_number      15
_space_group_name_Hall           '-C 2yc'
loop_
_symmetry_equiv_pos_site_id
_symmetry_equiv_pos_as_xyz
1 x,y,z
2 -x,y,1/2-z
3 1/2+x,1/2+y,z
4 1/2-x,1/2+y,1/2-z
5 -x,-y,-z
6 x,-y,1/2+z
7 1/2-x,1/2-y,-z
8 1/2+x,1/2-y,1/2+z
_cell_length_a                   17.241(6)
_cell_length_b                   15.950(6)
_cell_length_c                   16.740(6)
_cell_angle_alpha                90
_cell_angle_beta                 108.386(7)
_cell_angle_gamma                90
_cell_volume                     4368.41
loop_
_atom_site_label
_atom_site_type_symbol
_atom_site_fract_x
_atom_site_fract_y
_atom_site_fract_z
_atom_site_U_iso_or_equiv
_atom_site_thermal_displace_type
C1 C 0.3871(3) 0.2798(3) 0.3054(3) 0.0305 Uani
C2 C 0.4303(3) 0.3115(3) 0.3927(3) 0.0275 Uani
C3 C 0.5048(3) 0.2795(3) 0.4394(3) 0.0284 Uani
H1 H 0.5298 0.2391 0.4159 0.0340 Uiso
C4 C 0.5434(3) 0.3065(3) 0.5211(3) 0.0275 Uani
C5 C 0.5071(3) 0.3692(3) 0.5550(3) 0.0327 Uani
H2 H 0.5328 0.3875 0.6098 0.0390 Uiso
C6 C 0.4330(3) 0.4048(3) 0.5084(3) 0.0294 Uani
C7 C 0.3955(3) 0.3740(3) 0.4274(3) 0.0307 Uani
H3 H 0.3454 0.3963 0.3957 0.0370 Uiso
C8 C 0.6219(3) 0.2644(3) 0.5711(3) 0.0280 Uani
C9 C 0.3939(3) 0.4733(3) 0.5430(3) 0.0317 Uani
C10 C 0.3179(4) 0.5022(5) 0.5009(4) 0.0940 Uani
H4 H 0.2894 0.4786 0.4491 0.1130 Uiso
C11 C 0.2822(4) 0.5648(4) 0.5326(4) 0.0786 Uani
H5 H 0.2308 0.5830 0.4997 0.0950 Uiso
C12 C 0.3887(4) 0.5730(4) 0.6459(4) 0.0594 Uani
H6 H 0.4157 0.5975 0.6977 0.0710 Uiso
C13 C 0.4284(3) 0.5113(4) 0.6181(3) 0.0560 Uani
H7 H 0.4804 0.4950 0.6513 0.0680 Uiso
C14 C 0.2066(4) 0.4906(4) 0.1965(5) 0.0714 Uani
H8 H 0.2367 0.5181 0.1671 0.0860 Uiso
C15 C 0.1771(5) 0.5271(4) 0.2542(5) 0.0830 Uani
H9 H 0.1834 0.5827 0.2718 0.1000 Uiso
C16 C 0.1449(3) 0.3964(3) 0.2404(3) 0.0374 Uani
H10 H 0.1237 0.3446 0.2486 0.0450 Uiso
C17 C 0.0965(3) 0.4747(3) 0.3438(3) 0.0414 Uani
C18 C 0.0957(5) 0.4118(4) 0.3968(5) 0.0883 Uani
H11 H 0.1211 0.3612 0.3926 0.1060 Uiso
C19 C 0.0573(5) 0.4215(4) 0.4580(4) 0.0970 Uani
H12 H 0.0572 0.3769 0.4937 0.1160 Uiso
C20 C 0.0202(3) 0.4942(3) 0.4670(3) 0.0445 Uani
C21 C 0.0199(5) 0.5555(4) 0.4106(5) 0.0734 Uani
H13 H -0.0073 0.6053 0.4130 0.0880 Uiso
C22 C 0.0578(5) 0.5472(4) 0.3505(4) 0.0682 Uani
H14 H 0.0570 0.5914 0.3141 0.0820 Uiso
N1 N 0.3142(2) 0.6008(2) 0.6046(2) 0.0312 Uani
N2 N 0.1860(2) 0.4085(2) 0.1880(2) 0.0323 Uani
N3 N 0.1365(3) 0.4659(3) 0.2809(3) 0.0422 Uani
Ni1 Ni 0.24760(4) 0.31315(4) 0.14850(4) 0.0288 Uani
O1 O 0.3173(2) 0.3110(2) 0.27022(19) 0.0434 Uani
O2 O 0.4212(3) 0.2276(3) 0.2738(2) 0.0608 Uani
O3 O 0.6567(2) 0.2148(2) 0.53413(18) 0.0343 Uani
O4 O 0.6515(2) 0.2768(2) 0.64935(19) 0.0358 Uani
O5 O 0.3143(2) 0.2145(2) 0.1221(2) 0.0374 Uani
H15 H 0.320(3) 0.213(6) 0.0750(11) 0.2000 Uiso
H16 H 0.3575(13) 0.215(3) 0.1610(17) 0.0330 Uiso
C14D C -0.2066(4) 0.5094(4) 0.8035(5) 0.0714 Uani
H8D H -0.2367 0.4819 0.8329 0.0860 Uiso
C15D C -0.1771(5) 0.4729(4) 0.7458(5) 0.0830 Uani
H9D H -0.1834 0.4173 0.7282 0.1000 Uiso
C16D C -0.1449(3) 0.6036(3) 0.7596(3) 0.0374 Uani
H10D H -0.1237 0.6554 0.7514 0.0450 Uiso
C17D C -0.0965(3) 0.5253(3) 0.6562(3) 0.0414 Uani
C18D C -0.0957(5) 0.5882(4) 0.6032(5) 0.0883 Uani
H11D H -0.1211 0.6388 0.6074 0.1060 Uiso
C19D C -0.0573(5) 0.5785(4) 0.5420(4) 0.0970 Uani
H12D H -0.0572 0.6231 0.5063 0.1160 Uiso
C20D C -0.0202(3) 0.5058(3) 0.5330(3) 0.0445 Uani
C21D C -0.0199(5) 0.4445(4) 0.5894(5) 0.0734 Uani
H13D H 0.0073 0.3947 0.5870 0.0880 Uiso
C22D C -0.0578(5) 0.4528(4) 0.6495(4) 0.0682 Uani
H14D H -0.0570 0.4086 0.6859 0.0820 Uiso
N2D N -0.1860(2) 0.5915(2) 0.8120(2) 0.0323 Uani
N3D N -0.1365(3) 0.5341(3) 0.7191(3) 0.0422 Uani
C1D C -0.3871(3) 0.7202(3) 0.6946(3) 0.0305 Uani
C2D C -0.4303(3) 0.6885(3) 0.6073(3) 0.0275 Uani
C3D C -0.5048(3) 0.7205(3) 0.5606(3) 0.0284 Uani
H1D H -0.5298 0.7609 0.5841 0.0340 Uiso
C4D C -0.5434(3) 0.6935(3) 0.4789(3) 0.0275 Uani
C5D C -0.5071(3) 0.6308(3) 0.4450(3) 0.0327 Uani
H2D H -0.5328 0.6125 0.3902 0.0390 Uiso
C6D C -0.4330(3) 0.5952(3) 0.4916(3) 0.0294 Uani
C7D C -0.3955(3) 0.6260(3) 0.5726(3) 0.0307 Uani
H3D H -0.3454 0.6037 0.6043 0.0370 Uiso
C8D C -0.6219(3) 0.7356(3) 0.4289(3) 0.0280 Uani
C9D C -0.3939(3) 0.5267(3) 0.4570(3) 0.0317 Uani
C10D C -0.3179(4) 0.4978(5) 0.4991(4) 0.0940 Uani
H4D H -0.2894 0.5214 0.5509 0.1130 Uiso
C11D C -0.2822(4) 0.4352(4) 0.4674(4) 0.0786 Uani
H5D H -0.2308 0.4170 0.5003 0.0950 Uiso
C12D C -0.3887(4) 0.4270(4) 0.3541(4) 0.0594 Uani
H6D H -0.4157 0.4025 0.3023 0.0710 Uiso
C13D C -0.4284(3) 0.4887(4) 0.3819(3) 0.0560 Uani
H7D H -0.4804 0.5050 0.3487 0.0680 Uiso
N1D N -0.3142(2) 0.3992(2) 0.3954(2) 0.0312 Uani
Ni1D Ni -0.24760(4) 0.68685(4) 0.85150(4) 0.0288 Uani
O1D O -0.3173(2) 0.6890(2) 0.72978(19) 0.0434 Uani
O2D O -0.4212(3) 0.7724(3) 0.7262(2) 0.0608 Uani
O3D O -0.6567(2) 0.7852(2) 0.46587(18) 0.0343 Uani
O4D O -0.6515(2) 0.7232(2) 0.35065(19) 0.0358 Uani
O5D O -0.3143(2) 0.7855(2) 0.8779(2) 0.0374 Uani
H15D H -0.320(3) 0.787(6) 0.9250(11) 0.2000 Uiso
H16D H -0.3575(13) 0.785(3) 0.8390(17) 0.0330 Uiso
N1A N -0.3142(2) 0.6008(2) 0.8954(2) 0.0312 Uani
N1E N 0.3142(2) 0.3992(2) 0.1046(2) 0.0312 Uani
Ni1A Ni -0.24760(4) 0.31315(4) 0.35150(4) 0.0288 Uani
Ni1C Ni -0.74760(4) 0.81315(4) 0.35150(4) 0.0288 Uani
Ni1E Ni 0.24760(4) 0.68685(4) 0.64850(4) 0.0288 Uani
Ni1G Ni 0.74760(4) 0.18685(4) 0.64850(4) 0.0288 Uani
O3C O -0.1567(2) 0.7148(2) 0.96587(18) 0.0343 Uani
O3G O 0.1567(2) 0.2852(2) 0.03413(18) 0.0343 Uani
O4C O -0.1515(2) 0.7768(2) 0.85065(19) 0.0358 Uani
O4G O 0.1515(2) 0.2232(2) 0.14935(19) 0.0358 Uani
O6 O 0.0850(5) 0.1809(5) 0.2764(4) 0.1410 Uani
H17 H 0.096(4) 0.191(4) 0.2328(19) 0.1200 Uiso
H18 H 0.121(3) 0.194(4) 0.3198(18) 0.0900 Uiso
O7 O 0.2276(5) 0.2259(7) 0.4102(8) 0.1845 Uani
H19 H 0.257(3) 0.189(2) 0.437(4) 0.1800 Uiso
H20 H 0.251(3) 0.270(2) 0.407(5) 0.1900 Uiso
loop_
_atom_site_aniso_label
_atom_site_aniso_U_11
_atom_site_aniso_U_22
_atom_site_aniso_U_33
_atom_site_aniso_U_23
_atom_site_aniso_U_13
_atom_site_aniso_U_12
C1 0.029(3) 0.035(3) 0.025(2) -0.001(2) 0.005(2) 0.003(2)
C2 0.018(2) 0.033(3) 0.027(2) 0.001(2) 0.0007(19) 0.002(2)
C3 0.023(3) 0.033(3) 0.029(2) -0.001(2) 0.008(2) 0.005(2)
C4 0.019(2) 0.031(3) 0.030(2) 0.001(2) 0.0040(19) 0.006(2)
C5 0.032(3) 0.037(3) 0.025(2) -0.002(2) 0.003(2) 0.012(2)
C6 0.019(3) 0.036(3) 0.030(3) -0.004(2) 0.003(2) 0.005(2)
C7 0.023(3) 0.033(3) 0.032(3) -0.001(2) 0.003(2) 0.009(2)
C8 0.017(3) 0.035(3) 0.029(3) -0.001(2) 0.003(2) 0.005(2)
C9 0.025(3) 0.034(3) 0.035(3) -0.003(2) 0.008(2) 0.005(2)
C10 0.074(5) 0.135(7) 0.045(4) -0.041(4) -0.021(3) 0.073(5)
C11 0.057(5) 0.101(6) 0.055(4) -0.024(4) -0.015(3) 0.057(4)
C12 0.034(3) 0.077(4) 0.052(4) -0.031(3) -0.008(3) 0.022(3)
C13 0.028(3) 0.069(4) 0.056(4) -0.026(3) -0.008(3) 0.026(3)
C14 0.083(6) 0.046(4) 0.114(6) 0.006(4) 0.072(5) -0.003(4)
C15 0.098(6) 0.046(4) 0.141(7) -0.007(4) 0.089(6) -0.005(4)
C16 0.030(3) 0.039(3) 0.046(3) -0.001(3) 0.016(3) 0.001(2)
C17 0.034(3) 0.044(3) 0.052(3) -0.005(3) 0.022(3) 0.004(3)
C18 0.129(8) 0.070(5) 0.100(6) 0.027(4) 0.085(6) 0.054(5)
C19 0.157(9) 0.081(5) 0.092(6) 0.035(4) 0.095(6) 0.056(5)
C20 0.041(3) 0.044(3) 0.056(4) -0.009(3) 0.026(3) 0.003(3)
C21 0.098(6) 0.038(3) 0.119(6) -0.015(4) 0.084(5) -0.005(4)
C22 0.094(6) 0.035(3) 0.101(5) -0.003(3) 0.067(5) -0.004(3)
N1 0.024(2) 0.036(2) 0.033(2) 0.0002(19) 0.0082(19) 0.0080(19)
N2 0.024(2) 0.037(2) 0.038(2) 0.003(2) 0.0129(19) 0.0017(19)
N3 0.038(3) 0.041(3) 0.053(3) -0.005(2) 0.022(2) 0.000(2)
Ni1 0.0202(3) 0.0379(4) 0.0266(3) -0.0009(3) 0.0050(2) -0.0064(3)
O1 0.029(2) 0.066(2) 0.0283(18) -0.0081(18) -0.0007(15) 0.0145(19)
O2 0.051(3) 0.078(3) 0.041(2) -0.019(2) -0.003(2) 0.030(2)
O3 0.030(2) 0.044(2) 0.0274(17) -0.0023(15) 0.0068(15) 0.0158(16)
O4 0.029(2) 0.052(2) 0.0247(17) -0.0007(16) 0.0059(15) 0.0174(17)
O5 0.032(2) 0.042(2) 0.035(2) -0.0034(18) 0.0062(18) -0.0004(18)
C14D 0.083 0.046 0.114 0.006 0.072 -0.003
C15D 0.098 0.046 0.141 -0.007 0.089 -0.005
C16D 0.03 0.039 0.046 -0.001 0.016 0.001
C17D 0.034 0.044 0.052 -0.005 0.022 0.004
C18D 0.129 0.07 0.1 0.027 0.085 0.054
C19D 0.157 0.081 0.092 0.035 0.095 0.056
C20D 0.041 0.044 0.056 -0.009 0.026 0.003
C21D 0.098 0.038 0.119 -0.015 0.084 -0.005
C22D 0.094 0.035 0.101 -0.003 0.067 -0.004
N2D 0.024 0.037 0.038 0.003 0.0129 0.0017
N3D 0.038 0.041 0.053 -0.005 0.022 0
C1D 0.029 0.035 0.025 -0.001 0.005 0.003
C2D 0.018 0.033 0.027 0.001 0.0007 0.002
C3D 0.023 0.033 0.029 -0.001 0.008 0.005
C4D 0.019 0.031 0.03 0.001 0.004 0.006
C5D 0.032 0.037 0.025 -0.002 0.003 0.012
C6D 0.019 0.036 0.03 -0.004 0.003 0.005
C7D 0.023 0.033 0.032 -0.001 0.003 0.009
C8D 0.017 0.035 0.029 -0.001 0.003 0.005
C9D 0.025 0.034 0.035 -0.003 0.008 0.005
C10D 0.074 0.135 0.045 -0.041 -0.021 0.073
C11D 0.057 0.101 0.055 -0.024 -0.015 0.057
C12D 0.034 0.077 0.052 -0.031 -0.008 0.022
C13D 0.028 0.069 0.056 -0.026 -0.008 0.026
N1D 0.024 0.036 0.033 0.0002 0.0082 0.008
Ni1D 0.0202 0.0379 0.0266 -0.0009 0.005 -0.0064
O1D 0.029 0.066 0.0283 -0.0081 -0.0007 0.0145
O2D 0.051 0.078 0.041 -0.019 -0.003 0.03
O3D 0.03 0.044 0.0274 -0.0023 0.0068 0.0158
O4D 0.029 0.052 0.0247 -0.0007 0.0059 0.0174
O5D 0.032 0.042 0.035 -0.0034 0.0062 -0.0004
N1A 0.024 0.036 0.033 -0.0002 0.0082 -0.008
N1E 0.024 0.036 0.033 -0.0002 0.0082 -0.008
Ni1A 0.0202 0.0379 0.0266 0.0009 0.005 0.0064
Ni1C 0.0202 0.0379 0.0266 0.0009 0.005 0.0064
Ni1E 0.0202 0.0379 0.0266 0.0009 0.005 0.0064
Ni1G 0.0202 0.0379 0.0266 0.0009 0.005 0.0064
O3C 0.03 0.044 0.0274 0.0023 0.0068 -0.0158
O3G 0.03 0.044 0.0274 0.0023 0.0068 -0.0158
O4C 0.029 0.052 0.0247 0.0007 0.0059 -0.0174
O4G 0.029 0.052 0.0247 0.0007 0.0059 -0.0174
O6 0.156(7) 0.217(8) 0.063(4) -0.003(5) 0.053(5) -0.076(6)
O7 0.125(7) 0.155(8) 0.244(11) 0.009(8) 0.016(8) -0.013(8)
loop_
_geom_bond_atom_site_label_1
_geom_bond_atom_site_label_2
_geom_bond_site_symmetry_1
_geom_bond_site_symmetry_2
C1 C2 1_555 1_555
C2 C3 1_555 1_555
C3 H1 1_555 1_555
C4 C3 1_555 1_555
C5 C4 1_555 1_555
H2 C5 1_555 1_555
C6 C5 1_555 1_555
C7 C2 1_555 1_555
H3 C7 1_555 1_555
C8 C4 1_555 1_555
C9 C6 1_555 1_555
C10 C9 1_555 1_555
H4 C10 1_555 1_555
C11 C10 1_555 1_555
H5 C11 1_555 1_555
C12 H6 1_555 1_555
C13 C9 1_555 1_555
H7 C13 1_555 1_555
C14 H8 1_555 1_555
C15 C14 1_555 1_555
H9 C15 1_555 1_555
C16 H10 1_555 1_555
C17 C18 1_555 1_555
C18 H11 1_555 1_555
C19 C18 1_555 1_555
H12 C19 1_555 1_555
C20 C19 1_555 1_555
C21 C20 1_555 1_555
H13 C21 1_555 1_555
C22 C17 1_555 1_555
H14 C22 1_555 1_555
N1 C11 1_555 1_555
N2 C14 1_555 1_555
N3 C15 1_555 1_555
Ni1 N2 1_555 1_555
O1 C1 1_555 1_555
O2 C1 1_555 1_555
O3 C8 1_555 1_555
O4 C8 1_555 1_555
O5 Ni1 1_555 1_555
H15 O5 1_555 1_555
H16 O5 1_555 1_555
O6 H17 1_555 1_555
H18 O6 1_555 1_555
O7 H19 1_555 1_555
H20 O7 1_555 1_555
C14D H8D 1_555 1_555
C15D C14D 1_555 1_555
H9D C15D 1_555 1_555
C16D H10D 1_555 1_555
C17D C18D 1_555 1_555
C18D H11D 1_555 1_555
C19D C18D 1_555 1_555
H12D C19D 1_555 1_555
C20D C20 1_555 1_555
C21D C20D 1_555 1_555
H13D C21D 1_555 1_555
C22D C17D 1_555 1_555
H14D C22D 1_555 1_555
N2D C14D 1_555 1_555
N3D C15D 1_555 1_555
C1D C2D 1_555 1_555
C2D C3D 1_555 1_555
C3D H1D 1_555 1_555
C4D C3D 1_555 1_555
C5D C4D 1_555 1_555
H2D C5D 1_555 1_555
C6D C5D 1_555 1_555
C7D C2D 1_555 1_555
H3D C7D 1_555 1_555
C8D C4D 1_555 1_555
C9D C6D 1_555 1_555
C10D C9D 1_555 1_555
H4D C10D 1_555 1_555
C11D C10D 1_555 1_555
H5D C11D 1_555 1_555
C12D H6D 1_555 1_555
C13D C9D 1_555 1_555
H7D C13D 1_555 1_555
N1D C11D 1_555 1_555
Ni1D N2D 1_555 1_555
O1D C1D 1_555 1_555
O2D C1D 1_555 1_555
O3D C8D 1_555 1_555
O4D C8D 1_555 1_555
O5D Ni1D 1_555 1_555
H15D O5D 1_555 1_555
H16D O5D 1_555 1_555
N1A Ni1D 1_555 1_555
N1E Ni1 1_555 1_555
Ni1A N1D 1_555 1_555
Ni1C O3D 1_555 1_555
Ni1E N1 1_555 1_555
Ni1G O3 1_555 1_555
O3C Ni1D 1_555 1_555
O3G Ni1 1_555 1_555
O4C Ni1D 1_555 1_555
O4G Ni1 1_555 1_555
C6 C7 1_555 1_555
C12 C13 1_555 1_555
C12 N1 1_555 1_555
C16 N2 1_555 1_555
C16 N3 1_555 1_555
C17 N3 1_555 1_555
C21 C22 1_555 1_555
Ni1 O1 1_555 1_555
O4 Ni1G 1_555 1_555
C16D N2D 1_555 1_555
C16D N3D 1_555 1_555
C17D N3D 1_555 1_555
C19D C20D 1_555 1_555
C21D C22D 1_555 1_555
C6D C7D 1_555 1_555
C12D C13D 1_555 1_555
C12D N1D 1_555 1_555
Ni1D O1D 1_555 1_555
O4D Ni1C 1_555 1_555

#END
