
#######################################################################
#
#                 Cambridge Crystallographic Data Centre
#                                CCDC 
#
#######################################################################
#
# If this CIF has been generated from an entry in the Cambridge 
# Structural Database, then it will include bibliographic, chemical, 
# crystal, experimental, refinement or atomic coordinate data resulting 
# from the CCDC's data processing and validation procedures.
#
#######################################################################

data_EMEJUD
_chemical_formula_moiety         '(C251 H270 Cl6 Co4 N32 O9 S8)n'
_symmetry_cell_setting           tetragonal
_symmetry_space_group_name_H-M   'P 41 21 2'
_symmetry_Int_Tables_number      92
_space_group_name_Hall           'P 4abw 2nw'
loop_
_symmetry_equiv_pos_site_id
_symmetry_equiv_pos_as_xyz
1 x,y,z
2 1/2-y,1/2+x,1/4+z
3 -x,-y,1/2+z
4 1/2+y,1/2-x,3/4+z
5 1/2+x,1/2-y,3/4-z
6 1/2-x,1/2+y,1/4-z
7 y,x,-z
8 -y,-x,1/2-z
_cell_length_a                   23.88216(9)
_cell_length_b                   23.88216(9)
_cell_length_c                   46.8514(3)
_cell_angle_alpha                90
_cell_angle_beta                 90
_cell_angle_gamma                90
_cell_volume                     26722.1
loop_
_atom_site_label
_atom_site_type_symbol
_atom_site_fract_x
_atom_site_fract_y
_atom_site_fract_z
Co1 Co 0.13831(3) 0.86169(3) 0.7500
N1 N 0.1845(3) 0.8184(2) 0.71729(10)
N2 N 0.0770(3) 0.8000(4) 0.74844(13)
N3 N 0.0950(4) 0.9110(3) 0.71789(11)
C1 C 0.1927(3) 0.7634(3) 0.71865(12)
C2 C 0.2037(4) 0.8447(3) 0.69387(14)
C3 C 0.0410(6) 0.7792(8) 0.7544(3)
C4 C 0.2197(3) 0.7331(2) 0.69729(12)
H1 H 0.1795 0.7438 0.7350
H2 H 0.1976 0.8839 0.6924
C5 C 0.2313(4) 0.8192(3) 0.67229(13)
S1 S -0.0171(3) 0.7487(4) 0.7644(3)
C6 C 0.2393(3) 0.7602(2) 0.67320(12)
H3 H 0.2247 0.6938 0.6993
H4 H 0.2451 0.8404 0.6567
C7 C 0.2643(2) 0.7297(2) 0.64866(11)
N4 N 0.2752(2) 0.76080(19) 0.62513(9)
C8 C 0.2743(2) 0.6726(2) 0.65002(11)
C9 C 0.2960(2) 0.7343(2) 0.60214(11)
C10 C 0.2960(2) 0.6451(2) 0.62608(11)
H5 H 0.2665 0.6524 0.6670
C11 C 0.3065(2) 0.6775(2) 0.60184(11)
C12 C 0.3087(2) 0.7697(2) 0.57667(11)
C13 C 0.3064(2) 0.5841(2) 0.62589(12)
H6 H 0.3208 0.6603 0.5851
C14 C 0.3065(2) 0.8280(2) 0.57765(11)
C15 C 0.3251(3) 0.7459(2) 0.55129(13)
C16 C 0.2970(3) 0.5528(3) 0.60102(13)
C17 C 0.3254(3) 0.5565(2) 0.64978(12)
H7 H 0.2937 0.8465 0.5944
C18 C 0.3229(2) 0.8585(2) 0.55435(11)
C19 C 0.3411(3) 0.7793(2) 0.52879(12)
H8 H 0.3254 0.7063 0.5493
H9 H 0.2834 0.5712 0.5844
C20 C 0.3070(3) 0.4961(3) 0.60023(14)
C21 C 0.3368(3) 0.4989(2) 0.64961(13)
H10 H 0.3310 0.5771 0.6669
N5 N 0.3409(2) 0.83550(19) 0.52978(9)
H11 H 0.3215 0.8982 0.5556
H12 H 0.3530 0.7617 0.5117
H13 H 0.3004 0.4757 0.5832
C22 C 0.3269(3) 0.4686(2) 0.62453(13)
H14 H 0.3509 0.4808 0.6662
Co2 Co 0.38181(3) 0.87986(3) 0.49538(2)
O1 O 0.3368(3) 0.41273(18) 0.62167(11)
N6 N 0.33581(19) 0.82876(19) 0.46492(9)
N7 N 0.4443(2) 0.8177(2) 0.49592(10)
N8 N 0.4285(2) 0.9294(2) 0.52607(9)
N9 N 0.3209(2) 0.9409(2) 0.49248(10)
N10 N 0.4274(2) 0.9202(2) 0.46100(10)
C23 C 0.3628(4) 0.3849(3) 0.64492(17)
C24 C 0.2811(2) 0.8212(2) 0.46766(12)
C25 C 0.3607(2) 0.8065(2) 0.44185(11)
C26 C 0.4728(5) 0.7843(4) 0.4852(2)
C27 C 0.4550(2) 0.9036(2) 0.54788(11)
C28 C 0.4303(3) 0.9849(2) 0.52435(11)
C29 C 0.2870(3) 0.9725(3) 0.48527(15)
H15 H 0.3373 0.3842 0.6616
H16 H 0.3975 0.4048 0.6505
C30 C 0.3764(4) 0.3259(3) 0.6357(2)
C31 C 0.2490(3) 0.7909(2) 0.44830(12)
H17 H 0.2629 0.8374 0.4837
H18 H 0.4000 0.8108 0.4398
C32 C 0.3316(2) 0.7774(3) 0.42067(12)
S2 S 0.5163(3) 0.7410(3) 0.47013(11)
C33 C 0.4827(3) 0.9337(2) 0.56883(11)
H19 H 0.4546 0.8639 0.5489
H20 H 0.4125 1.0027 0.5087
C34 C 0.4571(3) 1.0179(2) 0.54439(12)
S3 S 0.23797(14) 1.01601(17) 0.47515(9)
H21 H 0.3415 0.3035 0.6357
H22 H 0.3905 0.3268 0.6158
C35 C 0.4190(6) 0.2972(4) 0.6542(3)
C36 C 0.2741(2) 0.7695(2) 0.42384(11)
H23 H 0.2103 0.7849 0.4518
H24 H 0.3506 0.7633 0.4044
C37 C 0.4841(2) 0.9923(2) 0.56738(11)
H25 H 0.5007 0.9148 0.5841
H26 H 0.4572 1.0575 0.5425
H27 H 0.4267 0.2599 0.6459
H28 H 0.4542 0.3189 0.6532
C38 C 0.4044(7) 0.2895(7) 0.6847(3)
C39 C 0.2413(2) 0.7427(2) 0.40037(12)
C40 C 0.5116(2) 1.0254(2) 0.59045(11)
H29 H 0.3923 0.3255 0.6932
H30 H 0.4370 0.2754 0.6955
C41 C 0.3577(8) 0.2479(9) 0.6854(3)
N11 N 0.2697(2) 0.7296(2) 0.37660(10)
C42 C 0.1838(2) 0.7328(3) 0.40345(12)
N12 N 0.52085(19) 0.9969(2) 0.61473(10)
C43 C 0.5230(2) 1.0818(2) 0.58748(12)
H31 H 0.3220 0.2656 0.6795
H32 H 0.3657 0.2162 0.6724
C44 C 0.3542(8) 0.2283(6) 0.7154(3)
C45 C 0.2417(3) 0.7073(3) 0.35490(13)
C46 C 0.1547(3) 0.7092(3) 0.38055(13)
H33 H 0.1651 0.7419 0.4207
C47 C 0.5426(2) 1.0252(2) 0.63686(11)
H34 H 0.5159 1.1004 0.5699
C48 C 0.5451(2) 1.1113(3) 0.61079(13)
H35 H 0.3420 0.2598 0.7276
H36 H 0.3920 0.2166 0.7218
C49 C 0.3136(8) 0.1794(6) 0.7191(3)
C50 C 0.1845(3) 0.6979(3) 0.35588(14)
C51 C 0.2763(3) 0.6920(3) 0.32922(13)
C52 C 0.0936(3) 0.6972(3) 0.38215(13)
C53 C 0.5546(3) 1.0818(2) 0.63564(12)
C54 C 0.5527(2) 0.9924(2) 0.66292(11)
C55 C 0.5572(3) 1.1721(3) 0.60966(14)
H37 H 0.3269 0.1462 0.7085
H38 H 0.2758 0.1896 0.7121
C56 C 0.3126(13) 0.1677(12) 0.7512(4)
H39 H 0.1657 0.6838 0.3395
C57 C 0.3326(3) 0.6976(3) 0.32895(13)
C58 C 0.2508(3) 0.6700(5) 0.30490(17)
C59 C 0.0597(3) 0.7020(3) 0.35843(15)
C60 C 0.0690(3) 0.6813(3) 0.40755(15)
H40 H 0.5694 1.1004 0.6519
C61 C 0.5691(3) 1.0165(3) 0.68864(11)
C62 C 0.5492(2) 0.9329(2) 0.66262(11)
C63 C 0.5750(3) 1.1986(3) 0.58443(16)
C64 C 0.5509(3) 1.2054(3) 0.63403(17)
H41 H 0.3242 0.2008 0.7625
H42 H 0.3363 0.1352 0.7564
C65 C 0.2484(14) 0.155(2) 0.7549(6)
H43 H 0.3509 0.7142 0.3449
C66 C 0.3644(3) 0.6795(3) 0.30569(13)
C67 C 0.2843(3) 0.6529(5) 0.28292(16)
H44 H 0.2112 0.6670 0.3037
H45 H 0.0755 0.7133 0.3407
C68 C 0.0034(3) 0.6905(3) 0.35996(16)
C69 C 0.0127(3) 0.6694(3) 0.40967(15)
H46 H 0.0917 0.6786 0.4242
H47 H 0.5712 1.0561 0.6903
C70 C 0.5823(3) 0.9833(3) 0.71152(12)
C71 C 0.5619(2) 0.9034(2) 0.68697(11)
H48 H 0.5381 0.9138 0.6458
H49 H 0.5798 1.1771 0.5675
C72 C 0.5858(4) 1.2567(3) 0.5839(2)
C73 C 0.5617(4) 1.2625(3) 0.6337(2)
H50 H 0.5388 1.1884 0.6513
H51 H 0.2405 0.1459 0.7749
H52 H 0.2264 0.1872 0.7490
H53 H 0.2383 0.1224 0.7430
N13 N 0.3406(3) 0.6565(3) 0.28248(11)
H54 H 0.4040 0.6835 0.3063
H55 H 0.2665 0.6373 0.2666
H56 H -0.0190 0.6937 0.3433
C74 C -0.0207(3) 0.6746(3) 0.38526(17)
H57 H -0.0031 0.6579 0.4273
H58 H 0.5939 1.0010 0.7287
H59 H 0.5578 0.8639 0.6866
H60 H 0.5981 1.2743 0.5668
C75 C 0.5783(4) 1.2876(3) 0.6084(2)
H61 H 0.5578 1.2841 0.6506
Co3 Co 0.38740(3) 0.61260(3) 0.2500
O2 O -0.0770(2) 0.6649(3) 0.38511(13)
O3 O 0.5867(3) 1.3439(2) 0.61037(17)
N14 N 0.42960(19) 0.5650(2) 0.28290(9)
N15 N 0.4503(3) 0.6734(2) 0.25257(11)
C76 C -0.1029(4) 0.6484(4) 0.4110(2)
C77 C 0.6029(5) 1.3719(4) 0.5853(3)
C78 C 0.4036(2) 0.5440(3) 0.30536(12)
C79 C 0.4860(2) 0.5596(3) 0.28207(11)
C80 C 0.4830(4) 0.7028(3) 0.26286(16)
H62 H -0.0976 0.6780 0.4255
H63 H -0.0852 0.6137 0.4181
C81 C -0.1651(4) 0.6385(6) 0.4063(3)
H64 H 0.5740 1.3677 0.5703
H65 H 0.6388 1.3569 0.5781
C82 C 0.6094(5) 1.4344(4) 0.5941(3)
C83 C 0.4301(2) 0.5191(3) 0.32813(12)
H66 H 0.3639 0.5462 0.3058
H67 H 0.5056 0.5743 0.2661
C84 C 0.5162(2) 0.5337(3) 0.30339(11)
S4 S 0.52852(14) 0.74290(11) 0.27943(7)
H68 H -0.1697 0.6102 0.3911
H69 H -0.1823 0.6738 0.3995
C85 C -0.1967(7) 0.6187(10) 0.4329(4)
H70 H 0.5774 1.4454 0.6063
H71 H 0.6086 1.4581 0.5767
C86 C 0.6652(6) 1.4444(5) 0.6104(4)
C87 C 0.4888(2) 0.5134(2) 0.32774(10)
H72 H 0.4091 0.5060 0.3440
H73 H 0.5557 0.5297 0.3016
H74 H -0.1806 0.5831 0.4399
H75 H -0.1935 0.6470 0.4482
C88 C -0.2571(8) 0.6105(15) 0.4250(4)
H76 H 0.6941 1.4573 0.5968
H77 H 0.6781 1.4085 0.6188
C89 C 0.6585(5) 1.4892(5) 0.6350(3)
C90 C 0.5194(2) 0.4893(2) 0.35256(11)
H78 H -0.2616 0.5755 0.4139
H79 H -0.2705 0.6422 0.4132
C91 C -0.2910(10) 0.6071(19) 0.4531(5)
H80 H 0.6298 1.4759 0.6487
H81 H 0.6944 1.4922 0.6455
C92 C 0.6419(5) 1.5469(5) 0.6242(3)
N16 N 0.4887(2) 0.4778(2) 0.37548(10)
C93 C 0.5771(2) 0.4805(2) 0.35158(12)
H82 H -0.2722 0.6311 0.4674
H83 H -0.2889 0.5681 0.4601
C94 C -0.3544(11) 0.6244(16) 0.4518(6)
H84 H 0.6707 1.5602 0.6106
H85 H 0.6061 1.5438 0.6136
C95 C 0.6354(5) 1.5890(5) 0.6473(3)
C96 C 0.5150(3) 0.4571(3) 0.39859(11)
H86 H 0.5973 0.4882 0.3346
C97 C 0.6050(2) 0.4606(2) 0.37550(12)
H87 H -0.3590 0.6552 0.4657
H88 H -0.3603 0.6411 0.4327
C98 C -0.4047(14) 0.5841(19) 0.4568(9)
H89 H 0.6079 1.5745 0.6613
H90 H 0.6717 1.5928 0.6573
C99 C 0.6171(4) 1.6451(5) 0.6382(3)
C100 C 0.5718(3) 0.4485(2) 0.39933(11)
C101 C 0.4782(3) 0.4433(3) 0.42318(12)
C102 C 0.6658(3) 0.4495(3) 0.37547(13)
H91 H -0.3975 0.5806 0.4775
H92 H -0.3850 0.5513 0.4487
C103 C -0.4634(14) 0.5525(15) 0.4585(8)
H93 H 0.5863 1.6413 0.6242
H94 H 0.6486 1.6645 0.6287
C104 C 0.5962(6) 1.6814(5) 0.6643(3)
H95 H 0.5887 0.4342 0.4162
C105 C 0.5008(4) 0.4225(5) 0.44848(15)
C106 C 0.4208(3) 0.4485(3) 0.42184(12)
C107 C 0.6935(3) 0.4324(3) 0.35138(14)
C108 C 0.6974(3) 0.4575(3) 0.40043(14)
H96 H -0.4774 0.5550 0.4387
H97 H -0.4522 0.5129 0.4610
C109 C -0.5184(14) 0.5566(17) 0.4767(9)
H98 H 0.6261 1.6829 0.6789
H99 H 0.5631 1.6633 0.6729
C110 C 0.5805(6) 1.7429(5) 0.6550(3)
H100 H 0.5402 0.4202 0.4509
C111 C 0.4651(4) 0.4050(5) 0.47009(15)
C112 C 0.3887(3) 0.4291(4) 0.44486(13)
H101 H 0.4034 0.4649 0.4057
H102 H 0.6729 0.4275 0.3342
C113 C 0.7516(3) 0.4219(3) 0.35111(17)
C114 C 0.7549(3) 0.4481(3) 0.40082(15)
H103 H 0.6792 0.4695 0.4174
H104 H -0.5449 0.5278 0.4703
H105 H -0.5096 0.5509 0.4969
H106 H -0.5352 0.5937 0.4741
H107 H 0.5961 1.7506 0.6361
H108 H 0.5960 1.7696 0.6688
H109 H 0.5397 1.7468 0.6544
H110 H 0.4813 0.3923 0.4875
H111 H 0.3492 0.4334 0.4440
H112 H 0.7695 0.4092 0.3342
C115 C 0.7823(3) 0.4304(3) 0.37623(17)
H113 H 0.7754 0.4537 0.4179
O4 O 0.8381(2) 0.4218(3) 0.37917(14)
C116 C 0.8665(4) 0.4021(5) 0.3554(3)
H114 H 0.8664 0.4308 0.3402
H115 H 0.8481 0.3679 0.3480
C117 C 0.9270(4) 0.3887(5) 0.3643(3)
H116 H 0.9437 0.4219 0.3736
H117 H 0.9269 0.3576 0.3783
C118 C 0.9622(5) 0.3723(8) 0.3384(3)
H118 H 0.9418 0.3428 0.3279
H119 H 0.9648 0.4053 0.3257
C119 C 1.0187(5) 0.3523(5) 0.3438(3)
H120 H 1.0364 0.3466 0.3249
H121 H 1.0150 0.3148 0.3526
C120 C 1.0599(6) 0.3849(6) 0.3618(4)
H122 H 1.0683 0.4206 0.3520
H123 H 1.0417 0.3942 0.3802
C121 C 1.1111(5) 0.3569(5) 0.3676(3)
H124 H 1.1234 0.3404 0.3492
H125 H 1.1016 0.3252 0.3802
C122 C 1.1625(6) 0.3844(7) 0.3805(3)
H126 H 1.1954 0.3602 0.3769
H127 H 1.1691 0.4206 0.3707
C123 C 1.1579(7) 0.3949(6) 0.4121(3)
H128 H 1.1502 0.3597 0.4225
H129 H 1.1277 0.4221 0.4162
C124 C 1.2158(7) 0.4191(6) 0.4205(4)
H130 H 1.2437 0.3890 0.4205
H131 H 1.2135 0.4356 0.4396
H132 H 1.2268 0.4479 0.4067
N2G N 0.2000(4) 0.9230(3) 0.75156(13)
N1G N 0.1816(2) 0.8155(3) 0.78271(10)
N3G N 0.0890(3) 0.9050(4) 0.78211(11)
C3G C 0.2208(8) 0.9590(6) 0.7456(3)
S1G S 0.2513(4) 1.0171(3) 0.7356(3)
N10A N 0.5798(2) 0.9274(2) 0.71100(10)
Co2A Co 0.62014(3) 0.88181(3) 0.74538(2)
N13G N 0.3435(3) 0.6594(3) 0.21752(11)
N14G N 0.4350(2) 0.57040(19) 0.21710(9)
N15G N 0.3266(2) 0.5497(3) 0.24743(11)
C66G C 0.3205(3) 0.6356(3) 0.19431(13)
C67G C 0.3471(5) 0.7157(3) 0.21708(16)
C78G C 0.4560(3) 0.5964(2) 0.19464(12)
C79G C 0.4404(3) 0.5140(2) 0.21793(11)
C80G C 0.2972(3) 0.5170(4) 0.23714(16)
C57G C 0.3024(3) 0.6674(3) 0.17105(13)
H54G H 0.3165 0.5960 0.1937
H55G H 0.3627 0.7335 0.2334
C58G C 0.3300(5) 0.7492(3) 0.19510(17)
C83G C 0.4809(3) 0.5699(2) 0.17187(12)
H66G H 0.4538 0.6361 0.1942
H67G H 0.4257 0.4944 0.2339
C84G C 0.4663(3) 0.4838(2) 0.19661(11)
S4G S 0.25710(11) 0.47148(14) 0.22057(7)
C51G C 0.3080(3) 0.7237(3) 0.17078(13)
H43G H 0.2858 0.6491 0.1551
H44G H 0.3330 0.7888 0.1963
C87G C 0.4866(2) 0.5112(2) 0.17226(10)
H72G H 0.4940 0.5909 0.1560
H73G H 0.4703 0.4443 0.1984
C45G C 0.2927(3) 0.7583(3) 0.14510(13)
C90G C 0.5107(2) 0.4806(2) 0.14744(11)
N11G N 0.2704(2) 0.7303(2) 0.12340(10)
C50G C 0.3021(3) 0.8155(3) 0.14412(14)
N16G N 0.5222(2) 0.5113(2) 0.12452(10)
C93G C 0.5195(2) 0.4229(2) 0.14842(12)
C39G C 0.2573(2) 0.7587(2) 0.09963(12)
H39G H 0.3162 0.8343 0.1605
C46G C 0.2908(3) 0.8453(3) 0.11945(13)
C96G C 0.5429(3) 0.4850(3) 0.10141(11)
H86G H 0.5118 0.4027 0.1654
C97G C 0.5394(2) 0.3950(2) 0.12450(12)
C42G C 0.2672(3) 0.8162(2) 0.09655(12)
C36G C 0.2305(2) 0.7259(2) 0.07616(11)
C52G C 0.3028(3) 0.9064(3) 0.11785(13)
C100G C 0.5515(2) 0.4282(3) 0.10067(11)
C101G C 0.5567(3) 0.5218(3) 0.07682(12)
C102G C 0.5505(3) 0.3342(3) 0.12453(13)
H33G H 0.2581 0.8349 0.0793
C31G C 0.2091(2) 0.7510(3) 0.05170(12)
C32G C 0.2226(3) 0.6684(2) 0.07933(12)
C59G C 0.2980(3) 0.9403(3) 0.14157(15)
C60G C 0.3187(3) 0.9310(3) 0.09245(15)
H95G H 0.5658 0.4113 0.0838
C105G C 0.5775(5) 0.4992(4) 0.05152(15)
C106G C 0.5515(3) 0.5792(3) 0.07816(12)
C107G C 0.5676(3) 0.3065(3) 0.14862(14)
C108G C 0.5425(3) 0.3026(3) 0.09957(14)
H23G H 0.2151 0.7897 0.0482
C24G C 0.1788(2) 0.7189(2) 0.03234(12)
C25G C 0.1935(2) 0.6393(2) 0.05815(11)
H24G H 0.2367 0.6494 0.0956
H45G H 0.2867 0.9245 0.1593
C68G C 0.3095(3) 0.9966(3) 0.14004(16)
C69G C 0.3306(3) 0.9873(3) 0.09033(15)
H46G H 0.3214 0.9083 0.0758
H100G H 0.5798 0.4598 0.0491
C111G C 0.5950(5) 0.5349(4) 0.02991(15)
C112G C 0.5709(4) 0.6113(3) 0.05514(13)
H101G H 0.5351 0.5966 0.0943
H102G H 0.5725 0.3271 0.1658
C113G C 0.5781(3) 0.2484(3) 0.14889(17)
C114G C 0.5519(3) 0.2451(3) 0.09918(15)
H103G H 0.5305 0.3208 0.0826
N3C N 0.4110(3) 0.4050(4) 0.46789(11)
N6G N 0.17124(19) 0.66419(19) 0.03508(9)
H17G H 0.1626 0.7371 0.0163
H18G H 0.1892 0.6000 0.0602
H56G H 0.3063 1.0190 0.1567
C74G C 0.3254(3) 1.0207(3) 0.11474(17)
H57G H 0.3421 1.0031 0.0727
N3D N 0.5950(4) 0.5890(3) 0.03211(11)
H110G H 0.6077 0.5187 0.0125
H111G H 0.5666 0.6508 0.0560
H112G H 0.5908 0.2305 0.1658
C115G C 0.5696(3) 0.2177(3) 0.12377(17)
H113G H 0.5463 0.2246 0.0821
Co1C Co 0.36169(3) 0.36169(3) 0.5000
Co2G Co 0.12014(3) 0.61819(3) 0.00462(2)
O2G O 0.3351(3) 1.0770(2) 0.11489(13)
Co1A Co 0.63831(3) 0.63831(3) 0.0000
O4G O 0.5782(3) 0.1619(2) 0.12083(14)
N5G N 0.16450(19) 0.6591(2) -0.02978(9)
N7G N 0.1823(2) 0.5557(2) 0.00408(10)
N8G N 0.0706(2) 0.5715(2) -0.02607(9)
N9G N 0.0591(2) 0.6791(2) 0.00752(10)
N10G N 0.0798(2) 0.5726(2) 0.03900(10)
C76G C 0.3516(4) 1.1029(4) 0.0890(2)
C116G C 0.5979(5) 0.1335(4) 0.1446(3)
C18G C 0.1415(2) 0.6771(2) -0.05435(11)
C19G C 0.2207(2) 0.6589(3) -0.02879(12)
C26G C 0.2157(4) 0.5272(5) 0.0148(2)
C27G C 0.0964(2) 0.5450(2) -0.04788(11)
C28G C 0.0151(2) 0.5697(3) -0.02435(11)
C29G C 0.0275(3) 0.7130(3) 0.01473(15)
H62G H 0.3220 1.0976 0.0745
H63G H 0.3863 1.0852 0.0819
C81G C 0.3615(6) 1.1651(4) 0.0937(3)
H114G H 0.5692 0.1336 0.1598
H115G H 0.6321 0.1519 0.1520
C117G C 0.6113(5) 0.0730(4) 0.1357(3)
C14G C 0.1720(2) 0.6935(2) -0.07765(11)
H11G H 0.1018 0.6785 -0.0556
H12G H 0.2383 0.6470 -0.0117
C15G C 0.2541(2) 0.6749(3) -0.05129(13)
S2G S 0.2590(3) 0.4837(3) 0.02987(11)
C33G C 0.0663(2) 0.5173(3) -0.06883(11)
H19G H 0.1361 0.5454 -0.0489
H20G H -0.0027 0.5875 -0.0087
C34G C -0.0179(2) 0.5429(3) -0.04439(12)
S3G S -0.01601(17) 0.76203(14) 0.02485(9)
H68G H 0.3898 1.1697 0.1089
H69G H 0.3262 1.1823 0.1005
C85G C 0.3813(10) 1.1967(7) 0.0671(4)
H116G H 0.5781 0.0563 0.1264
H117G H 0.6424 0.0731 0.1217
C118G C 0.6277(8) 0.0378(5) 0.1616(3)
C12G C 0.2303(2) 0.6913(2) -0.07667(11)
H7G H 0.1535 0.7063 -0.0944
H8G H 0.2937 0.6746 -0.0493
C37G C 0.0077(2) 0.5159(2) -0.06738(11)
H25G H 0.0852 0.4993 -0.0841
H26G H -0.0575 0.5428 -0.0425
H74G H 0.4169 1.1806 0.0601
H75G H 0.3530 1.1935 0.0518
C88G C 0.3895(15) 1.2571(8) 0.0750(4)
H118G H 0.6572 0.0582 0.1721
H119G H 0.5947 0.0352 0.1743
C119G C 0.6477(5) -0.0187(5) 0.1562(3)
C9G C 0.2657(2) 0.7040(2) -0.10214(11)
C40G C -0.0254(2) 0.4884(2) -0.09045(11)
H78G H 0.4245 1.2616 0.0861
H79G H 0.3578 1.2705 0.0868
C91G C 0.3929(19) 1.2910(10) 0.0469(5)
H120G H 0.6534 -0.0364 0.1751
H121G H 0.6852 -0.0150 0.1474
C120G C 0.6151(6) -0.0599(6) 0.1382(4)
N4G N 0.23920(19) 0.7248(2) -0.12513(9)
C11G C 0.3225(2) 0.6935(2) -0.10184(11)
N12G N 0.0031(2) 0.47915(19) -0.11473(10)
C43G C -0.0818(2) 0.4770(2) -0.08748(12)
H82G H 0.3689 1.2722 0.0326
H83G H 0.4319 1.2889 0.0399
C94G C 0.3756(16) 1.3544(11) 0.0482(6)
H122G H 0.5794 -0.0683 0.1480
H123G H 0.6058 -0.0417 0.1198
C121G C 0.6431(5) -0.1111(5) 0.1324(3)
C7G C 0.2703(2) 0.7357(2) -0.14866(11)
H6G H 0.3397 0.6792 -0.0851
C10G C 0.3549(2) 0.7040(2) -0.12608(11)
C47G C -0.0252(2) 0.4574(2) -0.13686(11)
H34G H -0.1004 0.4841 -0.0699
C48G C -0.1113(3) 0.4549(2) -0.11079(13)
H87G H 0.3448 1.3590 0.0343
H88G H 0.3589 1.3603 0.0673
C98G C 0.4159(19) 1.4047(14) 0.0432(9)
H124G H 0.6596 -0.1234 0.1508
H125G H 0.6748 -0.1016 0.1198
C122G C 0.6156(7) -0.1625(6) 0.1195(3)
C8G C 0.3274(2) 0.7257(2) -0.15002(11)
C6G C 0.2398(2) 0.7607(3) -0.17320(12)
C13G C 0.4159(2) 0.6936(2) -0.12589(12)
C53G C -0.0818(2) 0.4454(3) -0.13564(12)
C54G C 0.0076(2) 0.4473(2) -0.16292(11)
C55G C -0.1721(3) 0.4428(3) -0.10966(14)
H91G H 0.4194 1.3975 0.0225
H92G H 0.4487 1.3850 0.0513
C103G C 0.4475(15) 1.4634(14) 0.0415(8)
H126G H 0.6398 -0.1954 0.1231
H127G H 0.5794 -0.1691 0.1293
C123G C 0.6051(6) -0.1579(7) 0.0879(3)
H5G H 0.3476 0.7335 -0.1670
C4G C 0.2669(2) 0.7803(3) -0.19729(12)
C5G C 0.1808(3) 0.7687(4) -0.17229(13)
C16G C 0.4472(3) 0.7030(3) -0.10102(13)
C17G C 0.4435(2) 0.6746(3) -0.14978(12)
H40G H -0.1004 0.4306 -0.1519
C61G C -0.0165(3) 0.4309(3) -0.18864(11)
C62G C 0.0671(2) 0.4508(2) -0.16262(11)
C63G C -0.1986(3) 0.4250(3) -0.08443(16)
C64G C -0.2054(3) 0.4491(3) -0.13403(17)
H96G H 0.4450 1.4774 0.0613
H97G H 0.4871 1.4522 0.0390
C109G C 0.4434(17) 1.5184(14) 0.0233(9)
H128G H 0.6403 -0.1502 0.0775
H129G H 0.5779 -0.1277 0.0838
C124G C 0.5809(6) -0.2158(7) 0.0795(4)
H3G H 0.3062 0.7753 -0.1993
C1G C 0.2366(3) 0.8073(3) -0.21865(12)
C2G C 0.1553(3) 0.7963(4) -0.19387(14)
H4G H 0.1596 0.7549 -0.1567
H9G H 0.4288 0.7166 -0.0844
C20G C 0.5039(3) 0.6930(3) -0.10023(14)
C21G C 0.5011(2) 0.6632(3) -0.14961(13)
H10G H 0.4229 0.6690 -0.1669
H47G H -0.0561 0.4288 -0.1903
C70G C 0.0167(3) 0.4177(3) -0.21152(12)
C71G C 0.0966(2) 0.4381(2) -0.18697(11)
H48G H 0.0862 0.4619 -0.1458
H49G H -0.1771 0.4202 -0.0675
C72G C -0.2567(3) 0.4142(4) -0.0839(2)
C73G C -0.2625(3) 0.4383(4) -0.1337(2)
H50G H -0.1884 0.4612 -0.1513
H104G H 0.4722 1.5449 0.0297
H105G H 0.4491 1.5096 0.0031
H106G H 0.4063 1.5352 0.0259
H130G H 0.6110 -0.2437 0.0795
H131G H 0.5644 -0.2135 0.0604
H132G H 0.5521 -0.2268 0.0933
N1G_2 N 0.1816(2) 0.8155(3) -0.21729(10)
H1G H 0.2562 0.8205 -0.2350
H2G H 0.1161 0.8024 -0.1924
H13G H 0.5243 0.6996 -0.0832
C22G C 0.5314(2) 0.6731(3) -0.12453(13)
H14G H 0.5192 0.6491 -0.1662
N10E N 0.0726(2) 0.4202(2) -0.21100(10)
H58G H -0.0010 0.4061 -0.2287
H59G H 0.1361 0.4422 -0.1866
H60G H -0.2743 0.4019 -0.0668
C75G C -0.2876(3) 0.4217(4) -0.1084(2)
H61G H -0.2841 0.4422 -0.1506
Co1_2 Co 0.13831(3) 0.86169(3) -0.2500
O1G O 0.58727(18) 0.6632(3) -0.12167(11)
Co2E Co 0.11819(3) 0.37986(3) -0.24538(2)
O3G O -0.3439(2) 0.4133(3) -0.11037(17)
C23G C 0.6151(3) 0.6372(4) -0.14492(17)
C77G C -0.3719(4) 0.3971(5) -0.0853(3)
H15G H 0.6158 0.6627 -0.1616
H16G H 0.5952 0.6025 -0.1505
C30G C 0.6741(3) 0.6236(4) -0.1357(2)
H64G H -0.3677 0.4260 -0.0703
H65G H -0.3569 0.3612 -0.0781
C82G C -0.4344(4) 0.3906(5) -0.0941(3)
H21G H 0.6965 0.6585 -0.1357
H22G H 0.6732 0.6095 -0.1158
C35G C 0.7028(4) 0.5810(6) -0.1542(3)
H70G H -0.4454 0.4226 -0.1063
H71G H -0.4581 0.3914 -0.0767
C86G C -0.4444(5) 0.3348(6) -0.1104(4)
H27G H 0.7401 0.5733 -0.1459
H28G H 0.6811 0.5458 -0.1532
C38G C 0.7105(7) 0.5956(7) -0.1847(3)
H76G H -0.4573 0.3059 -0.0968
H77G H -0.4085 0.3219 -0.1188
C89G C -0.4892(5) 0.3415(5) -0.1350(3)
H29G H 0.6745 0.6077 -0.1932
H30G H 0.7246 0.5630 -0.1955
C41G C 0.7521(9) 0.6423(8) -0.1854(3)
H80G H -0.4759 0.3702 -0.1487
H81G H -0.4922 0.3056 -0.1455
C92G C -0.5469(5) 0.3581(5) -0.1242(3)
H31G H 0.7344 0.6780 -0.1795
H32G H 0.7838 0.6343 -0.1724
C44G C 0.7717(6) 0.6458(8) -0.2154(3)
H84G H -0.5602 0.3293 -0.1106
H85G H -0.5438 0.3939 -0.1136
C95G C -0.5890(5) 0.3646(5) -0.1473(3)
H35G H 0.7402 0.6580 -0.2276
H36G H 0.7834 0.6080 -0.2218
C49G C 0.8206(6) 0.6864(8) -0.2191(3)
H89G H -0.5745 0.3921 -0.1613
H90G H -0.5928 0.3283 -0.1573
C99G C -0.6451(5) 0.3829(4) -0.1382(3)
H37G H 0.8538 0.6731 -0.2085
H38G H 0.8104 0.7242 -0.2121
C56G C 0.8323(12) 0.6874(13) -0.2512(4)
H93G H -0.6413 0.4137 -0.1242
H94G H -0.6645 0.3514 -0.1287
C104G C -0.6814(5) 0.4038(6) -0.1643(3)
H41G H 0.7992 0.6758 -0.2625
H42G H 0.8648 0.6637 -0.2564
C65G C 0.845(2) 0.7516(14) -0.2549(6)
H98G H -0.6829 0.3739 -0.1789
H99G H -0.6633 0.4369 -0.1729
C110G C -0.7429(5) 0.4195(6) -0.1550(3)
H51G H 0.8541 0.7595 -0.2749
H52G H 0.8128 0.7736 -0.2490
H53G H 0.8776 0.7617 -0.2430
H107G H -0.7506 0.4039 -0.1361
H108G H -0.7696 0.4040 -0.1688
H109G H -0.7468 0.4603 -0.1544
C125 C 0.1446(3) 0.9207(4) 0.50786(14)
H133 H 0.1612 0.9464 0.4933
Cl1 Cl 0.09446(10) 0.95827(14) 0.52619(6)
Cl2 Cl 0.19933(7) 0.89835(9) 0.53014(4)
Cl3 Cl 0.11520(10) 0.86443(11) 0.48952(6)
C126 C 0.3549(14) 1.1054(14) 0.4786(6)
H134 H 0.3270 1.0747 0.4816
Cl4 Cl 0.3221(9) 1.1565(9) 0.4610(4)
Cl5 Cl 0.4131(13) 1.0755(13) 0.4637(6)
Cl6 Cl 0.3714(4) 1.1303(5) 0.5108(3)
O5 O 0.2698(3) 1.0891(3) 0.54276(14)
H135 H 0.2910 1.1017 0.5300
C127 C 0.2932(5) 1.0394(4) 0.5543(2)
H136 H 0.3162 1.0208 0.5398
H137 H 0.2630 1.0142 0.5603
H138 H 0.3166 1.0487 0.5708
loop_
_geom_bond_atom_site_label_1
_geom_bond_atom_site_label_2
_geom_bond_site_symmetry_1
_geom_bond_site_symmetry_2
Co1 N1 1_555 1_555
N1 C1 1_555 1_555
N2 Co1 1_555 1_555
N3 Co1 1_555 1_555
C1 C4 1_555 1_555
C2 N1 1_555 1_555
C3 N2 1_555 1_555
C4 C6 1_555 1_555
H1 C1 1_555 1_555
H2 C2 1_555 1_555
C5 C2 1_555 1_555
S1 C3 1_555 1_555
C6 C5 1_555 1_555
H3 C4 1_555 1_555
H4 C5 1_555 1_555
C7 C6 1_555 1_555
N4 C7 1_555 1_555
C8 C7 1_555 1_555
C9 N4 1_555 1_555
C10 C8 1_555 1_555
H5 C8 1_555 1_555
C11 C9 1_555 1_555
C12 C9 1_555 1_555
C13 C10 1_555 1_555
H6 C11 1_555 1_555
C14 C12 1_555 1_555
C15 C12 1_555 1_555
C16 C13 1_555 1_555
C17 C13 1_555 1_555
H7 C14 1_555 1_555
C18 C14 1_555 1_555
C19 C15 1_555 1_555
H8 C15 1_555 1_555
H9 C16 1_555 1_555
C20 C16 1_555 1_555
C21 C17 1_555 1_555
H10 C17 1_555 1_555
N5 C18 1_555 1_555
H11 C18 1_555 1_555
H12 C19 1_555 1_555
H13 C20 1_555 1_555
C22 C20 1_555 1_555
H14 C21 1_555 1_555
Co2 N5 1_555 1_555
O1 C22 1_555 1_555
N6 Co2 1_555 1_555
N7 Co2 1_555 1_555
N8 Co2 1_555 1_555
N9 Co2 1_555 1_555
N10 Co2 1_555 1_555
C23 O1 1_555 1_555
C24 N6 1_555 1_555
C25 N6 1_555 1_555
C26 N7 1_555 1_555
C27 N8 1_555 1_555
C28 N8 1_555 1_555
C29 N9 1_555 1_555
H15 C23 1_555 1_555
H16 C23 1_555 1_555
C30 C23 1_555 1_555
C31 C24 1_555 1_555
H17 C24 1_555 1_555
H18 C25 1_555 1_555
C32 C25 1_555 1_555
S2 C26 1_555 1_555
C33 C27 1_555 1_555
H19 C27 1_555 1_555
H20 C28 1_555 1_555
C34 C28 1_555 1_555
S3 C29 1_555 1_555
H21 C30 1_555 1_555
H22 C30 1_555 1_555
C35 C30 1_555 1_555
C36 C31 1_555 1_555
H23 C31 1_555 1_555
H24 C32 1_555 1_555
C37 C33 1_555 1_555
H25 C33 1_555 1_555
H26 C34 1_555 1_555
H27 C35 1_555 1_555
H28 C35 1_555 1_555
C38 C35 1_555 1_555
C39 C36 1_555 1_555
C40 C37 1_555 1_555
H29 C38 1_555 1_555
H30 C38 1_555 1_555
C41 C38 1_555 1_555
N11 C39 1_555 1_555
C42 C39 1_555 1_555
N12 C40 1_555 1_555
C43 C40 1_555 1_555
H31 C41 1_555 1_555
H32 C41 1_555 1_555
C44 C41 1_555 1_555
C45 N11 1_555 1_555
C46 C42 1_555 1_555
H33 C42 1_555 1_555
C47 N12 1_555 1_555
H34 C43 1_555 1_555
C48 C43 1_555 1_555
H35 C44 1_555 1_555
H36 C44 1_555 1_555
C49 C44 1_555 1_555
C50 C45 1_555 1_555
C51 C45 1_555 1_555
C52 C46 1_555 1_555
C53 C47 1_555 1_555
C54 C47 1_555 1_555
C55 C48 1_555 1_555
H37 C49 1_555 1_555
H38 C49 1_555 1_555
C56 C49 1_555 1_555
H39 C50 1_555 1_555
C57 C51 1_555 1_555
C58 C51 1_555 1_555
C59 C52 1_555 1_555
C60 C52 1_555 1_555
H40 C53 1_555 1_555
C61 C54 1_555 1_555
C62 C54 1_555 1_555
C63 C55 1_555 1_555
C64 C55 1_555 1_555
H41 C56 1_555 1_555
H42 C56 1_555 1_555
C65 C56 1_555 1_555
H43 C57 1_555 1_555
C66 C57 1_555 1_555
C67 C58 1_555 1_555
H44 C58 1_555 1_555
H45 C59 1_555 1_555
C68 C59 1_555 1_555
C69 C60 1_555 1_555
H46 C60 1_555 1_555
H47 C61 1_555 1_555
C70 C61 1_555 1_555
C71 C62 1_555 1_555
H48 C62 1_555 1_555
H49 C63 1_555 1_555
C72 C63 1_555 1_555
C73 C64 1_555 1_555
H50 C64 1_555 1_555
H51 C65 1_555 1_555
H52 C65 1_555 1_555
H53 C65 1_555 1_555
N13 C66 1_555 1_555
H54 C66 1_555 1_555
H55 C67 1_555 1_555
H56 C68 1_555 1_555
C74 C68 1_555 1_555
H57 C69 1_555 1_555
H58 C70 1_555 1_555
H59 C71 1_555 1_555
H60 C72 1_555 1_555
C75 C72 1_555 1_555
H61 C73 1_555 1_555
Co3 N13 1_555 1_555
O2 C74 1_555 1_555
O3 C75 1_555 1_555
N14 Co3 1_555 1_555
N15 Co3 1_555 1_555
C76 O2 1_555 1_555
C77 O3 1_555 1_555
C78 N14 1_555 1_555
C79 N14 1_555 1_555
C80 N15 1_555 1_555
H62 C76 1_555 1_555
H63 C76 1_555 1_555
C81 C76 1_555 1_555
H64 C77 1_555 1_555
H65 C77 1_555 1_555
C82 C77 1_555 1_555
C83 C78 1_555 1_555
H66 C78 1_555 1_555
H67 C79 1_555 1_555
C84 C79 1_555 1_555
S4 C80 1_555 1_555
H68 C81 1_555 1_555
H69 C81 1_555 1_555
C85 C81 1_555 1_555
H70 C82 1_555 1_555
H71 C82 1_555 1_555
C86 C82 1_555 1_555
C87 C83 1_555 1_555
H72 C83 1_555 1_555
H73 C84 1_555 1_555
H74 C85 1_555 1_555
H75 C85 1_555 1_555
C88 C85 1_555 1_555
H76 C86 1_555 1_555
H77 C86 1_555 1_555
C89 C86 1_555 1_555
C90 C87 1_555 1_555
H78 C88 1_555 1_555
H79 C88 1_555 1_555
C91 C88 1_555 1_555
H80 C89 1_555 1_555
H81 C89 1_555 1_555
C92 C89 1_555 1_555
N16 C90 1_555 1_555
C93 C90 1_555 1_555
H82 C91 1_555 1_555
H83 C91 1_555 1_555
C94 C91 1_555 1_555
H84 C92 1_555 1_555
H85 C92 1_555 1_555
C95 C92 1_555 1_555
C96 N16 1_555 1_555
H86 C93 1_555 1_555
C97 C93 1_555 1_555
H87 C94 1_555 1_555
H88 C94 1_555 1_555
C98 C94 1_555 1_555
H89 C95 1_555 1_555
H90 C95 1_555 1_555
C99 C95 1_555 1_555
C100 C96 1_555 1_555
C101 C96 1_555 1_555
C102 C97 1_555 1_555
H91 C98 1_555 1_555
H92 C98 1_555 1_555
C103 C98 1_555 1_555
H93 C99 1_555 1_555
H94 C99 1_555 1_555
C104 C99 1_555 1_555
H95 C100 1_555 1_555
C105 C101 1_555 1_555
C106 C101 1_555 1_555
C107 C102 1_555 1_555
C108 C102 1_555 1_555
H96 C103 1_555 1_555
H97 C103 1_555 1_555
C109 C103 1_555 1_555
H98 C104 1_555 1_555
H99 C104 1_555 1_555
C110 C104 1_555 1_555
H100 C105 1_555 1_555
C111 C105 1_555 1_555
C112 C106 1_555 1_555
H101 C106 1_555 1_555
H102 C107 1_555 1_555
C113 C107 1_555 1_555
C114 C108 1_555 1_555
H103 C108 1_555 1_555
H104 C109 1_555 1_555
H105 C109 1_555 1_555
H106 C109 1_555 1_555
H107 C110 1_555 1_555
H108 C110 1_555 1_555
H109 C110 1_555 1_555
H110 C111 1_555 1_555
H111 C112 1_555 1_555
H112 C113 1_555 1_555
C115 C113 1_555 1_555
H113 C114 1_555 1_555
O4 C115 1_555 1_555
C116 O4 1_555 1_555
H114 C116 1_555 1_555
H115 C116 1_555 1_555
C117 C116 1_555 1_555
H116 C117 1_555 1_555
H117 C117 1_555 1_555
C118 C117 1_555 1_555
H118 C118 1_555 1_555
H119 C118 1_555 1_555
C119 C118 1_555 1_555
H120 C119 1_555 1_555
H121 C119 1_555 1_555
C120 C119 1_555 1_555
H122 C120 1_555 1_555
H123 C120 1_555 1_555
C121 C120 1_555 1_555
H124 C121 1_555 1_555
H125 C121 1_555 1_555
C122 C121 1_555 1_555
H126 C122 1_555 1_555
H127 C122 1_555 1_555
C123 C122 1_555 1_555
H128 C123 1_555 1_555
H129 C123 1_555 1_555
C124 C123 1_555 1_555
H130 C124 1_555 1_555
H131 C124 1_555 1_555
H132 C124 1_555 1_555
C125 H133 1_555 1_555
Cl1 C125 1_555 1_555
Cl2 C125 1_555 1_555
Cl3 C125 1_555 1_555
C126 H134 1_555 1_555
Cl4 C126 1_555 1_555
Cl5 C126 1_555 1_555
Cl6 C126 1_555 1_555
O5 H135 1_555 1_555
C127 O5 1_555 1_555
H136 C127 1_555 1_555
H137 C127 1_555 1_555
H138 C127 1_555 1_555
N2G Co1 1_555 1_555
N1G Co1 1_555 1_555
N3G Co1 1_555 1_555
C3G N2G 1_555 1_555
S1G C3G 1_555 1_555
N10A C70 1_555 1_555
Co2A N10A 1_555 1_555
N13G Co3 1_555 1_555
N14G Co3 1_555 1_555
N15G Co3 1_555 1_555
C66G N13G 1_555 1_555
C67G N13G 1_555 1_555
C78G N14G 1_555 1_555
C79G N14G 1_555 1_555
C80G N15G 1_555 1_555
C57G C66G 1_555 1_555
H54G C66G 1_555 1_555
H55G C67G 1_555 1_555
C58G C67G 1_555 1_555
C83G C78G 1_555 1_555
H66G C78G 1_555 1_555
H67G C79G 1_555 1_555
C84G C79G 1_555 1_555
S4G C80G 1_555 1_555
C51G C57G 1_555 1_555
H43G C57G 1_555 1_555
H44G C58G 1_555 1_555
C87G C83G 1_555 1_555
H72G C83G 1_555 1_555
H73G C84G 1_555 1_555
C45G C51G 1_555 1_555
C90G C87G 1_555 1_555
N11G C45G 1_555 1_555
C50G C45G 1_555 1_555
N16G C90G 1_555 1_555
C93G C90G 1_555 1_555
C39G N11G 1_555 1_555
H39G C50G 1_555 1_555
C46G C50G 1_555 1_555
C96G N16G 1_555 1_555
H86G C93G 1_555 1_555
C97G C93G 1_555 1_555
C42G C39G 1_555 1_555
C36G C39G 1_555 1_555
C52G C46G 1_555 1_555
C100G C96G 1_555 1_555
C101G C96G 1_555 1_555
C102G C97G 1_555 1_555
H33G C42G 1_555 1_555
C31G C36G 1_555 1_555
C32G C36G 1_555 1_555
C59G C52G 1_555 1_555
C60G C52G 1_555 1_555
H95G C100G 1_555 1_555
C105G C101G 1_555 1_555
C106G C101G 1_555 1_555
C107G C102G 1_555 1_555
C108G C102G 1_555 1_555
H23G C31G 1_555 1_555
C24G C31G 1_555 1_555
C25G C32G 1_555 1_555
H24G C32G 1_555 1_555
H45G C59G 1_555 1_555
C68G C59G 1_555 1_555
C69G C60G 1_555 1_555
H46G C60G 1_555 1_555
H100G C105G 1_555 1_555
C111G C105G 1_555 1_555
C112G C106G 1_555 1_555
H101G C106G 1_555 1_555
H102G C107G 1_555 1_555
C113G C107G 1_555 1_555
C114G C108G 1_555 1_555
H103G C108G 1_555 1_555
N3C C111 1_555 1_555
N6G C24G 1_555 1_555
H17G C24G 1_555 1_555
H18G C25G 1_555 1_555
H56G C68G 1_555 1_555
C74G C68G 1_555 1_555
H57G C69G 1_555 1_555
N3D C111G 1_555 1_555
H110G C111G 1_555 1_555
H111G C112G 1_555 1_555
H112G C113G 1_555 1_555
C115G C113G 1_555 1_555
H113G C114G 1_555 1_555
Co1C N3C 1_555 1_555
Co2G N6G 1_555 1_555
O2G C74G 1_555 1_555
Co1A N3D 1_555 1_555
O4G C115G 1_555 1_555
N5G Co2G 1_555 1_555
N7G Co2G 1_555 1_555
N8G Co2G 1_555 1_555
N9G Co2G 1_555 1_555
N10G Co2G 1_555 1_555
C76G O2G 1_555 1_555
C116G O4G 1_555 1_555
C18G N5G 1_555 1_555
C19G N5G 1_555 1_555
C26G N7G 1_555 1_555
C27G N8G 1_555 1_555
C28G N8G 1_555 1_555
C29G N9G 1_555 1_555
H62G C76G 1_555 1_555
H63G C76G 1_555 1_555
C81G C76G 1_555 1_555
H114G C116G 1_555 1_555
H115G C116G 1_555 1_555
C117G C116G 1_555 1_555
C14G C18G 1_555 1_555
H11G C18G 1_555 1_555
H12G C19G 1_555 1_555
C15G C19G 1_555 1_555
S2G C26G 1_555 1_555
C33G C27G 1_555 1_555
H19G C27G 1_555 1_555
H20G C28G 1_555 1_555
C34G C28G 1_555 1_555
S3G C29G 1_555 1_555
H68G C81G 1_555 1_555
H69G C81G 1_555 1_555
C85G C81G 1_555 1_555
H116G C117G 1_555 1_555
H117G C117G 1_555 1_555
C118G C117G 1_555 1_555
C12G C14G 1_555 1_555
H7G C14G 1_555 1_555
H8G C15G 1_555 1_555
C37G C33G 1_555 1_555
H25G C33G 1_555 1_555
H26G C34G 1_555 1_555
H74G C85G 1_555 1_555
H75G C85G 1_555 1_555
C88G C85G 1_555 1_555
H118G C118G 1_555 1_555
H119G C118G 1_555 1_555
C119G C118G 1_555 1_555
C9G C12G 1_555 1_555
C40G C37G 1_555 1_555
H78G C88G 1_555 1_555
H79G C88G 1_555 1_555
C91G C88G 1_555 1_555
H120G C119G 1_555 1_555
H121G C119G 1_555 1_555
C120G C119G 1_555 1_555
N4G C9G 1_555 1_555
C11G C9G 1_555 1_555
N12G C40G 1_555 1_555
C43G C40G 1_555 1_555
H82G C91G 1_555 1_555
H83G C91G 1_555 1_555
C94G C91G 1_555 1_555
H122G C120G 1_555 1_555
H123G C120G 1_555 1_555
C121G C120G 1_555 1_555
C7G N4G 1_555 1_555
H6G C11G 1_555 1_555
C10G C11G 1_555 1_555
C47G N12G 1_555 1_555
H34G C43G 1_555 1_555
C48G C43G 1_555 1_555
H87G C94G 1_555 1_555
H88G C94G 1_555 1_555
C98G C94G 1_555 1_555
H124G C121G 1_555 1_555
H125G C121G 1_555 1_555
C122G C121G 1_555 1_555
C8G C7G 1_555 1_555
C6G C7G 1_555 1_555
C13G C10G 1_555 1_555
C53G C47G 1_555 1_555
C54G C47G 1_555 1_555
C55G C48G 1_555 1_555
H91G C98G 1_555 1_555
H92G C98G 1_555 1_555
C103G C98G 1_555 1_555
H126G C122G 1_555 1_555
H127G C122G 1_555 1_555
C123G C122G 1_555 1_555
H5G C8G 1_555 1_555
C4G C6G 1_555 1_555
C5G C6G 1_555 1_555
C16G C13G 1_555 1_555
C17G C13G 1_555 1_555
H40G C53G 1_555 1_555
C61G C54G 1_555 1_555
C62G C54G 1_555 1_555
C63G C55G 1_555 1_555
C64G C55G 1_555 1_555
H96G C103G 1_555 1_555
H97G C103G 1_555 1_555
C109G C103G 1_555 1_555
H128G C123G 1_555 1_555
H129G C123G 1_555 1_555
C124G C123G 1_555 1_555
H3G C4G 1_555 1_555
C1G C4G 1_555 1_555
C2G C5G 1_555 1_555
H4G C5G 1_555 1_555
H9G C16G 1_555 1_555
C20G C16G 1_555 1_555
C21G C17G 1_555 1_555
H10G C17G 1_555 1_555
H47G C61G 1_555 1_555
C70G C61G 1_555 1_555
C71G C62G 1_555 1_555
H48G C62G 1_555 1_555
H49G C63G 1_555 1_555
C72G C63G 1_555 1_555
C73G C64G 1_555 1_555
H50G C64G 1_555 1_555
H104G C109G 1_555 1_555
H105G C109G 1_555 1_555
H106G C109G 1_555 1_555
H130G C124G 1_555 1_555
H131G C124G 1_555 1_555
H132G C124G 1_555 1_555
N1G_2 C1G 1_555 1_555
H1G C1G 1_555 1_555
H2G C2G 1_555 1_555
H13G C20G 1_555 1_555
C22G C20G 1_555 1_555
H14G C21G 1_555 1_555
N10E C70G 1_555 1_555
H58G C70G 1_555 1_555
H59G C71G 1_555 1_555
H60G C72G 1_555 1_555
C75G C72G 1_555 1_555
H61G C73G 1_555 1_555
Co1_2 N1G_2 1_555 1_555
O1G C22G 1_555 1_555
Co2E N10E 1_555 1_555
O3G C75G 1_555 1_555
C23G O1G 1_555 1_555
C77G O3G 1_555 1_555
H15G C23G 1_555 1_555
H16G C23G 1_555 1_555
C30G C23G 1_555 1_555
H64G C77G 1_555 1_555
H65G C77G 1_555 1_555
C82G C77G 1_555 1_555
H21G C30G 1_555 1_555
H22G C30G 1_555 1_555
C35G C30G 1_555 1_555
H70G C82G 1_555 1_555
H71G C82G 1_555 1_555
C86G C82G 1_555 1_555
H27G C35G 1_555 1_555
H28G C35G 1_555 1_555
C38G C35G 1_555 1_555
H76G C86G 1_555 1_555
H77G C86G 1_555 1_555
C89G C86G 1_555 1_555
H29G C38G 1_555 1_555
H30G C38G 1_555 1_555
C41G C38G 1_555 1_555
H80G C89G 1_555 1_555
H81G C89G 1_555 1_555
C92G C89G 1_555 1_555
H31G C41G 1_555 1_555
H32G C41G 1_555 1_555
C44G C41G 1_555 1_555
H84G C92G 1_555 1_555
H85G C92G 1_555 1_555
C95G C92G 1_555 1_555
H35G C44G 1_555 1_555
H36G C44G 1_555 1_555
C49G C44G 1_555 1_555
H89G C95G 1_555 1_555
H90G C95G 1_555 1_555
C99G C95G 1_555 1_555
H37G C49G 1_555 1_555
H38G C49G 1_555 1_555
C56G C49G 1_555 1_555
H93G C99G 1_555 1_555
H94G C99G 1_555 1_555
C104G C99G 1_555 1_555
H41G C56G 1_555 1_555
H42G C56G 1_555 1_555
C65G C56G 1_555 1_555
H98G C104G 1_555 1_555
H99G C104G 1_555 1_555
C110G C104G 1_555 1_555
H51G C65G 1_555 1_555
H52G C65G 1_555 1_555
H53G C65G 1_555 1_555
H107G C110G 1_555 1_555
H108G C110G 1_555 1_555
H109G C110G 1_555 1_555
C10 C11 1_555 1_555
C19 N5 1_555 1_555
C21 C22 1_555 1_555
C32 C36 1_555 1_555
C34 C37 1_555 1_555
C46 C50 1_555 1_555
C48 C53 1_555 1_555
C67 N13 1_555 1_555
C69 C74 1_555 1_555
C71 N10A 1_555 1_555
C73 C75 1_555 1_555
C84 C87 1_555 1_555
C97 C100 1_555 1_555
C112 N3C 1_555 1_555
C114 C115 1_555 1_555
C58G C51G 1_555 1_555
C84G C87G 1_555 1_555
C46G C42G 1_555 1_555
C97G C100G 1_555 1_555
C25G N6G 1_555 1_555
C69G C74G 1_555 1_555
C112G N3D 1_555 1_555
C114G C115G 1_555 1_555
C15G C12G 1_555 1_555
C34G C37G 1_555 1_555
C10G C8G 1_555 1_555
C48G C53G 1_555 1_555
C2G N1G_2 1_555 1_555
C21G C22G 1_555 1_555
C71G N10E 1_555 1_555
C73G C75G 1_555 1_555

#END
