
#######################################################################
#
#                 Cambridge Crystallographic Data Centre
#                                CCDC 
#
#######################################################################
#
# If this CIF has been generated from an entry in the Cambridge 
# Structural Database, then it will include bibliographic, chemical, 
# crystal, experimental, refinement or atomic coordinate data resulting 
# from the CCDC's data processing and validation procedures.
#
#######################################################################

data_EMEJIR
_chemical_formula_moiety         '(C224 H216 Co4 N32 O8 S8)n'
_symmetry_cell_setting           tetragonal
_symmetry_space_group_name_H-M   'P 41 21 2'
_symmetry_Int_Tables_number      92
_space_group_name_Hall           'P 4abw 2nw'
loop_
_symmetry_equiv_pos_site_id
_symmetry_equiv_pos_as_xyz
1 x,y,z
2 -x,-y,1/2+z
3 1/2-y,1/2+x,1/4+z
4 1/2+y,1/2-x,3/4+z
5 1/2-x,1/2+y,1/4-z
6 1/2+x,1/2-y,3/4-z
7 y,x,-z
8 -y,-x,1/2-z
_cell_length_a                   23.7111(4)
_cell_length_b                   23.7111(4)
_cell_length_c                   46.9783(7)
_cell_angle_alpha                90
_cell_angle_beta                 90
_cell_angle_gamma                90
_cell_volume                     26412
loop_
_atom_site_label
_atom_site_type_symbol
_atom_site_fract_x
_atom_site_fract_y
_atom_site_fract_z
Co1 Co 0.38123(4) 0.12479(4) 0.25396(2)
Co2 Co 0.13853(5) 0.13853(5) 0.0000
Co3 Co 0.38767(5) 0.38767(5) 0.5000
S1 S 0.5211(2) 0.25594(19) 0.28412(10)
S2 S 0.2337(4) -0.0044(4) 0.27748(18)
S3 S 0.2581(4) -0.0073(4) 0.02463(19)
O1 O -0.0790(3) 0.3301(3) 0.36439(19)
O2 O 0.8461(3) 0.0783(4) 0.3894(2)
O3 O 0.3306(4) 0.5978(3) 0.12083(16)
O4 O 0.0807(3) -0.3415(3) 0.12201(18)
N1 N 0.2671(3) 0.2750(3) 0.37276(11)
N2 N 0.3376(3) 0.3445(3) 0.46682(12)
N3 N 0.3364(3) 0.1750(3) 0.28513(11)
N4 N 0.4926(3) 0.0200(3) 0.38415(11)
N5 N 0.4267(3) -0.0706(3) 0.47335(11)
N6 N 0.4269(3) 0.0838(3) 0.28853(11)
N7 N 0.2751(3) 0.2442(3) 0.12467(11)
N8 N 0.1871(3) 0.1830(3) 0.03256(11)
N9 N 0.3408(3) 0.1704(3) 0.22077(11)
N10 N 0.0246(2) 0.0105(2) 0.12542(10)
N11 N 0.0954(3) 0.0895(3) 0.03251(12)
N12 N -0.0639(3) 0.0696(3) 0.21675(12)
N13 N 0.4453(3) 0.1865(3) 0.25364(15)
N14 N 0.3171(3) 0.0645(3) 0.25546(13)
N15 N 0.1962(8) 0.0744(8) -0.0020(5)
N16 N 0.4528(13) 0.3252(14) 0.4996(7)
C1 C 0.2395(3) 0.2931(3) 0.39487(14)
C2 C 0.1841(4) 0.3063(4) 0.39363(14)
H1 H 0.1663 0.3239 0.4094
C3 C 0.1537(3) 0.2943(3) 0.36977(15)
C4 C 0.1806(3) 0.2711(3) 0.34530(15)
H2 H 0.1611 0.2641 0.3280
C5 C 0.2388(3) 0.2591(3) 0.34896(14)
C6 C 0.2754(4) 0.3075(4) 0.42011(14)
C7 C 0.3340(4) 0.3056(3) 0.42059(16)
H3 H 0.3537 0.2938 0.4040
C8 C 0.3636(4) 0.3202(4) 0.44416(14)
H4 H 0.4030 0.3133 0.4448
C9 C 0.2829(4) 0.3448(5) 0.46732(17)
H5 H 0.2651 0.3595 0.4839
C10 C 0.2520(4) 0.3274(5) 0.44790(17)
H6 H 0.2123 0.3268 0.4508
C11 C 0.2731(3) 0.2317(4) 0.32641(14)
C12 C 0.2455(4) 0.2078(4) 0.30322(15)
H7 H 0.2059 0.2115 0.3005
C13 C 0.2803(3) 0.1774(3) 0.28380(15)
H8 H 0.2622 0.1574 0.2688
C14 C 0.3600(3) 0.2005(4) 0.30617(14)
H9 H 0.4001 0.2004 0.3065
C15 C 0.3337(3) 0.2276(4) 0.32814(15)
H10 H 0.3543 0.2430 0.3437
C16 C 0.0899(4) 0.3047(4) 0.36760(18)
C17 C 0.0584(3) 0.2949(4) 0.39101(18)
H11 H 0.0743 0.2809 0.4082
C18 C 0.0006(4) 0.3066(4) 0.3885(2)
H12 H -0.0225 0.3007 0.4047
C19 C -0.0229(4) 0.3250(4) 0.3656(2)
C20 C 0.0088(4) 0.3320(4) 0.3391(2)
H13 H -0.0084 0.3418 0.3215
C21 C 0.0673(4) 0.3227(3) 0.34208(19)
H14 H 0.0914 0.3289 0.3263
C22 C -0.1073(5) 0.3527(6) 0.3380(3)
H15 H -0.0988 0.3282 0.3215
H16 H -0.0935 0.3912 0.3338
C23 C -0.1706(5) 0.3536(6) 0.3437(3)
H17 H -0.1911 0.3612 0.3257
H18 H -0.1829 0.3165 0.3510
C24 C -0.1839(5) 0.3983(6) 0.3649(3)
H19 H -0.1738 0.4364 0.3579
H20 H -0.1651 0.3914 0.3834
C25 C -0.2493(5) 0.3899(8) 0.3668(3)
H21 H -0.2683 0.4080 0.3504
H22 H -0.2589 0.3493 0.3669
C26 C -0.2676(7) 0.4182(7) 0.3950(3)
H23 H -0.2375 0.4073 0.4085
H24 H -0.2615 0.4589 0.3914
C27 C -0.3209(6) 0.4173(7) 0.4134(3)
H25 H -0.3155 0.4416 0.4300
H26 H -0.3530 0.4312 0.4022
H27 H -0.3285 0.3787 0.4196
C28 C 0.5258(4) 0.0091(4) 0.40945(14)
C29 C 0.5792(4) 0.0192(4) 0.41219(14)
H28 H 0.5977 0.0127 0.4298
C30 C 0.6112(4) 0.0410(3) 0.38722(15)
C31 C 0.5817(4) 0.0506(3) 0.36348(14)
H29 H 0.6006 0.0645 0.3471
C32 C 0.5277(4) 0.0413(3) 0.36227(13)
C33 C 0.4876(3) -0.0161(3) 0.43230(14)
C34 C 0.4310(3) -0.0193(3) 0.43042(15)
H30 H 0.4125 -0.0022 0.4147
C35 C 0.3993(4) -0.0465(4) 0.45041(15)
H31 H 0.3595 -0.0488 0.4486
C36 C 0.4797(3) -0.0699(4) 0.47586(14)
H32 H 0.4962 -0.0868 0.4922
C37 C 0.5146(3) -0.0455(4) 0.45584(14)
H33 H 0.5545 -0.0479 0.4574
C38 C 0.4923(4) 0.0541(3) 0.33582(13)
C39 C 0.5159(4) 0.0671(4) 0.31136(14)
H34 H 0.5557 0.0653 0.3093
C40 C 0.4825(4) 0.0834(4) 0.28863(14)
H35 H 0.5012 0.0953 0.2718
C41 C 0.3991(4) 0.0655(4) 0.31189(14)
H36 H 0.3592 0.0616 0.3120
C42 C 0.4318(3) 0.0526(3) 0.33600(14)
H37 H 0.4131 0.0425 0.3531
C43 C 0.6732(4) 0.0515(4) 0.38869(18)
C44 C 0.6990(4) 0.0737(4) 0.4132(2)
H38 H 0.6773 0.0815 0.4298
C45 C 0.7560(4) 0.0839(5) 0.4130(2)
H39 H 0.7737 0.1006 0.4291
C46 C 0.7879(5) 0.0698(6) 0.3891(3)
C47 C 0.7632(4) 0.0499(5) 0.3661(2)
H40 H 0.7865 0.0410 0.3503
C48 C 0.7065(4) 0.0412(4) 0.3633(2)
H41 H 0.6900 0.0291 0.3459
C49 C 0.8744(4) 0.1098(6) 0.4167(3)
H42 H 0.8588 0.1483 0.4189
H43 H 0.8672 0.0882 0.4343
C50 C 0.9396(4) 0.1123(7) 0.4101(3)
H44 H 0.9602 0.1328 0.4252
H45 H 0.9556 0.0740 0.4081
C51 C 0.9419(5) 0.1451(7) 0.3813(3)
H46 H 0.9184 0.1263 0.3667
H47 H 0.9285 0.1843 0.3838
C52 C 1.0045(5) 0.1441(7) 0.3727(3)
H48 H 1.0264 0.1663 0.3867
H49 H 1.0183 0.1047 0.3735
C53 C 1.0152(6) 0.1674(6) 0.3434(3)
H50 H 1.0020 0.2069 0.3429
H51 H 0.9921 0.1458 0.3296
C54 C 1.0762(6) 0.1660(6) 0.3335(4)
H52 H 1.0788 0.1819 0.3143
H53 H 1.0995 0.1882 0.3466
H54 H 1.0896 0.1269 0.3332
C55 C 0.2951(3) 0.2722(3) 0.14751(13)
C56 C 0.3029(3) 0.3312(3) 0.14686(13)
H55 H 0.3142 0.3496 0.1639
C57 C 0.2950(3) 0.3630(3) 0.12333(14)
C58 C 0.2766(4) 0.3307(3) 0.09882(14)
H56 H 0.2725 0.3494 0.0810
C59 C 0.2650(3) 0.2740(3) 0.10048(13)
C60 C 0.3073(3) 0.2377(4) 0.17365(14)
C61 C 0.3024(3) 0.1800(4) 0.17400(15)
H57 H 0.2866 0.1621 0.1578
C62 C 0.3187(3) 0.1469(3) 0.19608(13)
H58 H 0.3149 0.1071 0.1947
C63 C 0.3409(4) 0.2263(4) 0.22087(15)
H59 H 0.3514 0.2448 0.2380
C64 C 0.3269(4) 0.2594(4) 0.19805(15)
H60 H 0.3312 0.2991 0.1996
C65 C 0.2393(3) 0.2423(3) 0.07653(13)
C66 C 0.2205(3) 0.2695(3) 0.05158(15)
H61 H 0.2253 0.3090 0.0491
C67 C 0.1955(3) 0.2378(3) 0.03113(14)
H62 H 0.1831 0.2566 0.0144
C68 C 0.2126(4) 0.1567(3) 0.05440(16)
H63 H 0.2137 0.1166 0.0542
C69 C 0.2362(4) 0.1826(3) 0.07591(15)
H64 H 0.2514 0.1613 0.0912
C70 C 0.3059(3) 0.4222(3) 0.12370(17)
C71 C 0.2959(5) 0.4532(4) 0.14581(19)
H65 H 0.2827 0.4364 0.1629
C72 C 0.3046(4) 0.5121(4) 0.1443(2)
H66 H 0.2974 0.5340 0.1609
C73 C 0.3219(4) 0.5379(4) 0.1215(2)
C74 C 0.3349(4) 0.5063(4) 0.0966(2)
H67 H 0.3500 0.5240 0.0802
C75 C 0.3252(3) 0.4516(4) 0.09715(16)
H68 H 0.3306 0.4301 0.0803
C76 C 0.3565(6) 0.6236(4) 0.1008(3)
H69 H 0.3394 0.6115 0.0826
H70 H 0.3960 0.6100 0.1008
C77 C 0.3584(6) 0.6894(4) 0.1008(3)
H71 H 0.3789 0.7050 0.0842
H72 H 0.3205 0.7067 0.1022
C78 C 0.3923(6) 0.6938(5) 0.1286(3)
H73 H 0.3719 0.6760 0.1447
H74 H 0.4300 0.6762 0.1267
C79 C 0.3970(7) 0.7580(6) 0.1326(3)
H75 H 0.3602 0.7770 0.1296
H76 H 0.4255 0.7746 0.1197
C80 C 0.4160(8) 0.7610(7) 0.1644(3)
H77 H 0.3876 0.7417 0.1764
H78 H 0.4522 0.7406 0.1666
C81 C 0.4235(15) 0.8220(9) 0.1751(6)
H79 H 0.4355 0.8214 0.1951
H80 H 0.4523 0.8411 0.1636
H81 H 0.3876 0.8422 0.1735
C82 C 0.0455(4) -0.0161(4) 0.10114(13)
C83 C 0.0554(3) -0.0750(3) 0.10100(15)
H82 H 0.0707 -0.0930 0.0847
C84 C 0.0421(3) -0.1061(3) 0.12538(14)
C85 C 0.0224(3) -0.0795(3) 0.14998(14)
H83 H 0.0156 -0.0999 0.1671
C86 C 0.0134(3) -0.0219(3) 0.14818(12)
C87 C 0.0604(4) 0.0193(4) 0.07711(14)
C88 C 0.0560(4) 0.0769(4) 0.07822(15)
H84 H 0.0431 0.0945 0.0952
C89 C 0.0708(4) 0.1113(4) 0.05383(15)
H85 H 0.0621 0.1504 0.0538
C90 C 0.0980(4) 0.0317(4) 0.03098(15)
H86 H 0.1096 0.0147 0.0136
C91 C 0.0849(5) -0.0013(4) 0.05270(17)
H87 H 0.0926 -0.0405 0.0514
C92 C -0.0146(3) 0.0077(3) 0.17168(13)
C93 C -0.0337(3) -0.0179(3) 0.19663(13)
H88 H -0.0286 -0.0572 0.1997
C94 C -0.0600(3) 0.0150(3) 0.21670(14)
H89 H -0.0771 -0.0042 0.2322
C95 C -0.0437(3) 0.0953(4) 0.19480(15)
H90 H -0.0464 0.1353 0.1944
C96 C -0.0191(4) 0.0697(3) 0.17231(16)
H91 H -0.0047 0.0916 0.1570
C97 C 0.0529(3) -0.1692(3) 0.12490(16)
C98 C 0.0443(4) -0.2004(4) 0.10197(18)
H92 H 0.0313 -0.1817 0.0853
C99 C 0.0524(4) -0.2571(4) 0.1004(2)
H93 H 0.0450 -0.2770 0.0832
C100 C 0.0725(4) -0.2864(4) 0.1252(2)
C101 C 0.0807(4) -0.2545(4) 0.1479(2)
H94 H 0.0936 -0.2729 0.1646
C102 C 0.0721(4) -0.1944(4) 0.14966(18)
H95 H 0.0791 -0.1736 0.1666
C103 C 0.1049(6) -0.3726(4) 0.1439(3)
H96 H 0.0789 -0.3749 0.1603
H97 H 0.1406 -0.3549 0.1502
C104 C 0.1163(6) -0.4331(4) 0.1311(2)
H98 H 0.0815 -0.4463 0.1215
H99 H 0.1461 -0.4300 0.1165
C105 C 0.1341(10) -0.4769(7) 0.1527(4)
H100 H 0.1052 -0.4818 0.1677
H101 H 0.1706 -0.4671 0.1616
C106 C 0.1390(9) -0.5301(8) 0.1337(4)
H102 H 0.1704 -0.5269 0.1200
H103 H 0.1035 -0.5379 0.1234
C107 C 0.1509(13) -0.5751(11) 0.1568(5)
H104 H 0.1910 -0.5865 0.1573
H105 H 0.1387 -0.5629 0.1760
C108 C 0.1130(13) -0.6210(9) 0.1445(6)
H106 H 0.1148 -0.6545 0.1567
H107 H 0.0741 -0.6073 0.1437
H108 H 0.1258 -0.6306 0.1253
C109 C 0.4779(6) 0.2204(5) 0.2660(3)
C110 C 0.2865(7) 0.0324(6) 0.2638(4)
C111 C 0.4788(7) 0.2907(8) 0.5137(4)
S4 S 0.5240(4) 0.2511(4) 0.53192(19)
C112 C 0.2254(6) 0.0438(6) 0.0098(3)
Co1F Co 0.12479(4) 0.38123(4) -0.25396(2)
S1F S 0.25594(19) 0.5211(2) -0.28412(10)
S2F S -0.0044(4) 0.2337(4) -0.27748(18)
S3F S -0.0073(4) 0.2581(4) -0.02463(19)
O1F O 0.3301(3) -0.0790(3) -0.36439(19)
O2F O 0.0783(4) 0.8461(3) -0.3894(2)
O3F O 0.5978(3) 0.3306(4) -0.12083(16)
O4F O -0.3415(3) 0.0807(3) -0.12201(18)
N1F N 0.2750(3) 0.2671(3) -0.37276(11)
N2F N 0.3445(3) 0.3376(3) -0.46682(12)
N3F N 0.1750(3) 0.3364(3) -0.28513(11)
N4F N 0.0200(3) 0.4926(3) -0.38415(11)
N5F N -0.0706(3) 0.4267(3) -0.47335(11)
N6F N 0.0838(3) 0.4269(3) -0.28853(11)
N7F N 0.2442(3) 0.2751(3) -0.12467(11)
N8F N 0.1830(3) 0.1871(3) -0.03256(11)
N9F N 0.1704(3) 0.3408(3) -0.22077(11)
N10F N 0.0105(2) 0.0246(2) -0.12542(10)
N11F N 0.0895(3) 0.0954(3) -0.03251(12)
N12F N 0.0696(3) -0.0639(3) -0.21675(12)
N13F N 0.1865(3) 0.4453(3) -0.25364(15)
N14F N 0.0645(3) 0.3171(3) -0.25546(13)
N15F N 0.0744(8) 0.1962(8) 0.0020(5)
C1F C 0.2931(3) 0.2395(3) -0.39487(14)
C2F C 0.3063(4) 0.1841(4) -0.39363(14)
H1F H 0.3239 0.1663 -0.4094
C3F C 0.2943(3) 0.1537(3) -0.36977(15)
C4F C 0.2711(3) 0.1806(3) -0.34530(15)
H2F H 0.2641 0.1611 -0.3280
C5F C 0.2591(3) 0.2388(3) -0.34896(14)
C6F C 0.3075(4) 0.2754(4) -0.42011(14)
C7F C 0.3056(3) 0.3340(4) -0.42059(16)
H3F H 0.2938 0.3537 -0.4040
C8F C 0.3202(4) 0.3636(4) -0.44416(14)
H4F H 0.3133 0.4030 -0.4448
C9F C 0.3448(5) 0.2829(4) -0.46732(17)
H5F H 0.3595 0.2651 -0.4839
C10F C 0.3274(5) 0.2520(4) -0.44790(17)
H6F H 0.3268 0.2123 -0.4508
C11F C 0.2317(4) 0.2731(3) -0.32641(14)
C12F C 0.2078(4) 0.2455(4) -0.30322(15)
H7F H 0.2115 0.2059 -0.3005
C13F C 0.1774(3) 0.2803(3) -0.28380(15)
H8F H 0.1574 0.2622 -0.2688
C14F C 0.2005(4) 0.3600(3) -0.30617(14)
H9F H 0.2004 0.4001 -0.3065
C15F C 0.2276(4) 0.3337(3) -0.32814(15)
H10F H 0.2430 0.3543 -0.3437
C16F C 0.3047(4) 0.0899(4) -0.36760(18)
C17F C 0.2949(4) 0.0584(3) -0.39101(18)
H11F H 0.2809 0.0743 -0.4082
C18F C 0.3066(4) 0.0006(4) -0.3885(2)
H12F H 0.3007 -0.0225 -0.4047
C19F C 0.3250(4) -0.0229(4) -0.3656(2)
C20F C 0.3320(4) 0.0088(4) -0.3391(2)
H13F H 0.3418 -0.0084 -0.3215
C21F C 0.3227(3) 0.0673(4) -0.34208(19)
H14F H 0.3289 0.0914 -0.3263
C22F C 0.3527(6) -0.1073(5) -0.3380(3)
H15F H 0.3282 -0.0988 -0.3215
H16F H 0.3912 -0.0935 -0.3338
C23F C 0.3536(6) -0.1706(5) -0.3437(3)
H17F H 0.3612 -0.1911 -0.3257
H18F H 0.3165 -0.1829 -0.3510
C24F C 0.3983(6) -0.1839(5) -0.3649(3)
H19F H 0.4364 -0.1738 -0.3579
H20F H 0.3914 -0.1651 -0.3834
C25F C 0.3899(8) -0.2493(5) -0.3668(3)
H21F H 0.4080 -0.2683 -0.3504
H22F H 0.3493 -0.2589 -0.3669
C26F C 0.4182(7) -0.2676(7) -0.3950(3)
H23F H 0.4073 -0.2375 -0.4085
H24F H 0.4589 -0.2615 -0.3914
C27F C 0.4173(7) -0.3209(6) -0.4134(3)
H25F H 0.4416 -0.3155 -0.4300
H26F H 0.4312 -0.3530 -0.4022
H27F H 0.3787 -0.3285 -0.4196
C28F C 0.0091(4) 0.5258(4) -0.40945(14)
C29F C 0.0192(4) 0.5792(4) -0.41219(14)
H28F H 0.0127 0.5977 -0.4298
C30F C 0.0410(3) 0.6112(4) -0.38722(15)
C31F C 0.0506(3) 0.5817(4) -0.36348(14)
H29F H 0.0645 0.6006 -0.3471
C32F C 0.0413(3) 0.5277(4) -0.36227(13)
C33F C -0.0161(3) 0.4876(3) -0.43230(14)
C34F C -0.0193(3) 0.4310(3) -0.43042(15)
H30F H -0.0022 0.4125 -0.4147
C35F C -0.0465(4) 0.3993(4) -0.45041(15)
H31F H -0.0488 0.3595 -0.4486
C36F C -0.0699(4) 0.4797(3) -0.47586(14)
H32F H -0.0868 0.4962 -0.4922
C37F C -0.0455(4) 0.5146(3) -0.45584(14)
H33F H -0.0479 0.5545 -0.4574
C38F C 0.0541(3) 0.4923(4) -0.33582(13)
C39F C 0.0671(4) 0.5159(4) -0.31136(14)
H34F H 0.0653 0.5557 -0.3093
C40F C 0.0834(4) 0.4825(4) -0.28863(14)
H35F H 0.0953 0.5012 -0.2718
C41F C 0.0655(4) 0.3991(4) -0.31189(14)
H36F H 0.0616 0.3592 -0.3120
C42F C 0.0526(3) 0.4318(3) -0.33600(14)
H37F H 0.0425 0.4131 -0.3531
C43F C 0.0515(4) 0.6732(4) -0.38869(18)
C44F C 0.0737(4) 0.6990(4) -0.4132(2)
H38F H 0.0815 0.6773 -0.4298
C45F C 0.0839(5) 0.7560(4) -0.4130(2)
H39F H 0.1006 0.7737 -0.4291
C46F C 0.0698(6) 0.7879(5) -0.3891(3)
C47F C 0.0499(5) 0.7632(4) -0.3661(2)
H40F H 0.0410 0.7865 -0.3503
C48F C 0.0412(4) 0.7065(4) -0.3633(2)
H41F H 0.0291 0.6900 -0.3459
C49F C 0.1098(6) 0.8744(4) -0.4167(3)
H42F H 0.1483 0.8588 -0.4189
H43F H 0.0882 0.8672 -0.4343
C50F C 0.1123(7) 0.9396(4) -0.4101(3)
H44F H 0.1328 0.9602 -0.4252
H45F H 0.0740 0.9556 -0.4081
C51F C 0.1451(7) 0.9419(5) -0.3813(3)
H46F H 0.1263 0.9184 -0.3667
H47F H 0.1843 0.9285 -0.3838
C52F C 0.1441(7) 1.0045(5) -0.3727(3)
H48F H 0.1663 1.0264 -0.3867
H49F H 0.1047 1.0183 -0.3735
C53F C 0.1674(6) 1.0152(6) -0.3434(3)
H50F H 0.2069 1.0020 -0.3429
H51F H 0.1458 0.9921 -0.3296
C54F C 0.1660(6) 1.0762(6) -0.3335(4)
H52F H 0.1819 1.0788 -0.3143
H53F H 0.1882 1.0995 -0.3466
H54F H 0.1269 1.0896 -0.3332
C55F C 0.2722(3) 0.2951(3) -0.14751(13)
C56F C 0.3312(3) 0.3029(3) -0.14686(13)
H55F H 0.3496 0.3142 -0.1639
C57F C 0.3630(3) 0.2950(3) -0.12333(14)
C58F C 0.3307(3) 0.2766(4) -0.09882(14)
H56F H 0.3494 0.2725 -0.0810
C59F C 0.2740(3) 0.2650(3) -0.10048(13)
C60F C 0.2377(4) 0.3073(3) -0.17365(14)
C61F C 0.1800(4) 0.3024(3) -0.17400(15)
H57F H 0.1621 0.2866 -0.1578
C62F C 0.1469(3) 0.3187(3) -0.19608(13)
H58F H 0.1071 0.3149 -0.1947
C63F C 0.2263(4) 0.3409(4) -0.22087(15)
H59F H 0.2448 0.3514 -0.2380
C64F C 0.2594(4) 0.3269(4) -0.19805(15)
H60F H 0.2991 0.3312 -0.1996
C65F C 0.2423(3) 0.2393(3) -0.07653(13)
C66F C 0.2695(3) 0.2205(3) -0.05158(15)
H61F H 0.3090 0.2253 -0.0491
C67F C 0.2378(3) 0.1955(3) -0.03113(14)
H62F H 0.2566 0.1831 -0.0144
C68F C 0.1567(3) 0.2126(4) -0.05440(16)
H63F H 0.1166 0.2137 -0.0542
C69F C 0.1826(3) 0.2362(4) -0.07591(15)
H64F H 0.1613 0.2514 -0.0912
C70F C 0.4222(3) 0.3059(3) -0.12370(17)
C71F C 0.4532(4) 0.2959(5) -0.14581(19)
H65F H 0.4364 0.2827 -0.1629
C72F C 0.5121(4) 0.3046(4) -0.1443(2)
H66F H 0.5340 0.2974 -0.1609
C73F C 0.5379(4) 0.3219(4) -0.1215(2)
C74F C 0.5063(4) 0.3349(4) -0.0966(2)
H67F H 0.5240 0.3500 -0.0802
C75F C 0.4516(4) 0.3252(3) -0.09715(16)
H68F H 0.4301 0.3306 -0.0803
C76F C 0.6236(4) 0.3565(6) -0.1008(3)
H69F H 0.6115 0.3394 -0.0826
H70F H 0.6100 0.3960 -0.1008
C77F C 0.6894(4) 0.3584(6) -0.1008(3)
H71F H 0.7050 0.3789 -0.0842
H72F H 0.7067 0.3205 -0.1022
C78F C 0.6938(5) 0.3923(6) -0.1286(3)
H73F H 0.6760 0.3719 -0.1447
H74F H 0.6762 0.4300 -0.1267
C79F C 0.7580(6) 0.3970(7) -0.1326(3)
H75F H 0.7770 0.3602 -0.1296
H76F H 0.7746 0.4255 -0.1197
C80F C 0.7610(7) 0.4160(8) -0.1644(3)
H77F H 0.7417 0.3876 -0.1764
H78F H 0.7406 0.4522 -0.1666
C81F C 0.8220(9) 0.4235(15) -0.1751(6)
H79F H 0.8214 0.4355 -0.1951
H80F H 0.8411 0.4523 -0.1636
H81F H 0.8422 0.3876 -0.1735
C82F C -0.0161(4) 0.0455(4) -0.10114(13)
C83F C -0.0750(3) 0.0554(3) -0.10100(15)
H82F H -0.0930 0.0707 -0.0847
C84F C -0.1061(3) 0.0421(3) -0.12538(14)
C85F C -0.0795(3) 0.0224(3) -0.14998(14)
H83F H -0.0999 0.0156 -0.1671
C86F C -0.0219(3) 0.0134(3) -0.14818(12)
C87F C 0.0193(4) 0.0604(4) -0.07711(14)
C88F C 0.0769(4) 0.0560(4) -0.07822(15)
H84F H 0.0945 0.0431 -0.0952
C89F C 0.1113(4) 0.0708(4) -0.05383(15)
H85F H 0.1504 0.0621 -0.0538
C90F C 0.0317(4) 0.0980(4) -0.03098(15)
H86F H 0.0147 0.1096 -0.0136
C91F C -0.0013(4) 0.0849(5) -0.05270(17)
H87F H -0.0405 0.0926 -0.0514
C92F C 0.0077(3) -0.0146(3) -0.17168(13)
C93F C -0.0179(3) -0.0337(3) -0.19663(13)
H88F H -0.0572 -0.0286 -0.1997
C94F C 0.0150(3) -0.0600(3) -0.21670(14)
H89F H -0.0042 -0.0771 -0.2322
C95F C 0.0953(4) -0.0437(3) -0.19480(15)
H90F H 0.1353 -0.0464 -0.1944
C96F C 0.0697(3) -0.0191(4) -0.17231(16)
H91F H 0.0916 -0.0047 -0.1570
C97F C -0.1692(3) 0.0529(3) -0.12490(16)
C98F C -0.2004(4) 0.0443(4) -0.10197(18)
H92F H -0.1817 0.0313 -0.0853
C99F C -0.2571(4) 0.0524(4) -0.1004(2)
H93F H -0.2770 0.0450 -0.0832
C100F C -0.2864(4) 0.0725(4) -0.1252(2)
C101F C -0.2545(4) 0.0807(4) -0.1479(2)
H94F H -0.2729 0.0936 -0.1646
C102F C -0.1944(4) 0.0721(4) -0.14966(18)
H95F H -0.1736 0.0791 -0.1666
C103F C -0.3726(4) 0.1049(6) -0.1439(3)
H96F H -0.3749 0.0789 -0.1603
H97F H -0.3549 0.1406 -0.1502
C104F C -0.4331(4) 0.1163(6) -0.1311(2)
H98F H -0.4463 0.0815 -0.1215
H99F H -0.4300 0.1461 -0.1165
C105F C -0.4769(7) 0.1341(10) -0.1527(4)
H100F H -0.4818 0.1052 -0.1677
H101F H -0.4671 0.1706 -0.1616
C106F C -0.5301(8) 0.1390(9) -0.1337(4)
H102F H -0.5269 0.1704 -0.1200
H103F H -0.5379 0.1035 -0.1234
C107F C -0.5751(11) 0.1509(13) -0.1568(5)
H104F H -0.5865 0.1910 -0.1573
H105F H -0.5629 0.1387 -0.1760
C108F C -0.6210(9) 0.1130(13) -0.1445(6)
H106F H -0.6545 0.1148 -0.1567
H107F H -0.6073 0.0741 -0.1437
H108F H -0.6306 0.1258 -0.1253
C109F C 0.2204(5) 0.4779(6) -0.2660(3)
C110F C 0.0324(6) 0.2865(7) -0.2638(4)
C112F C 0.0438(6) 0.2254(6) -0.0098(3)
N16F N 0.3252(14) 0.4528(13) 0.5004(7)
C111F C 0.2907(8) 0.4788(7) 0.4863(4)
S4F S 0.2511(4) 0.5240(4) 0.46808(19)
Co1B Co 0.37521(4) -0.11877(4) 0.50396(2)
Co1E Co -0.11877(4) 0.37521(4) -0.50396(2)
Co3_2 Co 0.38767(5) 0.38767(5) -0.5000
Co3B Co 0.11233(5) -0.11233(5) -0.2500
Co3C Co -0.11233(5) 0.11233(5) 0.2500
N2F_2 N 0.3445(3) 0.3376(3) 0.53318(12)
N5C N 0.4294(3) 0.0733(3) 0.22335(11)
N5D N 0.0733(3) 0.4294(3) -0.22335(11)
N12B N 0.4304(3) 0.4361(3) 0.46675(12)
N12E N 0.4361(3) 0.4304(3) 0.53325(12)
loop_
_geom_bond_atom_site_label_1
_geom_bond_atom_site_label_2
_geom_bond_site_symmetry_1
_geom_bond_site_symmetry_2
Co1 N3 1_555 1_555
Co2 N8 1_555 1_555
Co3 N2 1_555 1_555
S1 C109 1_555 1_555
S2 C110 1_555 1_555
S3 C112 1_555 1_555
O1 C19 1_555 1_555
O2 C46 1_555 1_555
O3 C73 1_555 1_555
O4 C100 1_555 1_555
N1 C1 1_555 1_555
N2 C8 1_555 1_555
N3 C13 1_555 1_555
N4 C28 1_555 1_555
N5 C35 1_555 1_555
N6 Co1 1_555 1_555
N7 C55 1_555 1_555
N8 C67 1_555 1_555
N9 Co1 1_555 1_555
N10 C82 1_555 1_555
N11 Co2 1_555 1_555
N12 C94 1_555 1_555
N13 Co1 1_555 1_555
N14 Co1 1_555 1_555
N15 Co2 1_555 1_555
N16 Co3 1_555 1_555
C1 C2 1_555 1_555
C2 H1 1_555 1_555
C3 C2 1_555 1_555
C4 C3 1_555 1_555
H2 C4 1_555 1_555
C5 N1 1_555 1_555
C6 C1 1_555 1_555
C7 C6 1_555 1_555
H3 C7 1_555 1_555
C8 C7 1_555 1_555
H4 C8 1_555 1_555
C9 N2 1_555 1_555
H5 C9 1_555 1_555
C10 C6 1_555 1_555
H6 C10 1_555 1_555
C11 C5 1_555 1_555
C12 C11 1_555 1_555
H7 C12 1_555 1_555
C13 C12 1_555 1_555
H8 C13 1_555 1_555
C14 N3 1_555 1_555
H9 C14 1_555 1_555
C15 C11 1_555 1_555
H10 C15 1_555 1_555
C16 C3 1_555 1_555
C17 C16 1_555 1_555
H11 C17 1_555 1_555
C18 C17 1_555 1_555
H12 C18 1_555 1_555
C19 C18 1_555 1_555
C20 C19 1_555 1_555
H13 C20 1_555 1_555
C21 C16 1_555 1_555
H14 C21 1_555 1_555
C22 O1 1_555 1_555
H15 C22 1_555 1_555
H16 C22 1_555 1_555
C23 C22 1_555 1_555
H17 C23 1_555 1_555
H18 C23 1_555 1_555
C24 C23 1_555 1_555
H19 C24 1_555 1_555
H20 C24 1_555 1_555
C25 C24 1_555 1_555
H21 C25 1_555 1_555
H22 C25 1_555 1_555
C26 C25 1_555 1_555
H23 C26 1_555 1_555
H24 C26 1_555 1_555
C27 C26 1_555 1_555
H25 C27 1_555 1_555
H26 C27 1_555 1_555
H27 C27 1_555 1_555
C28 C29 1_555 1_555
C29 H28 1_555 1_555
C30 C29 1_555 1_555
C31 C30 1_555 1_555
H29 C31 1_555 1_555
C32 N4 1_555 1_555
C33 C28 1_555 1_555
C34 C33 1_555 1_555
H30 C34 1_555 1_555
C35 C34 1_555 1_555
H31 C35 1_555 1_555
C36 N5 1_555 1_555
H32 C36 1_555 1_555
C37 C33 1_555 1_555
H33 C37 1_555 1_555
C38 C32 1_555 1_555
C39 C38 1_555 1_555
H34 C39 1_555 1_555
C40 N6 1_555 1_555
H35 C40 1_555 1_555
C41 N6 1_555 1_555
H36 C41 1_555 1_555
C42 C38 1_555 1_555
H37 C42 1_555 1_555
C43 C30 1_555 1_555
C44 C43 1_555 1_555
H38 C44 1_555 1_555
C45 C44 1_555 1_555
H39 C45 1_555 1_555
C46 C45 1_555 1_555
C47 C46 1_555 1_555
H40 C47 1_555 1_555
C48 C43 1_555 1_555
H41 C48 1_555 1_555
C49 O2 1_555 1_555
H42 C49 1_555 1_555
H43 C49 1_555 1_555
C50 C49 1_555 1_555
H44 C50 1_555 1_555
H45 C50 1_555 1_555
C51 C50 1_555 1_555
H46 C51 1_555 1_555
H47 C51 1_555 1_555
C52 C51 1_555 1_555
H48 C52 1_555 1_555
H49 C52 1_555 1_555
C53 C52 1_555 1_555
H50 C53 1_555 1_555
H51 C53 1_555 1_555
C54 C53 1_555 1_555
H52 C54 1_555 1_555
H53 C54 1_555 1_555
H54 C54 1_555 1_555
C55 C56 1_555 1_555
C56 H55 1_555 1_555
C57 C56 1_555 1_555
C58 C57 1_555 1_555
H56 C58 1_555 1_555
C59 N7 1_555 1_555
C60 C55 1_555 1_555
C61 C60 1_555 1_555
H57 C61 1_555 1_555
C62 N9 1_555 1_555
H58 C62 1_555 1_555
C63 N9 1_555 1_555
H59 C63 1_555 1_555
C64 C60 1_555 1_555
H60 C64 1_555 1_555
C65 C59 1_555 1_555
C66 C65 1_555 1_555
H61 C66 1_555 1_555
C67 C66 1_555 1_555
H62 C67 1_555 1_555
C68 N8 1_555 1_555
H63 C68 1_555 1_555
C69 C65 1_555 1_555
H64 C69 1_555 1_555
C70 C57 1_555 1_555
C71 C70 1_555 1_555
H65 C71 1_555 1_555
C72 C71 1_555 1_555
H66 C72 1_555 1_555
C73 C72 1_555 1_555
C74 C73 1_555 1_555
H67 C74 1_555 1_555
C75 C70 1_555 1_555
H68 C75 1_555 1_555
C76 O3 1_555 1_555
H69 C76 1_555 1_555
H70 C76 1_555 1_555
C77 C76 1_555 1_555
H71 C77 1_555 1_555
H72 C77 1_555 1_555
C78 C77 1_555 1_555
H73 C78 1_555 1_555
H74 C78 1_555 1_555
C79 C78 1_555 1_555
H75 C79 1_555 1_555
H76 C79 1_555 1_555
C80 C79 1_555 1_555
H77 C80 1_555 1_555
H78 C80 1_555 1_555
C81 C80 1_555 1_555
H79 C81 1_555 1_555
H80 C81 1_555 1_555
H81 C81 1_555 1_555
C82 C83 1_555 1_555
C83 H82 1_555 1_555
C84 C83 1_555 1_555
C85 C84 1_555 1_555
H83 C85 1_555 1_555
C86 N10 1_555 1_555
C87 C82 1_555 1_555
C88 C87 1_555 1_555
H84 C88 1_555 1_555
C89 N11 1_555 1_555
H85 C89 1_555 1_555
C90 N11 1_555 1_555
H86 C90 1_555 1_555
C91 C87 1_555 1_555
H87 C91 1_555 1_555
C92 C86 1_555 1_555
C93 C92 1_555 1_555
H88 C93 1_555 1_555
C94 C93 1_555 1_555
H89 C94 1_555 1_555
C95 N12 1_555 1_555
H90 C95 1_555 1_555
C96 C92 1_555 1_555
H91 C96 1_555 1_555
C97 C84 1_555 1_555
C98 C97 1_555 1_555
H92 C98 1_555 1_555
C99 C98 1_555 1_555
H93 C99 1_555 1_555
C100 C99 1_555 1_555
C101 C100 1_555 1_555
H94 C101 1_555 1_555
C102 C97 1_555 1_555
H95 C102 1_555 1_555
C103 O4 1_555 1_555
H96 C103 1_555 1_555
H97 C103 1_555 1_555
C104 C103 1_555 1_555
H98 C104 1_555 1_555
H99 C104 1_555 1_555
C105 C104 1_555 1_555
H100 C105 1_555 1_555
H101 C105 1_555 1_555
C106 C105 1_555 1_555
H102 C106 1_555 1_555
H103 C106 1_555 1_555
C107 C106 1_555 1_555
H104 C107 1_555 1_555
H105 C107 1_555 1_555
C108 C107 1_555 1_555
H106 C108 1_555 1_555
H107 C108 1_555 1_555
H108 C108 1_555 1_555
C109 N13 1_555 1_555
C110 N14 1_555 1_555
C111 N16 1_555 1_555
S4 C111 1_555 1_555
C112 N15 1_555 1_555
Co1F N3F 1_555 1_555
S1F C109F 1_555 1_555
S2F C110F 1_555 1_555
S3F C112F 1_555 1_555
O1F C19F 1_555 1_555
O2F C46F 1_555 1_555
O3F C73F 1_555 1_555
O4F C100F 1_555 1_555
N1F C1F 1_555 1_555
N2F C8F 1_555 1_555
N3F C13F 1_555 1_555
N4F C28F 1_555 1_555
N5F C35F 1_555 1_555
N6F Co1F 1_555 1_555
N7F C55F 1_555 1_555
N8F Co2 1_555 1_555
N9F Co1F 1_555 1_555
N10F C82F 1_555 1_555
N11F Co2 1_555 1_555
N12F C94F 1_555 1_555
N13F Co1F 1_555 1_555
N14F Co1F 1_555 1_555
N15F Co2 1_555 1_555
C1F C2F 1_555 1_555
C2F H1F 1_555 1_555
C3F C2F 1_555 1_555
C4F C3F 1_555 1_555
H2F C4F 1_555 1_555
C5F N1F 1_555 1_555
C6F C1F 1_555 1_555
C7F C6F 1_555 1_555
H3F C7F 1_555 1_555
C8F C7F 1_555 1_555
H4F C8F 1_555 1_555
C9F N2F 1_555 1_555
H5F C9F 1_555 1_555
C10F C6F 1_555 1_555
H6F C10F 1_555 1_555
C11F C5F 1_555 1_555
C12F C11F 1_555 1_555
H7F C12F 1_555 1_555
C13F C12F 1_555 1_555
H8F C13F 1_555 1_555
C14F N3F 1_555 1_555
H9F C14F 1_555 1_555
C15F C11F 1_555 1_555
H10F C15F 1_555 1_555
C16F C3F 1_555 1_555
C17F C16F 1_555 1_555
H11F C17F 1_555 1_555
C18F C17F 1_555 1_555
H12F C18F 1_555 1_555
C19F C18F 1_555 1_555
C20F C19F 1_555 1_555
H13F C20F 1_555 1_555
C21F C16F 1_555 1_555
H14F C21F 1_555 1_555
C22F O1F 1_555 1_555
H15F C22F 1_555 1_555
H16F C22F 1_555 1_555
C23F C22F 1_555 1_555
H17F C23F 1_555 1_555
H18F C23F 1_555 1_555
C24F C23F 1_555 1_555
H19F C24F 1_555 1_555
H20F C24F 1_555 1_555
C25F C24F 1_555 1_555
H21F C25F 1_555 1_555
H22F C25F 1_555 1_555
C26F C25F 1_555 1_555
H23F C26F 1_555 1_555
H24F C26F 1_555 1_555
C27F C26F 1_555 1_555
H25F C27F 1_555 1_555
H26F C27F 1_555 1_555
H27F C27F 1_555 1_555
C28F C29F 1_555 1_555
C29F H28F 1_555 1_555
C30F C29F 1_555 1_555
C31F C30F 1_555 1_555
H29F C31F 1_555 1_555
C32F N4F 1_555 1_555
C33F C28F 1_555 1_555
C34F C33F 1_555 1_555
H30F C34F 1_555 1_555
C35F C34F 1_555 1_555
H31F C35F 1_555 1_555
C36F N5F 1_555 1_555
H32F C36F 1_555 1_555
C37F C33F 1_555 1_555
H33F C37F 1_555 1_555
C38F C32F 1_555 1_555
C39F C38F 1_555 1_555
H34F C39F 1_555 1_555
C40F N6F 1_555 1_555
H35F C40F 1_555 1_555
C41F N6F 1_555 1_555
H36F C41F 1_555 1_555
C42F C38F 1_555 1_555
H37F C42F 1_555 1_555
C43F C30F 1_555 1_555
C44F C43F 1_555 1_555
H38F C44F 1_555 1_555
C45F C44F 1_555 1_555
H39F C45F 1_555 1_555
C46F C45F 1_555 1_555
C47F C46F 1_555 1_555
H40F C47F 1_555 1_555
C48F C43F 1_555 1_555
H41F C48F 1_555 1_555
C49F O2F 1_555 1_555
H42F C49F 1_555 1_555
H43F C49F 1_555 1_555
C50F C49F 1_555 1_555
H44F C50F 1_555 1_555
H45F C50F 1_555 1_555
C51F C50F 1_555 1_555
H46F C51F 1_555 1_555
H47F C51F 1_555 1_555
C52F C51F 1_555 1_555
H48F C52F 1_555 1_555
H49F C52F 1_555 1_555
C53F C52F 1_555 1_555
H50F C53F 1_555 1_555
H51F C53F 1_555 1_555
C54F C53F 1_555 1_555
H52F C54F 1_555 1_555
H53F C54F 1_555 1_555
H54F C54F 1_555 1_555
C55F C56F 1_555 1_555
C56F H55F 1_555 1_555
C57F C56F 1_555 1_555
C58F C57F 1_555 1_555
H56F C58F 1_555 1_555
C59F N7F 1_555 1_555
C60F C55F 1_555 1_555
C61F C60F 1_555 1_555
H57F C61F 1_555 1_555
C62F N9F 1_555 1_555
H58F C62F 1_555 1_555
C63F N9F 1_555 1_555
H59F C63F 1_555 1_555
C64F C60F 1_555 1_555
H60F C64F 1_555 1_555
C65F C59F 1_555 1_555
C66F C65F 1_555 1_555
H61F C66F 1_555 1_555
C67F N8F 1_555 1_555
H62F C67F 1_555 1_555
C68F N8F 1_555 1_555
H63F C68F 1_555 1_555
C69F C65F 1_555 1_555
H64F C69F 1_555 1_555
C70F C57F 1_555 1_555
C71F C70F 1_555 1_555
H65F C71F 1_555 1_555
C72F C71F 1_555 1_555
H66F C72F 1_555 1_555
C73F C72F 1_555 1_555
C74F C73F 1_555 1_555
H67F C74F 1_555 1_555
C75F C70F 1_555 1_555
H68F C75F 1_555 1_555
C76F O3F 1_555 1_555
H69F C76F 1_555 1_555
H70F C76F 1_555 1_555
C77F C76F 1_555 1_555
H71F C77F 1_555 1_555
H72F C77F 1_555 1_555
C78F C77F 1_555 1_555
H73F C78F 1_555 1_555
H74F C78F 1_555 1_555
C79F C78F 1_555 1_555
H75F C79F 1_555 1_555
H76F C79F 1_555 1_555
C80F C79F 1_555 1_555
H77F C80F 1_555 1_555
H78F C80F 1_555 1_555
C81F C80F 1_555 1_555
H79F C81F 1_555 1_555
H80F C81F 1_555 1_555
H81F C81F 1_555 1_555
C82F C83F 1_555 1_555
C83F H82F 1_555 1_555
C84F C83F 1_555 1_555
C85F C84F 1_555 1_555
H83F C85F 1_555 1_555
C86F N10F 1_555 1_555
C87F C82F 1_555 1_555
C88F C87F 1_555 1_555
H84F C88F 1_555 1_555
C89F N11F 1_555 1_555
H85F C89F 1_555 1_555
C90F N11F 1_555 1_555
H86F C90F 1_555 1_555
C91F C87F 1_555 1_555
H87F C91F 1_555 1_555
C92F C86F 1_555 1_555
C93F C92F 1_555 1_555
H88F C93F 1_555 1_555
C94F C93F 1_555 1_555
H89F C94F 1_555 1_555
C95F N12F 1_555 1_555
H90F C95F 1_555 1_555
C96F C92F 1_555 1_555
H91F C96F 1_555 1_555
C97F C84F 1_555 1_555
C98F C97F 1_555 1_555
H92F C98F 1_555 1_555
C99F C98F 1_555 1_555
H93F C99F 1_555 1_555
C100F C99F 1_555 1_555
C101F C100F 1_555 1_555
H94F C101F 1_555 1_555
C102F C97F 1_555 1_555
H95F C102F 1_555 1_555
C103F O4F 1_555 1_555
H96F C103F 1_555 1_555
H97F C103F 1_555 1_555
C104F C103F 1_555 1_555
H98F C104F 1_555 1_555
H99F C104F 1_555 1_555
C105F C104F 1_555 1_555
H100F C105F 1_555 1_555
H101F C105F 1_555 1_555
C106F C105F 1_555 1_555
H102F C106F 1_555 1_555
H103F C106F 1_555 1_555
C107F C106F 1_555 1_555
H104F C107F 1_555 1_555
H105F C107F 1_555 1_555
C108F C107F 1_555 1_555
H106F C108F 1_555 1_555
H107F C108F 1_555 1_555
H108F C108F 1_555 1_555
C109F N13F 1_555 1_555
C110F N14F 1_555 1_555
C112F N15F 1_555 1_555
N16F Co3 1_555 1_555
C111F N16F 1_555 1_555
S4F C111F 1_555 1_555
Co1B N5 1_555 1_555
Co1E N5F 1_555 1_555
Co3_2 N2F 1_555 1_555
Co3B N12F 1_555 1_555
Co3C N12 1_555 1_555
N2F_2 Co3 1_555 1_555
N5C Co1 1_555 1_555
N5D Co1F 1_555 1_555
N12B Co3 1_555 1_555
N12E Co3 1_555 1_555
C4 C5 1_555 1_555
C9 C10 1_555 1_555
C14 C15 1_555 1_555
C20 C21 1_555 1_555
C31 C32 1_555 1_555
C36 C37 1_555 1_555
C39 C40 1_555 1_555
C41 C42 1_555 1_555
C47 C48 1_555 1_555
C58 C59 1_555 1_555
C61 C62 1_555 1_555
C63 C64 1_555 1_555
C68 C69 1_555 1_555
C74 C75 1_555 1_555
C85 C86 1_555 1_555
C88 C89 1_555 1_555
C90 C91 1_555 1_555
C95 C96 1_555 1_555
C101 C102 1_555 1_555
C4F C5F 1_555 1_555
C9F C10F 1_555 1_555
C14F C15F 1_555 1_555
C20F C21F 1_555 1_555
C31F C32F 1_555 1_555
C36F C37F 1_555 1_555
C39F C40F 1_555 1_555
C41F C42F 1_555 1_555
C47F C48F 1_555 1_555
C58F C59F 1_555 1_555
C61F C62F 1_555 1_555
C63F C64F 1_555 1_555
C66F C67F 1_555 1_555
C68F C69F 1_555 1_555
C74F C75F 1_555 1_555
C85F C86F 1_555 1_555
C88F C89F 1_555 1_555
C90F C91F 1_555 1_555
C95F C96F 1_555 1_555
C101F C102F 1_555 1_555

#END
