
#######################################################################
#
#                 Cambridge Crystallographic Data Centre
#                                CCDC 
#
#######################################################################
#
# If this CIF has been generated from an entry in the Cambridge 
# Structural Database, then it will include bibliographic, chemical, 
# crystal, experimental, refinement or atomic coordinate data resulting 
# from the CCDC's data processing and validation procedures.
#
#######################################################################

data_EMEJOX
_chemical_formula_moiety         '(C224 H216 Co4 N32 O8 S8)n'
_symmetry_cell_setting           tetragonal
_symmetry_space_group_name_H-M   'P 43 21 2'
_symmetry_Int_Tables_number      96
_space_group_name_Hall           'P 4nw 2abw'
loop_
_symmetry_equiv_pos_site_id
_symmetry_equiv_pos_as_xyz
1 x,y,z
2 -x,-y,1/2+z
3 1/2-y,1/2+x,3/4+z
4 1/2+y,1/2-x,1/4+z
5 1/2-x,1/2+y,3/4-z
6 1/2+x,1/2-y,1/4-z
7 y,x,-z
8 -y,-x,1/2-z
_cell_length_a                   23.68444(16)
_cell_length_b                   23.68444(16)
_cell_length_c                   46.9716(4)
_cell_angle_alpha                90
_cell_angle_beta                 90
_cell_angle_gamma                90
_cell_volume                     26348.8
loop_
_atom_site_label
_atom_site_type_symbol
_atom_site_fract_x
_atom_site_fract_y
_atom_site_fract_z
Co1 Co 0.38139(4) 0.12490(3) 0.74611(2)
Co2 Co 0.38784(4) 0.38784(4) 0.5000
Co3 Co 0.36137(4) 0.63863(4) 0.7500
S1 S 0.5251(2) 0.25600(19) 0.71667(10)
S2 S 0.2344(4) -0.0084(4) 0.72206(18)
S3 S 0.2463(5) 0.5205(7) 0.5276(3)
S4 S 0.2383(4) 0.4920(4) 0.77163(19)
O1 O 0.5773(4) -0.3456(3) 0.8603(2)
O2 O 0.3279(3) 0.5972(3) 0.87944(15)
O3 O -0.0832(3) 0.3300(3) 0.63457(17)
O4 O 0.8425(3) 0.5799(3) 0.62826(15)
C1 C 0.3023(3) 0.4253(3) 0.87795(14)
N1 N 0.5193(2) 0.0044(2) 0.86544(9)
N2 N 0.4288(2) 0.0743(2) 0.77614(9)
N3 N 0.5830(2) 0.0730(2) 0.96199(10)
N4 N 0.2766(2) 0.2437(2) 0.87576(10)
N5 N 0.3417(2) 0.1705(2) 0.77966(10)
N6 N 0.1873(3) 0.1821(2) 0.96780(10)
N7 N 0.2687(2) 0.2735(3) 0.62654(10)
N8 N 0.3354(2) 0.1751(3) 0.71554(10)
N9 N 0.4905(2) 0.5252(2) 0.62510(9)
N10 N 0.4103(3) 0.5937(3) 0.71782(11)
N11 N 0.4308(2) 0.4369(2) 0.53364(10)
N12 N 0.4462(2) 0.1855(2) 0.74614(11)
N13 N 0.3175(3) 0.0646(3) 0.74491(13)
N14 N 0.2981(3) 0.5783(3) 0.74784(15)
N15 N 0.3247(3) 0.4496(3) 0.49769(12)
C2 C 0.6694(3) 0.5521(3) 0.62491(14)
C3 C 0.5102(3) -0.0249(3) 0.84060(12)
C4 C 0.5210(3) -0.0798(3) 0.83834(14)
H1 H 0.5145 -0.0988 0.8208
C5 C 0.5438(4) -0.2082(4) 0.8868(2)
H2 H 0.5326 -0.1915 0.9043
C6 C 0.5423(3) -0.1102(3) 0.86213(14)
C7 C 0.5519(3) -0.0816(3) 0.88633(13)
H3 H 0.5659 -0.1005 0.9027
C8 C 0.5412(3) -0.0243(3) 0.88705(11)
C9 C 0.4843(3) 0.0111(3) 0.81809(11)
C10 C 0.4842(3) 0.0683(3) 0.81979(12)
H4 H 0.5035 0.0868 0.8348
C11 C 0.4551(3) 0.1001(3) 0.79907(13)
H5 H 0.4535 0.1400 0.8009
C12 C 0.4314(3) 0.0205(3) 0.77466(13)
H6 H 0.4153 0.0032 0.7583
C13 C 0.4557(3) -0.0152(3) 0.79475(12)
H7 H 0.4534 -0.0551 0.7931
C14 C 0.5553(3) 0.0088(3) 0.91434(12)
C15 C 0.5700(4) -0.0163(3) 0.93847(13)
H8 H 0.5727 -0.0563 0.9394
C16 C 0.5817(3) 0.0173(3) 0.96305(13)
H9 H 0.5888 -0.0011 0.9807
C17 C 0.5678(3) 0.1000(3) 0.93789(11)
H10 H 0.5681 0.1400 0.9370
C18 C 0.5514(3) 0.0671(3) 0.91360(12)
H11 H 0.5377 0.0855 0.8970
C19 C 0.5533(3) -0.1719(3) 0.86071(16)
C20 C 0.5754(4) -0.1988(4) 0.83648(17)
H12 H 0.5857 -0.1767 0.8204
C21 C 0.5821(4) -0.2547(4) 0.8355(2)
H13 H 0.5970 -0.2717 0.8188
C22 C 0.5674(5) -0.2886(4) 0.8588(2)
C23 C 0.5516(4) -0.2646(4) 0.8850(2)
H14 H 0.5465 -0.2879 0.9013
C24 C 0.6079(5) -0.3714(4) 0.8347(3)
H15 H 0.6466 -0.3559 0.8329
H16 H 0.5870 -0.3637 0.8168
C25 C 0.6096(6) -0.4369(4) 0.8412(3)
H17 H 0.5711 -0.4506 0.8457
H18 H 0.6236 -0.4577 0.8244
C26 C 0.6491(7) -0.4467(4) 0.8667(3)
H19 H 0.6889 -0.4388 0.8616
H20 H 0.6383 -0.4229 0.8831
C27 C 0.6400(6) -0.5092(4) 0.8730(3)
H21 H 0.6589 -0.5327 0.8584
H22 H 0.5992 -0.5182 0.8730
C28 C 0.6659(7) -0.5202(6) 0.9028(3)
H23 H 0.7059 -0.5079 0.9022
H24 H 0.6463 -0.4954 0.9165
C29 C 0.6647(7) -0.5790(6) 0.9145(4)
H25 H 0.6690 -0.6061 0.8989
H26 H 0.6286 -0.5855 0.9241
H27 H 0.6957 -0.5838 0.9281
C30 C 0.2947(3) 0.2724(3) 0.85273(12)
C31 C 0.3034(3) 0.3300(3) 0.85288(12)
H28 H 0.3160 0.3482 0.8360
C32 C 0.2940(3) 0.3615(3) 0.87723(12)
C33 C 0.2751(3) 0.3310(3) 0.90107(13)
H29 H 0.2689 0.3502 0.9186
C34 C 0.2656(3) 0.2735(3) 0.89941(12)
C35 C 0.3082(3) 0.2366(3) 0.82749(11)
C36 C 0.3045(3) 0.1791(3) 0.82744(12)
H30 H 0.2912 0.1600 0.8439
C37 C 0.3195(3) 0.1496(3) 0.80453(12)
H31 H 0.3143 0.1098 0.8055
C38 C 0.3414(3) 0.2252(3) 0.77944(14)
H32 H 0.3528 0.2431 0.7623
C39 C 0.3261(4) 0.2600(3) 0.80183(12)
H33 H 0.3277 0.2998 0.7997
C40 C 0.2416(3) 0.2416(3) 0.92296(12)
C41 C 0.2199(3) 0.2691(3) 0.94782(13)
H34 H 0.2240 0.3088 0.9499
C42 C 0.1931(3) 0.2380(3) 0.96867(13)
H35 H 0.1780 0.2576 0.9846
C43 C 0.2101(3) 0.1543(3) 0.94495(12)
H36 H 0.2064 0.1145 0.9439
C44 C 0.2378(3) 0.1819(3) 0.92382(12)
H37 H 0.2551 0.1605 0.9091
C45 C 0.2930(4) 0.4559(3) 0.8536(2)
H38 H 0.2815 0.4388 0.8363
C46 C 0.3018(4) 0.5143(4) 0.8562(2)
H39 H 0.2919 0.5376 0.8405
C47 C 0.3226(4) 0.5383(3) 0.8786(2)
C48 C 0.3357(4) 0.5066(3) 0.90226(19)
H40 H 0.3520 0.5240 0.9185
C49 C 0.3250(3) 0.4493(3) 0.90207(16)
H41 H 0.3331 0.4269 0.9183
C50 C 0.3581(6) 0.6230(4) 0.9011(3)
H42 H 0.3982 0.6115 0.8996
H43 H 0.3437 0.6094 0.9196
C51 C 0.3551(6) 0.6871(4) 0.9006(3)
H44 H 0.3163 0.7001 0.8962
H45 H 0.3666 0.7031 0.9192
C52 C 0.3957(7) 0.7038(6) 0.8776(4)
H46 H 0.3877 0.6822 0.8600
H47 H 0.4349 0.6956 0.8836
C53 C 0.3882(7) 0.7687(6) 0.8720(4)
H48 H 0.3479 0.7793 0.8735
H49 H 0.4099 0.7907 0.8862
C54 C 0.4109(6) 0.7806(7) 0.8413(4)
H50 H 0.4519 0.7729 0.8400
H51 H 0.3909 0.7572 0.8270
C55 C 0.3983(9) 0.8439(7) 0.8368(6)
H52 H 0.4304 0.8618 0.8272
H53 H 0.3922 0.8620 0.8553
H54 H 0.3643 0.8481 0.8251
C56 C 0.2401(3) 0.2593(3) 0.65050(11)
C57 C 0.1814(3) 0.2716(3) 0.65433(12)
H55 H 0.1633 0.2646 0.6721
C58 C 0.1508(3) 0.2942(3) 0.63117(13)
C59 C 0.1840(3) 0.3068(3) 0.60625(13)
H56 H 0.1662 0.3234 0.5902
C60 C 0.2409(3) 0.2955(3) 0.60526(12)
C61 C 0.2722(3) 0.2316(3) 0.67387(11)
C62 C 0.3329(3) 0.2268(3) 0.67150(13)
H57 H 0.3523 0.2407 0.6553
C63 C 0.3616(3) 0.2014(3) 0.69359(12)
H58 H 0.4017 0.2023 0.6934
C64 C 0.2803(3) 0.1802(3) 0.71656(14)
H59 H 0.2619 0.1631 0.7323
C65 C 0.2463(3) 0.2078(3) 0.69720(12)
H60 H 0.2066 0.2104 0.6999
C66 C 0.27620(17) 0.3077(2) 0.57866(8)
C67 C 0.25002(14) 0.3307(3) 0.55486(9)
H61 H 0.2101 0.3344 0.5544
C68 C 0.28227(17) 0.3484(3) 0.53180(8)
H62 H 0.2644 0.3642 0.5155
N16 N 0.34069(17) 0.3431(2) 0.53255(7)
C69 C 0.36687(14) 0.3200(2) 0.55634(8)
H63 H 0.4068 0.3164 0.5569
C70 C 0.33463(17) 0.3023(2) 0.57940(7)
H64 H 0.3525 0.2866 0.5957
C71 C 0.0899(3) 0.3052(3) 0.63269(15)
C72 C 0.0687(3) 0.3225(3) 0.65828(17)
H65 H 0.0921 0.3263 0.6746
C73 C 0.0074(4) 0.3352(3) 0.6593(2)
H66 H -0.0100 0.3489 0.6762
C74 C -0.0236(4) 0.3260(3) 0.6346(2)
C75 C 0.0007(3) 0.3046(3) 0.61033(18)
H67 H -0.0225 0.2951 0.5945
C76 C 0.0561(3) 0.2970(3) 0.60862(16)
H68 H 0.0727 0.2860 0.5911
C77 C -0.1089(4) 0.3491(5) 0.6606(3)
H69 H -0.0903 0.3844 0.6669
H70 H -0.1033 0.3203 0.6756
C78 C -0.1706(5) 0.3596(6) 0.6568(3)
H71 H -0.1902 0.3228 0.6549
H72 H -0.1854 0.3784 0.6740
C79 C -0.1830(5) 0.3925(6) 0.6333(3)
H73 H -0.1661 0.3763 0.6158
H74 H -0.1689 0.4315 0.6358
C80 C -0.2508(6) 0.3916(7) 0.6316(4)
H75 H -0.2655 0.3527 0.6337
H76 H -0.2676 0.4157 0.6466
C81 C -0.2640(7) 0.4154(6) 0.6014(3)
H77 H -0.2547 0.4560 0.6032
H78 H -0.2336 0.3992 0.5895
C82 C -0.3139(7) 0.4153(8) 0.5820(4)
H79 H -0.3123 0.4485 0.5696
H80 H -0.3486 0.4164 0.5934
H81 H -0.3135 0.3810 0.5704
C83 C 0.5167(3) 0.5448(3) 0.64796(12)
C84 C 0.5746(3) 0.5559(3) 0.64882(11)
H82 H 0.5919 0.5710 0.6654
C85 C 0.6073(3) 0.5436(3) 0.62375(13)
C86 C 0.5803(3) 0.5232(3) 0.60075(11)
H83 H 0.6009 0.5158 0.5838
C87 C 0.5226(3) 0.5129(3) 0.60157(11)
C88 C 0.4799(3) 0.5596(3) 0.67280(12)
C89 C 0.4234(3) 0.5562(3) 0.67179(13)
H84 H 0.4053 0.5423 0.6551
C90 C 0.3917(3) 0.5727(3) 0.69464(13)
H85 H 0.3519 0.5681 0.6931
C91 C 0.4676(4) 0.5949(4) 0.72037(13)
H86 H 0.4839 0.6036 0.7383
C92 C 0.5030(4) 0.5837(5) 0.69712(15)
H87 H 0.5422 0.5924 0.6980
C93 C 0.4911(3) 0.4879(3) 0.57768(12)
C94 C 0.5181(3) 0.4651(3) 0.55292(12)
H88 H 0.5580 0.4671 0.5513
C95 C 0.4885(3) 0.4414(3) 0.53222(12)
H89 H 0.5076 0.4271 0.5160
C96 C 0.4049(3) 0.4541(3) 0.55418(14)
H90 H 0.3651 0.4487 0.5546
C97 C 0.4313(3) 0.4829(3) 0.57853(14)
H91 H 0.4097 0.4973 0.5939
C98 C 0.7027(3) 0.5421(3) 0.64864(15)
H92 H 0.6846 0.5275 0.6651
C99 C 0.7584(3) 0.5514(4) 0.65015(18)
H93 H 0.7792 0.5434 0.6669
C100 C 0.7859(4) 0.5747(4) 0.62429(18)
C101 C 0.7558(3) 0.5810(3) 0.60126(16)
H94 H 0.7745 0.5912 0.5841
C102 C 0.6979(3) 0.5736(3) 0.60060(14)
H95 H 0.6773 0.5828 0.5839
C103 C 0.8750(3) 0.6069(5) 0.6071(3)
H96 H 0.8554 0.6414 0.6003
H97 H 0.8805 0.5813 0.5906
C104 C 0.9333(4) 0.6227(6) 0.6204(3)
H98 H 0.9318 0.6616 0.6281
H99 H 0.9421 0.5966 0.6363
C105 C 0.9791(5) 0.6186(9) 0.5976(3)
H100 H 0.9818 0.5797 0.5901
H101 H 0.9709 0.6446 0.5817
C106 C 1.0336(5) 0.6354(7) 0.6126(4)
H102 H 1.0458 0.6056 0.6260
H103 H 1.0287 0.6711 0.6232
C107 C 1.0776(8) 0.6428(9) 0.5882(5)
H104 H 1.0577 0.6538 0.5705
H105 H 1.1039 0.6738 0.5932
C108 C 1.1116(12) 0.5889(9) 0.5826(7)
H106 H 1.1431 0.5974 0.5698
H107 H 1.0871 0.5605 0.5739
H108 H 1.1264 0.5744 0.6007
C109 C 0.4771(4) 0.2192(4) 0.73325(17)
C110 C 0.2861(12) 0.0332(12) 0.7355(3)
C111 C 0.2892(12) 0.4795(9) 0.5083(6)
C112 C 0.2642(12) 0.5413(12) 0.7510(7)
Co1F Co 0.12490(3) 0.38139(4) 0.25389(2)
S1F S 0.25600(19) 0.5251(2) 0.28333(10)
S2F S -0.0084(4) 0.2344(4) 0.27794(18)
S3F S 0.5205(7) 0.2463(5) 0.4724(3)
O1F O -0.3456(3) 0.5773(4) 0.1397(2)
O2F O 0.5972(3) 0.3279(3) 0.12056(15)
O3F O 0.3300(3) -0.0832(3) 0.36543(17)
O4F O 0.5799(3) 0.8425(3) 0.37174(15)
C1F C 0.4253(3) 0.3023(3) 0.12205(14)
N1F N 0.0044(2) 0.5193(2) 0.13456(9)
N2F N 0.0743(2) 0.4288(2) 0.22386(9)
N3F N 0.0730(2) 0.5830(2) 0.03801(10)
N4F N 0.2437(2) 0.2766(2) 0.12424(10)
N5F N 0.1705(2) 0.3417(2) 0.22034(10)
N6F N 0.1821(2) 0.1873(3) 0.03220(10)
N7F N 0.2735(3) 0.2687(2) 0.37346(10)
N8F N 0.1751(3) 0.3354(2) 0.28446(10)
N9F N 0.5252(2) 0.4905(2) 0.37490(9)
N10F N 0.5937(3) 0.4103(3) 0.28218(11)
N11F N 0.4369(2) 0.4308(2) 0.46636(10)
N12F N 0.1855(2) 0.4462(2) 0.25386(11)
N13F N 0.0646(3) 0.3175(3) 0.25509(13)
N15F N 0.4496(3) 0.3247(3) 0.50231(12)
C2F C 0.5521(3) 0.6694(3) 0.37509(14)
C3F C -0.0249(3) 0.5102(3) 0.15940(12)
C4F C -0.0798(3) 0.5210(3) 0.16166(14)
H1F H -0.0988 0.5145 0.1792
C5F C -0.2082(4) 0.5438(4) 0.1132(2)
H2F H -0.1915 0.5326 0.0957
C6F C -0.1102(3) 0.5423(3) 0.13787(14)
C7F C -0.0816(3) 0.5519(3) 0.11367(13)
H3F H -0.1005 0.5659 0.0973
C8F C -0.0243(3) 0.5412(3) 0.11295(11)
C9F C 0.0111(3) 0.4843(3) 0.18191(11)
C10F C 0.0683(3) 0.4842(3) 0.18021(12)
H4F H 0.0868 0.5035 0.1652
C11F C 0.1001(3) 0.4551(3) 0.20093(13)
H5F H 0.1400 0.4535 0.1991
C12F C 0.0205(3) 0.4314(3) 0.22534(13)
H6F H 0.0032 0.4153 0.2417
C13F C -0.0152(3) 0.4557(3) 0.20525(12)
H7F H -0.0551 0.4534 0.2069
C14F C 0.0088(3) 0.5553(3) 0.08566(12)
C15F C -0.0163(3) 0.5700(4) 0.06153(13)
H8F H -0.0563 0.5727 0.0606
C16F C 0.0173(3) 0.5817(3) 0.03695(13)
H9F H -0.0011 0.5888 0.0193
C17F C 0.1000(3) 0.5678(3) 0.06211(11)
H10F H 0.1400 0.5681 0.0630
C18F C 0.0671(3) 0.5514(3) 0.08640(12)
H11F H 0.0855 0.5377 0.1030
C19F C -0.1719(3) 0.5533(3) 0.13929(16)
C20F C -0.1988(4) 0.5754(4) 0.16352(17)
H12F H -0.1767 0.5857 0.1796
C21F C -0.2547(4) 0.5821(4) 0.1645(2)
H13F H -0.2717 0.5970 0.1812
C22F C -0.2886(4) 0.5674(5) 0.1412(2)
C23F C -0.2646(4) 0.5516(4) 0.1150(2)
H14F H -0.2879 0.5465 0.0987
C24F C -0.3714(4) 0.6079(5) 0.1653(3)
H15F H -0.3559 0.6466 0.1671
H16F H -0.3637 0.5870 0.1832
C25F C -0.4369(4) 0.6096(6) 0.1588(3)
H17F H -0.4506 0.5711 0.1543
H18F H -0.4577 0.6236 0.1756
C26F C -0.4467(4) 0.6491(7) 0.1333(3)
H19F H -0.4388 0.6889 0.1384
H20F H -0.4229 0.6383 0.1169
C27F C -0.5092(4) 0.6400(6) 0.1270(3)
H21F H -0.5327 0.6589 0.1416
H22F H -0.5182 0.5992 0.1270
C28F C -0.5202(6) 0.6659(7) 0.0972(3)
H23F H -0.5079 0.7059 0.0978
H24F H -0.4954 0.6463 0.0835
C29F C -0.5790(6) 0.6647(7) 0.0855(4)
H25F H -0.6061 0.6690 0.1011
H26F H -0.5855 0.6286 0.0759
H27F H -0.5838 0.6957 0.0719
C30F C 0.2724(3) 0.2947(3) 0.14727(12)
C31F C 0.3300(3) 0.3034(3) 0.14712(12)
H28F H 0.3482 0.3160 0.1640
C32F C 0.3615(3) 0.2940(3) 0.12277(12)
C33F C 0.3310(3) 0.2751(3) 0.09893(13)
H29F H 0.3502 0.2689 0.0814
C34F C 0.2735(3) 0.2656(3) 0.10059(12)
C35F C 0.2366(3) 0.3082(3) 0.17251(11)
C36F C 0.1791(3) 0.3045(3) 0.17256(12)
H30F H 0.1600 0.2912 0.1561
C37F C 0.1496(3) 0.3195(3) 0.19547(12)
H31F H 0.1098 0.3143 0.1945
C38F C 0.2252(3) 0.3414(3) 0.22056(14)
H32F H 0.2431 0.3528 0.2377
C39F C 0.2600(3) 0.3261(4) 0.19817(12)
H33F H 0.2998 0.3277 0.2003
C40F C 0.2416(3) 0.2416(3) 0.07704(12)
C41F C 0.2691(3) 0.2199(3) 0.05218(13)
H34F H 0.3088 0.2240 0.0501
C42F C 0.2380(3) 0.1931(3) 0.03133(13)
H35F H 0.2576 0.1780 0.0154
C43F C 0.1543(3) 0.2101(3) 0.05505(12)
H36F H 0.1145 0.2064 0.0561
C44F C 0.1819(3) 0.2378(3) 0.07618(12)
H37F H 0.1605 0.2551 0.0909
C45F C 0.4559(3) 0.2930(4) 0.1464(2)
H38F H 0.4388 0.2815 0.1637
C46F C 0.5143(4) 0.3018(4) 0.1438(2)
H39F H 0.5376 0.2919 0.1595
C47F C 0.5383(3) 0.3226(4) 0.1214(2)
C48F C 0.5066(3) 0.3357(4) 0.09774(19)
H40F H 0.5240 0.3520 0.0815
C49F C 0.4493(3) 0.3250(3) 0.09793(16)
H41F H 0.4269 0.3331 0.0817
C50F C 0.6230(4) 0.3581(6) 0.0989(3)
H42F H 0.6115 0.3982 0.1004
H43F H 0.6094 0.3437 0.0804
C51F C 0.6871(4) 0.3551(6) 0.0994(3)
H44F H 0.7001 0.3163 0.1038
H45F H 0.7031 0.3666 0.0808
C52F C 0.7038(6) 0.3957(7) 0.1224(4)
H46F H 0.6822 0.3877 0.1400
H47F H 0.6956 0.4349 0.1164
C53F C 0.7687(6) 0.3882(7) 0.1280(4)
H48F H 0.7793 0.3479 0.1265
H49F H 0.7907 0.4099 0.1138
C54F C 0.7806(7) 0.4109(6) 0.1587(4)
H50F H 0.7729 0.4519 0.1600
H51F H 0.7572 0.3909 0.1730
C55F C 0.8439(7) 0.3983(9) 0.1632(6)
H52F H 0.8618 0.4304 0.1728
H53F H 0.8620 0.3922 0.1447
H54F H 0.8481 0.3643 0.1749
C56F C 0.2593(3) 0.2401(3) 0.34950(11)
C57F C 0.2716(3) 0.1814(3) 0.34567(12)
H55F H 0.2646 0.1633 0.3279
C58F C 0.2942(3) 0.1508(3) 0.36883(13)
C59F C 0.3068(3) 0.1840(3) 0.39375(13)
H56F H 0.3234 0.1662 0.4098
C60F C 0.2955(3) 0.2409(3) 0.39474(12)
C61F C 0.2316(3) 0.2722(3) 0.32613(11)
C62F C 0.2268(3) 0.3329(3) 0.32850(13)
H57F H 0.2407 0.3523 0.3447
C63F C 0.2014(3) 0.3616(3) 0.30641(12)
H58F H 0.2023 0.4017 0.3066
C64F C 0.1802(3) 0.2803(3) 0.28344(14)
H59F H 0.1631 0.2619 0.2677
C65F C 0.2078(3) 0.2463(3) 0.30280(12)
H60F H 0.2104 0.2066 0.3001
C66F C 0.3077(2) 0.27620(17) 0.42134(8)
C67F C 0.3307(3) 0.25002(14) 0.44514(9)
H61F H 0.3344 0.2101 0.4456
C68F C 0.3484(3) 0.28227(17) 0.46820(8)
H62F H 0.3642 0.2644 0.4845
N16F N 0.3431(2) 0.34069(17) 0.46745(7)
C69F C 0.3200(2) 0.36687(14) 0.44366(8)
H63F H 0.3164 0.4068 0.4431
C70F C 0.3023(2) 0.33463(17) 0.42060(7)
H64F H 0.2866 0.3525 0.4043
C71F C 0.3052(3) 0.0899(3) 0.36731(15)
C72F C 0.3225(3) 0.0687(3) 0.34172(17)
H65F H 0.3263 0.0921 0.3254
C73F C 0.3352(3) 0.0074(4) 0.3407(2)
H66F H 0.3489 -0.0100 0.3238
C74F C 0.3260(3) -0.0236(4) 0.3654(2)
C75F C 0.3046(3) 0.0007(3) 0.38967(18)
H67F H 0.2951 -0.0225 0.4055
C76F C 0.2970(3) 0.0561(3) 0.39138(16)
H68F H 0.2860 0.0727 0.4089
C77F C 0.3491(5) -0.1089(4) 0.3394(3)
H69F H 0.3844 -0.0903 0.3331
H70F H 0.3203 -0.1033 0.3244
C78F C 0.3596(6) -0.1706(5) 0.3432(3)
H71F H 0.3228 -0.1902 0.3451
H72F H 0.3784 -0.1854 0.3260
C79F C 0.3925(6) -0.1830(5) 0.3667(3)
H73F H 0.3763 -0.1661 0.3842
H74F H 0.4315 -0.1689 0.3642
C80F C 0.3916(7) -0.2508(6) 0.3684(4)
H75F H 0.3527 -0.2655 0.3663
H76F H 0.4157 -0.2676 0.3534
C81F C 0.4154(6) -0.2640(7) 0.3986(3)
H77F H 0.4560 -0.2547 0.3968
H78F H 0.3992 -0.2336 0.4105
C82F C 0.4153(8) -0.3139(7) 0.4180(4)
H79F H 0.4485 -0.3123 0.4304
H80F H 0.4164 -0.3486 0.4066
H81F H 0.3810 -0.3135 0.4296
C83F C 0.5448(3) 0.5167(3) 0.35204(12)
C84F C 0.5559(3) 0.5746(3) 0.35118(11)
H82F H 0.5710 0.5919 0.3346
C85F C 0.5436(3) 0.6073(3) 0.37625(13)
C86F C 0.5232(3) 0.5803(3) 0.39925(11)
H83F H 0.5158 0.6009 0.4162
C87F C 0.5129(3) 0.5226(3) 0.39843(11)
C88F C 0.5596(3) 0.4799(3) 0.32720(12)
C89F C 0.5562(3) 0.4234(3) 0.32821(13)
H84F H 0.5423 0.4053 0.3449
C90F C 0.5727(3) 0.3917(3) 0.30536(13)
H85F H 0.5681 0.3519 0.3069
C91F C 0.5949(4) 0.4676(4) 0.27963(13)
H86F H 0.6036 0.4839 0.2617
C92F C 0.5837(5) 0.5030(4) 0.30288(15)
H87F H 0.5924 0.5422 0.3020
C93F C 0.4879(3) 0.4911(3) 0.42232(12)
C94F C 0.4651(3) 0.5181(3) 0.44708(12)
H88F H 0.4671 0.5580 0.4487
C95F C 0.4414(3) 0.4885(3) 0.46778(12)
H89F H 0.4271 0.5076 0.4840
C96F C 0.4541(3) 0.4049(3) 0.44582(14)
H90F H 0.4487 0.3651 0.4454
C97F C 0.4829(3) 0.4313(3) 0.42147(14)
H91F H 0.4973 0.4097 0.4061
C98F C 0.5421(3) 0.7027(3) 0.35136(15)
H92F H 0.5275 0.6846 0.3349
C99F C 0.5514(4) 0.7584(3) 0.34985(18)
H93F H 0.5434 0.7792 0.3331
C100F C 0.5747(4) 0.7859(4) 0.37571(18)
C101F C 0.5810(3) 0.7558(3) 0.39874(16)
H94F H 0.5912 0.7745 0.4159
C102F C 0.5736(3) 0.6979(3) 0.39940(14)
H95F H 0.5828 0.6773 0.4161
C103F C 0.6069(5) 0.8750(3) 0.3929(3)
H96F H 0.6414 0.8554 0.3997
H97F H 0.5813 0.8805 0.4094
C104F C 0.6227(6) 0.9333(4) 0.3796(3)
H98F H 0.6616 0.9318 0.3719
H99F H 0.5966 0.9421 0.3637
C105F C 0.6186(9) 0.9791(5) 0.4024(3)
H100F H 0.5797 0.9818 0.4099
H101F H 0.6446 0.9709 0.4183
C106F C 0.6354(7) 1.0336(5) 0.3874(4)
H102F H 0.6056 1.0458 0.3740
H103F H 0.6711 1.0287 0.3768
C107F C 0.6428(9) 1.0776(8) 0.4118(5)
H104F H 0.6538 1.0577 0.4295
H105F H 0.6738 1.1039 0.4068
C108F C 0.5889(9) 1.1116(12) 0.4174(7)
H106F H 0.5974 1.1431 0.4302
H107F H 0.5605 1.0871 0.4261
H108F H 0.5744 1.1264 0.3993
C109F C 0.2192(4) 0.4771(4) 0.26675(17)
C110F C 0.0332(12) 0.2861(12) 0.2645(3)
C111F C 0.4795(9) 0.2892(12) 0.4917(6)
S4G S 0.5080(4) 0.7617(4) 0.72837(19)
N14G N 0.4217(3) 0.7019(3) 0.75216(15)
C112G C 0.4587(12) 0.7358(12) 0.7490(7)
Co1C Co 0.62490(3) 0.11861(4) 0.99611(2)
Co1D Co 0.11861(4) 0.62490(3) 0.00389(2)
Co3A Co 0.63863(4) 0.36137(4) 0.2500
Co3C Co 0.13863(4) 0.13863(4) 0.0000
Co3C_2 Co 0.13863(4) 0.13863(4) 1.0000
N3B N 0.4270(2) 0.0830(2) 0.71199(10)
N3E N 0.0830(2) 0.4270(2) 0.28801(10)
N6B N 0.3179(2) 0.6873(3) 0.71780(10)
N6D N 0.3127(3) 0.6821(2) 0.78220(10)
N10G N 0.4063(3) 0.5897(3) 0.78218(11)
loop_
_geom_bond_atom_site_label_1
_geom_bond_atom_site_label_2
_geom_bond_site_symmetry_1
_geom_bond_site_symmetry_2
Co1 N2 1_555 1_555
Co2 N11 1_555 1_555
Co3 N10 1_555 1_555
S1 C109 1_555 1_555
S2 C110 1_555 1_555
S3 C111 1_555 1_555
S4 C112 1_555 1_555
O1 C22 1_555 1_555
O2 C47 1_555 1_555
O3 C74 1_555 1_555
O4 C100 1_555 1_555
C1 C32 1_555 1_555
N1 C3 1_555 1_555
N2 C11 1_555 1_555
N3 C16 1_555 1_555
N4 C30 1_555 1_555
N5 Co1 1_555 1_555
N6 C42 1_555 1_555
N7 C56 1_555 1_555
N8 Co1 1_555 1_555
N9 C83 1_555 1_555
N10 C90 1_555 1_555
N11 C95 1_555 1_555
N12 Co1 1_555 1_555
N13 Co1 1_555 1_555
N14 Co3 1_555 1_555
N15 Co2 1_555 1_555
C2 C85 1_555 1_555
C3 C4 1_555 1_555
C4 H1 1_555 1_555
C5 H2 1_555 1_555
C6 C4 1_555 1_555
C7 C6 1_555 1_555
H3 C7 1_555 1_555
C8 N1 1_555 1_555
C9 C3 1_555 1_555
C10 C9 1_555 1_555
H4 C10 1_555 1_555
C11 C10 1_555 1_555
H5 C11 1_555 1_555
C12 N2 1_555 1_555
H6 C12 1_555 1_555
C13 C9 1_555 1_555
H7 C13 1_555 1_555
C14 C8 1_555 1_555
C15 C14 1_555 1_555
H8 C15 1_555 1_555
C16 C15 1_555 1_555
H9 C16 1_555 1_555
C17 N3 1_555 1_555
H10 C17 1_555 1_555
C18 C14 1_555 1_555
H11 C18 1_555 1_555
C19 C5 1_555 1_555
C20 C19 1_555 1_555
H12 C20 1_555 1_555
C21 C20 1_555 1_555
H13 C21 1_555 1_555
C22 C21 1_555 1_555
C23 C5 1_555 1_555
H14 C23 1_555 1_555
C24 O1 1_555 1_555
H15 C24 1_555 1_555
H16 C24 1_555 1_555
C25 C24 1_555 1_555
H17 C25 1_555 1_555
H18 C25 1_555 1_555
C26 C25 1_555 1_555
H19 C26 1_555 1_555
H20 C26 1_555 1_555
C27 C26 1_555 1_555
H21 C27 1_555 1_555
H22 C27 1_555 1_555
C28 C27 1_555 1_555
H23 C28 1_555 1_555
H24 C28 1_555 1_555
C29 C28 1_555 1_555
H25 C29 1_555 1_555
H26 C29 1_555 1_555
H27 C29 1_555 1_555
C30 C31 1_555 1_555
C31 H28 1_555 1_555
C32 C31 1_555 1_555
C33 C32 1_555 1_555
H29 C33 1_555 1_555
C34 N4 1_555 1_555
C35 C30 1_555 1_555
C36 C35 1_555 1_555
H30 C36 1_555 1_555
C37 N5 1_555 1_555
H31 C37 1_555 1_555
C38 N5 1_555 1_555
H32 C38 1_555 1_555
C39 C35 1_555 1_555
H33 C39 1_555 1_555
C40 C34 1_555 1_555
C41 C40 1_555 1_555
H34 C41 1_555 1_555
C42 C41 1_555 1_555
H35 C42 1_555 1_555
C43 N6 1_555 1_555
H36 C43 1_555 1_555
C44 C40 1_555 1_555
H37 C44 1_555 1_555
C45 C1 1_555 1_555
H38 C45 1_555 1_555
C46 C45 1_555 1_555
H39 C46 1_555 1_555
C47 C46 1_555 1_555
C48 C47 1_555 1_555
H40 C48 1_555 1_555
C49 C1 1_555 1_555
H41 C49 1_555 1_555
C50 O2 1_555 1_555
H42 C50 1_555 1_555
H43 C50 1_555 1_555
C51 C50 1_555 1_555
H44 C51 1_555 1_555
H45 C51 1_555 1_555
C52 C51 1_555 1_555
H46 C52 1_555 1_555
H47 C52 1_555 1_555
C53 C52 1_555 1_555
H48 C53 1_555 1_555
H49 C53 1_555 1_555
C54 C53 1_555 1_555
H50 C54 1_555 1_555
H51 C54 1_555 1_555
C55 C54 1_555 1_555
H52 C55 1_555 1_555
H53 C55 1_555 1_555
H54 C55 1_555 1_555
C56 C57 1_555 1_555
C57 H55 1_555 1_555
C58 C57 1_555 1_555
C59 C58 1_555 1_555
H56 C59 1_555 1_555
C60 N7 1_555 1_555
C61 C56 1_555 1_555
C62 C61 1_555 1_555
H57 C62 1_555 1_555
C63 N8 1_555 1_555
H58 C63 1_555 1_555
C64 N8 1_555 1_555
H59 C64 1_555 1_555
C65 C61 1_555 1_555
H60 C65 1_555 1_555
C66 C60 1_555 1_555
C67 C66 1_555 1_555
H61 C67 1_555 1_555
C68 C67 1_555 1_555
H62 C68 1_555 1_555
N16 Co2 1_555 1_555
C69 N16 1_555 1_555
H63 C69 1_555 1_555
C70 C66 1_555 1_555
H64 C70 1_555 1_555
C71 C58 1_555 1_555
C72 C71 1_555 1_555
H65 C72 1_555 1_555
C73 C72 1_555 1_555
H66 C73 1_555 1_555
C74 C73 1_555 1_555
C75 C74 1_555 1_555
H67 C75 1_555 1_555
C76 C71 1_555 1_555
H68 C76 1_555 1_555
C77 O3 1_555 1_555
H69 C77 1_555 1_555
H70 C77 1_555 1_555
C78 C77 1_555 1_555
H71 C78 1_555 1_555
H72 C78 1_555 1_555
C79 C78 1_555 1_555
H73 C79 1_555 1_555
H74 C79 1_555 1_555
C80 C79 1_555 1_555
H75 C80 1_555 1_555
H76 C80 1_555 1_555
C81 C80 1_555 1_555
H77 C81 1_555 1_555
H78 C81 1_555 1_555
C82 C81 1_555 1_555
H79 C82 1_555 1_555
H80 C82 1_555 1_555
H81 C82 1_555 1_555
C83 C84 1_555 1_555
C84 H82 1_555 1_555
C85 C84 1_555 1_555
C86 C85 1_555 1_555
H83 C86 1_555 1_555
C87 N9 1_555 1_555
C88 C83 1_555 1_555
C89 C88 1_555 1_555
H84 C89 1_555 1_555
C90 C89 1_555 1_555
H85 C90 1_555 1_555
C91 N10 1_555 1_555
H86 C91 1_555 1_555
C92 C88 1_555 1_555
H87 C92 1_555 1_555
C93 C87 1_555 1_555
C94 C93 1_555 1_555
H88 C94 1_555 1_555
C95 C94 1_555 1_555
H89 C95 1_555 1_555
C96 N11 1_555 1_555
H90 C96 1_555 1_555
C97 C93 1_555 1_555
H91 C97 1_555 1_555
C98 C2 1_555 1_555
H92 C98 1_555 1_555
C99 C98 1_555 1_555
H93 C99 1_555 1_555
C100 C99 1_555 1_555
C101 C100 1_555 1_555
H94 C101 1_555 1_555
C102 C2 1_555 1_555
H95 C102 1_555 1_555
C103 O4 1_555 1_555
H96 C103 1_555 1_555
H97 C103 1_555 1_555
C104 C103 1_555 1_555
H98 C104 1_555 1_555
H99 C104 1_555 1_555
C105 C104 1_555 1_555
H100 C105 1_555 1_555
H101 C105 1_555 1_555
C106 C105 1_555 1_555
H102 C106 1_555 1_555
H103 C106 1_555 1_555
C107 C106 1_555 1_555
H104 C107 1_555 1_555
H105 C107 1_555 1_555
C108 C107 1_555 1_555
H106 C108 1_555 1_555
H107 C108 1_555 1_555
H108 C108 1_555 1_555
C109 N12 1_555 1_555
C110 N13 1_555 1_555
C111 N15 1_555 1_555
C112 N14 1_555 1_555
Co1F N2F 1_555 1_555
S1F C109F 1_555 1_555
S2F C110F 1_555 1_555
S3F C111F 1_555 1_555
O1F C22F 1_555 1_555
O2F C47F 1_555 1_555
O3F C74F 1_555 1_555
O4F C100F 1_555 1_555
C1F C32F 1_555 1_555
N1F C3F 1_555 1_555
N2F C11F 1_555 1_555
N3F C16F 1_555 1_555
N4F C30F 1_555 1_555
N5F Co1F 1_555 1_555
N6F C42F 1_555 1_555
N7F C56F 1_555 1_555
N8F Co1F 1_555 1_555
N9F C83F 1_555 1_555
N10F C90F 1_555 1_555
N11F Co2 1_555 1_555
N12F Co1F 1_555 1_555
N13F Co1F 1_555 1_555
N15F Co2 1_555 1_555
C2F C85F 1_555 1_555
C3F C4F 1_555 1_555
C4F H1F 1_555 1_555
C5F H2F 1_555 1_555
C6F C4F 1_555 1_555
C7F C6F 1_555 1_555
H3F C7F 1_555 1_555
C8F N1F 1_555 1_555
C9F C3F 1_555 1_555
C10F C9F 1_555 1_555
H4F C10F 1_555 1_555
C11F C10F 1_555 1_555
H5F C11F 1_555 1_555
C12F N2F 1_555 1_555
H6F C12F 1_555 1_555
C13F C9F 1_555 1_555
H7F C13F 1_555 1_555
C14F C8F 1_555 1_555
C15F C14F 1_555 1_555
H8F C15F 1_555 1_555
C16F C15F 1_555 1_555
H9F C16F 1_555 1_555
C17F N3F 1_555 1_555
H10F C17F 1_555 1_555
C18F C14F 1_555 1_555
H11F C18F 1_555 1_555
C19F C5F 1_555 1_555
C20F C19F 1_555 1_555
H12F C20F 1_555 1_555
C21F C20F 1_555 1_555
H13F C21F 1_555 1_555
C22F C21F 1_555 1_555
C23F C5F 1_555 1_555
H14F C23F 1_555 1_555
C24F O1F 1_555 1_555
H15F C24F 1_555 1_555
H16F C24F 1_555 1_555
C25F C24F 1_555 1_555
H17F C25F 1_555 1_555
H18F C25F 1_555 1_555
C26F C25F 1_555 1_555
H19F C26F 1_555 1_555
H20F C26F 1_555 1_555
C27F C26F 1_555 1_555
H21F C27F 1_555 1_555
H22F C27F 1_555 1_555
C28F C27F 1_555 1_555
H23F C28F 1_555 1_555
H24F C28F 1_555 1_555
C29F C28F 1_555 1_555
H25F C29F 1_555 1_555
H26F C29F 1_555 1_555
H27F C29F 1_555 1_555
C30F C31F 1_555 1_555
C31F H28F 1_555 1_555
C32F C31F 1_555 1_555
C33F C32F 1_555 1_555
H29F C33F 1_555 1_555
C34F N4F 1_555 1_555
C35F C30F 1_555 1_555
C36F C35F 1_555 1_555
H30F C36F 1_555 1_555
C37F N5F 1_555 1_555
H31F C37F 1_555 1_555
C38F N5F 1_555 1_555
H32F C38F 1_555 1_555
C39F C35F 1_555 1_555
H33F C39F 1_555 1_555
C40F C34F 1_555 1_555
C41F C40F 1_555 1_555
H34F C41F 1_555 1_555
C42F C41F 1_555 1_555
H35F C42F 1_555 1_555
C43F N6F 1_555 1_555
H36F C43F 1_555 1_555
C44F C40F 1_555 1_555
H37F C44F 1_555 1_555
C45F C1F 1_555 1_555
H38F C45F 1_555 1_555
C46F C45F 1_555 1_555
H39F C46F 1_555 1_555
C47F C46F 1_555 1_555
C48F C47F 1_555 1_555
H40F C48F 1_555 1_555
C49F C1F 1_555 1_555
H41F C49F 1_555 1_555
C50F O2F 1_555 1_555
H42F C50F 1_555 1_555
H43F C50F 1_555 1_555
C51F C50F 1_555 1_555
H44F C51F 1_555 1_555
H45F C51F 1_555 1_555
C52F C51F 1_555 1_555
H46F C52F 1_555 1_555
H47F C52F 1_555 1_555
C53F C52F 1_555 1_555
H48F C53F 1_555 1_555
H49F C53F 1_555 1_555
C54F C53F 1_555 1_555
H50F C54F 1_555 1_555
H51F C54F 1_555 1_555
C55F C54F 1_555 1_555
H52F C55F 1_555 1_555
H53F C55F 1_555 1_555
H54F C55F 1_555 1_555
C56F C57F 1_555 1_555
C57F H55F 1_555 1_555
C58F C57F 1_555 1_555
C59F C58F 1_555 1_555
H56F C59F 1_555 1_555
C60F N7F 1_555 1_555
C61F C56F 1_555 1_555
C62F C61F 1_555 1_555
H57F C62F 1_555 1_555
C63F N8F 1_555 1_555
H58F C63F 1_555 1_555
C64F N8F 1_555 1_555
H59F C64F 1_555 1_555
C65F C61F 1_555 1_555
H60F C65F 1_555 1_555
C66F C60F 1_555 1_555
C67F C66F 1_555 1_555
H61F C67F 1_555 1_555
C68F C67F 1_555 1_555
H62F C68F 1_555 1_555
N16F Co2 1_555 1_555
C69F N16F 1_555 1_555
H63F C69F 1_555 1_555
C70F C66F 1_555 1_555
H64F C70F 1_555 1_555
C71F C58F 1_555 1_555
C72F C71F 1_555 1_555
H65F C72F 1_555 1_555
C73F C72F 1_555 1_555
H66F C73F 1_555 1_555
C74F C73F 1_555 1_555
C75F C74F 1_555 1_555
H67F C75F 1_555 1_555
C76F C71F 1_555 1_555
H68F C76F 1_555 1_555
C77F O3F 1_555 1_555
H69F C77F 1_555 1_555
H70F C77F 1_555 1_555
C78F C77F 1_555 1_555
H71F C78F 1_555 1_555
H72F C78F 1_555 1_555
C79F C78F 1_555 1_555
H73F C79F 1_555 1_555
H74F C79F 1_555 1_555
C80F C79F 1_555 1_555
H75F C80F 1_555 1_555
H76F C80F 1_555 1_555
C81F C80F 1_555 1_555
H77F C81F 1_555 1_555
H78F C81F 1_555 1_555
C82F C81F 1_555 1_555
H79F C82F 1_555 1_555
H80F C82F 1_555 1_555
H81F C82F 1_555 1_555
C83F C84F 1_555 1_555
C84F H82F 1_555 1_555
C85F C84F 1_555 1_555
C86F C85F 1_555 1_555
H83F C86F 1_555 1_555
C87F N9F 1_555 1_555
C88F C83F 1_555 1_555
C89F C88F 1_555 1_555
H84F C89F 1_555 1_555
C90F C89F 1_555 1_555
H85F C90F 1_555 1_555
C91F N10F 1_555 1_555
H86F C91F 1_555 1_555
C92F C88F 1_555 1_555
H87F C92F 1_555 1_555
C93F C87F 1_555 1_555
C94F C93F 1_555 1_555
H88F C94F 1_555 1_555
C95F N11F 1_555 1_555
H89F C95F 1_555 1_555
C96F N11F 1_555 1_555
H90F C96F 1_555 1_555
C97F C93F 1_555 1_555
H91F C97F 1_555 1_555
C98F C2F 1_555 1_555
H92F C98F 1_555 1_555
C99F C98F 1_555 1_555
H93F C99F 1_555 1_555
C100F C99F 1_555 1_555
C101F C100F 1_555 1_555
H94F C101F 1_555 1_555
C102F C2F 1_555 1_555
H95F C102F 1_555 1_555
C103F O4F 1_555 1_555
H96F C103F 1_555 1_555
H97F C103F 1_555 1_555
C104F C103F 1_555 1_555
H98F C104F 1_555 1_555
H99F C104F 1_555 1_555
C105F C104F 1_555 1_555
H100F C105F 1_555 1_555
H101F C105F 1_555 1_555
C106F C105F 1_555 1_555
H102F C106F 1_555 1_555
H103F C106F 1_555 1_555
C107F C106F 1_555 1_555
H104F C107F 1_555 1_555
H105F C107F 1_555 1_555
C108F C107F 1_555 1_555
H106F C108F 1_555 1_555
H107F C108F 1_555 1_555
H108F C108F 1_555 1_555
C109F N12F 1_555 1_555
C110F N13F 1_555 1_555
C111F N15F 1_555 1_555
S4G C112G 1_555 1_555
N14G Co3 1_555 1_555
C112G N14G 1_555 1_555
Co1C N3 1_555 1_555
Co1D N3F 1_555 1_555
Co3A N10F 1_555 1_555
Co3C N6F 1_555 1_555
Co3C_2 N6 1_555 1_555
N3B Co1 1_555 1_555
N3E Co1F 1_555 1_555
N6B Co3 1_555 1_555
N6D Co3 1_555 1_555
N10G Co3 1_555 1_555
C6 C19 1_555 1_555
C7 C8 1_555 1_555
C12 C13 1_555 1_555
C17 C18 1_555 1_555
C22 C23 1_555 1_555
C33 C34 1_555 1_555
C36 C37 1_555 1_555
C38 C39 1_555 1_555
C43 C44 1_555 1_555
C48 C49 1_555 1_555
C59 C60 1_555 1_555
C62 C63 1_555 1_555
C64 C65 1_555 1_555
C68 N16 1_555 1_555
C69 C70 1_555 1_555
C75 C76 1_555 1_555
C86 C87 1_555 1_555
C91 C92 1_555 1_555
C96 C97 1_555 1_555
C101 C102 1_555 1_555
C6F C19F 1_555 1_555
C7F C8F 1_555 1_555
C12F C13F 1_555 1_555
C17F C18F 1_555 1_555
C22F C23F 1_555 1_555
C33F C34F 1_555 1_555
C36F C37F 1_555 1_555
C38F C39F 1_555 1_555
C43F C44F 1_555 1_555
C48F C49F 1_555 1_555
C59F C60F 1_555 1_555
C62F C63F 1_555 1_555
C64F C65F 1_555 1_555
C68F N16F 1_555 1_555
C69F C70F 1_555 1_555
C75F C76F 1_555 1_555
C86F C87F 1_555 1_555
C91F C92F 1_555 1_555
C94F C95F 1_555 1_555
C96F C97F 1_555 1_555
C101F C102F 1_555 1_555

#END
