
#######################################################################
#
#                 Cambridge Crystallographic Data Centre
#                                CCDC 
#
#######################################################################
#
# If this CIF has been generated from an entry in the Cambridge 
# Structural Database, then it will include bibliographic, chemical, 
# crystal, experimental, refinement or atomic coordinate data resulting 
# from the CCDC's data processing and validation procedures.
#
#######################################################################

data_NUDLIJ
_chemical_formula_moiety         '(C14 H26 Mg3 N2 O19)n'
_symmetry_cell_setting           monoclinic
_symmetry_space_group_name_H-M   'P 21/n'
_symmetry_Int_Tables_number      14
_space_group_name_Hall           '-P 2yn'
loop_
_symmetry_equiv_pos_site_id
_symmetry_equiv_pos_as_xyz
1 x,y,z
2 1/2-x,1/2+y,1/2-z
3 -x,-y,-z
4 1/2+x,1/2-y,1/2+z
_cell_length_a                   10.8609(7)
_cell_length_b                   14.3088(9)
_cell_length_c                   17.0198(12)
_cell_angle_alpha                90
_cell_angle_beta                 105.940(2)
_cell_angle_gamma                90
_cell_volume                     2543.29
loop_
_atom_site_label
_atom_site_type_symbol
_atom_site_fract_x
_atom_site_fract_y
_atom_site_fract_z
Mg1 Mg -0.05038(6) 0.47079(4) -0.09147(4)
Mg2 Mg 0.24975(6) 0.59083(4) -0.00049(4)
Mg3 Mg 0.45195(6) 0.53112(4) -0.09010(4)
N1 N -0.12482(15) 0.56741(10) -0.19594(10)
O1 O -0.23063(12) 0.50952(9) -0.08347(8)
O2 O -0.41213(13) 0.58620(9) -0.13935(8)
O3 O -0.35440(12) 0.85168(9) -0.33840(8)
O4 O -0.23486(12) 0.80290(9) -0.41869(8)
C1 C -0.23634(17) 0.60801(12) -0.19505(11)
C2 C -0.29028(18) 0.68201(13) -0.24561(12)
H1 H -0.369(2) 0.7091(14) -0.2414(12)
C3 C -0.22722(18) 0.71441(12) -0.30126(11)
C4 C -0.11467(18) 0.67038(13) -0.30519(12)
H2 H -0.072(2) 0.6882(14) -0.3427(13)
C5 C -0.06674(19) 0.59794(13) -0.25110(12)
H3 H 0.009(2) 0.5671(14) -0.2506(12)
C6 C -0.29950(18) 0.56561(12) -0.13444(11)
C7 C -0.27654(17) 0.79626(12) -0.35703(11)
O5 O 0.44690(12) 0.57922(9) 0.02175(8)
H4 H 0.476(2) 0.6258(15) 0.0351(13)
O6 O 0.04918(12) 0.58022(9) -0.02136(8)
H5 H 0.021(2) 0.6278(15) -0.0363(13)
N2 N 0.37992(15) 0.42958(10) -0.19272(9)
O7 O 0.26764(12) 0.49036(9) -0.08473(8)
O8 O 0.08323(12) 0.42057(9) -0.14566(8)
O9 O 0.14802(12) 0.14553(9) -0.33631(8)
O10 O 0.27577(13) 0.19111(9) -0.41253(8)
C8 C 0.26324(17) 0.39413(12) -0.19703(11)
C9 C 0.20849(19) 0.32060(13) -0.24822(12)
H6 H 0.125(2) 0.2980(14) -0.2484(12)
C10 C 0.27800(18) 0.28161(13) -0.29733(11)
C11 C 0.39720(19) 0.31907(13) -0.29494(12)
H7 H 0.442(2) 0.2967(14) -0.3294(13)
C12 C 0.44407(19) 0.39267(13) -0.24177(12)
H8 H 0.525(2) 0.4199(14) -0.2369(12)
C13 C 0.19817(18) 0.43822(12) -0.13838(11)
C14 C 0.22850(18) 0.19895(12) -0.35329(11)
Mg1A Mg -0.44962(6) 0.97079(4) -0.40853(4)
Mg1B Mg 0.05038(6) 0.52921(4) 0.09147(4)
Mg2A Mg 0.25025(6) 0.09083(4) -0.49951(4)
Mg2B Mg -0.24975(6) 0.40917(4) 0.00049(4)
Mg2C Mg -0.25025(6) 0.90917(4) -0.50049(4)
Mg3_2 Mg -0.54805(6) 0.53112(4) -0.09010(4)
Mg3A Mg 0.04805(6) 0.03112(4) -0.40990(4)
Mg3B Mg 0.54805(6) 0.46888(4) 0.09010(4)
O1B O 0.23063(12) 0.49048(9) 0.08347(8)
O2_2 O 0.58787(13) 0.58620(9) -0.13935(8)
O3A O -0.14560(12) 0.35168(9) -0.16160(8)
O4C O 0.26514(12) 0.69710(9) 0.08131(8)
O5B O 0.55310(12) 0.42078(9) -0.02175(8)
O6B O -0.04918(12) 0.41978(9) 0.02136(8)
O9A O 0.35198(12) 0.64553(9) -0.16369(8)
O10A O 0.22423(13) 0.69111(9) -0.08747(8)
O11 O 0.30883(17) -0.01516(11) -0.07066(11)
H9 H 0.256(2) 0.0197(19) -0.1118(15)
H10 H 0.347(2) 0.0242(16) -0.0356(14)
O12 O -0.15496(15) 0.12809(11) 0.00031(10)
H11 H -0.198(2) 0.0912(14) 0.0239(15)
H12 H -0.200(2) 0.1777(13) -0.0119(15)
O13 O 0.14208(16) 0.24017(11) -0.07714(10)
H13 H 0.124(2) 0.2315(17) -0.0310(12)
H14 H 0.095(2) 0.2867(15) -0.1010(14)
O14 O 0.45048(17) 0.09643(13) 0.06055(11)
H15 H 0.411(2) 0.1027(19) 0.0963(14)
H16 H 0.5246(18) 0.075(2) 0.0790(16)
O15 O 0.09193(18) -0.01270(12) 0.11986(12)
H17 H 0.035(2) -0.0330(18) 0.1426(16)
H18 H 0.096(3) -0.0533(17) 0.0845(15)
O16 O 0.29013(17) 0.11174(11) 0.16553(10)
H19 H 0.323(2) 0.1179(17) 0.2171(11)
H20 H 0.234(2) 0.0684(15) 0.1567(14)
O17 O -0.11593(17) -0.08990(11) 0.17702(10)
H21 H -0.123(2) -0.1389(14) 0.1467(13)
H22 H -0.116(2) -0.1071(17) 0.2251(11)
O18 O 0.07925(16) 0.22025(11) 0.06577(10)
H23 H 0.1426(18) 0.1935(17) 0.0961(14)
H24 H 0.0162(18) 0.1803(16) 0.0506(15)
O19 O 0.42068(17) 0.24292(12) -0.05941(11)
H25 H 0.451(2) 0.2060(17) -0.0166(14)
H26 H 0.3392(17) 0.2444(18) -0.0647(16)
loop_
_geom_bond_atom_site_label_1
_geom_bond_atom_site_label_2
_geom_bond_site_symmetry_1
_geom_bond_site_symmetry_2
Mg1 N1 1_555 1_555
Mg2 O5 1_555 1_555
Mg3 O5 1_555 1_555
N1 C1 1_555 1_555
O1 Mg1 1_555 1_555
O2 C6 1_555 1_555
O3 C7 1_555 1_555
O4 C7 1_555 1_555
C1 C2 1_555 1_555
C2 H1 1_555 1_555
C3 C2 1_555 1_555
C4 C3 1_555 1_555
H2 C4 1_555 1_555
C5 N1 1_555 1_555
H3 C5 1_555 1_555
C6 O1 1_555 1_555
C7 C3 1_555 1_555
O5 H4 1_555 1_555
O6 Mg1 1_555 1_555
H5 O6 1_555 1_555
N2 Mg3 1_555 1_555
O7 Mg2 1_555 1_555
O8 Mg1 1_555 1_555
O9 C14 1_555 1_555
O10 C14 1_555 1_555
C8 N2 1_555 1_555
C9 C8 1_555 1_555
H6 C9 1_555 1_555
C10 C9 1_555 1_555
C11 C10 1_555 1_555
H7 C11 1_555 1_555
C12 N2 1_555 1_555
H8 C12 1_555 1_555
C13 O7 1_555 1_555
C14 C10 1_555 1_555
O11 H9 1_555 1_555
H10 O11 1_555 1_555
O12 H11 1_555 1_555
H12 O12 1_555 1_555
O13 H13 1_555 1_555
H14 O13 1_555 1_555
O14 H15 1_555 1_555
H16 O14 1_555 1_555
O15 H17 1_555 1_555
H18 O15 1_555 1_555
O16 H19 1_555 1_555
H20 O16 1_555 1_555
O17 H21 1_555 1_555
H22 O17 1_555 1_555
O18 H23 1_555 1_555
H24 O18 1_555 1_555
O19 H25 1_555 1_555
H26 O19 1_555 1_555
Mg1A O3 1_555 1_555
Mg1B O6 1_555 1_555
Mg2A O10 1_555 1_555
Mg2B O1 1_555 1_555
Mg2C O4 1_555 1_555
Mg3_2 O2 1_555 1_555
Mg3A O9 1_555 1_555
Mg3B O5 1_555 1_555
O1B Mg2 1_555 1_555
O2_2 Mg3 1_555 1_555
O3A Mg1 1_555 1_555
O4C Mg2 1_555 1_555
O5B Mg3 1_555 1_555
O6B Mg1 1_555 1_555
O9A Mg3 1_555 1_555
O10A Mg2 1_555 1_555
Mg2 O6 1_555 1_555
Mg3 O7 1_555 1_555
C1 C6 1_555 1_555
C4 C5 1_555 1_555
O8 C13 1_555 1_555
C8 C13 1_555 1_555
C11 C12 1_555 1_555
Mg1B O1B 1_555 1_555
Mg1B O6B 1_555 1_555
Mg2B O6B 1_555 1_555
Mg3B O5B 1_555 1_555

#END
