
#######################################################################
#
#                 Cambridge Crystallographic Data Centre
#                                CCDC 
#
#######################################################################
#
# If this CIF has been generated from an entry in the Cambridge 
# Structural Database, then it will include bibliographic, chemical, 
# crystal, experimental, refinement or atomic coordinate data resulting 
# from the CCDC's data processing and validation procedures.
#
#######################################################################

data_NUDLOP01
_chemical_formula_moiety         '(C14 H8 Mg3 N2 O10)n'
_symmetry_cell_setting           monoclinic
_symmetry_space_group_name_H-M   'C 2/c'
_symmetry_Int_Tables_number      15
_space_group_name_Hall           '-C 2yc'
loop_
_symmetry_equiv_pos_site_id
_symmetry_equiv_pos_as_xyz
1 x,y,z
2 -x,y,1/2-z
3 1/2+x,1/2+y,z
4 1/2-x,1/2+y,1/2-z
5 -x,-y,-z
6 x,-y,1/2+z
7 1/2-x,1/2-y,-z
8 1/2+x,1/2-y,1/2+z
_cell_length_a                   18.293(2)
_cell_length_b                   12.3340(14)
_cell_length_c                   11.0237(12)
_cell_angle_alpha                90
_cell_angle_beta                 102.488(5)
_cell_angle_gamma                90
_cell_volume                     2428.39
loop_
_atom_site_label
_atom_site_type_symbol
_atom_site_fract_x
_atom_site_fract_y
_atom_site_fract_z
Mg1 Mg 0.0000 0.89952(8) 0.2500
Mg2 Mg 0.08363(4) 0.96206(6) 0.03915(7)
O1 O 0.07480(8) 1.01664(13) 0.21787(13)
O2 O 0.13136(9) 1.09158(13) 0.39792(14)
O3 O 0.35699(9) 1.33009(13) 0.37266(14)
O4 O 0.41775(9) 1.28566(13) 0.22361(14)
O5 O -0.02116(9) 0.91099(14) 0.05417(14)
H1 H -0.0384(17) 0.854(2) 0.032(3)
N1 N 0.18421(11) 1.06571(16) 0.10975(17)
C1 C 0.18864(13) 1.10687(18) 0.2249(2)
C2 C 0.24546(13) 1.1744(2) 0.2833(2)
H2 H 0.2455(16) 1.202(2) 0.358(3)
C3 C 0.30230(13) 1.20078(19) 0.2221(2)
C4 C 0.29954(14) 1.1558(2) 0.1063(2)
H3 H 0.3378(15) 1.171(2) 0.065(2)
C5 C 0.23984(14) 1.0903(2) 0.0535(2)
H4 H 0.2341(13) 1.0598(19) -0.027(2)
C6 C 0.12621(13) 1.06946(18) 0.2863(2)
C7 C 0.36422(13) 1.27819(19) 0.2785(2)
Mg2A Mg -0.08363(4) 0.96206(6) 0.46085(7)
O1A O -0.07480(8) 1.01664(13) 0.28213(13)
O2A O -0.13136(9) 1.09158(13) 0.10208(14)
O3A O -0.35699(9) 1.33009(13) 0.12734(14)
O4A O -0.41775(9) 1.28566(13) 0.27639(14)
O5A O 0.02116(9) 0.91099(14) 0.44583(14)
H1A H 0.0384(17) 0.854(2) 0.468(3)
N1A N -0.18421(11) 1.06571(16) 0.39025(17)
C1A C -0.18864(13) 1.10687(18) 0.2751(2)
C2A C -0.24546(13) 1.1744(2) 0.2167(2)
H2A H -0.2455(16) 1.202(2) 0.142(3)
C3A C -0.30230(13) 1.20078(19) 0.2779(2)
C4A C -0.29954(14) 1.1558(2) 0.3937(2)
H3A H -0.3378(15) 1.171(2) 0.435(2)
C5A C -0.23984(14) 1.0903(2) 0.4465(2)
H4A H -0.2341(13) 1.0598(19) 0.527(2)
C6A C -0.12621(13) 1.06946(18) 0.2137(2)
C7A C -0.36422(13) 1.27819(19) 0.2215(2)
Mg1B Mg -0.5000 1.39952(8) 0.2500
Mg1B_2 Mg 0.5000 1.39952(8) 0.2500
Mg2B Mg -0.41637(4) 1.46206(6) 0.03915(7)
Mg2C Mg 0.41637(4) 1.46206(6) 0.46085(7)
Mg2D Mg -0.08363(4) 1.03794(6) -0.03915(7)
Mg2E Mg 0.08363(4) 1.03794(6) 0.53915(7)
O2D O -0.13136(9) 0.90842(13) 0.60208(14)
O2E O 0.13136(9) 0.90842(13) -0.10208(14)
O3B O -0.14301(9) 0.83009(13) 0.37266(14)
O3C O 0.14301(9) 0.83009(13) 0.12734(14)
O4B O -0.08225(9) 0.78566(13) 0.22361(14)
O4C O 0.08225(9) 0.78566(13) 0.27639(14)
O5D O 0.02116(9) 1.08901(14) -0.05417(14)
O5E O -0.02116(9) 1.08901(14) 0.55417(14)
loop_
_geom_bond_atom_site_label_1
_geom_bond_atom_site_label_2
_geom_bond_site_symmetry_1
_geom_bond_site_symmetry_2
Mg1 O1 1_555 1_555
Mg2 O1 1_555 1_555
O1 C6 1_555 1_555
O2 C6 1_555 1_555
O3 C7 1_555 1_555
O4 C7 1_555 1_555
O5 Mg1 1_555 1_555
H1 O5 1_555 1_555
N1 Mg2 1_555 1_555
C1 N1 1_555 1_555
C2 C1 1_555 1_555
H2 C2 1_555 1_555
C3 C2 1_555 1_555
C4 C3 1_555 1_555
H3 C4 1_555 1_555
C5 N1 1_555 1_555
H4 C5 1_555 1_555
C6 C1 1_555 1_555
C7 C3 1_555 1_555
Mg2A O1A 1_555 1_555
O1A Mg1 1_555 1_555
O2A C6A 1_555 1_555
O3A C7A 1_555 1_555
O4A C7A 1_555 1_555
O5A Mg1 1_555 1_555
H1A O5A 1_555 1_555
N1A Mg2A 1_555 1_555
C1A N1A 1_555 1_555
C2A C1A 1_555 1_555
H2A C2A 1_555 1_555
C3A C2A 1_555 1_555
C4A C3A 1_555 1_555
H3A C4A 1_555 1_555
C5A N1A 1_555 1_555
H4A C5A 1_555 1_555
C6A O1A 1_555 1_555
C7A C3A 1_555 1_555
Mg1B O4A 1_555 1_555
Mg1B_2 O4 1_555 1_555
Mg2B O3A 1_555 1_555
Mg2C O3 1_555 1_555
Mg2D O5 1_555 1_555
Mg2E O2 1_555 1_555
O2D Mg2A 1_555 1_555
O2E Mg2 1_555 1_555
O3B Mg2A 1_555 1_555
O3C Mg2 1_555 1_555
O4B Mg1 1_555 1_555
O4C Mg1 1_555 1_555
O5D Mg2 1_555 1_555
O5E Mg2A 1_555 1_555
Mg2 O5 1_555 1_555
C4 C5 1_555 1_555
Mg2A O5A 1_555 1_555
O2A Mg2D 1_555 1_555
O5A Mg2E 1_555 1_555
C1A C6A 1_555 1_555
C4A C5A 1_555 1_555
Mg2D O5D 1_555 1_555
Mg2E O5E 1_555 1_555

#END
