
#######################################################################
#
#                 Cambridge Crystallographic Data Centre
#                                CCDC 
#
#######################################################################
#
# If this CIF has been generated from an entry in the Cambridge 
# Structural Database, then it will include bibliographic, chemical, 
# crystal, experimental, refinement or atomic coordinate data resulting 
# from the CCDC's data processing and validation procedures.
#
#######################################################################

data_NUDMAC
_chemical_formula_moiety         '(C20 H14 Mg3 N2 O10)n'
_symmetry_cell_setting           monoclinic
_symmetry_space_group_name_H-M   'C 2/c'
_symmetry_Int_Tables_number      15
_space_group_name_Hall           '-C 2yc'
loop_
_symmetry_equiv_pos_site_id
_symmetry_equiv_pos_as_xyz
1 x,y,z
2 -x,y,1/2-z
3 1/2+x,1/2+y,z
4 1/2-x,1/2+y,1/2-z
5 -x,-y,-z
6 x,-y,1/2+z
7 1/2-x,1/2-y,-z
8 1/2+x,1/2-y,1/2+z
_cell_length_a                   17.9958(16)
_cell_length_b                   12.8531(10)
_cell_length_c                   11.0394(9)
_cell_angle_alpha                90
_cell_angle_beta                 103.588(4)
_cell_angle_gamma                90
_cell_volume                     2481.96
loop_
_atom_site_label
_atom_site_type_symbol
_atom_site_fract_x
_atom_site_fract_y
_atom_site_fract_z
Mg1 Mg 0.41464(3) 0.53577(5) 0.45809(5)
Mg2 Mg 0.5000 0.59773(6) 0.2500
O1 O 0.52131(7) 0.58608(10) 0.44628(12)
H1 H 0.5372(13) 0.6362(18) 0.474(2)
O2 O 0.36506(7) 0.41384(10) 0.09729(11)
O3 O 0.08303(7) 0.20798(10) 0.27519(12)
O4 O 0.14517(8) 0.16520(10) 0.12839(12)
O5 O 0.42330(7) 0.48576(9) 0.27891(11)
C1 C 0.30926(10) 0.39449(14) 0.27046(16)
N1 N 0.31386(9) 0.43302(11) 0.38578(14)
C2 C 0.13655(11) 0.21628(14) 0.22092(17)
C3 C 0.25285(11) 0.32559(14) 0.21243(17)
H2 H 0.2539(12) 0.2994(16) 0.132(2)
C4 C 0.19803(10) 0.29536(14) 0.27529(17)
C5 C 0.20159(11) 0.33673(15) 0.39237(18)
H3 H 0.1646(12) 0.3194(14) 0.4360(18)
C6 C 0.37057(10) 0.43374(13) 0.20905(16)
C7 C 0.26001(11) 0.40442(15) 0.44415(18)
H4 H 0.2641(12) 0.4341(16) 0.526(2)
Mg1A Mg 0.58536(3) 0.53577(5) 0.04191(5)
O1A O 0.47869(7) 0.58608(10) 0.05372(12)
H1A H 0.4628(13) 0.6362(18) 0.026(2)
O2A O 0.63494(7) 0.41384(10) 0.40271(11)
O3A O 0.91697(7) 0.20798(10) 0.22481(12)
O4A O 0.85483(8) 0.16520(10) 0.37161(12)
O5A O 0.57670(7) 0.48576(9) 0.22109(11)
C1A C 0.69074(10) 0.39449(14) 0.22954(16)
N1A N 0.68614(9) 0.43302(11) 0.11422(14)
C2A C 0.86345(11) 0.21628(14) 0.27908(17)
C3A C 0.74715(11) 0.32559(14) 0.28757(17)
H2A H 0.7461(12) 0.2994(16) 0.368(2)
C4A C 0.80197(10) 0.29536(14) 0.22471(17)
C5A C 0.79841(11) 0.33673(15) 0.10763(18)
H3A H 0.8354(12) 0.3194(14) 0.0640(18)
C6A C 0.62943(10) 0.43374(13) 0.29095(16)
C7A C 0.73999(11) 0.40442(15) 0.05585(18)
H4A H 0.7359(12) 0.4341(16) -0.026(2)
Mg1B Mg 0.91464(3) 0.03577(5) 0.45809(5)
Mg1C Mg 0.08536(3) 0.03577(5) 0.04191(5)
Mg1D Mg 0.58536(3) 0.46423(5) 0.54191(5)
Mg1E Mg 0.41464(3) 0.46423(5) -0.04191(5)
Mg2B Mg 0.0000 0.09773(6) 0.2500
Mg2B_2 Mg 1.0000 0.09773(6) 0.2500
O1D O 0.47869(7) 0.41392(10) 0.55372(12)
O1E O 0.52131(7) 0.41392(10) -0.05372(12)
O2D O 0.63494(7) 0.58616(10) -0.09729(11)
O2E O 0.36506(7) 0.58616(10) 0.59729(11)
O3B O 0.58303(7) 0.70798(10) 0.27519(12)
O3C O 0.41697(7) 0.70798(10) 0.22481(12)
O4B O 0.64517(8) 0.66520(10) 0.12839(12)
O4C O 0.35483(8) 0.66520(10) 0.37161(12)
C8 C 0.4854(5) 0.0846(6) 0.5653(11)
C9 C 0.4429(8) 0.0726(12) 0.4430(16)
C10 C 0.4580(5) -0.0155(7) 0.3802(9)
H5 H 0.4064 0.1212 0.4054
H6 H 0.4752 0.1411 0.6116
H7 H 0.4293 -0.0282 0.2999
C8D C 0.5146(5) -0.0846(6) 0.4347(11)
C9D C 0.5571(8) -0.0726(12) 0.5570(16)
C10D C 0.5420(5) 0.0155(7) 0.6198(9)
H5D H 0.5936 -0.1212 0.5946
H6D H 0.5248 -0.1411 0.3884
H7D H 0.5707 0.0282 0.7001
loop_
_geom_bond_atom_site_label_1
_geom_bond_atom_site_label_2
_geom_bond_site_symmetry_1
_geom_bond_site_symmetry_2
Mg1 O1 1_555 1_555
Mg2 O1 1_555 1_555
O1 H1 1_555 1_555
O2 C6 1_555 1_555
O3 C2 1_555 1_555
O4 C2 1_555 1_555
O5 Mg1 1_555 1_555
C1 N1 1_555 1_555
N1 Mg1 1_555 1_555
C2 C4 1_555 1_555
C3 C1 1_555 1_555
H2 C3 1_555 1_555
C4 C3 1_555 1_555
C5 C4 1_555 1_555
H3 C5 1_555 1_555
C6 O5 1_555 1_555
C7 N1 1_555 1_555
H4 C7 1_555 1_555
C8 C9 1_555 1_555
C9 C10 1_555 1_555
C10 H7 1_555 1_555
H5 C9 1_555 1_555
H6 C8 1_555 1_555
Mg1A O1A 1_555 1_555
O1A Mg2 1_555 1_555
H1A O1A 1_555 1_555
O2A C6A 1_555 1_555
O3A C2A 1_555 1_555
O4A C2A 1_555 1_555
O5A Mg2 1_555 1_555
C1A N1A 1_555 1_555
N1A Mg1A 1_555 1_555
C2A C4A 1_555 1_555
C3A C1A 1_555 1_555
H2A C3A 1_555 1_555
C4A C3A 1_555 1_555
C5A C4A 1_555 1_555
H3A C5A 1_555 1_555
C6A O5A 1_555 1_555
C7A N1A 1_555 1_555
H4A C7A 1_555 1_555
Mg1B O4A 1_555 1_555
Mg1C O4 1_555 1_555
Mg1D O1 1_555 1_555
Mg1E O2 1_555 1_555
Mg2B O3 1_555 1_555
Mg2B_2 O3A 1_555 1_555
O1D Mg1 1_555 1_555
O1E Mg1A 1_555 1_555
O2D Mg1A 1_555 1_555
O2E Mg1 1_555 1_555
O3B Mg2 1_555 1_555
O3C Mg2 1_555 1_555
O4B Mg1A 1_555 1_555
O4C Mg1 1_555 1_555
C8D C10 1_555 1_555
C9D C8D 1_555 1_555
C10D C8 1_555 1_555
H5D C9D 1_555 1_555
H6D C8D 1_555 1_555
H7D C10D 1_555 1_555
Mg2 O5 1_555 1_555
C1 C6 1_555 1_555
C5 C7 1_555 1_555
Mg1A O5A 1_555 1_555
O1A Mg1E 1_555 1_555
O2A Mg1D 1_555 1_555
C1A C6A 1_555 1_555
C5A C7A 1_555 1_555
Mg1D O1D 1_555 1_555
Mg1E O1E 1_555 1_555
C9D C10D 1_555 1_555

#END
