
#######################################################################
#
#                 Cambridge Crystallographic Data Centre
#                                CCDC 
#
#######################################################################
#
# If this CIF has been generated from an entry in the Cambridge 
# Structural Database, then it will include bibliographic, chemical, 
# crystal, experimental, refinement or atomic coordinate data resulting 
# from the CCDC's data processing and validation procedures.
#
#######################################################################

data_NUDMOQ
_chemical_formula_moiety         '(C21 H16 Mg3 N2 O10)n'
_symmetry_cell_setting           monoclinic
_symmetry_space_group_name_H-M   'C 2/c'
_symmetry_Int_Tables_number      15
_space_group_name_Hall           '-C 2yc'
loop_
_symmetry_equiv_pos_site_id
_symmetry_equiv_pos_as_xyz
1 x,y,z
2 -x,y,1/2-z
3 1/2+x,1/2+y,z
4 1/2-x,1/2+y,1/2-z
5 -x,-y,-z
6 x,-y,1/2+z
7 1/2-x,1/2-y,-z
8 1/2+x,1/2-y,1/2+z
_cell_length_a                   17.8074(7)
_cell_length_b                   13.1145(6)
_cell_length_c                   11.0514(5)
_cell_angle_alpha                90
_cell_angle_beta                 103.844(3)
_cell_angle_gamma                90
_cell_volume                     2505.92
loop_
_atom_site_label
_atom_site_type_symbol
_atom_site_fract_x
_atom_site_fract_y
_atom_site_fract_z
Mg1 Mg 0.58662(5) 0.03403(8) 0.54347(9)
Mg2 Mg 0.5000 0.09502(11) 0.7500
N1 N 0.68677(15) -0.0688(2) 0.6155(2)
O1 O 0.57715(12) -0.01514(17) 0.72229(19)
O2 O 0.63585(12) -0.08556(17) 0.90432(19)
O3 O 0.85157(13) -0.34056(19) 0.8676(2)
O4 O 0.91611(12) -0.29686(17) 0.7240(2)
O5 O 0.47874(12) 0.08445(17) 0.5538(2)
H1 H 0.467(4) 0.136(5) 0.528(6)
C1 C 0.69094(17) -0.1074(3) 0.7303(3)
C2 C 0.74621(19) -0.1780(3) 0.7874(3)
H2 H 0.747(3) -0.201(3) 0.877(4)
C3 C 0.80081(18) -0.2097(3) 0.7238(3)
C4 C 0.79819(19) -0.1677(3) 0.6073(3)
H3 H 0.835(2) -0.192(3) 0.555(4)
C5 C 0.74046(19) -0.0988(3) 0.5565(3)
H4 H 0.734(2) -0.070(3) 0.475(3)
C6 C 0.63005(17) -0.0667(2) 0.7921(3)
C7 C 0.86140(18) -0.2892(2) 0.7772(3)
Mg1A Mg 0.41338(5) 0.03403(8) 0.95653(9)
N1A N 0.31323(15) -0.0688(2) 0.8845(2)
O1A O 0.42285(12) -0.01514(17) 0.77771(19)
O2A O 0.36415(12) -0.08556(17) 0.59568(19)
O3A O 0.14843(13) -0.34056(19) 0.6324(2)
O4A O 0.08389(12) -0.29686(17) 0.7760(2)
O5A O 0.52126(12) 0.08445(17) 0.9462(2)
H1A H 0.533(4) 0.136(5) 0.972(6)
C1A C 0.30906(17) -0.1074(3) 0.7697(3)
C2A C 0.25379(19) -0.1780(3) 0.7126(3)
H2A H 0.253(3) -0.201(3) 0.623(4)
C3A C 0.19919(18) -0.2097(3) 0.7762(3)
C4A C 0.20181(19) -0.1677(3) 0.8927(3)
H3A H 0.165(2) -0.192(3) 0.945(4)
C5A C 0.25954(19) -0.0988(3) 0.9435(3)
H4A H 0.266(2) -0.070(3) 1.025(3)
C6A C 0.36995(17) -0.0667(2) 0.7079(3)
C7A C 0.13860(18) -0.2892(2) 0.7228(3)
Mg1B Mg 0.08662(5) -0.46597(8) 0.54347(9)
Mg1C Mg 0.91338(5) -0.46597(8) 0.95653(9)
Mg1D Mg 0.41338(5) -0.03403(8) 0.45653(9)
Mg1E Mg 0.58662(5) -0.03403(8) 1.04347(9)
Mg2B Mg -0.0000 -0.40498(11) 0.7500
Mg2B_2 Mg 1.0000 -0.40498(11) 0.7500
O2D O 0.36415(12) 0.08556(17) 1.09568(19)
O2E O 0.63585(12) 0.08556(17) 0.40432(19)
O3B O 0.35157(13) 0.15944(19) 0.8676(2)
O3C O 0.64843(13) 0.15944(19) 0.6324(2)
O4B O 0.41611(12) 0.20314(17) 0.7240(2)
O4C O 0.58389(12) 0.20314(17) 0.7760(2)
O5D O 0.52126(12) -0.08445(17) 0.4462(2)
O5E O 0.47874(12) -0.08445(17) 1.0538(2)
C8 C 0.6048(5) -0.3520(7) 0.7753(8)
C9 C 0.5418(5) -0.2898(7) 0.7323(9)
C10 C 0.4998(5) -0.2935(7) 0.6113(10)
H5 H 0.4571 -0.2491 0.5832
C11 C 0.5237(5) -0.3737(14) 0.5175(12)
H6 H 0.4970 -0.3829 0.4328
C12 C 0.5795(6) -0.4200(6) 0.5689(9)
H7 H 0.5958 -0.4683 0.5165
C13 C 0.6264(5) -0.4186(6) 0.6903(8)
H8 H 0.6708 -0.4608 0.7140
C14 C 0.6501(6) -0.3540(7) 0.9096(8)
H9 H 0.6922 -0.4037 0.9192
H10 H 0.6157 -0.3734 0.9630
H11 H 0.6717 -0.2862 0.9336
loop_
_geom_bond_atom_site_label_1
_geom_bond_atom_site_label_2
_geom_bond_site_symmetry_1
_geom_bond_site_symmetry_2
Mg1 N1 1_555 1_555
Mg2 O1 1_555 1_555
N1 C1 1_555 1_555
O1 Mg1 1_555 1_555
O2 C6 1_555 1_555
O3 C7 1_555 1_555
O4 C7 1_555 1_555
O5 Mg1 1_555 1_555
H1 O5 1_555 1_555
C1 C2 1_555 1_555
C2 H2 1_555 1_555
C3 C2 1_555 1_555
C4 C3 1_555 1_555
H3 C4 1_555 1_555
C5 N1 1_555 1_555
H4 C5 1_555 1_555
C6 O1 1_555 1_555
C7 C3 1_555 1_555
C8 C9 1_555 1_555
C9 C10 1_555 1_555
C10 H5 1_555 1_555
C11 C10 1_555 1_555
H6 C11 1_555 1_555
C12 C11 1_555 1_555
H7 C12 1_555 1_555
C13 C8 1_555 1_555
H8 C13 1_555 1_555
C14 C8 1_555 1_555
H9 C14 1_555 1_555
H10 C14 1_555 1_555
H11 C14 1_555 1_555
Mg1A N1A 1_555 1_555
N1A C1A 1_555 1_555
O1A Mg2 1_555 1_555
O2A C6A 1_555 1_555
O3A C7A 1_555 1_555
O4A C7A 1_555 1_555
O5A Mg2 1_555 1_555
H1A O5A 1_555 1_555
C1A C2A 1_555 1_555
C2A H2A 1_555 1_555
C3A C2A 1_555 1_555
C4A C3A 1_555 1_555
H3A C4A 1_555 1_555
C5A N1A 1_555 1_555
H4A C5A 1_555 1_555
C6A O1A 1_555 1_555
C7A C3A 1_555 1_555
Mg1B O3A 1_555 1_555
Mg1C O3 1_555 1_555
Mg1D O5 1_555 1_555
Mg1E O2 1_555 1_555
Mg2B O4A 1_555 1_555
Mg2B_2 O4 1_555 1_555
O2D Mg1A 1_555 1_555
O2E Mg1 1_555 1_555
O3B Mg1A 1_555 1_555
O3C Mg1 1_555 1_555
O4B Mg2 1_555 1_555
O4C Mg2 1_555 1_555
O5D Mg1 1_555 1_555
O5E Mg1A 1_555 1_555
Mg2 O5 1_555 1_555
C1 C6 1_555 1_555
C4 C5 1_555 1_555
C12 C13 1_555 1_555
Mg1A O1A 1_555 1_555
Mg1A O5A 1_555 1_555
O2A Mg1D 1_555 1_555
O5A Mg1E 1_555 1_555
C1A C6A 1_555 1_555
C4A C5A 1_555 1_555
Mg1D O5D 1_555 1_555
Mg1E O5E 1_555 1_555

#END
