
#######################################################################
#
#                 Cambridge Crystallographic Data Centre
#                                CCDC 
#
#######################################################################
#
# If this CIF has been generated from an entry in the Cambridge 
# Structural Database, then it will include bibliographic, chemical, 
# crystal, experimental, refinement or atomic coordinate data resulting 
# from the CCDC's data processing and validation procedures.
#
#######################################################################

data_NIMQAC
_chemical_formula_moiety         'C30 H24 Cu3 N3 O17'
_symmetry_cell_setting           monoclinic
_symmetry_space_group_name_H-M   'C 2/c'
_symmetry_Int_Tables_number      15
_space_group_name_Hall           '-C 2yc'
loop_
_symmetry_equiv_pos_site_id
_symmetry_equiv_pos_as_xyz
1 x,y,z
2 -x,y,1/2-z
3 1/2+x,1/2+y,z
4 1/2-x,1/2+y,1/2-z
5 -x,-y,-z
6 x,-y,1/2+z
7 1/2-x,1/2-y,-z
8 1/2+x,1/2-y,1/2+z
_cell_length_a                   17.859(3)
_cell_length_b                   17.086(3)
_cell_length_c                   7.9378(15)
_cell_angle_alpha                90
_cell_angle_beta                 111.577(3)
_cell_angle_gamma                90
_cell_volume                     2252.4
loop_
_atom_site_label
_atom_site_type_symbol
_atom_site_fract_x
_atom_site_fract_y
_atom_site_fract_z
_atom_site_U_iso_or_equiv
_atom_site_thermal_displace_type
O7 O 0.1885(8) 0.0682(7) 0.4297(15) 0.1111 Uani
O8 O 0.0000 0.997(3) 0.2500 0.1559 Uani
Cu1 Cu 0.2500 0.2500 0.0000 0.0520 Uani
O1 O 0.3234(12) 0.1905(9) 0.208(2) 0.0350 Uani
O2 O 0.2594(10) 0.0927(9) 0.016(2) 0.0821 Uani
O3 O 0.4298(14) 0.0745(10) 0.391(4) 0.0667 Uani
O4 O 0.2428(9) 0.0710(8) 0.069(2) 0.0970 Uani
O5 O 0.3163(12) 0.1711(9) 0.166(2) 0.0382 Uani
C1 C 0.313(2) 0.1229(12) 0.167(5) 0.0619 Uani
C2 C 0.3708(18) 0.059(2) 0.288(3) 0.0382 Uani
C3 C 0.4492(17) 0.0982(13) 0.394(4) 0.0417 Uani
H1 H 0.4537 0.1541 0.3889 0.0500 Uiso
C4 C 0.5185(10) 0.0518(10) 0.509(2) 0.0439 Uani
H2 H 0.5681 0.0773 0.5789 0.0530 Uiso
C5 C 0.4904(8) 0.0259(7) 0.4866(18) 0.0355 Uani
C6 C 0.5610(8) 0.0617(8) 0.5844(19) 0.0614 Uani
H3 H 0.5655 0.1176 0.5796 0.0740 Uiso
C7 C 0.3741(8) -0.0187(8) 0.3087(18) 0.0573 Uani
H4 H 0.3245 -0.0442 0.2384 0.0690 Uiso
C8 C 0.367(2) 0.037(3) 0.269(5) 0.0988 Uani
H5 H 0.3794 0.0013 0.1905 0.1200 Uiso
H6 H 0.3403 0.0093 0.3363 0.1200 Uiso
C9 C 0.305(2) 0.1011(16) 0.155(4) 0.0344 Uani
N1 N 0.1606(3) 0.2391(2) 0.0943(6) 0.0431 Uani
C10 C 0.1704(3) 0.2578(4) 0.2621(8) 0.0688 Uani
H7 H 0.2214 0.2733 0.3392 0.0820 Uiso
C11 C 0.1094(4) 0.2557(4) 0.3307(8) 0.0651 Uani
H8 H 0.1196 0.2696 0.4504 0.0780 Uiso
C12 C 0.0342(3) 0.2328(3) 0.2196(6) 0.0385 Uani
C13 C 0.0243(4) 0.2123(5) 0.0440(8) 0.0639 Uani
H9 H -0.0256 0.1956 -0.0364 0.0770 Uiso
C14 C 0.0889(4) 0.2170(4) -0.0108(8) 0.0620 Uani
H10 H 0.0808 0.2036 -0.1298 0.0750 Uiso
O6 O 0.1700(4) 0.1393(4) -0.2741(11) 0.1335 Uani
Cu1B Cu 0.7500 -0.2500 1.0000 0.0520 Uani
Cu1A Cu -0.2500 0.2500 0.5000 0.0520 Uani
O1D O 0.6766(12) -0.1905(9) 0.792(2) 0.0350 Uani
O1F O 0.1766(12) 0.3095(9) -0.208(2) 0.0350 Uani
O2D O 0.7406(10) -0.0927(9) 0.984(2) 0.0821 Uani
O2F O 0.2406(10) 0.4073(9) -0.016(2) 0.0821 Uani
O3D O 0.5702(14) -0.0745(10) 0.609(4) 0.0667 Uani
O4D O 0.7572(9) -0.0710(8) 0.931(2) 0.0970 Uani
O5D O 0.6837(12) -0.1711(9) 0.834(2) 0.0382 Uani
O5F O 0.1837(12) 0.3289(9) -0.166(2) 0.0382 Uani
C1D C 0.687(2) -0.1229(12) 0.833(5) 0.0619 Uani
C1F C 0.187(2) 0.3771(12) -0.167(5) 0.0619 Uani
C2D C 0.6292(18) -0.059(2) 0.712(3) 0.0382 Uani
C3D C 0.5508(17) -0.0982(13) 0.606(4) 0.0417 Uani
H1D H 0.5463 -0.1541 0.6111 0.0500 Uiso
C4D C 0.4815(10) -0.0518(10) 0.491(2) 0.0439 Uani
H2D H 0.4319 -0.0773 0.4211 0.0530 Uiso
C5D C 0.5096(8) -0.0259(7) 0.5134(18) 0.0355 Uani
C6D C 0.4390(8) -0.0617(8) 0.4156(19) 0.0614 Uani
H3D H 0.4345 -0.1176 0.4204 0.0740 Uiso
C7D C 0.6259(8) 0.0187(8) 0.6913(18) 0.0573 Uani
H4D H 0.6755 0.0442 0.7616 0.0690 Uiso
C8D C 0.633(2) -0.037(3) 0.731(5) 0.0988 Uani
H5D H 0.6206 -0.0013 0.8095 0.1200 Uiso
H6D H 0.6597 -0.0093 0.6637 0.1200 Uiso
C9D C 0.695(2) -0.1011(16) 0.845(4) 0.0344 Uani
C9F C 0.195(2) 0.3989(16) -0.155(4) 0.0344 Uani
N1A N -0.1606(3) 0.2391(2) 0.4057(6) 0.0431 Uani
N1F N 0.3394(3) 0.2609(2) -0.0943(6) 0.0431 Uani
C10A C -0.1704(3) 0.2578(4) 0.2379(8) 0.0688 Uani
H7A H -0.2214 0.2733 0.1608 0.0820 Uiso
C11A C -0.1094(4) 0.2557(4) 0.1693(8) 0.0651 Uani
H8A H -0.1196 0.2696 0.0496 0.0780 Uiso
C12A C -0.0342(3) 0.2328(3) 0.2804(6) 0.0385 Uani
C13A C -0.0243(4) 0.2123(5) 0.4560(8) 0.0639 Uani
H9A H 0.0256 0.1956 0.5364 0.0770 Uiso
C14A C -0.0889(4) 0.2170(4) 0.5108(8) 0.0620 Uani
H10A H -0.0808 0.2036 0.6298 0.0750 Uiso
O6F O 0.3300(4) 0.3607(4) 0.2741(11) 0.1335 Uani
loop_
_atom_site_aniso_label
_atom_site_aniso_U_11
_atom_site_aniso_U_22
_atom_site_aniso_U_33
_atom_site_aniso_U_23
_atom_site_aniso_U_13
_atom_site_aniso_U_12
O7 0.151(11) 0.100(8) 0.092(7) 0.023(6) 0.056(8) 0.061(8)
O8 0.15(2) 0.15(2) 0.16(2) 0.000 0.048(12) 0.000
Cu1 0.0356(6) 0.0674(7) 0.0683(7) 0.0364(5) 0.0372(5) 0.0253(5)
O1 0.034(5) 0.039(7) 0.034(6) -0.004(5) 0.015(5) 0.008(5)
O2 0.072(7) 0.080(8) 0.082(7) -0.003(6) 0.014(6) 0.015(6)
O3 0.084 0.042 0.069 0.021 0.022 0.019
O4 0.057 0.068 0.124 0.052 -0.016 -0.003
O5 0.041 0.031 0.043 -0.005 0.016 0.001
C1 0.050(13) 0.05(2) 0.074(14) -0.010(15) 0.009(9) 0.007(16)
C2 0.049(12) 0.047(10) 0.019(7) 0.017(6) 0.013(8) 0.034(8)
C3 0.047(11) 0.023(10) 0.045(8) 0.016(8) 0.005(7) 0.015(8)
C4 0.025(8) 0.043(7) 0.054(8) -0.003(6) 0.003(6) -0.005(6)
C5 0.019 0.038 0.038 0.01 -0.003 0.01
C6 0.055 0.029 0.083 0 0.005 -0.003
C7 0.046(7) 0.047(8) 0.062(8) 0.005(6) 0.000(6) 0.002(6)
C8 0.08 0.11 0.09 0.02 0.012 0.04
C9 0.034 0.033 0.034 0.005 0.01 0.008
N1 0.029(2) 0.062(3) 0.046(2) 0.016(2) 0.0229(19) 0.0117(19)
C10 0.021(3) 0.137(7) 0.047(3) 0.007(4) 0.011(2) 0.000(3)
C11 0.032(3) 0.133(6) 0.033(3) -0.002(3) 0.015(2) -0.005(3)
C12 0.031(3) 0.050(3) 0.039(3) 0.004(2) 0.018(2) 0.000(2)
C13 0.038(3) 0.111(5) 0.051(3) -0.026(4) 0.026(3) -0.020(3)
C14 0.052(4) 0.098(5) 0.049(3) -0.017(3) 0.034(3) -0.013(3)
O6 0.12 0.123 0.181 0.048 0.083 0.037
Cu1B 0.0356 0.0674 0.0683 0.0364 0.0372 0.0253
Cu1A 0.0356 0.0674 0.0683 -0.0364 0.0372 -0.0253
O1D 0.034 0.039 0.034 -0.004 0.015 0.008
O1F 0.034 0.039 0.034 -0.004 0.015 0.008
O2D 0.072 0.08 0.082 -0.003 0.014 0.015
O2F 0.072 0.08 0.082 -0.003 0.014 0.015
O3D 0.084(15) 0.042(11) 0.069(8) 0.021(9) 0.022(10) 0.019(9)
O4D 0.057(8) 0.068(7) 0.124(12) 0.052(7) -0.016(7) -0.003(6)
O5D 0.041(6) 0.031(8) 0.043(7) -0.005(6) 0.016(5) 0.001(6)
O5F 0.041 0.031 0.043 -0.005 0.016 0.001
C1D 0.05 0.05 0.074 -0.01 0.009 0.007
C1F 0.05 0.05 0.074 -0.01 0.009 0.007
C2D 0.049 0.047 0.019 0.017 0.013 0.034
C3D 0.047 0.023 0.045 0.016 0.005 0.015
C4D 0.025 0.043 0.054 -0.003 0.003 -0.005
C5D 0.019(8) 0.038(9) 0.038(7) 0.010(7) -0.003(6) 0.010(6)
C6D 0.055(9) 0.029(6) 0.083(10) 0.000(6) 0.005(8) -0.003(7)
C7D 0.046 0.047 0.062 0.005 0 0.002
C8D 0.080(19) 0.11(4) 0.09(2) 0.02(2) 0.012(15) 0.04(2)
C9D 0.034(8) 0.033(7) 0.034(8) 0.005(6) 0.010(6) 0.008(7)
C9F 0.034 0.033 0.034 0.005 0.01 0.008
N1A 0.029 0.062 0.046 -0.016 0.0229 -0.0117
N1F 0.029 0.062 0.046 0.016 0.0229 0.0117
C10A 0.021 0.137 0.047 -0.007 0.011 0
C11A 0.032 0.133 0.033 0.002 0.015 0.005
C12A 0.031 0.05 0.039 -0.004 0.018 0
C13A 0.038 0.111 0.051 0.026 0.026 0.02
C14A 0.052 0.098 0.049 0.017 0.034 0.013
O6F 0.12 0.123 0.181 0.048 0.083 0.037
loop_
_geom_bond_atom_site_label_1
_geom_bond_atom_site_label_2
_geom_bond_site_symmetry_1
_geom_bond_site_symmetry_2
Cu1 O1 1_555 1_555
O1 O5 1_555 1_555
O2 Cu1 1_555 1_555
O3 C2 1_555 1_555
O4 O2 1_555 1_555
O5 Cu1 1_555 1_555
C1 O1 1_555 1_555
C2 C1 1_555 1_555
C3 O3 1_555 1_555
H1 O3 1_555 1_555
C4 O3 1_555 1_555
H2 C4 1_555 1_555
C5 O3 1_555 1_555
C6 C4 1_555 1_555
H3 C4 1_555 1_555
C7 O3 1_555 1_555
H4 C7 1_555 1_555
C8 O3 1_555 1_555
H5 C2 1_555 1_555
H6 C2 1_555 1_555
C9 O1 1_555 1_555
N1 Cu1 1_555 1_555
C10 N1 1_555 1_555
H7 C10 1_555 1_555
C11 C10 1_555 1_555
H8 C11 1_555 1_555
C12 C11 1_555 1_555
C13 C12 1_555 1_555
H9 C13 1_555 1_555
C14 N1 1_555 1_555
H10 C14 1_555 1_555
O6 Cu1 1_555 1_555
Cu1B O1D 1_555 1_555
Cu1A N1A 1_555 1_555
O1D O5D 1_555 1_555
O1F Cu1 1_555 1_555
O2D Cu1B 1_555 1_555
O2F Cu1 1_555 1_555
O3D C2D 1_555 1_555
O4D O2D 1_555 1_555
O5D Cu1B 1_555 1_555
O5F Cu1 1_555 1_555
C1D O1D 1_555 1_555
C1F O1F 1_555 1_555
C2D C1D 1_555 1_555
C3D O3D 1_555 1_555
H1D O3D 1_555 1_555
C4D C5 1_555 1_555
H2D C4D 1_555 1_555
C5D C4 1_555 1_555
C6D C5 1_555 1_555
H3D C4D 1_555 1_555
C7D C6 1_555 1_555
H4D C7D 1_555 1_555
C8D O3D 1_555 1_555
H5D C2D 1_555 1_555
H6D C2D 1_555 1_555
C9D O1D 1_555 1_555
C9F O1F 1_555 1_555
N1A C10A 1_555 1_555
N1F Cu1 1_555 1_555
C10A H7A 1_555 1_555
C11A C10A 1_555 1_555
H8A C11A 1_555 1_555
C12A C12 1_555 1_555
C13A C12A 1_555 1_555
H9A C13A 1_555 1_555
C14A N1A 1_555 1_555
H10A C14A 1_555 1_555
O6F Cu1 1_555 1_555
O2 O5 1_555 1_555
O2 C1 1_555 1_555
O2 C9 1_555 1_555
O4 C1 1_555 1_555
O4 C9 1_555 1_555
O5 C1 1_555 1_555
O5 C9 1_555 1_555
C1 C8 1_555 1_555
C1 C9 1_555 1_555
C2 C3 1_555 1_555
C2 C7 1_555 1_555
C2 C8 1_555 1_555
C2 C9 1_555 1_555
C3 H1 1_555 1_555
C3 C4 1_555 1_555
C3 C5 1_555 1_555
C3 C8 1_555 1_555
C4 C5 1_555 1_555
H2 C6 1_555 1_555
H2 H3 1_555 1_555
C5 C6 1_555 1_555
C5 C5D 1_555 1_555
C6 H3 1_555 1_555
C6 C5D 1_555 1_555
C7 C8 1_555 1_555
C7 H5 1_555 1_555
C7 H6 1_555 1_555
C7 C6D 1_555 1_555
C8 H5 1_555 1_555
C8 H6 1_555 1_555
C8 C9 1_555 1_555
C13 C14 1_555 1_555
O1F O5F 1_555 1_555
O2D O5D 1_555 1_555
O2D C1D 1_555 1_555
O2D C9D 1_555 1_555
O2F O5F 1_555 1_555
O2F C1F 1_555 1_555
O2F C9F 1_555 1_555
O3D C4D 1_555 1_555
O3D C5D 1_555 1_555
O3D C7D 1_555 1_555
O4D C1D 1_555 1_555
O4D C9D 1_555 1_555
O5D C1D 1_555 1_555
O5D C9D 1_555 1_555
O5F C1F 1_555 1_555
O5F C9F 1_555 1_555
C1D C8D 1_555 1_555
C1D C9D 1_555 1_555
C1F C9F 1_555 1_555
C2D C3D 1_555 1_555
C2D C7D 1_555 1_555
C2D C8D 1_555 1_555
C2D C9D 1_555 1_555
C3D H1D 1_555 1_555
C3D C4D 1_555 1_555
C3D C5D 1_555 1_555
C3D C8D 1_555 1_555
C4D C5D 1_555 1_555
C4D C6D 1_555 1_555
H2D C6D 1_555 1_555
H2D H3D 1_555 1_555
C5D C6D 1_555 1_555
C6D H3D 1_555 1_555
C7D C8D 1_555 1_555
C7D H5D 1_555 1_555
C7D H6D 1_555 1_555
C8D H5D 1_555 1_555
C8D H6D 1_555 1_555
C8D C9D 1_555 1_555
C11A C12A 1_555 1_555
C13A C14A 1_555 1_555

#END
