
#######################################################################
#
#                 Cambridge Crystallographic Data Centre
#                                CCDC 
#
#######################################################################
#
# If this CIF has been generated from an entry in the Cambridge 
# Structural Database, then it will include bibliographic, chemical, 
# crystal, experimental, refinement or atomic coordinate data resulting 
# from the CCDC's data processing and validation procedures.
#
#######################################################################

data_MAQMEZ
_chemical_formula_moiety         '(C57 H49 N5 O11 Zn2)n'
_symmetry_cell_setting           triclinic
_symmetry_space_group_name_H-M   'P -1'
_symmetry_Int_Tables_number      2
_space_group_name_Hall           '-P 1'
loop_
_symmetry_equiv_pos_site_id
_symmetry_equiv_pos_as_xyz
1 x,y,z
2 -x,-y,-z
_cell_length_a                   12.997(3)
_cell_length_b                   13.106(3)
_cell_length_c                   17.213(4)
_cell_angle_alpha                93.895(4)
_cell_angle_beta                 107.639(6)
_cell_angle_gamma                95.018(6)
_cell_volume                     2769.67
loop_
_atom_site_label
_atom_site_type_symbol
_atom_site_fract_x
_atom_site_fract_y
_atom_site_fract_z
C1 C 0.1724(3) 0.5964(3) 0.5792(2)
H1 H 0.1194 0.5402 0.5603
C2 C 0.2507(3) 0.5957(3) 0.6547(2)
H2 H 0.2481 0.5414 0.6863
C3 C 0.3323(3) 0.6766(3) 0.6825(2)
C4 C 0.3292(3) 0.7583(3) 0.6343(3)
H3 H 0.3820 0.8148 0.6517
C5 C 0.2470(3) 0.7549(3) 0.5604(2)
H4 H 0.2452 0.8102 0.5292
C6 C 0.4246(3) 0.6740(3) 0.7599(2)
C7 C 0.5265(3) 0.6543(3) 0.7536(2)
C8 C 0.5453(3) 0.6295(3) 0.6768(3)
H5 H 0.4880 0.6266 0.6284
C9 C 0.6437(4) 0.6102(4) 0.6731(3)
H6 H 0.6533 0.5936 0.6225
C10 C 0.7327(4) 0.6148(5) 0.7452(3)
H7 H 0.8009 0.6034 0.7417
C11 C 0.7195(3) 0.6357(4) 0.8199(3)
H8 H 0.7789 0.6381 0.8668
C12 C 0.6169(3) 0.6540(3) 0.8274(2)
C13 C 0.5986(3) 0.6705(3) 0.9043(2)
C14 C 0.4965(3) 0.6868(4) 0.9102(2)
C15 C 0.4768(4) 0.7036(5) 0.9873(3)
H9 H 0.5335 0.7026 1.0356
C16 C 0.3762(5) 0.7212(6) 0.9914(3)
H10 H 0.3654 0.7324 1.0421
C17 C 0.2887(4) 0.7225(6) 0.9190(3)
H11 H 0.2202 0.7329 0.9222
C18 C 0.3044(4) 0.7084(5) 0.8443(3)
H12 H 0.2463 0.7111 0.7973
C19 C 0.4070(3) 0.6898(4) 0.8363(2)
C20 C 0.6918(3) 0.6663(3) 0.9806(2)
C21 C 0.7646(5) 0.7514(4) 1.0142(3)
H13 H 0.7569 0.8127 0.9899
C22 C 0.8509(4) 0.7456(4) 1.0852(3)
H14 H 0.8996 0.8043 1.1073
C23 C 0.7941(4) 0.5785(3) 1.0899(3)
H15 H 0.8028 0.5182 1.1156
C24 C 0.7069(4) 0.5796(4) 1.0196(3)
H16 H 0.6584 0.5205 0.9991
C25 C 0.0063(3) 0.4668(3) 0.3116(2)
C26 C 0.0067(3) 0.3519(3) 0.3029(2)
C27 C -0.0203(3) 0.2982(3) 0.2242(2)
H17 H -0.0391 0.3340 0.1780
C28 C -0.0189(3) 0.1934(3) 0.2153(2)
H18 H -0.0370 0.1589 0.1631
C29 C 0.0095(3) 0.1374(3) 0.2845(2)
C30 C 0.0371(3) 0.1914(3) 0.3640(2)
C31 C 0.0352(3) 0.2990(3) 0.3715(2)
H19 H 0.0534 0.3346 0.4233
C32 C 0.0657(3) 0.1345(3) 0.4339(2)
H20 H 0.0828 0.1687 0.4861
C33 C 0.0682(3) 0.0311(3) 0.4250(2)
H21 H 0.0887 -0.0045 0.4713
C34 C 0.0397(3) -0.0235(3) 0.3457(2)
C35 C 0.0110(3) 0.0294(3) 0.2770(2)
H22 H -0.0075 -0.0064 0.2253
C36 C 0.8388(2) 0.6619(3) 0.3584(2)
C37 C 0.0360(3) -0.1383(3) 0.3372(2)
C38 C 0.2029(3) 0.6658(3) 0.2948(2)
C39 C 0.3179(3) 0.6630(3) 0.2927(2)
C40 C 0.4003(3) 0.6638(3) 0.3643(2)
H23 H 0.3847 0.6659 0.4136
C41 C 0.5088(3) 0.6615(3) 0.3647(2)
C42 C 0.5311(3) 0.6585(4) 0.2885(2)
C43 C 0.4426(5) 0.6441(11) 0.2142(4)
H24 H 0.4557 0.6322 0.1644
C44 C 0.3385(4) 0.6477(11) 0.2162(3)
H25 H 0.2811 0.6402 0.1675
C45 C 0.6407(3) 0.6596(4) 0.2895(2)
H26 H 0.6563 0.6590 0.2402
C46 C 0.7240(3) 0.6615(3) 0.3607(2)
C47 C 0.7006(3) 0.6605(3) 0.4358(2)
H27 H 0.7566 0.6597 0.4844
C48 C 0.5957(3) 0.6608(3) 0.4371(2)
H28 H 0.5816 0.6605 0.4869
N1 N 0.1698(2) 0.6744(2) 0.53253(16)
N2 N 0.8664(2) 0.6616(2) 1.12213(17)
O1 O 0.04028(19) 0.51202(18) 0.38323(14)
O2 O -0.0272(2) 0.5094(2) 0.24681(15)
O3 O 0.1292(2) 0.6621(3) 0.22784(17)
O4 O 0.18916(19) 0.6719(2) 0.36329(16)
O5 O 0.0072(2) -0.18340(19) 0.26552(15)
O6 O 0.0608(2) -0.18160(18) 0.40261(14)
O7 O 0.85234(18) 0.6658(2) 0.28917(14)
O8 O 0.91283(17) 0.65948(19) 0.42541(14)
Zn1 Zn -0.02435(3) 0.66275(3) 0.23558(2)
Zn2 Zn 0.06664(3) 0.66628(3) 0.41677(2)
N2_2 N -0.1336(2) 0.6616(2) 0.12213(17)
O5_2 O 0.0072(2) 0.81660(19) 0.26552(15)
O6_2 O 0.0608(2) 0.81840(18) 0.40261(14)
O7_2 O -0.14766(18) 0.6658(2) 0.28917(14)
O8_2 O -0.08717(17) 0.65948(19) 0.42541(14)
Zn1_2 Zn -0.02435(3) -0.33725(3) 0.23558(2)
Zn1_3 Zn 0.97565(3) 0.66275(3) 0.23558(2)
Zn1_4 Zn 0.97565(3) 0.66275(3) 1.23558(2)
Zn2_2 Zn 0.06664(3) -0.33372(3) 0.41677(2)
Zn2_3 Zn 1.06664(3) 0.66628(3) 0.41677(2)
C49 C 0.3388(7) 0.1115(5) 0.3755(5)
H29 H 0.3552 0.1725 0.4132
H30 H 0.2658 0.1086 0.3394
H31 H 0.3885 0.1130 0.3440
C50 C 0.3342(6) -0.0755(5) 0.3767(5)
H32 H 0.3353 -0.1276 0.4135
H33 H 0.3915 -0.0816 0.3529
H34 H 0.2655 -0.0842 0.3341
C51 C 0.3726(6) 0.0337(5) 0.5029(4)
H35 H 0.3805 0.0998 0.5289
N3 N 0.3492(4) 0.0224(4) 0.4202(4)
O9 O 0.3837(5) -0.0389(4) 0.5452(4)
C52 C 0.8159(11) 0.1290(10) 0.8677(8)
H36 H 0.8512 0.1918 0.9006
H37 H 0.7397 0.1346 0.8444
H38 H 0.8472 0.1168 0.8245
C53 C 0.8085(16) -0.0571(9) 0.8702(7)
H39 H 0.8642 -0.0978 0.8970
H40 H 0.8087 -0.0517 0.8149
H41 H 0.7390 -0.0893 0.8697
C54 C 0.8752(13) 0.0565(8) 0.9964(5)
H42 H 0.9084 0.1221 1.0192
N4 N 0.8295(8) 0.0487(6) 0.9156(4)
O10 O 0.8816(9) -0.0073(6) 1.0468(4)
C55 C 0.7056(12) 0.8781(15) 0.1937(7)
H43 H 0.7286 0.9299 0.1637
H44 H 0.6414 0.8370 0.1587
H45 H 0.7623 0.8350 0.2125
C56 C 0.7611(6) 0.9529(7) 0.3368(5)
H46 H 0.8101 0.9012 0.3428
H47 H 0.7265 0.9506 0.3787
H48 H 0.8007 1.0196 0.3416
C57 C 0.5722(7) 0.9371(11) 0.2544(9)
H49 H 0.5590 0.9429 0.3046
N5 N 0.6816(6) 0.9343(9) 0.2587(6)
O11 O 0.4913(12) 0.933(2) 0.1937(10)
loop_
_geom_bond_atom_site_label_1
_geom_bond_atom_site_label_2
_geom_bond_site_symmetry_1
_geom_bond_site_symmetry_2
C1 H1 1_555 1_555
C2 C1 1_555 1_555
H2 C2 1_555 1_555
C3 C2 1_555 1_555
C4 C3 1_555 1_555
H3 C4 1_555 1_555
C5 C4 1_555 1_555
H4 C5 1_555 1_555
C6 C3 1_555 1_555
C7 C6 1_555 1_555
C8 C7 1_555 1_555
H5 C8 1_555 1_555
C9 C8 1_555 1_555
H6 C9 1_555 1_555
C10 C9 1_555 1_555
H7 C10 1_555 1_555
C11 C10 1_555 1_555
H8 C11 1_555 1_555
C12 C7 1_555 1_555
C13 C12 1_555 1_555
C14 C13 1_555 1_555
C15 C14 1_555 1_555
H9 C15 1_555 1_555
C16 C15 1_555 1_555
H10 C16 1_555 1_555
C17 C16 1_555 1_555
H11 C17 1_555 1_555
C18 C17 1_555 1_555
H12 C18 1_555 1_555
C19 C6 1_555 1_555
C20 C13 1_555 1_555
C21 C20 1_555 1_555
H13 C21 1_555 1_555
C22 C21 1_555 1_555
H14 C22 1_555 1_555
C23 H15 1_555 1_555
C24 C20 1_555 1_555
H16 C24 1_555 1_555
C25 C26 1_555 1_555
C26 C27 1_555 1_555
C27 H17 1_555 1_555
C28 C27 1_555 1_555
H18 C28 1_555 1_555
C29 C28 1_555 1_555
C30 C29 1_555 1_555
C31 C26 1_555 1_555
H19 C31 1_555 1_555
C32 C30 1_555 1_555
H20 C32 1_555 1_555
C33 C32 1_555 1_555
H21 C33 1_555 1_555
C34 C33 1_555 1_555
C35 C29 1_555 1_555
H22 C35 1_555 1_555
C36 C46 1_555 1_555
C37 C34 1_555 1_555
C38 C39 1_555 1_555
C39 C40 1_555 1_555
C40 H23 1_555 1_555
C41 C40 1_555 1_555
C42 C41 1_555 1_555
C43 C42 1_555 1_555
H24 C43 1_555 1_555
C44 C39 1_555 1_555
H25 C44 1_555 1_555
C45 C42 1_555 1_555
H26 C45 1_555 1_555
C46 C45 1_555 1_555
C47 C46 1_555 1_555
H27 C47 1_555 1_555
C48 C41 1_555 1_555
H28 C48 1_555 1_555
N1 C1 1_555 1_555
N2 C22 1_555 1_555
O1 C25 1_555 1_555
O2 C25 1_555 1_555
O3 C38 1_555 1_555
O4 C38 1_555 1_555
O5 C37 1_555 1_555
O6 C37 1_555 1_555
O7 C36 1_555 1_555
O8 C36 1_555 1_555
Zn1 O2 1_555 1_555
Zn2 N1 1_555 1_555
C49 H29 1_555 1_555
H30 C49 1_555 1_555
H31 C49 1_555 1_555
C50 H32 1_555 1_555
H33 C50 1_555 1_555
H34 C50 1_555 1_555
C51 H35 1_555 1_555
N3 C49 1_555 1_555
O9 C51 1_555 1_555
C52 H36 1_555 1_555
H37 C52 1_555 1_555
H38 C52 1_555 1_555
C53 H39 1_555 1_555
H40 C53 1_555 1_555
H41 C53 1_555 1_555
C54 H42 1_555 1_555
N4 C52 1_555 1_555
O10 C54 1_555 1_555
C55 H43 1_555 1_555
H44 C55 1_555 1_555
H45 C55 1_555 1_555
C56 H46 1_555 1_555
H47 C56 1_555 1_555
H48 C56 1_555 1_555
C57 H49 1_555 1_555
N5 C55 1_555 1_555
O11 C57 1_555 1_555
N2_2 Zn1 1_555 1_555
O5_2 Zn1 1_555 1_555
O6_2 Zn2 1_555 1_555
O7_2 Zn1 1_555 1_555
O8_2 Zn2 1_555 1_555
Zn1_2 O5 1_555 1_555
Zn1_3 O7 1_555 1_555
Zn1_4 N2 1_555 1_555
Zn2_2 O6 1_555 1_555
Zn2_3 O8 1_555 1_555
C5 N1 1_555 1_555
C11 C12 1_555 1_555
C14 C19 1_555 1_555
C18 C19 1_555 1_555
C23 C24 1_555 1_555
C23 N2 1_555 1_555
C30 C31 1_555 1_555
C34 C35 1_555 1_555
C43 C44 1_555 1_555
C47 C48 1_555 1_555
O1 Zn2 1_555 1_555
O3 Zn1 1_555 1_555
O4 Zn2 1_555 1_555
C50 N3 1_555 1_555
C51 N3 1_555 1_555
C53 N4 1_555 1_555
C54 N4 1_555 1_555
C56 N5 1_555 1_555
C57 N5 1_555 1_555

#END
