
#######################################################################
#
#                 Cambridge Crystallographic Data Centre
#                                CCDC 
#
#######################################################################
#
# If this CIF has been generated from an entry in the Cambridge 
# Structural Database, then it will include bibliographic, chemical, 
# crystal, experimental, refinement or atomic coordinate data resulting 
# from the CCDC's data processing and validation procedures.
#
#######################################################################

data_PACGIM
_chemical_formula_moiety         '(C63 H40 N3 O20 Th2 1-)n'
_symmetry_cell_setting           rhombohedral
_symmetry_space_group_name_H-M   'R -3 c'
_symmetry_Int_Tables_number      167
_space_group_name_Hall           '-R 3 2"c'
loop_
_symmetry_equiv_pos_site_id
_symmetry_equiv_pos_as_xyz
1 x,y,z
2 -y,x-y,z
3 -x+y,-x,z
4 y,x,1/2-z
5 x-y,-y,1/2-z
6 -x,-x+y,1/2-z
7 2/3+x,1/3+y,1/3+z
8 2/3-y,1/3+x-y,1/3+z
9 2/3-x+y,1/3-x,1/3+z
10 2/3+y,1/3+x,5/6-z
11 2/3+x-y,1/3-y,5/6-z
12 2/3-x,1/3-x+y,5/6-z
13 1/3+x,2/3+y,2/3+z
14 1/3-y,2/3+x-y,2/3+z
15 1/3-x+y,2/3-x,2/3+z
16 1/3+y,2/3+x,1/6-z
17 1/3+x-y,2/3-y,1/6-z
18 1/3-x,2/3-x+y,1/6-z
19 -x,-y,-z
20 y,-x+y,-z
21 x-y,x,-z
22 -y,-x,1/2+z
23 -x+y,y,1/2+z
24 x,x-y,1/2+z
25 1/3-x,2/3-y,2/3-z
26 1/3+y,2/3-x+y,2/3-z
27 1/3+x-y,2/3+x,2/3-z
28 1/3-y,2/3-x,1/6+z
29 1/3-x+y,2/3+y,1/6+z
30 1/3+x,2/3+x-y,1/6+z
31 2/3-x,1/3-y,1/3-z
32 2/3+y,1/3-x+y,1/3-z
33 2/3+x-y,1/3+x,1/3-z
34 2/3-y,1/3-x,5/6+z
35 2/3-x+y,1/3+y,5/6+z
36 2/3+x,1/3+x-y,5/6+z
_cell_length_a                   24.8612(19)
_cell_length_b                   24.8612(19)
_cell_length_c                   28.260(4)
_cell_angle_alpha                90
_cell_angle_beta                 90
_cell_angle_gamma                120
_cell_volume                     15126.8
loop_
_atom_site_label
_atom_site_type_symbol
_atom_site_fract_x
_atom_site_fract_y
_atom_site_fract_z
Th1 Th 0.6667 0.3333 -0.01223(2)
O1 O 0.61050(12) 0.38978(11) -0.05093(9)
C1 C 0.65485(16) 0.50075(16) -0.05072(13)
C2 C 0.65348(16) 0.61110(17) -0.07154(15)
C3 C 0.65703(17) 0.44269(16) -0.04123(12)
N1 N 0.65388(16) 0.6667 -0.0833
C4 C 0.70427(16) 0.61315(16) -0.04778(15)
H1 H 0.7383 0.6520 -0.0383
C5 C 0.70469(17) 0.55828(16) -0.03808(14)
H2 H 0.7396 0.5603 -0.0226
C6 C 0.60260(18) 0.55327(18) -0.08258(17)
H3 H 0.5673 0.5511 -0.0975
C7 C 0.59620(19) 0.6667 -0.0833
C8 C 0.60293(18) 0.49873(17) -0.07205(15)
H4 H 0.5676 0.4597 -0.0794
C9 C 0.55899(17) 0.64881(19) -0.04314(15)
H5 H 0.5721 0.6368 -0.0155
O2 O 0.70557(12) 0.44675(11) -0.02334(10)
C10 C 0.48318(18) 0.6667 -0.0833
C11 C 0.50258(17) 0.64836(18) -0.04292(14)
H6 H 0.4773 0.6356 -0.0153
C12 C 0.42288(16) 0.6667 -0.0833
O3 O 0.38812(10) 0.64411(10) -0.04766(8)
O4 O 0.6667 0.3333 -0.10313(19)
O1J O 0.88739(16) 0.94355(11) -0.11574(9)
C1J C 0.82077(23) 0.83258(16) -0.11595(13)
C2J C 0.70905(23) 0.72223(17) -0.09513(15)
C3J C 0.88101(23) 0.89064(16) -0.12544(12)
C4J C 0.75779(23) 0.72018(16) -0.11889(15)
H1J H 0.7530 0.6813 -0.1284
C5J C 0.81308(23) 0.77505(16) -0.12859(14)
H2J H 0.8460 0.7730 -0.1441
C6J C 0.71600(25) 0.78006(18) -0.08409(17)
H3J H 0.6829 0.7822 -0.0692
C8J C 0.77087(25) 0.83460(17) -0.09462(15)
H4J H 0.7746 0.8736 -0.0873
C9J C 0.57685(25) 0.68452(19) -0.12353(15)
H5J H 0.6020 0.6965 -0.1512
O2J O 0.92549(16) 0.88658(11) -0.14333(10)
C11J C 0.52089(25) 0.68497(18) -0.12375(14)
H6J H 0.5084 0.6977 -0.1514
O3J O 0.41068(14) 0.68922(10) -0.11901(8)
O1A O 0.61022(11) 0.22072(16) -0.05093(9)
C1A C 0.49925(16) 0.15410(23) -0.05072(13)
C2A C 0.38890(17) 0.04238(23) -0.07154(15)
C3A C 0.55731(16) 0.21434(23) -0.04123(12)
N1A N 0.3333 -0.01282(16) -0.0833
C4A C 0.38685(16) 0.09112(23) -0.04778(15)
H1A H 0.3480 0.0863 -0.0383
C5A C 0.44172(16) 0.14641(23) -0.03808(14)
H2A H 0.4397 0.1793 -0.0226
C6A C 0.44673(18) 0.04933(25) -0.08258(17)
H3A H 0.4489 0.0162 -0.0975
C7A C 0.3333 -0.07050(19) -0.0833
C8A C 0.50127(17) 0.10420(25) -0.07205(15)
H4A H 0.5403 0.1079 -0.0794
C9A C 0.35119(19) -0.08982(25) -0.04314(15)
H5A H 0.3632 -0.0647 -0.0155
O2A O 0.55325(11) 0.25882(16) -0.02334(10)
C10A C 0.3333 -0.18352(18) -0.0833
C11A C 0.35164(18) -0.14578(25) -0.04292(14)
H6A H 0.3644 -0.1583 -0.0153
C12A C 0.3333 -0.24382(16) -0.0833
O3A O 0.35589(10) -0.25599(14) -0.04766(8)
O1I O 0.05645(11) -0.05617(12) -0.11574(9)
C1I C 0.16742(16) -0.01182(16) -0.11595(13)
C2I C 0.27777(17) -0.01319(16) -0.09513(15)
C3I C 0.10936(16) -0.00964(17) -0.12544(12)
C4I C 0.27982(16) 0.03760(16) -0.11889(15)
H1I H 0.3187 0.0716 -0.1284
C5I C 0.22495(16) 0.03802(17) -0.12859(14)
H2I H 0.2270 0.0729 -0.1441
C6I C 0.21994(18) -0.06407(18) -0.08409(17)
H3I H 0.2178 -0.0994 -0.0692
C8I C 0.16540(17) -0.06374(18) -0.09462(15)
H4I H 0.1264 -0.0991 -0.0873
C9I C 0.31548(19) -0.10768(17) -0.12353(15)
H5I H 0.3035 -0.0946 -0.1512
O2I O 0.11342(11) 0.03890(12) -0.14333(10)
C11I C 0.31503(18) -0.16409(17) -0.12375(14)
H6I H 0.3023 -0.1894 -0.1514
O3I O 0.31078(10) -0.27855(10) -0.11901(8)
O1B O 0.77928(16) 0.38950(12) -0.05093(9)
C1B C 0.84590(23) 0.34515(16) -0.05072(13)
C2B C 0.95762(23) 0.34652(16) -0.07154(15)
C3B C 0.78566(23) 0.34297(17) -0.04123(12)
N1B N 1.01282(16) 0.34612(16) -0.0833
C4B C 0.90888(23) 0.29573(16) -0.04778(15)
H1B H 0.9137 0.2617 -0.0383
C5B C 0.85359(23) 0.29531(17) -0.03808(14)
H2B H 0.8207 0.2604 -0.0226
C6B C 0.95067(25) 0.39740(18) -0.08258(17)
H3B H 0.9838 0.4327 -0.0975
C7B C 1.07050(19) 0.40380(19) -0.0833
C8B C 0.89580(25) 0.39707(18) -0.07205(15)
H4B H 0.8921 0.4324 -0.0794
C9B C 1.08982(25) 0.44101(17) -0.04314(15)
H5B H 1.0647 0.4279 -0.0155
O2B O 0.74118(16) 0.29443(12) -0.02334(10)
C10B C 1.18352(18) 0.51682(18) -0.0833
C11B C 1.14578(25) 0.49742(17) -0.04292(14)
H6B H 1.1583 0.5227 -0.0153
C12B C 1.24382(16) 0.57712(16) -0.0833
O3B O 1.25599(14) 0.61188(10) -0.04766(8)
O1K O 1.05617(12) 0.11261(16) -0.11574(9)
C1K C 1.01182(16) 0.17923(23) -0.11595(13)
C2K C 1.01319(16) 0.29095(23) -0.09513(15)
C3K C 1.00964(17) 0.11899(23) -0.12544(12)
C4K C 0.96240(16) 0.24221(23) -0.11889(15)
H1K H 0.9284 0.2470 -0.1284
C5K C 0.96198(17) 0.18692(23) -0.12859(14)
H2K H 0.9271 0.1540 -0.1441
C6K C 1.06407(18) 0.28400(25) -0.08409(17)
H3K H 1.0994 0.3171 -0.0692
C8K C 1.06374(18) 0.22913(25) -0.09462(15)
H4K H 1.0991 0.2254 -0.0873
C9K C 1.10768(17) 0.42315(25) -0.12353(15)
H5K H 1.0946 0.3980 -0.1512
O2K O 0.96110(12) 0.07451(16) -0.14333(10)
C11K C 1.16409(17) 0.47911(25) -0.12375(14)
H6K H 1.1894 0.4916 -0.1514
O3K O 1.27855(10) 0.58932(14) -0.11901(8)
Th1R Th 0.3333 0.6667 0.01223(2)
O4R O 0.3333 0.6667 0.10313(19)
Th1I Th -0.0000 0.0000 -0.15444(2)
Th1I_2 Th 1.0000 0.0000 -0.15444(2)
Th1I_3 Th 1.0000 1.0000 -0.15444(2)
Th1R_2 Th 0.3333 -0.3333 0.01223(2)
Th1R_3 Th 1.3333 0.6667 0.01223(2)
Th1GA Th 0.3334 -0.3334 -0.17890(2)
Th1GA_2 Th 0.3334 0.6666 -0.17890(2)
Th1GA_3 Th 1.3334 0.6666 -0.17890(2)
O1R O 0.38950(12) 0.61022(11) 0.05093(9)
O1S O 0.38978(11) 0.77928(16) 0.05093(9)
O1T O 0.22072(16) 0.61050(12) 0.05093(9)
O2R O 0.29443(12) 0.55325(11) 0.02334(10)
O2S O 0.44675(11) 0.74118(16) 0.02334(10)
O2T O 0.25882(16) 0.70557(12) 0.02334(10)
O3A_2 O 0.35589(10) 0.74401(14) -0.04766(8)
O3B_2 O 0.25599(14) 0.61188(10) -0.04766(8)
O3R O 0.61188(10) 0.35589(10) 0.04766(8)
O3S O 0.64411(10) 0.25599(14) 0.04766(8)
O3T O 0.74401(14) 0.38812(10) 0.04766(8)
loop_
_geom_bond_atom_site_label_1
_geom_bond_atom_site_label_2
_geom_bond_site_symmetry_1
_geom_bond_site_symmetry_2
Th1 O1 1_555 1_555
O1 C3 1_555 1_555
C1 C3 1_555 1_555
C2 N1 1_555 1_555
C3 O2 1_555 1_555
N1 C7 1_555 1_555
C4 C2 1_555 1_555
H1 C4 1_555 1_555
C5 C1 1_555 1_555
H2 C5 1_555 1_555
C6 C2 1_555 1_555
H3 C6 1_555 1_555
C7 C9 1_555 1_555
C8 C1 1_555 1_555
H4 C8 1_555 1_555
C9 H5 1_555 1_555
O2 Th1 1_555 1_555
C10 C11 1_555 1_555
C11 C9 1_555 1_555
H6 C11 1_555 1_555
C12 C10 1_555 1_555
O3 C12 1_555 1_555
O4 Th1 1_555 1_555
O1J C3J 1_555 1_555
C1J C3J 1_555 1_555
C2J N1 1_555 1_555
C3J O2J 1_555 1_555
C4J C2J 1_555 1_555
H1J C4J 1_555 1_555
C5J C1J 1_555 1_555
H2J C5J 1_555 1_555
C6J C2J 1_555 1_555
H3J C6J 1_555 1_555
C8J C1J 1_555 1_555
H4J C8J 1_555 1_555
C9J C7 1_555 1_555
H5J C9J 1_555 1_555
O2J Th1I_3 1_555 1_555
C11J C10 1_555 1_555
H6J C11J 1_555 1_555
O3J C12 1_555 1_555
O1A Th1 1_555 1_555
C1A C3A 1_555 1_555
C2A N1A 1_555 1_555
C3A O1A 1_555 1_555
N1A C7A 1_555 1_555
C4A C2A 1_555 1_555
H1A C4A 1_555 1_555
C5A C1A 1_555 1_555
H2A C5A 1_555 1_555
C6A C2A 1_555 1_555
H3A C6A 1_555 1_555
C7A C9A 1_555 1_555
C8A C1A 1_555 1_555
H4A C8A 1_555 1_555
C9A H5A 1_555 1_555
O2A Th1 1_555 1_555
C10A C11A 1_555 1_555
C11A C9A 1_555 1_555
H6A C11A 1_555 1_555
C12A C10A 1_555 1_555
O3A C12A 1_555 1_555
O1I C3I 1_555 1_555
C1I C3I 1_555 1_555
C2I N1A 1_555 1_555
C3I O2I 1_555 1_555
C4I C2I 1_555 1_555
H1I C4I 1_555 1_555
C5I C1I 1_555 1_555
H2I C5I 1_555 1_555
C6I C2I 1_555 1_555
H3I C6I 1_555 1_555
C8I C1I 1_555 1_555
H4I C8I 1_555 1_555
C9I C7A 1_555 1_555
H5I C9I 1_555 1_555
O2I Th1I 1_555 1_555
C11I C10A 1_555 1_555
H6I C11I 1_555 1_555
O3I C12A 1_555 1_555
O1B Th1 1_555 1_555
C1B C3B 1_555 1_555
C2B N1B 1_555 1_555
C3B O1B 1_555 1_555
N1B C7B 1_555 1_555
C4B C2B 1_555 1_555
H1B C4B 1_555 1_555
C5B C1B 1_555 1_555
H2B C5B 1_555 1_555
C6B C2B 1_555 1_555
H3B C6B 1_555 1_555
C7B C9B 1_555 1_555
C8B C1B 1_555 1_555
H4B C8B 1_555 1_555
C9B H5B 1_555 1_555
O2B Th1 1_555 1_555
C10B C11B 1_555 1_555
C11B C9B 1_555 1_555
H6B C11B 1_555 1_555
C12B C10B 1_555 1_555
O3B C12B 1_555 1_555
O1K C3K 1_555 1_555
C1K C3K 1_555 1_555
C2K N1B 1_555 1_555
C3K O2K 1_555 1_555
C4K C2K 1_555 1_555
H1K C4K 1_555 1_555
C5K C1K 1_555 1_555
H2K C5K 1_555 1_555
C6K C2K 1_555 1_555
H3K C6K 1_555 1_555
C8K C1K 1_555 1_555
H4K C8K 1_555 1_555
C9K C7B 1_555 1_555
H5K C9K 1_555 1_555
O2K Th1I_2 1_555 1_555
C11K C10B 1_555 1_555
H6K C11K 1_555 1_555
O3K C12B 1_555 1_555
Th1R O3 1_555 1_555
O4R Th1R 1_555 1_555
Th1I O1I 1_555 1_555
Th1I_2 O1K 1_555 1_555
Th1I_3 O1J 1_555 1_555
Th1R_2 O3A 1_555 1_555
Th1R_3 O3B 1_555 1_555
Th1GA O3I 1_555 1_555
Th1GA_2 O3J 1_555 1_555
Th1GA_3 O3K 1_555 1_555
O1R Th1R 1_555 1_555
O1S Th1R 1_555 1_555
O1T Th1R 1_555 1_555
O2R Th1R 1_555 1_555
O2S Th1R 1_555 1_555
O2T Th1R 1_555 1_555
O3A_2 Th1R 1_555 1_555
O3B_2 Th1R 1_555 1_555
O3R Th1 1_555 1_555
O3S Th1 1_555 1_555
O3T Th1 1_555 1_555
C4 C5 1_555 1_555
C6 C8 1_555 1_555
C4J C5J 1_555 1_555
C6J C8J 1_555 1_555
C9J C11J 1_555 1_555
C3A O2A 1_555 1_555
C4A C5A 1_555 1_555
C6A C8A 1_555 1_555
C4I C5I 1_555 1_555
C6I C8I 1_555 1_555
C9I C11I 1_555 1_555
C3B O2B 1_555 1_555
C4B C5B 1_555 1_555
C6B C8B 1_555 1_555
C4K C5K 1_555 1_555
C6K C8K 1_555 1_555
C9K C11K 1_555 1_555

#END
