
#######################################################################
#
#                 Cambridge Crystallographic Data Centre
#                                CCDC 
#
#######################################################################
#
# If this CIF has been generated from an entry in the Cambridge 
# Structural Database, then it will include bibliographic, chemical, 
# crystal, experimental, refinement or atomic coordinate data resulting 
# from the CCDC's data processing and validation procedures.
#
#######################################################################

data_RAQVEM
_chemical_formula_moiety         '(C64 H62 N20 O12 Zn3)n'
_symmetry_cell_setting           monoclinic
_symmetry_space_group_name_H-M   'C 2/c'
_symmetry_Int_Tables_number      15
_space_group_name_Hall           '-C 2yc'
loop_
_symmetry_equiv_pos_site_id
_symmetry_equiv_pos_as_xyz
1 x,y,z
2 -x,y,1/2-z
3 1/2+x,1/2+y,z
4 1/2-x,1/2+y,1/2-z
5 -x,-y,-z
6 x,-y,1/2+z
7 1/2-x,1/2-y,-z
8 1/2+x,1/2-y,1/2+z
_cell_length_a                   35.823(7)
_cell_length_b                   9.810(2)
_cell_length_c                   25.171(5)
_cell_angle_alpha                90
_cell_angle_beta                 129.14(3)
_cell_angle_gamma                90
_cell_volume                     6860.77
loop_
_atom_site_label
_atom_site_type_symbol
_atom_site_fract_x
_atom_site_fract_y
_atom_site_fract_z
_atom_site_U_iso_or_equiv
_atom_site_thermal_displace_type
Zn1 Zn 0.28955(3) 0.37259(9) 0.17899(4) 0.0344 Uani
Zn2 Zn 0.0000 0.00889(13) -0.2500 0.0348 Uani
H3 H 0.4374 -0.2708 0.1118 0.0770 Uiso
C1 C 0.1360(3) -0.0667(8) -0.2411(4) 0.0352 Uani
C2 C 0.1207(3) -0.2107(7) -0.2420(4) 0.0371 Uani
H6 H 0.1258 -0.2252 -0.1993 0.0440 Uiso
C3 C 0.1518(3) -0.3133(10) -0.2438(6) 0.0656 Uani
H7 H 0.1855 -0.2928 -0.2074 0.0790 Uiso
H8 H 0.1456 -0.4042 -0.2360 0.0790 Uiso
C4 C 0.1413(4) -0.3089(11) -0.3132(7) 0.0808 Uani
H9 H 0.1616 -0.3745 -0.3131 0.0970 Uiso
H10 H 0.1488 -0.2190 -0.3201 0.0970 Uiso
C5 C 0.0893(4) -0.3411(13) -0.3709(6) 0.0926 Uani
H11 H 0.0834 -0.3358 -0.4142 0.1110 Uiso
H12 H 0.0823 -0.4333 -0.3657 0.1110 Uiso
C6 C 0.0563(3) -0.2417(11) -0.3718(5) 0.0651 Uani
H13 H 0.0603 -0.1513 -0.3831 0.0790 Uiso
H14 H 0.0231 -0.2690 -0.4070 0.0790 Uiso
C7 C 0.0671(3) -0.2370(9) -0.3019(4) 0.0455 Uani
H15 H 0.0611 -0.3300 -0.2946 0.0540 Uiso
C8 C 0.0331(3) -0.1507(8) -0.3023(5) 0.0391 Uani
C9 C 0.2851(3) 0.1532(9) 0.0922(5) 0.0506 Uani
H16 H 0.2525 0.1739 0.0634 0.0600 Uiso
C10 C 0.3005(3) 0.0511(9) 0.0734(4) 0.0475 Uani
H17 H 0.2785 0.0047 0.0325 0.0570 Uiso
C11 C 0.3490(3) 0.0166(8) 0.1154(4) 0.0360 Uani
C12 C 0.3791(3) 0.0937(8) 0.1748(4) 0.0445 Uani
H18 H 0.4119 0.0752 0.2049 0.0530 Uiso
C13 C 0.3612(3) 0.1958(9) 0.1896(4) 0.0469 Uani
H19 H 0.3824 0.2472 0.2291 0.0570 Uiso
C14 C 0.3659(3) -0.0904(8) 0.0959(4) 0.0361 Uani
C15 C 0.3665(3) -0.2452(8) 0.0399(4) 0.0386 Uani
C16 C 0.3528(3) -0.3447(8) -0.0142(4) 0.0378 Uani
C17 C 0.3874(3) -0.4147(8) -0.0122(5) 0.0488 Uani
H20 H 0.4200 -0.4015 0.0234 0.0590 Uiso
C18 C 0.3716(3) -0.5050(9) -0.0650(5) 0.0560 Uani
H21 H 0.3948 -0.5520 -0.0635 0.0670 Uiso
C19 C 0.2933(3) -0.4618(9) -0.1179(5) 0.0560 Uani
H22 H 0.2609 -0.4784 -0.1536 0.0670 Uiso
C20 C 0.3048(3) -0.3686(9) -0.0682(4) 0.0462 Uani
H23 H 0.2808 -0.3231 -0.0712 0.0550 Uiso
C21 C 0.0939(3) 0.1015(8) -0.1274(4) 0.0402 Uani
H24 H 0.1040 0.0308 -0.1403 0.0480 Uiso
C22 C 0.1278(3) 0.1695(8) -0.0675(4) 0.0394 Uani
H25 H 0.1600 0.1443 -0.0407 0.0470 Uiso
C23 C 0.1141(3) 0.2753(8) -0.0468(4) 0.0352 Uani
C24 C 0.0656(3) 0.3105(9) -0.0894(5) 0.0529 Uani
H26 H 0.0549 0.3831 -0.0784 0.0640 Uiso
C25 C 0.0336(3) 0.2350(9) -0.1484(5) 0.0510 Uani
H27 H 0.0011 0.2570 -0.1757 0.0610 Uiso
C26 C 0.1493(3) 0.3509(8) 0.0171(4) 0.0345 Uani
C27 C 0.1830(3) 0.4831(7) 0.1008(4) 0.0307 Uani
C28 C 0.1902(3) 0.5859(8) 0.1485(4) 0.0337 Uani
C29 C 0.1513(3) 0.6555(8) 0.1347(4) 0.0382 Uani
H28 H 0.1207 0.6414 0.0933 0.0460 Uiso
C30 C 0.1574(3) 0.7448(8) 0.1815(4) 0.0420 Uani
H29 H 0.1305 0.7886 0.1711 0.0500 Uiso
C31 C 0.2389(3) 0.7079(8) 0.2551(4) 0.0369 Uani
H30 H 0.2693 0.7260 0.2961 0.0450 Uiso
C32 C 0.2349(3) 0.6156(8) 0.2099(4) 0.0391 Uani
H31 H 0.2623 0.5737 0.2209 0.0470 Uiso
N1 N 0.3143(2) 0.2245(6) 0.1494(3) 0.0390 Uani
N2 N 0.3360(2) -0.1638(7) 0.0371(4) 0.0416 Uani
N3 N 0.4112(2) -0.2229(7) 0.0961(4) 0.0483 Uani
N4 N 0.4118(2) -0.1236(7) 0.1334(4) 0.0461 Uani
N5 N 0.3256(3) -0.5292(8) -0.1178(4) 0.0606 Uani
N6 N 0.0467(2) 0.1325(7) -0.1685(3) 0.0393 Uani
N7 N 0.1389(2) 0.4512(6) 0.0422(3) 0.0358 Uani
N8 N 0.1963(2) 0.3184(6) 0.0553(3) 0.0361 Uani
N9 N 0.2181(2) 0.4056(6) 0.1106(3) 0.0336 Uani
N10 N 0.2010(2) 0.7720(6) 0.2421(3) 0.0322 Uani
O1 O 0.18080(19) -0.0444(5) -0.1906(3) 0.0496 Uani
O2 O 0.1101(2) 0.0211(6) -0.2825(3) 0.0543 Uani
O3 O 0.04813(19) -0.0973(6) -0.2449(3) 0.0505 Uani
O4 O -0.0090(2) -0.1317(6) -0.3557(3) 0.0567 Uani
Zn1A Zn -0.28955(3) 0.37259(9) -0.67899(4) 0.0344 Uani
Zn1C Zn 0.21045(3) 0.87259(9) 0.32101(4) 0.0344 Uani
Zn1F Zn 0.21045(3) 0.12741(9) -0.17899(4) 0.0344 Uani
Zn1B Zn -0.21045(3) 0.87259(9) -0.82101(4) 0.0344 Uani
Zn1G Zn -0.21045(3) 0.12741(9) -0.32101(4) 0.0344 Uani
H3A H -0.4374 -0.2708 -0.6118 0.0770 Uiso
C1A C -0.1360(3) -0.0667(8) -0.2589(4) 0.0352 Uani
C2A C -0.1207(3) -0.2107(7) -0.2580(4) 0.0371 Uani
H6A H -0.1258 -0.2252 -0.3007 0.0440 Uiso
C3A C -0.1518(3) -0.3133(10) -0.2562(6) 0.0656 Uani
H7A H -0.1855 -0.2928 -0.2926 0.0790 Uiso
H8A H -0.1456 -0.4042 -0.2640 0.0790 Uiso
C4A C -0.1413(4) -0.3089(11) -0.1868(7) 0.0808 Uani
H9A H -0.1616 -0.3745 -0.1869 0.0970 Uiso
H10A H -0.1488 -0.2190 -0.1799 0.0970 Uiso
C5A C -0.0893(4) -0.3411(13) -0.1291(6) 0.0926 Uani
H11A H -0.0834 -0.3358 -0.0858 0.1110 Uiso
H12A H -0.0823 -0.4333 -0.1343 0.1110 Uiso
C6A C -0.0563(3) -0.2417(11) -0.1282(5) 0.0651 Uani
H13A H -0.0603 -0.1513 -0.1169 0.0790 Uiso
H14A H -0.0231 -0.2690 -0.0930 0.0790 Uiso
C7A C -0.0671(3) -0.2370(9) -0.1981(4) 0.0455 Uani
H15A H -0.0611 -0.3300 -0.2054 0.0540 Uiso
C8A C -0.0331(3) -0.1507(8) -0.1977(5) 0.0391 Uani
C9A C -0.2851(3) 0.1532(9) -0.5922(5) 0.0506 Uani
H16A H -0.2525 0.1739 -0.5634 0.0600 Uiso
C10A C -0.3005(3) 0.0511(9) -0.5734(4) 0.0475 Uani
H17A H -0.2785 0.0047 -0.5325 0.0570 Uiso
C11A C -0.3490(3) 0.0166(8) -0.6154(4) 0.0360 Uani
C12A C -0.3791(3) 0.0937(8) -0.6748(4) 0.0445 Uani
H18A H -0.4119 0.0752 -0.7049 0.0530 Uiso
C13A C -0.3612(3) 0.1958(9) -0.6896(4) 0.0469 Uani
H19A H -0.3824 0.2472 -0.7291 0.0570 Uiso
C14A C -0.3659(3) -0.0904(8) -0.5959(4) 0.0361 Uani
C15A C -0.3665(3) -0.2452(8) -0.5399(4) 0.0386 Uani
C16A C -0.3528(3) -0.3447(8) -0.4858(4) 0.0378 Uani
C17A C -0.3874(3) -0.4147(8) -0.4878(5) 0.0488 Uani
H20A H -0.4200 -0.4015 -0.5234 0.0590 Uiso
C18A C -0.3716(3) -0.5050(9) -0.4350(5) 0.0560 Uani
H21A H -0.3948 -0.5520 -0.4365 0.0670 Uiso
C19A C -0.2933(3) -0.4618(9) -0.3821(5) 0.0560 Uani
H22A H -0.2609 -0.4784 -0.3464 0.0670 Uiso
C20A C -0.3048(3) -0.3686(9) -0.4318(4) 0.0462 Uani
H23A H -0.2808 -0.3231 -0.4288 0.0550 Uiso
C21A C -0.0939(3) 0.1015(8) -0.3726(4) 0.0402 Uani
H24A H -0.1040 0.0308 -0.3597 0.0480 Uiso
C22A C -0.1278(3) 0.1695(8) -0.4325(4) 0.0394 Uani
H25A H -0.1600 0.1443 -0.4593 0.0470 Uiso
C23A C -0.1141(3) 0.2753(8) -0.4532(4) 0.0352 Uani
C24A C -0.0656(3) 0.3105(9) -0.4106(5) 0.0529 Uani
H26A H -0.0549 0.3831 -0.4216 0.0640 Uiso
C25A C -0.0336(3) 0.2350(9) -0.3516(5) 0.0510 Uani
H27A H -0.0011 0.2570 -0.3243 0.0610 Uiso
C26A C -0.1493(3) 0.3509(8) -0.5171(4) 0.0345 Uani
C27A C -0.1830(3) 0.4831(7) -0.6008(4) 0.0307 Uani
C28A C -0.1902(3) 0.5859(8) -0.6485(4) 0.0337 Uani
C29A C -0.1513(3) 0.6555(8) -0.6347(4) 0.0382 Uani
H28A H -0.1207 0.6414 -0.5933 0.0460 Uiso
C30A C -0.1574(3) 0.7448(8) -0.6815(4) 0.0420 Uani
H29A H -0.1305 0.7886 -0.6711 0.0500 Uiso
C31A C -0.2389(3) 0.7079(8) -0.7551(4) 0.0369 Uani
H30A H -0.2693 0.7260 -0.7961 0.0450 Uiso
C32A C -0.2349(3) 0.6156(8) -0.7099(4) 0.0391 Uani
H31A H -0.2623 0.5737 -0.7209 0.0470 Uiso
N1A N -0.3143(2) 0.2245(6) -0.6494(3) 0.0390 Uani
N2A N -0.3360(2) -0.1638(7) -0.5371(4) 0.0416 Uani
N3A N -0.4112(2) -0.2229(7) -0.5961(4) 0.0483 Uani
N4A N -0.4118(2) -0.1236(7) -0.6334(4) 0.0461 Uani
N5A N -0.3256(3) -0.5292(8) -0.3822(4) 0.0606 Uani
N6A N -0.0467(2) 0.1325(7) -0.3315(3) 0.0393 Uani
N7A N -0.1389(2) 0.4512(6) -0.5422(3) 0.0358 Uani
N8A N -0.1963(2) 0.3184(6) -0.5553(3) 0.0361 Uani
N9A N -0.2181(2) 0.4056(6) -0.6106(3) 0.0336 Uani
N10A N -0.2010(2) 0.7720(6) -0.7421(3) 0.0322 Uani
N10C N 0.2990(2) 0.2720(6) 0.2579(3) 0.0322 Uani
N10B N -0.2990(2) 0.2720(6) -0.7579(3) 0.0322 Uani
O1A O -0.18080(19) -0.0444(5) -0.3094(3) 0.0496 Uani
O1F O 0.31920(19) 0.5444(5) 0.1906(3) 0.0496 Uani
O1G O -0.31920(19) 0.5444(5) -0.6906(3) 0.0496 Uani
O2A O -0.1101(2) 0.0211(6) -0.2175(3) 0.0543 Uani
O3A O -0.04813(19) -0.0973(6) -0.2551(3) 0.0505 Uani
O4A O 0.0090(2) -0.1317(6) -0.1443(3) 0.0567 Uani
H1 H 0.3068 0.6645 0.0538 0.1110 Uiso
H2 H 0.3023 0.5813 0.0991 0.1110 Uiso
O5 O 0.2935(7) 0.591(2) 0.0584(10) 0.1299 Uani
H4 H 0.4747 0.9638 0.2166 0.1220 Uiso
H5 H 0.5253 0.9638 0.2834 0.1220 Uiso
O6 O 0.5000 1.0048(12) 0.2500 0.1543 Uani
O7 O 0.540(2) 0.945(6) 0.476(3) 0.2165 Uani
O8 O 0.480(2) 0.375(6) 0.422(4) 0.2307 Uani
loop_
_atom_site_aniso_label
_atom_site_aniso_U_11
_atom_site_aniso_U_22
_atom_site_aniso_U_33
_atom_site_aniso_U_23
_atom_site_aniso_U_13
_atom_site_aniso_U_12
Zn1 0.0318(5) 0.0469(6) 0.0225(5) -0.0007(4) 0.0162(4) -0.0004(4)
Zn2 0.0270(7) 0.0513(8) 0.0213(7) 0.000 0.0130(6) 0.000
C1 0.035 0.048 0.03 -0.002 0.024 -0.007
C2 0.039 0.038 0.048 0.002 0.034 -0.007
C3 0.057 0.063 0.093 0.007 0.055 0
C4 0.093 0.064 0.128 -0.02 0.09 0.001
C5 0.084 0.127 0.09 -0.046 0.066 -0.022
C6 0.062 0.087 0.041 -0.029 0.03 -0.014
C7 0.053 0.049 0.045 -0.01 0.036 -0.012
C8 0.033 0.045 0.042 0.007 0.025 -0.004
C9 0.042(5) 0.070(6) 0.040(6) -0.010(5) 0.026(5) 0.004(5)
C10 0.042(5) 0.061(6) 0.031(5) -0.016(4) 0.019(4) -0.003(5)
C11 0.040(4) 0.044(5) 0.025(5) 0.004(4) 0.021(4) 0.003(4)
C12 0.043(5) 0.053(5) 0.037(5) 0.004(4) 0.025(5) 0.013(4)
C13 0.035(5) 0.068(6) 0.029(5) -0.002(5) 0.016(4) -0.003(5)
C14 0.042(5) 0.040(5) 0.032(5) 0.004(4) 0.026(4) 0.002(4)
C15 0.037(4) 0.046(5) 0.029(5) 0.010(4) 0.019(4) 0.006(4)
C16 0.040(5) 0.037(4) 0.030(5) 0.006(4) 0.019(4) 0.006(4)
C17 0.053(5) 0.051(5) 0.036(5) -0.005(4) 0.025(5) 0.007(5)
C18 0.053(6) 0.059(6) 0.053(7) -0.001(5) 0.032(5) 0.012(5)
C19 0.041(5) 0.071(6) 0.035(6) -0.018(5) 0.014(5) -0.014(5)
C20 0.040(5) 0.061(6) 0.032(5) -0.009(5) 0.020(4) -0.007(5)
C21 0.035(4) 0.049(5) 0.027(5) 0.005(4) 0.015(4) 0.004(4)
C22 0.025(4) 0.045(5) 0.038(5) -0.004(4) 0.015(4) 0.003(4)
C23 0.038(4) 0.045(5) 0.025(5) 0.000(4) 0.021(4) -0.006(4)
C24 0.035(5) 0.064(6) 0.046(6) -0.006(5) 0.019(5) 0.004(5)
C25 0.026(4) 0.055(5) 0.043(6) -0.012(5) 0.008(4) 0.008(4)
C26 0.031(4) 0.046(5) 0.025(4) 0.008(4) 0.017(4) 0.005(4)
C27 0.027(4) 0.038(4) 0.027(4) -0.006(4) 0.017(4) -0.011(4)
C28 0.036(4) 0.041(4) 0.028(5) -0.001(4) 0.022(4) -0.005(4)
C29 0.026(4) 0.055(5) 0.025(5) -0.001(4) 0.012(4) 0.003(4)
C30 0.036(5) 0.053(5) 0.037(5) -0.002(4) 0.023(4) 0.004(4)
C31 0.033(4) 0.048(5) 0.025(5) -0.002(4) 0.016(4) -0.002(4)
C32 0.035(4) 0.047(5) 0.035(5) 0.003(4) 0.022(4) 0.000(4)
N1 0.051(4) 0.040(4) 0.032(4) -0.010(3) 0.029(4) -0.006(4)
N2 0.042(4) 0.050(4) 0.037(4) -0.001(3) 0.027(4) 0.004(4)
N3 0.036(4) 0.055(4) 0.037(5) -0.001(4) 0.015(4) 0.012(4)
N4 0.043(4) 0.053(4) 0.036(4) -0.008(4) 0.022(4) 0.005(4)
N5 0.060(5) 0.065(5) 0.052(6) -0.013(4) 0.033(5) -0.002(5)
N6 0.027(3) 0.054(4) 0.024(4) -0.001(3) 0.010(3) 0.006(3)
N7 0.036(4) 0.050(4) 0.020(4) -0.007(3) 0.017(3) -0.004(3)
N8 0.034(4) 0.046(4) 0.025(4) -0.003(3) 0.017(3) -0.006(3)
N9 0.035(4) 0.038(4) 0.028(4) -0.003(3) 0.020(3) -0.005(3)
N10 0.033(3) 0.041(4) 0.027(4) 0.001(3) 0.021(3) 0.001(3)
O1 0.04 0.05 0.051 0.001 0.025 -0.008
O2 0.058 0.048 0.049 0.011 0.03 0.003
O3 0.039 0.074 0.043 -0.008 0.028 0.004
O4 0.035 0.073 0.05 -0.003 0.021 -0.002
Zn1A 0.0318 0.0469 0.0225 0.0007 0.0162 0.0004
Zn1C 0.0318 0.0469 0.0225 0.0007 0.0162 0.0004
Zn1F 0.0318 0.0469 0.0225 -0.0007 0.0162 -0.0004
Zn1B 0.0318 0.0469 0.0225 -0.0007 0.0162 -0.0004
Zn1G 0.0318 0.0469 0.0225 0.0007 0.0162 0.0004
C1A 0.035 0.048 0.03 0.002 0.024 0.007
C2A 0.039 0.038 0.048 -0.002 0.034 0.007
C3A 0.057 0.063 0.093 -0.007 0.055 0
C4A 0.093 0.064 0.128 0.02 0.09 -0.001
C5A 0.084 0.127 0.09 0.046 0.066 0.022
C6A 0.062 0.087 0.041 0.029 0.03 0.014
C7A 0.053 0.049 0.045 0.01 0.036 0.012
C8A 0.033 0.045 0.042 -0.007 0.025 0.004
C9A 0.042 0.07 0.04 0.01 0.026 -0.004
C10A 0.042 0.061 0.031 0.016 0.019 0.003
C11A 0.04 0.044 0.025 -0.004 0.021 -0.003
C12A 0.043 0.053 0.037 -0.004 0.025 -0.013
C13A 0.035 0.068 0.029 0.002 0.016 0.003
C14A 0.042 0.04 0.032 -0.004 0.026 -0.002
C15A 0.037 0.046 0.029 -0.01 0.019 -0.006
C16A 0.04 0.037 0.03 -0.006 0.019 -0.006
C17A 0.053 0.051 0.036 0.005 0.025 -0.007
C18A 0.053 0.059 0.053 0.001 0.032 -0.012
C19A 0.041 0.071 0.035 0.018 0.014 0.014
C20A 0.04 0.061 0.032 0.009 0.02 0.007
C21A 0.035 0.049 0.027 -0.005 0.015 -0.004
C22A 0.025 0.045 0.038 0.004 0.015 -0.003
C23A 0.038 0.045 0.025 0 0.021 0.006
C24A 0.035 0.064 0.046 0.006 0.019 -0.004
C25A 0.026 0.055 0.043 0.012 0.008 -0.008
C26A 0.031 0.046 0.025 -0.008 0.017 -0.005
C27A 0.027 0.038 0.027 0.006 0.017 0.011
C28A 0.036 0.041 0.028 0.001 0.022 0.005
C29A 0.026 0.055 0.025 0.001 0.012 -0.003
C30A 0.036 0.053 0.037 0.002 0.023 -0.004
C31A 0.033 0.048 0.025 0.002 0.016 0.002
C32A 0.035 0.047 0.035 -0.003 0.022 0
N1A 0.051 0.04 0.032 0.01 0.029 0.006
N2A 0.042 0.05 0.037 0.001 0.027 -0.004
N3A 0.036 0.055 0.037 0.001 0.015 -0.012
N4A 0.043 0.053 0.036 0.008 0.022 -0.005
N5A 0.06 0.065 0.052 0.013 0.033 0.002
N6A 0.027 0.054 0.024 0.001 0.01 -0.006
N7A 0.036 0.05 0.02 0.007 0.017 0.004
N8A 0.034 0.046 0.025 0.003 0.017 0.006
N9A 0.035 0.038 0.028 0.003 0.02 0.005
N10A 0.033 0.041 0.027 -0.001 0.021 -0.001
N10C 0.033 0.041 0.027 -0.001 0.021 -0.001
N10B 0.033 0.041 0.027 0.001 0.021 0.001
O1A 0.04 0.05 0.051 -0.001 0.025 0.008
O1F 0.040(3) 0.050(3) 0.051(4) 0.001(3) 0.025(3) -0.008(3)
O1G 0.04 0.05 0.051 -0.001 0.025 0.008
O2A 0.058 0.048 0.049 -0.011 0.03 -0.003
O3A 0.039 0.074 0.043 0.008 0.028 -0.004
O4A 0.035 0.073 0.05 0.003 0.021 0.002
O5 0.151(10) 0.141(10) 0.106(10) 0.013(8) 0.085(8) -0.036(8)
O6 0.060(7) 0.110(9) 0.098(11) 0.000 -0.043(7) 0.000
O7 0.22(3) 0.22(3) 0.21(3) 0.003(10) 0.136(17) -0.006(10)
O8 0.23(3) 0.24(3) 0.23(3) 0.008(10) 0.149(19) 0.002(10)
loop_
_geom_bond_atom_site_label_1
_geom_bond_atom_site_label_2
_geom_bond_site_symmetry_1
_geom_bond_site_symmetry_2
Zn1 N1 1_555 1_555
Zn2 N6 1_555 1_555
H1 O5 1_555 1_555
H2 O5 1_555 1_555
H3 N3 1_555 1_555
H4 O6 1_555 1_555
H5 O6 1_555 1_555
C1 C2 1_555 1_555
C2 H6 1_555 1_555
C3 C2 1_555 1_555
H7 C3 1_555 1_555
H8 C3 1_555 1_555
C4 C3 1_555 1_555
H9 C4 1_555 1_555
H10 C4 1_555 1_555
C5 C4 1_555 1_555
H11 C5 1_555 1_555
H12 C5 1_555 1_555
C6 C5 1_555 1_555
H13 C6 1_555 1_555
H14 C6 1_555 1_555
C7 C2 1_555 1_555
H15 C7 1_555 1_555
C8 C7 1_555 1_555
C9 H16 1_555 1_555
C10 C9 1_555 1_555
H17 C10 1_555 1_555
C11 C10 1_555 1_555
C12 C11 1_555 1_555
H18 C12 1_555 1_555
C13 C12 1_555 1_555
H19 C13 1_555 1_555
C14 C11 1_555 1_555
C15 C16 1_555 1_555
C16 C17 1_555 1_555
C17 H20 1_555 1_555
C18 C17 1_555 1_555
H21 C18 1_555 1_555
C19 H22 1_555 1_555
C20 C16 1_555 1_555
H23 C20 1_555 1_555
C21 H24 1_555 1_555
C22 C21 1_555 1_555
H25 C22 1_555 1_555
C23 C22 1_555 1_555
C24 C23 1_555 1_555
H26 C24 1_555 1_555
C25 C24 1_555 1_555
H27 C25 1_555 1_555
C26 C23 1_555 1_555
C27 C28 1_555 1_555
C28 C29 1_555 1_555
C29 H28 1_555 1_555
C30 C29 1_555 1_555
H29 C30 1_555 1_555
C31 H30 1_555 1_555
C32 C28 1_555 1_555
H31 C32 1_555 1_555
N1 C9 1_555 1_555
N2 C14 1_555 1_555
N3 C15 1_555 1_555
N4 C14 1_555 1_555
N5 C18 1_555 1_555
N6 C21 1_555 1_555
N7 C26 1_555 1_555
N8 C26 1_555 1_555
N9 Zn1 1_555 1_555
N10 C30 1_555 1_555
O1 C1 1_555 1_555
O2 C1 1_555 1_555
O3 Zn2 1_555 1_555
O4 C8 1_555 1_555
Zn1A N1A 1_555 1_555
Zn1C N10 1_555 1_555
Zn1F O1 1_555 1_555
Zn1B N10A 1_555 1_555
Zn1G O1A 1_555 1_555
H3A N3A 1_555 1_555
C1A C2A 1_555 1_555
C2A H6A 1_555 1_555
C3A C2A 1_555 1_555
H7A C3A 1_555 1_555
H8A C3A 1_555 1_555
C4A C3A 1_555 1_555
H9A C4A 1_555 1_555
H10A C4A 1_555 1_555
C5A C4A 1_555 1_555
H11A C5A 1_555 1_555
H12A C5A 1_555 1_555
C6A C5A 1_555 1_555
H13A C6A 1_555 1_555
H14A C6A 1_555 1_555
C7A C2A 1_555 1_555
H15A C7A 1_555 1_555
C8A C7A 1_555 1_555
C9A H16A 1_555 1_555
C10A C9A 1_555 1_555
H17A C10A 1_555 1_555
C11A C10A 1_555 1_555
C12A C11A 1_555 1_555
H18A C12A 1_555 1_555
C13A C12A 1_555 1_555
H19A C13A 1_555 1_555
C14A C11A 1_555 1_555
C15A C16A 1_555 1_555
C16A C17A 1_555 1_555
C17A H20A 1_555 1_555
C18A C17A 1_555 1_555
H21A C18A 1_555 1_555
C19A H22A 1_555 1_555
C20A C16A 1_555 1_555
H23A C20A 1_555 1_555
C21A H24A 1_555 1_555
C22A C21A 1_555 1_555
H25A C22A 1_555 1_555
C23A C22A 1_555 1_555
C24A C23A 1_555 1_555
H26A C24A 1_555 1_555
C25A C24A 1_555 1_555
H27A C25A 1_555 1_555
C26A C23A 1_555 1_555
C27A C28A 1_555 1_555
C28A C29A 1_555 1_555
C29A H28A 1_555 1_555
C30A C29A 1_555 1_555
H29A C30A 1_555 1_555
C31A H30A 1_555 1_555
C32A C28A 1_555 1_555
H31A C32A 1_555 1_555
N1A C9A 1_555 1_555
N2A C14A 1_555 1_555
N3A C15A 1_555 1_555
N4A C14A 1_555 1_555
N5A C18A 1_555 1_555
N6A Zn2 1_555 1_555
N7A C26A 1_555 1_555
N8A C26A 1_555 1_555
N9A Zn1A 1_555 1_555
N10A C30A 1_555 1_555
N10C Zn1 1_555 1_555
N10B Zn1A 1_555 1_555
O1A C1A 1_555 1_555
O1F Zn1 1_555 1_555
O1G Zn1A 1_555 1_555
O2A C1A 1_555 1_555
O3A Zn2 1_555 1_555
O4A C8A 1_555 1_555
C6 C7 1_555 1_555
C8 O3 1_555 1_555
C13 N1 1_555 1_555
C15 N2 1_555 1_555
C19 C20 1_555 1_555
C19 N5 1_555 1_555
C25 N6 1_555 1_555
C27 N7 1_555 1_555
C27 N9 1_555 1_555
C31 C32 1_555 1_555
C31 N10 1_555 1_555
N3 N4 1_555 1_555
N8 N9 1_555 1_555
C6A C7A 1_555 1_555
C8A O3A 1_555 1_555
C13A N1A 1_555 1_555
C15A N2A 1_555 1_555
C19A C20A 1_555 1_555
C19A N5A 1_555 1_555
C21A N6A 1_555 1_555
C25A N6A 1_555 1_555
C27A N7A 1_555 1_555
C27A N9A 1_555 1_555
C31A C32A 1_555 1_555
C31A N10A 1_555 1_555
N3A N4A 1_555 1_555
N8A N9A 1_555 1_555

#END
