
#######################################################################
#
#                 Cambridge Crystallographic Data Centre
#                                CCDC 
#
#######################################################################
#
# If this CIF has been generated from an entry in the Cambridge 
# Structural Database, then it will include bibliographic, chemical, 
# crystal, experimental, refinement or atomic coordinate data resulting 
# from the CCDC's data processing and validation procedures.
#
#######################################################################

data_MUVLUM
_chemical_formula_moiety         '(C66 H58 N8 O32 S6 Zn4 2-)n'
_symmetry_cell_setting           triclinic
_symmetry_space_group_name_H-M   'P -1'
_symmetry_Int_Tables_number      2
_space_group_name_Hall           '-P 1'
loop_
_symmetry_equiv_pos_site_id
_symmetry_equiv_pos_as_xyz
1 x,y,z
2 -x,-y,-z
_cell_length_a                   12.6390(3)
_cell_length_b                   13.9706(4)
_cell_length_c                   16.2850(4)
_cell_angle_alpha                68.414(3)
_cell_angle_beta                 83.532(2)
_cell_angle_gamma                73.825(2)
_cell_volume                     2567.83
loop_
_atom_site_label
_atom_site_type_symbol
_atom_site_fract_x
_atom_site_fract_y
_atom_site_fract_z
Zn1 Zn 0.68077(3) 0.54891(3) 0.84100(3)
Zn2 Zn 0.63786(3) 0.74166(3) 0.92062(3)
S1 S 0.26386(6) 0.38358(6) 0.87002(6)
S2 S 0.06071(6) 0.86041(6) 0.93991(6)
S3 S 0.51554(10) 0.82020(7) 0.39793(7)
O1 O -0.17111(17) 0.52810(17) 0.87826(17)
O2 O -0.20567(18) 0.68120(18) 0.90207(17)
O3 O 0.1997(2) 0.3133(2) 0.8685(2)
O4 O 0.3200(2) 0.4280(2) 0.78764(17)
O5 O 0.34227(19) 0.33447(19) 0.94334(17)
O6 O -0.0026(2) 0.8176(2) 1.0189(2)
O7 O 0.1263(2) 0.9254(2) 0.9503(2)
O8 O -0.0049(2) 0.9102(2) 0.8606(2)
O9 O 0.53876(17) 0.57157(18) 0.90442(16)
O10 O 0.48959(18) 0.7200(2) 0.93747(18)
O11 O 0.6475(2) 0.65965(19) 0.72661(17)
O12 O 0.6117(2) 0.79014(19) 0.78203(17)
O13 O 0.5524(4) 0.7054(2) 0.4384(2)
O14 O 0.5843(3) 0.8663(3) 0.3251(2)
O15 O 0.3988(3) 0.8579(3) 0.3757(2)
N1 N 0.6827(2) 0.4067(2) 0.83693(19)
N2 N 0.6394(2) -0.1104(2) 0.9096(2)
C1 C 0.7236(3) -0.0957(3) 0.9434(3)
H1 H 0.7751 -0.1549 0.9779
C2 C -0.1418(2) 0.6008(2) 0.8914(2)
C3 C 0.7359(3) 0.0043(3) 0.9284(3)
H2 H 0.7947 0.0119 0.9528
C4 C -0.0209(2) 0.5906(2) 0.8946(2)
C5 C 0.1235(3) 0.6643(2) 0.9128(2)
C6 C 0.0580(3) 0.5018(2) 0.8850(2)
H3 H 0.0356 0.4483 0.8762
C7 C 0.3177(2) 0.5697(2) 0.9076(2)
H4 H 0.3713 0.5116 0.9016
C8 C 0.1679(3) 0.4942(2) 0.8887(2)
C9 C 0.2045(2) 0.5753(2) 0.9028(2)
C10 C 0.5762(3) 0.8357(3) 0.6311(2)
C11 C 0.0104(3) 0.6698(3) 0.9083(2)
H5 H -0.0430 0.7278 0.9148
C12 C 0.3485(2) 0.6494(3) 0.9211(2)
C13 C 0.2691(3) 0.7382(3) 0.9309(2)
H6 H 0.2912 0.7915 0.9403
C14 C 0.1587(3) 0.7459(3) 0.9266(2)
C15 C 0.4683(3) 0.6466(3) 0.9213(2)
C16 C 0.5664(3) -0.0246(3) 0.8592(2)
H7 H 0.5091 -0.0346 0.8348
C17 C 0.6600(3) 0.0938(2) 0.8766(2)
C18 C 0.5729(3) 0.0778(3) 0.8421(2)
H8 H 0.5198 0.1356 0.8078
C19 C 0.6695(3) 0.2026(2) 0.8596(2)
C20 C 0.7707(3) 0.2229(3) 0.8641(2)
H9 H 0.8351 0.1683 0.8744
C21 C 0.7736(3) 0.3248(3) 0.8532(2)
H10 H 0.8410 0.3374 0.8571
C22 C 0.5863(3) 0.3878(3) 0.8299(3)
H11 H 0.5234 0.4442 0.8176
C23 C 0.5766(3) 0.2882(3) 0.8400(3)
H12 H 0.5085 0.2783 0.8338
C24 C 0.6151(3) 0.7571(3) 0.7201(2)
C25 C 0.5683(3) 0.7998(3) 0.5618(3)
H13 H 0.5903 0.7273 0.5711
C26 C 0.5288(3) 0.8707(3) 0.4816(3)
C27 C 0.4961(3) 0.9821(3) 0.4651(2)
C28 C 0.5441(3) 0.9417(3) 0.6180(2)
H14 H 0.5486 0.9645 0.6641
S3A S 0.48446(10) 1.17980(7) 0.60207(7)
O11A O 0.3525(2) 1.34035(19) 0.27339(17)
O12A O 0.3883(2) 1.20986(19) 0.21797(17)
O13A O 0.4476(4) 1.2946(2) 0.5616(2)
O14A O 0.4157(3) 1.1337(3) 0.6749(2)
O15A O 0.6012(3) 1.1421(3) 0.6243(2)
C10A C 0.4238(3) 1.1643(3) 0.3689(2)
C24A C 0.3849(3) 1.2429(3) 0.2799(2)
C25A C 0.4317(3) 1.2002(3) 0.4382(3)
H13A H 0.4097 1.2727 0.4289
C26A C 0.4712(3) 1.1293(3) 0.5184(3)
C27A C 0.5039(3) 1.0179(3) 0.5349(2)
C28A C 0.4559(3) 1.0583(3) 0.3820(2)
H14A H 0.4514 1.0355 0.3359
Zn1A Zn 0.31923(3) 0.45109(3) 1.15900(3)
Zn2A Zn 0.36214(3) 0.25834(3) 1.07938(3)
S1A S 0.73614(6) 0.61642(6) 1.12998(6)
S2A S 0.93929(6) 0.13959(6) 1.06009(6)
O1A O 1.17111(17) 0.47190(17) 1.12174(17)
O2A O 1.20567(18) 0.31880(18) 1.09793(17)
O3A O 0.8003(2) 0.6867(2) 1.1315(2)
O4A O 0.6800(2) 0.5720(2) 1.21236(17)
O5A O 0.65773(19) 0.66553(19) 1.05666(17)
O6A O 1.0026(2) 0.1824(2) 0.9811(2)
O7A O 0.8737(2) 0.0746(2) 1.0497(2)
O8A O 1.0049(2) 0.0898(2) 1.1394(2)
O9A O 0.46124(17) 0.42843(18) 1.09558(16)
O10A O 0.51041(18) 0.2800(2) 1.06253(18)
N1A N 0.3173(2) 0.5933(2) 1.16307(19)
N2A N 0.3606(2) 1.1104(2) 1.0904(2)
C1A C 0.2764(3) 1.0957(3) 1.0566(3)
H1A H 0.2249 1.1549 1.0221
C2A C 1.1418(2) 0.3992(2) 1.1086(2)
C3A C 0.2641(3) 0.9957(3) 1.0716(3)
H2A H 0.2053 0.9881 1.0472
C4A C 1.0209(2) 0.4094(2) 1.1054(2)
C5A C 0.8765(3) 0.3357(2) 1.0872(2)
C6A C 0.9420(3) 0.4982(2) 1.1150(2)
H3A H 0.9644 0.5517 1.1238
C7A C 0.6823(2) 0.4303(2) 1.0924(2)
H4A H 0.6287 0.4884 1.0984
C8A C 0.8321(3) 0.5058(2) 1.1113(2)
C9A C 0.7955(2) 0.4247(2) 1.0972(2)
C11A C 0.9896(3) 0.3302(3) 1.0917(2)
H5A H 1.0430 0.2722 1.0852
C12A C 0.6515(2) 0.3506(3) 1.0789(2)
C13A C 0.7309(3) 0.2618(3) 1.0691(2)
H6A H 0.7088 0.2085 1.0597
C14A C 0.8413(3) 0.2541(3) 1.0734(2)
C15A C 0.5317(3) 0.3534(3) 1.0787(2)
C16A C 0.4336(3) 1.0246(3) 1.1408(2)
H7A H 0.4909 1.0346 1.1652
C17A C 0.3400(3) 0.9062(2) 1.1234(2)
C18A C 0.4271(3) 0.9222(3) 1.1579(2)
H8A H 0.4802 0.8644 1.1922
C19A C 0.3305(3) 0.7974(2) 1.1404(2)
C20A C 0.2293(3) 0.7771(3) 1.1359(2)
H9A H 0.1649 0.8317 1.1256
C21A C 0.2264(3) 0.6752(3) 1.1468(2)
H10A H 0.1590 0.6626 1.1429
C22A C 0.4137(3) 0.6122(3) 1.1701(3)
H11A H 0.4766 0.5558 1.1824
C23A C 0.4234(3) 0.7118(3) 1.1600(3)
H12A H 0.4915 0.7217 1.1662
Zn1_2 Zn -0.31923(3) 0.54891(3) 0.84100(3)
Zn1A_2 Zn 0.31923(3) 1.45109(3) 0.15900(3)
Zn1A_3 Zn 1.31923(3) 0.45109(3) 1.15900(3)
Zn2_2 Zn -0.36214(3) 0.74166(3) 0.92062(3)
Zn2_3 Zn 0.63786(3) -0.25834(3) 0.92062(3)
Zn2A_2 Zn 0.36214(3) 1.25834(3) 0.07938(3)
Zn2A_3 Zn 0.36214(3) 1.25834(3) 1.07938(3)
Zn2A_4 Zn 1.36214(3) 0.25834(3) 1.07938(3)
O1_2 O 0.82889(17) 0.52810(17) 0.87826(17)
O1A_2 O 0.17111(17) 0.47190(17) 1.12174(17)
O2_2 O 0.79433(18) 0.68120(18) 0.90207(17)
O2A_2 O 0.20567(18) 0.31880(18) 1.09793(17)
O11A_2 O 0.3525(2) 0.34035(19) 1.27339(17)
O12A_2 O 0.3883(2) 0.20986(19) 1.21797(17)
N2_2 N 0.6394(2) 0.8896(2) 0.9096(2)
N2A_2 N 0.3606(2) 0.1104(2) 1.0904(2)
O16 O 0.8258(7) 0.2279(7) 0.6501(5)
N3 N 0.7137(10) 0.3970(7) 0.6150(6)
C29 C 0.7317(10) 0.2946(7) 0.6353(6)
H15 H 0.6709 0.2679 0.6394
C30 C 0.8008(16) 0.4495(12) 0.6107(11)
H16 H 0.8114 0.4489 0.6683
H17 H 0.7798 0.5218 0.5705
H18 H 0.8682 0.4123 0.5903
C31 C 0.5954(14) 0.4647(9) 0.5987(7)
H19 H 0.5776 0.4842 0.5379
H20 H 0.5877 0.5279 0.6118
H21 H 0.5465 0.4248 0.6360
N4 N 0.1253(5) 0.1613(6) 0.8289(5)
H22 H 0.0985 0.1336 0.8837
H23 H 0.1212 0.2300 0.8191
C32 C 0.0565(7) 0.1578(8) 0.7676(6)
H24 H 0.0983 0.1544 0.7153
H25 H -0.0038 0.2206 0.7525
H26 H 0.0283 0.0959 0.7935
C33 C 0.2411(5) 0.1052(5) 0.8267(5)
H27 H 0.2726 0.1375 0.7701
H28 H 0.2471 0.0319 0.8363
H29 H 0.2799 0.1094 0.8721
N5 N 0.1418(5) 0.9855(7) 0.3512(4)
H30 H 0.1589 0.9250 0.3392
H31 H 0.1747 0.9706 0.4023
C34 C 0.1893(4) 1.0613(6) 0.2829(4)
H32 H 0.1531 1.0810 0.2281
H33 H 0.2663 1.0301 0.2769
H34 H 0.1801 1.1234 0.2980
C35 C 0.0251(7) 1.0145(12) 0.3653(7)
H35 H -0.0118 1.0127 0.3177
H36 H 0.0030 1.0850 0.3675
H37 H 0.0060 0.9651 0.4200
O17 O 0.2127(6) 0.9710(10) 0.5165(5)
N6 N 0.2887(13) 0.8092(15) 0.6496(12)
C36 C 0.2572(11) 0.8733(13) 0.5507(9)
H38 H 0.2734 0.8348 0.5129
C37 C 0.2721(10) 0.8979(14) 0.6786(12)
H39 H 0.3382 0.8928 0.7056
H40 H 0.2125 0.8969 0.7208
H41 H 0.2547 0.9631 0.6288
C38 C 0.3411(14) 0.7003(14) 0.6626(12)
H42 H 0.3266 0.6567 0.7216
H43 H 0.4191 0.6914 0.6537
H44 H 0.3129 0.6796 0.6212
loop_
_geom_bond_atom_site_label_1
_geom_bond_atom_site_label_2
_geom_bond_site_symmetry_1
_geom_bond_site_symmetry_2
Zn1 O9 1_555 1_555
Zn2 O10 1_555 1_555
S1 O3 1_555 1_555
S2 O6 1_555 1_555
S3 O13 1_555 1_555
O1 C2 1_555 1_555
O2 C2 1_555 1_555
O4 S1 1_555 1_555
O5 S1 1_555 1_555
O7 S2 1_555 1_555
O8 S2 1_555 1_555
O9 C15 1_555 1_555
O10 C15 1_555 1_555
O11 Zn1 1_555 1_555
O12 Zn2 1_555 1_555
O14 S3 1_555 1_555
O15 S3 1_555 1_555
N1 Zn1 1_555 1_555
N2 C1 1_555 1_555
C1 H1 1_555 1_555
C2 C4 1_555 1_555
C3 C1 1_555 1_555
H2 C3 1_555 1_555
C4 C6 1_555 1_555
C5 C9 1_555 1_555
C6 H3 1_555 1_555
C7 H4 1_555 1_555
C8 S1 1_555 1_555
C9 C7 1_555 1_555
C10 C24 1_555 1_555
C11 C4 1_555 1_555
H5 C11 1_555 1_555
C12 C7 1_555 1_555
C13 C12 1_555 1_555
H6 C13 1_555 1_555
C14 S2 1_555 1_555
C15 C12 1_555 1_555
C16 N2 1_555 1_555
H7 C16 1_555 1_555
C17 C3 1_555 1_555
C18 C16 1_555 1_555
H8 C18 1_555 1_555
C19 C17 1_555 1_555
C20 C19 1_555 1_555
H9 C20 1_555 1_555
C21 N1 1_555 1_555
H10 C21 1_555 1_555
C22 N1 1_555 1_555
H11 C22 1_555 1_555
C23 C19 1_555 1_555
H12 C23 1_555 1_555
C24 O11 1_555 1_555
C25 C10 1_555 1_555
H13 C25 1_555 1_555
C26 S3 1_555 1_555
C27 C26 1_555 1_555
C28 C10 1_555 1_555
H14 C28 1_555 1_555
O16 C29 1_555 1_555
N3 C29 1_555 1_555
C29 H15 1_555 1_555
C30 N3 1_555 1_555
H16 C30 1_555 1_555
H17 C30 1_555 1_555
H18 C30 1_555 1_555
C31 N3 1_555 1_555
H19 C31 1_555 1_555
H20 C31 1_555 1_555
H21 C31 1_555 1_555
N4 H22 1_555 1_555
H23 N4 1_555 1_555
C32 N4 1_555 1_555
H24 C32 1_555 1_555
H25 C32 1_555 1_555
H26 C32 1_555 1_555
C33 N4 1_555 1_555
H27 C33 1_555 1_555
H28 C33 1_555 1_555
H29 C33 1_555 1_555
N5 H30 1_555 1_555
H31 N5 1_555 1_555
C34 N5 1_555 1_555
H32 C34 1_555 1_555
H33 C34 1_555 1_555
H34 C34 1_555 1_555
C35 N5 1_555 1_555
H35 C35 1_555 1_555
H36 C35 1_555 1_555
H37 C35 1_555 1_555
O17 C36 1_555 1_555
N6 C36 1_555 1_555
C36 H38 1_555 1_555
C37 N6 1_555 1_555
H39 C37 1_555 1_555
H40 C37 1_555 1_555
H41 C37 1_555 1_555
C38 N6 1_555 1_555
H42 C38 1_555 1_555
H43 C38 1_555 1_555
H44 C38 1_555 1_555
S3A O13A 1_555 1_555
O11A C24A 1_555 1_555
O12A C24A 1_555 1_555
O14A S3A 1_555 1_555
O15A S3A 1_555 1_555
C10A C24A 1_555 1_555
C25A C10A 1_555 1_555
H13A C25A 1_555 1_555
C26A S3A 1_555 1_555
C27A C27 1_555 1_555
C28A C27 1_555 1_555
H14A C28A 1_555 1_555
Zn1A O9A 1_555 1_555
Zn2A O5 1_555 1_555
S1A O3A 1_555 1_555
S2A O6A 1_555 1_555
O1A C2A 1_555 1_555
O2A C2A 1_555 1_555
O4A S1A 1_555 1_555
O5A Zn2 1_555 1_555
O7A S2A 1_555 1_555
O8A S2A 1_555 1_555
O9A C15A 1_555 1_555
O10A Zn2A 1_555 1_555
N1A Zn1A 1_555 1_555
N2A C1A 1_555 1_555
C1A H1A 1_555 1_555
C2A C4A 1_555 1_555
C3A C1A 1_555 1_555
H2A C3A 1_555 1_555
C4A C6A 1_555 1_555
C5A C9A 1_555 1_555
C6A H3A 1_555 1_555
C7A H4A 1_555 1_555
C8A S1A 1_555 1_555
C9A C7A 1_555 1_555
C11A C4A 1_555 1_555
H5A C11A 1_555 1_555
C12A C7A 1_555 1_555
C13A C12A 1_555 1_555
H6A C13A 1_555 1_555
C14A S2A 1_555 1_555
C15A O10A 1_555 1_555
C16A N2A 1_555 1_555
H7A C16A 1_555 1_555
C17A C3A 1_555 1_555
C18A C16A 1_555 1_555
H8A C18A 1_555 1_555
C19A C17A 1_555 1_555
C20A C19A 1_555 1_555
H9A C20A 1_555 1_555
C21A N1A 1_555 1_555
H10A C21A 1_555 1_555
C22A N1A 1_555 1_555
H11A C22A 1_555 1_555
C23A C19A 1_555 1_555
H12A C23A 1_555 1_555
Zn1_2 O1 1_555 1_555
Zn1A_2 O11A 1_555 1_555
Zn1A_3 O1A 1_555 1_555
Zn2_2 O2 1_555 1_555
Zn2_3 N2 1_555 1_555
Zn2A_2 O12A 1_555 1_555
Zn2A_3 N2A 1_555 1_555
Zn2A_4 O2A 1_555 1_555
O1_2 Zn1 1_555 1_555
O1A_2 Zn1A 1_555 1_555
O2_2 Zn2 1_555 1_555
O2A_2 Zn2A 1_555 1_555
O11A_2 Zn1A 1_555 1_555
O12A_2 Zn2A 1_555 1_555
N2_2 Zn2 1_555 1_555
N2A_2 Zn2A 1_555 1_555
O12 C24 1_555 1_555
C5 C11 1_555 1_555
C5 C14 1_555 1_555
C6 C8 1_555 1_555
C8 C9 1_555 1_555
C13 C14 1_555 1_555
C17 C18 1_555 1_555
C20 C21 1_555 1_555
C22 C23 1_555 1_555
C25 C26 1_555 1_555
C28 C27A 1_555 1_555
C10A C28A 1_555 1_555
C25A C26A 1_555 1_555
C26A C27A 1_555 1_555
S1A O5A 1_555 1_555
C5A C11A 1_555 1_555
C5A C14A 1_555 1_555
C6A C8A 1_555 1_555
C8A C9A 1_555 1_555
C12A C15A 1_555 1_555
C13A C14A 1_555 1_555
C17A C18A 1_555 1_555
C20A C21A 1_555 1_555
C22A C23A 1_555 1_555

#END
