
#######################################################################
#
#                 Cambridge Crystallographic Data Centre
#                                CCDC 
#
#######################################################################
#
# If this CIF has been generated from an entry in the Cambridge 
# Structural Database, then it will include bibliographic, chemical, 
# crystal, experimental, refinement or atomic coordinate data resulting 
# from the CCDC's data processing and validation procedures.
#
#######################################################################

data_VEHJOJ
_chemical_formula_moiety         '(C108 H48 O78 Zn22 8+)n'
_symmetry_cell_setting           cubic
_symmetry_space_group_name_H-M   'P m -3 m'
_symmetry_Int_Tables_number      221
_space_group_name_Hall           '-P 4 2 3'
loop_
_symmetry_equiv_pos_site_id
_symmetry_equiv_pos_as_xyz
1 x,y,z
2 -x,-y,z
3 x,-y,-z
4 -x,y,-z
5 z,x,y
6 y,z,x
7 -z,-x,y
8 -y,z,-x
9 z,-x,-y
10 -y,-z,x
11 -z,x,-y
12 y,-z,-x
13 -y,-x,-z
14 y,x,-z
15 y,-x,z
16 -y,x,z
17 -x,-z,-y
18 -z,-y,-x
19 x,z,-y
20 -z,y,x
21 x,-z,y
22 z,y,-x
23 -x,z,y
24 z,-y,x
25 -x,-y,-z
26 x,y,-z
27 -x,y,z
28 x,-y,z
29 -z,-x,-y
30 -y,-z,-x
31 z,x,-y
32 y,-z,x
33 -z,x,y
34 y,z,-x
35 z,-x,y
36 -y,z,x
37 y,x,z
38 -y,-x,z
39 -y,x,-z
40 y,-x,-z
41 x,z,y
42 z,y,x
43 -x,-z,y
44 z,-y,-x
45 -x,z,-y
46 -z,-y,x
47 x,-z,-y
48 -z,y,-x
_cell_length_a                   20.573(5)
_cell_length_b                   20.573(5)
_cell_length_c                   20.573(5)
_cell_angle_alpha                90
_cell_angle_beta                 90
_cell_angle_gamma                90
_cell_volume                     8707.49
loop_
_atom_site_label
_atom_site_type_symbol
_atom_site_fract_x
_atom_site_fract_y
_atom_site_fract_z
C1 C 0.3600(8) 1.0000 0.3600(8)
C2 C 0.3341(5) 0.9410(7) 0.3341(5)
H1 H 0.3491 0.9011 0.3491
C3 C 0.2882(4) 0.9430(7) 0.2882(4)
C4 C 0.2651(7) 1.0000 0.2651(7)
H2 H 0.2331 1.0000 0.2331
C5 C 0.4133(6) 1.0000 0.4133(6)
C6 C 0.2610(6) 0.8812(9) 0.2610(6)
O1 O 0.4318(3) 1.0539(5) 0.4318(3)
O2 O 0.2831(3) 0.8283(5) 0.2831(3)
O3 O 0.2186(4) 0.8877(6) 0.2186(4)
O4 O 0.5000 1.1712(10) 0.5000
Zn1 Zn 0.5000 1.07243(12) 0.5000
Zn2 Zn 0.26319(8) 0.73681(8) 0.26319(8)
Zn3 Zn 0.16524(8) 0.83476(8) 0.16524(8)
C1C C 0.6400(8) 1.0000 0.6400(8)
C1B C 0.3600(8) 1.0000 0.6400(8)
C1A C 0.6400(8) 1.0000 0.3600(8)
C1I C -0.0000 0.6400(8) 0.3600(8)
C1H C 0.3600(8) 0.6400(8) 0.0000
C1D C 0.3600(8) 1.3600(8) 0.0000
C1E C -0.0000 1.3600(8) 0.3600(8)
C1K C 1.0000 0.6400(8) 0.6400(8)
C1F C 0.6400(8) 0.6400(8) 1.0000
C1J C 0.6400(8) 1.3600(8) 1.0000
C1G C 1.0000 1.3600(8) 0.6400(8)
C2W C 0.3341(5) 1.0590(7) 0.3341(5)
C2C C 0.6659(5) 0.9410(7) 0.6659(5)
C2Q C 0.6659(5) 1.0590(7) 0.6659(5)
C2U C 0.3341(5) 0.9410(7) 0.6659(5)
C2B C 0.3341(5) 1.0590(7) 0.6659(5)
C2S C 0.6659(5) 0.9410(7) 0.3341(5)
C2A C 0.6659(5) 1.0590(7) 0.3341(5)
C2I C 0.0590(7) 0.6659(5) 0.3341(5)
C2N C -0.0590(7) 0.6659(5) 0.3341(5)
C2H C 0.3341(5) 0.6659(5) 0.0590(7)
C2T C 0.3341(5) 0.6659(5) -0.0590(7)
C2R C 0.3341(5) 1.3341(5) 0.0590(7)
C2D C 0.3341(5) 1.3341(5) -0.0590(7)
C2O C 0.0590(7) 1.3341(5) 0.3341(5)
C2E C -0.0590(7) 1.3341(5) 0.3341(5)
C2K C 0.9410(7) 0.6659(5) 0.6659(5)
C2L C 1.0590(7) 0.6659(5) 0.6659(5)
C2F C 0.6659(5) 0.6659(5) 0.9410(7)
C2P C 0.6659(5) 0.6659(5) 1.0590(7)
C2V C 0.6659(5) 1.3341(5) 0.9410(7)
C2J C 0.6659(5) 1.3341(5) 1.0590(7)
C2M C 0.9410(7) 1.3341(5) 0.6659(5)
C2G C 1.0590(7) 1.3341(5) 0.6659(5)
H1W H 0.3491 1.0989 0.3491
H1C H 0.6509 0.9011 0.6509
H1Q H 0.6509 1.0989 0.6509
H1U H 0.3491 0.9011 0.6509
H1B H 0.3491 1.0989 0.6509
H1S H 0.6509 0.9011 0.3491
H1A H 0.6509 1.0989 0.3491
H1I H 0.0989 0.6509 0.3491
H1N H -0.0989 0.6509 0.3491
H1H H 0.3491 0.6509 0.0989
H1T H 0.3491 0.6509 -0.0989
H1R H 0.3491 1.3491 0.0989
H1D H 0.3491 1.3491 -0.0989
H1O H 0.0989 1.3491 0.3491
H1E H -0.0989 1.3491 0.3491
H1K H 0.9011 0.6509 0.6509
H1L H 1.0989 0.6509 0.6509
H1F H 0.6509 0.6509 0.9011
H1P H 0.6509 0.6509 1.0989
H1V H 0.6509 1.3491 0.9011
H1J H 0.6509 1.3491 1.0989
H1M H 0.9011 1.3491 0.6509
H1G H 1.0989 1.3491 0.6509
C3W C 0.2882(4) 1.0570(7) 0.2882(4)
C3C C 0.7118(4) 0.9430(7) 0.7118(4)
C3Q C 0.7118(4) 1.0570(7) 0.7118(4)
C3U C 0.2882(4) 0.9430(7) 0.7118(4)
C3B C 0.2882(4) 1.0570(7) 0.7118(4)
C3S C 0.7118(4) 0.9430(7) 0.2882(4)
C3A C 0.7118(4) 1.0570(7) 0.2882(4)
C3I C 0.0570(7) 0.7118(4) 0.2882(4)
C3N C -0.0570(7) 0.7118(4) 0.2882(4)
C3H C 0.2882(4) 0.7118(4) 0.0570(7)
C3T C 0.2882(4) 0.7118(4) -0.0570(7)
C3R C 0.2882(4) 1.2882(4) 0.0570(7)
C3D C 0.2882(4) 1.2882(4) -0.0570(7)
C3O C 0.0570(7) 1.2882(4) 0.2882(4)
C3E C -0.0570(7) 1.2882(4) 0.2882(4)
C3K C 0.9430(7) 0.7118(4) 0.7118(4)
C3L C 1.0570(7) 0.7118(4) 0.7118(4)
C3F C 0.7118(4) 0.7118(4) 0.9430(7)
C3P C 0.7118(4) 0.7118(4) 1.0570(7)
C3V C 0.7118(4) 1.2882(4) 0.9430(7)
C3J C 0.7118(4) 1.2882(4) 1.0570(7)
C3M C 0.9430(7) 1.2882(4) 0.7118(4)
C3G C 1.0570(7) 1.2882(4) 0.7118(4)
C4C C 0.7349(7) 1.0000 0.7349(7)
C4B C 0.2651(7) 1.0000 0.7349(7)
C4A C 0.7349(7) 1.0000 0.2651(7)
C4I C -0.0000 0.7349(7) 0.2651(7)
C4H C 0.2651(7) 0.7349(7) 0.0000
C4D C 0.2651(7) 1.2651(7) 0.0000
C4E C -0.0000 1.2651(7) 0.2651(7)
C4K C 1.0000 0.7349(7) 0.7349(7)
C4F C 0.7349(7) 0.7349(7) 1.0000
C4J C 0.7349(7) 1.2651(7) 1.0000
C4G C 1.0000 1.2651(7) 0.7349(7)
H2C H 0.7669 1.0000 0.7669
H2B H 0.2331 1.0000 0.7669
H2A H 0.7669 1.0000 0.2331
H2I H -0.0000 0.7669 0.2331
H2H H 0.2331 0.7669 0.0000
H2D H 0.2331 1.2331 0.0000
H2E H -0.0000 1.2331 0.2331
H2K H 1.0000 0.7669 0.7669
H2F H 0.7669 0.7669 1.0000
H2J H 0.7669 1.2331 1.0000
H2G H 1.0000 1.2331 0.7669
C5C C 0.5867(6) 1.0000 0.5867(6)
C5B C 0.4133(6) 1.0000 0.5867(6)
C5A C 0.5867(6) 1.0000 0.4133(6)
C5I C -0.0000 0.5867(6) 0.4133(6)
C5H C 0.4133(6) 0.5867(6) 0.0000
C5D C 0.4133(6) 1.4133(6) 0.0000
C5E C -0.0000 1.4133(6) 0.4133(6)
C5K C 1.0000 0.5867(6) 0.5867(6)
C5F C 0.5867(6) 0.5867(6) 1.0000
C5J C 0.5867(6) 1.4133(6) 1.0000
C5G C 1.0000 1.4133(6) 0.5867(6)
C6W C 0.2610(6) 1.1188(9) 0.2610(6)
C6C C 0.7390(6) 0.8812(9) 0.7390(6)
C6Q C 0.7390(6) 1.1188(9) 0.7390(6)
C6U C 0.2610(6) 0.8812(9) 0.7390(6)
C6B C 0.2610(6) 1.1188(9) 0.7390(6)
C6S C 0.7390(6) 0.8812(9) 0.2610(6)
C6A C 0.7390(6) 1.1188(9) 0.2610(6)
C6I C 0.1188(9) 0.7390(6) 0.2610(6)
C6N C -0.1188(9) 0.7390(6) 0.2610(6)
C6H C 0.2610(6) 0.7390(6) 0.1188(9)
C6T C 0.2610(6) 0.7390(6) -0.1188(9)
C6R C 0.2610(6) 1.2610(6) 0.1188(9)
C6D C 0.2610(6) 1.2610(6) -0.1188(9)
C6O C 0.1188(9) 1.2610(6) 0.2610(6)
C6E C -0.1188(9) 1.2610(6) 0.2610(6)
C6K C 0.8812(9) 0.7390(6) 0.7390(6)
C6L C 1.1188(9) 0.7390(6) 0.7390(6)
C6F C 0.7390(6) 0.7390(6) 0.8812(9)
C6P C 0.7390(6) 0.7390(6) 1.1188(9)
C6V C 0.7390(6) 1.2610(6) 0.8812(9)
C6J C 0.7390(6) 1.2610(6) 1.1188(9)
C6M C 0.8812(9) 1.2610(6) 0.7390(6)
C6G C 1.1188(9) 1.2610(6) 0.7390(6)
O1W O 0.4318(3) 0.9461(5) 0.4318(3)
O1C O 0.5682(3) 1.0539(5) 0.5682(3)
O1Q O 0.5682(3) 0.9461(5) 0.5682(3)
O1U O 0.4318(3) 1.0539(5) 0.5682(3)
O1B O 0.4318(3) 0.9461(5) 0.5682(3)
O1S O 0.5682(3) 1.0539(5) 0.4318(3)
O1A O 0.5682(3) 0.9461(5) 0.4318(3)
O1I O -0.0539(5) 0.5682(3) 0.4318(3)
O1N O 0.0539(5) 0.5682(3) 0.4318(3)
O1H O 0.4318(3) 0.5682(3) -0.0539(5)
O1T O 0.4318(3) 0.5682(3) 0.0539(5)
O1R O 0.4318(3) 1.4318(3) -0.0539(5)
O1D O 0.4318(3) 1.4318(3) 0.0539(5)
O1O O -0.0539(5) 1.4318(3) 0.4318(3)
O1E O 0.0539(5) 1.4318(3) 0.4318(3)
O1K O 1.0539(5) 0.5682(3) 0.5682(3)
O1L O 0.9461(5) 0.5682(3) 0.5682(3)
O1F O 0.5682(3) 0.5682(3) 1.0539(5)
O1P O 0.5682(3) 0.5682(3) 0.9461(5)
O1V O 0.5682(3) 1.4318(3) 1.0539(5)
O1J O 0.5682(3) 1.4318(3) 0.9461(5)
O1M O 1.0539(5) 1.4318(3) 0.5682(3)
O1G O 0.9461(5) 1.4318(3) 0.5682(3)
O1G_2 O -0.0539(5) 0.4318(3) 0.5682(3)
O1O_2 O -0.0539(5) 0.4318(3) 0.4318(3)
O1L_2 O -0.0539(5) 0.5682(3) 0.5682(3)
O1M_2 O 0.0539(5) 0.4318(3) 0.5682(3)
O1K_2 O 0.0539(5) 0.5682(3) 0.5682(3)
O1E_2 O 0.0539(5) 0.4318(3) 0.4318(3)
O1J_2 O 0.5682(3) 0.4318(3) -0.0539(5)
O1P_2 O 0.5682(3) 0.5682(3) -0.0539(5)
O1R_2 O 0.4318(3) 0.4318(3) -0.0539(5)
O1V_2 O 0.5682(3) 0.4318(3) 0.0539(5)
O1D_2 O 0.4318(3) 0.4318(3) 0.0539(5)
O1F_2 O 0.5682(3) 0.5682(3) 0.0539(5)
O2W O 0.2831(3) 1.1717(5) 0.2831(3)
O2C O 0.7169(3) 0.8283(5) 0.7169(3)
O2Q O 0.7169(3) 1.1717(5) 0.7169(3)
O2U O 0.2831(3) 0.8283(5) 0.7169(3)
O2B O 0.2831(3) 1.1717(5) 0.7169(3)
O2S O 0.7169(3) 0.8283(5) 0.2831(3)
O2A O 0.7169(3) 1.1717(5) 0.2831(3)
O2I O 0.1717(5) 0.7169(3) 0.2831(3)
O2N O -0.1717(5) 0.7169(3) 0.2831(3)
O2H O 0.2831(3) 0.7169(3) 0.1717(5)
O2T O 0.2831(3) 0.7169(3) -0.1717(5)
O2R O 0.2831(3) 1.2831(3) 0.1717(5)
O2D O 0.2831(3) 1.2831(3) -0.1717(5)
O2O O 0.1717(5) 1.2831(3) 0.2831(3)
O2E O -0.1717(5) 1.2831(3) 0.2831(3)
O2K O 0.8283(5) 0.7169(3) 0.7169(3)
O2L O 1.1717(5) 0.7169(3) 0.7169(3)
O2F O 0.7169(3) 0.7169(3) 0.8283(5)
O2P O 0.7169(3) 0.7169(3) 1.1717(5)
O2V O 0.7169(3) 1.2831(3) 0.8283(5)
O2J O 0.7169(3) 1.2831(3) 1.1717(5)
O2M O 0.8283(5) 1.2831(3) 0.7169(3)
O2G O 1.1717(5) 1.2831(3) 0.7169(3)
O2T_2 O 0.2831(3) 0.7169(3) 0.8283(5)
O2L_2 O 0.1717(5) 0.7169(3) 0.7169(3)
O2G_2 O 0.1717(5) 1.2831(3) 0.7169(3)
O2D_2 O 0.2831(3) 1.2831(3) 0.8283(5)
O2P_2 O 0.7169(3) 0.7169(3) 0.1717(5)
O2N_2 O 0.8283(5) 0.7169(3) 0.2831(3)
O2E_2 O 0.8283(5) 1.2831(3) 0.2831(3)
O2J_2 O 0.7169(3) 1.2831(3) 0.1717(5)
O3W O 0.2186(4) 1.1123(6) 0.2186(4)
O3C O 0.7814(4) 0.8877(6) 0.7814(4)
O3Q O 0.7814(4) 1.1123(6) 0.7814(4)
O3U O 0.2186(4) 0.8877(6) 0.7814(4)
O3B O 0.2186(4) 1.1123(6) 0.7814(4)
O3S O 0.7814(4) 0.8877(6) 0.2186(4)
O3A O 0.7814(4) 1.1123(6) 0.2186(4)
O3I O 0.1123(6) 0.7814(4) 0.2186(4)
O3N O -0.1123(6) 0.7814(4) 0.2186(4)
O3H O 0.2186(4) 0.7814(4) 0.1123(6)
O3T O 0.2186(4) 0.7814(4) -0.1123(6)
O3R O 0.2186(4) 1.2186(4) 0.1123(6)
O3D O 0.2186(4) 1.2186(4) -0.1123(6)
O3O O 0.1123(6) 1.2186(4) 0.2186(4)
O3E O -0.1123(6) 1.2186(4) 0.2186(4)
O3K O 0.8877(6) 0.7814(4) 0.7814(4)
O3L O 1.1123(6) 0.7814(4) 0.7814(4)
O3F O 0.7814(4) 0.7814(4) 0.8877(6)
O3P O 0.7814(4) 0.7814(4) 1.1123(6)
O3V O 0.7814(4) 1.2186(4) 0.8877(6)
O3J O 0.7814(4) 1.2186(4) 1.1123(6)
O3M O 0.8877(6) 1.2186(4) 0.7814(4)
O3G O 1.1123(6) 1.2186(4) 0.7814(4)
O3T_2 O 0.2186(4) 0.7814(4) 0.8877(6)
O3L_2 O 0.1123(6) 0.7814(4) 0.7814(4)
O3G_2 O 0.1123(6) 1.2186(4) 0.7814(4)
O3D_2 O 0.2186(4) 1.2186(4) 0.8877(6)
O3P_2 O 0.7814(4) 0.7814(4) 0.1123(6)
O3N_2 O 0.8877(6) 0.7814(4) 0.2186(4)
O3E_2 O 0.8877(6) 1.2186(4) 0.2186(4)
O3J_2 O 0.7814(4) 1.2186(4) 0.1123(6)
O4A O 0.5000 0.8288(10) 0.5000
O4G O -0.1712(10) 0.5000 0.5000
O4E O 0.1712(10) 0.5000 0.5000
O4H O 0.5000 0.5000 -0.1712(10)
O4D O 0.5000 0.5000 0.1712(10)
Zn1A Zn 0.5000 0.92757(12) 0.5000
Zn1G Zn -0.07243(12) 0.5000 0.5000
Zn1E Zn 0.07243(12) 0.5000 0.5000
Zn1H Zn 0.5000 0.5000 -0.07243(12)
Zn1D Zn 0.5000 0.5000 0.07243(12)
Zn1H_2 Zn 0.5000 1.5000 -0.07243(12)
Zn1D_2 Zn 0.5000 1.5000 0.07243(12)
Zn1G_2 Zn -0.07243(12) 1.5000 0.5000
Zn1E_2 Zn 0.07243(12) 1.5000 0.5000
Zn1E_3 Zn 1.07243(12) 0.5000 0.5000
Zn1G_3 Zn 0.92757(12) 0.5000 0.5000
Zn1D_3 Zn 0.5000 0.5000 1.07243(12)
Zn1H_3 Zn 0.5000 0.5000 0.92757(12)
Zn1D_4 Zn 0.5000 1.5000 1.07243(12)
Zn1H_4 Zn 0.5000 1.5000 0.92757(12)
Zn1E_4 Zn 1.07243(12) 1.5000 0.5000
Zn1G_4 Zn 0.92757(12) 1.5000 0.5000
Zn2O Zn 0.26319(8) 1.26319(8) 0.26319(8)
Zn2C Zn 0.73681(8) 0.73681(8) 0.73681(8)
Zn2M Zn 0.73681(8) 1.26319(8) 0.73681(8)
Zn2L Zn 0.26319(8) 0.73681(8) 0.73681(8)
Zn2B Zn 0.26319(8) 1.26319(8) 0.73681(8)
Zn2N Zn 0.73681(8) 0.73681(8) 0.26319(8)
Zn2A Zn 0.73681(8) 1.26319(8) 0.26319(8)
Zn2N_2 Zn -0.26319(8) 0.73681(8) 0.26319(8)
Zn2L_2 Zn 0.26319(8) 0.73681(8) -0.26319(8)
Zn2B_2 Zn 0.26319(8) 1.26319(8) -0.26319(8)
Zn2A_2 Zn -0.26319(8) 1.26319(8) 0.26319(8)
Zn2L_3 Zn 1.26319(8) 0.73681(8) 0.73681(8)
Zn2N_3 Zn 0.73681(8) 0.73681(8) 1.26319(8)
Zn2A_3 Zn 0.73681(8) 1.26319(8) 1.26319(8)
Zn2B_3 Zn 1.26319(8) 1.26319(8) 0.73681(8)
Zn3O Zn 0.16524(8) 1.16524(8) 0.16524(8)
Zn3C Zn 0.83476(8) 0.83476(8) 0.83476(8)
Zn3M Zn 0.83476(8) 1.16524(8) 0.83476(8)
Zn3L Zn 0.16524(8) 0.83476(8) 0.83476(8)
Zn3B Zn 0.16524(8) 1.16524(8) 0.83476(8)
Zn3N Zn 0.83476(8) 0.83476(8) 0.16524(8)
Zn3A Zn 0.83476(8) 1.16524(8) 0.16524(8)
Zn3N_2 Zn -0.16524(8) 0.83476(8) 0.16524(8)
Zn3L_2 Zn 0.16524(8) 0.83476(8) -0.16524(8)
Zn3B_2 Zn 0.16524(8) 1.16524(8) -0.16524(8)
Zn3A_2 Zn -0.16524(8) 1.16524(8) 0.16524(8)
Zn3L_3 Zn 1.16524(8) 0.83476(8) 0.83476(8)
Zn3N_3 Zn 0.83476(8) 0.83476(8) 1.16524(8)
Zn3A_3 Zn 0.83476(8) 1.16524(8) 1.16524(8)
Zn3B_3 Zn 1.16524(8) 1.16524(8) 0.83476(8)
loop_
_geom_bond_atom_site_label_1
_geom_bond_atom_site_label_2
_geom_bond_site_symmetry_1
_geom_bond_site_symmetry_2
C1 C2 1_555 1_555
C2 H1 1_555 1_555
C3 C2 1_555 1_555
C4 C3 1_555 1_555
H2 C4 1_555 1_555
C5 C1 1_555 1_555
C6 C3 1_555 1_555
O1 C5 1_555 1_555
O2 C6 1_555 1_555
O3 C6 1_555 1_555
O4 Zn1 1_555 1_555
Zn1 O1 1_555 1_555
Zn2 O2 1_555 1_555
Zn3 O3 1_555 1_555
C1C C2C 1_555 1_555
C1B C2U 1_555 1_555
C1A C2S 1_555 1_555
C1I C2I 1_555 1_555
C1H C2H 1_555 1_555
C1D C2R 1_555 1_555
C1E C2O 1_555 1_555
C1K C2K 1_555 1_555
C1F C2F 1_555 1_555
C1J C2V 1_555 1_555
C1G C2M 1_555 1_555
C2W C1 1_555 1_555
C2C H1C 1_555 1_555
C2Q C1C 1_555 1_555
C2U H1U 1_555 1_555
C2B C1B 1_555 1_555
C2S H1S 1_555 1_555
C2A C1A 1_555 1_555
C2I H1I 1_555 1_555
C2N C1I 1_555 1_555
C2H H1H 1_555 1_555
C2T C1H 1_555 1_555
C2R H1R 1_555 1_555
C2D C1D 1_555 1_555
C2O H1O 1_555 1_555
C2E C1E 1_555 1_555
C2K H1K 1_555 1_555
C2L C1K 1_555 1_555
C2F H1F 1_555 1_555
C2P C1F 1_555 1_555
C2V H1V 1_555 1_555
C2J C1J 1_555 1_555
C2M H1M 1_555 1_555
C2G C1G 1_555 1_555
H1W C2W 1_555 1_555
H1Q C2Q 1_555 1_555
H1B C2B 1_555 1_555
H1A C2A 1_555 1_555
H1N C2N 1_555 1_555
H1T C2T 1_555 1_555
H1D C2D 1_555 1_555
H1E C2E 1_555 1_555
H1L C2L 1_555 1_555
H1P C2P 1_555 1_555
H1J C2J 1_555 1_555
H1G C2G 1_555 1_555
C3W C4 1_555 1_555
C3C C2C 1_555 1_555
C3Q C2Q 1_555 1_555
C3U C2U 1_555 1_555
C3B C2B 1_555 1_555
C3S C2S 1_555 1_555
C3A C2A 1_555 1_555
C3I C2I 1_555 1_555
C3N C2N 1_555 1_555
C3H C2H 1_555 1_555
C3T C2T 1_555 1_555
C3R C2R 1_555 1_555
C3D C2D 1_555 1_555
C3O C2O 1_555 1_555
C3E C2E 1_555 1_555
C3K C2K 1_555 1_555
C3L C2L 1_555 1_555
C3F C2F 1_555 1_555
C3P C2P 1_555 1_555
C3V C2V 1_555 1_555
C3J C2J 1_555 1_555
C3M C2M 1_555 1_555
C3G C2G 1_555 1_555
C4C C3C 1_555 1_555
C4B C3U 1_555 1_555
C4A C3S 1_555 1_555
C4I C3I 1_555 1_555
C4H C3H 1_555 1_555
C4D C3R 1_555 1_555
C4E C3O 1_555 1_555
C4K C3K 1_555 1_555
C4F C3F 1_555 1_555
C4J C3V 1_555 1_555
C4G C3M 1_555 1_555
H2C C4C 1_555 1_555
H2B C4B 1_555 1_555
H2A C4A 1_555 1_555
H2I C4I 1_555 1_555
H2H C4H 1_555 1_555
H2D C4D 1_555 1_555
H2E C4E 1_555 1_555
H2K C4K 1_555 1_555
H2F C4F 1_555 1_555
H2J C4J 1_555 1_555
H2G C4G 1_555 1_555
C5C C1C 1_555 1_555
C5B C1B 1_555 1_555
C5A C1A 1_555 1_555
C5I C1I 1_555 1_555
C5H C1H 1_555 1_555
C5D C1D 1_555 1_555
C5E C1E 1_555 1_555
C5K C1K 1_555 1_555
C5F C1F 1_555 1_555
C5J C1J 1_555 1_555
C5G C1G 1_555 1_555
C6W C3W 1_555 1_555
C6C C3C 1_555 1_555
C6Q C3Q 1_555 1_555
C6U C3U 1_555 1_555
C6B C3B 1_555 1_555
C6S C3S 1_555 1_555
C6A C3A 1_555 1_555
C6I C3I 1_555 1_555
C6N C3N 1_555 1_555
C6H C3H 1_555 1_555
C6T C3T 1_555 1_555
C6R C3R 1_555 1_555
C6D C3D 1_555 1_555
C6O C3O 1_555 1_555
C6E C3E 1_555 1_555
C6K C3K 1_555 1_555
C6L C3L 1_555 1_555
C6F C3F 1_555 1_555
C6P C3P 1_555 1_555
C6V C3V 1_555 1_555
C6J C3J 1_555 1_555
C6M C3M 1_555 1_555
C6G C3G 1_555 1_555
O1W C5 1_555 1_555
O1C Zn1 1_555 1_555
O1Q C5C 1_555 1_555
O1U Zn1 1_555 1_555
O1B C5B 1_555 1_555
O1S Zn1 1_555 1_555
O1A C5A 1_555 1_555
O1I C5I 1_555 1_555
O1N C5I 1_555 1_555
O1H C5H 1_555 1_555
O1T C5H 1_555 1_555
O1R C5D 1_555 1_555
O1D C5D 1_555 1_555
O1O C5E 1_555 1_555
O1E C5E 1_555 1_555
O1K C5K 1_555 1_555
O1L C5K 1_555 1_555
O1F C5F 1_555 1_555
O1P C5F 1_555 1_555
O1V C5J 1_555 1_555
O1J C5J 1_555 1_555
O1M C5G 1_555 1_555
O1G C5G 1_555 1_555
O1G_2 Zn1G 1_555 1_555
O1O_2 Zn1G 1_555 1_555
O1L_2 Zn1G 1_555 1_555
O1M_2 Zn1E 1_555 1_555
O1K_2 Zn1E 1_555 1_555
O1E_2 Zn1E 1_555 1_555
O1J_2 Zn1H 1_555 1_555
O1P_2 Zn1H 1_555 1_555
O1R_2 Zn1H 1_555 1_555
O1V_2 Zn1D 1_555 1_555
O1D_2 Zn1D 1_555 1_555
O1F_2 Zn1D 1_555 1_555
O2W C6W 1_555 1_555
O2C C6C 1_555 1_555
O2Q C6Q 1_555 1_555
O2U C6U 1_555 1_555
O2B C6B 1_555 1_555
O2S C6S 1_555 1_555
O2A C6A 1_555 1_555
O2I Zn2 1_555 1_555
O2N C6N 1_555 1_555
O2H Zn2 1_555 1_555
O2T C6T 1_555 1_555
O2R C6R 1_555 1_555
O2D C6D 1_555 1_555
O2O C6O 1_555 1_555
O2E C6E 1_555 1_555
O2K C6K 1_555 1_555
O2L C6L 1_555 1_555
O2F C6F 1_555 1_555
O2P C6P 1_555 1_555
O2V C6V 1_555 1_555
O2J C6J 1_555 1_555
O2M C6M 1_555 1_555
O2G C6G 1_555 1_555
O2T_2 Zn2L 1_555 1_555
O2L_2 Zn2L 1_555 1_555
O2G_2 Zn2B 1_555 1_555
O2D_2 Zn2B 1_555 1_555
O2P_2 Zn2N 1_555 1_555
O2N_2 Zn2N 1_555 1_555
O2E_2 Zn2A 1_555 1_555
O2J_2 Zn2A 1_555 1_555
O3W C6W 1_555 1_555
O3C C6C 1_555 1_555
O3Q C6Q 1_555 1_555
O3U C6U 1_555 1_555
O3B C6B 1_555 1_555
O3S C6S 1_555 1_555
O3A C6A 1_555 1_555
O3I Zn3 1_555 1_555
O3N C6N 1_555 1_555
O3H Zn3 1_555 1_555
O3T C6T 1_555 1_555
O3R C6R 1_555 1_555
O3D C6D 1_555 1_555
O3O C6O 1_555 1_555
O3E C6E 1_555 1_555
O3K C6K 1_555 1_555
O3L C6L 1_555 1_555
O3F C6F 1_555 1_555
O3P C6P 1_555 1_555
O3V C6V 1_555 1_555
O3J C6J 1_555 1_555
O3M C6M 1_555 1_555
O3G C6G 1_555 1_555
O3T_2 Zn3L 1_555 1_555
O3L_2 Zn3L 1_555 1_555
O3G_2 Zn3B 1_555 1_555
O3D_2 Zn3B 1_555 1_555
O3P_2 Zn3N 1_555 1_555
O3N_2 Zn3N 1_555 1_555
O3E_2 Zn3A 1_555 1_555
O3J_2 Zn3A 1_555 1_555
O4A Zn1A 1_555 1_555
O4G Zn1G 1_555 1_555
O4E Zn1E 1_555 1_555
O4H Zn1H 1_555 1_555
O4D Zn1D 1_555 1_555
Zn1A O1W 1_555 1_555
Zn1G O1I 1_555 1_555
Zn1E O1N 1_555 1_555
Zn1H O1H 1_555 1_555
Zn1D O1T 1_555 1_555
Zn1H_2 O1R 1_555 1_555
Zn1D_2 O1D 1_555 1_555
Zn1G_2 O1O 1_555 1_555
Zn1E_2 O1E 1_555 1_555
Zn1E_3 O1K 1_555 1_555
Zn1G_3 O1L 1_555 1_555
Zn1D_3 O1F 1_555 1_555
Zn1H_3 O1P 1_555 1_555
Zn1D_4 O1V 1_555 1_555
Zn1H_4 O1J 1_555 1_555
Zn1E_4 O1M 1_555 1_555
Zn1G_4 O1G 1_555 1_555
Zn2O O2W 1_555 1_555
Zn2C O2C 1_555 1_555
Zn2M O2Q 1_555 1_555
Zn2L O2U 1_555 1_555
Zn2B O2B 1_555 1_555
Zn2N O2S 1_555 1_555
Zn2A O2A 1_555 1_555
Zn2N_2 O2N 1_555 1_555
Zn2L_2 O2T 1_555 1_555
Zn2B_2 O2D 1_555 1_555
Zn2A_2 O2E 1_555 1_555
Zn2L_3 O2L 1_555 1_555
Zn2N_3 O2P 1_555 1_555
Zn2A_3 O2J 1_555 1_555
Zn2B_3 O2G 1_555 1_555
Zn3O O3W 1_555 1_555
Zn3C O3C 1_555 1_555
Zn3M O3Q 1_555 1_555
Zn3L O3U 1_555 1_555
Zn3B O3B 1_555 1_555
Zn3N O3S 1_555 1_555
Zn3A O3A 1_555 1_555
Zn3N_2 O3N 1_555 1_555
Zn3L_2 O3T 1_555 1_555
Zn3B_2 O3D 1_555 1_555
Zn3A_2 O3E 1_555 1_555
Zn3L_3 O3L 1_555 1_555
Zn3N_3 O3P 1_555 1_555
Zn3A_3 O3J 1_555 1_555
Zn3B_3 O3G 1_555 1_555
C2W C3W 1_555 1_555
C3Q C4C 1_555 1_555
C3B C4B 1_555 1_555
C3A C4A 1_555 1_555
C3N C4I 1_555 1_555
C3T C4H 1_555 1_555
C3D C4D 1_555 1_555
C3E C4E 1_555 1_555
C3L C4K 1_555 1_555
C3P C4F 1_555 1_555
C3J C4J 1_555 1_555
C3G C4G 1_555 1_555
C5C O1C 1_555 1_555
C5B O1U 1_555 1_555
C5A O1S 1_555 1_555
C6I O2I 1_555 1_555
C6I O3I 1_555 1_555
C6H O2H 1_555 1_555
C6H O3H 1_555 1_555
O1Q Zn1A 1_555 1_555
O1B Zn1A 1_555 1_555
O1A Zn1A 1_555 1_555
O2R Zn2O 1_555 1_555
O2O Zn2O 1_555 1_555
O2K Zn2C 1_555 1_555
O2F Zn2C 1_555 1_555
O2V Zn2M 1_555 1_555
O2M Zn2M 1_555 1_555
O3R Zn3O 1_555 1_555
O3O Zn3O 1_555 1_555
O3K Zn3C 1_555 1_555
O3F Zn3C 1_555 1_555
O3V Zn3M 1_555 1_555
O3M Zn3M 1_555 1_555

#END
