
#######################################################################
#
#                 Cambridge Crystallographic Data Centre
#                                CCDC 
#
#######################################################################
#
# If this CIF has been generated from an entry in the Cambridge 
# Structural Database, then it will include bibliographic, chemical, 
# crystal, experimental, refinement or atomic coordinate data resulting 
# from the CCDC's data processing and validation procedures.
#
#######################################################################

data_VEHJUP
_chemical_formula_moiety         '(C108 H48 O78 Zn22 8+)n'
_symmetry_cell_setting           cubic
_symmetry_space_group_name_H-M   'P m -3 m'
_symmetry_Int_Tables_number      221
_space_group_name_Hall           '-P 4 2 3'
loop_
_symmetry_equiv_pos_site_id
_symmetry_equiv_pos_as_xyz
1 x,y,z
2 -x,-y,z
3 -x,y,-z
4 x,-y,-z
5 z,x,y
6 z,-x,-y
7 -z,-x,y
8 -z,x,-y
9 y,z,x
10 -y,z,-x
11 y,-z,-x
12 -y,-z,x
13 y,x,-z
14 -y,-x,-z
15 y,-x,z
16 -y,x,z
17 x,z,-y
18 -x,z,y
19 -x,-z,-y
20 x,-z,y
21 z,y,-x
22 z,-y,x
23 -z,y,x
24 -z,-y,-x
25 -x,-y,-z
26 x,y,-z
27 x,-y,z
28 -x,y,z
29 -z,-x,-y
30 -z,x,y
31 z,x,-y
32 z,-x,y
33 -y,-z,-x
34 y,-z,x
35 -y,z,x
36 y,z,-x
37 -y,-x,z
38 y,x,z
39 -y,x,-z
40 y,-x,-z
41 -x,-z,y
42 x,-z,-y
43 x,z,y
44 -x,z,-y
45 -z,-y,x
46 -z,y,-x
47 z,-y,-x
48 z,y,x
_cell_length_a                   20.6155(7)
_cell_length_b                   20.6155(7)
_cell_length_c                   20.6155(7)
_cell_angle_alpha                90
_cell_angle_beta                 90
_cell_angle_gamma                90
_cell_volume                     8761.56
loop_
_atom_site_label
_atom_site_type_symbol
_atom_site_fract_x
_atom_site_fract_y
_atom_site_fract_z
Zn1 Zn 0.0000 0.42776(8) 0.0000
Zn2 Zn 0.23888(4) 0.23888(4) 0.23888(4)
Zn3 Zn 0.33549(5) 0.33549(5) 0.33549(5)
O1 O 0.0689(2) 0.4458(3) 0.0689(2)
O2 O 0.2157(2) 0.3279(3) 0.2157(2)
O3 O 0.2832(3) 0.3868(4) 0.2832(3)
O4 O 0.0000 0.3329(5) 0.0000
C1 C 0.0894(5) 0.5000 0.0894(5)
C2 C 0.1400(4) 0.5000 0.1400(4)
C3 C 0.1638(3) 0.4415(4) 0.1638(3)
H1 H 0.1481 0.4022 0.1481
C4 C 0.2103(3) 0.4427(4) 0.2103(3)
C5 C 0.2339(4) 0.5000 0.2339(4)
H2 H 0.2658 0.5000 0.2658
C6 C 0.2394(4) 0.3801(5) 0.2394(4)
Zn1A Zn 0.0000 0.57224(8) 0.0000
Zn1H Zn 0.42776(8) 0.0000 0.0000
Zn1I Zn 0.57224(8) 0.0000 0.0000
Zn1D Zn 0.0000 0.0000 0.42776(8)
Zn1E Zn 0.0000 0.0000 0.57224(8)
Zn1D_2 Zn 0.0000 1.0000 0.42776(8)
Zn1E_2 Zn 0.0000 1.0000 0.57224(8)
Zn1H_2 Zn 0.42776(8) 1.0000 0.0000
Zn1I_2 Zn 0.57224(8) 1.0000 0.0000
Zn1I_3 Zn -0.42776(8) 0.0000 0.0000
Zn1H_3 Zn -0.57224(8) 0.0000 0.0000
Zn1I_4 Zn -0.42776(8) 1.0000 0.0000
Zn1H_4 Zn -0.57224(8) 1.0000 0.0000
Zn2N Zn 0.23888(4) 0.76112(4) 0.23888(4)
Zn2O Zn -0.23888(4) 0.23888(4) 0.23888(4)
Zn2A Zn -0.23888(4) 0.76112(4) 0.23888(4)
Zn2B Zn -0.23888(4) 0.23888(4) -0.23888(4)
Zn2M Zn -0.23888(4) 0.76112(4) -0.23888(4)
Zn2L Zn 0.23888(4) 0.23888(4) -0.23888(4)
Zn2C Zn 0.23888(4) 0.76112(4) -0.23888(4)
Zn2O_2 Zn 0.76112(4) 0.23888(4) 0.23888(4)
Zn2L_2 Zn 0.23888(4) 0.23888(4) 0.76112(4)
Zn2C_2 Zn 0.23888(4) 0.76112(4) 0.76112(4)
Zn2A_2 Zn 0.76112(4) 0.76112(4) 0.23888(4)
Zn2B_2 Zn -0.23888(4) 0.23888(4) 0.76112(4)
Zn2_2 Zn -0.76112(4) 0.23888(4) 0.23888(4)
Zn2N_2 Zn -0.76112(4) 0.76112(4) 0.23888(4)
Zn2M_2 Zn -0.23888(4) 0.76112(4) 0.76112(4)
Zn3N Zn 0.33549(5) 0.66451(5) 0.33549(5)
Zn3O Zn -0.33549(5) 0.33549(5) 0.33549(5)
Zn3A Zn -0.33549(5) 0.66451(5) 0.33549(5)
Zn3B Zn -0.33549(5) 0.33549(5) -0.33549(5)
Zn3M Zn -0.33549(5) 0.66451(5) -0.33549(5)
Zn3L Zn 0.33549(5) 0.33549(5) -0.33549(5)
Zn3C Zn 0.33549(5) 0.66451(5) -0.33549(5)
Zn3O_2 Zn 0.66451(5) 0.33549(5) 0.33549(5)
Zn3L_2 Zn 0.33549(5) 0.33549(5) 0.66451(5)
Zn3C_2 Zn 0.33549(5) 0.66451(5) 0.66451(5)
Zn3A_2 Zn 0.66451(5) 0.66451(5) 0.33549(5)
Zn3B_2 Zn -0.33549(5) 0.33549(5) 0.66451(5)
Zn3_2 Zn -0.66451(5) 0.33549(5) 0.33549(5)
Zn3N_2 Zn -0.66451(5) 0.66451(5) 0.33549(5)
Zn3M_2 Zn -0.33549(5) 0.66451(5) 0.66451(5)
O1U O 0.0689(2) 0.5542(3) 0.0689(2)
O1V O -0.0689(2) 0.4458(3) 0.0689(2)
O1A O -0.0689(2) 0.5542(3) 0.0689(2)
O1B O -0.0689(2) 0.4458(3) -0.0689(2)
O1W O -0.0689(2) 0.5542(3) -0.0689(2)
O1T O 0.0689(2) 0.4458(3) -0.0689(2)
O1C O 0.0689(2) 0.5542(3) -0.0689(2)
O1H O 0.4458(3) 0.0689(2) 0.0689(2)
O1O O 0.5542(3) 0.0689(2) 0.0689(2)
O1D O 0.0689(2) 0.0689(2) 0.4458(3)
O1P O 0.0689(2) 0.0689(2) 0.5542(3)
O1S O 0.0689(2) 0.9311(2) 0.4458(3)
O1E O 0.0689(2) 0.9311(2) 0.5542(3)
O1N O 0.4458(3) 0.9311(2) 0.0689(2)
O1K O 0.5542(3) 0.9311(2) 0.0689(2)
O1Q O -0.0689(2) 0.0689(2) 0.4458(3)
O1G O -0.0689(2) 0.0689(2) 0.5542(3)
O1O_2 O -0.4458(3) 0.0689(2) 0.0689(2)
O1H_2 O -0.5542(3) 0.0689(2) 0.0689(2)
O1K_2 O -0.4458(3) 0.9311(2) 0.0689(2)
O1N_2 O -0.5542(3) 0.9311(2) 0.0689(2)
O1F O -0.0689(2) 0.9311(2) 0.4458(3)
O1R O -0.0689(2) 0.9311(2) 0.5542(3)
O1L O 0.4458(3) 0.0689(2) -0.0689(2)
O1J O 0.4458(3) -0.0689(2) -0.0689(2)
O1N_3 O 0.4458(3) -0.0689(2) 0.0689(2)
O1K_3 O 0.5542(3) -0.0689(2) 0.0689(2)
O1M O 0.5542(3) -0.0689(2) -0.0689(2)
O1I O 0.5542(3) 0.0689(2) -0.0689(2)
O1S_2 O 0.0689(2) -0.0689(2) 0.4458(3)
O1F_2 O -0.0689(2) -0.0689(2) 0.4458(3)
O1R_2 O -0.0689(2) -0.0689(2) 0.5542(3)
O1E_2 O 0.0689(2) -0.0689(2) 0.5542(3)
O2U O 0.2157(2) 0.6721(3) 0.2157(2)
O2V O -0.2157(2) 0.3279(3) 0.2157(2)
O2A O -0.2157(2) 0.6721(3) 0.2157(2)
O2B O -0.2157(2) 0.3279(3) -0.2157(2)
O2W O -0.2157(2) 0.6721(3) -0.2157(2)
O2T O 0.2157(2) 0.3279(3) -0.2157(2)
O2C O 0.2157(2) 0.6721(3) -0.2157(2)
O2H O 0.3279(3) 0.2157(2) 0.2157(2)
O2O O 0.6721(3) 0.2157(2) 0.2157(2)
O2D O 0.2157(2) 0.2157(2) 0.3279(3)
O2P O 0.2157(2) 0.2157(2) 0.6721(3)
O2S O 0.2157(2) 0.7843(2) 0.3279(3)
O2E O 0.2157(2) 0.7843(2) 0.6721(3)
O2N O 0.3279(3) 0.7843(2) 0.2157(2)
O2K O 0.6721(3) 0.7843(2) 0.2157(2)
O2Q O -0.2157(2) 0.2157(2) 0.3279(3)
O2G O -0.2157(2) 0.2157(2) 0.6721(3)
O2O_2 O -0.3279(3) 0.2157(2) 0.2157(2)
O2H_2 O -0.6721(3) 0.2157(2) 0.2157(2)
O2K_2 O -0.3279(3) 0.7843(2) 0.2157(2)
O2N_2 O -0.6721(3) 0.7843(2) 0.2157(2)
O2F O -0.2157(2) 0.7843(2) 0.3279(3)
O2R O -0.2157(2) 0.7843(2) 0.6721(3)
O2I O -0.3279(3) 0.2157(2) -0.2157(2)
O2G_2 O -0.2157(2) 0.2157(2) -0.3279(3)
O2R_2 O -0.2157(2) 0.7843(2) -0.3279(3)
O2M O -0.3279(3) 0.7843(2) -0.2157(2)
O2P_2 O 0.2157(2) 0.2157(2) -0.3279(3)
O2L O 0.3279(3) 0.2157(2) -0.2157(2)
O2J O 0.3279(3) 0.7843(2) -0.2157(2)
O2E_2 O 0.2157(2) 0.7843(2) -0.3279(3)
O3U O 0.2832(3) 0.6132(4) 0.2832(3)
O3V O -0.2832(3) 0.3868(4) 0.2832(3)
O3A O -0.2832(3) 0.6132(4) 0.2832(3)
O3B O -0.2832(3) 0.3868(4) -0.2832(3)
O3W O -0.2832(3) 0.6132(4) -0.2832(3)
O3T O 0.2832(3) 0.3868(4) -0.2832(3)
O3C O 0.2832(3) 0.6132(4) -0.2832(3)
O3H O 0.3868(4) 0.2832(3) 0.2832(3)
O3O O 0.6132(4) 0.2832(3) 0.2832(3)
O3D O 0.2832(3) 0.2832(3) 0.3868(4)
O3P O 0.2832(3) 0.2832(3) 0.6132(4)
O3S O 0.2832(3) 0.7168(3) 0.3868(4)
O3E O 0.2832(3) 0.7168(3) 0.6132(4)
O3N O 0.3868(4) 0.7168(3) 0.2832(3)
O3K O 0.6132(4) 0.7168(3) 0.2832(3)
O3Q O -0.2832(3) 0.2832(3) 0.3868(4)
O3G O -0.2832(3) 0.2832(3) 0.6132(4)
O3O_2 O -0.3868(4) 0.2832(3) 0.2832(3)
O3H_2 O -0.6132(4) 0.2832(3) 0.2832(3)
O3K_2 O -0.3868(4) 0.7168(3) 0.2832(3)
O3N_2 O -0.6132(4) 0.7168(3) 0.2832(3)
O3F O -0.2832(3) 0.7168(3) 0.3868(4)
O3R O -0.2832(3) 0.7168(3) 0.6132(4)
O3I O -0.3868(4) 0.2832(3) -0.2832(3)
O3G_2 O -0.2832(3) 0.2832(3) -0.3868(4)
O3R_2 O -0.2832(3) 0.7168(3) -0.3868(4)
O3M O -0.3868(4) 0.7168(3) -0.2832(3)
O3P_2 O 0.2832(3) 0.2832(3) -0.3868(4)
O3L O 0.3868(4) 0.2832(3) -0.2832(3)
O3J O 0.3868(4) 0.7168(3) -0.2832(3)
O3E_2 O 0.2832(3) 0.7168(3) -0.3868(4)
O4A O 0.0000 0.6671(5) 0.0000
O4H O 0.3329(5) 0.0000 0.0000
O4I O 0.6671(5) 0.0000 0.0000
O4D O 0.0000 0.0000 0.3329(5)
O4E O 0.0000 0.0000 0.6671(5)
C1A C -0.0894(5) 0.5000 0.0894(5)
C1B C -0.0894(5) 0.5000 -0.0894(5)
C1C C 0.0894(5) 0.5000 -0.0894(5)
C1H C 0.5000 0.0894(5) 0.0894(5)
C1D C 0.0894(5) 0.0894(5) 0.5000
C1E C 0.0894(5) 0.9106(5) 0.5000
C1K C 0.5000 0.9106(5) 0.0894(5)
C1G C -0.0894(5) 0.0894(5) 0.5000
C1H_2 C -0.5000 0.0894(5) 0.0894(5)
C1K_2 C -0.5000 0.9106(5) 0.0894(5)
C1F C -0.0894(5) 0.9106(5) 0.5000
C2A C -0.1400(4) 0.5000 0.1400(4)
C2B C -0.1400(4) 0.5000 -0.1400(4)
C2C C 0.1400(4) 0.5000 -0.1400(4)
C2H C 0.5000 0.1400(4) 0.1400(4)
C2D C 0.1400(4) 0.1400(4) 0.5000
C2E C 0.1400(4) 0.8600(4) 0.5000
C2K C 0.5000 0.8600(4) 0.1400(4)
C2G C -0.1400(4) 0.1400(4) 0.5000
C2H_2 C -0.5000 0.1400(4) 0.1400(4)
C2K_2 C -0.5000 0.8600(4) 0.1400(4)
C2F C -0.1400(4) 0.8600(4) 0.5000
C3U C 0.1638(3) 0.5585(4) 0.1638(3)
C3V C -0.1638(3) 0.4415(4) 0.1638(3)
C3A C -0.1638(3) 0.5585(4) 0.1638(3)
C3B C -0.1638(3) 0.4415(4) -0.1638(3)
C3W C -0.1638(3) 0.5585(4) -0.1638(3)
C3T C 0.1638(3) 0.4415(4) -0.1638(3)
C3C C 0.1638(3) 0.5585(4) -0.1638(3)
C3H C 0.4415(4) 0.1638(3) 0.1638(3)
C3O C 0.5585(4) 0.1638(3) 0.1638(3)
C3D C 0.1638(3) 0.1638(3) 0.4415(4)
C3P C 0.1638(3) 0.1638(3) 0.5585(4)
C3S C 0.1638(3) 0.8362(3) 0.4415(4)
C3E C 0.1638(3) 0.8362(3) 0.5585(4)
C3N C 0.4415(4) 0.8362(3) 0.1638(3)
C3K C 0.5585(4) 0.8362(3) 0.1638(3)
C3Q C -0.1638(3) 0.1638(3) 0.4415(4)
C3G C -0.1638(3) 0.1638(3) 0.5585(4)
C3O_2 C -0.4415(4) 0.1638(3) 0.1638(3)
C3H_2 C -0.5585(4) 0.1638(3) 0.1638(3)
C3K_2 C -0.4415(4) 0.8362(3) 0.1638(3)
C3N_2 C -0.5585(4) 0.8362(3) 0.1638(3)
C3F C -0.1638(3) 0.8362(3) 0.4415(4)
C3R C -0.1638(3) 0.8362(3) 0.5585(4)
H1U H 0.1481 0.5978 0.1481
H1V H -0.1481 0.4022 0.1481
H1A H -0.1481 0.5978 0.1481
H1B H -0.1481 0.4022 -0.1481
H1W H -0.1481 0.5978 -0.1481
H1T H 0.1481 0.4022 -0.1481
H1C H 0.1481 0.5978 -0.1481
H1H H 0.4022 0.1481 0.1481
H1O H 0.5978 0.1481 0.1481
H1D H 0.1481 0.1481 0.4022
H1P H 0.1481 0.1481 0.5978
H1S H 0.1481 0.8519 0.4022
H1E H 0.1481 0.8519 0.5978
H1N H 0.4022 0.8519 0.1481
H1K H 0.5978 0.8519 0.1481
H1Q H -0.1481 0.1481 0.4022
H1G H -0.1481 0.1481 0.5978
H1O_2 H -0.4022 0.1481 0.1481
H1H_2 H -0.5978 0.1481 0.1481
H1K_2 H -0.4022 0.8519 0.1481
H1N_2 H -0.5978 0.8519 0.1481
H1F H -0.1481 0.8519 0.4022
H1R H -0.1481 0.8519 0.5978
C4U C 0.2103(3) 0.5573(4) 0.2103(3)
C4V C -0.2103(3) 0.4427(4) 0.2103(3)
C4A C -0.2103(3) 0.5573(4) 0.2103(3)
C4B C -0.2103(3) 0.4427(4) -0.2103(3)
C4W C -0.2103(3) 0.5573(4) -0.2103(3)
C4T C 0.2103(3) 0.4427(4) -0.2103(3)
C4C C 0.2103(3) 0.5573(4) -0.2103(3)
C4H C 0.4427(4) 0.2103(3) 0.2103(3)
C4O C 0.5573(4) 0.2103(3) 0.2103(3)
C4D C 0.2103(3) 0.2103(3) 0.4427(4)
C4P C 0.2103(3) 0.2103(3) 0.5573(4)
C4S C 0.2103(3) 0.7897(3) 0.4427(4)
C4E C 0.2103(3) 0.7897(3) 0.5573(4)
C4N C 0.4427(4) 0.7897(3) 0.2103(3)
C4K C 0.5573(4) 0.7897(3) 0.2103(3)
C4Q C -0.2103(3) 0.2103(3) 0.4427(4)
C4G C -0.2103(3) 0.2103(3) 0.5573(4)
C4O_2 C -0.4427(4) 0.2103(3) 0.2103(3)
C4H_2 C -0.5573(4) 0.2103(3) 0.2103(3)
C4K_2 C -0.4427(4) 0.7897(3) 0.2103(3)
C4N_2 C -0.5573(4) 0.7897(3) 0.2103(3)
C4F C -0.2103(3) 0.7897(3) 0.4427(4)
C4R C -0.2103(3) 0.7897(3) 0.5573(4)
C5A C -0.2339(4) 0.5000 0.2339(4)
C5B C -0.2339(4) 0.5000 -0.2339(4)
C5C C 0.2339(4) 0.5000 -0.2339(4)
C5H C 0.5000 0.2339(4) 0.2339(4)
C5D C 0.2339(4) 0.2339(4) 0.5000
C5E C 0.2339(4) 0.7661(4) 0.5000
C5K C 0.5000 0.7661(4) 0.2339(4)
C5G C -0.2339(4) 0.2339(4) 0.5000
C5H_2 C -0.5000 0.2339(4) 0.2339(4)
C5K_2 C -0.5000 0.7661(4) 0.2339(4)
C5F C -0.2339(4) 0.7661(4) 0.5000
H2A H -0.2658 0.5000 0.2658
H2B H -0.2658 0.5000 -0.2658
H2C H 0.2658 0.5000 -0.2658
H2H H 0.5000 0.2658 0.2658
H2D H 0.2658 0.2658 0.5000
H2E H 0.2658 0.7342 0.5000
H2K H 0.5000 0.7342 0.2658
H2G H -0.2658 0.2658 0.5000
H2H_2 H -0.5000 0.2658 0.2658
H2K_2 H -0.5000 0.7342 0.2658
H2F H -0.2658 0.7342 0.5000
C6U C 0.2394(4) 0.6199(5) 0.2394(4)
C6V C -0.2394(4) 0.3801(5) 0.2394(4)
C6A C -0.2394(4) 0.6199(5) 0.2394(4)
C6B C -0.2394(4) 0.3801(5) -0.2394(4)
C6W C -0.2394(4) 0.6199(5) -0.2394(4)
C6T C 0.2394(4) 0.3801(5) -0.2394(4)
C6C C 0.2394(4) 0.6199(5) -0.2394(4)
C6H C 0.3801(5) 0.2394(4) 0.2394(4)
C6O C 0.6199(5) 0.2394(4) 0.2394(4)
C6D C 0.2394(4) 0.2394(4) 0.3801(5)
C6P C 0.2394(4) 0.2394(4) 0.6199(5)
C6S C 0.2394(4) 0.7606(4) 0.3801(5)
C6E C 0.2394(4) 0.7606(4) 0.6199(5)
C6N C 0.3801(5) 0.7606(4) 0.2394(4)
C6K C 0.6199(5) 0.7606(4) 0.2394(4)
C6Q C -0.2394(4) 0.2394(4) 0.3801(5)
C6G C -0.2394(4) 0.2394(4) 0.6199(5)
C6O_2 C -0.3801(5) 0.2394(4) 0.2394(4)
C6H_2 C -0.6199(5) 0.2394(4) 0.2394(4)
C6K_2 C -0.3801(5) 0.7606(4) 0.2394(4)
C6N_2 C -0.6199(5) 0.7606(4) 0.2394(4)
C6F C -0.2394(4) 0.7606(4) 0.3801(5)
C6R C -0.2394(4) 0.7606(4) 0.6199(5)
loop_
_geom_bond_atom_site_label_1
_geom_bond_atom_site_label_2
_geom_bond_site_symmetry_1
_geom_bond_site_symmetry_2
Zn1 O1 1_555 1_555
Zn2 O2 1_555 1_555
Zn3 O3 1_555 1_555
O1 C1 1_555 1_555
O2 C6 1_555 1_555
O3 C6 1_555 1_555
O4 Zn1 1_555 1_555
C1 C2 1_555 1_555
C2 C3 1_555 1_555
C3 H1 1_555 1_555
C4 C3 1_555 1_555
C5 C4 1_555 1_555
H2 C5 1_555 1_555
C6 C4 1_555 1_555
Zn1A O1U 1_555 1_555
Zn1H O1H 1_555 1_555
Zn1I O1O 1_555 1_555
Zn1D O1D 1_555 1_555
Zn1E O1P 1_555 1_555
Zn1D_2 O1S 1_555 1_555
Zn1E_2 O1E 1_555 1_555
Zn1H_2 O1N 1_555 1_555
Zn1I_2 O1K 1_555 1_555
Zn1I_3 O1O_2 1_555 1_555
Zn1H_3 O1H_2 1_555 1_555
Zn1I_4 O1K_2 1_555 1_555
Zn1H_4 O1N_2 1_555 1_555
Zn2N O2U 1_555 1_555
Zn2O O2V 1_555 1_555
Zn2A O2A 1_555 1_555
Zn2B O2B 1_555 1_555
Zn2M O2W 1_555 1_555
Zn2L O2T 1_555 1_555
Zn2C O2C 1_555 1_555
Zn2O_2 O2O 1_555 1_555
Zn2L_2 O2P 1_555 1_555
Zn2C_2 O2E 1_555 1_555
Zn2A_2 O2K 1_555 1_555
Zn2B_2 O2G 1_555 1_555
Zn2_2 O2H_2 1_555 1_555
Zn2N_2 O2N_2 1_555 1_555
Zn2M_2 O2R 1_555 1_555
Zn3N O3U 1_555 1_555
Zn3O O3V 1_555 1_555
Zn3A O3A 1_555 1_555
Zn3B O3B 1_555 1_555
Zn3M O3W 1_555 1_555
Zn3L O3T 1_555 1_555
Zn3C O3C 1_555 1_555
Zn3O_2 O3O 1_555 1_555
Zn3L_2 O3P 1_555 1_555
Zn3C_2 O3E 1_555 1_555
Zn3A_2 O3K 1_555 1_555
Zn3B_2 O3G 1_555 1_555
Zn3_2 O3H_2 1_555 1_555
Zn3N_2 O3N_2 1_555 1_555
Zn3M_2 O3R 1_555 1_555
O1U C1 1_555 1_555
O1V Zn1 1_555 1_555
O1A Zn1A 1_555 1_555
O1B Zn1 1_555 1_555
O1W Zn1A 1_555 1_555
O1T Zn1 1_555 1_555
O1C Zn1A 1_555 1_555
O1H C1H 1_555 1_555
O1O C1H 1_555 1_555
O1D C1D 1_555 1_555
O1P C1D 1_555 1_555
O1S C1E 1_555 1_555
O1E C1E 1_555 1_555
O1N C1K 1_555 1_555
O1K C1K 1_555 1_555
O1Q Zn1D 1_555 1_555
O1G Zn1E 1_555 1_555
O1O_2 C1H_2 1_555 1_555
O1H_2 C1H_2 1_555 1_555
O1K_2 C1K_2 1_555 1_555
O1N_2 C1K_2 1_555 1_555
O1F Zn1D_2 1_555 1_555
O1R Zn1E_2 1_555 1_555
O1L Zn1H 1_555 1_555
O1J Zn1H 1_555 1_555
O1N_3 Zn1H 1_555 1_555
O1K_3 Zn1I 1_555 1_555
O1M Zn1I 1_555 1_555
O1I Zn1I 1_555 1_555
O1S_2 Zn1D 1_555 1_555
O1F_2 Zn1D 1_555 1_555
O1R_2 Zn1E 1_555 1_555
O1E_2 Zn1E 1_555 1_555
O2U C6U 1_555 1_555
O2V C6V 1_555 1_555
O2A C6A 1_555 1_555
O2B C6B 1_555 1_555
O2W C6W 1_555 1_555
O2T C6T 1_555 1_555
O2C C6C 1_555 1_555
O2H Zn2 1_555 1_555
O2O C6O 1_555 1_555
O2D Zn2 1_555 1_555
O2P C6P 1_555 1_555
O2S Zn2N 1_555 1_555
O2E C6E 1_555 1_555
O2N Zn2N 1_555 1_555
O2K C6K 1_555 1_555
O2Q Zn2O 1_555 1_555
O2G C6G 1_555 1_555
O2O_2 Zn2O 1_555 1_555
O2H_2 C6H_2 1_555 1_555
O2K_2 Zn2A 1_555 1_555
O2N_2 C6N_2 1_555 1_555
O2F Zn2A 1_555 1_555
O2R C6R 1_555 1_555
O2I Zn2B 1_555 1_555
O2G_2 Zn2B 1_555 1_555
O2R_2 Zn2M 1_555 1_555
O2M Zn2M 1_555 1_555
O2P_2 Zn2L 1_555 1_555
O2L Zn2L 1_555 1_555
O2J Zn2C 1_555 1_555
O2E_2 Zn2C 1_555 1_555
O3U C6U 1_555 1_555
O3V C6V 1_555 1_555
O3A C6A 1_555 1_555
O3B C6B 1_555 1_555
O3W C6W 1_555 1_555
O3T C6T 1_555 1_555
O3C C6C 1_555 1_555
O3H Zn3 1_555 1_555
O3O C6O 1_555 1_555
O3D Zn3 1_555 1_555
O3P C6P 1_555 1_555
O3S Zn3N 1_555 1_555
O3E C6E 1_555 1_555
O3N Zn3N 1_555 1_555
O3K C6K 1_555 1_555
O3Q Zn3O 1_555 1_555
O3G C6G 1_555 1_555
O3O_2 Zn3O 1_555 1_555
O3H_2 C6H_2 1_555 1_555
O3K_2 Zn3A 1_555 1_555
O3N_2 C6N_2 1_555 1_555
O3F Zn3A 1_555 1_555
O3R C6R 1_555 1_555
O3I Zn3B 1_555 1_555
O3G_2 Zn3B 1_555 1_555
O3R_2 Zn3M 1_555 1_555
O3M Zn3M 1_555 1_555
O3P_2 Zn3L 1_555 1_555
O3L Zn3L 1_555 1_555
O3J Zn3C 1_555 1_555
O3E_2 Zn3C 1_555 1_555
O4A Zn1A 1_555 1_555
O4H Zn1H 1_555 1_555
O4I Zn1I 1_555 1_555
O4D Zn1D 1_555 1_555
O4E Zn1E 1_555 1_555
C1A O1V 1_555 1_555
C1B O1B 1_555 1_555
C1C O1T 1_555 1_555
C1H C2H 1_555 1_555
C1D C2D 1_555 1_555
C1E C2E 1_555 1_555
C1K C2K 1_555 1_555
C1G O1Q 1_555 1_555
C1H_2 C2H_2 1_555 1_555
C1K_2 C2K_2 1_555 1_555
C1F O1F 1_555 1_555
C2A C1A 1_555 1_555
C2B C1B 1_555 1_555
C2C C1C 1_555 1_555
C2H C3H 1_555 1_555
C2D C3D 1_555 1_555
C2E C3S 1_555 1_555
C2K C3N 1_555 1_555
C2G C1G 1_555 1_555
C2H_2 C3O_2 1_555 1_555
C2K_2 C3K_2 1_555 1_555
C2F C1F 1_555 1_555
C3U C2 1_555 1_555
C3V C2A 1_555 1_555
C3A C2A 1_555 1_555
C3B C2B 1_555 1_555
C3W C2B 1_555 1_555
C3T C2C 1_555 1_555
C3C C2C 1_555 1_555
C3H H1H 1_555 1_555
C3O C2H 1_555 1_555
C3D H1D 1_555 1_555
C3P C2D 1_555 1_555
C3S H1S 1_555 1_555
C3E C2E 1_555 1_555
C3N H1N 1_555 1_555
C3K C2K 1_555 1_555
C3Q C2G 1_555 1_555
C3G C2G 1_555 1_555
C3O_2 H1O_2 1_555 1_555
C3H_2 C2H_2 1_555 1_555
C3K_2 H1K_2 1_555 1_555
C3N_2 C2K_2 1_555 1_555
C3F C2F 1_555 1_555
C3R C2F 1_555 1_555
H1U C3U 1_555 1_555
H1V C3V 1_555 1_555
H1A C3A 1_555 1_555
H1B C3B 1_555 1_555
H1W C3W 1_555 1_555
H1T C3T 1_555 1_555
H1C C3C 1_555 1_555
H1O C3O 1_555 1_555
H1P C3P 1_555 1_555
H1E C3E 1_555 1_555
H1K C3K 1_555 1_555
H1Q C3Q 1_555 1_555
H1G C3G 1_555 1_555
H1H_2 C3H_2 1_555 1_555
H1N_2 C3N_2 1_555 1_555
H1F C3F 1_555 1_555
H1R C3R 1_555 1_555
C4U C5 1_555 1_555
C4V C3V 1_555 1_555
C4A C3A 1_555 1_555
C4B C3B 1_555 1_555
C4W C3W 1_555 1_555
C4T C3T 1_555 1_555
C4C C3C 1_555 1_555
C4H C3H 1_555 1_555
C4O C3O 1_555 1_555
C4D C3D 1_555 1_555
C4P C3P 1_555 1_555
C4S C3S 1_555 1_555
C4E C3E 1_555 1_555
C4N C3N 1_555 1_555
C4K C3K 1_555 1_555
C4Q C3Q 1_555 1_555
C4G C3G 1_555 1_555
C4O_2 C3O_2 1_555 1_555
C4H_2 C3H_2 1_555 1_555
C4K_2 C3K_2 1_555 1_555
C4N_2 C3N_2 1_555 1_555
C4F C3F 1_555 1_555
C4R C3R 1_555 1_555
C5A C4V 1_555 1_555
C5B C4B 1_555 1_555
C5C C4T 1_555 1_555
C5H C4H 1_555 1_555
C5D C4D 1_555 1_555
C5E C4S 1_555 1_555
C5K C4N 1_555 1_555
C5G C4Q 1_555 1_555
C5H_2 C4O_2 1_555 1_555
C5K_2 C4K_2 1_555 1_555
C5F C4F 1_555 1_555
H2A C5A 1_555 1_555
H2B C5B 1_555 1_555
H2C C5C 1_555 1_555
H2H C5H 1_555 1_555
H2D C5D 1_555 1_555
H2E C5E 1_555 1_555
H2K C5K 1_555 1_555
H2G C5G 1_555 1_555
H2H_2 C5H_2 1_555 1_555
H2K_2 C5K_2 1_555 1_555
H2F C5F 1_555 1_555
C6U C4U 1_555 1_555
C6V C4V 1_555 1_555
C6A C4A 1_555 1_555
C6B C4B 1_555 1_555
C6W C4W 1_555 1_555
C6T C4T 1_555 1_555
C6C C4C 1_555 1_555
C6H O2H 1_555 1_555
C6O C4O 1_555 1_555
C6D O2D 1_555 1_555
C6P C4P 1_555 1_555
C6S O2S 1_555 1_555
C6E C4E 1_555 1_555
C6N O2N 1_555 1_555
C6K C4K 1_555 1_555
C6Q O2Q 1_555 1_555
C6G C4G 1_555 1_555
C6O_2 O2O_2 1_555 1_555
C6H_2 C4H_2 1_555 1_555
C6K_2 O2K_2 1_555 1_555
C6N_2 C4N_2 1_555 1_555
C6F O2F 1_555 1_555
C6R C4R 1_555 1_555
O1A C1A 1_555 1_555
O1W C1B 1_555 1_555
O1C C1C 1_555 1_555
O1G C1G 1_555 1_555
O1R C1F 1_555 1_555
O3H C6H 1_555 1_555
O3D C6D 1_555 1_555
O3S C6S 1_555 1_555
O3N C6N 1_555 1_555
O3Q C6Q 1_555 1_555
O3O_2 C6O_2 1_555 1_555
O3K_2 C6K_2 1_555 1_555
O3F C6F 1_555 1_555
C3U C4U 1_555 1_555
C4A C5A 1_555 1_555
C4W C5B 1_555 1_555
C4C C5C 1_555 1_555
C4H C6H 1_555 1_555
C4O C5H 1_555 1_555
C4D C6D 1_555 1_555
C4P C5D 1_555 1_555
C4S C6S 1_555 1_555
C4E C5E 1_555 1_555
C4N C6N 1_555 1_555
C4K C5K 1_555 1_555
C4Q C6Q 1_555 1_555
C4G C5G 1_555 1_555
C4O_2 C6O_2 1_555 1_555
C4H_2 C5H_2 1_555 1_555
C4K_2 C6K_2 1_555 1_555
C4N_2 C5K_2 1_555 1_555
C4F C6F 1_555 1_555
C4R C5F 1_555 1_555

#END
