
#######################################################################
#
#                 Cambridge Crystallographic Data Centre
#                                CCDC 
#
#######################################################################
#
# If this CIF has been generated from an entry in the Cambridge 
# Structural Database, then it will include bibliographic, chemical, 
# crystal, experimental, refinement or atomic coordinate data resulting 
# from the CCDC's data processing and validation procedures.
#
#######################################################################

data_VEHKEA
_chemical_formula_moiety         '(C27 H9 O18 Zn3 3-)n'
_symmetry_cell_setting           rhombohedral
_symmetry_space_group_name_H-M   'R -3 c'
_symmetry_Int_Tables_number      167
_space_group_name_Hall           '-R 3 2"c'
loop_
_symmetry_equiv_pos_site_id
_symmetry_equiv_pos_as_xyz
1 x,y,z
2 -y,x-y,z
3 -x+y,-x,z
4 x-y,-y,1/2-z
5 -x,-x+y,1/2-z
6 y,x,1/2-z
7 2/3+x,1/3+y,1/3+z
8 2/3-y,1/3+x-y,1/3+z
9 2/3-x+y,1/3-x,1/3+z
10 2/3+x-y,1/3-y,5/6-z
11 2/3-x,1/3-x+y,5/6-z
12 2/3+y,1/3+x,5/6-z
13 1/3+x,2/3+y,2/3+z
14 1/3-y,2/3+x-y,2/3+z
15 1/3-x+y,2/3-x,2/3+z
16 1/3+x-y,2/3-y,1/6-z
17 1/3-x,2/3-x+y,1/6-z
18 1/3+y,2/3+x,1/6-z
19 -x,-y,-z
20 y,-x+y,-z
21 x-y,x,-z
22 -x+y,y,1/2+z
23 x,x-y,1/2+z
24 -y,-x,1/2+z
25 1/3-x,2/3-y,2/3-z
26 1/3+y,2/3-x+y,2/3-z
27 1/3+x-y,2/3+x,2/3-z
28 1/3-x+y,2/3+y,1/6+z
29 1/3+x,2/3+x-y,1/6+z
30 1/3-y,2/3-x,1/6+z
31 2/3-x,1/3-y,1/3-z
32 2/3+y,1/3-x+y,1/3-z
33 2/3+x-y,1/3+x,1/3-z
34 2/3-x+y,1/3+y,5/6+z
35 2/3+x,1/3+x-y,5/6+z
36 2/3-y,1/3-x,5/6+z
_cell_length_a                   43.648(5)
_cell_length_b                   43.648(5)
_cell_length_c                   17.371(5)
_cell_angle_alpha                90
_cell_angle_beta                 90
_cell_angle_gamma                120
_cell_volume                     28660.5
loop_
_atom_site_label
_atom_site_type_symbol
_atom_site_fract_x
_atom_site_fract_y
_atom_site_fract_z
Zn1 Zn 0.844073(16) 0.018014(16) 1.15992(3)
Zn2 Zn 0.59076(2) -0.0759 1.4167
C1 C 0.53481(15) -0.21322(18) 1.4582(3)
H1 H 0.5396 -0.2149 1.4067
C2 C 0.51637(15) -0.24375(17) 1.5022(3)
C3 C 0.71854(18) -0.02169(17) 1.3003(4)
H2 H 0.7222 -0.0357 1.3349
C4 C 0.56588(18) -0.1475(2) 1.4429(4)
C5 C 0.51867(18) -0.20803(19) 1.6100(3)
C6 C 0.68604(19) -0.02268(18) 1.2993(4)
C7 C 0.50793(17) -0.24112(19) 1.5782(3)
H3 H 0.4951 -0.2614 1.6077
C8 C 0.53802(17) -0.17832(19) 1.5667(4)
H4 H 0.5459 -0.1562 1.5890
C9 C 0.54615(16) -0.18028(18) 1.4905(4)
C10 C 0.7792 -0.00003(19) 1.2500
C11 C 0.7451 -0.00003(19) 1.2500
C12 C 0.50599(16) -0.27884(16) 1.4680(3)
C13 C 0.6570(2) -0.0472(2) 1.3521(5)
C14 C 0.5083(2) -0.2056(2) 1.6918(4)
C15 C 0.6814 0.0000(2) 1.2500
H5 H 0.6601 0.0000 1.2500
O1 O 0.6644(2) -0.0593(2) 1.4079(5)
O2 O 0.62624(14) -0.05497(14) 1.3343(3)
O3 O 0.79763(16) 0.01090(13) 1.1912(3)
O4 O 0.57815(11) -0.11827(14) 1.4775(3)
O5 O 0.56890(15) -0.1501(2) 1.3732(4)
O6 O 0.52331(13) -0.17656(14) 1.7226(3)
O7 O 0.4857(2) -0.2311(3) 1.7255(4)
O8 O 0.49348(11) -0.30508(13) 1.5122(3)
O9 O 0.51027(11) -0.27996(13) 1.3973(2)
Zn1C Zn 0.826059(23) -0.018014(16) 1.34008(3)
Zn1N Zn 0.507274(23) -0.177406(16) 1.82659(3)
Zn1X Zn 0.489260(16) -0.351347(16) 1.50675(3)
Zn1AA Zn 0.507274(23) -0.315319(16) 1.32659(3)
Zn1P Zn 0.489260(16) -0.159392(23) 1.00675(3)
Zn1CA Zn 0.315319(16) -0.177406(16) 1.32659(3)
Zn1Y Zn 0.351347(16) -0.159392(23) 1.50675(3)
Zn2C Zn 0.66666(2) 0.0759 1.0833
C1K C 0.45345(18) -0.13186(15) 1.3751(3)
H1K H 0.4518 -0.1271 1.4266
C2K C 0.42292(17) -0.15030(15) 1.3311(3)
C3C C 0.74023(25) 0.02169(17) 1.1997(4)
H2C H 0.7579 0.0357 1.1651
C4K C 0.5192(2) -0.10079(18) 1.3904(4)
C5K C 0.45864(19) -0.14800(18) 1.2233(3)
C6C C 0.70872(26) 0.02268(18) 1.2007(4)
C7K C 0.42555(19) -0.15874(17) 1.2551(3)
H3K H 0.4053 -0.1716 1.2256
C8K C 0.48835(19) -0.12865(17) 1.2666(4)
H4K H 0.5105 -0.1208 1.2443
C9K C 0.48639(18) -0.12052(16) 1.3428(4)
C12K C 0.38783(16) -0.16068(16) 1.3653(3)
C13C C 0.7042(3) 0.0472(2) 1.1479(5)
C14K C 0.4611(2) -0.1584(2) 1.1415(4)
O1C O 0.7237(3) 0.0593(2) 1.0921(5)
O2C O 0.68121(20) 0.05497(14) 1.1657(3)
O2K O 0.61170(14) -0.04043(14) 1.4990(3)
O3C O 0.78673(21) -0.01090(13) 1.3088(3)
O4K O 0.54840(14) -0.08852(11) 1.3558(3)
O5K O 0.5166(2) -0.09777(15) 1.4601(4)
O6K O 0.49011(14) -0.14336(13) 1.1107(3)
O6G O 0.84323(14) 0.03320(19) 1.0559(3)
O6P O 0.81002(13) -0.03320(19) 1.4441(3)
O7K O 0.4356(3) -0.1810(2) 1.1078(4)
O8K O 0.36159(13) -0.17319(11) 1.3211(3)
O8X O 0.83985(11) -0.02825(13) 1.1545(3)
O8GA O 0.86811(17) 0.02825(13) 1.3455(3)
O9K O 0.38671(13) -0.15640(11) 1.4360(2)
O9GA O 0.87644(17) 0.05337(13) 1.2306(2)
O9X O 0.82306(11) -0.05337(13) 1.2694(2)
loop_
_geom_bond_atom_site_label_1
_geom_bond_atom_site_label_2
_geom_bond_site_symmetry_1
_geom_bond_site_symmetry_2
Zn1 O3 1_555 1_555
Zn2 O2 1_555 1_555
C1 H1 1_555 1_555
C2 C1 1_555 1_555
C3 H2 1_555 1_555
C4 C9 1_555 1_555
C5 C7 1_555 1_555
C6 C3 1_555 1_555
C7 C2 1_555 1_555
H3 C7 1_555 1_555
C8 C5 1_555 1_555
H4 C8 1_555 1_555
C9 C1 1_555 1_555
C10 C11 1_555 1_555
C11 C3 1_555 1_555
C12 C2 1_555 1_555
C13 C6 1_555 1_555
C14 C5 1_555 1_555
C15 C6 1_555 1_555
H5 C15 1_555 1_555
O1 C13 1_555 1_555
O2 C13 1_555 1_555
O3 C10 1_555 1_555
O4 Zn2 1_555 1_555
O5 C4 1_555 1_555
O6 C14 1_555 1_555
O7 C14 1_555 1_555
O8 C12 1_555 1_555
O9 C12 1_555 1_555
Zn1C O3C 1_555 1_555
Zn1N O6 1_555 1_555
Zn1X O8 1_555 1_555
Zn1AA O9 1_555 1_555
Zn1P O6K 1_555 1_555
Zn1CA O8K 1_555 1_555
Zn1Y O9K 1_555 1_555
Zn2C O2C 1_555 1_555
C1K H1K 1_555 1_555
C2K C1K 1_555 1_555
C3C C11 1_555 1_555
H2C C3C 1_555 1_555
C4K C9K 1_555 1_555
C5K C7K 1_555 1_555
C6C C15 1_555 1_555
C7K C2K 1_555 1_555
H3K C7K 1_555 1_555
C8K C5K 1_555 1_555
H4K C8K 1_555 1_555
C9K C1K 1_555 1_555
C12K C2K 1_555 1_555
C13C C6C 1_555 1_555
C14K C5K 1_555 1_555
O1C C13C 1_555 1_555
O2C C13C 1_555 1_555
O2K Zn2 1_555 1_555
O3C C10 1_555 1_555
O4K Zn2 1_555 1_555
O5K C4K 1_555 1_555
O6K C14K 1_555 1_555
O6G Zn1 1_555 1_555
O6P Zn1C 1_555 1_555
O7K C14K 1_555 1_555
O8K C12K 1_555 1_555
O8X Zn1 1_555 1_555
O8GA Zn1C 1_555 1_555
O9K C12K 1_555 1_555
O9GA Zn1 1_555 1_555
O9X Zn1C 1_555 1_555
C4 O4 1_555 1_555
C8 C9 1_555 1_555
C3C C6C 1_555 1_555
C4K O4K 1_555 1_555
C8K C9K 1_555 1_555

#END
