
#######################################################################
#
#                 Cambridge Crystallographic Data Centre
#                                CCDC 
#
#######################################################################
#
# If this CIF has been generated from an entry in the Cambridge 
# Structural Database, then it will include bibliographic, chemical, 
# crystal, experimental, refinement or atomic coordinate data resulting 
# from the CCDC's data processing and validation procedures.
#
#######################################################################

data_LEVPEJ
_chemical_formula_moiety         '(C47 H42 N2 O14 Zn2)n'
_symmetry_cell_setting           rhombohedral
_symmetry_space_group_name_H-M   'R -3'
_symmetry_Int_Tables_number      148
_space_group_name_Hall           '-R 3'
loop_
_symmetry_equiv_pos_site_id
_symmetry_equiv_pos_as_xyz
1 x,y,z
2 -y,x-y,z
3 -x+y,-x,z
4 2/3+x,1/3+y,1/3+z
5 2/3-y,1/3+x-y,1/3+z
6 2/3-x+y,1/3-x,1/3+z
7 1/3+x,2/3+y,2/3+z
8 1/3-y,2/3+x-y,2/3+z
9 1/3-x+y,2/3-x,2/3+z
10 -x,-y,-z
11 y,-x+y,-z
12 x-y,x,-z
13 1/3-x,2/3-y,2/3-z
14 1/3+y,2/3-x+y,2/3-z
15 1/3+x-y,2/3+x,2/3-z
16 2/3-x,1/3-y,1/3-z
17 2/3+y,1/3-x+y,1/3-z
18 2/3+x-y,1/3+x,1/3-z
_cell_length_a                   31.8565(9)
_cell_length_b                   31.8565(9)
_cell_length_c                   12.6269(6)
_cell_angle_alpha                90
_cell_angle_beta                 90
_cell_angle_gamma                120
_cell_volume                     11097.5
loop_
_atom_site_label
_atom_site_type_symbol
_atom_site_fract_x
_atom_site_fract_y
_atom_site_fract_z
_atom_site_U_iso_or_equiv
_atom_site_thermal_displace_type
Zn1 Zn 0.70923(2) 0.01641(2) 0.68810(5) 0.0314 Uani
O1 O 0.69989(14) 0.00249(14) 0.5343(3) 0.0323 Uani
O2 O 0.70834(15) 0.00848(15) 0.3614(3) 0.0341 Uani
C1 C 0.77704(19) 0.0572(2) 0.4657(4) 0.0351 Uani
H1 H 0.7883 0.0703 0.5342 0.0420 Uiso
C2 C 0.7258(2) 0.0211(2) 0.4529(4) 0.0297 Uani
C3 C 0.6980(2) -0.0582(2) 0.8437(5) 0.0366 Uani
H2 H 0.7104 -0.0315 0.8910 0.0440 Uiso
C4 C 0.6894(2) -0.1022(2) 0.8812(5) 0.0372 Uani
H3 H 0.6961 -0.1052 0.9532 0.0450 Uiso
C5 C 0.6710(2) -0.1429(2) 0.8146(4) 0.0323 Uani
C6 C 0.6625(2) -0.1347(2) 0.7113(5) 0.0392 Uani
H4 H 0.6497 -0.1608 0.6622 0.0470 Uiso
C7 C 0.6722(2) -0.0900(2) 0.6783(5) 0.0390 Uani
H5 H 0.6663 -0.0859 0.6063 0.0470 Uiso
C8 C 0.8846(3) 0.1287(4) 0.4785(6) 0.0582 Uani
H6 H 0.8663 0.1241 0.5411 0.0720 Uiso
C9 C 0.9339(3) 0.1623(3) 0.4773(7) 0.0612 Uani
C10 C 0.9608(3) 0.1690(4) 0.3857(9) 0.0690 Uani
H7 H 0.9945 0.1919 0.3848 0.0820 Uiso
C11 C 0.9383(3) 0.1422(5) 0.2953(8) 0.0629 Uani
H8 H 0.9567 0.1468 0.2327 0.0760 Uiso
C12 C 0.8890(3) 0.1087(5) 0.2966(7) 0.0552 Uani
H9 H 0.8736 0.0903 0.2348 0.0650 Uiso
C13 C 0.8621(3) 0.1019(4) 0.3882(6) 0.0613 Uani
O3 O 0.9562(3) 0.1882(4) 0.5627(8) 0.0623 Uani
H10 H 0.9357 0.1888 0.6036 0.0930 Uiso
C14 C 0.8091(3) 0.0727(6) 0.3851(7) 0.0293 Uani
H11 H 0.7954 0.0634 0.3164 0.0350 Uiso
C15 C 0.9439(2) 0.2005(2) 0.8304(7) 0.0447 Uani
H12 H 0.9296 0.2138 0.7859 0.0530 Uiso
C16 C 0.9905(3) 0.2299(3) 0.8697(9) 0.0703 Uani
H13 H 1.0079 0.2633 0.8520 0.0830 Uiso
C17 C 1.0115(2) 0.2103(4) 0.9349(8) 0.0478 Uani
H14 H 1.0433 0.2304 0.9617 0.0570 Uiso
C18 C 0.9860(2) 0.1614(4) 0.9607(6) 0.0552 Uani
C19 C 0.9395(2) 0.1320(3) 0.9214(6) 0.0419 Uani
H15 H 0.9221 0.0985 0.9391 0.0500 Uiso
C20 C 0.9185(2) 0.1515(2) 0.8563(5) 0.0436 Uani
O4 O 1.0071(3) 0.1427(4) 1.0215(8) 0.0773 Uani
H16 H 1.0159 0.1269 0.9836 0.1160 Uiso
C21 C 0.86728(19) 0.1174(2) 0.8162(4) 0.0409 Uani
H17 H 0.8540 0.0836 0.8272 0.0490 Uiso
C22 C 0.8400(2) 0.1323(2) 0.7665(4) 0.0497 Uani
H18 H 0.8523 0.1658 0.7533 0.0600 Uiso
C23 C 0.7913(2) 0.0969(2) 0.7330(4) 0.0586 Uani
O5 O 0.7730(2) 0.0527(2) 0.7519(6) 0.0410 Uani
O6 O 0.7679(2) 0.1132(3) 0.6869(6) 0.0503 Uani
N1 N 0.68952(13) -0.05157(14) 0.7428(3) 0.0334 Uani
Zn1H Zn 0.64051(3) -0.04256(2) 0.35477(5) 0.0314 Uani
Zn1L Zn 0.62410(2) -0.34974(2) 0.97857(5) 0.0314 Uani
Zn1K Zn 0.69282(3) -0.29077(2) 1.31190(5) 0.0314 Uani
O1L O 0.63344(14) -0.33582(14) 1.1324(3) 0.0323 Uani
O2D O 0.65819(15) 0.03319(21) 0.6947(3) 0.0341 Uani
O2P O 0.67515(15) -0.36653(21) 0.9719(3) 0.0341 Uani
O2L O 0.62499(15) -0.34181(15) 1.3053(3) 0.0341 Uani
C1L C 0.55629(19) -0.3905(2) 1.2010(4) 0.0351 Uani
H1L H 0.5450 -0.4036 1.1325 0.0420 Uiso
C2L C 0.6075(2) -0.3544(2) 1.2138(4) 0.0297 Uani
C3L C 0.6353(2) -0.2751(2) 0.8230(5) 0.0366 Uani
H2L H 0.6229 -0.3018 0.7757 0.0440 Uiso
C4L C 0.6439(2) -0.2311(2) 0.7855(5) 0.0372 Uani
H3L H 0.6372 -0.2281 0.7135 0.0450 Uiso
C5L C 0.6623(2) -0.1904(2) 0.8521(4) 0.0323 Uani
C6L C 0.6708(2) -0.1986(2) 0.9554(5) 0.0392 Uani
H4L H 0.6836 -0.1725 1.0045 0.0470 Uiso
C7L C 0.6611(2) -0.2433(2) 0.9884(5) 0.0390 Uani
H5L H 0.6670 -0.2474 1.0604 0.0470 Uiso
C8L C 0.4487(3) -0.4620(4) 1.1882(6) 0.0582 Uani
H6L H 0.4670 -0.4574 1.1256 0.0720 Uiso
C9L C 0.3994(3) -0.4956(3) 1.1894(7) 0.0612 Uani
C10L C 0.3725(3) -0.5023(4) 1.2810(9) 0.0690 Uani
H7L H 0.3388 -0.5252 1.2819 0.0820 Uiso
C11L C 0.3950(3) -0.4755(5) 1.3714(8) 0.0629 Uani
H8L H 0.3766 -0.4801 1.4340 0.0760 Uiso
C12L C 0.4443(3) -0.4420(5) 1.3701(7) 0.0552 Uani
H9L H 0.4597 -0.4236 1.4319 0.0650 Uiso
C13L C 0.4712(3) -0.4352(4) 1.2785(6) 0.0613 Uani
O3L O 0.3771(3) -0.5215(4) 1.1040(8) 0.0623 Uani
H10L H 0.3976 -0.5221 1.0631 0.0930 Uiso
C14L C 0.5242(3) -0.4060(6) 1.2816(7) 0.0293 Uani
H11L H 0.5379 -0.3967 1.3503 0.0350 Uiso
C15L C 0.3894(2) -0.5338(2) 0.8363(7) 0.0447 Uani
H12L H 0.4037 -0.5471 0.8808 0.0530 Uiso
C16L C 0.3428(3) -0.5632(3) 0.7970(9) 0.0703 Uani
H13L H 0.3254 -0.5966 0.8147 0.0830 Uiso
C17L C 0.3218(2) -0.5436(4) 0.7318(8) 0.0478 Uani
H14L H 0.2900 -0.5637 0.7050 0.0570 Uiso
C18L C 0.3473(2) -0.4947(4) 0.7060(6) 0.0552 Uani
C19L C 0.3938(2) -0.4653(3) 0.7453(6) 0.0419 Uani
H15L H 0.4112 -0.4318 0.7276 0.0500 Uiso
C20L C 0.4148(2) -0.4848(2) 0.8104(5) 0.0436 Uani
O4L O 0.3262(3) -0.4760(4) 0.6452(8) 0.0773 Uani
H16L H 0.3174 -0.4602 0.6831 0.1160 Uiso
C21L C 0.46605(19) -0.4507(2) 0.8505(4) 0.0409 Uani
H17L H 0.4793 -0.4169 0.8395 0.0490 Uiso
C22L C 0.4933(2) -0.4656(2) 0.9002(4) 0.0497 Uani
H18L H 0.4810 -0.4991 0.9134 0.0600 Uiso
C23L C 0.5420(2) -0.4302(2) 0.9337(4) 0.0586 Uani
O5L O 0.5603(2) -0.3860(2) 0.9148(6) 0.0410 Uani
O6L O 0.5654(2) -0.4465(3) 0.9798(6) 0.0503 Uani
N1L N 0.64381(13) -0.28176(14) 0.9239(3) 0.0334 Uani
O11 O 0.9409(3) 0.0380(4) 0.1653(5) 0.1811 Uani
O14 O 0.93024(14) 0.0669(2) 0.6281(4) 0.2608 Uani
C40 C 0.93679(16) 0.0255(2) 0.6521(5) 0.1162 Uani
loop_
_atom_site_aniso_label
_atom_site_aniso_U_11
_atom_site_aniso_U_22
_atom_site_aniso_U_33
_atom_site_aniso_U_23
_atom_site_aniso_U_13
_atom_site_aniso_U_12
Zn1 0.0348(4) 0.0332(4) 0.0254(4) -0.0001(3) -0.0024(3) 0.0163(3)
O1 0.032(2) 0.037(2) 0.026(2) 0.0025(17) 0.0028(17) 0.0159(19)
O2 0.041(2) 0.040(2) 0.021(2) 0.0005(17) 0.0001(17) 0.020(2)
C1 0.041(3) 0.035(3) 0.024(3) 0.001(2) -0.001(2) 0.015(3)
C2 0.037(3) 0.026(3) 0.029(3) -0.003(2) -0.001(2) 0.018(3)
C3 0.045(4) 0.039(3) 0.027(3) -0.004(3) -0.005(3) 0.022(3)
C4 0.054(4) 0.043(4) 0.021(3) 0.000(2) -0.001(3) 0.029(3)
C5 0.037(3) 0.040(3) 0.025(3) -0.003(2) -0.002(2) 0.023(3)
C6 0.050(4) 0.038(3) 0.031(3) -0.005(3) -0.011(3) 0.023(3)
C7 0.046(4) 0.042(4) 0.025(3) -0.003(3) -0.011(3) 0.019(3)
C8 0.043(17) 0.08(2) 0.06(2) 0.038(16) 0.020(14) 0.037(17)
C9 0.061(13) 0.061(13) 0.057(11) 0.002(9) 0.002(9) 0.027(9)
C10 0.052(18) 0.07(2) 0.095(18) 0.041(16) 0.031(13) 0.038(16)
C11 0.044(16) 0.060(17) 0.086(16) 0.020(12) -0.006(12) 0.027(14)
C12 0.033(16) 0.07(2) 0.071(15) 0.028(13) 0.013(11) 0.032(16)
C13 0.062(16) 0.059(16) 0.064(16) 0.002(9) -0.010(9) 0.031(11)
O3 0.042(6) 0.049(6) 0.071(7) -0.009(5) 0.012(5) 0.004(5)
C14 0.038(3) 0.025(5) 0.032(3) 0.011(3) -0.001(3) 0.021(3)
C15 0.033(9) 0.052(10) 0.046(10) -0.009(8) 0.006(7) 0.019(9)
C16 0.079(18) 0.10(2) 0.043(11) -0.010(12) -0.018(11) 0.053(17)
C17 0.027(9) 0.054(13) 0.058(11) -0.013(8) -0.004(7) 0.017(9)
C18 0.030(9) 0.054(11) 0.075(14) 0.003(9) -0.010(8) 0.016(8)
C19 0.039(9) 0.043(9) 0.031(11) -0.013(7) -0.008(7) 0.011(7)
C20 0.045(10) 0.067(13) 0.032(8) -0.011(7) -0.001(7) 0.038(10)
O4 0.061(5) 0.079(7) 0.092(11) 0.009(7) -0.015(6) 0.035(5)
C21 0.054(11) 0.067(11) 0.024(8) -0.005(8) 0.003(7) 0.047(11)
C22 0.046(9) 0.063(12) 0.045(9) -0.005(8) -0.004(7) 0.031(9)
C23 0.013(8) 0.108(17) 0.041(9) -0.033(10) -0.011(7) 0.020(10)
O5 0.038(6) 0.041(6) 0.043(6) -0.011(5) 0.001(5) 0.019(5)
O6 0.067(7) 0.056(7) 0.031(5) -0.001(5) -0.009(5) 0.033(6)
N1 0.035(3) 0.035(3) 0.031(3) -0.001(2) -0.005(2) 0.018(2)
Zn1H 0.0354 0.0348 0.0254 0.0024 0.0023 0.0185
Zn1L 0.0348 0.0332 0.0254 -0.0001 -0.0024 0.0163
Zn1K 0.0354 0.0348 0.0254 0.0024 0.0023 0.0185
O1L 0.032 0.037 0.026 0.0025 0.0028 0.0159
O2D 0.04 0.041 0.021 -0.0004 -0.0005 0.02
O2P 0.04 0.041 0.021 -0.0004 -0.0005 0.02
O2L 0.041 0.04 0.021 0.0005 0.0001 0.02
C1L 0.041 0.035 0.024 0.001 -0.001 0.015
C2L 0.037 0.026 0.029 -0.003 -0.001 0.018
C3L 0.045 0.039 0.027 -0.004 -0.005 0.022
C4L 0.054 0.043 0.021 0 -0.001 0.029
C5L 0.037 0.04 0.025 -0.003 -0.002 0.023
C6L 0.05 0.038 0.031 -0.005 -0.011 0.023
C7L 0.046 0.042 0.025 -0.003 -0.011 0.019
C8L 0.043 0.08 0.06 0.038 0.02 0.037
C9L 0.061 0.061 0.057 0.002 0.002 0.027
C10L 0.052 0.07 0.095 0.041 0.031 0.038
C11L 0.044 0.06 0.086 0.02 -0.006 0.027
C12L 0.033 0.07 0.071 0.028 0.013 0.032
C13L 0.062 0.059 0.064 0.002 -0.01 0.031
O3L 0.042 0.049 0.071 -0.009 0.012 0.004
C14L 0.038 0.025 0.032 0.011 -0.001 0.021
C15L 0.033 0.052 0.046 -0.009 0.006 0.019
C16L 0.079 0.1 0.043 -0.01 -0.018 0.053
C17L 0.027 0.054 0.058 -0.013 -0.004 0.017
C18L 0.03 0.054 0.075 0.003 -0.01 0.016
C19L 0.039 0.043 0.031 -0.013 -0.008 0.011
C20L 0.045 0.067 0.032 -0.011 -0.001 0.038
O4L 0.061 0.079 0.092 0.009 -0.015 0.035
C21L 0.054 0.067 0.024 -0.005 0.003 0.047
C22L 0.046 0.063 0.045 -0.005 -0.004 0.031
C23L 0.013 0.108 0.041 -0.033 -0.011 0.02
O5L 0.038 0.041 0.043 -0.011 0.001 0.019
O6L 0.067 0.056 0.031 -0.001 -0.009 0.033
N1L 0.035 0.035 0.031 -0.001 -0.005 0.018
O11 0.12(2) 0.27(4) 0.17(3) -0.10(3) -0.002(17) 0.11(2)
O14 0.258(18) 0.262(18) 0.269(18) 0.012(10) -0.007(10) 0.135(12)
C40 0.117(12) 0.113(12) 0.122(13) 0.003(7) -0.004(7) 0.060(8)
loop_
_geom_bond_atom_site_label_1
_geom_bond_atom_site_label_2
_geom_bond_site_symmetry_1
_geom_bond_site_symmetry_2
Zn1 O1 1_555 1_555
O1 C2 1_555 1_555
O2 C2 1_555 1_555
C1 H1 1_555 1_555
C2 C1 1_555 1_555
C3 H2 1_555 1_555
C4 C3 1_555 1_555
H3 C4 1_555 1_555
C5 C4 1_555 1_555
C6 C5 1_555 1_555
H4 C6 1_555 1_555
C7 C6 1_555 1_555
H5 C7 1_555 1_555
C8 H6 1_555 1_555
C9 C8 1_555 1_555
C10 C9 1_555 1_555
H7 C10 1_555 1_555
C11 C10 1_555 1_555
H8 C11 1_555 1_555
C12 C11 1_555 1_555
H9 C12 1_555 1_555
C13 C8 1_555 1_555
O3 C9 1_555 1_555
H10 O3 1_555 1_555
C14 C1 1_555 1_555
H11 C14 1_555 1_555
C15 H12 1_555 1_555
C16 C15 1_555 1_555
H13 C16 1_555 1_555
C17 C16 1_555 1_555
H14 C17 1_555 1_555
C18 C17 1_555 1_555
C19 C18 1_555 1_555
H15 C19 1_555 1_555
C20 C15 1_555 1_555
O4 C18 1_555 1_555
H16 O4 1_555 1_555
C21 C20 1_555 1_555
H17 C21 1_555 1_555
C22 C21 1_555 1_555
H18 C22 1_555 1_555
C23 C22 1_555 1_555
O5 Zn1 1_555 1_555
O6 C23 1_555 1_555
N1 Zn1 1_555 1_555
O14 C40 1_555 1_555
Zn1H O2 1_555 1_555
Zn1L O1L 1_555 1_555
Zn1K O2L 1_555 1_555
O1L C2L 1_555 1_555
O2D Zn1 1_555 1_555
O2P Zn1L 1_555 1_555
O2L C2L 1_555 1_555
C1L H1L 1_555 1_555
C2L C1L 1_555 1_555
C3L H2L 1_555 1_555
C4L C3L 1_555 1_555
H3L C4L 1_555 1_555
C5L C5 1_555 1_555
C6L C5L 1_555 1_555
H4L C6L 1_555 1_555
C7L C6L 1_555 1_555
H5L C7L 1_555 1_555
C8L H6L 1_555 1_555
C9L C8L 1_555 1_555
C10L C9L 1_555 1_555
H7L C10L 1_555 1_555
C11L C10L 1_555 1_555
H8L C11L 1_555 1_555
C12L C11L 1_555 1_555
H9L C12L 1_555 1_555
C13L C8L 1_555 1_555
O3L C9L 1_555 1_555
H10L O3L 1_555 1_555
C14L C1L 1_555 1_555
H11L C14L 1_555 1_555
C15L H12L 1_555 1_555
C16L C15L 1_555 1_555
H13L C16L 1_555 1_555
C17L C16L 1_555 1_555
H14L C17L 1_555 1_555
C18L C17L 1_555 1_555
C19L C18L 1_555 1_555
H15L C19L 1_555 1_555
C20L C15L 1_555 1_555
O4L C18L 1_555 1_555
H16L O4L 1_555 1_555
C21L C20L 1_555 1_555
H17L C21L 1_555 1_555
C22L C21L 1_555 1_555
H18L C22L 1_555 1_555
C23L C22L 1_555 1_555
O5L Zn1L 1_555 1_555
O6L C23L 1_555 1_555
N1L Zn1L 1_555 1_555
C3 N1 1_555 1_555
C7 N1 1_555 1_555
C12 C13 1_555 1_555
C13 C14 1_555 1_555
C19 C20 1_555 1_555
C23 O5 1_555 1_555
C3L N1L 1_555 1_555
C4L C5L 1_555 1_555
C7L N1L 1_555 1_555
C12L C13L 1_555 1_555
C13L C14L 1_555 1_555
C19L C20L 1_555 1_555
C23L O5L 1_555 1_555

#END
