
#######################################################################
#
#                 Cambridge Crystallographic Data Centre
#                                CCDC 
#
#######################################################################
#
# If this CIF has been generated from an entry in the Cambridge 
# Structural Database, then it will include bibliographic, chemical, 
# crystal, experimental, refinement or atomic coordinate data resulting 
# from the CCDC's data processing and validation procedures.
#
#######################################################################

data_IGORUS
_chemical_formula_moiety         'C100 H24 N5 O20 Zn7'
_symmetry_cell_setting           tetragonal
_symmetry_space_group_name_H-M   'P 4/m m m'
_symmetry_Int_Tables_number      123
_space_group_name_Hall           '-P 4 2'
loop_
_symmetry_equiv_pos_site_id
_symmetry_equiv_pos_as_xyz
1 x,y,z
2 -y,x,z
3 -x,-y,z
4 y,-x,z
5 x,-y,-z
6 -y,-x,-z
7 -x,y,-z
8 y,x,-z
9 -x,-y,-z
10 y,-x,-z
11 x,y,-z
12 -y,x,-z
13 -x,y,z
14 y,x,z
15 x,-y,z
16 -y,-x,z
_cell_length_a                   10.906(2)
_cell_length_b                   10.906(2)
_cell_length_c                   22.456(4)
_cell_angle_alpha                90
_cell_angle_beta                 90
_cell_angle_gamma                90
_cell_volume                     2670.94
loop_
_atom_site_label
_atom_site_type_symbol
_atom_site_fract_x
_atom_site_fract_y
_atom_site_fract_z
Zn1 Zn 0.5000 0.5000 0.43384(2)
O1 O 0.5000 0.3167(2) 0.45060(16)
O2 O 0.303(2) 0.5000 0.1574(4)
N1 N 0.5000 0.5000 0.3440(2)
N2 N 0.5000 0.5000 0.1548(2)
C1 C 0.5000 0.2664(4) 0.5000
C2 C 0.5000 0.1289(4) 0.5000
C3 C 0.5833(13) 0.0652(5) 0.4636(3)
C4 C 0.7041(13) 0.1339(10) 0.4311(5)
C5 C 0.799(2) 0.063(2) 0.3994(9)
C6 C 0.3986(7) 0.500000(10) 0.3122(3)
C7 C 0.3950(11) 0.500000(10) 0.2504(3)
C8 C 0.5000 0.5000 0.2207(3)
C9 C 0.3977(13) 0.5000 0.1294(3)
C10 C 0.397(2) 0.5000 0.0622(4)
C11 C 0.5000 0.5000 0.0319(3)
C12 C 0.288(3) 0.500000(10) 0.0320(5)
H1 H 0.3231 0.5000 0.3333
H2 H 0.3184 0.5000 0.2303
H3 H 0.2121 0.5000 0.0530
Zn1D Zn 0.5000 0.5000 0.56616(2)
Zn1_2 Zn 0.5000 -0.5000 0.43384(2)
Zn1D_2 Zn 0.5000 -0.5000 0.56616(2)
Zn1D_3 Zn 0.5000 0.5000 -0.43384(2)
Zn1_3 Zn 1.5000 0.5000 0.43384(2)
Zn1D_4 Zn 1.5000 0.5000 0.56616(2)
O1F O 0.5000 0.3167(2) 0.54940(16)
O1B O 0.5000 -0.3167(2) 0.45060(16)
O1D O 0.5000 -0.3167(2) 0.54940(16)
O1A O 0.6833(2) 0.5000 0.45060(16)
O1E O 0.6833(2) 0.5000 0.54940(16)
O1C O 1.3167(2) 0.5000 0.45060(16)
O1G O 1.3167(2) 0.5000 0.54940(16)
O1C_2 O 0.3167(2) 0.5000 0.45060(16)
O1B_2 O 0.5000 0.6833(2) 0.45060(16)
O1G_2 O 0.3167(2) 0.5000 0.54940(16)
O1D_2 O 0.5000 0.6833(2) 0.54940(16)
O2A O 0.5000 0.303(2) 0.1574(4)
O2C O 0.5000 0.697(2) 0.1574(4)
O2B O 0.697(2) 0.5000 0.1574(4)
O2D O 0.303(2) 0.5000 -0.1574(4)
O2E O 0.5000 0.697(2) -0.1574(4)
O2F O 0.697(2) 0.5000 -0.1574(4)
O2G O 0.5000 0.303(2) -0.1574(4)
N1D N 0.5000 0.5000 -0.3440(2)
N1D_2 N 0.5000 0.5000 0.6560(2)
N2D N 0.5000 0.5000 -0.1548(2)
C1B C 0.5000 -0.2664(4) 0.5000
C1A C 0.7336(4) 0.5000 0.5000
C1C C 1.2664(4) 0.5000 0.5000
C2B C 0.5000 -0.1289(4) 0.5000
C2A C 0.8711(4) 0.5000 0.5000
C2C C 1.1289(4) 0.5000 0.5000
C3J C 0.5833(13) 0.0652(5) 0.5364(3)
C3F C 0.4167(13) 0.0652(5) 0.5364(3)
C3L C 0.4167(13) 0.0652(5) 0.4636(3)
C3B C 0.4167(13) -0.0652(5) 0.4636(3)
C3H C 0.4167(13) -0.0652(5) 0.5364(3)
C3D C 0.5833(13) -0.0652(5) 0.5364(3)
C3N C 0.5833(13) -0.0652(5) 0.4636(3)
C3A C 0.9348(5) 0.5833(13) 0.4636(3)
C3K C 0.9348(5) 0.5833(13) 0.5364(3)
C3E C 0.9348(5) 0.4167(13) 0.5364(3)
C3O C 0.9348(5) 0.4167(13) 0.4636(3)
C3C C 1.0652(5) 0.4167(13) 0.4636(3)
C3I C 1.0652(5) 0.4167(13) 0.5364(3)
C3G C 1.0652(5) 0.5833(13) 0.5364(3)
C3M C 1.0652(5) 0.5833(13) 0.4636(3)
C4F C 0.2959(13) 0.1339(10) 0.5689(5)
C4H C 0.2959(13) -0.1339(10) 0.5689(5)
C4D C 0.7041(13) -0.1339(10) 0.5689(5)
C4J C 0.7041(13) 0.1339(10) 0.5689(5)
C4N C 0.7041(13) -0.1339(10) 0.4311(5)
C4B C 0.2959(13) -0.1339(10) 0.4311(5)
C4L C 0.2959(13) 0.1339(10) 0.4311(5)
C4A C 0.8661(10) 0.7041(13) 0.4311(5)
C4E C 0.8661(10) 0.2959(13) 0.5689(5)
C4I C 1.1339(10) 0.2959(13) 0.5689(5)
C4G C 1.1339(10) 0.7041(13) 0.5689(5)
C4K C 0.8661(10) 0.7041(13) 0.5689(5)
C4M C 1.1339(10) 0.7041(13) 0.4311(5)
C4C C 1.1339(10) 0.2959(13) 0.4311(5)
C4O C 0.8661(10) 0.2959(13) 0.4311(5)
C5F C 0.201(2) 0.063(2) 0.6006(9)
C5H C 0.201(2) -0.063(2) 0.6006(9)
C5D C 0.799(2) -0.063(2) 0.6006(9)
C5J C 0.799(2) 0.063(2) 0.6006(9)
C5N C 0.799(2) -0.063(2) 0.3994(9)
C5B C 0.201(2) -0.063(2) 0.3994(9)
C5L C 0.201(2) 0.063(2) 0.3994(9)
C5A C 0.937(2) 0.799(2) 0.3994(9)
C5E C 0.937(2) 0.201(2) 0.6006(9)
C5I C 1.063(2) 0.201(2) 0.6006(9)
C5G C 1.063(2) 0.799(2) 0.6006(9)
C5K C 0.937(2) 0.799(2) 0.6006(9)
C5M C 1.063(2) 0.799(2) 0.3994(9)
C5C C 1.063(2) 0.201(2) 0.3994(9)
C5O C 0.937(2) 0.201(2) 0.3994(9)
C6A C 0.500000(10) 0.3986(7) 0.3122(3)
C6C C 0.500000(10) 0.6014(7) 0.3122(3)
C6B C 0.6014(7) 0.500000(10) 0.3122(3)
C6D C 0.3986(7) 0.500000(10) -0.3122(3)
C6E C 0.500000(10) 0.6014(7) -0.3122(3)
C6F C 0.6014(7) 0.500000(10) -0.3122(3)
C6G C 0.500000(10) 0.3986(7) -0.3122(3)
C7A C 0.500000(10) 0.3950(11) 0.2504(3)
C7C C 0.500000(10) 0.6050(11) 0.2504(3)
C7B C 0.6050(11) 0.500000(10) 0.2504(3)
C7D C 0.3950(11) 0.500000(10) -0.2504(3)
C7E C 0.500000(10) 0.6050(11) -0.2504(3)
C7F C 0.6050(11) 0.500000(10) -0.2504(3)
C7G C 0.500000(10) 0.3950(11) -0.2504(3)
C8D C 0.5000 0.5000 -0.2207(3)
C9A C 0.5000 0.3977(13) 0.1294(3)
C9C C 0.5000 0.6023(13) 0.1294(3)
C9B C 0.6023(13) 0.5000 0.1294(3)
C9D C 0.3977(13) 0.5000 -0.1294(3)
C9E C 0.5000 0.6023(13) -0.1294(3)
C9F C 0.6023(13) 0.5000 -0.1294(3)
C9G C 0.5000 0.3977(13) -0.1294(3)
C10A C 0.5000 0.397(2) 0.0622(4)
C10C C 0.5000 0.603(2) 0.0622(4)
C10B C 0.603(2) 0.5000 0.0622(4)
C10D C 0.397(2) 0.5000 -0.0622(4)
C10E C 0.5000 0.603(2) -0.0622(4)
C10F C 0.603(2) 0.5000 -0.0622(4)
C10G C 0.5000 0.397(2) -0.0622(4)
C11D C 0.5000 0.5000 -0.0319(3)
C12D C 0.288(3) 0.500000(10) -0.0320(5)
C12F C 0.712(3) 0.500000(10) -0.0320(5)
C12B C 0.712(3) 0.500000(10) 0.0320(5)
C12C C 0.500000(10) 0.712(3) 0.0320(5)
C12E C 0.500000(10) 0.712(3) -0.0320(5)
C12G C 0.500000(10) 0.288(3) -0.0320(5)
C12A C 0.500000(10) 0.288(3) 0.0320(5)
H1B H 0.6769 0.5000 0.3333
H1C H 0.5000 0.6769 0.3333
H1A H 0.5000 0.3231 0.3333
H1F H 0.6769 0.5000 -0.3333
H1G H 0.5000 0.3231 -0.3333
H1E H 0.5000 0.6769 -0.3333
H1D H 0.3231 0.5000 -0.3333
H2B H 0.6816 0.5000 0.2303
H2C H 0.5000 0.6816 0.2303
H2A H 0.5000 0.3184 0.2303
H2F H 0.6816 0.5000 -0.2303
H2G H 0.5000 0.3184 -0.2303
H2E H 0.5000 0.6816 -0.2303
H2D H 0.3184 0.5000 -0.2303
H3C H 0.5000 0.7879 0.0530
H3E H 0.5000 0.7879 -0.0530
H3B H 0.7879 0.5000 0.0530
H3F H 0.7879 0.5000 -0.0530
H3G H 0.5000 0.2121 -0.0530
H3D H 0.2121 0.5000 -0.0530
H3A H 0.5000 0.2121 0.0530
loop_
_geom_bond_atom_site_label_1
_geom_bond_atom_site_label_2
_geom_bond_site_symmetry_1
_geom_bond_site_symmetry_2
Zn1 O1 1_555 1_555
O1 C1 1_555 1_555
O2 C9 1_555 1_555
N1 Zn1 1_555 1_555
N2 C8 1_555 1_555
C1 C2 1_555 1_555
C2 C3 1_555 1_555
C3 C4 1_555 1_555
C4 C5 1_555 1_555
C5 C5N 1_555 1_555
C6 N1 1_555 1_555
C7 C6 1_555 1_555
C8 C7 1_555 1_555
C9 N2 1_555 1_555
C10 C9 1_555 1_555
C11 C10 1_555 1_555
C12 C10 1_555 1_555
H1 C6 1_555 1_555
H2 C7 1_555 1_555
H3 C12 1_555 1_555
Zn1D O1F 1_555 1_555
Zn1_2 O1B 1_555 1_555
Zn1D_2 O1D 1_555 1_555
Zn1D_3 N1D 1_555 1_555
Zn1_3 O1C 1_555 1_555
Zn1D_4 O1G 1_555 1_555
O1F C1 1_555 1_555
O1B C1B 1_555 1_555
O1D C1B 1_555 1_555
O1A Zn1 1_555 1_555
O1E Zn1D 1_555 1_555
O1C C1C 1_555 1_555
O1G C1C 1_555 1_555
O1C_2 Zn1 1_555 1_555
O1B_2 Zn1 1_555 1_555
O1G_2 Zn1D 1_555 1_555
O1D_2 Zn1D 1_555 1_555
O2A C9A 1_555 1_555
O2C C9C 1_555 1_555
O2B C9B 1_555 1_555
O2D C9D 1_555 1_555
O2E C9E 1_555 1_555
O2F C9F 1_555 1_555
O2G C9G 1_555 1_555
N1D C6D 1_555 1_555
N1D_2 Zn1D 1_555 1_555
N2D C8D 1_555 1_555
C1B C2B 1_555 1_555
C1A O1A 1_555 1_555
C1C C2C 1_555 1_555
C2B C3B 1_555 1_555
C2A C1A 1_555 1_555
C2C C3C 1_555 1_555
C3J C2 1_555 1_555
C3F C2 1_555 1_555
C3L C2 1_555 1_555
C3B C3L 1_555 1_555
C3H C2B 1_555 1_555
C3D C2B 1_555 1_555
C3N C3 1_555 1_555
C3A C2A 1_555 1_555
C3K C2A 1_555 1_555
C3E C2A 1_555 1_555
C3O C2A 1_555 1_555
C3C C3O 1_555 1_555
C3I C2C 1_555 1_555
C3G C2C 1_555 1_555
C3M C2C 1_555 1_555
C4F C3F 1_555 1_555
C4H C3H 1_555 1_555
C4D C3D 1_555 1_555
C4J C3J 1_555 1_555
C4N C3N 1_555 1_555
C4B C3B 1_555 1_555
C4L C3L 1_555 1_555
C4A C3A 1_555 1_555
C4E C3E 1_555 1_555
C4I C3I 1_555 1_555
C4G C3G 1_555 1_555
C4K C3K 1_555 1_555
C4M C3M 1_555 1_555
C4C C3C 1_555 1_555
C4O C3O 1_555 1_555
C5F C4F 1_555 1_555
C5H C4H 1_555 1_555
C5D C4D 1_555 1_555
C5J C4J 1_555 1_555
C5N C4N 1_555 1_555
C5B C4B 1_555 1_555
C5L C4L 1_555 1_555
C5A C4A 1_555 1_555
C5E C4E 1_555 1_555
C5I C4I 1_555 1_555
C5G C4G 1_555 1_555
C5K C4K 1_555 1_555
C5M C4M 1_555 1_555
C5C C4C 1_555 1_555
C5O C4O 1_555 1_555
C6A N1 1_555 1_555
C6C N1 1_555 1_555
C6B N1 1_555 1_555
C6D C6E 1_555 1_555
C6E N1D 1_555 1_555
C6F N1D 1_555 1_555
C6G N1D 1_555 1_555
C7A C7 1_555 1_555
C7C C7 1_555 1_555
C7B C8 1_555 1_555
C7D C6D 1_555 1_555
C7E C6E 1_555 1_555
C7F C6F 1_555 1_555
C7G C6G 1_555 1_555
C8D C7D 1_555 1_555
C9A N2 1_555 1_555
C9C N2 1_555 1_555
C9B N2 1_555 1_555
C9D N2D 1_555 1_555
C9E N2D 1_555 1_555
C9F N2D 1_555 1_555
C9G N2D 1_555 1_555
C10A C10 1_555 1_555
C10C C10 1_555 1_555
C10B C11 1_555 1_555
C10D C9D 1_555 1_555
C10E C9E 1_555 1_555
C10F C9F 1_555 1_555
C10G C9G 1_555 1_555
C11D C11 1_555 1_555
C12D C12 1_555 1_555
C12F C10F 1_555 1_555
C12B C10B 1_555 1_555
C12C C10C 1_555 1_555
C12E C10E 1_555 1_555
C12G C10G 1_555 1_555
C12A C10A 1_555 1_555
H1B C6B 1_555 1_555
H1C C6C 1_555 1_555
H1A C6A 1_555 1_555
H1F C6F 1_555 1_555
H1G C6G 1_555 1_555
H1E C6E 1_555 1_555
H1D C6D 1_555 1_555
H2B C7B 1_555 1_555
H2C C7C 1_555 1_555
H2A C7A 1_555 1_555
H2F C7F 1_555 1_555
H2G C7G 1_555 1_555
H2E C7E 1_555 1_555
H2D C7D 1_555 1_555
H3C C12C 1_555 1_555
H3E C12E 1_555 1_555
H3B C12B 1_555 1_555
H3F C12F 1_555 1_555
H3G C12G 1_555 1_555
H3D C12D 1_555 1_555
H3A C12A 1_555 1_555
C3 C3J 1_555 1_555
C6 C6A 1_555 1_555
C6 C6C 1_555 1_555
C8 C7A 1_555 1_555
C8 C7C 1_555 1_555
C9 C9A 1_555 1_555
C9 C9C 1_555 1_555
C11 C10A 1_555 1_555
C11 C10C 1_555 1_555
O1E C1A 1_555 1_555
C2B C3N 1_555 1_555
C3J C3D 1_555 1_555
C3F C3L 1_555 1_555
C3F C3H 1_555 1_555
C3B C3H 1_555 1_555
C3D C3N 1_555 1_555
C3A C3K 1_555 1_555
C3A C3M 1_555 1_555
C3K C3G 1_555 1_555
C3E C3O 1_555 1_555
C3E C3I 1_555 1_555
C3C C3I 1_555 1_555
C3G C3M 1_555 1_555
C5F C5H 1_555 1_555
C5D C5J 1_555 1_555
C5B C5L 1_555 1_555
C5A C5M 1_555 1_555
C5E C5I 1_555 1_555
C5G C5K 1_555 1_555
C5C C5O 1_555 1_555
C6A C6B 1_555 1_555
C6A C7A 1_555 1_555
C6C C6B 1_555 1_555
C6C C7C 1_555 1_555
C6B C7B 1_555 1_555
C6D C6G 1_555 1_555
C6E C6F 1_555 1_555
C6F C6G 1_555 1_555
C7A C7B 1_555 1_555
C7C C7B 1_555 1_555
C7D C7E 1_555 1_555
C7D C7G 1_555 1_555
C7E C7F 1_555 1_555
C7E C8D 1_555 1_555
C7F C7G 1_555 1_555
C7F C8D 1_555 1_555
C7G C8D 1_555 1_555
C9A C9B 1_555 1_555
C9A C10A 1_555 1_555
C9C C9B 1_555 1_555
C9C C10C 1_555 1_555
C9B C10B 1_555 1_555
C9D C9E 1_555 1_555
C9D C9G 1_555 1_555
C9E C9F 1_555 1_555
C9F C9G 1_555 1_555
C10A C10B 1_555 1_555
C10C C10B 1_555 1_555
C10D C10E 1_555 1_555
C10D C10G 1_555 1_555
C10D C11D 1_555 1_555
C10D C12D 1_555 1_555
C10E C10F 1_555 1_555
C10E C11D 1_555 1_555
C10F C10G 1_555 1_555
C10F C11D 1_555 1_555
C10G C11D 1_555 1_555
C12F C12B 1_555 1_555
C12C C12E 1_555 1_555
C12G C12A 1_555 1_555

#END
