
#######################################################################
#
#                 Cambridge Crystallographic Data Centre
#                                CCDC 
#
#######################################################################
#
# If this CIF has been generated from an entry in the Cambridge 
# Structural Database, then it will include bibliographic, chemical, 
# crystal, experimental, refinement or atomic coordinate data resulting 
# from the CCDC's data processing and validation procedures.
#
#######################################################################

data_MERLAZ
_chemical_formula_moiety         '(C144 H80 Cl1 Fe9 N12 O32)n'
_symmetry_cell_setting           hexagonal
_symmetry_space_group_name_H-M   'P 6/m m m'
_symmetry_Int_Tables_number      191
_space_group_name_Hall           '-P 6 2'
loop_
_symmetry_equiv_pos_site_id
_symmetry_equiv_pos_as_xyz
1 x,y,z
2 -x,-x+y,-z
3 -x,-y,z
4 -x+y,-x,z
5 -x+y,y,-z
6 -y,-x,-z
7 -y,x-y,z
8 y,-x+y,z
9 y,x,-z
10 x-y,-y,-z
11 x-y,x,z
12 x,x-y,-z
13 -x,-y,-z
14 x,x-y,z
15 x,y,-z
16 x-y,x,-z
17 x-y,-y,z
18 y,x,z
19 y,-x+y,-z
20 -y,x-y,-z
21 -y,-x,z
22 -x+y,y,z
23 -x+y,-x,-z
24 -x,-x+y,z
_cell_length_a                   31.26941
_cell_length_b                   31.26941
_cell_length_c                   16.95362
_cell_angle_alpha                90
_cell_angle_beta                 90
_cell_angle_gamma                120
_cell_volume                     14356
loop_
_atom_site_label
_atom_site_type_symbol
_atom_site_fract_x
_atom_site_fract_y
_atom_site_fract_z
_atom_site_U_iso_or_equiv
_atom_site_thermal_displace_type
Fe1 Fe 0.298934 0.701066 0.500 0.0164 Uiso
O1 O 0.263254 0.736746 0.500 0.0208 Uiso
O2 O 0.333333 0.666667 0.500 0.0208 Uiso
Fe2 Fe 0.000 0.500 0.000 0.0164 Uiso
Cl1 Cl 0.000 0.573601 0.000 0.0209 Uiso
O3 O 0.253571 0.663085 0.419883 0.0208 Uiso
C1 C 0.238771 0.619385 0.392783 0.0402 Uiso
C2 C 0.201971 0.600985 0.326883 0.0402 Uiso
C3 C 0.183771 0.552485 0.295383 0.0402 Uiso
C4 C 0.147971 0.534585 0.234683 0.0402 Uiso
C5 C 0.129771 0.564885 0.204383 0.0402 Uiso
C6 C 0.090371 0.545185 0.141883 0.0402 Uiso
C7 C 0.104371 0.552185 0.063083 0.0402 Uiso
C8 C 0.154371 0.577185 0.039883 0.0402 Uiso
N1 N 0.072571 0.536285 0.000 0.0402 Uiso
C9 C 0.040571 0.520285 0.163883 0.0402 Uiso
C10 C 0.025971 0.512985 0.242683 0.0402 Uiso
N2 N -0.000 0.500 0.113583 0.0402 Uiso
H1 H 0.196871 0.528085 0.318083 0.0164 Uiso
H2 H 0.134171 0.497085 0.211683 0.0483 Uiso
H3 H 0.187571 0.593785 0.077083 0.0483 Uiso
H4 H 0.049371 0.524685 0.295183 0.0483 Uiso
O3W O -0.253571 0.409514 0.419883 0.0208 Uiso
C1W C -0.238771 0.380614 0.392783 0.0402 Uiso
C2W C -0.201971 0.399014 0.326883 0.0402 Uiso
C3W C -0.183771 0.368714 0.295383 0.0402 Uiso
C4W C -0.147971 0.386614 0.234683 0.0402 Uiso
C5W C -0.129771 0.435114 0.204383 0.0402 Uiso
C6W C -0.090371 0.454814 0.141883 0.0402 Uiso
C7W C -0.104371 0.447814 0.063083 0.0402 Uiso
C8W C -0.154371 0.422814 0.039883 0.0402 Uiso
N1A N -0.072571 0.463714 0.000 0.0402 Uiso
C9W C -0.040571 0.479714 0.163883 0.0402 Uiso
C10W C -0.025971 0.487014 0.242683 0.0402 Uiso
H1W H -0.196871 0.331214 0.318083 0.0164 Uiso
H2W H -0.134171 0.362914 0.211683 0.0483 Uiso
H3W H -0.187571 0.406214 0.077083 0.0483 Uiso
H4W H -0.049371 0.475314 0.295183 0.0483 Uiso
O3B O -0.253571 0.336915 0.419883 0.0208 Uiso
C3B C -0.183771 0.447515 0.295383 0.0402 Uiso
C4B C -0.147971 0.465415 0.234683 0.0402 Uiso
H1B H -0.196871 0.471915 0.318083 0.0164 Uiso
H2B H -0.134171 0.502915 0.211683 0.0483 Uiso
O3N O 0.253571 0.663085 -0.419883 0.0208 Uiso
C1N C 0.238771 0.619385 -0.392783 0.0402 Uiso
C2N C 0.201971 0.600985 -0.326883 0.0402 Uiso
C3N C 0.183771 0.552485 -0.295383 0.0402 Uiso
C4N C 0.147971 0.534585 -0.234683 0.0402 Uiso
C5N C 0.129771 0.564885 -0.204383 0.0402 Uiso
C6N C 0.090371 0.545185 -0.141883 0.0402 Uiso
C7N C 0.104371 0.552185 -0.063083 0.0402 Uiso
C8N C 0.154371 0.577185 -0.039883 0.0402 Uiso
C9N C 0.040571 0.520285 -0.163883 0.0402 Uiso
C10N C 0.025971 0.512985 -0.242683 0.0402 Uiso
N2A N 0.000 0.500 -0.113583 0.0402 Uiso
H1N H 0.196871 0.528085 -0.318083 0.0164 Uiso
H2N H 0.134171 0.497085 -0.211683 0.0483 Uiso
H3N H 0.187571 0.593785 -0.077083 0.0483 Uiso
H4N H 0.049371 0.524685 -0.295183 0.0483 Uiso
O3K O 0.253571 0.590486 -0.419883 0.0208 Uiso
C3K C 0.183771 0.631286 -0.295383 0.0402 Uiso
C4K C 0.147971 0.613386 -0.234683 0.0402 Uiso
H1K H 0.196871 0.668786 -0.318083 0.0164 Uiso
H2K H 0.134171 0.637086 -0.211683 0.0483 Uiso
O3M O 0.253571 0.590486 0.419883 0.0208 Uiso
C3M C 0.183771 0.631286 0.295383 0.0402 Uiso
C4M C 0.147971 0.613386 0.234683 0.0402 Uiso
H1M H 0.196871 0.668786 0.318083 0.0164 Uiso
H2M H 0.134171 0.637086 0.211683 0.0483 Uiso
O3A O -0.253571 0.409514 -0.419883 0.0208 Uiso
C1A C -0.238771 0.380614 -0.392783 0.0402 Uiso
C2A C -0.201971 0.399014 -0.326883 0.0402 Uiso
C3A C -0.183771 0.368714 -0.295383 0.0402 Uiso
C4A C -0.147971 0.386614 -0.234683 0.0402 Uiso
C5A C -0.129771 0.435114 -0.204383 0.0402 Uiso
C6A C -0.090371 0.454814 -0.141883 0.0402 Uiso
C7A C -0.104371 0.447814 -0.063083 0.0402 Uiso
C8A C -0.154371 0.422814 -0.039883 0.0402 Uiso
C9A C -0.040571 0.479714 -0.163883 0.0402 Uiso
C10A C -0.025971 0.487014 -0.242683 0.0402 Uiso
H1A H -0.196871 0.331214 -0.318083 0.0164 Uiso
H2A H -0.134171 0.362914 -0.211683 0.0483 Uiso
H3A H -0.187571 0.406214 -0.077083 0.0483 Uiso
H4A H -0.049371 0.475314 -0.295183 0.0483 Uiso
O3L O -0.253571 0.336915 -0.419883 0.0208 Uiso
C3L C -0.183771 0.447515 -0.295383 0.0402 Uiso
C4L C -0.147971 0.465415 -0.234683 0.0402 Uiso
H1L H -0.196871 0.471915 -0.318083 0.0164 Uiso
H2L H -0.134171 0.502915 -0.211683 0.0483 Uiso
Fe1A Fe -0.298934 0.402132 -0.500 0.0164 Uiso
O1A O -0.263254 0.473492 -0.500 0.0208 Uiso
O2A O -0.333333 0.333334 -0.500 0.0208 Uiso
Fe1A_2 Fe -0.298934 0.402132 0.500 0.0164 Uiso
O1A_2 O -0.263254 0.473492 0.500 0.0208 Uiso
Fe2A Fe 0.000 0.500 1.000 0.0164 Uiso
O3A_2 O -0.253571 0.409514 0.580117 0.0208 Uiso
C1A_2 C -0.238771 0.380614 0.607217 0.0402 Uiso
C2A_2 C -0.201971 0.399014 0.673117 0.0402 Uiso
C3A_2 C -0.183771 0.368714 0.704617 0.0402 Uiso
C4A_2 C -0.147971 0.386614 0.765317 0.0402 Uiso
C5A_2 C -0.129771 0.435114 0.795617 0.0402 Uiso
C6A_2 C -0.090371 0.454814 0.858117 0.0402 Uiso
C7A_2 C -0.104371 0.447814 0.936917 0.0402 Uiso
C8A_2 C -0.154371 0.422814 0.960117 0.0402 Uiso
N1A_2 N -0.072571 0.463714 1.000 0.0402 Uiso
C9A_2 C -0.040571 0.479714 0.836117 0.0402 Uiso
C10A_2 C -0.025971 0.487014 0.757317 0.0402 Uiso
N2A_2 N 0.000 0.500 0.886417 0.0402 Uiso
H1A_2 H -0.196871 0.331214 0.681917 0.0164 Uiso
H2A_2 H -0.134171 0.362914 0.788317 0.0483 Uiso
H3A_2 H -0.187571 0.406214 0.922917 0.0483 Uiso
H4A_2 H -0.049371 0.475314 0.704817 0.0483 Uiso
O3N_2 O 0.253571 0.663085 0.580117 0.0208 Uiso
C1N_2 C 0.238771 0.619385 0.607217 0.0402 Uiso
C2N_2 C 0.201971 0.600985 0.673117 0.0402 Uiso
C3N_2 C 0.183771 0.552485 0.704617 0.0402 Uiso
C4N_2 C 0.147971 0.534585 0.765317 0.0402 Uiso
C5N_2 C 0.129771 0.564885 0.795617 0.0402 Uiso
C6N_2 C 0.090371 0.545185 0.858117 0.0402 Uiso
C7N_2 C 0.104371 0.552185 0.936917 0.0402 Uiso
C8N_2 C 0.154371 0.577185 0.960117 0.0402 Uiso
N1N N 0.072571 0.536285 1.000 0.0402 Uiso
C9N_2 C 0.040571 0.520285 0.836117 0.0402 Uiso
C10N_2 C 0.025971 0.512985 0.757317 0.0402 Uiso
H1N_2 H 0.196871 0.528085 0.681917 0.0164 Uiso
H2N_2 H 0.134171 0.497085 0.788317 0.0483 Uiso
H3N_2 H 0.187571 0.593785 0.922917 0.0483 Uiso
H4N_2 H 0.049371 0.524685 0.704817 0.0483 Uiso
O3K_2 O 0.253571 0.590486 0.580117 0.0208 Uiso
C3K_2 C 0.183771 0.631286 0.704617 0.0402 Uiso
C4K_2 C 0.147971 0.613386 0.765317 0.0402 Uiso
H1K_2 H 0.196871 0.668786 0.681917 0.0164 Uiso
H2K_2 H 0.134171 0.637086 0.788317 0.0483 Uiso
O3W_2 O -0.253571 0.409514 1.419883 0.0208 Uiso
C1W_2 C -0.238771 0.380614 1.392783 0.0402 Uiso
C2W_2 C -0.201971 0.399014 1.326883 0.0402 Uiso
C3W_2 C -0.183771 0.368714 1.295383 0.0402 Uiso
C4W_2 C -0.147971 0.386614 1.234683 0.0402 Uiso
C5W_2 C -0.129771 0.435114 1.204383 0.0402 Uiso
C6W_2 C -0.090371 0.454814 1.141883 0.0402 Uiso
C7W_2 C -0.104371 0.447814 1.063083 0.0402 Uiso
C8W_2 C -0.154371 0.422814 1.039883 0.0402 Uiso
C9W_2 C -0.040571 0.479714 1.163883 0.0402 Uiso
C10W_2 C -0.025971 0.487014 1.242683 0.0402 Uiso
N2W N 0.000 0.500 1.113583 0.0402 Uiso
H1W_2 H -0.196871 0.331214 1.318083 0.0164 Uiso
H2W_2 H -0.134171 0.362914 1.211683 0.0483 Uiso
H3W_2 H -0.187571 0.406214 1.077083 0.0483 Uiso
H4W_2 H -0.049371 0.475314 1.295183 0.0483 Uiso
O3B_2 O -0.253571 0.336915 1.419883 0.0208 Uiso
C3B_2 C -0.183771 0.447515 1.295383 0.0402 Uiso
C4B_2 C -0.147971 0.465415 1.234683 0.0402 Uiso
H1B_2 H -0.196871 0.471915 1.318083 0.0164 Uiso
H2B_2 H -0.134171 0.502915 1.211683 0.0483 Uiso
O3L_2 O -0.253571 0.336915 0.580117 0.0208 Uiso
C3L_2 C -0.183771 0.447515 0.704617 0.0402 Uiso
C4L_2 C -0.147971 0.465415 0.765317 0.0402 Uiso
H1L_2 H -0.196871 0.471915 0.681917 0.0164 Uiso
H2L_2 H -0.134171 0.502915 0.788317 0.0483 Uiso
O3_2 O 0.253571 0.663085 1.419883 0.0208 Uiso
C1_2 C 0.238771 0.619385 1.392783 0.0402 Uiso
C2_2 C 0.201971 0.600985 1.326883 0.0402 Uiso
C3_2 C 0.183771 0.552485 1.295383 0.0402 Uiso
C4_2 C 0.147971 0.534585 1.234683 0.0402 Uiso
C5_2 C 0.129771 0.564885 1.204383 0.0402 Uiso
C6_2 C 0.090371 0.545185 1.141883 0.0402 Uiso
C7_2 C 0.104371 0.552185 1.063083 0.0402 Uiso
C8_2 C 0.154371 0.577185 1.039883 0.0402 Uiso
C9_2 C 0.040571 0.520285 1.163883 0.0402 Uiso
C10_2 C 0.025971 0.512985 1.242683 0.0402 Uiso
H1_2 H 0.196871 0.528085 1.318083 0.0164 Uiso
H2_2 H 0.134171 0.497085 1.211683 0.0483 Uiso
H3_2 H 0.187571 0.593785 1.077083 0.0483 Uiso
H4_2 H 0.049371 0.524685 1.295183 0.0483 Uiso
O3M_2 O 0.253571 0.590486 1.419883 0.0208 Uiso
C3M_2 C 0.183771 0.631286 1.295383 0.0402 Uiso
C4M_2 C 0.147971 0.613386 1.234683 0.0402 Uiso
H1M_2 H 0.196871 0.668786 1.318083 0.0164 Uiso
H2M_2 H 0.134171 0.637086 1.211683 0.0483 Uiso
Fe1L Fe -0.298934 0.298934 -1.500 0.0164 Uiso
O1L O -0.263254 0.263254 -1.500 0.0208 Uiso
Fe2A_2 Fe 0.000 0.500 -1.000 0.0164 Uiso
O3L_3 O -0.253571 0.336915 -1.419883 0.0208 Uiso
C1A_3 C -0.238771 0.380614 -1.392783 0.0402 Uiso
C2A_3 C -0.201971 0.399014 -1.326883 0.0402 Uiso
C3L_3 C -0.183771 0.447515 -1.295383 0.0402 Uiso
C4L_3 C -0.147971 0.465415 -1.234683 0.0402 Uiso
C5A_3 C -0.129771 0.435114 -1.204383 0.0402 Uiso
C6A_3 C -0.090371 0.454814 -1.141883 0.0402 Uiso
C7A_3 C -0.104371 0.447814 -1.063083 0.0402 Uiso
C8A_3 C -0.154371 0.422814 -1.039883 0.0402 Uiso
N1A_3 N -0.072571 0.463714 -1.000 0.0402 Uiso
C9A_3 C -0.040571 0.479714 -1.163883 0.0402 Uiso
C10A_3 C -0.025971 0.487014 -1.242683 0.0402 Uiso
N2A_3 N 0.000 0.500 -1.113583 0.0402 Uiso
H1L_3 H -0.196871 0.471915 -1.318083 0.0164 Uiso
H2L_3 H -0.134171 0.502915 -1.211683 0.0483 Uiso
H3A_3 H -0.187571 0.406214 -1.077083 0.0483 Uiso
H4A_3 H -0.049371 0.475314 -1.295183 0.0483 Uiso
O3K_3 O 0.253571 0.590486 -1.419883 0.0208 Uiso
C1N_3 C 0.238771 0.619385 -1.392783 0.0402 Uiso
C2N_3 C 0.201971 0.600985 -1.326883 0.0402 Uiso
C3K_3 C 0.183771 0.631286 -1.295383 0.0402 Uiso
C4K_3 C 0.147971 0.613386 -1.234683 0.0402 Uiso
C5N_3 C 0.129771 0.564885 -1.204383 0.0402 Uiso
C6N_3 C 0.090371 0.545185 -1.141883 0.0402 Uiso
C7N_3 C 0.104371 0.552185 -1.063083 0.0402 Uiso
C8N_3 C 0.154371 0.577185 -1.039883 0.0402 Uiso
N1N_2 N 0.072571 0.536285 -1.000 0.0402 Uiso
C9N_3 C 0.040571 0.520285 -1.163883 0.0402 Uiso
C10N_3 C 0.025971 0.512985 -1.242683 0.0402 Uiso
H1K_3 H 0.196871 0.668786 -1.318083 0.0164 Uiso
H2K_3 H 0.134171 0.637086 -1.211683 0.0483 Uiso
H3N_3 H 0.187571 0.593785 -1.077083 0.0483 Uiso
H4N_3 H 0.049371 0.524685 -1.295183 0.0483 Uiso
O3N_3 O 0.253571 0.663085 -1.419883 0.0208 Uiso
C3N_3 C 0.183771 0.552485 -1.295383 0.0402 Uiso
C4N_3 C 0.147971 0.534585 -1.234683 0.0402 Uiso
H1N_3 H 0.196871 0.528085 -1.318083 0.0164 Uiso
H2N_3 H 0.134171 0.497085 -1.211683 0.0483 Uiso
O3B_3 O -0.253571 0.336915 -0.580117 0.0208 Uiso
C1W_3 C -0.238771 0.380614 -0.607217 0.0402 Uiso
C2W_3 C -0.201971 0.399014 -0.673117 0.0402 Uiso
C3B_3 C -0.183771 0.447515 -0.704617 0.0402 Uiso
C4B_3 C -0.147971 0.465415 -0.765317 0.0402 Uiso
C5W_3 C -0.129771 0.435114 -0.795617 0.0402 Uiso
C6W_3 C -0.090371 0.454814 -0.858117 0.0402 Uiso
C7W_3 C -0.104371 0.447814 -0.936917 0.0402 Uiso
C8W_3 C -0.154371 0.422814 -0.960117 0.0402 Uiso
C9W_3 C -0.040571 0.479714 -0.836117 0.0402 Uiso
C10W_3 C -0.025971 0.487014 -0.757317 0.0402 Uiso
N2W_2 N 0.000 0.500 -0.886417 0.0402 Uiso
H1B_3 H -0.196871 0.471915 -0.681917 0.0164 Uiso
H2B_3 H -0.134171 0.502915 -0.788317 0.0483 Uiso
H3W_3 H -0.187571 0.406214 -0.922917 0.0483 Uiso
H4W_3 H -0.049371 0.475314 -0.704817 0.0483 Uiso
O3W_3 O -0.253571 0.409514 -0.580117 0.0208 Uiso
C3W_3 C -0.183771 0.368714 -0.704617 0.0402 Uiso
C4W_3 C -0.147971 0.386614 -0.765317 0.0402 Uiso
H1W_3 H -0.196871 0.331214 -0.681917 0.0164 Uiso
H2W_3 H -0.134171 0.362914 -0.788317 0.0483 Uiso
O3A_3 O -0.253571 0.409514 -1.419883 0.0208 Uiso
C3A_3 C -0.183771 0.368714 -1.295383 0.0402 Uiso
C4A_3 C -0.147971 0.386614 -1.234683 0.0402 Uiso
H1A_3 H -0.196871 0.331214 -1.318083 0.0164 Uiso
H2A_3 H -0.134171 0.362914 -1.211683 0.0483 Uiso
O3M_3 O 0.253571 0.590486 -0.580117 0.0208 Uiso
C1_3 C 0.238771 0.619385 -0.607217 0.0402 Uiso
C2_3 C 0.201971 0.600985 -0.673117 0.0402 Uiso
C3M_3 C 0.183771 0.631286 -0.704617 0.0402 Uiso
C4M_3 C 0.147971 0.613386 -0.765317 0.0402 Uiso
C5_3 C 0.129771 0.564885 -0.795617 0.0402 Uiso
C6_3 C 0.090371 0.545185 -0.858117 0.0402 Uiso
C7_3 C 0.104371 0.552185 -0.936917 0.0402 Uiso
C8_3 C 0.154371 0.577185 -0.960117 0.0402 Uiso
C9_3 C 0.040571 0.520285 -0.836117 0.0402 Uiso
C10_3 C 0.025971 0.512985 -0.757317 0.0402 Uiso
H1M_3 H 0.196871 0.668786 -0.681917 0.0164 Uiso
H2M_3 H 0.134171 0.637086 -0.788317 0.0483 Uiso
H3_3 H 0.187571 0.593785 -0.922917 0.0483 Uiso
H4_3 H 0.049371 0.524685 -0.704817 0.0483 Uiso
O3_3 O 0.253571 0.663085 -0.580117 0.0208 Uiso
C3_3 C 0.183771 0.552485 -0.704617 0.0402 Uiso
C4_3 C 0.147971 0.534585 -0.765317 0.0402 Uiso
H1_3 H 0.196871 0.528085 -0.681917 0.0164 Uiso
H2_3 H 0.134171 0.497085 -0.788317 0.0483 Uiso
Fe1L_2 Fe -0.298934 0.298934 -0.500 0.0164 Uiso
O1L_2 O -0.263254 0.263254 -0.500 0.0208 Uiso
Fe1L_3 Fe -0.298934 0.298934 0.500 0.0164 Uiso
O1L_3 O -0.263254 0.263254 0.500 0.0208 Uiso
Fe1A_3 Fe -0.298934 0.402132 -1.500 0.0164 Uiso
Fe1A_4 Fe -0.298934 0.402132 1.500 0.0164 Uiso
Fe1L_4 Fe -0.298934 0.298934 1.500 0.0164 Uiso
Fe1V Fe 0.402132 0.701066 0.500 0.0164 Uiso
Fe1E Fe 0.298934 0.701066 -1.500 0.0164 Uiso
Fe1E_2 Fe 0.298934 0.701066 -0.500 0.0164 Uiso
Fe1E_3 Fe 0.298934 0.701066 1.500 0.0164 Uiso
Fe1S Fe 0.298934 0.597868 -1.500 0.0164 Uiso
Fe1S_2 Fe 0.298934 0.597868 -0.500 0.0164 Uiso
Fe1S_3 Fe 0.298934 0.597868 0.500 0.0164 Uiso
Fe1S_4 Fe 0.298934 0.597868 1.500 0.0164 Uiso
Fe1I Fe -0.402132 0.298934 -0.500 0.0164 Uiso
O2A_2 O -0.333333 0.333334 -1.500 0.0208 Uiso
O2A_3 O -0.333333 0.333334 0.500 0.0208 Uiso
O3B_4 O -0.253571 0.336915 -1.580117 0.0208 Uiso
O3E O 0.336915 0.746429 0.580117 0.0208 Uiso
O3T O 0.336915 0.746429 0.419883 0.0208 Uiso
O3R O -0.336915 0.409514 -0.419883 0.0208 Uiso
O3R_2 O -0.336915 0.409514 0.580117 0.0208 Uiso
O3G O -0.336915 0.409514 -0.580117 0.0208 Uiso
O3G_2 O -0.336915 0.409514 0.419883 0.0208 Uiso
O3H O -0.336915 0.253571 -1.419883 0.0208 Uiso
O3H_2 O -0.336915 0.253571 -0.419883 0.0208 Uiso
O3H_3 O -0.336915 0.253571 0.580117 0.0208 Uiso
O3Q O -0.336915 0.253571 -1.580117 0.0208 Uiso
O3Q_2 O -0.336915 0.253571 -0.580117 0.0208 Uiso
O3Q_3 O -0.336915 0.253571 0.419883 0.0208 Uiso
loop_
_geom_bond_atom_site_label_1
_geom_bond_atom_site_label_2
_geom_bond_site_symmetry_1
_geom_bond_site_symmetry_2
Fe1 O1 1_555 1_555
O2 Fe1 1_555 1_555
Fe2 Cl1 1_555 1_555
O3 Fe1 1_555 1_555
C1 O3 1_555 1_555
C2 C1 1_555 1_555
C3 C2 1_555 1_555
C4 C3 1_555 1_555
C5 C4 1_555 1_555
C6 C5 1_555 1_555
C7 C6 1_555 1_555
C8 C7 1_555 1_555
N1 Fe2 1_555 1_555
C9 C6 1_555 1_555
C10 C9 1_555 1_555
N2 Fe2 1_555 1_555
H1 C3 1_555 1_555
H2 C4 1_555 1_555
H3 C8 1_555 1_555
H4 C10 1_555 1_555
O3W C1W 1_555 1_555
C1W C2W 1_555 1_555
C2W C3W 1_555 1_555
C3W C4W 1_555 1_555
C4W C5W 1_555 1_555
C5W C6W 1_555 1_555
C6W C7W 1_555 1_555
C7W C8W 1_555 1_555
C8W H3W 1_555 1_555
N1A Fe2 1_555 1_555
C9W N2 1_555 1_555
C10W C10 1_555 1_555
H1W C3W 1_555 1_555
H2W C4W 1_555 1_555
H4W C10W 1_555 1_555
O3B C1W 1_555 1_555
C3B C2W 1_555 1_555
C4B C5W 1_555 1_555
H1B C3B 1_555 1_555
H2B C4B 1_555 1_555
O3N C1N 1_555 1_555
C1N C2N 1_555 1_555
C2N C3N 1_555 1_555
C3N C4N 1_555 1_555
C4N C5N 1_555 1_555
C5N C6N 1_555 1_555
C6N C7N 1_555 1_555
C7N N1 1_555 1_555
C8N C8 1_555 1_555
C9N C6N 1_555 1_555
C10N C9N 1_555 1_555
N2A Fe2 1_555 1_555
H1N C3N 1_555 1_555
H2N C4N 1_555 1_555
H3N C8N 1_555 1_555
H4N C10N 1_555 1_555
O3K C1N 1_555 1_555
C3K C2N 1_555 1_555
C4K C5N 1_555 1_555
H1K C3K 1_555 1_555
H2K C4K 1_555 1_555
O3M C1 1_555 1_555
C3M C2 1_555 1_555
C4M C5 1_555 1_555
H1M C3M 1_555 1_555
H2M C4M 1_555 1_555
O3A C1A 1_555 1_555
C1A C2A 1_555 1_555
C2A C3A 1_555 1_555
C3A C4A 1_555 1_555
C4A C5A 1_555 1_555
C5A C6A 1_555 1_555
C6A C7A 1_555 1_555
C7A N1A 1_555 1_555
C8A C8W 1_555 1_555
C9A N2A 1_555 1_555
C10A C10N 1_555 1_555
H1A C3A 1_555 1_555
H2A C4A 1_555 1_555
H3A C8A 1_555 1_555
H4A C10A 1_555 1_555
O3L C1A 1_555 1_555
C3L C2A 1_555 1_555
C4L C5A 1_555 1_555
H1L C3L 1_555 1_555
H2L C4L 1_555 1_555
Fe1A O3A 1_555 1_555
O1A Fe1A 1_555 1_555
O2A Fe1A 1_555 1_555
Fe1A_2 O3W 1_555 1_555
O1A_2 Fe1A_2 1_555 1_555
Fe2A N1A_2 1_555 1_555
O3A_2 Fe1A_2 1_555 1_555
C1A_2 O3A_2 1_555 1_555
C2A_2 C1A_2 1_555 1_555
C3A_2 C2A_2 1_555 1_555
C4A_2 C3A_2 1_555 1_555
C5A_2 C4A_2 1_555 1_555
C6A_2 C5A_2 1_555 1_555
C7A_2 C6A_2 1_555 1_555
C8A_2 C7A_2 1_555 1_555
N1A_2 C7A_2 1_555 1_555
C9A_2 C6A_2 1_555 1_555
C10A_2 C9A_2 1_555 1_555
N2A_2 Fe2A 1_555 1_555
H1A_2 C3A_2 1_555 1_555
H2A_2 C4A_2 1_555 1_555
H3A_2 C8A_2 1_555 1_555
H4A_2 C10A_2 1_555 1_555
O3N_2 Fe1 1_555 1_555
C1N_2 O3N_2 1_555 1_555
C2N_2 C1N_2 1_555 1_555
C3N_2 C2N_2 1_555 1_555
C4N_2 C3N_2 1_555 1_555
C5N_2 C4N_2 1_555 1_555
C6N_2 C5N_2 1_555 1_555
C7N_2 C6N_2 1_555 1_555
C8N_2 C7N_2 1_555 1_555
N1N Fe2A 1_555 1_555
C9N_2 N2A_2 1_555 1_555
C10N_2 C10A_2 1_555 1_555
H1N_2 C3N_2 1_555 1_555
H2N_2 C4N_2 1_555 1_555
H3N_2 C8N_2 1_555 1_555
H4N_2 C10N_2 1_555 1_555
O3K_2 C1N_2 1_555 1_555
C3K_2 C2N_2 1_555 1_555
C4K_2 C5N_2 1_555 1_555
H1K_2 C3K_2 1_555 1_555
H2K_2 C4K_2 1_555 1_555
O3W_2 C1W_2 1_555 1_555
C1W_2 C2W_2 1_555 1_555
C2W_2 C3W_2 1_555 1_555
C3W_2 C4W_2 1_555 1_555
C4W_2 C5W_2 1_555 1_555
C5W_2 C6W_2 1_555 1_555
C6W_2 C7W_2 1_555 1_555
C7W_2 N1A_2 1_555 1_555
C8W_2 C8A_2 1_555 1_555
C9W_2 C6W_2 1_555 1_555
C10W_2 C9W_2 1_555 1_555
N2W Fe2A 1_555 1_555
H1W_2 C3W_2 1_555 1_555
H2W_2 C4W_2 1_555 1_555
H3W_2 C8W_2 1_555 1_555
H4W_2 C10W_2 1_555 1_555
O3B_2 C1W_2 1_555 1_555
C3B_2 C2W_2 1_555 1_555
C4B_2 C5W_2 1_555 1_555
H1B_2 C3B_2 1_555 1_555
H2B_2 C4B_2 1_555 1_555
O3L_2 C1A_2 1_555 1_555
C3L_2 C2A_2 1_555 1_555
C4L_2 C5A_2 1_555 1_555
H1L_2 C3L_2 1_555 1_555
H2L_2 C4L_2 1_555 1_555
O3_2 C1_2 1_555 1_555
C1_2 C2_2 1_555 1_555
C2_2 C3_2 1_555 1_555
C3_2 C4_2 1_555 1_555
C4_2 C5_2 1_555 1_555
C5_2 C6_2 1_555 1_555
C6_2 C7_2 1_555 1_555
C7_2 N1N 1_555 1_555
C8_2 C8N_2 1_555 1_555
C9_2 N2W 1_555 1_555
C10_2 C10W_2 1_555 1_555
H1_2 C3_2 1_555 1_555
H2_2 C4_2 1_555 1_555
H3_2 C8_2 1_555 1_555
H4_2 C10_2 1_555 1_555
O3M_2 C1_2 1_555 1_555
C3M_2 C2_2 1_555 1_555
C4M_2 C5_2 1_555 1_555
H1M_2 C3M_2 1_555 1_555
H2M_2 C4M_2 1_555 1_555
Fe1L O1L 1_555 1_555
Fe2A_2 N1A_3 1_555 1_555
O3L_3 Fe1L 1_555 1_555
C1A_3 O3L_3 1_555 1_555
C2A_3 C1A_3 1_555 1_555
C3L_3 C2A_3 1_555 1_555
C4L_3 C3L_3 1_555 1_555
C5A_3 C4L_3 1_555 1_555
C6A_3 C5A_3 1_555 1_555
C7A_3 C6A_3 1_555 1_555
C8A_3 C7A_3 1_555 1_555
N1A_3 C7A_3 1_555 1_555
C9A_3 C6A_3 1_555 1_555
C10A_3 C9A_3 1_555 1_555
N2A_3 Fe2A_2 1_555 1_555
H1L_3 C3L_3 1_555 1_555
H2L_3 C4L_3 1_555 1_555
H3A_3 C8A_3 1_555 1_555
H4A_3 C10A_3 1_555 1_555
O3K_3 C1N_3 1_555 1_555
C1N_3 C2N_3 1_555 1_555
C2N_3 C3K_3 1_555 1_555
C3K_3 C4K_3 1_555 1_555
C4K_3 C5N_3 1_555 1_555
C5N_3 C6N_3 1_555 1_555
C6N_3 C7N_3 1_555 1_555
C7N_3 C8N_3 1_555 1_555
C8N_3 H3N_3 1_555 1_555
N1N_2 Fe2A_2 1_555 1_555
C9N_3 N2A_3 1_555 1_555
C10N_3 C10A_3 1_555 1_555
H1K_3 C3K_3 1_555 1_555
H2K_3 C4K_3 1_555 1_555
H4N_3 C10N_3 1_555 1_555
O3N_3 C1N_3 1_555 1_555
C3N_3 C2N_3 1_555 1_555
C4N_3 C5N_3 1_555 1_555
H1N_3 C3N_3 1_555 1_555
H2N_3 C4N_3 1_555 1_555
O3B_3 C1W_3 1_555 1_555
C1W_3 C2W_3 1_555 1_555
C2W_3 C3B_3 1_555 1_555
C3B_3 C4B_3 1_555 1_555
C4B_3 C5W_3 1_555 1_555
C5W_3 C6W_3 1_555 1_555
C6W_3 C7W_3 1_555 1_555
C7W_3 N1A_3 1_555 1_555
C8W_3 C8A_3 1_555 1_555
C9W_3 C6W_3 1_555 1_555
C10W_3 C9W_3 1_555 1_555
N2W_2 Fe2A_2 1_555 1_555
H1B_3 C3B_3 1_555 1_555
H2B_3 C4B_3 1_555 1_555
H3W_3 C8W_3 1_555 1_555
H4W_3 C10W_3 1_555 1_555
O3W_3 Fe1A 1_555 1_555
C3W_3 C2W_3 1_555 1_555
C4W_3 C5W_3 1_555 1_555
H1W_3 C3W_3 1_555 1_555
H2W_3 C4W_3 1_555 1_555
O3A_3 C1A_3 1_555 1_555
C3A_3 C2A_3 1_555 1_555
C4A_3 C5A_3 1_555 1_555
H1A_3 C3A_3 1_555 1_555
H2A_3 C4A_3 1_555 1_555
O3M_3 C1_3 1_555 1_555
C1_3 C2_3 1_555 1_555
C2_3 C3M_3 1_555 1_555
C3M_3 C4M_3 1_555 1_555
C4M_3 C5_3 1_555 1_555
C5_3 C6_3 1_555 1_555
C6_3 C7_3 1_555 1_555
C7_3 N1N_2 1_555 1_555
C8_3 C8N_3 1_555 1_555
C9_3 N2W_2 1_555 1_555
C10_3 C10W_3 1_555 1_555
H1M_3 C3M_3 1_555 1_555
H2M_3 C4M_3 1_555 1_555
H3_3 C8_3 1_555 1_555
H4_3 C10_3 1_555 1_555
O3_3 C1_3 1_555 1_555
C3_3 C2_3 1_555 1_555
C4_3 C5_3 1_555 1_555
H1_3 C3_3 1_555 1_555
H2_3 C4_3 1_555 1_555
Fe1L_2 O3L 1_555 1_555
O1L_2 Fe1L_2 1_555 1_555
Fe1L_3 O3B 1_555 1_555
O1L_3 Fe1L_3 1_555 1_555
Fe1A_3 O3A_3 1_555 1_555
Fe1A_4 O3W_2 1_555 1_555
Fe1L_4 O3B_2 1_555 1_555
Fe1V O2 1_555 1_555
Fe1E O3N_3 1_555 1_555
Fe1E_2 O3N 1_555 1_555
Fe1E_3 O3_2 1_555 1_555
Fe1S O3K_3 1_555 1_555
Fe1S_2 O3K 1_555 1_555
Fe1S_3 O2 1_555 1_555
Fe1S_4 O3M_2 1_555 1_555
Fe1I O2A 1_555 1_555
O2A_2 Fe1L 1_555 1_555
O2A_3 Fe1A_2 1_555 1_555
O3B_4 Fe1L 1_555 1_555
O3E Fe1 1_555 1_555
O3T Fe1 1_555 1_555
O3R Fe1A 1_555 1_555
O3R_2 Fe1A_2 1_555 1_555
O3G Fe1A 1_555 1_555
O3G_2 Fe1A_2 1_555 1_555
O3H Fe1L 1_555 1_555
O3H_2 Fe1L_2 1_555 1_555
O3H_3 Fe1L_3 1_555 1_555
O3Q Fe1L 1_555 1_555
O3Q_2 Fe1L_2 1_555 1_555
O3Q_3 Fe1L_3 1_555 1_555
C7 N1 1_555 1_555
C9 N2 1_555 1_555
C6W C9W 1_555 1_555
C7W N1A 1_555 1_555
C9W C10W 1_555 1_555
C3B C4B 1_555 1_555
C7N C8N 1_555 1_555
C9N N2A 1_555 1_555
C3K C4K 1_555 1_555
O3M Fe1S_3 1_555 1_555
C3M C4M 1_555 1_555
C6A C9A 1_555 1_555
C7A C8A 1_555 1_555
C9A C10A 1_555 1_555
C3L C4L 1_555 1_555
O2A Fe1L_2 1_555 1_555
C9A_2 N2A_2 1_555 1_555
C6N_2 C9N_2 1_555 1_555
C7N_2 N1N 1_555 1_555
C9N_2 C10N_2 1_555 1_555
O3K_2 Fe1S_3 1_555 1_555
C3K_2 C4K_2 1_555 1_555
C7W_2 C8W_2 1_555 1_555
C9W_2 N2W 1_555 1_555
C3B_2 C4B_2 1_555 1_555
O3L_2 Fe1L_3 1_555 1_555
C3L_2 C4L_2 1_555 1_555
C6_2 C9_2 1_555 1_555
C7_2 C8_2 1_555 1_555
C9_2 C10_2 1_555 1_555
C3M_2 C4M_2 1_555 1_555
C9A_3 N2A_3 1_555 1_555
C6N_3 C9N_3 1_555 1_555
C7N_3 N1N_2 1_555 1_555
C9N_3 C10N_3 1_555 1_555
C3N_3 C4N_3 1_555 1_555
O3B_3 Fe1L_2 1_555 1_555
C1W_3 O3W_3 1_555 1_555
C7W_3 C8W_3 1_555 1_555
C9W_3 N2W_2 1_555 1_555
C3W_3 C4W_3 1_555 1_555
C3A_3 C4A_3 1_555 1_555
O3M_3 Fe1S_2 1_555 1_555
C6_3 C9_3 1_555 1_555
C7_3 C8_3 1_555 1_555
C9_3 C10_3 1_555 1_555
O3_3 Fe1E_2 1_555 1_555
C3_3 C4_3 1_555 1_555
Fe1L_3 O2A_3 1_555 1_555
Fe1A_3 O2A_2 1_555 1_555

#END
