
#######################################################################
#
#                 Cambridge Crystallographic Data Centre
#                                CCDC 
#
#######################################################################
#
# If this CIF has been generated from an entry in the Cambridge 
# Structural Database, then it will include bibliographic, chemical, 
# crystal, experimental, refinement or atomic coordinate data resulting 
# from the CCDC's data processing and validation procedures.
#
#######################################################################

data_MERLED
_chemical_formula_moiety         '(C144 H82 Co3 Fe6 N12 O32)n'
_symmetry_cell_setting           hexagonal
_symmetry_space_group_name_H-M   'P 6/m m m'
_symmetry_Int_Tables_number      191
_space_group_name_Hall           '-P 6 2'
loop_
_symmetry_equiv_pos_site_id
_symmetry_equiv_pos_as_xyz
1 x,y,z
2 -x,-x+y,-z
3 -x,-y,z
4 -x+y,-x,z
5 -x+y,y,-z
6 -y,-x,-z
7 -y,x-y,z
8 y,-x+y,z
9 y,x,-z
10 x-y,-y,-z
11 x-y,x,z
12 x,x-y,-z
13 -x,-y,-z
14 x,x-y,z
15 x,y,-z
16 x-y,x,-z
17 x-y,-y,z
18 y,x,z
19 y,-x+y,-z
20 -y,x-y,-z
21 -y,-x,z
22 -x+y,y,z
23 -x+y,-x,-z
24 -x,-x+y,z
_cell_length_a                   31.13415
_cell_length_b                   31.13415
_cell_length_c                   16.90887
_cell_angle_alpha                90
_cell_angle_beta                 90
_cell_angle_gamma                120
_cell_volume                     14194.5
loop_
_atom_site_label
_atom_site_type_symbol
_atom_site_fract_x
_atom_site_fract_y
_atom_site_fract_z
_atom_site_U_iso_or_equiv
_atom_site_thermal_displace_type
Fe1 Fe 0.297795 0.702205 0.500 0.0237 Uiso
O1 O 0.261658 0.738342 0.500 0.0300 Uiso
O2 O 0.333333 0.666667 0.500 0.0300 Uiso
Co1 Co 0.000 0.500 0.000 0.0237 Uiso
O3 O 0.253097 0.662849 0.420235 0.0300 Uiso
C1 C 0.238298 0.619149 0.393135 0.0485 Uiso
C2 C 0.201498 0.600749 0.327235 0.0485 Uiso
C3 C 0.183298 0.552249 0.295735 0.0485 Uiso
C4 C 0.147498 0.534349 0.235035 0.0485 Uiso
C5 C 0.129298 0.564649 0.204735 0.0485 Uiso
C6 C 0.089898 0.544949 0.142235 0.0485 Uiso
C7 C 0.103898 0.551949 0.063435 0.0485 Uiso
C8 C 0.153898 0.576949 0.040235 0.0485 Uiso
N1 N 0.072098 0.536049 0.000 0.0485 Uiso
C9 C 0.040098 0.520049 0.164235 0.0485 Uiso
C10 C 0.025498 0.512749 0.243035 0.0485 Uiso
N2 N 0.000 0.500 0.113935 0.0485 Uiso
H1 H 0.196398 0.527849 0.318435 0.0237 Uiso
H2 H 0.133698 0.496849 0.212035 0.0582 Uiso
H3 H 0.187098 0.593549 0.077435 0.0582 Uiso
H4 H 0.048898 0.524449 0.295535 0.0582 Uiso
O3W O -0.253097 0.409752 0.420235 0.0300 Uiso
C1W C -0.238298 0.380851 0.393135 0.0485 Uiso
C2W C -0.201498 0.399251 0.327235 0.0485 Uiso
C3W C -0.183298 0.368951 0.295735 0.0485 Uiso
C4W C -0.147498 0.386851 0.235035 0.0485 Uiso
C5W C -0.129298 0.435351 0.204735 0.0485 Uiso
C6W C -0.089898 0.455051 0.142235 0.0485 Uiso
C7W C -0.103898 0.448051 0.063435 0.0485 Uiso
C8W C -0.153898 0.423051 0.040235 0.0485 Uiso
N1A N -0.072098 0.463951 0.000 0.0485 Uiso
C9W C -0.040098 0.479951 0.164235 0.0485 Uiso
C10W C -0.025498 0.487251 0.243035 0.0485 Uiso
H1W H -0.196398 0.331451 0.318435 0.0237 Uiso
H2W H -0.133698 0.363151 0.212035 0.0582 Uiso
H3W H -0.187098 0.406451 0.077435 0.0582 Uiso
H4W H -0.048898 0.475551 0.295535 0.0582 Uiso
O3B O -0.253097 0.337151 0.420235 0.0300 Uiso
C3B C -0.183298 0.447751 0.295735 0.0485 Uiso
C4B C -0.147498 0.465651 0.235035 0.0485 Uiso
H1B H -0.196398 0.472151 0.318435 0.0237 Uiso
H2B H -0.133698 0.503151 0.212035 0.0582 Uiso
O3N O 0.253097 0.662849 -0.420235 0.0300 Uiso
C1N C 0.238298 0.619149 -0.393135 0.0485 Uiso
C2N C 0.201498 0.600749 -0.327235 0.0485 Uiso
C3N C 0.183298 0.552249 -0.295735 0.0485 Uiso
C4N C 0.147498 0.534349 -0.235035 0.0485 Uiso
C5N C 0.129298 0.564649 -0.204735 0.0485 Uiso
C6N C 0.089898 0.544949 -0.142235 0.0485 Uiso
C7N C 0.103898 0.551949 -0.063435 0.0485 Uiso
C8N C 0.153898 0.576949 -0.040235 0.0485 Uiso
C9N C 0.040098 0.520049 -0.164235 0.0485 Uiso
C10N C 0.025498 0.512749 -0.243035 0.0485 Uiso
N2A N 0.000 0.500 -0.113935 0.0485 Uiso
H1N H 0.196398 0.527849 -0.318435 0.0237 Uiso
H2N H 0.133698 0.496849 -0.212035 0.0582 Uiso
H3N H 0.187098 0.593549 -0.077435 0.0582 Uiso
H4N H 0.048898 0.524449 -0.295535 0.0582 Uiso
O3K O 0.253097 0.590248 -0.420235 0.0300 Uiso
C3K C 0.183298 0.631049 -0.295735 0.0485 Uiso
C4K C 0.147498 0.613149 -0.235035 0.0485 Uiso
H1K H 0.196398 0.668549 -0.318435 0.0237 Uiso
H2K H 0.133698 0.636849 -0.212035 0.0582 Uiso
O3M O 0.253097 0.590248 0.420235 0.0300 Uiso
C3M C 0.183298 0.631049 0.295735 0.0485 Uiso
C4M C 0.147498 0.613149 0.235035 0.0485 Uiso
H1M H 0.196398 0.668549 0.318435 0.0237 Uiso
H2M H 0.133698 0.636849 0.212035 0.0582 Uiso
O3A O -0.253097 0.409752 -0.420235 0.0300 Uiso
C1A C -0.238298 0.380851 -0.393135 0.0485 Uiso
C2A C -0.201498 0.399251 -0.327235 0.0485 Uiso
C3A C -0.183298 0.368951 -0.295735 0.0485 Uiso
C4A C -0.147498 0.386851 -0.235035 0.0485 Uiso
C5A C -0.129298 0.435351 -0.204735 0.0485 Uiso
C6A C -0.089898 0.455051 -0.142235 0.0485 Uiso
C7A C -0.103898 0.448051 -0.063435 0.0485 Uiso
C8A C -0.153898 0.423051 -0.040235 0.0485 Uiso
C9A C -0.040098 0.479951 -0.164235 0.0485 Uiso
C10A C -0.025498 0.487251 -0.243035 0.0485 Uiso
H1A H -0.196398 0.331451 -0.318435 0.0237 Uiso
H2A H -0.133698 0.363151 -0.212035 0.0582 Uiso
H3A H -0.187098 0.406451 -0.077435 0.0582 Uiso
H4A H -0.048898 0.475551 -0.295535 0.0582 Uiso
O3L O -0.253097 0.337151 -0.420235 0.0300 Uiso
C3L C -0.183298 0.447751 -0.295735 0.0485 Uiso
C4L C -0.147498 0.465651 -0.235035 0.0485 Uiso
H1L H -0.196398 0.472151 -0.318435 0.0237 Uiso
H2L H -0.133698 0.503151 -0.212035 0.0582 Uiso
Fe1A Fe -0.297795 0.404410 -0.500 0.0237 Uiso
O1A O -0.261658 0.476684 -0.500 0.0300 Uiso
O2A O -0.333333 0.333334 -0.500 0.0300 Uiso
Fe1A_2 Fe -0.297795 0.404410 0.500 0.0237 Uiso
O1A_2 O -0.261658 0.476684 0.500 0.0300 Uiso
Fe1L Fe -0.297795 0.297795 -0.500 0.0237 Uiso
O1L O -0.261658 0.261658 -0.500 0.0300 Uiso
Fe1L_2 Fe -0.297795 0.297795 0.500 0.0237 Uiso
O1L_2 O -0.261658 0.261658 0.500 0.0300 Uiso
Co1D Co -0.500 0.500 0.000 0.0237 Uiso
O3R O -0.337151 0.409752 -0.420235 0.0300 Uiso
C1R C -0.380851 0.380851 -0.393135 0.0485 Uiso
C2R C -0.399251 0.399251 -0.327235 0.0485 Uiso
C3R C -0.447751 0.368951 -0.295735 0.0485 Uiso
C4R C -0.465651 0.386851 -0.235035 0.0485 Uiso
C5R C -0.435351 0.435351 -0.204735 0.0485 Uiso
C6R C -0.455051 0.455051 -0.142235 0.0485 Uiso
C7R C -0.448051 0.448051 -0.063435 0.0485 Uiso
C8R C -0.423051 0.423051 -0.040235 0.0485 Uiso
N1R N -0.463951 0.463951 0.000 0.0485 Uiso
C9R C -0.479951 0.479951 -0.164235 0.0485 Uiso
C10R C -0.487251 0.487251 -0.243035 0.0485 Uiso
N2D N -0.500 0.500 -0.113935 0.0485 Uiso
H1R H -0.472151 0.331451 -0.318435 0.0237 Uiso
H2R H -0.503151 0.363151 -0.212035 0.0582 Uiso
H3R H -0.406451 0.406451 -0.077435 0.0582 Uiso
H4R H -0.475551 0.475551 -0.295535 0.0582 Uiso
O3D O -0.590248 0.662849 -0.420235 0.0300 Uiso
C1D C -0.619149 0.619149 -0.393135 0.0485 Uiso
C2D C -0.600749 0.600749 -0.327235 0.0485 Uiso
C3D C -0.631049 0.552249 -0.295735 0.0485 Uiso
C4D C -0.613149 0.534349 -0.235035 0.0485 Uiso
C5D C -0.564649 0.564649 -0.204735 0.0485 Uiso
C6D C -0.544949 0.544949 -0.142235 0.0485 Uiso
C7D C -0.551949 0.551949 -0.063435 0.0485 Uiso
C8D C -0.576949 0.576949 -0.040235 0.0485 Uiso
N1D N -0.536049 0.536049 0.000 0.0485 Uiso
C9D C -0.520049 0.520049 -0.164235 0.0485 Uiso
C10D C -0.512749 0.512749 -0.243035 0.0485 Uiso
H1D H -0.668549 0.527849 -0.318435 0.0237 Uiso
H2D H -0.636849 0.496849 -0.212035 0.0582 Uiso
H3D H -0.593549 0.593549 -0.077435 0.0582 Uiso
H4D H -0.524449 0.524449 -0.295535 0.0582 Uiso
O3S O -0.662849 0.590248 -0.420235 0.0300 Uiso
C3S C -0.552249 0.631049 -0.295735 0.0485 Uiso
C4S C -0.534349 0.613149 -0.235035 0.0485 Uiso
H1S H -0.527849 0.668549 -0.318435 0.0237 Uiso
H2S H -0.496849 0.636849 -0.212035 0.0582 Uiso
O3G O -0.337151 0.409752 0.420235 0.0300 Uiso
C1G C -0.380851 0.380851 0.393135 0.0485 Uiso
C2G C -0.399251 0.399251 0.327235 0.0485 Uiso
C3G C -0.447751 0.368951 0.295735 0.0485 Uiso
C4G C -0.465651 0.386851 0.235035 0.0485 Uiso
C5G C -0.435351 0.435351 0.204735 0.0485 Uiso
C6G C -0.455051 0.455051 0.142235 0.0485 Uiso
C7G C -0.448051 0.448051 0.063435 0.0485 Uiso
C8G C -0.423051 0.423051 0.040235 0.0485 Uiso
C9G C -0.479951 0.479951 0.164235 0.0485 Uiso
C10G C -0.487251 0.487251 0.243035 0.0485 Uiso
N2U N -0.500 0.500 0.113935 0.0485 Uiso
H1G H -0.472151 0.331451 0.318435 0.0237 Uiso
H2G H -0.503151 0.363151 0.212035 0.0582 Uiso
H3G H -0.406451 0.406451 0.077435 0.0582 Uiso
H4G H -0.475551 0.475551 0.295535 0.0582 Uiso
O3P O -0.409752 0.337151 0.420235 0.0300 Uiso
C3P C -0.368951 0.447751 0.295735 0.0485 Uiso
C4P C -0.386851 0.465651 0.235035 0.0485 Uiso
H1P H -0.331451 0.472151 0.318435 0.0237 Uiso
H2P H -0.363151 0.503151 0.212035 0.0582 Uiso
O3I O -0.409752 0.337151 -0.420235 0.0300 Uiso
C3I C -0.368951 0.447751 -0.295735 0.0485 Uiso
C4I C -0.386851 0.465651 -0.235035 0.0485 Uiso
H1I H -0.331451 0.472151 -0.318435 0.0237 Uiso
H2I H -0.363151 0.503151 -0.212035 0.0582 Uiso
O3U O -0.590248 0.662849 0.420235 0.0300 Uiso
C1U C -0.619149 0.619149 0.393135 0.0485 Uiso
C2U C -0.600749 0.600749 0.327235 0.0485 Uiso
C3U C -0.631049 0.552249 0.295735 0.0485 Uiso
C4U C -0.613149 0.534349 0.235035 0.0485 Uiso
C5U C -0.564649 0.564649 0.204735 0.0485 Uiso
C6U C -0.544949 0.544949 0.142235 0.0485 Uiso
C7U C -0.551949 0.551949 0.063435 0.0485 Uiso
C8U C -0.576949 0.576949 0.040235 0.0485 Uiso
C9U C -0.520049 0.520049 0.164235 0.0485 Uiso
C10U C -0.512749 0.512749 0.243035 0.0485 Uiso
H1U H -0.668549 0.527849 0.318435 0.0237 Uiso
H2U H -0.636849 0.496849 0.212035 0.0582 Uiso
H3U H -0.593549 0.593549 0.077435 0.0582 Uiso
H4U H -0.524449 0.524449 0.295535 0.0582 Uiso
O3F O -0.662849 0.590248 0.420235 0.0300 Uiso
C3F C -0.552249 0.631049 0.295735 0.0485 Uiso
C4F C -0.534349 0.613149 0.235035 0.0485 Uiso
H1F H -0.527849 0.668549 0.318435 0.0237 Uiso
H2F H -0.496849 0.636849 0.212035 0.0582 Uiso
Co1V Co -0.500 0.000 0.000 0.0237 Uiso
O3O O -0.409752 0.253097 -0.420235 0.0300 Uiso
C1H C -0.380851 0.238298 -0.393135 0.0485 Uiso
C2H C -0.399251 0.201498 -0.327235 0.0485 Uiso
C3O C -0.368951 0.183298 -0.295735 0.0485 Uiso
C4O C -0.386851 0.147498 -0.235035 0.0485 Uiso
C5H C -0.435351 0.129298 -0.204735 0.0485 Uiso
C6H C -0.455051 0.089898 -0.142235 0.0485 Uiso
C7H C -0.448051 0.103898 -0.063435 0.0485 Uiso
C8H C -0.423051 0.153898 -0.040235 0.0485 Uiso
N1H N -0.463951 0.072098 0.000 0.0485 Uiso
C9H C -0.479951 0.040098 -0.164235 0.0485 Uiso
C10H C -0.487251 0.025498 -0.243035 0.0485 Uiso
N2V N -0.500 0.000 -0.113935 0.0485 Uiso
H1O H -0.331451 0.196398 -0.318435 0.0237 Uiso
H2O H -0.363151 0.133698 -0.212035 0.0582 Uiso
H3H H -0.406451 0.187098 -0.077435 0.0582 Uiso
H4H H -0.475551 0.048898 -0.295535 0.0582 Uiso
O3E O -0.662849 -0.253097 -0.420235 0.0300 Uiso
C1V C -0.619149 -0.238298 -0.393135 0.0485 Uiso
C2V C -0.600749 -0.201498 -0.327235 0.0485 Uiso
C3E C -0.552249 -0.183298 -0.295735 0.0485 Uiso
C4E C -0.534349 -0.147498 -0.235035 0.0485 Uiso
C5V C -0.564649 -0.129298 -0.204735 0.0485 Uiso
C6V C -0.544949 -0.089898 -0.142235 0.0485 Uiso
C7V C -0.551949 -0.103898 -0.063435 0.0485 Uiso
C8V C -0.576949 -0.153898 -0.040235 0.0485 Uiso
N1V N -0.536049 -0.072098 0.000 0.0485 Uiso
C9V C -0.520049 -0.040098 -0.164235 0.0485 Uiso
C10V C -0.512749 -0.025498 -0.243035 0.0485 Uiso
H1E H -0.527849 -0.196398 -0.318435 0.0237 Uiso
H2E H -0.496849 -0.133698 -0.212035 0.0582 Uiso
H3V H -0.593549 -0.187098 -0.077435 0.0582 Uiso
H4V H -0.524449 -0.048898 -0.295535 0.0582 Uiso
O3V O -0.590248 -0.253097 -0.420235 0.0300 Uiso
C3V C -0.631049 -0.183298 -0.295735 0.0485 Uiso
C4V C -0.613149 -0.147498 -0.235035 0.0485 Uiso
H1V H -0.668549 -0.196398 -0.318435 0.0237 Uiso
H2V H -0.636849 -0.133698 -0.212035 0.0582 Uiso
O3J O -0.409752 0.253097 0.420235 0.0300 Uiso
C1Q C -0.380851 0.238298 0.393135 0.0485 Uiso
C2Q C -0.399251 0.201498 0.327235 0.0485 Uiso
C3J C -0.368951 0.183298 0.295735 0.0485 Uiso
C4J C -0.386851 0.147498 0.235035 0.0485 Uiso
C5Q C -0.435351 0.129298 0.204735 0.0485 Uiso
C6Q C -0.455051 0.089898 0.142235 0.0485 Uiso
C7Q C -0.448051 0.103898 0.063435 0.0485 Uiso
C8Q C -0.423051 0.153898 0.040235 0.0485 Uiso
C9Q C -0.479951 0.040098 0.164235 0.0485 Uiso
C10Q C -0.487251 0.025498 0.243035 0.0485 Uiso
N2C N -0.500 0.000 0.113935 0.0485 Uiso
H1J H -0.331451 0.196398 0.318435 0.0237 Uiso
H2J H -0.363151 0.133698 0.212035 0.0582 Uiso
H3Q H -0.406451 0.187098 0.077435 0.0582 Uiso
H4Q H -0.475551 0.048898 0.295535 0.0582 Uiso
O3Q O -0.337151 0.253097 0.420235 0.0300 Uiso
C3Q C -0.447751 0.183298 0.295735 0.0485 Uiso
C4Q C -0.465651 0.147498 0.235035 0.0485 Uiso
H1Q H -0.472151 0.196398 0.318435 0.0237 Uiso
H2Q H -0.503151 0.133698 0.212035 0.0582 Uiso
O3H O -0.337151 0.253097 -0.420235 0.0300 Uiso
C3H C -0.447751 0.183298 -0.295735 0.0485 Uiso
C4H C -0.465651 0.147498 -0.235035 0.0485 Uiso
H1H H -0.472151 0.196398 -0.318435 0.0237 Uiso
H2H H -0.503151 0.133698 -0.212035 0.0582 Uiso
O3T O -0.662849 -0.253097 0.420235 0.0300 Uiso
C1C C -0.619149 -0.238298 0.393135 0.0485 Uiso
C2C C -0.600749 -0.201498 0.327235 0.0485 Uiso
C3T C -0.552249 -0.183298 0.295735 0.0485 Uiso
C4T C -0.534349 -0.147498 0.235035 0.0485 Uiso
C5C C -0.564649 -0.129298 0.204735 0.0485 Uiso
C6C C -0.544949 -0.089898 0.142235 0.0485 Uiso
C7C C -0.551949 -0.103898 0.063435 0.0485 Uiso
C8C C -0.576949 -0.153898 0.040235 0.0485 Uiso
C9C C -0.520049 -0.040098 0.164235 0.0485 Uiso
C10C C -0.512749 -0.025498 0.243035 0.0485 Uiso
H1T H -0.527849 -0.196398 0.318435 0.0237 Uiso
H2T H -0.496849 -0.133698 0.212035 0.0582 Uiso
H3C H -0.593549 -0.187098 0.077435 0.0582 Uiso
H4C H -0.524449 -0.048898 0.295535 0.0582 Uiso
O3C O -0.590248 -0.253097 0.420235 0.0300 Uiso
C3C C -0.631049 -0.183298 0.295735 0.0485 Uiso
C4C C -0.613149 -0.147498 0.235035 0.0485 Uiso
H1C H -0.668549 -0.196398 0.318435 0.0237 Uiso
H2C H -0.636849 -0.133698 0.212035 0.0582 Uiso
Fe1V Fe -0.595590 0.702205 0.500 0.0237 Uiso
O1V O -0.523316 0.738342 0.500 0.0300 Uiso
Fe1V_2 Fe -0.595590 -0.297795 -0.500 0.0237 Uiso
Fe1V_3 Fe -0.595590 -0.297795 0.500 0.0237 Uiso
Fe1V_4 Fe -0.595590 0.702205 -0.500 0.0237 Uiso
Fe1V_5 Fe 0.404410 0.702205 0.500 0.0237 Uiso
Fe1E Fe -0.702205 -0.297795 -0.500 0.0237 Uiso
Fe1E_2 Fe -0.702205 -0.297795 0.500 0.0237 Uiso
Fe1E_3 Fe 0.297795 0.702205 -0.500 0.0237 Uiso
Fe1S Fe -0.702205 0.595590 -0.500 0.0237 Uiso
Fe1S_2 Fe -0.702205 0.595590 0.500 0.0237 Uiso
Fe1S_3 Fe 0.297795 0.595590 -0.500 0.0237 Uiso
Fe1S_4 Fe 0.297795 0.595590 0.500 0.0237 Uiso
Fe1I Fe -0.404410 0.297795 -0.500 0.0237 Uiso
Fe1I_2 Fe -0.404410 0.297795 0.500 0.0237 Uiso
O2A_2 O -0.333333 0.333334 0.500 0.0300 Uiso
O2V O -0.666666 0.666667 0.500 0.0300 Uiso
O3A_2 O -0.253097 0.409752 0.579765 0.0300 Uiso
O3W_2 O -0.253097 0.409752 -0.579765 0.0300 Uiso
O3L_2 O -0.253097 0.337151 0.579765 0.0300 Uiso
O3B_2 O -0.253097 0.337151 -0.579765 0.0300 Uiso
O3V_2 O -0.590248 0.746903 0.579765 0.0300 Uiso
O3C_2 O -0.590248 0.746903 0.420235 0.0300 Uiso
O3D_2 O -0.590248 0.662849 0.579765 0.0300 Uiso
O3E_2 O 0.337151 0.746903 0.579765 0.0300 Uiso
O3T_2 O 0.337151 0.746903 0.420235 0.0300 Uiso
O3R_2 O -0.337151 0.409752 0.579765 0.0300 Uiso
O3G_2 O -0.337151 0.409752 -0.579765 0.0300 Uiso
O3H_2 O -0.337151 0.253097 0.579765 0.0300 Uiso
O3Q_2 O -0.337151 0.253097 -0.579765 0.0300 Uiso
O3N_2 O 0.253097 0.662849 0.579765 0.0300 Uiso
loop_
_geom_bond_atom_site_label_1
_geom_bond_atom_site_label_2
_geom_bond_site_symmetry_1
_geom_bond_site_symmetry_2
Fe1 O1 1_555 1_555
O2 Fe1 1_555 1_555
Co1 N1 1_555 1_555
O3 Fe1 1_555 1_555
C1 O3 1_555 1_555
C2 C1 1_555 1_555
C3 C2 1_555 1_555
C4 C3 1_555 1_555
C5 C4 1_555 1_555
C6 C5 1_555 1_555
C7 C6 1_555 1_555
C8 C7 1_555 1_555
N1 C7 1_555 1_555
C9 C6 1_555 1_555
C10 C9 1_555 1_555
N2 Co1 1_555 1_555
H1 C3 1_555 1_555
H2 C4 1_555 1_555
H3 C8 1_555 1_555
H4 C10 1_555 1_555
O3W C1W 1_555 1_555
C1W C2W 1_555 1_555
C2W C3W 1_555 1_555
C3W C4W 1_555 1_555
C4W C5W 1_555 1_555
C5W C6W 1_555 1_555
C6W C7W 1_555 1_555
C7W C8W 1_555 1_555
C8W H3W 1_555 1_555
N1A Co1 1_555 1_555
C9W N2 1_555 1_555
C10W C10 1_555 1_555
H1W C3W 1_555 1_555
H2W C4W 1_555 1_555
H4W C10W 1_555 1_555
O3B C1W 1_555 1_555
C3B C2W 1_555 1_555
C4B C5W 1_555 1_555
H1B C3B 1_555 1_555
H2B C4B 1_555 1_555
O3N C1N 1_555 1_555
C1N C2N 1_555 1_555
C2N C3N 1_555 1_555
C3N C4N 1_555 1_555
C4N C5N 1_555 1_555
C5N C6N 1_555 1_555
C6N C7N 1_555 1_555
C7N N1 1_555 1_555
C8N C8 1_555 1_555
C9N C6N 1_555 1_555
C10N C9N 1_555 1_555
N2A Co1 1_555 1_555
H1N C3N 1_555 1_555
H2N C4N 1_555 1_555
H3N C8N 1_555 1_555
H4N C10N 1_555 1_555
O3K C1N 1_555 1_555
C3K C2N 1_555 1_555
C4K C5N 1_555 1_555
H1K C3K 1_555 1_555
H2K C4K 1_555 1_555
O3M C1 1_555 1_555
C3M C2 1_555 1_555
C4M C5 1_555 1_555
H1M C3M 1_555 1_555
H2M C4M 1_555 1_555
O3A C1A 1_555 1_555
C1A C2A 1_555 1_555
C2A C3A 1_555 1_555
C3A C4A 1_555 1_555
C4A C5A 1_555 1_555
C5A C6A 1_555 1_555
C6A C7A 1_555 1_555
C7A N1A 1_555 1_555
C8A C8W 1_555 1_555
C9A N2A 1_555 1_555
C10A C10N 1_555 1_555
H1A C3A 1_555 1_555
H2A C4A 1_555 1_555
H3A C8A 1_555 1_555
H4A C10A 1_555 1_555
O3L C1A 1_555 1_555
C3L C2A 1_555 1_555
C4L C5A 1_555 1_555
H1L C3L 1_555 1_555
H2L C4L 1_555 1_555
Fe1A O3A 1_555 1_555
O1A Fe1A 1_555 1_555
O2A Fe1A 1_555 1_555
Fe1A_2 O3W 1_555 1_555
O1A_2 Fe1A_2 1_555 1_555
Fe1L O3L 1_555 1_555
O1L Fe1L 1_555 1_555
Fe1L_2 O3B 1_555 1_555
O1L_2 Fe1L_2 1_555 1_555
Co1D N1R 1_555 1_555
O3R Fe1A 1_555 1_555
C1R O3R 1_555 1_555
C2R C1R 1_555 1_555
C3R C2R 1_555 1_555
C4R C3R 1_555 1_555
C5R C4R 1_555 1_555
C6R C5R 1_555 1_555
C7R C6R 1_555 1_555
C8R C7R 1_555 1_555
N1R C7R 1_555 1_555
C9R C6R 1_555 1_555
C10R C9R 1_555 1_555
N2D Co1D 1_555 1_555
H1R C3R 1_555 1_555
H2R C4R 1_555 1_555
H3R C8R 1_555 1_555
H4R C10R 1_555 1_555
O3D C1D 1_555 1_555
C1D C2D 1_555 1_555
C2D C3D 1_555 1_555
C3D C4D 1_555 1_555
C4D C5D 1_555 1_555
C5D C6D 1_555 1_555
C6D C7D 1_555 1_555
C7D C8D 1_555 1_555
C8D H3D 1_555 1_555
N1D Co1D 1_555 1_555
C9D N2D 1_555 1_555
C10D C10R 1_555 1_555
H1D C3D 1_555 1_555
H2D C4D 1_555 1_555
H4D C10D 1_555 1_555
O3S C1D 1_555 1_555
C3S C2D 1_555 1_555
C4S C5D 1_555 1_555
H1S C3S 1_555 1_555
H2S C4S 1_555 1_555
O3G Fe1A_2 1_555 1_555
C1G O3G 1_555 1_555
C2G C1G 1_555 1_555
C3G C2G 1_555 1_555
C4G C3G 1_555 1_555
C5G C4G 1_555 1_555
C6G C5G 1_555 1_555
C7G N1R 1_555 1_555
C8G C8R 1_555 1_555
C9G C6G 1_555 1_555
C10G C9G 1_555 1_555
N2U Co1D 1_555 1_555
H1G C3G 1_555 1_555
H2G C4G 1_555 1_555
H3G C8G 1_555 1_555
H4G C10G 1_555 1_555
O3P C1G 1_555 1_555
C3P C2G 1_555 1_555
C4P C5G 1_555 1_555
H1P C3P 1_555 1_555
H2P C4P 1_555 1_555
O3I C1R 1_555 1_555
C3I C2R 1_555 1_555
C4I C5R 1_555 1_555
H1I C3I 1_555 1_555
H2I C4I 1_555 1_555
O3U C1U 1_555 1_555
C1U C2U 1_555 1_555
C2U C3U 1_555 1_555
C3U C4U 1_555 1_555
C4U C5U 1_555 1_555
C5U C6U 1_555 1_555
C6U C7U 1_555 1_555
C7U N1D 1_555 1_555
C8U C8D 1_555 1_555
C9U N2U 1_555 1_555
C10U C10G 1_555 1_555
H1U C3U 1_555 1_555
H2U C4U 1_555 1_555
H3U C8U 1_555 1_555
H4U C10U 1_555 1_555
O3F C1U 1_555 1_555
C3F C2U 1_555 1_555
C4F C5U 1_555 1_555
H1F C3F 1_555 1_555
H2F C4F 1_555 1_555
Co1V N1H 1_555 1_555
O3O C1H 1_555 1_555
C1H C2H 1_555 1_555
C2H C3O 1_555 1_555
C3O C4O 1_555 1_555
C4O C5H 1_555 1_555
C5H C6H 1_555 1_555
C6H C7H 1_555 1_555
C7H C8H 1_555 1_555
C8H H3H 1_555 1_555
N1H C7H 1_555 1_555
C9H C6H 1_555 1_555
C10H C9H 1_555 1_555
N2V Co1V 1_555 1_555
H1O C3O 1_555 1_555
H2O C4O 1_555 1_555
H4H C10H 1_555 1_555
O3E C1V 1_555 1_555
C1V C2V 1_555 1_555
C2V C3E 1_555 1_555
C3E C4E 1_555 1_555
C4E C5V 1_555 1_555
C5V C6V 1_555 1_555
C6V C7V 1_555 1_555
C7V C8V 1_555 1_555
C8V H3V 1_555 1_555
N1V Co1V 1_555 1_555
C9V N2V 1_555 1_555
C10V C10H 1_555 1_555
H1E C3E 1_555 1_555
H2E C4E 1_555 1_555
H4V C10V 1_555 1_555
O3V C1V 1_555 1_555
C3V C2V 1_555 1_555
C4V C5V 1_555 1_555
H1V C3V 1_555 1_555
H2V C4V 1_555 1_555
O3J C1Q 1_555 1_555
C1Q C2Q 1_555 1_555
C2Q C3J 1_555 1_555
C3J C4J 1_555 1_555
C4J C5Q 1_555 1_555
C5Q C6Q 1_555 1_555
C6Q C7Q 1_555 1_555
C7Q N1H 1_555 1_555
C8Q C8H 1_555 1_555
C9Q C6Q 1_555 1_555
C10Q C9Q 1_555 1_555
N2C Co1V 1_555 1_555
H1J C3J 1_555 1_555
H2J C4J 1_555 1_555
H3Q C8Q 1_555 1_555
H4Q C10Q 1_555 1_555
O3Q Fe1L_2 1_555 1_555
C3Q C2Q 1_555 1_555
C4Q C5Q 1_555 1_555
H1Q C3Q 1_555 1_555
H2Q C4Q 1_555 1_555
O3H Fe1L 1_555 1_555
C3H C2H 1_555 1_555
C4H C5H 1_555 1_555
H1H C3H 1_555 1_555
H2H C4H 1_555 1_555
O3T C1C 1_555 1_555
C1C C2C 1_555 1_555
C2C C3T 1_555 1_555
C3T C4T 1_555 1_555
C4T C5C 1_555 1_555
C5C C6C 1_555 1_555
C6C C7C 1_555 1_555
C7C N1V 1_555 1_555
C8C C8V 1_555 1_555
C9C N2C 1_555 1_555
C10C C10Q 1_555 1_555
H1T C3T 1_555 1_555
H2T C4T 1_555 1_555
H3C C8C 1_555 1_555
H4C C10C 1_555 1_555
O3C C1C 1_555 1_555
C3C C2C 1_555 1_555
C4C C5C 1_555 1_555
H1C C3C 1_555 1_555
H2C C4C 1_555 1_555
Fe1V O3U 1_555 1_555
O1V Fe1V 1_555 1_555
Fe1V_2 O3V 1_555 1_555
Fe1V_3 O3C 1_555 1_555
Fe1V_4 O3D 1_555 1_555
Fe1V_5 O2 1_555 1_555
Fe1E O3E 1_555 1_555
Fe1E_2 O3T 1_555 1_555
Fe1E_3 O3N 1_555 1_555
Fe1S O3S 1_555 1_555
Fe1S_2 O3F 1_555 1_555
Fe1S_3 O3K 1_555 1_555
Fe1S_4 O2 1_555 1_555
Fe1I O2A 1_555 1_555
Fe1I_2 O3P 1_555 1_555
O2A_2 Fe1A_2 1_555 1_555
O2V Fe1V 1_555 1_555
O3A_2 Fe1A_2 1_555 1_555
O3W_2 Fe1A 1_555 1_555
O3L_2 Fe1L_2 1_555 1_555
O3B_2 Fe1L 1_555 1_555
O3V_2 Fe1V 1_555 1_555
O3C_2 Fe1V 1_555 1_555
O3D_2 Fe1V 1_555 1_555
O3E_2 Fe1 1_555 1_555
O3T_2 Fe1 1_555 1_555
O3R_2 Fe1A_2 1_555 1_555
O3G_2 Fe1A 1_555 1_555
O3H_2 Fe1L_2 1_555 1_555
O3Q_2 Fe1L 1_555 1_555
O3N_2 Fe1 1_555 1_555
C9 N2 1_555 1_555
C6W C9W 1_555 1_555
C7W N1A 1_555 1_555
C9W C10W 1_555 1_555
C3B C4B 1_555 1_555
C7N C8N 1_555 1_555
C9N N2A 1_555 1_555
C3K C4K 1_555 1_555
O3M Fe1S_4 1_555 1_555
C3M C4M 1_555 1_555
C6A C9A 1_555 1_555
C7A C8A 1_555 1_555
C9A C10A 1_555 1_555
C3L C4L 1_555 1_555
O2A Fe1L 1_555 1_555
Fe1L_2 O2A_2 1_555 1_555
C9R N2D 1_555 1_555
C6D C9D 1_555 1_555
C7D N1D 1_555 1_555
C9D C10D 1_555 1_555
C3S C4S 1_555 1_555
C6G C7G 1_555 1_555
C7G C8G 1_555 1_555
C9G N2U 1_555 1_555
C3P C4P 1_555 1_555
O3I Fe1I 1_555 1_555
C3I C4I 1_555 1_555
C6U C9U 1_555 1_555
C7U C8U 1_555 1_555
C9U C10U 1_555 1_555
C3F C4F 1_555 1_555
O3O Fe1I 1_555 1_555
C1H O3H 1_555 1_555
C9H N2V 1_555 1_555
C6V C9V 1_555 1_555
C7V N1V 1_555 1_555
C9V C10V 1_555 1_555
C3V C4V 1_555 1_555
O3J Fe1I_2 1_555 1_555
C1Q O3Q 1_555 1_555
C7Q C8Q 1_555 1_555
C9Q N2C 1_555 1_555
C3Q C4Q 1_555 1_555
C3H C4H 1_555 1_555
C6C C9C 1_555 1_555
C7C C8C 1_555 1_555
C9C C10C 1_555 1_555
C3C C4C 1_555 1_555
Fe1S_2 O2V 1_555 1_555
Fe1I_2 O2A_2 1_555 1_555

#END
