
#######################################################################
#
#                 Cambridge Crystallographic Data Centre
#                                CCDC 
#
#######################################################################
#
# If this CIF has been generated from an entry in the Cambridge 
# Structural Database, then it will include bibliographic, chemical, 
# crystal, experimental, refinement or atomic coordinate data resulting 
# from the CCDC's data processing and validation procedures.
#
#######################################################################

data_AHOKIR01
_chemical_formula_moiety         '(C4 H14 Cu2 O9 P2)n'
_symmetry_cell_setting           monoclinic
_symmetry_space_group_name_H-M   'C 2/m'
_symmetry_Int_Tables_number      12
_space_group_name_Hall           '-C 2y'
loop_
_symmetry_equiv_pos_site_id
_symmetry_equiv_pos_as_xyz
1 x,y,z
2 1/2+x,1/2+y,z
3 x,-y,z
4 1/2+x,1/2-y,z
5 -x,-y,-z
6 1/2-x,1/2-y,-z
7 -x,y,-z
8 1/2-x,1/2+y,-z
_cell_length_a                   20.036(4)
_cell_length_b                   6.6708(14)
_cell_length_c                   4.3999(10)
_cell_angle_alpha                90
_cell_angle_beta                 91.251(4)
_cell_angle_gamma                90
_cell_volume                     587.934
loop_
_atom_site_label
_atom_site_type_symbol
_atom_site_fract_x
_atom_site_fract_y
_atom_site_fract_z
Cu1 Cu 0.2500 0.2500 0.5000
P1 P 0.32578(17) 0.5000 0.0194(8)
O1 O 0.3185(3) 0.3096(11) 0.2079(14)
O2 O 0.2755(5) 0.5000 -0.255(2)
O3 O 0.3223(7) -0.0000 0.728(3)
C1 C 0.4087(8) 0.5000 -0.136(4)
H1 H 0.408(4) 0.405(13) -0.23(2)
C2 C 0.4667(7) 0.5000 0.076(4)
H2 H 0.468(4) 0.429(13) 0.197(18)
O1B O 0.3185(3) 0.6904(11) 0.2079(14)
H1B H 0.408(4) 0.595(13) -0.23(2)
C2D C 0.5333(7) 0.5000 -0.076(4)
C1D C 0.5913(8) 0.5000 0.136(4)
P1D P 0.67422(17) 0.5000 -0.0194(8)
O1D O 0.6815(3) 0.6904(11) -0.2079(14)
O1F O 0.6815(3) 0.3096(11) -0.2079(14)
O2D O 0.7245(5) 0.5000 0.255(2)
H1D H 0.592(4) 0.595(13) 0.23(2)
H1F H 0.592(4) 0.405(13) 0.23(2)
H2D H 0.532(4) 0.571(13) -0.197(18)
H2F H 0.532(4) 0.429(13) -0.197(18)
H2B H 0.468(4) 0.571(13) 0.197(18)
O3E O 0.1777(7) 0.5000 0.272(3)
Cu1B Cu 0.2500 0.7500 0.5000
O1E O 0.1815(3) 0.1904(11) 0.7921(14)
O2_2 O 0.2755(5) 0.5000 0.745(2)
O2E O 0.2245(5) 0.0000 0.255(2)
Cu1_2 Cu 0.2500 0.2500 -0.5000
Cu1B_2 Cu 0.2500 0.7500 -0.5000
Cu1B_3 Cu 0.2500 -0.2500 0.5000
Cu1A Cu 0.7500 0.7500 -0.5000
Cu1C Cu 0.7500 0.2500 -0.5000
Cu1A_2 Cu 0.7500 0.7500 0.5000
Cu1C_2 Cu 0.7500 0.2500 0.5000
O1G O 0.1815(3) 0.8096(11) 0.7921(14)
O2E_2 O 0.2245(5) 1.0000 0.255(2)
O3_2 O 0.3223(7) 1.0000 0.728(3)
O4 O 0.427(2) 0.0000 0.351(15)
loop_
_geom_bond_atom_site_label_1
_geom_bond_atom_site_label_2
_geom_bond_site_symmetry_1
_geom_bond_site_symmetry_2
Cu1 O1 1_555 1_555
P1 O1 1_555 1_555
O2 P1 1_555 1_555
O3 Cu1 1_555 1_555
C1 P1 1_555 1_555
H1 C1 1_555 1_555
C2 C1 1_555 1_555
H2 C2 1_555 1_555
O1B P1 1_555 1_555
H1B C1 1_555 1_555
C2D C2 1_555 1_555
C1D C2D 1_555 1_555
P1D C1D 1_555 1_555
O1D P1D 1_555 1_555
O1F P1D 1_555 1_555
O2D P1D 1_555 1_555
H1D C1D 1_555 1_555
H1F C1D 1_555 1_555
H2D C2D 1_555 1_555
H2F C2D 1_555 1_555
H2B C2 1_555 1_555
O3E Cu1 1_555 1_555
Cu1B O1B 1_555 1_555
O1E Cu1 1_555 1_555
O2_2 Cu1 1_555 1_555
O2E Cu1 1_555 1_555
Cu1_2 O2 1_555 1_555
Cu1B_2 O2 1_555 1_555
Cu1B_3 O3 1_555 1_555
Cu1A O1D 1_555 1_555
Cu1C O1F 1_555 1_555
Cu1A_2 O2D 1_555 1_555
Cu1C_2 O2D 1_555 1_555
O1G Cu1B 1_555 1_555
O2E_2 Cu1B 1_555 1_555
O3_2 Cu1B 1_555 1_555
O3E Cu1B 1_555 1_555
Cu1B O2_2 1_555 1_555
O2E Cu1B_3 1_555 1_555

#END
