
#######################################################################
#
#                 Cambridge Crystallographic Data Centre
#                                CCDC 
#
#######################################################################
#
# If this CIF has been generated from an entry in the Cambridge 
# Structural Database, then it will include bibliographic, chemical, 
# crystal, experimental, refinement or atomic coordinate data resulting 
# from the CCDC's data processing and validation procedures.
#
#######################################################################

data_ONEJUN
_chemical_formula_moiety         '(C44 H42 Cu7 N16 O125 P4 W36 4-)n'
_symmetry_cell_setting           rhombohedral
_symmetry_space_group_name_H-M   'R 3 2'
_symmetry_Int_Tables_number      155
_space_group_name_Hall           'R 3 2"'
loop_
_symmetry_equiv_pos_site_id
_symmetry_equiv_pos_as_xyz
1 x,y,z
2 -y,x-y,z
3 -x+y,-x,z
4 x-y,-y,-z
5 -x,-x+y,-z
6 y,x,-z
7 2/3+x,1/3+y,1/3+z
8 2/3-y,1/3+x-y,1/3+z
9 2/3-x+y,1/3-x,1/3+z
10 2/3+x-y,1/3-y,1/3-z
11 2/3-x,1/3-x+y,1/3-z
12 2/3+y,1/3+x,1/3-z
13 1/3+x,2/3+y,2/3+z
14 1/3-y,2/3+x-y,2/3+z
15 1/3-x+y,2/3-x,2/3+z
16 1/3+x-y,2/3-y,2/3-z
17 1/3-x,2/3-x+y,2/3-z
18 1/3+y,2/3+x,2/3-z
_cell_length_a                   21.4551(6)
_cell_length_b                   21.4551(6)
_cell_length_c                   34.1708(18)
_cell_angle_alpha                90
_cell_angle_beta                 90
_cell_angle_gamma                120
_cell_volume                     13622.2
loop_
_atom_site_label
_atom_site_type_symbol
_atom_site_fract_x
_atom_site_fract_y
_atom_site_fract_z
Cu1 Cu -0.6667 -0.0584(3) -0.3333
W1 W -0.70663(3) -0.26887(3) 0.067960(14)
W2 W -0.84226(3) -0.48180(3) -0.021750(15)
W3 W -0.70878(3) -0.27122(3) -0.220410(14)
W4 W -0.84279(3) -0.48129(3) -0.131670(14)
W5 W -0.82147(3) -0.31638(3) -0.020310(15)
W6 W -0.82061(3) -0.31553(3) -0.130660(14)
Cu3 Cu -0.84981(14) -0.18314(14) -0.1667
P1 P -0.6667 -0.3333 -0.01772(15)
P2 P -0.6667 -0.3333 -0.13448(15)
N3 N -0.7223(8) -0.0922(7) -0.2865(4)
N4 N -0.7982(6) -0.1488(6) -0.2176(3)
O1 O -0.8532(4) -0.4773(4) -0.0761(2)
O3 O -0.8796(4) -0.4187(4) -0.0131(2)
O4 O -0.8785(5) -0.4166(4) -0.1387(2)
O5 O -0.7739(5) -0.5105(5) -0.1213(2)
O6 O -0.7458(4) -0.3643(4) -0.1213(2)
O7 O -0.8348(4) -0.3281(4) -0.0760(2)
O8 O -0.7451(4) -0.3647(4) -0.0310(2)
O9 O -0.6667 -0.3333 0.0282(3)
O10 O -0.7856(5) -0.3068(4) 0.0316(2)
O11 O -0.7496(4) -0.3674(5) -0.2418(2)
O12 O -0.7730(5) -0.5112(5) -0.0307(2)
O13 O -0.7846(5) -0.3062(4) -0.1842(2)
O14 O -0.6571(5) -0.1946(5) 0.0312(2)
O15 O -0.7364(5) -0.2339(5) -0.2556(2)
O16 O -0.7324(5) -0.2297(5) 0.1024(2)
O17 O -0.7483(4) -0.3651(5) 0.0905(2)
O18 O -0.8829(5) -0.2885(4) -0.1415(3)
O19 O -0.8063(4) -0.4627(4) -0.1845(2)
O20 O -0.6667 -0.3333 -0.1803(3)
O21 O -0.9202(5) -0.5609(5) -0.1403(3)
O22 O -0.8837(5) -0.2912(5) -0.0117(3)
O23 O -0.9166(5) -0.5613(5) -0.0126(3)
C9 C -0.6918(10) -0.0744(8) -0.2514(5)
H9 H -0.6425 -0.0426 -0.2500
C10 C -0.7911(11) -0.1371(12) -0.2871(5)
H10 H -0.8153 -0.1500 -0.3109
C11 C -0.7285(9) -0.1002(8) -0.2178(5)
H11 H -0.7045 -0.0835 -0.1941
C12 C -0.8284(8) -0.1657(9) -0.2530(4)
H12 H -0.8774 -0.1988 -0.2547
Cu1Q Cu -0.7251(3) -0.0000 -0.0000
Cu1M Cu -0.6083(3) 0.0584(3) -0.6666
W1A W -0.73113(3) -0.43776(4) 0.067960(14)
W1B W -0.56224(4) -0.29337(3) 0.067960(14)
W1Q W -0.93554(3) -0.03996(3) -0.401293(14)
W1O W -1.10443(4) -0.06446(3) -0.401293(14)
W1P W -0.96004(3) 0.10443(4) -0.401293(14)
W2A W -0.51820(3) -0.36046(4) -0.021750(15)
W2B W -0.63954(4) -0.15774(3) -0.021750(15)
W2Q W -1.14847(3) -0.17559(3) -0.311583(15)
W2O W -1.02713(4) 0.14847(3) -0.311583(15)
W2P W -0.82441(3) 0.02713(4) -0.311583(15)
W3A W -0.72878(3) -0.43756(4) -0.220410(14)
W3B W -0.56244(4) -0.29122(3) -0.220410(14)
W3Q W -0.93789(3) -0.04211(3) -0.112923(14)
W3O W -1.10423(4) -0.06211(3) -0.112923(14)
W3P W -0.95789(3) 0.10423(4) -0.112923(14)
W4A W -0.51871(3) -0.36150(4) -0.131670(14)
W4B W -0.63850(4) -0.15721(3) -0.131670(14)
W4Q W -1.14796(3) -0.17612(3) -0.201663(14)
W4O W -1.02817(4) 0.14796(3) -0.201663(14)
W4P W -0.82388(3) 0.02817(4) -0.201663(14)
W5A W -0.68362(3) -0.50509(4) -0.020310(15)
W5B W -0.49491(4) -0.17853(3) -0.020310(15)
W5Q W -0.98305(3) -0.15480(3) -0.313023(15)
W5O W -1.17176(4) -0.01695(3) -0.313023(15)
W5P W -0.84520(3) 0.17176(4) -0.313023(15)
W6A W -0.68447(3) -0.50508(4) -0.130660(14)
W6B W -0.49492(4) -0.17939(3) -0.130660(14)
W6Q W -0.98220(3) -0.15394(3) -0.202673(14)
W6O W -1.17175(4) -0.01780(3) -0.202673(14)
W6P W -0.84606(3) 0.17175(4) -0.202673(14)
Cu3J Cu -0.48352(14) 0.00000(20) -0.5000
Cu3A Cu -0.81686(14) -0.66667(20) -0.1667
Cu3B Cu -0.33333(20) -0.15019(14) -0.1667
Cu3O Cu -1.33334(20) -0.15019(14) -0.1666
Cu3P Cu -0.81686(14) 0.33334(20) -0.1666
Cu3H Cu -0.66666(20) 0.18314(14) 0.1666
Cu3C Cu -0.66667(20) 0.18314(14) -0.8333
P1Q P -1.0000 -0.0000 -0.31561(15)
P2Q P -1.0000 -0.0000 -0.19885(15)
N3J N -0.6110(8) -0.0366(11) -0.3802(4)
N3Q N -0.7589(7) -0.0556(8) -0.0468(4)
N3M N -0.5745(7) 0.0366(11) -0.6198(4)
N3H N -0.7032(11) 0.0556(8) 0.0468(4)
N3C N -0.6301(11) 0.0922(7) -0.7135(4)
N4J N -0.5351(6) -0.0173(8) -0.4491(3)
N4Q N -0.8155(6) -0.1315(6) -0.1157(3)
N4M N -0.5179(6) 0.0173(8) -0.5509(3)
N4H N -0.6839(8) 0.1315(6) 0.1157(3)
N4C N -0.6494(8) 0.1488(6) -0.7824(3)
N4B N -0.3506(8) -0.2018(6) -0.2176(3)
N4O N -0.3161(8) -0.1845(6) -0.1157(3)
O1A O -0.5227(4) -0.3759(6) -0.0761(2)
O1B O -0.6241(6) -0.1468(4) -0.0761(2)
O1Q O -1.1440(4) -0.1865(4) -0.2572(2)
O1O O -1.0426(6) 0.1440(4) -0.2572(2)
O1P O -0.8135(4) 0.0426(6) -0.2572(2)
O3A O -0.5813(4) -0.4609(6) -0.0131(2)
O3B O -0.5391(6) -0.1204(4) -0.0131(2)
O3Q O -1.0854(4) -0.2129(4) -0.3202(2)
O3O O -1.1276(6) 0.0854(4) -0.3202(2)
O3P O -0.7871(4) 0.1276(6) -0.3202(2)
O4A O -0.5834(4) -0.4619(6) -0.1387(2)
O4B O -0.5381(6) -0.1215(5) -0.1387(2)
O4Q O -1.0833(4) -0.2118(5) -0.1946(2)
O4O O -1.1286(6) 0.0833(4) -0.1946(2)
O4P O -0.7882(5) 0.1286(6) -0.1946(2)
O5B O -0.7366(7) -0.2261(5) -0.1213(2)
O5A O -0.4895(5) -0.2634(7) -0.1213(2)
O5Q O -1.1772(5) -0.1072(5) -0.2120(2)
O5P O -0.8928(5) -0.0699(7) -0.2120(2)
O5O O -0.9301(7) 0.1772(5) -0.2120(2)
O6B O -0.6185(6) -0.2542(4) -0.1213(2)
O6A O -0.6357(4) -0.3815(6) -0.1213(2)
O6Q O -1.0310(4) -0.0791(4) -0.2120(2)
O6P O -0.9209(4) 0.0482(6) -0.2120(2)
O6O O -1.0482(6) 0.0310(4) -0.2120(2)
O7B O -0.4933(6) -0.1652(4) -0.0760(2)
O7A O -0.6719(4) -0.5067(6) -0.0760(2)
O7Q O -0.9948(4) -0.1681(4) -0.2573(2)
O7P O -0.8319(4) 0.1734(6) -0.2573(2)
O7O O -1.1734(6) -0.0052(4) -0.2573(2)
O8B O -0.6196(6) -0.2549(4) -0.0310(2)
O8A O -0.6353(4) -0.3804(6) -0.0310(2)
O8Q O -1.0314(4) -0.0784(4) -0.3023(2)
O8P O -0.9216(4) 0.0471(6) -0.3023(2)
O8O O -1.0471(6) 0.0314(4) -0.3023(2)
O9Q O -1.0000 -0.0000 -0.3615(3)
O10A O -0.6932(4) -0.4788(6) 0.0316(2)
O10B O -0.5212(6) -0.2144(5) 0.0316(2)
O10Q O -0.9735(4) -0.1189(5) -0.3649(2)
O10O O -1.1455(6) -0.0265(4) -0.3649(2)
O10P O -0.8811(5) 0.1455(6) -0.3649(2)
O11A O -0.6326(5) -0.3822(6) -0.2418(2)
O11B O -0.6178(6) -0.2504(4) -0.2418(2)
O11Q O -1.0341(5) -0.0829(4) -0.0915(2)
O11O O -1.0489(6) 0.0341(5) -0.0915(2)
O11P O -0.9171(4) 0.0489(6) -0.0915(2)
O12B O -0.7382(7) -0.2270(5) -0.0307(2)
O12A O -0.4888(5) -0.2618(7) -0.0307(2)
O12Q O -1.1779(5) -0.1063(5) -0.3026(2)
O12P O -0.8937(5) -0.0715(7) -0.3026(2)
O12O O -0.9285(7) 0.1779(5) -0.3026(2)
O13A O -0.6938(4) -0.4784(6) -0.1842(2)
O13B O -0.5216(6) -0.2154(5) -0.1842(2)
O13Q O -0.9729(4) -0.1179(5) -0.1491(2)
O13O O -1.1451(6) -0.0271(4) -0.1491(2)
O13P O -0.8821(5) 0.1451(6) -0.1491(2)
O14B O -0.5375(7) -0.3429(5) 0.0312(2)
O14A O -0.8054(5) -0.4625(7) 0.0312(2)
O14Q O -0.8613(5) 0.0096(5) -0.3645(2)
O14P O -1.0096(5) 0.1292(7) -0.3645(2)
O14O O -1.1292(7) -0.1387(5) -0.3645(2)
O15A O -0.7661(5) -0.5025(7) -0.2556(2)
O15B O -0.4975(7) -0.2636(5) -0.2556(2)
O15Q O -0.9006(5) -0.0697(5) -0.0777(2)
O15O O -1.1692(7) -0.0994(5) -0.0777(2)
O15P O -0.9303(5) 0.1692(7) -0.0777(2)
O16B O -0.4973(7) -0.2676(5) 0.1024(2)
O16A O -0.7703(5) -0.5027(7) 0.1024(2)
O16Q O -0.8964(5) -0.0657(5) -0.4357(2)
O16P O -0.9343(5) 0.1694(7) -0.4357(2)
O16O O -1.1694(7) -0.1036(5) -0.4357(2)
O17B O -0.6168(6) -0.2517(4) 0.0905(2)
O17A O -0.6349(5) -0.3832(6) 0.0905(2)
O17Q O -1.0318(5) -0.0816(4) -0.4238(2)
O17P O -0.9184(4) 0.0499(6) -0.4238(2)
O17O O -1.0499(6) 0.0318(5) -0.4238(2)
O18A O -0.7115(4) -0.5944(6) -0.1415(3)
O18B O -0.4056(6) -0.1171(5) -0.1415(3)
O18Q O -0.9552(4) -0.2162(5) -0.1918(3)
O18O O -1.2611(6) -0.0448(4) -0.1918(3)
O18P O -0.7838(5) 0.2611(6) -0.1918(3)
O18J O -0.4504(5) -0.0723(6) -0.5252(3)
O18M O -0.3782(4) 0.0723(6) -0.4748(3)
O18O_2 O -0.2611(6) -0.0448(4) -0.1918(3)
O19B O -0.6564(6) -0.1937(4) -0.1845(2)
O19A O -0.5373(4) -0.3436(6) -0.1845(2)
O19Q O -1.1294(4) -0.1396(4) -0.1488(2)
O19P O -0.8604(4) 0.0103(6) -0.1488(2)
O19O O -1.0103(6) 0.1294(4) -0.1488(2)
O20Q O -1.0000 -0.0000 -0.1530(3)
O21B O -0.6407(7) -0.0798(5) -0.1403(3)
O21A O -0.4391(5) -0.3593(7) -0.1403(3)
O21Q O -1.2276(5) -0.2535(5) -0.1930(3)
O21P O -0.7465(5) 0.0260(7) -0.1930(3)
O21O O -1.0260(7) 0.2276(5) -0.1930(3)
O22A O -0.7088(5) -0.5925(7) -0.0117(3)
O22B O -0.4075(7) -0.1163(5) -0.0117(3)
O22Q O -0.9579(5) -0.2170(5) -0.3216(3)
O22O O -1.2592(7) -0.0421(5) -0.3216(3)
O22P O -0.7830(5) 0.2592(7) -0.3216(3)
O23A O -0.4387(5) -0.3553(7) -0.0126(3)
O23B O -0.6447(7) -0.0834(5) -0.0126(3)
O23Q O -1.2280(5) -0.2499(5) -0.3207(3)
O23O O -1.0220(7) 0.2280(5) -0.3207(3)
O23P O -0.7501(5) 0.0220(7) -0.3207(3)
C9J C -0.6415(10) -0.0493(13) -0.4153(5)
C9Q C -0.7411(8) -0.0251(10) -0.0819(5)
C9M C -0.5923(8) 0.0493(13) -0.5847(5)
C9H C -0.7159(13) 0.0251(10) 0.0819(5)
C9C C -0.6174(13) 0.0744(8) -0.7486(5)
H9J H -0.6908 -0.0668 -0.4167
H9Q H -0.7093 0.0242 -0.0833
H9M H -0.6241 0.0668 -0.5833
H9H H -0.7334 -0.0242 0.0833
H9C H -0.5999 0.0426 -0.7500
C10J C -0.5422(11) -0.0127(16) -0.3796(5)
C10Q C -0.8038(12) -0.1244(11) -0.0462(5)
C10M C -0.5296(12) 0.0127(16) -0.6204(5)
C10H C -0.6793(16) 0.1244(11) 0.0462(5)
C10C C -0.6540(16) 0.1371(12) -0.7129(5)
H10J H -0.5180 -0.0014 -0.3558
H10Q H -0.8167 -0.1486 -0.0224
H10M H -0.5167 0.0014 -0.6442
H10H H -0.6680 0.1486 0.0224
H10C H -0.6653 0.1500 -0.6891
C11J C -0.6048(9) -0.0384(12) -0.4489(5)
C11Q C -0.7669(8) -0.0618(9) -0.1155(5)
C11M C -0.5665(8) 0.0384(12) -0.5511(5)
C11H C -0.7050(12) 0.0618(9) 0.1155(5)
C11C C -0.6283(12) 0.1002(8) -0.7822(5)
H11J H -0.6288 -0.0457 -0.4726
H11Q H -0.7502 -0.0378 -0.1392
H11M H -0.5832 0.0457 -0.5274
H11H H -0.7123 0.0378 0.1392
H11C H -0.6210 0.0835 -0.8059
C12J C -0.5049(8) -0.0040(12) -0.4137(4)
C12Q C -0.8324(9) -0.1617(8) -0.0803(4)
C12M C -0.5010(9) 0.0040(12) -0.5863(4)
C12H C -0.6706(12) 0.1617(8) 0.0803(4)
C12C C -0.6627(12) 0.1657(9) -0.7470(4)
H12J H -0.4559 0.0119 -0.4120
H12Q H -0.8655 -0.2107 -0.0786
H12M H -0.4679 -0.0119 -0.5880
H12H H -0.6547 0.2107 0.0786
H12C H -0.6786 0.1988 -0.7453
Cu2 Cu -0.20777(15) 0.0000 -0.5000
N1 N -0.2381(9) 0.0495(10) -0.5416(4)
N2 N -0.2461(8) -0.0755(10) -0.5384(5)
O2 O -0.1106(7) 0.0000 -0.5000
C1 C -0.3003(14) -0.1675(15) -0.5965(7)
H1 H -0.3173 -0.1987 -0.6177
C2 C -0.3052(12) -0.1126(13) -0.6007(7)
H2 H -0.3273 -0.1058 -0.6223
C3 C -0.2980(15) 0.0933(15) -0.5992(8)
H3 H -0.3126 0.1108 -0.6201
C4 C -0.2331(13) 0.1146(16) -0.5409(7)
H4 H -0.2064 0.1463 -0.5209
C5 C -0.2653(16) 0.1366(16) -0.5678(7)
H5 H -0.2649 0.1799 -0.5647
C6 C -0.2753(11) -0.1904(12) -0.5670(9)
H6 H -0.2760 -0.2341 -0.5668
C7 C -0.2468(13) -0.1377(14) -0.5354(6)
H7 H -0.2289 -0.1477 -0.5130
C8 C -0.3090(11) 0.0289(13) -0.6005(6)
H8 H -0.3392 -0.0029 -0.6195
C13 C -0.2764(9) -0.0638(15) -0.5719(6)
C14 C -0.2737(10) 0.0050(15) -0.5719(5)
N1C N -0.2876(13) -0.0495(10) -0.4584(4)
N2C N -0.1706(13) 0.0755(10) -0.4616(5)
C1C C -0.1328(21) 0.1675(15) -0.4035(7)
H1C H -0.1186 0.1987 -0.3823
C2C C -0.1926(18) 0.1126(13) -0.3993(7)
H2C H -0.2215 0.1058 -0.3777
C3C C -0.3913(21) -0.0933(15) -0.4008(8)
H3C H -0.4234 -0.1108 -0.3799
C4C C -0.3477(21) -0.1146(16) -0.4591(7)
H4C H -0.3527 -0.1463 -0.4791
C5C C -0.4019(23) -0.1366(16) -0.4322(7)
H5C H -0.4448 -0.1799 -0.4353
C6C C -0.0849(16) 0.1904(12) -0.4330(9)
H6C H -0.0419 0.2341 -0.4332
C7C C -0.1091(19) 0.1377(14) -0.4646(6)
H7C H -0.0812 0.1477 -0.4870
C8C C -0.3379(17) -0.0289(13) -0.3995(6)
H8C H -0.3363 0.0029 -0.3805
C13C C -0.2126(17) 0.0638(15) -0.4281(6)
C14C C -0.2787(18) -0.0050(15) -0.4281(5)
loop_
_geom_bond_atom_site_label_1
_geom_bond_atom_site_label_2
_geom_bond_site_symmetry_1
_geom_bond_site_symmetry_2
Cu1 N3 1_555 1_555
W1 O9 1_555 1_555
W2 O1 1_555 1_555
W3 O11 1_555 1_555
W4 O1 1_555 1_555
W5 O3 1_555 1_555
W6 O4 1_555 1_555
Cu2 N1 1_555 1_555
Cu3 N4 1_555 1_555
P1 O8 1_555 1_555
P2 O6 1_555 1_555
N1 C4 1_555 1_555
N2 Cu2 1_555 1_555
N3 C9 1_555 1_555
N4 C11 1_555 1_555
O2 Cu2 1_555 1_555
O3 W2 1_555 1_555
O4 W4 1_555 1_555
O5 W4 1_555 1_555
O6 W4 1_555 1_555
O7 W5 1_555 1_555
O8 W2 1_555 1_555
O9 P1 1_555 1_555
O10 W1 1_555 1_555
O11 W3A 1_555 1_555
O12 W2 1_555 1_555
O13 W3 1_555 1_555
O14 W1 1_555 1_555
O15 W3 1_555 1_555
O16 W1 1_555 1_555
O17 W1 1_555 1_555
O18 W6 1_555 1_555
O19 W4 1_555 1_555
O20 W3 1_555 1_555
O21 W4 1_555 1_555
O22 W5 1_555 1_555
O23 W2 1_555 1_555
C1 H1 1_555 1_555
C2 C1 1_555 1_555
H2 C2 1_555 1_555
C3 H3 1_555 1_555
C4 H4 1_555 1_555
C5 C3 1_555 1_555
H5 C5 1_555 1_555
C6 C1 1_555 1_555
H6 C6 1_555 1_555
C7 N2 1_555 1_555
H7 C7 1_555 1_555
C8 C3 1_555 1_555
H8 C8 1_555 1_555
C9 H9 1_555 1_555
C10 N3 1_555 1_555
H10 C10 1_555 1_555
C11 C9 1_555 1_555
H11 C11 1_555 1_555
C12 N4 1_555 1_555
H12 C12 1_555 1_555
C13 N2 1_555 1_555
C14 N1 1_555 1_555
Cu1Q N3Q 1_555 1_555
Cu1M N3M 1_555 1_555
W1A O9 1_555 1_555
W1B O9 1_555 1_555
W1Q O9Q 1_555 1_555
W1O O9Q 1_555 1_555
W1P O9Q 1_555 1_555
W2A O1A 1_555 1_555
W2B O14 1_555 1_555
W2Q O1Q 1_555 1_555
W2O O1O 1_555 1_555
W2P O1P 1_555 1_555
W3A O19 1_555 1_555
W3B O20 1_555 1_555
W3Q O11Q 1_555 1_555
W3O O11Q 1_555 1_555
W3P O11O 1_555 1_555
W4A O1A 1_555 1_555
W4B O1B 1_555 1_555
W4Q O1Q 1_555 1_555
W4O O1O 1_555 1_555
W4P O1P 1_555 1_555
W5A O12 1_555 1_555
W5B O3B 1_555 1_555
W5Q O3Q 1_555 1_555
W5O O3O 1_555 1_555
W5P O3P 1_555 1_555
W6A O5 1_555 1_555
W6B O4B 1_555 1_555
W6Q O4Q 1_555 1_555
W6O O4O 1_555 1_555
W6P O4P 1_555 1_555
Cu3J N4J 1_555 1_555
Cu3A O18A 1_555 1_555
Cu3B N4B 1_555 1_555
Cu3O O18O 1_555 1_555
Cu3P O18P 1_555 1_555
Cu3H N4H 1_555 1_555
Cu3C N4C 1_555 1_555
P1Q O8Q 1_555 1_555
P2Q O6Q 1_555 1_555
N1C Cu2 1_555 1_555
N2C Cu2 1_555 1_555
N3J Cu1 1_555 1_555
N3Q C9Q 1_555 1_555
N3M C9M 1_555 1_555
N3H Cu1Q 1_555 1_555
N3C Cu1M 1_555 1_555
N4J C11J 1_555 1_555
N4Q Cu3 1_555 1_555
N4M Cu3J 1_555 1_555
N4H C11H 1_555 1_555
N4C C11C 1_555 1_555
N4O Cu3B 1_555 1_555
O1B W2B 1_555 1_555
O3A W2A 1_555 1_555
O3B W2B 1_555 1_555
O3Q W2Q 1_555 1_555
O3O W2O 1_555 1_555
O3P W2P 1_555 1_555
O4A W4A 1_555 1_555
O4B W4B 1_555 1_555
O4Q W4Q 1_555 1_555
O4O W4O 1_555 1_555
O4P W4P 1_555 1_555
O5B W6 1_555 1_555
O5A W4A 1_555 1_555
O5Q W4Q 1_555 1_555
O5P W4P 1_555 1_555
O5O W4O 1_555 1_555
O6B P2 1_555 1_555
O6A P2 1_555 1_555
O6Q W4Q 1_555 1_555
O6P W4P 1_555 1_555
O6O W4O 1_555 1_555
O7B W5B 1_555 1_555
O7A W5A 1_555 1_555
O7Q W5Q 1_555 1_555
O7P W5P 1_555 1_555
O7O W5O 1_555 1_555
O8B P1 1_555 1_555
O8A P1 1_555 1_555
O8Q W2Q 1_555 1_555
O8P W2P 1_555 1_555
O8O W2O 1_555 1_555
O9Q P1Q 1_555 1_555
O10A W1A 1_555 1_555
O10B W1B 1_555 1_555
O10Q W1Q 1_555 1_555
O10O W1O 1_555 1_555
O10P W1P 1_555 1_555
O11A W3A 1_555 1_555
O11B W3 1_555 1_555
O11O W3O 1_555 1_555
O11P W3Q 1_555 1_555
O12B W5 1_555 1_555
O12A W2A 1_555 1_555
O12Q W2Q 1_555 1_555
O12P W2P 1_555 1_555
O12O W2O 1_555 1_555
O13A W3A 1_555 1_555
O13B W3B 1_555 1_555
O13Q W3Q 1_555 1_555
O13O W3O 1_555 1_555
O13P W3P 1_555 1_555
O14B W1B 1_555 1_555
O14A W2 1_555 1_555
O14Q W1Q 1_555 1_555
O14P W1P 1_555 1_555
O14O W1O 1_555 1_555
O15A W3A 1_555 1_555
O15B W3B 1_555 1_555
O15Q W3Q 1_555 1_555
O15O W3O 1_555 1_555
O15P W3P 1_555 1_555
O16B W1B 1_555 1_555
O16A W1A 1_555 1_555
O16Q W1Q 1_555 1_555
O16P W1P 1_555 1_555
O16O W1O 1_555 1_555
O17B W1 1_555 1_555
O17A W1A 1_555 1_555
O17Q W1Q 1_555 1_555
O17P W1Q 1_555 1_555
O17O W1O 1_555 1_555
O18A W6A 1_555 1_555
O18B W6B 1_555 1_555
O18Q Cu3 1_555 1_555
O18O W6O 1_555 1_555
O18P W6P 1_555 1_555
O18J Cu3J 1_555 1_555
O18M Cu3J 1_555 1_555
O18O_2 Cu3B 1_555 1_555
O19B W3 1_555 1_555
O19A W3B 1_555 1_555
O19Q W3O 1_555 1_555
O19P W3Q 1_555 1_555
O19O W3P 1_555 1_555
O20Q W3Q 1_555 1_555
O21B W4B 1_555 1_555
O21A W4A 1_555 1_555
O21Q W4Q 1_555 1_555
O21P W4P 1_555 1_555
O21O W4O 1_555 1_555
O22A W5A 1_555 1_555
O22B W5B 1_555 1_555
O22Q W5Q 1_555 1_555
O22O W5O 1_555 1_555
O22P W5P 1_555 1_555
O23A W2A 1_555 1_555
O23B W2B 1_555 1_555
O23Q W2Q 1_555 1_555
O23O W2O 1_555 1_555
O23P W2P 1_555 1_555
C1C H1C 1_555 1_555
C2C C1C 1_555 1_555
H2C C2C 1_555 1_555
C3C H3C 1_555 1_555
C4C N1C 1_555 1_555
H4C C4C 1_555 1_555
C5C C3C 1_555 1_555
H5C C5C 1_555 1_555
C6C C1C 1_555 1_555
H6C C6C 1_555 1_555
C7C N2C 1_555 1_555
H7C C7C 1_555 1_555
C8C C3C 1_555 1_555
H8C C8C 1_555 1_555
C9J N3J 1_555 1_555
C9Q H9Q 1_555 1_555
C9M H9M 1_555 1_555
C9H N3H 1_555 1_555
C9C N3C 1_555 1_555
H9J C9J 1_555 1_555
H9H C9H 1_555 1_555
H9C C9C 1_555 1_555
C10J N3J 1_555 1_555
C10Q N3Q 1_555 1_555
C10M N3M 1_555 1_555
C10H N3H 1_555 1_555
C10C N3C 1_555 1_555
H10J C10J 1_555 1_555
H10Q C10Q 1_555 1_555
H10M C10M 1_555 1_555
H10H C10H 1_555 1_555
H10C C10C 1_555 1_555
C11J C9J 1_555 1_555
C11Q N4Q 1_555 1_555
C11M N4M 1_555 1_555
C11H C9H 1_555 1_555
C11C C9C 1_555 1_555
H11J C11J 1_555 1_555
H11Q C11Q 1_555 1_555
H11M C11M 1_555 1_555
H11H C11H 1_555 1_555
H11C C11C 1_555 1_555
C12J N4J 1_555 1_555
C12Q N4Q 1_555 1_555
C12M N4M 1_555 1_555
C12H N4H 1_555 1_555
C12C N4C 1_555 1_555
H12J C12J 1_555 1_555
H12Q C12Q 1_555 1_555
H12M C12M 1_555 1_555
H12H C12H 1_555 1_555
H12C C12C 1_555 1_555
C13C N2C 1_555 1_555
C14C N1C 1_555 1_555
W5 O8 1_555 1_555
W5 O10 1_555 1_555
W6 O6 1_555 1_555
W6 O7 1_555 1_555
W6 O13 1_555 1_555
Cu3 O18 1_555 1_555
P2 O20 1_555 1_555
O17 W1A 1_555 1_555
O20 W3A 1_555 1_555
C2 C13 1_555 1_555
C4 C5 1_555 1_555
C6 C7 1_555 1_555
C8 C14 1_555 1_555
C10 C12 1_555 1_555
C13 C14 1_555 1_555
W1A O14A 1_555 1_555
W1B O17B 1_555 1_555
W1B O17A 1_555 1_555
W1O O17Q 1_555 1_555
W1P O17P 1_555 1_555
W1P O17O 1_555 1_555
W2A O8A 1_555 1_555
W2A O14B 1_555 1_555
W2B O8B 1_555 1_555
W2B O12B 1_555 1_555
W2Q O14O 1_555 1_555
W2O O14P 1_555 1_555
W2P O14Q 1_555 1_555
W3B O11A 1_555 1_555
W3B O11B 1_555 1_555
W3O O20Q 1_555 1_555
W3P O11P 1_555 1_555
W3P O20Q 1_555 1_555
W4A O6A 1_555 1_555
W4A O19A 1_555 1_555
W4B O5B 1_555 1_555
W4B O6B 1_555 1_555
W4B O19B 1_555 1_555
W4Q O19Q 1_555 1_555
W4O O19O 1_555 1_555
W4P O19P 1_555 1_555
W5A O3A 1_555 1_555
W5A O8A 1_555 1_555
W5A O10A 1_555 1_555
W5B O8B 1_555 1_555
W5B O10B 1_555 1_555
W5B O12A 1_555 1_555
W5Q O8Q 1_555 1_555
W5Q O10Q 1_555 1_555
W5Q O12P 1_555 1_555
W5O O8O 1_555 1_555
W5O O10O 1_555 1_555
W5O O12Q 1_555 1_555
W5P O8P 1_555 1_555
W5P O10P 1_555 1_555
W5P O12O 1_555 1_555
W6A O4A 1_555 1_555
W6A O6A 1_555 1_555
W6A O7A 1_555 1_555
W6A O13A 1_555 1_555
W6B O5A 1_555 1_555
W6B O6B 1_555 1_555
W6B O7B 1_555 1_555
W6B O13B 1_555 1_555
W6Q O5P 1_555 1_555
W6Q O6Q 1_555 1_555
W6Q O7Q 1_555 1_555
W6Q O13Q 1_555 1_555
W6Q O18Q 1_555 1_555
W6O O5Q 1_555 1_555
W6O O6O 1_555 1_555
W6O O7O 1_555 1_555
W6O O13O 1_555 1_555
W6P O5O 1_555 1_555
W6P O6P 1_555 1_555
W6P O7P 1_555 1_555
W6P O13P 1_555 1_555
Cu3B O18B 1_555 1_555
P1Q O8P 1_555 1_555
P1Q O8O 1_555 1_555
P2Q O6P 1_555 1_555
P2Q O6O 1_555 1_555
P2Q O20Q 1_555 1_555
C2C C13C 1_555 1_555
C4C C5C 1_555 1_555
C6C C7C 1_555 1_555
C8C C14C 1_555 1_555
C9Q C11Q 1_555 1_555
C9M C11M 1_555 1_555
C10J C12J 1_555 1_555
C10Q C12Q 1_555 1_555
C10M C12M 1_555 1_555
C10H C12H 1_555 1_555
C10C C12C 1_555 1_555
C13C C14C 1_555 1_555

#END
