
#######################################################################
#
#                 Cambridge Crystallographic Data Centre
#                                CCDC 
#
#######################################################################
#
# If this CIF has been generated from an entry in the Cambridge 
# Structural Database, then it will include bibliographic, chemical, 
# crystal, experimental, refinement or atomic coordinate data resulting 
# from the CCDC's data processing and validation procedures.
#
#######################################################################

data_OTOYUT
_chemical_formula_moiety         'C18 H14 Co5 N4 O7'
_symmetry_cell_setting           tetragonal
_symmetry_space_group_name_H-M   'P 42/m n m'
_symmetry_Int_Tables_number      136
_space_group_name_Hall           '-P 4n 2n'
loop_
_symmetry_equiv_pos_site_id
_symmetry_equiv_pos_as_xyz
1 x,y,z
2 1/2+x,1/2-y,1/2-z
3 -x,-y,z
4 1/2-x,1/2+y,1/2-z
5 y,x,-z
6 1/2+y,1/2-x,1/2+z
7 1/2-y,1/2+x,1/2+z
8 -y,-x,-z
9 -x,-y,-z
10 1/2-x,1/2+y,1/2+z
11 x,y,-z
12 1/2+x,1/2-y,1/2+z
13 -y,-x,z
14 1/2-y,1/2+x,1/2-z
15 1/2+y,1/2-x,1/2-z
16 y,x,z
_cell_length_a                   16.5956(9)
_cell_length_b                   16.5956(9)
_cell_length_c                   12.2868(10)
_cell_angle_alpha                90
_cell_angle_beta                 90
_cell_angle_gamma                90
_cell_volume                     3383.96
loop_
_atom_site_label
_atom_site_type_symbol
_atom_site_fract_x
_atom_site_fract_y
_atom_site_fract_z
C1 C 0.42183(11) 0.57817(11) 0.6471(2)
C2 C 0.37451(11) 0.62549(11) 0.7298(2)
C3 C 0.28348(11) 0.71652(11) 0.8735(2)
C4 C 0.1633(3) 0.8367(3) 0.7896(5)
H1 H 0.1223 0.8781 0.7829
H2 H 0.1446 0.7877 0.7548
C5 C 0.17998(10) 0.82002(10) 0.9116(2)
Co1 Co 0.44009(2) 0.44009(2) 0.5000
N1 N 0.14666(14) 0.85334(14) 1.0000
N2 N 0.23392(11) 0.76608(11) 0.9445(2)
O1 O 0.39224(11) 0.51347(10) 0.61531(15)
C6 C 0.2934(4) 0.6050(3) 0.7495(5)
H3 H 0.2708 0.5595 0.7156
C7 C 0.2471(4) 0.6515(3) 0.8186(5)
H4 H 0.1921 0.6399 0.8288
C1G C 0.42183(11) 0.57817(11) 1.3529(2)
C2G C 0.37451(11) 0.62549(11) 1.2702(2)
C3G C 0.28348(11) 0.71652(11) 1.1265(2)
C4G C 0.1633(3) 0.8367(3) 1.2104(5)
H1G H 0.1219 0.8777 1.2171
H2G H 0.2123 0.8554 1.2452
C5G C 0.17998(10) 0.82002(10) 1.0884(2)
N2G N 0.23392(11) 0.76608(11) 1.0555(2)
O1G O 0.48653(10) 0.60776(11) 1.38469(15)
C6G C 0.3950(3) 0.7066(4) 1.2505(5)
H3G H 0.4405 0.7292 1.2844
C7G C 0.3485(3) 0.7529(4) 1.1814(5)
H4G H 0.3601 0.8079 1.1712
H2J H 0.1446 0.7877 1.2452
O1J O 0.39224(11) 0.51347(10) 1.38469(15)
C6J C 0.2934(4) 0.6050(3) 1.2505(5)
H3J H 0.2708 0.5595 1.2844
C7J C 0.2471(4) 0.6515(3) 1.1814(5)
H4J H 0.1921 0.6399 1.1712
H2L H 0.2123 0.8554 0.7548
O1L O 0.48653(10) 0.60776(11) 0.61531(15)
C6L C 0.3950(3) 0.7066(4) 0.7495(5)
H3L H 0.4405 0.7292 0.7156
C7L C 0.3485(3) 0.7529(4) 0.8186(5)
H4L H 0.3601 0.8079 0.8288
Co1_2 Co 0.44009(2) 0.44009(2) 1.5000
Co1B Co 0.55991(2) 0.55991(2) 0.5000
Co1B_2 Co 0.55991(2) 0.55991(2) 1.5000
Co1C Co 0.05991(2) 0.94009(2) 1.0000
N1C N 0.35334(14) 0.35334(14) 0.5000
O1D O 0.51347(10) 0.39224(11) 0.38469(15)
O1J_2 O 0.39224(11) 0.51347(10) 0.38469(15)
O1O O 0.51347(10) 0.39224(11) 0.61531(15)
loop_
_geom_bond_atom_site_label_1
_geom_bond_atom_site_label_2
_geom_bond_site_symmetry_1
_geom_bond_site_symmetry_2
C1 C2 1_555 1_555
C2 C6 1_555 1_555
C3 N2 1_555 1_555
C4 H1 1_555 1_555
H2 C4 1_555 1_555
C5 C4 1_555 1_555
Co1 O1 1_555 1_555
N1 C5 1_555 1_555
N2 C5 1_555 1_555
O1 C1 1_555 1_555
C6 H3 1_555 1_555
C7 C3 1_555 1_555
H4 C7 1_555 1_555
C1G C2G 1_555 1_555
C2G C6G 1_555 1_555
C3G N2G 1_555 1_555
C4G H1G 1_555 1_555
H2G C4G 1_555 1_555
C5G N1 1_555 1_555
N2G N2 1_555 1_555
O1G C1G 1_555 1_555
C6G H3G 1_555 1_555
C7G C3G 1_555 1_555
H4G C7G 1_555 1_555
H2J C4G 1_555 1_555
O1J C1G 1_555 1_555
C6J C2G 1_555 1_555
H3J C6J 1_555 1_555
C7J C3G 1_555 1_555
H4J C7J 1_555 1_555
H2L C4 1_555 1_555
O1L C1 1_555 1_555
C6L C2 1_555 1_555
H3L C6L 1_555 1_555
C7L C3 1_555 1_555
H4L C7L 1_555 1_555
Co1_2 O1J 1_555 1_555
Co1B Co1 1_555 1_555
Co1B_2 O1G 1_555 1_555
Co1C N1 1_555 1_555
N1C Co1 1_555 1_555
O1D Co1 1_555 1_555
O1J_2 Co1 1_555 1_555
O1O Co1 1_555 1_555
C6 C7 1_555 1_555
C4G C5G 1_555 1_555
C5G N2G 1_555 1_555
C6G C7G 1_555 1_555
C6J C7J 1_555 1_555
O1L Co1B 1_555 1_555
C6L C7L 1_555 1_555
Co1_2 Co1B_2 1_555 1_555

#END
