
#######################################################################
#
#                 Cambridge Crystallographic Data Centre
#                                CCDC 
#
#######################################################################
#
# If this CIF has been generated from an entry in the Cambridge 
# Structural Database, then it will include bibliographic, chemical, 
# crystal, experimental, refinement or atomic coordinate data resulting 
# from the CCDC's data processing and validation procedures.
#
#######################################################################

data_OTOZEE
_chemical_formula_moiety         'C18 H8 N4 O7 Zn5'
_symmetry_cell_setting           tetragonal
_symmetry_space_group_name_H-M   'P 42/m n m'
_symmetry_Int_Tables_number      136
_space_group_name_Hall           '-P 4n 2n'
loop_
_symmetry_equiv_pos_site_id
_symmetry_equiv_pos_as_xyz
1 x,y,z
2 1/2+x,1/2-y,1/2-z
3 -x,-y,z
4 1/2-x,1/2+y,1/2-z
5 y,x,-z
6 1/2+y,1/2-x,1/2+z
7 1/2-y,1/2+x,1/2+z
8 -y,-x,-z
9 -x,-y,-z
10 1/2-x,1/2+y,1/2+z
11 x,y,-z
12 1/2+x,1/2-y,1/2+z
13 -y,-x,z
14 1/2-y,1/2+x,1/2-z
15 1/2+y,1/2-x,1/2-z
16 y,x,z
_cell_length_a                   16.8572(10)
_cell_length_b                   16.8572(10)
_cell_length_c                   11.9275(8)
_cell_angle_alpha                90
_cell_angle_beta                 90
_cell_angle_gamma                90
_cell_volume                     3389.38
loop_
_atom_site_label
_atom_site_type_symbol
_atom_site_fract_x
_atom_site_fract_y
_atom_site_fract_z
C1 C 0.42165(18) 0.57835(18) 0.6499(4)
C2 C 0.37392(18) 0.62608(18) 0.7283(3)
C3 C 0.28218(17) 0.71782(17) 0.8706(4)
C4 C 0.1610(5) 0.8390(5) 0.7809(8)
C5 C 0.17999(16) 0.82001(16) 0.9085(3)
Zn1 Zn 0.43701(2) 0.43701(2) 0.5000
N1 N 0.1470(2) 0.8530(2) 1.0000
N2 N 0.23313(16) 0.76687(16) 0.9422(3)
O1 O 0.39380(15) 0.51340(14) 0.6180(2)
C6 C 0.2921(5) 0.6136(5) 0.7321(6)
H1 H 0.2681 0.5743 0.6861
C7 C 0.2462(5) 0.6592(5) 0.8038(6)
H2 H 0.1906 0.6509 0.8078
C1G C 0.42165(18) 0.57835(18) 1.3501(4)
C2G C 0.37392(18) 0.62608(18) 1.2717(3)
C3G C 0.28218(17) 0.71782(17) 1.1294(4)
C4G C 0.1610(5) 0.8390(5) 1.2191(8)
C5G C 0.17999(16) 0.82001(16) 1.0915(3)
N2G N 0.23313(16) 0.76687(16) 1.0578(3)
O1G O 0.48660(14) 0.60620(15) 1.3820(2)
C6G C 0.3864(5) 0.7079(5) 1.2679(6)
H1G H 0.4257 0.7319 1.3139
C7G C 0.3408(5) 0.7538(5) 1.1962(6)
H2G H 0.3491 0.8094 1.1922
O1J O 0.39380(15) 0.51340(14) 1.3820(2)
C6J C 0.2921(5) 0.6136(5) 1.2679(6)
H1J H 0.2681 0.5743 1.3139
C7J C 0.2462(5) 0.6592(5) 1.1962(6)
H2J H 0.1906 0.6509 1.1922
O1L O 0.48660(14) 0.60620(15) 0.6180(2)
C6L C 0.3864(5) 0.7079(5) 0.7321(6)
H1L H 0.4257 0.7319 0.6861
C7L C 0.3408(5) 0.7538(5) 0.8038(6)
H2L H 0.3491 0.8094 0.8078
Zn1_2 Zn 0.43701(2) 0.43701(2) 1.5000
Zn1B Zn 0.56299(2) 0.56299(2) 0.5000
Zn1B_2 Zn 0.56299(2) 0.56299(2) 1.5000
Zn1C Zn 0.06299(2) 0.93701(2) 1.0000
N1C N 0.3530(2) 0.3530(2) 0.5000
O1D O 0.51340(14) 0.39380(15) 0.3820(2)
O1J_2 O 0.39380(15) 0.51340(14) 0.3820(2)
O1O O 0.51340(14) 0.39380(15) 0.6180(2)
loop_
_geom_bond_atom_site_label_1
_geom_bond_atom_site_label_2
_geom_bond_site_symmetry_1
_geom_bond_site_symmetry_2
C1 C2 1_555 1_555
C2 C6 1_555 1_555
C3 N2 1_555 1_555
C4 C5 1_555 1_555
C5 N1 1_555 1_555
Zn1 O1 1_555 1_555
N1 C5G 1_555 1_555
N2 C5 1_555 1_555
O1 C1 1_555 1_555
C6 H1 1_555 1_555
C7 C3 1_555 1_555
H2 C7 1_555 1_555
C1G C2G 1_555 1_555
C2G C6G 1_555 1_555
C3G N2G 1_555 1_555
C4G C5G 1_555 1_555
C5G N2G 1_555 1_555
N2G N2 1_555 1_555
O1G C1G 1_555 1_555
C6G H1G 1_555 1_555
C7G C3G 1_555 1_555
H2G C7G 1_555 1_555
O1J C1G 1_555 1_555
C6J C2G 1_555 1_555
H1J C6J 1_555 1_555
C7J C3G 1_555 1_555
H2J C7J 1_555 1_555
O1L C1 1_555 1_555
C6L C2 1_555 1_555
H1L C6L 1_555 1_555
C7L C3 1_555 1_555
H2L C7L 1_555 1_555
Zn1_2 O1J 1_555 1_555
Zn1B O1L 1_555 1_555
Zn1B_2 O1G 1_555 1_555
Zn1C N1 1_555 1_555
N1C Zn1 1_555 1_555
O1D Zn1 1_555 1_555
O1J_2 Zn1 1_555 1_555
O1O Zn1 1_555 1_555
C6 C7 1_555 1_555
C6G C7G 1_555 1_555
C6J C7J 1_555 1_555
C6L C7L 1_555 1_555

#END
