
#######################################################################
#
#                 Cambridge Crystallographic Data Centre
#                                CCDC 
#
#######################################################################
#
# If this CIF has been generated from an entry in the Cambridge 
# Structural Database, then it will include bibliographic, chemical, 
# crystal, experimental, refinement or atomic coordinate data resulting 
# from the CCDC's data processing and validation procedures.
#
#######################################################################

data_OTOZAA
_chemical_formula_moiety         'C18 H14 Cu5 N4 O7'
_symmetry_cell_setting           tetragonal
_symmetry_space_group_name_H-M   'P 42/m n m'
_symmetry_Int_Tables_number      136
_space_group_name_Hall           '-P 4n 2n'
loop_
_symmetry_equiv_pos_site_id
_symmetry_equiv_pos_as_xyz
1 x,y,z
2 1/2+x,1/2-y,1/2-z
3 -x,-y,z
4 1/2-x,1/2+y,1/2-z
5 y,x,-z
6 1/2+y,1/2-x,1/2+z
7 1/2-y,1/2+x,1/2+z
8 -y,-x,-z
9 -x,-y,-z
10 1/2-x,1/2+y,1/2+z
11 x,y,-z
12 1/2+x,1/2-y,1/2+z
13 -y,-x,z
14 1/2-y,1/2+x,1/2-z
15 1/2+y,1/2-x,1/2-z
16 y,x,z
_cell_length_a                   16.6446(16)
_cell_length_b                   16.6446(16)
_cell_length_c                   11.9628(12)
_cell_angle_alpha                90
_cell_angle_beta                 90
_cell_angle_gamma                90
_cell_volume                     3314.21
loop_
_atom_site_label
_atom_site_type_symbol
_atom_site_fract_x
_atom_site_fract_y
_atom_site_fract_z
C1 C 0.42280(16) 0.57720(16) 0.6464(4)
C2 C 0.37441(17) 0.62559(17) 0.7278(4)
C3 C 0.28298(17) 0.71702(17) 0.8708(4)
C4 C 0.1580(4) 0.8420(4) 0.7764(9)
H1 H 0.1910 0.8092 0.7277
H2 H 0.1688 0.8984 0.7622
C5 C 0.17941(15) 0.82059(15) 0.9104(4)
Cu1 Cu 0.44377(2) 0.44377(2) 0.5000
N1 N 0.1467(2) 0.8533(2) 1.0000
N2 N 0.23314(15) 0.76686(15) 0.9431(4)
O1 O 0.39389(13) 0.51183(13) 0.6147(2)
C6 C 0.3187(4) 0.5912(5) 0.7922(7)
H3 H 0.3099 0.5354 0.7883
C7 C 0.2737(5) 0.6380(5) 0.8651(8)
H4 H 0.2357 0.6130 0.9117
C1G C 0.42280(16) 0.57720(16) 1.3536(4)
C2G C 0.37441(17) 0.62559(17) 1.2722(4)
C3G C 0.28298(17) 0.71702(17) 1.1292(4)
C4G C 0.1580(4) 0.8420(4) 1.2236(9)
H1G H 0.1908 0.8090 1.2723
H2G H 0.1016 0.8312 1.2378
C5G C 0.17941(15) 0.82059(15) 1.0896(4)
N2G N 0.23314(15) 0.76686(15) 1.0569(4)
O1G O 0.48817(13) 0.60611(13) 1.3853(2)
C6G C 0.4088(5) 0.6813(4) 1.2078(7)
H3G H 0.4646 0.6901 1.2117
C7G C 0.3620(5) 0.7263(5) 1.1349(8)
H4G H 0.3870 0.7643 1.0883
H2J H 0.1688 0.8984 1.2378
O1J O 0.39389(13) 0.51183(13) 1.3853(2)
C6J C 0.3187(4) 0.5912(5) 1.2078(7)
H3J H 0.3099 0.5354 1.2117
C7J C 0.2737(5) 0.6380(5) 1.1349(8)
H4J H 0.2357 0.6130 1.0883
H2L H 0.1016 0.8312 0.7622
O1L O 0.48817(13) 0.60611(13) 0.6147(2)
C6L C 0.4088(5) 0.6813(4) 0.7922(7)
H3L H 0.4646 0.6901 0.7883
C7L C 0.3620(5) 0.7263(5) 0.8651(8)
H4L H 0.3870 0.7643 0.9117
Cu1_2 Cu 0.44377(2) 0.44377(2) 1.5000
Cu1B Cu 0.55623(2) 0.55623(2) 0.5000
Cu1B_2 Cu 0.55623(2) 0.55623(2) 1.5000
Cu1C Cu 0.05623(2) 0.94377(2) 1.0000
N1C N 0.3533(2) 0.3533(2) 0.5000
O1D O 0.51183(13) 0.39389(13) 0.3853(2)
O1J_2 O 0.39389(13) 0.51183(13) 0.3853(2)
O1O O 0.51183(13) 0.39389(13) 0.6147(2)
loop_
_geom_bond_atom_site_label_1
_geom_bond_atom_site_label_2
_geom_bond_site_symmetry_1
_geom_bond_site_symmetry_2
C1 C2 1_555 1_555
C2 C6 1_555 1_555
C3 N2 1_555 1_555
C4 H1 1_555 1_555
H2 C4 1_555 1_555
C5 C4 1_555 1_555
Cu1 O1 1_555 1_555
N1 C5 1_555 1_555
N2 C5 1_555 1_555
O1 C1 1_555 1_555
C6 H3 1_555 1_555
C7 C3 1_555 1_555
H4 C7 1_555 1_555
C1G C2G 1_555 1_555
C2G C6G 1_555 1_555
C3G N2G 1_555 1_555
C4G H1G 1_555 1_555
H2G C4G 1_555 1_555
C5G N1 1_555 1_555
N2G N2 1_555 1_555
O1G C1G 1_555 1_555
C6G H3G 1_555 1_555
C7G C3G 1_555 1_555
H4G C7G 1_555 1_555
H2J C4G 1_555 1_555
O1J C1G 1_555 1_555
C6J C2G 1_555 1_555
H3J C6J 1_555 1_555
C7J C3G 1_555 1_555
H4J C7J 1_555 1_555
H2L C4 1_555 1_555
O1L C1 1_555 1_555
C6L C2 1_555 1_555
H3L C6L 1_555 1_555
C7L C3 1_555 1_555
H4L C7L 1_555 1_555
Cu1_2 O1J 1_555 1_555
Cu1B Cu1 1_555 1_555
Cu1B_2 O1G 1_555 1_555
Cu1C N1 1_555 1_555
N1C Cu1 1_555 1_555
O1D Cu1 1_555 1_555
O1J_2 Cu1 1_555 1_555
O1O Cu1 1_555 1_555
C6 C7 1_555 1_555
C4G C5G 1_555 1_555
C5G N2G 1_555 1_555
C6G C7G 1_555 1_555
C6J C7J 1_555 1_555
O1L Cu1B 1_555 1_555
C6L C7L 1_555 1_555
Cu1_2 Cu1B_2 1_555 1_555

#END
