
#######################################################################
#
#                 Cambridge Crystallographic Data Centre
#                                CCDC 
#
#######################################################################
#
# If this CIF has been generated from an entry in the Cambridge 
# Structural Database, then it will include bibliographic, chemical, 
# crystal, experimental, refinement or atomic coordinate data resulting 
# from the CCDC's data processing and validation procedures.
#
#######################################################################

data_OTOZOO
_chemical_formula_moiety         '(C17 H11 N3 O4 Zn1)n'
_symmetry_cell_setting           monoclinic
_symmetry_space_group_name_H-M   'P 21/c'
_symmetry_Int_Tables_number      14
_space_group_name_Hall           '-P 2ybc'
loop_
_symmetry_equiv_pos_site_id
_symmetry_equiv_pos_as_xyz
1 x,y,z
2 -x,1/2+y,1/2-z
3 -x,-y,-z
4 x,1/2-y,1/2+z
_cell_length_a                   10.8378(7)
_cell_length_b                   13.1095(15)
_cell_length_c                   22.4628(18)
_cell_angle_alpha                90
_cell_angle_beta                 112.060(6)
_cell_angle_gamma                90
_cell_volume                     2957.83
loop_
_atom_site_label
_atom_site_type_symbol
_atom_site_fract_x
_atom_site_fract_y
_atom_site_fract_z
C1 C 0.6008(4) 0.9118(3) 0.61077(16)
C2 C 0.6368(3) 0.8705(3) 0.67779(15)
C3 C 0.7133(4) 0.7814(3) 0.69709(18)
H1 H 0.7466 0.7485 0.6685
C4 C 0.7404(4) 0.7415(3) 0.75781(18)
H2 H 0.7923 0.6813 0.7711
C5 C 0.6913(3) 0.7898(3) 0.79868(16)
C6 C 0.6170(4) 0.8778(3) 0.78118(18)
H3 H 0.5859 0.9107 0.8106
C7 C 0.5880(4) 0.9181(3) 0.72042(18)
H4 H 0.5351 0.9779 0.7076
C8 C 1.3072(3) 0.6281(3) 0.96608(17)
C9 C 1.1964(3) 0.7043(3) 0.94040(17)
C10 C 1.2185(4) 0.7982(3) 0.9173(2)
H5 H 1.3052 0.8148 0.9193
C11 C 1.1165(4) 0.8675(3) 0.8917(2)
H6 H 1.1332 0.9316 0.8764
C12 C 0.9894(4) 0.8436(3) 0.8884(2)
H7 H 0.9191 0.8915 0.8709
C13 C 0.9641(3) 0.7489(3) 0.91085(17)
C14 C 1.0685(3) 0.6790(3) 0.93684(17)
H8 H 1.0524 0.6146 0.9520
C15 C 0.8327(3) 0.7214(3) 0.90941(16)
C16 C 0.6165(3) 0.7037(3) 0.87766(15)
C17 C 0.4710(3) 0.7083(4) 0.83781(18)
H9 H 0.4395 0.7786 0.8366
H10 H 0.4226 0.6639 0.8567
H11 H 0.4555 0.6854 0.7941
N1 N 0.6727(3) 0.6617(2) 0.93485(13)
N2 N 0.8102(3) 0.6728(2) 0.95515(13)
N3 N 0.7129(3) 0.7446(2) 0.86017(13)
O1 O 0.5202(3) 0.9841(2) 0.59465(11)
O2 O 0.6559(3) 0.8709(2) 0.57630(12)
O3 O 1.4196(2) 0.6551(2) 0.96740(12)
O4 O 1.2797(2) 0.5429(2) 0.98459(14)
Zn1 Zn 0.59089(3) 0.57435(3) 0.98431(2)
O1A O 0.4798(3) 0.4841(2) 0.90535(11)
O2C O 0.6559(3) 0.6291(2) 1.07630(12)
O3_2 O 0.4196(2) 0.6551(2) 0.96740(12)
O4B O 0.7203(2) 0.4571(2) 1.01541(14)
Zn1_2 Zn 1.59089(3) 0.57435(3) 0.98431(2)
Zn1A Zn 0.40911(3) 1.07435(3) 0.51569(2)
Zn1B Zn 1.40911(3) 0.42565(3) 1.01569(2)
Zn1C Zn 0.59089(3) 0.92565(3) 0.48431(2)
loop_
_geom_bond_atom_site_label_1
_geom_bond_atom_site_label_2
_geom_bond_site_symmetry_1
_geom_bond_site_symmetry_2
C1 C2 1_555 1_555
C2 C3 1_555 1_555
C3 H1 1_555 1_555
C4 C3 1_555 1_555
H2 C4 1_555 1_555
C5 C4 1_555 1_555
C6 C5 1_555 1_555
H3 C6 1_555 1_555
C7 C2 1_555 1_555
H4 C7 1_555 1_555
C8 C9 1_555 1_555
C9 C10 1_555 1_555
C10 H5 1_555 1_555
C11 C10 1_555 1_555
H6 C11 1_555 1_555
C12 C11 1_555 1_555
H7 C12 1_555 1_555
C13 C12 1_555 1_555
C14 C9 1_555 1_555
H8 C14 1_555 1_555
C15 C13 1_555 1_555
C16 C17 1_555 1_555
C17 H9 1_555 1_555
H10 C17 1_555 1_555
H11 C17 1_555 1_555
N1 C16 1_555 1_555
N2 C15 1_555 1_555
N3 C5 1_555 1_555
O1 C1 1_555 1_555
O2 C1 1_555 1_555
O3 C8 1_555 1_555
O4 C8 1_555 1_555
Zn1 N1 1_555 1_555
O1A Zn1 1_555 1_555
O2C Zn1 1_555 1_555
O3_2 Zn1 1_555 1_555
O4B Zn1 1_555 1_555
Zn1_2 O3 1_555 1_555
Zn1A O1 1_555 1_555
Zn1B O4 1_555 1_555
Zn1C O2 1_555 1_555
C6 C7 1_555 1_555
C13 C14 1_555 1_555
C15 N3 1_555 1_555
C16 N3 1_555 1_555
N1 N2 1_555 1_555

#END
