
#######################################################################
#
#                 Cambridge Crystallographic Data Centre
#                                CCDC 
#
#######################################################################
#
# If this CIF has been generated from an entry in the Cambridge 
# Structural Database, then it will include bibliographic, chemical, 
# crystal, experimental, refinement or atomic coordinate data resulting 
# from the CCDC's data processing and validation procedures.
#
#######################################################################

data_OTOZII
_chemical_formula_moiety         '(C17 H11 Co1 N3 O4)n'
_symmetry_cell_setting           monoclinic
_symmetry_space_group_name_H-M   'P 21/c'
_symmetry_Int_Tables_number      14
_space_group_name_Hall           '-P 2ybc'
loop_
_symmetry_equiv_pos_site_id
_symmetry_equiv_pos_as_xyz
1 x,y,z
2 -x,1/2+y,1/2-z
3 -x,-y,-z
4 x,1/2-y,1/2+z
_cell_length_a                   10.6446(8)
_cell_length_b                   13.9646(11)
_cell_length_c                   21.3349(19)
_cell_angle_alpha                90
_cell_angle_beta                 99.797(7)
_cell_angle_gamma                90
_cell_volume                     3125.13
loop_
_atom_site_label
_atom_site_type_symbol
_atom_site_fract_x
_atom_site_fract_y
_atom_site_fract_z
C1 C 0.6115(4) 0.8982(3) 0.60247(18)
C2 C 0.6443(4) 0.8514(3) 0.66725(19)
C3 C 0.7219(5) 0.7694(4) 0.6806(2)
H1 H 0.7613 0.7447 0.6478
C4 C 0.7438(5) 0.7228(4) 0.7390(2)
H2 H 0.7927 0.6666 0.7456
C5 C 0.6939(4) 0.7608(3) 0.78307(19)
C6 C 0.6193(4) 0.8444(3) 0.77139(18)
H3 H 0.5845 0.8711 0.8051
C7 C 0.5948(4) 0.8894(3) 0.71227(18)
H4 H 0.5444 0.9450 0.7056
C8 C 1.3125(3) 0.6225(3) 0.95937(17)
C9 C 1.1997(4) 0.6889(3) 0.9283(2)
C10 C 1.2234(4) 0.7750(3) 0.9032(2)
H5 H 1.3080 0.7952 0.9045
C11 C 1.1175(4) 0.8371(3) 0.8740(3)
H6 H 1.1373 0.8977 0.8590
C12 C 0.9887(4) 0.8108(3) 0.8673(2)
H7 H 0.9227 0.8507 0.8474
C13 C 0.9651(4) 0.7217(3) 0.89215(19)
C14 C 1.0704(4) 0.6627(3) 0.92242(18)
H8 H 1.0512 0.6032 0.9392
C15 C 0.8306(4) 0.6907(3) 0.88972(18)
C16 C 0.6156(4) 0.6701(3) 0.86164(18)
C17 C 0.4711(4) 0.6719(4) 0.8248(2)
H9 H 0.4213 0.6249 0.8434
H10 H 0.4694 0.6568 0.7803
H11 H 0.4352 0.7351 0.8284
N1 N 0.6699(3) 0.6270(2) 0.91680(13)
N2 N 0.8061(3) 0.6413(2) 0.93538(14)
N3 N 0.7125(3) 0.7111(3) 0.84313(15)
O1 O 0.5303(3) 0.9652(2) 0.59063(12)
O2 O 0.6653(3) 0.8661(2) 0.56334(12)
O3 O 1.4244(2) 0.64395(18) 0.95749(13)
O4 O 1.2842(2) 0.54713(16) 0.98646(11)
Co1 Co 0.59070(4) 0.56153(3) 0.98008(2)
O1A O 0.4697(3) 0.4652(2) 0.90937(12)
O2C O 0.6653(3) 0.6339(2) 1.06334(12)
O3_2 O 0.4244(2) 0.64395(18) 0.95749(13)
O4B O 0.7158(2) 0.45287(16) 1.01354(11)
Co1_2 Co 1.59070(4) 0.56153(3) 0.98008(2)
Co1A Co 0.40930(4) 1.06153(3) 0.51992(2)
Co1B Co 0.40930(4) 0.43847(3) 1.01992(2)
Co1B_2 Co 1.40930(4) 0.43847(3) 1.01992(2)
Co1C Co 0.59070(4) 0.93847(3) 0.48008(2)
loop_
_geom_bond_atom_site_label_1
_geom_bond_atom_site_label_2
_geom_bond_site_symmetry_1
_geom_bond_site_symmetry_2
C1 C2 1_555 1_555
C2 C3 1_555 1_555
C3 H1 1_555 1_555
C4 C3 1_555 1_555
H2 C4 1_555 1_555
C5 C4 1_555 1_555
C6 C5 1_555 1_555
H3 C6 1_555 1_555
C7 C2 1_555 1_555
H4 C7 1_555 1_555
C8 C9 1_555 1_555
C9 C10 1_555 1_555
C10 H5 1_555 1_555
C11 C10 1_555 1_555
H6 C11 1_555 1_555
C12 C11 1_555 1_555
H7 C12 1_555 1_555
C13 C12 1_555 1_555
C14 C9 1_555 1_555
H8 C14 1_555 1_555
C15 C13 1_555 1_555
C16 C17 1_555 1_555
C17 H9 1_555 1_555
H10 C17 1_555 1_555
H11 C17 1_555 1_555
N1 C16 1_555 1_555
N2 C15 1_555 1_555
N3 C5 1_555 1_555
O1 C1 1_555 1_555
O2 C1 1_555 1_555
O3 C8 1_555 1_555
O4 C8 1_555 1_555
Co1 N1 1_555 1_555
O1A Co1 1_555 1_555
O2C Co1 1_555 1_555
O3_2 Co1 1_555 1_555
O4B Co1 1_555 1_555
Co1_2 O3 1_555 1_555
Co1A O1 1_555 1_555
Co1B Co1 1_555 1_555
Co1B_2 O4 1_555 1_555
Co1C O2 1_555 1_555
C6 C7 1_555 1_555
C13 C14 1_555 1_555
C15 N3 1_555 1_555
C16 N3 1_555 1_555
N1 N2 1_555 1_555
Co1_2 Co1B_2 1_555 1_555
Co1A Co1C 1_555 1_555

#END
