
#######################################################################
#
#                 Cambridge Crystallographic Data Centre
#                                CCDC 
#
#######################################################################
#
# If this CIF has been generated from an entry in the Cambridge 
# Structural Database, then it will include bibliographic, chemical, 
# crystal, experimental, refinement or atomic coordinate data resulting 
# from the CCDC's data processing and validation procedures.
#
#######################################################################

data_AWIBAL
_chemical_formula_moiety         '(C24 H30 Lu2 N6 O18)n'
_symmetry_cell_setting           triclinic
_symmetry_space_group_name_H-M   'P -1'
_symmetry_Int_Tables_number      2
_space_group_name_Hall           '-P 1'
loop_
_symmetry_equiv_pos_site_id
_symmetry_equiv_pos_as_xyz
1 x,y,z
2 -x,-y,-z
_cell_length_a                   10.0669(12)
_cell_length_b                   10.3562(17)
_cell_length_c                   10.538(2)
_cell_angle_alpha                103.158(17)
_cell_angle_beta                 115.524(17)
_cell_angle_gamma                92.546(12)
_cell_volume                     952.607
loop_
_atom_site_label
_atom_site_type_symbol
_atom_site_fract_x
_atom_site_fract_y
_atom_site_fract_z
Lu1 Lu 0.47493(9) 0.23375(10) 0.00334(13)
O1 O 0.3724(4) 0.4026(4) 0.0980(4)
O2 O 0.6788(3) 0.4123(3) 0.1378(3)
O3 O 0.3942(4) 0.0885(4) 0.0864(4)
O4 O 0.2232(3) 0.2614(3) -0.1017(3)
O5 O 0.4766(6) 0.3364(7) -0.1589(6)
H1 H 0.4271 0.4175 -0.1725
H2 H 0.4706 0.2869 -0.2552
C1 C 0.1163(6) 0.4326(6) -0.0004(9)
O6 O 0.3304(5) -0.1368(6) 0.0009(8)
C2 C 0.7174(5) 0.3748(6) 0.2481(6)
O7 O 0.6379(5) 0.2755(6) 0.2506(6)
O8 O 0.3619(6) 0.0581(6) -0.2144(6)
H3 H 0.3148 -0.0068 -0.1823
H4 H 0.4705 0.0508 -0.1759
C3 C 0.2963(6) -0.0224(5) 0.0356(8)
C4 C 0.1179(6) 0.1011(7) 0.0908(8)
H5 H 0.1978 0.1696 0.1537
C5 C 0.1434(6) -0.0099(6) 0.0169(8)
C6 C -0.0334(5) 0.3742(7) -0.0965(10)
C7 C 0.8638(6) 0.4408(8) 0.3810(7)
C8 C 0.1479(7) 0.5585(6) 0.0880(10)
H6 H 0.2466 0.6008 0.1436
C9 C 0.0226(7) -0.1184(6) -0.0775(10)
C10 C 0.9475(6) 0.5414(8) 0.3723(9)
H7 H 0.9133 0.5708 0.2883
C11 C 0.9127(7) 0.3989(9) 0.5075(7)
N1 N 0.0379(8) -0.2342(6) -0.1590(11)
H8 H -0.0389 -0.2947 -0.2172
H9 H 0.1244 -0.2467 -0.1521
N2 N -0.070(4) 0.238(6) -0.198(6)
H10 H -0.1621 0.2004 -0.2512
H11 H -0.0003 0.1961 -0.2035
C12 C 0.2370(5) 0.3604(5) -0.0070(5)
N3 N 0.8255 0.2982 0.5232
H12 H 0.7391 0.2608 0.4528
H13 H 0.8589 0.2745 0.6031
O1A O -0.3724(4) 0.5974(4) -0.0980(4)
O4A O -0.2232(3) 0.7386(3) 0.1017(3)
C1A C -0.1163(6) 0.5674(6) 0.0004(9)
C6A C 0.0334(5) 0.6258(7) 0.0965(10)
C8A C -0.1479(7) 0.4415(6) -0.0880(10)
H6A H -0.2466 0.3992 -0.1436
N2A N 0.070(4) 0.762(6) 0.198(6)
H10A H 0.1621 0.7996 0.2512
H11A H 0.0003 0.8039 0.2035
C12A C -0.2370(5) 0.6396(5) 0.0070(5)
O2A O 1.3212(3) 0.5877(3) 0.8622(3)
C2A C 1.2826(5) 0.6252(6) 0.7519(6)
O7A O 1.3621(5) 0.7245(6) 0.7494(6)
C7A C 1.1362(6) 0.5592(8) 0.6190(7)
C10A C 1.0525(6) 0.4586(8) 0.6277(9)
H7A H 1.0867 0.4292 0.7117
C11A C 1.0873(7) 0.6011(9) 0.4925(7)
N3A N 1.1745 0.7018 0.4768
H12A H 1.2609 0.7392 0.5472
H13A H 1.1411 0.7255 0.3969
O3A O -0.3942(4) -0.0885(4) -0.0864(4)
C3A C -0.2963(6) 0.0224(5) -0.0356(8)
C4A C -0.1179(6) -0.1011(7) -0.0908(8)
H5A H -0.1978 -0.1696 -0.1537
C5A C -0.1434(6) 0.0099(6) -0.0169(8)
C9A C -0.0226(7) 0.1184(6) 0.0775(10)
N1A N -0.0379(8) 0.2342(6) 0.1590(11)
H8A H 0.0389 0.2947 0.2172
H9A H -0.1244 0.2467 0.1521
O6A O -0.3304(5) 0.1368(6) -0.0009(8)
Lu1A Lu -0.47493(9) -0.23375(10) -0.00334(13)
O5A O -0.4766(6) -0.3364(7) 0.1589(6)
H1A H -0.4271 -0.4175 0.1725
H2A H -0.4706 -0.2869 0.2552
O8A O -0.3619(6) -0.0581(6) 0.2144(6)
H3A H -0.3148 0.0068 0.1823
H4A H -0.4705 -0.0508 0.1759
Lu1_2 Lu -0.52507(9) 0.23375(10) 0.00334(13)
Lu1A_2 Lu -0.47493(9) 0.76625(10) -0.00334(13)
Lu1A_3 Lu 0.52507(9) -0.23375(10) -0.00334(13)
Lu1A_4 Lu 1.52507(9) 0.76625(10) 0.99666(13)
O1A_2 O -0.3724(4) -0.4026(4) -0.0980(4)
O2A_2 O -0.6788(3) -0.4123(3) -0.1378(3)
O4A_2 O -0.2232(3) -0.2614(3) 0.1017(3)
O6_2 O -0.6696(5) -0.1368(6) 0.0009(8)
O6A_2 O 0.6696(5) 0.1368(6) -0.0009(8)
O7A_2 O -0.6379(5) -0.2755(6) -0.2506(6)
O9 O 0.9600(8) 0.9977(7) 0.3577(8)
H14 H 0.8979 1.0712 0.3514
H15 H 0.9270 0.9339 0.4011
O10 O 0.704(9) 0.813(8) 0.471(5)
H16 H 0.6958 0.7151 0.4651
H17 H 0.8091 0.8459 0.4921
loop_
_geom_bond_atom_site_label_1
_geom_bond_atom_site_label_2
_geom_bond_site_symmetry_1
_geom_bond_site_symmetry_2
Lu1 O1 1_555 1_555
O1 C12 1_555 1_555
O2 Lu1 1_555 1_555
O3 Lu1 1_555 1_555
O4 Lu1 1_555 1_555
O5 Lu1 1_555 1_555
H1 O5 1_555 1_555
H2 O5 1_555 1_555
C1 C6 1_555 1_555
O6 C3 1_555 1_555
C2 O2 1_555 1_555
O7 Lu1 1_555 1_555
O8 Lu1 1_555 1_555
H3 O8 1_555 1_555
H4 O8 1_555 1_555
C3 O3 1_555 1_555
C4 H5 1_555 1_555
C5 C3 1_555 1_555
C6 N2 1_555 1_555
C7 C2 1_555 1_555
C8 C1 1_555 1_555
H6 C8 1_555 1_555
C9 C5 1_555 1_555
C10 C7 1_555 1_555
H7 C10 1_555 1_555
C11 C7 1_555 1_555
N1 C9 1_555 1_555
H8 N1 1_555 1_555
H9 N1 1_555 1_555
N2 H10 1_555 1_555
H11 N2 1_555 1_555
C12 O4 1_555 1_555
N3 C11 1_555 1_555
H12 N3 1_555 1_555
H13 N3 1_555 1_555
O9 H14 1_555 1_555
H15 O9 1_555 1_555
O10 H16 1_555 1_555
H17 O10 1_555 1_555
O1A C12A 1_555 1_555
O4A C12A 1_555 1_555
C1A C6A 1_555 1_555
C6A C8 1_555 1_555
C8A C6 1_555 1_555
H6A C8A 1_555 1_555
N2A C6A 1_555 1_555
H10A N2A 1_555 1_555
H11A N2A 1_555 1_555
C12A C1A 1_555 1_555
O2A C2A 1_555 1_555
C2A O7A 1_555 1_555
O7A Lu1A_4 1_555 1_555
C7A C2A 1_555 1_555
C10A C11 1_555 1_555
H7A C10A 1_555 1_555
C11A C10 1_555 1_555
N3A C11A 1_555 1_555
H12A N3A 1_555 1_555
H13A N3A 1_555 1_555
O3A C3A 1_555 1_555
C3A C5A 1_555 1_555
C4A C9 1_555 1_555
H5A C4A 1_555 1_555
C5A C4A 1_555 1_555
C9A C4 1_555 1_555
N1A C9A 1_555 1_555
H8A N1A 1_555 1_555
H9A N1A 1_555 1_555
O6A C3A 1_555 1_555
Lu1A O3A 1_555 1_555
O5A Lu1A 1_555 1_555
H1A O5A 1_555 1_555
H2A O5A 1_555 1_555
O8A Lu1A 1_555 1_555
H3A O8A 1_555 1_555
H4A O8A 1_555 1_555
Lu1_2 O6A 1_555 1_555
Lu1A_2 O1A 1_555 1_555
Lu1A_3 O6 1_555 1_555
Lu1A_4 O2A 1_555 1_555
O1A_2 Lu1A 1_555 1_555
O2A_2 Lu1A 1_555 1_555
O4A_2 Lu1A 1_555 1_555
O6_2 Lu1A 1_555 1_555
O6A_2 Lu1 1_555 1_555
O7A_2 Lu1A 1_555 1_555
C1 C12 1_555 1_555
C2 O7 1_555 1_555
C4 C5 1_555 1_555
O4A Lu1A_2 1_555 1_555
C1A C8A 1_555 1_555
C7A C10A 1_555 1_555
C7A C11A 1_555 1_555
C5A C9A 1_555 1_555

#END
