
#######################################################################
#
#                 Cambridge Crystallographic Data Centre
#                                CCDC 
#
#######################################################################
#
# If this CIF has been generated from an entry in the Cambridge 
# Structural Database, then it will include bibliographic, chemical, 
# crystal, experimental, refinement or atomic coordinate data resulting 
# from the CCDC's data processing and validation procedures.
#
#######################################################################

data_LARNIE
_chemical_formula_moiety         '(C32 H32 Mn3 N2 O20)n'
_symmetry_cell_setting           orthorhombic
_symmetry_space_group_name_H-M   'P 21 21 21'
_symmetry_Int_Tables_number      19
_space_group_name_Hall           'P 2ac 2ab'
loop_
_symmetry_equiv_pos_site_id
_symmetry_equiv_pos_as_xyz
1 x,y,z
2 1/2-x,-y,1/2+z
3 1/2+x,1/2-y,-z
4 -x,1/2+y,1/2-z
_cell_length_a                   9.4078(2)
_cell_length_b                   11.6538(3)
_cell_length_c                   32.6621(9)
_cell_angle_alpha                90
_cell_angle_beta                 90
_cell_angle_gamma                90
_cell_volume                     3580.96
loop_
_atom_site_label
_atom_site_type_symbol
_atom_site_fract_x
_atom_site_fract_y
_atom_site_fract_z
Mn1 Mn 0.19316(12) 0.09382(12) 0.63759(4)
Mn2 Mn 0.24042(12) 0.71462(11) 0.59962(4)
Mn3 Mn 0.21617(12) 0.40878(12) 0.62589(4)
O1 O 0.3219(5) 0.2465(5) 0.60988(16)
O2 O 0.4417(5) 0.1008(5) 0.63596(17)
O3 O 0.6957(5) 0.2061(5) 0.61740(17)
O4 O 1.0326(5) 0.3294(5) 0.60074(18)
O5 O 0.9813(5) 0.1559(5) 0.62660(19)
O6 O 1.1056(5) 0.5758(5) 0.62643(16)
O7 O 0.9821(6) 0.7188(6) 0.6002(2)
O8 O 0.7314(5) 0.6133(5) 0.62468(16)
O9 O 0.3968(6) 0.4930(5) 0.65011(18)
O10 O 0.4473(6) 0.6486(5) 0.61215(18)
O11 O 0.6984(6) -0.1308(5) 0.46008(16)
O12 O 0.7627(6) 0.0454(5) 0.43962(15)
O13 O 0.5062(6) -0.0468(5) 0.51221(18)
O14 O 0.2173(6) 0.0063(5) 0.58000(16)
O15 O 0.3252(6) -0.1559(5) 0.56030(18)
O16 O -0.1460(5) 0.8776(5) 0.81171(17)
O17 O -0.2207(6) 0.6950(5) 0.80890(17)
O18 O 0.0008(6) 0.8393(5) 0.73797(16)
O19 O 0.2393(6) 0.8099(5) 0.65389(17)
O20 O 0.1221(6) 0.9632(5) 0.67693(18)
C1 C 0.4380(8) 0.1968(7) 0.6185(2)
C2 C 0.5692(8) 0.2532(8) 0.6047(2)
C3 C 0.5908(9) 0.3427(8) 0.5795(3)
H1 H 0.5204 0.3886 0.5666
C4 C 0.7392(9) 0.3546(7) 0.5761(2)
H2 H 0.7879 0.4097 0.5599
C5 C 0.8003(8) 0.2735(7) 0.5999(3)
C6 C 0.9492(9) 0.2502(9) 0.6102(3)
C7 C 0.9895(8) 0.6260(8) 0.6197(3)
C8 C 0.8617(8) 0.5746(7) 0.6384(2)
C9 C 0.8432(8) 0.4912(8) 0.6671(3)
H3 H 0.9161 0.4509 0.6812
C10 C 0.6957(9) 0.4759(8) 0.6720(3)
H4 H 0.6502 0.4241 0.6902
C11 C 0.6306(9) 0.5498(8) 0.6456(3)
C12 C 0.4809(8) 0.5667(7) 0.6348(2)
C13 C 0.6903(9) -0.0243(8) 0.4608(2)
C14 C 0.5841(9) 0.0295(8) 0.4887(3)
C15 C 0.5362(9) 0.1356(8) 0.4951(3)
H5 H 0.5719 0.2037 0.4828
C16 C 0.4204(8) 0.1289(7) 0.5241(3)
H6 H 0.3650 0.1906 0.5345
C17 C 0.4077(8) 0.0171(7) 0.5334(3)
C18 C 0.3115(8) -0.0475(7) 0.5604(2)
C19 C -0.1472(8) 0.7768(7) 0.7965(2)
C20 C -0.0551(9) 0.7505(8) 0.7614(2)
C21 C -0.0067(10) 0.6509(9) 0.7484(3)
H7 H -0.0297 0.5778 0.7595
C22 C 0.0856(8) 0.6720(8) 0.7151(3)
H8 H 0.1367 0.6160 0.6999
C23 C 0.0875(9) 0.7862(8) 0.7090(2)
C24 C 0.1542(9) 0.8579(8) 0.6773(3)
Mn1_2 Mn 0.19316(12) 1.09382(12) 0.63759(4)
Mn1_3 Mn 1.19316(12) 0.09382(12) 0.63759(4)
Mn1C Mn -0.19316(12) 0.59382(12) 0.86241(4)
Mn2_2 Mn 0.24042(12) -0.28538(11) 0.59962(4)
Mn2_3 Mn 1.24042(12) 0.71462(11) 0.59962(4)
Mn2B Mn 0.74042(12) -0.21462(11) 0.40038(4)
Mn3_2 Mn 1.21617(12) 0.40878(12) 0.62589(4)
Mn3B Mn 0.71617(12) 0.09122(12) 0.37411(4)
Mn3C Mn -0.21617(12) 0.90878(12) 0.87411(4)
O4_2 O 0.0326(5) 0.3294(5) 0.60074(18)
O5_2 O -0.0187(5) 0.1559(5) 0.62660(19)
O6_2 O 0.1056(5) 0.5758(5) 0.62643(16)
O7_2 O -0.0179(6) 0.7188(6) 0.6002(2)
O11B O 0.1984(6) 0.6308(5) 0.53992(16)
O12B O 0.2627(6) 0.4546(5) 0.56038(15)
O15_2 O 0.3252(6) 0.8441(5) 0.56030(18)
O16C O 0.1460(5) 0.3776(5) 0.68829(17)
O17C O 0.2207(6) 0.1950(5) 0.69110(17)
O20_2 O 0.1221(6) -0.0368(5) 0.67693(18)
N1 N 0.1423(9) 0.5260(8) 0.3236(3)
H9 H 0.0894 0.4741 0.3389
C25 C 0.110(2) 0.7061(18) 0.2833(6)
H10 H 0.2083 0.7249 0.2909
H11 H 0.0524 0.7760 0.2836
H12 H 0.1091 0.6727 0.2557
C26 C 0.0494(16) 0.6193(14) 0.3139(5)
H13 H 0.0254 0.6603 0.3395
H14 H -0.0400 0.5877 0.3026
C27 C 0.2125(19) 0.4606(15) 0.2921(5)
H15 H 0.2693 0.3978 0.3043
H16 H 0.2765 0.5104 0.2759
C28 C 0.092(3) 0.411(2) 0.2647(7)
H17 H 0.0573 0.3392 0.2766
H18 H 0.1289 0.3968 0.2372
H19 H 0.0137 0.4665 0.2633
C29 C 0.2634(19) 0.5661(16) 0.3507(5)
H20 H 0.3394 0.5073 0.3505
H21 H 0.3036 0.6377 0.3392
C30 C 0.2221(19) 0.5861(14) 0.3911(5)
H22 H 0.1633 0.6555 0.3924
H23 H 0.3067 0.5965 0.4083
H24 H 0.1672 0.5204 0.4012
C31 C 0.4661(11) 0.6191(10) 0.4793(4)
H25 H 0.5400 0.5885 0.4611
H26 H 0.3894 0.6523 0.4628
H27 H 0.4281 0.5571 0.4963
C32 C 0.6432(12) 0.6647(11) 0.5326(3)
H28 H 0.6054 0.6014 0.5491
H29 H 0.6788 0.7251 0.5508
H30 H 0.7209 0.6364 0.5154
N2 N 0.5296(10) 0.7113(8) 0.5065(3)
H31 H 0.5659 0.7692 0.4905
H32 H 0.4593 0.7421 0.5228
loop_
_geom_bond_atom_site_label_1
_geom_bond_atom_site_label_2
_geom_bond_site_symmetry_1
_geom_bond_site_symmetry_2
Mn1 O1 1_555 1_555
Mn2 O10 1_555 1_555
Mn3 O1 1_555 1_555
O1 C1 1_555 1_555
O2 Mn1 1_555 1_555
O3 C2 1_555 1_555
O4 C6 1_555 1_555
O5 C6 1_555 1_555
O6 C7 1_555 1_555
O7 C7 1_555 1_555
O8 C8 1_555 1_555
O9 Mn3 1_555 1_555
O10 C12 1_555 1_555
O11 C13 1_555 1_555
O12 C13 1_555 1_555
O13 C14 1_555 1_555
O14 Mn1 1_555 1_555
O15 C18 1_555 1_555
O16 C19 1_555 1_555
O17 C19 1_555 1_555
O18 C20 1_555 1_555
O19 Mn2 1_555 1_555
O20 C24 1_555 1_555
C1 O2 1_555 1_555
C2 C1 1_555 1_555
C3 C2 1_555 1_555
H1 C3 1_555 1_555
C4 C3 1_555 1_555
H2 C4 1_555 1_555
C5 O3 1_555 1_555
C6 C5 1_555 1_555
C7 C8 1_555 1_555
C8 C9 1_555 1_555
C9 H3 1_555 1_555
C10 C9 1_555 1_555
H4 C10 1_555 1_555
C11 O8 1_555 1_555
C12 O9 1_555 1_555
C13 C14 1_555 1_555
C14 C15 1_555 1_555
C15 H5 1_555 1_555
C16 C15 1_555 1_555
H6 C16 1_555 1_555
C17 O13 1_555 1_555
C18 O14 1_555 1_555
C19 C20 1_555 1_555
C20 C21 1_555 1_555
C21 H7 1_555 1_555
C22 C21 1_555 1_555
H8 C22 1_555 1_555
C23 O18 1_555 1_555
C24 O19 1_555 1_555
N1 H9 1_555 1_555
C25 H10 1_555 1_555
H11 C25 1_555 1_555
H12 C25 1_555 1_555
C26 N1 1_555 1_555
H13 C26 1_555 1_555
H14 C26 1_555 1_555
C27 N1 1_555 1_555
H15 C27 1_555 1_555
H16 C27 1_555 1_555
C28 C27 1_555 1_555
H17 C28 1_555 1_555
H18 C28 1_555 1_555
H19 C28 1_555 1_555
C29 N1 1_555 1_555
H20 C29 1_555 1_555
H21 C29 1_555 1_555
C30 C29 1_555 1_555
H22 C30 1_555 1_555
H23 C30 1_555 1_555
H24 C30 1_555 1_555
C31 H25 1_555 1_555
H26 C31 1_555 1_555
H27 C31 1_555 1_555
C32 H28 1_555 1_555
H29 C32 1_555 1_555
H30 C32 1_555 1_555
N2 C31 1_555 1_555
H31 N2 1_555 1_555
H32 N2 1_555 1_555
Mn1_2 O20 1_555 1_555
Mn1_3 O5 1_555 1_555
Mn1C O17 1_555 1_555
Mn2_2 O15 1_555 1_555
Mn2_3 O6 1_555 1_555
Mn2B O11 1_555 1_555
Mn3_2 O4 1_555 1_555
Mn3B O12 1_555 1_555
Mn3C O16 1_555 1_555
O4_2 Mn3 1_555 1_555
O5_2 Mn1 1_555 1_555
O6_2 Mn2 1_555 1_555
O7_2 Mn2 1_555 1_555
O11B Mn2 1_555 1_555
O12B Mn3 1_555 1_555
O15_2 Mn2 1_555 1_555
O16C Mn3 1_555 1_555
O17C Mn1 1_555 1_555
O20_2 Mn1 1_555 1_555
Mn3 O6_2 1_555 1_555
O6 Mn3_2 1_555 1_555
O7 Mn2_3 1_555 1_555
C4 C5 1_555 1_555
C10 C11 1_555 1_555
C11 C12 1_555 1_555
C16 C17 1_555 1_555
C17 C18 1_555 1_555
C22 C23 1_555 1_555
C23 C24 1_555 1_555
C25 C26 1_555 1_555
C32 N2 1_555 1_555

#END
