
#######################################################################
#
#                 Cambridge Crystallographic Data Centre
#                                CCDC 
#
#######################################################################
#
# If this CIF has been generated from an entry in the Cambridge 
# Structural Database, then it will include bibliographic, chemical, 
# crystal, experimental, refinement or atomic coordinate data resulting 
# from the CCDC's data processing and validation procedures.
#
#######################################################################

data_LARNEA
_chemical_formula_moiety         '(C31 H31 Cd3 N3 O21)n'
_symmetry_cell_setting           triclinic
_symmetry_space_group_name_H-M   'P 1'
_symmetry_Int_Tables_number      1
_space_group_name_Hall           'P 1'
loop_
_symmetry_equiv_pos_site_id
_symmetry_equiv_pos_as_xyz
1 x,y,z
_cell_length_a                   9.4378(19)
_cell_length_b                   10.192(2)
_cell_length_c                   11.234(2)
_cell_angle_alpha                64.11(3)
_cell_angle_beta                 73.10(3)
_cell_angle_gamma                83.18(3)
_cell_volume                     930.118
loop_
_atom_site_label
_atom_site_type_symbol
_atom_site_fract_x
_atom_site_fract_y
_atom_site_fract_z
Cd1 Cd 0.05325(11) 0.16732(11) 0.29976(11)
Cd2 Cd 0.04773(6) 0.82151(5) -0.39108(5)
Cd3 Cd 0.07674(6) 0.50318(5) -0.01747(5)
O1 O 0.2760(10) 0.9111(14) -0.5147(12)
O2 O 0.2799(9) 1.0732(11) -0.7326(10)
O3 O 0.5669(9) 0.9301(9) -0.5684(8)
O4 O 0.7578(11) 0.7967(11) -0.4115(11)
O5 O 0.9422(9) 0.9369(8) -0.5771(10)
C1 C 0.3336(11) 0.9878(13) -0.6331(13)
C2 C 0.5004(14) 0.9949(16) -0.6725(15)
C3 C 0.6077(13) 1.0651(13) -0.7957(15)
H1 H 0.5908 1.1211 -0.8813
C4 C 0.7458(12) 1.0357(11) -0.7662(12)
H2 H 0.8380 1.0655 -0.8289
C5 C 0.7178(13) 0.9523(13) -0.6233(12)
C6 C 0.8143(14) 0.8972(13) -0.5335(16)
C7 C 0.2954(12) 0.4443(11) 0.1315(11)
C8 C 0.3967(12) 0.3940(14) 0.2231(13)
C9 C 0.3758(13) 0.3297(14) 0.3578(13)
H3 H 0.2849 0.3066 0.4235
C10 C 0.5135(13) 0.3028(12) 0.3834(12)
H4 H 0.5320 0.2585 0.4693
C11 C 0.6145(14) 0.3519(13) 0.2628(13)
C12 C 0.7770(14) 0.3564(14) 0.2223(14)
O6 O 0.1569(9) 0.4028(9) 0.1929(9)
O7 O 0.3423(10) 0.5232(11) 0.0090(9)
O8 O 0.5442(9) 0.4193(10) 0.1589(9)
O9 O 0.8425(9) 0.2867(10) 0.3143(9)
O10 O 0.8423(10) 0.4272(9) 0.0981(9)
C13 C -0.0224(12) 1.0992(12) -0.3638(11)
C14 C -0.0611(13) 1.1912(12) -0.2850(12)
C15 C -0.1392(13) 1.1549(15) -0.1529(15)
H5 H -0.1848 1.0658 -0.0901
C16 C -0.1371(14) 1.2808(11) -0.1300(12)
H6 H -0.1839 1.2929 -0.0504
C17 C -0.0525(14) 1.3794(11) -0.2488(12)
C18 C -0.0011(14) 1.5349(11) -0.2952(12)
O11 O -0.0593(11) 0.9675(9) -0.2961(10)
O12 O 0.0439(10) 1.1691(8) -0.4936(9)
O13 O -0.0029(10) 1.3260(9) -0.3437(9)
O14 O -0.0370(10) 1.5870(9) -0.2060(9)
O15 O 0.0689(10) 1.6033(9) -0.4118(9)
C19 C 0.1510(13) 0.7929(14) -0.1239(14)
C20 C 0.1974(13) 0.9360(13) -0.1493(13)
C21 C 0.2856(15) 1.0376(15) -0.2658(14)
H7 H 0.3336 1.0273 -0.3462
C22 C 0.2901(13) 1.1606(11) -0.2411(12)
H8 H 0.3414 1.2470 -0.3032
C23 C 0.2057(12) 1.1320(11) -0.1096(11)
C24 C 0.1582(14) 1.2110(13) -0.0242(14)
O16 O 0.0658(10) 0.7214(9) -0.0046(10)
O17 O 0.2044(9) 0.7483(8) -0.2138(9)
O18 O 0.1483(10) 0.9886(8) -0.0516(9)
O19 O 0.2017(10) 1.3455(9) -0.0929(10)
O20 O 0.0779(10) 1.1619(12) 0.0879(10)
Cd1_2 Cd 0.05325(11) 1.16732(11) -0.70024(11)
Cd1_3 Cd 0.05325(11) 1.16732(11) 0.29976(11)
Cd1_4 Cd 1.05325(11) 0.16732(11) 0.29976(11)
Cd1_5 Cd 1.05325(11) 1.16732(11) -0.70024(11)
Cd2_2 Cd 0.04773(6) 1.82151(5) -0.39108(5)
Cd2_3 Cd 1.04773(6) 0.82151(5) -0.39108(5)
Cd3_2 Cd 0.07674(6) 1.50318(5) -0.01747(5)
Cd3_3 Cd 1.07674(6) 0.50318(5) -0.01747(5)
O2_2 O 0.2799(9) 0.0732(11) 0.2674(10)
O5_2 O -0.0578(9) -0.0631(8) 0.4229(10)
O5_3 O -0.0578(9) 0.9369(8) -0.5771(10)
O9_2 O -0.1575(9) 0.2867(10) 0.3143(9)
O10_2 O -0.1577(10) 0.4272(9) 0.0981(9)
O12_2 O 0.0439(10) 0.1691(8) 0.5064(9)
O14_2 O -0.0370(10) 0.5870(9) -0.2060(9)
O15_2 O 0.0689(10) 0.6033(9) -0.4118(9)
O19_2 O 0.2017(10) 0.3455(9) -0.0929(10)
O20_2 O 0.0779(10) 0.1619(12) 0.0879(10)
N1 N 0.4923(13) 0.6171(12) 0.7040(14)
H9 H 0.4159 0.6346 0.7650
H10 H 0.5488 0.6985 0.6561
C25 C 0.4329(19) 0.5938(15) 0.610(2)
H11 H 0.3552 0.5218 0.6604
H12 H 0.5101 0.5604 0.5522
H13 H 0.3941 0.6837 0.5534
C26 C 0.583(2) 0.498(2) 0.7825(17)
H14 H 0.5338 0.4056 0.8178
H15 H 0.5933 0.5141 0.8574
H16 H 0.6786 0.4968 0.7228
N2 N -0.054(2) 0.5940(19) 0.2994(17)
H17 H -0.1027 0.6334 0.2337
H18 H -0.0075 0.5146 0.2918
C27 C 0.072(3) 0.710(2) 0.2636(18)
H19 H 0.0253 0.7957 0.2720
H20 H 0.1320 0.7358 0.1714
H21 H 0.1324 0.6671 0.3263
C28 C -0.152(2) 0.550(2) 0.416(2)
H22 H -0.1060 0.4880 0.4872
H23 H -0.2282 0.4966 0.4148
H24 H -0.1942 0.6327 0.4329
N3 N 0.5952(16) 0.8026(16) 0.0189(19)
O21 O 0.716(3) 0.725(2) 0.174(3)
C29 C 0.708(3) 0.754(2) 0.060(3)
C30 C 0.589(3) 0.824(3) -0.118(2)
H25 H 0.6209 0.9208 -0.1833
H26 H 0.4887 0.8091 -0.1145
H27 H 0.6521 0.7546 -0.1441
C31 C 0.465(3) 0.839(4) 0.087(4)
H28 H 0.4418 0.7713 0.1818
H29 H 0.3885 0.8374 0.0475
H30 H 0.4736 0.9357 0.0796
loop_
_geom_bond_atom_site_label_1
_geom_bond_atom_site_label_2
_geom_bond_site_symmetry_1
_geom_bond_site_symmetry_2
Cd1 O6 1_555 1_555
Cd2 O1 1_555 1_555
Cd3 O6 1_555 1_555
O1 C1 1_555 1_555
O2 C1 1_555 1_555
O3 C2 1_555 1_555
O4 C6 1_555 1_555
O5 C6 1_555 1_555
C1 C2 1_555 1_555
C2 C3 1_555 1_555
C3 H1 1_555 1_555
C4 C3 1_555 1_555
H2 C4 1_555 1_555
C5 O3 1_555 1_555
C6 C5 1_555 1_555
C7 C8 1_555 1_555
C8 C9 1_555 1_555
C9 H3 1_555 1_555
C10 C9 1_555 1_555
H4 C10 1_555 1_555
C11 C10 1_555 1_555
C12 C11 1_555 1_555
O6 C7 1_555 1_555
O7 Cd3 1_555 1_555
O8 C8 1_555 1_555
O9 C12 1_555 1_555
O10 C12 1_555 1_555
C13 C14 1_555 1_555
C14 C15 1_555 1_555
C15 H5 1_555 1_555
C16 C15 1_555 1_555
H6 C16 1_555 1_555
C17 C16 1_555 1_555
C18 C17 1_555 1_555
O11 Cd2 1_555 1_555
O12 C13 1_555 1_555
O13 C14 1_555 1_555
O14 C18 1_555 1_555
O15 C18 1_555 1_555
C19 C20 1_555 1_555
C20 C21 1_555 1_555
C21 H7 1_555 1_555
C22 C21 1_555 1_555
H8 C22 1_555 1_555
C23 C22 1_555 1_555
C24 C23 1_555 1_555
O16 Cd3 1_555 1_555
O17 Cd2 1_555 1_555
O18 C20 1_555 1_555
O19 C24 1_555 1_555
O20 C24 1_555 1_555
N1 H9 1_555 1_555
H10 N1 1_555 1_555
C25 N1 1_555 1_555
H11 C25 1_555 1_555
H12 C25 1_555 1_555
H13 C25 1_555 1_555
C26 N1 1_555 1_555
H14 C26 1_555 1_555
H15 C26 1_555 1_555
H16 C26 1_555 1_555
N2 H17 1_555 1_555
H18 N2 1_555 1_555
C27 N2 1_555 1_555
H19 C27 1_555 1_555
H20 C27 1_555 1_555
H21 C27 1_555 1_555
C28 N2 1_555 1_555
H22 C28 1_555 1_555
H23 C28 1_555 1_555
H24 C28 1_555 1_555
N3 C29 1_555 1_555
O21 C29 1_555 1_555
C30 N3 1_555 1_555
H25 C30 1_555 1_555
H26 C30 1_555 1_555
H27 C30 1_555 1_555
C31 N3 1_555 1_555
H28 C31 1_555 1_555
H29 C31 1_555 1_555
H30 C31 1_555 1_555
Cd1_2 O2 1_555 1_555
Cd1_3 O20 1_555 1_555
Cd1_4 O9 1_555 1_555
Cd1_5 O5 1_555 1_555
Cd2_2 O14 1_555 1_555
Cd2_3 O5 1_555 1_555
Cd3_2 O14 1_555 1_555
Cd3_3 O10 1_555 1_555
O2_2 Cd1 1_555 1_555
O5_2 Cd1 1_555 1_555
O5_3 Cd2 1_555 1_555
O9_2 Cd1 1_555 1_555
O10_2 Cd3 1_555 1_555
O12_2 Cd1 1_555 1_555
O14_2 Cd2 1_555 1_555
O15_2 Cd2 1_555 1_555
O19_2 Cd3 1_555 1_555
O20_2 Cd1 1_555 1_555
Cd3 O17 1_555 1_555
Cd3 O14_2 1_555 1_555
C4 C5 1_555 1_555
C7 O7 1_555 1_555
C11 O8 1_555 1_555
C13 O11 1_555 1_555
C17 O13 1_555 1_555
O12 Cd1_2 1_555 1_555
O15 Cd2_2 1_555 1_555
C19 O16 1_555 1_555
C19 O17 1_555 1_555
C23 O18 1_555 1_555
O19 Cd3_2 1_555 1_555
Cd1_2 O5_3 1_555 1_555

#END
