
#######################################################################
#
#                 Cambridge Crystallographic Data Centre
#                                CCDC 
#
#######################################################################
#
# If this CIF has been generated from an entry in the Cambridge 
# Structural Database, then it will include bibliographic, chemical, 
# crystal, experimental, refinement or atomic coordinate data resulting 
# from the CCDC's data processing and validation procedures.
#
#######################################################################

data_RAVVIU01
_chemical_formula_moiety         '(C13 H18 Co6 O26)n'
_symmetry_cell_setting           monoclinic
_symmetry_space_group_name_H-M   'P 21/c'
_symmetry_Int_Tables_number      14
_space_group_name_Hall           '-P 2ybc'
loop_
_symmetry_equiv_pos_site_id
_symmetry_equiv_pos_as_xyz
1 x,y,z
2 -x,1/2+y,1/2-z
3 -x,-y,-z
4 x,1/2-y,1/2+z
_cell_length_a                   11.2539(16)
_cell_length_b                   9.8321(10)
_cell_length_c                   18.108(3)
_cell_angle_alpha                90
_cell_angle_beta                 127.222(2)
_cell_angle_gamma                90
_cell_volume                     1595.49
loop_
_atom_site_label
_atom_site_type_symbol
_atom_site_fract_x
_atom_site_fract_y
_atom_site_fract_z
Co1 Co 0.62207(4) -0.42056(4) 0.36693(3)
Co2 Co 0.57069(4) -0.11028(4) 0.31090(3)
Co3 Co 0.5000 -0.5000 0.5000
Co4 Co 1.0000 -0.5000 0.5000
O1 O 0.4368(2) 0.19983(18) 0.24547(13)
O2 O 0.5521(2) 0.0603(2) 0.36827(14)
O3 O 0.5908(2) -0.00485(18) 0.21954(14)
O4 O 0.6835(2) 0.0044(2) 0.14047(15)
O5 O 0.5445(2) -0.24287(18) 0.39150(13)
O6 O 0.4799(2) -0.7089(2) 0.49772(15)
O7 O 0.6551(2) -0.58356(19) 0.30478(14)
O8 O 0.8995(2) -0.6043(2) 0.37617(15)
O9 O 0.3389(2) -0.4726(2) 0.52343(14)
O10 O 0.1155(2) -0.3847(2) 0.46665(16)
O11 O 0.8372(2) -0.34520(19) 0.43994(14)
O12 O 0.7963(2) -0.12208(19) 0.40961(15)
C1 C 0.4993(3) 0.1716(3) 0.3301(2)
C2 C 0.6950(4) -0.0135(3) 0.2120(2)
C3 C 0.4714(4) -0.7881(3) 0.5472(2)
C4 C 0.7678(3) -0.6286(3) 0.3126(2)
C5 C 0.2264(3) -0.3931(3) 0.4699(2)
C6 C 0.8785(3) -0.2212(3) 0.4505(2)
H1 H 0.508(3) 0.242(3) 0.369(2)
H2 H 0.786(5) -0.038(4) 0.261(3)
H3 H 0.481(4) -0.879(4) 0.536(2)
H4 H 0.982(3) -0.212(3) 0.491(2)
H5 H 0.228(3) -0.342(3) 0.429(2)
H6 H 0.751(3) -0.698(3) 0.267(2)
Co1A Co 0.37793(4) 0.07944(4) 0.13307(3)
Co1B Co 0.37793(4) -0.57944(4) 0.63307(3)
Co1B_2 Co 1.37793(4) -0.57944(4) 0.63307(3)
Co2A Co 0.42931(4) 0.38972(4) 0.18910(3)
Co2A_2 Co 0.42931(4) -0.61028(4) 0.18910(3)
Co2B Co 0.42931(4) -0.88972(4) 0.68910(3)
Co2C Co 0.57069(4) -0.38972(4) 0.81090(3)
Co2B_2 Co 1.42931(4) -0.88972(4) 0.68910(3)
Co3C Co 0.5000 0.0000 0.0000
Co4_2 Co 0.0000 -0.5000 0.5000
O1A O 0.5632(2) -0.30017(18) 0.25453(13)
O1C O 0.4368(2) -0.69983(18) 0.74547(13)
O1B O 0.5632(2) -0.19983(18) 0.75453(13)
O2A O 0.4479(2) -0.4397(2) 0.13173(14)
O2C O 0.5521(2) -0.5603(2) 0.86827(14)
O3A O 0.4092(2) -0.50485(18) 0.28046(14)
O3C O 0.5908(2) -0.49515(18) 0.71954(14)
O4C O 0.6835(2) -0.5044(2) 0.64047(15)
O4A O 0.3165(2) -0.4956(2) 0.35953(15)
O5B O 0.4555(2) -0.75713(18) 0.60850(13)
O5C O 0.5445(2) -0.25713(18) 0.89150(13)
O6B O 0.5201(2) -0.2911(2) 0.50228(15)
O7A O 0.3449(2) -0.08356(19) 0.19522(14)
O7B O 0.3449(2) -0.41644(19) 0.69522(14)
O8B O 1.1005(2) -0.3957(2) 0.62383(15)
O9B O 0.6611(2) -0.5274(2) 0.47657(14)
O10B O 0.8845(2) -0.6153(2) 0.53335(16)
O10_2 O 1.1155(2) -0.3847(2) 0.46665(16)
O11B O 0.1628(2) -0.65480(19) 0.56006(14)
O11B_2 O 1.1628(2) -0.65480(19) 0.56006(14)
O12C O 0.7963(2) -0.37792(19) 0.90961(15)
O12B O 1.2037(2) -0.87792(19) 0.59039(15)
C1A C 0.5007(3) -0.3284(3) 0.1699(2)
C2C C 0.6950(4) -0.4865(3) 0.7120(2)
C2A C 0.3050(4) -0.5135(3) 0.2880(2)
C3B C 0.5286(4) -0.2119(3) 0.4528(2)
C5B C 0.7736(3) -0.6069(3) 0.5301(2)
C6B C 1.1215(3) -0.7788(3) 0.5495(2)
H1A H 0.492(3) -0.258(3) 0.131(2)
H2C H 0.786(5) -0.462(4) 0.761(3)
H2A H 0.214(5) -0.538(4) 0.239(3)
H3B H 0.519(4) -0.121(4) 0.464(2)
H4B H 1.018(3) -0.788(3) 0.509(2)
H5B H 0.772(3) -0.658(3) 0.571(2)
O13 O -0.183(7) -0.359(5) 0.231(4)
C7 C -0.062(7) -0.324(7) 0.231(5)
O14 O -0.190(3) -0.533(3) 0.099(2)
loop_
_geom_bond_atom_site_label_1
_geom_bond_atom_site_label_2
_geom_bond_site_symmetry_1
_geom_bond_site_symmetry_2
Co1 O5 1_555 1_555
Co2 O2 1_555 1_555
Co3 O6 1_555 1_555
Co4 O8 1_555 1_555
O1 C1 1_555 1_555
O2 C1 1_555 1_555
O3 Co2 1_555 1_555
O4 C2 1_555 1_555
O5 Co2 1_555 1_555
O6 C3 1_555 1_555
O7 Co1 1_555 1_555
O8 C4 1_555 1_555
O9 Co3 1_555 1_555
O10 C5 1_555 1_555
O11 Co1 1_555 1_555
O12 Co2 1_555 1_555
C1 H1 1_555 1_555
C2 O3 1_555 1_555
C3 H3 1_555 1_555
C4 O7 1_555 1_555
C5 O9 1_555 1_555
C6 O11 1_555 1_555
H2 C2 1_555 1_555
H4 C6 1_555 1_555
H5 C5 1_555 1_555
H6 C4 1_555 1_555
O13 C7 1_555 1_555
Co1A O1 1_555 1_555
Co1B O9 1_555 1_555
Co1B_2 O11B_2 1_555 1_555
Co2A O1 1_555 1_555
Co2A_2 O7 1_555 1_555
Co2B O1C 1_555 1_555
Co2C O1B 1_555 1_555
Co2B_2 O12B 1_555 1_555
Co3C O4 1_555 1_555
Co4_2 O10 1_555 1_555
O1A Co1 1_555 1_555
O1C Co1B 1_555 1_555
O2A Co2A_2 1_555 1_555
O2C Co2C 1_555 1_555
O3A Co1 1_555 1_555
O3C Co1B 1_555 1_555
O4C Co3 1_555 1_555
O4A Co3 1_555 1_555
O5B C3 1_555 1_555
O5C Co2C 1_555 1_555
O6B Co3 1_555 1_555
O7A Co2 1_555 1_555
O7B Co1B 1_555 1_555
O8B Co4 1_555 1_555
O9B Co1 1_555 1_555
O10B Co4 1_555 1_555
O10_2 Co4 1_555 1_555
O11B Co1B 1_555 1_555
O11B_2 Co4 1_555 1_555
O12C Co2C 1_555 1_555
O12B C6B 1_555 1_555
C1A O1A 1_555 1_555
C2C O3C 1_555 1_555
C2A O3A 1_555 1_555
C3B O5 1_555 1_555
C5B O9B 1_555 1_555
C6B O11B_2 1_555 1_555
H1A C1A 1_555 1_555
H2C C2C 1_555 1_555
H2A C2A 1_555 1_555
H3B C3B 1_555 1_555
H4B C6B 1_555 1_555
H5B C5B 1_555 1_555
Co2 O1A 1_555 1_555
Co3 O9B 1_555 1_555
Co4 O11 1_555 1_555
O3 Co1A 1_555 1_555
O12 C6 1_555 1_555
Co1A O7A 1_555 1_555
Co1B O5B 1_555 1_555
Co2A_2 O3A 1_555 1_555
Co2B O5B 1_555 1_555
Co2C O3C 1_555 1_555
Co2C O7B 1_555 1_555
Co4_2 O11B 1_555 1_555
O2A C1A 1_555 1_555
O4C C2C 1_555 1_555
O4A C2A 1_555 1_555
O6B C3B 1_555 1_555
O10B C5B 1_555 1_555

#END
