
#######################################################################
#
#                 Cambridge Crystallographic Data Centre
#                                CCDC 
#
#######################################################################
#
# If this CIF has been generated from an entry in the Cambridge 
# Structural Database, then it will include bibliographic, chemical, 
# crystal, experimental, refinement or atomic coordinate data resulting 
# from the CCDC's data processing and validation procedures.
#
#######################################################################

data_CECVAI
_chemical_formula_moiety         '(C47 H47 Cu6 N12 O25)n'
_symmetry_cell_setting           cubic
_symmetry_space_group_name_H-M   'P 21 3'
_symmetry_Int_Tables_number      198
_space_group_name_Hall           'P 2ac 2ab 3'
loop_
_symmetry_equiv_pos_site_id
_symmetry_equiv_pos_as_xyz
1 x,y,z
2 1/2-x,-y,1/2+z
3 -x,1/2+y,1/2-z
4 1/2+x,1/2-y,-z
5 z,x,y
6 1/2+z,1/2-x,-y
7 1/2-z,-x,1/2+y
8 -z,1/2+x,1/2-y
9 y,z,x
10 -y,1/2+z,1/2-x
11 1/2+y,1/2-z,-x
12 1/2-y,-z,1/2+x
_cell_length_a                   22.3869(5)
_cell_length_b                   22.3869(5)
_cell_length_c                   22.3869(5)
_cell_angle_alpha                90
_cell_angle_beta                 90
_cell_angle_gamma                90
_cell_volume                     11219.7
loop_
_atom_site_label
_atom_site_type_symbol
_atom_site_fract_x
_atom_site_fract_y
_atom_site_fract_z
O9 O 0.7570(10) -0.2570(10) 0.2570(10)
O10 O 0.7255(10) 0.2255(10) 0.2745(10)
O11 O 0.711(2) -0.156(2) 0.437(2)
O12 O 0.3921(19) -0.2877(19) 0.345(2)
O13 O 0.3254(15) -0.1519(14) 0.3109(14)
O14 O 0.970(2) -0.192(2) 0.379(2)
O17 O 0.6910(18) -0.1666(18) 0.341(2)
Cu1 Cu 0.66246(4) -0.08262(4) 0.25592(5)
O1 O 0.6170(3) -0.0458(3) 0.3167(3)
O2 O 0.3930(5) -0.1002(6) 0.4034(6)
H1 H 0.3752 -0.0680 0.4108
N1 N 0.6210(3) -0.1870(3) 0.1992(3)
N2 N 0.6055(3) -0.1459(3) 0.2427(3)
C1 C 0.6703(3) -0.1703(3) 0.1703(3)
C2 C 0.5540(4) -0.1530(4) 0.2709(3)
H2 H 0.5303 -0.1867 0.2610
C3 C 0.5322(4) -0.1131(4) 0.3152(4)
C4 C 0.5624(4) -0.0596(4) 0.3343(4)
C5 C 0.5342(5) -0.0237(5) 0.3760(5)
H3 H 0.5543 0.0109 0.3901
C6 C 0.4777(5) -0.0363(6) 0.3979(6)
H4 H 0.4589 -0.0101 0.4255
C7 C 0.4491(5) -0.0878(6) 0.3788(6)
C8 C 0.4756(5) -0.1241(5) 0.3393(5)
H5 H 0.4549 -0.1591 0.3270
Cu2 Cu 0.66999(4) 0.04081(4) 0.29468(4)
O3 O 0.7255(2) -0.0255(2) 0.2839(3)
O4 O 0.9031(8) -0.1047(8) 0.4339(7)
H6 H 0.9082 -0.0793 0.4610
N3 N 0.6814(3) 0.1145(3) 0.3963(3)
N4 N 0.7067(3) 0.0641(3) 0.3700(3)
C9 C 0.6337(4) 0.1337(4) 0.3663(4)
C10 C 0.7504(5) 0.0380(5) 0.3972(5)
H7 H 0.7632 0.0541 0.4343
C11 C 0.7809(5) -0.0138(5) 0.3749(5)
C12 C 0.7679(4) -0.0428(4) 0.3202(4)
C13 C 0.8019(3) -0.0938(3) 0.3057(3)
H8 H 0.7932 -0.1147 0.2698
C14 C 0.8478(3) -0.1145(3) 0.3421(3)
H9 H 0.8698 -0.1490 0.3310
C15 C 0.8614(3) -0.0846(3) 0.3948(3)
C16 C 0.8292(3) -0.0341(3) 0.4111(3)
H10 H 0.8395 -0.0129 0.4464
O5 O 0.6509(3) 0.0311(3) 0.2050(3)
C17 C 0.6774(3) 0.0582(3) 0.1757(3)
O6 O 0.7097(7) 0.0939(5) 0.1993(5)
Cu1K Cu 0.58262(4) -0.25592(5) 0.16246(4)
Cu1E Cu 0.75592(5) -0.16246(4) 0.08262(4)
Cu1J Cu 0.41738(4) 0.24408(5) 0.33754(4)
Cu1G Cu 0.74408(5) 0.16246(4) 0.58262(4)
O1K O 0.5458(3) -0.3167(3) 0.1170(3)
O1E O 0.8167(3) -0.1170(3) 0.0458(3)
O2K O 0.6002(6) -0.4034(6) -0.1070(5)
O2E O 0.9034(6) 0.1070(5) 0.1002(6)
H1K H 0.5680 -0.4108 -0.1248
H1E H 0.9108 0.1248 0.0680
N1K N 0.6870(3) -0.1992(3) 0.1210(3)
N1E N 0.6992(3) -0.1210(3) 0.1870(3)
N2K N 0.6459(3) -0.2427(3) 0.1055(3)
N2E N 0.7427(3) -0.1055(3) 0.1459(3)
C2K C 0.6530(4) -0.2709(3) 0.0540(4)
C2E C 0.7709(3) -0.0540(4) 0.1530(4)
H2K H 0.6867 -0.2610 0.0303
H2E H 0.7610 -0.0303 0.1867
C3K C 0.6131(4) -0.3152(4) 0.0322(4)
C3E C 0.8152(4) -0.0322(4) 0.1131(4)
C4K C 0.5596(4) -0.3343(4) 0.0624(4)
C4E C 0.8343(4) -0.0624(4) 0.0596(4)
C5K C 0.5237(5) -0.3760(5) 0.0342(5)
C5E C 0.8760(5) -0.0342(5) 0.0237(5)
H3K H 0.4891 -0.3901 0.0543
H3E H 0.8901 -0.0543 -0.0109
C6K C 0.5363(6) -0.3979(6) -0.0223(5)
C6E C 0.8979(6) 0.0223(5) 0.0363(6)
H4K H 0.5101 -0.4255 -0.0411
H4E H 0.9255 0.0411 0.0101
C7K C 0.5878(6) -0.3788(6) -0.0509(5)
C7E C 0.8788(6) 0.0509(5) 0.0878(6)
C8K C 0.6241(5) -0.3393(5) -0.0244(5)
C8E C 0.8393(5) 0.0244(5) 0.1241(5)
H5K H 0.6591 -0.3270 -0.0451
H5E H 0.8270 0.0451 0.1591
Cu2K Cu 0.45919(4) -0.29468(4) 0.16999(4)
Cu2E Cu 0.79468(4) -0.16999(4) -0.04081(4)
Cu2G Cu 0.70532(4) 0.16999(4) 0.45919(4)
Cu2J Cu 0.54081(4) 0.20532(4) 0.33001(4)
O3J O 0.4745(2) 0.2161(3) 0.2745(2)
O3G O 0.7161(3) 0.2255(2) 0.5255(2)
O3K O 0.5255(2) -0.2839(3) 0.2255(2)
O3E O 0.7839(3) -0.2255(2) 0.0255(2)
O4J O 0.3953(8) 0.0661(7) 0.0969(8)
O4G O 0.5661(7) 0.4031(8) 0.6047(8)
H6J H 0.4207 0.0390 0.0918
H6G H 0.5390 0.4082 0.5793
N3J N 0.6145(3) 0.1037(3) 0.3186(3)
N3G N 0.6037(3) 0.1814(3) 0.3855(3)
N3D N 0.3963(3) -0.3186(3) 0.1145(3)
N3A N 0.8186(3) -0.1145(3) -0.1037(3)
N4J N 0.5641(3) 0.1300(3) 0.2933(3)
N4G N 0.6300(3) 0.2067(3) 0.4359(3)
N4K N 0.4359(3) -0.3700(3) 0.2067(3)
N4E N 0.8700(3) -0.2067(3) -0.0641(3)
C10J C 0.5380(5) 0.1028(5) 0.2496(5)
C10G C 0.6028(5) 0.2504(5) 0.4620(5)
H7J H 0.5541 0.0657 0.2368
H7G H 0.5657 0.2632 0.4459
C11J C 0.4862(5) 0.1251(5) 0.2191(5)
C11G C 0.6251(5) 0.2809(5) 0.5138(5)
C12J C 0.4572(4) 0.1798(4) 0.2321(4)
C12G C 0.6798(4) 0.2679(4) 0.5428(4)
C13J C 0.4062(3) 0.1943(3) 0.1981(3)
C13G C 0.6943(3) 0.3019(3) 0.5938(3)
H8J H 0.3853 0.2302 0.2068
H8G H 0.7302 0.2932 0.6147
C14J C 0.3855(3) 0.1579(3) 0.1522(3)
C14G C 0.6579(3) 0.3478(3) 0.6145(3)
H9J H 0.3510 0.1690 0.1302
H9G H 0.6690 0.3698 0.6490
C15J C 0.4154(3) 0.1052(3) 0.1386(3)
C15G C 0.6052(3) 0.3614(3) 0.5846(3)
C16J C 0.4659(3) 0.0889(3) 0.1708(3)
C16G C 0.5889(3) 0.3292(3) 0.5341(3)
H10J H 0.4871 0.0536 0.1605
H10G H 0.5536 0.3395 0.5129
O5K O 0.4689(3) -0.2050(3) 0.1509(3)
O5E O 0.7050(3) -0.1509(3) -0.0311(3)
C17K C 0.4418(3) -0.1757(3) 0.1774(3)
C17E C 0.6757(3) -0.1774(3) -0.0582(3)
O6K O 0.4061(5) -0.1993(5) 0.2097(7)
O6E O 0.6993(5) -0.2097(7) -0.0939(5)
loop_
_geom_bond_atom_site_label_1
_geom_bond_atom_site_label_2
_geom_bond_site_symmetry_1
_geom_bond_site_symmetry_2
Cu1 O1 1_555 1_555
O1 C4 1_555 1_555
O2 H1 1_555 1_555
N1 N2 1_555 1_555
N2 Cu1 1_555 1_555
C1 N1 1_555 1_555
C2 N2 1_555 1_555
H2 C2 1_555 1_555
C3 C2 1_555 1_555
C4 C3 1_555 1_555
C5 C4 1_555 1_555
H3 C5 1_555 1_555
C6 C5 1_555 1_555
H4 C6 1_555 1_555
C7 O2 1_555 1_555
C8 C3 1_555 1_555
H5 C8 1_555 1_555
Cu2 O1 1_555 1_555
O3 Cu1 1_555 1_555
O4 H6 1_555 1_555
N3 N4 1_555 1_555
N4 Cu2 1_555 1_555
C9 N3 1_555 1_555
C10 N4 1_555 1_555
H7 C10 1_555 1_555
C11 C10 1_555 1_555
C12 O3 1_555 1_555
C13 C12 1_555 1_555
H8 C13 1_555 1_555
C14 C13 1_555 1_555
H9 C14 1_555 1_555
C15 O4 1_555 1_555
C16 C11 1_555 1_555
H10 C16 1_555 1_555
O5 Cu2 1_555 1_555
C17 O5 1_555 1_555
O6 C17 1_555 1_555
Cu1K N1 1_555 1_555
Cu1E O1E 1_555 1_555
Cu1J O3J 1_555 1_555
Cu1G O3G 1_555 1_555
O1K Cu1K 1_555 1_555
O1E C4E 1_555 1_555
O2K H1K 1_555 1_555
O2E H1E 1_555 1_555
N1K C1 1_555 1_555
N1E Cu1 1_555 1_555
N2K Cu1K 1_555 1_555
N2E Cu1E 1_555 1_555
C2K N2K 1_555 1_555
C2E N2E 1_555 1_555
H2K C2K 1_555 1_555
H2E C2E 1_555 1_555
C3K C2K 1_555 1_555
C3E C2E 1_555 1_555
C4K O1K 1_555 1_555
C4E C3E 1_555 1_555
C5K C4K 1_555 1_555
C5E C4E 1_555 1_555
H3K C5K 1_555 1_555
H3E C5E 1_555 1_555
C6K C5K 1_555 1_555
C6E C5E 1_555 1_555
H4K C6K 1_555 1_555
H4E C6E 1_555 1_555
C7K O2K 1_555 1_555
C7E O2E 1_555 1_555
C8K C3K 1_555 1_555
C8E C3E 1_555 1_555
H5K C8K 1_555 1_555
H5E C8E 1_555 1_555
Cu2K O1K 1_555 1_555
Cu2E O1E 1_555 1_555
Cu2G N3 1_555 1_555
Cu2J O3J 1_555 1_555
O3J C12J 1_555 1_555
O3G Cu2G 1_555 1_555
O3K Cu1K 1_555 1_555
O3E Cu1E 1_555 1_555
O4J H6J 1_555 1_555
O4G H6G 1_555 1_555
N3J Cu2 1_555 1_555
N3G C9 1_555 1_555
N3D Cu2K 1_555 1_555
N3A Cu2E 1_555 1_555
N4J Cu2J 1_555 1_555
N4G Cu2G 1_555 1_555
N4K Cu2K 1_555 1_555
N4E Cu2E 1_555 1_555
C10J N4J 1_555 1_555
C10G N4G 1_555 1_555
H7J C10J 1_555 1_555
H7G C10G 1_555 1_555
C11J C10J 1_555 1_555
C11G C10G 1_555 1_555
C12J C11J 1_555 1_555
C12G O3G 1_555 1_555
C13J C12J 1_555 1_555
C13G C12G 1_555 1_555
H8J C13J 1_555 1_555
H8G C13G 1_555 1_555
C14J C13J 1_555 1_555
C14G C13G 1_555 1_555
H9J C14J 1_555 1_555
H9G C14G 1_555 1_555
C15J O4J 1_555 1_555
C15G O4G 1_555 1_555
C16J C11J 1_555 1_555
C16G C11G 1_555 1_555
H10J C16J 1_555 1_555
H10G C16G 1_555 1_555
O5K Cu2K 1_555 1_555
O5E Cu2E 1_555 1_555
C17K O5K 1_555 1_555
C17E O5E 1_555 1_555
O6K C17K 1_555 1_555
O6E C17E 1_555 1_555
C1 N1E 1_555 1_555
C6 C7 1_555 1_555
C7 C8 1_555 1_555
Cu2 O3 1_555 1_555
C9 N3J 1_555 1_555
C11 C12 1_555 1_555
C14 C15 1_555 1_555
C15 C16 1_555 1_555
Cu1E N1K 1_555 1_555
N1K N2K 1_555 1_555
N1E N2E 1_555 1_555
C3K C4K 1_555 1_555
C6K C7K 1_555 1_555
C6E C7E 1_555 1_555
C7K C8K 1_555 1_555
C7E C8E 1_555 1_555
Cu2K O3K 1_555 1_555
Cu2E O3E 1_555 1_555
Cu2J N3G 1_555 1_555
N3J N4J 1_555 1_555
N3G N4G 1_555 1_555
C11G C12G 1_555 1_555
C14J C15J 1_555 1_555
C14G C15G 1_555 1_555
C15J C16J 1_555 1_555
C15G C16G 1_555 1_555

#END
