
#######################################################################
#
#                 Cambridge Crystallographic Data Centre
#                                CCDC 
#
#######################################################################
#
# If this CIF has been generated from an entry in the Cambridge 
# Structural Database, then it will include bibliographic, chemical, 
# crystal, experimental, refinement or atomic coordinate data resulting 
# from the CCDC's data processing and validation procedures.
#
#######################################################################

data_DIZQOT
_chemical_formula_moiety         '(C48 H28 Co2 N4 O19 Zn2)n'
_symmetry_cell_setting           orthorhombic
_symmetry_space_group_name_H-M   'P b c a'
_symmetry_Int_Tables_number      61
_space_group_name_Hall           '-P 2ac 2ab'
loop_
_symmetry_equiv_pos_site_id
_symmetry_equiv_pos_as_xyz
1 x,y,z
2 1/2-x,-y,1/2+z
3 -x,1/2+y,1/2-z
4 1/2+x,1/2-y,-z
5 -x,-y,-z
6 1/2+x,y,1/2-z
7 x,1/2-y,1/2+z
8 1/2-x,1/2+y,z
_cell_length_a                   13.8637(11)
_cell_length_b                   18.9411(15)
_cell_length_c                   19.0079(15)
_cell_angle_alpha                90
_cell_angle_beta                 90
_cell_angle_gamma                90
_cell_volume                     4991.36
loop_
_atom_site_label
_atom_site_type_symbol
_atom_site_fract_x
_atom_site_fract_y
_atom_site_fract_z
Zn1 Zn 0.635155(18) 0.103123(13) 0.431502(13)
Co1 Co 0.59645(2) 0.516890(14) 0.043440(14)
N1 N 0.61461(14) 0.62903(11) 0.02395(11)
N2 N 0.62022(14) 0.56118(11) 0.14602(10)
O1 O 0.61270(15) 0.16785(10) 0.35580(10)
O2 O 0.61909(19) 0.08115(11) 0.27868(12)
O3 O 0.59123(13) 0.41648(9) 0.08997(9)
O4 O 0.61874(14) 0.33206(9) 0.01092(9)
O5 O 0.74071(12) -0.00745(10) 0.52071(10)
O6 O 0.77149(12) 0.07409(9) 0.43885(9)
O7 O 0.6484(3) 0.84801(13) 0.1436(2)
O8 O 0.6534(2) 0.77844(15) 0.26833(16)
O9 O 0.55455(12) 0.01936(8) 0.44334(8)
C1 C 0.61347(18) 0.14363(14) 0.29349(14)
C2 C 0.60763(17) 0.19826(13) 0.23633(12)
C3 C 0.5939(2) 0.26790(14) 0.25197(14)
H1 H 0.5869 0.2818 0.2986
C4 C 0.5905(2) 0.31787(14) 0.19920(14)
H2 H 0.5798 0.3650 0.2105
C5 C 0.60284(18) 0.29857(12) 0.12972(12)
C6 C 0.6153(2) 0.22814(13) 0.11375(13)
H3 H 0.6223 0.2141 0.0671
C7 C 0.6172(2) 0.17822(13) 0.16693(14)
H4 H 0.6251 0.1308 0.1558
C8 C 0.60439(17) 0.35381(13) 0.07274(12)
C9 C 0.79653(16) 0.02763(12) 0.48325(12)
C10 C 0.90202(16) 0.01370(13) 0.49091(13)
C11 C 0.9331(2) -0.03934(18) 0.53445(17)
H5 H 0.8879 -0.0667 0.5582
C12 C 0.97032(19) 0.05301(17) 0.45624(16)
H6 H 0.9511 0.0892 0.4262
C13 C 0.6219(2) 0.66075(16) -0.03870(16)
H7 H 0.6165 0.6334 -0.0791
C14 C 0.6369(3) 0.73233(19) -0.0458(2)
H8 H 0.6430 0.7524 -0.0902
C15 C 0.6428(3) 0.77345(17) 0.0131(2)
H9 H 0.6513 0.8220 0.0091
C16 C 0.6360(2) 0.74242(15) 0.07873(18)
C17 C 0.6436(3) 0.78393(17) 0.1440(2)
C18 C 0.6454(2) 0.74498(18) 0.2147(2)
C19 C 0.63785(19) 0.66708(16) 0.21319(16)
C20 C 0.6451(2) 0.6277(2) 0.27426(16)
H10 H 0.6533 0.6501 0.3174
C21 C 0.6402(3) 0.5565(2) 0.27087(16)
H11 H 0.6452 0.5292 0.3114
C22 C 0.6275(2) 0.52486(17) 0.20555(15)
H12 H 0.6239 0.4759 0.2034
C23 C 0.62595(16) 0.63175(13) 0.14964(13)
C24 C 0.62380(17) 0.66904(13) 0.08177(14)
H13 H 0.5638(19) -0.0024(14) 0.4144(14)
Zn1F Zn 0.635155(18) 0.396877(13) 0.931502(13)
Zn1F_2 Zn 0.635155(18) 0.396877(13) -0.068498(13)
Zn1D Zn 1.364845(18) -0.103123(13) 0.568498(13)
Zn1B Zn 0.364845(18) 0.603123(13) 0.068498(13)
Co1F Co 0.59645(2) -0.016890(14) 0.543440(14)
Co1B Co 0.40355(2) 0.016890(14) 0.456560(14)
Co1B_2 Co 1.40355(2) 0.016890(14) 0.456560(14)
Co1D Co 0.40355(2) 0.483110(14) -0.043440(14)
N1F N 0.61461(14) -0.12903(11) 0.52395(11)
N2F N 0.62022(14) -0.06118(11) 0.64602(10)
O1F O 0.61270(15) 0.33215(10) 0.85580(10)
O2F O 0.61909(19) 0.41885(11) 0.77868(12)
O3F O 0.59123(13) 0.08352(9) 0.58997(9)
O4F O 0.61874(14) 0.16794(9) 0.51092(9)
O4_2 O 0.61874(14) 0.33206(9) 1.01092(9)
O5D O 1.25929(12) 0.00745(10) 0.47929(10)
O5F O 0.74071(12) 0.50745(10) 0.02071(10)
O6D O 1.22851(12) -0.07409(9) 0.56115(9)
O6F O 0.77149(12) 0.42591(9) 0.93885(9)
O7F O 0.6484(3) -0.34801(13) 0.6436(2)
O8F O 0.6534(2) -0.27844(15) 0.76833(16)
O9B O 0.44545(12) 0.51936(8) 0.05666(8)
O9F O 0.55455(12) 0.48064(8) -0.05666(8)
O9F_2 O 0.55455(12) 0.48064(8) 0.94334(8)
O9D O 0.44545(12) -0.01936(8) 0.55666(8)
C1F C 0.61347(18) 0.35637(14) 0.79349(14)
C2F C 0.60763(17) 0.30174(13) 0.73633(12)
C3F C 0.5939(2) 0.23210(14) 0.75197(14)
H1F H 0.5869 0.2182 0.7986
C4F C 0.5905(2) 0.18213(14) 0.69920(14)
H2F H 0.5798 0.1350 0.7105
C5F C 0.60284(18) 0.20143(12) 0.62972(12)
C6F C 0.6153(2) 0.27186(13) 0.61375(13)
H3F H 0.6223 0.2859 0.5671
C7F C 0.6172(2) 0.32178(13) 0.66693(14)
H4F H 0.6251 0.3692 0.6558
C8F C 0.60439(17) 0.14619(13) 0.57274(12)
C9D C 1.20347(16) -0.02763(12) 0.51675(12)
C10D C 1.09798(16) -0.01370(13) 0.50909(13)
C11D C 1.0669(2) 0.03934(18) 0.46555(17)
H5D H 1.1121 0.0667 0.4418
C12D C 1.02968(19) -0.05301(17) 0.54376(16)
H6D H 1.0489 -0.0892 0.5738
C13F C 0.6219(2) -0.16075(16) 0.46130(16)
H7F H 0.6165 -0.1334 0.4209
C14F C 0.6369(3) -0.23233(19) 0.4542(2)
H8F H 0.6430 -0.2524 0.4098
C15F C 0.6428(3) -0.27345(17) 0.5131(2)
H9F H 0.6513 -0.3220 0.5091
C16F C 0.6360(2) -0.24242(15) 0.57873(18)
C17F C 0.6436(3) -0.28393(17) 0.6440(2)
C18F C 0.6454(2) -0.24498(18) 0.7147(2)
C19F C 0.63785(19) -0.16708(16) 0.71319(16)
C20F C 0.6451(2) -0.1277(2) 0.77426(16)
H10F H 0.6533 -0.1501 0.8174
C21F C 0.6402(3) -0.0565(2) 0.77087(16)
H11F H 0.6452 -0.0292 0.8114
C22F C 0.6275(2) -0.02486(17) 0.70555(15)
H12F H 0.6239 0.0241 0.7034
C23F C 0.62595(16) -0.13175(13) 0.64964(13)
C24F C 0.62380(17) -0.16904(13) 0.58177(14)
H13B H 0.4362(19) 0.4976(14) 0.0856(14)
H13F H 0.5638(19) 0.5024(14) -0.0856(14)
H13F_2 H 0.5638(19) 0.5024(14) 0.9144(14)
H13D H 0.4362(19) 0.0024(14) 0.5856(14)
O10 O 0.6269(3) 0.94064(15) 0.31591(18)
H14 H 0.649(4) 0.911(2) 0.286(2)
H15 H 0.631(5) 0.981(2) 0.293(3)
loop_
_geom_bond_atom_site_label_1
_geom_bond_atom_site_label_2
_geom_bond_site_symmetry_1
_geom_bond_site_symmetry_2
Zn1 O1 1_555 1_555
Co1 N1 1_555 1_555
N1 C13 1_555 1_555
N2 Co1 1_555 1_555
O1 C1 1_555 1_555
O2 C1 1_555 1_555
O3 Co1 1_555 1_555
O4 C8 1_555 1_555
O5 C9 1_555 1_555
O6 Zn1 1_555 1_555
O7 C17 1_555 1_555
O8 C18 1_555 1_555
O9 Zn1 1_555 1_555
O10 H14 1_555 1_555
C1 C2 1_555 1_555
C2 C3 1_555 1_555
C3 H1 1_555 1_555
C4 C3 1_555 1_555
H2 C4 1_555 1_555
C5 C4 1_555 1_555
C6 C5 1_555 1_555
H3 C6 1_555 1_555
C7 C2 1_555 1_555
H4 C7 1_555 1_555
C8 O3 1_555 1_555
C9 O6 1_555 1_555
C10 C9 1_555 1_555
C11 C10 1_555 1_555
H5 C11 1_555 1_555
C12 C10 1_555 1_555
H6 C12 1_555 1_555
C13 H7 1_555 1_555
C14 C13 1_555 1_555
H8 C14 1_555 1_555
C15 C14 1_555 1_555
H9 C15 1_555 1_555
C16 C15 1_555 1_555
C17 C16 1_555 1_555
C18 C17 1_555 1_555
C19 C18 1_555 1_555
C20 C19 1_555 1_555
H10 C20 1_555 1_555
C21 C20 1_555 1_555
H11 C21 1_555 1_555
C22 N2 1_555 1_555
H12 C22 1_555 1_555
C23 N2 1_555 1_555
C24 N1 1_555 1_555
H13 O9 1_555 1_555
H15 O10 1_555 1_555
Zn1F O1F 1_555 1_555
Zn1F_2 O4 1_555 1_555
Zn1D O6D 1_555 1_555
Zn1B O9B 1_555 1_555
Co1F O5 1_555 1_555
Co1B O9 1_555 1_555
Co1B_2 O5D 1_555 1_555
Co1D O9B 1_555 1_555
N1F Co1F 1_555 1_555
N2F Co1F 1_555 1_555
O1F C1F 1_555 1_555
O2F C1F 1_555 1_555
O3F Co1F 1_555 1_555
O4F Zn1 1_555 1_555
O4_2 Zn1F 1_555 1_555
O5D C9D 1_555 1_555
O5F Co1 1_555 1_555
O6D C9D 1_555 1_555
O6F Zn1F 1_555 1_555
O7F C17F 1_555 1_555
O8F C18F 1_555 1_555
O9B Co1 1_555 1_555
O9F Co1 1_555 1_555
O9F_2 Zn1F 1_555 1_555
O9D Co1F 1_555 1_555
C1F C2F 1_555 1_555
C2F C3F 1_555 1_555
C3F H1F 1_555 1_555
C4F C3F 1_555 1_555
H2F C4F 1_555 1_555
C5F C4F 1_555 1_555
C6F C5F 1_555 1_555
H3F C6F 1_555 1_555
C7F C2F 1_555 1_555
H4F C7F 1_555 1_555
C8F O3F 1_555 1_555
C9D C10D 1_555 1_555
C10D C11D 1_555 1_555
C11D C12 1_555 1_555
H5D C11D 1_555 1_555
C12D C11 1_555 1_555
H6D C12D 1_555 1_555
C13F N1F 1_555 1_555
H7F C13F 1_555 1_555
C14F C13F 1_555 1_555
H8F C14F 1_555 1_555
C15F C14F 1_555 1_555
H9F C15F 1_555 1_555
C16F C15F 1_555 1_555
C17F C16F 1_555 1_555
C18F C17F 1_555 1_555
C19F C18F 1_555 1_555
C20F C19F 1_555 1_555
H10F C20F 1_555 1_555
C21F C20F 1_555 1_555
H11F C21F 1_555 1_555
C22F N2F 1_555 1_555
H12F C22F 1_555 1_555
C23F N2F 1_555 1_555
C24F N1F 1_555 1_555
H13B O9B 1_555 1_555
H13F O9F 1_555 1_555
H13F_2 O9F_2 1_555 1_555
H13D O9D 1_555 1_555
O9 Co1F 1_555 1_555
C5 C8 1_555 1_555
C6 C7 1_555 1_555
C16 C24 1_555 1_555
C19 C23 1_555 1_555
C21 C22 1_555 1_555
C23 C24 1_555 1_555
Zn1F_2 O9F 1_555 1_555
Co1B O9D 1_555 1_555
Co1D O9F 1_555 1_555
O4F C8F 1_555 1_555
C5F C8F 1_555 1_555
C6F C7F 1_555 1_555
C10D C12D 1_555 1_555
C16F C24F 1_555 1_555
C19F C23F 1_555 1_555
C21F C22F 1_555 1_555
C23F C24F 1_555 1_555

#END
