
#######################################################################
#
#                 Cambridge Crystallographic Data Centre
#                                CCDC 
#
#######################################################################
#
# If this CIF has been generated from an entry in the Cambridge 
# Structural Database, then it will include bibliographic, chemical, 
# crystal, experimental, refinement or atomic coordinate data resulting 
# from the CCDC's data processing and validation procedures.
#
#######################################################################

data_NIRGAY
_chemical_formula_moiety         '(C72 H72 Mn3 N2 O22)n'
_symmetry_cell_setting           triclinic
_symmetry_space_group_name_H-M   'P -1'
_symmetry_Int_Tables_number      2
_space_group_name_Hall           '-P 1'
loop_
_symmetry_equiv_pos_site_id
_symmetry_equiv_pos_as_xyz
1 x,y,z
2 -x,-y,-z
_cell_length_a                   16.1796(15)
_cell_length_b                   19.1505(17)
_cell_length_c                   19.5848(12)
_cell_angle_alpha                112.451(2)
_cell_angle_beta                 93.548(3)
_cell_angle_gamma                104.215(2)
_cell_volume                     5353.95
loop_
_atom_site_label
_atom_site_type_symbol
_atom_site_fract_x
_atom_site_fract_y
_atom_site_fract_z
C1 C 0.5724(2) 0.00059(19) 0.25756(19)
C2 C 0.6308(2) 0.0839(2) 0.29073(19)
C3 C 0.5965(2) 0.1460(2) 0.3131(2)
H1 H 0.5368 0.1360 0.3087
C4 C 0.6496(2) 0.22435(18) 0.34261(18)
H2 H 0.6253 0.2659 0.3582
C5 C 0.7376(2) 0.23910(18) 0.34824(18)
C6 C 0.7738(2) 0.17822(19) 0.3308(2)
H3 H 0.8337 0.1887 0.3385
C7 C 0.7194(2) 0.0986(2) 0.3006(2)
H4 H 0.7436 0.0570 0.2878
C8 C 0.7577(2) 0.37930(18) 0.39439(17)
H5 H 0.7229 0.3789 0.4329
H6 H 0.7204 0.3736 0.3507
C9 C 0.8282(2) 0.45578(17) 0.42245(17)
C10 C 0.8531(2) 0.49220(18) 0.37408(16)
C11 C 0.9069(2) 0.56939(18) 0.40331(17)
C12 C 0.9452(2) 0.60868(18) 0.47954(17)
C13 C 0.9267(2) 0.56944(19) 0.52661(17)
C14 C 0.8681(2) 0.49296(19) 0.49940(16)
C15 C 0.9297(2) 0.6105(2) 0.34986(19)
H7 H 0.8895 0.5822 0.3027
H8 H 0.9261 0.6642 0.3721
C16 C 1.0545(2) 0.6496(2) 0.29623(19)
C17 C 1.0111(2) 0.6767(2) 0.25379(19)
H9 H 0.9519 0.6698 0.2519
C18 C 1.0572(2) 0.7148(2) 0.21360(19)
H10 H 1.0274 0.7328 0.1849
C19 C 1.1444(2) 0.72683(19) 0.21462(18)
C20 C 1.1876(2) 0.6995(2) 0.25801(19)
H11 H 1.2468 0.7069 0.2601
C21 C 1.1433(2) 0.6615(2) 0.29826(19)
H12 H 1.1733 0.6436 0.3271
C22 C 1.1951(2) 0.77206(19) 0.17396(18)
C23 C 0.9762(2) 0.6055(2) 0.60528(16)
H13 H 0.9791 0.5642 0.6218
H14 H 1.0348 0.6352 0.6070
C24 C 0.9726(2) 0.6981(2) 0.72833(17)
C25 C 0.9327(3) 0.7478(2) 0.7774(2)
H15 H 0.8790 0.7502 0.7601
C26 C 0.9702(3) 0.7929(2) 0.8500(2)
H16 H 0.9454 0.8302 0.8799
C27 C 1.0459(2) 0.7845(2) 0.88095(18)
C28 C 1.0836(2) 0.7358(2) 0.83244(18)
H17 H 1.1342 0.7295 0.8511
C29 C 1.0509(2) 0.6945(2) 0.75602(18)
H18 H 1.0816 0.6648 0.7241
C30 C 1.0867(3) 0.8297(2) 0.9633(2)
C31 C 0.8200(2) 0.4471(2) 0.29094(17)
H19 H 0.7765 0.4671 0.2761
H20 H 0.7955 0.3921 0.2797
H21 H 0.8670 0.4533 0.2641
C32 C 1.0046(2) 0.69323(19) 0.51106(19)
H22 H 1.0566 0.6942 0.4899
H23 H 1.0189 0.7128 0.5646
H24 H 0.9756 0.7260 0.4985
C33 C 0.8464(2) 0.45045(19) 0.55097(17)
H25 H 0.8949 0.4340 0.5627
H26 H 0.7969 0.4050 0.5262
H27 H 0.8337 0.4856 0.5964
C34 C 0.3957(2) -0.18018(19) 0.06724(17)
C35 C 0.3980(2) -0.2269(2) -0.01320(17)
C36 C 0.3497(2) -0.2187(2) -0.06978(18)
H28 H 0.3167 -0.1835 -0.0575
C37 C 0.3511(2) -0.26260(19) -0.14299(17)
H29 H 0.3186 -0.2570 -0.1804
C38 C 0.4002(2) -0.3160(2) -0.16344(17)
C39 C 0.4506(2) -0.3218(2) -0.10814(17)
H30 H 0.4858 -0.3550 -0.1208
C40 C 0.4493(2) -0.2780(2) -0.03293(18)
H31 H 0.4828 -0.2829 0.0044
C41 C 0.4400(2) -0.42042(19) -0.26262(17)
H32 H 0.4214 -0.4577 -0.2403
H33 H 0.5023 -0.3973 -0.2482
C42 C 0.4131(2) -0.46093(19) -0.34876(17)
C43 C 0.4469(2) -0.41981(19) -0.39134(17)
C44 C 0.4171(2) -0.45514(19) -0.46929(18)
C45 C 0.3549(2) -0.5291(2) -0.50349(17)
C46 C 0.3246(2) -0.57070(19) -0.46058(17)
C47 C 0.3562(2) -0.53698(19) -0.38320(17)
C48 C 0.2637(2) -0.65469(19) -0.4953(2)
H34 H 0.2295 -0.6653 -0.4595
H35 H 0.2250 -0.6631 -0.5394
C49 C 0.29615(14) -0.77761(10) -0.57405(10)
C50 C 0.21985(13) -0.80840(12) -0.62587(12)
H36 H 0.1796 -0.7802 -0.6203
C51 C 0.20375(12) -0.88134(13) -0.68598(11)
H37 H 0.1527 -0.9019 -0.7207
C52 C 0.26395(14) -0.92348(10) -0.69427(10)
C53 C 0.34025(12) -0.89270(11) -0.64245(12)
H38 H 0.3805 -0.9209 -0.6480
C54 C 0.35635(11) -0.81976(12) -0.58234(11)
H39 H 0.4074 -0.7992 -0.5477
C55 C 0.2511(2) -1.0007(2) -0.76083(19)
C56 C 0.4539(2) -0.4137(2) -0.51815(19)
H40 H 0.5146 -0.3850 -0.4989
H41 H 0.4483 -0.4518 -0.5693
C57 C 0.4217(2) -0.3179(2) -0.55970(18)
C58 C 0.4869(2) -0.3250(2) -0.60462(19)
H42 H 0.5218 -0.3571 -0.6049
C59 C 0.4969(2) -0.2815(2) -0.64889(19)
H43 H 0.5390 -0.2864 -0.6792
C60 C 0.4495(2) -0.2332(2) -0.65034(19)
C61 C 0.3848(2) -0.2258(2) -0.6048(2)
H44 H 0.3502 -0.1939 -0.6058
C62 C 0.3721(2) -0.2680(2) -0.55650(19)
H45 H 0.3318 -0.2615 -0.5245
C63 C 0.4598(2) -0.1910(2) -0.7016(2)
C64 C 0.5100(2) -0.3376(2) -0.3511(2)
H46 H 0.5152 -0.3112 -0.3842
H47 H 0.5656 -0.3416 -0.3359
H48 H 0.4891 -0.3080 -0.3076
C65 C 0.3239(2) -0.5856(2) -0.33699(19)
H49 H 0.3692 -0.5734 -0.2966
H50 H 0.3081 -0.6410 -0.3689
H51 H 0.2744 -0.5724 -0.3169
C66 C 0.3219(3) -0.5563(2) -0.58927(18)
H52 H 0.3117 -0.5128 -0.5978
H53 H 0.2691 -0.5988 -0.6051
H54 H 0.3649 -0.5740 -0.6174
C67 C 0.6947(3) -0.0758(2) 0.1034(2)
H55 H 0.7515 -0.0719 0.1197
C68 C 0.7518(3) 0.0654(2) 0.1200(2)
H56 H 0.7638 0.0917 0.1738
H57 H 0.7352 0.0992 0.0995
H58 H 0.8028 0.0535 0.1021
C69 C 0.5937(3) -0.0072(2) 0.0712(2)
H59 H 0.5771 -0.0385 0.0181
H60 H 0.5943 0.0462 0.0820
H61 H 0.5529 -0.0285 0.0969
C70 C 0.2683(3) 0.0465(2) 0.0857(2)
H62 H 0.2137 0.0481 0.0698
C71 C 0.4197(3) 0.1255(3) 0.1603(2)
H63 H 0.4167 0.0902 0.1847
H64 H 0.4478 0.1787 0.1958
H65 H 0.4521 0.1115 0.1202
C72 C 0.3096(3) 0.1940(2) 0.1509(2)
H66 H 0.3036 0.2059 0.1078
H67 H 0.3547 0.2357 0.1892
H68 H 0.2560 0.1891 0.1697
Mn1 Mn 0.38596(3) -0.11289(3) 0.21689(2)
Mn2 Mn 0.21415(3) -0.11855(3) 0.09345(2)
Mn3 Mn 0.57313(3) -0.17709(3) 0.17399(3)
N1 N 0.6807(2) -0.00860(19) 0.09653(18)
N2 N 0.3316(2) 0.11950(19) 0.12969(18)
O1 O 0.60701(15) -0.05383(14) 0.23939(13)
O2 O 0.49126(13) -0.00986(11) 0.24959(11)
O3 O 0.79519(14) 0.31344(12) 0.37459(12)
O4 O 1.15438(13) 0.79746(12) 0.13695(11)
O5 O 1.27643(13) 0.78190(11) 0.18183(11)
O6 O 1.01728(14) 0.61082(14) 0.33718(13)
O7 O 1.05460(18) 0.87632(17) 1.00664(14)
O8 O 1.15229(16) 0.81665(14) 0.98273(13)
O9 O 0.93198(14) 0.65795(13) 0.65461(12)
O10 O 0.44464(14) -0.18275(13) 0.11778(11)
O11 O 0.34416(14) -0.13871(13) 0.08426(11)
O12 O 0.39516(14) -0.35876(13) -0.23960(11)
O13 O 0.30129(14) -1.04052(12) -0.76280(11)
O14 O 0.18736(17) -1.02375(14) -0.81222(13)
O15 O 0.32058(15) -0.70468(13) -0.51529(12)
O16 O 0.51063(17) -0.20999(15) -0.74903(14)
O17 O 0.42007(13) -0.14288(12) -0.69396(11)
O18 O 0.40335(15) -0.35913(14) -0.51567(12)
O19 O 0.63589(14) -0.14363(12) 0.08918(11)
O20 O 0.28022(16) -0.01793(15) 0.06727(14)
O21 O 0.70226(17) -0.16942(16) 0.22635(14)
O22 O 0.55931(15) -0.29901(13) 0.10808(12)
Mn1_2 Mn 0.38596(3) -1.11289(3) -0.78311(2)
Mn1_3 Mn 0.38596(3) -0.11289(3) -0.78311(2)
Mn1_4 Mn 1.38596(3) 0.88711(3) 0.21689(2)
Mn2_2 Mn 0.21415(3) -1.11855(3) -0.90655(2)
Mn2_3 Mn 1.21415(3) 0.88145(3) 0.09345(2)
Mn2_4 Mn 1.21415(3) 0.88145(3) 1.09345(2)
Mn3_2 Mn 0.57313(3) -0.17709(3) -0.82601(3)
O4_2 O 0.15438(13) -0.20254(12) 0.13695(11)
O5_2 O 0.27643(13) -0.21810(11) 0.18183(11)
O8_2 O 0.15229(16) -0.18335(14) -0.01727(13)
O13_2 O 0.30129(14) -0.04052(12) 0.23720(11)
O14_2 O 0.18736(17) -0.02375(14) 0.18778(13)
O16_2 O 0.51063(17) -0.20999(15) 0.25097(14)
O17_2 O 0.42007(13) -0.14288(12) 0.30604(11)
loop_
_geom_bond_atom_site_label_1
_geom_bond_atom_site_label_2
_geom_bond_site_symmetry_1
_geom_bond_site_symmetry_2
C1 C2 1_555 1_555
C2 C3 1_555 1_555
C3 H1 1_555 1_555
C4 C3 1_555 1_555
H2 C4 1_555 1_555
C5 C4 1_555 1_555
C6 C5 1_555 1_555
H3 C6 1_555 1_555
C7 C2 1_555 1_555
H4 C7 1_555 1_555
C8 H5 1_555 1_555
H6 C8 1_555 1_555
C9 C8 1_555 1_555
C10 C9 1_555 1_555
C11 C10 1_555 1_555
C12 C11 1_555 1_555
C13 C12 1_555 1_555
C14 C9 1_555 1_555
C15 C11 1_555 1_555
H7 C15 1_555 1_555
H8 C15 1_555 1_555
C16 C17 1_555 1_555
C17 H9 1_555 1_555
C18 C17 1_555 1_555
H10 C18 1_555 1_555
C19 C18 1_555 1_555
C20 C19 1_555 1_555
H11 C20 1_555 1_555
C21 C16 1_555 1_555
H12 C21 1_555 1_555
C22 C19 1_555 1_555
C23 C13 1_555 1_555
H13 C23 1_555 1_555
H14 C23 1_555 1_555
C24 C25 1_555 1_555
C25 H15 1_555 1_555
C26 C25 1_555 1_555
H16 C26 1_555 1_555
C27 C26 1_555 1_555
C28 C27 1_555 1_555
H17 C28 1_555 1_555
C29 C24 1_555 1_555
H18 C29 1_555 1_555
C30 C27 1_555 1_555
C31 C10 1_555 1_555
H19 C31 1_555 1_555
H20 C31 1_555 1_555
H21 C31 1_555 1_555
C32 C12 1_555 1_555
H22 C32 1_555 1_555
H23 C32 1_555 1_555
H24 C32 1_555 1_555
C33 C14 1_555 1_555
H25 C33 1_555 1_555
H26 C33 1_555 1_555
H27 C33 1_555 1_555
C34 C35 1_555 1_555
C35 C36 1_555 1_555
C36 H28 1_555 1_555
C37 C36 1_555 1_555
H29 C37 1_555 1_555
C38 C37 1_555 1_555
C39 C38 1_555 1_555
H30 C39 1_555 1_555
C40 C35 1_555 1_555
H31 C40 1_555 1_555
C41 H32 1_555 1_555
H33 C41 1_555 1_555
C42 C41 1_555 1_555
C43 C42 1_555 1_555
C44 C43 1_555 1_555
C45 C44 1_555 1_555
C46 C45 1_555 1_555
C47 C42 1_555 1_555
C48 C46 1_555 1_555
H34 C48 1_555 1_555
H35 C48 1_555 1_555
C49 C50 1_555 1_555
C50 H36 1_555 1_555
C51 C50 1_555 1_555
H37 C51 1_555 1_555
C52 C51 1_555 1_555
C53 C52 1_555 1_555
H38 C53 1_555 1_555
C54 C49 1_555 1_555
H39 C54 1_555 1_555
C55 C52 1_555 1_555
C56 C44 1_555 1_555
H40 C56 1_555 1_555
H41 C56 1_555 1_555
C57 C58 1_555 1_555
C58 H42 1_555 1_555
C59 C58 1_555 1_555
H43 C59 1_555 1_555
C60 C59 1_555 1_555
C61 C60 1_555 1_555
H44 C61 1_555 1_555
C62 C57 1_555 1_555
H45 C62 1_555 1_555
C63 C60 1_555 1_555
C64 C43 1_555 1_555
H46 C64 1_555 1_555
H47 C64 1_555 1_555
H48 C64 1_555 1_555
C65 C47 1_555 1_555
H49 C65 1_555 1_555
H50 C65 1_555 1_555
H51 C65 1_555 1_555
C66 C45 1_555 1_555
H52 C66 1_555 1_555
H53 C66 1_555 1_555
H54 C66 1_555 1_555
C67 H55 1_555 1_555
C68 H56 1_555 1_555
H57 C68 1_555 1_555
H58 C68 1_555 1_555
C69 H59 1_555 1_555
H60 C69 1_555 1_555
H61 C69 1_555 1_555
C70 H62 1_555 1_555
C71 H63 1_555 1_555
H64 C71 1_555 1_555
H65 C71 1_555 1_555
C72 H66 1_555 1_555
H67 C72 1_555 1_555
H68 C72 1_555 1_555
Mn1 O2 1_555 1_555
Mn2 O11 1_555 1_555
Mn3 O1 1_555 1_555
N1 C67 1_555 1_555
N2 C70 1_555 1_555
O1 C1 1_555 1_555
O2 C1 1_555 1_555
O3 C5 1_555 1_555
O4 C22 1_555 1_555
O5 C22 1_555 1_555
O6 C15 1_555 1_555
O7 C30 1_555 1_555
O8 C30 1_555 1_555
O9 C23 1_555 1_555
O10 C34 1_555 1_555
O11 C34 1_555 1_555
O12 C38 1_555 1_555
O13 C55 1_555 1_555
O14 C55 1_555 1_555
O15 C48 1_555 1_555
O16 C63 1_555 1_555
O17 C63 1_555 1_555
O18 C56 1_555 1_555
O19 C67 1_555 1_555
O20 C70 1_555 1_555
O21 Mn3 1_555 1_555
O22 Mn3 1_555 1_555
Mn1_2 O13 1_555 1_555
Mn1_3 O17 1_555 1_555
Mn1_4 O5 1_555 1_555
Mn2_2 O14 1_555 1_555
Mn2_3 O4 1_555 1_555
Mn2_4 O8 1_555 1_555
Mn3_2 O16 1_555 1_555
O4_2 Mn2 1_555 1_555
O5_2 Mn1 1_555 1_555
O8_2 Mn2 1_555 1_555
O13_2 Mn1 1_555 1_555
O14_2 Mn2 1_555 1_555
O16_2 Mn3 1_555 1_555
O17_2 Mn1 1_555 1_555
C6 C7 1_555 1_555
C8 O3 1_555 1_555
C13 C14 1_555 1_555
C16 O6 1_555 1_555
C20 C21 1_555 1_555
C24 O9 1_555 1_555
C28 C29 1_555 1_555
C39 C40 1_555 1_555
C41 O12 1_555 1_555
C46 C47 1_555 1_555
C49 O15 1_555 1_555
C53 C54 1_555 1_555
C57 O18 1_555 1_555
C61 C62 1_555 1_555
C68 N1 1_555 1_555
C69 N1 1_555 1_555
C71 N2 1_555 1_555
C72 N2 1_555 1_555
Mn1 O10 1_555 1_555
Mn1 O11 1_555 1_555
Mn2 O20 1_555 1_555
Mn3 O10 1_555 1_555
Mn3 O19 1_555 1_555

#END
