
#######################################################################
#
#                 Cambridge Crystallographic Data Centre
#                                CCDC 
#
#######################################################################
#
# If this CIF has been generated from an entry in the Cambridge 
# Structural Database, then it will include bibliographic, chemical, 
# crystal, experimental, refinement or atomic coordinate data resulting 
# from the CCDC's data processing and validation procedures.
#
#######################################################################

data_QUQYUY
_chemical_formula_moiety         '(C58 H40 Cu5 N16 Re6 S8)n'
_symmetry_cell_setting           orthorhombic
_symmetry_space_group_name_H-M   'P c c n'
_symmetry_Int_Tables_number      56
_space_group_name_Hall           '-P 2ab 2ac'
loop_
_symmetry_equiv_pos_site_id
_symmetry_equiv_pos_as_xyz
1 x,y,z
2 1/2-x,1/2-y,z
3 1/2+x,-y,1/2-z
4 -x,1/2+y,1/2-z
5 -x,-y,-z
6 1/2+x,1/2+y,-z
7 1/2-x,y,1/2+z
8 x,1/2-y,1/2+z
_cell_length_a                   23.3762(6)
_cell_length_b                   13.4461(3)
_cell_length_c                   21.3499(5)
_cell_angle_alpha                90
_cell_angle_beta                 90
_cell_angle_gamma                90
_cell_volume                     6710.67
loop_
_atom_site_label
_atom_site_type_symbol
_atom_site_fract_x
_atom_site_fract_y
_atom_site_fract_z
Cu3 Cu 0.31954(3) 0.37927(5) 0.67276(4)
C19 C 0.3572(4) 0.3449(6) 0.5362(4)
H13 H 0.3363 0.2861 0.5379
N7 N 0.3580(2) 0.4040(4) 0.5863(2)
C20 C 0.3865(4) 0.3679(7) 0.4819(4)
H14 H 0.3851 0.3258 0.4474
N8 N 0.35923(18) 0.5075(3) 0.6900(2)
C21 C 0.4165(4) 0.4506(8) 0.4801(4)
H15 H 0.4374 0.4656 0.4442
C22 C 0.4176(3) 0.5154(7) 0.5299(4)
H16 H 0.4380 0.5747 0.5278
C23 C 0.3870(2) 0.4891(5) 0.5838(3)
C24 C 0.3850(2) 0.5500(4) 0.6406(3)
C25 C 0.4084(3) 0.6446(5) 0.6456(4)
H17 H 0.4268 0.6735 0.6115
C26 C 0.4042(4) 0.6947(5) 0.7006(4)
H18 H 0.4194 0.7584 0.7041
C27 C 0.3780(3) 0.6524(4) 0.7505(3)
H19 H 0.3750 0.6858 0.7885
C28 C 0.3560(3) 0.5585(4) 0.7431(3)
H20 H 0.3380 0.5289 0.7772
C29 C 0.2671(2) 0.2800(3) 0.6896(2)
C29A C 0.2329(2) 0.2200(3) 0.6896(2)
Cu3A Cu 0.18046(3) 0.12073(5) 0.67276(4)
C19A C 0.1428(4) 0.1551(6) 0.5362(4)
H13A H 0.1637 0.2139 0.5379
N7A N 0.1420(2) 0.0960(4) 0.5863(2)
C20A C 0.1135(4) 0.1321(7) 0.4819(4)
H14A H 0.1149 0.1742 0.4474
N8A N 0.14077(18) -0.0075(3) 0.6900(2)
C21A C 0.0835(4) 0.0494(8) 0.4801(4)
H15A H 0.0626 0.0344 0.4442
C22A C 0.0824(3) -0.0154(7) 0.5299(4)
H16A H 0.0620 -0.0747 0.5278
C23A C 0.1130(2) 0.0109(5) 0.5838(3)
C24A C 0.1150(2) -0.0500(4) 0.6406(3)
C25A C 0.0916(3) -0.1446(5) 0.6456(4)
H17A H 0.0732 -0.1735 0.6115
C26A C 0.0958(4) -0.1947(5) 0.7006(4)
H18A H 0.0806 -0.2584 0.7041
C27A C 0.1220(3) -0.1524(4) 0.7505(3)
H19A H 0.1250 -0.1858 0.7885
C28A C 0.1440(3) -0.0585(4) 0.7431(3)
H20A H 0.1620 -0.0289 0.7772
C1 C 0.0163(2) -0.0223(4) 0.2773(2)
H1 H -0.0060 0.0183 0.2519
N1 N 0.06719(16) 0.0114(2) 0.29547(16)
C2 C -0.0051(2) -0.1138(4) 0.2939(2)
H2 H -0.0405 -0.1351 0.2794
N2 N 0.16895(16) 0.0825(2) 0.32418(15)
C3 C 0.0275(3) -0.1731(4) 0.3326(3)
H3 H 0.0138 -0.2346 0.3458
C4 C 0.0804(2) -0.1405(3) 0.3515(2)
H4 H 0.1030 -0.1798 0.3775
C5 C 0.09977(19) -0.0476(3) 0.33129(18)
C6 C 0.15720(19) -0.0077(3) 0.34796(18)
C7 C 0.1969(2) -0.0589(4) 0.3836(2)
H5 H 0.1883 -0.1215 0.3995
C8 C 0.2496(3) -0.0159(5) 0.3954(3)
H6 H 0.2767 -0.0493 0.4195
C9 C 0.2615(2) 0.0752(4) 0.3717(3)
H7 H 0.2965 0.1057 0.3790
C10 C 0.2198(2) 0.1211(4) 0.3363(2)
H8 H 0.2280 0.1836 0.3199
Cu1 Cu 0.10154(2) 0.15606(3) 0.27800(2)
N3 N 0.09565(15) 0.1643(2) 0.18723(15)
C11 C 0.07809(16) 0.1379(3) 0.13988(16)
S1 S 0.06772(4) -0.09162(7) 0.10099(4)
Re1 Re 0.027643(6) 0.088979(10) -0.058286(6)
S2 S 0.04999(4) -0.05331(7) -0.12201(4)
Re2 Re 0.063402(6) -0.078717(10) -0.011493(6)
S3 S 0.00114(4) 0.21805(6) 0.01462(4)
S4 S 0.11908(4) 0.07290(7) -0.00642(4)
Re3 Re 0.037452(6) 0.068120(10) 0.062784(6)
N4 N 0.07469(17) 0.2573(3) 0.33536(15)
C12 C 0.05858(18) 0.3110(3) 0.37312(17)
Cu2 Cu 0.2500 -0.2500 0.00922(3)
C13 C 0.2318(2) -0.0545(4) 0.0813(3)
H9 H 0.2358 -0.0228 0.0428
N5 N 0.24655(16) -0.1508(3) 0.08580(18)
C14 C 0.2110(2) -0.0010(5) 0.1310(3)
H10 H 0.2003 0.0652 0.1264
C15 C 0.2065(3) -0.0477(6) 0.1869(3)
H11 H 0.1928 -0.0131 0.2215
C16 C 0.2220(3) -0.1464(5) 0.1931(3)
H12 H 0.2190 -0.1786 0.2315
C17 C 0.2422(2) -0.1962(4) 0.1408(2)
N6 N 0.17653(15) -0.2168(3) -0.02751(17)
C18 C 0.13591(16) -0.1695(3) -0.02426(17)
C13A C 0.2682(2) -0.4455(4) 0.0813(3)
H9A H 0.2642 -0.4772 0.0428
N5A N 0.25345(16) -0.3492(3) 0.08580(18)
C14A C 0.2890(2) -0.4990(5) 0.1310(3)
H10A H 0.2997 -0.5652 0.1264
C15A C 0.2935(3) -0.4523(6) 0.1869(3)
H11A H 0.3072 -0.4869 0.2215
C16A C 0.2780(3) -0.3536(5) 0.1931(3)
H12A H 0.2810 -0.3214 0.2315
C17A C 0.2578(2) -0.3038(4) 0.1408(2)
C1A C 0.4837(2) -0.4777(4) 0.2773(2)
H1A H 0.5060 -0.5183 0.2519
N1A N 0.43281(16) -0.5114(2) 0.29547(16)
C2A C 0.5051(2) -0.3862(4) 0.2939(2)
H2A H 0.5405 -0.3649 0.2794
N2A N 0.33105(16) -0.5825(2) 0.32418(15)
C3A C 0.4725(3) -0.3269(4) 0.3326(3)
H3A H 0.4862 -0.2654 0.3458
C4A C 0.4196(2) -0.3595(3) 0.3515(2)
H4A H 0.3970 -0.3202 0.3775
C5A C 0.40023(19) -0.4524(3) 0.33129(18)
C6A C 0.34280(19) -0.4923(3) 0.34796(18)
C7A C 0.3031(2) -0.4411(4) 0.3836(2)
H5A H 0.3117 -0.3785 0.3995
C8A C 0.2504(3) -0.4841(5) 0.3954(3)
H6A H 0.2233 -0.4507 0.4195
C9A C 0.2385(2) -0.5752(4) 0.3717(3)
H7A H 0.2035 -0.6057 0.3790
C10A C 0.2802(2) -0.6211(4) 0.3363(2)
H8A H 0.2720 -0.6836 0.3199
Cu1A Cu 0.39846(2) -0.65606(3) 0.27800(2)
N3A N 0.40435(15) -0.6643(2) 0.18723(15)
C11A C 0.42191(16) -0.6379(3) 0.13988(16)
S1A S 0.43228(4) -0.40838(7) 0.10099(4)
Re1A Re 0.472357(6) -0.588979(10) -0.058286(6)
S2A S 0.45001(4) -0.44669(7) -0.12201(4)
Re2A Re 0.436598(6) -0.421283(10) -0.011493(6)
S3A S 0.49886(4) -0.71805(6) 0.01462(4)
S4A S 0.38092(4) -0.57290(7) -0.00642(4)
Re3A Re 0.462548(6) -0.568120(10) 0.062784(6)
N4A N 0.42531(17) -0.7573(3) 0.33536(15)
C12A C 0.44142(18) -0.8110(3) 0.37312(17)
N6A N 0.32347(15) -0.2832(3) -0.02751(17)
C18A C 0.36409(16) -0.3305(3) -0.02426(17)
S1D S -0.06772(4) 0.09162(7) -0.10099(4)
S1E S 0.56772(4) -0.59162(7) -0.10099(4)
Re1D Re -0.027643(6) -0.088979(10) 0.058286(6)
Re1E Re 0.527643(6) -0.411021(10) 0.058286(6)
Re1F Re 0.472357(6) -0.911021(10) 0.441714(6)
Re1G Re 0.027643(6) 0.411021(10) 0.441714(6)
S2D S -0.04999(4) 0.05331(7) 0.12201(4)
S2E S 0.54999(4) -0.55331(7) 0.12201(4)
Re2D Re -0.063402(6) 0.078717(10) 0.011493(6)
Re2E Re 0.563402(6) -0.578717(10) 0.011493(6)
S3D S -0.00114(4) -0.21805(6) -0.01462(4)
S3E S 0.50114(4) -0.28195(6) -0.01462(4)
Re3D Re -0.037452(6) -0.068120(10) -0.062784(6)
Re3E Re 0.537452(6) -0.431880(10) -0.062784(6)
C12F C 0.44142(18) -0.6890(3) -0.12688(17)
C12G C 0.05858(18) 0.1890(3) -0.12688(17)
loop_
_geom_bond_atom_site_label_1
_geom_bond_atom_site_label_2
_geom_bond_site_symmetry_1
_geom_bond_site_symmetry_2
C1 H1 1_555 1_555
N1 C1 1_555 1_555
C2 C1 1_555 1_555
H2 C2 1_555 1_555
N2 C6 1_555 1_555
C3 C2 1_555 1_555
H3 C3 1_555 1_555
C4 C3 1_555 1_555
H4 C4 1_555 1_555
C5 N1 1_555 1_555
C6 C5 1_555 1_555
C7 C6 1_555 1_555
H5 C7 1_555 1_555
C8 C7 1_555 1_555
H6 C8 1_555 1_555
C9 C8 1_555 1_555
H7 C9 1_555 1_555
C10 N2 1_555 1_555
H8 C10 1_555 1_555
Cu1 N1 1_555 1_555
N3 Cu1 1_555 1_555
C11 N3 1_555 1_555
S1 Re2 1_555 1_555
Re1 S2 1_555 1_555
S2 Re2 1_555 1_555
Re2 Re1 1_555 1_555
S3 Re1 1_555 1_555
S4 Re1 1_555 1_555
Re3 C11 1_555 1_555
N4 Cu1 1_555 1_555
C12 N4 1_555 1_555
Cu2 N5 1_555 1_555
C13 H9 1_555 1_555
N5 C13 1_555 1_555
C14 C13 1_555 1_555
H10 C14 1_555 1_555
C15 C14 1_555 1_555
H11 C15 1_555 1_555
C16 C15 1_555 1_555
H12 C16 1_555 1_555
C17 N5 1_555 1_555
N6 Cu2 1_555 1_555
C18 Re2 1_555 1_555
Cu3 N7 1_555 1_555
C19 H13 1_555 1_555
N7 C19 1_555 1_555
C20 C19 1_555 1_555
H14 C20 1_555 1_555
N8 Cu3 1_555 1_555
C21 C20 1_555 1_555
H15 C21 1_555 1_555
C22 C21 1_555 1_555
H16 C22 1_555 1_555
C23 N7 1_555 1_555
C24 N8 1_555 1_555
C25 C24 1_555 1_555
H17 C25 1_555 1_555
C26 C25 1_555 1_555
H18 C26 1_555 1_555
C27 C26 1_555 1_555
H19 C27 1_555 1_555
C28 N8 1_555 1_555
H20 C28 1_555 1_555
C29 Cu3 1_555 1_555
C13A H9A 1_555 1_555
N5A Cu2 1_555 1_555
C14A C13A 1_555 1_555
H10A C14A 1_555 1_555
C15A C14A 1_555 1_555
H11A C15A 1_555 1_555
C16A C15A 1_555 1_555
H12A C16A 1_555 1_555
C17A C17 1_555 1_555
C1A H1A 1_555 1_555
N1A C1A 1_555 1_555
C2A C1A 1_555 1_555
H2A C2A 1_555 1_555
N2A C6A 1_555 1_555
C3A C2A 1_555 1_555
H3A C3A 1_555 1_555
C4A C3A 1_555 1_555
H4A C4A 1_555 1_555
C5A N1A 1_555 1_555
C6A C5A 1_555 1_555
C7A C6A 1_555 1_555
H5A C7A 1_555 1_555
C8A C7A 1_555 1_555
H6A C8A 1_555 1_555
C9A C8A 1_555 1_555
H7A C9A 1_555 1_555
C10A N2A 1_555 1_555
H8A C10A 1_555 1_555
Cu1A N1A 1_555 1_555
N3A Cu1A 1_555 1_555
C11A N3A 1_555 1_555
S1A Re2A 1_555 1_555
Re1A S2A 1_555 1_555
S2A Re2A 1_555 1_555
Re2A Re1A 1_555 1_555
S3A Re1A 1_555 1_555
S4A Re1A 1_555 1_555
Re3A C11A 1_555 1_555
N4A Cu1A 1_555 1_555
C12A N4A 1_555 1_555
N6A Cu2 1_555 1_555
C18A Re2A 1_555 1_555
S1D Re1 1_555 1_555
S1E Re1A 1_555 1_555
Re1D S1 1_555 1_555
Re1E S1A 1_555 1_555
Re1F C12A 1_555 1_555
Re1G C12 1_555 1_555
S2D Re3 1_555 1_555
S2E Re3A 1_555 1_555
Re2D Re1 1_555 1_555
Re2E Re1A 1_555 1_555
S3D Re2 1_555 1_555
S3E Re2A 1_555 1_555
Re3D Re1 1_555 1_555
Re3E Re1A 1_555 1_555
C12F Re1A 1_555 1_555
C12G Re1 1_555 1_555
C29A C29 1_555 1_555
Cu3A C29A 1_555 1_555
C19A H13A 1_555 1_555
N7A Cu3A 1_555 1_555
C20A C19A 1_555 1_555
H14A C20A 1_555 1_555
N8A Cu3A 1_555 1_555
C21A C20A 1_555 1_555
H15A C21A 1_555 1_555
C22A C21A 1_555 1_555
H16A C22A 1_555 1_555
C23A N7A 1_555 1_555
C24A N8A 1_555 1_555
C25A C24A 1_555 1_555
H17A C25A 1_555 1_555
C26A C25A 1_555 1_555
H18A C26A 1_555 1_555
C27A C26A 1_555 1_555
H19A C27A 1_555 1_555
C28A N8A 1_555 1_555
H20A C28A 1_555 1_555
N2 Cu1 1_555 1_555
C4 C5 1_555 1_555
C9 C10 1_555 1_555
S1 Re3 1_555 1_555
Re1 Re3 1_555 1_555
S2 Re3D 1_555 1_555
Re2 S4 1_555 1_555
Re2 Re3 1_555 1_555
Re2 Re1D 1_555 1_555
Re2 Re3D 1_555 1_555
S3 Re3 1_555 1_555
S3 Re2D 1_555 1_555
S4 Re3 1_555 1_555
Re3 Re1D 1_555 1_555
Re3 Re2D 1_555 1_555
C16 C17 1_555 1_555
N6 C18 1_555 1_555
C22 C23 1_555 1_555
C23 C24 1_555 1_555
C27 C28 1_555 1_555
C13A N5A 1_555 1_555
N5A C17A 1_555 1_555
C16A C17A 1_555 1_555
N2A Cu1A 1_555 1_555
C4A C5A 1_555 1_555
C9A C10A 1_555 1_555
S1A Re3A 1_555 1_555
Re1A Re3A 1_555 1_555
S2A Re3E 1_555 1_555
Re2A S4A 1_555 1_555
Re2A Re3A 1_555 1_555
Re2A Re1E 1_555 1_555
Re2A Re3E 1_555 1_555
S3A Re3A 1_555 1_555
S3A Re2E 1_555 1_555
S4A Re3A 1_555 1_555
Re3A Re1E 1_555 1_555
Re3A Re2E 1_555 1_555
N6A C18A 1_555 1_555
S1D Re2D 1_555 1_555
S1D Re3D 1_555 1_555
S1E Re2E 1_555 1_555
S1E Re3E 1_555 1_555
Re1D S2D 1_555 1_555
Re1D Re2D 1_555 1_555
Re1D S3D 1_555 1_555
Re1D Re3D 1_555 1_555
Re1E S2E 1_555 1_555
Re1E Re2E 1_555 1_555
Re1E S3E 1_555 1_555
Re1E Re3E 1_555 1_555
S2D Re2D 1_555 1_555
S2E Re2E 1_555 1_555
Re2D Re3D 1_555 1_555
Re2E Re3E 1_555 1_555
S3D Re3D 1_555 1_555
S3E Re3E 1_555 1_555
C19A N7A 1_555 1_555
C22A C23A 1_555 1_555
C23A C24A 1_555 1_555
C27A C28A 1_555 1_555

#END
