
#######################################################################
#
#                 Cambridge Crystallographic Data Centre
#                                CCDC 
#
#######################################################################
#
# If this CIF has been generated from an entry in the Cambridge 
# Structural Database, then it will include bibliographic, chemical, 
# crystal, experimental, refinement or atomic coordinate data resulting 
# from the CCDC's data processing and validation procedures.
#
#######################################################################

data_REXCOO
_chemical_formula_moiety         '(C94 H72 I12 N24 O9 Zn6)n'
_symmetry_cell_setting           monoclinic
_symmetry_space_group_name_H-M   'C c'
_symmetry_Int_Tables_number      9
_space_group_name_Hall           'C -2yc'
loop_
_symmetry_equiv_pos_site_id
_symmetry_equiv_pos_as_xyz
1 x,y,z
2 x,-y,1/2+z
3 1/2+x,1/2+y,z
4 1/2+x,1/2-y,1/2+z
_cell_length_a                   34.534(6)
_cell_length_b                   15.028(3)
_cell_length_c                   31.197(6)
_cell_angle_alpha                90
_cell_angle_beta                 101.215(3)
_cell_angle_gamma                90
_cell_volume                     15881.4
loop_
_atom_site_label
_atom_site_type_symbol
_atom_site_fract_x
_atom_site_fract_y
_atom_site_fract_z
_atom_site_U_iso_or_equiv
_atom_site_thermal_displace_type
Zn1 Zn 0.53540(10) -0.09102(16) 0.73576(11) 0.0927 Uani
I1 I 0.55218(7) -0.23351(11) 0.69861(8) 0.1484 Uani
I2 I 0.51225(7) -0.08099(16) 0.80721(7) 0.1388 Uani
N1 N 0.4931(4) -0.0244(8) 0.6891(5) 0.0757 Uani
C1 C 0.4809(5) 0.0595(9) 0.6936(6) 0.0767 Uani
H1 H 0.4945 0.0908 0.7185 0.0920 Uiso
C2 C 0.4512(5) 0.1060(11) 0.6667(5) 0.0779 Uani
H2 H 0.4422 0.1629 0.6737 0.0930 Uiso
C3 C 0.4361(5) 0.0620(9) 0.6289(5) 0.0631 Uani
C4 C 0.4437(6) -0.0283(10) 0.6281(7) 0.0769 Uani
H3 H 0.4258 -0.0640 0.6083 0.0920 Uiso
C5 C 0.4754(5) -0.0698(10) 0.6537(5) 0.0737 Uani
H4 H 0.4841 -0.1271 0.6469 0.0880 Uiso
C6 C 0.4032(5) 0.1081(8) 0.5976(5) 0.0553 Uani
N2 N 0.3971(4) 0.1954(8) 0.6015(5) 0.0691 Uani
C7 C 0.3701(5) 0.2295(8) 0.5688(5) 0.0673 Uani
N3 N 0.3451(4) 0.1849(7) 0.5376(4) 0.0569 Uani
C8 C 0.3532(5) 0.0978(8) 0.5399(5) 0.0528 Uani
N4 N 0.3843(4) 0.0579(7) 0.5649(4) 0.0494 Uani
N5 N 0.3466(5) 0.5075(7) 0.5677(5) 0.0706 Uani
C9 C 0.3240(5) 0.4561(9) 0.5440(5) 0.0679 Uani
H5 H 0.3011 0.4808 0.5261 0.0820 Uiso
C10 C 0.3298(5) 0.3620(10) 0.5415(6) 0.0763 Uani
H6 H 0.3123 0.3248 0.5221 0.0920 Uiso
C11 C 0.3634(6) 0.3288(7) 0.5699(6) 0.0716 Uani
C12 C 0.3854(5) 0.3818(9) 0.5979(7) 0.0835 Uani
H7 H 0.4063 0.3593 0.6195 0.1000 Uiso
C13 C 0.3770(5) 0.4722(8) 0.5947(6) 0.0757 Uani
H8 H 0.3943 0.5114 0.6132 0.0910 Uiso
Zn2 Zn 0.33725(11) 0.64316(17) 0.56345(11) 0.0997 Uani
I3 I 0.39892(7) 0.73589(11) 0.58756(7) 0.1199 Uani
I4 I 0.29114(8) 0.67040(12) 0.48913(7) 0.1368 Uani
N6 N 0.2901(4) -0.0545(6) 0.4310(4) 0.0669 Uani
C14 C 0.3177(5) -0.0957(8) 0.4605(5) 0.0694 Uani
H9 H 0.3253 -0.1556 0.4569 0.0830 Uiso
C15 C 0.3342(5) -0.0455(10) 0.4960(5) 0.0691 Uani
H10 H 0.3503 -0.0773 0.5191 0.0830 Uiso
C16 C 0.3309(5) 0.0411(9) 0.5027(4) 0.0585 Uani
C17 C 0.3035(5) 0.0814(9) 0.4708(5) 0.0726 Uani
H11 H 0.2978 0.1429 0.4731 0.0870 Uiso
C18 C 0.2841(5) 0.0330(7) 0.4354(5) 0.0684 Uani
H12 H 0.2658 0.0628 0.4133 0.0820 Uiso
Zn3 Zn 0.24793(11) -0.12043(15) 0.38594(10) 0.1115 Uani
I5 I 0.18918(7) -0.15292(14) 0.41879(7) 0.1462 Uani
I6 I 0.28681(8) -0.23123(11) 0.34843(8) 0.1661 Uani
N7 N 0.2329(5) -0.0208(10) 0.3377(5) 0.1038 Uani
C19 C 0.2020(5) 0.0311(9) 0.3394(6) 0.0967 Uani
H13 H 0.1847 0.0149 0.3584 0.1160 Uiso
C20 C 0.1939(5) 0.1074(10) 0.3147(6) 0.0842 Uani
H14 H 0.1700 0.1394 0.3132 0.1010 Uiso
C21 C 0.2224(5) 0.1350(9) 0.2921(5) 0.0782 Uani
C22 C 0.2532(5) 0.0806(11) 0.2881(6) 0.1025 Uani
H15 H 0.2706 0.0951 0.2690 0.1230 Uiso
C23 C 0.2579(6) 0.0042(11) 0.3127(6) 0.1093 Uani
H16 H 0.2801 -0.0325 0.3118 0.1310 Uiso
C24 C 0.2150(5) 0.2129(9) 0.2608(5) 0.0624 Uani
N8 N 0.1885(4) 0.2730(8) 0.2678(5) 0.0650 Uani
C25 C 0.1823(5) 0.3392(9) 0.2391(5) 0.0665 Uani
N9 N 0.2050(4) 0.3588(8) 0.2106(5) 0.0692 Uani
C26 C 0.2327(5) 0.2983(9) 0.2086(6) 0.0744 Uani
N10 N 0.2393(4) 0.2257(8) 0.2334(5) 0.0687 Uani
N11 N 0.0849(4) 0.5132(10) 0.2407(6) 0.0920 Uani
C27 C 0.1079(4) 0.5235(10) 0.2118(5) 0.0937 Uani
H17 H 0.1009 0.5681 0.1901 0.1130 Uiso
C28 C 0.1414(4) 0.4743(9) 0.2109(5) 0.0812 Uani
H18 H 0.1582 0.4873 0.1910 0.0970 Uiso
C29 C 0.1494(4) 0.4042(10) 0.2408(6) 0.0689 Uani
C30 C 0.1282(5) 0.3979(10) 0.2728(6) 0.0831 Uani
H19 H 0.1357 0.3585 0.2968 0.1000 Uiso
C31 C 0.0949(4) 0.4513(11) 0.2691(6) 0.0821 Uani
H20 H 0.0781 0.4412 0.2894 0.0990 Uiso
N12 N 0.3054(5) 0.3365(8) 0.1126(6) 0.1057 Uani
C32 C 0.3085(7) 0.2682(10) 0.1400(7) 0.1100 Uani
H21 H 0.3282 0.2253 0.1377 0.1320 Uiso
C33 C 0.2865(5) 0.2529(9) 0.1711(8) 0.0975 Uani
H22 H 0.2927 0.2053 0.1913 0.1170 Uiso
C34 C 0.2554(5) 0.3079(10) 0.1723(7) 0.0935 Uani
C35 C 0.2474(7) 0.3724(12) 0.1412(7) 0.1093 Uani
H23 H 0.2242 0.4076 0.1384 0.1310 Uiso
C36 C 0.2737(6) 0.3853(11) 0.1140(8) 0.1098 Uani
H24 H 0.2687 0.4339 0.0942 0.1320 Uiso
Zn1C Zn 0.03540(10) 0.59102(16) 0.23576(11) 0.0927 Uani
Zn2A Zn 0.33725(11) 0.35684(17) 0.06345(11) 0.0997 Uani
N11C N 0.5849(4) -0.0132(10) 0.7407(6) 0.0920 Uani
N12A N 0.3054(5) 0.6635(8) 0.6126(6) 0.1057 Uani
Zn4 Zn -0.01008(11) 0.64471(15) 0.51684(13) 0.1181 Uani
I7 I 0.03265(9) 0.67455(12) 0.59046(8) 0.1845 Uani
I8 I -0.07413(8) 0.72877(12) 0.48762(10) 0.2008 Uani
N13 N 0.0232(4) 0.6489(10) 0.4698(5) 0.0917 Uani
C37 C 0.0141(6) 0.7100(11) 0.4396(6) 0.0971 Uani
H25 H -0.0077 0.7479 0.4404 0.1170 Uiso
C38 C 0.0350(5) 0.7212(12) 0.4069(7) 0.0992 Uani
H26 H 0.0243 0.7585 0.3829 0.1190 Uiso
C39 C 0.0703(5) 0.6811(11) 0.4076(5) 0.0836 Uani
C40 C 0.0746(6) 0.6092(12) 0.4354(6) 0.0940 Uani
H27 H 0.0926 0.5639 0.4311 0.1130 Uiso
C41 C 0.0546(5) 0.5990(12) 0.4686(7) 0.0963 Uani
H28 H 0.0631 0.5561 0.4908 0.1160 Uiso
C42 C 0.0969(5) 0.7013(10) 0.3778(5) 0.0654 Uani
N14 N 0.0897(5) 0.7717(9) 0.3516(4) 0.0607 Uani
C43 C 0.1123(5) 0.7829(9) 0.3219(5) 0.0603 Uani
N15 N 0.1429(4) 0.7306(8) 0.3187(4) 0.0606 Uani
C44 C 0.1473(4) 0.6598(9) 0.3452(5) 0.0604 Uani
N16 N 0.1272(4) 0.6481(9) 0.3769(4) 0.0571 Uani
N17 N 0.0949(4) 1.0115(8) 0.2410(4) 0.0607 Uani
C45 C 0.1271(4) 0.9637(9) 0.2447(5) 0.0694 Uani
H29 H 0.1478 0.9812 0.2303 0.0830 Uiso
C46 C 0.1306(5) 0.8878(10) 0.2697(5) 0.0700 Uani
H30 H 0.1511 0.8471 0.2673 0.0840 Uiso
C47 C 0.1062(5) 0.8676(9) 0.2979(4) 0.0581 Uani
C48 C 0.0722(5) 0.9163(10) 0.2892(5) 0.0769 Uani
H31 H 0.0510 0.8985 0.3026 0.0920 Uiso
C49 C 0.0667(5) 0.9894(10) 0.2623(5) 0.0742 Uani
H32 H 0.0431 1.0234 0.2590 0.0890 Uiso
Zn5 Zn 0.08032(9) 1.12144(15) 0.19922(10) 0.0895 Uani
I9 I 0.04188(8) 1.23069(11) 0.23533(8) 0.1479 Uani
I10 I 0.14087(8) 1.15478(13) 0.16467(7) 0.1506 Uani
N18 N 0.2498(4) 0.4982(8) 0.3451(4) 0.0773 Uani
C50 C 0.2370(5) 0.5233(10) 0.3814(5) 0.0875 Uani
H33 H 0.2522 0.5017 0.4080 0.1050 Uiso
C51 C 0.2049(4) 0.5759(9) 0.3857(4) 0.0830 Uani
H34 H 0.1983 0.5889 0.4133 0.1000 Uiso
C52 C 0.1833(4) 0.6078(10) 0.3469(4) 0.0643 Uani
C53 C 0.2007(4) 0.5945(9) 0.3119(5) 0.0720 Uani
H35 H 0.1901 0.6275 0.2863 0.0870 Uiso
C54 C 0.2319(4) 0.5387(9) 0.3091(4) 0.0700 Uani
H36 H 0.2402 0.5297 0.2821 0.0840 Uiso
Zn6 Zn 0.29457(9) 0.40754(17) 0.34964(10) 0.0881 Uani
I11 I 0.27721(7) 0.26462(10) 0.38550(8) 0.1423 Uani
I12 I 0.31740(7) 0.41891(17) 0.27671(8) 0.1461 Uani
N19 N 0.3351(5) 0.4711(8) 0.3942(6) 0.0814 Uani
C55 C 0.3392(5) 0.5587(9) 0.3914(6) 0.0819 Uani
H37 H 0.3225 0.5893 0.3682 0.0980 Uiso
C56 C 0.3663(5) 0.6075(10) 0.4202(6) 0.0713 Uani
H38 H 0.3663 0.6707 0.4196 0.0860 Uiso
C57 C 0.3956(5) 0.5573(9) 0.4524(6) 0.0652 Uani
C58 C 0.3869(6) 0.4683(10) 0.4582(7) 0.0723 Uani
H39 H 0.3984 0.4368 0.4839 0.0860 Uiso
C59 C 0.3607(5) 0.4281(11) 0.4247(6) 0.0793 Uani
H40 H 0.3609 0.3649 0.4233 0.0950 Uiso
C60 C 0.4243(5) 0.6017(9) 0.4866(6) 0.0611 Uani
N20 N 0.4300(4) 0.6908(7) 0.4805(5) 0.0563 Uani
C61 C 0.4605(5) 0.7273(7) 0.5069(5) 0.0559 Uani
N21 N 0.4823(4) 0.6798(8) 0.5395(5) 0.0651 Uani
C62 C 0.4727(5) 0.5944(9) 0.5468(6) 0.0643 Uani
N22 N 0.4468(5) 0.5523(9) 0.5166(5) 0.0719 Uani
N23 N 0.4757(5) 1.0105(9) 0.5158(6) 0.0863 Uani
C63 C 0.4937(6) 0.9561(9) 0.5462(6) 0.0925 Uani
H41 H 0.5099 0.9815 0.5713 0.1110 Uiso
C64 C 0.4906(6) 0.8656(9) 0.5442(6) 0.0830 Uani
H42 H 0.5047 0.8310 0.5676 0.1000 Uiso
C65 C 0.4680(6) 0.8239(8) 0.5095(6) 0.0739 Uani
C66 C 0.4446(6) 0.8831(9) 0.4806(7) 0.0868 Uani
H43 H 0.4248 0.8587 0.4583 0.1040 Uiso
C67 C 0.4486(7) 0.9741(9) 0.4825(7) 0.0908 Uani
H44 H 0.4329 1.0110 0.4612 0.1090 Uiso
N24 N 0.5467(4) 0.4566(9) 0.6462(5) 0.0941 Uani
C68 C 0.5137(4) 0.4210(10) 0.6235(5) 0.0915 Uani
H45 H 0.5084 0.3618 0.6314 0.1100 Uiso
C69 C 0.4858(5) 0.4573(9) 0.5901(5) 0.0749 Uani
H46 H 0.4630 0.4281 0.5745 0.0900 Uiso
C70 C 0.4979(6) 0.5479(10) 0.5830(6) 0.0706 Uani
C71 C 0.5326(6) 0.5868(11) 0.6046(6) 0.0880 Uani
H47 H 0.5396 0.6451 0.5972 0.1050 Uiso
C72 C 0.5574(5) 0.5387(9) 0.6376(6) 0.0942 Uani
H48 H 0.5811 0.5641 0.6533 0.1130 Uiso
Zn4B Zn 0.48992(11) 1.14471(15) 0.51684(13) 0.1181 Uani
Zn5C Zn 0.58032(9) 0.37856(15) 0.69922(10) 0.0895 Uani
N23B N -0.0243(5) 0.5105(9) 0.5158(6) 0.0863 Uani
N24C N 0.0467(4) 1.0434(9) 0.1462(5) 0.0941 Uani
C73 C 0.1534(7) 0.1158(11) 0.6157(7) 0.1140 Uiso
H49 H 0.1434 0.0693 0.5960 0.1370 Uiso
C74 C 0.1108(5) 0.2208(11) 0.5657(5) 0.1500 Uiso
O1 O 0.0961(5) 0.1445(12) 0.5448(5) 0.1710 Uiso
C75 C 0.0349(8) 0.2249(14) 0.4452(7) 0.1960 Uiso
C76 C 0.1387(6) 0.2024(12) 0.6077(5) 0.1320 Uiso
C77 C 0.0599(7) 0.2272(12) 0.4863(7) 0.1710 Uiso
C78 C 0.0724(7) 0.1458(11) 0.5052(6) 0.1790 Uiso
C79 C 0.1959(7) 0.1646(14) 0.6816(6) 0.1320 Uiso
C80 C 0.1009(5) 0.3007(12) 0.5468(5) 0.1640 Uiso
C81 C 0.1827(5) 0.2518(14) 0.6731(5) 0.1380 Uiso
C82 C 0.1825(7) 0.0969(14) 0.6520(7) 0.1170 Uiso
H50 H 0.1930 0.0385 0.6567 0.1410 Uiso
C83 C 0.1538(6) 0.2696(11) 0.6362(6) 0.1340 Uiso
H51 H 0.1444 0.3287 0.6307 0.1600 Uiso
C84 C 0.0212(8) 0.1456(16) 0.4248(7) 0.2150 Uiso
O2 O 0.1173(8) 0.3767(12) 0.5650(9) 0.1850 Uiso
C85 C 0.0330(8) 0.0665(13) 0.4467(8) 0.2070 Uiso
C86 C 0.0584(8) 0.0645(12) 0.4872(7) 0.1980 Uiso
C87 C 0.0743(7) 0.3090(11) 0.5060(6) 0.1580 Uiso
O3 O 0.2240(6) 0.1509(16) 0.7178(6) 0.1320 Uiso
O4 O 0.0710(8) -0.0103(14) 0.5097(10) 0.2070 Uiso
C88 C -0.0187(9) -0.043(3) 0.4127(15) 0.1540 Uiso
H52 H -0.0225 -0.0588 0.3817 0.2300 Uiso
H53 H -0.0377 0.0028 0.4168 0.2300 Uiso
H54 H -0.0228 -0.0963 0.4296 0.2300 Uiso
O5 O 0.0202(8) -0.0110(15) 0.4272(9) 0.2080 Uiso
O6 O 0.0235(8) 0.2994(16) 0.4214(9) 0.1950 Uiso
O7 O 0.0653(7) 0.3799(13) 0.4846(7) 0.1630 Uiso
C89 C 0.1051(12) 0.443(2) 0.5919(12) 0.1390 Uiso
H55 H 0.1281 0.4758 0.6070 0.2080 Uiso
H56 H 0.0919 0.4142 0.6135 0.2080 Uiso
H57 H 0.0867 0.4835 0.5738 0.2080 Uiso
O8 O 0.1999(8) 0.3161(16) 0.7007(8) 0.1590 Uiso
O9 O -0.0019(8) 0.133(3) 0.3853(8) 0.2500 Uiso
C90 C 0.2362(12) 0.352(3) 0.6910(17) 0.2190 Uiso
H58 H 0.2471 0.3962 0.7134 0.3290 Uiso
H59 H 0.2306 0.3815 0.6623 0.3290 Uiso
H60 H 0.2552 0.3043 0.6907 0.3290 Uiso
C91 C 0.2563(9) 0.091(3) 0.7197(13) 0.1470 Uiso
H61 H 0.2742 0.0971 0.7481 0.2210 Uiso
H62 H 0.2705 0.1055 0.6963 0.2210 Uiso
H63 H 0.2464 0.0300 0.7161 0.2210 Uiso
C92 C 0.0454(12) -0.084(2) 0.5113(12) 0.1850 Uiso
H64 H 0.0529 -0.1332 0.4937 0.2780 Uiso
H65 H 0.0181 -0.0667 0.4995 0.2780 Uiso
H66 H 0.0477 -0.1040 0.5416 0.2780 Uiso
C93 C 0.0526(11) 0.356(2) 0.4083(9) 0.1520 Uiso
H67 H 0.0435 0.4175 0.4068 0.2280 Uiso
H68 H 0.0569 0.3369 0.3794 0.2280 Uiso
H69 H 0.0775 0.3509 0.4296 0.2280 Uiso
C94 C 0.009(2) 0.178(3) 0.3487(9) 0.2900 Uiso
H70 H 0.0326 0.2133 0.3586 0.4310 Uiso
H71 H -0.0128 0.2163 0.3348 0.4310 Uiso
H72 H 0.0141 0.1332 0.3275 0.4310 Uiso
loop_
_atom_site_aniso_label
_atom_site_aniso_U_11
_atom_site_aniso_U_22
_atom_site_aniso_U_33
_atom_site_aniso_U_23
_atom_site_aniso_U_13
_atom_site_aniso_U_12
Zn1 0.096(2) 0.0499(15) 0.111(2) 0.0173(16) -0.032(2) -0.0189(15)
I1 0.158(2) 0.0555(11) 0.188(2) -0.0190(12) -0.0743(18) 0.0099(12)
I2 0.1216(19) 0.156(2) 0.1243(18) 0.0464(15) -0.0123(15) -0.0471(16)
N1 0.064(7) 0.047(6) 0.091(8) 0.012(6) -0.047(6) -0.035(6)
C1 0.065(8) 0.050(7) 0.092(8) -0.004(7) -0.042(7) -0.023(6)
C2 0.073(8) 0.051(7) 0.091(8) -0.002(7) -0.030(7) -0.018(6)
C3 0.074(7) 0.043(6) 0.063(7) 0.007(6) -0.010(6) -0.014(6)
C4 0.083(8) 0.053(7) 0.079(8) 0.008(7) -0.023(7) -0.012(7)
C5 0.074(8) 0.052(7) 0.075(8) 0.019(7) -0.035(7) -0.016(7)
C6 0.069(7) 0.037(5) 0.054(6) 0.005(5) -0.003(6) -0.009(5)
N2 0.072(7) 0.053(6) 0.071(7) 0.010(6) -0.014(6) -0.010(6)
C7 0.076(7) 0.049(6) 0.066(6) 0.018(6) -0.013(6) -0.020(6)
N3 0.057(7) 0.045(6) 0.053(6) 0.007(5) -0.028(5) -0.017(5)
C8 0.070(7) 0.034(5) 0.041(6) -0.007(5) -0.022(5) -0.026(5)
N4 0.075(7) 0.019(5) 0.044(6) 0.000(5) -0.014(6) -0.023(5)
N5 0.084(8) 0.043(6) 0.077(8) -0.014(6) -0.004(6) -0.008(6)
C9 0.078(8) 0.036(6) 0.079(8) -0.007(6) -0.011(7) 0.006(6)
C10 0.094(9) 0.037(6) 0.089(8) -0.012(6) -0.004(7) -0.003(6)
C11 0.086(7) 0.032(6) 0.083(7) 0.000(6) -0.018(6) -0.017(6)
C12 0.084(8) 0.053(7) 0.098(8) 0.002(7) -0.021(7) -0.029(7)
C13 0.079(8) 0.044(6) 0.086(8) -0.016(7) -0.029(7) -0.030(7)
Zn2 0.150(3) 0.0436(15) 0.107(2) 0.0038(15) 0.029(2) 0.0023(17)
I3 0.1475(17) 0.0627(10) 0.1555(15) -0.0222(10) 0.0445(13) -0.0236(10)
I4 0.199(2) 0.0754(11) 0.1156(14) 0.0079(10) -0.0199(14) 0.0082(12)
N6 0.102(7) 0.024(5) 0.052(6) -0.015(5) -0.041(6) -0.007(5)
C14 0.110(8) 0.022(5) 0.054(7) 0.007(5) -0.039(6) -0.013(6)
C15 0.093(8) 0.042(6) 0.051(7) 0.010(6) -0.039(6) -0.011(6)
C16 0.087(7) 0.025(5) 0.047(6) 0.007(5) -0.028(6) -0.011(5)
C17 0.100(8) 0.021(5) 0.068(7) -0.004(5) -0.055(6) 0.009(6)
C18 0.093(7) 0.026(5) 0.061(6) -0.002(5) -0.047(5) 0.024(5)
Zn3 0.174(3) 0.0333(14) 0.090(2) 0.0085(14) -0.066(2) -0.0091(17)
I5 0.163(2) 0.1091(15) 0.1273(18) 0.0320(13) -0.0684(17) -0.0602(15)
I6 0.235(3) 0.0514(11) 0.163(2) -0.0116(12) -0.082(2) 0.0367(13)
N7 0.094(10) 0.041(7) 0.154(10) 0.010(7) -0.031(9) -0.001(7)
C19 0.087(10) 0.036(7) 0.144(10) 0.008(7) -0.035(9) -0.014(7)
C20 0.070(9) 0.033(6) 0.127(10) 0.013(7) -0.037(8) -0.017(6)
C21 0.083(8) 0.031(6) 0.104(8) 0.014(6) -0.023(7) 0.001(6)
C22 0.101(9) 0.055(7) 0.135(10) 0.026(7) -0.018(8) 0.016(7)
C23 0.101(10) 0.057(8) 0.155(11) 0.026(8) -0.012(9) 0.020(7)
C24 0.058(7) 0.023(5) 0.088(7) 0.012(6) -0.031(6) 0.008(5)
N8 0.069(7) 0.030(5) 0.084(7) -0.013(6) -0.015(6) -0.002(5)
C25 0.066(7) 0.029(5) 0.097(8) -0.014(6) -0.003(6) 0.006(5)
N9 0.063(7) 0.027(5) 0.113(8) 0.005(6) 0.006(7) -0.007(5)
C26 0.073(7) 0.024(5) 0.119(8) 0.011(6) 0.001(6) 0.006(5)
N10 0.059(7) 0.028(5) 0.101(8) 0.016(6) -0.029(6) 0.018(5)
N11 0.085(9) 0.057(6) 0.126(10) 0.001(7) 0.001(7) 0.023(7)
C27 0.086(9) 0.059(7) 0.129(10) 0.016(7) 0.003(8) 0.029(7)
C28 0.071(8) 0.051(6) 0.119(9) 0.014(6) 0.012(7) 0.033(6)
C29 0.062(7) 0.037(5) 0.100(8) -0.006(6) -0.003(6) 0.026(5)
C30 0.080(9) 0.049(7) 0.110(9) 0.002(7) -0.007(8) 0.027(6)
C31 0.075(8) 0.051(7) 0.112(10) 0.004(7) -0.002(8) 0.026(7)
N12 0.138(10) 0.021(5) 0.168(10) 0.021(6) 0.054(9) 0.022(6)
C32 0.137(10) 0.032(6) 0.171(11) 0.034(7) 0.055(9) 0.027(7)
C33 0.122(10) 0.023(5) 0.158(10) 0.044(7) 0.053(8) 0.019(6)
C34 0.108(8) 0.024(5) 0.151(9) 0.032(6) 0.031(7) 0.012(6)
C35 0.125(10) 0.049(6) 0.160(10) 0.038(7) 0.043(9) 0.031(7)
C36 0.138(11) 0.033(6) 0.167(11) 0.051(7) 0.051(9) 0.027(7)
Zn1C 0.096 0.0499 0.111 -0.0173 -0.032 0.0189
Zn2A 0.15 0.0436 0.107 -0.0038 0.029 -0.0023
N11C 0.085 0.057 0.126 -0.001 0.001 -0.023
N12A 0.138 0.021 0.168 -0.021 0.054 -0.022
Zn4 0.157(3) 0.0223(12) 0.199(3) 0.0151(17) 0.094(3) -0.0054(16)
I7 0.322(3) 0.0778(12) 0.184(2) -0.0660(13) 0.124(2) -0.0953(16)
I8 0.234(3) 0.0635(11) 0.365(4) 0.1105(16) 0.207(3) 0.0796(14)
N13 0.073(8) 0.086(8) 0.123(9) 0.013(7) 0.036(8) 0.013(7)
C37 0.087(9) 0.096(9) 0.120(10) 0.015(8) 0.049(8) 0.014(8)
C38 0.098(9) 0.089(8) 0.112(9) 0.009(8) 0.024(8) 0.015(8)
C39 0.083(8) 0.071(7) 0.095(8) 0.007(6) 0.013(7) 0.008(6)
C40 0.089(9) 0.088(8) 0.109(9) 0.019(8) 0.029(8) 0.014(7)
C41 0.084(9) 0.093(9) 0.122(9) 0.020(8) 0.045(8) 0.013(7)
C42 0.075(7) 0.059(6) 0.054(6) 0.006(6) -0.008(6) 0.003(6)
N14 0.074(7) 0.057(6) 0.044(6) 0.001(6) -0.006(6) 0.003(6)
C43 0.077(7) 0.055(6) 0.038(6) -0.003(6) -0.016(6) 0.000(6)
N15 0.073(7) 0.050(6) 0.043(6) 0.022(5) -0.028(6) 0.006(6)
C44 0.071(7) 0.051(6) 0.045(6) 0.018(5) -0.024(6) 0.008(6)
N16 0.065(7) 0.056(6) 0.039(6) 0.018(5) -0.018(6) 0.013(6)
N17 0.097(9) 0.038(6) 0.035(6) 0.012(5) -0.017(6) 0.016(6)
C45 0.096(9) 0.060(7) 0.038(7) 0.019(6) -0.022(7) 0.005(7)
C46 0.090(9) 0.069(7) 0.039(7) 0.016(6) -0.017(7) 0.007(7)
C47 0.087(8) 0.060(6) 0.020(6) 0.005(5) -0.008(6) 0.012(6)
C48 0.110(9) 0.070(7) 0.043(7) 0.010(6) -0.004(7) 0.042(7)
C49 0.105(9) 0.065(7) 0.046(7) 0.012(6) -0.002(7) 0.031(7)
Zn5 0.117(3) 0.0333(13) 0.090(2) 0.0119(14) -0.0495(19) -0.0095(14)
I9 0.220(3) 0.0542(11) 0.1420(17) -0.0073(12) -0.0325(17) 0.0498(13)
I10 0.200(3) 0.0939(14) 0.1261(18) 0.0311(13) -0.0471(18) -0.0720(15)
N18 0.101(8) 0.074(7) 0.044(7) 0.001(6) -0.018(7) 0.050(6)
C50 0.106(9) 0.084(7) 0.067(7) 0.022(7) 0.003(7) 0.041(7)
C51 0.102(8) 0.075(7) 0.061(7) 0.028(6) -0.011(7) 0.036(6)
C52 0.084(7) 0.054(6) 0.038(6) 0.022(5) -0.030(6) 0.020(5)
C53 0.095(9) 0.057(7) 0.044(7) 0.019(6) -0.036(7) 0.021(6)
C54 0.098(9) 0.058(7) 0.041(7) -0.003(6) -0.019(7) 0.020(6)
Zn6 0.072(2) 0.0559(15) 0.111(2) -0.0213(16) -0.0449(18) 0.0247(14)
I11 0.1354(19) 0.0507(10) 0.195(2) -0.0054(12) -0.0811(17) -0.0049(10)
I12 0.1156(18) 0.172(2) 0.1308(19) -0.0638(17) -0.0249(15) 0.0284(16)
N19 0.075(8) 0.035(6) 0.115(9) -0.007(7) -0.029(7) -0.001(6)
C55 0.069(8) 0.039(6) 0.115(9) 0.009(7) -0.038(7) 0.015(6)
C56 0.060(8) 0.029(6) 0.103(8) 0.000(6) -0.038(7) 0.009(6)
C57 0.061(7) 0.028(5) 0.092(7) 0.005(6) -0.021(6) 0.009(5)
C58 0.070(8) 0.028(6) 0.100(8) 0.007(6) -0.030(7) 0.007(6)
C59 0.081(9) 0.025(6) 0.115(9) 0.004(7) -0.023(7) 0.003(6)
C60 0.047(6) 0.036(5) 0.089(7) 0.008(6) -0.015(6) 0.004(5)
N20 0.052(7) 0.019(5) 0.090(7) 0.016(5) -0.006(6) 0.010(5)
C61 0.056(7) 0.018(5) 0.087(7) 0.012(5) -0.003(6) 0.002(5)
N21 0.069(7) 0.027(5) 0.093(7) -0.011(5) 0.000(6) -0.008(5)
C62 0.068(7) 0.024(5) 0.093(7) -0.006(5) -0.004(6) -0.006(5)
N22 0.066(7) 0.036(6) 0.105(8) 0.002(6) -0.005(6) 0.006(6)
N23 0.103(9) 0.035(6) 0.116(9) -0.002(6) 0.009(8) 0.007(6)
C63 0.109(9) 0.045(7) 0.112(9) -0.002(7) -0.007(8) -0.018(7)
C64 0.100(9) 0.031(6) 0.105(9) 0.010(7) -0.012(7) -0.013(7)
C65 0.079(7) 0.023(5) 0.107(8) 0.010(6) -0.013(6) -0.005(6)
C66 0.090(9) 0.033(6) 0.128(9) 0.005(7) -0.002(8) -0.004(7)
C67 0.101(9) 0.038(7) 0.126(10) 0.015(7) 0.004(8) 0.004(7)
N24 0.103(9) 0.040(6) 0.115(9) -0.004(6) -0.039(7) 0.005(6)
C68 0.106(9) 0.031(6) 0.113(9) -0.006(6) -0.039(8) -0.002(6)
C69 0.086(8) 0.015(5) 0.104(8) -0.007(6) -0.030(7) -0.001(6)
C70 0.082(7) 0.020(5) 0.099(7) -0.001(6) -0.009(6) 0.003(5)
C71 0.102(9) 0.034(6) 0.110(9) 0.010(6) -0.024(8) -0.001(6)
C72 0.097(9) 0.050(7) 0.114(9) 0.008(7) -0.033(8) -0.003(7)
Zn4B 0.157 0.0223 0.199 0.0151 0.094 -0.0054
Zn5C 0.117 0.0333 0.09 -0.0119 -0.0495 0.0095
N23B 0.103 0.035 0.116 -0.002 0.009 0.007
N24C 0.103 0.04 0.115 0.004 -0.039 -0.005
loop_
_geom_bond_atom_site_label_1
_geom_bond_atom_site_label_2
_geom_bond_site_symmetry_1
_geom_bond_site_symmetry_2
Zn1 I1 1_555 1_555
I2 Zn1 1_555 1_555
N1 Zn1 1_555 1_555
C1 N1 1_555 1_555
H1 C1 1_555 1_555
C2 C1 1_555 1_555
H2 C2 1_555 1_555
C3 C2 1_555 1_555
C4 C3 1_555 1_555
H3 C4 1_555 1_555
C5 N1 1_555 1_555
H4 C5 1_555 1_555
C6 C3 1_555 1_555
N2 C6 1_555 1_555
C7 N2 1_555 1_555
N3 C7 1_555 1_555
C8 N3 1_555 1_555
N4 C6 1_555 1_555
N5 C9 1_555 1_555
C9 H5 1_555 1_555
C10 C9 1_555 1_555
H6 C10 1_555 1_555
C11 C7 1_555 1_555
C12 C11 1_555 1_555
H7 C12 1_555 1_555
C13 N5 1_555 1_555
H8 C13 1_555 1_555
Zn2 N5 1_555 1_555
I3 Zn2 1_555 1_555
I4 Zn2 1_555 1_555
N6 C14 1_555 1_555
C14 H9 1_555 1_555
C15 C14 1_555 1_555
H10 C15 1_555 1_555
C16 C8 1_555 1_555
C17 C16 1_555 1_555
H11 C17 1_555 1_555
C18 N6 1_555 1_555
H12 C18 1_555 1_555
Zn3 N6 1_555 1_555
I5 Zn3 1_555 1_555
I6 Zn3 1_555 1_555
N7 Zn3 1_555 1_555
C19 N7 1_555 1_555
H13 C19 1_555 1_555
C20 C19 1_555 1_555
H14 C20 1_555 1_555
C21 C20 1_555 1_555
C22 C21 1_555 1_555
H15 C22 1_555 1_555
C23 N7 1_555 1_555
H16 C23 1_555 1_555
C24 C21 1_555 1_555
N8 C24 1_555 1_555
C25 N8 1_555 1_555
N9 C25 1_555 1_555
C26 N9 1_555 1_555
N10 C24 1_555 1_555
N11 C27 1_555 1_555
C27 H17 1_555 1_555
C28 C27 1_555 1_555
H18 C28 1_555 1_555
C29 C25 1_555 1_555
C30 C29 1_555 1_555
H19 C30 1_555 1_555
C31 N11 1_555 1_555
H20 C31 1_555 1_555
N12 C32 1_555 1_555
C32 H21 1_555 1_555
C33 C32 1_555 1_555
H22 C33 1_555 1_555
C34 C26 1_555 1_555
C35 C34 1_555 1_555
H23 C35 1_555 1_555
C36 N12 1_555 1_555
H24 C36 1_555 1_555
Zn4 I7 1_555 1_555
I8 Zn4 1_555 1_555
N13 Zn4 1_555 1_555
C37 N13 1_555 1_555
H25 C37 1_555 1_555
C38 C37 1_555 1_555
H26 C38 1_555 1_555
C39 C38 1_555 1_555
C40 C39 1_555 1_555
H27 C40 1_555 1_555
C41 N13 1_555 1_555
H28 C41 1_555 1_555
C42 C39 1_555 1_555
N14 C42 1_555 1_555
C43 N14 1_555 1_555
N15 C43 1_555 1_555
C44 N15 1_555 1_555
N16 C42 1_555 1_555
N17 C45 1_555 1_555
C45 H29 1_555 1_555
C46 C45 1_555 1_555
H30 C46 1_555 1_555
C47 C43 1_555 1_555
C48 C47 1_555 1_555
H31 C48 1_555 1_555
C49 N17 1_555 1_555
H32 C49 1_555 1_555
Zn5 N17 1_555 1_555
I9 Zn5 1_555 1_555
I10 Zn5 1_555 1_555
N18 C50 1_555 1_555
C50 H33 1_555 1_555
C51 C50 1_555 1_555
H34 C51 1_555 1_555
C52 C44 1_555 1_555
C53 C52 1_555 1_555
H35 C53 1_555 1_555
C54 N18 1_555 1_555
H36 C54 1_555 1_555
Zn6 N18 1_555 1_555
I11 Zn6 1_555 1_555
I12 Zn6 1_555 1_555
N19 Zn6 1_555 1_555
C55 N19 1_555 1_555
H37 C55 1_555 1_555
C56 C55 1_555 1_555
H38 C56 1_555 1_555
C57 C56 1_555 1_555
C58 C57 1_555 1_555
H39 C58 1_555 1_555
C59 N19 1_555 1_555
H40 C59 1_555 1_555
C60 C57 1_555 1_555
N20 C60 1_555 1_555
C61 N20 1_555 1_555
N21 C61 1_555 1_555
C62 N21 1_555 1_555
N22 C60 1_555 1_555
N23 C63 1_555 1_555
C63 H41 1_555 1_555
C64 C63 1_555 1_555
H42 C64 1_555 1_555
C65 C61 1_555 1_555
C66 C65 1_555 1_555
H43 C66 1_555 1_555
C67 N23 1_555 1_555
H44 C67 1_555 1_555
N24 C68 1_555 1_555
C68 H45 1_555 1_555
C69 C68 1_555 1_555
H46 C69 1_555 1_555
C70 C62 1_555 1_555
C71 C70 1_555 1_555
H47 C71 1_555 1_555
C72 N24 1_555 1_555
H48 C72 1_555 1_555
C73 H49 1_555 1_555
C74 O1 1_555 1_555
O1 C78 1_555 1_555
C75 C77 1_555 1_555
C76 C73 1_555 1_555
C77 C78 1_555 1_555
C78 C86 1_555 1_555
C79 C81 1_555 1_555
C80 C74 1_555 1_555
C81 C83 1_555 1_555
C82 C73 1_555 1_555
H50 C82 1_555 1_555
C83 C76 1_555 1_555
H51 C83 1_555 1_555
C84 C75 1_555 1_555
O2 C80 1_555 1_555
C85 C84 1_555 1_555
C86 C85 1_555 1_555
C87 C77 1_555 1_555
O3 C79 1_555 1_555
O4 C86 1_555 1_555
C88 H52 1_555 1_555
H53 C88 1_555 1_555
H54 C88 1_555 1_555
O5 C85 1_555 1_555
O6 C75 1_555 1_555
O7 C87 1_555 1_555
C89 O2 1_555 1_555
H55 C89 1_555 1_555
H56 C89 1_555 1_555
H57 C89 1_555 1_555
O8 C81 1_555 1_555
O9 C84 1_555 1_555
C90 O8 1_555 1_555
H58 C90 1_555 1_555
H59 C90 1_555 1_555
H60 C90 1_555 1_555
C91 O3 1_555 1_555
H61 C91 1_555 1_555
H62 C91 1_555 1_555
H63 C91 1_555 1_555
C92 O4 1_555 1_555
H64 C92 1_555 1_555
H65 C92 1_555 1_555
H66 C92 1_555 1_555
C93 O6 1_555 1_555
H67 C93 1_555 1_555
H68 C93 1_555 1_555
H69 C93 1_555 1_555
C94 O9 1_555 1_555
H70 C94 1_555 1_555
H71 C94 1_555 1_555
H72 C94 1_555 1_555
Zn1C N11 1_555 1_555
Zn2A N12 1_555 1_555
N11C Zn1 1_555 1_555
N12A Zn2 1_555 1_555
Zn4B N23 1_555 1_555
Zn5C N24 1_555 1_555
N23B Zn4 1_555 1_555
N24C Zn5 1_555 1_555
C4 C5 1_555 1_555
C8 N4 1_555 1_555
C10 C11 1_555 1_555
C12 C13 1_555 1_555
C15 C16 1_555 1_555
C17 C18 1_555 1_555
C22 C23 1_555 1_555
C26 N10 1_555 1_555
C28 C29 1_555 1_555
C30 C31 1_555 1_555
C33 C34 1_555 1_555
C35 C36 1_555 1_555
C40 C41 1_555 1_555
C44 N16 1_555 1_555
C46 C47 1_555 1_555
C48 C49 1_555 1_555
C51 C52 1_555 1_555
C53 C54 1_555 1_555
C58 C59 1_555 1_555
C62 N22 1_555 1_555
C64 C65 1_555 1_555
C66 C67 1_555 1_555
C69 C70 1_555 1_555
C71 C72 1_555 1_555
C74 C76 1_555 1_555
C79 C82 1_555 1_555
C80 C87 1_555 1_555
C88 O5 1_555 1_555

#END
