
#######################################################################
#
#                 Cambridge Crystallographic Data Centre
#                                CCDC 
#
#######################################################################
#
# If this CIF has been generated from an entry in the Cambridge 
# Structural Database, then it will include bibliographic, chemical, 
# crystal, experimental, refinement or atomic coordinate data resulting 
# from the CCDC's data processing and validation procedures.
#
#######################################################################

data_REXDAB
_chemical_formula_moiety         '(C255 H258 I24 N48 O15 Zn12)n'
_symmetry_cell_setting           monoclinic
_symmetry_space_group_name_H-M   'P 21'
_symmetry_Int_Tables_number      4
_space_group_name_Hall           'P 2yb'
loop_
_symmetry_equiv_pos_site_id
_symmetry_equiv_pos_as_xyz
1 x,y,z
2 -x,1/2+y,-z
_cell_length_a                   32.866(5)
_cell_length_b                   14.853(2)
_cell_length_c                   34.850(6)
_cell_angle_alpha                90
_cell_angle_beta                 105.848(2)
_cell_angle_gamma                90
_cell_volume                     16365.7
loop_
_atom_site_label
_atom_site_type_symbol
_atom_site_fract_x
_atom_site_fract_y
_atom_site_fract_z
I1 I 0.66090(4) 1.41370(8) 0.14429(4)
Zn1 Zn 0.69395(5) 1.26728(12) 0.13076(5)
I2 I 0.76281(3) 1.25194(9) 0.11194(3)
N1 N 0.6482(4) 1.2046(8) 0.0876(4)
C1 C 0.6480(5) 1.1208(11) 0.0818(4)
H1 H 0.6689 1.0859 0.1000
C2 C 0.6189(5) 1.0742(11) 0.0502(4)
H2 H 0.6213 1.0111 0.0470
C3 C 0.5880(4) 1.1219(11) 0.0251(4)
C4 C 0.5847(5) 1.2116(11) 0.0304(5)
H3 H 0.5614 1.2451 0.0150
C5 C 0.6187(5) 1.2550(12) 0.0611(5)
H4 H 0.6202 1.3189 0.0624
C6 C 0.5563(5) 1.0792(11) -0.0071(4)
N2 N 0.5595(4) 0.9908(9) -0.0135(4)
C7 C 0.5274(5) 0.9581(11) -0.0447(5)
N3 N 0.4940(4) 1.0043(8) -0.0664(4)
C8 C 0.4931(4) 1.0895(10) -0.0552(4)
N4 N 0.5229(4) 1.1325(9) -0.0263(4)
N5 N 0.5181(4) 0.6767(10) -0.0688(4)
C9 C 0.4908(6) 0.7364(12) -0.0861(6)
H5 H 0.4672 0.7151 -0.1065
C10 C 0.4918(6) 0.8251(12) -0.0788(5)
H6 H 0.4687 0.8624 -0.0920
C11 C 0.5256(5) 0.8607(12) -0.0527(5)
C12 C 0.5540(5) 0.8025(12) -0.0305(6)
H7 H 0.5769 0.8225 -0.0091
C13 C 0.5479(6) 0.7068(13) -0.0410(6)
H8 H 0.5678 0.6649 -0.0259
N6 N 0.3805(4) 1.2306(10) -0.1134(4)
C14 C 0.4126(5) 1.2780(11) -0.0928(5)
H9 H 0.4102 1.3415 -0.0908
C15 C 0.4521(5) 1.2324(11) -0.0728(5)
H10 H 0.4762 1.2665 -0.0591
C16 C 0.4543(5) 1.1448(11) -0.0739(5)
C17 C 0.4193(5) 1.0948(12) -0.0964(6)
H11 H 0.4204 1.0311 -0.0981
C18 C 0.3838(6) 1.1421(13) -0.1155(6)
H12 H 0.3602 1.1096 -0.1312
I3 I 0.35764(5) 1.32542(11) -0.20970(4)
Zn2 Zn 0.32853(6) 1.29399(12) -0.15099(7)
I4 I 0.29307(4) 1.39939(9) -0.11302(5)
N7 N 0.2877(4) 1.1825(8) -0.1653(4)
C19 C 0.2674(4) 1.1549(10) -0.1393(5)
H13 H 0.2714 1.1863 -0.1148
C20 C 0.2410(4) 1.0826(10) -0.1470(5)
H14 H 0.2270 1.0632 -0.1279
C21 C 0.2350(4) 1.0384(10) -0.1822(4)
C22 C 0.2561(4) 1.0641(9) -0.2100(4)
H15 H 0.2521 1.0329 -0.2345
C23 C 0.2831(4) 1.1372(10) -0.2004(4)
H16 H 0.2986 1.1559 -0.2183
C24 C 0.2065(4) 0.9563(9) -0.1900(4)
N8 N 0.1756(4) 0.9528(7) -0.1715(3)
C25 C 0.1521(4) 0.8807(9) -0.1792(4)
N9 N 0.1532(4) 0.8159(8) -0.2059(3)
C26 C 0.1849(4) 0.8260(9) -0.2225(4)
N10 N 0.2128(3) 0.8946(7) -0.2162(3)
N11 N 0.0602(4) 0.8371(8) -0.1139(4)
C27 C 0.0769(5) 0.7658(11) -0.1307(5)
H17 H 0.0695 0.7054 -0.1267
C28 C 0.1044(5) 0.7839(11) -0.1530(5)
H18 H 0.1135 0.7350 -0.1662
C29 C 0.1192(5) 0.8667(9) -0.1575(4)
C30 C 0.1038(5) 0.9409(10) -0.1398(4)
H19 H 0.1129 1.0008 -0.1422
C31 C 0.0749(5) 0.9209(10) -0.1188(4)
H20 H 0.0644 0.9698 -0.1068
N12 N 0.1866(4) 0.6380(8) -0.3158(4)
C32 C 0.2139(4) 0.7048(9) -0.3078(4)
H21 H 0.2332 0.7105 -0.3235
C33 C 0.2162(4) 0.7691(9) -0.2772(4)
H22 H 0.2365 0.8162 -0.2723
C34 C 0.1870(4) 0.7601(9) -0.2543(4)
C35 C 0.1572(5) 0.6878(10) -0.2631(4)
H23 H 0.1373 0.6789 -0.2482
C36 C 0.1587(5) 0.6328(11) -0.2935(5)
H24 H 0.1383 0.5859 -0.2998
I5 I 0.04369(4) 0.90588(7) -0.01768(3)
Zn3 Zn 0.01882(5) 0.81420(11) -0.08118(5)
I6 I -0.05593(3) 0.82839(7) -0.12678(3)
N13 N 0.0270(4) 0.6779(8) -0.0675(3)
C37 C 0.0525(4) 0.6461(9) -0.0348(4)
H25 H 0.0699 0.6870 -0.0165
C38 C 0.0551(4) 0.5545(10) -0.0255(4)
H26 H 0.0735 0.5339 -0.0010
C39 C 0.0310(4) 0.4948(9) -0.0521(4)
C40 C 0.0054(5) 0.5244(10) -0.0866(4)
H27 H -0.0124 0.4850 -0.1053
C41 C 0.0067(5) 0.6200(10) -0.0932(5)
H28 H -0.0087 0.6422 -0.1186
C42 C 0.0312(4) 0.3966(9) -0.0416(4)
N14 N 0.0606(3) 0.3636(7) -0.0120(3)
C43 C 0.0549(4) 0.2763(9) -0.0037(4)
N15 N 0.0235(4) 0.2250(8) -0.0235(3)
C44 C -0.0052(4) 0.2655(9) -0.0516(4)
N16 N -0.0026(4) 0.3534(8) -0.0638(3)
N17 N 0.1515(3) 0.1456(8) 0.0877(3)
C45 C 0.1181(4) 0.1018(10) 0.0654(4)
H29 H 0.1167 0.0387 0.0695
C46 C 0.0863(5) 0.1397(10) 0.0375(4)
H30 H 0.0625 0.1046 0.0241
C47 C 0.0882(4) 0.2313(9) 0.0283(4)
C48 C 0.1235(4) 0.2777(10) 0.0521(4)
H31 H 0.1265 0.3405 0.0486
C49 C 0.1519(4) 0.2344(10) 0.0791(4)
H32 H 0.1753 0.2683 0.0942
N18 N -0.1174(3) 0.1236(7) -0.1063(3)
C50 C -0.1175(5) 0.2123(9) -0.1055(4)
H33 H -0.1435 0.2435 -0.1157
C51 C -0.0806(4) 0.2611(10) -0.0903(4)
H34 H -0.0809 0.3250 -0.0913
C52 C -0.0432(4) 0.2142(9) -0.0734(4)
C53 C -0.0439(5) 0.1194(10) -0.0749(4)
H35 H -0.0192 0.0845 -0.0641
C54 C -0.0818(4) 0.0806(10) -0.0927(4)
H36 H -0.0823 0.0170 -0.0954
I7 I -0.18027(4) 0.01719(9) -0.04949(4)
Zn4 Zn -0.17484(5) 0.05396(12) -0.11958(5)
I8 I -0.17869(4) -0.06467(8) -0.17026(4)
N19 N -0.2182(4) 0.1544(8) -0.1437(3)
C55 C -0.2422(5) 0.1888(11) -0.1213(5)
H37 H -0.2399 0.1637 -0.0957
C56 C -0.2701(4) 0.2595(11) -0.1345(4)
H38 H -0.2875 0.2811 -0.1188
C57 C -0.2720(4) 0.2971(10) -0.1704(4)
C58 C -0.2486(4) 0.2611(10) -0.1938(4)
H39 H -0.2504 0.2857 -0.2194
C59 C -0.2213(5) 0.1858(10) -0.1791(4)
H40 H -0.2055 0.1592 -0.1953
C60 C -0.3005(4) 0.3763(10) -0.1844(4)
N20 N -0.3291(4) 0.3916(8) -0.1645(3)
C61 C -0.3551(5) 0.4614(10) -0.1773(5)
N21 N -0.3520(4) 0.5140(8) -0.2067(4)
C62 C -0.3211(4) 0.4953(9) -0.2240(4)
N22 N -0.2941(3) 0.4284(8) -0.2134(3)
N23 N -0.4460(4) 0.5189(10) -0.1149(4)
C63 C -0.4400(5) 0.5727(12) -0.1432(5)
H41 H -0.4581 0.6233 -0.1508
C64 C -0.4093(5) 0.5599(11) -0.1621(5)
H42 H -0.4042 0.6038 -0.1801
C65 C -0.3856(5) 0.4809(11) -0.1546(5)
C66 C -0.3938(5) 0.4261(13) -0.1267(5)
H43 H -0.3790 0.3706 -0.1212
C67 C -0.4207(5) 0.4453(12) -0.1070(5)
H44 H -0.4228 0.4062 -0.0860
N24 N -0.3081(3) 0.6622(8) -0.3200(3)
C68 C -0.2769(4) 0.6095(9) -0.2983(4)
H45 H -0.2514 0.6075 -0.3060
C69 C -0.2787(5) 0.5596(10) -0.2669(4)
H46 H -0.2546 0.5274 -0.2519
C70 C -0.3162(4) 0.5562(10) -0.2571(4)
C71 C -0.3514(5) 0.6066(10) -0.2784(4)
H47 H -0.3769 0.6082 -0.2706
C72 C -0.3468(5) 0.6533(11) -0.3110(5)
H48 H -0.3711 0.6807 -0.3282
I9 I -0.56262(4) 0.52160(10) -0.13259(4)
Zn5 Zn -0.49034(6) 0.54039(13) -0.08398(6)
I10 I -0.46401(5) 0.44716(9) -0.02081(4)
I11 I -0.34107(4) 0.88738(7) -0.35544(3)
Zn6 Zn -0.30770(5) 0.74022(11) -0.36809(5)
I12 I -0.23797(3) 0.73038(7) -0.38498(3)
I13 I 0.26967(3) 0.10946(8) 0.11566(3)
Zn7 Zn 0.19891(5) 0.08424(12) 0.12953(5)
I14 I 0.17115(4) -0.06703(7) 0.14200(4)
N25 N 0.1961(4) 0.1613(9) 0.1792(3)
C73 C 0.2284(4) 0.2083(10) 0.1989(4)
H49 H 0.2541 0.2067 0.1915
C74 C 0.2250(4) 0.2618(10) 0.2313(4)
H50 H 0.2484 0.2972 0.2456
C75 C 0.1881(4) 0.2626(10) 0.2422(4)
C76 C 0.1558(4) 0.2087(10) 0.2218(4)
H51 H 0.1298 0.2080 0.2287
C77 C 0.1611(5) 0.1545(12) 0.1907(5)
H52 H 0.1397 0.1130 0.1779
C78 C 0.1841(4) 0.3189(9) 0.2765(4)
N26 N 0.2095(3) 0.3896(8) 0.2860(3)
C79 C 0.2019(4) 0.4383(9) 0.3151(4)
N27 N 0.1712(3) 0.4248(7) 0.3330(3)
C80 C 0.1480(4) 0.3510(9) 0.3217(4)
N28 N 0.1525(3) 0.2966(7) 0.2915(3)
N29 N 0.2807(3) 0.6647(7) 0.3580(3)
C81 C 0.2589(4) 0.6305(9) 0.3795(5)
H53 H 0.2603 0.6558 0.4048
C82 C 0.2329(4) 0.5562(9) 0.3661(4)
H54 H 0.2174 0.5300 0.3826
C83 C 0.2296(4) 0.5205(10) 0.3283(4)
C84 C 0.2525(4) 0.5591(10) 0.3052(4)
H55 H 0.2508 0.5360 0.2794
C85 C 0.2778(4) 0.6315(9) 0.3199(4)
H56 H 0.2935 0.6593 0.3040
I15 I 0.30836(3) 0.82589(7) 0.44474(3)
Zn8 Zn 0.32257(5) 0.76881(11) 0.38048(5)
I16 I 0.32474(4) 0.87625(8) 0.32633(4)
N30 N 0.0563(3) 0.2935(7) 0.3837(3)
C86 C 0.0724(4) 0.2273(9) 0.3649(4)
H57 H 0.0629 0.1672 0.3658
C87 C 0.1017(5) 0.2451(10) 0.3448(4)
H58 H 0.1123 0.1968 0.3324
C88 C 0.1164(4) 0.3307(9) 0.3419(4)
C89 C 0.1009(4) 0.3968(10) 0.3609(4)
H59 H 0.1113 0.4564 0.3606
C90 C 0.0704(4) 0.3799(9) 0.3809(4)
H60 H 0.0592 0.4283 0.3927
N31 N 0.3776(4) 0.6976(8) 0.3987(4)
C91 C 0.4165(4) 0.7395(10) 0.4131(5)
H61 H 0.4178 0.8033 0.4114
C92 C 0.4532(4) 0.6937(9) 0.4296(4)
H62 H 0.4793 0.7251 0.4386
C93 C 0.4520(4) 0.5996(9) 0.4329(4)
C94 C 0.4143(4) 0.5599(10) 0.4206(5)
H63 H 0.4122 0.4966 0.4233
C95 C 0.3784(5) 0.6086(10) 0.4041(5)
H64 H 0.3524 0.5769 0.3959
C96 C 0.4904(4) 0.5494(9) 0.4527(4)
N32 N 0.5201(3) 0.5902(8) 0.4795(3)
C97 C 0.5533(4) 0.5377(10) 0.4992(4)
N33 N 0.5556(3) 0.4487(8) 0.4938(3)
C98 C 0.5234(4) 0.4130(9) 0.4642(4)
N34 N 0.4897(3) 0.4604(7) 0.4435(3)
N35 N 0.6469(3) 0.6719(7) 0.5876(3)
C99 C 0.6466(5) 0.5826(9) 0.5883(4)
H65 H 0.6666 0.5508 0.6086
C100 C 0.6152(4) 0.5335(9) 0.5575(4)
H66 H 0.6150 0.4696 0.5565
C101 C 0.5862(4) 0.5827(9) 0.5304(4)
C102 C 0.5882(4) 0.6766(9) 0.5308(4)
H67 H 0.5693 0.7113 0.5107
C103 C 0.6187(4) 0.7178(9) 0.5613(4)
H68 H 0.6190 0.7816 0.5630
N36 N 0.5218(4) 0.1350(8) 0.4326(4)
C104 C 0.4901(5) 0.1889(10) 0.4159(5)
H69 H 0.4666 0.1654 0.3961
C105 C 0.4900(5) 0.2838(10) 0.4269(5)
H70 H 0.4669 0.3216 0.4143
C106 C 0.5237(4) 0.3172(9) 0.4554(4)
C107 C 0.5551(4) 0.2608(9) 0.4735(4)
H71 H 0.5788 0.2822 0.4936
C108 C 0.5522(5) 0.1702(10) 0.4623(5)
H72 H 0.5736 0.1307 0.4770
I17 I 0.44595(3) -0.02382(7) 0.36551(4)
Zn9 Zn 0.51869(5) 0.00533(11) 0.41287(5)
I18 I 0.54785(3) -0.10093(7) 0.47195(3)
I19 I 0.03576(3) 0.37835(7) 0.47268(3)
Zn10 Zn 0.01048(5) 0.27593(11) 0.41229(5)
I20 I -0.05933(3) 0.30582(7) 0.36039(3)
N37 N 0.0165(4) 0.1401(8) 0.4268(3)
C109 C 0.0457(4) 0.1099(10) 0.4603(4)
H73 H 0.0642 0.1512 0.4773
C110 C 0.0480(4) 0.0217(10) 0.4690(4)
H74 H 0.0688 0.0023 0.4922
C111 C 0.0217(4) -0.0433(9) 0.4457(4)
C112 C -0.0066(5) -0.0103(10) 0.4108(4)
H75 H -0.0248 -0.0504 0.3928
C113 C -0.0079(4) 0.0807(9) 0.4028(4)
H76 H -0.0271 0.1018 0.3789
C114 C 0.0214(4) -0.1400(9) 0.4562(4)
N38 N 0.0527(3) -0.1709(8) 0.4858(3)
C115 C 0.0474(4) -0.2563(9) 0.4944(4)
N39 N 0.0146(3) -0.3102(8) 0.4770(3)
C116 C -0.0140(4) -0.2693(9) 0.4479(4)
N40 N -0.0124(3) -0.1829(8) 0.4360(3)
N41 N 0.1351(3) -0.3857(8) 0.5912(3)
C117 C 0.1065(4) -0.4292(10) 0.5668(4)
H77 H 0.1047 -0.4920 0.5714
C118 C 0.0783(4) -0.3937(10) 0.5347(4)
H78 H 0.0578 -0.4310 0.5174
C119 C 0.0798(4) -0.2979(9) 0.5271(4)
C120 C 0.1114(4) -0.2501(10) 0.5548(4)
H79 H 0.1135 -0.1867 0.5523
C121 C 0.1388(4) -0.2934(8) 0.5848(4)
H80 H 0.1612 -0.2605 0.6021
N42 N -0.1263(3) -0.4062(7) 0.3873(3)
C122 C -0.1273(4) -0.3196(10) 0.3930(4)
H81 H -0.1532 -0.2876 0.3836
C123 C -0.0901(4) -0.2732(10) 0.4130(4)
H82 H -0.0906 -0.2096 0.4156
C124 C -0.0539(4) -0.3181(10) 0.4282(4)
C125 C -0.0540(4) -0.4121(9) 0.4250(4)
H83 H -0.0294 -0.4464 0.4369
C126 C -0.0910(4) -0.4530(9) 0.4038(4)
H84 H -0.0915 -0.5166 0.4008
I21 I 0.14322(4) -0.58714(7) 0.65439(3)
Zn11 Zn 0.18017(5) -0.44824(11) 0.63746(4)
I22 I 0.24666(3) -0.45414(8) 0.61499(3)
I23 I -0.13946(3) -0.48745(7) 0.28888(3)
Zn12 Zn -0.17517(5) -0.46500(11) 0.34425(5)
I24 I -0.21167(3) -0.58447(7) 0.37523(3)
N43 N -0.2168(4) -0.3553(8) 0.3295(3)
C127 C -0.2148(4) -0.2995(9) 0.2993(4)
H85 H -0.1961 -0.3127 0.2835
C128 C -0.2396(4) -0.2244(9) 0.2915(4)
H86 H -0.2386 -0.1870 0.2696
C129 C -0.2660(4) -0.2012(9) 0.3148(4)
C130 C -0.2660(4) -0.2581(10) 0.3464(4)
H87 H -0.2828 -0.2449 0.3640
C131 C -0.2410(5) -0.3346(10) 0.3518(4)
H88 H -0.2416 -0.3740 0.3731
C132 C -0.2927(4) -0.1194(9) 0.3069(4)
N44 N -0.2827(3) -0.0585(7) 0.2825(3)
C133 C -0.3108(4) 0.0099(9) 0.2735(4)
N45 N -0.3414(3) 0.0253(8) 0.2916(3)
C134 C -0.3468(4) -0.0380(9) 0.3160(4)
N46 N -0.3240(4) -0.1136(7) 0.3238(3)
N47 N -0.3037(4) 0.1844(9) 0.1797(4)
C135 C -0.3344(5) 0.1903(12) 0.1941(5)
H89 H -0.3565 0.2314 0.1826
C136 C -0.3375(5) 0.1366(12) 0.2278(5)
H90 H -0.3602 0.1445 0.2394
C137 C -0.3065(5) 0.0739(10) 0.2422(4)
C138 C -0.2750(5) 0.0678(10) 0.2240(4)
H91 H -0.2530 0.0251 0.2329
C139 C -0.2751(5) 0.1230(10) 0.1929(4)
H92 H -0.2532 0.1163 0.1800
N48 N -0.4397(3) -0.0020(8) 0.3805(3)
C140 C -0.4267(4) -0.0845(10) 0.3700(4)
H93 H -0.4397 -0.1366 0.3772
C141 C -0.3969(4) -0.0972(10) 0.3502(4)
H94 H -0.3886 -0.1566 0.3456
C142 C -0.3785(4) -0.0243(10) 0.3366(4)
C143 C -0.3920(5) 0.0611(10) 0.3449(4)
H95 H -0.3800 0.1138 0.3370
C144 C -0.4231(4) 0.0679(10) 0.3647(4)
H96 H -0.4337 0.1264 0.3674
Zn1_2 Zn -0.30605(5) 0.26728(12) 0.13076(5)
N5_2 N -0.4819(4) 0.6767(10) -0.0688(4)
N12_2 N 0.1866(4) -0.3620(8) 0.6842(4)
Zn5_2 Zn 0.50966(6) 0.54039(13) -0.08398(6)
Zn6_2 Zn 0.69230(5) 0.74022(11) 0.63191(5)
N35_2 N -0.3531(3) 0.6719(7) -0.4124(3)
Zn9_2 Zn -0.48131(5) 0.00533(11) 0.41287(5)
Zn11_2 Zn 0.18017(5) 0.55176(11) -0.36254(4)
N47_2 N 0.6963(4) 1.1844(9) 0.1797(4)
N48_2 N 0.5603(3) -0.0020(8) 0.3805(3)
O1 O 0.0667(4) 0.8185(8) 0.2758(3)
C145 C 0.0531(6) 0.8138(13) 0.2370(5)
C146 C 0.0846(6) 0.8532(13) 0.2170(5)
H97 H 0.1016 0.8026 0.2104
C147 C 0.1128(5) 0.9062(12) 0.2511(5)
H98 H 0.0989 0.9650 0.2535
C148 C 0.1587(5) 0.9235(12) 0.2530(5)
H99 H 0.1610 0.9611 0.2303
H100 H 0.1739 0.8661 0.2525
C149 C 0.1769(6) 0.9723(12) 0.2922(5)
H101 H 0.1639 1.0328 0.2900
H102 H 0.2076 0.9810 0.2955
C150 C 0.1716(5) 0.9276(11) 0.3305(5)
C151 C 0.1857(6) 0.9901(12) 0.3643(5)
H103 H 0.2138 1.0117 0.3692
C152 C 0.1648(6) 1.0193(12) 0.3880(5)
H104 H 0.1783 1.0563 0.4101
C153 C 0.1210(6) 0.9955(12) 0.3809(6)
C154 C 0.1034(6) 0.9226(12) 0.3502(5)
C155 C 0.1261(5) 0.9001(12) 0.3243(5)
C156 C 0.1124(5) 0.8481(11) 0.2866(5)
H105 H 0.1312 0.7947 0.2877
O2 O 0.0159(5) 0.7910(10) 0.2210(4)
C157 C 0.0638(6) 0.9046(17) 0.1781(5)
H106 H 0.0857 0.9269 0.1664
H107 H 0.0476 0.9555 0.1841
H108 H 0.0448 0.8640 0.1593
C158 C 0.2013(5) 0.8410(13) 0.3413(5)
H109 H 0.1930 0.7969 0.3197
H110 H 0.1984 0.8142 0.3661
H111 H 0.2308 0.8588 0.3448
O3 O 0.1003(5) 1.0239(9) 0.4014(4)
C159 C 0.0594(5) 0.8961(12) 0.3489(5)
H112 H 0.0516 0.9231 0.3715
H113 H 0.0576 0.8304 0.3503
H114 H 0.0400 0.9174 0.3239
O4 O -0.0505(3) 0.0932(7) -0.3421(3)
C160 C -0.0184(5) 0.1308(11) -0.3546(5)
C161 C 0.0229(5) 0.1297(12) -0.3217(5)
H115 H 0.0397 0.0757 -0.3251
C162 C 0.0067(5) 0.1165(12) -0.2846(5)
H116 H -0.0026 0.1767 -0.2772
C163 C 0.0337(5) 0.0731(14) -0.2464(5)
H117 H 0.0419 0.0113 -0.2520
H118 H 0.0598 0.1087 -0.2356
C164 C 0.0082(5) 0.0707(14) -0.2172(5)
H119 H 0.0052 0.1330 -0.2082
H120 H 0.0238 0.0358 -0.1936
C165 C -0.0376(6) 0.0284(15) -0.2335(6)
C166 C -0.0620(6) 0.0410(15) -0.2051(6)
H121 H -0.0497 0.0183 -0.1790
C167 C -0.1008(6) 0.0818(14) -0.2110(6)
H122 H -0.1145 0.0901 -0.1905
C168 C -0.1181(6) 0.1096(14) -0.2505(6)
C169 C -0.1000(5) 0.1001(12) -0.2840(5)
C170 C -0.0613(5) 0.0698(12) -0.2733(5)
C171 C -0.0321(5) 0.0617(12) -0.3012(5)
H123 H -0.0237 -0.0028 -0.3021
O5 O -0.0241(3) 0.1585(9) -0.3882(3)
C172 C 0.0487(5) 0.2143(15) -0.3230(6)
H124 H 0.0750 0.2123 -0.3015
H125 H 0.0323 0.2675 -0.3197
H126 H 0.0553 0.2176 -0.3488
C173 C -0.0332(7) -0.0774(16) -0.2369(7)
H127 H -0.0169 -0.0910 -0.2559
H128 H -0.0614 -0.1044 -0.2462
H129 H -0.0186 -0.1021 -0.2107
O6 O -0.1549(4) 0.1533(10) -0.2568(4)
C174 C -0.1245(5) 0.1399(12) -0.3222(5)
H130 H -0.1526 0.1574 -0.3202
H131 H -0.1275 0.0955 -0.3436
H132 H -0.1098 0.1931 -0.3282
O7 O 0.3889(4) 0.8863(7) 0.5710(4)
C175 C 0.3721(7) 0.8055(12) 0.5776(6)
C176 C 0.3255(6) 0.8071(11) 0.5664(6)
H133 H 0.3152 0.7858 0.5382
C177 C 0.3152(6) 0.9055(11) 0.5669(5)
H134 H 0.3200 0.9240 0.5953
C178 C 0.2753(6) 0.9406(11) 0.5450(5)
H135 H 0.2524 0.9143 0.5549
H136 H 0.2698 0.9257 0.5163
C179 C 0.2768(6) 1.0471(11) 0.5510(5)
H137 H 0.2504 1.0735 0.5339
H138 H 0.2780 1.0607 0.5790
C180 C 0.3154(6) 1.0928(10) 0.5407(5)
C181 C 0.3179(6) 1.1931(11) 0.5549(5)
H139 H 0.2940 1.2307 0.5446
C182 C 0.3498(6) 1.2269(11) 0.5791(5)
H140 H 0.3482 1.2882 0.5865
C183 C 0.3882(6) 1.1790(11) 0.5965(6)
C184 C 0.3920(6) 1.0832(11) 0.5869(5)
C185 C 0.3572(5) 1.0399(10) 0.5618(5)
C186 C 0.3537(6) 0.9423(10) 0.5522(5)
H141 H 0.3472 0.9345 0.5227
O8 O 0.3964(5) 0.7478(8) 0.5935(4)
C187 C 0.3054(7) 0.7453(13) 0.5924(7)
H142 H 0.2745 0.7495 0.5830
H143 H 0.3149 0.7646 0.6203
H144 H 0.3141 0.6828 0.5902
C188 C 0.3116(5) 1.0968(11) 0.4963(5)
H145 H 0.3102 1.0355 0.4856
H146 H 0.3363 1.1277 0.4920
H147 H 0.2859 1.1297 0.4826
O9 O 0.4181(4) 1.2108(7) 0.6222(4)
C189 C 0.4324(6) 1.0413(11) 0.6065(5)
H148 H 0.4513 1.0862 0.6228
H149 H 0.4452 1.0173 0.5863
H150 H 0.4278 0.9921 0.6236
O10 O 0.1027(3) 0.4234(7) 0.8694(3)
C190 C 0.1147(5) 0.5134(11) 0.8756(5)
C191 C 0.1555(6) 0.5228(11) 0.9081(5)
H151 H 0.1795 0.5221 0.8955
C192 C 0.1561(5) 0.4331(10) 0.9308(4)
H152 H 0.1362 0.4394 0.9479
C193 C 0.1952(5) 0.3935(11) 0.9552(5)
H153 H 0.2087 0.4350 0.9772
H154 H 0.2151 0.3841 0.9387
C194 C 0.1858(5) 0.3022(12) 0.9726(5)
H155 H 0.1687 0.3124 0.9915
H156 H 0.2127 0.2733 0.9873
C195 C 0.1607(6) 0.2372(12) 0.9373(5)
C196 C 0.1479(5) 0.1591(11) 0.9571(5)
H157 H 0.1681 0.1348 0.9796
C197 C 0.1100(6) 0.1196(11) 0.9458(5)
H158 H 0.1049 0.0671 0.9594
C198 C 0.0767(6) 0.1553(10) 0.9134(5)
C199 C 0.0838(5) 0.2467(10) 0.8970(5)
C200 C 0.1221(5) 0.2824(10) 0.9096(5)
C201 C 0.1349(5) 0.3720(10) 0.8954(5)
H159 H 0.1566 0.3589 0.8809
O11 O 0.0926(4) 0.5700(7) 0.8558(4)
C202 C 0.1585(6) 0.6057(11) 0.9318(5)
H160 H 0.1860 0.6078 0.9519
H161 H 0.1359 0.6064 0.9452
H162 H 0.1557 0.6582 0.9143
C203 C 0.1907(6) 0.2050(12) 0.9141(5)
H163 H 0.1995 0.2562 0.9005
H164 H 0.1765 0.1602 0.8943
H165 H 0.2157 0.1777 0.9324
O12 O 0.0439(4) 0.1152(8) 0.9014(4)
C204 C 0.0466(5) 0.2813(10) 0.8644(5)
H166 H 0.0223 0.2412 0.8619
H167 H 0.0541 0.2831 0.8391
H168 H 0.0393 0.3421 0.8713
O13 O 0.3791(6) 0.7535(15) 0.2332(5)
C205 C 0.3713(10) 0.705(2) 0.2645(8)
C206 C 0.4111(9) 0.691(2) 0.2995(8)
H169 H 0.4110 0.7357 0.3208
C207 C 0.4445(9) 0.714(2) 0.2814(8)
H170 H 0.4511 0.6591 0.2674
C208 C 0.4860(9) 0.757(2) 0.3042(8)
H171 H 0.5000 0.7182 0.3272
H172 H 0.4802 0.8159 0.3148
C209 C 0.5174(9) 0.771(2) 0.2762(9)
H173 H 0.5437 0.8013 0.2915
H174 H 0.5251 0.7119 0.2670
C210 C 0.4947(9) 0.829(2) 0.2400(9)
C211 C 0.5221(9) 0.830(2) 0.2144(9)
H175 H 0.5487 0.8591 0.2243
C212 C 0.5129(10) 0.792(2) 0.1750(9)
H176 H 0.5339 0.7872 0.1611
C213 C 0.4729(10) 0.763(2) 0.1589(10)
C214 C 0.4406(9) 0.751(2) 0.1802(8)
C215 C 0.4494(9) 0.793(2) 0.2200(8)
C216 C 0.4257(8) 0.784(2) 0.2502(8)
H177 H 0.4260 0.8437 0.2638
O14 O 0.3351(6) 0.6766(18) 0.2603(6)
C217 C 0.4099(9) 0.593(2) 0.3168(8)
H178 H 0.3859 0.5876 0.3283
H179 H 0.4363 0.5809 0.3374
H180 H 0.4067 0.5485 0.2952
C218 C 0.4933(9) 0.9342(19) 0.2545(8)
H181 H 0.4751 0.9386 0.2724
H182 H 0.4821 0.9727 0.2311
H183 H 0.5220 0.9540 0.2685
O15 O 0.4623(8) 0.7248(18) 0.1248(7)
C219 C 0.3995(9) 0.704(2) 0.1610(9)
H184 H 0.3993 0.6846 0.1340
H185 H 0.3759 0.7453 0.1595
H186 H 0.3966 0.6511 0.1769
C220 C 0.3337(6) 0.5412(14) 0.4811(6)
H187 H 0.3318 0.5924 0.4625
H188 H 0.3620 0.5136 0.4856
C221 C 0.3279(7) 0.5761(13) 0.5215(6)
H189 H 0.3515 0.6169 0.5344
H190 H 0.3011 0.6103 0.5167
C222 C 0.3271(6) 0.4973(11) 0.5484(5)
H191 H 0.3548 0.4663 0.5547
H192 H 0.3226 0.5194 0.5737
C223 C 0.2933(6) 0.4322(11) 0.5299(5)
H193 H 0.2654 0.4622 0.5245
H194 H 0.2937 0.3819 0.5486
C224 C 0.2995(6) 0.3951(12) 0.4908(5)
H195 H 0.3265 0.3615 0.4963
H196 H 0.2761 0.3533 0.4784
C225 C 0.3000(6) 0.4724(13) 0.4630(6)
H197 H 0.2720 0.5021 0.4558
H198 H 0.3051 0.4487 0.4381
C226 C 0.1989(7) 0.9284(15) 0.9720(6)
H199 H 0.2254 0.8989 0.9706
H200 H 0.1924 0.9771 0.9519
C227 C 0.2048(8) 0.9671(15) 1.0117(6)
H201 H 0.1787 0.9987 1.0133
H202 H 0.2283 1.0109 1.0175
C228 C 0.2147(7) 0.8896(15) 1.0420(7)
H203 H 0.2212 0.9144 1.0694
H204 H 0.2400 0.8566 1.0393
C229 C 0.1767(7) 0.8233(15) 1.0353(6)
H205 H 0.1834 0.7747 1.0555
H206 H 0.1513 0.8558 1.0381
C230 C 0.1682(8) 0.7836(15) 0.9939(6)
H207 H 0.1420 0.7472 0.9879
H208 H 0.1919 0.7437 0.9925
C231 C 0.1634(7) 0.8604(14) 0.9628(6)
H209 H 0.1616 0.8333 0.9364
H210 H 0.1365 0.8923 0.9608
C232 C 0.3302(11) 1.141(2) 0.9736(8)
H211 H 0.3604 1.1390 0.9741
H212 H 0.3170 1.1945 0.9582
C233 C 0.3256(11) 1.144(2) 1.0144(8)
H213 H 0.2953 1.1472 1.0137
H214 H 0.3398 1.1988 1.0284
C234 C 0.3459(11) 1.059(2) 1.0365(9)
H215 H 0.3758 1.0575 1.0358
H216 H 0.3458 1.0648 1.0647
C235 C 0.3260(11) 0.973(2) 1.0210(8)
H217 H 0.2970 0.9705 1.0241
H218 H 0.3425 0.9226 1.0362
C236 C 0.3245(10) 0.965(2) 0.9772(8)
H219 H 0.3063 0.9132 0.9653
H220 H 0.3533 0.9532 0.9746
C237 C 0.3068(10) 1.052(2) 0.9545(8)
H221 H 0.2765 1.0574 0.9533
H222 H 0.3089 1.0472 0.9267
C238 C 0.1728(8) 0.359(2) 0.4761(6)
H223 H 0.1575 0.4087 0.4594
H224 H 0.2030 0.3611 0.4765
C239 C 0.1669(8) 0.363(2) 0.5208(6)
H225 H 0.1768 0.4217 0.5330
H226 H 0.1365 0.3568 0.5194
C240 C 0.1899(7) 0.293(2) 0.5452(6)
H227 H 0.1872 0.2997 0.5726
H228 H 0.2203 0.2983 0.5463
C241 C 0.1735(7) 0.197(2) 0.5289(6)
H229 H 0.1909 0.1503 0.5463
H230 H 0.1439 0.1894 0.5300
C242 C 0.1755(7) 0.182(2) 0.4853(6)
H231 H 0.2053 0.1796 0.4841
H232 H 0.1617 0.1241 0.4748
C243 C 0.1519(7) 0.262(2) 0.4605(6)
H233 H 0.1221 0.2618 0.4615
H234 H 0.1519 0.2541 0.4323
C244 C 0.1856(6) 0.2956(14) 0.7938(5)
H235 H 0.2073 0.2599 0.7857
H236 H 0.1912 0.2906 0.8231
C245 C 0.1893(7) 0.3930(14) 0.7828(5)
H237 H 0.1858 0.3980 0.7538
H238 H 0.2178 0.4158 0.7969
C246 C 0.1557(7) 0.4498(16) 0.7943(6)
H239 H 0.1603 0.4482 0.8236
H240 H 0.1578 0.5132 0.7862
C247 C 0.1130(7) 0.4133(17) 0.7739(6)
H241 H 0.1075 0.4219 0.7448
H242 H 0.0914 0.4480 0.7826
C248 C 0.1077(7) 0.3076(16) 0.7827(6)
H243 H 0.1078 0.2992 0.8110
H244 H 0.0804 0.2851 0.7656
C249 C 0.1429(7) 0.2567(16) 0.7744(6)
H245 H 0.1388 0.2548 0.7452
H246 H 0.1421 0.1939 0.7838
C250 C 0.0292(10) 0.124(2) 0.2365(9)
H247 H 0.0521 0.1496 0.2583
H248 H 0.0415 0.1045 0.2149
C251 C 0.0003(10) 0.185(2) 0.2230(9)
H249 H -0.0195 0.1612 0.1984
H250 H 0.0143 0.2384 0.2154
C252 C -0.0258(10) 0.216(2) 0.2515(9)
H251 H -0.0071 0.2488 0.2742
H252 H -0.0483 0.2574 0.2371
C253 C -0.0448(10) 0.142(2) 0.2666(9)
H253 H -0.0674 0.1156 0.2445
H254 H -0.0583 0.1646 0.2868
C254 C -0.0143(9) 0.069(2) 0.2849(9)
H255 H -0.0293 0.0195 0.2940
H256 H 0.0072 0.0935 0.3084
C255 C 0.0077(9) 0.034(2) 0.2538(8)
H257 H -0.0131 0.0033 0.2316
H258 H 0.0301 -0.0103 0.2664
loop_
_geom_bond_atom_site_label_1
_geom_bond_atom_site_label_2
_geom_bond_site_symmetry_1
_geom_bond_site_symmetry_2
I1 Zn1 1_555 1_555
Zn1 I2 1_555 1_555
N1 Zn1 1_555 1_555
C1 N1 1_555 1_555
H1 C1 1_555 1_555
C2 C1 1_555 1_555
H2 C2 1_555 1_555
C3 C2 1_555 1_555
C4 C3 1_555 1_555
H3 C4 1_555 1_555
C5 N1 1_555 1_555
H4 C5 1_555 1_555
C6 C3 1_555 1_555
N2 C6 1_555 1_555
C7 N2 1_555 1_555
N3 C7 1_555 1_555
C8 N3 1_555 1_555
N4 C6 1_555 1_555
N5 C9 1_555 1_555
C9 H5 1_555 1_555
C10 C9 1_555 1_555
H6 C10 1_555 1_555
C11 C7 1_555 1_555
C12 C11 1_555 1_555
H7 C12 1_555 1_555
C13 N5 1_555 1_555
H8 C13 1_555 1_555
N6 C14 1_555 1_555
C14 H9 1_555 1_555
C15 C14 1_555 1_555
H10 C15 1_555 1_555
C16 C8 1_555 1_555
C17 C16 1_555 1_555
H11 C17 1_555 1_555
C18 N6 1_555 1_555
H12 C18 1_555 1_555
I3 Zn2 1_555 1_555
Zn2 N6 1_555 1_555
I4 Zn2 1_555 1_555
N7 Zn2 1_555 1_555
C19 N7 1_555 1_555
H13 C19 1_555 1_555
C20 C19 1_555 1_555
H14 C20 1_555 1_555
C21 C20 1_555 1_555
C22 C21 1_555 1_555
H15 C22 1_555 1_555
C23 N7 1_555 1_555
H16 C23 1_555 1_555
C24 C21 1_555 1_555
N8 C24 1_555 1_555
C25 N8 1_555 1_555
N9 C25 1_555 1_555
C26 N9 1_555 1_555
N10 C24 1_555 1_555
N11 C27 1_555 1_555
C27 H17 1_555 1_555
C28 C27 1_555 1_555
H18 C28 1_555 1_555
C29 C25 1_555 1_555
C30 C29 1_555 1_555
H19 C30 1_555 1_555
C31 N11 1_555 1_555
H20 C31 1_555 1_555
N12 C32 1_555 1_555
C32 H21 1_555 1_555
C33 C32 1_555 1_555
H22 C33 1_555 1_555
C34 C26 1_555 1_555
C35 C34 1_555 1_555
H23 C35 1_555 1_555
C36 N12 1_555 1_555
H24 C36 1_555 1_555
I5 Zn3 1_555 1_555
Zn3 N11 1_555 1_555
I6 Zn3 1_555 1_555
N13 Zn3 1_555 1_555
C37 N13 1_555 1_555
H25 C37 1_555 1_555
C38 C37 1_555 1_555
H26 C38 1_555 1_555
C39 C38 1_555 1_555
C40 C39 1_555 1_555
H27 C40 1_555 1_555
C41 N13 1_555 1_555
H28 C41 1_555 1_555
C42 C39 1_555 1_555
N14 C42 1_555 1_555
C43 N14 1_555 1_555
N15 C43 1_555 1_555
C44 N15 1_555 1_555
N16 C42 1_555 1_555
N17 C45 1_555 1_555
C45 H29 1_555 1_555
C46 C45 1_555 1_555
H30 C46 1_555 1_555
C47 C43 1_555 1_555
C48 C47 1_555 1_555
H31 C48 1_555 1_555
C49 N17 1_555 1_555
H32 C49 1_555 1_555
N18 C50 1_555 1_555
C50 H33 1_555 1_555
C51 C50 1_555 1_555
H34 C51 1_555 1_555
C52 C44 1_555 1_555
C53 C52 1_555 1_555
H35 C53 1_555 1_555
C54 N18 1_555 1_555
H36 C54 1_555 1_555
I7 Zn4 1_555 1_555
Zn4 N18 1_555 1_555
I8 Zn4 1_555 1_555
N19 Zn4 1_555 1_555
C55 N19 1_555 1_555
H37 C55 1_555 1_555
C56 C55 1_555 1_555
H38 C56 1_555 1_555
C57 C56 1_555 1_555
C58 C57 1_555 1_555
H39 C58 1_555 1_555
C59 N19 1_555 1_555
H40 C59 1_555 1_555
C60 C57 1_555 1_555
N20 C60 1_555 1_555
C61 N20 1_555 1_555
N21 C61 1_555 1_555
C62 N21 1_555 1_555
N22 C60 1_555 1_555
N23 C63 1_555 1_555
C63 H41 1_555 1_555
C64 C63 1_555 1_555
H42 C64 1_555 1_555
C65 C61 1_555 1_555
C66 C65 1_555 1_555
H43 C66 1_555 1_555
C67 N23 1_555 1_555
H44 C67 1_555 1_555
N24 C68 1_555 1_555
C68 H45 1_555 1_555
C69 C68 1_555 1_555
H46 C69 1_555 1_555
C70 C62 1_555 1_555
C71 C70 1_555 1_555
H47 C71 1_555 1_555
C72 N24 1_555 1_555
H48 C72 1_555 1_555
I9 Zn5 1_555 1_555
Zn5 N23 1_555 1_555
I10 Zn5 1_555 1_555
I11 Zn6 1_555 1_555
Zn6 N24 1_555 1_555
I12 Zn6 1_555 1_555
I13 Zn7 1_555 1_555
Zn7 N17 1_555 1_555
I14 Zn7 1_555 1_555
N25 Zn7 1_555 1_555
C73 N25 1_555 1_555
H49 C73 1_555 1_555
C74 C73 1_555 1_555
H50 C74 1_555 1_555
C75 C74 1_555 1_555
C76 C75 1_555 1_555
H51 C76 1_555 1_555
C77 N25 1_555 1_555
H52 C77 1_555 1_555
C78 C75 1_555 1_555
N26 C78 1_555 1_555
C79 N26 1_555 1_555
N27 C79 1_555 1_555
C80 N27 1_555 1_555
N28 C78 1_555 1_555
N29 C81 1_555 1_555
C81 H53 1_555 1_555
C82 C81 1_555 1_555
H54 C82 1_555 1_555
C83 C79 1_555 1_555
C84 C83 1_555 1_555
H55 C84 1_555 1_555
C85 N29 1_555 1_555
H56 C85 1_555 1_555
I15 Zn8 1_555 1_555
Zn8 N29 1_555 1_555
I16 Zn8 1_555 1_555
N30 C86 1_555 1_555
C86 H57 1_555 1_555
C87 C86 1_555 1_555
H58 C87 1_555 1_555
C88 C80 1_555 1_555
C89 C88 1_555 1_555
H59 C89 1_555 1_555
C90 N30 1_555 1_555
H60 C90 1_555 1_555
N31 Zn8 1_555 1_555
C91 N31 1_555 1_555
H61 C91 1_555 1_555
C92 C91 1_555 1_555
H62 C92 1_555 1_555
C93 C92 1_555 1_555
C94 C93 1_555 1_555
H63 C94 1_555 1_555
C95 N31 1_555 1_555
H64 C95 1_555 1_555
C96 C93 1_555 1_555
N32 C96 1_555 1_555
C97 N32 1_555 1_555
N33 C97 1_555 1_555
C98 N33 1_555 1_555
N34 C96 1_555 1_555
N35 C99 1_555 1_555
C99 H65 1_555 1_555
C100 C99 1_555 1_555
H66 C100 1_555 1_555
C101 C97 1_555 1_555
C102 C101 1_555 1_555
H67 C102 1_555 1_555
C103 N35 1_555 1_555
H68 C103 1_555 1_555
N36 C104 1_555 1_555
C104 H69 1_555 1_555
C105 C104 1_555 1_555
H70 C105 1_555 1_555
C106 C98 1_555 1_555
C107 C106 1_555 1_555
H71 C107 1_555 1_555
C108 N36 1_555 1_555
H72 C108 1_555 1_555
I17 Zn9 1_555 1_555
Zn9 N36 1_555 1_555
I18 Zn9 1_555 1_555
I19 Zn10 1_555 1_555
Zn10 N30 1_555 1_555
I20 Zn10 1_555 1_555
N37 Zn10 1_555 1_555
C109 N37 1_555 1_555
H73 C109 1_555 1_555
C110 C109 1_555 1_555
H74 C110 1_555 1_555
C111 C110 1_555 1_555
C112 C111 1_555 1_555
H75 C112 1_555 1_555
C113 N37 1_555 1_555
H76 C113 1_555 1_555
C114 C111 1_555 1_555
N38 C114 1_555 1_555
C115 N38 1_555 1_555
N39 C115 1_555 1_555
C116 N39 1_555 1_555
N40 C114 1_555 1_555
N41 C117 1_555 1_555
C117 H77 1_555 1_555
C118 C117 1_555 1_555
H78 C118 1_555 1_555
C119 C115 1_555 1_555
C120 C119 1_555 1_555
H79 C120 1_555 1_555
C121 N41 1_555 1_555
H80 C121 1_555 1_555
N42 C122 1_555 1_555
C122 H81 1_555 1_555
C123 C122 1_555 1_555
H82 C123 1_555 1_555
C124 C116 1_555 1_555
C125 C124 1_555 1_555
H83 C125 1_555 1_555
C126 N42 1_555 1_555
H84 C126 1_555 1_555
I21 Zn11 1_555 1_555
Zn11 N41 1_555 1_555
I22 Zn11 1_555 1_555
I23 Zn12 1_555 1_555
Zn12 N42 1_555 1_555
I24 Zn12 1_555 1_555
N43 Zn12 1_555 1_555
C127 N43 1_555 1_555
H85 C127 1_555 1_555
C128 C127 1_555 1_555
H86 C128 1_555 1_555
C129 C128 1_555 1_555
C130 C129 1_555 1_555
H87 C130 1_555 1_555
C131 N43 1_555 1_555
H88 C131 1_555 1_555
C132 C129 1_555 1_555
N44 C132 1_555 1_555
C133 N44 1_555 1_555
N45 C133 1_555 1_555
C134 N45 1_555 1_555
N46 C132 1_555 1_555
N47 C135 1_555 1_555
C135 H89 1_555 1_555
C136 C135 1_555 1_555
H90 C136 1_555 1_555
C137 C133 1_555 1_555
C138 C137 1_555 1_555
H91 C138 1_555 1_555
C139 N47 1_555 1_555
H92 C139 1_555 1_555
N48 C140 1_555 1_555
C140 H93 1_555 1_555
C141 C140 1_555 1_555
H94 C141 1_555 1_555
C142 C134 1_555 1_555
C143 C142 1_555 1_555
H95 C143 1_555 1_555
C144 N48 1_555 1_555
H96 C144 1_555 1_555
O1 C145 1_555 1_555
C145 C146 1_555 1_555
C146 H97 1_555 1_555
C147 C146 1_555 1_555
H98 C147 1_555 1_555
C148 C147 1_555 1_555
H99 C148 1_555 1_555
H100 C148 1_555 1_555
C149 C148 1_555 1_555
H101 C149 1_555 1_555
H102 C149 1_555 1_555
C150 C149 1_555 1_555
C151 C150 1_555 1_555
H103 C151 1_555 1_555
C152 C151 1_555 1_555
H104 C152 1_555 1_555
C153 C152 1_555 1_555
C154 C153 1_555 1_555
C155 C150 1_555 1_555
C156 O1 1_555 1_555
H105 C156 1_555 1_555
O2 C145 1_555 1_555
C157 C146 1_555 1_555
H106 C157 1_555 1_555
H107 C157 1_555 1_555
H108 C157 1_555 1_555
C158 C150 1_555 1_555
H109 C158 1_555 1_555
H110 C158 1_555 1_555
H111 C158 1_555 1_555
O3 C153 1_555 1_555
C159 C154 1_555 1_555
H112 C159 1_555 1_555
H113 C159 1_555 1_555
H114 C159 1_555 1_555
O4 C160 1_555 1_555
C160 C161 1_555 1_555
C161 H115 1_555 1_555
C162 C161 1_555 1_555
H116 C162 1_555 1_555
C163 C162 1_555 1_555
H117 C163 1_555 1_555
H118 C163 1_555 1_555
C164 C163 1_555 1_555
H119 C164 1_555 1_555
H120 C164 1_555 1_555
C165 C164 1_555 1_555
C166 C165 1_555 1_555
H121 C166 1_555 1_555
C167 C166 1_555 1_555
H122 C167 1_555 1_555
C168 C167 1_555 1_555
C169 C168 1_555 1_555
C170 C165 1_555 1_555
C171 O4 1_555 1_555
H123 C171 1_555 1_555
O5 C160 1_555 1_555
C172 C161 1_555 1_555
H124 C172 1_555 1_555
H125 C172 1_555 1_555
H126 C172 1_555 1_555
C173 C165 1_555 1_555
H127 C173 1_555 1_555
H128 C173 1_555 1_555
H129 C173 1_555 1_555
O6 C168 1_555 1_555
C174 C169 1_555 1_555
H130 C174 1_555 1_555
H131 C174 1_555 1_555
H132 C174 1_555 1_555
O7 C175 1_555 1_555
C175 C176 1_555 1_555
C176 H133 1_555 1_555
C177 C176 1_555 1_555
H134 C177 1_555 1_555
C178 C177 1_555 1_555
H135 C178 1_555 1_555
H136 C178 1_555 1_555
C179 C178 1_555 1_555
H137 C179 1_555 1_555
H138 C179 1_555 1_555
C180 C179 1_555 1_555
C181 C180 1_555 1_555
H139 C181 1_555 1_555
C182 C181 1_555 1_555
H140 C182 1_555 1_555
C183 C182 1_555 1_555
C184 C183 1_555 1_555
C185 C180 1_555 1_555
C186 O7 1_555 1_555
H141 C186 1_555 1_555
O8 C175 1_555 1_555
C187 C176 1_555 1_555
H142 C187 1_555 1_555
H143 C187 1_555 1_555
H144 C187 1_555 1_555
C188 C180 1_555 1_555
H145 C188 1_555 1_555
H146 C188 1_555 1_555
H147 C188 1_555 1_555
O9 C183 1_555 1_555
C189 C184 1_555 1_555
H148 C189 1_555 1_555
H149 C189 1_555 1_555
H150 C189 1_555 1_555
O10 C190 1_555 1_555
C190 C191 1_555 1_555
C191 H151 1_555 1_555
C192 C191 1_555 1_555
H152 C192 1_555 1_555
C193 C192 1_555 1_555
H153 C193 1_555 1_555
H154 C193 1_555 1_555
C194 C193 1_555 1_555
H155 C194 1_555 1_555
H156 C194 1_555 1_555
C195 C194 1_555 1_555
C196 C195 1_555 1_555
H157 C196 1_555 1_555
C197 C196 1_555 1_555
H158 C197 1_555 1_555
C198 C197 1_555 1_555
C199 C198 1_555 1_555
C200 C195 1_555 1_555
C201 O10 1_555 1_555
H159 C201 1_555 1_555
O11 C190 1_555 1_555
C202 C191 1_555 1_555
H160 C202 1_555 1_555
H161 C202 1_555 1_555
H162 C202 1_555 1_555
C203 C195 1_555 1_555
H163 C203 1_555 1_555
H164 C203 1_555 1_555
H165 C203 1_555 1_555
O12 C198 1_555 1_555
C204 C199 1_555 1_555
H166 C204 1_555 1_555
H167 C204 1_555 1_555
H168 C204 1_555 1_555
O13 C205 1_555 1_555
C205 C206 1_555 1_555
C206 H169 1_555 1_555
C207 C206 1_555 1_555
H170 C207 1_555 1_555
C208 C207 1_555 1_555
H171 C208 1_555 1_555
H172 C208 1_555 1_555
C209 C208 1_555 1_555
H173 C209 1_555 1_555
H174 C209 1_555 1_555
C210 C209 1_555 1_555
C211 C210 1_555 1_555
H175 C211 1_555 1_555
C212 C211 1_555 1_555
H176 C212 1_555 1_555
C213 C212 1_555 1_555
C214 C213 1_555 1_555
C215 C210 1_555 1_555
C216 O13 1_555 1_555
H177 C216 1_555 1_555
O14 C205 1_555 1_555
C217 C206 1_555 1_555
H178 C217 1_555 1_555
H179 C217 1_555 1_555
H180 C217 1_555 1_555
C218 C210 1_555 1_555
H181 C218 1_555 1_555
H182 C218 1_555 1_555
H183 C218 1_555 1_555
O15 C213 1_555 1_555
C219 C214 1_555 1_555
H184 C219 1_555 1_555
H185 C219 1_555 1_555
H186 C219 1_555 1_555
C220 H187 1_555 1_555
H188 C220 1_555 1_555
C221 C220 1_555 1_555
H189 C221 1_555 1_555
H190 C221 1_555 1_555
C222 C221 1_555 1_555
H191 C222 1_555 1_555
H192 C222 1_555 1_555
C223 C222 1_555 1_555
H193 C223 1_555 1_555
H194 C223 1_555 1_555
C224 C223 1_555 1_555
H195 C224 1_555 1_555
H196 C224 1_555 1_555
C225 C220 1_555 1_555
H197 C225 1_555 1_555
H198 C225 1_555 1_555
C226 H199 1_555 1_555
H200 C226 1_555 1_555
C227 C226 1_555 1_555
H201 C227 1_555 1_555
H202 C227 1_555 1_555
C228 C227 1_555 1_555
H203 C228 1_555 1_555
H204 C228 1_555 1_555
C229 C228 1_555 1_555
H205 C229 1_555 1_555
H206 C229 1_555 1_555
C230 C229 1_555 1_555
H207 C230 1_555 1_555
H208 C230 1_555 1_555
C231 C226 1_555 1_555
H209 C231 1_555 1_555
H210 C231 1_555 1_555
C232 H211 1_555 1_555
H212 C232 1_555 1_555
C233 C232 1_555 1_555
H213 C233 1_555 1_555
H214 C233 1_555 1_555
C234 C233 1_555 1_555
H215 C234 1_555 1_555
H216 C234 1_555 1_555
C235 C234 1_555 1_555
H217 C235 1_555 1_555
H218 C235 1_555 1_555
C236 C235 1_555 1_555
H219 C236 1_555 1_555
H220 C236 1_555 1_555
C237 C232 1_555 1_555
H221 C237 1_555 1_555
H222 C237 1_555 1_555
C238 H223 1_555 1_555
H224 C238 1_555 1_555
C239 C238 1_555 1_555
H225 C239 1_555 1_555
H226 C239 1_555 1_555
C240 C239 1_555 1_555
H227 C240 1_555 1_555
H228 C240 1_555 1_555
C241 C240 1_555 1_555
H229 C241 1_555 1_555
H230 C241 1_555 1_555
C242 C241 1_555 1_555
H231 C242 1_555 1_555
H232 C242 1_555 1_555
C243 C238 1_555 1_555
H233 C243 1_555 1_555
H234 C243 1_555 1_555
C244 H235 1_555 1_555
H236 C244 1_555 1_555
C245 C244 1_555 1_555
H237 C245 1_555 1_555
H238 C245 1_555 1_555
C246 C245 1_555 1_555
H239 C246 1_555 1_555
H240 C246 1_555 1_555
C247 C246 1_555 1_555
H241 C247 1_555 1_555
H242 C247 1_555 1_555
C248 C247 1_555 1_555
H243 C248 1_555 1_555
H244 C248 1_555 1_555
C249 C244 1_555 1_555
H245 C249 1_555 1_555
H246 C249 1_555 1_555
C250 H247 1_555 1_555
H248 C250 1_555 1_555
C251 C250 1_555 1_555
H249 C251 1_555 1_555
H250 C251 1_555 1_555
C252 C251 1_555 1_555
H251 C252 1_555 1_555
H252 C252 1_555 1_555
C253 C252 1_555 1_555
H253 C253 1_555 1_555
H254 C253 1_555 1_555
C254 C253 1_555 1_555
H255 C254 1_555 1_555
H256 C254 1_555 1_555
C255 C250 1_555 1_555
H257 C255 1_555 1_555
H258 C255 1_555 1_555
Zn1_2 N47 1_555 1_555
N5_2 Zn5 1_555 1_555
N12_2 Zn11 1_555 1_555
Zn5_2 N5 1_555 1_555
Zn6_2 N35 1_555 1_555
N35_2 Zn6 1_555 1_555
Zn9_2 N48 1_555 1_555
Zn11_2 N12 1_555 1_555
N47_2 Zn1 1_555 1_555
N48_2 Zn9 1_555 1_555
C4 C5 1_555 1_555
C8 N4 1_555 1_555
C10 C11 1_555 1_555
C12 C13 1_555 1_555
C15 C16 1_555 1_555
C17 C18 1_555 1_555
C22 C23 1_555 1_555
C26 N10 1_555 1_555
C28 C29 1_555 1_555
C30 C31 1_555 1_555
C33 C34 1_555 1_555
C35 C36 1_555 1_555
C40 C41 1_555 1_555
C44 N16 1_555 1_555
C46 C47 1_555 1_555
C48 C49 1_555 1_555
C51 C52 1_555 1_555
C53 C54 1_555 1_555
C58 C59 1_555 1_555
C62 N22 1_555 1_555
C64 C65 1_555 1_555
C66 C67 1_555 1_555
C69 C70 1_555 1_555
C71 C72 1_555 1_555
C76 C77 1_555 1_555
C80 N28 1_555 1_555
C82 C83 1_555 1_555
C84 C85 1_555 1_555
C87 C88 1_555 1_555
C89 C90 1_555 1_555
C94 C95 1_555 1_555
C98 N34 1_555 1_555
C100 C101 1_555 1_555
C102 C103 1_555 1_555
C105 C106 1_555 1_555
C107 C108 1_555 1_555
C112 C113 1_555 1_555
C116 N40 1_555 1_555
C118 C119 1_555 1_555
C120 C121 1_555 1_555
C123 C124 1_555 1_555
C125 C126 1_555 1_555
C130 C131 1_555 1_555
C134 N46 1_555 1_555
C136 C137 1_555 1_555
C138 C139 1_555 1_555
C141 C142 1_555 1_555
C143 C144 1_555 1_555
C147 C156 1_555 1_555
C154 C155 1_555 1_555
C155 C156 1_555 1_555
C162 C171 1_555 1_555
C169 C170 1_555 1_555
C170 C171 1_555 1_555
C177 C186 1_555 1_555
C184 C185 1_555 1_555
C185 C186 1_555 1_555
C192 C201 1_555 1_555
C199 C200 1_555 1_555
C200 C201 1_555 1_555
C207 C216 1_555 1_555
C214 C215 1_555 1_555
C215 C216 1_555 1_555
C224 C225 1_555 1_555
C230 C231 1_555 1_555
C236 C237 1_555 1_555
C242 C243 1_555 1_555
C248 C249 1_555 1_555
C254 C255 1_555 1_555

#END
