
#######################################################################
#
#                 Cambridge Crystallographic Data Centre
#                                CCDC 
#
#######################################################################
#
# If this CIF has been generated from an entry in the Cambridge 
# Structural Database, then it will include bibliographic, chemical, 
# crystal, experimental, refinement or atomic coordinate data resulting 
# from the CCDC's data processing and validation procedures.
#
#######################################################################

data_REXDUV
_chemical_formula_moiety         '(C45 H32 I6 N12 O1 Zn3)n'
_symmetry_cell_setting           monoclinic
_symmetry_space_group_name_H-M   'C 2/c'
_symmetry_Int_Tables_number      15
_space_group_name_Hall           '-C 2yc'
loop_
_symmetry_equiv_pos_site_id
_symmetry_equiv_pos_as_xyz
1 x,y,z
2 -x,y,1/2-z
3 1/2+x,1/2+y,z
4 1/2-x,1/2+y,1/2-z
5 -x,-y,-z
6 x,-y,1/2+z
7 1/2-x,1/2-y,-z
8 1/2+x,1/2-y,1/2+z
_cell_length_a                   34.847(4)
_cell_length_b                   14.7560(16)
_cell_length_c                   30.740(4)
_cell_angle_alpha                90
_cell_angle_beta                 102.007(2)
_cell_angle_gamma                90
_cell_volume                     15460.8
loop_
_atom_site_label
_atom_site_type_symbol
_atom_site_fract_x
_atom_site_fract_y
_atom_site_fract_z
_atom_site_U_iso_or_equiv
_atom_site_thermal_displace_type
Zn1 Zn 0.41515(3) 0.12667(5) 0.40891(3) 0.0547 Uani
I1 I 0.47282(2) 0.15121(5) 0.37122(3) 0.0899 Uani
I2 I 0.37774(3) 0.23866(4) 0.44523(2) 0.0926 Uani
Zn2 Zn 0.12338(3) 0.10169(6) 0.05980(3) 0.0611 Uani
I3 I 0.14348(2) 0.09463(6) -0.01347(3) 0.0967 Uani
I4 I 0.10733(3) 0.24371(4) 0.09798(4) 0.1110 Uani
Zn3 Zn 0.32673(3) -0.64182(5) 0.23091(3) 0.0516 Uani
I5 I 0.264636(19) -0.73225(3) 0.20532(2) 0.0684 Uani
I6 I 0.36990(2) -0.65908(4) 0.307868(19) 0.0680 Uani
N1 N 0.37733(19) 0.0590(4) 0.3592(2) 0.0538 Uani
C1 C 0.3453(2) 0.0966(4) 0.3336(2) 0.0476 Uani
H1 H 0.3382 0.1565 0.3401 0.0570 Uiso
C2 C 0.3228(2) 0.0526(4) 0.2989(2) 0.0476 Uani
H2 H 0.3006 0.0819 0.2814 0.0570 Uiso
C3 C 0.3323(2) -0.0363(4) 0.2888(2) 0.0507 Uani
C4 C 0.3640(3) -0.0755(5) 0.3155(3) 0.0761 Uani
H3 H 0.3709 -0.1365 0.3110 0.0910 Uiso
C5 C 0.3858(3) -0.0249(5) 0.3492(4) 0.0902 Uani
H4 H 0.4086 -0.0520 0.3666 0.1090 Uiso
N2 N 0.16729(18) 0.0370(4) 0.1038(2) 0.0539 Uani
C6 C 0.1778(2) -0.0476(5) 0.0959(3) 0.0600 Uani
H5 H 0.1642 -0.0767 0.0696 0.0720 Uiso
C7 C 0.2066(2) -0.0944(4) 0.1230(2) 0.0518 Uani
H6 H 0.2124 -0.1550 0.1163 0.0620 Uiso
C8 C 0.2273(2) -0.0519(4) 0.1610(2) 0.0424 Uani
C9 C 0.2157(2) 0.0363(5) 0.1693(3) 0.0590 Uani
H7 H 0.2285 0.0671 0.1954 0.0710 Uiso
C10 C 0.1870(3) 0.0770(5) 0.1410(3) 0.0639 Uani
H8 H 0.1801 0.1372 0.1473 0.0770 Uiso
N3 N 0.31523(19) -0.5038(4) 0.2218(2) 0.0496 Uani
C11 C 0.3398(3) -0.4464(5) 0.2473(3) 0.0613 Uani
H9 H 0.3619 -0.4703 0.2674 0.0740 Uiso
C12 C 0.3344(3) -0.3551(5) 0.2456(4) 0.0750 Uani
H10 H 0.3520 -0.3165 0.2649 0.0900 Uiso
C13 C 0.3028(2) -0.3189(4) 0.2156(2) 0.0453 Uani
C14 C 0.2788(2) -0.3780(4) 0.1891(3) 0.0464 Uani
H11 H 0.2574 -0.3560 0.1673 0.0550 Uiso
C15 C 0.2854(2) -0.4707(4) 0.1940(3) 0.0525 Uani
H12 H 0.2674 -0.5112 0.1764 0.0630 Uiso
C16 C 0.3086(2) -0.0879(4) 0.2523(2) 0.0449 Uani
N4 N 0.27860(17) -0.0452(3) 0.22585(19) 0.0453 Uani
C17 C 0.2589(2) -0.0965(4) 0.1928(2) 0.0427 Uani
N5 N 0.26623(17) -0.1857(3) 0.18570(19) 0.0429 Uani
C18 C 0.2953(2) -0.2206(4) 0.2163(2) 0.0445 Uani
N6 N 0.31920(17) -0.1740(3) 0.24849(19) 0.0443 Uani
N7 N 0.36043(19) -0.6624(4) 0.1850(2) 0.0485 Uani
C19 C 0.3492(3) -0.7176(6) 0.1500(3) 0.0666 Uani
H13 H 0.3241 -0.7453 0.1458 0.0800 Uiso
C20 C 0.3723(3) -0.7358(5) 0.1200(3) 0.0626 Uani
H14 H 0.3638 -0.7773 0.0964 0.0750 Uiso
C21 C 0.4086(2) -0.6920(4) 0.1250(2) 0.0454 Uani
C22 C 0.4194(3) -0.6303(7) 0.1595(3) 0.0814 Uani
H15 H 0.4434 -0.5978 0.1639 0.0970 Uiso
C23 C 0.3930(3) -0.6192(8) 0.1870(4) 0.0830 Uani
H16 H 0.3995 -0.5750 0.2098 0.1000 Uiso
N8 N 0.4285(2) -1.0200(4) -0.0472(2) 0.0547 Uani
C24 C 0.4607(2) -0.9670(5) -0.0452(2) 0.0488 Uani
H17 H 0.4791 -0.9820 -0.0630 0.0590 Uiso
C25 C 0.4672(2) -0.8934(5) -0.0184(2) 0.0460 Uani
H18 H 0.4903 -0.8584 -0.0172 0.0550 Uiso
C26 C 0.4410(2) -0.8685(5) 0.0070(2) 0.0502 Uani
C27 C 0.4083(3) -0.9224(7) 0.0055(3) 0.0771 Uani
H19 H 0.3893 -0.9077 0.0225 0.0930 Uiso
C28 C 0.4040(3) -0.9979(6) -0.0212(4) 0.0795 Uani
H20 H 0.3823 -1.0366 -0.0210 0.0950 Uiso
N9 N 0.57706(19) -0.4839(4) 0.0569(2) 0.0580 Uani
C29 C 0.5596(4) -0.4881(9) 0.0908(4) 0.1068 Uani
H21 H 0.5691 -0.4490 0.1152 0.1280 Uiso
C30 C 0.5284(4) -0.5450(9) 0.0940(4) 0.1066 Uani
H22 H 0.5173 -0.5467 0.1198 0.1280 Uiso
C31 C 0.5147(2) -0.5982(5) 0.0578(2) 0.0480 Uani
C32 C 0.5326(3) -0.5972(5) 0.0220(3) 0.0589 Uani
H23 H 0.5240 -0.6359 -0.0028 0.0710 Uiso
C33 C 0.5632(2) -0.5383(6) 0.0233(3) 0.0592 Uani
H24 H 0.5752 -0.5366 -0.0018 0.0710 Uiso
C34 C 0.4331(2) -0.7055(5) 0.0916(2) 0.0466 Uani
N10 N 0.42524(18) -0.7799(4) 0.0662(2) 0.0484 Uani
C35 C 0.4482(2) -0.7869(5) 0.0355(2) 0.0470 Uani
N11 N 0.47487(18) -0.7294(4) 0.02966(18) 0.0443 Uani
C36 C 0.4810(2) -0.6604(5) 0.0601(3) 0.0507 Uani
N12 N 0.46141(18) -0.6471(4) 0.0915(2) 0.0458 Uani
Zn1E Zn 0.41515(3) -1.12667(5) -0.09109(3) 0.0547 Uani
Zn2B Zn 0.62338(3) -0.39831(6) 0.05980(3) 0.0611 Uani
N8E N 0.4285(2) 0.0200(4) 0.4528(2) 0.0547 Uani
N9B N 0.07706(19) 0.0161(4) 0.0569(2) 0.0580 Uani
C37 C 0.2413(6) 0.3338(14) 0.0702(6) 0.0900 Uani
C38 C 0.2659(6) 0.4053(16) 0.0665(7) 0.1246 Uani
H25 H 0.2910 0.3967 0.0597 0.1490 Uiso
C39 C 0.2516(7) 0.4904(18) 0.0734(8) 0.1567 Uani
H26 H 0.2682 0.5405 0.0711 0.1870 Uiso
C40 C 0.2154(7) 0.5098(17) 0.0833(6) 0.1191 Uani
H27 H 0.2063 0.5693 0.0874 0.1440 Uiso
C41 C 0.1941(7) 0.432(2) 0.0863(8) 0.1314 Uani
H28 H 0.1694 0.4406 0.0941 0.1570 Uiso
C42 C 0.2044(7) 0.3431(19) 0.0794(10) 0.1786 Uani
H29 H 0.1875 0.2931 0.0808 0.2140 Uiso
C43 C 0.2479(8) 0.2364(16) 0.0668(9) 0.1049 Uani
H30 H 0.2285 0.1970 0.0738 0.1260 Uiso
C44 C 0.2777(8) 0.199(2) 0.0551(8) 0.1243 Uani
H31 H 0.2969 0.2389 0.0477 0.1470 Uiso
C45 C 0.2852(8) 0.096(3) 0.0521(8) 0.1224 Uani
H32 H 0.2651 0.0553 0.0557 0.1460 Uiso
O1 O 0.3154(8) 0.0667(19) 0.0452(8) 0.1534 Uani
loop_
_atom_site_aniso_label
_atom_site_aniso_U_11
_atom_site_aniso_U_22
_atom_site_aniso_U_33
_atom_site_aniso_U_23
_atom_site_aniso_U_13
_atom_site_aniso_U_12
Zn1 0.0709(6) 0.0357(4) 0.0445(5) 0.0044(3) -0.0179(4) -0.0062(4)
I1 0.0911(5) 0.0848(5) 0.0805(5) 0.0168(3) -0.0128(4) -0.0281(4)
I2 0.1436(7) 0.0495(3) 0.0696(4) -0.0030(3) -0.0127(4) 0.0287(4)
Zn2 0.0481(5) 0.0478(5) 0.0739(6) 0.0192(4) -0.0182(4) -0.0085(4)
I3 0.0731(5) 0.1274(6) 0.0843(5) 0.0558(4) 0.0041(4) -0.0023(4)
I4 0.1076(6) 0.0480(4) 0.1464(8) 0.0017(4) -0.0448(6) 0.0117(3)
Zn3 0.0683(6) 0.0294(4) 0.0591(5) -0.0016(3) 0.0177(4) 0.0031(3)
I5 0.0793(4) 0.0413(3) 0.0905(5) -0.0140(2) 0.0310(3) -0.0127(2)
I6 0.0919(5) 0.0518(3) 0.0600(4) 0.0105(2) 0.0153(3) 0.0139(3)
N1 0.056(4) 0.035(3) 0.059(4) 0.005(3) -0.014(3) -0.003(3)
C1 0.056(4) 0.025(3) 0.056(4) 0.005(3) -0.002(3) 0.003(3)
C2 0.055(4) 0.032(3) 0.044(4) 0.005(3) -0.017(3) 0.003(3)
C3 0.059(4) 0.032(3) 0.051(4) 0.000(3) -0.012(3) -0.001(3)
C4 0.078(6) 0.038(4) 0.089(6) -0.008(4) -0.036(5) 0.016(4)
C5 0.095(7) 0.041(4) 0.099(7) -0.014(4) -0.062(6) 0.020(4)
N2 0.046(3) 0.042(3) 0.064(4) 0.015(3) -0.011(3) -0.012(3)
C6 0.062(5) 0.038(4) 0.064(5) 0.006(3) -0.024(4) -0.012(3)
C7 0.064(5) 0.032(3) 0.049(4) 0.002(3) -0.012(4) -0.006(3)
C8 0.049(4) 0.029(3) 0.043(4) 0.008(2) -0.005(3) -0.006(3)
C9 0.062(5) 0.033(3) 0.068(5) -0.001(3) -0.019(4) -0.010(3)
C10 0.067(5) 0.034(3) 0.078(6) 0.006(3) -0.014(4) -0.013(3)
N3 0.065(4) 0.026(2) 0.058(4) -0.001(2) 0.013(3) 0.003(3)
C11 0.062(5) 0.031(3) 0.079(5) -0.009(3) -0.013(4) 0.010(3)
C12 0.082(6) 0.032(4) 0.093(7) -0.008(4) -0.023(5) 0.002(4)
C13 0.054(4) 0.029(3) 0.049(4) 0.001(3) 0.002(3) 0.001(3)
C14 0.049(4) 0.030(3) 0.057(4) -0.005(3) 0.004(3) 0.006(3)
C15 0.062(5) 0.031(3) 0.060(5) -0.007(3) 0.002(4) -0.007(3)
C16 0.052(4) 0.027(3) 0.047(4) 0.003(3) -0.010(3) -0.005(3)
N4 0.046(3) 0.029(2) 0.053(3) 0.001(2) -0.008(3) -0.005(2)
C17 0.049(4) 0.031(3) 0.043(4) 0.005(3) -0.002(3) -0.006(3)
N5 0.048(3) 0.025(2) 0.050(3) -0.001(2) -0.003(3) -0.008(2)
C18 0.054(4) 0.030(3) 0.047(4) 0.002(3) 0.005(3) -0.007(3)
N6 0.045(3) 0.029(2) 0.049(3) 0.003(2) -0.013(3) -0.005(2)
N7 0.059(4) 0.037(3) 0.051(3) -0.002(2) 0.015(3) 0.005(3)
C19 0.069(6) 0.058(5) 0.072(6) -0.009(4) 0.013(5) -0.009(4)
C20 0.070(6) 0.055(4) 0.063(5) -0.016(4) 0.014(4) -0.016(4)
C21 0.056(4) 0.039(3) 0.039(4) -0.003(3) 0.005(3) -0.001(3)
C22 0.081(7) 0.096(7) 0.069(6) -0.042(5) 0.020(5) -0.040(6)
C23 0.081(7) 0.096(7) 0.078(6) -0.053(6) 0.030(5) -0.028(6)
N8 0.068(4) 0.044(3) 0.044(3) -0.004(3) -0.007(3) -0.002(3)
C24 0.049(4) 0.052(4) 0.038(4) -0.002(3) -0.008(3) 0.005(3)
C25 0.043(4) 0.043(3) 0.043(4) -0.004(3) -0.012(3) 0.007(3)
C26 0.055(5) 0.041(3) 0.047(4) -0.003(3) -0.007(3) -0.008(3)
C27 0.095(7) 0.078(6) 0.067(6) -0.030(5) 0.037(5) -0.034(5)
C28 0.095(7) 0.059(5) 0.088(7) -0.031(5) 0.027(6) -0.040(5)
N9 0.049(4) 0.055(4) 0.060(4) -0.008(3) -0.012(3) -0.009(3)
C29 0.106(9) 0.140(11) 0.075(7) -0.049(7) 0.020(6) -0.085(8)
C30 0.109(9) 0.153(11) 0.070(6) -0.063(7) 0.047(6) -0.077(8)
C31 0.043(4) 0.046(4) 0.049(4) -0.008(3) -0.004(3) -0.008(3)
C32 0.060(5) 0.055(4) 0.058(5) -0.016(4) 0.004(4) -0.012(4)
C33 0.060(5) 0.056(4) 0.063(5) -0.008(4) 0.016(4) -0.009(4)
C34 0.044(4) 0.046(4) 0.045(4) -0.008(3) -0.002(3) 0.006(3)
N10 0.052(4) 0.037(3) 0.049(3) -0.004(2) -0.006(3) 0.001(2)
C35 0.054(4) 0.045(4) 0.034(3) -0.001(3) -0.009(3) -0.002(3)
N11 0.052(4) 0.043(3) 0.034(3) -0.006(2) 0.000(2) -0.001(3)
C36 0.047(4) 0.046(4) 0.050(4) 0.003(3) -0.011(3) -0.003(3)
N12 0.047(3) 0.045(3) 0.043(3) -0.007(2) 0.004(3) -0.003(3)
Zn1E 0.0709 0.0357 0.0445 -0.0044 -0.0179 0.0062
Zn2B 0.0481 0.0478 0.0739 0.0192 -0.0182 -0.0085
N8E 0.068 0.044 0.044 0.004 -0.007 0.002
N9B 0.049 0.055 0.06 -0.008 -0.012 -0.009
C37 0.069(11) 0.138(15) 0.063(10) -0.014(10) 0.014(9) -0.003(11)
C38 0.066(12) 0.170(19) 0.141(17) 0.003(15) 0.029(12) -0.013(13)
C39 0.16(2) 0.16(2) 0.140(19) 0.016(16) 0.008(16) 0.005(16)
C40 0.055(13) 0.25(4) 0.046(11) -0.015(16) -0.004(9) 0.025(18)
C41 0.09(2) 0.20(4) 0.11(2) 0.01(2) 0.034(17) 0.04(2)
C42 0.17(2) 0.21(2) 0.16(2) 0.000(17) 0.044(17) -0.014(17)
C43 0.076(13) 0.146(17) 0.088(13) 0.020(12) 0.006(11) -0.022(12)
C44 0.11(2) 0.16(3) 0.077(16) -0.008(17) -0.040(16) -0.02(2)
C45 0.10(2) 0.19(3) 0.068(15) 0.019(17) -0.004(13) 0.05(2)
O1 0.15(2) 0.17(2) 0.140(19) 0.017(16) 0.030(16) 0.029(18)
loop_
_geom_bond_atom_site_label_1
_geom_bond_atom_site_label_2
_geom_bond_site_symmetry_1
_geom_bond_site_symmetry_2
Zn1 I1 1_555 1_555
I2 Zn1 1_555 1_555
Zn2 I3 1_555 1_555
I4 Zn2 1_555 1_555
Zn3 I5 1_555 1_555
I6 Zn3 1_555 1_555
N1 Zn1 1_555 1_555
C1 N1 1_555 1_555
H1 C1 1_555 1_555
C2 C1 1_555 1_555
H2 C2 1_555 1_555
C3 C2 1_555 1_555
C4 C3 1_555 1_555
H3 C4 1_555 1_555
C5 N1 1_555 1_555
H4 C5 1_555 1_555
N2 Zn2 1_555 1_555
C6 N2 1_555 1_555
H5 C6 1_555 1_555
C7 C6 1_555 1_555
H6 C7 1_555 1_555
C8 C7 1_555 1_555
C9 C8 1_555 1_555
H7 C9 1_555 1_555
C10 N2 1_555 1_555
H8 C10 1_555 1_555
N3 Zn3 1_555 1_555
C11 N3 1_555 1_555
H9 C11 1_555 1_555
C12 C11 1_555 1_555
H10 C12 1_555 1_555
C13 C12 1_555 1_555
C14 C13 1_555 1_555
H11 C14 1_555 1_555
C15 N3 1_555 1_555
H12 C15 1_555 1_555
C16 C3 1_555 1_555
N4 C16 1_555 1_555
C17 C8 1_555 1_555
N5 C17 1_555 1_555
C18 C13 1_555 1_555
N6 C16 1_555 1_555
N7 Zn3 1_555 1_555
C19 N7 1_555 1_555
H13 C19 1_555 1_555
C20 C19 1_555 1_555
H14 C20 1_555 1_555
C21 C20 1_555 1_555
C22 C21 1_555 1_555
H15 C22 1_555 1_555
C23 N7 1_555 1_555
H16 C23 1_555 1_555
N8 C24 1_555 1_555
C24 H17 1_555 1_555
C25 C24 1_555 1_555
H18 C25 1_555 1_555
C26 C25 1_555 1_555
C27 C26 1_555 1_555
H19 C27 1_555 1_555
C28 N8 1_555 1_555
H20 C28 1_555 1_555
N9 C29 1_555 1_555
C29 H21 1_555 1_555
C30 C29 1_555 1_555
H22 C30 1_555 1_555
C31 C30 1_555 1_555
C32 C31 1_555 1_555
H23 C32 1_555 1_555
C33 N9 1_555 1_555
H24 C33 1_555 1_555
C34 C21 1_555 1_555
N10 C34 1_555 1_555
C35 C26 1_555 1_555
N11 C35 1_555 1_555
C36 C31 1_555 1_555
N12 C34 1_555 1_555
C37 C38 1_555 1_555
C38 H25 1_555 1_555
C39 C38 1_555 1_555
H26 C39 1_555 1_555
C40 C39 1_555 1_555
H27 C40 1_555 1_555
C41 C40 1_555 1_555
H28 C41 1_555 1_555
C42 C37 1_555 1_555
H29 C42 1_555 1_555
C43 C37 1_555 1_555
H30 C43 1_555 1_555
C44 C43 1_555 1_555
H31 C44 1_555 1_555
C45 C44 1_555 1_555
H32 C45 1_555 1_555
O1 C45 1_555 1_555
Zn1E N8 1_555 1_555
Zn2B N9 1_555 1_555
N8E Zn1 1_555 1_555
N9B Zn2 1_555 1_555
C4 C5 1_555 1_555
C9 C10 1_555 1_555
C14 C15 1_555 1_555
N4 C17 1_555 1_555
N5 C18 1_555 1_555
C18 N6 1_555 1_555
C22 C23 1_555 1_555
C27 C28 1_555 1_555
C32 C33 1_555 1_555
N10 C35 1_555 1_555
N11 C36 1_555 1_555
C36 N12 1_555 1_555
C41 C42 1_555 1_555

#END
