
#######################################################################
#
#                 Cambridge Crystallographic Data Centre
#                                CCDC 
#
#######################################################################
#
# If this CIF has been generated from an entry in the Cambridge 
# Structural Database, then it will include bibliographic, chemical, 
# crystal, experimental, refinement or atomic coordinate data resulting 
# from the CCDC's data processing and validation procedures.
#
#######################################################################

data_REXDIJ
_chemical_formula_moiety         '(C50 H33 Br1 I6 N12 Zn3)n'
_symmetry_cell_setting           monoclinic
_symmetry_space_group_name_H-M   'C 2/c'
_symmetry_Int_Tables_number      15
_space_group_name_Hall           '-C 2yc'
loop_
_symmetry_equiv_pos_site_id
_symmetry_equiv_pos_as_xyz
1 x,y,z
2 -x,y,1/2-z
3 1/2+x,1/2+y,z
4 1/2-x,1/2+y,1/2-z
5 -x,-y,-z
6 x,-y,1/2+z
7 1/2-x,1/2-y,-z
8 1/2+x,1/2-y,1/2+z
_cell_length_a                   35.862(5)
_cell_length_b                   14.902(2)
_cell_length_c                   31.358(5)
_cell_angle_alpha                90
_cell_angle_beta                 102.694(2)
_cell_angle_gamma                90
_cell_volume                     16348.6
loop_
_atom_site_label
_atom_site_type_symbol
_atom_site_fract_x
_atom_site_fract_y
_atom_site_fract_z
_atom_site_U_iso_or_equiv
_atom_site_thermal_displace_type
Zn1 Zn 0.32502(6) -0.14543(9) 0.71740(6) 0.0756 Uani
I1 I 0.36945(5) -0.17382(8) 0.79177(4) 0.1154 Uani
I2 I 0.26287(4) -0.23067(6) 0.69162(5) 0.1089 Uani
N1 N 0.3128(3) -0.0072(6) 0.7141(3) 0.0569 Uani
C1 C 0.2800(3) 0.0263(6) 0.6910(5) 0.0685 Uani
H1 H 0.2614 -0.0122 0.6741 0.0820 Uiso
C2 C 0.2735(4) 0.1172(6) 0.6918(4) 0.0598 Uani
H2 H 0.2508 0.1407 0.6739 0.0710 Uiso
C3 C 0.2985(3) 0.1753(6) 0.7175(3) 0.0446 Uani
C4 C 0.3314(3) 0.1391(8) 0.7419(4) 0.0603 Uani
H3 H 0.3498 0.1760 0.7603 0.0720 Uiso
C5 C 0.3376(4) 0.0468(7) 0.7391(4) 0.0621 Uani
H4 H 0.3606 0.0220 0.7559 0.0740 Uiso
C6 C 0.2902(3) 0.2726(6) 0.7207(3) 0.0396 Uani
N2 N 0.2593(2) 0.3096(5) 0.6936(3) 0.0455 Uani
C7 C 0.2542(3) 0.3955(7) 0.7014(3) 0.0426 Uani
N3 N 0.2764(2) 0.4462(5) 0.7305(2) 0.0339 Uani
C8 C 0.3068(3) 0.4039(6) 0.7541(3) 0.0415 Uani
N4 N 0.3160(2) 0.3177(5) 0.7504(2) 0.0356 Uani
N5 N 0.1630(3) 0.5332(5) 0.6154(3) 0.0551 Uani
C9 C 0.1857(3) 0.5749(7) 0.6492(3) 0.0530 Uani
H5 H 0.1808 0.6364 0.6539 0.0640 Uiso
C10 C 0.2151(3) 0.5348(7) 0.6771(4) 0.0610 Uani
H6 H 0.2314 0.5686 0.6993 0.0730 Uiso
C11 C 0.2212(3) 0.4430(7) 0.6726(3) 0.0453 Uani
C12 C 0.1970(3) 0.3995(7) 0.6387(4) 0.0644 Uani
H7 H 0.2000 0.3371 0.6344 0.0770 Uiso
C13 C 0.1687(3) 0.4461(6) 0.6112(4) 0.0666 Uani
H8 H 0.1524 0.4146 0.5880 0.0800 Uiso
N6 N 0.3866(3) 0.5511(5) 0.8508(3) 0.0526 Uani
C14 C 0.3923(4) 0.4652(7) 0.8434(5) 0.0749 Uani
H9 H 0.4143 0.4359 0.8600 0.0900 Uiso
C15 C 0.3666(4) 0.4166(7) 0.8117(5) 0.0813 Uani
H10 H 0.3721 0.3561 0.8057 0.0970 Uiso
C16 C 0.3334(3) 0.4566(6) 0.7891(3) 0.0453 Uani
C17 C 0.3275(4) 0.5476(7) 0.7973(3) 0.0571 Uani
H11 H 0.3059 0.5787 0.7811 0.0680 Uiso
C18 C 0.3541(4) 0.5909(8) 0.8295(3) 0.0589 Uani
H12 H 0.3492 0.6510 0.8369 0.0710 Uiso
Zn2 Zn 0.12204(4) 0.59980(10) 0.57029(6) 0.0669 Uani
I3 I 0.14467(3) 0.59917(10) 0.49929(4) 0.1019 Uani
I4 I 0.10416(4) 0.73903(8) 0.60754(5) 0.1223 Uani
N7 N 0.0764(3) 0.5120(7) 0.5645(3) 0.0578 Uani
C19 C 0.0617(4) 0.4657(7) 0.5286(4) 0.0636 Uani
H13 H 0.0738 0.4710 0.5047 0.0760 Uiso
C20 C 0.0306(3) 0.4110(7) 0.5236(3) 0.0522 Uani
H14 H 0.0204 0.3818 0.4966 0.0620 Uiso
C21 C 0.0150(3) 0.4005(8) 0.5589(4) 0.0603 Uani
C22 C 0.0302(4) 0.4405(10) 0.5985(4) 0.0783 Uani
H15 H 0.0192 0.4322 0.6232 0.0940 Uiso
C23 C 0.0622(4) 0.4931(12) 0.6005(5) 0.0934 Uani
H16 H 0.0748 0.5171 0.6279 0.1120 Uiso
C24 C -0.0183(3) 0.3377(6) 0.5568(3) 0.0441 Uani
N8 N -0.0231(3) 0.2730(5) 0.5266(2) 0.0416 Uani
C25 C -0.0508(3) 0.2113(7) 0.5282(3) 0.0397 Uani
N9 N -0.0750(3) 0.2231(6) 0.5555(3) 0.0525 Uani
C26 C -0.0682(3) 0.2937(7) 0.5835(3) 0.0427 Uani
N10 N -0.0395(2) 0.3505(6) 0.5860(3) 0.0455 Uani
N11 N -0.0616(3) -0.0145(6) 0.4435(3) 0.0511 Uani
C27 C -0.0868(4) 0.0029(8) 0.4682(4) 0.0741 Uani
H17 H -0.1067 -0.0393 0.4681 0.0890 Uiso
C28 C -0.0855(4) 0.0785(8) 0.4938(4) 0.0647 Uani
H18 H -0.1062 0.0918 0.5073 0.0770 Uiso
C29 C -0.0550(3) 0.1336(8) 0.4997(4) 0.0563 Uani
C30 C -0.0274(3) 0.1170(7) 0.4751(3) 0.0464 Uani
H19 H -0.0066 0.1566 0.4758 0.0550 Uiso
C31 C -0.0320(3) 0.0409(6) 0.4501(4) 0.0627 Uani
H20 H -0.0119 0.0263 0.4360 0.0760 Uiso
N12 N -0.1428(3) 0.3389(7) 0.6706(4) 0.0724 Uani
C32 C -0.1066(4) 0.3668(11) 0.6799(5) 0.0841 Uani
H21 H -0.0976 0.3980 0.7066 0.1010 Uiso
C33 C -0.0817(4) 0.3533(11) 0.6531(4) 0.0862 Uani
H22 H -0.0562 0.3754 0.6611 0.1040 Uiso
C34 C -0.0937(3) 0.3078(7) 0.6151(3) 0.0581 Uani
C35 C -0.1302(3) 0.2732(8) 0.6075(4) 0.0621 Uani
H23 H -0.1392 0.2385 0.5819 0.0750 Uiso
C36 C -0.1538(4) 0.2871(9) 0.6357(4) 0.0730 Uani
H24 H -0.1783 0.2595 0.6302 0.0880 Uiso
Zn3 Zn -0.07292(5) -0.11689(9) 0.39855(4) 0.0620 Uani
I5 I -0.01538(4) -0.14181(8) 0.36506(4) 0.0940 Uani
I6 I -0.10555(4) -0.23809(6) 0.43158(3) 0.0860 Uani
Zn1B Zn -0.17498(6) 0.35457(9) 0.71740(6) 0.0756 Uani
N6G N -0.1134(3) -0.0511(5) 0.3508(3) 0.0526 Uani
N12B N 0.3572(3) -0.1611(7) 0.6706(4) 0.0724 Uani
Zn3G Zn 0.42708(5) 0.61689(9) 0.89855(4) 0.0620 Uani
C37 C 0.0302(5) 0.1468(13) 0.3712(5) 0.1160 Uani
C38 C 0.0451(6) 0.3933(11) 0.4033(5) 0.0970 Uani
H25 H 0.0334 0.4504 0.3969 0.1170 Uiso
C39 C 0.1575(5) 0.0498(13) 0.4634(5) 0.0875 Uani
H26 H 0.1814 0.0430 0.4835 0.1050 Uiso
C40 C 0.0878(5) 0.0700(11) 0.4052(5) 0.1059 Uani
C41 C 0.1017(5) 0.1474(11) 0.4281(5) 0.1042 Uani
C42 C 0.1367(5) 0.1300(12) 0.4563(5) 0.0958 Uani
H27 H 0.1482 0.1797 0.4731 0.1150 Uiso
C43 C 0.0522(5) 0.0698(13) 0.3769(5) 0.1184 Uani
H28 H 0.0429 0.0167 0.3614 0.1420 Uiso
C44 C 0.1037(6) -0.0160(11) 0.4071(5) 0.1058 Uani
H29 H 0.0922 -0.0657 0.3902 0.1270 Uiso
C45 C 0.0794(5) 0.2254(10) 0.4223(5) 0.1161 Uani
C46 C 0.1386(5) -0.0185(12) 0.4371(5) 0.1054 Uani
H30 H 0.1512 -0.0749 0.4402 0.1270 Uiso
C47 C 0.0809(6) 0.3794(14) 0.4305(5) 0.1178 Uani
H31 H 0.0938 0.4320 0.4429 0.1410 Uiso
C48 C 0.1002(6) 0.2993(15) 0.4421(5) 0.1215 Uani
H32 H 0.1247 0.2952 0.4612 0.1460 Uiso
C49 C 0.0286(6) 0.3121(12) 0.3867(5) 0.1162 Uani
H33 H 0.0041 0.3164 0.3678 0.1400 Uiso
C50 C 0.0435(6) 0.2251(11) 0.3942(6) 0.1198 Uani
Br1 Br -0.0148(2) 0.1449(7) 0.3307(3) 0.2524 Uani
loop_
_atom_site_aniso_label
_atom_site_aniso_U_11
_atom_site_aniso_U_22
_atom_site_aniso_U_33
_atom_site_aniso_U_23
_atom_site_aniso_U_13
_atom_site_aniso_U_12
Zn1 0.1201(14) 0.0241(7) 0.0993(13) -0.0042(7) 0.0605(11) 0.0003(7)
I1 0.1957(15) 0.0629(7) 0.0984(9) 0.0303(6) 0.0557(9) 0.0368(8)
I2 0.1502(11) 0.0421(6) 0.1689(13) -0.0455(6) 0.1095(10) -0.0396(6)
N1 0.073(7) 0.030(5) 0.078(7) 0.014(5) 0.039(6) 0.015(5)
C1 0.077(7) 0.028(5) 0.094(8) -0.017(5) 0.005(6) -0.020(5)
C2 0.071(7) 0.020(5) 0.085(7) -0.011(5) 0.010(6) -0.007(4)
C3 0.068(7) 0.019(5) 0.050(6) -0.003(4) 0.020(5) -0.005(4)
C4 0.086(9) 0.034(6) 0.064(8) 0.002(5) 0.023(7) 0.006(6)
C5 0.083(9) 0.027(6) 0.077(8) -0.008(6) 0.019(7) -0.008(6)
C6 0.055(6) 0.022(5) 0.042(5) -0.006(4) 0.011(5) 0.002(4)
N2 0.061(6) 0.018(4) 0.054(5) 0.000(4) 0.005(4) -0.019(4)
C7 0.063(7) 0.035(5) 0.032(5) 0.000(4) 0.015(5) 0.004(5)
N3 0.050(5) 0.020(4) 0.029(4) 0.000(3) 0.003(3) -0.012(3)
C8 0.065(7) 0.019(4) 0.035(5) -0.009(4) -0.001(5) -0.010(4)
N4 0.053(5) 0.011(3) 0.043(4) -0.005(3) 0.011(4) -0.004(3)
N5 0.052(5) 0.025(4) 0.078(6) 0.004(4) -0.008(4) -0.011(4)
C9 0.053(7) 0.036(6) 0.068(7) 0.002(5) 0.009(6) -0.015(5)
C10 0.059(7) 0.029(6) 0.074(8) 0.007(5) -0.031(6) -0.019(5)
C11 0.061(7) 0.029(5) 0.043(6) -0.014(4) 0.005(5) 0.005(4)
C12 0.072(7) 0.030(5) 0.078(7) -0.014(5) -0.012(6) -0.007(5)
C13 0.073(6) 0.030(5) 0.082(6) -0.012(5) -0.015(5) -0.016(4)
N6 0.088(7) 0.017(4) 0.038(5) -0.005(3) -0.018(5) -0.006(4)
C14 0.087(9) 0.043(7) 0.077(9) -0.014(6) -0.020(7) 0.022(6)
C15 0.112(11) 0.027(6) 0.076(9) -0.027(6) -0.042(8) 0.020(6)
C16 0.065(7) 0.021(5) 0.040(5) -0.013(4) -0.010(5) -0.003(4)
C17 0.102(9) 0.027(5) 0.031(5) 0.003(4) -0.010(5) 0.003(5)
C18 0.092(9) 0.035(6) 0.042(6) -0.010(5) -0.002(6) -0.018(6)
Zn2 0.0591(9) 0.0435(8) 0.0842(11) 0.0039(7) -0.0143(7) -0.0072(6)
I3 0.0900(8) 0.1158(10) 0.0948(8) 0.0443(7) 0.0091(6) -0.0007(7)
I4 0.1347(11) 0.0583(7) 0.1390(12) -0.0232(7) -0.0453(9) 0.0285(6)
N7 0.056(6) 0.057(6) 0.054(6) -0.005(5) -0.002(5) -0.021(5)
C19 0.086(9) 0.037(6) 0.059(7) 0.002(5) -0.003(6) -0.014(6)
C20 0.063(7) 0.041(6) 0.044(6) -0.004(5) -0.007(5) -0.007(5)
C21 0.048(6) 0.051(6) 0.072(7) -0.016(5) -0.008(5) -0.006(5)
C22 0.072(6) 0.078(7) 0.083(7) -0.027(6) 0.013(6) -0.027(6)
C23 0.086(8) 0.097(9) 0.094(8) -0.039(7) 0.013(7) -0.035(7)
C24 0.045(6) 0.033(5) 0.046(6) -0.002(4) -0.008(5) 0.003(4)
N8 0.060(5) 0.029(4) 0.032(4) -0.013(3) 0.002(4) 0.007(4)
C25 0.050(6) 0.030(5) 0.033(5) 0.000(4) -0.004(4) 0.003(4)
N9 0.052(5) 0.040(5) 0.054(6) -0.006(4) -0.013(5) -0.007(4)
C26 0.058(6) 0.034(5) 0.033(5) -0.003(4) 0.003(4) 0.018(5)
N10 0.041(5) 0.041(5) 0.046(5) -0.009(4) -0.009(4) 0.004(4)
N11 0.064(6) 0.035(5) 0.043(5) 0.000(4) -0.013(5) 0.009(4)
C27 0.080(9) 0.060(8) 0.081(9) -0.011(7) 0.015(8) -0.026(7)
C28 0.072(8) 0.052(7) 0.058(7) -0.028(6) -0.012(6) -0.002(6)
C29 0.063(7) 0.038(6) 0.051(6) 0.008(5) -0.024(6) -0.006(5)
C30 0.054(6) 0.046(6) 0.036(5) -0.011(4) 0.003(5) 0.003(5)
C31 0.092(9) 0.041(7) 0.044(6) -0.008(5) -0.009(6) 0.019(6)
N12 0.102(7) 0.041(5) 0.088(7) -0.021(5) 0.051(6) -0.005(5)
C32 0.113(8) 0.063(6) 0.086(7) -0.024(6) 0.043(6) -0.013(6)
C33 0.102(9) 0.080(8) 0.085(8) -0.026(7) 0.039(7) -0.015(7)
C34 0.096(9) 0.020(5) 0.054(7) -0.002(5) 0.007(6) 0.006(5)
C35 0.051(7) 0.042(7) 0.096(10) 0.002(6) 0.022(7) -0.013(5)
C36 0.072(9) 0.047(7) 0.103(11) -0.013(7) 0.026(8) -0.003(6)
Zn3 0.0973(11) 0.0333(7) 0.0404(7) -0.0036(5) -0.0173(7) 0.0133(7)
I5 0.1085(9) 0.0893(8) 0.0734(7) -0.0058(5) -0.0034(6) 0.0387(6)
I6 0.1365(10) 0.0376(5) 0.0691(6) 0.0046(4) -0.0094(6) -0.0051(5)
Zn1B 0.1201 0.0241 0.0993 -0.0042 0.0605 0.0003
N6G 0.088 0.017 0.038 0.005 -0.018 0.006
N12B 0.102 0.041 0.088 -0.021 0.051 -0.005
Zn3G 0.0973 0.0333 0.0404 0.0036 -0.0173 -0.0133
C37 0.174(12) 0.117(10) 0.070(8) 0.021(8) 0.055(8) -0.016(10)
C38 0.184(13) 0.093(10) 0.032(7) 0.007(7) 0.063(8) 0.013(10)
C39 0.126(11) 0.099(10) 0.056(8) 0.010(7) 0.060(8) 0.014(9)
C40 0.157(10) 0.112(9) 0.066(7) 0.007(7) 0.062(7) -0.005(8)
C41 0.156(10) 0.111(8) 0.067(7) 0.009(7) 0.071(7) -0.013(8)
C42 0.143(11) 0.104(9) 0.061(8) 0.005(8) 0.067(7) -0.005(9)
C43 0.166(12) 0.122(10) 0.078(8) 0.009(9) 0.050(8) -0.013(10)
C44 0.153(11) 0.113(10) 0.066(8) 0.017(8) 0.056(8) 0.004(9)
C45 0.175(11) 0.117(9) 0.074(7) 0.007(7) 0.066(7) -0.010(8)
C46 0.143(11) 0.113(10) 0.074(9) 0.012(8) 0.054(8) 0.015(9)
C47 0.196(13) 0.114(10) 0.059(8) -0.002(8) 0.062(8) 0.001(10)
C48 0.193(12) 0.120(10) 0.070(8) 0.000(8) 0.069(8) -0.002(10)
C49 0.189(12) 0.111(10) 0.059(8) 0.014(8) 0.050(8) 0.002(10)
C50 0.185(11) 0.117(9) 0.069(7) 0.012(7) 0.053(8) -0.007(9)
Br1 0.213(6) 0.280(8) 0.264(7) 0.056(6) 0.052(5) 0.006(5)
loop_
_geom_bond_atom_site_label_1
_geom_bond_atom_site_label_2
_geom_bond_site_symmetry_1
_geom_bond_site_symmetry_2
Zn1 I1 1_555 1_555
I2 Zn1 1_555 1_555
N1 Zn1 1_555 1_555
C1 N1 1_555 1_555
H1 C1 1_555 1_555
C2 C1 1_555 1_555
H2 C2 1_555 1_555
C3 C2 1_555 1_555
C4 C3 1_555 1_555
H3 C4 1_555 1_555
C5 N1 1_555 1_555
H4 C5 1_555 1_555
C6 C3 1_555 1_555
N2 C6 1_555 1_555
C7 N2 1_555 1_555
N3 C7 1_555 1_555
C8 N3 1_555 1_555
N4 C6 1_555 1_555
N5 C9 1_555 1_555
C9 H5 1_555 1_555
C10 C9 1_555 1_555
H6 C10 1_555 1_555
C11 C7 1_555 1_555
C12 C11 1_555 1_555
H7 C12 1_555 1_555
C13 N5 1_555 1_555
H8 C13 1_555 1_555
N6 C14 1_555 1_555
C14 H9 1_555 1_555
C15 C14 1_555 1_555
H10 C15 1_555 1_555
C16 C8 1_555 1_555
C17 C16 1_555 1_555
H11 C17 1_555 1_555
C18 N6 1_555 1_555
H12 C18 1_555 1_555
Zn2 N5 1_555 1_555
I3 Zn2 1_555 1_555
I4 Zn2 1_555 1_555
N7 Zn2 1_555 1_555
C19 N7 1_555 1_555
H13 C19 1_555 1_555
C20 C19 1_555 1_555
H14 C20 1_555 1_555
C21 C20 1_555 1_555
C22 C21 1_555 1_555
H15 C22 1_555 1_555
C23 N7 1_555 1_555
H16 C23 1_555 1_555
C24 C21 1_555 1_555
N8 C24 1_555 1_555
C25 N8 1_555 1_555
N9 C25 1_555 1_555
C26 N9 1_555 1_555
N10 C24 1_555 1_555
N11 C27 1_555 1_555
C27 H17 1_555 1_555
C28 C27 1_555 1_555
H18 C28 1_555 1_555
C29 C25 1_555 1_555
C30 C29 1_555 1_555
H19 C30 1_555 1_555
C31 N11 1_555 1_555
H20 C31 1_555 1_555
N12 C32 1_555 1_555
C32 H21 1_555 1_555
C33 C32 1_555 1_555
H22 C33 1_555 1_555
C34 C26 1_555 1_555
C35 C34 1_555 1_555
H23 C35 1_555 1_555
C36 N12 1_555 1_555
H24 C36 1_555 1_555
Zn3 N11 1_555 1_555
I5 Zn3 1_555 1_555
I6 Zn3 1_555 1_555
C37 C43 1_555 1_555
C38 H25 1_555 1_555
C39 H26 1_555 1_555
C40 C41 1_555 1_555
C41 C42 1_555 1_555
C42 C39 1_555 1_555
H27 C42 1_555 1_555
C43 C40 1_555 1_555
H28 C43 1_555 1_555
C44 C40 1_555 1_555
H29 C44 1_555 1_555
C45 C41 1_555 1_555
C46 C39 1_555 1_555
H30 C46 1_555 1_555
C47 C38 1_555 1_555
H31 C47 1_555 1_555
C48 C45 1_555 1_555
H32 C48 1_555 1_555
C49 C38 1_555 1_555
H33 C49 1_555 1_555
C50 C37 1_555 1_555
Br1 C37 1_555 1_555
Zn1B N12 1_555 1_555
N6G Zn3 1_555 1_555
N12B Zn1 1_555 1_555
Zn3G N6 1_555 1_555
C4 C5 1_555 1_555
C8 N4 1_555 1_555
C10 C11 1_555 1_555
C12 C13 1_555 1_555
C15 C16 1_555 1_555
C17 C18 1_555 1_555
C22 C23 1_555 1_555
C26 N10 1_555 1_555
C28 C29 1_555 1_555
C30 C31 1_555 1_555
C33 C34 1_555 1_555
C35 C36 1_555 1_555
C44 C46 1_555 1_555
C45 C50 1_555 1_555
C47 C48 1_555 1_555
C49 C50 1_555 1_555

#END
