
#######################################################################
#
#                 Cambridge Crystallographic Data Centre
#                                CCDC 
#
#######################################################################
#
# If this CIF has been generated from an entry in the Cambridge 
# Structural Database, then it will include bibliographic, chemical, 
# crystal, experimental, refinement or atomic coordinate data resulting 
# from the CCDC's data processing and validation procedures.
#
#######################################################################

data_REXFIL
_chemical_formula_moiety         '(C87 H66 I12 N24 Zn6)n'
_symmetry_cell_setting           monoclinic
_symmetry_space_group_name_H-M   'C c'
_symmetry_Int_Tables_number      9
_space_group_name_Hall           'C -2yc'
loop_
_symmetry_equiv_pos_site_id
_symmetry_equiv_pos_as_xyz
1 x,y,z
2 x,-y,1/2+z
3 1/2+x,1/2+y,z
4 1/2+x,1/2-y,1/2+z
_cell_length_a                   34.576
_cell_length_b                   14.884
_cell_length_c                   30.646
_cell_angle_alpha                90
_cell_angle_beta                 101.17
_cell_angle_gamma                90
_cell_volume                     15472.6
loop_
_atom_site_label
_atom_site_type_symbol
_atom_site_fract_x
_atom_site_fract_y
_atom_site_fract_z
_atom_site_U_iso_or_equiv
_atom_site_thermal_displace_type
Zn1 Zn 0.52026(9) -0.1242(2) 0.76849(10) 0.0993 Uani
I1 I 0.48284(6) -0.23848(11) 0.80448(6) 0.1292 Uani
I2 I 0.57782(6) -0.15409(13) 0.72859(6) 0.1289 Uani
N1 N 0.4821(5) -0.0569(14) 0.7184(5) 0.0891 Uani
C1 C 0.4828(6) 0.0340(15) 0.7129(7) 0.1154 Uani
H1 H 0.5055 0.0637 0.7288 0.1390 Uiso
C2 C 0.4538(6) 0.0911(13) 0.6864(6) 0.1093 Uani
H2 H 0.4480 0.1520 0.6919 0.1310 Uiso
C3 C 0.4356(6) 0.0358(10) 0.6497(6) 0.0958 Uani
C4 C 0.4242(5) -0.0544(11) 0.6588(6) 0.0919 Uani
H3 H 0.3999 -0.0814 0.6455 0.1100 Uiso
C5 C 0.4545(5) -0.0984(14) 0.6907(5) 0.0875 Uani
H4 H 0.4544 -0.1622 0.6916 0.1050 Uiso
C6 C 0.4113(5) 0.0891(9) 0.6141(6) 0.0884 Uani
N2 N 0.4173(4) 0.1764(8) 0.6092(5) 0.0871 Uani
C7 C 0.3930(6) 0.2194(9) 0.5771(6) 0.1034 Uani
N3 N 0.3640(4) 0.1811(7) 0.5476(6) 0.0961 Uani
C8 C 0.3643(5) 0.0929(8) 0.5552(6) 0.0916 Uani
N4 N 0.3824(4) 0.0433(11) 0.5896(4) 0.0945 Uani
N5 N 0.4139(7) 0.5088(12) 0.5809(8) 0.1275 Uani
C9 C 0.3842(7) 0.4666(16) 0.5501(9) 0.1308 Uani
H5 H 0.3663 0.5029 0.5301 0.1560 Uiso
C10 C 0.3794(6) 0.3679(12) 0.5475(8) 0.1221 Uani
H6 H 0.3586 0.3428 0.5263 0.1460 Uiso
C11 C 0.4028(7) 0.3156(10) 0.5734(10) 0.1176 Uani
C12 C 0.4344(7) 0.3582(14) 0.6024(9) 0.1270 Uani
H7 H 0.4543 0.3242 0.6210 0.1530 Uiso
C13 C 0.4353(8) 0.4601(17) 0.6027(9) 0.1492 Uani
H8 H 0.4560 0.4871 0.6234 0.1790 Uiso
N6 N 0.2675(5) -0.0374(12) 0.4647(6) 0.1054 Uani
C14 C 0.2878(5) -0.0853(12) 0.4993(7) 0.0920 Uani
H9 H 0.2811 -0.1456 0.5047 0.1100 Uiso
C15 C 0.3203(5) -0.0401(9) 0.5277(6) 0.0863 Uani
H10 H 0.3361 -0.0746 0.5504 0.1030 Uiso
C16 C 0.3305(5) 0.0526(9) 0.5242(6) 0.0903 Uani
C17 C 0.3059(5) 0.0972(12) 0.4874(6) 0.0990 Uani
H11 H 0.3074 0.1604 0.4837 0.1190 Uiso
C18 C 0.2789(6) 0.0432(12) 0.4563(7) 0.1078 Uani
H12 H 0.2689 0.0681 0.4279 0.1290 Uiso
Zn2 Zn 0.42749(13) 0.6394(2) 0.59042(16) 0.1417 Uani
I3 I 0.46876(12) 0.66253(16) 0.66320(10) 0.2387 Uani
I4 I 0.36177(10) 0.72501(15) 0.55821(14) 0.2632 Uani
N7 N 0.4637(6) 0.6567(12) 0.5453(7) 0.1083 Uani
C19 C 0.4942(8) 0.6091(16) 0.5442(7) 0.1081 Uani
H13 H 0.4980 0.5572 0.5626 0.1300 Uiso
C20 C 0.5234(8) 0.6270(15) 0.5176(7) 0.1119 Uani
H14 H 0.5490 0.6011 0.5224 0.1340 Uiso
C21 C 0.5086(8) 0.6886(15) 0.4833(7) 0.1068 Uani
C22 C 0.4673(7) 0.7268(14) 0.4782(7) 0.1094 Uani
H15 H 0.4552 0.7638 0.4541 0.1310 Uiso
C23 C 0.4498(7) 0.7018(14) 0.5119(7) 0.1067 Uani
H16 H 0.4234 0.7212 0.5099 0.1280 Uiso
C24 C 0.5352(6) 0.6968(11) 0.4488(7) 0.1053 Uani
N8 N 0.5632(5) 0.6360(10) 0.4481(5) 0.0727 Uani
C25 C 0.5861(6) 0.6580(12) 0.4196(5) 0.0894 Uani
N9 N 0.5789(5) 0.7292(11) 0.3928(5) 0.0922 Uani
N10 N 0.5280(6) 0.7714(11) 0.4245(5) 0.0918 Uani
N11 N 0.6795(6) 0.4811(13) 0.4093(6) 0.1126 Uani
C26 C 0.6679(5) 0.5346(14) 0.3788(5) 0.0692 Uani
H17 H 0.6794 0.5330 0.3530 0.0840 Uiso
C27 C 0.6415(8) 0.5907(15) 0.3809(7) 0.1050 Uani
H18 H 0.6373 0.6354 0.3583 0.1250 Uiso
C28 C 0.6154(7) 0.5961(14) 0.4150(8) 0.0934 Uani
C29 C 0.5513(5) 0.7907(15) 0.3956(7) 0.0945 Uani
C30 C 0.6370(6) 0.5641(14) 0.4509(6) 0.1163 Uani
H19 H 0.6311 0.5853 0.4781 0.1390 Uiso
C31 C 0.6692(7) 0.4997(14) 0.4549(7) 0.1283 Uani
H20 H 0.6821 0.4730 0.4820 0.1540 Uiso
C32 C 0.5488(7) 0.8705(11) 0.3656(7) 0.0852 Uani
C33 C 0.5204(7) 0.9222(14) 0.3674(7) 0.0881 Uani
H21 H 0.5023 0.9067 0.3859 0.1060 Uiso
C34 C 0.5732(6) 0.8891(13) 0.3392(6) 0.0742 Uani
H22 H 0.5948 0.8510 0.3370 0.0890 Uiso
N12 N 0.5378(5) 1.0204(9) 0.3147(5) 0.0737 Uani
C35 C 0.5141(6) 1.0095(13) 0.3405(6) 0.0777 Uani
H23 H 0.4940 1.0517 0.3431 0.0930 Uiso
C36 C 0.5656(6) 0.9697(13) 0.3138(6) 0.0728 Uani
H24 H 0.5834 0.9853 0.2949 0.0870 Uiso
Zn3 Zn 0.72880(10) 0.3971(2) 0.41734(12) 0.1233 Uani
I5 I 0.75225(8) 0.4093(2) 0.34666(8) 0.1830 Uani
I6 I 0.71156(9) 0.25867(14) 0.45375(10) 0.2067 Uani
Zn1A Zn 0.52026(9) 1.1242(2) 0.26849(10) 0.0993 Uani
N6B N 0.7675(5) 0.4626(12) 0.4647(6) 0.1054 Uani
N12A N 0.5378(5) -0.0204(9) 0.8147(5) 0.0737 Uani
Zn3B Zn 0.22880(10) -0.1029(2) 0.41734(12) 0.1233 Uani
Zn4 Zn 0.97448(10) -0.1021(2) 0.80581(11) 0.1160 Uani
I7 I 0.99087(8) -0.24238(14) 0.76978(10) 0.2024 Uani
I8 I 0.95028(7) -0.0900(2) 0.87749(8) 0.1855 Uani
N13 N 0.9328(5) -0.0414(12) 0.7594(6) 0.0973 Uani
C37 C 0.9088(6) -0.0773(17) 0.7222(8) 0.1347 Uani
H25 H 0.9111 -0.1398 0.7169 0.1620 Uiso
C38 C 0.8834(8) -0.0325(19) 0.6944(9) 0.1558 Uani
H26 H 0.8705 -0.0605 0.6676 0.1880 Uiso
C39 C 0.8749(6) 0.0534(13) 0.7024(6) 0.0989 Uani
C40 C 0.8938(10) 0.0994(19) 0.7396(8) 0.1499 Uani
H27 H 0.8852 0.1572 0.7468 0.1810 Uiso
C41 C 0.9244(7) 0.0597(15) 0.7647(8) 0.1088 Uani
H28 H 0.9416 0.0938 0.7865 0.1310 Uiso
C42 C 0.8435(5) 0.1003(8) 0.6700(5) 0.0869 Uani
N14 N 0.8234(4) 0.0494(8) 0.6371(4) 0.0830 Uani
C43 C 0.7927(4) 0.0905(8) 0.6101(5) 0.0826 Uani
N15 N 0.7790(4) 0.1750(8) 0.6129(5) 0.0786 Uani
C44 C 0.8057(5) 0.2200(10) 0.6431(6) 0.0906 Uani
N16 N 0.8342(4) 0.1876(8) 0.6757(5) 0.0925 Uani
N17 N 0.7226(5) -0.0538(10) 0.5005(6) 0.0931 Uani
C45 C 0.7156(7) 0.0287(15) 0.5051(8) 0.1148 Uani
H29 H 0.6954 0.0580 0.4846 0.1370 Uiso
C46 C 0.7386(5) 0.0784(10) 0.5418(5) 0.0701 Uani
H30 H 0.7324 0.1396 0.5457 0.0840 Uiso
C47 C 0.7706(5) 0.0375(10) 0.5726(5) 0.0762 Uani
C48 C 0.7706(5) -0.0512(12) 0.5666(7) 0.0813 Uani
H31 H 0.7850 -0.0865 0.5901 0.0980 Uiso
C49 C 0.7517(6) -0.0962(12) 0.5291(7) 0.0942 Uani
H32 H 0.7590 -0.1560 0.5234 0.1130 Uiso
N18 N 0.7843(6) 0.5004(12) 0.6379(6) 0.1203 Uani
C50 C 0.8151(7) 0.4759(16) 0.6661(8) 0.1219 Uani
H33 H 0.8304 0.5185 0.6852 0.1460 Uiso
C51 C 0.8259(7) 0.3817(14) 0.6680(8) 0.1137 Uani
H34 H 0.8505 0.3629 0.6849 0.1370 Uiso
C52 C 0.7996(7) 0.3183(11) 0.6445(8) 0.1144 Uani
C53 C 0.7707(7) 0.3509(15) 0.6187(9) 0.1261 Uani
H35 H 0.7560 0.3099 0.5982 0.1510 Uiso
C54 C 0.7572(8) 0.4382(15) 0.6157(8) 0.1236 Uani
H36 H 0.7317 0.4546 0.6000 0.1480 Uiso
Zn5 Zn 0.68158(10) -0.12702(19) 0.45700(9) 0.0967 Uani
I9 I 0.71929(6) -0.23918(11) 0.41888(6) 0.1324 Uani
I10 I 0.62518(6) -0.15430(14) 0.49514(6) 0.1358 Uani
Zn6 Zn 0.77674(14) 0.6397(2) 0.63549(15) 0.1456 Uani
I11 I 0.83484(7) 0.73173(13) 0.65480(8) 0.1546 Uani
I12 I 0.72868(8) 0.65688(14) 0.55608(8) 0.1615 Uani
N19 N 0.7451(7) 0.6693(15) 0.6858(8) 0.1249 Uani
C55 C 0.7138(10) 0.6361(16) 0.6816(8) 0.1253 Uani
H37 H 0.7059 0.6021 0.6551 0.1500 Uiso
C56 C 0.6872(6) 0.6389(14) 0.7086(10) 0.1172 Uani
H38 H 0.6640 0.6032 0.7030 0.1400 Uiso
C57 C 0.6954(8) 0.6962(16) 0.7449(10) 0.1205 Uani
C58 C 0.7263(7) 0.7431(14) 0.7526(8) 0.1260 Uani
H39 H 0.7308 0.7874 0.7753 0.1510 Uiso
C59 C 0.7568(6) 0.7237(13) 0.7222(7) 0.1152 Uani
H40 H 0.7826 0.7486 0.7287 0.1380 Uiso
C60 C 0.6693(6) 0.7047(14) 0.7785(7) 0.0912 Uani
N20 N 0.6366(5) 0.6507(12) 0.7792(6) 0.1001 Uani
C61 C 0.6178(6) 0.6571(12) 0.8125(6) 0.0855 Uani
N21 N 0.6212(4) 0.7260(9) 0.8397(4) 0.0737 Uani
C62 C 0.6496(5) 0.7837(14) 0.8317(5) 0.0727 Uani
N22 N 0.6739(5) 0.7798(11) 0.8035(5) 0.0885 Uani
N23 N 0.5207(6) 0.4875(14) 0.8055(6) 0.1040 Uani
C63 C 0.5326(7) 0.5372(15) 0.8385(8) 0.1063 Uani
H41 H 0.5177 0.5364 0.8616 0.1270 Uiso
C64 C 0.5665(7) 0.5953(13) 0.8448(9) 0.0943 Uani
H42 H 0.5757 0.6295 0.8709 0.1130 Uiso
C65 C 0.5827(6) 0.5948(12) 0.8103(8) 0.0785 Uani
C66 C 0.5740(7) 0.5185(17) 0.7790(7) 0.1130 Uani
H43 H 0.5901 0.5055 0.7579 0.1350 Uiso
C67 C 0.5449(7) 0.4728(18) 0.7815(7) 0.1135 Uani
H44 H 0.5406 0.4208 0.7633 0.1360 Uiso
N24 N 0.6700(6) 1.0171(11) 0.9111(6) 0.1091 Uani
C68 C 0.6913(7) 1.0031(17) 0.8775(8) 0.1155 Uani
H45 H 0.7099 1.0478 0.8733 0.1390 Uiso
C69 C 0.6878(8) 0.9353(16) 0.8524(8) 0.1141 Uani
H46 H 0.7040 0.9266 0.8310 0.1370 Uiso
C70 C 0.6566(8) 0.8694(12) 0.8582(7) 0.0970 Uani
C71 C 0.6326(8) 0.883(2) 0.8872(9) 0.1358 Uani
H47 H 0.6117 0.8429 0.8891 0.1610 Uiso
C72 C 0.6397(7) 0.9606(15) 0.9150(8) 0.1110 Uani
H48 H 0.6234 0.9728 0.9361 0.1330 Uiso
Zn4B Zn 0.47448(10) 0.3979(2) 0.80581(11) 0.1160 Uani
Zn5A Zn 0.68158(10) 1.12702(19) 0.95700(9) 0.0967 Uani
N23B N 1.0207(6) -0.0125(14) 0.8055(6) 0.1040 Uani
N24A N 0.6700(6) -0.0171(11) 0.4111(6) 0.1091 Uani
C73 C 0.6491(6) 0.457(2) 0.5649(7) 0.1910 Uiso
H49 H 0.6685 0.4642 0.5470 0.2300 Uiso
C74 C 0.6054(7) 0.4938(14) 0.6062(9) 0.1820 Uiso
C75 C 0.5413(8) 0.4283(19) 0.6633(10) 0.2260 Uiso
H50 H 0.5213 0.4233 0.6804 0.2710 Uiso
C76 C 0.5575(9) 0.3484(16) 0.6505(11) 0.2330 Uiso
C77 C 0.6305(7) 0.5285(17) 0.5814(8) 0.1790 Uiso
H51 H 0.6345 0.5904 0.5763 0.2150 Uiso
C78 C 0.5859(10) 0.3379(17) 0.6241(11) 0.2350 Uiso
H52 H 0.5918 0.2764 0.6204 0.2830 Uiso
C79 C 0.6077(8) 0.3932(14) 0.6021(9) 0.1990 Uiso
C80 C 0.5873(11) 0.6397(16) 0.6263(13) 0.1860 Uiso
H53 H 0.6063 0.6519 0.6071 0.2790 Uiso
H54 H 0.5976 0.6627 0.6563 0.2790 Uiso
H55 H 0.5623 0.6695 0.6142 0.2790 Uiso
C81 C 0.5453(9) 0.2541(17) 0.6572(11) 0.2330 Uiso
H56 H 0.5216 0.2564 0.6714 0.2790 Uiso
C82 C 0.5808(8) 0.5410(14) 0.6284(9) 0.1530 Uiso
C83 C 0.5525(8) 0.5156(17) 0.6528(10) 0.2170 Uiso
H57 H 0.5389 0.5635 0.6639 0.2600 Uiso
C84 C 0.6364(8) 0.3737(17) 0.5773(9) 0.1990 Uiso
C85 C 0.5768(13) 0.204(2) 0.6878(13) 0.2500 Uiso
H58 H 0.5675 0.1430 0.6922 0.3760 Uiso
H59 H 0.5829 0.2351 0.7165 0.3760 Uiso
H60 H 0.6005 0.2009 0.6748 0.3760 Uiso
C86 C 0.5339(13) 0.207(3) 0.6138(12) 0.2660 Uiso
H61 H 0.5278 0.1442 0.6190 0.3990 Uiso
H62 H 0.5558 0.2099 0.5977 0.3990 Uiso
H63 H 0.5107 0.2364 0.5961 0.3990 Uiso
C87 C 0.6584(11) 0.2897(19) 0.5716(14) 0.1930 Uiso
H64 H 0.6453 0.2384 0.5825 0.2890 Uiso
H65 H 0.6855 0.2945 0.5885 0.2890 Uiso
H66 H 0.6589 0.2810 0.5400 0.2890 Uiso
loop_
_atom_site_aniso_label
_atom_site_aniso_U_11
_atom_site_aniso_U_22
_atom_site_aniso_U_33
_atom_site_aniso_U_23
_atom_site_aniso_U_13
_atom_site_aniso_U_12
Zn1 0.100(2) 0.0736(19) 0.099(2) -0.0143(15) -0.0433(17) 0.0088(16)
I1 0.1609(18) 0.0777(11) 0.1246(12) 0.0080(10) -0.0332(12) -0.0252(11)
I2 0.1376(16) 0.1274(16) 0.1036(12) 0.0001(11) -0.0214(11) 0.0362(12)
N1 0.071(11) 0.117(14) 0.064(9) -0.008(10) -0.025(7) -0.018(10)
C1 0.085(14) 0.109(17) 0.117(16) 0.015(14) -0.068(12) -0.042(13)
C2 0.102(11) 0.086(11) 0.115(11) 0.020(9) -0.041(9) 0.021(9)
C3 0.089(10) 0.077(9) 0.101(10) 0.015(8) -0.032(8) 0.031(8)
C4 0.090(11) 0.077(10) 0.085(10) 0.008(9) -0.042(8) 0.020(9)
C5 0.081(13) 0.108(15) 0.058(10) 0.018(10) -0.025(9) -0.008(11)
C6 0.070(9) 0.074(9) 0.099(10) 0.028(8) -0.039(8) -0.027(8)
N2 0.075(9) 0.058(8) 0.104(9) 0.021(7) -0.043(7) -0.011(7)
C7 0.15(2) 0.034(9) 0.103(14) 0.035(9) -0.033(13) 0.011(11)
N3 0.073(10) 0.035(8) 0.154(14) 0.046(9) -0.043(9) -0.003(7)
C8 0.089(15) 0.056(11) 0.119(15) 0.027(11) -0.007(12) 0.003(10)
N4 0.092(12) 0.090(11) 0.092(10) 0.044(9) -0.006(9) 0.001(9)
N5 0.129(17) 0.066(12) 0.19(2) 0.072(12) 0.037(13) 0.038(10)
C9 0.130(18) 0.072(13) 0.19(2) 0.072(13) 0.030(13) 0.036(11)
C10 0.105(13) 0.046(10) 0.214(18) 0.033(10) 0.028(12) 0.030(8)
C11 0.100(13) 0.054(9) 0.203(18) 0.035(9) 0.040(12) 0.021(8)
C12 0.123(14) 0.051(10) 0.209(19) 0.029(10) 0.037(13) 0.006(9)
C13 0.15(2) 0.084(19) 0.20(3) -0.009(19) 0.00(2) -0.004(17)
N6 0.091(8) 0.071(7) 0.117(8) -0.003(7) -0.072(7) 0.006(7)
C14 0.076(7) 0.066(6) 0.109(7) 0.000(6) -0.044(6) 0.017(6)
C15 0.073(8) 0.052(7) 0.106(8) -0.003(7) -0.052(7) 0.023(6)
C16 0.068(8) 0.062(7) 0.113(8) 0.003(7) -0.052(7) 0.034(7)
C17 0.069(8) 0.075(8) 0.118(9) 0.009(7) -0.069(7) 0.023(7)
C18 0.088(8) 0.075(8) 0.120(8) 0.014(8) -0.080(7) 0.021(7)
Zn2 0.169(4) 0.071(2) 0.195(4) 0.018(2) 0.060(3) -0.003(2)
I3 0.416(5) 0.1169(18) 0.222(3) -0.0795(18) 0.158(3) -0.104(2)
I4 0.274(3) 0.0915(15) 0.496(5) 0.123(2) 0.253(4) 0.0821(18)
N7 0.124(15) 0.072(12) 0.122(15) -0.012(10) 0.007(12) -0.017(11)
C19 0.135(14) 0.097(11) 0.080(10) 0.046(9) -0.010(9) 0.018(10)
C20 0.134(12) 0.098(10) 0.089(9) 0.042(8) -0.015(8) 0.017(9)
C21 0.129(11) 0.089(9) 0.086(8) 0.041(8) -0.020(8) 0.013(8)
C22 0.139(12) 0.086(9) 0.095(9) 0.043(8) 0.002(9) 0.018(8)
C23 0.146(13) 0.081(10) 0.088(10) 0.049(9) 0.010(10) 0.032(10)
C24 0.112(18) 0.091(16) 0.089(15) 0.027(13) -0.040(13) -0.049(15)
N8 0.077(11) 0.058(9) 0.070(9) 0.006(7) -0.018(8) -0.010(7)
C25 0.089(10) 0.087(11) 0.070(9) -0.016(8) -0.040(8) 0.001(9)
N9 0.085(9) 0.105(10) 0.067(7) -0.025(7) -0.034(7) 0.014(7)
N10 0.125(14) 0.085(12) 0.044(8) -0.011(8) -0.037(8) -0.022(10)
N11 0.119(11) 0.094(10) 0.102(10) -0.012(8) -0.035(9) 0.053(8)
C26 0.056(12) 0.076(13) 0.059(10) -0.016(9) -0.030(8) 0.001(10)
C27 0.12(2) 0.094(17) 0.078(14) -0.008(12) -0.038(14) -0.010(15)
C28 0.090(12) 0.072(10) 0.100(11) -0.001(9) -0.027(10) 0.033(9)
C29 0.086(11) 0.102(12) 0.071(9) -0.034(9) -0.046(8) 0.023(9)
C30 0.116(11) 0.097(9) 0.116(10) -0.003(8) -0.027(9) 0.048(8)
C31 0.132(11) 0.109(9) 0.123(9) 0.003(8) -0.027(9) 0.048(8)
C32 0.076(11) 0.086(10) 0.081(11) 0.004(9) -0.016(9) -0.008(9)
C33 0.092(15) 0.097(15) 0.085(13) -0.003(11) 0.041(11) 0.030(13)
C34 0.067(9) 0.074(8) 0.074(9) -0.010(7) -0.005(7) -0.015(7)
N12 0.079(9) 0.067(8) 0.072(7) 0.001(6) 0.007(7) -0.001(6)
C35 0.092(11) 0.068(9) 0.073(9) 0.010(8) 0.016(8) 0.002(8)
C36 0.067(9) 0.071(8) 0.069(7) -0.011(7) -0.015(7) -0.015(7)
Zn3 0.100(2) 0.101(2) 0.136(3) -0.022(2) -0.059(2) 0.0259(18)
I5 0.158(2) 0.208(3) 0.1517(19) -0.0764(17) -0.0479(15) 0.0448(17)
I6 0.217(3) 0.0893(15) 0.247(3) 0.0080(16) -0.121(2) -0.0132(15)
Zn1A 0.1 0.0736 0.099 0.0143 -0.0433 -0.0088
N6B 0.091 0.071 0.117 -0.003 -0.072 0.006
N12A 0.079 0.067 0.072 -0.001 0.007 0.001
Zn3B 0.1 0.101 0.136 -0.022 -0.059 0.0259
Zn4 0.108(3) 0.079(2) 0.128(2) 0.0302(18) -0.059(2) -0.0202(17)
I7 0.197(2) 0.0932(15) 0.252(3) 0.0075(16) -0.118(2) 0.0125(15)
I8 0.146(2) 0.224(3) 0.1568(19) 0.0761(19) -0.0441(16) -0.0665(18)
N13 0.085(11) 0.075(11) 0.113(12) -0.005(9) -0.028(9) -0.015(9)
C37 0.092(15) 0.124(18) 0.144(18) 0.059(15) -0.087(14) -0.010(13)
C38 0.16(2) 0.12(2) 0.141(19) 0.004(16) -0.086(17) 0.062(18)
C39 0.149(19) 0.061(12) 0.067(11) 0.028(10) -0.028(12) 0.017(12)
C40 0.22(3) 0.110(19) 0.093(17) 0.046(15) -0.036(19) 0.006(19)
C41 0.118(18) 0.073(14) 0.120(16) 0.011(12) -0.015(14) -0.051(13)
C42 0.071(8) 0.057(7) 0.108(8) 0.038(7) -0.044(7) -0.032(6)
N14 0.068(7) 0.050(6) 0.101(7) 0.053(6) -0.058(6) -0.035(5)
C43 0.072(8) 0.052(7) 0.101(8) 0.042(6) -0.040(7) -0.035(6)
N15 0.067(7) 0.052(6) 0.096(7) 0.033(6) -0.036(6) -0.014(6)
C44 0.080(8) 0.065(7) 0.109(8) 0.038(7) -0.026(7) -0.012(7)
N16 0.083(8) 0.067(7) 0.106(8) 0.047(6) -0.035(6) -0.019(6)
N17 0.115(11) 0.036(6) 0.108(9) 0.003(7) -0.029(8) -0.020(7)
C45 0.131(12) 0.065(9) 0.127(11) 0.008(9) -0.028(10) -0.004(10)
C46 0.060(9) 0.041(7) 0.093(9) -0.003(7) -0.026(7) 0.014(6)
C47 0.070(8) 0.053(7) 0.096(9) 0.018(7) -0.008(7) 0.020(7)
C48 0.075(9) 0.054(8) 0.105(10) 0.022(8) -0.007(8) 0.017(8)
C49 0.116(12) 0.034(8) 0.110(11) 0.015(8) -0.034(9) -0.010(8)
N18 0.126(11) 0.078(8) 0.133(9) 0.023(8) -0.034(8) 0.009(7)
C50 0.113(10) 0.092(9) 0.130(9) 0.011(8) -0.053(8) -0.021(8)
C51 0.105(10) 0.072(9) 0.133(10) 0.012(8) -0.054(8) -0.020(8)
C52 0.110(11) 0.072(9) 0.131(10) 0.020(8) -0.052(8) -0.008(8)
C53 0.126(11) 0.078(9) 0.141(10) 0.009(8) -0.057(8) -0.003(8)
C54 0.125(11) 0.076(9) 0.141(10) 0.010(8) -0.046(8) 0.010(8)
Zn5 0.116(2) 0.073(2) 0.0804(18) -0.0031(14) -0.0327(17) 0.0001(16)
I9 0.1582(18) 0.0762(12) 0.1349(13) -0.0061(10) -0.0411(12) 0.0178(11)
I10 0.1275(16) 0.1343(17) 0.1233(14) 0.0043(12) -0.0311(11) -0.0382(12)
Zn6 0.219(4) 0.0534(19) 0.186(4) 0.019(2) 0.093(3) 0.009(2)
I11 0.183(2) 0.0941(14) 0.1861(18) -0.0236(12) 0.0342(15) -0.0247(13)
I12 0.219(2) 0.1088(16) 0.1431(16) 0.0148(12) 0.0012(15) 0.0176(14)
N19 0.149(14) 0.103(12) 0.131(11) -0.029(8) 0.048(12) 0.002(10)
C55 0.151(17) 0.104(13) 0.129(12) -0.028(10) 0.047(14) 0.008(12)
C56 0.097(12) 0.067(11) 0.192(17) 0.009(11) 0.039(13) -0.011(9)
C57 0.105(12) 0.065(11) 0.194(16) 0.004(10) 0.035(13) -0.010(9)
C58 0.104(13) 0.083(12) 0.195(16) 0.009(11) 0.039(13) -0.023(9)
C59 0.142(15) 0.084(12) 0.128(12) -0.042(9) 0.047(12) 0.006(11)
C60 0.088(9) 0.081(8) 0.088(8) 0.009(7) -0.024(7) -0.027(7)
N20 0.099(9) 0.083(8) 0.102(8) 0.001(7) -0.021(7) -0.020(7)
C61 0.087(9) 0.081(8) 0.075(8) -0.005(7) -0.018(7) -0.009(7)
N21 0.080(8) 0.070(7) 0.055(6) -0.011(5) -0.027(6) -0.010(6)
C62 0.072(9) 0.080(8) 0.049(7) -0.009(7) -0.031(6) -0.012(7)
N22 0.085(8) 0.082(8) 0.076(8) 0.009(7) -0.040(6) -0.016(7)
N23 0.087(12) 0.120(12) 0.095(11) -0.023(9) -0.007(8) -0.009(9)
C63 0.110(14) 0.079(12) 0.128(14) -0.023(11) 0.018(12) -0.032(10)
C64 0.092(14) 0.064(11) 0.126(14) -0.026(10) 0.019(12) -0.035(9)
C65 0.064(13) 0.054(11) 0.104(15) 0.016(11) -0.017(11) -0.008(9)
C66 0.098(13) 0.147(14) 0.091(10) -0.031(10) 0.011(10) -0.029(10)
C67 0.103(13) 0.133(12) 0.096(10) -0.023(9) -0.002(9) -0.023(10)
N24 0.107(11) 0.079(9) 0.121(10) -0.027(8) -0.028(8) -0.040(7)
C68 0.117(11) 0.091(10) 0.123(12) -0.029(9) -0.015(9) -0.041(9)
C69 0.114(12) 0.092(11) 0.127(13) -0.025(10) 0.000(10) -0.029(10)
C70 0.103(18) 0.105(17) 0.075(14) 0.025(13) -0.003(13) -0.021(14)
C71 0.102(19) 0.18(3) 0.101(18) -0.009(17) -0.041(15) -0.074(17)
C72 0.113(12) 0.080(10) 0.125(12) -0.032(9) -0.014(10) -0.026(9)
Zn4B 0.108 0.079 0.128 0.0302 -0.059 -0.0202
Zn5A 0.116 0.073 0.0804 0.0031 -0.0327 -0.0001
N23B 0.087 0.12 0.095 -0.023 -0.007 -0.009
N24A 0.107 0.079 0.121 0.027 -0.028 0.04
loop_
_geom_bond_atom_site_label_1
_geom_bond_atom_site_label_2
_geom_bond_site_symmetry_1
_geom_bond_site_symmetry_2
Zn1 I1 1_555 1_555
I2 Zn1 1_555 1_555
N1 Zn1 1_555 1_555
C1 N1 1_555 1_555
H1 C1 1_555 1_555
C2 C1 1_555 1_555
H2 C2 1_555 1_555
C3 C2 1_555 1_555
C4 C3 1_555 1_555
H3 C4 1_555 1_555
C5 N1 1_555 1_555
H4 C5 1_555 1_555
C6 C3 1_555 1_555
N2 C6 1_555 1_555
C7 N2 1_555 1_555
N3 C7 1_555 1_555
C8 N3 1_555 1_555
N4 C6 1_555 1_555
N5 C9 1_555 1_555
C9 H5 1_555 1_555
C10 C9 1_555 1_555
H6 C10 1_555 1_555
C11 C7 1_555 1_555
C12 C11 1_555 1_555
H7 C12 1_555 1_555
C13 N5 1_555 1_555
H8 C13 1_555 1_555
N6 C14 1_555 1_555
C14 H9 1_555 1_555
C15 C14 1_555 1_555
H10 C15 1_555 1_555
C16 C8 1_555 1_555
C17 C16 1_555 1_555
H11 C17 1_555 1_555
C18 N6 1_555 1_555
H12 C18 1_555 1_555
Zn2 N5 1_555 1_555
I3 Zn2 1_555 1_555
I4 Zn2 1_555 1_555
N7 Zn2 1_555 1_555
C19 N7 1_555 1_555
H13 C19 1_555 1_555
C20 C19 1_555 1_555
H14 C20 1_555 1_555
C21 C20 1_555 1_555
C22 C21 1_555 1_555
H15 C22 1_555 1_555
C23 N7 1_555 1_555
H16 C23 1_555 1_555
C24 C21 1_555 1_555
N8 C24 1_555 1_555
C25 N8 1_555 1_555
N9 C25 1_555 1_555
N10 C24 1_555 1_555
N11 C26 1_555 1_555
C26 H17 1_555 1_555
C27 C26 1_555 1_555
H18 C27 1_555 1_555
C28 C25 1_555 1_555
C29 N9 1_555 1_555
C30 C28 1_555 1_555
H19 C30 1_555 1_555
C31 N11 1_555 1_555
H20 C31 1_555 1_555
C32 C29 1_555 1_555
C33 C32 1_555 1_555
H21 C33 1_555 1_555
C34 C32 1_555 1_555
H22 C34 1_555 1_555
N12 C35 1_555 1_555
C35 C33 1_555 1_555
H23 C35 1_555 1_555
C36 C34 1_555 1_555
H24 C36 1_555 1_555
Zn3 N11 1_555 1_555
I5 Zn3 1_555 1_555
I6 Zn3 1_555 1_555
Zn4 I7 1_555 1_555
I8 Zn4 1_555 1_555
N13 Zn4 1_555 1_555
C37 N13 1_555 1_555
H25 C37 1_555 1_555
C38 C37 1_555 1_555
H26 C38 1_555 1_555
C39 C38 1_555 1_555
C40 C39 1_555 1_555
H27 C40 1_555 1_555
C41 N13 1_555 1_555
H28 C41 1_555 1_555
C42 C39 1_555 1_555
N14 C42 1_555 1_555
C43 N14 1_555 1_555
N15 C43 1_555 1_555
C44 N15 1_555 1_555
N16 C42 1_555 1_555
N17 C45 1_555 1_555
C45 H29 1_555 1_555
C46 C45 1_555 1_555
H30 C46 1_555 1_555
C47 C43 1_555 1_555
C48 C47 1_555 1_555
H31 C48 1_555 1_555
C49 N17 1_555 1_555
H32 C49 1_555 1_555
N18 C50 1_555 1_555
C50 H33 1_555 1_555
C51 C50 1_555 1_555
H34 C51 1_555 1_555
C52 C44 1_555 1_555
C53 C52 1_555 1_555
H35 C53 1_555 1_555
C54 N18 1_555 1_555
H36 C54 1_555 1_555
Zn5 N17 1_555 1_555
I9 Zn5 1_555 1_555
I10 Zn5 1_555 1_555
Zn6 N18 1_555 1_555
I11 Zn6 1_555 1_555
I12 Zn6 1_555 1_555
N19 Zn6 1_555 1_555
C55 N19 1_555 1_555
H37 C55 1_555 1_555
C56 C55 1_555 1_555
H38 C56 1_555 1_555
C57 C56 1_555 1_555
C58 C57 1_555 1_555
H39 C58 1_555 1_555
C59 N19 1_555 1_555
H40 C59 1_555 1_555
C60 C57 1_555 1_555
N20 C60 1_555 1_555
C61 N20 1_555 1_555
N21 C61 1_555 1_555
C62 N21 1_555 1_555
N22 C60 1_555 1_555
N23 C63 1_555 1_555
C63 H41 1_555 1_555
C64 C63 1_555 1_555
H42 C64 1_555 1_555
C65 C61 1_555 1_555
C66 C65 1_555 1_555
H43 C66 1_555 1_555
C67 N23 1_555 1_555
H44 C67 1_555 1_555
N24 C68 1_555 1_555
C68 H45 1_555 1_555
C69 C68 1_555 1_555
H46 C69 1_555 1_555
C70 C62 1_555 1_555
C71 C70 1_555 1_555
H47 C71 1_555 1_555
C72 N24 1_555 1_555
H48 C72 1_555 1_555
C73 H49 1_555 1_555
C74 C77 1_555 1_555
C75 H50 1_555 1_555
C76 C75 1_555 1_555
C77 C73 1_555 1_555
H51 C77 1_555 1_555
C78 C76 1_555 1_555
H52 C78 1_555 1_555
C79 C74 1_555 1_555
C80 H53 1_555 1_555
H54 C80 1_555 1_555
H55 C80 1_555 1_555
C81 C76 1_555 1_555
H56 C81 1_555 1_555
C82 C74 1_555 1_555
C83 C75 1_555 1_555
H57 C83 1_555 1_555
C84 C73 1_555 1_555
C85 C81 1_555 1_555
H58 C85 1_555 1_555
H59 C85 1_555 1_555
H60 C85 1_555 1_555
C86 C81 1_555 1_555
H61 C86 1_555 1_555
H62 C86 1_555 1_555
H63 C86 1_555 1_555
C87 C84 1_555 1_555
H64 C87 1_555 1_555
H65 C87 1_555 1_555
H66 C87 1_555 1_555
Zn1A N12 1_555 1_555
N6B Zn3 1_555 1_555
N12A Zn1 1_555 1_555
Zn3B N6 1_555 1_555
Zn4B N23 1_555 1_555
Zn5A N24 1_555 1_555
N23B Zn4 1_555 1_555
N24A Zn5 1_555 1_555
C4 C5 1_555 1_555
C8 N4 1_555 1_555
C10 C11 1_555 1_555
C12 C13 1_555 1_555
C15 C16 1_555 1_555
C17 C18 1_555 1_555
C22 C23 1_555 1_555
N10 C29 1_555 1_555
C27 C28 1_555 1_555
C30 C31 1_555 1_555
N12 C36 1_555 1_555
C40 C41 1_555 1_555
C44 N16 1_555 1_555
C46 C47 1_555 1_555
C48 C49 1_555 1_555
C51 C52 1_555 1_555
C53 C54 1_555 1_555
C58 C59 1_555 1_555
C62 N22 1_555 1_555
C64 C65 1_555 1_555
C66 C67 1_555 1_555
C69 C70 1_555 1_555
C71 C72 1_555 1_555
C78 C79 1_555 1_555
C79 C84 1_555 1_555
C80 C82 1_555 1_555
C82 C83 1_555 1_555

#END
