
#######################################################################
#
#                 Cambridge Crystallographic Data Centre
#                                CCDC 
#
#######################################################################
#
# If this CIF has been generated from an entry in the Cambridge 
# Structural Database, then it will include bibliographic, chemical, 
# crystal, experimental, refinement or atomic coordinate data resulting 
# from the CCDC's data processing and validation procedures.
#
#######################################################################

data_REXGAE
_chemical_formula_moiety         'C168 H116 Co15 N70 O2 S14'
_symmetry_cell_setting           monoclinic
_symmetry_space_group_name_H-M   'C 2/m'
_symmetry_Int_Tables_number      12
_space_group_name_Hall           '-C 2y'
loop_
_symmetry_equiv_pos_site_id
_symmetry_equiv_pos_as_xyz
1 x,y,z
2 -x,y,-z
3 1/2+x,1/2+y,z
4 1/2-x,1/2+y,-z
5 -x,-y,-z
6 x,-y,z
7 1/2-x,1/2-y,-z
8 1/2+x,1/2-y,z
_cell_length_a                   37.318(6)
_cell_length_b                   37.293(6)
_cell_length_c                   26.388(5)
_cell_angle_alpha                90
_cell_angle_beta                 134.988(2)
_cell_angle_gamma                90
_cell_volume                     25973.4
loop_
_atom_site_label
_atom_site_type_symbol
_atom_site_fract_x
_atom_site_fract_y
_atom_site_fract_z
O1 O 0.5793(5) 0.3144(3) 0.5298(7)
C41 C 0.5447(6) 0.3149(4) 0.4593(8)
C42 C 0.4995(5) 0.3380(3) 0.4199(6)
H25 H 0.4980 0.3559 0.3908
H26 H 0.5007 0.3509 0.4538
C43 C 0.4531(5) 0.3135(3) 0.3715(6)
H27 H 0.4224 0.3287 0.3404
H28 H 0.4522 0.2990 0.4020
C44 C 0.4510(5) 0.2879(3) 0.3238(7)
H29 H 0.4467 0.3019 0.2878
H30 H 0.4217 0.2716 0.2980
C45 C 0.5004(4) 0.2661(4) 0.3707(6)
H31 H 0.5012 0.2491 0.4002
H32 H 0.5006 0.2519 0.3392
C46 C 0.5481(5) 0.2894(3) 0.4201(6)
H33 H 0.5783 0.2740 0.4545
H34 H 0.5516 0.3028 0.3914
O2 O 0.4470(5) 0.1871(3) 0.5257(8)
C47 C 0.4151(6) 0.1834(4) 0.4586(8)
C48 C 0.3732(5) 0.2101(3) 0.4213(6)
H35 H 0.3796 0.2262 0.4568
H36 H 0.3406 0.1976 0.3944
C49 C 0.3707(5) 0.2320(3) 0.3696(6)
H37 H 0.3387 0.2459 0.3377
H38 H 0.3990 0.2495 0.3981
C50 C 0.3733(4) 0.2110(3) 0.3231(6)
H39 H 0.3775 0.2275 0.2982
H40 H 0.3417 0.1971 0.2865
C51 C 0.4186(4) 0.1855(3) 0.3714(6)
H41 H 0.4178 0.1695 0.3407
H42 H 0.4500 0.1999 0.4008
C52 C 0.4210(5) 0.1625(3) 0.4212(6)
H43 H 0.3940 0.1441 0.3929
H44 H 0.4541 0.1500 0.4556
Co1 Co 0.5000 0.5000 0.5000
N1 N 0.50014(15) 0.5000 0.42102(19)
C1 C 0.5002(2) 0.5000 0.3794(3)
Co2 Co 0.2500 0.2500 0.0000
N2 N 0.21001(9) 0.21014(8) 0.00008(12)
C2 C 0.18871(18) 0.18888(12) -0.0001(3)
Co3 Co 0.2500 0.2500 0.5000
N3 N 0.21007(10) 0.21001(8) 0.42034(15)
C3 C 0.18891(17) 0.18878(12) 0.3780(2)
Co4 Co 0.0000 0.5000 0.5000
N4 N -0.07919(14) 0.5000 0.4209(2)
C4 C -0.1207(3) 0.5000 0.3796(3)
S1 S -0.18064(9) 0.51688(10) 0.3197(2)
N5 N 0.44394(12) 0.45951(8) 0.44394(15)
C5 C 0.4125(3) 0.4530(2) 0.3731(4)
H1 H 0.4141 0.4682 0.3459
C6 C 0.3780(4) 0.4251(2) 0.3387(4)
H2 H 0.3563 0.4217 0.2887
C7 C 0.37524(15) 0.40308(10) 0.37518(18)
C8 C 0.4076(4) 0.4081(3) 0.4481(6)
H3 H 0.4055 0.3928 0.4748
C9 C 0.4433(4) 0.4356(3) 0.4822(5)
H4 H 0.4675 0.4377 0.5329
C10 C 0.33965(15) 0.37250(9) 0.33962(18)
N6 N 0.32659(12) 0.35904(8) 0.28227(15)
C11 C 0.29701(15) 0.33050(10) 0.25460(19)
N7 N 0.28237(12) 0.31437(8) 0.28251(15)
C12 C 0.29737(14) 0.33024(10) 0.33970(19)
N8 N 0.32679(12) 0.35875(8) 0.37148(15)
N9 N 0.26300(11) 0.27789(8) 0.08191(14)
C13 C 0.2683(4) 0.2583(3) 0.1305(5)
H5 H 0.2667 0.2329 0.1277
C14 C 0.2761(4) 0.2759(3) 0.1848(5)
H6 H 0.2756 0.2627 0.2151
C15 C 0.28452(15) 0.31274(10) 0.19394(18)
C16 C 0.2838(4) 0.3301(2) 0.1499(4)
H7 H 0.2912 0.3550 0.1569
C17 C 0.2729(4) 0.3133(2) 0.0940(5)
H8 H 0.2723 0.3270 0.0630
N10 N 0.26276(11) 0.27805(8) 0.44402(15)
C18 C 0.2733(4) 0.3135(2) 0.4532(5)
H9 H 0.2739 0.3270 0.4844
C19 C 0.2834(4) 0.3307(2) 0.4168(5)
H10 H 0.2892 0.3558 0.4222
C20 C 0.28480(15) 0.31252(10) 0.37549(19)
C21 C 0.2752(4) 0.2752(2) 0.3667(6)
H11 H 0.2743 0.2619 0.3351
C22 C 0.2673(4) 0.2583(3) 0.4044(6)
H12 H 0.2649 0.2329 0.4033
N11 N 0.18124(10) 0.27818(8) 0.44384(15)
C23 C 0.1411(3) 0.2745(3) 0.3741(4)
H13 H 0.1438 0.2600 0.3473
C24 C 0.0940(3) 0.2915(3) 0.3378(4)
H14 H 0.0656 0.2879 0.2879
C25 C 0.09043(12) 0.31257(10) 0.37488(19)
C26 C 0.1322(4) 0.3169(3) 0.4480(5)
H15 H 0.1303 0.3325 0.4745
C27 C 0.1775(3) 0.2982(3) 0.4829(6)
H16 H 0.2053 0.2997 0.5335
C28 C 0.04230(12) 0.33048(10) 0.33936(19)
N12 N -0.00010(10) 0.31445(8) 0.28214(15)
C29 C -0.04213(13) 0.33052(10) 0.25518(19)
N13 N -0.04439(10) 0.35902(8) 0.28230(15)
C30 C -0.00007(12) 0.37278(10) 0.33925(19)
N14 N 0.04416(10) 0.35892(8) 0.37069(16)
C31 C -0.1757(3) 0.2975(3) 0.1304(4)
H17 H -0.2026 0.2978 0.1276
C32 C -0.1307(3) 0.3175(3) 0.1856(4)
H18 H -0.1287 0.3336 0.2154
C33 C -0.09057(12) 0.31261(10) 0.19375(18)
C34 C -0.0954(3) 0.2909(3) 0.1483(4)
H19 H -0.0674 0.2875 0.1541
C35 C -0.1400(3) 0.2739(3) 0.0941(4)
H20 H -0.1419 0.2585 0.0636
N15 N -0.18110(10) 0.27795(8) 0.08182(14)
C36 C 0.0392(3) 0.4539(2) 0.4515(5)
H21 H 0.0679 0.4692 0.4822
C37 C 0.0387(3) 0.4255(3) 0.4150(5)
H22 H 0.0661 0.4228 0.4194
C38 C -0.00011(12) 0.40304(10) 0.37480(18)
C39 C -0.0407(3) 0.4081(2) 0.3676(6)
H23 H -0.0695 0.3929 0.3374
C40 C -0.0385(3) 0.4354(2) 0.4047(5)
H24 H -0.0646 0.4375 0.4031
N16 N -0.00012(10) 0.45935(8) 0.44328(15)
S2 S 0.49968(18) 0.5000 0.31813(19)
S3 S 0.1429(2) 0.15988(16) 0.3190(3)
S4 S 0.1431(2) 0.15956(15) -0.0331(3)
S1E S -0.18064(9) 0.48312(10) 0.3197(2)
Co2A Co -0.2500 0.2500 0.0000
N2A N -0.21001(9) 0.21014(8) -0.00008(12)
C2A C -0.18871(18) 0.18888(12) 0.0001(3)
Co3A Co -0.2500 0.2500 -0.5000
N3A N -0.21007(10) 0.21001(8) -0.42034(15)
C3A C -0.18891(17) 0.18878(12) -0.3780(2)
N5A N -0.44394(12) 0.45951(8) -0.44394(15)
C5A C -0.4125(3) 0.4530(2) -0.3731(4)
H1A H -0.4141 0.4682 -0.3459
C6A C -0.3780(4) 0.4251(2) -0.3387(4)
H2A H -0.3563 0.4217 -0.2887
C7A C -0.37524(15) 0.40308(10) -0.37518(18)
C8A C -0.4076(4) 0.4081(3) -0.4481(6)
H3A H -0.4055 0.3928 -0.4748
C9A C -0.4433(4) 0.4356(3) -0.4822(5)
H4A H -0.4675 0.4377 -0.5329
C10A C -0.33965(15) 0.37250(9) -0.33962(18)
N6A N -0.32659(12) 0.35904(8) -0.28227(15)
C11A C -0.29701(15) 0.33050(10) -0.25460(19)
N7A N -0.28237(12) 0.31437(8) -0.28251(15)
C12A C -0.29737(14) 0.33024(10) -0.33970(19)
N8A N -0.32679(12) 0.35875(8) -0.37148(15)
N9A N -0.26300(11) 0.27789(8) -0.08191(14)
C13A C -0.2683(4) 0.2583(3) -0.1305(5)
H5A H -0.2667 0.2329 -0.1277
C14A C -0.2761(4) 0.2759(3) -0.1848(5)
H6A H -0.2756 0.2627 -0.2151
C15A C -0.28452(15) 0.31274(10) -0.19394(18)
C16A C -0.2838(4) 0.3301(2) -0.1499(4)
H7A H -0.2912 0.3550 -0.1569
C17A C -0.2729(4) 0.3133(2) -0.0940(5)
H8A H -0.2723 0.3270 -0.0630
N10A N -0.26276(11) 0.27805(8) -0.44402(15)
C18A C -0.2733(4) 0.3135(2) -0.4532(5)
H9A H -0.2739 0.3270 -0.4844
C19A C -0.2834(4) 0.3307(2) -0.4168(5)
H10A H -0.2892 0.3558 -0.4222
C20A C -0.28480(15) 0.31252(10) -0.37549(19)
C21A C -0.2752(4) 0.2752(2) -0.3667(6)
H11A H -0.2743 0.2619 -0.3351
C22A C -0.2673(4) 0.2583(3) -0.4044(6)
H12A H -0.2649 0.2329 -0.4033
N11A N -0.18124(10) 0.27818(8) -0.44384(15)
C23A C -0.1411(3) 0.2745(3) -0.3741(4)
H13A H -0.1438 0.2600 -0.3473
C24A C -0.0940(3) 0.2915(3) -0.3378(4)
H14A H -0.0656 0.2879 -0.2879
C25A C -0.09043(12) 0.31257(10) -0.37488(19)
C26A C -0.1322(4) 0.3169(3) -0.4480(5)
H15A H -0.1303 0.3325 -0.4745
C27A C -0.1775(3) 0.2982(3) -0.4829(6)
H16A H -0.2053 0.2997 -0.5335
C28A C -0.04230(12) 0.33048(10) -0.33936(19)
N12A N 0.00010(10) 0.31445(8) -0.28214(15)
C29A C 0.04213(13) 0.33052(10) -0.25518(19)
N13A N 0.04439(10) 0.35902(8) -0.28230(15)
C30A C 0.00007(12) 0.37278(10) -0.33925(19)
N14A N -0.04416(10) 0.35892(8) -0.37069(16)
C31A C 0.1757(3) 0.2975(3) -0.1304(4)
H17A H 0.2026 0.2978 -0.1276
C32A C 0.1307(3) 0.3175(3) -0.1856(4)
H18A H 0.1287 0.3336 -0.2154
C33A C 0.09057(12) 0.31261(10) -0.19375(18)
C34A C 0.0954(3) 0.2909(3) -0.1483(4)
H19A H 0.0674 0.2875 -0.1541
C35A C 0.1400(3) 0.2739(3) -0.0941(4)
H20A H 0.1419 0.2585 -0.0636
N15A N 0.18110(10) 0.27795(8) -0.08182(14)
C36A C -0.0392(3) 0.4539(2) -0.4515(5)
H21A H -0.0679 0.4692 -0.4822
C37A C -0.0387(3) 0.4255(3) -0.4150(5)
H22A H -0.0661 0.4228 -0.4194
C38A C 0.00011(12) 0.40304(10) -0.37480(18)
C39A C 0.0407(3) 0.4081(2) -0.3676(6)
H23A H 0.0695 0.3929 -0.3374
C40A C 0.0385(3) 0.4354(2) -0.4047(5)
H24A H 0.0646 0.4375 -0.4031
N16A N 0.00012(10) 0.45935(8) -0.44328(15)
S3A S -0.1429(2) 0.15988(16) -0.3190(3)
S4A S -0.1431(2) 0.15956(15) 0.0331(3)
N5E N 0.44394(12) 0.54049(8) 0.44394(15)
C5E C 0.4125(3) 0.5470(2) 0.3731(4)
H1E H 0.4141 0.5318 0.3459
C6E C 0.3780(4) 0.5749(2) 0.3387(4)
H2E H 0.3563 0.5783 0.2887
C7E C 0.37524(15) 0.59692(10) 0.37518(18)
C8E C 0.4076(4) 0.5919(3) 0.4481(6)
H3E H 0.4055 0.6072 0.4748
C9E C 0.4433(4) 0.5644(3) 0.4822(5)
H4E H 0.4675 0.5623 0.5329
C10E C 0.33965(15) 0.62750(9) 0.33962(18)
N6E N 0.32659(12) 0.64096(8) 0.28227(15)
C11E C 0.29701(15) 0.66950(10) 0.25460(19)
N7E N 0.28237(12) 0.68563(8) 0.28251(15)
C12E C 0.29737(14) 0.66976(10) 0.33970(19)
N8E N 0.32679(12) 0.64125(8) 0.37148(15)
N9E N 0.26300(11) 0.72211(8) 0.08191(14)
C13E C 0.2683(4) 0.7417(3) 0.1305(5)
H5E H 0.2667 0.7671 0.1277
C14E C 0.2761(4) 0.7241(3) 0.1848(5)
H6E H 0.2756 0.7373 0.2151
C15E C 0.28452(15) 0.68726(10) 0.19394(18)
C16E C 0.2838(4) 0.6699(2) 0.1499(4)
H7E H 0.2912 0.6450 0.1569
C17E C 0.2729(4) 0.6867(2) 0.0940(5)
H8E H 0.2723 0.6730 0.0630
N10E N 0.26276(11) 0.72195(8) 0.44402(15)
C18E C 0.2733(4) 0.6865(2) 0.4532(5)
H9E H 0.2739 0.6730 0.4844
C19E C 0.2834(4) 0.6693(2) 0.4168(5)
H10E H 0.2892 0.6442 0.4222
C20E C 0.28480(15) 0.68748(10) 0.37549(19)
C21E C 0.2752(4) 0.7248(2) 0.3667(6)
H11E H 0.2743 0.7381 0.3351
C22E C 0.2673(4) 0.7417(3) 0.4044(6)
H12E H 0.2649 0.7671 0.4033
N11E N 0.18124(10) 0.72182(8) 0.44384(15)
C23E C 0.1411(3) 0.7255(3) 0.3741(4)
H13E H 0.1438 0.7400 0.3473
C24E C 0.0940(3) 0.7085(3) 0.3378(4)
H14E H 0.0656 0.7121 0.2879
C25E C 0.09043(12) 0.68743(10) 0.37488(19)
C26E C 0.1322(4) 0.6831(3) 0.4480(5)
H15E H 0.1303 0.6675 0.4745
C27E C 0.1775(3) 0.7018(3) 0.4829(6)
H16E H 0.2053 0.7003 0.5335
C28E C 0.04230(12) 0.66952(10) 0.33936(19)
N12E N -0.00010(10) 0.68555(8) 0.28214(15)
C29E C -0.04213(13) 0.66948(10) 0.25518(19)
N13E N -0.04439(10) 0.64098(8) 0.28230(15)
C30E C -0.00007(12) 0.62722(10) 0.33925(19)
N14E N 0.04416(10) 0.64108(8) 0.37069(16)
C31E C -0.1757(3) 0.7025(3) 0.1304(4)
H17E H -0.2026 0.7022 0.1276
C32E C -0.1307(3) 0.6825(3) 0.1856(4)
H18E H -0.1287 0.6664 0.2154
C33E C -0.09057(12) 0.68739(10) 0.19375(18)
C34E C -0.0954(3) 0.7091(3) 0.1483(4)
H19E H -0.0674 0.7125 0.1541
C35E C -0.1400(3) 0.7261(3) 0.0941(4)
H20E H -0.1419 0.7415 0.0636
N15E N -0.18110(10) 0.72205(8) 0.08182(14)
C36E C 0.0392(3) 0.5461(2) 0.4515(5)
H21E H 0.0679 0.5308 0.4822
C37E C 0.0387(3) 0.5745(3) 0.4150(5)
H22E H 0.0661 0.5772 0.4194
C38E C -0.00011(12) 0.59696(10) 0.37480(18)
C39E C -0.0407(3) 0.5919(2) 0.3676(6)
H23E H -0.0695 0.6071 0.3374
C40E C -0.0385(3) 0.5646(2) 0.4047(5)
H24E H -0.0646 0.5625 0.4031
N16E N -0.00012(10) 0.54065(8) 0.44328(15)
N5D N 0.55606(12) 0.54049(8) 0.55606(15)
C5D C 0.5875(3) 0.5470(2) 0.6269(4)
H1D H 0.5859 0.5318 0.6541
C6D C 0.6220(4) 0.5749(2) 0.6613(4)
H2D H 0.6437 0.5783 0.7113
C7D C 0.62476(15) 0.59692(10) 0.62482(18)
C8D C 0.5924(4) 0.5919(3) 0.5519(6)
H3D H 0.5945 0.6072 0.5252
C9D C 0.5567(4) 0.5644(3) 0.5178(5)
H4D H 0.5325 0.5623 0.4671
C10D C 0.66035(15) 0.62750(9) 0.66038(18)
N6D N 0.67341(12) 0.64096(8) 0.71773(15)
C11D C 0.70299(15) 0.66950(10) 0.74540(19)
N7D N 0.71763(12) 0.68563(8) 0.71749(15)
C12D C 0.70263(14) 0.66976(10) 0.66030(19)
N8D N 0.67321(12) 0.64125(8) 0.62852(15)
N9D N 0.73700(11) 0.72211(8) 0.91809(14)
C13D C 0.7317(4) 0.7417(3) 0.8695(5)
H5D H 0.7333 0.7671 0.8723
C14D C 0.7239(4) 0.7241(3) 0.8152(5)
H6D H 0.7244 0.7373 0.7849
C15D C 0.71548(15) 0.68726(10) 0.80606(18)
C16D C 0.7162(4) 0.6699(2) 0.8501(4)
H7D H 0.7088 0.6450 0.8431
C17D C 0.7271(4) 0.6867(2) 0.9060(5)
H8D H 0.7277 0.6730 0.9370
N10D N 0.73724(11) 0.72195(8) 0.55598(15)
C18D C 0.7267(4) 0.6865(2) 0.5468(5)
H9D H 0.7261 0.6730 0.5156
C19D C 0.7166(4) 0.6693(2) 0.5832(5)
H10D H 0.7108 0.6442 0.5778
C20D C 0.71520(15) 0.68748(10) 0.62451(19)
C21D C 0.7248(4) 0.7248(2) 0.6333(6)
H11D H 0.7257 0.7381 0.6649
C22D C 0.7327(4) 0.7417(3) 0.5956(6)
H12D H 0.7351 0.7671 0.5967
N11G N 0.68124(10) 0.22182(8) 0.44384(15)
C23G C 0.6411(3) 0.2255(3) 0.3741(4)
H13G H 0.6438 0.2400 0.3473
C24G C 0.5940(3) 0.2085(3) 0.3378(4)
H14G H 0.5656 0.2121 0.2879
C25G C 0.59043(12) 0.18743(10) 0.37488(19)
C26G C 0.6322(4) 0.1831(3) 0.4480(5)
H15G H 0.6303 0.1675 0.4745
C27G C 0.6775(3) 0.2018(3) 0.4829(6)
H16G H 0.7053 0.2003 0.5335
C28G C 0.54230(12) 0.16952(10) 0.33936(19)
N12G N 0.49990(10) 0.18555(8) 0.28214(15)
C29G C 0.45787(13) 0.16948(10) 0.25518(19)
N13G N 0.45561(10) 0.14098(8) 0.28230(15)
C30G C 0.49993(12) 0.12722(10) 0.33925(19)
N14G N 0.54416(10) 0.14108(8) 0.37069(16)
C31G C 0.3243(3) 0.2025(3) 0.1304(4)
H17G H 0.2974 0.2022 0.1276
C32G C 0.3693(3) 0.1825(3) 0.1856(4)
H18G H 0.3713 0.1664 0.2154
C33G C 0.40943(12) 0.18739(10) 0.19375(18)
C34G C 0.4046(3) 0.2091(3) 0.1483(4)
H19G H 0.4326 0.2125 0.1541
C35G C 0.3600(3) 0.2261(3) 0.0941(4)
H20G H 0.3581 0.2415 0.0636
N15G N 0.31890(10) 0.22205(8) 0.08182(14)
C36G C 0.5392(3) 0.0461(2) 0.4515(5)
H21G H 0.5679 0.0308 0.4822
C37G C 0.5387(3) 0.0745(3) 0.4150(5)
H22G H 0.5661 0.0772 0.4194
C38G C 0.49989(12) 0.09696(10) 0.37480(18)
C39G C 0.4593(3) 0.0919(2) 0.3676(6)
H23G H 0.4305 0.1071 0.3374
C40G C 0.4615(3) 0.0646(2) 0.4047(5)
H24G H 0.4354 0.0625 0.4031
N16G N 0.49988(10) 0.04065(8) 0.44328(15)
N4A N 0.07919(14) 0.5000 0.5791(2)
C4A C 0.1207(3) 0.5000 0.6204(3)
S1A S 0.18064(9) 0.51688(10) 0.6803(2)
S1D S 0.18064(9) 0.48312(10) 0.6803(2)
N1A N 0.49986(15) 0.5000 0.57898(19)
C1A C 0.4998(2) 0.5000 0.6206(3)
S2A S 0.50032(18) 0.5000 0.68187(19)
N2F N 0.28999(9) 0.28986(8) -0.00008(12)
C2F C 0.31129(18) 0.31112(12) 0.0001(3)
S4F S 0.3569(2) 0.34044(15) 0.0331(3)
N3F N 0.28993(10) 0.28999(8) 0.57966(15)
C3F C 0.31109(17) 0.31122(12) 0.6220(2)
S3F S 0.3571(2) 0.34012(16) 0.6810(3)
N2G N -0.28999(9) 0.28986(8) 0.00008(12)
C2G C -0.31129(18) 0.31112(12) -0.0001(3)
S4G S -0.3569(2) 0.34044(15) -0.0331(3)
N3G N -0.28993(10) 0.28999(8) -0.57966(15)
C3G C -0.31109(17) 0.31122(12) -0.6220(2)
S3G S -0.3571(2) 0.34012(16) -0.6810(3)
Co1_2 Co -0.5000 0.5000 -0.5000
Co2B Co -0.2500 0.7500 0.0000
Co2B_2 Co 0.7500 0.7500 1.0000
Co2C Co 0.2500 0.7500 0.0000
Co3A_2 Co 0.7500 0.2500 0.5000
Co3B Co 0.7500 0.7500 0.5000
Co3C Co 0.2500 0.7500 0.5000
Co4_2 Co 0.0000 0.5000 -0.5000
Co4B Co 0.5000 0.0000 0.5000
N5A_2 N 0.55606(12) 0.45951(8) 0.55606(15)
N9F N 0.23700(11) 0.22211(8) -0.08191(14)
N9G N -0.23700(11) 0.22211(8) 0.08191(14)
N10F N 0.23724(11) 0.22195(8) 0.55598(15)
N10G N -0.23724(11) 0.22195(8) -0.55598(15)
N11F N 0.31876(10) 0.22182(8) 0.55616(15)
N11G_2 N -0.31876(10) 0.22182(8) -0.55616(15)
N15F N -0.31890(10) 0.22205(8) -0.08182(14)
N16A_2 N 0.00012(10) 0.45935(8) 0.55672(15)
N16D N 0.00012(10) 0.54065(8) 0.55672(15)
loop_
_geom_bond_atom_site_label_1
_geom_bond_atom_site_label_2
_geom_bond_site_symmetry_1
_geom_bond_site_symmetry_2
Co1 N1 1_555 1_555
N1 C1 1_555 1_555
C1 S2 1_555 1_555
Co2 N2 1_555 1_555
N2 C2 1_555 1_555
C2 S4 1_555 1_555
Co3 N3 1_555 1_555
N3 C3 1_555 1_555
C3 S3 1_555 1_555
Co4 N4 1_555 1_555
N4 C4 1_555 1_555
C4 S1 1_555 1_555
S1 S1E 1_555 1_555
N5 Co1 1_555 1_555
C5 N5 1_555 1_555
H1 C5 1_555 1_555
C6 C5 1_555 1_555
H2 C6 1_555 1_555
C7 C6 1_555 1_555
C8 C7 1_555 1_555
H3 C8 1_555 1_555
C9 N5 1_555 1_555
H4 C9 1_555 1_555
C10 C7 1_555 1_555
N6 C10 1_555 1_555
C11 N6 1_555 1_555
N7 C11 1_555 1_555
C12 N7 1_555 1_555
N8 C10 1_555 1_555
N9 Co2 1_555 1_555
C13 N9 1_555 1_555
H5 C13 1_555 1_555
C14 C13 1_555 1_555
H6 C14 1_555 1_555
C15 C11 1_555 1_555
C16 C15 1_555 1_555
H7 C16 1_555 1_555
C17 N9 1_555 1_555
H8 C17 1_555 1_555
N10 Co3 1_555 1_555
C18 N10 1_555 1_555
H9 C18 1_555 1_555
C19 C18 1_555 1_555
H10 C19 1_555 1_555
C20 C12 1_555 1_555
C21 C20 1_555 1_555
H11 C21 1_555 1_555
C22 N10 1_555 1_555
H12 C22 1_555 1_555
N11 Co3 1_555 1_555
C23 N11 1_555 1_555
H13 C23 1_555 1_555
C24 C23 1_555 1_555
H14 C24 1_555 1_555
C25 C24 1_555 1_555
C26 C25 1_555 1_555
H15 C26 1_555 1_555
C27 N11 1_555 1_555
H16 C27 1_555 1_555
C28 C25 1_555 1_555
N12 C28 1_555 1_555
C29 N12 1_555 1_555
N13 C29 1_555 1_555
C30 N13 1_555 1_555
N14 C28 1_555 1_555
C31 H17 1_555 1_555
C32 C31 1_555 1_555
H18 C32 1_555 1_555
C33 C29 1_555 1_555
C34 C33 1_555 1_555
H19 C34 1_555 1_555
C35 C34 1_555 1_555
H20 C35 1_555 1_555
N15 C31 1_555 1_555
C36 H21 1_555 1_555
C37 C36 1_555 1_555
H22 C37 1_555 1_555
C38 C30 1_555 1_555
C39 C38 1_555 1_555
H23 C39 1_555 1_555
C40 C39 1_555 1_555
H24 C40 1_555 1_555
N16 Co4 1_555 1_555
O1 C41 1_555 1_555
C41 C42 1_555 1_555
C42 H25 1_555 1_555
H26 C42 1_555 1_555
C43 C42 1_555 1_555
H27 C43 1_555 1_555
H28 C43 1_555 1_555
C44 C43 1_555 1_555
H29 C44 1_555 1_555
H30 C44 1_555 1_555
C45 C44 1_555 1_555
H31 C45 1_555 1_555
H32 C45 1_555 1_555
C46 C41 1_555 1_555
H33 C46 1_555 1_555
H34 C46 1_555 1_555
O2 C47 1_555 1_555
C47 C48 1_555 1_555
C48 H35 1_555 1_555
H36 C48 1_555 1_555
C49 C48 1_555 1_555
H37 C49 1_555 1_555
H38 C49 1_555 1_555
C50 C49 1_555 1_555
H39 C50 1_555 1_555
H40 C50 1_555 1_555
C51 C50 1_555 1_555
H41 C51 1_555 1_555
H42 C51 1_555 1_555
C52 C47 1_555 1_555
H43 C52 1_555 1_555
H44 C52 1_555 1_555
S1E C4 1_555 1_555
Co2A N15 1_555 1_555
N2A Co2A 1_555 1_555
C2A N2A 1_555 1_555
Co3A N3A 1_555 1_555
N3A C3A 1_555 1_555
C3A S3A 1_555 1_555
N5A C5A 1_555 1_555
C5A H1A 1_555 1_555
C6A C5A 1_555 1_555
H2A C6A 1_555 1_555
C7A C6A 1_555 1_555
C8A C7A 1_555 1_555
H3A C8A 1_555 1_555
C9A N5A 1_555 1_555
H4A C9A 1_555 1_555
C10A C7A 1_555 1_555
N6A C10A 1_555 1_555
C11A N6A 1_555 1_555
N7A C11A 1_555 1_555
C12A N7A 1_555 1_555
N8A C10A 1_555 1_555
N9A Co2A 1_555 1_555
C13A N9A 1_555 1_555
H5A C13A 1_555 1_555
C14A C13A 1_555 1_555
H6A C14A 1_555 1_555
C15A C11A 1_555 1_555
C16A C15A 1_555 1_555
H7A C16A 1_555 1_555
C17A N9A 1_555 1_555
H8A C17A 1_555 1_555
N10A Co3A 1_555 1_555
C18A N10A 1_555 1_555
H9A C18A 1_555 1_555
C19A C18A 1_555 1_555
H10A C19A 1_555 1_555
C20A C12A 1_555 1_555
C21A C20A 1_555 1_555
H11A C21A 1_555 1_555
C22A N10A 1_555 1_555
H12A C22A 1_555 1_555
N11A Co3A 1_555 1_555
C23A N11A 1_555 1_555
H13A C23A 1_555 1_555
C24A C23A 1_555 1_555
H14A C24A 1_555 1_555
C25A C24A 1_555 1_555
C26A C25A 1_555 1_555
H15A C26A 1_555 1_555
C27A N11A 1_555 1_555
H16A C27A 1_555 1_555
C28A C25A 1_555 1_555
N12A C28A 1_555 1_555
C29A N12A 1_555 1_555
N13A C29A 1_555 1_555
C30A N13A 1_555 1_555
N14A C28A 1_555 1_555
C31A H17A 1_555 1_555
C32A C31A 1_555 1_555
H18A C32A 1_555 1_555
C33A C29A 1_555 1_555
C34A C33A 1_555 1_555
H19A C34A 1_555 1_555
C35A C34A 1_555 1_555
H20A C35A 1_555 1_555
N15A Co2 1_555 1_555
C36A H21A 1_555 1_555
C37A C36A 1_555 1_555
H22A C37A 1_555 1_555
C38A C30A 1_555 1_555
C39A C38A 1_555 1_555
H23A C39A 1_555 1_555
C40A C39A 1_555 1_555
H24A C40A 1_555 1_555
N16A C36A 1_555 1_555
S4A C2A 1_555 1_555
N5E Co1 1_555 1_555
C5E N5E 1_555 1_555
H1E C5E 1_555 1_555
C6E C5E 1_555 1_555
H2E C6E 1_555 1_555
C7E C6E 1_555 1_555
C8E C7E 1_555 1_555
H3E C8E 1_555 1_555
C9E N5E 1_555 1_555
H4E C9E 1_555 1_555
C10E C7E 1_555 1_555
N6E C10E 1_555 1_555
C11E N6E 1_555 1_555
N7E C11E 1_555 1_555
C12E N7E 1_555 1_555
N8E C10E 1_555 1_555
N9E C13E 1_555 1_555
C13E H5E 1_555 1_555
C14E C13E 1_555 1_555
H6E C14E 1_555 1_555
C15E C11E 1_555 1_555
C16E C15E 1_555 1_555
H7E C16E 1_555 1_555
C17E N9E 1_555 1_555
H8E C17E 1_555 1_555
N10E C18E 1_555 1_555
C18E H9E 1_555 1_555
C19E C18E 1_555 1_555
H10E C19E 1_555 1_555
C20E C12E 1_555 1_555
C21E C20E 1_555 1_555
H11E C21E 1_555 1_555
C22E N10E 1_555 1_555
H12E C22E 1_555 1_555
N11E C23E 1_555 1_555
C23E H13E 1_555 1_555
C24E C23E 1_555 1_555
H14E C24E 1_555 1_555
C25E C24E 1_555 1_555
C26E C25E 1_555 1_555
H15E C26E 1_555 1_555
C27E N11E 1_555 1_555
H16E C27E 1_555 1_555
C28E C25E 1_555 1_555
N12E C28E 1_555 1_555
C29E N12E 1_555 1_555
N13E C29E 1_555 1_555
C30E N13E 1_555 1_555
N14E C28E 1_555 1_555
C31E H17E 1_555 1_555
C32E C31E 1_555 1_555
H18E C32E 1_555 1_555
C33E C29E 1_555 1_555
C34E C33E 1_555 1_555
H19E C34E 1_555 1_555
C35E C34E 1_555 1_555
H20E C35E 1_555 1_555
N15E C31E 1_555 1_555
C36E H21E 1_555 1_555
C37E C36E 1_555 1_555
H22E C37E 1_555 1_555
C38E C30E 1_555 1_555
C39E C38E 1_555 1_555
H23E C39E 1_555 1_555
C40E C39E 1_555 1_555
H24E C40E 1_555 1_555
N16E Co4 1_555 1_555
N5D Co1 1_555 1_555
C5D N5D 1_555 1_555
H1D C5D 1_555 1_555
C6D C5D 1_555 1_555
H2D C6D 1_555 1_555
C7D C6D 1_555 1_555
C8D C7D 1_555 1_555
H3D C8D 1_555 1_555
C9D N5D 1_555 1_555
H4D C9D 1_555 1_555
C10D C7D 1_555 1_555
N6D C10D 1_555 1_555
C11D N6D 1_555 1_555
N7D C11D 1_555 1_555
C12D N7D 1_555 1_555
N8D C10D 1_555 1_555
N9D C13D 1_555 1_555
C13D H5D 1_555 1_555
C14D C13D 1_555 1_555
H6D C14D 1_555 1_555
C15D C11D 1_555 1_555
C16D C15D 1_555 1_555
H7D C16D 1_555 1_555
C17D N9D 1_555 1_555
H8D C17D 1_555 1_555
N10D C18D 1_555 1_555
C18D H9D 1_555 1_555
C19D C18D 1_555 1_555
H10D C19D 1_555 1_555
C20D C12D 1_555 1_555
C21D C20D 1_555 1_555
H11D C21D 1_555 1_555
C22D N10D 1_555 1_555
H12D C22D 1_555 1_555
N11G C23G 1_555 1_555
C23G H13G 1_555 1_555
C24G C23G 1_555 1_555
H14G C24G 1_555 1_555
C25G C24G 1_555 1_555
C26G C25G 1_555 1_555
H15G C26G 1_555 1_555
C27G N11G 1_555 1_555
H16G C27G 1_555 1_555
C28G C25G 1_555 1_555
N12G C28G 1_555 1_555
C29G N12G 1_555 1_555
N13G C29G 1_555 1_555
C30G N13G 1_555 1_555
N14G C28G 1_555 1_555
C31G H17G 1_555 1_555
C32G C31G 1_555 1_555
H18G C32G 1_555 1_555
C33G C29G 1_555 1_555
C34G C33G 1_555 1_555
H19G C34G 1_555 1_555
C35G C34G 1_555 1_555
H20G C35G 1_555 1_555
N15G Co2 1_555 1_555
C36G H21G 1_555 1_555
C37G C36G 1_555 1_555
H22G C37G 1_555 1_555
C38G C30G 1_555 1_555
C39G C38G 1_555 1_555
H23G C39G 1_555 1_555
C40G C39G 1_555 1_555
H24G C40G 1_555 1_555
N16G C36G 1_555 1_555
N4A Co4 1_555 1_555
C4A N4A 1_555 1_555
S1A C4A 1_555 1_555
S1D C4A 1_555 1_555
N1A Co1 1_555 1_555
C1A N1A 1_555 1_555
S2A C1A 1_555 1_555
N2F Co2 1_555 1_555
C2F N2F 1_555 1_555
S4F C2F 1_555 1_555
N3F Co3 1_555 1_555
C3F N3F 1_555 1_555
S3F C3F 1_555 1_555
N2G Co2A 1_555 1_555
C2G N2G 1_555 1_555
S4G C2G 1_555 1_555
N3G Co3A 1_555 1_555
C3G N3G 1_555 1_555
S3G C3G 1_555 1_555
Co1_2 N5A 1_555 1_555
Co2B N15E 1_555 1_555
Co2B_2 N9D 1_555 1_555
Co2C N9E 1_555 1_555
Co3A_2 N11G 1_555 1_555
Co3B N10D 1_555 1_555
Co3C N10E 1_555 1_555
Co4_2 N16A 1_555 1_555
Co4B N16G 1_555 1_555
N5A_2 Co1 1_555 1_555
N9F Co2 1_555 1_555
N9G Co2A 1_555 1_555
N10F Co3 1_555 1_555
N10G Co3A 1_555 1_555
N11F Co3 1_555 1_555
N11G_2 Co3A 1_555 1_555
N15F Co2A 1_555 1_555
N16A_2 Co4 1_555 1_555
N16D Co4 1_555 1_555
C8 C9 1_555 1_555
C12 N8 1_555 1_555
C14 C15 1_555 1_555
C16 C17 1_555 1_555
C19 C20 1_555 1_555
C21 C22 1_555 1_555
C26 C27 1_555 1_555
C30 N14 1_555 1_555
C32 C33 1_555 1_555
C35 N15 1_555 1_555
C36 N16 1_555 1_555
C37 C38 1_555 1_555
C40 N16 1_555 1_555
C45 C46 1_555 1_555
C51 C52 1_555 1_555
C8A C9A 1_555 1_555
C12A N8A 1_555 1_555
C14A C15A 1_555 1_555
C16A C17A 1_555 1_555
C19A C20A 1_555 1_555
C21A C22A 1_555 1_555
C26A C27A 1_555 1_555
C30A N14A 1_555 1_555
C31A N15A 1_555 1_555
C32A C33A 1_555 1_555
C35A N15A 1_555 1_555
C37A C38A 1_555 1_555
C40A N16A 1_555 1_555
C8E C9E 1_555 1_555
C12E N8E 1_555 1_555
C14E C15E 1_555 1_555
C16E C17E 1_555 1_555
C19E C20E 1_555 1_555
C21E C22E 1_555 1_555
N11E Co3C 1_555 1_555
C26E C27E 1_555 1_555
C30E N14E 1_555 1_555
C32E C33E 1_555 1_555
C35E N15E 1_555 1_555
C36E N16E 1_555 1_555
C37E C38E 1_555 1_555
C40E N16E 1_555 1_555
C8D C9D 1_555 1_555
C12D N8D 1_555 1_555
C14D C15D 1_555 1_555
C16D C17D 1_555 1_555
C19D C20D 1_555 1_555
C21D C22D 1_555 1_555
C26G C27G 1_555 1_555
C30G N14G 1_555 1_555
C31G N15G 1_555 1_555
C32G C33G 1_555 1_555
C35G N15G 1_555 1_555
C37G C38G 1_555 1_555
C40G N16G 1_555 1_555
S1A S1D 1_555 1_555

#END
