
#######################################################################
#
#                 Cambridge Crystallographic Data Centre
#                                CCDC 
#
#######################################################################
#
# If this CIF has been generated from an entry in the Cambridge 
# Structural Database, then it will include bibliographic, chemical, 
# crystal, experimental, refinement or atomic coordinate data resulting 
# from the CCDC's data processing and validation procedures.
#
#######################################################################

data_KINMUR
_chemical_formula_moiety         'C20 H12 Cu4 F8 N8 1+'
_symmetry_cell_setting           tetragonal
_symmetry_space_group_name_H-M   'P 42/m m c'
_symmetry_Int_Tables_number      131
_space_group_name_Hall           '-P 4c 2'
loop_
_symmetry_equiv_pos_site_id
_symmetry_equiv_pos_as_xyz
1 x,y,z
2 -y,x,1/2+z
3 -x,-y,z
4 y,-x,1/2+z
5 x,-y,-z
6 y,x,1/2-z
7 -x,y,-z
8 -y,-x,1/2-z
9 -x,-y,-z
10 y,-x,1/2-z
11 x,y,-z
12 -y,x,1/2-z
13 -x,y,z
14 -y,-x,1/2+z
15 x,-y,z
16 y,x,1/2+z
_cell_length_a                   7.3888(2)
_cell_length_b                   7.3888(2)
_cell_length_c                   22.1438(8)
_cell_angle_alpha                90
_cell_angle_beta                 90
_cell_angle_gamma                90
_cell_volume                     1208.93
loop_
_atom_site_label
_atom_site_type_symbol
_atom_site_fract_x
_atom_site_fract_y
_atom_site_fract_z
N2 N 1.0000 0.5000 0.8681(5)
C5 C 0.835(3) 0.5000 0.8273(6)
H1 H 0.7275 0.5000 0.8514
H2 H 0.8372 0.3939 0.8022
C6 C 1.0000 0.6736(11) 0.9054(6)
H3 H 1.0000 0.7764 0.8789
H4 H 0.8939 0.6769 0.9304
C5B C 1.165(3) 0.5000 0.8273(6)
H1B H 1.2725 0.5000 0.8514
H2B H 1.1628 0.6061 0.8022
C6B C 1.0000 0.3264(11) 0.9054(6)
H3B H 1.0000 0.2236 0.8789
H4B H 1.1061 0.3231 0.9304
H2L H 1.1628 0.3939 0.8022
H4L H 1.1061 0.6769 0.9304
H2N H 0.8372 0.6061 0.8022
H4N H 0.8939 0.3231 0.9304
Cu1 Cu 1.0000 1.0000 0.7500
F1 F 0.8115(5) 0.9341(7) 0.94124(14)
N1 N 0.7840(5) 1.0000 0.80295(14)
C1 C 0.6588(6) 1.0000 0.83381(15)
C2 C 0.5000 1.0000 0.8680(2)
C3 C 0.5000 1.0000 0.9345(2)
C4 C 0.6530(6) 0.9626(5) 0.96889(19)
F1B F 0.1885(5) 1.0659(7) 0.94124(14)
N1B N 0.2160(5) 1.0000 0.80295(14)
C1B C 0.3412(6) 1.0000 0.83381(15)
C4B C 0.3470(6) 1.0374(5) 0.96889(19)
F1D F 0.8115(5) 1.0659(7) 1.05876(14)
N1D N 0.7840(5) 1.0000 1.19705(14)
C1D C 0.6588(6) 1.0000 1.16619(15)
C2D C 0.5000 1.0000 1.1320(2)
C3D C 0.5000 1.0000 1.0655(2)
C4D C 0.6530(6) 1.0374(5) 1.03111(19)
F1F F 0.1885(5) 0.9341(7) 1.05876(14)
N1F N 0.2160(5) 1.0000 1.19705(14)
C1F C 0.3412(6) 1.0000 1.16619(15)
C4F C 0.3470(6) 0.9626(5) 1.03111(19)
F1H F 0.1885(5) 1.0659(7) 1.05876(14)
C4H C 0.3470(6) 1.0374(5) 1.03111(19)
F1J F 0.8115(5) 0.9341(7) 1.05876(14)
C4J C 0.6530(6) 0.9626(5) 1.03111(19)
F1L F 0.1885(5) 0.9341(7) 0.94124(14)
C4L C 0.3470(6) 0.9626(5) 0.96889(19)
F1N F 0.8115(5) 1.0659(7) 0.94124(14)
C4N C 0.6530(6) 1.0374(5) 0.96889(19)
Cu1_2 Cu 0.0000 1.0000 0.7500
Cu1A Cu 0.0000 1.0000 1.2500
Cu1A_2 Cu 1.0000 1.0000 1.2500
N1B_2 N 1.2160(5) 1.0000 0.80295(14)
N1E N 1.0000 0.7840(5) 0.69705(14)
N1G N 1.0000 1.2160(5) 0.69705(14)
loop_
_geom_bond_atom_site_label_1
_geom_bond_atom_site_label_2
_geom_bond_site_symmetry_1
_geom_bond_site_symmetry_2
Cu1 N1 1_555 1_555
F1 C4 1_555 1_555
N1 C1 1_555 1_555
C1 C2 1_555 1_555
C2 C3 1_555 1_555
C3 C4 1_555 1_555
C4 C4D 1_555 1_555
N2 C5 1_555 1_555
C5 H1 1_555 1_555
H2 C5 1_555 1_555
C6 N2 1_555 1_555
H3 C6 1_555 1_555
H4 C6 1_555 1_555
F1B C4B 1_555 1_555
N1B C1B 1_555 1_555
C1B C2 1_555 1_555
C4B C3 1_555 1_555
F1D C4D 1_555 1_555
N1D C1D 1_555 1_555
C1D C2D 1_555 1_555
C2D C3D 1_555 1_555
C3D C4D 1_555 1_555
C4D F1J 1_555 1_555
F1F C4F 1_555 1_555
N1F C1F 1_555 1_555
C1F C2D 1_555 1_555
C4F C4B 1_555 1_555
F1H F1F 1_555 1_555
C4H C4B 1_555 1_555
F1J F1D 1_555 1_555
C4J C4 1_555 1_555
F1L F1B 1_555 1_555
C4L C3 1_555 1_555
F1N F1 1_555 1_555
C4N F1 1_555 1_555
Cu1_2 N1B 1_555 1_555
Cu1A N1F 1_555 1_555
Cu1A_2 N1D 1_555 1_555
N1B_2 Cu1 1_555 1_555
N1E Cu1 1_555 1_555
N1G Cu1 1_555 1_555
C5B N2 1_555 1_555
H1B C5B 1_555 1_555
H2B C5B 1_555 1_555
C6B N2 1_555 1_555
H3B C6B 1_555 1_555
H4B C6B 1_555 1_555
H2L C5B 1_555 1_555
H4L C6 1_555 1_555
H2N C5 1_555 1_555
H4N C6B 1_555 1_555
C3 C4N 1_555 1_555
C4 F1N 1_555 1_555
C4 C4N 1_555 1_555
F1B C4L 1_555 1_555
C4B F1L 1_555 1_555
C4B C4L 1_555 1_555
F1D C4J 1_555 1_555
C3D C4F 1_555 1_555
C3D C4H 1_555 1_555
C3D C4J 1_555 1_555
C4D C4J 1_555 1_555
C4D C4N 1_555 1_555
F1F C4H 1_555 1_555
C4F F1H 1_555 1_555
C4F C4H 1_555 1_555
C4F C4L 1_555 1_555
F1H C4H 1_555 1_555
C4H C4L 1_555 1_555
F1J C4J 1_555 1_555
C4J C4N 1_555 1_555
F1L C4L 1_555 1_555
F1N C4N 1_555 1_555

#END
