
#######################################################################
#
#                 Cambridge Crystallographic Data Centre
#                                CCDC 
#
#######################################################################
#
# If this CIF has been generated from an entry in the Cambridge 
# Structural Database, then it will include bibliographic, chemical, 
# crystal, experimental, refinement or atomic coordinate data resulting 
# from the CCDC's data processing and validation procedures.
#
#######################################################################

data_KINNAY
_chemical_formula_moiety         '(C12 Cu1 F4 N4 1-)n'
_symmetry_cell_setting           tetragonal
_symmetry_space_group_name_H-M   'P 42/m m c'
_symmetry_Int_Tables_number      131
_space_group_name_Hall           '-P 4c 2'
loop_
_symmetry_equiv_pos_site_id
_symmetry_equiv_pos_as_xyz
1 x,y,z
2 -x,-y,z
3 -y,x,1/2+z
4 y,-x,1/2+z
5 -x,y,-z
6 x,-y,-z
7 y,x,1/2-z
8 -y,-x,1/2-z
9 -x,-y,-z
10 x,y,-z
11 y,-x,1/2-z
12 -y,x,1/2-z
13 x,-y,z
14 -x,y,z
15 -y,-x,1/2+z
16 y,x,1/2+z
_cell_length_a                   7.4617(3)
_cell_length_b                   7.4617(3)
_cell_length_c                   22.0049(11)
_cell_angle_alpha                90
_cell_angle_beta                 90
_cell_angle_gamma                90
_cell_volume                     1225.17
loop_
_atom_site_label
_atom_site_type_symbol
_atom_site_fract_x
_atom_site_fract_y
_atom_site_fract_z
Cu1 Cu 0.5000 0.5000 0.2500
C1 C 0.5000 0.0000 0.0664(2)
C2 C 0.5000 0.1584(5) 0.16761(17)
N1 N 0.5000 0.2814(5) 0.19817(14)
C3 C 0.5000 0.0000 0.1327(2)
F1 F 0.5000 0.3127(4) 0.05878(12)
C4 C 0.5000 0.1552(5) 0.03149(18)
C2A C 0.5000 -0.1584(5) 0.16761(17)
N1A N 0.5000 -0.2814(5) 0.19817(14)
F1A F 0.5000 -0.3127(4) 0.05878(12)
C4A C 0.5000 -0.1552(5) 0.03149(18)
C1D C 0.5000 -0.0000 -0.0664(2)
C2D C 0.5000 0.1584(5) -0.16761(17)
N1D N 0.5000 0.2814(5) -0.19817(14)
C3D C 0.5000 -0.0000 -0.1327(2)
F1D F 0.5000 0.3127(4) -0.05878(12)
C4D C 0.5000 0.1552(5) -0.03149(18)
C2E C 0.5000 -0.1584(5) -0.16761(17)
N1E N 0.5000 -0.2814(5) -0.19817(14)
F1E F 0.5000 -0.3127(4) -0.05878(12)
C4E C 0.5000 -0.1552(5) -0.03149(18)
Cu1_2 Cu 0.5000 -0.5000 0.2500
Cu1B Cu 0.5000 -0.5000 -0.2500
Cu1B_2 Cu 0.5000 0.5000 -0.2500
N1A_2 N 0.5000 0.7186(5) 0.19817(14)
N1F N 0.2814(5) 0.5000 0.30183(14)
N1G N 0.7186(5) 0.5000 0.30183(14)
loop_
_geom_bond_atom_site_label_1
_geom_bond_atom_site_label_2
_geom_bond_site_symmetry_1
_geom_bond_site_symmetry_2
Cu1 N1 1_555 1_555
C1 C3 1_555 1_555
C2 N1 1_555 1_555
C3 C2 1_555 1_555
F1 C4 1_555 1_555
C4 C1 1_555 1_555
C2A C3 1_555 1_555
N1A C2A 1_555 1_555
F1A C4A 1_555 1_555
C4A C1 1_555 1_555
C1D C3D 1_555 1_555
C2D N1D 1_555 1_555
N1D Cu1B_2 1_555 1_555
C3D C2D 1_555 1_555
F1D C4D 1_555 1_555
C4D C4 1_555 1_555
C2E C3D 1_555 1_555
N1E C2E 1_555 1_555
F1E C4E 1_555 1_555
C4E C4A 1_555 1_555
Cu1_2 N1A 1_555 1_555
Cu1B N1E 1_555 1_555
N1A_2 Cu1 1_555 1_555
N1F Cu1 1_555 1_555
N1G Cu1 1_555 1_555
C1D C4D 1_555 1_555
C1D C4E 1_555 1_555

#END
