
#######################################################################
#
#                 Cambridge Crystallographic Data Centre
#                                CCDC 
#
#######################################################################
#
# If this CIF has been generated from an entry in the Cambridge 
# Structural Database, then it will include bibliographic, chemical, 
# crystal, experimental, refinement or atomic coordinate data resulting 
# from the CCDC's data processing and validation procedures.
#
#######################################################################

data_AQEQES
_chemical_formula_moiety         '(C16 H20 Co1 N2 O9)n'
_symmetry_cell_setting           monoclinic
_symmetry_space_group_name_H-M   'C 2/c'
_symmetry_Int_Tables_number      15
_space_group_name_Hall           '-C 2yc'
loop_
_symmetry_equiv_pos_site_id
_symmetry_equiv_pos_as_xyz
1 x,y,z
2 1/2+x,1/2+y,z
3 x,-y,1/2+z
4 1/2+x,1/2-y,1/2+z
5 -x,-y,-z
6 1/2-x,1/2-y,-z
7 -x,y,1/2-z
8 1/2-x,1/2+y,1/2-z
_cell_length_a                   10.6592(8)
_cell_length_b                   15.6897(9)
_cell_length_c                   11.4088(9)
_cell_angle_alpha                90
_cell_angle_beta                 90.101(6)
_cell_angle_gamma                90
_cell_volume                     1908
loop_
_atom_site_label
_atom_site_type_symbol
_atom_site_fract_x
_atom_site_fract_y
_atom_site_fract_z
_atom_site_U_iso_or_equiv
_atom_site_thermal_displace_type
Co1 Co -0.0000 0.00288(2) 0.2500 0.0129 Uani
O2 O -0.09397(12) -0.06116(8) 0.37420(11) 0.0227 Uani
O3 O -0.16609(14) -0.14022(8) 0.22825(11) 0.0305 Uani
O4 O -0.12625(11) -0.06389(8) 0.65426(11) 0.0225 Uani
O5 O 0.03645(12) -0.14048(8) 0.59206(12) 0.0284 Uani
C1 C -0.1995(2) -0.18976(11) 0.42218(15) 0.0168 Uani
C2 C -0.1685(2) -0.18667(10) 0.54177(15) 0.0161 Uani
C3 C -0.2803(2) -0.25322(11) 0.38299(15) 0.0185 Uani
C4 C -0.1496(2) -0.12669(11) 0.33454(15) 0.0177 Uani
C5 C -0.0773(2) -0.12480(11) 0.59659(15) 0.0179 Uani
H1 H -0.3005(16) -0.2551(11) 0.3001(17) 0.0170 Uiso
C3E C -0.2197(2) -0.24678(11) 0.61701(15) 0.0185 Uani
C1E C -0.3005(2) -0.31024(11) 0.57782(15) 0.0168 Uani
C2E C -0.3315(2) -0.31333(10) 0.45823(15) 0.0161 Uani
C5E C -0.4227(2) -0.37520(11) 0.40341(15) 0.0179 Uani
O4E O -0.37375(11) -0.43611(8) 0.34574(11) 0.0225 Uani
O5E O -0.53645(12) -0.35952(8) 0.40794(12) 0.0284 Uani
C4E C -0.3504(2) -0.37331(11) 0.66546(15) 0.0177 Uani
O2E O -0.40603(12) -0.43884(8) 0.62580(11) 0.0227 Uani
O3E O -0.33391(14) -0.35978(8) 0.77175(11) 0.0305 Uani
H1E H -0.1995(16) -0.2449(11) 0.6999(17) 0.0170 Uiso
O2F O 0.09397(12) -0.06116(8) 0.12580(11) 0.0227 Uani
O4B O -0.12625(11) 0.06389(8) 0.15426(11) 0.0225 Uani
O4D O 0.12625(11) 0.06389(8) 0.34574(11) 0.0225 Uani
Co1B Co 0.0000 -0.00288(2) 0.7500 0.0129 Uani
Co1A Co -0.5000 -0.49712(2) 0.2500 0.0129 Uani
Co1C Co -0.5000 -0.50288(2) 0.7500 0.0129 Uani
O1 O 0.1118(2) 0.27184(11) 0.9307(2) 0.0474 Uani
H10 H 0.1340(30) 0.2449(20) 0.8705(30) 0.0840 Uiso
H11 H 0.0838(29) 0.2367(21) 0.9895(30) 0.0840 Uiso
C6 C 0.3684(2) 0.02076(12) -0.0159(2) 0.0227 Uani
C7 C 0.4204(2) 0.00217(15) 0.1050(2) 0.0285 Uani
C8 C 0.4684(2) 0.05930(14) -0.0939(2) 0.0273 Uani
N1 N 0.2594(2) 0.08054(12) -0.0070(2) 0.0277 Uani
H2 H 0.2903(23) 0.1366(16) 0.0216(22) 0.0510 Uiso
H3 H 0.2233(23) 0.0902(15) -0.0802(24) 0.0510 Uiso
H4 H 0.1965(23) 0.0597(15) 0.0436(23) 0.0510 Uiso
H5 H 0.3400(19) -0.0306(13) -0.0514(19) 0.0310 Uiso
H6 H 0.4493(19) 0.0577(14) 0.1391(19) 0.0310 Uiso
H7 H 0.3556(20) -0.0206(13) 0.1551(19) 0.0310 Uiso
H8 H 0.4952(19) 0.1135(14) -0.0588(19) 0.0310 Uiso
H9 H 0.4342(19) 0.0719(13) -0.1633(20) 0.0310 Uiso
C8D C 0.5316(2) -0.05930(14) 0.0939(2) 0.0273 Uani
C6D C 0.6316(2) -0.02076(12) 0.0159(2) 0.0227 Uani
C7D C 0.5796(2) -0.00217(15) -0.1050(2) 0.0285 Uani
H6D H 0.5507(19) -0.0577(14) -0.1391(19) 0.0310 Uiso
H7D H 0.6444(20) 0.0206(13) -0.1551(19) 0.0310 Uiso
N1D N 0.7406(2) -0.08054(12) 0.0070(2) 0.0277 Uani
H2D H 0.7097(23) -0.1366(16) -0.0216(22) 0.0510 Uiso
H3D H 0.7767(23) -0.0902(15) 0.0802(24) 0.0510 Uiso
H4D H 0.8035(23) -0.0597(15) -0.0436(23) 0.0510 Uiso
H5D H 0.6600(19) 0.0306(13) 0.0514(19) 0.0310 Uiso
H8D H 0.5048(19) -0.1135(14) 0.0588(19) 0.0310 Uiso
H9D H 0.5658(19) -0.0719(13) 0.1633(20) 0.0310 Uiso
loop_
_atom_site_aniso_label
_atom_site_aniso_U_11
_atom_site_aniso_U_22
_atom_site_aniso_U_33
_atom_site_aniso_U_23
_atom_site_aniso_U_13
_atom_site_aniso_U_12
Co1 0.0136(2) 0.0119(2) 0.0133(2) 0.000 0.00019(12) 0.000
O2 0.0283(7) 0.0185(6) 0.0214(7) 0.0025(5) 0.0028(5) -0.0098(5)
O3 0.0468(9) 0.0283(7) 0.0164(7) 0.0029(5) -0.0010(6) -0.0112(6)
O4 0.0243 0.0193 0.024 -0.0063 -0.0036 -0.0047
O5 0.0181 0.0324 0.0346 -0.003 -0.0001 -0.0067
C1 0.0176(9) 0.0141(8) 0.0186(9) 0.0011(7) 0.0014(7) -0.0027(7)
C2 0.0166 0.0135 0.0183 -0.0009 0.0004 -0.0024
C3 0.0222(9) 0.0191(9) 0.0143(9) -0.0011(7) -0.0009(7) -0.0039(7)
C4 0.0176(8) 0.0169(9) 0.0187(9) 0.0007(7) 0.0023(7) -0.0010(7)
C5 0.0221 0.0177 0.014 0.0038 -0.0013 -0.0074
C3E 0.0222 0.0191 0.0143 -0.0011 -0.0009 -0.0039
C1E 0.0176 0.0141 0.0186 0.0011 0.0014 -0.0027
C2E 0.0166(8) 0.0135(8) 0.0183(9) -0.0009(7) 0.0004(7) -0.0024(7)
C5E 0.0221(9) 0.0177(9) 0.0140(8) 0.0038(7) -0.0013(7) -0.0074(7)
O4E 0.0243(7) 0.0193(6) 0.0240(7) -0.0063(5) -0.0036(5) -0.0047(5)
O5E 0.0181(7) 0.0324(8) 0.0346(8) -0.0030(6) -0.0001(6) -0.0067(6)
C4E 0.0176 0.0169 0.0187 0.0007 0.0023 -0.001
O2E 0.0283 0.0185 0.0214 0.0025 0.0028 -0.0098
O3E 0.0468 0.0283 0.0164 0.0029 -0.001 -0.0112
O2F 0.0283 0.0185 0.0214 -0.0025 0.0028 0.0098
O4B 0.0243 0.0193 0.024 0.0063 -0.0036 0.0047
O4D 0.0243 0.0193 0.024 -0.0063 -0.0036 -0.0047
Co1B 0.0136 0.0119 0.0133 0 0.00019 0
Co1A 0.0136 0.0119 0.0133 0 0.00019 0
Co1C 0.0136 0.0119 0.0133 0 0.00019 0
O1 0.0582(11) 0.0348(9) 0.0492(11) -0.0091(8) 0.0081(9) -0.0042(8)
C6 0.0177(9) 0.0261(10) 0.0244(10) -0.0016(8) -0.0003(7) 0.0028(7)
C7 0.0220(10) 0.0419(12) 0.0216(10) 0.0060(9) 0.0061(8) 0.0062(9)
C8 0.0227 0.0368 0.0224 0.0073 0.0027 0.0058
N1 0.0186(8) 0.0395(10) 0.0250(9) 0.0023(8) 0.0012(7) 0.0073(8)
C8D 0.0227(10) 0.0368(12) 0.0224(10) 0.0073(9) 0.0027(8) 0.0058(9)
C6D 0.0177 0.0261 0.0244 -0.0016 -0.0003 0.0028
C7D 0.022 0.0419 0.0216 0.006 0.0061 0.0062
N1D 0.0186 0.0395 0.025 0.0023 0.0012 0.0073
loop_
_geom_bond_atom_site_label_1
_geom_bond_atom_site_label_2
_geom_bond_site_symmetry_1
_geom_bond_site_symmetry_2
Co1 O2 1_555 1_555
O1 H10 1_555 1_555
O2 C4 1_555 1_555
O3 C4 1_555 1_555
O4 C5 1_555 1_555
O5 C5 1_555 1_555
C1 C2 1_555 1_555
C2 C5 1_555 1_555
C3 C1 1_555 1_555
C4 C1 1_555 1_555
C6 C7 1_555 1_555
C7 H6 1_555 1_555
C8 C6 1_555 1_555
N1 C6 1_555 1_555
H1 C3 1_555 1_555
H2 N1 1_555 1_555
H3 N1 1_555 1_555
H4 N1 1_555 1_555
H5 C6 1_555 1_555
H7 C7 1_555 1_555
H8 C8 1_555 1_555
H9 C8 1_555 1_555
H11 O1 1_555 1_555
C3E C2 1_555 1_555
C1E C3E 1_555 1_555
C2E C3 1_555 1_555
C5E C2E 1_555 1_555
O4E C5E 1_555 1_555
O5E C5E 1_555 1_555
C4E C1E 1_555 1_555
O2E C4E 1_555 1_555
O3E C4E 1_555 1_555
H1E C3E 1_555 1_555
C8D C7 1_555 1_555
C6D C8D 1_555 1_555
C7D C8 1_555 1_555
H6D C7D 1_555 1_555
H7D C7D 1_555 1_555
N1D C6D 1_555 1_555
H2D N1D 1_555 1_555
H3D N1D 1_555 1_555
H4D N1D 1_555 1_555
H5D C6D 1_555 1_555
H8D C8D 1_555 1_555
H9D C8D 1_555 1_555
O2F Co1 1_555 1_555
O4B Co1 1_555 1_555
O4D Co1 1_555 1_555
Co1B O4 1_555 1_555
Co1A O4E 1_555 1_555
Co1C O2E 1_555 1_555
C1E C2E 1_555 1_555
C6D C7D 1_555 1_555

#END
