
#######################################################################
#
#                 Cambridge Crystallographic Data Centre
#                                CCDC 
#
#######################################################################
#
# If this CIF has been generated from an entry in the Cambridge 
# Structural Database, then it will include bibliographic, chemical, 
# crystal, experimental, refinement or atomic coordinate data resulting 
# from the CCDC's data processing and validation procedures.
#
#######################################################################

data_AQEQIW
_chemical_formula_moiety         '(C36 H46 N4 O17 Zn2 2-)n'
_symmetry_cell_setting           monoclinic
_symmetry_space_group_name_H-M   'P 21/n'
_symmetry_Int_Tables_number      14
_space_group_name_Hall           '-P 2yn'
loop_
_symmetry_equiv_pos_site_id
_symmetry_equiv_pos_as_xyz
1 x,y,z
2 1/2+x,1/2-y,1/2+z
3 -x,-y,-z
4 1/2-x,1/2+y,1/2-z
_cell_length_a                   10.8778(8)
_cell_length_b                   15.1518(11)
_cell_length_c                   11.6221(10)
_cell_angle_alpha                90
_cell_angle_beta                 96.249(7)
_cell_angle_gamma                90
_cell_volume                     1904.15
loop_
_atom_site_label
_atom_site_type_symbol
_atom_site_fract_x
_atom_site_fract_y
_atom_site_fract_z
N1 N 0.4727(6) -0.1019(4) 0.2913(4)
C1 C 0.5008(21) -0.1536(9) 0.1909(12)
C3 C 0.5470(24) -0.0983(11) 0.0968(14)
C5 C 0.4729(9) -0.0162(5) 0.0535(6)
C5B C 0.5271(9) 0.0162(5) -0.0535(6)
C3B C 0.4530(24) 0.0983(11) -0.0968(14)
C1B C 0.4992(21) 0.1536(9) -0.1909(12)
N1B N 0.5273(6) 0.1019(4) -0.2913(4)
N2 N -0.0205(5) 0.0473(4) 0.2858(4)
C16 C -0.0958(7) 0.0175(5) 0.1773(5)
C17 C -0.1237(13) 0.1018(7) 0.0976(10)
H3 H -0.1856(13) 0.0800(7) 0.0380(10)
H4 H -0.1687(13) 0.1396(7) 0.1457(10)
C18 C -0.0514(14) 0.1691(8) 0.0305(12)
H5 H -0.0199(14) 0.2178(8) 0.0793(12)
H6 H -0.1014(14) 0.1920(8) -0.0372(12)
C19 C 0.0545(15) 0.1088(11) -0.0032(12)
H7 H 0.0829(15) 0.0706(11) 0.0611(12)
H8 H 0.1236(15) 0.1447(11) -0.0216(12)
C20 C -0.0052(15) -0.0520(9) 0.1105(11)
H9 H 0.0306(15) -0.0929(9) 0.1691(11)
H10 H 0.0626(15) -0.0170(9) 0.0874(11)
H11 H 0.0505(36) 0.0750(42) 0.2743(61)
H12 H -0.0638(59) 0.0838(38) 0.3275(53)
H13 H -0.0113(69) -0.0011(27) 0.3311(49)
C20B C 0.0052(15) 0.0520(9) -0.1105(11)
C16B C 0.0958(7) -0.0175(5) -0.1773(5)
N2B N 0.0205(5) -0.0473(4) -0.2858(4)
H11B H -0.0505(36) -0.0750(42) -0.2743(61)
H12B H 0.0638(59) -0.0838(38) -0.3275(53)
H13B H 0.0113(69) 0.0011(27) -0.3311(49)
C17B C 0.1237(13) -0.1018(7) -0.0976(10)
H3B H 0.1856(13) -0.0800(7) -0.0380(10)
H4B H 0.1687(13) -0.1396(7) -0.1457(10)
C18B C 0.0514(14) -0.1691(8) -0.0305(12)
H5B H 0.0199(14) -0.2178(8) -0.0793(12)
H6B H 0.1014(14) -0.1920(8) 0.0372(12)
C19B C -0.0545(15) -0.1088(11) 0.0032(12)
H7B H -0.0829(15) -0.0706(11) -0.0611(12)
H8B H -0.1236(15) -0.1447(11) 0.0216(12)
H9B H -0.0306(15) 0.0929(9) -0.1691(11)
H10B H -0.0626(15) 0.0170(9) -0.0874(11)
O9 O 0.2028(12) -0.0786(7) 0.1829(9)
Zn1 Zn 0.25483(7) 0.01240(3) 0.49878(6)
C6 C 0.4102(5) 0.1755(3) 0.2623(5)
C7 C 0.5364(5) 0.1699(3) 0.2982(5)
C8 C 0.6176(6) 0.2226(4) 0.2451(5)
H1 H 0.7019(6) 0.2174(4) 0.2681(5)
C9 C 0.5785(5) 0.2828(4) 0.1590(5)
C10 C 0.4514(5) 0.2893(3) 0.1249(5)
C11 C 0.3700(5) 0.2352(4) 0.1744(5)
H2 H 0.2861(5) 0.2385(4) 0.1488(5)
C12 C 0.3150(6) 0.1218(4) 0.3159(5)
C13 C 0.5920(5) 0.1144(4) 0.3995(5)
C14 C 0.6717(6) 0.3418(4) 0.1119(5)
C15 C 0.3953(5) 0.3556(4) 0.0373(5)
O1 O 0.3577(4) 0.0621(2) 0.3876(3)
O2 O 0.2045(4) 0.1377(4) 0.2908(5)
O3 O 0.6356(4) 0.0397(3) 0.3736(3)
O4 O 0.6009(4) 0.1474(3) 0.4971(3)
O5 O 0.6306(4) 0.4120(2) 0.0630(3)
O6 O 0.7814(5) 0.3210(4) 0.1236(6)
O7 O 0.3575(4) 0.4259(3) 0.0838(3)
O8 O 0.3818(4) 0.3374(3) -0.0660(3)
C6B C 0.5898(5) -0.1755(3) 0.7377(5)
C7B C 0.4636(5) -0.1699(3) 0.7018(5)
C8B C 0.3824(6) -0.2226(4) 0.7549(5)
H1B H 0.2981(6) -0.2174(4) 0.7319(5)
C9B C 0.4215(5) -0.2828(4) 0.8410(5)
C10B C 0.5486(5) -0.2893(3) 0.8751(5)
C11B C 0.6300(5) -0.2352(4) 0.8256(5)
H2B H 0.7139(5) -0.2385(4) 0.8512(5)
C12B C 0.6850(6) -0.1218(4) 0.6841(5)
C13B C 0.4080(5) -0.1144(4) 0.6005(5)
C14B C 0.3283(6) -0.3418(4) 0.8881(5)
C15B C 0.6047(5) -0.3556(4) 0.9627(5)
O1B O 0.6423(4) -0.0621(2) 0.6124(3)
O2B O 0.7955(4) -0.1377(4) 0.7092(5)
O3B O 0.3644(4) -0.0397(3) 0.6264(3)
O4B O 0.3991(4) -0.1474(3) 0.5029(3)
O5B O 0.3694(4) -0.4120(2) 0.9370(3)
O6B O 0.2186(5) -0.3210(4) 0.8764(6)
O7B O 0.6425(4) -0.4259(3) 0.9162(3)
O8B O 0.6182(4) -0.3374(3) 1.0660(3)
Zn1B Zn 0.74517(7) -0.01240(3) 0.50122(6)
O5A O 0.1306(4) 0.0880(2) 0.5630(3)
O7C O 0.1425(4) -0.0741(3) 0.4162(3)
Zn1A Zn 0.75483(7) 0.48760(3) -0.00122(6)
Zn1C Zn 0.24517(7) 0.51240(3) 0.00122(6)
Zn1C_2 Zn 0.24517(7) -0.48760(3) 1.00122(6)
Zn1A_2 Zn 0.75483(7) -0.51240(3) 0.99878(6)
O5C O 0.8694(4) -0.0880(2) 0.4370(3)
O7A O 0.8575(4) 0.0741(3) 0.5838(3)
loop_
_geom_bond_atom_site_label_1
_geom_bond_atom_site_label_2
_geom_bond_site_symmetry_1
_geom_bond_site_symmetry_2
Zn1 O1 1_555 1_555
N1 C1 1_555 1_555
C1 C3 1_555 1_555
C3 C5 1_555 1_555
C5 C5B 1_555 1_555
C6 C7 1_555 1_555
C7 C8 1_555 1_555
C8 H1 1_555 1_555
C9 C8 1_555 1_555
C10 C9 1_555 1_555
C11 C6 1_555 1_555
H2 C11 1_555 1_555
C12 C6 1_555 1_555
C13 C7 1_555 1_555
C14 C9 1_555 1_555
C15 C10 1_555 1_555
O1 C12 1_555 1_555
O2 C12 1_555 1_555
O3 C13 1_555 1_555
O4 C13 1_555 1_555
O5 C14 1_555 1_555
O6 C14 1_555 1_555
O7 C15 1_555 1_555
O8 C15 1_555 1_555
N2 C16 1_555 1_555
C16 C17 1_555 1_555
C17 H3 1_555 1_555
H4 C17 1_555 1_555
C18 C17 1_555 1_555
H5 C18 1_555 1_555
H6 C18 1_555 1_555
C19 C18 1_555 1_555
H7 C19 1_555 1_555
H8 C19 1_555 1_555
C20 C16 1_555 1_555
H9 C20 1_555 1_555
H10 C20 1_555 1_555
H11 N2 1_555 1_555
H12 N2 1_555 1_555
H13 N2 1_555 1_555
C5B C3B 1_555 1_555
C3B C1B 1_555 1_555
C1B N1B 1_555 1_555
C20B C19 1_555 1_555
C16B C20B 1_555 1_555
N2B C16B 1_555 1_555
H11B N2B 1_555 1_555
H12B N2B 1_555 1_555
H13B N2B 1_555 1_555
C17B C16B 1_555 1_555
H3B C17B 1_555 1_555
H4B C17B 1_555 1_555
C18B C17B 1_555 1_555
H5B C18B 1_555 1_555
H6B C18B 1_555 1_555
C19B C20 1_555 1_555
H7B C19B 1_555 1_555
H8B C19B 1_555 1_555
H9B C20B 1_555 1_555
H10B C20B 1_555 1_555
C6B C7B 1_555 1_555
C7B C8B 1_555 1_555
C8B H1B 1_555 1_555
C9B C8B 1_555 1_555
C10B C9B 1_555 1_555
C11B C6B 1_555 1_555
H2B C11B 1_555 1_555
C12B C6B 1_555 1_555
C13B C7B 1_555 1_555
C14B C9B 1_555 1_555
C15B C10B 1_555 1_555
O1B C12B 1_555 1_555
O2B C12B 1_555 1_555
O3B Zn1 1_555 1_555
O4B C13B 1_555 1_555
O5B C14B 1_555 1_555
O6B C14B 1_555 1_555
O7B C15B 1_555 1_555
O8B C15B 1_555 1_555
Zn1B O3 1_555 1_555
O5A Zn1 1_555 1_555
O7C Zn1 1_555 1_555
Zn1A O5 1_555 1_555
Zn1C O7 1_555 1_555
Zn1C_2 O5B 1_555 1_555
Zn1A_2 O7B 1_555 1_555
O5C Zn1B 1_555 1_555
O7A Zn1B 1_555 1_555
C10 C11 1_555 1_555
C18B C19B 1_555 1_555
C10B C11B 1_555 1_555
C13B O3B 1_555 1_555
O1B Zn1B 1_555 1_555

#END
