
#######################################################################
#
#                 Cambridge Crystallographic Data Centre
#                                CCDC 
#
#######################################################################
#
# If this CIF has been generated from an entry in the Cambridge 
# Structural Database, then it will include bibliographic, chemical, 
# crystal, experimental, refinement or atomic coordinate data resulting 
# from the CCDC's data processing and validation procedures.
#
#######################################################################

data_OSOTUN
_chemical_formula_moiety         '(C204 H112 N24 O28 Zn14)n'
_symmetry_cell_setting           rhombohedral
_symmetry_space_group_name_H-M   'R -3 c'
_symmetry_Int_Tables_number      167
_space_group_name_Hall           '-R 3 2"c'
loop_
_symmetry_equiv_pos_site_id
_symmetry_equiv_pos_as_xyz
1 x,y,z
2 -y,x-y,z
3 -x+y,-x,z
4 y,x,1/2-z
5 x-y,-y,1/2-z
6 -x,-x+y,1/2-z
7 2/3+x,1/3+y,1/3+z
8 2/3-y,1/3+x-y,1/3+z
9 2/3-x+y,1/3-x,1/3+z
10 2/3+y,1/3+x,5/6-z
11 2/3+x-y,1/3-y,5/6-z
12 2/3-x,1/3-x+y,5/6-z
13 1/3+x,2/3+y,2/3+z
14 1/3-y,2/3+x-y,2/3+z
15 1/3-x+y,2/3-x,2/3+z
16 1/3+y,2/3+x,1/6-z
17 1/3+x-y,2/3-y,1/6-z
18 1/3-x,2/3-x+y,1/6-z
19 -x,-y,-z
20 y,-x+y,-z
21 x-y,x,-z
22 -y,-x,1/2+z
23 -x+y,y,1/2+z
24 x,x-y,1/2+z
25 1/3-x,2/3-y,2/3-z
26 1/3+y,2/3-x+y,2/3-z
27 1/3+x-y,2/3+x,2/3-z
28 1/3-y,2/3-x,1/6+z
29 1/3-x+y,2/3+y,1/6+z
30 1/3+x,2/3+x-y,1/6+z
31 2/3-x,1/3-y,1/3-z
32 2/3+y,1/3-x+y,1/3-z
33 2/3+x-y,1/3+x,1/3-z
34 2/3-y,1/3-x,5/6+z
35 2/3-x+y,1/3+y,5/6+z
36 2/3+x,1/3+x-y,5/6+z
_cell_length_a                   34.7050(9)
_cell_length_b                   34.7050(9)
_cell_length_c                   37.9023(12)
_cell_angle_alpha                90
_cell_angle_beta                 90
_cell_angle_gamma                120
_cell_volume                     39534.9
loop_
_atom_site_label
_atom_site_type_symbol
_atom_site_fract_x
_atom_site_fract_y
_atom_site_fract_z
Zn1 Zn 0.27186(3) 0.63558(3) 0.52838(2)
O1 O 0.3333 0.6667 0.5439(2)
O2 O 0.2610(2) 0.6753(2) 0.49798(18)
O3 O 0.3249(4) 0.7404(2) 0.49929(19)
O4 O 0.2298(3) 0.6225(2) 0.56749(17)
Zn2 Zn 0.3333 0.6667 0.59474(5)
C1 C 0.2865(4) 0.7160(4) 0.4901(3)
C2 C 0.2382(5) 0.6316(4) 0.6003(3)
O5 O 0.2761(4) 0.6477(3) 0.61431(17)
C3 C 0.2636(4) 0.7326(3) 0.4650(3)
C4 C 0.2018(6) 0.6219(4) 0.6244(3)
C5 C 0.2886(3) 0.7764(4) 0.4530(3)
C6 C 0.2208(4) 0.7073(4) 0.4539(3)
C7 C 0.1593(7) 0.6080(5) 0.6126(3)
C8 C 0.2072(6) 0.6254(4) 0.6588(3)
H1 H 0.3181 0.7939 0.4601
C9 C 0.2692(4) 0.7941(4) 0.4298(3)
C10 C 0.2042(4) 0.7262(3) 0.4314(3)
H2 H 0.2034 0.6780 0.4613
H3 H 0.1538 0.6076 0.5885
C11 C 0.1246(7) 0.5945(5) 0.6362(3)
C12 C 0.1720(7) 0.6138(5) 0.6821(4)
H4 H 0.2356 0.6361 0.6680
H5 H 0.2858 0.8235 0.4223
C13 C 0.2271(3) 0.7688(4) 0.4188(3)
H6 H 0.1749 0.7086 0.4240
H7 H 0.0960 0.5827 0.6272
C14 C 0.1293(6) 0.5972(4) 0.6703(3)
H8 H 0.1776 0.6173 0.7062
C15 C 0.2098(4) 0.7890(3) 0.3926(3)
C16 C 0.0908(7) 0.5798(5) 0.6932(3)
C17 C 0.1805(4) 0.8020(3) 0.4053(3)
C18 C 0.2231(4) 0.7932(3) 0.3582(3)
C19 C 0.0742(7) 0.6056(5) 0.7057(3)
C20 C 0.0741(8) 0.5359(6) 0.7041(3)
N1 N 0.1595(3) 0.8198(3) 0.3848(2)
C21 C 0.1642(4) 0.7975(4) 0.4423(3)
N2 N 0.2105(3) 0.8104(3) 0.3322(2)
C22 C 0.2518(4) 0.7795(5) 0.3457(3)
C23 C 0.0952(8) 0.6545(5) 0.6968(5)
N3 N 0.0396(5) 0.5947(3) 0.7279(3)
N4 N 0.0365(4) 0.5100(3) 0.7265(2)
C24 C 0.0884(8) 0.5027(6) 0.6940(4)
C25 C 0.1322(5) 0.8247(5) 0.4065(3)
Zn3 Zn 0.1667 0.8333 0.3333
C26 C 0.1351(5) 0.8131(5) 0.4433(3)
H9 H 0.1724 0.7861 0.4612
C27 C 0.2315(5) 0.8078(5) 0.3010(3)
H10 H 0.2645 0.7660 0.3587
C28 C 0.2578(5) 0.7893(5) 0.3109(4)
C29 C 0.0686(8) 0.6678(5) 0.7097(5)
H11 H 0.1217 0.6717 0.6847
C30 C 0.0339(9) 0.6305(5) 0.7321(5)
Zn4 Zn 0.00000(10) 0.53267(7) 0.7500
C31 C 0.0340(6) 0.4698(5) 0.7296(4)
C32 C 0.0643(7) 0.4641(5) 0.7093(4)
H12 H 0.1118 0.5091 0.6787
C33 C 0.1059(5) 0.8441(5) 0.3971(3)
H13 H 0.1204 0.8158 0.4629
H14 H 0.2764 0.7847 0.2960
H15 H 0.0708 0.6953 0.7058
C34 C 0.0000(10) 0.6314(7) 0.7500
C35 C 0.0000(8) 0.4372(6) 0.7500
H16 H 0.0669 0.4388 0.7071
H17 H 0.0893 0.8467 0.4152
H18 H 0.0000 0.6582 0.7500
H19 H 0.0000 0.4104 0.7500
O2X O 0.0723(2) 0.9914(2) 0.16869(18)
O3X O 0.0084(4) 0.9263(2) 0.16738(19)
C1X C 0.0468(4) 0.9507(4) 0.1766(3)
C3X C 0.0697(4) 0.9341(3) 0.2017(3)
C5X C 0.0447(3) 0.8903(4) 0.2137(3)
C6X C 0.1125(4) 0.9594(4) 0.2128(3)
H1X H 0.0152 0.8728 0.2066
C9X C 0.0641(4) 0.8726(4) 0.2369(3)
C10X C 0.1291(4) 0.9405(3) 0.2353(3)
H2X H 0.1299 0.9887 0.2054
H5X H 0.0475 0.8432 0.2444
C13X C 0.1062(3) 0.8979(4) 0.2479(3)
H6X H 0.1584 0.9581 0.2427
C15X C 0.1235(4) 0.8777(3) 0.2741(3)
C17X C 0.1528(4) 0.8647(3) 0.2614(3)
C18X C 0.1102(4) 0.8735(3) 0.3085(3)
N1X N 0.1738(3) 0.8469(3) 0.2819(2)
C21X C 0.1691(4) 0.8692(4) 0.2244(3)
N2X N 0.1228(3) 0.8563(3) 0.3345(2)
C22X C 0.0815(4) 0.8872(5) 0.3210(3)
C25X C 0.2011(5) 0.8420(5) 0.2602(3)
C26X C 0.1982(5) 0.8536(5) 0.2234(3)
H9X H 0.1609 0.8806 0.2055
C27X C 0.1018(5) 0.8589(5) 0.3657(3)
H10X H 0.0688 0.9007 0.3080
C28X C 0.0755(5) 0.8774(5) 0.3558(4)
C33X C 0.2274(5) 0.8226(5) 0.2696(3)
H13X H 0.2129 0.8509 0.2038
H14X H 0.0569 0.8820 0.3707
H17X H 0.2440 0.8200 0.2515
O4E O -0.2298(3) 0.3927(4) 0.93251(17)
C2E C -0.2382(5) 0.3934(6) 0.8997(3)
O5E O -0.2761(4) 0.3716(5) 0.88569(17)
C4E C -0.2018(6) 0.4201(7) 0.8756(3)
C7E C -0.1593(7) 0.4487(9) 0.8874(3)
C8E C -0.2072(6) 0.4182(7) 0.8412(3)
H3E H -0.1538 0.4538 0.9115
C11E C -0.1246(7) 0.4699(9) 0.8638(3)
C12E C -0.1720(7) 0.4418(9) 0.8179(4)
H4E H -0.2356 0.4005 0.8320
H7E H -0.0960 0.4867 0.8728
C14E C -0.1293(6) 0.4679(7) 0.8297(3)
H8E H -0.1776 0.4397 0.7938
C16E C -0.0908(7) 0.4890(9) 0.8068(3)
C19E C -0.0742(7) 0.5314(9) 0.7943(3)
C20E C -0.0741(8) 0.4618(10) 0.7959(3)
C23E C -0.0952(8) 0.5593(9) 0.8032(5)
N3E N -0.0396(5) 0.5551(6) 0.7721(3)
N4E N -0.0365(4) 0.4735(5) 0.7735(2)
C24E C -0.0884(8) 0.4143(10) 0.8060(4)
C29E C -0.0686(8) 0.5992(9) 0.7903(5)
H11E H -0.1217 0.5500 0.8153
C30E C -0.0339(9) 0.5966(10) 0.7679(5)
C31E C -0.0340(6) 0.4358(8) 0.7704(4)
C32E C -0.0643(7) 0.3998(9) 0.7907(4)
H12E H -0.1118 0.3973 0.8213
H15E H -0.0708 0.6245 0.7942
H16E H -0.0669 0.3719 0.7929
Zn1A Zn 0.36442(3) 0.63628(4) 0.52838(2)
O2A O 0.3247(2) 0.5857(3) 0.49798(18)
O3A O 0.2596(2) 0.5845(4) 0.49929(19)
O4A O 0.3775(2) 0.6073(4) 0.56749(17)
C1A C 0.2840(4) 0.5705(6) 0.4901(3)
C2A C 0.3684(4) 0.6066(6) 0.6003(3)
O5A O 0.3523(3) 0.6284(5) 0.61431(17)
C3A C 0.2674(3) 0.5310(5) 0.4650(3)
C4A C 0.3781(4) 0.5799(7) 0.6244(3)
C5A C 0.2236(4) 0.5122(5) 0.4530(3)
C6A C 0.2927(4) 0.5135(6) 0.4539(3)
C7A C 0.3920(5) 0.5513(9) 0.6126(3)
C8A C 0.3746(4) 0.5818(7) 0.6588(3)
H1A H 0.2061 0.5242 0.4601
C9A C 0.2059(4) 0.4751(6) 0.4298(3)
C10A C 0.2738(3) 0.4780(5) 0.4314(3)
H2A H 0.3220 0.5254 0.4613
H3A H 0.3924 0.5462 0.5885
C11A C 0.4055(5) 0.5301(9) 0.6362(3)
C12A C 0.3862(5) 0.5582(9) 0.6821(4)
H4A H 0.3639 0.5995 0.6680
H5A H 0.1765 0.4623 0.4223
C13A C 0.2312(4) 0.4583(5) 0.4188(3)
H6A H 0.2914 0.4663 0.4240
H7A H 0.4173 0.5133 0.6272
C14A C 0.4028(4) 0.5321(7) 0.6703(3)
H8A H 0.3827 0.5603 0.7062
C15A C 0.2110(3) 0.4208(5) 0.3926(3)
C16A C 0.4202(5) 0.5110(9) 0.6932(3)
C17A C 0.1980(3) 0.3785(5) 0.4053(3)
C18A C 0.2068(3) 0.4299(5) 0.3582(3)
C19A C 0.3944(5) 0.4686(9) 0.7057(3)
C20A C 0.4641(6) 0.5382(10) 0.7041(3)
N1A N 0.1802(3) 0.3397(4) 0.3848(2)
C21A C 0.2025(4) 0.3667(6) 0.4423(3)
N2A N 0.1896(3) 0.4001(4) 0.3322(2)
C22A C 0.2205(5) 0.4723(6) 0.3457(3)
C23A C 0.3455(5) 0.4407(9) 0.6968(5)
N3A N 0.4053(3) 0.4449(6) 0.7279(3)
N4A N 0.4900(3) 0.5265(5) 0.7265(2)
C24A C 0.4973(6) 0.5857(10) 0.6940(4)
C25A C 0.1753(5) 0.3075(7) 0.4065(3)
Zn3A Zn 0.1667 0.3334 0.3333
C26A C 0.1869(5) 0.3220(7) 0.4433(3)
H9A H 0.2139 0.3863 0.4612
C27A C 0.1922(5) 0.4237(7) 0.3010(3)
H10A H 0.2340 0.4985 0.3587
C28A C 0.2107(5) 0.4685(7) 0.3109(4)
C29A C 0.3322(5) 0.4008(9) 0.7097(5)
H11A H 0.3283 0.4500 0.6847
C30A C 0.3695(5) 0.4034(10) 0.7321(5)
Zn4A Zn 0.46733(7) 0.46733(12) 0.7500
C31A C 0.5302(5) 0.5642(8) 0.7296(4)
C32A C 0.5359(5) 0.6002(9) 0.7093(4)
H12A H 0.4909 0.6027 0.6787
C33A C 0.1559(5) 0.2618(7) 0.3971(3)
H13A H 0.1842 0.3046 0.4629
H14A H 0.2153 0.4917 0.2960
H15A H 0.3047 0.3755 0.7058
C34A C 0.3686(7) 0.3686(12) 0.7500
C35A C 0.5628(6) 0.5628(10) 0.7500
H16A H 0.5612 0.6281 0.7071
H17A H 0.1533 0.2426 0.4152
H18A H 0.3418 0.3418 0.7500
H19A H 0.5896 0.5896 0.7500
O2Y O 0.0086(2) 0.0810(3) 0.16869(18)
O3Y O 0.0737(2) 0.0822(4) 0.16738(19)
C1Y C 0.0493(4) 0.0962(6) 0.1766(3)
C3Y C 0.0659(3) 0.1357(5) 0.2017(3)
C5Y C 0.1097(4) 0.1545(5) 0.2137(3)
C6Y C 0.0406(4) 0.1532(6) 0.2128(3)
H1Y H 0.1272 0.1425 0.2066
C9Y C 0.1274(4) 0.1916(6) 0.2369(3)
C10Y C 0.0595(3) 0.1887(5) 0.2353(3)
H2Y H 0.0113 0.1413 0.2054
H5Y H 0.1568 0.2044 0.2444
C13Y C 0.1021(4) 0.2084(5) 0.2479(3)
H6Y H 0.0419 0.2004 0.2427
C15Y C 0.1223(3) 0.2459(5) 0.2741(3)
C17Y C 0.1353(3) 0.2882(5) 0.2614(3)
C18Y C 0.1265(3) 0.2368(5) 0.3085(3)
N1Y N 0.1531(3) 0.3270(4) 0.2819(2)
C21Y C 0.1308(4) 0.3000(6) 0.2244(3)
N2Y N 0.1437(3) 0.2666(4) 0.3345(2)
C22Y C 0.1128(5) 0.1944(6) 0.3210(3)
C25Y C 0.1580(5) 0.3592(7) 0.2602(3)
C26Y C 0.1464(5) 0.3447(7) 0.2234(3)
H9Y H 0.1194 0.2804 0.2055
C27Y C 0.1411(5) 0.2430(7) 0.3657(3)
H10Y H 0.0993 0.1682 0.3080
C28Y C 0.1226(5) 0.1982(7) 0.3558(4)
C33Y C 0.1774(5) 0.4049(7) 0.2696(3)
H13Y H 0.1491 0.3621 0.2038
H14Y H 0.1180 0.1750 0.3707
H17Y H 0.1800 0.4241 0.2515
O4D O 0.6073(4) 0.3775(2) 0.93251(17)
C2D C 0.6066(6) 0.3684(4) 0.8997(3)
O5D O 0.6284(5) 0.3523(3) 0.88569(17)
C4D C 0.5799(7) 0.3781(4) 0.8756(3)
C7D C 0.5513(9) 0.3920(5) 0.8874(3)
C8D C 0.5818(7) 0.3746(4) 0.8412(3)
H3D H 0.5462 0.3924 0.9115
C11D C 0.5301(9) 0.4055(5) 0.8638(3)
C12D C 0.5582(9) 0.3862(5) 0.8179(4)
H4D H 0.5995 0.3639 0.8320
H7D H 0.5133 0.4173 0.8728
C14D C 0.5321(7) 0.4028(4) 0.8297(3)
H8D H 0.5603 0.3827 0.7938
C16D C 0.5110(9) 0.4202(5) 0.8068(3)
C19D C 0.4686(9) 0.3944(5) 0.7943(3)
C20D C 0.5382(10) 0.4641(6) 0.7959(3)
C23D C 0.4407(9) 0.3455(5) 0.8032(5)
N3D N 0.4449(6) 0.4053(3) 0.7721(3)
N4D N 0.5265(5) 0.4900(3) 0.7735(2)
C24D C 0.5857(10) 0.4973(6) 0.8060(4)
C29D C 0.4008(9) 0.3322(5) 0.7903(5)
H11D H 0.4500 0.3283 0.8153
C30D C 0.4034(10) 0.3695(5) 0.7679(5)
C31D C 0.5642(8) 0.5302(5) 0.7704(4)
C32D C 0.6002(9) 0.5359(5) 0.7907(4)
H12D H 0.6027 0.4909 0.8213
H15D H 0.3755 0.3047 0.7942
H16D H 0.6281 0.5612 0.7929
Zn1B Zn 0.36372(4) 0.72814(3) 0.52838(2)
O2B O 0.4143(3) 0.7390(2) 0.49798(18)
O3B O 0.4155(4) 0.6751(4) 0.49929(19)
O4B O 0.3927(4) 0.7702(3) 0.56749(17)
C1B C 0.4295(6) 0.7135(4) 0.4901(3)
C2B C 0.3934(6) 0.7618(5) 0.6003(3)
O5B O 0.3716(5) 0.7239(4) 0.61431(17)
C3B C 0.4690(5) 0.7364(4) 0.4650(3)
C4B C 0.4201(7) 0.7982(6) 0.6244(3)
C5B C 0.4878(5) 0.7114(3) 0.4530(3)
C6B C 0.4865(6) 0.7792(4) 0.4539(3)
C7B C 0.4487(9) 0.8407(7) 0.6126(3)
C8B C 0.4182(7) 0.7928(6) 0.6588(3)
H1B H 0.4758 0.6819 0.4601
C9B C 0.5249(6) 0.7308(4) 0.4298(3)
C10B C 0.5220(5) 0.7958(4) 0.4314(3)
H2B H 0.4746 0.7966 0.4613
H3B H 0.4538 0.8462 0.5885
C11B C 0.4699(9) 0.8754(7) 0.6362(3)
C12B C 0.4418(9) 0.8280(7) 0.6821(4)
H4B H 0.4005 0.7644 0.6680
H5B H 0.5377 0.7142 0.4223
C13B C 0.5417(5) 0.7729(3) 0.4188(3)
H6B H 0.5337 0.8251 0.4240
H7B H 0.4867 0.9040 0.6272
C14B C 0.4679(7) 0.8707(6) 0.6703(3)
H8B H 0.4397 0.8224 0.7062
C15B C 0.5792(5) 0.7902(4) 0.3926(3)
C16B C 0.4890(9) 0.9092(7) 0.6932(3)
C17B C 0.6215(5) 0.8195(4) 0.4053(3)
C18B C 0.5701(5) 0.7769(4) 0.3582(3)
C19B C 0.5314(9) 0.9258(7) 0.7057(3)
C20B C 0.4618(10) 0.9259(8) 0.7041(3)
N1B N 0.6603(4) 0.8405(3) 0.3848(2)
C21B C 0.6333(6) 0.8358(4) 0.4423(3)
N2B N 0.5999(4) 0.7895(3) 0.3322(2)
C22B C 0.5277(6) 0.7482(4) 0.3457(3)
C23B C 0.5593(9) 0.9048(8) 0.6968(5)
N3B N 0.5551(6) 0.9604(5) 0.7279(3)
N4B N 0.4735(5) 0.9635(4) 0.7265(2)
C24B C 0.4143(10) 0.9116(8) 0.6940(4)
C25B C 0.6925(7) 0.8678(5) 0.4065(3)
Zn3B Zn 0.6666 0.8333 0.3333
C26B C 0.6780(7) 0.8649(5) 0.4433(3)
H9B H 0.6137 0.8276 0.4612
C27B C 0.5763(7) 0.7685(5) 0.3010(3)
H10B H 0.5015 0.7355 0.3587
C28B C 0.5315(7) 0.7422(5) 0.3109(4)
C29B C 0.5992(9) 0.9314(8) 0.7097(5)
H11B H 0.5500 0.8783 0.6847
C30B C 0.5966(10) 0.9661(9) 0.7321(5)
Zn4B Zn 0.53267(12) 1.00000(10) 0.7500
C31B C 0.4358(8) 0.9660(6) 0.7296(4)
C32B C 0.3998(9) 0.9357(7) 0.7093(4)
H12B H 0.3973 0.8882 0.6787
C33B C 0.7382(7) 0.8941(5) 0.3971(3)
H13B H 0.6954 0.8796 0.4629
H14B H 0.5083 0.7236 0.2960
H15B H 0.6245 0.9292 0.7058
C34B C 0.6314(12) 1.0000(10) 0.7500
C35B C 0.4372(10) 1.0000(8) 0.7500
H16B H 0.3719 0.9331 0.7071
H17B H 0.7574 0.9107 0.4152
H18B H 0.6582 1.0000 0.7500
H19B H 0.4104 1.0000 0.7500
O2Z O 0.9190(3) 0.9277(2) 0.16869(18)
O3Z O 0.9178(4) 0.9916(4) 0.16738(19)
C1Z C 0.9038(6) 0.9532(4) 0.1766(3)
C3Z C 0.8643(5) 0.9303(4) 0.2017(3)
C5Z C 0.8455(5) 0.9553(3) 0.2137(3)
C6Z C 0.8468(6) 0.8875(4) 0.2128(3)
H1Z H 0.8575 0.9848 0.2066
C9Z C 0.8084(6) 0.9359(4) 0.2369(3)
C10Z C 0.8113(5) 0.8709(4) 0.2353(3)
H2Z H 0.8587 0.8701 0.2054
H5Z H 0.7956 0.9525 0.2444
C13Z C 0.7916(5) 0.8938(3) 0.2479(3)
H6Z H 0.7996 0.8416 0.2427
C15Z C 0.7541(5) 0.8765(4) 0.2741(3)
C17Z C 0.7118(5) 0.8472(4) 0.2614(3)
C18Z C 0.7632(5) 0.8898(4) 0.3085(3)
N1Z N 0.6730(4) 0.8262(3) 0.2819(2)
C21Z C 0.7000(6) 0.8309(4) 0.2244(3)
N2Z N 0.7334(4) 0.8772(3) 0.3345(2)
C22Z C 0.8056(6) 0.9185(4) 0.3210(3)
C25Z C 0.6408(7) 0.7989(5) 0.2602(3)
C26Z C 0.6553(7) 0.8018(5) 0.2234(3)
H9Z H 0.7196 0.8391 0.2055
C27Z C 0.7570(7) 0.8982(5) 0.3657(3)
H10Z H 0.8318 0.9312 0.3080
C28Z C 0.8018(7) 0.9245(5) 0.3558(4)
C33Z C 0.5951(7) 0.7726(5) 0.2696(3)
H13Z H 0.6379 0.7871 0.2038
H14Z H 0.8250 0.9431 0.3707
H17Z H 0.5759 0.7560 0.2515
O4C O 0.6225(2) 1.2298(3) 0.93251(17)
C2C C 0.6316(4) 1.2382(5) 0.8997(3)
O5C O 0.6477(3) 1.2761(4) 0.88569(17)
C4C C 0.6219(4) 1.2018(6) 0.8756(3)
C7C C 0.6080(5) 1.1593(7) 0.8874(3)
C8C C 0.6254(4) 1.2072(6) 0.8412(3)
H3C H 0.6076 1.1538 0.9115
C11C C 0.5945(5) 1.1246(7) 0.8638(3)
C12C C 0.6138(5) 1.1720(7) 0.8179(4)
H4C H 0.6361 1.2356 0.8320
H7C H 0.5827 1.0960 0.8728
C14C C 0.5972(4) 1.1293(6) 0.8297(3)
H8C H 0.6173 1.1776 0.7938
C16C C 0.5798(5) 1.0908(7) 0.8068(3)
C19C C 0.6056(5) 1.0742(7) 0.7943(3)
C20C C 0.5359(6) 1.0741(8) 0.7959(3)
C23C C 0.6545(5) 1.0952(8) 0.8032(5)
N3C N 0.5947(3) 1.0396(5) 0.7721(3)
N4C N 0.5100(3) 1.0365(4) 0.7735(2)
C24C C 0.5027(6) 1.0884(8) 0.8060(4)
C29C C 0.6678(5) 1.0686(8) 0.7903(5)
H11C H 0.6717 1.1217 0.8153
C30C C 0.6305(5) 1.0339(9) 0.7679(5)
C31C C 0.4698(5) 1.0340(6) 0.7704(4)
C32C C 0.4641(5) 1.0643(7) 0.7907(4)
H12C H 0.5091 1.1118 0.8213
H15C H 0.6953 1.0708 0.7942
H16C H 0.4388 1.0669 0.7929
Zn1X Zn 0.06147(3) 1.03109(3) 0.13829(2)
O1X O 0.0000 1.0000 0.1228(2)
Zn2X Zn 0.0000 1.0000 0.07193(5)
Zn1Y Zn -0.03109(3) 0.03039(4) 0.13829(2)
Zn1Z Zn -0.03039(4) 0.93853(3) 0.13829(2)
Zn1C Zn 0.63558(3) 1.27186(3) 0.97162(2)
Zn1D Zn 0.63628(4) 0.36442(3) 0.97162(2)
Zn1E Zn -0.27186(3) 0.36372(4) 0.97162(2)
Zn1X_2 Zn 0.06147(3) 0.03109(3) 0.13829(2)
Zn1Y_2 Zn -0.03109(3) 1.03039(4) 0.13829(2)
Zn1Y_3 Zn 0.96891(3) 1.03039(4) 0.13829(2)
Zn1Z_2 Zn 0.96961(4) 0.93853(3) 0.13829(2)
O1X_2 O 0.0000 -0.0000 0.1228(2)
O2Z_2 O -0.0810(3) 0.9277(2) 0.16869(18)
O3Y_2 O 0.0737(2) 1.0822(4) 0.16738(19)
O3Z_2 O -0.0822(4) -0.0084(4) 0.16738(19)
O4X O 0.1035(3) 1.0442(2) 0.09918(17)
O4Y O -0.0442(2) 0.0594(4) 0.09918(17)
O4Z O -0.0594(4) 0.8965(3) 0.09918(17)
Zn2C Zn -0.3333 0.3333 0.90526(5)
Zn2C_2 Zn 0.6667 0.3333 0.90526(5)
Zn2C_3 Zn 0.6667 1.3333 0.90526(5)
O5X O 0.0572(4) 1.0190(3) 0.05236(17)
O5Y O -0.0190(3) 1.0383(5) 0.05236(17)
O5Z O -0.0383(5) 0.9428(4) 0.05236(17)
O6 O -0.0501(11) 0.5138(9) 0.6969(5)
O7 O 0.2257(6) 0.9156(8) 0.3477(6)
loop_
_geom_bond_atom_site_label_1
_geom_bond_atom_site_label_2
_geom_bond_site_symmetry_1
_geom_bond_site_symmetry_2
Zn1 O1 1_555 1_555
O1 Zn2 1_555 1_555
O2 Zn1 1_555 1_555
O3 C1 1_555 1_555
O4 Zn1 1_555 1_555
Zn2 O5 1_555 1_555
C1 O2 1_555 1_555
C2 O4 1_555 1_555
O5 C2 1_555 1_555
C3 C1 1_555 1_555
C4 C2 1_555 1_555
C5 C3 1_555 1_555
C6 C3 1_555 1_555
C7 C4 1_555 1_555
C8 C4 1_555 1_555
H1 C5 1_555 1_555
C9 C5 1_555 1_555
C10 C6 1_555 1_555
H2 C6 1_555 1_555
H3 C7 1_555 1_555
C11 C7 1_555 1_555
C12 C8 1_555 1_555
H4 C8 1_555 1_555
H5 C9 1_555 1_555
C13 C9 1_555 1_555
H6 C10 1_555 1_555
H7 C11 1_555 1_555
C14 C11 1_555 1_555
H8 C12 1_555 1_555
C15 C13 1_555 1_555
C16 C14 1_555 1_555
C17 C15 1_555 1_555
C18 C15 1_555 1_555
C19 C16 1_555 1_555
C20 C16 1_555 1_555
N1 C17 1_555 1_555
C21 C17 1_555 1_555
N2 C18 1_555 1_555
C22 C18 1_555 1_555
C23 C19 1_555 1_555
N3 C19 1_555 1_555
N4 C20 1_555 1_555
C24 C20 1_555 1_555
C25 N1 1_555 1_555
Zn3 N1 1_555 1_555
C26 C21 1_555 1_555
H9 C21 1_555 1_555
C27 N2 1_555 1_555
H10 C22 1_555 1_555
C28 C22 1_555 1_555
C29 C23 1_555 1_555
H11 C23 1_555 1_555
C30 N3 1_555 1_555
Zn4 N3 1_555 1_555
C31 N4 1_555 1_555
C32 C24 1_555 1_555
H12 C24 1_555 1_555
C33 C25 1_555 1_555
H13 C26 1_555 1_555
H14 C28 1_555 1_555
H15 C29 1_555 1_555
C34 C30 1_555 1_555
C35 C31 1_555 1_555
H16 C32 1_555 1_555
H17 C33 1_555 1_555
H18 C34 1_555 1_555
H19 C35 1_555 1_555
O2X C1X 1_555 1_555
O3X C1X 1_555 1_555
C1X C3X 1_555 1_555
C3X C5X 1_555 1_555
C5X H1X 1_555 1_555
C6X C3X 1_555 1_555
C9X C5X 1_555 1_555
C10X C6X 1_555 1_555
H2X C6X 1_555 1_555
H5X C9X 1_555 1_555
C13X C9X 1_555 1_555
H6X C10X 1_555 1_555
C15X C13X 1_555 1_555
C17X C15X 1_555 1_555
C18X C15X 1_555 1_555
N1X Zn3 1_555 1_555
C21X C17X 1_555 1_555
N2X Zn3 1_555 1_555
C22X C18X 1_555 1_555
C25X N1X 1_555 1_555
C26X C21X 1_555 1_555
H9X C21X 1_555 1_555
C27X C33 1_555 1_555
H10X C22X 1_555 1_555
C28X C22X 1_555 1_555
C33X C27 1_555 1_555
H13X C26X 1_555 1_555
H14X C28X 1_555 1_555
H17X C33X 1_555 1_555
O4E C2E 1_555 1_555
C2E O5E 1_555 1_555
O5E Zn2C 1_555 1_555
C4E C2E 1_555 1_555
C7E C4E 1_555 1_555
C8E C4E 1_555 1_555
H3E C7E 1_555 1_555
C11E C7E 1_555 1_555
C12E C8E 1_555 1_555
H4E C8E 1_555 1_555
H7E C11E 1_555 1_555
C14E C11E 1_555 1_555
H8E C12E 1_555 1_555
C16E C14E 1_555 1_555
C19E C16E 1_555 1_555
C20E C16E 1_555 1_555
C23E C19E 1_555 1_555
N3E Zn4 1_555 1_555
N4E Zn4 1_555 1_555
C24E C20E 1_555 1_555
C29E C23E 1_555 1_555
H11E C23E 1_555 1_555
C30E C34 1_555 1_555
C31E C35 1_555 1_555
C32E C24E 1_555 1_555
H12E C24E 1_555 1_555
H15E C29E 1_555 1_555
H16E C32E 1_555 1_555
Zn1A O1 1_555 1_555
O2A Zn1A 1_555 1_555
O3A Zn1 1_555 1_555
O4A Zn1A 1_555 1_555
C1A O2A 1_555 1_555
C2A O4A 1_555 1_555
O5A Zn2 1_555 1_555
C3A C1A 1_555 1_555
C4A C2A 1_555 1_555
C5A C3A 1_555 1_555
C6A C3A 1_555 1_555
C7A C4A 1_555 1_555
C8A C4A 1_555 1_555
H1A C5A 1_555 1_555
C9A C5A 1_555 1_555
C10A C6A 1_555 1_555
H2A C6A 1_555 1_555
H3A C7A 1_555 1_555
C11A C7A 1_555 1_555
C12A C8A 1_555 1_555
H4A C8A 1_555 1_555
H5A C9A 1_555 1_555
C13A C9A 1_555 1_555
H6A C10A 1_555 1_555
H7A C11A 1_555 1_555
C14A C11A 1_555 1_555
H8A C12A 1_555 1_555
C15A C13A 1_555 1_555
C16A C14A 1_555 1_555
C17A C15A 1_555 1_555
C18A C15A 1_555 1_555
C19A C16A 1_555 1_555
C20A C16A 1_555 1_555
N1A C17A 1_555 1_555
C21A C17A 1_555 1_555
N2A C18A 1_555 1_555
C22A C18A 1_555 1_555
C23A C19A 1_555 1_555
N3A C19A 1_555 1_555
N4A C20A 1_555 1_555
C24A C20A 1_555 1_555
C25A N1A 1_555 1_555
Zn3A N1A 1_555 1_555
C26A C21A 1_555 1_555
H9A C21A 1_555 1_555
C27A N2A 1_555 1_555
H10A C22A 1_555 1_555
C28A C22A 1_555 1_555
C29A C23A 1_555 1_555
H11A C23A 1_555 1_555
C30A N3A 1_555 1_555
Zn4A N3A 1_555 1_555
C31A N4A 1_555 1_555
C32A C24A 1_555 1_555
H12A C24A 1_555 1_555
C33A C25A 1_555 1_555
H13A C26A 1_555 1_555
H14A C28A 1_555 1_555
H15A C29A 1_555 1_555
C34A C30A 1_555 1_555
C35A C31A 1_555 1_555
H16A C32A 1_555 1_555
H17A C33A 1_555 1_555
H18A C34A 1_555 1_555
H19A C35A 1_555 1_555
O2Y C1Y 1_555 1_555
O3Y C1Y 1_555 1_555
C1Y C3Y 1_555 1_555
C3Y C5Y 1_555 1_555
C5Y H1Y 1_555 1_555
C6Y C3Y 1_555 1_555
C9Y C5Y 1_555 1_555
C10Y C6Y 1_555 1_555
H2Y C6Y 1_555 1_555
H5Y C9Y 1_555 1_555
C13Y C9Y 1_555 1_555
H6Y C10Y 1_555 1_555
C15Y C13Y 1_555 1_555
C17Y C15Y 1_555 1_555
C18Y C15Y 1_555 1_555
N1Y Zn3A 1_555 1_555
C21Y C17Y 1_555 1_555
N2Y Zn3A 1_555 1_555
C22Y C18Y 1_555 1_555
C25Y N1Y 1_555 1_555
C26Y C21Y 1_555 1_555
H9Y C21Y 1_555 1_555
C27Y C33A 1_555 1_555
H10Y C22Y 1_555 1_555
C28Y C22Y 1_555 1_555
C33Y C27A 1_555 1_555
H13Y C26Y 1_555 1_555
H14Y C28Y 1_555 1_555
H17Y C33Y 1_555 1_555
O4D C2D 1_555 1_555
C2D O5D 1_555 1_555
O5D Zn2C_2 1_555 1_555
C4D C2D 1_555 1_555
C7D C4D 1_555 1_555
C8D C4D 1_555 1_555
H3D C7D 1_555 1_555
C11D C7D 1_555 1_555
C12D C8D 1_555 1_555
H4D C8D 1_555 1_555
H7D C11D 1_555 1_555
C14D C11D 1_555 1_555
H8D C12D 1_555 1_555
C16D C14D 1_555 1_555
C19D C16D 1_555 1_555
C20D C16D 1_555 1_555
C23D C19D 1_555 1_555
N3D Zn4A 1_555 1_555
N4D Zn4A 1_555 1_555
C24D C20D 1_555 1_555
C29D C23D 1_555 1_555
H11D C23D 1_555 1_555
C30D C34A 1_555 1_555
C31D C35A 1_555 1_555
C32D C24D 1_555 1_555
H12D C24D 1_555 1_555
H15D C29D 1_555 1_555
H16D C32D 1_555 1_555
Zn1B O1 1_555 1_555
O2B Zn1B 1_555 1_555
O3B Zn1A 1_555 1_555
O4B Zn1B 1_555 1_555
C1B O2B 1_555 1_555
C2B O4B 1_555 1_555
O5B Zn2 1_555 1_555
C3B C1B 1_555 1_555
C4B C2B 1_555 1_555
C5B C3B 1_555 1_555
C6B C3B 1_555 1_555
C7B C4B 1_555 1_555
C8B C4B 1_555 1_555
H1B C5B 1_555 1_555
C9B C5B 1_555 1_555
C10B C6B 1_555 1_555
H2B C6B 1_555 1_555
H3B C7B 1_555 1_555
C11B C7B 1_555 1_555
C12B C8B 1_555 1_555
H4B C8B 1_555 1_555
H5B C9B 1_555 1_555
C13B C9B 1_555 1_555
H6B C10B 1_555 1_555
H7B C11B 1_555 1_555
C14B C11B 1_555 1_555
H8B C12B 1_555 1_555
C15B C13B 1_555 1_555
C16B C14B 1_555 1_555
C17B C15B 1_555 1_555
C18B C15B 1_555 1_555
C19B C16B 1_555 1_555
C20B C16B 1_555 1_555
N1B C17B 1_555 1_555
C21B C17B 1_555 1_555
N2B C18B 1_555 1_555
C22B C18B 1_555 1_555
C23B C19B 1_555 1_555
N3B C19B 1_555 1_555
N4B C20B 1_555 1_555
C24B C20B 1_555 1_555
C25B N1B 1_555 1_555
Zn3B N1B 1_555 1_555
C26B C21B 1_555 1_555
H9B C21B 1_555 1_555
C27B N2B 1_555 1_555
H10B C22B 1_555 1_555
C28B C22B 1_555 1_555
C29B C23B 1_555 1_555
H11B C23B 1_555 1_555
C30B N3B 1_555 1_555
Zn4B N3B 1_555 1_555
C31B N4B 1_555 1_555
C32B C24B 1_555 1_555
H12B C24B 1_555 1_555
C33B C25B 1_555 1_555
H13B C26B 1_555 1_555
H14B C28B 1_555 1_555
H15B C29B 1_555 1_555
C34B C30B 1_555 1_555
C35B C31B 1_555 1_555
H16B C32B 1_555 1_555
H17B C33B 1_555 1_555
H18B C34B 1_555 1_555
H19B C35B 1_555 1_555
O2Z C1Z 1_555 1_555
O3Z C1Z 1_555 1_555
C1Z C3Z 1_555 1_555
C3Z C5Z 1_555 1_555
C5Z H1Z 1_555 1_555
C6Z C3Z 1_555 1_555
C9Z C5Z 1_555 1_555
C10Z C6Z 1_555 1_555
H2Z C6Z 1_555 1_555
H5Z C9Z 1_555 1_555
C13Z C9Z 1_555 1_555
H6Z C10Z 1_555 1_555
C15Z C13Z 1_555 1_555
C17Z C15Z 1_555 1_555
C18Z C15Z 1_555 1_555
N1Z Zn3B 1_555 1_555
C21Z C17Z 1_555 1_555
N2Z Zn3B 1_555 1_555
C22Z C18Z 1_555 1_555
C25Z N1Z 1_555 1_555
C26Z C21Z 1_555 1_555
H9Z C21Z 1_555 1_555
C27Z C33B 1_555 1_555
H10Z C22Z 1_555 1_555
C28Z C22Z 1_555 1_555
C33Z C27B 1_555 1_555
H13Z C26Z 1_555 1_555
H14Z C28Z 1_555 1_555
H17Z C33Z 1_555 1_555
O4C C2C 1_555 1_555
C2C O5C 1_555 1_555
O5C Zn2C_3 1_555 1_555
C4C C2C 1_555 1_555
C7C C4C 1_555 1_555
C8C C4C 1_555 1_555
H3C C7C 1_555 1_555
C11C C7C 1_555 1_555
C12C C8C 1_555 1_555
H4C C8C 1_555 1_555
H7C C11C 1_555 1_555
C14C C11C 1_555 1_555
H8C C12C 1_555 1_555
C16C C14C 1_555 1_555
C19C C16C 1_555 1_555
C20C C16C 1_555 1_555
C23C C19C 1_555 1_555
N3C Zn4B 1_555 1_555
N4C Zn4B 1_555 1_555
C24C C20C 1_555 1_555
C29C C23C 1_555 1_555
H11C C23C 1_555 1_555
C30C C34B 1_555 1_555
C31C C35B 1_555 1_555
C32C C24C 1_555 1_555
H12C C24C 1_555 1_555
H15C C29C 1_555 1_555
H16C C32C 1_555 1_555
Zn1X O2X 1_555 1_555
O1X Zn1X 1_555 1_555
Zn2X O1X 1_555 1_555
Zn1Y O2Y 1_555 1_555
Zn1Z O3X 1_555 1_555
Zn1C O4C 1_555 1_555
Zn1D O4D 1_555 1_555
Zn1E O4E 1_555 1_555
Zn1X_2 O3Y 1_555 1_555
Zn1Y_2 O1X 1_555 1_555
Zn1Y_3 O3Z 1_555 1_555
Zn1Z_2 O2Z 1_555 1_555
O1X_2 Zn1Y 1_555 1_555
O2Z_2 Zn1Z 1_555 1_555
O3Y_2 Zn1X 1_555 1_555
O3Z_2 Zn1Y 1_555 1_555
O4X Zn1X 1_555 1_555
O4Y Zn1Y 1_555 1_555
O4Z Zn1Z 1_555 1_555
O5X Zn2X 1_555 1_555
O5Y Zn2X 1_555 1_555
O5Z Zn2X 1_555 1_555
O3 Zn1B 1_555 1_555
C10 C13 1_555 1_555
C12 C14 1_555 1_555
N2 Zn3 1_555 1_555
N4 Zn4 1_555 1_555
C25 C26 1_555 1_555
C27 C28 1_555 1_555
C29 C30 1_555 1_555
C31 C32 1_555 1_555
C10X C13X 1_555 1_555
C17X N1X 1_555 1_555
C18X N2X 1_555 1_555
N2X C27X 1_555 1_555
C25X C26X 1_555 1_555
C25X C33X 1_555 1_555
C27X C28X 1_555 1_555
C12E C14E 1_555 1_555
C19E N3E 1_555 1_555
C20E N4E 1_555 1_555
N3E C30E 1_555 1_555
N4E C31E 1_555 1_555
C29E C30E 1_555 1_555
C31E C32E 1_555 1_555
O3A C1A 1_555 1_555
C2A O5A 1_555 1_555
C10A C13A 1_555 1_555
C12A C14A 1_555 1_555
N2A Zn3A 1_555 1_555
N4A Zn4A 1_555 1_555
C25A C26A 1_555 1_555
C27A C28A 1_555 1_555
C29A C30A 1_555 1_555
C31A C32A 1_555 1_555
C10Y C13Y 1_555 1_555
C17Y N1Y 1_555 1_555
C18Y N2Y 1_555 1_555
N2Y C27Y 1_555 1_555
C25Y C26Y 1_555 1_555
C25Y C33Y 1_555 1_555
C27Y C28Y 1_555 1_555
C12D C14D 1_555 1_555
C19D N3D 1_555 1_555
C20D N4D 1_555 1_555
N3D C30D 1_555 1_555
N4D C31D 1_555 1_555
C29D C30D 1_555 1_555
C31D C32D 1_555 1_555
O3B C1B 1_555 1_555
C2B O5B 1_555 1_555
C10B C13B 1_555 1_555
C12B C14B 1_555 1_555
N2B Zn3B 1_555 1_555
N4B Zn4B 1_555 1_555
C25B C26B 1_555 1_555
C27B C28B 1_555 1_555
C29B C30B 1_555 1_555
C31B C32B 1_555 1_555
C10Z C13Z 1_555 1_555
C17Z N1Z 1_555 1_555
C18Z N2Z 1_555 1_555
N2Z C27Z 1_555 1_555
C25Z C26Z 1_555 1_555
C25Z C33Z 1_555 1_555
C27Z C28Z 1_555 1_555
C12C C14C 1_555 1_555
C19C N3C 1_555 1_555
C20C N4C 1_555 1_555
N3C C30C 1_555 1_555
N4C C31C 1_555 1_555
C29C C30C 1_555 1_555
C31C C32C 1_555 1_555
O1X Zn1Z 1_555 1_555
Zn1X_2 O1X_2 1_555 1_555

#END
