
#######################################################################
#
#                 Cambridge Crystallographic Data Centre
#                                CCDC 
#
#######################################################################
#
# If this CIF has been generated from an entry in the Cambridge 
# Structural Database, then it will include bibliographic, chemical, 
# crystal, experimental, refinement or atomic coordinate data resulting 
# from the CCDC's data processing and validation procedures.
#
#######################################################################

data_ODEKAL
_chemical_formula_moiety         '(C2 H13 In2 Li1 N2 O16 P4)n'
_symmetry_cell_setting           monoclinic
_symmetry_space_group_name_H-M   'P 2/n'
_symmetry_Int_Tables_number      13
_space_group_name_Hall           '-P 2yac'
loop_
_symmetry_equiv_pos_site_id
_symmetry_equiv_pos_as_xyz
1 x,y,z
2 1/2-x,y,1/2-z
3 -x,-y,-z
4 1/2+x,-y,1/2+z
_cell_length_a                   9.4692(13)
_cell_length_b                   9.1622(12)
_cell_length_c                   9.7063(14)
_cell_angle_alpha                90
_cell_angle_beta                 117.562(1)
_cell_angle_gamma                90
_cell_volume                     746.536
loop_
_atom_site_label
_atom_site_type_symbol
_atom_site_fract_x
_atom_site_fract_y
_atom_site_fract_z
In1 In 0.2500 -0.11777(6) 0.2500
In2 In -0.2500 -0.39056(6) 0.2500
Li1 Li 0.2500 -0.1288(11) 0.7500
P1 P 0.14504(16) -0.34394(15) 0.47293(16)
P2 P 0.66957(16) -0.10220(14) 0.43683(16)
O1 O 0.2485(5) -0.2701(4) 0.4125(4)
O2 O -0.0026(5) -0.4135(4) 0.3466(4)
O3 O 0.0888(5) -0.2259(5) 0.5564(5)
O4 O 0.2523(5) -0.4515(4) 0.5952(4)
O5 O 0.5014(5) -0.1527(4) 0.3864(5)
O6 O 0.6558(5) 0.0343(4) 0.3334(4)
O7 O 0.7553(5) -0.0601(4) 0.6084(4)
O8 O 0.7706(5) -0.2207(4) 0.4125(4)
H5 H 0.8612 -0.1898 0.4409
In1B In 0.7500 0.11777(6) 0.7500
In1B_2 In -0.2500 0.11777(6) -0.2500
In2B In 0.2500 -0.60944(6) 0.7500
In2_2 In 0.7500 -0.39056(6) 0.2500
In2B_2 In 0.2500 -0.60944(6) -0.2500
Li1B Li 0.7500 0.1288(11) 0.2500
Li1_2 Li 0.2500 -0.1288(11) -0.2500
Li1B_2 Li -0.2500 0.1288(11) 0.2500
P1A P 0.35496(16) -0.34394(15) 0.02707(16)
P2A P -0.16957(16) -0.10220(14) 0.06317(16)
O1A O 0.2515(5) -0.2701(4) 0.0875(4)
O2A O 0.5026(5) -0.4135(4) 0.1534(4)
O2A_2 O -0.4974(5) -0.4135(4) 0.1534(4)
O3A O 0.4112(5) -0.2259(5) -0.0564(5)
O3A_2 O 0.4112(5) -0.2259(5) 0.9436(5)
O4A O 0.2477(5) -0.4515(4) -0.0952(4)
O4B O -0.2523(5) -0.5485(4) 0.4048(4)
O4C O -0.2477(5) -0.5485(4) 0.0952(4)
O5A O -0.0014(5) -0.1527(4) 0.1136(5)
O6A O -0.1558(5) 0.0343(4) 0.1666(4)
O6B O 0.3442(5) -0.0343(4) 0.6666(4)
O6C O 0.1558(5) -0.0343(4) 0.8334(4)
O7A O -0.2553(5) -0.0601(4) -0.1084(4)
O7B O 0.2447(5) 0.0601(4) 0.3916(4)
O7C O 0.2553(5) 0.0601(4) 0.1084(4)
O8A O -0.2706(5) -0.2207(4) 0.0875(4)
O8_2 O -0.2294(5) -0.2207(4) 0.4125(4)
H5A H -0.3612 -0.1898 0.0591
H5_2 H -0.1388 -0.1898 0.4409
N1 N 0.5588(6) 0.7009(5) 0.6952(6)
H1 H 0.5190 0.6644 0.7549
H2 H 0.4797 0.7214 0.6017
H3 H 0.6130 0.7820 0.7383
C1 C 0.6671(7) 0.5918(6) 0.6798(6)
H6 H 0.6770 0.6130 0.5868
H7 H 0.6207 0.4954 0.6680
N1A N 0.9412(6) 0.7009(5) 0.8048(6)
H1A H 0.9810 0.6644 0.7451
H2A H 1.0203 0.7214 0.8983
H3A H 0.8870 0.7820 0.7617
C1A C 0.8329(7) 0.5918(6) 0.8202(6)
H6A H 0.8230 0.6130 0.9132
H7A H 0.8793 0.4954 0.8320
loop_
_geom_bond_atom_site_label_1
_geom_bond_atom_site_label_2
_geom_bond_site_symmetry_1
_geom_bond_site_symmetry_2
In1 O1 1_555 1_555
In2 O2 1_555 1_555
Li1 O3 1_555 1_555
N1 H1 1_555 1_555
H2 N1 1_555 1_555
H3 N1 1_555 1_555
P1 O1 1_555 1_555
P2 O5 1_555 1_555
O2 P1 1_555 1_555
O3 P1 1_555 1_555
O4 P1 1_555 1_555
O5 In1 1_555 1_555
O6 P2 1_555 1_555
O7 P2 1_555 1_555
O8 P2 1_555 1_555
H5 O8 1_555 1_555
C1 N1 1_555 1_555
H6 C1 1_555 1_555
H7 C1 1_555 1_555
In1B O7 1_555 1_555
In1B_2 O7A 1_555 1_555
In2B O4 1_555 1_555
In2_2 O8 1_555 1_555
In2B_2 O4A 1_555 1_555
Li1B O6 1_555 1_555
Li1_2 O3A 1_555 1_555
Li1B_2 O6A 1_555 1_555
N1A H1A 1_555 1_555
H2A N1A 1_555 1_555
H3A N1A 1_555 1_555
P1A O1A 1_555 1_555
P2A O5A 1_555 1_555
O1A In1 1_555 1_555
O2A In2_2 1_555 1_555
O2A_2 In2 1_555 1_555
O3A P1A 1_555 1_555
O3A_2 Li1 1_555 1_555
O4A P1A 1_555 1_555
O4B In2 1_555 1_555
O4C In2 1_555 1_555
O5A In1 1_555 1_555
O6A P2A 1_555 1_555
O6B Li1 1_555 1_555
O6C Li1 1_555 1_555
O7A P2A 1_555 1_555
O7B In1 1_555 1_555
O7C In1 1_555 1_555
O8A In2 1_555 1_555
O8_2 In2 1_555 1_555
H5A O8A 1_555 1_555
H5_2 O8_2 1_555 1_555
C1A C1 1_555 1_555
H6A C1A 1_555 1_555
H7A C1A 1_555 1_555
N1A C1A 1_555 1_555
P1A O2A 1_555 1_555
P2A O8A 1_555 1_555

#END
