
#######################################################################
#
#                 Cambridge Crystallographic Data Centre
#                                CCDC 
#
#######################################################################
#
# If this CIF has been generated from an entry in the Cambridge 
# Structural Database, then it will include bibliographic, chemical, 
# crystal, experimental, refinement or atomic coordinate data resulting 
# from the CCDC's data processing and validation procedures.
#
#######################################################################

data_LOPZEW
_chemical_formula_moiety         'C152 H186 Co4 K3 O42'
_symmetry_cell_setting           cubic
_symmetry_space_group_name_H-M   'I 21 3'
_symmetry_Int_Tables_number      199
_space_group_name_Hall           'I 2b 2c 3'
loop_
_symmetry_equiv_pos_site_id
_symmetry_equiv_pos_as_xyz
1 x,y,z
2 1/2-x,-y,1/2+z
3 -x,1/2+y,1/2-z
4 1/2+x,1/2-y,-z
5 z,x,y
6 1/2+z,1/2-x,-y
7 1/2-z,-x,1/2+y
8 -z,1/2+x,1/2-y
9 y,z,x
10 -y,1/2+z,1/2-x
11 1/2+y,1/2-z,-x
12 1/2-y,-z,1/2+x
13 1/2+x,1/2+y,1/2+z
14 -x,1/2-y,z
15 1/2-x,y,-z
16 x,-y,1/2-z
17 1/2+z,1/2+x,1/2+y
18 z,-x,1/2-y
19 -z,1/2-x,y
20 1/2-z,x,-y
21 1/2+y,1/2+z,1/2+x
22 1/2-y,z,-x
23 y,-z,1/2-x
24 -y,1/2-z,x
_cell_length_a                   27.046(2)
_cell_length_b                   27.046(2)
_cell_length_c                   27.046(2)
_cell_angle_alpha                90
_cell_angle_beta                 90
_cell_angle_gamma                90
_cell_volume                     19783.8
loop_
_atom_site_label
_atom_site_type_symbol
_atom_site_fract_x
_atom_site_fract_y
_atom_site_fract_z
_atom_site_U_iso_or_equiv
_atom_site_thermal_displace_type
K1 K 0.7500 0.46685(7) 0.5000 0.0815 Uani
O1 O 0.67526(16) 0.42148(17) 0.54452(14) 0.0760 Uani
O2 O 0.68693(18) 0.52008(16) 0.55513(17) 0.0887 Uani
C1 C 0.6675(3) 0.3707(3) 0.5522(3) 0.0700 Uani
O3 O 0.7892(2) 0.3257(2) 0.5657(2) 0.1233 Uani
C2 C 0.7664(3) 0.3997(3) 0.6091(2) 0.0740 Uani
C3 C 0.6201(2) 0.3690(3) 0.4694(3) 0.0907 Uani
H1 H 0.6072 0.3426 0.4489 0.1090 Uiso
H2 H 0.5927 0.3907 0.4775 0.1090 Uiso
C4 C 0.6360(3) 0.4480(2) 0.5642(3) 0.1127 Uani
H3 H 0.6282 0.4350 0.5967 0.1350 Uiso
H4 H 0.6072 0.4434 0.5433 0.1350 Uiso
C5 C 0.6400(3) 0.3465(3) 0.5173(3) 0.0800 Uani
C6 C 0.6859(3) 0.3484(3) 0.5927(3) 0.0760 Uani
C7 C 0.6289(2) 0.2958(3) 0.5253(3) 0.0920 Uani
H5 H 0.6122 0.2779 0.5012 0.1100 Uiso
C8 C 0.6732(3) 0.2989(3) 0.6015(3) 0.0967 Uani
H6 H 0.6857 0.2836 0.6296 0.1160 Uiso
C9 C 0.6436(3) 0.2722(3) 0.5710(4) 0.0977 Uani
C10 C 0.7995(3) 0.3753(3) 0.5785(3) 0.0820 Uani
C11 C 0.6128(6) 0.2147(4) 0.6371(5) 0.2757 Uani
H7 H 0.6386 0.2273 0.6579 0.4160 Uiso
H8 H 0.6071 0.1805 0.6448 0.4160 Uiso
H9 H 0.5830 0.2331 0.6428 0.4160 Uiso
C12 C 0.6283(5) 0.2197(3) 0.5822(4) 0.1483 Uani
C13 C 0.8498(3) 0.4442(3) 0.5741(3) 0.0790 Uani
H10 H 0.8813 0.4594 0.5646 0.0950 Uiso
C14 C 0.7169(3) 0.3759(3) 0.6279(3) 0.1063 Uani
H11 H 0.7251 0.3536 0.6548 0.1280 Uiso
H12 H 0.6968 0.4022 0.6418 0.1280 Uiso
C15 C 0.7758(3) 0.4474(3) 0.6203(2) 0.0827 Uani
H13 H 0.7553 0.4637 0.6453 0.0990 Uiso
C16 C 0.8301(3) 0.5251(3) 0.6200(3) 0.0933 Uani
C17 C 0.8191(3) 0.4711(3) 0.6044(3) 0.0820 Uani
C18 C 0.8833(3) 0.5333(3) 0.6318(3) 0.1297 Uani
H14 H 0.9031 0.5250 0.6036 0.1940 Uiso
H15 H 0.8926 0.5127 0.6592 0.1940 Uiso
H16 H 0.8885 0.5673 0.6404 0.1940 Uiso
C19 C 0.8216(3) 0.5594(3) 0.5757(3) 0.1437 Uani
H17 H 0.8405 0.5478 0.5480 0.2150 Uiso
H18 H 0.8318 0.5923 0.5841 0.2150 Uiso
H19 H 0.7871 0.5595 0.5673 0.2150 Uiso
C20 C 0.8028(4) 0.5415(4) 0.6671(4) 0.2153 Uani
H20 H 0.8109 0.5753 0.6744 0.3230 Uiso
H21 H 0.8125 0.5209 0.6943 0.3230 Uiso
H22 H 0.7677 0.5387 0.6621 0.3230 Uiso
C21 C 0.6576(3) 0.3980(3) 0.4395(3) 0.0813 Uani
C22 C 0.6465(3) 0.5018(3) 0.5685(3) 0.0803 Uani
O4 O 0.61187(16) 0.52811(16) 0.58946(16) 0.0880 Uani
Co1 Co 0.60172(3) 0.60172(3) 0.60172(3) 0.0382 Uani
O5 O 0.61247(16) 0.58814(17) 0.67915(15) 0.0567 Uani
C23 C 0.5889(5) 0.1994(4) 0.5472(6) 0.3327 Uani
H23 H 0.6002 0.2021 0.5137 0.4970 Uiso
H24 H 0.5589 0.2179 0.5511 0.4970 Uiso
H25 H 0.5828 0.1652 0.5548 0.4970 Uiso
C24 C 0.8051(5) 0.2910(4) 0.5945(4) 0.2030 Uani
H26 H 0.7954 0.2594 0.5815 0.3040 Uiso
H27 H 0.7912 0.2952 0.6269 0.3040 Uiso
H28 H 0.8405 0.2926 0.5965 0.3040 Uiso
C25 C 0.6689(6) 0.1912(4) 0.5756(8) 0.3463 Uani
H29 H 0.6955 0.2038 0.5953 0.5160 Uiso
H30 H 0.6782 0.1917 0.5413 0.5160 Uiso
H31 H 0.6617 0.1578 0.5853 0.5160 Uiso
K1H K 0.46685(7) 0.5000 0.7500 0.0815 Uani
K1D K 0.5000 0.7500 0.46685(7) 0.0815 Uani
O1N O 0.82474(16) 0.42148(17) 0.45548(14) 0.0760 Uani
O1H O 0.42148(17) 0.54452(14) 0.67526(16) 0.0760 Uani
O1V O 0.42148(17) 0.45548(14) 0.82474(16) 0.0760 Uani
O1D O 0.54452(14) 0.67526(16) 0.42148(17) 0.0760 Uani
O1R O 0.45548(14) 0.82474(16) 0.42148(17) 0.0760 Uani
O2N O 0.81307(18) 0.52008(16) 0.44487(17) 0.0887 Uani
O2H O 0.52008(16) 0.55513(17) 0.68693(18) 0.0887 Uani
O2V O 0.52008(16) 0.44487(17) 0.81307(18) 0.0887 Uani
O2D O 0.55513(17) 0.68693(18) 0.52008(16) 0.0887 Uani
O2R O 0.44487(17) 0.81307(18) 0.52008(16) 0.0887 Uani
C1N C 0.8325(3) 0.3707(3) 0.4478(3) 0.0700 Uani
C1H C 0.3707(3) 0.5522(3) 0.6675(3) 0.0700 Uani
C1V C 0.3707(3) 0.4478(3) 0.8325(3) 0.0700 Uani
C1D C 0.5522(3) 0.6675(3) 0.3707(3) 0.0700 Uani
C1R C 0.4478(3) 0.8325(3) 0.3707(3) 0.0700 Uani
O3N O 0.7108(2) 0.3257(2) 0.4343(2) 0.1233 Uani
O3H O 0.3257(2) 0.5657(2) 0.7892(2) 0.1233 Uani
O3V O 0.3257(2) 0.4343(2) 0.7108(2) 0.1233 Uani
O3D O 0.5657(2) 0.7892(2) 0.3257(2) 0.1233 Uani
O3R O 0.4343(2) 0.7108(2) 0.3257(2) 0.1233 Uani
C2N C 0.7336(3) 0.3997(3) 0.3909(2) 0.0740 Uani
C2H C 0.3997(3) 0.6091(2) 0.7664(3) 0.0740 Uani
C2V C 0.3997(3) 0.3909(2) 0.7336(3) 0.0740 Uani
C2D C 0.6091(2) 0.7664(3) 0.3997(3) 0.0740 Uani
C2R C 0.3909(2) 0.7336(3) 0.3997(3) 0.0740 Uani
C3N C 0.8799(2) 0.3690(3) 0.5306(3) 0.0907 Uani
C3H C 0.3690(3) 0.4694(3) 0.6201(2) 0.0907 Uani
C3V C 0.3690(3) 0.5306(3) 0.8799(2) 0.0907 Uani
C3D C 0.4694(3) 0.6201(2) 0.3690(3) 0.0907 Uani
C3R C 0.5306(3) 0.8799(2) 0.3690(3) 0.0907 Uani
H1N H 0.8928 0.3426 0.5511 0.1090 Uiso
H1H H 0.3426 0.4489 0.6072 0.1090 Uiso
H1V H 0.3426 0.5511 0.8928 0.1090 Uiso
H1D H 0.4489 0.6072 0.3426 0.1090 Uiso
H1R H 0.5511 0.8928 0.3426 0.1090 Uiso
H2N H 0.9073 0.3907 0.5225 0.1090 Uiso
H2H H 0.3907 0.4775 0.5927 0.1090 Uiso
H2V H 0.3907 0.5225 0.9073 0.1090 Uiso
H2D H 0.4775 0.5927 0.3907 0.1090 Uiso
H2R H 0.5225 0.9073 0.3907 0.1090 Uiso
C4N C 0.8640(3) 0.4480(2) 0.4358(3) 0.1127 Uani
C4H C 0.4480(2) 0.5642(3) 0.6360(3) 0.1127 Uani
C4V C 0.4480(2) 0.4358(3) 0.8640(3) 0.1127 Uani
C4D C 0.5642(3) 0.6360(3) 0.4480(2) 0.1127 Uani
C4R C 0.4358(3) 0.8640(3) 0.4480(2) 0.1127 Uani
H3N H 0.8718 0.4350 0.4033 0.1350 Uiso
H3H H 0.4350 0.5967 0.6282 0.1350 Uiso
H3V H 0.4350 0.4033 0.8718 0.1350 Uiso
H3D H 0.5967 0.6282 0.4350 0.1350 Uiso
H3R H 0.4033 0.8718 0.4350 0.1350 Uiso
H4N H 0.8928 0.4434 0.4567 0.1350 Uiso
H4H H 0.4434 0.5433 0.6072 0.1350 Uiso
H4V H 0.4434 0.4567 0.8928 0.1350 Uiso
H4D H 0.5433 0.6072 0.4434 0.1350 Uiso
H4R H 0.4567 0.8928 0.4434 0.1350 Uiso
C5N C 0.8600(3) 0.3465(3) 0.4827(3) 0.0800 Uani
C5H C 0.3465(3) 0.5173(3) 0.6400(3) 0.0800 Uani
C5V C 0.3465(3) 0.4827(3) 0.8600(3) 0.0800 Uani
C5D C 0.5173(3) 0.6400(3) 0.3465(3) 0.0800 Uani
C5R C 0.4827(3) 0.8600(3) 0.3465(3) 0.0800 Uani
C6N C 0.8141(3) 0.3484(3) 0.4073(3) 0.0760 Uani
C6H C 0.3484(3) 0.5927(3) 0.6859(3) 0.0760 Uani
C6V C 0.3484(3) 0.4073(3) 0.8141(3) 0.0760 Uani
C6D C 0.5927(3) 0.6859(3) 0.3484(3) 0.0760 Uani
C6R C 0.4073(3) 0.8141(3) 0.3484(3) 0.0760 Uani
C7N C 0.8711(2) 0.2958(3) 0.4747(3) 0.0920 Uani
C7H C 0.2958(3) 0.5253(3) 0.6289(2) 0.0920 Uani
C7V C 0.2958(3) 0.4747(3) 0.8711(2) 0.0920 Uani
C7D C 0.5253(3) 0.6289(2) 0.2958(3) 0.0920 Uani
C7R C 0.4747(3) 0.8711(2) 0.2958(3) 0.0920 Uani
H5N H 0.8878 0.2779 0.4988 0.1100 Uiso
H5H H 0.2779 0.5012 0.6122 0.1100 Uiso
H5V H 0.2779 0.4988 0.8878 0.1100 Uiso
H5D H 0.5012 0.6122 0.2779 0.1100 Uiso
H5R H 0.4988 0.8878 0.2779 0.1100 Uiso
C8N C 0.8268(3) 0.2989(3) 0.3985(3) 0.0967 Uani
C8H C 0.2989(3) 0.6015(3) 0.6732(3) 0.0967 Uani
C8V C 0.2989(3) 0.3985(3) 0.8268(3) 0.0967 Uani
C8D C 0.6015(3) 0.6732(3) 0.2989(3) 0.0967 Uani
C8R C 0.3985(3) 0.8268(3) 0.2989(3) 0.0967 Uani
H6N H 0.8143 0.2836 0.3704 0.1160 Uiso
H6H H 0.2836 0.6296 0.6857 0.1160 Uiso
H6V H 0.2836 0.3704 0.8143 0.1160 Uiso
H6D H 0.6296 0.6857 0.2836 0.1160 Uiso
H6R H 0.3704 0.8143 0.2836 0.1160 Uiso
C9N C 0.8564(3) 0.2722(3) 0.4290(4) 0.0977 Uani
C9H C 0.2722(3) 0.5710(4) 0.6436(3) 0.0977 Uani
C9V C 0.2722(3) 0.4290(4) 0.8564(3) 0.0977 Uani
C9D C 0.5710(4) 0.6436(3) 0.2722(3) 0.0977 Uani
C9R C 0.4290(4) 0.8564(3) 0.2722(3) 0.0977 Uani
C10N C 0.7005(3) 0.3753(3) 0.4215(3) 0.0820 Uani
C10H C 0.3753(3) 0.5785(3) 0.7995(3) 0.0820 Uani
C10V C 0.3753(3) 0.4215(3) 0.7005(3) 0.0820 Uani
C10D C 0.5785(3) 0.7995(3) 0.3753(3) 0.0820 Uani
C10R C 0.4215(3) 0.7005(3) 0.3753(3) 0.0820 Uani
C11N C 0.8872(6) 0.2147(4) 0.3629(5) 0.2757 Uani
C11H C 0.2147(4) 0.6371(5) 0.6128(6) 0.2757 Uani
C11V C 0.2147(4) 0.3629(5) 0.8872(6) 0.2757 Uani
C11D C 0.6371(5) 0.6128(6) 0.2147(4) 0.2757 Uani
C11R C 0.3629(5) 0.8872(6) 0.2147(4) 0.2757 Uani
H7N H 0.8614 0.2273 0.3421 0.4160 Uiso
H7H H 0.2273 0.6579 0.6386 0.4160 Uiso
H7V H 0.2273 0.3421 0.8614 0.4160 Uiso
H7D H 0.6579 0.6386 0.2273 0.4160 Uiso
H7R H 0.3421 0.8614 0.2273 0.4160 Uiso
H8N H 0.8929 0.1805 0.3552 0.4160 Uiso
H8H H 0.1805 0.6448 0.6071 0.4160 Uiso
H8V H 0.1805 0.3552 0.8929 0.4160 Uiso
H8D H 0.6448 0.6071 0.1805 0.4160 Uiso
H8R H 0.3552 0.8929 0.1805 0.4160 Uiso
H9N H 0.9170 0.2331 0.3572 0.4160 Uiso
H9H H 0.2331 0.6428 0.5830 0.4160 Uiso
H9V H 0.2331 0.3572 0.9170 0.4160 Uiso
H9D H 0.6428 0.5830 0.2331 0.4160 Uiso
H9R H 0.3572 0.9170 0.2331 0.4160 Uiso
C12N C 0.8717(5) 0.2197(3) 0.4178(4) 0.1483 Uani
C12H C 0.2197(3) 0.5822(4) 0.6283(5) 0.1483 Uani
C12V C 0.2197(3) 0.4178(4) 0.8717(5) 0.1483 Uani
C12D C 0.5822(4) 0.6283(5) 0.2197(3) 0.1483 Uani
C12R C 0.4178(4) 0.8717(5) 0.2197(3) 0.1483 Uani
C13N C 0.6502(3) 0.4442(3) 0.4259(3) 0.0790 Uani
C13H C 0.4442(3) 0.5741(3) 0.8498(3) 0.0790 Uani
C13V C 0.4442(3) 0.4259(3) 0.6502(3) 0.0790 Uani
C13D C 0.5741(3) 0.8498(3) 0.4442(3) 0.0790 Uani
C13R C 0.4259(3) 0.6502(3) 0.4442(3) 0.0790 Uani
H10N H 0.6187 0.4594 0.4354 0.0950 Uiso
H10H H 0.4594 0.5646 0.8813 0.0950 Uiso
H10V H 0.4594 0.4354 0.6187 0.0950 Uiso
H10D H 0.5646 0.8813 0.4594 0.0950 Uiso
H10R H 0.4354 0.6187 0.4594 0.0950 Uiso
C14N C 0.7831(3) 0.3759(3) 0.3721(3) 0.1063 Uani
C14H C 0.3759(3) 0.6279(3) 0.7169(3) 0.1063 Uani
C14V C 0.3759(3) 0.3721(3) 0.7831(3) 0.1063 Uani
C14D C 0.6279(3) 0.7169(3) 0.3759(3) 0.1063 Uani
C14R C 0.3721(3) 0.7831(3) 0.3759(3) 0.1063 Uani
H11N H 0.7749 0.3536 0.3452 0.1280 Uiso
H11H H 0.3536 0.6548 0.7251 0.1280 Uiso
H11V H 0.3536 0.3452 0.7749 0.1280 Uiso
H11D H 0.6548 0.7251 0.3536 0.1280 Uiso
H11R H 0.3452 0.7749 0.3536 0.1280 Uiso
H12N H 0.8032 0.4022 0.3582 0.1280 Uiso
H12H H 0.4022 0.6418 0.6968 0.1280 Uiso
H12V H 0.4022 0.3582 0.8032 0.1280 Uiso
H12D H 0.6418 0.6968 0.4022 0.1280 Uiso
H12R H 0.3582 0.8032 0.4022 0.1280 Uiso
C15N C 0.7242(3) 0.4474(3) 0.3797(2) 0.0827 Uani
C15H C 0.4474(3) 0.6203(2) 0.7758(3) 0.0827 Uani
C15V C 0.4474(3) 0.3797(2) 0.7242(3) 0.0827 Uani
C15D C 0.6203(2) 0.7758(3) 0.4474(3) 0.0827 Uani
C15R C 0.3797(2) 0.7242(3) 0.4474(3) 0.0827 Uani
H13N H 0.7447 0.4637 0.3547 0.0990 Uiso
H13H H 0.4637 0.6453 0.7553 0.0990 Uiso
H13V H 0.4637 0.3547 0.7447 0.0990 Uiso
H13D H 0.6453 0.7553 0.4637 0.0990 Uiso
H13R H 0.3547 0.7447 0.4637 0.0990 Uiso
C16N C 0.6699(3) 0.5251(3) 0.3800(3) 0.0933 Uani
C16H C 0.5251(3) 0.6200(3) 0.8301(3) 0.0933 Uani
C16V C 0.5251(3) 0.3800(3) 0.6699(3) 0.0933 Uani
C16D C 0.6200(3) 0.8301(3) 0.5251(3) 0.0933 Uani
C16R C 0.3800(3) 0.6699(3) 0.5251(3) 0.0933 Uani
C17N C 0.6809(3) 0.4711(3) 0.3956(3) 0.0820 Uani
C17H C 0.4711(3) 0.6044(3) 0.8191(3) 0.0820 Uani
C17V C 0.4711(3) 0.3956(3) 0.6809(3) 0.0820 Uani
C17D C 0.6044(3) 0.8191(3) 0.4711(3) 0.0820 Uani
C17R C 0.3956(3) 0.6809(3) 0.4711(3) 0.0820 Uani
C18N C 0.6167(3) 0.5333(3) 0.3682(3) 0.1297 Uani
C18H C 0.5333(3) 0.6318(3) 0.8833(3) 0.1297 Uani
C18V C 0.5333(3) 0.3682(3) 0.6167(3) 0.1297 Uani
C18D C 0.6318(3) 0.8833(3) 0.5333(3) 0.1297 Uani
C18R C 0.3682(3) 0.6167(3) 0.5333(3) 0.1297 Uani
H14N H 0.5969 0.5250 0.3964 0.1940 Uiso
H14H H 0.5250 0.6036 0.9031 0.1940 Uiso
H14V H 0.5250 0.3964 0.5969 0.1940 Uiso
H14D H 0.6036 0.9031 0.5250 0.1940 Uiso
H14R H 0.3964 0.5969 0.5250 0.1940 Uiso
H15N H 0.6074 0.5127 0.3408 0.1940 Uiso
H15H H 0.5127 0.6592 0.8926 0.1940 Uiso
H15V H 0.5127 0.3408 0.6074 0.1940 Uiso
H15D H 0.6592 0.8926 0.5127 0.1940 Uiso
H15R H 0.3408 0.6074 0.5127 0.1940 Uiso
H16N H 0.6115 0.5673 0.3596 0.1940 Uiso
H16H H 0.5673 0.6404 0.8885 0.1940 Uiso
H16V H 0.5673 0.3596 0.6115 0.1940 Uiso
H16D H 0.6404 0.8885 0.5673 0.1940 Uiso
H16R H 0.3596 0.6115 0.5673 0.1940 Uiso
C19N C 0.6784(3) 0.5594(3) 0.4243(3) 0.1437 Uani
C19H C 0.5594(3) 0.5757(3) 0.8216(3) 0.1437 Uani
C19V C 0.5594(3) 0.4243(3) 0.6784(3) 0.1437 Uani
C19D C 0.5757(3) 0.8216(3) 0.5594(3) 0.1437 Uani
C19R C 0.4243(3) 0.6784(3) 0.5594(3) 0.1437 Uani
H17N H 0.6595 0.5478 0.4520 0.2150 Uiso
H17H H 0.5478 0.5480 0.8405 0.2150 Uiso
H17V H 0.5478 0.4520 0.6595 0.2150 Uiso
H17D H 0.5480 0.8405 0.5478 0.2150 Uiso
H17R H 0.4520 0.6595 0.5478 0.2150 Uiso
H18N H 0.6682 0.5923 0.4159 0.2150 Uiso
H18H H 0.5923 0.5841 0.8318 0.2150 Uiso
H18V H 0.5923 0.4159 0.6682 0.2150 Uiso
H18D H 0.5841 0.8318 0.5923 0.2150 Uiso
H18R H 0.4159 0.6682 0.5923 0.2150 Uiso
H19N H 0.7129 0.5595 0.4327 0.2150 Uiso
H19H H 0.5595 0.5673 0.7871 0.2150 Uiso
H19V H 0.5595 0.4327 0.7129 0.2150 Uiso
H19D H 0.5673 0.7871 0.5595 0.2150 Uiso
H19R H 0.4327 0.7129 0.5595 0.2150 Uiso
C20N C 0.6972(4) 0.5415(4) 0.3329(4) 0.2153 Uani
C20H C 0.5415(4) 0.6671(4) 0.8028(4) 0.2153 Uani
C20V C 0.5415(4) 0.3329(4) 0.6972(4) 0.2153 Uani
C20D C 0.6671(4) 0.8028(4) 0.5415(4) 0.2153 Uani
C20R C 0.3329(4) 0.6972(4) 0.5415(4) 0.2153 Uani
H20N H 0.6891 0.5753 0.3256 0.3230 Uiso
H20H H 0.5753 0.6744 0.8109 0.3230 Uiso
H20V H 0.5753 0.3256 0.6891 0.3230 Uiso
H20D H 0.6744 0.8109 0.5753 0.3230 Uiso
H20R H 0.3256 0.6891 0.5753 0.3230 Uiso
H21N H 0.6875 0.5209 0.3057 0.3230 Uiso
H21H H 0.5209 0.6943 0.8125 0.3230 Uiso
H21V H 0.5209 0.3057 0.6875 0.3230 Uiso
H21D H 0.6943 0.8125 0.5209 0.3230 Uiso
H21R H 0.3057 0.6875 0.5209 0.3230 Uiso
H22N H 0.7323 0.5387 0.3379 0.3230 Uiso
H22H H 0.5387 0.6621 0.7677 0.3230 Uiso
H22V H 0.5387 0.3379 0.7323 0.3230 Uiso
H22D H 0.6621 0.7677 0.5387 0.3230 Uiso
H22R H 0.3379 0.7323 0.5387 0.3230 Uiso
C21N C 0.8424(3) 0.3980(3) 0.5605(3) 0.0813 Uani
C21H C 0.3980(3) 0.4395(3) 0.6576(3) 0.0813 Uani
C21V C 0.3980(3) 0.5605(3) 0.8424(3) 0.0813 Uani
C21D C 0.4395(3) 0.6576(3) 0.3980(3) 0.0813 Uani
C21R C 0.5605(3) 0.8424(3) 0.3980(3) 0.0813 Uani
C22N C 0.8535(3) 0.5018(3) 0.4315(3) 0.0803 Uani
C22H C 0.5018(3) 0.5685(3) 0.6465(3) 0.0803 Uani
C22V C 0.5018(3) 0.4315(3) 0.8535(3) 0.0803 Uani
C22D C 0.5685(3) 0.6465(3) 0.5018(3) 0.0803 Uani
C22R C 0.4315(3) 0.8535(3) 0.5018(3) 0.0803 Uani
C22U C 0.9982(3) 0.5685(3) 0.3535(3) 0.0803 Uani
C22S C 0.9315(3) 0.6465(3) 0.4982(3) 0.0803 Uani
O4N O 0.88813(16) 0.52811(16) 0.41054(16) 0.0880 Uani
O4H O 0.52811(16) 0.58946(16) 0.61187(16) 0.0880 Uani
O4V O 0.52811(16) 0.41054(16) 0.88813(16) 0.0880 Uani
O4D O 0.58946(16) 0.61187(16) 0.52811(16) 0.0880 Uani
O4R O 0.41054(16) 0.88813(16) 0.52811(16) 0.0880 Uani
O4U O 0.97189(16) 0.58946(16) 0.38813(16) 0.0880 Uani
O4S O 0.91054(16) 0.61187(16) 0.47189(16) 0.0880 Uani
O4O O 0.61187(16) 0.47189(16) 0.91054(16) 0.0880 Uani
O4Q O 0.58946(16) 0.38813(16) 0.97189(16) 0.0880 Uani
O4M O 0.38813(16) 0.97189(16) 0.58946(16) 0.0880 Uani
O4W O 0.47189(16) 0.91054(16) 0.61187(16) 0.0880 Uani
Co1N Co 0.89828(3) 0.60172(3) 0.39828(3) 0.0382 Uani
Co1O Co 0.60172(3) 0.39828(3) 0.89828(3) 0.0382 Uani
Co1M Co 0.39828(3) 0.89828(3) 0.60172(3) 0.0382 Uani
O5D O 0.67915(15) 0.61247(16) 0.58814(17) 0.0567 Uani
O5H O 0.58814(17) 0.67915(15) 0.61247(16) 0.0567 Uani
O5N O 0.88753(16) 0.58814(17) 0.32085(15) 0.0567 Uani
O5S O 0.82085(15) 0.61247(16) 0.41186(17) 0.0567 Uani
O5U O 0.91186(17) 0.67915(15) 0.38753(16) 0.0567 Uani
O5O O 0.61247(16) 0.41186(17) 0.82085(15) 0.0567 Uani
O5Q O 0.67915(15) 0.38753(16) 0.91186(17) 0.0567 Uani
O5V O 0.58814(17) 0.32085(15) 0.88753(16) 0.0567 Uani
O5M O 0.38753(16) 0.91186(17) 0.67915(15) 0.0567 Uani
O5R O 0.32085(15) 0.88753(16) 0.58814(17) 0.0567 Uani
O5W O 0.41186(17) 0.82085(15) 0.61247(16) 0.0567 Uani
C23N C 0.9111(5) 0.1994(4) 0.4528(6) 0.3327 Uani
C23H C 0.1994(4) 0.5472(6) 0.5889(5) 0.3327 Uani
C23V C 0.1994(4) 0.4528(6) 0.9111(5) 0.3327 Uani
C23D C 0.5472(6) 0.5889(5) 0.1994(4) 0.3327 Uani
C23R C 0.4528(6) 0.9111(5) 0.1994(4) 0.3327 Uani
H23N H 0.8998 0.2021 0.4863 0.4970 Uiso
H23H H 0.2021 0.5137 0.6002 0.4970 Uiso
H23V H 0.2021 0.4863 0.8998 0.4970 Uiso
H23D H 0.5137 0.6002 0.2021 0.4970 Uiso
H23R H 0.4863 0.8998 0.2021 0.4970 Uiso
H24N H 0.9411 0.2179 0.4489 0.4970 Uiso
H24H H 0.2179 0.5511 0.5589 0.4970 Uiso
H24V H 0.2179 0.4489 0.9411 0.4970 Uiso
H24D H 0.5511 0.5589 0.2179 0.4970 Uiso
H24R H 0.4489 0.9411 0.2179 0.4970 Uiso
H25N H 0.9172 0.1652 0.4452 0.4970 Uiso
H25H H 0.1652 0.5548 0.5828 0.4970 Uiso
H25V H 0.1652 0.4452 0.9172 0.4970 Uiso
H25D H 0.5548 0.5828 0.1652 0.4970 Uiso
H25R H 0.4452 0.9172 0.1652 0.4970 Uiso
C24N C 0.6949(5) 0.2910(4) 0.4055(4) 0.2030 Uani
C24H C 0.2910(4) 0.5945(4) 0.8051(5) 0.2030 Uani
C24V C 0.2910(4) 0.4055(4) 0.6949(5) 0.2030 Uani
C24D C 0.5945(4) 0.8051(5) 0.2910(4) 0.2030 Uani
C24R C 0.4055(4) 0.6949(5) 0.2910(4) 0.2030 Uani
H26N H 0.7046 0.2594 0.4185 0.3040 Uiso
H26H H 0.2594 0.5815 0.7954 0.3040 Uiso
H26V H 0.2594 0.4185 0.7046 0.3040 Uiso
H26D H 0.5815 0.7954 0.2594 0.3040 Uiso
H26R H 0.4185 0.7046 0.2594 0.3040 Uiso
H27N H 0.7088 0.2952 0.3731 0.3040 Uiso
H27H H 0.2952 0.6269 0.7912 0.3040 Uiso
H27V H 0.2952 0.3731 0.7088 0.3040 Uiso
H27D H 0.6269 0.7912 0.2952 0.3040 Uiso
H27R H 0.3731 0.7088 0.2952 0.3040 Uiso
H28N H 0.6595 0.2926 0.4035 0.3040 Uiso
H28H H 0.2926 0.5965 0.8405 0.3040 Uiso
H28V H 0.2926 0.4035 0.6595 0.3040 Uiso
H28D H 0.5965 0.8405 0.2926 0.3040 Uiso
H28R H 0.4035 0.6595 0.2926 0.3040 Uiso
C25N C 0.8311(6) 0.1912(4) 0.4244(8) 0.3463 Uani
C25H C 0.1912(4) 0.5756(8) 0.6689(6) 0.3463 Uani
C25V C 0.1912(4) 0.4244(8) 0.8311(6) 0.3463 Uani
C25D C 0.5756(8) 0.6689(6) 0.1912(4) 0.3463 Uani
C25R C 0.4244(8) 0.8311(6) 0.1912(4) 0.3463 Uani
H29N H 0.8045 0.2038 0.4047 0.5160 Uiso
H29H H 0.2038 0.5953 0.6955 0.5160 Uiso
H29V H 0.2038 0.4047 0.8045 0.5160 Uiso
H29D H 0.5953 0.6955 0.2038 0.5160 Uiso
H29R H 0.4047 0.8045 0.2038 0.5160 Uiso
H30N H 0.8218 0.1917 0.4587 0.5160 Uiso
H30H H 0.1917 0.5413 0.6782 0.5160 Uiso
H30V H 0.1917 0.4587 0.8218 0.5160 Uiso
H30D H 0.5413 0.6782 0.1917 0.5160 Uiso
H30R H 0.4587 0.8218 0.1917 0.5160 Uiso
H31N H 0.8383 0.1578 0.4147 0.5160 Uiso
H31H H 0.1578 0.5853 0.6617 0.5160 Uiso
H31V H 0.1578 0.4147 0.8383 0.5160 Uiso
H31D H 0.5853 0.6617 0.1578 0.5160 Uiso
H31R H 0.4147 0.8383 0.1578 0.5160 Uiso
loop_
_atom_site_aniso_label
_atom_site_aniso_U_11
_atom_site_aniso_U_22
_atom_site_aniso_U_33
_atom_site_aniso_U_23
_atom_site_aniso_U_13
_atom_site_aniso_U_12
K1 0.0798(16) 0.0766(15) 0.0882(16) 0.000 0.0224(12) 0.000
O1 0.088(3) 0.060(3) 0.080(3) 0.001(2) 0.032(3) 0.004(3)
O2 0.086(4) 0.081(3) 0.099(4) 0.003(3) 0.015(3) 0.001(3)
C1 0.080(5) 0.049(5) 0.081(6) 0.006(4) 0.014(4) -0.019(4)
O3 0.136(5) 0.080(5) 0.154(6) 0.026(4) 0.036(4) 0.012(4)
C2 0.100(5) 0.054(5) 0.068(5) 0.021(4) 0.013(4) -0.005(5)
C3 0.076(5) 0.096(6) 0.100(6) 0.006(5) -0.006(5) -0.002(4)
C4 0.107(7) 0.048(5) 0.183(8) 0.009(5) 0.022(6) 0.007(5)
C5 0.068(5) 0.078(6) 0.094(6) -0.001(5) 0.017(4) 0.006(4)
C6 0.077(5) 0.068(5) 0.083(6) -0.006(5) -0.001(4) -0.019(4)
C7 0.081(5) 0.061(5) 0.134(8) -0.011(5) 0.021(5) -0.015(4)
C8 0.092(6) 0.099(7) 0.099(6) 0.028(6) -0.003(5) -0.020(5)
C9 0.094(6) 0.066(6) 0.133(8) 0.007(6) -0.004(6) 0.004(5)
C10 0.135(8) 0.046(5) 0.065(5) -0.003(4) -0.025(5) 0.007(5)
C11 0.41(2) 0.190(13) 0.227(15) -0.012(11) 0.156(16) -0.133(13)
C12 0.233(13) 0.044(6) 0.168(10) 0.007(6) -0.006(9) 0.008(7)
C13 0.066(5) 0.082(6) 0.089(6) -0.009(5) -0.013(4) -0.010(5)
C14 0.123(7) 0.097(6) 0.099(6) 0.027(5) 0.015(5) -0.025(5)
C15 0.100(6) 0.066(5) 0.082(5) 0.009(4) 0.001(4) -0.007(4)
C16 0.105(6) 0.075(6) 0.100(6) -0.005(5) -0.002(5) -0.028(5)
C17 0.081(5) 0.076(5) 0.089(5) 0.005(5) 0.001(5) -0.028(5)
C18 0.147(8) 0.093(6) 0.149(8) -0.001(5) -0.074(6) -0.016(5)
C19 0.152(8) 0.102(7) 0.177(9) 0.024(7) -0.045(7) -0.040(6)
C20 0.203(11) 0.251(13) 0.192(10) -0.106(10) 0.127(9) -0.129(10)
C21 0.076 0.082 0.086 0.007 0.009 0.03
C22 0.071(6) 0.092(7) 0.078(5) 0.016(5) 0.005(4) -0.007(5)
O4 0.082(3) 0.078(3) 0.104(4) 0.018(3) 0.040(3) 0.008(3)
Co1 0.0382(4) 0.0382(4) 0.0382(4) 0.0029(5) 0.0029(5) 0.0029(5)
O5 0.058(3) 0.076(4) 0.036(3) 0.006(2) 0.001(2) -0.005(3)
C23 0.36(2) 0.148(10) 0.49(3) 0.082(13) -0.212(19) -0.205(13)
C24 0.297(16) 0.107(8) 0.205(13) 0.015(9) 0.039(11) -0.048(10)
C25 0.32(2) 0.059(8) 0.66(4) 0.066(14) -0.03(2) -0.080(11)
K1H 0.0766 0.0882 0.0798 0.0224 0 0
K1D 0.0882 0.0798 0.0766 0 0 0.0224
O1N 0.088 0.06 0.08 -0.001 0.032 -0.004
O1H 0.06 0.08 0.088 0.032 0.004 0.001
O1V 0.06 0.08 0.088 0.032 -0.004 -0.001
O1D 0.08 0.088 0.06 0.004 0.001 0.032
O1R 0.08 0.088 0.06 -0.004 -0.001 0.032
O2N 0.086 0.081 0.099 -0.003 0.015 -0.001
O2H 0.081 0.099 0.086 0.015 0.001 0.003
O2V 0.081 0.099 0.086 0.015 -0.001 -0.003
O2D 0.099 0.086 0.081 0.001 0.003 0.015
O2R 0.099 0.086 0.081 -0.001 -0.003 0.015
C1N 0.08 0.049 0.081 -0.006 0.014 0.019
C1H 0.049 0.081 0.08 0.014 -0.019 0.006
C1V 0.049 0.081 0.08 0.014 0.019 -0.006
C1D 0.081 0.08 0.049 -0.019 0.006 0.014
C1R 0.081 0.08 0.049 0.019 -0.006 0.014
O3N 0.136 0.08 0.154 -0.026 0.036 -0.012
O3H 0.08 0.154 0.136 0.036 0.012 0.026
O3V 0.08 0.154 0.136 0.036 -0.012 -0.026
O3D 0.154 0.136 0.08 0.012 0.026 0.036
O3R 0.154 0.136 0.08 -0.012 -0.026 0.036
C2N 0.1 0.054 0.068 -0.021 0.013 0.005
C2H 0.054 0.068 0.1 0.013 -0.005 0.021
C2V 0.054 0.068 0.1 0.013 0.005 -0.021
C2D 0.068 0.1 0.054 -0.005 0.021 0.013
C2R 0.068 0.1 0.054 0.005 -0.021 0.013
C3N 0.076 0.096 0.1 -0.006 -0.006 0.002
C3H 0.096 0.1 0.076 -0.006 -0.002 0.006
C3V 0.096 0.1 0.076 -0.006 0.002 -0.006
C3D 0.1 0.076 0.096 -0.002 0.006 -0.006
C3R 0.1 0.076 0.096 0.002 -0.006 -0.006
C4N 0.107 0.048 0.183 -0.009 0.022 -0.007
C4H 0.048 0.183 0.107 0.022 0.007 0.009
C4V 0.048 0.183 0.107 0.022 -0.007 -0.009
C4D 0.183 0.107 0.048 0.007 0.009 0.022
C4R 0.183 0.107 0.048 -0.007 -0.009 0.022
C5N 0.068 0.078 0.094 0.001 0.017 -0.006
C5H 0.078 0.094 0.068 0.017 0.006 -0.001
C5V 0.078 0.094 0.068 0.017 -0.006 0.001
C5D 0.094 0.068 0.078 0.006 -0.001 0.017
C5R 0.094 0.068 0.078 -0.006 0.001 0.017
C6N 0.077 0.068 0.083 0.006 -0.001 0.019
C6H 0.068 0.083 0.077 -0.001 -0.019 -0.006
C6V 0.068 0.083 0.077 -0.001 0.019 0.006
C6D 0.083 0.077 0.068 -0.019 -0.006 -0.001
C6R 0.083 0.077 0.068 0.019 0.006 -0.001
C7N 0.081 0.061 0.134 0.011 0.021 0.015
C7H 0.061 0.134 0.081 0.021 -0.015 -0.011
C7V 0.061 0.134 0.081 0.021 0.015 0.011
C7D 0.134 0.081 0.061 -0.015 -0.011 0.021
C7R 0.134 0.081 0.061 0.015 0.011 0.021
C8N 0.092 0.099 0.099 -0.028 -0.003 0.02
C8H 0.099 0.099 0.092 -0.003 -0.02 0.028
C8V 0.099 0.099 0.092 -0.003 0.02 -0.028
C8D 0.099 0.092 0.099 -0.02 0.028 -0.003
C8R 0.099 0.092 0.099 0.02 -0.028 -0.003
C9N 0.094 0.066 0.133 -0.007 -0.004 -0.004
C9H 0.066 0.133 0.094 -0.004 0.004 0.007
C9V 0.066 0.133 0.094 -0.004 -0.004 -0.007
C9D 0.133 0.094 0.066 0.004 0.007 -0.004
C9R 0.133 0.094 0.066 -0.004 -0.007 -0.004
C10N 0.135 0.046 0.065 0.003 -0.025 -0.007
C10H 0.046 0.065 0.135 -0.025 0.007 -0.003
C10V 0.046 0.065 0.135 -0.025 -0.007 0.003
C10D 0.065 0.135 0.046 0.007 -0.003 -0.025
C10R 0.065 0.135 0.046 -0.007 0.003 -0.025
C11N 0.41 0.19 0.227 0.012 0.156 0.133
C11H 0.19 0.227 0.41 0.156 -0.133 -0.012
C11V 0.19 0.227 0.41 0.156 0.133 0.012
C11D 0.227 0.41 0.19 -0.133 -0.012 0.156
C11R 0.227 0.41 0.19 0.133 0.012 0.156
C12N 0.233 0.044 0.168 -0.007 -0.006 -0.008
C12H 0.044 0.168 0.233 -0.006 0.008 0.007
C12V 0.044 0.168 0.233 -0.006 -0.008 -0.007
C12D 0.168 0.233 0.044 0.008 0.007 -0.006
C12R 0.168 0.233 0.044 -0.008 -0.007 -0.006
C13N 0.066 0.082 0.089 0.009 -0.013 0.01
C13H 0.082 0.089 0.066 -0.013 -0.01 -0.009
C13V 0.082 0.089 0.066 -0.013 0.01 0.009
C13D 0.089 0.066 0.082 -0.01 -0.009 -0.013
C13R 0.089 0.066 0.082 0.01 0.009 -0.013
C14N 0.123 0.097 0.099 -0.027 0.015 0.025
C14H 0.097 0.099 0.123 0.015 -0.025 0.027
C14V 0.097 0.099 0.123 0.015 0.025 -0.027
C14D 0.099 0.123 0.097 -0.025 0.027 0.015
C14R 0.099 0.123 0.097 0.025 -0.027 0.015
C15N 0.1 0.066 0.082 -0.009 0.001 0.007
C15H 0.066 0.082 0.1 0.001 -0.007 0.009
C15V 0.066 0.082 0.1 0.001 0.007 -0.009
C15D 0.082 0.1 0.066 -0.007 0.009 0.001
C15R 0.082 0.1 0.066 0.007 -0.009 0.001
C16N 0.105 0.075 0.1 0.005 -0.002 0.028
C16H 0.075 0.1 0.105 -0.002 -0.028 -0.005
C16V 0.075 0.1 0.105 -0.002 0.028 0.005
C16D 0.1 0.105 0.075 -0.028 -0.005 -0.002
C16R 0.1 0.105 0.075 0.028 0.005 -0.002
C17N 0.081 0.076 0.089 -0.005 0.001 0.028
C17H 0.076 0.089 0.081 0.001 -0.028 0.005
C17V 0.076 0.089 0.081 0.001 0.028 -0.005
C17D 0.089 0.081 0.076 -0.028 0.005 0.001
C17R 0.089 0.081 0.076 0.028 -0.005 0.001
C18N 0.147 0.093 0.149 0.001 -0.074 0.016
C18H 0.093 0.149 0.147 -0.074 -0.016 -0.001
C18V 0.093 0.149 0.147 -0.074 0.016 0.001
C18D 0.149 0.147 0.093 -0.016 -0.001 -0.074
C18R 0.149 0.147 0.093 0.016 0.001 -0.074
C19N 0.152 0.102 0.177 -0.024 -0.045 0.04
C19H 0.102 0.177 0.152 -0.045 -0.04 0.024
C19V 0.102 0.177 0.152 -0.045 0.04 -0.024
C19D 0.177 0.152 0.102 -0.04 0.024 -0.045
C19R 0.177 0.152 0.102 0.04 -0.024 -0.045
C20N 0.203 0.251 0.192 0.106 0.127 0.129
C20H 0.251 0.192 0.203 0.127 -0.129 -0.106
C20V 0.251 0.192 0.203 0.127 0.129 0.106
C20D 0.192 0.203 0.251 -0.129 -0.106 0.127
C20R 0.192 0.203 0.251 0.129 0.106 0.127
C21N 0.076(5) 0.082(6) 0.086(5) -0.007(5) 0.009(4) -0.030(5)
C21H 0.082 0.086 0.076 0.009 0.03 0.007
C21V 0.082 0.086 0.076 0.009 -0.03 -0.007
C21D 0.086 0.076 0.082 0.03 0.007 0.009
C21R 0.086 0.076 0.082 -0.03 -0.007 0.009
C22N 0.071 0.092 0.078 -0.016 0.005 0.007
C22H 0.092 0.078 0.071 0.005 -0.007 0.016
C22V 0.092 0.078 0.071 0.005 0.007 -0.016
C22D 0.078 0.071 0.092 -0.007 0.016 0.005
C22R 0.078 0.071 0.092 0.007 -0.016 0.005
C22U 0.092 0.078 0.071 -0.005 -0.007 -0.016
C22S 0.078 0.071 0.092 0.007 0.016 -0.005
O4N 0.082 0.078 0.104 -0.018 0.04 -0.008
O4H 0.078 0.104 0.082 0.04 0.008 0.018
O4V 0.078 0.104 0.082 0.04 -0.008 -0.018
O4D 0.104 0.082 0.078 0.008 0.018 0.04
O4R 0.104 0.082 0.078 -0.008 -0.018 0.04
O4U 0.078 0.104 0.082 -0.04 0.008 -0.018
O4S 0.104 0.082 0.078 -0.008 0.018 -0.04
O4O 0.082 0.078 0.104 0.018 -0.04 -0.008
O4Q 0.104 0.082 0.078 0.008 -0.018 -0.04
O4M 0.082 0.078 0.104 -0.018 -0.04 0.008
O4W 0.078 0.104 0.082 -0.04 -0.008 0.018
Co1N 0.0382 0.0382 0.0382 -0.0029 0.0029 -0.0029
Co1O 0.0382 0.0382 0.0382 0.0029 -0.0029 -0.0029
Co1M 0.0382 0.0382 0.0382 -0.0029 -0.0029 0.0029
O5D 0.036 0.058 0.076 -0.005 0.006 0.001
O5H 0.076 0.036 0.058 0.001 -0.005 0.006
O5N 0.058 0.076 0.036 -0.006 0.001 0.005
O5S 0.036 0.058 0.076 0.005 0.006 -0.001
O5U 0.076 0.036 0.058 -0.001 -0.005 -0.006
O5O 0.058 0.076 0.036 0.006 -0.001 0.005
O5Q 0.036 0.058 0.076 -0.005 -0.006 -0.001
O5V 0.076 0.036 0.058 0.001 0.005 -0.006
O5M 0.058 0.076 0.036 -0.006 -0.001 -0.005
O5R 0.036 0.058 0.076 0.005 -0.006 0.001
O5W 0.076 0.036 0.058 -0.001 0.005 0.006
C23N 0.36 0.148 0.49 -0.082 -0.212 0.205
C23H 0.148 0.49 0.36 -0.212 -0.205 0.082
C23V 0.148 0.49 0.36 -0.212 0.205 -0.082
C23D 0.49 0.36 0.148 -0.205 0.082 -0.212
C23R 0.49 0.36 0.148 0.205 -0.082 -0.212
C24N 0.297 0.107 0.205 -0.015 0.039 0.048
C24H 0.107 0.205 0.297 0.039 -0.048 0.015
C24V 0.107 0.205 0.297 0.039 0.048 -0.015
C24D 0.205 0.297 0.107 -0.048 0.015 0.039
C24R 0.205 0.297 0.107 0.048 -0.015 0.039
C25N 0.32 0.059 0.66 -0.066 -0.03 0.08
C25H 0.059 0.66 0.32 -0.03 -0.08 0.066
C25V 0.059 0.66 0.32 -0.03 0.08 -0.066
C25D 0.66 0.32 0.059 -0.08 0.066 -0.03
C25R 0.66 0.32 0.059 0.08 -0.066 -0.03
loop_
_geom_bond_atom_site_label_1
_geom_bond_atom_site_label_2
_geom_bond_site_symmetry_1
_geom_bond_site_symmetry_2
K1 O1 1_555 1_555
O1 C1 1_555 1_555
O2 K1 1_555 1_555
C1 C5 1_555 1_555
O3 C10 1_555 1_555
C2 C10 1_555 1_555
C3 H1 1_555 1_555
H2 C3 1_555 1_555
C4 O1 1_555 1_555
H3 C4 1_555 1_555
H4 C4 1_555 1_555
C5 C3 1_555 1_555
C6 C1 1_555 1_555
C7 C5 1_555 1_555
H5 C7 1_555 1_555
C8 C6 1_555 1_555
H6 C8 1_555 1_555
C9 C7 1_555 1_555
C10 C21N 1_555 1_555
C11 H7 1_555 1_555
H8 C11 1_555 1_555
H9 C11 1_555 1_555
C12 C9 1_555 1_555
C13 H10 1_555 1_555
C14 C2 1_555 1_555
H11 C14 1_555 1_555
H12 C14 1_555 1_555
C15 C2 1_555 1_555
H13 C15 1_555 1_555
C16 C17 1_555 1_555
C17 C13 1_555 1_555
C18 C16 1_555 1_555
H14 C18 1_555 1_555
H15 C18 1_555 1_555
H16 C18 1_555 1_555
C19 C16 1_555 1_555
H17 C19 1_555 1_555
H18 C19 1_555 1_555
H19 C19 1_555 1_555
C20 C16 1_555 1_555
H20 C20 1_555 1_555
H21 C20 1_555 1_555
H22 C20 1_555 1_555
C21 C3 1_555 1_555
C22 O2 1_555 1_555
O4 C22 1_555 1_555
Co1 O4 1_555 1_555
O5 Co1 1_555 1_555
C23 C12 1_555 1_555
H23 C23 1_555 1_555
H24 C23 1_555 1_555
H25 C23 1_555 1_555
C24 O3 1_555 1_555
H26 C24 1_555 1_555
H27 C24 1_555 1_555
H28 C24 1_555 1_555
C25 C12 1_555 1_555
H29 C25 1_555 1_555
H30 C25 1_555 1_555
H31 C25 1_555 1_555
K1H O1H 1_555 1_555
K1D O1D 1_555 1_555
O1N K1 1_555 1_555
O1H C1H 1_555 1_555
O1V K1H 1_555 1_555
O1D C1D 1_555 1_555
O1R K1D 1_555 1_555
O2N K1 1_555 1_555
O2H K1H 1_555 1_555
O2V K1H 1_555 1_555
O2D K1D 1_555 1_555
O2R K1D 1_555 1_555
C1N O1N 1_555 1_555
C1H C5H 1_555 1_555
C1V O1V 1_555 1_555
C1D C5D 1_555 1_555
C1R O1R 1_555 1_555
O3N C10N 1_555 1_555
O3H C10H 1_555 1_555
O3V C10V 1_555 1_555
O3D C10D 1_555 1_555
O3R C10R 1_555 1_555
C2N C10N 1_555 1_555
C2H C10H 1_555 1_555
C2V C10V 1_555 1_555
C2D C10D 1_555 1_555
C2R C10R 1_555 1_555
C3N H1N 1_555 1_555
C3H H1H 1_555 1_555
C3V H1V 1_555 1_555
C3D H1D 1_555 1_555
C3R H1R 1_555 1_555
H2N C3N 1_555 1_555
H2H C3H 1_555 1_555
H2V C3V 1_555 1_555
H2D C3D 1_555 1_555
H2R C3R 1_555 1_555
C4N O1N 1_555 1_555
C4H O1H 1_555 1_555
C4V O1V 1_555 1_555
C4D O1D 1_555 1_555
C4R O1R 1_555 1_555
H3N C4N 1_555 1_555
H3H C4H 1_555 1_555
H3V C4V 1_555 1_555
H3D C4D 1_555 1_555
H3R C4R 1_555 1_555
H4N C4N 1_555 1_555
H4H C4H 1_555 1_555
H4V C4V 1_555 1_555
H4D C4D 1_555 1_555
H4R C4R 1_555 1_555
C5N C1N 1_555 1_555
C5H C3H 1_555 1_555
C5V C1V 1_555 1_555
C5D C3D 1_555 1_555
C5R C1R 1_555 1_555
C6N C1N 1_555 1_555
C6H C1H 1_555 1_555
C6V C1V 1_555 1_555
C6D C1D 1_555 1_555
C6R C1R 1_555 1_555
C7N C5N 1_555 1_555
C7H C5H 1_555 1_555
C7V C5V 1_555 1_555
C7D C5D 1_555 1_555
C7R C5R 1_555 1_555
H5N C7N 1_555 1_555
H5H C7H 1_555 1_555
H5V C7V 1_555 1_555
H5D C7D 1_555 1_555
H5R C7R 1_555 1_555
C8N C6N 1_555 1_555
C8H C6H 1_555 1_555
C8V C6V 1_555 1_555
C8D C6D 1_555 1_555
C8R C6R 1_555 1_555
H6N C8N 1_555 1_555
H6H C8H 1_555 1_555
H6V C8V 1_555 1_555
H6D C8D 1_555 1_555
H6R C8R 1_555 1_555
C9N C7N 1_555 1_555
C9H C7H 1_555 1_555
C9V C7V 1_555 1_555
C9D C7D 1_555 1_555
C9R C7R 1_555 1_555
C10N C21 1_555 1_555
C10H C21V 1_555 1_555
C10V C21H 1_555 1_555
C10D C21R 1_555 1_555
C10R C21D 1_555 1_555
C11N H7N 1_555 1_555
C11H H7H 1_555 1_555
C11V H7V 1_555 1_555
C11D H7D 1_555 1_555
C11R H7R 1_555 1_555
H8N C11N 1_555 1_555
H8H C11H 1_555 1_555
H8V C11V 1_555 1_555
H8D C11D 1_555 1_555
H8R C11R 1_555 1_555
H9N C11N 1_555 1_555
H9H C11H 1_555 1_555
H9V C11V 1_555 1_555
H9D C11D 1_555 1_555
H9R C11R 1_555 1_555
C12N C9N 1_555 1_555
C12H C9H 1_555 1_555
C12V C9V 1_555 1_555
C12D C9D 1_555 1_555
C12R C9R 1_555 1_555
C13N C21 1_555 1_555
C13H H10H 1_555 1_555
C13V H10V 1_555 1_555
C13D H10D 1_555 1_555
C13R H10R 1_555 1_555
H10N C13N 1_555 1_555
C14N C2N 1_555 1_555
C14H C2H 1_555 1_555
C14V C2V 1_555 1_555
C14D C2D 1_555 1_555
C14R C2R 1_555 1_555
H11N C14N 1_555 1_555
H11H C14H 1_555 1_555
H11V C14V 1_555 1_555
H11D C14D 1_555 1_555
H11R C14R 1_555 1_555
H12N C14N 1_555 1_555
H12H C14H 1_555 1_555
H12V C14V 1_555 1_555
H12D C14D 1_555 1_555
H12R C14R 1_555 1_555
C15N C2N 1_555 1_555
C15H C2H 1_555 1_555
C15V C2V 1_555 1_555
C15D C2D 1_555 1_555
C15R C2R 1_555 1_555
H13N C15N 1_555 1_555
H13H C15H 1_555 1_555
H13V C15V 1_555 1_555
H13D C15D 1_555 1_555
H13R C15R 1_555 1_555
C16N C17N 1_555 1_555
C16H C17H 1_555 1_555
C16V C17V 1_555 1_555
C16D C17D 1_555 1_555
C16R C17R 1_555 1_555
C17N C13N 1_555 1_555
C17H C13H 1_555 1_555
C17V C13V 1_555 1_555
C17D C13D 1_555 1_555
C17R C13R 1_555 1_555
C18N C16N 1_555 1_555
C18H C16H 1_555 1_555
C18V C16V 1_555 1_555
C18D C16D 1_555 1_555
C18R C16R 1_555 1_555
H14N C18N 1_555 1_555
H14H C18H 1_555 1_555
H14V C18V 1_555 1_555
H14D C18D 1_555 1_555
H14R C18R 1_555 1_555
H15N C18N 1_555 1_555
H15H C18H 1_555 1_555
H15V C18V 1_555 1_555
H15D C18D 1_555 1_555
H15R C18R 1_555 1_555
H16N C18N 1_555 1_555
H16H C18H 1_555 1_555
H16V C18V 1_555 1_555
H16D C18D 1_555 1_555
H16R C18R 1_555 1_555
C19N C16N 1_555 1_555
C19H C16H 1_555 1_555
C19V C16V 1_555 1_555
C19D C16D 1_555 1_555
C19R C16R 1_555 1_555
H17N C19N 1_555 1_555
H17H C19H 1_555 1_555
H17V C19V 1_555 1_555
H17D C19D 1_555 1_555
H17R C19R 1_555 1_555
H18N C19N 1_555 1_555
H18H C19H 1_555 1_555
H18V C19V 1_555 1_555
H18D C19D 1_555 1_555
H18R C19R 1_555 1_555
H19N C19N 1_555 1_555
H19H C19H 1_555 1_555
H19V C19V 1_555 1_555
H19D C19D 1_555 1_555
H19R C19R 1_555 1_555
C20N C16N 1_555 1_555
C20H C16H 1_555 1_555
C20V C16V 1_555 1_555
C20D C16D 1_555 1_555
C20R C16R 1_555 1_555
H20N C20N 1_555 1_555
H20H C20H 1_555 1_555
H20V C20V 1_555 1_555
H20D C20D 1_555 1_555
H20R C20R 1_555 1_555
H21N C20N 1_555 1_555
H21H C20H 1_555 1_555
H21V C20V 1_555 1_555
H21D C20D 1_555 1_555
H21R C20R 1_555 1_555
H22N C20N 1_555 1_555
H22H C20H 1_555 1_555
H22V C20V 1_555 1_555
H22D C20D 1_555 1_555
H22R C20R 1_555 1_555
C21N C13 1_555 1_555
C21H C3H 1_555 1_555
C21V C3V 1_555 1_555
C21D C3D 1_555 1_555
C21R C3R 1_555 1_555
C22N O2N 1_555 1_555
C22H O2H 1_555 1_555
C22V O2V 1_555 1_555
C22D O2D 1_555 1_555
C22R O2R 1_555 1_555
C22U O4U 1_555 1_555
C22S O4S 1_555 1_555
O4N C22N 1_555 1_555
O4H Co1 1_555 1_555
O4V C22V 1_555 1_555
O4D Co1 1_555 1_555
O4R C22R 1_555 1_555
O4U Co1N 1_555 1_555
O4S Co1N 1_555 1_555
O4O Co1O 1_555 1_555
O4Q Co1O 1_555 1_555
O4M Co1M 1_555 1_555
O4W Co1M 1_555 1_555
Co1N O4N 1_555 1_555
Co1O O4V 1_555 1_555
Co1M O4R 1_555 1_555
O5D Co1 1_555 1_555
O5H Co1 1_555 1_555
O5N Co1N 1_555 1_555
O5S Co1N 1_555 1_555
O5U Co1N 1_555 1_555
O5O Co1O 1_555 1_555
O5Q Co1O 1_555 1_555
O5V Co1O 1_555 1_555
O5M Co1M 1_555 1_555
O5R Co1M 1_555 1_555
O5W Co1M 1_555 1_555
C23N C12N 1_555 1_555
C23H C12H 1_555 1_555
C23V C12V 1_555 1_555
C23D C12D 1_555 1_555
C23R C12R 1_555 1_555
H23N C23N 1_555 1_555
H23H C23H 1_555 1_555
H23V C23V 1_555 1_555
H23D C23D 1_555 1_555
H23R C23R 1_555 1_555
H24N C23N 1_555 1_555
H24H C23H 1_555 1_555
H24V C23V 1_555 1_555
H24D C23D 1_555 1_555
H24R C23R 1_555 1_555
H25N C23N 1_555 1_555
H25H C23H 1_555 1_555
H25V C23V 1_555 1_555
H25D C23D 1_555 1_555
H25R C23R 1_555 1_555
C24N O3N 1_555 1_555
C24H O3H 1_555 1_555
C24V O3V 1_555 1_555
C24D O3D 1_555 1_555
C24R O3R 1_555 1_555
H26N C24N 1_555 1_555
H26H C24H 1_555 1_555
H26V C24V 1_555 1_555
H26D C24D 1_555 1_555
H26R C24R 1_555 1_555
H27N C24N 1_555 1_555
H27H C24H 1_555 1_555
H27V C24V 1_555 1_555
H27D C24D 1_555 1_555
H27R C24R 1_555 1_555
H28N C24N 1_555 1_555
H28H C24H 1_555 1_555
H28V C24V 1_555 1_555
H28D C24D 1_555 1_555
H28R C24R 1_555 1_555
C25N C12N 1_555 1_555
C25H C12H 1_555 1_555
C25V C12V 1_555 1_555
C25D C12D 1_555 1_555
C25R C12R 1_555 1_555
H29N C25N 1_555 1_555
H29H C25H 1_555 1_555
H29V C25V 1_555 1_555
H29D C25D 1_555 1_555
H29R C25R 1_555 1_555
H30N C25N 1_555 1_555
H30H C25H 1_555 1_555
H30V C25V 1_555 1_555
H30D C25D 1_555 1_555
H30R C25R 1_555 1_555
H31N C25N 1_555 1_555
H31H C25H 1_555 1_555
H31V C25V 1_555 1_555
H31D C25D 1_555 1_555
H31R C25R 1_555 1_555
C4 C22 1_555 1_555
C6 C14 1_555 1_555
C8 C9 1_555 1_555
C11 C12 1_555 1_555
C15 C17 1_555 1_555
C3N C5N 1_555 1_555
C3N C21N 1_555 1_555
C3V C5V 1_555 1_555
C3R C5R 1_555 1_555
C4N C22N 1_555 1_555
C4H C22H 1_555 1_555
C4V C22V 1_555 1_555
C4D C22D 1_555 1_555
C4R C22R 1_555 1_555
C6N C14N 1_555 1_555
C6H C14H 1_555 1_555
C6V C14V 1_555 1_555
C6D C14D 1_555 1_555
C6R C14R 1_555 1_555
C8N C9N 1_555 1_555
C8H C9H 1_555 1_555
C8V C9V 1_555 1_555
C8D C9D 1_555 1_555
C8R C9R 1_555 1_555
C11N C12N 1_555 1_555
C11H C12H 1_555 1_555
C11V C12V 1_555 1_555
C11D C12D 1_555 1_555
C11R C12R 1_555 1_555
C13H C21V 1_555 1_555
C13V C21H 1_555 1_555
C13D C21R 1_555 1_555
C13R C21D 1_555 1_555
C15N C17N 1_555 1_555
C15H C17H 1_555 1_555
C15V C17V 1_555 1_555
C15D C17D 1_555 1_555
C15R C17R 1_555 1_555
C22H O4H 1_555 1_555
C22D O4D 1_555 1_555

#END
