
#######################################################################
#
#                 Cambridge Crystallographic Data Centre
#                                CCDC 
#
#######################################################################
#
# If this CIF has been generated from an entry in the Cambridge 
# Structural Database, then it will include bibliographic, chemical, 
# crystal, experimental, refinement or atomic coordinate data resulting 
# from the CCDC's data processing and validation procedures.
#
#######################################################################

data_LOPZAS
_chemical_formula_moiety         'C162 H198 Co4 O54 Rb9'
_symmetry_cell_setting           cubic
_symmetry_space_group_name_H-M   'I 21 3'
_symmetry_Int_Tables_number      199
_space_group_name_Hall           'I 2b 2c 3'
loop_
_symmetry_equiv_pos_site_id
_symmetry_equiv_pos_as_xyz
1 x,y,z
2 -x,1/2-y,z
3 x,-y,1/2-z
4 -x,1/2+y,1/2-z
5 z,x,y
6 -z,1/2-x,y
7 z,-x,1/2-y
8 -z,1/2+x,1/2-y
9 y,z,x
10 y,-z,1/2-x
11 -y,1/2+z,1/2-x
12 -y,1/2-z,x
13 1/2+x,1/2+y,1/2+z
14 1/2-x,-y,1/2+z
15 1/2+x,1/2-y,-z
16 1/2-x,y,-z
17 1/2+z,1/2+x,1/2+y
18 1/2-z,-x,1/2+y
19 1/2+z,1/2-x,-y
20 1/2-z,x,-y
21 1/2+y,1/2+z,1/2+x
22 1/2+y,1/2-z,-x
23 1/2-y,z,-x
24 1/2-y,-z,1/2+x
_cell_length_a                   27.083(5)
_cell_length_b                   27.083(5)
_cell_length_c                   27.083(5)
_cell_angle_alpha                90
_cell_angle_beta                 90
_cell_angle_gamma                90
_cell_volume                     19865.1
loop_
_atom_site_label
_atom_site_type_symbol
_atom_site_fract_x
_atom_site_fract_y
_atom_site_fract_z
_atom_site_U_iso_or_equiv
_atom_site_thermal_displace_type
Rb1 Rb 0.2500 0.03401(5) 0.5000 0.0638 Uani
Co1 Co 0.10067(4) -0.10067(4) 0.39933(4) 0.0278 Uani
O1 O 0.1729(2) 0.0800(2) 0.4533(2) 0.0713 Uani
O2 O 0.1853(2) -0.0193(2) 0.4421(3) 0.0823 Uani
C1 C 0.2347(3) 0.1026(4) 0.6094(3) 0.0643 Uani
O3 O 0.0900(2) -0.17780(19) 0.3902(2) 0.0383 Uani
O4 O 0.2112(3) 0.1753(3) 0.5638(3) 0.0957 Uani
C2 C 0.1663(3) 0.1316(3) 0.4486(4) 0.0563 Uani
C3 C 0.1505(4) 0.0577(4) 0.5766(4) 0.0803 Uani
H1 H 0.1188 0.0427 0.5677 0.0960 Uiso
C4 C 0.2008(4) 0.1281(4) 0.5786(3) 0.0683 Uani
C5 C 0.1398(4) 0.1550(3) 0.4827(4) 0.0677 Uani
C6 C 0.1351(4) 0.0539(4) 0.4309(4) 0.0953 Uani
H2 H 0.1303 0.0662 0.3976 0.1140 Uiso
H3 H 0.1047 0.0591 0.4492 0.1140 Uiso
C7 C 0.1687(4) -0.0220(4) 0.6224(4) 0.0843 Uani
C8 C 0.1299(3) 0.2045(4) 0.4735(5) 0.0887 Uani
H4 H 0.1113 0.2224 0.4962 0.1060 Uiso
C9 C 0.1865(4) 0.1534(4) 0.4076(4) 0.0720 Uani
C10 C 0.1821(4) 0.0302(4) 0.6071(4) 0.0687 Uani
C11 C 0.1584(3) 0.1032(4) 0.5618(4) 0.0697 Uani
C12 C 0.2227(4) 0.0528(4) 0.6207(3) 0.0723 Uani
H5 H 0.2435 0.0360 0.6450 0.0870 Uiso
O5 O 0.1090(2) -0.0263(2) 0.4083(2) 0.0680 Uani
C13 C 0.1469(5) -0.0023(4) 0.4291(3) 0.0753 Uani
C14 C 0.1476(4) 0.2287(3) 0.4296(5) 0.0827 Uani
C15 C 0.1744(4) 0.2033(4) 0.3998(4) 0.0827 Uani
H6 H 0.1864 0.2187 0.3716 0.0990 Uiso
C16 C 0.1196(3) 0.1317(4) 0.5294(4) 0.0820 Uani
H7 H 0.0936 0.1088 0.5202 0.0980 Uiso
H8 H 0.1048 0.1574 0.5494 0.0980 Uiso
C17 C 0.1844(8) 0.3129(5) 0.4241(10) 0.2717 Uani
H9 H 0.1791 0.3477 0.4198 0.4040 Uiso
H10 H 0.2049 0.3008 0.3979 0.4040 Uiso
H11 H 0.2002 0.3071 0.4553 0.4040 Uiso
C18 C 0.2178(4) 0.1277(4) 0.3730(4) 0.0867 Uani
H12 H 0.2270 0.1512 0.3476 0.1040 Uiso
H13 H 0.1978 0.1026 0.3572 0.1040 Uiso
C19 C 0.1807(5) -0.0555(4) 0.5758(4) 0.1167 Uani
H14 H 0.1600 -0.0459 0.5487 0.1750 Uiso
H15 H 0.1747 -0.0895 0.5838 0.1750 Uiso
H16 H 0.2147 -0.0514 0.5667 0.1750 Uiso
C20 C 0.2024(5) -0.0418(5) 0.6661(5) 0.1560 Uani
H17 H 0.1927 -0.0748 0.6745 0.2340 Uiso
H18 H 0.1985 -0.0208 0.6944 0.2340 Uiso
H19 H 0.2363 -0.0416 0.6559 0.2340 Uiso
C21 C 0.0925(7) 0.3044(5) 0.4558(7) 0.2157 Uani
H20 H 0.0865 0.3383 0.4475 0.3230 Uiso
H21 H 0.1033 0.3022 0.4895 0.3230 Uiso
H22 H 0.0626 0.2858 0.4518 0.3230 Uiso
C22 C 0.1126(8) 0.2863(5) 0.3734(8) 0.2327 Uani
H23 H 0.1019 0.3194 0.3663 0.3490 Uiso
H24 H 0.0851 0.2641 0.3702 0.3490 Uiso
H25 H 0.1381 0.2770 0.3508 0.3490 Uiso
C23 C 0.1184(4) -0.0312(4) 0.6358(4) 0.1053 Uani
H26 H 0.0970 -0.0207 0.6095 0.1580 Uiso
H27 H 0.1105 -0.0132 0.6653 0.1580 Uiso
H28 H 0.1138 -0.0659 0.6415 0.1580 Uiso
C24 C 0.1312(6) 0.2841(4) 0.4230(6) 0.1227 Uani
C25 C 0.1985(8) 0.2131(6) 0.5874(8) 0.2400 Uani
H29 H 0.2088 0.2420 0.5698 0.3600 Uiso
H30 H 0.2137 0.2126 0.6194 0.3600 Uiso
H31 H 0.1633 0.2134 0.5911 0.3600 Uiso
Rb1J Rb -0.03401(5) 0.0000 0.2500 0.0638 Uani
Rb1P Rb 0.0000 -0.2500 0.53401(5) 0.0638 Uani
Rb1F Rb 0.5000 -0.2500 0.46599(5) 0.0638 Uani
Rb1T Rb 0.53401(5) 0.0000 0.7500 0.0638 Uani
Rb1B Rb 0.2500 -0.03401(5) 0.0000 0.0638 Uani
Rb1R Rb -0.0000 0.2500 -0.03401(5) 0.0638 Uani
Rb1A Rb -0.2500 -0.53401(5) 0.5000 0.0638 Uani
Rb1H Rb 0.03401(5) -0.5000 0.2500 0.0638 Uani
Co1F Co 0.39933(4) -0.10067(4) 0.60067(4) 0.0278 Uani
Co1B Co 0.10067(4) 0.10067(4) 0.10067(4) 0.0278 Uani
Co1A Co -0.10067(4) -0.39933(4) 0.39933(4) 0.0278 Uani
O1O O 0.3271(2) 0.0800(2) 0.5467(2) 0.0713 Uani
O1J O -0.0800(2) -0.0467(2) 0.3271(2) 0.0713 Uani
O1Q O 0.0467(2) -0.1729(2) 0.5800(2) 0.0713 Uani
O1K O -0.0800(2) 0.0467(2) 0.1729(2) 0.0713 Uani
O1P O -0.0467(2) -0.3271(2) 0.5800(2) 0.0713 Uani
O1F O 0.4533(2) -0.1729(2) 0.4200(2) 0.0713 Uani
O1T O 0.5800(2) -0.0467(2) 0.6729(2) 0.0713 Uani
O1B O 0.1729(2) -0.0800(2) 0.0467(2) 0.0713 Uani
O1S O 0.0467(2) 0.1729(2) -0.0800(2) 0.0713 Uani
O1A O -0.1729(2) -0.5800(2) 0.4533(2) 0.0713 Uani
O1I O 0.0800(2) -0.4533(2) 0.3271(2) 0.0713 Uani
O2O O 0.3147(2) -0.0193(2) 0.5579(3) 0.0823 Uani
O2J O 0.0193(2) -0.0579(3) 0.3147(2) 0.0823 Uani
O2Q O 0.0579(3) -0.1853(2) 0.4807(2) 0.0823 Uani
O2K O 0.0193(2) 0.0579(3) 0.1853(2) 0.0823 Uani
O2P O -0.0579(3) -0.3147(2) 0.4807(2) 0.0823 Uani
O2F O 0.4421(3) -0.1853(2) 0.5193(2) 0.0823 Uani
O2T O 0.4807(2) -0.0579(3) 0.6853(2) 0.0823 Uani
O2B O 0.1853(2) 0.0193(2) 0.0579(3) 0.0823 Uani
O2S O 0.0579(3) 0.1853(2) 0.0193(2) 0.0823 Uani
O2A O -0.1853(2) -0.4807(2) 0.4421(3) 0.0823 Uani
O2I O -0.0193(2) -0.4421(3) 0.3147(2) 0.0823 Uani
C1O C 0.2653(3) 0.1026(4) 0.3906(3) 0.0643 Uani
C1K C -0.1026(4) -0.1094(3) 0.2347(3) 0.0643 Uani
C1P C 0.1094(3) -0.2653(3) 0.6026(4) 0.0643 Uani
C1J C -0.1026(4) 0.1094(3) 0.2653(3) 0.0643 Uani
C1Q C -0.1094(3) -0.2347(3) 0.6026(4) 0.0643 Uani
O3J O 0.17780(19) -0.1098(2) 0.4100(2) 0.0383 Uani
O3Q O 0.1098(2) -0.0900(2) 0.32220(19) 0.0383 Uani
O3F O 0.3902(2) -0.0900(2) 0.67780(19) 0.0383 Uani
O3O O 0.4100(2) -0.17780(19) 0.6098(2) 0.0383 Uani
O3T O 0.32220(19) -0.1098(2) 0.5900(2) 0.0383 Uani
O3B O 0.0900(2) 0.17780(19) 0.1098(2) 0.0383 Uani
O3K O 0.17780(19) 0.1098(2) 0.0900(2) 0.0383 Uani
O3S O 0.1098(2) 0.0900(2) 0.17780(19) 0.0383 Uani
O3A O -0.0900(2) -0.32220(19) 0.3902(2) 0.0383 Uani
O3I O -0.17780(19) -0.3902(2) 0.4100(2) 0.0383 Uani
O3P O -0.1098(2) -0.4100(2) 0.32220(19) 0.0383 Uani
O4O O 0.2888(3) 0.1753(3) 0.4362(3) 0.0957 Uani
O4J O -0.1753(3) 0.0638(3) 0.2888(3) 0.0957 Uani
O4K O -0.1753(3) -0.0638(3) 0.2112(3) 0.0957 Uani
O4Q O -0.0638(3) -0.2112(3) 0.6753(3) 0.0957 Uani
O4P O 0.0638(3) -0.2888(3) 0.6753(3) 0.0957 Uani
C2O C 0.3337(3) 0.1316(3) 0.5514(4) 0.0563 Uani
C2J C -0.1316(3) -0.0514(4) 0.3337(3) 0.0563 Uani
C2Q C 0.0514(4) -0.1663(3) 0.6316(3) 0.0563 Uani
C2K C -0.1316(3) 0.0514(4) 0.1663(3) 0.0563 Uani
C2P C -0.0514(4) -0.3337(3) 0.6316(3) 0.0563 Uani
C3O C 0.3495(4) 0.0577(4) 0.4234(4) 0.0803 Uani
C3J C -0.0577(4) 0.0766(4) 0.3495(4) 0.0803 Uani
C3Q C -0.0766(4) -0.1505(4) 0.5577(4) 0.0803 Uani
C3K C -0.0577(4) -0.0766(4) 0.1505(4) 0.0803 Uani
C3P C 0.0766(4) -0.3495(4) 0.5577(4) 0.0803 Uani
H1O H 0.3812 0.0427 0.4323 0.0960 Uiso
H1J H -0.0427 0.0677 0.3812 0.0960 Uiso
H1Q H -0.0677 -0.1188 0.5427 0.0960 Uiso
H1K H -0.0427 -0.0677 0.1188 0.0960 Uiso
H1P H 0.0677 -0.3812 0.5427 0.0960 Uiso
C4O C 0.2992(4) 0.1281(4) 0.4214(3) 0.0683 Uani
C4J C -0.1281(4) 0.0786(3) 0.2992(4) 0.0683 Uani
C4K C -0.1281(4) -0.0786(3) 0.2008(4) 0.0683 Uani
C4Q C -0.0786(3) -0.2008(4) 0.6281(4) 0.0683 Uani
C4P C 0.0786(3) -0.2992(4) 0.6281(4) 0.0683 Uani
C5O C 0.3602(4) 0.1550(3) 0.5173(4) 0.0677 Uani
C5J C -0.1550(3) -0.0173(4) 0.3602(4) 0.0677 Uani
C5Q C 0.0173(4) -0.1398(4) 0.6550(3) 0.0677 Uani
C5K C -0.1550(3) 0.0173(4) 0.1398(4) 0.0677 Uani
C5P C -0.0173(4) -0.3602(4) 0.6550(3) 0.0677 Uani
C6O C 0.3649(4) 0.0539(4) 0.5691(4) 0.0953 Uani
C6J C -0.0539(4) -0.0691(4) 0.3649(4) 0.0953 Uani
C6Q C 0.0691(4) -0.1351(4) 0.5539(4) 0.0953 Uani
C6K C -0.0539(4) 0.0691(4) 0.1351(4) 0.0953 Uani
C6P C -0.0691(4) -0.3649(4) 0.5539(4) 0.0953 Uani
C6F C 0.4309(4) -0.1351(4) 0.4461(4) 0.0953 Uani
C6T C 0.5539(4) -0.0691(4) 0.6351(4) 0.0953 Uani
C6B C 0.1351(4) -0.0539(4) 0.0691(4) 0.0953 Uani
C6S C 0.0691(4) 0.1351(4) -0.0539(4) 0.0953 Uani
C6A C -0.1351(4) -0.5539(4) 0.4309(4) 0.0953 Uani
C6I C 0.0539(4) -0.4309(4) 0.3649(4) 0.0953 Uani
H2O H 0.3697 0.0662 0.6024 0.1140 Uiso
H2J H -0.0662 -0.1024 0.3697 0.1140 Uiso
H2Q H 0.1024 -0.1303 0.5662 0.1140 Uiso
H2K H -0.0662 0.1024 0.1303 0.1140 Uiso
H2P H -0.1024 -0.3697 0.5662 0.1140 Uiso
H2F H 0.3976 -0.1303 0.4338 0.1140 Uiso
H2T H 0.5662 -0.1024 0.6303 0.1140 Uiso
H2B H 0.1303 -0.0662 0.1024 0.1140 Uiso
H2S H 0.1024 0.1303 -0.0662 0.1140 Uiso
H2A H -0.1303 -0.5662 0.3976 0.1140 Uiso
H2I H 0.0662 -0.3976 0.3697 0.1140 Uiso
H3O H 0.3953 0.0591 0.5508 0.1140 Uiso
H3J H -0.0591 -0.0508 0.3953 0.1140 Uiso
H3Q H 0.0508 -0.1047 0.5591 0.1140 Uiso
H3K H -0.0591 0.0508 0.1047 0.1140 Uiso
H3P H -0.0508 -0.3953 0.5591 0.1140 Uiso
H3F H 0.4492 -0.1047 0.4409 0.1140 Uiso
H3T H 0.5591 -0.0508 0.6047 0.1140 Uiso
H3B H 0.1047 -0.0591 0.0508 0.1140 Uiso
H3S H 0.0508 0.1047 -0.0591 0.1140 Uiso
H3A H -0.1047 -0.5591 0.4492 0.1140 Uiso
H3I H 0.0591 -0.4492 0.3953 0.1140 Uiso
C7O C 0.3313(4) -0.0220(4) 0.3776(4) 0.0843 Uani
C7J C 0.0220(4) 0.1224(4) 0.3313(4) 0.0843 Uani
C7K C 0.0220(4) -0.1224(4) 0.1687(4) 0.0843 Uani
C7Q C -0.1224(4) -0.1687(4) 0.4780(4) 0.0843 Uani
C7P C 0.1224(4) -0.3313(4) 0.4780(4) 0.0843 Uani
C8O C 0.3701(3) 0.2045(4) 0.5265(5) 0.0887 Uani
C8J C -0.2045(4) -0.0265(5) 0.3701(3) 0.0887 Uani
C8Q C 0.0265(5) -0.1299(3) 0.7045(4) 0.0887 Uani
C8K C -0.2045(4) 0.0265(5) 0.1299(3) 0.0887 Uani
C8P C -0.0265(5) -0.3701(3) 0.7045(4) 0.0887 Uani
H4O H 0.3887 0.2224 0.5038 0.1060 Uiso
H4J H -0.2224 -0.0038 0.3887 0.1060 Uiso
H4Q H 0.0038 -0.1113 0.7224 0.1060 Uiso
H4K H -0.2224 0.0038 0.1113 0.1060 Uiso
H4P H -0.0038 -0.3887 0.7224 0.1060 Uiso
C9O C 0.3135(4) 0.1534(4) 0.5924(4) 0.0720 Uani
C9J C -0.1534(4) -0.0924(4) 0.3135(4) 0.0720 Uani
C9Q C 0.0924(4) -0.1865(4) 0.6534(4) 0.0720 Uani
C9K C -0.1534(4) 0.0924(4) 0.1865(4) 0.0720 Uani
C9P C -0.0924(4) -0.3135(4) 0.6534(4) 0.0720 Uani
C10O C 0.3179(4) 0.0302(4) 0.3929(4) 0.0687 Uani
C10J C -0.0302(4) 0.1071(4) 0.3179(4) 0.0687 Uani
C10K C -0.0302(4) -0.1071(4) 0.1821(4) 0.0687 Uani
C10Q C -0.1071(4) -0.1821(4) 0.5302(4) 0.0687 Uani
C10P C 0.1071(4) -0.3179(4) 0.5302(4) 0.0687 Uani
C11O C 0.3416(3) 0.1032(4) 0.4382(4) 0.0697 Uani
C11J C -0.1032(4) 0.0618(4) 0.3416(3) 0.0697 Uani
C11Q C -0.0618(4) -0.1584(3) 0.6032(4) 0.0697 Uani
C11K C -0.1032(4) -0.0618(4) 0.1584(3) 0.0697 Uani
C11P C 0.0618(4) -0.3416(3) 0.6032(4) 0.0697 Uani
C12O C 0.2773(4) 0.0528(4) 0.3793(3) 0.0723 Uani
C12K C -0.0528(4) -0.1207(3) 0.2227(4) 0.0723 Uani
C12P C 0.1207(3) -0.2773(4) 0.5528(4) 0.0723 Uani
C12J C -0.0528(4) 0.1207(3) 0.2773(4) 0.0723 Uani
C12Q C -0.1207(3) -0.2227(4) 0.5528(4) 0.0723 Uani
H5O H 0.2565 0.0360 0.3550 0.0870 Uiso
H5K H -0.0360 -0.1450 0.2435 0.0870 Uiso
H5P H 0.1450 -0.2565 0.5360 0.0870 Uiso
H5J H -0.0360 0.1450 0.2565 0.0870 Uiso
H5Q H -0.1450 -0.2435 0.5360 0.0870 Uiso
O5J O 0.0263(2) -0.0917(2) 0.3910(2) 0.0680 Uani
O5Q O 0.0917(2) -0.1090(2) 0.4737(2) 0.0680 Uani
O5O O 0.3910(2) -0.0263(2) 0.5917(2) 0.0680 Uani
O5K O 0.0263(2) 0.0917(2) 0.1090(2) 0.0680 Uani
O5P O -0.0917(2) -0.3910(2) 0.4737(2) 0.0680 Uani
O5F O 0.4083(2) -0.1090(2) 0.5263(2) 0.0680 Uani
O5T O 0.4737(2) -0.0917(2) 0.6090(2) 0.0680 Uani
O5B O 0.1090(2) 0.0263(2) 0.0917(2) 0.0680 Uani
O5S O 0.0917(2) 0.1090(2) 0.0263(2) 0.0680 Uani
O5A O -0.1090(2) -0.4737(2) 0.4083(2) 0.0680 Uani
O5I O -0.0263(2) -0.4083(2) 0.3910(2) 0.0680 Uani
C13O C 0.3531(5) -0.0023(4) 0.5709(3) 0.0753 Uani
C13J C 0.0023(4) -0.0709(3) 0.3531(5) 0.0753 Uani
C13Q C 0.0709(3) -0.1469(5) 0.4977(4) 0.0753 Uani
C13K C 0.0023(4) 0.0709(3) 0.1469(5) 0.0753 Uani
C13P C -0.0709(3) -0.3531(5) 0.4977(4) 0.0753 Uani
C13F C 0.4291(3) -0.1469(5) 0.5023(4) 0.0753 Uani
C13T C 0.4977(4) -0.0709(3) 0.6469(5) 0.0753 Uani
C13B C 0.1469(5) 0.0023(4) 0.0709(3) 0.0753 Uani
C13S C 0.0709(3) 0.1469(5) 0.0023(4) 0.0753 Uani
C13A C -0.1469(5) -0.4977(4) 0.4291(3) 0.0753 Uani
C13I C -0.0023(4) -0.4291(3) 0.3531(5) 0.0753 Uani
C14O C 0.3524(4) 0.2287(3) 0.5704(5) 0.0827 Uani
C14J C -0.2287(3) -0.0704(5) 0.3524(4) 0.0827 Uani
C14Q C 0.0704(5) -0.1476(4) 0.7287(3) 0.0827 Uani
C14K C -0.2287(3) 0.0704(5) 0.1476(4) 0.0827 Uani
C14P C -0.0704(5) -0.3524(4) 0.7287(3) 0.0827 Uani
C15O C 0.3256(4) 0.2033(4) 0.6002(4) 0.0827 Uani
C15J C -0.2033(4) -0.1002(4) 0.3256(4) 0.0827 Uani
C15Q C 0.1002(4) -0.1744(4) 0.7033(4) 0.0827 Uani
C15K C -0.2033(4) 0.1002(4) 0.1744(4) 0.0827 Uani
C15P C -0.1002(4) -0.3256(4) 0.7033(4) 0.0827 Uani
H6O H 0.3136 0.2187 0.6284 0.0990 Uiso
H6J H -0.2187 -0.1284 0.3136 0.0990 Uiso
H6Q H 0.1284 -0.1864 0.7187 0.0990 Uiso
H6K H -0.2187 0.1284 0.1864 0.0990 Uiso
H6P H -0.1284 -0.3136 0.7187 0.0990 Uiso
C16O C 0.3804(3) 0.1317(4) 0.4706(4) 0.0820 Uani
C16J C -0.1317(4) 0.0294(4) 0.3804(3) 0.0820 Uani
C16Q C -0.0294(4) -0.1196(3) 0.6317(4) 0.0820 Uani
C16K C -0.1317(4) -0.0294(4) 0.1196(3) 0.0820 Uani
C16P C 0.0294(4) -0.3804(3) 0.6317(4) 0.0820 Uani
H7O H 0.4064 0.1088 0.4798 0.0980 Uiso
H7J H -0.1088 0.0202 0.4064 0.0980 Uiso
H7Q H -0.0202 -0.0936 0.6088 0.0980 Uiso
H7K H -0.1088 -0.0202 0.0936 0.0980 Uiso
H7P H 0.0202 -0.4064 0.6088 0.0980 Uiso
H8O H 0.3952 0.1574 0.4506 0.0980 Uiso
H8J H -0.1574 0.0494 0.3952 0.0980 Uiso
H8Q H -0.0494 -0.1048 0.6574 0.0980 Uiso
H8K H -0.1574 -0.0494 0.1048 0.0980 Uiso
H8P H 0.0494 -0.3952 0.6574 0.0980 Uiso
C17O C 0.3156(8) 0.3129(5) 0.5759(10) 0.2717 Uani
C17J C -0.3129(5) -0.0759(10) 0.3156(8) 0.2717 Uani
C17Q C 0.0759(10) -0.1844(8) 0.8129(5) 0.2717 Uani
C17K C -0.3129(5) 0.0759(10) 0.1844(8) 0.2717 Uani
C17P C -0.0759(10) -0.3156(8) 0.8129(5) 0.2717 Uani
H9O H 0.3209 0.3477 0.5802 0.4040 Uiso
H9J H -0.3477 -0.0802 0.3209 0.4040 Uiso
H9Q H 0.0802 -0.1791 0.8477 0.4040 Uiso
H9K H -0.3477 0.0802 0.1791 0.4040 Uiso
H9P H -0.0802 -0.3209 0.8477 0.4040 Uiso
H10O H 0.2951 0.3008 0.6021 0.4040 Uiso
H10J H -0.3008 -0.1021 0.2951 0.4040 Uiso
H10Q H 0.1021 -0.2049 0.8008 0.4040 Uiso
H10K H -0.3008 0.1021 0.2049 0.4040 Uiso
H10P H -0.1021 -0.2951 0.8008 0.4040 Uiso
H11O H 0.2998 0.3071 0.5447 0.4040 Uiso
H11J H -0.3071 -0.0447 0.2998 0.4040 Uiso
H11Q H 0.0447 -0.2002 0.8071 0.4040 Uiso
H11K H -0.3071 0.0447 0.2002 0.4040 Uiso
H11P H -0.0447 -0.2998 0.8071 0.4040 Uiso
C18O C 0.2822(4) 0.1277(4) 0.6270(4) 0.0867 Uani
C18J C -0.1277(4) -0.1270(4) 0.2822(4) 0.0867 Uani
C18Q C 0.1270(4) -0.2178(4) 0.6277(4) 0.0867 Uani
C18K C -0.1277(4) 0.1270(4) 0.2178(4) 0.0867 Uani
C18P C -0.1270(4) -0.2822(4) 0.6277(4) 0.0867 Uani
H12O H 0.2730 0.1512 0.6524 0.1040 Uiso
H12J H -0.1512 -0.1524 0.2730 0.1040 Uiso
H12Q H 0.1524 -0.2270 0.6512 0.1040 Uiso
H12K H -0.1512 0.1524 0.2270 0.1040 Uiso
H12P H -0.1524 -0.2730 0.6512 0.1040 Uiso
H13O H 0.3022 0.1026 0.6428 0.1040 Uiso
H13J H -0.1026 -0.1428 0.3022 0.1040 Uiso
H13Q H 0.1428 -0.1978 0.6026 0.1040 Uiso
H13K H -0.1026 0.1428 0.1978 0.1040 Uiso
H13P H -0.1428 -0.3022 0.6026 0.1040 Uiso
C19O C 0.3193(5) -0.0555(4) 0.4242(4) 0.1167 Uani
C19J C 0.0555(4) 0.0758(4) 0.3193(5) 0.1167 Uani
C19K C 0.0555(4) -0.0758(4) 0.1807(5) 0.1167 Uani
C19Q C -0.0758(4) -0.1807(5) 0.4445(4) 0.1167 Uani
C19P C 0.0758(4) -0.3193(5) 0.4445(4) 0.1167 Uani
H14O H 0.3400 -0.0459 0.4513 0.1750 Uiso
H14J H 0.0459 0.0487 0.3400 0.1750 Uiso
H14K H 0.0459 -0.0487 0.1600 0.1750 Uiso
H14Q H -0.0487 -0.1600 0.4541 0.1750 Uiso
H14P H 0.0487 -0.3400 0.4541 0.1750 Uiso
H15O H 0.3253 -0.0895 0.4162 0.1750 Uiso
H15J H 0.0895 0.0838 0.3253 0.1750 Uiso
H15K H 0.0895 -0.0838 0.1747 0.1750 Uiso
H15Q H -0.0838 -0.1747 0.4105 0.1750 Uiso
H15P H 0.0838 -0.3253 0.4105 0.1750 Uiso
H16O H 0.2853 -0.0514 0.4333 0.1750 Uiso
H16J H 0.0514 0.0667 0.2853 0.1750 Uiso
H16K H 0.0514 -0.0667 0.2147 0.1750 Uiso
H16Q H -0.0667 -0.2147 0.4486 0.1750 Uiso
H16P H 0.0667 -0.2853 0.4486 0.1750 Uiso
C20O C 0.2976(5) -0.0418(5) 0.3339(5) 0.1560 Uani
C20J C 0.0418(5) 0.1661(5) 0.2976(5) 0.1560 Uani
C20K C 0.0418(5) -0.1661(5) 0.2024(5) 0.1560 Uani
C20Q C -0.1661(5) -0.2024(5) 0.4582(5) 0.1560 Uani
C20P C 0.1661(5) -0.2976(5) 0.4582(5) 0.1560 Uani
H17O H 0.3073 -0.0748 0.3255 0.2340 Uiso
H17J H 0.0748 0.1745 0.3073 0.2340 Uiso
H17K H 0.0748 -0.1745 0.1927 0.2340 Uiso
H17Q H -0.1745 -0.1927 0.4252 0.2340 Uiso
H17P H 0.1745 -0.3073 0.4252 0.2340 Uiso
H18O H 0.3015 -0.0208 0.3056 0.2340 Uiso
H18J H 0.0208 0.1944 0.3015 0.2340 Uiso
H18K H 0.0208 -0.1944 0.1985 0.2340 Uiso
H18Q H -0.1944 -0.1985 0.4792 0.2340 Uiso
H18P H 0.1944 -0.3015 0.4792 0.2340 Uiso
H19O H 0.2637 -0.0416 0.3441 0.2340 Uiso
H19J H 0.0416 0.1559 0.2637 0.2340 Uiso
H19K H 0.0416 -0.1559 0.2363 0.2340 Uiso
H19Q H -0.1559 -0.2363 0.4584 0.2340 Uiso
H19P H 0.1559 -0.2637 0.4584 0.2340 Uiso
C21O C 0.4075(7) 0.3044(5) 0.5442(7) 0.2157 Uani
C21J C -0.3044(5) -0.0442(7) 0.4075(7) 0.2157 Uani
C21Q C 0.0442(7) -0.0925(7) 0.8044(5) 0.2157 Uani
C21K C -0.3044(5) 0.0442(7) 0.0925(7) 0.2157 Uani
C21P C -0.0442(7) -0.4075(7) 0.8044(5) 0.2157 Uani
H20O H 0.4135 0.3383 0.5525 0.3230 Uiso
H20J H -0.3383 -0.0525 0.4135 0.3230 Uiso
H20Q H 0.0525 -0.0865 0.8383 0.3230 Uiso
H20K H -0.3383 0.0525 0.0865 0.3230 Uiso
H20P H -0.0525 -0.4135 0.8383 0.3230 Uiso
H21O H 0.3967 0.3022 0.5105 0.3230 Uiso
H21J H -0.3022 -0.0105 0.3967 0.3230 Uiso
H21Q H 0.0105 -0.1033 0.8022 0.3230 Uiso
H21K H -0.3022 0.0105 0.1033 0.3230 Uiso
H21P H -0.0105 -0.3967 0.8022 0.3230 Uiso
H22O H 0.4374 0.2858 0.5482 0.3230 Uiso
H22J H -0.2858 -0.0482 0.4374 0.3230 Uiso
H22Q H 0.0482 -0.0626 0.7858 0.3230 Uiso
H22K H -0.2858 0.0482 0.0626 0.3230 Uiso
H22P H -0.0482 -0.4374 0.7858 0.3230 Uiso
C22O C 0.3874(8) 0.2863(5) 0.6266(8) 0.2327 Uani
C22J C -0.2863(5) -0.1266(8) 0.3874(8) 0.2327 Uani
C22Q C 0.1266(8) -0.1126(8) 0.7863(5) 0.2327 Uani
C22K C -0.2863(5) 0.1266(8) 0.1126(8) 0.2327 Uani
C22P C -0.1266(8) -0.3874(8) 0.7863(5) 0.2327 Uani
H23O H 0.3981 0.3194 0.6337 0.3490 Uiso
H23J H -0.3194 -0.1337 0.3981 0.3490 Uiso
H23Q H 0.1337 -0.1019 0.8194 0.3490 Uiso
H23K H -0.3194 0.1337 0.1019 0.3490 Uiso
H23P H -0.1337 -0.3981 0.8194 0.3490 Uiso
H24O H 0.4149 0.2641 0.6298 0.3490 Uiso
H24J H -0.2641 -0.1298 0.4149 0.3490 Uiso
H24Q H 0.1298 -0.0851 0.7641 0.3490 Uiso
H24K H -0.2641 0.1298 0.0851 0.3490 Uiso
H24P H -0.1298 -0.4149 0.7641 0.3490 Uiso
H25O H 0.3619 0.2770 0.6492 0.3490 Uiso
H25J H -0.2770 -0.1492 0.3619 0.3490 Uiso
H25Q H 0.1492 -0.1381 0.7770 0.3490 Uiso
H25K H -0.2770 0.1492 0.1381 0.3490 Uiso
H25P H -0.1492 -0.3619 0.7770 0.3490 Uiso
C23O C 0.3816(4) -0.0312(4) 0.3642(4) 0.1053 Uani
C23J C 0.0312(4) 0.1358(4) 0.3816(4) 0.1053 Uani
C23K C 0.0312(4) -0.1358(4) 0.1184(4) 0.1053 Uani
C23Q C -0.1358(4) -0.1184(4) 0.4688(4) 0.1053 Uani
C23P C 0.1358(4) -0.3816(4) 0.4688(4) 0.1053 Uani
H26O H 0.4030 -0.0207 0.3905 0.1580 Uiso
H26J H 0.0207 0.1095 0.4030 0.1580 Uiso
H26K H 0.0207 -0.1095 0.0970 0.1580 Uiso
H26Q H -0.1095 -0.0970 0.4793 0.1580 Uiso
H26P H 0.1095 -0.4030 0.4793 0.1580 Uiso
H27O H 0.3895 -0.0132 0.3347 0.1580 Uiso
H27J H 0.0132 0.1653 0.3895 0.1580 Uiso
H27K H 0.0132 -0.1653 0.1105 0.1580 Uiso
H27Q H -0.1653 -0.1105 0.4868 0.1580 Uiso
H27P H 0.1653 -0.3895 0.4868 0.1580 Uiso
H28O H 0.3862 -0.0659 0.3585 0.1580 Uiso
H28J H 0.0659 0.1415 0.3862 0.1580 Uiso
H28K H 0.0659 -0.1415 0.1138 0.1580 Uiso
H28Q H -0.1415 -0.1138 0.4341 0.1580 Uiso
H28P H 0.1415 -0.3862 0.4341 0.1580 Uiso
C24O C 0.3688(6) 0.2841(4) 0.5770(6) 0.1227 Uani
C24J C -0.2841(4) -0.0770(6) 0.3688(6) 0.1227 Uani
C24Q C 0.0770(6) -0.1312(6) 0.7841(4) 0.1227 Uani
C24K C -0.2841(4) 0.0770(6) 0.1312(6) 0.1227 Uani
C24P C -0.0770(6) -0.3688(6) 0.7841(4) 0.1227 Uani
C25O C 0.3015(8) 0.2131(6) 0.4126(8) 0.2400 Uani
C25J C -0.2131(6) 0.0874(8) 0.3015(8) 0.2400 Uani
C25K C -0.2131(6) -0.0874(8) 0.1985(8) 0.2400 Uani
C25Q C -0.0874(8) -0.1985(8) 0.7131(6) 0.2400 Uani
C25P C 0.0874(8) -0.3015(8) 0.7131(6) 0.2400 Uani
H29O H 0.2912 0.2420 0.4302 0.3600 Uiso
H29J H -0.2420 0.0698 0.2912 0.3600 Uiso
H29K H -0.2420 -0.0698 0.2088 0.3600 Uiso
H29Q H -0.0698 -0.2088 0.7420 0.3600 Uiso
H29P H 0.0698 -0.2912 0.7420 0.3600 Uiso
H30O H 0.2863 0.2126 0.3806 0.3600 Uiso
H30J H -0.2126 0.1194 0.2863 0.3600 Uiso
H30K H -0.2126 -0.1194 0.2137 0.3600 Uiso
H30Q H -0.1194 -0.2137 0.7126 0.3600 Uiso
H30P H 0.1194 -0.2863 0.7126 0.3600 Uiso
H31O H 0.3367 0.2134 0.4089 0.3600 Uiso
H31J H -0.2134 0.0911 0.3367 0.3600 Uiso
H31K H -0.2134 -0.0911 0.1633 0.3600 Uiso
H31Q H -0.0911 -0.1633 0.7134 0.3600 Uiso
H31P H 0.0911 -0.3367 0.7134 0.3600 Uiso
loop_
_atom_site_aniso_label
_atom_site_aniso_U_11
_atom_site_aniso_U_22
_atom_site_aniso_U_33
_atom_site_aniso_U_23
_atom_site_aniso_U_13
_atom_site_aniso_U_12
Rb1 0.0631(9) 0.0649(9) 0.0634(9) 0.000 -0.0140(7) 0.000
Co1 0.0278(5) 0.0278(5) 0.0278(5) 0.0048(6) -0.0048(6) -0.0048(6)
O1 0.061(4) 0.065(4) 0.088(5) 0.000(4) -0.034(4) 0.000(3)
O2 0.054(4) 0.075(5) 0.118(6) -0.003(4) -0.028(4) 0.020(4)
C1 0.082(7) 0.065(7) 0.046(6) -0.012(5) 0.004(5) 0.003(6)
O3 0.055(4) 0.019(3) 0.041(4) 0.002(3) 0.000(3) -0.003(3)
O4 0.119(6) 0.046(5) 0.122(6) -0.012(5) -0.007(5) -0.004(4)
C2 0.062(6) 0.031(6) 0.076(7) 0.001(5) -0.002(6) 0.017(5)
C3 0.079(8) 0.069(8) 0.093(8) 0.015(6) 0.006(6) -0.018(6)
C4 0.090(8) 0.067(8) 0.048(6) -0.010(6) 0.022(6) 0.001(7)
C5 0.090(8) 0.042(6) 0.071(7) 0.005(5) -0.010(6) 0.006(6)
C6 0.099(9) 0.067(8) 0.120(9) -0.011(7) -0.004(8) -0.015(6)
C7 0.079(8) 0.064(7) 0.110(9) 0.027(7) 0.003(7) -0.018(6)
C8 0.054(6) 0.079(8) 0.133(11) -0.026(8) -0.024(7) 0.019(6)
C9 0.067(7) 0.070(8) 0.079(8) -0.017(6) 0.008(6) 0.004(6)
C10 0.060(6) 0.076(7) 0.070(7) -0.001(6) -0.007(5) -0.024(6)
C11 0.058(7) 0.079(8) 0.072(7) -0.006(6) -0.002(5) -0.008(6)
C12 0.100(8) 0.062(7) 0.055(6) 0.000(5) 0.011(6) -0.007(6)
O5 0.065(4) 0.051(4) 0.088(4) 0.012(3) -0.026(4) -0.014(3)
C13 0.117(10) 0.049(7) 0.060(7) -0.004(6) 0.023(7) -0.007(7)
C14 0.097(9) 0.045(7) 0.106(9) 0.030(7) -0.001(7) 0.004(6)
C15 0.091(8) 0.059(7) 0.098(8) 0.034(7) 0.038(7) 0.036(6)
C16 0.061(6) 0.089(7) 0.096(8) -0.001(7) 0.005(6) 0.004(6)
C17 0.27(3) 0.075(11) 0.47(4) -0.002(16) 0.05(3) 0.078(15)
C18 0.112(9) 0.074(7) 0.074(7) -0.004(6) -0.032(7) 0.039(7)
C19 0.157(12) 0.067(8) 0.126(10) 0.002(8) 0.029(9) -0.021(8)
C20 0.194(14) 0.171(14) 0.103(10) 0.055(10) -0.083(10) -0.036(11)
C21 0.29(2) 0.067(9) 0.29(2) -0.001(11) 0.12(2) 0.059(12)
C22 0.32(3) 0.078(11) 0.30(3) 0.040(13) -0.13(2) 0.081(14)
C23 0.119(11) 0.105(9) 0.092(8) -0.017(7) 0.021(7) -0.006(8)
C24 0.144(13) 0.065(9) 0.159(13) 0.037(9) -0.018(11) 0.012(9)
C25 0.34(3) 0.110(14) 0.27(3) -0.008(15) -0.17(2) -0.011(16)
Rb1J 0.0649 0.0634 0.0631 0.014 0 0
Rb1P 0.0634 0.0631 0.0649 0 0 -0.014
Rb1F 0.0634 0.0631 0.0649 0 0 0.014
Rb1T 0.0649 0.0634 0.0631 -0.014 0 0
Rb1B 0.0631 0.0649 0.0634 0 0.014 0
Rb1R 0.0634 0.0631 0.0649 0 0 0.014
Rb1A 0.0631 0.0649 0.0634 0 0.014 0
Rb1H 0.0649 0.0634 0.0631 -0.014 0 0
Co1F 0.0278 0.0278 0.0278 -0.0048 -0.0048 0.0048
Co1B 0.0278 0.0278 0.0278 0.0048 0.0048 0.0048
Co1A 0.0278 0.0278 0.0278 -0.0048 0.0048 -0.0048
O1O 0.061 0.065 0.088 0 -0.034 0
O1J 0.065 0.088 0.061 0.034 0 0
O1Q 0.088 0.061 0.065 0 0 -0.034
O1K 0.065 0.088 0.061 0.034 0 0
O1P 0.088 0.061 0.065 0 0 -0.034
O1F 0.088 0.061 0.065 0 0 0.034
O1T 0.065 0.088 0.061 -0.034 0 0
O1B 0.061 0.065 0.088 0 0.034 0
O1S 0.088 0.061 0.065 0 0 0.034
O1A 0.061 0.065 0.088 0 0.034 0
O1I 0.065 0.088 0.061 -0.034 0 0
O2O 0.054 0.075 0.118 0.003 -0.028 -0.02
O2J 0.075 0.118 0.054 0.028 0.02 0.003
O2Q 0.118 0.054 0.075 -0.02 0.003 -0.028
O2K 0.075 0.118 0.054 0.028 -0.02 -0.003
O2P 0.118 0.054 0.075 0.02 -0.003 -0.028
O2F 0.118 0.054 0.075 0.02 0.003 0.028
O2T 0.075 0.118 0.054 -0.028 0.02 -0.003
O2B 0.054 0.075 0.118 -0.003 0.028 -0.02
O2S 0.118 0.054 0.075 -0.02 -0.003 0.028
O2A 0.054 0.075 0.118 0.003 0.028 0.02
O2I 0.075 0.118 0.054 -0.028 -0.02 0.003
C1O 0.082 0.065 0.046 0.012 0.004 -0.003
C1K 0.065 0.046 0.082 -0.004 -0.003 -0.012
C1P 0.046 0.082 0.065 0.003 -0.012 0.004
C1J 0.065 0.046 0.082 -0.004 0.003 0.012
C1Q 0.046 0.082 0.065 -0.003 0.012 0.004
O3J 0.019 0.041 0.055 0 -0.003 -0.002
O3Q 0.041 0.055 0.019 0.003 -0.002 0
O3F 0.041 0.055 0.019 -0.003 -0.002 0
O3O 0.055 0.019 0.041 -0.002 0 0.003
O3T 0.019 0.041 0.055 0 -0.003 0.002
O3B 0.055 0.019 0.041 0.002 0 0.003
O3K 0.019 0.041 0.055 0 0.003 0.002
O3S 0.041 0.055 0.019 0.003 0.002 0
O3A 0.055 0.019 0.041 -0.002 0 -0.003
O3I 0.019 0.041 0.055 0 0.003 -0.002
O3P 0.041 0.055 0.019 -0.003 0.002 0
O4O 0.119 0.046 0.122 0.012 -0.007 0.004
O4J 0.046 0.122 0.119 0.007 -0.004 0.012
O4K 0.046 0.122 0.119 0.007 0.004 -0.012
O4Q 0.122 0.119 0.046 0.004 0.012 -0.007
O4P 0.122 0.119 0.046 -0.004 -0.012 -0.007
C2O 0.062 0.031 0.076 -0.001 -0.002 -0.017
C2J 0.031 0.076 0.062 0.002 0.017 -0.001
C2Q 0.076 0.062 0.031 -0.017 -0.001 -0.002
C2K 0.031 0.076 0.062 0.002 -0.017 0.001
C2P 0.076 0.062 0.031 0.017 0.001 -0.002
C3O 0.079 0.069 0.093 -0.015 0.006 0.018
C3J 0.069 0.093 0.079 -0.006 -0.018 -0.015
C3Q 0.093 0.079 0.069 0.018 -0.015 0.006
C3K 0.069 0.093 0.079 -0.006 0.018 0.015
C3P 0.093 0.079 0.069 -0.018 0.015 0.006
C4O 0.09 0.067 0.048 0.01 0.022 -0.001
C4J 0.067 0.048 0.09 -0.022 0.001 0.01
C4K 0.067 0.048 0.09 -0.022 -0.001 -0.01
C4Q 0.048 0.09 0.067 -0.001 0.01 0.022
C4P 0.048 0.09 0.067 0.001 -0.01 0.022
C5O 0.09 0.042 0.071 -0.005 -0.01 -0.006
C5J 0.042 0.071 0.09 0.01 0.006 -0.005
C5Q 0.071 0.09 0.042 -0.006 -0.005 -0.01
C5K 0.042 0.071 0.09 0.01 -0.006 0.005
C5P 0.071 0.09 0.042 0.006 0.005 -0.01
C6O 0.099 0.067 0.12 0.011 -0.004 0.015
C6J 0.067 0.12 0.099 0.004 -0.015 0.011
C6Q 0.12 0.099 0.067 0.015 0.011 -0.004
C6K 0.067 0.12 0.099 0.004 0.015 -0.011
C6P 0.12 0.099 0.067 -0.015 -0.011 -0.004
C6F 0.12 0.099 0.067 -0.015 0.011 0.004
C6T 0.067 0.12 0.099 -0.004 -0.015 -0.011
C6B 0.099 0.067 0.12 -0.011 0.004 0.015
C6S 0.12 0.099 0.067 0.015 -0.011 0.004
C6A 0.099 0.067 0.12 0.011 0.004 -0.015
C6I 0.067 0.12 0.099 -0.004 0.015 0.011
C7O 0.079 0.064 0.11 -0.027 0.003 0.018
C7J 0.064 0.11 0.079 -0.003 -0.018 -0.027
C7K 0.064 0.11 0.079 -0.003 0.018 0.027
C7Q 0.11 0.079 0.064 0.018 -0.027 0.003
C7P 0.11 0.079 0.064 -0.018 0.027 0.003
C8O 0.054 0.079 0.133 0.026 -0.024 -0.019
C8J 0.079 0.133 0.054 0.024 0.019 0.026
C8Q 0.133 0.054 0.079 -0.019 0.026 -0.024
C8K 0.079 0.133 0.054 0.024 -0.019 -0.026
C8P 0.133 0.054 0.079 0.019 -0.026 -0.024
C9O 0.067 0.07 0.079 0.017 0.008 -0.004
C9J 0.07 0.079 0.067 -0.008 0.004 0.017
C9Q 0.079 0.067 0.07 -0.004 0.017 0.008
C9K 0.07 0.079 0.067 -0.008 -0.004 -0.017
C9P 0.079 0.067 0.07 0.004 -0.017 0.008
C10O 0.06 0.076 0.07 0.001 -0.007 0.024
C10J 0.076 0.07 0.06 0.007 -0.024 0.001
C10K 0.076 0.07 0.06 0.007 0.024 -0.001
C10Q 0.07 0.06 0.076 0.024 0.001 -0.007
C10P 0.07 0.06 0.076 -0.024 -0.001 -0.007
C11O 0.058 0.079 0.072 0.006 -0.002 0.008
C11J 0.079 0.072 0.058 0.002 -0.008 0.006
C11Q 0.072 0.058 0.079 0.008 0.006 -0.002
C11K 0.079 0.072 0.058 0.002 0.008 -0.006
C11P 0.072 0.058 0.079 -0.008 -0.006 -0.002
C12O 0.1 0.062 0.055 0 0.011 0.007
C12K 0.062 0.055 0.1 -0.011 0.007 0
C12P 0.055 0.1 0.062 -0.007 0 0.011
C12J 0.062 0.055 0.1 -0.011 -0.007 0
C12Q 0.055 0.1 0.062 0.007 0 0.011
O5J 0.051 0.088 0.065 0.026 -0.014 -0.012
O5Q 0.088 0.065 0.051 0.014 -0.012 -0.026
O5O 0.065 0.051 0.088 -0.012 -0.026 0.014
O5K 0.051 0.088 0.065 0.026 0.014 0.012
O5P 0.088 0.065 0.051 -0.014 0.012 -0.026
O5F 0.088 0.065 0.051 -0.014 -0.012 0.026
O5T 0.051 0.088 0.065 -0.026 -0.014 0.012
O5B 0.065 0.051 0.088 0.012 0.026 0.014
O5S 0.088 0.065 0.051 0.014 0.012 0.026
O5A 0.065 0.051 0.088 -0.012 0.026 -0.014
O5I 0.051 0.088 0.065 -0.026 0.014 -0.012
C13O 0.117 0.049 0.06 0.004 0.023 0.007
C13J 0.049 0.06 0.117 -0.023 -0.007 0.004
C13Q 0.06 0.117 0.049 0.007 0.004 0.023
C13K 0.049 0.06 0.117 -0.023 0.007 -0.004
C13P 0.06 0.117 0.049 -0.007 -0.004 0.023
C13F 0.06 0.117 0.049 -0.007 0.004 -0.023
C13T 0.049 0.06 0.117 0.023 -0.007 -0.004
C13B 0.117 0.049 0.06 -0.004 -0.023 0.007
C13S 0.06 0.117 0.049 0.007 -0.004 -0.023
C13A 0.117 0.049 0.06 0.004 -0.023 -0.007
C13I 0.049 0.06 0.117 0.023 0.007 0.004
C14O 0.097 0.045 0.106 -0.03 -0.001 -0.004
C14J 0.045 0.106 0.097 0.001 0.004 -0.03
C14Q 0.106 0.097 0.045 -0.004 -0.03 -0.001
C14K 0.045 0.106 0.097 0.001 -0.004 0.03
C14P 0.106 0.097 0.045 0.004 0.03 -0.001
C15O 0.091 0.059 0.098 -0.034 0.038 -0.036
C15J 0.059 0.098 0.091 -0.038 0.036 -0.034
C15Q 0.098 0.091 0.059 -0.036 -0.034 0.038
C15K 0.059 0.098 0.091 -0.038 -0.036 0.034
C15P 0.098 0.091 0.059 0.036 0.034 0.038
C16O 0.061 0.089 0.096 0.001 0.005 -0.004
C16J 0.089 0.096 0.061 -0.005 0.004 0.001
C16Q 0.096 0.061 0.089 -0.004 0.001 0.005
C16K 0.089 0.096 0.061 -0.005 -0.004 -0.001
C16P 0.096 0.061 0.089 0.004 -0.001 0.005
C17O 0.27 0.075 0.47 0.002 0.05 -0.078
C17J 0.075 0.47 0.27 -0.05 0.078 0.002
C17Q 0.47 0.27 0.075 -0.078 0.002 0.05
C17K 0.075 0.47 0.27 -0.05 -0.078 -0.002
C17P 0.47 0.27 0.075 0.078 -0.002 0.05
C18O 0.112 0.074 0.074 0.004 -0.032 -0.039
C18J 0.074 0.074 0.112 0.032 0.039 0.004
C18Q 0.074 0.112 0.074 -0.039 0.004 -0.032
C18K 0.074 0.074 0.112 0.032 -0.039 -0.004
C18P 0.074 0.112 0.074 0.039 -0.004 -0.032
C19O 0.157 0.067 0.126 -0.002 0.029 0.021
C19J 0.067 0.126 0.157 -0.029 -0.021 -0.002
C19K 0.067 0.126 0.157 -0.029 0.021 0.002
C19Q 0.126 0.157 0.067 0.021 -0.002 0.029
C19P 0.126 0.157 0.067 -0.021 0.002 0.029
C20O 0.194 0.171 0.103 -0.055 -0.083 0.036
C20J 0.171 0.103 0.194 0.083 -0.036 -0.055
C20K 0.171 0.103 0.194 0.083 0.036 0.055
C20Q 0.103 0.194 0.171 0.036 -0.055 -0.083
C20P 0.103 0.194 0.171 -0.036 0.055 -0.083
C21O 0.29 0.067 0.29 0.001 0.12 -0.059
C21J 0.067 0.29 0.29 -0.12 0.059 0.001
C21Q 0.29 0.29 0.067 -0.059 0.001 0.12
C21K 0.067 0.29 0.29 -0.12 -0.059 -0.001
C21P 0.29 0.29 0.067 0.059 -0.001 0.12
C22O 0.32 0.078 0.3 -0.04 -0.13 -0.081
C22J 0.078 0.3 0.32 0.13 0.081 -0.04
C22Q 0.3 0.32 0.078 -0.081 -0.04 -0.13
C22K 0.078 0.3 0.32 0.13 -0.081 0.04
C22P 0.3 0.32 0.078 0.081 0.04 -0.13
C23O 0.119 0.105 0.092 0.017 0.021 0.006
C23J 0.105 0.092 0.119 -0.021 -0.006 0.017
C23K 0.105 0.092 0.119 -0.021 0.006 -0.017
C23Q 0.092 0.119 0.105 0.006 0.017 0.021
C23P 0.092 0.119 0.105 -0.006 -0.017 0.021
C24O 0.144 0.065 0.159 -0.037 -0.018 -0.012
C24J 0.065 0.159 0.144 0.018 0.012 -0.037
C24Q 0.159 0.144 0.065 -0.012 -0.037 -0.018
C24K 0.065 0.159 0.144 0.018 -0.012 0.037
C24P 0.159 0.144 0.065 0.012 0.037 -0.018
C25O 0.34 0.11 0.27 0.008 -0.17 0.011
C25J 0.11 0.27 0.34 0.17 -0.011 0.008
C25K 0.11 0.27 0.34 0.17 0.011 -0.008
C25Q 0.27 0.34 0.11 0.011 0.008 -0.17
C25P 0.27 0.34 0.11 -0.011 -0.008 -0.17
loop_
_geom_bond_atom_site_label_1
_geom_bond_atom_site_label_2
_geom_bond_site_symmetry_1
_geom_bond_site_symmetry_2
Rb1 O1 1_555 1_555
Co1 O3 1_555 1_555
O1 C2 1_555 1_555
O2 Rb1 1_555 1_555
C1 C4 1_555 1_555
O4 C4 1_555 1_555
C2 C5 1_555 1_555
C3 H1 1_555 1_555
C4 C11 1_555 1_555
C5 C8 1_555 1_555
C6 O1 1_555 1_555
H2 C6 1_555 1_555
H3 C6 1_555 1_555
C7 C10 1_555 1_555
C8 H4 1_555 1_555
C9 C2 1_555 1_555
C10 C3 1_555 1_555
C11 C3 1_555 1_555
C12 C1 1_555 1_555
H5 C12 1_555 1_555
O5 Co1 1_555 1_555
C13 O2 1_555 1_555
C14 C8 1_555 1_555
C15 C9 1_555 1_555
H6 C15 1_555 1_555
C16 C5 1_555 1_555
H7 C16 1_555 1_555
H8 C16 1_555 1_555
C17 H9 1_555 1_555
H10 C17 1_555 1_555
H11 C17 1_555 1_555
C18 C9 1_555 1_555
H12 C18 1_555 1_555
H13 C18 1_555 1_555
C19 C7 1_555 1_555
H14 C19 1_555 1_555
H15 C19 1_555 1_555
H16 C19 1_555 1_555
C20 C7 1_555 1_555
H17 C20 1_555 1_555
H18 C20 1_555 1_555
H19 C20 1_555 1_555
C21 H20 1_555 1_555
H21 C21 1_555 1_555
H22 C21 1_555 1_555
C22 H23 1_555 1_555
H24 C22 1_555 1_555
H25 C22 1_555 1_555
C23 C7 1_555 1_555
H26 C23 1_555 1_555
H27 C23 1_555 1_555
H28 C23 1_555 1_555
C24 C14 1_555 1_555
C25 O4 1_555 1_555
H29 C25 1_555 1_555
H30 C25 1_555 1_555
H31 C25 1_555 1_555
Rb1J O1J 1_555 1_555
Rb1P O1Q 1_555 1_555
Rb1F O2F 1_555 1_555
Rb1T O2T 1_555 1_555
Rb1B O2B 1_555 1_555
Rb1R O2S 1_555 1_555
Rb1A O2A 1_555 1_555
Rb1H O2I 1_555 1_555
Co1F O3F 1_555 1_555
Co1B O3B 1_555 1_555
Co1A O3A 1_555 1_555
O1O Rb1 1_555 1_555
O1J C2J 1_555 1_555
O1Q C2Q 1_555 1_555
O1K Rb1J 1_555 1_555
O1P Rb1P 1_555 1_555
O1F C6F 1_555 1_555
O1T C6T 1_555 1_555
O1B C6B 1_555 1_555
O1S C6S 1_555 1_555
O1A C6A 1_555 1_555
O1I C6I 1_555 1_555
O2O Rb1 1_555 1_555
O2J Rb1J 1_555 1_555
O2Q Rb1P 1_555 1_555
O2K Rb1J 1_555 1_555
O2P Rb1P 1_555 1_555
O2F C13F 1_555 1_555
O2T C13T 1_555 1_555
O2B C13B 1_555 1_555
O2S C13S 1_555 1_555
O2A C13A 1_555 1_555
O2I C13I 1_555 1_555
C1O C18 1_555 1_555
C1K C4K 1_555 1_555
C1P C4P 1_555 1_555
C1J C4J 1_555 1_555
C1Q C4Q 1_555 1_555
O3J Co1 1_555 1_555
O3Q Co1 1_555 1_555
O3O Co1F 1_555 1_555
O3T Co1F 1_555 1_555
O3K Co1B 1_555 1_555
O3S Co1B 1_555 1_555
O3I Co1A 1_555 1_555
O3P Co1A 1_555 1_555
O4O C4O 1_555 1_555
O4J C4J 1_555 1_555
O4K C4K 1_555 1_555
O4Q C4Q 1_555 1_555
O4P C4P 1_555 1_555
C2O O1O 1_555 1_555
C2J C5J 1_555 1_555
C2Q C5Q 1_555 1_555
C2K O1K 1_555 1_555
C2P O1P 1_555 1_555
C3O H1O 1_555 1_555
C3J H1J 1_555 1_555
C3Q H1Q 1_555 1_555
C3K H1K 1_555 1_555
C3P H1P 1_555 1_555
C4O C1O 1_555 1_555
C4J C11J 1_555 1_555
C4K C11K 1_555 1_555
C4Q C11Q 1_555 1_555
C4P C11P 1_555 1_555
C5O C2O 1_555 1_555
C5J C8J 1_555 1_555
C5Q C8Q 1_555 1_555
C5K C2K 1_555 1_555
C5P C2P 1_555 1_555
C6O O1O 1_555 1_555
C6J O1J 1_555 1_555
C6Q O1Q 1_555 1_555
C6K O1K 1_555 1_555
C6P O1P 1_555 1_555
C6F H2F 1_555 1_555
C6T H2T 1_555 1_555
C6B H2B 1_555 1_555
C6S H2S 1_555 1_555
C6A H2A 1_555 1_555
C6I H2I 1_555 1_555
H2O C6O 1_555 1_555
H2J C6J 1_555 1_555
H2Q C6Q 1_555 1_555
H2K C6K 1_555 1_555
H2P C6P 1_555 1_555
H3O C6O 1_555 1_555
H3J C6J 1_555 1_555
H3Q C6Q 1_555 1_555
H3K C6K 1_555 1_555
H3P C6P 1_555 1_555
H3F C6F 1_555 1_555
H3T C6T 1_555 1_555
H3B C6B 1_555 1_555
H3S C6S 1_555 1_555
H3A C6A 1_555 1_555
H3I C6I 1_555 1_555
C7O C10O 1_555 1_555
C7J C10J 1_555 1_555
C7K C10K 1_555 1_555
C7Q C10Q 1_555 1_555
C7P C10P 1_555 1_555
C8O C5O 1_555 1_555
C8J H4J 1_555 1_555
C8Q H4Q 1_555 1_555
C8K C5K 1_555 1_555
C8P C5P 1_555 1_555
H4O C8O 1_555 1_555
H4K C8K 1_555 1_555
H4P C8P 1_555 1_555
C9O C2O 1_555 1_555
C9J C2J 1_555 1_555
C9Q C2Q 1_555 1_555
C9K C2K 1_555 1_555
C9P C2P 1_555 1_555
C10O C3O 1_555 1_555
C10J C3J 1_555 1_555
C10K C3K 1_555 1_555
C10Q C3Q 1_555 1_555
C10P C3P 1_555 1_555
C11O C3O 1_555 1_555
C11J C3J 1_555 1_555
C11Q C3Q 1_555 1_555
C11K C3K 1_555 1_555
C11P C3P 1_555 1_555
C12O C1O 1_555 1_555
C12K C1K 1_555 1_555
C12P C1P 1_555 1_555
C12J C1J 1_555 1_555
C12Q C1Q 1_555 1_555
H5O C12O 1_555 1_555
H5K C12K 1_555 1_555
H5P C12P 1_555 1_555
H5J C12J 1_555 1_555
H5Q C12Q 1_555 1_555
O5J Co1 1_555 1_555
O5Q Co1 1_555 1_555
O5O Co1F 1_555 1_555
O5K Co1B 1_555 1_555
O5P Co1A 1_555 1_555
O5F Co1F 1_555 1_555
O5T Co1F 1_555 1_555
O5B Co1B 1_555 1_555
O5S Co1B 1_555 1_555
O5A Co1A 1_555 1_555
O5I Co1A 1_555 1_555
C13O O2O 1_555 1_555
C13J O2J 1_555 1_555
C13Q O2Q 1_555 1_555
C13K O2K 1_555 1_555
C13P O2P 1_555 1_555
C13F C6F 1_555 1_555
C13T C6T 1_555 1_555
C13B C6B 1_555 1_555
C13S C6S 1_555 1_555
C13A C6A 1_555 1_555
C13I C6I 1_555 1_555
C14O C8O 1_555 1_555
C14J C8J 1_555 1_555
C14Q C8Q 1_555 1_555
C14K C8K 1_555 1_555
C14P C8P 1_555 1_555
C15O C9O 1_555 1_555
C15J C9J 1_555 1_555
C15Q C9Q 1_555 1_555
C15K C9K 1_555 1_555
C15P C9P 1_555 1_555
H6O C15O 1_555 1_555
H6J C15J 1_555 1_555
H6Q C15Q 1_555 1_555
H6K C15K 1_555 1_555
H6P C15P 1_555 1_555
C16O C5O 1_555 1_555
C16J C5J 1_555 1_555
C16Q C5Q 1_555 1_555
C16K C5K 1_555 1_555
C16P C5P 1_555 1_555
H7O C16O 1_555 1_555
H7J C16J 1_555 1_555
H7Q C16Q 1_555 1_555
H7K C16K 1_555 1_555
H7P C16P 1_555 1_555
H8O C16O 1_555 1_555
H8J C16J 1_555 1_555
H8Q C16Q 1_555 1_555
H8K C16K 1_555 1_555
H8P C16P 1_555 1_555
C17O H9O 1_555 1_555
C17J H9J 1_555 1_555
C17Q H9Q 1_555 1_555
C17K H9K 1_555 1_555
C17P H9P 1_555 1_555
H10O C17O 1_555 1_555
H10J C17J 1_555 1_555
H10Q C17Q 1_555 1_555
H10K C17K 1_555 1_555
H10P C17P 1_555 1_555
H11O C17O 1_555 1_555
H11J C17J 1_555 1_555
H11Q C17Q 1_555 1_555
H11K C17K 1_555 1_555
H11P C17P 1_555 1_555
C18O C1 1_555 1_555
C18J C1K 1_555 1_555
C18Q C1P 1_555 1_555
C18K C1J 1_555 1_555
C18P C1Q 1_555 1_555
H12O C18O 1_555 1_555
H12J C18J 1_555 1_555
H12Q C18Q 1_555 1_555
H12K C18K 1_555 1_555
H12P C18P 1_555 1_555
H13O C18O 1_555 1_555
H13J C18J 1_555 1_555
H13Q C18Q 1_555 1_555
H13K C18K 1_555 1_555
H13P C18P 1_555 1_555
C19O C7O 1_555 1_555
C19J C7J 1_555 1_555
C19K C7K 1_555 1_555
C19Q C7Q 1_555 1_555
C19P C7P 1_555 1_555
H14O C19O 1_555 1_555
H14J C19J 1_555 1_555
H14K C19K 1_555 1_555
H14Q C19Q 1_555 1_555
H14P C19P 1_555 1_555
H15O C19O 1_555 1_555
H15J C19J 1_555 1_555
H15K C19K 1_555 1_555
H15Q C19Q 1_555 1_555
H15P C19P 1_555 1_555
H16O C19O 1_555 1_555
H16J C19J 1_555 1_555
H16K C19K 1_555 1_555
H16Q C19Q 1_555 1_555
H16P C19P 1_555 1_555
C20O C7O 1_555 1_555
C20J C7J 1_555 1_555
C20K C7K 1_555 1_555
C20Q C7Q 1_555 1_555
C20P C7P 1_555 1_555
H17O C20O 1_555 1_555
H17J C20J 1_555 1_555
H17K C20K 1_555 1_555
H17Q C20Q 1_555 1_555
H17P C20P 1_555 1_555
H18O C20O 1_555 1_555
H18J C20J 1_555 1_555
H18K C20K 1_555 1_555
H18Q C20Q 1_555 1_555
H18P C20P 1_555 1_555
H19O C20O 1_555 1_555
H19J C20J 1_555 1_555
H19K C20K 1_555 1_555
H19Q C20Q 1_555 1_555
H19P C20P 1_555 1_555
C21O H20O 1_555 1_555
C21J H20J 1_555 1_555
C21Q H20Q 1_555 1_555
C21K H20K 1_555 1_555
C21P H20P 1_555 1_555
H21O C21O 1_555 1_555
H21J C21J 1_555 1_555
H21Q C21Q 1_555 1_555
H21K C21K 1_555 1_555
H21P C21P 1_555 1_555
H22O C21O 1_555 1_555
H22J C21J 1_555 1_555
H22Q C21Q 1_555 1_555
H22K C21K 1_555 1_555
H22P C21P 1_555 1_555
C22O H23O 1_555 1_555
C22J H23J 1_555 1_555
C22Q H23Q 1_555 1_555
C22K H23K 1_555 1_555
C22P H23P 1_555 1_555
H24O C22O 1_555 1_555
H24J C22J 1_555 1_555
H24Q C22Q 1_555 1_555
H24K C22K 1_555 1_555
H24P C22P 1_555 1_555
H25O C22O 1_555 1_555
H25J C22J 1_555 1_555
H25Q C22Q 1_555 1_555
H25K C22K 1_555 1_555
H25P C22P 1_555 1_555
C23O C7O 1_555 1_555
C23J C7J 1_555 1_555
C23K C7K 1_555 1_555
C23Q C7Q 1_555 1_555
C23P C7P 1_555 1_555
H26O C23O 1_555 1_555
H26J C23J 1_555 1_555
H26K C23K 1_555 1_555
H26Q C23Q 1_555 1_555
H26P C23P 1_555 1_555
H27O C23O 1_555 1_555
H27J C23J 1_555 1_555
H27K C23K 1_555 1_555
H27Q C23Q 1_555 1_555
H27P C23P 1_555 1_555
H28O C23O 1_555 1_555
H28J C23J 1_555 1_555
H28K C23K 1_555 1_555
H28Q C23Q 1_555 1_555
H28P C23P 1_555 1_555
C24O C14O 1_555 1_555
C24J C14J 1_555 1_555
C24Q C14Q 1_555 1_555
C24K C14K 1_555 1_555
C24P C14P 1_555 1_555
C25O O4O 1_555 1_555
C25J O4J 1_555 1_555
C25K O4K 1_555 1_555
C25Q O4Q 1_555 1_555
C25P O4P 1_555 1_555
H29O C25O 1_555 1_555
H29J C25J 1_555 1_555
H29K C25K 1_555 1_555
H29Q C25Q 1_555 1_555
H29P C25P 1_555 1_555
H30O C25O 1_555 1_555
H30J C25J 1_555 1_555
H30K C25K 1_555 1_555
H30Q C25Q 1_555 1_555
H30P C25P 1_555 1_555
H31O C25O 1_555 1_555
H31J C25J 1_555 1_555
H31K C25K 1_555 1_555
H31Q C25Q 1_555 1_555
H31P C25P 1_555 1_555
C6 C13 1_555 1_555
C10 C12 1_555 1_555
C11 C16 1_555 1_555
O5 C13 1_555 1_555
C14 C15 1_555 1_555
C17 C24 1_555 1_555
C21 C24 1_555 1_555
C22 C24 1_555 1_555
C4O C11O 1_555 1_555
C6O C13O 1_555 1_555
C6J C13J 1_555 1_555
C6Q C13Q 1_555 1_555
C6K C13K 1_555 1_555
C6P C13P 1_555 1_555
C9O C18O 1_555 1_555
C9J C18J 1_555 1_555
C9Q C18Q 1_555 1_555
C9K C18K 1_555 1_555
C9P C18P 1_555 1_555
C10O C12O 1_555 1_555
C10J C12J 1_555 1_555
C10K C12K 1_555 1_555
C10Q C12Q 1_555 1_555
C10P C12P 1_555 1_555
C11O C16O 1_555 1_555
C11J C16J 1_555 1_555
C11Q C16Q 1_555 1_555
C11K C16K 1_555 1_555
C11P C16P 1_555 1_555
O5J C13J 1_555 1_555
O5Q C13Q 1_555 1_555
O5O C13O 1_555 1_555
O5K C13K 1_555 1_555
O5P C13P 1_555 1_555
O5F C13F 1_555 1_555
O5T C13T 1_555 1_555
O5B C13B 1_555 1_555
O5S C13S 1_555 1_555
O5A C13A 1_555 1_555
O5I C13I 1_555 1_555
C14O C15O 1_555 1_555
C14J C15J 1_555 1_555
C14Q C15Q 1_555 1_555
C14K C15K 1_555 1_555
C14P C15P 1_555 1_555
C17O C24O 1_555 1_555
C17J C24J 1_555 1_555
C17Q C24Q 1_555 1_555
C17K C24K 1_555 1_555
C17P C24P 1_555 1_555
C21O C24O 1_555 1_555
C21J C24J 1_555 1_555
C21Q C24Q 1_555 1_555
C21K C24K 1_555 1_555
C21P C24P 1_555 1_555
C22O C24O 1_555 1_555
C22J C24J 1_555 1_555
C22Q C24Q 1_555 1_555
C22K C24K 1_555 1_555
C22P C24P 1_555 1_555

#END
