
#######################################################################
#
#                 Cambridge Crystallographic Data Centre
#                                CCDC 
#
#######################################################################
#
# If this CIF has been generated from an entry in the Cambridge 
# Structural Database, then it will include bibliographic, chemical, 
# crystal, experimental, refinement or atomic coordinate data resulting 
# from the CCDC's data processing and validation procedures.
#
#######################################################################

data_YEGTAG
_chemical_formula_moiety         '(C12 H13 Ag3 O8)n'
_symmetry_cell_setting           triclinic
_symmetry_space_group_name_H-M   'P -1'
_symmetry_Int_Tables_number      2
_space_group_name_Hall           '-P 1'
loop_
_symmetry_equiv_pos_site_id
_symmetry_equiv_pos_as_xyz
1 x,y,z
2 -x,-y,-z
_cell_length_a                   4.7143(3)
_cell_length_b                   11.7344(8)
_cell_length_c                   13.6823(10)
_cell_angle_alpha                67.666(2)
_cell_angle_beta                 89.269(3)
_cell_angle_gamma                82.096(2)
_cell_volume                     692.823
loop_
_atom_site_label
_atom_site_type_symbol
_atom_site_fract_x
_atom_site_fract_y
_atom_site_fract_z
Ag1 Ag 0.26980(6) 0.04904(3) 0.06423(2)
Ag2 Ag 0.67401(7) -0.12973(3) 0.21769(3)
Ag3 Ag 0.38622(6) -0.42106(3) 0.35299(2)
O1 O 0.1354(6) -0.1282(2) 0.0632(2)
O2 O 0.4703(6) -0.2669(2) 0.1757(2)
O3 O 0.4481(6) -0.8216(3) 0.1201(2)
O4 O 0.8428(6) -0.9549(3) 0.1990(2)
O5 O 0.0337(6) -0.7252(3) 0.6277(2)
O6 O 0.3316(7) -0.6015(3) 0.5258(2)
O7 O 0.2962(8) -0.0823(4) 0.3480(3)
C1 C 0.2303(8) -0.4710(3) 0.1722(3)
C2 C 0.4590(8) -0.5498(3) 0.1561(3)
H1 H 0.5614 -0.5211 0.0931
C3 C 0.5400(7) -0.6696(3) 0.2304(3)
C4 C 0.3931(8) -0.7092(3) 0.3233(3)
H2 H 0.4501 -0.7905 0.3748
C5 C 0.1659(7) -0.6339(3) 0.3431(3)
C6 C 0.0839(7) -0.5135(3) 0.2664(3)
H3 H -0.0719 -0.4606 0.2784
C7 C 0.1397(9) -0.3410(3) 0.0910(3)
H4 H -0.0722 -0.3233 0.0870
H5 H 0.2019 -0.3386 0.0209
C8 C 0.2584(7) -0.2382(3) 0.1128(3)
C9 C 0.7809(7) -0.7579(3) 0.2126(3)
H6 H 0.8958 -0.8032 0.2796
H7 H 0.9078 -0.7088 0.1597
C10 C 0.6789(7) -0.8525(3) 0.1744(3)
C11 C 0.0062(8) -0.6812(4) 0.4438(3)
H8 H -0.0071 -0.7703 0.4615
H9 H -0.1916 -0.6358 0.4304
C12 C 0.1374(8) -0.6683(4) 0.5391(3)
Ag1A Ag 0.73020(6) -0.04904(3) -0.06423(2)
Ag1A_2 Ag -0.26980(6) -0.04904(3) -0.06423(2)
Ag1_2 Ag 0.26980(6) -0.95096(3) 0.06423(2)
Ag2_2 Ag 0.67401(7) -1.12973(3) 0.21769(3)
Ag2A Ag 0.32599(7) -0.87027(3) 0.78231(3)
Ag3A Ag -0.38622(6) -0.57894(3) 0.64701(2)
Ag3A_2 Ag 0.61378(6) -0.57894(3) 0.64701(2)
O1A O -0.1354(6) 0.1282(2) -0.0632(2)
O3_2 O 0.4481(6) 0.1784(3) 0.1201(2)
O4_2 O 0.8428(6) 0.0451(3) 0.1990(2)
O5A O 0.9663(6) -0.2748(3) 0.3723(2)
O5A_2 O -0.0337(6) -0.2748(3) 0.3723(2)
O6A O 0.6684(7) -0.3985(3) 0.4742(2)
O8 O 0.284(4) -0.9990(11) 0.5194(10)
loop_
_geom_bond_atom_site_label_1
_geom_bond_atom_site_label_2
_geom_bond_site_symmetry_1
_geom_bond_site_symmetry_2
Ag1 Ag2 1_555 1_555
Ag2 O2 1_555 1_555
Ag3 O2 1_555 1_555
O1 Ag1 1_555 1_555
O2 C8 1_555 1_555
O3 C10 1_555 1_555
O4 C10 1_555 1_555
O5 C12 1_555 1_555
O6 Ag3 1_555 1_555
O7 Ag2 1_555 1_555
C1 C2 1_555 1_555
C2 H1 1_555 1_555
C3 C2 1_555 1_555
C4 C3 1_555 1_555
H2 C4 1_555 1_555
C5 C4 1_555 1_555
C6 Ag3 1_555 1_555
H3 C6 1_555 1_555
C7 C1 1_555 1_555
H4 C7 1_555 1_555
H5 C7 1_555 1_555
C8 O1 1_555 1_555
C9 C3 1_555 1_555
H6 C9 1_555 1_555
H7 C9 1_555 1_555
C10 C9 1_555 1_555
C11 C5 1_555 1_555
H8 C11 1_555 1_555
H9 C11 1_555 1_555
C12 O6 1_555 1_555
Ag1A Ag1 1_555 1_555
Ag1A_2 O1 1_555 1_555
Ag1_2 O3 1_555 1_555
Ag2_2 O4 1_555 1_555
Ag2A O5 1_555 1_555
Ag3A O5 1_555 1_555
Ag3A_2 O6 1_555 1_555
O1A Ag1 1_555 1_555
O3_2 Ag1 1_555 1_555
O4_2 Ag2 1_555 1_555
O5A Ag2 1_555 1_555
O5A_2 Ag3 1_555 1_555
O6A Ag3 1_555 1_555
C1 C6 1_555 1_555
C5 C6 1_555 1_555
C7 C8 1_555 1_555
C11 C12 1_555 1_555
Ag1A_2 O1A 1_555 1_555
Ag1_2 Ag2_2 1_555 1_555
Ag3A_2 O6A 1_555 1_555

#END
