
#######################################################################
#
#                 Cambridge Crystallographic Data Centre
#                                CCDC 
#
#######################################################################
#
# If this CIF has been generated from an entry in the Cambridge 
# Structural Database, then it will include bibliographic, chemical, 
# crystal, experimental, refinement or atomic coordinate data resulting 
# from the CCDC's data processing and validation procedures.
#
#######################################################################

data_MIGMEU
_chemical_formula_moiety         '(C8 H4 Cu1 N5 O3)n'
_symmetry_cell_setting           monoclinic
_symmetry_space_group_name_H-M   'C 2/c'
_symmetry_Int_Tables_number      15
_space_group_name_Hall           '-C 2yc'
loop_
_symmetry_equiv_pos_site_id
_symmetry_equiv_pos_as_xyz
1 x,y,z
2 1/2+x,1/2+y,z
3 x,-y,1/2+z
4 1/2+x,1/2-y,1/2+z
5 -x,-y,-z
6 1/2-x,1/2-y,-z
7 -x,y,1/2-z
8 1/2-x,1/2+y,1/2-z
_cell_length_a                   5.3667(5)
_cell_length_b                   22.228(2)
_cell_length_c                   8.8952(8)
_cell_angle_alpha                90
_cell_angle_beta                 98.7072(16)
_cell_angle_gamma                90
_cell_volume                     1048.89
loop_
_atom_site_label
_atom_site_type_symbol
_atom_site_fract_x
_atom_site_fract_y
_atom_site_fract_z
_atom_site_U_iso_or_equiv
_atom_site_thermal_displace_type
Cu1 Cu 0.0000 -0.143121(16) 0.2500 0.0231 Uani
N1 N 0.2752(3) -0.18805(8) 0.3711(2) 0.0267 Uani
N2 N 0.1751(4) -0.08896(9) 0.1237(2) 0.0346 Uani
C1 C 0.4582(4) -0.20563(10) 0.4382(3) 0.0263 Uani
C2 C 0.6922(4) -0.22626(10) 0.5233(3) 0.0282 Uani
H1 H 0.7636 -0.2057 0.6133 0.0340 Uiso
C3 C 0.2725(12) -0.0455(3) 0.0884(8) 0.0263 Uani
C4 C 0.4128(9) 0.0044(3) 0.0424(6) 0.0323 Uani
H2 H 0.3783 0.0440 0.0738 0.0390 Uiso
C2E C 0.8078(4) -0.27374(10) 0.4767(3) 0.0282 Uani
C1E C 1.0418(4) -0.29437(10) 0.5618(3) 0.0263 Uani
N1E N 1.2248(3) -0.31195(8) 0.6289(2) 0.0267 Uani
H1E H 0.7364 -0.2943 0.3867 0.0340 Uiso
C4D C 0.5872(9) -0.0044(3) -0.0424(6) 0.0323 Uani
C3D C 0.7275(12) 0.0455(3) -0.0884(8) 0.0263 Uani
N2D N 0.8249(4) 0.08896(9) -0.1237(2) 0.0346 Uani
H2D H 0.6217 -0.0440 -0.0738 0.0390 Uiso
N1F N -0.2752(3) -0.18805(8) 0.1289(2) 0.0267 Uani
N2F N -0.1751(4) -0.08896(9) 0.3763(2) 0.0346 Uani
Cu1C Cu 1.5000 -0.356879(16) 0.7500 0.0231 Uani
Cu1B Cu 1.0000 0.143121(16) -0.2500 0.0231 Uani
O1 O 0.1782(5) 0.13085(11) 0.2105(3) 0.0675 Uani
O2 O 0.0000 0.04688(12) 0.2500 0.0655 Uani
N3 N 0.0000 0.10260(14) 0.2500 0.0414 Uani
O1F O -0.1782(5) 0.13085(11) 0.2895(3) 0.0675 Uani
loop_
_atom_site_aniso_label
_atom_site_aniso_U_11
_atom_site_aniso_U_22
_atom_site_aniso_U_33
_atom_site_aniso_U_23
_atom_site_aniso_U_13
_atom_site_aniso_U_12
Cu1 0.0196(2) 0.0223(2) 0.0273(2) 0.000 0.00299(15) 0.000
N1 0.0229(10) 0.0288(10) 0.0283(10) 0.0069(8) 0.0039(8) 0.0024(8)
N2 0.0329(11) 0.0372(12) 0.0323(11) 0.0106(9) 0.0006(9) -0.0101(9)
C1 0.0281(13) 0.0253(11) 0.0268(12) 0.0056(9) 0.0080(10) -0.0003(9)
C2 0.0260(12) 0.0302(11) 0.0265(12) 0.0048(9) -0.0026(10) -0.0015(9)
C3 0.027(3) 0.025(3) 0.026(3) 0.000(2) 0.001(2) 0.002(2)
C4 0.030(3) 0.030(3) 0.035(3) 0.000(2) -0.001(2) -0.006(3)
C2E 0.026 0.0302 0.0265 0.0048 -0.0026 -0.0015
C1E 0.0281 0.0253 0.0268 0.0056 0.008 -0.0003
N1E 0.0229 0.0288 0.0283 0.0069 0.0039 0.0024
C4D 0.03 0.03 0.035 0 -0.001 -0.006
C3D 0.027 0.025 0.026 0 0.001 0.002
N2D 0.0329 0.0372 0.0323 0.0106 0.0006 -0.0101
N1F 0.0229 0.0288 0.0283 -0.0069 0.0039 -0.0024
N2F 0.0329 0.0372 0.0323 -0.0106 0.0006 0.0101
Cu1C 0.0196 0.0223 0.0273 0 0.00299 0
Cu1B 0.0196 0.0223 0.0273 0 0.00299 0
O1 0.0687(16) 0.0770(15) 0.0604(15) -0.0252(12) 0.0216(13) -0.0309(13)
O2 0.109(3) 0.0324(15) 0.0464(18) 0.000 -0.0166(18) 0.000
N3 0.051(2) 0.0409(18) 0.0285(16) 0.000 -0.0059(15) 0.000
O1F 0.0687 0.077 0.0604 0.0252 0.0216 0.0309
loop_
_geom_bond_atom_site_label_1
_geom_bond_atom_site_label_2
_geom_bond_site_symmetry_1
_geom_bond_site_symmetry_2
Cu1 N1 1_555 1_555
N1 C1 1_555 1_555
N2 Cu1 1_555 1_555
C1 C2 1_555 1_555
C2 H1 1_555 1_555
C3 N2 1_555 1_555
C4 C3 1_555 1_555
H2 C4 1_555 1_555
O1 N3 1_555 1_555
O2 N3 1_555 1_555
N3 O1F 1_555 1_555
C2E C2 1_555 1_555
C1E C2E 1_555 1_555
N1E C1E 1_555 1_555
H1E C2E 1_555 1_555
C4D C4 1_555 1_555
C3D C4D 1_555 1_555
N2D C3D 1_555 1_555
H2D C4D 1_555 1_555
N1F Cu1 1_555 1_555
N2F Cu1 1_555 1_555
Cu1C N1E 1_555 1_555
Cu1B N2D 1_555 1_555

#END
