
#######################################################################
#
#                 Cambridge Crystallographic Data Centre
#                                CCDC 
#
#######################################################################
#
# If this CIF has been generated from an entry in the Cambridge 
# Structural Database, then it will include bibliographic, chemical, 
# crystal, experimental, refinement or atomic coordinate data resulting 
# from the CCDC's data processing and validation procedures.
#
#######################################################################

data_RUYNIK
_chemical_formula_moiety         '(C51 H33 Cd4 N13 O45)n'
_symmetry_cell_setting           triclinic
_symmetry_space_group_name_H-M   'P 1'
_symmetry_Int_Tables_number      1
_space_group_name_Hall           'P 1'
loop_
_symmetry_equiv_pos_site_id
_symmetry_equiv_pos_as_xyz
1 x,y,z
_cell_length_a                   12.177(5)
_cell_length_b                   13.175(5)
_cell_length_c                   15.814(5)
_cell_angle_alpha                66.028(5)
_cell_angle_beta                 87.249(5)
_cell_angle_gamma                89.986(5)
_cell_volume                     2315.05
loop_
_atom_site_label
_atom_site_type_symbol
_atom_site_fract_x
_atom_site_fract_y
_atom_site_fract_z
C1 C 1.2565(9) 0.3014(9) 0.4472(8)
C2 C 1.2872(13) 0.4123(13) 0.3707(10)
H1 H 1.2300 0.4656 0.3683
C3 C 1.2974(13) 0.4024(13) 0.2800(10)
H2 H 1.3166 0.4737 0.2316
H3 H 1.2285 0.3767 0.2680
H4 H 1.3535 0.3505 0.2821
C4 C 1.0930(10) 0.1521(9) 0.7051(8)
C5 C 1.0617(9) 0.1391(10) 0.8012(8)
C6 C 1.1218(12) 0.0777(12) 0.8708(9)
H5 H 1.1835 0.0421 0.8602
C7 C 1.0903(11) 0.0669(11) 0.9631(9)
C8 C 1.0131(9) 0.1268(10) 0.9825(8)
C9 C 0.9503(10) 0.1941(10) 0.9056(8)
C10 C 0.9745(10) 0.1961(9) 0.8184(8)
H6 H 0.9306 0.2372 0.7701
C11 C 0.9953(10) 0.1301(10) 1.0746(9)
C12 C 1.0642(10) 0.1953(12) 1.1060(9)
C13 C 1.0536(10) 0.1913(11) 1.1938(9)
H7 H 1.1005 0.2341 1.2115
C14 C 0.9739(9) 0.1245(9) 1.2562(8)
C15 C 0.9030(10) 0.0578(9) 1.2318(8)
H8 H 0.8502 0.0105 1.2738
C16 C 0.9164(9) 0.0668(10) 1.1410(8)
C17 C 0.9688(9) 0.1209(11) 1.3529(8)
C18 C 0.8266(9) -0.0340(8) 0.6504(7)
C19 C 0.8005(9) -0.1307(8) 0.7463(7)
C20 C 0.8625(10) -0.1357(9) 0.8219(8)
H9 H 0.9190 -0.0843 0.8133
C21 C 0.8376(12) -0.2155(12) 0.9052(8)
C22 C 0.7593(12) -0.3011(9) 0.9233(8)
C23 C 0.7026(10) -0.2958(8) 0.8490(8)
C24 C 0.7203(10) -0.2041(9) 0.7598(8)
H10 H 0.6753 -0.1965 0.7118
C25 C 0.7405(12) -0.3994(9) 1.0157(8)
C26 C 0.6526(13) -0.3948(12) 1.0741(10)
C27 C 0.6301(11) -0.4837(11) 1.1627(8)
H11 H 0.5703 -0.4818 1.2009
C28 C 0.6999(11) -0.5723(10) 1.1897(8)
C29 C 0.7843(10) -0.5782(9) 1.1343(8)
H12 H 0.8294 -0.6396 1.1537
C30 C 0.8037(10) -0.4932(10) 1.0492(8)
C31 C 0.6734(11) -0.6679(10) 1.2860(8)
C32 C 1.1497(11) -0.0880(11) 0.6217(10)
C33 C 1.0750(9) -0.1808(9) 0.6213(8)
C34 C 1.0128(10) -0.1672(9) 0.5496(8)
H13 H 1.0084 -0.0978 0.5009
C35 C 0.9546(11) -0.2583(10) 0.5490(10)
C36 C 0.9583(10) -0.3646(9) 0.6189(8)
C37 C 1.0220(10) -0.3728(10) 0.6914(8)
C38 C 1.0751(10) -0.2866(12) 0.6936(9)
H14 H 1.1143 -0.2967 0.7454
C39 C 0.9164(10) -0.4609(9) 0.6044(9)
C40 C 0.9824(11) -0.5021(9) 0.5510(9)
C41 C 0.9406(9) -0.5897(9) 0.5252(8)
H15 H 0.9859 -0.6193 0.4923
C42 C 0.8318(9) -0.6279(9) 0.5506(7)
C43 C 0.7684(10) -0.5934(9) 0.6092(8)
H16 H 0.7003 -0.6272 0.6335
C44 C 0.8050(9) -0.5122(10) 0.6304(8)
C45 C 0.7930(9) -0.7192(9) 0.5213(7)
C46 C 0.4965(9) 0.0330(10) 0.4889(7)
C47 C 0.5562(10) -0.0369(10) 0.4410(9)
H17 H 0.5067 -0.0446 0.3968
C48 C 0.5757(12) -0.1518(10) 0.5141(11)
H18 H 0.6119 -0.1956 0.4857
H19 H 0.5065 -0.1866 0.5429
H20 H 0.6211 -0.1460 0.5600
C49 C 1.5194(12) 0.0624(10) 0.7159(9)
H21 H 1.5636 0.0804 0.6620
C50 C 1.6849(12) 0.0937(14) 0.7889(12)
H22 H 1.7035 0.0879 0.8489
H23 H 1.6976 0.1688 0.7443
H24 H 1.7296 0.0446 0.7715
C51 C 1.5031(13) 0.0364(17) 0.8772(11)
H25 H 1.5522 0.0397 0.9218
H26 H 1.4709 -0.0368 0.8990
H27 H 1.4461 0.0895 0.8688
N1 N 1.0352(9) -0.4825(8) 0.7641(7)
N2 N 1.1587(13) -0.0111(14) 1.0386(9)
N3 N 0.8626(7) 0.2588(7) 0.9206(6)
N4 N 1.1523(10) 0.2687(12) 1.0428(8)
N5 N 0.8416(11) -0.0067(9) 1.1177(8)
N6 N 0.8945(12) -0.2075(11) 0.9839(8)
N7 N 0.5752(14) -0.3043(9) 1.0535(9)
N8 N 0.8993(10) -0.4961(9) 0.9925(8)
N9 N 0.6112(10) -0.3745(9) 0.8549(7)
N10 N 0.7366(9) -0.4762(10) 0.6918(8)
N11 N 1.0914(9) -0.4638(9) 0.5182(8)
N12 N 0.8910(10) -0.2418(8) 0.4687(9)
N13 N 1.5621(9) 0.0613(9) 0.7919(7)
O1 O 1.3386(7) 0.2416(6) 0.4895(5)
O2 O 1.1583(7) 0.2798(6) 0.4657(5)
O3 O 1.3907(7) 0.4497(8) 0.3921(8)
H28 H 1.4053 0.5248 0.3757
O4 O 1.1881(8) 0.1204(9) 0.6951(6)
O5 O 1.0236(6) 0.1870(6) 0.6464(5)
O6 O 1.2520(11) -0.0281(15) 1.0175(9)
O7 O 1.1130(11) -0.0594(10) 1.1119(8)
O8 O 0.7864(7) 0.2801(7) 0.8647(6)
O9 O 0.8613(7) 0.2906(6) 0.9819(5)
O10 O 1.1712(12) 0.2659(13) 0.9716(8)
O11 O 1.1922(9) 0.3379(9) 1.0649(8)
O12 O 0.7984(7) 0.0355(8) 1.0427(6)
O13 O 0.8224(12) -0.0996(9) 1.1764(8)
O14 O 0.8950(7) 0.0545(6) 1.4106(5)
O15 O 1.0383(7) 0.1773(7) 1.3708(6)
O16 O 0.9199(6) 0.0033(6) 0.6338(5)
O17 O 0.7443(6) -0.0129(6) 0.5974(5)
O18 O 0.9314(13) -0.1235(8) 0.9753(7)
O19 O 0.924(2) -0.2957(12) 1.0436(10)
O20 O 0.6186(10) -0.4692(8) 0.9134(7)
O21 O 0.5405(7) -0.3417(8) 0.8021(7)
O22 O 0.6183(15) -0.2083(12) 1.0136(9)
O23 O 0.4812(14) -0.3178(13) 1.0654(11)
O24 O 0.9041(8) -0.4487(7) 0.9088(6)
O25 O 0.9731(9) -0.5508(8) 1.0325(7)
O26 O 0.7460(6) -0.7379(6) 1.3137(5)
O27 O 0.5844(8) -0.6608(7) 1.3298(6)
O28 O 1.2194(7) -0.1089(7) 0.6809(7)
O29 O 1.1471(6) 0.0062(6) 0.5528(6)
O30 O 1.1187(8) -0.4957(7) 0.8132(7)
O31 O 0.9658(9) -0.5555(7) 0.7790(6)
O32 O 0.9414(10) -0.1804(9) 0.3915(8)
O33 O 0.8038(8) -0.2877(8) 0.4801(9)
O34 O 0.7602(8) -0.3944(10) 0.7028(8)
O35 O 0.6497(10) -0.5234(10) 0.7184(11)
O36 O 1.1537(9) -0.4809(12) 0.5817(9)
O37 O 1.1163(11) -0.4212(12) 0.4419(9)
O38 O 0.6919(6) -0.7418(7) 0.5332(6)
O39 O 0.8613(6) -0.7586(6) 0.4841(5)
O40 O 0.5478(6) 0.1158(6) 0.4895(5)
O41 O 0.3992(7) 0.0008(7) 0.5201(7)
O42 O 0.6535(6) 0.0105(7) 0.3935(6)
H29 H 0.6825 -0.0006 0.3425
O43 O 1.4192(7) 0.0390(8) 0.7170(6)
O44 O 1.4759(8) 0.3110(8) 0.6126(6)
O45 O 1.6043(7) 0.4891(7) 0.4382(6)
Cd1 Cd 1.52000(7) 0.31511(7) 0.46936(6)
Cd2 Cd 1.30249(6) 0.07061(6) 0.60559(5)
Cd3 Cd 1.02208(6) 0.14372(6) 0.52316(5)
Cd4 Cd 0.73680(6) 0.12133(6) 0.45528(5)
O14_2 O 0.8950(7) 0.0545(6) 0.4106(5)
O15_2 O 1.0383(7) 0.1773(7) 0.3708(6)
O26_2 O 0.7460(6) 0.2621(6) 0.3137(5)
O27_2 O 1.5844(8) 0.3392(7) 0.3298(6)
O38_2 O 0.6919(6) 0.2582(7) 0.5332(6)
O38_3 O 1.6919(6) 0.2582(7) 0.5332(6)
O39_2 O 0.8613(6) 0.2414(6) 0.4841(5)
O40_2 O 1.5478(6) 0.1158(6) 0.4895(5)
O41_2 O 1.3992(7) 0.0008(7) 0.5201(7)
Cd1_2 Cd 0.52000(7) -0.68489(7) 0.46936(6)
Cd1_3 Cd 0.52000(7) -0.68489(7) 1.46936(6)
Cd1_4 Cd 0.52000(7) 0.31511(7) 0.46936(6)
Cd2_2 Cd 0.30249(6) 0.07061(6) 0.60559(5)
Cd3_2 Cd 1.02208(6) -0.85628(6) 0.52316(5)
Cd3_3 Cd 1.02208(6) 0.14372(6) 1.52316(5)
Cd4_2 Cd 0.73680(6) -0.87867(6) 0.45528(5)
Cd4_3 Cd 0.73680(6) -0.87867(6) 1.45528(5)
Cd4_4 Cd 0.73680(6) 0.12133(6) 1.45528(5)
loop_
_geom_bond_atom_site_label_1
_geom_bond_atom_site_label_2
_geom_bond_site_symmetry_1
_geom_bond_site_symmetry_2
C1 C2 1_555 1_555
C2 H1 1_555 1_555
C3 C2 1_555 1_555
H2 C3 1_555 1_555
H3 C3 1_555 1_555
H4 C3 1_555 1_555
C4 C5 1_555 1_555
C5 C6 1_555 1_555
C6 H5 1_555 1_555
C7 C6 1_555 1_555
C8 C7 1_555 1_555
C9 C8 1_555 1_555
C10 C5 1_555 1_555
H6 C10 1_555 1_555
C11 C8 1_555 1_555
C12 C11 1_555 1_555
C13 C12 1_555 1_555
H7 C13 1_555 1_555
C14 C13 1_555 1_555
C15 C14 1_555 1_555
H8 C15 1_555 1_555
C16 C11 1_555 1_555
C17 C14 1_555 1_555
C18 C19 1_555 1_555
C19 C20 1_555 1_555
C20 H9 1_555 1_555
C21 C20 1_555 1_555
C22 C21 1_555 1_555
C23 C22 1_555 1_555
C24 C19 1_555 1_555
H10 C24 1_555 1_555
C25 C22 1_555 1_555
C26 C25 1_555 1_555
C27 C26 1_555 1_555
H11 C27 1_555 1_555
C28 C27 1_555 1_555
C29 C28 1_555 1_555
H12 C29 1_555 1_555
C30 C25 1_555 1_555
C31 C28 1_555 1_555
C32 C33 1_555 1_555
C33 C34 1_555 1_555
C34 H13 1_555 1_555
C35 C34 1_555 1_555
C36 C35 1_555 1_555
C37 C36 1_555 1_555
C38 C33 1_555 1_555
H14 C38 1_555 1_555
C39 C36 1_555 1_555
C40 C39 1_555 1_555
C41 C40 1_555 1_555
H15 C41 1_555 1_555
C42 C41 1_555 1_555
C43 C42 1_555 1_555
H16 C43 1_555 1_555
C44 C39 1_555 1_555
C45 C42 1_555 1_555
C46 C47 1_555 1_555
C47 H17 1_555 1_555
C48 C47 1_555 1_555
H18 C48 1_555 1_555
H19 C48 1_555 1_555
H20 C48 1_555 1_555
C49 H21 1_555 1_555
C50 H22 1_555 1_555
H23 C50 1_555 1_555
H24 C50 1_555 1_555
C51 H25 1_555 1_555
H26 C51 1_555 1_555
H27 C51 1_555 1_555
N1 C37 1_555 1_555
N2 C7 1_555 1_555
N3 C9 1_555 1_555
N4 C12 1_555 1_555
N5 C16 1_555 1_555
N6 C21 1_555 1_555
N7 C26 1_555 1_555
N8 C30 1_555 1_555
N9 C23 1_555 1_555
N10 C44 1_555 1_555
N11 C40 1_555 1_555
N12 C35 1_555 1_555
N13 C49 1_555 1_555
O1 C1 1_555 1_555
O2 C1 1_555 1_555
O3 C2 1_555 1_555
H28 O3 1_555 1_555
O4 C4 1_555 1_555
O5 C4 1_555 1_555
O6 N2 1_555 1_555
O7 N2 1_555 1_555
O8 N3 1_555 1_555
O9 N3 1_555 1_555
O10 N4 1_555 1_555
O11 N4 1_555 1_555
O12 N5 1_555 1_555
O13 N5 1_555 1_555
O14 C17 1_555 1_555
O15 C17 1_555 1_555
O16 C18 1_555 1_555
O17 C18 1_555 1_555
O18 N6 1_555 1_555
O19 N6 1_555 1_555
O20 N9 1_555 1_555
O21 N9 1_555 1_555
O22 N7 1_555 1_555
O23 N7 1_555 1_555
O24 N8 1_555 1_555
O25 N8 1_555 1_555
O26 C31 1_555 1_555
O27 C31 1_555 1_555
O28 C32 1_555 1_555
O29 C32 1_555 1_555
O30 N1 1_555 1_555
O31 N1 1_555 1_555
O32 N12 1_555 1_555
O33 N12 1_555 1_555
O34 N10 1_555 1_555
O35 N10 1_555 1_555
O36 N11 1_555 1_555
O37 N11 1_555 1_555
O38 C45 1_555 1_555
O39 C45 1_555 1_555
O40 C46 1_555 1_555
O41 C46 1_555 1_555
O42 C47 1_555 1_555
H29 O42 1_555 1_555
O43 C49 1_555 1_555
O44 Cd1 1_555 1_555
O45 Cd1 1_555 1_555
Cd1 O1 1_555 1_555
Cd2 O1 1_555 1_555
Cd3 O2 1_555 1_555
Cd4 O17 1_555 1_555
O14_2 Cd4 1_555 1_555
O15_2 Cd3 1_555 1_555
O26_2 Cd4 1_555 1_555
O27_2 Cd1 1_555 1_555
O38_2 Cd4 1_555 1_555
O38_3 Cd1 1_555 1_555
O39_2 Cd3 1_555 1_555
O40_2 Cd1 1_555 1_555
O41_2 Cd2 1_555 1_555
Cd1_2 O38 1_555 1_555
Cd1_3 O27 1_555 1_555
Cd1_4 O40 1_555 1_555
Cd2_2 O41 1_555 1_555
Cd3_2 O39 1_555 1_555
Cd3_3 O15 1_555 1_555
Cd4_2 O38 1_555 1_555
Cd4_3 O26 1_555 1_555
Cd4_4 O14 1_555 1_555
C9 C10 1_555 1_555
C15 C16 1_555 1_555
C23 C24 1_555 1_555
C29 C30 1_555 1_555
C37 C38 1_555 1_555
C43 C44 1_555 1_555
C50 N13 1_555 1_555
C51 N13 1_555 1_555
O3 Cd1 1_555 1_555
O4 Cd2 1_555 1_555
O5 Cd3 1_555 1_555
O16 Cd3 1_555 1_555
O28 Cd2 1_555 1_555
O29 Cd2 1_555 1_555
O29 Cd3 1_555 1_555
O39 Cd4_2 1_555 1_555
O40 Cd4 1_555 1_555
O42 Cd4 1_555 1_555
O43 Cd2 1_555 1_555
Cd4 O39_2 1_555 1_555
O38_2 Cd1_4 1_555 1_555

#END
