
#######################################################################
#
#                 Cambridge Crystallographic Data Centre
#                                CCDC 
#
#######################################################################
#
# If this CIF has been generated from an entry in the Cambridge 
# Structural Database, then it will include bibliographic, chemical, 
# crystal, experimental, refinement or atomic coordinate data resulting 
# from the CCDC's data processing and validation procedures.
#
#######################################################################

data_ILITON
_chemical_formula_moiety         'C70 H52 N6 O17 Zn11'
_symmetry_cell_setting           orthorhombic
_symmetry_space_group_name_H-M   'C m c m'
_symmetry_Int_Tables_number      63
_space_group_name_Hall           '-C 2c 2'
loop_
_symmetry_equiv_pos_site_id
_symmetry_equiv_pos_as_xyz
1 x,y,z
2 -x,-y,1/2+z
3 x,-y,-z
4 -x,y,1/2-z
5 1/2+x,1/2+y,z
6 1/2-x,1/2-y,1/2+z
7 1/2+x,1/2-y,-z
8 1/2-x,1/2+y,1/2-z
9 -x,-y,-z
10 x,y,1/2-z
11 -x,y,z
12 x,-y,1/2+z
13 1/2-x,1/2-y,-z
14 1/2+x,1/2+y,1/2-z
15 1/2-x,1/2+y,z
16 1/2+x,1/2-y,1/2+z
_cell_length_a                   23.5973(13)
_cell_length_b                   23.6053(13)
_cell_length_c                   28.0515(16)
_cell_angle_alpha                90
_cell_angle_beta                 90
_cell_angle_gamma                90
_cell_volume                     15625.3
loop_
_atom_site_label
_atom_site_type_symbol
_atom_site_fract_x
_atom_site_fract_y
_atom_site_fract_z
Zn1 Zn -0.0000 0.464751(18) 0.23716(3)
Zn2 Zn 0.5000 0.464137(10) 0.303350(8)
O1 O -0.0000 0.04919(7) 0.28937(6)
O2 O -0.41548(5) 0.46470(6) 0.21067(5)
O3 O -0.0000 0.87999(7) 0.28913(6)
N1 N -0.06117(8) 0.40368(8) 0.2500
N2 N -0.06109(8) 0.52560(7) 0.2500
C1 C -0.05262(10) 0.34578(9) 0.2500
C2 C -0.10666(11) 0.31793(11) 0.2500
H1 H -0.1127 0.2790 0.2500
C3 C -0.14672(11) 0.35799(10) 0.2500
H2 H -0.1857 0.3521 0.2500
C4 C -0.11820(9) 0.41197(10) 0.2500
C5 C -0.14562(10) 0.46467(10) 0.2500
C6 C -0.11871(10) 0.51716(10) 0.2500
C7 C -0.14714(11) 0.57135(11) 0.2500
H3 H -0.1861 0.5775 0.2500
C8 C -0.10631(10) 0.61142(11) 0.2500
H4 H -0.1119 0.6504 0.2500
C9 C -0.05258(10) 0.58274(10) 0.2500
C10 C 0.0000 0.31942(12) 0.2500
C11 C 0.0000 0.25509(13) 0.2500
C12 C -0.0000 0.22554(11) 0.29155(12)
H5 H -0.0000 0.2451 0.3203
C13 C -0.0000 0.16660(11) 0.29195(11)
H6 H 0.0000 0.1473 0.3209
C14 C -0.0000 0.13671(12) 0.2500
C15 C -0.0000 0.07319(12) 0.2500
C16 C -0.20916(10) 0.46477(10) 0.2500
C17 C -0.23921(10) 0.46533(12) 0.20877(9)
H7 H -0.2198 0.4658 0.1799
C18 C -0.29760(9) 0.46529(11) 0.20832(9)
H8 H -0.3167 0.4656 0.1793
C19 C -0.32778(9) 0.46475(9) 0.2500
C20 C -0.39133(9) 0.46494(9) 0.2500
C21 C -0.0000 0.61081(15) 0.2500
C22 C 0.0000 0.67349(13) 0.2500
C23 C 0.0000 0.70370(12) 0.29108(12)
H9 H -0.0000 0.6842 0.3199
C24 C 0.0000 0.76228(11) 0.29197(10)
H10 H -0.0000 0.7815 0.3209
C25 C 0.0000 0.79186(13) 0.2500
C26 C -0.0000 0.85562(12) 0.2500
N3 N 0.5000 0.47072(8) 0.37609(6)
C27 C 0.53530(18) 0.44231(18) 0.40602(12)
C28 C 0.5345(2) 0.45355(18) 0.45610(13)
H11 H 0.5577 0.4329 0.4765
C29 C 0.5000 0.49411(12) 0.47399(8)
C30 C 0.4693(2) 0.5247(2) 0.44235(14)
H12 H 0.4473 0.5548 0.4529
C31 C 0.47084(18) 0.5111(2) 0.39412(12)
H13 H 0.4491 0.5329 0.3735
C32 C 0.5726(3) 0.3926(3) 0.38643(14)
H14 H 0.5679 0.3898 0.3525
H15 H 0.5611 0.3577 0.4011
H16 H 0.6117 0.3998 0.3937
O4 O -0.0000 0.46528(18) 0.15714(19)
H17 H -0.0000 0.4322(3) 0.1405(2)
H18 H 0.0000 0.4974(3) 0.1397(2)
Zn1C Zn -0.0000 0.464751(18) 0.26284(3)
Zn2B Zn 0.5000 0.535863(10) 0.696650(8)
Zn2_2 Zn -0.5000 0.464137(10) 0.303350(8)
Zn2C Zn -0.5000 0.464137(10) 0.196650(8)
Zn2C_2 Zn 0.5000 0.464137(10) 0.196650(8)
Zn2D Zn -0.0000 -0.035863(10) 0.303350(8)
Zn2D_2 Zn 0.0000 0.964137(10) 0.303350(8)
Zn2G Zn 0.0000 -0.035863(10) 0.196650(8)
Zn2G_2 Zn -0.0000 0.964137(10) 0.196650(8)
O1C O -0.0000 0.04919(7) 0.21063(6)
O1D O 0.5000 0.54919(7) 0.28937(6)
O1F O 0.5000 0.45081(7) 0.71063(6)
O2C O 0.41548(5) 0.46470(6) 0.28933(5)
O2I O -0.41548(5) 0.46470(6) 0.28933(5)
O2J O 0.41548(5) 0.46470(6) 0.21067(5)
O2A O 0.41548(5) 0.53530(6) 0.71067(5)
O2I_2 O 0.58452(5) 0.46470(6) 0.28933(5)
O2K O 0.58452(5) 0.53530(6) 0.71067(5)
O3C O -0.0000 0.87999(7) 0.21087(6)
O3D O 0.5000 0.37999(7) 0.28913(6)
O3F O 0.5000 0.62001(7) 0.71087(6)
N1C N 0.06117(8) 0.40368(8) 0.2500
N2C N 0.06109(8) 0.52560(7) 0.2500
C1C C 0.05262(10) 0.34578(9) 0.2500
C2C C 0.10666(11) 0.31793(11) 0.2500
H1C H 0.1127 0.2790 0.2500
C3C C 0.14672(11) 0.35799(10) 0.2500
H2C H 0.1857 0.3521 0.2500
C4C C 0.11820(9) 0.41197(10) 0.2500
C5C C 0.14562(10) 0.46467(10) 0.2500
C6C C 0.11871(10) 0.51716(10) 0.2500
C7C C 0.14714(11) 0.57135(11) 0.2500
H3C H 0.1861 0.5775 0.2500
C8C C 0.10631(10) 0.61142(11) 0.2500
H4C H 0.1119 0.6504 0.2500
C9C C 0.05258(10) 0.58274(10) 0.2500
C12C C -0.0000 0.22554(11) 0.20845(12)
H5C H -0.0000 0.2451 0.1797
C13C C -0.0000 0.16660(11) 0.20805(11)
H6C H 0.0000 0.1473 0.1791
C16C C 0.20916(10) 0.46477(10) 0.2500
C17C C 0.23921(10) 0.46533(12) 0.29123(9)
C17I C -0.23921(10) 0.46533(12) 0.29123(9)
C17J C 0.23921(10) 0.46533(12) 0.20877(9)
H7C H 0.2198 0.4658 0.3201
H7I H -0.2198 0.4658 0.3201
H7J H 0.2198 0.4658 0.1799
C18C C 0.29760(9) 0.46529(11) 0.29168(9)
C18I C -0.29760(9) 0.46529(11) 0.29168(9)
C18J C 0.29760(9) 0.46529(11) 0.20832(9)
H8C H 0.3167 0.4656 0.3207
H8I H -0.3167 0.4656 0.3207
H8J H 0.3167 0.4656 0.1793
C19C C 0.32778(9) 0.46475(9) 0.2500
C20C C 0.39133(9) 0.46494(9) 0.2500
C23C C -0.0000 0.70370(12) 0.20892(12)
H9C H -0.0000 0.6842 0.1801
C24C C 0.0000 0.76228(11) 0.20803(10)
H10C H -0.0000 0.7815 0.1791
N3B N 0.5000 0.52928(8) 0.62391(6)
C27B C 0.53530(18) 0.55769(18) 0.59398(12)
C27H C 0.46470(18) 0.55769(18) 0.59398(12)
C27J C 0.46470(18) 0.44231(18) 0.40602(12)
C28B C 0.5345(2) 0.54645(18) 0.54390(13)
C28H C 0.4655(2) 0.54645(18) 0.54390(13)
C28J C 0.4655(2) 0.45355(18) 0.45610(13)
H11B H 0.5577 0.5671 0.5235
H11H H 0.4423 0.5671 0.5235
H11J H 0.4423 0.4329 0.4765
C29B C 0.5000 0.50589(12) 0.52601(8)
C30B C 0.4693(2) 0.4753(2) 0.55765(14)
C30H C 0.5307(2) 0.4753(2) 0.55765(14)
C30J C 0.5307(2) 0.5247(2) 0.44235(14)
H12B H 0.4473 0.4452 0.5471
H12H H 0.5527 0.4452 0.5471
H12J H 0.5527 0.5548 0.4529
C31B C 0.47084(18) 0.4889(2) 0.60588(12)
C31H C 0.52916(18) 0.4889(2) 0.60588(12)
C31J C 0.52916(18) 0.5111(2) 0.39412(12)
H13B H 0.4491 0.4671 0.6265
H13H H 0.5509 0.4671 0.6265
H13J H 0.5509 0.5329 0.3735
C32B C 0.5726(3) 0.6074(3) 0.61357(14)
C32H C 0.4274(3) 0.6074(3) 0.61357(14)
C32J C 0.4274(3) 0.3926(3) 0.38643(14)
H14B H 0.5679 0.6102 0.6475
H14H H 0.4321 0.6102 0.6475
H14J H 0.4321 0.3898 0.3525
H15B H 0.5611 0.6423 0.5989
H15H H 0.4389 0.6423 0.5989
H15J H 0.4389 0.3577 0.4011
H16B H 0.6117 0.6002 0.6063
H16H H 0.3883 0.6002 0.6063
H16J H 0.3883 0.3998 0.3937
O4C O -0.0000 0.46528(18) 0.34286(19)
H17C H 0.0000 0.4322(3) 0.3595(2)
H18C H 0.0000 0.4974(3) 0.3603(2)
loop_
_geom_bond_atom_site_label_1
_geom_bond_atom_site_label_2
_geom_bond_site_symmetry_1
_geom_bond_site_symmetry_2
Zn1 N1 1_555 1_555
Zn2 N3 1_555 1_555
O1 C15 1_555 1_555
O2 C20 1_555 1_555
O3 C26 1_555 1_555
N1 C1 1_555 1_555
N2 Zn1 1_555 1_555
C1 C2 1_555 1_555
C2 H1 1_555 1_555
C3 C2 1_555 1_555
H2 C3 1_555 1_555
C4 N1 1_555 1_555
C5 C4 1_555 1_555
C6 N2 1_555 1_555
C7 C6 1_555 1_555
H3 C7 1_555 1_555
C8 C7 1_555 1_555
H4 C8 1_555 1_555
C9 N2 1_555 1_555
C10 C1 1_555 1_555
C11 C10 1_555 1_555
C12 C11 1_555 1_555
H5 C12 1_555 1_555
C13 C12 1_555 1_555
H6 C13 1_555 1_555
C14 C13 1_555 1_555
C15 C14 1_555 1_555
C16 C5 1_555 1_555
C17 C16 1_555 1_555
H7 C17 1_555 1_555
C18 C17 1_555 1_555
H8 C18 1_555 1_555
C19 C18 1_555 1_555
C20 C19 1_555 1_555
C21 C9 1_555 1_555
C22 C21 1_555 1_555
C23 C22 1_555 1_555
H9 C23 1_555 1_555
C24 C23 1_555 1_555
H10 C24 1_555 1_555
C25 C24 1_555 1_555
C26 C25 1_555 1_555
N3 C27 1_555 1_555
C27 C28 1_555 1_555
C28 H11 1_555 1_555
C29 C28 1_555 1_555
C30 C29 1_555 1_555
H12 C30 1_555 1_555
C31 N3 1_555 1_555
H13 C31 1_555 1_555
C32 C27 1_555 1_555
H14 C32 1_555 1_555
H15 C32 1_555 1_555
H16 C32 1_555 1_555
O4 Zn1 1_555 1_555
H17 O4 1_555 1_555
H18 O4 1_555 1_555
Zn1C Zn1 1_555 1_555
Zn2B O1F 1_555 1_555
Zn2_2 O2I 1_555 1_555
Zn2C O2 1_555 1_555
Zn2C_2 O2J 1_555 1_555
Zn2D O1 1_555 1_555
Zn2D_2 O3 1_555 1_555
Zn2G O1C 1_555 1_555
Zn2G_2 O3C 1_555 1_555
O1C C15 1_555 1_555
O1D Zn2 1_555 1_555
O2C Zn2 1_555 1_555
O2I C20 1_555 1_555
O2J C20C 1_555 1_555
O2A Zn2B 1_555 1_555
O2I_2 Zn2 1_555 1_555
O2K Zn2B 1_555 1_555
O3C C26 1_555 1_555
O3D Zn2 1_555 1_555
O3F Zn2B 1_555 1_555
N1C Zn1 1_555 1_555
N2C Zn1 1_555 1_555
C1C C10 1_555 1_555
C2C C1C 1_555 1_555
H1C C2C 1_555 1_555
C3C C2C 1_555 1_555
H2C C3C 1_555 1_555
C4C N1C 1_555 1_555
C5C C4C 1_555 1_555
C6C N2C 1_555 1_555
C7C C6C 1_555 1_555
H3C C7C 1_555 1_555
C8C C7C 1_555 1_555
H4C C8C 1_555 1_555
C9C C21 1_555 1_555
C12C C11 1_555 1_555
H5C C12C 1_555 1_555
C13C C14 1_555 1_555
H6C C13C 1_555 1_555
C16C C5C 1_555 1_555
C17C C16C 1_555 1_555
C17I C16 1_555 1_555
C17J C16C 1_555 1_555
H7C C17C 1_555 1_555
H7I C17I 1_555 1_555
H7J C17J 1_555 1_555
C18C C17C 1_555 1_555
C18I C19 1_555 1_555
C18J C17J 1_555 1_555
H8C C18C 1_555 1_555
H8I C18I 1_555 1_555
H8J C18J 1_555 1_555
C19C C18C 1_555 1_555
C20C O2C 1_555 1_555
C23C C22 1_555 1_555
H9C C23C 1_555 1_555
C24C C25 1_555 1_555
H10C C24C 1_555 1_555
N3B Zn2B 1_555 1_555
C27B N3B 1_555 1_555
C27H N3B 1_555 1_555
C27J N3 1_555 1_555
C28B C27B 1_555 1_555
C28H C27H 1_555 1_555
C28J C28 1_555 1_555
H11B C28B 1_555 1_555
H11H C28H 1_555 1_555
H11J C28J 1_555 1_555
C29B C29 1_555 1_555
C30B C28H 1_555 1_555
C30H C28B 1_555 1_555
C30J C28 1_555 1_555
H12B C30B 1_555 1_555
H12H C30H 1_555 1_555
H12J C30J 1_555 1_555
C31B N3B 1_555 1_555
C31H N3B 1_555 1_555
C31J N3 1_555 1_555
H13B C31B 1_555 1_555
H13H C31H 1_555 1_555
H13J C31J 1_555 1_555
C32B C27B 1_555 1_555
C32H C27H 1_555 1_555
C32J C27J 1_555 1_555
H14B C32B 1_555 1_555
H14H C32H 1_555 1_555
H14J C32J 1_555 1_555
H15B C32B 1_555 1_555
H15H C32H 1_555 1_555
H15J C32J 1_555 1_555
H16B C32B 1_555 1_555
H16H C32H 1_555 1_555
H16J C32J 1_555 1_555
O4C Zn1C 1_555 1_555
H17C O4C 1_555 1_555
H18C O4C 1_555 1_555
N1 Zn1C 1_555 1_555
N2 Zn1C 1_555 1_555
C3 C4 1_555 1_555
C5 C6 1_555 1_555
C8 C9 1_555 1_555
C27 C27J 1_555 1_555
C27 C31J 1_555 1_555
C29 C28J 1_555 1_555
C29 C30J 1_555 1_555
C30 C31 1_555 1_555
C30 C28J 1_555 1_555
C30 C30J 1_555 1_555
C31 C27J 1_555 1_555
C31 C31J 1_555 1_555
Zn1C N1C 1_555 1_555
Zn1C N2C 1_555 1_555
N1C C1C 1_555 1_555
N2C C9C 1_555 1_555
C3C C4C 1_555 1_555
C5C C6C 1_555 1_555
C8C C9C 1_555 1_555
C12C C13C 1_555 1_555
C17I C18I 1_555 1_555
C18J C19C 1_555 1_555
C19C C20C 1_555 1_555
C23C C24C 1_555 1_555
C27B C27H 1_555 1_555
C27B C31H 1_555 1_555
C27H C31B 1_555 1_555
C27J C28J 1_555 1_555
C28B C28H 1_555 1_555
C28B C29B 1_555 1_555
C28H C29B 1_555 1_555
C29B C30B 1_555 1_555
C29B C30H 1_555 1_555
C30B C30H 1_555 1_555
C30B C31B 1_555 1_555
C30H C31H 1_555 1_555
C30J C31J 1_555 1_555
C31B C31H 1_555 1_555

#END
