
#######################################################################
#
#                 Cambridge Crystallographic Data Centre
#                                CCDC 
#
#######################################################################
#
# If this CIF has been generated from an entry in the Cambridge 
# Structural Database, then it will include bibliographic, chemical, 
# crystal, experimental, refinement or atomic coordinate data resulting 
# from the CCDC's data processing and validation procedures.
#
#######################################################################

data_SOTTUR
_chemical_formula_moiety         '(C12 H42 N4 O19 P4 Sr2)n'
_symmetry_cell_setting           triclinic
_symmetry_space_group_name_H-M   'P -1'
_symmetry_Int_Tables_number      2
_space_group_name_Hall           '-P 1'
loop_
_symmetry_equiv_pos_site_id
_symmetry_equiv_pos_as_xyz
1 x,y,z
2 -x,-y,-z
_cell_length_a                   7.133(3)
_cell_length_b                   10.519(4)
_cell_length_c                   11.519(5)
_cell_angle_alpha                74.034(13)
_cell_angle_beta                 83.174(14)
_cell_angle_gamma                72.585(13)
_cell_volume                     792.236
loop_
_atom_site_label
_atom_site_type_symbol
_atom_site_fract_x
_atom_site_fract_y
_atom_site_fract_z
Sr1 Sr 0.22078(4) 0.59993(3) 0.45904(3)
P1 P -0.28767(12) 0.67799(8) 0.32331(7)
P2 P 0.17727(12) 0.74174(8) 0.68361(7)
N1 N -0.4780(4) 0.9070(3) 0.4217(2)
H1 H -0.5459 0.8487 0.4675
N2 N 0.1290(4) 0.5430(3) 0.8975(2)
H2 H 0.1205 0.4847 0.8541
C1 C -0.3123(5) 0.9043(3) 0.4922(3)
H3 H -0.2386 0.9653 0.4430
H4 H -0.2240 0.8118 0.5121
C2 C -0.6122(5) 1.0516(3) 0.3931(3)
H5 H -0.7222 1.0559 0.3486
H6 H -0.5413 1.1138 0.3427
C3 C -0.4010(5) 0.8636(3) 0.3069(3)
H7 H -0.3044 0.9118 0.2684
H8 H -0.5089 0.8938 0.2528
C4 C 0.2069(5) 0.4572(4) 1.0188(3)
H9 H 0.2154 0.5171 1.0675
H10 H 0.3380 0.3986 1.0080
C5 C -0.0746(5) 0.6306(3) 0.9166(3)
H11 H -0.1278 0.6855 0.8391
H12 H -0.0699 0.6928 0.9640
C6 C 0.2684(5) 0.6225(4) 0.8297(3)
H13 H 0.3922 0.5579 0.8146
H14 H 0.2940 0.6752 0.8802
O1 O -0.2223(4) 0.6761(3) 0.1925(2)
O2 O -0.1197(3) 0.6278(2) 0.4080(2)
O3 O -0.4425(3) 0.6026(2) 0.3757(2)
O4 O 0.0842(5) 0.8802(3) 0.7091(3)
O5 O 0.0375(4) 0.6800(3) 0.6425(2)
O6 O 0.3606(3) 0.7356(2) 0.5994(2)
O7 O 0.2779(4) 0.4358(3) 0.3140(2)
O8 O 0.1410(4) 0.8536(3) 0.3267(3)
Sr1A Sr -1.22078(4) 1.40007(3) 0.54096(3)
Sr1A_2 Sr -0.22078(4) 0.40007(3) 0.54096(3)
Sr1_2 Sr -0.77922(4) 0.59993(3) 0.45904(3)
Sr1_3 Sr -0.77922(4) 1.59993(3) 0.45904(3)
Sr1A_3 Sr -0.22078(4) 1.40007(3) 0.54096(3)
Sr1A_4 Sr -0.22078(4) 0.40007(3) 1.54096(3)
P1A P -0.71233(12) 1.32201(8) 0.67669(7)
P2A P -0.17727(12) 0.25826(8) 1.31639(7)
N1A N -0.5220(4) 1.0930(3) 0.5783(2)
H1A H -0.4541 1.1513 0.5325
N2A N -0.1290(4) 0.4570(3) 1.1025(2)
H2A H -0.1205 0.5153 1.1459
C1A C -0.6877(5) 1.0957(3) 0.5078(3)
H3A H -0.7614 1.0347 0.5570
H4A H -0.7760 1.1882 0.4879
C2A C -0.3878(5) 0.9484(3) 0.6069(3)
H5A H -0.2778 0.9441 0.6514
H6A H -0.4587 0.8862 0.6573
C3A C -0.5990(5) 1.1364(3) 0.6931(3)
H7A H -0.6956 1.0882 0.7316
H8A H -0.4911 1.1062 0.7472
C4A C -0.2069(5) 0.5428(4) 0.9812(3)
H9A H -0.2154 0.4829 0.9325
H10A H -0.3380 0.6014 0.9920
C5A C 0.0746(5) 0.3694(3) 1.0834(3)
H11A H 0.1278 0.3145 1.1609
H12A H 0.0699 0.3072 1.0360
C6A C -0.2684(5) 0.3775(4) 1.1703(3)
H13A H -0.3922 0.4421 1.1854
H14A H -0.2940 0.3248 1.1198
O1A O -0.7777(4) 1.3239(3) 0.8075(2)
O2A O -0.8803(3) 1.3722(2) 0.5920(2)
O2A_2 O 0.1197(3) 0.3722(2) 0.5920(2)
O2_2 O -1.1197(3) 1.6278(2) 0.4080(2)
O3A O -0.5575(3) 1.3974(2) 0.6243(2)
O3_2 O 0.5575(3) 0.6026(2) 0.3757(2)
O3A_2 O 0.4425(3) 0.3974(2) 0.6243(2)
O3A_3 O -1.5575(3) 1.3974(2) 0.6243(2)
O3_3 O -1.4425(3) 1.6026(2) 0.3757(2)
O4A O -0.0842(5) 0.1198(3) 1.2909(3)
O5A O -0.0375(4) 0.3200(3) 1.3575(2)
O5A_2 O -1.0375(4) 1.3200(3) 0.3575(2)
O6A O -0.3606(3) 0.2644(2) 1.4006(2)
O6A_2 O -1.3606(3) 1.2644(2) 0.4006(2)
O7A O -1.2779(4) 1.5642(3) 0.6860(2)
O8A O -1.1410(4) 1.1464(3) 0.6733(3)
O9 O 0.1528(17) 0.9214(8) 0.9246(6)
O10 O 0.572(2) 0.8771(19) -0.0096(14)
O11 O 0.152(3) 0.7264(14) 0.1512(14)
loop_
_geom_bond_atom_site_label_1
_geom_bond_atom_site_label_2
_geom_bond_site_symmetry_1
_geom_bond_site_symmetry_2
Sr1 O2 1_555 1_555
P1 C3 1_555 1_555
P2 C6 1_555 1_555
N1 H1 1_555 1_555
N2 H2 1_555 1_555
C1 N1 1_555 1_555
H3 C1 1_555 1_555
H4 C1 1_555 1_555
C2 N1 1_555 1_555
H5 C2 1_555 1_555
H6 C2 1_555 1_555
C3 N1 1_555 1_555
H7 C3 1_555 1_555
H8 C3 1_555 1_555
C4 N2 1_555 1_555
H9 C4 1_555 1_555
H10 C4 1_555 1_555
C5 N2 1_555 1_555
H11 C5 1_555 1_555
H12 C5 1_555 1_555
C6 N2 1_555 1_555
H13 C6 1_555 1_555
H14 C6 1_555 1_555
O1 P1 1_555 1_555
O2 P1 1_555 1_555
O3 P1 1_555 1_555
O4 P2 1_555 1_555
O5 Sr1 1_555 1_555
O6 Sr1 1_555 1_555
O7 Sr1 1_555 1_555
O8 Sr1 1_555 1_555
Sr1A O2A 1_555 1_555
Sr1A_2 O2 1_555 1_555
Sr1_2 O3 1_555 1_555
Sr1_3 O2A 1_555 1_555
Sr1A_3 O3A 1_555 1_555
Sr1A_4 O5A 1_555 1_555
P1A C3A 1_555 1_555
P2A C6A 1_555 1_555
N1A H1A 1_555 1_555
N2A H2A 1_555 1_555
C1A C2 1_555 1_555
H3A C1A 1_555 1_555
H4A C1A 1_555 1_555
C2A C1 1_555 1_555
H5A C2A 1_555 1_555
H6A C2A 1_555 1_555
C3A N1A 1_555 1_555
H7A C3A 1_555 1_555
H8A C3A 1_555 1_555
C4A C5 1_555 1_555
H9A C4A 1_555 1_555
H10A C4A 1_555 1_555
C5A C4 1_555 1_555
H11A C5A 1_555 1_555
H12A C5A 1_555 1_555
C6A N2A 1_555 1_555
H13A C6A 1_555 1_555
H14A C6A 1_555 1_555
O1A P1A 1_555 1_555
O2A P1A 1_555 1_555
O2A_2 Sr1 1_555 1_555
O2_2 Sr1A 1_555 1_555
O3A Sr1_3 1_555 1_555
O3_2 Sr1 1_555 1_555
O3A_2 Sr1 1_555 1_555
O3A_3 Sr1A 1_555 1_555
O3_3 Sr1A 1_555 1_555
O4A P2A 1_555 1_555
O5A P2A 1_555 1_555
O5A_2 Sr1A 1_555 1_555
O6A Sr1A_4 1_555 1_555
O6A_2 Sr1A 1_555 1_555
O7A Sr1A 1_555 1_555
O8A Sr1A 1_555 1_555
P2 O5 1_555 1_555
P2 O6 1_555 1_555
O3 Sr1A_2 1_555 1_555
Sr1A_2 O2A_2 1_555 1_555
Sr1_3 O2_2 1_555 1_555
P1A O3A 1_555 1_555
P2A O6A 1_555 1_555
N1A C1A 1_555 1_555
N1A C2A 1_555 1_555
N2A C4A 1_555 1_555
N2A C5A 1_555 1_555

#END
