
#######################################################################
#
#                 Cambridge Crystallographic Data Centre
#                                CCDC 
#
#######################################################################
#
# If this CIF has been generated from an entry in the Cambridge 
# Structural Database, then it will include bibliographic, chemical, 
# crystal, experimental, refinement or atomic coordinate data resulting 
# from the CCDC's data processing and validation procedures.
#
#######################################################################

data_BORBEQ
_chemical_formula_moiety         '(C21 H41 Na1 Ni1 O22)n'
_symmetry_cell_setting           orthorhombic
_symmetry_space_group_name_H-M   'P 21 21 21'
_symmetry_Int_Tables_number      19
_space_group_name_Hall           'P 2ac 2ab'
loop_
_symmetry_equiv_pos_site_id
_symmetry_equiv_pos_as_xyz
1 x,y,z
2 1/2-x,-y,1/2+z
3 -x,1/2+y,1/2-z
4 1/2+x,1/2-y,-z
_cell_length_a                   15.330(3)
_cell_length_b                   15.453(3)
_cell_length_c                   16.660(3)
_cell_angle_alpha                90
_cell_angle_beta                 90
_cell_angle_gamma                90
_cell_volume                     3946.66
loop_
_atom_site_label
_atom_site_type_symbol
_atom_site_fract_x
_atom_site_fract_y
_atom_site_fract_z
_atom_site_U_iso_or_equiv
_atom_site_thermal_displace_type
Ni1 Ni 0.60839(4) 0.90619(4) 0.10019(4) 0.0317 Uani
Na1 Na 0.19561(15) 1.20633(15) 0.21686(14) 0.0400 Uani
C1 C 0.4760(4) 0.9667(4) 0.2202(4) 0.0393 Uani
C2 C 0.3775(4) 0.9681(4) 0.2141(5) 0.0453 Uani
H1 H 0.3524 0.9485 0.2643 0.0550 Uiso
H2 H 0.3588 0.9291 0.1720 0.0550 Uiso
C3 C 0.3451(4) 1.0610(4) 0.1954(4) 0.0417 Uani
H3 H 0.3650 1.0781 0.1418 0.0500 Uiso
C4 C 0.3771(4) 1.1246(4) 0.2557(4) 0.0390 Uani
H4 H 0.3503 1.1119 0.3077 0.0470 Uiso
C5 C 0.4776(4) 1.1216(4) 0.2645(4) 0.0443 Uani
H5 H 0.4950 1.1598 0.3087 0.0530 Uiso
C6 C 0.5070(4) 1.0311(5) 0.2831(4) 0.0453 Uani
H6 H 0.4846 1.0142 0.3352 0.0540 Uiso
H7 H 0.5702 1.0297 0.2857 0.0540 Uiso
C7 C 0.5072(5) 0.8731(4) 0.2421(4) 0.0477 Uani
C8 C 0.7285(4) 1.0267(4) 0.0156(4) 0.0397 Uani
C9 C 0.7296(5) 1.1229(5) 0.0059(4) 0.0527 Uani
H8 H 0.7891 1.1434 0.0117 0.0640 Uiso
H9 H 0.6951 1.1488 0.0485 0.0640 Uiso
C10 C 0.6946(5) 1.1523(4) -0.0734(4) 0.0503 Uani
H10 H 0.6326 1.1369 -0.0767 0.0610 Uiso
C11 C 0.7429(4) 1.1092(4) -0.1427(4) 0.0437 Uani
H11 H 0.8036 1.1289 -0.1426 0.0520 Uiso
C12 C 0.7414(4) 1.0113(4) -0.1338(4) 0.0407 Uani
H12 H 0.7765 0.9856 -0.1768 0.0490 Uiso
C13 C 0.7779(4) 0.9840(5) -0.0542(4) 0.0463 Uani
H13 H 0.8390 0.9998 -0.0514 0.0560 Uiso
H14 H 0.7738 0.9215 -0.0493 0.0560 Uiso
C14 C 0.7683(4) 0.9967(4) 0.0984(4) 0.0477 Uani
C15 C 0.5430(3) 0.7773(4) -0.0222(4) 0.0373 Uani
C16 C 0.5425(3) 0.7908(4) -0.1129(4) 0.0367 Uani
H15 H 0.5615 0.7382 -0.1394 0.0440 Uiso
H16 H 0.5829 0.8366 -0.1269 0.0440 Uiso
C17 C 0.4505(3) 0.8147(4) -0.1416(3) 0.0337 Uani
H17 H 0.4332 0.8705 -0.1186 0.0410 Uiso
C18 C 0.3861(4) 0.7459(4) -0.1177(3) 0.0353 Uani
H18 H 0.4000 0.6923 -0.1464 0.0430 Uiso
C19 C 0.3879(4) 0.7281(4) -0.0277(4) 0.0427 Uani
H19 H 0.3497 0.6788 -0.0164 0.0510 Uiso
C20 C 0.4798(4) 0.7061(5) 0.0008(4) 0.0450 Uani
H20 H 0.4798 0.6989 0.0587 0.0540 Uiso
H21 H 0.4983 0.6519 -0.0232 0.0540 Uiso
C21 C 0.6391(4) 0.7539(4) 0.0047(4) 0.0403 Uani
O1 O 0.5154(3) 0.9885(3) 0.1430(3) 0.0413 Uani
H22 H 0.5245 1.0407 0.1410 0.0620 Uiso
O2 O 0.2518(3) 1.0616(3) 0.1977(4) 0.0653 Uani
H23 H 0.2339 1.1104 0.1875 0.0980 Uiso
O3 O 0.3491(3) 1.2076(3) 0.2294(3) 0.0477 Uani
H24 H 0.3764 1.2452 0.2534 0.0720 Uiso
O4 O 0.5180(3) 1.1504(3) 0.1928(3) 0.0533 Uani
H25 H 0.5261 1.1091 0.1629 0.0800 Uiso
O5 O 0.5671(3) 0.8408(3) 0.1972(3) 0.0470 Uani
O6 O 0.4741(4) 0.8379(4) 0.3005(4) 0.0773 Uani
O7 O 0.6385(3) 0.9966(3) 0.0162(3) 0.0423 Uani
H26 H 0.6234 0.9846 -0.0297 0.0630 Uiso
O8 O 0.7033(5) 1.2437(3) -0.0829(3) 0.0773 Uani
H27 H 0.6775 1.2684 -0.0464 0.1160 Uiso
O9 O 0.7022(3) 1.1354(3) -0.2172(3) 0.0470 Uani
H28 H 0.7245 1.1090 -0.2546 0.0710 Uiso
O10 O 0.6546(3) 0.9781(3) -0.1386(3) 0.0490 Uani
H29 H 0.6329 0.9772 -0.0936 0.0740 Uiso
O11 O 0.7206(3) 0.9554(3) 0.1477(3) 0.0420 Uani
O12 O 0.8455(4) 1.0162(5) 0.1083(4) 0.0883 Uani
O13 O 0.5205(2) 0.8570(3) 0.0177(3) 0.0415 Uani
H30 H 0.4679 0.8580 0.0264 0.0620 Uiso
O14 O 0.4485(3) 0.8195(4) -0.2285(3) 0.0510 Uani
H31 H 0.4745 0.8630 -0.2434 0.0760 Uiso
O15 O 0.3022(3) 0.7759(3) -0.1434(3) 0.0459 Uani
H32 H 0.2640 0.7519 -0.1170 0.0690 Uiso
O16 O 0.3577(3) 0.8015(4) 0.0182(3) 0.0509 Uani
H33 H 0.3990 0.8337 0.0279 0.0760 Uiso
O17 O 0.6747(2) 0.8061(3) 0.0540(3) 0.0395 Uani
O18 O 0.6725(3) 0.6895(3) -0.0247(4) 0.0603 Uani
Na1C Na 0.69561(15) 1.29367(15) -0.21686(14) 0.0400 Uani
Na1A Na 0.30439(15) 0.79367(15) -0.28314(14) 0.0400 Uani
O8C O 0.2033(5) 1.2563(3) 0.0829(3) 0.0773 Uani
H27C H 0.1775 1.2316 0.0464 0.1160 Uiso
O9C O 0.2022(3) 1.3646(3) 0.2172(3) 0.0470 Uani
H28C H 0.2245 1.3910 0.2546 0.0710 Uiso
O14A O 0.0515(3) 1.1805(4) 0.2715(3) 0.0510 Uani
H31A H 0.0255 1.1370 0.2566 0.0760 Uiso
O15A O 0.1978(3) 1.2241(3) 0.3566(3) 0.0459 Uani
H32A H 0.2360 1.2481 0.3830 0.0690 Uiso
O19 O 0.9584(4) 0.0229(5) 0.2333(3) 0.0803 Uani
O20 O 0.1673(18) 0.9701(19) 0.085(3) 0.4167 Uani
O21 O 0.7704(18) 0.776(2) 0.774(4) 0.2683 Uani
O22 O 0.5022(14) 0.457(3) 0.979(3) 0.1790 Uani
loop_
_atom_site_aniso_label
_atom_site_aniso_U_11
_atom_site_aniso_U_22
_atom_site_aniso_U_33
_atom_site_aniso_U_23
_atom_site_aniso_U_13
_atom_site_aniso_U_12
Ni1 0.0290(3) 0.0336(3) 0.0326(3) -0.0006(3) 0.0015(3) 0.0030(3)
Na1 0.0388(12) 0.0389(13) 0.0424(13) 0.0033(10) 0.0053(10) 0.0066(9)
C1 0.043(3) 0.037(3) 0.038(3) 0.004(2) 0.013(3) 0.010(2)
C2 0.045(4) 0.028(3) 0.063(4) -0.003(3) 0.004(3) 0.001(2)
C3 0.031(3) 0.030(3) 0.064(4) -0.010(3) -0.001(3) 0.002(2)
C4 0.035(3) 0.029(3) 0.053(4) -0.002(2) 0.006(3) 0.005(2)
C5 0.040(3) 0.046(4) 0.047(4) -0.014(3) -0.007(3) -0.001(2)
C6 0.042(3) 0.054(4) 0.040(3) -0.003(3) -0.004(3) 0.008(3)
C7 0.060(4) 0.033(3) 0.050(4) 0.009(3) 0.010(3) 0.009(3)
C8 0.037(3) 0.051(4) 0.031(3) 0.001(3) -0.004(2) -0.007(3)
C9 0.078(5) 0.046(4) 0.034(3) 0.001(3) -0.007(3) -0.020(3)
C10 0.076(5) 0.033(3) 0.042(4) -0.003(3) 0.002(3) 0.002(3)
C11 0.043(3) 0.054(4) 0.034(3) 0.011(3) -0.001(3) -0.010(3)
C12 0.042(3) 0.043(3) 0.037(3) -0.001(3) 0.009(3) 0.006(3)
C13 0.041(3) 0.053(4) 0.045(4) 0.012(3) 0.000(3) 0.004(3)
C14 0.049(3) 0.054(4) 0.040(3) 0.008(3) -0.013(3) -0.015(3)
C15 0.021(2) 0.041(3) 0.050(3) -0.005(3) -0.006(2) 0.005(2)
C16 0.024(2) 0.042(3) 0.044(3) -0.004(3) 0.000(2) -0.001(2)
C17 0.025(2) 0.041(3) 0.035(3) 0.000(2) 0.001(2) -0.006(2)
C18 0.025(2) 0.045(3) 0.036(3) -0.004(2) -0.002(2) -0.003(2)
C19 0.033(3) 0.047(3) 0.048(3) 0.008(3) 0.003(3) -0.014(3)
C20 0.036(3) 0.047(4) 0.052(4) 0.006(3) -0.005(3) -0.001(3)
C21 0.026(2) 0.048(3) 0.047(3) -0.006(3) -0.005(2) 0.010(2)
O1 0.051(2) 0.034(2) 0.039(2) 0.0045(18) 0.0142(19) 0.0136(18)
O2 0.030(2) 0.044(3) 0.122(5) -0.014(3) 0.000(3) 0.0023(19)
O3 0.041(2) 0.027(2) 0.075(3) -0.010(2) -0.003(2) 0.0005(17)
O4 0.040(2) 0.040(2) 0.080(3) -0.003(2) 0.013(2) -0.0014(19)
O5 0.049(2) 0.036(2) 0.056(3) 0.011(2) 0.016(2) 0.0171(19)
O6 0.093(4) 0.058(3) 0.081(4) 0.036(3) 0.048(4) 0.025(3)
O7 0.038(2) 0.052(3) 0.037(2) 0.0076(19) -0.0053(17) -0.0053(18)
O8 0.147(6) 0.034(3) 0.051(3) 0.001(2) 0.003(3) -0.001(3)
O9 0.065(3) 0.043(2) 0.033(2) 0.0058(19) -0.003(2) -0.001(2)
O10 0.063(3) 0.046(3) 0.038(2) 0.001(2) -0.005(2) -0.016(2)
O11 0.044(2) 0.052(3) 0.030(2) 0.0044(19) -0.0078(18) -0.0077(19)
O12 0.062(3) 0.137(6) 0.066(4) 0.038(4) -0.033(3) -0.039(4)
O13 0.0246(18) 0.044(2) 0.056(3) -0.015(2) -0.0056(18) 0.0100(16)
O14 0.040(2) 0.077(3) 0.036(2) 0.011(2) -0.0019(19) -0.020(2)
O15 0.0237(18) 0.068(3) 0.046(2) 0.009(2) -0.0035(18) -0.0039(18)
O16 0.0278(19) 0.081(3) 0.044(2) -0.014(2) 0.0077(18) -0.005(2)
O17 0.0235(18) 0.046(2) 0.049(3) -0.0124(19) -0.0070(17) 0.0058(17)
O18 0.038(2) 0.058(3) 0.085(4) -0.034(3) -0.015(2) 0.019(2)
Na1C 0.0388 0.0389 0.0424 0.0033 -0.0053 -0.0066
Na1A 0.0388 0.0389 0.0424 -0.0033 -0.0053 0.0066
O8C 0.147 0.034 0.051 0.001 -0.003 0.001
O9C 0.065 0.043 0.033 0.0058 0.003 0.001
O14A 0.04 0.077 0.036 -0.011 0.0019 -0.02
O15A 0.0237 0.068 0.046 -0.009 0.0035 -0.0039
O19 0.078(4) 0.105(5) 0.058(3) -0.011(3) -0.011(3) -0.028(4)
O20 0.24(3) 0.24(3) 0.77(7) -0.41(4) -0.38(4) 0.18(2)
O21 0.075(17) 0.11(2) 0.62(10) -0.01(4) 0.16(4) 0.032(15)
O22 0.047(12) 0.23(4) 0.26(4) 0.00(3) -0.051(19) 0.025(17)
loop_
_geom_bond_atom_site_label_1
_geom_bond_atom_site_label_2
_geom_bond_site_symmetry_1
_geom_bond_site_symmetry_2
Ni1 O1 1_555 1_555
Na1 O2 1_555 1_555
C1 C2 1_555 1_555
C2 H1 1_555 1_555
H2 C2 1_555 1_555
C3 C2 1_555 1_555
H3 C3 1_555 1_555
C4 C3 1_555 1_555
H4 C4 1_555 1_555
C5 C4 1_555 1_555
H5 C5 1_555 1_555
C6 C1 1_555 1_555
H6 C6 1_555 1_555
H7 C6 1_555 1_555
C7 C1 1_555 1_555
C8 C9 1_555 1_555
C9 H8 1_555 1_555
H9 C9 1_555 1_555
C10 C9 1_555 1_555
H10 C10 1_555 1_555
C11 C10 1_555 1_555
H11 C11 1_555 1_555
C12 C11 1_555 1_555
H12 C12 1_555 1_555
C13 C8 1_555 1_555
H13 C13 1_555 1_555
H14 C13 1_555 1_555
C14 C8 1_555 1_555
C15 C16 1_555 1_555
C16 H15 1_555 1_555
H16 C16 1_555 1_555
C17 C16 1_555 1_555
H17 C17 1_555 1_555
C18 C17 1_555 1_555
H18 C18 1_555 1_555
C19 C18 1_555 1_555
H19 C19 1_555 1_555
C20 C15 1_555 1_555
H20 C20 1_555 1_555
H21 C20 1_555 1_555
C21 C15 1_555 1_555
O1 C1 1_555 1_555
H22 O1 1_555 1_555
O2 C3 1_555 1_555
H23 O2 1_555 1_555
O3 Na1 1_555 1_555
H24 O3 1_555 1_555
O4 C5 1_555 1_555
H25 O4 1_555 1_555
O5 Ni1 1_555 1_555
O6 C7 1_555 1_555
O7 Ni1 1_555 1_555
H26 O7 1_555 1_555
O8 C10 1_555 1_555
H27 O8 1_555 1_555
O9 C11 1_555 1_555
H28 O9 1_555 1_555
O10 C12 1_555 1_555
H29 O10 1_555 1_555
O11 Ni1 1_555 1_555
O12 C14 1_555 1_555
O13 Ni1 1_555 1_555
H30 O13 1_555 1_555
O14 C17 1_555 1_555
H31 O14 1_555 1_555
O15 C18 1_555 1_555
H32 O15 1_555 1_555
O16 C19 1_555 1_555
H33 O16 1_555 1_555
O17 Ni1 1_555 1_555
O18 C21 1_555 1_555
Na1C O8 1_555 1_555
Na1A O14 1_555 1_555
O8C Na1 1_555 1_555
H27C O8C 1_555 1_555
O9C Na1 1_555 1_555
H28C O9C 1_555 1_555
O14A Na1 1_555 1_555
H31A O14A 1_555 1_555
O15A Na1 1_555 1_555
H32A O15A 1_555 1_555
C4 O3 1_555 1_555
C5 C6 1_555 1_555
C7 O5 1_555 1_555
C8 O7 1_555 1_555
C12 C13 1_555 1_555
C14 O11 1_555 1_555
C15 O13 1_555 1_555
C19 C20 1_555 1_555
C21 O17 1_555 1_555
O9 Na1C 1_555 1_555
O15 Na1A 1_555 1_555

#END
