
#######################################################################
#
#                 Cambridge Crystallographic Data Centre
#                                CCDC 
#
#######################################################################
#
# If this CIF has been generated from an entry in the Cambridge 
# Structural Database, then it will include bibliographic, chemical, 
# crystal, experimental, refinement or atomic coordinate data resulting 
# from the CCDC's data processing and validation procedures.
#
#######################################################################

data_NOFQAB
_chemical_formula_moiety         'C224 H24 Cl40 N75 O12 Zn25'
_symmetry_cell_setting           tetragonal
_symmetry_space_group_name_H-M   'I 4/m m m'
_symmetry_Int_Tables_number      139
_space_group_name_Hall           '-I 4 2'
loop_
_symmetry_equiv_pos_site_id
_symmetry_equiv_pos_as_xyz
1 x,y,z
2 -y,x,z
3 y,-x,z
4 y,x,-z
5 1/2+x,1/2+y,1/2+z
6 1/2-y,1/2+x,1/2+z
7 1/2+y,1/2-x,1/2+z
8 1/2+y,1/2+x,1/2-z
9 -x,-y,z
10 x,-y,-z
11 -x,y,-z
12 -y,-x,-z
13 1/2-x,1/2-y,1/2+z
14 1/2+x,1/2-y,1/2-z
15 1/2-x,1/2+y,1/2-z
16 1/2-y,1/2-x,1/2-z
17 -x,-y,-z
18 y,-x,-z
19 -y,x,-z
20 -y,-x,z
21 1/2-x,1/2-y,1/2-z
22 1/2+y,1/2-x,1/2-z
23 1/2-y,1/2+x,1/2-z
24 1/2-y,1/2-x,1/2+z
25 x,y,-z
26 -x,y,z
27 x,-y,z
28 y,x,z
29 1/2+x,1/2+y,1/2-z
30 1/2-x,1/2+y,1/2+z
31 1/2+x,1/2-y,1/2+z
32 1/2+y,1/2+x,1/2+z
_cell_length_a                   38.7657(4)
_cell_length_b                   38.7657(4)
_cell_length_c                   56.4541(14)
_cell_angle_alpha                90
_cell_angle_beta                 90
_cell_angle_gamma                90
_cell_volume                     84838.1
loop_
_atom_site_label
_atom_site_type_symbol
_atom_site_fract_x
_atom_site_fract_y
_atom_site_fract_z
_atom_site_U_iso_or_equiv
_atom_site_thermal_displace_type
O2 O 0.21590 0.21590 0.12180 0.3481 Uiso
O3 O 0.19270 0.19270 0.15090 0.2626 Uiso
O4 O 0.05460 0.05460 0.22830 0.6373 Uiso
O5 O 0.02590 0.36940 0.29420 0.7785 Uiso
O6 O 0.91460 0.91460 0.35260 1.3184 Uiso
O7 O 0.41700 0.00000 0.26900 0.5574 Uiso
O8 O 0.30480 1.00000 0.20670 0.3143 Uiso
O9 O 0.27150 1.00000 0.17680 0.2119 Uiso
O10 O 0.21430 0.00000 0.08270 0.7483 Uiso
O11 O 0.31190 -0.00000 0.05530 0.6067 Uiso
O12 O 0.27950 0.21240 0.00000 0.8126 Uiso
Zn1 Zn 0.31680 0.42430 0.33790 0.1894 Uani
Zn2 Zn 0.17700 0.42420 0.37260 0.1795 Uani
Zn3 Zn 0.21980 0.32620 0.29770 0.1607 Uani
Zn4 Zn 0.07350 0.42350 0.44810 0.2021 Uani
Cl1 Cl 0.22500 0.43870 0.22140 0.5384 Uiso
Cl2 Cl 0.24740 0.34770 0.44750 0.7534 Uiso
Cl3 Cl 0.10280 0.42210 0.27190 0.2591 Uiso
Cl4 Cl 0.16970 0.22720 0.37520 0.7453 Uiso
Cl5 Cl 0.04520 0.34140 0.35450 0.4378 Uiso
Cl6 Cl 0.06890 0.46180 0.30060 0.5732 Uiso
Cl7 Cl 0.13620 0.27780 0.45260 0.5449 Uiso
Cl8 Cl 0.41280 0.46730 0.41810 0.4833 Uiso
Cl9 Cl 0.03140 0.44700 0.35170 0.3162 Uiso
Cl10 Cl 0.23230 0.40890 0.47820 0.5441 Uiso
N1 N 0.32890 0.47290 0.32970 0.2029 Uiso
N2 N 0.29310 0.40130 0.31080 0.1552 Uiso
N3 N 0.25860 0.36130 0.29530 0.1434 Uiso
N4 N 0.28360 0.42510 0.36380 0.1578 Uiso
N5 N 0.22920 0.42700 0.37660 0.1610 Uiso
N6 N 0.19210 0.32330 0.26760 0.1640 Uiso
N7 N 0.24160 0.28220 0.30490 0.1385 Uiso
N8 N 0.17110 0.38780 0.34710 0.1887 Uiso
N9 N 0.18940 0.34490 0.32230 0.1451 Uiso
N10 N 0.16210 0.46860 0.36350 0.1534 Uiso
N11 N 0.10310 0.40500 0.42590 0.2243 Uiso
N12 N 0.15120 0.40710 0.39870 0.1915 Uiso
N13 N 0.35930 0.39700 0.34540 0.1768 Uiso
N14 N 0.06500 0.47070 0.43520 0.1878 Uiso
N15 N 0.03000 0.40200 0.44880 0.2250 Uiso
N16 N 0.09350 0.42570 0.47980 0.2392 Uiso
C1 C 0.31110 0.50000 0.33990 0.2149 Uiso
C2 C 0.35700 0.47910 0.31470 0.2532 Uiso
C3 C 0.38330 0.46370 0.30070 0.3498 Uiso
C4 C 0.39980 0.48550 0.28440 0.5971 Uiso
C5 C 0.27860 0.37040 0.31400 0.1614 Uiso
C6 C 0.28270 0.41070 0.29180 0.2015 Uiso
C7 C 0.29170 0.44080 0.28000 0.2935 Uiso
C8 C 0.27850 0.44760 0.25760 0.4877 Uiso
C9 C 0.25630 0.42410 0.24690 0.5061 Uiso
C10 C 0.24730 0.39390 0.25870 0.2743 Uiso
C11 C 0.26050 0.38720 0.28110 0.1961 Uiso
C12 C 0.25010 0.43790 0.35890 0.1422 Uiso
C13 C 0.24360 0.40970 0.39470 0.2591 Uiso
C14 C 0.23970 0.39380 0.41660 0.2661 Uiso
C15 C 0.26770 0.37780 0.42730 1.3428 Uiso
C16 C 0.29970 0.37790 0.41620 0.4561 Uiso
C17 C 0.30370 0.39380 0.39440 0.4126 Uiso
C18 C 0.27560 0.40970 0.38360 0.2063 Uiso
C19 C 0.19820 0.30180 0.25000 0.1809 Uiso
C20 C 0.16350 0.34480 0.26030 0.1485 Uiso
C21 C 0.14960 0.37300 0.27310 0.1947 Uiso
C22 C 0.12520 0.38750 0.25910 0.2468 Uiso
C23 C 0.27150 0.27150 0.29580 0.1479 Uiso
C24 C 0.23210 0.25890 0.32230 0.1485 Uiso
C25 C 0.20410 0.25890 0.34140 0.2364 Uiso
C26 C 0.20500 0.22850 0.35500 0.4492 Uiso
C27 C 0.19860 0.37230 0.33500 0.1678 Uiso
C28 C 0.15570 0.34150 0.32760 0.1893 Uiso
C29 C 0.13300 0.31670 0.31910 0.2140 Uiso
C30 C 0.09890 0.31630 0.32670 0.3114 Uiso
C31 C 0.08750 0.34090 0.34290 0.3323 Uiso
C32 C 0.11020 0.36570 0.35140 0.1851 Uiso
C33 C 0.14430 0.36600 0.34380 0.1949 Uiso
C34 C 0.17580 0.50000 0.37340 0.1651 Uiso
C35 C 0.13800 0.48030 0.34510 0.1302 Uiso
C36 C 0.11830 0.45980 0.33350 0.1842 Uiso
C37 C 0.10180 0.48160 0.31990 0.2006 Uiso
C38 C 0.12420 0.42380 0.41080 0.1797 Uiso
C39 C 0.14640 0.37460 0.40520 0.2630 Uiso
C40 C 0.16290 0.34340 0.40110 0.2837 Uiso
C41 C 0.15420 0.31440 0.41430 0.6628 Uiso
C42 C 0.12890 0.31660 0.43160 0.5409 Uiso
C43 C 0.11230 0.34790 0.43580 0.3757 Uiso
C44 C 0.12100 0.37680 0.42260 0.2582 Uiso
C45 C 0.36950 0.36950 0.33360 0.1944 Uiso
C46 C 0.38180 0.40910 0.36200 0.2032 Uiso
C47 C 0.38370 0.43900 0.38030 0.2339 Uiso
C48 C 0.41130 0.43610 0.39420 0.4064 Uiso
C49 C 0.06980 0.50000 0.44660 0.2075 Uiso
C50 C 0.05930 0.48480 0.41300 0.1434 Uiso
C51 C 0.05050 0.46350 0.39400 0.2244 Uiso
C52 C 0.04340 0.48040 0.37330 0.2297 Uiso
C53 C 0.07570 0.42780 0.50000 0.1865 Uiso
C54 C 0.12800 0.42340 0.48790 0.2734 Uiso
C55 C 0.15810 0.40970 0.47540 0.4289 Uiso
C56 C 0.18560 0.40350 0.48760 0.6525 Uiso
C57 C 0.00000 0.41420 0.44270 0.2827 Uiso
C58 C 0.01730 0.37830 0.46840 0.6166 Uiso
C59 C 0.03130 0.35480 0.48460 0.5259 Uiso
C60 C 0.01840 0.32130 0.48710 0.6252 Uiso
Zn1Z Zn 0.31680 0.57570 0.33790 0.1894 Uani
Zn1AA Zn 0.42430 0.31680 0.33790 0.1894 Uani
Zn1A Zn 0.57570 0.31680 0.33790 0.1894 Uani
Zn1B Zn 0.42430 0.68320 0.33790 0.1894 Uani
Zn2Z Zn 0.17700 0.57580 0.37260 0.1795 Uani
Zn2AA Zn 0.42420 0.17700 0.37260 0.1795 Uani
Zn2A Zn 0.57580 0.17700 0.37260 0.1795 Uani
Zn2O Zn 0.07580 0.32300 0.12740 0.1795 Uani
Zn3Z Zn 0.21980 0.67380 0.29770 0.1607 Uani
Zn3AA Zn 0.32620 0.21980 0.29770 0.1607 Uani
Zn3O Zn 0.17380 0.28020 0.20230 0.1607 Uani
Zn3A Zn 0.67380 0.21980 0.29770 0.1607 Uani
Zn3V Zn 0.17380 0.71980 0.20230 0.1607 Uani
Zn3B Zn 0.32620 0.78020 0.29770 0.1607 Uani
Zn4Z Zn 0.07350 0.57650 0.44810 0.2021 Uani
Zn4AA Zn 0.42350 0.07350 0.44810 0.2021 Uani
Zn4Y Zn -0.07350 0.42350 0.44810 0.2021 Uani
Zn4X Zn 0.07350 0.42350 0.55190 0.2021 Uani
Zn4J Zn -0.07350 0.42350 0.55190 0.2021 Uani
Zn4A Zn 0.57650 0.07350 0.44810 0.2021 Uani
Zn4I Zn 0.07350 0.57650 0.55190 0.2021 Uani
Cl1Z Cl 0.22500 0.56130 0.22140 0.5384 Uiso
Cl1AA Cl 0.43870 0.22500 0.22140 0.5384 Uiso
Cl1A Cl 0.56130 0.22500 0.22140 0.5384 Uiso
Cl2Z Cl 0.24740 0.65230 0.44750 0.7534 Uiso
Cl2AA Cl 0.34770 0.24740 0.44750 0.7534 Uiso
Cl2A Cl 0.65230 0.24740 0.44750 0.7534 Uiso
Cl3O Cl 0.07790 0.39720 0.22810 0.2591 Uiso
Cl3Z Cl 0.10280 0.57790 0.27190 0.2591 Uiso
Cl3V Cl 0.07790 0.60280 0.22810 0.2591 Uiso
Cl4AA Cl 0.22720 0.16970 0.37520 0.7453 Uiso
Cl4Z Cl 0.16970 0.77280 0.37520 0.7453 Uiso
Cl4B Cl 0.22720 0.83030 0.37520 0.7453 Uiso
Cl5Z Cl 0.04520 0.65860 0.35450 0.4378 Uiso
Cl5AA Cl 0.34140 0.04520 0.35450 0.4378 Uiso
Cl5O Cl 0.15860 0.45480 0.14550 0.4378 Uiso
Cl6Z Cl 0.06890 0.53820 0.30060 0.5732 Uiso
Cl6AA Cl 0.46180 0.06890 0.30060 0.5732 Uiso
Cl6A Cl 0.53820 0.06890 0.30060 0.5732 Uiso
Cl7Z Cl 0.13620 0.72220 0.45260 0.5449 Uiso
Cl7AA Cl 0.27780 0.13620 0.45260 0.5449 Uiso
Cl7A Cl 0.72220 0.13620 0.45260 0.5449 Uiso
Cl8AA Cl 0.46730 0.41280 0.41810 0.4833 Uiso
Cl8Z Cl 0.41280 0.53270 0.41810 0.4833 Uiso
Cl8B Cl 0.46730 0.58720 0.41810 0.4833 Uiso
Cl9Z Cl 0.03140 0.55300 0.35170 0.3162 Uiso
Cl9AA Cl 0.44700 0.03140 0.35170 0.3162 Uiso
Cl9A Cl 0.55300 0.03140 0.35170 0.3162 Uiso
Cl10X Cl 0.23230 0.40890 0.52180 0.5441 Uiso
Cl10Z Cl 0.23230 0.59110 0.47820 0.5441 Uiso
Cl10I Cl 0.23230 0.59110 0.52180 0.5441 Uiso
N1Z N 0.32890 0.52710 0.32970 0.2029 Uiso
N1AA N 0.47290 0.32890 0.32970 0.2029 Uiso
N1A N 0.52710 0.32890 0.32970 0.2029 Uiso
N2Z N 0.29310 0.59870 0.31080 0.1552 Uiso
N2AA N 0.40130 0.29310 0.31080 0.1552 Uiso
N2A N 0.59870 0.29310 0.31080 0.1552 Uiso
N3Z N 0.25860 0.63870 0.29530 0.1434 Uiso
N3AA N 0.36130 0.25860 0.29530 0.1434 Uiso
N3A N 0.63870 0.25860 0.29530 0.1434 Uiso
N3O N 0.13870 0.24140 0.20470 0.1434 Uiso
N4Z N 0.28360 0.57490 0.36380 0.1578 Uiso
N4AA N 0.42510 0.28360 0.36380 0.1578 Uiso
N4A N 0.57490 0.28360 0.36380 0.1578 Uiso
N5Z N 0.22920 0.57300 0.37660 0.1610 Uiso
N5AA N 0.42700 0.22920 0.37660 0.1610 Uiso
N5A N 0.57300 0.22920 0.37660 0.1610 Uiso
N6O N 0.17670 0.30790 0.23240 0.1640 Uiso
N6Z N 0.19210 0.67670 0.26760 0.1640 Uiso
N6V N 0.17670 0.69210 0.23240 0.1640 Uiso
N6AA N 0.32330 0.19210 0.26760 0.1640 Uiso
N7AA N 0.28220 0.24160 0.30490 0.1385 Uiso
N7Z N 0.24160 0.71780 0.30490 0.1385 Uiso
N7B N 0.28220 0.75840 0.30490 0.1385 Uiso
N7O N 0.21780 0.25840 0.19510 0.1385 Uiso
N8Z N 0.17110 0.61220 0.34710 0.1887 Uiso
N8AA N 0.38780 0.17110 0.34710 0.1887 Uiso
N8O N 0.11220 0.32890 0.15290 0.1887 Uiso
N8A N 0.61220 0.17110 0.34710 0.1887 Uiso
N9Z N 0.18940 0.65510 0.32230 0.1451 Uiso
N9AA N 0.34490 0.18940 0.32230 0.1451 Uiso
N9O N 0.15510 0.31060 0.17770 0.1451 Uiso
N10Z N 0.16210 0.53140 0.36350 0.1534 Uiso
N10AA N 0.46860 0.16210 0.36350 0.1534 Uiso
N10A N 0.53140 0.16210 0.36350 0.1534 Uiso
N11Z N 0.10310 0.59500 0.42590 0.2243 Uiso
N11AA N 0.40500 0.10310 0.42590 0.2243 Uiso
N11A N 0.59500 0.10310 0.42590 0.2243 Uiso
N11Y N -0.10310 0.40500 0.42590 0.2243 Uiso
N12Z N 0.15120 0.59290 0.39870 0.1915 Uiso
N12AA N 0.40710 0.15120 0.39870 0.1915 Uiso
N12A N 0.59290 0.15120 0.39870 0.1915 Uiso
N13AA N 0.39700 0.35930 0.34540 0.1768 Uiso
N13Z N 0.35930 0.60300 0.34540 0.1768 Uiso
N13B N 0.39700 0.64070 0.34540 0.1768 Uiso
N13A N 0.60300 0.35930 0.34540 0.1768 Uiso
N14Z N 0.06500 0.52930 0.43520 0.1878 Uiso
N14AA N 0.47070 0.06500 0.43520 0.1878 Uiso
N14A N 0.52930 0.06500 0.43520 0.1878 Uiso
N14Y N -0.06500 0.47070 0.43520 0.1878 Uiso
N15Y N -0.03000 0.40200 0.44880 0.2250 Uiso
N15X N 0.03000 0.40200 0.55120 0.2250 Uiso
N15J N -0.03000 0.40200 0.55120 0.2250 Uiso
N15Z N 0.03000 0.59800 0.44880 0.2250 Uiso
N15AA N 0.40200 0.03000 0.44880 0.2250 Uiso
N16X N 0.09350 0.42570 0.52020 0.2392 Uiso
N16Z N 0.09350 0.57430 0.47980 0.2392 Uiso
N16I N 0.09350 0.57430 0.52020 0.2392 Uiso
N16AA N 0.42570 0.09350 0.47980 0.2392 Uiso
N16Y N -0.09350 0.42570 0.47980 0.2392 Uiso
C1A C 0.50000 0.31110 0.33990 0.2149 Uiso
C2Z C 0.35700 0.52090 0.31470 0.2532 Uiso
C2AA C 0.47910 0.35700 0.31470 0.2532 Uiso
C2A C 0.52090 0.35700 0.31470 0.2532 Uiso
C3Z C 0.38330 0.53630 0.30070 0.3498 Uiso
C3AA C 0.46370 0.38330 0.30070 0.3498 Uiso
C3A C 0.53630 0.38330 0.30070 0.3498 Uiso
C4Z C 0.39980 0.51450 0.28440 0.5971 Uiso
C4AA C 0.48550 0.39980 0.28440 0.5971 Uiso
C4A C 0.51450 0.39980 0.28440 0.5971 Uiso
C5Z C 0.27860 0.62960 0.31400 0.1614 Uiso
C5AA C 0.37040 0.27860 0.31400 0.1614 Uiso
C5A C 0.62960 0.27860 0.31400 0.1614 Uiso
C6Z C 0.28270 0.58930 0.29180 0.2015 Uiso
C6AA C 0.41070 0.28270 0.29180 0.2015 Uiso
C6A C 0.58930 0.28270 0.29180 0.2015 Uiso
C7Z C 0.29170 0.55920 0.28000 0.2935 Uiso
C7AA C 0.44080 0.29170 0.28000 0.2935 Uiso
C7A C 0.55920 0.29170 0.28000 0.2935 Uiso
C8Z C 0.27850 0.55240 0.25760 0.4877 Uiso
C8AA C 0.44760 0.27850 0.25760 0.4877 Uiso
C8A C 0.55240 0.27850 0.25760 0.4877 Uiso
C9Z C 0.25630 0.57590 0.24690 0.5061 Uiso
C9AA C 0.42410 0.25630 0.24690 0.5061 Uiso
C9A C 0.57590 0.25630 0.24690 0.5061 Uiso
C10Z C 0.24730 0.60610 0.25870 0.2743 Uiso
C10AA C 0.39390 0.24730 0.25870 0.2743 Uiso
C10A C 0.60610 0.24730 0.25870 0.2743 Uiso
C11Z C 0.26050 0.61280 0.28110 0.1961 Uiso
C11AA C 0.38720 0.26050 0.28110 0.1961 Uiso
C11A C 0.61280 0.26050 0.28110 0.1961 Uiso
C12Z C 0.25010 0.56210 0.35890 0.1422 Uiso
C12AA C 0.43790 0.25010 0.35890 0.1422 Uiso
C12A C 0.56210 0.25010 0.35890 0.1422 Uiso
C13Z C 0.24360 0.59030 0.39470 0.2591 Uiso
C13AA C 0.40970 0.24360 0.39470 0.2591 Uiso
C13A C 0.59030 0.24360 0.39470 0.2591 Uiso
C14Z C 0.23970 0.60620 0.41660 0.2661 Uiso
C14AA C 0.39380 0.23970 0.41660 0.2661 Uiso
C14A C 0.60620 0.23970 0.41660 0.2661 Uiso
C15Z C 0.26770 0.62220 0.42730 1.3428 Uiso
C15AA C 0.37780 0.26770 0.42730 1.3428 Uiso
C15A C 0.62220 0.26770 0.42730 1.3428 Uiso
C16Z C 0.29970 0.62210 0.41620 0.4561 Uiso
C16AA C 0.37790 0.29970 0.41620 0.4561 Uiso
C16A C 0.62210 0.29970 0.41620 0.4561 Uiso
C17Z C 0.30370 0.60620 0.39440 0.4126 Uiso
C17AA C 0.39380 0.30370 0.39440 0.4126 Uiso
C17A C 0.60620 0.30370 0.39440 0.4126 Uiso
C18Z C 0.27560 0.59030 0.38360 0.2063 Uiso
C18AA C 0.40970 0.27560 0.38360 0.2063 Uiso
C18A C 0.59030 0.27560 0.38360 0.2063 Uiso
C19Z C 0.19820 0.69820 0.25000 0.1809 Uiso
C20O C 0.15520 0.33650 0.23970 0.1485 Uiso
C20Z C 0.16350 0.65520 0.26030 0.1485 Uiso
C20V C 0.15520 0.66350 0.23970 0.1485 Uiso
C21O C 0.12700 0.35040 0.22690 0.1947 Uiso
C21Z C 0.14960 0.62700 0.27310 0.1947 Uiso
C21V C 0.12700 0.64960 0.22690 0.1947 Uiso
C22O C 0.11250 0.37480 0.24090 0.2468 Uiso
C22Z C 0.12520 0.61250 0.25910 0.2468 Uiso
C22V C 0.11250 0.62520 0.24090 0.2468 Uiso
C23B C 0.27150 0.72850 0.29580 0.1479 Uiso
C24AA C 0.25890 0.23210 0.32230 0.1485 Uiso
C24Z C 0.23210 0.74110 0.32230 0.1485 Uiso
C24B C 0.25890 0.76790 0.32230 0.1485 Uiso
C25AA C 0.25890 0.20410 0.34140 0.2364 Uiso
C25Z C 0.20410 0.74110 0.34140 0.2364 Uiso
C25B C 0.25890 0.79590 0.34140 0.2364 Uiso
C26AA C 0.22850 0.20500 0.35500 0.4492 Uiso
C26Z C 0.20500 0.77150 0.35500 0.4492 Uiso
C26B C 0.22850 0.79500 0.35500 0.4492 Uiso
C27Z C 0.19860 0.62770 0.33500 0.1678 Uiso
C27AA C 0.37230 0.19860 0.33500 0.1678 Uiso
C27O C 0.12770 0.30140 0.16500 0.1678 Uiso
C28Z C 0.15570 0.65850 0.32760 0.1893 Uiso
C28AA C 0.34150 0.15570 0.32760 0.1893 Uiso
C28O C 0.15850 0.34430 0.17240 0.1893 Uiso
C29Z C 0.13300 0.68330 0.31910 0.2140 Uiso
C29AA C 0.31670 0.13300 0.31910 0.2140 Uiso
C29O C 0.18330 0.36700 0.18090 0.2140 Uiso
C30Z C 0.09890 0.68370 0.32670 0.3114 Uiso
C30AA C 0.31630 0.09890 0.32670 0.3114 Uiso
C30O C 0.18370 0.40110 0.17330 0.3114 Uiso
C31Z C 0.08750 0.65910 0.34290 0.3323 Uiso
C31AA C 0.34090 0.08750 0.34290 0.3323 Uiso
C31O C 0.15910 0.41250 0.15710 0.3323 Uiso
C32Z C 0.11020 0.63430 0.35140 0.1851 Uiso
C32AA C 0.36570 0.11020 0.35140 0.1851 Uiso
C32O C 0.13430 0.38980 0.14860 0.1851 Uiso
C33Z C 0.14430 0.63400 0.34380 0.1949 Uiso
C33AA C 0.36600 0.14430 0.34380 0.1949 Uiso
C33O C 0.13400 0.35570 0.15620 0.1949 Uiso
C34A C 0.50000 0.17580 0.37340 0.1651 Uiso
C35Z C 0.13800 0.51970 0.34510 0.1302 Uiso
C35AA C 0.48030 0.13800 0.34510 0.1302 Uiso
C35A C 0.51970 0.13800 0.34510 0.1302 Uiso
C36Z C 0.11830 0.54020 0.33350 0.1842 Uiso
C36AA C 0.45980 0.11830 0.33350 0.1842 Uiso
C36A C 0.54020 0.11830 0.33350 0.1842 Uiso
C37Z C 0.10180 0.51840 0.31990 0.2006 Uiso
C37AA C 0.48160 0.10180 0.31990 0.2006 Uiso
C37A C 0.51840 0.10180 0.31990 0.2006 Uiso
C38Z C 0.12420 0.57620 0.41080 0.1797 Uiso
C38AA C 0.42380 0.12420 0.41080 0.1797 Uiso
C38A C 0.57620 0.12420 0.41080 0.1797 Uiso
C39Z C 0.14640 0.62540 0.40520 0.2630 Uiso
C39AA C 0.37460 0.14640 0.40520 0.2630 Uiso
C39A C 0.62540 0.14640 0.40520 0.2630 Uiso
C40Z C 0.16290 0.65660 0.40110 0.2837 Uiso
C40AA C 0.34340 0.16290 0.40110 0.2837 Uiso
C40A C 0.65660 0.16290 0.40110 0.2837 Uiso
C41Z C 0.15420 0.68560 0.41430 0.6628 Uiso
C41AA C 0.31440 0.15420 0.41430 0.6628 Uiso
C41A C 0.68560 0.15420 0.41430 0.6628 Uiso
C42Z C 0.12890 0.68340 0.43160 0.5409 Uiso
C42AA C 0.31660 0.12890 0.43160 0.5409 Uiso
C42A C 0.68340 0.12890 0.43160 0.5409 Uiso
C43Z C 0.11230 0.65210 0.43580 0.3757 Uiso
C43AA C 0.34790 0.11230 0.43580 0.3757 Uiso
C43A C 0.65210 0.11230 0.43580 0.3757 Uiso
C44Z C 0.12100 0.62320 0.42260 0.2582 Uiso
C44AA C 0.37680 0.12100 0.42260 0.2582 Uiso
C44A C 0.62320 0.12100 0.42260 0.2582 Uiso
C45B C 0.36950 0.63050 0.33360 0.1944 Uiso
C46AA C 0.40910 0.38180 0.36200 0.2032 Uiso
C46Z C 0.38180 0.59090 0.36200 0.2032 Uiso
C46B C 0.40910 0.61820 0.36200 0.2032 Uiso
C47AA C 0.43900 0.38370 0.38030 0.2339 Uiso
C47Z C 0.38370 0.56100 0.38030 0.2339 Uiso
C47B C 0.43900 0.61630 0.38030 0.2339 Uiso
C48AA C 0.43610 0.41130 0.39420 0.4064 Uiso
C48Z C 0.41130 0.56390 0.39420 0.4064 Uiso
C48B C 0.43610 0.58870 0.39420 0.4064 Uiso
C49A C 0.50000 0.06980 0.44660 0.2075 Uiso
C50Z C 0.05930 0.51520 0.41300 0.1434 Uiso
C50AA C 0.48480 0.05930 0.41300 0.1434 Uiso
C50A C 0.51520 0.05930 0.41300 0.1434 Uiso
C51Z C 0.05050 0.53650 0.39400 0.2244 Uiso
C51AA C 0.46350 0.05050 0.39400 0.2244 Uiso
C51A C 0.53650 0.05050 0.39400 0.2244 Uiso
C52Z C 0.04340 0.51960 0.37330 0.2297 Uiso
C52AA C 0.48040 0.04340 0.37330 0.2297 Uiso
C52A C 0.51960 0.04340 0.37330 0.2297 Uiso
C53Z C 0.07570 0.57220 0.50000 0.1865 Uiso
C54X C 0.12800 0.42340 0.51210 0.2734 Uiso
C54Z C 0.12800 0.57660 0.48790 0.2734 Uiso
C54I C 0.12800 0.57660 0.51210 0.2734 Uiso
C55X C 0.15810 0.40970 0.52460 0.4289 Uiso
C55Z C 0.15810 0.59030 0.47540 0.4289 Uiso
C55I C 0.15810 0.59030 0.52460 0.4289 Uiso
C56X C 0.18560 0.40350 0.51240 0.6525 Uiso
C56Z C 0.18560 0.59650 0.48760 0.6525 Uiso
C56I C 0.18560 0.59650 0.51240 0.6525 Uiso
C57X C 0.00000 0.41420 0.55730 0.2827 Uiso
C58Y C -0.01730 0.37830 0.46840 0.6166 Uiso
C58X C 0.01730 0.37830 0.53160 0.6166 Uiso
C58J C -0.01730 0.37830 0.53160 0.6166 Uiso
C59X C 0.03130 0.35480 0.51540 0.5259 Uiso
C59J C -0.03130 0.35480 0.51540 0.5259 Uiso
C59Y C -0.03130 0.35480 0.48460 0.5259 Uiso
C60Y C -0.01840 0.32130 0.48710 0.6252 Uiso
C60J C -0.01840 0.32130 0.51290 0.6252 Uiso
C60X C 0.01840 0.32130 0.51290 0.6252 Uiso
O1 O 0.21690 0.21690 0.25680 0.2245 Uiso
loop_
_atom_site_aniso_label
_atom_site_aniso_U_11
_atom_site_aniso_U_22
_atom_site_aniso_U_33
_atom_site_aniso_U_23
_atom_site_aniso_U_13
_atom_site_aniso_U_12
Zn1 0.1423 0.1388 0.2870 -0.0248 0.0014 0.0204
Zn2 0.1622 0.1848 0.1916 -0.0224 0.0290 0.0210
Zn3 0.1403 0.1597 0.1822 -0.0133 0.0048 0.0165
Zn4 0.1965 0.2094 0.2005 -0.0243 0.0539 0.0088
Zn1Z 0.1423 0.1388 0.287 0.0248 0.0014 -0.0204
Zn1AA 0.1388 0.1423 0.287 0.0014 -0.0248 0.0204
Zn1A 0.1388 0.1423 0.287 0.0014 0.0248 -0.0204
Zn1B 0.1388 0.1423 0.287 -0.0014 -0.0248 -0.0204
Zn2Z 0.1622 0.1848 0.1916 0.0224 0.029 -0.021
Zn2AA 0.1848 0.1622 0.1916 0.029 -0.0224 0.021
Zn2A 0.1848 0.1622 0.1916 0.029 0.0224 -0.021
Zn2O 0.1848 0.1622 0.1916 0.029 -0.0224 0.021
Zn3Z 0.1403 0.1597 0.1822 0.0133 0.0048 -0.0165
Zn3AA 0.1597 0.1403 0.1822 0.0048 -0.0133 0.0165
Zn3O 0.1597 0.1403 0.1822 0.0048 -0.0133 0.0165
Zn3A 0.1597 0.1403 0.1822 0.0048 0.0133 -0.0165
Zn3V 0.1597 0.1403 0.1822 -0.0048 -0.0133 -0.0165
Zn3B 0.1597 0.1403 0.1822 -0.0048 -0.0133 -0.0165
Zn4Z 0.1965 0.2094 0.2005 0.0243 0.0539 -0.0088
Zn4AA 0.2094 0.1965 0.2005 0.0539 -0.0243 0.0088
Zn4Y 0.1965 0.2094 0.2005 -0.0243 -0.0539 -0.0088
Zn4X 0.1965 0.2094 0.2005 0.0243 -0.0539 0.0088
Zn4J 0.1965 0.2094 0.2005 0.0243 0.0539 -0.0088
Zn4A 0.2094 0.1965 0.2005 0.0539 0.0243 -0.0088
Zn4I 0.1965 0.2094 0.2005 -0.0243 -0.0539 -0.0088
loop_
_geom_bond_atom_site_label_1
_geom_bond_atom_site_label_2
_geom_bond_site_symmetry_1
_geom_bond_site_symmetry_2
Zn1 N1 1_555 1_555
Zn2 N5 1_555 1_555
Zn3 N3 1_555 1_555
Zn4 N11 1_555 1_555
Cl1 C9 1_555 1_555
Cl2 C15 1_555 1_555
Cl3 C22 1_555 1_555
Cl4 C26 1_555 1_555
Cl5 C31 1_555 1_555
Cl6 C37 1_555 1_555
Cl7 C42 1_555 1_555
Cl8 C48 1_555 1_555
Cl9 C52 1_555 1_555
Cl10 C56 1_555 1_555
N1 C1 1_555 1_555
N2 Zn1 1_555 1_555
N3 C5 1_555 1_555
N4 Zn1 1_555 1_555
N5 C12 1_555 1_555
N6 Zn3 1_555 1_555
N7 Zn3 1_555 1_555
N8 Zn2 1_555 1_555
N9 Zn3 1_555 1_555
N10 Zn2 1_555 1_555
N11 C38 1_555 1_555
N12 Zn2 1_555 1_555
N13 Zn1 1_555 1_555
N14 Zn4 1_555 1_555
N15 Zn4 1_555 1_555
N16 Zn4 1_555 1_555
C1 N1Z 1_555 1_555
C2 N1 1_555 1_555
C3 C2 1_555 1_555
C4 C3 1_555 1_555
C5 N2 1_555 1_555
C6 N2 1_555 1_555
C7 C6 1_555 1_555
C8 C7 1_555 1_555
C9 C8 1_555 1_555
C10 C9 1_555 1_555
C11 N3 1_555 1_555
C12 N4 1_555 1_555
C13 N5 1_555 1_555
C14 C13 1_555 1_555
C15 C14 1_555 1_555
C16 C15 1_555 1_555
C17 C16 1_555 1_555
C18 N4 1_555 1_555
C19 N6 1_555 1_555
C20 N6 1_555 1_555
C21 C20 1_555 1_555
C22 C21 1_555 1_555
C23 N7 1_555 1_555
C24 N7 1_555 1_555
C25 C24 1_555 1_555
C26 C25 1_555 1_555
C27 N8 1_555 1_555
C28 N9 1_555 1_555
C29 C28 1_555 1_555
C30 C29 1_555 1_555
C31 C30 1_555 1_555
C32 C31 1_555 1_555
C33 N8 1_555 1_555
C34 N10 1_555 1_555
C35 N10 1_555 1_555
C36 C35 1_555 1_555
C37 C36 1_555 1_555
C38 N12 1_555 1_555
C39 N12 1_555 1_555
C40 C39 1_555 1_555
C41 C40 1_555 1_555
C42 C41 1_555 1_555
C43 C42 1_555 1_555
C44 N11 1_555 1_555
C45 N13 1_555 1_555
C46 N13 1_555 1_555
C47 C46 1_555 1_555
C48 C47 1_555 1_555
C49 N14 1_555 1_555
C50 N14 1_555 1_555
C51 C50 1_555 1_555
C52 C51 1_555 1_555
C53 N16 1_555 1_555
C54 N16 1_555 1_555
C55 C54 1_555 1_555
C56 C55 1_555 1_555
C57 N15 1_555 1_555
C58 N15 1_555 1_555
C59 C58 1_555 1_555
C60 C59 1_555 1_555
Zn1Z N1Z 1_555 1_555
Zn1AA N1AA 1_555 1_555
Zn1A N1A 1_555 1_555
Zn1B N13B 1_555 1_555
Zn2Z N5Z 1_555 1_555
Zn2AA N5AA 1_555 1_555
Zn2A N5A 1_555 1_555
Zn2O N8O 1_555 1_555
Zn3Z N3Z 1_555 1_555
Zn3AA N3AA 1_555 1_555
Zn3O N3O 1_555 1_555
Zn3A N3A 1_555 1_555
Zn3V N6V 1_555 1_555
Zn3B N7B 1_555 1_555
Zn4Z N11Z 1_555 1_555
Zn4AA N11AA 1_555 1_555
Zn4Y N11Y 1_555 1_555
Zn4X N15X 1_555 1_555
Zn4J N15J 1_555 1_555
Zn4A N11A 1_555 1_555
Zn4I N16I 1_555 1_555
Cl1Z C9Z 1_555 1_555
Cl1AA C9AA 1_555 1_555
Cl1A C9A 1_555 1_555
Cl2Z C15Z 1_555 1_555
Cl2AA C15AA 1_555 1_555
Cl2A C15A 1_555 1_555
Cl3O C22O 1_555 1_555
Cl3Z C22Z 1_555 1_555
Cl3V C22V 1_555 1_555
Cl4AA C26AA 1_555 1_555
Cl4Z C26Z 1_555 1_555
Cl4B C26B 1_555 1_555
Cl5Z C31Z 1_555 1_555
Cl5AA C31AA 1_555 1_555
Cl5O C31O 1_555 1_555
Cl6Z C37Z 1_555 1_555
Cl6AA C37AA 1_555 1_555
Cl6A C37A 1_555 1_555
Cl7Z C42Z 1_555 1_555
Cl7AA C42AA 1_555 1_555
Cl7A C42A 1_555 1_555
Cl8AA C48AA 1_555 1_555
Cl8Z C48Z 1_555 1_555
Cl8B C48B 1_555 1_555
Cl9Z C52Z 1_555 1_555
Cl9AA C52AA 1_555 1_555
Cl9A C52A 1_555 1_555
Cl10X C56X 1_555 1_555
Cl10Z C56Z 1_555 1_555
Cl10I C56I 1_555 1_555
N1Z C2Z 1_555 1_555
N1AA C1A 1_555 1_555
N1A C1A 1_555 1_555
N2Z Zn1Z 1_555 1_555
N2AA Zn1AA 1_555 1_555
N2A Zn1A 1_555 1_555
N3Z C5Z 1_555 1_555
N3AA C5AA 1_555 1_555
N3A C5A 1_555 1_555
N4Z Zn1Z 1_555 1_555
N4AA Zn1AA 1_555 1_555
N4A Zn1A 1_555 1_555
N5Z C12Z 1_555 1_555
N5AA C12AA 1_555 1_555
N5A C12A 1_555 1_555
N6O C19 1_555 1_555
N6Z Zn3Z 1_555 1_555
N6V C19Z 1_555 1_555
N6AA Zn3AA 1_555 1_555
N7AA C23 1_555 1_555
N7Z Zn3Z 1_555 1_555
N7B C23B 1_555 1_555
N7O Zn3O 1_555 1_555
N8Z Zn2Z 1_555 1_555
N8AA Zn2AA 1_555 1_555
N8O C27O 1_555 1_555
N8A Zn2A 1_555 1_555
N9Z Zn3Z 1_555 1_555
N9AA Zn3AA 1_555 1_555
N9O Zn3O 1_555 1_555
N10Z C34 1_555 1_555
N10AA Zn2AA 1_555 1_555
N10A Zn2A 1_555 1_555
N11Z C38Z 1_555 1_555
N11AA C38AA 1_555 1_555
N11A C38A 1_555 1_555
N12Z Zn2Z 1_555 1_555
N12AA Zn2AA 1_555 1_555
N12A Zn2A 1_555 1_555
N13AA C45 1_555 1_555
N13Z Zn1Z 1_555 1_555
N13B C45B 1_555 1_555
N13A Zn1A 1_555 1_555
N14Z C49 1_555 1_555
N14AA Zn4AA 1_555 1_555
N14A Zn4A 1_555 1_555
N14Y Zn4Y 1_555 1_555
N15Y C57 1_555 1_555
N15X C57X 1_555 1_555
N15J C57X 1_555 1_555
N15Z Zn4Z 1_555 1_555
N15AA Zn4AA 1_555 1_555
N16X C53 1_555 1_555
N16Z Zn4Z 1_555 1_555
N16I C53Z 1_555 1_555
N16AA Zn4AA 1_555 1_555
N16Y Zn4Y 1_555 1_555
C2Z C2 1_555 1_555
C2AA N1AA 1_555 1_555
C2A N1A 1_555 1_555
C3Z C2Z 1_555 1_555
C3AA C2AA 1_555 1_555
C3A C2A 1_555 1_555
C4Z C4 1_555 1_555
C4AA C3AA 1_555 1_555
C4A C3A 1_555 1_555
C5Z N2Z 1_555 1_555
C5AA N2AA 1_555 1_555
C5A N2A 1_555 1_555
C6Z N2Z 1_555 1_555
C6AA N2AA 1_555 1_555
C6A N2A 1_555 1_555
C7Z C6Z 1_555 1_555
C7AA C6AA 1_555 1_555
C7A C6A 1_555 1_555
C8Z C7Z 1_555 1_555
C8AA C7AA 1_555 1_555
C8A C7A 1_555 1_555
C9Z C8Z 1_555 1_555
C9AA C8AA 1_555 1_555
C9A C8A 1_555 1_555
C10Z C9Z 1_555 1_555
C10AA C9AA 1_555 1_555
C10A C9A 1_555 1_555
C11Z N3Z 1_555 1_555
C11AA N3AA 1_555 1_555
C11A N3A 1_555 1_555
C12Z N4Z 1_555 1_555
C12AA N4AA 1_555 1_555
C12A N4A 1_555 1_555
C13Z N5Z 1_555 1_555
C13AA N5AA 1_555 1_555
C13A N5A 1_555 1_555
C14Z C13Z 1_555 1_555
C14AA C13AA 1_555 1_555
C14A C13A 1_555 1_555
C15Z C14Z 1_555 1_555
C15AA C14AA 1_555 1_555
C15A C14A 1_555 1_555
C16Z C15Z 1_555 1_555
C16AA C15AA 1_555 1_555
C16A C15A 1_555 1_555
C17Z C16Z 1_555 1_555
C17AA C16AA 1_555 1_555
C17A C16A 1_555 1_555
C18Z N4Z 1_555 1_555
C18AA N4AA 1_555 1_555
C18A N4A 1_555 1_555
C19Z N6Z 1_555 1_555
C20O C20 1_555 1_555
C20Z N6Z 1_555 1_555
C20V N6V 1_555 1_555
C21O C20O 1_555 1_555
C21Z C20Z 1_555 1_555
C21V C20V 1_555 1_555
C22O C22 1_555 1_555
C22Z C21Z 1_555 1_555
C22V C21V 1_555 1_555
C23B N7Z 1_555 1_555
C24AA C24 1_555 1_555
C24Z N7Z 1_555 1_555
C24B N7B 1_555 1_555
C25AA C24AA 1_555 1_555
C25Z C24Z 1_555 1_555
C25B C24B 1_555 1_555
C26AA C26 1_555 1_555
C26Z C25Z 1_555 1_555
C26B C25B 1_555 1_555
C27Z N8Z 1_555 1_555
C27AA N8AA 1_555 1_555
C27O N9O 1_555 1_555
C28Z N9Z 1_555 1_555
C28AA N9AA 1_555 1_555
C28O N9O 1_555 1_555
C29Z C28Z 1_555 1_555
C29AA C28AA 1_555 1_555
C29O C28O 1_555 1_555
C30Z C29Z 1_555 1_555
C30AA C29AA 1_555 1_555
C30O C29O 1_555 1_555
C31Z C30Z 1_555 1_555
C31AA C30AA 1_555 1_555
C31O C30O 1_555 1_555
C32Z C31Z 1_555 1_555
C32AA C31AA 1_555 1_555
C32O C31O 1_555 1_555
C33Z N8Z 1_555 1_555
C33AA N8AA 1_555 1_555
C33O N8O 1_555 1_555
C34A N10AA 1_555 1_555
C35Z C35 1_555 1_555
C35AA N10AA 1_555 1_555
C35A N10A 1_555 1_555
C36Z C35Z 1_555 1_555
C36AA C35AA 1_555 1_555
C36A C35A 1_555 1_555
C37Z C37 1_555 1_555
C37AA C36AA 1_555 1_555
C37A C36A 1_555 1_555
C38Z N12Z 1_555 1_555
C38AA N12AA 1_555 1_555
C38A N12A 1_555 1_555
C39Z N12Z 1_555 1_555
C39AA N12AA 1_555 1_555
C39A N12A 1_555 1_555
C40Z C39Z 1_555 1_555
C40AA C39AA 1_555 1_555
C40A C39A 1_555 1_555
C41Z C40Z 1_555 1_555
C41AA C40AA 1_555 1_555
C41A C40A 1_555 1_555
C42Z C41Z 1_555 1_555
C42AA C41AA 1_555 1_555
C42A C41A 1_555 1_555
C43Z C42Z 1_555 1_555
C43AA C42AA 1_555 1_555
C43A C42A 1_555 1_555
C44Z N11Z 1_555 1_555
C44AA N11AA 1_555 1_555
C44A N11A 1_555 1_555
C45B N13Z 1_555 1_555
C46AA C46 1_555 1_555
C46Z N13Z 1_555 1_555
C46B N13B 1_555 1_555
C47AA C46AA 1_555 1_555
C47Z C46Z 1_555 1_555
C47B C46B 1_555 1_555
C48AA C48 1_555 1_555
C48Z C47Z 1_555 1_555
C48B C47B 1_555 1_555
C49A N14AA 1_555 1_555
C50Z C50 1_555 1_555
C50AA N14AA 1_555 1_555
C50A N14A 1_555 1_555
C51Z C50Z 1_555 1_555
C51AA C50AA 1_555 1_555
C51A C50A 1_555 1_555
C52Z C52 1_555 1_555
C52AA C51AA 1_555 1_555
C52A C51A 1_555 1_555
C53Z N16Z 1_555 1_555
C54X C54 1_555 1_555
C54Z N16Z 1_555 1_555
C54I N16I 1_555 1_555
C55X C54X 1_555 1_555
C55Z C54Z 1_555 1_555
C55I C54I 1_555 1_555
C56X C56 1_555 1_555
C56Z C55Z 1_555 1_555
C56I C55I 1_555 1_555
C58Y C58 1_555 1_555
C58X N15X 1_555 1_555
C58J N15J 1_555 1_555
C59X C59 1_555 1_555
C59J C58J 1_555 1_555
C59Y C58Y 1_555 1_555
C60Y C60 1_555 1_555
C60J C59J 1_555 1_555
C60X C60 1_555 1_555
N9 C27 1_555 1_555
C6 C11 1_555 1_555
C10 C11 1_555 1_555
C13 C18 1_555 1_555
C17 C18 1_555 1_555
C28 C33 1_555 1_555
C32 C33 1_555 1_555
C39 C44 1_555 1_555
C43 C44 1_555 1_555
Zn1AA N13AA 1_555 1_555
Zn2Z N10Z 1_555 1_555
Zn3AA N7AA 1_555 1_555
Zn3O N6O 1_555 1_555
Zn4Z N14Z 1_555 1_555
Zn4Y N15Y 1_555 1_555
Zn4X N16X 1_555 1_555
N6O C20O 1_555 1_555
N7AA C24AA 1_555 1_555
N9Z C27Z 1_555 1_555
N9AA C27AA 1_555 1_555
N10Z C35Z 1_555 1_555
N10A C34A 1_555 1_555
N13AA C46AA 1_555 1_555
N14Z C50Z 1_555 1_555
N14A C49A 1_555 1_555
N15Y C58Y 1_555 1_555
N16X C54X 1_555 1_555
C2AA C2A 1_555 1_555
C3Z C4Z 1_555 1_555
C4AA C4A 1_555 1_555
C6Z C11Z 1_555 1_555
C6AA C11AA 1_555 1_555
C6A C11A 1_555 1_555
C10Z C11Z 1_555 1_555
C10AA C11AA 1_555 1_555
C10A C11A 1_555 1_555
C13Z C18Z 1_555 1_555
C13AA C18AA 1_555 1_555
C13A C18A 1_555 1_555
C17Z C18Z 1_555 1_555
C17AA C18AA 1_555 1_555
C17A C18A 1_555 1_555
C20Z C20V 1_555 1_555
C21O C22O 1_555 1_555
C22Z C22V 1_555 1_555
C24Z C24B 1_555 1_555
C25AA C26AA 1_555 1_555
C26Z C26B 1_555 1_555
C28Z C33Z 1_555 1_555
C28AA C33AA 1_555 1_555
C28O C33O 1_555 1_555
C32Z C33Z 1_555 1_555
C32AA C33AA 1_555 1_555
C32O C33O 1_555 1_555
C35AA C35A 1_555 1_555
C36Z C37Z 1_555 1_555
C37AA C37A 1_555 1_555
C39Z C44Z 1_555 1_555
C39AA C44AA 1_555 1_555
C39A C44A 1_555 1_555
C43Z C44Z 1_555 1_555
C43AA C44AA 1_555 1_555
C43A C44A 1_555 1_555
C46Z C46B 1_555 1_555
C47AA C48AA 1_555 1_555
C48Z C48B 1_555 1_555
C50AA C50A 1_555 1_555
C51Z C52Z 1_555 1_555
C52AA C52A 1_555 1_555
C54Z C54I 1_555 1_555
C55X C56X 1_555 1_555
C56Z C56I 1_555 1_555
C58X C58J 1_555 1_555
C58X C59X 1_555 1_555
C59X C60X 1_555 1_555
C59J C59Y 1_555 1_555
C59Y C60Y 1_555 1_555
C60Y C60J 1_555 1_555
C60J C60X 1_555 1_555

#END
