
#######################################################################
#
#                 Cambridge Crystallographic Data Centre
#                                CCDC 
#
#######################################################################
#
# If this CIF has been generated from an entry in the Cambridge 
# Structural Database, then it will include bibliographic, chemical, 
# crystal, experimental, refinement or atomic coordinate data resulting 
# from the CCDC's data processing and validation procedures.
#
#######################################################################

data_WAFKAQ
_chemical_formula_moiety         'C27 H34 N4 O15 Zn7'
_symmetry_cell_setting           tetragonal
_symmetry_space_group_name_H-M   'I 4/m c m'
_symmetry_Int_Tables_number      140
_space_group_name_Hall           '-I 4 2c'
loop_
_symmetry_equiv_pos_site_id
_symmetry_equiv_pos_as_xyz
1 x,y,z
2 -y,x,z
3 y,-x,z
4 y,x,1/2-z
5 1/2+x,1/2+y,1/2+z
6 1/2-y,1/2+x,1/2+z
7 1/2+y,1/2-x,1/2+z
8 1/2+y,1/2+x,-z
9 -x,-y,z
10 -x,y,1/2-z
11 x,-y,1/2-z
12 -y,-x,1/2-z
13 1/2-x,1/2-y,1/2+z
14 1/2-x,1/2+y,-z
15 1/2+x,1/2-y,-z
16 1/2-y,1/2-x,-z
17 -x,-y,-z
18 y,-x,-z
19 -y,x,-z
20 -y,-x,1/2+z
21 1/2-x,1/2-y,1/2-z
22 1/2+y,1/2-x,1/2-z
23 1/2-y,1/2+x,1/2-z
24 1/2-y,1/2-x,z
25 x,y,-z
26 x,-y,1/2+z
27 -x,y,1/2+z
28 y,x,1/2+z
29 1/2+x,1/2+y,1/2-z
30 1/2+x,1/2-y,z
31 1/2-x,1/2+y,z
32 1/2+y,1/2+x,z
_cell_length_a                   15.063(2)
_cell_length_b                   15.063(2)
_cell_length_c                   19.247(5)
_cell_angle_alpha                90
_cell_angle_beta                 90
_cell_angle_gamma                90
_cell_volume                     4367.03
loop_
_atom_site_label
_atom_site_type_symbol
_atom_site_fract_x
_atom_site_fract_y
_atom_site_fract_z
O2 O 0.5000 0.0000 0.0000
Zn1 Zn 0.5000 0.5000 0.07669(2)
C3 C 0.72869(18) 0.64088(19) 0.0000
O3 O 0.62041(11) 0.55564(13) 0.05762(9)
C4 C 0.65046(18) 0.57878(19) 0.0000
C5 C 0.76291(16) 0.67189(16) 0.06231(10)
H5 H 0.7420 0.6488 0.1046
N2 N 0.5000 0.5000 0.18289(19)
C6 C 0.453(3) 0.4245(15) 0.2086(4)
H6 H 0.453(4) 0.380(4) 0.195(3)
H7 H 0.384(4) 0.467(4) 0.202(3)
O3X O 0.62041(11) 0.55564(13) -0.05762(9)
C5W C 0.82811(16) 0.73709(16) 0.06231(10)
C3W C 0.85912(19) 0.77131(18) 0.0000
C4W C 0.92122(19) 0.84954(18) 0.0000
O3W O 0.94436(13) 0.87959(11) 0.05762(9)
O3O O 0.94436(13) 0.87959(11) -0.05762(9)
C5O C 0.82811(16) 0.73709(16) -0.06231(10)
C5X C 0.76291(16) 0.67189(16) -0.06231(10)
H5X H 0.7420 0.6488 -0.1046
H5O H 0.8512 0.7580 -0.1046
H5W H 0.8512 0.7580 0.1046
C6C C 0.4245(15) 0.453(3) 0.2914(4)
N2C N 0.5000 0.5000 0.31711(19)
C6J C 0.453(3) 0.5755(15) 0.2914(4)
C6B C 0.4245(15) 0.547(3) 0.2086(4)
C6A C 0.5755(15) 0.453(3) 0.2086(4)
C6I C 0.547(3) 0.4245(15) 0.2914(4)
C6K C 0.5755(15) 0.547(3) 0.2914(4)
C6H C 0.547(3) 0.5755(15) 0.2086(4)
H6H H 0.547(4) 0.620(4) 0.195(3)
H7H H 0.616(4) 0.533(4) 0.202(3)
H6K H 0.620(4) 0.547(4) 0.305(3)
H7K H 0.533(4) 0.616(4) 0.298(3)
H6I H 0.547(4) 0.380(4) 0.305(3)
H7I H 0.616(4) 0.467(4) 0.298(3)
H6A H 0.620(4) 0.453(4) 0.195(3)
H7A H 0.533(4) 0.384(4) 0.202(3)
H6B H 0.380(4) 0.547(4) 0.195(3)
H7B H 0.467(4) 0.616(4) 0.202(3)
H6J H 0.453(4) 0.620(4) 0.305(3)
H7J H 0.384(4) 0.533(4) 0.298(3)
H6C H 0.380(4) 0.453(4) 0.305(3)
H7C H 0.467(4) 0.384(4) 0.298(3)
C3A C 0.35912(19) 0.72869(18) 0.0000
O3A O 0.44436(13) 0.62041(11) 0.05762(9)
C4A C 0.42122(19) 0.65046(18) 0.0000
C5A C 0.32811(16) 0.76291(16) 0.06231(10)
H5A H 0.3512 0.7420 0.1046
O3R O 0.44436(13) 0.62041(11) -0.05762(9)
C5CA C 0.26291(16) 0.82811(16) 0.06231(10)
C3CA C 0.22869(18) 0.85912(19) 0.0000
C4CA C 0.15046(18) 0.92122(19) 0.0000
O3CA O 0.12041(11) 0.94436(13) 0.05762(9)
O3N O 0.12041(11) 0.94436(13) -0.05762(9)
C5N C 0.26291(16) 0.82811(16) -0.06231(10)
C5R C 0.32811(16) 0.76291(16) -0.06231(10)
H5R H 0.3512 0.7420 -0.1046
H5N H 0.2420 0.8512 -0.1046
H5CA H 0.2420 0.8512 0.1046
Zn1X Zn 0.5000 0.5000 -0.07669(2)
O3B O 0.55564(13) 0.37959(11) 0.05762(9)
O3H O 0.37959(11) 0.44436(13) 0.05762(9)
Zn1CA Zn 1.0000 1.0000 0.07669(2)
Zn1G Zn 1.0000 1.0000 -0.07669(2)
Zn1C Zn 0.5000 0.5000 0.42331(2)
Zn1CA_2 Zn 0.0000 1.0000 0.07669(2)
Zn1G_2 Zn 0.0000 1.0000 -0.07669(2)
O3P O 0.37959(11) 0.44436(13) -0.05762(9)
O3Q O 0.55564(13) 0.37959(11) -0.05762(9)
N2X N 0.5000 0.5000 -0.18289(19)
N1 N 0.3637(4) 0.1363(4) 0.1571(6)
C1 C 0.3160(6) 0.0670(6) 0.1190(8)
H1 H 0.3500 0.0500 0.0783
H2 H 0.2585 0.0894 0.1046
H3 H 0.3078 0.0157 0.1488
C2 C 0.3301(7) 0.1699(7) 0.2145(8)
H4 H 0.2771 0.1504 0.2354
O1 O 0.3832(14) 0.2382(12) 0.2404(7)
C1W C 0.4330(6) 0.1840(6) 0.1190(8)
H1W H 0.4500 0.1500 0.0783
H2W H 0.4106 0.2415 0.1046
H3W H 0.4843 0.1922 0.1488
O1W O 0.2618(12) 0.1168(14) 0.2404(7)
H4W H 0.3496 0.2229 0.2354
loop_
_geom_bond_atom_site_label_1
_geom_bond_atom_site_label_2
_geom_bond_site_symmetry_1
_geom_bond_site_symmetry_2
N1 C1 1_555 1_555
C1 H1 1_555 1_555
H2 C1 1_555 1_555
H3 C1 1_555 1_555
C2 N1 1_555 1_555
H4 C2 1_555 1_555
O1 C2 1_555 1_555
Zn1 O3 1_555 1_555
C3 C4 1_555 1_555
O3 C4 1_555 1_555
C4 O3X 1_555 1_555
C5 C3 1_555 1_555
H5 C5 1_555 1_555
N2 Zn1 1_555 1_555
C6 N2 1_555 1_555
H6 C6 1_555 1_555
H7 C6 1_555 1_555
C1W N1 1_555 1_555
H1W C1W 1_555 1_555
H2W C1W 1_555 1_555
H3W C1W 1_555 1_555
O1W C2 1_555 1_555
H4W C2 1_555 1_555
O3X Zn1X 1_555 1_555
C5W C5 1_555 1_555
C3W C5W 1_555 1_555
C4W C3W 1_555 1_555
O3W C4W 1_555 1_555
O3O C4W 1_555 1_555
C5O C3W 1_555 1_555
C5X C3 1_555 1_555
H5X C5X 1_555 1_555
H5O C5O 1_555 1_555
H5W C5W 1_555 1_555
C6C C6 1_555 1_555
N2C C6C 1_555 1_555
C6J N2C 1_555 1_555
C6B N2 1_555 1_555
C6A N2 1_555 1_555
C6I N2C 1_555 1_555
C6K N2C 1_555 1_555
C6H N2 1_555 1_555
H6H C6H 1_555 1_555
H7H C6H 1_555 1_555
H6K C6K 1_555 1_555
H7K C6K 1_555 1_555
H6I C6I 1_555 1_555
H7I C6I 1_555 1_555
H6A C6A 1_555 1_555
H7A C6A 1_555 1_555
H6B C6B 1_555 1_555
H7B C6B 1_555 1_555
H6J C6J 1_555 1_555
H7J C6J 1_555 1_555
H6C C6C 1_555 1_555
H7C C6C 1_555 1_555
C3A C4A 1_555 1_555
O3A Zn1 1_555 1_555
C4A O3A 1_555 1_555
C5A C3A 1_555 1_555
H5A C5A 1_555 1_555
O3R C4A 1_555 1_555
C5CA C5A 1_555 1_555
C3CA C5CA 1_555 1_555
C4CA C3CA 1_555 1_555
O3CA C4CA 1_555 1_555
O3N C4CA 1_555 1_555
C5N C3CA 1_555 1_555
C5R C3A 1_555 1_555
H5R C5R 1_555 1_555
H5N C5N 1_555 1_555
H5CA C5CA 1_555 1_555
Zn1X Zn1 1_555 1_555
O3B Zn1 1_555 1_555
O3H Zn1 1_555 1_555
Zn1CA O3W 1_555 1_555
Zn1G O3O 1_555 1_555
Zn1C N2C 1_555 1_555
Zn1CA_2 O3CA 1_555 1_555
Zn1G_2 O3N 1_555 1_555
O3P Zn1X 1_555 1_555
O3Q Zn1X 1_555 1_555
N2X Zn1X 1_555 1_555
H4 O1W 1_555 1_555
O1 H4W 1_555 1_555
C5O C5X 1_555 1_555
C6J C6B 1_555 1_555
C6A C6I 1_555 1_555
C6K C6H 1_555 1_555
O3R Zn1X 1_555 1_555
C5N C5R 1_555 1_555
Zn1CA Zn1G 1_555 1_555
Zn1CA_2 Zn1G_2 1_555 1_555

#END
