
#######################################################################
#
#                 Cambridge Crystallographic Data Centre
#                                CCDC 
#
#######################################################################
#
# If this CIF has been generated from an entry in the Cambridge 
# Structural Database, then it will include bibliographic, chemical, 
# crystal, experimental, refinement or atomic coordinate data resulting 
# from the CCDC's data processing and validation procedures.
#
#######################################################################

data_DIVMUR
_chemical_formula_moiety         '(C14 H26 Er2 N4 O21 Se2)n'
_symmetry_cell_setting           monoclinic
_symmetry_space_group_name_H-M   'P 21/n'
_symmetry_Int_Tables_number      14
_space_group_name_Hall           '-P 2yn'
loop_
_symmetry_equiv_pos_site_id
_symmetry_equiv_pos_as_xyz
1 x,y,z
2 1/2-x,1/2+y,1/2-z
3 -x,-y,-z
4 1/2+x,1/2-y,1/2+z
_cell_length_a                   8.754(3)
_cell_length_b                   15.873(4)
_cell_length_c                   9.466(3)
_cell_angle_alpha                90
_cell_angle_beta                 99.887(3)
_cell_angle_gamma                90
_cell_volume                     1295.79
loop_
_atom_site_label
_atom_site_type_symbol
_atom_site_fract_x
_atom_site_fract_y
_atom_site_fract_z
Er1 Er 0.028325(18) 0.195287(10) 0.524511(16)
Se1 Se -0.27797(5) 0.27872(3) 0.70871(4)
C5 C -0.2310(5) 0.2037(2) 0.2490(4)
C6 C -0.2075(4) 0.2960(3) 0.2980(4)
C7 C 0.0675(4) -0.0008(2) 0.4585(4)
O1 O -0.2587(4) 0.37796(19) 0.6741(4)
O2 O -0.1174(4) 0.2273(2) 0.6974(3)
O3 O -0.3031(4) 0.2662(2) 0.8748(3)
O4 O -0.4240(4) 0.2414(3) 0.5978(4)
O5 O -0.1478(3) 0.15003(18) 0.3255(3)
O6 O -0.3305(4) 0.18904(18) 0.1404(3)
O7 O -0.2897(3) 0.35013(18) 0.2209(3)
O8 O -0.1115(4) 0.31024(18) 0.4082(3)
O9 O 0.1395(3) 0.06748(18) 0.4543(3)
O10 O 0.0959(3) -0.06937(18) 0.4032(3)
Er1C Er 0.528325(18) 0.304713(10) 0.024511(16)
Er1C_2 Er -0.471675(18) 0.304713(10) 1.024511(16)
Er1C_3 Er -0.471675(18) 0.304713(10) 0.024511(16)
Er1B Er -0.028325(18) -0.195287(10) 0.475489(16)
Er1C_4 Er 0.528325(18) 0.304713(10) 1.024511(16)
Se1C Se 0.22203(5) 0.22128(3) 0.20871(4)
C5C C 0.2690(5) 0.2963(2) 0.7490(4)
C6C C 0.2925(4) 0.2040(3) 0.7980(4)
C7B C -0.0675(4) 0.0008(2) 0.5415(4)
O1C O 0.2413(4) 0.12204(19) 0.1741(4)
O2C O 0.3826(4) 0.2727(2) 0.1974(3)
O3C O 0.1969(4) 0.2338(2) 0.3748(3)
O3_2 O 0.6969(4) 0.2662(2) -0.1252(3)
O4C O 0.0760(4) 0.2586(3) 0.0978(4)
O5C O 0.3522(3) 0.34997(18) 0.8255(3)
O5C_2 O 0.3522(3) 0.34997(18) -0.1745(3)
O6C O 0.1695(4) 0.31096(18) 0.6404(3)
O6_2 O 0.6695(4) 0.18904(18) 0.1404(3)
O7C O 0.2103(3) 0.14987(18) 0.7209(3)
O7_2 O 0.7103(3) 0.35013(18) 0.2209(3)
O8C O 0.3885(4) 0.18976(18) 0.9082(3)
O8C_2 O 0.3885(4) 0.18976(18) -0.0918(3)
O9B O -0.1395(3) -0.06748(18) 0.5457(3)
O9C O 0.6395(3) 0.43252(18) -0.0457(3)
O10B O -0.0959(3) 0.06937(18) 0.5968(3)
O10A O 0.4041(3) 0.43063(18) 0.0968(3)
N1 N -0.4641(6) 0.0516(4) 0.3841(6)
H1 H -0.3601 0.0548 0.4056
H2 H -0.4956 0.0811 0.3032
C1 C -0.5134(6) -0.0395(3) 0.3615(6)
H5 H -0.4659 -0.0637 0.2855
H6 H -0.6251 -0.0425 0.3326
C2 C -0.5342(4) 0.0881(3) 0.5040(5)
H7 H -0.5014 0.1462 0.5194
H8 H -0.6463 0.0874 0.4781
N1B N -0.5359(6) -0.0516(4) 0.6159(6)
H1B H -0.6399 -0.0548 0.5944
H2B H -0.5044 -0.0811 0.6968
C1B C -0.4866(6) 0.0395(3) 0.6385(6)
H5B H -0.5341 0.0637 0.7145
H6B H -0.3749 0.0425 0.6674
C2B C -0.4658(4) -0.0881(3) 0.4960(5)
H7B H -0.4986 -0.1462 0.4806
H8B H -0.3537 -0.0874 0.5219
N2 N -0.1050(7) 0.0097(4) 1.0982(6)
H3 H -0.0453 0.0351 1.1729
H4 H -0.2004 0.0027 1.1198
C3 C -0.0384(6) -0.0729(3) 1.0722(4)
H9 H -0.1063 -0.1014 0.9952
H10 H -0.0313 -0.1073 1.1578
C4 C -0.1145(7) 0.0641(4) 0.9657(6)
H11 H -0.1845 0.0386 0.8867
H12 H -0.1549 0.1192 0.9839
N2B N 0.1050(7) -0.0097(4) 0.9018(6)
H3B H 0.0453 -0.0351 0.8271
H4B H 0.2004 -0.0027 0.8802
C3B C 0.0384(6) 0.0729(3) 0.9278(4)
H9B H 0.1063 0.1014 1.0048
H10B H 0.0313 0.1073 0.8422
C4B C 0.1145(7) -0.0641(4) 1.0343(6)
H11B H 0.1845 -0.0386 1.1133
H12B H 0.1549 -0.1192 1.0161
O11 O 0.5000 0.0000 1.0000
loop_
_geom_bond_atom_site_label_1
_geom_bond_atom_site_label_2
_geom_bond_site_symmetry_1
_geom_bond_site_symmetry_2
Er1 O2 1_555 1_555
Se1 O1 1_555 1_555
N1 H1 1_555 1_555
H2 N1 1_555 1_555
N2 H3 1_555 1_555
H4 N2 1_555 1_555
C1 N1 1_555 1_555
H5 C1 1_555 1_555
H6 C1 1_555 1_555
C2 N1 1_555 1_555
H7 C2 1_555 1_555
H8 C2 1_555 1_555
C3 N2 1_555 1_555
H9 C3 1_555 1_555
H10 C3 1_555 1_555
C4 N2 1_555 1_555
H11 C4 1_555 1_555
H12 C4 1_555 1_555
C5 C6 1_555 1_555
C6 O7 1_555 1_555
C7 O9 1_555 1_555
O2 Se1 1_555 1_555
O3 Se1 1_555 1_555
O4 Se1 1_555 1_555
O5 Er1 1_555 1_555
O6 C5 1_555 1_555
O7 Er1C_3 1_555 1_555
O8 Er1 1_555 1_555
O9 Er1 1_555 1_555
O10 C7 1_555 1_555
Er1C O2C 1_555 1_555
Er1C_2 O3 1_555 1_555
Er1C_3 O6 1_555 1_555
Er1B O10 1_555 1_555
Er1C_4 O5C 1_555 1_555
Se1C O1C 1_555 1_555
N1B H1B 1_555 1_555
H2B N1B 1_555 1_555
N2B H3B 1_555 1_555
H4B N2B 1_555 1_555
C1B C2 1_555 1_555
H5B C1B 1_555 1_555
H6B C1B 1_555 1_555
C2B C1 1_555 1_555
H7B C2B 1_555 1_555
H8B C2B 1_555 1_555
C3B C4 1_555 1_555
H9B C3B 1_555 1_555
H10B C3B 1_555 1_555
C4B C3 1_555 1_555
H11B C4B 1_555 1_555
H12B C4B 1_555 1_555
C5C C6C 1_555 1_555
C6C O7C 1_555 1_555
C7B C7 1_555 1_555
O2C Se1C 1_555 1_555
O3C Er1 1_555 1_555
O3_2 Er1C 1_555 1_555
O4C Se1C 1_555 1_555
O5C C5C 1_555 1_555
O5C_2 Er1C 1_555 1_555
O6C Er1 1_555 1_555
O6_2 Er1C 1_555 1_555
O7C Er1 1_555 1_555
O7_2 Er1C 1_555 1_555
O8C Er1C_4 1_555 1_555
O8C_2 Er1C 1_555 1_555
O9B Er1B 1_555 1_555
O9C Er1C 1_555 1_555
O10B Er1 1_555 1_555
O10A Er1C 1_555 1_555
C5 O5 1_555 1_555
C6 O8 1_555 1_555
Se1C O3C 1_555 1_555
N1B C1B 1_555 1_555
N1B C2B 1_555 1_555
N2B C3B 1_555 1_555
N2B C4B 1_555 1_555
C5C O6C 1_555 1_555
C6C O8C 1_555 1_555
C7B O9B 1_555 1_555
C7B O10B 1_555 1_555

#END
