
#######################################################################
#
#                 Cambridge Crystallographic Data Centre
#                                CCDC 
#
#######################################################################
#
# If this CIF has been generated from an entry in the Cambridge 
# Structural Database, then it will include bibliographic, chemical, 
# crystal, experimental, refinement or atomic coordinate data resulting 
# from the CCDC's data processing and validation procedures.
#
#######################################################################

data_ELUQIM05
_chemical_formula_moiety         '(C3 H7 N1 O6 Zn1)n'
_symmetry_cell_setting           hexagonal
_symmetry_space_group_name_H-M   'P 63 2 2'
_symmetry_Int_Tables_number      182
_space_group_name_Hall           'P 6c 2c'
loop_
_symmetry_equiv_pos_site_id
_symmetry_equiv_pos_as_xyz
1 x,y,z
2 x-y,x,1/2+z
3 -y,x-y,z
4 -x,-y,1/2+z
5 -x+y,-x,z
6 y,-x+y,1/2+z
7 x-y,-y,-z
8 -x,-x+y,-z
9 y,x,-z
10 -y,-x,1/2-z
11 -x+y,y,1/2-z
12 x,x-y,1/2-z
_cell_length_a                   7.2829(9)
_cell_length_b                   7.2829(9)
_cell_length_c                   8.1691(9)
_cell_angle_alpha                90
_cell_angle_beta                 90
_cell_angle_gamma                120
_cell_volume                     375.244
loop_
_atom_site_label
_atom_site_type_symbol
_atom_site_fract_x
_atom_site_fract_y
_atom_site_fract_z
_atom_site_U_iso_or_equiv
_atom_site_thermal_displace_type
Zn1 Zn 1.3334 0.6667 0.2500 0.0156 Uani
O1 O 1.1103(6) 0.6948(4) 0.3943(2) 0.0251 Uani
C1 C 1.0000 0.5628(7) 0.5000 0.0302 Uani
H1 H 1.0000 0.4346 0.5000 0.0370 Uiso
Zn1C Zn 0.6666 0.3333 0.7500 0.0156 Uani
Zn1E Zn 1.6667 0.3333 0.7500 0.0156 Uani
Zn1A Zn 1.6667 1.3334 0.7500 0.0156 Uani
O1G O 0.8897(6) 0.5845(7) 0.6057(2) 0.0251 Uani
O1B O 1.3052(4) 0.4155(7) 0.3943(2) 0.0251 Uani
O1F O 1.4155(7) 0.3052(4) 0.6057(2) 0.0251 Uani
O1D O 1.5845(7) 0.8897(6) 0.3943(2) 0.0251 Uani
O1H O 1.6948(4) 1.1103(6) 0.6057(2) 0.0251 Uani
O1I O 1.3052(4) 0.8897(6) 0.1057(2) 0.0251 Uani
O1J O 1.5845(7) 0.6948(4) 0.1057(2) 0.0251 Uani
O1K O 1.1103(6) 0.4155(7) 0.1057(2) 0.0251 Uani
C1B C 1.4372(7) 0.4372(7) 0.5000 0.0302 Uani
C1D C 1.5628(7) 1.0000 0.5000 0.0302 Uani
H1B H 1.5654 0.5654 0.5000 0.0370 Uiso
H1D H 1.4346 1.0000 0.5000 0.0370 Uiso
N1 N 1.0000 -0.0000 0.7500 0.0563 Uani
loop_
_atom_site_aniso_label
_atom_site_aniso_U_11
_atom_site_aniso_U_22
_atom_site_aniso_U_33
_atom_site_aniso_U_23
_atom_site_aniso_U_13
_atom_site_aniso_U_12
Zn1 0.0176 0.0176 0.0116 0 0 0.0088
O1 0.0271 0.028 0.022 0.0078 0.0116 0.0152
C1 0.031 0.023 0.039 0.0082 0.016 0.0154
Zn1C 0.0176(4) 0.0176(4) 0.0116(5) 0.000 0.000 0.0088(2)
Zn1E 0.0176 0.0176 0.0116 0 0 0.0088
Zn1A 0.0176 0.0176 0.0116 0 0 0.0088
O1G 0.0271 0.0247 0.022 0.0038 0.0116 0.0119
O1B 0.028 0.0247 0.022 0.0038 -0.0078 0.0128
O1F 0.0247 0.028 0.022 0.0078 -0.0038 0.0128
O1D 0.0247 0.0271 0.022 -0.0116 -0.0038 0.0119
O1H 0.028 0.0271 0.022 -0.0116 -0.0078 0.0152
O1I 0.028 0.0271 0.022 0.0116 0.0078 0.0152
O1J 0.0247 0.028 0.022 -0.0078 0.0038 0.0128
O1K 0.0271 0.0247 0.022 -0.0038 -0.0116 0.0119
C1B 0.023 0.0232 0.039 0.0078 -0.0082 0.0076
C1D 0.0232 0.031 0.039 -0.016 -0.0078 0.0156
N1 0.037(3) 0.037(3) 0.095(6) 0.000 0.000 0.0186(15)
loop_
_geom_bond_atom_site_label_1
_geom_bond_atom_site_label_2
_geom_bond_site_symmetry_1
_geom_bond_site_symmetry_2
Zn1 O1 1_555 1_555
O1 C1 1_555 1_555
C1 H1 1_555 1_555
Zn1C O1G 1_555 1_555
Zn1E O1F 1_555 1_555
Zn1A O1H 1_555 1_555
O1G C1 1_555 1_555
O1B Zn1 1_555 1_555
O1F C1B 1_555 1_555
O1D Zn1 1_555 1_555
O1H C1D 1_555 1_555
O1I Zn1 1_555 1_555
O1J Zn1 1_555 1_555
O1K Zn1 1_555 1_555
C1B O1B 1_555 1_555
C1D O1D 1_555 1_555
H1B C1B 1_555 1_555
H1D C1D 1_555 1_555

#END
