
#######################################################################
#
#                 Cambridge Crystallographic Data Centre
#                                CCDC 
#
#######################################################################
#
# If this CIF has been generated from an entry in the Cambridge 
# Structural Database, then it will include bibliographic, chemical, 
# crystal, experimental, refinement or atomic coordinate data resulting 
# from the CCDC's data processing and validation procedures.
#
#######################################################################

data_AWAREV
_chemical_formula_moiety         'C6 H16 F4 N19 O2 Zn8'
_symmetry_cell_setting           rhombohedral
_symmetry_space_group_name_H-M   'R -3 c'
_symmetry_Int_Tables_number      167
_space_group_name_Hall           '-R 3 2"c'
loop_
_symmetry_equiv_pos_site_id
_symmetry_equiv_pos_as_xyz
1 x,y,z
2 -y,x-y,z
3 -x+y,-x,z
4 y,x,1/2-z
5 2/3+x,1/3+y,1/3+z
6 2/3-y,1/3+x-y,1/3+z
7 2/3-x+y,1/3-x,1/3+z
8 2/3+y,1/3+x,5/6-z
9 1/3+x,2/3+y,2/3+z
10 1/3+y,2/3+x,1/6-z
11 -x+y,y,1/2+z
12 x,x-y,1/2+z
13 2/3+y,1/3-x+y,1/3-z
14 2/3+x-y,1/3+x,1/3-z
15 2/3-x+y,1/3+y,5/6+z
16 2/3+x,1/3+x-y,5/6+z
17 1/3-x+y,2/3+y,1/6+z
18 1/3+x,2/3+x-y,1/6+z
19 -x,-y,-z
20 y,-x+y,-z
21 x-y,x,-z
22 -y,-x,1/2+z
23 1/3-x,2/3-y,2/3-z
24 1/3+y,2/3-x+y,2/3-z
25 1/3+x-y,2/3+x,2/3-z
26 1/3-y,2/3-x,1/6+z
27 2/3-x,1/3-y,1/3-z
28 2/3-y,1/3-x,5/6+z
29 x-y,-y,1/2-z
30 -x,-x+y,1/2-z
31 1/3-y,2/3+x-y,2/3+z
32 1/3-x+y,2/3-x,2/3+z
33 1/3+x-y,2/3-y,1/6-z
34 1/3-x,2/3-x+y,1/6-z
35 2/3+x-y,1/3-y,5/6-z
36 2/3-x,1/3-x+y,5/6-z
_cell_length_a                   18.5059(7)
_cell_length_b                   18.5059(7)
_cell_length_c                   9.9168(7)
_cell_angle_alpha                90
_cell_angle_beta                 90
_cell_angle_gamma                120.00
_cell_volume                     2941.19
loop_
_atom_site_label
_atom_site_type_symbol
_atom_site_fract_x
_atom_site_fract_y
_atom_site_fract_z
O2 O 0.5121(14) 0.2545(19) 0.060(2)
O4 O 0.6667 0.3333 0.187(5)
Zn1 Zn 0.375537(14) 0.375537(14) 0.2500
F1 F 0.41221(8) 0.3333 0.0833
C1 C 0.37251(13) 0.21493(12) 0.33085(17)
N1 N 0.4297(2) 0.2187(2) 0.2348(3)
H2 H 0.4593 0.2639 0.1898
H3 H 0.4352 0.1758 0.2206
N2 N 0.35905(9) 0.27668(9) 0.35996(14)
N3 N 0.3333 0.15018(11) 0.4167
N2IA N 0.30762(9) 0.25096(13) 0.47337(14)
C1IA C 0.29416(13) 0.17575(18) 0.50248(17)
N1IA N 0.2370(2) 0.1223(3) 0.5985(3)
H2IA H 0.2074 0.1379 0.6435
H3IA H 0.2315 0.0739 0.6127
F1C F 0.3333 0.41221(8) 0.4167
C1C C 0.21493(12) 0.37251(13) 0.16915(17)
N1C N 0.2187(2) 0.4297(2) 0.2652(3)
H2C H 0.2639 0.4593 0.3102
H3C H 0.1758 0.4352 0.2794
N2C N 0.27668(9) 0.35905(9) 0.14004(14)
N3C N 0.15018(11) 0.3333 0.0833
N2EA N 0.25096(13) 0.30762(9) 0.02663(14)
C1EA C 0.17575(18) 0.29416(13) -0.00248(17)
N1EA N 0.1223(3) 0.2370(2) -0.0985(3)
H2EA H 0.1379 0.2074 -0.1435
H3EA H 0.0739 0.2315 -0.1127
C1N C 0.50909(18) 0.54826(12) 0.16418(17)
N1N N 0.4557(3) 0.5520(2) 0.0681(3)
H2N H 0.4713 0.5972 0.0231
H3N H 0.4073 0.5091 0.0539
N2N N 0.58430(13) 0.61001(9) 0.19329(14)
N3N N 0.48355(11) 0.48351(11) 0.2500
N2W N 0.61001(9) 0.58430(13) 0.30671(14)
C1W C 0.54826(12) 0.50909(18) 0.33582(17)
N1W N 0.5520(2) 0.4557(3) 0.4319(3)
H2W H 0.5972 0.4713 0.4769
H3W H 0.5091 0.4073 0.4461
Zn1EA Zn 0.333333(20) 0.291130(14) -0.0833
Zn1IA Zn 0.291130(14) 0.333333(20) 0.5833
F1EA F 0.25442(8) 0.25446(8) -0.2500
Zn1P Zn 0.333333(20) 0.042204(14) 0.4167
Zn1L Zn 0.042204(14) 0.333333(20) 0.0833
Zn1M Zn 0.666667(20) 0.708870(14) 0.0833
Zn1Q Zn 0.708870(14) 0.666667(20) 0.4167
N2FA N 0.41570(13) 0.38999(9) -0.19329(14)
N3K N 0.3333 0.18312(11) -0.0833
F1EA_2 F 0.25442(8) 0.25446(8) 0.7500
N2E N 0.38999(9) 0.41570(13) 0.69329(14)
N3T N 0.18312(11) 0.3333 0.5833
Zn1E Zn 0.291130(14) 0.333333(20) -0.4167
loop_
_geom_bond_atom_site_label_1
_geom_bond_atom_site_label_2
_geom_bond_site_symmetry_1
_geom_bond_site_symmetry_2
Zn1 F1 1_555 1_555
F1 Zn1EA 1_555 1_555
C1 N1 1_555 1_555
N1 H2 1_555 1_555
H3 N1 1_555 1_555
N2 Zn1 1_555 1_555
N3 C1 1_555 1_555
N2IA N2 1_555 1_555
C1IA N3 1_555 1_555
N1IA C1IA 1_555 1_555
H2IA N1IA 1_555 1_555
H3IA N1IA 1_555 1_555
F1C Zn1 1_555 1_555
C1C N1C 1_555 1_555
N1C H2C 1_555 1_555
H3C N1C 1_555 1_555
N2C Zn1 1_555 1_555
N3C C1C 1_555 1_555
N2EA N2C 1_555 1_555
C1EA N3C 1_555 1_555
N1EA C1EA 1_555 1_555
H2EA N1EA 1_555 1_555
H3EA N1EA 1_555 1_555
C1N N1N 1_555 1_555
N1N H2N 1_555 1_555
H3N N1N 1_555 1_555
N2N C1N 1_555 1_555
N3N Zn1 1_555 1_555
N2W N2N 1_555 1_555
C1W N3N 1_555 1_555
N1W C1W 1_555 1_555
H2W N1W 1_555 1_555
H3W N1W 1_555 1_555
Zn1EA N2EA 1_555 1_555
Zn1IA N2IA 1_555 1_555
F1EA Zn1EA 1_555 1_555
Zn1P N3 1_555 1_555
Zn1L N3C 1_555 1_555
Zn1M N2N 1_555 1_555
Zn1Q N2W 1_555 1_555
N2FA Zn1EA 1_555 1_555
N3K Zn1EA 1_555 1_555
F1EA_2 Zn1IA 1_555 1_555
N2E Zn1IA 1_555 1_555
N3T Zn1IA 1_555 1_555
Zn1E F1EA 1_555 1_555
C1 N2 1_555 1_555
N2IA C1IA 1_555 1_555
F1C Zn1IA 1_555 1_555
C1C N2C 1_555 1_555
N2EA C1EA 1_555 1_555
C1N N3N 1_555 1_555
N2W C1W 1_555 1_555

#END
