
#######################################################################
#
#                 Cambridge Crystallographic Data Centre
#                                CCDC 
#
#######################################################################
#
# If this CIF has been generated from an entry in the Cambridge 
# Structural Database, then it will include bibliographic, chemical, 
# crystal, experimental, refinement or atomic coordinate data resulting 
# from the CCDC's data processing and validation procedures.
#
#######################################################################

data_GEBSAJ
_chemical_formula_moiety         'C8 H8 In4 N4 O16'
_symmetry_cell_setting           orthorhombic
_symmetry_space_group_name_H-M   'I m m a'
_symmetry_Int_Tables_number      74
_space_group_name_Hall           '-I 2b 2'
loop_
_symmetry_equiv_pos_site_id
_symmetry_equiv_pos_as_xyz
1 x,y,z
2 -x,1/2-y,z
3 x,-y,-z
4 -x,1/2+y,-z
5 1/2+x,1/2+y,1/2+z
6 1/2-x,-y,1/2+z
7 1/2+x,1/2-y,1/2-z
8 1/2-x,y,1/2-z
9 -x,-y,-z
10 x,1/2+y,-z
11 -x,y,z
12 x,1/2-y,z
13 1/2-x,1/2-y,1/2-z
14 1/2+x,y,1/2-z
15 1/2-x,1/2+y,1/2+z
16 1/2+x,-y,1/2+z
_cell_length_a                   17.749(3)
_cell_length_b                   7.2777(13)
_cell_length_c                   12.907(2)
_cell_angle_alpha                90
_cell_angle_beta                 90
_cell_angle_gamma                90
_cell_volume                     1667.22
loop_
_atom_site_label
_atom_site_type_symbol
_atom_site_fract_x
_atom_site_fract_y
_atom_site_fract_z
_atom_site_U_iso_or_equiv
_atom_site_thermal_displace_type
O7 O -0.0000 0.2500 0.667(3) 0.0750 Uiso
O8 O 0.129(3) 0.5000 0.5000 0.0750 Uiso
O11 O -0.0000 0.608(12) 0.688(6) 0.0750 Uiso
In1 In 0.5000 0.5000 0.5000 0.0119 Uani
O1 O 0.5000 0.7500 0.5791(6) 0.0187 Uani
H1 H 0.5000 0.7500 0.6438(14) 0.0280 Uiso
O2 O 0.4128(3) 0.5956(6) 0.3976(4) 0.0310 Uani
C1 C 0.3863(5) 0.7500 0.3740(7) 0.0243 Uani
C2 C 0.3108(12) 0.7500 0.3208(15) 0.0241 Uiso
C3 C 0.2732(7) 0.5952(15) 0.2958(9) 0.0241 Uiso
N1 N 0.2960(16) 0.423(3) 0.3380(16) 0.0241 Uiso
O3 O 0.2726(18) 0.375(4) 0.4250(17) 0.0241 Uiso
In1A In 0.5000 1.0000 0.5000 0.0119 Uani
In1E In 0.0000 0.5000 0.0000 0.0119 Uani
In1D In 0.0000 1.0000 0.0000 0.0119 Uani
O1B O 0.5000 0.2500 0.4209(6) 0.0187 Uani
H1B H 0.5000 0.2500 0.3562(14) 0.0280 Uiso
O2K O 0.4128(3) 0.9044(6) 0.3976(4) 0.0310 Uani
O2G O 0.0872(3) 0.5956(6) 0.1024(4) 0.0310 Uani
O2L O 0.0872(3) 0.9044(6) 0.1024(4) 0.0310 Uani
O2B O 0.4128(3) 0.4044(6) 0.6024(4) 0.0310 Uani
O2H O 0.5872(3) 0.4044(6) 0.6024(4) 0.0310 Uani
O2J O 0.5872(3) 0.5956(6) 0.3976(4) 0.0310 Uani
C1G C 0.1137(5) 0.7500 0.1260(7) 0.0243 Uani
C2G C 0.1892(12) 0.7500 0.1792(15) 0.0241 Uiso
C3G C 0.2268(7) 0.5952(15) 0.2042(9) 0.0241 Uiso
C3L C 0.2268(7) 0.9048(15) 0.2042(9) 0.0241 Uiso
C3K C 0.2732(7) 0.9048(15) 0.2958(9) 0.0241 Uiso
N1K N 0.2960(16) 1.077(3) 0.3380(16) 0.0241 Uiso
N1L N 0.2040(16) 1.077(3) 0.1620(16) 0.0241 Uiso
N1G N 0.2040(16) 0.423(3) 0.1620(16) 0.0241 Uiso
O3K O 0.2726(18) 1.125(4) 0.4250(17) 0.0241 Uiso
O3L O 0.2274(18) 1.125(4) 0.0750(17) 0.0241 Uiso
O3G O 0.2274(18) 0.375(4) 0.0750(17) 0.0241 Uiso
loop_
_atom_site_aniso_label
_atom_site_aniso_U_11
_atom_site_aniso_U_22
_atom_site_aniso_U_33
_atom_site_aniso_U_23
_atom_site_aniso_U_13
_atom_site_aniso_U_12
In1 0.0102(4) 0.0072(4) 0.0182(4) 0.0010(3) 0.000 0.000
O1 0.035(5) 0.007(3) 0.014(4) 0.000 0.000 0.000
O2 0.030(2) 0.017(2) 0.046(3) -0.004(2) -0.022(2) 0.004(2)
C1 0.023(4) 0.016(4) 0.034(5) 0.000 -0.009(4) 0.000
In1A 0.0102 0.0072 0.0182 -0.001 0 0
In1E 0.0102 0.0072 0.0182 -0.001 0 0
In1D 0.0102 0.0072 0.0182 0.001 0 0
O1B 0.035 0.007 0.014 0 0 0
O2K 0.03 0.017 0.046 0.004 -0.022 -0.004
O2G 0.03 0.017 0.046 0.004 -0.022 -0.004
O2L 0.03 0.017 0.046 -0.004 -0.022 0.004
O2B 0.03 0.017 0.046 -0.004 0.022 -0.004
O2H 0.03 0.017 0.046 -0.004 -0.022 0.004
O2J 0.03 0.017 0.046 -0.004 0.022 -0.004
C1G 0.023 0.016 0.034 0 -0.009 0
loop_
_geom_bond_atom_site_label_1
_geom_bond_atom_site_label_2
_geom_bond_site_symmetry_1
_geom_bond_site_symmetry_2
In1 O1 1_555 1_555
O1 H1 1_555 1_555
O2 In1 1_555 1_555
C1 O2 1_555 1_555
C2 C1 1_555 1_555
C3 C2 1_555 1_555
N1 C3 1_555 1_555
O3 N1 1_555 1_555
In1A O1 1_555 1_555
In1E O2G 1_555 1_555
In1D O2L 1_555 1_555
O1B In1 1_555 1_555
H1B O1B 1_555 1_555
O2K C1 1_555 1_555
O2G C1G 1_555 1_555
O2L C1G 1_555 1_555
O2B In1 1_555 1_555
O2H In1 1_555 1_555
O2J In1 1_555 1_555
C1G C2G 1_555 1_555
C2G C3G 1_555 1_555
C3G C3 1_555 1_555
C3L C2G 1_555 1_555
C3K C2 1_555 1_555
N1K C3K 1_555 1_555
N1L C3L 1_555 1_555
N1G C3G 1_555 1_555
O3K N1K 1_555 1_555
O3L N1L 1_555 1_555
O3G N1G 1_555 1_555
In1A O2K 1_555 1_555
C3L C3K 1_555 1_555

#END
