
#######################################################################
#
#                 Cambridge Crystallographic Data Centre
#                                CCDC 
#
#######################################################################
#
# If this CIF has been generated from an entry in the Cambridge 
# Structural Database, then it will include bibliographic, chemical, 
# crystal, experimental, refinement or atomic coordinate data resulting 
# from the CCDC's data processing and validation procedures.
#
#######################################################################

data_WIYZOU
_chemical_formula_moiety         '(C22 H38 Co5 O38)n'
_symmetry_cell_setting           monoclinic
_symmetry_space_group_name_H-M   'P 21/c'
_symmetry_Int_Tables_number      14
_space_group_name_Hall           '-P 2ybc'
loop_
_symmetry_equiv_pos_site_id
_symmetry_equiv_pos_as_xyz
1 x,y,z
2 -x,1/2+y,1/2-z
3 -x,-y,-z
4 x,1/2-y,1/2+z
_cell_length_a                   12.6162(2)
_cell_length_b                   11.3768(2)
_cell_length_c                   15.3401(3)
_cell_angle_alpha                90
_cell_angle_beta                 91.5390(10)
_cell_angle_gamma                90
_cell_volume                     2201
loop_
_atom_site_label
_atom_site_type_symbol
_atom_site_fract_x
_atom_site_fract_y
_atom_site_fract_z
Co1 Co 1.0000 1.0000 0.0000
Co2 Co 0.71234(3) 1.09996(3) 0.22878(2)
Co3 Co 0.49401(3) 1.00197(3) 0.29242(2)
C1 C 0.6821(2) 0.8881(2) 0.07052(16)
C2 C 0.6211(2) 0.8472(2) 0.13891(16)
C3 C 0.5175(2) 0.8064(2) 0.12179(16)
C4 C 0.4726(2) 0.8110(2) 0.03774(16)
C5 C 0.5326(2) 0.8595(2) -0.02933(16)
C6 C 0.6368(2) 0.8928(2) -0.01299(17)
H1 H 0.680(3) 0.926(4) -0.064(3)
C7 C 0.7917(2) 0.9369(2) 0.08438(17)
C8 C 0.6654(2) 0.8479(2) 0.23127(16)
C9 C 0.4508(2) 0.7662(2) 0.19580(16)
C10 C 0.3600(2) 0.7667(2) 0.02250(16)
C11 C 0.4833(2) 0.8912(2) -0.11586(16)
O1 O 0.85435(15) 0.92119(17) 0.02333(12)
O2 O 0.81480(14) 0.99189(16) 0.15432(12)
O3 O 0.65151(14) 0.94242(15) 0.27552(11)
O4 O 0.71090(15) 0.75952(16) 0.25997(12)
O5 O 0.43503(14) 0.83410(16) 0.25760(11)
O6 O 0.41107(14) 0.66309(15) 0.18916(11)
O7 O 0.28722(14) 0.81857(17) 0.06175(11)
O8 O 0.34652(15) 0.67725(16) -0.02459(12)
O9 O 0.54347(14) 0.92955(16) -0.17373(11)
O10 O 0.38388(14) 0.88404(16) -0.12230(11)
O11 O 1.02601(16) 1.03515(18) 0.13248(12)
H2 H 1.081(2) 1.000(3) 0.164(2)
H3 H 0.9601(17) 1.017(4) 0.157(3)
O12 O 1.07223(16) 0.83486(18) 0.01238(13)
H4 H 1.1455(14) 0.828(4) 0.019(3)
H5 H 1.039(3) 0.794(3) 0.056(2)
O13 O 0.78258(15) 1.25162(17) 0.17562(12)
H6 H 0.745(3) 1.282(3) 0.1290(17)
H7 H 0.792(3) 1.309(3) 0.2179(19)
O14 O 0.80518(16) 1.12438(18) 0.33945(13)
H8 H 0.8734(16) 1.145(4) 0.336(3)
H9 H 0.771(3) 1.176(3) 0.379(2)
O15 O 0.50913(15) 0.94349(18) 0.41475(12)
H10 H 0.459(2) 0.891(3) 0.439(2)
H11 H 0.5722(19) 0.934(4) 0.447(2)
O16 O 0.33997(15) 1.05986(16) 0.32182(12)
H12 H 0.323(3) 1.065(3) 0.3805(13)
H13 H 0.314(3) 1.130(3) 0.296(2)
Co2B Co 1.28766(3) 0.90004(3) -0.22878(2)
Co2A Co 0.28766(3) 0.59996(3) 0.27122(2)
Co2B_2 Co 0.28766(3) 0.90004(3) -0.22878(2)
Co2C Co 1.71234(3) 1.40004(3) -0.27122(2)
Co2_2 Co 1.71234(3) 1.09996(3) 0.22878(2)
Co3B Co 1.50599(3) 0.99803(3) -0.29242(2)
Co3A Co 0.50599(3) 0.50197(3) 0.20758(2)
Co3B_2 Co 0.50599(3) 0.99803(3) -0.29242(2)
Co3C Co 1.49401(3) 1.49803(3) -0.20758(2)
Co3_2 Co 1.49401(3) 1.00197(3) 0.29242(2)
C1B C 1.3179(2) 1.1119(2) -0.07052(16)
C2B C 1.3789(2) 1.1528(2) -0.13891(16)
C3B C 1.4825(2) 1.1936(2) -0.12179(16)
C4B C 1.5274(2) 1.1890(2) -0.03774(16)
C5B C 1.4674(2) 1.1405(2) 0.02933(16)
C6B C 1.3632(2) 1.1072(2) 0.01299(17)
H1B H 1.320(3) 1.074(4) 0.064(3)
C7B C 1.2083(2) 1.0631(2) -0.08438(17)
C8B C 1.3346(2) 1.1521(2) -0.23127(16)
C9B C 1.5492(2) 1.2338(2) -0.19580(16)
C10B C 1.6400(2) 1.2333(2) -0.02250(16)
C11B C 1.5167(2) 1.1088(2) 0.11586(16)
O1B O 1.14565(15) 1.07881(17) -0.02333(12)
O2B O 1.18520(14) 1.00811(16) -0.15432(12)
O3B O 1.34849(14) 1.05758(15) -0.27552(11)
O4B O 1.28910(15) 1.24048(16) -0.25997(12)
O5B O 1.56497(14) 1.16590(16) -0.25760(11)
O6B O 1.58893(14) 1.33691(15) -0.18916(11)
O6A O 0.58893(14) 1.16309(15) 0.31084(11)
O6C O 1.41107(14) 0.83691(15) -0.31084(11)
O7B O 1.71278(14) 1.18143(17) -0.06175(11)
O8B O 1.65348(15) 1.32275(16) 0.02459(12)
O9B O 1.45653(14) 1.07045(16) 0.17373(11)
O9B_2 O 0.45653(14) 1.07045(16) 0.17373(11)
O9_2 O 1.54347(14) 0.92955(16) -0.17373(11)
O10B O 1.61612(14) 1.11596(16) 0.12230(11)
O10B_2 O 0.61612(14) 1.11596(16) 0.12230(11)
O10_2 O 1.38388(14) 0.88404(16) -0.12230(11)
O11B O 0.97399(16) 0.96485(18) -0.13248(12)
H2B H 0.919(2) 1.000(3) -0.164(2)
H3B H 1.0399(17) 0.983(4) -0.157(3)
O12B O 0.92777(16) 1.16514(18) -0.01238(13)
H4B H 0.8545(14) 1.172(4) -0.019(3)
H5B H 0.961(3) 1.206(3) -0.056(2)
O13B O 1.21742(15) 0.74838(17) -0.17562(12)
H6B H 1.255(3) 0.718(3) -0.1290(17)
H7B H 1.208(3) 0.691(3) -0.2179(19)
O14B O 1.19482(16) 0.87562(18) -0.33945(13)
H8B H 1.1266(16) 0.855(4) -0.336(3)
H9B H 1.229(3) 0.824(3) -0.379(2)
O15B O 1.49087(15) 1.05651(18) -0.41475(12)
H10B H 1.541(2) 1.109(3) -0.439(2)
H11B H 1.4278(19) 1.066(4) -0.447(2)
O16B O 1.66003(15) 0.94014(16) -0.32182(12)
H12B H 1.677(3) 0.935(3) -0.3805(13)
H13B H 1.686(3) 0.870(3) -0.296(2)
O17 O 0.29427(18) 0.05881(19) 0.49450(14)
H14 H 0.251(3) 0.108(3) 0.528(2)
H15 H 0.264(3) -0.0175(19) 0.497(3)
O18 O 0.17728(16) 0.21890(18) 0.58275(13)
H16 H 0.224(3) 0.238(3) 0.6318(18)
H17 H 0.166(3) 0.294(2) 0.556(2)
O19 O 0.20898(15) 0.93283(18) 0.20340(13)
H18 H 0.255(3) 0.976(3) 0.239(2)
H19 H 0.249(3) 0.903(4) 0.1568(19)
O20 O 0.9986(2) 0.3152(3) 0.17541(19)
H20 H 0.955(2) 0.267(3) 0.132(2)
H21 H 1.0670(18) 0.304(4) 0.142(2)
O21 O 0.0036(3) 0.2184(3) 0.3428(2)
H22 H 0.035(3) 0.255(3) 0.2877(19)
H23 H 0.057(3) 0.156(3) 0.353(3)
O23 O -0.0205(13) 0.0119(13) 0.4041(10)
H24 H 0.018(3) 0.066(3) 0.401(3)
H25 H 0.045(3) -0.0641(19) 0.400(3)
loop_
_geom_bond_atom_site_label_1
_geom_bond_atom_site_label_2
_geom_bond_site_symmetry_1
_geom_bond_site_symmetry_2
Co1 O1 1_555 1_555
Co2 O2 1_555 1_555
Co3 O3 1_555 1_555
C1 C2 1_555 1_555
C2 C3 1_555 1_555
C3 C4 1_555 1_555
C4 C5 1_555 1_555
C5 C6 1_555 1_555
C6 C1 1_555 1_555
H1 C6 1_555 1_555
C7 C1 1_555 1_555
C8 C2 1_555 1_555
C9 C3 1_555 1_555
C10 C4 1_555 1_555
C11 C5 1_555 1_555
O1 C7 1_555 1_555
O2 C7 1_555 1_555
O3 Co2 1_555 1_555
O4 C8 1_555 1_555
O5 Co3 1_555 1_555
O6 C9 1_555 1_555
O7 C10 1_555 1_555
O8 C10 1_555 1_555
O9 C11 1_555 1_555
O10 C11 1_555 1_555
O11 Co1 1_555 1_555
H2 O11 1_555 1_555
H3 O11 1_555 1_555
O12 Co1 1_555 1_555
H4 O12 1_555 1_555
H5 O12 1_555 1_555
O13 Co2 1_555 1_555
H6 O13 1_555 1_555
H7 O13 1_555 1_555
O14 Co2 1_555 1_555
H8 O14 1_555 1_555
H9 O14 1_555 1_555
O15 Co3 1_555 1_555
H10 O15 1_555 1_555
H11 O15 1_555 1_555
O16 Co3 1_555 1_555
H12 O16 1_555 1_555
H13 O16 1_555 1_555
O17 H14 1_555 1_555
H15 O17 1_555 1_555
O18 H16 1_555 1_555
H17 O18 1_555 1_555
O19 H18 1_555 1_555
H19 O19 1_555 1_555
O20 H20 1_555 1_555
H21 O20 1_555 1_555
O21 H22 1_555 1_555
H23 O21 1_555 1_555
O23 H24 1_555 1_555
H25 O23 1_555 1_555
Co2B O2B 1_555 1_555
Co2A O6 1_555 1_555
Co2B_2 O10 1_555 1_555
Co2C O6B 1_555 1_555
Co2_2 O10B 1_555 1_555
Co3B O3B 1_555 1_555
Co3A O6 1_555 1_555
Co3B_2 O9 1_555 1_555
Co3C O6B 1_555 1_555
Co3_2 O9B 1_555 1_555
C1B C2B 1_555 1_555
C2B C3B 1_555 1_555
C3B C4B 1_555 1_555
C4B C5B 1_555 1_555
C5B C6B 1_555 1_555
C6B C1B 1_555 1_555
H1B C6B 1_555 1_555
C7B C1B 1_555 1_555
C8B C2B 1_555 1_555
C9B C3B 1_555 1_555
C10B C4B 1_555 1_555
C11B C5B 1_555 1_555
O1B Co1 1_555 1_555
O2B C7B 1_555 1_555
O3B Co2B 1_555 1_555
O4B C8B 1_555 1_555
O5B Co3B 1_555 1_555
O6B C9B 1_555 1_555
O6A Co2 1_555 1_555
O6C Co2B 1_555 1_555
O7B C10B 1_555 1_555
O8B C10B 1_555 1_555
O9B C11B 1_555 1_555
O9B_2 Co3 1_555 1_555
O9_2 Co3B 1_555 1_555
O10B C11B 1_555 1_555
O10B_2 Co2 1_555 1_555
O10_2 Co2B 1_555 1_555
O11B Co1 1_555 1_555
H2B O11B 1_555 1_555
H3B O11B 1_555 1_555
O12B Co1 1_555 1_555
H4B O12B 1_555 1_555
H5B O12B 1_555 1_555
O13B Co2B 1_555 1_555
H6B O13B 1_555 1_555
H7B O13B 1_555 1_555
O14B Co2B 1_555 1_555
H8B O14B 1_555 1_555
H9B O14B 1_555 1_555
O15B Co3B 1_555 1_555
H10B O15B 1_555 1_555
H11B O15B 1_555 1_555
O16B Co3B 1_555 1_555
H12B O16B 1_555 1_555
H13B O16B 1_555 1_555
Co3 O6A 1_555 1_555
C8 O3 1_555 1_555
C9 O5 1_555 1_555
Co3B O6C 1_555 1_555
C7B O1B 1_555 1_555
C8B O3B 1_555 1_555
C9B O5B 1_555 1_555

#END
