
#######################################################################
#
#                 Cambridge Crystallographic Data Centre
#                                CCDC 
#
#######################################################################
#
# If this CIF has been generated from an entry in the Cambridge 
# Structural Database, then it will include bibliographic, chemical, 
# crystal, experimental, refinement or atomic coordinate data resulting 
# from the CCDC's data processing and validation procedures.
#
#######################################################################

data_COCNAL
_chemical_formula_moiety         'C120 H132 Cd20 N74 O12 Si3'
_symmetry_cell_setting           cubic
_symmetry_space_group_name_H-M   'I a -3 d'
_symmetry_Int_Tables_number      230
_space_group_name_Hall           '-I 4bd 2c 3'
loop_
_symmetry_equiv_pos_site_id
_symmetry_equiv_pos_as_xyz
1 x,y,z
2 1/2-x,-y,1/2+z
3 -x,1/2+y,1/2-z
4 1/2+x,1/2-y,-z
5 z,x,y
6 1/2+z,1/2-x,-y
7 1/2-z,-x,1/2+y
8 -z,1/2+x,1/2-y
9 y,z,x
10 -y,1/2+z,1/2-x
11 1/2+y,1/2-z,-x
12 1/2-y,-z,1/2+x
13 3/4+y,1/4+x,1/4-z
14 3/4-y,3/4-x,3/4-z
15 1/4+y,1/4-x,3/4+z
16 1/4-y,3/4+x,1/4+z
17 3/4+x,1/4+z,1/4-y
18 1/4-x,3/4+z,1/4+y
19 3/4-x,3/4-z,3/4-y
20 1/4+x,1/4-z,3/4+y
21 3/4+z,1/4+y,1/4-x
22 1/4+z,1/4-y,3/4+x
23 1/4-z,3/4+y,1/4+x
24 3/4-z,3/4-y,3/4-x
25 1/2+x,1/2+y,1/2+z
26 -x,1/2-y,z
27 1/2-x,y,-z
28 x,-y,1/2-z
29 1/2+z,1/2+x,1/2+y
30 z,-x,1/2-y
31 -z,1/2-x,y
32 1/2-z,x,-y
33 1/2+y,1/2+z,1/2+x
34 1/2-y,z,-x
35 y,-z,1/2-x
36 -y,1/2-z,x
37 1/4+y,3/4+x,3/4-z
38 1/4-y,1/4-x,1/4-z
39 3/4+y,3/4-x,1/4+z
40 3/4-y,1/4+x,3/4+z
41 1/4+x,3/4+z,3/4-y
42 3/4-x,1/4+z,3/4+y
43 1/4-x,1/4-z,1/4-y
44 3/4+x,3/4-z,1/4+y
45 1/4+z,3/4+y,3/4-x
46 3/4+z,3/4-y,1/4+x
47 3/4-z,1/4+y,3/4+x
48 1/4-z,1/4-y,1/4-x
49 -x,-y,-z
50 1/2+x,y,1/2-z
51 x,1/2-y,1/2+z
52 1/2-x,1/2+y,z
53 -z,-x,-y
54 1/2-z,1/2+x,y
55 1/2+z,x,1/2-y
56 z,1/2-x,1/2+y
57 -y,-z,-x
58 y,1/2-z,1/2+x
59 1/2-y,1/2+z,x
60 1/2+y,z,1/2-x
61 1/4-y,3/4-x,3/4+z
62 1/4+y,1/4+x,1/4+z
63 3/4-y,3/4+x,1/4-z
64 3/4+y,1/4-x,3/4-z
65 1/4-x,3/4-z,3/4+y
66 3/4+x,1/4-z,3/4-y
67 1/4+x,1/4+z,1/4+y
68 3/4-x,3/4+z,1/4-y
69 1/4-z,3/4-y,3/4+x
70 3/4-z,3/4+y,1/4-x
71 3/4+z,1/4-y,3/4-x
72 1/4+z,1/4+y,1/4+x
73 1/2-x,1/2-y,1/2-z
74 x,1/2+y,-z
75 1/2+x,-y,z
76 -x,y,1/2+z
77 1/2-z,1/2-x,1/2-y
78 -z,x,1/2+y
79 z,1/2+x,-y
80 1/2+z,-x,y
81 1/2-y,1/2-z,1/2-x
82 1/2+y,-z,x
83 -y,z,1/2+x
84 y,1/2+z,-x
85 3/4-y,1/4-x,1/4+z
86 3/4+y,3/4+x,3/4+z
87 1/4-y,1/4+x,3/4-z
88 1/4+y,3/4-x,1/4-z
89 3/4-x,1/4-z,1/4+y
90 1/4+x,3/4-z,1/4-y
91 3/4+x,3/4+z,3/4+y
92 1/4-x,1/4+z,3/4-y
93 3/4-z,1/4-y,1/4+x
94 1/4-z,1/4+y,3/4-x
95 1/4+z,3/4-y,1/4-x
96 3/4+z,3/4+y,3/4+x
_cell_length_a                   36.97447(15)
_cell_length_b                   36.97447(15)
_cell_length_c                   36.97447(15)
_cell_angle_alpha                90
_cell_angle_beta                 90
_cell_angle_gamma                90
_cell_volume                     50548.2
loop_
_atom_site_label
_atom_site_type_symbol
_atom_site_fract_x
_atom_site_fract_y
_atom_site_fract_z
_atom_site_U_iso_or_equiv
_atom_site_thermal_displace_type
Cd1 Cd 0.5000 0.5000 0.5000 0.0501 Uani
N1 N 0.56234(8) 0.49157(8) 0.51229(8) 0.0606 Uani
N2 N 0.58150(8) 0.51247(9) 0.53423(8) 0.0610 Uani
N3 N 0.58281(8) 0.46441(8) 0.50036(8) 0.0576 Uani
Cd2 Cd 0.564168(8) 0.564168(8) 0.564168(8) 0.0641 Uani
N4 N 0.61507(8) 0.49952(9) 0.53745(9) 0.0640 Uani
C1 C 0.61505(10) 0.47014(10) 0.51643(10) 0.0586 Uani
O1 O 0.59518(12) 0.54615(12) 0.61405(10) 0.1087 Uani
C2 C 0.64702(9) 0.44739(10) 0.51172(9) 0.0573 Uani
C3 C 0.6278(3) 0.5376(5) 0.6090(4) 0.1377 Uani
C4 C 0.67505(11) 0.44887(12) 0.53698(11) 0.0710 Uani
C5 C 0.65001(10) 0.42394(10) 0.48308(10) 0.0618 Uani
H1 H 0.6391 0.5456 0.5874 0.1650 Uiso
N5 N 0.6473(3) 0.5180(4) 0.6322(4) 0.1840 Uani
H2 H 0.6733 0.4646 0.5573 0.0850 Uiso
C6 C 0.70512(10) 0.42772(11) 0.53254(11) 0.0680 Uani
C7 C 0.68050(9) 0.40284(11) 0.47911(9) 0.0615 Uani
H3 H 0.6310 0.4222 0.4659 0.0740 Uiso
C8 C 0.6284(5) 0.4973(6) 0.6602(5) 0.2060 Uani
C9 C 0.6853(4) 0.5109(6) 0.6269(5) 0.2473 Uani
H4 H 0.7241 0.4293 0.5498 0.0820 Uiso
C10 C 0.70878(9) 0.40415(9) 0.50377(8) 0.0524 Uani
H5 H 0.6822 0.3870 0.4590 0.0740 Uiso
H6 H 0.6025 0.4963 0.6545 0.3090 Uiso
H7 H 0.6318 0.5092 0.6837 0.3090 Uiso
H8 H 0.6383 0.4728 0.6612 0.3090 Uiso
H9 H 0.6947 0.5267 0.6078 0.3710 Uiso
H10 H 0.6887 0.4856 0.6199 0.3710 Uiso
H11 H 0.6984 0.5156 0.6495 0.3710 Uiso
Si1 Si 0.7500 0.3750 0.5000 0.0490 Uani
N1D N 0.51229(8) 0.56234(8) 0.49157(8) 0.0606 Uani
N1H N 0.49157(8) 0.51229(8) 0.56234(8) 0.0606 Uani
N1VA N 0.43766(8) 0.50843(8) 0.48771(8) 0.0606 Uani
N1ZA N 0.48771(8) 0.43766(8) 0.50843(8) 0.0606 Uani
N1DB N 0.50843(8) 0.48771(8) 0.43766(8) 0.0606 Uani
N2D N 0.53423(8) 0.58150(8) 0.51247(9) 0.0610 Uani
N3D N 0.50036(8) 0.58281(8) 0.46441(8) 0.0576 Uani
N2H N 0.51247(9) 0.53423(8) 0.58150(8) 0.0610 Uani
N3H N 0.46441(8) 0.50036(8) 0.58281(8) 0.0576 Uani
N4D N 0.53745(9) 0.61507(8) 0.49952(9) 0.0640 Uani
C1D C 0.51643(10) 0.61505(10) 0.47014(10) 0.0586 Uani
N4H N 0.49952(9) 0.53745(9) 0.61507(8) 0.0640 Uani
C1H C 0.47014(10) 0.51643(10) 0.61505(10) 0.0586 Uani
O1D O 0.61405(10) 0.59518(12) 0.54615(12) 0.1087 Uani
O1H O 0.54615(12) 0.61405(10) 0.59518(12) 0.1087 Uani
C2D C 0.51172(9) 0.64702(9) 0.44739(10) 0.0573 Uani
C2H C 0.44739(10) 0.51172(9) 0.64702(9) 0.0573 Uani
C3D C 0.6090(4) 0.6278(3) 0.5376(5) 0.1377 Uani
C3H C 0.5376(5) 0.6090(4) 0.6278(3) 0.1377 Uani
C4D C 0.53698(11) 0.67505(11) 0.44887(12) 0.0710 Uani
C5D C 0.48308(10) 0.65001(10) 0.42394(10) 0.0618 Uani
C4H C 0.44887(12) 0.53698(11) 0.67505(11) 0.0710 Uani
C5H C 0.42394(10) 0.48308(10) 0.65001(10) 0.0618 Uani
H1D H 0.5874 0.6391 0.5456 0.1650 Uiso
N5D N 0.6322(4) 0.6473(3) 0.5180(4) 0.1840 Uani
H1H H 0.5456 0.5874 0.6391 0.1650 Uiso
N5H N 0.5180(4) 0.6322(4) 0.6473(3) 0.1840 Uani
H2D H 0.5573 0.6733 0.4646 0.0850 Uiso
C6D C 0.53254(11) 0.70512(10) 0.42772(11) 0.0680 Uani
C7D C 0.47911(9) 0.68050(9) 0.40284(11) 0.0615 Uani
H3D H 0.4659 0.6310 0.4222 0.0740 Uiso
H2H H 0.4646 0.5573 0.6733 0.0850 Uiso
C6H C 0.42772(11) 0.53254(11) 0.70512(10) 0.0680 Uani
C7H C 0.40284(11) 0.47911(9) 0.68050(9) 0.0615 Uani
H3H H 0.4222 0.4659 0.6310 0.0740 Uiso
C8D C 0.6602(5) 0.6284(5) 0.4973(6) 0.2060 Uani
C9D C 0.6269(5) 0.6853(4) 0.5109(6) 0.2473 Uani
C8H C 0.4973(6) 0.6602(5) 0.6284(5) 0.2060 Uani
C9H C 0.5109(6) 0.6269(5) 0.6853(4) 0.2473 Uani
H4D H 0.5498 0.7241 0.4293 0.0820 Uiso
C10D C 0.50377(8) 0.70878(9) 0.40415(9) 0.0524 Uani
H5D H 0.4590 0.6822 0.3870 0.0740 Uiso
H4H H 0.4293 0.5498 0.7241 0.0820 Uiso
C10H C 0.40415(9) 0.50377(8) 0.70878(9) 0.0524 Uani
H5H H 0.3870 0.4590 0.6822 0.0740 Uiso
H6D H 0.6545 0.6025 0.4963 0.3090 Uiso
H7D H 0.6837 0.6318 0.5092 0.3090 Uiso
H8D H 0.6612 0.6383 0.4728 0.3090 Uiso
H9D H 0.6078 0.6947 0.5267 0.3710 Uiso
H10D H 0.6199 0.6887 0.4856 0.3710 Uiso
H11D H 0.6495 0.6984 0.5156 0.3710 Uiso
H6H H 0.4963 0.6545 0.6025 0.3090 Uiso
H7H H 0.5092 0.6837 0.6318 0.3090 Uiso
H8H H 0.4728 0.6612 0.6383 0.3090 Uiso
H9H H 0.5267 0.6078 0.6947 0.3710 Uiso
H10H H 0.4856 0.6199 0.6887 0.3710 Uiso
H11H H 0.5156 0.6495 0.6984 0.3710 Uiso
Si1D Si 0.5000 0.7500 0.3750 0.0490 Uani
Si1H Si 0.3750 0.5000 0.7500 0.0490 Uani
C10Z C 0.79122(9) 0.40415(9) 0.49623(8) 0.0524 Uani
C10PB C 0.74623(8) 0.34585(9) 0.45878(9) 0.0524 Uani
C10PC C 0.75377(8) 0.34585(9) 0.54122(9) 0.0524 Uani
C10DA C 0.49623(8) 0.79122(9) 0.40415(9) 0.0524 Uani
C10MB C 0.45878(9) 0.74623(8) 0.34585(9) 0.0524 Uani
C10MC C 0.54122(9) 0.75377(8) 0.34585(9) 0.0524 Uani
C10HA C 0.40415(9) 0.49623(8) 0.79122(9) 0.0524 Uani
C10JB C 0.34585(9) 0.45878(9) 0.74623(8) 0.0524 Uani
C10FC C 0.34585(9) 0.54122(9) 0.75377(8) 0.0524 Uani
C6Z C 0.79488(10) 0.42772(11) 0.46746(11) 0.0680 Uani
C7Z C 0.81950(9) 0.40284(11) 0.52089(9) 0.0615 Uani
C6PB C 0.71746(11) 0.32228(11) 0.45512(10) 0.0680 Uani
C7PB C 0.77089(9) 0.34716(11) 0.43050(9) 0.0615 Uani
C6PC C 0.78254(11) 0.32228(11) 0.54488(10) 0.0680 Uani
C7PC C 0.72911(9) 0.34716(11) 0.56950(9) 0.0615 Uani
C6DA C 0.46746(11) 0.79488(10) 0.42772(11) 0.0680 Uani
C7DA C 0.52089(9) 0.81950(9) 0.40284(11) 0.0615 Uani
C6MB C 0.45512(10) 0.71746(11) 0.32228(11) 0.0680 Uani
C7MB C 0.43050(9) 0.77089(9) 0.34716(11) 0.0615 Uani
C6MC C 0.54488(10) 0.78254(11) 0.32228(11) 0.0680 Uani
C7MC C 0.56950(9) 0.72911(9) 0.34716(11) 0.0615 Uani
C6HA C 0.42772(11) 0.46746(11) 0.79488(10) 0.0680 Uani
C7HA C 0.40284(11) 0.52089(9) 0.81950(9) 0.0615 Uani
C6JB C 0.32228(11) 0.45512(10) 0.71746(11) 0.0680 Uani
C7JB C 0.34716(11) 0.43050(9) 0.77089(9) 0.0615 Uani
C6FC C 0.32228(11) 0.54488(10) 0.78254(11) 0.0680 Uani
C7FC C 0.34716(11) 0.56950(9) 0.72911(9) 0.0615 Uani
C4Z C 0.82495(11) 0.44887(12) 0.46302(11) 0.0710 Uani
H4Z H 0.7759 0.4293 0.4502 0.0820 Uiso
H5Z H 0.8178 0.3870 0.5410 0.0740 Uiso
C5Z C 0.84999(10) 0.42394(10) 0.51692(10) 0.0618 Uani
C4PB C 0.71302(11) 0.30113(12) 0.42505(11) 0.0710 Uani
H4PB H 0.7002 0.3207 0.4741 0.0820 Uiso
H5PB H 0.7910 0.3630 0.4322 0.0740 Uiso
C5PB C 0.76692(10) 0.32606(10) 0.40001(10) 0.0618 Uani
C4PC C 0.78698(11) 0.30113(12) 0.57495(11) 0.0710 Uani
H4PC H 0.7998 0.3207 0.5259 0.0820 Uiso
H5PC H 0.7090 0.3630 0.5678 0.0740 Uiso
C5PC C 0.73308(10) 0.32606(10) 0.59999(10) 0.0618 Uani
C4DA C 0.46302(11) 0.82495(11) 0.44887(12) 0.0710 Uani
H4DA H 0.4502 0.7759 0.4293 0.0820 Uiso
H5DA H 0.5410 0.8178 0.3870 0.0740 Uiso
C5DA C 0.51692(10) 0.84999(10) 0.42394(10) 0.0618 Uani
C4MB C 0.42505(11) 0.71302(11) 0.30113(12) 0.0710 Uani
H4MB H 0.4741 0.7002 0.3207 0.0820 Uiso
H5MB H 0.4322 0.7910 0.3630 0.0740 Uiso
C5MB C 0.40001(10) 0.76692(10) 0.32606(10) 0.0618 Uani
C4MC C 0.57495(11) 0.78698(11) 0.30113(12) 0.0710 Uani
H4MC H 0.5259 0.7998 0.3207 0.0820 Uiso
H5MC H 0.5678 0.7090 0.3630 0.0740 Uiso
C5MC C 0.59999(10) 0.73308(10) 0.32606(10) 0.0618 Uani
C4HA C 0.44887(12) 0.46302(11) 0.82495(11) 0.0710 Uani
H4HA H 0.4293 0.4502 0.7759 0.0820 Uiso
H5HA H 0.3870 0.5410 0.8178 0.0740 Uiso
C5HA C 0.42394(10) 0.51692(10) 0.84999(10) 0.0618 Uani
C4JB C 0.30113(12) 0.42505(11) 0.71302(11) 0.0710 Uani
H4JB H 0.3207 0.4741 0.7002 0.0820 Uiso
H5JB H 0.3630 0.4322 0.7910 0.0740 Uiso
C5JB C 0.32606(10) 0.40001(10) 0.76692(10) 0.0618 Uani
C4FC C 0.30113(12) 0.57495(11) 0.78698(11) 0.0710 Uani
H4FC H 0.3207 0.5259 0.7998 0.0820 Uiso
H5FC H 0.3630 0.5678 0.7090 0.0740 Uiso
C5FC C 0.32606(10) 0.59999(10) 0.73308(10) 0.0618 Uani
C2Z C 0.85298(9) 0.44739(10) 0.48828(9) 0.0573 Uani
H2Z H 0.8267 0.4646 0.4427 0.0850 Uiso
H3Z H 0.8690 0.4222 0.5341 0.0740 Uiso
C2PB C 0.73828(9) 0.30261(10) 0.39702(9) 0.0573 Uani
H2PB H 0.6927 0.2854 0.4233 0.0850 Uiso
H3PB H 0.7841 0.3278 0.3810 0.0740 Uiso
C2PC C 0.76172(9) 0.30261(10) 0.60298(9) 0.0573 Uani
H2PC H 0.8073 0.2854 0.5767 0.0850 Uiso
H3PC H 0.7159 0.3278 0.6190 0.0740 Uiso
C2DA C 0.48828(9) 0.85298(9) 0.44739(10) 0.0573 Uani
H2DA H 0.4427 0.8267 0.4646 0.0850 Uiso
H3DA H 0.5341 0.8690 0.4222 0.0740 Uiso
C2MB C 0.39702(9) 0.73828(9) 0.30261(10) 0.0573 Uani
H2MB H 0.4233 0.6927 0.2854 0.0850 Uiso
H3MB H 0.3810 0.7841 0.3278 0.0740 Uiso
C2MC C 0.60298(9) 0.76172(9) 0.30261(10) 0.0573 Uani
H2MC H 0.5767 0.8073 0.2854 0.0850 Uiso
H3MC H 0.6190 0.7159 0.3278 0.0740 Uiso
C2HA C 0.44739(10) 0.48828(9) 0.85298(9) 0.0573 Uani
H2HA H 0.4646 0.4427 0.8267 0.0850 Uiso
H3HA H 0.4222 0.5341 0.8690 0.0740 Uiso
C2JB C 0.30261(10) 0.39702(9) 0.73828(9) 0.0573 Uani
H2JB H 0.2854 0.4233 0.6927 0.0850 Uiso
H3JB H 0.3278 0.3810 0.7841 0.0740 Uiso
C2FC C 0.30261(10) 0.60298(9) 0.76172(9) 0.0573 Uani
H2FC H 0.2854 0.5767 0.8073 0.0850 Uiso
H3FC H 0.3278 0.6190 0.7159 0.0740 Uiso
C1Z C 0.88495(10) 0.47014(10) 0.48357(10) 0.0586 Uani
C1PB C 0.73357(10) 0.27986(10) 0.36505(10) 0.0586 Uani
C1PC C 0.76643(10) 0.27986(10) 0.63495(10) 0.0586 Uani
C1DA C 0.48357(10) 0.88495(10) 0.47014(10) 0.0586 Uani
C1MB C 0.36505(10) 0.73357(10) 0.27986(10) 0.0586 Uani
C1MC C 0.63495(10) 0.76643(10) 0.27986(10) 0.0586 Uani
C1HA C 0.47014(10) 0.48357(10) 0.88495(10) 0.0586 Uani
C1JB C 0.27986(10) 0.36505(10) 0.73357(10) 0.0586 Uani
C1FC C 0.27986(10) 0.63495(10) 0.76643(10) 0.0586 Uani
N4Z N 0.88493(8) 0.49952(9) 0.46255(9) 0.0640 Uani
N3Z N 0.91719(8) 0.46441(8) 0.49964(8) 0.0576 Uani
N4PB N 0.71255(9) 0.25048(9) 0.36507(8) 0.0640 Uani
N3PB N 0.74964(8) 0.28559(8) 0.33281(8) 0.0576 Uani
N4PC N 0.78745(9) 0.25048(9) 0.63493(8) 0.0640 Uani
N3PC N 0.75036(8) 0.28559(8) 0.66719(8) 0.0576 Uani
N4DA N 0.46255(9) 0.88493(8) 0.49952(9) 0.0640 Uani
N3DA N 0.49964(8) 0.91719(8) 0.46441(8) 0.0576 Uani
N4MB N 0.36507(8) 0.71255(9) 0.25048(9) 0.0640 Uani
N3MB N 0.33281(8) 0.74964(8) 0.28559(8) 0.0576 Uani
N4MC N 0.63493(8) 0.78745(9) 0.25048(9) 0.0640 Uani
N3MC N 0.66719(8) 0.75036(8) 0.28559(8) 0.0576 Uani
N4HA N 0.49952(9) 0.46255(9) 0.88493(8) 0.0640 Uani
N3HA N 0.46441(8) 0.49964(8) 0.91719(8) 0.0576 Uani
N4JB N 0.25048(9) 0.36507(8) 0.71255(9) 0.0640 Uani
N3JB N 0.28559(8) 0.33281(8) 0.74964(8) 0.0576 Uani
N4FC N 0.25048(9) 0.63493(8) 0.78745(9) 0.0640 Uani
N3FC N 0.28559(8) 0.66719(8) 0.75036(8) 0.0576 Uani
N2Z N 0.91850(8) 0.51247(9) 0.46577(8) 0.0610 Uani
N1Z N 0.93766(8) 0.49157(8) 0.48771(8) 0.0606 Uani
N2PB N 0.71577(8) 0.23753(9) 0.33150(8) 0.0610 Uani
N1PB N 0.73771(8) 0.25843(8) 0.31234(8) 0.0606 Uani
N2PC N 0.78423(8) 0.23753(9) 0.66850(8) 0.0610 Uani
N1PC N 0.76229(8) 0.25843(8) 0.68766(8) 0.0606 Uani
N2DA N 0.46577(8) 0.91850(8) 0.51247(9) 0.0610 Uani
N1DA N 0.48771(8) 0.93766(8) 0.49157(8) 0.0606 Uani
N2MB N 0.33150(8) 0.71577(8) 0.23753(9) 0.0610 Uani
N1MB N 0.31234(8) 0.73771(8) 0.25843(8) 0.0606 Uani
N2MC N 0.66850(8) 0.78423(8) 0.23753(9) 0.0610 Uani
N1MC N 0.68766(8) 0.76229(8) 0.25843(8) 0.0606 Uani
N2HA N 0.51247(9) 0.46577(8) 0.91850(8) 0.0610 Uani
N1HA N 0.49157(8) 0.48771(8) 0.93766(8) 0.0606 Uani
N2JB N 0.23753(9) 0.33150(8) 0.71577(8) 0.0610 Uani
N1JB N 0.25843(8) 0.31234(8) 0.73771(8) 0.0606 Uani
N2FC N 0.23753(9) 0.66850(8) 0.78423(8) 0.0610 Uani
N1FC N 0.25843(8) 0.68766(8) 0.76229(8) 0.0606 Uani
Cd2Z Cd 0.935832(8) 0.564168(8) 0.435832(8) 0.0641 Uani
Cd1Z Cd 1.0000 0.5000 0.5000 0.0501 Uani
Cd2HB Cd 0.685832(8) 0.185832(8) 0.314168(8) 0.0641 Uani
Cd1JA Cd 0.7500 0.2500 0.2500 0.0501 Uani
Cd2IC Cd 0.814168(8) 0.185832(8) 0.685832(8) 0.0641 Uani
Cd1O Cd 0.7500 0.2500 0.7500 0.0501 Uani
Cd2Y Cd 0.435832(8) 0.935832(8) 0.564168(8) 0.0641 Uani
Cd1Y Cd 0.5000 1.0000 0.5000 0.0501 Uani
Cd2KB Cd 0.314168(8) 0.685832(8) 0.185832(8) 0.0641 Uani
Cd1MA Cd 0.2500 0.7500 0.2500 0.0501 Uani
Cd2HC Cd 0.685832(8) 0.814168(8) 0.185832(8) 0.0641 Uani
Cd1N Cd 0.7500 0.7500 0.2500 0.0501 Uani
Cd2AA Cd 0.564168(8) 0.435832(8) 0.935832(8) 0.0641 Uani
Cd1AA Cd 0.5000 0.5000 1.0000 0.0501 Uani
Cd2JB Cd 0.185832(8) 0.314168(8) 0.685832(8) 0.0641 Uani
Cd1LA Cd 0.2500 0.2500 0.7500 0.0501 Uani
Cd2FC Cd 0.185832(8) 0.685832(8) 0.814168(8) 0.0641 Uani
Cd1L Cd 0.2500 0.7500 0.7500 0.0501 Uani
O1Z O 0.90482(12) 0.54615(12) 0.38595(10) 0.1087 Uani
O1EA O 0.88595(10) 0.59518(12) 0.45385(12) 0.1087 Uani
O1GA O 0.95385(12) 0.61405(10) 0.40482(12) 0.1087 Uani
N2EA N 0.96577(8) 0.58150(8) 0.48753(9) 0.0610 Uani
N2GA N 0.98753(9) 0.53423(8) 0.41850(8) 0.0610 Uani
O1HB O 0.70385(12) 0.15482(12) 0.36405(10) 0.1087 Uani
O1LB O 0.65482(12) 0.13595(10) 0.29615(12) 0.1087 Uani
O1PB O 0.63595(10) 0.20385(12) 0.34518(12) 0.1087 Uani
N2HB N 0.73753(9) 0.16850(8) 0.28423(8) 0.0610 Uani
N2LB N 0.66850(8) 0.21577(8) 0.26247(9) 0.0610 Uani
O1IC O 0.79615(12) 0.15482(12) 0.63595(10) 0.1087 Uani
O1PC O 0.86405(10) 0.20385(12) 0.65482(12) 0.1087 Uani
O1KC O 0.84518(12) 0.13595(10) 0.70385(12) 0.1087 Uani
N2IC N 0.76247(9) 0.16850(8) 0.71577(8) 0.0610 Uani
N2KC N 0.83150(8) 0.21577(8) 0.73753(9) 0.0610 Uani
N1O N 0.75843(8) 0.31234(8) 0.76229(8) 0.0606 Uani
N1Q N 0.68766(8) 0.26229(8) 0.74157(8) 0.0606 Uani
N1V N 0.73771(8) 0.24157(8) 0.81234(8) 0.0606 Uani
N1IC N 0.74157(8) 0.18766(8) 0.73771(8) 0.0606 Uani
N1KC N 0.81234(8) 0.23771(8) 0.75843(8) 0.0606 Uani
C3Z C 0.8722(3) 0.5376(5) 0.3910(4) 0.1377 Uani
C3EA C 0.8910(4) 0.6278(3) 0.4624(5) 0.1377 Uani
C3GA C 0.9624(5) 0.6090(4) 0.3722(3) 0.1377 Uani
C3HB C 0.7124(5) 0.1222(3) 0.3590(4) 0.1377 Uani
C3LB C 0.6222(3) 0.1410(4) 0.2876(5) 0.1377 Uani
C3PB C 0.6410(4) 0.2124(5) 0.3778(3) 0.1377 Uani
C3IC C 0.7876(5) 0.1222(3) 0.6410(4) 0.1377 Uani
C3PC C 0.8590(4) 0.2124(5) 0.6222(3) 0.1377 Uani
C3KC C 0.8778(3) 0.1410(4) 0.7124(5) 0.1377 Uani
H1Z H 0.8609 0.5456 0.4126 0.1650 Uiso
N5Z N 0.8527(3) 0.5180(4) 0.3678(4) 0.1840 Uani
H1EA H 0.9126 0.6391 0.4544 0.1650 Uiso
N5EA N 0.8678(4) 0.6473(3) 0.4820(4) 0.1840 Uani
H1GA H 0.9544 0.5874 0.3609 0.1650 Uiso
N5GA N 0.9820(4) 0.6322(4) 0.3527(3) 0.1840 Uani
H1HB H 0.7044 0.1109 0.3374 0.1650 Uiso
N5HB N 0.7320(4) 0.1027(3) 0.3822(4) 0.1840 Uani
H1LB H 0.6109 0.1626 0.2956 0.1650 Uiso
N5LB N 0.6027(3) 0.1178(4) 0.2680(4) 0.1840 Uani
H1PB H 0.6626 0.2044 0.3891 0.1650 Uiso
N5PB N 0.6178(4) 0.2320(4) 0.3973(3) 0.1840 Uani
H1IC H 0.7956 0.1109 0.6626 0.1650 Uiso
N5IC N 0.7680(4) 0.1027(3) 0.6178(4) 0.1840 Uani
H1PC H 0.8374 0.2044 0.6109 0.1650 Uiso
N5PC N 0.8822(4) 0.2320(4) 0.6027(3) 0.1840 Uani
H1KC H 0.8891 0.1626 0.7044 0.1650 Uiso
N5KC N 0.8973(3) 0.1178(4) 0.7320(4) 0.1840 Uani
C8Z C 0.8716(5) 0.4973(6) 0.3398(5) 0.2060 Uani
C9Z C 0.8147(4) 0.5109(6) 0.3731(5) 0.2473 Uani
C8EA C 0.8398(5) 0.6284(5) 0.5027(6) 0.2060 Uani
C9EA C 0.8731(5) 0.6853(4) 0.4891(6) 0.2473 Uani
C8GA C 1.0027(6) 0.6602(5) 0.3716(5) 0.2060 Uani
C9GA C 0.9891(6) 0.6269(5) 0.3147(4) 0.2473 Uani
C8HB C 0.7527(6) 0.1216(5) 0.4102(5) 0.2060 Uani
C9HB C 0.7391(6) 0.0647(4) 0.3769(5) 0.2473 Uani
C8LB C 0.6216(5) 0.0898(5) 0.2473(6) 0.2060 Uani
C9LB C 0.5647(4) 0.1231(5) 0.2609(6) 0.2473 Uani
C8PB C 0.5898(5) 0.2527(6) 0.3784(5) 0.2060 Uani
C9PB C 0.6231(5) 0.2391(6) 0.4353(4) 0.2473 Uani
C8IC C 0.7473(6) 0.1216(5) 0.5898(5) 0.2060 Uani
C9IC C 0.7609(6) 0.0647(4) 0.6231(5) 0.2473 Uani
C8PC C 0.9102(5) 0.2527(6) 0.6216(5) 0.2060 Uani
C9PC C 0.8769(5) 0.2391(6) 0.5647(4) 0.2473 Uani
C8KC C 0.8784(5) 0.0898(5) 0.7527(6) 0.2060 Uani
C9KC C 0.9353(4) 0.1231(5) 0.7391(6) 0.2473 Uani
H6Z H 0.8975 0.4963 0.3455 0.3090 Uiso
H7Z H 0.8682 0.5092 0.3163 0.3090 Uiso
H8Z H 0.8617 0.4728 0.3388 0.3090 Uiso
H9Z H 0.8053 0.5267 0.3922 0.3710 Uiso
H10Z H 0.8113 0.4856 0.3801 0.3710 Uiso
H11Z H 0.8016 0.5156 0.3505 0.3710 Uiso
H6EA H 0.8455 0.6025 0.5037 0.3090 Uiso
H7EA H 0.8163 0.6318 0.4908 0.3090 Uiso
H8EA H 0.8388 0.6383 0.5272 0.3090 Uiso
H9EA H 0.8922 0.6947 0.4733 0.3710 Uiso
H10EA H 0.8801 0.6887 0.5144 0.3710 Uiso
H11EA H 0.8505 0.6984 0.4844 0.3710 Uiso
H6GA H 1.0037 0.6545 0.3975 0.3090 Uiso
H7GA H 0.9908 0.6837 0.3682 0.3090 Uiso
H8GA H 1.0272 0.6612 0.3617 0.3090 Uiso
H9GA H 0.9733 0.6078 0.3053 0.3710 Uiso
H10GA H 1.0144 0.6199 0.3113 0.3710 Uiso
H11GA H 0.9844 0.6495 0.3016 0.3710 Uiso
H6HB H 0.7537 0.1475 0.4045 0.3090 Uiso
H7HB H 0.7408 0.1182 0.4337 0.3090 Uiso
H8HB H 0.7772 0.1117 0.4112 0.3090 Uiso
H9HB H 0.7233 0.0553 0.3578 0.3710 Uiso
H10HB H 0.7644 0.0613 0.3699 0.3710 Uiso
H11HB H 0.7344 0.0516 0.3995 0.3710 Uiso
H6LB H 0.6475 0.0955 0.2463 0.3090 Uiso
H7LB H 0.6182 0.0663 0.2592 0.3090 Uiso
H8LB H 0.6117 0.0888 0.2228 0.3090 Uiso
H9LB H 0.5553 0.1422 0.2767 0.3710 Uiso
H10LB H 0.5613 0.1301 0.2356 0.3710 Uiso
H11LB H 0.5516 0.1005 0.2656 0.3710 Uiso
H6PB H 0.5955 0.2537 0.3525 0.3090 Uiso
H7PB H 0.5663 0.2408 0.3818 0.3090 Uiso
H8PB H 0.5888 0.2772 0.3883 0.3090 Uiso
H9PB H 0.6422 0.2233 0.4447 0.3710 Uiso
H10PB H 0.6301 0.2644 0.4387 0.3710 Uiso
H11PB H 0.6005 0.2344 0.4484 0.3710 Uiso
H6IC H 0.7463 0.1475 0.5955 0.3090 Uiso
H7IC H 0.7592 0.1182 0.5663 0.3090 Uiso
H8IC H 0.7228 0.1117 0.5888 0.3090 Uiso
H9IC H 0.7767 0.0553 0.6422 0.3710 Uiso
H10IC H 0.7356 0.0613 0.6301 0.3710 Uiso
H11IC H 0.7656 0.0516 0.6005 0.3710 Uiso
H6PC H 0.9045 0.2537 0.6475 0.3090 Uiso
H7PC H 0.9337 0.2408 0.6182 0.3090 Uiso
H8PC H 0.9112 0.2772 0.6117 0.3090 Uiso
H9PC H 0.8578 0.2233 0.5553 0.3710 Uiso
H10PC H 0.8699 0.2644 0.5613 0.3710 Uiso
H11PC H 0.8995 0.2344 0.5516 0.3710 Uiso
H6KC H 0.8525 0.0955 0.7537 0.3090 Uiso
H7KC H 0.8818 0.0663 0.7408 0.3090 Uiso
H8KC H 0.8883 0.0888 0.7772 0.3090 Uiso
H9KC H 0.9447 0.1422 0.7233 0.3710 Uiso
H10KC H 0.9387 0.1301 0.7644 0.3710 Uiso
H11KC H 0.9484 0.1005 0.7344 0.3710 Uiso
loop_
_atom_site_aniso_label
_atom_site_aniso_U_11
_atom_site_aniso_U_22
_atom_site_aniso_U_33
_atom_site_aniso_U_23
_atom_site_aniso_U_13
_atom_site_aniso_U_12
Cd1 0.05011(17) 0.05011(17) 0.05011(17) 0.00545(14) 0.00545(14) 0.00545(14)
N1 0.0564(17) 0.0612(17) 0.0643(18) 0.0057(14) 0.0058(14) 0.0116(14)
N2 0.0553(17) 0.0664(18) 0.0613(18) 0.0065(14) 0.0030(14) 0.0033(14)
N3 0.0483(15) 0.0580(16) 0.0665(18) 0.0081(14) 0.0042(13) 0.0086(13)
Cd2 0.06408(17) 0.06408(17) 0.06408(17) 0.00112(12) 0.00112(12) 0.00112(12)
N4 0.0568(17) 0.0675(19) 0.0677(18) 0.0007(15) -0.0004(14) 0.0053(14)
C1 0.056(2) 0.062(2) 0.0578(19) 0.0109(16) 0.0052(16) 0.0066(16)
O1 0.108(3) 0.135(3) 0.083(2) 0.004(2) -0.026(2) 0.004(2)
C2 0.0482(18) 0.067(2) 0.0567(19) 0.0021(16) 0.0050(15) 0.0038(16)
C3 0.158(9) 0.140(9) 0.115(8) -0.027(7) -0.050(7) 0.021(8)
C4 0.061(2) 0.086(3) 0.066(2) -0.015(2) -0.0096(18) 0.011(2)
C5 0.0553(19) 0.073(2) 0.057(2) -0.0014(17) -0.0070(16) 0.0077(17)
N5 0.177(10) 0.201(10) 0.174(9) 0.026(8) -0.055(8) 0.059(9)
C6 0.057(2) 0.076(2) 0.071(2) -0.0131(19) -0.0149(18) 0.0058(18)
C7 0.0554(19) 0.081(2) 0.0481(18) -0.0071(17) -0.0006(15) 0.0111(17)
C8 0.224(13) 0.223(13) 0.171(11) 0.003(10) -0.026(11) -0.008(11)
C9 0.213(15) 0.285(18) 0.244(17) -0.018(14) -0.047(13) 0.044(14)
C10 0.0462(17) 0.066(2) 0.0449(16) 0.0041(14) 0.0013(13) -0.0005(15)
Si1 0.0417(5) 0.0637(10) 0.0417(5) 0.000 0.000 0.000
N1D 0.0643 0.0564 0.0612 0.0116 0.0057 0.0058
N1H 0.0612 0.0643 0.0564 0.0058 0.0116 0.0057
N1VA 0.0564 0.0612 0.0643 0.0057 0.0058 0.0116
N1ZA 0.0643 0.0564 0.0612 0.0116 0.0057 0.0058
N1DB 0.0612 0.0643 0.0564 0.0058 0.0116 0.0057
N2D 0.0613 0.0553 0.0664 0.0033 0.0065 0.003
N3D 0.0665 0.0483 0.058 0.0086 0.0081 0.0042
N2H 0.0664 0.0613 0.0553 0.003 0.0033 0.0065
N3H 0.058 0.0665 0.0483 0.0042 0.0086 0.0081
N4D 0.0677 0.0568 0.0675 0.0053 0.0007 -0.0004
C1D 0.0578 0.056 0.062 0.0066 0.0109 0.0052
N4H 0.0675 0.0677 0.0568 -0.0004 0.0053 0.0007
C1H 0.062 0.0578 0.056 0.0052 0.0066 0.0109
O1D 0.083 0.108 0.135 0.004 0.004 -0.026
O1H 0.135 0.083 0.108 -0.026 0.004 0.004
C2D 0.0567 0.0482 0.067 0.0038 0.0021 0.005
C2H 0.067 0.0567 0.0482 0.005 0.0038 0.0021
C3D 0.115 0.158 0.14 0.021 -0.027 -0.05
C3H 0.14 0.115 0.158 -0.05 0.021 -0.027
C4D 0.066 0.061 0.086 0.011 -0.015 -0.0096
C5D 0.057 0.0553 0.073 0.0077 -0.0014 -0.007
C4H 0.086 0.066 0.061 -0.0096 0.011 -0.015
C5H 0.073 0.057 0.0553 -0.007 0.0077 -0.0014
N5D 0.174 0.177 0.201 0.059 0.026 -0.055
N5H 0.201 0.174 0.177 -0.055 0.059 0.026
C6D 0.071 0.057 0.076 0.0058 -0.0131 -0.0149
C7D 0.0481 0.0554 0.081 0.0111 -0.0071 -0.0006
C6H 0.076 0.071 0.057 -0.0149 0.0058 -0.0131
C7H 0.081 0.0481 0.0554 -0.0006 0.0111 -0.0071
C8D 0.171 0.224 0.223 -0.008 0.003 -0.026
C9D 0.244 0.213 0.285 0.044 -0.018 -0.047
C8H 0.223 0.171 0.224 -0.026 -0.008 0.003
C9H 0.285 0.244 0.213 -0.047 0.044 -0.018
C10D 0.0449 0.0462 0.066 -0.0005 0.0041 0.0013
C10H 0.066 0.0449 0.0462 0.0013 -0.0005 0.0041
Si1D 0.0417 0.0417 0.0637 0 0 0
Si1H 0.0637 0.0417 0.0417 0 0 0
C10Z 0.0462 0.066 0.0449 -0.0041 0.0013 0.0005
C10PB 0.0449 0.066 0.0462 0.0005 -0.0013 0.0041
C10PC 0.0449 0.066 0.0462 -0.0005 -0.0013 -0.0041
C10DA 0.0449 0.0462 0.066 0.0005 -0.0041 0.0013
C10MB 0.0462 0.0449 0.066 0.0041 0.0005 -0.0013
C10MC 0.0462 0.0449 0.066 -0.0041 -0.0005 -0.0013
C10HA 0.066 0.0449 0.0462 0.0013 0.0005 -0.0041
C10JB 0.066 0.0462 0.0449 -0.0013 0.0041 0.0005
C10FC 0.066 0.0462 0.0449 -0.0013 -0.0041 -0.0005
C6Z 0.057 0.076 0.071 0.0131 -0.0149 -0.0058
C7Z 0.0554 0.081 0.0481 0.0071 -0.0006 -0.0111
C6PB 0.071 0.076 0.057 -0.0058 0.0149 -0.0131
C7PB 0.0481 0.081 0.0554 -0.0111 0.0006 -0.0071
C6PC 0.071 0.076 0.057 0.0058 0.0149 0.0131
C7PC 0.0481 0.081 0.0554 0.0111 0.0006 0.0071
C6DA 0.071 0.057 0.076 -0.0058 0.0131 -0.0149
C7DA 0.0481 0.0554 0.081 -0.0111 0.0071 -0.0006
C6MB 0.057 0.071 0.076 -0.0131 -0.0058 0.0149
C7MB 0.0554 0.0481 0.081 -0.0071 -0.0111 0.0006
C6MC 0.057 0.071 0.076 0.0131 0.0058 0.0149
C7MC 0.0554 0.0481 0.081 0.0071 0.0111 0.0006
C6HA 0.076 0.071 0.057 -0.0149 -0.0058 0.0131
C7HA 0.081 0.0481 0.0554 -0.0006 -0.0111 0.0071
C6JB 0.076 0.057 0.071 0.0149 -0.0131 -0.0058
C7JB 0.081 0.0554 0.0481 0.0006 -0.0071 -0.0111
C6FC 0.076 0.057 0.071 0.0149 0.0131 0.0058
C7FC 0.081 0.0554 0.0481 0.0006 0.0071 0.0111
C4Z 0.061 0.086 0.066 0.015 -0.0096 -0.011
C5Z 0.0553 0.073 0.057 0.0014 -0.007 -0.0077
C4PB 0.066 0.086 0.061 -0.011 0.0096 -0.015
C5PB 0.057 0.073 0.0553 -0.0077 0.007 -0.0014
C4PC 0.066 0.086 0.061 0.011 0.0096 0.015
C5PC 0.057 0.073 0.0553 0.0077 0.007 0.0014
C4DA 0.066 0.061 0.086 -0.011 0.015 -0.0096
C5DA 0.057 0.0553 0.073 -0.0077 0.0014 -0.007
C4MB 0.061 0.066 0.086 -0.015 -0.011 0.0096
C5MB 0.0553 0.057 0.073 -0.0014 -0.0077 0.007
C4MC 0.061 0.066 0.086 0.015 0.011 0.0096
C5MC 0.0553 0.057 0.073 0.0014 0.0077 0.007
C4HA 0.086 0.066 0.061 -0.0096 -0.011 0.015
C5HA 0.073 0.057 0.0553 -0.007 -0.0077 0.0014
C4JB 0.086 0.061 0.066 0.0096 -0.015 -0.011
C5JB 0.073 0.0553 0.057 0.007 -0.0014 -0.0077
C4FC 0.086 0.061 0.066 0.0096 0.015 0.011
C5FC 0.073 0.0553 0.057 0.007 0.0014 0.0077
C2Z 0.0482 0.067 0.0567 -0.0021 0.005 -0.0038
C2PB 0.0567 0.067 0.0482 -0.0038 -0.005 0.0021
C2PC 0.0567 0.067 0.0482 0.0038 -0.005 -0.0021
C2DA 0.0567 0.0482 0.067 -0.0038 -0.0021 0.005
C2MB 0.0482 0.0567 0.067 0.0021 -0.0038 -0.005
C2MC 0.0482 0.0567 0.067 -0.0021 0.0038 -0.005
C2HA 0.067 0.0567 0.0482 0.005 -0.0038 -0.0021
C2JB 0.067 0.0482 0.0567 -0.005 0.0021 -0.0038
C2FC 0.067 0.0482 0.0567 -0.005 -0.0021 0.0038
C1Z 0.056 0.062 0.0578 -0.0109 0.0052 -0.0066
C1PB 0.0578 0.062 0.056 -0.0066 -0.0052 0.0109
C1PC 0.0578 0.062 0.056 0.0066 -0.0052 -0.0109
C1DA 0.0578 0.056 0.062 -0.0066 -0.0109 0.0052
C1MB 0.056 0.0578 0.062 0.0109 -0.0066 -0.0052
C1MC 0.056 0.0578 0.062 -0.0109 0.0066 -0.0052
C1HA 0.062 0.0578 0.056 0.0052 -0.0066 -0.0109
C1JB 0.062 0.056 0.0578 -0.0052 0.0109 -0.0066
C1FC 0.062 0.056 0.0578 -0.0052 -0.0109 0.0066
N4Z 0.0568 0.0675 0.0677 -0.0007 -0.0004 -0.0053
N3Z 0.0483 0.058 0.0665 -0.0081 0.0042 -0.0086
N4PB 0.0677 0.0675 0.0568 -0.0053 0.0004 0.0007
N3PB 0.0665 0.058 0.0483 -0.0086 -0.0042 0.0081
N4PC 0.0677 0.0675 0.0568 0.0053 0.0004 -0.0007
N3PC 0.0665 0.058 0.0483 0.0086 -0.0042 -0.0081
N4DA 0.0677 0.0568 0.0675 -0.0053 -0.0007 -0.0004
N3DA 0.0665 0.0483 0.058 -0.0086 -0.0081 0.0042
N4MB 0.0568 0.0677 0.0675 0.0007 -0.0053 0.0004
N3MB 0.0483 0.0665 0.058 0.0081 -0.0086 -0.0042
N4MC 0.0568 0.0677 0.0675 -0.0007 0.0053 0.0004
N3MC 0.0483 0.0665 0.058 -0.0081 0.0086 -0.0042
N4HA 0.0675 0.0677 0.0568 -0.0004 -0.0053 -0.0007
N3HA 0.058 0.0665 0.0483 0.0042 -0.0086 -0.0081
N4JB 0.0675 0.0568 0.0677 0.0004 0.0007 -0.0053
N3JB 0.058 0.0483 0.0665 -0.0042 0.0081 -0.0086
N4FC 0.0675 0.0568 0.0677 0.0004 -0.0007 0.0053
N3FC 0.058 0.0483 0.0665 -0.0042 -0.0081 0.0086
N2Z 0.0553 0.0664 0.0613 -0.0065 0.003 -0.0033
N1Z 0.0564 0.0612 0.0643 -0.0057 0.0058 -0.0116
N2PB 0.0613 0.0664 0.0553 -0.0033 -0.003 0.0065
N1PB 0.0643 0.0612 0.0564 -0.0116 -0.0058 0.0057
N2PC 0.0613 0.0664 0.0553 0.0033 -0.003 -0.0065
N1PC 0.0643 0.0612 0.0564 0.0116 -0.0058 -0.0057
N2DA 0.0613 0.0553 0.0664 -0.0033 -0.0065 0.003
N1DA 0.0643 0.0564 0.0612 -0.0116 -0.0057 0.0058
N2MB 0.0553 0.0613 0.0664 0.0065 -0.0033 -0.003
N1MB 0.0564 0.0643 0.0612 0.0057 -0.0116 -0.0058
N2MC 0.0553 0.0613 0.0664 -0.0065 0.0033 -0.003
N1MC 0.0564 0.0643 0.0612 -0.0057 0.0116 -0.0058
N2HA 0.0664 0.0613 0.0553 0.003 -0.0033 -0.0065
N1HA 0.0612 0.0643 0.0564 0.0058 -0.0116 -0.0057
N2JB 0.0664 0.0553 0.0613 -0.003 0.0065 -0.0033
N1JB 0.0612 0.0564 0.0643 -0.0058 0.0057 -0.0116
N2FC 0.0664 0.0553 0.0613 -0.003 -0.0065 0.0033
N1FC 0.0612 0.0564 0.0643 -0.0058 -0.0057 0.0116
Cd2Z 0.06408 0.06408 0.06408 -0.00112 0.00112 -0.00112
Cd1Z 0.05011 0.05011 0.05011 -0.00545 0.00545 -0.00545
Cd2HB 0.06408 0.06408 0.06408 -0.00112 -0.00112 0.00112
Cd1JA 0.05011 0.05011 0.05011 -0.00545 -0.00545 0.00545
Cd2IC 0.06408 0.06408 0.06408 0.00112 -0.00112 -0.00112
Cd1O 0.05011 0.05011 0.05011 0.00545 -0.00545 -0.00545
Cd2Y 0.06408 0.06408 0.06408 -0.00112 -0.00112 0.00112
Cd1Y 0.05011 0.05011 0.05011 -0.00545 -0.00545 0.00545
Cd2KB 0.06408 0.06408 0.06408 0.00112 -0.00112 -0.00112
Cd1MA 0.05011 0.05011 0.05011 0.00545 -0.00545 -0.00545
Cd2HC 0.06408 0.06408 0.06408 -0.00112 0.00112 -0.00112
Cd1N 0.05011 0.05011 0.05011 -0.00545 0.00545 -0.00545
Cd2AA 0.06408 0.06408 0.06408 0.00112 -0.00112 -0.00112
Cd1AA 0.05011 0.05011 0.05011 0.00545 -0.00545 -0.00545
Cd2JB 0.06408 0.06408 0.06408 -0.00112 0.00112 -0.00112
Cd1LA 0.05011 0.05011 0.05011 -0.00545 0.00545 -0.00545
Cd2FC 0.06408 0.06408 0.06408 -0.00112 -0.00112 0.00112
Cd1L 0.05011 0.05011 0.05011 -0.00545 -0.00545 0.00545
O1Z 0.108 0.135 0.083 -0.004 -0.026 -0.004
O1EA 0.083 0.108 0.135 -0.004 0.004 0.026
O1GA 0.135 0.083 0.108 0.026 0.004 -0.004
N2EA 0.0613 0.0553 0.0664 -0.0033 0.0065 -0.003
N2GA 0.0664 0.0613 0.0553 -0.003 0.0033 -0.0065
O1HB 0.135 0.108 0.083 0.026 -0.004 0.004
O1LB 0.108 0.083 0.135 -0.004 -0.004 -0.026
O1PB 0.083 0.135 0.108 -0.004 0.026 0.004
N2HB 0.0664 0.0553 0.0613 -0.003 -0.0065 0.0033
N2LB 0.0553 0.0613 0.0664 -0.0065 -0.0033 0.003
O1IC 0.135 0.108 0.083 -0.026 -0.004 -0.004
O1PC 0.083 0.135 0.108 0.004 0.026 -0.004
O1KC 0.108 0.083 0.135 0.004 -0.004 0.026
N2IC 0.0664 0.0553 0.0613 0.003 -0.0065 -0.0033
N2KC 0.0553 0.0613 0.0664 0.0065 -0.0033 -0.003
N1O 0.0612 0.0564 0.0643 0.0058 -0.0057 -0.0116
N1Q 0.0564 0.0643 0.0612 0.0057 -0.0116 -0.0058
N1V 0.0643 0.0612 0.0564 0.0116 -0.0058 -0.0057
N1IC 0.0612 0.0564 0.0643 0.0058 -0.0057 -0.0116
N1KC 0.0564 0.0643 0.0612 0.0057 -0.0116 -0.0058
C3Z 0.158 0.14 0.115 0.027 -0.05 -0.021
C3EA 0.115 0.158 0.14 -0.021 -0.027 0.05
C3GA 0.14 0.115 0.158 0.05 0.021 0.027
C3HB 0.14 0.158 0.115 0.05 0.027 0.021
C3LB 0.158 0.115 0.14 0.027 -0.021 -0.05
C3PB 0.115 0.14 0.158 -0.021 0.05 -0.027
C3IC 0.14 0.158 0.115 -0.05 0.027 -0.021
C3PC 0.115 0.14 0.158 0.021 0.05 0.027
C3KC 0.158 0.115 0.14 -0.027 -0.021 0.05
N5Z 0.177 0.201 0.174 -0.026 -0.055 -0.059
N5EA 0.174 0.177 0.201 -0.059 0.026 0.055
N5GA 0.201 0.174 0.177 0.055 0.059 -0.026
N5HB 0.201 0.177 0.174 0.055 -0.026 0.059
N5LB 0.177 0.174 0.201 -0.026 -0.059 -0.055
N5PB 0.174 0.201 0.177 -0.059 0.055 0.026
N5IC 0.201 0.177 0.174 -0.055 -0.026 -0.059
N5PC 0.174 0.201 0.177 0.059 0.055 -0.026
N5KC 0.177 0.174 0.201 0.026 -0.059 0.055
C8Z 0.224 0.223 0.171 -0.003 -0.026 0.008
C9Z 0.213 0.285 0.244 0.018 -0.047 -0.044
C8EA 0.171 0.224 0.223 0.008 0.003 0.026
C9EA 0.244 0.213 0.285 -0.044 -0.018 0.047
C8GA 0.223 0.171 0.224 0.026 -0.008 -0.003
C9GA 0.285 0.244 0.213 0.047 0.044 0.018
C8HB 0.223 0.224 0.171 0.026 -0.003 -0.008
C9HB 0.285 0.213 0.244 0.047 0.018 0.044
C8LB 0.224 0.171 0.223 -0.003 0.008 -0.026
C9LB 0.213 0.244 0.285 0.018 -0.044 -0.047
C8PB 0.171 0.223 0.224 0.008 0.026 0.003
C9PB 0.244 0.285 0.213 -0.044 0.047 -0.018
C8IC 0.223 0.224 0.171 -0.026 -0.003 0.008
C9IC 0.285 0.213 0.244 -0.047 0.018 -0.044
C8PC 0.171 0.223 0.224 -0.008 0.026 -0.003
C9PC 0.244 0.285 0.213 0.044 0.047 0.018
C8KC 0.224 0.171 0.223 0.003 0.008 0.026
C9KC 0.213 0.244 0.285 -0.018 -0.044 0.047
loop_
_geom_bond_atom_site_label_1
_geom_bond_atom_site_label_2
_geom_bond_site_symmetry_1
_geom_bond_site_symmetry_2
Cd1 N1 1_555 1_555
N1 N2 1_555 1_555
N2 Cd2 1_555 1_555
N3 N1 1_555 1_555
Cd2 O1 1_555 1_555
N4 N2 1_555 1_555
C1 N3 1_555 1_555
O1 C3 1_555 1_555
C2 C1 1_555 1_555
C3 H1 1_555 1_555
C4 C2 1_555 1_555
C5 C2 1_555 1_555
N5 C3 1_555 1_555
H2 C4 1_555 1_555
C6 C4 1_555 1_555
C7 C5 1_555 1_555
H3 C5 1_555 1_555
C8 N5 1_555 1_555
C9 N5 1_555 1_555
H4 C6 1_555 1_555
C10 C6 1_555 1_555
H5 C7 1_555 1_555
H6 C8 1_555 1_555
H7 C8 1_555 1_555
H8 C8 1_555 1_555
H9 C9 1_555 1_555
H10 C9 1_555 1_555
H11 C9 1_555 1_555
Si1 C10 1_555 1_555
N1D Cd1 1_555 1_555
N1H Cd1 1_555 1_555
N1VA Cd1 1_555 1_555
N1ZA Cd1 1_555 1_555
N1DB Cd1 1_555 1_555
N2D Cd2 1_555 1_555
N3D N1D 1_555 1_555
N2H Cd2 1_555 1_555
N3H N1H 1_555 1_555
N4D N2D 1_555 1_555
C1D N3D 1_555 1_555
N4H N2H 1_555 1_555
C1H N3H 1_555 1_555
O1D Cd2 1_555 1_555
O1H Cd2 1_555 1_555
C2D C1D 1_555 1_555
C2H C1H 1_555 1_555
C3D O1D 1_555 1_555
C3H O1H 1_555 1_555
C4D C2D 1_555 1_555
C5D C2D 1_555 1_555
C4H C2H 1_555 1_555
C5H C2H 1_555 1_555
H1D C3D 1_555 1_555
N5D C3D 1_555 1_555
H1H C3H 1_555 1_555
N5H C3H 1_555 1_555
H2D C4D 1_555 1_555
C6D C4D 1_555 1_555
C7D C5D 1_555 1_555
H3D C5D 1_555 1_555
H2H C4H 1_555 1_555
C6H C4H 1_555 1_555
C7H C5H 1_555 1_555
H3H C5H 1_555 1_555
C8D N5D 1_555 1_555
C9D N5D 1_555 1_555
C8H N5H 1_555 1_555
C9H N5H 1_555 1_555
H4D C6D 1_555 1_555
C10D C6D 1_555 1_555
H5D C7D 1_555 1_555
H4H C6H 1_555 1_555
C10H C6H 1_555 1_555
H5H C7H 1_555 1_555
H6D C8D 1_555 1_555
H7D C8D 1_555 1_555
H8D C8D 1_555 1_555
H9D C9D 1_555 1_555
H10D C9D 1_555 1_555
H11D C9D 1_555 1_555
H6H C8H 1_555 1_555
H7H C8H 1_555 1_555
H8H C8H 1_555 1_555
H9H C9H 1_555 1_555
H10H C9H 1_555 1_555
H11H C9H 1_555 1_555
Si1D C10D 1_555 1_555
Si1H C10H 1_555 1_555
C10Z Si1 1_555 1_555
C10PB Si1 1_555 1_555
C10PC Si1 1_555 1_555
C10DA Si1D 1_555 1_555
C10MB Si1D 1_555 1_555
C10MC Si1D 1_555 1_555
C10HA Si1H 1_555 1_555
C10JB Si1H 1_555 1_555
C10FC Si1H 1_555 1_555
C6Z C10Z 1_555 1_555
C7Z C10Z 1_555 1_555
C6PB C10PB 1_555 1_555
C7PB C10PB 1_555 1_555
C6PC C10PC 1_555 1_555
C7PC C10PC 1_555 1_555
C6DA C10DA 1_555 1_555
C7DA C10DA 1_555 1_555
C6MB C10MB 1_555 1_555
C7MB C10MB 1_555 1_555
C6MC C10MC 1_555 1_555
C7MC C10MC 1_555 1_555
C6HA C10HA 1_555 1_555
C7HA C10HA 1_555 1_555
C6JB C10JB 1_555 1_555
C7JB C10JB 1_555 1_555
C6FC C10FC 1_555 1_555
C7FC C10FC 1_555 1_555
C4Z C6Z 1_555 1_555
H4Z C6Z 1_555 1_555
H5Z C7Z 1_555 1_555
C5Z C7Z 1_555 1_555
C4PB C6PB 1_555 1_555
H4PB C6PB 1_555 1_555
H5PB C7PB 1_555 1_555
C5PB C7PB 1_555 1_555
C4PC C6PC 1_555 1_555
H4PC C6PC 1_555 1_555
H5PC C7PC 1_555 1_555
C5PC C7PC 1_555 1_555
C4DA C6DA 1_555 1_555
H4DA C6DA 1_555 1_555
H5DA C7DA 1_555 1_555
C5DA C7DA 1_555 1_555
C4MB C6MB 1_555 1_555
H4MB C6MB 1_555 1_555
H5MB C7MB 1_555 1_555
C5MB C7MB 1_555 1_555
C4MC C6MC 1_555 1_555
H4MC C6MC 1_555 1_555
H5MC C7MC 1_555 1_555
C5MC C7MC 1_555 1_555
C4HA C6HA 1_555 1_555
H4HA C6HA 1_555 1_555
H5HA C7HA 1_555 1_555
C5HA C7HA 1_555 1_555
C4JB C6JB 1_555 1_555
H4JB C6JB 1_555 1_555
H5JB C7JB 1_555 1_555
C5JB C7JB 1_555 1_555
C4FC C6FC 1_555 1_555
H4FC C6FC 1_555 1_555
H5FC C7FC 1_555 1_555
C5FC C7FC 1_555 1_555
C2Z C4Z 1_555 1_555
H2Z C4Z 1_555 1_555
H3Z C5Z 1_555 1_555
C2PB C4PB 1_555 1_555
H2PB C4PB 1_555 1_555
H3PB C5PB 1_555 1_555
C2PC C4PC 1_555 1_555
H2PC C4PC 1_555 1_555
H3PC C5PC 1_555 1_555
C2DA C4DA 1_555 1_555
H2DA C4DA 1_555 1_555
H3DA C5DA 1_555 1_555
C2MB C4MB 1_555 1_555
H2MB C4MB 1_555 1_555
H3MB C5MB 1_555 1_555
C2MC C4MC 1_555 1_555
H2MC C4MC 1_555 1_555
H3MC C5MC 1_555 1_555
C2HA C4HA 1_555 1_555
H2HA C4HA 1_555 1_555
H3HA C5HA 1_555 1_555
C2JB C4JB 1_555 1_555
H2JB C4JB 1_555 1_555
H3JB C5JB 1_555 1_555
C2FC C4FC 1_555 1_555
H2FC C4FC 1_555 1_555
H3FC C5FC 1_555 1_555
C1Z C2Z 1_555 1_555
C1PB C2PB 1_555 1_555
C1PC C2PC 1_555 1_555
C1DA C2DA 1_555 1_555
C1MB C2MB 1_555 1_555
C1MC C2MC 1_555 1_555
C1HA C2HA 1_555 1_555
C1JB C2JB 1_555 1_555
C1FC C2FC 1_555 1_555
N4Z C1Z 1_555 1_555
N3Z C1Z 1_555 1_555
N4PB C1PB 1_555 1_555
N3PB C1PB 1_555 1_555
N4PC C1PC 1_555 1_555
N3PC C1PC 1_555 1_555
N4DA C1DA 1_555 1_555
N3DA C1DA 1_555 1_555
N4MB C1MB 1_555 1_555
N3MB C1MB 1_555 1_555
N4MC C1MC 1_555 1_555
N3MC C1MC 1_555 1_555
N4HA C1HA 1_555 1_555
N3HA C1HA 1_555 1_555
N4JB C1JB 1_555 1_555
N3JB C1JB 1_555 1_555
N4FC C1FC 1_555 1_555
N3FC C1FC 1_555 1_555
N2Z N4Z 1_555 1_555
N1Z N3Z 1_555 1_555
N2PB N4PB 1_555 1_555
N1PB N3PB 1_555 1_555
N2PC N4PC 1_555 1_555
N1PC N3PC 1_555 1_555
N2DA N4DA 1_555 1_555
N1DA N3DA 1_555 1_555
N2MB N4MB 1_555 1_555
N1MB N3MB 1_555 1_555
N2MC N4MC 1_555 1_555
N1MC N3MC 1_555 1_555
N2HA N4HA 1_555 1_555
N1HA N3HA 1_555 1_555
N2JB N4JB 1_555 1_555
N1JB N3JB 1_555 1_555
N2FC N4FC 1_555 1_555
N1FC N3FC 1_555 1_555
Cd2Z N2Z 1_555 1_555
Cd1Z N1Z 1_555 1_555
Cd2HB N2PB 1_555 1_555
Cd1JA N1PB 1_555 1_555
Cd2IC N2PC 1_555 1_555
Cd1O N1PC 1_555 1_555
Cd2Y N2DA 1_555 1_555
Cd1Y N1DA 1_555 1_555
Cd2KB N2MB 1_555 1_555
Cd1MA N1MB 1_555 1_555
Cd2HC N2MC 1_555 1_555
Cd1N N1MC 1_555 1_555
Cd2AA N2HA 1_555 1_555
Cd1AA N1HA 1_555 1_555
Cd2JB N2JB 1_555 1_555
Cd1LA N1JB 1_555 1_555
Cd2FC N2FC 1_555 1_555
Cd1L N1FC 1_555 1_555
O1Z Cd2Z 1_555 1_555
O1EA Cd2Z 1_555 1_555
O1GA Cd2Z 1_555 1_555
N2EA Cd2Z 1_555 1_555
N2GA Cd2Z 1_555 1_555
O1HB Cd2HB 1_555 1_555
O1LB Cd2HB 1_555 1_555
O1PB Cd2HB 1_555 1_555
N2HB Cd2HB 1_555 1_555
N2LB Cd2HB 1_555 1_555
O1IC Cd2IC 1_555 1_555
O1PC Cd2IC 1_555 1_555
O1KC Cd2IC 1_555 1_555
N2IC Cd2IC 1_555 1_555
N2KC Cd2IC 1_555 1_555
N1O Cd1O 1_555 1_555
N1Q Cd1O 1_555 1_555
N1V Cd1O 1_555 1_555
N1IC Cd1O 1_555 1_555
N1KC Cd1O 1_555 1_555
C3Z O1Z 1_555 1_555
C3EA O1EA 1_555 1_555
C3GA O1GA 1_555 1_555
C3HB O1HB 1_555 1_555
C3LB O1LB 1_555 1_555
C3PB O1PB 1_555 1_555
C3IC O1IC 1_555 1_555
C3PC O1PC 1_555 1_555
C3KC O1KC 1_555 1_555
H1Z C3Z 1_555 1_555
N5Z C3Z 1_555 1_555
H1EA C3EA 1_555 1_555
N5EA C3EA 1_555 1_555
H1GA C3GA 1_555 1_555
N5GA C3GA 1_555 1_555
H1HB C3HB 1_555 1_555
N5HB C3HB 1_555 1_555
H1LB C3LB 1_555 1_555
N5LB C3LB 1_555 1_555
H1PB C3PB 1_555 1_555
N5PB C3PB 1_555 1_555
H1IC C3IC 1_555 1_555
N5IC C3IC 1_555 1_555
H1PC C3PC 1_555 1_555
N5PC C3PC 1_555 1_555
H1KC C3KC 1_555 1_555
N5KC C3KC 1_555 1_555
C8Z N5Z 1_555 1_555
C9Z N5Z 1_555 1_555
C8EA N5EA 1_555 1_555
C9EA N5EA 1_555 1_555
C8GA N5GA 1_555 1_555
C9GA N5GA 1_555 1_555
C8HB N5HB 1_555 1_555
C9HB N5HB 1_555 1_555
C8LB N5LB 1_555 1_555
C9LB N5LB 1_555 1_555
C8PB N5PB 1_555 1_555
C9PB N5PB 1_555 1_555
C8IC N5IC 1_555 1_555
C9IC N5IC 1_555 1_555
C8PC N5PC 1_555 1_555
C9PC N5PC 1_555 1_555
C8KC N5KC 1_555 1_555
C9KC N5KC 1_555 1_555
H6Z C8Z 1_555 1_555
H7Z C8Z 1_555 1_555
H8Z C8Z 1_555 1_555
H9Z C9Z 1_555 1_555
H10Z C9Z 1_555 1_555
H11Z C9Z 1_555 1_555
H6EA C8EA 1_555 1_555
H7EA C8EA 1_555 1_555
H8EA C8EA 1_555 1_555
H9EA C9EA 1_555 1_555
H10EA C9EA 1_555 1_555
H11EA C9EA 1_555 1_555
H6GA C8GA 1_555 1_555
H7GA C8GA 1_555 1_555
H8GA C8GA 1_555 1_555
H9GA C9GA 1_555 1_555
H10GA C9GA 1_555 1_555
H11GA C9GA 1_555 1_555
H6HB C8HB 1_555 1_555
H7HB C8HB 1_555 1_555
H8HB C8HB 1_555 1_555
H9HB C9HB 1_555 1_555
H10HB C9HB 1_555 1_555
H11HB C9HB 1_555 1_555
H6LB C8LB 1_555 1_555
H7LB C8LB 1_555 1_555
H8LB C8LB 1_555 1_555
H9LB C9LB 1_555 1_555
H10LB C9LB 1_555 1_555
H11LB C9LB 1_555 1_555
H6PB C8PB 1_555 1_555
H7PB C8PB 1_555 1_555
H8PB C8PB 1_555 1_555
H9PB C9PB 1_555 1_555
H10PB C9PB 1_555 1_555
H11PB C9PB 1_555 1_555
H6IC C8IC 1_555 1_555
H7IC C8IC 1_555 1_555
H8IC C8IC 1_555 1_555
H9IC C9IC 1_555 1_555
H10IC C9IC 1_555 1_555
H11IC C9IC 1_555 1_555
H6PC C8PC 1_555 1_555
H7PC C8PC 1_555 1_555
H8PC C8PC 1_555 1_555
H9PC C9PC 1_555 1_555
H10PC C9PC 1_555 1_555
H11PC C9PC 1_555 1_555
H6KC C8KC 1_555 1_555
H7KC C8KC 1_555 1_555
H8KC C8KC 1_555 1_555
H9KC C9KC 1_555 1_555
H10KC C9KC 1_555 1_555
H11KC C9KC 1_555 1_555
N4 C1 1_555 1_555
C7 C10 1_555 1_555
N1D N2D 1_555 1_555
N1H N2H 1_555 1_555
N4D C1D 1_555 1_555
N4H C1H 1_555 1_555
C7D C10D 1_555 1_555
C7H C10H 1_555 1_555
C5Z C2Z 1_555 1_555
C5PB C2PB 1_555 1_555
C5PC C2PC 1_555 1_555
C5DA C2DA 1_555 1_555
C5MB C2MB 1_555 1_555
C5MC C2MC 1_555 1_555
C5HA C2HA 1_555 1_555
C5JB C2JB 1_555 1_555
C5FC C2FC 1_555 1_555
N2Z N1Z 1_555 1_555
N2PB N1PB 1_555 1_555
N2PC N1PC 1_555 1_555
N2DA N1DA 1_555 1_555
N2MB N1MB 1_555 1_555
N2MC N1MC 1_555 1_555
N2HA N1HA 1_555 1_555
N2JB N1JB 1_555 1_555
N2FC N1FC 1_555 1_555
N2IC N1IC 1_555 1_555
N2KC N1KC 1_555 1_555

#END
