
#######################################################################
#
#                 Cambridge Crystallographic Data Centre
#                                CCDC 
#
#######################################################################
#
# If this CIF has been generated from an entry in the Cambridge 
# Structural Database, then it will include bibliographic, chemical, 
# crystal, experimental, refinement or atomic coordinate data resulting 
# from the CCDC's data processing and validation procedures.
#
#######################################################################

data_HARHUG
_chemical_formula_moiety         '(C60 H56 K2 N5 O26 Zn3 1-)n'
_symmetry_cell_setting           monoclinic
_symmetry_space_group_name_H-M   'C 2/c'
_symmetry_Int_Tables_number      15
_space_group_name_Hall           '-C 2yc'
loop_
_symmetry_equiv_pos_site_id
_symmetry_equiv_pos_as_xyz
1 x,y,z
2 -x,y,1/2-z
3 1/2+x,1/2+y,z
4 1/2-x,1/2+y,1/2-z
5 -x,-y,-z
6 x,-y,1/2+z
7 1/2-x,1/2-y,-z
8 1/2+x,1/2-y,1/2+z
_cell_length_a                   29.243(6)
_cell_length_b                   10.394(2)
_cell_length_c                   26.164(5)
_cell_angle_alpha                90
_cell_angle_beta                 114.57(3)
_cell_angle_gamma                90
_cell_volume                     7232.52
loop_
_atom_site_label
_atom_site_type_symbol
_atom_site_fract_x
_atom_site_fract_y
_atom_site_fract_z
Zn1 Zn -0.0000 -0.88383(13) 0.2500
Zn2 Zn -0.17910(3) -0.37175(9) 0.25307(3)
K1 K -0.22617(7) -0.63575(19) 0.31349(8)
O1 O 0.1082(9) -1.2080(19) 0.2746(9)
O2 O 0.1861(2) -1.2667(7) 0.3131(2)
O3 O 0.0666(2) -0.9660(7) 0.2863(2)
O4 O 0.0326(2) -1.0920(7) 0.3285(3)
O5 O 0.2035(3) -0.6108(7) 0.6709(3)
O6 O 0.1960(2) -0.7906(7) 0.7085(2)
O7 O 0.27901(19) -0.9800(5) 0.7089(2)
O8 O 0.2121(2) -1.1080(6) 0.6788(2)
O9 O 0.0061(3) -0.7970(7) 0.3192(2)
O10 O -0.0552(2) -0.6642(7) 0.2697(2)
O11 O -0.1115(2) -0.4292(6) 0.3032(2)
O12 O -0.1355(2) -0.6302(6) 0.3113(3)
C1 C 0.1767(3) -0.9999(8) 0.4674(3)
C2 C 0.1308(3) -0.9922(8) 0.4208(3)
H1 H 0.1057 -0.9395 0.4225
C3 C 0.1212(3) -1.0605(8) 0.3721(3)
C4 C 0.1583(3) -1.1381(7) 0.3683(3)
C5 C 0.2045(3) -1.1464(9) 0.4146(3)
H2 H 0.2297 -1.1979 0.4126
C6 C 0.2136(3) -1.0792(10) 0.4636(3)
H3 H 0.2446 -1.0871 0.4942
C7 C 0.0694(3) -1.0412(8) 0.3250(3)
C8 C 0.1490(3) -1.2181(8) 0.3176(3)
C9 C 0.1853(3) -0.9295(8) 0.5197(3)
C10 C 0.2048(3) -0.9947(8) 0.5715(3)
H4 H 0.2126 -1.0816 0.5725
C11 C 0.2124(3) -0.9317(7) 0.6208(3)
C12 C 0.1998(3) -0.8016(7) 0.6201(3)
C13 C 0.1812(4) -0.7368(9) 0.5687(3)
H5 H 0.1736 -0.6497 0.5675
C14 C 0.1740(4) -0.8003(9) 0.5195(3)
H6 H 0.1613 -0.7553 0.4857
C15 C 0.2338(3) -1.0127(7) 0.6735(3)
C16 C 0.2003(3) -0.7313(9) 0.6696(3)
C17 C -0.0033(3) -0.5300(8) 0.4727(3)
C18 C -0.0469(3) -0.5082(7) 0.4237(3)
H7 H -0.0719 -0.4549 0.4253
C19 C -0.0538(3) -0.5647(8) 0.3727(3)
C20 C -0.0174(3) -0.6447(8) 0.3694(3)
C21 C 0.0256(3) -0.6637(10) 0.4172(4)
H8 H 0.0505 -0.7163 0.4153
C22 C 0.0334(3) -0.6085(10) 0.4679(3)
H9 H 0.0634 -0.6235 0.4992
C23 C -0.1048(3) -0.5409(8) 0.3238(3)
C24 C -0.0233(3) -0.7043(8) 0.3146(3)
O13 O -0.1775(4) -0.6322(11) 0.4284(5)
N1 N -0.1116(5) -0.6948(14) 0.5027(6)
C25 C -0.1386(7) -0.6905(18) 0.4495(8)
H10 H -0.1274 -0.7348 0.4261
C26 C -0.0667(6) -0.7611(17) 0.5305(7)
H11 H -0.0545 -0.7909 0.5038
H12 H -0.0724 -0.8334 0.5500
H13 H -0.0423 -0.7048 0.5571
C27 C -0.1258(7) -0.6222(17) 0.5396(7)
H14 H -0.1618 -0.6196 0.5252
H15 H -0.1130 -0.5362 0.5424
H16 H -0.1122 -0.6616 0.5761
O9D O -0.0061(3) -0.2030(7) 0.6808(2)
O10D O 0.0552(2) -0.3358(7) 0.7303(2)
O11D O 0.1115(2) -0.5708(6) 0.6968(2)
O12D O 0.1355(2) -0.3698(6) 0.6887(3)
C17D C 0.0033(3) -0.4700(8) 0.5273(3)
C18D C 0.0469(3) -0.4918(7) 0.5763(3)
H7D H 0.0719 -0.5451 0.5747
C19D C 0.0538(3) -0.4353(8) 0.6273(3)
C20D C 0.0174(3) -0.3553(8) 0.6306(3)
C21D C -0.0256(3) -0.3363(10) 0.5828(4)
H8D H -0.0505 -0.2837 0.5847
C22D C -0.0334(3) -0.3915(10) 0.5321(3)
H9D H -0.0634 -0.3765 0.5008
C23D C 0.1048(3) -0.4591(8) 0.6762(3)
C24D C 0.0233(3) -0.2957(8) 0.6854(3)
O1A O -0.1082(9) -1.2080(19) 0.2254(9)
O2A O -0.1861(2) -1.2667(7) 0.1869(2)
O3A O -0.0666(2) -0.9660(7) 0.2137(2)
O4A O -0.0326(2) -1.0920(7) 0.1715(3)
O5A O -0.2035(3) -0.6108(7) -0.1709(3)
O6A O -0.1960(2) -0.7906(7) -0.2085(2)
O7A O -0.27901(19) -0.9800(5) -0.2089(2)
O8A O -0.2121(2) -1.1080(6) -0.1788(2)
C1A C -0.1767(3) -0.9999(8) 0.0326(3)
C2A C -0.1308(3) -0.9922(8) 0.0792(3)
H1A H -0.1057 -0.9395 0.0775
C3A C -0.1212(3) -1.0605(8) 0.1279(3)
C4A C -0.1583(3) -1.1381(7) 0.1317(3)
C5A C -0.2045(3) -1.1464(9) 0.0854(3)
H2A H -0.2297 -1.1979 0.0874
C6A C -0.2136(3) -1.0792(10) 0.0364(3)
H3A H -0.2446 -1.0871 0.0058
C7A C -0.0694(3) -1.0412(8) 0.1750(3)
C8A C -0.1490(3) -1.2181(8) 0.1824(3)
C9A C -0.1853(3) -0.9295(8) -0.0197(3)
C10A C -0.2048(3) -0.9947(8) -0.0715(3)
H4A H -0.2126 -1.0816 -0.0725
C11A C -0.2124(3) -0.9317(7) -0.1208(3)
C12A C -0.1998(3) -0.8016(7) -0.1201(3)
C13A C -0.1812(4) -0.7368(9) -0.0687(3)
H5A H -0.1736 -0.6497 -0.0675
C14A C -0.1740(4) -0.8003(9) -0.0195(3)
H6A H -0.1613 -0.7553 0.0143
C15A C -0.2338(3) -1.0127(7) -0.1735(3)
C16A C -0.2003(3) -0.7313(9) -0.1696(3)
K1B K 0.27383(7) -1.13575(19) 0.31349(8)
O13B O 0.3225(4) -1.1322(11) 0.4284(5)
N1B N 0.3884(5) -1.1948(14) 0.5027(6)
C25B C 0.3614(7) -1.1905(18) 0.4495(8)
H10B H 0.3726 -1.2348 0.4261
C26B C 0.4333(6) -1.2611(17) 0.5305(7)
H11B H 0.4455 -1.2909 0.5038
H12B H 0.4276 -1.3334 0.5500
H13B H 0.4577 -1.2048 0.5571
C27B C 0.3742(7) -1.1222(17) 0.5396(7)
H14B H 0.3382 -1.1196 0.5252
H15B H 0.3870 -1.0362 0.5424
H16B H 0.3878 -1.1616 0.5761
Zn2A Zn 0.17910(3) -1.37175(9) 0.24693(3)
Zn1D Zn -0.0000 -0.11617(13) 0.7500
Zn2_2 Zn -0.17910(3) -1.37175(9) 0.25307(3)
Zn2D Zn 0.17910(3) -0.62825(9) 0.74693(3)
Zn2E Zn -0.17910(3) -0.62825(9) -0.24693(3)
Zn2F Zn -0.32090(3) -1.12825(9) -0.25307(3)
Zn2G Zn 0.32090(3) -1.12825(9) 0.75307(3)
K1C K -0.27383(7) -1.13575(19) 0.18651(8)
K1D K 0.22617(7) -1.36425(19) 0.68651(8)
K1D_2 K 0.22617(7) -0.36425(19) 0.68651(8)
K1E K -0.22617(7) -1.36425(19) -0.18651(8)
K1E_2 K -0.22617(7) -0.36425(19) -0.18651(8)
K1F K -0.27383(7) -0.86425(19) -0.31349(8)
K1G K 0.27383(7) -0.86425(19) 0.81349(8)
O2A_2 O -0.1861(2) -0.2667(7) 0.1869(2)
O2B O -0.3139(2) -0.7667(7) 0.3131(2)
O5D O -0.2035(3) -0.3892(7) 0.3291(3)
O5E O 0.2035(3) -1.3892(7) 0.1709(3)
O5F O 0.2965(3) -0.8892(7) 0.3291(3)
O6D O -0.1960(2) -0.2094(7) 0.2915(2)
O6E O 0.1960(2) -1.2094(7) 0.2085(2)
O6G O -0.3040(2) -0.7094(7) 0.2085(2)
O7E O 0.27901(19) -1.0200(5) 0.2089(2)
O7F O 0.22099(19) -1.5200(5) 0.2911(2)
O7G O -0.22099(19) -0.5200(5) 0.2089(2)
O8D O -0.2121(2) -0.8920(6) 0.3212(2)
O8F O 0.2879(2) -1.3920(6) 0.3212(2)
O9A O -0.0061(3) -0.7970(7) 0.1808(2)
O11A O 0.1115(2) -1.4292(6) 0.1968(2)
O12B O 0.3645(2) -1.1302(6) 0.3113(3)
N2 N -0.0668(8) -0.075(2) 0.3317(9)
H17 H -0.0859 -0.1133 0.2989
H18 H -0.0367 -0.0553 0.3318
C28 C -0.0892(10) 0.031(3) 0.3389(11)
H19 H -0.1165 0.0066 0.3483
H20 H -0.1020 0.0801 0.3048
H21 H -0.0654 0.0814 0.3688
C29 C -0.0614(10) -0.149(3) 0.3745(11)
H22 H -0.0574 -0.0964 0.4063
H23 H -0.0322 -0.2020 0.3837
H24 H -0.0906 -0.2022 0.3647
N3 N 0.1542(5) -0.7080(14) 0.3024(6)
H25 H 0.1740 -0.6490 0.2964
H26 H 0.1237 -0.7016 0.2736
C30 C 0.1489(6) -0.6712(17) 0.3512(7)
H27 H 0.1214 -0.7174 0.3535
H28 H 0.1424 -0.5805 0.3499
H29 H 0.1793 -0.6905 0.3835
C31 C 0.1740(6) -0.8327(16) 0.2986(7)
H30 H 0.2065 -0.8433 0.3291
H31 H 0.1770 -0.8398 0.2636
H32 H 0.1517 -0.8983 0.3007
N4 N -0.0000 0.694(2) 0.2500
H33 H -0.0272 0.7453 0.2382
C32 C 0.0014(7) 0.6246(19) 0.2970(8)
H34 H -0.0285 0.5735 0.2862
H35 H 0.0034 0.6837 0.3260
H36 H 0.0304 0.5694 0.3107
H33A H 0.0272 0.7453 0.2618
C32A C -0.0014(7) 0.6246(19) 0.2030(8)
H34A H 0.0285 0.5735 0.2138
H35A H -0.0034 0.6837 0.1740
H36A H -0.0304 0.5694 0.1893
loop_
_geom_bond_atom_site_label_1
_geom_bond_atom_site_label_2
_geom_bond_site_symmetry_1
_geom_bond_site_symmetry_2
Zn1 O3 1_555 1_555
Zn2 O11 1_555 1_555
K1 O12 1_555 1_555
O1 C8 1_555 1_555
O2 C8 1_555 1_555
O3 C7 1_555 1_555
O4 C7 1_555 1_555
O5 C16 1_555 1_555
O6 C16 1_555 1_555
O7 C15 1_555 1_555
O8 C15 1_555 1_555
O9 Zn1 1_555 1_555
O10 C24 1_555 1_555
O11 C23 1_555 1_555
O12 C23 1_555 1_555
C1 C2 1_555 1_555
C2 H1 1_555 1_555
C3 C2 1_555 1_555
C4 C3 1_555 1_555
C5 C4 1_555 1_555
H2 C5 1_555 1_555
C6 C1 1_555 1_555
H3 C6 1_555 1_555
C7 C3 1_555 1_555
C8 C4 1_555 1_555
C9 C1 1_555 1_555
C10 C9 1_555 1_555
H4 C10 1_555 1_555
C11 C10 1_555 1_555
C12 C11 1_555 1_555
C13 C12 1_555 1_555
H5 C13 1_555 1_555
C14 C9 1_555 1_555
H6 C14 1_555 1_555
C15 C11 1_555 1_555
C16 C12 1_555 1_555
C17 C18 1_555 1_555
C18 H7 1_555 1_555
C19 C18 1_555 1_555
C20 C19 1_555 1_555
C21 C20 1_555 1_555
H8 C21 1_555 1_555
C22 C17 1_555 1_555
H9 C22 1_555 1_555
C23 C19 1_555 1_555
C24 O9 1_555 1_555
O13 K1 1_555 1_555
N1 C25 1_555 1_555
C25 O13 1_555 1_555
H10 C25 1_555 1_555
C26 N1 1_555 1_555
H11 C26 1_555 1_555
H12 C26 1_555 1_555
H13 C26 1_555 1_555
C27 N1 1_555 1_555
H14 C27 1_555 1_555
H15 C27 1_555 1_555
H16 C27 1_555 1_555
N2 H17 1_555 1_555
H18 N2 1_555 1_555
C28 N2 1_555 1_555
H19 C28 1_555 1_555
H20 C28 1_555 1_555
H21 C28 1_555 1_555
C29 N2 1_555 1_555
H22 C29 1_555 1_555
H23 C29 1_555 1_555
H24 C29 1_555 1_555
N3 H25 1_555 1_555
H26 N3 1_555 1_555
C30 N3 1_555 1_555
H27 C30 1_555 1_555
H28 C30 1_555 1_555
H29 C30 1_555 1_555
C31 N3 1_555 1_555
H30 C31 1_555 1_555
H31 C31 1_555 1_555
H32 C31 1_555 1_555
N4 H33 1_555 1_555
C32 N4 1_555 1_555
H34 C32 1_555 1_555
H35 C32 1_555 1_555
H36 C32 1_555 1_555
O9D C24D 1_555 1_555
O10D C24D 1_555 1_555
O11D C23D 1_555 1_555
O12D C23D 1_555 1_555
C17D C17 1_555 1_555
C18D C17D 1_555 1_555
H7D C18D 1_555 1_555
C19D C18D 1_555 1_555
C20D C19D 1_555 1_555
C21D C20D 1_555 1_555
H8D C21D 1_555 1_555
C22D C17D 1_555 1_555
H9D C22D 1_555 1_555
C23D C19D 1_555 1_555
C24D C20D 1_555 1_555
O1A C8A 1_555 1_555
O2A C8A 1_555 1_555
O3A Zn1 1_555 1_555
O4A C7A 1_555 1_555
O5A C16A 1_555 1_555
O6A C16A 1_555 1_555
O7A C15A 1_555 1_555
O8A C15A 1_555 1_555
C1A C2A 1_555 1_555
C2A H1A 1_555 1_555
C3A C2A 1_555 1_555
C4A C3A 1_555 1_555
C5A C4A 1_555 1_555
H2A C5A 1_555 1_555
C6A C1A 1_555 1_555
H3A C6A 1_555 1_555
C7A O3A 1_555 1_555
C8A C4A 1_555 1_555
C9A C1A 1_555 1_555
C10A C9A 1_555 1_555
H4A C10A 1_555 1_555
C11A C10A 1_555 1_555
C12A C11A 1_555 1_555
C13A C12A 1_555 1_555
H5A C13A 1_555 1_555
C14A C9A 1_555 1_555
H6A C14A 1_555 1_555
C15A C11A 1_555 1_555
C16A C12A 1_555 1_555
K1B O2 1_555 1_555
O13B K1B 1_555 1_555
N1B C25B 1_555 1_555
C25B O13B 1_555 1_555
H10B C25B 1_555 1_555
C26B N1B 1_555 1_555
H11B C26B 1_555 1_555
H12B C26B 1_555 1_555
H13B C26B 1_555 1_555
C27B N1B 1_555 1_555
H14B C27B 1_555 1_555
H15B C27B 1_555 1_555
H16B C27B 1_555 1_555
Zn2A O2 1_555 1_555
Zn1D O9D 1_555 1_555
Zn2_2 O2A 1_555 1_555
Zn2D O5 1_555 1_555
Zn2E O5A 1_555 1_555
Zn2F O7A 1_555 1_555
Zn2G O7 1_555 1_555
K1C O2A 1_555 1_555
K1D O8 1_555 1_555
K1D_2 O5 1_555 1_555
K1E O8A 1_555 1_555
K1E_2 O5A 1_555 1_555
K1F O6A 1_555 1_555
K1G O6 1_555 1_555
O2A_2 Zn2 1_555 1_555
O2B K1 1_555 1_555
O5D Zn2 1_555 1_555
O5E Zn2A 1_555 1_555
O5F K1B 1_555 1_555
O6D Zn2 1_555 1_555
O6E K1B 1_555 1_555
O6G K1 1_555 1_555
O7E K1B 1_555 1_555
O7F Zn2A 1_555 1_555
O7G Zn2 1_555 1_555
O8D K1 1_555 1_555
O8F K1B 1_555 1_555
O9A Zn1 1_555 1_555
O11A Zn2A 1_555 1_555
O12B K1B 1_555 1_555
H33A N4 1_555 1_555
C32A N4 1_555 1_555
H34A C32A 1_555 1_555
H35A C32A 1_555 1_555
H36A C32A 1_555 1_555
K1 O5D 1_555 1_555
K1 O7G 1_555 1_555
O6 Zn2D 1_555 1_555
O7 K1G 1_555 1_555
C5 C6 1_555 1_555
C13 C14 1_555 1_555
C20 C24 1_555 1_555
C21 C22 1_555 1_555
O11D Zn2D 1_555 1_555
O12D K1D_2 1_555 1_555
C21D C22D 1_555 1_555
O6A Zn2E 1_555 1_555
O7A K1F 1_555 1_555
C3A C7A 1_555 1_555
C5A C6A 1_555 1_555
C13A C14A 1_555 1_555
Zn2A O6E 1_555 1_555

#END
