
#######################################################################
#
#                 Cambridge Crystallographic Data Centre
#                                CCDC 
#
#######################################################################
#
# If this CIF has been generated from an entry in the Cambridge 
# Structural Database, then it will include bibliographic, chemical, 
# crystal, experimental, refinement or atomic coordinate data resulting 
# from the CCDC's data processing and validation procedures.
#
#######################################################################

data_XEXLAP
_chemical_formula_moiety         '(C22 H15 Mn1 N3 O7)n'
_symmetry_cell_setting           monoclinic
_symmetry_space_group_name_H-M   'P 21/n'
_symmetry_Int_Tables_number      14
_space_group_name_Hall           '-P 2yn'
loop_
_symmetry_equiv_pos_site_id
_symmetry_equiv_pos_as_xyz
1 x,y,z
2 1/2-x,1/2+y,1/2-z
3 -x,-y,-z
4 1/2+x,1/2-y,1/2+z
_cell_length_a                   5.0169(3)
_cell_length_b                   24.9851(17)
_cell_length_c                   20.6949(17)
_cell_angle_alpha                90
_cell_angle_beta                 95.721(4)
_cell_angle_gamma                90
_cell_volume                     2581.14
loop_
_atom_site_label
_atom_site_type_symbol
_atom_site_fract_x
_atom_site_fract_y
_atom_site_fract_z
Mn1 Mn 0.82066(12) 1.03955(2) 0.93846(3)
O1 O 0.7857(13) 0.9580(2) 0.9904(3)
O2 O 0.3800(12) 0.9204(2) 0.9813(3)
O3 O 0.4475(12) 1.0113(3) 0.8782(3)
O4 O 0.0149(12) 0.9940(3) 0.8637(3)
N1 N 0.6253(17) 0.6209(3) 0.6072(4)
C1 C 0.4406(17) 0.6258(3) 0.6527(5)
H1 H 0.3184 0.5976 0.6584
C2 C 0.4346(18) 0.6721(4) 0.6898(4)
H2 H 0.3083 0.6755 0.7208
C3 C 0.613(2) 0.7135(3) 0.6814(4)
C4 C 0.7980(18) 0.7085(3) 0.6360(5)
H3 H 0.9201 0.7368 0.6302
C5 C 0.8040(16) 0.6622(4) 0.5989(4)
H4 H 0.9303 0.6589 0.5678
N2 N 0.6057(17) 0.7628(3) 0.7192(4)
C6 C 0.411(2) 0.7984(4) 0.6997(5)
C7 C 0.380(2) 0.8453(4) 0.7428(5)
C8 C 0.5472(18) 0.8505(4) 0.8015(4)
C9 C 0.753(2) 0.8131(4) 0.8158(5)
C10 C 0.800(2) 0.7681(4) 0.7722(5)
C11 C 0.175(2) 0.8815(4) 0.7264(5)
H5 H 0.0600 0.8774 0.6873
O5 O 0.2651(18) 0.7931(3) 0.6487(4)
O6 O 0.9834(17) 0.7361(3) 0.7820(4)
C12 C 0.141(2) 0.9237(4) 0.7679(5)
H6 H 0.0020 0.9488 0.7562
C13 C 0.3000(17) 0.9309(4) 0.8259(5)
C14 C 0.5004(17) 0.8934(3) 0.8445(4)
C15 C 0.6665(16) 0.8938(3) 0.9047(4)
C16 C 0.8732(19) 0.8571(4) 0.9171(5)
H7 H 0.9854 0.8593 0.9568
C17 C 0.918(2) 0.8180(4) 0.8733(5)
H8 H 1.0642 0.7940 0.8823
C18 C 0.6067(16) 0.9274(3) 0.9628(4)
C19 C 0.2507(16) 0.9825(3) 0.8607(4)
Mn1_2 Mn -0.17934(12) 1.03955(2) 0.93846(3)
Mn1A Mn 0.67934(12) 0.53955(2) 0.56154(3)
Mn1B Mn 0.17934(12) 0.96045(2) 1.06154(3)
Mn1B_2 Mn 1.17934(12) 0.96045(2) 1.06154(3)
O1B O 1.2143(13) 1.0420(2) 1.0096(3)
O2B O 0.6200(12) 1.0796(2) 1.0187(3)
O4_2 O 1.0149(12) 0.9940(3) 0.8637(3)
N1A N 0.8747(17) 1.1209(3) 0.8928(4)
O7 O 1.233(10) 0.645(2) 1.048(2)
N3 N 1.440(9) 0.6883(19) 0.960(2)
C20 C 1.387(17) 0.7550(18) 0.983(3)
H9 H 1.4497 0.7790 0.9501
H10 H 1.4861 0.7622 1.0251
H11 H 1.1952 0.7609 0.9856
C21 C 1.543(16) 0.680(3) 0.883(3)
H12 H 1.5674 0.6418 0.8749
H13 H 1.7127 0.6988 0.8807
H14 H 1.4067 0.6946 0.8509
C22 C 1.366(11) 0.6293(18) 1.001(3)
H15 H 1.4125 0.5938 0.9899
loop_
_geom_bond_atom_site_label_1
_geom_bond_atom_site_label_2
_geom_bond_site_symmetry_1
_geom_bond_site_symmetry_2
Mn1 O1 1_555 1_555
O1 C18 1_555 1_555
O2 C18 1_555 1_555
O3 Mn1 1_555 1_555
O4 C19 1_555 1_555
N1 C1 1_555 1_555
C1 H1 1_555 1_555
C2 C1 1_555 1_555
H2 C2 1_555 1_555
C3 C2 1_555 1_555
C4 C3 1_555 1_555
H3 C4 1_555 1_555
C5 N1 1_555 1_555
H4 C5 1_555 1_555
N2 C3 1_555 1_555
C6 N2 1_555 1_555
C7 C6 1_555 1_555
C8 C7 1_555 1_555
C9 C8 1_555 1_555
C10 N2 1_555 1_555
C11 C7 1_555 1_555
H5 C11 1_555 1_555
O5 C6 1_555 1_555
O6 C10 1_555 1_555
C12 C11 1_555 1_555
H6 C12 1_555 1_555
C13 C12 1_555 1_555
C14 C8 1_555 1_555
C15 C14 1_555 1_555
C16 C15 1_555 1_555
H7 C16 1_555 1_555
C17 C9 1_555 1_555
H8 C17 1_555 1_555
C18 C15 1_555 1_555
C19 O3 1_555 1_555
O7 C22 1_555 1_555
N3 C20 1_555 1_555
C20 H9 1_555 1_555
H10 C20 1_555 1_555
H11 C20 1_555 1_555
C21 N3 1_555 1_555
H12 C21 1_555 1_555
H13 C21 1_555 1_555
H14 C21 1_555 1_555
C22 N3 1_555 1_555
H15 C22 1_555 1_555
Mn1_2 O4 1_555 1_555
Mn1A N1 1_555 1_555
Mn1B O2 1_555 1_555
Mn1B_2 O1 1_555 1_555
O1B Mn1 1_555 1_555
O2B Mn1 1_555 1_555
O4_2 Mn1 1_555 1_555
N1A Mn1 1_555 1_555
C4 C5 1_555 1_555
C9 C10 1_555 1_555
C13 C14 1_555 1_555
C13 C19 1_555 1_555
C16 C17 1_555 1_555
Mn1B_2 O1B 1_555 1_555

#END
