
#######################################################################
#
#                 Cambridge Crystallographic Data Centre
#                                CCDC 
#
#######################################################################
#
# If this CIF has been generated from an entry in the Cambridge 
# Structural Database, then it will include bibliographic, chemical, 
# crystal, experimental, refinement or atomic coordinate data resulting 
# from the CCDC's data processing and validation procedures.
#
#######################################################################

data_FECCIZ
_chemical_formula_moiety         '(C8 Al6 N2 O26 P6)n'
_symmetry_cell_setting           orthorhombic
_symmetry_space_group_name_H-M   'P 21 21 2'
_symmetry_Int_Tables_number      18
_space_group_name_Hall           'P 2 2ab'
loop_
_symmetry_equiv_pos_site_id
_symmetry_equiv_pos_as_xyz
1 x,y,z
2 1/2+x,1/2-y,-z
3 1/2-x,1/2+y,-z
4 -x,-y,z
_cell_length_a                   10.3325(1)
_cell_length_b                   14.6405(2)
_cell_length_c                   9.5112(1)
_cell_angle_alpha                90
_cell_angle_beta                 90
_cell_angle_gamma                90
_cell_volume                     1438.79
loop_
_atom_site_label
_atom_site_type_symbol
_atom_site_fract_x
_atom_site_fract_y
_atom_site_fract_z
N2 N -0.000 0.500 0.158(12)
C3 C -0.018(26) 0.587(4) 0.249(12)
C4 C -0.129(6) 0.482(18) 0.065(12)
O2 O -0.000 0.500 -0.024(15)
C3C C 0.018(26) 0.413(4) 0.249(12)
C4C C 0.129(6) 0.518(18) 0.065(12)
P1 P 0.339(6) 0.770(3) 0.157(4)
P2 P 0.146(5) 0.612(3) 0.632(5)
P3 P 0.343(5) 0.415(3) 0.369(5)
Al1 Al 0.354(6) 0.608(3) 0.387(6)
Al2 Al 0.366(6) 0.896(3) 0.383(5)
Al3 Al 0.651(7) 0.751(3) 0.139(5)
O3 O 0.338(9) 0.696(4) 0.272(7)
O4 O 0.311(9) 0.864(4) 0.218(7)
O5 O 0.482(7) 0.758(6) 0.086(5)
O6 O 0.249(9) 0.764(7) 0.018(8)
O7 O 0.182(9) 0.637(5) 0.790(7)
O8 O 0.130(6) 0.512(4) 0.619(8)
O9 O 0.015(7) 0.668(4) 0.588(7)
O10 O 0.256(8) 0.643(5) 0.534(8)
O11 O 0.300(7) 0.506(4) 0.317(7)
O12 O 0.337(10) 0.349(5) 0.242(7)
O13 O 0.482(6) 0.412(4) 0.425(8)
O14 O 0.254(8) 0.381(5) 0.488(8)
P3C P 0.657(5) 0.585(3) 0.369(5)
O11C O 0.700(7) 0.494(4) 0.317(7)
O12C O 0.663(10) 0.651(5) 0.242(7)
O13C O 0.518(6) 0.588(4) 0.425(8)
O14C O 0.746(8) 0.619(5) 0.488(8)
Al1C Al 0.646(6) 0.392(3) 0.387(6)
Al2B Al 0.134(6) 0.396(3) 0.617(5)
Al3A Al 0.151(7) 0.749(3) -0.139(5)
P2B P 0.354(5) 1.112(3) 0.368(5)
O7B O 0.318(9) 1.137(5) 0.210(7)
O8B O 0.370(6) 1.012(4) 0.381(8)
O9B O 0.485(7) 1.168(4) 0.412(7)
O10B O 0.244(8) 1.143(5) 0.466(8)
P1A P 0.839(6) 0.730(3) -0.157(4)
O3A O 0.838(9) 0.804(4) -0.272(7)
O4A O 0.811(9) 0.636(4) -0.218(7)
O5A O 0.982(7) 0.742(6) -0.086(5)
O6A O 0.749(9) 0.736(7) -0.018(8)
O9A O 0.515(7) 0.832(4) 0.412(7)
O14B O 0.246(8) 0.881(5) 0.512(8)
O7A O 0.682(9) 0.863(5) 0.210(7)
Al3A_2 Al 0.151(7) 0.749(3) 0.861(5)
Al2A Al -0.134(6) 0.604(3) 0.617(5)
Al3C Al 0.349(7) 0.249(3) 0.139(5)
Al2A_2 Al 0.866(6) 0.604(3) 0.617(5)
O3C O 0.662(9) 0.304(4) 0.272(7)
O10C O 0.744(8) 0.357(5) 0.534(8)
O4B O 0.189(9) 0.364(4) 0.782(7)
O9C O -0.015(7) 0.332(4) 0.588(7)
O5A_2 O -0.018(7) 0.742(6) -0.086(5)
O7_2 O 0.182(9) 0.637(5) -0.210(7)
O12B O 0.163(10) 0.849(5) -0.242(7)
Al3C_2 Al 0.349(7) 1.249(3) 0.139(5)
Al2C Al 0.634(6) 1.104(3) 0.383(5)
Al1B Al 0.146(6) 1.108(3) 0.613(6)
Al1A Al 0.854(6) 0.892(3) -0.387(6)
Al2A_3 Al 0.866(6) 0.604(3) -0.383(5)
Al3A_3 Al 1.151(7) 0.749(3) -0.139(5)
N1 N -0.000 0.000 0.100(12)
C1 C -0.024(32) 0.089(4) 0.196(12)
C2 C -0.131(5) -0.017(2) 0.004(12)
O1 O -0.000 0.000 0.284(15)
C1C C 0.024(32) -0.089(4) 0.196(12)
C2C C 0.131(5) 0.017(2) 0.004(12)
loop_
_geom_bond_atom_site_label_1
_geom_bond_atom_site_label_2
_geom_bond_site_symmetry_1
_geom_bond_site_symmetry_2
N1 C1 1_555 1_555
C1 O1 1_555 1_555
C2 N1 1_555 1_555
O1 N1 1_555 1_555
N2 C3 1_555 1_555
C4 N2 1_555 1_555
O2 N2 1_555 1_555
P1 O3 1_555 1_555
P2 O7 1_555 1_555
P3 O11 1_555 1_555
Al1 O3 1_555 1_555
Al2 O4 1_555 1_555
Al3 O5 1_555 1_555
O4 P1 1_555 1_555
O5 P1 1_555 1_555
O6 P1 1_555 1_555
O7 Al3A_2 1_555 1_555
O8 P2 1_555 1_555
O9 P2 1_555 1_555
O10 P2 1_555 1_555
O11 Al1 1_555 1_555
O12 P3 1_555 1_555
O13 P3 1_555 1_555
O14 P3 1_555 1_555
C1C N1 1_555 1_555
C2C N1 1_555 1_555
C3C N2 1_555 1_555
C4C N2 1_555 1_555
P3C O11C 1_555 1_555
O11C Al1C 1_555 1_555
O12C Al3 1_555 1_555
O13C Al1 1_555 1_555
O14C P3C 1_555 1_555
Al1C O13 1_555 1_555
Al2B O8 1_555 1_555
Al3A O6 1_555 1_555
P2B O7B 1_555 1_555
O7B Al3C_2 1_555 1_555
O8B Al2 1_555 1_555
O9B P2B 1_555 1_555
O10B P2B 1_555 1_555
P1A O3A 1_555 1_555
O3A Al1A 1_555 1_555
O4A P1A 1_555 1_555
O5A P1A 1_555 1_555
O6A Al3 1_555 1_555
O9A Al2 1_555 1_555
O14B Al2 1_555 1_555
O7A Al3 1_555 1_555
Al2A O9 1_555 1_555
Al3C O12 1_555 1_555
Al2A_2 O14C 1_555 1_555
O3C Al1C 1_555 1_555
O10C Al1C 1_555 1_555
O4B Al2B 1_555 1_555
O9C Al2B 1_555 1_555
O5A_2 Al3A 1_555 1_555
O7_2 Al3A 1_555 1_555
O12B Al3A 1_555 1_555
Al2C O9B 1_555 1_555
Al1B O10B 1_555 1_555
Al2A_3 O4A 1_555 1_555
Al3A_3 O5A 1_555 1_555
O1 C1C 1_555 1_555
C4 O2 1_555 1_555
O2 C4C 1_555 1_555
Al1 O10 1_555 1_555
O14 Al2B 1_555 1_555
P3C O12C 1_555 1_555
P3C O13C 1_555 1_555
P2B O8B 1_555 1_555
P1A O6A 1_555 1_555

#END
