
#######################################################################
#
#                 Cambridge Crystallographic Data Centre
#                                CCDC 
#
#######################################################################
#
# If this CIF has been generated from an entry in the Cambridge 
# Structural Database, then it will include bibliographic, chemical, 
# crystal, experimental, refinement or atomic coordinate data resulting 
# from the CCDC's data processing and validation procedures.
#
#######################################################################

data_BIZMII
_chemical_formula_moiety         'C245 H210 Er16 F15 N48 O88 S5 5-'
_symmetry_cell_setting           triclinic
_symmetry_space_group_name_H-M   'P -1'
_symmetry_Int_Tables_number      2
_space_group_name_Hall           '-P 1'
loop_
_symmetry_equiv_pos_site_id
_symmetry_equiv_pos_as_xyz
1 x,y,z
2 -x,-y,-z
_cell_length_a                   24.0010(8)
_cell_length_b                   24.1423(9)
_cell_length_c                   24.3564(7)
_cell_angle_alpha                85.626(2)
_cell_angle_beta                 61.319(3)
_cell_angle_gamma                60.944(4)
_cell_volume                     10594.5
loop_
_atom_site_label
_atom_site_type_symbol
_atom_site_fract_x
_atom_site_fract_y
_atom_site_fract_z
S1 S 0.0461(3) 0.8546(2) 0.1432(2)
O25 O 0.0316(7) 0.8313(5) 0.2016(4)
O26 O -0.0141(6) 0.8807(6) 0.1301(6)
O27 O 0.1184(5) 0.8108(5) 0.0886(5)
C121 C 0.0531(6) 0.9254(4) 0.1547(5)
F1 F 0.0743(6) 0.9454(5) 0.0997(4)
F2 F -0.0108(5) 0.9719(4) 0.1988(4)
F3 F 0.1041(5) 0.9082(5) 0.1706(5)
S2 S 0.1400(3) 1.0249(3) -0.0119(3)
O28 O 0.0628(5) 1.0757(6) 0.0284(6)
O29 O 0.1811(7) 1.0060(7) 0.0215(6)
O30 O 0.1474(8) 0.9707(6) -0.0425(6)
C122 C 0.1808(7) 1.0615(6) -0.0756(5)
F4 F 0.1534(8) 1.0724(7) -0.1139(5)
F5 F 0.2536(6) 1.0238(8) -0.1099(7)
F6 F 0.1658(10) 1.1175(7) -0.0506(7)
S3 S -0.0787(4) 1.0323(4) 0.4255(3)
O31 O -0.1439(7) 1.0376(9) 0.4798(5)
O32 O -0.0835(10) 1.0946(6) 0.4159(8)
O33 O -0.0097(7) 0.9832(8) 0.4216(8)
C123 C -0.0722(8) 1.0033(7) 0.3537(5)
F7 F -0.1286(10) 1.0462(8) 0.3478(8)
F8 F -0.0678(13) 0.9471(7) 0.3556(9)
F9 F -0.0103(10) 0.9963(13) 0.3028(5)
S4 S -0.4414(4) 1.1527(4) 0.5035(4)
O34 O -0.4433(10) 1.1103(8) 0.4658(8)
O35 O -0.4162(10) 1.1946(8) 0.4673(8)
O36 O -0.5087(7) 1.1861(9) 0.5648(6)
C124 C -0.3697(6) 1.0985(6) 0.5226(6)
F10 F -0.3048(6) 1.0677(8) 0.4698(7)
F11 F -0.3663(9) 1.1331(8) 0.5595(7)
F12 F -0.3862(10) 1.0568(8) 0.5541(9)
S5 S -0.4363(6) 1.6360(5) 0.3935(4)
O37 O -0.3971(11) 1.6007(11) 0.4261(9)
O38 O -0.4732(11) 1.6076(11) 0.3837(9)
O39 O -0.4885(11) 1.7051(7) 0.4246(10)
C125 C -0.3685(9) 1.6346(9) 0.3149(6)
F13 F -0.3093(10) 1.5755(10) 0.2885(9)
F14 F -0.3475(14) 1.6749(13) 0.3200(10)
F15 F -0.3964(14) 1.6529(15) 0.2768(8)
O40 O 0.1985(5) 0.4619(4) -0.0515(4)
O41 O -0.0283(8) 0.8407(7) 0.5550(6)
O42 O -0.0682(7) 1.0774(6) 0.0646(5)
O43 O -0.5754(8) 1.0978(7) 0.5153(6)
O44 O -0.2377(16) 1.5992(14) 0.1639(13)
O45 O 0.1591(10) 0.4887(9) 0.2048(9)
O46 O 0.1045(9) 0.9682(8) 0.4147(8)
O47 O -0.0524(14) 0.5891(13) 0.1088(12)
O48 O -0.4502(14) 1.4833(12) 0.4182(11)
Er1 Er 0.36359(3) 0.84524(3) 0.19891(2)
O1 O 0.2529(5) 0.8742(4) 0.2055(4)
O2 O 0.2972(5) 0.9593(4) 0.2201(4)
O3 O 0.3823(5) 0.8699(4) 0.0981(4)
O4 O 0.4544(5) 0.8723(4) 0.1608(4)
O5 O 0.4032(4) 0.7520(4) 0.1332(4)
O6 O 0.3421(5) 0.8797(4) 0.2972(4)
O7 O 0.4642(4) 0.7616(4) 0.2050(4)
O8 O 0.3116(5) 0.7909(4) 0.2722(4)
N1 N 0.2137(5) 0.8450(5) 0.2286(5)
N2 N 0.2326(6) 0.9974(5) 0.2235(5)
N3 N 0.3669(6) 0.8492(5) 0.0604(5)
N4 N 0.4667(6) 0.9071(5) 0.1167(4)
N5 N 0.4473(6) 0.6918(5) 0.1376(5)
C1 C 0.2333(7) 0.7918(7) 0.1935(7)
C2 C 0.1551(7) 0.8710(6) 0.2889(6)
C3 C 0.2322(7) 1.0173(6) 0.1717(6)
C4 C 0.1714(6) 1.0139(6) 0.2792(5)
C5 C 0.2967(7) 0.8795(6) 0.0735(6)
C6 C 0.4206(7) 0.7979(7) 0.0134(6)
C7 C 0.4277(8) 0.9745(7) 0.1350(6)
C8 C 0.5166(8) 0.8773(8) 0.0578(7)
C9 C 0.4171(8) 0.6617(7) 0.1783(6)
C10 C 0.5209(7) 0.6650(6) 0.1001(7)
H1 H 0.2760 0.7738 0.1519
C11 C 0.1902(8) 0.7631(6) 0.2186(6)
C12 C 0.1132(8) 0.8431(7) 0.3145(6)
H2 H 0.1435 0.9080 0.3130
H3 H 0.2773 1.0056 0.1332
C13 C 0.1659(8) 1.0550(7) 0.1740(7)
C14 C 0.1025(7) 1.0525(7) 0.2838(6)
H4 H 0.1743 0.9997 0.3157
H5 H 0.2592 0.9151 0.1086
C15 C 0.2791(8) 0.8593(7) 0.0364(6)
C16 C 0.4036(7) 0.7762(7) -0.0246(7)
H6 H 0.4697 0.7764 0.0056
H7 H 0.3929 0.9956 0.1786
C17 C 0.4414(9) 1.0092(8) 0.0879(7)
C18 C 0.5324(9) 0.9128(7) 0.0078(7)
H8 H 0.5433 0.8314 0.0475
H9 H 0.3650 0.6800 0.2012
C19 C 0.4617(7) 0.6041(6) 0.1870(5)
C20 C 0.5666(8) 0.6091(7) 0.1073(6)
H10 H 0.5404 0.6861 0.0683
H11 H 0.2023 0.7268 0.1930
C21 C 0.1293(7) 0.7870(6) 0.2810(6)
H12 H 0.0714 0.8619 0.3565
H13 H 0.1659 1.0698 0.1367
C22 C 0.0983(7) 1.0724(6) 0.2294(5)
H14 H 0.0584 1.0653 0.3238
H15 H 0.2296 0.8829 0.0450
C23 C 0.3307(7) 0.8057(6) -0.0131(6)
H16 H 0.4423 0.7404 -0.0593
H17 H 0.4150 1.0550 0.0999
C24 C 0.4919(8) 0.9806(7) 0.0236(6)
H18 H 0.5696 0.8906 -0.0351
H19 H 0.4399 0.5823 0.2158
C25 C 0.5387(7) 0.5760(6) 0.1546(6)
H20 H 0.6185 0.5909 0.0807
C26 C 0.0807(7) 0.7581(7) 0.3077(6)
C27 C 0.0280(8) 1.1057(7) 0.2303(6)
C28 C 0.3106(7) 0.7818(6) -0.0493(6)
C29 C 0.5884(7) 0.5205(6) 0.1707(6)
C30 C 0.1018(8) 0.7001(7) 0.2807(7)
C31 C 0.0099(9) 0.7931(8) 0.3630(7)
C32 C 0.0182(8) 1.0901(7) 0.1832(7)
C33 C -0.0388(7) 1.1521(6) 0.2860(6)
C34 C 0.2431(7) 0.8223(7) -0.0471(6)
C35 C 0.3571(8) 0.7161(7) -0.0897(6)
C36 C 0.6570(9) 0.4758(7) 0.1276(7)
C37 C 0.5671(8) 0.5183(7) 0.2341(6)
C38 C 0.0558(7) 0.6757(7) 0.3075(6)
H21 H 0.1486 0.6758 0.2430
H22 H -0.0062 0.8347 0.3827
C39 C -0.0336(7) 0.7695(7) 0.3876(6)
C40 C -0.0494(8) 1.1176(6) 0.1911(6)
H23 H 0.0599 1.0596 0.1451
H24 H -0.0360 1.1653 0.3200
C41 C -0.1032(7) 1.1763(6) 0.2908(6)
C42 C 0.2202(8) 0.7991(7) -0.0775(7)
H25 H 0.2129 0.8660 -0.0246
H26 H 0.4048 0.6872 -0.0954
C43 C 0.3314(8) 0.6984(7) -0.1173(7)
C44 C 0.7052(8) 0.4265(7) 0.1434(6)
H27 H 0.6739 0.4777 0.0837
H28 H 0.5189 0.5503 0.2663
C45 C 0.6130(7) 0.4716(7) 0.2518(6)
N6 N -0.0118(6) 0.7094(5) 0.3590(5)
H29 H 0.0724 0.6336 0.2889
H30 H -0.0806 0.7936 0.4253
N7 N -0.1090(6) 1.1578(5) 0.2439(5)
H31 H -0.0544 1.1077 0.1573
H32 H -0.1465 1.2074 0.3279
N8 N 0.2646(6) 0.7370(5) -0.1117(5)
H33 H 0.1736 0.8263 -0.0745
H34 H 0.3615 0.6560 -0.1428
N9 N 0.6828(6) 0.4262(5) 0.2057(5)
H35 H 0.7527 0.3939 0.1111
H36 H 0.5967 0.4705 0.2957
O9 O -0.0574(5) 0.6865(4) 0.3823(4)
O10 O -0.1771(4) 1.1813(4) 0.2528(4)
O11 O 0.2395(5) 0.7160(4) -0.1380(3)
O12 O 0.7274(5) 0.3831(4) 0.2238(4)
Er2 Er -0.14926(3) 0.71492(3) 0.35619(2)
Er3 Er -0.25530(3) 1.28060(3) 0.23961(2)
O13 O -0.1186(5) 0.6128(4) 0.3798(4)
O14 O -0.2194(5) 0.7339(4) 0.4705(4)
O15 O -0.2065(5) 0.7904(4) 0.3060(4)
O16 O -0.1782(5) 0.8172(4) 0.3957(4)
O17 O -0.2522(5) 0.7098(4) 0.3819(4)
O18 O -0.0516(5) 0.7187(5) 0.2703(4)
O19 O -0.1126(5) 0.6495(4) 0.2645(4)
O20 O -0.2799(5) 1.2044(4) 0.2183(4)
O21 O -0.2264(5) 1.3098(4) 0.3067(4)
O22 O -0.3331(5) 1.2765(5) 0.3422(4)
O23 O -0.3777(5) 1.3453(5) 0.2592(4)
O24 O -0.1345(5) 1.2607(4) 0.1734(4)
N10 N -0.0859(5) 0.5838(4) 0.4128(5)
N11 N -0.2367(6) 0.7833(5) 0.5098(5)
N12 N -0.2521(6) 0.7907(5) 0.2893(5)
N13 N -0.1935(6) 0.8696(5) 0.3697(5)
N14 N -0.2972(6) 0.6993(6) 0.4346(5)
N15 N -0.0333(5) 0.7180(5) 0.2086(4)
N16 N -0.2689(7) 1.1500(6) 0.2424(5)
N17 N -0.2068(6) 1.3547(5) 0.3004(5)
N18 N -0.3222(6) 1.2675(6) 0.3909(5)
N19 N -0.4366(6) 1.3446(5) 0.3050(5)
N20 N 0.1060(5) 0.7328(5) -0.1139(5)
C46 C -0.0114(8) 0.5435(7) 0.3825(7)
C47 C -0.1263(8) 0.5931(6) 0.4768(6)
C48 C -0.1878(7) 0.7790(6) 0.5247(6)
C49 C -0.3032(7) 0.8363(6) 0.5324(6)
C50 C -0.3239(9) 0.8241(7) 0.3283(7)
C51 C -0.2242(8) 0.7583(6) 0.2312(7)
C52 C -0.1374(7) 0.8755(6) 0.3231(6)
C53 C -0.2629(7) 0.9159(7) 0.3920(6)
C54 C -0.3635(7) 0.7512(7) 0.4793(6)
C55 C -0.2773(8) 0.6375(7) 0.4422(7)
C56 C -0.0697(8) 0.7710(7) 0.1920(6)
C57 C 0.0224(9) 0.6624(8) 0.1649(6)
C58 C -0.3192(8) 1.1524(6) 0.2998(6)
C59 C -0.2051(8) 1.0938(6) 0.2046(6)
C60 C -0.1360(8) 1.3376(6) 0.2640(6)
C61 C -0.2609(8) 1.4154(7) 0.3323(7)
C62 C -0.2793(7) 1.2055(7) 0.3962(6)
C63 C -0.3563(8) 1.3199(7) 0.4363(7)
C64 C -0.4504(7) 1.3015(7) 0.2941(6)
C65 C -0.4757(8) 1.3831(7) 0.3621(7)
C66 C 0.1084(7) 0.6764(7) -0.0981(6)
C67 C 0.0738(7) 0.7840(6) -0.0674(5)
H37 H 0.0176 0.5375 0.3374
C68 C 0.0205(9) 0.5129(9) 0.4153(7)
C69 C -0.0927(7) 0.5610(7) 0.5106(6)
H38 H -0.1784 0.6219 0.4985
H39 H -0.1415 0.7401 0.5100
C70 C -0.2056(9) 0.8306(7) 0.5607(7)
C71 C -0.3199(8) 0.8874(7) 0.5696(6)
H40 H -0.3381 0.8385 0.5228
H41 H -0.3431 0.8493 0.3679
C72 C -0.3718(8) 0.8234(7) 0.3133(7)
C73 C -0.2682(8) 0.7554(7) 0.2130(7)
H42 H -0.1724 0.7370 0.2021
H43 H -0.0879 0.8421 0.3091
C74 C -0.1501(7) 0.9283(6) 0.2956(6)
C75 C -0.2815(8) 0.9715(7) 0.3669(8)
H44 H -0.3011 0.9112 0.4262
H45 H -0.3756 0.7942 0.4738
C76 C -0.4114(8) 0.7405(8) 0.5312(8)
C77 C -0.3281(7) 0.6276(7) 0.4969(7)
H46 H -0.2308 0.6021 0.4117
H47 H -0.1125 0.8081 0.2236
C78 C -0.0443(8) 0.7720(7) 0.1270(6)
C79 C 0.0492(8) 0.6606(7) 0.1012(6)
H48 H 0.0433 0.6238 0.1791
H49 H -0.3636 1.1925 0.3240
C80 C -0.3080(8) 1.0973(7) 0.3249(7)
C81 C -0.1902(8) 1.0377(7) 0.2280(6)
H50 H -0.1712 1.0933 0.1626
H51 H -0.0993 1.2933 0.2449
C82 C -0.1150(7) 1.3837(6) 0.2534(6)
C83 C -0.2425(8) 1.4649(7) 0.3252(6)
H52 H -0.3106 1.4255 0.3591
H53 H -0.2530 1.1692 0.3630
C84 C -0.2761(7) 1.1982(7) 0.4528(6)
C85 C -0.3511(8) 1.3130(7) 0.4919(6)
H54 H -0.3841 1.3619 0.4306
H55 H -0.4219 1.2749 0.2529
C86 C -0.5079(8) 1.2953(8) 0.3444(7)
C87 C -0.5346(8) 1.3780(7) 0.4141(7)
H56 H -0.4645 1.4140 0.3683
H57 H 0.1292 0.6413 -0.1305
C88 C 0.0815(8) 0.6706(7) -0.0369(6)
C89 C 0.0420(8) 0.7793(7) -0.0041(6)
H58 H 0.0732 0.8228 -0.0785
H59 H 0.0729 0.4868 0.3932
C90 C -0.0188(7) 0.5169(6) 0.4810(5)
H60 H -0.1215 0.5697 0.5559
H61 H -0.1706 0.8273 0.5707
C91 C -0.2722(8) 0.8883(7) 0.5840(6)
H62 H -0.3678 0.9248 0.5866
H63 H -0.4234 0.8481 0.3430
C92 C -0.3474(7) 0.7880(7) 0.2562(6)
H64 H -0.2470 0.7320 0.1718
H65 H -0.1096 0.9307 0.2620
C93 C -0.2221(8) 0.9786(6) 0.3164(6)
H66 H -0.3318 1.0039 0.3824
H67 H -0.4576 0.7763 0.5615
C94 C -0.3941(8) 0.6771(8) 0.5413(7)
H68 H -0.3153 0.5846 0.5028
H69 H -0.0685 0.8106 0.1144
C95 C 0.0157(7) 0.7170(6) 0.0809(5)
H70 H 0.0900 0.6217 0.0709
H71 H -0.3446 1.0996 0.3662
C96 C -0.2411(8) 1.0368(7) 0.2887(7)
H72 H -0.1446 0.9988 0.2025
H73 H -0.0649 1.3716 0.2249
C97 C -0.1687(8) 1.4480(6) 0.2851(6)
H74 H -0.2798 1.5083 0.3473
H75 H -0.2492 1.1561 0.4590
C98 C -0.3119(7) 1.2521(7) 0.4995(6)
H76 H -0.3743 1.3499 0.5234
H77 H -0.5183 1.2647 0.3360
C99 C -0.5485(7) 1.3309(7) 0.4035(7)
H78 H -0.5636 1.4059 0.4548
H79 H 0.0877 0.6299 -0.0269
C100 C 0.0452(7) 0.7219(6) 0.0122(6)
H80 H 0.0179 0.8155 0.0285
C101 C -0.2919(8) 0.9486(6) 0.6190(6)
C102 C -0.3965(7) 0.7827(7) 0.2415(7)
C103 C -0.1520(8) 1.5002(7) 0.2768(6)
C104 C -0.3103(7) 1.2421(6) 0.5606(5)
C105 C -0.3595(8) 0.9886(7) 0.6709(6)
C106 C -0.2385(8) 0.9677(7) 0.5970(7)
C107 C -0.3759(7) 0.7620(7) 0.1785(6)
C108 C -0.4647(8) 0.7950(7) 0.2903(6)
C109 C -0.0856(8) 1.4899(7) 0.2655(7)
C110 C -0.2032(9) 1.5616(7) 0.2811(7)
C111 C -0.3687(7) 1.2840(6) 0.6158(6)
C112 C -0.2504(7) 1.1898(6) 0.5622(6)
C113 C -0.3758(9) 1.0442(7) 0.6999(7)
H81 H -0.3963 0.9770 0.6872
H82 H -0.1899 0.9398 0.5625
C114 C -0.2546(8) 1.0234(7) 0.6233(7)
C115 C -0.4254(7) 0.7593(7) 0.1669(7)
H83 H -0.3277 0.7498 0.1441
H84 H -0.4798 0.8095 0.3330
C116 C -0.5118(8) 0.7868(7) 0.2788(7)
C117 C -0.0704(7) 1.5396(6) 0.2588(6)
H85 H -0.0488 1.4474 0.2622
H86 H -0.2489 1.5699 0.2870
C118 C -0.1903(8) 1.6124(7) 0.2772(7)
C119 C -0.3678(8) 1.2706(7) 0.6738(7)
H87 H -0.4093 1.3214 0.6163
H88 H -0.2083 1.1605 0.5235
C120 C -0.2512(8) 1.1802(7) 0.6174(6)
N21 N -0.3244(7) 1.0627(6) 0.6756(5)
H89 H -0.4227 1.0703 0.7370
H90 H -0.2188 1.0362 0.6066
N22 N -0.4905(6) 0.7691(5) 0.2164(5)
H91 H -0.4139 0.7506 0.1242
H92 H -0.5576 0.7933 0.3131
N23 N -0.1232(6) 1.5997(5) 0.2660(5)
H93 H -0.0232 1.5309 0.2493
H94 H -0.2276 1.6553 0.2822
N24 N -0.3102(6) 1.2194(5) 0.6728(5)
H95 H -0.4089 1.2988 0.7134
H96 H -0.2092 1.1449 0.6172
C24A C 0.5081(8) 1.0194(7) -0.0236(6)
C17A C 0.5586(9) 0.9908(8) -0.0879(7)
C18A C 0.4676(9) 1.0872(7) -0.0078(7)
C7A C 0.5723(8) 1.0255(7) -0.1350(6)
H17A H 0.5850 0.9450 -0.0999
H18A H 0.4304 1.1094 0.0351
C8A C 0.4834(8) 1.1227(8) -0.0578(7)
N4A N 0.5333(6) 1.0929(5) -0.1167(4)
H7A H 0.6071 1.0044 -0.1786
H8A H 0.4567 1.1686 -0.0475
O4A O 0.5456(5) 1.1277(4) -0.1608(4)
Er3A Er 0.25530(3) 0.71940(3) -0.23961(2)
Er1A Er 0.63641(3) 1.15476(3) -0.19891(2)
Er3_2 Er 0.74470(3) 0.28060(3) 0.23961(2)
O11A O -0.2395(5) 1.2840(4) 0.1380(3)
O12_2 O -0.2726(5) 1.3831(4) 0.2238(4)
O24A O 0.1345(5) 0.7393(4) -0.1734(4)
C90A C 0.0188(7) 0.4831(6) 0.5190(5)
C99A C -0.4515(7) 0.6691(7) 0.5965(7)
C94A C -0.6059(8) 1.3229(8) 0.4587(7)
C68A C -0.0205(9) 0.4871(9) 0.5847(7)
C69A C 0.0927(7) 0.4390(7) 0.4894(6)
C86A C -0.4921(8) 0.7047(8) 0.6556(7)
C87A C -0.4654(8) 0.6220(7) 0.5859(7)
C76A C -0.5886(8) 1.2595(8) 0.4688(8)
C77A C -0.6719(7) 1.3724(7) 0.5031(7)
C46A C 0.0114(8) 0.4565(7) 0.6175(7)
H59A H -0.0729 0.5132 0.6068
H60A H 0.1215 0.4303 0.4441
C47A C 0.1263(8) 0.4069(6) 0.5232(6)
C64A C -0.5496(7) 0.6985(7) 0.7059(6)
H77A H -0.4817 0.7353 0.6640
H78A H -0.4364 0.5941 0.5452
C65A C -0.5243(8) 0.6169(7) 0.6379(7)
C54A C -0.6365(7) 1.2488(7) 0.5207(6)
H67A H -0.5424 1.2237 0.4385
H68A H -0.6847 1.4154 0.4972
C55A C -0.7227(8) 1.3625(7) 0.5578(7)
N10A N 0.0859(5) 0.4162(4) 0.5872(5)
H37A H -0.0176 0.4625 0.6626
H38A H 0.1784 0.3781 0.5015
H55A H -0.5781 0.7251 0.7471
N19A N -0.5634(6) 0.6554(5) 0.6950(5)
H56A H -0.5355 0.5860 0.6317
N14A N -0.7028(6) 1.3007(6) 0.5654(5)
H45A H -0.6244 1.2058 0.5262
H46A H -0.7692 1.3979 0.5883
O13A O 0.1186(5) 0.3872(4) 0.6202(4)
O6A O -0.3421(5) 1.1203(4) 0.7028(4)
O7_2 O -0.5358(4) 0.7616(4) 0.2050(4)
O23A O -0.6223(5) 0.6547(5) 0.7408(4)
O19_2 O -0.1126(5) 1.6495(4) 0.2645(4)
O8A O -0.3116(5) 1.2091(4) 0.7278(4)
O17A O -0.7478(5) 1.2902(4) 0.6181(4)
Er2A Er 0.14926(3) 0.28508(3) 0.64381(2)
Er1A_2 Er -0.36359(3) 1.15476(3) 0.80109(2)
Er1_2 Er -0.63641(3) 0.84524(3) 0.19891(2)
Er3A_2 Er -0.74470(3) 0.71940(3) 0.76039(2)
Er2_2 Er -0.14926(3) 1.71492(3) 0.35619(2)
Er2A_2 Er -0.85074(3) 1.28508(3) 0.64381(2)
O7A O -0.4642(4) 1.2384(4) 0.7950(4)
O6_2 O -0.6579(5) 0.8797(4) 0.2972(4)
O8_2 O -0.6884(5) 0.7909(4) 0.2722(4)
O10A O -0.8229(4) 0.8187(4) 0.7472(4)
O20A O -0.7201(5) 0.7956(4) 0.7817(4)
O21A O -0.7736(5) 0.6902(4) 0.6933(4)
O22A O -0.6669(5) 0.7235(5) 0.6578(4)
O11_2 O -0.7605(5) 0.7160(4) 0.8620(3)
O12A O -0.7274(5) 0.6169(4) 0.7762(4)
O24A_2 O -0.8655(5) 0.7393(4) 0.8266(4)
O9A O -0.9426(5) 1.3135(4) 0.6177(4)
O14A O -0.7806(5) 1.2661(4) 0.5295(4)
O15A O -0.7935(5) 1.2096(4) 0.6940(4)
O16A O -0.8218(5) 1.1828(4) 0.6043(4)
O18A O -0.9484(5) 1.2813(5) 0.7297(4)
O13A_2 O -0.8814(5) 1.3872(4) 0.6202(4)
O19A O -0.8874(5) 1.3505(4) 0.7355(4)
N22A N -0.5095(6) 1.2309(5) 0.7836(5)
N21A N -0.6756(7) 0.9373(6) 0.3244(5)
N24A N -0.6898(6) 0.7806(5) 0.3272(5)
N7A N -0.8910(6) 0.8422(5) 0.7561(5)
N16A N -0.7311(7) 0.8500(6) 0.7576(5)
N17A N -0.7932(6) 0.6453(5) 0.6996(5)
N18A N -0.6778(6) 0.7325(6) 0.6091(5)
N6A N -0.9882(6) 1.2906(5) 0.6410(5)
N11A N -0.7633(6) 1.2167(5) 0.4902(5)
N12A N -0.7479(6) 1.2093(5) 0.7107(5)
N13A N -0.8065(6) 1.1304(5) 0.6303(5)
N15A N -0.9667(5) 1.2820(5) 0.7914(4)
C115A C -0.5746(7) 1.2407(7) 0.8331(7)
C116A C -0.4882(8) 1.2132(7) 0.7212(7)
C113A C -0.6242(9) 0.9558(7) 0.3001(7)
C114A C -0.7454(8) 0.9766(7) 0.3767(7)
C119A C -0.6322(8) 0.7294(7) 0.3262(7)
C120A C -0.7488(8) 0.8198(7) 0.3826(6)
C40A C -0.9506(8) 0.8824(6) 0.8089(6)
C41A C -0.8968(7) 0.8237(6) 0.7092(6)
C58A C -0.6808(8) 0.8476(6) 0.7002(6)
C59A C -0.7949(8) 0.9062(6) 0.7954(6)
C60A C -0.8640(8) 0.6624(6) 0.7360(6)
C61A C -0.7391(8) 0.5846(7) 0.6677(7)
C62A C -0.7207(7) 0.7945(7) 0.6038(6)
C63A C -0.6437(8) 0.6801(7) 0.5637(7)
C38A C -1.0558(7) 1.3243(7) 0.6925(6)
C39A C -0.9664(7) 1.2305(7) 0.6124(6)
C48A C -0.8122(7) 1.2210(6) 0.4753(6)
C49A C -0.6968(7) 1.1637(6) 0.4676(6)
C50A C -0.6761(9) 1.1759(7) 0.6717(7)
C51A C -0.7758(8) 1.2417(6) 0.7688(7)
C52A C -0.8626(7) 1.1245(6) 0.6769(6)
C53A C -0.7371(7) 1.0841(7) 0.6080(6)
C56A C -0.9303(8) 1.2290(7) 0.8080(6)
C57A C -1.0224(9) 1.3376(8) 0.8351(6)
H91A H -0.5861 1.2494 0.8758
C107A C -0.6241(7) 1.2380(7) 0.8215(6)
C108A C -0.5353(8) 1.2050(7) 0.7097(6)
H92A H -0.4424 1.2067 0.6869
H89A H -0.5773 0.9297 0.2630
C105A C -0.6405(8) 1.0114(7) 0.3291(6)
C106A C -0.7615(8) 1.0323(7) 0.4030(7)
H90A H -0.7812 0.9638 0.3934
H95A H -0.5911 0.7012 0.2866
C111A C -0.6313(7) 0.7160(6) 0.3842(6)
C112A C -0.7496(7) 0.8102(6) 0.4378(6)
H96A H -0.7908 0.8551 0.3828
H31A H -0.9456 0.8923 0.8427
C32A C -1.0182(8) 0.9099(7) 0.8168(7)
C33A C -0.9612(7) 0.8479(6) 0.7140(6)
H32A H -0.8535 0.7926 0.6721
H49A H -0.6364 0.8075 0.6760
C80A C -0.6920(8) 0.9027(7) 0.6751(7)
C81A C -0.8098(8) 0.9623(7) 0.7720(6)
H50A H -0.8288 0.9067 0.8374
H51A H -0.9007 0.7067 0.7551
C82A C -0.8850(7) 0.6163(6) 0.7466(6)
C83A C -0.7575(8) 0.5351(7) 0.6748(6)
H52A H -0.6894 0.5745 0.6409
H53A H -0.7470 0.8308 0.6370
C84A C -0.7239(7) 0.8018(7) 0.5472(6)
C85A C -0.6489(8) 0.6870(7) 0.5081(6)
H54A H -0.6159 0.6381 0.5694
H29A H -1.0724 1.3664 0.7111
C30A C -1.1018(8) 1.2999(7) 0.7193(7)
C31A C -1.0099(9) 1.2069(8) 0.6370(7)
H30A H -0.9194 1.2064 0.5747
H39A H -0.8585 1.2599 0.4900
C70A C -0.7944(9) 1.1694(7) 0.4393(7)
C71A C -0.6801(8) 1.1126(7) 0.4304(6)
H40A H -0.6619 1.1615 0.4772
H41A H -0.6569 1.1507 0.6321
C72A C -0.6282(8) 1.1766(7) 0.6867(7)
C73A C -0.7318(8) 1.2446(7) 0.7870(7)
H42A H -0.8276 1.2630 0.7979
H43A H -0.9121 1.1579 0.6909
C74A C -0.8499(7) 1.0717(6) 0.7044(6)
C75A C -0.7185(8) 1.0285(7) 0.6331(8)
H44A H -0.6989 1.0888 0.5738
H47A H -0.8875 1.1919 0.7764
C78A C -0.9557(8) 1.2280(7) 0.8730(6)
C79A C -1.0492(8) 1.3394(7) 0.8988(6)
H48A H -1.0433 1.3762 0.8209
H83A H -0.6723 1.2502 0.8559
C102A C -0.6035(7) 1.2173(7) 0.7585(7)
H84A H -0.5202 1.1905 0.6670
H81A H -0.6037 1.0230 0.3128
C101A C -0.7081(8) 1.0514(6) 0.3810(6)
H82A H -0.8101 1.0602 0.4375
H87A H -0.5907 0.6786 0.3837
C104A C -0.6897(7) 0.7579(6) 0.4394(5)
H88A H -0.7917 0.8395 0.4765
H23A H -1.0599 0.9404 0.8549
C27A C -1.0280(8) 0.8943(7) 0.7697(6)
H24A H -0.9640 0.8347 0.6800
H71A H -0.6554 0.9004 0.6338
C96A C -0.7589(8) 0.9632(7) 0.7113(7)
H72A H -0.8554 1.0012 0.7975
H73A H -0.9351 0.6284 0.7751
C97A C -0.8313(8) 0.5520(6) 0.7149(6)
H74A H -0.7202 0.4917 0.6527
H75A H -0.7508 0.8439 0.5410
C98A C -0.6881(7) 0.7479(7) 0.5005(6)
H76A H -0.6257 0.6501 0.4766
H21A H -1.1486 1.3242 0.7570
C26A C -1.0807(7) 1.2419(7) 0.6923(6)
H22A H -0.9938 1.1653 0.6173
H61A H -0.8294 1.1727 0.4293
C91A C -0.7278(8) 1.1117(7) 0.4160(6)
H62A H -0.6322 1.0752 0.4134
H63A H -0.5766 1.1519 0.6570
C92A C -0.6526(7) 1.2120(7) 0.7438(6)
H64A H -0.7530 1.2680 0.8282
H65A H -0.8904 1.0693 0.7380
C93A C -0.7779(8) 1.0214(6) 0.6836(6)
H66A H -0.6682 0.9961 0.6176
H69A H -0.9315 1.1894 0.8856
C95A C -1.0157(7) 1.2830(6) 0.9191(5)
H70A H -1.0900 1.3783 0.9291
C22A C -1.0983(7) 0.9276(6) 0.7706(5)
C103A C -0.8480(8) 0.4998(7) 0.7232(6)
C21A C -1.1293(7) 1.2130(6) 0.7190(6)
C100A C -1.0452(7) 1.2781(6) 0.9878(6)
C13A C -1.1659(8) 0.9450(7) 0.8260(7)
C14A C -1.1025(7) 0.9475(7) 0.7162(6)
C109A C -0.9144(8) 0.5101(7) 0.7345(7)
C110A C -0.7968(9) 0.4384(7) 0.7189(7)
C11A C -1.1902(8) 1.2369(6) 0.7814(6)
C12A C -1.1132(8) 1.1569(7) 0.6855(6)
C88A C -1.0815(8) 1.3294(7) 1.0369(6)
C89A C -1.0420(8) 1.2207(7) 1.0041(6)
C3A C -1.2322(7) 0.9827(6) 0.8283(6)
H13A H -1.1659 0.9302 0.8633
H14A H -1.0584 0.9347 0.6762
C4A C -1.1714(6) 0.9861(6) 0.7208(5)
C117A C -0.9296(7) 0.4604(6) 0.7412(6)
H85A H -0.9512 0.5526 0.7378
H86A H -0.7511 0.4301 0.7130
C118A C -0.8097(8) 0.3876(7) 0.7228(7)
C1A C -1.2333(7) 1.2082(7) 0.8065(7)
H11A H -1.2023 1.2732 0.8070
H12A H -1.0714 1.1381 0.6435
C2A C -1.1551(7) 1.1290(6) 0.7111(6)
C66A C -1.1084(7) 1.3236(7) 1.0981(6)
H79A H -1.0877 1.3701 1.0269
H80A H -1.0179 1.1845 0.9715
C67A C -1.0738(7) 1.2160(6) 1.0674(5)
N2A N -1.2326(6) 1.0026(5) 0.7765(5)
H3A H -1.2773 0.9944 0.8668
H4A H -1.1743 1.0003 0.6843
N23A N -0.8768(6) 0.4003(5) 0.7340(5)
H93A H -0.9768 0.4691 0.7507
H94A H -0.7724 0.3447 0.7178
N1A N -1.2137(5) 1.1550(5) 0.7714(5)
H1A H -1.2760 1.2262 0.8481
H2A H -1.1435 1.0920 0.6870
N20A N -1.1060(5) 1.2672(5) 1.1139(5)
H57A H -1.1292 1.3587 1.1305
H58A H -1.0732 1.1772 1.0785
O2A O -1.2972(5) 1.0407(4) 0.7799(4)
O19A_2 O -0.8874(5) 0.3505(4) 0.7355(4)
O1A O -1.2529(5) 1.1258(4) 0.7945(4)
O24_2 O -1.1345(5) 1.2607(4) 1.1734(4)
Er1A_3 Er -1.36359(3) 1.15476(3) 0.80109(2)
Er2A_3 Er -0.85074(3) 0.28508(3) 0.64381(2)
Er3_3 Er -1.25530(3) 1.28060(3) 1.23961(2)
O3A O -1.3823(5) 1.1301(4) 0.9019(4)
O5A O -1.4032(4) 1.2480(4) 0.8668(4)
O4A_2 O -1.4544(5) 1.1277(4) 0.8392(4)
O6A_2 O -1.3421(5) 1.1203(4) 0.7028(4)
O7A_2 O -1.4642(4) 1.2384(4) 0.7950(4)
O8A_2 O -1.3116(5) 1.2091(4) 0.7278(4)
O11A_2 O -1.2395(5) 1.2840(4) 1.1380(3)
N3A N -1.3669(6) 1.1508(5) 0.9396(5)
N5A N -1.4473(6) 1.3082(5) 0.8624(5)
N8A N -1.2646(6) 1.2630(5) 1.1117(5)
C5A C -1.2967(7) 1.1205(6) 0.9265(6)
C6A C -1.4206(7) 1.2021(7) 0.9866(6)
C9A C -1.4171(8) 1.3383(7) 0.8217(6)
C10A C -1.5209(7) 1.3350(6) 0.8999(7)
C42A C -1.2202(8) 1.2009(7) 1.0775(7)
C43A C -1.3314(8) 1.3016(7) 1.1173(7)
H5A H -1.2592 1.0849 0.8914
C15A C -1.2791(8) 1.1407(7) 0.9636(6)
C16A C -1.4036(7) 1.2238(7) 1.0246(7)
H6A H -1.4697 1.2236 0.9944
H9A H -1.3650 1.3200 0.7988
C19A C -1.4617(7) 1.3959(6) 0.8130(5)
C20A C -1.5666(8) 1.3909(7) 0.8927(6)
H10A H -1.5404 1.3139 0.9317
H33A H -1.1736 1.1737 1.0745
C34A C -1.2431(7) 1.1777(7) 1.0471(6)
C35A C -1.3571(8) 1.2839(7) 1.0897(6)
H34A H -1.3615 1.3440 1.1428
H15A H -1.2296 1.1171 0.9550
C23A C -1.3307(7) 1.1943(6) 1.0131(6)
H16A H -1.4423 1.2596 1.0593
H19A H -1.4399 1.4177 0.7842
C25A C -1.5387(7) 1.4240(6) 0.8454(6)
H20A H -1.6185 1.4091 0.9193
H25A H -1.2129 1.1340 1.0246
C28A C -1.3106(7) 1.2182(6) 1.0493(6)
H26A H -1.4048 1.3128 1.0954
C29A C -1.5884(7) 1.4795(6) 0.8293(6)
C36A C -1.6570(9) 1.5242(7) 0.8724(7)
C37A C -1.5671(8) 1.4817(7) 0.7659(6)
C44A C -1.7052(8) 1.5735(7) 0.8566(6)
H27A H -1.6739 1.5223 0.9163
H28A H -1.5189 1.4497 0.7337
C45A C -1.6130(7) 1.5284(7) 0.7482(6)
N9A N -1.6828(6) 1.5738(5) 0.7943(5)
H35A H -1.7527 1.6061 0.8889
H36A H -1.5967 1.5295 0.7043
O12A_2 O -1.7274(5) 1.6169(4) 0.7762(4)
Er3A_3 Er -1.74470(3) 1.71940(3) 0.76039(2)
loop_
_geom_bond_atom_site_label_1
_geom_bond_atom_site_label_2
_geom_bond_site_symmetry_1
_geom_bond_site_symmetry_2
Er1 O1 1_555 1_555
O1 N1 1_555 1_555
O2 Er1 1_555 1_555
O3 Er1 1_555 1_555
O4 Er1 1_555 1_555
O5 Er1 1_555 1_555
O6 Er1 1_555 1_555
O7 Er1 1_555 1_555
O8 Er1 1_555 1_555
N1 C1 1_555 1_555
N2 O2 1_555 1_555
N3 O3 1_555 1_555
N4 O4 1_555 1_555
N5 O5 1_555 1_555
C1 H1 1_555 1_555
C2 N1 1_555 1_555
C3 N2 1_555 1_555
C4 N2 1_555 1_555
C5 N3 1_555 1_555
C6 N3 1_555 1_555
C7 N4 1_555 1_555
C8 N4 1_555 1_555
C9 N5 1_555 1_555
C10 N5 1_555 1_555
C11 C1 1_555 1_555
C12 C2 1_555 1_555
H2 C2 1_555 1_555
H3 C3 1_555 1_555
C13 C3 1_555 1_555
C14 C4 1_555 1_555
H4 C4 1_555 1_555
H5 C5 1_555 1_555
C15 C5 1_555 1_555
C16 C6 1_555 1_555
H6 C6 1_555 1_555
H7 C7 1_555 1_555
C17 C7 1_555 1_555
C18 C8 1_555 1_555
H8 C8 1_555 1_555
H9 C9 1_555 1_555
C19 C9 1_555 1_555
C20 C10 1_555 1_555
H10 C10 1_555 1_555
H11 C11 1_555 1_555
C21 C11 1_555 1_555
H12 C12 1_555 1_555
H13 C13 1_555 1_555
C22 C13 1_555 1_555
H14 C14 1_555 1_555
H15 C15 1_555 1_555
C23 C15 1_555 1_555
H16 C16 1_555 1_555
H17 C17 1_555 1_555
C24 C17 1_555 1_555
H18 C18 1_555 1_555
H19 C19 1_555 1_555
C25 C19 1_555 1_555
H20 C20 1_555 1_555
C26 C21 1_555 1_555
C27 C22 1_555 1_555
C28 C23 1_555 1_555
C29 C25 1_555 1_555
C30 C26 1_555 1_555
C31 C26 1_555 1_555
C32 C27 1_555 1_555
C33 C27 1_555 1_555
C34 C28 1_555 1_555
C35 C28 1_555 1_555
C36 C29 1_555 1_555
C37 C29 1_555 1_555
C38 C30 1_555 1_555
H21 C30 1_555 1_555
H22 C31 1_555 1_555
C39 C31 1_555 1_555
C40 C32 1_555 1_555
H23 C32 1_555 1_555
H24 C33 1_555 1_555
C41 C33 1_555 1_555
C42 C34 1_555 1_555
H25 C34 1_555 1_555
H26 C35 1_555 1_555
C43 C35 1_555 1_555
C44 C36 1_555 1_555
H27 C36 1_555 1_555
H28 C37 1_555 1_555
C45 C37 1_555 1_555
N6 C38 1_555 1_555
H29 C38 1_555 1_555
H30 C39 1_555 1_555
N7 C40 1_555 1_555
H31 C40 1_555 1_555
H32 C41 1_555 1_555
N8 C42 1_555 1_555
H33 C42 1_555 1_555
H34 C43 1_555 1_555
N9 C44 1_555 1_555
H35 C44 1_555 1_555
H36 C45 1_555 1_555
O9 N6 1_555 1_555
O10 N7 1_555 1_555
O11 N8 1_555 1_555
O12 N9 1_555 1_555
Er2 O9 1_555 1_555
Er3 O10 1_555 1_555
O13 Er2 1_555 1_555
O14 Er2 1_555 1_555
O15 Er2 1_555 1_555
O16 Er2 1_555 1_555
O17 Er2 1_555 1_555
O18 Er2 1_555 1_555
O19 Er2 1_555 1_555
O20 Er3 1_555 1_555
O21 Er3 1_555 1_555
O22 Er3 1_555 1_555
O23 Er3 1_555 1_555
O24 Er3 1_555 1_555
N10 O13 1_555 1_555
N11 O14 1_555 1_555
N12 O15 1_555 1_555
N13 O16 1_555 1_555
N14 O17 1_555 1_555
N15 O18 1_555 1_555
N16 O20 1_555 1_555
N17 O21 1_555 1_555
N18 O22 1_555 1_555
N19 O23 1_555 1_555
N20 C66 1_555 1_555
C46 N10 1_555 1_555
C47 N10 1_555 1_555
C48 N11 1_555 1_555
C49 N11 1_555 1_555
C50 N12 1_555 1_555
C51 N12 1_555 1_555
C52 N13 1_555 1_555
C53 N13 1_555 1_555
C54 N14 1_555 1_555
C55 N14 1_555 1_555
C56 N15 1_555 1_555
C57 N15 1_555 1_555
C58 N16 1_555 1_555
C59 N16 1_555 1_555
C60 N17 1_555 1_555
C61 N17 1_555 1_555
C62 N18 1_555 1_555
C63 N18 1_555 1_555
C64 N19 1_555 1_555
C65 N19 1_555 1_555
C66 H57 1_555 1_555
C67 N20 1_555 1_555
H37 C46 1_555 1_555
C68 C46 1_555 1_555
C69 C47 1_555 1_555
H38 C47 1_555 1_555
H39 C48 1_555 1_555
C70 C48 1_555 1_555
C71 C49 1_555 1_555
H40 C49 1_555 1_555
H41 C50 1_555 1_555
C72 C50 1_555 1_555
C73 C51 1_555 1_555
H42 C51 1_555 1_555
H43 C52 1_555 1_555
C74 C52 1_555 1_555
C75 C53 1_555 1_555
H44 C53 1_555 1_555
H45 C54 1_555 1_555
C76 C54 1_555 1_555
C77 C55 1_555 1_555
H46 C55 1_555 1_555
H47 C56 1_555 1_555
C78 C56 1_555 1_555
C79 C57 1_555 1_555
H48 C57 1_555 1_555
H49 C58 1_555 1_555
C80 C58 1_555 1_555
C81 C59 1_555 1_555
H50 C59 1_555 1_555
H51 C60 1_555 1_555
C82 C60 1_555 1_555
C83 C61 1_555 1_555
H52 C61 1_555 1_555
H53 C62 1_555 1_555
C84 C62 1_555 1_555
C85 C63 1_555 1_555
H54 C63 1_555 1_555
H55 C64 1_555 1_555
C86 C64 1_555 1_555
C87 C65 1_555 1_555
H56 C65 1_555 1_555
C88 C66 1_555 1_555
C89 C67 1_555 1_555
H58 C67 1_555 1_555
H59 C68 1_555 1_555
C90 C68 1_555 1_555
H60 C69 1_555 1_555
H61 C70 1_555 1_555
C91 C70 1_555 1_555
H62 C71 1_555 1_555
H63 C72 1_555 1_555
C92 C72 1_555 1_555
H64 C73 1_555 1_555
H65 C74 1_555 1_555
C93 C74 1_555 1_555
H66 C75 1_555 1_555
H67 C76 1_555 1_555
C94 C76 1_555 1_555
H68 C77 1_555 1_555
H69 C78 1_555 1_555
C95 C78 1_555 1_555
H70 C79 1_555 1_555
H71 C80 1_555 1_555
C96 C80 1_555 1_555
H72 C81 1_555 1_555
H73 C82 1_555 1_555
C97 C82 1_555 1_555
H74 C83 1_555 1_555
H75 C84 1_555 1_555
C98 C84 1_555 1_555
H76 C85 1_555 1_555
H77 C86 1_555 1_555
C99 C86 1_555 1_555
H78 C87 1_555 1_555
H79 C88 1_555 1_555
C100 C88 1_555 1_555
H80 C89 1_555 1_555
C101 C91 1_555 1_555
C102 C92 1_555 1_555
C103 C97 1_555 1_555
C104 C98 1_555 1_555
C105 C101 1_555 1_555
C106 C101 1_555 1_555
C107 C102 1_555 1_555
C108 C102 1_555 1_555
C109 C103 1_555 1_555
C110 C103 1_555 1_555
C111 C104 1_555 1_555
C112 C104 1_555 1_555
C113 C105 1_555 1_555
H81 C105 1_555 1_555
H82 C106 1_555 1_555
C114 C106 1_555 1_555
C115 C107 1_555 1_555
H83 C107 1_555 1_555
H84 C108 1_555 1_555
C116 C108 1_555 1_555
C117 C109 1_555 1_555
H85 C109 1_555 1_555
H86 C110 1_555 1_555
C118 C110 1_555 1_555
C119 C111 1_555 1_555
H87 C111 1_555 1_555
H88 C112 1_555 1_555
C120 C112 1_555 1_555
N21 C113 1_555 1_555
H89 C113 1_555 1_555
H90 C114 1_555 1_555
N22 C115 1_555 1_555
H91 C115 1_555 1_555
H92 C116 1_555 1_555
N23 C117 1_555 1_555
H93 C117 1_555 1_555
H94 C118 1_555 1_555
N24 C119 1_555 1_555
H95 C119 1_555 1_555
H96 C120 1_555 1_555
S1 O25 1_555 1_555
O26 S1 1_555 1_555
O27 S1 1_555 1_555
C121 S1 1_555 1_555
F1 C121 1_555 1_555
F2 C121 1_555 1_555
F3 C121 1_555 1_555
S2 O28 1_555 1_555
O29 S2 1_555 1_555
O30 S2 1_555 1_555
C122 S2 1_555 1_555
F4 C122 1_555 1_555
F5 C122 1_555 1_555
F6 C122 1_555 1_555
S3 O31 1_555 1_555
O32 S3 1_555 1_555
O33 S3 1_555 1_555
C123 S3 1_555 1_555
F7 C123 1_555 1_555
F8 C123 1_555 1_555
F9 C123 1_555 1_555
S4 O34 1_555 1_555
O35 S4 1_555 1_555
O36 S4 1_555 1_555
C124 S4 1_555 1_555
F10 C124 1_555 1_555
F11 C124 1_555 1_555
F12 C124 1_555 1_555
S5 O37 1_555 1_555
O38 S5 1_555 1_555
O39 S5 1_555 1_555
C125 S5 1_555 1_555
F13 C125 1_555 1_555
F14 C125 1_555 1_555
F15 C125 1_555 1_555
C24A C24 1_555 1_555
C17A C24A 1_555 1_555
C18A C24A 1_555 1_555
C7A C17A 1_555 1_555
H17A C17A 1_555 1_555
H18A C18A 1_555 1_555
C8A C18A 1_555 1_555
N4A C7A 1_555 1_555
H7A C7A 1_555 1_555
H8A C8A 1_555 1_555
O4A N4A 1_555 1_555
Er3A O11 1_555 1_555
Er1A O4A 1_555 1_555
Er3_2 O12 1_555 1_555
O11A Er3 1_555 1_555
O12_2 Er3 1_555 1_555
O24A N20 1_555 1_555
C90A C90 1_555 1_555
C99A C94 1_555 1_555
C94A C99 1_555 1_555
C68A C90A 1_555 1_555
C69A C90A 1_555 1_555
C86A C99A 1_555 1_555
C87A C99A 1_555 1_555
C76A C94A 1_555 1_555
C77A C94A 1_555 1_555
C46A C68A 1_555 1_555
H59A C68A 1_555 1_555
H60A C69A 1_555 1_555
C47A C69A 1_555 1_555
C64A C86A 1_555 1_555
H77A C86A 1_555 1_555
H78A C87A 1_555 1_555
C65A C87A 1_555 1_555
C54A C76A 1_555 1_555
H67A C76A 1_555 1_555
H68A C77A 1_555 1_555
C55A C77A 1_555 1_555
N10A C46A 1_555 1_555
H37A C46A 1_555 1_555
H38A C47A 1_555 1_555
H55A C64A 1_555 1_555
N19A C64A 1_555 1_555
H56A C65A 1_555 1_555
N14A C54A 1_555 1_555
H45A C54A 1_555 1_555
H46A C55A 1_555 1_555
O13A N10A 1_555 1_555
O6A N21 1_555 1_555
O7_2 N22 1_555 1_555
O23A N19A 1_555 1_555
O19_2 N23 1_555 1_555
O8A N24 1_555 1_555
O17A N14A 1_555 1_555
Er2A O13A 1_555 1_555
Er1A_2 O6A 1_555 1_555
Er1_2 O7_2 1_555 1_555
Er3A_2 O23A 1_555 1_555
Er2_2 O19_2 1_555 1_555
Er2A_2 O17A 1_555 1_555
O7A Er1A_2 1_555 1_555
O6_2 Er1_2 1_555 1_555
O8_2 Er1_2 1_555 1_555
O10A Er3A_2 1_555 1_555
O20A Er3A_2 1_555 1_555
O21A Er3A_2 1_555 1_555
O22A Er3A_2 1_555 1_555
O11_2 Er3A_2 1_555 1_555
O12A Er3A_2 1_555 1_555
O24A_2 Er3A_2 1_555 1_555
O9A Er2A_2 1_555 1_555
O14A Er2A_2 1_555 1_555
O15A Er2A_2 1_555 1_555
O16A Er2A_2 1_555 1_555
O18A Er2A_2 1_555 1_555
O13A_2 Er2A_2 1_555 1_555
O19A Er2A_2 1_555 1_555
N22A O7A 1_555 1_555
N21A O6_2 1_555 1_555
N24A O8_2 1_555 1_555
N7A O10A 1_555 1_555
N16A O20A 1_555 1_555
N17A O21A 1_555 1_555
N18A O22A 1_555 1_555
N6A O9A 1_555 1_555
N11A O14A 1_555 1_555
N12A O15A 1_555 1_555
N13A O16A 1_555 1_555
N15A O18A 1_555 1_555
C115A N22A 1_555 1_555
C116A N22A 1_555 1_555
C113A N21A 1_555 1_555
C114A N21A 1_555 1_555
C119A N24A 1_555 1_555
C120A N24A 1_555 1_555
C40A N7A 1_555 1_555
C41A N7A 1_555 1_555
C58A N16A 1_555 1_555
C59A N16A 1_555 1_555
C60A N17A 1_555 1_555
C61A N17A 1_555 1_555
C62A N18A 1_555 1_555
C63A N18A 1_555 1_555
C38A N6A 1_555 1_555
C39A N6A 1_555 1_555
C48A N11A 1_555 1_555
C49A N11A 1_555 1_555
C50A N12A 1_555 1_555
C51A N12A 1_555 1_555
C52A N13A 1_555 1_555
C53A N13A 1_555 1_555
C56A N15A 1_555 1_555
C57A N15A 1_555 1_555
H91A C115A 1_555 1_555
C107A C115A 1_555 1_555
C108A C116A 1_555 1_555
H92A C116A 1_555 1_555
H89A C113A 1_555 1_555
C105A C113A 1_555 1_555
C106A C114A 1_555 1_555
H90A C114A 1_555 1_555
H95A C119A 1_555 1_555
C111A C119A 1_555 1_555
C112A C120A 1_555 1_555
H96A C120A 1_555 1_555
H31A C40A 1_555 1_555
C32A C40A 1_555 1_555
C33A C41A 1_555 1_555
H32A C41A 1_555 1_555
H49A C58A 1_555 1_555
C80A C58A 1_555 1_555
C81A C59A 1_555 1_555
H50A C59A 1_555 1_555
H51A C60A 1_555 1_555
C82A C60A 1_555 1_555
C83A C61A 1_555 1_555
H52A C61A 1_555 1_555
H53A C62A 1_555 1_555
C84A C62A 1_555 1_555
C85A C63A 1_555 1_555
H54A C63A 1_555 1_555
H29A C38A 1_555 1_555
C30A C38A 1_555 1_555
C31A C39A 1_555 1_555
H30A C39A 1_555 1_555
H39A C48A 1_555 1_555
C70A C48A 1_555 1_555
C71A C49A 1_555 1_555
H40A C49A 1_555 1_555
H41A C50A 1_555 1_555
C72A C50A 1_555 1_555
C73A C51A 1_555 1_555
H42A C51A 1_555 1_555
H43A C52A 1_555 1_555
C74A C52A 1_555 1_555
C75A C53A 1_555 1_555
H44A C53A 1_555 1_555
H47A C56A 1_555 1_555
C78A C56A 1_555 1_555
C79A C57A 1_555 1_555
H48A C57A 1_555 1_555
H83A C107A 1_555 1_555
C102A C107A 1_555 1_555
H84A C108A 1_555 1_555
H81A C105A 1_555 1_555
C101A C105A 1_555 1_555
H82A C106A 1_555 1_555
H87A C111A 1_555 1_555
C104A C111A 1_555 1_555
H88A C112A 1_555 1_555
H23A C32A 1_555 1_555
C27A C32A 1_555 1_555
H24A C33A 1_555 1_555
H71A C80A 1_555 1_555
C96A C80A 1_555 1_555
H72A C81A 1_555 1_555
H73A C82A 1_555 1_555
C97A C82A 1_555 1_555
H74A C83A 1_555 1_555
H75A C84A 1_555 1_555
C98A C84A 1_555 1_555
H76A C85A 1_555 1_555
H21A C30A 1_555 1_555
C26A C30A 1_555 1_555
H22A C31A 1_555 1_555
H61A C70A 1_555 1_555
C91A C70A 1_555 1_555
H62A C71A 1_555 1_555
H63A C72A 1_555 1_555
C92A C72A 1_555 1_555
H64A C73A 1_555 1_555
H65A C74A 1_555 1_555
C93A C74A 1_555 1_555
H66A C75A 1_555 1_555
H69A C78A 1_555 1_555
C95A C78A 1_555 1_555
H70A C79A 1_555 1_555
C22A C27A 1_555 1_555
C103A C97A 1_555 1_555
C21A C26A 1_555 1_555
C100A C95A 1_555 1_555
C13A C22A 1_555 1_555
C14A C22A 1_555 1_555
C109A C103A 1_555 1_555
C110A C103A 1_555 1_555
C11A C21A 1_555 1_555
C12A C21A 1_555 1_555
C88A C100A 1_555 1_555
C89A C100A 1_555 1_555
C3A C13A 1_555 1_555
H13A C13A 1_555 1_555
H14A C14A 1_555 1_555
C4A C14A 1_555 1_555
C117A C109A 1_555 1_555
H85A C109A 1_555 1_555
H86A C110A 1_555 1_555
C118A C110A 1_555 1_555
C1A C11A 1_555 1_555
H11A C11A 1_555 1_555
H12A C12A 1_555 1_555
C2A C12A 1_555 1_555
C66A C88A 1_555 1_555
H79A C88A 1_555 1_555
H80A C89A 1_555 1_555
C67A C89A 1_555 1_555
N2A C3A 1_555 1_555
H3A C3A 1_555 1_555
H4A C4A 1_555 1_555
N23A C117A 1_555 1_555
H93A C117A 1_555 1_555
H94A C118A 1_555 1_555
N1A C1A 1_555 1_555
H1A C1A 1_555 1_555
H2A C2A 1_555 1_555
N20A C66A 1_555 1_555
H57A C66A 1_555 1_555
H58A C67A 1_555 1_555
O2A N2A 1_555 1_555
O19A_2 N23A 1_555 1_555
O1A N1A 1_555 1_555
O24_2 N20A 1_555 1_555
Er1A_3 O2A 1_555 1_555
Er2A_3 O19A_2 1_555 1_555
Er3_3 O24_2 1_555 1_555
O3A Er1A_3 1_555 1_555
O5A Er1A_3 1_555 1_555
O4A_2 Er1A_3 1_555 1_555
O6A_2 Er1A_3 1_555 1_555
O7A_2 Er1A_3 1_555 1_555
O8A_2 Er1A_3 1_555 1_555
O11A_2 Er3_3 1_555 1_555
N3A O3A 1_555 1_555
N5A O5A 1_555 1_555
N8A O11A_2 1_555 1_555
C5A N3A 1_555 1_555
C6A N3A 1_555 1_555
C9A N5A 1_555 1_555
C10A N5A 1_555 1_555
C42A N8A 1_555 1_555
C43A N8A 1_555 1_555
H5A C5A 1_555 1_555
C15A C5A 1_555 1_555
C16A C6A 1_555 1_555
H6A C6A 1_555 1_555
H9A C9A 1_555 1_555
C19A C9A 1_555 1_555
C20A C10A 1_555 1_555
H10A C10A 1_555 1_555
H33A C42A 1_555 1_555
C34A C42A 1_555 1_555
C35A C43A 1_555 1_555
H34A C43A 1_555 1_555
H15A C15A 1_555 1_555
C23A C15A 1_555 1_555
H16A C16A 1_555 1_555
H19A C19A 1_555 1_555
C25A C19A 1_555 1_555
H20A C20A 1_555 1_555
H25A C34A 1_555 1_555
C28A C34A 1_555 1_555
H26A C35A 1_555 1_555
C29A C25A 1_555 1_555
C36A C29A 1_555 1_555
C37A C29A 1_555 1_555
C44A C36A 1_555 1_555
H27A C36A 1_555 1_555
H28A C37A 1_555 1_555
C45A C37A 1_555 1_555
N9A C44A 1_555 1_555
H35A C44A 1_555 1_555
H36A C45A 1_555 1_555
O12A_2 N9A 1_555 1_555
Er3A_3 O12A_2 1_555 1_555
C12 C21 1_555 1_555
C14 C22 1_555 1_555
C16 C23 1_555 1_555
C18 C24 1_555 1_555
C20 C25 1_555 1_555
C39 N6 1_555 1_555
C41 N7 1_555 1_555
C43 N8 1_555 1_555
C45 N9 1_555 1_555
C69 C90 1_555 1_555
C71 C91 1_555 1_555
C73 C92 1_555 1_555
C75 C93 1_555 1_555
C77 C94 1_555 1_555
C79 C95 1_555 1_555
C81 C96 1_555 1_555
C83 C97 1_555 1_555
C85 C98 1_555 1_555
C87 C99 1_555 1_555
C89 C100 1_555 1_555
C93 C96 1_555 1_555
C95 C100 1_555 1_555
C114 N21 1_555 1_555
C116 N22 1_555 1_555
C118 N23 1_555 1_555
C120 N24 1_555 1_555
C8A N4A 1_555 1_555
Er3A O24A 1_555 1_555
C47A N10A 1_555 1_555
C65A N19A 1_555 1_555
C55A N14A 1_555 1_555
O8A Er1A_2 1_555 1_555
C108A C102A 1_555 1_555
C106A C101A 1_555 1_555
C112A C104A 1_555 1_555
C33A C27A 1_555 1_555
C81A C96A 1_555 1_555
C83A C97A 1_555 1_555
C85A C98A 1_555 1_555
C31A C26A 1_555 1_555
C71A C91A 1_555 1_555
C73A C92A 1_555 1_555
C75A C93A 1_555 1_555
C79A C95A 1_555 1_555
C102A C92A 1_555 1_555
C101A C91A 1_555 1_555
C104A C98A 1_555 1_555
C96A C93A 1_555 1_555
C4A N2A 1_555 1_555
C118A N23A 1_555 1_555
C2A N1A 1_555 1_555
C67A N20A 1_555 1_555
O1A Er1A_3 1_555 1_555
C16A C23A 1_555 1_555
C20A C25A 1_555 1_555
C35A C28A 1_555 1_555
C23A C28A 1_555 1_555
C45A N9A 1_555 1_555

#END
