
#######################################################################
#
#                 Cambridge Crystallographic Data Centre
#                                CCDC 
#
#######################################################################
#
# If this CIF has been generated from an entry in the Cambridge 
# Structural Database, then it will include bibliographic, chemical, 
# crystal, experimental, refinement or atomic coordinate data resulting 
# from the CCDC's data processing and validation procedures.
#
#######################################################################

data_EBITAL01
_chemical_formula_moiety         '(C3 H16 Be3 N2 O12 P4)n'
_symmetry_cell_setting           monoclinic
_symmetry_space_group_name_H-M   'P 21/c'
_symmetry_Int_Tables_number      14
_space_group_name_Hall           '-P 2ybc'
loop_
_symmetry_equiv_pos_site_id
_symmetry_equiv_pos_as_xyz
1 x,y,z
2 -x,1/2+y,1/2-z
3 -x,-y,-z
4 x,1/2-y,1/2+z
_cell_length_a                   8.6032(16)
_cell_length_b                   13.223(2)
_cell_length_c                   13.481(2)
_cell_angle_alpha                90
_cell_angle_beta                 92.386(9)
_cell_angle_gamma                90
_cell_volume                     1532.27
loop_
_atom_site_label
_atom_site_type_symbol
_atom_site_fract_x
_atom_site_fract_y
_atom_site_fract_z
Be1 Be 0.4203(8) 0.1196(5) 0.7501(5)
Be2 Be 0.6768(7) 0.3263(5) 0.9041(5)
Be3 Be 0.8418(7) 0.5039(5) 1.2584(5)
P1 P 0.65881(15) 0.10076(9) 0.90597(9)
H1 H 0.6427 0.0750 1.0009
P2 P 0.39464(15) 0.34009(10) 0.77125(10)
H2 H 0.4660 0.3846 0.6985
P3 P 0.81356(14) 0.45396(10) 0.75046(9)
H3 H 0.7377 0.4152 0.6734
P4 P 0.69030(16) 0.36229(11) 1.12333(10)
H4 H 0.6984 0.2645 1.1386
O1 O 0.7758(4) 0.0280(3) 0.8651(2)
O2 O 0.4981(4) 0.0937(3) 0.8565(3)
O3 O 0.7235(4) 0.2076(3) 0.9085(3)
O4 O 0.3577(5) 0.2337(3) 0.7402(3)
O5 O 0.4980(4) 0.3446(3) 0.8646(3)
O6 O 0.2438(4) 0.3959(3) 0.7874(3)
O7 O 0.7349(5) 0.5528(3) 0.7713(3)
O8 O 0.9769(4) 0.4700(3) 0.7209(3)
O9 O 0.8034(5) 0.3788(3) 0.8331(3)
O10 O 0.6999(5) 0.3794(3) 1.0123(3)
O11 O 0.8268(4) 0.4104(3) 1.1798(3)
O12 O 0.5346(4) 0.3986(3) 1.1590(3)
Be1A Be 0.5797(8) 0.6196(5) 0.7499(5)
Be1C Be 0.4203(8) 0.3804(5) 1.2501(5)
Be3B Be 0.1582(7) 0.4961(5) 0.7416(5)
Be3B_2 Be 1.1582(7) 0.4961(5) 0.7416(5)
Be3C Be 0.8418(7) -0.0039(5) 0.7584(5)
O1C O 0.7758(4) 0.4720(3) 1.3651(2)
O6B O 0.7562(4) 0.6041(3) 1.2126(3)
O7A O 0.2651(5) 0.0528(3) 0.7287(3)
O8B O 1.0231(4) 0.5300(3) 1.2791(3)
O12C O 0.5346(4) 0.1014(3) 0.6590(3)
C1 C 0.1351(9) 0.3136(5) 0.4423(5)
H5 H 0.2459 0.3063 0.4334
H6 H 0.1161 0.3831 0.4613
C2 C 0.0889(9) 0.2453(5) 0.5242(5)
H7 H -0.0203 0.2571 0.5354
H8 H 0.1470 0.2654 0.5842
C3 C 0.1113(7) 0.1330(5) 0.5105(5)
H9 H 0.0548 0.0982 0.5611
H10 H 0.0637 0.1141 0.4466
N1 N 0.0494(5) 0.2925(4) 0.3453(4)
H11 H 0.0776 0.2323 0.3227
H12 H 0.0724 0.3400 0.3015
H13 H -0.0525 0.2928 0.3542
N2 N 0.2734(5) 0.0949(4) 0.5148(4)
H14 H 0.3243 0.1204 0.4644
H15 H 0.2728 0.0277 0.5106
H16 H 0.3206 0.1136 0.5718
loop_
_geom_bond_atom_site_label_1
_geom_bond_atom_site_label_2
_geom_bond_site_symmetry_1
_geom_bond_site_symmetry_2
Be1 O2 1_555 1_555
Be2 O3 1_555 1_555
Be3 O11 1_555 1_555
P1 H1 1_555 1_555
P2 H2 1_555 1_555
P3 H3 1_555 1_555
P4 H4 1_555 1_555
O1 P1 1_555 1_555
O2 P1 1_555 1_555
O3 P1 1_555 1_555
O4 Be1 1_555 1_555
O5 Be2 1_555 1_555
O6 P2 1_555 1_555
O7 P3 1_555 1_555
O8 P3 1_555 1_555
O9 Be2 1_555 1_555
O10 Be2 1_555 1_555
O11 P4 1_555 1_555
O12 P4 1_555 1_555
C1 H5 1_555 1_555
H6 C1 1_555 1_555
C2 C1 1_555 1_555
H7 C2 1_555 1_555
H8 C2 1_555 1_555
C3 C2 1_555 1_555
H9 C3 1_555 1_555
H10 C3 1_555 1_555
N1 C1 1_555 1_555
H11 N1 1_555 1_555
H12 N1 1_555 1_555
H13 N1 1_555 1_555
N2 C3 1_555 1_555
H14 N2 1_555 1_555
H15 N2 1_555 1_555
H16 N2 1_555 1_555
Be1A O7 1_555 1_555
Be1C O12 1_555 1_555
Be3B O6 1_555 1_555
Be3B_2 O8 1_555 1_555
Be3C O1 1_555 1_555
O1C Be3 1_555 1_555
O6B Be3 1_555 1_555
O7A Be1 1_555 1_555
O8B Be3 1_555 1_555
O12C Be1 1_555 1_555
P2 O4 1_555 1_555
P2 O5 1_555 1_555
P3 O9 1_555 1_555
P4 O10 1_555 1_555

#END
