
#######################################################################
#
#                 Cambridge Crystallographic Data Centre
#                                CCDC 
#
#######################################################################
#
# If this CIF has been generated from an entry in the Cambridge 
# Structural Database, then it will include bibliographic, chemical, 
# crystal, experimental, refinement or atomic coordinate data resulting 
# from the CCDC's data processing and validation procedures.
#
#######################################################################

data_KOJCUI
_chemical_formula_moiety         '(C14 H7 Mn1 N3 O8)n'
_symmetry_cell_setting           orthorhombic
_symmetry_space_group_name_H-M   'I b a 2'
_symmetry_Int_Tables_number      45
_space_group_name_Hall           'I 2 -2c'
loop_
_symmetry_equiv_pos_site_id
_symmetry_equiv_pos_as_xyz
1 x,y,z
2 -x,-y,z
3 -x,y,1/2+z
4 x,-y,1/2+z
5 1/2+x,1/2+y,1/2+z
6 1/2-x,1/2-y,1/2+z
7 1/2-x,1/2+y,z
8 1/2+x,1/2-y,z
_cell_length_a                   18.3259(15)
_cell_length_b                   25.300(2)
_cell_length_c                   7.5240(7)
_cell_angle_alpha                90
_cell_angle_beta                 90
_cell_angle_gamma                90
_cell_volume                     3488.47
loop_
_atom_site_label
_atom_site_type_symbol
_atom_site_fract_x
_atom_site_fract_y
_atom_site_fract_z
_atom_site_U_iso_or_equiv
_atom_site_thermal_displace_type
Mn1 Mn 0.90073(3) 0.51713(2) 0.26448(13) 0.0216 Uani
C1 C 0.7510(3) 0.6110(2) 0.5834(8) 0.0317 Uani
C2 C 0.7102(3) 0.6095(2) 0.7385(9) 0.0387 Uani
H1 H 0.7226 0.5851 0.8297 0.0460 Uiso
C3 C 0.6516(3) 0.6434(2) 0.7613(10) 0.0363 Uani
C4 C 0.6307(3) 0.6813(2) 0.6325(8) 0.0267 Uani
C5 C 0.6761(3) 0.6815(2) 0.4800(9) 0.0337 Uani
C6 C 0.7337(3) 0.6477(2) 0.4552(9) 0.0357 Uani
H2 H 0.7618 0.6496 0.3493 0.0430 Uiso
C7 C 0.8109(3) 0.5707(2) 0.5538(8) 0.0330 Uani
C8 C 0.5531(3) 0.87209(18) 0.4792(7) 0.0213 Uani
C9 C 0.6204(3) 0.8532(2) 0.5368(8) 0.0287 Uani
H3 H 0.6614 0.8762 0.5394 0.0350 Uiso
C10 C 0.6282(3) 0.8011(2) 0.5903(9) 0.0307 Uani
H4 H 0.6746 0.7884 0.6272 0.0370 Uiso
C11 C 0.5679(3) 0.76694(19) 0.5902(8) 0.0277 Uani
C12 C 0.5002(4) 0.78583(16) 0.5315(9) 0.0257 Uani
H5 H 0.4590 0.7630 0.5307 0.0310 Uiso
C13 C 0.4932(3) 0.83731(18) 0.4748(7) 0.0243 Uani
H6 H 0.4474 0.8495 0.4322 0.0290 Uiso
C14 C 0.5448(3) 0.92669(18) 0.4215(7) 0.0213 Uani
H7 H 0.536(3) 0.711(3) 0.733(9) 0.0700 Uiso
N1 N 0.6099(4) 0.6377(2) 0.9267(9) 0.0613 Uani
N2 N 0.6559(4) 0.7134(2) 0.3232(8) 0.0480 Uani
N3 N 0.5734(3) 0.71540(18) 0.6558(7) 0.0303 Uani
O1 O 0.6439(5) 0.6205(3) 1.0557(8) 0.1083 Uani
O2 O 0.5469(4) 0.6510(2) 0.9302(9) 0.0763 Uani
O3 O 0.5925(3) 0.7141(2) 0.2788(9) 0.0607 Uani
O4 O 0.7051(4) 0.7363(3) 0.2461(11) 0.0913 Uani
O5 O 0.8383(2) 0.57100(16) 0.4010(7) 0.0423 Uani
O6 O 0.8269(3) 0.5406(2) 0.6785(6) 0.0493 Uani
O7 O 0.5856(2) 0.96240(14) 0.4904(5) 0.0256 Uani
O8 O 0.5010(2) 0.93867(12) 0.2988(5) 0.0335 Uani
Mn1C Mn 0.90073(3) 0.48287(2) 0.76448(13) 0.0216 Uani
Mn1E Mn 0.59927(3) 0.98287(2) 0.76448(13) 0.0216 Uani
Mn1F Mn 0.59927(3) 1.01713(2) 0.26448(13) 0.0216 Uani
Mn1G Mn 0.40073(3) 0.98287(2) 0.26448(13) 0.0216 Uani
O6C O 0.8269(3) 0.4594(2) 0.1785(6) 0.0493 Uani
O7E O 0.9144(2) 0.53760(14) -0.0096(5) 0.0256 Uani
O7F O 0.9144(2) 0.46240(14) 0.4904(5) 0.0256 Uani
O8F O 0.9990(2) 0.43867(12) 0.2988(5) 0.0335 Uani
O8G O 1.0010(2) 0.56133(12) 0.2988(5) 0.0335 Uani
loop_
_atom_site_aniso_label
_atom_site_aniso_U_11
_atom_site_aniso_U_22
_atom_site_aniso_U_33
_atom_site_aniso_U_23
_atom_site_aniso_U_13
_atom_site_aniso_U_12
Mn1 0.0255(4) 0.0188(3) 0.0204(4) 0.0006(3) -0.0010(4) -0.0026(2)
C1 0.036 0.028 0.031 0.001 -0.002 0.016
C2 0.053 0.031 0.032 0.007 -0.002 0.02
C3 0.047 0.032 0.03 0.003 0.005 0.017
C4 0.032 0.019 0.029 0.002 0.002 0.004
C5 0.035 0.025 0.041 0.01 0.001 0.008
C6 0.034 0.036 0.037 0.005 0.008 0.013
C7 0.035 0.033 0.031 -0.006 -0.004 0.013
C8 0.021 0.02 0.023 -0.001 -0.0015 -0.001
C9 0.021 0.027 0.038 0 -0.008 0.001
C10 0.024 0.022 0.046 0.002 -0.009 0.006
C11 0.031 0.019 0.033 0.003 0.006 0.005
C12 0.024 0.0211 0.032 -0.001 0.003 -0.004
C13 0.018 0.025 0.03 0.001 -0.004 0
C14 0.025 0.019 0.02 -0.0023 0.001 0.0004
N1 0.102 0.048 0.034 0.013 0.025 0.043
N2 0.06 0.048 0.036 0.013 0.015 0.028
N3 0.026 0.023 0.042 0.006 0.009 0.0056
O1 0.172 0.117 0.036 0.034 0.038 0.096
O2 0.081 0.073 0.075 0.035 0.047 0.044
O3 0.065 0.073 0.044 0.008 -0.011 0.038
O4 0.083 0.093 0.098 0.07 0.054 0.043
O5 0.05 0.033 0.044 0.002 0.014 0.016
O6 0.057 0.056 0.035 0 -0.003 0.036
O7 0.036 0.0206 0.0203 0.0001 -0.0008 -0.0079
O8 0.042 0.0245 0.034 -0.0027 -0.0123 0.0123
Mn1C 0.0255 0.0188 0.0204 -0.0006 -0.001 0.0026
Mn1E 0.0255 0.0188 0.0204 -0.0006 0.001 -0.0026
Mn1F 0.0255 0.0188 0.0204 0.0006 0.001 0.0026
Mn1G 0.0255 0.0188 0.0204 -0.0006 -0.001 0.0026
O6C 0.057(3) 0.056(3) 0.035(2) 0.000(2) -0.003(2) -0.036(2)
O7E 0.036 0.0206 0.0203 -0.0001 0.0008 -0.0079
O7F 0.036 0.0206 0.0203 0.0001 0.0008 0.0079
O8F 0.042 0.0245 0.034 -0.0027 0.0123 -0.0123
O8G 0.042 0.0245 0.034 0.0027 -0.0123 -0.0123
loop_
_geom_bond_atom_site_label_1
_geom_bond_atom_site_label_2
_geom_bond_site_symmetry_1
_geom_bond_site_symmetry_2
Mn1 O5 1_555 1_555
C1 C2 1_555 1_555
C2 H1 1_555 1_555
C3 C2 1_555 1_555
C4 C3 1_555 1_555
C5 C4 1_555 1_555
C6 C1 1_555 1_555
H2 C6 1_555 1_555
C7 C1 1_555 1_555
C8 C9 1_555 1_555
C9 H3 1_555 1_555
C10 C9 1_555 1_555
H4 C10 1_555 1_555
C11 C10 1_555 1_555
C12 C11 1_555 1_555
H5 C12 1_555 1_555
C13 C8 1_555 1_555
H6 C13 1_555 1_555
C14 C8 1_555 1_555
H7 N3 1_555 1_555
N1 C3 1_555 1_555
N2 C5 1_555 1_555
N3 C4 1_555 1_555
O1 N1 1_555 1_555
O2 N1 1_555 1_555
O3 N2 1_555 1_555
O4 N2 1_555 1_555
O5 C7 1_555 1_555
O6 C7 1_555 1_555
O7 C14 1_555 1_555
O8 C14 1_555 1_555
Mn1C O6 1_555 1_555
Mn1E O7 1_555 1_555
Mn1F O7 1_555 1_555
Mn1G O8 1_555 1_555
O6C Mn1 1_555 1_555
O7E Mn1 1_555 1_555
O7F Mn1 1_555 1_555
O8F Mn1 1_555 1_555
O8G Mn1 1_555 1_555
C5 C6 1_555 1_555
C11 N3 1_555 1_555
C12 C13 1_555 1_555
O8 Mn1F 1_555 1_555
Mn1C O7F 1_555 1_555

#END
