
#######################################################################
#
#                 Cambridge Crystallographic Data Centre
#                                CCDC 
#
#######################################################################
#
# If this CIF has been generated from an entry in the Cambridge 
# Structural Database, then it will include bibliographic, chemical, 
# crystal, experimental, refinement or atomic coordinate data resulting 
# from the CCDC's data processing and validation procedures.
#
#######################################################################

data_JOVROD
_chemical_formula_moiety         '(C12 H14 Co1 Li1 N10 O2)n'
_symmetry_cell_setting           orthorhombic
_symmetry_space_group_name_H-M   'P 21 21 21'
_symmetry_Int_Tables_number      19
_space_group_name_Hall           'P 2ac 2ab'
loop_
_symmetry_equiv_pos_site_id
_symmetry_equiv_pos_as_xyz
1 x,y,z
2 1/2-x,-y,1/2+z
3 -x,1/2+y,1/2-z
4 1/2+x,1/2-y,-z
_cell_length_a                   9.2571(19)
_cell_length_b                   11.823(2)
_cell_length_c                   16.861(3)
_cell_angle_alpha                90
_cell_angle_beta                 90
_cell_angle_gamma                90
_cell_volume                     1845.38
loop_
_atom_site_label
_atom_site_type_symbol
_atom_site_fract_x
_atom_site_fract_y
_atom_site_fract_z
_atom_site_U_iso_or_equiv
_atom_site_thermal_displace_type
N1 N 0.3195(4) 0.6929(3) 0.0919(2) 0.0501 Uani
C1 C 0.4371(5) 0.7523(4) 0.0816(2) 0.0453 Uani
N2 N 0.4501(4) 0.8226(3) 0.14115(19) 0.0433 Uani
C2 C 0.3376(6) 0.8064(4) 0.1912(3) 0.0543 Uani
C3 C 0.2568(6) 0.7261(4) 0.1612(3) 0.0590 Uani
H1 H 0.326(4) 0.849(3) 0.234(2) 0.0430 Uiso
H2 H 0.191(5) 0.694(3) 0.179(2) 0.0420 Uiso
H3 H 0.513(4) 0.875(3) 0.1498(19) 0.0320 Uiso
H4 H 0.280(5) 0.642(4) 0.056(3) 0.0860 Uiso
H5 H 0.504(5) 0.752(3) 0.040(2) 0.0620 Uiso
Co1 Co 0.83368(4) 0.54162(3) 0.11346(2) 0.0177 Uani
C4 C 0.8115(3) 0.3828(3) 0.1119(2) 0.0305 Uani
N3 N 0.6498(3) 0.5461(2) -0.03733(14) 0.0334 Uani
N4 N 0.8834(3) 0.7964(2) 0.11489(19) 0.0341 Uani
C5 C 0.8608(3) 0.7013(2) 0.11429(19) 0.0203 Uani
C6 C 0.6614(4) 0.5597(2) 0.17292(17) 0.0261 Uani
C7 C 1.0107(3) 0.5266(3) 0.05774(17) 0.0254 Uani
C8 C 0.7229(3) 0.5479(3) 0.01789(17) 0.0237 Uani
C9 C 0.9309(3) 0.5249(3) 0.21232(17) 0.0248 Uani
N5 N 0.8054(4) 0.2860(2) 0.1110(2) 0.0510 Uani
N6 N 0.9793(3) 0.5092(2) 0.27326(15) 0.0356 Uani
N7 N 0.5591(3) 0.5706(3) 0.21013(19) 0.0463 Uani
N8 N 1.1199(3) 0.5193(3) 0.02574(17) 0.0425 Uani
O1 O 0.3342(3) 0.4417(2) -0.07878(16) 0.0374 Uani
Li1 Li 0.4766(5) 0.5490(4) -0.1154(3) 0.0240 Uani
H6 H 0.286(4) 0.452(4) -0.041(2) 0.0590 Uiso
H7 H 0.334(4) 0.380(3) -0.0867(19) 0.0340 Uiso
N4C N 0.3834(3) 0.7036(2) -0.11489(19) 0.0341 Uani
N6A N 0.5207(3) 0.4908(2) -0.22674(15) 0.0356 Uani
Li1A Li 1.0234(5) 0.4510(4) 0.3846(3) 0.0240 Uani
Li1C Li 0.9766(5) 0.9510(4) 0.1154(3) 0.0240 Uani
O2 O 0.6515(3) 0.9774(2) 0.19907(18) 0.0467 Uani
H8 H 0.586(5) 1.011(3) 0.222(2) 0.0530 Uiso
H9 H 0.704(4) 1.008(3) 0.170(2) 0.0490 Uiso
N9 N 0.7440(6) 0.3181(4) 0.8882(3) 0.0800 Uani
N10 N 0.7863(6) 0.1742(4) 0.8194(3) 0.0647 Uani
C10 C 0.9009(7) 0.1900(5) 0.8673(3) 0.0783 Uani
C11 C 0.6919(7) 0.2524(5) 0.8333(3) 0.0737 Uani
C12 C 0.8731(7) 0.2812(5) 0.9100(3) 0.0800 Uani
H10 H 0.777(5) 0.133(4) 0.790(3) 0.0550 Uiso
H11 H 0.702(6) 0.380(5) 0.907(3) 0.1030 Uiso
H12 H 0.599(8) 0.266(6) 0.808(4) 0.1600 Uiso
H13 H 0.979(6) 0.137(5) 0.865(3) 0.1300 Uiso
H14 H 0.935(5) 0.325(4) 0.950(3) 0.0980 Uiso
loop_
_atom_site_aniso_label
_atom_site_aniso_U_11
_atom_site_aniso_U_22
_atom_site_aniso_U_33
_atom_site_aniso_U_23
_atom_site_aniso_U_13
_atom_site_aniso_U_12
N1 0.056(2) 0.0442(19) 0.050(2) -0.0085(16) -0.021(2) 0.005(2)
C1 0.052(3) 0.049(2) 0.035(2) 0.001(2) 0.001(2) 0.012(2)
N2 0.046(2) 0.039(2) 0.045(2) -0.0011(16) -0.0083(16) -0.0074(16)
C2 0.055(3) 0.067(3) 0.041(2) -0.016(2) 0.003(2) 0.009(3)
C3 0.042(3) 0.065(3) 0.070(4) 0.012(3) 0.003(3) -0.005(3)
Co1 0.01973(18) 0.01649(17) 0.01675(17) 0.00056(19) -0.00065(18) -0.0005(2)
C4 0.034(2) 0.0263(17) 0.0312(17) -0.0003(17) -0.0008(18) 0.0001(15)
N3 0.0314(15) 0.0398(15) 0.0291(14) -0.0032(14) -0.0082(12) 0.0017(17)
N4 0.0420(17) 0.0224(14) 0.0380(15) -0.0005(14) 0.0044(15) -0.0031(12)
C5 0.0199(16) 0.0255(15) 0.0156(13) 0.0010(14) 0.0012(14) -0.0016(12)
C6 0.0266(16) 0.0218(16) 0.0300(16) 0.0062(13) -0.0056(16) 0.0012(17)
C7 0.0302(17) 0.0237(17) 0.0224(15) -0.0001(14) -0.0009(14) -0.0002(15)
C8 0.0271(16) 0.0175(15) 0.0266(16) -0.0038(16) 0.0005(13) 0.0006(15)
C9 0.0273(17) 0.0214(17) 0.0256(16) 0.0000(14) 0.0020(14) 0.0008(14)
N5 0.072(3) 0.0237(16) 0.0573(19) -0.0033(17) 0.000(2) -0.0028(15)
N6 0.0348(18) 0.0477(19) 0.0243(15) 0.0050(12) -0.0082(13) 0.0016(13)
N7 0.0309(17) 0.052(2) 0.056(2) 0.0112(16) 0.0130(16) 0.0065(15)
N8 0.0352(18) 0.049(2) 0.0434(17) -0.0101(16) 0.0102(14) -0.0011(14)
O1 0.0502(15) 0.0194(13) 0.0427(14) -0.0040(12) 0.0199(14) -0.0012(15)
Li1 0.027(2) 0.025(2) 0.020(2) -0.010(3) -0.001(2) 0.003(2)
N4C 0.042 0.0224 0.038 -0.0005 -0.0044 0.0031
N6A 0.0348 0.0477 0.0243 -0.005 0.0082 0.0016
Li1A 0.027 0.025 0.02 0.01 0.001 0.003
Li1C 0.027 0.025 0.02 -0.01 0.001 -0.003
O2 0.0397(17) 0.0485(17) 0.0520(17) -0.0017(15) 0.0212(15) 0.0025(16)
N9 0.113(4) 0.059(3) 0.068(3) -0.015(3) 0.006(3) 0.035(3)
N10 0.092(4) 0.055(3) 0.047(3) -0.011(2) 0.006(2) 0.003(2)
C10 0.077(4) 0.095(4) 0.063(4) -0.010(3) 0.006(3) 0.040(3)
C11 0.089(5) 0.068(3) 0.064(3) 0.010(3) -0.002(3) 0.025(3)
C12 0.091(5) 0.096(4) 0.053(3) -0.019(3) -0.013(3) 0.009(4)
loop_
_geom_bond_atom_site_label_1
_geom_bond_atom_site_label_2
_geom_bond_site_symmetry_1
_geom_bond_site_symmetry_2
N1 C1 1_555 1_555
C1 N2 1_555 1_555
N2 C2 1_555 1_555
C2 C3 1_555 1_555
C3 N1 1_555 1_555
H1 C2 1_555 1_555
H2 C3 1_555 1_555
H3 N2 1_555 1_555
H4 N1 1_555 1_555
H5 C1 1_555 1_555
Co1 C4 1_555 1_555
C4 N5 1_555 1_555
N3 C8 1_555 1_555
N4 C5 1_555 1_555
C5 Co1 1_555 1_555
C6 Co1 1_555 1_555
C7 Co1 1_555 1_555
C8 Co1 1_555 1_555
C9 Co1 1_555 1_555
N6 C9 1_555 1_555
N7 C6 1_555 1_555
N8 C7 1_555 1_555
O1 Li1 1_555 1_555
Li1 N3 1_555 1_555
H6 O1 1_555 1_555
H7 O1 1_555 1_555
O2 H8 1_555 1_555
H9 O2 1_555 1_555
N9 C11 1_555 1_555
N10 C10 1_555 1_555
C10 C12 1_555 1_555
C11 N10 1_555 1_555
C12 N9 1_555 1_555
H10 N10 1_555 1_555
H11 N9 1_555 1_555
H12 C11 1_555 1_555
H13 C10 1_555 1_555
H14 C12 1_555 1_555
N4C Li1 1_555 1_555
N6A Li1 1_555 1_555
Li1A N6 1_555 1_555
Li1C N4 1_555 1_555

#END
