
#######################################################################
#
#                 Cambridge Crystallographic Data Centre
#                                CCDC 
#
#######################################################################
#
# If this CIF has been generated from an entry in the Cambridge 
# Structural Database, then it will include bibliographic, chemical, 
# crystal, experimental, refinement or atomic coordinate data resulting 
# from the CCDC's data processing and validation procedures.
#
#######################################################################

data_AXUKUB
_chemical_formula_moiety         '(C8 H3 Cd1 O4 S1 1-)n'
_symmetry_cell_setting           rhombohedral
_symmetry_space_group_name_H-M   'R -3 m'
_symmetry_Int_Tables_number      166
_space_group_name_Hall           '-R 3 2"'
loop_
_symmetry_equiv_pos_site_id
_symmetry_equiv_pos_as_xyz
1 x,y,z
2 -y,x-y,z
3 -x+y,-x,z
4 y,x,-z
5 -x,-x+y,-z
6 x-y,-y,-z
7 2/3+x,1/3+y,1/3+z
8 2/3-y,1/3+x-y,1/3+z
9 2/3-x+y,1/3-x,1/3+z
10 2/3+y,1/3+x,1/3-z
11 2/3-x,1/3-x+y,1/3-z
12 2/3+x-y,1/3-y,1/3-z
13 1/3+x,2/3+y,2/3+z
14 1/3-y,2/3+x-y,2/3+z
15 1/3-x+y,2/3-x,2/3+z
16 1/3+y,2/3+x,2/3-z
17 1/3-x,2/3-x+y,2/3-z
18 1/3+x-y,2/3-y,2/3-z
19 -x,-y,-z
20 y,-x+y,-z
21 x-y,x,-z
22 -y,-x,z
23 x,x-y,z
24 -x+y,y,z
25 1/3-x,2/3-y,2/3-z
26 1/3+y,2/3-x+y,2/3-z
27 1/3+x-y,2/3+x,2/3-z
28 1/3-y,2/3-x,2/3+z
29 1/3+x,2/3+x-y,2/3+z
30 1/3-x+y,2/3+y,2/3+z
31 2/3-x,1/3-y,1/3-z
32 2/3+y,1/3-x+y,1/3-z
33 2/3+x-y,1/3+x,1/3-z
34 2/3-y,1/3-x,1/3+z
35 2/3+x,1/3+x-y,1/3+z
36 2/3-x+y,1/3+y,1/3+z
_cell_length_a                   23.0075(18)
_cell_length_b                   23.0075(18)
_cell_length_c                   20.808(2)
_cell_angle_alpha                90
_cell_angle_beta                 90
_cell_angle_gamma                120
_cell_volume                     9538.93
loop_
_atom_site_label
_atom_site_type_symbol
_atom_site_fract_x
_atom_site_fract_y
_atom_site_fract_z
_atom_site_U_iso_or_equiv
_atom_site_thermal_displace_type
Cd1 Cd 0.08815(2) 0.3333 0.3333 0.0379 Uani
S1 S 0.14221(2) 0.28442(4) 0.25657(4) 0.0404 Uani
C1 C 0.16429(8) 0.32858(16) 0.18191(13) 0.0379 Uani
C2 C 0.11992(12) 0.34370(12) 0.15119(10) 0.0413 Uani
H1 H 0.0787 0.3313 0.1700 0.0500 Uiso
C3 C 0.13658(12) 0.37709(13) 0.09273(10) 0.0426 Uani
C4 C 0.19743(9) 0.39485(19) 0.06397(16) 0.0472 Uani
H2 H 0.2093 0.4186 0.0255 0.0560 Uiso
C5 C 0.08764(13) 0.39264(14) 0.06074(10) 0.0478 Uani
O1 O 0.02687(9) 0.35874(9) 0.07376(7) 0.0525 Uani
O2 O 0.10909(9) 0.44039(11) 0.02053(9) 0.0695 Uani
C2W C 0.22378(17) 0.34370(12) 0.15119(10) 0.0413 Uani
H1W H 0.2526 0.3313 0.1700 0.0500 Uiso
C3W C 0.24051(18) 0.37709(13) 0.09273(10) 0.0426 Uani
C5W C 0.30500(19) 0.39264(14) 0.06074(10) 0.0478 Uani
O1W O 0.33187(13) 0.35874(9) 0.07376(7) 0.0525 Uani
O2W O 0.33130(14) 0.44039(11) 0.02053(9) 0.0695 Uani
Cd1I Cd -0.0000 0.42148(2) 0.0000 0.0379 Uani
Cd1W Cd 0.24515(2) 0.3333 0.3333 0.0379 Uani
Cd1FA Cd 0.42152(2) 0.42148(2) 0.0000 0.0379 Uani
S1Q S 0.19112(4) 0.38225(4) 0.41010(4) 0.0404 Uani
O1H O -0.00146(13) 0.30646(9) 0.40709(7) 0.0525 Uani
O1I O 0.02541(9) 0.36020(9) 0.25957(7) 0.0525 Uani
O2H O -0.00203(14) 0.22424(9) 0.35386(9) 0.0695 Uani
O2I O 0.10706(11) 0.44242(9) 0.31280(9) 0.0695 Uani
loop_
_atom_site_aniso_label
_atom_site_aniso_U_11
_atom_site_aniso_U_22
_atom_site_aniso_U_33
_atom_site_aniso_U_23
_atom_site_aniso_U_13
_atom_site_aniso_U_12
Cd1 0.03772(13) 0.04189(16) 0.03543(15) 0.01304(10) 0.00652(5) 0.02094(8)
S1 0.0425(3) 0.0512(5) 0.0303(4) 0.0083(3) 0.00413(17) 0.0256(2)
C1 0.0399(12) 0.053(2) 0.0254(14) 0.0009(14) 0.0005(7) 0.0266(10)
C2 0.0366(12) 0.0647(16) 0.0289(11) 0.0042(10) 0.0027(10) 0.0300(11)
C3 0.0426(13) 0.0650(16) 0.0314(11) 0.0027(11) -0.0006(10) 0.0352(13)
C4 0.0477(14) 0.070(2) 0.0312(16) 0.0118(16) 0.0059(8) 0.0348(12)
C5 0.0536(16) 0.0736(18) 0.0298(11) -0.0024(12) -0.0048(11) 0.0420(15)
O1 0.0457(10) 0.0797(13) 0.0429(9) 0.0027(9) -0.0034(8) 0.0394(9)
O2 0.0572(11) 0.0883(14) 0.0702(12) 0.0306(12) -0.0027(10) 0.0418(11)
C2W 0.0413 0.0647 0.0289 0.0042 0.0015 0.0347
C3W 0.0372 0.065 0.0314 0.0027 0.0033 0.0298
C5W 0.0432 0.0736 0.0298 -0.0024 0.0024 0.0316
O1W 0.0466 0.0797 0.0429 0.0027 0.0061 0.0403
O2W 0.0619 0.0883 0.0702 0.0306 0.0333 0.0465
Cd1I 0.04189 0.03772 0.03543 -0.00652 -0.01304 0.02094
Cd1W 0.03773 0.04189 0.03543 0.01304 0.00652 0.02095
Cd1FA 0.03773 0.03772 0.03543 -0.00652 0.00652 0.01678
S1Q 0.0425 0.0512 0.0303 0.0083 0.00417 0.0256
O1H 0.0466 0.0457 0.0429 0.0034 0.0061 0.0063
O1I 0.0797 0.0457 0.0429 0.0034 -0.0027 0.0394
O2H 0.0619 0.0572 0.0702 0.0027 0.0333 0.0154
O2I 0.0883 0.0572 0.0702 0.0027 -0.0306 0.0418
loop_
_geom_bond_atom_site_label_1
_geom_bond_atom_site_label_2
_geom_bond_site_symmetry_1
_geom_bond_site_symmetry_2
Cd1 S1 1_555 1_555
S1 C1 1_555 1_555
C1 C2 1_555 1_555
C2 H1 1_555 1_555
C3 C2 1_555 1_555
C4 C3 1_555 1_555
H2 C4 1_555 1_555
C5 C3 1_555 1_555
O1 C5 1_555 1_555
O2 C5 1_555 1_555
C2W C1 1_555 1_555
H1W C2W 1_555 1_555
C3W C4 1_555 1_555
C5W C3W 1_555 1_555
O1W C5W 1_555 1_555
O2W C5W 1_555 1_555
Cd1I O1 1_555 1_555
Cd1W S1 1_555 1_555
Cd1FA O1W 1_555 1_555
S1Q Cd1 1_555 1_555
O1H Cd1 1_555 1_555
O1I Cd1 1_555 1_555
O2H Cd1 1_555 1_555
O2I Cd1 1_555 1_555
O2 Cd1I 1_555 1_555
C2W C3W 1_555 1_555
O2W Cd1FA 1_555 1_555
Cd1W S1Q 1_555 1_555

#END
