
#######################################################################
#
#                 Cambridge Crystallographic Data Centre
#                                CCDC 
#
#######################################################################
#
# If this CIF has been generated from an entry in the Cambridge 
# Structural Database, then it will include bibliographic, chemical, 
# crystal, experimental, refinement or atomic coordinate data resulting 
# from the CCDC's data processing and validation procedures.
#
#######################################################################

data_AXULAI
_chemical_formula_moiety         '(C32 H12 Cd4 O16 S4 4-)n'
_symmetry_cell_setting           monoclinic
_symmetry_space_group_name_H-M   'I 2/a'
_symmetry_Int_Tables_number      15
_space_group_name_Hall           '-I 2ya'
loop_
_symmetry_equiv_pos_site_id
_symmetry_equiv_pos_as_xyz
1 x,y,z
2 1/2-x,y,-z
3 1/2+x,1/2+y,1/2+z
4 -x,1/2+y,1/2-z
5 -x,-y,-z
6 1/2+x,-y,z
7 1/2-x,1/2-y,1/2-z
8 x,1/2-y,1/2+z
_cell_length_a                   14.425(5)
_cell_length_b                   33.813(5)
_cell_length_c                   19.194(4)
_cell_angle_alpha                90
_cell_angle_beta                 104.061(18)
_cell_angle_gamma                90
_cell_volume                     9081.42
loop_
_atom_site_label
_atom_site_type_symbol
_atom_site_fract_x
_atom_site_fract_y
_atom_site_fract_z
Cd1 Cd 0.82465(2) 0.21978(2) 0.20967(2)
Cd2 Cd 0.2500 0.37664(2) 0.0000
Cd3 Cd 1.2500 0.01640(2) 0.5000
C1 C 0.58036(16) 0.25596(6) -0.02780(10)
C2 C 0.51116(16) 0.28466(6) -0.03425(11)
H1 H 0.4855 0.2963 -0.0787
C3 C 0.47963(15) 0.29627(6) 0.02510(11)
C4 C 0.52133(16) 0.27980(6) 0.09184(10)
H2 H 0.5006 0.2878 0.1319
C5 C 0.59314(16) 0.25177(6) 0.09973(10)
C6 C 0.62139(16) 0.23937(6) 0.03852(11)
H3 H 0.6679 0.2199 0.0423
C7 C 0.61211(17) 0.24169(7) -0.09277(11)
C8 C 0.39925(16) 0.32560(7) 0.01815(12)
C9 C 0.92652(18) 0.11552(6) 0.32332(12)
C10 C 0.86702(17) 0.09131(7) 0.35036(13)
H4 H 0.8015 0.0960 0.3390
C11 C 0.90493(17) 0.05993(7) 0.39465(14)
C12 C 1.00286(16) 0.05318(6) 0.41147(12)
H5 H 1.0281 0.0322 0.4415
C13 C 1.06328(16) 0.07711(6) 0.38419(11)
C14 C 1.02321(18) 0.10861(6) 0.33931(12)
H6 H 1.0626 0.1250 0.3202
C15 C 0.8864(2) 0.15126(7) 0.27833(13)
C16 C 0.84106(18) 0.03452(7) 0.42687(16)
O1 O 0.65445(12) 0.20962(5) -0.09123(8)
O2 O 0.59530(15) 0.26310(5) -0.14765(8)
O3 O 0.38237(11) 0.34919(5) -0.03448(9)
O4 O 0.35076(11) 0.32554(5) 0.06400(8)
O5 O 0.94026(14) 0.17155(5) 0.25091(8)
O6 O 0.80000(16) 0.15941(6) 0.27008(12)
O7 O 0.75385(13) 0.04023(6) 0.41251(13)
O8 O 0.87805(12) 0.00741(6) 0.46782(13)
S1 S 0.64132(4) 0.22927(2) 0.18402(3)
S2 S 1.18898(4) 0.06973(2) 0.40239(3)
Cd1A Cd -0.32465(2) 0.21978(2) -0.20967(2)
C1A C -0.08036(16) 0.25596(6) 0.02780(10)
C2A C -0.01116(16) 0.28466(6) 0.03425(11)
H1A H 0.0145 0.2963 0.0787
C3A C 0.02037(15) 0.29627(6) -0.02510(11)
C4A C -0.02133(16) 0.27980(6) -0.09184(10)
H2A H -0.0006 0.2878 -0.1319
C5A C -0.09314(16) 0.25177(6) -0.09973(10)
C6A C -0.12139(16) 0.23937(6) -0.03852(11)
H3A H -0.1679 0.2199 -0.0423
C7A C -0.11211(17) 0.24169(7) 0.09277(11)
C8A C 0.10075(16) 0.32560(7) -0.01815(12)
C9A C -0.42652(18) 0.11552(6) -0.32332(12)
C10A C -0.36702(17) 0.09131(7) -0.35036(13)
H4A H -0.3015 0.0960 -0.3390
C11A C -0.40493(17) 0.05993(7) -0.39465(14)
C12A C -0.50286(16) 0.05318(6) -0.41147(12)
H5A H -0.5281 0.0322 -0.4415
C13A C -0.56328(16) 0.07711(6) -0.38419(11)
C14A C -0.52321(18) 0.10861(6) -0.33931(12)
H6A H -0.5626 0.1250 -0.3202
C15A C -0.3864(2) 0.15126(7) -0.27833(13)
C16A C -0.34106(18) 0.03452(7) -0.42687(16)
O1A O -0.15445(12) 0.20962(5) 0.09123(8)
O2A O -0.09530(15) 0.26310(5) 0.14765(8)
O3A O 0.11763(11) 0.34919(5) 0.03448(9)
O4A O 0.14924(11) 0.32554(5) -0.06400(8)
O5A O -0.44026(14) 0.17155(5) -0.25091(8)
O6A O -0.30000(16) 0.15941(6) -0.27008(12)
O7A O -0.25385(13) 0.04023(6) -0.41251(13)
O8A O -0.37805(12) 0.00741(6) -0.46782(13)
S1A S -0.14132(4) 0.22927(2) -0.18402(3)
S2A S -0.68898(4) 0.06973(2) -0.40239(3)
Cd1_2 Cd -0.17535(2) 0.21978(2) 0.20967(2)
Cd1A_2 Cd 0.67535(2) 0.21978(2) -0.20967(2)
Cd1F Cd 0.67535(2) 0.28022(2) 0.29033(2)
Cd1G Cd -0.17535(2) 0.28022(2) -0.29033(2)
Cd2F Cd -0.7500 0.12336(2) -0.5000
Cd2F_2 Cd 1.2500 0.12336(2) 0.5000
Cd3_2 Cd -0.7500 0.01640(2) -0.5000
Cd3D Cd -0.2500 -0.01640(2) -0.5000
Cd3D_2 Cd 0.7500 -0.01640(2) 0.5000
O1_2 O -0.34555(12) 0.20962(5) -0.09123(8)
O1A_2 O 0.84555(12) 0.20962(5) 0.09123(8)
O2_2 O -0.40470(15) 0.26310(5) -0.14765(8)
O2A_2 O 0.90470(15) 0.26310(5) 0.14765(8)
O7D O 1.24615(13) -0.04023(6) 0.58749(13)
O7E O 1.25385(13) -0.04023(6) 0.41251(13)
O8D O 1.12195(12) -0.00741(6) 0.53218(13)
O8E O 1.37805(12) -0.00741(6) 0.46782(13)
S1F S 0.85868(4) 0.27073(2) 0.31598(3)
S1G S -0.35868(4) 0.27073(2) -0.31598(3)
S2A_2 S 1.31102(4) 0.06973(2) 0.59761(3)
S2F S 0.31102(4) 0.43027(2) 0.09761(3)
S2G S 0.18898(4) 0.43027(2) -0.09761(3)
loop_
_geom_bond_atom_site_label_1
_geom_bond_atom_site_label_2
_geom_bond_site_symmetry_1
_geom_bond_site_symmetry_2
Cd1 O5 1_555 1_555
Cd2 O3 1_555 1_555
Cd3 S2 1_555 1_555
C1 C2 1_555 1_555
C2 H1 1_555 1_555
C3 C2 1_555 1_555
C4 C3 1_555 1_555
H2 C4 1_555 1_555
C5 C4 1_555 1_555
C6 C1 1_555 1_555
H3 C6 1_555 1_555
C7 C1 1_555 1_555
C8 C3 1_555 1_555
C9 C10 1_555 1_555
C10 H4 1_555 1_555
C11 C10 1_555 1_555
C12 C11 1_555 1_555
H5 C12 1_555 1_555
C13 C12 1_555 1_555
C14 C9 1_555 1_555
H6 C14 1_555 1_555
C15 C9 1_555 1_555
C16 C11 1_555 1_555
O1 C7 1_555 1_555
O2 C7 1_555 1_555
O3 C8 1_555 1_555
O4 Cd2 1_555 1_555
O5 C15 1_555 1_555
O6 Cd1 1_555 1_555
O7 C16 1_555 1_555
O8 C16 1_555 1_555
S1 Cd1 1_555 1_555
S2 C13 1_555 1_555
Cd1A O5A 1_555 1_555
C1A C2A 1_555 1_555
C2A H1A 1_555 1_555
C3A C2A 1_555 1_555
C4A C3A 1_555 1_555
H2A C4A 1_555 1_555
C5A C4A 1_555 1_555
C6A C1A 1_555 1_555
H3A C6A 1_555 1_555
C7A C1A 1_555 1_555
C8A C3A 1_555 1_555
C9A C10A 1_555 1_555
C10A H4A 1_555 1_555
C11A C10A 1_555 1_555
C12A C11A 1_555 1_555
H5A C12A 1_555 1_555
C13A C12A 1_555 1_555
C14A C9A 1_555 1_555
H6A C14A 1_555 1_555
C15A C9A 1_555 1_555
C16A C11A 1_555 1_555
O1A C7A 1_555 1_555
O2A C7A 1_555 1_555
O3A Cd2 1_555 1_555
O4A Cd2 1_555 1_555
O5A C15A 1_555 1_555
O6A Cd1A 1_555 1_555
O7A C16A 1_555 1_555
O8A C16A 1_555 1_555
S1A Cd1A 1_555 1_555
S2A C13A 1_555 1_555
Cd1_2 O1A 1_555 1_555
Cd1A_2 O1 1_555 1_555
Cd1F S1 1_555 1_555
Cd1G S1A 1_555 1_555
Cd2F S2A 1_555 1_555
Cd2F_2 S2 1_555 1_555
Cd3_2 S2A 1_555 1_555
Cd3D O7A 1_555 1_555
Cd3D_2 O7 1_555 1_555
O1_2 Cd1A 1_555 1_555
O1A_2 Cd1 1_555 1_555
O2_2 Cd1A 1_555 1_555
O2A_2 Cd1 1_555 1_555
O7D Cd3 1_555 1_555
O7E Cd3 1_555 1_555
O8D Cd3 1_555 1_555
O8E Cd3 1_555 1_555
S1F Cd1 1_555 1_555
S1G Cd1A 1_555 1_555
S2A_2 Cd3 1_555 1_555
S2F Cd2 1_555 1_555
S2G Cd2 1_555 1_555
C5 C6 1_555 1_555
C5 S1 1_555 1_555
C8 O4 1_555 1_555
C13 C14 1_555 1_555
C15 O6 1_555 1_555
O2 Cd1A_2 1_555 1_555
O8 Cd3D_2 1_555 1_555
C5A C6A 1_555 1_555
C5A S1A 1_555 1_555
C8A O3A 1_555 1_555
C8A O4A 1_555 1_555
C13A C14A 1_555 1_555
C15A O6A 1_555 1_555
O2A Cd1_2 1_555 1_555
O8A Cd3D 1_555 1_555
Cd1F S1F 1_555 1_555
Cd1G S1G 1_555 1_555
Cd2F_2 S2A_2 1_555 1_555

#END
