
#######################################################################
#
#                 Cambridge Crystallographic Data Centre
#                                CCDC 
#
#######################################################################
#
# If this CIF has been generated from an entry in the Cambridge 
# Structural Database, then it will include bibliographic, chemical, 
# crystal, experimental, refinement or atomic coordinate data resulting 
# from the CCDC's data processing and validation procedures.
#
#######################################################################

data_AXULEM
_chemical_formula_moiety         '(C32 H12 Cd4 O16 S4 4-)n'
_symmetry_cell_setting           monoclinic
_symmetry_space_group_name_H-M   'P 21/c'
_symmetry_Int_Tables_number      14
_space_group_name_Hall           '-P 2ybc'
loop_
_symmetry_equiv_pos_site_id
_symmetry_equiv_pos_as_xyz
1 x,y,z
2 -x,1/2+y,1/2-z
3 -x,-y,-z
4 x,1/2-y,1/2+z
_cell_length_a                   14.0370(14)
_cell_length_b                   33.781(4)
_cell_length_c                   18.982(2)
_cell_angle_alpha                90
_cell_angle_beta                 103.684(3)
_cell_angle_gamma                90
_cell_volume                     8745.47
loop_
_atom_site_label
_atom_site_type_symbol
_atom_site_fract_x
_atom_site_fract_y
_atom_site_fract_z
_atom_site_U_iso_or_equiv
_atom_site_thermal_displace_type
Cd1 Cd -0.22617(2) 0.37892(2) 0.50830(2) 0.0249 Uani
Cd2 Cd 0.23990(2) 0.51701(2) 0.47518(2) 0.0270 Uani
Cd3 Cd 0.20552(2) 0.28269(2) 0.80177(2) 0.0273 Uani
Cd4 Cd 0.35179(2) 0.22288(2) 0.72383(2) 0.0255 Uani
C1 C 0.4518(2) 0.11568(8) 0.82778(15) 0.0275 Uani
C2 C 0.3864(2) 0.08882(8) 0.84511(15) 0.0272 Uani
H1 H 0.3179 0.0937 0.8305 0.0330 Uiso
C3 C 0.42063(19) 0.05464(8) 0.88391(15) 0.0225 Uani
C4 C 0.52021(19) 0.04682(8) 0.90429(15) 0.0229 Uani
H2 H 0.5430 0.0232 0.9301 0.0280 Uiso
C5 C 0.5879(2) 0.07366(8) 0.88690(15) 0.0237 Uani
C6 C 0.5524(2) 0.10778(8) 0.84821(15) 0.0283 Uani
H3 H 0.5972 0.1259 0.8355 0.0340 Uiso
C7 C 0.4158(2) 0.15298(9) 0.79004(17) 0.0365 Uani
C8 C 0.1186(2) 0.25219(8) 0.61316(15) 0.0242 Uani
C9 C 0.14925(19) 0.23917(8) 0.55271(14) 0.0225 Uani
H4 H 0.1960 0.2184 0.5574 0.0270 Uiso
C10 C 0.11155(19) 0.25644(8) 0.48542(14) 0.0224 Uani
C11 C 0.04297(19) 0.28660(8) 0.47786(15) 0.0233 Uani
H5 H 0.0197 0.2991 0.4322 0.0280 Uiso
C12 C 0.00863(19) 0.29835(8) 0.53727(14) 0.0229 Uani
C13 C 0.0466(2) 0.28128(8) 0.60446(15) 0.0251 Uani
H6 H 0.0232 0.2896 0.6451 0.0300 Uiso
C14 C -0.0720(2) 0.32862(9) 0.52891(16) 0.0283 Uani
C15 C 0.6259(2) 0.17422(9) 0.98822(16) 0.0262 Uani
C16 C 0.3488(2) 0.02795(8) 0.90621(16) 0.0263 Uani
C17 C -0.04374(19) 0.42128(8) 0.62412(15) 0.0226 Uani
C18 C 0.0102(2) 0.44281(8) 0.58485(16) 0.0263 Uani
H7 H -0.0212 0.4628 0.5523 0.0320 Uiso
C19 C 0.11013(19) 0.43542(8) 0.59256(16) 0.0254 Uani
C20 C 0.1553(2) 0.40534(8) 0.63783(16) 0.0301 Uani
H8 H 0.2229 0.3998 0.6424 0.0360 Uiso
C21 C 0.1017(2) 0.38334(9) 0.67630(16) 0.0285 Uani
C22 C 0.0052(2) 0.39157(8) 0.67016(15) 0.0267 Uani
H9 H -0.0301 0.3767 0.6980 0.0320 Uiso
C23 C 0.1484(2) 0.34951(9) 0.72375(16) 0.0323 Uani
C24 C 0.50886(19) 0.22301(8) 0.91617(15) 0.0243 Uani
H10 H 0.5315 0.2154 0.8748 0.0290 Uiso
C25 C 0.54745(19) 0.20493(8) 0.98266(14) 0.0223 Uani
C26 C 0.51466(19) 0.21545(8) 1.04297(15) 0.0226 Uani
H11 H 0.5386 0.2021 1.0877 0.0270 Uiso
C27 C 0.4465(2) 0.24569(8) 1.03788(14) 0.0222 Uani
C28 C 0.4080(2) 0.26415(8) 0.97119(14) 0.0239 Uani
H12 H 0.3617 0.2850 0.9681 0.0290 Uiso
C29 C 0.4370(2) 0.25226(9) 0.91004(14) 0.0254 Uani
C30 C 0.41339(19) 0.25858(9) 1.10353(15) 0.0259 Uani
C31 C 0.14524(19) 0.24221(9) 0.42099(15) 0.0244 Uani
C32 C 0.1671(2) 0.46026(9) 0.55218(17) 0.0300 Uani
O1 O 0.32966(17) 0.16468(7) 0.79092(13) 0.0502 Uani
O2 O 0.47080(16) 0.17329(6) 0.76096(11) 0.0361 Uani
O3 O 0.09857(15) 0.33190(6) 0.76105(11) 0.0329 Uani
O4 O 0.23492(16) 0.33968(7) 0.72461(13) 0.0473 Uani
O5 O 0.25885(14) 0.03661(6) 0.89069(12) 0.0403 Uani
O6 O 0.38126(13) -0.00198(5) 0.94415(11) 0.0284 Uani
O7 O -0.12564(14) 0.32798(6) 0.57334(11) 0.0325 Uani
O8 O -0.08614(14) 0.35252(6) 0.47612(11) 0.0323 Uani
O9 O 0.63837(13) 0.14962(6) 1.03960(11) 0.0304 Uani
O10 O 0.67761(13) 0.17388(6) 0.94269(10) 0.0287 Uani
O11 O 0.11898(14) 0.48504(6) 0.50709(12) 0.0382 Uani
O12 O 0.25775(14) 0.45699(6) 0.56344(12) 0.0428 Uani
O13 O 0.37207(14) 0.29119(6) 1.10433(10) 0.0285 Uani
O14 O 0.42916(15) 0.23537(6) 1.15783(10) 0.0339 Uani
O15 O 0.17562(14) 0.20721(6) 0.41914(10) 0.0313 Uani
O16 O 0.14385(16) 0.26586(6) 0.36948(11) 0.0367 Uani
S1 S 0.71648(5) 0.06565(2) 0.91416(4) 0.0273 Uani
S2 S -0.17132(5) 0.42822(2) 0.61682(4) 0.0268 Uani
S3 S 0.16358(5) 0.22935(2) 0.69877(4) 0.0280 Uani
S4 S 0.39227(5) 0.27666(2) 0.82601(4) 0.0279 Uani
Cd1C Cd 0.77383(2) 0.12108(2) 1.00830(2) 0.0249 Uani
Cd2A Cd 0.76010(2) 0.01701(2) 1.02482(2) 0.0270 Uani
Cd2B Cd -0.23990(2) 0.48299(2) 0.52482(2) 0.0270 Uani
Cd2C Cd 0.23990(2) -0.01701(2) 0.97518(2) 0.0270 Uani
Cd3C Cd 0.20552(2) 0.21731(2) 0.30177(2) 0.0273 Uani
Cd4C Cd 0.35179(2) 0.27712(2) 1.22383(2) 0.0255 Uani
O5C O 0.25885(14) 0.46339(6) 0.39069(12) 0.0403 Uani
O6C O 0.38126(13) 0.50198(5) 0.44415(11) 0.0284 Uani
O9C O -0.36163(13) 0.35038(6) 0.53960(11) 0.0304 Uani
O10C O -0.32239(13) 0.32612(6) 0.44269(10) 0.0287 Uani
O13C O 0.37207(14) 0.20881(6) 0.60433(10) 0.0285 Uani
O14C O 0.42916(15) 0.26463(6) 0.65783(10) 0.0339 Uani
O15C O 0.17562(14) 0.29279(6) 0.91914(10) 0.0313 Uani
O16C O 0.14385(16) 0.23414(6) 0.86948(11) 0.0367 Uani
S1A S 0.28352(5) 0.56565(2) 0.58584(4) 0.0273 Uani
S1C S -0.28352(5) 0.43435(2) 0.41416(4) 0.0273 Uani
S2B S 0.17132(5) 0.57178(2) 0.38318(4) 0.0268 Uani
loop_
_atom_site_aniso_label
_atom_site_aniso_U_11
_atom_site_aniso_U_22
_atom_site_aniso_U_33
_atom_site_aniso_U_23
_atom_site_aniso_U_13
_atom_site_aniso_U_12
Cd1 0.01798(10) 0.02165(12) 0.03584(13) 0.00194(10) 0.00763(9) 0.00064(9)
Cd2 0.01968(10) 0.02047(12) 0.04230(14) 0.00202(10) 0.01052(9) 0.00081(9)
Cd3 0.03527(12) 0.02964(13) 0.01843(11) 0.01041(9) 0.00951(9) 0.00908(10)
Cd4 0.03302(12) 0.02578(12) 0.01921(11) 0.00954(9) 0.00896(9) 0.00360(9)
C1 0.0343(16) 0.0206(16) 0.0223(16) 0.0057(13) -0.0040(13) 0.0015(13)
C2 0.0234(14) 0.0213(16) 0.0320(17) 0.0072(13) -0.0031(13) 0.0009(13)
C3 0.0227(14) 0.0157(14) 0.0277(16) 0.0033(12) 0.0030(12) -0.0013(12)
C4 0.0240(14) 0.0149(14) 0.0301(16) 0.0038(12) 0.0068(12) 0.0006(12)
C5 0.0285(15) 0.0199(15) 0.0209(15) -0.0031(12) 0.0020(12) -0.0013(13)
C6 0.0343(16) 0.0232(16) 0.0259(16) 0.0047(13) 0.0042(13) -0.0078(14)
C7 0.043(2) 0.0226(17) 0.0373(19) 0.0079(15) -0.0035(16) -0.0050(16)
C8 0.0277(15) 0.0270(16) 0.0191(15) 0.0009(13) 0.0078(12) 0.0014(13)
C9 0.0243(14) 0.0241(16) 0.0201(15) -0.0008(12) 0.0075(12) 0.0034(12)
C10 0.0259(14) 0.0220(15) 0.0187(15) -0.0028(12) 0.0043(12) 0.0038(12)
C11 0.0211(14) 0.0279(16) 0.0189(15) 0.0018(12) 0.0006(11) 0.0030(13)
C12 0.0241(14) 0.0247(16) 0.0203(15) -0.0005(12) 0.0062(12) 0.0035(12)
C13 0.0260(15) 0.0338(18) 0.0173(15) -0.0045(13) 0.0085(12) 0.0019(13)
C14 0.0231(15) 0.0310(18) 0.0279(17) -0.0104(14) 0.0000(13) 0.0015(13)
C15 0.0258(15) 0.0264(17) 0.0253(16) -0.0034(14) 0.0039(13) 0.0020(13)
C16 0.0278(16) 0.0183(16) 0.0319(17) -0.0032(13) 0.0052(13) 0.0040(13)
C17 0.0204(14) 0.0194(15) 0.0279(16) 0.0016(13) 0.0056(12) 0.0009(12)
C18 0.0244(15) 0.0183(15) 0.0348(17) 0.0075(13) 0.0044(13) 0.0007(12)
C19 0.0179(14) 0.0215(16) 0.0360(18) 0.0083(13) 0.0048(12) 0.0002(12)
C20 0.0197(14) 0.0268(17) 0.0390(18) 0.0089(14) -0.0027(13) 0.0020(13)
C21 0.0273(15) 0.0258(17) 0.0280(16) 0.0084(13) -0.0020(13) 0.0006(13)
C22 0.0304(16) 0.0216(16) 0.0288(16) 0.0048(13) 0.0083(13) -0.0025(13)
C23 0.0367(18) 0.0288(18) 0.0272(17) 0.0093(14) -0.0006(14) 0.0027(15)
C24 0.0264(15) 0.0291(17) 0.0199(15) -0.0027(13) 0.0102(12) 0.0014(13)
C25 0.0241(14) 0.0236(16) 0.0198(15) 0.0010(12) 0.0062(12) 0.0024(12)
C26 0.0252(14) 0.0253(16) 0.0181(14) 0.0006(12) 0.0065(12) 0.0044(13)
C27 0.0273(15) 0.0258(16) 0.0133(14) -0.0036(12) 0.0044(11) 0.0012(13)
C28 0.0271(15) 0.0275(16) 0.0184(15) 0.0017(13) 0.0081(12) 0.0079(13)
C29 0.0287(15) 0.0327(17) 0.0154(14) 0.0025(13) 0.0063(12) 0.0016(13)
C30 0.0215(14) 0.0366(19) 0.0182(15) -0.0060(14) 0.0019(12) -0.0032(14)
C31 0.0233(14) 0.0287(17) 0.0199(15) -0.0039(13) 0.0026(12) -0.0007(13)
C32 0.0212(15) 0.0231(16) 0.046(2) 0.0047(15) 0.0085(14) 0.0010(13)
O1 0.0397(14) 0.0378(14) 0.0678(17) 0.0327(13) 0.0023(12) 0.0030(11)
O2 0.0516(13) 0.0280(12) 0.0289(12) 0.0096(10) 0.0100(10) -0.0020(11)
O3 0.0415(12) 0.0318(12) 0.0282(12) 0.0140(10) 0.0139(10) 0.0099(10)
O4 0.0337(13) 0.0474(15) 0.0604(16) 0.0333(12) 0.0102(11) 0.0144(11)
O5 0.0266(11) 0.0316(12) 0.0617(16) 0.0189(11) 0.0087(11) 0.0036(10)
O6 0.0232(10) 0.0204(11) 0.0411(12) 0.0096(10) 0.0067(9) -0.0002(9)
O7 0.0289(11) 0.0366(13) 0.0339(12) -0.0035(10) 0.0112(10) 0.0075(10)
O8 0.0295(11) 0.0312(12) 0.0361(12) 0.0106(10) 0.0075(9) 0.0115(9)
O9 0.0257(11) 0.0332(12) 0.0352(12) 0.0091(10) 0.0132(9) 0.0103(9)
O10 0.0273(11) 0.0331(12) 0.0290(11) -0.0027(9) 0.0133(9) 0.0041(9)
O11 0.0247(10) 0.0306(12) 0.0602(15) 0.0273(11) 0.0121(10) 0.0044(10)
O12 0.0252(12) 0.0429(14) 0.0613(16) 0.0226(12) 0.0124(11) 0.0036(10)
O13 0.0367(11) 0.0262(11) 0.0239(11) -0.0043(9) 0.0097(9) 0.0095(10)
O14 0.0544(14) 0.0306(12) 0.0206(11) 0.0029(10) 0.0169(10) 0.0118(11)
O15 0.0416(12) 0.0302(12) 0.0234(11) -0.0066(9) 0.0103(9) 0.0054(10)
O16 0.0590(14) 0.0346(12) 0.0197(11) 0.0044(10) 0.0159(10) 0.0110(11)
S1 0.0233(4) 0.0250(4) 0.0350(4) -0.0025(3) 0.0098(3) -0.0026(3)
S2 0.0224(4) 0.0248(4) 0.0338(4) 0.0033(3) 0.0077(3) 0.0019(3)
S3 0.0331(4) 0.0345(4) 0.0163(4) 0.0071(3) 0.0059(3) 0.0041(3)
S4 0.0341(4) 0.0321(4) 0.0170(4) 0.0064(3) 0.0049(3) 0.0030(3)
Cd1C 0.01798 0.02165 0.03584 -0.00194 0.00763 -0.00064
Cd2A 0.01968 0.02047 0.0423 -0.00202 0.01052 -0.00081
Cd2B 0.01968 0.02047 0.0423 0.00202 0.01052 0.00081
Cd2C 0.01968 0.02047 0.0423 -0.00202 0.01052 -0.00081
Cd3C 0.03527 0.02964 0.01843 -0.01041 0.00951 -0.00908
Cd4C 0.03302 0.02578 0.01921 -0.00954 0.00896 -0.0036
O5C 0.0266 0.0316 0.0617 -0.0189 0.0087 -0.0036
O6C 0.0232 0.0204 0.0411 -0.0096 0.0067 0.0002
O9C 0.0257 0.0332 0.0352 -0.0091 0.0132 -0.0103
O10C 0.0273 0.0331 0.029 0.0027 0.0133 -0.0041
O13C 0.0367 0.0262 0.0239 0.0043 0.0097 -0.0095
O14C 0.0544 0.0306 0.0206 -0.0029 0.0169 -0.0118
O15C 0.0416 0.0302 0.0234 0.0066 0.0103 -0.0054
O16C 0.059 0.0346 0.0197 -0.0044 0.0159 -0.011
S1A 0.0233 0.025 0.035 0.0025 0.0098 0.0026
S1C 0.0233 0.025 0.035 0.0025 0.0098 0.0026
S2B 0.0224 0.0248 0.0338 0.0033 0.0077 0.0019
loop_
_geom_bond_atom_site_label_1
_geom_bond_atom_site_label_2
_geom_bond_site_symmetry_1
_geom_bond_site_symmetry_2
Cd1 O7 1_555 1_555
Cd2 O11 1_555 1_555
Cd3 O3 1_555 1_555
Cd4 O1 1_555 1_555
C1 C2 1_555 1_555
C2 H1 1_555 1_555
C3 C2 1_555 1_555
C4 C3 1_555 1_555
H2 C4 1_555 1_555
C5 C4 1_555 1_555
C6 C1 1_555 1_555
H3 C6 1_555 1_555
C7 C1 1_555 1_555
C8 C9 1_555 1_555
C9 H4 1_555 1_555
C10 C9 1_555 1_555
C11 C10 1_555 1_555
H5 C11 1_555 1_555
C12 C11 1_555 1_555
C13 C8 1_555 1_555
H6 C13 1_555 1_555
C14 C12 1_555 1_555
C15 C25 1_555 1_555
C16 C3 1_555 1_555
C17 C18 1_555 1_555
C18 H7 1_555 1_555
C19 C18 1_555 1_555
C20 C19 1_555 1_555
H8 C20 1_555 1_555
C21 C20 1_555 1_555
C22 C17 1_555 1_555
H9 C22 1_555 1_555
C23 C21 1_555 1_555
C24 H10 1_555 1_555
C25 C24 1_555 1_555
C26 C25 1_555 1_555
H11 C26 1_555 1_555
C27 C26 1_555 1_555
C28 C27 1_555 1_555
H12 C28 1_555 1_555
C29 C24 1_555 1_555
C30 C27 1_555 1_555
C31 C10 1_555 1_555
C32 C19 1_555 1_555
O1 C7 1_555 1_555
O2 Cd4 1_555 1_555
O3 C23 1_555 1_555
O4 Cd3 1_555 1_555
O5 C16 1_555 1_555
O6 C16 1_555 1_555
O7 C14 1_555 1_555
O8 Cd1 1_555 1_555
O9 C15 1_555 1_555
O10 C15 1_555 1_555
O11 C32 1_555 1_555
O12 Cd2 1_555 1_555
O13 C30 1_555 1_555
O14 C30 1_555 1_555
O15 C31 1_555 1_555
O16 C31 1_555 1_555
S1 C5 1_555 1_555
S2 Cd1 1_555 1_555
S3 Cd3 1_555 1_555
S4 Cd3 1_555 1_555
Cd1C O9 1_555 1_555
Cd2A S1 1_555 1_555
Cd2B S2 1_555 1_555
Cd2C O5 1_555 1_555
Cd3C O15 1_555 1_555
Cd4C O13 1_555 1_555
O5C Cd2 1_555 1_555
O6C Cd2 1_555 1_555
O9C Cd1 1_555 1_555
O10C Cd1 1_555 1_555
O13C Cd4 1_555 1_555
O14C Cd4 1_555 1_555
O15C Cd3 1_555 1_555
O16C Cd3 1_555 1_555
S1A Cd2 1_555 1_555
S1C Cd1 1_555 1_555
S2B Cd2 1_555 1_555
Cd4 S3 1_555 1_555
Cd4 S4 1_555 1_555
C5 C6 1_555 1_555
C7 O2 1_555 1_555
C8 S3 1_555 1_555
C12 C13 1_555 1_555
C14 O8 1_555 1_555
C17 S2 1_555 1_555
C21 C22 1_555 1_555
C23 O4 1_555 1_555
C28 C29 1_555 1_555
C29 S4 1_555 1_555
C32 O12 1_555 1_555
O6 Cd2C 1_555 1_555
O10 Cd1C 1_555 1_555
O14 Cd4C 1_555 1_555
O16 Cd3C 1_555 1_555
S1 Cd1C 1_555 1_555
Cd2B S1C 1_555 1_555

#END
