
#######################################################################
#
#                 Cambridge Crystallographic Data Centre
#                                CCDC 
#
#######################################################################
#
# If this CIF has been generated from an entry in the Cambridge 
# Structural Database, then it will include bibliographic, chemical, 
# crystal, experimental, refinement or atomic coordinate data resulting 
# from the CCDC's data processing and validation procedures.
#
#######################################################################

data_NANTII
_chemical_formula_moiety         '(C62 H82 Ce2 N10 O60 Si1 W12 2-)n'
_symmetry_cell_setting           tetragonal
_symmetry_space_group_name_H-M   'P 42/n'
_symmetry_Int_Tables_number      86
_space_group_name_Hall           '-P 4bc'
loop_
_symmetry_equiv_pos_site_id
_symmetry_equiv_pos_as_xyz
1 x,y,z
2 -y,1/2+x,1/2+z
3 1/2-x,1/2-y,z
4 1/2+y,-x,1/2+z
5 -x,-y,-z
6 y,1/2-x,1/2-z
7 1/2+x,1/2+y,-z
8 1/2-y,x,1/2-z
_cell_length_a                   23.714(3)
_cell_length_b                   23.714(3)
_cell_length_c                   16.575(3)
_cell_angle_alpha                90
_cell_angle_beta                 90
_cell_angle_gamma                90
_cell_volume                     9321.01
loop_
_atom_site_label
_atom_site_type_symbol
_atom_site_fract_x
_atom_site_fract_y
_atom_site_fract_z
_atom_site_U_iso_or_equiv
_atom_site_thermal_displace_type
Si1 Si 0.2500 0.2500 0.2500 0.0482 Uani
W1 W 0.284703(19) 0.34895(2) 0.09902(2) 0.0594 Uani
W2 W 0.19208(2) 0.387365(19) 0.24300(2) 0.0593 Uani
W3 W 0.153624(18) 0.29426(2) 0.09866(2) 0.0596 Uani
O11 O 0.2275(3) 0.3013(3) 0.1929(3) 0.0540 Uani
O12 O 0.1526(3) 0.3405(3) 0.3180(4) 0.0580 Uani
O13 O 0.2523(3) 0.3840(3) 0.3189(4) 0.0643 Uani
O14 O 0.1641(4) 0.4529(3) 0.2630(5) 0.0727 Uani
O15 O 0.2459(3) 0.4070(3) 0.1592(4) 0.0647 Uani
O16 O 0.3166(3) 0.3902(4) 0.0274(4) 0.0733 Uani
O17 O 0.3120(3) 0.2761(4) 0.0716(4) 0.0657 Uani
O18 O 0.2145(3) 0.3328(3) 0.0457(4) 0.0630 Uani
O19 O 0.1410(3) 0.3625(3) 0.1587(4) 0.0597 Uani
O20 O 0.1013(3) 0.3003(4) 0.0278(4) 0.0737 Uani
O11B O 0.2725(3) 0.1987(3) 0.1929(3) 0.0540 Uani
O11E O 0.3013(3) 0.2725(3) 0.3071(3) 0.0540 Uani
O11G O 0.1987(3) 0.2275(3) 0.3071(3) 0.0540 Uani
W1B W 0.215297(19) 0.15105(2) 0.09902(2) 0.0594 Uani
W2B W 0.30792(2) 0.112635(19) 0.24300(2) 0.0593 Uani
W3B W 0.346376(18) 0.20574(2) 0.09866(2) 0.0596 Uani
O12B O 0.3474(3) 0.1595(3) 0.3180(4) 0.0580 Uani
O13B O 0.2477(3) 0.1160(3) 0.3189(4) 0.0643 Uani
O14B O 0.3359(4) 0.0471(3) 0.2630(5) 0.0727 Uani
O15B O 0.2541(3) 0.0930(3) 0.1592(4) 0.0647 Uani
O16B O 0.1834(3) 0.1098(4) 0.0274(4) 0.0733 Uani
O17B O 0.1880(3) 0.2239(4) 0.0716(4) 0.0657 Uani
O18B O 0.2855(3) 0.1672(3) 0.0457(4) 0.0630 Uani
O19B O 0.3590(3) 0.1375(3) 0.1587(4) 0.0597 Uani
O20B O 0.3987(3) 0.1997(4) 0.0278(4) 0.0737 Uani
W1E W 0.34895(2) 0.215297(19) 0.40098(2) 0.0594 Uani
W2E W 0.387365(19) 0.30792(2) 0.25700(2) 0.0593 Uani
W3E W 0.29426(2) 0.346376(18) 0.40134(2) 0.0596 Uani
O12E O 0.3405(3) 0.3474(3) 0.1820(4) 0.0580 Uani
O13E O 0.3840(3) 0.2477(3) 0.1811(4) 0.0643 Uani
O14E O 0.4529(3) 0.3359(4) 0.2370(5) 0.0727 Uani
O15E O 0.4070(3) 0.2541(3) 0.3408(4) 0.0647 Uani
O16E O 0.3902(4) 0.1834(3) 0.4726(4) 0.0733 Uani
O17E O 0.2761(4) 0.1880(3) 0.4284(4) 0.0657 Uani
O18E O 0.3328(3) 0.2855(3) 0.4543(4) 0.0630 Uani
O19E O 0.3625(3) 0.3590(3) 0.3413(4) 0.0597 Uani
O20E O 0.3003(4) 0.3987(3) 0.4722(4) 0.0737 Uani
W1G W 0.15105(2) 0.284703(19) 0.40098(2) 0.0594 Uani
W2G W 0.112635(19) 0.19208(2) 0.25700(2) 0.0593 Uani
W3G W 0.20574(2) 0.153624(18) 0.40134(2) 0.0596 Uani
O12G O 0.1595(3) 0.1526(3) 0.1820(4) 0.0580 Uani
O13G O 0.1160(3) 0.2523(3) 0.1811(4) 0.0643 Uani
O14G O 0.0471(3) 0.1641(4) 0.2370(5) 0.0727 Uani
O15G O 0.0930(3) 0.2459(3) 0.3408(4) 0.0647 Uani
O16G O 0.1098(4) 0.3166(3) 0.4726(4) 0.0733 Uani
O17G O 0.2239(4) 0.3120(3) 0.4284(4) 0.0657 Uani
O18G O 0.1672(3) 0.2145(3) 0.4543(4) 0.0630 Uani
O19G O 0.1375(3) 0.1410(3) 0.3413(4) 0.0597 Uani
O20G O 0.1997(4) 0.1013(3) 0.4722(4) 0.0737 Uani
Ce1 Ce 0.37054(2) 0.64558(2) 0.08940(3) 0.0455 Uani
O1 O 0.3369(3) 0.5571(3) 0.0289(4) 0.0700 Uani
O2 O 0.3179(3) 0.6367(3) -0.0356(4) 0.0617 Uani
O3 O 0.2027(4) 0.6282(3) -0.2887(5) 0.0710 Uani
O4 O 0.1909(3) 0.5469(3) -0.3501(4) 0.0643 Uani
O5 O 0.1599(3) 0.4030(3) -0.1394(5) 0.0723 Uani
O6 O 0.3521(3) 0.3936(3) -0.1601(4) 0.0650 Uani
O7 O 0.2816(3) 0.6364(4) 0.1463(6) 0.0877 Uani
O8 O 0.3994(4) 0.5785(4) 0.1811(5) 0.0847 Uani
O9 O 0.4435(3) 0.6201(4) 0.0032(5) 0.0833 Uani
O10 O 0.3683(4) 0.7335(4) 0.0346(6) 0.0980 Uani
C1 C 0.3158(5) 0.5826(5) -0.0303(6) 0.0627 Uani
C2 C 0.2864(5) 0.5497(4) -0.0956(6) 0.0587 Uani
C3 C 0.2629(4) 0.5771(4) -0.1592(6) 0.0577 Uani
H1 H 0.2645 0.6171 -0.1620 0.0690 Uiso
C4 C 0.2081(5) 0.5752(4) -0.2897(6) 0.0593 Uani
C5 C 0.2360(5) 0.5461(4) -0.2216(6) 0.0583 Uani
C6 C 0.2337(5) 0.4892(4) -0.2169(6) 0.0573 Uani
H2 H 0.2146 0.4685 -0.2577 0.0690 Uiso
C7 C 0.2595(5) 0.4600(4) -0.1516(6) 0.0573 Uani
C8 C 0.2855(5) 0.4902(4) -0.0906(6) 0.0580 Uani
H3 H 0.3023 0.4713 -0.0462 0.0690 Uiso
C9 C 0.2020(5) 0.3731(4) -0.1432(5) 0.0540 Uani
C10 C 0.2013(4) 0.3106(4) -0.1430(5) 0.0507 Uani
C11 C 0.2513(4) 0.2801(4) -0.1433(5) 0.0533 Uani
C12 C 0.3037(4) 0.3072(4) -0.1446(5) 0.0523 Uani
C13 C 0.3085(5) 0.3695(4) -0.1496(5) 0.0537 Uani
C14 C 0.3534(4) 0.2752(4) -0.1437(5) 0.0523 Uani
H4 H 0.3890 0.2937 -0.1446 0.0630 Uiso
C15 C 0.3510(4) 0.2146(4) -0.1414(5) 0.0543 Uani
H5 H 0.3844 0.1927 -0.1389 0.0660 Uiso
C16 C 0.4938(7) 0.6119(8) -0.0201(10) 0.1077 Uani
C17 C 0.5447(8) 0.6501(9) 0.0044(13) 0.1373 Uani
H6 H 0.5668 0.6312 0.0464 0.2060 Uiso
H7 H 0.5306 0.6862 0.0250 0.2060 Uiso
H8 H 0.5686 0.6569 -0.0429 0.2060 Uiso
C18 C 0.5635(6) 0.5569(7) -0.0943(10) 0.1110 Uani
H9 H 0.5916 0.5796 -0.0653 0.1670 Uiso
H10 H 0.5644 0.5666 -0.1518 0.1670 Uiso
H11 H 0.5722 0.5168 -0.0876 0.1670 Uiso
C19 C 0.4562(6) 0.5342(7) -0.0952(9) 0.0987 Uani
H12 H 0.4354 0.5171 -0.0502 0.1480 Uiso
H13 H 0.4701 0.5044 -0.1310 0.1480 Uiso
H14 H 0.4310 0.5593 -0.1254 0.1480 Uiso
C20 C 0.4207(10) 0.5519(9) 0.2364(12) 0.1240 Uani
C21 C 0.4871(9) 0.5730(9) 0.2611(11) 0.1343 Uani
H15 H 0.4855 0.5982 0.3078 0.2020 Uiso
H16 H 0.5040 0.5929 0.2153 0.2020 Uiso
H17 H 0.5101 0.5399 0.2744 0.2020 Uiso
C22 C 0.4368(8) 0.4805(8) 0.3385(11) 0.1323 Uani
H18 H 0.4633 0.4547 0.3122 0.1980 Uiso
H19 H 0.4098 0.4589 0.3707 0.1980 Uiso
H20 H 0.4577 0.5063 0.3738 0.1980 Uiso
C23 C 0.3471(9) 0.4923(8) 0.2410(10) 0.1220 Uani
H21 H 0.3163 0.5148 0.2637 0.1830 Uiso
H22 H 0.3424 0.4528 0.2569 0.1830 Uiso
H23 H 0.3465 0.4953 0.1821 0.1830 Uiso
C24 C 0.2373(9) 0.6112(9) 0.1790(14) 0.1393 Uani
C25 C 0.2190(8) 0.5532(8) 0.1392(12) 0.1260 Uani
H24 H 0.2047 0.5278 0.1811 0.1890 Uiso
H25 H 0.2516 0.5359 0.1125 0.1890 Uiso
H26 H 0.1892 0.5601 0.0993 0.1890 Uiso
C26 C 0.1661(8) 0.6059(8) 0.2867(14) 0.1537 Uani
H27 H 0.1741 0.5672 0.3044 0.2300 Uiso
H28 H 0.1332 0.6057 0.2508 0.2300 Uiso
H29 H 0.1581 0.6295 0.3338 0.2300 Uiso
C27 C 0.2254(9) 0.6842(9) 0.2644(12) 0.1480 Uani
H30 H 0.1913 0.7001 0.2888 0.2220 Uiso
H31 H 0.2354 0.7059 0.2162 0.2220 Uiso
H32 H 0.2564 0.6858 0.3033 0.2220 Uiso
C28 C 0.3588(5) 0.7762(8) -0.0031(11) 0.2107 Uani
C29 C 0.2997(4) 0.8074(3) -0.0156(12) 0.2313 Uani
H33 H 0.2904 0.8082 -0.0732 0.3470 Uiso
H34 H 0.3022 0.8460 0.0050 0.3470 Uiso
H35 H 0.2702 0.7869 0.0138 0.3470 Uiso
C30 C 0.3830(7) 0.8410(6) -0.1086(9) 0.2387 Uani
H36 H 0.4172 0.8638 -0.1148 0.3580 Uiso
H37 H 0.3523 0.8647 -0.0880 0.3580 Uiso
H38 H 0.3721 0.8253 -0.1611 0.3580 Uiso
C31 C 0.4526(5) 0.7706(8) -0.0487(13) 0.2170 Uani
H39 H 0.4555 0.7462 -0.0011 0.3260 Uiso
H40 H 0.4805 0.8009 -0.0447 0.3260 Uiso
H41 H 0.4598 0.7483 -0.0974 0.3260 Uiso
N1 N 0.2570(4) 0.3987(3) -0.1465(5) 0.0553 Uani
N2 N 0.2155(7) 0.6287(8) 0.2430(11) 0.1680 Uani
N3 N 0.4049(9) 0.5148(7) 0.2737(11) 0.1523 Uani
N4 N 0.5069(5) 0.5687(5) -0.0616(8) 0.1030 Uani
N5 N 0.3936(6) 0.7958(5) -0.0529(8) 0.2283 Uani
O1B O 0.1631(3) -0.0571(3) 0.0289(4) 0.0700 Uani
O2B O 0.1821(3) -0.1367(3) -0.0356(4) 0.0617 Uani
O3B O 0.2973(4) -0.1282(3) -0.2887(5) 0.0710 Uani
O4B O 0.3091(3) -0.0469(3) -0.3501(4) 0.0643 Uani
O5B O 0.3401(3) 0.0970(3) -0.1394(5) 0.0723 Uani
O6B O 0.1479(3) 0.1064(3) -0.1601(4) 0.0650 Uani
C1B C 0.1842(5) -0.0826(5) -0.0303(6) 0.0627 Uani
C2B C 0.2136(5) -0.0497(4) -0.0956(6) 0.0587 Uani
C3B C 0.2371(4) -0.0771(4) -0.1592(6) 0.0577 Uani
H1B H 0.2355 -0.1171 -0.1620 0.0690 Uiso
C4B C 0.2919(5) -0.0752(4) -0.2897(6) 0.0593 Uani
C5B C 0.2640(5) -0.0461(4) -0.2216(6) 0.0583 Uani
C6B C 0.2663(5) 0.0108(4) -0.2169(6) 0.0573 Uani
H2B H 0.2854 0.0315 -0.2577 0.0690 Uiso
C7B C 0.2405(5) 0.0400(4) -0.1516(6) 0.0573 Uani
C8B C 0.2145(5) 0.0098(4) -0.0906(6) 0.0580 Uani
H3B H 0.1977 0.0287 -0.0462 0.0690 Uiso
C9B C 0.2980(5) 0.1269(4) -0.1432(5) 0.0540 Uani
C10B C 0.2987(4) 0.1894(4) -0.1430(5) 0.0507 Uani
C11B C 0.2487(4) 0.2199(4) -0.1433(5) 0.0533 Uani
C12B C 0.1963(4) 0.1928(4) -0.1446(5) 0.0523 Uani
C13B C 0.1915(5) 0.1305(4) -0.1496(5) 0.0537 Uani
C14B C 0.1466(4) 0.2248(4) -0.1437(5) 0.0523 Uani
H4B H 0.1110 0.2063 -0.1446 0.0630 Uiso
C15B C 0.1490(4) 0.2854(4) -0.1414(5) 0.0543 Uani
H5B H 0.1156 0.3073 -0.1389 0.0660 Uiso
N1B N 0.2430(4) 0.1013(3) -0.1465(5) 0.0553 Uani
Ce1B Ce 0.12946(2) -0.14558(2) 0.08940(3) 0.0455 Uani
O7B O 0.2184(3) -0.1364(4) 0.1463(6) 0.0877 Uani
O8B O 0.1006(4) -0.0785(4) 0.1811(5) 0.0847 Uani
O9B O 0.0565(3) -0.1201(4) 0.0032(5) 0.0833 Uani
O10B O 0.1317(4) -0.2335(4) 0.0346(6) 0.0980 Uani
C16B C 0.0062(7) -0.1119(8) -0.0201(10) 0.1077 Uani
C17B C -0.0447(8) -0.1501(9) 0.0044(13) 0.1373 Uani
H6B H -0.0668 -0.1312 0.0464 0.2060 Uiso
H7B H -0.0306 -0.1862 0.0250 0.2060 Uiso
H8B H -0.0686 -0.1569 -0.0429 0.2060 Uiso
C18B C -0.0635(6) -0.0569(7) -0.0943(10) 0.1110 Uani
H9B H -0.0916 -0.0796 -0.0653 0.1670 Uiso
H10B H -0.0644 -0.0666 -0.1518 0.1670 Uiso
H11B H -0.0722 -0.0168 -0.0876 0.1670 Uiso
C19B C 0.0438(6) -0.0342(7) -0.0952(9) 0.0987 Uani
H12B H 0.0646 -0.0171 -0.0502 0.1480 Uiso
H13B H 0.0299 -0.0044 -0.1310 0.1480 Uiso
H14B H 0.0690 -0.0593 -0.1254 0.1480 Uiso
C20B C 0.0793(10) -0.0519(9) 0.2364(12) 0.1240 Uani
C21B C 0.0129(9) -0.0730(9) 0.2611(11) 0.1343 Uani
H15B H 0.0145 -0.0982 0.3078 0.2020 Uiso
H16B H -0.0040 -0.0929 0.2153 0.2020 Uiso
H17B H -0.0101 -0.0399 0.2744 0.2020 Uiso
C22B C 0.0632(8) 0.0195(8) 0.3385(11) 0.1323 Uani
H18B H 0.0367 0.0453 0.3122 0.1980 Uiso
H19B H 0.0902 0.0411 0.3707 0.1980 Uiso
H20B H 0.0423 -0.0063 0.3738 0.1980 Uiso
C23B C 0.1529(9) 0.0077(8) 0.2410(10) 0.1220 Uani
H21B H 0.1837 -0.0148 0.2637 0.1830 Uiso
H22B H 0.1576 0.0472 0.2569 0.1830 Uiso
H23B H 0.1535 0.0047 0.1821 0.1830 Uiso
C24B C 0.2627(9) -0.1112(9) 0.1790(14) 0.1393 Uani
C25B C 0.2810(8) -0.0532(8) 0.1392(12) 0.1260 Uani
H24B H 0.2953 -0.0278 0.1811 0.1890 Uiso
H25B H 0.2484 -0.0359 0.1125 0.1890 Uiso
H26B H 0.3108 -0.0601 0.0993 0.1890 Uiso
C26B C 0.3339(8) -0.1059(8) 0.2867(14) 0.1537 Uani
H27B H 0.3259 -0.0672 0.3044 0.2300 Uiso
H28B H 0.3668 -0.1057 0.2508 0.2300 Uiso
H29B H 0.3419 -0.1295 0.3338 0.2300 Uiso
C27B C 0.2746(9) -0.1842(9) 0.2644(12) 0.1480 Uani
H30B H 0.3087 -0.2001 0.2888 0.2220 Uiso
H31B H 0.2646 -0.2059 0.2162 0.2220 Uiso
H32B H 0.2436 -0.1858 0.3033 0.2220 Uiso
C28B C 0.1412(5) -0.2762(8) -0.0031(11) 0.2107 Uani
C29B C 0.2003(4) -0.3074(3) -0.0156(12) 0.2313 Uani
H33B H 0.2096 -0.3082 -0.0732 0.3470 Uiso
H34B H 0.1978 -0.3460 0.0050 0.3470 Uiso
H35B H 0.2298 -0.2869 0.0138 0.3470 Uiso
C30B C 0.1170(7) -0.3410(6) -0.1086(9) 0.2387 Uani
H36B H 0.0828 -0.3638 -0.1148 0.3580 Uiso
H37B H 0.1477 -0.3647 -0.0880 0.3580 Uiso
H38B H 0.1279 -0.3253 -0.1611 0.3580 Uiso
C31B C 0.0474(5) -0.2706(8) -0.0487(13) 0.2170 Uani
H39B H 0.0445 -0.2462 -0.0011 0.3260 Uiso
H40B H 0.0195 -0.3009 -0.0447 0.3260 Uiso
H41B H 0.0402 -0.2483 -0.0974 0.3260 Uiso
N2B N 0.2845(7) -0.1287(8) 0.2430(11) 0.1680 Uani
N3B N 0.0951(9) -0.0148(7) 0.2737(11) 0.1523 Uani
N4B N -0.0069(5) -0.0687(5) -0.0616(8) 0.1030 Uani
N5B N 0.1064(6) -0.2958(5) -0.0529(8) 0.2283 Uani
Ce1A Ce 0.35442(2) -0.12946(2) -0.41060(3) 0.0455 Uani
Ce1C Ce 0.14558(2) 0.62946(2) -0.41060(3) 0.0455 Uani
O3A O 0.3718(3) 0.7027(4) 0.2113(5) 0.0710 Uani
O3C O 0.1282(3) -0.2027(4) 0.2113(5) 0.0710 Uani
O4A O 0.4531(3) 0.6909(3) 0.1499(4) 0.0643 Uani
O4C O 0.0469(3) -0.1909(3) 0.1499(4) 0.0643 Uani
loop_
_atom_site_aniso_label
_atom_site_aniso_U_11
_atom_site_aniso_U_22
_atom_site_aniso_U_33
_atom_site_aniso_U_23
_atom_site_aniso_U_13
_atom_site_aniso_U_12
Si1 0.0659(18) 0.0659(18) 0.0129(18) 0.000 0.000 0.000
W1 0.0638(2) 0.0861(3) 0.02825(18) 0.01720(17) 0.00429(15) 0.0070(2)
W2 0.0751(3) 0.0658(2) 0.0370(2) 0.00734(17) 0.00875(17) 0.0044(2)
W3 0.0605(2) 0.0892(3) 0.02897(19) 0.00247(17) -0.00010(15) 0.0117(2)
O11 0.072(4) 0.069(4) 0.021(3) 0.004(3) 0.004(3) 0.002(3)
O12 0.075(4) 0.058(4) 0.041(3) -0.003(3) 0.006(3) 0.002(3)
O13 0.093(5) 0.057(4) 0.043(4) 0.005(3) 0.007(4) -0.009(4)
O14 0.089(5) 0.066(5) 0.063(5) 0.016(4) 0.014(4) 0.005(4)
O15 0.079(5) 0.072(4) 0.043(4) 0.015(3) 0.009(3) -0.002(4)
O16 0.067(4) 0.112(6) 0.041(4) 0.028(4) 0.011(3) 0.014(4)
O17 0.065(4) 0.114(6) 0.018(3) 0.008(3) 0.002(3) 0.002(4)
O18 0.068(4) 0.091(5) 0.030(3) 0.014(3) 0.006(3) 0.013(4)
O19 0.056(4) 0.074(4) 0.049(4) 0.004(3) 0.003(3) 0.008(3)
O20 0.053(4) 0.124(7) 0.044(4) 0.001(4) -0.004(3) 0.028(4)
O11B 0.072 0.069 0.021 -0.004 -0.004 0.002
O11E 0.069 0.072 0.021 0.004 -0.004 -0.002
O11G 0.069 0.072 0.021 -0.004 0.004 -0.002
W1B 0.0638 0.0861 0.02825 -0.0172 -0.00429 0.007
W2B 0.0751 0.0658 0.037 -0.00734 -0.00875 0.0044
W3B 0.0605 0.0892 0.02897 -0.00247 0.0001 0.0117
O12B 0.075 0.058 0.041 0.003 -0.006 0.002
O13B 0.093 0.057 0.043 -0.005 -0.007 -0.009
O14B 0.089 0.066 0.063 -0.016 -0.014 0.005
O15B 0.079 0.072 0.043 -0.015 -0.009 -0.002
O16B 0.067 0.112 0.041 -0.028 -0.011 0.014
O17B 0.065 0.114 0.018 -0.008 -0.002 0.002
O18B 0.068 0.091 0.03 -0.014 -0.006 0.013
O19B 0.056 0.074 0.049 -0.004 -0.003 0.008
O20B 0.053 0.124 0.044 -0.001 0.004 0.028
W1E 0.0861 0.0638 0.02825 0.00429 -0.0172 -0.007
W2E 0.0658 0.0751 0.037 0.00875 -0.00734 -0.0044
W3E 0.0892 0.0605 0.02897 -0.0001 -0.00247 -0.0117
O12E 0.058 0.075 0.041 0.006 0.003 -0.002
O13E 0.057 0.093 0.043 0.007 -0.005 0.009
O14E 0.066 0.089 0.063 0.014 -0.016 -0.005
O15E 0.072 0.079 0.043 0.009 -0.015 0.002
O16E 0.112 0.067 0.041 0.011 -0.028 -0.014
O17E 0.114 0.065 0.018 0.002 -0.008 -0.002
O18E 0.091 0.068 0.03 0.006 -0.014 -0.013
O19E 0.074 0.056 0.049 0.003 -0.004 -0.008
O20E 0.124 0.053 0.044 -0.004 -0.001 -0.028
W1G 0.0861 0.0638 0.02825 -0.00429 0.0172 -0.007
W2G 0.0658 0.0751 0.037 -0.00875 0.00734 -0.0044
W3G 0.0892 0.0605 0.02897 0.0001 0.00247 -0.0117
O12G 0.058 0.075 0.041 -0.006 -0.003 -0.002
O13G 0.057 0.093 0.043 -0.007 0.005 0.009
O14G 0.066 0.089 0.063 -0.014 0.016 -0.005
O15G 0.072 0.079 0.043 -0.009 0.015 0.002
O16G 0.112 0.067 0.041 -0.011 0.028 -0.014
O17G 0.114 0.065 0.018 -0.002 0.008 -0.002
O18G 0.091 0.068 0.03 -0.006 0.014 -0.013
O19G 0.074 0.056 0.049 -0.003 0.004 -0.008
O20G 0.124 0.053 0.044 0.004 0.001 -0.028
Ce1 0.0430(2) 0.0607(3) 0.0327(2) -0.0139(2) -0.00926(18) 0.0026(2)
O1 0.098(5) 0.066(4) 0.046(4) 0.001(3) -0.031(4) -0.001(4)
O2 0.071(4) 0.062(4) 0.052(4) -0.006(3) -0.023(3) -0.007(3)
O3 0.103(5) 0.050(4) 0.060(4) 0.004(3) -0.036(4) 0.002(4)
O4 0.094(5) 0.051(4) 0.048(4) 0.002(3) -0.033(3) -0.005(3)
O5 0.076(5) 0.070(5) 0.071(5) 0.000(4) -0.006(4) 0.018(4)
O6 0.080(5) 0.060(4) 0.055(4) 0.007(3) 0.009(4) -0.013(4)
O7 0.056(4) 0.111(7) 0.096(6) -0.016(5) -0.001(4) -0.011(4)
O8 0.099(6) 0.077(5) 0.078(5) -0.008(4) -0.039(5) 0.006(4)
O9 0.059(4) 0.123(6) 0.068(5) -0.049(5) -0.004(4) 0.002(4)
O10 0.122(7) 0.079(6) 0.093(6) -0.001(5) -0.043(6) -0.001(5)
C1 0.075(3) 0.066(3) 0.047(3) -0.002(3) -0.016(3) -0.001(3)
C2 0.073(3) 0.062(3) 0.041(3) 0.001(2) -0.017(3) -0.003(3)
C3 0.076(3) 0.058(3) 0.039(3) 0.000(2) -0.018(3) -0.001(3)
C4 0.080(3) 0.057(3) 0.041(3) 0.001(3) -0.020(3) -0.003(3)
C5 0.077(3) 0.058(3) 0.040(3) 0.002(2) -0.018(3) -0.001(3)
C6 0.077(3) 0.057(3) 0.038(2) 0.000(2) -0.018(2) -0.001(2)
C7 0.077(2) 0.058(2) 0.037(2) 0.003(2) -0.015(2) 0.002(2)
C8 0.076(3) 0.060(3) 0.038(2) 0.002(2) -0.018(2) 0.000(2)
C9 0.073(3) 0.056(3) 0.033(2) 0.002(2) -0.009(2) 0.002(3)
C10 0.070(3) 0.055(3) 0.027(3) 0.001(3) -0.004(3) 0.000(3)
C11 0.074(3) 0.057(3) 0.029(3) 0.001(2) -0.003(3) 0.001(3)
C12 0.073(3) 0.057(3) 0.027(2) 0.000(2) -0.003(2) 0.004(3)
C13 0.075(3) 0.056(3) 0.030(2) 0.000(2) -0.007(2) 0.001(2)
C14 0.071(3) 0.058(3) 0.028(3) -0.002(3) 0.000(3) 0.000(3)
C15 0.071(4) 0.064(4) 0.028(3) -0.003(3) 0.002(3) 0.005(3)
C16 0.097(6) 0.119(7) 0.107(7) -0.016(7) 0.024(6) 0.014(7)
C17 0.108(8) 0.153(8) 0.151(8) -0.012(8) 0.023(8) 0.007(8)
C18 0.093(7) 0.121(8) 0.119(8) -0.017(7) 0.030(6) 0.030(6)
C19 0.094(7) 0.102(7) 0.100(7) -0.023(6) 0.014(6) 0.003(6)
C20 0.153(8) 0.117(8) 0.102(8) -0.009(7) -0.018(7) 0.022(8)
C21 0.155(10) 0.128(9) 0.120(9) -0.016(8) -0.041(8) 0.012(9)
C22 0.161(9) 0.126(8) 0.110(8) -0.004(7) -0.043(8) 0.011(8)
C23 0.143(8) 0.114(8) 0.109(8) -0.015(7) -0.007(7) 0.008(7)
C24 0.129(8) 0.138(8) 0.151(8) -0.038(8) 0.032(8) -0.019(8)
C25 0.118(6) 0.125(7) 0.135(7) -0.026(6) 0.020(6) -0.018(6)
C26 0.139(8) 0.160(9) 0.162(9) -0.031(8) 0.033(8) -0.021(8)
C27 0.132(8) 0.147(9) 0.165(9) -0.044(8) 0.038(8) -0.015(8)
C28 0.087 0.276(10) 0.269(10) 0.061(9) 0.037(9) 0.007(9)
C29 0.140(9) 0.280(10) 0.274(10) 0.072(10) 0.040(9) 0.022(9)
C30 0.153(9) 0.283(10) 0.280(10) 0.068(10) 0.026(9) 0.008(9)
C31 0.138(7) 0.258(9) 0.255(9) 0.054(9) 0.033(8) -0.002(8)
N1 0.079(5) 0.045(4) 0.042(4) 0.004(3) -0.013(4) 0.001(4)
N2 0.144(10) 0.137(12) 0.223(16) -0.063(11) 0.127(10) -0.036(9)
N3 0.221(15) 0.106(11) 0.130(12) 0.040(10) -0.042(12) -0.008(11)
N4 0.105(8) 0.084(7) 0.120(9) -0.010(7) 0.053(7) 0.014(6)
N5 0.219(9) 0.227(10) 0.239(10) 0.013(7) 0.006(7) 0.017(7)
O1B 0.098 0.066 0.046 -0.001 0.031 -0.001
O2B 0.071 0.062 0.052 0.006 0.023 -0.007
O3B 0.103 0.05 0.06 -0.004 0.036 0.002
O4B 0.094 0.051 0.048 -0.002 0.033 -0.005
O5B 0.076 0.07 0.071 0 0.006 0.018
O6B 0.08 0.06 0.055 -0.007 -0.009 -0.013
C1B 0.075 0.066 0.047 0.002 0.016 -0.001
C2B 0.073 0.062 0.041 -0.001 0.017 -0.003
C3B 0.076 0.058 0.039 0 0.018 -0.001
C4B 0.08 0.057 0.041 -0.001 0.02 -0.003
C5B 0.077 0.058 0.04 -0.002 0.018 -0.001
C6B 0.077 0.057 0.038 0 0.018 -0.001
C7B 0.077 0.058 0.037 -0.003 0.015 0.002
C8B 0.076 0.06 0.038 -0.002 0.018 0
C9B 0.073 0.056 0.033 -0.002 0.009 0.002
C10B 0.07 0.055 0.027 -0.001 0.004 0
C11B 0.074 0.057 0.029 -0.001 0.003 0.001
C12B 0.073 0.057 0.027 0 0.003 0.004
C13B 0.075 0.056 0.03 0 0.007 0.001
C14B 0.071 0.058 0.028 0.002 0 0
C15B 0.071 0.064 0.028 0.003 -0.002 0.005
N1B 0.079 0.045 0.042 -0.004 0.013 0.001
Ce1B 0.043 0.0607 0.0327 0.0139 0.00926 0.0026
O7B 0.056 0.111 0.096 0.016 0.001 -0.011
O8B 0.099 0.077 0.078 0.008 0.039 0.006
O9B 0.059 0.123 0.068 0.049 0.004 0.002
O10B 0.122 0.079 0.093 0.001 0.043 -0.001
C16B 0.097 0.119 0.107 0.016 -0.024 0.014
C17B 0.108 0.153 0.151 0.012 -0.023 0.007
C18B 0.093 0.121 0.119 0.017 -0.03 0.03
C19B 0.094 0.102 0.1 0.023 -0.014 0.003
C20B 0.153 0.117 0.102 0.009 0.018 0.022
C21B 0.155 0.128 0.12 0.016 0.041 0.012
C22B 0.161 0.126 0.11 0.004 0.043 0.011
C23B 0.143 0.114 0.109 0.015 0.007 0.008
C24B 0.129 0.138 0.151 0.038 -0.032 -0.019
C25B 0.118 0.125 0.135 0.026 -0.02 -0.018
C26B 0.139 0.16 0.162 0.031 -0.033 -0.021
C27B 0.132 0.147 0.165 0.044 -0.038 -0.015
C28B 0.087 0.276 0.269 -0.061 -0.037 0.007
C29B 0.14 0.28 0.274 -0.072 -0.04 0.022
C30B 0.153 0.283 0.28 -0.068 -0.026 0.008
C31B 0.138 0.258 0.255 -0.054 -0.033 -0.002
N2B 0.144 0.137 0.223 0.063 -0.127 -0.036
N3B 0.221 0.106 0.13 -0.04 0.042 -0.008
N4B 0.105 0.084 0.12 0.01 -0.053 0.014
N5B 0.219 0.227 0.239 -0.013 -0.006 0.017
Ce1A 0.0607 0.043 0.0327 -0.00926 0.0139 -0.0026
Ce1C 0.0607 0.043 0.0327 0.00926 -0.0139 -0.0026
O3A 0.05 0.103 0.06 -0.036 -0.004 -0.002
O3C 0.05 0.103 0.06 0.036 0.004 -0.002
O4A 0.051 0.094 0.048 -0.033 -0.002 0.005
O4C 0.051 0.094 0.048 0.033 0.002 0.005
loop_
_geom_bond_atom_site_label_1
_geom_bond_atom_site_label_2
_geom_bond_site_symmetry_1
_geom_bond_site_symmetry_2
Ce1 O1 1_555 1_555
O1 C1 1_555 1_555
O2 Ce1 1_555 1_555
O3 C4 1_555 1_555
O4 C4 1_555 1_555
O5 C9 1_555 1_555
O6 C13 1_555 1_555
O7 Ce1 1_555 1_555
O8 Ce1 1_555 1_555
O9 Ce1 1_555 1_555
O10 Ce1 1_555 1_555
C1 O2 1_555 1_555
C2 C1 1_555 1_555
C3 C2 1_555 1_555
H1 C3 1_555 1_555
C4 C5 1_555 1_555
C5 C3 1_555 1_555
C6 C5 1_555 1_555
H2 C6 1_555 1_555
C7 C6 1_555 1_555
C8 C2 1_555 1_555
H3 C8 1_555 1_555
C9 C10 1_555 1_555
C10 C11 1_555 1_555
C11 C12 1_555 1_555
C12 C13 1_555 1_555
C13 N1 1_555 1_555
C14 C12 1_555 1_555
H4 C14 1_555 1_555
C15 C14 1_555 1_555
H5 C15 1_555 1_555
C16 O9 1_555 1_555
C17 C16 1_555 1_555
H6 C17 1_555 1_555
H7 C17 1_555 1_555
H8 C17 1_555 1_555
C18 H9 1_555 1_555
H10 C18 1_555 1_555
H11 C18 1_555 1_555
C19 H12 1_555 1_555
H13 C19 1_555 1_555
H14 C19 1_555 1_555
C20 O8 1_555 1_555
C21 C20 1_555 1_555
H15 C21 1_555 1_555
H16 C21 1_555 1_555
H17 C21 1_555 1_555
C22 H18 1_555 1_555
H19 C22 1_555 1_555
H20 C22 1_555 1_555
C23 H21 1_555 1_555
H22 C23 1_555 1_555
H23 C23 1_555 1_555
C24 O7 1_555 1_555
C25 C24 1_555 1_555
H24 C25 1_555 1_555
H25 C25 1_555 1_555
H26 C25 1_555 1_555
C26 H27 1_555 1_555
H28 C26 1_555 1_555
H29 C26 1_555 1_555
C27 H30 1_555 1_555
H31 C27 1_555 1_555
H32 C27 1_555 1_555
C28 O10 1_555 1_555
C29 C28 1_555 1_555
H33 C29 1_555 1_555
H34 C29 1_555 1_555
H35 C29 1_555 1_555
C30 H36 1_555 1_555
H37 C30 1_555 1_555
H38 C30 1_555 1_555
C31 H39 1_555 1_555
H40 C31 1_555 1_555
H41 C31 1_555 1_555
N1 C7 1_555 1_555
N2 C24 1_555 1_555
N3 C20 1_555 1_555
N4 C16 1_555 1_555
N5 C28 1_555 1_555
Si1 O11 1_555 1_555
W1 O11 1_555 1_555
W2 O11 1_555 1_555
W3 O11 1_555 1_555
O12 W2 1_555 1_555
O13 W2 1_555 1_555
O14 W2 1_555 1_555
O15 W1 1_555 1_555
O16 W1 1_555 1_555
O17 W1 1_555 1_555
O18 W1 1_555 1_555
O19 W2 1_555 1_555
O20 W3 1_555 1_555
O1B C1B 1_555 1_555
O2B C1B 1_555 1_555
O3B C4B 1_555 1_555
O4B C4B 1_555 1_555
O5B C9B 1_555 1_555
O6B C13B 1_555 1_555
C1B C2B 1_555 1_555
C2B C3B 1_555 1_555
C3B H1B 1_555 1_555
C4B C5B 1_555 1_555
C5B C3B 1_555 1_555
C6B C5B 1_555 1_555
H2B C6B 1_555 1_555
C7B C6B 1_555 1_555
C8B C2B 1_555 1_555
H3B C8B 1_555 1_555
C9B C10B 1_555 1_555
C10B C15 1_555 1_555
C11B C11 1_555 1_555
C12B C11B 1_555 1_555
C13B C12B 1_555 1_555
C14B C12B 1_555 1_555
H4B C14B 1_555 1_555
C15B C10 1_555 1_555
H5B C15B 1_555 1_555
N1B C7B 1_555 1_555
Ce1B O1B 1_555 1_555
O7B Ce1B 1_555 1_555
O8B Ce1B 1_555 1_555
O9B Ce1B 1_555 1_555
O10B Ce1B 1_555 1_555
C16B O9B 1_555 1_555
C17B C16B 1_555 1_555
H6B C17B 1_555 1_555
H7B C17B 1_555 1_555
H8B C17B 1_555 1_555
C18B H9B 1_555 1_555
H10B C18B 1_555 1_555
H11B C18B 1_555 1_555
C19B H12B 1_555 1_555
H13B C19B 1_555 1_555
H14B C19B 1_555 1_555
C20B O8B 1_555 1_555
C21B C20B 1_555 1_555
H15B C21B 1_555 1_555
H16B C21B 1_555 1_555
H17B C21B 1_555 1_555
C22B H18B 1_555 1_555
H19B C22B 1_555 1_555
H20B C22B 1_555 1_555
C23B H21B 1_555 1_555
H22B C23B 1_555 1_555
H23B C23B 1_555 1_555
C24B O7B 1_555 1_555
C25B C24B 1_555 1_555
H24B C25B 1_555 1_555
H25B C25B 1_555 1_555
H26B C25B 1_555 1_555
C26B H27B 1_555 1_555
H28B C26B 1_555 1_555
H29B C26B 1_555 1_555
C27B H30B 1_555 1_555
H31B C27B 1_555 1_555
H32B C27B 1_555 1_555
C28B O10B 1_555 1_555
C29B C28B 1_555 1_555
H33B C29B 1_555 1_555
H34B C29B 1_555 1_555
H35B C29B 1_555 1_555
C30B H36B 1_555 1_555
H37B C30B 1_555 1_555
H38B C30B 1_555 1_555
C31B H39B 1_555 1_555
H40B C31B 1_555 1_555
H41B C31B 1_555 1_555
N2B C24B 1_555 1_555
N3B C20B 1_555 1_555
N4B C16B 1_555 1_555
N5B C28B 1_555 1_555
Ce1A O3B 1_555 1_555
Ce1C O3 1_555 1_555
O3A Ce1 1_555 1_555
O3C Ce1B 1_555 1_555
O4A Ce1 1_555 1_555
O4C Ce1B 1_555 1_555
O11B Si1 1_555 1_555
O11E Si1 1_555 1_555
O11G Si1 1_555 1_555
W1B O11B 1_555 1_555
W2B O11B 1_555 1_555
W3B O17 1_555 1_555
O12B W2B 1_555 1_555
O13B W2B 1_555 1_555
O14B W2B 1_555 1_555
O15B W1B 1_555 1_555
O16B W1B 1_555 1_555
O17B W3 1_555 1_555
O18B W1B 1_555 1_555
O19B W2B 1_555 1_555
O20B W3B 1_555 1_555
W1E O11E 1_555 1_555
W2E O11E 1_555 1_555
W3E O13 1_555 1_555
O12E W1 1_555 1_555
O13E W3B 1_555 1_555
O14E W2E 1_555 1_555
O15E W1E 1_555 1_555
O16E W1E 1_555 1_555
O17E W1E 1_555 1_555
O18E W1E 1_555 1_555
O19E W2E 1_555 1_555
O20E W3E 1_555 1_555
W1G O12 1_555 1_555
W2G O11G 1_555 1_555
W3G O11G 1_555 1_555
O12G W1B 1_555 1_555
O13G W3 1_555 1_555
O14G W2G 1_555 1_555
O15G W1G 1_555 1_555
O16G W1G 1_555 1_555
O17G W3E 1_555 1_555
O18G W1G 1_555 1_555
O19G W2G 1_555 1_555
O20G W3G 1_555 1_555
O4 Ce1C 1_555 1_555
C7 C8 1_555 1_555
C9 N1 1_555 1_555
C18 N4 1_555 1_555
C19 N4 1_555 1_555
C22 N3 1_555 1_555
C23 N3 1_555 1_555
C26 N2 1_555 1_555
C27 N2 1_555 1_555
C30 N5 1_555 1_555
C31 N5 1_555 1_555
W2 O15 1_555 1_555
W3 O18 1_555 1_555
W3 O19 1_555 1_555
O2B Ce1B 1_555 1_555
O4B Ce1A 1_555 1_555
C7B C8B 1_555 1_555
C9B N1B 1_555 1_555
C10B C11B 1_555 1_555
C13B N1B 1_555 1_555
C14B C15B 1_555 1_555
C18B N4B 1_555 1_555
C19B N4B 1_555 1_555
C22B N3B 1_555 1_555
C23B N3B 1_555 1_555
C26B N2B 1_555 1_555
C27B N2B 1_555 1_555
C30B N5B 1_555 1_555
C31B N5B 1_555 1_555
O11B W3B 1_555 1_555
O11E W3E 1_555 1_555
O11G W1G 1_555 1_555
W1B O17B 1_555 1_555
W2B O15B 1_555 1_555
W3B O18B 1_555 1_555
W3B O19B 1_555 1_555
O12B W1E 1_555 1_555
O13B W3G 1_555 1_555
W2E O12E 1_555 1_555
W2E O13E 1_555 1_555
W2E O15E 1_555 1_555
W3E O18E 1_555 1_555
W3E O19E 1_555 1_555
O17E W3G 1_555 1_555
W1G O17G 1_555 1_555
W2G O12G 1_555 1_555
W2G O13G 1_555 1_555
W2G O15G 1_555 1_555
W3G O18G 1_555 1_555
W3G O19G 1_555 1_555

#END
