
#######################################################################
#
#                 Cambridge Crystallographic Data Centre
#                                CCDC 
#
#######################################################################
#
# If this CIF has been generated from an entry in the Cambridge 
# Structural Database, then it will include bibliographic, chemical, 
# crystal, experimental, refinement or atomic coordinate data resulting 
# from the CCDC's data processing and validation procedures.
#
#######################################################################

data_QAQNOO01
_chemical_formula_moiety         '(C30 H36 Cu2 N6 Ni1 O10)n'
_symmetry_cell_setting           trigonal
_symmetry_space_group_name_H-M   'P 32 2 1'
_symmetry_Int_Tables_number      154
_space_group_name_Hall           'P 32 2"'
loop_
_symmetry_equiv_pos_site_id
_symmetry_equiv_pos_as_xyz
1 x,y,z
2 -y,x-y,2/3+z
3 -x+y,-x,1/3+z
4 y,x,-z
5 x-y,-y,1/3-z
6 -x,-x+y,2/3-z
_cell_length_a                   19.6993(13)
_cell_length_b                   19.6993(13)
_cell_length_c                   29.2983(17)
_cell_angle_alpha                90
_cell_angle_beta                 90
_cell_angle_gamma                120
_cell_volume                     9846.34
loop_
_atom_site_label
_atom_site_type_symbol
_atom_site_fract_x
_atom_site_fract_y
_atom_site_fract_z
_atom_site_U_iso_or_equiv
_atom_site_thermal_displace_type
Cu1 Cu 0.36299(7) 0.67128(7) 0.66925(3) 0.0718 Uani
O1 O 0.3109(4) 0.7032(4) 0.62318(17) 0.0770 Uani
O2 O 0.2569(4) 0.6662(4) 0.55285(18) 0.0810 Uani
O3 O 0.2906(4) 0.5437(4) 0.55542(17) 0.0769 Uani
N1 N 0.3401(5) 0.5893(5) 0.6269(2) 0.0769 Uani
C1 C 0.3091(5) 0.5937(6) 0.5904(3) 0.0701 Uani
C2 C 0.2858(6) 0.6574(5) 0.5875(3) 0.0610 Uani
C3 C 0.4209(6) 0.5697(7) 0.6785(3) 0.0761 Uani
C4 C 0.3745(7) 0.5372(7) 0.6358(3) 0.0792 Uani
H1 H 0.4087 0.5396 0.6099 0.0950 Uiso
O4 O 0.4276(4) 0.6311(4) 0.69856(17) 0.0854 Uani
O5 O 0.4544(4) 0.5326(4) 0.69398(19) 0.0906 Uani
Cu2 Cu 0.24384(7) 0.56524(8) 0.50189(3) 0.0784 Uani
O6 O 0.3456(4) 0.6164(4) 0.46650(17) 0.0812 Uani
O7 O 0.2378(3) 0.6354(4) 0.37463(16) 0.0767 Uani
O8 O 0.3847(3) 0.6593(3) 0.39511(18) 0.0669 Uani
N2 N 0.2023(5) 0.5864(5) 0.4483(2) 0.0740 Uani
O9 O 0.1348(4) 0.5116(4) 0.5208(2) 0.0782 Uani
O10 O 0.0188(5) 0.5080(5) 0.50505(19) 0.0974 Uani
C5 C 0.3112(7) 0.4533(7) 0.6454(3) 0.0751 Uani
C6 C 0.3087(11) 0.3916(12) 0.6233(5) 0.1296 Uani
H2 H 0.3435 0.4011 0.5986 0.1560 Uiso
C7 C 0.2579(12) 0.3168(11) 0.6356(6) 0.1430 Uani
H3 H 0.2633 0.2756 0.6225 0.1710 Uiso
C8 C 0.2012(11) 0.2993(9) 0.6651(7) 0.1378 Uani
H4 H 0.1633 0.2459 0.6704 0.1650 Uiso
C9 C 0.1958(8) 0.3569(11) 0.6886(5) 0.1210 Uani
H5 H 0.1557 0.3448 0.7104 0.1450 Uiso
C10 C 0.2531(8) 0.4349(9) 0.6784(4) 0.1000 Uani
H6 H 0.2522 0.4764 0.6944 0.1200 Uiso
C11 C 0.3343(7) 0.6333(5) 0.4255(3) 0.0679 Uani
C12 C 0.2510(6) 0.6167(5) 0.4139(3) 0.0644 Uani
C13 C 0.1180(6) 0.5621(7) 0.4479(3) 0.0818 Uani
H7 H 0.0911 0.5209 0.4240 0.0980 Uiso
C14 C 0.0893(9) 0.5235(6) 0.4964(3) 0.0859 Uani
C15 C 0.1017(8) 0.6268(10) 0.4392(4) 0.0951 Uani
C16 C 0.1395(7) 0.6969(10) 0.4649(5) 0.1092 Uani
H8 H 0.1809 0.7059 0.4851 0.1310 Uiso
C17 C 0.1157(10) 0.7546(9) 0.4606(6) 0.1548 Uani
H9 H 0.1373 0.7989 0.4802 0.1860 Uiso
C18 C 0.0581(11) 0.7448(16) 0.4260(8) 0.2064 Uani
H10 H 0.0409 0.7817 0.4215 0.2500 Uiso
C19 C 0.0299(11) 0.6752(15) 0.3997(5) 0.1620 Uani
H11 H -0.0023 0.6691 0.3742 0.1950 Uiso
C20 C 0.0454(10) 0.6174(11) 0.4082(5) 0.1462 Uani
H12 H 0.0169 0.5690 0.3924 0.1750 Uiso
Ni1 Ni 0.48824(9) 0.51653(8) 0.76040(4) 0.0806 Uani
N3 N 0.5968(9) 0.5986(9) 0.7497(5) 0.1748 Uani
N4 N 0.5136(8) 0.4394(8) 0.7301(4) 0.1360 Uani
C21 C 0.6308(11) 0.5343(16) 0.6980(6) 0.1992 Uani
H13 H 0.6585 0.5256 0.7236 0.2390 Uiso
H14 H 0.6639 0.5437 0.6707 0.2390 Uiso
N5 N 0.4670(11) 0.6008(10) 0.7892(3) 0.1692 Uani
C22 C 0.5561(14) 0.4543(14) 0.6898(4) 0.2358 Uani
H15 H 0.5259 0.4571 0.6636 0.2850 Uiso
H16 H 0.5695 0.4129 0.6839 0.2850 Uiso
C23 C 0.5464(14) 0.6607(10) 0.7956(9) 0.2198 Uani
H17 H 0.5634 0.6507 0.8254 0.2640 Uiso
H18 H 0.5464 0.7108 0.7987 0.2640 Uiso
C24 C 0.6355(14) 0.6125(17) 0.7082(8) 0.2222 Uani
H19 H 0.6906 0.6553 0.7108 0.2680 Uiso
H20 H 0.6089 0.6260 0.6843 0.2680 Uiso
C25 C 0.4174(17) 0.5902(18) 0.8269(5) 0.3094 Uani
H21 H 0.4044 0.6326 0.8285 0.3750 Uiso
H22 H 0.4421 0.5886 0.8560 0.3750 Uiso
C26 C 0.3213(11) 0.4258(14) 0.8042(7) 0.2354 Uani
H23 H 0.3284 0.3995 0.8311 0.2840 Uiso
H24 H 0.2654 0.3962 0.7952 0.2840 Uiso
C27 C 0.344(2) 0.5108(16) 0.8169(8) 0.3667 Uani
H25 H 0.3186 0.5245 0.7923 0.4420 Uiso
H26 H 0.3115 0.5029 0.8443 0.4420 Uiso
C28 C 0.4418(14) 0.3769(12) 0.7233(7) 0.2116 Uani
H27 H 0.4489 0.3310 0.7186 0.2560 Uiso
H28 H 0.4222 0.3858 0.6941 0.2560 Uiso
N6 N 0.3680(8) 0.4263(10) 0.7683(5) 0.1603 Uani
C29 C 0.613(2) 0.6750(19) 0.7594(10) 0.3933 Uani
H29 H 0.6084 0.7011 0.7316 0.4740 Uiso
H30 H 0.6658 0.7071 0.7726 0.4740 Uiso
C30 C 0.3751(11) 0.3522(12) 0.7589(7) 0.2489 Uani
H31 H 0.3880 0.3340 0.7873 0.3010 Uiso
H32 H 0.3252 0.3092 0.7466 0.3010 Uiso
Cu1A Cu 0.32872(7) 0.69171(10) 0.33592(3) 0.0718 Uani
O7B O 0.3976(5) 0.7622(3) 0.70796(16) 0.0767 Uani
O8B O 0.2746(4) 0.6153(3) 0.72844(18) 0.0669 Uani
O10D O 0.5108(7) 0.4920(5) 0.82828(19) 0.0974 Uani
Ni1D Ni -0.02829(12) 0.48347(8) 0.57293(4) 0.0806 Uani
loop_
_atom_site_aniso_label
_atom_site_aniso_U_11
_atom_site_aniso_U_22
_atom_site_aniso_U_33
_atom_site_aniso_U_23
_atom_site_aniso_U_13
_atom_site_aniso_U_12
Cu1 0.1121(10) 0.0848(9) 0.0308(5) 0.0013(5) 0.0005(5) 0.0585(8)
O1 0.121(6) 0.089(5) 0.039(3) -0.004(3) -0.004(3) 0.066(4)
O2 0.118(5) 0.117(6) 0.035(3) 0.013(3) -0.001(3) 0.079(5)
O3 0.125(6) 0.087(4) 0.036(3) 0.010(3) 0.018(3) 0.066(4)
N1 0.125(7) 0.107(7) 0.020(4) -0.007(4) -0.011(4) 0.074(6)
C1 0.099(8) 0.093(8) 0.025(5) -0.010(5) 0.014(5) 0.053(7)
C2 0.087(7) 0.069(7) 0.039(5) -0.005(5) 0.012(5) 0.048(6)
C3 0.112(9) 0.099(9) 0.043(6) 0.033(6) 0.027(6) 0.072(8)
C4 0.115(9) 0.106(10) 0.043(5) 0.003(6) -0.003(6) 0.075(9)
O4 0.141(7) 0.105(6) 0.035(3) -0.004(4) -0.012(3) 0.080(5)
O5 0.136(6) 0.115(6) 0.053(4) 0.002(4) 0.003(4) 0.087(6)
Cu2 0.1073(10) 0.1136(11) 0.0253(5) 0.0036(6) 0.0082(6) 0.0635(9)
O6 0.117(5) 0.113(5) 0.033(3) 0.008(3) 0.012(3) 0.072(5)
O7 0.093(4) 0.096(5) 0.018(3) 0.010(3) -0.001(3) 0.030(4)
O8 0.078(4) 0.076(5) 0.038(3) 0.000(3) 0.011(3) 0.032(4)
N2 0.091(6) 0.100(6) 0.026(4) -0.005(4) -0.003(4) 0.044(5)
O9 0.095(5) 0.103(6) 0.040(3) 0.015(4) 0.016(3) 0.052(5)
O10 0.088(5) 0.134(6) 0.051(4) 0.026(4) 0.019(4) 0.041(5)
C5 0.126(10) 0.086(9) 0.036(5) 0.007(6) -0.002(6) 0.070(9)
C6 0.195(17) 0.131(13) 0.114(10) 0.017(11) 0.024(10) 0.120(14)
C7 0.157(16) 0.105(15) 0.149(14) -0.011(11) -0.002(12) 0.052(13)
C8 0.150(16) 0.087(12) 0.160(15) 0.005(11) -0.005(12) 0.047(12)
C9 0.106(12) 0.118(12) 0.123(11) 0.023(11) -0.024(8) 0.044(11)
C10 0.107(10) 0.115(12) 0.096(9) -0.011(8) -0.028(8) 0.069(10)
C11 0.107(9) 0.066(7) 0.033(6) -0.005(5) -0.006(6) 0.045(6)
C12 0.084(8) 0.054(6) 0.032(5) -0.008(4) 0.012(5) 0.017(6)
C13 0.086(8) 0.113(9) 0.020(4) -0.001(5) -0.002(5) 0.030(8)
C14 0.115(11) 0.058(7) 0.051(7) -0.006(5) 0.021(7) 0.018(8)
C15 0.096(9) 0.154(15) 0.048(6) 0.035(8) 0.012(6) 0.072(11)
C16 0.068(9) 0.110(11) 0.133(11) 0.012(10) 0.009(8) 0.032(9)
C17 0.132(14) 0.131(12) 0.207(17) 0.084(12) 0.096(14) 0.070(12)
C18 0.107(14) 0.37(4) 0.21(2) 0.13(2) 0.043(14) 0.17(2)
C19 0.119(14) 0.22(2) 0.078(10) 0.030(12) -0.008(9) 0.033(16)
C20 0.181(17) 0.190(17) 0.104(11) 0.057(11) 0.009(11) 0.120(15)
Ni1 0.1200(12) 0.1023(11) 0.0448(6) 0.0074(7) -0.0006(7) 0.0746(10)
N3 0.194(14) 0.171(13) 0.115(10) 0.094(10) -0.048(10) 0.058(11)
N4 0.153(12) 0.147(12) 0.132(11) -0.015(9) -0.053(9) 0.093(10)
C21 0.140(16) 0.42(5) 0.051(9) 0.038(16) 0.020(9) 0.15(2)
N5 0.31(2) 0.232(17) 0.069(7) 0.008(8) -0.014(9) 0.213(17)
C22 0.46(4) 0.46(4) 0.014(6) 0.008(14) 0.008(15) 0.40(4)
C23 0.23(2) 0.093(12) 0.33(4) -0.040(16) -0.21(3) 0.076(15)
C24 0.21(2) 0.33(4) 0.20(2) 0.14(3) 0.031(18) 0.19(2)
C25 0.66(6) 0.51(5) 0.035(8) 0.040(17) -0.014(19) 0.50(5)
C26 0.137(15) 0.31(3) 0.137(15) 0.085(19) 0.043(13) 0.020(18)
C27 0.71(6) 0.30(3) 0.22(2) 0.16(2) 0.36(4) 0.35(4)
C28 0.40(4) 0.18(2) 0.168(19) 0.038(17) -0.04(2) 0.23(3)
N6 0.150(12) 0.186(15) 0.137(10) 0.057(10) -0.013(9) 0.078(11)
C29 0.43(6) 0.47(7) 0.38(5) 0.21(5) 0.07(4) 0.30(6)
C30 0.16(2) 0.144(17) 0.32(3) 0.13(2) -0.14(2) -0.016(15)
Cu1A 0.0848 0.0799 0.0308 -0.0008 -0.0013 0.0263
O7B 0.129 0.093 0.018 0.001 0.011 0.063
O8B 0.09 0.078 0.038 -0.011 -0.011 0.046
O10D 0.14 0.134 0.051 0.026 0.007 0.093
Ni1D 0.0731 0.1023 0.0448 0.0074 0.008 0.0277
loop_
_geom_bond_atom_site_label_1
_geom_bond_atom_site_label_2
_geom_bond_site_symmetry_1
_geom_bond_site_symmetry_2
Cu1 O1 1_555 1_555
O1 C2 1_555 1_555
O2 C2 1_555 1_555
O3 C1 1_555 1_555
N1 Cu1 1_555 1_555
C1 N1 1_555 1_555
C2 C1 1_555 1_555
C3 C4 1_555 1_555
C4 N1 1_555 1_555
H1 C4 1_555 1_555
O4 Cu1 1_555 1_555
O5 C3 1_555 1_555
Cu2 O2 1_555 1_555
O6 Cu2 1_555 1_555
O7 C12 1_555 1_555
O8 C11 1_555 1_555
N2 Cu2 1_555 1_555
O9 Cu2 1_555 1_555
O10 C14 1_555 1_555
C5 C4 1_555 1_555
C6 C5 1_555 1_555
H2 C6 1_555 1_555
C7 C6 1_555 1_555
H3 C7 1_555 1_555
C8 C7 1_555 1_555
H4 C8 1_555 1_555
C9 C8 1_555 1_555
H5 C9 1_555 1_555
C10 C5 1_555 1_555
H6 C10 1_555 1_555
C11 O6 1_555 1_555
C12 N2 1_555 1_555
C13 N2 1_555 1_555
H7 C13 1_555 1_555
C14 O9 1_555 1_555
C15 C13 1_555 1_555
C16 C15 1_555 1_555
H8 C16 1_555 1_555
C17 C16 1_555 1_555
H9 C17 1_555 1_555
C18 C17 1_555 1_555
H10 C18 1_555 1_555
C19 C18 1_555 1_555
H11 C19 1_555 1_555
C20 C15 1_555 1_555
H12 C20 1_555 1_555
Ni1 O5 1_555 1_555
N3 Ni1 1_555 1_555
N4 Ni1 1_555 1_555
C21 H13 1_555 1_555
H14 C21 1_555 1_555
N5 Ni1 1_555 1_555
C22 N4 1_555 1_555
H15 C22 1_555 1_555
H16 C22 1_555 1_555
C23 N5 1_555 1_555
H17 C23 1_555 1_555
H18 C23 1_555 1_555
C24 N3 1_555 1_555
H19 C24 1_555 1_555
H20 C24 1_555 1_555
C25 N5 1_555 1_555
H21 C25 1_555 1_555
H22 C25 1_555 1_555
C26 H23 1_555 1_555
H24 C26 1_555 1_555
C27 C25 1_555 1_555
H25 C27 1_555 1_555
H26 C27 1_555 1_555
C28 N4 1_555 1_555
H27 C28 1_555 1_555
H28 C28 1_555 1_555
N6 Ni1 1_555 1_555
C29 N3 1_555 1_555
H29 C29 1_555 1_555
H30 C29 1_555 1_555
C30 C28 1_555 1_555
H31 C30 1_555 1_555
H32 C30 1_555 1_555
Cu1A O7 1_555 1_555
O7B Cu1 1_555 1_555
O8B Cu1 1_555 1_555
O10D Ni1 1_555 1_555
Ni1D O10 1_555 1_555
O3 Cu2 1_555 1_555
C3 O4 1_555 1_555
O8 Cu1A 1_555 1_555
C9 C10 1_555 1_555
C11 C12 1_555 1_555
C13 C14 1_555 1_555
C19 C20 1_555 1_555
C21 C22 1_555 1_555
C21 C24 1_555 1_555
C23 C29 1_555 1_555
C26 C27 1_555 1_555
C26 N6 1_555 1_555
N6 C30 1_555 1_555

#END
