
#######################################################################
#
#                 Cambridge Crystallographic Data Centre
#                                CCDC 
#
#######################################################################
#
# If this CIF has been generated from an entry in the Cambridge 
# Structural Database, then it will include bibliographic, chemical, 
# crystal, experimental, refinement or atomic coordinate data resulting 
# from the CCDC's data processing and validation procedures.
#
#######################################################################

data_QAQNOO
_chemical_formula_moiety         '(C36 H66 Cu2 N6 Ni1 O19)n'
_symmetry_cell_setting           trigonal
_symmetry_space_group_name_H-M   'P 32 2 1'
_symmetry_Int_Tables_number      154
_space_group_name_Hall           'P 32 2"'
loop_
_symmetry_equiv_pos_site_id
_symmetry_equiv_pos_as_xyz
1 x,y,z
2 -y,x-y,2/3+z
3 -x+y,-x,1/3+z
4 y,x,-z
5 x-y,-y,1/3-z
6 -x,-x+y,2/3-z
_cell_length_a                   19.6993(13)
_cell_length_b                   19.6993(13)
_cell_length_c                   29.2983(17)
_cell_angle_alpha                90
_cell_angle_beta                 90
_cell_angle_gamma                120
_cell_volume                     9846.34
loop_
_atom_site_label
_atom_site_type_symbol
_atom_site_fract_x
_atom_site_fract_y
_atom_site_fract_z
_atom_site_U_iso_or_equiv
_atom_site_thermal_displace_type
Cu1 Cu 0.36310(15) 0.67135(14) 0.66933(6) 0.0741 Uani
O1 O 0.3097(8) 0.7032(8) 0.6233(4) 0.0803 Uani
O2 O 0.2575(8) 0.6657(8) 0.5527(4) 0.0813 Uani
O3 O 0.2905(8) 0.5443(8) 0.5553(3) 0.0791 Uani
N1 N 0.3406(9) 0.5898(9) 0.6264(4) 0.0728 Uani
C1 C 0.3078(11) 0.5917(11) 0.5900(5) 0.0660 Uani
C2 C 0.2850(11) 0.6567(11) 0.5870(6) 0.0682 Uani
C3 C 0.4214(13) 0.5680(13) 0.6783(6) 0.0777 Uani
C4 C 0.3731(13) 0.5378(13) 0.6359(6) 0.0779 Uani
H1 H 0.4069 0.5398 0.6099 0.0930 Uiso
O4 O 0.4271(8) 0.6296(8) 0.6982(4) 0.0839 Uani
O5 O 0.4541(9) 0.5318(9) 0.6944(4) 0.0902 Uani
Cu2 Cu 0.24382(15) 0.56530(16) 0.50181(6) 0.0811 Uani
O6 O 0.3447(7) 0.6159(8) 0.4666(4) 0.0814 Uani
O7 O 0.2382(7) 0.6351(7) 0.3745(3) 0.0773 Uani
O8 O 0.3851(7) 0.6592(7) 0.3956(4) 0.0684 Uani
N2 N 0.2024(9) 0.5858(9) 0.4480(4) 0.0711 Uani
O9 O 0.1330(8) 0.5116(8) 0.5202(4) 0.0771 Uani
O10 O 0.0167(9) 0.5081(11) 0.5054(4) 0.1010 Uani
C5 C 0.3109(13) 0.4541(13) 0.6448(6) 0.0727 Uani
C6 C 0.308(2) 0.395(2) 0.6229(10) 0.1378 Uani
H2 H 0.3438 0.4039 0.5985 0.1610 Uiso
C7 C 0.255(3) 0.320(2) 0.6351(13) 0.1556 Uani
H3 H 0.2587 0.2787 0.6200 0.1900 Uiso
C8 C 0.197(2) 0.2974(19) 0.6673(13) 0.1400 Uani
H4 H 0.1601 0.2441 0.6735 0.1650 Uiso
C9 C 0.1965(16) 0.3557(19) 0.6885(10) 0.1156 Uani
H5 H 0.1579 0.3446 0.7112 0.1400 Uiso
C10 C 0.2528(15) 0.4358(16) 0.6786(8) 0.0961 Uani
H6 H 0.2511 0.4768 0.6947 0.1170 Uiso
C11 C 0.3357(13) 0.6337(11) 0.4253(6) 0.0716 Uani
C12 C 0.2510(11) 0.6171(10) 0.4136(5) 0.0650 Uani
C13 C 0.1201(12) 0.5620(13) 0.4479(5) 0.0853 Uani
H7 H 0.0932 0.5213 0.4238 0.1030 Uiso
C14 C 0.0860(18) 0.5231(12) 0.4965(6) 0.0901 Uani
C15 C 0.1032(14) 0.6288(17) 0.4394(7) 0.0882 Uani
C16 C 0.1393(13) 0.6961(17) 0.4646(10) 0.1051 Uani
H8 H 0.1803 0.7045 0.4849 0.1260 Uiso
C17 C 0.1167(18) 0.7527(18) 0.4608(12) 0.1467 Uani
H9 H 0.1400 0.7969 0.4805 0.1780 Uiso
C18 C 0.060(2) 0.747(4) 0.4288(17) 0.2289 Uani
H10 H 0.0456 0.7856 0.4257 0.2730 Uiso
C19 C 0.027(2) 0.676(3) 0.4012(10) 0.1556 Uani
H11 H -0.0089 0.6699 0.3776 0.1840 Uiso
C20 C 0.0458(18) 0.619(2) 0.4080(9) 0.1319 Uani
H12 H 0.0192 0.5719 0.3910 0.1620 Uiso
Ni1 Ni 0.48805(18) 0.51648(17) 0.76037(8) 0.0841 Uani
N3 N 0.5966(16) 0.5979(16) 0.7488(9) 0.1502 Uani
H13 H 0.6286 0.5869 0.7709 0.1800 Uiso
N4 N 0.5104(17) 0.4395(17) 0.7299(8) 0.1321 Uani
H14 H 0.5381 0.4247 0.7530 0.1630 Uiso
C21 C 0.631(2) 0.531(3) 0.6987(11) 0.2139 Uani
H15 H 0.6641 0.5402 0.6714 0.2580 Uiso
H16 H 0.6571 0.5208 0.7245 0.2580 Uiso
N5 N 0.4642(19) 0.5983(16) 0.7905(7) 0.1822 Uani
H17 H 0.4447 0.6189 0.7657 0.2180 Uiso
C22 C 0.553(2) 0.456(2) 0.6903(8) 0.2202 Uani
H18 H 0.5248 0.4627 0.6646 0.2690 Uiso
H19 H 0.5628 0.4121 0.6828 0.2690 Uiso
C23 C 0.536(2) 0.6585(17) 0.8031(13) 0.2211 Uani
H20 H 0.5510 0.6488 0.8338 0.2650 Uiso
H21 H 0.5363 0.7087 0.8038 0.2650 Uiso
C24 C 0.632(3) 0.608(4) 0.7093(15) 0.3233 Uani
H22 H 0.6869 0.6523 0.7111 0.3910 Uiso
H23 H 0.6045 0.6201 0.6851 0.3910 Uiso
C25 C 0.409(2) 0.574(3) 0.8267(7) 0.2358 Uani
H24 H 0.3981 0.6172 0.8340 0.2890 Uiso
H25 H 0.4307 0.5635 0.8543 0.2890 Uiso
C26 C 0.323(2) 0.420(3) 0.8004(11) 0.2367 Uani
H26 H 0.3341 0.3982 0.8277 0.2820 Uiso
H27 H 0.2676 0.3843 0.7915 0.2820 Uiso
C27 C 0.331(3) 0.500(3) 0.813(2) 0.2300 Uiso
H28 H 0.2949 0.4896 0.8389 0.2740 Uiso
H29 H 0.3103 0.5155 0.7871 0.2740 Uiso
C28 C 0.438(2) 0.374(2) 0.7238(16) 0.3700 Uani
H30 H 0.4465 0.3292 0.7193 0.4430 Uiso
H31 H 0.4167 0.3815 0.6947 0.4430 Uiso
N6 N 0.3693(15) 0.4242(19) 0.7666(9) 0.1678 Uani
H32 H 0.3430 0.4283 0.7384 0.2020 Uiso
C29 C 0.594(3) 0.661(3) 0.7669(18) 0.2500 Uiso
H33 H 0.5883 0.6891 0.7405 0.3030 Uiso
H34 H 0.6469 0.6959 0.7795 0.3030 Uiso
C30 C 0.375(2) 0.350(2) 0.7596(13) 0.2733 Uani
H35 H 0.3894 0.3345 0.7883 0.3280 Uiso
H36 H 0.3241 0.3065 0.7486 0.3280 Uiso
O11 O 0.2209(14) 0.4277(13) 0.4788(8) 0.1680 Uiso
Cu1A Cu 0.32865(14) 0.69175(21) 0.33600(6) 0.0741 Uani
O7B O 0.3969(10) 0.7618(7) 0.7078(3) 0.0773 Uani
O8B O 0.2741(10) 0.6149(7) 0.7289(4) 0.0684 Uani
O10D O 0.5086(14) 0.4919(11) 0.8279(4) 0.1010 Uani
Ni1D Ni -0.02843(25) 0.48352(17) 0.57296(8) 0.0841 Uani
O12 O 0.307(4) 0.439(4) 0.415(2) 0.4300 Uiso
O13 O 0.156(2) 0.368(2) 0.5543(11) 0.2450 Uiso
O14 O 0.473(2) 0.629(2) 0.5147(11) 0.2400 Uiso
O15 O 0.451(4) 0.386(4) 0.491(2) 0.2600 Uiso
O16 O 0.487(3) 0.476(3) 0.446(2) 0.2200 Uiso
O17 O 0.5184(19) 0.6375(19) 0.4341(11) 0.2270 Uiso
C31 C 0.567(3) 0.738(3) 0.6173(18) 0.2200 Uiso
H37 H 0.5384 0.6868 0.6339 0.2640 Uiso
C32 C 0.517(2) 0.774(2) 0.6072(12) 0.1640 Uiso
H38 H 0.5184 0.7840 0.5743 0.2470 Uiso
H39 H 0.5376 0.8235 0.6239 0.2470 Uiso
H40 H 0.4632 0.7380 0.6167 0.2470 Uiso
C33 C 0.623(4) 0.806(4) 0.648(2) 0.3800 Uiso
H41 H 0.6639 0.7968 0.6600 0.5690 Uiso
H42 H 0.5933 0.8111 0.6737 0.5690 Uiso
H43 H 0.6472 0.8552 0.6304 0.5690 Uiso
O18 O 0.594(4) 0.732(4) 0.576(2) 0.4700 Uiso
H44 H 0.5569 0.6995 0.5599 0.7050 Uiso
O19 O 0.263(3) 0.803(2) 0.6602(13) 0.2690 Uiso
H45 H 0.2442 0.7549 0.6538 0.4030 Uiso
C34 C 0.237(2) 0.802(3) 0.5772(15) 0.2130 Uiso
H46 H 0.1845 0.7592 0.5851 0.3190 Uiso
H47 H 0.2662 0.7810 0.5616 0.3190 Uiso
H48 H 0.2318 0.8391 0.5570 0.3190 Uiso
C35 C 0.370(4) 0.897(5) 0.629(3) 0.4400 Uiso
H49 H 0.3803 0.9181 0.6598 0.6610 Uiso
H50 H 0.3917 0.9403 0.6067 0.6610 Uiso
H51 H 0.3955 0.8654 0.6243 0.6610 Uiso
C36 C 0.281(3) 0.845(3) 0.6211(15) 0.2700 Uiso
H52 H 0.2605 0.8818 0.6272 0.3200 Uiso
loop_
_atom_site_aniso_label
_atom_site_aniso_U_11
_atom_site_aniso_U_22
_atom_site_aniso_U_33
_atom_site_aniso_U_23
_atom_site_aniso_U_13
_atom_site_aniso_U_12
Cu1 0.1144(19) 0.0872(17) 0.0326(11) 0.0000(11) -0.0006(10) 0.0594(15)
O1 0.118(11) 0.097(9) 0.049(7) 0.000(7) -0.005(7) 0.071(8)
O2 0.115(10) 0.120(11) 0.036(7) 0.010(7) 0.000(7) 0.079(9)
O3 0.128(11) 0.101(9) 0.032(6) 0.013(7) 0.017(6) 0.075(9)
N1 0.119(13) 0.095(11) 0.025(8) -0.003(7) -0.001(8) 0.069(11)
C1 0.107(15) 0.090(13) 0.018(9) 0.000(9) 0.011(9) 0.062(12)
C2 0.092(13) 0.098(14) 0.030(10) -0.009(9) 0.005(9) 0.059(12)
C3 0.121(18) 0.092(16) 0.041(11) 0.012(11) 0.019(11) 0.069(14)
C4 0.113(16) 0.105(17) 0.039(10) 0.005(10) 0.010(10) 0.072(15)
O4 0.117(11) 0.103(10) 0.037(6) 0.000(7) -0.009(6) 0.059(9)
O5 0.132(12) 0.116(11) 0.056(7) 0.005(7) 0.000(8) 0.087(11)
Cu2 0.108(2) 0.116(2) 0.0269(11) 0.0032(11) 0.0086(10) 0.0616(16)
O6 0.111(10) 0.109(10) 0.039(7) 0.010(6) 0.014(6) 0.066(9)
O7 0.090(8) 0.101(9) 0.020(6) 0.007(6) -0.003(5) 0.032(7)
O8 0.076(8) 0.080(9) 0.040(6) 0.006(6) 0.018(6) 0.032(7)
N2 0.082(11) 0.089(11) 0.040(8) -0.008(8) -0.001(8) 0.041(9)
O9 0.093(9) 0.105(11) 0.038(6) 0.019(7) 0.023(6) 0.053(9)
O10 0.079(9) 0.152(14) 0.055(8) 0.025(8) 0.015(7) 0.045(10)
C5 0.117(18) 0.075(15) 0.046(10) 0.004(10) 0.000(11) 0.063(14)
C6 0.18(3) 0.12(2) 0.12(2) 0.01(2) 0.03(2) 0.08(2)
C7 0.22(4) 0.11(3) 0.16(3) -0.04(2) 0.00(3) 0.10(3)
C8 0.17(3) 0.09(2) 0.14(3) -0.01(2) -0.03(2) 0.05(2)
C9 0.11(2) 0.11(2) 0.12(2) 0.018(19) -0.033(16) 0.050(19)
C10 0.116(19) 0.11(2) 0.091(16) -0.009(14) -0.014(15) 0.078(18)
C11 0.111(17) 0.071(12) 0.040(11) -0.006(9) -0.003(11) 0.051(12)
C12 0.078(13) 0.065(11) 0.035(10) -0.009(8) 0.017(9) 0.023(10)
C13 0.089(16) 0.102(17) 0.032(9) -0.005(10) -0.004(9) 0.023(13)
C14 0.14(2) 0.067(13) 0.041(11) -0.008(9) -0.004(14) 0.035(15)
C15 0.092(16) 0.12(2) 0.054(12) 0.024(14) 0.016(12) 0.054(17)
C16 0.067(15) 0.086(17) 0.15(2) 0.030(18) 0.008(15) 0.029(14)
C17 0.11(2) 0.12(2) 0.20(3) 0.06(2) 0.07(2) 0.05(2)
C18 0.13(3) 0.41(9) 0.22(5) 0.14(5) 0.04(3) 0.19(5)
C19 0.13(3) 0.21(4) 0.08(2) 0.04(2) -0.024(18) 0.05(3)
C20 0.15(3) 0.20(3) 0.089(18) 0.05(2) -0.003(18) 0.12(3)
Ni1 0.122(2) 0.108(2) 0.0478(13) 0.0084(13) 0.0000(14) 0.0767(19)
N3 0.16(2) 0.17(2) 0.096(16) 0.057(17) -0.039(16) 0.064(18)
N4 0.19(3) 0.16(2) 0.103(19) -0.019(16) -0.044(17) 0.13(2)
C21 0.14(3) 0.46(10) 0.055(18) 0.06(3) 0.023(19) 0.16(5)
N5 0.37(5) 0.21(3) 0.080(15) 0.004(17) -0.03(2) 0.23(4)
C22 0.46(8) 0.38(7) 0.034(15) 0.00(3) 0.00(3) 0.37(7)
C23 0.30(5) 0.10(2) 0.29(6) -0.09(3) -0.25(5) 0.12(3)
C24 0.17(4) 0.61(14) 0.25(6) 0.29(8) 0.08(4) 0.24(7)
C25 0.36(6) 0.50(8) 0.014(11) 0.05(2) 0.05(2) 0.34(7)
C26 0.14(3) 0.31(7) 0.11(3) 0.08(3) 0.01(2) 0.00(3)
C28 0.83(19) 0.19(5) 0.23(6) -0.04(4) -0.23(9) 0.36(9)
N6 0.12(2) 0.23(4) 0.13(2) 0.08(2) -0.007(17) 0.07(2)
C30 0.23(5) 0.11(3) 0.38(9) 0.11(4) -0.20(6) 0.01(3)
Cu1A 0.0872 0.0828 0.0326 -0.0006 0 0.0278
O7B 0.127 0.09 0.02 0.003 0.01 0.058
O8B 0.092 0.076 0.04 -0.018 -0.012 0.044
O10D 0.141 0.152 0.055 0.025 0.01 0.107
Ni1D 0.0766 0.108 0.0478 0.0084 0.0084 0.0313
loop_
_geom_bond_atom_site_label_1
_geom_bond_atom_site_label_2
_geom_bond_site_symmetry_1
_geom_bond_site_symmetry_2
Cu1 O1 1_555 1_555
O1 C2 1_555 1_555
O2 C2 1_555 1_555
O3 C1 1_555 1_555
N1 Cu1 1_555 1_555
C1 N1 1_555 1_555
C2 C1 1_555 1_555
C3 C4 1_555 1_555
C4 N1 1_555 1_555
H1 C4 1_555 1_555
O4 Cu1 1_555 1_555
O5 C3 1_555 1_555
Cu2 O2 1_555 1_555
O6 Cu2 1_555 1_555
O7 C12 1_555 1_555
O8 C11 1_555 1_555
N2 Cu2 1_555 1_555
O9 Cu2 1_555 1_555
O10 C14 1_555 1_555
C5 C4 1_555 1_555
C6 C5 1_555 1_555
H2 C6 1_555 1_555
C7 C6 1_555 1_555
H3 C7 1_555 1_555
C8 C7 1_555 1_555
H4 C8 1_555 1_555
C9 C8 1_555 1_555
H5 C9 1_555 1_555
C10 C5 1_555 1_555
H6 C10 1_555 1_555
C11 O6 1_555 1_555
C12 N2 1_555 1_555
C13 N2 1_555 1_555
H7 C13 1_555 1_555
C14 O9 1_555 1_555
C15 C13 1_555 1_555
C16 C15 1_555 1_555
H8 C16 1_555 1_555
C17 C16 1_555 1_555
H9 C17 1_555 1_555
C18 C17 1_555 1_555
H10 C18 1_555 1_555
C19 C18 1_555 1_555
H11 C19 1_555 1_555
C20 C15 1_555 1_555
H12 C20 1_555 1_555
Ni1 O5 1_555 1_555
N3 Ni1 1_555 1_555
H13 N3 1_555 1_555
N4 Ni1 1_555 1_555
H14 N4 1_555 1_555
C21 H15 1_555 1_555
H16 C21 1_555 1_555
N5 Ni1 1_555 1_555
H17 N5 1_555 1_555
C22 N4 1_555 1_555
H18 C22 1_555 1_555
H19 C22 1_555 1_555
C23 N5 1_555 1_555
H20 C23 1_555 1_555
H21 C23 1_555 1_555
C24 N3 1_555 1_555
H22 C24 1_555 1_555
H23 C24 1_555 1_555
C25 N5 1_555 1_555
H24 C25 1_555 1_555
H25 C25 1_555 1_555
C26 H26 1_555 1_555
H27 C26 1_555 1_555
C27 C25 1_555 1_555
H28 C27 1_555 1_555
H29 C27 1_555 1_555
C28 N4 1_555 1_555
H30 C28 1_555 1_555
H31 C28 1_555 1_555
N6 Ni1 1_555 1_555
H32 N6 1_555 1_555
C29 N3 1_555 1_555
H33 C29 1_555 1_555
H34 C29 1_555 1_555
C30 C28 1_555 1_555
H35 C30 1_555 1_555
H36 C30 1_555 1_555
O11 Cu2 1_555 1_555
C31 H37 1_555 1_555
C32 C31 1_555 1_555
H38 C32 1_555 1_555
H39 C32 1_555 1_555
H40 C32 1_555 1_555
C33 C31 1_555 1_555
H41 C33 1_555 1_555
H42 C33 1_555 1_555
H43 C33 1_555 1_555
O18 C31 1_555 1_555
H44 O18 1_555 1_555
O19 H45 1_555 1_555
C34 H46 1_555 1_555
H47 C34 1_555 1_555
H48 C34 1_555 1_555
C35 H49 1_555 1_555
H50 C35 1_555 1_555
H51 C35 1_555 1_555
C36 O19 1_555 1_555
H52 C36 1_555 1_555
Cu1A O7 1_555 1_555
O7B Cu1 1_555 1_555
O8B Cu1 1_555 1_555
O10D Ni1 1_555 1_555
Ni1D O10 1_555 1_555
O3 Cu2 1_555 1_555
C3 O4 1_555 1_555
O8 Cu1A 1_555 1_555
C9 C10 1_555 1_555
C11 C12 1_555 1_555
C13 C14 1_555 1_555
C19 C20 1_555 1_555
C21 C22 1_555 1_555
C21 C24 1_555 1_555
C23 C29 1_555 1_555
C26 C27 1_555 1_555
C26 N6 1_555 1_555
N6 C30 1_555 1_555
C34 C36 1_555 1_555
C35 C36 1_555 1_555

#END
