
#######################################################################
#
#                 Cambridge Crystallographic Data Centre
#                                CCDC 
#
#######################################################################
#
# If this CIF has been generated from an entry in the Cambridge 
# Structural Database, then it will include bibliographic, chemical, 
# crystal, experimental, refinement or atomic coordinate data resulting 
# from the CCDC's data processing and validation procedures.
#
#######################################################################

data_COWDEZ
_chemical_formula_moiety         'C44 H42 Co12 K1 N22 O153 P10 W40 1+'
_symmetry_cell_setting           orthorhombic
_symmetry_space_group_name_H-M   'I m m m'
_symmetry_Int_Tables_number      71
_space_group_name_Hall           '-I 2 2'
loop_
_symmetry_equiv_pos_site_id
_symmetry_equiv_pos_as_xyz
1 x,y,z
2 -x,-y,z
3 -x,y,-z
4 x,-y,-z
5 1/2+x,1/2+y,1/2+z
6 1/2-x,1/2-y,1/2+z
7 1/2-x,1/2+y,1/2-z
8 1/2+x,1/2-y,1/2-z
9 -x,-y,-z
10 x,y,-z
11 x,-y,z
12 -x,y,z
13 1/2-x,1/2-y,1/2-z
14 1/2+x,1/2+y,1/2-z
15 1/2+x,1/2-y,1/2+z
16 1/2-x,1/2+y,1/2+z
_cell_length_a                   18.9064(12)
_cell_length_b                   20.9843(13)
_cell_length_c                   23.4284(16)
_cell_angle_alpha                90
_cell_angle_beta                 90
_cell_angle_gamma                90
_cell_volume                     9294.93
loop_
_atom_site_label
_atom_site_type_symbol
_atom_site_fract_x
_atom_site_fract_y
_atom_site_fract_z
O26 O 0.046(2) 0.0000 0.5000
K1 K 0.0864(7) 0.0000 0.5000
W1 W 0.08778(4) 0.0000 0.23895(4)
W2 W 0.08693(3) 0.17081(3) 0.28994(3)
W3 W 0.08723(3) 0.27703(3) 0.41967(3)
W4 W 0.17931(10) 0.14881(10) 0.5000
W5 W 0.18000(5) 0.12497(5) 0.42060(5)
W6 W 0.18043(5) 0.04406(6) 0.37095(6)
P1 P 0.0000 0.1627(6) 0.5000
P2 P 0.0000 0.1360(4) 0.4137(4)
P3 P 0.0000 0.0486(4) 0.3585(4)
O1 O 0.0814(6) 0.2955(6) 0.5000
O2 O 0.1464(5) 0.3366(5) 0.4024(6)
O3 O -0.0000 0.3210(6) 0.4085(6)
O4 O 0.0799(5) 0.2392(5) 0.3454(5)
O5 O 0.1470(4) 0.2088(5) 0.2455(4)
O6 O 0.0000 0.1975(6) 0.2540(6)
O7 O 0.0816(4) 0.0916(5) 0.2472(4)
O8 O 0.1434(7) 0.0000 0.1818(7)
O9 O 0.0000 0.0000 0.1967(9)
O10 O 0.0000 0.0000 0.3047(8)
O11 O 0.0000 0.1274(7) 0.3426(6)
O12 O 0.1481(4) 0.1304(4) 0.3411(4)
O13 O 0.1494(4) 0.2098(4) 0.4389(4)
O14 O 0.0000 0.2075(5) 0.4393(6)
O15 O 0.2664(9) 0.1448(9) 0.4071(8)
O16 O 0.2687(12) 0.1686(13) 0.5000
O17 O 0.1868(13) 0.1140(16) 0.5000
O18 O 0.1819(8) 0.0837(9) 0.4424(8)
O19 O 0.1861(9) 0.0356(8) 0.4069(10)
O20 O 0.0658(8) 0.0349(7) 0.3924(7)
O21 O 0.0659(8) 0.1042(8) 0.4342(7)
O22 O 0.0662(12) 0.1220(11) 0.5000
O23 O 0.1500(6) 0.0000 0.2999(5)
O24 O 0.2678(9) 0.0542(9) 0.3551(8)
Co1 Co 0.2500 0.2500 0.2500
C1 C 0.1969(10) 0.4374(9) 0.3175(10)
H1 H 0.2080 0.4770 0.3360
C2 C 0.2460(7) 0.3900(11) 0.3004(11)
H2 H 0.2962 0.3912 0.3064
N1 N 0.2079(9) 0.3405(9) 0.2728(10)
C3 C 0.1352(8) 0.3573(10) 0.2729(10)
H3 H 0.0972 0.3325 0.2571
N2 N 0.1283(8) 0.4172(9) 0.3006(10)
C4 C 0.0000 0.415(3) 0.297(2)
H4 H 0.0000 0.3732 0.2798
C5 C 0.0663(15) 0.4455(17) 0.3092(15)
C6 C 0.0669(11) 0.5000 0.3351(11)
H5 H 0.0920 0.5389 0.3425
C7 C 0.0000 0.461(2) 0.343(2)
H6 H 0.0000 0.4176 0.3549
O25 O 0.2400(14) 0.2742(12) 0.1604(13)
P1A P 0.0000 -0.1627(6) 0.5000
P2A P 0.0000 -0.1360(4) 0.4137(4)
P3A P 0.0000 -0.0486(4) 0.3585(4)
O11A O 0.0000 -0.1274(7) 0.3426(6)
O14A O 0.0000 -0.2075(5) 0.4393(6)
O20A O -0.0658(8) -0.0349(7) 0.3924(7)
O21A O -0.0659(8) -0.1042(8) 0.4342(7)
O22A O -0.0662(12) -0.1220(11) 0.5000
P2B P -0.0000 0.1360(4) 0.5863(4)
P3B P 0.0000 0.0486(4) 0.6415(4)
O10B O 0.0000 0.0000 0.6953(8)
O11B O 0.0000 0.1274(7) 0.6574(6)
O14B O 0.0000 0.2075(5) 0.5607(6)
O20B O -0.0658(8) 0.0349(7) 0.6076(7)
O21B O -0.0659(8) 0.1042(8) 0.5658(7)
O22B O -0.0662(12) 0.1220(11) 0.5000
O20I O 0.0658(8) 0.0349(7) 0.6076(7)
O21I O 0.0659(8) 0.1042(8) 0.5658(7)
O20J O 0.0658(8) -0.0349(7) 0.3924(7)
O21J O 0.0659(8) -0.1042(8) 0.4342(7)
O22C O 0.0662(12) -0.1220(11) 0.5000
O20K O -0.0658(8) 0.0349(7) 0.3924(7)
O21K O -0.0659(8) 0.1042(8) 0.4342(7)
P2C P -0.0000 -0.1360(4) 0.5863(4)
P3C P 0.0000 -0.0486(4) 0.6415(4)
O11C O 0.0000 -0.1274(7) 0.6574(6)
O14C O 0.0000 -0.2075(5) 0.5607(6)
O20C O 0.0658(8) -0.0349(7) 0.6076(7)
O21C O 0.0659(8) -0.1042(8) 0.5658(7)
O20H O -0.0658(8) -0.0349(7) 0.6076(7)
O21H O -0.0659(8) -0.1042(8) 0.5658(7)
C1A C -0.1969(10) 0.5626(9) 0.3175(10)
H1A H -0.2080 0.5230 0.3360
C2A C -0.2460(7) 0.6100(11) 0.3004(11)
H2A H -0.2962 0.6088 0.3064
N1A N -0.2079(9) 0.6595(9) 0.2728(10)
C3A C -0.1352(8) 0.6427(10) 0.2729(10)
H3A H -0.0972 0.6675 0.2571
N2A N -0.1283(8) 0.5828(9) 0.3006(10)
C4A C 0.0000 0.585(3) 0.297(2)
H4A H -0.0000 0.6268 0.2798
C5A C -0.0663(15) 0.5545(17) 0.3092(15)
C6A C -0.0669(11) 0.5000 0.3351(11)
H5A H -0.0920 0.4611 0.3425
C7A C 0.0000 0.539(2) 0.343(2)
H6A H 0.0000 0.5824 0.3549
C1J C 0.1969(10) 0.5626(9) 0.3175(10)
H1J H 0.2080 0.5230 0.3360
C2J C 0.2460(7) 0.6100(11) 0.3004(11)
H2J H 0.2962 0.6088 0.3064
N1J N 0.2079(9) 0.6595(9) 0.2728(10)
C3J C 0.1352(8) 0.6427(10) 0.2729(10)
H3J H 0.0972 0.6675 0.2571
N2J N 0.1283(8) 0.5828(9) 0.3006(10)
C5J C 0.0663(15) 0.5545(17) 0.3092(15)
H5J H 0.0920 0.4611 0.3425
C1K C -0.1969(10) 0.4374(9) 0.3175(10)
H1K H -0.2080 0.4770 0.3360
C2K C -0.2460(7) 0.3900(11) 0.3004(11)
H2K H -0.2962 0.3912 0.3064
N1K N -0.2079(9) 0.3405(9) 0.2728(10)
C3K C -0.1352(8) 0.3573(10) 0.2729(10)
H3K H -0.0972 0.3325 0.2571
N2K N -0.1283(8) 0.4172(9) 0.3006(10)
C5K C -0.0663(15) 0.4455(17) 0.3092(15)
H5K H -0.0920 0.5389 0.3425
W1A W -0.08778(4) 0.0000 0.23895(4)
W2A W -0.08693(3) -0.17081(3) 0.28994(3)
W3A W -0.08723(3) -0.27703(3) 0.41967(3)
W4A W -0.17931(10) -0.14881(10) 0.5000
W5A W -0.18000(5) -0.12497(5) 0.42060(5)
W6A W -0.18043(5) -0.04406(6) 0.37095(6)
O1A O -0.0814(6) -0.2955(6) 0.5000
O2A O -0.1464(5) -0.3366(5) 0.4024(6)
O3A O -0.0000 -0.3210(6) 0.4085(6)
O4A O -0.0799(5) -0.2392(5) 0.3454(5)
O5A O -0.1470(4) -0.2088(5) 0.2455(4)
O6A O -0.0000 -0.1975(6) 0.2540(6)
O7A O -0.0816(4) -0.0916(5) 0.2472(4)
O8A O -0.1434(7) 0.0000 0.1818(7)
O12A O -0.1481(4) -0.1304(4) 0.3411(4)
O13A O -0.1494(4) -0.2098(4) 0.4389(4)
O15A O -0.2664(9) -0.1448(9) 0.4071(8)
O16A O -0.2687(12) -0.1686(13) 0.5000
O17A O -0.1868(13) -0.1140(16) 0.5000
O18A O -0.1819(8) -0.0837(9) 0.4424(8)
O19A O -0.1861(9) -0.0356(8) 0.4069(10)
O23A O -0.1500(6) 0.0000 0.2999(5)
O24A O -0.2678(9) -0.0542(9) 0.3551(8)
Co1A Co -0.2500 -0.2500 0.2500
O25A O -0.2400(14) -0.2742(12) 0.1604(13)
W1B W -0.08778(4) 0.0000 0.76105(4)
W2B W -0.08693(3) 0.17081(3) 0.71006(3)
W3B W -0.08723(3) 0.27703(3) 0.58033(3)
W4B W -0.17931(10) 0.14881(10) 0.5000
W5B W -0.18000(5) 0.12497(5) 0.57940(5)
W6B W -0.18043(5) 0.04406(6) 0.62905(6)
O1B O -0.0814(6) 0.2955(6) 0.5000
O2B O -0.1464(5) 0.3366(5) 0.5976(6)
O3B O -0.0000 0.3210(6) 0.5915(6)
O4B O -0.0799(5) 0.2392(5) 0.6546(5)
O5B O -0.1470(4) 0.2088(5) 0.7545(4)
O6B O 0.0000 0.1975(6) 0.7460(6)
O7B O -0.0816(4) 0.0916(5) 0.7528(4)
O8B O -0.1434(7) 0.0000 0.8182(7)
O9B O 0.0000 -0.0000 0.8033(9)
O12B O -0.1481(4) 0.1304(4) 0.6589(4)
O13B O -0.1494(4) 0.2098(4) 0.5611(4)
O15B O -0.2664(9) 0.1448(9) 0.5929(8)
O16B O -0.2687(12) 0.1686(13) 0.5000
O17B O -0.1868(13) 0.1140(16) 0.5000
O18B O -0.1819(8) 0.0837(9) 0.5576(8)
O19B O -0.1861(9) 0.0356(8) 0.5931(10)
O23B O -0.1500(6) -0.0000 0.7001(5)
O24B O -0.2678(9) 0.0542(9) 0.6449(8)
Co1B Co -0.2500 0.2500 0.7500
C1B C -0.1969(10) 0.4374(9) 0.6825(10)
H1B H -0.2080 0.4770 0.6640
C2B C -0.2460(7) 0.3900(11) 0.6996(11)
H2B H -0.2962 0.3912 0.6936
N1B N -0.2079(9) 0.3405(9) 0.7272(10)
C3B C -0.1352(8) 0.3573(10) 0.7271(10)
H3B H -0.0972 0.3325 0.7429
N2B N -0.1283(8) 0.4172(9) 0.6994(10)
C4B C 0.0000 0.415(3) 0.703(2)
H4B H 0.0000 0.3732 0.7202
C5B C -0.0663(15) 0.4455(17) 0.6908(15)
C6B C -0.0669(11) 0.5000 0.6649(11)
H5B H -0.0920 0.5389 0.6575
C7B C -0.0000 0.461(2) 0.657(2)
H6B H -0.0000 0.4176 0.6451
O25B O -0.2400(14) 0.2742(12) 0.8396(13)
C1C C 0.1969(10) 0.5626(9) 0.6825(10)
H1C H 0.2080 0.5230 0.6640
C2C C 0.2460(7) 0.6100(11) 0.6996(11)
H2C H 0.2962 0.6088 0.6936
N1C N 0.2079(9) 0.6595(9) 0.7272(10)
C3C C 0.1352(8) 0.6427(10) 0.7271(10)
H3C H 0.0972 0.6675 0.7429
N2C N 0.1283(8) 0.5828(9) 0.6994(10)
C4C C 0.0000 0.585(3) 0.703(2)
H4C H -0.0000 0.6268 0.7202
C5C C 0.0663(15) 0.5545(17) 0.6908(15)
C6C C 0.0669(11) 0.5000 0.6649(11)
H5C H 0.0920 0.4611 0.6575
C7C C 0.0000 0.539(2) 0.657(2)
H6C H -0.0000 0.5824 0.6451
C1H C -0.1969(10) 0.5626(9) 0.6825(10)
H1H H -0.2080 0.5230 0.6640
C2H C -0.2460(7) 0.6100(11) 0.6996(11)
H2H H -0.2962 0.6088 0.6936
N1H N -0.2079(9) 0.6595(9) 0.7272(10)
C3H C -0.1352(8) 0.6427(10) 0.7271(10)
H3H H -0.0972 0.6675 0.7429
N2H N -0.1283(8) 0.5828(9) 0.6994(10)
C5H C -0.0663(15) 0.5545(17) 0.6908(15)
H5H H -0.0920 0.4611 0.6575
C1I C 0.1969(10) 0.4374(9) 0.6825(10)
H1I H 0.2080 0.4770 0.6640
C2I C 0.2460(7) 0.3900(11) 0.6996(11)
H2I H 0.2962 0.3912 0.6936
N1I N 0.2079(9) 0.3405(9) 0.7272(10)
C3I C 0.1352(8) 0.3573(10) 0.7271(10)
H3I H 0.0972 0.3325 0.7429
N2I N 0.1283(8) 0.4172(9) 0.6994(10)
C5I C 0.0663(15) 0.4455(17) 0.6908(15)
H5I H 0.0920 0.5389 0.6575
W1C W 0.08778(4) 0.0000 0.76105(4)
W2C W 0.08693(3) -0.17081(3) 0.71006(3)
W3C W 0.08723(3) -0.27703(3) 0.58033(3)
W4C W 0.17931(10) -0.14881(10) 0.5000
W5C W 0.18000(5) -0.12497(5) 0.57940(5)
W6C W 0.18043(5) -0.04406(6) 0.62905(6)
O1C O 0.0814(6) -0.2955(6) 0.5000
O2C O 0.1464(5) -0.3366(5) 0.5976(6)
O3C O 0.0000 -0.3210(6) 0.5915(6)
O4C O 0.0799(5) -0.2392(5) 0.6546(5)
O5C O 0.1470(4) -0.2088(5) 0.7545(4)
O6C O -0.0000 -0.1975(6) 0.7460(6)
O7C O 0.0816(4) -0.0916(5) 0.7528(4)
O8C O 0.1434(7) 0.0000 0.8182(7)
O12C O 0.1481(4) -0.1304(4) 0.6589(4)
O13C O 0.1494(4) -0.2098(4) 0.5611(4)
O15C O 0.2664(9) -0.1448(9) 0.5929(8)
O16C O 0.2687(12) -0.1686(13) 0.5000
O17C O 0.1868(13) -0.1140(16) 0.5000
O18C O 0.1819(8) -0.0837(9) 0.5576(8)
O19C O 0.1861(9) -0.0356(8) 0.5931(10)
O23C O 0.1500(6) -0.0000 0.7001(5)
O24C O 0.2678(9) -0.0542(9) 0.6449(8)
Co1C Co 0.2500 -0.2500 0.7500
O25C O 0.2400(14) -0.2742(12) 0.8396(13)
W2H W -0.08693(3) -0.17081(3) 0.71006(3)
W3H W -0.08723(3) -0.27703(3) 0.58033(3)
W5H W -0.18000(5) -0.12497(5) 0.57940(5)
W6H W -0.18043(5) -0.04406(6) 0.62905(6)
O2H O -0.1464(5) -0.3366(5) 0.5976(6)
O4H O -0.0799(5) -0.2392(5) 0.6546(5)
O5H O -0.1470(4) -0.2088(5) 0.7545(4)
O7H O -0.0816(4) -0.0916(5) 0.7528(4)
O12H O -0.1481(4) -0.1304(4) 0.6589(4)
O13H O -0.1494(4) -0.2098(4) 0.5611(4)
O15H O -0.2664(9) -0.1448(9) 0.5929(8)
O18H O -0.1819(8) -0.0837(9) 0.5576(8)
O19H O -0.1861(9) -0.0356(8) 0.5931(10)
O24H O -0.2678(9) -0.0542(9) 0.6449(8)
W2I W 0.08693(3) 0.17081(3) 0.71006(3)
W3I W 0.08723(3) 0.27703(3) 0.58033(3)
W5I W 0.18000(5) 0.12497(5) 0.57940(5)
W6I W 0.18043(5) 0.04406(6) 0.62905(6)
O2I O 0.1464(5) 0.3366(5) 0.5976(6)
O4I O 0.0799(5) 0.2392(5) 0.6546(5)
O5I O 0.1470(4) 0.2088(5) 0.7545(4)
O7I O 0.0816(4) 0.0916(5) 0.7528(4)
O12I O 0.1481(4) 0.1304(4) 0.6589(4)
O13I O 0.1494(4) 0.2098(4) 0.5611(4)
O15I O 0.2664(9) 0.1448(9) 0.5929(8)
O18I O 0.1819(8) 0.0837(9) 0.5576(8)
O19I O 0.1861(9) 0.0356(8) 0.5931(10)
O24I O 0.2678(9) 0.0542(9) 0.6449(8)
W2J W 0.08693(3) -0.17081(3) 0.28994(3)
W3J W 0.08723(3) -0.27703(3) 0.41967(3)
W5J W 0.18000(5) -0.12497(5) 0.42060(5)
W6J W 0.18043(5) -0.04406(6) 0.37095(6)
O2J O 0.1464(5) -0.3366(5) 0.4024(6)
O4J O 0.0799(5) -0.2392(5) 0.3454(5)
O5J O 0.1470(4) -0.2088(5) 0.2455(4)
O7J O 0.0816(4) -0.0916(5) 0.2472(4)
O12J O 0.1481(4) -0.1304(4) 0.3411(4)
O13J O 0.1494(4) -0.2098(4) 0.4389(4)
O15J O 0.2664(9) -0.1448(9) 0.4071(8)
O18J O 0.1819(8) -0.0837(9) 0.4424(8)
O19J O 0.1861(9) -0.0356(8) 0.4069(10)
O24J O 0.2678(9) -0.0542(9) 0.3551(8)
W2K W -0.08693(3) 0.17081(3) 0.28994(3)
W3K W -0.08723(3) 0.27703(3) 0.41967(3)
W5K W -0.18000(5) 0.12497(5) 0.42060(5)
W6K W -0.18043(5) 0.04406(6) 0.37095(6)
O2K O -0.1464(5) 0.3366(5) 0.4024(6)
O4K O -0.0799(5) 0.2392(5) 0.3454(5)
O5K O -0.1470(4) 0.2088(5) 0.2455(4)
O7K O -0.0816(4) 0.0916(5) 0.2472(4)
O12K O -0.1481(4) 0.1304(4) 0.3411(4)
O13K O -0.1494(4) 0.2098(4) 0.4389(4)
O15K O -0.2664(9) 0.1448(9) 0.4071(8)
O18K O -0.1819(8) 0.0837(9) 0.4424(8)
O19K O -0.1861(9) 0.0356(8) 0.4069(10)
O24K O -0.2678(9) 0.0542(9) 0.3551(8)
O25L O 0.2600(14) 0.2258(12) 0.3396(13)
O25M O -0.2600(14) -0.2258(12) 0.3396(13)
O25N O -0.2600(14) 0.2258(12) 0.6604(13)
O25O O 0.2600(14) -0.2258(12) 0.6604(13)
O5L O 0.3530(4) 0.2912(5) 0.2545(4)
O5M O -0.3530(4) -0.2912(5) 0.2545(4)
O5N O -0.3530(4) 0.2912(5) 0.7455(4)
O5O O 0.3530(4) -0.2912(5) 0.7455(4)
Co1A_2 Co -0.2500 0.7500 0.2500
Co1C_2 Co 0.2500 0.7500 0.7500
Co1D Co -0.2500 -0.2500 0.7500
Co1D_2 Co -0.2500 0.7500 0.7500
Co1E Co 0.2500 0.2500 0.7500
Co1F Co 0.2500 -0.2500 0.2500
Co1F_2 Co 0.2500 0.7500 0.2500
Co1G Co -0.2500 0.2500 0.2500
N1A_2 N -0.2079(9) -0.3405(9) 0.2728(10)
N1C_2 N 0.2079(9) -0.3405(9) 0.7272(10)
N1L N 0.2921(9) 0.1595(9) 0.2272(10)
N1M N -0.2921(9) -0.1595(9) 0.2272(10)
N1N N -0.2921(9) 0.1595(9) 0.7728(10)
N1O N 0.2921(9) -0.1595(9) 0.7728(10)
loop_
_geom_bond_atom_site_label_1
_geom_bond_atom_site_label_2
_geom_bond_site_symmetry_1
_geom_bond_site_symmetry_2
W1 O7 1_555 1_555
W2 O4 1_555 1_555
W3 O1 1_555 1_555
W4 O13 1_555 1_555
W5 O12 1_555 1_555
W6 O12 1_555 1_555
P1 O14 1_555 1_555
P2 O11 1_555 1_555
P3 O10 1_555 1_555
O1 W3I 1_555 1_555
O2 W3 1_555 1_555
O3 W3 1_555 1_555
O4 W3 1_555 1_555
O5 W2 1_555 1_555
O6 W2 1_555 1_555
O7 W2 1_555 1_555
O8 W1 1_555 1_555
O9 W1 1_555 1_555
O10 W1 1_555 1_555
O11 W2 1_555 1_555
O12 W2 1_555 1_555
O13 W3 1_555 1_555
O14 W3 1_555 1_555
O15 W5 1_555 1_555
O16 W4 1_555 1_555
O17 W4 1_555 1_555
O18 W4 1_555 1_555
O19 W5 1_555 1_555
O20 W6 1_555 1_555
O21 W5 1_555 1_555
O22 W4 1_555 1_555
O23 W1 1_555 1_555
O24 W6 1_555 1_555
Co1 O5 1_555 1_555
C1 H1 1_555 1_555
C2 C1 1_555 1_555
H2 C2 1_555 1_555
N1 Co1 1_555 1_555
C3 N1 1_555 1_555
H3 C3 1_555 1_555
N2 C1 1_555 1_555
C4 H4 1_555 1_555
C5 N2 1_555 1_555
C6 C5 1_555 1_555
H5 C6 1_555 1_555
C7 C6 1_555 1_555
H6 C7 1_555 1_555
O25 Co1 1_555 1_555
P1A O14A 1_555 1_555
P2A O11A 1_555 1_555
P3A O10 1_555 1_555
O11A P3A 1_555 1_555
O14A P2A 1_555 1_555
O20A P3A 1_555 1_555
O21A P2A 1_555 1_555
O22A P1A 1_555 1_555
P2B O11B 1_555 1_555
P3B O10B 1_555 1_555
O10B P3C 1_555 1_555
O11B P3B 1_555 1_555
O14B P1 1_555 1_555
O20B P3B 1_555 1_555
O21B P2B 1_555 1_555
O22B P1 1_555 1_555
O20I P3B 1_555 1_555
O21I P2B 1_555 1_555
O20J P3A 1_555 1_555
O21J P2A 1_555 1_555
O22C P1A 1_555 1_555
O20K P3 1_555 1_555
O21K P2 1_555 1_555
P2C O11C 1_555 1_555
P3C O11C 1_555 1_555
O11C W2C 1_555 1_555
O14C P1A 1_555 1_555
O20C P3C 1_555 1_555
O21C P2C 1_555 1_555
O20H P3C 1_555 1_555
O21H P2C 1_555 1_555
C1A H1A 1_555 1_555
C2A C1A 1_555 1_555
H2A C2A 1_555 1_555
N1A C2A 1_555 1_555
C3A N1A 1_555 1_555
H3A C3A 1_555 1_555
N2A C1A 1_555 1_555
C4A H4A 1_555 1_555
C5A N2A 1_555 1_555
C6A C7 1_555 1_555
H5A C6A 1_555 1_555
C7A C6 1_555 1_555
H6A C7A 1_555 1_555
C1J H1J 1_555 1_555
C2J C1J 1_555 1_555
H2J C2J 1_555 1_555
N1J C2J 1_555 1_555
C3J N1J 1_555 1_555
H3J C3J 1_555 1_555
N2J C1J 1_555 1_555
C5J C6 1_555 1_555
H5J C6 1_555 1_555
C1K H1K 1_555 1_555
C2K C1K 1_555 1_555
H2K C2K 1_555 1_555
N1K C2K 1_555 1_555
C3K N1K 1_555 1_555
H3K C3K 1_555 1_555
N2K C1K 1_555 1_555
C5K C4 1_555 1_555
H5K C6A 1_555 1_555
W1A O9 1_555 1_555
W2A O11A 1_555 1_555
W3A O14A 1_555 1_555
W4A O22A 1_555 1_555
W5A O21A 1_555 1_555
W6A O20A 1_555 1_555
O1A W3A 1_555 1_555
O2A W3A 1_555 1_555
O3A W3A 1_555 1_555
O4A W2A 1_555 1_555
O5A W2A 1_555 1_555
O6A W2A 1_555 1_555
O7A W1A 1_555 1_555
O8A W1A 1_555 1_555
O12A W2A 1_555 1_555
O13A W3A 1_555 1_555
O15A W5A 1_555 1_555
O16A W4A 1_555 1_555
O17A W4A 1_555 1_555
O18A W4A 1_555 1_555
O19A W5A 1_555 1_555
O23A W1A 1_555 1_555
O24A W6A 1_555 1_555
Co1A O5A 1_555 1_555
O25A Co1A 1_555 1_555
W1B O10B 1_555 1_555
W2B O11B 1_555 1_555
W3B O14B 1_555 1_555
W4B O22B 1_555 1_555
W5B O21B 1_555 1_555
W6B O20B 1_555 1_555
O1B W3B 1_555 1_555
O2B W3B 1_555 1_555
O3B W3B 1_555 1_555
O4B W2B 1_555 1_555
O5B W2B 1_555 1_555
O6B W2B 1_555 1_555
O7B W1B 1_555 1_555
O8B W1B 1_555 1_555
O9B W1B 1_555 1_555
O12B W2B 1_555 1_555
O13B W3B 1_555 1_555
O15B W5B 1_555 1_555
O16B W4B 1_555 1_555
O17B W4B 1_555 1_555
O18B W4B 1_555 1_555
O19B W5B 1_555 1_555
O23B W1B 1_555 1_555
O24B W6B 1_555 1_555
Co1B O5B 1_555 1_555
C1B H1B 1_555 1_555
C2B C1B 1_555 1_555
H2B C2B 1_555 1_555
N1B Co1B 1_555 1_555
C3B N1B 1_555 1_555
H3B C3B 1_555 1_555
N2B C1B 1_555 1_555
C4B H4B 1_555 1_555
C5B N2B 1_555 1_555
C6B C5B 1_555 1_555
H5B C6B 1_555 1_555
C7B C6B 1_555 1_555
H6B C7B 1_555 1_555
O25B Co1B 1_555 1_555
C1C H1C 1_555 1_555
C2C C1C 1_555 1_555
H2C C2C 1_555 1_555
N1C C2C 1_555 1_555
C3C N1C 1_555 1_555
H3C C3C 1_555 1_555
N2C C1C 1_555 1_555
C4C H4C 1_555 1_555
C5C N2C 1_555 1_555
C6C C7B 1_555 1_555
H5C C6C 1_555 1_555
C7C C6B 1_555 1_555
H6C C7C 1_555 1_555
C1H H1H 1_555 1_555
C2H C1H 1_555 1_555
H2H C2H 1_555 1_555
N1H C2H 1_555 1_555
C3H N1H 1_555 1_555
H3H C3H 1_555 1_555
N2H C1H 1_555 1_555
C5H C6B 1_555 1_555
H5H C6B 1_555 1_555
C1I H1I 1_555 1_555
C2I C1I 1_555 1_555
H2I C2I 1_555 1_555
N1I C2I 1_555 1_555
C3I N1I 1_555 1_555
H3I C3I 1_555 1_555
N2I C1I 1_555 1_555
C5I C4B 1_555 1_555
H5I C6C 1_555 1_555
W1C O10B 1_555 1_555
W2C O4C 1_555 1_555
W3C O14C 1_555 1_555
W4C O22C 1_555 1_555
W5C O21C 1_555 1_555
W6C O20C 1_555 1_555
O1C W3C 1_555 1_555
O2C W3C 1_555 1_555
O3C W3C 1_555 1_555
O4C W3C 1_555 1_555
O5C W2C 1_555 1_555
O6C W2C 1_555 1_555
O7C W1C 1_555 1_555
O8C W1C 1_555 1_555
O12C W2C 1_555 1_555
O13C W3C 1_555 1_555
O15C W5C 1_555 1_555
O16C W4C 1_555 1_555
O17C W4C 1_555 1_555
O18C W4C 1_555 1_555
O19C W5C 1_555 1_555
O23C W1C 1_555 1_555
O24C W6C 1_555 1_555
Co1C O5C 1_555 1_555
O25C Co1C 1_555 1_555
W2H O11C 1_555 1_555
W3H O14C 1_555 1_555
W5H O21H 1_555 1_555
W6H O20H 1_555 1_555
O2H W3H 1_555 1_555
O4H W2H 1_555 1_555
O5H W2H 1_555 1_555
O7H W1B 1_555 1_555
O12H W2H 1_555 1_555
O13H W4A 1_555 1_555
O15H W5H 1_555 1_555
O18H W4A 1_555 1_555
O19H W6B 1_555 1_555
O24H W6H 1_555 1_555
W2I O11B 1_555 1_555
W3I O14B 1_555 1_555
W5I O17 1_555 1_555
W6I O20I 1_555 1_555
O2I W3I 1_555 1_555
O4I W2I 1_555 1_555
O5I W2I 1_555 1_555
O7I W1C 1_555 1_555
O12I W2I 1_555 1_555
O13I W4 1_555 1_555
O15I W5I 1_555 1_555
O18I W4 1_555 1_555
O19I W6C 1_555 1_555
O24I W6I 1_555 1_555
W2J O11A 1_555 1_555
W3J O14A 1_555 1_555
W5J O21J 1_555 1_555
W6J O19 1_555 1_555
O2J W3J 1_555 1_555
O4J W2J 1_555 1_555
O5J W2J 1_555 1_555
O7J W1 1_555 1_555
O12J W2J 1_555 1_555
O13J W4C 1_555 1_555
O15J W5J 1_555 1_555
O18J W4C 1_555 1_555
O19J W6 1_555 1_555
O24J W6J 1_555 1_555
W2K O6 1_555 1_555
W3K O3 1_555 1_555
W5K O21K 1_555 1_555
W6K O20K 1_555 1_555
O2K W3K 1_555 1_555
O4K W2K 1_555 1_555
O5K W2K 1_555 1_555
O7K W1A 1_555 1_555
O12K W2K 1_555 1_555
O13K W4B 1_555 1_555
O15K W5K 1_555 1_555
O18K W4B 1_555 1_555
O19K W6A 1_555 1_555
O24K W6K 1_555 1_555
O25L Co1 1_555 1_555
O25M Co1A 1_555 1_555
O25N Co1B 1_555 1_555
O25O Co1C 1_555 1_555
O5L Co1 1_555 1_555
O5M Co1A 1_555 1_555
O5N Co1B 1_555 1_555
O5O Co1C 1_555 1_555
Co1A_2 N1A 1_555 1_555
Co1C_2 N1C 1_555 1_555
Co1D O5H 1_555 1_555
Co1D_2 N1H 1_555 1_555
Co1E N1I 1_555 1_555
Co1F O5J 1_555 1_555
Co1F_2 N1J 1_555 1_555
Co1G N1K 1_555 1_555
N1A_2 Co1A 1_555 1_555
N1C_2 Co1C 1_555 1_555
N1L Co1 1_555 1_555
N1M Co1A 1_555 1_555
N1N Co1B 1_555 1_555
N1O Co1C 1_555 1_555
W5 O13 1_555 1_555
W5 O17 1_555 1_555
W5 O18 1_555 1_555
W6 O18 1_555 1_555
W6 O19 1_555 1_555
W6 O23 1_555 1_555
P1 O22 1_555 1_555
P2 O14 1_555 1_555
P2 O21 1_555 1_555
P3 O11 1_555 1_555
P3 O20 1_555 1_555
O10 W1A 1_555 1_555
O11 W2K 1_555 1_555
O14 W3K 1_555 1_555
O23 W6J 1_555 1_555
C2 N1 1_555 1_555
C3 N2 1_555 1_555
C4 C5 1_555 1_555
P2B O14B 1_555 1_555
O21I W5I 1_555 1_555
O20J W6J 1_555 1_555
P2C O14C 1_555 1_555
C3A N2A 1_555 1_555
C4A C5A 1_555 1_555
C4A C5J 1_555 1_555
C5A C6A 1_555 1_555
C6A C7A 1_555 1_555
C6A C5K 1_555 1_555
C3J N2J 1_555 1_555
N2J C5J 1_555 1_555
C3K N2K 1_555 1_555
N2K C5K 1_555 1_555
W2A O7A 1_555 1_555
W3A O4A 1_555 1_555
W4A O13A 1_555 1_555
W5A O12A 1_555 1_555
W5A O13A 1_555 1_555
W5A O17A 1_555 1_555
W5A O18A 1_555 1_555
W6A O12A 1_555 1_555
W6A O18A 1_555 1_555
W6A O19A 1_555 1_555
W6A O23A 1_555 1_555
O1A W3H 1_555 1_555
O3A W3J 1_555 1_555
O6A W2J 1_555 1_555
O17A W5H 1_555 1_555
O19A W6K 1_555 1_555
O23A W6K 1_555 1_555
W2B O7B 1_555 1_555
W3B O4B 1_555 1_555
W4B O13B 1_555 1_555
W5B O12B 1_555 1_555
W5B O13B 1_555 1_555
W5B O17B 1_555 1_555
W5B O18B 1_555 1_555
W6B O12B 1_555 1_555
W6B O18B 1_555 1_555
W6B O19B 1_555 1_555
W6B O23B 1_555 1_555
O1B W3K 1_555 1_555
O3B W3I 1_555 1_555
O6B W2I 1_555 1_555
O9B W1C 1_555 1_555
O17B W5K 1_555 1_555
O19B W6H 1_555 1_555
O23B W6H 1_555 1_555
C2B N1B 1_555 1_555
C3B N2B 1_555 1_555
C4B C5B 1_555 1_555
C3C N2C 1_555 1_555
C4C C5C 1_555 1_555
C4C C5H 1_555 1_555
C5C C6C 1_555 1_555
C6C C7C 1_555 1_555
C6C C5I 1_555 1_555
C3H N2H 1_555 1_555
N2H C5H 1_555 1_555
C3I N2I 1_555 1_555
N2I C5I 1_555 1_555
W2C O7C 1_555 1_555
W4C O13C 1_555 1_555
W5C O12C 1_555 1_555
W5C O13C 1_555 1_555
W5C O17C 1_555 1_555
W5C O18C 1_555 1_555
W6C O12C 1_555 1_555
W6C O18C 1_555 1_555
W6C O19C 1_555 1_555
W6C O23C 1_555 1_555
O1C W3J 1_555 1_555
O3C W3H 1_555 1_555
O6C W2H 1_555 1_555
O17C W5J 1_555 1_555
O19C W6I 1_555 1_555
O23C W6I 1_555 1_555
W2H O7H 1_555 1_555
W3H O4H 1_555 1_555
W3H O13H 1_555 1_555
W5H O12H 1_555 1_555
W5H O13H 1_555 1_555
W5H O18H 1_555 1_555
W5H O19H 1_555 1_555
W6H O12H 1_555 1_555
W6H O18H 1_555 1_555
W6H O19H 1_555 1_555
W2I O7I 1_555 1_555
W3I O4I 1_555 1_555
W3I O13I 1_555 1_555
W5I O12I 1_555 1_555
W5I O13I 1_555 1_555
W5I O18I 1_555 1_555
W5I O19I 1_555 1_555
W6I O12I 1_555 1_555
W6I O18I 1_555 1_555
W6I O19I 1_555 1_555
O5I Co1E 1_555 1_555
W2J O7J 1_555 1_555
W3J O4J 1_555 1_555
W3J O13J 1_555 1_555
W5J O12J 1_555 1_555
W5J O13J 1_555 1_555
W5J O18J 1_555 1_555
W5J O19J 1_555 1_555
W6J O12J 1_555 1_555
W6J O18J 1_555 1_555
W6J O19J 1_555 1_555
W2K O7K 1_555 1_555
W3K O4K 1_555 1_555
W3K O13K 1_555 1_555
W5K O12K 1_555 1_555
W5K O13K 1_555 1_555
W5K O18K 1_555 1_555
W5K O19K 1_555 1_555
W6K O12K 1_555 1_555
W6K O18K 1_555 1_555
W6K O19K 1_555 1_555
O5K Co1G 1_555 1_555

#END
