
#######################################################################
#
#                 Cambridge Crystallographic Data Centre
#                                CCDC 
#
#######################################################################
#
# If this CIF has been generated from an entry in the Cambridge 
# Structural Database, then it will include bibliographic, chemical, 
# crystal, experimental, refinement or atomic coordinate data resulting 
# from the CCDC's data processing and validation procedures.
#
#######################################################################

data_OTARIL
_chemical_formula_moiety         '(C90 H60 F12 N8 O8 Zn2)n'
_symmetry_cell_setting           monoclinic
_symmetry_space_group_name_H-M   'C 2/c'
_symmetry_Int_Tables_number      15
_space_group_name_Hall           '-C 2yc'
loop_
_symmetry_equiv_pos_site_id
_symmetry_equiv_pos_as_xyz
1 x,y,z
2 -x,y,1/2-z
3 1/2+x,1/2+y,z
4 1/2-x,1/2+y,1/2-z
5 -x,-y,-z
6 x,-y,1/2+z
7 1/2-x,1/2-y,-z
8 1/2+x,1/2-y,1/2+z
_cell_length_a                   23.685(3)
_cell_length_b                   14.647(2)
_cell_length_c                   29.080(4)
_cell_angle_alpha                90
_cell_angle_beta                 101.867(2)
_cell_angle_gamma                90
_cell_volume                     9872.65
loop_
_atom_site_label
_atom_site_type_symbol
_atom_site_fract_x
_atom_site_fract_y
_atom_site_fract_z
_atom_site_U_iso_or_equiv
_atom_site_thermal_displace_type
C1 C 0.28982(12) 0.1624(2) 0.32769(10) 0.0429 Uani
H1 H 0.2751 0.1242 0.3025 0.0510 Uiso
C2 C 0.34338(12) 0.2130(2) 0.39381(10) 0.0437 Uani
C3 C 0.30486(13) 0.2803(2) 0.37414(9) 0.0429 Uani
C4 C 0.30386(13) 0.3654(2) 0.39571(9) 0.0424 Uani
H2 H 0.2783 0.4113 0.3829 0.0510 Uiso
C5 C 0.34400(13) 0.3768(2) 0.43804(10) 0.0497 Uani
H3 H 0.3450 0.4323 0.4538 0.0600 Uiso
C6 C 0.38240(13) 0.3085(2) 0.45744(10) 0.0466 Uani
H4 H 0.4078 0.3202 0.4857 0.0560 Uiso
C7 C 0.38458(13) 0.2227(2) 0.43639(10) 0.0454 Uani
H5 H 0.4104 0.1769 0.4491 0.0540 Uiso
C8 C 0.36573(12) 0.0526(2) 0.36529(10) 0.0425 Uani
H6 H 0.3393 0.0016 0.3579 0.0510 Uiso
H7 H 0.3886 0.0434 0.3967 0.0510 Uiso
C9 C 0.40546(12) 0.0559(2) 0.33004(10) 0.0431 Uani
C10 C 0.41123(12) -0.0206(2) 0.30383(9) 0.0419 Uani
H8 H 0.3903 -0.0731 0.3071 0.0500 Uiso
C11 C 0.44829(12) -0.0194(2) 0.27246(10) 0.0440 Uani
H9 H 0.4519 -0.0712 0.2549 0.0530 Uiso
C12 C 0.47969(12) 0.05751(19) 0.26708(10) 0.0402 Uani
C13 C 0.47316(13) 0.1371(2) 0.29332(11) 0.0474 Uani
H10 H 0.4933 0.1899 0.2891 0.0570 Uiso
C14 C 0.43759(13) 0.1369(2) 0.32467(10) 0.0452 Uani
H11 H 0.4342 0.1887 0.3424 0.0540 Uiso
C15 C 0.19644(12) 0.50913(19) 0.30312(10) 0.0402 Uani
H12 H 0.2237 0.5339 0.2878 0.0480 Uiso
C16 C 0.12649(13) 0.49879(19) 0.34272(9) 0.0415 Uani
C17 C 0.14170(12) 0.41158(19) 0.33036(9) 0.0383 Uani
C18 C 0.11238(13) 0.3347(2) 0.34139(10) 0.0446 Uani
H13 H 0.1217 0.2766 0.3324 0.0530 Uiso
C19 C 0.06936(13) 0.3477(2) 0.36590(10) 0.0459 Uani
H14 H 0.0500 0.2973 0.3745 0.0550 Uiso
C20 C 0.05345(14) 0.4384(2) 0.37873(10) 0.0494 Uani
H15 H 0.0232 0.4455 0.3944 0.0590 Uiso
C21 C 0.08249(12) 0.5139(2) 0.36804(10) 0.0435 Uani
H16 H 0.0736 0.5722 0.3770 0.0520 Uiso
C22 C 0.16748(13) 0.65722(18) 0.33174(10) 0.0413 Uani
H17 H 0.1915 0.6821 0.3115 0.0500 Uiso
H18 H 0.1295 0.6845 0.3228 0.0500 Uiso
C23 C 0.19243(13) 0.6804(2) 0.38071(10) 0.0471 Uani
C24 C 0.22022(14) 0.6183(2) 0.41362(10) 0.0542 Uani
H19 H 0.2248 0.5581 0.4050 0.0650 Uiso
C25 C 0.24109(13) 0.6461(2) 0.45937(10) 0.0512 Uani
H20 H 0.2583 0.6025 0.4810 0.0610 Uiso
C26 C 0.23803(13) 0.7353(2) 0.47511(10) 0.0455 Uani
C27 C 0.20877(13) 0.7931(2) 0.44027(10) 0.0462 Uani
H21 H 0.2046 0.8536 0.4487 0.0550 Uiso
C28 C 0.18529(13) 0.7696(2) 0.39435(10) 0.0476 Uani
H22 H 0.1654 0.8120 0.3733 0.0570 Uiso
C29 C 0.17003(12) 0.17752(19) 0.22521(10) 0.0404 Uani
C30 C 0.11727(12) 0.12653(19) 0.20060(10) 0.0414 Uani
C31 C 0.12482(12) 0.0517(2) 0.17396(10) 0.0444 Uani
H23 H 0.1619 0.0324 0.1726 0.0530 Uiso
C32 C 0.07722(12) 0.0048(2) 0.14898(10) 0.0436 Uani
H24 H 0.0827 -0.0446 0.1303 0.0520 Uiso
C33 C 0.02102(12) 0.03118(19) 0.15176(10) 0.0410 Uani
C34 C 0.01398(12) 0.10591(19) 0.18078(9) 0.0404 Uani
H25 H -0.0227 0.1240 0.1838 0.0480 Uiso
C35 C 0.06249(12) 0.1522(2) 0.20475(10) 0.0409 Uani
H26 H 0.0579 0.2012 0.2239 0.0490 Uiso
C36 C -0.03273(12) -0.01399(19) 0.12212(9) 0.0406 Uani
C37 C -0.02245(12) -0.1089(2) 0.10703(10) 0.0437 Uani
C38 C -0.04995(12) 0.0448(2) 0.07681(9) 0.0435 Uani
C39 C -0.08264(12) -0.0202(2) 0.14939(9) 0.0408 Uani
C40 C -0.07046(13) -0.0603(2) 0.19343(11) 0.0477 Uani
H27 H -0.0325 -0.0744 0.2072 0.0570 Uiso
C41 C -0.11390(13) -0.0797(2) 0.21747(10) 0.0435 Uani
H28 H -0.1054 -0.1081 0.2467 0.0520 Uiso
C42 C -0.17057(12) -0.05596(19) 0.19695(10) 0.0408 Uani
C43 C -0.18280(12) -0.01112(19) 0.15438(10) 0.0417 Uani
H29 H -0.2203 0.0078 0.1419 0.0500 Uiso
C44 C -0.13939(12) 0.00570(19) 0.13019(10) 0.0407 Uani
H30 H -0.1480 0.0343 0.1010 0.0490 Uiso
C45 C -0.21960(12) -0.0822(2) 0.22048(10) 0.0423 Uani
F1 F 0.00514(7) -0.15968(11) 0.14253(6) 0.0445 Uani
F2 F -0.07091(7) -0.15220(12) 0.08925(6) 0.0492 Uani
F3 F 0.00990(7) -0.11243(12) 0.07380(6) 0.0478 Uani
F4 F -0.09133(7) 0.00765(13) 0.04467(6) 0.0525 Uani
F5 F -0.00552(7) 0.05881(11) 0.05682(5) 0.0457 Uani
F6 F -0.06920(7) 0.12657(11) 0.08671(5) 0.0471 Uani
N1 N 0.18601(10) 0.42012(17) 0.30591(8) 0.0425 Uani
N2 N 0.16280(10) 0.55778(16) 0.32518(8) 0.0397 Uani
N3 N 0.27124(9) 0.24719(15) 0.33225(7) 0.0354 Uani
N4 N 0.33250(10) 0.13865(16) 0.36389(8) 0.0415 Uani
O1 O 0.21807(8) 0.15083(14) 0.22392(7) 0.0450 Uani
O2 O 0.15932(8) 0.25097(14) 0.24588(7) 0.0449 Uani
O3 O -0.20811(9) -0.13713(14) 0.25409(7) 0.0463 Uani
O4 O -0.26823(9) -0.05171(14) 0.20523(7) 0.0456 Uani
Zn1 Zn 0.225946(13) 0.31938(2) 0.277708(11) 0.0385 Uani
C1A C 0.71018(12) 0.1624(2) 0.17231(10) 0.0429 Uani
H1A H 0.7249 0.1242 0.1975 0.0510 Uiso
C2A C 0.65662(12) 0.2130(2) 0.10619(10) 0.0437 Uani
C3A C 0.69514(13) 0.2803(2) 0.12586(9) 0.0429 Uani
C4A C 0.69614(13) 0.3654(2) 0.10429(9) 0.0424 Uani
H2A H 0.7217 0.4113 0.1171 0.0510 Uiso
C5A C 0.65600(13) 0.3768(2) 0.06196(10) 0.0497 Uani
H3A H 0.6550 0.4323 0.0462 0.0600 Uiso
C6A C 0.61760(13) 0.3085(2) 0.04256(10) 0.0466 Uani
H4A H 0.5922 0.3202 0.0143 0.0560 Uiso
C7A C 0.61542(13) 0.2227(2) 0.06361(10) 0.0454 Uani
H5A H 0.5896 0.1769 0.0509 0.0540 Uiso
C8A C 0.63427(12) 0.0526(2) 0.13471(10) 0.0425 Uani
H6A H 0.6607 0.0016 0.1421 0.0510 Uiso
H7A H 0.6114 0.0434 0.1033 0.0510 Uiso
C9A C 0.59454(12) 0.0559(2) 0.16996(10) 0.0431 Uani
C10A C 0.58877(12) -0.0206(2) 0.19617(9) 0.0419 Uani
H8A H 0.6097 -0.0731 0.1929 0.0500 Uiso
C11A C 0.55171(12) -0.0194(2) 0.22754(10) 0.0440 Uani
H9A H 0.5481 -0.0712 0.2451 0.0530 Uiso
C12A C 0.52031(12) 0.05751(19) 0.23292(10) 0.0402 Uani
C13A C 0.52684(13) 0.1371(2) 0.20668(11) 0.0474 Uani
H10A H 0.5067 0.1899 0.2109 0.0570 Uiso
C14A C 0.56241(13) 0.1369(2) 0.17533(10) 0.0452 Uani
H11A H 0.5658 0.1887 0.1576 0.0540 Uiso
C15F C 0.30356(12) 0.99087(19) 0.69688(10) 0.0402 Uani
H12F H 0.2763 0.9661 0.7122 0.0480 Uiso
C16F C 0.37351(13) 1.00121(19) 0.65728(9) 0.0415 Uani
C17F C 0.35830(12) 1.08842(19) 0.66964(9) 0.0383 Uani
C18F C 0.38762(13) 1.1653(2) 0.65861(10) 0.0446 Uani
H13F H 0.3783 1.2234 0.6676 0.0530 Uiso
C19F C 0.43064(13) 1.1523(2) 0.63410(10) 0.0459 Uani
H14F H 0.4500 1.2027 0.6255 0.0550 Uiso
C20F C 0.44655(14) 1.0616(2) 0.62127(10) 0.0494 Uani
H15F H 0.4768 1.0545 0.6056 0.0590 Uiso
C21F C 0.41751(12) 0.9861(2) 0.63196(10) 0.0435 Uani
H16F H 0.4264 0.9278 0.6230 0.0520 Uiso
C22F C 0.33252(13) 0.84278(18) 0.66826(10) 0.0413 Uani
H17F H 0.3085 0.8179 0.6885 0.0500 Uiso
H18F H 0.3705 0.8155 0.6772 0.0500 Uiso
C23F C 0.30757(13) 0.8196(2) 0.61929(10) 0.0471 Uani
C24F C 0.27978(14) 0.8817(2) 0.58638(10) 0.0542 Uani
H19F H 0.2752 0.9419 0.5950 0.0650 Uiso
C25F C 0.25891(13) 0.8539(2) 0.54063(10) 0.0512 Uani
H20F H 0.2417 0.8975 0.5190 0.0610 Uiso
C26F C 0.26197(13) 0.7647(2) 0.52489(10) 0.0455 Uani
C27F C 0.29123(13) 0.7069(2) 0.55973(10) 0.0462 Uani
H21F H 0.2954 0.6464 0.5513 0.0550 Uiso
C28F C 0.31471(13) 0.7304(2) 0.60565(10) 0.0476 Uani
H22F H 0.3346 0.6880 0.6267 0.0570 Uiso
C29A C 0.82997(12) 0.17752(19) 0.27479(10) 0.0404 Uani
C30A C 0.88273(12) 0.12653(19) 0.29940(10) 0.0414 Uani
C31A C 0.87518(12) 0.0517(2) 0.32604(10) 0.0444 Uani
H23A H 0.8381 0.0324 0.3274 0.0530 Uiso
C32A C 0.92278(12) 0.0048(2) 0.35102(10) 0.0436 Uani
H24A H 0.9173 -0.0446 0.3697 0.0520 Uiso
C33A C 0.97898(12) 0.03118(19) 0.34824(10) 0.0410 Uani
C34A C 0.98602(12) 0.10591(19) 0.31922(9) 0.0404 Uani
H25A H 1.0227 0.1240 0.3162 0.0480 Uiso
C35A C 0.93751(12) 0.1522(2) 0.29525(10) 0.0409 Uani
H26A H 0.9421 0.2012 0.2761 0.0490 Uiso
C36A C 1.03273(12) -0.01399(19) 0.37788(9) 0.0406 Uani
C37A C 1.02245(12) -0.1089(2) 0.39297(10) 0.0437 Uani
C38A C 1.04995(12) 0.0448(2) 0.42319(9) 0.0435 Uani
C39A C 1.08264(12) -0.0202(2) 0.35061(9) 0.0408 Uani
C40A C 1.07046(13) -0.0603(2) 0.30657(11) 0.0477 Uani
H27A H 1.0325 -0.0744 0.2928 0.0570 Uiso
C41A C 1.11390(13) -0.0797(2) 0.28253(10) 0.0435 Uani
H28A H 1.1054 -0.1081 0.2533 0.0520 Uiso
C42A C 1.17057(12) -0.05596(19) 0.30305(10) 0.0408 Uani
C43A C 1.18280(12) -0.01112(19) 0.34562(10) 0.0417 Uani
H29A H 1.2203 0.0078 0.3581 0.0500 Uiso
C44A C 1.13939(12) 0.00570(19) 0.36981(10) 0.0407 Uani
H30A H 1.1480 0.0343 0.3990 0.0490 Uiso
C45A C 1.21960(12) -0.0822(2) 0.27952(10) 0.0423 Uani
F1A F 0.99486(7) -0.15968(11) 0.35747(6) 0.0445 Uani
F2A F 1.07091(7) -0.15220(12) 0.41075(6) 0.0492 Uani
F3A F 0.99010(7) -0.11243(12) 0.42620(6) 0.0478 Uani
F4A F 1.09133(7) 0.00765(13) 0.45533(6) 0.0525 Uani
F5A F 1.00552(7) 0.05881(11) 0.44318(5) 0.0457 Uani
F6A F 1.06920(7) 0.12657(11) 0.41329(5) 0.0471 Uani
N1F N 0.31399(10) 1.07988(17) 0.69409(8) 0.0425 Uani
N1A N 0.81399(10) 0.42012(17) 0.19409(8) 0.0425 Uani
N2F N 0.33720(10) 0.94222(16) 0.67482(8) 0.0397 Uani
N3A N 0.72876(9) 0.24719(15) 0.16775(7) 0.0354 Uani
N4A N 0.66750(10) 0.13865(16) 0.13611(8) 0.0415 Uani
O1A O 0.78193(8) 0.15083(14) 0.27608(7) 0.0450 Uani
O2A O 0.84068(8) 0.25097(14) 0.25412(7) 0.0449 Uani
O3A O 1.20811(9) -0.13713(14) 0.24591(7) 0.0463 Uani
O3B O 0.29189(9) 0.36287(14) 0.25409(7) 0.0463 Uani
O3C O 0.70811(9) 0.36287(14) 0.24591(7) 0.0463 Uani
O4A O 1.26823(9) -0.05171(14) 0.29477(7) 0.0456 Uani
Zn1A Zn 0.774054(13) 0.31938(2) 0.222292(11) 0.0385 Uani
Zn1B Zn -0.274054(13) -0.18062(2) 0.277708(11) 0.0385 Uani
Zn1C Zn 1.274054(13) -0.18062(2) 0.222292(11) 0.0385 Uani
Zn1F Zn 0.274054(13) 1.18062(2) 0.722292(11) 0.0385 Uani
loop_
_atom_site_aniso_label
_atom_site_aniso_U_11
_atom_site_aniso_U_22
_atom_site_aniso_U_33
_atom_site_aniso_U_23
_atom_site_aniso_U_13
_atom_site_aniso_U_12
C1 0.0435(15) 0.0386(15) 0.0463(15) 0.0013(12) 0.0088(12) -0.0040(12)
C2 0.0366(14) 0.0492(16) 0.0479(15) -0.0001(13) 0.0144(12) -0.0120(13)
C3 0.0508(16) 0.0410(15) 0.0389(14) -0.0038(12) 0.0139(12) -0.0134(13)
C4 0.0479(16) 0.0434(15) 0.0394(14) -0.0137(12) 0.0174(12) -0.0131(13)
C5 0.0512(17) 0.0504(17) 0.0480(16) -0.0172(14) 0.0113(13) -0.0143(15)
C6 0.0454(16) 0.0559(18) 0.0409(15) -0.0157(13) 0.0145(12) -0.0114(14)
C7 0.0476(16) 0.0478(16) 0.0439(15) -0.0025(13) 0.0165(12) -0.0135(14)
C8 0.0460(16) 0.0401(15) 0.0437(15) 0.0110(12) 0.0143(12) 0.0063(12)
C9 0.0408(15) 0.0432(15) 0.0475(15) 0.0096(12) 0.0142(12) 0.0024(12)
C10 0.0411(15) 0.0427(15) 0.0419(14) 0.0098(12) 0.0082(11) 0.0009(12)
C11 0.0427(15) 0.0431(15) 0.0444(15) 0.0073(13) 0.0045(12) -0.0015(12)
C12 0.0394(14) 0.0403(15) 0.0449(15) 0.0054(12) 0.0181(12) 0.0091(12)
C13 0.0490(16) 0.0448(16) 0.0533(17) -0.0035(13) 0.0219(13) -0.0016(13)
C14 0.0485(16) 0.0457(16) 0.0446(15) 0.0001(13) 0.0172(13) -0.0030(13)
C15 0.0377(14) 0.0412(15) 0.0432(14) -0.0087(12) 0.0120(11) -0.0050(12)
C16 0.0471(16) 0.0407(15) 0.0398(14) -0.0040(12) 0.0162(12) 0.0030(12)
C17 0.0401(14) 0.0404(14) 0.0383(13) -0.0042(12) 0.0169(11) -0.0054(12)
C18 0.0475(16) 0.0445(16) 0.0449(15) 0.0056(12) 0.0166(12) -0.0130(13)
C19 0.0501(16) 0.0430(15) 0.0479(16) 0.0160(13) 0.0180(13) -0.0066(13)
C20 0.0502(17) 0.0553(18) 0.0458(16) 0.0074(14) 0.0171(13) 0.0021(14)
C21 0.0454(16) 0.0429(15) 0.0441(15) -0.0065(12) 0.0138(12) 0.0132(13)
C22 0.0445(15) 0.0331(13) 0.0408(14) -0.0068(11) -0.0039(12) 0.0058(12)
C23 0.0519(17) 0.0378(15) 0.0431(15) -0.0051(12) -0.0099(13) 0.0139(13)
C24 0.0597(19) 0.0426(16) 0.0469(16) -0.0139(13) -0.0200(14) 0.0196(14)
C25 0.0545(18) 0.0417(15) 0.0450(16) -0.0070(13) -0.0184(13) 0.0175(14)
C26 0.0460(15) 0.0446(16) 0.0396(15) -0.0141(12) -0.0058(12) 0.0111(13)
C27 0.0487(16) 0.0353(14) 0.0509(16) -0.0068(12) 0.0016(13) 0.0117(13)
C28 0.0545(17) 0.0422(16) 0.0445(15) -0.0084(13) 0.0062(13) 0.0196(14)
C29 0.0444(16) 0.0399(14) 0.0390(14) -0.0034(12) 0.0132(11) -0.0052(13)
C30 0.0428(15) 0.0369(15) 0.0457(15) -0.0024(12) 0.0120(12) -0.0048(12)
C31 0.0386(15) 0.0484(16) 0.0463(15) -0.0153(13) 0.0089(12) -0.0091(13)
C32 0.0415(15) 0.0410(15) 0.0484(15) -0.0078(12) 0.0097(12) -0.0006(12)
C33 0.0424(15) 0.0371(14) 0.0446(15) -0.0071(12) 0.0115(12) -0.0109(12)
C34 0.0395(14) 0.0416(15) 0.0430(14) -0.0098(12) 0.0152(11) -0.0062(12)
C35 0.0434(15) 0.0401(14) 0.0416(14) -0.0152(12) 0.0146(12) -0.0075(12)
C36 0.0448(15) 0.0416(15) 0.0375(13) -0.0095(12) 0.0137(11) -0.0106(12)
C37 0.0455(15) 0.0437(15) 0.0428(15) -0.0170(13) 0.0112(12) -0.0104(13)
C38 0.0395(14) 0.0541(18) 0.0377(14) 0.0003(12) 0.0099(11) -0.0213(13)
C39 0.0385(14) 0.0463(15) 0.0384(14) -0.0064(12) 0.0098(11) -0.0129(12)
C40 0.0422(16) 0.0513(17) 0.0512(17) 0.0035(14) 0.0134(13) -0.0079(13)
C41 0.0442(15) 0.0435(15) 0.0451(15) -0.0034(12) 0.0147(12) -0.0119(13)
C42 0.0411(15) 0.0405(15) 0.0445(15) -0.0069(12) 0.0176(12) -0.0123(12)
C43 0.0388(14) 0.0413(15) 0.0488(16) -0.0011(12) 0.0181(12) -0.0005(12)
C44 0.0402(14) 0.0416(15) 0.0425(14) -0.0025(12) 0.0138(11) -0.0028(12)
C45 0.0422(16) 0.0443(15) 0.0420(14) 0.0045(13) 0.0125(12) -0.0044(13)
F1 0.0492(9) 0.0374(8) 0.0510(9) -0.0142(7) 0.0196(7) 0.0010(7)
F2 0.0485(10) 0.0546(10) 0.0469(9) -0.0185(8) 0.0153(7) -0.0172(8)
F3 0.0505(9) 0.0497(10) 0.0460(9) -0.0167(8) 0.0162(7) -0.0135(8)
F4 0.0466(9) 0.0591(11) 0.0466(9) -0.0119(8) -0.0028(7) -0.0117(8)
F5 0.0458(9) 0.0494(9) 0.0431(9) 0.0135(7) 0.0121(7) -0.0129(7)
F6 0.0492(9) 0.0464(10) 0.0455(9) 0.0081(7) 0.0096(7) -0.0174(8)
N1 0.0421(13) 0.0431(13) 0.0468(13) -0.0072(11) 0.0194(10) -0.0025(10)
N2 0.0388(12) 0.0380(12) 0.0407(12) -0.0066(10) 0.0041(9) 0.0014(10)
N3 0.0382(11) 0.0364(12) 0.0355(11) -0.0051(9) 0.0164(9) -0.0131(9)
N4 0.0450(13) 0.0421(13) 0.0420(12) 0.0042(10) 0.0195(10) -0.0022(10)
O1 0.0420(11) 0.0455(11) 0.0446(11) -0.0128(9) 0.0025(8) 0.0017(9)
O2 0.0426(10) 0.0453(11) 0.0490(11) -0.0148(9) 0.0146(9) -0.0118(9)
O3 0.0444(11) 0.0441(11) 0.0533(11) 0.0086(9) 0.0170(9) -0.0065(9)
O4 0.0483(12) 0.0443(11) 0.0472(11) 0.0123(9) 0.0169(9) 0.0121(9)
Zn1 0.03686(18) 0.04315(19) 0.03957(18) -0.00818(14) 0.01729(13) -0.00622(14)
C1A 0.0435 0.0386 0.0463 -0.0013 0.0088 0.004
C2A 0.0366 0.0492 0.0479 0.0001 0.0144 0.012
C3A 0.0508 0.041 0.0389 0.0038 0.0139 0.0134
C4A 0.0479 0.0434 0.0394 0.0137 0.0174 0.0131
C5A 0.0512 0.0504 0.048 0.0172 0.0113 0.0143
C6A 0.0454 0.0559 0.0409 0.0157 0.0145 0.0114
C7A 0.0476 0.0478 0.0439 0.0025 0.0165 0.0135
C8A 0.046 0.0401 0.0437 -0.011 0.0143 -0.0063
C9A 0.0408 0.0432 0.0475 -0.0096 0.0142 -0.0024
C10A 0.0411 0.0427 0.0419 -0.0098 0.0082 -0.0009
C11A 0.0427 0.0431 0.0444 -0.0073 0.0045 0.0015
C12A 0.0394 0.0403 0.0449 -0.0054 0.0181 -0.0091
C13A 0.049 0.0448 0.0533 0.0035 0.0219 0.0016
C14A 0.0485 0.0457 0.0446 -0.0001 0.0172 0.003
C15F 0.0377 0.0412 0.0432 -0.0087 0.012 -0.005
C16F 0.0471 0.0407 0.0398 -0.004 0.0162 0.003
C17F 0.0401 0.0404 0.0383 -0.0042 0.0169 -0.0054
C18F 0.0475 0.0445 0.0449 0.0056 0.0166 -0.013
C19F 0.0501 0.043 0.0479 0.016 0.018 -0.0066
C20F 0.0502 0.0553 0.0458 0.0074 0.0171 0.0021
C21F 0.0454 0.0429 0.0441 -0.0065 0.0138 0.0132
C22F 0.0445 0.0331 0.0408 -0.0068 -0.0039 0.0058
C23F 0.0519 0.0378 0.0431 -0.0051 -0.0099 0.0139
C24F 0.0597 0.0426 0.0469 -0.0139 -0.02 0.0196
C25F 0.0545 0.0417 0.045 -0.007 -0.0184 0.0175
C26F 0.046 0.0446 0.0396 -0.0141 -0.0058 0.0111
C27F 0.0487 0.0353 0.0509 -0.0068 0.0016 0.0117
C28F 0.0545 0.0422 0.0445 -0.0084 0.0062 0.0196
C29A 0.0444 0.0399 0.039 0.0034 0.0132 0.0052
C30A 0.0428 0.0369 0.0457 0.0024 0.012 0.0048
C31A 0.0386 0.0484 0.0463 0.0153 0.0089 0.0091
C32A 0.0415 0.041 0.0484 0.0078 0.0097 0.0006
C33A 0.0424 0.0371 0.0446 0.0071 0.0115 0.0109
C34A 0.0395 0.0416 0.043 0.0098 0.0152 0.0062
C35A 0.0434 0.0401 0.0416 0.0152 0.0146 0.0075
C36A 0.0448 0.0416 0.0375 0.0095 0.0137 0.0106
C37A 0.0455 0.0437 0.0428 0.017 0.0112 0.0104
C38A 0.0395 0.0541 0.0377 -0.0003 0.0099 0.0213
C39A 0.0385 0.0463 0.0384 0.0064 0.0098 0.0129
C40A 0.0422 0.0513 0.0512 -0.0035 0.0134 0.0079
C41A 0.0442 0.0435 0.0451 0.0034 0.0147 0.0119
C42A 0.0411 0.0405 0.0445 0.0069 0.0176 0.0123
C43A 0.0388 0.0413 0.0488 0.0011 0.0181 0.0005
C44A 0.0402 0.0416 0.0425 0.0025 0.0138 0.0028
C45A 0.0422 0.0443 0.042 -0.0045 0.0125 0.0044
F1A 0.0492 0.0374 0.051 0.0142 0.0196 -0.001
F2A 0.0485 0.0546 0.0469 0.0185 0.0153 0.0172
F3A 0.0505 0.0497 0.046 0.0167 0.0162 0.0135
F4A 0.0466 0.0591 0.0466 0.0119 -0.0028 0.0117
F5A 0.0458 0.0494 0.0431 -0.0135 0.0121 0.0129
F6A 0.0492 0.0464 0.0455 -0.0081 0.0096 0.0174
N1F 0.0421 0.0431 0.0468 -0.0072 0.0194 -0.0025
N1A 0.0421 0.0431 0.0468 0.0072 0.0194 0.0025
N2F 0.0388 0.038 0.0407 -0.0066 0.0041 0.0014
N3A 0.0382 0.0364 0.0355 0.0051 0.0164 0.0131
N4A 0.045 0.0421 0.042 -0.0042 0.0195 0.0022
O1A 0.042 0.0455 0.0446 0.0128 0.0025 -0.0017
O2A 0.0426 0.0453 0.049 0.0148 0.0146 0.0118
O3A 0.0444 0.0441 0.0533 -0.0086 0.017 0.0065
O3B 0.0444 0.0441 0.0533 0.0086 0.017 -0.0065
O3C 0.0444 0.0441 0.0533 -0.0086 0.017 0.0065
O4A 0.0483 0.0443 0.0472 -0.0123 0.0169 -0.0121
Zn1A 0.03686 0.04315 0.03957 0.00818 0.01729 0.00622
Zn1B 0.03686 0.04315 0.03957 -0.00818 0.01729 -0.00622
Zn1C 0.03686 0.04315 0.03957 0.00818 0.01729 0.00622
Zn1F 0.03686 0.04315 0.03957 -0.00818 0.01729 -0.00622
loop_
_geom_bond_atom_site_label_1
_geom_bond_atom_site_label_2
_geom_bond_site_symmetry_1
_geom_bond_site_symmetry_2
C1 H1 1_555 1_555
C2 C3 1_555 1_555
C3 C4 1_555 1_555
C4 H2 1_555 1_555
C5 C4 1_555 1_555
H3 C5 1_555 1_555
C6 C5 1_555 1_555
H4 C6 1_555 1_555
C7 C2 1_555 1_555
H5 C7 1_555 1_555
C8 H6 1_555 1_555
H7 C8 1_555 1_555
C9 C8 1_555 1_555
C10 C9 1_555 1_555
H8 C10 1_555 1_555
C11 C10 1_555 1_555
H9 C11 1_555 1_555
C12 C11 1_555 1_555
C13 C12 1_555 1_555
H10 C13 1_555 1_555
C14 C9 1_555 1_555
H11 C14 1_555 1_555
C15 H12 1_555 1_555
C16 C17 1_555 1_555
C17 C18 1_555 1_555
C18 H13 1_555 1_555
C19 C18 1_555 1_555
H14 C19 1_555 1_555
C20 C19 1_555 1_555
H15 C20 1_555 1_555
C21 C16 1_555 1_555
H16 C21 1_555 1_555
C22 H17 1_555 1_555
H18 C22 1_555 1_555
C23 C22 1_555 1_555
C24 C23 1_555 1_555
H19 C24 1_555 1_555
C25 C24 1_555 1_555
H20 C25 1_555 1_555
C26 C25 1_555 1_555
C27 C26 1_555 1_555
H21 C27 1_555 1_555
C28 C23 1_555 1_555
H22 C28 1_555 1_555
C29 C30 1_555 1_555
C30 C31 1_555 1_555
C31 H23 1_555 1_555
C32 C31 1_555 1_555
H24 C32 1_555 1_555
C33 C32 1_555 1_555
C34 C33 1_555 1_555
H25 C34 1_555 1_555
C35 C30 1_555 1_555
H26 C35 1_555 1_555
C36 C33 1_555 1_555
C37 C36 1_555 1_555
C38 C36 1_555 1_555
C39 C36 1_555 1_555
C40 C39 1_555 1_555
H27 C40 1_555 1_555
C41 C40 1_555 1_555
H28 C41 1_555 1_555
C42 C41 1_555 1_555
C43 C42 1_555 1_555
H29 C43 1_555 1_555
C44 C39 1_555 1_555
H30 C44 1_555 1_555
C45 C42 1_555 1_555
F1 C37 1_555 1_555
F2 C37 1_555 1_555
F3 C37 1_555 1_555
F4 C38 1_555 1_555
F5 C38 1_555 1_555
F6 C38 1_555 1_555
N1 C15 1_555 1_555
N2 C15 1_555 1_555
N3 C1 1_555 1_555
N4 C1 1_555 1_555
O1 C29 1_555 1_555
O2 C29 1_555 1_555
O3 C45 1_555 1_555
O4 C45 1_555 1_555
Zn1 N1 1_555 1_555
C1A H1A 1_555 1_555
C2A C3A 1_555 1_555
C3A C4A 1_555 1_555
C4A H2A 1_555 1_555
C5A C4A 1_555 1_555
H3A C5A 1_555 1_555
C6A C5A 1_555 1_555
H4A C6A 1_555 1_555
C7A C2A 1_555 1_555
H5A C7A 1_555 1_555
C8A H6A 1_555 1_555
H7A C8A 1_555 1_555
C9A C8A 1_555 1_555
C10A C9A 1_555 1_555
H8A C10A 1_555 1_555
C11A C10A 1_555 1_555
H9A C11A 1_555 1_555
C12A C12 1_555 1_555
C13A C12A 1_555 1_555
H10A C13A 1_555 1_555
C14A C9A 1_555 1_555
H11A C14A 1_555 1_555
C15F H12F 1_555 1_555
C16F C17F 1_555 1_555
C17F C18F 1_555 1_555
C18F H13F 1_555 1_555
C19F C18F 1_555 1_555
H14F C19F 1_555 1_555
C20F C19F 1_555 1_555
H15F C20F 1_555 1_555
C21F C16F 1_555 1_555
H16F C21F 1_555 1_555
C22F H17F 1_555 1_555
H18F C22F 1_555 1_555
C23F C22F 1_555 1_555
C24F C23F 1_555 1_555
H19F C24F 1_555 1_555
C25F C24F 1_555 1_555
H20F C25F 1_555 1_555
C26F C26 1_555 1_555
C27F C26F 1_555 1_555
H21F C27F 1_555 1_555
C28F C23F 1_555 1_555
H22F C28F 1_555 1_555
C29A C30A 1_555 1_555
C30A C31A 1_555 1_555
C31A H23A 1_555 1_555
C32A C31A 1_555 1_555
H24A C32A 1_555 1_555
C33A C32A 1_555 1_555
C34A C33A 1_555 1_555
H25A C34A 1_555 1_555
C35A C30A 1_555 1_555
H26A C35A 1_555 1_555
C36A C33A 1_555 1_555
C37A C36A 1_555 1_555
C38A C36A 1_555 1_555
C39A C36A 1_555 1_555
C40A C39A 1_555 1_555
H27A C40A 1_555 1_555
C41A C40A 1_555 1_555
H28A C41A 1_555 1_555
C42A C41A 1_555 1_555
C43A C42A 1_555 1_555
H29A C43A 1_555 1_555
C44A C39A 1_555 1_555
H30A C44A 1_555 1_555
C45A C42A 1_555 1_555
F1A C37A 1_555 1_555
F2A C37A 1_555 1_555
F3A C37A 1_555 1_555
F4A C38A 1_555 1_555
F5A C38A 1_555 1_555
F6A C38A 1_555 1_555
N1F C15F 1_555 1_555
N1A Zn1A 1_555 1_555
N2F C15F 1_555 1_555
N3A C1A 1_555 1_555
N4A C1A 1_555 1_555
O1A C29A 1_555 1_555
O2A C29A 1_555 1_555
O3A C45A 1_555 1_555
O3B Zn1 1_555 1_555
O3C Zn1A 1_555 1_555
O4A C45A 1_555 1_555
Zn1A N3A 1_555 1_555
Zn1B O3 1_555 1_555
Zn1C O3A 1_555 1_555
Zn1F N1F 1_555 1_555
C2 N4 1_555 1_555
C3 N3 1_555 1_555
C6 C7 1_555 1_555
C8 N4 1_555 1_555
C13 C14 1_555 1_555
C16 N2 1_555 1_555
C17 N1 1_555 1_555
C20 C21 1_555 1_555
C22 N2 1_555 1_555
C27 C28 1_555 1_555
C34 C35 1_555 1_555
C43 C44 1_555 1_555
N3 Zn1 1_555 1_555
O2 Zn1 1_555 1_555
C2A N4A 1_555 1_555
C3A N3A 1_555 1_555
C6A C7A 1_555 1_555
C8A N4A 1_555 1_555
C11A C12A 1_555 1_555
C13A C14A 1_555 1_555
C16F N2F 1_555 1_555
C17F N1F 1_555 1_555
C20F C21F 1_555 1_555
C22F N2F 1_555 1_555
C25F C26F 1_555 1_555
C27F C28F 1_555 1_555
C34A C35A 1_555 1_555
C43A C44A 1_555 1_555
O2A Zn1A 1_555 1_555

#END
