
#######################################################################
#
#                 Cambridge Crystallographic Data Centre
#                                CCDC 
#
#######################################################################
#
# If this CIF has been generated from an entry in the Cambridge 
# Structural Database, then it will include bibliographic, chemical, 
# crystal, experimental, refinement or atomic coordinate data resulting 
# from the CCDC's data processing and validation procedures.
#
#######################################################################

data_UZANEP
_chemical_formula_moiety         '(C13 H15 N2 Nd1 O13 Zn1)n'
_symmetry_cell_setting           monoclinic
_symmetry_space_group_name_H-M   'P 21/c'
_symmetry_Int_Tables_number      14
_space_group_name_Hall           '-P 2ybc'
loop_
_symmetry_equiv_pos_site_id
_symmetry_equiv_pos_as_xyz
1 x,y,z
2 -x,1/2+y,1/2-z
3 -x,-y,-z
4 x,1/2-y,1/2+z
_cell_length_a                   10.1806(8)
_cell_length_b                   9.5903(7)
_cell_length_c                   20.5841(13)
_cell_angle_alpha                90
_cell_angle_beta                 106.075(3)
_cell_angle_gamma                90
_cell_volume                     1931.15
loop_
_atom_site_label
_atom_site_type_symbol
_atom_site_fract_x
_atom_site_fract_y
_atom_site_fract_z
_atom_site_U_iso_or_equiv
_atom_site_thermal_displace_type
C1 C 0.1372(4) 0.8118(4) 1.11010(19) 0.0240 Uani
C2 C 0.1873(6) 0.9456(5) 1.1118(2) 0.0458 Uani
H1 H 0.2118 0.9938 1.1526 0.0550 Uiso
C3 C 0.2016(7) 1.0092(6) 1.0540(3) 0.0564 Uani
H2 H 0.2351 1.0998 1.0559 0.0670 Uiso
C4 C 0.1660(6) 0.9380(5) 0.9935(2) 0.0413 Uani
H3 H 0.1759 0.9803 0.9545 0.0490 Uiso
C5 C 0.1157(4) 0.8040(4) 0.99078(19) 0.0223 Uani
C6 C 0.1000(4) 0.7402(4) 1.04889(18) 0.0194 Uani
H4 H 0.0648 0.6503 1.0468 0.0230 Uiso
C7 C 0.0798(4) 0.7255(4) 0.92526(18) 0.0180 Uani
C8 C 0.1232(4) 0.7435(4) 1.17412(18) 0.0190 Uani
C9 C 0.2060(3) 0.2935(4) 0.73893(18) 0.0165 Uani
C10 C 0.3414(4) 0.3588(4) 0.75316(19) 0.0174 Uani
C11 C 0.4094(4) 0.4611(4) 0.79624(19) 0.0176 Uani
C12 C 0.3755(4) 0.5481(4) 0.84855(19) 0.0193 Uani
C13 C 0.5415(4) 0.3863(4) 0.7378(2) 0.0250 Uani
H5 H 0.6168 0.3758 0.7210 0.0300 Uiso
Nd1 Nd 0.029143(19) 0.56962(2) 0.797989(9) 0.0147 Uani
N1 N 0.4268(3) 0.3122(3) 0.71624(17) 0.0212 Uani
N2 N 0.5365(3) 0.4770(4) 0.78604(17) 0.0215 Uani
O1 O 0.1010(3) 0.7811(3) 0.87328(13) 0.0251 Uani
O2 O 0.0299(3) 0.6037(3) 0.92202(13) 0.0222 Uani
O3 O 0.0930(3) 0.6173(3) 1.17111(14) 0.0269 Uani
O4 O 0.1442(3) 0.8181(3) 1.22669(13) 0.0249 Uani
O5 O 0.1110(2) 0.3404(3) 0.75942(13) 0.0230 Uani
O6 O 0.1923(3) 0.1825(3) 0.70283(13) 0.0208 Uani
O7 O 0.2637(3) 0.5284(3) 0.86296(13) 0.0232 Uani
O8 O 0.4634(3) 0.6365(3) 0.87776(14) 0.0258 Uani
O12 O -0.1286(3) 0.5257(3) 0.68657(15) 0.0369 Uani
H12 H -0.1342 0.4485 0.6698 0.0550 Uiso
H13 H -0.1756 0.5758 0.6575 0.0550 Uiso
O13 O 0.2370(3) 0.1159(3) 0.57245(14) 0.0330 Uani
H14 H 0.1564 0.0926 0.5612 0.0500 Uiso
H15 H 0.2734 0.0686 0.5487 0.0500 Uiso
Zn1 Zn 0.36243(4) 0.13854(5) 0.66342(2) 0.0215 Uani
Nd1B Nd -0.029143(19) 0.43038(2) 1.202011(9) 0.0147 Uani
Nd1C Nd 0.029143(19) 0.93038(2) 1.297989(9) 0.0147 Uani
Nd1A Nd -0.029143(19) 0.06962(2) 0.702011(9) 0.0147 Uani
N2A N 0.4635(3) -0.0230(4) 0.71396(17) 0.0215 Uani
O3B O -0.0930(3) 0.3827(3) 0.82889(14) 0.0269 Uani
O4C O 0.1442(3) 0.6819(3) 0.72669(13) 0.0249 Uani
O5A O -0.1110(2) 0.8404(3) 0.74058(13) 0.0230 Uani
O6A O -0.1923(3) 0.6825(3) 0.79717(13) 0.0208 Uani
O8A O 0.5366(3) 0.1365(3) 0.62224(14) 0.0258 Uani
Zn1A Zn 0.63757(4) 0.63854(5) 0.83658(2) 0.0215 Uani
O9 O 0.3617(4) 0.5495(5) 1.00390(18) 0.0605 Uani
H6 H 0.3895 0.6323 1.0160 0.0910 Uiso
H7 H 0.3135 0.5523 0.9618 0.0910 Uiso
O10 O 0.2597(6) 0.2193(5) 0.9059(3) 0.1106 Uani
H8 H 0.3350 0.1888 0.8978 0.1660 Uiso
H9 H 0.2827 0.2899 0.9332 0.1660 Uiso
O11 O 0.4952(7) 0.8331(8) -0.0111(4) 0.1485 Uani
H10 H 0.4514 0.8687 -0.0505 0.2220 Uiso
H11 H 0.4689 0.8790 0.0201 0.2220 Uiso
loop_
_atom_site_aniso_label
_atom_site_aniso_U_11
_atom_site_aniso_U_22
_atom_site_aniso_U_33
_atom_site_aniso_U_23
_atom_site_aniso_U_13
_atom_site_aniso_U_12
C1 0.032(2) 0.024(2) 0.018(2) -0.0040(16) 0.0102(17) -0.0033(18)
C2 0.085(4) 0.031(3) 0.025(2) -0.014(2) 0.021(3) -0.025(3)
C3 0.108(5) 0.030(3) 0.035(3) -0.010(2) 0.026(3) -0.037(3)
C4 0.071(4) 0.034(3) 0.022(2) -0.0020(19) 0.018(2) -0.021(2)
C5 0.026(2) 0.023(2) 0.018(2) -0.0036(16) 0.0063(16) -0.0045(17)
C6 0.024(2) 0.0136(19) 0.021(2) -0.0037(15) 0.0071(16) -0.0025(15)
C7 0.0152(18) 0.022(2) 0.0167(19) 0.0015(16) 0.0044(15) 0.0027(16)
C8 0.0202(18) 0.023(2) 0.0149(19) -0.0053(15) 0.0069(15) -0.0017(16)
C9 0.0152(18) 0.018(2) 0.0163(18) 0.0055(15) 0.0042(15) 0.0017(15)
C10 0.0170(18) 0.015(2) 0.021(2) 0.0008(15) 0.0066(15) 0.0009(15)
C11 0.0140(18) 0.017(2) 0.023(2) 0.0025(15) 0.0073(15) -0.0001(14)
C12 0.0197(19) 0.020(2) 0.0180(19) 0.0051(15) 0.0050(16) 0.0018(15)
C13 0.019(2) 0.023(2) 0.038(2) -0.0076(18) 0.0160(18) -0.0027(16)
Nd1 0.01496(11) 0.01648(12) 0.01312(11) -0.00075(8) 0.00473(8) 0.00067(8)
N1 0.0178(16) 0.0192(18) 0.0280(18) -0.0028(14) 0.0086(14) 0.0011(14)
N2 0.0146(16) 0.0198(18) 0.0321(19) -0.0046(14) 0.0098(14) -0.0042(13)
O1 0.0402(16) 0.0200(15) 0.0164(14) -0.0014(11) 0.0100(12) -0.0060(13)
O2 0.0281(15) 0.0198(15) 0.0188(14) -0.0026(11) 0.0069(12) -0.0058(12)
O3 0.0398(17) 0.0208(16) 0.0245(15) -0.0030(12) 0.0164(13) -0.0080(13)
O4 0.0312(15) 0.0274(16) 0.0186(14) -0.0060(12) 0.0110(12) -0.0041(13)
O5 0.0150(13) 0.0287(16) 0.0274(15) -0.0040(12) 0.0093(11) -0.0006(11)
O6 0.0193(13) 0.0158(14) 0.0275(15) -0.0052(11) 0.0067(11) -0.0031(11)
O7 0.0175(13) 0.0332(17) 0.0207(14) -0.0016(12) 0.0083(11) -0.0006(12)
O8 0.0235(14) 0.0288(17) 0.0260(15) -0.0073(12) 0.0082(12) -0.0065(13)
O12 0.0464(19) 0.0285(18) 0.0247(16) -0.0083(13) -0.0088(14) 0.0129(15)
O13 0.0243(15) 0.047(2) 0.0267(16) -0.0059(14) 0.0053(13) 0.0036(14)
Zn1 0.0189(2) 0.0191(3) 0.0260(3) -0.00129(19) 0.00563(19) 0.00418(19)
Nd1B 0.01496 0.01648 0.01312 -0.00075 0.00473 0.00067
Nd1C 0.01496 0.01648 0.01312 0.00075 0.00473 -0.00067
Nd1A 0.01496 0.01648 0.01312 0.00075 0.00473 -0.00067
N2A 0.0146 0.0198 0.0321 0.0046 0.0098 0.0042
O3B 0.0398 0.0208 0.0245 -0.003 0.0164 -0.008
O4C 0.0312 0.0274 0.0186 0.006 0.011 0.0041
O5A 0.015 0.0287 0.0274 0.004 0.0093 0.0006
O6A 0.0193 0.0158 0.0275 0.0052 0.0067 0.0031
O8A 0.0235 0.0288 0.026 0.0073 0.0082 0.0065
Zn1A 0.0189 0.0191 0.026 0.00129 0.00563 -0.00418
O9 0.049(2) 0.099(4) 0.034(2) 0.018(2) 0.0122(17) 0.004(2)
O10 0.153(5) 0.064(3) 0.086(4) 0.007(3) -0.015(3) -0.045(3)
O11 0.116(5) 0.161(7) 0.165(7) -0.066(6) 0.033(5) 0.003(5)
loop_
_geom_bond_atom_site_label_1
_geom_bond_atom_site_label_2
_geom_bond_site_symmetry_1
_geom_bond_site_symmetry_2
C1 C2 1_555 1_555
C2 H1 1_555 1_555
C3 C2 1_555 1_555
H2 C3 1_555 1_555
C4 C3 1_555 1_555
H3 C4 1_555 1_555
C5 C4 1_555 1_555
C6 C1 1_555 1_555
H4 C6 1_555 1_555
C7 C5 1_555 1_555
C8 C1 1_555 1_555
C9 C10 1_555 1_555
C10 C11 1_555 1_555
C11 C12 1_555 1_555
C12 O7 1_555 1_555
C13 H5 1_555 1_555
Nd1 O1 1_555 1_555
N1 C10 1_555 1_555
N2 C11 1_555 1_555
O1 C7 1_555 1_555
O2 C7 1_555 1_555
O3 C8 1_555 1_555
O4 C8 1_555 1_555
O5 C9 1_555 1_555
O6 C9 1_555 1_555
O7 Nd1 1_555 1_555
O8 C12 1_555 1_555
O9 H6 1_555 1_555
H7 O9 1_555 1_555
O10 H8 1_555 1_555
H9 O10 1_555 1_555
O11 H10 1_555 1_555
H11 O11 1_555 1_555
O12 Nd1 1_555 1_555
H12 O12 1_555 1_555
H13 O12 1_555 1_555
O13 H14 1_555 1_555
H15 O13 1_555 1_555
Zn1 N1 1_555 1_555
Nd1B O3 1_555 1_555
Nd1C O4 1_555 1_555
Nd1A O5 1_555 1_555
N2A Zn1 1_555 1_555
O3B Nd1 1_555 1_555
O4C Nd1 1_555 1_555
O5A Nd1 1_555 1_555
O6A Nd1 1_555 1_555
O8A Zn1 1_555 1_555
Zn1A N2 1_555 1_555
C5 C6 1_555 1_555
C13 N1 1_555 1_555
C13 N2 1_555 1_555
Nd1 O2 1_555 1_555
Nd1 O5 1_555 1_555
O6 Zn1 1_555 1_555
O6 Nd1A 1_555 1_555
O8 Zn1A 1_555 1_555
O13 Zn1 1_555 1_555

#END
