
#######################################################################
#
#                 Cambridge Crystallographic Data Centre
#                                CCDC 
#
#######################################################################
#
# If this CIF has been generated from an entry in the Cambridge 
# Structural Database, then it will include bibliographic, chemical, 
# crystal, experimental, refinement or atomic coordinate data resulting 
# from the CCDC's data processing and validation procedures.
#
#######################################################################

data_UZANAL
_chemical_formula_moiety         '(C13 H15 Gd1 N2 O13 Zn1)n'
_symmetry_cell_setting           monoclinic
_symmetry_space_group_name_H-M   'P 21/c'
_symmetry_Int_Tables_number      14
_space_group_name_Hall           '-P 2ybc'
loop_
_symmetry_equiv_pos_site_id
_symmetry_equiv_pos_as_xyz
1 x,y,z
2 -x,1/2+y,1/2-z
3 -x,-y,-z
4 x,1/2-y,1/2+z
_cell_length_a                   10.1045(13)
_cell_length_b                   9.5831(12)
_cell_length_c                   20.385(3)
_cell_angle_alpha                90
_cell_angle_beta                 105.585(6)
_cell_angle_gamma                90
_cell_volume                     1901.35
loop_
_atom_site_label
_atom_site_type_symbol
_atom_site_fract_x
_atom_site_fract_y
_atom_site_fract_z
_atom_site_U_iso_or_equiv
_atom_site_thermal_displace_type
C1 C 0.1354(5) 0.8085(5) 1.1106(2) 0.0232 Uani
C2 C 0.1853(7) 0.9441(5) 1.1124(3) 0.0414 Uani
H1 H 0.2092 0.9923 1.1535 0.0500 Uiso
C3 C 0.1996(8) 1.0077(6) 1.0545(3) 0.0544 Uani
H2 H 0.2330 1.0984 1.0565 0.0650 Uiso
C4 C 0.1649(7) 0.9378(5) 0.9934(3) 0.0384 Uani
H3 H 0.1751 0.9813 0.9543 0.0460 Uiso
C5 C 0.1143(5) 0.8021(4) 0.9900(2) 0.0221 Uani
C6 C 0.0986(4) 0.7383(4) 1.0489(2) 0.0208 Uani
H4 H 0.0632 0.6483 1.0468 0.0250 Uiso
C7 C 0.0792(4) 0.7258(4) 0.9236(2) 0.0187 Uani
C8 C 0.1203(4) 0.7407(4) 1.1746(2) 0.0196 Uani
C9 C 0.2029(4) 0.2982(4) 0.7392(2) 0.0164 Uani
C10 C 0.3411(4) 0.3613(4) 0.7528(2) 0.0164 Uani
C11 C 0.4089(4) 0.4635(4) 0.7954(2) 0.0200 Uani
C12 C 0.3744(4) 0.5516(4) 0.8483(2) 0.0179 Uani
C13 C 0.5424(5) 0.3852(5) 0.7371(3) 0.0270 Uani
H5 H 0.6184 0.3727 0.7202 0.0330 Uiso
Gd1 Gd 0.029780(19) 0.57056(2) 0.798547(10) 0.0148 Uani
N1 N 0.4259(4) 0.3131(4) 0.7158(2) 0.0214 Uani
N2 N 0.5377(3) 0.4782(4) 0.7858(2) 0.0222 Uani
O1 O 0.0996(3) 0.7805(3) 0.87148(16) 0.0244 Uani
O2 O 0.0301(3) 0.6029(3) 0.92056(16) 0.0213 Uani
O3 O 0.0919(3) 0.6131(3) 1.17145(17) 0.0258 Uani
O4 O 0.1395(3) 0.8139(3) 1.22751(16) 0.0252 Uani
O5 O 0.1091(3) 0.3501(3) 0.75930(16) 0.0227 Uani
O6 O 0.1875(3) 0.1860(3) 0.70393(16) 0.0201 Uani
O7 O 0.2608(3) 0.5333(3) 0.86206(17) 0.0236 Uani
O8 O 0.4631(3) 0.6382(3) 0.87799(17) 0.0249 Uani
O12 O -0.1242(4) 0.5278(4) 0.68934(18) 0.0348 Uani
H12 H -0.1298 0.4505 0.6725 0.0520 Uiso
H13 H -0.1712 0.5779 0.6603 0.0520 Uiso
O13 O 0.2357(3) 0.1163(4) 0.57219(18) 0.0326 Uani
H14 H 0.1551 0.0930 0.5610 0.0490 Uiso
H15 H 0.2721 0.0690 0.5484 0.0490 Uiso
Zn1 Zn 0.36012(5) 0.13850(5) 0.66379(3) 0.0221 Uani
Gd1B Gd -0.029780(19) 0.42944(2) 1.201453(10) 0.0148 Uani
Gd1C Gd 0.029780(19) 0.92944(2) 1.298547(10) 0.0148 Uani
Gd1A Gd -0.029780(19) 0.07056(2) 0.701453(10) 0.0148 Uani
N2A N 0.4623(3) -0.0218(4) 0.7142(2) 0.0222 Uani
O3B O -0.0919(3) 0.3869(3) 0.82855(17) 0.0258 Uani
O4C O 0.1395(3) 0.6861(3) 0.72751(16) 0.0252 Uani
O5A O -0.1091(3) 0.8501(3) 0.74070(16) 0.0227 Uani
O6A O -0.1875(3) 0.6860(3) 0.79607(16) 0.0201 Uani
O8A O 0.5369(3) 0.1382(3) 0.62201(17) 0.0249 Uani
Zn1A Zn 0.63988(5) 0.63850(5) 0.83621(3) 0.0221 Uani
O9 O 0.3616(4) 0.5500(5) 1.0041(2) 0.0593 Uani
H6 H 0.3894 0.6328 1.0162 0.0890 Uiso
H7 H 0.3134 0.5528 0.9620 0.0890 Uiso
O10 O 0.2554(7) 0.2196(6) 0.9048(3) 0.1007 Uani
H8 H 0.3307 0.1891 0.8966 0.1510 Uiso
H9 H 0.2784 0.2903 0.9321 0.1510 Uiso
O11 O 0.4977(8) 0.8336(9) 0.9907(5) 0.1439 Uani
H10 H 0.4538 0.8692 0.9512 0.2160 Uiso
H11 H 0.4713 0.8795 1.0219 0.2160 Uiso
loop_
_atom_site_aniso_label
_atom_site_aniso_U_11
_atom_site_aniso_U_22
_atom_site_aniso_U_33
_atom_site_aniso_U_23
_atom_site_aniso_U_13
_atom_site_aniso_U_12
C1 0.027(2) 0.017(2) 0.026(3) -0.0023(19) 0.008(2) -0.0053(18)
C2 0.072(4) 0.027(3) 0.029(3) -0.012(2) 0.020(3) -0.020(3)
C3 0.101(5) 0.028(3) 0.038(3) -0.012(3) 0.025(4) -0.039(3)
C4 0.064(4) 0.025(3) 0.030(3) -0.001(2) 0.019(3) -0.016(2)
C5 0.026(2) 0.016(2) 0.025(3) -0.0026(19) 0.008(2) -0.0034(18)
C6 0.020(2) 0.016(2) 0.027(3) -0.0027(19) 0.0073(19) -0.0031(17)
C7 0.014(2) 0.021(2) 0.021(2) -0.0017(19) 0.0045(17) 0.0012(17)
C8 0.017(2) 0.020(2) 0.022(2) -0.0019(19) 0.0058(18) -0.0018(17)
C9 0.012(2) 0.015(2) 0.022(2) 0.0030(18) 0.0042(17) 0.0009(16)
C10 0.0102(19) 0.014(2) 0.026(2) 0.0003(18) 0.0068(17) 0.0007(16)
C11 0.014(2) 0.018(2) 0.030(3) 0.0030(19) 0.0094(19) 0.0002(17)
C12 0.013(2) 0.019(2) 0.020(2) 0.0036(18) 0.0017(18) 0.0005(17)
C13 0.017(2) 0.024(2) 0.043(3) -0.005(2) 0.013(2) -0.0014(19)
Gd1 0.01092(13) 0.01535(13) 0.01831(14) -0.00057(8) 0.00407(9) 0.00084(7)
N1 0.0148(18) 0.0193(19) 0.032(2) -0.0061(17) 0.0095(16) -0.0014(15)
N2 0.0132(18) 0.0190(19) 0.037(2) -0.0035(17) 0.0110(17) -0.0038(14)
O1 0.0310(18) 0.0226(16) 0.0213(17) 0.0009(14) 0.0100(14) -0.0024(13)
O2 0.0218(16) 0.0178(15) 0.0238(17) -0.0038(13) 0.0051(14) -0.0059(12)
O3 0.0317(18) 0.0185(15) 0.0315(19) -0.0016(14) 0.0160(15) -0.0075(14)
O4 0.0298(18) 0.0257(17) 0.0233(18) -0.0066(14) 0.0124(14) -0.0040(14)
O5 0.0115(15) 0.0273(16) 0.0305(18) -0.0043(14) 0.0077(13) -0.0016(12)
O6 0.0140(15) 0.0174(15) 0.0293(18) -0.0020(13) 0.0065(13) -0.0021(12)
O7 0.0139(15) 0.0304(17) 0.0271(18) -0.0014(14) 0.0063(13) 0.0004(13)
O8 0.0202(16) 0.0269(17) 0.0284(18) -0.0074(15) 0.0081(14) -0.0071(13)
O12 0.040(2) 0.0265(17) 0.0276(19) -0.0063(15) -0.0087(16) 0.0136(16)
O13 0.0192(17) 0.042(2) 0.036(2) -0.0063(17) 0.0064(15) 0.0017(15)
Zn1 0.0155(3) 0.0184(3) 0.0316(3) -0.0016(2) 0.0048(2) 0.0040(2)
Gd1B 0.01092 0.01535 0.01831 -0.00057 0.00407 0.00084
Gd1C 0.01092 0.01535 0.01831 0.00057 0.00407 -0.00084
Gd1A 0.01092 0.01535 0.01831 0.00057 0.00407 -0.00084
N2A 0.0132 0.019 0.037 0.0035 0.011 0.0038
O3B 0.0317 0.0185 0.0315 -0.0016 0.016 -0.0075
O4C 0.0298 0.0257 0.0233 0.0066 0.0124 0.004
O5A 0.0115 0.0273 0.0305 0.0043 0.0077 0.0016
O6A 0.014 0.0174 0.0293 0.002 0.0065 0.0021
O8A 0.0202 0.0269 0.0284 0.0074 0.0081 0.0071
Zn1A 0.0155 0.0184 0.0316 0.0016 0.0048 -0.004
O9 0.046(3) 0.089(4) 0.044(3) 0.021(2) 0.014(2) 0.008(2)
O10 0.136(5) 0.057(3) 0.084(4) 0.006(3) -0.014(4) -0.035(3)
O11 0.111(6) 0.153(7) 0.161(8) -0.059(7) 0.025(5) 0.010(5)
loop_
_geom_bond_atom_site_label_1
_geom_bond_atom_site_label_2
_geom_bond_site_symmetry_1
_geom_bond_site_symmetry_2
C1 C2 1_555 1_555
C2 H1 1_555 1_555
C3 C2 1_555 1_555
H2 C3 1_555 1_555
C4 C3 1_555 1_555
H3 C4 1_555 1_555
C5 C4 1_555 1_555
C6 C1 1_555 1_555
H4 C6 1_555 1_555
C7 C5 1_555 1_555
C8 C1 1_555 1_555
C9 C10 1_555 1_555
C10 C11 1_555 1_555
C11 C12 1_555 1_555
C12 O7 1_555 1_555
C13 H5 1_555 1_555
Gd1 O1 1_555 1_555
N1 C10 1_555 1_555
N2 C11 1_555 1_555
O1 C7 1_555 1_555
O2 C7 1_555 1_555
O3 C8 1_555 1_555
O4 C8 1_555 1_555
O5 C9 1_555 1_555
O6 C9 1_555 1_555
O7 Gd1 1_555 1_555
O8 C12 1_555 1_555
O9 H6 1_555 1_555
H7 O9 1_555 1_555
O10 H8 1_555 1_555
H9 O10 1_555 1_555
O11 H10 1_555 1_555
H11 O11 1_555 1_555
O12 Gd1 1_555 1_555
H12 O12 1_555 1_555
H13 O12 1_555 1_555
O13 H14 1_555 1_555
H15 O13 1_555 1_555
Zn1 N1 1_555 1_555
Gd1B O3 1_555 1_555
Gd1C O4 1_555 1_555
Gd1A O5 1_555 1_555
N2A Zn1 1_555 1_555
O3B Gd1 1_555 1_555
O4C Gd1 1_555 1_555
O5A Gd1 1_555 1_555
O6A Gd1 1_555 1_555
O8A Zn1 1_555 1_555
Zn1A N2 1_555 1_555
C5 C6 1_555 1_555
C13 N1 1_555 1_555
C13 N2 1_555 1_555
Gd1 O2 1_555 1_555
Gd1 O5 1_555 1_555
O6 Zn1 1_555 1_555
O6 Gd1A 1_555 1_555
O8 Zn1A 1_555 1_555
O13 Zn1 1_555 1_555

#END
