
#######################################################################
#
#                 Cambridge Crystallographic Data Centre
#                                CCDC 
#
#######################################################################
#
# If this CIF has been generated from an entry in the Cambridge 
# Structural Database, then it will include bibliographic, chemical, 
# crystal, experimental, refinement or atomic coordinate data resulting 
# from the CCDC's data processing and validation procedures.
#
#######################################################################

data_CUBKUF
_chemical_formula_moiety         '(C60 H90 Cl6 Cu6 N60 O29 6+)n'
_symmetry_cell_setting           triclinic
_symmetry_space_group_name_H-M   'P -1'
_symmetry_Int_Tables_number      2
_space_group_name_Hall           '-P 1'
loop_
_symmetry_equiv_pos_site_id
_symmetry_equiv_pos_as_xyz
1 x,y,z
2 -x,-y,-z
_cell_length_a                   12.4882(13)
_cell_length_b                   13.1951(13)
_cell_length_c                   19.756(2)
_cell_angle_alpha                78.959(8)
_cell_angle_beta                 84.553(8)
_cell_angle_gamma                63.869(7)
_cell_volume                     2868.41
loop_
_atom_site_label
_atom_site_type_symbol
_atom_site_fract_x
_atom_site_fract_y
_atom_site_fract_z
Cu1 Cu 0.58012(6) 0.56020(6) 0.20913(4)
Cu2 Cu 0.25565(7) 0.77357(7) 0.24882(4)
Cu3 Cu -0.06433(6) 0.99148(6) 0.29175(4)
O1 O 0.6386(4) 0.3679(4) 0.2764(3)
O2 O -0.1439(4) 1.2055(4) 0.2440(3)
N1 N 0.4392(4) 0.5518(4) 0.1754(3)
N2 N 0.3213(4) 0.6275(4) 0.1811(3)
N3 N 0.3329(4) 0.4939(4) 0.1256(3)
N4 N 0.6739(4) 0.5018(4) 0.1246(3)
N5 N 0.7758(5) 0.3994(5) 0.1299(3)
N6 N 0.2373(5) 0.5063(5) -0.0242(3)
N7 N 0.3734(4) 0.8287(4) 0.1988(3)
N8 N 0.4832(4) 0.7606(4) 0.1711(3)
N9 N 0.4565(4) 0.9403(4) 0.1507(3)
N10 N -0.2049(5) 0.9956(4) 0.2500(3)
N11 N -0.1906(5) 0.8969(5) 0.2274(3)
N12 N 0.6235(4) 1.0253(4) 0.2153(3)
N13 N 0.4988(4) 0.5967(4) 0.3034(3)
N14 N 0.3814(4) 0.6678(4) 0.3171(2)
N15 N 0.4722(4) 0.5922(4) 0.4148(3)
N16 N 0.1322(4) 0.8913(4) 0.1836(2)
N17 N 0.0203(4) 0.9719(4) 0.1974(3)
N18 N 0.0514(4) 0.9940(4) 0.0859(3)
N19 N 0.1345(4) 0.7217(4) 0.3016(2)
N20 N 0.0198(4) 0.7967(4) 0.3179(3)
N21 N 0.0384(4) 0.6210(4) 0.3489(3)
N22 N 0.7288(4) 0.5591(4) 0.2393(3)
N23 N 0.7675(5) 0.6402(5) 0.2058(3)
N24 N -0.0986(4) 0.5171(4) 0.2822(3)
N25 N 0.1898(4) 0.9257(4) 0.3190(3)
N26 N 0.0727(4) 0.9936(4) 0.3339(3)
N27 N 0.1843(4) 1.0455(4) 0.3832(2)
N28 N -0.1633(4) 1.0282(4) 0.3790(3)
N29 N -0.2670(5) 1.1285(5) 0.3788(3)
N30 N 0.2650(4) 0.9961(5) 0.5291(3)
C1 C 0.2993(6) 0.4156(5) 0.0983(3)
C2 C 0.1997(6) 0.4724(5) 0.0464(3)
C3 C 0.2598(6) 0.5916(5) 0.1506(3)
C4 C 0.4437(6) 0.4720(5) 0.1426(3)
C5 C 0.8278(6) 0.3985(6) 0.0697(3)
C6 C 0.6678(5) 0.5565(5) 0.0609(3)
C7 C 0.4748(6) 1.0446(6) 0.1319(4)
C8 C 0.4963(5) 1.0823(5) 0.1950(3)
C9 C 0.3599(5) 0.9350(5) 0.1851(3)
C10 C 0.5291(5) 0.8311(5) 0.1424(3)
C11 C -0.2953(5) 0.9167(6) 0.2082(3)
C12 C -0.3157(5) 1.0683(5) 0.2423(3)
C13 C 0.4957(6) 0.5599(5) 0.4885(3)
C14 C 0.3680(5) 0.6633(5) 0.3835(3)
C15 C 0.5513(5) 0.5540(5) 0.3631(3)
C16 C 0.0322(5) 1.0307(5) 0.0126(3)
C17 C -0.0275(5) 1.0317(5) 0.1381(3)
C18 C 0.1485(5) 0.9062(5) 0.1168(3)
C19 C 0.0102(5) 0.5247(5) 0.3792(3)
C20 C 0.0084(5) 0.4580(6) 0.3246(3)
C21 C -0.0347(5) 0.7337(5) 0.3460(3)
C22 C 0.1426(5) 0.6180(5) 0.3210(3)
C23 C 0.8707(6) 0.6120(6) 0.2322(3)
C24 C 0.8116(5) 0.4856(5) 0.2832(3)
C25 C 0.2198(6) 1.1192(5) 0.4136(3)
C26 C 0.3111(6) 1.0518(6) 0.4704(3)
C27 C 0.0715(5) 1.0638(5) 0.3720(3)
C28 C 0.2550(5) 0.9594(5) 0.3486(3)
C29 C -0.3268(6) 1.1102(6) 0.4347(3)
C30 C -0.1646(5) 0.9549(5) 0.4339(3)
H1 H 0.700(4) 0.309(4) 0.281(4)
H2 H 0.593(5) 0.345(6) 0.298(4)
H3 H -0.155(7) 1.235(7) 0.204(2)
H4 H -0.090(6) 1.219(7) 0.252(4)
H5 H 0.27520 0.37060 0.13750
H6 H 0.37070 0.36120 0.07640
H7 H 0.16410 0.41910 0.04480
H8 H 0.13690 0.54140 0.06250
H9 H 0.40370 1.10660 0.10750
H10 H 0.54420 1.03030 0.10000
H11 H 0.46970 1.16630 0.18550
H12 H 0.44760 1.06510 0.23390
H13 H 0.43040 0.61450 0.51400
H14 H 0.57130 0.56150 0.49810
H15 H 0.10970 1.01250 -0.01180
H16 H -0.01660 1.11450 0.00270
H17 H -0.06870 0.55420 0.40250
H18 H 0.07040 0.47260 0.41430
H19 H 0.07950 0.44430 0.29430
H20 H 0.01340 0.38250 0.34770
H21 H 0.25390 1.15950 0.37700
H22 H 0.14830 1.17780 0.43290
H23 H 0.33650 1.10430 0.48660
H24 H 0.38220 0.99280 0.45110
H25 H 0.17540 0.62840 0.14640
H26 H 0.51460 0.40850 0.13240
H27 H 0.90170 0.33910 0.05890
H28 H 0.60600 0.62890 0.04350
H29 H 0.29190 0.99900 0.19750
H30 H 0.60370 0.80850 0.11870
H31 H -0.31330 0.86310 0.19150
H32 H -0.34900 1.14250 0.25450
H33 H 0.29550 0.70420 0.40650
H34 H 0.63340 0.50320 0.36950
H35 H -0.10560 1.09230 0.13240
H36 H 0.21870 0.86160 0.09330
H37 H -0.11500 0.76320 0.36210
H38 H 0.21230 0.54990 0.31600
H39 H 0.91830 0.65220 0.21840
H40 H 0.80890 0.41990 0.31150
H41 H 0.00160 1.12000 0.38960
H42 H 0.33960 0.92800 0.34630
H43 H -0.40280 1.16410 0.44780
H44 H -0.10430 0.87910 0.44580
C5A C 0.1722(6) 0.6015(6) -0.0697(3)
C6A C 0.3322(5) 0.4435(5) -0.0609(3)
C11_2 C 0.7047(5) 0.9167(6) 0.2082(3)
C12_2 C 0.6843(5) 1.0683(5) 0.2423(3)
C23_2 C -0.1293(6) 0.6120(6) 0.2322(3)
C24_2 C -0.1884(5) 0.4856(5) 0.2832(3)
C29A C 0.3268(6) 0.8898(6) 0.5653(3)
C30A C 0.1646(5) 1.0451(5) 0.5661(3)
N6A N 0.7627(5) 0.4937(5) 0.0242(3)
N12_2 N -0.3765(4) 1.0253(4) 0.2153(3)
C13A C 0.5043(6) 0.4401(5) 0.5115(3)
C16A C -0.0322(5) 0.9693(5) -0.0126(3)
N24_2 N 0.9014(4) 0.5171(4) 0.2822(3)
N30A N -0.2650(4) 1.0039(5) 0.4709(3)
N10_2 N 0.7951(5) 0.9956(4) 0.2500(3)
H32_2 H 0.65100 1.14250 0.25450
N4A N 0.3261(4) 0.4982(4) -0.1246(3)
H28A H 0.39400 0.37110 -0.04350
N22_2 N -0.2712(4) 0.5591(4) 0.2393(3)
H40_2 H -0.19110 0.41990 0.31150
C8_2 C -0.5037(5) 1.0823(5) 0.1950(3)
N5A N 0.2242(5) 0.6006(5) -0.1299(3)
H27A H 0.09830 0.66090 -0.05890
N11_2 N 0.8094(5) 0.8969(5) 0.2274(3)
H31_2 H 0.68670 0.86310 0.19150
N23_2 N -0.2325(5) 0.6402(5) 0.2058(3)
H39_2 H -0.08170 0.65220 0.21840
N29A N 0.2670(5) 0.8715(5) 0.6212(3)
H43A H 0.40280 0.83590 0.55220
N28A N 0.1633(4) 0.9718(4) 0.6210(3)
H44A H 0.10430 1.12090 0.55420
C2A C 0.8003(6) 0.5276(5) -0.0464(3)
C20_2 C 1.0084(5) 0.4580(6) 0.3246(3)
C26A C -0.3111(6) 0.9482(6) 0.5296(3)
Cu3_2 Cu 0.93567(6) 0.99148(6) 0.29175(4)
Cu1A Cu 0.41988(6) 0.43980(6) -0.20913(4)
Cu1_2 Cu -0.41988(6) 0.56020(6) 0.20913(4)
C7_2 C -0.5252(6) 1.0446(6) 0.1319(4)
H11_2 H -0.53030 1.16630 0.18550
H12_2 H -0.55240 1.06510 0.23390
Cu3A Cu 0.06433(6) 1.00852(6) 0.70825(4)
C1A C 0.7007(6) 0.5844(5) -0.0983(3)
H7A H 0.83590 0.58090 -0.04480
H8A H 0.86310 0.45860 -0.06250
C19_2 C 1.0102(5) 0.5247(5) 0.3792(3)
H19_2 H 1.07950 0.44430 0.29430
H20_2 H 1.01340 0.38250 0.34770
C25A C -0.2198(6) 0.8808(5) 0.5864(3)
H23A H -0.33650 0.89570 0.51340
H24A H -0.38220 1.00720 0.54890
N9_2 N -0.5435(4) 0.9403(4) 0.1507(3)
H9_2 H -0.59630 1.10660 0.10750
H10_2 H -0.45580 1.03030 0.10000
N3A N 0.6671(4) 0.5061(4) -0.1256(3)
H5A H 0.72480 0.62940 -0.13750
H6A H 0.62930 0.63880 -0.07640
N21_2 N 1.0384(4) 0.6210(4) 0.3489(3)
H17_2 H 0.93130 0.55420 0.40250
H18_2 H 1.07040 0.47260 0.41430
N27A N -0.1843(4) 0.9545(4) 0.6168(2)
H21A H -0.25390 0.84050 0.62300
H22A H -0.14830 0.82220 0.56710
C9_2 C -0.6401(5) 0.9350(5) 0.1851(3)
C10_2 C -0.4709(5) 0.8311(5) 0.1424(3)
C3A C 0.7402(6) 0.4084(5) -0.1506(3)
C4A C 0.5563(6) 0.5280(5) -0.1426(3)
C21_2 C 0.9653(5) 0.7337(5) 0.3460(3)
C22_2 C 1.1426(5) 0.6180(5) 0.3210(3)
C27A C -0.0715(5) 0.9362(5) 0.6280(3)
C28A C -0.2550(5) 1.0406(5) 0.6514(3)
N7_2 N -0.6266(4) 0.8287(4) 0.1988(3)
H29_2 H -0.70810 0.99900 0.19750
N8_2 N -0.5168(4) 0.7606(4) 0.1711(3)
H30_2 H -0.39630 0.80850 0.11870
N2A N 0.6787(4) 0.3725(4) -0.1811(3)
H25A H 0.82460 0.37160 -0.14640
N1A N 0.5608(4) 0.4482(4) -0.1754(3)
H26A H 0.48540 0.59150 -0.13240
N20_2 N 1.0198(4) 0.7967(4) 0.3179(3)
H37_2 H 0.88500 0.76320 0.36210
N19_2 N 1.1345(4) 0.7217(4) 0.3016(2)
H38_2 H 1.21230 0.54990 0.31600
N26A N -0.0727(4) 1.0064(4) 0.6661(3)
H41A H -0.00160 0.88000 0.61040
N25A N -0.1898(4) 1.0743(4) 0.6810(3)
H42A H -0.33960 1.07200 0.65370
Cu2_2 Cu -0.74435(7) 0.77357(7) 0.24882(4)
Cu2A Cu 0.74435(7) 0.22643(7) -0.24882(4)
Cu2_3 Cu 1.25565(7) 0.77357(7) 0.24882(4)
Cu2A_2 Cu -0.25565(7) 1.22643(7) 0.75118(4)
N18A N -0.0514(4) 1.0060(4) -0.0859(3)
H15A H -0.10970 0.98750 0.01180
H16A H 0.01660 0.88550 -0.00270
C17A C 0.0275(5) 0.9683(5) -0.1381(3)
C18A C -0.1485(5) 1.0938(5) -0.1168(3)
N17A N -0.0203(4) 1.0281(4) -0.1974(3)
H35A H 0.10560 0.90770 -0.13240
N16A N -0.1322(4) 1.1087(4) -0.1836(2)
H36A H -0.21870 1.13840 -0.09330
Cu3A_2 Cu 0.06433(6) 1.00852(6) -0.29175(4)
Cu2A_3 Cu -0.25565(7) 1.22643(7) -0.24882(4)
N15A N 0.5278(4) 0.4078(4) 0.5852(3)
H13A H 0.56960 0.38550 0.48600
H14A H 0.42870 0.43850 0.50190
C14A C 0.6320(5) 0.3367(5) 0.6165(3)
C15A C 0.4487(5) 0.4460(5) 0.6369(3)
N14A N 0.6186(4) 0.3322(4) 0.6829(2)
H33A H 0.70450 0.29580 0.59350
N13A N 0.5012(4) 0.4033(4) 0.6966(3)
H34A H 0.36660 0.49680 0.63050
Cu2A_4 Cu 0.74435(7) 0.22643(7) 0.75118(4)
Cu1A_2 Cu 0.41988(6) 0.43980(6) 0.79087(4)
O2_2 O 0.8561(4) 1.2055(4) 0.2440(3)
N17_2 N 1.0203(4) 0.9719(4) 0.1974(3)
N26_2 N 1.0727(4) 0.9936(4) 0.3339(3)
N28_2 N 0.8367(4) 1.0282(4) 0.3790(3)
O1_2 O -0.3614(4) 0.3679(4) 0.2764(3)
N1_2 N -0.5608(4) 0.5518(4) 0.1754(3)
N4_2 N -0.3261(4) 0.5018(4) 0.1246(3)
N13_2 N -0.5012(4) 0.5967(4) 0.3034(3)
N7A N 0.6266(4) 0.1713(4) -0.1988(3)
N14A_2 N 0.6186(4) 0.3322(4) -0.3171(2)
N16A_2 N 0.8678(4) 0.1087(4) -0.1836(2)
N19A N 0.8655(4) 0.2783(4) -0.3016(2)
N25A_2 N 0.8102(4) 0.0743(4) -0.3190(3)
H3_2 H 0.845(7) 1.235(7) 0.204(2)
H4_2 H 0.910(6) 1.219(7) 0.252(4)
H1_2 H -0.300(4) 0.309(4) 0.281(4)
H2_2 H -0.407(5) 0.345(6) 0.298(4)
Cl1 Cl 0.78058(14) 0.82265(14) 0.00408(8)
O3 O 0.7044(5) 0.7691(4) -0.0024(3)
O4 O 0.7603(4) 0.9158(4) -0.0518(2)
O5 O 0.9035(4) 0.7403(5) 0.0056(3)
O6 O 0.7533(4) 0.8672(4) 0.0689(2)
Cl2 Cl 0.38111(15) 0.31169(15) 0.34291(10)
O7 O 0.4523(5) 0.3537(5) 0.3717(3)
O8 O 0.2739(5) 0.3363(5) 0.3850(4)
O9 O 0.3465(7) 0.3727(6) 0.2752(3)
O10 O 0.4419(5) 0.1914(4) 0.3448(3)
Cl3 Cl 0.11020(14) 0.25642(14) 0.20235(9)
O11 O 0.0487(5) 0.2516(4) 0.2681(2)
O12 O 0.2360(5) 0.1995(5) 0.2127(4)
O13 O 0.0759(6) 0.2004(6) 0.1593(3)
O14 O 0.0766(5) 0.3733(5) 0.1723(3)
Cl4 Cl 0.12610(15) 0.68725(15) 0.51522(9)
O15 O 0.1349(7) 0.6980(6) 0.5850(3)
O16 O 0.0135(5) 0.6844(5) 0.5081(3)
O17 O 0.2205(6) 0.5859(5) 0.4987(4)
O18 O 0.1298(5) 0.7855(5) 0.4699(3)
Cl5 Cl 0.38868(14) 0.20110(14) 0.62077(8)
O19 O 0.3318(5) 0.1284(5) 0.6177(3)
O20 O 0.4666(5) 0.1993(5) 0.5616(3)
O21 O 0.2999(5) 0.3164(5) 0.6213(3)
O22 O 0.4589(4) 0.1597(5) 0.6823(3)
Cl6 Cl 0.65021(15) 0.24917(14) 0.03068(9)
O23 O 0.6070(6) 0.1967(6) -0.0104(4)
O24 O 0.7739(5) 0.2144(5) 0.0159(4)
O25 O 0.5876(5) 0.3706(4) 0.0132(3)
O26 O 0.6329(7) 0.2175(5) 0.1025(3)
O27 O 0.0045(4) 0.2372(4) 0.8625(3)
H45 H 0.048(5) 0.231(6) 0.893(3)
H46 H 0.054(5) 0.192(6) 0.840(3)
loop_
_geom_bond_atom_site_label_1
_geom_bond_atom_site_label_2
_geom_bond_site_symmetry_1
_geom_bond_site_symmetry_2
Cu1 O1 1_555 1_555
Cu2 N2 1_555 1_555
Cu3 O2 1_555 1_555
O1 H1 1_555 1_555
O2 H3 1_555 1_555
N1 Cu1 1_555 1_555
N2 N1 1_555 1_555
N3 C1 1_555 1_555
N4 Cu1 1_555 1_555
N5 N4 1_555 1_555
N6 C2 1_555 1_555
N7 Cu2 1_555 1_555
N8 Cu1 1_555 1_555
N9 C7 1_555 1_555
N10 Cu3 1_555 1_555
N11 N10 1_555 1_555
N12 C8 1_555 1_555
N13 Cu1 1_555 1_555
N14 Cu2 1_555 1_555
N15 C13 1_555 1_555
N16 Cu2 1_555 1_555
N17 Cu3 1_555 1_555
N18 C16 1_555 1_555
N19 Cu2 1_555 1_555
N20 Cu3 1_555 1_555
N21 C19 1_555 1_555
N22 Cu1 1_555 1_555
N23 N22 1_555 1_555
N24 C20 1_555 1_555
N25 Cu2 1_555 1_555
N26 Cu3 1_555 1_555
N27 C25 1_555 1_555
N28 Cu3 1_555 1_555
N29 N28 1_555 1_555
N30 C26 1_555 1_555
C1 C2 1_555 1_555
C2 H7 1_555 1_555
C3 N2 1_555 1_555
C4 N1 1_555 1_555
C5 N5 1_555 1_555
C6 N4 1_555 1_555
C7 C8 1_555 1_555
C8 H11 1_555 1_555
C9 N7 1_555 1_555
C10 N8 1_555 1_555
C11 N11 1_555 1_555
C12 N10 1_555 1_555
C13 H13 1_555 1_555
C14 N14 1_555 1_555
C15 N13 1_555 1_555
C16 H15 1_555 1_555
C17 N17 1_555 1_555
C18 N16 1_555 1_555
C19 C20 1_555 1_555
C20 H19 1_555 1_555
C21 N20 1_555 1_555
C22 N19 1_555 1_555
C23 N23 1_555 1_555
C24 N22 1_555 1_555
C25 C26 1_555 1_555
C26 H23 1_555 1_555
C27 N26 1_555 1_555
C28 N25 1_555 1_555
C29 N29 1_555 1_555
C30 N28 1_555 1_555
H2 O1 1_555 1_555
H4 O2 1_555 1_555
H5 C1 1_555 1_555
H6 C1 1_555 1_555
H8 C2 1_555 1_555
H9 C7 1_555 1_555
H10 C7 1_555 1_555
H12 C8 1_555 1_555
H14 C13 1_555 1_555
H16 C16 1_555 1_555
H17 C19 1_555 1_555
H18 C19 1_555 1_555
H20 C20 1_555 1_555
H21 C25 1_555 1_555
H22 C25 1_555 1_555
H24 C26 1_555 1_555
H25 C3 1_555 1_555
H26 C4 1_555 1_555
H27 C5 1_555 1_555
H28 C6 1_555 1_555
H29 C9 1_555 1_555
H30 C10 1_555 1_555
H31 C11 1_555 1_555
H32 C12 1_555 1_555
H33 C14 1_555 1_555
H34 C15 1_555 1_555
H35 C17 1_555 1_555
H36 C18 1_555 1_555
H37 C21 1_555 1_555
H38 C22 1_555 1_555
H39 C23 1_555 1_555
H40 C24 1_555 1_555
H41 C27 1_555 1_555
H42 C28 1_555 1_555
H43 C29 1_555 1_555
H44 C30 1_555 1_555
Cl1 O3 1_555 1_555
O4 Cl1 1_555 1_555
O5 Cl1 1_555 1_555
O6 Cl1 1_555 1_555
Cl2 O7 1_555 1_555
O8 Cl2 1_555 1_555
O9 Cl2 1_555 1_555
O10 Cl2 1_555 1_555
Cl3 O11 1_555 1_555
O12 Cl3 1_555 1_555
O13 Cl3 1_555 1_555
O14 Cl3 1_555 1_555
Cl4 O15 1_555 1_555
O16 Cl4 1_555 1_555
O17 Cl4 1_555 1_555
O18 Cl4 1_555 1_555
Cl5 O19 1_555 1_555
O20 Cl5 1_555 1_555
O21 Cl5 1_555 1_555
O22 Cl5 1_555 1_555
Cl6 O23 1_555 1_555
O24 Cl6 1_555 1_555
O25 Cl6 1_555 1_555
O26 Cl6 1_555 1_555
O27 H45 1_555 1_555
H46 O27 1_555 1_555
C5A N6 1_555 1_555
C6A N6 1_555 1_555
C11_2 N12 1_555 1_555
C12_2 N12 1_555 1_555
C23_2 N24 1_555 1_555
C24_2 N24 1_555 1_555
C29A N30 1_555 1_555
C30A N30 1_555 1_555
N6A C5 1_555 1_555
N12_2 C11 1_555 1_555
C13A C13 1_555 1_555
C16A C16 1_555 1_555
N24_2 C23 1_555 1_555
N30A C29 1_555 1_555
N10_2 C12_2 1_555 1_555
H32_2 C12_2 1_555 1_555
N4A C6A 1_555 1_555
H28A C6A 1_555 1_555
N22_2 C24_2 1_555 1_555
H40_2 C24_2 1_555 1_555
C8_2 N12_2 1_555 1_555
N5A C5A 1_555 1_555
H27A C5A 1_555 1_555
N11_2 C11_2 1_555 1_555
H31_2 C11_2 1_555 1_555
N23_2 C23_2 1_555 1_555
H39_2 C23_2 1_555 1_555
N29A C29A 1_555 1_555
H43A C29A 1_555 1_555
N28A C30A 1_555 1_555
H44A C30A 1_555 1_555
C2A N6A 1_555 1_555
C20_2 N24_2 1_555 1_555
C26A N30A 1_555 1_555
Cu3_2 N10_2 1_555 1_555
Cu1A N4A 1_555 1_555
Cu1_2 N22_2 1_555 1_555
C7_2 C8_2 1_555 1_555
H11_2 C8_2 1_555 1_555
H12_2 C8_2 1_555 1_555
Cu3A N28A 1_555 1_555
C1A C2A 1_555 1_555
H7A C2A 1_555 1_555
H8A C2A 1_555 1_555
C19_2 C20_2 1_555 1_555
H19_2 C20_2 1_555 1_555
H20_2 C20_2 1_555 1_555
C25A C26A 1_555 1_555
H23A C26A 1_555 1_555
H24A C26A 1_555 1_555
N9_2 C7_2 1_555 1_555
H9_2 C7_2 1_555 1_555
H10_2 C7_2 1_555 1_555
N3A C1A 1_555 1_555
H5A C1A 1_555 1_555
H6A C1A 1_555 1_555
N21_2 C19_2 1_555 1_555
H17_2 C19_2 1_555 1_555
H18_2 C19_2 1_555 1_555
N27A C25A 1_555 1_555
H21A C25A 1_555 1_555
H22A C25A 1_555 1_555
C9_2 N9_2 1_555 1_555
C10_2 N9_2 1_555 1_555
C3A N3A 1_555 1_555
C4A N3A 1_555 1_555
C21_2 N21_2 1_555 1_555
C22_2 N21_2 1_555 1_555
C27A N27A 1_555 1_555
C28A N27A 1_555 1_555
N7_2 C9_2 1_555 1_555
H29_2 C9_2 1_555 1_555
N8_2 Cu1_2 1_555 1_555
H30_2 C10_2 1_555 1_555
N2A C3A 1_555 1_555
H25A C3A 1_555 1_555
N1A Cu1A 1_555 1_555
H26A C4A 1_555 1_555
N20_2 Cu3_2 1_555 1_555
H37_2 C21_2 1_555 1_555
N19_2 C22_2 1_555 1_555
H38_2 C22_2 1_555 1_555
N26A Cu3A 1_555 1_555
H41A C27A 1_555 1_555
N25A C28A 1_555 1_555
H42A C28A 1_555 1_555
Cu2_2 N7_2 1_555 1_555
Cu2A N2A 1_555 1_555
Cu2_3 N19_2 1_555 1_555
Cu2A_2 N25A 1_555 1_555
N18A C16A 1_555 1_555
H15A C16A 1_555 1_555
H16A C16A 1_555 1_555
C17A N18A 1_555 1_555
C18A N18A 1_555 1_555
N17A C17A 1_555 1_555
H35A C17A 1_555 1_555
N16A C18A 1_555 1_555
H36A C18A 1_555 1_555
Cu3A_2 N17A 1_555 1_555
Cu2A_3 N16A 1_555 1_555
N15A C13A 1_555 1_555
H13A C13A 1_555 1_555
H14A C13A 1_555 1_555
C14A N15A 1_555 1_555
C15A N15A 1_555 1_555
N14A C14A 1_555 1_555
H33A C14A 1_555 1_555
N13A C15A 1_555 1_555
H34A C15A 1_555 1_555
Cu2A_4 N14A 1_555 1_555
Cu1A_2 N13A 1_555 1_555
O2_2 Cu3_2 1_555 1_555
N17_2 Cu3_2 1_555 1_555
N26_2 Cu3_2 1_555 1_555
N28_2 Cu3_2 1_555 1_555
O1_2 Cu1_2 1_555 1_555
N1_2 Cu1_2 1_555 1_555
N4_2 Cu1_2 1_555 1_555
N13_2 Cu1_2 1_555 1_555
N7A Cu2A 1_555 1_555
N14A_2 Cu2A 1_555 1_555
N16A_2 Cu2A 1_555 1_555
N19A Cu2A 1_555 1_555
N25A_2 Cu2A 1_555 1_555
H3_2 O2_2 1_555 1_555
H4_2 O2_2 1_555 1_555
H1_2 O1_2 1_555 1_555
H2_2 O1_2 1_555 1_555
N3 C3 1_555 1_555
N3 C4 1_555 1_555
N7 N8 1_555 1_555
N9 C9 1_555 1_555
N9 C10 1_555 1_555
N13 N14 1_555 1_555
N15 C14 1_555 1_555
N15 C15 1_555 1_555
N16 N17 1_555 1_555
N18 C17 1_555 1_555
N18 C18 1_555 1_555
N19 N20 1_555 1_555
N21 C21 1_555 1_555
N21 C22 1_555 1_555
N25 N26 1_555 1_555
N27 C27 1_555 1_555
N27 C28 1_555 1_555
C6 N6A 1_555 1_555
C12 N12_2 1_555 1_555
C24 N24_2 1_555 1_555
C30 N30A 1_555 1_555
N10_2 N11_2 1_555 1_555
N4A N5A 1_555 1_555
N22_2 N23_2 1_555 1_555
N29A N28A 1_555 1_555
C10_2 N8_2 1_555 1_555
C4A N1A 1_555 1_555
C21_2 N20_2 1_555 1_555
C27A N26A 1_555 1_555
N7_2 N8_2 1_555 1_555
N2A N1A 1_555 1_555
N20_2 N19_2 1_555 1_555
N26A N25A 1_555 1_555
N17A N16A 1_555 1_555
N14A N13A 1_555 1_555

#END
