
#######################################################################
#
#                 Cambridge Crystallographic Data Centre
#                                CCDC 
#
#######################################################################
#
# If this CIF has been generated from an entry in the Cambridge 
# Structural Database, then it will include bibliographic, chemical, 
# crystal, experimental, refinement or atomic coordinate data resulting 
# from the CCDC's data processing and validation procedures.
#
#######################################################################

data_RUDPOW
_chemical_formula_moiety         '(C25 H19 Ag10 F24 N1 O24)n'
_symmetry_cell_setting           monoclinic
_symmetry_space_group_name_H-M   'C 2/c'
_symmetry_Int_Tables_number      15
_space_group_name_Hall           '-C 2yc'
loop_
_symmetry_equiv_pos_site_id
_symmetry_equiv_pos_as_xyz
1 x,y,z
2 -x,y,1/2-z
3 1/2+x,1/2+y,z
4 1/2-x,1/2+y,1/2-z
5 -x,-y,-z
6 x,-y,1/2+z
7 1/2-x,1/2-y,-z
8 1/2+x,1/2-y,1/2+z
_cell_length_a                   18.4365(15)
_cell_length_b                   16.7553(13)
_cell_length_c                   20.2441(16)
_cell_angle_alpha                90
_cell_angle_beta                 114.322(3)
_cell_angle_gamma                90
_cell_volume                     5698.55
loop_
_atom_site_label
_atom_site_type_symbol
_atom_site_fract_x
_atom_site_fract_y
_atom_site_fract_z
_atom_site_U_iso_or_equiv
_atom_site_thermal_displace_type
Ag1 Ag 0.01880(3) 0.10457(2) 0.51264(3) 0.0499 Uani
Ag2 Ag 0.17649(3) 0.14670(3) 0.53683(2) 0.0540 Uani
Ag3 Ag 0.04207(3) 0.26572(3) 0.49238(3) 0.0569 Uani
Ag4 Ag 0.13893(3) 0.25378(3) 0.40595(3) 0.0538 Uani
Ag5 Ag 0.0000 0.2650(3) 0.2500 0.0508 Uani
N1 N 0.0000 0.1308(3) 0.2500 0.0370 Uani
C1 C 0.0671(3) 0.1623(3) 0.4375(3) 0.0432 Uani
C2 C 0.0488(3) 0.1344(3) 0.3780(3) 0.0404 Uani
C3 C 0.0231(3) 0.0892(3) 0.3115(3) 0.0410 Uani
C4 C 0.0249(4) 0.0066(3) 0.3141(3) 0.0600 Uani
H1 H 0.0425 -0.0202 0.3582 0.0720 Uiso
C5 C 0.0000 -0.0347(5) 0.2500 0.0769 Uani
H2 H 0.0000 -0.0902 0.2500 0.0920 Uiso
O1 O 0.2902(2) 0.1505(3) 0.4986(2) 0.0593 Uani
O2 O 0.3888(3) 0.1159(2) 0.4684(3) 0.0660 Uani
C6 C 0.3221(4) 0.1095(4) 0.4674(3) 0.0529 Uani
C7 C 0.2685(17) 0.0463(18) 0.4185(15) 0.0998 Uani
F1 F 0.3085(15) -0.0035(15) 0.3942(13) 0.1533 Uani
F2 F 0.2115(10) 0.0778(14) 0.3605(10) 0.1180 Uani
F3 F 0.2345(17) 0.0023(15) 0.4521(16) 0.1727 Uani
O3 O -0.0476(3) 0.1476(3) 0.5761(3) 0.0840 Uani
O4 O -0.0336(3) 0.2767(3) 0.5594(3) 0.0768 Uani
C8 C -0.0599(5) 0.2182(4) 0.5798(4) 0.0696 Uani
C9 C -0.1142(6) 0.2382(5) 0.6186(6) 0.1239 Uani
F4 F -0.104(2) 0.192(2) 0.6717(19) 0.1899 Uani
F5 F -0.1870(12) 0.234(3) 0.5753(14) 0.2641 Uani
F6 F -0.104(3) 0.3085(15) 0.646(2) 0.2463 Uani
O5 O 0.0832(2) -0.0124(2) 0.5671(3) 0.0634 Uani
O6 O 0.2090(2) 0.0242(3) 0.5980(3) 0.0624 Uani
C10 C 0.1552(3) -0.0219(3) 0.5964(4) 0.0530 Uani
C11 C 0.1835(4) -0.1000(4) 0.6400(5) 0.0814 Uani
F7 F 0.1432(11) -0.1253(14) 0.6704(17) 0.1789 Uani
F8 F 0.2526(10) -0.0974(15) 0.6875(12) 0.1239 Uani
F9 F 0.187(2) -0.1555(12) 0.5992(10) 0.1963 Uani
O7 O 0.3598(3) 0.2035(3) 0.7527(2) 0.0718 Uani
O8 O 0.2733(2) 0.2085(3) 0.6385(2) 0.0559 Uani
C12 C 0.2936(4) 0.1998(4) 0.7045(3) 0.0507 Uani
C13 C 0.2250(4) 0.1846(5) 0.7279(4) 0.0774 Uani
F10 F 0.1602(7) 0.1651(10) 0.6772(6) 0.0916 Uani
F11 F 0.2118(14) 0.2459(12) 0.7580(17) 0.2203 Uani
F12 F 0.2429(10) 0.1270(17) 0.7740(13) 0.2268 Uani
O9 O 0.0372(3) 0.3672(3) 0.3406(3) 0.0740 Uani
O11 O -0.0796(3) 0.3424(4) 0.4021(3) 0.0873 Uani
Ag1A Ag -0.01880(3) 0.10457(2) -0.01264(3) 0.0499 Uani
Ag1D Ag -0.01880(3) -0.10457(2) 0.48736(3) 0.0499 Uani
Ag2A Ag -0.17649(3) 0.14670(3) -0.03683(2) 0.0540 Uani
Ag2D Ag -0.17649(3) -0.14670(3) 0.46317(2) 0.0540 Uani
Ag2F Ag 0.32351(3) 0.35330(3) 0.46317(2) 0.0540 Uani
Ag3A Ag -0.04207(3) 0.26572(3) 0.00762(3) 0.0569 Uani
Ag3F Ag 0.45793(3) 0.23428(3) 0.50762(3) 0.0569 Uani
Ag4A Ag -0.13893(3) 0.25378(3) 0.09405(3) 0.0538 Uani
Ag4F Ag 0.36107(3) 0.24622(3) 0.59405(3) 0.0538 Uani
C1A C -0.0671(3) 0.1623(3) 0.0625(3) 0.0432 Uani
C2A C -0.0488(3) 0.1344(3) 0.1220(3) 0.0404 Uani
C3A C -0.0231(3) 0.0892(3) 0.1885(3) 0.0410 Uani
C4A C -0.0249(4) 0.0066(3) 0.1859(3) 0.0600 Uani
H1A H -0.0425 -0.0202 0.1418 0.0720 Uiso
O1F O 0.2098(2) 0.3495(3) 0.5014(2) 0.0593 Uani
O1A O -0.2902(2) 0.1505(3) 0.0014(2) 0.0593 Uani
O1G O -0.2098(2) 0.3495(3) -0.0014(2) 0.0593 Uani
O2F O 0.1112(3) 0.3841(2) 0.5316(3) 0.0660 Uani
O2G O -0.1112(3) 0.3841(2) -0.0316(3) 0.0660 Uani
C6F C 0.1779(4) 0.3905(4) 0.5326(3) 0.0529 Uani
C7F C 0.2315(17) 0.4537(18) 0.5815(15) 0.0998 Uani
F1F F 0.1915(15) 0.5035(15) 0.6058(13) 0.1533 Uani
F2F F 0.2885(10) 0.4222(14) 0.6395(10) 0.1180 Uani
F3F F 0.2655(17) 0.4977(15) 0.5479(16) 0.1727 Uani
O3A O 0.0476(3) 0.1476(3) -0.0761(3) 0.0840 Uani
O4A O 0.0336(3) 0.2767(3) -0.0594(3) 0.0768 Uani
C8A C 0.0599(5) 0.2182(4) -0.0798(4) 0.0696 Uani
C9A C 0.1142(6) 0.2382(5) -0.1186(6) 0.1239 Uani
F4A F 0.104(2) 0.192(2) -0.1717(19) 0.1899 Uani
F5A F 0.1870(12) 0.234(3) -0.0753(14) 0.2641 Uani
F6A F 0.104(3) 0.3085(15) -0.146(2) 0.2463 Uani
O5D O -0.0832(2) 0.0124(2) 0.4329(3) 0.0634 Uani
O5A O -0.0832(2) -0.0124(2) -0.0671(3) 0.0634 Uani
O5E O 0.0832(2) 0.0124(2) 0.0671(3) 0.0634 Uani
O6D O -0.2090(2) -0.0242(3) 0.4020(3) 0.0624 Uani
O6A O -0.2090(2) 0.0242(3) -0.0980(3) 0.0624 Uani
C10D C -0.1552(3) 0.0219(3) 0.4036(4) 0.0530 Uani
C11D C -0.1835(4) 0.1000(4) 0.3600(5) 0.0814 Uani
F7D F -0.1432(11) 0.1253(14) 0.3296(17) 0.1789 Uani
F8D F -0.2526(10) 0.0974(15) 0.3125(12) 0.1239 Uani
F9D F -0.187(2) 0.1555(12) 0.4008(10) 0.1963 Uani
O7F O 0.1402(3) 0.2965(3) 0.2473(2) 0.0718 Uani
O8F O 0.2267(2) 0.2915(3) 0.3615(2) 0.0559 Uani
O8A O -0.2733(2) 0.2085(3) -0.1385(2) 0.0559 Uani
O8G O -0.2267(2) 0.2915(3) 0.1385(2) 0.0559 Uani
C12F C 0.2064(4) 0.3002(4) 0.2955(3) 0.0507 Uani
C13F C 0.2750(4) 0.3154(5) 0.2721(4) 0.0774 Uani
F10F F 0.3398(7) 0.3349(10) 0.3228(6) 0.0916 Uani
F11F F 0.2882(14) 0.2541(12) 0.2420(17) 0.2203 Uani
F12F F 0.2571(10) 0.3730(17) 0.2260(13) 0.2268 Uani
O9A O -0.0372(3) 0.3672(3) 0.1594(3) 0.0740 Uani
O11A O 0.0796(3) 0.3424(4) 0.0979(3) 0.0873 Uani
Ag7 Ag 0.0000 0.5000 0.5000 0.1338 Uani
O10 O -0.0354(5) 0.4365(4) 0.5800(4) 0.1182 Uani
O10D O 0.0354(5) 0.5635(4) 0.4200(4) 0.1182 Uani
O12 O 0.1260(3) 0.4974(3) 0.3497(4) 0.0911 Uani
O13 O 0.0903(8) 0.4725(14) 0.7036(8) 0.3401 Uani
loop_
_atom_site_aniso_label
_atom_site_aniso_U_11
_atom_site_aniso_U_22
_atom_site_aniso_U_33
_atom_site_aniso_U_23
_atom_site_aniso_U_13
_atom_site_aniso_U_12
Ag1 0.0477(2) 0.0442(2) 0.0648(3) 0.00400(19) 0.0302(2) -0.00475(17)
Ag2 0.0370(2) 0.0693(3) 0.0475(2) 0.0089(2) 0.00921(19) -0.01037(19)
Ag3 0.0709(3) 0.0422(2) 0.0734(3) -0.0037(2) 0.0456(3) -0.0022(2)
Ag4 0.0552(3) 0.0612(3) 0.0494(3) -0.0009(2) 0.0260(2) -0.0200(2)
Ag5 0.057(4) 0.0369(8) 0.0530(9) 0.000 0.017(3) 0.000
N1 0.037(3) 0.037(3) 0.036(3) 0.000 0.014(3) 0.000
C1 0.044(3) 0.047(3) 0.042(3) -0.002(2) 0.021(2) -0.008(2)
C2 0.038(3) 0.042(3) 0.040(3) 0.003(2) 0.015(2) -0.002(2)
C3 0.042(3) 0.044(3) 0.036(3) 0.002(2) 0.015(2) -0.004(2)
C4 0.089(5) 0.036(3) 0.047(3) 0.007(2) 0.020(3) -0.002(3)
C5 0.109(9) 0.035(4) 0.061(6) 0.000 0.009(6) 0.000
O1 0.048 0.065 0.072 -0.018 0.032 -0.011
O2 0.057 0.053 0.102 -0.019 0.047 -0.008
C6 0.047 0.054 0.058 -0.01 0.022 -0.002
C7 0.08 0.14 0.11 -0.04 0.07 -0.002
F1 0.081 0.16 0.22 -0.148 0.063 -0.022
F2 0.066 0.18 0.081 -0.052 0.003 -0.01
F3 0.24 0.137 0.2 -0.078 0.15 -0.15
O3 0.113(4) 0.058(3) 0.123(5) 0.021(3) 0.091(4) 0.017(3)
O4 0.108(4) 0.054(3) 0.106(4) 0.008(3) 0.082(4) 0.013(3)
C8 0.086(5) 0.063(4) 0.087(5) 0.016(4) 0.063(5) 0.018(4)
C9 0.163(12) 0.096(8) 0.187(14) 0.041(8) 0.147(12) 0.044(7)
F4 0.24(3) 0.21(2) 0.24(3) 0.15(2) 0.22(2) 0.14(2)
F5 0.110(15) 0.51(7) 0.21(2) 0.05(4) 0.104(16) 0.11(3)
F6 0.47(5) 0.102(14) 0.38(4) 0.008(17) 0.39(4) 0.05(2)
O5 0.042(2) 0.044(2) 0.090(3) 0.010(2) 0.013(2) -0.0001(17)
O6 0.040(2) 0.059(2) 0.082(3) 0.015(2) 0.019(2) -0.0048(18)
C10 0.044(3) 0.045(3) 0.068(4) 0.005(3) 0.021(3) 0.001(2)
C11 0.043(4) 0.063(4) 0.123(8) 0.029(5) 0.019(5) 0.001(3)
F7 0.085(10) 0.15(2) 0.33(4) 0.16(2) 0.114(17) 0.034(10)
F8 0.057(9) 0.113(16) 0.147(14) 0.081(11) -0.013(9) -0.003(8)
F9 0.25(3) 0.088(12) 0.166(16) -0.010(11) 0.00(2) 0.085(16)
O7 0.05 0.116 0.049 -0.005 0.02 -0.013
O8 0.051 0.074 0.045 -0.006 0.022 -0.024
C12 0.052 0.059 0.045 -0.01 0.024 -0.013
C13 0.06 0.124 0.057 -0.014 0.033 -0.025
F10 0.052 0.168 0.073 -0.043 0.044 -0.048
F11 0.25 0.17 0.38 -0.18 0.27 -0.113
F12 0.103 0.36 0.2 0.21 0.045 -0.01
O9 0.079(3) 0.062(3) 0.081(3) -0.019(2) 0.033(3) -0.008(2)
O11 0.069(3) 0.106(4) 0.077(4) 0.009(3) 0.020(3) 0.018(3)
Ag1A 0.0477 0.0442 0.0648 -0.004 0.0302 0.00475
Ag1D 0.0477 0.0442 0.0648 0.004 0.0302 -0.00475
Ag2A 0.037 0.0693 0.0475 -0.0089 0.00921 0.01037
Ag2D 0.037 0.0693 0.0475 0.0089 0.00921 -0.01037
Ag2F 0.037 0.0693 0.0475 0.0089 0.00921 -0.01037
Ag3A 0.0709 0.0422 0.0734 0.0037 0.0456 0.0022
Ag3F 0.0709 0.0422 0.0734 -0.0037 0.0456 -0.0022
Ag4A 0.0552 0.0612 0.0494 0.0009 0.026 0.02
Ag4F 0.0552 0.0612 0.0494 -0.0009 0.026 -0.02
C1A 0.044 0.047 0.042 0.002 0.021 0.008
C2A 0.038 0.042 0.04 -0.003 0.015 0.002
C3A 0.042 0.044 0.036 -0.002 0.015 0.004
C4A 0.089 0.036 0.047 -0.007 0.02 0.002
O1F 0.048(2) 0.065(3) 0.072(3) -0.018(2) 0.032(2) -0.0110(19)
O1A 0.048 0.065 0.072 0.018 0.032 0.011
O1G 0.048 0.065 0.072 0.018 0.032 0.011
O2F 0.057(3) 0.053(2) 0.102(4) -0.019(2) 0.047(3) -0.008(2)
O2G 0.057 0.053 0.102 0.019 0.047 0.008
C6F 0.047(3) 0.054(3) 0.058(4) -0.010(3) 0.022(3) -0.002(3)
C7F 0.08(2) 0.14(3) 0.11(3) -0.04(2) 0.07(2) -0.002(19)
F1F 0.081(11) 0.16(2) 0.22(2) -0.148(18) 0.063(14) -0.022(12)
F2F 0.066(7) 0.180(13) 0.081(10) -0.052(10) 0.003(7) -0.010(9)
F3F 0.24(3) 0.137(17) 0.20(2) -0.078(14) 0.15(2) -0.15(2)
O3A 0.113 0.058 0.123 -0.021 0.091 -0.017
O4A 0.108 0.054 0.106 -0.008 0.082 -0.013
C8A 0.086 0.063 0.087 -0.016 0.063 -0.018
C9A 0.163 0.096 0.187 -0.041 0.147 -0.044
F4A 0.24 0.21 0.24 -0.15 0.22 -0.14
F5A 0.11 0.51 0.21 -0.05 0.104 -0.11
F6A 0.47 0.102 0.38 -0.008 0.39 -0.05
O5D 0.042 0.044 0.09 0.01 0.013 -0.0001
O5A 0.042 0.044 0.09 -0.01 0.013 0.0001
O5E 0.042 0.044 0.09 -0.01 0.013 0.0001
O6D 0.04 0.059 0.082 0.015 0.019 -0.0048
O6A 0.04 0.059 0.082 -0.015 0.019 0.0048
C10D 0.044 0.045 0.068 0.005 0.021 0.001
C11D 0.043 0.063 0.123 0.029 0.019 0.001
F7D 0.085 0.15 0.33 0.16 0.114 0.034
F8D 0.057 0.113 0.147 0.081 -0.013 -0.003
F9D 0.25 0.088 0.166 -0.01 0 0.085
O7F 0.050(3) 0.116(4) 0.049(3) -0.005(3) 0.020(2) -0.013(3)
O8F 0.051(2) 0.074(3) 0.045(2) -0.006(2) 0.022(2) -0.024(2)
O8A 0.051 0.074 0.045 0.006 0.022 0.024
O8G 0.051 0.074 0.045 0.006 0.022 0.024
C12F 0.052(3) 0.059(3) 0.045(3) -0.010(3) 0.024(3) -0.013(3)
C13F 0.060(5) 0.124(7) 0.057(4) -0.014(5) 0.033(4) -0.025(5)
F10F 0.052(6) 0.168(14) 0.073(7) -0.043(7) 0.044(5) -0.048(8)
F11F 0.25(3) 0.17(2) 0.38(4) -0.18(2) 0.27(3) -0.113(19)
F12F 0.103(11) 0.36(4) 0.20(2) 0.21(3) 0.045(15) -0.01(2)
O9A 0.079 0.062 0.081 0.019 0.033 0.008
O11A 0.069 0.106 0.077 -0.009 0.02 -0.018
Ag7 0.1445(10) 0.1008(8) 0.2140(15) 0.0661(9) 0.1321(11) 0.0532(7)
O10 0.173(7) 0.073(4) 0.163(6) 0.009(4) 0.124(6) 0.015(4)
O10D 0.173 0.073 0.163 0.009 0.124 0.015
O12 0.066(3) 0.070(3) 0.144(5) -0.001(3) 0.050(4) -0.001(3)
O13 0.154(10) 0.61(4) 0.199(14) -0.068(18) 0.015(10) 0.097(16)
loop_
_geom_bond_atom_site_label_1
_geom_bond_atom_site_label_2
_geom_bond_site_symmetry_1
_geom_bond_site_symmetry_2
Ag1 Ag2 1_555 1_555
Ag2 Ag3 1_555 1_555
Ag3 Ag1 1_555 1_555
Ag4 Ag2 1_555 1_555
Ag5 Ag4 1_555 1_555
Ag7 O10 1_555 1_555
N1 Ag5 1_555 1_555
C1 Ag1 1_555 1_555
C2 Ag4 1_555 1_555
C3 N1 1_555 1_555
C4 C3 1_555 1_555
H1 C4 1_555 1_555
C5 C4 1_555 1_555
H2 C5 1_555 1_555
O1 Ag2 1_555 1_555
O2 C6 1_555 1_555
C6 O1 1_555 1_555
C7 C6 1_555 1_555
F1 C7 1_555 1_555
F2 C7 1_555 1_555
F3 C7 1_555 1_555
O3 Ag1 1_555 1_555
O4 Ag3 1_555 1_555
C8 O3 1_555 1_555
C9 C8 1_555 1_555
F4 C9 1_555 1_555
F5 C9 1_555 1_555
F6 C9 1_555 1_555
O5 Ag1 1_555 1_555
O6 Ag2 1_555 1_555
C10 O5 1_555 1_555
C11 C10 1_555 1_555
F7 C11 1_555 1_555
F8 C11 1_555 1_555
F9 C11 1_555 1_555
O7 C12 1_555 1_555
O8 Ag2 1_555 1_555
C12 O8 1_555 1_555
C13 C12 1_555 1_555
F10 C13 1_555 1_555
F11 C13 1_555 1_555
F12 C13 1_555 1_555
O9 Ag5 1_555 1_555
O11 Ag3 1_555 1_555
Ag1A Ag2A 1_555 1_555
Ag1D O5 1_555 1_555
Ag2A Ag3A 1_555 1_555
Ag2D Ag1D 1_555 1_555
Ag2F Ag3F 1_555 1_555
Ag3A Ag1A 1_555 1_555
Ag3F O2 1_555 1_555
Ag4A Ag5 1_555 1_555
Ag4F O1 1_555 1_555
C1A Ag1A 1_555 1_555
C2A Ag4A 1_555 1_555
C3A N1 1_555 1_555
C4A C5 1_555 1_555
H1A C4A 1_555 1_555
O1F Ag4 1_555 1_555
O1A Ag2A 1_555 1_555
O1G Ag4A 1_555 1_555
O2F Ag3 1_555 1_555
O2G Ag3A 1_555 1_555
C6F O1F 1_555 1_555
C7F C6F 1_555 1_555
F1F C7F 1_555 1_555
F2F C7F 1_555 1_555
F3F C7F 1_555 1_555
O3A Ag1A 1_555 1_555
O4A Ag3A 1_555 1_555
C8A O3A 1_555 1_555
C9A C8A 1_555 1_555
F4A C9A 1_555 1_555
F5A C9A 1_555 1_555
F6A C9A 1_555 1_555
O5D Ag1 1_555 1_555
O5A Ag1A 1_555 1_555
O5E Ag1A 1_555 1_555
O6D Ag2D 1_555 1_555
O6A Ag2A 1_555 1_555
C10D O5D 1_555 1_555
C11D C10D 1_555 1_555
F7D C11D 1_555 1_555
F8D C11D 1_555 1_555
F9D C11D 1_555 1_555
O7F C12F 1_555 1_555
O8F Ag4 1_555 1_555
O8A Ag2A 1_555 1_555
O8G Ag4A 1_555 1_555
C12F O8F 1_555 1_555
C13F C12F 1_555 1_555
F10F C13F 1_555 1_555
F11F C13F 1_555 1_555
F12F C13F 1_555 1_555
O9A Ag5 1_555 1_555
O10D Ag7 1_555 1_555
O11A Ag3A 1_555 1_555
Ag2 C1 1_555 1_555
Ag3 Ag4 1_555 1_555
Ag3 C1 1_555 1_555
Ag4 C1 1_555 1_555
C1 C2 1_555 1_555
C2 C3 1_555 1_555
O4 C8 1_555 1_555
O6 C10 1_555 1_555
O8 Ag4F 1_555 1_555
Ag1D O5D 1_555 1_555
Ag2A Ag4A 1_555 1_555
Ag2A C1A 1_555 1_555
Ag2F Ag4F 1_555 1_555
Ag2F O1F 1_555 1_555
Ag2F O8F 1_555 1_555
Ag3A Ag4A 1_555 1_555
Ag3A C1A 1_555 1_555
Ag3F Ag4F 1_555 1_555
Ag4A C1A 1_555 1_555
C1A C2A 1_555 1_555
C2A C3A 1_555 1_555
C3A C4A 1_555 1_555
O2F C6F 1_555 1_555
O4A C8A 1_555 1_555
O6D C10D 1_555 1_555

#END
