
#######################################################################
#
#                 Cambridge Crystallographic Data Centre
#                                CCDC 
#
#######################################################################
#
# If this CIF has been generated from an entry in the Cambridge 
# Structural Database, then it will include bibliographic, chemical, 
# crystal, experimental, refinement or atomic coordinate data resulting 
# from the CCDC's data processing and validation procedures.
#
#######################################################################

data_YEKQOW
_chemical_formula_moiety         '(C144 H79 O139 Zn26)n'
_symmetry_cell_setting           cubic
_symmetry_space_group_name_H-M   'I 2 3'
_symmetry_Int_Tables_number      197
_space_group_name_Hall           'I 2 2 3'
loop_
_symmetry_equiv_pos_site_id
_symmetry_equiv_pos_as_xyz
1 x,y,z
2 -x,-y,z
3 -x,y,-z
4 x,-y,-z
5 z,x,y
6 z,-x,-y
7 -z,-x,y
8 -z,x,-y
9 y,z,x
10 -y,z,-x
11 y,-z,-x
12 -y,-z,x
13 1/2+x,1/2+y,1/2+z
14 1/2-x,1/2-y,1/2+z
15 1/2-x,1/2+y,1/2-z
16 1/2+x,1/2-y,1/2-z
17 1/2+z,1/2+x,1/2+y
18 1/2+z,1/2-x,1/2-y
19 1/2-z,1/2-x,1/2+y
20 1/2-z,1/2+x,1/2-y
21 1/2+y,1/2+z,1/2+x
22 1/2-y,1/2+z,1/2-x
23 1/2+y,1/2-z,1/2-x
24 1/2-y,1/2-z,1/2+x
_cell_length_a                   30.9836(3)
_cell_length_b                   30.9836(3)
_cell_length_c                   30.9836(3)
_cell_angle_alpha                90
_cell_angle_beta                 90
_cell_angle_gamma                90
_cell_volume                     29743.7
loop_
_atom_site_label
_atom_site_type_symbol
_atom_site_fract_x
_atom_site_fract_y
_atom_site_fract_z
Zn1 Zn 0.00551(2) 0.44778(2) 0.79181(2)
Zn2 Zn -0.24038(3) 0.24038(3) 0.75962(3)
Zn3 Zn -0.44617(2) -0.00480(2) 0.77428(2)
Zn4 Zn -0.20876(3) 0.12058(4) 0.84488(4)
Zn5 Zn -0.27466(3) 0.36210(3) 0.67421(3)
O1 O -0.2362(3) 0.1435(3) 0.8984(3)
O2 O -0.1872(3) 0.1821(2) 0.9304(3)
O3 O -0.03610(16) 0.40237(15) 0.77266(17)
O4 O -0.17021(18) 0.17021(18) 0.82979(18)
H1 H -0.1885 0.1885 0.8115
O5 O -0.21763(17) 0.36465(17) 0.70329(19)
O6 O -0.40099(14) 0.03842(15) 0.75910(17)
O7 O -0.26445(16) 0.11551(17) 0.81301(17)
O8 O -0.22816(14) 0.30213(14) 0.73462(14)
O9 O -0.25493(13) 0.17945(14) 0.78462(14)
O10 O -0.08560(14) 0.44151(15) 0.73743(16)
O11 O -0.14112(15) 0.37610(13) 0.73815(14)
O12 O -0.44049(15) 0.08275(15) 0.71904(15)
O13 O -0.06312(15) 0.47480(18) 0.83577(17)
O14 O -0.31145(16) 0.31145(16) 0.68855(16)
H2 H -0.2932 0.2932 0.7068
O15 O 0.00064(16) 0.44781(15) 0.85395(14)
O16 O -0.09598(15) 0.46285(18) 0.91326(16)
O17 O -0.17688(16) 0.47261(15) 0.93846(16)
C1 C -0.2695(3) 0.1231(4) 0.9849(4)
H3 H -0.2866 0.1061 0.9671
O18 O -0.33909(13) 0.10318(13) 0.76867(14)
O19 O -0.16147(13) 0.44573(15) 1.00354(15)
O20 O 0.0000 0.5000 0.75657(18)
C2 C -0.1000(2) 0.3319(2) 0.7792(2)
H4 H -0.0768 0.3209 0.7947
C3 C -0.1395(2) 0.3110(2) 0.7714(2)
H5 H -0.1476 0.2837 0.7809
C4 C -0.2062(2) 0.3352(2) 0.7271(2)
C5 C -0.1020(2) 0.3721(2) 0.7594(2)
C6 C -0.3173(2) 0.1425(2) 0.7649(2)
C7 C -0.1637(2) 0.3390(2) 0.7472(2)
C8 C -0.0716(2) 0.4080(2) 0.7547(2)
C9 C -0.2756(2) 0.1467(2) 0.7893(2)
C10 C -0.0515(2) 0.4546(3) 0.9091(3)
C11 C -0.0683(3) 0.4437(4) 0.9760(3)
H6 H -0.0651 0.4365 1.0050
C12 C -0.1063(2) 0.4559(3) 0.9568(2)
C13 C -0.0392(2) 0.4614(3) 0.8617(2)
C14 C -0.4082(2) 0.0728(2) 0.7412(2)
C15 C -0.0348(3) 0.4440(4) 0.9451(3)
H7 H -0.0059 0.4375 0.9501
C16 C -0.1528(2) 0.45938(15) 0.9646(2)
C17 C -0.3772(2) 0.1497(2) 0.7267(3)
H8 H -0.3983 0.1613 0.7088
C18 C -0.3403(2) 0.1710(2) 0.7414(3)
H9 H -0.3330 0.1996 0.7359
C19 C -0.3769(2) 0.1088(2) 0.7434(2)
C20 C -0.2185(4) 0.1602(4) 0.9275(4)
C21 C -0.2368(3) 0.1499(4) 0.9718(3)
O21 O -0.2206(2) 0.1687(3) 1.0076(2)
C22 C -0.2725(4) 0.1261(4) 1.0291(4)
H10 H -0.2918 0.1112 1.0465
C23 C -0.2420(3) 0.1546(4) 1.0426(3)
C24 C -0.2292(4) 0.1717(5) 1.0869(4)
O22 O -0.2002(3) 0.1972(3) 1.0871(3)
O23 O -0.2502(3) 0.1559(3) 1.1156(3)
O24 O -0.2355(5) 0.0543(5) 0.8811(5)
O25 O -0.1612(5) 0.0936(4) 0.8863(4)
Zn1E Zn -0.20819(2) -0.00551(2) 0.55222(2)
Zn1K Zn -0.44778(2) 0.20819(2) 1.00551(2)
Zn1O Zn -0.49449(2) 0.05222(2) 0.70819(2)
Zn1R Zn -0.29181(2) 0.49449(2) 0.94778(2)
Zn1T Zn -0.05222(2) 0.29181(2) 0.50551(2)
Zn1A Zn -0.00551(2) 0.55222(2) 0.79181(2)
Zn1N Zn -0.50551(2) -0.05222(2) 0.70819(2)
Zn1D Zn -0.20819(2) 0.00551(2) 0.44778(2)
Zn2N Zn -0.25962(3) -0.25962(3) 0.74038(3)
Zn2O Zn 0.25962(3) 0.25962(3) 0.74038(3)
Zn2M Zn -0.25962(3) 0.25962(3) 1.25962(3)
Zn2O_2 Zn -0.74038(3) 0.25962(3) 0.74038(3)
Zn2N_2 Zn -0.25962(3) 0.74038(3) 0.74038(3)
Zn3E Zn -0.22572(2) 0.44617(2) 1.00480(2)
Zn3K Zn 0.00480(2) 0.22572(2) 0.55383(2)
Zn3N Zn -0.05383(2) 0.49520(2) 0.72572(2)
Zn3S Zn -0.27428(2) 0.05383(2) 0.50480(2)
Zn3U Zn -0.49520(2) 0.27428(2) 0.94617(2)
Zn3O Zn 0.05383(2) 0.50480(2) 0.72572(2)
Zn3A Zn -0.55383(2) 0.00480(2) 0.77428(2)
Zn3R Zn -0.27428(2) -0.05383(2) 0.49520(2)
Zn3T Zn -0.50480(2) 0.27428(2) 1.05383(2)
Zn3P Zn -0.72572(2) 0.05383(2) 0.49520(2)
Zn3D Zn -0.22572(2) 0.55383(2) 0.99520(2)
Zn3V Zn -0.50480(2) 0.72572(2) 0.94617(2)
Zn3M Zn -0.05383(2) 0.50480(2) 0.27428(2)
Zn4E Zn -0.15512(4) 0.20876(3) 0.87942(4)
Zn4K Zn -0.12058(4) 0.15512(4) 0.79124(3)
Zn4V Zn -0.37942(4) 0.65512(4) 0.70876(3)
Zn4M Zn -0.29124(3) 0.37942(4) 0.34488(4)
Zn4P Zn -0.65512(4) 0.29124(3) 0.62058(4)
Zn4O Zn 0.29124(3) 0.37942(4) 0.65512(4)
Zn4N Zn -0.29124(3) 0.62058(4) 0.65512(4)
Zn4S Zn -0.34488(4) 0.29124(3) 0.37942(4)
Zn4R Zn -0.34488(4) -0.29124(3) 0.62058(4)
Zn4T Zn -0.37942(4) 0.34488(4) 1.29124(3)
Zn4U Zn -0.62058(4) 0.34488(4) 0.70876(3)
Zn4R_2 Zn -0.34488(4) 0.70876(3) 0.62058(4)
Zn5E Zn -0.32579(3) 0.27466(3) 0.63790(3)
Zn5K Zn -0.36210(3) 0.32579(3) 0.72534(3)
Zn5N Zn -0.22534(3) -0.13790(3) 0.82579(3)
Zn5O Zn -0.77466(3) 0.13790(3) 0.82579(3)
Zn5R Zn -0.17421(3) 0.77466(3) 0.86210(3)
Zn5S Zn -0.17421(3) 0.22534(3) 1.13790(3)
Zn5M Zn -0.22534(3) 0.13790(3) 1.17421(3)
Zn5V Zn -0.13790(3) -0.17421(3) 0.77466(3)
Zn5U Zn 0.13790(3) 0.17421(3) 0.77466(3)
Zn5P Zn 0.17421(3) 0.22534(3) 0.86210(3)
Zn5R_2 Zn -0.17421(3) -0.22534(3) 0.86210(3)
O1K O -0.1435(3) 0.1016(3) 0.7638(3)
O1V O -0.3565(3) 0.6016(3) 0.7362(3)
O1M O -0.2638(3) 0.3565(3) 0.3984(3)
O1E O -0.1016(3) 0.2362(3) 0.8565(3)
O1P O -0.6016(3) 0.2638(3) 0.6435(3)
O2K O -0.1821(2) 0.0696(3) 0.8128(3)
O2V O -0.3179(2) 0.5696(3) 0.6872(3)
O2M O -0.3128(3) 0.3179(2) 0.4304(3)
O2E O -0.0696(3) 0.1872(3) 0.8179(2)
O2P O -0.5696(3) 0.3128(3) 0.6821(2)
O2R O -0.4304(3) 0.6872(3) 0.6821(2)
O2T O -0.3179(2) 0.4304(3) 0.3128(3)
O2O O -0.6872(3) 0.3179(2) 0.5696(3)
O3E O -0.22734(17) 0.03610(16) 0.59763(15)
O3K O -0.40237(15) 0.22734(17) 0.96390(16)
O3N O -0.46390(16) -0.09763(15) 0.72734(17)
O3O O -0.53610(16) 0.09763(15) 0.72734(17)
O3R O -0.27266(17) 0.53610(16) 0.90237(15)
O3T O -0.09763(15) 0.27266(17) 0.46390(16)
O4N O -0.32979(18) 0.67021(18) 0.67021(18)
O4M O -0.32979(18) 0.32979(18) 0.32979(18)
O4O O -0.67021(18) 0.32979(18) 0.67021(18)
H1N H -0.3115 0.6885 0.6885
H1M H -0.3115 0.3115 0.3115
H1O H -0.6885 0.3115 0.6885
O5E O -0.29671(19) 0.21763(17) 0.63535(17)
O5K O -0.36465(17) 0.29671(19) 0.78237(17)
O5N O -0.28237(17) -0.13535(17) 0.79671(19)
O5O O -0.71763(17) 0.13535(17) 0.79671(19)
O5R O -0.20329(19) 0.71763(17) 0.86465(17)
O6E O -0.24090(17) 0.40099(14) 0.96158(15)
O6K O -0.03842(15) 0.24090(17) 0.59901(14)
O6O O 0.09901(14) 0.46158(15) 0.74090(17)
O6R O -0.25910(17) -0.09901(14) 0.53842(15)
O6T O -0.46158(15) 0.25910(17) 1.09901(14)
O6N O -0.09901(14) 0.53842(15) 0.74090(17)
O6S O -0.25910(17) 0.09901(14) 0.46158(15)
O6U O -0.53842(15) 0.25910(17) 0.90099(14)
O7E O -0.18699(17) 0.26445(16) 0.88449(17)
O7K O -0.11551(17) 0.18699(17) 0.73555(16)
O7O O 0.23555(16) 0.38449(17) 0.68699(17)
O7R O -0.31301(17) -0.23555(16) 0.61551(17)
O7T O -0.38449(17) 0.31301(17) 1.23555(16)
O7V O -0.38449(17) 0.68699(17) 0.76445(16)
O7M O -0.23555(16) 0.38449(17) 0.31301(17)
O7P O -0.68699(17) 0.23555(16) 0.61551(17)
O8E O -0.26538(14) 0.22816(14) 0.69787(14)
O8K O -0.30213(14) 0.26538(14) 0.77184(14)
O8N O -0.27184(14) -0.19787(14) 0.76538(14)
O8O O -0.72816(14) 0.19787(14) 0.76538(14)
O8R O -0.23462(14) 0.72816(14) 0.80213(14)
O8R_2 O -0.23462(14) -0.27184(14) 0.80213(14)
O8V O -0.19787(14) -0.23462(14) 0.72816(14)
O9E O -0.21538(14) 0.25493(13) 0.82055(14)
O9K O -0.17945(14) 0.21538(14) 0.74507(13)
O9O O 0.24507(13) 0.32055(14) 0.71538(14)
O9R O -0.28462(14) -0.24507(13) 0.67945(14)
O9T O -0.32055(14) 0.28462(14) 1.24507(13)
O9N O -0.24507(13) -0.32055(14) 0.71538(14)
O9V O -0.32055(14) -0.28462(14) 0.75493(13)
O10E O -0.26257(16) 0.08560(14) 0.55849(15)
O10K O -0.44151(15) 0.26257(16) 0.91440(14)
O10N O -0.41440(14) -0.05849(15) 0.76257(16)
O10O O -0.58560(14) 0.05849(15) 0.76257(16)
O10R O -0.23743(16) 0.58560(14) 0.94151(15)
O10S O -0.23743(16) 0.41440(14) 1.05849(15)
O10U O 0.05849(15) 0.23743(16) 0.58560(14)
O11E O -0.26185(14) 0.14112(15) 0.62390(13)
O11K O -0.37610(13) 0.26185(14) 0.85888(15)
O11N O -0.35888(15) -0.12390(13) 0.76185(14)
O11O O -0.64112(15) 0.12390(13) 0.76185(14)
O11R O -0.23815(14) 0.64112(15) 0.87610(13)
O12E O -0.28096(15) 0.44049(15) 0.91725(15)
O12K O -0.08275(15) 0.28096(15) 0.55951(15)
O12O O 0.05951(15) 0.41725(15) 0.78096(15)
O12R O -0.21904(15) -0.05951(15) 0.58275(15)
O12T O -0.41725(15) 0.21904(15) 1.05951(15)
O13K O -0.47480(18) 0.16423(17) 0.93688(15)
O13E O -0.16423(17) 0.06312(15) 0.52520(18)
O13O O -0.56312(15) 0.02520(18) 0.66423(17)
O13R O -0.33577(17) 0.56312(15) 0.97480(18)
O13T O -0.02520(18) 0.33577(17) 0.43688(15)
O14N O -0.18855(16) -0.18855(16) 0.81145(16)
O14O O -0.81145(16) 0.18855(16) 0.81145(16)
O14N_2 O -0.18855(16) 0.81145(16) 0.81145(16)
H2N H -0.2068 -0.2068 0.7932
H2O H -0.7932 0.2068 0.7932
H2N_2 H -0.2068 0.7932 0.7932
O15K O -0.44781(15) 0.14605(14) 1.00064(16)
O15E O -0.14605(14) -0.00064(16) 0.55219(15)
O15O O -0.49936(16) 0.05219(15) 0.64605(14)
O15R O -0.35395(14) 0.49936(16) 0.94781(15)
O15T O -0.05219(15) 0.35395(14) 0.50064(16)
O16K O -0.46285(18) 0.08674(16) 0.90402(15)
O16E O -0.08674(16) 0.09598(15) 0.53715(18)
O16O O -0.59598(15) 0.03715(18) 0.58674(16)
O16R O -0.41326(16) 0.59598(15) 0.96285(18)
O16T O -0.03715(18) 0.41326(16) 0.40402(15)
O17K O -0.47261(15) 0.06154(16) 0.82312(16)
O17E O -0.06154(16) 0.17688(16) 0.52739(15)
O17O O -0.67688(16) 0.02739(15) 0.56154(16)
O17R O -0.43846(16) 0.67688(16) 0.97261(15)
O17T O -0.02739(15) 0.43846(16) 0.32312(16)
C1K C -0.1231(4) 0.0151(4) 0.7305(3)
C1V C -0.3769(4) 0.5151(4) 0.7695(3)
C1M C -0.2305(3) 0.3769(4) 0.4849(4)
C1E C -0.0151(4) 0.2695(3) 0.8769(4)
C1P C -0.5151(4) 0.2305(3) 0.6231(4)
H3K H -0.1061 0.0329 0.7134
H3V H -0.3939 0.5329 0.7866
H3M H -0.2134 0.3939 0.4671
H3E H -0.0329 0.2866 0.8939
H3P H -0.5329 0.2134 0.6061
O18E O -0.23133(14) 0.33909(13) 0.89682(13)
O18K O -0.10318(13) 0.23133(14) 0.66091(13)
O18O O 0.16091(13) 0.39682(13) 0.73133(14)
O18R O -0.26867(14) -0.16091(13) 0.60318(13)
O18T O -0.39682(13) 0.26867(14) 1.16091(13)
O19K O -0.44573(15) -0.00354(15) 0.83853(13)
O19E O 0.00354(15) 0.16147(13) 0.55427(15)
O19O O -0.66147(13) 0.05427(15) 0.49646(15)
O19R O -0.50354(15) 0.66147(13) 0.94573(15)
O19T O -0.05427(15) 0.50354(15) 0.33853(13)
O19V O -0.05427(15) 0.49646(15) 0.66147(13)
O19M O -0.33853(13) 0.05427(15) 0.50354(15)
O19P O -0.49646(15) 0.33853(13) 0.94573(15)
O20N O -0.5000 0.0000 0.74343(18)
O20D O -0.24343(18) 0.0000 0.5000
O20J O -0.5000 0.24343(18) 1.0000
O20R O -0.25657(18) 0.5000 1.0000
O20T O 0.0000 0.25657(18) 0.5000
C2E C -0.2208(2) 0.1000(2) 0.6681(2)
C2K C -0.3319(2) 0.2208(2) 0.9000(2)
C2N C -0.4000(2) -0.1681(2) 0.7208(2)
C2O C -0.6000(2) 0.1681(2) 0.7208(2)
C2R C -0.2792(2) 0.6000(2) 0.8319(2)
H4E H -0.2053 0.0768 0.6791
H4K H -0.3209 0.2053 0.9232
H4N H -0.4232 -0.1791 0.7053
H4O H -0.5768 0.1791 0.7053
H4R H -0.2947 0.5768 0.8209
C3E C -0.2286(2) 0.1395(2) 0.6890(2)
C3K C -0.3110(2) 0.2286(2) 0.8605(2)
C3N C -0.3605(2) -0.1890(2) 0.7286(2)
C3O C -0.6395(2) 0.1890(2) 0.7286(2)
C3R C -0.2714(2) 0.6395(2) 0.8110(2)
H5E H -0.2191 0.1476 0.7163
H5K H -0.2837 0.2191 0.8524
H5N H -0.3524 -0.2163 0.7191
H5O H -0.6476 0.2163 0.7191
H5R H -0.2809 0.6476 0.7837
C4E C -0.2729(2) 0.2062(2) 0.6648(2)
C4K C -0.3352(2) 0.2729(2) 0.7938(2)
C4N C -0.2938(2) -0.1648(2) 0.7729(2)
C4O C -0.7062(2) 0.1648(2) 0.7729(2)
C4R C -0.2271(2) 0.7062(2) 0.8352(2)
C5E C -0.2406(2) 0.1020(2) 0.6279(2)
C5K C -0.3721(2) 0.2406(2) 0.8980(2)
C5N C -0.3980(2) -0.1279(2) 0.7406(2)
C5O C -0.6020(2) 0.1279(2) 0.7406(2)
C5R C -0.2594(2) 0.6020(2) 0.8721(2)
C6E C -0.2351(2) 0.3173(2) 0.8575(2)
C6K C -0.1425(2) 0.2351(2) 0.6827(2)
C6O C 0.1827(2) 0.3575(2) 0.7351(2)
C6R C -0.2649(2) -0.1827(2) 0.6425(2)
C6T C -0.3575(2) 0.2649(2) 1.1827(2)
C7E C -0.2528(2) 0.1637(2) 0.6610(2)
C7K C -0.3390(2) 0.2528(2) 0.8363(2)
C7N C -0.3363(2) -0.1610(2) 0.7528(2)
C7O C -0.6637(2) 0.1610(2) 0.7528(2)
C7R C -0.2472(2) 0.6637(2) 0.8390(2)
C8E C -0.2453(2) 0.0716(2) 0.5920(2)
C8K C -0.4080(2) 0.2453(2) 0.9284(2)
C8N C -0.4284(2) -0.0920(2) 0.7453(2)
C8O C -0.5716(2) 0.0920(2) 0.7453(2)
C8R C -0.2547(2) 0.5716(2) 0.9080(2)
C9E C -0.2107(2) 0.2756(2) 0.8533(2)
C9K C -0.1467(2) 0.2107(2) 0.7244(2)
C9O C 0.2244(2) 0.3533(2) 0.7107(2)
C9R C -0.2893(2) -0.2244(2) 0.6467(2)
C9T C -0.3533(2) 0.2893(2) 1.2244(2)
C10K C -0.4546(3) 0.0909(3) 0.9485(2)
C10E C -0.0909(3) 0.0515(2) 0.5454(3)
C10O C -0.5515(2) 0.0454(3) 0.5909(3)
C10R C -0.4091(3) 0.5515(2) 0.9546(3)
C10T C -0.0454(3) 0.4091(3) 0.4485(2)
C11K C -0.4437(4) 0.0240(3) 0.9317(3)
C11E C -0.0240(3) 0.0683(3) 0.5563(4)
C11O C -0.5683(3) 0.0563(4) 0.5240(3)
C11R C -0.4760(3) 0.5683(3) 0.9437(4)
C11T C -0.0563(4) 0.4760(3) 0.4317(3)
H6K H -0.4365 -0.0050 0.9349
H6E H 0.0050 0.0651 0.5635
H6O H -0.5651 0.0635 0.4950
H6R H -0.5050 0.5651 0.9365
H6T H -0.0635 0.5050 0.4349
C12K C -0.4559(3) 0.0432(2) 0.8937(2)
C12E C -0.0432(2) 0.1063(2) 0.5441(3)
C12O C -0.6063(2) 0.0441(3) 0.5432(2)
C12R C -0.4568(2) 0.6063(2) 0.9559(3)
C12T C -0.0441(3) 0.4568(2) 0.3937(2)
C13K C -0.4614(3) 0.1383(2) 0.9608(2)
C13E C -0.1383(2) 0.0392(2) 0.5386(3)
C13O C -0.5392(2) 0.0386(3) 0.6383(2)
C13R C -0.3617(2) 0.5392(2) 0.9614(3)
C13T C -0.0386(3) 0.3617(2) 0.4608(2)
C14E C -0.2588(2) 0.4082(2) 0.9272(2)
C14K C -0.0728(2) 0.2588(2) 0.5918(2)
C14O C 0.0918(2) 0.4272(2) 0.7588(2)
C14R C -0.2412(2) -0.0918(2) 0.5728(2)
C14T C -0.4272(2) 0.2412(2) 1.0918(2)
C15K C -0.4440(4) 0.0549(3) 0.9652(3)
C15E C -0.0549(3) 0.0348(3) 0.5560(4)
C15O C -0.5348(3) 0.0560(4) 0.5549(3)
C15R C -0.4451(3) 0.5348(3) 0.9440(4)
C15T C -0.0560(4) 0.4451(3) 0.4652(3)
H7K H -0.4375 0.0499 0.9941
H7E H -0.0499 0.0059 0.5625
H7O H -0.5059 0.0625 0.5499
H7R H -0.4501 0.5059 0.9375
H7T H -0.0625 0.4501 0.4941
C16K C -0.45938(15) 0.0354(2) 0.8472(2)
C16E C -0.0354(2) 0.1528(2) 0.54062(15)
C16O C -0.6528(2) 0.04062(15) 0.5354(2)
C16R C -0.4646(2) 0.6528(2) 0.95938(15)
C16T C -0.04062(15) 0.4646(2) 0.3472(2)
C17E C -0.2733(3) 0.3772(2) 0.8503(2)
C17K C -0.1497(2) 0.2733(3) 0.6228(2)
C17O C 0.1228(2) 0.3503(2) 0.7733(3)
C17R C -0.2267(3) -0.1228(2) 0.6497(2)
C17T C -0.3503(2) 0.2267(3) 1.1228(2)
H8E H -0.2912 0.3983 0.8387
H8K H -0.1613 0.2912 0.6017
H8O H 0.1017 0.3387 0.7912
H8R H -0.2088 -0.1017 0.6613
H8T H -0.3387 0.2088 1.1017
C18E C -0.2586(3) 0.3403(2) 0.8290(2)
C18K C -0.1710(2) 0.2586(3) 0.6597(2)
C18O C 0.1597(2) 0.3290(2) 0.7586(3)
C18R C -0.2414(3) -0.1597(2) 0.6710(2)
C18T C -0.3290(2) 0.2414(3) 1.1597(2)
H9E H -0.2641 0.3330 0.8004
H9K H -0.1996 0.2641 0.6670
H9O H 0.1670 0.3004 0.7641
H9R H -0.2359 -0.1670 0.6996
H9T H -0.3004 0.2359 1.1670
C19E C -0.2566(2) 0.3769(2) 0.8912(2)
C19K C -0.1088(2) 0.2566(2) 0.6231(2)
C19O C 0.1231(2) 0.3912(2) 0.7566(2)
C19R C -0.2434(2) -0.1231(2) 0.6088(2)
C19T C -0.3912(2) 0.2434(2) 1.1231(2)
C20K C -0.1602(4) 0.0725(4) 0.7815(4)
C20V C -0.3398(4) 0.5725(4) 0.7185(4)
C20M C -0.2815(4) 0.3398(4) 0.4275(4)
C20E C -0.0725(4) 0.2185(4) 0.8398(4)
C20P C -0.5725(4) 0.2815(4) 0.6602(4)
C21K C -0.1499(4) 0.0282(3) 0.7632(3)
C21V C -0.3501(4) 0.5282(3) 0.7368(3)
C21M C -0.2632(3) 0.3501(4) 0.4718(3)
C21E C -0.0282(3) 0.2368(3) 0.8501(4)
C21P C -0.5282(3) 0.2632(3) 0.6499(4)
O21K O -0.1687(3) -0.0076(2) 0.7794(2)
O21V O -0.3313(3) 0.4924(2) 0.7206(2)
O21M O -0.2794(2) 0.3313(3) 0.5076(2)
O21E O 0.0076(2) 0.2206(2) 0.8313(3)
O21P O -0.4924(2) 0.2794(2) 0.6687(3)
C22K C -0.1261(4) -0.0291(4) 0.7275(4)
C22V C -0.3739(4) 0.4709(4) 0.7725(4)
C22M C -0.2275(4) 0.3739(4) 0.5291(4)
C22E C 0.0291(4) 0.2725(4) 0.8739(4)
C22P C -0.4709(4) 0.2275(4) 0.6261(4)
H10K H -0.1112 -0.0465 0.7082
H10V H -0.3888 0.4535 0.7918
H10M H -0.2082 0.3888 0.5465
H10E H 0.0465 0.2918 0.8888
H10P H -0.4535 0.2082 0.6112
C23K C -0.1546(4) -0.0426(3) 0.7580(3)
C23V C -0.3454(4) 0.4574(3) 0.7420(3)
C23M C -0.2580(3) 0.3454(4) 0.5426(3)
C23E C 0.0426(3) 0.2420(3) 0.8454(4)
C23P C -0.4574(3) 0.2580(3) 0.6546(4)
C24K C -0.1717(5) -0.0869(4) 0.7708(4)
C24V C -0.3283(5) 0.4131(4) 0.7292(4)
C24M C -0.2708(4) 0.3283(5) 0.5869(4)
C24E C 0.0869(4) 0.2292(4) 0.8283(5)
C24P C -0.4131(4) 0.2708(4) 0.6717(5)
O22K O -0.1972(3) -0.0871(3) 0.7998(3)
O22V O -0.3028(3) 0.4129(3) 0.7002(3)
O22M O -0.2998(3) 0.3028(3) 0.5871(3)
O22E O 0.0871(3) 0.2002(3) 0.8028(3)
O22P O -0.4129(3) 0.2998(3) 0.6972(3)
O22H O -0.8028(3) 0.0871(3) 0.7998(3)
O22C O -0.2002(3) 0.8028(3) 0.9129(3)
O23K O -0.1559(3) -0.1156(3) 0.7498(3)
O23V O -0.3441(3) 0.3844(3) 0.7502(3)
O23M O -0.2498(3) 0.3441(3) 0.6156(3)
O23E O 0.1156(3) 0.2502(3) 0.8441(3)
O23P O -0.3844(3) 0.2498(3) 0.6559(3)
O23C O -0.2502(3) -0.1559(3) 0.8844(3)
O23B O -0.7498(3) 0.1559(3) 0.8844(3)
O23G O -0.1156(3) 0.7498(3) 0.8441(3)
O24E O -0.1189(5) 0.2355(5) 0.9457(5)
O24K O -0.0543(5) 0.1189(5) 0.7645(5)
O24V O -0.4457(5) 0.6189(5) 0.7355(5)
O24M O -0.2645(5) 0.4457(5) 0.3811(5)
O24P O -0.6189(5) 0.2645(5) 0.5543(5)
O25E O -0.1137(4) 0.1612(5) 0.9064(4)
O25K O -0.0936(4) 0.1137(4) 0.8388(5)
O25V O -0.4064(4) 0.6137(4) 0.6612(5)
O25M O -0.3388(5) 0.4064(4) 0.3863(4)
O25P O -0.6137(4) 0.3388(5) 0.5936(4)
loop_
_geom_bond_atom_site_label_1
_geom_bond_atom_site_label_2
_geom_bond_site_symmetry_1
_geom_bond_site_symmetry_2
Zn1 O3 1_555 1_555
Zn2 O8 1_555 1_555
Zn3 O6 1_555 1_555
Zn4 O1 1_555 1_555
Zn5 O5 1_555 1_555
O1 C20 1_555 1_555
O2 C20 1_555 1_555
O3 C8 1_555 1_555
O4 Zn4 1_555 1_555
H1 O4 1_555 1_555
O5 C4 1_555 1_555
O6 C14 1_555 1_555
O7 Zn4 1_555 1_555
O8 C4 1_555 1_555
O9 Zn2 1_555 1_555
O10 C8 1_555 1_555
O11 C5 1_555 1_555
O12 C14 1_555 1_555
O13 C13 1_555 1_555
O14 Zn5 1_555 1_555
H2 O14 1_555 1_555
O15 Zn1 1_555 1_555
O16 C10 1_555 1_555
O17 C16 1_555 1_555
C1 H3 1_555 1_555
O18 C6 1_555 1_555
O19 C16 1_555 1_555
O20 Zn1 1_555 1_555
C2 H4 1_555 1_555
C3 C2 1_555 1_555
H5 C3 1_555 1_555
C4 C7 1_555 1_555
C5 C2 1_555 1_555
C6 C9 1_555 1_555
C7 O11 1_555 1_555
C8 C5 1_555 1_555
C9 O7 1_555 1_555
C10 C13 1_555 1_555
C11 H6 1_555 1_555
C12 O16 1_555 1_555
C13 O15 1_555 1_555
C14 C19 1_555 1_555
C15 C10 1_555 1_555
H7 C15 1_555 1_555
C16 C12 1_555 1_555
C17 H8 1_555 1_555
C18 C6 1_555 1_555
H9 C18 1_555 1_555
C19 O18 1_555 1_555
C20 C21 1_555 1_555
C21 C1 1_555 1_555
O21 C21 1_555 1_555
C22 C1 1_555 1_555
H10 C22 1_555 1_555
C23 O21 1_555 1_555
C24 C23 1_555 1_555
O22 C24 1_555 1_555
O23 C24 1_555 1_555
O24 Zn4 1_555 1_555
O25 Zn4 1_555 1_555
Zn1E O3E 1_555 1_555
Zn1K O3K 1_555 1_555
Zn1O O12 1_555 1_555
Zn1R O3R 1_555 1_555
Zn1T O3T 1_555 1_555
Zn1A O20 1_555 1_555
Zn1N O3N 1_555 1_555
Zn1D O20D 1_555 1_555
Zn2N O8N 1_555 1_555
Zn2O O9O 1_555 1_555
Zn2M O9T 1_555 1_555
Zn2O_2 O8O 1_555 1_555
Zn2N_2 O8R 1_555 1_555
Zn3E O19 1_555 1_555
Zn3K O6K 1_555 1_555
Zn3N O10 1_555 1_555
Zn3S O6S 1_555 1_555
Zn3U O6U 1_555 1_555
Zn3O O20 1_555 1_555
Zn3A O10O 1_555 1_555
Zn3R O6R 1_555 1_555
Zn3T O6T 1_555 1_555
Zn3P O19O 1_555 1_555
Zn3D O10R 1_555 1_555
Zn3V O19R 1_555 1_555
Zn3M O19T 1_555 1_555
Zn4E O2 1_555 1_555
Zn4K O4 1_555 1_555
Zn4V O1V 1_555 1_555
Zn4M O1M 1_555 1_555
Zn4P O1P 1_555 1_555
Zn4O O7O 1_555 1_555
Zn4N O2V 1_555 1_555
Zn4S O2M 1_555 1_555
Zn4R O7R 1_555 1_555
Zn4T O7T 1_555 1_555
Zn4U O2P 1_555 1_555
Zn4R_2 O4N 1_555 1_555
Zn5E O14 1_555 1_555
Zn5K O14 1_555 1_555
Zn5N O5N 1_555 1_555
Zn5O O5O 1_555 1_555
Zn5R O5R 1_555 1_555
Zn5S O22 1_555 1_555
Zn5M O23 1_555 1_555
Zn5V O14N 1_555 1_555
Zn5U O22E 1_555 1_555
Zn5P O23E 1_555 1_555
Zn5R_2 O14N 1_555 1_555
O1K Zn4K 1_555 1_555
O1V C20V 1_555 1_555
O1M C20M 1_555 1_555
O1E Zn4E 1_555 1_555
O1P C20P 1_555 1_555
O2K Zn4 1_555 1_555
O2V C20V 1_555 1_555
O2M C20M 1_555 1_555
O2E Zn4K 1_555 1_555
O2P C20P 1_555 1_555
O2R Zn4V 1_555 1_555
O2T Zn4M 1_555 1_555
O2O Zn4P 1_555 1_555
O3E C8E 1_555 1_555
O3K C8K 1_555 1_555
O3N C8N 1_555 1_555
O3O Zn1O 1_555 1_555
O3R C8R 1_555 1_555
O4N Zn4V 1_555 1_555
O4M Zn4M 1_555 1_555
O4O Zn4P 1_555 1_555
H1N O4N 1_555 1_555
H1M O4M 1_555 1_555
H1O O4O 1_555 1_555
O5E Zn5E 1_555 1_555
O5K Zn5K 1_555 1_555
O5N C4N 1_555 1_555
O5O C4O 1_555 1_555
O5R C4R 1_555 1_555
O6E Zn3E 1_555 1_555
O6K C14K 1_555 1_555
O6O Zn3O 1_555 1_555
O6R C14R 1_555 1_555
O6T C14T 1_555 1_555
O6N Zn3N 1_555 1_555
O7E Zn4E 1_555 1_555
O7K Zn4K 1_555 1_555
O7O C9O 1_555 1_555
O7R C9R 1_555 1_555
O7T C9T 1_555 1_555
O7V Zn4V 1_555 1_555
O7M Zn4M 1_555 1_555
O7P Zn4P 1_555 1_555
O8E Zn2 1_555 1_555
O8K Zn2 1_555 1_555
O8N C4N 1_555 1_555
O8O C4O 1_555 1_555
O8R C4R 1_555 1_555
O8R_2 Zn2N 1_555 1_555
O8V Zn2N 1_555 1_555
O9E Zn2 1_555 1_555
O9K Zn2 1_555 1_555
O9O C9O 1_555 1_555
O9R Zn2N 1_555 1_555
O9T C9T 1_555 1_555
O9N Zn2N 1_555 1_555
O9V Zn2N 1_555 1_555
O10E Zn3S 1_555 1_555
O10K Zn3U 1_555 1_555
O10N Zn3 1_555 1_555
O10O C8O 1_555 1_555
O10R C8R 1_555 1_555
O10S Zn3E 1_555 1_555
O10U Zn3K 1_555 1_555
O11E C5E 1_555 1_555
O11K C5K 1_555 1_555
O11N C5N 1_555 1_555
O11O C5O 1_555 1_555
O11R C5R 1_555 1_555
O12E Zn1R 1_555 1_555
O12K Zn1T 1_555 1_555
O12O Zn1 1_555 1_555
O12R Zn1E 1_555 1_555
O12T Zn1K 1_555 1_555
O13K C13K 1_555 1_555
O13E C13E 1_555 1_555
O13O C13O 1_555 1_555
O13R C13R 1_555 1_555
O13T C13T 1_555 1_555
O14N Zn5N 1_555 1_555
O14O Zn5O 1_555 1_555
O14N_2 Zn5R 1_555 1_555
H2N O14N 1_555 1_555
H2O O14O 1_555 1_555
H2N_2 O14N_2 1_555 1_555
O15K Zn1K 1_555 1_555
O15E Zn1E 1_555 1_555
O15O Zn1O 1_555 1_555
O15R Zn1R 1_555 1_555
O15T Zn1T 1_555 1_555
O16K C10K 1_555 1_555
O16E C10E 1_555 1_555
O16O C10O 1_555 1_555
O16R C10R 1_555 1_555
O16T C10T 1_555 1_555
O17K C16K 1_555 1_555
O17E C16E 1_555 1_555
O17O C16O 1_555 1_555
O17R C16R 1_555 1_555
O17T C16T 1_555 1_555
C1K H3K 1_555 1_555
C1V H3V 1_555 1_555
C1M H3M 1_555 1_555
C1E H3E 1_555 1_555
C1P H3P 1_555 1_555
O18E C6E 1_555 1_555
O18K C6K 1_555 1_555
O18O C6O 1_555 1_555
O18R C6R 1_555 1_555
O18T C6T 1_555 1_555
O19K Zn3 1_555 1_555
O19E Zn3K 1_555 1_555
O19O C16O 1_555 1_555
O19R C16R 1_555 1_555
O19T C16T 1_555 1_555
O19V Zn3N 1_555 1_555
O19M Zn3S 1_555 1_555
O19P Zn3U 1_555 1_555
O20N Zn3 1_555 1_555
O20D Zn1E 1_555 1_555
O20J Zn1K 1_555 1_555
O20R Zn1R 1_555 1_555
O20T Zn1T 1_555 1_555
C2E H4E 1_555 1_555
C2K H4K 1_555 1_555
C2N H4N 1_555 1_555
C2O H4O 1_555 1_555
C2R H4R 1_555 1_555
C3E C2E 1_555 1_555
C3K C2K 1_555 1_555
C3N C2N 1_555 1_555
C3O C2O 1_555 1_555
C3R C2R 1_555 1_555
H5E C3E 1_555 1_555
H5K C3K 1_555 1_555
H5N C3N 1_555 1_555
H5O C3O 1_555 1_555
H5R C3R 1_555 1_555
C4E O5E 1_555 1_555
C4K O5K 1_555 1_555
C4N C7N 1_555 1_555
C4O C7O 1_555 1_555
C4R C7R 1_555 1_555
C5E C2E 1_555 1_555
C5K C2K 1_555 1_555
C5N C2N 1_555 1_555
C5O C2O 1_555 1_555
C5R C2R 1_555 1_555
C6E C9E 1_555 1_555
C6K C9K 1_555 1_555
C6O C9O 1_555 1_555
C6R C9R 1_555 1_555
C6T C9T 1_555 1_555
C7E O11E 1_555 1_555
C7K O11K 1_555 1_555
C7N O11N 1_555 1_555
C7O O11O 1_555 1_555
C7R O11R 1_555 1_555
C8E O10E 1_555 1_555
C8K O10K 1_555 1_555
C8N O10N 1_555 1_555
C8O O3O 1_555 1_555
C8R C5R 1_555 1_555
C9E O7E 1_555 1_555
C9K O7K 1_555 1_555
C9R O9R 1_555 1_555
C10K C13K 1_555 1_555
C10E C13E 1_555 1_555
C10O C13O 1_555 1_555
C10R C13R 1_555 1_555
C10T C13T 1_555 1_555
C11K H6K 1_555 1_555
C11E H6E 1_555 1_555
C11O H6O 1_555 1_555
C11R H6R 1_555 1_555
C11T H6T 1_555 1_555
C12K O16K 1_555 1_555
C12E O16E 1_555 1_555
C12O O16O 1_555 1_555
C12R O16R 1_555 1_555
C12T O16T 1_555 1_555
C13K O15K 1_555 1_555
C13E O15E 1_555 1_555
C13O O15O 1_555 1_555
C13R O15R 1_555 1_555
C13T O15T 1_555 1_555
C14E O6E 1_555 1_555
C14K O12K 1_555 1_555
C14O O6O 1_555 1_555
C14R O12R 1_555 1_555
C14T O12T 1_555 1_555
C15K C10K 1_555 1_555
C15E C10E 1_555 1_555
C15O C10O 1_555 1_555
C15R C10R 1_555 1_555
C15T C10T 1_555 1_555
H7K C15K 1_555 1_555
H7E C15E 1_555 1_555
H7O C15O 1_555 1_555
H7R C15R 1_555 1_555
H7T C15T 1_555 1_555
C16K O19K 1_555 1_555
C16E O19E 1_555 1_555
C16O C12O 1_555 1_555
C16R C12R 1_555 1_555
C16T C12T 1_555 1_555
C17E H8E 1_555 1_555
C17K H8K 1_555 1_555
C17O H8O 1_555 1_555
C17R H8R 1_555 1_555
C17T H8T 1_555 1_555
C18E C6E 1_555 1_555
C18K C6K 1_555 1_555
C18O C6O 1_555 1_555
C18R C6R 1_555 1_555
C18T C6T 1_555 1_555
H9E C18E 1_555 1_555
H9K C18K 1_555 1_555
H9O C18O 1_555 1_555
H9R C18R 1_555 1_555
H9T C18T 1_555 1_555
C19E O18E 1_555 1_555
C19K O18K 1_555 1_555
C19O O18O 1_555 1_555
C19R O18R 1_555 1_555
C19T O18T 1_555 1_555
C20K O1K 1_555 1_555
C20V C21V 1_555 1_555
C20M C21M 1_555 1_555
C20E O1E 1_555 1_555
C20P C21P 1_555 1_555
C21K C1K 1_555 1_555
C21V C1V 1_555 1_555
C21M C1M 1_555 1_555
C21E C1E 1_555 1_555
C21P C1P 1_555 1_555
O21K C21K 1_555 1_555
O21V C21V 1_555 1_555
O21M C21M 1_555 1_555
O21E C21E 1_555 1_555
O21P C21P 1_555 1_555
C22K C1K 1_555 1_555
C22V C1V 1_555 1_555
C22M C1M 1_555 1_555
C22E C1E 1_555 1_555
C22P C1P 1_555 1_555
H10K C22K 1_555 1_555
H10V C22V 1_555 1_555
H10M C22M 1_555 1_555
H10E C22E 1_555 1_555
H10P C22P 1_555 1_555
C23K O21K 1_555 1_555
C23V O21V 1_555 1_555
C23M O21M 1_555 1_555
C23E O21E 1_555 1_555
C23P O21P 1_555 1_555
C24K C23K 1_555 1_555
C24V C23V 1_555 1_555
C24M C23M 1_555 1_555
C24E C23E 1_555 1_555
C24P C23P 1_555 1_555
O22K Zn5N 1_555 1_555
O22V Zn5 1_555 1_555
O22M Zn5E 1_555 1_555
O22E C24E 1_555 1_555
O22P Zn5K 1_555 1_555
O22H Zn5O 1_555 1_555
O22C Zn5R 1_555 1_555
O23K Zn5V 1_555 1_555
O23V Zn5K 1_555 1_555
O23M Zn5 1_555 1_555
O23E C24E 1_555 1_555
O23P Zn5E 1_555 1_555
O23C Zn5N 1_555 1_555
O23B Zn5O 1_555 1_555
O23G Zn5R 1_555 1_555
O24E Zn4E 1_555 1_555
O24K Zn4K 1_555 1_555
O24V Zn4V 1_555 1_555
O24M Zn4M 1_555 1_555
O24P Zn4P 1_555 1_555
O25E Zn4E 1_555 1_555
O25K Zn4K 1_555 1_555
O25V Zn4V 1_555 1_555
O25M Zn4M 1_555 1_555
O25P Zn4P 1_555 1_555
O4 Zn4E 1_555 1_555
O9 C9 1_555 1_555
O20 Zn3N 1_555 1_555
C3 C7 1_555 1_555
C11 C12 1_555 1_555
C11 C15 1_555 1_555
C17 C18 1_555 1_555
C17 C19 1_555 1_555
C22 C23 1_555 1_555
Zn1O O20N 1_555 1_555
Zn1N O20N 1_555 1_555
Zn3E O20R 1_555 1_555
Zn3K O20T 1_555 1_555
Zn3S O20D 1_555 1_555
Zn3U O20J 1_555 1_555
Zn3A O20N 1_555 1_555
Zn3R O20D 1_555 1_555
Zn3T O20J 1_555 1_555
Zn3D O20R 1_555 1_555
Zn4N O4N 1_555 1_555
Zn4S O4M 1_555 1_555
Zn4U O4O 1_555 1_555
O2K C20K 1_555 1_555
O2E C20E 1_555 1_555
O8E C4E 1_555 1_555
O8K C4K 1_555 1_555
O9E C9E 1_555 1_555
O9K C9K 1_555 1_555
O12E C14E 1_555 1_555
O12O C14O 1_555 1_555
C3E C7E 1_555 1_555
C3K C7K 1_555 1_555
C3N C7N 1_555 1_555
C3O C7O 1_555 1_555
C3R C7R 1_555 1_555
C4E C7E 1_555 1_555
C4K C7K 1_555 1_555
C5E C8E 1_555 1_555
C5K C8K 1_555 1_555
C5N C8N 1_555 1_555
C5O C8O 1_555 1_555
C11K C12K 1_555 1_555
C11K C15K 1_555 1_555
C11E C12E 1_555 1_555
C11E C15E 1_555 1_555
C11O C12O 1_555 1_555
C11O C15O 1_555 1_555
C11R C12R 1_555 1_555
C11R C15R 1_555 1_555
C11T C12T 1_555 1_555
C11T C15T 1_555 1_555
C12K C16K 1_555 1_555
C12E C16E 1_555 1_555
C14E C19E 1_555 1_555
C14K C19K 1_555 1_555
C14O C19O 1_555 1_555
C14R C19R 1_555 1_555
C14T C19T 1_555 1_555
C17E C18E 1_555 1_555
C17E C19E 1_555 1_555
C17K C18K 1_555 1_555
C17K C19K 1_555 1_555
C17O C18O 1_555 1_555
C17O C19O 1_555 1_555
C17R C18R 1_555 1_555
C17R C19R 1_555 1_555
C17T C18T 1_555 1_555
C17T C19T 1_555 1_555
C20K C21K 1_555 1_555
C20E C21E 1_555 1_555
C22K C23K 1_555 1_555
C22V C23V 1_555 1_555
C22M C23M 1_555 1_555
C22E C23E 1_555 1_555
C22P C23P 1_555 1_555
C24K O22K 1_555 1_555
C24K O23K 1_555 1_555
C24V O22V 1_555 1_555
C24V O23V 1_555 1_555
C24M O22M 1_555 1_555
C24M O23M 1_555 1_555
C24P O22P 1_555 1_555
C24P O23P 1_555 1_555

#END
