
#######################################################################
#
#                 Cambridge Crystallographic Data Centre
#                                CCDC 
#
#######################################################################
#
# If this CIF has been generated from an entry in the Cambridge 
# Structural Database, then it will include bibliographic, chemical, 
# crystal, experimental, refinement or atomic coordinate data resulting 
# from the CCDC's data processing and validation procedures.
#
#######################################################################

data_YEMLOS
_chemical_formula_moiety         '(C12 H26 Fe2 N4 O13 P4)n'
_symmetry_cell_setting           triclinic
_symmetry_space_group_name_H-M   'P -1'
_symmetry_Int_Tables_number      2
_space_group_name_Hall           '-P 1'
loop_
_symmetry_equiv_pos_site_id
_symmetry_equiv_pos_as_xyz
1 x,y,z
2 -x,-y,-z
_cell_length_a                   8.3081(7)
_cell_length_b                   9.1647(7)
_cell_length_c                   9.1839(7)
_cell_angle_alpha                62.781(1)
_cell_angle_beta                 79.029(1)
_cell_angle_gamma                87.088(1)
_cell_volume                     609.948
loop_
_atom_site_label
_atom_site_type_symbol
_atom_site_fract_x
_atom_site_fract_y
_atom_site_fract_z
Fe1 Fe 0.75944(7) 0.42363(7) 0.57038(7)
P1 P 0.42074(13) 0.46684(13) 0.75806(13)
P2 P 0.94306(12) 0.74802(13) 0.53460(13)
O1 O 0.5580(4) 0.3523(4) 0.7486(4)
O2 O 0.2973(4) 0.4769(5) 0.6521(4)
O3 O 0.8726(4) 0.5717(4) 0.6214(4)
O4 O 1.1009(3) 0.7673(4) 0.4085(4)
O5 O 0.4814(4) 0.6320(4) 0.7291(4)
O6 O 0.9580(3) 0.8059(3) 0.6610(4)
N1 N 0.1484(4) 0.4086(4) 1.0255(4)
N2 N 0.6373(4) 0.8963(4) 0.4845(4)
C1 C 0.3158(5) 0.3551(5) 0.9757(5)
H1 H 0.3052 0.2403 1.0022
H2 H 0.3866 0.3618 1.0453
C2 C 0.8041(5) 0.8766(5) 0.3986(5)
H3 H 0.8567 0.9848 0.3290
H4 H 0.7893 0.8305 0.3254
C3 C 0.0194(5) 0.3696(5) 0.9523(5)
H5 H 0.0187 0.2536 0.9820
H6 H 0.0449 0.4311 0.8317
C4 C 0.1481(5) 0.5866(5) 0.9836(5)
H7 H 0.1764 0.6527 0.8637
H8 H 0.2298 0.6103 1.0333
C5 C 0.5223(5) 0.9623(5) 0.3620(5)
H9 H 0.5128 0.8863 0.3171
H10 H 0.5670 1.0664 0.2701
C6 C 0.6467(5) 1.0137(5) 0.5556(5)
H11 H 0.6936 1.1187 0.4672
H12 H 0.7180 0.9714 0.6371
Fe1A Fe -0.75944(7) 0.57637(7) 1.42962(7)
Fe1A_2 Fe 0.24056(7) 0.57637(7) 0.42962(7)
Fe1A_3 Fe 1.24056(7) 0.57637(7) 0.42962(7)
Fe1_2 Fe -0.24056(7) 0.42363(7) 1.57038(7)
Fe1A_4 Fe 0.24056(7) 1.57637(7) 0.42962(7)
Fe1_3 Fe -0.24056(7) 1.42363(7) 0.57038(7)
P1A P -0.42074(13) 0.53316(13) 1.24194(13)
P2A P 0.05694(12) 1.25198(13) 0.46540(13)
O1A O -0.5580(4) 0.6477(4) 1.2514(4)
O2A O -0.2973(4) 0.5231(5) 1.3479(4)
O2A_2 O 0.7027(4) 0.5231(5) 0.3479(4)
O2_2 O -0.7027(4) 0.4769(5) 1.6521(4)
O3A O 0.1274(4) 1.4283(4) 0.3786(4)
O3A_2 O -0.8726(4) 0.4283(4) 1.3786(4)
O4A O -0.1009(3) 1.2327(4) 0.5915(4)
O4A_2 O 0.8991(3) 0.2327(4) 0.5915(4)
O4_2 O -0.8991(3) 0.7673(4) 1.4085(4)
O5A O -0.4814(4) 0.3680(4) 1.2709(4)
O6A O 0.0420(3) 1.1941(3) 0.3390(4)
N1A N -0.1484(4) 0.5914(4) 0.9745(4)
N2A N 0.3627(4) 1.1037(4) 0.5155(4)
C1A C -0.3158(5) 0.6449(5) 1.0243(5)
H1A H -0.3052 0.7597 0.9978
H2A H -0.3866 0.6382 0.9547
C2A C 0.1959(5) 1.1234(5) 0.6014(5)
H3A H 0.1433 1.0152 0.6710
H4A H 0.2107 1.1695 0.6746
C3A C -0.0194(5) 0.6304(5) 1.0477(5)
H5A H -0.0187 0.7464 1.0180
H6A H -0.0449 0.5689 1.1683
C4A C -0.1481(5) 0.4134(5) 1.0164(5)
H7A H -0.1764 0.3473 1.1363
H8A H -0.2298 0.3897 0.9667
C5A C 0.4777(5) 1.0377(5) 0.6380(5)
H9A H 0.4872 1.1137 0.6829
H10A H 0.4330 0.9336 0.7299
C6A C 0.3533(5) 0.9863(5) 0.4444(5)
H11A H 0.3064 0.8813 0.5328
H12A H 0.2820 1.0286 0.3629
O7 O 0.8058(11) 0.0393(9) 0.9390(9)
loop_
_geom_bond_atom_site_label_1
_geom_bond_atom_site_label_2
_geom_bond_site_symmetry_1
_geom_bond_site_symmetry_2
Fe1 O1 1_555 1_555
P1 O1 1_555 1_555
P2 O3 1_555 1_555
O2 P1 1_555 1_555
O3 Fe1 1_555 1_555
O4 P2 1_555 1_555
O5 P1 1_555 1_555
O6 P2 1_555 1_555
N1 C1 1_555 1_555
N2 C2 1_555 1_555
C1 P1 1_555 1_555
H1 C1 1_555 1_555
H2 C1 1_555 1_555
C2 P2 1_555 1_555
H3 C2 1_555 1_555
H4 C2 1_555 1_555
C3 N1 1_555 1_555
H5 C3 1_555 1_555
H6 C3 1_555 1_555
C4 N1 1_555 1_555
H7 C4 1_555 1_555
H8 C4 1_555 1_555
C5 N2 1_555 1_555
H9 C5 1_555 1_555
H10 C5 1_555 1_555
C6 N2 1_555 1_555
H11 C6 1_555 1_555
H12 C6 1_555 1_555
Fe1A O1A 1_555 1_555
Fe1A_2 O2 1_555 1_555
Fe1A_3 O4 1_555 1_555
Fe1_2 O2A 1_555 1_555
Fe1A_4 O3A 1_555 1_555
Fe1_3 O4A 1_555 1_555
P1A O1A 1_555 1_555
P2A O3A 1_555 1_555
O2A P1A 1_555 1_555
O2A_2 Fe1 1_555 1_555
O2_2 Fe1A 1_555 1_555
O3A_2 Fe1A 1_555 1_555
O4A P2A 1_555 1_555
O4A_2 Fe1 1_555 1_555
O4_2 Fe1A 1_555 1_555
O5A P1A 1_555 1_555
O6A P2A 1_555 1_555
N1A C1A 1_555 1_555
N2A C2A 1_555 1_555
C1A P1A 1_555 1_555
H1A C1A 1_555 1_555
H2A C1A 1_555 1_555
C2A P2A 1_555 1_555
H3A C2A 1_555 1_555
H4A C2A 1_555 1_555
C3A C4 1_555 1_555
H5A C3A 1_555 1_555
H6A C3A 1_555 1_555
C4A C3 1_555 1_555
H7A C4A 1_555 1_555
H8A C4A 1_555 1_555
C5A C6 1_555 1_555
H9A C5A 1_555 1_555
H10A C5A 1_555 1_555
C6A C5 1_555 1_555
H11A C6A 1_555 1_555
H12A C6A 1_555 1_555
N1A C3A 1_555 1_555
N1A C4A 1_555 1_555
N2A C5A 1_555 1_555
N2A C6A 1_555 1_555

#END
