
#######################################################################
#
#                 Cambridge Crystallographic Data Centre
#                                CCDC 
#
#######################################################################
#
# If this CIF has been generated from an entry in the Cambridge 
# Structural Database, then it will include bibliographic, chemical, 
# crystal, experimental, refinement or atomic coordinate data resulting 
# from the CCDC's data processing and validation procedures.
#
#######################################################################

data_DACZUF
_chemical_formula_moiety         '(C34 H31 Co4 N9 O15)n'
_symmetry_cell_setting           monoclinic
_symmetry_space_group_name_H-M   'C 2/c'
_symmetry_Int_Tables_number      15
_space_group_name_Hall           '-C 2yc'
loop_
_symmetry_equiv_pos_site_id
_symmetry_equiv_pos_as_xyz
1 x,y,z
2 -x,y,1/2-z
3 1/2+x,1/2+y,z
4 1/2-x,1/2+y,1/2-z
5 -x,-y,-z
6 x,-y,1/2+z
7 1/2-x,1/2-y,-z
8 1/2+x,1/2-y,1/2+z
_cell_length_a                   34.791(18)
_cell_length_b                   10.290(4)
_cell_length_c                   13.669(5)
_cell_angle_alpha                90
_cell_angle_beta                 112.964(12)
_cell_angle_gamma                90
_cell_volume                     4505.69
loop_
_atom_site_label
_atom_site_type_symbol
_atom_site_fract_x
_atom_site_fract_y
_atom_site_fract_z
Co1 Co -0.0000 1.0207(3) 0.2500
Co2 Co 0.09697(6) 1.00608(19) 0.47105(18)
Co3 Co 0.0000 1.0000 0.5000
O1 O 0.0000 0.8163(18) 0.2500
C1 C 0.2993(5) 0.9889(18) 0.4238(15)
O2 O 0.4184(4) 0.7066(10) 0.5477(11)
N1 N 0.0961(4) 1.0138(12) 0.2998(11)
O3 O 0.0347(3) 1.0521(11) 0.4095(9)
N2 N 0.0563(4) 1.0115(12) 0.2279(10)
N3 N 0.0560(4) 1.0101(12) 0.1331(10)
C2 C 0.3782(5) 0.7193(16) 0.5089(12)
O4 O 0.3778(3) 1.3174(11) 0.4986(9)
N4 N 0.0958(4) 1.0047(14) 0.1398(11)
O5 O 0.3541(4) 0.6255(13) 0.4842(11)
C3 C 0.3259(5) 1.1040(15) 0.4539(14)
H1 H 0.3141 1.1865 0.4450
C4 C 0.3841(5) 0.9619(16) 0.5106(14)
H2 H 0.4130 0.9528 0.5408
C5 C 0.3156(4) 0.8721(17) 0.4401(13)
H3 H 0.2986 0.7989 0.4232
C6 C 0.3668(6) 1.0899(18) 0.4938(15)
C7 C 0.3616(5) 0.8587(19) 0.4858(13)
O6 O 0.4341(5) 1.1902(13) 0.5658(14)
O7 O 0.0000 1.2378(18) 0.2500
C8 C 0.2524(5) 1.0029(15) 0.3750(14)
O8 O 0.0049(4) 0.7961(14) 0.4785(10)
C9 C 0.2303(5) 0.937(2) 0.2760(16)
H4 H 0.2448 0.8944 0.2412
C10 C 0.2297(7) 1.066(3) 0.4224(19)
H5 H 0.2439 1.1070 0.4871
C11 C 0.1188(3) 1.0137(10) 0.2423(8)
C12 C 0.1657(5) 1.0137(16) 0.2904(13)
C13 C 0.1868(6) 1.071(2) 0.3792(17)
H6 H 0.1729 1.1154 0.4145
C14 C 0.1876(6) 0.939(2) 0.2337(17)
H7 H 0.1726 0.8954 0.1709
C15 C 0.3960(4) 1.2027(18) 0.5250(12)
Co2A Co -0.09697(6) 1.00608(19) 0.02895(18)
C1A C -0.2993(5) 0.9889(18) 0.0762(15)
O2A O -0.4184(4) 0.7066(10) -0.0477(11)
N1A N -0.0961(4) 1.0138(12) 0.2002(11)
O3A O -0.0347(3) 1.0521(11) 0.0905(9)
N2A N -0.0563(4) 1.0115(12) 0.2721(10)
N3A N -0.0560(4) 1.0101(12) 0.3669(10)
C2A C -0.3782(5) 0.7193(16) -0.0089(12)
O4A O -0.3778(3) 1.3174(11) 0.0014(9)
N4A N -0.0958(4) 1.0047(14) 0.3602(11)
O5A O -0.3541(4) 0.6255(13) 0.0158(11)
C3A C -0.3259(5) 1.1040(15) 0.0461(14)
H1A H -0.3141 1.1865 0.0550
C4A C -0.3841(5) 0.9619(16) -0.0106(14)
H2A H -0.4130 0.9528 -0.0408
C5A C -0.3156(4) 0.8721(17) 0.0599(13)
H3A H -0.2986 0.7989 0.0768
C6A C -0.3668(6) 1.0899(18) 0.0062(15)
C7A C -0.3616(5) 0.8587(19) 0.0142(13)
O6A O -0.4341(5) 1.1902(13) -0.0658(14)
C8A C -0.2524(5) 1.0029(15) 0.1250(14)
C9A C -0.2303(5) 0.937(2) 0.2240(16)
H4A H -0.2448 0.8944 0.2588
C10A C -0.2297(7) 1.066(3) 0.0776(19)
H5A H -0.2439 1.1070 0.0129
C11A C -0.1188(3) 1.0137(10) 0.2577(8)
C12A C -0.1657(5) 1.0137(16) 0.2096(13)
C13A C -0.1868(6) 1.071(2) 0.1208(17)
H6A H -0.1729 1.1154 0.0855
C14A C -0.1876(6) 0.939(2) 0.2663(17)
H7A H -0.1726 0.8954 0.3291
C15A C -0.3960(4) 1.2027(18) -0.0250(12)
O8D O -0.0049(4) 1.2039(14) 0.5215(10)
Co2D Co -0.09697(6) 0.99392(19) 0.52895(18)
Co2E Co 0.09697(6) 0.99392(19) -0.02895(18)
Co2F Co 0.40303(6) 0.49392(19) 0.52895(18)
Co2F_2 Co 0.40303(6) 1.49392(19) 0.52895(18)
Co2G Co -0.40303(6) 0.49392(19) -0.02895(18)
Co2G_2 Co -0.40303(6) 1.49392(19) -0.02895(18)
Co3A Co 0.0000 1.0000 0.0000
O2F O 0.0816(4) 0.7934(10) 0.4523(11)
O2G O -0.0816(4) 0.7934(10) 0.0477(11)
O3D O -0.0347(3) 0.9479(11) 0.5905(9)
N3E N 0.0560(4) 0.9899(12) 0.6331(10)
O4F O 0.1222(3) 1.1826(11) 0.5014(9)
O4G O -0.1222(3) 1.1826(11) -0.0014(9)
N4D N -0.0958(4) 0.9953(14) -0.1398(11)
N4E N 0.0958(4) 0.9953(14) 0.6398(11)
O5F O 0.1459(4) 0.8745(13) 0.5158(11)
O5G O -0.1459(4) 0.8745(13) -0.0158(11)
O9 O 0.0602(14) 0.695(5) 0.189(4)
C16 C 0.069(2) 0.565(8) 0.195(6)
C17 C 0.122(3) 0.382(10) 0.248(8)
H8 H 0.1096 0.3405 0.2927
H9 H 0.1513 0.3709 0.2787
H10 H 0.1104 0.3425 0.1789
C18 C 0.035(3) 0.467(10) 0.152(8)
H11 H 0.0163 0.4744 0.1867
H12 H 0.0476 0.3816 0.1641
H13 H 0.0208 0.4807 0.0771
N5 N 0.1091(19) 0.550(6) 0.237(4)
C19 C 0.146(2) 0.642(8) 0.274(6)
H14 H 0.1449 0.6950 0.2152
H15 H 0.1711 0.5930 0.3002
H16 H 0.1442 0.6965 0.3292
loop_
_geom_bond_atom_site_label_1
_geom_bond_atom_site_label_2
_geom_bond_site_symmetry_1
_geom_bond_site_symmetry_2
Co1 O1 1_555 1_555
Co2 N1 1_555 1_555
Co3 O3 1_555 1_555
C1 C3 1_555 1_555
O2 C2 1_555 1_555
N1 N2 1_555 1_555
O3 Co1 1_555 1_555
N2 Co1 1_555 1_555
N3 N2 1_555 1_555
C2 O5 1_555 1_555
O4 C15 1_555 1_555
N4 N3 1_555 1_555
O5 Co2F 1_555 1_555
C3 H1 1_555 1_555
C4 H2 1_555 1_555
C5 C1 1_555 1_555
H3 C5 1_555 1_555
C6 C3 1_555 1_555
C7 C2 1_555 1_555
O6 C15 1_555 1_555
O7 Co1 1_555 1_555
C8 C1 1_555 1_555
O8 Co3 1_555 1_555
C9 C8 1_555 1_555
H4 C9 1_555 1_555
C10 C8 1_555 1_555
H5 C10 1_555 1_555
C11 N1 1_555 1_555
C12 C11 1_555 1_555
C13 C10 1_555 1_555
H6 C13 1_555 1_555
C14 C9 1_555 1_555
H7 C14 1_555 1_555
C15 C6 1_555 1_555
O9 C16 1_555 1_555
C16 C18 1_555 1_555
C17 H8 1_555 1_555
H9 C17 1_555 1_555
H10 C17 1_555 1_555
C18 H11 1_555 1_555
H12 C18 1_555 1_555
H13 C18 1_555 1_555
N5 C16 1_555 1_555
C19 N5 1_555 1_555
H14 C19 1_555 1_555
H15 C19 1_555 1_555
H16 C19 1_555 1_555
Co2A N1A 1_555 1_555
C1A C3A 1_555 1_555
O2A C2A 1_555 1_555
N1A N2A 1_555 1_555
O3A Co1 1_555 1_555
N2A Co1 1_555 1_555
N3A Co3 1_555 1_555
C2A O5A 1_555 1_555
O4A C15A 1_555 1_555
N4A N3A 1_555 1_555
O5A Co2G 1_555 1_555
C3A H1A 1_555 1_555
C4A H2A 1_555 1_555
C5A C1A 1_555 1_555
H3A C5A 1_555 1_555
C6A C3A 1_555 1_555
C7A C2A 1_555 1_555
O6A C15A 1_555 1_555
C8A C1A 1_555 1_555
C9A C8A 1_555 1_555
H4A C9A 1_555 1_555
C10A C8A 1_555 1_555
H5A C10A 1_555 1_555
C11A N1A 1_555 1_555
C12A C11A 1_555 1_555
C13A C10A 1_555 1_555
H6A C13A 1_555 1_555
C14A C9A 1_555 1_555
H7A C14A 1_555 1_555
C15A C6A 1_555 1_555
O8D Co3 1_555 1_555
Co2D N4A 1_555 1_555
Co2E N4 1_555 1_555
Co2F O2 1_555 1_555
Co2F_2 O4 1_555 1_555
Co2G O2A 1_555 1_555
Co2G_2 O4A 1_555 1_555
Co3A N3 1_555 1_555
O2F Co2 1_555 1_555
O2G Co2A 1_555 1_555
O3D Co3 1_555 1_555
N3E Co3 1_555 1_555
O4F Co2 1_555 1_555
O4G Co2A 1_555 1_555
N4D Co2A 1_555 1_555
N4E Co2 1_555 1_555
O5F Co2 1_555 1_555
O5G Co2A 1_555 1_555
Co2 O3 1_555 1_555
N4 C11 1_555 1_555
C4 C6 1_555 1_555
C4 C7 1_555 1_555
C5 C7 1_555 1_555
C12 C13 1_555 1_555
C12 C14 1_555 1_555
C17 N5 1_555 1_555
Co2A O3A 1_555 1_555
O3A Co3A 1_555 1_555
N2A N3A 1_555 1_555
N4A C11A 1_555 1_555
C4A C6A 1_555 1_555
C4A C7A 1_555 1_555
C5A C7A 1_555 1_555
C12A C13A 1_555 1_555
C12A C14A 1_555 1_555
Co2D O3D 1_555 1_555
N3E N4E 1_555 1_555

#END
