
#######################################################################
#
#                 Cambridge Crystallographic Data Centre
#                                CCDC 
#
#######################################################################
#
# If this CIF has been generated from an entry in the Cambridge 
# Structural Database, then it will include bibliographic, chemical, 
# crystal, experimental, refinement or atomic coordinate data resulting 
# from the CCDC's data processing and validation procedures.
#
#######################################################################

data_DIYKED
_chemical_formula_moiety         'C18 H12 Cd4 N7 O13'
_symmetry_cell_setting           orthorhombic
_symmetry_space_group_name_H-M   'C m m a'
_symmetry_Int_Tables_number      67
_space_group_name_Hall           '-C 2a 2'
loop_
_symmetry_equiv_pos_site_id
_symmetry_equiv_pos_as_xyz
1 x,y,z
2 -x,1/2-y,z
3 x,-y,-z
4 -x,1/2+y,-z
5 1/2+x,1/2+y,z
6 1/2-x,-y,z
7 1/2+x,1/2-y,-z
8 1/2-x,y,-z
9 -x,-y,-z
10 x,1/2+y,-z
11 -x,y,z
12 x,1/2-y,z
13 1/2-x,1/2-y,-z
14 1/2+x,y,-z
15 1/2-x,1/2+y,z
16 1/2+x,-y,z
_cell_length_a                   6.7119(7)
_cell_length_b                   24.876(3)
_cell_length_c                   14.0647(17)
_cell_angle_alpha                90
_cell_angle_beta                 90
_cell_angle_gamma                90
_cell_volume                     2348.32
loop_
_atom_site_label
_atom_site_type_symbol
_atom_site_fract_x
_atom_site_fract_y
_atom_site_fract_z
O5 O 0.221(7) -0.055(3) 0.652(7)
C1 C 0.0000 0.1646(5) 0.0187(9)
H1 H -0.0000 0.1963 -0.0191
C2 C -0.0000 0.1159(6) -0.0263(9)
H2 H -0.0000 0.1142 -0.0938
C3 C 0.0000 0.0703(5) 0.0255(10)
C4 C 0.0000 0.0732(6) 0.1244(11)
H3 H 0.0000 0.0416 0.1622
C5 C 0.0000 0.1247(6) 0.1667(9)
H4 H 0.0000 0.1277 0.2340
C6 C 0.0000 0.2500 0.3836(12)
C7 C 0.0000 0.2500 0.4904(11)
C8 C 0.0000 0.2035(5) 0.5401(8)
H5 H 0.0000 0.1704 0.5064
C9 C 0.0000 0.2025(5) 0.6391(9)
C10 C 0.0000 0.2500 0.6904(9)
C11 C 0.0000 0.2500 0.7988(9)
Cd1 Cd 0.0000 0.2500 0.19228(7)
N1 N 0.0000 0.1698(4) 0.1131(7)
N2 N 0.0000 0.0194(5) -0.0255(8)
N3 N 0.0000 0.1511(13) 0.678(2)
O1 O 0.0000 0.2943(4) 0.3411(6)
O2 O 0.1606(13) 0.2500 0.8396(6)
O3 O 0.0000 0.1449(8) 0.7607(13)
O4 O 0.113(11) 0.116(2) 0.636(4)
C1B C -0.0000 -0.1646(5) -0.0187(9)
H1B H 0.0000 -0.1963 0.0191
C2B C 0.0000 -0.1159(6) 0.0263(9)
H2B H 0.0000 -0.1142 0.0938
C3B C -0.0000 -0.0703(5) -0.0255(10)
C4B C 0.0000 -0.0732(6) -0.1244(11)
H3B H -0.0000 -0.0416 -0.1622
C5B C -0.0000 -0.1247(6) -0.1667(9)
H4B H -0.0000 -0.1277 -0.2340
N1B N 0.0000 -0.1698(4) -0.1131(7)
N2B N -0.0000 -0.0194(5) 0.0255(8)
C8A C 0.0000 0.2965(5) 0.5401(8)
H5A H 0.0000 0.3296 0.5064
C9A C 0.0000 0.2975(5) 0.6391(9)
N3A N 0.0000 0.3489(13) 0.678(2)
O1A O 0.0000 0.2057(4) 0.3411(6)
O2A O -0.1606(13) 0.2500 0.8396(6)
O3A O 0.0000 0.3551(8) 0.7607(13)
O4A O -0.113(11) 0.384(2) 0.636(4)
O4J O -0.113(11) 0.116(2) 0.636(4)
O4K O 0.113(11) 0.384(2) 0.636(4)
Cd1B Cd -0.0000 -0.2500 -0.19228(7)
Cd1F Cd -0.5000 0.2500 0.80772(7)
Cd1F_2 Cd 0.5000 0.2500 0.80772(7)
N1A N -0.0000 0.3302(4) 0.1131(7)
O2F O -0.3394(13) 0.2500 0.1604(6)
O2G O 0.3394(13) 0.2500 0.1604(6)
loop_
_geom_bond_atom_site_label_1
_geom_bond_atom_site_label_2
_geom_bond_site_symmetry_1
_geom_bond_site_symmetry_2
C1 H1 1_555 1_555
C2 C1 1_555 1_555
H2 C2 1_555 1_555
C3 C2 1_555 1_555
C4 C3 1_555 1_555
H3 C4 1_555 1_555
C5 C4 1_555 1_555
H4 C5 1_555 1_555
C6 C7 1_555 1_555
C7 C8 1_555 1_555
C8 H5 1_555 1_555
C9 C8 1_555 1_555
C10 C9 1_555 1_555
C11 C10 1_555 1_555
Cd1 N1 1_555 1_555
N1 C1 1_555 1_555
N2 C3 1_555 1_555
N3 C9 1_555 1_555
O1 C6 1_555 1_555
O2 C11 1_555 1_555
O3 N3 1_555 1_555
O4 N3 1_555 1_555
C1B H1B 1_555 1_555
C2B C1B 1_555 1_555
H2B C2B 1_555 1_555
C3B C2B 1_555 1_555
C4B C3B 1_555 1_555
H3B C4B 1_555 1_555
C5B C4B 1_555 1_555
H4B C5B 1_555 1_555
N1B C1B 1_555 1_555
N2B N2 1_555 1_555
C8A C7 1_555 1_555
H5A C8A 1_555 1_555
C9A C10 1_555 1_555
N3A C9A 1_555 1_555
O1A C6 1_555 1_555
O2A C11 1_555 1_555
O3A N3A 1_555 1_555
O4A N3A 1_555 1_555
O4J N3 1_555 1_555
O4K N3A 1_555 1_555
Cd1B N1B 1_555 1_555
Cd1F O2A 1_555 1_555
Cd1F_2 O2 1_555 1_555
N1A Cd1 1_555 1_555
O2F Cd1 1_555 1_555
O2G Cd1 1_555 1_555
C5 N1 1_555 1_555
Cd1 O1 1_555 1_555
Cd1 O1A 1_555 1_555
C3B N2B 1_555 1_555
C5B N1B 1_555 1_555
C8A C9A 1_555 1_555

#END
