
#######################################################################
#
#                 Cambridge Crystallographic Data Centre
#                                CCDC 
#
#######################################################################
#
# If this CIF has been generated from an entry in the Cambridge 
# Structural Database, then it will include bibliographic, chemical, 
# crystal, experimental, refinement or atomic coordinate data resulting 
# from the CCDC's data processing and validation procedures.
#
#######################################################################

data_LETFEW
_chemical_formula_moiety         '(C12 H12 Cu8 N18 2+)n'
_symmetry_cell_setting           orthorhombic
_symmetry_space_group_name_H-M   'F d d 2'
_symmetry_Int_Tables_number      43
_space_group_name_Hall           'F 2 -2d'
loop_
_symmetry_equiv_pos_site_id
_symmetry_equiv_pos_as_xyz
1 x,y,z
2 -x,-y,z
3 1/4+x,1/4-y,1/4+z
4 1/4-x,1/4+y,1/4+z
5 x,1/2+y,1/2+z
6 -x,1/2-y,1/2+z
7 1/4+x,3/4-y,3/4+z
8 1/4-x,3/4+y,3/4+z
9 1/2+x,y,1/2+z
10 1/2-x,-y,1/2+z
11 3/4+x,1/4-y,3/4+z
12 3/4-x,1/4+y,3/4+z
13 1/2+x,1/2+y,z
14 1/2-x,1/2-y,z
15 3/4+x,3/4-y,1/4+z
16 3/4-x,3/4+y,1/4+z
_cell_length_a                   6.5561(6)
_cell_length_b                   21.983(2)
_cell_length_c                   39.775(4)
_cell_angle_alpha                90
_cell_angle_beta                 90
_cell_angle_gamma                90
_cell_volume                     5732.48
loop_
_atom_site_label
_atom_site_type_symbol
_atom_site_fract_x
_atom_site_fract_y
_atom_site_fract_z
_atom_site_U_iso_or_equiv
_atom_site_thermal_displace_type
Cu4 Cu 0.2500 0.2500 0.50104(4) 0.0137 Uani
Cu5 Cu 0.0000 0.0000 0.46658(5) 0.0219 Uani
Cu6 Cu 0.0457(2) 0.07669(6) 0.39289(3) 0.0160 Uani
N6 N 0.1635(14) 0.1772(4) 0.4757(2) 0.0173 Uani
N7 N 0.0757(11) 0.0817(3) 0.46520(19) 0.0084 Uani
N8 N 0.0920(11) 0.1143(3) 0.43434(18) 0.0077 Uani
N9 N 0.2676(11) 0.2185(3) 0.60394(17) 0.0058 Uani
N10 N 0.2500 0.2500 0.5506(3) 0.0147 Uani
C4 C 0.1177(15) 0.1192(5) 0.4893(2) 0.0150 Uani
H4 H 0.1178 0.1093 0.5125 0.0180 Uiso
C5 C 0.1374(16) 0.1690(4) 0.4426(2) 0.0143 Uani
H5 H 0.1512 0.2009 0.4267 0.0170 Uiso
C6 C 0.2675(13) 0.2007(3) 0.5721(2) 0.0040 Uani
H6 H 0.2781 0.1596 0.5650 0.0050 Uiso
Cu5L Cu 0.5000 0.5000 0.46658(5) 0.0219 Uani
Cu6M Cu 0.4543(2) 0.42331(6) 0.39289(3) 0.0160 Uani
Cu6B Cu 0.2957(2) 0.17331(6) 0.64289(3) 0.0160 Uani
Cu6C Cu 0.2043(2) 0.32669(6) 0.64289(3) 0.0160 Uani
N6M N 0.3365(14) 0.3228(4) 0.4757(2) 0.0173 Uani
N7M N 0.4243(11) 0.4183(3) 0.46520(19) 0.0084 Uani
N7A N -0.0757(11) -0.0817(3) 0.46520(19) 0.0084 Uani
N8M N 0.4080(11) 0.3857(3) 0.43434(18) 0.0077 Uani
N9M N 0.2324(11) 0.2815(3) 0.60394(17) 0.0058 Uani
N9J N 0.0176(11) 0.0315(3) 0.35394(17) 0.0058 Uani
N9K N 0.4824(11) 0.4685(3) 0.35394(17) 0.0058 Uani
C4M C 0.3823(15) 0.3808(5) 0.4893(2) 0.0150 Uani
H4M H 0.3822 0.3907 0.5125 0.0180 Uiso
C5M C 0.3626(16) 0.3310(4) 0.4426(2) 0.0143 Uani
H5M H 0.3488 0.2991 0.4267 0.0170 Uiso
C6M C 0.2325(13) 0.2993(3) 0.5721(2) 0.0040 Uani
H6M H 0.2219 0.3404 0.5650 0.0050 Uiso
Cu1 Cu 0.5000 0.0000 0.28203(6) 0.0521 Uani
Cu2 Cu 0.2500 0.2500 0.24798(8) 0.0724 Uani
Cu3 Cu 0.3158(3) 0.17330(12) 0.17330(5) 0.0494 Uani
N1 N 0.415(2) 0.0719(5) 0.2569(4) 0.0590 Uani
N2 N 0.353(2) 0.1392(7) 0.2150(4) 0.0533 Uani
N3 N 0.349(3) 0.1684(8) 0.2445(4) 0.0623 Uani
N4 N 0.525(2) 0.0341(6) 0.3839(3) 0.0447 Uani
N5 N 0.5000 0.0000 0.3332(4) 0.0373 Uani
C1 C 0.397(3) 0.0852(8) 0.2218(4) 0.0537 Uani
H1 H 0.4169 0.0552 0.2049 0.0650 Uiso
C2 C 0.376(3) 0.1316(10) 0.2696(4) 0.0677 Uani
H2 H 0.3715 0.1426 0.2927 0.0810 Uiso
C3 C 0.533(2) 0.0446(7) 0.3524(4) 0.0370 Uani
H3 H 0.5628 0.0839 0.3438 0.0440 Uiso
Cu2A Cu 0.7500 -0.2500 0.24798(8) 0.0724 Uani
Cu3A Cu 0.6842(3) -0.17330(12) 0.17330(5) 0.0494 Uani
Cu3B Cu 0.5658(3) 0.07670(12) 0.42330(5) 0.0494 Uani
Cu3O Cu 0.4342(3) -0.07670(12) 0.42330(5) 0.0494 Uani
N1A N 0.585(2) -0.0719(5) 0.2569(4) 0.0590 Uani
N2A N 0.647(2) -0.1392(7) 0.2150(4) 0.0533 Uani
N3A N 0.651(3) -0.1684(8) 0.2445(4) 0.0623 Uani
N3M N 0.151(3) 0.3316(8) 0.2445(4) 0.0623 Uani
N4A N 0.475(2) -0.0341(6) 0.3839(3) 0.0447 Uani
N4J N 0.275(2) 0.2159(6) 0.1339(3) 0.0447 Uani
N4G N 0.725(2) -0.2159(6) 0.1339(3) 0.0447 Uani
C1A C 0.603(3) -0.0852(8) 0.2218(4) 0.0537 Uani
H1A H 0.5831 -0.0552 0.2049 0.0650 Uiso
C2A C 0.624(3) -0.1316(10) 0.2696(4) 0.0677 Uani
H2A H 0.6285 -0.1426 0.2927 0.0810 Uiso
C3A C 0.467(2) -0.0446(7) 0.3524(4) 0.0370 Uani
H3A H 0.4372 -0.0839 0.3438 0.0440 Uiso
loop_
_atom_site_aniso_label
_atom_site_aniso_U_11
_atom_site_aniso_U_22
_atom_site_aniso_U_33
_atom_site_aniso_U_23
_atom_site_aniso_U_13
_atom_site_aniso_U_12
Cu4 0.0165(8) 0.0176(8) 0.0069(7) 0.000 0.000 0.0047(7)
Cu5 0.0299(10) 0.0133(8) 0.0226(9) 0.000 0.000 0.0016(8)
Cu6 0.0235(6) 0.0140(5) 0.0104(5) -0.0109(4) 0.0002(5) -0.0028(5)
N6 0.018(2) 0.017(2) 0.017(2) -0.0020(17) -0.0007(17) -0.0009(17)
N7 0.010(2) 0.007(2) 0.0082(19) -0.0014(16) 0.0014(16) -0.0004(16)
N8 0.009(2) 0.007(2) 0.007(2) 0.0017(16) -0.0033(16) 0.0017(16)
N9 0.0054 0.006 0.006 -0.0014 0.0003 -0.0002
N10 0.033 0.001 0.01 0 0 0.001
C4 0.016(2) 0.015(2) 0.014(2) -0.0033(18) 0.0004(18) 0.0003(18)
C5 0.016(2) 0.012(2) 0.015(2) 0.0019(17) 0.0001(18) 0.0016(18)
C6 0.005 0.002 0.005 0.0003 0.0001 0.001
Cu5L 0.0299 0.0133 0.0226 0 0 0.0016
Cu6M 0.0235 0.014 0.0104 0.0109 -0.0002 -0.0028
Cu6B 0.0235 0.014 0.0104 0.0109 0.0002 0.0028
Cu6C 0.0235 0.014 0.0104 -0.0109 -0.0002 0.0028
N6M 0.018 0.017 0.017 0.002 0.0007 -0.0009
N7M 0.01 0.007 0.0082 0.0014 -0.0014 -0.0004
N7A 0.01 0.007 0.0082 0.0014 -0.0014 -0.0004
N8M 0.009 0.007 0.007 -0.0017 0.0033 0.0017
N9M 0.0054 0.006 0.006 0.0014 -0.0003 -0.0002
N9J 0.0054(19) 0.006(2) 0.006(2) 0.0014(16) 0.0003(16) 0.0002(16)
N9K 0.0054 0.006 0.006 -0.0014 -0.0003 0.0002
C4M 0.016 0.015 0.014 0.0033 -0.0004 0.0003
C5M 0.016 0.012 0.015 -0.0019 -0.0001 0.0016
C6M 0.005 0.002 0.005 -0.0003 -0.0001 0.001
Cu1 0.0367(15) 0.090(2) 0.0297(13) 0.000 0.000 0.0319(16)
Cu2 0.0471(18) 0.127(4) 0.0430(17) 0.000 0.000 0.042(2)
Cu3 0.0316(10) 0.0788(15) 0.0378(10) 0.0194(10) -0.0045(8) -0.0029(10)
N1 0.058(4) 0.060(4) 0.059(4) 0.001(2) 0.000(2) 0.000(2)
N2 0.054(4) 0.053(4) 0.053(4) 0.000(2) -0.001(2) 0.001(2)
N3 0.062(5) 0.063(5) 0.062(4) 0.001(2) 0.000(2) 0.000(2)
N4 0.044 0.046 0.044 0.0008 -0.0003 -0.0004
N5 0.037 0.038 0.037 0 0 0.002
C1 0.053(5) 0.054(5) 0.054(5) 0.001(2) 0.000(2) 0.000(2)
C2 0.068(6) 0.068(6) 0.067(6) 0.001(2) 0.000(2) 0.001(2)
C3 0.037 0.035 0.039 0.0009 -0.0019 -0.0024
Cu2A 0.0471 0.127 0.043 0 0 0.042
Cu3A 0.0316 0.0788 0.0378 -0.0194 0.0045 -0.0029
Cu3B 0.0316 0.0788 0.0378 -0.0194 -0.0045 0.0029
Cu3O 0.0316 0.0788 0.0378 0.0194 0.0045 0.0029
N1A 0.058 0.06 0.059 -0.001 0 0
N2A 0.054 0.053 0.053 0 0.001 0.001
N3A 0.062 0.063 0.062 -0.001 0 0
N3M 0.062 0.063 0.062 -0.001 0 0
N4A 0.044 0.046 0.044 -0.0008 0.0003 -0.0004
N4J 0.044(3) 0.046(3) 0.044(3) -0.0008(19) -0.0003(19) 0.0004(19)
N4G 0.044 0.046 0.044 0.0008 0.0003 0.0004
C1A 0.053 0.054 0.054 -0.001 0 0
C2A 0.068 0.068 0.067 -0.001 0 0.001
C3A 0.037 0.035 0.039 -0.0009 0.0019 -0.0024
loop_
_geom_bond_atom_site_label_1
_geom_bond_atom_site_label_2
_geom_bond_site_symmetry_1
_geom_bond_site_symmetry_2
Cu1 N1 1_555 1_555
Cu2 N3 1_555 1_555
Cu3 N2 1_555 1_555
Cu4 N6 1_555 1_555
Cu5 N7 1_555 1_555
Cu6 N8 1_555 1_555
N1 C1 1_555 1_555
N2 N3 1_555 1_555
N3 C2 1_555 1_555
N4 C3 1_555 1_555
N5 Cu1 1_555 1_555
N6 C4 1_555 1_555
N7 N8 1_555 1_555
N8 C5 1_555 1_555
N9 C6 1_555 1_555
N10 Cu4 1_555 1_555
C1 N2 1_555 1_555
H1 C1 1_555 1_555
C2 N1 1_555 1_555
H2 C2 1_555 1_555
C3 N5 1_555 1_555
H3 C3 1_555 1_555
C4 N7 1_555 1_555
H4 C4 1_555 1_555
C5 N6 1_555 1_555
H5 C5 1_555 1_555
C6 N10 1_555 1_555
H6 C6 1_555 1_555
Cu2A N3A 1_555 1_555
Cu3A N2A 1_555 1_555
Cu3B N4 1_555 1_555
Cu3O N4A 1_555 1_555
Cu5L N7M 1_555 1_555
Cu6M N8M 1_555 1_555
Cu6B N9 1_555 1_555
Cu6C N9M 1_555 1_555
N1A Cu1 1_555 1_555
N2A N3A 1_555 1_555
N3A C2A 1_555 1_555
N3M Cu2 1_555 1_555
N4A N4 1_555 1_555
N4J Cu3 1_555 1_555
N4G Cu3A 1_555 1_555
N6M Cu4 1_555 1_555
N7M N8M 1_555 1_555
N7A Cu5 1_555 1_555
N8M C5M 1_555 1_555
N9M N9 1_555 1_555
N9J Cu6 1_555 1_555
N9K Cu6M 1_555 1_555
C1A N1A 1_555 1_555
H1A C1A 1_555 1_555
C2A N1A 1_555 1_555
H2A C2A 1_555 1_555
C3A N5 1_555 1_555
H3A C3A 1_555 1_555
C4M N6M 1_555 1_555
H4M C4M 1_555 1_555
C5M N6M 1_555 1_555
H5M C5M 1_555 1_555
C6M N10 1_555 1_555
H6M C6M 1_555 1_555
N2A C1A 1_555 1_555
N4A C3A 1_555 1_555
N7M C4M 1_555 1_555
N9M C6M 1_555 1_555

#END
