
#######################################################################
#
#                 Cambridge Crystallographic Data Centre
#                                CCDC 
#
#######################################################################
#
# If this CIF has been generated from an entry in the Cambridge 
# Structural Database, then it will include bibliographic, chemical, 
# crystal, experimental, refinement or atomic coordinate data resulting 
# from the CCDC's data processing and validation procedures.
#
#######################################################################

data_JIVSIR01
_chemical_formula_moiety         'C50 H32 Cl2 Cu1 N2 Nd11 O35'
_symmetry_cell_setting           monoclinic
_symmetry_space_group_name_H-M   'C 2/m'
_symmetry_Int_Tables_number      12
_space_group_name_Hall           '-C 2y'
loop_
_symmetry_equiv_pos_site_id
_symmetry_equiv_pos_as_xyz
1 x,y,z
2 1/2+x,1/2+y,z
3 -x,y,-z
4 1/2-x,1/2+y,-z
5 -x,-y,-z
6 1/2-x,1/2-y,-z
7 x,-y,z
8 1/2+x,1/2-y,z
_cell_length_a                   36.997(7)
_cell_length_b                   7.0551(14)
_cell_length_c                   6.2045(12)
_cell_angle_alpha                90
_cell_angle_beta                 97.75(3)
_cell_angle_gamma                90
_cell_volume                     1604.69
loop_
_atom_site_label
_atom_site_type_symbol
_atom_site_fract_x
_atom_site_fract_y
_atom_site_fract_z
Nd1 Nd 0.219591(14) -0.0000 0.52149(8)
Cu1 Cu 0.0000 0.0000 1.0000
O1 O 0.1793(2) 0.0000 0.8079(13)
O2 O 0.1525(3) 0.0579(15) 0.4857(17)
O3 O 0.2675(2) 0.0000 0.8411(13)
O4 O 0.30001(19) 0.3073(9) 0.7912(10)
O6 O 0.27595(18) 0.1532(9) 1.3771(12)
N1 N 0.04642(19) -0.0000 0.8987(14)
C1 C 0.0502(2) 0.0675(13) 0.6913(14)
H1 H 0.0291 0.1113 0.5957
C2 C 0.0842(2) 0.0713(19) 0.6237(12)
H2 H 0.0869 0.1136 0.4788
C3 C 0.11452(19) 0.0144(18) 0.7635(13)
C4 C 0.1108(2) -0.0487(16) 0.9702(13)
H3 H 0.1318 -0.0919 1.0665
C5 C 0.0767(2) -0.0499(11) 1.0384(12)
H4 H 0.0743 -0.0861 1.1857
C6 C 0.1508(3) 0.0000 0.6780(18)
C7 C 0.32548(18) -0.0000 1.2381(13)
C8 C 0.3274(2) 0.0867(11) 1.0328(13)
C9 C 0.3608(2) 0.0972(17) 0.9540(12)
H5 H 0.3621 0.1489 0.8118
C10 C 0.3923(2) 0.0329(18) 1.0806(15)
H6 H 0.4153 0.0373 1.0250
C11 C 0.39036(19) -0.0376(16) 1.2871(14)
H7 H 0.4123 -0.0768 1.3772
C12 C 0.3570(2) -0.0519(11) 1.3650(11)
H8 H 0.3560 -0.0989 1.5097
C13 C 0.2903(3) 0.0000 1.3318(17)
C14 C 0.2937(4) 0.147(2) 0.875(2)
Nd1D Nd -0.219591(14) 0.0000 1.47851(8)
Nd1E Nd 0.280409(14) 0.5000 0.47851(8)
Nd1_2 Nd 0.219591(14) 0.0000 1.52149(8)
Nd1E_2 Nd 0.280409(14) 0.5000 1.47851(8)
Nd1E_3 Nd 0.280409(14) -0.5000 0.47851(8)
Nd1E_4 Nd 0.280409(14) -0.5000 1.47851(8)
Nd1_3 Nd 0.219591(14) 0.0000 -0.47851(8)
Nd1E_5 Nd 0.280409(14) 0.5000 -0.52149(8)
Nd1_4 Nd 0.219591(14) 1.0000 0.52149(8)
Nd1_5 Nd 0.219591(14) 1.0000 -0.47851(8)
O1D O -0.1793(2) 0.0000 1.1921(13)
O2F O 0.1525(3) -0.0579(15) 0.4857(17)
O2D O -0.1525(3) -0.0579(15) 1.5143(17)
O2B O -0.1525(3) 0.0579(15) 1.5143(17)
O3E O 0.2325(2) 0.5000 0.1589(13)
O3D O -0.2675(2) 0.0000 1.1589(13)
O4F O 0.30001(19) -0.3073(9) 0.7912(10)
O4E O 0.19999(19) 0.1927(9) 0.2088(10)
O4C O 0.19999(19) 0.8073(9) 0.2088(10)
O4C_2 O 0.19999(19) -0.1927(9) 0.2088(10)
O4A O -0.19999(19) -0.1927(9) 1.7912(10)
O4G O -0.19999(19) 0.1927(9) 1.7912(10)
O6F O 0.27595(18) -0.1532(9) 1.3771(12)
O6E O 0.22405(18) 0.3468(9) -0.3771(12)
O6C O 0.22405(18) 0.6532(9) -0.3771(12)
O6_2 O 0.27595(18) 0.1532(9) 0.3771(12)
O6F_2 O 0.27595(18) -0.1532(9) 0.3771(12)
O6E_2 O 0.22405(18) 0.3468(9) 0.6229(12)
O6C_2 O 0.22405(18) -0.3468(9) 0.6229(12)
O6A O -0.22405(18) -0.3468(9) 1.3771(12)
O6G O -0.22405(18) 0.3468(9) 1.3771(12)
O6D O -0.27595(18) -0.1532(9) 1.6229(12)
O6B O -0.27595(18) 0.1532(9) 1.6229(12)
N1D N -0.04642(19) 0.0000 1.1013(14)
C1F C 0.0502(2) -0.0675(13) 0.6913(14)
C1D C -0.0502(2) -0.0675(13) 1.3087(14)
C1B C -0.0502(2) 0.0675(13) 1.3087(14)
H1F H 0.0291 -0.1113 0.5957
H1D H -0.0291 -0.1113 1.4043
H1B H -0.0291 0.1113 1.4043
C2F C 0.0842(2) -0.0713(19) 0.6237(12)
C2D C -0.0842(2) -0.0713(19) 1.3763(12)
C2B C -0.0842(2) 0.0713(19) 1.3763(12)
H2F H 0.0869 -0.1136 0.4788
H2D H -0.0869 -0.1136 1.5212
H2B H -0.0869 0.1136 1.5212
C3F C 0.11452(19) -0.0144(18) 0.7635(13)
C3D C -0.11452(19) -0.0144(18) 1.2365(13)
C3B C -0.11452(19) 0.0144(18) 1.2365(13)
C4F C 0.1108(2) 0.0487(16) 0.9702(13)
C4D C -0.1108(2) 0.0487(16) 1.0298(13)
C4B C -0.1108(2) -0.0487(16) 1.0298(13)
H3F H 0.1318 0.0919 1.0665
H3D H -0.1318 0.0919 0.9335
H3B H -0.1318 -0.0919 0.9335
C5F C 0.0767(2) 0.0499(11) 1.0384(12)
C5D C -0.0767(2) 0.0499(11) 0.9616(12)
C5B C -0.0767(2) -0.0499(11) 0.9616(12)
H4F H 0.0743 0.0861 1.1857
H4D H -0.0743 0.0861 0.8143
H4B H -0.0743 -0.0861 0.8143
C6D C -0.1508(3) 0.0000 1.3220(18)
C7E C 0.17452(18) 0.5000 -0.2381(13)
C8F C 0.3274(2) -0.0867(11) 1.0328(13)
C8E C 0.1726(2) 0.4133(11) -0.0328(13)
C8C C 0.1726(2) 0.5867(11) -0.0328(13)
C9F C 0.3608(2) -0.0972(17) 0.9540(12)
C9E C 0.1392(2) 0.4028(17) 0.0460(12)
C9C C 0.1392(2) 0.5972(17) 0.0460(12)
H5F H 0.3621 -0.1489 0.8118
H5E H 0.1379 0.3511 0.1882
H5C H 0.1379 0.6489 0.1882
C10F C 0.3923(2) -0.0329(18) 1.0806(15)
C10E C 0.1077(2) 0.4671(18) -0.0806(15)
C10C C 0.1077(2) 0.5329(18) -0.0806(15)
H6F H 0.4153 -0.0373 1.0250
H6E H 0.0847 0.4627 -0.0250
H6C H 0.0847 0.5373 -0.0250
C11F C 0.39036(19) 0.0376(16) 1.2871(14)
C11E C 0.10964(19) 0.5376(16) -0.2871(14)
C11C C 0.10964(19) 0.4624(16) -0.2871(14)
H7F H 0.4123 0.0768 1.3772
H7E H 0.0877 0.5768 -0.3772
H7C H 0.0877 0.4232 -0.3772
C12F C 0.3570(2) 0.0519(11) 1.3650(11)
C12E C 0.1430(2) 0.5519(11) -0.3650(11)
C12C C 0.1430(2) 0.4481(11) -0.3650(11)
H8F H 0.3560 0.0989 1.5097
H8E H 0.1440 0.5989 -0.5097
H8C H 0.1440 0.4011 -0.5097
C13E C 0.2097(3) 0.5000 -0.3318(17)
C14F C 0.2937(4) -0.147(2) 0.875(2)
C14E C 0.2063(4) 0.353(2) 0.125(2)
C14C C 0.2063(4) 0.647(2) 0.125(2)
Cl1 Cl 0.0138(3) 0.5000 0.2294(13)
O7 O 0.0000 0.5000 0.0000
O8 O 0.0314(5) 0.328(2) 0.293(3)
O9 O -0.0183(6) 0.5000 0.333(4)
Cl1D Cl -0.0138(3) 0.5000 -0.2294(13)
O8D O -0.0314(5) 0.672(2) -0.293(3)
O8B O -0.0314(5) 0.328(2) -0.293(3)
O8F O 0.0314(5) 0.672(2) 0.293(3)
O9D O 0.0183(6) 0.5000 -0.333(4)
loop_
_geom_bond_atom_site_label_1
_geom_bond_atom_site_label_2
_geom_bond_site_symmetry_1
_geom_bond_site_symmetry_2
Nd1 O1 1_555 1_555
Cu1 N1 1_555 1_555
O1 C6 1_555 1_555
O2 Nd1 1_555 1_555
O3 Nd1 1_555 1_555
O4 C14 1_555 1_555
O6 C13 1_555 1_555
N1 C1 1_555 1_555
C1 H1 1_555 1_555
C2 C1 1_555 1_555
H2 C2 1_555 1_555
C3 C2 1_555 1_555
C4 C3 1_555 1_555
H3 C4 1_555 1_555
C5 N1 1_555 1_555
H4 C5 1_555 1_555
C6 O2 1_555 1_555
C7 C8 1_555 1_555
C8 C9 1_555 1_555
C9 H5 1_555 1_555
C10 C9 1_555 1_555
H6 C10 1_555 1_555
C11 C10 1_555 1_555
H7 C11 1_555 1_555
C12 C7 1_555 1_555
H8 C12 1_555 1_555
C13 C7 1_555 1_555
C14 O3 1_555 1_555
Cl1 O7 1_555 1_555
O7 Cl1D 1_555 1_555
O8 Cl1 1_555 1_555
O9 Cl1 1_555 1_555
Nd1D O1D 1_555 1_555
Nd1E O4 1_555 1_555
Nd1_2 O6 1_555 1_555
Nd1E_2 O6 1_555 1_555
Nd1E_3 O4F 1_555 1_555
Nd1E_4 O6F 1_555 1_555
Nd1_3 O6E 1_555 1_555
Nd1E_5 O6E 1_555 1_555
Nd1_4 O4C 1_555 1_555
Nd1_5 O6C 1_555 1_555
O1D C6D 1_555 1_555
O2F Nd1 1_555 1_555
O2D Nd1D 1_555 1_555
O2B Nd1D 1_555 1_555
O3E Nd1E 1_555 1_555
O3D Nd1D 1_555 1_555
O4F C14F 1_555 1_555
O4E Nd1 1_555 1_555
O4C C14C 1_555 1_555
O4C_2 Nd1 1_555 1_555
O4A Nd1D 1_555 1_555
O4G Nd1D 1_555 1_555
O6F C13 1_555 1_555
O6E C13E 1_555 1_555
O6C Nd1E_5 1_555 1_555
O6_2 Nd1 1_555 1_555
O6F_2 Nd1 1_555 1_555
O6E_2 Nd1 1_555 1_555
O6C_2 Nd1 1_555 1_555
O6A Nd1D 1_555 1_555
O6G Nd1D 1_555 1_555
O6D Nd1D 1_555 1_555
O6B Nd1D 1_555 1_555
N1D Cu1 1_555 1_555
C1F N1 1_555 1_555
C1D N1D 1_555 1_555
C1B N1D 1_555 1_555
H1F C1F 1_555 1_555
H1D C1D 1_555 1_555
H1B C1B 1_555 1_555
C2F C1 1_555 1_555
C2D C1D 1_555 1_555
C2B C1D 1_555 1_555
H2F C2F 1_555 1_555
H2D C2D 1_555 1_555
H2B C2B 1_555 1_555
C3F C2 1_555 1_555
C3D C2D 1_555 1_555
C3B C2D 1_555 1_555
C4F C3 1_555 1_555
C4D C3D 1_555 1_555
C4B C3D 1_555 1_555
H3F C4F 1_555 1_555
H3D C4D 1_555 1_555
H3B C4B 1_555 1_555
C5F N1 1_555 1_555
C5D N1D 1_555 1_555
C5B N1D 1_555 1_555
H4F C5F 1_555 1_555
H4D C5D 1_555 1_555
H4B C5B 1_555 1_555
C6D O2D 1_555 1_555
C7E C8E 1_555 1_555
C8F C7 1_555 1_555
C8E C8C 1_555 1_555
C8C C7E 1_555 1_555
C9F C9 1_555 1_555
C9E C8E 1_555 1_555
C9C C8C 1_555 1_555
H5F C9F 1_555 1_555
H5E C9E 1_555 1_555
H5C C9C 1_555 1_555
C10F C9 1_555 1_555
C10E C9E 1_555 1_555
C10C C9E 1_555 1_555
H6F C10 1_555 1_555
H6E C10E 1_555 1_555
H6C C10E 1_555 1_555
C11F C10 1_555 1_555
C11E C10E 1_555 1_555
C11C C10E 1_555 1_555
H7F C11 1_555 1_555
H7E C11E 1_555 1_555
H7C C11E 1_555 1_555
C12F C7 1_555 1_555
C12E C7E 1_555 1_555
C12C C7E 1_555 1_555
H8F C12F 1_555 1_555
H8E C12E 1_555 1_555
H8C C12C 1_555 1_555
C13E O6C 1_555 1_555
C14F O3 1_555 1_555
C14E O3E 1_555 1_555
C14C O3E 1_555 1_555
Cl1D O8D 1_555 1_555
O8B Cl1D 1_555 1_555
O8F Cl1 1_555 1_555
O9D Cl1D 1_555 1_555
O2 O2F 1_555 1_555
C1 C1F 1_555 1_555
C2 C1F 1_555 1_555
C2 C2F 1_555 1_555
C3 C6 1_555 1_555
C3 C2F 1_555 1_555
C3 C3F 1_555 1_555
C4 C5 1_555 1_555
C4 C3F 1_555 1_555
C4 C4F 1_555 1_555
C4 C5F 1_555 1_555
C5 C4F 1_555 1_555
C5 C5F 1_555 1_555
C6 O2F 1_555 1_555
C6 C3F 1_555 1_555
C8 C14 1_555 1_555
C8 C8F 1_555 1_555
C10 C9F 1_555 1_555
C10 C10F 1_555 1_555
H6 C10F 1_555 1_555
H6 H6F 1_555 1_555
C11 C12 1_555 1_555
C11 C10F 1_555 1_555
C11 C11F 1_555 1_555
C11 C12F 1_555 1_555
H7 C11F 1_555 1_555
C12 C11F 1_555 1_555
C12 C12F 1_555 1_555
Nd1E O6_2 1_555 1_555
Nd1E O6E_2 1_555 1_555
Nd1_2 O6F 1_555 1_555
Nd1E_3 O6F_2 1_555 1_555
Nd1E_3 O6C_2 1_555 1_555
O2D O2B 1_555 1_555
O2B C6D 1_555 1_555
O4E C14E 1_555 1_555
C1F C2F 1_555 1_555
C1D C1B 1_555 1_555
C1B C2D 1_555 1_555
C1B C2B 1_555 1_555
C2F C3F 1_555 1_555
C2D C2B 1_555 1_555
C2B C3D 1_555 1_555
C2B C3B 1_555 1_555
C3F C4F 1_555 1_555
C3D C3B 1_555 1_555
C3D C6D 1_555 1_555
C3B C4D 1_555 1_555
C3B C4B 1_555 1_555
C3B C6D 1_555 1_555
C4F C5F 1_555 1_555
C4D C4B 1_555 1_555
C4D C5D 1_555 1_555
C4D C5B 1_555 1_555
C4B C5D 1_555 1_555
C4B C5B 1_555 1_555
C5D C5B 1_555 1_555
C7E C13E 1_555 1_555
C8F C9F 1_555 1_555
C8F C14F 1_555 1_555
C8E C14E 1_555 1_555
C8C C14C 1_555 1_555
C9F C10F 1_555 1_555
C9E C9C 1_555 1_555
C9C C10E 1_555 1_555
C9C C10C 1_555 1_555
C10F H6F 1_555 1_555
C10F C11F 1_555 1_555
C10E C10C 1_555 1_555
C10C H6E 1_555 1_555
C10C H6C 1_555 1_555
C10C C11E 1_555 1_555
C10C C11C 1_555 1_555
H6E H6C 1_555 1_555
C11F H7F 1_555 1_555
C11F C12F 1_555 1_555
C11E C11C 1_555 1_555
C11E C12E 1_555 1_555
C11E C12C 1_555 1_555
C11C H7E 1_555 1_555
C11C H7C 1_555 1_555
C11C C12E 1_555 1_555
C11C C12C 1_555 1_555
C12E C12C 1_555 1_555

#END
