
#######################################################################
#
#                 Cambridge Crystallographic Data Centre
#                                CCDC 
#
#######################################################################
#
# If this CIF has been generated from an entry in the Cambridge 
# Structural Database, then it will include bibliographic, chemical, 
# crystal, experimental, refinement or atomic coordinate data resulting 
# from the CCDC's data processing and validation procedures.
#
#######################################################################

data_JIVSAJ01
_chemical_formula_moiety         'C48 H32 Cl2 Cu1 Eu11 N4 O35'
_symmetry_cell_setting           monoclinic
_symmetry_space_group_name_H-M   'C 2/m'
_symmetry_Int_Tables_number      12
_space_group_name_Hall           '-C 2y'
loop_
_symmetry_equiv_pos_site_id
_symmetry_equiv_pos_as_xyz
1 x,y,z
2 1/2+x,1/2+y,z
3 -x,y,-z
4 1/2-x,1/2+y,-z
5 -x,-y,-z
6 1/2-x,1/2-y,-z
7 x,-y,z
8 1/2+x,1/2-y,z
_cell_length_a                   36.815(7)
_cell_length_b                   6.9805(14)
_cell_length_c                   6.2024(12)
_cell_angle_alpha                90
_cell_angle_beta                 97.42(3)
_cell_angle_gamma                90
_cell_volume                     1580.59
loop_
_atom_site_label
_atom_site_type_symbol
_atom_site_fract_x
_atom_site_fract_y
_atom_site_fract_z
Eu1 Eu 0.279982(14) 0.5000 0.47900(9)
Cu1 Cu 0.5000 0.5000 0.0000
O1 O 0.3192(2) 0.5000 0.1927(15)
O2 O 0.3462(3) 0.4466(15) 0.5153(18)
O3 O 0.2328(2) 0.5000 0.1627(14)
O5 O 0.20069(17) 0.1906(9) 0.2129(10)
O6 O 0.22415(16) 0.3450(9) -0.3777(12)
N1 N 0.45313(19) 0.483(2) 0.0950(15)
C1 C 0.4492(2) 0.425(2) 0.3037(15)
H1 H 0.4705 0.3839 0.4013
C2 C 0.4150(2) 0.424(2) 0.3730(13)
H2 H 0.4117 0.3723 0.5137
C3 C 0.38468(19) 0.501(2) 0.2341(15)
C4 C 0.3886(2) 0.5446(16) 0.0256(14)
H3 H 0.3671 0.5712 -0.0771
C5 C 0.4229(2) 0.5510(17) -0.0423(13)
H4 H 0.4259 0.6022 -0.1838
C6 C 0.3478(3) 0.5000 0.318(2)
C7 C 0.17539(17) 0.5000 -0.2361(14)
C8 C 0.17364(19) 0.4148(11) -0.0269(14)
C9 C 0.1399(2) 0.4052(17) 0.0544(13)
H5 H 0.1387 0.3558 0.1980
C10 C 0.10799(19) 0.4677(17) -0.0733(15)
H6 H 0.0849 0.4616 -0.0173
C11 C 0.10974(18) 0.5391(15) -0.2826(15)
H7 H 0.0877 0.5776 -0.3719
C12 C 0.1435(2) 0.5546(11) -0.3626(12)
H8 H 0.1444 0.6037 -0.5065
C13 C 0.2099(3) 0.5000 -0.3321(19)
C14 C 0.2065(4) 0.359(2) 0.129(3)
Eu1D Eu 0.720018(14) 0.5000 -0.47900(9)
Eu1E Eu 0.220018(14) 0.0000 0.52100(9)
Eu1_2 Eu 0.279982(14) 0.5000 -0.52100(9)
Eu1E_2 Eu 0.220018(14) 0.0000 -0.47900(9)
Eu1E_3 Eu 0.220018(14) 1.0000 0.52100(9)
Eu1E_4 Eu 0.220018(14) 1.0000 -0.47900(9)
Eu1_3 Eu 0.279982(14) 0.5000 1.47900(9)
Eu1E_5 Eu 0.220018(14) 0.0000 1.52100(9)
Eu1_4 Eu 0.279982(14) -0.5000 0.47900(9)
Eu1_5 Eu 0.279982(14) -0.5000 1.47900(9)
O1D O 0.6808(2) 0.5000 -0.1927(15)
O2F O 0.3462(3) 0.5534(15) 0.5153(18)
O2D O 0.6538(3) 0.5534(15) -0.5153(18)
O2B O 0.6538(3) 0.4466(15) -0.5153(18)
O3E O 0.2672(2) 0.0000 0.8373(14)
O3D O 0.7672(2) 0.5000 -0.1627(14)
O5F O 0.20069(17) 0.8094(9) 0.2129(10)
O5E O 0.29931(17) 0.3094(9) 0.7871(10)
O5C O 0.29931(17) -0.3094(9) 0.7871(10)
O5C_2 O 0.29931(17) 0.6906(9) 0.7871(10)
O5A O 0.70069(17) 0.6906(9) -0.7871(10)
O5G O 0.70069(17) 0.3094(9) -0.7871(10)
O6F O 0.22415(16) 0.6550(9) -0.3777(12)
O6E O 0.27585(16) 0.1550(9) 1.3777(12)
O6C O 0.27585(16) -0.1550(9) 1.3777(12)
O6_2 O 0.22415(16) 0.3450(9) 0.6223(12)
O6F_2 O 0.22415(16) 0.6550(9) 0.6223(12)
O6E_2 O 0.27585(16) 0.1550(9) 0.3777(12)
O6C_2 O 0.27585(16) 0.8450(9) 0.3777(12)
O6A O 0.72415(16) 0.8450(9) -0.3777(12)
O6G O 0.72415(16) 0.1550(9) -0.3777(12)
O6D O 0.77585(16) 0.6550(9) -0.6223(12)
O6B O 0.77585(16) 0.3450(9) -0.6223(12)
N1F N 0.45313(19) 0.517(2) 0.0950(15)
N1D N 0.54687(19) 0.517(2) -0.0950(15)
N1B N 0.54687(19) 0.483(2) -0.0950(15)
C1F C 0.4492(2) 0.575(2) 0.3037(15)
C1D C 0.5508(2) 0.575(2) -0.3037(15)
C1B C 0.5508(2) 0.425(2) -0.3037(15)
H1F H 0.4705 0.6161 0.4013
H1D H 0.5295 0.6161 -0.4013
H1B H 0.5295 0.3839 -0.4013
C2F C 0.4150(2) 0.576(2) 0.3730(13)
C2D C 0.5850(2) 0.576(2) -0.3730(13)
C2B C 0.5850(2) 0.424(2) -0.3730(13)
H2F H 0.4117 0.6277 0.5137
H2D H 0.5883 0.6277 -0.5137
H2B H 0.5883 0.3723 -0.5137
C3D C 0.61532(19) 0.499(2) -0.2341(15)
C4F C 0.3886(2) 0.4554(16) 0.0256(14)
C4D C 0.6114(2) 0.4554(16) -0.0256(14)
C4B C 0.6114(2) 0.5446(16) -0.0256(14)
H3F H 0.3671 0.4288 -0.0771
H3D H 0.6329 0.4288 0.0771
H3B H 0.6329 0.5712 0.0771
C5F C 0.4229(2) 0.4490(17) -0.0423(13)
C5D C 0.5771(2) 0.4490(17) 0.0423(13)
C5B C 0.5771(2) 0.5510(17) 0.0423(13)
H4F H 0.4259 0.3978 -0.1838
H4D H 0.5741 0.3978 0.1838
H4B H 0.5741 0.6022 0.1838
C6D C 0.6522(3) 0.5000 -0.318(2)
C7E C 0.32461(17) 0.0000 1.2361(14)
C8F C 0.17364(19) 0.5852(11) -0.0269(14)
C8E C 0.32636(19) 0.0852(11) 1.0269(14)
C8C C 0.32636(19) -0.0852(11) 1.0269(14)
C9F C 0.1399(2) 0.5948(17) 0.0544(13)
C9E C 0.3601(2) 0.0948(17) 0.9456(13)
C9C C 0.3601(2) -0.0948(17) 0.9456(13)
H5F H 0.1387 0.6442 0.1980
H5E H 0.3613 0.1442 0.8020
H5C H 0.3613 -0.1442 0.8020
C10F C 0.10799(19) 0.5323(17) -0.0733(15)
C10E C 0.39201(19) 0.0323(17) 1.0733(15)
C10C C 0.39201(19) -0.0323(17) 1.0733(15)
H6F H 0.0849 0.5384 -0.0173
H6E H 0.4151 0.0384 1.0173
H6C H 0.4151 -0.0384 1.0173
C11F C 0.10974(18) 0.4609(15) -0.2826(15)
C11E C 0.39026(18) -0.0391(15) 1.2826(15)
C11C C 0.39026(18) 0.0391(15) 1.2826(15)
H7F H 0.0877 0.4224 -0.3719
H7E H 0.4123 -0.0776 1.3719
H7C H 0.4123 0.0776 1.3719
C12F C 0.1435(2) 0.4454(11) -0.3626(12)
C12E C 0.3565(2) -0.0546(11) 1.3626(12)
C12C C 0.3565(2) 0.0546(11) 1.3626(12)
H8F H 0.1444 0.3963 -0.5065
H8E H 0.3556 -0.1037 1.5065
H8C H 0.3556 0.1037 1.5065
C13E C 0.2901(3) 0.0000 1.3321(19)
C14F C 0.2065(4) 0.641(2) 0.129(3)
C14E C 0.2935(4) 0.141(2) 0.871(3)
C14C C 0.2935(4) -0.141(2) 0.871(3)
Cl1 Cl 0.5139(3) 0.0000 0.2309(13)
O7 O 0.5000 0.0000 0.0000
O8 O 0.4815(5) 0.0000 0.340(2)
O9 O 0.5323(4) -0.172(2) 0.286(2)
Cl1D Cl 0.4861(3) 0.0000 -0.2309(13)
O8D O 0.5185(5) -0.0000 -0.340(2)
O9D O 0.4677(4) 0.172(2) -0.286(2)
O9B O 0.4677(4) -0.172(2) -0.286(2)
O9F O 0.5323(4) 0.172(2) 0.286(2)
loop_
_geom_bond_atom_site_label_1
_geom_bond_atom_site_label_2
_geom_bond_site_symmetry_1
_geom_bond_site_symmetry_2
Eu1 O1 1_555 1_555
Cu1 N1 1_555 1_555
O1 C6 1_555 1_555
O2 Eu1 1_555 1_555
O3 Eu1 1_555 1_555
O5 C14 1_555 1_555
O6 C13 1_555 1_555
N1 C1 1_555 1_555
C1 H1 1_555 1_555
C2 C1 1_555 1_555
H2 C2 1_555 1_555
C3 C2 1_555 1_555
C4 C3 1_555 1_555
H3 C4 1_555 1_555
C5 N1 1_555 1_555
H4 C5 1_555 1_555
C6 O2 1_555 1_555
C7 C8 1_555 1_555
C8 C9 1_555 1_555
C9 H5 1_555 1_555
C10 C9 1_555 1_555
H6 C10 1_555 1_555
C11 C10 1_555 1_555
H7 C11 1_555 1_555
C12 C7 1_555 1_555
H8 C12 1_555 1_555
C13 C7 1_555 1_555
C14 O3 1_555 1_555
Cl1 O7 1_555 1_555
O7 Cl1D 1_555 1_555
O8 Cl1 1_555 1_555
O9 Cl1 1_555 1_555
Eu1D O1D 1_555 1_555
Eu1E O5 1_555 1_555
Eu1_2 O6 1_555 1_555
Eu1E_2 O6 1_555 1_555
Eu1E_3 O5F 1_555 1_555
Eu1E_4 O6F 1_555 1_555
Eu1_3 O6E 1_555 1_555
Eu1E_5 O6E 1_555 1_555
Eu1_4 O5C 1_555 1_555
Eu1_5 O6C 1_555 1_555
O1D C6D 1_555 1_555
O2F Eu1 1_555 1_555
O2D Eu1D 1_555 1_555
O2B Eu1D 1_555 1_555
O3E Eu1E 1_555 1_555
O3D Eu1D 1_555 1_555
O5F C14F 1_555 1_555
O5E Eu1 1_555 1_555
O5C C14C 1_555 1_555
O5C_2 Eu1 1_555 1_555
O5A Eu1D 1_555 1_555
O5G Eu1D 1_555 1_555
O6F C13 1_555 1_555
O6E C13E 1_555 1_555
O6C Eu1E_5 1_555 1_555
O6_2 Eu1 1_555 1_555
O6F_2 Eu1 1_555 1_555
O6E_2 Eu1 1_555 1_555
O6C_2 Eu1 1_555 1_555
O6A Eu1D 1_555 1_555
O6G Eu1D 1_555 1_555
O6D Eu1D 1_555 1_555
O6B Eu1D 1_555 1_555
N1F Cu1 1_555 1_555
N1D Cu1 1_555 1_555
N1B Cu1 1_555 1_555
C1F N1 1_555 1_555
C1D N1D 1_555 1_555
C1B N1D 1_555 1_555
H1F C1F 1_555 1_555
H1D C1D 1_555 1_555
H1B C1B 1_555 1_555
C2F C1 1_555 1_555
C2D C1D 1_555 1_555
C2B C1D 1_555 1_555
H2F C2F 1_555 1_555
H2D C2D 1_555 1_555
H2B C2B 1_555 1_555
C3D C2D 1_555 1_555
C4F C3 1_555 1_555
C4D C3D 1_555 1_555
C4B C3D 1_555 1_555
H3F C4 1_555 1_555
H3D C4D 1_555 1_555
H3B C4D 1_555 1_555
C5F N1 1_555 1_555
C5D N1D 1_555 1_555
C5B N1D 1_555 1_555
H4F C5F 1_555 1_555
H4D C5D 1_555 1_555
H4B C5B 1_555 1_555
C6D O2D 1_555 1_555
C7E C8E 1_555 1_555
C8F C7 1_555 1_555
C8E C8C 1_555 1_555
C8C C7E 1_555 1_555
C9F C9 1_555 1_555
C9E C8E 1_555 1_555
C9C C8C 1_555 1_555
H5F C9F 1_555 1_555
H5E C9E 1_555 1_555
H5C C9C 1_555 1_555
C10F C9 1_555 1_555
C10E C9E 1_555 1_555
C10C C9E 1_555 1_555
H6F C10 1_555 1_555
H6E C10E 1_555 1_555
H6C C10E 1_555 1_555
C11F C10 1_555 1_555
C11E C10E 1_555 1_555
C11C C10E 1_555 1_555
H7F C11 1_555 1_555
H7E C11E 1_555 1_555
H7C C11E 1_555 1_555
C12F C7 1_555 1_555
C12E C7E 1_555 1_555
C12C C7E 1_555 1_555
H8F C12F 1_555 1_555
H8E C12E 1_555 1_555
H8C C12C 1_555 1_555
C13E O6C 1_555 1_555
C14F O3 1_555 1_555
C14E O3E 1_555 1_555
C14C O3E 1_555 1_555
Cl1D O8D 1_555 1_555
O9D Cl1D 1_555 1_555
O9B Cl1D 1_555 1_555
O9F Cl1 1_555 1_555
O2 O2F 1_555 1_555
N1 N1F 1_555 1_555
C1 N1F 1_555 1_555
C1 C1F 1_555 1_555
C2 C1F 1_555 1_555
C2 C2F 1_555 1_555
C3 C6 1_555 1_555
C3 C2F 1_555 1_555
C4 C5 1_555 1_555
C4 C4F 1_555 1_555
C4 C5F 1_555 1_555
H3 C4F 1_555 1_555
C5 N1F 1_555 1_555
C5 C4F 1_555 1_555
C5 C5F 1_555 1_555
C6 O2F 1_555 1_555
C8 C14 1_555 1_555
C8 C8F 1_555 1_555
C10 C9F 1_555 1_555
C10 C10F 1_555 1_555
H6 C10F 1_555 1_555
H6 H6F 1_555 1_555
C11 C12 1_555 1_555
C11 C10F 1_555 1_555
C11 C11F 1_555 1_555
C11 C12F 1_555 1_555
H7 C11F 1_555 1_555
C12 C11F 1_555 1_555
C12 C12F 1_555 1_555
Eu1E O6_2 1_555 1_555
Eu1E O6E_2 1_555 1_555
Eu1_2 O6F 1_555 1_555
Eu1E_3 O6F_2 1_555 1_555
Eu1E_3 O6C_2 1_555 1_555
O2D O2B 1_555 1_555
O2B C6D 1_555 1_555
O5E C14E 1_555 1_555
N1F C1F 1_555 1_555
N1F C5F 1_555 1_555
N1D N1B 1_555 1_555
N1B C1D 1_555 1_555
N1B C1B 1_555 1_555
N1B C5D 1_555 1_555
N1B C5B 1_555 1_555
C1F C2F 1_555 1_555
C1D C1B 1_555 1_555
C1B C2D 1_555 1_555
C1B C2B 1_555 1_555
C2D C2B 1_555 1_555
C2B C3D 1_555 1_555
C3D C6D 1_555 1_555
C4F H3F 1_555 1_555
C4F C5F 1_555 1_555
C4D C4B 1_555 1_555
C4D C5D 1_555 1_555
C4D C5B 1_555 1_555
C4B H3D 1_555 1_555
C4B H3B 1_555 1_555
C4B C5D 1_555 1_555
C4B C5B 1_555 1_555
C5D C5B 1_555 1_555
C7E C13E 1_555 1_555
C8F C9F 1_555 1_555
C8F C14F 1_555 1_555
C8E C14E 1_555 1_555
C8C C14C 1_555 1_555
C9F C10F 1_555 1_555
C9E C9C 1_555 1_555
C9C C10E 1_555 1_555
C9C C10C 1_555 1_555
C10F H6F 1_555 1_555
C10F C11F 1_555 1_555
C10E C10C 1_555 1_555
C10C H6E 1_555 1_555
C10C H6C 1_555 1_555
C10C C11E 1_555 1_555
C10C C11C 1_555 1_555
H6E H6C 1_555 1_555
C11F H7F 1_555 1_555
C11F C12F 1_555 1_555
C11E C11C 1_555 1_555
C11E C12E 1_555 1_555
C11E C12C 1_555 1_555
C11C H7E 1_555 1_555
C11C H7C 1_555 1_555
C11C C12E 1_555 1_555
C11C C12C 1_555 1_555
C12E C12C 1_555 1_555

#END
