
#######################################################################
#
#                 Cambridge Crystallographic Data Centre
#                                CCDC 
#
#######################################################################
#
# If this CIF has been generated from an entry in the Cambridge 
# Structural Database, then it will include bibliographic, chemical, 
# crystal, experimental, refinement or atomic coordinate data resulting 
# from the CCDC's data processing and validation procedures.
#
#######################################################################

data_NOFRIK
_chemical_formula_moiety         'C52 H32 Cl2 Cu1 N2 O35 Tb11'
_symmetry_cell_setting           monoclinic
_symmetry_space_group_name_H-M   'C 2/m'
_symmetry_Int_Tables_number      12
_space_group_name_Hall           '-C 2y'
loop_
_symmetry_equiv_pos_site_id
_symmetry_equiv_pos_as_xyz
1 x,y,z
2 1/2+x,1/2+y,z
3 -x,y,-z
4 1/2-x,1/2+y,-z
5 -x,-y,-z
6 1/2-x,1/2-y,-z
7 x,-y,z
8 1/2+x,1/2-y,z
_cell_length_a                   36.706(7)
_cell_length_b                   6.9945(14)
_cell_length_c                   6.1881(12)
_cell_angle_alpha                90
_cell_angle_beta                 97.42(3)
_cell_angle_gamma                90
_cell_volume                     1575.43
loop_
_atom_site_label
_atom_site_type_symbol
_atom_site_fract_x
_atom_site_fract_y
_atom_site_fract_z
Tb1 Tb 0.280099(17) 0.5000 0.47873(11)
Cu1 Cu 0.5000 0.5000 0.0000
O1 O 0.3193(3) 0.5000 0.1937(18)
O2 O 0.3467(3) 0.4431(16) 0.515(2)
O3 O 0.2329(3) 0.5000 0.1627(17)
O4 O 0.2003(2) 0.1901(10) 0.2120(13)
O6 O 0.22436(19) 0.3471(11) -0.3764(13)
N1 N 0.4531(2) 0.5000 0.0996(18)
C1 C 0.4489(2) 0.4309(14) 0.3068(17)
H1 H 0.4701 0.3860 0.4031
C2 C 0.4147(3) 0.427(2) 0.3728(14)
H2 H 0.4118 0.3862 0.5190
C3 C 0.3845(2) 0.481(2) 0.2314(17)
C4 C 0.3888(2) 0.5504(18) 0.0271(16)
H3 H 0.3681 0.6037 -0.0661
C5 C 0.4229(3) 0.5428(13) -0.0419(14)
H4 H 0.4254 0.5682 -0.1930
C6 C 0.3486(3) 0.5000 0.319(2)
C7 C 0.1749(2) 0.485(2) -0.2373(16)
C8 C 0.1433(3) 0.5584(17) -0.3615(14)
H5 H 0.1449 0.6200 -0.4984
C9 C 0.1097(2) 0.5405(16) -0.2837(17)
H6 H 0.0877 0.5800 -0.3726
C10 C 0.1079(2) 0.4656(19) -0.0775(18)
H7 H 0.0847 0.4563 -0.0232
C11 C 0.1396(3) 0.4043(18) 0.0497(15)
H8 H 0.1383 0.3550 0.1932
C12 C 0.1731(2) 0.4142(19) -0.0302(16)
C13 C 0.2097(4) 0.5000 -0.333(2)
C14 C 0.2067(5) 0.354(3) 0.131(3)
Tb1D Tb 0.719901(17) 0.5000 -0.47873(11)
Tb1E Tb 0.219901(17) -0.0000 0.52127(11)
Tb1_2 Tb 0.280099(17) 0.5000 -0.52127(11)
Tb1E_2 Tb 0.219901(17) 0.0000 -0.47873(11)
Tb1E_3 Tb 0.219901(17) 1.0000 -0.47873(11)
Tb1E_4 Tb 0.219901(17) 1.0000 0.52127(11)
Tb1_3 Tb 0.280099(17) 0.5000 1.47873(11)
Tb1E_5 Tb 0.219901(17) 0.0000 1.52127(11)
Tb1_4 Tb 0.280099(17) -0.5000 1.47873(11)
Tb1_5 Tb 0.280099(17) -0.5000 0.47873(11)
O1D O 0.6807(3) 0.5000 -0.1937(18)
O2F O 0.3467(3) 0.5569(16) 0.515(2)
O2D O 0.6533(3) 0.5569(16) -0.515(2)
O2B O 0.6533(3) 0.4431(16) -0.515(2)
O3E O 0.2671(3) -0.0000 0.8373(17)
O3D O 0.7671(3) 0.5000 -0.1627(17)
O4F O 0.2003(2) 0.8099(10) 0.2120(13)
O4E O 0.2997(2) 0.3099(10) 0.7880(13)
O4C O 0.2997(2) -0.3099(10) 0.7880(13)
O4C_2 O 0.2997(2) 0.6901(10) 0.7880(13)
O4A O 0.7003(2) 0.6901(10) -0.7880(13)
O4G O 0.7003(2) 0.3099(10) -0.7880(13)
O6F O 0.22436(19) 0.6529(11) -0.3764(13)
O6E O 0.27564(19) 0.1529(11) 1.3764(13)
O6C O 0.27564(19) -0.1529(11) 1.3764(13)
O6_2 O 0.22436(19) 0.3471(11) 0.6236(13)
O6F_2 O 0.22436(19) 0.6529(11) 0.6236(13)
O6E_2 O 0.27564(19) 0.1529(11) 0.3764(13)
O6C_2 O 0.27564(19) 0.8471(11) 0.3764(13)
O6A O 0.72436(19) 0.8471(11) -0.3764(13)
O6G O 0.72436(19) 0.1529(11) -0.3764(13)
O6D O 0.77564(19) 0.6529(11) -0.6236(13)
O6B O 0.77564(19) 0.3471(11) -0.6236(13)
N1D N 0.5469(2) 0.5000 -0.0996(18)
C1F C 0.4489(2) 0.5691(14) 0.3068(17)
C1D C 0.5511(2) 0.5691(14) -0.3068(17)
C1B C 0.5511(2) 0.4309(14) -0.3068(17)
H1F H 0.4701 0.6140 0.4031
H1D H 0.5299 0.6140 -0.4031
H1B H 0.5299 0.3860 -0.4031
C2F C 0.4147(3) 0.573(2) 0.3728(14)
C2D C 0.5853(3) 0.573(2) -0.3728(14)
C2B C 0.5853(3) 0.427(2) -0.3728(14)
H2F H 0.4118 0.6138 0.5190
H2D H 0.5882 0.6138 -0.5190
H2B H 0.5882 0.3862 -0.5190
C3F C 0.3845(2) 0.519(2) 0.2314(17)
C3D C 0.6155(2) 0.519(2) -0.2314(17)
C3B C 0.6155(2) 0.481(2) -0.2314(17)
C4F C 0.3888(2) 0.4496(18) 0.0271(16)
C4D C 0.6112(2) 0.4496(18) -0.0271(16)
C4B C 0.6112(2) 0.5504(18) -0.0271(16)
H3F H 0.3681 0.3963 -0.0661
H3D H 0.6319 0.3963 0.0661
H3B H 0.6319 0.6037 0.0661
C5F C 0.4229(3) 0.4572(13) -0.0419(14)
C5D C 0.5771(3) 0.4572(13) 0.0419(14)
C5B C 0.5771(3) 0.5428(13) 0.0419(14)
H4F H 0.4254 0.4318 -0.1930
H4D H 0.5746 0.4318 0.1930
H4B H 0.5746 0.5682 0.1930
C6D C 0.6514(3) 0.5000 -0.319(2)
C7F C 0.1749(2) 0.515(2) -0.2373(16)
C7E C 0.3251(2) 0.015(2) 1.2373(16)
C7C C 0.3251(2) -0.015(2) 1.2373(16)
C8F C 0.1433(3) 0.4416(17) -0.3615(14)
C8E C 0.3567(3) -0.0584(17) 1.3615(14)
C8C C 0.3567(3) 0.0584(17) 1.3615(14)
H5F H 0.1449 0.3800 -0.4984
H5E H 0.3551 -0.1200 1.4984
H5C H 0.3551 0.1200 1.4984
C9F C 0.1097(2) 0.4595(16) -0.2837(17)
C9E C 0.3903(2) -0.0405(16) 1.2837(17)
C9C C 0.3903(2) 0.0405(16) 1.2837(17)
H6F H 0.0877 0.4200 -0.3726
H6E H 0.4123 -0.0800 1.3726
H6C H 0.4123 0.0800 1.3726
C10F C 0.1079(2) 0.5344(19) -0.0775(18)
C10E C 0.3921(2) 0.0344(19) 1.0775(18)
C10C C 0.3921(2) -0.0344(19) 1.0775(18)
H7F H 0.0847 0.5437 -0.0232
H7E H 0.4153 0.0437 1.0232
H7C H 0.4153 -0.0437 1.0232
C11F C 0.1396(3) 0.5957(18) 0.0497(15)
C11E C 0.3604(3) 0.0957(18) 0.9503(15)
C11C C 0.3604(3) -0.0957(18) 0.9503(15)
H8F H 0.1383 0.6450 0.1932
H8E H 0.3617 0.1450 0.8068
H8C H 0.3617 -0.1450 0.8068
C12F C 0.1731(2) 0.5858(19) -0.0302(16)
C12E C 0.3269(2) 0.0858(19) 1.0302(16)
C12C C 0.3269(2) -0.0858(19) 1.0302(16)
C13E C 0.2903(4) 0.0000 1.333(2)
C14F C 0.2067(5) 0.646(3) 0.131(3)
C14E C 0.2933(5) 0.146(3) 0.869(3)
C14C C 0.2933(5) -0.146(3) 0.869(3)
Cl1 Cl 0.4858(5) 0.0000 -0.2289(16)
O7 O 0.5000 0.0000 0.0000
O8 O 0.4682(6) 0.175(2) -0.282(3)
O9 O 0.5168(7) 0.0000 -0.344(4)
Cl1D Cl 0.5142(5) -0.0000 0.2289(16)
O8D O 0.5318(6) -0.175(2) 0.282(3)
O8B O 0.5318(6) 0.175(2) 0.282(3)
O8F O 0.4682(6) -0.175(2) -0.282(3)
O9D O 0.4832(7) -0.0000 0.344(4)
loop_
_geom_bond_atom_site_label_1
_geom_bond_atom_site_label_2
_geom_bond_site_symmetry_1
_geom_bond_site_symmetry_2
Tb1 O1 1_555 1_555
Cu1 N1 1_555 1_555
O1 C6 1_555 1_555
O2 Tb1 1_555 1_555
O3 Tb1 1_555 1_555
O4 C14 1_555 1_555
O6 C13 1_555 1_555
N1 C1 1_555 1_555
C1 H1 1_555 1_555
C2 C1 1_555 1_555
H2 C2 1_555 1_555
C3 C2 1_555 1_555
C4 C3 1_555 1_555
H3 C4 1_555 1_555
C5 N1 1_555 1_555
H4 C5 1_555 1_555
C6 O2 1_555 1_555
C7 C8 1_555 1_555
C8 H5 1_555 1_555
C9 C8 1_555 1_555
H6 C9 1_555 1_555
C10 C9 1_555 1_555
H7 C10 1_555 1_555
C11 C10 1_555 1_555
H8 C11 1_555 1_555
C12 C7 1_555 1_555
C13 C7 1_555 1_555
C14 O3 1_555 1_555
Cl1 O7 1_555 1_555
O7 Cl1D 1_555 1_555
O8 Cl1 1_555 1_555
O9 Cl1 1_555 1_555
Tb1D O1D 1_555 1_555
Tb1E O4 1_555 1_555
Tb1_2 O6 1_555 1_555
Tb1E_2 O6 1_555 1_555
Tb1E_3 O6F 1_555 1_555
Tb1E_4 O4F 1_555 1_555
Tb1_3 O6E 1_555 1_555
Tb1E_5 O6E 1_555 1_555
Tb1_4 O6C 1_555 1_555
Tb1_5 O4C 1_555 1_555
O1D C6D 1_555 1_555
O2F Tb1 1_555 1_555
O2D Tb1D 1_555 1_555
O2B Tb1D 1_555 1_555
O3E Tb1E 1_555 1_555
O3D Tb1D 1_555 1_555
O4F C14F 1_555 1_555
O4E Tb1 1_555 1_555
O4C C14C 1_555 1_555
O4C_2 Tb1 1_555 1_555
O4A Tb1D 1_555 1_555
O4G Tb1D 1_555 1_555
O6F C13 1_555 1_555
O6E C13E 1_555 1_555
O6C Tb1E_5 1_555 1_555
O6_2 Tb1 1_555 1_555
O6F_2 Tb1 1_555 1_555
O6E_2 Tb1 1_555 1_555
O6C_2 Tb1 1_555 1_555
O6A Tb1D 1_555 1_555
O6G Tb1D 1_555 1_555
O6D Tb1D 1_555 1_555
O6B Tb1D 1_555 1_555
N1D Cu1 1_555 1_555
C1F N1 1_555 1_555
C1D N1D 1_555 1_555
C1B N1D 1_555 1_555
H1F C1F 1_555 1_555
H1D C1D 1_555 1_555
H1B C1B 1_555 1_555
C2F C1 1_555 1_555
C2D C1D 1_555 1_555
C2B C1D 1_555 1_555
H2F C2F 1_555 1_555
H2D C2D 1_555 1_555
H2B C2B 1_555 1_555
C3F C2 1_555 1_555
C3D C2D 1_555 1_555
C3B C2D 1_555 1_555
C4F C3 1_555 1_555
C4D C3D 1_555 1_555
C4B C3D 1_555 1_555
H3F C4F 1_555 1_555
H3D C4D 1_555 1_555
H3B C4B 1_555 1_555
C5F N1 1_555 1_555
C5D N1D 1_555 1_555
C5B N1D 1_555 1_555
H4F C5 1_555 1_555
H4D C5D 1_555 1_555
H4B C5D 1_555 1_555
C6D O2D 1_555 1_555
C7F C7 1_555 1_555
C7E C7C 1_555 1_555
C7C C8E 1_555 1_555
C8F C7 1_555 1_555
C8E C7E 1_555 1_555
C8C C7E 1_555 1_555
H5F C8F 1_555 1_555
H5E C8E 1_555 1_555
H5C C8C 1_555 1_555
C9F C8 1_555 1_555
C9E C8E 1_555 1_555
C9C C8E 1_555 1_555
H6F C9 1_555 1_555
H6E C9E 1_555 1_555
H6C C9E 1_555 1_555
C10F C9 1_555 1_555
C10E C9E 1_555 1_555
C10C C9E 1_555 1_555
H7F C10 1_555 1_555
H7E C10E 1_555 1_555
H7C C10E 1_555 1_555
C11F C10 1_555 1_555
C11E C10E 1_555 1_555
C11C C10E 1_555 1_555
H8F C11F 1_555 1_555
H8E C11E 1_555 1_555
H8C C11C 1_555 1_555
C12F C7 1_555 1_555
C12E C7E 1_555 1_555
C12C C7E 1_555 1_555
C13E O6C 1_555 1_555
C14F O3 1_555 1_555
C14E O3E 1_555 1_555
C14C O3E 1_555 1_555
Cl1D O8D 1_555 1_555
O8B Cl1D 1_555 1_555
O8F Cl1 1_555 1_555
O9D Cl1D 1_555 1_555
O2 O2F 1_555 1_555
C1 C1F 1_555 1_555
C2 C1F 1_555 1_555
C2 C2F 1_555 1_555
C3 C6 1_555 1_555
C3 C2F 1_555 1_555
C3 C3F 1_555 1_555
C4 C5 1_555 1_555
C4 C3F 1_555 1_555
C4 C4F 1_555 1_555
C4 C5F 1_555 1_555
C5 C4F 1_555 1_555
C5 C5F 1_555 1_555
H4 C5F 1_555 1_555
C6 O2F 1_555 1_555
C6 C3F 1_555 1_555
C8 C7F 1_555 1_555
C8 C8F 1_555 1_555
C9 C8F 1_555 1_555
C9 C9F 1_555 1_555
H6 C9F 1_555 1_555
C10 C9F 1_555 1_555
C10 C10F 1_555 1_555
H7 C10F 1_555 1_555
H7 H7F 1_555 1_555
C11 C12 1_555 1_555
C11 C10F 1_555 1_555
C11 C11F 1_555 1_555
C12 C14 1_555 1_555
C12 C7F 1_555 1_555
C12 C12F 1_555 1_555
C13 C7F 1_555 1_555
Tb1E O6_2 1_555 1_555
Tb1E O6E_2 1_555 1_555
Tb1_2 O6F 1_555 1_555
Tb1E_4 O6F_2 1_555 1_555
Tb1E_4 O6C_2 1_555 1_555
O2D O2B 1_555 1_555
O2B C6D 1_555 1_555
O4E C14E 1_555 1_555
C1F C2F 1_555 1_555
C1D C1B 1_555 1_555
C1B C2D 1_555 1_555
C1B C2B 1_555 1_555
C2F C3F 1_555 1_555
C2D C2B 1_555 1_555
C2B C3D 1_555 1_555
C2B C3B 1_555 1_555
C3F C4F 1_555 1_555
C3D C3B 1_555 1_555
C3D C6D 1_555 1_555
C3B C4D 1_555 1_555
C3B C4B 1_555 1_555
C3B C6D 1_555 1_555
C4F C5F 1_555 1_555
C4D C4B 1_555 1_555
C4D C5D 1_555 1_555
C4D C5B 1_555 1_555
C4B C5D 1_555 1_555
C4B C5B 1_555 1_555
C5F H4F 1_555 1_555
C5D C5B 1_555 1_555
C5B H4D 1_555 1_555
C5B H4B 1_555 1_555
C7F C8F 1_555 1_555
C7F C12F 1_555 1_555
C7E C13E 1_555 1_555
C7C C8C 1_555 1_555
C7C C12E 1_555 1_555
C7C C12C 1_555 1_555
C7C C13E 1_555 1_555
C8F C9F 1_555 1_555
C8E C8C 1_555 1_555
C8C C9E 1_555 1_555
C8C C9C 1_555 1_555
C9F H6F 1_555 1_555
C9F C10F 1_555 1_555
C9E C9C 1_555 1_555
C9C H6E 1_555 1_555
C9C H6C 1_555 1_555
C9C C10E 1_555 1_555
C9C C10C 1_555 1_555
C10F H7F 1_555 1_555
C10F C11F 1_555 1_555
C10E C10C 1_555 1_555
C10C H7E 1_555 1_555
C10C H7C 1_555 1_555
C10C C11E 1_555 1_555
C10C C11C 1_555 1_555
H7E H7C 1_555 1_555
C11F C12F 1_555 1_555
C11E C11C 1_555 1_555
C11E C12E 1_555 1_555
C11C C12C 1_555 1_555
C12F C14F 1_555 1_555
C12E C12C 1_555 1_555
C12E C14E 1_555 1_555
C12C C14C 1_555 1_555

#END
