
#######################################################################
#
#                 Cambridge Crystallographic Data Centre
#                                CCDC 
#
#######################################################################
#
# If this CIF has been generated from an entry in the Cambridge 
# Structural Database, then it will include bibliographic, chemical, 
# crystal, experimental, refinement or atomic coordinate data resulting 
# from the CCDC's data processing and validation procedures.
#
#######################################################################

data_LAHTUM
_chemical_formula_moiety         '(C35 H27 Cd2 N3 O10)n'
_symmetry_cell_setting           monoclinic
_symmetry_space_group_name_H-M   'P 21/c'
_symmetry_Int_Tables_number      14
_space_group_name_Hall           '-P 2ybc'
loop_
_symmetry_equiv_pos_site_id
_symmetry_equiv_pos_as_xyz
1 x,y,z
2 -x,1/2+y,1/2-z
3 -x,-y,-z
4 x,1/2-y,1/2+z
_cell_length_a                   10.819(5)
_cell_length_b                   24.514(5)
_cell_length_c                   16.607(5)
_cell_angle_alpha                90
_cell_angle_beta                 91.681(5)
_cell_angle_gamma                90
_cell_volume                     4402.56
loop_
_atom_site_label
_atom_site_type_symbol
_atom_site_fract_x
_atom_site_fract_y
_atom_site_fract_z
Cd1 Cd 0.99995(3) 0.197976(13) -0.035866(18)
Cd2 Cd 0.71515(3) 0.867843(13) 0.00740(2)
C1 C 0.9880(5) 0.2894(2) 0.0579(3)
C2 C 0.9890(5) 0.33855(18) 0.1108(3)
C3 C 1.0920(5) 0.3511(2) 0.1606(3)
H1 H 1.1625 0.3295 0.1583
C4 C 1.0906(5) 0.39520(19) 0.2133(3)
H2 H 1.1588 0.4025 0.2469
C5 C 0.9861(4) 0.42828(17) 0.2153(3)
C6 C 0.8850(5) 0.41650(19) 0.1635(3)
H3 H 0.8160 0.4391 0.1632
C7 C 0.8863(5) 0.37196(18) 0.1132(3)
H4 H 0.8173 0.3643 0.0804
C8 C 0.9825(4) 0.47648(18) 0.2689(2)
C9 C 1.0284(4) 0.47659(18) 0.3482(3)
C10 C 1.0749(4) 0.42537(18) 0.3912(3)
C11 C 1.0288(4) 0.52495(18) 0.3917(3)
H5 H 1.0620 0.5251 0.4440
C12 C 0.9808(4) 0.57346(18) 0.3594(2)
C13 C 0.9326(4) 0.57384(17) 0.2808(3)
C14 C 0.9363(4) 0.52565(18) 0.2367(3)
H6 H 0.9068 0.5260 0.1835
C15 C 0.8825(4) 0.62304(18) 0.2395(3)
C16 C 0.9388(4) 0.67403(18) 0.2465(3)
H7 H 1.0086 0.6784 0.2800
C17 C 0.8912(4) 0.71846(18) 0.2038(3)
H8 H 0.9302 0.7522 0.2084
C18 C 0.7858(4) 0.71305(18) 0.1541(3)
C19 C 0.7297(4) 0.66330(18) 0.1479(3)
H9 H 0.6583 0.6595 0.1158
C20 C 0.7772(4) 0.61853(19) 0.1884(3)
H10 H 0.7389 0.5848 0.1819
C21 C 0.9832(4) 0.62171(18) 0.4150(2)
C22 C 0.6857(6) 0.9826(3) -0.0935(5)
H11 H 0.7444 0.9751 -0.1317
C23 C 0.6455(11) 1.0387(5) 0.0022(10)
H12 H 0.6410 1.0773 0.0117
H13 H 0.7061 1.0228 0.0385
H14 H 0.5662 1.0225 0.0109
C24 C 0.7265(6) 1.0766(3) -0.1162(6)
H15 H 0.6952 1.1063 -0.0851
H16 H 0.6992 1.0807 -0.1714
H17 H 0.8152 1.0768 -0.1129
C25 C 0.7495(5) 0.2512(2) -0.1097(3)
H18 H 0.7441 0.2621 -0.0563
C26 C 0.6614(5) 0.2703(2) -0.1645(3)
H19 H 0.5964 0.2919 -0.1475
C27 C 0.6709(4) 0.25708(19) -0.2447(3)
C28 C 0.7674(4) 0.2222(2) -0.2651(3)
H20 H 0.7773 0.2122 -0.3186
C29 C 0.8481(4) 0.20246(19) -0.2059(3)
H21 H 0.9085 0.1775 -0.2201
C30 C 0.5833(4) 0.27772(19) -0.3077(3)
C31 C 0.4583(4) 0.2840(2) -0.2919(3)
H22 H 0.4287 0.2738 -0.2421
C32 C 0.3793(5) 0.3052(2) -0.3494(3)
H23 H 0.2966 0.3096 -0.3371
C33 C 0.5354(4) 0.3134(2) -0.4387(3)
H24 H 0.5625 0.3233 -0.4894
C34 C 0.6196(4) 0.2928(2) -0.3832(3)
H25 H 0.7020 0.2891 -0.3968
C35 C 0.7308(4) 0.76178(19) 0.1111(2)
N1 N 0.4153(3) 0.31988(16) -0.4226(2)
N2 N 0.8420(3) 0.21803(15) -0.1289(2)
N3 N 0.6832(6) 1.0282(3) -0.0865(9)
O1 O 0.8886(3) 0.26420(14) 0.0472(2)
O2 O 1.0852(4) 0.27435(14) 0.0271(2)
O3 O 1.0098(3) 0.38364(12) 0.38756(18)
O4 O 1.1765(3) 0.43202(13) 0.43037(19)
O5 O 1.0837(3) 0.63459(13) 0.44808(19)
O6 O 0.8834(3) 0.64691(13) 0.42818(18)
O7 O 0.6157(3) 0.76267(14) 0.1025(2)
O8 O 0.8020(3) 0.79960(12) 0.08888(17)
O9 O 0.6450(4) 0.93954(15) -0.0726(2)
O10 O 0.5608(3) 0.87051(18) 0.1007(2)
H26 H 0.577(5) 0.883(2) 0.1532(17)
H27 H 0.558(9) 0.8326(10) 0.115(4)
Cd1A Cd 1.00005(3) 0.697976(13) 0.535866(18)
Cd1B Cd 1.00005(3) 0.802024(13) 0.035866(18)
Cd1C Cd 0.99995(3) 0.302024(13) 0.464134(18)
Cd2A Cd 0.28485(3) 0.367843(13) -0.50740(2)
Cd2A_2 Cd 1.28485(3) 0.367843(13) 0.49260(2)
Cd2C Cd 0.71515(3) 0.632157(13) 0.50740(2)
N1A N 0.5847(3) 0.81988(16) -0.0774(2)
O3C O 1.0098(3) 0.11636(12) -0.11244(18)
O4A O 0.8235(3) 0.93202(13) 0.06963(19)
O5A O 0.9163(3) 0.13459(13) 0.05192(19)
O6A O 1.1166(3) 0.14691(13) 0.07182(18)
O6C O 0.8834(3) 0.85309(13) -0.07182(18)
O8B O 1.1980(3) 0.20040(12) -0.08888(17)
loop_
_geom_bond_atom_site_label_1
_geom_bond_atom_site_label_2
_geom_bond_site_symmetry_1
_geom_bond_site_symmetry_2
Cd1 N2 1_555 1_555
Cd2 O8 1_555 1_555
C1 C2 1_555 1_555
C2 C3 1_555 1_555
C3 H1 1_555 1_555
C4 C3 1_555 1_555
H2 C4 1_555 1_555
C5 C4 1_555 1_555
C6 C5 1_555 1_555
H3 C6 1_555 1_555
C7 C2 1_555 1_555
H4 C7 1_555 1_555
C8 C5 1_555 1_555
C9 C8 1_555 1_555
C10 C9 1_555 1_555
C11 C9 1_555 1_555
H5 C11 1_555 1_555
C12 C11 1_555 1_555
C13 C12 1_555 1_555
C14 C8 1_555 1_555
H6 C14 1_555 1_555
C15 C13 1_555 1_555
C16 C15 1_555 1_555
H7 C16 1_555 1_555
C17 C16 1_555 1_555
H8 C17 1_555 1_555
C18 C17 1_555 1_555
C19 C18 1_555 1_555
H9 C19 1_555 1_555
C20 C15 1_555 1_555
H10 C20 1_555 1_555
C21 C12 1_555 1_555
C22 H11 1_555 1_555
C23 H12 1_555 1_555
H13 C23 1_555 1_555
H14 C23 1_555 1_555
C24 H15 1_555 1_555
H16 C24 1_555 1_555
H17 C24 1_555 1_555
C25 H18 1_555 1_555
C26 C25 1_555 1_555
H19 C26 1_555 1_555
C27 C26 1_555 1_555
C28 C27 1_555 1_555
H20 C28 1_555 1_555
C29 C28 1_555 1_555
H21 C29 1_555 1_555
C30 C27 1_555 1_555
C31 C30 1_555 1_555
H22 C31 1_555 1_555
C32 C31 1_555 1_555
H23 C32 1_555 1_555
C33 H24 1_555 1_555
C34 C30 1_555 1_555
H25 C34 1_555 1_555
C35 C18 1_555 1_555
N1 C32 1_555 1_555
N2 C25 1_555 1_555
N3 C22 1_555 1_555
O1 Cd1 1_555 1_555
O2 Cd1 1_555 1_555
O3 C10 1_555 1_555
O4 C10 1_555 1_555
O5 C21 1_555 1_555
O6 C21 1_555 1_555
O7 C35 1_555 1_555
O8 C35 1_555 1_555
O9 Cd2 1_555 1_555
O10 Cd2 1_555 1_555
H26 O10 1_555 1_555
H27 O10 1_555 1_555
Cd1A O5 1_555 1_555
Cd1B O8 1_555 1_555
Cd1C O3 1_555 1_555
Cd2A N1 1_555 1_555
Cd2A_2 O4 1_555 1_555
Cd2C O6 1_555 1_555
N1A Cd2 1_555 1_555
O3C Cd1 1_555 1_555
O4A Cd2 1_555 1_555
O5A Cd1 1_555 1_555
O6A Cd1 1_555 1_555
O6C Cd2 1_555 1_555
O8B Cd1 1_555 1_555
C1 O1 1_555 1_555
C1 O2 1_555 1_555
C6 C7 1_555 1_555
C13 C14 1_555 1_555
C19 C20 1_555 1_555
C22 O9 1_555 1_555
C23 N3 1_555 1_555
C24 N3 1_555 1_555
C29 N2 1_555 1_555
C33 C34 1_555 1_555
C33 N1 1_555 1_555
O6 Cd1A 1_555 1_555
Cd1B O6C 1_555 1_555

#END
