
#######################################################################
#
#                 Cambridge Crystallographic Data Centre
#                                CCDC 
#
#######################################################################
#
# If this CIF has been generated from an entry in the Cambridge 
# Structural Database, then it will include bibliographic, chemical, 
# crystal, experimental, refinement or atomic coordinate data resulting 
# from the CCDC's data processing and validation procedures.
#
#######################################################################

data_CUNXIS
_chemical_formula_moiety         '(C4 H11 Al3 N1 O13 P3)n'
_symmetry_cell_setting           monoclinic
_symmetry_space_group_name_H-M   'P 21/n'
_symmetry_Int_Tables_number      14
_space_group_name_Hall           '-P 2yn'
loop_
_symmetry_equiv_pos_site_id
_symmetry_equiv_pos_as_xyz
1 x,y,z
2 1/2-x,1/2+y,1/2-z
3 -x,-y,-z
4 1/2+x,1/2-y,1/2+z
_cell_length_a                   8.668(1)
_cell_length_b                   17.558(2)
_cell_length_c                   9.186(2)
_cell_angle_alpha                90
_cell_angle_beta                 107.75(1)
_cell_angle_gamma                90
_cell_volume                     1331.49
loop_
_atom_site_label
_atom_site_type_symbol
_atom_site_fract_x
_atom_site_fract_y
_atom_site_fract_z
Al1 Al 0.0833(2) 0.2973(1) 0.2850(2)
Al2 Al 0.1427(2) 0.1113(1) 0.1551(2)
Al3 Al 0.5358(2) 0.3236(1) 0.1804(2)
P1 P 0.3597(2) 0.4258(1) 0.3475(2)
P2 P -0.1836(2) 0.2944(1) 0.4654(2)
P3 P 0.2753(2) 0.1695(1) 0.4896(2)
O1 O 0.0483(5) 0.2066(2) 0.1808(5)
O2 O 0.2035(5) 0.3807(2) 0.2934(5)
O3 O 0.2517(5) 0.2526(2) 0.4383(4)
O4 O -0.0474(5) 0.3131(2) 0.4006(5)
O5 O 0.4393(5) 0.1577(2) 0.6092(4)
O6 O 0.4652(5) 0.4053(2) 0.2459(5)
O7 O -0.1354(5) 0.2274(2) 0.5761(5)
O8 O 0.1414(5) 0.1457(3) 0.5587(5)
O9 O -0.3369(5) 0.2726(2) 0.3343(4)
O10 O 0.2658(5) 0.1163(2) 0.3555(4)
O11 O 0.4517(5) 0.4061(2) 0.5114(5)
O12 O 0.3160(5) 0.5090(2) 0.3272(4)
O13 O -0.2205(5) 0.3629(2) 0.5504(5)
O5C O -0.0607(5) 0.3423(2) 0.1092(4)
O11C O -0.0483(5) 0.0939(2) 0.0114(5)
O12A O 0.1840(5) 0.0090(2) 0.1728(4)
O13C O 0.2795(5) 0.1371(2) 0.0504(5)
O7C O 0.3646(5) 0.2726(2) 0.0761(5)
O8C O 0.6414(5) 0.3543(3) 0.0587(5)
O9_2 O 0.6631(5) 0.2726(2) 0.3343(4)
Al1C Al 0.5833(2) 0.2027(1) 0.7850(2)
Al3C Al 0.0358(2) 0.1764(1) 0.6804(2)
Al3_2 Al -0.4642(2) 0.3236(1) 0.1804(2)
Al2C Al 0.6427(2) 0.3887(1) 0.6551(2)
Al2A Al 0.3573(2) 0.6113(1) 0.3449(2)
Al2C_2 Al -0.3573(2) 0.3887(1) 0.6551(2)
N1 N 0.0395(6) 0.4911(3) -0.1644(6)
C1 C 0.0565(9) 0.4922(5) -0.3214(8)
C2 C 0.2965(10) 0.4368(6) -0.1591(10)
C3 C 0.1836(10) 0.4483(5) -0.0623(9)
C4 C 0.1915(13) 0.4395(8) -0.3155(11)
H1 H -0.0460 0.5157 -0.1137
H2 H 0.0849 0.5489 -0.3507
H3 H -0.0539 0.4729 -0.4043
H4 H 0.3569 0.3825 -0.1346
H5 H 0.3858 0.4816 -0.1382
H6 H 0.2426 0.4812 0.0386
H7 H 0.1461 0.3942 -0.0289
H8 H 0.2584 0.4597 -0.3896
H9 H 0.1444 0.3834 -0.3516
loop_
_geom_bond_atom_site_label_1
_geom_bond_atom_site_label_2
_geom_bond_site_symmetry_1
_geom_bond_site_symmetry_2
Al1 O1 1_555 1_555
Al2 O1 1_555 1_555
Al3 O6 1_555 1_555
P1 O2 1_555 1_555
P2 O4 1_555 1_555
P3 O3 1_555 1_555
O2 Al1 1_555 1_555
O3 Al1 1_555 1_555
O4 Al1 1_555 1_555
O5 P3 1_555 1_555
O6 P1 1_555 1_555
O7 P2 1_555 1_555
O8 P3 1_555 1_555
O9 P2 1_555 1_555
O10 Al2 1_555 1_555
O11 P1 1_555 1_555
O12 P1 1_555 1_555
O13 P2 1_555 1_555
N1 C1 1_555 1_555
C1 C4 1_555 1_555
C2 C3 1_555 1_555
C3 N1 1_555 1_555
C4 C2 1_555 1_555
H1 N1 1_555 1_555
H2 C1 1_555 1_555
H3 C1 1_555 1_555
H4 C2 1_555 1_555
H5 C2 1_555 1_555
H6 C3 1_555 1_555
H7 C3 1_555 1_555
H8 C4 1_555 1_555
H9 C4 1_555 1_555
O5C Al1 1_555 1_555
O11C Al2 1_555 1_555
O12A Al2 1_555 1_555
O13C Al2 1_555 1_555
O7C Al3 1_555 1_555
O8C Al3 1_555 1_555
O9_2 Al3 1_555 1_555
Al1C O5 1_555 1_555
Al3C O7 1_555 1_555
Al3_2 O9 1_555 1_555
Al2C O11 1_555 1_555
Al2A O12 1_555 1_555
Al2C_2 O13 1_555 1_555
P3 O10 1_555 1_555
O8 Al3C 1_555 1_555

#END
