
#######################################################################
#
#                 Cambridge Crystallographic Data Centre
#                                CCDC 
#
#######################################################################
#
# If this CIF has been generated from an entry in the Cambridge 
# Structural Database, then it will include bibliographic, chemical, 
# crystal, experimental, refinement or atomic coordinate data resulting 
# from the CCDC's data processing and validation procedures.
#
#######################################################################

data_VOBQIO
_chemical_formula_moiety         '(C32 H18 Mn3 O16)n'
_symmetry_cell_setting           monoclinic
_symmetry_space_group_name_H-M   'C 2/c'
_symmetry_Int_Tables_number      15
_space_group_name_Hall           '-C 2yc'
loop_
_symmetry_equiv_pos_site_id
_symmetry_equiv_pos_as_xyz
1 x,y,z
2 -x,y,1/2-z
3 1/2+x,1/2+y,z
4 1/2-x,1/2+y,1/2-z
5 -x,-y,-z
6 x,-y,1/2+z
7 1/2-x,1/2-y,-z
8 1/2+x,1/2-y,1/2+z
_cell_length_a                   34.493(5)
_cell_length_b                   9.953(5)
_cell_length_c                   18.104(5)
_cell_angle_alpha                90
_cell_angle_beta                 93.380(5)
_cell_angle_gamma                90
_cell_volume                     6204.45
loop_
_atom_site_label
_atom_site_type_symbol
_atom_site_fract_x
_atom_site_fract_y
_atom_site_fract_z
C1 C 0.31506(12) 0.1260(4) 0.4069(2)
C2 C 0.31356(11) 0.0528(4) 0.33436(19)
C3 C 0.28075(12) -0.0144(5) 0.3116(2)
H1 H 0.2592 -0.0124 0.3402
C4 C 0.27917(13) -0.0856(5) 0.2463(2)
H2 H 0.2567 -0.1322 0.2316
C5 C 0.31044(11) -0.0889(4) 0.2023(2)
C6 C 0.34322(13) -0.0189(5) 0.2252(2)
H3 H 0.3646 -0.0195 0.1962
C7 C 0.34496(12) 0.0526(5) 0.2907(2)
H4 H 0.3673 0.1005 0.3053
C8 C 0.30928(13) -0.1685(4) 0.1311(2)
C9 C 0.30032(12) 0.5199(4) 0.5214(3)
C10 C 0.27383(11) 0.6391(4) 0.5110(2)
C11 C 0.24465(12) 0.6399(4) 0.4540(2)
H5 H 0.2411 0.5654 0.4233
C12 C 0.27854(12) 0.7505(4) 0.5567(2)
H6 H 0.2977 0.7502 0.5951
C13 C 0.42049(14) 0.4086(5) 0.5075(3)
C14 C 0.46182(13) 0.4555(5) 0.5043(3)
C15 C 0.48923(16) 0.4183(8) 0.5530(4)
H7 H 0.4829 0.3598 0.5905
C16 C 0.47231(15) 0.5371(8) 0.4488(4)
H8 H 0.4540 0.5635 0.4119
O1 O 0.28693(8) 0.1190(3) 0.44607(14)
O2 O 0.34591(9) 0.1919(3) 0.42541(16)
O3 O 0.27658(9) -0.2064(3) 0.10669(14)
O4 O 0.34112(8) -0.1938(3) 0.10428(15)
O5 O 0.29318(7) 0.4143(3) 0.48406(15)
O6 O 0.32939(9) 0.5251(3) 0.5658(2)
O7 O 0.39569(9) 0.4438(4) 0.4587(2)
O8 O 0.41188(9) 0.3350(4) 0.5567(2)
Mn1 Mn 0.2500 0.2500 0.5000
Mn2 Mn 0.350430(15) 0.31897(6) 0.51639(3)
H9 H 0.3496(11) 0.2730(13) 0.3976(5)
C9F C 0.19968(12) 0.9801(4) 0.4786(3)
C10F C 0.22617(11) 0.8609(4) 0.4890(2)
C11F C 0.25535(12) 0.8601(4) 0.5460(2)
H5F H 0.2589 0.9346 0.5767
C12F C 0.22146(12) 0.7495(4) 0.4433(2)
H6F H 0.2023 0.7498 0.4049
O5F O 0.20682(7) 1.0857(3) 0.51594(15)
O6F O 0.17061(9) 0.9749(3) 0.4342(2)
C13D C 0.57951(14) 0.5914(5) 0.4925(3)
C14D C 0.53818(13) 0.5445(5) 0.4957(3)
C15D C 0.51077(16) 0.5817(8) 0.4470(4)
H7D H 0.5171 0.6402 0.4095
C16D C 0.52769(15) 0.4629(8) 0.5512(4)
H8D H 0.5460 0.4365 0.5881
O7D O 0.60431(9) 0.5562(4) 0.5413(2)
O8D O 0.58812(9) 0.6650(4) 0.4433(2)
C1D C 0.68494(12) 0.8740(4) 0.5931(2)
C2D C 0.68644(11) 0.9472(4) 0.66564(19)
C3D C 0.71925(12) 1.0144(5) 0.6884(2)
H1D H 0.7408 1.0124 0.6598
C4D C 0.72083(13) 1.0856(5) 0.7537(2)
H2D H 0.7433 1.1322 0.7684
C5D C 0.68956(11) 1.0889(4) 0.7977(2)
C6D C 0.65678(13) 1.0189(5) 0.7748(2)
H3D H 0.6354 1.0195 0.8038
C7D C 0.65504(12) 0.9474(5) 0.7093(2)
H4D H 0.6327 0.8995 0.6947
C8D C 0.69072(13) 1.1685(4) 0.8689(2)
O1D O 0.71307(8) 0.8810(3) 0.55393(14)
O2D O 0.65409(9) 0.8081(3) 0.57459(16)
O3D O 0.72342(9) 1.2064(3) 0.89331(14)
O4D O 0.65888(8) 1.1938(3) 0.89572(15)
Mn2D Mn 0.649570(15) 0.68103(6) 0.48361(3)
H9D H 0.6504(11) 0.7270(13) 0.6024(5)
O1F O 0.21307(8) 0.3810(3) 0.55393(14)
O3C O 0.22342(9) 0.2936(3) 0.39331(14)
O3E O 0.27658(9) 0.2064(3) 0.60669(14)
O4A O 0.65888(8) 0.8062(3) 0.39572(15)
O4E O 0.34112(8) 0.1938(3) 0.60428(15)
O5D O 0.70682(7) 0.5857(3) 0.51594(15)
O5F_2 O 0.20682(7) 0.0857(3) 0.51594(15)
O6D O 0.67061(9) 0.4749(3) 0.4342(2)
Mn1_2 Mn 0.2500 1.2500 0.5000
Mn1A Mn 0.7500 1.2500 1.0000
Mn1B Mn 0.7500 0.7500 0.5000
Mn1C Mn 0.2500 -0.2500 0.0000
Mn2A Mn 0.649570(15) 1.31897(6) 0.98361(3)
Mn2E Mn 0.350430(15) -0.31897(6) 0.01639(3)
Mn2F Mn 0.149570(15) 1.18103(6) 0.48361(3)
loop_
_geom_bond_atom_site_label_1
_geom_bond_atom_site_label_2
_geom_bond_site_symmetry_1
_geom_bond_site_symmetry_2
C1 C2 1_555 1_555
C2 C3 1_555 1_555
C3 H1 1_555 1_555
C4 C3 1_555 1_555
H2 C4 1_555 1_555
C5 C4 1_555 1_555
C6 C5 1_555 1_555
H3 C6 1_555 1_555
C7 C2 1_555 1_555
H4 C7 1_555 1_555
C8 C5 1_555 1_555
C9 C10 1_555 1_555
C10 C11 1_555 1_555
C11 H5 1_555 1_555
C12 C10 1_555 1_555
H6 C12 1_555 1_555
C13 C14 1_555 1_555
C14 C15 1_555 1_555
C15 H7 1_555 1_555
C16 C14 1_555 1_555
H8 C16 1_555 1_555
O1 C1 1_555 1_555
O2 C1 1_555 1_555
O3 C8 1_555 1_555
O4 C8 1_555 1_555
O5 C9 1_555 1_555
O6 C9 1_555 1_555
O7 C13 1_555 1_555
O8 C13 1_555 1_555
Mn1 O1 1_555 1_555
Mn2 O2 1_555 1_555
H9 O2 1_555 1_555
C9F C10F 1_555 1_555
C10F C11F 1_555 1_555
C11F C12 1_555 1_555
H5F C11F 1_555 1_555
C12F C11 1_555 1_555
H6F C12F 1_555 1_555
O5F C9F 1_555 1_555
O6F C9F 1_555 1_555
C13D C14D 1_555 1_555
C14D C15D 1_555 1_555
C15D C16 1_555 1_555
H7D C15D 1_555 1_555
C16D C15 1_555 1_555
H8D C16D 1_555 1_555
O7D C13D 1_555 1_555
O8D C13D 1_555 1_555
C1D C2D 1_555 1_555
C2D C3D 1_555 1_555
C3D H1D 1_555 1_555
C4D C3D 1_555 1_555
H2D C4D 1_555 1_555
C5D C4D 1_555 1_555
C6D C5D 1_555 1_555
H3D C6D 1_555 1_555
C7D C2D 1_555 1_555
H4D C7D 1_555 1_555
C8D C5D 1_555 1_555
O1D C1D 1_555 1_555
O2D C1D 1_555 1_555
O3D C8D 1_555 1_555
O4D C8D 1_555 1_555
Mn2D O7D 1_555 1_555
H9D O2D 1_555 1_555
O1F Mn1 1_555 1_555
O3C Mn1 1_555 1_555
O3E Mn1 1_555 1_555
O4A Mn2D 1_555 1_555
O4E Mn2 1_555 1_555
O5D Mn2D 1_555 1_555
O5F_2 Mn1 1_555 1_555
O6D Mn2D 1_555 1_555
Mn1_2 O5F 1_555 1_555
Mn1A O3D 1_555 1_555
Mn1B O1D 1_555 1_555
Mn1C O3 1_555 1_555
Mn2A O4D 1_555 1_555
Mn2E O4 1_555 1_555
Mn2F O5F 1_555 1_555
C6 C7 1_555 1_555
O5 Mn1 1_555 1_555
O5 Mn2 1_555 1_555
O6 Mn2 1_555 1_555
O7 Mn2 1_555 1_555
O8 Mn2 1_555 1_555
C10F C12F 1_555 1_555
O6F Mn2F 1_555 1_555
C14D C16D 1_555 1_555
O8D Mn2D 1_555 1_555
C6D C7D 1_555 1_555
O2D Mn2D 1_555 1_555
O5D Mn1B 1_555 1_555

#END
