
#######################################################################
#
#                 Cambridge Crystallographic Data Centre
#                                CCDC 
#
#######################################################################
#
# If this CIF has been generated from an entry in the Cambridge 
# Structural Database, then it will include bibliographic, chemical, 
# crystal, experimental, refinement or atomic coordinate data resulting 
# from the CCDC's data processing and validation procedures.
#
#######################################################################

data_VOCXUH
_chemical_formula_moiety         '(C57 H33 Co3 N6 O18)n'
_symmetry_cell_setting           hexagonal
_symmetry_space_group_name_H-M   'P -6 2 m'
_symmetry_Int_Tables_number      189
_space_group_name_Hall           'P -6 -2'
loop_
_symmetry_equiv_pos_site_id
_symmetry_equiv_pos_as_xyz
1 x,y,z
2 -x+y,-x,-z
3 -y,x-y,z
4 x,y,-z
5 -x+y,-x,z
6 -y,x-y,-z
7 y,x,z
8 x-y,-y,-z
9 -x,-x+y,z
10 y,x,-z
11 x-y,-y,z
12 -x,-x+y,-z
_cell_length_a                   16.6736(16)
_cell_length_b                   16.6736(16)
_cell_length_c                   11.389(2)
_cell_angle_alpha                90
_cell_angle_beta                 90
_cell_angle_gamma                120
_cell_volume                     2742.05
loop_
_atom_site_label
_atom_site_type_symbol
_atom_site_fract_x
_atom_site_fract_y
_atom_site_fract_z
C1 C 0.0839(8) 0.0000 0.0000
C2 C 0.6018(7) 0.2391(6) 0.0000
C3 C 0.6959(7) 0.2686(7) 0.0000
H1 H 0.7156 0.2253 0.0000
C4 C 0.0000 -0.0826(7) 0.0000
H2 H 0.0000 -0.1383 0.0000
C5 C 0.366(3) 0.0802(14) 0.3706(15)
H3 H 0.3928 0.1374 0.4082
C6 C 0.1736(8) 0.0000 0.0000
C7 C 0.367(2) 0.0755(13) 0.2476(15)
H4 H 0.4011 0.1305 0.2062
O1 O 0.4493(5) 0.1147(5) 0.0000
C8 C 0.3243(6) 0.0000 0.4347(9)
C9 C 0.5322(7) 0.1377(6) 0.0000
N1 N 0.3243(4) 0.0000 0.1889(6)
O2 O 0.1725(4) -0.0762(4) 0.0000
Co1 Co 0.32235(8) 0.0000 0.0000
O3 O 0.5630(7) 0.0838(6) 0.0000
C1A C -0.0839(8) -0.0839(8) 0.0000
C1B C -0.0000 0.0839(8) 0.0000
C2B C 0.7609(6) 0.3627(9) 0.0000
C2A C 0.6373(9) 0.3982(7) 0.0000
C2G C 0.3627(9) -0.2391(6) 0.0000
C2H C 0.3982(7) -0.3627(9) 0.0000
C2F C 0.2391(6) -0.3982(7) 0.0000
C3B C 0.7314(7) 0.4273(10) 0.0000
C3A C 0.5727(10) 0.3041(7) 0.0000
C3G C 0.4273(10) -0.2686(7) 0.0000
C3H C 0.3041(7) -0.4273(10) 0.0000
C3F C 0.2686(7) -0.3041(7) 0.0000
H1A H 0.5097 0.2844 0.0000
H1B H 0.7747 0.4903 0.0000
H1G H 0.4903 -0.2253 0.0000
H1F H 0.2253 -0.2844 0.0000
H1H H 0.2844 -0.4903 0.0000
C4A C -0.0826(7) 0.0000 0.0000
C4B C 0.0826(7) 0.0826(7) 0.0000
H2B H 0.1383 0.1383 0.0000
H2A H -0.1383 0.0000 0.0000
C5J C 0.2858(33) -0.0802(14) 0.3706(15)
C5C C 0.366(3) 0.0802(14) 0.6294(15)
C5G C 0.2858(33) -0.0802(14) 0.6294(15)
C5C_2 C 0.366(3) 0.0802(14) -0.3706(15)
C5G_2 C 0.2858(33) -0.0802(14) -0.3706(15)
C5_2 C 0.366(3) 0.0802(14) -0.6294(15)
C5J_2 C 0.2858(33) -0.0802(14) -0.6294(15)
C5D C 0.7142(33) 0.634(3) 0.3706(15)
C5H C 0.634(3) 0.7142(33) 0.3706(15)
C5A C 0.7142(33) 0.634(3) 0.6294(15)
C5K C 0.634(3) 0.7142(33) 0.6294(15)
H3J H 0.2554 -0.1374 0.4082
H3C H 0.3928 0.1374 0.5918
H3G H 0.2554 -0.1374 0.5918
H3C_2 H 0.3928 0.1374 -0.4082
H3G_2 H 0.2554 -0.1374 -0.4082
H3_2 H 0.3928 0.1374 -0.5918
H3J_2 H 0.2554 -0.1374 -0.5918
H3D H 0.7446 0.6072 0.4082
H3H H 0.6072 0.7446 0.4082
H3A H 0.7446 0.6072 0.5918
H3K H 0.6072 0.7446 0.5918
C6B C -0.0000 0.1736(8) 0.0000
C6A C -0.1736(8) -0.1736(8) 0.0000
C7J C 0.2915(24) -0.0755(13) 0.2476(15)
C7C C 0.367(2) 0.0755(13) 0.7524(15)
C7G C 0.2915(24) -0.0755(13) 0.7524(15)
C7C_2 C 0.367(2) 0.0755(13) -0.2476(15)
C7G_2 C 0.2915(24) -0.0755(13) -0.2476(15)
C7_2 C 0.367(2) 0.0755(13) -0.7524(15)
C7J_2 C 0.2915(24) -0.0755(13) -0.7524(15)
C7D C 0.7085(24) 0.633(2) 0.2476(15)
C7H C 0.633(2) 0.7085(24) 0.2476(15)
C7A C 0.7085(24) 0.633(2) 0.7524(15)
C7K C 0.633(2) 0.7085(24) 0.7524(15)
H4C H 0.4011 0.1305 0.7938
H4G H 0.2706 -0.1305 0.7938
H4J H 0.2706 -0.1305 0.2062
H4C_2 H 0.4011 0.1305 -0.2062
H4_2 H 0.4011 0.1305 -0.7938
H4J_2 H 0.2706 -0.1305 -0.7938
H4G_2 H 0.2706 -0.1305 -0.2062
H4D H 0.7294 0.5989 0.2062
H4A H 0.7294 0.5989 0.7938
H4K H 0.5989 0.7294 0.7938
H4H H 0.5989 0.7294 0.2062
O1A O 0.6654(7) 0.5507(5) 0.0000
O1B O 0.8853(5) 0.3346(7) 0.0000
O1G O 0.3346(7) -0.1147(5) 0.0000
O1F O 0.1147(5) -0.5507(5) 0.0000
O1H O 0.5507(5) -0.3346(7) 0.0000
O1H_2 O 0.5507(5) 0.6654(7) 0.0000
O1F_2 O 1.1147(5) 0.4493(5) 0.0000
C8C C 0.3243(6) 0.0000 0.5653(9)
C8C_2 C 0.3243(6) -0.0000 -0.4347(9)
C8_2 C 0.3243(6) -0.0000 -0.5653(9)
C8D C 0.6757(6) 0.6757(6) 0.4347(9)
C8A C 0.6757(6) 0.6757(6) 0.5653(9)
C9A C 0.6055(9) 0.4678(7) 0.0000
C9B C 0.8623(6) 0.3945(9) 0.0000
C9G C 0.3945(9) -0.1377(6) 0.0000
C9F C 0.1377(6) -0.4678(7) 0.0000
C9H C 0.4678(7) -0.3945(9) 0.0000
N1C N 0.3243(4) 0.0000 0.8111(6)
N1C_2 N 0.3243(4) -0.0000 -0.1889(6)
N1_2 N 0.3243(4) 0.0000 -0.8111(6)
N1D N 0.6757(4) 0.6757(4) 0.1889(6)
N1A N 0.6757(4) 0.6757(4) 0.8111(6)
N1A_2 N 0.6757(4) 0.6757(4) -0.1889(6)
N1B N 1.0000 0.3243(4) 0.1889(6)
N1E N 1.0000 0.3243(4) -0.1889(6)
O2G O 0.2487(6) 0.0762(4) 0.0000
O2B O 0.0762(4) 0.2487(6) 0.0000
O2F O -0.0762(4) 0.1725(4) 0.0000
O2A O -0.2487(6) -0.1725(4) 0.0000
O2H O -0.1725(4) -0.2487(6) 0.0000
O2A_2 O 0.7513(6) 0.8275(4) 0.0000
O2H_2 O 0.8275(4) 0.7513(6) 0.0000
O2B_2 O 1.0762(4) 0.2487(6) 0.0000
O2F_2 O 0.9238(4) 0.1725(4) 0.0000
Co1A Co 0.67765(8) 0.67765(8) 0.0000
Co1B Co 1.0000 0.32235(8) 0.0000
Co1B_2 Co 0.0000 0.32235(8) 0.0000
Co1A_2 Co -0.32235(8) -0.32235(8) 0.0000
Co1_2 Co 0.32235(8) 0.0000 1.0000
Co1B_3 Co 0.0000 -0.67765(8) 0.0000
Co1A_3 Co 0.67765(8) -0.32235(8) 0.0000
Co1_3 Co 0.32235(8) 0.0000 -1.0000
Co1A_4 Co 0.67765(8) 0.67765(8) 1.0000
O3A O 0.5208(9) 0.4370(7) 0.0000
O3B O 0.9162(6) 0.4792(9) 0.0000
O3G O 0.4792(9) -0.0838(6) 0.0000
O3F O 0.0838(6) -0.4370(7) 0.0000
O3H O 0.4370(7) -0.4792(9) 0.0000
loop_
_geom_bond_atom_site_label_1
_geom_bond_atom_site_label_2
_geom_bond_site_symmetry_1
_geom_bond_site_symmetry_2
C1 C4 1_555 1_555
C2 C3 1_555 1_555
C3 H1 1_555 1_555
C4 H2 1_555 1_555
C5 H3 1_555 1_555
C6 C1 1_555 1_555
C7 C5 1_555 1_555
H4 C7 1_555 1_555
O1 C9 1_555 1_555
C8 C5 1_555 1_555
C9 C2 1_555 1_555
N1 C7 1_555 1_555
O2 C6 1_555 1_555
Co1 O1 1_555 1_555
O3 C9 1_555 1_555
C1A C4 1_555 1_555
C1B C4A 1_555 1_555
C2B C3 1_555 1_555
C2A C3B 1_555 1_555
C2G C3G 1_555 1_555
C2H C3G 1_555 1_555
C2F C3H 1_555 1_555
C3B C2B 1_555 1_555
C3A C2 1_555 1_555
C3G H1G 1_555 1_555
C3H C2H 1_555 1_555
C3F C2G 1_555 1_555
H1A C3A 1_555 1_555
H1B C3B 1_555 1_555
H1F C3F 1_555 1_555
H1H C3H 1_555 1_555
C4A C1A 1_555 1_555
C4B C1 1_555 1_555
H2B C4B 1_555 1_555
H2A C4A 1_555 1_555
C5J C8 1_555 1_555
C5C H3C 1_555 1_555
C5G H3G 1_555 1_555
C5C_2 H3C_2 1_555 1_555
C5G_2 H3G_2 1_555 1_555
C5_2 H3_2 1_555 1_555
C5J_2 H3J_2 1_555 1_555
C5D H3D 1_555 1_555
C5H H3H 1_555 1_555
C5A H3A 1_555 1_555
C5K H3K 1_555 1_555
H3J C5J 1_555 1_555
C6B C1B 1_555 1_555
C6A C1A 1_555 1_555
C7J N1 1_555 1_555
C7C C5C 1_555 1_555
C7G C5G 1_555 1_555
C7C_2 C5C_2 1_555 1_555
C7G_2 C5G_2 1_555 1_555
C7_2 C5_2 1_555 1_555
C7J_2 C5J_2 1_555 1_555
C7D C5D 1_555 1_555
C7H C5H 1_555 1_555
C7A C5A 1_555 1_555
C7K C5K 1_555 1_555
H4C C7C 1_555 1_555
H4G C7G 1_555 1_555
H4J C7J 1_555 1_555
H4C_2 C7C_2 1_555 1_555
H4_2 C7_2 1_555 1_555
H4J_2 C7J_2 1_555 1_555
H4G_2 C7G_2 1_555 1_555
H4D C7D 1_555 1_555
H4A C7A 1_555 1_555
H4K C7K 1_555 1_555
H4H C7H 1_555 1_555
O1A C9A 1_555 1_555
O1B C9B 1_555 1_555
O1G Co1 1_555 1_555
O1F C9F 1_555 1_555
O1H C9H 1_555 1_555
O1H_2 Co1A 1_555 1_555
O1F_2 Co1B 1_555 1_555
C8C C8 1_555 1_555
C8C_2 C5C_2 1_555 1_555
C8_2 C5_2 1_555 1_555
C8D C5D 1_555 1_555
C8A C5A 1_555 1_555
C9A C2A 1_555 1_555
C9B C2B 1_555 1_555
C9G C2G 1_555 1_555
C9F C2F 1_555 1_555
C9H C2H 1_555 1_555
N1C C7C 1_555 1_555
N1C_2 Co1 1_555 1_555
N1_2 C7_2 1_555 1_555
N1D C7D 1_555 1_555
N1A C7A 1_555 1_555
N1A_2 Co1A 1_555 1_555
N1B Co1B 1_555 1_555
N1E Co1B 1_555 1_555
O2G C6 1_555 1_555
O2B C6B 1_555 1_555
O2F C6B 1_555 1_555
O2A C6A 1_555 1_555
O2H C6A 1_555 1_555
O2A_2 Co1A 1_555 1_555
O2H_2 Co1A 1_555 1_555
O2B_2 Co1B 1_555 1_555
O2F_2 Co1B 1_555 1_555
Co1A O1A 1_555 1_555
Co1B O1B 1_555 1_555
Co1B_2 O2B 1_555 1_555
Co1A_2 O2A 1_555 1_555
Co1_2 N1C 1_555 1_555
Co1B_3 O1F 1_555 1_555
Co1A_3 O1H 1_555 1_555
Co1_3 N1_2 1_555 1_555
Co1A_4 N1A 1_555 1_555
O3A C9A 1_555 1_555
O3B C9B 1_555 1_555
O3G C9G 1_555 1_555
O3F C9F 1_555 1_555
O3H C9H 1_555 1_555
N1 Co1 1_555 1_555
O2 Co1 1_555 1_555
Co1 O2G 1_555 1_555
C1B C4B 1_555 1_555
C2A C3A 1_555 1_555
C2F C3F 1_555 1_555
C5J C7J 1_555 1_555
C5C C8C 1_555 1_555
C5G C8C 1_555 1_555
C5G_2 C8C_2 1_555 1_555
C5J_2 C8_2 1_555 1_555
C5H C8D 1_555 1_555
C5K C8A 1_555 1_555
C7G N1C 1_555 1_555
C7C_2 N1C_2 1_555 1_555
C7G_2 N1C_2 1_555 1_555
C7J_2 N1_2 1_555 1_555
C7H N1D 1_555 1_555
C7K N1A 1_555 1_555
O1G C9G 1_555 1_555
C8C_2 C8_2 1_555 1_555
C8D C8A 1_555 1_555
N1D Co1A 1_555 1_555
O2F Co1B_2 1_555 1_555
O2H Co1A_2 1_555 1_555

#END
