
#######################################################################
#
#                 Cambridge Crystallographic Data Centre
#                                CCDC 
#
#######################################################################
#
# If this CIF has been generated from an entry in the Cambridge 
# Structural Database, then it will include bibliographic, chemical, 
# crystal, experimental, refinement or atomic coordinate data resulting 
# from the CCDC's data processing and validation procedures.
#
#######################################################################

data_ETECIR
_chemical_formula_moiety         '(C16 H16 In2 N2 O20 2-)n'
_symmetry_cell_setting           tetragonal
_symmetry_space_group_name_H-M   'I 41/a'
_symmetry_Int_Tables_number      88
_space_group_name_Hall           '-I 4ad'
loop_
_symmetry_equiv_pos_site_id
_symmetry_equiv_pos_as_xyz
1 x,y,z
2 1/2-x,-y,1/2+z
3 3/4-y,1/4+x,1/4+z
4 3/4+y,3/4-x,3/4+z
5 1/2+x,1/2+y,1/2+z
6 -x,1/2-y,z
7 1/4-y,3/4+x,3/4+z
8 1/4+y,1/4-x,1/4+z
9 -x,-y,-z
10 1/2+x,y,1/2-z
11 1/4+y,3/4-x,3/4-z
12 1/4-y,1/4+x,1/4-z
13 1/2-x,1/2-y,1/2-z
14 x,1/2+y,-z
15 3/4+y,1/4-x,1/4-z
16 3/4-y,3/4+x,3/4-z
_cell_length_a                   25.1335(2)
_cell_length_b                   25.1335(2)
_cell_length_c                   9.74539(12)
_cell_angle_alpha                90
_cell_angle_beta                 90
_cell_angle_gamma                90
_cell_volume                     6156.09
loop_
_atom_site_label
_atom_site_type_symbol
_atom_site_fract_x
_atom_site_fract_y
_atom_site_fract_z
_atom_site_U_iso_or_equiv
_atom_site_thermal_displace_type
In1 In 0.70316(2) 0.35607(2) 0.69672(2) 0.0130 Uani
O1 O 0.74059(10) 0.38163(11) 0.4920(3) 0.0202 Uani
O2 O 0.81463(11) 0.41697(12) 0.4045(3) 0.0236 Uani
O3 O 0.78095(11) 0.39210(12) 0.7442(3) 0.0221 Uani
O4 O 0.84779(12) 0.44036(13) 0.6583(3) 0.0279 Uani
O5 O 0.73437(13) 0.28084(11) 0.5963(3) 0.0264 Uani
O6 O 0.76872(12) 0.20055(11) 0.6355(3) 0.0236 Uani
O7 O 0.64038(11) 0.33544(13) 0.5389(3) 0.0236 Uani
O8 O 0.55309(12) 0.32806(13) 0.5055(3) 0.0284 Uani
O9 O 0.62885(12) 0.32812(15) 0.8042(3) 0.0322 Uani
O10 O 0.54140(13) 0.33075(18) 0.7886(3) 0.0423 Uani
C1 C 0.78539(15) 0.40324(15) 0.5016(4) 0.0163 Uani
C2 C 0.80659(15) 0.41323(15) 0.6476(4) 0.0181 Uani
C3 C 0.75117(15) 0.24477(15) 0.6724(4) 0.0171 Uani
C4 C 0.59266(15) 0.33140(15) 0.5798(4) 0.0178 Uani
C5 C 0.58556(16) 0.33006(17) 0.7366(5) 0.0233 Uani
O5L O 0.76563(13) 0.21916(11) 0.9037(3) 0.0264 Uani
O6L O 0.73128(12) 0.29945(11) 0.8645(3) 0.0236 Uani
C3L C 0.74883(15) 0.25523(15) 0.8276(4) 0.0171 Uani
In1L In 0.79684(2) 0.14393(2) 0.80328(2) 0.0130 Uani
O1L O 0.75941(10) 0.11837(11) 1.0080(3) 0.0202 Uani
O2L O 0.68537(11) 0.08303(12) 1.0955(3) 0.0236 Uani
O3L O 0.71905(11) 0.10790(12) 0.7558(3) 0.0221 Uani
O4L O 0.65221(12) 0.05964(13) 0.8417(3) 0.0279 Uani
O7L O 0.85962(11) 0.16456(13) 0.9611(3) 0.0236 Uani
O8L O 0.94691(12) 0.17194(13) 0.9945(3) 0.0284 Uani
O9L O 0.87115(12) 0.17188(15) 0.6958(3) 0.0322 Uani
O10L O 0.95860(13) 0.16925(18) 0.7114(3) 0.0423 Uani
C1L C 0.71461(15) 0.09676(15) 0.9984(4) 0.0163 Uani
C2L C 0.69341(15) 0.08677(15) 0.8524(4) 0.0181 Uani
C4L C 0.90734(15) 0.16860(15) 0.9202(4) 0.0178 Uani
C5L C 0.91444(16) 0.16994(17) 0.7634(5) 0.0233 Uani
In1F In 0.89393(2) 0.45316(2) 0.44672(2) 0.0130 Uani
In1J In 0.60607(2) 0.04684(2) 1.05328(2) 0.0130 Uani
O2G O 0.66697(12) 0.43537(11) 0.6545(3) 0.0236 Uani
O2K O 0.83303(12) 0.06463(11) 0.8455(3) 0.0236 Uani
O4G O 0.69036(13) 0.40221(12) 0.9083(3) 0.0279 Uani
O4K O 0.80964(13) 0.09779(12) 0.5917(3) 0.0279 Uani
C6 C 0.29203(19) 0.3171(2) 0.3238(5) 0.0377 Uani
H1 H 0.3199 0.3068 0.2621 0.0560 Uiso
H2 H 0.2611 0.3270 0.2720 0.0560 Uiso
H3 H 0.2834 0.2878 0.3830 0.0560 Uiso
C7 C 0.31028(16) 0.36383(19) 0.4090(4) 0.0280 Uani
H4 H 0.2852 0.3698 0.4831 0.0340 Uiso
H5 H 0.3110 0.3956 0.3524 0.0340 Uiso
C8 C 0.38772(17) 0.40474(17) 0.5257(4) 0.0245 Uani
H6 H 0.3662 0.4165 0.6027 0.0290 Uiso
H7 H 0.3869 0.4323 0.4560 0.0290 Uiso
C9 C 0.44405(18) 0.39617(18) 0.5723(5) 0.0277 Uani
H8 H 0.4660 0.3870 0.4940 0.0330 Uiso
H9 H 0.4578 0.4288 0.6117 0.0330 Uiso
C10 C 0.36652(17) 0.31181(17) 0.5750(5) 0.0240 Uani
H10 H 0.3523 0.2790 0.5376 0.0290 Uiso
H11 H 0.3446 0.3222 0.6524 0.0290 Uiso
C11 C 0.42350(17) 0.30294(17) 0.6228(5) 0.0263 Uani
H12 H 0.4240 0.2763 0.6949 0.0320 Uiso
H13 H 0.4448 0.2898 0.5470 0.0320 Uiso
N1 N 0.36503(13) 0.35414(14) 0.4684(3) 0.0203 Uani
H14 H 0.3882 0.3428 0.3930 0.0240 Uiso
N2 N 0.44677(14) 0.35318(15) 0.6751(3) 0.0239 Uani
H15 H 0.4293 0.3632 0.7503 0.0290 Uiso
H16 H 0.4806 0.3476 0.6980 0.0290 Uiso
loop_
_atom_site_aniso_label
_atom_site_aniso_U_11
_atom_site_aniso_U_22
_atom_site_aniso_U_33
_atom_site_aniso_U_23
_atom_site_aniso_U_13
_atom_site_aniso_U_12
In1 0.01357(18) 0.01418(18) 0.0112(2) 0.00130(9) 0.00012(8) 0.00100(8)
O1 0.0170(13) 0.0310(15) 0.0126(13) -0.0006(11) 0.0013(11) -0.0082(11)
O2 0.0201(14) 0.0382(17) 0.0125(13) 0.0007(13) -0.0008(12) -0.0117(12)
O3 0.0195(14) 0.0331(16) 0.0138(13) 0.0041(12) -0.0020(11) -0.0106(12)
O4 0.0253(15) 0.0394(17) 0.0190(14) 0.0030(13) 0.0000(12) -0.0143(13)
O5 0.0414(17) 0.0174(14) 0.0205(15) -0.0015(12) -0.0029(14) 0.0111(12)
O6 0.0352(16) 0.0177(14) 0.0178(14) -0.0007(11) -0.0030(12) 0.0084(11)
O7 0.0193(14) 0.0355(17) 0.0160(13) 0.0004(12) -0.0012(11) -0.0018(12)
O8 0.0220(15) 0.0424(18) 0.0207(15) 0.0043(14) -0.0050(12) -0.0042(13)
O9 0.0167(15) 0.061(2) 0.0190(16) 0.0144(14) -0.0013(12) -0.0094(14)
O10 0.0209(17) 0.086(3) 0.0201(15) 0.0092(17) 0.0017(13) -0.0001(17)
C1 0.0163(18) 0.0169(18) 0.0157(19) -0.0004(15) 0.0024(15) -0.0017(14)
C2 0.0186(18) 0.0194(18) 0.0163(19) 0.0007(16) -0.0029(16) -0.0007(15)
C3 0.0165(18) 0.0148(18) 0.020(2) 0.0023(16) -0.0036(16) 0.0000(14)
C4 0.0204(19) 0.0137(18) 0.0193(19) 0.0013(15) -0.0039(16) -0.0009(15)
C5 0.019(2) 0.028(2) 0.023(2) 0.0061(18) 0.0030(17) -0.0014(16)
O5L 0.0414 0.0174 0.0205 -0.0015 -0.0029 0.0111
O6L 0.0352 0.0177 0.0178 -0.0007 -0.003 0.0084
C3L 0.0165 0.0148 0.02 0.0023 -0.0036 0
In1L 0.01357 0.01418 0.0112 0.0013 0.00012 0.001
O1L 0.017 0.031 0.0126 -0.0006 0.0013 -0.0082
O2L 0.0201 0.0382 0.0125 0.0007 -0.0008 -0.0117
O3L 0.0195 0.0331 0.0138 0.0041 -0.002 -0.0106
O4L 0.0253 0.0394 0.019 0.003 0 -0.0143
O7L 0.0193 0.0355 0.016 0.0004 -0.0012 -0.0018
O8L 0.022 0.0424 0.0207 0.0043 -0.005 -0.0042
O9L 0.0167 0.061 0.019 0.0144 -0.0013 -0.0094
O10L 0.0209 0.086 0.0201 0.0092 0.0017 -0.0001
C1L 0.0163 0.0169 0.0157 -0.0004 0.0024 -0.0017
C2L 0.0186 0.0194 0.0163 0.0007 -0.0029 -0.0007
C4L 0.0204 0.0137 0.0193 0.0013 -0.0039 -0.0009
C5L 0.019 0.028 0.023 0.0061 0.003 -0.0014
In1F 0.01418 0.01357 0.0112 0.00012 -0.0013 -0.001
In1J 0.01418 0.01357 0.0112 0.00012 -0.0013 -0.001
O2G 0.0382 0.0201 0.0125 0.0008 0.0007 0.0117
O2K 0.0382 0.0201 0.0125 0.0008 0.0007 0.0117
O4G 0.0394 0.0253 0.019 0 0.003 0.0143
O4K 0.0394 0.0253 0.019 0 0.003 0.0143
C6 0.022(2) 0.057(3) 0.034(3) 0.003(2) -0.005(2) -0.007(2)
C7 0.019(2) 0.043(3) 0.022(2) 0.007(2) 0.0017(17) 0.0067(18)
C8 0.033(2) 0.022(2) 0.0184(18) 0.0040(17) 0.0006(18) 0.0027(17)
C9 0.030(2) 0.028(2) 0.025(2) 0.0023(18) -0.0016(18) -0.0071(18)
C10 0.024(2) 0.023(2) 0.025(2) 0.0022(17) 0.0032(17) -0.0018(16)
C11 0.030(2) 0.026(2) 0.023(2) -0.0009(18) -0.0014(18) 0.0045(17)
N1 0.0189(16) 0.0292(18) 0.0128(14) 0.0000(14) 0.0031(14) 0.0018(13)
N2 0.0205(17) 0.035(2) 0.0163(16) -0.0013(15) -0.0007(14) 0.0039(15)
loop_
_geom_bond_atom_site_label_1
_geom_bond_atom_site_label_2
_geom_bond_site_symmetry_1
_geom_bond_site_symmetry_2
In1 O1 1_555 1_555
O1 C1 1_555 1_555
O2 C1 1_555 1_555
O3 In1 1_555 1_555
O4 C2 1_555 1_555
O5 In1 1_555 1_555
O6 C3 1_555 1_555
O7 In1 1_555 1_555
O8 C4 1_555 1_555
O9 In1 1_555 1_555
O10 C5 1_555 1_555
C1 C2 1_555 1_555
C2 O3 1_555 1_555
C3 O5 1_555 1_555
C4 O7 1_555 1_555
C5 O9 1_555 1_555
C6 H1 1_555 1_555
H2 C6 1_555 1_555
H3 C6 1_555 1_555
C7 C6 1_555 1_555
H4 C7 1_555 1_555
H5 C7 1_555 1_555
C8 H6 1_555 1_555
H7 C8 1_555 1_555
C9 C8 1_555 1_555
H8 C9 1_555 1_555
H9 C9 1_555 1_555
C10 H10 1_555 1_555
H11 C10 1_555 1_555
C11 C10 1_555 1_555
H12 C11 1_555 1_555
H13 C11 1_555 1_555
N1 C7 1_555 1_555
H14 N1 1_555 1_555
N2 C9 1_555 1_555
H15 N2 1_555 1_555
H16 N2 1_555 1_555
O5L C3L 1_555 1_555
O6L In1 1_555 1_555
C3L C3 1_555 1_555
In1L O6 1_555 1_555
O1L In1L 1_555 1_555
O2L C1L 1_555 1_555
O3L In1L 1_555 1_555
O4L C2L 1_555 1_555
O7L In1L 1_555 1_555
O8L C4L 1_555 1_555
O9L In1L 1_555 1_555
O10L C5L 1_555 1_555
C1L O1L 1_555 1_555
C2L O3L 1_555 1_555
C4L O7L 1_555 1_555
C5L O9L 1_555 1_555
In1F O2 1_555 1_555
In1J O2L 1_555 1_555
O2G In1 1_555 1_555
O2K In1L 1_555 1_555
O4G In1 1_555 1_555
O4K In1L 1_555 1_555
O4 In1F 1_555 1_555
C4 C5 1_555 1_555
C8 N1 1_555 1_555
C10 N1 1_555 1_555
C11 N2 1_555 1_555
O5L In1L 1_555 1_555
O6L C3L 1_555 1_555
O4L In1J 1_555 1_555
C1L C2L 1_555 1_555
C4L C5L 1_555 1_555

#END
