
#######################################################################
#
#                 Cambridge Crystallographic Data Centre
#                                CCDC 
#
#######################################################################
#
# If this CIF has been generated from an entry in the Cambridge 
# Structural Database, then it will include bibliographic, chemical, 
# crystal, experimental, refinement or atomic coordinate data resulting 
# from the CCDC's data processing and validation procedures.
#
#######################################################################

data_ETECOX
_chemical_formula_moiety         '(C12 H16 In2 N2 O20 S2 2-)n'
_symmetry_cell_setting           tetragonal
_symmetry_space_group_name_H-M   'I 41/a'
_symmetry_Int_Tables_number      88
_space_group_name_Hall           '-I 4ad'
loop_
_symmetry_equiv_pos_site_id
_symmetry_equiv_pos_as_xyz
1 x,y,z
2 1/2-x,-y,1/2+z
3 3/4-y,1/4+x,1/4+z
4 3/4+y,3/4-x,3/4+z
5 1/2+x,1/2+y,1/2+z
6 -x,1/2-y,z
7 1/4-y,3/4+x,3/4+z
8 1/4+y,1/4-x,1/4+z
9 -x,-y,-z
10 1/2+x,y,1/2-z
11 1/4+y,3/4-x,3/4-z
12 1/4-y,1/4+x,1/4-z
13 1/2-x,1/2-y,1/2-z
14 x,1/2+y,-z
15 3/4+y,1/4-x,1/4-z
16 3/4-y,3/4+x,3/4-z
_cell_length_a                   26.0767(6)
_cell_length_b                   26.0767(6)
_cell_length_c                   8.9467(3)
_cell_angle_alpha                90
_cell_angle_beta                 90
_cell_angle_gamma                90
_cell_volume                     6083.7
loop_
_atom_site_label
_atom_site_type_symbol
_atom_site_fract_x
_atom_site_fract_y
_atom_site_fract_z
_atom_site_U_iso_or_equiv
_atom_site_thermal_displace_type
In1 In 0.27433(2) 0.14260(2) 0.68362(2) 0.0213 Uani
S1 S 0.38841(3) 0.19116(3) 0.64279(9) 0.0303 Uani
O1 O 0.20388(8) 0.10474(8) 0.7386(2) 0.0311 Uani
O2 O 0.14221(8) 0.05547(8) 0.6463(2) 0.0304 Uani
O3 O 0.24115(7) 0.11843(8) 0.4610(2) 0.0255 Uani
O4 O 0.18260(8) 0.06349(8) 0.3734(2) 0.0284 Uani
O5 O 0.27566(9) 0.20258(8) 0.8639(2) 0.0336 Uani
O6 O 0.26735(9) 0.28655(8) 0.9038(3) 0.0395 Uani
O7 O 0.33733(8) 0.17639(9) 0.5781(2) 0.0347 Uani
O8 O 0.38244(12) 0.23538(10) 0.7375(3) 0.0602 Uani
O9 O 0.40687(10) 0.14726(11) 0.7311(3) 0.0565 Uani
O10 O 0.42083(9) 0.20098(10) 0.5127(3) 0.0472 Uani
C1 C 0.18122(10) 0.08208(11) 0.6323(3) 0.0240 Uani
C2 C 0.20363(10) 0.08871(10) 0.4739(3) 0.0215 Uani
C3 C 0.26249(11) 0.24698(11) 0.8266(3) 0.0255 Uani
O5L O 0.22434(9) 0.29742(8) 0.6361(2) 0.0336 Uani
O6L O 0.23265(9) 0.21345(8) 0.5962(3) 0.0395 Uani
C3L C 0.23751(11) 0.25302(11) 0.6734(3) 0.0255 Uani
In1L In 0.22567(2) 0.35740(2) 0.81638(2) 0.0213 Uani
S1L S 0.11159(3) 0.30884(3) 0.85721(9) 0.0303 Uani
O1L O 0.29612(8) 0.39526(8) 0.7614(2) 0.0311 Uani
O2L O 0.35779(8) 0.44453(8) 0.8537(2) 0.0304 Uani
O3L O 0.25885(7) 0.38157(8) 1.0390(2) 0.0255 Uani
O4L O 0.31740(8) 0.43651(8) 1.1266(2) 0.0284 Uani
O7L O 0.16267(8) 0.32361(9) 0.9219(2) 0.0347 Uani
O8L O 0.11756(12) 0.26462(10) 0.7625(3) 0.0602 Uani
O9L O 0.09313(10) 0.35274(11) 0.7689(3) 0.0565 Uani
O10L O 0.07917(9) 0.29902(10) 0.9873(3) 0.0472 Uani
C1L C 0.31878(10) 0.41792(11) 0.8677(3) 0.0240 Uani
C2L C 0.29637(10) 0.41129(10) 1.0261(3) 0.0215 Uani
In1F In 0.10740(2) 0.02433(2) 0.43362(2) 0.0213 Uani
In1J In 0.39260(2) 0.47567(2) 1.06638(2) 0.0213 Uani
O2G O 0.30547(8) 0.10779(8) 0.8963(2) 0.0304 Uani
O2K O 0.19453(8) 0.39221(8) 0.6037(2) 0.0304 Uani
O4G O 0.31349(8) 0.06740(8) 0.6234(2) 0.0284 Uani
O4K O 0.18651(8) 0.43260(8) 0.8766(2) 0.0284 Uani
C4 C 0.68126(15) 0.14492(16) 0.3980(5) 0.0540 Uani
H1 H 0.6670 0.1576 0.3061 0.0810 Uiso
H2 H 0.7153 0.1322 0.3802 0.0810 Uiso
H3 H 0.6826 0.1722 0.4698 0.0810 Uiso
C5 C 0.64816(12) 0.10232(13) 0.4571(3) 0.0359 Uani
H4 H 0.6468 0.0750 0.3836 0.0430 Uiso
H5 H 0.6638 0.0885 0.5469 0.0430 Uiso
C6 C 0.59223(13) 0.15840(13) 0.6140(4) 0.0396 Uani
H6 H 0.6106 0.1889 0.5820 0.0480 Uiso
H7 H 0.6091 0.1452 0.7025 0.0480 Uiso
C7 C 0.53752(13) 0.17264(14) 0.6523(5) 0.0463 Uani
H8 H 0.5374 0.1970 0.7343 0.0550 Uiso
H9 H 0.5215 0.1889 0.5666 0.0550 Uiso
C8 C 0.56370(14) 0.07298(13) 0.5379(4) 0.0406 Uani
H10 H 0.5637 0.0482 0.4572 0.0490 Uiso
H11 H 0.5793 0.0571 0.6247 0.0490 Uiso
C9 C 0.50978(14) 0.08775(15) 0.5739(4) 0.0448 Uani
H12 H 0.4936 0.1018 0.4853 0.0540 Uiso
H13 H 0.4907 0.0575 0.6037 0.0540 Uiso
N1 N 0.59438(10) 0.11901(10) 0.4928(3) 0.0308 Uani
H14 H 0.5791 0.1336 0.4023 0.0370 Uiso
N2 N 0.50785(11) 0.12608(12) 0.6954(3) 0.0424 Uani
H15 H 0.5210 0.1127 0.7785 0.0510 Uiso
H16 H 0.4754 0.1346 0.7135 0.0510 Uiso
loop_
_atom_site_aniso_label
_atom_site_aniso_U_11
_atom_site_aniso_U_22
_atom_site_aniso_U_33
_atom_site_aniso_U_23
_atom_site_aniso_U_13
_atom_site_aniso_U_12
In1 0.02280(12) 0.02201(12) 0.01919(12) -0.00053(7) -0.00187(7) 0.00009(7)
S1 0.0275(4) 0.0367(4) 0.0266(4) -0.0013(3) 0.0014(3) -0.0082(3)
O1 0.0284(11) 0.0461(13) 0.0187(10) -0.0058(9) 0.0030(9) -0.0102(9)
O2 0.0279(11) 0.0408(12) 0.0225(11) -0.0032(9) 0.0018(9) -0.0101(9)
O3 0.0256(10) 0.0319(11) 0.0189(10) 0.0008(8) -0.0011(8) -0.0038(8)
O4 0.0277(11) 0.0379(12) 0.0196(10) -0.0041(9) 0.0005(8) -0.0079(9)
O5 0.0500(14) 0.0258(11) 0.0251(11) -0.0020(9) -0.0051(10) 0.0089(9)
O6 0.0532(15) 0.0286(12) 0.0367(13) -0.0073(10) -0.0216(11) 0.0117(10)
O7 0.0288(11) 0.0497(14) 0.0257(11) -0.0013(10) 0.0015(9) -0.0104(10)
O8 0.086(2) 0.0491(16) 0.0454(16) -0.0191(13) 0.0113(15) -0.0256(14)
O9 0.0403(14) 0.0683(18) 0.0608(18) 0.0265(15) -0.0036(13) 0.0073(13)
O10 0.0341(13) 0.0737(18) 0.0338(13) 0.0022(12) 0.0090(11) -0.0157(12)
C1 0.0230(14) 0.0289(15) 0.0202(14) -0.0025(12) 0.0010(11) 0.0003(11)
C2 0.0194(13) 0.0251(14) 0.0201(14) 0.0003(11) -0.0010(11) -0.0008(10)
C3 0.0269(15) 0.0248(14) 0.0247(15) -0.0015(12) -0.0007(12) 0.0032(11)
O5L 0.05 0.0258 0.0251 -0.002 -0.0051 0.0089
O6L 0.0532 0.0286 0.0367 -0.0073 -0.0216 0.0117
C3L 0.0269 0.0248 0.0247 -0.0015 -0.0007 0.0032
In1L 0.0228 0.02201 0.01919 -0.00053 -0.00187 9e-05
S1L 0.0275 0.0367 0.0266 -0.0013 0.0014 -0.0082
O1L 0.0284 0.0461 0.0187 -0.0058 0.003 -0.0102
O2L 0.0279 0.0408 0.0225 -0.0032 0.0018 -0.0101
O3L 0.0256 0.0319 0.0189 0.0008 -0.0011 -0.0038
O4L 0.0277 0.0379 0.0196 -0.0041 0.0005 -0.0079
O7L 0.0288 0.0497 0.0257 -0.0013 0.0015 -0.0104
O8L 0.086 0.0491 0.0454 -0.0191 0.0113 -0.0256
O9L 0.0403 0.0683 0.0608 0.0265 -0.0036 0.0073
O10L 0.0341 0.0737 0.0338 0.0022 0.009 -0.0157
C1L 0.023 0.0289 0.0202 -0.0025 0.001 0.0003
C2L 0.0194 0.0251 0.0201 0.0003 -0.001 -0.0008
In1F 0.02201 0.0228 0.01919 -0.00187 0.00053 -9e-05
In1J 0.02201 0.0228 0.01919 -0.00187 0.00053 -9e-05
O2G 0.0408 0.0279 0.0225 -0.0018 -0.0032 0.0101
O2K 0.0408 0.0279 0.0225 -0.0018 -0.0032 0.0101
O4G 0.0379 0.0277 0.0196 -0.0005 -0.0041 0.0079
O4K 0.0379 0.0277 0.0196 -0.0005 -0.0041 0.0079
C4 0.042(2) 0.058(2) 0.062(3) -0.012(2) 0.0040(19) -0.0068(18)
C5 0.0390(18) 0.0442(19) 0.0244(16) -0.0048(14) -0.0061(14) 0.0041(14)
C6 0.0392(19) 0.0384(18) 0.0412(19) -0.0094(15) -0.0023(15) -0.0008(14)
C7 0.040(2) 0.047(2) 0.052(2) -0.0060(18) -0.0002(17) 0.0043(16)
C8 0.053(2) 0.0363(18) 0.0325(18) 0.0011(14) 0.0050(16) -0.0096(15)
C9 0.048(2) 0.053(2) 0.0333(19) 0.0068(16) 0.0001(16) -0.0147(16)
N1 0.0354(14) 0.0339(14) 0.0231(12) 0.0011(11) -0.0016(11) -0.0035(11)
N2 0.0342(15) 0.0593(19) 0.0337(16) 0.0056(14) 0.0019(12) 0.0029(13)
loop_
_geom_bond_atom_site_label_1
_geom_bond_atom_site_label_2
_geom_bond_site_symmetry_1
_geom_bond_site_symmetry_2
In1 O1 1_555 1_555
S1 O7 1_555 1_555
O1 C1 1_555 1_555
O2 C1 1_555 1_555
O3 In1 1_555 1_555
O4 C2 1_555 1_555
O5 In1 1_555 1_555
O6 C3 1_555 1_555
O7 In1 1_555 1_555
O8 S1 1_555 1_555
O9 S1 1_555 1_555
O10 S1 1_555 1_555
C1 C2 1_555 1_555
C2 O3 1_555 1_555
C3 O5 1_555 1_555
C4 H1 1_555 1_555
H2 C4 1_555 1_555
H3 C4 1_555 1_555
C5 C4 1_555 1_555
H4 C5 1_555 1_555
H5 C5 1_555 1_555
C6 H6 1_555 1_555
H7 C6 1_555 1_555
C7 C6 1_555 1_555
H8 C7 1_555 1_555
H9 C7 1_555 1_555
C8 H10 1_555 1_555
H11 C8 1_555 1_555
C9 C8 1_555 1_555
H12 C9 1_555 1_555
H13 C9 1_555 1_555
N1 C5 1_555 1_555
H14 N1 1_555 1_555
N2 C7 1_555 1_555
H15 N2 1_555 1_555
H16 N2 1_555 1_555
O5L C3L 1_555 1_555
O6L In1 1_555 1_555
C3L C3 1_555 1_555
In1L O6 1_555 1_555
S1L O7L 1_555 1_555
O1L In1L 1_555 1_555
O2L C1L 1_555 1_555
O3L In1L 1_555 1_555
O4L C2L 1_555 1_555
O7L In1L 1_555 1_555
O8L S1L 1_555 1_555
O9L S1L 1_555 1_555
O10L S1L 1_555 1_555
C1L O1L 1_555 1_555
C2L O3L 1_555 1_555
In1F O2 1_555 1_555
In1J O2L 1_555 1_555
O2G In1 1_555 1_555
O2K In1L 1_555 1_555
O4G In1 1_555 1_555
O4K In1L 1_555 1_555
O4 In1F 1_555 1_555
C6 N1 1_555 1_555
C8 N1 1_555 1_555
C9 N2 1_555 1_555
O5L In1L 1_555 1_555
O6L C3L 1_555 1_555
O4L In1J 1_555 1_555
C1L C2L 1_555 1_555

#END
