
#######################################################################
#
#                 Cambridge Crystallographic Data Centre
#                                CCDC 
#
#######################################################################
#
# If this CIF has been generated from an entry in the Cambridge 
# Structural Database, then it will include bibliographic, chemical, 
# crystal, experimental, refinement or atomic coordinate data resulting 
# from the CCDC's data processing and validation procedures.
#
#######################################################################

data_HOWPEQ
_chemical_formula_moiety         '(C10 H14 Ag2 F6 N12 O9 S2)n'
_symmetry_cell_setting           monoclinic
_symmetry_space_group_name_H-M   'P 21/n'
_symmetry_Int_Tables_number      14
_space_group_name_Hall           '-P 2yn'
loop_
_symmetry_equiv_pos_site_id
_symmetry_equiv_pos_as_xyz
1 x,y,z
2 1/2-x,1/2+y,1/2-z
3 -x,-y,-z
4 1/2+x,1/2-y,1/2+z
_cell_length_a                   12.866(7)
_cell_length_b                   12.776(7)
_cell_length_c                   16.802(9)
_cell_angle_alpha                90
_cell_angle_beta                 105.303(10)
_cell_angle_gamma                90
_cell_volume                     2663.92
loop_
_atom_site_label
_atom_site_type_symbol
_atom_site_fract_x
_atom_site_fract_y
_atom_site_fract_z
_atom_site_U_iso_or_equiv
_atom_site_thermal_displace_type
Ag1 Ag 0.08520(3) -0.34308(3) -1.09463(2) 0.0540 Uani
Ag2 Ag 0.14402(4) -0.61134(3) -0.97572(2) 0.0602 Uani
N1 N 0.2819(4) -0.7533(4) -1.3633(3) 0.0645 Uani
N2 N 0.1736(4) -0.7567(4) -1.4047(3) 0.0697 Uani
N3 N 0.1918(3) -0.6725(3) -1.2902(2) 0.0530 Uani
N4 N 0.1676(3) -0.6231(3) -1.2240(2) 0.0472 Uani
N5 N 0.1305(4) -0.6006(3) -1.1076(2) 0.0517 Uani
N6 N 0.1310(4) -0.5031(3) -1.1447(2) 0.0522 Uani
N7 N 0.4234(3) -0.2198(3) -0.6699(2) 0.0499 Uani
N8 N 0.3340(3) -0.2018(3) -0.6404(2) 0.0528 Uani
N9 N 0.2808(3) -0.2803(3) -0.7569(2) 0.0463 Uani
N10 N 0.2150(3) -0.3251(3) -0.8275(2) 0.0464 Uani
N11 N 0.1248(4) -0.3472(3) -0.9543(2) 0.0515 Uani
N12 N 0.1329(4) -0.4436(3) -0.9126(2) 0.0543 Uani
C1 C 0.1543(4) -0.5192(4) -1.2146(3) 0.0538 Uani
H1 H 0.1608 -0.4676 -1.2520 0.0640 Uiso
C2 C 0.1531(5) -0.6713(4) -1.1565(3) 0.0564 Uani
H2 H 0.1582 -0.7429 -1.1465 0.0680 Uiso
C3 C 0.2897(4) -0.7020(5) -1.2942(4) 0.0702 Uani
H3 H 0.3536 -0.6885 -1.2543 0.0850 Uiso
C4 C 0.1206(5) -0.7077(5) -1.3605(3) 0.0683 Uani
H4 H 0.0463 -0.6981 -1.3743 0.0820 Uiso
C5 C 0.3875(4) -0.2659(4) -0.7413(3) 0.0547 Uani
H5 H 0.4295 -0.2857 -0.7761 0.0660 Uiso
C6 C 0.2499(4) -0.2379(4) -0.6931(3) 0.0521 Uani
H6 H 0.1797 -0.2352 -0.6881 0.0630 Uiso
C7 C 0.1746(4) -0.2789(4) -0.9017(3) 0.0515 Uani
H7 H 0.1818 -0.2084 -0.9130 0.0620 Uiso
C8 C 0.1866(4) -0.4272(3) -0.8381(3) 0.0501 Uani
H8 H 0.2036 -0.4780 -0.7971 0.0610 Uiso
O1 O 0.3617(5) -0.6004(7) -0.9481(4) 0.1415 Uani
H9 H 0.3949 -0.5466 -0.9245 0.1700 Uiso
H10 H 0.3964 -0.6495 -0.9636 0.1700 Uiso
Ag1A Ag 0.41480(3) -0.84308(3) -1.40537(2) 0.0540 Uani
Ag1C Ag 0.58520(3) -0.15692(3) -0.59463(2) 0.0540 Uani
Ag2A Ag 0.35598(4) -0.11134(3) -0.52428(2) 0.0602 Uani
N1A N 0.2181(4) -0.2533(4) -1.1367(3) 0.0645 Uani
N7C N -0.0766(3) -0.2802(3) -1.1699(2) 0.0499 Uani
N8A N 0.1660(3) -0.7018(3) -0.8596(2) 0.0528 Uani
C9 C 0.4916(6) -0.4688(7) -0.3532(6) 0.1046 Uani
O2 O 0.3357(4) -0.4153(4) -0.2956(4) 0.0978 Uani
O3 O 0.4701(7) -0.5335(4) -0.2156(4) 0.1357 Uani
O4 O 0.5064(6) -0.3509(5) -0.2278(5) 0.1398 Uani
S1 S 0.44585(15) -0.43917(13) -0.26289(12) 0.0846 Uani
F1 F 0.5956(5) -0.4896(7) -0.3349(6) 0.1956 Uani
F2 F 0.4753(6) -0.3876(5) -0.4046(5) 0.1548 Uani
F3 F 0.4399(5) -0.5513(5) -0.3946(3) 0.1273 Uani
C10 C 0.3231(9) 0.0294(8) -0.9599(5) 0.1094 Uani
O5 O 0.4808(4) -0.0700(5) -0.8651(4) 0.1174 Uani
O6 O 0.3121(4) -0.0667(4) -0.8290(3) 0.0844 Uani
O7 O 0.4206(4) 0.0877(3) -0.8135(3) 0.0833 Uani
S2 S 0.39150(11) -0.00900(12) -0.85657(9) 0.0664 Uani
F4 F 0.3925(8) 0.0814(8) -0.9928(5) 0.2025 Uani
F5 F 0.2859(7) -0.0511(6) -1.0069(3) 0.1811 Uani
F6 F 0.2429(6) 0.0898(5) -0.9619(4) 0.1510 Uani
O8 O 0.8811(7) -0.1390(8) -0.4360(5) 0.0817 Uani
H11 H 0.9336 -0.1701 -0.4476 0.0980 Uiso
H12 H 0.8912 -0.1046 -0.3912 0.0980 Uiso
O9 O 0.4102(8) 0.2730(8) -1.0959(6) 0.0943 Uani
H13 H 0.3572 0.3137 -1.1150 0.1130 Uiso
H14 H 0.4704 0.2847 -1.1061 0.1130 Uiso
loop_
_atom_site_aniso_label
_atom_site_aniso_U_11
_atom_site_aniso_U_22
_atom_site_aniso_U_33
_atom_site_aniso_U_23
_atom_site_aniso_U_13
_atom_site_aniso_U_12
Ag1 0.0599(3) 0.0595(3) 0.0420(2) 0.00410(14) 0.01243(16) 0.00287(16)
Ag2 0.0866(3) 0.0584(3) 0.0347(2) 0.00459(13) 0.01453(18) -0.00658(18)
N1 0.062(3) 0.070(3) 0.064(3) -0.020(2) 0.021(2) -0.001(2)
N2 0.073(3) 0.078(3) 0.057(3) -0.018(2) 0.015(2) 0.008(2)
N3 0.061(2) 0.061(2) 0.040(2) -0.0113(16) 0.0186(17) 0.0006(18)
N4 0.058(2) 0.049(2) 0.0377(18) -0.0037(14) 0.0181(16) 0.0001(17)
N5 0.078(3) 0.045(2) 0.0346(18) -0.0004(14) 0.0193(18) -0.0018(18)
N6 0.078(3) 0.043(2) 0.0399(19) 0.0022(14) 0.0230(18) 0.0020(18)
N7 0.051(2) 0.057(2) 0.0396(19) -0.0114(16) 0.0084(16) 0.0000(17)
N8 0.062(2) 0.058(2) 0.0411(19) -0.0142(16) 0.0184(17) -0.0069(19)
N9 0.053(2) 0.046(2) 0.0367(17) -0.0086(14) 0.0062(15) 0.0007(16)
N10 0.056(2) 0.0438(19) 0.0335(17) 0.0001(13) 0.0013(15) -0.0043(16)
N11 0.068(3) 0.047(2) 0.0352(18) 0.0006(14) 0.0061(17) -0.0006(18)
N12 0.077(3) 0.047(2) 0.0380(19) -0.0037(15) 0.0137(18) -0.0075(19)
C1 0.074(3) 0.045(2) 0.049(2) 0.0028(18) 0.028(2) 0.002(2)
C2 0.078(3) 0.051(3) 0.040(2) -0.0009(18) 0.015(2) -0.001(2)
C3 0.056(3) 0.088(4) 0.068(3) -0.034(3) 0.019(2) -0.004(3)
C4 0.062(3) 0.091(4) 0.052(3) -0.016(3) 0.015(2) 0.012(3)
C5 0.062(3) 0.063(3) 0.039(2) -0.0148(19) 0.013(2) 0.000(2)
C6 0.054(3) 0.058(3) 0.047(2) -0.0144(19) 0.018(2) -0.008(2)
C7 0.068(3) 0.044(2) 0.039(2) 0.0020(17) 0.008(2) -0.004(2)
C8 0.069(3) 0.040(2) 0.036(2) 0.0024(16) 0.0047(19) -0.004(2)
O1 0.088(4) 0.213(8) 0.121(5) 0.012(5) 0.023(4) -0.011(4)
Ag1A 0.0599 0.0595 0.042 -0.0041 0.01243 -0.00287
Ag1C 0.0599 0.0595 0.042 -0.0041 0.01243 -0.00287
Ag2A 0.0866 0.0584 0.0347 -0.00459 0.01453 0.00658
N1A 0.062 0.07 0.064 0.02 0.021 0.001
N7C 0.051 0.057 0.0396 0.0114 0.0084 0
N8A 0.062 0.058 0.0411 0.0142 0.0184 0.0069
C9 0.066(4) 0.094(6) 0.148(8) 0.037(5) 0.018(4) -0.003(4)
O2 0.070(3) 0.098(4) 0.125(4) 0.014(3) 0.025(3) -0.003(2)
O3 0.199(7) 0.081(4) 0.099(4) 0.024(3) -0.010(4) 0.021(4)
O4 0.110(5) 0.084(4) 0.203(7) -0.029(4) 0.002(4) -0.025(3)
S1 0.0856(11) 0.0565(9) 0.0979(12) 0.0073(7) 0.0001(9) -0.0046(8)
F1 0.083(4) 0.218(8) 0.298(10) -0.012(7) 0.072(5) 0.012(4)
F2 0.175(6) 0.140(5) 0.176(6) 0.056(4) 0.093(5) 0.001(4)
F3 0.136(4) 0.115(4) 0.133(4) -0.022(3) 0.039(3) -0.001(3)
C10 0.140(8) 0.103(6) 0.080(5) 0.003(4) 0.020(5) 0.021(6)
O5 0.081(3) 0.160(6) 0.111(4) -0.038(4) 0.025(3) 0.028(3)
O6 0.085(3) 0.073(3) 0.097(3) 0.009(2) 0.027(2) -0.017(2)
O7 0.089(3) 0.074(3) 0.083(3) -0.009(2) 0.016(2) -0.016(2)
S2 0.0634(8) 0.0680(8) 0.0696(8) -0.0066(6) 0.0205(6) -0.0021(6)
F4 0.242(9) 0.255(9) 0.126(5) 0.075(6) 0.076(6) -0.019(7)
F5 0.241(8) 0.168(6) 0.095(4) -0.059(4) -0.025(4) 0.049(5)
F6 0.172(6) 0.132(5) 0.115(4) -0.001(3) -0.022(4) 0.059(4)
O8 0.066(5) 0.133(8) 0.050(4) -0.043(4) 0.022(4) -0.025(5)
O9 0.072(6) 0.092(7) 0.105(7) 0.025(5) -0.001(5) 0.008(5)
loop_
_geom_bond_atom_site_label_1
_geom_bond_atom_site_label_2
_geom_bond_site_symmetry_1
_geom_bond_site_symmetry_2
Ag1 N6 1_555 1_555
Ag2 N5 1_555 1_555
N1 N2 1_555 1_555
N2 C4 1_555 1_555
N3 N4 1_555 1_555
N4 C1 1_555 1_555
N5 N6 1_555 1_555
N6 C1 1_555 1_555
N7 N8 1_555 1_555
N8 C6 1_555 1_555
N9 N10 1_555 1_555
N10 C7 1_555 1_555
N11 Ag1 1_555 1_555
N12 Ag2 1_555 1_555
C1 H1 1_555 1_555
C2 N4 1_555 1_555
H2 C2 1_555 1_555
C3 N1 1_555 1_555
H3 C3 1_555 1_555
C4 N3 1_555 1_555
H4 C4 1_555 1_555
C5 N7 1_555 1_555
H5 C5 1_555 1_555
C6 N9 1_555 1_555
H6 C6 1_555 1_555
C7 N11 1_555 1_555
H7 C7 1_555 1_555
C8 N10 1_555 1_555
H8 C8 1_555 1_555
O1 Ag2 1_555 1_555
H9 O1 1_555 1_555
H10 O1 1_555 1_555
C9 S1 1_555 1_555
O2 S1 1_555 1_555
O3 S1 1_555 1_555
O4 S1 1_555 1_555
F1 C9 1_555 1_555
F2 C9 1_555 1_555
F3 C9 1_555 1_555
C10 S2 1_555 1_555
O5 S2 1_555 1_555
O6 S2 1_555 1_555
O7 S2 1_555 1_555
F4 C10 1_555 1_555
F5 C10 1_555 1_555
F6 C10 1_555 1_555
O8 H11 1_555 1_555
H12 O8 1_555 1_555
O9 H13 1_555 1_555
H14 O9 1_555 1_555
Ag1A N1 1_555 1_555
Ag1C N7 1_555 1_555
Ag2A N8 1_555 1_555
N1A Ag1 1_555 1_555
N7C Ag1 1_555 1_555
N8A Ag2 1_555 1_555
N3 C3 1_555 1_555
N5 C2 1_555 1_555
N9 C5 1_555 1_555
N11 N12 1_555 1_555
N12 C8 1_555 1_555

#END
