
#######################################################################
#
#                 Cambridge Crystallographic Data Centre
#                                CCDC 
#
#######################################################################
#
# If this CIF has been generated from an entry in the Cambridge 
# Structural Database, then it will include bibliographic, chemical, 
# crystal, experimental, refinement or atomic coordinate data resulting 
# from the CCDC's data processing and validation procedures.
#
#######################################################################

data_HUBQEC
_chemical_formula_moiety         '(C18 H28 Cu1 Mo24 N8 O78 P2 1-)n'
_symmetry_cell_setting           trigonal
_symmetry_space_group_name_H-M   'P -3'
_symmetry_Int_Tables_number      147
_space_group_name_Hall           '-P 3'
loop_
_symmetry_equiv_pos_site_id
_symmetry_equiv_pos_as_xyz
1 x,y,z
2 -y,x-y,z
3 -x+y,-x,z
4 -x,-y,-z
5 y,-x+y,-z
6 x-y,x,-z
_cell_length_a                   22.2807(9)
_cell_length_b                   22.2807(9)
_cell_length_c                   12.6044(7)
_cell_angle_alpha                90
_cell_angle_beta                 90
_cell_angle_gamma                120
_cell_volume                     5418.89
loop_
_atom_site_label
_atom_site_type_symbol
_atom_site_fract_x
_atom_site_fract_y
_atom_site_fract_z
Mo1 Mo 0.28955(7) 0.56379(6) 0.69955(10)
Mo2 Mo 0.49154(7) 0.66338(7) 0.46433(11)
Mo3 Mo 0.34054(7) 0.51034(7) 0.45055(11)
Mo4 Mo 0.39446(8) 0.61998(7) 0.24019(11)
O1 O 0.3333 0.6667 0.5902(12)
O2 O 0.3736(5) 0.6313(5) 0.4276(7)
O3 O 0.3310(5) 0.5334(5) 0.6010(8)
O4 O 0.2116(5) 0.5295(5) 0.6060(8)
O5 O 0.2545(5) 0.6231(5) 0.7572(8)
O6 O 0.2607(6) 0.5008(5) 0.7943(8)
O7 O 0.4403(5) 0.5682(5) 0.4865(8)
O8 O 0.3649(5) 0.5279(5) 0.3104(8)
O9 O 0.3315(5) 0.4318(5) 0.4688(8)
O10 O 0.4824(5) 0.6519(5) 0.3154(8)
O11 O 0.5072(5) 0.7579(5) 0.4368(8)
O12 O 0.5736(5) 0.6790(6) 0.4811(9)
O13 O 0.2976(5) 0.5873(5) 0.2211(8)
O14 O 0.4172(8) 0.6003(7) 0.1160(12)
P1 P 0.3333 0.6667 0.4673(4)
O2A O 0.3687(5) 0.7423(7) 0.4276(7)
O2B O 0.2577(7) 0.6264(5) 0.4276(7)
Mo1A Mo 0.43621(6) 0.72576(9) 0.69955(10)
Mo2A Mo 0.33662(7) 0.82816(10) 0.46433(11)
Mo3A Mo 0.48966(7) 0.83020(10) 0.45055(11)
Mo4A Mo 0.38002(7) 0.77448(11) 0.24019(11)
O3A O 0.4666(5) 0.7976(7) 0.6010(8)
O4A O 0.4705(5) 0.6821(7) 0.6060(8)
O5A O 0.3769(5) 0.6314(7) 0.7572(8)
O6A O 0.4992(5) 0.7599(8) 0.7943(8)
O7A O 0.4318(5) 0.8721(7) 0.4865(8)
O8A O 0.4721(5) 0.8370(7) 0.3104(8)
O9A O 0.5682(5) 0.8997(7) 0.4688(8)
O10A O 0.3481(5) 0.8305(7) 0.3154(8)
O11A O 0.2421(5) 0.7493(7) 0.4368(8)
O12A O 0.3210(6) 0.8946(8) 0.4811(9)
O13A O 0.4127(5) 0.7103(7) 0.2211(8)
O14A O 0.3997(7) 0.8169(11) 0.1160(12)
Mo1B Mo 0.27424(9) 0.71045(7) 0.69955(10)
Mo2B Mo 0.17184(10) 0.50846(7) 0.46433(11)
Mo3B Mo 0.16980(10) 0.65946(7) 0.45055(11)
Mo4B Mo 0.22552(11) 0.60554(8) 0.24019(11)
O3B O 0.2024(7) 0.6690(5) 0.6010(8)
O4B O 0.3179(7) 0.7884(5) 0.6060(8)
O5B O 0.3686(7) 0.7455(5) 0.7572(8)
O6B O 0.2401(8) 0.7393(6) 0.7943(8)
O7B O 0.1279(7) 0.5597(5) 0.4865(8)
O8B O 0.1630(7) 0.6351(5) 0.3104(8)
O9B O 0.1003(7) 0.6685(5) 0.4688(8)
O10B O 0.1695(7) 0.5176(5) 0.3154(8)
O11B O 0.2507(7) 0.4928(5) 0.4368(8)
O12B O 0.1054(8) 0.4264(5) 0.4811(9)
O13B O 0.2897(7) 0.7024(5) 0.2211(8)
O14B O 0.1831(11) 0.5828(8) 0.1160(12)
O15 O 0.3333 0.6667 0.987(2)
O16 O 0.4281(8) 0.5715(8) 0.9061(13)
H25 H 0.4123 0.5904 0.8646
H26 H 0.4239 0.5818 0.9696
Mo5 Mo 0.1395(4) 0.1613(3) 0.9148(6)
Mo6 Mo -0.02602(18) 0.10071(16) 0.8072(2)
O17 O 0.0680(10) 0.1333(10) 0.8013(15)
O18 O 0.1408(12) 0.1772(11) 1.0643(18)
O19 O 0.2098(15) 0.2371(13) 0.882(2)
O20 O -0.1129(11) 0.0243(10) 0.8032(16)
O21 O -0.0353(15) 0.1539(14) 0.722(2)
P2 P 0.0000 0.0000 1.0000
O22 O 0.047(2) 0.049(2) 0.905(3)
O22A O -0.049(2) -0.002(3) 0.905(3)
O22B O 0.002(3) -0.047(2) 0.905(3)
O22C O -0.047(2) -0.049(2) 1.095(3)
O22D O 0.049(2) 0.002(3) 1.095(3)
O22E O -0.002(3) 0.047(2) 1.095(3)
Mo5A Mo -0.1613(3) -0.0218(5) 0.9148(6)
Mo6A Mo -0.10071(16) -0.12673(24) 0.8072(2)
O17A O -0.1333(10) -0.0653(14) 0.8013(15)
O18A O -0.1772(11) -0.0364(16) 1.0643(18)
O19A O -0.2371(13) -0.0273(20) 0.882(2)
O20A O -0.0243(10) -0.1372(15) 0.8032(16)
O21A O -0.1539(14) -0.1892(21) 0.722(2)
Mo5B Mo 0.0218(5) -0.1395(4) 0.9148(6)
Mo6B Mo 0.12673(24) 0.02602(18) 0.8072(2)
O17B O 0.0653(14) -0.0680(10) 0.8013(15)
O18B O 0.0364(16) -0.1408(12) 1.0643(18)
O19B O 0.0273(20) -0.2098(15) 0.882(2)
O20B O 0.1372(15) 0.1129(11) 0.8032(16)
O21B O 0.1892(21) 0.0353(15) 0.722(2)
Mo5C Mo -0.1395(4) -0.1613(3) 1.0852(6)
Mo6C Mo 0.02602(18) -0.10071(16) 1.1928(2)
O17C O -0.0680(10) -0.1333(10) 1.1987(15)
O18C O -0.1408(12) -0.1772(11) 0.9357(18)
O19C O -0.2098(15) -0.2371(13) 1.118(2)
O20C O 0.1129(11) -0.0243(10) 1.1968(16)
O21C O 0.0353(15) -0.1539(14) 1.278(2)
Mo5D Mo 0.1613(3) 0.0218(5) 1.0852(6)
Mo6D Mo 0.10071(16) 0.12673(24) 1.1928(2)
O17D O 0.1333(10) 0.0653(14) 1.1987(15)
O18D O 0.1772(11) 0.0364(16) 0.9357(18)
O19D O 0.2371(13) 0.0273(20) 1.118(2)
O20D O 0.0243(10) 0.1372(15) 1.1968(16)
O21D O 0.1539(14) 0.1892(21) 1.278(2)
Mo5E Mo -0.0218(5) 0.1395(4) 1.0852(6)
Mo6E Mo -0.12673(24) -0.02602(18) 1.1928(2)
O17E O -0.0653(14) 0.0680(10) 1.1987(15)
O18E O -0.0364(16) 0.1408(12) 0.9357(18)
O19E O -0.0273(20) 0.2098(15) 1.118(2)
O20E O -0.1372(15) -0.1129(11) 1.1968(16)
O21E O -0.1892(21) -0.0353(15) 1.278(2)
Cu1 Cu 0.20851(10) 0.36943(10) 0.83003(14)
N1 N 0.1523(7) 0.2967(7) 0.5216(10)
N2 N 0.1948(7) 0.3315(8) 0.6830(11)
N3 N 0.1714(7) 0.3701(7) 0.1504(10)
N4 N 0.2106(7) 0.3858(7) -0.0148(10)
N5 N 0.0384(8) 0.3985(8) 0.8124(12)
N6 N 0.1153(8) 0.3641(8) 0.8220(11)
N7 N 0.0194(10) 0.5876(7) 0.7653(11)
N8 N 0.0833(10) 0.6920(7) 0.8283(11)
C1 C 0.1135(9) 0.2892(9) 0.4242(12)
H1 H 0.0815 0.3060 0.4358
H2 H 0.0869 0.2406 0.4047
C2 C 0.1634(9) 0.3302(9) 0.3346(12)
H3 H 0.1968 0.3761 0.3600
H4 H 0.1885 0.3071 0.3128
C3 C 0.1252(9) 0.3365(9) 0.2411(13)
H5 H 0.0888 0.2908 0.2203
H6 H 0.1037 0.3634 0.2615
C4 C 0.1576(9) 0.3374(9) 0.6048(13)
H7 H 0.1381 0.3657 0.6072
C5 C 0.2097(10) 0.2821(10) 0.6470(15)
H8 H 0.2329 0.2645 0.6858
C6 C 0.1856(10) 0.2628(10) 0.5460(14)
H9 H 0.1912 0.2321 0.5029
C7 C 0.1609(10) 0.3435(10) 0.0497(14)
H10 H 0.1234 0.3012 0.0295
C8 C 0.2551(10) 0.4414(10) 0.0430(14)
H11 H 0.2950 0.4798 0.0176
C9 C 0.2312(10) 0.4317(10) 0.1472(14)
H12 H 0.2523 0.4619 0.2037
C10 C 0.0081(10) 0.4440(10) 0.8057(16)
H13 H 0.0236 0.4758 0.8654
H14 H -0.0421 0.4163 0.8088
C11 C 0.0292(10) 0.4837(10) 0.7051(15)
H15 H 0.0160 0.4518 0.6459
H16 H 0.0792 0.5131 0.7040
C12 C -0.0047(13) 0.5287(9) 0.6927(14)
H17 H 0.0030 0.5462 0.6206
H18 H -0.0543 0.4992 0.7022
C13 C 0.1033(9) 0.4155(10) 0.8299(14)
H19 H 0.1377 0.4604 0.8466
C14 C 0.0525(10) 0.3083(11) 0.8030(16)
H20 H 0.0425 0.2626 0.7969
C15 C 0.0062(11) 0.3315(11) 0.7944(17)
H21 H -0.0406 0.3041 0.7784
C16 C 0.0747(13) 0.6501(9) 0.7480(14)
H22 H 0.1030 0.6624 0.6883
C17 C 0.0295(13) 0.6537(10) 0.8957(15)
H23 H 0.0214 0.6697 0.9592
C18 C -0.0094(14) 0.5901(10) 0.8569(15)
H24 H -0.0491 0.5542 0.8877
Cu1_2 Cu 0.20851(10) 0.36943(10) -0.16997(14)
Cu1B Cu 0.16092(14) 0.79149(10) 0.83003(14)
N4_2 N 0.2106(7) 0.3858(7) 0.9852(10)
N8A N 0.3080(7) 0.3913(12) 0.8283(11)
loop_
_geom_bond_atom_site_label_1
_geom_bond_atom_site_label_2
_geom_bond_site_symmetry_1
_geom_bond_site_symmetry_2
Cu1 N2 1_555 1_555
N1 C1 1_555 1_555
N2 C4 1_555 1_555
N3 C3 1_555 1_555
N4 C7 1_555 1_555
N5 C10 1_555 1_555
N6 Cu1 1_555 1_555
N7 C12 1_555 1_555
N8 C16 1_555 1_555
C1 H1 1_555 1_555
H2 C1 1_555 1_555
C2 C1 1_555 1_555
H3 C2 1_555 1_555
H4 C2 1_555 1_555
C3 C2 1_555 1_555
H5 C3 1_555 1_555
H6 C3 1_555 1_555
C4 N1 1_555 1_555
H7 C4 1_555 1_555
C5 N2 1_555 1_555
H8 C5 1_555 1_555
C6 N1 1_555 1_555
H9 C6 1_555 1_555
C7 N3 1_555 1_555
H10 C7 1_555 1_555
C8 N4 1_555 1_555
H11 C8 1_555 1_555
C9 N3 1_555 1_555
H12 C9 1_555 1_555
C10 H13 1_555 1_555
H14 C10 1_555 1_555
C11 C10 1_555 1_555
H15 C11 1_555 1_555
H16 C11 1_555 1_555
C12 C11 1_555 1_555
H17 C12 1_555 1_555
H18 C12 1_555 1_555
C13 N5 1_555 1_555
H19 C13 1_555 1_555
C14 N6 1_555 1_555
H20 C14 1_555 1_555
C15 N5 1_555 1_555
H21 C15 1_555 1_555
C16 N7 1_555 1_555
H22 C16 1_555 1_555
C17 N8 1_555 1_555
H23 C17 1_555 1_555
C18 N7 1_555 1_555
H24 C18 1_555 1_555
Mo1 O1 1_555 1_555
Mo2 O2 1_555 1_555
Mo3 O2 1_555 1_555
Mo4 O2 1_555 1_555
O1 P1 1_555 1_555
O2 P1 1_555 1_555
O3 Mo1 1_555 1_555
O4 Mo1 1_555 1_555
O5 Mo1 1_555 1_555
O6 Mo1 1_555 1_555
O7 Mo2 1_555 1_555
O8 Mo3 1_555 1_555
O9 Mo3 1_555 1_555
O10 Mo2 1_555 1_555
O11 Mo2 1_555 1_555
O12 Mo2 1_555 1_555
O13 Mo4 1_555 1_555
O14 Mo4 1_555 1_555
P1 O2A 1_555 1_555
O16 H25 1_555 1_555
H26 O16 1_555 1_555
Mo5 O17 1_555 1_555
Mo6 O17 1_555 1_555
O18 Mo5 1_555 1_555
O19 Mo5 1_555 1_555
O20 Mo6 1_555 1_555
O21 Mo6 1_555 1_555
P2 O22 1_555 1_555
O22 Mo5 1_555 1_555
Cu1_2 N4 1_555 1_555
Cu1B N8 1_555 1_555
N4_2 Cu1 1_555 1_555
N8A Cu1 1_555 1_555
O2A Mo2A 1_555 1_555
O2B P1 1_555 1_555
Mo1A O1 1_555 1_555
Mo2A O7A 1_555 1_555
Mo3A O11 1_555 1_555
Mo4A O2A 1_555 1_555
O3A Mo1A 1_555 1_555
O4A Mo2 1_555 1_555
O5A Mo1 1_555 1_555
O6A Mo1A 1_555 1_555
O7A Mo3A 1_555 1_555
O8A Mo3A 1_555 1_555
O9A Mo3A 1_555 1_555
O10A Mo2A 1_555 1_555
O11A Mo2A 1_555 1_555
O12A Mo2A 1_555 1_555
O13A Mo4 1_555 1_555
O14A Mo4A 1_555 1_555
Mo1B O1 1_555 1_555
Mo2B O4 1_555 1_555
Mo3B O2B 1_555 1_555
Mo4B O13 1_555 1_555
O3B Mo1B 1_555 1_555
O4B Mo2A 1_555 1_555
O5B Mo1A 1_555 1_555
O6B Mo1B 1_555 1_555
O7B Mo2B 1_555 1_555
O8B Mo3B 1_555 1_555
O9B Mo3B 1_555 1_555
O10B Mo2B 1_555 1_555
O11B Mo3 1_555 1_555
O12B Mo2B 1_555 1_555
O13B Mo4A 1_555 1_555
O14B Mo4B 1_555 1_555
O22A Mo6 1_555 1_555
O22B P2 1_555 1_555
O22C P2 1_555 1_555
O22D P2 1_555 1_555
O22E P2 1_555 1_555
Mo5A O20 1_555 1_555
Mo6A O22B 1_555 1_555
O17A Mo5A 1_555 1_555
O18A Mo5A 1_555 1_555
O19A Mo5A 1_555 1_555
O20A Mo6A 1_555 1_555
O21A Mo6A 1_555 1_555
Mo5B O22B 1_555 1_555
Mo6B O22 1_555 1_555
O17B Mo5B 1_555 1_555
O18B Mo5B 1_555 1_555
O19B Mo5B 1_555 1_555
O20B Mo5 1_555 1_555
O21B Mo6B 1_555 1_555
Mo5C O22C 1_555 1_555
Mo6C O22D 1_555 1_555
O17C Mo5C 1_555 1_555
O18C Mo6A 1_555 1_555
O19C Mo5C 1_555 1_555
O20C Mo6C 1_555 1_555
O21C Mo6C 1_555 1_555
Mo5D O22D 1_555 1_555
Mo6D O18 1_555 1_555
O17D Mo5D 1_555 1_555
O18D Mo6B 1_555 1_555
O19D Mo5D 1_555 1_555
O20D Mo6D 1_555 1_555
O21D Mo6D 1_555 1_555
Mo5E O22E 1_555 1_555
Mo6E O22C 1_555 1_555
O17E Mo5E 1_555 1_555
O18E Mo6 1_555 1_555
O19E Mo5E 1_555 1_555
O20E Mo5C 1_555 1_555
O21E Mo6E 1_555 1_555
N6 C13 1_555 1_555
C5 C6 1_555 1_555
C8 C9 1_555 1_555
C14 C15 1_555 1_555
C17 C18 1_555 1_555
Mo3 O3 1_555 1_555
Mo3 O7 1_555 1_555
Mo4 O8 1_555 1_555
Mo4 O10 1_555 1_555
O5 Mo1B 1_555 1_555
P2 O22A 1_555 1_555
O2A Mo3A 1_555 1_555
O2B Mo2B 1_555 1_555
O2B Mo4B 1_555 1_555
Mo1A O4A 1_555 1_555
Mo1A O5A 1_555 1_555
Mo3A O3A 1_555 1_555
Mo4A O8A 1_555 1_555
Mo4A O10A 1_555 1_555
Mo4A O13A 1_555 1_555
O11A Mo3B 1_555 1_555
Mo1B O4B 1_555 1_555
Mo1B O5B 1_555 1_555
Mo2B O11B 1_555 1_555
Mo3B O3B 1_555 1_555
Mo3B O7B 1_555 1_555
Mo4B O8B 1_555 1_555
Mo4B O10B 1_555 1_555
Mo4B O13B 1_555 1_555
O22A Mo5A 1_555 1_555
O22E Mo6D 1_555 1_555
Mo6A O17A 1_555 1_555
O18A Mo6E 1_555 1_555
O20A Mo5B 1_555 1_555
Mo6B O17B 1_555 1_555
Mo6B O20B 1_555 1_555
O18B Mo6C 1_555 1_555
Mo5C O18C 1_555 1_555
Mo6C O17C 1_555 1_555
O20C Mo5D 1_555 1_555
Mo5D O18D 1_555 1_555
Mo6D O17D 1_555 1_555
O20D Mo5E 1_555 1_555
Mo5E O18E 1_555 1_555
Mo6E O17E 1_555 1_555
Mo6E O20E 1_555 1_555

#END
