
#######################################################################
#
#                 Cambridge Crystallographic Data Centre
#                                CCDC 
#
#######################################################################
#
# If this CIF has been generated from an entry in the Cambridge 
# Structural Database, then it will include bibliographic, chemical, 
# crystal, experimental, refinement or atomic coordinate data resulting 
# from the CCDC's data processing and validation procedures.
#
#######################################################################

data_PIQFIG
_chemical_formula_moiety         '(C49 H42 Cr2 Mn4 N6 O31)n'
_symmetry_cell_setting           monoclinic
_symmetry_space_group_name_H-M   'C 2/c'
_symmetry_Int_Tables_number      15
_space_group_name_Hall           '-C 2yc'
loop_
_symmetry_equiv_pos_site_id
_symmetry_equiv_pos_as_xyz
1 x,y,z
2 -x,y,1/2-z
3 1/2+x,1/2+y,z
4 1/2-x,1/2+y,1/2-z
5 -x,-y,-z
6 x,-y,1/2+z
7 1/2-x,1/2-y,-z
8 1/2+x,1/2-y,1/2+z
_cell_length_a                   21.7633(5)
_cell_length_b                   14.1958(4)
_cell_length_c                   22.9649(7)
_cell_angle_alpha                90
_cell_angle_beta                 90.182(3)
_cell_angle_gamma                90
_cell_volume                     7094.91
loop_
_atom_site_label
_atom_site_type_symbol
_atom_site_fract_x
_atom_site_fract_y
_atom_site_fract_z
C1 C 0.8100(2) 0.9045(4) 0.0038(2)
C2 C 0.8208(3) 0.9722(4) 0.0466(3)
H1 H 0.7916 0.9804 0.0768
C3 C 0.8733(3) 1.0280(5) 0.0460(3)
H2 H 0.8802 1.0728 0.0761
C4 C 0.9148(3) 1.0184(5) 0.0024(3)
H3 H 0.9508 1.0564 0.0017
C5 C 0.9044(2) 0.9530(4) -0.0409(2)
H4 H 0.9337 0.9464 -0.0711
C6 C 0.8520(2) 0.8960(4) -0.0416(2)
C7 C 0.8441(2) 0.8259(4) -0.0876(2)
H5 H 0.8781 0.8144 -0.1124
C8 C 0.7897(3) 0.7051(4) -0.1423(2)
H6 H 0.7936 0.6420 -0.1244
H7 H 0.8230 0.7129 -0.1711
C9 C 0.7270(3) 0.7146(5) -0.1723(2)
H8 H 0.7273 0.7684 -0.1997
H9 H 0.7173 0.6566 -0.1944
C10 C 0.6255(3) 0.7032(5) -0.1347(2)
H10 H 0.6165 0.6699 -0.1696
C11 C 0.5769(3) 0.7192(5) -0.0960(3)
C12 C 0.5172(3) 0.6877(6) -0.1135(3)
H11 H 0.5123 0.6549 -0.1493
C13 C 0.4678(3) 0.7041(6) -0.0796(3)
H12 H 0.4280 0.6839 -0.0912
C14 C 0.4768(3) 0.7516(5) -0.0268(3)
H13 H 0.4422 0.7627 -0.0027
C15 C 0.5340(2) 0.7834(4) -0.0082(3)
H14 H 0.5380 0.8152 0.0280
C16 C 0.5852(2) 0.7684(4) -0.0428(2)
N1 N 0.79438(19) 0.7784(3) -0.09718(17)
N2 N 0.6811(2) 0.7300(4) -0.12675(19)
O1 O 0.76105(15) 0.8468(3) 0.00882(15)
O2 O 0.63927(15) 0.8006(3) -0.02317(15)
Mn1 Mn 0.71591(3) 0.79710(6) -0.05730(3)
O3 O 0.69869(18) 0.9369(3) -0.09531(19)
C1F C 0.6900(2) 0.5955(4) -0.0038(2)
C2F C 0.6792(3) 0.5278(4) -0.0466(3)
H1F H 0.7084 0.5196 -0.0768
C3F C 0.6267(3) 0.4720(5) -0.0460(3)
H2F H 0.6198 0.4272 -0.0761
C4F C 0.5852(3) 0.4816(5) -0.0024(3)
H3F H 0.5492 0.4436 -0.0017
C5F C 0.5956(2) 0.5470(4) 0.0409(2)
H4F H 0.5663 0.5536 0.0711
C6F C 0.6480(2) 0.6040(4) 0.0416(2)
C7F C 0.6559(2) 0.6741(4) 0.0876(2)
H5F H 0.6219 0.6856 0.1124
C8F C 0.7103(3) 0.7949(4) 0.1423(2)
H6F H 0.7064 0.8580 0.1244
H7F H 0.6770 0.7871 0.1711
C9F C 0.7730(3) 0.7854(5) 0.1723(2)
H8F H 0.7727 0.7316 0.1997
H9F H 0.7827 0.8434 0.1944
C10F C 0.8745(3) 0.7968(5) 0.1347(2)
H10F H 0.8835 0.8301 0.1696
C11F C 0.9231(3) 0.7808(5) 0.0960(3)
C12F C 0.9828(3) 0.8123(6) 0.1135(3)
H11F H 0.9877 0.8451 0.1493
C13F C 1.0322(3) 0.7959(6) 0.0796(3)
H12F H 1.0720 0.8161 0.0912
C14F C 1.0232(3) 0.7484(5) 0.0268(3)
H13F H 1.0578 0.7373 0.0027
C15F C 0.9660(2) 0.7166(4) 0.0082(3)
H14F H 0.9620 0.6848 -0.0280
C16F C 0.9148(2) 0.7316(4) 0.0428(2)
N1F N 0.70562(19) 0.7216(3) 0.09718(17)
N2F N 0.8189(2) 0.7700(4) 0.12675(19)
O1F O 0.73895(15) 0.6532(3) -0.00882(15)
O2F O 0.86073(15) 0.6994(3) 0.02317(15)
Mn1F Mn 0.78409(3) 0.70290(6) 0.05730(3)
O3F O 0.80131(18) 0.5631(3) 0.09531(19)
C17 C 0.8103(2) 0.0620(4) 0.8415(2)
C18 C 0.8463(2) 0.1391(4) 0.8092(2)
C19 C 0.6832(2) 0.3081(4) 0.7930(2)
C20 C 0.7129(2) 0.3963(4) 0.8233(2)
C21 C 0.7852(3) 0.2589(4) 1.0048(3)
C22 C 1.0035(3) -0.0469(4) 0.7837(2)
O4 O 0.77503(17) 0.0888(3) 0.88041(16)
O5 O 0.83761(19) 0.2227(3) 0.82443(17)
O6 O 0.81841(17) -0.0213(3) 0.82621(17)
O7 O 0.88041(17) 0.1106(3) 0.76979(16)
O8 O 0.70116(18) 0.2289(3) 0.81128(17)
O9 O 0.75291(17) 0.3804(3) 0.86276(17)
O10 O 0.64409(17) 0.3233(3) 0.75277(16)
O11 O 0.69437(17) 0.4752(3) 0.80524(17)
O12 O 0.81659(17) 0.2606(3) 0.9601(2)
O13 O 0.80456(17) 0.2700(3) 1.05662(19)
O14 O 0.9549(2) -0.0510(3) 0.81134(17)
O15 O 1.0580(2) -0.0409(3) 0.80469(17)
Cr1 Cr 0.87681(4) -0.03535(6) 0.75790(4)
Mn2 Mn 0.76524(4) 0.23741(6) 0.88278(4)
C21F C 0.7148(3) 0.2411(4) 0.9952(3)
O12F O 0.68341(17) 0.2394(3) 1.0399(2)
O13F O 0.69544(17) 0.2300(3) 0.94338(19)
C22A C 0.9965(3) -0.0469(4) 0.7163(2)
O14A O 1.0451(2) -0.0510(3) 0.68866(17)
O15A O 0.9420(2) -0.0409(3) 0.69531(17)
C17A C 1.1897(2) 0.0620(4) 0.6585(2)
C18A C 1.1537(2) 0.1391(4) 0.6908(2)
C19A C 1.3168(2) 0.3081(4) 0.7070(2)
C20A C 1.2871(2) 0.3963(4) 0.6767(2)
O4A O 1.22497(17) 0.0888(3) 0.61959(16)
O5A O 1.16239(19) 0.2227(3) 0.67557(17)
O6A O 1.18159(17) -0.0213(3) 0.67379(17)
O7A O 1.11959(17) 0.1106(3) 0.73021(16)
O8A O 1.29884(18) 0.2289(3) 0.68872(17)
O9A O 1.24709(17) 0.3804(3) 0.63724(17)
O10A O 1.35591(17) 0.3233(3) 0.74723(16)
O11A O 1.30563(17) 0.4752(3) 0.69476(17)
Cr1A Cr 1.12319(4) -0.03535(6) 0.74210(4)
Mn2A Mn 1.23476(4) 0.23741(6) 0.61722(4)
O10B O 1.14409(17) -0.1767(3) 0.75277(16)
O10C O 0.85591(17) -0.1767(3) 0.74723(16)
O11B O 1.19437(17) -0.0248(3) 0.80524(17)
O11C O 0.80563(17) -0.0248(3) 0.69476(17)
O12A O 1.18341(17) 0.2606(3) 0.5399(2)
O13G O 1.30456(17) 0.2300(3) 0.55662(19)
Cr1B Cr 1.37681(4) 0.46465(6) 0.75790(4)
Cr1C Cr 0.62319(4) 0.46465(6) 0.74210(4)
Mn2F Mn 0.73476(4) 0.26259(6) 1.11722(4)
C23 C 0.6350(10) 0.9316(15) 0.7978(9)
O16 O 0.6554(11) 0.9744(18) 0.7512(11)
C24 C 0.5554(16) 1.211(2) 0.8547(14)
C25 C 0.5032(13) 1.1915(19) 0.8398(11)
N3 N 0.4559(13) 1.1751(19) 0.8443(11)
C26 C 0.432(2) 0.997(4) 0.895(2)
C27 C 0.3956(19) 0.993(3) 0.9350(19)
N4 N 0.3681(7) 0.9801(11) 0.9704(7)
loop_
_geom_bond_atom_site_label_1
_geom_bond_atom_site_label_2
_geom_bond_site_symmetry_1
_geom_bond_site_symmetry_2
C1 C2 1_555 1_555
C2 H1 1_555 1_555
C3 C2 1_555 1_555
H2 C3 1_555 1_555
C4 C3 1_555 1_555
H3 C4 1_555 1_555
C5 C4 1_555 1_555
H4 C5 1_555 1_555
C6 C1 1_555 1_555
C7 C6 1_555 1_555
H5 C7 1_555 1_555
C8 H6 1_555 1_555
H7 C8 1_555 1_555
C9 C8 1_555 1_555
H8 C9 1_555 1_555
H9 C9 1_555 1_555
C10 H10 1_555 1_555
C11 C10 1_555 1_555
C12 C11 1_555 1_555
H11 C12 1_555 1_555
C13 C12 1_555 1_555
H12 C13 1_555 1_555
C14 C13 1_555 1_555
H13 C14 1_555 1_555
C15 C14 1_555 1_555
H14 C15 1_555 1_555
C16 C11 1_555 1_555
N1 C7 1_555 1_555
N2 C9 1_555 1_555
O1 C1 1_555 1_555
O2 C16 1_555 1_555
Mn1 N1 1_555 1_555
O3 Mn1 1_555 1_555
C17 C18 1_555 1_555
C18 O5 1_555 1_555
C19 C20 1_555 1_555
C20 O9 1_555 1_555
C21 O12 1_555 1_555
C22 O14 1_555 1_555
O4 C17 1_555 1_555
O5 Mn2 1_555 1_555
O6 C17 1_555 1_555
O7 C18 1_555 1_555
O8 C19 1_555 1_555
O9 Mn2 1_555 1_555
O10 C19 1_555 1_555
O11 C20 1_555 1_555
O12 Mn2 1_555 1_555
O13 C21 1_555 1_555
O14 Cr1 1_555 1_555
O15 C22 1_555 1_555
Cr1 O6 1_555 1_555
Mn2 O4 1_555 1_555
C23 O16 1_555 1_555
C24 C25 1_555 1_555
C25 N3 1_555 1_555
C26 C27 1_555 1_555
C27 N4 1_555 1_555
C1F C2F 1_555 1_555
C2F H1F 1_555 1_555
C3F C2F 1_555 1_555
H2F C3F 1_555 1_555
C4F C3F 1_555 1_555
H3F C4F 1_555 1_555
C5F C4F 1_555 1_555
H4F C5F 1_555 1_555
C6F C1F 1_555 1_555
C7F C6F 1_555 1_555
H5F C7F 1_555 1_555
C8F H6F 1_555 1_555
H7F C8F 1_555 1_555
C9F C8F 1_555 1_555
H8F C9F 1_555 1_555
H9F C9F 1_555 1_555
C10F H10F 1_555 1_555
C11F C10F 1_555 1_555
C12F C11F 1_555 1_555
H11F C12F 1_555 1_555
C13F C12F 1_555 1_555
H12F C13F 1_555 1_555
C14F C13F 1_555 1_555
H13F C14F 1_555 1_555
C15F C14F 1_555 1_555
H14F C15F 1_555 1_555
C16F C11F 1_555 1_555
N1F C7F 1_555 1_555
N2F C9F 1_555 1_555
O1F Mn1 1_555 1_555
O2F C16F 1_555 1_555
Mn1F O1 1_555 1_555
O3F Mn1F 1_555 1_555
C21F C21 1_555 1_555
O12F C21F 1_555 1_555
O13F Mn2 1_555 1_555
C22A C22 1_555 1_555
O14A C22A 1_555 1_555
O15A Cr1 1_555 1_555
C17A C18A 1_555 1_555
C18A O5A 1_555 1_555
C19A C20A 1_555 1_555
C20A O9A 1_555 1_555
O4A C17A 1_555 1_555
O5A Mn2A 1_555 1_555
O6A C17A 1_555 1_555
O7A C18A 1_555 1_555
O8A C19A 1_555 1_555
O9A Mn2A 1_555 1_555
O10A C19A 1_555 1_555
O11A C20A 1_555 1_555
Cr1A O15 1_555 1_555
Mn2A O4A 1_555 1_555
O10B Cr1A 1_555 1_555
O10C Cr1 1_555 1_555
O11B Cr1A 1_555 1_555
O11C Cr1 1_555 1_555
O12A Mn2A 1_555 1_555
O13G Mn2A 1_555 1_555
Cr1B O10A 1_555 1_555
Cr1C O10 1_555 1_555
Mn2F O13 1_555 1_555
C5 C6 1_555 1_555
C8 N1 1_555 1_555
C10 N2 1_555 1_555
C15 C16 1_555 1_555
N2 Mn1 1_555 1_555
O1 Mn1 1_555 1_555
O2 Mn1 1_555 1_555
O7 Cr1 1_555 1_555
O8 Mn2 1_555 1_555
O11 Cr1C 1_555 1_555
C1F O1F 1_555 1_555
C5F C6F 1_555 1_555
C8F N1F 1_555 1_555
C10F N2F 1_555 1_555
C15F C16F 1_555 1_555
N1F Mn1F 1_555 1_555
N2F Mn1F 1_555 1_555
O1F Mn1F 1_555 1_555
O2F Mn1F 1_555 1_555
C21F O13F 1_555 1_555
O12F Mn2F 1_555 1_555
C22A O15A 1_555 1_555
O14A Cr1A 1_555 1_555
O6A Cr1A 1_555 1_555
O7A Cr1A 1_555 1_555
O8A Mn2A 1_555 1_555
O11A Cr1B 1_555 1_555

#END
