
#######################################################################
#
#                 Cambridge Crystallographic Data Centre
#                                CCDC 
#
#######################################################################
#
# If this CIF has been generated from an entry in the Cambridge 
# Structural Database, then it will include bibliographic, chemical, 
# crystal, experimental, refinement or atomic coordinate data resulting 
# from the CCDC's data processing and validation procedures.
#
#######################################################################

data_OGIBOV
_chemical_formula_moiety         '(C4 H12 F4 Ga5 N2 O20 P5 2-)n'
_symmetry_cell_setting           orthorhombic
_symmetry_space_group_name_H-M   'P c c n'
_symmetry_Int_Tables_number      56
_space_group_name_Hall           '-P 2ab 2ac'
loop_
_symmetry_equiv_pos_site_id
_symmetry_equiv_pos_as_xyz
1 x,y,z
2 1/2-x,1/2-y,z
3 1/2+x,-y,1/2-z
4 -x,1/2+y,1/2-z
5 -x,-y,-z
6 1/2+x,1/2+y,-z
7 1/2-x,y,1/2+z
8 x,1/2-y,1/2+z
_cell_length_a                   12.232(2)
_cell_length_b                   12.268(2)
_cell_length_c                   16.392(3)
_cell_angle_alpha                90
_cell_angle_beta                 90
_cell_angle_gamma                90
_cell_volume                     2459.82
loop_
_atom_site_label
_atom_site_type_symbol
_atom_site_fract_x
_atom_site_fract_y
_atom_site_fract_z
Ga1 Ga 0.25000 0.75000 0.18389(3)
Ga2 Ga 0.17248(3) 0.47635(3) 0.25406(2)
Ga3 Ga 0.13311(3) 0.45979(3) -0.09905(2)
P1 P 0.25000 0.25000 0.32105(8)
P2 P 0.12554(8) 0.56249(8) 0.07852(6)
P3 P 0.41065(8) 0.55761(8) 0.23754(6)
F1 F 0.2127(2) 0.4949(2) 0.3671(1)
F2 F 0.1828(2) 0.6415(2) 0.2585(1)
O1 O 0.3872(2) 0.6691(2) 0.1994(2)
O2 O 0.1918(2) 0.6636(2) 0.0972(1)
O3 O 0.1745(2) 0.5138(2) 0.0000(2)
O4 O 0.5208(2) 0.5152(2) 0.2039(2)
O5 O 0.3249(2) 0.3171(2) 0.3780(2)
O6 O 0.4151(2) 0.5702(2) 0.3313(2)
O7 O 0.1306(2) 0.4758(2) 0.1443(2)
O8 O 0.3249(2) 0.4722(2) 0.2179(2)
O9 O 0.1765(2) 0.3212(2) 0.2684(2)
O10 O 0.0056(2) 0.5970(2) 0.0633(2)
O5A O 0.1751(2) 0.1829(2) 0.3780(2)
O9A O 0.3235(2) 0.1788(2) 0.2684(2)
F2A F 0.3172(2) 0.8585(2) 0.2585(1)
P3A P 0.08935(8) 0.94239(8) 0.23754(6)
O1A O 0.1128(2) 0.8309(2) 0.1994(2)
O4A O -0.0208(2) 0.9848(2) 0.2039(2)
O6A O 0.0849(2) 0.9298(2) 0.3313(2)
O8A O 0.1751(2) 1.0278(2) 0.2179(2)
P2A P 0.37446(8) 0.93751(8) 0.07852(6)
O2A O 0.3082(2) 0.8364(2) 0.0972(1)
O3A O 0.3255(2) 0.9862(2) 0.0000(2)
O7A O 0.3694(2) 1.0242(2) 0.1443(2)
O10A O 0.4944(2) 0.9030(2) 0.0633(2)
Ga2A Ga 0.32752(3) 1.02365(3) 0.25406(2)
Ga3A Ga 0.36689(3) 1.04021(3) -0.09905(2)
F1F F 0.2873(2) 0.4949(2) -0.1329(1)
O4B O 0.0208(2) 0.4848(2) 0.2961(2)
O5F O 0.1751(2) 0.3171(2) -0.1220(2)
O6F O 0.0849(2) 0.5702(2) -0.1687(2)
O10D O -0.0056(2) 0.4030(2) -0.0633(2)
Ga3F Ga 0.36689(3) 0.45979(3) 0.40095(2)
Ga2B Ga 0.67248(3) 0.52365(3) 0.24594(2)
Ga3D Ga -0.13311(3) 0.54021(3) 0.09905(2)
Ga3G Ga 0.13311(3) 0.04021(3) 0.40095(2)
Ga2A_2 Ga 0.32752(3) 0.02365(3) 0.25406(2)
Ga2C Ga -0.17248(3) 0.97635(3) 0.24594(2)
Ga3G_2 Ga 0.13311(3) 1.04021(3) 0.40095(2)
Ga3E Ga 0.63311(3) 0.95979(3) 0.09905(2)
F1A F 0.2873(2) 1.0051(2) 0.3671(1)
O4C O 0.4792(2) 1.0152(2) 0.2961(2)
O9A_2 O 0.3235(2) 1.1788(2) 0.2684(2)
F1G F 0.2127(2) 1.0051(2) -0.1329(1)
O5G O 0.3249(2) 1.1829(2) -0.1220(2)
O6G O 0.4151(2) 0.9298(2) -0.1687(2)
O10E O 0.5056(2) 1.0970(2) -0.0633(2)
Ga2F Ga 0.32752(3) 0.47635(3) -0.24594(2)
N1 N 0.4753(3) 0.1726(3) 0.4638(2)
N2 N 0.5093(3) 0.2010(3) 0.6369(2)
C1 C 0.3834(4) 0.1604(4) 0.5230(3)
C2 C 0.4027(4) 0.2281(4) 0.5983(3)
C3 C 0.5798(3) 0.1409(3) 0.5038(3)
C4 C 0.6013(4) 0.2100(3) 0.5766(3)
loop_
_geom_bond_atom_site_label_1
_geom_bond_atom_site_label_2
_geom_bond_site_symmetry_1
_geom_bond_site_symmetry_2
Ga1 F2 1_555 1_555
Ga2 F1 1_555 1_555
Ga3 O3 1_555 1_555
P1 O5 1_555 1_555
P2 O2 1_555 1_555
P3 O1 1_555 1_555
F1 Ga3F 1_555 1_555
F2 Ga2 1_555 1_555
O1 Ga1 1_555 1_555
O2 Ga1 1_555 1_555
O3 P2 1_555 1_555
O4 P3 1_555 1_555
O5 Ga3F 1_555 1_555
O6 P3 1_555 1_555
O7 Ga2 1_555 1_555
O8 Ga2 1_555 1_555
O9 Ga2 1_555 1_555
O10 P2 1_555 1_555
N1 C1 1_555 1_555
N2 C2 1_555 1_555
C1 C2 1_555 1_555
C3 N1 1_555 1_555
C4 N2 1_555 1_555
O5A P1 1_555 1_555
O9A P1 1_555 1_555
F2A Ga1 1_555 1_555
P3A O1A 1_555 1_555
O1A Ga1 1_555 1_555
O4A P3A 1_555 1_555
O6A P3A 1_555 1_555
O8A P3A 1_555 1_555
P2A O2A 1_555 1_555
O2A Ga1 1_555 1_555
O3A P2A 1_555 1_555
O7A P2A 1_555 1_555
O10A P2A 1_555 1_555
Ga2A F2A 1_555 1_555
Ga3A O3A 1_555 1_555
F1F Ga3 1_555 1_555
O4B Ga2 1_555 1_555
O5F Ga3 1_555 1_555
O6F Ga3 1_555 1_555
O10D Ga3 1_555 1_555
Ga3F O6 1_555 1_555
Ga2B O4 1_555 1_555
Ga3D O10 1_555 1_555
Ga3G O5A 1_555 1_555
Ga2A_2 O9A 1_555 1_555
Ga2C O4A 1_555 1_555
Ga3G_2 O6A 1_555 1_555
Ga3E O10A 1_555 1_555
F1A Ga2A 1_555 1_555
O4C Ga2A 1_555 1_555
O9A_2 Ga2A 1_555 1_555
F1G Ga3A 1_555 1_555
O5G Ga3A 1_555 1_555
O6G Ga3A 1_555 1_555
O10E Ga3A 1_555 1_555
Ga2F F1F 1_555 1_555
P1 O9 1_555 1_555
P2 O7 1_555 1_555
P3 O8 1_555 1_555
C3 C4 1_555 1_555
O8A Ga2A 1_555 1_555
O7A Ga2A 1_555 1_555
Ga3G_2 F1A 1_555 1_555

#END
