
#######################################################################
#
#                 Cambridge Crystallographic Data Centre
#                                CCDC 
#
#######################################################################
#
# If this CIF has been generated from an entry in the Cambridge 
# Structural Database, then it will include bibliographic, chemical, 
# crystal, experimental, refinement or atomic coordinate data resulting 
# from the CCDC's data processing and validation procedures.
#
#######################################################################

data_AWAHEM
_chemical_formula_moiety         '(C12 H48 Mn4 O58 P6 U5)n'
_symmetry_cell_setting           triclinic
_symmetry_space_group_name_H-M   'P -1'
_symmetry_Int_Tables_number      2
_space_group_name_Hall           '-P 1'
loop_
_symmetry_equiv_pos_site_id
_symmetry_equiv_pos_as_xyz
1 x,y,z
2 -x,-y,-z
_cell_length_a                   12.7708(13)
_cell_length_b                   14.5298(14)
_cell_length_c                   18.8587(19)
_cell_angle_alpha                82.7840(10)
_cell_angle_beta                 72.1790(10)
_cell_angle_gamma                79.3850(10)
_cell_volume                     3265.47
loop_
_atom_site_label
_atom_site_type_symbol
_atom_site_fract_x
_atom_site_fract_y
_atom_site_fract_z
U1 U 0.55253(2) 0.577456(19) 0.897460(15)
U2 U 0.46137(2) 0.164630(19) 0.897240(15)
U3 U 0.71362(2) 0.948679(19) 0.736537(15)
U4 U 0.81851(2) 0.16569(2) 0.536000(15)
U5 U 0.86972(2) 0.583505(19) 0.572435(15)
Mn1 Mn 0.04516(14) 0.36389(11) 0.81765(10)
Mn2 Mn 0.38122(10) 0.52975(8) 0.75182(6)
Mn3 Mn 0.56285(9) 0.51841(8) 0.56913(6)
P1 P 0.39749(17) 0.42515(14) 0.91505(11)
P2 P 0.58647(16) 0.64021(13) 0.69554(10)
P3 P 0.64358(16) 0.79968(13) 0.90578(11)
P4 P 0.58954(17) 0.17566(14) 0.70170(11)
P5 P 0.93096(16) 0.80187(13) 0.61351(11)
P6 P 1.17938(16) 0.57443(13) 0.50697(11)
O1 O 0.4211(5) 0.3241(4) 0.9001(3)
O2 O 0.4465(5) 0.4489(4) 0.9744(3)
O3 O 0.4473(5) 0.4900(4) 0.8463(3)
O4 O 0.2228(5) 0.4953(5) 0.8241(3)
O5 O 0.1251(5) 0.3913(5) 0.9000(4)
O6 O 0.5914(5) 0.6322(4) 0.7758(3)
O7 O 0.6980(4) 0.6525(4) 0.6382(3)
O8 O 0.5435(4) 0.5548(4) 0.6801(3)
O9 O 0.3462(6) 0.8287(5) 0.7783(4)
O10 O 0.3386(5) 0.6757(4) 0.7813(3)
O11 O 0.6548(4) 0.6947(4) 0.8991(3)
O12 O 0.7274(5) 0.8466(4) 0.8414(3)
O13 O 0.6555(4) 0.8224(3) 0.9825(3)
O14 O 0.4221(5) 1.0026(4) 0.9499(3)
O15 O 0.5581(5) 1.0041(4) 0.8455(3)
O16 O 0.6981(5) 0.2017(4) 0.6497(3)
O17 O 0.5723(5) 0.2027(4) 0.7801(3)
O18 O 0.5864(5) 0.0707(4) 0.7012(3)
O19 O 0.5384(5) 0.3774(4) 0.6046(3)
O20 O 0.4062(5) 0.3894(4) 0.7148(3)
O21 O 0.9254(5) 0.6969(4) 0.6218(3)
O22 O 0.8760(5) 0.8476(4) 0.6875(3)
O23 O 1.0519(4) 0.8218(3) 0.5810(3)
O24 O 0.8817(5) 1.0072(4) 0.4863(3)
O25 O 0.7885(5) 1.0053(4) 0.6047(3)
O26 O 1.1943(5) 0.6752(4) 0.4866(3)
O27 O 1.0653(4) 0.5520(4) 0.5107(3)
O28 O 1.2602(4) 0.5060(4) 0.4510(3)
O29 O 1.3966(5) 0.5292(4) 0.5498(3)
O30 O 1.3127(5) 0.5869(4) 0.6604(3)
O31 O 0.6753(5) 0.4939(4) 0.8747(3)
O32 O 0.4280(5) 0.6593(4) 0.9253(3)
O33 O 0.3481(5) 0.1655(4) 0.8615(3)
O34 O 0.5771(5) 0.1619(4) 0.9309(3)
O35 O 0.6353(5) 0.8739(4) 0.7144(3)
O36 O 0.7895(5) 1.0308(4) 0.7576(4)
O37 O 0.9283(5) 0.1598(4) 0.5754(3)
O38 O 0.7059(5) 0.1686(4) 0.4987(3)
O39 O 0.8854(5) 0.5055(4) 0.6495(3)
O40 O 0.8583(5) 0.6604(4) 0.4925(3)
C1 C 0.2497(7) 0.4593(6) 0.9455(5)
H1 H 0.2178 0.4206 0.9915
H2 H 0.2324 0.5258 0.9576
C2 C 0.1958(7) 0.4474(6) 0.8850(5)
C3 C 0.4864(7) 0.7413(5) 0.6854(5)
H3 H 0.5216 0.7984 0.6785
H4 H 0.4645 0.7378 0.6400
C4 C 0.3825(7) 0.7503(6) 0.7522(5)
C5 C 0.5068(6) 0.8540(5) 0.8986(4)
H5 H 0.4969 0.8375 0.8519
H6 H 0.4487 0.8297 0.9412
C6 C 0.4935(7) 0.9580(6) 0.8986(4)
C7 C 0.4763(7) 0.2366(5) 0.6689(5)
H7 H 0.4834 0.2153 0.6195
H8 H 0.4054 0.2209 0.7039
C8 C 0.4732(7) 0.3429(6) 0.6619(5)
C9 C 0.8502(7) 0.8565(5) 0.5503(5)
H9 H 0.8865 0.8332 0.5001
H10 H 0.7748 0.8385 0.5686
C10 C 0.8406(7) 0.9611(5) 0.5449(4)
C11 C 1.1985(6) 0.5403(6) 0.5971(5)
H11 H 1.1395 0.5777 0.6345
H12 H 1.1896 0.4734 0.6100
C12 C 1.3105(7) 0.5529(5) 0.6024(4)
O41 O 0.2071(7) 0.3241(6) 0.7414(5)
O42 O 0.0389(7) 0.5093(5) 0.7745(4)
O43 O -0.1193(8) 0.3952(7) 0.8953(6)
O44 O 0.0369(8) 0.2159(6) 0.8555(6)
O45 O -0.0259(13) 0.3433(7) 0.7292(8)
O46 O 0.5483(5) 0.6608(4) 0.5147(3)
U1A U 0.44747(2) 0.422544(19) 1.102540(15)
U2A U 0.53863(2) 0.835370(19) 1.102760(15)
U2_2 U 0.46137(2) 1.164630(19) 0.897240(15)
U3_2 U 0.71362(2) -0.051321(19) 0.736537(15)
U4A U 1.18149(2) 0.83431(2) 0.464000(15)
U4_2 U 0.81851(2) 1.16569(2) 0.536000(15)
U5A U 1.13028(2) 0.416495(19) 0.427565(15)
Mn2_2 Mn 1.38122(10) 0.52975(8) 0.75182(6)
Mn3A Mn 1.43715(9) 0.48159(8) 0.43087(6)
Mn3_2 Mn 1.56285(9) 0.51841(8) 0.56913(6)
O2A O 0.5535(5) 0.5511(4) 1.0256(3)
O13A O 0.3445(4) 0.1776(3) 1.0175(3)
O14_2 O 0.4221(5) 0.0026(4) 0.9499(3)
O15_2 O 0.5581(5) 0.0041(4) 0.8455(3)
O18_2 O 0.5864(5) 1.0707(4) 0.7012(3)
O23A O 0.9481(4) 0.1782(3) 0.4190(3)
O24_2 O 0.8817(5) 0.0072(4) 0.4863(3)
O25_2 O 0.7885(5) 0.0053(4) 0.6047(3)
O26A O 0.8057(5) 0.3248(4) 0.5134(3)
O27A O 0.9347(4) 0.4480(4) 0.4893(3)
O28A O 0.7398(4) 0.4940(4) 0.5490(3)
O29A O 0.6034(5) 0.4708(4) 0.4502(3)
O29_2 O 0.3966(5) 0.5292(4) 0.5498(3)
O30_2 O 0.3127(5) 0.5869(4) 0.6604(3)
Mn4 Mn -0.02315(13) 0.19063(12) 1.09698(9)
O47 O -0.0185(8) 0.2671(7) 1.1846(5)
O48 O -0.0360(8) 0.1193(7) 1.0060(5)
O49 O -0.1730(6) 0.2854(6) 1.0882(5)
O50 O 0.1109(7) 0.0797(6) 1.1125(5)
O51 O 0.1137(6) 0.2570(6) 1.0166(4)
O52 O -0.1315(6) 0.1013(6) 1.1830(5)
O53 O 0.1839(10) 0.0625(9) 0.8512(10)
O54 O 0.8623(6) 0.6466(5) 0.7845(4)
O55 O 0.2440(9) 0.7385(9) 1.0421(6)
O56 O 0.2749(11) 0.2635(9) 0.5978(7)
O57 O 0.3823(7) 0.0066(6) 0.7307(7)
O58 O 1.1728(7) 0.7616(6) 0.6883(4)
loop_
_geom_bond_atom_site_label_1
_geom_bond_atom_site_label_2
_geom_bond_site_symmetry_1
_geom_bond_site_symmetry_2
U1 O2 1_555 1_555
U2 O1 1_555 1_555
U3 O12 1_555 1_555
U4 O16 1_555 1_555
U5 O7 1_555 1_555
Mn1 O5 1_555 1_555
Mn2 O3 1_555 1_555
Mn3 O8 1_555 1_555
P1 O1 1_555 1_555
P2 O6 1_555 1_555
P3 O11 1_555 1_555
P4 O16 1_555 1_555
P5 O21 1_555 1_555
P6 O26 1_555 1_555
O2 P1 1_555 1_555
O3 U1 1_555 1_555
O4 Mn2 1_555 1_555
O5 C2 1_555 1_555
O6 U1 1_555 1_555
O7 P2 1_555 1_555
O8 Mn2 1_555 1_555
O9 C4 1_555 1_555
O10 Mn2 1_555 1_555
O11 U1 1_555 1_555
O12 P3 1_555 1_555
O13 P3 1_555 1_555
O14 C6 1_555 1_555
O15 U3 1_555 1_555
O17 U2 1_555 1_555
O18 P4 1_555 1_555
O19 Mn3 1_555 1_555
O20 Mn2 1_555 1_555
O21 U5 1_555 1_555
O22 U3 1_555 1_555
O23 P5 1_555 1_555
O24 C10 1_555 1_555
O25 U3 1_555 1_555
O26 U4A 1_555 1_555
O27 U5 1_555 1_555
O28 P6 1_555 1_555
O29 C12 1_555 1_555
O30 C12 1_555 1_555
O31 U1 1_555 1_555
O32 U1 1_555 1_555
O33 U2 1_555 1_555
O34 U2 1_555 1_555
O35 U3 1_555 1_555
O36 U3 1_555 1_555
O37 U4 1_555 1_555
O38 U4 1_555 1_555
O39 U5 1_555 1_555
O40 U5 1_555 1_555
C1 P1 1_555 1_555
H1 C1 1_555 1_555
H2 C1 1_555 1_555
C2 O4 1_555 1_555
C3 P2 1_555 1_555
H3 C3 1_555 1_555
H4 C3 1_555 1_555
C4 O10 1_555 1_555
C5 P3 1_555 1_555
H5 C5 1_555 1_555
H6 C5 1_555 1_555
C6 O15 1_555 1_555
C7 P4 1_555 1_555
H7 C7 1_555 1_555
H8 C7 1_555 1_555
C8 O19 1_555 1_555
C9 P5 1_555 1_555
H9 C9 1_555 1_555
H10 C9 1_555 1_555
C10 O25 1_555 1_555
C11 P6 1_555 1_555
H11 C11 1_555 1_555
H12 C11 1_555 1_555
C12 C11 1_555 1_555
O41 Mn1 1_555 1_555
O42 Mn1 1_555 1_555
O43 Mn1 1_555 1_555
O44 Mn1 1_555 1_555
O45 Mn1 1_555 1_555
O46 Mn3 1_555 1_555
Mn4 O47 1_555 1_555
O48 Mn4 1_555 1_555
O49 Mn4 1_555 1_555
O50 Mn4 1_555 1_555
O51 Mn4 1_555 1_555
O52 Mn4 1_555 1_555
U1A O2 1_555 1_555
U2A O13 1_555 1_555
U2_2 O14 1_555 1_555
U3_2 O18 1_555 1_555
U4A O23 1_555 1_555
U4_2 O24 1_555 1_555
U5A O27 1_555 1_555
Mn2_2 O30 1_555 1_555
Mn3A O28 1_555 1_555
Mn3_2 O29 1_555 1_555
O2A U1 1_555 1_555
O13A U2 1_555 1_555
O14_2 U2 1_555 1_555
O15_2 U2 1_555 1_555
O18_2 U3 1_555 1_555
O23A U4 1_555 1_555
O24_2 U4 1_555 1_555
O25_2 U4 1_555 1_555
O26A U4 1_555 1_555
O27A U5 1_555 1_555
O28A U5 1_555 1_555
O29A Mn3 1_555 1_555
O29_2 Mn3 1_555 1_555
O30_2 Mn2 1_555 1_555
Mn3 O28A 1_555 1_555
P1 O3 1_555 1_555
P2 O8 1_555 1_555
P4 O17 1_555 1_555
P5 O22 1_555 1_555
P6 O27 1_555 1_555
O15 U2_2 1_555 1_555
O20 C8 1_555 1_555
O25 U4_2 1_555 1_555
O28 U5A 1_555 1_555
O29 Mn3A 1_555 1_555
C1 C2 1_555 1_555
C3 C4 1_555 1_555
C5 C6 1_555 1_555
C7 C8 1_555 1_555
C9 C10 1_555 1_555
U1A O2A 1_555 1_555
U3_2 O15_2 1_555 1_555
U3_2 O25_2 1_555 1_555
U5A O27A 1_555 1_555

#END
