
#######################################################################
#
#                 Cambridge Crystallographic Data Centre
#                                CCDC 
#
#######################################################################
#
# If this CIF has been generated from an entry in the Cambridge 
# Structural Database, then it will include bibliographic, chemical, 
# crystal, experimental, refinement or atomic coordinate data resulting 
# from the CCDC's data processing and validation procedures.
#
#######################################################################

data_LAFRAN01
_chemical_formula_moiety         '(C160 H104 Co6 N60 O1 S12)n'
_symmetry_cell_setting           cubic
_symmetry_space_group_name_H-M   'F d -3 c'
_symmetry_Int_Tables_number      228
_space_group_name_Hall           '-F 4ud 2vw 3'
loop_
_symmetry_equiv_pos_site_id
_symmetry_equiv_pos_as_xyz
1 x,y,z
2 1/4-x,3/4-y,1/2+z
3 3/4-x,1/2+y,1/4-z
4 1/2+x,1/4-y,3/4-z
5 z,x,y
6 1/2+z,1/4-x,3/4-y
7 1/4-z,3/4-x,1/2+y
8 3/4-z,1/2+x,1/4-y
9 y,z,x
10 3/4-y,1/2+z,1/4-x
11 1/2+y,1/4-z,3/4-x
12 1/4-y,3/4-z,1/2+x
13 3/4+y,1/4+x,-z
14 1/2-y,1/2-x,1/2-z
15 1/4+y,-x,3/4+z
16 -y,3/4+x,1/4+z
17 3/4+x,1/4+z,-y
18 -x,3/4+z,1/4+y
19 1/2-x,1/2-z,1/2-y
20 1/4+x,-z,3/4+y
21 3/4+z,1/4+y,-x
22 1/4+z,-y,3/4+x
23 -z,3/4+y,1/4+x
24 1/2-z,1/2-y,1/2-x
25 x,1/2+y,1/2+z
26 1/4-x,1/4-y,z
27 3/4-x,y,3/4-z
28 1/2+x,3/4-y,1/4-z
29 z,1/2+x,1/2+y
30 1/2+z,3/4-x,1/4-y
31 1/4-z,1/4-x,y
32 3/4-z,x,3/4-y
33 y,1/2+z,1/2+x
34 3/4-y,z,3/4-x
35 1/2+y,3/4-z,1/4-x
36 1/4-y,1/4-z,x
37 3/4+y,3/4+x,1/2-z
38 1/2-y,-x,-z
39 1/4+y,1/2-x,1/4+z
40 -y,1/4+x,3/4+z
41 3/4+x,3/4+z,1/2-y
42 -x,1/4+z,3/4+y
43 1/2-x,-z,-y
44 1/4+x,1/2-z,1/4+y
45 3/4+z,3/4+y,1/2-x
46 1/4+z,1/2-y,1/4+x
47 -z,1/4+y,3/4+x
48 1/2-z,-y,-x
49 1/2+x,y,1/2+z
50 3/4-x,3/4-y,z
51 1/4-x,1/2+y,3/4-z
52 x,1/4-y,1/4-z
53 1/2+z,x,1/2+y
54 z,1/4-x,1/4-y
55 3/4-z,3/4-x,y
56 1/4-z,1/2+x,3/4-y
57 1/2+y,z,1/2+x
58 1/4-y,1/2+z,3/4-x
59 y,1/4-z,1/4-x
60 3/4-y,3/4-z,x
61 1/4+y,1/4+x,1/2-z
62 -y,1/2-x,-z
63 3/4+y,-x,1/4+z
64 1/2-y,3/4+x,3/4+z
65 1/4+x,1/4+z,1/2-y
66 1/2-x,3/4+z,3/4+y
67 -x,1/2-z,-y
68 3/4+x,-z,1/4+y
69 1/4+z,1/4+y,1/2-x
70 3/4+z,-y,1/4+x
71 1/2-z,3/4+y,3/4+x
72 -z,1/2-y,-x
73 1/2+x,1/2+y,z
74 3/4-x,1/4-y,1/2+z
75 1/4-x,y,1/4-z
76 x,3/4-y,3/4-z
77 1/2+z,1/2+x,y
78 z,3/4-x,3/4-y
79 3/4-z,1/4-x,1/2+y
80 1/4-z,x,1/4-y
81 1/2+y,1/2+z,x
82 1/4-y,z,1/4-x
83 y,3/4-z,3/4-x
84 3/4-y,1/4-z,1/2+x
85 1/4+y,3/4+x,-z
86 -y,-x,1/2-z
87 3/4+y,1/2-x,3/4+z
88 1/2-y,1/4+x,1/4+z
89 1/4+x,3/4+z,-y
90 1/2-x,1/4+z,1/4+y
91 -x,-z,1/2-y
92 3/4+x,1/2-z,3/4+y
93 1/4+z,3/4+y,-x
94 3/4+z,1/2-y,3/4+x
95 1/2-z,1/4+y,1/4+x
96 -z,-y,1/2-x
97 -x,-y,-z
98 3/4+x,1/4+y,1/2-z
99 1/4+x,1/2-y,3/4+z
100 1/2-x,3/4+y,1/4+z
101 -z,-x,-y
102 1/2-z,3/4+x,1/4+y
103 3/4+z,1/4+x,1/2-y
104 1/4+z,1/2-x,3/4+y
105 -y,-z,-x
106 1/4+y,1/2-z,3/4+x
107 1/2-y,3/4+z,1/4+x
108 3/4+y,1/4+z,1/2-x
109 1/4-y,3/4-x,z
110 1/2+y,1/2+x,1/2+z
111 3/4-y,x,1/4-z
112 y,1/4-x,3/4-z
113 1/4-x,3/4-z,y
114 x,1/4-z,3/4-y
115 1/2+x,1/2+z,1/2+y
116 3/4-x,z,1/4-y
117 1/4-z,3/4-y,x
118 3/4-z,y,1/4-x
119 z,1/4-y,3/4-x
120 1/2+z,1/2+y,1/2+x
121 -x,1/2-y,1/2-z
122 3/4+x,3/4+y,-z
123 1/4+x,-y,1/4+z
124 1/2-x,1/4+y,3/4+z
125 -z,1/2-x,1/2-y
126 1/2-z,1/4+x,3/4+y
127 3/4+z,3/4+x,-y
128 1/4+z,-x,1/4+y
129 -y,1/2-z,1/2-x
130 1/4+y,-z,1/4+x
131 1/2-y,1/4+z,3/4+x
132 3/4+y,3/4+z,-x
133 1/4-y,1/4-x,1/2+z
134 1/2+y,x,z
135 3/4-y,1/2+x,3/4-z
136 y,3/4-x,1/4-z
137 1/4-x,1/4-z,1/2+y
138 x,3/4-z,1/4-y
139 1/2+x,z,y
140 3/4-x,1/2+z,3/4-y
141 1/4-z,1/4-y,1/2+x
142 3/4-z,1/2+y,3/4-x
143 z,3/4-y,1/4-x
144 1/2+z,y,x
145 1/2-x,-y,1/2-z
146 1/4+x,1/4+y,-z
147 3/4+x,1/2-y,1/4+z
148 -x,3/4+y,3/4+z
149 1/2-z,-x,1/2-y
150 -z,3/4+x,3/4+y
151 1/4+z,1/4+x,-y
152 3/4+z,1/2-x,1/4+y
153 1/2-y,-z,1/2-x
154 3/4+y,1/2-z,1/4+x
155 -y,3/4+z,3/4+x
156 1/4+y,1/4+z,-x
157 3/4-y,3/4-x,1/2+z
158 y,1/2+x,z
159 1/4-y,x,3/4-z
160 1/2+y,1/4-x,1/4-z
161 3/4-x,3/4-z,1/2+y
162 1/2+x,1/4-z,1/4-y
163 x,1/2+z,y
164 1/4-x,z,3/4-y
165 3/4-z,3/4-y,1/2+x
166 1/4-z,y,3/4-x
167 1/2+z,1/4-y,1/4-x
168 z,1/2+y,x
169 1/2-x,1/2-y,-z
170 1/4+x,3/4+y,1/2-z
171 3/4+x,-y,3/4+z
172 -x,1/4+y,1/4+z
173 1/2-z,1/2-x,-y
174 -z,1/4+x,1/4+y
175 1/4+z,3/4+x,1/2-y
176 3/4+z,-x,3/4+y
177 1/2-y,1/2-z,-x
178 3/4+y,-z,3/4+x
179 -y,1/4+z,1/4+x
180 1/4+y,3/4+z,1/2-x
181 3/4-y,1/4-x,z
182 y,x,1/2+z
183 1/4-y,1/2+x,1/4-z
184 1/2+y,3/4-x,3/4-z
185 3/4-x,1/4-z,y
186 1/2+x,3/4-z,3/4-y
187 x,z,1/2+y
188 1/4-x,1/2+z,1/4-y
189 3/4-z,1/4-y,x
190 1/4-z,1/2+y,1/4-x
191 1/2+z,3/4-y,3/4-x
192 z,y,1/2+x
_cell_length_a                   63.8953(10)
_cell_length_b                   63.8953(10)
_cell_length_c                   63.8953(10)
_cell_angle_alpha                90
_cell_angle_beta                 90
_cell_angle_gamma                90
_cell_volume                     260860
loop_
_atom_site_label
_atom_site_type_symbol
_atom_site_fract_x
_atom_site_fract_y
_atom_site_fract_z
_atom_site_U_iso_or_equiv
_atom_site_thermal_displace_type
O1 O 0.4027(3) 0.6124(3) 0.1566(3) 0.1323 Uani
C1 C 0.3840(3) 0.6179(3) 0.1668(3) 0.1090 Uani
H1 H 0.3803 0.6070 0.1771 0.1310 Uiso
H2 H 0.3725 0.6187 0.1564 0.1310 Uiso
C2 C 0.3859(4) 0.6376(4) 0.1773(3) 0.1160 Uani
H3 H 0.3809 0.6365 0.1919 0.1390 Uiso
H4 H 0.3776 0.6485 0.1700 0.1390 Uiso
C3 C 0.4080(4) 0.6429(3) 0.1767(5) 0.1503 Uani
H5 H 0.4149 0.6394 0.1902 0.1810 Uiso
H6 H 0.4101 0.6580 0.1739 0.1810 Uiso
C4 C 0.4163(4) 0.6300(5) 0.1595(5) 0.1507 Uani
H7 H 0.4171 0.6384 0.1465 0.1820 Uiso
H8 H 0.4306 0.6251 0.1629 0.1820 Uiso
Co1 Co 0.371824(13) 0.5000 0.121824(13) 0.0260 Uani
Co2 Co 0.497905(15) 0.6250 0.1250 0.0305 Uani
C5 C 0.40972(7) 0.60258(8) 0.21989(7) 0.0330 Uani
H9 H 0.3976 0.5944 0.2173 0.0400 Uiso
C6 C 0.42742(8) 0.59914(9) 0.20750(8) 0.0387 Uani
C7 C 0.44523(9) 0.61072(11) 0.21138(10) 0.0593 Uani
H10 H 0.4574 0.6092 0.2030 0.0710 Uiso
C8 C 0.44486(10) 0.62482(12) 0.22810(11) 0.0667 Uani
H11 H 0.4571 0.6324 0.2318 0.0800 Uiso
C9 C 0.42686(9) 0.62758(10) 0.23907(9) 0.0497 Uani
H12 H 0.4268 0.6376 0.2501 0.0590 Uiso
C10 C 0.39774(8) 0.53338(7) 0.09533(8) 0.0350 Uani
C11 C 0.36148(10) 0.51321(9) 0.16843(10) 0.0533 Uani
H13 H 0.3506 0.5032 0.1671 0.0640 Uiso
C12 C 0.36260(12) 0.52462(11) 0.18666(10) 0.0653 Uani
H14 H 0.3531 0.5220 0.1978 0.0780 Uiso
C13 C 0.37779(9) 0.54007(10) 0.18858(9) 0.0513 Uani
H15 H 0.3784 0.5487 0.2007 0.0620 Uiso
C14 C 0.39210(8) 0.54249(8) 0.17226(8) 0.0347 Uani
C15 C 0.39026(8) 0.53001(7) 0.15472(7) 0.0327 Uani
H16 H 0.4002 0.5317 0.1438 0.0390 Uiso
C16 C 0.40868(7) 0.55877(7) 0.17282(7) 0.0323 Uani
C17 C 0.42567(7) 0.58461(8) 0.18970(8) 0.0350 Uani
C18 C 0.43511(7) 0.57589(8) 0.15684(8) 0.0370 Uani
C19 C 0.46232(7) 0.59601(8) 0.13822(8) 0.0360 Uani
H17 H 0.4637 0.6042 0.1506 0.0430 Uiso
C20 C 0.44779(8) 0.57952(9) 0.13815(9) 0.0447 Uani
C21 C 0.44589(11) 0.56735(12) 0.12040(10) 0.0627 Uani
H18 H 0.4360 0.5562 0.1197 0.0750 Uiso
C22 C 0.45891(12) 0.57192(13) 0.10358(11) 0.0753 Uani
H19 H 0.4584 0.5636 0.0913 0.0900 Uiso
C23 C 0.47254(11) 0.58860(11) 0.10489(10) 0.0627 Uani
H20 H 0.4811 0.5916 0.0931 0.0750 Uiso
C24 C 0.51763(9) 0.58301(9) 0.13862(10) 0.0517 Uani
H21 H 0.5070 0.5841 0.1489 0.0620 Uiso
C25 C 0.52940(11) 0.56540(11) 0.13834(12) 0.0687 Uani
H22 H 0.5269 0.5545 0.1481 0.0830 Uiso
C26 C 0.54530(11) 0.56360(11) 0.12333(11) 0.0660 Uani
H23 H 0.5541 0.5516 0.1229 0.0790 Uiso
C27 C 0.54783(9) 0.57984(9) 0.10924(10) 0.0473 Uani
C28 C 0.53502(8) 0.59731(8) 0.11085(9) 0.0403 Uani
H24 H 0.5370 0.6085 0.1013 0.0480 Uiso
C29 C 0.56441(9) 0.57908(9) 0.09302(9) 0.0490 Uani
C30 C 0.50059(8) 0.62611(11) 0.07478(11) 0.0553 Uani
N1 N 0.40904(6) 0.61692(6) 0.23525(6) 0.0333 Uani
N2 N 0.38715(6) 0.52446(6) 0.10699(6) 0.0308 Uani
N3 N 0.37497(6) 0.51551(6) 0.15242(6) 0.0353 Uani
N4 N 0.42040(6) 0.56091(6) 0.15582(7) 0.0373 Uani
N5 N 0.41034(6) 0.57025(6) 0.19029(6) 0.0357 Uani
N6 N 0.43887(6) 0.58763(7) 0.17387(7) 0.0403 Uani
N7 N 0.47432(7) 0.60075(7) 0.12185(7) 0.0410 Uani
N8 N 0.49881(6) 0.62676(7) 0.09238(7) 0.0367 Uani
N9 N 0.52009(7) 0.59897(7) 0.12524(7) 0.0390 Uani
N10 N 0.57831(7) 0.56397(7) 0.09428(7) 0.0470 Uani
S1 S 0.41304(3) 0.54463(3) 0.07812(3) 0.0650 Uani
S2 S 0.50216(4) 0.62346(8) 0.04928(4) 0.1515 Uani
C24FA C 0.58301(9) 0.63862(10) 0.01763(9) 0.0517 Uani
H21FA H 0.5841 0.6489 0.0070 0.0620 Uiso
C25FA C 0.56540(11) 0.63834(12) 0.02940(11) 0.0687 Uani
H22FA H 0.5545 0.6481 0.0269 0.0830 Uiso
C26FA C 0.56360(11) 0.62333(11) 0.04530(11) 0.0660 Uani
H23FA H 0.5516 0.6229 0.0541 0.0790 Uiso
C27FA C 0.57984(9) 0.60924(10) 0.04783(9) 0.0473 Uani
C28FA C 0.59731(8) 0.61085(9) 0.03502(8) 0.0403 Uani
H24FA H 0.6085 0.6013 0.0370 0.0480 Uiso
C29FA C 0.57908(9) 0.59302(9) 0.06441(9) 0.0490 Uani
N9FA N 0.59897(7) 0.62524(7) 0.02009(7) 0.0390 Uani
N10FA N 0.56397(7) 0.59428(7) 0.07831(7) 0.0470 Uani
C24ZA C 0.63862(10) 0.51763(9) 0.08301(9) 0.0517 Uani
H21ZA H 0.6489 0.5070 0.0841 0.0620 Uiso
C25ZA C 0.63834(12) 0.52940(11) 0.06540(11) 0.0687 Uani
H22ZA H 0.6481 0.5269 0.0545 0.0830 Uiso
C26ZA C 0.62333(11) 0.54530(11) 0.06360(11) 0.0660 Uani
H23ZA H 0.6229 0.5541 0.0516 0.0790 Uiso
C27ZA C 0.60924(10) 0.54783(9) 0.07984(9) 0.0473 Uani
C28ZA C 0.61085(9) 0.53502(8) 0.09731(8) 0.0403 Uani
H24ZA H 0.6013 0.5370 0.1085 0.0480 Uiso
C29ZA C 0.59302(9) 0.56441(9) 0.07908(9) 0.0490 Uani
N9ZA N 0.62524(7) 0.52009(7) 0.09897(7) 0.0390 Uani
N10ZA N 0.59428(7) 0.57831(7) 0.06397(7) 0.0470 Uani
Co2E Co 0.6250 0.752095(15) 0.1250 0.0305 Uani
C5E C 0.71989(7) 0.84028(7) 0.14742(8) 0.0330 Uani
H9E H 0.7173 0.8524 0.1556 0.0400 Uiso
C6E C 0.70750(8) 0.82258(8) 0.15086(9) 0.0387 Uani
C7E C 0.71138(10) 0.80477(9) 0.13928(11) 0.0593 Uani
H10E H 0.7030 0.7926 0.1408 0.0710 Uiso
C8E C 0.72810(11) 0.80514(10) 0.12518(12) 0.0667 Uani
H11E H 0.7318 0.7929 0.1176 0.0800 Uiso
C9E C 0.73907(9) 0.82314(9) 0.12242(10) 0.0497 Uani
H12E H 0.7501 0.8232 0.1124 0.0590 Uiso
C11E C 0.66843(10) 0.88852(10) 0.23679(9) 0.0533 Uani
H13E H 0.6671 0.8994 0.2468 0.0640 Uiso
C12E C 0.68666(10) 0.88740(12) 0.22538(11) 0.0653 Uani
H14E H 0.6978 0.8969 0.2280 0.0780 Uiso
C13E C 0.68858(9) 0.87221(9) 0.20993(10) 0.0513 Uani
H15E H 0.7007 0.8716 0.2013 0.0620 Uiso
C14E C 0.67226(8) 0.85790(8) 0.20751(8) 0.0347 Uani
C15E C 0.65472(7) 0.85974(8) 0.21999(7) 0.0327 Uani
H16E H 0.6438 0.8498 0.2183 0.0390 Uiso
C16E C 0.67282(7) 0.84132(7) 0.19123(7) 0.0323 Uani
C17E C 0.68970(8) 0.82433(7) 0.16539(8) 0.0350 Uani
C18E C 0.65684(8) 0.81489(7) 0.17411(8) 0.0370 Uani
C19E C 0.63822(8) 0.78768(7) 0.15399(8) 0.0360 Uani
H17E H 0.6506 0.7863 0.1458 0.0430 Uiso
C20E C 0.63815(9) 0.80221(8) 0.17048(9) 0.0447 Uani
C21E C 0.62040(10) 0.80411(11) 0.18265(12) 0.0627 Uani
H18E H 0.6197 0.8140 0.1938 0.0750 Uiso
C22E C 0.60358(11) 0.79109(12) 0.17808(13) 0.0753 Uani
H19E H 0.5913 0.7916 0.1864 0.0900 Uiso
C23E C 0.60489(10) 0.77746(11) 0.16140(11) 0.0627 Uani
H20E H 0.5931 0.7689 0.1584 0.0750 Uiso
C24E C 0.63862(10) 0.73237(9) 0.16699(9) 0.0517 Uani
H21E H 0.6489 0.7430 0.1659 0.0620 Uiso
C25E C 0.63834(12) 0.72060(11) 0.18460(11) 0.0687 Uani
H22E H 0.6481 0.7231 0.1955 0.0830 Uiso
C26E C 0.62333(11) 0.70470(11) 0.18640(11) 0.0660 Uani
H23E H 0.6229 0.6959 0.1984 0.0790 Uiso
C27E C 0.60924(10) 0.70217(9) 0.17016(9) 0.0473 Uani
C28E C 0.61085(9) 0.71498(8) 0.15269(8) 0.0403 Uani
H24E H 0.6013 0.7130 0.1415 0.0480 Uiso
C29E C 0.59302(9) 0.68559(9) 0.17092(9) 0.0490 Uani
C30E C 0.57478(11) 0.74941(8) 0.12389(11) 0.0553 Uani
N1E N 0.73525(6) 0.84096(6) 0.13308(6) 0.0333 Uani
N3E N 0.65242(6) 0.87503(6) 0.23449(6) 0.0353 Uani
N4E N 0.65582(7) 0.82960(6) 0.18909(6) 0.0373 Uani
N5E N 0.69029(6) 0.83966(6) 0.17975(6) 0.0357 Uani
N6E N 0.67387(7) 0.81113(6) 0.16237(7) 0.0403 Uani
N7E N 0.62185(7) 0.77568(7) 0.14925(7) 0.0410 Uani
N8E N 0.59238(7) 0.75119(6) 0.12324(7) 0.0367 Uani
N9E N 0.62524(7) 0.72991(7) 0.15103(7) 0.0390 Uani
N10E N 0.59428(7) 0.67169(7) 0.18603(7) 0.0470 Uani
S2E S 0.54928(4) 0.74784(4) 0.12654(8) 0.1515 Uani
C24YA C 0.51763(9) 0.66699(9) 0.11138(10) 0.0517 Uani
H21YA H 0.5070 0.6659 0.1011 0.0620 Uiso
C25YA C 0.52940(11) 0.68460(11) 0.11166(12) 0.0687 Uani
H22YA H 0.5269 0.6955 0.1019 0.0830 Uiso
C26YA C 0.54530(11) 0.68640(11) 0.12667(11) 0.0660 Uani
H23YA H 0.5541 0.6984 0.1271 0.0790 Uiso
C27YA C 0.54783(9) 0.67016(9) 0.14076(10) 0.0473 Uani
C28YA C 0.53502(8) 0.65269(8) 0.13915(9) 0.0403 Uani
H24YA H 0.5370 0.6415 0.1487 0.0480 Uiso
C29YA C 0.56441(9) 0.67092(9) 0.15698(9) 0.0490 Uani
N9YA N 0.52009(7) 0.65103(7) 0.12476(7) 0.0390 Uani
N10YA N 0.57831(7) 0.68603(7) 0.15572(7) 0.0470 Uani
C24DC C 0.58301(9) 0.61138(10) 0.23237(9) 0.0517 Uani
H21DC H 0.5841 0.6011 0.2430 0.0620 Uiso
C25DC C 0.56540(11) 0.61166(12) 0.22060(11) 0.0687 Uani
H22DC H 0.5545 0.6019 0.2231 0.0830 Uiso
C26DC C 0.56360(11) 0.62667(11) 0.20470(11) 0.0660 Uani
H23DC H 0.5516 0.6271 0.1959 0.0790 Uiso
C27DC C 0.57984(9) 0.64076(10) 0.20217(9) 0.0473 Uani
C28DC C 0.59731(8) 0.63915(9) 0.21498(8) 0.0403 Uani
H24DC H 0.6085 0.6487 0.2130 0.0480 Uiso
C29DC C 0.57908(9) 0.65698(9) 0.18559(9) 0.0490 Uani
N9DC N 0.59897(7) 0.62476(7) 0.22991(7) 0.0390 Uani
N10DC N 0.56397(7) 0.65572(7) 0.17169(7) 0.0470 Uani
Co2K Co 0.6250 0.6250 -0.002095(15) 0.0305 Uani
C5K C 0.64742(8) 0.53011(7) -0.09028(7) 0.0330 Uani
H9K H 0.6556 0.5327 -0.1024 0.0400 Uiso
C6K C 0.65086(9) 0.54250(8) -0.07258(8) 0.0387 Uani
C7K C 0.63928(11) 0.53862(10) -0.05477(9) 0.0593 Uani
H10K H 0.6408 0.5470 -0.0426 0.0710 Uiso
C8K C 0.62518(12) 0.52190(11) -0.05514(10) 0.0667 Uani
H11K H 0.6176 0.5182 -0.0429 0.0800 Uiso
C9K C 0.62242(10) 0.51093(9) -0.07314(9) 0.0497 Uani
H12K H 0.6124 0.4999 -0.0732 0.0590 Uiso
C11K C 0.73679(9) 0.58157(10) -0.13852(10) 0.0533 Uani
H13K H 0.7468 0.5829 -0.1494 0.0640 Uiso
C12K C 0.72538(11) 0.56334(10) -0.13740(12) 0.0653 Uani
H14K H 0.7280 0.5522 -0.1469 0.0780 Uiso
C13K C 0.70993(10) 0.56142(9) -0.12221(9) 0.0513 Uani
H15K H 0.7013 0.5493 -0.1216 0.0620 Uiso
C14K C 0.70751(8) 0.57774(8) -0.10790(8) 0.0347 Uani
C15K C 0.71999(7) 0.59528(7) -0.10974(8) 0.0327 Uani
H16K H 0.7183 0.6062 -0.0998 0.0390 Uiso
C16K C 0.69123(7) 0.57718(7) -0.09132(7) 0.0323 Uani
C17K C 0.66539(8) 0.56030(8) -0.07433(7) 0.0350 Uani
C18K C 0.67411(8) 0.59316(8) -0.06489(7) 0.0370 Uani
C19K C 0.65399(8) 0.61178(8) -0.03768(7) 0.0360 Uani
H17K H 0.6458 0.5994 -0.0363 0.0430 Uiso
C20K C 0.67048(9) 0.61185(9) -0.05221(8) 0.0447 Uani
C21K C 0.68265(12) 0.62960(10) -0.05411(11) 0.0627 Uani
H18K H 0.6938 0.6303 -0.0640 0.0750 Uiso
C22K C 0.67808(13) 0.64642(11) -0.04109(12) 0.0753 Uani
H19K H 0.6864 0.6587 -0.0416 0.0900 Uiso
C23K C 0.66140(11) 0.64511(10) -0.02746(11) 0.0627 Uani
H20K H 0.6584 0.6569 -0.0189 0.0750 Uiso
C30K C 0.62389(11) 0.67522(11) 0.00059(8) 0.0553 Uani
N1K N 0.63308(6) 0.51475(6) -0.09096(6) 0.0333 Uani
N3K N 0.73449(6) 0.59758(6) -0.12503(6) 0.0353 Uani
N4K N 0.68909(6) 0.59418(7) -0.07960(6) 0.0373 Uani
N5K N 0.67975(6) 0.55971(6) -0.08966(6) 0.0357 Uani
N6K N 0.66237(7) 0.57613(7) -0.06113(6) 0.0403 Uani
N7K N 0.64925(7) 0.62815(7) -0.02568(7) 0.0410 Uani
N8K N 0.62324(7) 0.65762(7) -0.00119(6) 0.0367 Uani
S2K S 0.62654(8) 0.70072(4) 0.00216(4) 0.1515 Uani
C5FA C 0.60258(8) 0.71989(7) -0.09028(7) 0.0330 Uani
H9FA H 0.5944 0.7173 -0.1024 0.0400 Uiso
C6FA C 0.59914(9) 0.70750(8) -0.07258(8) 0.0387 Uani
C7FA C 0.61072(11) 0.71138(10) -0.05477(9) 0.0593 Uani
H10FA H 0.6092 0.7030 -0.0426 0.0710 Uiso
C8FA C 0.62482(12) 0.72810(11) -0.05514(10) 0.0667 Uani
H11FA H 0.6324 0.7318 -0.0429 0.0800 Uiso
C9FA C 0.62758(10) 0.73907(9) -0.07314(9) 0.0497 Uani
H12FA H 0.6376 0.7501 -0.0732 0.0590 Uiso
C11FA C 0.51321(9) 0.66843(10) -0.13852(10) 0.0533 Uani
H13FA H 0.5032 0.6671 -0.1494 0.0640 Uiso
C12FA C 0.52462(11) 0.68666(10) -0.13740(12) 0.0653 Uani
H14FA H 0.5220 0.6978 -0.1469 0.0780 Uiso
C13FA C 0.54007(10) 0.68858(9) -0.12221(9) 0.0513 Uani
H15FA H 0.5487 0.7007 -0.1216 0.0620 Uiso
C14FA C 0.54249(8) 0.67226(8) -0.10790(8) 0.0347 Uani
C15FA C 0.53001(7) 0.65472(7) -0.10974(8) 0.0327 Uani
H16FA H 0.5317 0.6438 -0.0998 0.0390 Uiso
C16FA C 0.55877(7) 0.67282(7) -0.09132(7) 0.0323 Uani
C17FA C 0.58461(8) 0.68970(8) -0.07433(7) 0.0350 Uani
C18FA C 0.57589(8) 0.65684(8) -0.06489(7) 0.0370 Uani
C19FA C 0.59601(8) 0.63822(8) -0.03768(7) 0.0360 Uani
H17FA H 0.6042 0.6506 -0.0363 0.0430 Uiso
C20FA C 0.57952(9) 0.63815(9) -0.05221(8) 0.0447 Uani
C21FA C 0.56735(12) 0.62040(10) -0.05411(11) 0.0627 Uani
H18FA H 0.5562 0.6197 -0.0640 0.0750 Uiso
C22FA C 0.57192(13) 0.60358(11) -0.04109(12) 0.0753 Uani
H19FA H 0.5636 0.5913 -0.0416 0.0900 Uiso
C23FA C 0.58860(11) 0.60489(10) -0.02746(11) 0.0627 Uani
H20FA H 0.5916 0.5931 -0.0189 0.0750 Uiso
C30FA C 0.62611(11) 0.57478(11) 0.00059(8) 0.0553 Uani
N1FA N 0.61692(6) 0.73525(6) -0.09096(6) 0.0333 Uani
N3FA N 0.51551(6) 0.65242(6) -0.12503(6) 0.0353 Uani
N4FA N 0.56091(6) 0.65582(7) -0.07960(6) 0.0373 Uani
N5FA N 0.57025(6) 0.69029(6) -0.08966(6) 0.0357 Uani
N6FA N 0.58763(7) 0.67387(7) -0.06113(6) 0.0403 Uani
N7FA N 0.60075(7) 0.62185(7) -0.02568(7) 0.0410 Uani
N8FA N 0.62676(7) 0.59238(7) -0.00119(6) 0.0367 Uani
S2FA S 0.62346(8) 0.54928(4) 0.00216(4) 0.1515 Uani
Co1RE Co 0.378176(13) 0.628176(13) 0.0000 0.0260 Uani
C5DF C 0.34028(7) 0.53011(7) 0.10258(8) 0.0330 Uani
H9DF H 0.3524 0.5327 0.0944 0.0400 Uiso
C6DF C 0.32258(8) 0.54250(8) 0.09914(9) 0.0387 Uani
C7DF C 0.30477(9) 0.53862(10) 0.11072(11) 0.0593 Uani
H10DF H 0.2926 0.5470 0.1092 0.0710 Uiso
C8DF C 0.30514(10) 0.52190(11) 0.12482(12) 0.0667 Uani
H11DF H 0.2929 0.5182 0.1324 0.0800 Uiso
C9DF C 0.32314(9) 0.51093(9) 0.12758(10) 0.0497 Uani
H12DF H 0.3232 0.4999 0.1376 0.0590 Uiso
C10DF C 0.35226(8) 0.65467(8) 0.03338(7) 0.0350 Uani
C11DF C 0.38852(10) 0.58157(10) 0.01321(9) 0.0533 Uani
H13DF H 0.3994 0.5829 0.0032 0.0640 Uiso
C12DF C 0.38740(12) 0.56334(10) 0.02462(11) 0.0653 Uani
H14DF H 0.3969 0.5522 0.0220 0.0780 Uiso
C13DF C 0.37221(9) 0.56142(9) 0.04007(10) 0.0513 Uani
H15DF H 0.3716 0.5493 0.0487 0.0620 Uiso
C14DF C 0.35790(8) 0.57774(8) 0.04249(8) 0.0347 Uani
C15DF C 0.35974(8) 0.59528(7) 0.03001(7) 0.0327 Uani
H16DF H 0.3498 0.6062 0.0317 0.0390 Uiso
C16DF C 0.34132(7) 0.57718(7) 0.05877(7) 0.0323 Uani
C17DF C 0.32433(7) 0.56030(8) 0.08461(8) 0.0350 Uani
C18DF C 0.31489(7) 0.59316(8) 0.07589(8) 0.0370 Uani
C19DF C 0.28768(7) 0.61178(8) 0.09601(8) 0.0360 Uani
H17DF H 0.2863 0.5994 0.1042 0.0430 Uiso
C20DF C 0.30221(8) 0.61185(9) 0.07952(9) 0.0447 Uani
C21DF C 0.30411(11) 0.62960(10) 0.06735(12) 0.0627 Uani
H18DF H 0.3140 0.6303 0.0562 0.0750 Uiso
C22DF C 0.29109(12) 0.64642(11) 0.07192(13) 0.0753 Uani
H19DF H 0.2916 0.6587 0.0636 0.0900 Uiso
C23DF C 0.27746(11) 0.64511(10) 0.08860(11) 0.0627 Uani
H20DF H 0.2689 0.6569 0.0916 0.0750 Uiso
N1DF N 0.34096(6) 0.51475(6) 0.11692(6) 0.0333 Uani
N2DF N 0.36285(6) 0.64301(6) 0.02446(6) 0.0308 Uani
N3DF N 0.37503(6) 0.59758(6) 0.01551(6) 0.0353 Uani
N4DF N 0.32960(6) 0.59418(7) 0.06091(6) 0.0373 Uani
N5DF N 0.33966(6) 0.55971(6) 0.07025(6) 0.0357 Uani
N6DF N 0.31113(6) 0.57613(7) 0.08763(7) 0.0403 Uani
N7DF N 0.27568(7) 0.62815(7) 0.10075(7) 0.0410 Uani
S1DF S 0.33696(3) 0.67188(3) 0.04463(3) 0.0650 Uani
C5CD C 0.35258(8) 0.46989(7) 0.09028(7) 0.0330 Uani
H9CD H 0.3444 0.4673 0.1024 0.0400 Uiso
C6CD C 0.34914(9) 0.45750(8) 0.07258(8) 0.0387 Uani
C7CD C 0.36072(11) 0.46138(10) 0.05477(9) 0.0593 Uani
H10CD H 0.3592 0.4530 0.0426 0.0710 Uiso
C8CD C 0.37482(12) 0.47810(11) 0.05514(10) 0.0667 Uani
H11CD H 0.3824 0.4818 0.0429 0.0800 Uiso
C9CD C 0.37758(10) 0.48907(9) 0.07314(9) 0.0497 Uani
H12CD H 0.3876 0.5001 0.0732 0.0590 Uiso
C11CD C 0.26321(9) 0.41843(10) 0.13852(10) 0.0533 Uani
H13CD H 0.2532 0.4171 0.1494 0.0640 Uiso
C12CD C 0.27462(11) 0.43666(10) 0.13740(12) 0.0653 Uani
H14CD H 0.2720 0.4478 0.1469 0.0780 Uiso
C13CD C 0.29007(10) 0.43858(9) 0.12221(9) 0.0513 Uani
H15CD H 0.2987 0.4507 0.1216 0.0620 Uiso
C14CD C 0.29249(8) 0.42226(8) 0.10790(8) 0.0347 Uani
C15CD C 0.28001(7) 0.40472(7) 0.10974(8) 0.0327 Uani
H16CD H 0.2817 0.3938 0.0998 0.0390 Uiso
C16CD C 0.30877(7) 0.42282(7) 0.09132(7) 0.0323 Uani
C17CD C 0.33461(8) 0.43970(8) 0.07433(7) 0.0350 Uani
C18CD C 0.32589(8) 0.40684(8) 0.06489(7) 0.0370 Uani
C19CD C 0.34601(8) 0.38822(8) 0.03768(7) 0.0360 Uani
H17CD H 0.3542 0.4006 0.0363 0.0430 Uiso
C20CD C 0.32952(9) 0.38815(9) 0.05221(8) 0.0447 Uani
C21CD C 0.31735(12) 0.37040(10) 0.05411(11) 0.0627 Uani
H18CD H 0.3062 0.3697 0.0640 0.0750 Uiso
C22CD C 0.32192(13) 0.35358(11) 0.04109(12) 0.0753 Uani
H19CD H 0.3136 0.3413 0.0416 0.0900 Uiso
C23CD C 0.33860(11) 0.35489(10) 0.02746(11) 0.0627 Uani
H20CD H 0.3416 0.3431 0.0189 0.0750 Uiso
N1CD N 0.36692(6) 0.48525(6) 0.09096(6) 0.0333 Uani
N3CD N 0.26551(6) 0.40242(6) 0.12503(6) 0.0353 Uani
N4CD N 0.31091(6) 0.40582(7) 0.07960(6) 0.0373 Uani
N5CD N 0.32025(6) 0.44029(6) 0.08966(6) 0.0357 Uani
N6CD N 0.33763(7) 0.42387(7) 0.06113(6) 0.0403 Uani
N7CD N 0.35075(7) 0.37185(7) 0.02568(7) 0.0410 Uani
C10U C 0.34533(8) 0.46662(7) 0.14774(8) 0.0350 Uani
N2U N 0.35699(6) 0.47554(6) 0.13715(6) 0.0308 Uani
S1U S 0.32812(3) 0.45537(3) 0.16304(3) 0.0650 Uani
C30YA C 0.50059(8) 0.62389(11) 0.17522(11) 0.0553 Uani
N8YA N 0.49881(6) 0.62324(7) 0.15762(7) 0.0367 Uani
S2YA S 0.50216(4) 0.62654(8) 0.20072(4) 0.1515 Uani
C30ZB C 0.67522(11) 0.74941(8) 0.12611(11) 0.0553 Uani
N8ZB N 0.65762(7) 0.75119(6) 0.12676(7) 0.0367 Uani
S2ZB S 0.70072(4) 0.74784(4) 0.12346(8) 0.1515 Uani
Co1UD Co 0.378176(13) 0.621824(13) 0.2500 0.0260 Uani
C10RE C 0.40467(8) 0.60226(8) -0.03338(7) 0.0350 Uani
N2RE N 0.39301(6) 0.61285(6) -0.02446(6) 0.0308 Uani
S1RE S 0.42188(3) 0.58696(3) -0.04463(3) 0.0650 Uani
C10IE C 0.35226(8) 0.59533(8) 0.21662(7) 0.0350 Uani
N2IE N 0.36285(6) 0.60699(6) 0.22554(6) 0.0308 Uani
S1IE S 0.33696(3) 0.57812(3) 0.20537(3) 0.0650 Uani
C10UD C 0.40467(8) 0.64774(8) 0.28338(7) 0.0350 Uani
N2UD N 0.39301(6) 0.63715(6) 0.27446(6) 0.0308 Uani
S1UD S 0.42188(3) 0.66304(3) 0.29463(3) 0.0650 Uani
Co1E Co 0.621824(13) 0.878176(13) 0.2500 0.0260 Uani
Co1K Co 0.7500 0.628176(13) -0.128176(13) 0.0260 Uani
Co1FA Co 0.5000 0.621824(13) -0.128176(13) 0.0260 Uani
Co1RC Co 0.628176(13) 0.5000 -0.121824(13) 0.0260 Uani
Co1CD Co 0.2500 0.371824(13) 0.128176(13) 0.0260 Uani
Co1OE Co 0.621824(13) 0.7500 -0.121824(13) 0.0260 Uani
Co1WF Co 0.7500 0.871824(13) 0.128176(13) 0.0260 Uani
Co2EA Co 0.6250 0.497905(15) 0.1250 0.0305 Uani
Co2EB Co 0.6250 0.6250 0.252095(15) 0.0305 Uani
Co2CD Co 0.3750 0.3750 0.002095(15) 0.0305 Uani
Co2IE Co 0.252095(15) 0.6250 0.1250 0.0305 Uani
N1MA N 0.38308(6) 0.65904(6) -0.01475(6) 0.0333 Uani
N1YA N 0.40904(6) 0.63308(6) 0.01475(6) 0.0333 Uani
N1GC N 0.38308(6) 0.59096(6) 0.26475(6) 0.0333 Uani
N3U N 0.40242(6) 0.48449(6) 0.12497(6) 0.0353 Uani
N3UD N 0.34758(6) 0.62497(6) 0.26551(6) 0.0353 Uani
N3IE N 0.37503(6) 0.65242(6) 0.23449(6) 0.0353 Uani
N3RE N 0.34758(6) 0.62503(6) -0.01551(6) 0.0353 Uani
N7YA N 0.47432(7) 0.64925(7) 0.12815(7) 0.0410 Uani
N7ZB N 0.62815(7) 0.77568(7) 0.10075(7) 0.0410 Uani
N9K N 0.65103(7) 0.62476(7) 0.02009(7) 0.0390 Uani
N9ZB N 0.62476(7) 0.72991(7) 0.09897(7) 0.0390 Uani
loop_
_atom_site_aniso_label
_atom_site_aniso_U_11
_atom_site_aniso_U_22
_atom_site_aniso_U_33
_atom_site_aniso_U_23
_atom_site_aniso_U_13
_atom_site_aniso_U_12
O1 0.141(13) 0.143(13) 0.113(13) -0.079(11) -0.001(11) 0.040(10)
C1 0.100(12) 0.121(13) 0.106(14) 0.048(10) -0.005(10) 0.019(10)
C2 0.159(16) 0.147(15) 0.042(9) 0.019(9) 0.020(10) 0.099(13)
C3 0.213(19) 0.058(11) 0.18(2) -0.022(11) 0.005(18) 0.007(13)
C4 0.150(17) 0.142(18) 0.16(2) 0.018(14) 0.087(17) 0.004(13)
Co1 0.0299(4) 0.0182(5) 0.0299(4) 0.0024(2) 0.0038(4) -0.0024(2)
Co2 0.0201(5) 0.0346(6) 0.0367(6) -0.0027(4) 0.000 0.000
C5 0.03 0.038 0.031 -0.0054 0.0061 -0.0102
C6 0.035 0.048 0.033 -0.011 0.004 -0.008
C7 0.044 0.077 0.057 -0.032 0.019 -0.03
C8 0.044 0.087 0.069 -0.045 0.02 -0.03
C9 0.044 0.058 0.047 -0.023 0.008 -0.018
C10 0.041(3) 0.028(2) 0.036(3) 0.004(2) -0.004(2) -0.005(2)
C11 0.061(4) 0.045(3) 0.054(3) -0.011(3) 0.019(3) -0.025(3)
C12 0.080(5) 0.068(4) 0.048(3) -0.016(3) 0.031(3) -0.041(4)
C13 0.059(4) 0.055(3) 0.040(3) -0.018(3) 0.017(3) -0.019(3)
C14 0.034(3) 0.034(2) 0.036(3) -0.007(2) 0.008(2) -0.006(2)
C15 0.037(3) 0.031(2) 0.030(2) -0.0003(19) 0.0061(19) -0.0046(19)
C16 0.033(2) 0.032(2) 0.032(2) -0.0060(19) 0.0030(19) -0.0040(19)
C17 0.024(2) 0.044(3) 0.037(3) -0.010(2) 0.0055(19) -0.003(2)
C18 0.026(2) 0.045(3) 0.040(3) -0.014(2) 0.007(2) -0.006(2)
C19 0.023(2) 0.048(3) 0.037(3) -0.013(2) 0.0079(19) -0.004(2)
C20 0.037(3) 0.054(3) 0.043(3) -0.022(2) 0.011(2) -0.014(2)
C21 0.064(4) 0.075(4) 0.049(3) -0.026(3) 0.021(3) -0.042(4)
C22 0.084(5) 0.093(5) 0.049(4) -0.038(4) 0.033(3) -0.045(4)
C23 0.067(4) 0.078(4) 0.043(3) -0.025(3) 0.025(3) -0.030(3)
C24 0.050(3) 0.045(3) 0.060(4) 0.016(3) 0.028(3) 0.006(3)
C25 0.069(4) 0.055(4) 0.082(5) 0.035(4) 0.043(4) 0.019(3)
C26 0.070(4) 0.053(4) 0.075(4) 0.030(3) 0.043(4) 0.030(3)
C27 0.043(3) 0.039(3) 0.060(4) 0.015(3) 0.022(3) 0.010(2)
C28 0.033(3) 0.037(3) 0.051(3) 0.012(2) 0.015(2) 0.006(2)
C29 0.048(3) 0.042(3) 0.057(3) 0.021(3) 0.023(3) 0.018(2)
C30 0.025(3) 0.095(5) 0.046(4) 0.005(3) 0.002(2) 0.016(3)
N1 0.037 0.035 0.028 -0.0084 0.0051 -0.0084
N2 0.031(2) 0.0225(18) 0.039(2) 0.0032(16) 0.0045(17) -0.0036(15)
N3 0.043(2) 0.029(2) 0.034(2) -0.0020(17) 0.0084(17) -0.0098(17)
N4 0.035(2) 0.036(2) 0.041(2) -0.0124(18) 0.0042(18) -0.0077(17)
N5 0.037(2) 0.036(2) 0.034(2) -0.0107(17) 0.0056(17) -0.0035(17)
N6 0.030(2) 0.050(3) 0.041(2) -0.020(2) 0.0080(17) -0.0092(18)
N7 0.031(2) 0.052(3) 0.040(2) -0.016(2) 0.0119(18) -0.0071(19)
N8 0.029(2) 0.043(2) 0.038(3) -0.0043(18) 0.0014(17) 0.0020(17)
N9 0.031(2) 0.042(2) 0.044(2) 0.0080(18) 0.0167(18) 0.0039(18)
N10 0.049(3) 0.044(2) 0.048(3) 0.018(2) 0.020(2) 0.020(2)
S1 0.0707(11) 0.0756(12) 0.0487(9) 0.0190(8) 0.0065(8) -0.0378(9)
S2 0.0591(13) 0.353(6) 0.0425(12) -0.0104(18) 0.0014(9) 0.067(2)
C24FA 0.045 0.06 0.05 0.028 0.006 0.016
C25FA 0.055 0.082 0.069 0.043 0.019 0.035
C26FA 0.053 0.075 0.07 0.043 0.03 0.03
C27FA 0.039 0.06 0.043 0.022 0.01 0.015
C28FA 0.037 0.051 0.033 0.015 0.006 0.012
C29FA 0.042 0.057 0.048 0.023 0.018 0.021
N9FA 0.042 0.044 0.031 0.0167 0.0039 0.008
N10FA 0.044 0.048 0.049 0.02 0.02 0.018
C24ZA 0.06 0.05 0.045 0.006 0.016 0.028
C25ZA 0.082 0.069 0.055 0.019 0.035 0.043
C26ZA 0.075 0.07 0.053 0.03 0.03 0.043
C27ZA 0.06 0.043 0.039 0.01 0.015 0.022
C28ZA 0.051 0.033 0.037 0.006 0.012 0.015
C29ZA 0.057 0.048 0.042 0.018 0.021 0.023
N9ZA 0.044 0.031 0.042 0.0039 0.008 0.0167
N10ZA 0.048 0.049 0.044 0.02 0.018 0.02
Co2E 0.0367 0.0201 0.0346 0 0.0027 0
C5E 0.031 0.03 0.038 -0.0102 0.0054 -0.0061
C6E 0.033 0.035 0.048 -0.008 0.011 -0.004
C7E 0.057 0.044 0.077 -0.03 0.032 -0.019
C8E 0.069 0.044 0.087 -0.03 0.045 -0.02
C9E 0.047 0.044 0.058 -0.018 0.023 -0.008
C11E 0.054 0.061 0.045 -0.025 0.011 -0.019
C12E 0.048 0.08 0.068 -0.041 0.016 -0.031
C13E 0.04 0.059 0.055 -0.019 0.018 -0.017
C14E 0.036 0.034 0.034 -0.006 0.007 -0.008
C15E 0.03 0.037 0.031 -0.0046 0.0003 -0.0061
C16E 0.032 0.033 0.032 -0.004 0.006 -0.003
C17E 0.037 0.024 0.044 -0.003 0.01 -0.0055
C18E 0.04 0.026 0.045 -0.006 0.014 -0.007
C19E 0.037 0.023 0.048 -0.004 0.013 -0.0079
C20E 0.043 0.037 0.054 -0.014 0.022 -0.011
C21E 0.049 0.064 0.075 -0.042 0.026 -0.021
C22E 0.049 0.084 0.093 -0.045 0.038 -0.033
C23E 0.043 0.067 0.078 -0.03 0.025 -0.025
C24E 0.06 0.05 0.045 0.006 -0.016 -0.028
C25E 0.082 0.069 0.055 0.019 -0.035 -0.043
C26E 0.075 0.07 0.053 0.03 -0.03 -0.043
C27E 0.06 0.043 0.039 0.01 -0.015 -0.022
C28E 0.051 0.033 0.037 0.006 -0.012 -0.015
C29E 0.057 0.048 0.042 0.018 -0.021 -0.023
C30E 0.046 0.025 0.095 0.016 -0.005 -0.002
N1E 0.028 0.037 0.035 -0.0084 0.0084 -0.0051
N3E 0.034 0.043 0.029 -0.0098 0.002 -0.0084
N4E 0.041 0.035 0.036 -0.0077 0.0124 -0.0042
N5E 0.034 0.037 0.036 -0.0035 0.0107 -0.0056
N6E 0.041 0.03 0.05 -0.0092 0.02 -0.008
N7E 0.04 0.031 0.052 -0.0071 0.016 -0.0119
N8E 0.038 0.029 0.043 0.002 0.0043 -0.0014
N9E 0.044 0.031 0.042 0.0039 -0.008 -0.0167
N10E 0.048 0.049 0.044 0.02 -0.018 -0.02
S2E 0.0425 0.0591 0.353 0.067 0.0104 -0.0014
C24YA 0.05 0.045 0.06 0.016 -0.028 -0.006
C25YA 0.069 0.055 0.082 0.035 -0.043 -0.019
C26YA 0.07 0.053 0.075 0.03 -0.043 -0.03
C27YA 0.043 0.039 0.06 0.015 -0.022 -0.01
C28YA 0.033 0.037 0.051 0.012 -0.015 -0.006
C29YA 0.048 0.042 0.057 0.021 -0.023 -0.018
N9YA 0.031 0.042 0.044 0.008 -0.0167 -0.0039
N10YA 0.049 0.044 0.048 0.018 -0.02 -0.02
C24DC 0.045 0.06 0.05 0.028 -0.006 -0.016
C25DC 0.055 0.082 0.069 0.043 -0.019 -0.035
C26DC 0.053 0.075 0.07 0.043 -0.03 -0.03
C27DC 0.039 0.06 0.043 0.022 -0.01 -0.015
C28DC 0.037 0.051 0.033 0.015 -0.006 -0.012
C29DC 0.042 0.057 0.048 0.023 -0.018 -0.021
N9DC 0.042 0.044 0.031 0.0167 -0.0039 -0.008
N10DC 0.044 0.048 0.049 0.02 -0.02 -0.018
Co2K 0.0346 0.0367 0.0201 0 0 -0.0027
C5K 0.038 0.031 0.03 -0.0061 0.0102 -0.0054
C6K 0.048 0.033 0.035 -0.004 0.008 -0.011
C7K 0.077 0.057 0.044 -0.019 0.03 -0.032
C8K 0.087 0.069 0.044 -0.02 0.03 -0.045
C9K 0.058 0.047 0.044 -0.008 0.018 -0.023
C11K 0.045 0.054 0.061 -0.019 0.025 -0.011
C12K 0.068 0.048 0.08 -0.031 0.041 -0.016
C13K 0.055 0.04 0.059 -0.017 0.019 -0.018
C14K 0.034 0.036 0.034 -0.008 0.006 -0.007
C15K 0.031 0.03 0.037 -0.0061 0.0046 -0.0003
C16K 0.032 0.032 0.033 -0.003 0.004 -0.006
C17K 0.044 0.037 0.024 -0.0055 0.003 -0.01
C18K 0.045 0.04 0.026 -0.007 0.006 -0.014
C19K 0.048 0.037 0.023 -0.0079 0.004 -0.013
C20K 0.054 0.043 0.037 -0.011 0.014 -0.022
C21K 0.075 0.049 0.064 -0.021 0.042 -0.026
C22K 0.093 0.049 0.084 -0.033 0.045 -0.038
C23K 0.078 0.043 0.067 -0.025 0.03 -0.025
C30K 0.095 0.046 0.025 -0.002 -0.016 0.005
N1K 0.035 0.028 0.037 -0.0051 0.0084 -0.0084
N3K 0.029 0.034 0.043 -0.0084 0.0098 -0.002
N4K 0.036 0.041 0.035 -0.0042 0.0077 -0.0124
N5K 0.036 0.034 0.037 -0.0056 0.0035 -0.0107
N6K 0.05 0.041 0.03 -0.008 0.0092 -0.02
N7K 0.052 0.04 0.031 -0.0119 0.0071 -0.016
N8K 0.043 0.038 0.029 -0.0014 -0.002 -0.0043
S2K 0.353 0.0425 0.0591 -0.0014 -0.067 -0.0104
C5FA 0.038 0.031 0.03 0.0061 -0.0102 -0.0054
C6FA 0.048 0.033 0.035 0.004 -0.008 -0.011
C7FA 0.077 0.057 0.044 0.019 -0.03 -0.032
C8FA 0.087 0.069 0.044 0.02 -0.03 -0.045
C9FA 0.058 0.047 0.044 0.008 -0.018 -0.023
C11FA 0.045 0.054 0.061 0.019 -0.025 -0.011
C12FA 0.068 0.048 0.08 0.031 -0.041 -0.016
C13FA 0.055 0.04 0.059 0.017 -0.019 -0.018
C14FA 0.034 0.036 0.034 0.008 -0.006 -0.007
C15FA 0.031 0.03 0.037 0.0061 -0.0046 -0.0003
C16FA 0.032 0.032 0.033 0.003 -0.004 -0.006
C17FA 0.044 0.037 0.024 0.0055 -0.003 -0.01
C18FA 0.045 0.04 0.026 0.007 -0.006 -0.014
C19FA 0.048 0.037 0.023 0.0079 -0.004 -0.013
C20FA 0.054 0.043 0.037 0.011 -0.014 -0.022
C21FA 0.075 0.049 0.064 0.021 -0.042 -0.026
C22FA 0.093 0.049 0.084 0.033 -0.045 -0.038
C23FA 0.078 0.043 0.067 0.025 -0.03 -0.025
C30FA 0.095 0.046 0.025 0.002 0.016 0.005
N1FA 0.035 0.028 0.037 0.0051 -0.0084 -0.0084
N3FA 0.029 0.034 0.043 0.0084 -0.0098 -0.002
N4FA 0.036 0.041 0.035 0.0042 -0.0077 -0.0124
N5FA 0.036 0.034 0.037 0.0056 -0.0035 -0.0107
N6FA 0.05 0.041 0.03 0.008 -0.0092 -0.02
N7FA 0.052 0.04 0.031 0.0119 -0.0071 -0.016
N8FA 0.043 0.038 0.029 0.0014 0.002 -0.0043
S2FA 0.353 0.0425 0.0591 0.0014 0.067 -0.0104
Co1RE 0.0299 0.0299 0.0182 -0.0024 0.0024 0.0038
C5DF 0.03 0.031 0.038 0.0054 0.0102 0.0061
C6DF 0.035 0.033 0.048 0.011 0.008 0.004
C7DF 0.044 0.057 0.077 0.032 0.03 0.019
C8DF 0.044 0.069 0.087 0.045 0.03 0.02
C9DF 0.044 0.047 0.058 0.023 0.018 0.008
C10DF 0.041 0.036 0.028 -0.004 0.005 -0.004
C11DF 0.061 0.054 0.045 0.011 0.025 0.019
C12DF 0.08 0.048 0.068 0.016 0.041 0.031
C13DF 0.059 0.04 0.055 0.018 0.019 0.017
C14DF 0.034 0.036 0.034 0.007 0.006 0.008
C15DF 0.037 0.03 0.031 0.0003 0.0046 0.0061
C16DF 0.033 0.032 0.032 0.006 0.004 0.003
C17DF 0.024 0.037 0.044 0.01 0.003 0.0055
C18DF 0.026 0.04 0.045 0.014 0.006 0.007
C19DF 0.023 0.037 0.048 0.013 0.004 0.0079
C20DF 0.037 0.043 0.054 0.022 0.014 0.011
C21DF 0.064 0.049 0.075 0.026 0.042 0.021
C22DF 0.084 0.049 0.093 0.038 0.045 0.033
C23DF 0.067 0.043 0.078 0.025 0.03 0.025
N1DF 0.037 0.028 0.035 0.0084 0.0084 0.0051
N2DF 0.031 0.039 0.0225 -0.0032 0.0036 0.0045
N3DF 0.043 0.034 0.029 0.002 0.0098 0.0084
N4DF 0.035 0.041 0.036 0.0124 0.0077 0.0042
N5DF 0.037 0.034 0.036 0.0107 0.0035 0.0056
N6DF 0.03 0.041 0.05 0.02 0.0092 0.008
N7DF 0.031 0.04 0.052 0.016 0.0071 0.0119
S1DF 0.0707 0.0487 0.0756 -0.019 0.0378 0.0065
C5CD 0.038 0.031 0.03 -0.0061 0.0102 -0.0054
C6CD 0.048 0.033 0.035 -0.004 0.008 -0.011
C7CD 0.077 0.057 0.044 -0.019 0.03 -0.032
C8CD 0.087 0.069 0.044 -0.02 0.03 -0.045
C9CD 0.058 0.047 0.044 -0.008 0.018 -0.023
C11CD 0.045 0.054 0.061 -0.019 0.025 -0.011
C12CD 0.068 0.048 0.08 -0.031 0.041 -0.016
C13CD 0.055 0.04 0.059 -0.017 0.019 -0.018
C14CD 0.034 0.036 0.034 -0.008 0.006 -0.007
C15CD 0.031 0.03 0.037 -0.0061 0.0046 -0.0003
C16CD 0.032 0.032 0.033 -0.003 0.004 -0.006
C17CD 0.044 0.037 0.024 -0.0055 0.003 -0.01
C18CD 0.045 0.04 0.026 -0.007 0.006 -0.014
C19CD 0.048 0.037 0.023 -0.0079 0.004 -0.013
C20CD 0.054 0.043 0.037 -0.011 0.014 -0.022
C21CD 0.075 0.049 0.064 -0.021 0.042 -0.026
C22CD 0.093 0.049 0.084 -0.033 0.045 -0.038
C23CD 0.078 0.043 0.067 -0.025 0.03 -0.025
N1CD 0.035 0.028 0.037 -0.0051 0.0084 -0.0084
N3CD 0.029 0.034 0.043 -0.0084 0.0098 -0.002
N4CD 0.036 0.041 0.035 -0.0042 0.0077 -0.0124
N5CD 0.036 0.034 0.037 -0.0056 0.0035 -0.0107
N6CD 0.05 0.041 0.03 -0.008 0.0092 -0.02
N7CD 0.052 0.04 0.031 -0.0119 0.0071 -0.016
C10U 0.036 0.028 0.041 0.005 -0.004 -0.004
N2U 0.039 0.0225 0.031 0.0036 0.0045 -0.0032
S1U 0.0487 0.0756 0.0707 0.0378 0.0065 -0.019
C30YA 0.025 0.095 0.046 0.005 -0.002 -0.016
N8YA 0.029 0.043 0.038 -0.0043 -0.0014 -0.002
S2YA 0.0591 0.353 0.0425 -0.0104 -0.0014 -0.067
C30ZB 0.046 0.025 0.095 -0.016 -0.005 0.002
N8ZB 0.038 0.029 0.043 -0.002 0.0043 0.0014
S2ZB 0.0425 0.0591 0.353 -0.067 0.0104 0.0014
Co1UD 0.0299 0.0299 0.0182 -0.0024 -0.0024 -0.0038
C10RE 0.036 0.041 0.028 -0.005 0.004 -0.004
N2RE 0.039 0.031 0.0225 -0.0036 0.0032 0.0045
S1RE 0.0487 0.0707 0.0756 -0.0378 0.019 0.0065
C10IE 0.041 0.036 0.028 -0.004 -0.005 0.004
N2IE 0.031 0.039 0.0225 -0.0032 -0.0036 -0.0045
S1IE 0.0707 0.0487 0.0756 -0.019 -0.0378 -0.0065
C10UD 0.036 0.041 0.028 -0.005 -0.004 0.004
N2UD 0.039 0.031 0.0225 -0.0036 -0.0032 -0.0045
S1UD 0.0487 0.0707 0.0756 -0.0378 -0.019 -0.0065
Co1E 0.0299 0.0299 0.0182 -0.0024 -0.0024 -0.0038
Co1K 0.0182 0.0299 0.0299 -0.0038 0.0024 0.0024
Co1FA 0.0182 0.0299 0.0299 0.0038 -0.0024 0.0024
Co1RC 0.0299 0.0182 0.0299 0.0024 0.0038 -0.0024
Co1CD 0.0182 0.0299 0.0299 -0.0038 0.0024 0.0024
Co1OE 0.0299 0.0182 0.0299 -0.0024 -0.0038 -0.0024
Co1WF 0.0182 0.0299 0.0299 -0.0038 0.0024 0.0024
Co2EA 0.0367 0.0201 0.0346 0 -0.0027 0
Co2EB 0.0346 0.0367 0.0201 0 0 0.0027
Co2CD 0.0346 0.0367 0.0201 0 0 -0.0027
Co2IE 0.0201 0.0367 0.0346 0.0027 0 0
N1MA 0.035 0.037 0.028 0.0051 0.0084 0.0084
N1YA 0.037 0.035 0.028 -0.0084 -0.0051 0.0084
N1GC 0.035 0.037 0.028 0.0051 -0.0084 -0.0084
N3U 0.034 0.029 0.043 0.0098 0.0084 0.002
N3UD 0.034 0.043 0.029 -0.0098 0.002 -0.0084
N3IE 0.043 0.034 0.029 0.002 -0.0098 -0.0084
N3RE 0.034 0.043 0.029 -0.0098 -0.002 0.0084
N7YA 0.031 0.052 0.04 -0.016 -0.0119 0.0071
N7ZB 0.04 0.031 0.052 0.0071 0.016 0.0119
N9K 0.042 0.044 0.031 -0.0167 -0.0039 0.008
N9ZB 0.044 0.031 0.042 -0.0039 -0.008 0.0167
loop_
_geom_bond_atom_site_label_1
_geom_bond_atom_site_label_2
_geom_bond_site_symmetry_1
_geom_bond_site_symmetry_2
O1 C1 1_555 1_555
C1 H1 1_555 1_555
H2 C1 1_555 1_555
C2 C1 1_555 1_555
H3 C2 1_555 1_555
H4 C2 1_555 1_555
C3 C2 1_555 1_555
H5 C3 1_555 1_555
H6 C3 1_555 1_555
C4 O1 1_555 1_555
H7 C4 1_555 1_555
H8 C4 1_555 1_555
Co1 N2 1_555 1_555
Co2 N7 1_555 1_555
C5 H9 1_555 1_555
C6 C5 1_555 1_555
C7 C6 1_555 1_555
H10 C7 1_555 1_555
C8 C7 1_555 1_555
H11 C8 1_555 1_555
C9 C8 1_555 1_555
H12 C9 1_555 1_555
C10 N2 1_555 1_555
C11 H13 1_555 1_555
C12 C11 1_555 1_555
H14 C12 1_555 1_555
C13 C12 1_555 1_555
H15 C13 1_555 1_555
C14 C13 1_555 1_555
C15 C14 1_555 1_555
H16 C15 1_555 1_555
C16 C14 1_555 1_555
C17 C6 1_555 1_555
C18 C20 1_555 1_555
C19 H17 1_555 1_555
C20 C19 1_555 1_555
C21 C20 1_555 1_555
H18 C21 1_555 1_555
C22 C21 1_555 1_555
H19 C22 1_555 1_555
C23 C22 1_555 1_555
H20 C23 1_555 1_555
C24 H21 1_555 1_555
C25 C24 1_555 1_555
H22 C25 1_555 1_555
C26 C25 1_555 1_555
H23 C26 1_555 1_555
C27 C26 1_555 1_555
C28 C27 1_555 1_555
H24 C28 1_555 1_555
C29 C27 1_555 1_555
C30 N8 1_555 1_555
N1 C5 1_555 1_555
N3 Co1 1_555 1_555
N4 C16 1_555 1_555
N5 C16 1_555 1_555
N6 C17 1_555 1_555
N7 C19 1_555 1_555
N8 Co2 1_555 1_555
N9 Co2 1_555 1_555
N10 C29 1_555 1_555
S1 C10 1_555 1_555
S2 C30 1_555 1_555
C24FA H21FA 1_555 1_555
C25FA C24FA 1_555 1_555
H22FA C25FA 1_555 1_555
C26FA C25FA 1_555 1_555
H23FA C26FA 1_555 1_555
C27FA C26FA 1_555 1_555
C28FA C27FA 1_555 1_555
H24FA C28FA 1_555 1_555
C29FA C27FA 1_555 1_555
N9FA C24FA 1_555 1_555
N10FA C29 1_555 1_555
C24ZA H21ZA 1_555 1_555
C25ZA C24ZA 1_555 1_555
H22ZA C25ZA 1_555 1_555
C26ZA C25ZA 1_555 1_555
H23ZA C26ZA 1_555 1_555
C27ZA C26ZA 1_555 1_555
C28ZA C27ZA 1_555 1_555
H24ZA C28ZA 1_555 1_555
C29ZA N10 1_555 1_555
N9ZA C24ZA 1_555 1_555
N10ZA C29FA 1_555 1_555
Co2E N7E 1_555 1_555
C5E H9E 1_555 1_555
C6E C5E 1_555 1_555
C7E C6E 1_555 1_555
H10E C7E 1_555 1_555
C8E C7E 1_555 1_555
H11E C8E 1_555 1_555
C9E C8E 1_555 1_555
H12E C9E 1_555 1_555
C11E H13E 1_555 1_555
C12E C11E 1_555 1_555
H14E C12E 1_555 1_555
C13E C12E 1_555 1_555
H15E C13E 1_555 1_555
C14E C13E 1_555 1_555
C15E C14E 1_555 1_555
H16E C15E 1_555 1_555
C16E C14E 1_555 1_555
C17E C6E 1_555 1_555
C18E C20E 1_555 1_555
C19E H17E 1_555 1_555
C20E C19E 1_555 1_555
C21E C20E 1_555 1_555
H18E C21E 1_555 1_555
C22E C21E 1_555 1_555
H19E C22E 1_555 1_555
C23E C22E 1_555 1_555
H20E C23E 1_555 1_555
C24E H21E 1_555 1_555
C25E C24E 1_555 1_555
H22E C25E 1_555 1_555
C26E C25E 1_555 1_555
H23E C26E 1_555 1_555
C27E C26E 1_555 1_555
C28E C27E 1_555 1_555
H24E C28E 1_555 1_555
C29E C27E 1_555 1_555
C30E N8E 1_555 1_555
N1E C5E 1_555 1_555
N3E C11E 1_555 1_555
N4E C16E 1_555 1_555
N5E C16E 1_555 1_555
N6E C17E 1_555 1_555
N7E C19E 1_555 1_555
N8E Co2E 1_555 1_555
N9E Co2E 1_555 1_555
N10E C29E 1_555 1_555
S2E C30E 1_555 1_555
C24YA H21YA 1_555 1_555
C25YA C24YA 1_555 1_555
H22YA C25YA 1_555 1_555
C26YA C25YA 1_555 1_555
H23YA C26YA 1_555 1_555
C27YA C26YA 1_555 1_555
C28YA C27YA 1_555 1_555
H24YA C28YA 1_555 1_555
C29YA C27YA 1_555 1_555
N9YA Co2 1_555 1_555
N10YA C29E 1_555 1_555
C24DC H21DC 1_555 1_555
C25DC C24DC 1_555 1_555
H22DC C25DC 1_555 1_555
C26DC C25DC 1_555 1_555
H23DC C26DC 1_555 1_555
C27DC C26DC 1_555 1_555
C28DC C27DC 1_555 1_555
H24DC C28DC 1_555 1_555
C29DC N10E 1_555 1_555
N9DC C24DC 1_555 1_555
N10DC C29YA 1_555 1_555
Co2K N9FA 1_555 1_555
C5K H9K 1_555 1_555
C6K C5K 1_555 1_555
C7K C6K 1_555 1_555
H10K C7K 1_555 1_555
C8K C7K 1_555 1_555
H11K C8K 1_555 1_555
C9K C8K 1_555 1_555
H12K C9K 1_555 1_555
C11K H13K 1_555 1_555
C12K C11K 1_555 1_555
H14K C12K 1_555 1_555
C13K C12K 1_555 1_555
H15K C13K 1_555 1_555
C14K C13K 1_555 1_555
C15K C14K 1_555 1_555
H16K C15K 1_555 1_555
C16K C14K 1_555 1_555
C17K C6K 1_555 1_555
C18K C20K 1_555 1_555
C19K H17K 1_555 1_555
C20K C19K 1_555 1_555
C21K C20K 1_555 1_555
H18K C21K 1_555 1_555
C22K C21K 1_555 1_555
H19K C22K 1_555 1_555
C23K C22K 1_555 1_555
H20K C23K 1_555 1_555
C30K N8K 1_555 1_555
N1K C5K 1_555 1_555
N3K C11K 1_555 1_555
N4K C16K 1_555 1_555
N5K C16K 1_555 1_555
N6K C17K 1_555 1_555
N7K Co2K 1_555 1_555
N8K Co2K 1_555 1_555
S2K C30K 1_555 1_555
C5FA H9FA 1_555 1_555
C6FA C5FA 1_555 1_555
C7FA C6FA 1_555 1_555
H10FA C7FA 1_555 1_555
C8FA C7FA 1_555 1_555
H11FA C8FA 1_555 1_555
C9FA C8FA 1_555 1_555
H12FA C9FA 1_555 1_555
C11FA H13FA 1_555 1_555
C12FA C11FA 1_555 1_555
H14FA C12FA 1_555 1_555
C13FA C12FA 1_555 1_555
H15FA C13FA 1_555 1_555
C14FA C13FA 1_555 1_555
C15FA C14FA 1_555 1_555
H16FA C15FA 1_555 1_555
C16FA C14FA 1_555 1_555
C17FA C6FA 1_555 1_555
C18FA C20FA 1_555 1_555
C19FA H17FA 1_555 1_555
C20FA C19FA 1_555 1_555
C21FA C20FA 1_555 1_555
H18FA C21FA 1_555 1_555
C22FA C21FA 1_555 1_555
H19FA C22FA 1_555 1_555
C23FA C22FA 1_555 1_555
H20FA C23FA 1_555 1_555
C30FA N8FA 1_555 1_555
N1FA C5FA 1_555 1_555
N3FA C11FA 1_555 1_555
N4FA C16FA 1_555 1_555
N5FA C16FA 1_555 1_555
N6FA C17FA 1_555 1_555
N7FA Co2K 1_555 1_555
N8FA Co2K 1_555 1_555
S2FA C30FA 1_555 1_555
Co1RE N2DF 1_555 1_555
C5DF H9DF 1_555 1_555
C6DF C5DF 1_555 1_555
C7DF C6DF 1_555 1_555
H10DF C7DF 1_555 1_555
C8DF C7DF 1_555 1_555
H11DF C8DF 1_555 1_555
C9DF C8DF 1_555 1_555
H12DF C9DF 1_555 1_555
C10DF N2DF 1_555 1_555
C11DF H13DF 1_555 1_555
C12DF C11DF 1_555 1_555
H14DF C12DF 1_555 1_555
C13DF C12DF 1_555 1_555
H15DF C13DF 1_555 1_555
C14DF C13DF 1_555 1_555
C15DF C14DF 1_555 1_555
H16DF C15DF 1_555 1_555
C16DF C14DF 1_555 1_555
C17DF C6DF 1_555 1_555
C18DF C20DF 1_555 1_555
C19DF H17DF 1_555 1_555
C20DF C19DF 1_555 1_555
C21DF C20DF 1_555 1_555
H18DF C21DF 1_555 1_555
C22DF C21DF 1_555 1_555
H19DF C22DF 1_555 1_555
C23DF C22DF 1_555 1_555
H20DF C23DF 1_555 1_555
N1DF Co1 1_555 1_555
N3DF Co1RE 1_555 1_555
N4DF C16DF 1_555 1_555
N5DF C16DF 1_555 1_555
N6DF C17DF 1_555 1_555
N7DF C19DF 1_555 1_555
S1DF C10DF 1_555 1_555
C5CD H9CD 1_555 1_555
C6CD C5CD 1_555 1_555
C7CD C6CD 1_555 1_555
H10CD C7CD 1_555 1_555
C8CD C7CD 1_555 1_555
H11CD C8CD 1_555 1_555
C9CD C8CD 1_555 1_555
H12CD C9CD 1_555 1_555
C11CD H13CD 1_555 1_555
C12CD C11CD 1_555 1_555
H14CD C12CD 1_555 1_555
C13CD C12CD 1_555 1_555
H15CD C13CD 1_555 1_555
C14CD C13CD 1_555 1_555
C15CD C14CD 1_555 1_555
H16CD C15CD 1_555 1_555
C16CD C14CD 1_555 1_555
C17CD C6CD 1_555 1_555
C18CD C20CD 1_555 1_555
C19CD H17CD 1_555 1_555
C20CD C19CD 1_555 1_555
C21CD C20CD 1_555 1_555
H18CD C21CD 1_555 1_555
C22CD C21CD 1_555 1_555
H19CD C22CD 1_555 1_555
C23CD C22CD 1_555 1_555
H20CD C23CD 1_555 1_555
N1CD Co1 1_555 1_555
N3CD C11CD 1_555 1_555
N4CD C16CD 1_555 1_555
N5CD C16CD 1_555 1_555
N6CD C17CD 1_555 1_555
N7CD C19CD 1_555 1_555
C10U N2U 1_555 1_555
N2U Co1 1_555 1_555
S1U C10U 1_555 1_555
C30YA N8YA 1_555 1_555
N8YA Co2 1_555 1_555
S2YA C30YA 1_555 1_555
C30ZB N8ZB 1_555 1_555
N8ZB Co2E 1_555 1_555
S2ZB C30ZB 1_555 1_555
Co1UD N1 1_555 1_555
C10RE N2RE 1_555 1_555
N2RE Co1RE 1_555 1_555
S1RE C10RE 1_555 1_555
C10IE N2IE 1_555 1_555
N2IE Co1UD 1_555 1_555
S1IE C10IE 1_555 1_555
C10UD N2UD 1_555 1_555
N2UD Co1UD 1_555 1_555
S1UD C10UD 1_555 1_555
Co1E N3E 1_555 1_555
Co1K N3K 1_555 1_555
Co1FA N3FA 1_555 1_555
Co1RC N1K 1_555 1_555
Co1CD N3CD 1_555 1_555
Co1OE N1FA 1_555 1_555
Co1WF N1E 1_555 1_555
Co2EA N9ZA 1_555 1_555
Co2EB N9DC 1_555 1_555
Co2CD N7CD 1_555 1_555
Co2IE N7DF 1_555 1_555
N1MA Co1RE 1_555 1_555
N1YA Co1RE 1_555 1_555
N1GC Co1UD 1_555 1_555
N3U Co1 1_555 1_555
N3UD Co1UD 1_555 1_555
N3IE Co1UD 1_555 1_555
N3RE Co1RE 1_555 1_555
N7YA Co2 1_555 1_555
N7ZB Co2E 1_555 1_555
N9K Co2K 1_555 1_555
N9ZB Co2E 1_555 1_555
C3 C4 1_555 1_555
C9 N1 1_555 1_555
C11 N3 1_555 1_555
C15 N3 1_555 1_555
C17 N5 1_555 1_555
C18 N4 1_555 1_555
C18 N6 1_555 1_555
C23 N7 1_555 1_555
C24 N9 1_555 1_555
C28 N9 1_555 1_555
C28FA N9FA 1_555 1_555
C29FA N10FA 1_555 1_555
C27ZA C29ZA 1_555 1_555
C28ZA N9ZA 1_555 1_555
C29ZA N10ZA 1_555 1_555
C9E N1E 1_555 1_555
C15E N3E 1_555 1_555
C17E N5E 1_555 1_555
C18E N4E 1_555 1_555
C18E N6E 1_555 1_555
C23E N7E 1_555 1_555
C24E N9E 1_555 1_555
C28E N9E 1_555 1_555
C24YA N9YA 1_555 1_555
C28YA N9YA 1_555 1_555
C29YA N10YA 1_555 1_555
C27DC C29DC 1_555 1_555
C28DC N9DC 1_555 1_555
C29DC N10DC 1_555 1_555
C9K N1K 1_555 1_555
C15K N3K 1_555 1_555
C17K N5K 1_555 1_555
C18K N4K 1_555 1_555
C18K N6K 1_555 1_555
C19K N7K 1_555 1_555
C23K N7K 1_555 1_555
C9FA N1FA 1_555 1_555
C15FA N3FA 1_555 1_555
C17FA N5FA 1_555 1_555
C18FA N4FA 1_555 1_555
C18FA N6FA 1_555 1_555
C19FA N7FA 1_555 1_555
C23FA N7FA 1_555 1_555
C5DF N1DF 1_555 1_555
C9DF N1DF 1_555 1_555
C11DF N3DF 1_555 1_555
C15DF N3DF 1_555 1_555
C17DF N5DF 1_555 1_555
C18DF N4DF 1_555 1_555
C18DF N6DF 1_555 1_555
C23DF N7DF 1_555 1_555
C5CD N1CD 1_555 1_555
C9CD N1CD 1_555 1_555
C15CD N3CD 1_555 1_555
C17CD N5CD 1_555 1_555
C18CD N4CD 1_555 1_555
C18CD N6CD 1_555 1_555
C23CD N7CD 1_555 1_555

#END
