
#######################################################################
#
#                 Cambridge Crystallographic Data Centre
#                                CCDC 
#
#######################################################################
#
# If this CIF has been generated from an entry in the Cambridge 
# Structural Database, then it will include bibliographic, chemical, 
# crystal, experimental, refinement or atomic coordinate data resulting 
# from the CCDC's data processing and validation procedures.
#
#######################################################################

data_RIFSOQ
_chemical_formula_moiety         '(C161 H106 Co6 N60 S12)n'
_symmetry_cell_setting           cubic
_symmetry_space_group_name_H-M   'F d -3 c'
_symmetry_Int_Tables_number      228
_space_group_name_Hall           '-F 4ud 2vw 3'
loop_
_symmetry_equiv_pos_site_id
_symmetry_equiv_pos_as_xyz
1 x,y,z
2 1/4-x,3/4-y,1/2+z
3 3/4-x,1/2+y,1/4-z
4 1/2+x,1/4-y,3/4-z
5 z,x,y
6 1/2+z,1/4-x,3/4-y
7 1/4-z,3/4-x,1/2+y
8 3/4-z,1/2+x,1/4-y
9 y,z,x
10 3/4-y,1/2+z,1/4-x
11 1/2+y,1/4-z,3/4-x
12 1/4-y,3/4-z,1/2+x
13 3/4+y,1/4+x,-z
14 1/2-y,1/2-x,1/2-z
15 1/4+y,-x,3/4+z
16 -y,3/4+x,1/4+z
17 3/4+x,1/4+z,-y
18 -x,3/4+z,1/4+y
19 1/2-x,1/2-z,1/2-y
20 1/4+x,-z,3/4+y
21 3/4+z,1/4+y,-x
22 1/4+z,-y,3/4+x
23 -z,3/4+y,1/4+x
24 1/2-z,1/2-y,1/2-x
25 x,1/2+y,1/2+z
26 1/4-x,1/4-y,z
27 3/4-x,y,3/4-z
28 1/2+x,3/4-y,1/4-z
29 z,1/2+x,1/2+y
30 1/2+z,3/4-x,1/4-y
31 1/4-z,1/4-x,y
32 3/4-z,x,3/4-y
33 y,1/2+z,1/2+x
34 3/4-y,z,3/4-x
35 1/2+y,3/4-z,1/4-x
36 1/4-y,1/4-z,x
37 3/4+y,3/4+x,1/2-z
38 1/2-y,-x,-z
39 1/4+y,1/2-x,1/4+z
40 -y,1/4+x,3/4+z
41 3/4+x,3/4+z,1/2-y
42 -x,1/4+z,3/4+y
43 1/2-x,-z,-y
44 1/4+x,1/2-z,1/4+y
45 3/4+z,3/4+y,1/2-x
46 1/4+z,1/2-y,1/4+x
47 -z,1/4+y,3/4+x
48 1/2-z,-y,-x
49 1/2+x,y,1/2+z
50 3/4-x,3/4-y,z
51 1/4-x,1/2+y,3/4-z
52 x,1/4-y,1/4-z
53 1/2+z,x,1/2+y
54 z,1/4-x,1/4-y
55 3/4-z,3/4-x,y
56 1/4-z,1/2+x,3/4-y
57 1/2+y,z,1/2+x
58 1/4-y,1/2+z,3/4-x
59 y,1/4-z,1/4-x
60 3/4-y,3/4-z,x
61 1/4+y,1/4+x,1/2-z
62 -y,1/2-x,-z
63 3/4+y,-x,1/4+z
64 1/2-y,3/4+x,3/4+z
65 1/4+x,1/4+z,1/2-y
66 1/2-x,3/4+z,3/4+y
67 -x,1/2-z,-y
68 3/4+x,-z,1/4+y
69 1/4+z,1/4+y,1/2-x
70 3/4+z,-y,1/4+x
71 1/2-z,3/4+y,3/4+x
72 -z,1/2-y,-x
73 1/2+x,1/2+y,z
74 3/4-x,1/4-y,1/2+z
75 1/4-x,y,1/4-z
76 x,3/4-y,3/4-z
77 1/2+z,1/2+x,y
78 z,3/4-x,3/4-y
79 3/4-z,1/4-x,1/2+y
80 1/4-z,x,1/4-y
81 1/2+y,1/2+z,x
82 1/4-y,z,1/4-x
83 y,3/4-z,3/4-x
84 3/4-y,1/4-z,1/2+x
85 1/4+y,3/4+x,-z
86 -y,-x,1/2-z
87 3/4+y,1/2-x,3/4+z
88 1/2-y,1/4+x,1/4+z
89 1/4+x,3/4+z,-y
90 1/2-x,1/4+z,1/4+y
91 -x,-z,1/2-y
92 3/4+x,1/2-z,3/4+y
93 1/4+z,3/4+y,-x
94 3/4+z,1/2-y,3/4+x
95 1/2-z,1/4+y,1/4+x
96 -z,-y,1/2-x
97 -x,-y,-z
98 3/4+x,1/4+y,1/2-z
99 1/4+x,1/2-y,3/4+z
100 1/2-x,3/4+y,1/4+z
101 -z,-x,-y
102 1/2-z,3/4+x,1/4+y
103 3/4+z,1/4+x,1/2-y
104 1/4+z,1/2-x,3/4+y
105 -y,-z,-x
106 1/4+y,1/2-z,3/4+x
107 1/2-y,3/4+z,1/4+x
108 3/4+y,1/4+z,1/2-x
109 1/4-y,3/4-x,z
110 1/2+y,1/2+x,1/2+z
111 3/4-y,x,1/4-z
112 y,1/4-x,3/4-z
113 1/4-x,3/4-z,y
114 x,1/4-z,3/4-y
115 1/2+x,1/2+z,1/2+y
116 3/4-x,z,1/4-y
117 1/4-z,3/4-y,x
118 3/4-z,y,1/4-x
119 z,1/4-y,3/4-x
120 1/2+z,1/2+y,1/2+x
121 -x,1/2-y,1/2-z
122 3/4+x,3/4+y,-z
123 1/4+x,-y,1/4+z
124 1/2-x,1/4+y,3/4+z
125 -z,1/2-x,1/2-y
126 1/2-z,1/4+x,3/4+y
127 3/4+z,3/4+x,-y
128 1/4+z,-x,1/4+y
129 -y,1/2-z,1/2-x
130 1/4+y,-z,1/4+x
131 1/2-y,1/4+z,3/4+x
132 3/4+y,3/4+z,-x
133 1/4-y,1/4-x,1/2+z
134 1/2+y,x,z
135 3/4-y,1/2+x,3/4-z
136 y,3/4-x,1/4-z
137 1/4-x,1/4-z,1/2+y
138 x,3/4-z,1/4-y
139 1/2+x,z,y
140 3/4-x,1/2+z,3/4-y
141 1/4-z,1/4-y,1/2+x
142 3/4-z,1/2+y,3/4-x
143 z,3/4-y,1/4-x
144 1/2+z,y,x
145 1/2-x,-y,1/2-z
146 1/4+x,1/4+y,-z
147 3/4+x,1/2-y,1/4+z
148 -x,3/4+y,3/4+z
149 1/2-z,-x,1/2-y
150 -z,3/4+x,3/4+y
151 1/4+z,1/4+x,-y
152 3/4+z,1/2-x,1/4+y
153 1/2-y,-z,1/2-x
154 3/4+y,1/2-z,1/4+x
155 -y,3/4+z,3/4+x
156 1/4+y,1/4+z,-x
157 3/4-y,3/4-x,1/2+z
158 y,1/2+x,z
159 1/4-y,x,3/4-z
160 1/2+y,1/4-x,1/4-z
161 3/4-x,3/4-z,1/2+y
162 1/2+x,1/4-z,1/4-y
163 x,1/2+z,y
164 1/4-x,z,3/4-y
165 3/4-z,3/4-y,1/2+x
166 1/4-z,y,3/4-x
167 1/2+z,1/4-y,1/4-x
168 z,1/2+y,x
169 1/2-x,1/2-y,-z
170 1/4+x,3/4+y,1/2-z
171 3/4+x,-y,3/4+z
172 -x,1/4+y,1/4+z
173 1/2-z,1/2-x,-y
174 -z,1/4+x,1/4+y
175 1/4+z,3/4+x,1/2-y
176 3/4+z,-x,3/4+y
177 1/2-y,1/2-z,-x
178 3/4+y,-z,3/4+x
179 -y,1/4+z,1/4+x
180 1/4+y,3/4+z,1/2-x
181 3/4-y,1/4-x,z
182 y,x,1/2+z
183 1/4-y,1/2+x,1/4-z
184 1/2+y,3/4-x,3/4-z
185 3/4-x,1/4-z,y
186 1/2+x,3/4-z,3/4-y
187 x,z,1/2+y
188 1/4-x,1/2+z,1/4-y
189 3/4-z,1/4-y,x
190 1/4-z,1/2+y,1/4-x
191 1/2+z,3/4-y,3/4-x
192 z,y,1/2+x
_cell_length_a                   64.0734(17)
_cell_length_b                   64.0734(17)
_cell_length_c                   64.0734(17)
_cell_angle_alpha                90
_cell_angle_beta                 90
_cell_angle_gamma                90
_cell_volume                     263047
loop_
_atom_site_label
_atom_site_type_symbol
_atom_site_fract_x
_atom_site_fract_y
_atom_site_fract_z
_atom_site_U_iso_or_equiv
_atom_site_thermal_displace_type
C1 C 0.82798(10) 0.89336(11) 0.17104(12) 0.0717 Uani
H1 H 0.8268 0.9069 0.1784 0.0860 Uiso
H2 H 0.8211 0.8823 0.1794 0.0860 Uiso
C2 C 0.85040(10) 0.88792(12) 0.16649(10) 0.0723 Uani
H3 H 0.8518 0.8729 0.1630 0.0870 Uiso
H4 H 0.8594 0.8910 0.1787 0.0870 Uiso
C3 C 0.85652(9) 0.90152(11) 0.14785(9) 0.0607 Uani
H5 H 0.8671 0.8943 0.1392 0.0730 Uiso
H6 H 0.8625 0.9149 0.1527 0.0730 Uiso
C4 C 0.83652(11) 0.90536(11) 0.13523(11) 0.0720 Uani
H7 H 0.8374 0.8989 0.1212 0.0860 Uiso
H8 H 0.8338 0.9205 0.1336 0.0860 Uiso
C5 C 0.81894(11) 0.89463(13) 0.14887(13) 0.0850 Uani
H9 H 0.8060 0.9031 0.1487 0.1020 Uiso
H10 H 0.8157 0.8805 0.1435 0.1020 Uiso
Co1 Co 0.871782(11) 1.0000 0.121782(11) 0.0241 Uani
Co2 Co 0.8750 0.8750 0.247883(12) 0.0256 Uani
C6 C 0.98987(7) 0.87344(7) 0.17701(7) 0.0397 Uani
H11 H 1.0010 0.8637 0.1770 0.0480 Uiso
C7 C 0.97925(8) 0.87652(8) 0.19533(7) 0.0500 Uani
H12 H 0.9831 0.8691 0.2076 0.0600 Uiso
C8 C 0.96263(7) 0.89078(8) 0.19589(8) 0.0483 Uani
H13 H 0.9548 0.8930 0.2083 0.0580 Uiso
C9 C 0.95818(6) 0.90156(7) 0.17748(6) 0.0330 Uani
C10 C 0.96997(6) 0.89746(6) 0.15970(6) 0.0291 Uani
H14 H 0.9669 0.9050 0.1473 0.0350 Uiso
C11 C 0.89882(6) 1.03238(6) 0.09522(6) 0.0300 Uani
C12 C 0.90471(6) 0.97032(6) 0.14037(6) 0.0291 Uani
H15 H 0.8938 0.9688 0.1502 0.0350 Uiso
C13 C 0.92235(6) 0.95790(6) 0.14240(6) 0.0320 Uani
C14 C 0.93854(7) 0.96012(7) 0.12773(7) 0.0423 Uani
H16 H 0.9507 0.9516 0.1285 0.0510 Uiso
C15 C 0.93636(7) 0.97493(8) 0.11228(8) 0.0497 Uani
H17 H 0.9471 0.9771 0.1023 0.0600 Uiso
C16 C 0.91811(7) 0.98671(7) 0.11146(7) 0.0400 Uani
H18 H 0.9168 0.9968 0.1007 0.0480 Uiso
C17 C 0.92319(6) 0.94180(6) 0.15890(6) 0.0292 Uani
C18 C 0.90743(6) 0.92468(6) 0.18540(6) 0.0299 Uani
C19 C 0.94012(6) 0.91577(7) 0.17565(6) 0.0319 Uani
C20 C 0.88881(6) 0.92099(6) 0.19838(6) 0.0305 Uani
C21 C 0.87097(7) 0.93355(7) 0.19700(7) 0.0403 Uani
H19 H 0.8705 0.9451 0.1877 0.0480 Uiso
C22 C 0.85410(7) 0.92884(8) 0.20943(8) 0.0457 Uani
H20 H 0.8418 0.9371 0.2089 0.0550 Uiso
C23 C 0.85532(7) 0.91161(7) 0.22298(7) 0.0400 Uani
H21 H 0.8436 0.9085 0.2315 0.0480 Uiso
C24 C 0.88848(6) 0.90414(6) 0.21226(6) 0.0284 Uani
H22 H 0.9005 0.8956 0.2131 0.0340 Uiso
C25 C 0.92519(8) 0.87829(9) 0.25064(7) 0.0467 Uani
C26 C 0.88841(8) 0.91733(7) 0.26726(7) 0.0440 Uani
H23 H 0.8991 0.9160 0.2571 0.0530 Uiso
C27 C 0.88748(8) 0.93527(8) 0.27852(8) 0.0510 Uani
H24 H 0.8973 0.9461 0.2762 0.0610 Uiso
C28 C 0.87182(8) 0.93761(7) 0.29369(8) 0.0477 Uani
H25 H 0.8707 0.9500 0.3017 0.0570 Uiso
C29 C 0.85798(7) 0.92105(7) 0.29663(7) 0.0380 Uani
C30 C 0.85987(6) 0.90334(6) 0.28441(6) 0.0312 Uani
H26 H 0.8502 0.8923 0.2864 0.0370 Uiso
C31 C 0.84166(7) 0.92216(7) 0.31299(7) 0.0383 Uani
N1 N 0.88727(5) 1.02456(5) 0.10714(5) 0.0285 Uani
N2 N 0.98537(5) 0.88338(5) 0.15915(5) 0.0310 Uani
N3 N 0.90248(5) 0.98453(5) 0.12495(5) 0.0287 Uani
N4 N 0.94038(5) 0.93013(5) 0.16047(5) 0.0313 Uani
N5 N 0.92406(5) 0.91252(6) 0.18884(5) 0.0335 Uani
N6 N 0.90611(5) 0.93980(5) 0.17093(5) 0.0313 Uani
N7 N 0.87228(5) 0.89942(5) 0.22438(5) 0.0309 Uani
N8 N 0.90744(6) 0.87682(5) 0.24876(5) 0.0314 Uani
N9 N 0.87489(5) 0.90109(6) 0.26975(5) 0.0323 Uani
N10 N 0.84295(6) 0.93743(5) 0.32681(6) 0.0386 Uani
S1 S 0.914801(19) 1.041831(19) 0.078027(19) 0.0434 Uani
S2 S 0.95027(3) 0.88023(7) 0.25327(3) 0.1519 Uani
C26CA C 0.76726(7) 0.86159(8) 0.33267(7) 0.0440 Uani
H23CA H 0.7571 0.8509 0.3340 0.0530 Uiso
C27CA C 0.77852(8) 0.86252(8) 0.31473(8) 0.0510 Uani
H24CA H 0.7762 0.8527 0.3039 0.0610 Uiso
C28CA C 0.79369(8) 0.87818(8) 0.31239(7) 0.0477 Uani
H25CA H 0.8017 0.8793 0.3000 0.0570 Uiso
C29CA C 0.79663(7) 0.89202(7) 0.32895(7) 0.0380 Uani
C30CA C 0.78441(6) 0.89013(6) 0.34666(6) 0.0312 Uani
H26CA H 0.7864 0.8998 0.3577 0.0370 Uiso
C31CA C 0.81299(7) 0.90834(7) 0.32784(7) 0.0383 Uani
N9CA N 0.76975(5) 0.87511(5) 0.34891(6) 0.0323 Uani
N10CA N 0.82681(6) 0.90705(6) 0.31257(5) 0.0386 Uani
C26EC C 0.83267(7) 0.98274(7) 0.38841(8) 0.0440 Uani
H23EC H 0.8340 0.9929 0.3991 0.0530 Uiso
C27EC C 0.81473(8) 0.97148(8) 0.38748(8) 0.0510 Uani
H24EC H 0.8039 0.9738 0.3973 0.0610 Uiso
C28EC C 0.81239(7) 0.95631(8) 0.37182(8) 0.0477 Uani
H25EC H 0.8000 0.9483 0.3707 0.0570 Uiso
C29EC C 0.82895(7) 0.95337(7) 0.35798(7) 0.0380 Uani
C30EC C 0.84666(6) 0.96559(6) 0.35987(6) 0.0312 Uani
H26EC H 0.8577 0.9636 0.3502 0.0370 Uiso
C31EC C 0.82784(7) 0.93701(7) 0.34166(7) 0.0383 Uani
N9EC N 0.84891(6) 0.98025(5) 0.37489(5) 0.0323 Uani
N10EC N 0.81257(5) 0.92319(6) 0.34295(6) 0.0386 Uani
Co2CA Co 0.747883(12) 0.8750 0.3750 0.0256 Uani
C6CA C 0.67701(7) 0.76013(7) 0.37656(7) 0.0397 Uani
H11CA H 0.6770 0.7490 0.3863 0.0480 Uiso
C7CA C 0.69533(7) 0.77075(8) 0.37348(8) 0.0500 Uani
H12CA H 0.7076 0.7669 0.3809 0.0600 Uiso
C8CA C 0.69589(8) 0.78737(7) 0.35922(8) 0.0483 Uani
H13CA H 0.7083 0.7952 0.3570 0.0580 Uiso
C9CA C 0.67748(6) 0.79182(6) 0.34844(7) 0.0330 Uani
C10CA C 0.65970(6) 0.78003(6) 0.35254(6) 0.0291 Uani
H14CA H 0.6473 0.7831 0.3450 0.0350 Uiso
C12CA C 0.64037(6) 0.84529(6) 0.27968(6) 0.0291 Uani
H15CA H 0.6502 0.8562 0.2812 0.0350 Uiso
C13CA C 0.64240(6) 0.82765(6) 0.29210(6) 0.0320 Uani
C14CA C 0.62773(7) 0.81146(7) 0.28988(7) 0.0423 Uani
H16CA H 0.6285 0.7993 0.2984 0.0510 Uiso
C15CA C 0.61228(8) 0.81364(7) 0.27507(8) 0.0497 Uani
H17CA H 0.6023 0.8029 0.2729 0.0600 Uiso
C16CA C 0.61146(7) 0.83189(7) 0.26329(7) 0.0400 Uani
H18CA H 0.6007 0.8332 0.2532 0.0480 Uiso
C17CA C 0.65890(6) 0.82681(6) 0.30820(6) 0.0292 Uani
C18CA C 0.68540(6) 0.84257(6) 0.32532(6) 0.0299 Uani
C19CA C 0.67565(6) 0.80988(6) 0.33423(7) 0.0319 Uani
C20CA C 0.69838(6) 0.86119(6) 0.32901(6) 0.0305 Uani
C21CA C 0.69700(7) 0.87903(7) 0.31645(7) 0.0403 Uani
H19CA H 0.6877 0.8795 0.3049 0.0480 Uiso
C22CA C 0.70943(8) 0.89590(7) 0.32116(8) 0.0457 Uani
H20CA H 0.7089 0.9082 0.3129 0.0550 Uiso
C23CA C 0.72298(7) 0.89468(7) 0.33839(7) 0.0400 Uani
H21CA H 0.7315 0.9064 0.3415 0.0480 Uiso
C24CA C 0.71226(6) 0.86152(6) 0.34586(6) 0.0284 Uani
H22CA H 0.7131 0.8495 0.3544 0.0340 Uiso
C25CA C 0.75064(7) 0.82481(8) 0.37171(9) 0.0467 Uani
N2CA N 0.65915(5) 0.76463(5) 0.36662(5) 0.0310 Uani
N3CA N 0.62495(5) 0.84752(5) 0.26547(5) 0.0287 Uani
N4CA N 0.66047(5) 0.80962(5) 0.31987(5) 0.0313 Uani
N5CA N 0.68884(5) 0.82594(5) 0.33748(6) 0.0335 Uani
N6CA N 0.67093(5) 0.84389(5) 0.31020(5) 0.0313 Uani
N7CA N 0.72438(5) 0.87772(5) 0.35058(5) 0.0309 Uani
N8CA N 0.74876(5) 0.84256(6) 0.37318(5) 0.0314 Uani
S2CA S 0.75327(3) 0.79973(3) 0.36977(7) 0.1519 Uani
Co2I Co 0.8750 0.747883(12) 0.3750 0.0256 Uani
C6FA C 0.87344(7) 0.67701(7) 0.48987(7) 0.0397 Uani
H11FA H 0.8637 0.6770 0.5010 0.0480 Uiso
C7FA C 0.87652(8) 0.69533(7) 0.47925(8) 0.0500 Uani
H12FA H 0.8691 0.7076 0.4831 0.0600 Uiso
C8FA C 0.89078(8) 0.69589(8) 0.46263(7) 0.0483 Uani
H13FA H 0.8930 0.7083 0.4548 0.0580 Uiso
C9FA C 0.90156(7) 0.67748(6) 0.45818(6) 0.0330 Uani
C10FA C 0.89746(6) 0.65970(6) 0.46997(6) 0.0291 Uani
H14FA H 0.9050 0.6473 0.4669 0.0350 Uiso
C12FA C 0.97032(6) 0.64037(6) 0.40471(6) 0.0291 Uani
H15FA H 0.9688 0.6502 0.3938 0.0350 Uiso
C13FA C 0.95790(6) 0.64240(6) 0.42235(6) 0.0320 Uani
C14FA C 0.96012(7) 0.62773(7) 0.43854(7) 0.0423 Uani
H16FA H 0.9516 0.6285 0.4507 0.0510 Uiso
C15FA C 0.97493(8) 0.61228(8) 0.43636(7) 0.0497 Uani
H17FA H 0.9771 0.6023 0.4471 0.0600 Uiso
C16FA C 0.98671(7) 0.61146(7) 0.41811(7) 0.0400 Uani
H18FA H 0.9968 0.6007 0.4168 0.0480 Uiso
C17FA C 0.94180(6) 0.65890(6) 0.42319(6) 0.0292 Uani
C18FA C 0.92468(6) 0.68540(6) 0.40743(6) 0.0299 Uani
C19FA C 0.91577(7) 0.67565(6) 0.44012(6) 0.0319 Uani
C20FA C 0.92099(6) 0.69838(6) 0.38881(6) 0.0305 Uani
C21FA C 0.93355(7) 0.69700(7) 0.37097(7) 0.0403 Uani
H19FA H 0.9451 0.6877 0.3705 0.0480 Uiso
C22FA C 0.92884(8) 0.70943(8) 0.35410(7) 0.0457 Uani
H20FA H 0.9371 0.7089 0.3418 0.0550 Uiso
C23FA C 0.91161(7) 0.72298(7) 0.35532(7) 0.0400 Uani
H21FA H 0.9085 0.7315 0.3436 0.0480 Uiso
C24FA C 0.90414(6) 0.71226(6) 0.38848(6) 0.0284 Uani
H22FA H 0.8956 0.7131 0.4005 0.0340 Uiso
C25FA C 0.87829(9) 0.75064(7) 0.42519(8) 0.0467 Uani
C26FA C 0.91733(7) 0.76726(7) 0.38841(8) 0.0440 Uani
H23FA H 0.9160 0.7571 0.3991 0.0530 Uiso
C27FA C 0.93527(8) 0.77852(8) 0.38748(8) 0.0510 Uani
H24FA H 0.9461 0.7762 0.3973 0.0610 Uiso
C28FA C 0.93761(7) 0.79369(8) 0.37182(8) 0.0477 Uani
H25FA H 0.9500 0.8017 0.3707 0.0570 Uiso
C29FA C 0.92105(7) 0.79663(7) 0.35798(7) 0.0380 Uani
C30FA C 0.90334(6) 0.78441(6) 0.35987(6) 0.0312 Uani
H26FA H 0.8923 0.7864 0.3502 0.0370 Uiso
C31FA C 0.92216(7) 0.81299(7) 0.34166(7) 0.0383 Uani
N2FA N 0.88338(5) 0.65915(5) 0.48537(5) 0.0310 Uani
N3FA N 0.98453(5) 0.62495(5) 0.40248(5) 0.0287 Uani
N4FA N 0.93013(5) 0.66047(5) 0.44038(5) 0.0313 Uani
N5FA N 0.91252(6) 0.68884(5) 0.42406(5) 0.0335 Uani
N6FA N 0.93980(5) 0.67093(5) 0.40611(5) 0.0313 Uani
N7FA N 0.89942(5) 0.72438(5) 0.37228(5) 0.0309 Uani
N8FA N 0.87682(5) 0.74876(5) 0.40744(6) 0.0314 Uani
N9FA N 0.90109(6) 0.76975(5) 0.37489(5) 0.0323 Uani
N10FA N 0.93743(5) 0.82681(6) 0.34295(6) 0.0386 Uani
S2FA S 0.88023(7) 0.75327(3) 0.45027(3) 0.1519 Uani
C26WA C 0.86159(8) 0.83267(7) 0.26726(7) 0.0440 Uani
H23WA H 0.8509 0.8340 0.2571 0.0530 Uiso
C27WA C 0.86252(8) 0.81473(8) 0.27852(8) 0.0510 Uani
H24WA H 0.8527 0.8039 0.2762 0.0610 Uiso
C28WA C 0.87818(8) 0.81239(7) 0.29369(8) 0.0477 Uani
H25WA H 0.8793 0.8000 0.3017 0.0570 Uiso
C29WA C 0.89202(7) 0.82895(7) 0.29663(7) 0.0380 Uani
C30WA C 0.89013(6) 0.84666(6) 0.28441(6) 0.0312 Uani
H26WA H 0.8998 0.8577 0.2864 0.0370 Uiso
C31WA C 0.90834(7) 0.82784(7) 0.31299(7) 0.0383 Uani
N9WA N 0.87511(5) 0.84891(6) 0.26975(5) 0.0323 Uani
N10WA N 0.90705(6) 0.81257(5) 0.32681(6) 0.0386 Uani
C26AC C 0.98274(7) 0.88841(8) 0.33267(7) 0.0440 Uani
H23AC H 0.9929 0.8991 0.3340 0.0530 Uiso
C27AC C 0.97148(8) 0.88748(8) 0.31473(8) 0.0510 Uani
H24AC H 0.9738 0.8973 0.3039 0.0610 Uiso
C28AC C 0.95631(8) 0.87182(8) 0.31239(7) 0.0477 Uani
H25AC H 0.9483 0.8707 0.3000 0.0570 Uiso
C29AC C 0.95337(7) 0.85798(7) 0.32895(7) 0.0380 Uani
C30AC C 0.96559(6) 0.85987(6) 0.34666(6) 0.0312 Uani
H26AC H 0.9636 0.8502 0.3577 0.0370 Uiso
C31AC C 0.93701(7) 0.84166(7) 0.32784(7) 0.0383 Uani
N9AC N 0.98025(5) 0.87489(5) 0.34891(6) 0.0323 Uani
N10AC N 0.92319(6) 0.84295(6) 0.31257(5) 0.0386 Uani
C6WA C 0.76013(7) 0.87656(7) 0.17701(7) 0.0397 Uani
H11WA H 0.7490 0.8863 0.1770 0.0480 Uiso
C7WA C 0.77075(8) 0.87348(8) 0.19533(7) 0.0500 Uani
H12WA H 0.7669 0.8809 0.2076 0.0600 Uiso
C8WA C 0.78737(7) 0.85922(8) 0.19589(8) 0.0483 Uani
H13WA H 0.7952 0.8570 0.2083 0.0580 Uiso
C9WA C 0.79182(6) 0.84844(7) 0.17748(6) 0.0330 Uani
C10WA C 0.78003(6) 0.85254(6) 0.15970(6) 0.0291 Uani
H14WA H 0.7831 0.8450 0.1473 0.0350 Uiso
C12WA C 0.84529(6) 0.77968(6) 0.14037(6) 0.0291 Uani
H15WA H 0.8562 0.7812 0.1502 0.0350 Uiso
C13WA C 0.82765(6) 0.79210(6) 0.14240(6) 0.0320 Uani
C14WA C 0.81146(7) 0.78988(7) 0.12773(7) 0.0423 Uani
H16WA H 0.7993 0.7984 0.1285 0.0510 Uiso
C15WA C 0.81364(7) 0.77507(8) 0.11228(8) 0.0497 Uani
H17WA H 0.8029 0.7729 0.1023 0.0600 Uiso
C16WA C 0.83189(7) 0.76329(7) 0.11146(7) 0.0400 Uani
H18WA H 0.8332 0.7532 0.1007 0.0480 Uiso
C17WA C 0.82681(6) 0.80820(6) 0.15890(6) 0.0292 Uani
C18WA C 0.84257(6) 0.82532(6) 0.18540(6) 0.0299 Uani
C19WA C 0.80988(6) 0.83423(7) 0.17565(6) 0.0319 Uani
C20WA C 0.86119(6) 0.82901(6) 0.19838(6) 0.0305 Uani
C21WA C 0.87903(7) 0.81645(7) 0.19700(7) 0.0403 Uani
H19WA H 0.8795 0.8049 0.1877 0.0480 Uiso
C22WA C 0.89590(7) 0.82116(8) 0.20943(8) 0.0457 Uani
H20WA H 0.9082 0.8129 0.2089 0.0550 Uiso
C23WA C 0.89468(7) 0.83839(7) 0.22298(7) 0.0400 Uani
H21WA H 0.9064 0.8415 0.2315 0.0480 Uiso
C24WA C 0.86152(6) 0.84586(6) 0.21226(6) 0.0284 Uani
H22WA H 0.8495 0.8544 0.2131 0.0340 Uiso
C25WA C 0.82481(8) 0.87171(9) 0.25064(7) 0.0467 Uani
N2WA N 0.76463(5) 0.86662(5) 0.15915(5) 0.0310 Uani
N3WA N 0.84752(5) 0.76547(5) 0.12495(5) 0.0287 Uani
N4WA N 0.80962(5) 0.81987(5) 0.16047(5) 0.0313 Uani
N5WA N 0.82594(5) 0.83748(6) 0.18884(5) 0.0335 Uani
N6WA N 0.84389(5) 0.81020(5) 0.17093(5) 0.0313 Uani
N7WA N 0.87772(5) 0.85058(5) 0.22438(5) 0.0309 Uani
N8WA N 0.84256(6) 0.87318(5) 0.24876(5) 0.0314 Uani
S2WA S 0.79973(3) 0.86977(7) 0.25327(3) 0.1519 Uani
C6ZA C 0.67701(7) 0.98987(7) 0.37344(7) 0.0397 Uani
H11ZA H 0.6770 1.0010 0.3637 0.0480 Uiso
C7ZA C 0.69533(7) 0.97925(8) 0.37652(8) 0.0500 Uani
H12ZA H 0.7076 0.9831 0.3691 0.0600 Uiso
C8ZA C 0.69589(8) 0.96263(7) 0.39078(8) 0.0483 Uani
H13ZA H 0.7083 0.9548 0.3930 0.0580 Uiso
C9ZA C 0.67748(6) 0.95818(6) 0.40156(7) 0.0330 Uani
C10ZA C 0.65970(6) 0.96997(6) 0.39746(6) 0.0291 Uani
H14ZA H 0.6473 0.9669 0.4050 0.0350 Uiso
C12ZA C 0.64037(6) 0.90471(6) 0.47032(6) 0.0291 Uani
H15ZA H 0.6502 0.8938 0.4688 0.0350 Uiso
C13ZA C 0.64240(6) 0.92235(6) 0.45790(6) 0.0320 Uani
C14ZA C 0.62773(7) 0.93854(7) 0.46012(7) 0.0423 Uani
H16ZA H 0.6285 0.9507 0.4516 0.0510 Uiso
C15ZA C 0.61228(8) 0.93636(7) 0.47493(8) 0.0497 Uani
H17ZA H 0.6023 0.9471 0.4771 0.0600 Uiso
C16ZA C 0.61146(7) 0.91811(7) 0.48671(7) 0.0400 Uani
H18ZA H 0.6007 0.9168 0.4968 0.0480 Uiso
C17ZA C 0.65890(6) 0.92319(6) 0.44180(6) 0.0292 Uani
C18ZA C 0.68540(6) 0.90743(6) 0.42468(6) 0.0299 Uani
C19ZA C 0.67565(6) 0.94012(6) 0.41577(7) 0.0319 Uani
C20ZA C 0.69838(6) 0.88881(6) 0.42099(6) 0.0305 Uani
C21ZA C 0.69700(7) 0.87097(7) 0.43355(7) 0.0403 Uani
H19ZA H 0.6877 0.8705 0.4451 0.0480 Uiso
C22ZA C 0.70943(8) 0.85410(7) 0.42884(8) 0.0457 Uani
H20ZA H 0.7089 0.8418 0.4371 0.0550 Uiso
C23ZA C 0.72298(7) 0.85532(7) 0.41161(7) 0.0400 Uani
H21ZA H 0.7315 0.8436 0.4085 0.0480 Uiso
C24ZA C 0.71226(6) 0.88848(6) 0.40414(6) 0.0284 Uani
H22ZA H 0.7131 0.9005 0.3956 0.0340 Uiso
C25ZA C 0.75064(7) 0.92519(8) 0.37829(9) 0.0467 Uani
N2ZA N 0.65915(5) 0.98537(5) 0.38338(5) 0.0310 Uani
N3ZA N 0.62495(5) 0.90248(5) 0.48453(5) 0.0287 Uani
N4ZA N 0.66047(5) 0.94038(5) 0.43013(5) 0.0313 Uani
N5ZA N 0.68884(5) 0.92406(5) 0.41252(6) 0.0335 Uani
N6ZA N 0.67093(5) 0.90611(5) 0.43980(5) 0.0313 Uani
N7ZA N 0.72438(5) 0.87228(5) 0.39942(5) 0.0309 Uani
N8ZA N 0.74876(5) 0.90744(6) 0.37682(5) 0.0314 Uani
S2ZA S 0.75327(3) 0.95027(3) 0.38023(7) 0.1519 Uani
Co1VC Co 0.878218(11) 1.128218(11) 0.0000 0.0241 Uani
C6VC C 0.82299(7) 1.01013(7) 0.12656(7) 0.0397 Uani
H11VC H 0.8230 0.9990 0.1363 0.0480 Uiso
C7VC C 0.80467(7) 1.02075(8) 0.12348(8) 0.0500 Uani
H12VC H 0.7924 1.0169 0.1309 0.0600 Uiso
C8VC C 0.80411(8) 1.03737(7) 0.10922(8) 0.0483 Uani
H13VC H 0.7917 1.0452 0.1070 0.0580 Uiso
C9VC C 0.82252(6) 1.04182(6) 0.09844(7) 0.0330 Uani
C10VC C 0.84030(6) 1.03003(6) 0.10254(6) 0.0291 Uani
H14VC H 0.8527 1.0331 0.0950 0.0350 Uiso
C11VC C 0.90478(6) 1.10118(6) -0.03238(6) 0.0300 Uani
C12VC C 0.85963(6) 1.09529(6) 0.02968(6) 0.0291 Uani
H15VC H 0.8498 1.1062 0.0312 0.0350 Uiso
C13VC C 0.85760(6) 1.07765(6) 0.04210(6) 0.0320 Uani
C14VC C 0.87227(7) 1.06146(7) 0.03988(7) 0.0423 Uani
H16VC H 0.8715 1.0493 0.0484 0.0510 Uiso
C15VC C 0.88772(8) 1.06364(7) 0.02507(8) 0.0497 Uani
H17VC H 0.8977 1.0529 0.0229 0.0600 Uiso
C16VC C 0.88854(7) 1.08189(7) 0.01329(7) 0.0400 Uani
H18VC H 0.8993 1.0832 0.0032 0.0480 Uiso
C17VC C 0.84110(6) 1.07681(6) 0.05820(6) 0.0292 Uani
C18VC C 0.81460(6) 1.09257(6) 0.07532(6) 0.0299 Uani
C19VC C 0.82435(6) 1.05988(6) 0.08423(7) 0.0319 Uani
C20VC C 0.80162(6) 1.11119(6) 0.07901(6) 0.0305 Uani
C21VC C 0.80300(7) 1.12903(7) 0.06645(7) 0.0403 Uani
H19VC H 0.8123 1.1295 0.0549 0.0480 Uiso
C22VC C 0.79057(8) 1.14590(7) 0.07116(8) 0.0457 Uani
H20VC H 0.7911 1.1582 0.0629 0.0550 Uiso
C23VC C 0.77702(7) 1.14468(7) 0.08839(7) 0.0400 Uani
H21VC H 0.7685 1.1564 0.0915 0.0480 Uiso
C24VC C 0.78774(6) 1.11152(6) 0.09586(6) 0.0284 Uani
H22VC H 0.7869 1.0995 0.1044 0.0340 Uiso
N1VC N 0.89286(5) 1.11273(5) -0.02456(5) 0.0285 Uani
N2VC N 0.84085(5) 1.01463(5) 0.11662(5) 0.0310 Uani
N3VC N 0.87505(5) 1.09752(5) 0.01547(5) 0.0287 Uani
N4VC N 0.83953(5) 1.05962(5) 0.06987(5) 0.0313 Uani
N5VC N 0.81116(5) 1.07594(5) 0.08748(6) 0.0335 Uani
N6VC N 0.82907(5) 1.09389(5) 0.06020(5) 0.0313 Uani
N7VC N 0.77562(5) 1.12772(5) 0.10058(5) 0.0309 Uani
S1VC S 0.921973(19) 1.085199(19) -0.041831(19) 0.0434 Uani
C11QB C 0.84522(6) 0.96762(6) 0.14882(6) 0.0300 Uani
N1QB N 0.85714(5) 0.97544(5) 0.13727(5) 0.0285 Uani
S1QB S 0.828027(19) 0.958169(19) 0.164801(19) 0.0434 Uani
C25I C 0.87171(9) 0.75064(7) 0.32481(8) 0.0467 Uani
N8I N 0.87318(5) 0.74876(5) 0.34256(6) 0.0314 Uani
S2I S 0.86977(7) 0.75327(3) 0.29973(3) 0.1519 Uani
Co1ZC Co 1.0000 0.878218(11) 0.128218(11) 0.0241 Uani
C11BG C 0.85118(6) 1.15478(6) 0.03238(6) 0.0300 Uani
N1BG N 0.86273(5) 1.14286(5) 0.02456(5) 0.0285 Uani
S1BG S 0.835199(19) 1.171973(19) 0.041831(19) 0.0434 Uani
C11EE C 1.03238(6) 0.85118(6) 0.15478(6) 0.0300 Uani
N1EE N 1.02456(5) 0.86273(5) 0.14286(5) 0.0285 Uani
S1EE S 1.041831(19) 0.835199(19) 0.171973(19) 0.0434 Uani
C11ZC C 0.96762(6) 0.90478(6) 0.10118(6) 0.0300 Uani
N1ZC N 0.97544(5) 0.89286(5) 0.11273(5) 0.0285 Uani
S1ZC S 0.958169(19) 0.921973(19) 0.085199(19) 0.0434 Uani
Co1O Co 1.0000 0.621782(11) 0.371782(11) 0.0241 Uani
Co1V Co 0.878218(11) 0.7500 0.121782(11) 0.0241 Uani
Co1CA Co 0.621782(11) 0.878218(11) 0.2500 0.0241 Uani
Co1NA Co 0.621782(11) 0.871782(11) 0.5000 0.0241 Uani
Co1UC Co 0.628218(11) 0.7500 0.371782(11) 0.0241 Uani
Co1FD Co 0.7500 0.871782(11) 0.128218(11) 0.0241 Uani
Co1MD Co 0.628218(11) 1.0000 0.378218(11) 0.0241 Uani
Co1TD Co 0.878218(11) 0.628218(11) 0.5000 0.0241 Uani
Co2F Co 1.002117(12) 0.8750 0.3750 0.0256 Uani
Co2FB Co 0.8750 1.002117(12) 0.3750 0.0256 Uani
Co2VC Co 0.752117(12) 1.1250 0.1250 0.0256 Uani
N2H N 0.88338(5) 1.15915(5) -0.01463(5) 0.0310 Uani
N2Q N 1.01463(5) 0.90915(5) 0.13338(5) 0.0310 Uani
N2T N 0.90915(5) 1.13338(5) 0.01463(5) 0.0310 Uani
N2FD N 0.86662(5) 0.98537(5) 0.09085(5) 0.0310 Uani
N3QB N 0.87495(5) 1.01547(5) 0.15248(5) 0.0287 Uani
N3ZC N 1.01547(5) 0.87505(5) 0.09752(5) 0.0287 Uani
N3EE N 0.98453(5) 0.84752(5) 0.12505(5) 0.0287 Uani
N3BG N 0.84752(5) 1.12505(5) -0.01547(5) 0.0287 Uani
N7I N 0.85058(5) 0.72438(5) 0.37772(5) 0.0309 Uani
N9I N 0.84891(6) 0.76975(5) 0.37511(5) 0.0323 Uani
N9ZA N 0.76975(5) 0.87489(5) 0.40109(6) 0.0323 Uani
loop_
_atom_site_aniso_label
_atom_site_aniso_U_11
_atom_site_aniso_U_22
_atom_site_aniso_U_33
_atom_site_aniso_U_23
_atom_site_aniso_U_13
_atom_site_aniso_U_12
C1 0.055(3) 0.072(4) 0.088(5) 0.003(3) 0.000(3) 0.002(3)
C2 0.062(4) 0.087(5) 0.068(4) -0.002(3) 0.004(3) 0.002(3)
C3 0.049(3) 0.073(4) 0.060(3) 0.000(3) 0.000(3) 0.000(3)
C4 0.075(4) 0.065(4) 0.076(4) -0.015(3) -0.020(3) 0.018(3)
C5 0.062(4) 0.085(5) 0.108(6) 0.006(4) -0.022(4) -0.013(4)
Co1 0.0275(3) 0.0172(4) 0.0275(3) 0.00194(19) 0.0047(3) -0.00194(19)
Co2 0.0272(5) 0.0308(5) 0.0188(4) 0.000 0.000 -0.0004(3)
C6 0.035 0.047 0.037 0.0127 0.0044 0.0157
C7 0.046 0.071 0.033 0.021 0.005 0.026
C8 0.041 0.063 0.041 0.016 0.011 0.021
C9 0.031 0.04 0.028 0.0049 0.0004 0.0078
C10 0.0242 0.032 0.031 0.009 0.0017 0.0044
C11 0.0284(19) 0.0255(18) 0.036(2) 0.0033(16) -0.0030(16) -0.0014(15)
C12 0.0299(19) 0.0273(19) 0.0301(19) 0.0023(15) 0.0044(15) -0.0005(15)
C13 0.034(2) 0.031(2) 0.031(2) 0.0065(16) 0.0048(16) 0.0090(16)
C14 0.034(2) 0.045(3) 0.048(3) 0.015(2) 0.0130(19) 0.0132(19)
C15 0.041(3) 0.052(3) 0.056(3) 0.026(2) 0.025(2) 0.013(2)
C16 0.040(2) 0.035(2) 0.045(2) 0.0126(19) 0.0113(19) 0.0061(18)
C17 0.0288(19) 0.0282(19) 0.0306(19) 0.0067(15) 0.0048(15) 0.0049(15)
C18 0.034(2) 0.031(2) 0.0246(18) 0.0046(15) 0.0047(15) 0.0075(16)
C19 0.0268(19) 0.043(2) 0.0259(19) 0.0043(16) 0.0045(15) 0.0066(17)
C20 0.030(2) 0.034(2) 0.0274(19) 0.0035(16) 0.0050(15) 0.0079(16)
C21 0.040(2) 0.043(2) 0.038(2) 0.0132(19) 0.0070(18) 0.0126(19)
C22 0.042(3) 0.048(3) 0.047(3) 0.015(2) 0.012(2) 0.017(2)
C23 0.033(2) 0.049(3) 0.038(2) 0.009(2) 0.0130(18) 0.0083(19)
C24 0.0274(19) 0.036(2) 0.0219(17) 0.0021(15) 0.0057(14) 0.0063(15)
C25 0.040(3) 0.078(4) 0.022(2) 0.008(2) 0.0015(17) -0.002(2)
C26 0.048(3) 0.046(3) 0.038(2) -0.0044(19) 0.018(2) -0.018(2)
C27 0.058(3) 0.045(3) 0.050(3) -0.014(2) 0.027(2) -0.024(2)
C28 0.058(3) 0.034(2) 0.051(3) -0.012(2) 0.024(2) -0.018(2)
C29 0.041(2) 0.039(2) 0.034(2) -0.0084(18) 0.0131(18) -0.0121(18)
C30 0.038(2) 0.0287(19) 0.0269(19) -0.0033(15) 0.0085(16) -0.0105(16)
C31 0.043(2) 0.036(2) 0.036(2) -0.0109(17) 0.0132(18) -0.0112(18)
N1 0.0316(17) 0.0199(15) 0.0341(17) 0.0042(13) 0.0044(14) -0.0026(13)
N2 0.0258 0.0359 0.0314 0.007 -0.0002 0.0062
N3 0.0341(18) 0.0214(16) 0.0307(17) 0.0047(12) 0.0059(13) 0.0009(13)
N4 0.0310(17) 0.0350(18) 0.0280(17) 0.0047(13) 0.0057(13) 0.0090(14)
N5 0.0308(18) 0.0411(19) 0.0287(17) 0.0067(14) 0.0063(13) 0.0095(14)
N6 0.0326(17) 0.0323(17) 0.0290(17) 0.0078(13) 0.0082(14) 0.0070(14)
N7 0.0312(17) 0.0366(19) 0.0249(16) 0.0003(14) 0.0032(13) 0.0041(14)
N8 0.031(2) 0.0376(19) 0.0256(17) 0.0029(13) -0.0011(13) 0.0013(14)
N9 0.0361(19) 0.0353(19) 0.0256(17) -0.0055(14) 0.0087(13) -0.0105(14)
N10 0.039(2) 0.0358(19) 0.041(2) -0.0118(15) 0.0143(16) -0.0117(15)
S1 0.0460(7) 0.0449(7) 0.0394(6) 0.0067(5) 0.0110(5) -0.0143(5)
S2 0.0345(9) 0.371(5) 0.0503(10) 0.0647(17) -0.0074(7) -0.0275(15)
C26CA 0.038 0.048 0.046 -0.018 0.0044 -0.018
C27CA 0.05 0.058 0.045 -0.024 0.014 -0.027
C28CA 0.051 0.058 0.034 -0.018 0.012 -0.024
C29CA 0.034 0.041 0.039 -0.0121 0.0084 -0.0131
C30CA 0.0269 0.038 0.0287 -0.0105 0.0033 -0.0085
C31CA 0.036 0.043 0.036 -0.0112 0.0109 -0.0132
N9CA 0.0256 0.0361 0.0353 -0.0105 0.0055 -0.0087
N10CA 0.041 0.039 0.0358 -0.0117 0.0118 -0.0143
C26EC 0.046 0.038 0.048 -0.018 0.018 -0.0044
C27EC 0.045 0.05 0.058 -0.027 0.024 -0.014
C28EC 0.034 0.051 0.058 -0.024 0.018 -0.012
C29EC 0.039 0.034 0.041 -0.0131 0.0121 -0.0084
C30EC 0.0287 0.0269 0.038 -0.0085 0.0105 -0.0033
C31EC 0.036 0.036 0.043 -0.0132 0.0112 -0.0109
N9EC 0.0353 0.0256 0.0361 -0.0087 0.0105 -0.0055
N10EC 0.0358 0.041 0.039 -0.0143 0.0117 -0.0118
Co2CA 0.0188 0.0272 0.0308 -0.0004 0 0
C6CA 0.037 0.035 0.047 0.0157 -0.0127 -0.0044
C7CA 0.033 0.046 0.071 0.026 -0.021 -0.005
C8CA 0.041 0.041 0.063 0.021 -0.016 -0.011
C9CA 0.028 0.031 0.04 0.0078 -0.0049 -0.0004
C10CA 0.031 0.0242 0.032 0.0044 -0.009 -0.0017
C12CA 0.0301 0.0299 0.0273 -0.0005 -0.0023 -0.0044
C13CA 0.031 0.034 0.031 0.009 -0.0065 -0.0048
C14CA 0.048 0.034 0.045 0.0132 -0.015 -0.013
C15CA 0.056 0.041 0.052 0.013 -0.026 -0.025
C16CA 0.045 0.04 0.035 0.0061 -0.0126 -0.0113
C17CA 0.0306 0.0288 0.0282 0.0049 -0.0067 -0.0048
C18CA 0.0246 0.034 0.031 0.0075 -0.0046 -0.0047
C19CA 0.0259 0.0268 0.043 0.0066 -0.0043 -0.0045
C20CA 0.0274 0.03 0.034 0.0079 -0.0035 -0.005
C21CA 0.038 0.04 0.043 0.0126 -0.0132 -0.007
C22CA 0.047 0.042 0.048 0.017 -0.015 -0.012
C23CA 0.038 0.033 0.049 0.0083 -0.009 -0.013
C24CA 0.0219 0.0274 0.036 0.0063 -0.0021 -0.0057
C25CA 0.022 0.04 0.078 -0.002 -0.008 -0.0015
N2CA 0.0314 0.0258 0.0359 0.0062 -0.007 0.0002
N3CA 0.0307 0.0341 0.0214 0.0009 -0.0047 -0.0059
N4CA 0.028 0.031 0.035 0.009 -0.0047 -0.0057
N5CA 0.0287 0.0308 0.0411 0.0095 -0.0067 -0.0063
N6CA 0.029 0.0326 0.0323 0.007 -0.0078 -0.0082
N7CA 0.0249 0.0312 0.0366 0.0041 -0.0003 -0.0032
N8CA 0.0256 0.031 0.0376 0.0013 -0.0029 0.0011
S2CA 0.0503 0.0345 0.371 -0.0275 -0.0647 0.0074
Co2I 0.0308 0.0188 0.0272 0 -0.0004 0
C6FA 0.047 0.037 0.035 0.0044 0.0157 0.0127
C7FA 0.071 0.033 0.046 0.005 0.026 0.021
C8FA 0.063 0.041 0.041 0.011 0.021 0.016
C9FA 0.04 0.028 0.031 0.0004 0.0078 0.0049
C10FA 0.032 0.031 0.0242 0.0017 0.0044 0.009
C12FA 0.0273 0.0301 0.0299 0.0044 -0.0005 0.0023
C13FA 0.031 0.031 0.034 0.0048 0.009 0.0065
C14FA 0.045 0.048 0.034 0.013 0.0132 0.015
C15FA 0.052 0.056 0.041 0.025 0.013 0.026
C16FA 0.035 0.045 0.04 0.0113 0.0061 0.0126
C17FA 0.0282 0.0306 0.0288 0.0048 0.0049 0.0067
C18FA 0.031 0.0246 0.034 0.0047 0.0075 0.0046
C19FA 0.043 0.0259 0.0268 0.0045 0.0066 0.0043
C20FA 0.034 0.0274 0.03 0.005 0.0079 0.0035
C21FA 0.043 0.038 0.04 0.007 0.0126 0.0132
C22FA 0.048 0.047 0.042 0.012 0.017 0.015
C23FA 0.049 0.038 0.033 0.013 0.0083 0.009
C24FA 0.036 0.0219 0.0274 0.0057 0.0063 0.0021
C25FA 0.078 0.022 0.04 0.0015 -0.002 0.008
C26FA 0.046 0.038 0.048 0.018 -0.018 -0.0044
C27FA 0.045 0.05 0.058 0.027 -0.024 -0.014
C28FA 0.034 0.051 0.058 0.024 -0.018 -0.012
C29FA 0.039 0.034 0.041 0.0131 -0.0121 -0.0084
C30FA 0.0287 0.0269 0.038 0.0085 -0.0105 -0.0033
C31FA 0.036 0.036 0.043 0.0132 -0.0112 -0.0109
N2FA 0.0359 0.0314 0.0258 -0.0002 0.0062 0.007
N3FA 0.0214 0.0307 0.0341 0.0059 0.0009 0.0047
N4FA 0.035 0.028 0.031 0.0057 0.009 0.0047
N5FA 0.0411 0.0287 0.0308 0.0063 0.0095 0.0067
N6FA 0.0323 0.029 0.0326 0.0082 0.007 0.0078
N7FA 0.0366 0.0249 0.0312 0.0032 0.0041 0.0003
N8FA 0.0376 0.0256 0.031 -0.0011 0.0013 0.0029
N9FA 0.0353 0.0256 0.0361 0.0087 -0.0105 -0.0055
N10FA 0.0358 0.041 0.039 0.0143 -0.0117 -0.0118
S2FA 0.371 0.0503 0.0345 -0.0074 -0.0275 0.0647
C26WA 0.048 0.046 0.038 0.0044 -0.018 -0.018
C27WA 0.058 0.045 0.05 0.014 -0.027 -0.024
C28WA 0.058 0.034 0.051 0.012 -0.024 -0.018
C29WA 0.041 0.039 0.034 0.0084 -0.0131 -0.0121
C30WA 0.038 0.0287 0.0269 0.0033 -0.0085 -0.0105
C31WA 0.043 0.036 0.036 0.0109 -0.0132 -0.0112
N9WA 0.0361 0.0353 0.0256 0.0055 -0.0087 -0.0105
N10WA 0.039 0.0358 0.041 0.0118 -0.0143 -0.0117
C26AC 0.038 0.048 0.046 0.018 -0.0044 -0.018
C27AC 0.05 0.058 0.045 0.024 -0.014 -0.027
C28AC 0.051 0.058 0.034 0.018 -0.012 -0.024
C29AC 0.034 0.041 0.039 0.0121 -0.0084 -0.0131
C30AC 0.0269 0.038 0.0287 0.0105 -0.0033 -0.0085
C31AC 0.036 0.043 0.036 0.0112 -0.0109 -0.0132
N9AC 0.0256 0.0361 0.0353 0.0105 -0.0055 -0.0087
N10AC 0.041 0.039 0.0358 0.0117 -0.0118 -0.0143
C6WA 0.035 0.047 0.037 -0.0127 -0.0044 0.0157
C7WA 0.046 0.071 0.033 -0.021 -0.005 0.026
C8WA 0.041 0.063 0.041 -0.016 -0.011 0.021
C9WA 0.031 0.04 0.028 -0.0049 -0.0004 0.0078
C10WA 0.0242 0.032 0.031 -0.009 -0.0017 0.0044
C12WA 0.0299 0.0273 0.0301 -0.0023 -0.0044 -0.0005
C13WA 0.034 0.031 0.031 -0.0065 -0.0048 0.009
C14WA 0.034 0.045 0.048 -0.015 -0.013 0.0132
C15WA 0.041 0.052 0.056 -0.026 -0.025 0.013
C16WA 0.04 0.035 0.045 -0.0126 -0.0113 0.0061
C17WA 0.0288 0.0282 0.0306 -0.0067 -0.0048 0.0049
C18WA 0.034 0.031 0.0246 -0.0046 -0.0047 0.0075
C19WA 0.0268 0.043 0.0259 -0.0043 -0.0045 0.0066
C20WA 0.03 0.034 0.0274 -0.0035 -0.005 0.0079
C21WA 0.04 0.043 0.038 -0.0132 -0.007 0.0126
C22WA 0.042 0.048 0.047 -0.015 -0.012 0.017
C23WA 0.033 0.049 0.038 -0.009 -0.013 0.0083
C24WA 0.0274 0.036 0.0219 -0.0021 -0.0057 0.0063
C25WA 0.04 0.078 0.022 -0.008 -0.0015 -0.002
N2WA 0.0258 0.0359 0.0314 -0.007 0.0002 0.0062
N3WA 0.0341 0.0214 0.0307 -0.0047 -0.0059 0.0009
N4WA 0.031 0.035 0.028 -0.0047 -0.0057 0.009
N5WA 0.0308 0.0411 0.0287 -0.0067 -0.0063 0.0095
N6WA 0.0326 0.0323 0.029 -0.0078 -0.0082 0.007
N7WA 0.0312 0.0366 0.0249 -0.0003 -0.0032 0.0041
N8WA 0.031 0.0376 0.0256 -0.0029 0.0011 0.0013
S2WA 0.0345 0.371 0.0503 -0.0647 0.0074 -0.0275
C6ZA 0.037 0.035 0.047 0.0157 0.0127 0.0044
C7ZA 0.033 0.046 0.071 0.026 0.021 0.005
C8ZA 0.041 0.041 0.063 0.021 0.016 0.011
C9ZA 0.028 0.031 0.04 0.0078 0.0049 0.0004
C10ZA 0.031 0.0242 0.032 0.0044 0.009 0.0017
C12ZA 0.0301 0.0299 0.0273 -0.0005 0.0023 0.0044
C13ZA 0.031 0.034 0.031 0.009 0.0065 0.0048
C14ZA 0.048 0.034 0.045 0.0132 0.015 0.013
C15ZA 0.056 0.041 0.052 0.013 0.026 0.025
C16ZA 0.045 0.04 0.035 0.0061 0.0126 0.0113
C17ZA 0.0306 0.0288 0.0282 0.0049 0.0067 0.0048
C18ZA 0.0246 0.034 0.031 0.0075 0.0046 0.0047
C19ZA 0.0259 0.0268 0.043 0.0066 0.0043 0.0045
C20ZA 0.0274 0.03 0.034 0.0079 0.0035 0.005
C21ZA 0.038 0.04 0.043 0.0126 0.0132 0.007
C22ZA 0.047 0.042 0.048 0.017 0.015 0.012
C23ZA 0.038 0.033 0.049 0.0083 0.009 0.013
C24ZA 0.0219 0.0274 0.036 0.0063 0.0021 0.0057
C25ZA 0.022 0.04 0.078 -0.002 0.008 0.0015
N2ZA 0.0314 0.0258 0.0359 0.0062 0.007 -0.0002
N3ZA 0.0307 0.0341 0.0214 0.0009 0.0047 0.0059
N4ZA 0.028 0.031 0.035 0.009 0.0047 0.0057
N5ZA 0.0287 0.0308 0.0411 0.0095 0.0067 0.0063
N6ZA 0.029 0.0326 0.0323 0.007 0.0078 0.0082
N7ZA 0.0249 0.0312 0.0366 0.0041 0.0003 0.0032
N8ZA 0.0256 0.031 0.0376 0.0013 0.0029 -0.0011
S2ZA 0.0503 0.0345 0.371 -0.0275 0.0647 -0.0074
Co1VC 0.0275 0.0275 0.0172 -0.00194 0.00194 0.0047
C6VC 0.037 0.035 0.047 0.0157 0.0127 0.0044
C7VC 0.033 0.046 0.071 0.026 0.021 0.005
C8VC 0.041 0.041 0.063 0.021 0.016 0.011
C9VC 0.028 0.031 0.04 0.0078 0.0049 0.0004
C10VC 0.031 0.0242 0.032 0.0044 0.009 0.0017
C11VC 0.036 0.0284 0.0255 -0.0014 0.0033 -0.003
C12VC 0.0301 0.0299 0.0273 -0.0005 0.0023 0.0044
C13VC 0.031 0.034 0.031 0.009 0.0065 0.0048
C14VC 0.048 0.034 0.045 0.0132 0.015 0.013
C15VC 0.056 0.041 0.052 0.013 0.026 0.025
C16VC 0.045 0.04 0.035 0.0061 0.0126 0.0113
C17VC 0.0306 0.0288 0.0282 0.0049 0.0067 0.0048
C18VC 0.0246 0.034 0.031 0.0075 0.0046 0.0047
C19VC 0.0259 0.0268 0.043 0.0066 0.0043 0.0045
C20VC 0.0274 0.03 0.034 0.0079 0.0035 0.005
C21VC 0.038 0.04 0.043 0.0126 0.0132 0.007
C22VC 0.047 0.042 0.048 0.017 0.015 0.012
C23VC 0.038 0.033 0.049 0.0083 0.009 0.013
C24VC 0.0219 0.0274 0.036 0.0063 0.0021 0.0057
N1VC 0.0341 0.0316 0.0199 -0.0026 0.0042 0.0044
N2VC 0.0314 0.0258 0.0359 0.0062 0.007 -0.0002
N3VC 0.0307 0.0341 0.0214 0.0009 0.0047 0.0059
N4VC 0.028 0.031 0.035 0.009 0.0047 0.0057
N5VC 0.0287 0.0308 0.0411 0.0095 0.0067 0.0063
N6VC 0.029 0.0326 0.0323 0.007 0.0078 0.0082
N7VC 0.0249 0.0312 0.0366 0.0041 0.0003 0.0032
S1VC 0.0394 0.046 0.0449 -0.0143 0.0067 0.011
C11QB 0.036 0.0255 0.0284 0.0014 -0.003 -0.0033
N1QB 0.0341 0.0199 0.0316 0.0026 0.0044 -0.0042
S1QB 0.0394 0.0449 0.046 0.0143 0.011 -0.0067
C25I 0.078 0.022 0.04 -0.0015 -0.002 -0.008
N8I 0.0376 0.0256 0.031 0.0011 0.0013 -0.0029
S2I 0.371 0.0503 0.0345 0.0074 -0.0275 -0.0647
Co1ZC 0.0172 0.0275 0.0275 0.0047 -0.00194 0.00194
C11BG 0.0284 0.036 0.0255 -0.0033 0.0014 -0.003
N1BG 0.0316 0.0341 0.0199 -0.0042 0.0026 0.0044
S1BG 0.046 0.0394 0.0449 -0.0067 0.0143 0.011
C11EE 0.0255 0.0284 0.036 -0.003 -0.0033 0.0014
N1EE 0.0199 0.0316 0.0341 0.0044 -0.0042 0.0026
S1EE 0.0449 0.046 0.0394 0.011 -0.0067 0.0143
C11ZC 0.0255 0.036 0.0284 -0.003 -0.0014 0.0033
N1ZC 0.0199 0.0341 0.0316 0.0044 -0.0026 0.0042
S1ZC 0.0449 0.0394 0.046 0.011 -0.0143 0.0067
Co1O 0.0172 0.0275 0.0275 0.0047 -0.00194 0.00194
Co1V 0.0275 0.0172 0.0275 -0.00194 -0.0047 -0.00194
Co1CA 0.0275 0.0275 0.0172 -0.00194 -0.00194 -0.0047
Co1NA 0.0275 0.0275 0.0172 -0.00194 0.00194 0.0047
Co1UC 0.0275 0.0172 0.0275 0.00194 -0.0047 0.00194
Co1FD 0.0172 0.0275 0.0275 -0.0047 0.00194 0.00194
Co1MD 0.0275 0.0172 0.0275 0.00194 0.0047 -0.00194
Co1TD 0.0275 0.0275 0.0172 -0.00194 0.00194 0.0047
Co2F 0.0188 0.0272 0.0308 0.0004 0 0
Co2FB 0.0308 0.0188 0.0272 0 0.0004 0
Co2VC 0.0188 0.0272 0.0308 -0.0004 0 0
N2H 0.0359 0.0314 0.0258 -0.0002 0.0062 0.007
N2Q 0.0258 0.0314 0.0359 0.007 -0.0062 0.0002
N2T 0.0314 0.0359 0.0258 -0.0062 0.0002 0.007
N2FD 0.0359 0.0258 0.0314 0.0002 0.007 -0.0062
N3QB 0.0307 0.0214 0.0341 -0.0009 0.0059 -0.0047
N3ZC 0.0214 0.0307 0.0341 0.0059 0.0009 0.0047
N3EE 0.0214 0.0341 0.0307 0.0059 -0.0047 -0.0009
N3BG 0.0341 0.0307 0.0214 -0.0047 -0.0009 0.0059
N7I 0.0366 0.0249 0.0312 -0.0032 0.0041 -0.0003
N9I 0.0353 0.0256 0.0361 -0.0087 -0.0105 0.0055
N9ZA 0.0256 0.0361 0.0353 -0.0105 -0.0055 0.0087
loop_
_geom_bond_atom_site_label_1
_geom_bond_atom_site_label_2
_geom_bond_site_symmetry_1
_geom_bond_site_symmetry_2
C1 H1 1_555 1_555
H2 C1 1_555 1_555
C2 C1 1_555 1_555
H3 C2 1_555 1_555
H4 C2 1_555 1_555
C3 C2 1_555 1_555
H5 C3 1_555 1_555
H6 C3 1_555 1_555
C4 C3 1_555 1_555
H7 C4 1_555 1_555
H8 C4 1_555 1_555
C5 C1 1_555 1_555
H9 C5 1_555 1_555
H10 C5 1_555 1_555
Co1 N1 1_555 1_555
Co2 N7 1_555 1_555
C6 H11 1_555 1_555
C7 C6 1_555 1_555
H12 C7 1_555 1_555
C8 C7 1_555 1_555
H13 C8 1_555 1_555
C9 C8 1_555 1_555
C10 C9 1_555 1_555
H14 C10 1_555 1_555
C11 N1 1_555 1_555
C12 H15 1_555 1_555
C13 C12 1_555 1_555
C14 C13 1_555 1_555
H16 C14 1_555 1_555
C15 C14 1_555 1_555
H17 C15 1_555 1_555
C16 C15 1_555 1_555
H18 C16 1_555 1_555
C17 C13 1_555 1_555
C18 C20 1_555 1_555
C19 C9 1_555 1_555
C20 C21 1_555 1_555
C21 H19 1_555 1_555
C22 C21 1_555 1_555
H20 C22 1_555 1_555
C23 C22 1_555 1_555
H21 C23 1_555 1_555
C24 C20 1_555 1_555
H22 C24 1_555 1_555
C25 N8 1_555 1_555
C26 H23 1_555 1_555
C27 C26 1_555 1_555
H24 C27 1_555 1_555
C28 C27 1_555 1_555
H25 C28 1_555 1_555
C29 C28 1_555 1_555
C30 C29 1_555 1_555
H26 C30 1_555 1_555
C31 C29 1_555 1_555
N2 C6 1_555 1_555
N3 Co1 1_555 1_555
N4 C17 1_555 1_555
N5 C18 1_555 1_555
N6 C17 1_555 1_555
N7 C23 1_555 1_555
N8 Co2 1_555 1_555
N9 Co2 1_555 1_555
N10 C31 1_555 1_555
S1 C11 1_555 1_555
S2 C25 1_555 1_555
C26CA H23CA 1_555 1_555
C27CA C26CA 1_555 1_555
H24CA C27CA 1_555 1_555
C28CA C27CA 1_555 1_555
H25CA C28CA 1_555 1_555
C29CA C28CA 1_555 1_555
C30CA C29CA 1_555 1_555
H26CA C30CA 1_555 1_555
C31CA C29CA 1_555 1_555
N9CA C26CA 1_555 1_555
N10CA C31 1_555 1_555
C26EC H23EC 1_555 1_555
C27EC C26EC 1_555 1_555
H24EC C27EC 1_555 1_555
C28EC C27EC 1_555 1_555
H25EC C28EC 1_555 1_555
C29EC C28EC 1_555 1_555
C30EC C29EC 1_555 1_555
H26EC C30EC 1_555 1_555
C31EC N10 1_555 1_555
N9EC C26EC 1_555 1_555
N10EC C31CA 1_555 1_555
Co2CA N9CA 1_555 1_555
C6CA H11CA 1_555 1_555
C7CA C6CA 1_555 1_555
H12CA C7CA 1_555 1_555
C8CA C7CA 1_555 1_555
H13CA C8CA 1_555 1_555
C9CA C8CA 1_555 1_555
C10CA C9CA 1_555 1_555
H14CA C10CA 1_555 1_555
C12CA H15CA 1_555 1_555
C13CA C12CA 1_555 1_555
C14CA C13CA 1_555 1_555
H16CA C14CA 1_555 1_555
C15CA C14CA 1_555 1_555
H17CA C15CA 1_555 1_555
C16CA C15CA 1_555 1_555
H18CA C16CA 1_555 1_555
C17CA C13CA 1_555 1_555
C18CA C20CA 1_555 1_555
C19CA C9CA 1_555 1_555
C20CA C21CA 1_555 1_555
C21CA H19CA 1_555 1_555
C22CA C21CA 1_555 1_555
H20CA C22CA 1_555 1_555
C23CA C22CA 1_555 1_555
H21CA C23CA 1_555 1_555
C24CA C20CA 1_555 1_555
H22CA C24CA 1_555 1_555
C25CA N8CA 1_555 1_555
N2CA C6CA 1_555 1_555
N3CA C12CA 1_555 1_555
N4CA C17CA 1_555 1_555
N5CA C18CA 1_555 1_555
N6CA C17CA 1_555 1_555
N7CA Co2CA 1_555 1_555
N8CA Co2CA 1_555 1_555
S2CA C25CA 1_555 1_555
Co2I N7FA 1_555 1_555
C6FA H11FA 1_555 1_555
C7FA C6FA 1_555 1_555
H12FA C7FA 1_555 1_555
C8FA C7FA 1_555 1_555
H13FA C8FA 1_555 1_555
C9FA C8FA 1_555 1_555
C10FA C9FA 1_555 1_555
H14FA C10FA 1_555 1_555
C12FA H15FA 1_555 1_555
C13FA C12FA 1_555 1_555
C14FA C13FA 1_555 1_555
H16FA C14FA 1_555 1_555
C15FA C14FA 1_555 1_555
H17FA C15FA 1_555 1_555
C16FA C15FA 1_555 1_555
H18FA C16FA 1_555 1_555
C17FA C13FA 1_555 1_555
C18FA C20FA 1_555 1_555
C19FA C9FA 1_555 1_555
C20FA C21FA 1_555 1_555
C21FA H19FA 1_555 1_555
C22FA C21FA 1_555 1_555
H20FA C22FA 1_555 1_555
C23FA C22FA 1_555 1_555
H21FA C23FA 1_555 1_555
C24FA C20FA 1_555 1_555
H22FA C24FA 1_555 1_555
C25FA N8FA 1_555 1_555
C26FA H23FA 1_555 1_555
C27FA C26FA 1_555 1_555
H24FA C27FA 1_555 1_555
C28FA C27FA 1_555 1_555
H25FA C28FA 1_555 1_555
C29FA C28FA 1_555 1_555
C30FA C29FA 1_555 1_555
H26FA C30FA 1_555 1_555
C31FA C29FA 1_555 1_555
N2FA C6FA 1_555 1_555
N3FA C12FA 1_555 1_555
N4FA C17FA 1_555 1_555
N5FA C18FA 1_555 1_555
N6FA C17FA 1_555 1_555
N7FA C23FA 1_555 1_555
N8FA Co2I 1_555 1_555
N9FA Co2I 1_555 1_555
N10FA C31FA 1_555 1_555
S2FA C25FA 1_555 1_555
C26WA H23WA 1_555 1_555
C27WA C26WA 1_555 1_555
H24WA C27WA 1_555 1_555
C28WA C27WA 1_555 1_555
H25WA C28WA 1_555 1_555
C29WA C28WA 1_555 1_555
C30WA C29WA 1_555 1_555
H26WA C30WA 1_555 1_555
C31WA C29WA 1_555 1_555
N9WA Co2 1_555 1_555
N10WA C31FA 1_555 1_555
C26AC H23AC 1_555 1_555
C27AC C26AC 1_555 1_555
H24AC C27AC 1_555 1_555
C28AC C27AC 1_555 1_555
H25AC C28AC 1_555 1_555
C29AC C28AC 1_555 1_555
C30AC C29AC 1_555 1_555
H26AC C30AC 1_555 1_555
C31AC N10FA 1_555 1_555
N9AC C26AC 1_555 1_555
N10AC C31WA 1_555 1_555
C6WA H11WA 1_555 1_555
C7WA C6WA 1_555 1_555
H12WA C7WA 1_555 1_555
C8WA C7WA 1_555 1_555
H13WA C8WA 1_555 1_555
C9WA C8WA 1_555 1_555
C10WA C9WA 1_555 1_555
H14WA C10WA 1_555 1_555
C12WA H15WA 1_555 1_555
C13WA C12WA 1_555 1_555
C14WA C13WA 1_555 1_555
H16WA C14WA 1_555 1_555
C15WA C14WA 1_555 1_555
H17WA C15WA 1_555 1_555
C16WA C15WA 1_555 1_555
H18WA C16WA 1_555 1_555
C17WA C13WA 1_555 1_555
C18WA C20WA 1_555 1_555
C19WA C9WA 1_555 1_555
C20WA C21WA 1_555 1_555
C21WA H19WA 1_555 1_555
C22WA C21WA 1_555 1_555
H20WA C22WA 1_555 1_555
C23WA C22WA 1_555 1_555
H21WA C23WA 1_555 1_555
C24WA C20WA 1_555 1_555
H22WA C24WA 1_555 1_555
C25WA N8WA 1_555 1_555
N2WA C6WA 1_555 1_555
N3WA C12WA 1_555 1_555
N4WA C17WA 1_555 1_555
N5WA C18WA 1_555 1_555
N6WA C17WA 1_555 1_555
N7WA Co2 1_555 1_555
N8WA Co2 1_555 1_555
S2WA C25WA 1_555 1_555
C6ZA H11ZA 1_555 1_555
C7ZA C6ZA 1_555 1_555
H12ZA C7ZA 1_555 1_555
C8ZA C7ZA 1_555 1_555
H13ZA C8ZA 1_555 1_555
C9ZA C8ZA 1_555 1_555
C10ZA C9ZA 1_555 1_555
H14ZA C10ZA 1_555 1_555
C12ZA H15ZA 1_555 1_555
C13ZA C12ZA 1_555 1_555
C14ZA C13ZA 1_555 1_555
H16ZA C14ZA 1_555 1_555
C15ZA C14ZA 1_555 1_555
H17ZA C15ZA 1_555 1_555
C16ZA C15ZA 1_555 1_555
H18ZA C16ZA 1_555 1_555
C17ZA C13ZA 1_555 1_555
C18ZA C20ZA 1_555 1_555
C19ZA C9ZA 1_555 1_555
C20ZA C21ZA 1_555 1_555
C21ZA H19ZA 1_555 1_555
C22ZA C21ZA 1_555 1_555
H20ZA C22ZA 1_555 1_555
C23ZA C22ZA 1_555 1_555
H21ZA C23ZA 1_555 1_555
C24ZA C20ZA 1_555 1_555
H22ZA C24ZA 1_555 1_555
C25ZA N8ZA 1_555 1_555
N2ZA C6ZA 1_555 1_555
N3ZA C12ZA 1_555 1_555
N4ZA C17ZA 1_555 1_555
N5ZA C18ZA 1_555 1_555
N6ZA C17ZA 1_555 1_555
N7ZA Co2CA 1_555 1_555
N8ZA Co2CA 1_555 1_555
S2ZA C25ZA 1_555 1_555
Co1VC N1VC 1_555 1_555
C6VC H11VC 1_555 1_555
C7VC C6VC 1_555 1_555
H12VC C7VC 1_555 1_555
C8VC C7VC 1_555 1_555
H13VC C8VC 1_555 1_555
C9VC C8VC 1_555 1_555
C10VC C9VC 1_555 1_555
H14VC C10VC 1_555 1_555
C11VC N1VC 1_555 1_555
C12VC H15VC 1_555 1_555
C13VC C12VC 1_555 1_555
C14VC C13VC 1_555 1_555
H16VC C14VC 1_555 1_555
C15VC C14VC 1_555 1_555
H17VC C15VC 1_555 1_555
C16VC C15VC 1_555 1_555
H18VC C16VC 1_555 1_555
C17VC C13VC 1_555 1_555
C18VC C20VC 1_555 1_555
C19VC C9VC 1_555 1_555
C20VC C21VC 1_555 1_555
C21VC H19VC 1_555 1_555
C22VC C21VC 1_555 1_555
H20VC C22VC 1_555 1_555
C23VC C22VC 1_555 1_555
H21VC C23VC 1_555 1_555
C24VC C20VC 1_555 1_555
H22VC C24VC 1_555 1_555
N2VC Co1 1_555 1_555
N3VC Co1VC 1_555 1_555
N4VC C17VC 1_555 1_555
N5VC C18VC 1_555 1_555
N6VC C17VC 1_555 1_555
N7VC C23VC 1_555 1_555
S1VC C11VC 1_555 1_555
C11QB N1QB 1_555 1_555
N1QB Co1 1_555 1_555
S1QB C11QB 1_555 1_555
C25I N8I 1_555 1_555
N8I Co2I 1_555 1_555
S2I C25I 1_555 1_555
Co1ZC N2 1_555 1_555
C11BG N1BG 1_555 1_555
N1BG Co1VC 1_555 1_555
S1BG C11BG 1_555 1_555
C11EE N1EE 1_555 1_555
N1EE Co1ZC 1_555 1_555
S1EE C11EE 1_555 1_555
C11ZC N1ZC 1_555 1_555
N1ZC Co1ZC 1_555 1_555
S1ZC C11ZC 1_555 1_555
Co1O N3FA 1_555 1_555
Co1V N3WA 1_555 1_555
Co1CA N3CA 1_555 1_555
Co1NA N3ZA 1_555 1_555
Co1UC N2CA 1_555 1_555
Co1FD N2WA 1_555 1_555
Co1MD N2ZA 1_555 1_555
Co1TD N2FA 1_555 1_555
Co2F N9AC 1_555 1_555
Co2FB N9EC 1_555 1_555
Co2VC N7VC 1_555 1_555
N2H Co1VC 1_555 1_555
N2Q Co1ZC 1_555 1_555
N2T Co1VC 1_555 1_555
N2FD Co1 1_555 1_555
N3QB Co1 1_555 1_555
N3ZC Co1ZC 1_555 1_555
N3EE Co1ZC 1_555 1_555
N3BG Co1VC 1_555 1_555
N7I Co2I 1_555 1_555
N9I Co2I 1_555 1_555
N9ZA Co2CA 1_555 1_555
C4 C5 1_555 1_555
C10 N2 1_555 1_555
C12 N3 1_555 1_555
C16 N3 1_555 1_555
C18 N6 1_555 1_555
C19 N4 1_555 1_555
C19 N5 1_555 1_555
C24 N7 1_555 1_555
C26 N9 1_555 1_555
C30 N9 1_555 1_555
C30CA N9CA 1_555 1_555
C31CA N10CA 1_555 1_555
C29EC C31EC 1_555 1_555
C30EC N9EC 1_555 1_555
C31EC N10EC 1_555 1_555
C10CA N2CA 1_555 1_555
C16CA N3CA 1_555 1_555
C18CA N6CA 1_555 1_555
C19CA N4CA 1_555 1_555
C19CA N5CA 1_555 1_555
C23CA N7CA 1_555 1_555
C24CA N7CA 1_555 1_555
C10FA N2FA 1_555 1_555
C16FA N3FA 1_555 1_555
C18FA N6FA 1_555 1_555
C19FA N4FA 1_555 1_555
C19FA N5FA 1_555 1_555
C24FA N7FA 1_555 1_555
C26FA N9FA 1_555 1_555
C30FA N9FA 1_555 1_555
C26WA N9WA 1_555 1_555
C30WA N9WA 1_555 1_555
C31WA N10WA 1_555 1_555
C29AC C31AC 1_555 1_555
C30AC N9AC 1_555 1_555
C31AC N10AC 1_555 1_555
C10WA N2WA 1_555 1_555
C16WA N3WA 1_555 1_555
C18WA N6WA 1_555 1_555
C19WA N4WA 1_555 1_555
C19WA N5WA 1_555 1_555
C23WA N7WA 1_555 1_555
C24WA N7WA 1_555 1_555
C10ZA N2ZA 1_555 1_555
C16ZA N3ZA 1_555 1_555
C18ZA N6ZA 1_555 1_555
C19ZA N4ZA 1_555 1_555
C19ZA N5ZA 1_555 1_555
C23ZA N7ZA 1_555 1_555
C24ZA N7ZA 1_555 1_555
C6VC N2VC 1_555 1_555
C10VC N2VC 1_555 1_555
C12VC N3VC 1_555 1_555
C16VC N3VC 1_555 1_555
C18VC N6VC 1_555 1_555
C19VC N4VC 1_555 1_555
C19VC N5VC 1_555 1_555
C24VC N7VC 1_555 1_555

#END
