
#######################################################################
#
#                 Cambridge Crystallographic Data Centre
#                                CCDC 
#
#######################################################################
#
# If this CIF has been generated from an entry in the Cambridge 
# Structural Database, then it will include bibliographic, chemical, 
# crystal, experimental, refinement or atomic coordinate data resulting 
# from the CCDC's data processing and validation procedures.
#
#######################################################################

data_LIVLUZ
_chemical_formula_moiety         '(C24 H26 Cd1 N8 O6)n'
_symmetry_cell_setting           orthorhombic
_symmetry_space_group_name_H-M   'P b c 21'
_symmetry_Int_Tables_number      29
_space_group_name_Hall           'P 2c -2b'
loop_
_symmetry_equiv_pos_site_id
_symmetry_equiv_pos_as_xyz
1 x,y,z
2 -x,-y,1/2+z
3 -x,1/2+y,z
4 x,1/2-y,1/2+z
_cell_length_a                   8.254(3)
_cell_length_b                   18.896(5)
_cell_length_c                   18.006(7)
_cell_angle_alpha                90
_cell_angle_beta                 90
_cell_angle_gamma                90
_cell_volume                     2808.35
loop_
_atom_site_label
_atom_site_type_symbol
_atom_site_fract_x
_atom_site_fract_y
_atom_site_fract_z
_atom_site_U_iso_or_equiv
_atom_site_thermal_displace_type
Cd1 Cd 0.51269(4) 0.97273(2) 0.90663(4) 0.0144 Uani
O1 O 1.3732(5) 1.3639(2) 0.9388(3) 0.0187 Uani
O2 O 1.2148(5) 1.4426(2) 0.8823(2) 0.0207 Uani
O3 O -0.2417(5) 1.0016(2) 0.4339(2) 0.0223 Uani
O4 O -0.4132(6) 1.0110(3) 0.5280(3) 0.0240 Uani
N1 N 0.5751(6) 1.0889(3) 0.8990(4) 0.0203 Uani
N2 N 0.7068(5) 1.1889(2) 0.9128(4) 0.0153 Uani
N3 N 0.5439(7) 1.2051(3) 0.9198(5) 0.0260 Uani
N4 N 0.4184(6) 0.9412(3) 0.7940(3) 0.0147 Uani
N5 N 0.2549(6) 0.9374(3) 0.6968(3) 0.0147 Uani
N6 N 0.3846(8) 0.8920(4) 0.6819(4) 0.0250 Uani
C1 C 0.4627(6) 1.1419(3) 0.9121(6) 0.0227 Uani
H1 H 0.3511 1.1359 0.9151 0.0270 Uiso
C2 C 0.7191(7) 1.1185(3) 0.8994(5) 0.0147 Uani
H2 H 0.8160 1.0946 0.8915 0.0180 Uiso
C3 C 0.8385(7) 1.2375(3) 0.9142(5) 0.0163 Uani
C4 C 0.9868(8) 1.2168(3) 0.9451(3) 0.0183 Uani
H3 H 0.9985 1.1720 0.9658 0.0220 Uiso
C5 C 1.1158(7) 1.2636(3) 0.9445(4) 0.0153 Uani
H4 H 1.2158 1.2494 0.9630 0.0190 Uiso
C6 C 1.0975(7) 1.3319(3) 0.9163(4) 0.0127 Uani
C7 C 0.9468(8) 1.3525(3) 0.8877(3) 0.0193 Uani
H5 H 0.9336 1.3978 0.8685 0.0230 Uiso
C8 C 0.8167(7) 1.3056(3) 0.8878(3) 0.0187 Uani
H6 H 0.7159 1.3199 0.8702 0.0220 Uiso
C9 C 1.2370(6) 1.3828(3) 0.9118(5) 0.0173 Uani
C10 C 0.4854(9) 0.8947(4) 0.7421(3) 0.0247 Uani
H7 H 0.5820 0.8699 0.7475 0.0290 Uiso
C11 C 0.2826(7) 0.9648(3) 0.7655(4) 0.0163 Uani
H8 H 0.2137 0.9964 0.7893 0.0190 Uiso
C12 C 0.1220(8) 0.9522(3) 0.6489(4) 0.0177 Uani
C13 C 0.1529(8) 0.9639(4) 0.5741(4) 0.0210 Uani
H9 H 0.2580 0.9613 0.5556 0.0250 Uiso
C14 C 0.0234(8) 0.9797(3) 0.5269(4) 0.0203 Uani
H10 H 0.0424 0.9874 0.4767 0.0240 Uiso
C15 C -0.1340(8) 0.9839(3) 0.5545(4) 0.0167 Uani
C16 C -0.1612(8) 0.9729(4) 0.6301(4) 0.0207 Uani
H11 H -0.2661 0.9760 0.6487 0.0250 Uiso
C17 C -0.0339(8) 0.9572(3) 0.6783(4) 0.0197 Uani
H12 H -0.0524 0.9502 0.7287 0.0240 Uiso
C18 C -0.2725(8) 0.9998(3) 0.5027(4) 0.0207 Uani
Cd1A Cd -0.51269(4) 1.02727(2) 0.40663(4) 0.0144 Uani
Cd1B Cd 1.48731(4) 1.47273(2) 0.90663(4) 0.0144 Uani
O1B O 0.6268(5) 0.8639(2) 0.9388(3) 0.0187 Uani
O2B O 0.7852(5) 0.9426(2) 0.8823(2) 0.0207 Uani
O3A O 0.2417(5) 0.9984(2) 0.9339(2) 0.0223 Uani
O4A O 0.4132(6) 0.9890(3) 1.0280(3) 0.0240 Uani
O5 O 0.0647(8) 1.1172(3) 0.7783(3) 0.0450 Uani
N7 N 0.0737(10) 1.2005(4) 0.6862(4) 0.0407 Uani
C19 C 0.0276(14) 1.1527(4) 0.6245(5) 0.0603 Uani
H13 H 0.0258 1.1788 0.5788 0.0910 Uiso
H14 H -0.0780 1.1334 0.6339 0.0910 Uiso
H15 H 0.1050 1.1149 0.6208 0.0910 Uiso
C20 C 0.0891(17) 1.2749(5) 0.6661(6) 0.0690 Uani
H16 H 0.0790 1.2799 0.6132 0.1040 Uiso
H17 H 0.1930 1.2922 0.6816 0.1040 Uiso
H18 H 0.0053 1.3016 0.6902 0.1040 Uiso
C21 C 0.0809(11) 1.1784(5) 0.7574(5) 0.0400 Uani
H19 H 0.0998 1.2125 0.7936 0.0480 Uiso
O6 O 0.6672(8) 1.2456(3) 0.5802(3) 0.0497 Uani
N8 N 0.5655(8) 1.1639(3) 0.6611(3) 0.0293 Uani
C22 C 0.4815(11) 1.0994(5) 0.6765(6) 0.0577 Uani
H20 H 0.4864 1.0896 0.7288 0.0860 Uiso
H21 H 0.5314 1.0613 0.6496 0.0860 Uiso
H22 H 0.3704 1.1038 0.6615 0.0860 Uiso
C23 C 0.6452(13) 1.1941(6) 0.7253(5) 0.0607 Uani
H23 H 0.6182 1.1669 0.7687 0.0910 Uiso
H24 H 0.6100 1.2421 0.7320 0.0910 Uiso
H25 H 0.7604 1.1932 0.7180 0.0910 Uiso
C24 C 0.5844(10) 1.1930(4) 0.5938(4) 0.0363 Uani
H26 H 0.5307 1.1718 0.5543 0.0440 Uiso
loop_
_atom_site_aniso_label
_atom_site_aniso_U_11
_atom_site_aniso_U_22
_atom_site_aniso_U_33
_atom_site_aniso_U_23
_atom_site_aniso_U_13
_atom_site_aniso_U_12
Cd1 0.01612(17) 0.00892(17) 0.01809(17) 0.0006(3) -0.0007(3) -0.00005(18)
O1 0.017(2) 0.009(2) 0.030(2) 0.003(2) -0.0079(19) -0.0016(19)
O2 0.019(2) 0.007(2) 0.036(3) 0.0065(19) 0.0019(18) 0.0002(18)
O3 0.023(2) 0.024(3) 0.020(2) 0.006(2) -0.0044(17) -0.003(2)
O4 0.019(3) 0.020(3) 0.033(3) -0.006(2) 0.003(2) 0.008(2)
N1 0.013(2) 0.015(2) 0.033(4) -0.003(3) 0.000(3) -0.0004(19)
N2 0.015(2) 0.008(2) 0.023(3) -0.005(3) 0.001(3) -0.0015(17)
N3 0.015(3) 0.011(3) 0.052(7) 0.000(4) 0.004(3) 0.002(2)
N4 0.018(3) 0.011(3) 0.015(3) 0.002(2) 0.000(2) 0.001(2)
N5 0.019(3) 0.008(3) 0.017(3) -0.004(2) 0.001(2) -0.001(2)
N6 0.027(4) 0.023(4) 0.025(4) -0.003(3) -0.003(3) 0.011(3)
C1 0.011(3) 0.016(3) 0.041(4) -0.002(5) -0.005(4) -0.001(2)
C2 0.019(3) 0.008(3) 0.017(3) 0.001(3) -0.002(3) 0.006(2)
C3 0.021(3) 0.009(3) 0.019(4) -0.004(3) -0.005(3) -0.003(2)
C4 0.022(3) 0.008(3) 0.025(3) 0.003(3) -0.001(3) 0.004(3)
C5 0.016(3) 0.009(3) 0.021(3) -0.006(3) 0.000(3) 0.002(3)
C6 0.019(3) 0.007(3) 0.012(4) -0.002(3) 0.001(3) 0.002(2)
C7 0.025(3) 0.006(3) 0.027(5) 0.003(3) -0.002(2) -0.001(2)
C8 0.019(3) 0.011(3) 0.026(5) -0.005(3) -0.005(2) 0.000(2)
C9 0.017(3) 0.015(3) 0.020(3) -0.002(4) 0.009(4) -0.003(2)
C10 0.027(4) 0.027(4) 0.020(3) -0.002(3) 0.000(3) 0.013(3)
C11 0.024(3) 0.004(3) 0.021(3) -0.001(3) 0.001(3) 0.000(3)
C12 0.023(3) 0.007(3) 0.023(3) -0.006(3) -0.002(3) -0.001(3)
C13 0.021(3) 0.018(4) 0.024(4) -0.008(3) -0.002(3) 0.002(3)
C14 0.025(3) 0.015(3) 0.021(3) 0.000(3) 0.000(3) -0.002(3)
C15 0.022(3) 0.006(4) 0.022(3) -0.001(3) -0.002(2) -0.004(3)
C16 0.019(3) 0.012(3) 0.031(4) 0.000(3) 0.000(3) 0.002(3)
C17 0.023(3) 0.018(4) 0.018(3) -0.001(3) -0.002(3) -0.004(3)
C18 0.026(4) 0.004(3) 0.032(4) -0.002(3) -0.004(3) -0.004(3)
Cd1A 0.01612 0.00892 0.01809 -0.0006 0.0007 -5e-05
Cd1B 0.01612 0.00892 0.01809 0.0006 0.0007 5e-05
O1B 0.017 0.009 0.03 0.003 0.0079 0.0016
O2B 0.019 0.007 0.036 0.0065 -0.0019 -0.0002
O3A 0.023 0.024 0.02 -0.006 0.0044 -0.003
O4A 0.019 0.02 0.033 0.006 -0.003 0.008
O5 0.066(4) 0.028(3) 0.041(3) 0.008(3) 0.007(3) 0.006(3)
N7 0.077(5) 0.018(4) 0.027(4) 0.000(3) 0.001(4) 0.000(4)
C19 0.125(10) 0.014(4) 0.042(5) -0.007(4) -0.002(6) -0.004(5)
C20 0.130(10) 0.022(5) 0.055(6) 0.003(5) 0.015(7) -0.005(6)
C21 0.054(5) 0.030(5) 0.036(5) -0.001(4) 0.005(4) 0.006(4)
O6 0.085(5) 0.031(4) 0.033(3) 0.008(3) 0.006(3) -0.009(4)
N8 0.043(4) 0.020(3) 0.025(3) -0.002(3) 0.002(3) -0.005(3)
C22 0.061(6) 0.037(5) 0.075(7) -0.010(5) 0.030(6) -0.007(5)
C23 0.085(8) 0.064(8) 0.033(5) 0.009(5) -0.009(5) -0.023(6)
C24 0.049(5) 0.030(5) 0.030(4) -0.010(4) -0.004(4) 0.004(4)
loop_
_geom_bond_atom_site_label_1
_geom_bond_atom_site_label_2
_geom_bond_site_symmetry_1
_geom_bond_site_symmetry_2
Cd1 N1 1_555 1_555
O1 C9 1_555 1_555
O2 C9 1_555 1_555
O3 C18 1_555 1_555
O4 C18 1_555 1_555
N1 C1 1_555 1_555
N2 N3 1_555 1_555
N3 C1 1_555 1_555
N4 Cd1 1_555 1_555
N5 N6 1_555 1_555
N6 C10 1_555 1_555
C1 H1 1_555 1_555
C2 N1 1_555 1_555
H2 C2 1_555 1_555
C3 N2 1_555 1_555
C4 C3 1_555 1_555
H3 C4 1_555 1_555
C5 C4 1_555 1_555
H4 C5 1_555 1_555
C6 C5 1_555 1_555
C7 C6 1_555 1_555
H5 C7 1_555 1_555
C8 C3 1_555 1_555
H6 C8 1_555 1_555
C9 C6 1_555 1_555
C10 N4 1_555 1_555
H7 C10 1_555 1_555
C11 N4 1_555 1_555
H8 C11 1_555 1_555
C12 N5 1_555 1_555
C13 C12 1_555 1_555
H9 C13 1_555 1_555
C14 C13 1_555 1_555
H10 C14 1_555 1_555
C15 C14 1_555 1_555
C16 C15 1_555 1_555
H11 C16 1_555 1_555
C17 C12 1_555 1_555
H12 C17 1_555 1_555
C18 C15 1_555 1_555
O5 C21 1_555 1_555
N7 C19 1_555 1_555
C19 H13 1_555 1_555
H14 C19 1_555 1_555
H15 C19 1_555 1_555
C20 N7 1_555 1_555
H16 C20 1_555 1_555
H17 C20 1_555 1_555
H18 C20 1_555 1_555
C21 N7 1_555 1_555
H19 C21 1_555 1_555
O6 C24 1_555 1_555
N8 C22 1_555 1_555
C22 H20 1_555 1_555
H21 C22 1_555 1_555
H22 C22 1_555 1_555
C23 N8 1_555 1_555
H23 C23 1_555 1_555
H24 C23 1_555 1_555
H25 C23 1_555 1_555
C24 N8 1_555 1_555
H26 C24 1_555 1_555
Cd1A O3 1_555 1_555
Cd1B O1 1_555 1_555
O1B Cd1 1_555 1_555
O2B Cd1 1_555 1_555
O3A Cd1 1_555 1_555
O4A Cd1 1_555 1_555
O2 Cd1B 1_555 1_555
O4 Cd1A 1_555 1_555
N2 C2 1_555 1_555
N5 C11 1_555 1_555
C7 C8 1_555 1_555
C16 C17 1_555 1_555

#END
