
#######################################################################
#
#                 Cambridge Crystallographic Data Centre
#                                CCDC 
#
#######################################################################
#
# If this CIF has been generated from an entry in the Cambridge 
# Structural Database, then it will include bibliographic, chemical, 
# crystal, experimental, refinement or atomic coordinate data resulting 
# from the CCDC's data processing and validation procedures.
#
#######################################################################

data_HULCOI
_chemical_formula_moiety         '(C66 H48 Cu6 N12 O36)n'
_symmetry_cell_setting           tetragonal
_symmetry_space_group_name_H-M   'I 4/m'
_symmetry_Int_Tables_number      87
_space_group_name_Hall           '-I 4'
loop_
_symmetry_equiv_pos_site_id
_symmetry_equiv_pos_as_xyz
1 x,y,z
2 -y,x,z
3 -x,-y,z
4 y,-x,z
5 1/2+x,1/2+y,1/2+z
6 1/2-y,1/2+x,1/2+z
7 1/2-x,1/2-y,1/2+z
8 1/2+y,1/2-x,1/2+z
9 -x,-y,-z
10 y,-x,-z
11 x,y,-z
12 -y,x,-z
13 1/2-x,1/2-y,1/2-z
14 1/2+y,1/2-x,1/2-z
15 1/2+x,1/2+y,1/2-z
16 1/2-y,1/2+x,1/2-z
_cell_length_a                   31.0865(6)
_cell_length_b                   31.0865(6)
_cell_length_c                   44.596(3)
_cell_angle_alpha                90
_cell_angle_beta                 90
_cell_angle_gamma                90
_cell_volume                     43096.3
loop_
_atom_site_label
_atom_site_type_symbol
_atom_site_fract_x
_atom_site_fract_y
_atom_site_fract_z
_atom_site_U_iso_or_equiv
_atom_site_thermal_displace_type
C1 C 0.3012(9) -0.0440(5) 0.1441(7) 0.2153 Uani
C2 C 0.3262(10) -0.0174(5) 0.1262(9) 0.2897 Uani
H1 H 0.3387 -0.0281 0.1088 0.3480 Uiso
C3 C 0.3324(12) 0.0254(8) 0.1342(8) 0.2483 Uani
C4 C 0.3137(12) 0.0415(7) 0.1602(10) 0.3403 Uani
H2 H 0.3178 0.0701 0.1656 0.4080 Uiso
C5 C 0.2886(8) 0.0148(7) 0.1781(6) 0.1897 Uani
C6 C 0.2824(8) -0.0280(6) 0.1701(6) 0.2063 Uani
H3 H 0.2657 -0.0458 0.1821 0.2470 Uiso
O1 O 0.3068(3) -0.3100(2) 0.1447(3) 0.0883 Uani
N1 N 0.3029(5) -0.1552(3) 0.1204(5) 0.1750 Uani
H4 H 0.2792 -0.1609 0.1295 0.2100 Uiso
C7 C 0.1783(4) -0.0065(3) 0.3102(3) 0.0667 Uani
C8 C 0.3641(4) -0.2207(4) 0.0668(4) 0.0817 Uani
C9 C 0.3196(9) -0.1109(6) 0.1221(5) 0.1703 Uani
O2 O 0.3445(6) -0.1000(4) 0.1012(7) 0.2643 Uani
N2 N 0.2933(6) -0.0866(4) 0.1376(6) 0.2277 Uani
H5 H 0.2698 -0.0979 0.1441 0.2730 Uiso
Cu1 Cu 0.54447(8) 0.24750(7) 0.0000 0.0670 Uani
Cu2 Cu 0.55850(8) 0.16367(7) 0.0000 0.0661 Uani
Cu3 Cu 0.36244(5) 0.30144(5) 0.16855(5) 0.0684 Uani
Cu4 Cu 0.39676(5) 0.35074(5) 0.12684(5) 0.0676 Uani
O3 O 0.3815(2) 0.2540(2) 0.1421(2) 0.0750 Uani
O4 O 0.1526(3) 0.1438(2) 0.3120(3) 0.0897 Uani
O5 O 0.5132(3) 0.1608(2) 0.0306(2) 0.0837 Uani
O6 O 0.1245(2) 0.1013(2) 0.3483(2) 0.0717 Uani
O7 O 0.4125(3) 0.2964(2) 0.1076(3) 0.0957 Uani
C10 C 0.4033(4) 0.2622(4) 0.1208(4) 0.0777 Uani
O8 O 0.1519(3) -0.0517(2) 0.3471(3) 0.0873 Uani
O9 O 0.3462(3) -0.3402(2) 0.1069(3) 0.0913 Uani
O10 O 0.4107(2) -0.2488(3) 0.0313(2) 0.0783 Uani
O11 O 0.5023(3) 0.2324(2) 0.0300(2) 0.0830 Uani
C11 C 0.1455(4) 0.1095(4) 0.3260(4) 0.0757 Uani
O12 O 0.1965(3) -0.0801(2) 0.3122(3) 0.1047 Uani
O13 O 0.3998(3) -0.1796(2) 0.0314(2) 0.0823 Uani
C12 C 0.3293(4) -0.3097(3) 0.1220(3) 0.0620 Uani
C13 C 0.1756(4) -0.0506(3) 0.3256(3) 0.0637 Uani
C14 C 0.4968(5) 0.1936(4) 0.0395(4) 0.0950 Uani
O14 O 0.5721(5) 0.0955(4) 0.0000 0.1100 Uani
H6 H 0.5542 0.0829 -0.0103 0.1650 Uiso
O15 O 0.3521(6) 0.1157(4) 0.1381(6) 0.2490 Uani
C15 C 0.4179(4) 0.2216(4) 0.1034(4) 0.0817 Uani
C16 C 0.3945(4) -0.2155(4) 0.0407(3) 0.0807 Uani
C17 C 0.1634(4) 0.0694(4) 0.3096(4) 0.0847 Uani
C18 C 0.3342(4) -0.2665(3) 0.1064(4) 0.0743 Uani
C19 C 0.4638(5) 0.1905(4) 0.0635(4) 0.0877 Uani
C20 C 0.3476(5) -0.1848(4) 0.0799(4) 0.1010 Uani
H7 H 0.3530 -0.1577 0.0718 0.1210 Uiso
O16 O 0.3349(5) 0.2590(4) 0.2034(3) 0.1273 Uani
H8 H 0.3420 0.2677 0.2200 0.1910 Uiso
N3 N 0.2655(9) 0.0352(5) 0.2022(7) 0.3330 Uani
H9 H 0.2670 0.0628 0.2029 0.4000 Uiso
C21 C 0.4462(4) 0.2261(4) 0.0784(3) 0.0740 Uani
H10 H 0.4531 0.2536 0.0717 0.0890 Uiso
C22 C 0.1843(5) 0.0744(4) 0.2821(4) 0.1027 Uani
H11 H 0.1855 0.1013 0.2730 0.1230 Uiso
O17 O 0.2389(5) -0.0221(4) 0.2264(6) 0.2403 Uani
C23 C 0.4480(6) 0.1505(5) 0.0725(5) 0.1180 Uani
H12 H 0.4589 0.1259 0.0633 0.1420 Uiso
C24 C 0.3584(4) -0.2616(4) 0.0806(3) 0.0840 Uani
H13 H 0.3711 -0.2857 0.0719 0.1010 Uiso
N4 N 0.4032(6) 0.1040(4) 0.0998(7) 0.2663 Uani
H14 H 0.4150 0.0836 0.0897 0.3190 Uiso
C25 C 0.3155(5) -0.2302(5) 0.1180(5) 0.1193 Uani
H15 H 0.2976 -0.2322 0.1346 0.1440 Uiso
C26 C 0.1591(4) 0.0298(4) 0.3217(3) 0.0757 Uani
H16 H 0.1420 0.0268 0.3387 0.0910 Uiso
N5 N 0.2289(7) 0.0461(4) 0.2463(6) 0.2440 Uani
H17 H 0.2390 0.0718 0.2453 0.2930 Uiso
C27 C 0.2039(5) 0.0382(5) 0.2677(5) 0.1080 Uani
O18 O 0.4251(5) 0.3906(5) 0.0911(4) 0.1760 Uani
H18 H 0.4476 0.3796 0.0854 0.2640 Uiso
C28 C 0.3236(6) -0.1889(5) 0.1045(7) 0.1580 Uani
C29 C 0.4034(5) 0.1818(4) 0.1094(4) 0.1090 Uani
H19 H 0.3830 0.1780 0.1245 0.1300 Uiso
C30 C 0.1995(5) -0.0023(4) 0.2808(5) 0.1107 Uani
H20 H 0.2100 -0.0266 0.2711 0.1330 Uiso
C31 C 0.2424(9) 0.0166(6) 0.2232(6) 0.1837 Uani
C32 C 0.3716(9) 0.0915(6) 0.1202(6) 0.1843 Uani
C33 C 0.4183(7) 0.1459(5) 0.0934(6) 0.1560 Uani
N6 N 0.3660(8) 0.0478(5) 0.1172(7) 0.2793 Uani
H21 H 0.3823 0.0336 0.1052 0.3350 Uiso
O19 O 0.5308(7) 0.3160(4) 0.0000 0.2470 Uani
H22 H 0.5288 0.3246 -0.0173 0.3710 Uiso
H6J H 0.5542 0.0829 0.0103 0.1650 Uiso
H22J H 0.5288 0.3246 0.0173 0.3710 Uiso
C1A C 0.0440(5) 0.3012(9) 0.1441(7) 0.2153 Uani
C2A C 0.0174(5) 0.3262(10) 0.1262(9) 0.2897 Uani
H1A H 0.0281 0.3387 0.1088 0.3480 Uiso
C3A C -0.0254(8) 0.3324(12) 0.1342(8) 0.2483 Uani
C4A C -0.0415(7) 0.3137(12) 0.1602(10) 0.3403 Uani
H2A H -0.0701 0.3178 0.1656 0.4080 Uiso
C5A C -0.0148(7) 0.2886(8) 0.1781(6) 0.1897 Uani
C6A C 0.0280(6) 0.2824(8) 0.1701(6) 0.2063 Uani
H3A H 0.0458 0.2657 0.1821 0.2470 Uiso
O1A O 0.3100(2) 0.3068(3) 0.1447(3) 0.0883 Uani
N1A N 0.1552(3) 0.3029(5) 0.1204(5) 0.1750 Uani
H4A H 0.1609 0.2792 0.1295 0.2100 Uiso
C7A C 0.0065(3) 0.1783(4) 0.3102(3) 0.0667 Uani
C8A C 0.2207(4) 0.3641(4) 0.0668(4) 0.0817 Uani
C9A C 0.1109(6) 0.3196(9) 0.1221(5) 0.1703 Uani
O2A O 0.1000(4) 0.3445(6) 0.1012(7) 0.2643 Uani
N2A N 0.0866(4) 0.2933(6) 0.1376(6) 0.2277 Uani
H5A H 0.0979 0.2698 0.1441 0.2730 Uiso
Cu3A Cu -0.30144(5) 0.36244(5) 0.16855(5) 0.0684 Uani
Cu4A Cu -0.35074(5) 0.39676(5) 0.12684(5) 0.0676 Uani
O3A O -0.2540(2) 0.3815(2) 0.1421(2) 0.0750 Uani
O4A O -0.1438(2) 0.1526(3) 0.3120(3) 0.0897 Uani
O5A O -0.1608(2) 0.5132(3) 0.0306(2) 0.0837 Uani
O6A O -0.1013(2) 0.1245(2) 0.3483(2) 0.0717 Uani
O7A O -0.2964(2) 0.4125(3) 0.1076(3) 0.0957 Uani
C10A C -0.2622(4) 0.4033(4) 0.1208(4) 0.0777 Uani
O8A O 0.0517(2) 0.1519(3) 0.3471(3) 0.0873 Uani
O9A O 0.3402(2) 0.3462(3) 0.1069(3) 0.0913 Uani
O10A O 0.2488(3) 0.4107(2) 0.0313(2) 0.0783 Uani
O11A O -0.2324(2) 0.5023(3) 0.0300(2) 0.0830 Uani
C11A C -0.1095(4) 0.1455(4) 0.3260(4) 0.0757 Uani
O12A O 0.0801(2) 0.1965(3) 0.3122(3) 0.1047 Uani
O13A O 0.1796(2) 0.3998(3) 0.0314(2) 0.0823 Uani
C12A C 0.3097(3) 0.3293(4) 0.1220(3) 0.0620 Uani
C13A C 0.0506(3) 0.1756(4) 0.3256(3) 0.0637 Uani
C14A C -0.1936(4) 0.4968(5) 0.0395(4) 0.0950 Uani
O15A O -0.1157(4) 0.3521(6) 0.1381(6) 0.2490 Uani
C15A C -0.2216(4) 0.4179(4) 0.1034(4) 0.0817 Uani
C16A C 0.2155(4) 0.3945(4) 0.0407(3) 0.0807 Uani
C17A C -0.0694(4) 0.1634(4) 0.3096(4) 0.0847 Uani
C18A C 0.2665(3) 0.3342(4) 0.1064(4) 0.0743 Uani
C19A C -0.1905(4) 0.4638(5) 0.0635(4) 0.0877 Uani
C20A C 0.1848(4) 0.3476(5) 0.0799(4) 0.1010 Uani
H7A H 0.1577 0.3530 0.0718 0.1210 Uiso
O16A O -0.2590(4) 0.3349(5) 0.2034(3) 0.1273 Uani
H8A H -0.2677 0.3420 0.2200 0.1910 Uiso
N3A N -0.0352(5) 0.2655(9) 0.2022(7) 0.3330 Uani
H9A H -0.0628 0.2670 0.2029 0.4000 Uiso
C21A C -0.2261(4) 0.4462(4) 0.0784(3) 0.0740 Uani
H10A H -0.2536 0.4531 0.0717 0.0890 Uiso
C22A C -0.0744(4) 0.1843(5) 0.2821(4) 0.1027 Uani
H11A H -0.1013 0.1855 0.2730 0.1230 Uiso
O17A O 0.0221(4) 0.2389(5) 0.2264(6) 0.2403 Uani
C23A C -0.1505(5) 0.4480(6) 0.0725(5) 0.1180 Uani
H12A H -0.1259 0.4589 0.0633 0.1420 Uiso
C24A C 0.2616(4) 0.3584(4) 0.0806(3) 0.0840 Uani
H13A H 0.2857 0.3711 0.0719 0.1010 Uiso
N4A N -0.1040(4) 0.4032(6) 0.0998(7) 0.2663 Uani
H14A H -0.0836 0.4150 0.0897 0.3190 Uiso
C25A C 0.2302(5) 0.3155(5) 0.1180(5) 0.1193 Uani
H15A H 0.2322 0.2976 0.1346 0.1440 Uiso
C26A C -0.0298(4) 0.1591(4) 0.3217(3) 0.0757 Uani
H16A H -0.0268 0.1420 0.3387 0.0910 Uiso
N5A N -0.0461(4) 0.2289(7) 0.2463(6) 0.2440 Uani
H17A H -0.0718 0.2390 0.2453 0.2930 Uiso
C27A C -0.0382(5) 0.2039(5) 0.2677(5) 0.1080 Uani
O18A O -0.3906(5) 0.4251(5) 0.0911(4) 0.1760 Uani
H18A H -0.3796 0.4476 0.0854 0.2640 Uiso
C28A C 0.1889(5) 0.3236(6) 0.1045(7) 0.1580 Uani
C29A C -0.1818(4) 0.4034(5) 0.1094(4) 0.1090 Uani
H19A H -0.1780 0.3830 0.1245 0.1300 Uiso
C30A C 0.0023(4) 0.1995(5) 0.2808(5) 0.1107 Uani
H20A H 0.0266 0.2100 0.2711 0.1330 Uiso
C31A C -0.0166(6) 0.2424(9) 0.2232(6) 0.1837 Uani
C32A C -0.0915(6) 0.3716(9) 0.1202(6) 0.1843 Uani
C33A C -0.1459(5) 0.4183(7) 0.0934(6) 0.1560 Uani
N6A N -0.0478(5) 0.3660(8) 0.1172(7) 0.2793 Uani
H21A H -0.0336 0.3823 0.1052 0.3350 Uiso
O1B O -0.3068(3) 0.3100(2) 0.1447(3) 0.0883 Uani
Cu1A Cu -0.24750(7) 0.54447(8) 0.0000 0.0670 Uani
Cu1B Cu 0.45553(8) -0.24750(7) 0.0000 0.0670 Uani
Cu1C Cu 0.24750(7) 0.45553(8) 0.0000 0.0670 Uani
Cu2A Cu -0.16367(7) 0.55850(8) 0.0000 0.0661 Uani
Cu2B Cu 0.44150(8) -0.16367(7) 0.0000 0.0661 Uani
Cu2C Cu 0.16367(7) 0.44150(8) 0.0000 0.0661 Uani
Cu3C Cu 0.30144(5) -0.36244(5) 0.16855(5) 0.0684 Uani
Cu3L Cu 0.13756(5) 0.19856(5) 0.33145(5) 0.0684 Uani
Cu3M Cu -0.19856(5) 0.13756(5) 0.33145(5) 0.0684 Uani
Cu3O Cu 0.19856(5) -0.13756(5) 0.33145(5) 0.0684 Uani
Cu4C Cu 0.35074(5) -0.39676(5) 0.12684(5) 0.0676 Uani
Cu4L Cu 0.10324(5) 0.14926(5) 0.37316(5) 0.0676 Uani
Cu4M Cu -0.14926(5) 0.10324(5) 0.37316(5) 0.0676 Uani
Cu4O Cu 0.14926(5) -0.10324(5) 0.37316(5) 0.0676 Uani
O4L O 0.3474(3) 0.3562(2) 0.1880(3) 0.0897 Uani
O4M O -0.3562(2) 0.3474(3) 0.1880(3) 0.0897 Uani
O5J O 0.5132(3) 0.1608(2) -0.0306(2) 0.0837 Uani
O6L O 0.3755(2) 0.3987(2) 0.1517(2) 0.0717 Uani
O6M O -0.3987(2) 0.3755(2) 0.1517(2) 0.0717 Uani
O8M O 0.4483(2) 0.3481(3) 0.1529(3) 0.0873 Uani
O8N O -0.3481(3) 0.4483(2) 0.1529(3) 0.0873 Uani
O9B O -0.3462(3) 0.3402(2) 0.1069(3) 0.0913 Uani
O10B O 0.5893(2) 0.2488(3) 0.0313(2) 0.0783 Uani
O10H O 0.5893(2) 0.2488(3) -0.0313(2) 0.0783 Uani
O11J O 0.5023(3) 0.2324(2) -0.0300(2) 0.0830 Uani
O12M O 0.4199(2) 0.3035(3) 0.1878(3) 0.1047 Uani
O12N O -0.3035(3) 0.4199(2) 0.1878(3) 0.1047 Uani
O13B O 0.6002(3) 0.1796(2) 0.0314(2) 0.0823 Uani
O13H O 0.6002(3) 0.1796(2) -0.0314(2) 0.0823 Uani
loop_
_atom_site_aniso_label
_atom_site_aniso_U_11
_atom_site_aniso_U_22
_atom_site_aniso_U_33
_atom_site_aniso_U_23
_atom_site_aniso_U_13
_atom_site_aniso_U_12
C1 0.370(11) 0.072(7) 0.204(10) -0.019(8) 0.227(9) -0.027(8)
C2 0.506(12) 0.038(7) 0.325(12) -0.014(9) 0.217(11) -0.030(9)
C3 0.433(11) 0.149(9) 0.163(10) 0.030(9) 0.194(9) -0.022(9)
C4 0.502(12) 0.097(9) 0.422(12) -0.025(10) 0.368(10) -0.076(9)
C5 0.296(10) 0.118(8) 0.155(10) -0.023(8) 0.156(9) -0.038(9)
C6 0.366(12) 0.089(8) 0.164(10) -0.001(8) 0.203(9) -0.002(9)
O1 0.105 0.061 0.099 0.001 0.034 0.002
N1 0.271(11) 0.046(6) 0.208(13) -0.021(8) 0.144(10) -0.008(7)
C7 0.09 0.054 0.056 0.013 0.001 -0.018
C8 0.101 0.053 0.091 0.004 0.011 0.013
C9 0.316(11) 0.079(8) 0.116(9) 0.002(8) 0.131(9) 0.047(8)
O2 0.329(13) 0.098(8) 0.366(17) -0.023(11) 0.230(12) 0.000(8)
N2 0.312(11) 0.061(7) 0.310(12) -0.042(9) 0.162(10) -0.004(8)
Cu1 0.0915(17) 0.0511(13) 0.0583(15) 0.000 0.000 0.0028(11)
Cu2 0.0866(17) 0.0483(13) 0.0635(17) 0.000 0.000 0.0031(10)
Cu3 0.0690(11) 0.0680(11) 0.0683(12) 0.0099(9) 0.0116(9) 0.0032(7)
Cu4 0.0651(10) 0.0685(11) 0.0692(12) 0.0104(10) 0.0126(9) 0.0053(7)
O3 0.091(5) 0.060(4) 0.074(6) 0.003(4) 0.025(5) 0.013(4)
O4 0.106 0.051 0.112 0.008 0.009 0.005
O5 0.103(6) 0.066(5) 0.082(6) -0.004(5) 0.014(5) 0.019(4)
O6 0.083 0.074 0.058 0.001 0.02 0.002
O7 0.090(5) 0.046(4) 0.151(9) 0.028(5) 0.024(6) 0.009(4)
C10 0.063(6) 0.081(6) 0.089(7) 0.044(6) 0.024(6) -0.001(5)
O8 0.108 0.049 0.105 -0.004 0.01 0
O9 0.109 0.051 0.114 -0.009 0.016 -0.001
O10 0.085 0.082 0.068 0.017 0.006 0.004
O11 0.108(6) 0.059(4) 0.082(6) 0.024(4) 0.025(5) -0.001(4)
C11 0.069 0.056 0.102 0.023 0.021 0.015
O12 0.115 0.04 0.159 0.003 0.021 0.003
O13 0.096 0.067 0.084 0.026 0.019 -0.005
C12 0.09 0.036 0.06 -0.006 0.033 -0.02
C13 0.1 0.037 0.054 0 0.021 -0.008
C14 0.131(8) 0.075(6) 0.079(7) -0.024(6) 0.033(7) -0.001(6)
O14 0.135(11) 0.064(7) 0.131(13) 0.000 0.000 0.020(7)
O15 0.322(13) 0.080(7) 0.345(17) -0.028(10) 0.189(12) -0.033(8)
C15 0.088(7) 0.058(6) 0.099(8) 0.003(6) 0.007(6) -0.007(5)
C16 0.126 0.046 0.07 -0.023 0.021 0.033
C17 0.108 0.052 0.094 0.003 0.018 -0.008
C18 0.102 0.048 0.073 0.016 0.024 0.004
C19 0.138(8) 0.057(6) 0.068(7) 0.005(6) -0.012(7) 0.029(6)
C20 0.161 0.071 0.071 -0.032 0.039 -0.01
O16 0.147(9) 0.129(8) 0.106(9) 0.005(8) 0.013(8) -0.028(6)
N3 0.546(12) 0.082(8) 0.371(11) -0.041(9) 0.383(10) 0.009(9)
C21 0.102(7) 0.066(6) 0.054(6) -0.011(6) 0.037(6) -0.009(5)
C22 0.169 0.052 0.087 0.005 0.057 0.016
O17 0.310(13) 0.078(7) 0.333(17) 0.001(10) 0.174(12) 0.019(8)
C23 0.169(10) 0.080(7) 0.105(9) 0.003(7) 0.057(8) 0.004(7)
C24 0.115 0.071 0.066 0.002 0.043 -0.011
N4 0.317(10) 0.082(7) 0.400(12) -0.061(9) 0.296(9) -0.027(8)
C25 0.116 0.092 0.15 -0.014 0.028 -0.027
C26 0.072 0.094 0.061 -0.001 0.009 -0.002
N5 0.382(13) 0.055(7) 0.295(14) -0.032(9) 0.222(11) 0.008(9)
C27 0.137 0.106 0.081 0.012 0.015 -0.013
O18 0.254(13) 0.166(10) 0.108(10) -0.003(9) 0.027(10) -0.119(9)
C28 0.174 0.045 0.255 -0.022 0.037 0.012
C29 0.163(9) 0.065(7) 0.099(9) -0.009(7) 0.062(8) -0.010(6)
C30 0.16 0.057 0.115 -0.009 0.058 0.005
C31 0.331(11) 0.093(8) 0.127(10) -0.033(8) 0.152(9) -0.006(9)
C32 0.309(11) 0.087(8) 0.157(10) -0.059(8) 0.143(9) -0.026(9)
C33 0.259(10) 0.056(6) 0.153(9) -0.007(7) 0.112(9) -0.015(7)
N6 0.425(11) 0.075(7) 0.338(12) -0.075(9) 0.284(10) -0.079(8)
O19 0.129(11) 0.032(6) 0.58(2) 0.000 0.000 0.024(6)
C1A 0.072 0.37 0.204 0.227 0.019 0.027
C2A 0.038 0.506 0.325 0.217 0.014 0.03
C3A 0.149 0.433 0.163 0.194 -0.03 0.022
C4A 0.097 0.502 0.422 0.368 0.025 0.076
C5A 0.118 0.296 0.155 0.156 0.023 0.038
C6A 0.089 0.366 0.164 0.203 0.001 0.002
O1A 0.061 0.105 0.099 0.034 -0.001 -0.002
N1A 0.046 0.271 0.208 0.144 0.021 0.008
C7A 0.054 0.09 0.056 0.001 -0.013 0.018
C8A 0.053 0.101 0.091 0.011 -0.004 -0.013
C9A 0.079 0.316 0.116 0.131 -0.002 -0.047
O2A 0.098 0.329 0.366 0.23 0.023 0
N2A 0.061 0.312 0.31 0.162 0.042 0.004
Cu3A 0.068 0.069 0.0683 0.0116 -0.0099 -0.0032
Cu4A 0.0685 0.0651 0.0692 0.0126 -0.0104 -0.0053
O3A 0.06 0.091 0.074 0.025 -0.003 -0.013
O4A 0.051 0.106 0.112 0.009 -0.008 -0.005
O5A 0.066 0.103 0.082 0.014 0.004 -0.019
O6A 0.074 0.083 0.058 0.02 -0.001 -0.002
O7A 0.046 0.09 0.151 0.024 -0.028 -0.009
C10A 0.081 0.063 0.089 0.024 -0.044 0.001
O8A 0.049 0.108 0.105 0.01 0.004 0
O9A 0.051 0.109 0.114 0.016 0.009 0.001
O10A 0.082 0.085 0.068 0.006 -0.017 -0.004
O11A 0.059 0.108 0.082 0.025 -0.024 0.001
C11A 0.056 0.069 0.102 0.021 -0.023 -0.015
O12A 0.04 0.115 0.159 0.021 -0.003 -0.003
O13A 0.067 0.096 0.084 0.019 -0.026 0.005
C12A 0.036 0.09 0.06 0.033 0.006 0.02
C13A 0.037 0.1 0.054 0.021 0 0.008
C14A 0.075 0.131 0.079 0.033 0.024 0.001
O15A 0.08 0.322 0.345 0.189 0.028 0.033
C15A 0.058 0.088 0.099 0.007 -0.003 0.007
C16A 0.046 0.126 0.07 0.021 0.023 -0.033
C17A 0.052 0.108 0.094 0.018 -0.003 0.008
C18A 0.048 0.102 0.073 0.024 -0.016 -0.004
C19A 0.057 0.138 0.068 -0.012 -0.005 -0.029
C20A 0.071 0.161 0.071 0.039 0.032 0.01
O16A 0.129 0.147 0.106 0.013 -0.005 0.028
N3A 0.082 0.546 0.371 0.383 0.041 -0.009
C21A 0.066 0.102 0.054 0.037 0.011 0.009
C22A 0.052 0.169 0.087 0.057 -0.005 -0.016
O17A 0.078 0.31 0.333 0.174 -0.001 -0.019
C23A 0.08 0.169 0.105 0.057 -0.003 -0.004
C24A 0.071 0.115 0.066 0.043 -0.002 0.011
N4A 0.082 0.317 0.4 0.296 0.061 0.027
C25A 0.092 0.116 0.15 0.028 0.014 0.027
C26A 0.094 0.072 0.061 0.009 0.001 0.002
N5A 0.055 0.382 0.295 0.222 0.032 -0.008
C27A 0.106 0.137 0.081 0.015 -0.012 0.013
O18A 0.166 0.254 0.108 0.027 0.003 0.119
C28A 0.045 0.174 0.255 0.037 0.022 -0.012
C29A 0.065 0.163 0.099 0.062 0.009 0.01
C30A 0.057 0.16 0.115 0.058 0.009 -0.005
C31A 0.093 0.331 0.127 0.152 0.033 0.006
C32A 0.087 0.309 0.157 0.143 0.059 0.026
C33A 0.056 0.259 0.153 0.112 0.007 0.015
N6A 0.075 0.425 0.338 0.284 0.075 0.079
O1B 0.105 0.061 0.099 -0.001 -0.034 0.002
Cu1A 0.0511 0.0915 0.0583 0 0 -0.0028
Cu1B 0.0915 0.0511 0.0583 0 0 0.0028
Cu1C 0.0511 0.0915 0.0583 0 0 -0.0028
Cu2A 0.0483 0.0866 0.0635 0 0 -0.0031
Cu2B 0.0866 0.0483 0.0635 0 0 0.0031
Cu2C 0.0483 0.0866 0.0635 0 0 -0.0031
Cu3C 0.068 0.069 0.0683 -0.0116 0.0099 -0.0032
Cu3L 0.069 0.068 0.0683 0.0099 0.0116 0.0032
Cu3M 0.068 0.069 0.0683 0.0116 -0.0099 -0.0032
Cu3O 0.068 0.069 0.0683 -0.0116 0.0099 -0.0032
Cu4C 0.0685 0.0651 0.0692 -0.0126 0.0104 -0.0053
Cu4L 0.0651 0.0685 0.0692 0.0104 0.0126 0.0053
Cu4M 0.0685 0.0651 0.0692 0.0126 -0.0104 -0.0053
Cu4O 0.0685 0.0651 0.0692 -0.0126 0.0104 -0.0053
O4L 0.106 0.051 0.112 0.008 0.009 0.005
O4M 0.051 0.106 0.112 0.009 -0.008 -0.005
O5J 0.103 0.066 0.082 0.004 -0.014 0.019
O6L 0.083 0.074 0.058 0.001 0.02 0.002
O6M 0.074 0.083 0.058 0.02 -0.001 -0.002
O8M 0.049 0.108 0.105 0.01 0.004 0
O8N 0.108 0.049 0.105 0.004 -0.01 0
O9B 0.109 0.051 0.114 0.009 -0.016 -0.001
O10B 0.085 0.082 0.068 -0.017 -0.006 0.004
O10H 0.085 0.082 0.068 0.017 0.006 0.004
O11J 0.108 0.059 0.082 -0.024 -0.025 -0.001
O12M 0.04 0.115 0.159 0.021 -0.003 -0.003
O12N 0.115 0.04 0.159 -0.003 -0.021 0.003
O13B 0.096 0.067 0.084 -0.026 -0.019 -0.005
O13H 0.096 0.067 0.084 0.026 0.019 -0.005
loop_
_geom_bond_atom_site_label_1
_geom_bond_atom_site_label_2
_geom_bond_site_symmetry_1
_geom_bond_site_symmetry_2
C1 C2 1_555 1_555
C2 H1 1_555 1_555
C3 C2 1_555 1_555
C4 C3 1_555 1_555
H2 C4 1_555 1_555
C5 C4 1_555 1_555
C6 C1 1_555 1_555
H3 C6 1_555 1_555
O1 C12 1_555 1_555
N1 H4 1_555 1_555
C7 C13 1_555 1_555
C8 C16 1_555 1_555
C9 N1 1_555 1_555
O2 C9 1_555 1_555
N2 C1 1_555 1_555
H5 N2 1_555 1_555
Cu1 O11 1_555 1_555
Cu2 O5 1_555 1_555
Cu3 O3 1_555 1_555
Cu4 O7 1_555 1_555
O3 C10 1_555 1_555
O4 C11 1_555 1_555
O5 C14 1_555 1_555
O6 C11 1_555 1_555
O7 C10 1_555 1_555
C10 C15 1_555 1_555
O8 C13 1_555 1_555
O9 C12 1_555 1_555
O10 C16 1_555 1_555
O11 C14 1_555 1_555
C11 C17 1_555 1_555
O12 C13 1_555 1_555
O13 C16 1_555 1_555
C12 C18 1_555 1_555
C14 C19 1_555 1_555
O14 Cu2 1_555 1_555
H6 O14 1_555 1_555
O15 C32 1_555 1_555
C15 C21 1_555 1_555
C17 C22 1_555 1_555
C18 C24 1_555 1_555
C19 C21 1_555 1_555
C20 C8 1_555 1_555
H7 C20 1_555 1_555
O16 Cu3 1_555 1_555
H8 O16 1_555 1_555
N3 C5 1_555 1_555
H9 N3 1_555 1_555
C21 H10 1_555 1_555
C22 H11 1_555 1_555
O17 C31 1_555 1_555
C23 C19 1_555 1_555
H12 C23 1_555 1_555
C24 C8 1_555 1_555
H13 C24 1_555 1_555
N4 H14 1_555 1_555
C25 C18 1_555 1_555
H15 C25 1_555 1_555
C26 C7 1_555 1_555
H16 C26 1_555 1_555
N5 H17 1_555 1_555
C27 C22 1_555 1_555
O18 Cu4 1_555 1_555
H18 O18 1_555 1_555
C28 N1 1_555 1_555
C29 C15 1_555 1_555
H19 C29 1_555 1_555
C30 C7 1_555 1_555
H20 C30 1_555 1_555
C31 N3 1_555 1_555
C32 N4 1_555 1_555
C33 C23 1_555 1_555
N6 C3 1_555 1_555
H21 N6 1_555 1_555
O19 Cu1 1_555 1_555
H22 O19 1_555 1_555
H6J O14 1_555 1_555
H22J O19 1_555 1_555
C1A C2A 1_555 1_555
C2A H1A 1_555 1_555
C3A C2A 1_555 1_555
C4A C3A 1_555 1_555
H2A C4A 1_555 1_555
C5A C4A 1_555 1_555
C6A C1A 1_555 1_555
H3A C6A 1_555 1_555
O1A Cu3 1_555 1_555
N1A H4A 1_555 1_555
C7A C13A 1_555 1_555
C8A C16A 1_555 1_555
C9A N1A 1_555 1_555
O2A C9A 1_555 1_555
N2A C1A 1_555 1_555
H5A N2A 1_555 1_555
Cu3A O3A 1_555 1_555
Cu4A O7A 1_555 1_555
O3A C10A 1_555 1_555
O4A C11A 1_555 1_555
O5A C14A 1_555 1_555
O6A C11A 1_555 1_555
O7A C10A 1_555 1_555
C10A C15A 1_555 1_555
O8A C13A 1_555 1_555
O9A Cu4 1_555 1_555
O10A C16A 1_555 1_555
O11A C14A 1_555 1_555
C11A C17A 1_555 1_555
O12A C13A 1_555 1_555
O13A C16A 1_555 1_555
C12A O1A 1_555 1_555
C14A C19A 1_555 1_555
O15A C32A 1_555 1_555
C15A C21A 1_555 1_555
C17A C22A 1_555 1_555
C18A C12A 1_555 1_555
C19A C21A 1_555 1_555
C20A C8A 1_555 1_555
H7A C20A 1_555 1_555
O16A Cu3A 1_555 1_555
H8A O16A 1_555 1_555
N3A C5A 1_555 1_555
H9A N3A 1_555 1_555
C21A H10A 1_555 1_555
C22A H11A 1_555 1_555
O17A C31A 1_555 1_555
C23A C19A 1_555 1_555
H12A C23A 1_555 1_555
C24A C8A 1_555 1_555
H13A C24A 1_555 1_555
N4A H14A 1_555 1_555
C25A C18A 1_555 1_555
H15A C25A 1_555 1_555
C26A C7A 1_555 1_555
H16A C26A 1_555 1_555
N5A H17A 1_555 1_555
C27A C22A 1_555 1_555
O18A Cu4A 1_555 1_555
H18A O18A 1_555 1_555
C28A N1A 1_555 1_555
C29A C15A 1_555 1_555
H19A C29A 1_555 1_555
C30A C7A 1_555 1_555
H20A C30A 1_555 1_555
C31A N3A 1_555 1_555
C32A N4A 1_555 1_555
C33A C23A 1_555 1_555
N6A C3A 1_555 1_555
H21A N6A 1_555 1_555
O1B Cu3A 1_555 1_555
Cu1A O11A 1_555 1_555
Cu1B O10 1_555 1_555
Cu1C O10A 1_555 1_555
Cu2A O5A 1_555 1_555
Cu2B O13 1_555 1_555
Cu2C O13A 1_555 1_555
Cu3C O1 1_555 1_555
Cu3L O4 1_555 1_555
Cu3M O4A 1_555 1_555
Cu3O O12 1_555 1_555
Cu4C O9 1_555 1_555
Cu4L O6 1_555 1_555
Cu4M O6A 1_555 1_555
Cu4O O8 1_555 1_555
O4L Cu3 1_555 1_555
O4M Cu3A 1_555 1_555
O5J Cu2 1_555 1_555
O6L Cu4 1_555 1_555
O6M Cu4A 1_555 1_555
O8M Cu4 1_555 1_555
O8N Cu4A 1_555 1_555
O9B Cu4A 1_555 1_555
O10B Cu1 1_555 1_555
O10H Cu1 1_555 1_555
O11J Cu1 1_555 1_555
O12M Cu3 1_555 1_555
O12N Cu3A 1_555 1_555
O13B Cu2 1_555 1_555
O13H Cu2 1_555 1_555
C5 C6 1_555 1_555
C9 N2 1_555 1_555
C17 C26 1_555 1_555
C20 C28 1_555 1_555
N4 C33 1_555 1_555
C25 C28 1_555 1_555
N5 C27 1_555 1_555
N5 C31 1_555 1_555
C27 C30 1_555 1_555
C29 C33 1_555 1_555
C32 N6 1_555 1_555
C5A C6A 1_555 1_555
C9A N2A 1_555 1_555
O8A Cu4L 1_555 1_555
O9A C12A 1_555 1_555
O12A Cu3L 1_555 1_555
C17A C26A 1_555 1_555
C18A C24A 1_555 1_555
C20A C28A 1_555 1_555
N4A C33A 1_555 1_555
C25A C28A 1_555 1_555
N5A C27A 1_555 1_555
N5A C31A 1_555 1_555
C27A C30A 1_555 1_555
C29A C33A 1_555 1_555
C32A N6A 1_555 1_555

#END
