
#######################################################################
#
#                 Cambridge Crystallographic Data Centre
#                                CCDC 
#
#######################################################################
#
# If this CIF has been generated from an entry in the Cambridge 
# Structural Database, then it will include bibliographic, chemical, 
# crystal, experimental, refinement or atomic coordinate data resulting 
# from the CCDC's data processing and validation procedures.
#
#######################################################################

data_UNIPAJ
_chemical_formula_moiety         '(C44 H38 Cd2 N8 O13)n'
_symmetry_cell_setting           monoclinic
_symmetry_space_group_name_H-M   'C 2/c'
_symmetry_Int_Tables_number      15
_space_group_name_Hall           '-C 2yc'
loop_
_symmetry_equiv_pos_site_id
_symmetry_equiv_pos_as_xyz
1 x,y,z
2 -x,y,1/2-z
3 1/2+x,1/2+y,z
4 1/2-x,1/2+y,1/2-z
5 -x,-y,-z
6 x,-y,1/2+z
7 1/2-x,1/2-y,-z
8 1/2+x,1/2-y,1/2+z
_cell_length_a                   18.4754(10)
_cell_length_b                   21.5101(14)
_cell_length_c                   12.5984(6)
_cell_angle_alpha                90
_cell_angle_beta                 102.731(5)
_cell_angle_gamma                90
_cell_volume                     4883.61
loop_
_atom_site_label
_atom_site_type_symbol
_atom_site_fract_x
_atom_site_fract_y
_atom_site_fract_z
_atom_site_U_iso_or_equiv
_atom_site_thermal_displace_type
Cd1 Cd 0.146806(14) 0.451856(12) 0.577001(19) 0.0244 Uani
C1 C 0.1268(2) 0.38142(19) 0.3894(3) 0.0298 Uani
C2 C 0.11319(19) 0.34016(17) 0.2900(3) 0.0277 Uani
C3 C 0.1048(2) 0.27852(19) 0.3055(3) 0.0366 Uani
H1 H 0.1083 0.2641 0.3760 0.0440 Uiso
C4 C 0.0907(2) 0.23493(19) 0.2186(3) 0.0396 Uani
C5 C 0.0884(3) 0.1700(2) 0.2358(4) 0.0614 Uani
H2 H 0.0959 0.1542 0.3061 0.0740 Uiso
C6 C 0.0750(3) 0.1310(2) 0.1488(4) 0.0815 Uani
H3 H 0.0741 0.0883 0.1601 0.0980 Uiso
C7 C 0.0627(3) 0.1538(2) 0.0437(4) 0.0805 Uani
H4 H 0.0529 0.1263 -0.0147 0.0960 Uiso
C8 C 0.0647(3) 0.2156(2) 0.0252(4) 0.0601 Uani
H5 H 0.0564 0.2302 -0.0459 0.0720 Uiso
C9 C 0.0790(2) 0.25817(18) 0.1121(3) 0.0388 Uani
C10 C 0.0866(2) 0.32272(18) 0.0964(3) 0.0323 Uani
H6 H 0.0786 0.3380 0.0257 0.0390 Uiso
C11 C 0.10488(19) 0.36328(17) 0.1805(3) 0.0260 Uani
C12 C 0.1259(2) 0.42830(17) 0.1549(3) 0.0280 Uani
C13 C 0.2101(3) 0.3342(2) 0.7231(3) 0.0601 Uani
H7 H 0.2115 0.3199 0.6539 0.0720 Uiso
C14 C 0.2299(3) 0.2933(2) 0.8097(3) 0.0633 Uani
H8 H 0.2425 0.2523 0.7989 0.0760 Uiso
C15 C 0.2302(2) 0.3154(2) 0.9116(3) 0.0402 Uani
C16 C 0.2112(3) 0.3754(2) 0.9238(3) 0.0482 Uani
H9 H 0.2119 0.3912 0.9928 0.0570 Uiso
C17 C 0.1906(2) 0.4132(2) 0.8332(3) 0.0422 Uani
H10 H 0.1773 0.4542 0.8426 0.0500 Uiso
C18 C 0.2937(2) 0.4574(2) 0.4693(3) 0.0522 Uani
H11 H 0.2603 0.4394 0.4115 0.0630 Uiso
C19 C 0.3663(2) 0.4654(2) 0.4602(3) 0.0480 Uani
H12 H 0.3810 0.4530 0.3975 0.0580 Uiso
C20 C 0.4160(2) 0.49169(18) 0.5444(3) 0.0333 Uani
C21 C 0.3915(2) 0.5097(2) 0.6356(3) 0.0510 Uani
H13 H 0.4240 0.5278 0.6945 0.0610 Uiso
C22 C 0.3182(2) 0.5004(2) 0.6379(3) 0.0490 Uani
H14 H 0.3020 0.5131 0.6993 0.0590 Uiso
N1 N 0.18938(17) 0.39275(15) 0.7330(2) 0.0354 Uani
N2 N 0.26943(17) 0.47438(16) 0.5573(2) 0.0361 Uani
N3 N 0.49262(17) 0.50274(16) 0.5454(2) 0.0376 Uani
N4 N 0.2505(2) 0.27785(16) 1.0093(3) 0.0503 Uani
O1 O 0.16555(16) 0.35889(14) 0.47546(19) 0.0481 Uani
O2 O 0.09918(15) 0.43434(12) 0.38832(19) 0.0372 Uani
O3 O 0.17707(15) 0.45623(13) 0.21737(19) 0.0425 Uani
O4 O 0.09231(13) 0.45186(12) 0.06472(19) 0.0332 Uani
O5 O 0.02930(14) 0.41756(12) 0.59851(19) 0.0359 Uani
H15 H -0.0026 0.4327 0.5457 0.0430 Uiso
H16 H 0.0171 0.4452 0.6394 0.0430 Uiso
Cd1F Cd 0.353194(14) 0.048144(12) 1.422999(19) 0.0244 Uani
Cd1E Cd 0.146806(14) 0.548144(12) 0.077001(19) 0.0244 Uani
Cd1D Cd 0.853194(14) 0.548144(12) 0.422999(19) 0.0244 Uani
Cd1C Cd 0.353194(14) -0.048144(12) 1.922999(19) 0.0244 Uani
C1F C 0.3732(2) 0.11858(19) 1.6106(3) 0.0298 Uani
C2F C 0.38681(19) 0.15984(17) 1.7100(3) 0.0277 Uani
C3F C 0.3952(2) 0.22148(19) 1.6945(3) 0.0366 Uani
H1F H 0.3917 0.2359 1.6240 0.0440 Uiso
C4F C 0.4093(2) 0.26507(19) 1.7814(3) 0.0396 Uani
C5F C 0.4116(3) 0.3300(2) 1.7642(4) 0.0614 Uani
H2F H 0.4041 0.3458 1.6939 0.0740 Uiso
C6F C 0.4250(3) 0.3690(2) 1.8512(4) 0.0815 Uani
H3F H 0.4259 0.4117 1.8399 0.0980 Uiso
C7F C 0.4373(3) 0.3462(2) 1.9563(4) 0.0805 Uani
H4F H 0.4471 0.3737 2.0147 0.0960 Uiso
C8F C 0.4353(3) 0.2844(2) 1.9748(4) 0.0601 Uani
H5F H 0.4436 0.2698 2.0459 0.0720 Uiso
C9F C 0.4210(2) 0.24183(18) 1.8879(3) 0.0388 Uani
C10F C 0.4134(2) 0.17728(18) 1.9036(3) 0.0323 Uani
H6F H 0.4214 0.1620 1.9743 0.0390 Uiso
C11F C 0.39512(19) 0.13672(17) 1.8195(3) 0.0260 Uani
C12F C 0.3741(2) 0.07170(17) 1.8451(3) 0.0280 Uani
C13F C 0.2899(3) 0.1658(2) 1.2769(3) 0.0601 Uani
H7F H 0.2885 0.1801 1.3461 0.0720 Uiso
C14F C 0.2701(3) 0.2067(2) 1.1903(3) 0.0633 Uani
H8F H 0.2575 0.2477 1.2011 0.0760 Uiso
C15F C 0.2698(2) 0.1846(2) 1.0884(3) 0.0402 Uani
C16F C 0.2888(3) 0.1246(2) 1.0762(3) 0.0482 Uani
H9F H 0.2881 0.1088 1.0072 0.0570 Uiso
C17F C 0.3094(2) 0.0868(2) 1.1668(3) 0.0422 Uani
H10F H 0.3227 0.0458 1.1574 0.0500 Uiso
C18D C 0.7063(2) 0.5426(2) 0.5307(3) 0.0522 Uani
H11D H 0.7397 0.5606 0.5885 0.0630 Uiso
C19D C 0.6337(2) 0.5346(2) 0.5398(3) 0.0480 Uani
H12D H 0.6190 0.5470 0.6025 0.0580 Uiso
C20D C 0.5840(2) 0.50831(18) 0.4556(3) 0.0333 Uani
C21D C 0.6085(2) 0.4903(2) 0.3644(3) 0.0510 Uani
H13D H 0.5760 0.4722 0.3055 0.0610 Uiso
C22D C 0.6818(2) 0.4996(2) 0.3621(3) 0.0490 Uani
H14D H 0.6980 0.4869 0.3007 0.0590 Uiso
N1F N 0.31062(17) 0.10725(15) 1.2670(2) 0.0354 Uani
N2D N 0.73057(17) 0.52562(16) 0.4427(2) 0.0361 Uani
N2F N 0.23057(17) 0.02562(16) 1.4427(2) 0.0361 Uani
N3D N 0.50738(17) 0.49726(16) 0.4546(2) 0.0376 Uani
N4F N 0.2495(2) 0.22215(16) 0.9907(3) 0.0503 Uani
O1F O 0.33445(16) 0.14111(14) 1.52454(19) 0.0481 Uani
O2F O 0.40082(15) 0.06566(12) 1.61168(19) 0.0372 Uani
O3E O 0.17707(15) 0.54377(13) 0.71737(19) 0.0425 Uani
O3C O 0.32293(15) -0.04377(13) 1.28263(19) 0.0425 Uani
O3F O 0.32293(15) 0.04377(13) 1.78263(19) 0.0425 Uani
O4E O 0.09231(13) 0.54814(12) 0.56472(19) 0.0332 Uani
O4C O 0.40769(13) -0.04814(12) 1.43528(19) 0.0332 Uani
O4F O 0.40769(13) 0.04814(12) 1.93528(19) 0.0332 Uani
O5F O 0.47070(14) 0.08244(12) 1.40149(19) 0.0359 Uani
H15F H 0.5026 0.0673 1.4543 0.0430 Uiso
H16F H 0.4829 0.0548 1.3606 0.0430 Uiso
O6 O 0.0000 0.50341(18) 0.2500 0.0369 Uani
H17 H 0.0222 0.4748 0.2911 0.0440 Uiso
H17A H -0.0222 0.4748 0.2089 0.0440 Uiso
O7 O 0.0000 0.3159(4) 0.7500 0.0529 Uani
H18 H 0.0036 0.3391 0.6968 0.0640 Uiso
H18A H -0.0036 0.3391 0.8032 0.0640 Uiso
O8 O 0.2932(6) 0.2872(6) 0.4545(8) 0.0524 Uani
H19 H 0.3261 0.2978 0.4203 0.0630 Uiso
H20 H 0.2558 0.3087 0.4611 0.0630 Uiso
loop_
_atom_site_aniso_label
_atom_site_aniso_U_11
_atom_site_aniso_U_22
_atom_site_aniso_U_33
_atom_site_aniso_U_23
_atom_site_aniso_U_13
_atom_site_aniso_U_12
Cd1 0.02676(14) 0.02603(15) 0.02040(13) 0.00232(13) 0.00512(9) 0.00339(14)
C1 0.031(2) 0.036(2) 0.0237(19) 0.0003(17) 0.0087(16) -0.0051(19)
C2 0.028(2) 0.027(2) 0.0269(19) 0.0009(16) 0.0032(15) -0.0016(17)
C3 0.045(2) 0.035(2) 0.028(2) 0.0025(17) 0.0044(17) -0.004(2)
C4 0.046(3) 0.027(2) 0.043(2) 0.0003(18) 0.0039(19) -0.007(2)
C5 0.088(4) 0.034(3) 0.055(3) 0.007(2) 0.000(3) -0.006(3)
C6 0.139(6) 0.022(3) 0.074(4) -0.007(3) 0.003(3) -0.012(3)
C7 0.142(6) 0.032(3) 0.060(3) -0.017(3) 0.006(3) -0.011(3)
C8 0.094(4) 0.037(3) 0.041(2) -0.012(2) -0.003(2) -0.008(3)
C9 0.050(3) 0.029(2) 0.034(2) -0.0054(18) 0.0017(19) -0.004(2)
C10 0.042(2) 0.028(2) 0.0240(18) -0.0015(16) 0.0009(17) -0.0006(18)
C11 0.0258(19) 0.027(2) 0.0255(18) -0.0026(16) 0.0060(15) -0.0019(17)
C12 0.035(2) 0.027(2) 0.0258(19) -0.0078(16) 0.0152(17) -0.0005(17)
C13 0.100(4) 0.050(3) 0.032(2) 0.009(2) 0.018(2) 0.029(3)
C14 0.104(4) 0.043(3) 0.044(3) 0.014(2) 0.019(3) 0.033(3)
C15 0.049(3) 0.045(3) 0.028(2) 0.0136(19) 0.0113(19) 0.013(2)
C16 0.071(3) 0.048(3) 0.027(2) 0.0076(19) 0.014(2) 0.007(2)
C17 0.057(3) 0.037(3) 0.033(2) 0.0047(19) 0.011(2) 0.009(2)
C18 0.035(2) 0.081(4) 0.042(2) -0.018(2) 0.0117(19) -0.016(3)
C19 0.041(2) 0.069(4) 0.038(2) -0.009(2) 0.0171(19) -0.009(2)
C20 0.028(2) 0.036(2) 0.037(2) 0.0086(18) 0.0097(17) 0.0004(18)
C21 0.032(2) 0.080(4) 0.039(2) -0.009(2) 0.0037(19) -0.008(2)
C22 0.031(2) 0.080(4) 0.039(2) -0.015(2) 0.0140(19) -0.004(2)
N1 0.041(2) 0.036(2) 0.0288(17) 0.0094(15) 0.0070(15) 0.0092(16)
N2 0.0278(17) 0.049(2) 0.0326(17) 0.0003(15) 0.0089(14) -0.0033(16)
N3 0.0272(17) 0.040(2) 0.047(2) 0.0082(17) 0.0111(16) 0.0013(15)
N4 0.067(2) 0.047(2) 0.0379(19) 0.0144(19) 0.0135(17) 0.014(2)
O1 0.065(2) 0.0467(19) 0.0269(14) -0.0004(13) -0.0024(13) 0.0045(16)
O2 0.0480(17) 0.0350(18) 0.0277(14) -0.0051(11) 0.0067(12) 0.0061(13)
O3 0.0507(17) 0.0414(17) 0.0342(14) -0.0069(13) 0.0067(13) -0.0218(15)
O4 0.0414(15) 0.0261(14) 0.0317(13) 0.0062(12) 0.0070(11) -0.0002(14)
O5 0.0351(15) 0.0386(17) 0.0341(14) 0.0010(12) 0.0077(12) 0.0013(13)
Cd1F 0.02676 0.02603 0.0204 0.00232 0.00512 0.00339
Cd1E 0.02676 0.02603 0.0204 -0.00232 0.00512 -0.00339
Cd1D 0.02676 0.02603 0.0204 0.00232 0.00512 0.00339
Cd1C 0.02676 0.02603 0.0204 -0.00232 0.00512 -0.00339
C1F 0.031 0.036 0.0237 0.0003 0.0087 -0.0051
C2F 0.028 0.027 0.0269 0.0009 0.0032 -0.0016
C3F 0.045 0.035 0.028 0.0025 0.0044 -0.004
C4F 0.046 0.027 0.043 0.0003 0.0039 -0.007
C5F 0.088 0.034 0.055 0.007 0 -0.006
C6F 0.139 0.022 0.074 -0.007 0.003 -0.012
C7F 0.142 0.032 0.06 -0.017 0.006 -0.011
C8F 0.094 0.037 0.041 -0.012 -0.003 -0.008
C9F 0.05 0.029 0.034 -0.0054 0.0017 -0.004
C10F 0.042 0.028 0.024 -0.0015 0.0009 -0.0006
C11F 0.0258 0.027 0.0255 -0.0026 0.006 -0.0019
C12F 0.035 0.027 0.0258 -0.0078 0.0152 -0.0005
C13F 0.1 0.05 0.032 0.009 0.018 0.029
C14F 0.104 0.043 0.044 0.014 0.019 0.033
C15F 0.049 0.045 0.028 0.0136 0.0113 0.013
C16F 0.071 0.048 0.027 0.0076 0.014 0.007
C17F 0.057 0.037 0.033 0.0047 0.011 0.009
C18D 0.035 0.081 0.042 -0.018 0.0117 -0.016
C19D 0.041 0.069 0.038 -0.009 0.0171 -0.009
C20D 0.028 0.036 0.037 0.0086 0.0097 0.0004
C21D 0.032 0.08 0.039 -0.009 0.0037 -0.008
C22D 0.031 0.08 0.039 -0.015 0.014 -0.004
N1F 0.041 0.036 0.0288 0.0094 0.007 0.0092
N2D 0.0278 0.049 0.0326 0.0003 0.0089 -0.0033
N2F 0.0278 0.049 0.0326 0.0003 0.0089 -0.0033
N3D 0.0272 0.04 0.047 0.0082 0.0111 0.0013
N4F 0.067 0.047 0.0379 0.0144 0.0135 0.014
O1F 0.065 0.0467 0.0269 -0.0004 -0.0024 0.0045
O2F 0.048 0.035 0.0277 -0.0051 0.0067 0.0061
O3E 0.0507 0.0414 0.0342 0.0069 0.0067 0.0218
O3C 0.0507 0.0414 0.0342 0.0069 0.0067 0.0218
O3F 0.0507 0.0414 0.0342 -0.0069 0.0067 -0.0218
O4E 0.0414 0.0261 0.0317 -0.0062 0.007 0.0002
O4C 0.0414 0.0261 0.0317 -0.0062 0.007 0.0002
O4F 0.0414 0.0261 0.0317 0.0062 0.007 -0.0002
O5F 0.0351 0.0386 0.0341 0.001 0.0077 0.0013
O6 0.042(2) 0.041(2) 0.0282(19) 0.000 0.0090(16) 0.000
O7 0.093(7) 0.027(5) 0.046(5) 0.000 0.031(5) 0.000
O8 0.047(7) 0.060(8) 0.042(6) -0.009(6) -0.008(5) 0.048(6)
loop_
_geom_bond_atom_site_label_1
_geom_bond_atom_site_label_2
_geom_bond_site_symmetry_1
_geom_bond_site_symmetry_2
Cd1 N1 1_555 1_555
C1 C2 1_555 1_555
C2 C3 1_555 1_555
C3 H1 1_555 1_555
C4 C3 1_555 1_555
C5 C4 1_555 1_555
H2 C5 1_555 1_555
C6 C5 1_555 1_555
H3 C6 1_555 1_555
C7 C6 1_555 1_555
H4 C7 1_555 1_555
C8 C7 1_555 1_555
H5 C8 1_555 1_555
C9 C4 1_555 1_555
C10 C9 1_555 1_555
H6 C10 1_555 1_555
C11 C2 1_555 1_555
C12 C11 1_555 1_555
C13 H7 1_555 1_555
C14 C13 1_555 1_555
H8 C14 1_555 1_555
C15 C14 1_555 1_555
C16 C15 1_555 1_555
H9 C16 1_555 1_555
C17 C16 1_555 1_555
H10 C17 1_555 1_555
C18 H11 1_555 1_555
C19 C18 1_555 1_555
H12 C19 1_555 1_555
C20 C19 1_555 1_555
C21 C20 1_555 1_555
H13 C21 1_555 1_555
C22 C21 1_555 1_555
H14 C22 1_555 1_555
N1 C13 1_555 1_555
N2 Cd1 1_555 1_555
N3 C20 1_555 1_555
N4 C15 1_555 1_555
O1 Cd1 1_555 1_555
O2 Cd1 1_555 1_555
O3 C12 1_555 1_555
O4 C12 1_555 1_555
O5 Cd1 1_555 1_555
H15 O5 1_555 1_555
H16 O5 1_555 1_555
O6 H17 1_555 1_555
O7 H18 1_555 1_555
O8 H19 1_555 1_555
H20 O8 1_555 1_555
Cd1F N1F 1_555 1_555
Cd1E O3 1_555 1_555
Cd1D N2D 1_555 1_555
Cd1C O3F 1_555 1_555
C1F C2F 1_555 1_555
C2F C3F 1_555 1_555
C3F H1F 1_555 1_555
C4F C3F 1_555 1_555
C5F C4F 1_555 1_555
H2F C5F 1_555 1_555
C6F C5F 1_555 1_555
H3F C6F 1_555 1_555
C7F C6F 1_555 1_555
H4F C7F 1_555 1_555
C8F C7F 1_555 1_555
H5F C8F 1_555 1_555
C9F C4F 1_555 1_555
C10F C9F 1_555 1_555
H6F C10F 1_555 1_555
C11F C2F 1_555 1_555
C12F C11F 1_555 1_555
C13F H7F 1_555 1_555
C14F C13F 1_555 1_555
H8F C14F 1_555 1_555
C15F C14F 1_555 1_555
C16F C15F 1_555 1_555
H9F C16F 1_555 1_555
C17F C16F 1_555 1_555
H10F C17F 1_555 1_555
C18D H11D 1_555 1_555
C19D C18D 1_555 1_555
H12D C19D 1_555 1_555
C20D C19D 1_555 1_555
C21D C20D 1_555 1_555
H13D C21D 1_555 1_555
C22D C21D 1_555 1_555
H14D C22D 1_555 1_555
N1F C13F 1_555 1_555
N2D C18D 1_555 1_555
N2F Cd1F 1_555 1_555
N3D N3 1_555 1_555
N4F N4 1_555 1_555
O1F Cd1F 1_555 1_555
O2F Cd1F 1_555 1_555
O3E Cd1 1_555 1_555
O3C Cd1F 1_555 1_555
O3F C12F 1_555 1_555
O4E Cd1 1_555 1_555
O4C Cd1F 1_555 1_555
O4F Cd1C 1_555 1_555
O5F Cd1F 1_555 1_555
H15F O5F 1_555 1_555
H16F O5F 1_555 1_555
H17A O6 1_555 1_555
H18A O7 1_555 1_555
C1 O1 1_555 1_555
C1 O2 1_555 1_555
C8 C9 1_555 1_555
C10 C11 1_555 1_555
C17 N1 1_555 1_555
C18 N2 1_555 1_555
C22 N2 1_555 1_555
O4 Cd1E 1_555 1_555
C1F O1F 1_555 1_555
C1F O2F 1_555 1_555
C8F C9F 1_555 1_555
C10F C11F 1_555 1_555
C12F O4F 1_555 1_555
C15F N4F 1_555 1_555
C17F N1F 1_555 1_555
C20D N3D 1_555 1_555
C22D N2D 1_555 1_555

#END
