
#######################################################################
#
#                 Cambridge Crystallographic Data Centre
#                                CCDC 
#
#######################################################################
#
# If this CIF has been generated from an entry in the Cambridge 
# Structural Database, then it will include bibliographic, chemical, 
# crystal, experimental, refinement or atomic coordinate data resulting 
# from the CCDC's data processing and validation procedures.
#
#######################################################################

data_EXALAR
_chemical_formula_moiety         '(C32 H50 N24 Ni2 O45 Si1 W12 4+)n'
_symmetry_cell_setting           monoclinic
_symmetry_space_group_name_H-M   'P 21/n'
_symmetry_Int_Tables_number      14
_space_group_name_Hall           '-P 2yn'
loop_
_symmetry_equiv_pos_site_id
_symmetry_equiv_pos_as_xyz
1 x,y,z
2 1/2-x,1/2+y,1/2-z
3 -x,-y,-z
4 1/2+x,1/2-y,1/2+z
_cell_length_a                   11.201(5)
_cell_length_b                   14.943(5)
_cell_length_c                   21.483(5)
_cell_angle_alpha                90
_cell_angle_beta                 92.096(5)
_cell_angle_gamma                90
_cell_volume                     3593.34
loop_
_atom_site_label
_atom_site_type_symbol
_atom_site_fract_x
_atom_site_fract_y
_atom_site_fract_z
Si1 Si -0.5000 0.5000 -0.5000
W1 W -0.19876(8) 0.56111(7) -0.52032(5)
W2 W -0.40447(9) 0.72006(6) -0.46791(4)
W3 W -0.27668(9) 0.42384(7) -0.39509(6)
W4 W -0.57577(9) 0.35592(7) -0.37646(5)
W5 W -0.70726(8) 0.66242(7) -0.45231(5)
W6 W -0.48962(9) 0.57860(8) -0.34524(5)
O1 O -0.524(2) 0.5868(17) -0.4595(11)
O2 O -0.473(3) 0.472(2) -0.4240(13)
O3 O -0.412(2) 0.5770(18) -0.5152(12)
O4 O -0.638(3) 0.533(2) -0.5053(15)
O5 O -0.252(3) 0.619(2) -0.5958(14)
O6 O -0.620(3) 0.615(2) -0.3779(15)
O7 O -0.348(3) 0.519(2) -0.3656(15)
O8 O -0.218(3) 0.513(2) -0.4365(14)
O9 O -0.410(3) 0.742(2) -0.5595(15)
O10 O -0.236(3) 0.680(2) -0.4791(14)
O11 O -0.556(3) 0.461(2) -0.3153(14)
O12 O -0.228(3) 0.454(2) -0.5534(14)
O13 O -0.287(3) 0.351(2) -0.4577(14)
O14 O -0.186(3) 0.373(3) -0.3447(18)
O15 O -0.415(3) 0.361(2) -0.3915(14)
O16 O -0.4799(16) 0.6202(14) -0.2722(7)
O17 O -0.4095(18) 0.6709(14) -0.3856(9)
O18 O -0.362(2) 0.8233(13) -0.4514(14)
O19 O -0.5727(15) 0.7310(17) -0.4674(9)
O20 O -0.806(2) 0.7416(15) -0.4323(12)
O21 O -0.0601(17) 0.5948(14) -0.5303(9)
O22 O -0.6136(16) 0.2864(12) -0.3188(8)
W1B W -0.80124(8) 0.43889(7) -0.47968(5)
W2B W -0.59553(9) 0.27994(6) -0.53209(4)
W3B W -0.72332(9) 0.57616(7) -0.60491(6)
W4B W -0.42423(9) 0.64408(7) -0.62354(5)
W5B W -0.29274(8) 0.33758(7) -0.54769(5)
W6B W -0.51038(9) 0.42140(8) -0.65476(5)
O1B O -0.476(2) 0.4132(17) -0.5405(11)
O2B O -0.527(3) 0.528(2) -0.5760(13)
O3B O -0.588(2) 0.4230(18) -0.4848(12)
O4B O -0.362(3) 0.467(2) -0.4947(15)
O5B O -0.748(3) 0.381(2) -0.4042(14)
O6B O -0.380(3) 0.385(2) -0.6221(15)
O7B O -0.652(3) 0.481(2) -0.6344(15)
O8B O -0.782(3) 0.487(2) -0.5635(14)
O9B O -0.590(3) 0.258(2) -0.4405(15)
O10B O -0.764(3) 0.320(2) -0.5209(14)
O11B O -0.444(3) 0.539(2) -0.6847(14)
O12B O -0.772(3) 0.546(2) -0.4466(14)
O13B O -0.713(3) 0.649(2) -0.5423(14)
O14B O -0.814(3) 0.627(3) -0.6553(18)
O15B O -0.585(3) 0.639(2) -0.6085(14)
O16B O -0.5201(16) 0.3798(14) -0.7278(7)
O17B O -0.5905(18) 0.3291(14) -0.6144(9)
O18B O -0.638(2) 0.1767(13) -0.5486(14)
O19B O -0.4273(15) 0.2690(17) -0.5326(9)
O20B O -0.194(2) 0.2584(15) -0.5677(12)
O21B O -0.9399(17) 0.4052(14) -0.4697(9)
O22B O -0.3864(16) 0.7136(12) -0.6812(8)
O23 O 0.082(6) -0.059(5) -0.333(3)
Ni1 Ni -0.0983(2) 0.2374(2) -0.30033(13)
N1 N 0.0755(17) 0.1549(15) -0.4529(9)
N2 N 0.018(2) 0.2137(14) -0.3674(10)
N3 N -0.227(2) 0.2575(14) -0.2388(9)
N4 N -0.357(2) 0.0778(15) -0.3851(11)
N5 N -0.3806(18) 0.2266(14) -0.1824(9)
N6 N -0.5125(16) -0.1742(14) -0.2388(9)
N7 N -0.2086(17) 0.1493(14) -0.3418(10)
N8 N -0.592(3) -0.073(2) -0.3061(13)
N9 N -0.6190(18) -0.0508(15) -0.2471(10)
N10 N -0.369(2) 0.3202(16) -0.1842(11)
N11 N -0.283(2) 0.0124(15) -0.3642(11)
N12 N 0.162(2) 0.1401(16) -0.4121(12)
C1 C -0.011(2) 0.1983(19) -0.4279(12)
H1 H -0.0815 0.2159 -0.4485
C2 C -0.2915(18) 0.1952(16) -0.2137(11)
H2 H -0.2755 0.1344 -0.2176
C3 C -0.572(2) -0.115(2) -0.2082(13)
H3 H -0.5818 -0.1168 -0.1654
C4 C -0.513(3) 0.100(2) -0.1679(14)
H4 H -0.5491 0.0674 -0.1346
H5 H -0.4477 0.0642 -0.1828
C5 C -0.462(3) 0.186(2) -0.1415(15)
H6 H -0.5262 0.2275 -0.1340
H7 H -0.4205 0.1738 -0.1019
C6 C -0.195(2) 0.0593(18) -0.3377(11)
H8 H -0.1290 0.0328 -0.3178
C7 C -0.313(2) 0.1533(17) -0.3722(10)
H9 H -0.3510 0.2069 -0.3831
C8 C -0.467(2) 0.055(2) -0.4223(12)
H10 H -0.5170 0.1074 -0.4263
H11 H -0.5109 0.0096 -0.4000
C9 C 0.078(3) 0.118(2) -0.5171(12)
H12 H 0.1553 0.1309 -0.5347
H13 H 0.0168 0.1465 -0.5434
C10 C -0.527(3) -0.146(2) -0.3013(17)
H14 H -0.4951 -0.1757 -0.3349
C11 C 0.057(3) 0.014(2) -0.5142(14)
H15 H 0.0578 -0.0100 -0.5562
H16 H 0.1230 -0.0133 -0.4906
C12 C -0.275(3) 0.334(2) -0.2196(15)
H17 H -0.2464 0.3908 -0.2296
C13 C -0.443(2) 0.0198(18) -0.4864(14)
H18 H -0.3806 -0.0255 -0.4839
H19 H -0.4158 0.0682 -0.5126
C14 C -0.604(3) 0.1124(18) -0.2204(13)
H20 H -0.5643 0.1231 -0.2590
H21 H -0.6537 0.1641 -0.2121
C15 C 0.131(2) 0.1738(17) -0.3610(11)
H22 H 0.1764 0.1721 -0.3241
C16 C -0.685(3) 0.0276(17) -0.2274(16)
H23 H -0.7199 0.0150 -0.1877
H24 H -0.7491 0.0397 -0.2576
Ni1B Ni 0.0983(2) -0.2374(2) -0.69967(13)
Ni1A Ni -0.4017(2) -0.2626(2) -0.19967(13)
Ni1B_2 Ni -0.9017(2) -0.2374(2) -0.69967(13)
Ni1A_2 Ni -0.4017(2) 0.7374(2) -0.19967(13)
N1B N -0.0755(17) -0.1549(15) -0.5471(9)
N2B N -0.018(2) -0.2137(14) -0.6326(10)
N3A N -0.273(2) 0.7575(14) -0.2612(9)
N3B N 0.227(2) -0.2575(14) -0.7612(9)
N4B N -0.643(2) -0.0778(15) -0.6149(11)
N5A N -0.1194(18) 0.7266(14) -0.3176(9)
N6A N 0.0125(16) 0.3258(14) -0.2612(9)
N6C N -0.0125(16) -0.3258(14) -0.7388(9)
N7B N -0.7914(17) -0.1493(14) -0.6582(10)
N7B_2 N 0.2086(17) -0.1493(14) -0.6582(10)
N8A N 0.092(3) 0.427(2) -0.1939(13)
N9A N 0.1190(18) 0.4492(15) -0.2529(10)
N10A N -0.131(2) 0.8202(16) -0.3158(11)
N11B N -0.717(2) -0.0124(15) -0.6358(11)
N12B N -0.162(2) -0.1401(16) -0.5879(12)
C1B C 0.011(2) -0.1983(19) -0.5721(12)
H1B H 0.0815 -0.2159 -0.5515
C2A C -0.2085(18) 0.6952(16) -0.2863(11)
H2A H -0.2245 0.6344 -0.2824
C3A C 0.072(2) 0.385(2) -0.2918(13)
H3A H 0.0818 0.3832 -0.3346
C4A C 0.013(3) 0.600(2) -0.3321(14)
H4A H 0.0491 0.5674 -0.3654
H5A H -0.0523 0.5642 -0.3172
C5A C -0.038(3) 0.686(2) -0.3585(15)
H6A H 0.0262 0.7275 -0.3660
H7A H -0.0795 0.6738 -0.3981
C6B C -0.805(2) -0.0593(18) -0.6623(11)
H8B H -0.8710 -0.0328 -0.6822
C7B C -0.687(2) -0.1533(17) -0.6278(10)
H9B H -0.6490 -0.2069 -0.6169
C8B C -0.533(2) -0.055(2) -0.5777(12)
H10B H -0.4830 -0.1074 -0.5737
H11B H -0.4891 -0.0096 -0.6000
C9B C -0.078(3) -0.118(2) -0.4829(12)
H12B H -0.1553 -0.1309 -0.4653
H13B H -0.0168 -0.1465 -0.4566
C10A C 0.027(3) 0.354(2) -0.1987(17)
H14A H -0.0049 0.3243 -0.1651
C11B C -0.057(3) -0.014(2) -0.4858(14)
H15B H -0.0578 0.0100 -0.4438
H16B H -0.1230 0.0133 -0.5094
C12A C -0.225(3) 0.834(2) -0.2804(15)
H17A H -0.2536 0.8908 -0.2704
C13B C -0.557(2) -0.0198(18) -0.5136(14)
H18B H -0.6194 0.0255 -0.5161
H19B H -0.5842 -0.0682 -0.4874
C14A C 0.104(3) 0.6124(18) -0.2796(13)
H20A H 0.0643 0.6231 -0.2410
H21A H 0.1537 0.6641 -0.2879
C15B C -0.131(2) -0.1738(17) -0.6390(11)
H22B H -0.1764 -0.1721 -0.6759
C16A C 0.185(3) 0.5276(17) -0.2726(16)
H23A H 0.2199 0.5150 -0.3123
H24A H 0.2491 0.5397 -0.2424
loop_
_geom_bond_atom_site_label_1
_geom_bond_atom_site_label_2
_geom_bond_site_symmetry_1
_geom_bond_site_symmetry_2
Ni1 N2 1_555 1_555
Si1 O1 1_555 1_555
W1 O3 1_555 1_555
W2 O1 1_555 1_555
W3 O2 1_555 1_555
W4 O2 1_555 1_555
W5 O1 1_555 1_555
W6 O1 1_555 1_555
O1 O3 1_555 1_555
O2 Si1 1_555 1_555
O3 Si1 1_555 1_555
O4 Si1 1_555 1_555
O5 W1 1_555 1_555
O6 W5 1_555 1_555
O7 W3 1_555 1_555
O8 W1 1_555 1_555
O9 W2 1_555 1_555
O10 W1 1_555 1_555
O11 W4 1_555 1_555
O12 W1 1_555 1_555
O13 W3 1_555 1_555
O14 W3 1_555 1_555
O15 W3 1_555 1_555
O16 W6 1_555 1_555
O17 W2 1_555 1_555
O18 W2 1_555 1_555
O19 W2 1_555 1_555
O20 W5 1_555 1_555
O21 W1 1_555 1_555
O22 W4 1_555 1_555
N1 N12 1_555 1_555
N2 C1 1_555 1_555
N3 Ni1 1_555 1_555
N4 N11 1_555 1_555
N5 N10 1_555 1_555
N6 C3 1_555 1_555
N7 Ni1 1_555 1_555
N8 N9 1_555 1_555
N9 C3 1_555 1_555
N10 C12 1_555 1_555
N11 C6 1_555 1_555
N12 C15 1_555 1_555
C1 N1 1_555 1_555
H1 C1 1_555 1_555
C2 N3 1_555 1_555
H2 C2 1_555 1_555
C3 H3 1_555 1_555
C4 H4 1_555 1_555
H5 C4 1_555 1_555
C5 N5 1_555 1_555
H6 C5 1_555 1_555
H7 C5 1_555 1_555
C6 N7 1_555 1_555
H8 C6 1_555 1_555
C7 N4 1_555 1_555
H9 C7 1_555 1_555
C8 N4 1_555 1_555
H10 C8 1_555 1_555
H11 C8 1_555 1_555
C9 N1 1_555 1_555
H12 C9 1_555 1_555
H13 C9 1_555 1_555
C10 N6 1_555 1_555
H14 C10 1_555 1_555
C11 C9 1_555 1_555
H15 C11 1_555 1_555
H16 C11 1_555 1_555
C12 N3 1_555 1_555
H17 C12 1_555 1_555
C13 C8 1_555 1_555
H18 C13 1_555 1_555
H19 C13 1_555 1_555
C14 C4 1_555 1_555
H20 C14 1_555 1_555
H21 C14 1_555 1_555
C15 N2 1_555 1_555
H22 C15 1_555 1_555
C16 N9 1_555 1_555
H23 C16 1_555 1_555
H24 C16 1_555 1_555
Ni1B N2B 1_555 1_555
Ni1A N6 1_555 1_555
Ni1B_2 N7B 1_555 1_555
Ni1A_2 N3A 1_555 1_555
W1B O4 1_555 1_555
W2B O1B 1_555 1_555
W3B O4 1_555 1_555
W4B O3 1_555 1_555
W5B O12 1_555 1_555
W6B O1B 1_555 1_555
O1B Si1 1_555 1_555
O2B Si1 1_555 1_555
O3B Si1 1_555 1_555
O4B Si1 1_555 1_555
O5B W4 1_555 1_555
O6B W5B 1_555 1_555
O7B W3B 1_555 1_555
O8B W1B 1_555 1_555
O9B W4 1_555 1_555
O10B W1B 1_555 1_555
O11B W4B 1_555 1_555
O12B W5 1_555 1_555
O13B W5 1_555 1_555
O14B W3B 1_555 1_555
O15B W3B 1_555 1_555
O16B W6B 1_555 1_555
O17B W2B 1_555 1_555
O18B W2B 1_555 1_555
O19B W2B 1_555 1_555
O20B W5B 1_555 1_555
O21B W1B 1_555 1_555
O22B W4B 1_555 1_555
N1B N12B 1_555 1_555
N2B C1B 1_555 1_555
N3A C2A 1_555 1_555
N3B Ni1B 1_555 1_555
N4B N11B 1_555 1_555
N5A N10A 1_555 1_555
N6A Ni1 1_555 1_555
N6C Ni1B 1_555 1_555
N7B C6B 1_555 1_555
N7B_2 Ni1B 1_555 1_555
N8A N9A 1_555 1_555
N9A C3A 1_555 1_555
N10A C12A 1_555 1_555
N11B C6B 1_555 1_555
N12B C15B 1_555 1_555
C1B N1B 1_555 1_555
H1B C1B 1_555 1_555
C2A N5A 1_555 1_555
H2A C2A 1_555 1_555
C3A N6A 1_555 1_555
H3A C3A 1_555 1_555
C4A H4A 1_555 1_555
H5A C4A 1_555 1_555
C5A N5A 1_555 1_555
H6A C5A 1_555 1_555
H7A C5A 1_555 1_555
C6B H8B 1_555 1_555
C7B N4B 1_555 1_555
H9B C7B 1_555 1_555
C8B N4B 1_555 1_555
H10B C8B 1_555 1_555
H11B C8B 1_555 1_555
C9B N1B 1_555 1_555
H12B C9B 1_555 1_555
H13B C9B 1_555 1_555
C10A N6A 1_555 1_555
H14A C10A 1_555 1_555
C11B C11 1_555 1_555
H15B C11B 1_555 1_555
H16B C11B 1_555 1_555
C12A N3A 1_555 1_555
H17A C12A 1_555 1_555
C13B C13 1_555 1_555
H18B C13B 1_555 1_555
H19B C13B 1_555 1_555
C14A C4A 1_555 1_555
H20A C14A 1_555 1_555
H21A C14A 1_555 1_555
C15B N2B 1_555 1_555
H22B C15B 1_555 1_555
C16A N9A 1_555 1_555
H23A C16A 1_555 1_555
H24A C16A 1_555 1_555
W1 O4B 1_555 1_555
W2 O3 1_555 1_555
W2 O10 1_555 1_555
W3 O8 1_555 1_555
W3 O4B 1_555 1_555
W4 O15 1_555 1_555
W4 O3B 1_555 1_555
W5 O4 1_555 1_555
W5 O19 1_555 1_555
W6 O2 1_555 1_555
W6 O6 1_555 1_555
W6 O7 1_555 1_555
W6 O11 1_555 1_555
W6 O17 1_555 1_555
O1 O4 1_555 1_555
O3 O4B 1_555 1_555
O4 O3B 1_555 1_555
O5 W4B 1_555 1_555
O9 W4B 1_555 1_555
O13 W5B 1_555 1_555
N5 C2 1_555 1_555
N7 C7 1_555 1_555
N8 C10 1_555 1_555
C4 C5 1_555 1_555
C14 C16 1_555 1_555
W1B O3B 1_555 1_555
W1B O5B 1_555 1_555
W1B O12B 1_555 1_555
W2B O3B 1_555 1_555
W2B O9B 1_555 1_555
W2B O10B 1_555 1_555
W3B O2B 1_555 1_555
W3B O8B 1_555 1_555
W3B O13B 1_555 1_555
W4B O2B 1_555 1_555
W4B O15B 1_555 1_555
W5B O1B 1_555 1_555
W5B O4B 1_555 1_555
W5B O19B 1_555 1_555
W6B O2B 1_555 1_555
W6B O6B 1_555 1_555
W6B O7B 1_555 1_555
W6B O11B 1_555 1_555
W6B O17B 1_555 1_555
O1B O3B 1_555 1_555
O1B O4B 1_555 1_555
N7B C7B 1_555 1_555
N8A C10A 1_555 1_555
C4A C5A 1_555 1_555
C8B C13B 1_555 1_555
C9B C11B 1_555 1_555
C14A C16A 1_555 1_555

#END
