
#######################################################################
#
#                 Cambridge Crystallographic Data Centre
#                                CCDC 
#
#######################################################################
#
# If this CIF has been generated from an entry in the Cambridge 
# Structural Database, then it will include bibliographic, chemical, 
# crystal, experimental, refinement or atomic coordinate data resulting 
# from the CCDC's data processing and validation procedures.
#
#######################################################################

data_TASWOB
_chemical_formula_moiety         '(C26 H14 Cl12 O9 Tb1)n'
_symmetry_cell_setting           orthorhombic
_symmetry_space_group_name_H-M   'P n n a'
_symmetry_Int_Tables_number      52
_space_group_name_Hall           '-P 2a 2bc'
loop_
_symmetry_equiv_pos_site_id
_symmetry_equiv_pos_as_xyz
1 x,y,z
2 1/2-x,-y,z
3 x,1/2-y,1/2-z
4 1/2-x,1/2+y,1/2-z
5 -x,-y,-z
6 1/2+x,y,-z
7 -x,1/2+y,1/2+z
8 1/2+x,1/2-y,1/2+z
_cell_length_a                   25.63(2)
_cell_length_b                   26.60(3)
_cell_length_c                   14.517(14)
_cell_angle_alpha                90
_cell_angle_beta                 90
_cell_angle_gamma                90
_cell_volume                     9897.08
loop_
_atom_site_label
_atom_site_type_symbol
_atom_site_fract_x
_atom_site_fract_y
_atom_site_fract_z
_atom_site_U_iso_or_equiv
_atom_site_thermal_displace_type
Tb1 Tb 0.39725(2) -0.18427(2) 0.14849(4) 0.0551 Uani
Cl1 Cl 0.57778(16) -0.47700(13) 0.0040(3) 0.0880 Uani
Cl2 Cl 0.50955(17) -0.36620(18) -0.1706(3) 0.1020 Uani
Cl3 Cl 0.54519(16) -0.56627(12) -0.1179(3) 0.0912 Uani
Cl4 Cl 0.42871(13) -0.32416(15) -0.0342(3) 0.0887 Uani
Cl5 Cl 0.6156(2) -0.47106(17) -0.4178(3) 0.1127 Uani
Cl6 Cl 0.65344(14) -0.36534(16) 0.1021(3) 0.0950 Uani
Cl7 Cl 0.63956(17) -0.37556(13) -0.3013(3) 0.0947 Uani
Cl8 Cl 0.57230(16) -0.31684(16) 0.2314(3) 0.1003 Uani
Cl9 Cl 0.62005(14) -0.26880(13) -0.1240(3) 0.0855 Uani
Cl10 Cl 0.71535(14) -0.44946(11) -0.0757(3) 0.0946 Uani
Cl11 Cl 0.82191(14) -0.39832(14) -0.1059(3) 0.1017 Uani
Cl12 Cl 0.72686(15) -0.21868(12) -0.1445(3) 0.0917 Uani
O1 O 0.4508(3) -0.2542(3) 0.1352(6) 0.0713 Uani
O2 O 0.3927(6) -0.1943(7) -0.0121(11) 0.1910 Uani
H1 H 0.3926 -0.1673 -0.0494 0.2270 Uiso
H2 H 0.3917 -0.2255 -0.0362 0.2270 Uiso
O3 O 0.3216(7) -0.1413(6) 0.0891(16) 0.2373 Uani
H3 H 0.3051 -0.1595 0.0428 0.2860 Uiso
O4 O 0.4502(3) -0.3224(3) 0.2209(7) 0.0703 Uani
O5 O 0.6006(3) -0.5960(3) -0.3197(6) 0.0657 Uani
O6 O 0.4743(5) -0.1520(5) 0.0759(9) 0.1380 Uani
H4 H 0.4779 -0.1173 0.0802 0.1660 Uiso
O7 O 0.8380(3) -0.2525(3) -0.1055(6) 0.0610 Uani
O8 O 0.8411(3) -0.3057(4) -0.2291(7) 0.0780 Uani
C1 C 0.6200(5) -0.3845(4) -0.0965(10) 0.0707 Uani
C2 C 0.6087(3) -0.4299(2) -0.1517(5) 0.0573 Uani
C3 C 0.5876(3) -0.4727(3) -0.1112(4) 0.0687 Uani
C4 C 0.5753(3) -0.5142(2) -0.1651(6) 0.0683 Uani
C5 C 0.5840(3) -0.5129(2) -0.2596(6) 0.0670 Uani
C6 C 0.6051(3) -0.4702(3) -0.3001(4) 0.0810 Uani
C7 C 0.6174(3) -0.4287(2) -0.2462(5) 0.0677 Uani
C8 C 0.5797(4) -0.3626(4) -0.0325(9) 0.0553 Uani
C9 C 0.5278(5) -0.3544(4) -0.0595(9) 0.0653 Uani
C10 C 0.5156(8) -0.1760(6) 0.0275(13) 0.1380 Uani
H5 H 0.5021 -0.2074 0.0032 0.1660 Uiso
H6 H 0.5424 -0.1846 0.0721 0.1660 Uiso
C11 C 0.4919(4) -0.3332(4) 0.0005(9) 0.0560 Uani
C12 C 0.5046(5) -0.3208(4) 0.0916(9) 0.0567 Uani
C13 C 0.5549(5) -0.3309(5) 0.1210(9) 0.0620 Uani
C14 C 0.5917(4) -0.3512(4) 0.0591(9) 0.0577 Uani
C15 C 0.5422(8) -0.1480(6) -0.0524(12) 0.1380 Uani
H7 H 0.5708 -0.1677 -0.0753 0.2070 Uiso
H8 H 0.5550 -0.1162 -0.0308 0.2070 Uiso
H9 H 0.5174 -0.1425 -0.1010 0.2070 Uiso
O9 O 0.5254(5) -0.5575(4) -0.3614(9) 0.1187 Uani
C16 C 0.6710(4) -0.3587(4) -0.1021(9) 0.0583 Uani
C17 C 0.7155(4) -0.3870(4) -0.1004(10) 0.0633 Uani
C18 C 0.6747(5) -0.3070(4) -0.1116(10) 0.0673 Uani
C19 C 0.7661(5) -0.3640(4) -0.1119(10) 0.0733 Uani
C20 C 0.7242(4) -0.2838(4) -0.1247(10) 0.0687 Uani
C21 C 0.4656(5) -0.2971(5) 0.1547(9) 0.0560 Uani
C22 C 0.8217(5) -0.2867(5) -0.1561(10) 0.0667 Uani
C23 C 0.5668(7) -0.5597(5) -0.3228(10) 0.0787 Uani
C24 C 0.2959(10) -0.0947(7) 0.108(2) 0.2373 Uani
H10 H 0.2632 -0.1062 0.1342 0.2860 Uiso
H11 H 0.2868 -0.0837 0.0462 0.2860 Uiso
C25 C 0.7700(6) -0.3115(5) -0.1313(9) 0.0687 Uani
C26 C 0.3032(11) -0.0440(8) 0.158(2) 0.2373 Uani
H12 H 0.2788 -0.0200 0.1336 0.3580 Uiso
H13 H 0.3381 -0.0321 0.1477 0.3580 Uiso
H14 H 0.2973 -0.0484 0.2223 0.3580 Uiso
Tb1B Tb 0.39725(2) -0.31573(2) 0.35151(4) 0.0551 Uani
Tb1F Tb 0.60275(2) -0.68427(2) -0.35151(4) 0.0551 Uani
Tb1E Tb 0.89725(2) -0.18427(2) -0.14849(4) 0.0551 Uani
Tb1G Tb 0.89725(2) -0.31573(2) -0.35151(4) 0.0551 Uani
O4B O 0.4502(3) -0.1776(3) 0.2791(7) 0.0703 Uani
O5F O 0.3994(3) -0.0960(3) 0.1803(6) 0.0657 Uani
O7E O 0.3380(3) -0.2525(3) 0.1055(6) 0.0610 Uani
O8G O 0.3411(3) -0.1943(4) 0.2709(7) 0.0780 Uani
loop_
_atom_site_aniso_label
_atom_site_aniso_U_11
_atom_site_aniso_U_22
_atom_site_aniso_U_33
_atom_site_aniso_U_23
_atom_site_aniso_U_13
_atom_site_aniso_U_12
Tb1 0.0493(4) 0.0333(3) 0.0827(5) -0.0110(3) 0.0024(3) -0.0011(2)
Cl1 0.105 0.054 0.105 -0.01 0.033 -0.0103
Cl2 0.089 0.12 0.097 -0.037 -0.008 0.023
Cl3 0.1 0.0335 0.14 -0.0088 0.03 -0.0176
Cl4 0.054 0.102 0.11 -0.031 -0.0088 0.0192
Cl5 0.17 0.076 0.092 -0.012 0.02 -0.001
Cl6 0.058 0.105 0.122 -0.007 -0.008 0.021
Cl7 0.122 0.046 0.116 0.0002 0.022 -0.021
Cl8 0.078 0.118 0.105 -0.042 -0.014 0.02
Cl9 0.0581 0.0453 0.153 0.006 0.009 0.0157
Cl10 0.074 0.0287 0.181 0.0147 0.031 0.0043
Cl11 0.061 0.063 0.181 0.039 0.02 0.0191
Cl12 0.081 0.0342 0.16 0.0123 0.011 -0.0001
O1 0.066 0.036 0.112 -0.018 0.016 0.006
O2 0.22(2) 0.215(19) 0.138(13) 0.046(12) -0.035(11) -0.111(15)
O3 0.191(14) 0.101(9) 0.42(2) 0.007(13) -0.104(15) -0.022(10)
O4 0.064 0.053 0.094 -0.015 0.016 0.004
O5 0.067 0.033 0.097 -0.006 0.008 0.001
O6 0.136(9) 0.092(7) 0.186(10) -0.025(6) 0.068(7) -0.016(6)
O7 0.057 0.046 0.08 0.005 -0.002 -0.004
O8 0.056 0.086 0.092 0.018 0.018 0.005
C1 0.047 0.042 0.123 -0.032 0.028 -0.011
C2 0.042 0.042 0.088 -0.008 0.019 -0.009
C3 0.062 0.053 0.091 -0.011 0.015 -0.01
C4 0.065 0.025 0.115 -0.014 0.036 -0.004
C5 0.06 0.033 0.108 -0.013 0.009 -0.007
C6 0.119 0.041 0.083 -0.014 0.027 -0.008
C7 0.06 0.04 0.103 -0.004 0.022 -0.008
C8 0.047 0.035 0.084 -0.008 -0.007 0.005
C9 0.05 0.055 0.091 -0.015 -0.005 -0.004
C10 0.136(9) 0.092(7) 0.186(10) -0.025(6) 0.068(7) -0.016(6)
C11 0.029 0.04 0.099 -0.017 0.013 -0.003
C12 0.054 0.028 0.088 -0.014 0.012 0
C13 0.048 0.045 0.093 -0.019 0.002 -0.002
C14 0.038 0.035 0.1 0.002 -0.005 0.007
C15 0.136(9) 0.092(7) 0.186(10) -0.025(6) 0.068(7) -0.016(6)
O9 0.101 0.062 0.193 -0.035 -0.072 0.016
C16 0.037 0.031 0.107 -0.003 0.007 -0.005
C17 0.054 0.019 0.117 0.021 0.028 0.006
C18 0.045 0.042 0.115 -0.011 0 0.016
C19 0.059 0.031 0.13 -0.003 0.022 0.006
C20 0.04 0.032 0.134 -0.01 -0.001 -0.002
C21 0.057 0.035 0.076 -0.015 0.011 -0.003
C22 0.052 0.057 0.091 0.02 0.007 -0.003
C23 0.107 0.031 0.098 -0.026 0.007 -0.008
C24 0.191(14) 0.101(9) 0.42(2) 0.007(13) -0.104(15) -0.022(10)
C25 0.069 0.043 0.094 0 0.007 -0.008
C26 0.191(14) 0.101(9) 0.42(2) 0.007(13) -0.104(15) -0.022(10)
Tb1B 0.0493 0.0333 0.0827 -0.011 -0.0024 0.0011
Tb1F 0.0493 0.0333 0.0827 -0.011 -0.0024 0.0011
Tb1E 0.0493 0.0333 0.0827 0.011 -0.0024 -0.0011
Tb1G 0.0493 0.0333 0.0827 0.011 0.0024 0.0011
O4B 0.064 0.053 0.094 -0.015 -0.016 -0.004
O5F 0.067(5) 0.033(5) 0.097(6) -0.006(4) -0.008(4) -0.001(4)
O7E 0.057 0.046 0.08 -0.005 0.002 -0.004
O8G 0.056 0.086 0.092 -0.018 0.018 -0.005
loop_
_geom_bond_atom_site_label_1
_geom_bond_atom_site_label_2
_geom_bond_site_symmetry_1
_geom_bond_site_symmetry_2
Tb1 O1 1_555 1_555
Cl1 C3 1_555 1_555
Cl2 C9 1_555 1_555
Cl3 C4 1_555 1_555
Cl4 C11 1_555 1_555
Cl5 C6 1_555 1_555
Cl6 C14 1_555 1_555
Cl7 C7 1_555 1_555
Cl8 C13 1_555 1_555
Cl9 C18 1_555 1_555
Cl10 C17 1_555 1_555
Cl11 C19 1_555 1_555
Cl12 C20 1_555 1_555
O1 C21 1_555 1_555
O2 Tb1 1_555 1_555
H1 O2 1_555 1_555
H2 O2 1_555 1_555
O3 Tb1 1_555 1_555
H3 O3 1_555 1_555
O4 C21 1_555 1_555
O5 C23 1_555 1_555
O6 Tb1 1_555 1_555
H4 O6 1_555 1_555
O7 C22 1_555 1_555
O8 C22 1_555 1_555
C1 C2 1_555 1_555
C2 C3 1_555 1_555
C3 C4 1_555 1_555
C4 C5 1_555 1_555
C5 C6 1_555 1_555
C6 C7 1_555 1_555
C7 C2 1_555 1_555
C8 C1 1_555 1_555
C9 C8 1_555 1_555
C10 O6 1_555 1_555
H5 C10 1_555 1_555
H6 C10 1_555 1_555
C11 C9 1_555 1_555
C12 C11 1_555 1_555
C13 C12 1_555 1_555
C14 C8 1_555 1_555
C15 C10 1_555 1_555
H7 C15 1_555 1_555
H8 C15 1_555 1_555
H9 C15 1_555 1_555
O9 C23 1_555 1_555
C16 C1 1_555 1_555
C17 C16 1_555 1_555
C18 C16 1_555 1_555
C19 C17 1_555 1_555
C20 C18 1_555 1_555
C21 C12 1_555 1_555
C22 C25 1_555 1_555
C23 C5 1_555 1_555
C24 O3 1_555 1_555
H10 C24 1_555 1_555
H11 C24 1_555 1_555
C25 C19 1_555 1_555
C26 C24 1_555 1_555
H12 C26 1_555 1_555
H13 C26 1_555 1_555
H14 C26 1_555 1_555
Tb1B O4 1_555 1_555
Tb1F O5 1_555 1_555
Tb1E O7 1_555 1_555
Tb1G O8 1_555 1_555
O4B Tb1 1_555 1_555
O5F Tb1 1_555 1_555
O7E Tb1 1_555 1_555
O8G Tb1 1_555 1_555
C13 C14 1_555 1_555
C20 C25 1_555 1_555

#END
