
#######################################################################
#
#                 Cambridge Crystallographic Data Centre
#                                CCDC 
#
#######################################################################
#
# If this CIF has been generated from an entry in the Cambridge 
# Structural Database, then it will include bibliographic, chemical, 
# crystal, experimental, refinement or atomic coordinate data resulting 
# from the CCDC's data processing and validation procedures.
#
#######################################################################

data_OJEPAW
_chemical_formula_moiety         '(C21 H9 N6 O12 Zn3 3-)n'
_symmetry_cell_setting           rhombohedral
_symmetry_space_group_name_H-M   'R -3'
_symmetry_Int_Tables_number      148
_space_group_name_Hall           '-R 3'
loop_
_symmetry_equiv_pos_site_id
_symmetry_equiv_pos_as_xyz
1 x,y,z
2 -y,x-y,z
3 -x+y,-x,z
4 2/3+x,1/3+y,1/3+z
5 2/3-y,1/3+x-y,1/3+z
6 2/3-x+y,1/3-x,1/3+z
7 1/3+x,2/3+y,2/3+z
8 1/3-y,2/3+x-y,2/3+z
9 1/3-x+y,2/3-x,2/3+z
10 -x,-y,-z
11 y,-x+y,-z
12 x-y,x,-z
13 1/3-x,2/3-y,2/3-z
14 1/3+y,2/3-x+y,2/3-z
15 1/3+x-y,2/3+x,2/3-z
16 2/3-x,1/3-y,1/3-z
17 2/3+y,1/3-x+y,1/3-z
18 2/3+x-y,1/3+x,1/3-z
_cell_length_a                   21.417(3)
_cell_length_b                   21.417(3)
_cell_length_c                   19.428(4)
_cell_angle_alpha                90
_cell_angle_beta                 90
_cell_angle_gamma                120
_cell_volume                     7717.49
loop_
_atom_site_label
_atom_site_type_symbol
_atom_site_fract_x
_atom_site_fract_y
_atom_site_fract_z
C1 C 0.54742(16) 0.18676(15) 0.11124(17)
C2 C 0.60958(14) 0.26277(14) 0.11680(15)
C3 C 0.67975(15) 0.27615(15) 0.11705(15)
H1 H 0.6886 0.2379 0.1174
C4 C 0.40755(15) -0.02306(15) 0.19638(15)
C5 C 0.33921(14) -0.06368(15) 0.23472(13)
C6 C 0.26979(21) -0.09288(15) 0.21054(13)
H2 H 0.2576 -0.0899 0.1652
C7 C 0.33008(23) -0.08173(16) 0.30387(14)
H3 H 0.3676 -0.0694 0.3349
N1 N 0.26058(17) -0.11905(12) 0.31971(10)
N2 N 0.22229(17) -0.12628(12) 0.26153(10)
O1 O 0.48521(12) 0.17616(13) 0.10629(17)
O2 O 0.56399(10) 0.13762(9) 0.10766(11)
O3 O 0.40046(10) -0.01005(11) 0.13347(10)
O4 O 0.46655(11) -0.00488(14) 0.22391(11)
Zn1 Zn 0.489374(14) 0.040926(15) 0.079740(14)
C1A C 0.81324(15) 0.36066(22) 0.11124(17)
C2A C 0.73723(14) 0.34681(20) 0.11680(15)
C3A C 0.72385(15) 0.40360(21) 0.11705(15)
H1A H 0.7621 0.4507 0.1174
O1A O 0.82384(13) 0.30905(18) 0.10629(17)
O2A O 0.86238(9) 0.42637(13) 0.10766(11)
C1B C 0.63934(22) 0.45258(16) 0.11124(17)
C2B C 0.65319(20) 0.39042(14) 0.11680(15)
C3B C 0.59640(21) 0.32025(15) 0.11705(15)
H1B H 0.5493 0.3114 0.1174
O1B O 0.69095(18) 0.51479(12) 0.10629(17)
O2B O 0.57363(13) 0.43601(10) 0.10766(11)
C4A C 1.02306(15) 0.43061(21) 0.19638(15)
C5A C 1.06368(15) 0.40289(21) 0.23472(13)
C6A C 1.09288(15) 0.36267(26) 0.21054(13)
H2A H 1.0899 0.3475 0.1652
C7A C 1.08173(16) 0.41181(28) 0.30387(14)
H3A H 1.0694 0.4370 0.3349
N1A N 1.11905(12) 0.37963(21) 0.31971(10)
N2A N 1.12628(12) 0.34857(21) 0.26153(10)
O3A O 1.01005(11) 0.41051(15) 0.13347(10)
O4A O 1.00488(14) 0.47143(18) 0.22391(11)
Zn1A Zn 0.959074(15) 0.448448(21) 0.079740(14)
C4B C 0.56939(21) 0.59245(15) 0.19638(15)
C5B C 0.59711(21) 0.66079(14) 0.23472(13)
C6B C 0.63733(26) 0.73021(21) 0.21054(13)
H2B H 0.6525 0.7424 0.1652
C7B C 0.58819(28) 0.66992(23) 0.30387(14)
H3B H 0.5630 0.6324 0.3349
N1B N 0.62037(21) 0.73942(17) 0.31971(10)
N2B N 0.65143(21) 0.77771(17) 0.26153(10)
O3B O 0.58949(15) 0.59954(10) 0.13347(10)
O4B O 0.52857(18) 0.53345(11) 0.22391(11)
Zn1B Zn 0.551552(21) 0.510626(14) 0.079740(14)
N1F N 0.59391(17) 0.54762(12) -0.01362(10)
N1G N 0.45238(12) 0.04630(21) -0.01362(10)
N1H N 0.95370(21) 0.40609(17) -0.01362(10)
N2O N 0.44438(17) 0.45961(12) 0.07180(10)
N2P N 0.54039(12) -0.01524(21) 0.07180(10)
N2Q N 1.01524(21) 0.55562(17) 0.07180(10)
Zn1C Zn 1.156041(14) 0.374259(15) 0.413073(14)
Zn1D Zn 0.625741(15) 0.781781(21) 0.413073(14)
Zn1E Zn 0.218219(21) -0.156041(14) 0.413073(14)
Zn1O Zn 1.177293(14) 0.292407(15) 0.253593(14)
Zn1P Zn 0.707593(15) 0.884885(21) 0.253593(14)
Zn1Q Zn 0.115115(21) -0.177293(14) 0.253593(14)
loop_
_geom_bond_atom_site_label_1
_geom_bond_atom_site_label_2
_geom_bond_site_symmetry_1
_geom_bond_site_symmetry_2
C1 C2 1_555 1_555
C2 C3 1_555 1_555
C3 H1 1_555 1_555
C4 C5 1_555 1_555
C5 C6 1_555 1_555
C6 H2 1_555 1_555
C7 C5 1_555 1_555
H3 C7 1_555 1_555
N1 C7 1_555 1_555
N2 C6 1_555 1_555
O1 C1 1_555 1_555
O2 C1 1_555 1_555
O3 C4 1_555 1_555
O4 C4 1_555 1_555
Zn1 O2 1_555 1_555
C1A C2A 1_555 1_555
C2A C3 1_555 1_555
C3A C2A 1_555 1_555
H1A C3A 1_555 1_555
O1A C1A 1_555 1_555
O2A C1A 1_555 1_555
C1B C2B 1_555 1_555
C2B C3A 1_555 1_555
C3B C2 1_555 1_555
H1B C3B 1_555 1_555
O1B C1B 1_555 1_555
O2B C1B 1_555 1_555
C4A C5A 1_555 1_555
C5A C6A 1_555 1_555
C6A H2A 1_555 1_555
C7A C5A 1_555 1_555
H3A C7A 1_555 1_555
N1A C7A 1_555 1_555
N2A C6A 1_555 1_555
O3A C4A 1_555 1_555
O4A C4A 1_555 1_555
Zn1A O2A 1_555 1_555
C4B C5B 1_555 1_555
C5B C6B 1_555 1_555
C6B H2B 1_555 1_555
C7B C5B 1_555 1_555
H3B C7B 1_555 1_555
N1B C7B 1_555 1_555
N2B C6B 1_555 1_555
O3B C4B 1_555 1_555
O4B C4B 1_555 1_555
Zn1B O2B 1_555 1_555
N1F Zn1B 1_555 1_555
N1G Zn1 1_555 1_555
N1H Zn1A 1_555 1_555
N2O Zn1B 1_555 1_555
N2P Zn1 1_555 1_555
N2Q Zn1A 1_555 1_555
Zn1C N1A 1_555 1_555
Zn1D N1B 1_555 1_555
Zn1E N1 1_555 1_555
Zn1O N2A 1_555 1_555
Zn1P N2B 1_555 1_555
Zn1Q N2 1_555 1_555
N1 N2 1_555 1_555
O3 Zn1 1_555 1_555
C2B C3B 1_555 1_555
N1A N2A 1_555 1_555
O3A Zn1A 1_555 1_555
N1B N2B 1_555 1_555
O3B Zn1B 1_555 1_555

#END
