
#######################################################################
#
#                 Cambridge Crystallographic Data Centre
#                                CCDC 
#
#######################################################################
#
# If this CIF has been generated from an entry in the Cambridge 
# Structural Database, then it will include bibliographic, chemical, 
# crystal, experimental, refinement or atomic coordinate data resulting 
# from the CCDC's data processing and validation procedures.
#
#######################################################################

data_OJEVIK
_chemical_formula_moiety         '(C13 H5 N2 O8 Zn2 1-)n'
_symmetry_cell_setting           trigonal
_symmetry_space_group_name_H-M   'P 32 2 1'
_symmetry_Int_Tables_number      154
_space_group_name_Hall           'P 32 2"'
loop_
_symmetry_equiv_pos_site_id
_symmetry_equiv_pos_as_xyz
1 x,y,z
2 -y,x-y,2/3+z
3 -x+y,-x,1/3+z
4 y,x,-z
5 x-y,-y,1/3-z
6 -x,-x+y,2/3-z
_cell_length_a                   13.698(3)
_cell_length_b                   13.698(3)
_cell_length_c                   34.212(10)
_cell_angle_alpha                90
_cell_angle_beta                 90
_cell_angle_gamma                120
_cell_volume                     5559.34
loop_
_atom_site_label
_atom_site_type_symbol
_atom_site_fract_x
_atom_site_fract_y
_atom_site_fract_z
C1 C 1.0818(3) 0.4455(3) 0.18680(9)
H1 H 1.0829 0.4148 0.2109
C2 C 1.1767(3) 0.5233(3) 0.16642(9)
C3 C 1.1338(3) 0.5467(3) 0.13354(8)
H2 H 1.1769 0.5985 0.1143
C4 C 1.2950(4) 0.5669(3) 0.17733(9)
C5 C 0.5662(4) -0.2241(2) 0.24431(8)
C6 C 0.5904(4) -0.0155(3) 0.36782(9)
C7 C 0.7888(4) 0.1949(3) 0.24592(9)
C8 C 0.7195(4) 0.0856(3) 0.26756(9)
C9 C 0.6794(3) -0.0163(3) 0.24790(8)
H3 H 0.6971 -0.0166 0.2217
C10 C 0.6130(3) -0.1176(3) 0.26726(8)
C11 C 0.5867(3) -0.1180(3) 0.30642(9)
H4 H 0.5426 -0.1859 0.3194
C12 C 0.6271(3) -0.0157(3) 0.32629(8)
C13 C 0.6952(4) 0.0855(3) 0.30684(9)
H5 H 0.7245 0.1533 0.3203
N1 N 0.9898(2) 0.4216(2) 0.16693(7)
N2 N 1.0224(2) 0.4849(2) 0.13327(7)
O1 O 1.3679(3) 0.6392(2) 0.15499(7)
O2 O 1.3131(3) 0.5281(2) 0.20771(6)
O3 O 0.57860(27) -0.21410(18) 0.20818(6)
O4 O 0.51579(27) -0.31591(18) 0.26290(6)
O5 O 0.7943(2) 0.18260(19) 0.20938(6)
O6 O 0.8232(5) 0.2849(2) 0.26197(8)
O7 O 0.63854(28) 0.0809(2) 0.38465(6)
O8 O 0.5169(5) -0.1010(3) 0.38259(8)
Zn1 Zn 0.90473(3) 0.46600(3) 0.095540(8)
Zn2 Zn 0.83217(3) 0.30320(3) 0.173767(8)
O1D O 0.7287(4) 0.3608(2) 0.17834(7)
O2D O 0.7850(4) 0.4719(2) 0.12562(6)
O3D O 0.79270(32) 0.21410(18) 0.12515(6)
O4D O 0.83170(32) 0.31591(18) 0.07043(6)
O7A O 0.9191(2) 0.55764(34) 0.05132(6)
Zn1B Zn 0.56127(4) 0.09527(3) 0.428873(8)
Zn1D Zn 0.43873(4) -0.46600(3) 0.237793(8)
Zn1D_2 Zn 1.43873(4) 0.53400(3) 0.237793(8)
Zn2D Zn 0.52897(4) -0.30320(3) 0.159566(8)
Zn2D_2 Zn 1.52897(4) 0.69680(3) 0.159566(8)
loop_
_geom_bond_atom_site_label_1
_geom_bond_atom_site_label_2
_geom_bond_site_symmetry_1
_geom_bond_site_symmetry_2
C1 H1 1_555 1_555
C2 C1 1_555 1_555
C3 C2 1_555 1_555
H2 C3 1_555 1_555
C4 C2 1_555 1_555
C5 C10 1_555 1_555
C6 C12 1_555 1_555
C7 C8 1_555 1_555
C8 C9 1_555 1_555
C9 H3 1_555 1_555
C10 C9 1_555 1_555
C11 C10 1_555 1_555
H4 C11 1_555 1_555
C12 C11 1_555 1_555
C13 C8 1_555 1_555
H5 C13 1_555 1_555
N1 C1 1_555 1_555
N2 C3 1_555 1_555
O1 C4 1_555 1_555
O2 C4 1_555 1_555
O3 C5 1_555 1_555
O4 C5 1_555 1_555
O5 C7 1_555 1_555
O6 C7 1_555 1_555
O7 C6 1_555 1_555
O8 C6 1_555 1_555
Zn1 N2 1_555 1_555
Zn2 N1 1_555 1_555
O1D Zn2 1_555 1_555
O2D Zn1 1_555 1_555
O3D Zn2 1_555 1_555
O4D Zn1 1_555 1_555
O7A Zn1 1_555 1_555
Zn1B O7 1_555 1_555
Zn1D O4 1_555 1_555
Zn1D_2 O2 1_555 1_555
Zn2D O3 1_555 1_555
Zn2D_2 O1 1_555 1_555
C12 C13 1_555 1_555
N1 N2 1_555 1_555
O5 Zn2 1_555 1_555

#END
