
#######################################################################
#
#                 Cambridge Crystallographic Data Centre
#                                CCDC 
#
#######################################################################
#
# If this CIF has been generated from an entry in the Cambridge 
# Structural Database, then it will include bibliographic, chemical, 
# crystal, experimental, refinement or atomic coordinate data resulting 
# from the CCDC's data processing and validation procedures.
#
#######################################################################

data_MAJJUF
_chemical_formula_moiety         'C11 H16 B16 Cu6 O17'
_symmetry_cell_setting           tetragonal
_symmetry_space_group_name_H-M   'I 41 m d'
_symmetry_Int_Tables_number      109
_space_group_name_Hall           'I 4bw -2'
loop_
_symmetry_equiv_pos_site_id
_symmetry_equiv_pos_as_xyz
1 x,y,z
2 1/2-x,1/2-y,1/2+z
3 -y,1/2+x,1/4+z
4 1/2+y,-x,3/4+z
5 x,-y,z
6 1/2-x,1/2+y,1/2+z
7 -y,1/2-x,1/4+z
8 1/2+y,x,3/4+z
9 1/2+x,1/2+y,1/2+z
10 -x,-y,z
11 1/2-y,x,3/4+z
12 y,1/2-x,1/4+z
13 1/2+x,1/2-y,1/2+z
14 -x,y,z
15 1/2-y,-x,3/4+z
16 y,1/2+x,1/4+z
_cell_length_a                   31.1622(12)
_cell_length_b                   31.1622(12)
_cell_length_c                   11.1615(5)
_cell_angle_alpha                90
_cell_angle_beta                 90
_cell_angle_gamma                90
_cell_volume                     10838.7
loop_
_atom_site_label
_atom_site_type_symbol
_atom_site_fract_x
_atom_site_fract_y
_atom_site_fract_z
Cu1 Cu 0.500 0.22939(7) 0.1955(8)
Cu2 Cu 0.500 0.25836(7) 0.4219(8)
O1 O 0.4554(4) 0.2150(4) 0.4420(16)
O2 O 0.2736(3) 0.0443(3) 0.4182(13)
O3 O 0.500 0.2882(5) 0.5955(16)
O4 O 0.4550(4) 0.1912(4) 0.2600(14)
O5 O 0.2978(4) 0.0442(4) 0.6102(13)
C1 C 0.4430(5) 0.1921(5) 0.3655(16)
O6 O 0.500 0.2061(6) 0.0182(17)
C2 C 0.4076(5) 0.1596(5) 0.3974(16)
C3 C 0.2980(5) 0.0565(4) 0.5041(17)
C4 C 0.3319(5) 0.0889(5) 0.4717(16)
B1 B 0.3588(6) 0.1652(6) 0.371(2)
B2 B 0.3820(7) 0.1574(7) 0.513(2)
B3 B 0.3291(6) 0.1387(6) 0.490(2)
B4 B 0.4157(6) 0.1155(6) 0.460(2)
C5 C 0.500 0.3271(9) 0.613(2)
C6 C 0.500 0.3474(10) 0.710(3)
B5 B 0.3361(6) 0.1124(7) 0.341(2)
B6 B 0.3915(6) 0.1220(6) 0.312(2)
B7 B 0.3754(6) 0.0783(5) 0.408(2)
B8 B 0.3690(6) 0.1040(6) 0.551(2)
C7 C 0.500 0.396(2) 0.672(6)
H1 H 0.347099 0.191506 0.331483
H2 H 0.387394 0.178764 0.578456
H3 H 0.303481 0.152494 0.52715
H4 H 0.444997 0.10571 0.48392
H5 H 0.315787 0.107321 0.273202
H6 H 0.40348 0.117 0.230195
H7 H 0.383294 0.048044 0.387223
H8 H 0.372528 0.092756 0.634049
O1M O 0.5446(4) 0.2150(4) 0.4420(16)
O2M O 0.7264(3) 0.0443(3) 0.4182(13)
O4M O 0.5450(4) 0.1912(4) 0.2600(14)
O5M O 0.7022(4) 0.0442(4) 0.6102(13)
C1M C 0.5570(5) 0.1921(5) 0.3655(16)
C2M C 0.5924(5) 0.1596(5) 0.3974(16)
C3M C 0.7020(5) 0.0565(4) 0.5041(17)
C4M C 0.6681(5) 0.0889(5) 0.4717(16)
B1M B 0.6412(6) 0.1652(6) 0.371(2)
B2M B 0.6180(7) 0.1574(7) 0.513(2)
B3M B 0.6709(6) 0.1387(6) 0.490(2)
B4M B 0.5843(6) 0.1155(6) 0.460(2)
B5M B 0.6639(6) 0.1124(7) 0.341(2)
B6M B 0.6085(6) 0.1220(6) 0.312(2)
B7M B 0.6246(6) 0.0783(5) 0.408(2)
B8M B 0.6310(6) 0.1040(6) 0.551(2)
H1M H 0.652901 0.191506 0.331483
H2M H 0.612606 0.178764 0.578456
H3M H 0.696519 0.152494 0.52715
H4M H 0.555003 0.10571 0.48392
H5M H 0.684213 0.107321 0.273202
H6M H 0.59652 0.117 0.230195
H7M H 0.616706 0.048044 0.387223
H8M H 0.627472 0.092756 0.634049
Cu1B Cu 0.77061(7) -0.000 0.4455(8)
Cu1K Cu 0.22939(7) -0.000 0.4455(8)
Cu2B Cu 0.74164(7) 0.000 0.6719(8)
Cu2K Cu 0.25836(7) 0.000 0.6719(8)
O2G O 0.5443(3) 0.2736(3) 0.1682(13)
O2J O 0.4557(3) 0.2736(3) 0.1682(13)
O5G O 0.5442(4) 0.2978(4) 0.3602(13)
O5J O 0.4558(4) 0.2978(4) 0.3602(13)
O7 O 0.500 0.1844(11) -0.243(3)
O8 O 0.500 0.045(9) 0.05(3)
O9 O 0.500 0.500 0.084(19)
loop_
_geom_bond_atom_site_label_1
_geom_bond_atom_site_label_2
_geom_bond_site_symmetry_1
_geom_bond_site_symmetry_2
Cu1 Cu2 1_555 1_555
Cu2 O1 1_555 1_555
O1 C1 1_555 1_555
O2 C3 1_555 1_555
O3 Cu2 1_555 1_555
O4 Cu1 1_555 1_555
O5 C3 1_555 1_555
C1 O4 1_555 1_555
O6 Cu1 1_555 1_555
C2 C1 1_555 1_555
C3 C4 1_555 1_555
C4 B3 1_555 1_555
B1 C2 1_555 1_555
B2 C2 1_555 1_555
B3 B1 1_555 1_555
B4 C2 1_555 1_555
C5 O3 1_555 1_555
C6 C5 1_555 1_555
B5 C4 1_555 1_555
B6 C2 1_555 1_555
B7 C4 1_555 1_555
B8 C4 1_555 1_555
C7 C6 1_555 1_555
H1 B1 1_555 1_555
H2 B2 1_555 1_555
H3 B3 1_555 1_555
H4 B4 1_555 1_555
H5 B5 1_555 1_555
H6 B6 1_555 1_555
H7 B7 1_555 1_555
H8 B8 1_555 1_555
O1M Cu2 1_555 1_555
O2M C3M 1_555 1_555
O4M Cu1 1_555 1_555
O5M C3M 1_555 1_555
C1M O1M 1_555 1_555
C2M C1M 1_555 1_555
C3M C4M 1_555 1_555
C4M B3M 1_555 1_555
B1M C2M 1_555 1_555
B2M C2M 1_555 1_555
B3M B1M 1_555 1_555
B4M C2M 1_555 1_555
B5M C4M 1_555 1_555
B6M C2M 1_555 1_555
B7M C4M 1_555 1_555
B8M C4M 1_555 1_555
H1M B1M 1_555 1_555
H2M B2M 1_555 1_555
H3M B3M 1_555 1_555
H4M B4M 1_555 1_555
H5M B5M 1_555 1_555
H6M B6M 1_555 1_555
H7M B7M 1_555 1_555
H8M B8M 1_555 1_555
Cu1B O2M 1_555 1_555
Cu1K O2 1_555 1_555
Cu2B O5M 1_555 1_555
Cu2K O5 1_555 1_555
O2G Cu1 1_555 1_555
O2J Cu1 1_555 1_555
O5G Cu2 1_555 1_555
O5J Cu2 1_555 1_555
B1 B2 1_555 1_555
B1 B5 1_555 1_555
B1 B6 1_555 1_555
B2 B3 1_555 1_555
B2 B4 1_555 1_555
B2 B8 1_555 1_555
B3 B5 1_555 1_555
B3 B8 1_555 1_555
B4 B6 1_555 1_555
B4 B7 1_555 1_555
B4 B8 1_555 1_555
B5 B6 1_555 1_555
B5 B7 1_555 1_555
B6 B7 1_555 1_555
B7 B8 1_555 1_555
O4M C1M 1_555 1_555
B1M B2M 1_555 1_555
B1M B5M 1_555 1_555
B1M B6M 1_555 1_555
B2M B3M 1_555 1_555
B2M B4M 1_555 1_555
B2M B8M 1_555 1_555
B3M B5M 1_555 1_555
B3M B8M 1_555 1_555
B4M B6M 1_555 1_555
B4M B7M 1_555 1_555
B4M B8M 1_555 1_555
B5M B6M 1_555 1_555
B5M B7M 1_555 1_555
B6M B7M 1_555 1_555
B7M B8M 1_555 1_555
Cu1B Cu2B 1_555 1_555
Cu1K Cu2K 1_555 1_555

#END
