
#######################################################################
#
#                 Cambridge Crystallographic Data Centre
#                                CCDC 
#
#######################################################################
#
# If this CIF has been generated from an entry in the Cambridge 
# Structural Database, then it will include bibliographic, chemical, 
# crystal, experimental, refinement or atomic coordinate data resulting 
# from the CCDC's data processing and validation procedures.
#
#######################################################################

data_VAHVOR
_chemical_formula_moiety         '(C15 H11 Dy1 N2 O8)n'
_symmetry_cell_setting           monoclinic
_symmetry_space_group_name_H-M   'C 2/c'
_symmetry_Int_Tables_number      15
_space_group_name_Hall           '-C 2yc'
loop_
_symmetry_equiv_pos_site_id
_symmetry_equiv_pos_as_xyz
1 x,y,z
2 -x,y,1/2-z
3 1/2+x,1/2+y,z
4 1/2-x,1/2+y,1/2-z
5 -x,-y,-z
6 x,-y,1/2+z
7 1/2-x,1/2-y,-z
8 1/2+x,1/2-y,1/2+z
_cell_length_a                   28.549(2)
_cell_length_b                   14.4101(11)
_cell_length_c                   13.4766(10)
_cell_angle_alpha                90
_cell_angle_beta                 97.5840(10)
_cell_angle_gamma                90
_cell_volume                     5495.69
loop_
_atom_site_label
_atom_site_type_symbol
_atom_site_fract_x
_atom_site_fract_y
_atom_site_fract_z
_atom_site_U_iso_or_equiv
_atom_site_thermal_displace_type
Dy1 Dy 0.183280(9) 0.70657(2) 0.96327(2) 0.0357 Uani
O1 O 0.3006(2) 0.7310(4) 0.8750(4) 0.0482 Uani
O2 O 0.23349(19) 0.6509(4) 0.8511(4) 0.0541 Uani
O3 O 0.21012(17) 0.4228(3) 0.5664(4) 0.0512 Uani
O4 O 0.27232(19) 0.3378(3) 0.5533(4) 0.0528 Uani
O5 O 0.6189(2) 0.6828(5) 0.4833(6) 0.0792 Uani
O6 O 0.6106(2) 0.8248(4) 0.5320(5) 0.0644 Uani
O7 O 0.1495(2) 0.7618(5) 0.8038(5) 0.0715 Uani
H1 H 0.1343 0.7247 0.7623 0.0860 Uiso
H2 H 0.1527 0.8183 0.7879 0.0860 Uiso
O8 O 0.1454(2) 0.5736(5) 0.8798(5) 0.0686 Uani
H3 H 0.1310 0.5789 0.8206 0.0820 Uiso
H4 H 0.1462 0.5215 0.9094 0.0820 Uiso
N1 N 0.4050(2) 0.5755(5) 0.6415(6) 0.0647 Uani
N2 N 0.4204(3) 0.6543(5) 0.6549(6) 0.0741 Uani
C1 C 0.2943(2) 0.6078(5) 0.7593(5) 0.0447 Uani
C2 C 0.2668(2) 0.5402(5) 0.7066(5) 0.0453 Uani
H5 H 0.2354 0.5335 0.7166 0.0550 Uiso
C3 C 0.2853(2) 0.4822(5) 0.6391(6) 0.0464 Uani
C4 C 0.3315(3) 0.4944(5) 0.6212(6) 0.0475 Uani
H6 H 0.3440 0.4560 0.5757 0.0570 Uiso
C5 C 0.3587(3) 0.5614(5) 0.6691(6) 0.0541 Uani
C6 C 0.3398(3) 0.6202(5) 0.7381(6) 0.0505 Uani
H7 H 0.3582 0.6677 0.7694 0.0610 Uiso
C7 C 0.2531(3) 0.4095(5) 0.5840(6) 0.0481 Uani
C8 C 0.2751(3) 0.6681(6) 0.8347(6) 0.0491 Uani
C9 C 0.4654(3) 0.6694(7) 0.6243(7) 0.0662 Uani
C10 C 0.4941(3) 0.6010(6) 0.5926(8) 0.0672 Uani
H8 H 0.4847 0.5391 0.5917 0.0810 Uiso
C11 C 0.5371(3) 0.6259(7) 0.5618(8) 0.0687 Uani
H9 H 0.5568 0.5799 0.5421 0.0820 Uiso
C12 C 0.5509(3) 0.7162(6) 0.5602(8) 0.0586 Uani
C13 C 0.5234(4) 0.7847(7) 0.5956(12) 0.0957 Uani
H10 H 0.5329 0.8465 0.5968 0.1150 Uiso
C14 C 0.4812(4) 0.7584(7) 0.6295(13) 0.1145 Uani
H11 H 0.4633 0.8034 0.6566 0.1370 Uiso
C15 C 0.5968(3) 0.7446(7) 0.5214(7) 0.0568 Uani
Dy1F Dy 0.316720(9) 0.79343(2) 1.03673(2) 0.0357 Uani
Dy1E Dy 0.183280(9) 0.29343(2) 0.46327(2) 0.0357 Uani
Dy1C Dy 0.316720(9) 0.20657(2) 0.53673(2) 0.0357 Uani
Dy1G Dy 0.683280(9) 0.79343(2) 0.46327(2) 0.0357 Uani
O1F O 0.1994(2) 0.7690(4) 1.1250(4) 0.0482 Uani
O3E O 0.21012(17) 0.5772(3) 1.0664(4) 0.0512 Uani
O4C O 0.22768(19) 0.8378(3) 0.9467(4) 0.0528 Uani
O4E O 0.27232(19) 0.6622(3) 1.0533(4) 0.0528 Uani
O5G O 0.1189(2) 0.8172(5) 0.9833(6) 0.0792 Uani
O6G O 0.1106(2) 0.6752(4) 1.0320(5) 0.0644 Uani
loop_
_atom_site_aniso_label
_atom_site_aniso_U_11
_atom_site_aniso_U_22
_atom_site_aniso_U_33
_atom_site_aniso_U_23
_atom_site_aniso_U_13
_atom_site_aniso_U_12
Dy1 0.0241(3) 0.0392(3) 0.0462(3) -0.00082(10) 0.01409(18) 0.00394(9)
O1 0.055(3) 0.043(2) 0.052(3) -0.015(2) 0.027(3) -0.014(3)
O2 0.0558(11) 0.0576(14) 0.0529(13) -0.0092(10) 0.0220(10) 0.0020(9)
O3 0.039(3) 0.033(2) 0.082(4) -0.007(2) 0.009(2) -0.004(2)
O4 0.053(3) 0.036(3) 0.076(3) -0.013(2) 0.033(3) -0.010(2)
O5 0.045(4) 0.085(4) 0.117(6) -0.036(4) 0.046(4) -0.025(3)
O6 0.038(3) 0.050(3) 0.114(5) -0.001(3) 0.043(3) -0.008(3)
O7 0.0714(14) 0.0743(13) 0.0665(12) 0.0069(11) 0.0007(10) 0.0072(10)
O8 0.0671(14) 0.0678(11) 0.0709(15) -0.0068(9) 0.0087(11) -0.0176(11)
N1 0.045(4) 0.070(4) 0.087(5) -0.034(4) 0.038(3) -0.021(3)
N2 0.053(4) 0.070(5) 0.110(6) -0.030(4) 0.051(4) -0.021(4)
C1 0.033(3) 0.048(4) 0.056(4) -0.015(3) 0.017(3) -0.004(3)
C2 0.035(3) 0.043(4) 0.063(4) -0.011(3) 0.025(3) -0.014(3)
C3 0.036(4) 0.044(4) 0.064(4) -0.017(3) 0.024(3) -0.010(3)
C4 0.044(4) 0.044(4) 0.059(4) -0.016(3) 0.023(3) -0.002(3)
C5 0.043(4) 0.059(4) 0.067(4) -0.012(4) 0.032(4) -0.001(4)
C6 0.037(4) 0.056(4) 0.065(4) -0.025(4) 0.031(3) -0.016(3)
C7 0.046(4) 0.037(3) 0.068(5) -0.016(3) 0.032(4) -0.020(3)
C8 0.037(4) 0.059(5) 0.058(4) -0.008(4) 0.031(3) -0.001(3)
C9 0.039(4) 0.078(6) 0.089(6) -0.030(5) 0.036(4) -0.021(4)
C10 0.047(5) 0.060(5) 0.102(7) -0.018(5) 0.037(5) -0.011(4)
C11 0.046(5) 0.068(6) 0.099(7) -0.017(5) 0.035(5) -0.010(4)
C12 0.037(5) 0.064(5) 0.079(6) -0.012(4) 0.023(4) -0.007(3)
C13 0.061(7) 0.059(6) 0.183(15) -0.020(6) 0.075(9) -0.013(4)
C14 0.082(8) 0.055(6) 0.228(16) -0.039(8) 0.101(9) -0.019(6)
C15 0.027(4) 0.076(6) 0.073(5) -0.015(5) 0.027(4) -0.009(4)
Dy1F 0.0241 0.0392 0.0462 -0.00082 0.01409 0.00394
Dy1E 0.0241 0.0392 0.0462 0.00082 0.01409 -0.00394
Dy1C 0.0241 0.0392 0.0462 0.00082 0.01409 -0.00394
Dy1G 0.0241 0.0392 0.0462 0.00082 0.01409 -0.00394
O1F 0.055 0.043 0.052 -0.015 0.027 -0.014
O3E 0.039 0.033 0.082 0.007 0.009 0.004
O4C 0.053 0.036 0.076 0.013 0.033 0.01
O4E 0.053 0.036 0.076 0.013 0.033 0.01
O5G 0.045 0.085 0.117 0.036 0.046 0.025
O6G 0.038 0.05 0.114 0.001 0.043 0.008
loop_
_geom_bond_atom_site_label_1
_geom_bond_atom_site_label_2
_geom_bond_site_symmetry_1
_geom_bond_site_symmetry_2
Dy1 O2 1_555 1_555
O1 C8 1_555 1_555
O2 C8 1_555 1_555
O3 C7 1_555 1_555
O4 C7 1_555 1_555
O5 C15 1_555 1_555
O6 C15 1_555 1_555
O7 Dy1 1_555 1_555
H1 O7 1_555 1_555
H2 O7 1_555 1_555
O8 Dy1 1_555 1_555
H3 O8 1_555 1_555
H4 O8 1_555 1_555
N1 N2 1_555 1_555
N2 C9 1_555 1_555
C1 C2 1_555 1_555
C2 H5 1_555 1_555
C3 C2 1_555 1_555
C4 C3 1_555 1_555
H6 C4 1_555 1_555
C5 N1 1_555 1_555
C6 C1 1_555 1_555
H7 C6 1_555 1_555
C7 C3 1_555 1_555
C8 C1 1_555 1_555
C9 C10 1_555 1_555
C10 H8 1_555 1_555
C11 C10 1_555 1_555
H9 C11 1_555 1_555
C12 C11 1_555 1_555
C13 C12 1_555 1_555
H10 C13 1_555 1_555
C14 C9 1_555 1_555
H11 C14 1_555 1_555
C15 C12 1_555 1_555
Dy1F O1 1_555 1_555
Dy1E O3 1_555 1_555
Dy1C O4 1_555 1_555
Dy1G O5 1_555 1_555
O1F Dy1 1_555 1_555
O3E Dy1 1_555 1_555
O4C Dy1 1_555 1_555
O4E Dy1 1_555 1_555
O5G Dy1 1_555 1_555
O6G Dy1 1_555 1_555
O4 Dy1E 1_555 1_555
O6 Dy1G 1_555 1_555
C4 C5 1_555 1_555
C5 C6 1_555 1_555
C13 C14 1_555 1_555
Dy1F O4C 1_555 1_555
Dy1F O4E 1_555 1_555

#END
