
#######################################################################
#
#                 Cambridge Crystallographic Data Centre
#                                CCDC 
#
#######################################################################
#
# If this CIF has been generated from an entry in the Cambridge 
# Structural Database, then it will include bibliographic, chemical, 
# crystal, experimental, refinement or atomic coordinate data resulting 
# from the CCDC's data processing and validation procedures.
#
#######################################################################

data_TEFWIL
_chemical_formula_moiety         '(C20 H28 In2 N8 O26)n'
_symmetry_cell_setting           cubic
_symmetry_space_group_name_H-M   'I m -3 m'
_symmetry_Int_Tables_number      229
_space_group_name_Hall           '-I 4 2 3'
loop_
_symmetry_equiv_pos_site_id
_symmetry_equiv_pos_as_xyz
1 x,y,z
2 z,x,y
3 y,z,x
4 y,x,-z
5 y,-x,z
6 -y,x,z
7 x,z,-y
8 -x,z,y
9 x,-z,y
10 z,y,-x
11 z,-y,x
12 -z,y,x
13 1/2+x,1/2+y,1/2+z
14 1/2+z,1/2+x,1/2+y
15 1/2+y,1/2+z,1/2+x
16 1/2+y,1/2+x,1/2-z
17 1/2+y,1/2-x,1/2+z
18 1/2-y,1/2+x,1/2+z
19 1/2+x,1/2+z,1/2-y
20 1/2-x,1/2+z,1/2+y
21 1/2+x,1/2-z,1/2+y
22 1/2+z,1/2+y,1/2-x
23 1/2+z,1/2-y,1/2+x
24 1/2-z,1/2+y,1/2+x
25 -x,-y,z
26 -x,y,-z
27 x,-y,-z
28 z,-x,-y
29 -z,-x,y
30 -z,x,-y
31 -y,z,-x
32 y,-z,-x
33 -y,-z,x
34 -y,-x,-z
35 -x,-z,-y
36 -z,-y,-x
37 1/2-x,1/2-y,1/2+z
38 1/2-x,1/2+y,1/2-z
39 1/2+x,1/2-y,1/2-z
40 1/2+z,1/2-x,1/2-y
41 1/2-z,1/2-x,1/2+y
42 1/2-z,1/2+x,1/2-y
43 1/2-y,1/2+z,1/2-x
44 1/2+y,1/2-z,1/2-x
45 1/2-y,1/2-z,1/2+x
46 1/2-y,1/2-x,1/2-z
47 1/2-x,1/2-z,1/2-y
48 1/2-z,1/2-y,1/2-x
49 -x,-y,-z
50 -z,-x,-y
51 -y,-z,-x
52 -y,-x,z
53 -y,x,-z
54 y,-x,-z
55 -x,-z,y
56 x,-z,-y
57 -x,z,-y
58 -z,-y,x
59 -z,y,-x
60 z,-y,-x
61 1/2-x,1/2-y,1/2-z
62 1/2-z,1/2-x,1/2-y
63 1/2-y,1/2-z,1/2-x
64 1/2-y,1/2-x,1/2+z
65 1/2-y,1/2+x,1/2-z
66 1/2+y,1/2-x,1/2-z
67 1/2-x,1/2-z,1/2+y
68 1/2+x,1/2-z,1/2-y
69 1/2-x,1/2+z,1/2-y
70 1/2-z,1/2-y,1/2+x
71 1/2-z,1/2+y,1/2-x
72 1/2+z,1/2-y,1/2-x
73 x,y,-z
74 x,-y,z
75 -x,y,z
76 -z,x,y
77 z,x,-y
78 z,-x,y
79 y,-z,x
80 -y,z,x
81 y,z,-x
82 y,x,z
83 x,z,y
84 z,y,x
85 1/2+x,1/2+y,1/2-z
86 1/2+x,1/2-y,1/2+z
87 1/2-x,1/2+y,1/2+z
88 1/2-z,1/2+x,1/2+y
89 1/2+z,1/2+x,1/2-y
90 1/2+z,1/2-x,1/2+y
91 1/2+y,1/2-z,1/2+x
92 1/2-y,1/2+z,1/2+x
93 1/2+y,1/2+z,1/2-x
94 1/2+y,1/2+x,1/2+z
95 1/2+x,1/2+z,1/2+y
96 1/2+z,1/2+y,1/2+x
_cell_length_a                   31.0622(7)
_cell_length_b                   31.0622(7)
_cell_length_c                   31.0622(7)
_cell_angle_alpha                90
_cell_angle_beta                 90
_cell_angle_gamma                90
_cell_volume                     29970.7
loop_
_atom_site_label
_atom_site_type_symbol
_atom_site_fract_x
_atom_site_fract_y
_atom_site_fract_z
_atom_site_U_iso_or_equiv
_atom_site_thermal_displace_type
In1 In 0.10442(2) 0.39558(2) 0.2500 0.1087 Uani
O1 O 0.08179(19) 0.3265(2) 0.2148(2) 0.1307 Uani
O2 O 0.09952(19) 0.2862(2) 0.1573(2) 0.1500 Uani
H1 H 0.1235 0.2842 0.1235 0.2250 Uiso
N1 N 0.1540(2) 0.3798(2) 0.2052(2) 0.1177 Uani
C1 C 0.1050(3) 0.3182(3) 0.1861(3) 0.1380 Uani
C2 C 0.1450(3) 0.3461(3) 0.1784(3) 0.1423 Uani
C3 C 0.1888(3) 0.3965(4) 0.1888(3) 0.1327 Uani
H2 H 0.2022 0.4206 0.2022 0.1590 Uiso
O3 O 0.0924(2) 0.43085(19) 0.32322(18) 0.1107 Uani
O4 O 0.0400(2) 0.4479(2) 0.36933(18) 0.1243 Uani
H3 H 0.0000 0.4437 0.3736 0.1870 Uiso
N2 N 0.0364(2) 0.3946(2) 0.2660(2) 0.0973 Uani
C4 C 0.0552(3) 0.4314(3) 0.3335(3) 0.0997 Uani
C5 C 0.0214(2) 0.4139(2) 0.3031(3) 0.0923 Uani
C6 C 0.0000 0.3843(4) 0.2461(4) 0.0997 Uani
H4 H 0.0000 0.3702 0.2190 0.1200 Uiso
In1DC In 0.10442(2) 0.2500 0.39558(2) 0.1087 Uani
In1UB In 0.10442(2) 0.60442(2) 0.2500 0.1087 Uani
In1EC In 0.2500 0.39558(2) 0.10442(2) 0.1087 Uani
In1VB In -0.10442(2) 0.39558(2) 0.2500 0.1087 Uani
O1SA O 0.1735(2) 0.41821(19) 0.2852(2) 0.1307 Uani
O1JB O 0.1735(2) 0.2852(2) 0.41821(19) 0.1307 Uani
O1DC O 0.08179(19) 0.2148(2) 0.3265(2) 0.1307 Uani
O1EC O 0.2148(2) 0.3265(2) 0.08179(19) 0.1307 Uani
O2EC O 0.1573(2) 0.2862(2) 0.09952(19) 0.1500 Uani
O2JB O 0.2138(2) 0.3427(2) 0.40048(19) 0.1500 Uani
O2SA O 0.2138(2) 0.40048(19) 0.3427(2) 0.1500 Uani
H1JB H 0.2158 0.3765 0.3765 0.2250 Uiso
N1SA N 0.1202(2) 0.3460(2) 0.2948(2) 0.1177 Uani
N1EC N 0.2052(2) 0.3798(2) 0.1540(2) 0.1177 Uani
N1JB N 0.1202(2) 0.2948(2) 0.3460(2) 0.1177 Uani
N1DC N 0.1540(2) 0.2052(2) 0.3798(2) 0.1177 Uani
C1SA C 0.1818(3) 0.3950(3) 0.3139(3) 0.1380 Uani
C1JB C 0.1818(3) 0.3139(3) 0.3950(3) 0.1380 Uani
C1EC C 0.1861(3) 0.3182(3) 0.1050(3) 0.1380 Uani
C2EC C 0.1784(3) 0.3461(3) 0.1450(3) 0.1423 Uani
C2SA C 0.1539(3) 0.3550(3) 0.3216(3) 0.1423 Uani
C2JB C 0.1539(3) 0.3216(3) 0.3550(3) 0.1423 Uani
C3JB C 0.1035(4) 0.3112(3) 0.3112(3) 0.1327 Uani
H2JB H 0.0794 0.2978 0.2978 0.1590 Uiso
O3SA O 0.06915(19) 0.4076(2) 0.17678(18) 0.1107 Uani
O3LB O 0.06915(19) 0.5924(2) 0.17678(18) 0.1107 Uani
O3DC O 0.0924(2) 0.32322(18) 0.43085(19) 0.1107 Uani
O3JB O 0.06915(19) 0.17678(18) 0.4076(2) 0.1107 Uani
O3VB O -0.0924(2) 0.43085(19) 0.32322(18) 0.1107 Uani
O4VB O -0.0400(2) 0.4479(2) 0.36933(18) 0.1243 Uani
O4SA O 0.0521(2) 0.4600(2) 0.13067(18) 0.1243 Uani
O4LB O 0.0521(2) 0.5400(2) 0.13067(18) 0.1243 Uani
H3LB H 0.0563 0.5000 0.1264 0.1870 Uiso
N2SA N 0.1054(2) 0.4636(2) 0.2340(2) 0.0973 Uani
N2VB N -0.0364(2) 0.3946(2) 0.2660(2) 0.0973 Uani
N2LB N 0.1054(2) 0.5364(2) 0.2340(2) 0.0973 Uani
N2DC N 0.0364(2) 0.2660(2) 0.3946(2) 0.0973 Uani
N2JB N 0.1054(2) 0.2340(2) 0.4636(2) 0.0973 Uani
C4SA C 0.0686(3) 0.4448(3) 0.1665(3) 0.0997 Uani
C4LB C 0.0686(3) 0.5552(3) 0.1665(3) 0.0997 Uani
C4VB C -0.0552(3) 0.4314(3) 0.3335(3) 0.0997 Uani
C5VB C -0.0214(2) 0.4139(2) 0.3031(3) 0.0923 Uani
C5SA C 0.0861(2) 0.4786(2) 0.1969(3) 0.0923 Uani
C5LB C 0.0861(2) 0.5214(2) 0.1969(3) 0.0923 Uani
C6LB C 0.1157(4) 0.5000 0.2539(4) 0.0997 Uani
H4LB H 0.1298 0.5000 0.2810 0.1200 Uiso
O5 O -0.0000 0.5000 0.5000 0.3000 Uiso
O6 O 0.1606(6) 0.5000 0.3736(6) 0.2560 Uiso
O7 O 0.0000 0.2934(13) 0.0000 0.3800 Uiso
O8 O 0.2705(11) 0.3254(15) 0.2705(11) 0.3600 Uiso
O9 O -0.0000 0.190(4) 0.190(4) 0.3800 Uiso
O10 O 0.205(3) 0.5000 0.418(2) 0.4200 Uiso
O11 O 0.0704(14) 0.2060(14) 0.2662(14) 0.1610 Uiso
O12 O 0.347(2) 0.347(2) 0.347(2) 0.4300 Uiso
O13 O 0.130(2) 0.4326(15) 0.4326(15) 0.2900 Uiso
O14 O 0.2123(11) 0.2801(18) 0.2123(11) 0.2600 Uiso
loop_
_atom_site_aniso_label
_atom_site_aniso_U_11
_atom_site_aniso_U_22
_atom_site_aniso_U_33
_atom_site_aniso_U_23
_atom_site_aniso_U_13
_atom_site_aniso_U_12
In1 0.1014(5) 0.1014(5) 0.1232(8) 0.0069(4) 0.0069(4) -0.0049(6)
O1 0.109(5) 0.168(7) 0.115(5) -0.050(5) 0.013(4) -0.011(4)
O2 0.138(6) 0.139(6) 0.173(6) -0.017(5) 0.008(5) -0.032(5)
N1 0.128(7) 0.087(6) 0.138(7) -0.019(5) -0.030(6) -0.012(5)
C1 0.179(12) 0.090(7) 0.145(11) -0.039(7) -0.060(9) -0.022(8)
C2 0.107(8) 0.141(9) 0.179(10) 0.032(7) -0.018(7) -0.014(6)
C3 0.165(9) 0.068(10) 0.165(9) 0.008(7) -0.013(13) 0.008(7)
O3 0.108(5) 0.121(5) 0.103(5) 0.002(4) -0.008(4) -0.010(4)
O4 0.141(5) 0.144(5) 0.088(4) -0.015(4) -0.002(4) -0.010(4)
N2 0.089(5) 0.106(5) 0.097(5) -0.008(4) -0.007(4) -0.007(4)
C4 0.117(8) 0.089(7) 0.093(8) 0.006(6) 0.001(7) -0.004(7)
C5 0.105(7) 0.088(6) 0.084(6) -0.010(5) 0.004(5) -0.009(4)
C6 0.103(10) 0.103(10) 0.093(9) 0.007(7) 0.000 0.000
In1DC 0.1014 0.1232 0.1014 0.0069 -0.0049 0.0069
In1UB 0.1014 0.1014 0.1232 -0.0069 0.0069 0.0049
In1EC 0.1232 0.1014 0.1014 -0.0049 0.0069 0.0069
In1VB 0.1014 0.1014 0.1232 0.0069 -0.0069 0.0049
O1SA 0.168 0.109 0.115 0.013 -0.05 -0.011
O1JB 0.168 0.115 0.109 0.013 -0.011 -0.05
O1DC 0.109 0.115 0.168 -0.05 -0.011 0.013
O1EC 0.115 0.168 0.109 -0.011 0.013 -0.05
O2EC 0.173 0.139 0.138 -0.032 0.008 -0.017
O2JB 0.139 0.173 0.138 0.008 -0.032 -0.017
O2SA 0.139 0.138 0.173 0.008 -0.017 -0.032
N1SA 0.087 0.128 0.138 -0.03 -0.019 -0.012
N1EC 0.138 0.087 0.128 -0.012 -0.03 -0.019
N1JB 0.087 0.138 0.128 -0.03 -0.012 -0.019
N1DC 0.128 0.138 0.087 -0.019 -0.012 -0.03
C1SA 0.09 0.179 0.145 -0.06 -0.039 -0.022
C1JB 0.09 0.145 0.179 -0.06 -0.022 -0.039
C1EC 0.145 0.09 0.179 -0.022 -0.06 -0.039
C2EC 0.179 0.141 0.107 -0.014 -0.018 0.032
C2SA 0.141 0.107 0.179 -0.018 0.032 -0.014
C2JB 0.141 0.179 0.107 -0.018 -0.014 0.032
C3JB 0.068 0.165 0.165 -0.013 0.008 0.008
O3SA 0.121 0.108 0.103 -0.008 0.002 -0.01
O3LB 0.121 0.108 0.103 0.008 0.002 0.01
O3DC 0.108 0.103 0.121 0.002 -0.01 -0.008
O3JB 0.121 0.103 0.108 -0.008 -0.01 0.002
O3VB 0.108 0.121 0.103 0.002 0.008 0.01
O4VB 0.141 0.144 0.088 -0.015 0.002 0.01
O4SA 0.144 0.141 0.088 -0.002 -0.015 -0.01
O4LB 0.144 0.141 0.088 0.002 -0.015 0.01
N2SA 0.106 0.089 0.097 -0.007 -0.008 -0.007
N2VB 0.089 0.106 0.097 -0.008 0.007 0.007
N2LB 0.106 0.089 0.097 0.007 -0.008 0.007
N2DC 0.089 0.097 0.106 -0.008 -0.007 -0.007
N2JB 0.106 0.097 0.089 -0.007 -0.007 -0.008
C4SA 0.089 0.117 0.093 0.001 0.006 -0.004
C4LB 0.089 0.117 0.093 -0.001 0.006 0.004
C4VB 0.117 0.089 0.093 0.006 -0.001 0.004
C5VB 0.105 0.088 0.084 -0.01 -0.004 0.009
C5SA 0.088 0.105 0.084 0.004 -0.01 -0.009
C5LB 0.088 0.105 0.084 -0.004 -0.01 0.009
C6LB 0.103 0.103 0.093 0 0.007 0
loop_
_geom_bond_atom_site_label_1
_geom_bond_atom_site_label_2
_geom_bond_site_symmetry_1
_geom_bond_site_symmetry_2
In1 O1 1_555 1_555
O1 C1 1_555 1_555
O2 H1 1_555 1_555
H1 O2EC 1_555 1_555
N1 In1 1_555 1_555
C1 O2 1_555 1_555
C2 N1 1_555 1_555
C3 N1 1_555 1_555
H2 C3 1_555 1_555
O3 In1 1_555 1_555
O4 H3 1_555 1_555
H3 O4VB 1_555 1_555
N2 In1 1_555 1_555
C4 O3 1_555 1_555
C5 N2 1_555 1_555
C6 N2 1_555 1_555
H4 C6 1_555 1_555
In1DC O1JB 1_555 1_555
In1UB O3LB 1_555 1_555
In1EC O1EC 1_555 1_555
In1VB O3VB 1_555 1_555
O1SA In1 1_555 1_555
O1JB C1JB 1_555 1_555
O1DC In1DC 1_555 1_555
O1EC C1EC 1_555 1_555
O2EC C1EC 1_555 1_555
O2JB H1JB 1_555 1_555
O2SA H1JB 1_555 1_555
N1SA In1 1_555 1_555
N1EC C3 1_555 1_555
N1JB In1DC 1_555 1_555
N1DC In1DC 1_555 1_555
C1SA O1SA 1_555 1_555
C1JB O2JB 1_555 1_555
C1EC C2EC 1_555 1_555
C2EC C2 1_555 1_555
C2SA N1SA 1_555 1_555
C2JB N1JB 1_555 1_555
C3JB N1SA 1_555 1_555
H2JB C3JB 1_555 1_555
O3SA In1 1_555 1_555
O3LB C4LB 1_555 1_555
O3DC In1DC 1_555 1_555
O3JB In1DC 1_555 1_555
O3VB C4VB 1_555 1_555
O4VB C4VB 1_555 1_555
O4SA H3LB 1_555 1_555
O4LB H3LB 1_555 1_555
N2SA In1 1_555 1_555
N2VB C6 1_555 1_555
N2LB In1UB 1_555 1_555
N2DC In1DC 1_555 1_555
N2JB In1DC 1_555 1_555
C4SA O3SA 1_555 1_555
C4LB O4LB 1_555 1_555
C4VB C5VB 1_555 1_555
C5VB C5 1_555 1_555
C5SA N2SA 1_555 1_555
C5LB N2LB 1_555 1_555
C6LB N2SA 1_555 1_555
H4LB C6LB 1_555 1_555
C1 C2 1_555 1_555
O4 C4 1_555 1_555
C4 C5 1_555 1_555
In1EC N1EC 1_555 1_555
In1VB N2VB 1_555 1_555
O2SA C1SA 1_555 1_555
N1EC C2EC 1_555 1_555
N1JB C3JB 1_555 1_555
C1SA C2SA 1_555 1_555
C1JB C2JB 1_555 1_555
C2SA C2JB 1_555 1_555
O4SA C4SA 1_555 1_555
N2VB C5VB 1_555 1_555
N2LB C6LB 1_555 1_555
C4SA C5SA 1_555 1_555
C4LB C5LB 1_555 1_555
C5SA C5LB 1_555 1_555

#END
