
#######################################################################
#
#                 Cambridge Crystallographic Data Centre
#                                CCDC 
#
#######################################################################
#
# If this CIF has been generated from an entry in the Cambridge 
# Structural Database, then it will include bibliographic, chemical, 
# crystal, experimental, refinement or atomic coordinate data resulting 
# from the CCDC's data processing and validation procedures.
#
#######################################################################

data_ATOWOW
_chemical_formula_moiety         '(C22 H25 N4 O9 Zn2)n'
_symmetry_cell_setting           monoclinic
_symmetry_space_group_name_H-M   'C 2/m'
_symmetry_Int_Tables_number      12
_space_group_name_Hall           '-C 2y'
loop_
_symmetry_equiv_pos_site_id
_symmetry_equiv_pos_as_xyz
1 x,y,z
2 -x,y,-z
3 1/2+x,1/2+y,z
4 1/2-x,1/2+y,-z
5 -x,-y,-z
6 x,-y,z
7 1/2-x,1/2-y,-z
8 1/2+x,1/2-y,z
_cell_length_a                   20.915(7)
_cell_length_b                   18.796(6)
_cell_length_c                   14.350(9)
_cell_angle_alpha                90
_cell_angle_beta                 130.717(4)
_cell_angle_gamma                90
_cell_volume                     4275.73
loop_
_atom_site_label
_atom_site_type_symbol
_atom_site_fract_x
_atom_site_fract_y
_atom_site_fract_z
_atom_site_U_iso_or_equiv
_atom_site_thermal_displace_type
Zn1 Zn 0.51975(6) 0.5000 -0.08429(8) 0.0248 Uani
Zn2 Zn 0.5000 0.40049(5) -0.5000 0.0261 Uani
C1 C 0.6111(4) 0.4019(3) 0.1257(6) 0.0363 Uani
C2 C 0.6730(5) 0.3424(4) 0.1987(7) 0.0449 Uani
C3 C 0.7255(7) 0.3221(5) 0.1780(9) 0.0788 Uani
H1 H 0.7209 0.3439 0.1157 0.0950 Uiso
C4 C 0.7865(7) 0.2687(5) 0.2496(9) 0.0803 Uani
H2 H 0.8250 0.2583 0.2392 0.0960 Uiso
C5 C 0.7891(5) 0.2325(4) 0.3334(7) 0.0536 Uani
C6 C 0.7346(6) 0.2525(5) 0.3525(9) 0.0777 Uani
H3 H 0.7357 0.2281 0.4099 0.0940 Uiso
C7 C 0.6779(6) 0.3087(5) 0.2862(9) 0.0685 Uani
H4 H 0.6435 0.3230 0.3025 0.0820 Uiso
C8 C 0.8540(6) 0.1746(4) 0.4101(8) 0.0594 Uani
C9 C 0.5252(4) 0.4437(3) -0.2772(5) 0.0303 Uani
C10 C 0.5322(6) 0.3687(3) -0.2387(7) 0.0506 Uani
H5 H 0.5849 0.3491 -0.2095 0.0750 Uiso
H6 H 0.4865 0.3414 -0.3075 0.0750 Uiso
H7 H 0.5299 0.3672 -0.1741 0.0750 Uiso
N1 N 0.5302(5) 0.5000 -0.2158(6) 0.0272 Uani
N2 N 0.5143(3) 0.4629(2) -0.3747(4) 0.0264 Uani
O1 O 0.6027(3) 0.4241(3) 0.0350(4) 0.0535 Uani
O2 O 0.5731(3) 0.4243(3) 0.1580(5) 0.0461 Uani
O3 O 0.9071(4) 0.1650(3) 0.4015(5) 0.0629 Uani
O4 O 0.8472(6) 0.1362(4) 0.4746(8) 0.1170 Uani
H8 H 0.8281 0.1033 0.4928 0.1750 Uiso
Zn1A Zn 0.48025(6) 0.5000 0.08429(8) 0.0248 Uani
Zn2F Zn 1.0000 0.09951(5) 0.5000 0.0261 Uani
Zn2D Zn 0.5000 0.59951(5) -0.5000 0.0261 Uani
Zn2B Zn 1.0000 0.90049(5) 0.5000 0.0261 Uani
C1E C 0.6111(4) 0.5981(3) 0.1257(6) 0.0363 Uani
C2E C 0.6730(5) 0.6576(4) 0.1987(7) 0.0449 Uani
C3E C 0.7255(7) 0.6779(5) 0.1780(9) 0.0788 Uani
H1E H 0.7209 0.6561 0.1157 0.0950 Uiso
C4E C 0.7865(7) 0.7313(5) 0.2496(9) 0.0803 Uani
H2E H 0.8250 0.7417 0.2392 0.0960 Uiso
C5E C 0.7891(5) 0.7675(4) 0.3334(7) 0.0536 Uani
C6E C 0.7346(6) 0.7475(5) 0.3525(9) 0.0777 Uani
H3E H 0.7357 0.7719 0.4099 0.0940 Uiso
C7E C 0.6779(6) 0.6913(5) 0.2862(9) 0.0685 Uani
H4E H 0.6435 0.6770 0.3025 0.0820 Uiso
C8E C 0.8540(6) 0.8254(4) 0.4101(8) 0.0594 Uani
C9E C 0.5252(4) 0.5563(3) -0.2772(5) 0.0303 Uani
C10E C 0.5322(6) 0.6313(3) -0.2387(7) 0.0506 Uani
H5E H 0.5849 0.6509 -0.2095 0.0750 Uiso
H6E H 0.4865 0.6586 -0.3075 0.0750 Uiso
H7E H 0.5299 0.6328 -0.1741 0.0750 Uiso
N2E N 0.5143(3) 0.5371(2) -0.3747(4) 0.0264 Uani
N2A N 0.4857(3) 0.4629(2) -0.6253(4) 0.0264 Uani
O1E O 0.6027(3) 0.5759(3) 0.0350(4) 0.0535 Uani
O2E O 0.5731(3) 0.5757(3) 0.1580(5) 0.0461 Uani
O2A O 0.4269(3) 0.4243(3) -0.1580(5) 0.0461 Uani
O2D O 0.4269(3) 0.5757(3) -0.1580(5) 0.0461 Uani
O3E O 0.9071(4) 0.8350(3) 0.4015(5) 0.0629 Uani
O3F O 0.5929(4) 0.3350(3) -0.4015(5) 0.0629 Uani
O3G O 0.4071(4) 0.3350(3) -0.5985(5) 0.0629 Uani
O4E O 0.8472(6) 0.8638(4) 0.4746(8) 0.1170 Uani
H8E H 0.8281 0.8967 0.4928 0.1750 Uiso
C11 C 0.768(2) 1.0000 0.533(2) 0.1989 Uani
C12 C 0.738(2) 1.0000 0.296(3) 0.4061 Uani
N3 N 0.7784(19) 1.0000 0.434(3) 0.1925 Uani
O5 O 0.0000 0.335(3) 1.0000 1.9016 Uani
loop_
_atom_site_aniso_label
_atom_site_aniso_U_11
_atom_site_aniso_U_22
_atom_site_aniso_U_33
_atom_site_aniso_U_23
_atom_site_aniso_U_13
_atom_site_aniso_U_12
Zn1 0.0334(6) 0.0276(5) 0.0212(5) 0.000 0.0212(5) 0.000
Zn2 0.0386 0.022 0.0274 0 0.0258 0
C1 0.037(4) 0.035(3) 0.029(3) 0.004(3) 0.018(3) 0.006(3)
C2 0.059(5) 0.043(4) 0.042(4) 0.015(3) 0.037(4) 0.017(4)
C3 0.102(8) 0.101(7) 0.075(6) 0.056(6) 0.076(6) 0.059(6)
C4 0.110(8) 0.082(6) 0.100(7) 0.059(6) 0.091(7) 0.069(6)
C5 0.066(5) 0.054(4) 0.054(5) 0.027(4) 0.045(4) 0.036(4)
C6 0.105(8) 0.092(6) 0.087(7) 0.059(6) 0.085(7) 0.063(6)
C7 0.091(7) 0.081(6) 0.081(6) 0.042(5) 0.077(6) 0.048(5)
C8 0.085(6) 0.056(5) 0.053(5) 0.029(4) 0.052(5) 0.038(5)
C9 0.043(4) 0.029(3) 0.037(4) 0.001(3) 0.034(3) 0.002(3)
C10 0.097(6) 0.031(3) 0.048(4) 0.009(3) 0.058(5) 0.008(4)
N1 0.041(4) 0.026(3) 0.021(3) 0.000 0.023(3) 0.000
N2 0.041(3) 0.021(2) 0.029(3) 0.002(2) 0.028(2) -0.001(2)
O1 0.058(3) 0.066(3) 0.038(3) 0.025(3) 0.032(3) 0.027(3)
O2 0.057(3) 0.048(3) 0.051(3) 0.017(2) 0.043(3) 0.023(3)
O3 0.084(4) 0.065(4) 0.068(4) 0.025(3) 0.062(4) 0.035(3)
O4 0.134(7) 0.121(6) 0.143(7) 0.093(6) 0.111(7) 0.083(6)
Zn1A 0.0334 0.0276 0.0212 0 0.0212 0
Zn2F 0.0386(6) 0.0220(5) 0.0274(6) 0.000 0.0258(5) 0.000
Zn2D 0.0386 0.022 0.0274 0 0.0258 0
Zn2B 0.0386 0.022 0.0274 0 0.0258 0
C1E 0.037 0.035 0.029 -0.004 0.018 -0.006
C2E 0.059 0.043 0.042 -0.015 0.037 -0.017
C3E 0.102 0.101 0.075 -0.056 0.076 -0.059
C4E 0.11 0.082 0.1 -0.059 0.091 -0.069
C5E 0.066 0.054 0.054 -0.027 0.045 -0.036
C6E 0.105 0.092 0.087 -0.059 0.085 -0.063
C7E 0.091 0.081 0.081 -0.042 0.077 -0.048
C8E 0.085 0.056 0.053 -0.029 0.052 -0.038
C9E 0.043 0.029 0.037 -0.001 0.034 -0.002
C10E 0.097 0.031 0.048 -0.009 0.058 -0.008
N2E 0.041 0.021 0.029 -0.002 0.028 0.001
N2A 0.041 0.021 0.029 -0.002 0.028 0.001
O1E 0.058 0.066 0.038 -0.025 0.032 -0.027
O2E 0.057 0.048 0.051 -0.017 0.043 -0.023
O2A 0.057 0.048 0.051 -0.017 0.043 -0.023
O2D 0.057 0.048 0.051 0.017 0.043 0.023
O3E 0.084 0.065 0.068 -0.025 0.062 -0.035
O3F 0.084 0.065 0.068 0.025 0.062 0.035
O3G 0.084 0.065 0.068 -0.025 0.062 -0.035
O4E 0.134 0.121 0.143 -0.093 0.111 -0.083
C11 0.21(3) 0.26(3) 0.14(2) 0.000 0.12(2) 0.000
C12 0.13(3) 0.13(3) 0.43(7) 0.000 -0.05(4) 0.000
N3 0.20(3) 0.144(18) 0.31(4) 0.000 0.20(3) 0.000
O5 2.0(4) 0.34(7) 0.56(11) 0.000 -0.40(15) 0.000
loop_
_geom_bond_atom_site_label_1
_geom_bond_atom_site_label_2
_geom_bond_site_symmetry_1
_geom_bond_site_symmetry_2
Zn1 N1 1_555 1_555
Zn2 N2 1_555 1_555
C1 C2 1_555 1_555
C2 C3 1_555 1_555
C3 H1 1_555 1_555
C4 C3 1_555 1_555
H2 C4 1_555 1_555
C5 C4 1_555 1_555
C6 C5 1_555 1_555
H3 C6 1_555 1_555
C7 C2 1_555 1_555
H4 C7 1_555 1_555
C8 C5 1_555 1_555
C9 C10 1_555 1_555
C10 H5 1_555 1_555
H6 C10 1_555 1_555
H7 C10 1_555 1_555
N1 C9 1_555 1_555
N2 C9 1_555 1_555
O1 Zn1 1_555 1_555
O2 C1 1_555 1_555
O3 C8 1_555 1_555
O4 C8 1_555 1_555
H8 O4 1_555 1_555
C11 N3 1_555 1_555
C12 N3 1_555 1_555
Zn1A O2 1_555 1_555
Zn2F O3 1_555 1_555
Zn2D N2E 1_555 1_555
Zn2B O3E 1_555 1_555
C1E C2E 1_555 1_555
C2E C3E 1_555 1_555
C3E H1E 1_555 1_555
C4E C3E 1_555 1_555
H2E C4E 1_555 1_555
C5E C4E 1_555 1_555
C6E C5E 1_555 1_555
H3E C6E 1_555 1_555
C7E C2E 1_555 1_555
H4E C7E 1_555 1_555
C8E C5E 1_555 1_555
C9E N1 1_555 1_555
C10E C9E 1_555 1_555
H5E C10E 1_555 1_555
H6E C10E 1_555 1_555
H7E C10E 1_555 1_555
N2E N2 1_555 1_555
N2A Zn2 1_555 1_555
O1E Zn1 1_555 1_555
O2E Zn1A 1_555 1_555
O2A Zn1 1_555 1_555
O2D Zn1 1_555 1_555
O3E C8E 1_555 1_555
O3F Zn2 1_555 1_555
O3G Zn2 1_555 1_555
O4E C8E 1_555 1_555
H8E O4E 1_555 1_555
C1 O1 1_555 1_555
C6 C7 1_555 1_555
C1E O1E 1_555 1_555
C1E O2E 1_555 1_555
C6E C7E 1_555 1_555
C9E N2E 1_555 1_555

#END
