
#######################################################################
#
#                 Cambridge Crystallographic Data Centre
#                                CCDC 
#
#######################################################################
#
# If this CIF has been generated from an entry in the Cambridge 
# Structural Database, then it will include bibliographic, chemical, 
# crystal, experimental, refinement or atomic coordinate data resulting 
# from the CCDC's data processing and validation procedures.
#
#######################################################################

data_CADZIT
_chemical_formula_moiety         '(C23 H24 N4 O8 Zn1)n'
_symmetry_cell_setting           monoclinic
_symmetry_space_group_name_H-M   'I 2/a'
_symmetry_Int_Tables_number      15
_space_group_name_Hall           '-I 2ya'
loop_
_symmetry_equiv_pos_site_id
_symmetry_equiv_pos_as_xyz
1 x,y,z
2 1/2-x,y,-z
3 1/2+x,1/2+y,1/2+z
4 -x,1/2+y,1/2-z
5 -x,-y,-z
6 1/2+x,-y,z
7 1/2-x,1/2-y,1/2-z
8 x,1/2-y,1/2+z
_cell_length_a                   19.961(8)
_cell_length_b                   6.081(3)
_cell_length_c                   21.693(13)
_cell_angle_alpha                90
_cell_angle_beta                 92.694(18)
_cell_angle_gamma                90
_cell_volume                     2630.25
loop_
_atom_site_label
_atom_site_type_symbol
_atom_site_fract_x
_atom_site_fract_y
_atom_site_fract_z
_atom_site_U_iso_or_equiv
_atom_site_thermal_displace_type
C1 C 0.1849(2) -0.0573(7) 0.3845(2) 0.0574 Uani
H1 H 0.1568 0.0637 0.3879 0.0690 Uiso
C2 C 0.1743(2) -0.1966(8) 0.3347(2) 0.0617 Uani
H2 H 0.1404 -0.1670 0.3050 0.0740 Uiso
C3 C 0.2142(2) -0.3797(6) 0.32949(19) 0.0526 Uani
C4 C 0.2648(2) -0.4131(7) 0.3754(2) 0.0622 Uani
H3 H 0.2930 -0.5344 0.3737 0.0750 Uiso
C5 C 0.2723(2) -0.2652(7) 0.42285(19) 0.0591 Uani
H4 H 0.3060 -0.2892 0.4532 0.0710 Uiso
C6 C 0.2066(2) -0.5352(8) 0.2769(2) 0.0632 Uani
C7 C 0.1504(3) -0.5137(12) 0.2303(3) 0.1038 Uani
H5 H 0.1215 -0.3958 0.2418 0.1560 Uiso
H6 H 0.1254 -0.6485 0.2282 0.1560 Uiso
H7 H 0.1678 -0.4827 0.1907 0.1560 Uiso
C8 C 0.12195(17) 0.2484(7) 0.5152(2) 0.0566 Uani
C9 C 0.05898(18) 0.3775(5) 0.50785(19) 0.0483 Uani
C10 C 0.05761(19) 0.5693(7) 0.4734(2) 0.0576 Uani
H8 H 0.0965 0.6169 0.4556 0.0690 Uiso
C11 C -0.0007(2) 0.6918(7) 0.4651(2) 0.0617 Uani
N1 N 0.23323(16) -0.0880(5) 0.42750(15) 0.0476 Uani
N2 N 0.2537(3) -0.6771(7) 0.2751(2) 0.0877 Uani
O1 O 0.17342(12) 0.3195(5) 0.49049(15) 0.0590 Uani
O2 O 0.12201(17) 0.0743(7) 0.5445(2) 0.1068 Uani
O3 O 0.0007(2) 0.8774(6) 0.4301(3) 0.1224 Uani
H9 H -0.0365 0.9349 0.4286 0.1830 Uiso
Zn1 Zn 0.2500 0.12138(8) 0.5000 0.0432 Uani
C1F C 0.3151(2) -1.4427(7) 0.1155(2) 0.0574 Uani
H1F H 0.3432 -1.5637 0.1121 0.0690 Uiso
C2F C 0.3257(2) -1.3034(8) 0.1653(2) 0.0617 Uani
H2F H 0.3596 -1.3330 0.1950 0.0740 Uiso
C3F C 0.2858(2) -1.1203(6) 0.17051(19) 0.0526 Uani
C4F C 0.2352(2) -1.0869(7) 0.1246(2) 0.0622 Uani
H3F H 0.2070 -0.9656 0.1263 0.0750 Uiso
C5F C 0.2277(2) -1.2348(7) 0.07715(19) 0.0591 Uani
H4F H 0.1940 -1.2108 0.0468 0.0710 Uiso
C6F C 0.2934(2) -0.9648(8) 0.2231(2) 0.0632 Uani
C7F C 0.3496(3) -0.9863(12) 0.2697(3) 0.1038 Uani
H5F H 0.3785 -1.1042 0.2582 0.1560 Uiso
H6F H 0.3746 -0.8515 0.2718 0.1560 Uiso
H7F H 0.3322 -1.0173 0.3093 0.1560 Uiso
N1F N 0.26677(16) -1.4120(5) 0.07250(15) 0.0476 Uani
N2F N 0.2463(3) -0.8229(7) 0.2249(2) 0.0877 Uani
C8D C -0.12195(17) 0.7516(7) 0.4848(2) 0.0566 Uani
C9D C -0.05898(18) 0.6225(5) 0.49215(19) 0.0483 Uani
C10D C -0.05761(19) 0.4307(7) 0.5266(2) 0.0576 Uani
H8D H -0.0965 0.3831 0.5444 0.0690 Uiso
C11D C 0.0007(2) 0.3082(7) 0.5349(2) 0.0617 Uani
O1D O -0.17342(12) 0.6805(5) 0.50951(15) 0.0590 Uani
O2D O -0.12201(17) 0.9257(7) 0.4555(2) 0.1068 Uani
O3D O -0.0007(2) 0.1226(6) 0.5699(3) 0.1224 Uani
H9D H 0.0365 0.0651 0.5714 0.1830 Uiso
N1A N 0.26677(16) -0.0880(5) 0.57250(15) 0.0476 Uani
O1A O 0.32658(12) 0.3195(5) 0.50951(15) 0.0590 Uani
Zn1D Zn -0.2500 0.87862(8) 0.5000 0.0432 Uani
Zn1F Zn 0.2500 -1.62138(8) 0.0000 0.0432 Uani
C12 C 0.0268(10) -0.016(4) 0.1894(9) 0.1480 Uiso
O4 O 0.0166(7) -0.155(2) 0.2279(7) 0.1660 Uiso
O5 O 0.0299(7) 0.1112(18) 0.3217(7) 0.1500 Uiso
loop_
_atom_site_aniso_label
_atom_site_aniso_U_11
_atom_site_aniso_U_22
_atom_site_aniso_U_33
_atom_site_aniso_U_23
_atom_site_aniso_U_13
_atom_site_aniso_U_12
C1 0.050(2) 0.056(2) 0.066(3) -0.0055(19) -0.0002(18) 0.0045(17)
C2 0.056(2) 0.071(2) 0.057(2) -0.009(2) -0.0089(18) 0.002(2)
C3 0.061(2) 0.049(2) 0.048(2) -0.0030(15) 0.0038(17) -0.0099(16)
C4 0.075(3) 0.051(2) 0.060(2) -0.0087(17) -0.002(2) 0.0108(19)
C5 0.068(2) 0.050(2) 0.058(2) -0.0043(17) -0.0110(18) 0.0077(18)
C6 0.073(3) 0.062(2) 0.055(2) -0.0107(19) 0.0059(19) -0.014(2)
C7 0.080(3) 0.133(6) 0.096(4) -0.052(4) -0.022(3) 0.014(4)
C8 0.0397(18) 0.054(2) 0.076(3) -0.0050(19) 0.0014(17) 0.0031(16)
C9 0.0373(17) 0.0460(19) 0.062(2) -0.0012(15) 0.0052(15) 0.0032(13)
C10 0.0379(18) 0.057(2) 0.079(3) 0.0081(19) 0.0155(18) -0.0006(15)
C11 0.048(2) 0.056(2) 0.082(3) 0.023(2) 0.014(2) 0.0059(17)
N1 0.0481(16) 0.0443(15) 0.0503(17) 0.0002(12) 0.0022(13) 0.0001(12)
N2 0.117(4) 0.079(3) 0.065(2) -0.030(2) -0.019(2) 0.022(3)
O1 0.0372(13) 0.0557(14) 0.0843(19) -0.0043(14) 0.0050(13) 0.0038(11)
O2 0.059(2) 0.088(2) 0.175(4) 0.060(3) 0.024(2) 0.0263(18)
O3 0.070(2) 0.101(3) 0.200(5) 0.091(3) 0.048(3) 0.0282(19)
Zn1 0.0385(3) 0.0368(3) 0.0544(4) 0.000 0.0031(2) 0.000
C1F 0.05 0.056 0.066 -0.0055 -0.0002 0.0045
C2F 0.056 0.071 0.057 -0.009 -0.0089 0.002
C3F 0.061 0.049 0.048 -0.003 0.0038 -0.0099
C4F 0.075 0.051 0.06 -0.0087 -0.002 0.0108
C5F 0.068 0.05 0.058 -0.0043 -0.011 0.0077
C6F 0.073 0.062 0.055 -0.0107 0.0059 -0.014
C7F 0.08 0.133 0.096 -0.052 -0.022 0.014
N1F 0.0481 0.0443 0.0503 0.0002 0.0022 0.0001
N2F 0.117 0.079 0.065 -0.03 -0.019 0.022
C8D 0.0397 0.054 0.076 -0.005 0.0014 0.0031
C9D 0.0373 0.046 0.062 -0.0012 0.0052 0.0032
C10D 0.0379 0.057 0.079 0.0081 0.0155 -0.0006
C11D 0.048 0.056 0.082 0.023 0.014 0.0059
O1D 0.0372 0.0557 0.0843 -0.0043 0.005 0.0038
O2D 0.059 0.088 0.175 0.06 0.024 0.0263
O3D 0.07 0.101 0.2 0.091 0.048 0.0282
N1A 0.0481 0.0443 0.0503 -0.0002 0.0022 -0.0001
O1A 0.0372 0.0557 0.0843 0.0043 0.005 -0.0038
Zn1D 0.0385 0.0368 0.0544 0 0.0031 0
Zn1F 0.0385 0.0368 0.0544 0 0.0031 0
loop_
_geom_bond_atom_site_label_1
_geom_bond_atom_site_label_2
_geom_bond_site_symmetry_1
_geom_bond_site_symmetry_2
C1 H1 1_555 1_555
C2 C1 1_555 1_555
H2 C2 1_555 1_555
C3 C2 1_555 1_555
C4 C3 1_555 1_555
H3 C4 1_555 1_555
C5 C4 1_555 1_555
H4 C5 1_555 1_555
C6 C3 1_555 1_555
C7 C6 1_555 1_555
H5 C7 1_555 1_555
H6 C7 1_555 1_555
H7 C7 1_555 1_555
C8 C9 1_555 1_555
C9 C10 1_555 1_555
C10 H8 1_555 1_555
C11 C10 1_555 1_555
N1 C1 1_555 1_555
N2 C6 1_555 1_555
O1 C8 1_555 1_555
O2 C8 1_555 1_555
O3 C11 1_555 1_555
H9 O3 1_555 1_555
Zn1 N1 1_555 1_555
C12 O4 1_555 1_555
C1F H1F 1_555 1_555
C2F C1F 1_555 1_555
H2F C2F 1_555 1_555
C3F C2F 1_555 1_555
C4F C3F 1_555 1_555
H3F C4F 1_555 1_555
C5F C4F 1_555 1_555
H4F C5F 1_555 1_555
C6F C3F 1_555 1_555
C7F C6F 1_555 1_555
H5F C7F 1_555 1_555
H6F C7F 1_555 1_555
H7F C7F 1_555 1_555
N1F C1F 1_555 1_555
N2F N2 1_555 1_555
C8D C9D 1_555 1_555
C9D C11 1_555 1_555
C10D C9D 1_555 1_555
H8D C10D 1_555 1_555
C11D C9 1_555 1_555
O1D C8D 1_555 1_555
O2D C8D 1_555 1_555
O3D C11D 1_555 1_555
H9D O3D 1_555 1_555
N1A Zn1 1_555 1_555
O1A Zn1 1_555 1_555
Zn1D O1D 1_555 1_555
Zn1F N1F 1_555 1_555
C5 N1 1_555 1_555
O1 Zn1 1_555 1_555
C5F N1F 1_555 1_555
C6F N2F 1_555 1_555
C10D C11D 1_555 1_555

#END
