
#######################################################################
#
#                 Cambridge Crystallographic Data Centre
#                                CCDC 
#
#######################################################################
#
# If this CIF has been generated from an entry in the Cambridge 
# Structural Database, then it will include bibliographic, chemical, 
# crystal, experimental, refinement or atomic coordinate data resulting 
# from the CCDC's data processing and validation procedures.
#
#######################################################################

data_GAMSOD
_chemical_formula_moiety         '(C21 H23 Ag2 B2 F8 N9 O2 S2)n'
_symmetry_cell_setting           monoclinic
_symmetry_space_group_name_H-M   'P 21/a'
_symmetry_Int_Tables_number      14
_space_group_name_Hall           '-P 2yab'
loop_
_symmetry_equiv_pos_site_id
_symmetry_equiv_pos_as_xyz
1 x,y,z
2 1/2-x,1/2+y,-z
3 -x,-y,-z
4 1/2+x,1/2-y,z
_cell_length_a                   10.7108(1)
_cell_length_b                   13.2616(2)
_cell_length_c                   20.7926(3)
_cell_angle_alpha                90
_cell_angle_beta                 92.5034(4)
_cell_angle_gamma                90
_cell_volume                     2950.61
loop_
_atom_site_label
_atom_site_type_symbol
_atom_site_fract_x
_atom_site_fract_y
_atom_site_fract_z
_atom_site_U_iso_or_equiv
_atom_site_thermal_displace_type
Ag1 Ag 0.194705(16) 0.190070(12) 0.069066(8) 0.0196 Uani
Ag2 Ag 0.098974(14) -0.005864(12) 0.401098(7) 0.0153 Uani
S1 S -0.04315(5) 0.23640(4) 0.10417(2) 0.0146 Uani
S2 S 0.02388(4) 0.12382(4) 0.48366(2) 0.0119 Uani
N1 N 0.18394(16) 0.14170(13) 0.18023(8) 0.0157 Uani
N2 N 0.13938(16) 0.05943(14) 0.30021(9) 0.0173 Uani
N3 N -0.28678(16) 0.14724(13) 0.03161(8) 0.0147 Uani
N4 N -0.24609(17) -0.04306(14) -0.02072(9) 0.0178 Uani
N5 N 0.02829(15) 0.13805(13) 0.63712(8) 0.0137 Uani
N6 N 0.19718(17) 0.28150(14) 0.68744(9) 0.0183 Uani
N7 N -0.03427(16) 0.35392(13) 0.53198(9) 0.0173 Uani
N8 N 0.19680(16) 0.44982(13) 0.55499(9) 0.0166 Uani
C1 C 0.2536(2) 0.06710(17) 0.20541(11) 0.0192 Uani
H1 H 0.319(2) 0.041(2) 0.1821(13) 0.0250 Uiso
C2 C 0.2312(2) 0.02525(17) 0.26456(11) 0.0184 Uani
H2 H 0.278(2) -0.0305(19) 0.2812(12) 0.0200 Uiso
C3 C 0.0691(2) 0.13467(16) 0.27510(10) 0.0167 Uani
H3 H 0.002(2) 0.1576(17) 0.2999(11) 0.0140 Uiso
C4 C 0.08994(18) 0.17521(15) 0.21494(10) 0.0134 Uani
C5 C 0.0081(2) 0.25812(16) 0.18766(11) 0.0164 Uani
H4 H -0.063(2) 0.2653(18) 0.2123(11) 0.0170 Uiso
H5 H 0.055(3) 0.319(2) 0.1869(14) 0.0350 Uiso
C6 C -0.1264(2) 0.11833(17) 0.11645(11) 0.0170 Uani
H6 H -0.185(2) 0.1288(18) 0.1513(12) 0.0210 Uiso
H7 H -0.070(2) 0.0681(19) 0.1293(12) 0.0190 Uiso
C7 C -0.19792(18) 0.08596(15) 0.05634(10) 0.0138 Uani
C8 C -0.1757(2) -0.00770(16) 0.02902(10) 0.0163 Uani
H8 H -0.113(2) -0.0495(17) 0.0439(11) 0.0090 Uiso
C9 C -0.3377(2) 0.01725(17) -0.04338(11) 0.0201 Uani
H9 H -0.389(3) -0.006(2) -0.0782(15) 0.0370 Uiso
C10 C -0.3566(2) 0.11294(18) -0.01863(11) 0.0194 Uani
H10 H -0.414(2) 0.1554(19) -0.0356(12) 0.0200 Uiso
C11 C 0.0125(2) 0.18303(16) 0.69397(11) 0.0168 Uani
H11 H -0.052(2) 0.1627(17) 0.7164(11) 0.0120 Uiso
C12 C 0.0958(2) 0.25471(17) 0.71857(11) 0.0185 Uani
H12 H 0.082(2) 0.2851(18) 0.7571(12) 0.0180 Uiso
C13 C 0.21362(19) 0.23434(16) 0.63173(10) 0.0156 Uani
H13 H 0.286(2) 0.2508(17) 0.6086(11) 0.0120 Uiso
C14 C 0.13021(18) 0.16419(15) 0.60561(10) 0.0124 Uani
C15 C 0.15343(18) 0.11271(16) 0.54287(10) 0.0132 Uani
H14 H 0.160(2) 0.0405(19) 0.5506(11) 0.0140 Uiso
H15 H 0.232(2) 0.1359(18) 0.5243(11) 0.0170 Uiso
C16 C 0.0532(2) 0.24749(16) 0.44890(10) 0.0156 Uani
H16 H -0.016(2) 0.2607(19) 0.4203(12) 0.0240 Uiso
H17 H 0.128(2) 0.2435(18) 0.4242(12) 0.0180 Uiso
C17 C 0.06617(18) 0.32930(15) 0.49845(10) 0.0141 Uani
C18 C 0.18019(19) 0.37782(16) 0.51006(10) 0.0154 Uani
H18 H 0.253(2) 0.3584(19) 0.4845(12) 0.0260 Uiso
C19 C 0.0962(2) 0.47513(16) 0.58740(11) 0.0173 Uani
H19 H 0.105(2) 0.5274(18) 0.6201(11) 0.0140 Uiso
C20 C -0.0181(2) 0.42715(16) 0.57553(11) 0.0176 Uani
H20 H -0.086(2) 0.443(2) 0.5993(12) 0.0270 Uiso
Ag1C Ag -0.305295(16) 0.309930(12) 0.069066(8) 0.0196 Uani
Ag1B Ag -0.194705(16) -0.190070(12) -0.069066(8) 0.0196 Uani
Ag2B Ag -0.098974(14) 0.005864(12) 0.598902(7) 0.0153 Uani
Ag2A Ag 0.401026(14) 0.494136(12) 0.598902(7) 0.0153 Uani
N3C N 0.21322(16) 0.35276(13) 0.03161(8) 0.0147 Uani
N4B N 0.24609(17) 0.04306(14) 0.02072(9) 0.0178 Uani
N5B N -0.02829(15) -0.13805(13) 0.36288(8) 0.0137 Uani
N8A N 0.30320(16) -0.05018(13) 0.44501(9) 0.0166 Uani
C21 C 0.2223(2) -0.40746(19) 0.20530(14) 0.0315 Uani
H21 H 0.2053 -0.3351 0.2087 0.0470 Uiso
H22 H 0.2778 -0.4193 0.1698 0.0470 Uiso
H23 H 0.2627 -0.4315 0.2456 0.0470 Uiso
N9 N 0.10392(18) -0.46226(15) 0.19284(11) 0.0259 Uani
O1 O 0.08932(18) -0.50880(14) 0.14227(10) 0.0386 Uani
O2 O 0.02654(18) -0.45993(15) 0.23402(11) 0.0429 Uani
B1 B 0.0764(3) -0.1720(2) 0.12671(15) 0.0289 Uani
F1 F 0.05912(16) -0.15917(15) 0.06095(8) 0.0520 Uani
F2 F 0.20111(15) -0.16774(14) 0.14591(10) 0.0529 Uani
F3 F 0.01138(16) -0.09624(13) 0.15834(9) 0.0477 Uani
F4 F 0.02740(14) -0.26498(12) 0.14359(8) 0.0403 Uani
B2 B 0.2349(3) 0.3709(2) 0.32540(13) 0.0246 Uani
F5 F 0.25571(13) 0.36504(11) 0.26038(7) 0.0312 Uani
F6 F 0.10779(13) 0.37040(12) 0.33496(8) 0.0377 Uani
F7 F 0.29059(15) 0.28831(16) 0.35665(9) 0.0544 Uani
F8 F 0.2861(2) 0.45831(17) 0.35007(10) 0.0754 Uani
loop_
_atom_site_aniso_label
_atom_site_aniso_U_11
_atom_site_aniso_U_22
_atom_site_aniso_U_33
_atom_site_aniso_U_23
_atom_site_aniso_U_13
_atom_site_aniso_U_12
Ag1 0.03191(10) 0.01175(8) 0.01560(9) 0.00027(6) 0.00511(7) 0.00007(7)
Ag2 0.01601(8) 0.01706(8) 0.01287(8) 0.00058(6) 0.00154(6) -0.00189(6)
S1 0.0164(2) 0.0135(2) 0.0136(3) 0.0014(2) -0.00190(19) -0.00104(19)
S2 0.0114(2) 0.0123(2) 0.0121(2) 0.00034(19) 0.00036(18) -0.00131(18)
N1 0.0175(9) 0.0154(9) 0.0143(9) 0.0033(7) 0.0015(7) 0.0009(7)
N2 0.0188(9) 0.0194(9) 0.0138(9) 0.0033(7) 0.0017(7) 0.0003(7)
N3 0.016 0.0151 0.0131 -0.001 0.0008 0.0016
N4 0.0213 0.0163 0.0157 -0.0025 0.0008 -0.0003
N5 0.0132 0.0141 0.0138 0.0016 0.0006 0.002
N6 0.021 0.0157 0.0181 -0.0021 -0.0016 -0.0003
N7 0.0144(9) 0.0167(9) 0.0208(10) 0.0012(8) 0.0008(7) 0.0015(7)
N8 0.0168(9) 0.0134(9) 0.0194(9) 0.0028(7) -0.0008(7) -0.0002(7)
C1 0.0198(11) 0.0208(11) 0.0174(11) 0.0006(9) 0.0041(9) 0.0040(9)
C2 0.0207(11) 0.0167(11) 0.0177(11) 0.0031(9) 0.0009(9) 0.0038(9)
C3 0.0160(10) 0.0179(11) 0.0162(11) -0.0014(9) 0.0013(8) 0.0009(8)
C4 0.0160(10) 0.0122(10) 0.0117(10) -0.0020(8) -0.0014(8) -0.0024(8)
C5 0.0192(11) 0.0139(10) 0.0156(11) -0.0008(9) -0.0036(9) 0.0010(9)
C6 0.0217 0.0145 0.0145 0.0027 -0.0016 -0.0052
C7 0.0143 0.0145 0.0127 0.0005 0.0021 -0.0016
C8 0.0175 0.0158 0.0155 0.0002 -0.0005 0.001
C9 0.0199 0.0232 0.0169 -0.0056 -0.0043 -0.0005
C10 0.0179 0.0211 0.019 -0.0007 -0.0025 0.0033
C11 0.0168 0.0178 0.016 0.0014 0.0034 0.0033
C12 0.0218 0.0182 0.0155 -0.0025 0 0.0052
C13 0.014 0.0162 0.0165 0.0018 -0.0004 0.0009
C14 0.0131 0.0122 0.0118 0.0026 -0.0014 0.0026
C15 0.0098 0.0155 0.0142 -0.0003 -0.0003 0.0002
C16 0.0164(10) 0.0149(10) 0.0153(11) 0.0029(8) 0.0000(9) -0.0018(8)
C17 0.0153(10) 0.0116(9) 0.0155(10) 0.0049(8) 0.0003(8) 0.0009(8)
C18 0.0155(10) 0.0133(10) 0.0176(11) 0.0044(8) 0.0029(8) 0.0005(8)
C19 0.0191(11) 0.0141(10) 0.0184(11) 0.0008(9) -0.0012(8) 0.0011(8)
C20 0.0147(10) 0.0172(11) 0.0212(11) 0.0022(9) 0.0033(9) 0.0029(8)
Ag1C 0.03191 0.01175 0.0156 -0.00027 0.00511 -7e-05
Ag1B 0.03191 0.01175 0.0156 0.00027 0.00511 7e-05
Ag2B 0.01601 0.01706 0.01287 0.00058 0.00154 -0.00189
Ag2A 0.01601 0.01706 0.01287 -0.00058 0.00154 0.00189
N3C 0.016 0.0151 0.0131 0.001 0.0008 -0.0016
N4B 0.0213 0.0163 0.0157 -0.0025 0.0008 -0.0003
N5B 0.0132 0.0141 0.0138 0.0016 0.0006 0.002
N8A 0.0168 0.0134 0.0194 -0.0028 -0.0008 0.0002
C21 0.0233(12) 0.0239(13) 0.0467(17) -0.0060(12) -0.0038(11) -0.0048(10)
N9 0.0212(10) 0.0154(9) 0.0410(13) -0.0003(9) -0.0014(9) 0.0021(8)
O1 0.0401(11) 0.0285(10) 0.0458(12) -0.0090(9) -0.0148(9) 0.0010(8)
O2 0.0301(10) 0.0352(11) 0.0646(14) 0.0079(10) 0.0156(10) 0.0051(8)
B1 0.0240(14) 0.0316(15) 0.0316(16) 0.0121(13) 0.0060(12) 0.0069(12)
F1 0.0518(10) 0.0726(12) 0.0329(9) 0.0240(9) 0.0161(8) 0.0250(9)
F2 0.0293(9) 0.0507(11) 0.0780(14) 0.0173(10) -0.0048(8) 0.0000(8)
F3 0.0542(10) 0.0413(10) 0.0480(11) 0.0028(8) 0.0066(8) 0.0188(8)
F4 0.0375(9) 0.0369(9) 0.0466(10) 0.0129(8) 0.0045(7) -0.0009(7)
B2 0.0276(14) 0.0308(15) 0.0156(13) -0.0012(11) 0.0031(10) -0.0070(12)
F5 0.0355(8) 0.0402(9) 0.0181(7) -0.0054(6) 0.0043(6) -0.0025(7)
F6 0.0270(8) 0.0429(9) 0.0441(9) 0.0195(8) 0.0130(7) 0.0087(7)
F7 0.0289(8) 0.0864(14) 0.0485(11) 0.0373(10) 0.0086(7) 0.0175(9)
F8 0.0987(17) 0.0784(15) 0.0504(12) -0.0400(11) 0.0176(11) -0.0534(13)
loop_
_geom_bond_atom_site_label_1
_geom_bond_atom_site_label_2
_geom_bond_site_symmetry_1
_geom_bond_site_symmetry_2
Ag1 S1 1_555 1_555
Ag2 S2 1_555 1_555
S1 C5 1_555 1_555
S2 C15 1_555 1_555
N1 Ag1 1_555 1_555
N2 Ag2 1_555 1_555
N3 C7 1_555 1_555
N4 C8 1_555 1_555
N5 C11 1_555 1_555
N6 C12 1_555 1_555
N7 C17 1_555 1_555
N8 C18 1_555 1_555
C1 N1 1_555 1_555
H1 C1 1_555 1_555
C2 N2 1_555 1_555
H2 C2 1_555 1_555
C3 N2 1_555 1_555
H3 C3 1_555 1_555
C4 N1 1_555 1_555
C5 C4 1_555 1_555
H4 C5 1_555 1_555
H5 C5 1_555 1_555
C6 S1 1_555 1_555
H6 C6 1_555 1_555
H7 C6 1_555 1_555
C7 C6 1_555 1_555
C8 C7 1_555 1_555
H8 C8 1_555 1_555
C9 N4 1_555 1_555
H9 C9 1_555 1_555
C10 N3 1_555 1_555
H10 C10 1_555 1_555
C11 H11 1_555 1_555
C12 C11 1_555 1_555
H12 C12 1_555 1_555
C13 N6 1_555 1_555
H13 C13 1_555 1_555
C14 N5 1_555 1_555
C15 C14 1_555 1_555
H14 C15 1_555 1_555
H15 C15 1_555 1_555
C16 S2 1_555 1_555
H16 C16 1_555 1_555
H17 C16 1_555 1_555
C17 C16 1_555 1_555
C18 C17 1_555 1_555
H18 C18 1_555 1_555
C19 N8 1_555 1_555
H19 C19 1_555 1_555
C20 N7 1_555 1_555
H20 C20 1_555 1_555
C21 H21 1_555 1_555
H22 C21 1_555 1_555
H23 C21 1_555 1_555
N9 C21 1_555 1_555
O1 N9 1_555 1_555
O2 N9 1_555 1_555
B1 F1 1_555 1_555
F2 B1 1_555 1_555
F3 B1 1_555 1_555
F4 B1 1_555 1_555
B2 F5 1_555 1_555
F6 B2 1_555 1_555
F7 B2 1_555 1_555
F8 B2 1_555 1_555
Ag1C N3 1_555 1_555
Ag1B N4 1_555 1_555
Ag2B N5 1_555 1_555
Ag2A N8 1_555 1_555
N3C Ag1 1_555 1_555
N4B Ag1 1_555 1_555
N5B Ag2 1_555 1_555
N8A Ag2 1_555 1_555
C1 C2 1_555 1_555
C3 C4 1_555 1_555
C9 C10 1_555 1_555
C13 C14 1_555 1_555
C19 C20 1_555 1_555

#END
