
#######################################################################
#
#                 Cambridge Crystallographic Data Centre
#                                CCDC 
#
#######################################################################
#
# If this CIF has been generated from an entry in the Cambridge 
# Structural Database, then it will include bibliographic, chemical, 
# crystal, experimental, refinement or atomic coordinate data resulting 
# from the CCDC's data processing and validation procedures.
#
#######################################################################

data_LUTZEH
_chemical_formula_moiety         'C78 H6 Cu10 F48 O23'
_symmetry_cell_setting           cubic
_symmetry_space_group_name_H-M   'F m -3 m'
_symmetry_Int_Tables_number      225
_space_group_name_Hall           '-F 4 2 3'
loop_
_symmetry_equiv_pos_site_id
_symmetry_equiv_pos_as_xyz
1 x,y,z
2 -x,-y,z
3 -x,y,-z
4 x,-y,-z
5 z,x,y
6 z,-x,-y
7 -z,-x,y
8 -z,x,-y
9 y,z,x
10 -y,z,-x
11 y,-z,-x
12 -y,-z,x
13 y,x,-z
14 -y,-x,-z
15 y,-x,z
16 -y,x,z
17 x,z,-y
18 -x,z,y
19 -x,-z,-y
20 x,-z,y
21 z,y,-x
22 z,-y,x
23 -z,y,x
24 -z,-y,-x
25 x,1/2+y,1/2+z
26 -x,1/2-y,1/2+z
27 -x,1/2+y,1/2-z
28 x,1/2-y,1/2-z
29 z,1/2+x,1/2+y
30 z,1/2-x,1/2-y
31 -z,1/2-x,1/2+y
32 -z,1/2+x,1/2-y
33 y,1/2+z,1/2+x
34 -y,1/2+z,1/2-x
35 y,1/2-z,1/2-x
36 -y,1/2-z,1/2+x
37 y,1/2+x,1/2-z
38 -y,1/2-x,1/2-z
39 y,1/2-x,1/2+z
40 -y,1/2+x,1/2+z
41 x,1/2+z,1/2-y
42 -x,1/2+z,1/2+y
43 -x,1/2-z,1/2-y
44 x,1/2-z,1/2+y
45 z,1/2+y,1/2-x
46 z,1/2-y,1/2+x
47 -z,1/2+y,1/2+x
48 -z,1/2-y,1/2-x
49 1/2+x,y,1/2+z
50 1/2-x,-y,1/2+z
51 1/2-x,y,1/2-z
52 1/2+x,-y,1/2-z
53 1/2+z,x,1/2+y
54 1/2+z,-x,1/2-y
55 1/2-z,-x,1/2+y
56 1/2-z,x,1/2-y
57 1/2+y,z,1/2+x
58 1/2-y,z,1/2-x
59 1/2+y,-z,1/2-x
60 1/2-y,-z,1/2+x
61 1/2+y,x,1/2-z
62 1/2-y,-x,1/2-z
63 1/2+y,-x,1/2+z
64 1/2-y,x,1/2+z
65 1/2+x,z,1/2-y
66 1/2-x,z,1/2+y
67 1/2-x,-z,1/2-y
68 1/2+x,-z,1/2+y
69 1/2+z,y,1/2-x
70 1/2+z,-y,1/2+x
71 1/2-z,y,1/2+x
72 1/2-z,-y,1/2-x
73 1/2+x,1/2+y,z
74 1/2-x,1/2-y,z
75 1/2-x,1/2+y,-z
76 1/2+x,1/2-y,-z
77 1/2+z,1/2+x,y
78 1/2+z,1/2-x,-y
79 1/2-z,1/2-x,y
80 1/2-z,1/2+x,-y
81 1/2+y,1/2+z,x
82 1/2-y,1/2+z,-x
83 1/2+y,1/2-z,-x
84 1/2-y,1/2-z,x
85 1/2+y,1/2+x,-z
86 1/2-y,1/2-x,-z
87 1/2+y,1/2-x,z
88 1/2-y,1/2+x,z
89 1/2+x,1/2+z,-y
90 1/2-x,1/2+z,y
91 1/2-x,1/2-z,-y
92 1/2+x,1/2-z,y
93 1/2+z,1/2+y,-x
94 1/2+z,1/2-y,x
95 1/2-z,1/2+y,x
96 1/2-z,1/2-y,-x
97 -x,-y,-z
98 x,y,-z
99 x,-y,z
100 -x,y,z
101 -z,-x,-y
102 -z,x,y
103 z,x,-y
104 z,-x,y
105 -y,-z,-x
106 y,-z,x
107 -y,z,x
108 y,z,-x
109 -y,-x,z
110 y,x,z
111 -y,x,-z
112 y,-x,-z
113 -x,-z,y
114 x,-z,-y
115 x,z,y
116 -x,z,-y
117 -z,-y,x
118 -z,y,-x
119 z,-y,-x
120 z,y,x
121 -x,1/2-y,1/2-z
122 x,1/2+y,1/2-z
123 x,1/2-y,1/2+z
124 -x,1/2+y,1/2+z
125 -z,1/2-x,1/2-y
126 -z,1/2+x,1/2+y
127 z,1/2+x,1/2-y
128 z,1/2-x,1/2+y
129 -y,1/2-z,1/2-x
130 y,1/2-z,1/2+x
131 -y,1/2+z,1/2+x
132 y,1/2+z,1/2-x
133 -y,1/2-x,1/2+z
134 y,1/2+x,1/2+z
135 -y,1/2+x,1/2-z
136 y,1/2-x,1/2-z
137 -x,1/2-z,1/2+y
138 x,1/2-z,1/2-y
139 x,1/2+z,1/2+y
140 -x,1/2+z,1/2-y
141 -z,1/2-y,1/2+x
142 -z,1/2+y,1/2-x
143 z,1/2-y,1/2-x
144 z,1/2+y,1/2+x
145 1/2-x,-y,1/2-z
146 1/2+x,y,1/2-z
147 1/2+x,-y,1/2+z
148 1/2-x,y,1/2+z
149 1/2-z,-x,1/2-y
150 1/2-z,x,1/2+y
151 1/2+z,x,1/2-y
152 1/2+z,-x,1/2+y
153 1/2-y,-z,1/2-x
154 1/2+y,-z,1/2+x
155 1/2-y,z,1/2+x
156 1/2+y,z,1/2-x
157 1/2-y,-x,1/2+z
158 1/2+y,x,1/2+z
159 1/2-y,x,1/2-z
160 1/2+y,-x,1/2-z
161 1/2-x,-z,1/2+y
162 1/2+x,-z,1/2-y
163 1/2+x,z,1/2+y
164 1/2-x,z,1/2-y
165 1/2-z,-y,1/2+x
166 1/2-z,y,1/2-x
167 1/2+z,-y,1/2-x
168 1/2+z,y,1/2+x
169 1/2-x,1/2-y,-z
170 1/2+x,1/2+y,-z
171 1/2+x,1/2-y,z
172 1/2-x,1/2+y,z
173 1/2-z,1/2-x,-y
174 1/2-z,1/2+x,y
175 1/2+z,1/2+x,-y
176 1/2+z,1/2-x,y
177 1/2-y,1/2-z,-x
178 1/2+y,1/2-z,x
179 1/2-y,1/2+z,x
180 1/2+y,1/2+z,-x
181 1/2-y,1/2-x,z
182 1/2+y,1/2+x,z
183 1/2-y,1/2+x,-z
184 1/2+y,1/2-x,-z
185 1/2-x,1/2-z,y
186 1/2+x,1/2-z,-y
187 1/2+x,1/2+z,y
188 1/2-x,1/2+z,-y
189 1/2-z,1/2-y,x
190 1/2-z,1/2+y,-x
191 1/2+z,1/2-y,-x
192 1/2+z,1/2+y,x
_cell_length_a                   47.326(5)
_cell_length_b                   47.326(5)
_cell_length_c                   47.326(5)
_cell_angle_alpha                90
_cell_angle_beta                 90
_cell_angle_gamma                90
_cell_volume                     105998
loop_
_atom_site_label
_atom_site_type_symbol
_atom_site_fract_x
_atom_site_fract_y
_atom_site_fract_z
_atom_site_U_iso_or_equiv
_atom_site_thermal_displace_type
Cu1 Cu 0.22988(2) 0.22988(2) 0.0000 0.1281 Uani
O1 O 0.21295(11) 0.25402(12) 0.02957(10) 0.1457 Uani
O2 O 0.19815(13) 0.19815(13) 0.0000 0.2093 Uani
F1 F 0.2092(3) 0.2477(2) 0.0882(2) 0.2667 Uani
F2 F 0.1842(3) 0.2716(2) 0.1328(2) 0.2537 Uani
F3 F 0.1829(3) 0.3588(2) 0.0829(2) 0.2433 Uani
F4 F 0.2069(3) 0.3345(3) 0.0376(3) 0.2533 Uani
C1 C 0.22496(19) 0.27504(19) 0.0382(3) 0.1260 Uani
C2 C 0.20972(19) 0.29028(19) 0.0624(2) 0.1417 Uani
C3 C 0.2036(2) 0.2742(2) 0.0863(3) 0.1787 Uani
C4 C 0.1901(3) 0.2868(4) 0.1092(2) 0.2100 Uani
C5 C 0.1827(3) 0.3166(4) 0.1081(3) 0.1493 Uani
C6 C 0.1889(3) 0.3311(3) 0.0842(4) 0.1803 Uani
C7 C 0.2024(2) 0.31850(5) 0.0613(3) 0.2007 Uani
C8 C 0.16911(17) 0.33089(17) 0.1333(2) 0.1470 Uani
C9 C 0.14548(15) 0.3194(2) 0.14548(15) 0.1517 Uani
H1 H 0.1375 0.3033 0.1375 0.1820 Uiso
O1CA O 0.02957(10) 0.28705(11) 0.24598(12) 0.1457 Uani
F1CA F 0.0882(2) 0.2908(3) 0.2523(2) 0.2667 Uani
F2CA F 0.1328(2) 0.3158(3) 0.2284(2) 0.2537 Uani
F3CA F 0.0829(2) 0.3171(3) 0.1412(2) 0.2433 Uani
F4CA F 0.0376(3) 0.2931(3) 0.1655(3) 0.2533 Uani
C1CA C 0.0382(3) 0.27504(19) 0.22496(19) 0.1260 Uani
C2CA C 0.0624(2) 0.29028(19) 0.20972(19) 0.1417 Uani
C3CA C 0.0863(3) 0.2964(2) 0.2258(2) 0.1787 Uani
C4CA C 0.1092(2) 0.3099(3) 0.2132(4) 0.2100 Uani
C5CA C 0.1081(3) 0.3173(3) 0.1834(4) 0.1493 Uani
C6CA C 0.0842(4) 0.3111(3) 0.1689(3) 0.1803 Uani
C7CA C 0.0613(3) 0.2976(2) 0.18150(5) 0.2007 Uani
C8CA C 0.1333(2) 0.33089(17) 0.16911(17) 0.1470 Uani
C9CA C 0.14548(15) 0.35452(15) 0.1806(2) 0.1517 Uani
H1CA H 0.1375 0.3625 0.1967 0.1820 Uiso
O1EC O 0.24598(12) 0.47043(10) 0.21295(11) 0.1457 Uani
F1EC F 0.2523(2) 0.4118(2) 0.2092(3) 0.2667 Uani
F2EC F 0.2284(2) 0.3672(2) 0.1842(3) 0.2537 Uani
F3EC F 0.1412(2) 0.4171(2) 0.1829(3) 0.2433 Uani
F4EC F 0.1655(3) 0.4624(3) 0.2069(3) 0.2533 Uani
C1EC C 0.22496(19) 0.4618(3) 0.22496(19) 0.1260 Uani
C2EC C 0.20972(19) 0.4376(2) 0.20972(19) 0.1417 Uani
C3EC C 0.2258(2) 0.4137(3) 0.2036(2) 0.1787 Uani
C4EC C 0.2132(4) 0.3908(2) 0.1901(3) 0.2100 Uani
C5EC C 0.1834(4) 0.3919(3) 0.1827(3) 0.1493 Uani
C6EC C 0.1689(3) 0.4158(4) 0.1889(3) 0.1803 Uani
C7EC C 0.18150(5) 0.4387(3) 0.2024(2) 0.2007 Uani
C8EC C 0.16911(17) 0.3667(2) 0.16911(17) 0.1470 Uani
C9EC C 0.1806(2) 0.35452(15) 0.14548(15) 0.1517 Uani
H1EC H 0.1967 0.3625 0.1375 0.1820 Uiso
O1OD O 0.02957(10) 0.25402(12) 0.21295(11) 0.1457 Uani
F1OD F 0.0882(2) 0.2477(2) 0.2092(3) 0.2667 Uani
F2OD F 0.1328(2) 0.2716(2) 0.1842(3) 0.2537 Uani
F3OD F 0.0829(2) 0.3588(2) 0.1829(3) 0.2433 Uani
F4OD F 0.0376(3) 0.3345(3) 0.2069(3) 0.2533 Uani
C3OD C 0.0863(3) 0.2742(2) 0.2036(2) 0.1787 Uani
C4OD C 0.1092(2) 0.2868(4) 0.1901(3) 0.2100 Uani
C6OD C 0.0842(4) 0.3311(3) 0.1889(3) 0.1803 Uani
C7OD C 0.0613(3) 0.31850(5) 0.2024(2) 0.2007 Uani
O1GE O 0.21295(11) 0.47043(10) 0.24598(12) 0.1457 Uani
F1GE F 0.2092(3) 0.4118(2) 0.2523(2) 0.2667 Uani
F2GE F 0.1842(3) 0.3672(2) 0.2284(2) 0.2537 Uani
F3GE F 0.1829(3) 0.4171(2) 0.1412(2) 0.2433 Uani
F4GE F 0.2069(3) 0.4624(3) 0.1655(3) 0.2533 Uani
C3GE C 0.2036(2) 0.4137(3) 0.2258(2) 0.1787 Uani
C4GE C 0.1901(3) 0.3908(2) 0.2132(4) 0.2100 Uani
C6GE C 0.1889(3) 0.4158(4) 0.1689(3) 0.1803 Uani
C7GE C 0.2024(2) 0.4387(3) 0.18150(5) 0.2007 Uani
O1XF O 0.24598(12) 0.28705(11) 0.02957(10) 0.1457 Uani
F1XF F 0.2523(2) 0.2908(3) 0.0882(2) 0.2667 Uani
F2XF F 0.2284(2) 0.3158(3) 0.1328(2) 0.2537 Uani
F3XF F 0.1412(2) 0.3171(3) 0.0829(2) 0.2433 Uani
F4XF F 0.1655(3) 0.2931(3) 0.0376(3) 0.2533 Uani
C3XF C 0.2258(2) 0.2964(2) 0.0863(3) 0.1787 Uani
C4XF C 0.2132(4) 0.3099(3) 0.1092(2) 0.2100 Uani
C6XF C 0.1689(3) 0.3111(3) 0.0842(4) 0.1803 Uani
C7XF C 0.18150(5) 0.2976(2) 0.0613(3) 0.2007 Uani
Cu1D Cu 0.0000 0.22988(2) 0.22988(2) 0.1281 Uani
O1D O 0.02957(10) 0.21295(11) 0.25402(12) 0.1457 Uani
O2D O 0.0000 0.19815(13) 0.19815(13) 0.2093 Uani
F1D F 0.0882(2) 0.2092(3) 0.2477(2) 0.2667 Uani
F2D F 0.1328(2) 0.1842(3) 0.2716(2) 0.2537 Uani
F3D F 0.0829(2) 0.1829(3) 0.3588(2) 0.2433 Uani
F4D F 0.0376(3) 0.2069(3) 0.3345(3) 0.2533 Uani
C1D C 0.0382(3) 0.22496(19) 0.27504(19) 0.1260 Uani
C2D C 0.0624(2) 0.20972(19) 0.29028(19) 0.1417 Uani
C3D C 0.0863(3) 0.2036(2) 0.2742(2) 0.1787 Uani
C4D C 0.1092(2) 0.1901(3) 0.2868(4) 0.2100 Uani
C5D C 0.1081(3) 0.1827(3) 0.3166(4) 0.1493 Uani
C6D C 0.0842(4) 0.1889(3) 0.3311(3) 0.1803 Uani
C7D C 0.0613(3) 0.2024(2) 0.31850(5) 0.2007 Uani
C8D C 0.1333(2) 0.16911(17) 0.33089(17) 0.1470 Uani
C9D C 0.14548(15) 0.14548(15) 0.3194(2) 0.1517 Uani
H1D H 0.1375 0.1375 0.3033 0.1820 Uiso
O1EB O 0.24598(12) 0.02957(10) 0.28705(11) 0.1457 Uani
F1EB F 0.2523(2) 0.0882(2) 0.2908(3) 0.2667 Uani
F2EB F 0.2284(2) 0.1328(2) 0.3158(3) 0.2537 Uani
F3EB F 0.1412(2) 0.0829(2) 0.3171(3) 0.2433 Uani
F4EB F 0.1655(3) 0.0376(3) 0.2931(3) 0.2533 Uani
C1EB C 0.22496(19) 0.0382(3) 0.27504(19) 0.1260 Uani
C2EB C 0.20972(19) 0.0624(2) 0.29028(19) 0.1417 Uani
C3EB C 0.2258(2) 0.0863(3) 0.2964(2) 0.1787 Uani
C4EB C 0.2132(4) 0.1092(2) 0.3099(3) 0.2100 Uani
C5EB C 0.1834(4) 0.1081(3) 0.3173(3) 0.1493 Uani
C6EB C 0.1689(3) 0.0842(4) 0.3111(3) 0.1803 Uani
C7EB C 0.18150(5) 0.0613(3) 0.2976(2) 0.2007 Uani
C8EB C 0.16911(17) 0.1333(2) 0.33089(17) 0.1470 Uani
C9EB C 0.1806(2) 0.14548(15) 0.35452(15) 0.1517 Uani
H1EB H 0.1967 0.1375 0.3625 0.1820 Uiso
O1AA O 0.21295(11) 0.24598(12) 0.47043(10) 0.1457 Uani
F1AA F 0.2092(3) 0.2523(2) 0.4118(2) 0.2667 Uani
F2AA F 0.1842(3) 0.2284(2) 0.3672(2) 0.2537 Uani
F3AA F 0.1829(3) 0.1412(2) 0.4171(2) 0.2433 Uani
F4AA F 0.2069(3) 0.1655(3) 0.4624(3) 0.2533 Uani
C1AA C 0.22496(19) 0.22496(19) 0.4618(3) 0.1260 Uani
C2AA C 0.20972(19) 0.20972(19) 0.4376(2) 0.1417 Uani
C3AA C 0.2036(2) 0.2258(2) 0.4137(3) 0.1787 Uani
C4AA C 0.1901(3) 0.2132(4) 0.3908(2) 0.2100 Uani
C5AA C 0.1827(3) 0.1834(4) 0.3919(3) 0.1493 Uani
C6AA C 0.1889(3) 0.1689(3) 0.4158(4) 0.1803 Uani
C7AA C 0.2024(2) 0.18150(5) 0.4387(3) 0.2007 Uani
C8AA C 0.16911(17) 0.16911(17) 0.3667(2) 0.1470 Uani
C9AA C 0.14548(15) 0.1806(2) 0.35452(15) 0.1517 Uani
H1AA H 0.1375 0.1967 0.3625 0.1820 Uiso
O1JD O 0.21295(11) 0.02957(10) 0.25402(12) 0.1457 Uani
F1JD F 0.2092(3) 0.0882(2) 0.2477(2) 0.2667 Uani
F2JD F 0.1842(3) 0.1328(2) 0.2716(2) 0.2537 Uani
F3JD F 0.1829(3) 0.0829(2) 0.3588(2) 0.2433 Uani
F4JD F 0.2069(3) 0.0376(3) 0.3345(3) 0.2533 Uani
C3JD C 0.2036(2) 0.0863(3) 0.2742(2) 0.1787 Uani
C4JD C 0.1901(3) 0.1092(2) 0.2868(4) 0.2100 Uani
C6JD C 0.1889(3) 0.0842(4) 0.3311(3) 0.1803 Uani
C7JD C 0.2024(2) 0.0613(3) 0.31850(5) 0.2007 Uani
O1BF O 0.24598(12) 0.21295(11) 0.47043(10) 0.1457 Uani
F1BF F 0.2523(2) 0.2092(3) 0.4118(2) 0.2667 Uani
F2BF F 0.2284(2) 0.1842(3) 0.3672(2) 0.2537 Uani
F3BF F 0.1412(2) 0.1829(3) 0.4171(2) 0.2433 Uani
F4BF F 0.1655(3) 0.2069(3) 0.4624(3) 0.2533 Uani
C3BF C 0.2258(2) 0.2036(2) 0.4137(3) 0.1787 Uani
C4BF C 0.2132(4) 0.1901(3) 0.3908(2) 0.2100 Uani
C6BF C 0.1689(3) 0.1889(3) 0.4158(4) 0.1803 Uani
C7BF C 0.18150(5) 0.2024(2) 0.4387(3) 0.2007 Uani
O1LE O 0.02957(10) 0.24598(12) 0.28705(11) 0.1457 Uani
F1LE F 0.0882(2) 0.2523(2) 0.2908(3) 0.2667 Uani
F2LE F 0.1328(2) 0.2284(2) 0.3158(3) 0.2537 Uani
F3LE F 0.0829(2) 0.1412(2) 0.3171(3) 0.2433 Uani
F4LE F 0.0376(3) 0.1655(3) 0.2931(3) 0.2533 Uani
C3LE C 0.0863(3) 0.2258(2) 0.2964(2) 0.1787 Uani
C4LE C 0.1092(2) 0.2132(4) 0.3099(3) 0.2100 Uani
C6LE C 0.0842(4) 0.1689(3) 0.3111(3) 0.1803 Uani
C7LE C 0.0613(3) 0.18150(5) 0.2976(2) 0.2007 Uani
Cu1H Cu 0.22988(2) 0.0000 0.22988(2) 0.1281 Uani
O2H O 0.19815(13) 0.0000 0.19815(13) 0.2093 Uani
Cu1AA Cu 0.22988(2) 0.27012(2) 0.5000 0.1281 Uani
Cu1CA Cu 0.0000 0.27012(2) 0.27012(2) 0.1281 Uani
Cu1HA Cu 0.22988(2) 0.5000 0.27012(2) 0.1281 Uani
Cu1XA Cu 0.27012(2) 0.22988(2) 0.5000 0.1281 Uani
Cu1EB Cu 0.27012(2) 0.0000 0.27012(2) 0.1281 Uani
Cu1UB Cu 0.27012(2) 0.27012(2) 0.0000 0.1281 Uani
Cu1EC Cu 0.27012(2) 0.5000 0.22988(2) 0.1281 Uani
O1H O 0.25402(12) 0.02957(10) 0.21295(11) 0.1457 Uani
O1L O 0.25402(12) 0.21295(11) -0.02957(10) 0.1457 Uani
O1S O 0.21295(11) -0.02957(10) 0.25402(12) 0.1457 Uani
O1V O -0.02957(10) 0.25402(12) 0.21295(11) 0.1457 Uani
O1SC O 0.21295(11) 0.25402(12) -0.02957(10) 0.1457 Uani
O1WC O -0.02957(10) 0.21295(11) 0.25402(12) 0.1457 Uani
O1AD O 0.25402(12) -0.02957(10) 0.21295(11) 0.1457 Uani
O1ED O 0.25402(12) 0.21295(11) 0.02957(10) 0.1457 Uani
loop_
_atom_site_aniso_label
_atom_site_aniso_U_11
_atom_site_aniso_U_22
_atom_site_aniso_U_33
_atom_site_aniso_U_23
_atom_site_aniso_U_13
_atom_site_aniso_U_12
Cu1 0.1394(14) 0.1394(14) 0.1054(15) 0.000 0.000 -0.0288(10)
O1 0.154(5) 0.180(5) 0.103(3) -0.008(4) 0.021(3) -0.032(4)
O2 0.199(7) 0.199(7) 0.230(12) 0.000 0.000 -0.110(8)
F1 0.450(15) 0.177(9) 0.173(10) -0.006(7) 0.075(9) 0.100(11)
F2 0.381(16) 0.229(10) 0.151(8) 0.047(7) 0.124(10) 0.051(9)
F3 0.366(15) 0.161(8) 0.203(10) -0.018(7) 0.089(10) 0.021(9)
F4 0.375(16) 0.221(11) 0.164(9) -0.004(8) 0.047(10) 0.022(10)
C1 0.139(6) 0.139(6) 0.100(9) -0.001(5) 0.001(5) -0.046(8)
C2 0.169(7) 0.169(7) 0.087(8) -0.012(8) 0.012(8) -0.022(9)
C3 0.249(18) 0.169(17) 0.118(12) -0.029(14) 0.047(12) 0.042(15)
C4 0.27(2) 0.18(2) 0.18(2) -0.042(16) 0.092(15) 0.003(15)
C5 0.159(8) 0.159(8) 0.130(12) -0.056(8) 0.056(8) -0.022(9)
C6 0.220(17) 0.19(2) 0.131(15) -0.032(16) 0.053(11) 0.007(17)
C7 0.26(2) 0.20(2) 0.142(18) -0.011(17) -0.030(15) 0.043(19)
C8 0.150(5) 0.150(5) 0.141(11) -0.004(7) 0.004(7) -0.036(9)
C9 0.143(5) 0.169(11) 0.143(5) -0.030(6) 0.032(8) -0.030(6)
O1CA 0.103 0.154 0.18 -0.032 0.008 -0.021
F1CA 0.173 0.45 0.177 0.1 0.006 -0.075
F2CA 0.151 0.381 0.229 0.051 -0.047 -0.124
F3CA 0.203 0.366 0.161 0.021 0.018 -0.089
F4CA 0.164 0.375 0.221 0.022 0.004 -0.047
C1CA 0.1 0.139 0.139 -0.046 0.001 -0.001
C2CA 0.087 0.169 0.169 -0.022 0.012 -0.012
C3CA 0.118 0.249 0.169 0.042 0.029 -0.047
C4CA 0.18 0.27 0.18 0.003 0.042 -0.092
C5CA 0.13 0.159 0.159 -0.022 0.056 -0.056
C6CA 0.131 0.22 0.19 0.007 0.032 -0.053
C7CA 0.142 0.26 0.2 0.043 0.011 0.03
C8CA 0.141 0.15 0.15 -0.036 0.004 -0.004
C9CA 0.143 0.143 0.169 -0.03 0.03 -0.032
O1EC 0.18 0.103 0.154 -0.021 0.032 -0.008
F1EC 0.177 0.173 0.45 -0.075 -0.1 -0.006
F2EC 0.229 0.151 0.381 -0.124 -0.051 0.047
F3EC 0.161 0.203 0.366 -0.089 -0.021 -0.018
F4EC 0.221 0.164 0.375 -0.047 -0.022 -0.004
C1EC 0.139 0.1 0.139 -0.001 0.046 -0.001
C2EC 0.169 0.087 0.169 -0.012 0.022 -0.012
C3EC 0.169 0.118 0.249 -0.047 -0.042 -0.029
C4EC 0.18 0.18 0.27 -0.092 -0.003 -0.042
C5EC 0.159 0.13 0.159 -0.056 0.022 -0.056
C6EC 0.19 0.131 0.22 -0.053 -0.007 -0.032
C7EC 0.2 0.142 0.26 0.03 -0.043 -0.011
C8EC 0.15 0.141 0.15 -0.004 0.036 -0.004
C9EC 0.169 0.143 0.143 -0.032 0.03 -0.03
O1OD 0.103 0.18 0.154 -0.032 0.021 -0.008
F1OD 0.173 0.177 0.45 0.1 0.075 -0.006
F2OD 0.151 0.229 0.381 0.051 0.124 0.047
F3OD 0.203 0.161 0.366 0.021 0.089 -0.018
F4OD 0.164 0.221 0.375 0.022 0.047 -0.004
C3OD 0.118 0.169 0.249 0.042 0.047 -0.029
C4OD 0.18 0.18 0.27 0.003 0.092 -0.042
C6OD 0.131 0.19 0.22 0.007 0.053 -0.032
C7OD 0.142 0.2 0.26 0.043 -0.03 -0.011
O1GE 0.154 0.103 0.18 -0.008 0.032 -0.021
F1GE 0.45 0.173 0.177 -0.006 -0.1 -0.075
F2GE 0.381 0.151 0.229 0.047 -0.051 -0.124
F3GE 0.366 0.203 0.161 -0.018 -0.021 -0.089
F4GE 0.375 0.164 0.221 -0.004 -0.022 -0.047
C3GE 0.249 0.118 0.169 -0.029 -0.042 -0.047
C4GE 0.27 0.18 0.18 -0.042 -0.003 -0.092
C6GE 0.22 0.131 0.19 -0.032 -0.007 -0.053
C7GE 0.26 0.142 0.2 -0.011 -0.043 0.03
O1XF 0.18 0.154 0.103 -0.021 0.008 -0.032
F1XF 0.177 0.45 0.173 -0.075 0.006 0.1
F2XF 0.229 0.381 0.151 -0.124 -0.047 0.051
F3XF 0.161 0.366 0.203 -0.089 0.018 0.021
F4XF 0.221 0.375 0.164 -0.047 0.004 0.022
C3XF 0.169 0.249 0.118 -0.047 0.029 0.042
C4XF 0.18 0.27 0.18 -0.092 0.042 0.003
C6XF 0.19 0.22 0.131 -0.053 0.032 0.007
C7XF 0.2 0.26 0.142 0.03 0.011 0.043
Cu1D 0.1054 0.1394 0.1394 -0.0288 0 0
O1D 0.103 0.154 0.18 -0.032 -0.008 0.021
O2D 0.23 0.199 0.199 -0.11 0 0
F1D 0.173 0.45 0.177 0.1 -0.006 0.075
F2D 0.151 0.381 0.229 0.051 0.047 0.124
F3D 0.203 0.366 0.161 0.021 -0.018 0.089
F4D 0.164 0.375 0.221 0.022 -0.004 0.047
C1D 0.1 0.139 0.139 -0.046 -0.001 0.001
C2D 0.087 0.169 0.169 -0.022 -0.012 0.012
C3D 0.118 0.249 0.169 0.042 -0.029 0.047
C4D 0.18 0.27 0.18 0.003 -0.042 0.092
C5D 0.13 0.159 0.159 -0.022 -0.056 0.056
C6D 0.131 0.22 0.19 0.007 -0.032 0.053
C7D 0.142 0.26 0.2 0.043 -0.011 -0.03
C8D 0.141 0.15 0.15 -0.036 -0.004 0.004
C9D 0.143 0.143 0.169 -0.03 -0.03 0.032
O1EB 0.18 0.103 0.154 -0.021 -0.032 0.008
F1EB 0.177 0.173 0.45 -0.075 0.1 0.006
F2EB 0.229 0.151 0.381 -0.124 0.051 -0.047
F3EB 0.161 0.203 0.366 -0.089 0.021 0.018
F4EB 0.221 0.164 0.375 -0.047 0.022 0.004
C1EB 0.139 0.1 0.139 -0.001 -0.046 0.001
C2EB 0.169 0.087 0.169 -0.012 -0.022 0.012
C3EB 0.169 0.118 0.249 -0.047 0.042 0.029
C4EB 0.18 0.18 0.27 -0.092 0.003 0.042
C5EB 0.159 0.13 0.159 -0.056 -0.022 0.056
C6EB 0.19 0.131 0.22 -0.053 0.007 0.032
C7EB 0.2 0.142 0.26 0.03 0.043 0.011
C8EB 0.15 0.141 0.15 -0.004 -0.036 0.004
C9EB 0.169 0.143 0.143 -0.032 -0.03 0.03
O1AA 0.154 0.18 0.103 -0.008 -0.021 0.032
F1AA 0.45 0.177 0.173 -0.006 -0.075 -0.1
F2AA 0.381 0.229 0.151 0.047 -0.124 -0.051
F3AA 0.366 0.161 0.203 -0.018 -0.089 -0.021
F4AA 0.375 0.221 0.164 -0.004 -0.047 -0.022
C1AA 0.139 0.139 0.1 -0.001 -0.001 0.046
C2AA 0.169 0.169 0.087 -0.012 -0.012 0.022
C3AA 0.249 0.169 0.118 -0.029 -0.047 -0.042
C4AA 0.27 0.18 0.18 -0.042 -0.092 -0.003
C5AA 0.159 0.159 0.13 -0.056 -0.056 0.022
C6AA 0.22 0.19 0.131 -0.032 -0.053 -0.007
C7AA 0.26 0.2 0.142 -0.011 0.03 -0.043
C8AA 0.15 0.15 0.141 -0.004 -0.004 0.036
C9AA 0.143 0.169 0.143 -0.03 -0.032 0.03
O1JD 0.154 0.103 0.18 -0.008 -0.032 0.021
F1JD 0.45 0.173 0.177 -0.006 0.1 0.075
F2JD 0.381 0.151 0.229 0.047 0.051 0.124
F3JD 0.366 0.203 0.161 -0.018 0.021 0.089
F4JD 0.375 0.164 0.221 -0.004 0.022 0.047
C3JD 0.249 0.118 0.169 -0.029 0.042 0.047
C4JD 0.27 0.18 0.18 -0.042 0.003 0.092
C6JD 0.22 0.131 0.19 -0.032 0.007 0.053
C7JD 0.26 0.142 0.2 -0.011 0.043 -0.03
O1BF 0.18 0.154 0.103 -0.021 -0.008 0.032
F1BF 0.177 0.45 0.173 -0.075 -0.006 -0.1
F2BF 0.229 0.381 0.151 -0.124 0.047 -0.051
F3BF 0.161 0.366 0.203 -0.089 -0.018 -0.021
F4BF 0.221 0.375 0.164 -0.047 -0.004 -0.022
C3BF 0.169 0.249 0.118 -0.047 -0.029 -0.042
C4BF 0.18 0.27 0.18 -0.092 -0.042 -0.003
C6BF 0.19 0.22 0.131 -0.053 -0.032 -0.007
C7BF 0.2 0.26 0.142 0.03 -0.011 -0.043
O1LE 0.103 0.18 0.154 -0.032 -0.021 0.008
F1LE 0.173 0.177 0.45 0.1 -0.075 0.006
F2LE 0.151 0.229 0.381 0.051 -0.124 -0.047
F3LE 0.203 0.161 0.366 0.021 -0.089 0.018
F4LE 0.164 0.221 0.375 0.022 -0.047 0.004
C3LE 0.118 0.169 0.249 0.042 -0.047 0.029
C4LE 0.18 0.18 0.27 0.003 -0.092 0.042
C6LE 0.131 0.19 0.22 0.007 -0.053 0.032
C7LE 0.142 0.2 0.26 0.043 0.03 0.011
Cu1H 0.1394 0.1054 0.1394 0 -0.0288 0
O2H 0.199 0.23 0.199 0 -0.11 0
Cu1AA 0.1394 0.1394 0.1054 0 0 0.0288
Cu1CA 0.1054 0.1394 0.1394 -0.0288 0 0
Cu1HA 0.1394 0.1054 0.1394 0 0.0288 0
Cu1XA 0.1394 0.1394 0.1054 0 0 0.0288
Cu1EB 0.1394 0.1054 0.1394 0 -0.0288 0
Cu1UB 0.1394 0.1394 0.1054 0 0 -0.0288
Cu1EC 0.1394 0.1054 0.1394 0 0.0288 0
O1H 0.18 0.103 0.154 0.021 -0.032 -0.008
O1L 0.18 0.154 0.103 -0.021 0.008 -0.032
O1S 0.154 0.103 0.18 0.008 -0.032 -0.021
O1V 0.103 0.18 0.154 -0.032 -0.021 0.008
O1SC 0.154 0.18 0.103 0.008 -0.021 -0.032
O1WC 0.103 0.154 0.18 -0.032 0.008 -0.021
O1AD 0.18 0.103 0.154 -0.021 -0.032 0.008
O1ED 0.18 0.154 0.103 0.021 -0.008 -0.032
loop_
_geom_bond_atom_site_label_1
_geom_bond_atom_site_label_2
_geom_bond_site_symmetry_1
_geom_bond_site_symmetry_2
Cu1 O1 1_555 1_555
O1 C1 1_555 1_555
O2 Cu1 1_555 1_555
F1 C3 1_555 1_555
F2 C4 1_555 1_555
F3 C6 1_555 1_555
F4 C7 1_555 1_555
C1 C2 1_555 1_555
C2 C3 1_555 1_555
C3 C4 1_555 1_555
C4 C5 1_555 1_555
C5 C6 1_555 1_555
C6 C7 1_555 1_555
C7 C2 1_555 1_555
C8 C5 1_555 1_555
C9 C8 1_555 1_555
H1 C9 1_555 1_555
O1CA C1CA 1_555 1_555
F1CA C3CA 1_555 1_555
F2CA C4CA 1_555 1_555
F3CA C6CA 1_555 1_555
F4CA C7CA 1_555 1_555
C1CA C2CA 1_555 1_555
C2CA C3CA 1_555 1_555
C3CA C4CA 1_555 1_555
C4CA C5CA 1_555 1_555
C5CA C6CA 1_555 1_555
C6CA C7CA 1_555 1_555
C7CA C2CA 1_555 1_555
C8CA C9 1_555 1_555
C9CA C8CA 1_555 1_555
H1CA C9CA 1_555 1_555
O1EC C1EC 1_555 1_555
F1EC C3EC 1_555 1_555
F2EC C4EC 1_555 1_555
F3EC C6EC 1_555 1_555
F4EC C7EC 1_555 1_555
C1EC C2EC 1_555 1_555
C2EC C3EC 1_555 1_555
C3EC C4EC 1_555 1_555
C4EC C5EC 1_555 1_555
C5EC C6EC 1_555 1_555
C6EC C7EC 1_555 1_555
C7EC C2EC 1_555 1_555
C8EC C9CA 1_555 1_555
C9EC C8 1_555 1_555
H1EC C9EC 1_555 1_555
O1OD C1CA 1_555 1_555
F1OD C3OD 1_555 1_555
F2OD C4OD 1_555 1_555
F3OD C6OD 1_555 1_555
F4OD C7OD 1_555 1_555
C3OD C2CA 1_555 1_555
C4OD C4CA 1_555 1_555
C6OD C5CA 1_555 1_555
C7OD C2CA 1_555 1_555
O1GE C1EC 1_555 1_555
F1GE C3GE 1_555 1_555
F2GE C4GE 1_555 1_555
F3GE C6GE 1_555 1_555
F4GE C7GE 1_555 1_555
C3GE C2EC 1_555 1_555
C4GE C4EC 1_555 1_555
C6GE C5EC 1_555 1_555
C7GE C2EC 1_555 1_555
O1XF C1 1_555 1_555
F1XF C3XF 1_555 1_555
F2XF C4XF 1_555 1_555
F3XF C6XF 1_555 1_555
F4XF C7XF 1_555 1_555
C3XF C2 1_555 1_555
C4XF C4 1_555 1_555
C6XF C5 1_555 1_555
C7XF C2 1_555 1_555
Cu1D O1OD 1_555 1_555
O1D Cu1D 1_555 1_555
O2D Cu1D 1_555 1_555
F1D C3D 1_555 1_555
F2D C4D 1_555 1_555
F3D C6D 1_555 1_555
F4D C7D 1_555 1_555
C1D O1D 1_555 1_555
C2D C1D 1_555 1_555
C3D C2D 1_555 1_555
C4D C3D 1_555 1_555
C5D C4D 1_555 1_555
C6D C5D 1_555 1_555
C7D C2D 1_555 1_555
C8D C5D 1_555 1_555
C9D C8D 1_555 1_555
H1D C9D 1_555 1_555
O1EB C1EB 1_555 1_555
F1EB C3EB 1_555 1_555
F2EB C4EB 1_555 1_555
F3EB C6EB 1_555 1_555
F4EB C7EB 1_555 1_555
C1EB C2EB 1_555 1_555
C2EB C3EB 1_555 1_555
C3EB C4EB 1_555 1_555
C4EB C5EB 1_555 1_555
C5EB C6EB 1_555 1_555
C6EB C7EB 1_555 1_555
C7EB C2EB 1_555 1_555
C8EB C9D 1_555 1_555
C9EB C8EB 1_555 1_555
H1EB C9EB 1_555 1_555
O1AA C1AA 1_555 1_555
F1AA C3AA 1_555 1_555
F2AA C4AA 1_555 1_555
F3AA C6AA 1_555 1_555
F4AA C7AA 1_555 1_555
C1AA C2AA 1_555 1_555
C2AA C3AA 1_555 1_555
C3AA C4AA 1_555 1_555
C4AA C5AA 1_555 1_555
C5AA C6AA 1_555 1_555
C6AA C7AA 1_555 1_555
C7AA C2AA 1_555 1_555
C8AA C9EB 1_555 1_555
C9AA C8D 1_555 1_555
H1AA C9AA 1_555 1_555
O1JD C1EB 1_555 1_555
F1JD C3JD 1_555 1_555
F2JD C4JD 1_555 1_555
F3JD C6JD 1_555 1_555
F4JD C7JD 1_555 1_555
C3JD C2EB 1_555 1_555
C4JD C4EB 1_555 1_555
C6JD C5EB 1_555 1_555
C7JD C2EB 1_555 1_555
O1BF C1AA 1_555 1_555
F1BF C3BF 1_555 1_555
F2BF C4BF 1_555 1_555
F3BF C6BF 1_555 1_555
F4BF C7BF 1_555 1_555
C3BF C2AA 1_555 1_555
C4BF C4AA 1_555 1_555
C6BF C5AA 1_555 1_555
C7BF C2AA 1_555 1_555
O1LE C1D 1_555 1_555
F1LE C3LE 1_555 1_555
F2LE C4LE 1_555 1_555
F3LE C6LE 1_555 1_555
F4LE C7LE 1_555 1_555
C3LE C2D 1_555 1_555
C4LE C4D 1_555 1_555
C6LE C5D 1_555 1_555
C7LE C2D 1_555 1_555
Cu1H O1JD 1_555 1_555
O2H Cu1H 1_555 1_555
Cu1AA O1AA 1_555 1_555
Cu1CA O1CA 1_555 1_555
Cu1HA O1GE 1_555 1_555
Cu1XA O1BF 1_555 1_555
Cu1EB O1EB 1_555 1_555
Cu1UB O1XF 1_555 1_555
Cu1EC O1EC 1_555 1_555
O1H Cu1H 1_555 1_555
O1L Cu1 1_555 1_555
O1S Cu1H 1_555 1_555
O1V Cu1D 1_555 1_555
O1SC Cu1 1_555 1_555
O1WC Cu1D 1_555 1_555
O1AD Cu1H 1_555 1_555
O1ED Cu1 1_555 1_555
C3 C3XF 1_555 1_555
C5 C4XF 1_555 1_555
C6 C6XF 1_555 1_555
C7 C7XF 1_555 1_555
C3CA C3OD 1_555 1_555
C5CA C8CA 1_555 1_555
C5CA C4OD 1_555 1_555
C6CA C6OD 1_555 1_555
C7CA C7OD 1_555 1_555
C3EC C3GE 1_555 1_555
C5EC C8EC 1_555 1_555
C5EC C4GE 1_555 1_555
C6EC C6GE 1_555 1_555
C7EC C7GE 1_555 1_555
C8EC C9EC 1_555 1_555
C3OD C4OD 1_555 1_555
C6OD C7OD 1_555 1_555
C3GE C4GE 1_555 1_555
C6GE C7GE 1_555 1_555
C3XF C4XF 1_555 1_555
C6XF C7XF 1_555 1_555
C3D C3LE 1_555 1_555
C5D C4LE 1_555 1_555
C6D C7D 1_555 1_555
C6D C6LE 1_555 1_555
C7D C7LE 1_555 1_555
C3EB C3JD 1_555 1_555
C5EB C8EB 1_555 1_555
C5EB C4JD 1_555 1_555
C6EB C6JD 1_555 1_555
C7EB C7JD 1_555 1_555
C3AA C3BF 1_555 1_555
C5AA C8AA 1_555 1_555
C5AA C4BF 1_555 1_555
C6AA C6BF 1_555 1_555
C7AA C7BF 1_555 1_555
C8AA C9AA 1_555 1_555
C3JD C4JD 1_555 1_555
C6JD C7JD 1_555 1_555
C3BF C4BF 1_555 1_555
C6BF C7BF 1_555 1_555
O1LE Cu1CA 1_555 1_555
C3LE C4LE 1_555 1_555
C6LE C7LE 1_555 1_555

#END
