
#######################################################################
#
#                 Cambridge Crystallographic Data Centre
#                                CCDC 
#
#######################################################################
#
# If this CIF has been generated from an entry in the Cambridge 
# Structural Database, then it will include bibliographic, chemical, 
# crystal, experimental, refinement or atomic coordinate data resulting 
# from the CCDC's data processing and validation procedures.
#
#######################################################################

data_BEXQUR
_chemical_formula_moiety         '(C50 H36 N18 Ni2 P2)n'
_symmetry_cell_setting           orthorhombic
_symmetry_space_group_name_H-M   'P 21 21 21'
_symmetry_Int_Tables_number      19
_space_group_name_Hall           'P 2ac 2ab'
loop_
_symmetry_equiv_pos_site_id
_symmetry_equiv_pos_as_xyz
1 x,y,z
2 1/2-x,-y,1/2+z
3 -x,1/2+y,1/2-z
4 1/2+x,1/2-y,-z
_cell_length_a                   13.8039(3)
_cell_length_b                   16.8679(2)
_cell_length_c                   20.7639(6)
_cell_angle_alpha                90
_cell_angle_beta                 90
_cell_angle_gamma                90
_cell_volume                     4834.72
loop_
_atom_site_label
_atom_site_type_symbol
_atom_site_fract_x
_atom_site_fract_y
_atom_site_fract_z
Ni1 Ni -0.12000(3) 0.20366(2) 0.077074(19)
Ni2 Ni 0.03669(3) 0.20287(2) 0.41362(2)
N1 N -0.17025(18) 0.20902(15) 0.17056(13)
C1 C -0.1899(2) 0.21249(17) 0.22406(17)
N2 N -0.09870(19) 0.21513(14) 0.37065(14)
C2 C -0.1528(2) 0.21475(17) 0.32899(16)
N3 N -0.2202(2) 0.21490(16) 0.28413(14)
N4 N 0.01937(19) 0.19252(14) 0.11780(13)
C3 C 0.0705(2) 0.18631(15) 0.16083(18)
N5 N 0.09432(18) 0.19501(14) 0.32062(14)
C4 C 0.1102(2) 0.18910(16) 0.26666(18)
N6 N 0.1369(2) 0.18000(13) 0.20623(14)
N7 N -0.06405(19) 0.20419(15) -0.01724(12)
C5 C -0.0025(2) 0.23723(17) -0.04300(15)
N8 N 0.23384(19) 0.28460(13) -0.05209(12)
C6 C 0.1519(2) 0.27914(15) -0.06147(15)
N9 N 0.06011(19) 0.27730(14) -0.07727(15)
N10 N -0.09897(18) 0.32539(13) 0.07437(14)
C7 C -0.0593(2) 0.38342(17) 0.06327(15)
N11 N -0.02045(18) 0.58229(13) 0.08092(14)
C8 C -0.0193(2) 0.51636(17) 0.06723(15)
N12 N -0.0062(2) 0.44429(14) 0.04606(14)
N13 N 0.1738(2) 0.19125(14) 0.45429(13)
C9 C 0.2570(3) 0.19064(16) 0.45697(16)
N14 N 0.46693(19) 0.28415(14) 0.49491(12)
C10 C 0.4088(2) 0.23985(18) 0.47890(16)
N15 N 0.3521(2) 0.18295(13) 0.45775(14)
N16 N -0.05880(19) -0.17625(13) 0.08913(14)
C11 C -0.1018(2) -0.11809(17) 0.09151(16)
N17 N -0.13084(18) 0.08224(13) 0.07311(13)
C12 C -0.1377(2) 0.01541(16) 0.08300(16)
N18 N -0.16099(19) -0.05812(13) 0.09644(15)
N8C N -0.26616(19) 0.21540(13) 0.05209(12)
N11B N 0.02045(18) 0.08229(13) 0.41908(14)
N14C N -0.03307(19) 0.21585(14) 0.50509(12)
N16B N 0.05880(19) 0.32375(13) 0.41087(14)
Ni1C Ni 0.38000(3) 0.29634(2) -0.077074(19)
Ni2B Ni -0.03669(3) 0.70287(2) 0.08638(2)
Ni2C Ni 0.53669(3) 0.29713(2) 0.58638(2)
Ni2B_2 Ni -0.03669(3) -0.29713(2) 0.08638(2)
P1 P 0.26265(6) 0.59654(4) 0.65777(4)
C13 C 0.3677(2) 0.56166(15) 0.69953(14)
C14 C 0.3655(2) 0.49062(16) 0.73331(15)
H1 H 0.3090 0.4584 0.7320
C15 C 0.4441(2) 0.46672(18) 0.76855(16)
H2 H 0.4422 0.4180 0.7914
C16 C 0.5259(2) 0.51355(17) 0.77080(16)
H3 H 0.5800 0.4972 0.7958
C17 C 0.5297(2) 0.58438(17) 0.73677(16)
H4 H 0.5867 0.6159 0.7377
C18 C 0.4508(2) 0.60847(17) 0.70184(16)
H5 H 0.4527 0.6573 0.6791
C19 C 0.1940(2) 0.51377(17) 0.62834(15)
C20 C 0.0932(2) 0.51339(18) 0.63096(16)
H6 H 0.0596 0.5553 0.6518
C21 C 0.0422(3) 0.45150(19) 0.60308(17)
H7 H -0.0266 0.4511 0.6047
C22 C 0.0908(3) 0.39081(19) 0.57317(18)
H8 H 0.0555 0.3486 0.5541
C23 C 0.1906(3) 0.39064(18) 0.57060(17)
H9 H 0.2236 0.3481 0.5502
C24 C 0.2429(2) 0.45251(16) 0.59775(16)
H10 H 0.3116 0.4529 0.5954
C25 C 0.1923(2) 0.65626(16) 0.71231(16)
C26 C 0.1315(3) 0.71477(18) 0.68779(18)
H11 H 0.1245 0.7213 0.6426
C27 C 0.0812(3) 0.76358(19) 0.7301(2)
H12 H 0.0387 0.8032 0.7139
C28 C 0.0929(3) 0.75447(19) 0.7950(2)
H13 H 0.0593 0.7888 0.8236
C29 C 0.1528(2) 0.69608(19) 0.82005(17)
H14 H 0.1598 0.6900 0.8653
C30 C 0.2021(2) 0.64702(17) 0.77809(17)
H15 H 0.2430 0.6066 0.7946
C31 C 0.2953(2) 0.65417(16) 0.58939(16)
H16 H 0.3339 0.6999 0.6032
H17 H 0.2366 0.6727 0.5676
H18 H 0.3335 0.6216 0.5596
P2 P 0.36001(6) -0.06300(4) 0.15785(4)
C32 C 0.4769(2) -0.01728(15) 0.15593(16)
C33 C 0.5116(2) 0.02478(16) 0.20862(17)
H19 H 0.4740 0.0278 0.2469
C34 C 0.6009(2) 0.06241(17) 0.20565(17)
H20 H 0.6249 0.0910 0.2417
C35 C 0.6548(2) 0.05765(17) 0.14941(17)
H21 H 0.7153 0.0842 0.1467
C36 C 0.6213(2) 0.01485(17) 0.09741(17)
H22 H 0.6594 0.0113 0.0595
C37 C 0.5325(2) -0.02294(16) 0.10015(16)
H23 H 0.5097 -0.0525 0.0643
C38 C 0.2800(2) -0.01184(16) 0.10422(15)
C39 C 0.1913(2) -0.04753(18) 0.08757(18)
H24 H 0.1766 -0.0995 0.1023
C40 C 0.1260(3) -0.0068(2) 0.04988(17)
H25 H 0.0661 -0.0309 0.0387
C41 C 0.1469(3) 0.0684(2) 0.02831(17)
H26 H 0.1010 0.0965 0.0030
C42 C 0.2346(3) 0.10312(19) 0.04356(17)
H27 H 0.2494 0.1547 0.0281
C43 C 0.3011(2) 0.06290(16) 0.08135(17)
H28 H 0.3614 0.0869 0.0915
C44 C 0.3156(2) -0.05414(17) 0.23789(16)
C45 C 0.3270(2) -0.11403(18) 0.28410(17)
H29 H 0.3539 -0.1636 0.2718
C46 C 0.3002(3) -0.10212(19) 0.34602(17)
H30 H 0.3066 -0.1440 0.3763
C47 C 0.2633(2) -0.02926(18) 0.36586(17)
H31 H 0.2469 -0.0208 0.4098
C48 C 0.2507(2) 0.03033(18) 0.32139(17)
H32 H 0.2238 0.0796 0.3345
C49 C 0.2768(2) 0.01894(17) 0.25765(16)
H33 H 0.2686 0.0605 0.2273
C50 C 0.3705(3) -0.16392(16) 0.13269(17)
H34 H 0.4145 -0.1922 0.1618
H35 H 0.3962 -0.1659 0.0887
H36 H 0.3065 -0.1891 0.1338
loop_
_geom_bond_atom_site_label_1
_geom_bond_atom_site_label_2
_geom_bond_site_symmetry_1
_geom_bond_site_symmetry_2
Ni1 N1 1_555 1_555
Ni2 N2 1_555 1_555
N1 C1 1_555 1_555
C1 N3 1_555 1_555
N2 C2 1_555 1_555
C2 N3 1_555 1_555
N4 Ni1 1_555 1_555
C3 N4 1_555 1_555
N5 Ni2 1_555 1_555
C4 N5 1_555 1_555
N6 C3 1_555 1_555
N7 Ni1 1_555 1_555
C5 N7 1_555 1_555
N8 C6 1_555 1_555
C6 N9 1_555 1_555
N9 C5 1_555 1_555
N10 Ni1 1_555 1_555
C7 N10 1_555 1_555
N11 C8 1_555 1_555
C8 N12 1_555 1_555
N12 C7 1_555 1_555
N13 Ni2 1_555 1_555
C9 N13 1_555 1_555
N14 C10 1_555 1_555
C10 N15 1_555 1_555
N15 C9 1_555 1_555
N16 C11 1_555 1_555
C11 N18 1_555 1_555
N17 Ni1 1_555 1_555
C12 N17 1_555 1_555
N18 C12 1_555 1_555
P1 C13 1_555 1_555
C13 C14 1_555 1_555
C14 H1 1_555 1_555
C15 C14 1_555 1_555
H2 C15 1_555 1_555
C16 C15 1_555 1_555
H3 C16 1_555 1_555
C17 C16 1_555 1_555
H4 C17 1_555 1_555
C18 C13 1_555 1_555
H5 C18 1_555 1_555
C19 P1 1_555 1_555
C20 C19 1_555 1_555
H6 C20 1_555 1_555
C21 C20 1_555 1_555
H7 C21 1_555 1_555
C22 C21 1_555 1_555
H8 C22 1_555 1_555
C23 C22 1_555 1_555
H9 C23 1_555 1_555
C24 C19 1_555 1_555
H10 C24 1_555 1_555
C25 P1 1_555 1_555
C26 C25 1_555 1_555
H11 C26 1_555 1_555
C27 C26 1_555 1_555
H12 C27 1_555 1_555
C28 C27 1_555 1_555
H13 C28 1_555 1_555
C29 C28 1_555 1_555
H14 C29 1_555 1_555
C30 C25 1_555 1_555
H15 C30 1_555 1_555
C31 P1 1_555 1_555
H16 C31 1_555 1_555
H17 C31 1_555 1_555
H18 C31 1_555 1_555
P2 C32 1_555 1_555
C32 C33 1_555 1_555
C33 H19 1_555 1_555
C34 C33 1_555 1_555
H20 C34 1_555 1_555
C35 C34 1_555 1_555
H21 C35 1_555 1_555
C36 C35 1_555 1_555
H22 C36 1_555 1_555
C37 C32 1_555 1_555
H23 C37 1_555 1_555
C38 P2 1_555 1_555
C39 C38 1_555 1_555
H24 C39 1_555 1_555
C40 C39 1_555 1_555
H25 C40 1_555 1_555
C41 C40 1_555 1_555
H26 C41 1_555 1_555
C42 C41 1_555 1_555
H27 C42 1_555 1_555
C43 C38 1_555 1_555
H28 C43 1_555 1_555
C44 P2 1_555 1_555
C45 C44 1_555 1_555
H29 C45 1_555 1_555
C46 C45 1_555 1_555
H30 C46 1_555 1_555
C47 C46 1_555 1_555
H31 C47 1_555 1_555
C48 C47 1_555 1_555
H32 C48 1_555 1_555
C49 C44 1_555 1_555
H33 C49 1_555 1_555
C50 P2 1_555 1_555
H34 C50 1_555 1_555
H35 C50 1_555 1_555
H36 C50 1_555 1_555
N8C Ni1 1_555 1_555
N11B Ni2 1_555 1_555
N14C Ni2 1_555 1_555
N16B Ni2 1_555 1_555
Ni1C N8 1_555 1_555
Ni2B N11 1_555 1_555
Ni2C N14 1_555 1_555
Ni2B_2 N16 1_555 1_555
C4 N6 1_555 1_555
C17 C18 1_555 1_555
C23 C24 1_555 1_555
C29 C30 1_555 1_555
C36 C37 1_555 1_555
C42 C43 1_555 1_555
C48 C49 1_555 1_555

#END
