
#######################################################################
#
#                 Cambridge Crystallographic Data Centre
#                                CCDC 
#
#######################################################################
#
# If this CIF has been generated from an entry in the Cambridge 
# Structural Database, then it will include bibliographic, chemical, 
# crystal, experimental, refinement or atomic coordinate data resulting 
# from the CCDC's data processing and validation procedures.
#
#######################################################################

data_BEXQOL
_chemical_formula_moiety         '(C50 H36 Co2 N18 P2)n'
_symmetry_cell_setting           orthorhombic
_symmetry_space_group_name_H-M   'P 21 21 21'
_symmetry_Int_Tables_number      19
_space_group_name_Hall           'P 2ac 2ab'
loop_
_symmetry_equiv_pos_site_id
_symmetry_equiv_pos_as_xyz
1 x,y,z
2 1/2-x,-y,1/2+z
3 -x,1/2+y,1/2-z
4 1/2+x,1/2-y,-z
_cell_length_a                   13.8718(2)
_cell_length_b                   16.9489(2)
_cell_length_c                   20.7720(3)
_cell_angle_alpha                90
_cell_angle_beta                 90
_cell_angle_gamma                90
_cell_volume                     4883.74
loop_
_atom_site_label
_atom_site_type_symbol
_atom_site_fract_x
_atom_site_fract_y
_atom_site_fract_z
Co1 Co -0.121661(16) 0.201710(13) 0.076078(10)
Co2 Co 0.036339(16) 0.201050(13) 0.415224(11)
N1 N -0.17174(11) 0.20764(10) 0.17182(7)
C1 C -0.19133(12) 0.21121(11) 0.22518(9)
N2 N -0.10228(12) 0.21431(10) 0.37269(8)
C2 C -0.15499(13) 0.21351(11) 0.33012(9)
N3 N -0.22156(12) 0.21329(12) 0.28531(8)
N4 N 0.01984(11) 0.18998(9) 0.11723(7)
C3 C 0.07155(12) 0.18454(9) 0.16063(9)
N5 N 0.09376(12) 0.19317(10) 0.32035(8)
C4 C 0.10968(13) 0.18749(10) 0.26620(9)
N6 N 0.13659(12) 0.17875(10) 0.20582(8)
N7 N -0.06562(11) 0.20206(10) -0.02045(7)
C5 C -0.00456(13) 0.23561(11) -0.04606(8)
N8 N 0.22928(11) 0.28526(8) -0.05252(7)
C6 C 0.14809(14) 0.27887(10) -0.06298(8)
N9 N 0.05720(12) 0.27585(11) -0.07969(9)
N10 N -0.09886(11) 0.32476(8) 0.07251(8)
C7 C -0.05762(14) 0.38198(10) 0.06200(9)
N11 N -0.01878(12) 0.57890(9) 0.07904(9)
C8 C -0.01671(13) 0.51338(10) 0.06583(9)
N12 N -0.00265(13) 0.44145(9) 0.04590(8)
N13 N 0.17633(12) 0.18800(10) 0.45557(8)
C9 C 0.25949(14) 0.18812(11) 0.45760(9)
N14 N 0.46675(11) 0.28484(9) 0.49111(7)
C10 C 0.40878(13) 0.23878(11) 0.47637(8)
N15 N 0.35342(12) 0.18113(9) 0.45740(8)
N16 N -0.06062(12) -0.17693(9) 0.08702(8)
C11 C -0.10402(14) -0.11938(10) 0.09046(9)
N17 N -0.13338(11) 0.07887(8) 0.07195(8)
C12 C -0.14069(13) 0.01267(10) 0.08199(9)
N18 N -0.16293(12) -0.06014(9) 0.09654(9)
N8C N -0.27072(11) 0.21474(8) 0.05252(7)
N11B N 0.01878(12) 0.07890(9) 0.42096(9)
N14C N -0.03325(11) 0.21516(9) 0.50889(7)
N16B N 0.06062(12) 0.32307(9) 0.41298(8)
Co1C Co 0.378339(16) 0.298290(13) -0.076078(10)
Co2B Co -0.036339(16) 0.701050(13) 0.084776(11)
Co2C Co 0.536339(16) 0.298950(13) 0.584776(11)
Co2B_2 Co -0.036339(16) -0.298950(13) 0.084776(11)
P1 P 0.26248(3) 0.59846(3) 0.65851(2)
C13 C 0.36720(13) 0.56337(10) 0.69976(8)
C14 C 0.36460(13) 0.49232(10) 0.73346(9)
H1 H 0.3083 0.4604 0.7322
C15 C 0.44383(14) 0.46831(11) 0.76870(9)
H2 H 0.4420 0.4199 0.7918
C16 C 0.52534(14) 0.51445(12) 0.77036(9)
H3 H 0.5795 0.4978 0.7948
C17 C 0.52911(14) 0.58520(12) 0.73656(10)
H4 H 0.5859 0.6164 0.7377
C18 C 0.45039(13) 0.61002(11) 0.70143(9)
H5 H 0.4526 0.6585 0.6785
C19 C 0.19348(13) 0.51631(11) 0.62916(8)
C20 C 0.09308(14) 0.51705(13) 0.63179(10)
H6 H 0.0602 0.5592 0.6525
C21 C 0.04161(15) 0.45565(13) 0.60391(10)
H7 H -0.0268 0.4558 0.6055
C22 C 0.08912(16) 0.39470(13) 0.57398(11)
H8 H 0.0534 0.3530 0.5550
C23 C 0.18914(16) 0.39382(12) 0.57135(10)
H9 H 0.2215 0.3514 0.5508
C24 C 0.24179(15) 0.45465(11) 0.59863(9)
H10 H 0.3102 0.4544 0.5966
C25 C 0.19329(13) 0.65790(10) 0.71307(9)
C26 C 0.13345(16) 0.71725(12) 0.68954(10)
H11 H 0.1271 0.7250 0.6444
C27 C 0.08325(17) 0.76491(13) 0.73197(11)
H12 H 0.0417 0.8049 0.7160
C28 C 0.09335(16) 0.75447(13) 0.79743(11)
H13 H 0.0600 0.7882 0.8264
C29 C 0.15217(16) 0.69483(13) 0.82125(10)
H14 H 0.1581 0.6872 0.8664
C30 C 0.20190(15) 0.64666(11) 0.77922(9)
H15 H 0.2420 0.6058 0.7954
C31 C 0.29525(14) 0.65626(11) 0.58993(9)
H16 H 0.3336 0.7017 0.6039
H17 H 0.2368 0.6748 0.5682
H18 H 0.3333 0.6239 0.5602
P2 P 0.35949(3) -0.06247(3) 0.15828(2)
C32 C 0.47595(13) -0.01684(10) 0.15626(9)
C33 C 0.51042(14) 0.02489(11) 0.20938(9)
H19 H 0.4731 0.0277 0.2477
C34 C 0.59913(14) 0.06220(11) 0.20622(10)
H20 H 0.6227 0.0910 0.2421
C35 C 0.65315(14) 0.05715(11) 0.15027(10)
H21 H 0.7140 0.0827 0.1480
C36 C 0.61953(15) 0.01530(12) 0.09775(10)
H22 H 0.6573 0.0125 0.0597
C37 C 0.53113(14) -0.02252(11) 0.10034(9)
H23 H 0.5084 -0.0519 0.0645
C38 C 0.27945(13) -0.01174(11) 0.10470(8)
C39 C 0.19161(14) -0.04742(12) 0.08829(10)
H24 H 0.1768 -0.0989 0.1034
C40 C 0.12693(16) -0.00723(14) 0.05013(10)
H25 H 0.0675 -0.0313 0.0388
C41 C 0.14789(16) 0.06777(14) 0.02827(10)
H26 H 0.1023 0.0954 0.0026
C42 C 0.23447(16) 0.10273(13) 0.04343(10)
H27 H 0.2487 0.1541 0.0278
C43 C 0.30120(14) 0.06301(11) 0.08153(9)
H28 H 0.3613 0.0869 0.0916
C44 C 0.31441(13) -0.05367(11) 0.23892(9)
C45 C 0.32511(15) -0.11442(11) 0.28358(10)
H29 H 0.3513 -0.1638 0.2708
C46 C 0.29724(16) -0.10220(13) 0.34648(10)
H30 H 0.3031 -0.1438 0.3769
C47 C 0.26083(15) -0.03008(12) 0.36585(9)
H31 H 0.2432 -0.0221 0.4095
C48 C 0.25006(15) 0.03043(13) 0.32188(9)
H32 H 0.2246 0.0798 0.3353
C49 C 0.27649(13) 0.01897(12) 0.25812(9)
H33 H 0.2688 0.0603 0.2277
C50 C 0.37015(16) -0.16328(11) 0.13336(10)
H34 H 0.4141 -0.1912 0.1625
H35 H 0.3957 -0.1654 0.0894
H36 H 0.3066 -0.1884 0.1346
loop_
_geom_bond_atom_site_label_1
_geom_bond_atom_site_label_2
_geom_bond_site_symmetry_1
_geom_bond_site_symmetry_2
Co1 N1 1_555 1_555
Co2 N2 1_555 1_555
N1 C1 1_555 1_555
C1 N3 1_555 1_555
N2 C2 1_555 1_555
C2 N3 1_555 1_555
N4 Co1 1_555 1_555
C3 N4 1_555 1_555
N5 Co2 1_555 1_555
C4 N5 1_555 1_555
N6 C3 1_555 1_555
N7 Co1 1_555 1_555
C5 N7 1_555 1_555
N8 C6 1_555 1_555
C6 N9 1_555 1_555
N9 C5 1_555 1_555
N10 Co1 1_555 1_555
C7 N10 1_555 1_555
N11 C8 1_555 1_555
C8 N12 1_555 1_555
N12 C7 1_555 1_555
N13 Co2 1_555 1_555
C9 N13 1_555 1_555
N14 C10 1_555 1_555
C10 N15 1_555 1_555
N15 C9 1_555 1_555
N16 C11 1_555 1_555
C11 N18 1_555 1_555
N17 Co1 1_555 1_555
C12 N17 1_555 1_555
N18 C12 1_555 1_555
P1 C13 1_555 1_555
C13 C14 1_555 1_555
C14 H1 1_555 1_555
C15 C14 1_555 1_555
H2 C15 1_555 1_555
C16 C15 1_555 1_555
H3 C16 1_555 1_555
C17 C16 1_555 1_555
H4 C17 1_555 1_555
C18 C13 1_555 1_555
H5 C18 1_555 1_555
C19 P1 1_555 1_555
C20 C19 1_555 1_555
H6 C20 1_555 1_555
C21 C20 1_555 1_555
H7 C21 1_555 1_555
C22 C21 1_555 1_555
H8 C22 1_555 1_555
C23 C22 1_555 1_555
H9 C23 1_555 1_555
C24 C19 1_555 1_555
H10 C24 1_555 1_555
C25 P1 1_555 1_555
C26 C25 1_555 1_555
H11 C26 1_555 1_555
C27 C26 1_555 1_555
H12 C27 1_555 1_555
C28 C27 1_555 1_555
H13 C28 1_555 1_555
C29 C28 1_555 1_555
H14 C29 1_555 1_555
C30 C25 1_555 1_555
H15 C30 1_555 1_555
C31 P1 1_555 1_555
H16 C31 1_555 1_555
H17 C31 1_555 1_555
H18 C31 1_555 1_555
P2 C32 1_555 1_555
C32 C33 1_555 1_555
C33 H19 1_555 1_555
C34 C33 1_555 1_555
H20 C34 1_555 1_555
C35 C34 1_555 1_555
H21 C35 1_555 1_555
C36 C35 1_555 1_555
H22 C36 1_555 1_555
C37 C32 1_555 1_555
H23 C37 1_555 1_555
C38 P2 1_555 1_555
C39 C38 1_555 1_555
H24 C39 1_555 1_555
C40 C39 1_555 1_555
H25 C40 1_555 1_555
C41 C40 1_555 1_555
H26 C41 1_555 1_555
C42 C41 1_555 1_555
H27 C42 1_555 1_555
C43 C38 1_555 1_555
H28 C43 1_555 1_555
C44 P2 1_555 1_555
C45 C44 1_555 1_555
H29 C45 1_555 1_555
C46 C45 1_555 1_555
H30 C46 1_555 1_555
C47 C46 1_555 1_555
H31 C47 1_555 1_555
C48 C47 1_555 1_555
H32 C48 1_555 1_555
C49 C44 1_555 1_555
H33 C49 1_555 1_555
C50 P2 1_555 1_555
H34 C50 1_555 1_555
H35 C50 1_555 1_555
H36 C50 1_555 1_555
N8C Co1 1_555 1_555
N11B Co2 1_555 1_555
N14C Co2 1_555 1_555
N16B Co2 1_555 1_555
Co1C N8 1_555 1_555
Co2B N11 1_555 1_555
Co2C N14 1_555 1_555
Co2B_2 N16 1_555 1_555
C4 N6 1_555 1_555
C17 C18 1_555 1_555
C23 C24 1_555 1_555
C29 C30 1_555 1_555
C36 C37 1_555 1_555
C42 C43 1_555 1_555
C48 C49 1_555 1_555

#END
