
#######################################################################
#
#                 Cambridge Crystallographic Data Centre
#                                CCDC 
#
#######################################################################
#
# If this CIF has been generated from an entry in the Cambridge 
# Structural Database, then it will include bibliographic, chemical, 
# crystal, experimental, refinement or atomic coordinate data resulting 
# from the CCDC's data processing and validation procedures.
#
#######################################################################

data_BEXRAY
_chemical_formula_moiety         '(C52 H40 Mn2 N18 P2)n'
_symmetry_cell_setting           orthorhombic
_symmetry_space_group_name_H-M   'P 21 21 21'
_symmetry_Int_Tables_number      19
_space_group_name_Hall           'P 2ac 2ab'
loop_
_symmetry_equiv_pos_site_id
_symmetry_equiv_pos_as_xyz
1 x,y,z
2 1/2-x,-y,1/2+z
3 1/2+x,1/2-y,-z
4 -x,1/2+y,1/2-z
_cell_length_a                   14.3759(1)
_cell_length_b                   16.9055(1)
_cell_length_c                   21.6345(2)
_cell_angle_alpha                90
_cell_angle_beta                 90
_cell_angle_gamma                90
_cell_volume                     5257.87
loop_
_atom_site_label
_atom_site_type_symbol
_atom_site_fract_x
_atom_site_fract_y
_atom_site_fract_z
Mn1 Mn -0.134364(18) 0.266983(15) 0.929762(12)
Mn2 Mn 0.029260(18) 0.268131(15) 0.597130(12)
N1 N -0.17540(11) 0.24525(10) 0.83291(8)
C1 C -0.19262(13) 0.24739(12) 0.78137(9)
N2 N -0.11043(12) 0.25275(10) 0.63893(8)
C2 C -0.15899(13) 0.25229(11) 0.68033(9)
N3 N -0.22175(13) 0.25231(16) 0.72431(8)
N4 N 0.00937(11) 0.28571(9) 0.89030(8)
C3 C 0.05678(12) 0.29346(10) 0.84729(9)
N5 N 0.08225(12) 0.28250(9) 0.69329(8)
C4 C 0.09436(13) 0.29050(10) 0.74561(9)
N6 N 0.11792(11) 0.30235(10) 0.80356(8)
N7 N -0.08818(12) 0.28122(11) 1.02794(8)
C5 C -0.01737(14) 0.28141(10) 1.05249(8)
N8 N 0.21323(10) 0.24893(8) 1.05106(7)
C6 C 0.13827(13) 0.26413(12) 1.06499(9)
N9 N 0.05678(13) 0.28472(15) 1.08638(9)
N10 N -0.15728(12) 0.39457(9) 0.92332(9)
C7 C -0.16389(13) 0.46166(11) 0.91466(9)
N11 N -0.06653(13) 0.64142(10) 0.89921(9)
C8 C -0.11717(14) 0.58903(11) 0.90223(10)
N12 N -0.18275(12) 0.53544(9) 0.90398(11)
N13 N 0.16888(12) 0.28722(10) 0.55574(8)
C9 C 0.24724(14) 0.29819(11) 0.55070(10)
N14 N 0.45769(11) 0.25093(10) 0.49248(8)
C10 C 0.39621(13) 0.27885(11) 0.51765(9)
N15 N 0.33529(14) 0.31750(13) 0.55019(12)
N16 N -0.00770(12) -0.10227(9) 0.91553(8)
C11 C -0.03758(13) -0.04903(10) 0.94299(8)
N17 N -0.10781(11) 0.14049(9) 0.94461(8)
C12 C -0.08913(13) 0.07662(11) 0.95801(9)
N18 N -0.06952(12) 0.00589(9) 0.97957(7)
N8B N -0.28677(10) 0.25107(8) 0.94894(7)
N11C N 0.06653(13) 0.14142(10) 0.60079(9)
N14B N -0.04231(11) 0.24907(10) 0.50752(8)
N16C N 0.00770(12) 0.39773(9) 0.58447(8)
Mn1B Mn 0.365636(18) 0.233017(15) 1.070238(12)
Mn2C Mn -0.029260(18) 0.768131(15) 0.902870(12)
Mn2B Mn 0.529260(18) 0.231869(15) 0.402870(12)
Mn2C_2 Mn -0.029260(18) -0.231869(15) 0.902870(12)
P1 P 0.13029(3) 0.46826(3) 0.31424(2)
C13 C 0.02456(13) 0.52482(10) 0.31703(8)
C14 C -0.01408(13) 0.55426(10) 0.26293(8)
H1 H 0.0172 0.5470 0.2247
C15 C -0.09803(14) 0.59411(11) 0.26456(10)
H2 H -0.1238 0.6149 0.2275
C16 C -0.14456(14) 0.60380(12) 0.31988(10)
H3 H -0.2025 0.6309 0.3208
C17 C -0.10688(14) 0.57414(12) 0.37379(10)
H4 H -0.1392 0.5809 0.4117
C18 C -0.02210(14) 0.53451(12) 0.37315(9)
H5 H 0.0037 0.5143 0.4104
C19 C 0.17879(12) 0.48135(10) 0.23866(8)
C20 C 0.22715(13) 0.55139(11) 0.22659(9)
H6 H 0.2397 0.5876 0.2591
C21 C 0.25657(14) 0.56772(12) 0.16732(9)
H7 H 0.2892 0.6154 0.1591
C22 C 0.23890(14) 0.51529(11) 0.11987(9)
H8 H 0.2585 0.5272 0.0790
C23 C 0.19275(16) 0.44559(12) 0.13195(9)
H9 H 0.1819 0.4091 0.0993
C24 C 0.16202(15) 0.42807(11) 0.19102(9)
H10 H 0.1298 0.3801 0.1989
C25 C 0.21211(13) 0.50298(11) 0.37027(8)
C26 C 0.20547(14) 0.57807(11) 0.39624(9)
H11 H 0.1540 0.6111 0.3865
C27 C 0.27378(15) 0.60475(13) 0.43628(10)
H12 H 0.2688 0.6558 0.4543
C28 C 0.34900(16) 0.55720(15) 0.45008(10)
H13 H 0.3963 0.5762 0.4769
C29 C 0.35605(15) 0.48191(14) 0.42502(11)
H14 H 0.4075 0.4491 0.4351
C30 C 0.28779(15) 0.45481(13) 0.38529(10)
H15 H 0.2924 0.4032 0.3681
C31 C 0.10411(15) 0.36551(11) 0.32707(10)
H16 H 0.0547 0.3492 0.2979
H17 H 0.1602 0.3338 0.3176
C32 C 0.07226(18) 0.34631(13) 0.39306(11)
H18 H 0.1181 0.3666 0.4226
H19 H 0.0665 0.2889 0.3979
H20 H 0.0118 0.3712 0.4008
P2 P 0.23016(3) 0.08243(3) 0.84173(2)
C33 C 0.29821(13) 0.00140(10) 0.87110(8)
C34 C 0.39276(14) 0.01123(12) 0.88135(9)
H21 H 0.4233 0.0579 0.8678
C35 C 0.44264(16) -0.04790(13) 0.91174(10)
H22 H 0.5076 -0.0421 0.9183
C36 C 0.39745(17) -0.11463(13) 0.93213(11)
H23 H 0.4314 -0.1542 0.9537
C37 C 0.30366(17) -0.12501(12) 0.92175(10)
H24 H 0.2738 -0.1720 0.9353
C38 C 0.25296(15) -0.06717(11) 0.89163(9)
H25 H 0.1881 -0.0738 0.8849
C39 C 0.29516(12) 0.14217(10) 0.78790(9)
C40 C 0.28452(15) 0.13149(13) 0.72486(10)
H26 H 0.2453 0.0906 0.7098
C41 C 0.33097(16) 0.18038(14) 0.68368(11)
H27 H 0.3237 0.1730 0.6404
C42 C 0.38821(15) 0.24018(13) 0.70579(11)
H28 H 0.4192 0.2743 0.6777
C43 C 0.39993(16) 0.24994(13) 0.76822(11)
H29 H 0.4403 0.2902 0.7831
C44 C 0.35353(15) 0.20168(12) 0.80986(11)
H30 H 0.3615 0.2091 0.8531
C45 C 0.12812(12) 0.04480(10) 0.80398(8)
C46 C 0.13596(14) -0.02060(10) 0.76497(9)
H31 H 0.1939 -0.0471 0.7609
C47 C 0.05936(14) -0.04655(12) 0.73242(9)
H32 H 0.0648 -0.0905 0.7053
C48 C -0.02497(14) -0.00899(11) 0.73912(10)
H33 H -0.0775 -0.0273 0.7167
C49 C -0.03383(14) 0.05554(11) 0.77843(10)
H34 H -0.0925 0.0807 0.7832
C50 C 0.04252(13) 0.08307(11) 0.81060(9)
H35 H 0.0369 0.1277 0.8370
C51 C 0.19896(13) 0.14184(10) 0.90754(9)
H36 H 0.2560 0.1652 0.9256
H37 H 0.1584 0.1858 0.8938
C52 C 0.14838(15) 0.09386(12) 0.95716(10)
H38 H 0.1007 0.0607 0.9377
H39 H 0.1188 0.1299 0.9867
H40 H 0.1931 0.0602 0.9789
loop_
_geom_bond_atom_site_label_1
_geom_bond_atom_site_label_2
_geom_bond_site_symmetry_1
_geom_bond_site_symmetry_2
Mn1 N1 1_555 1_555
Mn2 N2 1_555 1_555
N1 C1 1_555 1_555
C1 N3 1_555 1_555
N2 C2 1_555 1_555
C2 N3 1_555 1_555
N4 Mn1 1_555 1_555
C3 N4 1_555 1_555
N5 Mn2 1_555 1_555
C4 N5 1_555 1_555
N6 C3 1_555 1_555
N7 Mn1 1_555 1_555
C5 N7 1_555 1_555
N8 C6 1_555 1_555
C6 N9 1_555 1_555
N9 C5 1_555 1_555
N10 Mn1 1_555 1_555
C7 N10 1_555 1_555
N11 C8 1_555 1_555
C8 N12 1_555 1_555
N12 C7 1_555 1_555
N13 Mn2 1_555 1_555
C9 N13 1_555 1_555
N14 C10 1_555 1_555
C10 N15 1_555 1_555
N15 C9 1_555 1_555
N16 C11 1_555 1_555
C11 N18 1_555 1_555
N17 Mn1 1_555 1_555
C12 N17 1_555 1_555
N18 C12 1_555 1_555
P1 C13 1_555 1_555
C13 C14 1_555 1_555
C14 H1 1_555 1_555
C15 C14 1_555 1_555
H2 C15 1_555 1_555
C16 C15 1_555 1_555
H3 C16 1_555 1_555
C17 C16 1_555 1_555
H4 C17 1_555 1_555
C18 C13 1_555 1_555
H5 C18 1_555 1_555
C19 P1 1_555 1_555
C20 C19 1_555 1_555
H6 C20 1_555 1_555
C21 C20 1_555 1_555
H7 C21 1_555 1_555
C22 C21 1_555 1_555
H8 C22 1_555 1_555
C23 C22 1_555 1_555
H9 C23 1_555 1_555
C24 C19 1_555 1_555
H10 C24 1_555 1_555
C25 P1 1_555 1_555
C26 C25 1_555 1_555
H11 C26 1_555 1_555
C27 C26 1_555 1_555
H12 C27 1_555 1_555
C28 C27 1_555 1_555
H13 C28 1_555 1_555
C29 C28 1_555 1_555
H14 C29 1_555 1_555
C30 C25 1_555 1_555
H15 C30 1_555 1_555
C31 P1 1_555 1_555
H16 C31 1_555 1_555
H17 C31 1_555 1_555
C32 C31 1_555 1_555
H18 C32 1_555 1_555
H19 C32 1_555 1_555
H20 C32 1_555 1_555
P2 C33 1_555 1_555
C33 C34 1_555 1_555
C34 H21 1_555 1_555
C35 C34 1_555 1_555
H22 C35 1_555 1_555
C36 C35 1_555 1_555
H23 C36 1_555 1_555
C37 C36 1_555 1_555
H24 C37 1_555 1_555
C38 C33 1_555 1_555
H25 C38 1_555 1_555
C39 P2 1_555 1_555
C40 C39 1_555 1_555
H26 C40 1_555 1_555
C41 C40 1_555 1_555
H27 C41 1_555 1_555
C42 C41 1_555 1_555
H28 C42 1_555 1_555
C43 C42 1_555 1_555
H29 C43 1_555 1_555
C44 C39 1_555 1_555
H30 C44 1_555 1_555
C45 P2 1_555 1_555
C46 C45 1_555 1_555
H31 C46 1_555 1_555
C47 C46 1_555 1_555
H32 C47 1_555 1_555
C48 C47 1_555 1_555
H33 C48 1_555 1_555
C49 C48 1_555 1_555
H34 C49 1_555 1_555
C50 C45 1_555 1_555
H35 C50 1_555 1_555
C51 P2 1_555 1_555
H36 C51 1_555 1_555
H37 C51 1_555 1_555
C52 C51 1_555 1_555
H38 C52 1_555 1_555
H39 C52 1_555 1_555
H40 C52 1_555 1_555
N8B Mn1 1_555 1_555
N11C Mn2 1_555 1_555
N14B Mn2 1_555 1_555
N16C Mn2 1_555 1_555
Mn1B N8 1_555 1_555
Mn2C N11 1_555 1_555
Mn2B N14 1_555 1_555
Mn2C_2 N16 1_555 1_555
C4 N6 1_555 1_555
C17 C18 1_555 1_555
C23 C24 1_555 1_555
C29 C30 1_555 1_555
C37 C38 1_555 1_555
C43 C44 1_555 1_555
C49 C50 1_555 1_555

#END
