
#######################################################################
#
#                 Cambridge Crystallographic Data Centre
#                                CCDC 
#
#######################################################################
#
# If this CIF has been generated from an entry in the Cambridge 
# Structural Database, then it will include bibliographic, chemical, 
# crystal, experimental, refinement or atomic coordinate data resulting 
# from the CCDC's data processing and validation procedures.
#
#######################################################################

data_IJEYON
_chemical_formula_moiety         '(C12 H12 Cu1 N27 O4 1+)n'
_symmetry_cell_setting           monoclinic
_symmetry_space_group_name_H-M   'P 21/n'
_symmetry_Int_Tables_number      14
_space_group_name_Hall           '-P 2yn'
loop_
_symmetry_equiv_pos_site_id
_symmetry_equiv_pos_as_xyz
1 x,y,z
2 1/2-x,1/2+y,1/2-z
3 -x,-y,-z
4 1/2+x,1/2-y,1/2+z
_cell_length_a                   8.1156(6)
_cell_length_b                   20.3861(11)
_cell_length_c                   8.6579(4)
_cell_angle_alpha                90
_cell_angle_beta                 91.199(6)
_cell_angle_gamma                90
_cell_volume                     1432.1
loop_
_atom_site_label
_atom_site_type_symbol
_atom_site_fract_x
_atom_site_fract_y
_atom_site_fract_z
C1 C 0.8822(9) 0.8702(4) 0.6888(9)
H3 H 0.9935 0.8631 0.7210
C2 C 0.6190(9) 0.8560(4) 0.6421(8)
H4 H 0.5125 0.8367 0.6355
C3 C 0.8322(9) 0.6353(4) 0.8456(8)
H5 H 0.9402 0.6510 0.8272
C4 C 0.5628(9) 0.6298(3) 0.8583(8)
H6 H 0.4487 0.6400 0.8504
C5 C 0.8127(8) 0.5003(3) 1.2105(8)
H7 H 0.8924 0.5030 1.1320
C6 C 0.6970(9) 0.4938(4) 1.4365(8)
H8 H 0.6824 0.4916 1.5450
Cu1 Cu 0.5000 0.5000 1.0000
N4 N 0.8255(7) 0.9237(3) 0.6265(7)
N5 N 0.6558(7) 0.9148(3) 0.5972(7)
N6 N 0.7586(8) 0.8259(3) 0.7010(7)
N7 N 0.7894(8) 0.7632(3) 0.7562(7)
N8 N 0.6569(8) 0.7329(3) 0.7595(7)
N9 N 0.6878(8) 0.6692(3) 0.8144(7)
N10 N 0.7963(7) 0.5785(3) 0.9045(7)
N11 N 0.6250(7) 0.5759(3) 0.9128(6)
N12 N 0.6530(7) 0.4981(3) 1.1887(6)
N13 N 0.5792(7) 0.4930(3) 1.3332(7)
N14 N 0.8448(7) 0.4981(3) 1.3660(6)
N15 N 1.0031(7) 0.5007(3) 1.4274(7)
C5B C 1.1873(8) 0.4997(3) 1.7895(8)
H7B H 1.1076 0.4970 1.8680
C6B C 1.3030(9) 0.5062(4) 1.5635(8)
H8B H 1.3176 0.5084 1.4550
N12B N 1.3470(7) 0.5019(3) 1.8113(6)
N13B N 1.4208(7) 0.5070(3) 1.6668(7)
N14B N 1.1552(7) 0.5019(3) 1.6340(6)
N15B N 0.9969(7) 0.4993(3) 1.5726(7)
C1B C 0.1178(9) 0.1298(4) 1.3112(9)
H3B H 0.0065 0.1369 1.2790
C2B C 0.3810(9) 0.1440(4) 1.3579(8)
H4B H 0.4875 0.1633 1.3645
C3B C 0.1678(9) 0.3647(4) 1.1544(8)
H5B H 0.0598 0.3490 1.1728
C4B C 0.4372(9) 0.3702(3) 1.1417(8)
H6B H 0.5513 0.3600 1.1496
N4B N 0.1745(7) 0.0763(3) 1.3735(7)
N5B N 0.3442(7) 0.0852(3) 1.4028(7)
N6B N 0.2414(8) 0.1741(3) 1.2990(7)
N7B N 0.2106(8) 0.2368(3) 1.2438(7)
N8B N 0.3431(8) 0.2671(3) 1.2405(7)
N9B N 0.3122(8) 0.3308(3) 1.1856(7)
N10B N 0.2037(7) 0.4215(3) 1.0955(7)
N11B N 0.3750(7) 0.4241(3) 1.0872(6)
Cu1_2 Cu 1.5000 0.5000 2.0000
Cu1A Cu 0.0000 -0.0000 1.5000
Cu1A_2 Cu 1.0000 1.0000 0.5000
N4A N 0.6745(7) 0.4237(3) 0.8735(7)
N4C N 0.3255(7) 0.5763(3) 1.1265(7)
N12B_2 N 0.3470(7) 0.5019(3) 0.8113(6)
N1 N 0.287(2) 0.7540(5) 0.9032(13)
N2 N 0.2322(14) 0.7400(5) 0.7541(14)
N3 N 0.319(2) 0.8192(10) 0.912(2)
O2 O 0.2406(11) 0.7791(6) 0.6494(12)
O3 O 0.2018(9) 0.6768(4) 0.7386(13)
O4 O 0.2341(14) 0.8565(7) 0.828(2)
O5 O 0.437(2) 0.8401(11) 0.9992(19)
loop_
_geom_bond_atom_site_label_1
_geom_bond_atom_site_label_2
_geom_bond_site_symmetry_1
_geom_bond_site_symmetry_2
N1 N2 1_555 1_555
N2 O2 1_555 1_555
N3 N1 1_555 1_555
O3 N2 1_555 1_555
O4 N3 1_555 1_555
O5 N3 1_555 1_555
C1 H3 1_555 1_555
C2 H4 1_555 1_555
C3 H5 1_555 1_555
C4 H6 1_555 1_555
C5 H7 1_555 1_555
C6 H8 1_555 1_555
Cu1 N11 1_555 1_555
N4 C1 1_555 1_555
N5 C2 1_555 1_555
N6 C1 1_555 1_555
N7 N6 1_555 1_555
N8 N7 1_555 1_555
N9 C3 1_555 1_555
N10 C3 1_555 1_555
N11 C4 1_555 1_555
N12 C5 1_555 1_555
N13 C6 1_555 1_555
N14 C5 1_555 1_555
N15 N14 1_555 1_555
C5B H7B 1_555 1_555
C6B H8B 1_555 1_555
N12B C5B 1_555 1_555
N13B C6B 1_555 1_555
N14B C5B 1_555 1_555
N15B N15 1_555 1_555
C1B H3B 1_555 1_555
C2B H4B 1_555 1_555
C3B H5B 1_555 1_555
C4B H6B 1_555 1_555
N4B C1B 1_555 1_555
N5B C2B 1_555 1_555
N6B C1B 1_555 1_555
N7B N6B 1_555 1_555
N8B N7B 1_555 1_555
N9B C3B 1_555 1_555
N10B C3B 1_555 1_555
N11B Cu1 1_555 1_555
Cu1_2 N12B 1_555 1_555
Cu1A N4B 1_555 1_555
Cu1A_2 N4 1_555 1_555
N4A Cu1 1_555 1_555
N4C Cu1 1_555 1_555
N12B_2 Cu1 1_555 1_555
C2 N6 1_555 1_555
C4 N9 1_555 1_555
C6 N14 1_555 1_555
Cu1 N12 1_555 1_555
N4 N5 1_555 1_555
N8 N9 1_555 1_555
N10 N11 1_555 1_555
N12 N13 1_555 1_555
C6B N14B 1_555 1_555
N12B N13B 1_555 1_555
N14B N15B 1_555 1_555
C2B N6B 1_555 1_555
C4B N9B 1_555 1_555
C4B N11B 1_555 1_555
N4B N5B 1_555 1_555
N8B N9B 1_555 1_555
N10B N11B 1_555 1_555

#END
