
#######################################################################
#
#                 Cambridge Crystallographic Data Centre
#                                CCDC 
#
#######################################################################
#
# If this CIF has been generated from an entry in the Cambridge 
# Structural Database, then it will include bibliographic, chemical, 
# crystal, experimental, refinement or atomic coordinate data resulting 
# from the CCDC's data processing and validation procedures.
#
#######################################################################

data_JUBXIP
_chemical_formula_moiety         '(C88 H148 Ba10 Fe28 O198)n'
_symmetry_cell_setting           monoclinic
_symmetry_space_group_name_H-M   'P 21'
_symmetry_Int_Tables_number      4
_space_group_name_Hall           'P 2yb'
loop_
_symmetry_equiv_pos_site_id
_symmetry_equiv_pos_as_xyz
1 x,y,z
2 -x,1/2+y,-z
_cell_length_a                   16.620(5)
_cell_length_b                   30.526(8)
_cell_length_c                   28.362(7)
_cell_angle_alpha                90
_cell_angle_beta                 98.317(7)
_cell_angle_gamma                90
_cell_volume                     14237.9
loop_
_atom_site_label
_atom_site_type_symbol
_atom_site_fract_x
_atom_site_fract_y
_atom_site_fract_z
O1 O 0.587(3) -0.0610(14) 0.1371(17)
C1 C 0.1037(14) -0.0698(8) 0.1410(6)
H1 H 0.1402 -0.0451 0.1379
C2 C 0.0717(13) -0.0452(6) 0.4493(8)
H2 H 0.0439 -0.0395 0.4768
C3 C 0.3005(14) -0.1542(7) 0.3140(8)
C4 C 0.0065(14) -0.0565(8) 0.4083(8)
C5 C 0.3059(12) 0.4001(6) 0.4953(8)
H3 H 0.2601 0.3907 0.5111
C6 C 0.1227(12) -0.0050(5) 0.4431(9)
H4 H 0.1555 -0.0116 0.4179
C7 C 0.1286(14) -0.1461(6) 0.3106(9)
C8 C 0.0817(15) 0.0390(6) 0.4310(9)
Fe1 Fe 0.3450(3) 0.36926(15) 0.04982(14)
O2 O 0.3561(15) 0.4317(6) 0.0697(7)
C9 C 0.371(2) 0.4455(8) 0.1118(11)
H5 H 0.3785 0.4258 0.1371
O3 O 0.376(2) 0.4869(7) 0.1198(11)
C10 C 0.2519(12) -0.1247(6) 0.5808(8)
H6 H 0.2935 -0.1070 0.6001
C11 C 0.3091(16) 0.4494(6) 0.4896(10)
C12 C 0.1720(13) -0.1021(6) 0.5850(7)
H7 H 0.1291 -0.1168 0.5633
C13 C 0.3860(12) 0.3799(7) 0.5176(6)
H8 H 0.4316 0.3888 0.5014
C14 C 0.2684(13) -0.1713(6) 0.5977(8)
C15 C 0.1487(17) -0.1033(9) 0.6347(7)
C16 C 0.0337(17) 0.0236(7) 0.5792(9)
H9 H -0.0219 0.0256 0.5799
C17 C 0.3807(18) -0.0154(8) 0.6509(9)
H10 H 0.4228 -0.0281 0.6716
O4 O 0.2118(19) 0.0877(6) 0.7209(8)
C18 C 0.210(3) 0.0675(7) 0.6811(9)
H11 H 0.2086 0.0832 0.6529
O5 O 0.2087(11) 0.0258(5) 0.6805(6)
C19 C 0.3044(12) 0.1148(6) 0.5060(7)
H12 H 0.3374 0.1162 0.4801
C20 C 0.3612(13) 0.1260(7) 0.5510(7)
C21 C 0.2373(12) 0.1486(6) 0.4940(7)
H13 H 0.2035 0.1381 0.4650
C22 C 0.1824(14) 0.1497(8) 0.5325(8)
C23 C 0.3995(15) 0.3916(8) 0.5704(7)
C24 C 0.1489(17) 0.4209(8) 0.3522(8)
H14 H 0.0987 0.4348 0.3490
C25 C 0.5171(17) 0.4098(7) 0.4059(9)
H15 H 0.5686 0.4156 0.4223
C26 C 0.3454(13) 0.3040(8) 0.2554(8)
H16 H 0.3701 0.2752 0.2522
C27 C 0.4046(16) 0.3376(8) 0.2408(9)
C28 C 0.2503(17) 0.2980(10) -0.0548(8)
H17 H 0.2138 0.3195 -0.0433
C29 C 0.235(2) 0.2997(11) -0.1087(8)
C30 C 0.3362(17) 0.3116(8) -0.0356(9)
H18 H 0.3730 0.2885 -0.0436
C31 C 0.371(2) 0.3552(9) -0.0479(11)
C32 C 0.056(2) 0.1986(10) -0.0759(11)
H19 H 0.0026 0.2048 -0.0886
C33 C 0.423(3) 0.1940(12) -0.0856(11)
H20 H 0.4698 0.2013 -0.0980
C34 C 0.2802(14) 0.0760(8) 0.0447(8)
H21 H 0.3146 0.0705 0.0753
C35 C 0.2011(13) 0.0518(8) 0.0446(7)
H22 H 0.1700 0.0658 0.0673
C36 C 0.3400(15) -0.0648(6) 0.1458(9)
H23 H 0.3086 -0.0604 0.1721
C37 C 0.3906(16) -0.0237(7) 0.1431(10)
C38 C 0.3781(16) -0.1103(7) 0.1528(8)
H24 H 0.4082 -0.1160 0.1261
C39 C 0.1682(18) -0.2008(8) 0.0452(10)
H25 H 0.1264 -0.1866 0.0223
C40 C 0.2521(18) -0.1906(9) 0.0332(8)
H26 H 0.2942 -0.2044 0.0562
C41 C 0.257(2) -0.2071(12) -0.0171(9)
C42 C 0.156(2) -0.2500(8) 0.0443(12)
C43 C 0.001(2) -0.2058(10) 0.1570(10)
H27 H -0.0537 -0.2128 0.1510
C44 C 0.351(2) -0.2456(11) 0.1706(11)
H28 H 0.3910 -0.2667 0.1692
C45 C 0.2547(12) -0.1132(7) 0.2951(7)
H29 H 0.2913 -0.0882 0.3022
C46 C 0.1793(12) -0.1048(6) 0.3186(8)
H30 H 0.1487 -0.0806 0.3019
O6 O 0.1770(15) -0.2855(6) 0.1866(8)
C47 C 0.206(3) -0.2950(10) 0.2309(11)
H31 H 0.2117 -0.2738 0.2548
O7 O 0.227(3) -0.3350(11) 0.2394(12)
Fe2 Fe 0.2301(3) 0.21186(15) -0.08733(14)
O8 O 0.2272(14) 0.1752(6) -0.1471(6)
C48 C 0.214(3) 0.1332(9) -0.1439(9)
H32 H 0.2021 0.1207 -0.1159
O9 O 0.219(2) 0.1100(6) -0.1810(7)
C49 C 0.377(3) 0.4748(10) 0.3200(14)
H33 H 0.3911 0.4480 0.3081
C50 C 0.0587(14) -0.0777(7) 0.0911(7)
H34 H 0.0285 -0.1052 0.0921
C51 C -0.0022(16) -0.0429(7) 0.0709(9)
C52 C 0.0562(17) -0.0571(9) 0.1807(9)
C53 C 0.4371(19) -0.1143(11) 0.1986(9)
C54 C 0.422(2) -0.0929(11) 0.0030(11)
H35 H 0.4753 -0.1006 0.0014
C55 C 0.0574(19) -0.1052(9) -0.0504(9)
H36 H 0.0097 -0.1167 -0.0670
O10 O 0.2198(13) -0.0965(7) -0.0954(6)
C56 C 0.218(4) -0.0576(10) -0.1112(9)
H37 H 0.2286 -0.0344 -0.0901
O11 O 0.2001(17) -0.0501(8) -0.1560(8)
C57 C 0.3237(15) 0.0586(9) 0.0051(8)
C58 C 0.1515(16) 0.0533(9) -0.0050(7)
C59 C 0.4361(14) 0.2044(9) 0.0630(7)
H38 H 0.4714 0.2300 0.0617
C60 C 0.3955(16) 0.2071(9) 0.1072(7)
H39 H 0.3583 0.1822 0.1079
C61 C 0.4473(19) 0.2120(11) 0.1557(8)
C62 C 0.105(2) 0.1770(10) 0.0865(12)
C63 C 0.1624(17) 0.2152(7) 0.0839(10)
H40 H 0.1993 0.2177 0.1140
C64 C 0.1258(16) 0.2596(7) 0.0699(9)
H41 H 0.0965 0.2561 0.0376
C65 C 0.0636(18) 0.2761(10) 0.1001(9)
C66 C 0.153(2) 0.3959(11) 0.0418(11)
H42 H 0.1091 0.4113 0.0256
C67 C 0.508(2) 0.3379(12) 0.0897(11)
H43 H 0.5621 0.3389 0.0855
C68 C 0.2672(14) 0.3050(7) 0.2200(8)
H44 H 0.2285 0.2848 0.2315
C69 C 0.2314(16) 0.3507(7) 0.2195(9)
C70 C 0.4727(10) 0.2768(5) 0.4163(7)
H45 H 0.5051 0.2773 0.4480
C71 C 0.5288(14) 0.2731(8) 0.3788(8)
C72 C 0.4055(12) 0.2428(5) 0.4154(8)
H46 H 0.3682 0.2458 0.3855
C73 C 0.4372(14) 0.1962(6) 0.4196(9)
C74 C 0.1362(16) 0.2708(9) 0.3375(8)
C75 C 0.1906(13) 0.2759(8) 0.3847(6)
H47 H 0.2155 0.2471 0.3922
C76 C 0.1492(13) 0.2885(7) 0.4273(7)
H48 H 0.1275 0.3182 0.4221
C77 C 0.0806(14) 0.2588(7) 0.4377(9)
C78 C 0.1658(17) 0.3142(8) 0.5721(9)
H49 H 0.1263 0.3300 0.5849
C79 C 0.5160(18) 0.2601(8) 0.5784(10)
H50 H 0.5710 0.2614 0.5905
C80 C 0.319(2) 0.2421(11) 0.6526(8)
H51 H 0.3163 0.2204 0.6295
C81 C 0.3965(10) -0.0279(6) 0.4961(6)
H52 H 0.4239 -0.0564 0.5003
C82 C 0.3440(12) -0.0267(8) 0.4476(6)
H53 H 0.3129 0.0007 0.4446
C83 C 0.3854(14) -0.0324(8) 0.4037(7)
C84 C 0.4596(14) 0.0084(7) 0.5053(9)
C85 C 0.0569(16) -0.1822(8) 0.4761(9)
H54 H 0.0118 -0.1955 0.4860
C86 C 0.4213(16) -0.1614(8) 0.4798(8)
H55 H 0.4761 -0.1655 0.4911
O12 O 0.2276(10) -0.2377(5) 0.4700(6)
C87 C 0.230(3) -0.2523(7) 0.4278(10)
H56 H 0.2433 -0.2340 0.4040
O13 O 0.212(2) -0.2928(7) 0.4191(9)
C88 C 0.4857(18) 0.1630(8) 0.0602(10)
O14 O 0.5589(17) 0.1611(9) 0.0860(9)
O15 O 0.2249(9) -0.1473(5) 0.4395(5)
O16 O 0.2669(9) -0.1190(4) 0.5322(5)
O17 O 0.1253(10) -0.0799(5) 0.4621(5)
O18 O 0.0316(10) -0.0853(5) 0.3820(6)
O19 O -0.0572(11) -0.0370(6) 0.4006(6)
O20 O 0.1768(9) -0.0002(5) 0.4858(5)
O21 O 0.2341(9) 0.0293(5) 0.5785(5)
O22 O 0.1802(10) -0.0570(4) 0.5676(6)
O23 O 0.2622(9) -0.2010(5) 0.5643(5)
O24 O 0.2773(11) -0.1806(5) 0.6395(6)
O25 O 0.1674(11) -0.0646(5) 0.6574(6)
O26 O 0.1196(14) -0.1322(6) 0.6524(7)
O27 O 0.0746(11) 0.0038(5) 0.6125(6)
O28 O 0.0595(10) 0.0407(5) 0.5458(6)
O29 O 0.3166(12) -0.0324(5) 0.6500(6)
O30 O 0.4015(10) 0.0180(5) 0.6275(5)
O31 O 0.2771(9) 0.0709(4) 0.5071(5)
O32 O 0.3678(10) 0.0983(5) 0.5863(6)
O33 O 0.3887(9) 0.1643(5) 0.5582(5)
O34 O 0.3126(9) 0.2513(5) 0.5440(5)
O35 O 0.3718(9) 0.3334(5) 0.5151(5)
O36 O 0.2565(9) 0.3059(5) 0.3822(5)
O37 O 0.3331(10) 0.3783(5) 0.3526(5)
O38 O 0.3017(9) 0.3813(5) 0.4454(5)
O39 O 0.3216(10) 0.4656(5) 0.4503(6)
O40 O 0.2942(11) 0.4701(5) 0.5238(6)
O41 O 0.3865(10) 0.3631(5) 0.6016(6)
O42 O 0.4272(11) 0.4280(5) 0.5834(6)
O43 O 0.3573(11) 0.4764(5) 0.3589(7)
O44 O 0.378(3) 0.5094(9) 0.2945(13)
O45 O 0.2097(11) 0.4430(5) 0.3725(6)
O46 O 0.1496(10) 0.3835(6) 0.3366(6)
O47 O 0.4536(10) 0.4223(5) 0.4254(6)
O48 O 0.5123(9) 0.3903(5) 0.3660(5)
O49 O 0.3364(10) 0.3084(5) 0.3023(5)
O50 O 0.4414(11) 0.3618(5) 0.2753(6)
O51 O 0.4235(11) 0.3395(6) 0.2023(6)
O52 O 0.3184(12) 0.3427(6) 0.1073(6)
O53 O 0.3352(13) 0.3104(6) 0.0168(6)
O54 O 0.2100(12) 0.2036(6) 0.0445(6)
O55 O 0.2467(13) 0.1667(6) -0.0393(6)
O56 O 0.2346(13) 0.2577(6) -0.0351(6)
O57 O 0.2233(14) 0.2646(7) -0.1282(7)
O58 O 0.2163(18) 0.3395(7) -0.1283(7)
O59 O 0.3693(14) 0.3867(7) -0.0141(7)
O60 O 0.3963(17) 0.3631(7) -0.0880(7)
O61 O 0.1075(14) 0.2099(6) -0.0979(7)
O62 O 0.0687(12) 0.1779(6) -0.0349(6)
O63 O 0.3618(16) 0.2167(7) -0.0914(7)
O64 O 0.4160(13) 0.1577(7) -0.0601(6)
O65 O 0.2733(12) 0.1227(6) 0.0379(6)
O66 O 0.2115(10) 0.0078(5) 0.0561(5)
O67 O 0.2281(11) -0.0596(6) 0.0010(6)
O68 O 0.2560(11) -0.1437(6) 0.0376(6)
O69 O 0.2794(10) -0.0665(5) 0.1010(6)
O70 O 0.3927(11) -0.0062(6) 0.1015(6)
O71 O 0.4399(15) -0.0153(8) 0.1783(8)
O72 O 0.3114(11) -0.1407(5) 0.1494(6)
O73 O 0.1988(11) -0.1875(5) 0.1916(6)
O74 O 0.1661(11) -0.1839(5) 0.0925(6)
O75 O 0.2523(12) -0.1774(6) -0.0486(6)
O76 O 0.275(3) -0.2420(10) -0.0188(9)
O77 O 0.1482(14) -0.2679(6) 0.0850(7)
O78 O 0.141(3) -0.2688(9) 0.0060(9)
O79 O 0.0480(15) -0.2314(7) 0.1455(7)
O80 O 0.0208(12) -0.1695(6) 0.1767(6)
O81 O 0.2949(14) -0.2475(6) 0.1395(7)
O82 O 0.3643(12) -0.2204(6) 0.2037(6)
O83 O 0.2359(10) -0.1172(5) 0.2417(5)
O84 O 0.1980(9) -0.0941(5) 0.3638(5)
O85 O 0.1014(10) -0.1617(5) 0.3490(5)
O86 O 0.1037(11) -0.1627(5) 0.2708(6)
O87 O 0.3223(9) -0.1562(5) 0.3583(5)
O88 O 0.3200(11) -0.1847(5) 0.2830(6)
O89 O 0.1544(10) -0.1058(5) 0.1515(5)
O90 O 0.1203(10) -0.0851(5) 0.0616(5)
O91 O 0.0311(10) -0.0148(5) 0.0435(6)
O92 O -0.0669(13) -0.0367(7) 0.0795(8)
O93 O 0.0609(11) -0.0858(5) 0.2155(6)
O94 O 0.0121(14) -0.0255(7) 0.1786(7)
O95 O 0.4072(11) -0.1318(6) 0.2312(6)
O96 O 0.5076(16) -0.1029(10) 0.1982(8)
O97 O 0.3664(13) -0.1073(7) -0.0249(7)
O98 O 0.4032(11) -0.0667(6) 0.0348(6)
O99 O 0.1173(13) -0.1297(6) -0.0429(6)
O100 O 0.0564(11) -0.0642(6) -0.0367(6)
O101 O 0.3401(10) 0.0156(6) 0.0017(5)
O102 O 0.3480(12) 0.0845(6) -0.0253(6)
O103 O 0.1193(10) 0.0214(5) -0.0266(5)
O104 O 0.1301(12) 0.0928(6) -0.0256(6)
O105 O 0.3689(12) 0.2063(6) 0.0230(6)
O106 O 0.3446(12) 0.2511(6) 0.0989(6)
O107 O 0.4468(13) 0.2482(6) 0.1782(6)
O108 O 0.4725(14) 0.1786(7) 0.1708(7)
O109 O 0.4492(13) 0.1331(7) 0.0367(7)
O110 O 0.1033(12) 0.1465(6) 0.0578(6)
O111 O 0.0510(18) 0.1799(8) 0.1155(9)
O112 O 0.1900(12) 0.2867(6) 0.0660(6)
O113 O 0.1095(12) 0.3057(6) 0.1329(6)
O114 O -0.0069(16) 0.2658(8) 0.1007(8)
O115 O 0.2236(15) 0.3868(7) 0.0209(7)
O116 O 0.1528(12) 0.3814(6) 0.0849(6)
O117 O 0.4643(14) 0.3662(7) 0.0640(7)
O118 O 0.4942(12) 0.3095(6) 0.1188(6)
O119 O 0.2756(12) 0.2923(6) 0.1714(6)
O120 O 0.2231(11) 0.3698(5) 0.2589(6)
O121 O 0.2140(12) 0.3701(6) 0.1783(6)
O122 O 0.4241(9) 0.3170(4) 0.4093(5)
O123 O 0.5071(10) 0.2971(5) 0.3414(6)
O124 O 0.5854(11) 0.2475(6) 0.3843(6)
O125 O 0.3637(9) 0.2544(5) 0.4538(5)
O126 O 0.4331(10) 0.1775(5) 0.4626(6)
O127 O 0.4719(12) 0.1748(5) 0.3904(6)
O128 O 0.1524(10) 0.2986(6) 0.3055(6)
O129 O 0.0893(14) 0.2423(7) 0.3300(7)
O130 O 0.2123(9) 0.2897(4) 0.4647(5)
O131 O 0.0992(9) 0.2298(5) 0.4696(5)
O132 O 0.0103(11) 0.2643(6) 0.4181(6)
O133 O 0.2302(10) 0.3321(5) 0.5729(6)
O134 O 0.1438(10) 0.2748(5) 0.5555(6)
O135 O 0.4665(10) 0.2823(5) 0.5966(6)
O136 O 0.4891(10) 0.2331(5) 0.5393(6)
O137 O 0.3353(10) 0.2870(6) 0.6442(6)
O138 O 0.310(2) 0.2354(9) 0.6960(7)
O139 O 0.2627(9) 0.1897(5) 0.4838(5)
O140 O 0.1536(10) 0.1154(5) 0.5489(5)
O141 O 0.1701(10) 0.1862(5) 0.5528(6)
O142 O 0.3375(9) -0.0244(4) 0.5300(5)
O143 O 0.2898(9) -0.0621(5) 0.4494(5)
O144 O 0.3788(9) -0.0679(5) 0.3833(5)
O145 O 0.4305(10) -0.0020(5) 0.3924(6)
O146 O 0.4452(10) 0.0393(5) 0.5353(6)
O147 O 0.5239(10) 0.0058(5) 0.4901(6)
O148 O 0.0982(10) 0.0701(5) 0.4619(6)
O149 O 0.0395(12) 0.0439(6) 0.3916(7)
O150 O 0.1235(10) -0.1805(5) 0.5073(6)
O151 O 0.0483(9) -0.1678(5) 0.4348(6)
O152 O 0.3693(10) -0.1867(5) 0.4985(6)
O153 O 0.4050(9) -0.1332(5) 0.4491(5)
Fe3 Fe 0.3052(2) -0.11244(11) 0.40825(12)
Fe4 Fe 0.1255(2) -0.12354(11) 0.40925(12)
Fe5 Fe 0.2471(2) -0.17661(11) 0.49655(12)
Fe6 Fe 0.2306(2) -0.05860(10) 0.50667(12)
Fe7 Fe 0.1665(2) 0.05379(11) 0.52355(13)
Fe8 Fe 0.3403(2) 0.03553(10) 0.56258(12)
Fe9 Fe 0.2002(2) -0.01235(11) 0.62212(13)
Fe10 Fe 0.3758(2) 0.21410(11) 0.50945(13)
Fe11 Fe 0.2047(2) 0.24095(11) 0.51218(12)
Fe12 Fe 0.3475(2) 0.30390(11) 0.57702(12)
Fe13 Fe 0.3213(2) 0.31553(11) 0.44682(12)
Fe14 Fe 0.2412(2) 0.34270(12) 0.32361(13)
Fe15 Fe 0.4231(2) 0.34460(11) 0.34386(12)
Fe16 Fe 0.3293(2) 0.42475(11) 0.39645(13)
Fe17 Fe 0.3852(3) 0.29979(14) 0.14496(13)
Fe18 Fe 0.2132(3) 0.33033(14) 0.11949(14)
Fe19 Fe 0.2823(3) 0.25436(14) 0.03406(13)
Fe20 Fe 0.1721(3) 0.15197(13) 0.00512(14)
Fe21 Fe 0.3473(3) 0.14848(15) -0.00650(14)
Fe22 Fe 0.1306(2) -0.03534(12) 0.01586(13)
Fe23 Fe 0.3093(2) -0.03037(14) 0.04804(14)
Fe24 Fe 0.2426(3) -0.11373(14) -0.02712(14)
Fe25 Fe 0.2149(2) -0.12241(12) 0.09773(12)
Fe26 Fe 0.3023(3) -0.16523(13) 0.21348(13)
Fe27 Fe 0.1282(3) -0.14029(13) 0.20735(13)
Fe28 Fe 0.1735(3) -0.23051(13) 0.14415(15)
O154 O 0.642(2) 0.0979(13) 0.1422(15)
O155 O 0.620(3) 0.2574(13) 0.2778(15)
Ba1 Ba 0.59448(11) 0.01639(6) 0.40921(7)
Ba2 Ba 0.73968(12) 0.22704(6) 0.36523(8)
Ba3 Ba 0.2536(2) 0.17075(8) 0.74716(8)
Ba4 Ba -0.0777(3) 0.11916(14) 0.09367(18)
Ba5 Ba 0.5889(3) 0.02611(17) 0.1623(2)
Ba6 Ba 0.6075(3) -0.1371(2) 0.28810(18)
Ba7 Ba 0.3977(5) 0.52913(19) 0.2081(2)
Ba8 Ba 0.2027(4) 0.02532(10) -0.21024(10)
O156 O 0.4965(15) -0.0801(10) 0.3148(8)
O157 O 0.4850(19) 0.0872(10) 0.4098(12)
O158 O 0.372(2) 0.1369(14) 0.6826(9)
O159 O 0.6190(17) -0.0416(10) 0.2409(10)
O160 O 0.146(2) 0.1786(11) 0.6535(9)
O161 O 0.6980(17) 0.1972(8) 0.4546(11)
O162 O 0.667(2) -0.1296(11) 0.1930(11)
O163 O 0.464(3) 0.0915(14) 0.1613(16)
O164 O 0.527(3) 0.0484(14) 0.0793(17)
O165 O 0.6226(19) 0.1636(10) 0.3415(12)
O166 O -0.0968(19) 0.1510(9) -0.0025(10)
O167 O -0.053(2) 0.0617(10) 0.0227(11)
O168 O 0.4904(17) -0.2052(11) 0.3052(8)
O169 O 0.732(2) -0.0026(14) 0.3537(14)
O170 O 0.068(2) 0.0698(13) 0.1466(14)
O171 O -0.114(2) 0.0458(9) 0.1276(12)
Ba9 Ba 0.1418(2) -0.33734(10) 0.49288(12)
O172 O 0.1292(11) -0.2688(7) 0.5556(7)
O173 O 0.0001(16) -0.3468(9) 0.5370(10)
O174 O 0.0198(14) -0.2835(8) 0.4485(9)
O175 O 0.1830(19) -0.3645(10) 0.5922(12)
O176 O 0.8804(10) 0.2735(6) 0.3396(7)
O177 O 0.778(2) -0.1680(11) 0.2799(13)
O178 O 0.250(2) 0.2588(12) 0.7821(12)
O179 O 0.411(2) 0.1381(12) 0.8009(13)
O180 O -0.1902(18) 0.1049(10) 0.0515(12)
O181 O 0.286(3) -0.0542(11) -0.2436(9)
Ba10 Ba 0.1110(6) -0.1258(3) -0.1977(3)
O182 O 0.1379(17) -0.2016(9) -0.2391(9)
O183 O -0.0321(17) -0.1903(10) -0.2178(10)
O184 O 0.1433(18) -0.1998(10) -0.1254(10)
O185 O 0.277(2) -0.3707(10) 0.4528(12)
O4_2 O 0.2118(19) 0.0877(6) -0.2791(8)
O5_2 O 0.2087(11) 0.0258(5) -0.3195(6)
O8_2 O 0.2272(14) 0.1752(6) 0.8529(6)
O9_2 O 0.219(2) 0.1100(6) 0.8190(7)
O23A O 0.7378(9) 0.2990(5) 0.4357(5)
O24A O 0.7227(11) 0.3194(5) 0.3605(6)
O40A O 0.7058(11) -0.0299(5) 0.4762(6)
O41A O 0.6135(10) -0.1369(5) 0.3984(6)
O42A O 0.5728(11) -0.0720(5) 0.4166(6)
O137A O 0.6647(10) -0.2130(6) 0.3558(6)
Ba1A Ba 0.40552(11) 0.51639(6) 0.59079(7)
Ba2A Ba 0.26032(12) -0.27296(6) 0.63477(8)
Ba3_2 Ba 0.2536(2) 0.17075(8) -0.25284(8)
Ba6A Ba 0.3925(3) 0.3629(2) 0.71190(18)
Ba8_2 Ba 0.2027(4) 0.02532(10) 0.78976(10)
O161A O 0.3020(17) -0.3028(8) 0.5454(11)
Ba9A Ba 0.8582(2) 0.16266(10) 0.50712(12)
O172A O 0.8708(11) 0.2312(7) 0.4444(7)
O175A O 0.8170(19) 0.1355(10) 0.4078(12)
O186 O 0.7069(14) 0.0786(6) 0.6612(9)
O187 O 0.5376(17) 0.0855(10) 0.6425(11)
O188 O 0.317(3) -0.2751(14) 0.3234(17)
O189 O -0.0612(13) 0.2267(8) 0.2692(7)
O190 O -0.334(2) 0.2328(13) 0.1066(14)
O191 O -0.332(3) 0.2019(17) 0.1998(18)
O192 O -0.352(3) 0.2893(16) 0.1962(17)
O193 O 0.076(2) 0.3807(12) 0.5003(13)
O194 O 0.0633(16) 0.4394(10) 0.4498(12)
O195 O 0.5850(16) 0.1659(9) 0.2450(7)
O196 O -0.2202(19) 0.1487(8) -0.1106(11)
O197 O -0.1299(15) -0.0091(10) 0.4750(10)
O198 O 0.552(3) -0.2060(13) 0.1349(11)
loop_
_geom_bond_atom_site_label_1
_geom_bond_atom_site_label_2
_geom_bond_site_symmetry_1
_geom_bond_site_symmetry_2
O1 Ba5 1_555 1_555
C1 H1 1_555 1_555
C2 H2 1_555 1_555
C3 C45 1_555 1_555
C4 C2 1_555 1_555
C5 H3 1_555 1_555
C6 C2 1_555 1_555
H4 C6 1_555 1_555
C7 C46 1_555 1_555
C8 C6 1_555 1_555
Fe1 O2 1_555 1_555
O2 C9 1_555 1_555
C9 H5 1_555 1_555
O3 C9 1_555 1_555
C10 H6 1_555 1_555
C11 C5 1_555 1_555
C12 C10 1_555 1_555
H7 C12 1_555 1_555
C13 C5 1_555 1_555
H8 C13 1_555 1_555
C14 C10 1_555 1_555
C15 C12 1_555 1_555
C16 H9 1_555 1_555
C17 H10 1_555 1_555
O4 C18 1_555 1_555
C18 H11 1_555 1_555
O5 C18 1_555 1_555
C19 H12 1_555 1_555
C20 C19 1_555 1_555
C21 C19 1_555 1_555
H13 C21 1_555 1_555
C22 C21 1_555 1_555
C23 C13 1_555 1_555
C24 H14 1_555 1_555
C25 H15 1_555 1_555
C26 H16 1_555 1_555
C27 C26 1_555 1_555
C28 H17 1_555 1_555
C29 C28 1_555 1_555
C30 C28 1_555 1_555
H18 C30 1_555 1_555
C31 C30 1_555 1_555
C32 H19 1_555 1_555
C33 H20 1_555 1_555
C34 H21 1_555 1_555
C35 C34 1_555 1_555
H22 C35 1_555 1_555
C36 H23 1_555 1_555
C37 C36 1_555 1_555
C38 C36 1_555 1_555
H24 C38 1_555 1_555
C39 H25 1_555 1_555
C40 C39 1_555 1_555
H26 C40 1_555 1_555
C41 C40 1_555 1_555
C42 C39 1_555 1_555
C43 H27 1_555 1_555
C44 H28 1_555 1_555
C45 H29 1_555 1_555
C46 C45 1_555 1_555
H30 C46 1_555 1_555
O6 C47 1_555 1_555
C47 H31 1_555 1_555
O7 C47 1_555 1_555
Fe2 O8 1_555 1_555
O8 C48 1_555 1_555
C48 H32 1_555 1_555
O9 C48 1_555 1_555
C49 H33 1_555 1_555
C50 C1 1_555 1_555
H34 C50 1_555 1_555
C51 C50 1_555 1_555
C52 C1 1_555 1_555
C53 C38 1_555 1_555
C54 H35 1_555 1_555
C55 H36 1_555 1_555
O10 C56 1_555 1_555
C56 H37 1_555 1_555
O11 C56 1_555 1_555
C57 C34 1_555 1_555
C58 C35 1_555 1_555
C59 H38 1_555 1_555
C60 C59 1_555 1_555
H39 C60 1_555 1_555
C61 C60 1_555 1_555
C62 C63 1_555 1_555
C63 H40 1_555 1_555
C64 C63 1_555 1_555
H41 C64 1_555 1_555
C65 C64 1_555 1_555
C66 H42 1_555 1_555
C67 H43 1_555 1_555
C68 C26 1_555 1_555
H44 C68 1_555 1_555
C69 C68 1_555 1_555
C70 H45 1_555 1_555
C71 C70 1_555 1_555
C72 C70 1_555 1_555
H46 C72 1_555 1_555
C73 C72 1_555 1_555
C74 C75 1_555 1_555
C75 H47 1_555 1_555
C76 C75 1_555 1_555
H48 C76 1_555 1_555
C77 C76 1_555 1_555
C78 H49 1_555 1_555
C79 H50 1_555 1_555
C80 H51 1_555 1_555
C81 H52 1_555 1_555
C82 C81 1_555 1_555
H53 C82 1_555 1_555
C83 C82 1_555 1_555
C84 C81 1_555 1_555
C85 H54 1_555 1_555
C86 H55 1_555 1_555
O12 C87 1_555 1_555
C87 H56 1_555 1_555
O13 C87 1_555 1_555
C88 C59 1_555 1_555
O14 C88 1_555 1_555
O15 Fe3 1_555 1_555
O16 C10 1_555 1_555
O17 C2 1_555 1_555
O18 C4 1_555 1_555
O19 C4 1_555 1_555
O20 C6 1_555 1_555
O21 Fe7 1_555 1_555
O22 C12 1_555 1_555
O23 C14 1_555 1_555
O24 C14 1_555 1_555
O25 C15 1_555 1_555
O26 C15 1_555 1_555
O27 C16 1_555 1_555
O28 C16 1_555 1_555
O29 C17 1_555 1_555
O30 C17 1_555 1_555
O31 C19 1_555 1_555
O32 C20 1_555 1_555
O33 C20 1_555 1_555
O34 Fe10 1_555 1_555
O35 C13 1_555 1_555
O36 C75 1_555 1_555
O37 Fe14 1_555 1_555
O38 C5 1_555 1_555
O39 C11 1_555 1_555
O40 C11 1_555 1_555
O41 C23 1_555 1_555
O42 C23 1_555 1_555
O43 C49 1_555 1_555
O44 C49 1_555 1_555
O45 C24 1_555 1_555
O46 C24 1_555 1_555
O47 C25 1_555 1_555
O48 C25 1_555 1_555
O49 C26 1_555 1_555
O50 C27 1_555 1_555
O51 C27 1_555 1_555
O52 Fe1 1_555 1_555
O53 Fe1 1_555 1_555
O54 C63 1_555 1_555
O55 Fe2 1_555 1_555
O56 C28 1_555 1_555
O57 C29 1_555 1_555
O58 C29 1_555 1_555
O59 Fe1 1_555 1_555
O60 C31 1_555 1_555
O61 C32 1_555 1_555
O62 C32 1_555 1_555
O63 C33 1_555 1_555
O64 C33 1_555 1_555
O65 C34 1_555 1_555
O66 C35 1_555 1_555
O67 Fe22 1_555 1_555
O68 C40 1_555 1_555
O69 C36 1_555 1_555
O70 C37 1_555 1_555
O71 C37 1_555 1_555
O72 C38 1_555 1_555
O73 Fe26 1_555 1_555
O74 C39 1_555 1_555
O75 C41 1_555 1_555
O76 C41 1_555 1_555
O77 C42 1_555 1_555
O78 C42 1_555 1_555
O79 C43 1_555 1_555
O80 C43 1_555 1_555
O81 C44 1_555 1_555
O82 C44 1_555 1_555
O83 C45 1_555 1_555
O84 C46 1_555 1_555
O85 C7 1_555 1_555
O86 C7 1_555 1_555
O87 C3 1_555 1_555
O88 C3 1_555 1_555
O89 C1 1_555 1_555
O90 C50 1_555 1_555
O91 C51 1_555 1_555
O92 C51 1_555 1_555
O93 C52 1_555 1_555
O94 C52 1_555 1_555
O95 C53 1_555 1_555
O96 C53 1_555 1_555
O97 C54 1_555 1_555
O98 C54 1_555 1_555
O99 C55 1_555 1_555
O100 C55 1_555 1_555
O101 C57 1_555 1_555
O102 C57 1_555 1_555
O103 C58 1_555 1_555
O104 C58 1_555 1_555
O105 C59 1_555 1_555
O106 C60 1_555 1_555
O107 C61 1_555 1_555
O108 C61 1_555 1_555
O109 C88 1_555 1_555
O110 C62 1_555 1_555
O111 C62 1_555 1_555
O112 C64 1_555 1_555
O113 C65 1_555 1_555
O114 C65 1_555 1_555
O115 Fe1 1_555 1_555
O116 C66 1_555 1_555
O117 Fe1 1_555 1_555
O118 C67 1_555 1_555
O119 C68 1_555 1_555
O120 C69 1_555 1_555
O121 C69 1_555 1_555
O122 C70 1_555 1_555
O123 C71 1_555 1_555
O124 C71 1_555 1_555
O125 C72 1_555 1_555
O126 C73 1_555 1_555
O127 C73 1_555 1_555
O128 C74 1_555 1_555
O129 C74 1_555 1_555
O130 C76 1_555 1_555
O131 C77 1_555 1_555
O132 C77 1_555 1_555
O133 C78 1_555 1_555
O134 C78 1_555 1_555
O135 C79 1_555 1_555
O136 C79 1_555 1_555
O137 C80 1_555 1_555
O138 C80 1_555 1_555
O139 C21 1_555 1_555
O140 C22 1_555 1_555
O141 C22 1_555 1_555
O142 C81 1_555 1_555
O143 C82 1_555 1_555
O144 C83 1_555 1_555
O145 C83 1_555 1_555
O146 C84 1_555 1_555
O147 C84 1_555 1_555
O148 C8 1_555 1_555
O149 C8 1_555 1_555
O150 C85 1_555 1_555
O151 C85 1_555 1_555
O152 C86 1_555 1_555
O153 C86 1_555 1_555
Fe3 O84 1_555 1_555
Fe4 O15 1_555 1_555
Fe5 O12 1_555 1_555
Fe6 O16 1_555 1_555
Fe7 O20 1_555 1_555
Fe8 O21 1_555 1_555
Fe9 O5 1_555 1_555
Fe10 O33 1_555 1_555
Fe11 O34 1_555 1_555
Fe12 O34 1_555 1_555
Fe13 O35 1_555 1_555
Fe14 O36 1_555 1_555
Fe15 O37 1_555 1_555
Fe16 O37 1_555 1_555
Fe17 O51 1_555 1_555
Fe18 O52 1_555 1_555
Fe19 O53 1_555 1_555
Fe20 O54 1_555 1_555
Fe21 O55 1_555 1_555
Fe22 O66 1_555 1_555
Fe23 O66 1_555 1_555
Fe24 O10 1_555 1_555
Fe25 O68 1_555 1_555
Fe26 O72 1_555 1_555
Fe27 O73 1_555 1_555
Fe28 O6 1_555 1_555
O154 Ba5 1_555 1_555
O155 Ba2 1_555 1_555
Ba1 O145 1_555 1_555
Ba2 O124 1_555 1_555
Ba3 O4 1_555 1_555
Ba4 O111 1_555 1_555
Ba5 O71 1_555 1_555
Ba6 O96 1_555 1_555
Ba7 O3 1_555 1_555
Ba8 O9 1_555 1_555
O156 Ba6 1_555 1_555
O157 Ba1 1_555 1_555
O158 Ba3 1_555 1_555
O159 Ba5 1_555 1_555
O160 Ba3 1_555 1_555
O161 Ba2 1_555 1_555
O162 Ba6 1_555 1_555
O163 Ba5 1_555 1_555
O164 Ba5 1_555 1_555
O165 Ba2 1_555 1_555
O166 Ba4 1_555 1_555
O167 Ba4 1_555 1_555
O168 Ba6 1_555 1_555
O169 Ba1 1_555 1_555
O170 Ba4 1_555 1_555
O171 Ba4 1_555 1_555
Ba9 O13 1_555 1_555
O172 Ba9 1_555 1_555
O173 Ba9 1_555 1_555
O174 Ba9 1_555 1_555
O175 Ba9 1_555 1_555
O176 Ba2 1_555 1_555
O177 Ba6 1_555 1_555
O178 Ba3 1_555 1_555
O179 Ba3 1_555 1_555
O180 Ba4 1_555 1_555
O181 Ba8 1_555 1_555
Ba10 O11 1_555 1_555
O182 Ba10 1_555 1_555
O183 Ba10 1_555 1_555
O184 Ba10 1_555 1_555
O185 Ba9 1_555 1_555
O4_2 Ba8 1_555 1_555
O5_2 Ba8 1_555 1_555
O8_2 Ba3 1_555 1_555
O9_2 Ba3 1_555 1_555
O23A Ba2 1_555 1_555
O24A Ba2 1_555 1_555
O40A Ba1 1_555 1_555
O41A Ba6 1_555 1_555
O42A Ba1 1_555 1_555
O137A Ba6 1_555 1_555
Ba1A O40 1_555 1_555
Ba2A O23 1_555 1_555
Ba3_2 O8 1_555 1_555
Ba6A O41 1_555 1_555
Ba8_2 O4 1_555 1_555
O161A Ba9 1_555 1_555
Ba9A O161 1_555 1_555
O172A Ba2 1_555 1_555
O175A Ba2 1_555 1_555
O5 Ba8_2 1_555 1_555
C30 O53 1_555 1_555
C31 O59 1_555 1_555
Fe2 O56 1_555 1_555
Fe2 O57 1_555 1_555
Fe2 O61 1_555 1_555
Fe2 O63 1_555 1_555
O9 Ba3_2 1_555 1_555
O11 Ba8 1_555 1_555
C66 O115 1_555 1_555
C67 O117 1_555 1_555
O15 Fe5 1_555 1_555
O16 Fe5 1_555 1_555
O17 Fe4 1_555 1_555
O17 Fe6 1_555 1_555
O18 Fe4 1_555 1_555
O20 Fe6 1_555 1_555
O21 Fe9 1_555 1_555
O22 Fe6 1_555 1_555
O22 Fe9 1_555 1_555
O23 Fe5 1_555 1_555
O24 Ba2A 1_555 1_555
O25 Fe9 1_555 1_555
O27 Fe9 1_555 1_555
O28 Fe7 1_555 1_555
O29 Fe9 1_555 1_555
O30 Fe8 1_555 1_555
O31 Fe7 1_555 1_555
O31 Fe8 1_555 1_555
O32 Fe8 1_555 1_555
O35 Fe12 1_555 1_555
O36 Fe13 1_555 1_555
O38 Fe13 1_555 1_555
O38 Fe16 1_555 1_555
O39 Fe16 1_555 1_555
O41 Fe12 1_555 1_555
O42 Ba1A 1_555 1_555
O43 Fe16 1_555 1_555
O44 Ba7 1_555 1_555
O45 Fe16 1_555 1_555
O46 Fe14 1_555 1_555
O47 Fe16 1_555 1_555
O48 Fe15 1_555 1_555
O49 Fe14 1_555 1_555
O49 Fe15 1_555 1_555
O50 Fe15 1_555 1_555
O52 Fe17 1_555 1_555
O54 Fe19 1_555 1_555
O55 Fe20 1_555 1_555
O56 Fe19 1_555 1_555
O62 Fe20 1_555 1_555
O64 Fe21 1_555 1_555
O65 Fe20 1_555 1_555
O65 Fe21 1_555 1_555
O67 Fe23 1_555 1_555
O67 Fe24 1_555 1_555
O68 Fe24 1_555 1_555
O69 Fe23 1_555 1_555
O69 Fe25 1_555 1_555
O70 Fe23 1_555 1_555
O72 Fe25 1_555 1_555
O73 Fe28 1_555 1_555
O74 Fe25 1_555 1_555
O74 Fe28 1_555 1_555
O75 Fe24 1_555 1_555
O77 Fe28 1_555 1_555
O79 Fe28 1_555 1_555
O80 Fe27 1_555 1_555
O81 Fe28 1_555 1_555
O82 Fe26 1_555 1_555
O83 Fe26 1_555 1_555
O83 Fe27 1_555 1_555
O84 Fe4 1_555 1_555
O85 Fe4 1_555 1_555
O86 Fe27 1_555 1_555
O87 Fe3 1_555 1_555
O88 Fe26 1_555 1_555
O89 Fe25 1_555 1_555
O89 Fe27 1_555 1_555
O90 Fe22 1_555 1_555
O90 Fe25 1_555 1_555
O91 Fe22 1_555 1_555
O93 Fe27 1_555 1_555
O95 Fe26 1_555 1_555
O97 Fe24 1_555 1_555
O98 Fe23 1_555 1_555
O99 Fe24 1_555 1_555
O100 Fe22 1_555 1_555
O101 Fe23 1_555 1_555
O102 Fe21 1_555 1_555
O103 Fe22 1_555 1_555
O104 Fe20 1_555 1_555
O105 Fe19 1_555 1_555
O105 Fe21 1_555 1_555
O106 Fe17 1_555 1_555
O106 Fe19 1_555 1_555
O107 Fe17 1_555 1_555
O109 Fe21 1_555 1_555
O110 Fe20 1_555 1_555
O112 Fe18 1_555 1_555
O112 Fe19 1_555 1_555
O113 Fe18 1_555 1_555
O116 Fe18 1_555 1_555
O118 Fe17 1_555 1_555
O119 Fe17 1_555 1_555
O119 Fe18 1_555 1_555
O120 Fe14 1_555 1_555
O121 Fe18 1_555 1_555
O122 Fe13 1_555 1_555
O122 Fe15 1_555 1_555
O123 Fe15 1_555 1_555
O125 Fe10 1_555 1_555
O125 Fe13 1_555 1_555
O126 Fe10 1_555 1_555
O128 Fe14 1_555 1_555
O130 Fe11 1_555 1_555
O130 Fe13 1_555 1_555
O131 Fe11 1_555 1_555
O133 Fe12 1_555 1_555
O134 Fe11 1_555 1_555
O135 Fe12 1_555 1_555
O136 Fe10 1_555 1_555
O137 Fe12 1_555 1_555
O137 Ba6A 1_555 1_555
O138 Ba3 1_555 1_555
O139 Fe10 1_555 1_555
O139 Fe11 1_555 1_555
O140 Fe7 1_555 1_555
O141 Fe11 1_555 1_555
O142 Fe6 1_555 1_555
O142 Fe8 1_555 1_555
O143 Fe3 1_555 1_555
O143 Fe6 1_555 1_555
O144 Fe3 1_555 1_555
O146 Fe8 1_555 1_555
O147 Ba1 1_555 1_555
O148 Fe7 1_555 1_555
O150 Fe5 1_555 1_555
O151 Fe4 1_555 1_555
O152 Fe5 1_555 1_555
O153 Fe3 1_555 1_555
Ba6 O159 1_555 1_555
O172 Ba2A 1_555 1_555
O175 Ba2A 1_555 1_555
O4_2 Ba3_2 1_555 1_555
O9_2 Ba8_2 1_555 1_555
Ba2A O161A 1_555 1_555
Ba9A O172A 1_555 1_555
Ba9A O175A 1_555 1_555

#END
