
#######################################################################
#
#                 Cambridge Crystallographic Data Centre
#                                CCDC 
#
#######################################################################
#
# If this CIF has been generated from an entry in the Cambridge 
# Structural Database, then it will include bibliographic, chemical, 
# crystal, experimental, refinement or atomic coordinate data resulting 
# from the CCDC's data processing and validation procedures.
#
#######################################################################

data_PAKXIK
_chemical_formula_moiety         '(C48 H56 Cd3 N6 O20)n'
_symmetry_cell_setting           triclinic
_symmetry_space_group_name_H-M   'P -1'
_symmetry_Int_Tables_number      2
_space_group_name_Hall           '-P 1'
loop_
_symmetry_equiv_pos_site_id
_symmetry_equiv_pos_as_xyz
1 x,y,z
2 -x,-y,-z
_cell_length_a                   12.6784(9)
_cell_length_b                   13.5433(9)
_cell_length_c                   17.1322(12)
_cell_angle_alpha                77.8390(10)
_cell_angle_beta                 76.4040(10)
_cell_angle_gamma                80.6140(10)
_cell_volume                     2775.09
loop_
_atom_site_label
_atom_site_type_symbol
_atom_site_fract_x
_atom_site_fract_y
_atom_site_fract_z
Cd1 Cd 0.52168(4) 0.47243(3) 0.26101(3)
Cd2 Cd 0.27934(4) -0.24598(4) 0.75882(3)
Cd3 Cd 0.28075(4) 0.69941(4) 0.25095(3)
C1 C 0.3052(5) 0.4609(5) 0.2404(4)
C2 C 0.2023(5) 0.4208(5) 0.2377(4)
C3 C 0.1630(5) 0.3441(5) 0.2993(4)
H1 H 0.1992 0.3204 0.3422
C4 C 0.0718(5) 0.3016(5) 0.2991(4)
H2 H 0.0456 0.2514 0.3422
C5 C 0.0188(5) 0.3346(5) 0.2336(4)
C6 C 0.0587(5) 0.4113(5) 0.1714(4)
H3 H 0.0238 0.4329 0.1277
C7 C 0.1481(5) 0.4568(5) 0.1719(4)
C8 C -0.0827(5) 0.2923(5) 0.2323(4)
C9 C 0.1832(5) 0.5412(5) 0.1033(4)
C10 C 0.2536(5) 0.5184(5) 0.0325(4)
H4 H 0.2785 0.4508 0.0285
C11 C 0.2879(5) 0.5952(5) -0.0332(4)
C12 C 0.2511(5) 0.6955(5) -0.0269(4)
H5 H 0.2745 0.7473 -0.0696
C13 C 0.1793(6) 0.7190(5) 0.0430(4)
H6 H 0.1539 0.7865 0.0468
C14 C 0.1450(5) 0.6419(5) 0.1074(4)
C15 C 0.3651(5) 0.5680(5) -0.1083(4)
C16 C 0.0697(5) 0.6733(5) 0.1827(4)
C17 C 0.4272(6) 0.7272(5) 0.0754(4)
H7 H 0.4363 0.6565 0.0874
C18 C 0.4710(10) 0.8809(7) -0.0169(7)
H8 H 0.4096 0.9058 -0.0424
H9 H 0.5367 0.9004 -0.0541
H10 H 0.4612 0.9094 0.0315
C19 C 0.5452(7) 0.7150(7) -0.0562(5)
H11 H 0.5461 0.6434 -0.0349
H12 H 0.6184 0.7327 -0.0696
H13 H 0.5149 0.7313 -0.1043
C20 C 0.2594(6) 0.5716(5) 0.4287(4)
H14 H 0.3341 0.5558 0.4101
C21 C 0.1009(7) 0.5557(9) 0.5395(6)
H15 H 0.0637 0.5917 0.4972
H16 H 0.0925 0.5970 0.5802
H17 H 0.0703 0.4933 0.5640
C22 C 0.2828(7) 0.4687(6) 0.5590(5)
H18 H 0.2602 0.4018 0.5735
H19 H 0.2728 0.4973 0.6073
H20 H 0.3585 0.4647 0.5322
C23 C 0.5831(6) 0.3550(5) 0.4009(4)
C24 C 0.6203(5) 0.2849(5) 0.4723(4)
C25 C 0.5462(6) 0.2626(5) 0.5454(4)
H21 H 0.4742 0.2926 0.5498
C26 C 0.5766(5) 0.1970(5) 0.6119(4)
C27 C 0.6876(6) 0.1546(5) 0.6048(4)
C28 C 0.7617(6) 0.1769(5) 0.5314(4)
H22 H 0.8345 0.1491 0.5271
C29 C 0.7286(6) 0.2395(5) 0.4652(4)
H23 H 0.7782 0.2517 0.4157
C30 C 0.7270(6) 0.0932(5) 0.6774(4)
C31 C 0.7271(9) -0.0658(6) 0.6282(5)
H24 H 0.6950 -0.0213 0.5862
H25 H 0.6800 -0.1168 0.6559
H26 H 0.7969 -0.0980 0.6041
C32 C 0.7780(10) -0.0674(7) 0.7587(6)
H27 H 0.8557 -0.0856 0.7455
H28 H 0.7424 -0.1280 0.7762
H29 H 0.7601 -0.0283 0.8017
C33 C 0.4555(5) 0.3331(5) 0.7323(4)
C34 C 0.4387(5) 0.2235(5) 0.7425(4)
C35 C 0.3600(6) 0.1857(5) 0.8087(4)
H30 H 0.3246 0.2264 0.8468
C36 C 0.3340(6) 0.0883(5) 0.8182(4)
H31 H 0.2829 0.0629 0.8636
C37 C 0.3834(6) 0.0287(5) 0.7608(4)
C38 C 0.4644(6) 0.0654(5) 0.6960(4)
H32 H 0.5000 0.0238 0.6586
C39 C 0.4933(5) 0.1620(5) 0.6858(4)
C40 C 0.3450(6) -0.0719(5) 0.7648(4)
C41 C -0.1088(7) 0.6972(7) 0.2668(5)
H33 H -0.0734 0.6755 0.3124
H34 H -0.1746 0.6658 0.2778
H35 H -0.1263 0.7698 0.2582
C42 C -0.0886(7) 0.6448(7) 0.1319(5)
H36 H -0.1344 0.7043 0.1126
H37 H -0.1322 0.5902 0.1564
H38 H -0.0336 0.6253 0.0870
N1 N 0.4790(5) 0.7717(5) 0.0046(4)
N2 N 0.2174(5) 0.5329(5) 0.5043(3)
N3 N -0.0353(5) 0.6673(5) 0.1934(4)
N4 N 0.7414(6) -0.0069(5) 0.6866(4)
O1 O 0.1068(4) 0.7060(4) 0.2320(3)
O2 O 0.3247(4) 0.5481(3) 0.2035(3)
O3 O 0.3680(4) 0.4020(4) 0.2810(3)
O4 O 0.3849(5) -0.1192(4) 0.7050(3)
O5 O 0.2721(4) -0.1044(4) 0.8228(3)
O6 O 0.4976(4) 0.4139(4) 0.4111(3)
O7 O 0.6424(4) 0.3525(3) 0.3298(3)
O8 O 0.4045(4) 0.4800(4) -0.1117(3)
O9 O 0.3875(4) 0.6399(4) -0.1698(3)
O10 O -0.1146(4) 0.2189(3) 0.2863(3)
O11 O -0.1338(4) 0.3343(4) 0.1775(3)
O12 O 0.5522(4) 0.3575(3) 0.7136(3)
O13 O 0.3751(4) 0.3969(4) 0.7430(3)
O14 O 0.2074(4) 0.6275(4) 0.3801(3)
O15 O 0.3664(4) 0.7739(4) 0.1274(3)
O16 O 0.7463(4) 0.1366(4) 0.7290(3)
Cd1A Cd 0.47832(4) 0.52757(3) -0.26101(3)
Cd1A_2 Cd 0.47832(4) 0.52757(3) 0.73899(3)
Cd2A Cd 0.72066(4) 0.24598(4) 0.24118(3)
Cd2_2 Cd 0.27934(4) 0.75402(4) -0.24118(3)
Cd2A_2 Cd -0.27934(4) 0.24598(4) 0.24118(3)
Cd3A Cd 0.71925(4) 0.30059(4) 0.74905(3)
O7A O 0.3576(4) -0.3525(3) 0.6702(3)
O8A O 0.5955(4) 0.5200(4) 0.1117(3)
O9A O 0.6125(4) 0.3601(4) 0.1698(3)
O9_2 O 0.3875(4) -0.3601(4) 0.8302(3)
O10A O 0.1146(4) -0.2189(3) 0.7137(3)
O11A O 0.1338(4) -0.3343(4) 0.8225(3)
O12A O 0.4478(4) 0.6425(3) 0.2864(3)
O13A O 0.6249(4) 0.6031(4) 0.2570(3)
O16A O 0.2537(4) 0.8634(4) 0.2710(3)
C43 C 1.0117(16) 1.0347(18) 0.8781(15)
H39 H 1.0152 1.0595 0.8209
H40 H 1.0824 1.0025 0.8866
H41 H 0.9893 1.0904 0.9072
C44 C 0.9740(17) 0.8584(13) 0.9254(13)
H42 H 0.9166 0.8164 0.9351
H43 H 1.0050 0.8469 0.9730
H44 H 1.0297 0.8418 0.8798
C45 C 0.8289(10) 1.0002(11) 0.9347(9)
H45 H 0.8025 1.0686 0.9225
N6 N 0.9318(10) 0.9601(10) 0.9084(7)
O17 O 0.7751(14) 0.9343(15) 0.9767(11)
C46 C 0.2288(16) 0.0799(18) 0.5969(13)
H46 H 0.2365 0.0620 0.6527
H47 H 0.2640 0.1395 0.5709
H48 H 0.2620 0.0246 0.5689
C47 C 0.0569(14) 0.1973(12) 0.5614(10)
H49 H 0.0220 0.1881 0.5198
H50 H 0.1089 0.2452 0.5383
H51 H 0.0028 0.2226 0.6043
C48 C 0.040(2) 0.035(2) 0.6244(16)
H52 H 0.0075 0.0179 0.6793
N5 N 0.1124(15) 0.1007(14) 0.5942(10)
O18 O 0.0210(19) -0.0047(14) 0.5629(12)
O19 O 0.3127(9) 0.2605(9) 0.4602(7)
O20 O 0.4847(9) 0.0887(8) 0.4587(6)
loop_
_geom_bond_atom_site_label_1
_geom_bond_atom_site_label_2
_geom_bond_site_symmetry_1
_geom_bond_site_symmetry_2
Cd1 O3 1_555 1_555
Cd2 O4 1_555 1_555
Cd3 O1 1_555 1_555
C1 C2 1_555 1_555
C2 C3 1_555 1_555
C3 H1 1_555 1_555
C4 C3 1_555 1_555
H2 C4 1_555 1_555
C5 C4 1_555 1_555
C6 C5 1_555 1_555
H3 C6 1_555 1_555
C7 C2 1_555 1_555
C8 C5 1_555 1_555
C9 C7 1_555 1_555
C10 C9 1_555 1_555
H4 C10 1_555 1_555
C11 C10 1_555 1_555
C12 C11 1_555 1_555
H5 C12 1_555 1_555
C13 C12 1_555 1_555
H6 C13 1_555 1_555
C14 C9 1_555 1_555
C15 C11 1_555 1_555
C16 C14 1_555 1_555
C17 H7 1_555 1_555
C18 H8 1_555 1_555
H9 C18 1_555 1_555
H10 C18 1_555 1_555
C19 H11 1_555 1_555
H12 C19 1_555 1_555
H13 C19 1_555 1_555
C20 H14 1_555 1_555
C21 H15 1_555 1_555
H16 C21 1_555 1_555
H17 C21 1_555 1_555
C22 H18 1_555 1_555
H19 C22 1_555 1_555
H20 C22 1_555 1_555
C23 C24 1_555 1_555
C24 C25 1_555 1_555
C25 H21 1_555 1_555
C26 C25 1_555 1_555
C27 C26 1_555 1_555
C28 C27 1_555 1_555
H22 C28 1_555 1_555
C29 C24 1_555 1_555
H23 C29 1_555 1_555
C30 C27 1_555 1_555
C31 H24 1_555 1_555
H25 C31 1_555 1_555
H26 C31 1_555 1_555
C32 H27 1_555 1_555
H28 C32 1_555 1_555
H29 C32 1_555 1_555
C33 C34 1_555 1_555
C34 C35 1_555 1_555
C35 H30 1_555 1_555
C36 C35 1_555 1_555
H31 C36 1_555 1_555
C37 C36 1_555 1_555
C38 C37 1_555 1_555
H32 C38 1_555 1_555
C39 C26 1_555 1_555
C40 C37 1_555 1_555
C41 H33 1_555 1_555
H34 C41 1_555 1_555
H35 C41 1_555 1_555
C42 H36 1_555 1_555
H37 C42 1_555 1_555
H38 C42 1_555 1_555
C43 H39 1_555 1_555
H40 C43 1_555 1_555
H41 C43 1_555 1_555
C44 H42 1_555 1_555
H43 C44 1_555 1_555
H44 C44 1_555 1_555
C45 H45 1_555 1_555
C46 H46 1_555 1_555
H47 C46 1_555 1_555
H48 C46 1_555 1_555
C47 H49 1_555 1_555
H50 C47 1_555 1_555
H51 C47 1_555 1_555
C48 H52 1_555 1_555
N1 C17 1_555 1_555
N2 C20 1_555 1_555
N3 C16 1_555 1_555
N4 C30 1_555 1_555
N5 C46 1_555 1_555
N6 C43 1_555 1_555
O1 C16 1_555 1_555
O2 Cd3 1_555 1_555
O3 C1 1_555 1_555
O4 C40 1_555 1_555
O5 Cd2 1_555 1_555
O6 Cd1 1_555 1_555
O7 Cd1 1_555 1_555
O8 C15 1_555 1_555
O9 C15 1_555 1_555
O10 C8 1_555 1_555
O11 C8 1_555 1_555
O12 C33 1_555 1_555
O13 C33 1_555 1_555
O14 Cd3 1_555 1_555
O15 Cd3 1_555 1_555
O16 C30 1_555 1_555
O17 C45 1_555 1_555
O18 C48 1_555 1_555
Cd1A O8 1_555 1_555
Cd1A_2 O12 1_555 1_555
Cd2A O7 1_555 1_555
Cd2_2 O9 1_555 1_555
Cd2A_2 O10 1_555 1_555
Cd3A O12 1_555 1_555
O7A Cd2 1_555 1_555
O8A Cd1 1_555 1_555
O9A Cd1 1_555 1_555
O9_2 Cd2 1_555 1_555
O10A Cd2 1_555 1_555
O11A Cd2 1_555 1_555
O12A Cd1 1_555 1_555
O13A Cd1 1_555 1_555
O16A Cd3 1_555 1_555
Cd3 O12A 1_555 1_555
C1 O2 1_555 1_555
C6 C7 1_555 1_555
C13 C14 1_555 1_555
C17 O15 1_555 1_555
C18 N1 1_555 1_555
C19 N1 1_555 1_555
C20 O14 1_555 1_555
C21 N2 1_555 1_555
C22 N2 1_555 1_555
C23 O6 1_555 1_555
C23 O7 1_555 1_555
C28 C29 1_555 1_555
C31 N4 1_555 1_555
C32 N4 1_555 1_555
C34 C39 1_555 1_555
C38 C39 1_555 1_555
C40 O5 1_555 1_555
C41 N3 1_555 1_555
C42 N3 1_555 1_555
C44 N6 1_555 1_555
C45 N6 1_555 1_555
C47 N5 1_555 1_555
C48 N5 1_555 1_555
O9 Cd1A 1_555 1_555
O11 Cd2A_2 1_555 1_555
O13 Cd1A_2 1_555 1_555
O16 Cd3A 1_555 1_555
Cd2A O9A 1_555 1_555

#END
