
#######################################################################
#
#                 Cambridge Crystallographic Data Centre
#                                CCDC 
#
#######################################################################
#
# If this CIF has been generated from an entry in the Cambridge 
# Structural Database, then it will include bibliographic, chemical, 
# crystal, experimental, refinement or atomic coordinate data resulting 
# from the CCDC's data processing and validation procedures.
#
#######################################################################

data_HURFUX
_chemical_formula_moiety         '(C39 H43 N13 O15 Zn5)n'
_symmetry_cell_setting           orthorhombic
_symmetry_space_group_name_H-M   'P n m a'
_symmetry_Int_Tables_number      62
_space_group_name_Hall           '-P 2ac 2n'
loop_
_symmetry_equiv_pos_site_id
_symmetry_equiv_pos_as_xyz
1 x,y,z
2 1/2-x,-y,1/2+z
3 -x,1/2+y,-z
4 1/2+x,1/2-y,1/2-z
5 -x,-y,-z
6 1/2+x,y,1/2-z
7 x,1/2-y,z
8 1/2-x,1/2+y,1/2+z
_cell_length_a                   15.4115(16)
_cell_length_b                   19.185(2)
_cell_length_c                   25.471(3)
_cell_angle_alpha                90
_cell_angle_beta                 90
_cell_angle_gamma                90
_cell_volume                     7531
loop_
_atom_site_label
_atom_site_type_symbol
_atom_site_fract_x
_atom_site_fract_y
_atom_site_fract_z
Zn1 Zn 0.93733(4) 0.16212(3) 0.23122(2)
Zn2 Zn 0.97166(4) 0.03581(3) 0.45095(2)
Zn3 Zn 0.80809(5) 0.2500 0.30813(3)
N1 N 0.9245(3) 0.1309(2) 0.30655(14)
N2 N 0.8650(2) 0.1653(2) 0.33750(16)
N3 N 0.9282(3) 0.0848(2) 0.38542(16)
N4 N 1.0505(3) 0.2137(2) 0.21981(17)
N5 N 1.1821(4) 0.2500 0.1997(2)
N6 N 1.026(2) 0.2500 0.7124(7)
H1 H 1.0277 0.2888 0.7293
N7 N 0.9553(19) -0.0868(16) 0.0270(17)
H2 H 1.0064 -0.0888 0.0405
H3 H 0.9430 -0.1117 -0.0001
O1 O 0.9861(3) 0.12080(19) 0.49941(15)
O2 O 1.0236(4) 0.0657(2) 0.57236(16)
O3 O 0.6018(3) 0.0399(2) 0.06167(17)
O4 O 0.6424(3) -0.0166(2) -0.01022(17)
O5 O 0.8342(6) 0.1149(4) 0.1861(3)
O6 O 0.9577(4) 0.0776(6) 0.1804(3)
O7 O 0.8648(3) 0.2500 0.23850(17)
H4 H 0.8240 0.2500 0.2137
C1 C 1.0281(5) 0.0336(3) 0.3185(3)
H5 H 1.0841 0.0547 0.3229
H6 H 1.0191 0.0229 0.2821
H7 H 1.0252 -0.0085 0.3388
C2 C 0.9603(3) 0.0824(3) 0.33648(19)
C3 C 0.8691(3) 0.1358(3) 0.38382(18)
C4 C 0.8123(5) 0.1572(4) 0.4283(2)
H8 H 0.7625 0.1815 0.4149
H9 H 0.8440 0.1874 0.4514
H10 H 0.7937 0.1166 0.4472
C5 C 1.0069(4) 0.1187(3) 0.5471(2)
C6 C 1.0100(5) 0.1875(3) 0.5760(2)
C7 C 1.0194(7) 0.1880(4) 0.6297(3)
H11 H 1.0247 0.1461 0.6478
C8 C 1.0210(10) 0.2500 0.6569(4)
C9 C 1.0020(6) 0.2500 0.5489(3)
H12 H 0.9913 0.2500 0.5130
C10 C 0.8833(6) 0.0796(4) 0.1643(3)
C11 C 0.8561(5) 0.0373(5) 0.1171(3)
C12 C 0.9159(8) -0.0049(11) 0.0922(6)
H13 H 0.9726 -0.0077 0.1045
C13 C 0.8910(10) -0.0422(9) 0.0496(6)
C14 C 0.8068(7) -0.0357(8) 0.0298(5)
H14 H 0.7909 -0.0612 0.0003
C15 C 0.7477(5) 0.0071(5) 0.0529(3)
C16 C 0.7734(5) 0.0425(3) 0.0982(3)
H15 H 0.7334 0.0702 0.1159
C17 C 0.6567(4) 0.0108(3) 0.0329(2)
C18 C 1.1594(4) 0.1211(3) 0.2049(3)
H16 H 1.1112 0.0905 0.2108
H17 H 1.2030 0.1130 0.2312
H18 H 1.1834 0.1123 0.1708
C19 C 1.1296(3) 0.1946(3) 0.2079(2)
N4F N 1.0505(3) 0.2863(2) 0.21981(17)
C18F C 1.1594(4) 0.3789(3) 0.2049(3)
H16F H 1.1112 0.4095 0.2108
H17F H 1.2030 0.3870 0.2312
H18F H 1.1834 0.3877 0.1708
C19F C 1.1296(3) 0.3054(3) 0.2079(2)
H1F H 1.0277 0.2112 0.7293
O1F O 0.9861(3) 0.37920(19) 0.49941(15)
O2F O 1.0236(4) 0.4343(2) 0.57236(16)
C5F C 1.0069(4) 0.3813(3) 0.5471(2)
C6F C 1.0100(5) 0.3125(3) 0.5760(2)
C7F C 1.0194(7) 0.3120(4) 0.6297(3)
H11F H 1.0247 0.3539 0.6478
Zn1D Zn 1.06267(4) -0.16212(3) 0.76878(2)
Zn2D Zn 1.02834(4) -0.03581(3) 0.54905(2)
N1D N 1.0755(3) -0.1309(2) 0.69345(14)
N2D N 1.1350(2) -0.1653(2) 0.66250(16)
N3D N 1.0718(3) -0.0848(2) 0.61458(16)
N7D N 1.0447(19) 0.0868(16) 0.9730(17)
H2D H 0.9936 0.0888 0.9595
H3D H 1.0570 0.1117 1.0001
O3D O 1.3982(3) -0.0399(2) 0.93833(17)
O4D O 1.3576(3) 0.0166(2) 1.01022(17)
O5D O 1.1658(6) -0.1149(4) 0.8139(3)
O6D O 1.0423(4) -0.0776(6) 0.8196(3)
C1D C 0.9719(5) -0.0336(3) 0.6815(3)
H5D H 0.9159 -0.0547 0.6771
H6D H 0.9809 -0.0229 0.7179
H7D H 0.9748 0.0085 0.6612
C2D C 1.0397(3) -0.0824(3) 0.66352(19)
C3D C 1.1309(3) -0.1358(3) 0.61618(18)
C4D C 1.1877(5) -0.1572(4) 0.5717(2)
H8D H 1.2375 -0.1815 0.5851
H9D H 1.1560 -0.1874 0.5486
H10D H 1.2063 -0.1166 0.5528
C10D C 1.1167(6) -0.0796(4) 0.8357(3)
C11D C 1.1439(5) -0.0373(5) 0.8829(3)
C12D C 1.0841(8) 0.0049(11) 0.9078(6)
H13D H 1.0274 0.0077 0.8955
C13D C 1.1090(10) 0.0422(9) 0.9504(6)
C14D C 1.1932(7) 0.0357(8) 0.9702(5)
H14D H 1.2091 0.0612 0.9997
C15D C 1.2523(5) -0.0071(5) 0.9471(3)
C16D C 1.2266(5) -0.0425(3) 0.9018(3)
H15D H 1.2666 -0.0702 0.8841
C17D C 1.3433(4) -0.0108(3) 0.9671(2)
Zn1F Zn 0.93733(4) 0.33788(3) 0.23122(2)
Zn2A Zn 0.52834(4) -0.03581(3) -0.04905(2)
Zn2A_2 Zn 1.52834(4) -0.03581(3) 0.95095(2)
Zn2B Zn 1.02834(4) 0.53581(3) 0.54905(2)
Zn2E Zn 0.47166(4) 0.03581(3) 0.04905(2)
Zn2E_2 Zn 1.47166(4) 0.03581(3) 1.04905(2)
Zn2F Zn 0.97166(4) 0.46419(3) 0.45095(2)
Zn3B Zn 1.19191(5) -0.2500 0.69187(3)
Zn3C Zn 1.30809(5) 0.2500 0.19187(3)
N2F N 0.8650(2) 0.3347(2) 0.33750(16)
N4D N 0.9495(3) -0.2137(2) 0.78019(17)
N5C N 0.6821(4) 0.2500 0.3003(2)
O1D O 1.0139(3) -0.12080(19) 0.50059(15)
O2D O 0.9764(4) -0.0657(2) 0.42764(16)
O3A O 0.8982(3) -0.0399(2) 0.56167(17)
O3E O 1.1018(3) 0.0399(2) 0.43833(17)
O4A O 0.8576(3) 0.0166(2) 0.48978(17)
O4E O 1.1424(3) -0.0166(2) 0.51022(17)
O7B O 1.1352(3) -0.2500 0.76150(17)
N8 N 0.6585(6) 0.2500 0.1027(3)
O8 O 0.7167(6) 0.2500 0.1825(3)
C20 C 0.7211(9) 0.2500 0.1387(5)
H19 H 0.7773 0.2500 0.1253
C21 C 0.5729(10) 0.2500 0.1136(7)
C22 C 0.6798(13) 0.2500 0.0490(6)
O9 O 0.022(2) 0.2500 0.0645(10)
H20 H 0.0057 0.2500 0.0322
H21 H -0.0198 0.2500 0.0869
loop_
_geom_bond_atom_site_label_1
_geom_bond_atom_site_label_2
_geom_bond_site_symmetry_1
_geom_bond_site_symmetry_2
Zn1 N1 1_555 1_555
Zn2 N3 1_555 1_555
Zn3 N2 1_555 1_555
N1 N2 1_555 1_555
N2 C3 1_555 1_555
N3 C2 1_555 1_555
N4 Zn1 1_555 1_555
N5 C19 1_555 1_555
N6 H1 1_555 1_555
N7 H2 1_555 1_555
H3 N7 1_555 1_555
O1 Zn2 1_555 1_555
O2 C5 1_555 1_555
O3 C17 1_555 1_555
O4 C17 1_555 1_555
O5 Zn1 1_555 1_555
O6 Zn1 1_555 1_555
O7 Zn1 1_555 1_555
H4 O7 1_555 1_555
C1 H5 1_555 1_555
H6 C1 1_555 1_555
H7 C1 1_555 1_555
C2 N1 1_555 1_555
C3 N3 1_555 1_555
C4 C3 1_555 1_555
H8 C4 1_555 1_555
H9 C4 1_555 1_555
H10 C4 1_555 1_555
C5 O1 1_555 1_555
C6 C5 1_555 1_555
C7 C6 1_555 1_555
H11 C7 1_555 1_555
C8 N6 1_555 1_555
C9 C6 1_555 1_555
H12 C9 1_555 1_555
C10 O5 1_555 1_555
C11 C10 1_555 1_555
C12 C11 1_555 1_555
H13 C12 1_555 1_555
C13 N7 1_555 1_555
C14 C13 1_555 1_555
H14 C14 1_555 1_555
C15 C14 1_555 1_555
C16 C11 1_555 1_555
H15 C16 1_555 1_555
C17 C15 1_555 1_555
C18 H16 1_555 1_555
H17 C18 1_555 1_555
H18 C18 1_555 1_555
C19 N4 1_555 1_555
N8 C20 1_555 1_555
O8 C20 1_555 1_555
C20 H19 1_555 1_555
C21 N8 1_555 1_555
C22 N8 1_555 1_555
O9 H20 1_555 1_555
H21 O9 1_555 1_555
N4F N4 1_555 1_555
C18F H16F 1_555 1_555
H17F C18F 1_555 1_555
H18F C18F 1_555 1_555
C19F N5 1_555 1_555
H1F N6 1_555 1_555
O1F C5F 1_555 1_555
O2F C5F 1_555 1_555
C5F C6F 1_555 1_555
C6F C9 1_555 1_555
C7F C8 1_555 1_555
H11F C7F 1_555 1_555
Zn1D N1D 1_555 1_555
Zn2D O2 1_555 1_555
N1D N2D 1_555 1_555
N2D C3D 1_555 1_555
N3D Zn2D 1_555 1_555
N7D H2D 1_555 1_555
H3D N7D 1_555 1_555
O3D C17D 1_555 1_555
O4D C17D 1_555 1_555
O5D Zn1D 1_555 1_555
O6D Zn1D 1_555 1_555
C1D H5D 1_555 1_555
H6D C1D 1_555 1_555
H7D C1D 1_555 1_555
C2D N1D 1_555 1_555
C3D N3D 1_555 1_555
C4D C3D 1_555 1_555
H8D C4D 1_555 1_555
H9D C4D 1_555 1_555
H10D C4D 1_555 1_555
C10D O5D 1_555 1_555
C11D C10D 1_555 1_555
C12D C11D 1_555 1_555
H13D C12D 1_555 1_555
C13D N7D 1_555 1_555
C14D C13D 1_555 1_555
H14D C14D 1_555 1_555
C15D C14D 1_555 1_555
C16D C11D 1_555 1_555
H15D C16D 1_555 1_555
C17D C15D 1_555 1_555
Zn1F O7 1_555 1_555
Zn2A O4 1_555 1_555
Zn2A_2 O3D 1_555 1_555
Zn2B O2F 1_555 1_555
Zn2E O3 1_555 1_555
Zn2E_2 O4D 1_555 1_555
Zn2F O1F 1_555 1_555
Zn3B N2D 1_555 1_555
Zn3C N5 1_555 1_555
N2F Zn3 1_555 1_555
N4D Zn1D 1_555 1_555
N5C Zn3 1_555 1_555
O1D Zn2D 1_555 1_555
O2D Zn2 1_555 1_555
O3A Zn2D 1_555 1_555
O3E Zn2 1_555 1_555
O4A Zn2 1_555 1_555
O4E Zn2D 1_555 1_555
O7B Zn1D 1_555 1_555
Zn3 O7 1_555 1_555
O6 C10 1_555 1_555
C1 C2 1_555 1_555
C7 C8 1_555 1_555
C12 C13 1_555 1_555
C15 C16 1_555 1_555
C18 C19 1_555 1_555
N4F C19F 1_555 1_555
N4F Zn1F 1_555 1_555
C18F C19F 1_555 1_555
C6F C7F 1_555 1_555
N3D C2D 1_555 1_555
O6D C10D 1_555 1_555
C1D C2D 1_555 1_555
C12D C13D 1_555 1_555
C15D C16D 1_555 1_555
Zn3B O7B 1_555 1_555

#END
