
#######################################################################
#
#                 Cambridge Crystallographic Data Centre
#                                CCDC 
#
#######################################################################
#
# If this CIF has been generated from an entry in the Cambridge 
# Structural Database, then it will include bibliographic, chemical, 
# crystal, experimental, refinement or atomic coordinate data resulting 
# from the CCDC's data processing and validation procedures.
#
#######################################################################

data_HURFOR
_chemical_formula_moiety         '(C39 H40 N10 O18 Zn5)n'
_symmetry_cell_setting           orthorhombic
_symmetry_space_group_name_H-M   'P n m a'
_symmetry_Int_Tables_number      62
_space_group_name_Hall           '-P 2ac 2n'
loop_
_symmetry_equiv_pos_site_id
_symmetry_equiv_pos_as_xyz
1 x,y,z
2 1/2-x,-y,1/2+z
3 -x,1/2+y,-z
4 1/2+x,1/2-y,1/2-z
5 -x,-y,-z
6 1/2+x,y,1/2-z
7 x,1/2-y,z
8 1/2-x,1/2+y,1/2+z
_cell_length_a                   15.578(8)
_cell_length_b                   19.131(10)
_cell_length_c                   25.039(14)
_cell_angle_alpha                90
_cell_angle_beta                 90
_cell_angle_gamma                90
_cell_volume                     7462.19
loop_
_atom_site_label
_atom_site_type_symbol
_atom_site_fract_x
_atom_site_fract_y
_atom_site_fract_z
Zn1 Zn 0.54678(4) 0.16217(3) 0.72594(3)
N1 N 0.5614(3) 0.1299(2) 0.80187(19)
N2 N 0.4339(3) 0.2141(2) 0.7191(2)
O1 O 0.6181(3) 0.2500 0.7309(2)
O2 O 0.6679(5) 0.1029(4) 0.6903(3)
O3 O 0.5386(4) 0.0955(4) 0.6670(3)
N3 N 0.6221(3) 0.1655(2) 0.83217(19)
C1 C 0.5289(4) 0.0821(3) 0.8331(2)
C2 C 0.3540(4) 0.1949(3) 0.7102(2)
Zn2 Zn 0.67700(6) 0.2500 0.80116(4)
H1 H 0.6625 0.2500 0.7114
C3 C 0.6220(4) 0.1359(3) 0.8794(2)
N4 N 0.5634(3) 0.0845(2) 0.8826(2)
C4 C 0.4630(6) 0.0320(4) 0.8165(3)
N5 N 0.3026(4) 0.2500 0.7048(3)
C5 C 0.3260(4) 0.1203(3) 0.7079(4)
C6 C 0.6807(5) 0.1554(4) 0.9236(3)
Zn3 Zn 0.52553(5) 0.03584(3) 0.94986(3)
H2 H 0.4073 0.0498 0.8256
H3 H 0.4722 -0.0118 0.8344
H4 H 0.4664 0.0251 0.7786
H5 H 0.3729 0.0906 0.7179
H6 H 0.3079 0.1092 0.6723
H7 H 0.2790 0.1133 0.7321
H8 H 0.6952 0.1144 0.9438
H9 H 0.6528 0.1886 0.9465
H10 H 0.7320 0.1757 0.9091
O4 O 0.5140(3) 0.1205(2) 0.99900(19)
O5 O 0.3957(3) 0.0392(3) 0.9395(2)
O6 O 0.6404(3) 0.0162(3) 0.9863(2)
O7 O 0.5216(4) -0.0660(2) 0.9259(2)
C7 C 0.4937(5) 0.1194(3) 1.0481(3)
C8 C 0.3428(5) 0.0120(4) 0.9695(3)
C9 C 0.4889(5) 0.1870(3) 1.0769(3)
C10 C 0.2508(5) 0.0098(5) 0.9518(4)
C11 C 0.4762(7) 0.1882(5) 1.1301(4)
C12 C 0.4983(7) 0.2500 1.0502(4)
C13 C 0.1910(7) -0.0296(7) 0.9793(5)
C14 C 0.2271(5) 0.0439(4) 0.9058(3)
C15 C 0.1154(6) 0.0839(5) 0.8408(3)
H11 H 0.4735 0.1460 1.1484
C16 C 0.4670(11) 0.2500 1.1585(6)
H12 H 0.5111 0.2500 1.0140
C17 C 0.1080(9) -0.0363(8) 0.9597(6)
H13 H 0.2063 -0.0516 1.0110
C18 C 0.1428(6) 0.0423(5) 0.8885(4)
H14 H 0.2680 0.0683 0.8862
O8 O 0.4612(16) 0.2500 1.2122(7)
C19 C 0.0803(8) -0.0012(7) 0.9146(5)
O9 O 0.052(2) -0.0861(17) 0.9838(14)
H15 H 0.0244 -0.0055 0.9018
H16 H 0.0645 -0.0919 1.0153
N2F N 0.4339(3) 0.2859(2) 0.7191(2)
Zn1F Zn 0.54678(4) 0.33783(3) 0.72594(3)
C2F C 0.3540(4) 0.3051(3) 0.7102(2)
N3F N 0.6221(3) 0.3345(2) 0.83217(19)
N5C N 0.8026(4) 0.2500 0.7952(3)
Zn2C Zn 0.17700(6) 0.2500 0.69884(4)
C5F C 0.3260(4) 0.3797(3) 0.7079(4)
H5F H 0.3729 0.4094 0.7179
H6F H 0.3079 0.3908 0.6723
H7F H 0.2790 0.3867 0.7321
C8D C 0.6572(5) -0.0120(4) 1.0305(3)
Zn1E Zn 0.04678(4) 0.16217(3) 0.77406(3)
Zn3F Zn 0.52553(5) 0.46416(3) 0.94986(3)
O7D O 0.4784(4) 0.0660(2) 1.0741(2)
O6D O 0.3596(3) -0.0162(3) 1.0137(2)
O5D O 0.6043(3) -0.0392(3) 1.0605(2)
C10D C 0.7492(5) -0.0098(5) 1.0482(4)
O4D O 0.4860(3) -0.1205(2) 1.00100(19)
O2E O 0.1679(5) 0.1029(4) 0.8097(3)
O3E O 0.0386(4) 0.0955(4) 0.8330(3)
O4F O 0.5140(3) 0.3795(2) 0.99900(19)
Zn3D Zn 0.47447(5) -0.03584(3) 1.05014(3)
C13D C 0.8090(7) 0.0296(7) 1.0207(5)
C14D C 0.7729(5) -0.0439(4) 1.0942(3)
C7F C 0.4937(5) 0.3806(3) 1.0481(3)
N4D N 0.4366(3) -0.0845(2) 1.1174(2)
C9F C 0.4889(5) 0.3130(3) 1.0769(3)
C17D C 0.8920(9) 0.0363(8) 1.0403(6)
H13D H 0.7937 0.0516 0.9890
C18D C 0.8572(6) -0.0423(5) 1.1115(4)
H14D H 0.7320 -0.0683 1.1138
O7B O 0.4784(4) 0.4340(2) 1.0741(2)
C1D C 0.4711(4) -0.0821(3) 1.1669(2)
C3D C 0.3780(4) -0.1359(3) 1.1206(2)
C11F C 0.4762(7) 0.3118(5) 1.1301(4)
C19D C 0.9197(8) 0.0012(7) 1.0854(5)
O9D O 0.948(2) 0.0861(17) 1.0162(14)
C15D C 0.8846(6) -0.0839(5) 1.1592(3)
Zn3B Zn 0.47447(5) 0.53584(3) 1.05014(3)
N1D N 0.4386(3) -0.1299(2) 1.19813(19)
C4D C 0.5370(6) -0.0320(4) 1.1835(3)
N3D N 0.3779(3) -0.1655(2) 1.16783(19)
C6D C 0.3193(5) -0.1554(4) 1.0764(3)
H11F H 0.4735 0.3540 1.1484
H15D H 0.9756 0.0055 1.0982
H16D H 0.9355 0.0919 0.9847
O2A O 0.8321(5) -0.1029(4) 1.1903(3)
O3A O 0.9614(4) -0.0955(4) 1.1670(3)
Zn1D Zn 0.45322(4) -0.16217(3) 1.27406(3)
H2D H 0.5927 -0.0498 1.1744
H3D H 0.5278 0.0118 1.1656
H4D H 0.5336 -0.0251 1.2214
Zn2B Zn 0.32300(6) -0.2500 1.19884(4)
H8D H 0.3048 -0.1144 1.0562
H9D H 0.3472 -0.1886 1.0535
H10D H 0.2680 -0.1757 1.0909
Zn1A Zn 0.95322(4) -0.16217(3) 1.22594(3)
N2D N 0.5661(3) -0.2141(2) 1.2809(2)
O2D O 0.3321(5) -0.1029(4) 1.3097(3)
O1B O 0.3819(3) -0.2500 1.2691(2)
O3D O 0.4614(4) -0.0955(4) 1.3330(3)
C20 C 0.2574(19) 0.2500 0.8708(7)
H17 H 0.2032 0.2500 0.8865
C21 C 0.3138(15) 0.2500 0.9587(9)
C22 C 0.4241(13) 0.2500 0.8953(10)
N6 N 0.3307(7) 0.2500 0.9031(5)
O10 O 0.2636(9) 0.2500 0.8262(7)
O11 O 0.0910(14) 0.8628(13) 0.0819(8)
H18 H 0.1361 0.8882 0.0853
H19 H 0.1051 0.8202 0.0753
loop_
_geom_bond_atom_site_label_1
_geom_bond_atom_site_label_2
_geom_bond_site_symmetry_1
_geom_bond_site_symmetry_2
Zn1 N1 1_555 1_555
N1 N3 1_555 1_555
N2 Zn1 1_555 1_555
O1 Zn1 1_555 1_555
O2 Zn1 1_555 1_555
O3 Zn1 1_555 1_555
N3 Zn2 1_555 1_555
C1 N1 1_555 1_555
C2 N2 1_555 1_555
Zn2 O1 1_555 1_555
H1 O1 1_555 1_555
C3 N3 1_555 1_555
N4 C1 1_555 1_555
C4 C1 1_555 1_555
N5 C2 1_555 1_555
C5 C2 1_555 1_555
C6 C3 1_555 1_555
Zn3 N4 1_555 1_555
H2 C4 1_555 1_555
H3 C4 1_555 1_555
H4 C4 1_555 1_555
H5 C5 1_555 1_555
H6 C5 1_555 1_555
H7 C5 1_555 1_555
H8 C6 1_555 1_555
H9 C6 1_555 1_555
H10 C6 1_555 1_555
O4 Zn3 1_555 1_555
O5 Zn3 1_555 1_555
O6 Zn3 1_555 1_555
O7 Zn3 1_555 1_555
C7 O4 1_555 1_555
C8 O5 1_555 1_555
C9 C7 1_555 1_555
C10 C8 1_555 1_555
C11 C9 1_555 1_555
C12 C9 1_555 1_555
C13 C10 1_555 1_555
C14 C10 1_555 1_555
C15 C18 1_555 1_555
H11 C11 1_555 1_555
C16 C11 1_555 1_555
H12 C12 1_555 1_555
C17 C13 1_555 1_555
H13 C13 1_555 1_555
C18 C14 1_555 1_555
H14 C14 1_555 1_555
O8 C16 1_555 1_555
C19 C17 1_555 1_555
O9 C17 1_555 1_555
H15 C19 1_555 1_555
H16 O9 1_555 1_555
C20 H17 1_555 1_555
C21 N6 1_555 1_555
C22 N6 1_555 1_555
N6 C20 1_555 1_555
O10 C20 1_555 1_555
O11 H18 1_555 1_555
H19 O11 1_555 1_555
N2F N2 1_555 1_555
Zn1F O1 1_555 1_555
C2F N5 1_555 1_555
N3F Zn2 1_555 1_555
N5C Zn2 1_555 1_555
Zn2C N5 1_555 1_555
C5F C2F 1_555 1_555
H5F C5F 1_555 1_555
H6F C5F 1_555 1_555
H7F C5F 1_555 1_555
C8D O6 1_555 1_555
Zn1E O2E 1_555 1_555
Zn3F O4F 1_555 1_555
O7D C7 1_555 1_555
O6D C8 1_555 1_555
O5D C8D 1_555 1_555
C10D C8D 1_555 1_555
O4D Zn3D 1_555 1_555
O2E C15 1_555 1_555
O3E C15 1_555 1_555
O4F C7F 1_555 1_555
Zn3D O7D 1_555 1_555
C13D C10D 1_555 1_555
C14D C10D 1_555 1_555
C7F C9F 1_555 1_555
N4D Zn3D 1_555 1_555
C9F C12 1_555 1_555
C17D C13D 1_555 1_555
H13D C13D 1_555 1_555
C18D C14D 1_555 1_555
H14D C14D 1_555 1_555
O7B C7F 1_555 1_555
C1D N4D 1_555 1_555
C3D N4D 1_555 1_555
C11F C16 1_555 1_555
C19D C17D 1_555 1_555
O9D C17D 1_555 1_555
C15D C18D 1_555 1_555
Zn3B O7B 1_555 1_555
N1D C1D 1_555 1_555
C4D C1D 1_555 1_555
N3D C3D 1_555 1_555
C6D C3D 1_555 1_555
H11F C11F 1_555 1_555
H15D C19D 1_555 1_555
H16D O9D 1_555 1_555
O2A C15D 1_555 1_555
O3A C15D 1_555 1_555
Zn1D N1D 1_555 1_555
H2D C4D 1_555 1_555
H3D C4D 1_555 1_555
H4D C4D 1_555 1_555
Zn2B N3D 1_555 1_555
H8D C6D 1_555 1_555
H9D C6D 1_555 1_555
H10D C6D 1_555 1_555
Zn1A O2A 1_555 1_555
N2D Zn1D 1_555 1_555
O2D Zn1D 1_555 1_555
O1B Zn1D 1_555 1_555
O3D Zn1D 1_555 1_555
C3 N4 1_555 1_555
C18 C19 1_555 1_555
N2F Zn1F 1_555 1_555
N2F C2F 1_555 1_555
Zn1E O3E 1_555 1_555
O6D Zn3D 1_555 1_555
O5D Zn3D 1_555 1_555
C9F C11F 1_555 1_555
C18D C19D 1_555 1_555
N1D N3D 1_555 1_555
O3A Zn1A 1_555 1_555
Zn2B O1B 1_555 1_555

#END
