
#######################################################################
#
#                 Cambridge Crystallographic Data Centre
#                                CCDC 
#
#######################################################################
#
# If this CIF has been generated from an entry in the Cambridge 
# Structural Database, then it will include bibliographic, chemical, 
# crystal, experimental, refinement or atomic coordinate data resulting 
# from the CCDC's data processing and validation procedures.
#
#######################################################################

data_JOFCEO
_chemical_formula_moiety         '(C14 H8 Cu1 N2 O5)n'
_symmetry_cell_setting           rhombohedral
_symmetry_space_group_name_H-M   'R -3 c'
_symmetry_Int_Tables_number      167
_space_group_name_Hall           '-R 3 2"c'
loop_
_symmetry_equiv_pos_site_id
_symmetry_equiv_pos_as_xyz
1 x,y,z
2 -y,x-y,z
3 -x+y,-x,z
4 y,x,1/2-z
5 -x,-x+y,1/2-z
6 x-y,-y,1/2-z
7 2/3+x,1/3+y,1/3+z
8 2/3-y,1/3+x-y,1/3+z
9 2/3-x+y,1/3-x,1/3+z
10 2/3+y,1/3+x,5/6-z
11 2/3-x,1/3-x+y,5/6-z
12 2/3+x-y,1/3-y,5/6-z
13 1/3+x,2/3+y,2/3+z
14 1/3-y,2/3+x-y,2/3+z
15 1/3-x+y,2/3-x,2/3+z
16 1/3+y,2/3+x,1/6-z
17 1/3-x,2/3-x+y,1/6-z
18 1/3+x-y,2/3-y,1/6-z
19 -x,-y,-z
20 y,-x+y,-z
21 x-y,x,-z
22 -y,-x,1/2+z
23 x,x-y,1/2+z
24 -x+y,y,1/2+z
25 1/3-x,2/3-y,2/3-z
26 1/3+y,2/3-x+y,2/3-z
27 1/3+x-y,2/3+x,2/3-z
28 1/3-y,2/3-x,1/6+z
29 1/3+x,2/3+x-y,1/6+z
30 1/3-x+y,2/3+y,1/6+z
31 2/3-x,1/3-y,1/3-z
32 2/3+y,1/3-x+y,1/3-z
33 2/3+x-y,1/3+x,1/3-z
34 2/3-y,1/3-x,5/6+z
35 2/3+x,1/3+x-y,5/6+z
36 2/3-x+y,1/3+y,5/6+z
_cell_length_a                   18.4310(17)
_cell_length_b                   18.4310(17)
_cell_length_c                   69.911(15)
_cell_angle_alpha                90
_cell_angle_beta                 90
_cell_angle_gamma                120
_cell_volume                     20567.1
loop_
_atom_site_label
_atom_site_type_symbol
_atom_site_fract_x
_atom_site_fract_y
_atom_site_fract_z
_atom_site_U_iso_or_equiv
_atom_site_thermal_displace_type
Cu1 Cu 0.28408(3) 1.12300(3) 0.901319(7) 0.0322 Uani
N1 N 0.2014(3) 0.7443(3) 1.04200(5) 0.0416 Uani
O1 O 0.3009(2) 1.0563(2) 0.94107(5) 0.0490 Uani
O2 O 0.2213(2) 1.0182(2) 0.91489(4) 0.0464 Uani
O3 O -0.0563(2) 0.7751(2) 0.91626(5) 0.0589 Uani
O4 O -0.0991(2) 0.6912(2) 0.94197(5) 0.0592 Uani
C1 C 0.2384(3) 1.0063(3) 0.93164(7) 0.0391 Uani
C2 C 0.1780(3) 0.9242(3) 0.94058(7) 0.0464 Uani
C3 C 0.0995(3) 0.8778(3) 0.93251(7) 0.0477 Uani
H1 H 0.0860 0.8966 0.9214 0.0570 Uiso
C4 C 0.0401(3) 0.8024(3) 0.94104(8) 0.0526 Uani
C5 C 0.0607(4) 0.7748(4) 0.95736(9) 0.0701 Uani
H2 H 0.0211 0.7250 0.9631 0.0840 Uiso
C6 C 0.1402(4) 0.8209(4) 0.96535(10) 0.0701 Uani
C7 C 0.1997(4) 0.8965(4) 0.95687(8) 0.0587 Uani
H3 H 0.2531 0.9275 0.9621 0.0700 Uiso
C8 C -0.0442(3) 0.7531(3) 0.93225(7) 0.0483 Uani
C9 C 0.2022(6) 0.7471(7) 1.00804(9) 0.1088 Uani
C10 C 0.1993(7) 0.6704(8) 1.00780(10) 0.1273 Uani
H4 H 0.1982 0.6452 0.9962 0.1520 Uiso
C11 C 0.1982(6) 0.6323(5) 1.02452(11) 0.0933 Uani
H5 H 0.1951 0.5804 1.0245 0.1120 Uiso
C12 C 0.2017(4) 0.6722(4) 1.04136(7) 0.0571 Uani
H6 H 0.2043 0.6479 1.0528 0.0690 Uiso
C13 C 0.2028(5) 0.7798(5) 1.02561(8) 0.0778 Uani
H7 H 0.2043 0.8310 1.0260 0.0930 Uiso
C14 C 0.2205(6) 0.8103(7) 0.99175(15) 0.1203 Uani
O5 O 0.2715(5) 0.8930(5) 0.99203(10) 0.1329 Uani
N2 N 0.1565(4) 0.7919(4) 0.98247(11) 0.1112 Uani
H8 H 0.1119 0.7525 0.9877 0.1330 Uiso
Cu1B Cu -0.16108(4) 0.71592(3) 0.901319(7) 0.0322 Uani
Cu1I Cu -0.21033(3) 0.61741(3) 0.932014(7) 0.0322 Uani
Cu1J Cu 0.38259(3) 1.17225(4) 0.932014(7) 0.0322 Uani
Cu1CA Cu 0.17225(4) 0.78967(3) 1.067986(7) 0.0322 Uani
N1IA N 0.2096(4) 1.0776(3) 0.87533(5) 0.0416 Uani
O1J O 0.3658(2) 1.0887(3) 0.89226(5) 0.0490 Uani
O3A O 0.2249(2) 1.1686(3) 0.91626(5) 0.0589 Uani
O4I O 0.3579(2) 1.2342(2) 0.89136(5) 0.0592 Uani
loop_
_atom_site_aniso_label
_atom_site_aniso_U_11
_atom_site_aniso_U_22
_atom_site_aniso_U_33
_atom_site_aniso_U_23
_atom_site_aniso_U_13
_atom_site_aniso_U_12
Cu1 0.0246(3) 0.0333(3) 0.0327(4) -0.0013(2) -0.0046(2) 0.0100(2)
N1 0.059(3) 0.053(2) 0.0287(19) 0.0014(17) 0.0016(17) 0.040(2)
O1 0.0383(19) 0.0444(19) 0.0447(18) 0.0086(15) -0.0061(15) 0.0060(16)
O2 0.0382(18) 0.0433(19) 0.0372(17) 0.0089(15) -0.0051(14) 0.0050(15)
O3 0.042(2) 0.051(2) 0.058(2) 0.0183(18) -0.0101(17) 0.0040(17)
O4 0.041(2) 0.052(2) 0.056(2) 0.0147(18) -0.0091(17) 0.0019(18)
C1 0.024(2) 0.042(3) 0.044(3) 0.004(2) 0.0019(19) 0.011(2)
C2 0.031(2) 0.046(3) 0.046(3) 0.012(2) -0.001(2) 0.007(2)
C3 0.037(3) 0.043(3) 0.047(3) 0.010(2) -0.003(2) 0.008(2)
C4 0.034(3) 0.046(3) 0.063(3) 0.016(2) -0.007(2) 0.009(2)
C5 0.044(3) 0.062(4) 0.077(4) 0.035(3) -0.007(3) 0.006(3)
C6 0.043(3) 0.073(4) 0.073(4) 0.036(3) -0.004(3) 0.013(3)
C7 0.040(3) 0.056(3) 0.060(3) 0.018(3) -0.011(3) 0.009(3)
C8 0.037(3) 0.038(3) 0.053(3) 0.009(2) -0.002(2) 0.006(2)
C9 0.185(9) 0.207(10) 0.033(3) 0.008(4) 0.002(4) 0.172(9)
C10 0.182(10) 0.222(12) 0.046(4) -0.050(6) -0.031(5) 0.152(10)
C11 0.145(8) 0.087(5) 0.088(5) -0.022(4) 0.010(5) 0.088(6)
C12 0.088(4) 0.065(4) 0.042(3) 0.004(3) 0.005(3) 0.056(3)
C13 0.133(6) 0.113(6) 0.044(3) 0.015(3) 0.015(4) 0.104(5)
C14 0.118(2) 0.125(2) 0.119(2) 0.0020(10) -0.0046(10) 0.0615(13)
O5 0.134(2) 0.129(2) 0.132(2) 0.0017(10) -0.0014(10) 0.0630(12)
N2 0.080(3) 0.109(5) 0.123(6) 0.087(5) 0.033(3) 0.031(4)
Cu1B 0.0379 0.0246 0.0327 0.0046 0.0033 0.0146
Cu1I 0.0333 0.0246 0.0327 0.0046 0.0013 0.01
Cu1J 0.0246 0.0379 0.0327 -0.0033 -0.0046 0.0146
Cu1CA 0.0379 0.0333 0.0327 -0.0013 0.0033 0.0233
N1IA 0.032 0.053 0.0287 0.0014 -0.0002 0.013
O1J 0.0383 0.0707 0.0447 -0.0147 -0.0061 0.0323
O3A 0.051 0.085 0.058 -0.0284 -0.0183 0.047
O4I 0.052 0.041 0.056 0.0091 -0.0147 0.0019
loop_
_geom_bond_atom_site_label_1
_geom_bond_atom_site_label_2
_geom_bond_site_symmetry_1
_geom_bond_site_symmetry_2
Cu1 O2 1_555 1_555
N1 C12 1_555 1_555
O1 C1 1_555 1_555
O2 C1 1_555 1_555
O3 C8 1_555 1_555
O4 C8 1_555 1_555
C1 C2 1_555 1_555
C2 C3 1_555 1_555
C3 H1 1_555 1_555
C4 C3 1_555 1_555
C5 C4 1_555 1_555
H2 C5 1_555 1_555
C6 C5 1_555 1_555
C7 C2 1_555 1_555
H3 C7 1_555 1_555
C8 C4 1_555 1_555
C9 C10 1_555 1_555
C10 H4 1_555 1_555
C11 C10 1_555 1_555
H5 C11 1_555 1_555
C12 C11 1_555 1_555
H6 C12 1_555 1_555
C13 N1 1_555 1_555
H7 C13 1_555 1_555
C14 C9 1_555 1_555
O5 C14 1_555 1_555
N2 C6 1_555 1_555
H8 N2 1_555 1_555
Cu1B O3 1_555 1_555
Cu1I O4 1_555 1_555
Cu1J Cu1 1_555 1_555
Cu1CA N1 1_555 1_555
N1IA Cu1 1_555 1_555
O1J Cu1 1_555 1_555
O3A Cu1 1_555 1_555
O4I Cu1 1_555 1_555
O1 Cu1J 1_555 1_555
C6 C7 1_555 1_555
C9 C13 1_555 1_555
C14 N2 1_555 1_555
Cu1B Cu1I 1_555 1_555

#END
