
#######################################################################
#
#                 Cambridge Crystallographic Data Centre
#                                CCDC 
#
#######################################################################
#
# If this CIF has been generated from an entry in the Cambridge 
# Structural Database, then it will include bibliographic, chemical, 
# crystal, experimental, refinement or atomic coordinate data resulting 
# from the CCDC's data processing and validation procedures.
#
#######################################################################

data_KIKDIT
_chemical_formula_moiety         '(C171 H230 Cd8 Cl6 F24 N72 S8 Si4)n'
_symmetry_cell_setting           tetragonal
_symmetry_space_group_name_H-M   'P 42/m'
_symmetry_Int_Tables_number      84
_space_group_name_Hall           '-P 4c'
loop_
_symmetry_equiv_pos_site_id
_symmetry_equiv_pos_as_xyz
1 x,y,z
2 -x,-y,z
3 -y,x,1/2+z
4 y,-x,1/2+z
5 -x,-y,-z
6 x,y,-z
7 y,-x,1/2-z
8 -y,x,1/2-z
_cell_length_a                   19.5220(8)
_cell_length_b                   19.5220(8)
_cell_length_c                   33.791(3)
_cell_angle_alpha                90
_cell_angle_beta                 90
_cell_angle_gamma                90
_cell_volume                     12878
loop_
_atom_site_label
_atom_site_type_symbol
_atom_site_fract_x
_atom_site_fract_y
_atom_site_fract_z
Cd1 Cd 0.32864(3) 0.62227(3) 0.0000
Cd2 Cd 0.35578(2) 0.84210(2) 0.250853(16)
Cd3 Cd 0.10872(3) 0.82015(3) 0.5000
Si1 Si 0.5000 0.5000 0.0000
Si2 Si 0.5000 1.0000 0.25234(8)
Si3 Si 0.0000 1.0000 0.5000
S1 S 0.0896(2) 0.6988(3) 0.0000
S2 S 0.26179(19) 0.61937(16) 0.27696(15)
S3 S 0.1889(3) 0.5807(2) 0.5000
F1 F 0.4248(2) 0.5440(2) 0.0000
F2 F 0.5000 0.5000 0.04956(15)
F3 F 0.4581(2) 0.4247(2) 0.0000
F4 F 0.44057(18) 0.93730(18) 0.25222(13)
F5 F 0.5000 1.0000 0.30138(17)
F6 F 0.4375(2) 1.05893(19) 0.25208(14)
F7 F 0.5000 1.0000 0.20200(17)
F8 F 0.0362(2) 0.9216(2) 0.5000
F9 F 0.0783(3) 1.0356(3) 0.5000
F10 F 0.0000 1.0000 0.55000(15)
N1 N 0.4011(3) 0.6748(3) 0.04789(18)
N2 N 0.4694(3) 0.6682(3) 0.05089(19)
H1 H 0.4940 0.6446 0.0343
N3 N 0.4252(4) 0.8149(3) 0.19841(19)
N4 N 0.4507(3) 0.8665(3) 0.17463(18)
H2 H 0.4593 0.9078 0.1829
N5 N 0.3173(3) 0.9061(3) 0.30467(17)
N6 N 0.3640(3) 0.9399(3) 0.32649(18)
H3 H 0.4040 0.9521 0.3177
N7 N 0.1685(3) 0.8871(3) 0.45266(19)
N8 N 0.1633(3) 0.9558(3) 0.44865(19)
H4 H 0.1387 0.9814 0.4642
N9 N 0.4395(3) 0.8032(3) 0.29526(18)
N10 N 0.5053(3) 0.8229(3) 0.29275(18)
H5 H 0.5213 0.8476 0.2734
N11 N 0.5489(3) 0.6961(3) 0.44535(18)
N12 N 0.5300(3) 0.6398(3) 0.42455(19)
H6 H 0.5298 0.5987 0.4345
N13 N 0.3072(3) 0.9257(3) 0.20593(18)
N14 N 0.3309(3) 0.9910(3) 0.20616(19)
H7 H 0.3591 1.0068 0.2239
N15 N 0.1995(3) 1.0347(3) 0.05546(18)
N16 N 0.1421(3) 1.0200(3) 0.07708(19)
H8 H 0.1008 1.0233 0.0676
N17 N 0.2336(4) 0.6807(5) 0.0000
N18 N 0.2828(5) 0.7540(4) 0.2530(3)
N19 N 0.1597(5) 0.7203(5) 0.5000
C1 C 0.3107(5) 0.7335(6) 0.0850(4)
H9 H 0.2858 0.7335 0.0601
H10 H 0.3086 0.7787 0.0968
H11 H 0.2903 0.7004 0.1028
C2 C 0.3821(4) 0.7151(4) 0.0777(3)
C3 C 0.4405(4) 0.7331(3) 0.1004(2)
C4 C 0.4959(4) 0.7018(3) 0.0820(2)
C5 C 0.5681(5) 0.7029(5) 0.0929(4)
H12 H 0.5920 0.6666 0.0791
H13 H 0.5724 0.6961 0.1213
H14 H 0.5878 0.7468 0.0857
C6 C 0.3978(8) 0.6939(4) 0.1881(3)
H15 H 0.3918 0.6962 0.2165
H16 H 0.4327 0.6601 0.1818
H17 H 0.3549 0.6808 0.1757
C7 C 0.4192(5) 0.7612(4) 0.1731(3)
C8 C 0.4413(4) 0.7791(3) 0.1354(2)
C9 C 0.4609(3) 0.8454(3) 0.1370(2)
C10 C 0.4898(5) 0.8927(4) 0.1061(3)
H18 H 0.4530 0.9196 0.0945
H19 H 0.5119 0.8660 0.0855
H20 H 0.5230 0.9231 0.1182
C11 C 0.2007(4) 0.8609(5) 0.3134(3)
H21 H 0.1958 0.8677 0.2851
H22 H 0.1608 0.8791 0.3269
H23 H 0.2046 0.8123 0.3189
C12 C 0.2641(3) 0.8973(4) 0.3278(2)
C13 C 0.2765(3) 0.9248(4) 0.3659(2)
C14 C 0.3420(3) 0.9528(4) 0.3633(2)
C15 C 0.3862(5) 0.9866(7) 0.3943(4)
H24 H 0.4313 0.9657 0.3942
H25 H 0.3654 0.9808 0.4201
H26 H 0.3905 1.0350 0.3884
C16 C 0.2250(6) 0.7933(5) 0.4162(3)
H27 H 0.1941 0.7743 0.3966
H28 H 0.2194 0.7689 0.4410
H29 H 0.2718 0.7886 0.4071
C17 C 0.2090(3) 0.8668(4) 0.4222(2)
C18 C 0.2306(4) 0.9240(4) 0.4009(2)
C19 C 0.2008(3) 0.9810(4) 0.4175(3)
C20 C 0.2006(5) 1.0548(5) 0.4073(3)
H30 H 0.2424 1.0760 0.4169
H31 H 0.1613 1.0768 0.4195
H32 H 0.1978 1.0600 0.3788
C21 C 0.3713(4) 0.7351(4) 0.3432(3)
H33 H 0.3341 0.7499 0.3261
H34 H 0.3623 0.7501 0.3701
H35 H 0.3746 0.6856 0.3426
C22 C 0.4369(4) 0.7657(3) 0.3291(2)
C23 C 0.5006(4) 0.7635(3) 0.3475(2)
C24 C 0.5442(4) 0.8005(4) 0.3232(2)
C25 C 0.6188(4) 0.8165(5) 0.3255(3)
H36 H 0.6445 0.7823 0.3109
H37 H 0.6333 0.8162 0.3530
H38 H 0.6272 0.8614 0.3142
C26 C 0.5547(6) 0.8209(4) 0.4315(3)
H39 H 0.5483 0.8257 0.4598
H40 H 0.5224 0.8502 0.4177
H41 H 0.6010 0.8341 0.4245
C27 C 0.5427(4) 0.7473(3) 0.4197(2)
C28 C 0.5185(4) 0.7247(3) 0.3832(2)
C29 C 0.5118(3) 0.6536(3) 0.3874(2)
C30 C 0.4911(5) 0.5989(4) 0.3588(3)
H42 H 0.4937 0.5546 0.3717
H43 H 0.5217 0.5995 0.3362
H44 H 0.4446 0.6071 0.3500
C31 C 0.2335(5) 0.8548(4) 0.1630(3)
H45 H 0.2683 0.8210 0.1570
H46 H 0.2047 0.8618 0.1400
H47 H 0.2057 0.8389 0.1849
C32 C 0.2672(3) 0.9212(4) 0.1741(2)
C33 C 0.2643(3) 0.9846(4) 0.1545(2)
C34 C 0.3069(4) 1.0280(4) 0.1766(3)
C35 C 0.3246(5) 1.1013(5) 0.1703(3)
H48 H 0.3041 1.1288 0.1911
H49 H 0.3073 1.1161 0.1448
H50 H 0.3739 1.1067 0.1710
C36 C 0.3243(4) 1.0331(6) 0.0677(3)
H51 H 0.3415 0.9903 0.0571
H52 H 0.3523 1.0470 0.0901
H53 H 0.3262 1.0682 0.0474
C37 C 0.2509(3) 1.0238(4) 0.0811(2)
C38 C 0.2260(3) 1.0020(4) 0.1180(2)
C39 C 0.1555(3) 1.0002(4) 0.1141(2)
C40 C 0.1005(4) 0.9845(5) 0.1429(3)
H54 H 0.0631 1.0167 0.1394
H55 H 0.1185 0.9884 0.1695
H56 H 0.0840 0.9383 0.1385
C41 C 0.1733(9) 0.6856(7) 0.0000
C42 C 0.2762(5) 0.6967(6) 0.2632(3)
C43 C 0.1745(8) 0.6647(7) 0.5000
F1A F 0.5752(2) 0.4560(2) 0.0000
F3A F 0.5419(2) 0.5753(2) 0.0000
F2D F 0.5000 0.5000 -0.04956(15)
F4A F 0.55943(18) 1.06270(18) 0.25222(13)
F6A F 0.5625(2) 0.94107(19) 0.25208(14)
F8A F -0.0362(2) 1.0784(2) 0.5000
F9A F -0.0783(3) 0.9644(3) 0.5000
F10D F 0.0000 1.0000 0.45000(15)
Cd1A Cd -0.32864(3) 1.37773(3) 0.0000
Cd2A Cd -0.35578(2) 1.15790(2) 0.250853(16)
Cd3A Cd -0.10872(3) 1.17985(3) 0.5000
S1A S -0.0896(2) 1.3012(3) 0.0000
S2A S -0.26179(19) 1.38063(16) 0.27696(15)
S3A S -0.1889(3) 1.4193(2) 0.5000
N1A N -0.4011(3) 1.3252(3) 0.04789(18)
N2A N -0.4694(3) 1.3318(3) 0.05089(19)
H1A H -0.4940 1.3554 0.0343
N3A N -0.4252(4) 1.1851(3) 0.19841(19)
N4A N -0.4507(3) 1.1335(3) 0.17463(18)
H2A H -0.4593 1.0922 0.1829
N5A N -0.3173(3) 1.0939(3) 0.30467(17)
N6A N -0.3640(3) 1.0601(3) 0.32649(18)
H3A H -0.4040 1.0479 0.3177
N7A N -0.1685(3) 1.1129(3) 0.45266(19)
N8A N -0.1633(3) 1.0442(3) 0.44865(19)
H4A H -0.1387 1.0186 0.4642
N9A N -0.4395(3) 1.1968(3) 0.29526(18)
N10A N -0.5053(3) 1.1771(3) 0.29275(18)
H5A H -0.5213 1.1524 0.2734
N11A N -0.5489(3) 1.3039(3) 0.44535(18)
N12A N -0.5300(3) 1.3602(3) 0.42455(19)
H6A H -0.5298 1.4013 0.4345
N13A N -0.3072(3) 1.0743(3) 0.20593(18)
N14A N -0.3309(3) 1.0090(3) 0.20616(19)
H7A H -0.3591 0.9932 0.2239
N15A N -0.1995(3) 0.9653(3) 0.05546(18)
N16A N -0.1421(3) 0.9800(3) 0.07708(19)
H8A H -0.1008 0.9767 0.0676
N17A N -0.2336(4) 1.3193(5) 0.0000
N18A N -0.2828(5) 1.2460(4) 0.2530(3)
N19A N -0.1597(5) 1.2797(5) 0.5000
C1A C -0.3107(5) 1.2665(6) 0.0850(4)
H9A H -0.2858 1.2665 0.0601
H10A H -0.3086 1.2213 0.0968
H11A H -0.2903 1.2996 0.1028
C2A C -0.3821(4) 1.2849(4) 0.0777(3)
C3A C -0.4405(4) 1.2669(3) 0.1004(2)
C4A C -0.4959(4) 1.2982(3) 0.0820(2)
C5A C -0.5681(5) 1.2971(5) 0.0929(4)
H12A H -0.5920 1.3334 0.0791
H13A H -0.5724 1.3039 0.1213
H14A H -0.5878 1.2532 0.0857
C6A C -0.3978(8) 1.3061(4) 0.1881(3)
H15A H -0.3918 1.3038 0.2165
H16A H -0.4327 1.3399 0.1818
H17A H -0.3549 1.3192 0.1757
C7A C -0.4192(5) 1.2388(4) 0.1731(3)
C8A C -0.4413(4) 1.2209(3) 0.1354(2)
C9A C -0.4609(3) 1.1546(3) 0.1370(2)
C10A C -0.4898(5) 1.1073(4) 0.1061(3)
H18A H -0.4530 1.0804 0.0945
H19A H -0.5119 1.1340 0.0855
H20A H -0.5230 1.0769 0.1182
C11A C -0.2007(4) 1.1391(5) 0.3134(3)
H21A H -0.1958 1.1323 0.2851
H22A H -0.1608 1.1209 0.3269
H23A H -0.2046 1.1877 0.3189
C12A C -0.2641(3) 1.1027(4) 0.3278(2)
C13A C -0.2765(3) 1.0752(4) 0.3659(2)
C14A C -0.3420(3) 1.0472(4) 0.3633(2)
C15A C -0.3862(5) 1.0134(7) 0.3943(4)
H24A H -0.4313 1.0343 0.3942
H25A H -0.3654 1.0192 0.4201
H26A H -0.3905 0.9650 0.3884
C16A C -0.2250(6) 1.2067(5) 0.4162(3)
H27A H -0.1941 1.2257 0.3966
H28A H -0.2194 1.2311 0.4410
H29A H -0.2718 1.2114 0.4071
C17A C -0.2090(3) 1.1332(4) 0.4222(2)
C18A C -0.2306(4) 1.0760(4) 0.4009(2)
C19A C -0.2008(3) 1.0190(4) 0.4175(3)
C20A C -0.2006(5) 0.9452(5) 0.4073(3)
H30A H -0.2424 0.9240 0.4169
H31A H -0.1613 0.9232 0.4195
H32A H -0.1978 0.9400 0.3788
C21A C -0.3713(4) 1.2649(4) 0.3432(3)
H33A H -0.3341 1.2501 0.3261
H34A H -0.3623 1.2499 0.3701
H35A H -0.3746 1.3144 0.3426
C22A C -0.4369(4) 1.2343(3) 0.3291(2)
C23A C -0.5006(4) 1.2365(3) 0.3475(2)
C24A C -0.5442(4) 1.1995(4) 0.3232(2)
C25A C -0.6188(4) 1.1835(5) 0.3255(3)
H36A H -0.6445 1.2177 0.3109
H37A H -0.6333 1.1838 0.3530
H38A H -0.6272 1.1386 0.3142
C26A C -0.5547(6) 1.1791(4) 0.4315(3)
H39A H -0.5483 1.1743 0.4598
H40A H -0.5224 1.1498 0.4177
H41A H -0.6010 1.1659 0.4245
C27A C -0.5427(4) 1.2527(3) 0.4197(2)
C28A C -0.5185(4) 1.2753(3) 0.3832(2)
C29A C -0.5118(3) 1.3464(3) 0.3874(2)
C30A C -0.4911(5) 1.4011(4) 0.3588(3)
H42A H -0.4937 1.4454 0.3717
H43A H -0.5217 1.4005 0.3362
H44A H -0.4446 1.3929 0.3500
C31A C -0.2335(5) 1.1452(4) 0.1630(3)
H45A H -0.2683 1.1790 0.1570
H46A H -0.2047 1.1382 0.1400
H47A H -0.2057 1.1611 0.1849
C32A C -0.2672(3) 1.0788(4) 0.1741(2)
C33A C -0.2643(3) 1.0154(4) 0.1545(2)
C34A C -0.3069(4) 0.9720(4) 0.1766(3)
C35A C -0.3246(5) 0.8987(5) 0.1703(3)
H48A H -0.3041 0.8712 0.1911
H49A H -0.3073 0.8839 0.1448
H50A H -0.3739 0.8933 0.1710
C36A C -0.3243(4) 0.9669(6) 0.0677(3)
H51A H -0.3415 1.0097 0.0571
H52A H -0.3523 0.9530 0.0901
H53A H -0.3262 0.9318 0.0474
C37A C -0.2509(3) 0.9762(4) 0.0811(2)
C38A C -0.2260(3) 0.9980(4) 0.1180(2)
C39A C -0.1555(3) 0.9998(4) 0.1141(2)
C40A C -0.1005(4) 1.0155(5) 0.1429(3)
H54A H -0.0631 0.9833 0.1394
H55A H -0.1185 1.0116 0.1695
H56A H -0.0840 1.0617 0.1385
C41A C -0.1733(9) 1.3144(7) 0.0000
C42A C -0.2762(5) 1.3033(6) 0.2632(3)
C43A C -0.1745(8) 1.3353(7) 0.5000
Cd2D Cd -0.35578(2) 1.15790(2) -0.250853(16)
S2D S -0.26179(19) 1.38063(16) -0.27696(15)
N1D N -0.4011(3) 1.3252(3) -0.04789(18)
N2D N -0.4694(3) 1.3318(3) -0.05089(19)
H1D H -0.4940 1.3554 -0.0343
N3D N -0.4252(4) 1.1851(3) -0.19841(19)
N4D N -0.4507(3) 1.1335(3) -0.17463(18)
H2D H -0.4593 1.0922 -0.1829
N5D N -0.3173(3) 1.0939(3) -0.30467(17)
N6D N -0.3640(3) 1.0601(3) -0.32649(18)
H3D H -0.4040 1.0479 -0.3177
N7D N -0.1685(3) 1.1129(3) -0.45266(19)
N8D N -0.1633(3) 1.0442(3) -0.44865(19)
H4D H -0.1387 1.0186 -0.4642
N9D N -0.4395(3) 1.1968(3) -0.29526(18)
N10D N -0.5053(3) 1.1771(3) -0.29275(18)
H5D H -0.5213 1.1524 -0.2734
N11D N -0.5489(3) 1.3039(3) -0.44535(18)
N12D N -0.5300(3) 1.3602(3) -0.42455(19)
H6D H -0.5298 1.4013 -0.4345
N13D N -0.3072(3) 1.0743(3) -0.20593(18)
N14D N -0.3309(3) 1.0090(3) -0.20616(19)
H7D H -0.3591 0.9932 -0.2239
N15D N -0.1995(3) 0.9653(3) -0.05546(18)
N16D N -0.1421(3) 0.9800(3) -0.07708(19)
H8D H -0.1008 0.9767 -0.0676
N18D N -0.2828(5) 1.2460(4) -0.2530(3)
C1D C -0.3107(5) 1.2665(6) -0.0850(4)
H9D H -0.2858 1.2665 -0.0601
H10D H -0.3086 1.2213 -0.0968
H11D H -0.2903 1.2996 -0.1028
C2D C -0.3821(4) 1.2849(4) -0.0777(3)
C3D C -0.4405(4) 1.2669(3) -0.1004(2)
C4D C -0.4959(4) 1.2982(3) -0.0820(2)
C5D C -0.5681(5) 1.2971(5) -0.0929(4)
H12D H -0.5920 1.3334 -0.0791
H13D H -0.5724 1.3039 -0.1213
H14D H -0.5878 1.2532 -0.0857
C6D C -0.3978(8) 1.3061(4) -0.1881(3)
H15D H -0.3918 1.3038 -0.2165
H16D H -0.4327 1.3399 -0.1818
H17D H -0.3549 1.3192 -0.1757
C7D C -0.4192(5) 1.2388(4) -0.1731(3)
C8D C -0.4413(4) 1.2209(3) -0.1354(2)
C9D C -0.4609(3) 1.1546(3) -0.1370(2)
C10D C -0.4898(5) 1.1073(4) -0.1061(3)
H18D H -0.4530 1.0804 -0.0945
H19D H -0.5119 1.1340 -0.0855
H20D H -0.5230 1.0769 -0.1182
C11D C -0.2007(4) 1.1391(5) -0.3134(3)
H21D H -0.1958 1.1323 -0.2851
H22D H -0.1608 1.1209 -0.3269
H23D H -0.2046 1.1877 -0.3189
C12D C -0.2641(3) 1.1027(4) -0.3278(2)
C13D C -0.2765(3) 1.0752(4) -0.3659(2)
C14D C -0.3420(3) 1.0472(4) -0.3633(2)
C15D C -0.3862(5) 1.0134(7) -0.3943(4)
H24D H -0.4313 1.0343 -0.3942
H25D H -0.3654 1.0192 -0.4201
H26D H -0.3905 0.9650 -0.3884
C16D C -0.2250(6) 1.2067(5) -0.4162(3)
H27D H -0.1941 1.2257 -0.3966
H28D H -0.2194 1.2311 -0.4410
H29D H -0.2718 1.2114 -0.4071
C17D C -0.2090(3) 1.1332(4) -0.4222(2)
C18D C -0.2306(4) 1.0760(4) -0.4009(2)
C19D C -0.2008(3) 1.0190(4) -0.4175(3)
C20D C -0.2006(5) 0.9452(5) -0.4073(3)
H30D H -0.2424 0.9240 -0.4169
H31D H -0.1613 0.9232 -0.4195
H32D H -0.1978 0.9400 -0.3788
C21D C -0.3713(4) 1.2649(4) -0.3432(3)
H33D H -0.3341 1.2501 -0.3261
H34D H -0.3623 1.2499 -0.3701
H35D H -0.3746 1.3144 -0.3426
C22D C -0.4369(4) 1.2343(3) -0.3291(2)
C23D C -0.5006(4) 1.2365(3) -0.3475(2)
C24D C -0.5442(4) 1.1995(4) -0.3232(2)
C25D C -0.6188(4) 1.1835(5) -0.3255(3)
H36D H -0.6445 1.2177 -0.3109
H37D H -0.6333 1.1838 -0.3530
H38D H -0.6272 1.1386 -0.3142
C26D C -0.5547(6) 1.1791(4) -0.4315(3)
H39D H -0.5483 1.1743 -0.4598
H40D H -0.5224 1.1498 -0.4177
H41D H -0.6010 1.1659 -0.4245
C27D C -0.5427(4) 1.2527(3) -0.4197(2)
C28D C -0.5185(4) 1.2753(3) -0.3832(2)
C29D C -0.5118(3) 1.3464(3) -0.3874(2)
C30D C -0.4911(5) 1.4011(4) -0.3588(3)
H42D H -0.4937 1.4454 -0.3717
H43D H -0.5217 1.4005 -0.3362
H44D H -0.4446 1.3929 -0.3500
C31D C -0.2335(5) 1.1452(4) -0.1630(3)
H45D H -0.2683 1.1790 -0.1570
H46D H -0.2047 1.1382 -0.1400
H47D H -0.2057 1.1611 -0.1849
C32D C -0.2672(3) 1.0788(4) -0.1741(2)
C33D C -0.2643(3) 1.0154(4) -0.1545(2)
C34D C -0.3069(4) 0.9720(4) -0.1766(3)
C35D C -0.3246(5) 0.8987(5) -0.1703(3)
H48D H -0.3041 0.8712 -0.1911
H49D H -0.3073 0.8839 -0.1448
H50D H -0.3739 0.8933 -0.1710
C36D C -0.3243(4) 0.9669(6) -0.0677(3)
H51D H -0.3415 1.0097 -0.0571
H52D H -0.3523 0.9530 -0.0901
H53D H -0.3262 0.9318 -0.0474
C37D C -0.2509(3) 0.9762(4) -0.0811(2)
C38D C -0.2260(3) 0.9980(4) -0.1180(2)
C39D C -0.1555(3) 0.9998(4) -0.1141(2)
C40D C -0.1005(4) 1.0155(5) -0.1429(3)
H54D H -0.0631 0.9833 -0.1394
H55D H -0.1185 1.0116 -0.1695
H56D H -0.0840 1.0617 -0.1385
C42D C -0.2762(5) 1.3033(6) -0.2632(3)
Cd2E Cd 0.35578(2) 0.84210(2) -0.250853(16)
Si2D Si 0.5000 1.0000 -0.25234(8)
S2E S 0.26179(19) 0.61937(16) -0.27696(15)
F4E F 0.44057(18) 0.93730(18) -0.25222(13)
F5D F 0.5000 1.0000 -0.30138(17)
F6E F 0.4375(2) 1.05893(19) -0.25208(14)
F7D F 0.5000 1.0000 -0.20200(17)
N1E N 0.4011(3) 0.6748(3) -0.04789(18)
N2E N 0.4694(3) 0.6682(3) -0.05089(19)
H1E H 0.4940 0.6446 -0.0343
N3E N 0.4252(4) 0.8149(3) -0.19841(19)
N4E N 0.4507(3) 0.8665(3) -0.17463(18)
H2E H 0.4593 0.9078 -0.1829
N5E N 0.3173(3) 0.9061(3) -0.30467(17)
N6E N 0.3640(3) 0.9399(3) -0.32649(18)
H3E H 0.4040 0.9521 -0.3177
N7E N 0.1685(3) 0.8871(3) -0.45266(19)
N8E N 0.1633(3) 0.9558(3) -0.44865(19)
H4E H 0.1387 0.9814 -0.4642
N9E N 0.4395(3) 0.8032(3) -0.29526(18)
N10E N 0.5053(3) 0.8229(3) -0.29275(18)
H5E H 0.5213 0.8476 -0.2734
N11E N 0.5489(3) 0.6961(3) -0.44535(18)
N12E N 0.5300(3) 0.6398(3) -0.42455(19)
H6E H 0.5298 0.5987 -0.4345
N13E N 0.3072(3) 0.9257(3) -0.20593(18)
N14E N 0.3309(3) 0.9910(3) -0.20616(19)
H7E H 0.3591 1.0068 -0.2239
N15E N 0.1995(3) 1.0347(3) -0.05546(18)
N16E N 0.1421(3) 1.0200(3) -0.07708(19)
H8E H 0.1008 1.0233 -0.0676
N18E N 0.2828(5) 0.7540(4) -0.2530(3)
C1E C 0.3107(5) 0.7335(6) -0.0850(4)
H9E H 0.2858 0.7335 -0.0601
H10E H 0.3086 0.7787 -0.0968
H11E H 0.2903 0.7004 -0.1028
C2E C 0.3821(4) 0.7151(4) -0.0777(3)
C3E C 0.4405(4) 0.7331(3) -0.1004(2)
C4E C 0.4959(4) 0.7018(3) -0.0820(2)
C5E C 0.5681(5) 0.7029(5) -0.0929(4)
H12E H 0.5920 0.6666 -0.0791
H13E H 0.5724 0.6961 -0.1213
H14E H 0.5878 0.7468 -0.0857
C6E C 0.3978(8) 0.6939(4) -0.1881(3)
H15E H 0.3918 0.6962 -0.2165
H16E H 0.4327 0.6601 -0.1818
H17E H 0.3549 0.6808 -0.1757
C7E C 0.4192(5) 0.7612(4) -0.1731(3)
C8E C 0.4413(4) 0.7791(3) -0.1354(2)
C9E C 0.4609(3) 0.8454(3) -0.1370(2)
C10E C 0.4898(5) 0.8927(4) -0.1061(3)
H18E H 0.4530 0.9196 -0.0945
H19E H 0.5119 0.8660 -0.0855
H20E H 0.5230 0.9231 -0.1182
C11E C 0.2007(4) 0.8609(5) -0.3134(3)
H21E H 0.1958 0.8677 -0.2851
H22E H 0.1608 0.8791 -0.3269
H23E H 0.2046 0.8123 -0.3189
C12E C 0.2641(3) 0.8973(4) -0.3278(2)
C13E C 0.2765(3) 0.9248(4) -0.3659(2)
C14E C 0.3420(3) 0.9528(4) -0.3633(2)
C15E C 0.3862(5) 0.9866(7) -0.3943(4)
H24E H 0.4313 0.9657 -0.3942
H25E H 0.3654 0.9808 -0.4201
H26E H 0.3905 1.0350 -0.3884
C16E C 0.2250(6) 0.7933(5) -0.4162(3)
H27E H 0.1941 0.7743 -0.3966
H28E H 0.2194 0.7689 -0.4410
H29E H 0.2718 0.7886 -0.4071
C17E C 0.2090(3) 0.8668(4) -0.4222(2)
C18E C 0.2306(4) 0.9240(4) -0.4009(2)
C19E C 0.2008(3) 0.9810(4) -0.4175(3)
C20E C 0.2006(5) 1.0548(5) -0.4073(3)
H30E H 0.2424 1.0760 -0.4169
H31E H 0.1613 1.0768 -0.4195
H32E H 0.1978 1.0600 -0.3788
C21E C 0.3713(4) 0.7351(4) -0.3432(3)
H33E H 0.3341 0.7499 -0.3261
H34E H 0.3623 0.7501 -0.3701
H35E H 0.3746 0.6856 -0.3426
C22E C 0.4369(4) 0.7657(3) -0.3291(2)
C23E C 0.5006(4) 0.7635(3) -0.3475(2)
C24E C 0.5442(4) 0.8005(4) -0.3232(2)
C25E C 0.6188(4) 0.8165(5) -0.3255(3)
H36E H 0.6445 0.7823 -0.3109
H37E H 0.6333 0.8162 -0.3530
H38E H 0.6272 0.8614 -0.3142
C26E C 0.5547(6) 0.8209(4) -0.4315(3)
H39E H 0.5483 0.8257 -0.4598
H40E H 0.5224 0.8502 -0.4177
H41E H 0.6010 0.8341 -0.4245
C27E C 0.5427(4) 0.7473(3) -0.4197(2)
C28E C 0.5185(4) 0.7247(3) -0.3832(2)
C29E C 0.5118(3) 0.6536(3) -0.3874(2)
C30E C 0.4911(5) 0.5989(4) -0.3588(3)
H42E H 0.4937 0.5546 -0.3717
H43E H 0.5217 0.5995 -0.3362
H44E H 0.4446 0.6071 -0.3500
C31E C 0.2335(5) 0.8548(4) -0.1630(3)
H45E H 0.2683 0.8210 -0.1570
H46E H 0.2047 0.8618 -0.1400
H47E H 0.2057 0.8389 -0.1849
C32E C 0.2672(3) 0.9212(4) -0.1741(2)
C33E C 0.2643(3) 0.9846(4) -0.1545(2)
C34E C 0.3069(4) 1.0280(4) -0.1766(3)
C35E C 0.3246(5) 1.1013(5) -0.1703(3)
H48E H 0.3041 1.1288 -0.1911
H49E H 0.3073 1.1161 -0.1448
H50E H 0.3739 1.1067 -0.1710
C36E C 0.3243(4) 1.0331(6) -0.0677(3)
H51E H 0.3415 0.9903 -0.0571
H52E H 0.3523 1.0470 -0.0901
H53E H 0.3262 1.0682 -0.0474
C37E C 0.2509(3) 1.0238(4) -0.0811(2)
C38E C 0.2260(3) 1.0020(4) -0.1180(2)
C39E C 0.1555(3) 1.0002(4) -0.1141(2)
C40E C 0.1005(4) 0.9845(5) -0.1429(3)
H54E H 0.0631 1.0167 -0.1394
H55E H 0.1185 0.9884 -0.1695
H56E H 0.0840 0.9383 -0.1385
C42E C 0.2762(5) 0.6967(6) -0.2632(3)
F4D F 0.55943(18) 1.06270(18) -0.25222(13)
F6D F 0.5625(2) 0.94107(19) -0.25208(14)
Cd1A_2 Cd 0.67136(3) 0.37773(3) 0.0000
Cd1B Cd -0.62227(3) 1.32864(3) -0.5000
Cd1B_2 Cd -0.62227(3) 1.32864(3) 0.5000
Cd1C Cd 0.62227(3) 0.67136(3) -0.5000
Cd1C_2 Cd 0.62227(3) 0.67136(3) 0.5000
Cd2A_2 Cd 0.64422(2) 1.15790(2) 0.250853(16)
Cd2D_2 Cd 0.64422(2) 1.15790(2) -0.250853(16)
Cd3_2 Cd 0.10872(3) 0.82015(3) -0.5000
Cd3A_2 Cd -0.10872(3) 1.17985(3) -0.5000
Cd3B Cd 0.17985(3) 1.10872(3) 0.0000
Cd3C Cd -0.17985(3) 0.89128(3) 0.0000
F1A_2 F -0.4248(2) 1.4560(2) 0.0000
F4A_2 F -0.44057(18) 1.06270(18) 0.25222(13)
F4D_2 F -0.44057(18) 1.06270(18) -0.25222(13)
N7D_2 N -0.1685(3) 1.1129(3) 0.54734(19)
N7E_2 N 0.1685(3) 0.8871(3) 0.54734(19)
N11B N 0.3039(3) 0.5489(3) -0.05465(18)
N11C N -0.3039(3) 1.4511(3) -0.05465(18)
N11F N -0.3039(3) 1.4511(3) 0.05465(18)
N11G N 0.3039(3) 0.5489(3) 0.05465(18)
N15B N -0.0347(3) 1.1995(3) 0.55546(18)
N15C N 0.0347(3) 0.8005(3) 0.55546(18)
N15F N 0.0347(3) 0.8005(3) 0.44454(18)
N15G N -0.0347(3) 1.1995(3) 0.44454(18)
C44 C 0.1968(5) 1.0230(7) 0.2635(9)
H57 H 0.2105 0.9865 0.2817
H58 H 0.2083 1.0083 0.2366
Cl1 Cl 0.2423(4) 1.0969(4) 0.2746(3)
Cl2 Cl 0.1086(4) 1.0350(4) 0.2668(4)
C45 C 0.3049(14) 0.3490(17) 0.0000
H59 H 0.3528 0.3642 0.0000
H60 H 0.3044 0.2988 0.0000
Cl3 Cl 0.2630(9) 0.3800(9) 0.04228(12)
Cl3E Cl 0.2630(9) 0.3800(9) -0.04228(12)
C46 C 0.1934(18) 0.9090(9) 0.0000
H61 H 0.1467 0.9274 0.0000
H62 H 0.2253 0.9478 0.0000
Cl4 Cl 0.2059(5) 0.8610(5) 0.04267(12)
Cl4E Cl 0.2059(5) 0.8610(5) -0.04267(12)
loop_
_geom_bond_atom_site_label_1
_geom_bond_atom_site_label_2
_geom_bond_site_symmetry_1
_geom_bond_site_symmetry_2
Cd1 F1 1_555 1_555
Cd2 F4 1_555 1_555
Cd3 F8 1_555 1_555
Si1 F1 1_555 1_555
Si2 F4 1_555 1_555
Si3 F8 1_555 1_555
S1 C41 1_555 1_555
S2 C42 1_555 1_555
S3 C43 1_555 1_555
F2 Si1 1_555 1_555
F3 Si1 1_555 1_555
F5 Si2 1_555 1_555
F6 Si2 1_555 1_555
F7 Si2 1_555 1_555
F9 Si3 1_555 1_555
F10 Si3 1_555 1_555
N1 Cd1 1_555 1_555
N2 N1 1_555 1_555
H1 N2 1_555 1_555
N3 Cd2 1_555 1_555
N4 N3 1_555 1_555
H2 N4 1_555 1_555
N5 Cd2 1_555 1_555
N6 N5 1_555 1_555
H3 N6 1_555 1_555
N7 Cd3 1_555 1_555
N8 N7 1_555 1_555
H4 N8 1_555 1_555
N9 Cd2 1_555 1_555
N10 N9 1_555 1_555
H5 N10 1_555 1_555
N11 N12 1_555 1_555
N12 H6 1_555 1_555
N13 Cd2 1_555 1_555
N14 N13 1_555 1_555
H7 N14 1_555 1_555
N15 N16 1_555 1_555
N16 H8 1_555 1_555
N17 Cd1 1_555 1_555
N18 Cd2 1_555 1_555
N19 Cd3 1_555 1_555
C1 H9 1_555 1_555
H10 C1 1_555 1_555
H11 C1 1_555 1_555
C2 N1 1_555 1_555
C3 C2 1_555 1_555
C4 N2 1_555 1_555
C5 C4 1_555 1_555
H12 C5 1_555 1_555
H13 C5 1_555 1_555
H14 C5 1_555 1_555
C6 H15 1_555 1_555
H16 C6 1_555 1_555
H17 C6 1_555 1_555
C7 N3 1_555 1_555
C8 C3 1_555 1_555
C9 N4 1_555 1_555
C10 C9 1_555 1_555
H18 C10 1_555 1_555
H19 C10 1_555 1_555
H20 C10 1_555 1_555
C11 H21 1_555 1_555
H22 C11 1_555 1_555
H23 C11 1_555 1_555
C12 N5 1_555 1_555
C13 C12 1_555 1_555
C14 N6 1_555 1_555
C15 C14 1_555 1_555
H24 C15 1_555 1_555
H25 C15 1_555 1_555
H26 C15 1_555 1_555
C16 H27 1_555 1_555
H28 C16 1_555 1_555
H29 C16 1_555 1_555
C17 N7 1_555 1_555
C18 C13 1_555 1_555
C19 N8 1_555 1_555
C20 C19 1_555 1_555
H30 C20 1_555 1_555
H31 C20 1_555 1_555
H32 C20 1_555 1_555
C21 H33 1_555 1_555
H34 C21 1_555 1_555
H35 C21 1_555 1_555
C22 N9 1_555 1_555
C23 C22 1_555 1_555
C24 N10 1_555 1_555
C25 C24 1_555 1_555
H36 C25 1_555 1_555
H37 C25 1_555 1_555
H38 C25 1_555 1_555
C26 H39 1_555 1_555
H40 C26 1_555 1_555
H41 C26 1_555 1_555
C27 N11 1_555 1_555
C28 C23 1_555 1_555
C29 N12 1_555 1_555
C30 C29 1_555 1_555
H42 C30 1_555 1_555
H43 C30 1_555 1_555
H44 C30 1_555 1_555
C31 H45 1_555 1_555
H46 C31 1_555 1_555
H47 C31 1_555 1_555
C32 N13 1_555 1_555
C33 C32 1_555 1_555
C34 N14 1_555 1_555
C35 C34 1_555 1_555
H48 C35 1_555 1_555
H49 C35 1_555 1_555
H50 C35 1_555 1_555
C36 H51 1_555 1_555
H52 C36 1_555 1_555
H53 C36 1_555 1_555
C37 N15 1_555 1_555
C38 C33 1_555 1_555
C39 N16 1_555 1_555
C40 C39 1_555 1_555
H54 C40 1_555 1_555
H55 C40 1_555 1_555
H56 C40 1_555 1_555
C41 N17 1_555 1_555
C42 N18 1_555 1_555
C43 N19 1_555 1_555
C44 H57 1_555 1_555
H58 C44 1_555 1_555
Cl1 C44 1_555 1_555
Cl2 C44 1_555 1_555
C45 H59 1_555 1_555
H60 C45 1_555 1_555
Cl3 C45 1_555 1_555
C46 H61 1_555 1_555
H62 C46 1_555 1_555
Cl4 C46 1_555 1_555
F1A Si1 1_555 1_555
F3A Si1 1_555 1_555
F2D Si1 1_555 1_555
F4A Si2 1_555 1_555
F6A Si2 1_555 1_555
F8A Si3 1_555 1_555
F9A Si3 1_555 1_555
F10D Si3 1_555 1_555
Cd1A N1A 1_555 1_555
Cd2A N3A 1_555 1_555
Cd3A F8A 1_555 1_555
S1A C41A 1_555 1_555
S2A C42A 1_555 1_555
S3A C43A 1_555 1_555
N1A N2A 1_555 1_555
N2A H1A 1_555 1_555
N3A N4A 1_555 1_555
N4A H2A 1_555 1_555
N5A Cd2A 1_555 1_555
N6A N5A 1_555 1_555
H3A N6A 1_555 1_555
N7A Cd3A 1_555 1_555
N8A N7A 1_555 1_555
H4A N8A 1_555 1_555
N9A Cd2A 1_555 1_555
N10A N9A 1_555 1_555
H5A N10A 1_555 1_555
N11A N12A 1_555 1_555
N12A H6A 1_555 1_555
N13A Cd2A 1_555 1_555
N14A N13A 1_555 1_555
H7A N14A 1_555 1_555
N15A N16A 1_555 1_555
N16A H8A 1_555 1_555
N17A Cd1A 1_555 1_555
N18A Cd2A 1_555 1_555
N19A Cd3A 1_555 1_555
C1A H9A 1_555 1_555
H10A C1A 1_555 1_555
H11A C1A 1_555 1_555
C2A N1A 1_555 1_555
C3A C2A 1_555 1_555
C4A N2A 1_555 1_555
C5A C4A 1_555 1_555
H12A C5A 1_555 1_555
H13A C5A 1_555 1_555
H14A C5A 1_555 1_555
C6A H15A 1_555 1_555
H16A C6A 1_555 1_555
H17A C6A 1_555 1_555
C7A N3A 1_555 1_555
C8A C3A 1_555 1_555
C9A N4A 1_555 1_555
C10A C9A 1_555 1_555
H18A C10A 1_555 1_555
H19A C10A 1_555 1_555
H20A C10A 1_555 1_555
C11A H21A 1_555 1_555
H22A C11A 1_555 1_555
H23A C11A 1_555 1_555
C12A N5A 1_555 1_555
C13A C12A 1_555 1_555
C14A N6A 1_555 1_555
C15A C14A 1_555 1_555
H24A C15A 1_555 1_555
H25A C15A 1_555 1_555
H26A C15A 1_555 1_555
C16A H27A 1_555 1_555
H28A C16A 1_555 1_555
H29A C16A 1_555 1_555
C17A N7A 1_555 1_555
C18A C13A 1_555 1_555
C19A N8A 1_555 1_555
C20A C19A 1_555 1_555
H30A C20A 1_555 1_555
H31A C20A 1_555 1_555
H32A C20A 1_555 1_555
C21A H33A 1_555 1_555
H34A C21A 1_555 1_555
H35A C21A 1_555 1_555
C22A N9A 1_555 1_555
C23A C22A 1_555 1_555
C24A N10A 1_555 1_555
C25A C24A 1_555 1_555
H36A C25A 1_555 1_555
H37A C25A 1_555 1_555
H38A C25A 1_555 1_555
C26A H39A 1_555 1_555
H40A C26A 1_555 1_555
H41A C26A 1_555 1_555
C27A N11A 1_555 1_555
C28A C23A 1_555 1_555
C29A N12A 1_555 1_555
C30A C29A 1_555 1_555
H42A C30A 1_555 1_555
H43A C30A 1_555 1_555
H44A C30A 1_555 1_555
C31A H45A 1_555 1_555
H46A C31A 1_555 1_555
H47A C31A 1_555 1_555
C32A N13A 1_555 1_555
C33A C32A 1_555 1_555
C34A N14A 1_555 1_555
C35A C34A 1_555 1_555
H48A C35A 1_555 1_555
H49A C35A 1_555 1_555
H50A C35A 1_555 1_555
C36A H51A 1_555 1_555
H52A C36A 1_555 1_555
H53A C36A 1_555 1_555
C37A N15A 1_555 1_555
C38A C33A 1_555 1_555
C39A N16A 1_555 1_555
C40A C39A 1_555 1_555
H54A C40A 1_555 1_555
H55A C40A 1_555 1_555
H56A C40A 1_555 1_555
C41A N17A 1_555 1_555
C42A N18A 1_555 1_555
C43A N19A 1_555 1_555
Cd2D N3D 1_555 1_555
S2D C42D 1_555 1_555
N1D Cd1A 1_555 1_555
N2D N1D 1_555 1_555
H1D N2D 1_555 1_555
N3D N4D 1_555 1_555
N4D H2D 1_555 1_555
N5D Cd2D 1_555 1_555
N6D N5D 1_555 1_555
H3D N6D 1_555 1_555
N7D N8D 1_555 1_555
N8D H4D 1_555 1_555
N9D Cd2D 1_555 1_555
N10D N9D 1_555 1_555
H5D N10D 1_555 1_555
N11D N12D 1_555 1_555
N12D H6D 1_555 1_555
N13D Cd2D 1_555 1_555
N14D N13D 1_555 1_555
H7D N14D 1_555 1_555
N15D N16D 1_555 1_555
N16D H8D 1_555 1_555
N18D Cd2D 1_555 1_555
C1D H9D 1_555 1_555
H10D C1D 1_555 1_555
H11D C1D 1_555 1_555
C2D N1D 1_555 1_555
C3D C2D 1_555 1_555
C4D N2D 1_555 1_555
C5D C4D 1_555 1_555
H12D C5D 1_555 1_555
H13D C5D 1_555 1_555
H14D C5D 1_555 1_555
C6D H15D 1_555 1_555
H16D C6D 1_555 1_555
H17D C6D 1_555 1_555
C7D N3D 1_555 1_555
C8D C3D 1_555 1_555
C9D N4D 1_555 1_555
C10D C9D 1_555 1_555
H18D C10D 1_555 1_555
H19D C10D 1_555 1_555
H20D C10D 1_555 1_555
C11D H21D 1_555 1_555
H22D C11D 1_555 1_555
H23D C11D 1_555 1_555
C12D N5D 1_555 1_555
C13D C12D 1_555 1_555
C14D N6D 1_555 1_555
C15D C14D 1_555 1_555
H24D C15D 1_555 1_555
H25D C15D 1_555 1_555
H26D C15D 1_555 1_555
C16D H27D 1_555 1_555
H28D C16D 1_555 1_555
H29D C16D 1_555 1_555
C17D N7D 1_555 1_555
C18D C13D 1_555 1_555
C19D N8D 1_555 1_555
C20D C19D 1_555 1_555
H30D C20D 1_555 1_555
H31D C20D 1_555 1_555
H32D C20D 1_555 1_555
C21D H33D 1_555 1_555
H34D C21D 1_555 1_555
H35D C21D 1_555 1_555
C22D N9D 1_555 1_555
C23D C22D 1_555 1_555
C24D N10D 1_555 1_555
C25D C24D 1_555 1_555
H36D C25D 1_555 1_555
H37D C25D 1_555 1_555
H38D C25D 1_555 1_555
C26D H39D 1_555 1_555
H40D C26D 1_555 1_555
H41D C26D 1_555 1_555
C27D N11D 1_555 1_555
C28D C23D 1_555 1_555
C29D N12D 1_555 1_555
C30D C29D 1_555 1_555
H42D C30D 1_555 1_555
H43D C30D 1_555 1_555
H44D C30D 1_555 1_555
C31D H45D 1_555 1_555
H46D C31D 1_555 1_555
H47D C31D 1_555 1_555
C32D N13D 1_555 1_555
C33D C32D 1_555 1_555
C34D N14D 1_555 1_555
C35D C34D 1_555 1_555
H48D C35D 1_555 1_555
H49D C35D 1_555 1_555
H50D C35D 1_555 1_555
C36D H51D 1_555 1_555
H52D C36D 1_555 1_555
H53D C36D 1_555 1_555
C37D N15D 1_555 1_555
C38D C33D 1_555 1_555
C39D N16D 1_555 1_555
C40D C39D 1_555 1_555
H54D C40D 1_555 1_555
H55D C40D 1_555 1_555
H56D C40D 1_555 1_555
C42D N18D 1_555 1_555
Cd2E F4E 1_555 1_555
Si2D F4E 1_555 1_555
S2E C42E 1_555 1_555
F5D Si2D 1_555 1_555
F6E Si2D 1_555 1_555
F7D Si2D 1_555 1_555
N1E Cd1 1_555 1_555
N2E N1E 1_555 1_555
H1E N2E 1_555 1_555
N3E Cd2E 1_555 1_555
N4E N3E 1_555 1_555
H2E N4E 1_555 1_555
N5E Cd2E 1_555 1_555
N6E N5E 1_555 1_555
H3E N6E 1_555 1_555
N7E N8E 1_555 1_555
N8E H4E 1_555 1_555
N9E Cd2E 1_555 1_555
N10E N9E 1_555 1_555
H5E N10E 1_555 1_555
N11E N12E 1_555 1_555
N12E H6E 1_555 1_555
N13E Cd2E 1_555 1_555
N14E N13E 1_555 1_555
H7E N14E 1_555 1_555
N15E N16E 1_555 1_555
N16E H8E 1_555 1_555
N18E Cd2E 1_555 1_555
C1E H9E 1_555 1_555
H10E C1E 1_555 1_555
H11E C1E 1_555 1_555
C2E N1E 1_555 1_555
C3E C2E 1_555 1_555
C4E N2E 1_555 1_555
C5E C4E 1_555 1_555
H12E C5E 1_555 1_555
H13E C5E 1_555 1_555
H14E C5E 1_555 1_555
C6E H15E 1_555 1_555
H16E C6E 1_555 1_555
H17E C6E 1_555 1_555
C7E N3E 1_555 1_555
C8E C3E 1_555 1_555
C9E N4E 1_555 1_555
C10E C9E 1_555 1_555
H18E C10E 1_555 1_555
H19E C10E 1_555 1_555
H20E C10E 1_555 1_555
C11E H21E 1_555 1_555
H22E C11E 1_555 1_555
H23E C11E 1_555 1_555
C12E N5E 1_555 1_555
C13E C12E 1_555 1_555
C14E N6E 1_555 1_555
C15E C14E 1_555 1_555
H24E C15E 1_555 1_555
H25E C15E 1_555 1_555
H26E C15E 1_555 1_555
C16E H27E 1_555 1_555
H28E C16E 1_555 1_555
H29E C16E 1_555 1_555
C17E N7E 1_555 1_555
C18E C13E 1_555 1_555
C19E N8E 1_555 1_555
C20E C19E 1_555 1_555
H30E C20E 1_555 1_555
H31E C20E 1_555 1_555
H32E C20E 1_555 1_555
C21E H33E 1_555 1_555
H34E C21E 1_555 1_555
H35E C21E 1_555 1_555
C22E N9E 1_555 1_555
C23E C22E 1_555 1_555
C24E N10E 1_555 1_555
C25E C24E 1_555 1_555
H36E C25E 1_555 1_555
H37E C25E 1_555 1_555
H38E C25E 1_555 1_555
C26E H39E 1_555 1_555
H40E C26E 1_555 1_555
H41E C26E 1_555 1_555
C27E N11E 1_555 1_555
C28E C23E 1_555 1_555
C29E N12E 1_555 1_555
C30E C29E 1_555 1_555
H42E C30E 1_555 1_555
H43E C30E 1_555 1_555
H44E C30E 1_555 1_555
C31E H45E 1_555 1_555
H46E C31E 1_555 1_555
H47E C31E 1_555 1_555
C32E N13E 1_555 1_555
C33E C32E 1_555 1_555
C34E N14E 1_555 1_555
C35E C34E 1_555 1_555
H48E C35E 1_555 1_555
H49E C35E 1_555 1_555
H50E C35E 1_555 1_555
C36E H51E 1_555 1_555
H52E C36E 1_555 1_555
H53E C36E 1_555 1_555
C37E N15E 1_555 1_555
C38E C33E 1_555 1_555
C39E N16E 1_555 1_555
C40E C39E 1_555 1_555
H54E C40E 1_555 1_555
H55E C40E 1_555 1_555
H56E C40E 1_555 1_555
C42E N18E 1_555 1_555
F4D Si2D 1_555 1_555
F6D Si2D 1_555 1_555
Cd1A_2 F1A 1_555 1_555
Cd1B N11D 1_555 1_555
Cd1B_2 N11A 1_555 1_555
Cd1C N11E 1_555 1_555
Cd1C_2 N11 1_555 1_555
Cd2A_2 F4A 1_555 1_555
Cd2D_2 F4D 1_555 1_555
Cd3_2 N7E 1_555 1_555
Cd3A_2 N7D 1_555 1_555
Cd3B N15 1_555 1_555
Cd3C N15A 1_555 1_555
F1A_2 Cd1A 1_555 1_555
F4A_2 Cd2A 1_555 1_555
F4D_2 Cd2D 1_555 1_555
N7D_2 Cd3A 1_555 1_555
N7E_2 Cd3 1_555 1_555
N11B Cd1 1_555 1_555
N11C Cd1A 1_555 1_555
N11F Cd1A 1_555 1_555
N11G Cd1 1_555 1_555
N15B Cd3A 1_555 1_555
N15C Cd3 1_555 1_555
N15F Cd3 1_555 1_555
N15G Cd3A 1_555 1_555
Cl3E C45 1_555 1_555
Cl4E C46 1_555 1_555
C1 C2 1_555 1_555
C3 C4 1_555 1_555
C6 C7 1_555 1_555
C7 C8 1_555 1_555
C8 C9 1_555 1_555
C11 C12 1_555 1_555
C13 C14 1_555 1_555
C16 C17 1_555 1_555
C17 C18 1_555 1_555
C18 C19 1_555 1_555
C21 C22 1_555 1_555
C23 C24 1_555 1_555
C26 C27 1_555 1_555
C27 C28 1_555 1_555
C28 C29 1_555 1_555
C31 C32 1_555 1_555
C33 C34 1_555 1_555
C36 C37 1_555 1_555
C37 C38 1_555 1_555
C38 C39 1_555 1_555
C1A C2A 1_555 1_555
C3A C4A 1_555 1_555
C6A C7A 1_555 1_555
C7A C8A 1_555 1_555
C8A C9A 1_555 1_555
C11A C12A 1_555 1_555
C13A C14A 1_555 1_555
C16A C17A 1_555 1_555
C17A C18A 1_555 1_555
C18A C19A 1_555 1_555
C21A C22A 1_555 1_555
C23A C24A 1_555 1_555
C26A C27A 1_555 1_555
C27A C28A 1_555 1_555
C28A C29A 1_555 1_555
C31A C32A 1_555 1_555
C33A C34A 1_555 1_555
C36A C37A 1_555 1_555
C37A C38A 1_555 1_555
C38A C39A 1_555 1_555
N15D Cd3C 1_555 1_555
C1D C2D 1_555 1_555
C3D C4D 1_555 1_555
C6D C7D 1_555 1_555
C7D C8D 1_555 1_555
C8D C9D 1_555 1_555
C11D C12D 1_555 1_555
C13D C14D 1_555 1_555
C16D C17D 1_555 1_555
C17D C18D 1_555 1_555
C18D C19D 1_555 1_555
C21D C22D 1_555 1_555
C23D C24D 1_555 1_555
C26D C27D 1_555 1_555
C27D C28D 1_555 1_555
C28D C29D 1_555 1_555
C31D C32D 1_555 1_555
C33D C34D 1_555 1_555
C36D C37D 1_555 1_555
C37D C38D 1_555 1_555
C38D C39D 1_555 1_555
N15E Cd3B 1_555 1_555
C1E C2E 1_555 1_555
C3E C4E 1_555 1_555
C6E C7E 1_555 1_555
C7E C8E 1_555 1_555
C8E C9E 1_555 1_555
C11E C12E 1_555 1_555
C13E C14E 1_555 1_555
C16E C17E 1_555 1_555
C17E C18E 1_555 1_555
C18E C19E 1_555 1_555
C21E C22E 1_555 1_555
C23E C24E 1_555 1_555
C26E C27E 1_555 1_555
C27E C28E 1_555 1_555
C28E C29E 1_555 1_555
C31E C32E 1_555 1_555
C33E C34E 1_555 1_555
C36E C37E 1_555 1_555
C37E C38E 1_555 1_555
C38E C39E 1_555 1_555

#END
