
#######################################################################
#
#                 Cambridge Crystallographic Data Centre
#                                CCDC 
#
#######################################################################
#
# If this CIF has been generated from an entry in the Cambridge 
# Structural Database, then it will include bibliographic, chemical, 
# crystal, experimental, refinement or atomic coordinate data resulting 
# from the CCDC's data processing and validation procedures.
#
#######################################################################

data_QALHES
_chemical_formula_moiety         '(C6 H9 Br1 Cu3 N9 O2 1+)n'
_symmetry_cell_setting           cubic
_symmetry_space_group_name_H-M   'F d -3 c'
_symmetry_Int_Tables_number      228
_space_group_name_Hall           '-F 4ud 2vw 3'
loop_
_symmetry_equiv_pos_site_id
_symmetry_equiv_pos_as_xyz
1 x,y,z
2 z,x,y
3 y,z,x
4 3/4+y,1/4+x,-z
5 1/4+y,-x,3/4+z
6 -y,3/4+x,1/4+z
7 3/4+x,1/4+z,-y
8 -x,3/4+z,1/4+y
9 1/4+x,-z,3/4+y
10 3/4+z,1/4+y,-x
11 1/4+z,-y,3/4+x
12 -z,3/4+y,1/4+x
13 x,1/2+y,1/2+z
14 1/4-x,1/4-y,z
15 z,1/2+x,1/2+y
16 1/4-z,1/4-x,y
17 y,1/2+z,1/2+x
18 1/4-y,1/4-z,x
19 1/4+y,1/2-x,1/4+z
20 -y,1/4+x,3/4+z
21 -x,1/4+z,3/4+y
22 1/4+x,1/2-z,1/4+y
23 1/4+z,1/2-y,1/4+x
24 -z,1/4+y,3/4+x
25 1/2+x,y,1/2+z
26 x,1/4-y,1/4-z
27 1/2+z,x,1/2+y
28 z,1/4-x,1/4-y
29 1/2+y,z,1/2+x
30 y,1/4-z,1/4-x
31 1/4+y,1/4+x,1/2-z
32 3/4+y,-x,1/4+z
33 1/4+x,1/4+z,1/2-y
34 3/4+x,-z,1/4+y
35 1/4+z,1/4+y,1/2-x
36 3/4+z,-y,1/4+x
37 1/2+x,1/2+y,z
38 1/4-x,y,1/4-z
39 1/2+z,1/2+x,y
40 1/4-z,x,1/4-y
41 1/2+y,1/2+z,x
42 1/4-y,z,1/4-x
43 1/4+y,3/4+x,-z
44 1/2-y,1/4+x,1/4+z
45 1/4+x,3/4+z,-y
46 1/2-x,1/4+z,1/4+y
47 1/4+z,3/4+y,-x
48 1/2-z,1/4+y,1/4+x
49 1/4-x,3/4-y,1/2+z
50 3/4-x,1/2+y,1/4-z
51 1/2+x,1/4-y,3/4-z
52 1/2+z,1/4-x,3/4-y
53 1/4-z,3/4-x,1/2+y
54 3/4-z,1/2+x,1/4-y
55 3/4-y,1/2+z,1/4-x
56 1/2+y,1/4-z,3/4-x
57 1/4-y,3/4-z,1/2+x
58 1/2-y,1/2-x,1/2-z
59 1/2-x,1/2-z,1/2-y
60 1/2-z,1/2-y,1/2-x
61 3/4-x,y,3/4-z
62 1/2+x,3/4-y,1/4-z
63 1/2+z,3/4-x,1/4-y
64 3/4-z,x,3/4-y
65 3/4-y,z,3/4-x
66 1/2+y,3/4-z,1/4-x
67 3/4+y,3/4+x,1/2-z
68 1/2-y,-x,-z
69 3/4+x,3/4+z,1/2-y
70 1/2-x,-z,-y
71 3/4+z,3/4+y,1/2-x
72 1/2-z,-y,-x
73 3/4-x,3/4-y,z
74 1/4-x,1/2+y,3/4-z
75 3/4-z,3/4-x,y
76 1/4-z,1/2+x,3/4-y
77 1/4-y,1/2+z,3/4-x
78 3/4-y,3/4-z,x
79 -y,1/2-x,-z
80 1/2-y,3/4+x,3/4+z
81 1/2-x,3/4+z,3/4+y
82 -x,1/2-z,-y
83 1/2-z,3/4+y,3/4+x
84 -z,1/2-y,-x
85 3/4-x,1/4-y,1/2+z
86 x,3/4-y,3/4-z
87 z,3/4-x,3/4-y
88 3/4-z,1/4-x,1/2+y
89 y,3/4-z,3/4-x
90 3/4-y,1/4-z,1/2+x
91 -y,-x,1/2-z
92 3/4+y,1/2-x,3/4+z
93 -x,-z,1/2-y
94 3/4+x,1/2-z,3/4+y
95 3/4+z,1/2-y,3/4+x
96 -z,-y,1/2-x
97 -x,-y,-z
98 -z,-x,-y
99 -y,-z,-x
100 1/4-y,3/4-x,z
101 3/4-y,x,1/4-z
102 y,1/4-x,3/4-z
103 1/4-x,3/4-z,y
104 x,1/4-z,3/4-y
105 3/4-x,z,1/4-y
106 1/4-z,3/4-y,x
107 3/4-z,y,1/4-x
108 z,1/4-y,3/4-x
109 -x,1/2-y,1/2-z
110 3/4+x,3/4+y,-z
111 -z,1/2-x,1/2-y
112 3/4+z,3/4+x,-y
113 -y,1/2-z,1/2-x
114 3/4+y,3/4+z,-x
115 3/4-y,1/2+x,3/4-z
116 y,3/4-x,1/4-z
117 x,3/4-z,1/4-y
118 3/4-x,1/2+z,3/4-y
119 3/4-z,1/2+y,3/4-x
120 z,3/4-y,1/4-x
121 1/2-x,-y,1/2-z
122 -x,3/4+y,3/4+z
123 1/2-z,-x,1/2-y
124 -z,3/4+x,3/4+y
125 1/2-y,-z,1/2-x
126 -y,3/4+z,3/4+x
127 3/4-y,3/4-x,1/2+z
128 1/4-y,x,3/4-z
129 3/4-x,3/4-z,1/2+y
130 1/4-x,z,3/4-y
131 3/4-z,3/4-y,1/2+x
132 1/4-z,y,3/4-x
133 1/2-x,1/2-y,-z
134 3/4+x,-y,3/4+z
135 1/2-z,1/2-x,-y
136 3/4+z,-x,3/4+y
137 1/2-y,1/2-z,-x
138 3/4+y,-z,3/4+x
139 3/4-y,1/4-x,z
140 1/2+y,3/4-x,3/4-z
141 3/4-x,1/4-z,y
142 1/2+x,3/4-z,3/4-y
143 3/4-z,1/4-y,x
144 1/2+z,3/4-y,3/4-x
145 3/4+x,1/4+y,1/2-z
146 1/4+x,1/2-y,3/4+z
147 1/2-x,3/4+y,1/4+z
148 1/2-z,3/4+x,1/4+y
149 3/4+z,1/4+x,1/2-y
150 1/4+z,1/2-x,3/4+y
151 1/4+y,1/2-z,3/4+x
152 1/2-y,3/4+z,1/4+x
153 3/4+y,1/4+z,1/2-x
154 1/2+y,1/2+x,1/2+z
155 1/2+x,1/2+z,1/2+y
156 1/2+z,1/2+y,1/2+x
157 1/4+x,-y,1/4+z
158 1/2-x,1/4+y,3/4+z
159 1/2-z,1/4+x,3/4+y
160 1/4+z,-x,1/4+y
161 1/4+y,-z,1/4+x
162 1/2-y,1/4+z,3/4+x
163 1/4-y,1/4-x,1/2+z
164 1/2+y,x,z
165 1/4-x,1/4-z,1/2+y
166 1/2+x,z,y
167 1/4-z,1/4-y,1/2+x
168 1/2+z,y,x
169 1/4+x,1/4+y,-z
170 3/4+x,1/2-y,1/4+z
171 1/4+z,1/4+x,-y
172 3/4+z,1/2-x,1/4+y
173 3/4+y,1/2-z,1/4+x
174 1/4+y,1/4+z,-x
175 y,1/2+x,z
176 1/2+y,1/4-x,1/4-z
177 1/2+x,1/4-z,1/4-y
178 x,1/2+z,y
179 1/2+z,1/4-y,1/4-x
180 z,1/2+y,x
181 1/4+x,3/4+y,1/2-z
182 -x,1/4+y,1/4+z
183 -z,1/4+x,1/4+y
184 1/4+z,3/4+x,1/2-y
185 -y,1/4+z,1/4+x
186 1/4+y,3/4+z,1/2-x
187 y,x,1/2+z
188 1/4-y,1/2+x,1/4-z
189 x,z,1/2+y
190 1/4-x,1/2+z,1/4-y
191 1/4-z,1/2+y,1/4-x
192 z,y,1/2+x
_cell_length_a                   24.719(8)
_cell_length_b                   24.719(8)
_cell_length_c                   24.719(8)
_cell_angle_alpha                90
_cell_angle_beta                 90
_cell_angle_gamma                90
_cell_volume                     15104
loop_
_atom_site_label
_atom_site_type_symbol
_atom_site_fract_x
_atom_site_fract_y
_atom_site_fract_z
_atom_site_U_iso_or_equiv
_atom_site_thermal_displace_type
Br1 Br 0.5660 0.5148 0.6202 0.0874 Uani
Cu1 Cu 0.5000 0.4435 0.6935 0.0173 Uani
O1 O 0.5000 0.5000 0.7500 0.1114 Uani
N1 N 0.5000 0.3864 0.6364 0.0141 Uani
N2 N 0.4793 0.3136 0.5891 0.0153 Uani
C1 C 0.4682 0.3424 0.6327 0.0170 Uani
Cu1DF Cu 0.6935 0.3065 0.7500 0.0173 Uani
Cu1SC Cu 0.3065 0.5000 0.5565 0.0173 Uani
Cu1MA Cu 0.5565 0.5000 0.8065 0.0173 Uani
Cu1CA Cu 0.4435 0.5565 0.7500 0.0173 Uani
Cu1GD Cu 0.4435 0.2500 0.5565 0.0173 Uani
Cu1TC Cu 0.5565 0.3065 0.5000 0.0173 Uani
O1QE O 0.7500 0.2500 0.7500 0.1114 Uani
O1KF O 0.2500 0.5000 0.5000 0.1114 Uani
N1DF N 0.6364 0.3636 0.7500 0.0141 Uani
N1SC N 0.3636 0.5000 0.6136 0.0141 Uani
N2G N 0.5207 0.3391 0.5636 0.0153 Uani
N2DF N 0.5636 0.4109 0.7293 0.0153 Uani
N2OD N 0.5891 0.4364 0.7707 0.0153 Uani
N2VC N 0.4364 0.4793 0.6609 0.0153 Uani
N2SC N 0.4109 0.5207 0.6864 0.0153 Uani
N2ZA N 0.6609 0.2707 0.8136 0.0153 Uani
N2RA N 0.7293 0.3391 0.6864 0.0153 Uani
N2I N 0.3391 0.5636 0.5207 0.0153 Uani
N2TB N 0.2707 0.4364 0.5891 0.0153 Uani
C1G C 0.5318 0.3827 0.5924 0.0170 Uani
C1DF C 0.5924 0.3673 0.7182 0.0170 Uani
C1OD C 0.6327 0.4076 0.7818 0.0170 Uani
C1VC C 0.4076 0.4682 0.6173 0.0170 Uani
C1SC C 0.3673 0.5318 0.6576 0.0170 Uani
O2 O 0.4820 0.2680 0.7680 0.0440 Uani
loop_
_atom_site_aniso_label
_atom_site_aniso_U_11
_atom_site_aniso_U_22
_atom_site_aniso_U_33
_atom_site_aniso_U_23
_atom_site_aniso_U_13
_atom_site_aniso_U_12
Br1 0.054190 0.060330 0.147830 0.035030 -0.044460 -0.012980
Cu1 0.017530 0.016900 0.017530 -0.011800 -0.014120 0.011800
O1 0.111360 0.111360 0.111360 -0.109350 -0.109350 0.109350
N1 0.013800 0.014790 0.013800 -0.001880 -0.009460 0.001880
N2 0.01308 0.01748 0.01545 -0.00626 0.00886 -0.00885
C1 0.014450 0.018230 0.018320 0.001170 -0.009430 -0.004460
Cu1DF 0.0169 0.01753 0.01753 0.01412 0.0118 0.0118
Cu1SC 0.01753 0.01753 0.0169 0.0118 -0.0118 -0.01412
Cu1MA 0.01753 0.01753 0.0169 -0.0118 -0.0118 0.01412
Cu1CA 0.0169 0.01753 0.01753 -0.01412 -0.0118 0.0118
Cu1GD 0.01753 0.01753 0.0169 -0.0118 0.0118 -0.01412
Cu1TC 0.0169 0.01753 0.01753 -0.01412 0.0118 -0.0118
O1QE 0.11136 0.11136 0.11136 0.10935 0.10935 0.10935
O1KF 0.11136 0.11136 0.11136 0.10935 -0.10935 -0.10935
N1DF 0.01479 0.0138 0.0138 0.00946 0.00188 0.00188
N1SC 0.0138 0.0138 0.01479 0.00188 -0.00188 -0.00946
N2G 0.01308 0.01545 0.01748 -0.00626 0.00885 -0.00886
N2DF 0.01748 0.01545 0.01308 -0.00886 -0.00885 0.00626
N2OD 0.01545 0.01748 0.01308 -0.00885 -0.00886 0.00626
N2VC 0.01748 0.01308 0.01545 -0.00886 -0.00626 0.00885
N2SC 0.01545 0.01308 0.01748 -0.00885 -0.00626 0.00886
N2ZA 0.01545 0.01308 0.01748 0.00885 0.00626 0.00886
N2RA 0.01308 0.01545 0.01748 0.00626 0.00885 0.00886
N2I 0.01545 0.01748 0.01308 0.00885 -0.00886 -0.00626
N2TB 0.01308 0.01748 0.01545 0.00626 -0.00886 -0.00885
C1G 0.01445 0.01832 0.01823 0.00117 0.00446 0.00943
C1DF 0.01823 0.01832 0.01445 0.00943 -0.00446 -0.00117
C1OD 0.01832 0.01823 0.01445 -0.00446 0.00943 -0.00117
C1VC 0.01823 0.01445 0.01832 0.00943 0.00117 0.00446
C1SC 0.01832 0.01445 0.01823 -0.00446 0.00117 -0.00943
O2 0.043950 0.043950 0.043950 0.031500 0.031500 0.031500
loop_
_geom_bond_atom_site_label_1
_geom_bond_atom_site_label_2
_geom_bond_site_symmetry_1
_geom_bond_site_symmetry_2
Cu1 O1 1_555 1_555
O1 Cu1MA 1_555 1_555
N1 Cu1 1_555 1_555
N2 C1 1_555 1_555
C1 N1 1_555 1_555
Cu1DF O1QE 1_555 1_555
Cu1SC O1KF 1_555 1_555
Cu1MA N2OD 1_555 1_555
Cu1CA O1 1_555 1_555
Cu1GD N2 1_555 1_555
Cu1TC N2G 1_555 1_555
N1DF Cu1DF 1_555 1_555
N1SC Cu1SC 1_555 1_555
N2G N2 1_555 1_555
N2DF Cu1 1_555 1_555
N2OD N2DF 1_555 1_555
N2VC Cu1 1_555 1_555
N2SC Cu1CA 1_555 1_555
N2ZA Cu1DF 1_555 1_555
N2RA Cu1DF 1_555 1_555
N2I Cu1SC 1_555 1_555
N2TB Cu1SC 1_555 1_555
C1G N1 1_555 1_555
C1DF N1DF 1_555 1_555
C1OD N1DF 1_555 1_555
C1VC N1SC 1_555 1_555
C1SC N1SC 1_555 1_555
N2G C1G 1_555 1_555
N2DF C1DF 1_555 1_555
N2OD C1OD 1_555 1_555
N2VC N2SC 1_555 1_555
N2VC C1VC 1_555 1_555
N2SC C1SC 1_555 1_555

#END
