
#######################################################################
#
#                 Cambridge Crystallographic Data Centre
#                                CCDC 
#
#######################################################################
#
# If this CIF has been generated from an entry in the Cambridge 
# Structural Database, then it will include bibliographic, chemical, 
# crystal, experimental, refinement or atomic coordinate data resulting 
# from the CCDC's data processing and validation procedures.
#
#######################################################################

data_TUWFIC
_chemical_formula_moiety         '(C54 H40 O47 Zn11 4-)n'
_symmetry_cell_setting           cubic
_symmetry_space_group_name_H-M   'P m 3 m'
_symmetry_Int_Tables_number      221
_space_group_name_Hall           '-P 4 2 3'
loop_
_symmetry_equiv_pos_site_id
_symmetry_equiv_pos_as_xyz
1 x,y,z
2 -x,-y,z
3 -x,y,-z
4 x,-y,-z
5 z,x,y
6 z,-x,-y
7 -z,-x,y
8 -z,x,-y
9 y,z,x
10 -y,z,-x
11 y,-z,-x
12 -y,-z,x
13 y,x,-z
14 -y,-x,-z
15 y,-x,z
16 -y,x,z
17 x,z,-y
18 -x,z,y
19 -x,-z,-y
20 x,-z,y
21 z,y,-x
22 z,-y,x
23 -z,y,x
24 -z,-y,-x
25 -x,-y,-z
26 x,y,-z
27 x,-y,z
28 -x,y,z
29 -z,-x,-y
30 -z,x,y
31 z,x,-y
32 z,-x,y
33 -y,-z,-x
34 y,-z,x
35 -y,z,x
36 y,z,-x
37 -y,-x,z
38 y,x,z
39 -y,x,-z
40 y,-x,-z
41 -x,-z,y
42 x,-z,-y
43 x,z,y
44 -x,z,-y
45 -z,-y,x
46 -z,y,-x
47 z,-y,-x
48 z,y,x
_cell_length_a                   20.251(2)
_cell_length_b                   20.251(2)
_cell_length_c                   20.251(2)
_cell_angle_alpha                90
_cell_angle_beta                 90
_cell_angle_gamma                90
_cell_volume                     8305
loop_
_atom_site_label
_atom_site_type_symbol
_atom_site_fract_x
_atom_site_fract_y
_atom_site_fract_z
Zn1 Zn 0.16237(13) 0.16237(13) 0.16237(13)
Zn2 Zn 0.26359(14) 0.26359(14) 0.26359(14)
O1 O 0.1795(11) 0.2829(6) 0.2829(6)
O2 O 0.324(4) 0.324(4) 0.324(4)
O3 O 0.1690(10) 0.5000 0.5000
Zn3 Zn 0.0731(4) 0.5000 0.5000
O4 O 0.0578(8) 0.4294(6) 0.4294(6)
O5 O 0.1188(11) 0.2235(11) 0.2235(11)
O6 O 0.103(4) 0.103(4) 0.103(4)
C1 C -0.0000 0.3630(7) 0.3630(7)
C2 C 0.0583(7) 0.3391(7) 0.3391(7)
H1 H 0.0985 0.3562 0.3562
C3 C 0.0607(7) 0.2905(7) 0.2905(7)
C4 C 0.0000 0.2661(7) 0.2661(7)
H2 H 0.0000 0.2330 0.2330
C5 C 0.0000 0.4205(11) 0.4205(11)
C6 C 0.1258(11) 0.2653(9) 0.2653(9)
O1Q O -0.1795(11) 0.2829(6) 0.2829(6)
O4Q O -0.0578(8) 0.4294(6) 0.4294(6)
O5Q O -0.1188(11) 0.2235(11) 0.2235(11)
C2Q C -0.0583(7) 0.3391(7) 0.3391(7)
H1Q H -0.0985 0.3562 0.3562
C3Q C -0.0607(7) 0.2905(7) 0.2905(7)
C6Q C -0.1258(11) 0.2653(9) 0.2653(9)
O1A O -0.1795(11) 0.7171(6) 0.2829(6)
O3A O -0.1690(10) 0.5000 0.5000
Zn3A Zn -0.0731(4) 0.5000 0.5000
O4A O -0.0578(8) 0.5706(6) 0.4294(6)
O5A O -0.1188(11) 0.7765(11) 0.2235(11)
C1A C -0.0000 0.6370(7) 0.3630(7)
C2A C -0.0583(7) 0.6609(7) 0.3391(7)
H1A H -0.0985 0.6438 0.3562
C3A C -0.0607(7) 0.7095(7) 0.2905(7)
C4A C 0.0000 0.7339(7) 0.2661(7)
H2A H -0.0000 0.7670 0.2330
C5A C -0.0000 0.5795(11) 0.4205(11)
C6A C -0.1258(11) 0.7347(9) 0.2653(9)
O1S O 0.1795(11) 0.7171(6) 0.2829(6)
O4S O 0.0578(8) 0.5706(6) 0.4294(6)
O5S O 0.1188(11) 0.7765(11) 0.2235(11)
C2S C 0.0583(7) 0.6609(7) 0.3391(7)
H1S H 0.0985 0.6438 0.3562
C3S C 0.0607(7) 0.7095(7) 0.2905(7)
C6S C 0.1258(11) 0.7347(9) 0.2653(9)
O1B O -0.1795(11) 0.2829(6) 0.7171(6)
O4B O -0.0578(8) 0.4294(6) 0.5706(6)
O5B O -0.1188(11) 0.2235(11) 0.7765(11)
C1B C -0.0000 0.3630(7) 0.6370(7)
C2B C -0.0583(7) 0.3391(7) 0.6609(7)
H1B H -0.0985 0.3562 0.6438
C3B C -0.0607(7) 0.2905(7) 0.7095(7)
C4B C 0.0000 0.2661(7) 0.7339(7)
H2B H 0.0000 0.2330 0.7670
C5B C -0.0000 0.4205(11) 0.5795(11)
C6B C -0.1258(11) 0.2653(9) 0.7347(9)
O1P O 0.1795(11) 0.2829(6) 0.7171(6)
O4P O 0.0578(8) 0.4294(6) 0.5706(6)
O5P O 0.1188(11) 0.2235(11) 0.7765(11)
C2P C 0.0583(7) 0.3391(7) 0.6609(7)
H1P H 0.0985 0.3562 0.6438
C3P C 0.0607(7) 0.2905(7) 0.7095(7)
C6P C 0.1258(11) 0.2653(9) 0.7347(9)
Zn1C Zn 0.16237(13) 0.83763(13) 0.83763(13)
Zn2C Zn 0.26359(14) 0.73641(14) 0.73641(14)
O1C O 0.1795(11) 0.7171(6) 0.7171(6)
O2C O 0.324(4) 0.676(4) 0.676(4)
O4C O 0.0578(8) 0.5706(6) 0.5706(6)
O5C O 0.1188(11) 0.7765(11) 0.7765(11)
O6C O 0.103(4) 0.897(4) 0.897(4)
C1C C 0.0000 0.6370(7) 0.6370(7)
C2C C 0.0583(7) 0.6609(7) 0.6609(7)
H1C H 0.0985 0.6438 0.6438
C3C C 0.0607(7) 0.7095(7) 0.7095(7)
C4C C 0.0000 0.7339(7) 0.7339(7)
H2C H -0.0000 0.7670 0.7670
C5C C 0.0000 0.5795(11) 0.5795(11)
C6C C 0.1258(11) 0.7347(9) 0.7347(9)
O1R O -0.1795(11) 0.7171(6) 0.7171(6)
O4R O -0.0578(8) 0.5706(6) 0.5706(6)
O5R O -0.1188(11) 0.7765(11) 0.7765(11)
C2R C -0.0583(7) 0.6609(7) 0.6609(7)
H1R H -0.0985 0.6438 0.6438
C3R C -0.0607(7) 0.7095(7) 0.7095(7)
C6R C -0.1258(11) 0.7347(9) 0.7347(9)
O1D O 0.2829(6) 0.1795(11) 0.2829(6)
O3D O 0.5000 0.1690(10) 0.5000
Zn3D Zn 0.5000 0.0731(4) 0.5000
O4D O 0.4294(6) 0.0578(8) 0.4294(6)
O5D O 0.2235(11) 0.1188(11) 0.2235(11)
C1D C 0.3630(7) 0.0000 0.3630(7)
C2D C 0.3391(7) 0.0583(7) 0.3391(7)
H1D H 0.3562 0.0985 0.3562
C3D C 0.2905(7) 0.0607(7) 0.2905(7)
C4D C 0.2661(7) 0.0000 0.2661(7)
H2D H 0.2330 0.0000 0.2330
C5D C 0.4205(11) 0.0000 0.4205(11)
C6D C 0.2653(9) 0.1258(11) 0.2653(9)
O1N O 0.2829(6) -0.1795(11) 0.2829(6)
O4N O 0.4294(6) -0.0578(8) 0.4294(6)
O5N O 0.2235(11) -0.1188(11) 0.2235(11)
C2N C 0.3391(7) -0.0583(7) 0.3391(7)
H1N H 0.3562 -0.0985 0.3562
C3N C 0.2905(7) -0.0607(7) 0.2905(7)
C6N C 0.2653(9) -0.1258(11) 0.2653(9)
O1H O 0.2829(6) 0.2829(6) 0.1795(11)
O4H O 0.4294(6) 0.4294(6) 0.0578(8)
O5H O 0.2235(11) 0.2235(11) 0.1188(11)
C1H C 0.3630(7) 0.3630(7) 0.0000
C2H C 0.3391(7) 0.3391(7) 0.0583(7)
H1H H 0.3562 0.3562 0.0985
C3H C 0.2905(7) 0.2905(7) 0.0607(7)
C4H C 0.2661(7) 0.2661(7) 0.0000
H2H H 0.2330 0.2330 0.0000
C5H C 0.4205(11) 0.4205(11) 0.0000
C6H C 0.2653(9) 0.2653(9) 0.1258(11)
O1T O 0.2829(6) 0.2829(6) -0.1795(11)
O4T O 0.4294(6) 0.4294(6) -0.0578(8)
O5T O 0.2235(11) 0.2235(11) -0.1188(11)
C2T C 0.3391(7) 0.3391(7) -0.0583(7)
H1T H 0.3562 0.3562 -0.0985
C3T C 0.2905(7) 0.2905(7) -0.0607(7)
C6T C 0.2653(9) 0.2653(9) -0.1258(11)
Zn1L Zn 0.16237(13) 0.16237(13) 0.83763(13)
Zn2L Zn 0.26359(14) 0.26359(14) 0.73641(14)
O2L O 0.324(4) 0.324(4) 0.676(4)
O6L O 0.103(4) 0.103(4) 0.897(4)
Zn1N Zn 0.16237(13) -0.16237(13) 0.16237(13)
Zn2N Zn 0.26359(14) -0.26359(14) 0.26359(14)
O2N O 0.324(4) -0.324(4) 0.324(4)
O6N O 0.103(4) -0.103(4) 0.103(4)
Zn1A Zn -0.16237(13) 0.83763(13) 0.16237(13)
Zn1B Zn -0.16237(13) 0.16237(13) 0.83763(13)
Zn1L_2 Zn 0.16237(13) 0.16237(13) -0.16237(13)
Zn1M Zn -0.16237(13) 0.83763(13) 0.83763(13)
Zn1N_2 Zn 0.16237(13) 0.83763(13) 0.16237(13)
Zn1O Zn -0.16237(13) 0.16237(13) 0.16237(13)
Zn2A Zn -0.26359(14) 0.73641(14) 0.26359(14)
Zn2B Zn -0.26359(14) 0.26359(14) 0.73641(14)
Zn2L_2 Zn 0.26359(14) 0.26359(14) -0.26359(14)
Zn2M Zn -0.26359(14) 0.73641(14) 0.73641(14)
Zn2N_2 Zn 0.26359(14) 0.73641(14) 0.26359(14)
Zn2O Zn -0.26359(14) 0.26359(14) 0.26359(14)
O1E O 0.2829(6) 0.8205(11) 0.7171(6)
O1J O 0.2829(6) 0.7171(6) 0.8205(11)
O1L O 0.2829(6) 0.1795(11) 0.7171(6)
O1S_2 O 0.1795(11) -0.2829(6) 0.2829(6)
O1T_2 O 0.2829(6) 0.2829(6) 0.8205(11)
O1U O 0.2829(6) -0.2829(6) 0.1795(11)
Zn3E Zn 0.5000 -0.0731(4) 0.5000
Zn3H Zn 0.5000 0.5000 0.0731(4)
Zn3I Zn 0.5000 0.5000 -0.0731(4)
O4G O 0.5706(6) 0.0578(8) 0.5706(6)
O4L O 0.4294(6) 0.0578(8) 0.5706(6)
O4O O 0.5706(6) 0.0578(8) 0.4294(6)
O5E O 0.2235(11) 0.8812(11) 0.7765(11)
O5J O 0.2235(11) 0.7765(11) 0.8812(11)
O5L O 0.2235(11) 0.1188(11) 0.7765(11)
O5S_2 O 0.1188(11) -0.2235(11) 0.2235(11)
O5T_2 O 0.2235(11) 0.2235(11) 0.8812(11)
O5U O 0.2235(11) -0.2235(11) 0.1188(11)
loop_
_geom_bond_atom_site_label_1
_geom_bond_atom_site_label_2
_geom_bond_site_symmetry_1
_geom_bond_site_symmetry_2
Zn1 O5 1_555 1_555
Zn2 O1 1_555 1_555
O1 C6 1_555 1_555
O2 Zn2 1_555 1_555
O3 Zn3 1_555 1_555
Zn3 O4 1_555 1_555
O4 C5 1_555 1_555
O5 C6 1_555 1_555
O6 Zn1 1_555 1_555
C1 C2 1_555 1_555
C2 H1 1_555 1_555
C3 C2 1_555 1_555
C4 C3 1_555 1_555
H2 C4 1_555 1_555
C5 C1 1_555 1_555
C6 C3 1_555 1_555
O1Q C6Q 1_555 1_555
O4Q C5 1_555 1_555
O5Q C6Q 1_555 1_555
C2Q C1 1_555 1_555
H1Q C2Q 1_555 1_555
C3Q C4 1_555 1_555
C6Q C3Q 1_555 1_555
O1A C6A 1_555 1_555
O3A Zn3A 1_555 1_555
Zn3A O4Q 1_555 1_555
O4A Zn3A 1_555 1_555
O5A C6A 1_555 1_555
C1A C2A 1_555 1_555
C2A H1A 1_555 1_555
C3A C2A 1_555 1_555
C4A C3A 1_555 1_555
H2A C4A 1_555 1_555
C5A O4A 1_555 1_555
C6A C3A 1_555 1_555
O1S C6S 1_555 1_555
O4S Zn3 1_555 1_555
O5S C6S 1_555 1_555
C2S C1A 1_555 1_555
H1S C2S 1_555 1_555
C3S C4A 1_555 1_555
C6S C3S 1_555 1_555
O1B C6B 1_555 1_555
O4B Zn3A 1_555 1_555
O5B C6B 1_555 1_555
C1B C2B 1_555 1_555
C2B H1B 1_555 1_555
C3B C2B 1_555 1_555
C4B C3B 1_555 1_555
H2B C4B 1_555 1_555
C5B O4B 1_555 1_555
C6B C3B 1_555 1_555
O1P C6P 1_555 1_555
O4P Zn3 1_555 1_555
O5P C6P 1_555 1_555
C2P C1B 1_555 1_555
H1P C2P 1_555 1_555
C3P C4B 1_555 1_555
C6P C3P 1_555 1_555
Zn1C O5C 1_555 1_555
Zn2C O1C 1_555 1_555
O1C C6C 1_555 1_555
O2C Zn2C 1_555 1_555
O4C Zn3 1_555 1_555
O5C C6C 1_555 1_555
O6C Zn1C 1_555 1_555
C1C C2C 1_555 1_555
C2C H1C 1_555 1_555
C3C C2C 1_555 1_555
C4C C3C 1_555 1_555
H2C C4C 1_555 1_555
C5C O4C 1_555 1_555
C6C C3C 1_555 1_555
O1R C6R 1_555 1_555
O4R Zn3A 1_555 1_555
O5R C6R 1_555 1_555
C2R C1C 1_555 1_555
H1R C2R 1_555 1_555
C3R C4C 1_555 1_555
C6R C3R 1_555 1_555
O1D Zn2 1_555 1_555
O3D Zn3D 1_555 1_555
Zn3D O4D 1_555 1_555
O4D C5D 1_555 1_555
O5D Zn1 1_555 1_555
C1D C2D 1_555 1_555
C2D H1D 1_555 1_555
C3D C2D 1_555 1_555
C4D C3D 1_555 1_555
H2D C4D 1_555 1_555
C5D C1D 1_555 1_555
C6D O1D 1_555 1_555
O1N C6N 1_555 1_555
O4N C5D 1_555 1_555
O5N C6N 1_555 1_555
C2N C1D 1_555 1_555
H1N C2N 1_555 1_555
C3N C4D 1_555 1_555
C6N C3N 1_555 1_555
O1H Zn2 1_555 1_555
O4H C5H 1_555 1_555
O5H Zn1 1_555 1_555
C1H C2H 1_555 1_555
C2H H1H 1_555 1_555
C3H C2H 1_555 1_555
C4H C3H 1_555 1_555
H2H C4H 1_555 1_555
C5H C1H 1_555 1_555
C6H O1H 1_555 1_555
O1T C6T 1_555 1_555
O4T C5H 1_555 1_555
O5T C6T 1_555 1_555
C2T C1H 1_555 1_555
H1T C2T 1_555 1_555
C3T C4H 1_555 1_555
C6T C3T 1_555 1_555
Zn1L O5P 1_555 1_555
Zn2L O1P 1_555 1_555
O2L Zn2L 1_555 1_555
O6L Zn1L 1_555 1_555
Zn1N O5N 1_555 1_555
Zn2N O1N 1_555 1_555
O2N Zn2N 1_555 1_555
O6N Zn1N 1_555 1_555
Zn1A O5A 1_555 1_555
Zn1B O5B 1_555 1_555
Zn1L_2 O5T 1_555 1_555
Zn1M O5R 1_555 1_555
Zn1N_2 O5S 1_555 1_555
Zn1O O5Q 1_555 1_555
Zn2A O1A 1_555 1_555
Zn2B O1B 1_555 1_555
Zn2L_2 O1T 1_555 1_555
Zn2M O1R 1_555 1_555
Zn2N_2 O1S 1_555 1_555
Zn2O O1Q 1_555 1_555
O1E Zn2C 1_555 1_555
O1J Zn2C 1_555 1_555
O1L Zn2L 1_555 1_555
O1S_2 Zn2N 1_555 1_555
O1T_2 Zn2L 1_555 1_555
O1U Zn2N 1_555 1_555
Zn3E O4N 1_555 1_555
Zn3H O4H 1_555 1_555
Zn3I O4T 1_555 1_555
O4G Zn3D 1_555 1_555
O4L Zn3D 1_555 1_555
O4O Zn3D 1_555 1_555
O5E Zn1C 1_555 1_555
O5J Zn1C 1_555 1_555
O5L Zn1L 1_555 1_555
O5S_2 Zn1N 1_555 1_555
O5T_2 Zn1L 1_555 1_555
O5U Zn1N 1_555 1_555
C2Q C3Q 1_555 1_555
C1A C5A 1_555 1_555
C5A O4S 1_555 1_555
C2S C3S 1_555 1_555
C1B C5B 1_555 1_555
C5B O4P 1_555 1_555
C2P C3P 1_555 1_555
C1C C5C 1_555 1_555
C5C O4R 1_555 1_555
C2R C3R 1_555 1_555
O5D C6D 1_555 1_555
C3D C6D 1_555 1_555
C2N C3N 1_555 1_555
O5H C6H 1_555 1_555
C3H C6H 1_555 1_555
C2T C3T 1_555 1_555

#END
