
#######################################################################
#
#                 Cambridge Crystallographic Data Centre
#                                CCDC 
#
#######################################################################
#
# If this CIF has been generated from an entry in the Cambridge 
# Structural Database, then it will include bibliographic, chemical, 
# crystal, experimental, refinement or atomic coordinate data resulting 
# from the CCDC's data processing and validation procedures.
#
#######################################################################

data_IJANAJ
_chemical_formula_moiety         '(C38 H34 N4 O18 Zn3)n'
_symmetry_cell_setting           triclinic
_symmetry_space_group_name_H-M   'P -1'
_symmetry_Int_Tables_number      2
_space_group_name_Hall           '-P 1'
loop_
_symmetry_equiv_pos_site_id
_symmetry_equiv_pos_as_xyz
1 x,y,z
2 -x,-y,-z
_cell_length_a                   9.349(4)
_cell_length_b                   10.441(5)
_cell_length_c                   12.177(6)
_cell_angle_alpha                109.956(5)
_cell_angle_beta                 103.388(4)
_cell_angle_gamma                90.275(4)
_cell_volume                     1082.32
loop_
_atom_site_label
_atom_site_type_symbol
_atom_site_fract_x
_atom_site_fract_y
_atom_site_fract_z
Zn1 Zn -0.260550(18) 1.926920(17) 1.513440(15)
Zn2 Zn 0.5000 1.5000 1.5000
O1 O -0.05698(13) 1.88715(13) 1.56242(12)
O2 O -0.09017(13) 1.75501(14) 1.66648(12)
O3 O 0.12768(14) 1.67181(11) 1.41844(11)
O4 O 0.22311(14) 1.87090(11) 1.42931(10)
O5 O 0.51383(13) 1.71201(11) 1.51267(10)
O6 O 0.59879(13) 1.93067(12) 1.60810(12)
N1 N 0.68352(15) 1.82785(14) 2.33415(12)
N2 N 0.53951(16) 1.55610(14) 1.69438(12)
C1 C 0.15305(16) 1.84022(15) 1.68497(13)
C2 C 0.25160(16) 1.82679(14) 1.61192(13)
C3 C 0.40321(16) 1.85077(14) 1.66576(13)
C4 C 0.45502(18) 1.89505(17) 1.79106(14)
H1 H 0.5555 1.9173 1.8268
C5 C 0.35602(19) 1.90565(19) 1.86184(14)
H2 H 0.3908 1.9323 1.9451
C6 C 0.20595(18) 1.87703(18) 1.80994(14)
H3 H 0.1404 1.8822 1.8580
C7 C -0.01164(17) 1.82324(16) 1.63385(14)
C8 C 0.19521(16) 1.78640(15) 1.47680(13)
C9 C 0.51214(16) 1.82687(15) 1.58872(13)
C10 C 0.7930(2) 1.8014(2) 2.27794(16)
H4 H 0.8900 1.8235 2.3240
C11 C 0.7673(2) 1.7425(2) 2.15378(16)
H5 H 0.8462 1.7256 2.1179
C12 C 0.62271(18) 1.70863(16) 2.08259(14)
C13 C 0.5105(2) 1.73465(19) 2.14217(15)
H6 H 0.4124 1.7128 2.0985
C14 C 0.54428(19) 1.79302(18) 2.26639(15)
H7 H 0.4674 1.8088 2.3047
C15 C 0.59262(19) 1.65087(17) 1.94856(14)
C16 C 0.7051(2) 1.6514(3) 1.89037(18)
H8 H 0.8013 1.6830 1.9356
C17 C 0.6739(2) 1.6055(3) 1.76674(18)
H9 H 0.7509 1.6088 1.7310
C18 C 0.4321(2) 1.55218(19) 1.75023(15)
H10 H 0.3378 1.5161 1.7031
C19 C 0.4551(2) 1.59932(19) 1.87476(15)
H11 H 0.3763 1.5959 1.9085
O7 O 0.27349(13) 1.48152(12) 1.48995(10)
Zn1A Zn 1.260550(18) 1.073080(17) 1.486560(15)
Zn1A_2 Zn 0.260550(18) 2.073080(17) 1.486560(15)
Zn1_2 Zn 0.739450(18) 1.926920(17) 1.513440(15)
Zn1_3 Zn 0.739450(18) 1.926920(17) 2.513440(15)
Zn1_4 Zn 0.739450(18) 0.926920(17) 1.513440(15)
Zn1A_3 Zn 0.260550(18) 1.073080(17) 1.486560(15)
Zn1A_4 Zn 0.260550(18) 1.073080(17) 0.486560(15)
O1A O 1.05698(13) 1.11285(13) 1.43758(12)
O2A O 1.09017(13) 1.24499(14) 1.33352(12)
O3A O 0.87232(14) 1.32819(11) 1.58156(11)
O4A O 0.77689(14) 1.12910(11) 1.57069(10)
O4A_2 O -0.22311(14) 2.12910(11) 1.57069(10)
O4_2 O 1.22311(14) 0.87090(11) 1.42931(10)
O5A O 0.48617(13) 1.28799(11) 1.48733(10)
O6A O 0.40121(13) 1.06933(12) 1.39190(12)
O6_2 O -0.40121(13) 1.93067(12) 1.60810(12)
O6A_2 O 1.40121(13) 1.06933(12) 1.39190(12)
N1A N 0.31648(15) 1.17215(14) 0.66585(12)
N1_2 N -0.31648(15) 1.82785(14) 1.33415(12)
N1A_2 N 1.31648(15) 1.17215(14) 1.66585(12)
N2A N 0.46049(16) 1.44390(14) 1.30562(12)
C1A C 0.84695(16) 1.15978(15) 1.31503(13)
C2A C 0.74840(16) 1.17321(14) 1.38808(13)
C3A C 0.59679(16) 1.14923(14) 1.33424(13)
C4A C 0.54498(18) 1.10495(17) 1.20894(14)
H1A H 0.4445 1.0827 1.1732
C5A C 0.64398(19) 1.09435(19) 1.13816(14)
H2A H 0.6092 1.0677 1.0549
C6A C 0.79405(18) 1.12297(18) 1.19006(14)
H3A H 0.8596 1.1178 1.1420
C7A C 1.01164(17) 1.17676(16) 1.36615(14)
C8A C 0.80479(16) 1.21360(15) 1.52320(13)
C9A C 0.48786(16) 1.17313(15) 1.41128(13)
C10A C 0.2070(2) 1.1986(2) 0.72206(16)
H4A H 0.1100 1.1765 0.6760
C11A C 0.2327(2) 1.2575(2) 0.84622(16)
H5A H 0.1538 1.2744 0.8821
C12A C 0.37729(18) 1.29137(16) 0.91741(14)
C13A C 0.4895(2) 1.26535(19) 0.85783(15)
H6A H 0.5876 1.2872 0.9015
C14A C 0.45572(19) 1.20698(18) 0.73361(15)
H7A H 0.5326 1.1912 0.6953
C15A C 0.40738(19) 1.34913(17) 1.05144(14)
C16A C 0.2949(2) 1.3486(3) 1.10963(18)
H8A H 0.1987 1.3170 1.0644
C17A C 0.3261(2) 1.3945(3) 1.23326(18)
H9A H 0.2491 1.3912 1.2690
C18A C 0.5679(2) 1.44782(19) 1.24977(15)
H10A H 0.6622 1.4839 1.2969
C19A C 0.5449(2) 1.40068(19) 1.12524(15)
H11A H 0.6237 1.4041 1.0915
O7A O 0.72651(13) 1.51848(12) 1.51005(10)
O8 O 1.0710(8) 1.5623(7) 0.9858(7)
O9 O 1.1426(4) 1.8070(4) 1.1719(2)
O10 O 0.8652(3) 1.9708(3) 1.9015(2)
O11 O 0.9315(2) 1.45130(18) 1.24525(17)
loop_
_geom_bond_atom_site_label_1
_geom_bond_atom_site_label_2
_geom_bond_site_symmetry_1
_geom_bond_site_symmetry_2
Zn1 O1 1_555 1_555
Zn2 O5 1_555 1_555
O1 C7 1_555 1_555
O2 C7 1_555 1_555
O3 C8 1_555 1_555
O4 C8 1_555 1_555
O5 C9 1_555 1_555
O6 C9 1_555 1_555
N1 C10 1_555 1_555
N2 Zn2 1_555 1_555
C1 C2 1_555 1_555
C2 C3 1_555 1_555
C3 C4 1_555 1_555
C4 H1 1_555 1_555
C5 C4 1_555 1_555
H2 C5 1_555 1_555
C6 C1 1_555 1_555
H3 C6 1_555 1_555
C7 C1 1_555 1_555
C8 C2 1_555 1_555
C9 C3 1_555 1_555
C10 H4 1_555 1_555
C11 C10 1_555 1_555
H5 C11 1_555 1_555
C12 C11 1_555 1_555
C13 C12 1_555 1_555
H6 C13 1_555 1_555
C14 N1 1_555 1_555
H7 C14 1_555 1_555
C15 C12 1_555 1_555
C16 C15 1_555 1_555
H8 C16 1_555 1_555
C17 N2 1_555 1_555
H9 C17 1_555 1_555
C18 N2 1_555 1_555
H10 C18 1_555 1_555
C19 C15 1_555 1_555
H11 C19 1_555 1_555
O7 Zn2 1_555 1_555
Zn1A O1A 1_555 1_555
Zn1A_2 O4 1_555 1_555
Zn1_2 O6 1_555 1_555
Zn1_3 N1 1_555 1_555
Zn1_4 O4A 1_555 1_555
Zn1A_3 O6A 1_555 1_555
Zn1A_4 N1A 1_555 1_555
O1A C7A 1_555 1_555
O2A C7A 1_555 1_555
O3A C8A 1_555 1_555
O4A C8A 1_555 1_555
O4A_2 Zn1 1_555 1_555
O4_2 Zn1A 1_555 1_555
O5A Zn2 1_555 1_555
O6A C9A 1_555 1_555
O6_2 Zn1 1_555 1_555
O6A_2 Zn1A 1_555 1_555
N1A C10A 1_555 1_555
N1_2 Zn1 1_555 1_555
N1A_2 Zn1A 1_555 1_555
N2A Zn2 1_555 1_555
C1A C2A 1_555 1_555
C2A C3A 1_555 1_555
C3A C4A 1_555 1_555
C4A H1A 1_555 1_555
C5A C4A 1_555 1_555
H2A C5A 1_555 1_555
C6A C1A 1_555 1_555
H3A C6A 1_555 1_555
C7A C1A 1_555 1_555
C8A C2A 1_555 1_555
C9A O5A 1_555 1_555
C10A H4A 1_555 1_555
C11A C10A 1_555 1_555
H5A C11A 1_555 1_555
C12A C11A 1_555 1_555
C13A C12A 1_555 1_555
H6A C13A 1_555 1_555
C14A N1A 1_555 1_555
H7A C14A 1_555 1_555
C15A C12A 1_555 1_555
C16A C15A 1_555 1_555
H8A C16A 1_555 1_555
C17A N2A 1_555 1_555
H9A C17A 1_555 1_555
C18A N2A 1_555 1_555
H10A C18A 1_555 1_555
C19A C15A 1_555 1_555
H11A C19A 1_555 1_555
O7A Zn2 1_555 1_555
C5 C6 1_555 1_555
C13 C14 1_555 1_555
C16 C17 1_555 1_555
C18 C19 1_555 1_555
C3A C9A 1_555 1_555
C5A C6A 1_555 1_555
C13A C14A 1_555 1_555
C16A C17A 1_555 1_555
C18A C19A 1_555 1_555

#END
