
#######################################################################
#
#                 Cambridge Crystallographic Data Centre
#                                CCDC 
#
#######################################################################
#
# If this CIF has been generated from an entry in the Cambridge 
# Structural Database, then it will include bibliographic, chemical, 
# crystal, experimental, refinement or atomic coordinate data resulting 
# from the CCDC's data processing and validation procedures.
#
#######################################################################

data_PACZOK
_chemical_formula_moiety         '(C25 H4 N3 O19 P2 V5 2-)n'
_symmetry_cell_setting           cubic
_symmetry_space_group_name_H-M   'I m -3 m'
_symmetry_Int_Tables_number      229
_space_group_name_Hall           '-I 4 2 3'
loop_
_symmetry_equiv_pos_site_id
_symmetry_equiv_pos_as_xyz
1 x,y,z
2 -x,-y,z
3 -x,y,-z
4 x,-y,-z
5 z,x,y
6 z,-x,-y
7 -z,-x,y
8 -z,x,-y
9 y,z,x
10 -y,z,-x
11 y,-z,-x
12 -y,-z,x
13 y,x,-z
14 -y,-x,-z
15 y,-x,z
16 -y,x,z
17 x,z,-y
18 -x,z,y
19 -x,-z,-y
20 x,-z,y
21 z,y,-x
22 z,-y,x
23 -z,y,x
24 -z,-y,-x
25 1/2+x,1/2+y,1/2+z
26 1/2-x,1/2-y,1/2+z
27 1/2-x,1/2+y,1/2-z
28 1/2+x,1/2-y,1/2-z
29 1/2+z,1/2+x,1/2+y
30 1/2+z,1/2-x,1/2-y
31 1/2-z,1/2-x,1/2+y
32 1/2-z,1/2+x,1/2-y
33 1/2+y,1/2+z,1/2+x
34 1/2-y,1/2+z,1/2-x
35 1/2+y,1/2-z,1/2-x
36 1/2-y,1/2-z,1/2+x
37 1/2+y,1/2+x,1/2-z
38 1/2-y,1/2-x,1/2-z
39 1/2+y,1/2-x,1/2+z
40 1/2-y,1/2+x,1/2+z
41 1/2+x,1/2+z,1/2-y
42 1/2-x,1/2+z,1/2+y
43 1/2-x,1/2-z,1/2-y
44 1/2+x,1/2-z,1/2+y
45 1/2+z,1/2+y,1/2-x
46 1/2+z,1/2-y,1/2+x
47 1/2-z,1/2+y,1/2+x
48 1/2-z,1/2-y,1/2-x
49 -x,-y,-z
50 x,y,-z
51 x,-y,z
52 -x,y,z
53 -z,-x,-y
54 -z,x,y
55 z,x,-y
56 z,-x,y
57 -y,-z,-x
58 y,-z,x
59 -y,z,x
60 y,z,-x
61 -y,-x,z
62 y,x,z
63 -y,x,-z
64 y,-x,-z
65 -x,-z,y
66 x,-z,-y
67 x,z,y
68 -x,z,-y
69 -z,-y,x
70 -z,y,-x
71 z,-y,-x
72 z,y,x
73 1/2-x,1/2-y,1/2-z
74 1/2+x,1/2+y,1/2-z
75 1/2+x,1/2-y,1/2+z
76 1/2-x,1/2+y,1/2+z
77 1/2-z,1/2-x,1/2-y
78 1/2-z,1/2+x,1/2+y
79 1/2+z,1/2+x,1/2-y
80 1/2+z,1/2-x,1/2+y
81 1/2-y,1/2-z,1/2-x
82 1/2+y,1/2-z,1/2+x
83 1/2-y,1/2+z,1/2+x
84 1/2+y,1/2+z,1/2-x
85 1/2-y,1/2-x,1/2+z
86 1/2+y,1/2+x,1/2+z
87 1/2-y,1/2+x,1/2-z
88 1/2+y,1/2-x,1/2-z
89 1/2-x,1/2-z,1/2+y
90 1/2+x,1/2-z,1/2-y
91 1/2+x,1/2+z,1/2+y
92 1/2-x,1/2+z,1/2-y
93 1/2-z,1/2-y,1/2+x
94 1/2-z,1/2+y,1/2-x
95 1/2+z,1/2-y,1/2-x
96 1/2+z,1/2+y,1/2+x
_cell_length_a                   26.5068(8)
_cell_length_b                   26.5068(8)
_cell_length_c                   26.5068(8)
_cell_angle_alpha                90
_cell_angle_beta                 90
_cell_angle_gamma                90
_cell_volume                     18624
loop_
_atom_site_label
_atom_site_type_symbol
_atom_site_fract_x
_atom_site_fract_y
_atom_site_fract_z
O2 O 0.5000 0.1699(5) 0.1699(5)
C1 C 0.5000 0.1540(15) 0.0000
C2 C 0.5000 0.148(2) 0.0576(8)
C3 C 0.548(2) 0.124(3) 0.078(3)
C4 C 0.5960(15) 0.0971(18) 0.0971(18)
C5 C 0.649(2) 0.114(2) 0.114(2)
C6 C 0.7011(17) 0.1302(17) 0.1302(17)
N1 N 0.5000 0.2110(14) 0.0000
N2 N 0.7487(18) 0.1086(12) 0.1086(12)
C1Q C 0.5000 0.0000 0.1540(15)
C2B C 0.5000 0.148(2) -0.0576(8)
C2Q C 0.5000 0.0576(8) 0.148(2)
C2P C 0.5000 0.0576(8) -0.148(2)
C2S C 0.5000 -0.0576(8) 0.148(2)
C3YA C 0.452(2) 0.124(3) 0.078(3)
C3NB C 0.548(2) 0.078(3) 0.124(3)
C3B C 0.452(2) 0.124(3) -0.078(3)
C3WA C 0.548(2) 0.124(3) -0.078(3)
C3Q C 0.452(2) 0.078(3) 0.124(3)
C3OB C 0.452(2) 0.078(3) -0.124(3)
C3P C 0.548(2) 0.078(3) -0.124(3)
C4Q C 0.4040(15) 0.0971(18) 0.0971(18)
C4B C 0.4040(15) 0.0971(18) -0.0971(18)
C4P C 0.5960(15) 0.0971(18) -0.0971(18)
C5Q C 0.351(2) 0.114(2) 0.114(2)
C5B C 0.351(2) 0.114(2) -0.114(2)
C5P C 0.649(2) 0.114(2) -0.114(2)
C6Q C 0.2989(17) 0.1302(17) 0.1302(17)
N1Q N 0.5000 -0.0000 0.2110(14)
V1 V 0.28579(4) 0.28579(4) 0.09440(6)
V2 V 0.24572(6) 0.24572(6) 0.0000
V3 V 0.20591(9) 0.34661(9) 0.0000
P1 P 0.4002 0.25000(8) 0.09981(8)
O3 O 0.22976(17) 0.29603(18) 0.04732(16)
O4 O 0.2030(3) 0.2030(3) 0.0000
O5 O 0.2619(2) 0.2619(2) 0.1438(2)
O6 O 0.3585(2) 0.2895(2) 0.1050(2)
O7 O 0.2241(2) 0.3977(3) -0.0487(2)
O8 O 0.1466(6) 0.3445(4) 0.0000
V1L V 0.28579(4) 0.28579(4) -0.09440(6)
V1UA V 0.40560(6) 0.21421(4) 0.21421(4)
V1IA V 0.21421(4) 0.40560(6) -0.21421(4)
V3L V 0.34661(9) 0.20591(9) 0.0000
V3CA V 0.5000 0.29409(9) 0.15339(9)
V3OA V 0.29409(9) 0.5000 -0.15339(9)
P1L P 0.25000(8) 0.4002 -0.09981(8)
O3IB O 0.29603(18) 0.22976(17) 0.04732(16)
O3L O 0.29603(18) 0.22976(17) -0.04732(16)
O3WA O 0.22976(17) 0.29603(18) -0.04732(16)
O5L O 0.2619(2) 0.2619(2) -0.1438(2)
O6IB O 0.2895(2) 0.3585(2) 0.1050(2)
O6UA O 0.3950(2) 0.2105(2) 0.1415(2)
O6WA O 0.3585(2) 0.2895(2) -0.1050(2)
O6L O 0.2895(2) 0.3585(2) -0.1050(2)
O6IA O 0.2105(2) 0.3950(2) -0.1415(2)
O7WA O 0.2241(2) 0.3977(3) 0.0487(2)
O7IB O 0.3977(3) 0.2241(2) -0.0487(2)
O7L O 0.3977(3) 0.2241(2) 0.0487(2)
O7CA O 0.4513(2) 0.2759(2) 0.1023(3)
O7OA O 0.2759(2) 0.4513(2) -0.1023(3)
O8L O 0.3445(4) 0.1466(6) 0.0000
O1 O 0.2500 0.2500 0.2500
loop_
_geom_bond_atom_site_label_1
_geom_bond_atom_site_label_2
_geom_bond_site_symmetry_1
_geom_bond_site_symmetry_2
C1 C2 1_555 1_555
C2 C3 1_555 1_555
C3 C4 1_555 1_555
C4 C5 1_555 1_555
C5 C6 1_555 1_555
C6 N2 1_555 1_555
N1 C1 1_555 1_555
V1 O3 1_555 1_555
V2 O3 1_555 1_555
V3 O3 1_555 1_555
P1 O6 1_555 1_555
O4 V2 1_555 1_555
O5 V1 1_555 1_555
O6 V1 1_555 1_555
O7 V3 1_555 1_555
O8 V3 1_555 1_555
C1Q C2Q 1_555 1_555
C2B C1 1_555 1_555
C2Q C3NB 1_555 1_555
C2P C3OB 1_555 1_555
C2S C1Q 1_555 1_555
C3YA C2 1_555 1_555
C3NB C3 1_555 1_555
C3B C2B 1_555 1_555
C3WA C2B 1_555 1_555
C3Q C2Q 1_555 1_555
C3OB C3B 1_555 1_555
C3P C2P 1_555 1_555
C4Q C3YA 1_555 1_555
C4B C3B 1_555 1_555
C4P C3WA 1_555 1_555
C5Q C4Q 1_555 1_555
C5B C4B 1_555 1_555
C5P C4P 1_555 1_555
C6Q C5Q 1_555 1_555
N1Q C1Q 1_555 1_555
V1L O3L 1_555 1_555
V1UA O6UA 1_555 1_555
V1IA O6IA 1_555 1_555
V3L O3IB 1_555 1_555
V3CA O7CA 1_555 1_555
V3OA O7OA 1_555 1_555
P1L O7 1_555 1_555
O3IB V1 1_555 1_555
O3L V2 1_555 1_555
O3WA V2 1_555 1_555
O5L V1L 1_555 1_555
O6IB V1 1_555 1_555
O6UA P1 1_555 1_555
O6WA V1L 1_555 1_555
O6L V1L 1_555 1_555
O6IA P1L 1_555 1_555
O7WA V3 1_555 1_555
O7IB V3L 1_555 1_555
O7L P1 1_555 1_555
O7CA P1 1_555 1_555
O7OA P1L 1_555 1_555
O8L V3L 1_555 1_555
C4 C3NB 1_555 1_555
V2 O3IB 1_555 1_555
V3 O3WA 1_555 1_555
C3YA C3Q 1_555 1_555
C3WA C3P 1_555 1_555
C3Q C4Q 1_555 1_555
C3OB C4B 1_555 1_555
C3P C4P 1_555 1_555
V1L O3WA 1_555 1_555
V3L O3L 1_555 1_555
V3L O7L 1_555 1_555
P1L O6L 1_555 1_555

#END
