
#######################################################################
#
#                 Cambridge Crystallographic Data Centre
#                                CCDC 
#
#######################################################################
#
# If this CIF has been generated from an entry in the Cambridge 
# Structural Database, then it will include bibliographic, chemical, 
# crystal, experimental, refinement or atomic coordinate data resulting 
# from the CCDC's data processing and validation procedures.
#
#######################################################################

data_WOHZAU
_chemical_formula_moiety         '(C9 H19 Er1 O11)n'
_symmetry_cell_setting           monoclinic
_symmetry_space_group_name_H-M   'C 2/c'
_symmetry_Int_Tables_number      15
_space_group_name_Hall           '-C 2yc'
loop_
_symmetry_equiv_pos_site_id
_symmetry_equiv_pos_as_xyz
1 x,y,z
2 1/2+x,1/2+y,z
3 x,-y,1/2+z
4 1/2+x,1/2-y,1/2+z
5 -x,-y,-z
6 1/2-x,1/2-y,-z
7 -x,y,1/2-z
8 1/2-x,1/2+y,1/2-z
_cell_length_a                   13.4186(2)
_cell_length_b                   12.2468(2)
_cell_length_c                   15.9193(3)
_cell_angle_alpha                90
_cell_angle_beta                 92.1430(10)
_cell_angle_gamma                90
_cell_volume                     2614.27
loop_
_atom_site_label
_atom_site_type_symbol
_atom_site_fract_x
_atom_site_fract_y
_atom_site_fract_z
_atom_site_U_iso_or_equiv
_atom_site_thermal_displace_type
C1 C 0.6613(4) 0.3059(5) -0.2216(3) 0.0164 Uani
H1 H 0.5951 0.3396 -0.2218 0.0200 Uiso
C2 C 0.7315(5) 0.3845(5) -0.2657(3) 0.0208 Uani
H2 H 0.7976 0.3526 -0.2673 0.0250 Uiso
H3 H 0.7366 0.4524 -0.2345 0.0250 Uiso
C3 C 0.6914(4) 0.4074(4) -0.3558(3) 0.0160 Uani
H4 H 0.6247 0.4395 -0.3532 0.0190 Uiso
C4 C 0.6838(4) 0.2995(5) -0.4058(3) 0.0187 Uani
H5 H 0.7498 0.2685 -0.4107 0.0220 Uiso
H6 H 0.6566 0.3141 -0.4620 0.0220 Uiso
C5 C 0.6162(4) 0.2172(4) -0.3615(3) 0.0154 Uani
H7 H 0.5482 0.2465 -0.3616 0.0180 Uiso
C6 C 0.6524(5) 0.1977(5) -0.2702(3) 0.0198 Uani
H8 H 0.7168 0.1617 -0.2695 0.0240 Uiso
H9 H 0.6059 0.1500 -0.2428 0.0240 Uiso
C7 C 0.6930(5) 0.2814(5) -0.1312(3) 0.0187 Uani
O1 O 0.6333(4) 0.2259(4) -0.0898(3) 0.0339 Uani
O2 O 0.7753(3) 0.3152(4) -0.1024(3) 0.0245 Uani
C8 C 0.7569(4) 0.4840(5) -0.4032(3) 0.0177 Uani
O3 O 0.7177(3) 0.5563(4) -0.4508(3) 0.0250 Uani
O4 O 0.8502(3) 0.4732(4) -0.3994(3) 0.0253 Uani
C9 C 0.6149(4) 0.1107(5) -0.4096(3) 0.0154 Uani
O5 O 0.5375(3) 0.0799(4) -0.4505(3) 0.0226 Uani
O6 O 0.6914(3) 0.0522(4) -0.4097(3) 0.0229 Uani
O7 O 0.5545(9) 0.2922(9) 0.0414(8) 0.1152 Uani
O8 O 0.5240(5) 0.1308(9) 0.1266(6) 0.1245 Uani
Er1 Er 0.622293(17) 0.09986(2) 0.010995(14) 0.0145 Uani
Er1E Er 0.877707(17) 0.40014(2) -0.010995(14) 0.0145 Uani
Er1G Er 0.877707(17) 0.59986(2) -0.510995(14) 0.0145 Uani
Er1B Er 0.622293(17) -0.09986(2) -0.489005(14) 0.0145 Uani
Er1F Er 0.377707(17) 0.09986(2) -0.510995(14) 0.0145 Uani
O2E O 0.7247(3) 0.1848(4) 0.1024(3) 0.0245 Uani
O3G O 0.7823(3) 0.0563(4) -0.0492(3) 0.0250 Uani
O4G O 0.6498(3) -0.0268(4) -0.1006(3) 0.0253 Uani
O5B O 0.5375(3) -0.0799(4) 0.0495(3) 0.0226 Uani
O5F O 0.4625(3) 0.0799(4) -0.0495(3) 0.0226 Uani
O6B O 0.6914(3) -0.0522(4) 0.0903(3) 0.0229 Uani
O9 O 0.5000 0.2962(7) 0.2500 0.0508 Uani
O10 O 0.8990(5) 0.0754(7) -0.3699(5) 0.0635 Uani
O11 O 0.5309(10) 0.4291(11) -0.0093(11) 0.1435 Uani
loop_
_atom_site_aniso_label
_atom_site_aniso_U_11
_atom_site_aniso_U_22
_atom_site_aniso_U_33
_atom_site_aniso_U_23
_atom_site_aniso_U_13
_atom_site_aniso_U_12
C1 0.023(3) 0.016(2) 0.010(2) -0.001(2) -0.0022(19) -0.003(2)
C2 0.030(3) 0.020(3) 0.012(3) -0.003(2) -0.003(2) -0.007(2)
C3 0.019(3) 0.014(2) 0.015(2) 0.001(2) 0.000(2) 0.000(2)
C4 0.024(3) 0.018(3) 0.014(2) -0.002(2) 0.000(2) -0.002(2)
C5 0.020(3) 0.013(2) 0.013(2) -0.0044(19) -0.0025(19) -0.004(2)
C6 0.029(3) 0.016(3) 0.014(2) 0.000(2) -0.004(2) -0.004(2)
C7 0.027(3) 0.014(3) 0.015(3) 0.000(2) 0.000(2) -0.002(2)
O1 0.038(3) 0.039(3) 0.024(2) 0.022(2) -0.007(2) -0.015(2)
O2 0.030(2) 0.027(2) 0.016(2) -0.0019(17) -0.0062(17) -0.0081(19)
C8 0.021(3) 0.017(3) 0.015(2) 0.000(2) -0.001(2) -0.002(2)
O3 0.022(2) 0.023(2) 0.030(2) 0.0128(18) 0.0013(18) 0.0003(18)
O4 0.019(2) 0.032(2) 0.025(2) 0.0105(18) 0.0007(17) 0.0019(18)
C9 0.017(2) 0.017(3) 0.012(2) -0.003(2) -0.0016(19) 0.000(2)
O5 0.017(2) 0.022(2) 0.028(2) -0.0128(17) -0.0094(17) -0.0013(16)
O6 0.018(2) 0.023(2) 0.027(2) -0.0097(17) -0.0093(17) 0.0043(17)
O7 0.111(8) 0.085(7) 0.151(11) -0.007(7) 0.024(7) 0.010(6)
O8 0.041(4) 0.192(10) 0.144(8) -0.150(8) 0.052(5) -0.061(5)
Er1 0.01386(14) 0.01651(15) 0.01300(14) 0.00358(9) -0.00223(8) -0.00216(9)
Er1E 0.01386 0.01651 0.013 0.00358 -0.00223 -0.00216
Er1G 0.01386 0.01651 0.013 -0.00358 -0.00223 0.00216
Er1B 0.01386 0.01651 0.013 -0.00358 -0.00223 0.00216
Er1F 0.01386 0.01651 0.013 -0.00358 -0.00223 0.00216
O2E 0.03 0.027 0.016 -0.0019 -0.0062 -0.0081
O3G 0.022 0.023 0.03 -0.0128 0.0013 -0.0003
O4G 0.019 0.032 0.025 -0.0105 0.0007 -0.0019
O5B 0.017 0.022 0.028 0.0128 -0.0094 0.0013
O5F 0.017 0.022 0.028 0.0128 -0.0094 0.0013
O6B 0.018 0.023 0.027 0.0097 -0.0093 -0.0043
O9 0.060(5) 0.043(5) 0.049(5) 0.000 -0.002(4) 0.000
O10 0.037(3) 0.095(6) 0.058(4) -0.014(4) -0.005(3) -0.015(4)
O11 0.103(9) 0.127(10) 0.199(15) 0.004(10) -0.013(10) 0.005(8)
loop_
_geom_bond_atom_site_label_1
_geom_bond_atom_site_label_2
_geom_bond_site_symmetry_1
_geom_bond_site_symmetry_2
C1 H1 1_555 1_555
C2 C1 1_555 1_555
H2 C2 1_555 1_555
H3 C2 1_555 1_555
C3 C2 1_555 1_555
H4 C3 1_555 1_555
C4 C3 1_555 1_555
H5 C4 1_555 1_555
H6 C4 1_555 1_555
C5 C4 1_555 1_555
H7 C5 1_555 1_555
C6 C1 1_555 1_555
H8 C6 1_555 1_555
H9 C6 1_555 1_555
C7 C1 1_555 1_555
O1 C7 1_555 1_555
O2 C7 1_555 1_555
C8 C3 1_555 1_555
O3 C8 1_555 1_555
O4 C8 1_555 1_555
C9 C5 1_555 1_555
O5 C9 1_555 1_555
O6 C9 1_555 1_555
O7 Er1 1_555 1_555
O8 Er1 1_555 1_555
Er1 O1 1_555 1_555
Er1E O2 1_555 1_555
Er1G O3 1_555 1_555
Er1B O5 1_555 1_555
Er1F O5 1_555 1_555
O2E Er1 1_555 1_555
O3G Er1 1_555 1_555
O4G Er1 1_555 1_555
O5B Er1 1_555 1_555
O5F Er1 1_555 1_555
O6B Er1 1_555 1_555
C5 C6 1_555 1_555
O4 Er1G 1_555 1_555
O6 Er1B 1_555 1_555

#END
