
#######################################################################
#
#                 Cambridge Crystallographic Data Centre
#                                CCDC 
#
#######################################################################
#
# If this CIF has been generated from an entry in the Cambridge 
# Structural Database, then it will include bibliographic, chemical, 
# crystal, experimental, refinement or atomic coordinate data resulting 
# from the CCDC's data processing and validation procedures.
#
#######################################################################

data_LIXYOI
_chemical_formula_moiety         '(C60 H50 Ag2 Cd3 N2 S8)n'
_symmetry_cell_setting           tetragonal
_symmetry_space_group_name_H-M   'I 41/a'
_symmetry_Int_Tables_number      88
_space_group_name_Hall           '-I 4ad'
loop_
_symmetry_equiv_pos_site_id
_symmetry_equiv_pos_as_xyz
1 x,y,z
2 1/2-x,-y,1/2+z
3 3/4-y,1/4+x,1/4+z
4 3/4+y,3/4-x,3/4+z
5 1/2+x,1/2+y,1/2+z
6 -x,1/2-y,z
7 1/4-y,3/4+x,3/4+z
8 1/4+y,1/4-x,1/4+z
9 -x,-y,-z
10 1/2+x,y,1/2-z
11 1/4+y,3/4-x,3/4-z
12 1/4-y,1/4+x,1/4-z
13 1/2-x,1/2-y,1/2-z
14 x,1/2+y,-z
15 3/4+y,1/4-x,1/4-z
16 3/4-y,3/4+x,3/4-z
_cell_length_a                   18.3203(2)
_cell_length_b                   18.3203(2)
_cell_length_c                   45.4431(11)
_cell_angle_alpha                90
_cell_angle_beta                 90
_cell_angle_gamma                90
_cell_volume                     15252.2
loop_
_atom_site_label
_atom_site_type_symbol
_atom_site_fract_x
_atom_site_fract_y
_atom_site_fract_z
_atom_site_U_iso_or_equiv
_atom_site_thermal_displace_type
Cd1 Cd 0.32475(4) 0.63473(4) 0.061814(13) 0.0706 Uani
Cd2 Cd 0.5000 0.7500 0.05230(2) 0.0776 Uani
Ag1 Ag 0.65568(4) 0.71946(4) 0.126050(13) 0.0691 Uani
S1 S 0.41022(13) 0.67301(14) 0.02229(5) 0.0731 Uani
S2 S 0.55976(11) 0.66142(11) 0.09115(4) 0.0535 Uani
S3 S 0.74775(14) 0.76741(13) 0.08776(5) 0.0737 Uani
S4 S 0.71316(13) 0.60841(13) 0.15254(5) 0.0707 Uani
N1 N 0.2234(3) 0.5823(4) 0.03782(13) 0.0810 Uani
C1 C 0.1868(4) 0.6140(3) 0.01426(13) 0.1047 Uani
H1 H 0.2064 0.6547 0.0049 0.1260 Uiso
C2 C 0.1210(4) 0.5847(4) 0.00465(14) 0.1317 Uani
H2 H 0.0965 0.6058 -0.0111 0.1580 Uiso
C3 C 0.0918(3) 0.5238(5) 0.01860(18) 0.1300 Uani
C4 C 0.1284(4) 0.4922(4) 0.04216(18) 0.1507 Uani
H3 H 0.1089 0.4515 0.0515 0.1810 Uiso
C5 C 0.1942(4) 0.5215(4) 0.05178(14) 0.1327 Uani
H4 H 0.2187 0.5003 0.0675 0.1590 Uiso
C6 C 0.0257(5) 0.4963(7) 0.0108(2) 0.1667 Uani
H5 H 0.0107 0.4614 0.0244 0.2000 Uiso
C7 C 0.3497(5) 0.7270(5) 0.00073(17) 0.0733 Uani
C8 C 0.3122(6) 0.7860(5) 0.01192(18) 0.0857 Uani
H6 H 0.3205 0.7995 0.0314 0.1030 Uiso
C9 C 0.2638(7) 0.8252(6) -0.0041(2) 0.1160 Uani
H7 H 0.2410 0.8661 0.0038 0.1390 Uiso
C10 C 0.2494(8) 0.8031(8) -0.0322(3) 0.1480 Uani
H8 H 0.2128 0.8264 -0.0428 0.1770 Uiso
C11 C 0.2871(8) 0.7483(8) -0.0449(2) 0.1320 Uani
H9 H 0.2803 0.7372 -0.0647 0.1590 Uiso
C12 C 0.3363(6) 0.7085(6) -0.02797(19) 0.1007 Uani
H10 H 0.3605 0.6689 -0.0363 0.1210 Uiso
C13 C 0.6032(5) 0.5910(4) 0.06919(16) 0.0617 Uani
C14 C 0.6787(5) 0.5824(5) 0.07095(19) 0.0787 Uani
H11 H 0.7059 0.6099 0.0842 0.0940 Uiso
C15 C 0.7130(6) 0.5316(5) 0.0525(2) 0.0947 Uani
H12 H 0.7635 0.5265 0.0522 0.1140 Uiso
C16 C 0.6686(7) 0.4897(6) 0.0347(2) 0.1007 Uani
H13 H 0.6904 0.4545 0.0229 0.1200 Uiso
C17 C 0.5945(7) 0.4970(6) 0.0336(2) 0.1073 Uani
H14 H 0.5669 0.4677 0.0211 0.1290 Uiso
C18 C 0.5609(6) 0.5487(5) 0.05129(19) 0.0807 Uani
H15 H 0.5105 0.5545 0.0510 0.0970 Uiso
C19 C 0.8204(5) 0.8203(6) 0.10354(18) 0.0813 Uani
C20 C 0.8891(6) 0.8127(7) 0.0906(2) 0.1260 Uani
H16 H 0.8966 0.7814 0.0747 0.1510 Uiso
C21 C 0.9459(7) 0.8537(10) 0.1024(4) 0.1677 Uani
H17 H 0.9918 0.8498 0.0938 0.2010 Uiso
C22 C 0.9375(8) 0.8997(10) 0.1260(3) 0.1627 Uani
H18 H 0.9761 0.9272 0.1334 0.1950 Uiso
C23 C 0.8680(7) 0.9028(8) 0.1382(2) 0.1267 Uani
H19 H 0.8597 0.9338 0.1540 0.1520 Uiso
C24 C 0.8127(6) 0.8626(6) 0.12782(18) 0.0923 Uani
H20 H 0.7679 0.8636 0.1375 0.1110 Uiso
C25 C 0.7864(5) 0.6465(5) 0.1730(2) 0.0757 Uani
C26 C 0.8418(6) 0.6826(6) 0.1565(2) 0.1047 Uani
H21 H 0.8400 0.6851 0.1361 0.1260 Uiso
C27 C 0.9004(6) 0.7145(7) 0.1727(3) 0.1227 Uani
H22 H 0.9367 0.7400 0.1628 0.1470 Uiso
C28 C 0.9039(7) 0.7081(7) 0.2036(3) 0.1237 Uani
H23 H 0.9431 0.7280 0.2139 0.1490 Uiso
C29 C 0.8520(6) 0.6741(6) 0.2179(2) 0.1073 Uani
H24 H 0.8544 0.6725 0.2383 0.1290 Uiso
C30 C 0.7928(6) 0.6400(5) 0.2038(2) 0.0903 Uani
H25 H 0.7586 0.6137 0.2146 0.1090 Uiso
N1H N -0.2234(3) 0.4177(4) -0.03782(13) 0.0810 Uani
C1H C -0.1868(4) 0.3860(3) -0.01426(13) 0.1047 Uani
H1H H -0.2064 0.3453 -0.0049 0.1260 Uiso
C2H C -0.1210(4) 0.4153(4) -0.00465(14) 0.1317 Uani
H2H H -0.0965 0.3942 0.0111 0.1580 Uiso
C3H C -0.0918(3) 0.4762(5) -0.01860(18) 0.1300 Uani
C4H C -0.1284(4) 0.5078(4) -0.04216(18) 0.1507 Uani
H3H H -0.1089 0.5485 -0.0515 0.1810 Uiso
C5H C -0.1942(4) 0.4785(4) -0.05178(14) 0.1327 Uani
H4H H -0.2187 0.4997 -0.0675 0.1590 Uiso
C6H C -0.0257(5) 0.5037(7) -0.0108(2) 0.1667 Uani
H5H H -0.0107 0.5386 -0.0244 0.2000 Uiso
Cd1E Cd 0.67525(4) 0.86527(4) 0.061814(13) 0.0706 Uani
Ag1E Ag 0.34432(4) 0.78054(4) 0.126050(13) 0.0691 Uani
S1E S 0.58978(13) 0.82699(14) 0.02229(5) 0.0731 Uani
S2E S 0.44024(11) 0.83858(11) 0.09115(4) 0.0535 Uani
S3E S 0.25225(14) 0.73259(13) 0.08776(5) 0.0737 Uani
S4E S 0.28684(13) 0.89159(13) 0.15254(5) 0.0707 Uani
C7E C 0.6503(5) 0.7730(5) 0.00073(17) 0.0733 Uani
C8E C 0.6878(6) 0.7140(5) 0.01192(18) 0.0857 Uani
H6E H 0.6795 0.7005 0.0314 0.1030 Uiso
C9E C 0.7362(7) 0.6748(6) -0.0041(2) 0.1160 Uani
H7E H 0.7590 0.6339 0.0038 0.1390 Uiso
C10E C 0.7506(8) 0.6969(8) -0.0322(3) 0.1480 Uani
H8E H 0.7872 0.6736 -0.0428 0.1770 Uiso
C11E C 0.7129(8) 0.7517(8) -0.0449(2) 0.1320 Uani
H9E H 0.7197 0.7628 -0.0647 0.1590 Uiso
C12E C 0.6637(6) 0.7915(6) -0.02797(19) 0.1007 Uani
H10E H 0.6395 0.8311 -0.0363 0.1210 Uiso
C13E C 0.3968(5) 0.9090(4) 0.06919(16) 0.0617 Uani
C14E C 0.3213(5) 0.9176(5) 0.07095(19) 0.0787 Uani
H11E H 0.2941 0.8901 0.0842 0.0940 Uiso
C15E C 0.2870(6) 0.9684(5) 0.0525(2) 0.0947 Uani
H12E H 0.2365 0.9735 0.0522 0.1140 Uiso
C16E C 0.3314(7) 1.0103(6) 0.0347(2) 0.1007 Uani
H13E H 0.3096 1.0455 0.0229 0.1200 Uiso
C17E C 0.4055(7) 1.0030(6) 0.0336(2) 0.1073 Uani
H14E H 0.4331 1.0323 0.0211 0.1290 Uiso
C18E C 0.4391(6) 0.9513(5) 0.05129(19) 0.0807 Uani
H15E H 0.4895 0.9455 0.0510 0.0970 Uiso
C19E C 0.1796(5) 0.6797(6) 0.10354(18) 0.0813 Uani
C20E C 0.1109(6) 0.6873(7) 0.0906(2) 0.1260 Uani
H16E H 0.1034 0.7186 0.0747 0.1510 Uiso
C21E C 0.0541(7) 0.6463(10) 0.1024(4) 0.1677 Uani
H17E H 0.0082 0.6502 0.0938 0.2010 Uiso
C22E C 0.0625(8) 0.6003(10) 0.1260(3) 0.1627 Uani
H18E H 0.0239 0.5728 0.1334 0.1950 Uiso
C23E C 0.1320(7) 0.5972(8) 0.1382(2) 0.1267 Uani
H19E H 0.1403 0.5662 0.1540 0.1520 Uiso
C24E C 0.1873(6) 0.6374(6) 0.12782(18) 0.0923 Uani
H20E H 0.2321 0.6364 0.1375 0.1110 Uiso
C25E C 0.2136(5) 0.8535(5) 0.1730(2) 0.0757 Uani
C26E C 0.1582(6) 0.8174(6) 0.1565(2) 0.1047 Uani
H21E H 0.1600 0.8149 0.1361 0.1260 Uiso
C27E C 0.0996(6) 0.7855(7) 0.1727(3) 0.1227 Uani
H22E H 0.0633 0.7600 0.1628 0.1470 Uiso
C28E C 0.0961(7) 0.7919(7) 0.2036(3) 0.1237 Uani
H23E H 0.0569 0.7720 0.2139 0.1490 Uiso
C29E C 0.1480(6) 0.8259(6) 0.2179(2) 0.1073 Uani
H24E H 0.1456 0.8275 0.2383 0.1290 Uiso
C30E C 0.2072(6) 0.8600(5) 0.2038(2) 0.0903 Uani
H25E H 0.2414 0.8863 0.2146 0.1090 Uiso
Cd1H Cd -0.32475(4) 0.36527(4) -0.061814(13) 0.0706 Uani
Cd1K Cd 0.61527(4) 0.57475(4) 0.188186(13) 0.0706 Uani
Cd1N Cd 0.38473(4) 0.92525(4) 0.188186(13) 0.0706 Uani
Ag1K Ag 0.53054(4) 0.90568(4) 0.123950(13) 0.0691 Uani
Ag1N Ag 0.46946(4) 0.59432(4) 0.123950(13) 0.0691 Uani
S2K S 0.58858(11) 0.80976(11) 0.15885(4) 0.0535 Uani
S2N S 0.41142(11) 0.69024(11) 0.15885(4) 0.0535 Uani
S4K S 0.64159(13) 0.96316(13) 0.09746(5) 0.0707 Uani
S4N S 0.35841(13) 0.53684(13) 0.09746(5) 0.0707 Uani
N1E N 0.7766(3) 0.9177(4) 0.03782(13) 0.0810 Uani
loop_
_atom_site_aniso_label
_atom_site_aniso_U_11
_atom_site_aniso_U_22
_atom_site_aniso_U_33
_atom_site_aniso_U_23
_atom_site_aniso_U_13
_atom_site_aniso_U_12
Cd1 0.0646(5) 0.0776(5) 0.0695(4) -0.0043(3) -0.0068(3) -0.0076(4)
Cd2 0.0713(7) 0.0749(8) 0.0866(6) 0.000 0.000 0.0017(6)
Ag1 0.0706(5) 0.0686(5) 0.0681(4) -0.0056(3) -0.0080(3) 0.0004(4)
S1 0.0709(17) 0.0819(18) 0.0665(13) -0.0069(12) 0.0022(11) -0.0055(15)
S2 0.0512(13) 0.0610(15) 0.0483(10) -0.0016(9) -0.0041(9) 0.0021(12)
S3 0.0724(17) 0.0779(18) 0.0707(13) 0.0080(12) -0.0019(12) -0.0078(14)
S4 0.0727(17) 0.0694(17) 0.0701(13) 0.0109(11) -0.0011(11) 0.0025(14)
N1 0.054(5) 0.094(6) 0.095(5) -0.016(4) -0.003(4) -0.001(4)
C1 0.090(8) 0.117(9) 0.107(7) -0.009(6) -0.019(5) -0.015(7)
C2 0.094(8) 0.185(12) 0.116(8) -0.042(7) -0.050(7) -0.021(7)
C3 0.071(8) 0.151(11) 0.168(11) -0.062(7) -0.026(7) -0.036(7)
C4 0.100(9) 0.162(12) 0.190(12) -0.019(8) -0.038(8) -0.047(8)
C5 0.093(9) 0.122(10) 0.183(11) 0.018(7) -0.051(7) -0.045(7)
C6 0.093(10) 0.178(12) 0.229(16) -0.088(12) -0.027(8) 0.001(9)
C7 0.088(7) 0.078(6) 0.054(4) -0.011(4) -0.006(4) 0.004(5)
C8 0.112(8) 0.087(7) 0.058(5) -0.015(4) -0.003(5) 0.011(5)
C9 0.141(10) 0.105(9) 0.102(7) -0.007(6) -0.032(7) 0.042(7)
C10 0.174(13) 0.158(13) 0.112(8) 0.009(8) -0.033(8) 0.047(9)
C11 0.156(12) 0.165(13) 0.075(7) -0.013(6) -0.038(7) 0.015(9)
C12 0.110(9) 0.123(9) 0.069(5) -0.025(5) -0.009(5) 0.009(7)
C13 0.070(5) 0.051(5) 0.064(5) 0.022(3) -0.009(4) -0.002(4)
C14 0.078(6) 0.071(7) 0.087(6) -0.007(4) 0.012(5) 0.003(5)
C15 0.095(7) 0.069(7) 0.120(8) -0.006(5) 0.028(6) 0.021(6)
C16 0.133(9) 0.080(8) 0.089(7) -0.028(5) 0.038(7) 0.010(8)
C17 0.130(8) 0.099(9) 0.093(7) -0.031(6) 0.015(7) -0.006(8)
C18 0.080(6) 0.065(7) 0.097(7) -0.019(5) 0.003(5) -0.012(5)
C19 0.060(5) 0.119(8) 0.065(5) 0.008(5) -0.012(4) -0.002(5)
C20 0.075(7) 0.177(12) 0.126(9) -0.032(7) 0.022(6) -0.015(8)
C21 0.071(8) 0.236(17) 0.196(13) -0.047(10) 0.009(9) -0.027(9)
C22 0.101(8) 0.256(16) 0.131(10) -0.035(9) -0.023(7) -0.063(11)
C23 0.104(9) 0.171(12) 0.105(8) -0.022(7) -0.012(7) -0.043(9)
C24 0.075(6) 0.145(10) 0.057(5) -0.009(5) 0.014(4) -0.035(6)
C25 0.058(6) 0.077(7) 0.092(5) 0.014(5) -0.016(4) 0.008(5)
C26 0.075(7) 0.123(9) 0.116(7) 0.044(6) -0.013(5) -0.014(6)
C27 0.069(8) 0.138(10) 0.161(8) 0.042(8) -0.017(7) -0.026(7)
C28 0.094(9) 0.129(11) 0.148(8) 0.030(8) -0.036(7) -0.014(7)
C29 0.104(9) 0.114(10) 0.104(7) 0.000(6) -0.039(6) -0.022(7)
C30 0.087(7) 0.092(8) 0.092(5) 0.006(6) -0.014(5) -0.005(6)
N1H 0.054 0.094 0.095 -0.016 -0.003 -0.001
C1H 0.09 0.117 0.107 -0.009 -0.019 -0.015
C2H 0.094 0.185 0.116 -0.042 -0.05 -0.021
C3H 0.071 0.151 0.168 -0.062 -0.026 -0.036
C4H 0.1 0.162 0.19 -0.019 -0.038 -0.047
C5H 0.093 0.122 0.183 0.018 -0.051 -0.045
C6H 0.093 0.178 0.229 -0.088 -0.027 0.001
Cd1E 0.0646 0.0776 0.0695 0.0043 0.0068 -0.0076
Ag1E 0.0706 0.0686 0.0681 0.0056 0.008 0.0004
S1E 0.0709 0.0819 0.0665 0.0069 -0.0022 -0.0055
S2E 0.0512 0.061 0.0483 0.0016 0.0041 0.0021
S3E 0.0724 0.0779 0.0707 -0.008 0.0019 -0.0078
S4E 0.0727 0.0694 0.0701 -0.0109 0.0011 0.0025
C7E 0.088 0.078 0.054 0.011 0.006 0.004
C8E 0.112 0.087 0.058 0.015 0.003 0.011
C9E 0.141 0.105 0.102 0.007 0.032 0.042
C10E 0.174 0.158 0.112 -0.009 0.033 0.047
C11E 0.156 0.165 0.075 0.013 0.038 0.015
C12E 0.11 0.123 0.069 0.025 0.009 0.009
C13E 0.07 0.051 0.064 -0.022 0.009 -0.002
C14E 0.078 0.071 0.087 0.007 -0.012 0.003
C15E 0.095 0.069 0.12 0.006 -0.028 0.021
C16E 0.133 0.08 0.089 0.028 -0.038 0.01
C17E 0.13 0.099 0.093 0.031 -0.015 -0.006
C18E 0.08 0.065 0.097 0.019 -0.003 -0.012
C19E 0.06 0.119 0.065 -0.008 0.012 -0.002
C20E 0.075 0.177 0.126 0.032 -0.022 -0.015
C21E 0.071 0.236 0.196 0.047 -0.009 -0.027
C22E 0.101 0.256 0.131 0.035 0.023 -0.063
C23E 0.104 0.171 0.105 0.022 0.012 -0.043
C24E 0.075 0.145 0.057 0.009 -0.014 -0.035
C25E 0.058 0.077 0.092 -0.014 0.016 0.008
C26E 0.075 0.123 0.116 -0.044 0.013 -0.014
C27E 0.069 0.138 0.161 -0.042 0.017 -0.026
C28E 0.094 0.129 0.148 -0.03 0.036 -0.014
C29E 0.104 0.114 0.104 0 0.039 -0.022
C30E 0.087 0.092 0.092 -0.006 0.014 -0.005
Cd1H 0.0646 0.0776 0.0695 -0.0043 -0.0068 -0.0076
Cd1K 0.0776 0.0646 0.0695 0.0068 -0.0043 0.0076
Cd1N 0.0776 0.0646 0.0695 -0.0068 0.0043 0.0076
Ag1K 0.0686 0.0706 0.0681 0.008 -0.0056 -0.0004
Ag1N 0.0686 0.0706 0.0681 -0.008 0.0056 -0.0004
S2K 0.061 0.0512 0.0483 0.0041 -0.0016 -0.0021
S2N 0.061 0.0512 0.0483 -0.0041 0.0016 -0.0021
S4K 0.0694 0.0727 0.0701 0.0011 0.0109 -0.0025
S4N 0.0694 0.0727 0.0701 -0.0011 -0.0109 -0.0025
N1E 0.054 0.094 0.095 0.016 0.003 -0.001
loop_
_geom_bond_atom_site_label_1
_geom_bond_atom_site_label_2
_geom_bond_site_symmetry_1
_geom_bond_site_symmetry_2
Cd1 S1 1_555 1_555
Cd2 S1 1_555 1_555
Ag1 S2 1_555 1_555
S1 C7 1_555 1_555
S2 Cd2 1_555 1_555
S3 Ag1 1_555 1_555
S4 Ag1 1_555 1_555
N1 Cd1 1_555 1_555
C1 N1 1_555 1_555
H1 C1 1_555 1_555
C2 C1 1_555 1_555
H2 C2 1_555 1_555
C3 C2 1_555 1_555
C4 C3 1_555 1_555
H3 C4 1_555 1_555
C5 N1 1_555 1_555
H4 C5 1_555 1_555
C6 C3 1_555 1_555
H5 C6 1_555 1_555
C7 C8 1_555 1_555
C8 H6 1_555 1_555
C9 C8 1_555 1_555
H7 C9 1_555 1_555
C10 C9 1_555 1_555
H8 C10 1_555 1_555
C11 C10 1_555 1_555
H9 C11 1_555 1_555
C12 C7 1_555 1_555
H10 C12 1_555 1_555
C13 S2 1_555 1_555
C14 C13 1_555 1_555
H11 C14 1_555 1_555
C15 C14 1_555 1_555
H12 C15 1_555 1_555
C16 C15 1_555 1_555
H13 C16 1_555 1_555
C17 C16 1_555 1_555
H14 C17 1_555 1_555
C18 C13 1_555 1_555
H15 C18 1_555 1_555
C19 S3 1_555 1_555
C20 C19 1_555 1_555
H16 C20 1_555 1_555
C21 C20 1_555 1_555
H17 C21 1_555 1_555
C22 C21 1_555 1_555
H18 C22 1_555 1_555
C23 C22 1_555 1_555
H19 C23 1_555 1_555
C24 C19 1_555 1_555
H20 C24 1_555 1_555
C25 S4 1_555 1_555
C26 C25 1_555 1_555
H21 C26 1_555 1_555
C27 C26 1_555 1_555
H22 C27 1_555 1_555
C28 C27 1_555 1_555
H23 C28 1_555 1_555
C29 C28 1_555 1_555
H24 C29 1_555 1_555
C30 C25 1_555 1_555
H25 C30 1_555 1_555
N1H C1H 1_555 1_555
C1H H1H 1_555 1_555
C2H C1H 1_555 1_555
H2H C2H 1_555 1_555
C3H C2H 1_555 1_555
C4H C3H 1_555 1_555
H3H C4H 1_555 1_555
C5H N1H 1_555 1_555
H4H C5H 1_555 1_555
C6H C6 1_555 1_555
H5H C6H 1_555 1_555
Cd1E S3 1_555 1_555
Ag1E S2E 1_555 1_555
S1E Cd2 1_555 1_555
S2E Cd2 1_555 1_555
S3E Cd1 1_555 1_555
S4E Ag1E 1_555 1_555
C7E S1E 1_555 1_555
C8E C7E 1_555 1_555
H6E C8E 1_555 1_555
C9E C8E 1_555 1_555
H7E C9E 1_555 1_555
C10E C9E 1_555 1_555
H8E C10E 1_555 1_555
C11E C10E 1_555 1_555
H9E C11E 1_555 1_555
C12E C7E 1_555 1_555
H10E C12E 1_555 1_555
C13E S2E 1_555 1_555
C14E C13E 1_555 1_555
H11E C14E 1_555 1_555
C15E C14E 1_555 1_555
H12E C15E 1_555 1_555
C16E C15E 1_555 1_555
H13E C16E 1_555 1_555
C17E C16E 1_555 1_555
H14E C17E 1_555 1_555
C18E C13E 1_555 1_555
H15E C18E 1_555 1_555
C19E S3E 1_555 1_555
C20E C19E 1_555 1_555
H16E C20E 1_555 1_555
C21E C20E 1_555 1_555
H17E C21E 1_555 1_555
C22E C21E 1_555 1_555
H18E C22E 1_555 1_555
C23E C22E 1_555 1_555
H19E C23E 1_555 1_555
C24E C19E 1_555 1_555
H20E C24E 1_555 1_555
C25E S4E 1_555 1_555
C26E C25E 1_555 1_555
H21E C26E 1_555 1_555
C27E C26E 1_555 1_555
H22E C27E 1_555 1_555
C28E C27E 1_555 1_555
H23E C28E 1_555 1_555
C29E C28E 1_555 1_555
H24E C29E 1_555 1_555
C30E C25E 1_555 1_555
H25E C30E 1_555 1_555
Cd1H N1H 1_555 1_555
Cd1K S4 1_555 1_555
Cd1N S4E 1_555 1_555
Ag1K S2E 1_555 1_555
Ag1N S2 1_555 1_555
S2K Ag1 1_555 1_555
S2N Ag1E 1_555 1_555
S4K Cd1E 1_555 1_555
S4N Cd1 1_555 1_555
N1E Cd1E 1_555 1_555
C4 C5 1_555 1_555
C11 C12 1_555 1_555
C17 C18 1_555 1_555
C23 C24 1_555 1_555
C29 C30 1_555 1_555
C3H C6H 1_555 1_555
C4H C5H 1_555 1_555
Cd1E S1E 1_555 1_555
Ag1E S3E 1_555 1_555
C11E C12E 1_555 1_555
C17E C18E 1_555 1_555
C23E C24E 1_555 1_555
C29E C30E 1_555 1_555
Ag1K S2K 1_555 1_555
Ag1K S4K 1_555 1_555
Ag1N S2N 1_555 1_555
Ag1N S4N 1_555 1_555

#END
