
#######################################################################
#
#                 Cambridge Crystallographic Data Centre
#                                CCDC 
#
#######################################################################
#
# If this CIF has been generated from an entry in the Cambridge 
# Structural Database, then it will include bibliographic, chemical, 
# crystal, experimental, refinement or atomic coordinate data resulting 
# from the CCDC's data processing and validation procedures.
#
#######################################################################

data_OPIFUQ
_chemical_formula_moiety         'C120 H36 O100 S24 Sr25'
_symmetry_cell_setting           cubic
_symmetry_space_group_name_H-M   'F m -3 c'
_symmetry_Int_Tables_number      226
_space_group_name_Hall           '-F 4a 2 3'
loop_
_symmetry_equiv_pos_site_id
_symmetry_equiv_pos_as_xyz
1 x,y,z
2 -y,x,1/2+z
3 -x,-y,z
4 y,-x,1/2+z
5 x,-y,-z
6 y,x,1/2-z
7 -x,y,-z
8 -y,-x,1/2-z
9 z,x,y
10 -x,z,1/2+y
11 -z,-x,y
12 x,-z,1/2+y
13 z,-x,-y
14 x,z,1/2-y
15 -z,x,-y
16 -x,-z,1/2-y
17 y,z,x
18 1/2-z,-y,-x
19 1/2-z,y,x
20 1/2+z,y,-x
21 1/2+z,-y,x
22 y,1/2-z,1/2-x
23 -y,1/2-z,1/2+x
24 -y,1/2+z,1/2-x
25 x,1/2+y,1/2+z
26 -y,1/2+x,z
27 -x,1/2-y,1/2+z
28 y,1/2-x,z
29 x,1/2-y,1/2-z
30 y,1/2+x,-z
31 -x,1/2+y,1/2-z
32 -y,1/2-x,-z
33 z,1/2+x,1/2+y
34 -x,1/2+z,y
35 -z,1/2-x,1/2+y
36 x,1/2-z,y
37 z,1/2-x,1/2-y
38 x,1/2+z,-y
39 -z,1/2+x,1/2-y
40 -x,1/2-z,-y
41 y,1/2+z,1/2+x
42 1/2-z,1/2-y,1/2-x
43 1/2-z,1/2+y,1/2+x
44 1/2+z,1/2+y,1/2-x
45 1/2+z,1/2-y,1/2+x
46 y,-z,-x
47 -y,-z,x
48 -y,z,-x
49 1/2+x,y,1/2+z
50 1/2-y,x,z
51 1/2-x,-y,1/2+z
52 1/2+y,-x,z
53 1/2+x,-y,1/2-z
54 1/2+y,x,-z
55 1/2-x,y,1/2-z
56 1/2-y,-x,-z
57 1/2+z,x,1/2+y
58 1/2-x,z,y
59 1/2-z,-x,1/2+y
60 1/2+x,-z,y
61 1/2+z,-x,1/2-y
62 1/2+x,z,-y
63 1/2-z,x,1/2-y
64 1/2-x,-z,-y
65 1/2+y,z,1/2+x
66 -z,-y,1/2-x
67 -z,y,1/2+x
68 z,y,1/2-x
69 z,-y,1/2+x
70 1/2+y,1/2-z,-x
71 1/2-y,1/2-z,x
72 1/2-y,1/2+z,-x
73 1/2+x,1/2+y,z
74 1/2-y,1/2+x,1/2+z
75 1/2-x,1/2-y,z
76 1/2+y,1/2-x,1/2+z
77 1/2+x,1/2-y,-z
78 1/2+y,1/2+x,1/2-z
79 1/2-x,1/2+y,-z
80 1/2-y,1/2-x,1/2-z
81 1/2+z,1/2+x,y
82 1/2-x,1/2+z,1/2+y
83 1/2-z,1/2-x,y
84 1/2+x,1/2-z,1/2+y
85 1/2+z,1/2-x,-y
86 1/2+x,1/2+z,1/2-y
87 1/2-z,1/2+x,-y
88 1/2-x,1/2-z,1/2-y
89 1/2+y,1/2+z,x
90 -z,1/2-y,-x
91 -z,1/2+y,x
92 z,1/2+y,-x
93 z,1/2-y,x
94 1/2+y,-z,1/2-x
95 1/2-y,-z,1/2+x
96 1/2-y,z,1/2-x
97 -x,-y,-z
98 y,-x,1/2-z
99 x,y,-z
100 -y,x,1/2-z
101 -x,y,z
102 -y,-x,1/2+z
103 x,-y,z
104 y,x,1/2+z
105 -z,-x,-y
106 x,-z,1/2-y
107 z,x,-y
108 -x,z,1/2-y
109 -z,x,y
110 -x,-z,1/2+y
111 z,-x,y
112 x,z,1/2+y
113 -y,-z,-x
114 1/2+z,y,x
115 1/2+z,-y,-x
116 1/2-z,-y,x
117 1/2-z,y,-x
118 -y,1/2+z,1/2+x
119 y,1/2+z,1/2-x
120 y,1/2-z,1/2+x
121 -x,1/2-y,1/2-z
122 y,1/2-x,-z
123 x,1/2+y,1/2-z
124 -y,1/2+x,-z
125 -x,1/2+y,1/2+z
126 -y,1/2-x,z
127 x,1/2-y,1/2+z
128 y,1/2+x,z
129 -z,1/2-x,1/2-y
130 x,1/2-z,-y
131 z,1/2+x,1/2-y
132 -x,1/2+z,-y
133 -z,1/2+x,1/2+y
134 -x,1/2-z,y
135 z,1/2-x,1/2+y
136 x,1/2+z,y
137 -y,1/2-z,1/2-x
138 1/2+z,1/2+y,1/2+x
139 1/2+z,1/2-y,1/2-x
140 1/2-z,1/2-y,1/2+x
141 1/2-z,1/2+y,1/2-x
142 -y,z,x
143 y,z,-x
144 y,-z,x
145 1/2-x,-y,1/2-z
146 1/2+y,-x,-z
147 1/2+x,y,1/2-z
148 1/2-y,x,-z
149 1/2-x,y,1/2+z
150 1/2-y,-x,z
151 1/2+x,-y,1/2+z
152 1/2+y,x,z
153 1/2-z,-x,1/2-y
154 1/2+x,-z,-y
155 1/2+z,x,1/2-y
156 1/2-x,z,-y
157 1/2-z,x,1/2+y
158 1/2-x,-z,y
159 1/2+z,-x,1/2+y
160 1/2+x,z,y
161 1/2-y,-z,1/2-x
162 z,y,1/2+x
163 z,-y,1/2-x
164 -z,-y,1/2+x
165 -z,y,1/2-x
166 1/2-y,1/2+z,x
167 1/2+y,1/2+z,-x
168 1/2+y,1/2-z,x
169 1/2-x,1/2-y,-z
170 1/2+y,1/2-x,1/2-z
171 1/2+x,1/2+y,-z
172 1/2-y,1/2+x,1/2-z
173 1/2-x,1/2+y,z
174 1/2-y,1/2-x,1/2+z
175 1/2+x,1/2-y,z
176 1/2+y,1/2+x,1/2+z
177 1/2-z,1/2-x,-y
178 1/2+x,1/2-z,1/2-y
179 1/2+z,1/2+x,-y
180 1/2-x,1/2+z,1/2-y
181 1/2-z,1/2+x,y
182 1/2-x,1/2-z,1/2+y
183 1/2+z,1/2-x,y
184 1/2+x,1/2+z,1/2+y
185 1/2-y,1/2-z,-x
186 z,1/2+y,x
187 z,1/2-y,-x
188 -z,1/2-y,x
189 -z,1/2+y,-x
190 1/2-y,z,1/2+x
191 1/2+y,z,1/2-x
192 1/2+y,-z,1/2+x
_cell_length_a                   41.0051(9)
_cell_length_b                   41.0051(9)
_cell_length_c                   41.0051(9)
_cell_angle_alpha                90
_cell_angle_beta                 90
_cell_angle_gamma                90
_cell_volume                     68946.7
loop_
_atom_site_label
_atom_site_type_symbol
_atom_site_fract_x
_atom_site_fract_y
_atom_site_fract_z
O5 O 0.7500 0.8090(5) 0.2500
Sr2 Sr 0.7500 0.7500 0.2500
O5E O 0.8090(5) 0.7500 0.2500
O5K O 0.7500 0.7500 0.3090(5)
O5N O 0.7500 0.7500 0.1910(5)
O5BA O 0.7500 0.6910(5) 0.2500
O5WA O 0.6910(5) 0.7500 0.2500
O6 O 0.7500 0.8614(7) 0.2500
Sr1 Sr 0.68796(2) 0.76812(2) 1.0000
O1 O 0.65253(14) 0.74707(16) 0.94990(14)
O2 O 0.69521(14) 0.71654(13) 0.96213(13)
O3 O 0.7500 0.7500 1.0000
O4 O 0.6452(3) 0.8117(2) 1.0000
C1 C 0.67077(18) 0.72306(18) 0.94486(17)
C2 C 0.66351(19) 0.70127(18) 0.91716(18)
S1 S 0.63026(5) 0.70964(5) 0.89261(5)
C3 C 0.6815(2) 0.67387(18) 0.90758(18)
C4 C 0.6392(2) 0.67679(18) 0.86800(19)
H1 H 0.6999 0.6659 0.9181
C5 C 0.6669(2) 0.65990(19) 0.8788(2)
O2AA O 0.71654(13) 0.80479(14) 0.96213(13)
O1TC O 0.65253(14) 0.74707(16) 1.05010(14)
O2TC O 0.69521(14) 0.71654(13) 1.03787(13)
O2QD O 0.71654(13) 0.80479(14) 1.03787(13)
Sr1WA Sr 0.73188(2) 0.68796(2) 1.0000
Sr1AA Sr 0.76812(2) 0.81204(2) 1.0000
Sr1VB Sr 0.81204(2) 0.73188(2) 1.0000
C1AA C 0.72306(18) 0.82923(18) 0.94486(17)
O1WA O 0.75293(16) 0.65253(14) 0.94990(14)
O2WA O 0.78346(13) 0.69521(14) 0.96213(13)
O4WA O 0.6883(2) 0.6452(3) 1.0000
O1QE O 0.75293(16) 0.65253(14) 1.05010(14)
O2QE O 0.78346(13) 0.69521(14) 1.03787(13)
O1AA O 0.74707(16) 0.84747(14) 0.94990(14)
O4AA O 0.8117(2) 0.8548(3) 1.0000
O2VB O 0.80479(14) 0.78346(13) 0.96213(13)
O1QD O 0.74707(16) 0.84747(14) 1.05010(14)
O2LF O 0.80479(14) 0.78346(13) 1.03787(13)
O1VB O 0.84747(14) 0.75293(16) 0.94990(14)
O4VB O 0.8548(3) 0.6883(2) 1.0000
O1LF O 0.84747(14) 0.75293(16) 1.05010(14)
C2AA C 0.70127(18) 0.83649(19) 0.91716(18)
C1WA C 0.77694(18) 0.67077(18) 0.94486(17)
C1VB C 0.82923(18) 0.77694(18) 0.94486(17)
S1AA S 0.70964(5) 0.86974(5) 0.89261(5)
C3AA C 0.67387(18) 0.8185(2) 0.90758(18)
C2WA C 0.79873(18) 0.66351(19) 0.91716(18)
C2VB C 0.83649(19) 0.79873(18) 0.91716(18)
C4AA C 0.67679(18) 0.8608(2) 0.86800(19)
H1AA H 0.6659 0.8001 0.9181
C5AA C 0.65990(19) 0.8331(2) 0.8788(2)
C5JB C 0.6212(2) 0.6669(2) 0.84010(19)
C4U C 0.67679(18) 0.63200(19) 0.8608(2)
S1WA S 0.79036(5) 0.63026(5) 0.89261(5)
C3WA C 0.82613(18) 0.6815(2) 0.90758(18)
S1VB S 0.86974(5) 0.79036(5) 0.89261(5)
C3VB C 0.8185(2) 0.82613(18) 0.90758(18)
C5M C 0.6669(2) 0.8788(2) 0.84010(19)
C4OA C 0.63200(19) 0.82321(18) 0.8608(2)
C3JB C 0.59242(18) 0.6815(2) 0.82613(18)
C4JB C 0.63200(19) 0.6392(2) 0.82321(18)
S1U S 0.70964(5) 0.60739(5) 0.86974(5)
C5U C 0.65990(19) 0.6212(2) 0.8331(2)
C4WA C 0.82321(18) 0.6392(2) 0.86800(19)
H1WA H 0.8341 0.6999 0.9181
C5WA C 0.84010(19) 0.6669(2) 0.8788(2)
C4VB C 0.8608(2) 0.82321(18) 0.86800(19)
H1VB H 0.8001 0.8341 0.9181
C5VB C 0.8331(2) 0.84010(19) 0.8788(2)
C3M C 0.6815(2) 0.90758(18) 0.82613(18)
C4M C 0.6392(2) 0.86800(19) 0.82321(18)
S1OA S 0.60739(5) 0.79036(5) 0.86974(5)
C5OA C 0.6212(2) 0.84010(19) 0.8331(2)
C2JB C 0.58284(18) 0.66351(19) 0.79873(18)
H1JB H 0.5819 0.6999 0.8341
S1JB S 0.60739(5) 0.63026(5) 0.79036(5)
C2U C 0.70127(18) 0.58284(18) 0.83649(19)
C3U C 0.67387(18) 0.59242(18) 0.8185(2)
C5IC C 0.8331(2) 0.6212(2) 0.84010(19)
C4OB C 0.86800(19) 0.67679(18) 0.8608(2)
C5JA C 0.8788(2) 0.8331(2) 0.84010(19)
C4QC C 0.82321(18) 0.86800(19) 0.8608(2)
C2M C 0.66351(19) 0.91716(18) 0.79873(18)
H1M H 0.6999 0.9181 0.8341
S1M S 0.63026(5) 0.89261(5) 0.79036(5)
C2OA C 0.58284(18) 0.79873(18) 0.83649(19)
C3OA C 0.59242(18) 0.82613(18) 0.8185(2)
C1JB C 0.55514(17) 0.67077(18) 0.77694(18)
C1U C 0.72306(18) 0.55514(17) 0.82923(18)
H1U H 0.6659 0.5819 0.8001
C3IC C 0.8185(2) 0.59242(18) 0.82613(18)
C4IC C 0.8608(2) 0.63200(19) 0.82321(18)
S1OB S 0.89261(5) 0.70964(5) 0.86974(5)
C5OB C 0.8788(2) 0.65990(19) 0.8331(2)
C3JA C 0.90758(18) 0.8185(2) 0.82613(18)
C4JA C 0.86800(19) 0.8608(2) 0.82321(18)
S1QC S 0.79036(5) 0.89261(5) 0.86974(5)
C5QC C 0.84010(19) 0.8788(2) 0.8331(2)
C1M C 0.67077(18) 0.94486(17) 0.77694(18)
C1OA C 0.55514(17) 0.77694(18) 0.82923(18)
H1OA H 0.5819 0.8341 0.8001
O1JB O 0.55010(14) 0.65253(14) 0.75293(16)
O2JB O 0.53787(13) 0.69521(14) 0.78346(13)
O1U O 0.74707(16) 0.55010(14) 0.84747(14)
O2U O 0.71654(13) 0.53787(13) 0.80479(14)
C2IC C 0.83649(19) 0.58284(18) 0.79873(18)
H1IC H 0.8001 0.5819 0.8341
S1IC S 0.86974(5) 0.60739(5) 0.79036(5)
C2OB C 0.91716(18) 0.70127(18) 0.83649(19)
C3OB C 0.90758(18) 0.67387(18) 0.8185(2)
C2JA C 0.91716(18) 0.83649(19) 0.79873(18)
H1JA H 0.9181 0.8001 0.8341
S1JA S 0.89261(5) 0.86974(5) 0.79036(5)
C2QC C 0.79873(18) 0.91716(18) 0.83649(19)
C3QC C 0.82613(18) 0.90758(18) 0.8185(2)
O1M O 0.65253(14) 0.94990(14) 0.75293(16)
O2M O 0.69521(14) 0.96213(13) 0.78346(13)
O1OA O 0.55010(14) 0.75293(16) 0.84747(14)
O2OA O 0.53787(13) 0.78346(13) 0.80479(14)
Sr1JB Sr 0.5000 0.68796(2) 0.73188(2)
Sr1OA Sr 0.5000 0.73188(2) 0.81204(2)
Sr1U Sr 0.76812(2) 0.5000 0.81204(2)
Sr1IA Sr 0.68796(2) 0.5000 0.76812(2)
C1IC C 0.82923(18) 0.55514(17) 0.77694(18)
C1OB C 0.94486(17) 0.72306(18) 0.82923(18)
H1OB H 0.9181 0.6659 0.8001
C1JA C 0.94486(17) 0.82923(18) 0.77694(18)
C1QC C 0.77694(18) 0.94486(17) 0.82923(18)
H1QC H 0.8341 0.9181 0.8001
Sr1M Sr 0.68796(2) 1.0000 0.73188(2)
Sr1QC Sr 0.73188(2) 1.0000 0.81204(2)
Sr1DC Sr 0.5000 0.81204(2) 0.76812(2)
O2R O 0.53787(13) 0.71654(13) 0.69521(14)
O3R O 0.5000 0.7500 0.7500
O4JB O 0.5000 0.6452(3) 0.6883(2)
O1XE O 0.44990(14) 0.65253(14) 0.75293(16)
O2ID O 0.46213(13) 0.71654(13) 0.69521(14)
O2XE O 0.46213(13) 0.69521(14) 0.78346(13)
O4OA O 0.5000 0.6883(2) 0.8548(3)
O1HE O 0.44990(14) 0.75293(16) 0.84747(14)
O2HE O 0.46213(13) 0.78346(13) 0.80479(14)
O4U O 0.8117(2) 0.5000 0.8548(3)
O2IC O 0.80479(14) 0.53787(13) 0.78346(13)
O1ND O 0.74707(16) 0.44990(14) 0.84747(14)
O2ND O 0.71654(13) 0.46213(13) 0.80479(14)
O2WF O 0.80479(14) 0.46213(13) 0.78346(13)
O3U O 0.7500 0.5000 0.7500
O1IA O 0.65253(14) 0.55010(14) 0.74707(16)
O2IA O 0.69521(14) 0.53787(13) 0.71654(13)
O2EE O 0.69521(14) 0.46213(13) 0.71654(13)
O1IC O 0.84747(14) 0.55010(14) 0.75293(16)
O1OB O 0.94990(14) 0.74707(16) 0.84747(14)
O2OB O 0.96213(13) 0.71654(13) 0.80479(14)
O1JA O 0.94990(14) 0.84747(14) 0.75293(16)
O2JA O 0.96213(13) 0.80479(14) 0.78346(13)
O1QC O 0.75293(16) 0.94990(14) 0.84747(14)
O2QC O 0.78346(13) 0.96213(13) 0.80479(14)
O3M O 0.7500 1.0000 0.7500
O2P O 0.71654(13) 0.96213(13) 0.69521(14)
O2ME O 0.71654(13) 1.03787(13) 0.69521(14)
O1DC O 0.55010(14) 0.84747(14) 0.74707(16)
O2DC O 0.53787(13) 0.80479(14) 0.71654(13)
O4DC O 0.5000 0.8548(3) 0.8117(2)
O1ZF O 0.44990(14) 0.84747(14) 0.74707(16)
O2ZF O 0.46213(13) 0.80479(14) 0.71654(13)
C1R C 0.55514(17) 0.72306(18) 0.67077(18)
Sr1R Sr 0.5000 0.76812(2) 0.68796(2)
Sr1IC Sr 0.81204(2) 0.5000 0.73188(2)
Sr1RB Sr 0.73188(2) 0.5000 0.68796(2)
C1IA C 0.67077(18) 0.55514(17) 0.72306(18)
Sr1OB Sr 1.0000 0.76812(2) 0.81204(2)
Sr1H Sr 1.0000 0.68796(2) 0.76812(2)
Sr1JA Sr 1.0000 0.81204(2) 0.73188(2)
Sr1EB Sr 0.81204(2) 1.0000 0.76812(2)
Sr1P Sr 0.76812(2) 1.0000 0.68796(2)
C1P C 0.72306(18) 0.94486(17) 0.67077(18)
C1DC C 0.55514(17) 0.82923(18) 0.72306(18)
O1R O 0.55010(14) 0.74707(16) 0.65253(14)
C2R C 0.58284(18) 0.70127(18) 0.66351(19)
O2RB O 0.78346(13) 0.53787(13) 0.69521(14)
O4IC O 0.8548(3) 0.5000 0.6883(2)
O1WF O 0.84747(14) 0.44990(14) 0.75293(16)
O2IF O 0.78346(13) 0.46213(13) 0.69521(14)
O1RB O 0.75293(16) 0.55010(14) 0.65253(14)
O4RB O 0.6883(2) 0.5000 0.6452(3)
O1IF O 0.75293(16) 0.44990(14) 0.65253(14)
C2IA C 0.66351(19) 0.58284(18) 0.70127(18)
O2XD O 1.03787(13) 0.80479(14) 0.78346(13)
O3H O 1.0000 0.7500 0.7500
O1H O 0.94990(14) 0.65253(14) 0.74707(16)
O2H O 0.96213(13) 0.69521(14) 0.71654(13)
O4JA O 1.0000 0.8548(3) 0.6883(2)
O2NC O 0.96213(13) 0.78346(13) 0.69521(14)
O1XD O 1.05010(14) 0.84747(14) 0.75293(16)
O2EG O 1.03787(13) 0.78346(13) 0.69521(14)
O1EB O 0.84747(14) 0.94990(14) 0.74707(16)
O2EB O 0.80479(14) 0.96213(13) 0.71654(13)
O2AF O 0.80479(14) 1.03787(13) 0.71654(13)
O1P O 0.74707(16) 0.94990(14) 0.65253(14)
O4P O 0.8117(2) 1.0000 0.6452(3)
O1ME O 0.74707(16) 1.05010(14) 0.65253(14)
C2P C 0.70127(18) 0.91716(18) 0.66351(19)
C2DC C 0.58284(18) 0.83649(19) 0.70127(18)
S1R S 0.60739(5) 0.70964(5) 0.63026(5)
C3R C 0.59242(18) 0.67387(18) 0.6815(2)
C1RB C 0.77694(18) 0.55514(17) 0.67077(18)
S1IA S 0.63026(5) 0.60739(5) 0.70964(5)
C3IA C 0.6815(2) 0.59242(18) 0.67387(18)
Sr1NC Sr 1.0000 0.73188(2) 0.68796(2)
C1H C 0.94486(17) 0.67077(18) 0.72306(18)
C1NC C 0.94486(17) 0.77694(18) 0.67077(18)
C1EB C 0.82923(18) 0.94486(17) 0.72306(18)
S1P S 0.70964(5) 0.89261(5) 0.63026(5)
C3P C 0.67387(18) 0.90758(18) 0.6815(2)
S1DC S 0.60739(5) 0.86974(5) 0.70964(5)
C3DC C 0.59242(18) 0.8185(2) 0.67387(18)
C4R C 0.63200(19) 0.67679(18) 0.6392(2)
H1R H 0.5819 0.6659 0.6999
C5R C 0.6212(2) 0.65990(19) 0.6669(2)
C2RB C 0.79873(18) 0.58284(18) 0.66351(19)
C4IA C 0.6392(2) 0.63200(19) 0.67679(18)
H1IA H 0.6999 0.5819 0.6659
C5IA C 0.6669(2) 0.6212(2) 0.65990(19)
O1NC O 0.94990(14) 0.75293(16) 0.65253(14)
C2H C 0.91716(18) 0.66351(19) 0.70127(18)
C2NC C 0.91716(18) 0.79873(18) 0.66351(19)
C2EB C 0.83649(19) 0.91716(18) 0.70127(18)
C4P C 0.67679(18) 0.86800(19) 0.6392(2)
H1P H 0.6659 0.9181 0.6999
C5P C 0.65990(19) 0.8788(2) 0.6669(2)
C4DC C 0.63200(19) 0.8608(2) 0.67679(18)
H1DC H 0.5819 0.8001 0.6659
C5DC C 0.6212(2) 0.8331(2) 0.65990(19)
C5E C 0.65990(19) 0.6669(2) 0.6212(2)
S1RB S 0.79036(5) 0.60739(5) 0.63026(5)
C3RB C 0.82613(18) 0.59242(18) 0.6815(2)
C4E C 0.67679(18) 0.6392(2) 0.63200(19)
S1H S 0.89261(5) 0.63026(5) 0.70964(5)
C3H C 0.90758(18) 0.6815(2) 0.67387(18)
S1NC S 0.89261(5) 0.79036(5) 0.63026(5)
C3NC C 0.90758(18) 0.82613(18) 0.6815(2)
S1EB S 0.86974(5) 0.89261(5) 0.70964(5)
C3EB C 0.8185(2) 0.90758(18) 0.67387(18)
C5BA C 0.6669(2) 0.84010(19) 0.6212(2)
C4BA C 0.6392(2) 0.82321(18) 0.63200(19)
C3E C 0.67387(18) 0.6815(2) 0.59242(18)
C4RB C 0.82321(18) 0.63200(19) 0.6392(2)
H1RB H 0.8341 0.5819 0.6999
C5RB C 0.84010(19) 0.6212(2) 0.6669(2)
S1E S 0.70964(5) 0.63026(5) 0.60739(5)
C4H C 0.86800(19) 0.6392(2) 0.67679(18)
H1H H 0.9181 0.6999 0.6659
C5H C 0.8788(2) 0.6669(2) 0.65990(19)
C4NC C 0.86800(19) 0.82321(18) 0.6392(2)
H1NC H 0.9181 0.8341 0.6999
C5NC C 0.8788(2) 0.84010(19) 0.6669(2)
C4EB C 0.8608(2) 0.86800(19) 0.67679(18)
H1EB H 0.8001 0.9181 0.6659
C5EB C 0.8331(2) 0.8788(2) 0.65990(19)
C3BA C 0.6815(2) 0.82613(18) 0.59242(18)
S1BA S 0.63026(5) 0.79036(5) 0.60739(5)
C2E C 0.70127(18) 0.66351(19) 0.58284(18)
H1E H 0.6659 0.6999 0.5819
C5BB C 0.8331(2) 0.65990(19) 0.6212(2)
C4BB C 0.8608(2) 0.67679(18) 0.63200(19)
C5AC C 0.84010(19) 0.8331(2) 0.6212(2)
C4AC C 0.82321(18) 0.8608(2) 0.63200(19)
C2BA C 0.66351(19) 0.79873(18) 0.58284(18)
H1BA H 0.6999 0.8341 0.5819
C1E C 0.72306(18) 0.67077(18) 0.55514(17)
C3BB C 0.8185(2) 0.67387(18) 0.59242(18)
S1BB S 0.86974(5) 0.70964(5) 0.60739(5)
C3AC C 0.82613(18) 0.8185(2) 0.59242(18)
S1AC S 0.79036(5) 0.86974(5) 0.60739(5)
C1BA C 0.67077(18) 0.77694(18) 0.55514(17)
O1E O 0.74707(16) 0.65253(14) 0.55010(14)
O2E O 0.71654(13) 0.69521(14) 0.53787(13)
C2BB C 0.83649(19) 0.70127(18) 0.58284(18)
H1BB H 0.8001 0.6659 0.5819
C2AC C 0.79873(18) 0.83649(19) 0.58284(18)
H1AC H 0.8341 0.8001 0.5819
O1BA O 0.65253(14) 0.75293(16) 0.55010(14)
O2BA O 0.69521(14) 0.78346(13) 0.53787(13)
Sr1E Sr 0.76812(2) 0.68796(2) 0.5000
Sr1BA Sr 0.68796(2) 0.73188(2) 0.5000
C1BB C 0.82923(18) 0.72306(18) 0.55514(17)
C1AC C 0.77694(18) 0.82923(18) 0.55514(17)
Sr1AC Sr 0.73188(2) 0.81204(2) 0.5000
O2BB O 0.80479(14) 0.71654(13) 0.53787(13)
O1BB O 0.84747(14) 0.74707(16) 0.55010(14)
O1AC O 0.75293(16) 0.84747(14) 0.55010(14)
O2AC O 0.78346(13) 0.80479(14) 0.53787(13)
Sr1BB Sr 0.81204(2) 0.76812(2) 0.5000
loop_
_geom_bond_atom_site_label_1
_geom_bond_atom_site_label_2
_geom_bond_site_symmetry_1
_geom_bond_site_symmetry_2
Sr1 O1 1_555 1_555
O1 C1 1_555 1_555
O2 Sr1 1_555 1_555
O3 Sr1 1_555 1_555
O4 Sr1 1_555 1_555
C1 O2 1_555 1_555
C2 C1 1_555 1_555
S1 C2 1_555 1_555
C3 C2 1_555 1_555
C4 S1 1_555 1_555
H1 C3 1_555 1_555
C5 C3 1_555 1_555
O5 Sr2 1_555 1_555
Sr2 O5E 1_555 1_555
O2AA Sr1 1_555 1_555
O1TC Sr1 1_555 1_555
O2TC Sr1 1_555 1_555
O2QD Sr1 1_555 1_555
Sr1WA O2 1_555 1_555
Sr1AA O3 1_555 1_555
Sr1VB O3 1_555 1_555
C1AA O2AA 1_555 1_555
O1WA Sr1WA 1_555 1_555
O2WA Sr1WA 1_555 1_555
O4WA Sr1WA 1_555 1_555
O1QE Sr1WA 1_555 1_555
O2QE Sr1WA 1_555 1_555
O1AA Sr1AA 1_555 1_555
O4AA Sr1AA 1_555 1_555
O2VB Sr1AA 1_555 1_555
O1QD Sr1AA 1_555 1_555
O2LF Sr1AA 1_555 1_555
O1VB Sr1VB 1_555 1_555
O4VB Sr1VB 1_555 1_555
O1LF Sr1VB 1_555 1_555
C2AA C1AA 1_555 1_555
C1WA O1WA 1_555 1_555
C1VB O2VB 1_555 1_555
S1AA C2AA 1_555 1_555
C3AA C2AA 1_555 1_555
C2WA C1WA 1_555 1_555
C2VB C1VB 1_555 1_555
C4AA S1AA 1_555 1_555
H1AA C3AA 1_555 1_555
C5AA C3AA 1_555 1_555
C5JB C4 1_555 1_555
C4U C5 1_555 1_555
S1WA C2WA 1_555 1_555
C3WA C2WA 1_555 1_555
S1VB C2VB 1_555 1_555
C3VB C2VB 1_555 1_555
C5M C4AA 1_555 1_555
C4OA C5AA 1_555 1_555
C3JB C5JB 1_555 1_555
C4JB C5JB 1_555 1_555
S1U C4U 1_555 1_555
C5U C4U 1_555 1_555
C4WA S1WA 1_555 1_555
H1WA C3WA 1_555 1_555
C5WA C3WA 1_555 1_555
C4VB S1VB 1_555 1_555
H1VB C3VB 1_555 1_555
C5VB C3VB 1_555 1_555
C3M C5M 1_555 1_555
C4M C5M 1_555 1_555
S1OA C4OA 1_555 1_555
C5OA C4OA 1_555 1_555
C2JB C3JB 1_555 1_555
H1JB C3JB 1_555 1_555
S1JB C4JB 1_555 1_555
C2U S1U 1_555 1_555
C3U C5U 1_555 1_555
C5IC C4WA 1_555 1_555
C4OB C5WA 1_555 1_555
C5JA C4VB 1_555 1_555
C4QC C5VB 1_555 1_555
C2M C3M 1_555 1_555
H1M C3M 1_555 1_555
S1M C4M 1_555 1_555
C2OA S1OA 1_555 1_555
C3OA C5OA 1_555 1_555
C1JB C2JB 1_555 1_555
C1U C2U 1_555 1_555
H1U C3U 1_555 1_555
C3IC C5IC 1_555 1_555
C4IC C5IC 1_555 1_555
S1OB C4OB 1_555 1_555
C5OB C4OB 1_555 1_555
C3JA C5JA 1_555 1_555
C4JA C5JA 1_555 1_555
S1QC C4QC 1_555 1_555
C5QC C4QC 1_555 1_555
C1M C2M 1_555 1_555
C1OA C2OA 1_555 1_555
H1OA C3OA 1_555 1_555
O1JB C1JB 1_555 1_555
O2JB C1JB 1_555 1_555
O1U C1U 1_555 1_555
O2U C1U 1_555 1_555
C2IC C3IC 1_555 1_555
H1IC C3IC 1_555 1_555
S1IC C4IC 1_555 1_555
C2OB S1OB 1_555 1_555
C3OB C5OB 1_555 1_555
C2JA C3JA 1_555 1_555
H1JA C3JA 1_555 1_555
S1JA C4JA 1_555 1_555
C2QC S1QC 1_555 1_555
C3QC C5QC 1_555 1_555
O1M C1M 1_555 1_555
O2M C1M 1_555 1_555
O1OA C1OA 1_555 1_555
O2OA C1OA 1_555 1_555
Sr1JB O1JB 1_555 1_555
Sr1OA O2JB 1_555 1_555
Sr1U O1U 1_555 1_555
Sr1IA O2U 1_555 1_555
C1IC C2IC 1_555 1_555
C1OB C2OB 1_555 1_555
H1OB C3OB 1_555 1_555
C1JA C2JA 1_555 1_555
C1QC C2QC 1_555 1_555
H1QC C3QC 1_555 1_555
Sr1M O1M 1_555 1_555
Sr1QC O2M 1_555 1_555
Sr1DC O2OA 1_555 1_555
O2R Sr1JB 1_555 1_555
O3R Sr1JB 1_555 1_555
O4JB Sr1JB 1_555 1_555
O1XE Sr1JB 1_555 1_555
O2ID Sr1JB 1_555 1_555
O2XE Sr1JB 1_555 1_555
O4OA Sr1OA 1_555 1_555
O1HE Sr1OA 1_555 1_555
O2HE Sr1OA 1_555 1_555
O4U Sr1U 1_555 1_555
O2IC Sr1U 1_555 1_555
O1ND Sr1U 1_555 1_555
O2ND Sr1U 1_555 1_555
O2WF Sr1U 1_555 1_555
O3U Sr1U 1_555 1_555
O1IA Sr1IA 1_555 1_555
O2IA Sr1IA 1_555 1_555
O2EE Sr1IA 1_555 1_555
O1IC C1IC 1_555 1_555
O1OB C1OB 1_555 1_555
O2OB C1OB 1_555 1_555
O1JA C1JA 1_555 1_555
O2JA C1JA 1_555 1_555
O1QC C1QC 1_555 1_555
O2QC C1QC 1_555 1_555
O3M Sr1M 1_555 1_555
O2P Sr1M 1_555 1_555
O2ME Sr1M 1_555 1_555
O1DC Sr1DC 1_555 1_555
O2DC Sr1DC 1_555 1_555
O4DC Sr1DC 1_555 1_555
O1ZF Sr1DC 1_555 1_555
O2ZF Sr1DC 1_555 1_555
C1R O2R 1_555 1_555
Sr1R O2R 1_555 1_555
Sr1IC O2IC 1_555 1_555
Sr1RB O3U 1_555 1_555
C1IA O1IA 1_555 1_555
Sr1OB O1OB 1_555 1_555
Sr1H O2OB 1_555 1_555
Sr1JA O1JA 1_555 1_555
Sr1EB O2QC 1_555 1_555
Sr1P O3M 1_555 1_555
C1P O2P 1_555 1_555
C1DC O1DC 1_555 1_555
O1R C1R 1_555 1_555
C2R C1R 1_555 1_555
O2RB Sr1IC 1_555 1_555
O4IC Sr1IC 1_555 1_555
O1WF Sr1IC 1_555 1_555
O2IF Sr1IC 1_555 1_555
O1RB Sr1RB 1_555 1_555
O4RB Sr1RB 1_555 1_555
O1IF Sr1RB 1_555 1_555
C2IA C1IA 1_555 1_555
O2XD Sr1OB 1_555 1_555
O3H Sr1OB 1_555 1_555
O1H Sr1H 1_555 1_555
O2H Sr1H 1_555 1_555
O4JA Sr1JA 1_555 1_555
O2NC Sr1JA 1_555 1_555
O1XD Sr1JA 1_555 1_555
O2EG Sr1JA 1_555 1_555
O1EB Sr1EB 1_555 1_555
O2EB Sr1EB 1_555 1_555
O2AF Sr1EB 1_555 1_555
O1P Sr1P 1_555 1_555
O4P Sr1P 1_555 1_555
O1ME Sr1P 1_555 1_555
C2P C1P 1_555 1_555
C2DC C1DC 1_555 1_555
S1R C2R 1_555 1_555
C3R C2R 1_555 1_555
C1RB O2RB 1_555 1_555
S1IA C2IA 1_555 1_555
C3IA C2IA 1_555 1_555
Sr1NC O3H 1_555 1_555
C1H O1H 1_555 1_555
C1NC O2NC 1_555 1_555
C1EB O1EB 1_555 1_555
S1P C2P 1_555 1_555
C3P C2P 1_555 1_555
S1DC C2DC 1_555 1_555
C3DC C2DC 1_555 1_555
C4R S1R 1_555 1_555
H1R C3R 1_555 1_555
C5R C3R 1_555 1_555
C2RB C1RB 1_555 1_555
C4IA S1IA 1_555 1_555
H1IA C3IA 1_555 1_555
C5IA C3IA 1_555 1_555
O1NC Sr1NC 1_555 1_555
C2H C1H 1_555 1_555
C2NC C1NC 1_555 1_555
C2EB C1EB 1_555 1_555
C4P S1P 1_555 1_555
H1P C3P 1_555 1_555
C5P C3P 1_555 1_555
C4DC S1DC 1_555 1_555
H1DC C3DC 1_555 1_555
C5DC C3DC 1_555 1_555
C5E C4R 1_555 1_555
S1RB C2RB 1_555 1_555
C3RB C2RB 1_555 1_555
C4E C5IA 1_555 1_555
S1H C2H 1_555 1_555
C3H C2H 1_555 1_555
S1NC C2NC 1_555 1_555
C3NC C2NC 1_555 1_555
S1EB C2EB 1_555 1_555
C3EB C2EB 1_555 1_555
C5BA C4P 1_555 1_555
C4BA C5DC 1_555 1_555
C3E C5E 1_555 1_555
C4RB S1RB 1_555 1_555
H1RB C3RB 1_555 1_555
C5RB C3RB 1_555 1_555
S1E C4E 1_555 1_555
C4H S1H 1_555 1_555
H1H C3H 1_555 1_555
C5H C3H 1_555 1_555
C4NC S1NC 1_555 1_555
H1NC C3NC 1_555 1_555
C5NC C3NC 1_555 1_555
C4EB S1EB 1_555 1_555
H1EB C3EB 1_555 1_555
C5EB C3EB 1_555 1_555
C3BA C5BA 1_555 1_555
S1BA C4BA 1_555 1_555
C2E C3E 1_555 1_555
H1E C3E 1_555 1_555
C5BB C4RB 1_555 1_555
C4BB C5H 1_555 1_555
C5AC C4NC 1_555 1_555
C4AC C5EB 1_555 1_555
C2BA C3BA 1_555 1_555
H1BA C3BA 1_555 1_555
C1E C2E 1_555 1_555
C3BB C5BB 1_555 1_555
S1BB C4BB 1_555 1_555
C3AC C5AC 1_555 1_555
S1AC C4AC 1_555 1_555
C1BA C2BA 1_555 1_555
O1E C1E 1_555 1_555
O2E C1E 1_555 1_555
C2BB C3BB 1_555 1_555
H1BB C3BB 1_555 1_555
C2AC C3AC 1_555 1_555
H1AC C3AC 1_555 1_555
O1BA C1BA 1_555 1_555
O2BA C1BA 1_555 1_555
Sr1E O1E 1_555 1_555
Sr1BA O2E 1_555 1_555
C1BB C2BB 1_555 1_555
C1AC C2AC 1_555 1_555
Sr1AC O2BA 1_555 1_555
O2BB Sr1E 1_555 1_555
O1BB C1BB 1_555 1_555
O1AC C1AC 1_555 1_555
O2AC C1AC 1_555 1_555
Sr1BB O2BB 1_555 1_555
O5K Sr2 1_555 1_555
O5N Sr2 1_555 1_555
O5BA Sr2 1_555 1_555
O5WA Sr2 1_555 1_555
O3 Sr1WA 1_555 1_555
C4 C5 1_555 1_555
O2AA Sr1AA 1_555 1_555
O2TC Sr1WA 1_555 1_555
O2QD Sr1AA 1_555 1_555
Sr1VB O2WA 1_555 1_555
Sr1VB O2QE 1_555 1_555
Sr1VB O2VB 1_555 1_555
Sr1VB O2LF 1_555 1_555
C1AA O1AA 1_555 1_555
O2WA C1WA 1_555 1_555
O1VB C1VB 1_555 1_555
C4AA C5AA 1_555 1_555
C4JB C5U 1_555 1_555
C4WA C5WA 1_555 1_555
C4VB C5VB 1_555 1_555
C4M C5OA 1_555 1_555
C2JB S1JB 1_555 1_555
C2U C3U 1_555 1_555
C2M S1M 1_555 1_555
C2OA C3OA 1_555 1_555
C4IC C5OB 1_555 1_555
C4JA C5QC 1_555 1_555
O2JB Sr1JB 1_555 1_555
O2U Sr1U 1_555 1_555
C2IC S1IC 1_555 1_555
C2OB C3OB 1_555 1_555
C2JA S1JA 1_555 1_555
C2QC C3QC 1_555 1_555
O2M Sr1M 1_555 1_555
O1OA Sr1OA 1_555 1_555
O2OA Sr1OA 1_555 1_555
Sr1OA O3R 1_555 1_555
Sr1OA O2XE 1_555 1_555
Sr1IA O2ND 1_555 1_555
Sr1IA O3U 1_555 1_555
C1IC O2IC 1_555 1_555
Sr1QC O1QC 1_555 1_555
Sr1QC O2QC 1_555 1_555
Sr1QC O3M 1_555 1_555
Sr1DC O3R 1_555 1_555
Sr1DC O2HE 1_555 1_555
O3R Sr1R 1_555 1_555
O2ID Sr1R 1_555 1_555
O2WF Sr1IC 1_555 1_555
O3U Sr1IC 1_555 1_555
O2IA Sr1RB 1_555 1_555
O2IA C1IA 1_555 1_555
O2EE Sr1RB 1_555 1_555
O1IC Sr1IC 1_555 1_555
O2OB Sr1OB 1_555 1_555
O2JA Sr1OB 1_555 1_555
O2JA Sr1JA 1_555 1_555
O3M Sr1EB 1_555 1_555
O2P Sr1P 1_555 1_555
O2ME Sr1P 1_555 1_555
O2DC Sr1R 1_555 1_555
O2DC C1DC 1_555 1_555
O2ZF Sr1R 1_555 1_555
Sr1R O1R 1_555 1_555
Sr1RB O2RB 1_555 1_555
Sr1RB O2IF 1_555 1_555
Sr1H O3H 1_555 1_555
Sr1JA O2XD 1_555 1_555
Sr1JA O3H 1_555 1_555
Sr1P O2EB 1_555 1_555
Sr1P O2AF 1_555 1_555
C1P O1P 1_555 1_555
O1RB C1RB 1_555 1_555
O2H Sr1NC 1_555 1_555
O2H C1H 1_555 1_555
O2NC Sr1NC 1_555 1_555
O2EG Sr1NC 1_555 1_555
O2EB C1EB 1_555 1_555
C1NC O1NC 1_555 1_555
C4R C5R 1_555 1_555
C5R C4IA 1_555 1_555
C4IA C5IA 1_555 1_555
C4P C5P 1_555 1_555
C5P C4DC 1_555 1_555
C4DC C5DC 1_555 1_555
C5E C4E 1_555 1_555
C5BA C4BA 1_555 1_555
C4RB C5RB 1_555 1_555
C5RB C4H 1_555 1_555
S1E C2E 1_555 1_555
C4H C5H 1_555 1_555
C4NC C5NC 1_555 1_555
C5NC C4EB 1_555 1_555
C4EB C5EB 1_555 1_555
S1BA C2BA 1_555 1_555
C5BB C4BB 1_555 1_555
C5AC C4AC 1_555 1_555
S1BB C2BB 1_555 1_555
S1AC C2AC 1_555 1_555
O2E Sr1E 1_555 1_555
O1BA Sr1BA 1_555 1_555
O2BA Sr1BA 1_555 1_555
C1BB O2BB 1_555 1_555
Sr1AC O1AC 1_555 1_555
Sr1AC O2AC 1_555 1_555
O1BB Sr1BB 1_555 1_555
O2AC Sr1BB 1_555 1_555

#END
