
#######################################################################
#
#                 Cambridge Crystallographic Data Centre
#                                CCDC 
#
#######################################################################
#
# If this CIF has been generated from an entry in the Cambridge 
# Structural Database, then it will include bibliographic, chemical, 
# crystal, experimental, refinement or atomic coordinate data resulting 
# from the CCDC's data processing and validation procedures.
#
#######################################################################

data_LUDVAH
_chemical_formula_moiety         '(C85 H53 I12 N25 O4 Zn6)n'
_symmetry_cell_setting           triclinic
_symmetry_space_group_name_H-M   'P -1'
_symmetry_Int_Tables_number      2
_space_group_name_Hall           '-P 1'
loop_
_symmetry_equiv_pos_site_id
_symmetry_equiv_pos_as_xyz
1 x,y,z
2 -x,-y,-z
_cell_length_a                   14.297(3)
_cell_length_b                   17.164(3)
_cell_length_c                   27.333(5)
_cell_angle_alpha                89.970(5)
_cell_angle_beta                 77.104(4)
_cell_angle_gamma                74.591(4)
_cell_volume                     6290.8
loop_
_atom_site_label
_atom_site_type_symbol
_atom_site_fract_x
_atom_site_fract_y
_atom_site_fract_z
N25 N 1.574(3) -0.878(2) -0.8426(12)
O1 O 1.670(2) -0.8861(16) -0.8427(10)
O2 O 1.559(2) -0.9449(17) -0.8500(10)
C73 C 1.500(2) -0.8082(19) -0.8383(11)
C74 C 1.406(3) -0.805(2) -0.8234(13)
C75 C 1.330(3) -0.731(2) -0.8153(13)
C76 C 1.370(2) -0.668(2) -0.8242(12)
C77 C 1.472(3) -0.663(2) -0.8406(14)
C78 C 1.537(2) -0.744(2) -0.8429(12)
O3 O 1.207(4) 0.762(3) 0.465(2)
O4 O 1.329(3) 0.657(2) 0.4406(13)
C79 C 1.204(4) 0.689(3) 0.395(2)
C80 C 1.096(4) 0.724(3) 0.3925(18)
C81 C 1.056(4) 0.712(3) 0.3553(19)
C82 C 1.118(4) 0.643(3) 0.3197(17)
C83 C 1.218(4) 0.620(3) 0.3216(18)
C84 C 1.272(3) 0.625(3) 0.3532(17)
C111 C 1.258(6) 0.698(5) 0.435(3)
Zn1 Zn 1.4292(2) -0.62745(17) -1.00133(12)
Zn2 Zn 1.5016(2) -1.30845(18) -0.75709(12)
Zn3 Zn 1.9335(3) -1.4411(3) -1.35779(15)
Zn4 Zn 0.9858(2) -1.15697(19) -1.10467(12)
Zn5 Zn 1.1799(3) 0.04578(19) -0.72001(13)
Zn6 Zn 1.3011(3) -1.7908(3) -1.4364(2)
I1 I 1.35722(18) -0.57105(12) -1.07502(8)
I2 I 1.60456(15) -0.63802(11) -0.99389(8)
I3 I 1.41368(17) -1.21938(13) -0.67686(8)
I4 I 1.47517(16) -1.44621(11) -0.77215(8)
I6 I 2.0273(14) -1.5676(17) -1.4263(6)
I7 I 1.96044(15) -1.44827(12) -1.26883(8)
I8 I 0.88882(17) -1.02223(14) -1.12815(9)
I9 I 0.90106(17) -1.25463(15) -1.05642(8)
I10 I 1.0840(3) 0.17664(13) -0.74849(10)
I11 I 1.36126(18) 0.02559(13) -0.72129(8)
I13 I 1.1915(4) -1.8507(10) -1.3888(7)
I14 I 1.2987(6) -1.7128(8) -1.5291(3)
N1 N 1.3051(13) -0.9964(12) -0.9987(7)
N2 N 1.3982(15) -1.0192(12) -0.9363(7)
N3 N 1.3167(15) -1.1132(11) -0.9590(7)
C1 C 1.2802(18) -1.0645(14) -0.9905(9)
C2 C 1.3616(16) -0.9751(14) -0.9696(10)
C3 C 1.374(2) -1.0906(15) -0.9310(9)
N4 N 1.0842(14) -1.1303(13) -1.0658(8)
C4 C 1.097(3) -1.0590(19) -1.0644(12)
H1 H 1.0575 -1.0189 -1.0795
C5 C 1.166(3) -1.036(2) -1.0424(12)
H2 H 1.1773 -0.9857 -1.0482
C6 C 1.213(2) -1.0826(16) -1.0150(10)
C7 C 1.198(2) -1.1634(18) -1.0171(10)
H3 H 1.2331 -1.2042 -1.0006
C8 C 1.134(2) -1.1804(17) -1.0425(14)
H4 H 1.1270 -1.2327 -1.0424
N5 N 1.4091(15) -0.7442(11) -0.9924(7)
C9 C 1.439(2) -0.7874(15) -0.9569(11)
H5 H 1.4698 -0.7645 -0.9361
C10 C 1.430(2) -0.8675(15) -0.9472(10)
H6 H 1.4516 -0.8968 -0.9214
C11 C 1.3839(15) -0.8970(14) -0.9800(9)
C12 C 1.353(2) -0.8506(15) -1.0164(10)
H7 H 1.3206 -0.8708 -1.0372
C13 C 1.3672(19) -0.7764(16) -1.0239(10)
H8 H 1.3482 -0.7478 -1.0506
N6 N 1.4705(14) -1.2394(11) -0.8180(7)
C14 C 1.4312(18) -1.2627(15) -0.8527(9)
H9 H 1.4216 -1.3142 -0.8517
C15 C 1.404(2) -1.2151(16) -0.8899(10)
H10 H 1.3799 -1.2363 -0.9144
C16 C 1.4107(18) -1.1381(14) -0.8922(9)
C17 C 1.456(2) -1.1147(16) -0.8573(9)
H11 H 1.4702 -1.0647 -0.8587
C18 C 1.4801(16) -1.1640(14) -0.8215(9)
H12 H 1.5054 -1.1444 -0.7971
N7 N 1.4597(16) -1.4792(13) -1.3499(8)
N8 N 1.2948(16) -1.4437(13) -1.2983(7)
N9 N 1.4106(14) -1.3650(11) -1.2889(7)
C19 C 1.4765(15) -1.4218(12) -1.3288(8)
C20 C 1.3200(18) -1.3787(14) -1.2775(10)
C21 C 1.372(2) -1.4882(15) -1.3321(10)
N10 N 1.7797(14) -1.4223(13) -1.3497(9)
C22 C 1.744(2) -1.454(2) -1.3855(10)
H13 H 1.7889 -1.4791 -1.4149
C23 C 1.645(2) -1.451(2) -1.3802(11)
H14 H 1.6239 -1.4758 -1.4044
C24 C 1.5771(18) -1.4092(18) -1.3359(10)
C25 C 1.6131(19) -1.3772(16) -1.3016(9)
H15 H 1.5703 -1.3504 -1.2721
C26 C 1.7119(19) -1.3846(16) -1.3103(9)
H16 H 1.7339 -1.3606 -1.2862
N11 N 1.3260(18) -1.6966(15) -1.3991(9)
C27 C 1.406(2) -1.681(2) -1.4083(14)
H17 H 1.4587 -1.7185 -1.4293
C28 C 1.427(2) -1.6123(18) -1.3909(13)
H18 H 1.4876 -1.6013 -1.4027
C29 C 1.3521(17) -1.5626(16) -1.3556(10)
C30 C 1.264(2) -1.5769(16) -1.3441(11)
H19 H 1.2111 -1.5407 -1.3219
C31 C 1.2471(19) -1.6465(16) -1.3650(10)
H20 H 1.1856 -1.6577 -1.3561
N12 N 1.0944(15) -1.2256(11) -1.1641(8)
C32 C 1.0846(18) -1.2905(13) -1.1856(9)
H21 H 1.0221 -1.3001 -1.1773
C33 C 1.1557(16) -1.3433(15) -1.2178(10)
H22 H 1.1465 -1.3930 -1.2258
C34 C 1.2380(15) -1.3262(12) -1.2384(8)
C35 C 1.2505(18) -1.2546(14) -1.2212(10)
H23 H 1.3074 -1.2388 -1.2356
C36 C 1.179(2) -1.2066(14) -1.1828(9)
H24 H 1.1898 -1.1605 -1.1700
N13 N 1.1485(16) -0.3236(12) -0.8146(7)
N14 N 0.9793(16) -0.2647(12) -0.7756(8)
N15 N 1.0239(17) -0.3933(12) -0.8216(8)
C37 C 1.118(2) -0.3911(14) -0.8295(9)
C38 C 1.0760(19) -0.2672(14) -0.7875(10)
C39 C 0.9557(19) -0.3288(14) -0.7947(9)
N16 N 1.3317(15) -0.5644(11) -0.9373(7)
C40 C 1.239(2) -0.5686(16) -0.9214(11)
H25 H 1.2200 -0.6110 -0.9340
C41 C 1.171(2) -0.5133(16) -0.8878(10)
H26 H 1.1049 -0.5156 -0.8790
C42 C 1.1982(18) -0.4552(13) -0.8669(9)
C43 C 1.2955(16) -0.4553(14) -0.8771(8)
H27 H 1.3156 -0.4182 -0.8600
C44 C 1.3648(19) -0.5105(15) -0.9130(10)
H28 H 1.4318 -0.5113 -0.9205
N17 N 1.1505(18) -0.0592(12) -0.7474(8)
C45 C 1.054(3) -0.051(2) -0.750(2)
H29 H 1.0071 -0.0008 -0.7455
C46 C 1.033(2) -0.1196(18) -0.7590(16)
H30 H 0.9669 -0.1179 -0.7573
C47 C 1.1051(19) -0.1945(15) -0.7709(10)
C48 C 1.1991(19) -0.1979(16) -0.7726(9)
H31 H 1.2516 -0.2443 -0.7830
C49 C 1.211(2) -0.1250(17) -0.7572(11)
H32 H 1.2752 -0.1266 -0.7540
N18 N 0.6492(15) -0.3218(12) -0.7643(7)
C50 C 0.6849(19) -0.2616(15) -0.7463(9)
H33 H 0.6391 -0.2173 -0.7271
C51 C 0.7800(18) -0.2646(15) -0.7553(10)
H34 H 0.7983 -0.2218 -0.7429
C52 C 0.8525(17) -0.3272(13) -0.7819(8)
C53 C 0.822(2) -0.3927(16) -0.8020(11)
H35 H 0.8682 -0.4391 -0.8190
C54 C 0.7227(18) -0.3808(17) -0.7940(10)
H36 H 0.7019 -0.4175 -0.8110
N19 N 0.7725(16) -0.0685(13) -0.4471(9)
N20 N 0.9293(15) -0.1009(13) -0.5001(8)
N21 N 0.8063(16) 0.0110(11) -0.5154(9)
C55 C 0.7442(19) -0.0075(16) -0.4756(10)
C56 C 0.8607(18) -0.1127(17) -0.4611(10)
C57 C 0.902(2) -0.0336(16) -0.5253(10)
N22 N 0.449(2) 0.1359(18) -0.4556(16)
C58 C 0.508(3) 0.124(2) -0.4974(17)
H37 H 0.4859 0.1447 -0.5254
C59 C 0.604(2) 0.0797(19) -0.5028(16)
H38 H 0.6472 0.0787 -0.5340
C60 C 0.6420(19) 0.0383(14) -0.4680(11)
C61 C 0.576(2) 0.039(2) -0.4238(14)
H39 H 0.5974 0.0073 -0.3988
C62 C 0.477(3) 0.087(2) -0.4143(16)
H40 H 0.4313 0.0881 -0.3839
N23 N 0.9266(14) -0.3332(17) -0.3869(10)
C63 C 0.995(3) -0.320(3) -0.426(2)
H41 H 1.0591 -0.3549 -0.4334
C64 C 0.972(3) -0.252(3) -0.4549(13)
H42 H 1.0088 -0.2528 -0.4875
C65 C 0.8929(19) -0.1856(19) -0.4350(12)
C66 C 0.840(2) -0.197(2) -0.3872(11)
H43 H 0.7910 -0.1536 -0.3693
C67 C 0.858(3) -0.266(2) -0.3671(11)
H44 H 0.8180 -0.2684 -0.3355
N24 N 1.0962(18) 0.0314(15) -0.6476(9)
C68 C 1.005(2) 0.0709(16) -0.6330(13)
H45 H 0.9808 0.1119 -0.6528
C69 C 0.943(2) 0.0594(15) -0.5932(12)
H46 H 0.8821 0.0978 -0.5812
C70 C 0.969(2) -0.0129(16) -0.5682(9)
C71 C 1.0720(18) -0.0577(16) -0.5815(10)
H47 H 1.0996 -0.1007 -0.5638
C72 C 1.125(2) -0.0313(14) -0.6224(11)
H48 H 1.1911 -0.0620 -0.6339
N18_2 N 1.6492(15) -1.3218(12) -0.7643(7)
N23_2 N 1.9266(14) -1.3332(17) -1.3869(10)
N22_2 N 1.449(2) -1.8641(18) -1.4556(16)
Zn2_2 Zn 0.5016(2) -0.30845(18) -0.75709(12)
Zn6_2 Zn 0.3011(3) 0.2092(3) -0.4364(2)
Zn3_2 Zn 0.9335(3) -0.4411(3) -0.35779(15)
loop_
_geom_bond_atom_site_label_1
_geom_bond_atom_site_label_2
_geom_bond_site_symmetry_1
_geom_bond_site_symmetry_2
Zn1 I1 1_555 1_555
Zn2 I3 1_555 1_555
Zn3 I6 1_555 1_555
Zn4 I8 1_555 1_555
Zn5 I10 1_555 1_555
Zn6 I13 1_555 1_555
I2 Zn1 1_555 1_555
I4 Zn2 1_555 1_555
I7 Zn3 1_555 1_555
I9 Zn4 1_555 1_555
I11 Zn5 1_555 1_555
I14 Zn6 1_555 1_555
N1 C1 1_555 1_555
N2 C2 1_555 1_555
N3 C1 1_555 1_555
C1 C6 1_555 1_555
C2 N1 1_555 1_555
C3 N2 1_555 1_555
N4 Zn4 1_555 1_555
C4 N4 1_555 1_555
H1 C4 1_555 1_555
C5 C4 1_555 1_555
H2 C5 1_555 1_555
C6 C5 1_555 1_555
C7 C6 1_555 1_555
H3 C7 1_555 1_555
C8 N4 1_555 1_555
H4 C8 1_555 1_555
N5 Zn1 1_555 1_555
C9 N5 1_555 1_555
H5 C9 1_555 1_555
C10 C9 1_555 1_555
H6 C10 1_555 1_555
C11 C2 1_555 1_555
C12 C11 1_555 1_555
H7 C12 1_555 1_555
C13 N5 1_555 1_555
H8 C13 1_555 1_555
N6 Zn2 1_555 1_555
C14 N6 1_555 1_555
H9 C14 1_555 1_555
C15 C14 1_555 1_555
H10 C15 1_555 1_555
C16 C3 1_555 1_555
C17 C16 1_555 1_555
H11 C17 1_555 1_555
C18 N6 1_555 1_555
H12 C18 1_555 1_555
N7 C19 1_555 1_555
N8 C20 1_555 1_555
N9 C19 1_555 1_555
C19 C24 1_555 1_555
C20 N9 1_555 1_555
C21 N7 1_555 1_555
N10 Zn3 1_555 1_555
C22 N10 1_555 1_555
H13 C22 1_555 1_555
C23 C22 1_555 1_555
H14 C23 1_555 1_555
C24 C23 1_555 1_555
C25 C24 1_555 1_555
H15 C25 1_555 1_555
C26 N10 1_555 1_555
H16 C26 1_555 1_555
N11 Zn6 1_555 1_555
C27 N11 1_555 1_555
H17 C27 1_555 1_555
C28 C27 1_555 1_555
H18 C28 1_555 1_555
C29 C21 1_555 1_555
C30 C29 1_555 1_555
H19 C30 1_555 1_555
C31 N11 1_555 1_555
H20 C31 1_555 1_555
N12 Zn4 1_555 1_555
C32 N12 1_555 1_555
H21 C32 1_555 1_555
C33 C32 1_555 1_555
H22 C33 1_555 1_555
C34 C20 1_555 1_555
C35 C34 1_555 1_555
H23 C35 1_555 1_555
C36 N12 1_555 1_555
H24 C36 1_555 1_555
N13 C37 1_555 1_555
N14 C38 1_555 1_555
N15 C37 1_555 1_555
C37 C42 1_555 1_555
C38 N13 1_555 1_555
C39 N14 1_555 1_555
N16 Zn1 1_555 1_555
C40 N16 1_555 1_555
H25 C40 1_555 1_555
C41 C40 1_555 1_555
H26 C41 1_555 1_555
C42 C41 1_555 1_555
C43 C42 1_555 1_555
H27 C43 1_555 1_555
C44 N16 1_555 1_555
H28 C44 1_555 1_555
N17 Zn5 1_555 1_555
C45 N17 1_555 1_555
H29 C45 1_555 1_555
C46 C45 1_555 1_555
H30 C46 1_555 1_555
C47 C38 1_555 1_555
C48 C47 1_555 1_555
H31 C48 1_555 1_555
C49 N17 1_555 1_555
H32 C49 1_555 1_555
N18 C50 1_555 1_555
C50 H33 1_555 1_555
C51 C50 1_555 1_555
H34 C51 1_555 1_555
C52 C39 1_555 1_555
C53 C52 1_555 1_555
H35 C53 1_555 1_555
C54 N18 1_555 1_555
H36 C54 1_555 1_555
N19 C55 1_555 1_555
N20 C56 1_555 1_555
N21 C55 1_555 1_555
C55 C60 1_555 1_555
C56 N19 1_555 1_555
C57 N20 1_555 1_555
N22 C58 1_555 1_555
C58 H37 1_555 1_555
C59 C58 1_555 1_555
H38 C59 1_555 1_555
C60 C59 1_555 1_555
C61 C60 1_555 1_555
H39 C61 1_555 1_555
C62 N22 1_555 1_555
H40 C62 1_555 1_555
N23 C63 1_555 1_555
C63 H41 1_555 1_555
C64 C63 1_555 1_555
H42 C64 1_555 1_555
C65 C56 1_555 1_555
C66 C65 1_555 1_555
H43 C66 1_555 1_555
C67 N23 1_555 1_555
H44 C67 1_555 1_555
N24 Zn5 1_555 1_555
C68 N24 1_555 1_555
H45 C68 1_555 1_555
C69 C68 1_555 1_555
H46 C69 1_555 1_555
C70 C57 1_555 1_555
C71 C70 1_555 1_555
H47 C71 1_555 1_555
C72 N24 1_555 1_555
H48 C72 1_555 1_555
N25 O1 1_555 1_555
O2 N25 1_555 1_555
C73 N25 1_555 1_555
C74 C73 1_555 1_555
C75 C74 1_555 1_555
C76 C75 1_555 1_555
C77 C76 1_555 1_555
C78 C73 1_555 1_555
O3 C111 1_555 1_555
O4 C111 1_555 1_555
C79 C80 1_555 1_555
C80 C81 1_555 1_555
C81 C82 1_555 1_555
C82 C83 1_555 1_555
C83 C84 1_555 1_555
C84 C79 1_555 1_555
C111 C79 1_555 1_555
N18_2 Zn2 1_555 1_555
N23_2 Zn3 1_555 1_555
N22_2 Zn6 1_555 1_555
Zn2_2 N18 1_555 1_555
Zn6_2 N22 1_555 1_555
Zn3_2 N23 1_555 1_555
N3 C3 1_555 1_555
C7 C8 1_555 1_555
C10 C11 1_555 1_555
C12 C13 1_555 1_555
C15 C16 1_555 1_555
C17 C18 1_555 1_555
N8 C21 1_555 1_555
C25 C26 1_555 1_555
C28 C29 1_555 1_555
C30 C31 1_555 1_555
C33 C34 1_555 1_555
C35 C36 1_555 1_555
N15 C39 1_555 1_555
C43 C44 1_555 1_555
C46 C47 1_555 1_555
C48 C49 1_555 1_555
C51 C52 1_555 1_555
C53 C54 1_555 1_555
N21 C57 1_555 1_555
C61 C62 1_555 1_555
C64 C65 1_555 1_555
C66 C67 1_555 1_555
C69 C70 1_555 1_555
C71 C72 1_555 1_555
C77 C78 1_555 1_555

#END
