
#######################################################################
#
#                 Cambridge Crystallographic Data Centre
#                                CCDC 
#
#######################################################################
#
# If this CIF has been generated from an entry in the Cambridge 
# Structural Database, then it will include bibliographic, chemical, 
# crystal, experimental, refinement or atomic coordinate data resulting 
# from the CCDC's data processing and validation procedures.
#
#######################################################################

data_LUDVUB
_chemical_formula_moiety         '(C37 H25 Br3 I6 N12 Zn3)n'
_symmetry_cell_setting           orthorhombic
_symmetry_space_group_name_H-M   'F d d 2'
_symmetry_Int_Tables_number      43
_space_group_name_Hall           'F 2 -2d'
loop_
_symmetry_equiv_pos_site_id
_symmetry_equiv_pos_as_xyz
1 x,y,z
2 -x,-y,z
3 1/4+x,1/4-y,1/4+z
4 1/4-x,1/4+y,1/4+z
5 x,1/2+y,1/2+z
6 -x,1/2-y,1/2+z
7 1/4+x,3/4-y,3/4+z
8 1/4-x,3/4+y,3/4+z
9 1/2+x,y,1/2+z
10 1/2-x,-y,1/2+z
11 3/4+x,1/4-y,3/4+z
12 3/4-x,1/4+y,3/4+z
13 1/2+x,1/2+y,z
14 1/2-x,1/2-y,z
15 3/4+x,3/4-y,1/4+z
16 3/4-x,3/4+y,1/4+z
_cell_length_a                   35.252(5)
_cell_length_b                   39.509(5)
_cell_length_c                   8.1530(11)
_cell_angle_alpha                90
_cell_angle_beta                 90
_cell_angle_gamma                90
_cell_volume                     11355.3
loop_
_atom_site_label
_atom_site_type_symbol
_atom_site_fract_x
_atom_site_fract_y
_atom_site_fract_z
_atom_site_U_iso_or_equiv
_atom_site_thermal_displace_type
Zn1 Zn -0.00220(3) 0.31863(3) 0.37808(16) 0.0330 Uani
Zn2 Zn 0.2500 0.2500 1.4632(3) 0.0491 Uani
I1 I -0.00205(3) 0.32247(2) 0.06645(12) 0.0594 Uani
I2 I -0.06516(2) 0.30927(2) 0.51727(12) 0.0520 Uani
I3 I 0.29334(3) 0.21146(3) 1.62300(15) 0.0750 Uani
N1 N 0.1382(2) 0.2237(2) 0.7733(10) 0.0330 Uani
N2 N 0.1392(2) 0.1955(2) 0.5145(11) 0.0343 Uani
N3 N 0.1847(2) 0.1816(2) 0.7192(10) 0.0340 Uani
C3 C 0.1681(3) 0.2051(2) 0.8143(12) 0.0320 Uani
C4 C 0.1252(3) 0.2176(2) 0.6227(14) 0.0347 Uani
C5 C 0.1699(3) 0.1779(3) 0.5734(13) 0.0333 Uani
N4 N 0.2176(3) 0.2267(2) 1.2818(11) 0.0413 Uani
C6 C 0.1841(3) 0.2400(3) 1.2386(14) 0.0427 Uani
H1 H 0.1717 0.2550 1.3124 0.0510 Uiso
C7 C 0.1668(3) 0.2326(3) 1.0904(13) 0.0380 Uani
H2 H 0.1427 0.2421 1.0657 0.0460 Uiso
C8 C 0.1846(3) 0.2115(3) 0.9770(14) 0.0410 Uani
C9 C 0.2191(3) 0.1970(3) 1.0273(14) 0.0367 Uani
H3 H 0.2315 0.1813 0.9567 0.0440 Uiso
C10 C 0.2354(3) 0.2047(3) 1.1754(13) 0.0383 Uani
H4 H 0.2591 0.1950 1.2047 0.0460 Uiso
N5 N 0.0361(2) 0.2826(2) 0.4556(11) 0.0323 Uani
C11 C 0.0458(3) 0.2805(3) 0.6131(15) 0.0493 Uani
H5 H 0.0319 0.2936 0.6902 0.0590 Uiso
C12 C 0.0745(3) 0.2605(3) 0.6697(12) 0.0443 Uani
H6 H 0.0813 0.2609 0.7823 0.0530 Uiso
C13 C 0.0932(3) 0.2399(2) 0.5628(12) 0.0313 Uani
C14 C 0.0821(3) 0.2400(3) 0.3997(15) 0.0417 Uani
H7 H 0.0936 0.2249 0.3236 0.0500 Uiso
C15 C 0.0546(3) 0.2621(3) 0.3491(14) 0.0397 Uani
H8 H 0.0482 0.2631 0.2360 0.0480 Uiso
N6 N 0.2260(2) 0.10859(19) 0.2563(11) 0.0333 Uani
C16 C 0.1916(3) 0.1195(3) 0.2209(14) 0.0440 Uani
H9 H 0.1799 0.1111 0.1243 0.0530 Uiso
C17 C 0.1713(3) 0.1425(3) 0.3148(12) 0.0390 Uani
H10 H 0.1472 0.1506 0.2808 0.0470 Uiso
C18 C 0.1877(3) 0.1531(2) 0.4594(13) 0.0347 Uani
C19 C 0.2239(3) 0.1418(2) 0.5003(14) 0.0377 Uani
H11 H 0.2360 0.1491 0.5981 0.0450 Uiso
C20 C 0.2418(3) 0.1193(3) 0.3932(14) 0.0370 Uani
H12 H 0.2665 0.1114 0.4203 0.0440 Uiso
I3M I 0.20666(3) 0.28854(3) 1.62300(15) 0.0750 Uani
N1M N 0.3618(2) 0.2763(2) 0.7733(10) 0.0330 Uani
N2M N 0.3608(2) 0.3045(2) 0.5145(11) 0.0343 Uani
N3M N 0.3153(2) 0.3184(2) 0.7192(10) 0.0340 Uani
C3M C 0.3319(3) 0.2949(2) 0.8143(12) 0.0320 Uani
C4M C 0.3748(3) 0.2824(2) 0.6227(14) 0.0347 Uani
C5M C 0.3301(3) 0.3221(3) 0.5734(13) 0.0333 Uani
N4M N 0.2824(3) 0.2733(2) 1.2818(11) 0.0413 Uani
C6M C 0.3159(3) 0.2600(3) 1.2386(14) 0.0427 Uani
H1M H 0.3283 0.2450 1.3124 0.0510 Uiso
C7M C 0.3332(3) 0.2674(3) 1.0904(13) 0.0380 Uani
H2M H 0.3573 0.2579 1.0657 0.0460 Uiso
C8M C 0.3154(3) 0.2885(3) 0.9770(14) 0.0410 Uani
C9M C 0.2809(3) 0.3030(3) 1.0273(14) 0.0367 Uani
H3M H 0.2685 0.3187 0.9567 0.0440 Uiso
C10M C 0.2646(3) 0.2953(3) 1.1754(13) 0.0383 Uani
H4M H 0.2409 0.3050 1.2047 0.0460 Uiso
N5M N 0.4639(2) 0.2174(2) 0.4556(11) 0.0323 Uani
C11M C 0.4542(3) 0.2195(3) 0.6131(15) 0.0493 Uani
H5M H 0.4681 0.2064 0.6902 0.0590 Uiso
C12M C 0.4255(3) 0.2395(3) 0.6697(12) 0.0443 Uani
H6M H 0.4187 0.2391 0.7823 0.0530 Uiso
C13M C 0.4068(3) 0.2601(2) 0.5628(12) 0.0313 Uani
C14M C 0.4179(3) 0.2600(3) 0.3997(15) 0.0417 Uani
H7M H 0.4064 0.2751 0.3236 0.0500 Uiso
C15M C 0.4454(3) 0.2379(3) 0.3491(14) 0.0397 Uani
H8M H 0.4518 0.2369 0.2360 0.0480 Uiso
N6M N 0.2740(2) 0.39141(19) 0.2563(11) 0.0333 Uani
C16M C 0.3084(3) 0.3805(3) 0.2209(14) 0.0440 Uani
H9M H 0.3201 0.3889 0.1243 0.0530 Uiso
C17M C 0.3287(3) 0.3575(3) 0.3148(12) 0.0390 Uani
H10M H 0.3528 0.3494 0.2808 0.0470 Uiso
C18M C 0.3123(3) 0.3469(2) 0.4594(13) 0.0347 Uani
C19M C 0.2761(3) 0.3582(2) 0.5003(14) 0.0377 Uani
H11M H 0.2640 0.3509 0.5981 0.0450 Uiso
C20M C 0.2582(3) 0.3807(3) 0.3932(14) 0.0370 Uani
H12M H 0.2335 0.3886 0.4203 0.0440 Uiso
Zn1M Zn 0.50220(3) 0.18137(3) 0.37808(16) 0.0330 Uani
I1M I 0.50205(3) 0.17753(2) 0.06645(12) 0.0594 Uani
I2M I 0.56516(2) 0.19073(2) 0.51727(12) 0.0520 Uani
N6C N 0.0240(2) 0.35859(19) 0.5063(11) 0.0333 Uani
Zn1G Zn 0.25220(3) 0.06863(3) 0.12808(16) 0.0330 Uani
Zn1F Zn 0.24780(3) 0.43137(3) 0.12808(16) 0.0330 Uani
N6B N 0.4760(2) 0.14141(19) 0.5063(11) 0.0333 Uani
C2 C 0.3504(5) 0.1677(8) 1.001(4) 0.0767 Uani
Br1 Br 0.3334(5) 0.1280(3) 0.9002(13) 0.0737 Uani
Br3 Br 0.33689(7) 0.16712(11) 1.2795(11) 0.1117 Uani
Br5 Br 0.40436(19) 0.1570(6) 1.050(2) 0.0780 Uani
loop_
_atom_site_aniso_label
_atom_site_aniso_U_11
_atom_site_aniso_U_22
_atom_site_aniso_U_33
_atom_site_aniso_U_23
_atom_site_aniso_U_13
_atom_site_aniso_U_12
Zn1 0.0335(7) 0.0306(6) 0.0348(6) 0.0011(5) -0.0017(5) -0.0002(5)
Zn2 0.0529(11) 0.0565(11) 0.0380(10) 0.000 0.000 -0.0275(10)
I1 0.0666(6) 0.0745(6) 0.0371(4) 0.0111(4) 0.0026(4) -0.0023(4)
I2 0.0465(4) 0.0586(5) 0.0510(5) 0.0052(4) -0.0006(4) -0.0147(4)
I3 0.0787(7) 0.0778(6) 0.0684(6) 0.0167(5) -0.0204(5) -0.0337(5)
N1 0.035(5) 0.040(5) 0.024(4) 0.001(4) 0.004(4) -0.005(4)
N2 0.039(5) 0.029(5) 0.035(5) 0.000(4) -0.006(4) 0.004(4)
N3 0.042(5) 0.030(4) 0.030(5) -0.001(4) 0.002(4) 0.006(4)
C3 0.036(6) 0.029(5) 0.031(5) 0.007(4) -0.005(5) -0.006(5)
C4 0.034(6) 0.029(5) 0.041(6) 0.005(5) -0.001(5) -0.008(4)
C5 0.033(6) 0.033(5) 0.034(6) -0.003(4) 0.005(5) -0.005(4)
N4 0.053(6) 0.044(5) 0.027(5) -0.002(4) -0.005(4) -0.014(5)
C6 0.049(7) 0.045(6) 0.034(6) -0.006(5) 0.010(6) -0.015(5)
C7 0.028(6) 0.050(7) 0.036(6) 0.002(5) 0.009(5) -0.005(5)
C8 0.044(7) 0.042(6) 0.037(7) 0.001(5) 0.007(5) -0.016(5)
C9 0.030(6) 0.046(7) 0.034(6) -0.001(5) -0.008(5) 0.006(4)
C10 0.029(6) 0.040(6) 0.046(7) 0.007(5) -0.009(5) -0.004(5)
N5 0.030(4) 0.032(4) 0.035(5) 0.004(4) -0.001(4) -0.003(3)
C11 0.063(8) 0.046(7) 0.039(7) -0.007(6) 0.007(6) 0.021(6)
C12 0.066(8) 0.049(7) 0.018(6) 0.005(4) -0.002(5) 0.016(6)
C13 0.032(6) 0.027(5) 0.035(6) -0.001(4) 0.010(5) 0.003(4)
C14 0.031(6) 0.051(7) 0.043(6) 0.002(5) -0.001(5) -0.008(5)
C15 0.032(6) 0.046(6) 0.041(7) -0.009(5) -0.014(5) 0.007(5)
N6 0.032(5) 0.031(4) 0.037(5) 0.000(4) 0.000(4) 0.006(4)
C16 0.033(6) 0.051(7) 0.048(7) -0.004(6) -0.018(6) -0.001(5)
C17 0.044(7) 0.039(6) 0.034(6) -0.010(5) -0.006(5) -0.002(5)
C18 0.033(6) 0.027(5) 0.044(6) 0.016(5) 0.006(5) 0.003(4)
C19 0.034(6) 0.038(6) 0.041(6) -0.003(5) 0.000(5) -0.010(5)
C20 0.019(5) 0.046(6) 0.046(6) 0.000(5) 0.006(5) 0.007(4)
I3M 0.0787 0.0778 0.0684 -0.0167 0.0204 -0.0337
N1M 0.035 0.04 0.024 -0.001 -0.004 -0.005
N2M 0.039 0.029 0.035 0 0.006 0.004
N3M 0.042 0.03 0.03 0.001 -0.002 0.006
C3M 0.036 0.029 0.031 -0.007 0.005 -0.006
C4M 0.034 0.029 0.041 -0.005 0.001 -0.008
C5M 0.033 0.033 0.034 0.003 -0.005 -0.005
N4M 0.053 0.044 0.027 0.002 0.005 -0.014
C6M 0.049 0.045 0.034 0.006 -0.01 -0.015
C7M 0.028 0.05 0.036 -0.002 -0.009 -0.005
C8M 0.044 0.042 0.037 -0.001 -0.007 -0.016
C9M 0.03 0.046 0.034 0.001 0.008 0.006
C10M 0.029 0.04 0.046 -0.007 0.009 -0.004
N5M 0.03 0.032 0.035 -0.004 0.001 -0.003
C11M 0.063 0.046 0.039 0.007 -0.007 0.021
C12M 0.066 0.049 0.018 -0.005 0.002 0.016
C13M 0.032 0.027 0.035 0.001 -0.01 0.003
C14M 0.031 0.051 0.043 -0.002 0.001 -0.008
C15M 0.032 0.046 0.041 0.009 0.014 0.007
N6M 0.032 0.031 0.037 0 0 0.006
C16M 0.033 0.051 0.048 0.004 0.018 -0.001
C17M 0.044 0.039 0.034 0.01 0.006 -0.002
C18M 0.033 0.027 0.044 -0.016 -0.006 0.003
C19M 0.034 0.038 0.041 0.003 0 -0.01
C20M 0.019 0.046 0.046 0 -0.006 0.007
Zn1M 0.0335 0.0306 0.0348 -0.0011 0.0017 -0.0002
I1M 0.0666 0.0745 0.0371 -0.0111 -0.0026 -0.0023
I2M 0.0465 0.0586 0.051 -0.0052 0.0006 -0.0147
N6C 0.032 0.031 0.037 0 0 -0.006
Zn1G 0.0335 0.0306 0.0348 0.0011 0.0017 0.0002
Zn1F 0.0335 0.0306 0.0348 -0.0011 -0.0017 0.0002
N6B 0.032 0.031 0.037 0 0 -0.006
C2 0.000(11) 0.11(3) 0.12(3) 0.02(2) -0.035(14) 0.005(11)
Br1 0.076(6) 0.049(4) 0.096(4) -0.004(4) -0.023(4) -0.013(3)
Br3 0.0570(17) 0.084(2) 0.194(6) -0.033(3) 0.0241(19) -0.0011(12)
Br5 0.059(2) 0.110(9) 0.065(5) -0.005(6) -0.003(2) 0.021(3)
loop_
_geom_bond_atom_site_label_1
_geom_bond_atom_site_label_2
_geom_bond_site_symmetry_1
_geom_bond_site_symmetry_2
Zn1 I1 1_555 1_555
Zn2 I3 1_555 1_555
I2 Zn1 1_555 1_555
C2 Br1 1_555 1_555
Br3 C2 1_555 1_555
Br5 C2 1_555 1_555
N1 C3 1_555 1_555
N2 C4 1_555 1_555
N3 C3 1_555 1_555
C3 C8 1_555 1_555
C4 N1 1_555 1_555
C5 N2 1_555 1_555
N4 Zn2 1_555 1_555
C6 N4 1_555 1_555
H1 C6 1_555 1_555
C7 C6 1_555 1_555
H2 C7 1_555 1_555
C8 C7 1_555 1_555
C9 C8 1_555 1_555
H3 C9 1_555 1_555
C10 N4 1_555 1_555
H4 C10 1_555 1_555
N5 Zn1 1_555 1_555
C11 N5 1_555 1_555
H5 C11 1_555 1_555
C12 C11 1_555 1_555
H6 C12 1_555 1_555
C13 C4 1_555 1_555
C14 C13 1_555 1_555
H7 C14 1_555 1_555
C15 N5 1_555 1_555
H8 C15 1_555 1_555
N6 C16 1_555 1_555
C16 H9 1_555 1_555
C17 C16 1_555 1_555
H10 C17 1_555 1_555
C18 C5 1_555 1_555
C19 C18 1_555 1_555
H11 C19 1_555 1_555
C20 N6 1_555 1_555
H12 C20 1_555 1_555
I3M Zn2 1_555 1_555
N1M C3M 1_555 1_555
N2M C4M 1_555 1_555
N3M C3M 1_555 1_555
C3M C8M 1_555 1_555
C4M N1M 1_555 1_555
C5M N2M 1_555 1_555
N4M Zn2 1_555 1_555
C6M N4M 1_555 1_555
H1M C6M 1_555 1_555
C7M C6M 1_555 1_555
H2M C7M 1_555 1_555
C8M C7M 1_555 1_555
C9M C8M 1_555 1_555
H3M C9M 1_555 1_555
C10M N4M 1_555 1_555
H4M C10M 1_555 1_555
N5M C11M 1_555 1_555
C11M H5M 1_555 1_555
C12M C11M 1_555 1_555
H6M C12M 1_555 1_555
C13M C4M 1_555 1_555
C14M C13M 1_555 1_555
H7M C14M 1_555 1_555
C15M N5M 1_555 1_555
H8M C15M 1_555 1_555
N6M C16M 1_555 1_555
C16M H9M 1_555 1_555
C17M C16M 1_555 1_555
H10M C17M 1_555 1_555
C18M C5M 1_555 1_555
C19M C18M 1_555 1_555
H11M C19M 1_555 1_555
C20M N6M 1_555 1_555
H12M C20M 1_555 1_555
Zn1M N5M 1_555 1_555
I1M Zn1M 1_555 1_555
I2M Zn1M 1_555 1_555
N6C Zn1 1_555 1_555
Zn1G N6 1_555 1_555
Zn1F N6M 1_555 1_555
N6B Zn1M 1_555 1_555
N3 C5 1_555 1_555
C9 C10 1_555 1_555
C12 C13 1_555 1_555
C14 C15 1_555 1_555
C17 C18 1_555 1_555
C19 C20 1_555 1_555
N3M C5M 1_555 1_555
C9M C10M 1_555 1_555
C12M C13M 1_555 1_555
C14M C15M 1_555 1_555
C17M C18M 1_555 1_555
C19M C20M 1_555 1_555

#END
