
#######################################################################
#
#                 Cambridge Crystallographic Data Centre
#                                CCDC 
#
#######################################################################
#
# If this CIF has been generated from an entry in the Cambridge 
# Structural Database, then it will include bibliographic, chemical, 
# crystal, experimental, refinement or atomic coordinate data resulting 
# from the CCDC's data processing and validation procedures.
#
#######################################################################

data_SOZHOG
_chemical_formula_moiety         '(C18 H23 Cu1 N3 O9)n'
_symmetry_cell_setting           monoclinic
_symmetry_space_group_name_H-M   'P 21/c'
_symmetry_Int_Tables_number      14
_space_group_name_Hall           '-P 2ybc'
loop_
_symmetry_equiv_pos_site_id
_symmetry_equiv_pos_as_xyz
1 x,y,z
2 -x,1/2+y,1/2-z
3 -x,-y,-z
4 x,1/2-y,1/2+z
_cell_length_a                   13.882(2)
_cell_length_b                   13.365(3)
_cell_length_c                   14.209(2)
_cell_angle_alpha                90
_cell_angle_beta                 112.046(2)
_cell_angle_gamma                90
_cell_volume                     2443.48
loop_
_atom_site_label
_atom_site_type_symbol
_atom_site_fract_x
_atom_site_fract_y
_atom_site_fract_z
C1 C 1.2249(3) 0.6953(3) 0.8848(3)
H1 H 1.2780 0.7417 0.9124
C2 C 1.1214(3) 0.7261(3) 0.8468(3)
H2 H 1.1048 0.7936 0.8461
C3 C 1.0447(3) 0.6560(3) 0.8106(3)
C4 C 1.0666(3) 0.5542(3) 0.8086(3)
H3 H 1.0134 0.5073 0.7847
C5 C 1.1695(3) 0.5252(3) 0.8431(3)
H4 H 1.1859 0.4580 0.8406
C6 C 0.9344(3) 0.6953(3) 0.7746(3)
C7 C 0.7582(3) 0.6555(3) 0.7617(3)
C8 C 0.7075(3) 0.6067(3) 0.8147(3)
H5 H 0.7434 0.5603 0.8642
C9 C 0.6041(3) 0.6252(3) 0.7955(3)
C10 C 0.5513(3) 0.6969(3) 0.7222(3)
H6 H 0.4817 0.7100 0.7092
C11 C 0.6004(3) 0.7481(3) 0.6692(4)
C12 C 0.7061(3) 0.7279(3) 0.6880(3)
H7 H 0.7404 0.7615 0.6524
C13 C 0.5562(3) 0.5763(3) 0.8627(3)
C14 C 0.5519(3) 0.8330(3) 0.5979(3)
N1 N 1.2481(3) 0.5941(3) 0.8812(3)
N2 N 0.8629(2) 0.6312(2) 0.7821(2)
H8 H 0.8825 0.5709 0.8007
O1 O 0.9180(2) 0.7833(2) 0.7475(2)
O2 O 0.6093(2) 0.5133(2) 0.9239(2)
O3 O 0.4656(2) 0.6028(2) 0.8508(2)
O4 O 0.4593(2) 0.8235(2) 0.5385(2)
O5 O 0.6059(2) 0.9083(2) 0.6023(2)
Cu1 Cu 0.59967(4) 0.44686(4) 1.05103(4)
N1B N 0.7519(3) 0.4059(3) 1.1188(3)
O3B O 0.5344(2) 0.3972(2) 1.1492(2)
O4A O 0.5407(2) 0.3235(2) 0.9615(2)
O5C O 0.6059(2) 0.5917(2) 1.1023(2)
Cu1A Cu 0.40033(4) 0.94686(4) 0.44897(4)
Cu1B Cu 0.40033(4) 0.55314(4) 0.94897(4)
Cu1B_2 Cu 1.40033(4) 0.55314(4) 0.94897(4)
Cu1C Cu 0.59967(4) 1.05314(4) 0.55103(4)
C15 C 0.8572(4) 0.1772(4) 0.9050(4)
H9 H 0.9143 0.1586 0.8862
H10 H 0.7997 0.1329 0.8727
H11 H 0.8780 0.1725 0.9773
C16 C 0.7149(4) 0.3092(4) 0.8225(4)
H12 H 0.6868 0.3232 0.8735
H13 H 0.6769 0.2551 0.7805
H14 H 0.7090 0.3677 0.7815
C17 C 0.9049(4) 0.3560(4) 0.8936(4)
C18 C 1.0182(4) 0.3234(4) 0.9543(4)
H15 H 1.0322 0.2619 0.9268
H16 H 1.0280 0.3137 1.0242
H17 H 1.0650 0.3743 0.9495
N3 N 0.8257(4) 0.2810(3) 0.8722(3)
O6 O 0.8912(3) 0.4444(3) 0.8670(3)
O7 O 0.3163(8) 0.9788(8) 0.9444(7)
H18 H 0.3129 1.0428 0.9449
H19 H 0.3125 0.9555 0.9987
O8 O 0.0000 1.0000 1.0000
O9 O 0.3688(9) 0.1155(8) 0.0807(8)
H20 H 0.3364 0.1467 0.0256
H21 H 0.4334 0.1198 0.0946
loop_
_geom_bond_atom_site_label_1
_geom_bond_atom_site_label_2
_geom_bond_site_symmetry_1
_geom_bond_site_symmetry_2
C1 H1 1_555 1_555
C2 C1 1_555 1_555
H2 C2 1_555 1_555
C3 C2 1_555 1_555
C4 C3 1_555 1_555
H3 C4 1_555 1_555
C5 C4 1_555 1_555
H4 C5 1_555 1_555
C6 C3 1_555 1_555
C7 C8 1_555 1_555
C8 H5 1_555 1_555
C9 C8 1_555 1_555
C10 C9 1_555 1_555
H6 C10 1_555 1_555
C11 C10 1_555 1_555
C12 C7 1_555 1_555
H7 C12 1_555 1_555
C13 C9 1_555 1_555
C14 C11 1_555 1_555
N1 C1 1_555 1_555
N2 C6 1_555 1_555
H8 N2 1_555 1_555
O1 C6 1_555 1_555
O2 C13 1_555 1_555
O3 C13 1_555 1_555
O4 C14 1_555 1_555
O5 C14 1_555 1_555
Cu1 O2 1_555 1_555
C15 H9 1_555 1_555
H10 C15 1_555 1_555
H11 C15 1_555 1_555
C16 H12 1_555 1_555
H13 C16 1_555 1_555
H14 C16 1_555 1_555
C17 C18 1_555 1_555
C18 H15 1_555 1_555
H16 C18 1_555 1_555
H17 C18 1_555 1_555
N3 C15 1_555 1_555
O6 C17 1_555 1_555
O7 H18 1_555 1_555
H19 O7 1_555 1_555
O9 H20 1_555 1_555
H21 O9 1_555 1_555
N1B Cu1 1_555 1_555
O3B Cu1 1_555 1_555
O4A Cu1 1_555 1_555
O5C Cu1 1_555 1_555
Cu1A O4 1_555 1_555
Cu1B O3 1_555 1_555
Cu1B_2 N1 1_555 1_555
Cu1C O5 1_555 1_555
C5 N1 1_555 1_555
C7 N2 1_555 1_555
C11 C12 1_555 1_555
C16 N3 1_555 1_555
C17 N3 1_555 1_555

#END
