
#######################################################################
#
#                 Cambridge Crystallographic Data Centre
#                                CCDC 
#
#######################################################################
#
# If this CIF has been generated from an entry in the Cambridge 
# Structural Database, then it will include bibliographic, chemical, 
# crystal, experimental, refinement or atomic coordinate data resulting 
# from the CCDC's data processing and validation procedures.
#
#######################################################################

data_FUBNOH
_chemical_formula_moiety         '(C19 H17 N1 O7 Zn1)n'
_symmetry_cell_setting           monoclinic
_symmetry_space_group_name_H-M   'C 2/c'
_symmetry_Int_Tables_number      15
_space_group_name_Hall           '-C 2yc'
loop_
_symmetry_equiv_pos_site_id
_symmetry_equiv_pos_as_xyz
1 x,y,z
2 -x,y,1/2-z
3 1/2+x,1/2+y,z
4 1/2-x,1/2+y,1/2-z
5 -x,-y,-z
6 x,-y,1/2+z
7 1/2-x,1/2-y,-z
8 1/2+x,1/2-y,1/2+z
_cell_length_a                   16.8446(12)
_cell_length_b                   15.1638(11)
_cell_length_c                   8.3702(6)
_cell_angle_alpha                90
_cell_angle_beta                 116.2900(10)
_cell_angle_gamma                90
_cell_volume                     1916.84
loop_
_atom_site_label
_atom_site_type_symbol
_atom_site_fract_x
_atom_site_fract_y
_atom_site_fract_z
Zn1 Zn 0.0000 1.01637(3) 0.7500
C1 C 0.12487(19) 0.9412(2) 0.5896(4)
C2 C 0.20569(19) 0.8927(2) 0.7234(4)
C3 C 0.2300(2) 0.8111(2) 0.6850(4)
H1 H 0.1977 0.7861 0.5732
C4 C 0.3020(2) 0.7665(2) 0.8116(4)
H2 H 0.3174 0.7117 0.7843
C5 C 0.35163(17) 0.80289(19) 0.9796(4)
C6 C 0.3264(2) 0.8847(2) 1.0163(4)
H3 H 0.3587 0.9100 1.1279
C7 C 0.2543(2) 0.9291(2) 0.8900(4)
H4 H 0.2384 0.9838 0.9173
C8 C 0.43352(18) 0.66472(18) 1.1223(4)
H5 H 0.3881 0.6335 1.0324
C9 C 0.42978(18) 0.75636(19) 1.1189(4)
C10 C 0.5000 0.8013(3) 1.2500
H6 H 0.5000 0.8627 1.2500
N1 N 0.5000 0.6193(2) 1.2500
O1 O 0.08836(15) 0.90945(17) 0.4335(3)
O2 O 0.10011(15) 1.00924(15) 0.6374(3)
C1A C 0.87513(19) 0.9412(2) 1.9104(4)
C2A C 0.79431(19) 0.8927(2) 1.7766(4)
C3A C 0.7700(2) 0.8111(2) 1.8150(4)
H1A H 0.8023 0.7861 1.9268
C4A C 0.6980(2) 0.7665(2) 1.6884(4)
H2A H 0.6826 0.7117 1.7157
C5A C 0.64837(17) 0.80289(19) 1.5204(4)
C6A C 0.6736(2) 0.8847(2) 1.4837(4)
H3A H 0.6413 0.9100 1.3721
C7A C 0.7457(2) 0.9291(2) 1.6100(4)
H4A H 0.7616 0.9838 1.5827
C8A C 0.56648(18) 0.66472(18) 1.3777(4)
H5A H 0.6119 0.6335 1.4676
C9A C 0.57022(18) 0.75636(19) 1.3811(4)
O1A O 0.91164(15) 0.90945(17) 2.0665(3)
O2A O 0.89989(15) 1.00924(15) 1.8626(3)
Zn1_2 Zn 1.0000 1.01637(3) 1.7500
Zn1D Zn 0.0000 0.98363(3) 0.2500
Zn1D_2 Zn 1.0000 0.98363(3) 2.2500
Zn1F Zn 0.5000 0.48363(3) 1.2500
N1F N 0.0000 0.8807(2) 0.7500
O1D O -0.08836(15) 1.09055(17) 0.5665(3)
O1E O 0.08836(15) 1.09055(17) 0.9335(3)
O2A_2 O -0.10011(15) 1.00924(15) 0.8626(3)
O3 O 0.5000 0.7876(17) 0.7500
O4 O 0.5000 0.980(5) 0.7500
O5 O 0.5266(14) 0.9978(12) 0.611(3)
loop_
_geom_bond_atom_site_label_1
_geom_bond_atom_site_label_2
_geom_bond_site_symmetry_1
_geom_bond_site_symmetry_2
Zn1 O2 1_555 1_555
C1 C2 1_555 1_555
C2 C3 1_555 1_555
C3 H1 1_555 1_555
C4 C3 1_555 1_555
H2 C4 1_555 1_555
C5 C4 1_555 1_555
C6 C5 1_555 1_555
H3 C6 1_555 1_555
C7 C2 1_555 1_555
H4 C7 1_555 1_555
C8 H5 1_555 1_555
C9 C5 1_555 1_555
C10 C9 1_555 1_555
H6 C10 1_555 1_555
N1 C8 1_555 1_555
O1 C1 1_555 1_555
O2 C1 1_555 1_555
C1A C2A 1_555 1_555
C2A C3A 1_555 1_555
C3A H1A 1_555 1_555
C4A C3A 1_555 1_555
H2A C4A 1_555 1_555
C5A C4A 1_555 1_555
C6A C5A 1_555 1_555
H3A C6A 1_555 1_555
C7A C2A 1_555 1_555
H4A C7A 1_555 1_555
C8A N1 1_555 1_555
H5A C8A 1_555 1_555
C9A C10 1_555 1_555
O1A C1A 1_555 1_555
O2A C1A 1_555 1_555
Zn1_2 O2A 1_555 1_555
Zn1D O1 1_555 1_555
Zn1D_2 O1A 1_555 1_555
Zn1F N1 1_555 1_555
N1F Zn1 1_555 1_555
O1D Zn1 1_555 1_555
O1E Zn1 1_555 1_555
O2A_2 Zn1 1_555 1_555
C6 C7 1_555 1_555
C8 C9 1_555 1_555
C5A C9A 1_555 1_555
C6A C7A 1_555 1_555
C8A C9A 1_555 1_555

#END
