
#######################################################################
#
#                 Cambridge Crystallographic Data Centre
#                                CCDC 
#
#######################################################################
#
# If this CIF has been generated from an entry in the Cambridge 
# Structural Database, then it will include bibliographic, chemical, 
# crystal, experimental, refinement or atomic coordinate data resulting 
# from the CCDC's data processing and validation procedures.
#
#######################################################################

data_EXOTOB
_chemical_formula_moiety         '(C192 H174 N48 Ni12 O60)n'
_symmetry_cell_setting           cubic
_symmetry_space_group_name_H-M   'F -4 3 c'
_symmetry_Int_Tables_number      219
_space_group_name_Hall           'F -4a 2 3'
loop_
_symmetry_equiv_pos_site_id
_symmetry_equiv_pos_as_xyz
1 x,y,z
2 y,-x,1/2-z
3 -x,-y,z
4 -y,x,1/2-z
5 x,-y,-z
6 -y,-x,1/2+z
7 -x,y,-z
8 y,x,1/2+z
9 z,x,y
10 x,-z,1/2-y
11 -z,-x,y
12 -x,z,1/2-y
13 z,-x,-y
14 -x,-z,1/2+y
15 -z,x,-y
16 x,z,1/2+y
17 y,z,x
18 1/2+z,y,x
19 1/2+z,-y,-x
20 1/2-z,-y,x
21 1/2-z,y,-x
22 y,1/2-z,1/2-x
23 -y,1/2-z,1/2+x
24 -y,1/2+z,1/2-x
25 x,1/2+y,1/2+z
26 y,1/2-x,-z
27 -x,1/2-y,1/2+z
28 -y,1/2+x,-z
29 x,1/2-y,1/2-z
30 -y,1/2-x,z
31 -x,1/2+y,1/2-z
32 y,1/2+x,z
33 z,1/2+x,1/2+y
34 x,1/2-z,-y
35 -z,1/2-x,1/2+y
36 -x,1/2+z,-y
37 z,1/2-x,1/2-y
38 -x,1/2-z,y
39 -z,1/2+x,1/2-y
40 x,1/2+z,y
41 y,1/2+z,1/2+x
42 1/2+z,1/2+y,1/2+x
43 1/2+z,1/2-y,1/2-x
44 1/2-z,1/2-y,1/2+x
45 1/2-z,1/2+y,1/2-x
46 y,-z,-x
47 -y,-z,x
48 -y,z,-x
49 1/2+x,y,1/2+z
50 1/2+y,-x,-z
51 1/2-x,-y,1/2+z
52 1/2-y,x,-z
53 1/2+x,-y,1/2-z
54 1/2-y,-x,z
55 1/2-x,y,1/2-z
56 1/2+y,x,z
57 1/2+z,x,1/2+y
58 1/2+x,-z,-y
59 1/2-z,-x,1/2+y
60 1/2-x,z,-y
61 1/2+z,-x,1/2-y
62 1/2-x,-z,y
63 1/2-z,x,1/2-y
64 1/2+x,z,y
65 1/2+y,z,1/2+x
66 z,y,1/2+x
67 z,-y,1/2-x
68 -z,-y,1/2+x
69 -z,y,1/2-x
70 1/2+y,1/2-z,-x
71 1/2-y,1/2-z,x
72 1/2-y,1/2+z,-x
73 1/2+x,1/2+y,z
74 1/2+y,1/2-x,1/2-z
75 1/2-x,1/2-y,z
76 1/2-y,1/2+x,1/2-z
77 1/2+x,1/2-y,-z
78 1/2-y,1/2-x,1/2+z
79 1/2-x,1/2+y,-z
80 1/2+y,1/2+x,1/2+z
81 1/2+z,1/2+x,y
82 1/2+x,1/2-z,1/2-y
83 1/2-z,1/2-x,y
84 1/2-x,1/2+z,1/2-y
85 1/2+z,1/2-x,-y
86 1/2-x,1/2-z,1/2+y
87 1/2-z,1/2+x,-y
88 1/2+x,1/2+z,1/2+y
89 1/2+y,1/2+z,x
90 z,1/2+y,x
91 z,1/2-y,-x
92 -z,1/2-y,x
93 -z,1/2+y,-x
94 1/2+y,-z,1/2-x
95 1/2-y,-z,1/2+x
96 1/2-y,z,1/2-x
_cell_length_a                   42.763(5)
_cell_length_b                   42.763(5)
_cell_length_c                   42.763(5)
_cell_angle_alpha                90
_cell_angle_beta                 90
_cell_angle_gamma                90
_cell_volume                     78199.6
loop_
_atom_site_label
_atom_site_type_symbol
_atom_site_fract_x
_atom_site_fract_y
_atom_site_fract_z
C1 C 0.24378(6) 0.80884(6) 1.01841(6)
C2 C 0.24632(6) 0.77793(6) 1.03406(6)
C3 C 0.2500 0.7500 1.01751(7)
C4 C 0.24594(7) 0.77733(7) 1.06693(6)
H1 H 0.2429 0.7958 1.0781
C5 C 0.2500 0.7500 1.08248(9)
H2 H 0.2500 0.7500 1.1042
C6 C 0.22745(9) 0.82633(8) 0.93543(8)
H3 H 0.2298 0.8101 0.9498
C7 C 0.20555(8) 0.82305(8) 0.91079(8)
H4 H 0.1932 0.8052 0.9097
C8 C 0.20247(6) 0.84514(6) 0.88924(6)
C9 C 0.22148(8) 0.87130(7) 0.89219(8)
H5 H 0.2211 0.8868 0.8770
C10 C 0.24066(9) 0.87419(8) 0.91745(8)
H6 H 0.2515 0.8928 0.9200
C11 C 0.17921(6) 0.84372(6) 0.86394(6)
C12 C 0.30255(9) 0.88952(9) 1.03200(9)
H7 H 0.2862 0.9033 1.0279
C13 C 0.32315(8) 0.89601(8) 1.05658(8)
H8 H 0.3197 0.9133 1.0693
C14 C 0.34821(6) 0.87708(7) 1.06198(7)
C15 C 0.35092(8) 0.85101(7) 1.04307(7)
H9 H 0.3672 0.8369 1.0462
C16 C 0.32985(9) 0.84598(8) 1.01998(9)
H10 H 0.3325 0.8285 1.0073
C17 C 0.37014(6) 0.88391(6) 1.08777(6)
N1 N 0.24468(6) 0.85185(5) 0.93858(5)
N2 N 0.17962(5) 0.86568(5) 0.84215(5)
N3 N 0.30582(6) 0.86433(6) 1.01442(6)
N4 N 0.36358(5) 0.90792(6) 1.10617(6)
Ni1 Ni 0.274780(9) 0.857346(9) 0.976776(9)
O1 O 0.26299(4) 0.81512(4) 0.99703(4)
O2 O 0.22301(5) 0.82761(4) 1.02739(5)
O3 O 0.24040(6) 0.88165(5) 0.99964(7)
O4 O 0.29005(7) 0.90020(6) 0.95904(7)
O5 O 0.30827(5) 0.83330(5) 0.95119(5)
C1VB C 0.25622(6) 0.69116(6) 1.01841(6)
C1WA C 0.30884(6) 0.75622(6) 0.98159(6)
C1AA C 0.19116(6) 0.74378(6) 0.98159(6)
C1UA C 0.19116(6) 1.01841(6) 0.75622(6)
C1LB C 0.30884(6) 1.01841(6) 0.74378(6)
C1I C 0.24378(6) 0.98159(6) 0.69116(6)
C1IB C 0.25622(6) 0.98159(6) 0.80884(6)
C1J C -0.01841(6) 0.75622(6) 0.80884(6)
C1LA C -0.01841(6) 0.74378(6) 0.69116(6)
C1LC C 0.01841(6) 0.69116(6) 0.75622(6)
C1MB C 0.01841(6) 0.80884(6) 0.74378(6)
C2VB C 0.25368(6) 0.72207(6) 1.03406(6)
C2WA C 0.27793(6) 0.75368(6) 0.96594(6)
C2AA C 0.22207(6) 0.74632(6) 0.96594(6)
C2UA C 0.22207(6) 1.03406(6) 0.75368(6)
C2LB C 0.27793(6) 1.03406(6) 0.74632(6)
C2I C 0.24632(6) 0.96594(6) 0.72207(6)
C2IB C 0.25368(6) 0.96594(6) 0.77793(6)
C2J C -0.03406(6) 0.75368(6) 0.77793(6)
C2LA C -0.03406(6) 0.74632(6) 0.72207(6)
C2LC C 0.03406(6) 0.72207(6) 0.75368(6)
C2MB C 0.03406(6) 0.77793(6) 0.74632(6)
C3AA C 0.2500 0.7500 0.98249(7)
C3UA C 0.2500 1.01751(7) 0.7500
C3I C 0.2500 0.98249(7) 0.7500
C3J C -0.01751(7) 0.7500 0.7500
C3MB C 0.01751(7) 0.7500 0.7500
C4VB C 0.25406(7) 0.72267(7) 1.06693(6)
C4WA C 0.27733(7) 0.75406(7) 0.93307(6)
C4AA C 0.22267(7) 0.74594(7) 0.93307(6)
C4UA C 0.22267(7) 1.06693(6) 0.75406(7)
C4LB C 0.27733(7) 1.06693(6) 0.74594(7)
C4I C 0.24594(7) 0.93307(6) 0.72267(7)
C4IB C 0.25406(7) 0.93307(6) 0.77733(7)
C4J C -0.06693(6) 0.75406(7) 0.77733(7)
C4LA C -0.06693(6) 0.74594(7) 0.72267(7)
C4LC C 0.06693(6) 0.72267(7) 0.75406(7)
C4MB C 0.06693(6) 0.77733(7) 0.74594(7)
H1VB H 0.2571 0.7042 1.0781
H1WA H 0.2958 0.7571 0.9219
H1AA H 0.2042 0.7429 0.9219
H1UA H 0.2042 1.0781 0.7571
H1LB H 0.2958 1.0781 0.7429
H1I H 0.2429 0.9219 0.7042
H1IB H 0.2571 0.9219 0.7958
H1J H -0.0781 0.7571 0.7958
H1LA H -0.0781 0.7429 0.7042
H1LC H 0.0781 0.7042 0.7571
H1MB H 0.0781 0.7958 0.7429
C5AA C 0.2500 0.7500 0.91752(9)
C5UA C 0.2500 1.08248(9) 0.7500
C5I C 0.2500 0.91752(9) 0.7500
C5J C -0.08248(9) 0.7500 0.7500
C5MB C 0.08248(9) 0.7500 0.7500
H2AA H 0.2500 0.7500 0.8958
H2UA H 0.2500 1.1042 0.7500
H2I H 0.2500 0.8958 0.7500
H2J H -0.1042 0.7500 0.7500
H2MB H 0.1042 0.7500 0.7500
C6UA C 0.17367(8) 0.93543(8) 0.77255(9)
C6J C 0.06457(8) 0.77255(9) 0.82633(8)
C6OC C 0.32633(8) 1.06457(8) 1.27255(9)
C6DB C 0.43543(8) 1.22745(9) 1.32633(8)
C6XA C 0.27255(9) 1.17367(8) 1.43543(8)
C6HC C 0.56457(8) 0.72745(9) 1.17367(8)
C6XB C 0.72745(9) 0.67367(8) 1.06457(8)
C6RB C 0.67367(8) 0.56457(8) 1.22745(9)
C6VB C 0.27255(9) 0.67367(8) 0.93543(8)
C6QB C 0.32633(8) 0.56457(8) 0.77255(9)
C6BC C 0.43543(8) 0.72745(9) 0.82633(8)
H3UA H 0.1899 0.9498 0.7702
H3J H 0.0502 0.7702 0.8101
H3OC H 0.3101 1.0502 1.2702
H3DB H 0.4498 1.2298 1.3101
H3XA H 0.2702 1.1899 1.4498
H3HC H 0.5502 0.7298 1.1899
H3XB H 0.7298 0.6899 1.0502
H3RB H 0.6899 0.5502 1.2298
H3VB H 0.2702 0.6899 0.9498
H3QB H 0.3101 0.5502 0.7702
H3BC H 0.4498 0.7298 0.8101
C7UA C 0.17695(8) 0.91079(8) 0.79445(8)
C7J C 0.08921(8) 0.79445(8) 0.82305(8)
C7OC C 0.32305(8) 1.08921(8) 1.29445(8)
C7DB C 0.41079(8) 1.20555(8) 1.32305(8)
C7XA C 0.29445(8) 1.17695(8) 1.41079(8)
C7HC C 0.58921(8) 0.70555(8) 1.17695(8)
C7XB C 0.70555(8) 0.67695(8) 1.08921(8)
C7RB C 0.67695(8) 0.58921(8) 1.20555(8)
C7VB C 0.29445(8) 0.67695(8) 0.91079(8)
C7QB C 0.32305(8) 0.58921(8) 0.79445(8)
C7BC C 0.41079(8) 0.70555(8) 0.82305(8)
H4UA H 0.1948 0.9097 0.8068
H4J H 0.0903 0.8068 0.8052
H4OC H 0.3052 1.0903 1.3068
H4DB H 0.4097 1.1932 1.3052
H4XA H 0.3068 1.1948 1.4097
H4HC H 0.5903 0.6932 1.1948
H4XB H 0.6932 0.6948 1.0903
H4RB H 0.6948 0.5903 1.1932
H4VB H 0.3068 0.6948 0.9097
H4QB H 0.3052 0.5903 0.8068
H4BC H 0.4097 0.6932 0.8052
C8UA C 0.15486(6) 0.88924(6) 0.79753(6)
C8J C 0.11076(6) 0.79753(6) 0.84514(6)
C8OC C 0.34514(6) 1.11076(6) 1.29753(6)
C8DB C 0.38924(6) 1.20247(6) 1.34514(6)
C8XA C 0.29753(6) 1.15486(6) 1.38924(6)
C8HC C 0.61076(6) 0.70247(6) 1.15486(6)
C8XB C 0.70247(6) 0.65486(6) 1.11076(6)
C8RB C 0.65486(6) 0.61076(6) 1.20247(6)
C8VB C 0.29753(6) 0.65486(6) 0.88924(6)
C8QB C 0.34514(6) 0.61076(6) 0.79753(6)
C8BC C 0.38924(6) 0.70247(6) 0.84514(6)
C9UA C 0.12870(7) 0.89219(8) 0.77852(8)
C9J C 0.10781(8) 0.77852(8) 0.87130(7)
C9OC C 0.37130(7) 1.10781(8) 1.27852(8)
C9DB C 0.39219(8) 1.22148(8) 1.37130(7)
C9XA C 0.27852(8) 1.12870(7) 1.39219(8)
C9HC C 0.60781(8) 0.72148(8) 1.12870(7)
C9XB C 0.72148(8) 0.62870(7) 1.10781(8)
C9RB C 0.62870(7) 0.60781(8) 1.22148(8)
C9VB C 0.27852(8) 0.62870(7) 0.89219(8)
C9QB C 0.37130(7) 0.60781(8) 0.77852(8)
C9BC C 0.39219(8) 0.72148(8) 0.87130(7)
H5UA H 0.1132 0.8770 0.7789
H5J H 0.1230 0.7789 0.8868
H5OC H 0.3868 1.1230 1.2789
H5DB H 0.3770 1.2211 1.3868
H5XA H 0.2789 1.1132 1.3770
H5HC H 0.6230 0.7211 1.1132
H5XB H 0.7211 0.6132 1.1230
H5RB H 0.6132 0.6230 1.2211
H5VB H 0.2789 0.6132 0.8770
H5QB H 0.3868 0.6230 0.7789
H5BC H 0.3770 0.7211 0.8868
C10UA C 0.12581(8) 0.91745(8) 0.75934(9)
C10J C 0.08255(8) 0.75934(9) 0.87419(8)
C10OC C 0.37419(8) 1.08255(8) 1.25934(9)
C10DB C 0.41745(8) 1.24066(9) 1.37419(8)
C10XA C 0.25934(9) 1.12581(8) 1.41745(8)
C10HC C 0.58255(8) 0.74066(9) 1.12581(8)
C10XB C 0.74066(9) 0.62581(8) 1.08255(8)
C10RB C 0.62581(8) 0.58255(8) 1.24066(9)
C10VB C 0.25934(9) 0.62581(8) 0.91745(8)
C10QB C 0.37419(8) 0.58255(8) 0.75934(9)
C10BC C 0.41745(8) 0.74066(9) 0.87419(8)
H6UA H 0.1072 0.9200 0.7485
H6J H 0.0800 0.7485 0.8928
H6OC H 0.3928 1.0800 1.2485
H6DB H 0.4200 1.2515 1.3928
H6XA H 0.2485 1.1072 1.4200
H6HC H 0.5800 0.7515 1.1072
H6XB H 0.7515 0.6072 1.0800
H6RB H 0.6072 0.5800 1.2515
H6VB H 0.2485 0.6072 0.9200
H6QB H 0.3928 0.5800 0.7485
H6BC H 0.4200 0.7515 0.8928
C11UA C 0.15628(6) 0.86394(6) 0.82079(6)
C11J C 0.13606(6) 0.82079(6) 0.84372(6)
C11OC C 0.34372(6) 1.13606(6) 1.32079(6)
C11DB C 0.36394(6) 1.17921(6) 1.34372(6)
C11XA C 0.32079(6) 1.15628(6) 1.36394(6)
C11HC C 0.63606(6) 0.67921(6) 1.15628(6)
C11XB C 0.67921(6) 0.65628(6) 1.13606(6)
C11RB C 0.65628(6) 0.63606(6) 1.17921(6)
C11VB C 0.32079(6) 0.65628(6) 0.86394(6)
C11QB C 0.34372(6) 0.63606(6) 0.82079(6)
C11BC C 0.36394(6) 0.67921(6) 0.84372(6)
C12OC C 0.38952(9) 0.96800(9) 1.19745(9)
C12HC C 0.46800(9) 0.80255(9) 1.11048(9)
C12UA C 0.11048(9) 1.03200(9) 0.69745(9)
C12JA C 0.03200(9) 1.19745(9) 0.61048(9)
C12XA C 0.19745(9) 1.11048(9) 0.53200(9)
C12J C -0.03200(9) 0.69745(9) 0.88952(9)
C12XB C -0.19745(9) 0.61048(9) 0.96800(9)
C12NA C -0.11048(9) 0.53200(9) 0.80255(9)
C12VB C 0.19745(9) 0.61048(9) 1.03200(9)
C12W C 0.11048(9) 0.53200(9) 1.19745(9)
C12L C 0.03200(9) 0.69745(9) 1.11048(9)
H7OC H 0.4033 0.9721 1.2138
H7HC H 0.4721 0.7862 1.0967
H7UA H 0.0967 1.0279 0.7138
H7JA H 0.0279 1.2138 0.5967
H7XA H 0.2138 1.0967 0.5279
H7J H -0.0279 0.7138 0.9033
H7XB H -0.2138 0.5967 0.9721
H7NA H -0.0967 0.5279 0.7862
H7VB H 0.2138 0.5967 1.0279
H7W H 0.0967 0.5279 1.2138
H7L H 0.0279 0.7138 1.0967
C13OC C 0.39601(8) 0.94342(8) 1.17685(8)
C13HC C 0.44342(8) 0.82315(8) 1.10399(8)
C13UA C 0.10399(8) 1.05658(8) 0.67685(8)
C13JA C 0.05658(8) 1.17685(8) 0.60399(8)
C13XA C 0.17685(8) 1.10399(8) 0.55658(8)
C13J C -0.05658(8) 0.67685(8) 0.89601(8)
C13XB C -0.17685(8) 0.60399(8) 0.94342(8)
C13NA C -0.10399(8) 0.55658(8) 0.82315(8)
C13VB C 0.17685(8) 0.60399(8) 1.05658(8)
C13W C 0.10399(8) 0.55658(8) 1.17685(8)
C13L C 0.05658(8) 0.67685(8) 1.10399(8)
H8OC H 0.4133 0.9307 1.1803
H8HC H 0.4307 0.8197 1.0867
H8UA H 0.0867 1.0693 0.6803
H8JA H 0.0693 1.1803 0.5867
H8XA H 0.1803 1.0867 0.5693
H8J H -0.0693 0.6803 0.9133
H8XB H -0.1803 0.5867 0.9307
H8NA H -0.0867 0.5693 0.8197
H8VB H 0.1803 0.5867 1.0693
H8W H 0.0867 0.5693 1.1803
H8L H 0.0693 0.6803 1.0867
C14OC C 0.37708(7) 0.93802(7) 1.15179(6)
C14HC C 0.43802(7) 0.84821(6) 1.12292(7)
C14UA C 0.12292(7) 1.06198(7) 0.65179(6)
C14JA C 0.06198(7) 1.15179(6) 0.62292(7)
C14XA C 0.15179(6) 1.12292(7) 0.56198(7)
C14J C -0.06198(7) 0.65179(6) 0.87708(7)
C14XB C -0.15179(6) 0.62292(7) 0.93802(7)
C14NA C -0.12292(7) 0.56198(7) 0.84821(6)
C14VB C 0.15179(6) 0.62292(7) 1.06198(7)
C14W C 0.12292(7) 0.56198(7) 1.15179(6)
C14L C 0.06198(7) 0.65179(6) 1.12292(7)
C15OC C 0.35101(7) 0.95693(7) 1.14908(8)
C15HC C 0.45693(7) 0.85092(8) 1.14899(7)
C15UA C 0.14899(7) 1.04307(7) 0.64908(8)
C15JA C 0.04307(7) 1.14908(8) 0.64899(7)
C15XA C 0.14908(8) 1.14899(7) 0.54307(7)
C15J C -0.04307(7) 0.64908(8) 0.85101(7)
C15XB C -0.14908(8) 0.64899(7) 0.95693(7)
C15NA C -0.14899(7) 0.54307(7) 0.85092(8)
C15VB C 0.14908(8) 0.64899(7) 1.04307(7)
C15W C 0.14899(7) 0.54307(7) 1.14908(8)
C15L C 0.04307(7) 0.64908(8) 1.14899(7)
H9OC H 0.3369 0.9538 1.1328
H9HC H 0.4538 0.8672 1.1631
H9UA H 0.1631 1.0462 0.6328
H9JA H 0.0462 1.1328 0.6631
H9XA H 0.1328 1.1631 0.5462
H9J H -0.0462 0.6328 0.8369
H9XB H -0.1328 0.6631 0.9538
H9NA H -0.1631 0.5462 0.8672
H9VB H 0.1328 0.6631 1.0462
H9W H 0.1631 0.5462 1.1328
H9L H 0.0462 0.6328 1.1631
C16OC C 0.34598(8) 0.98002(9) 1.17015(9)
C16HC C 0.48002(9) 0.82985(9) 1.15402(8)
C16UA C 0.15402(8) 1.01998(9) 0.67015(9)
C16JA C 0.01998(9) 1.17015(9) 0.65402(8)
C16XA C 0.17015(9) 1.15402(8) 0.51998(9)
C16J C -0.01998(9) 0.67015(9) 0.84598(8)
C16XB C -0.17015(9) 0.65402(8) 0.98002(9)
C16NA C -0.15402(8) 0.51998(9) 0.82985(9)
C16VB C 0.17015(9) 0.65402(8) 1.01998(9)
C16W C 0.15402(8) 0.51998(9) 1.17015(9)
C16L C 0.01998(9) 0.67015(9) 1.15402(8)
H10OC H 0.3285 0.9927 1.1675
H10HC H 0.4927 0.8325 1.1715
H10UA H 0.1715 1.0073 0.6675
H10JA H 0.0073 1.1675 0.6715
H10XA H 0.1675 1.1715 0.5073
H10J H -0.0073 0.6675 0.8285
H10XB H -0.1675 0.6715 0.9927
H10NA H -0.1715 0.5073 0.8325
H10VB H 0.1675 0.6715 1.0073
H10W H 0.1715 0.5073 1.1675
H10L H 0.0073 0.6675 1.1715
C17OC C 0.38391(6) 0.91223(6) 1.12986(6)
C17HC C 0.41223(6) 0.87014(6) 1.11609(6)
C17UA C 0.11609(6) 1.08777(6) 0.62986(6)
C17JA C 0.08777(6) 1.12986(6) 0.61609(6)
C17XA C 0.12986(6) 1.11609(6) 0.58777(6)
C17J C -0.08777(6) 0.62986(6) 0.88391(6)
C17XB C -0.12986(6) 0.61609(6) 0.91223(6)
C17NA C -0.11609(6) 0.58777(6) 0.87014(6)
C17VB C 0.12986(6) 0.61609(6) 1.08777(6)
C17W C 0.11609(6) 0.58777(6) 1.12986(6)
C17L C 0.08777(6) 0.62986(6) 1.11609(6)
N1UA N 0.14815(5) 0.93858(5) 0.75532(6)
N1J N 0.06142(5) 0.75532(6) 0.85185(5)
N1OC N 0.35185(5) 1.06142(5) 1.25532(6)
N1DB N 0.43858(5) 1.24468(6) 1.35185(5)
N1XA N 0.25532(6) 1.14815(5) 1.43858(5)
N1HC N 0.56142(5) 0.74468(6) 1.14815(5)
N1XB N 0.74468(6) 0.64815(5) 1.06142(5)
N1RB N 0.64815(5) 0.56142(5) 1.24468(6)
N1VB N 0.25532(6) 0.64815(5) 0.93858(5)
N1QB N 0.35185(5) 0.56142(5) 0.75532(6)
N1BC N 0.43858(5) 0.74468(6) 0.85185(5)
N1WA N 0.35185(5) 0.75532(6) 1.06142(5)
N1AA N 0.14815(5) 0.74468(6) 1.06142(5)
N2UA N 0.13432(5) 0.84215(5) 0.82038(5)
N2J N 0.15785(5) 0.82038(5) 0.86568(5)
N2OC N 0.36568(5) 1.15785(5) 1.32038(5)
N2DB N 0.34215(5) 1.17962(5) 1.36568(5)
N2XA N 0.32038(5) 1.13432(5) 1.34215(5)
N2HC N 0.65785(5) 0.67962(5) 1.13432(5)
N2XB N 0.67962(5) 0.63432(5) 1.15785(5)
N2RB N 0.63432(5) 0.65785(5) 1.17962(5)
N2VB N 0.32038(5) 0.63432(5) 0.84215(5)
N2QB N 0.36568(5) 0.65785(5) 0.82038(5)
N2BC N 0.34215(5) 0.67962(5) 0.86568(5)
N3OC N 0.36433(6) 0.98558(6) 1.19418(6)
N3HC N 0.48558(6) 0.80582(6) 1.13567(6)
N3UA N 0.13567(6) 1.01442(6) 0.69418(6)
N3JA N 0.01442(6) 1.19418(6) 0.63567(6)
N3XA N 0.19418(6) 1.13567(6) 0.51442(6)
N3J N -0.01442(6) 0.69418(6) 0.86433(6)
N3XB N -0.19418(6) 0.63567(6) 0.98558(6)
N3NA N -0.13567(6) 0.51442(6) 0.80582(6)
N3VB N 0.19418(6) 0.63567(6) 1.01442(6)
N3W N 0.13567(6) 0.51442(6) 1.19418(6)
N3L N 0.01442(6) 0.69418(6) 1.13567(6)
N3WA N 0.36433(6) 0.69418(6) 0.98558(6)
N3AA N 0.13567(6) 0.80582(6) 0.98558(6)
N3DB N 0.51442(6) 1.30582(6) 1.36433(6)
N3XA_2 N 0.19418(6) 1.13567(6) 1.51442(6)
N3XB_2 N 0.80582(6) 0.63567(6) 0.98558(6)
N3RB N 0.63567(6) 0.48558(6) 1.30582(6)
N4OC N 0.40792(6) 0.89383(6) 1.13642(5)
N4HC N 0.39383(6) 0.86358(5) 1.09208(6)
N4UA N 0.09208(6) 1.10617(6) 0.63642(5)
N4JA N 0.10617(6) 1.13642(5) 0.59208(6)
N4XA N 0.13642(5) 1.09208(6) 0.60617(6)
N4J N -0.10617(6) 0.63642(5) 0.90792(6)
N4XB N -0.13642(5) 0.59208(6) 0.89383(6)
N4NA N -0.09208(6) 0.60617(6) 0.86358(5)
N4VB N 0.13642(5) 0.59208(6) 1.10617(6)
N4W N 0.09208(6) 0.60617(6) 1.13642(5)
N4L N 0.10617(6) 0.63642(5) 1.09208(6)
Ni1UA Ni 0.142654(9) 0.976776(9) 0.725220(9)
Ni1J Ni 0.023224(9) 0.725220(9) 0.857346(9)
Ni1OC Ni 0.357346(9) 1.023224(9) 1.225220(9)
Ni1HC Ni 0.523224(9) 0.774780(9) 1.142654(9)
Ni1VB Ni 0.225220(9) 0.642654(9) 0.976776(9)
Ni1WA Ni 0.357346(9) 0.725220(9) 1.023224(9)
Ni1AA Ni 0.142654(9) 0.774780(9) 1.023224(9)
Ni1DB Ni 0.476776(9) 1.274780(9) 1.357346(9)
Ni1XA Ni 0.225220(9) 1.142654(9) 1.476776(9)
Ni1XB Ni 0.774780(9) 0.642654(9) 1.023224(9)
Ni1RB Ni 0.642654(9) 0.523224(9) 1.274780(9)
Ni1JA Ni -0.023224(9) 1.225220(9) 0.642654(9)
Ni1XA_2 Ni 0.225220(9) 1.142654(9) 0.476776(9)
Ni1LB Ni 0.357346(9) 0.976776(9) 0.774780(9)
Ni1I Ni 0.274780(9) 1.023224(9) 0.642654(9)
Ni1IB Ni 0.225220(9) 1.023224(9) 0.857346(9)
Ni1XB_2 Ni -0.225220(9) 0.642654(9) 1.023224(9)
Ni1NA Ni -0.142654(9) 0.476776(9) 0.774780(9)
Ni1LA Ni 0.023224(9) 0.774780(9) 0.642654(9)
Ni1LC Ni -0.023224(9) 0.642654(9) 0.725220(9)
Ni1MB Ni -0.023224(9) 0.857346(9) 0.774780(9)
Ni1QB Ni 0.357346(9) 0.523224(9) 0.725220(9)
Ni1BC Ni 0.476776(9) 0.774780(9) 0.857346(9)
Ni1W Ni 0.142654(9) 0.476776(9) 1.225220(9)
Ni1L Ni -0.023224(9) 0.725220(9) 1.142654(9)
O1VB O 0.23701(4) 0.68488(4) 0.99703(4)
O1WA O 0.31512(4) 0.73701(4) 1.00297(4)
O1AA O 0.18488(4) 0.76299(4) 1.00297(4)
O1UA O 0.18488(4) 0.99703(4) 0.73701(4)
O1LB O 0.31512(4) 0.99703(4) 0.76299(4)
O1I O 0.26299(4) 1.00297(4) 0.68488(4)
O1IB O 0.23701(4) 1.00297(4) 0.81512(4)
O1J O 0.00297(4) 0.73701(4) 0.81512(4)
O1LA O 0.00297(4) 0.76299(4) 0.68488(4)
O1LC O -0.00297(4) 0.68488(4) 0.73701(4)
O1MB O -0.00297(4) 0.81512(4) 0.76299(4)
O1OC O 0.31512(4) 1.00297(4) 1.23701(4)
O1HC O 0.50297(4) 0.76299(4) 1.18488(4)
O1DB O 0.49703(4) 1.26299(4) 1.31512(4)
O1XA O 0.23701(4) 1.18488(4) 1.49703(4)
O1XB O 0.76299(4) 0.68488(4) 1.00297(4)
O1RB O 0.68488(4) 0.50297(4) 1.26299(4)
O2VB O 0.27699(5) 0.67239(4) 1.02739(5)
O2WA O 0.32761(4) 0.77699(5) 0.97261(5)
O2AA O 0.17239(4) 0.72301(5) 0.97261(5)
O2UA O 0.17239(4) 1.02739(5) 0.77699(5)
O2LB O 0.32761(4) 1.02739(5) 0.72301(5)
O2I O 0.22301(5) 0.97261(5) 0.67239(4)
O2IB O 0.27699(5) 0.97261(5) 0.82761(4)
O2J O -0.02739(5) 0.77699(5) 0.82761(4)
O2LA O -0.02739(5) 0.72301(5) 0.67239(4)
O2LC O 0.02739(5) 0.67239(4) 0.77699(5)
O2MB O 0.02739(5) 0.82761(4) 0.72301(5)
O3UA O 0.11835(5) 0.99964(7) 0.75960(6)
O3J O 0.00036(7) 0.75960(6) 0.88165(5)
O3OC O 0.38165(5) 1.00036(7) 1.25960(6)
O3HC O 0.50036(7) 0.74040(6) 1.11835(5)
O3VB O 0.25960(6) 0.61835(5) 0.99964(7)
O3WA O 0.38165(5) 0.75960(6) 1.00036(7)
O3AA O 0.11835(5) 0.74040(6) 1.00036(7)
O3DB O 0.49964(7) 1.24040(6) 1.38165(5)
O3XA O 0.25960(6) 1.11835(5) 1.49964(7)
O3XB O 0.74040(6) 0.61835(5) 1.00036(7)
O3RB O 0.61835(5) 0.50036(7) 1.24040(6)
O4UA O 0.09980(6) 0.95904(7) 0.70995(7)
O4J O 0.04096(7) 0.70995(7) 0.90020(6)
O4OC O 0.40020(6) 1.04096(7) 1.20995(7)
O4HC O 0.54096(7) 0.79005(7) 1.09980(6)
O4VB O 0.20995(7) 0.59980(6) 0.95904(7)
O4WA O 0.40020(6) 0.70995(7) 1.04096(7)
O4AA O 0.09980(6) 0.79005(7) 1.04096(7)
O4DB O 0.45904(7) 1.29005(7) 1.40020(6)
O4XA O 0.20995(7) 1.09980(6) 1.45904(7)
O4XB O 0.79005(7) 0.59980(6) 1.04096(7)
O4RB O 0.59980(6) 0.54096(7) 1.29005(7)
O5UA O 0.16670(5) 0.95119(5) 0.69173(5)
O5J O 0.04881(5) 0.69173(5) 0.83330(5)
O5OC O 0.33330(5) 1.04881(5) 1.19173(5)
O5HC O 0.54881(5) 0.80827(5) 1.16670(5)
O5VB O 0.19173(5) 0.66670(5) 0.95119(5)
O5WA O 0.33330(5) 0.69173(5) 1.04881(5)
O5AA O 0.16670(5) 0.80827(5) 1.04881(5)
O5DB O 0.45119(5) 1.30827(5) 1.33330(5)
O5XA O 0.19173(5) 1.16670(5) 1.45119(5)
O5XB O 0.80827(5) 0.66670(5) 1.04881(5)
O5RB O 0.66670(5) 0.54881(5) 1.30827(5)
loop_
_geom_bond_atom_site_label_1
_geom_bond_atom_site_label_2
_geom_bond_site_symmetry_1
_geom_bond_site_symmetry_2
C1 C2 1_555 1_555
C2 C3 1_555 1_555
C3 C2VB 1_555 1_555
C4 C2 1_555 1_555
H1 C4 1_555 1_555
C5 C4 1_555 1_555
H2 C5 1_555 1_555
C6 H3 1_555 1_555
C7 C6 1_555 1_555
H4 C7 1_555 1_555
C8 C7 1_555 1_555
C9 C8 1_555 1_555
H5 C9 1_555 1_555
C10 C9 1_555 1_555
H6 C10 1_555 1_555
C11 C8 1_555 1_555
C12 H7 1_555 1_555
C13 C12 1_555 1_555
H8 C13 1_555 1_555
C14 C13 1_555 1_555
C15 C14 1_555 1_555
H9 C15 1_555 1_555
C16 C15 1_555 1_555
H10 C16 1_555 1_555
C17 C14 1_555 1_555
N1 C6 1_555 1_555
N2 C11 1_555 1_555
N3 C12 1_555 1_555
N4 C17 1_555 1_555
Ni1 N1 1_555 1_555
O1 C1 1_555 1_555
O2 C1 1_555 1_555
O3 Ni1 1_555 1_555
O4 Ni1 1_555 1_555
O5 Ni1 1_555 1_555
C1VB C2VB 1_555 1_555
C1WA C2WA 1_555 1_555
C1AA C2AA 1_555 1_555
C1UA C2UA 1_555 1_555
C1LB C2LB 1_555 1_555
C1I C2I 1_555 1_555
C1IB C2IB 1_555 1_555
C1J C2J 1_555 1_555
C1LA C2LA 1_555 1_555
C1LC C2LC 1_555 1_555
C1MB C2MB 1_555 1_555
C2VB C4VB 1_555 1_555
C2WA C3AA 1_555 1_555
C2AA C3AA 1_555 1_555
C2UA C3UA 1_555 1_555
C2LB C3UA 1_555 1_555
C2I C3I 1_555 1_555
C2IB C3I 1_555 1_555
C2J C3J 1_555 1_555
C2LA C3J 1_555 1_555
C2LC C3MB 1_555 1_555
C2MB C3MB 1_555 1_555
C3AA C3 1_555 1_555
C3UA C3I 1_555 1_555
C3J C3MB 1_555 1_555
C4VB C5 1_555 1_555
C4WA C2WA 1_555 1_555
C4AA C2AA 1_555 1_555
C4UA C2UA 1_555 1_555
C4LB C2LB 1_555 1_555
C4I C2I 1_555 1_555
C4IB C2IB 1_555 1_555
C4J C2J 1_555 1_555
C4LA C2LA 1_555 1_555
C4LC C2LC 1_555 1_555
C4MB C2MB 1_555 1_555
H1VB C4VB 1_555 1_555
H1WA C4WA 1_555 1_555
H1AA C4AA 1_555 1_555
H1UA C4UA 1_555 1_555
H1LB C4LB 1_555 1_555
H1I C4I 1_555 1_555
H1IB C4IB 1_555 1_555
H1J C4J 1_555 1_555
H1LA C4LA 1_555 1_555
H1LC C4LC 1_555 1_555
H1MB C4MB 1_555 1_555
C5AA C4WA 1_555 1_555
C5UA C4UA 1_555 1_555
C5I C4I 1_555 1_555
C5J C4J 1_555 1_555
C5MB C4LC 1_555 1_555
H2AA C5AA 1_555 1_555
H2UA C5UA 1_555 1_555
H2I C5I 1_555 1_555
H2J C5J 1_555 1_555
H2MB C5MB 1_555 1_555
C6UA H3UA 1_555 1_555
C6J H3J 1_555 1_555
C6OC H3OC 1_555 1_555
C6DB H3DB 1_555 1_555
C6XA H3XA 1_555 1_555
C6HC H3HC 1_555 1_555
C6XB H3XB 1_555 1_555
C6RB H3RB 1_555 1_555
C6VB H3VB 1_555 1_555
C6QB H3QB 1_555 1_555
C6BC H3BC 1_555 1_555
C7UA C6UA 1_555 1_555
C7J C6J 1_555 1_555
C7OC C6OC 1_555 1_555
C7DB C6DB 1_555 1_555
C7XA C6XA 1_555 1_555
C7HC C6HC 1_555 1_555
C7XB C6XB 1_555 1_555
C7RB C6RB 1_555 1_555
C7VB C6VB 1_555 1_555
C7QB C6QB 1_555 1_555
C7BC C6BC 1_555 1_555
H4UA C7UA 1_555 1_555
H4J C7J 1_555 1_555
H4OC C7OC 1_555 1_555
H4DB C7DB 1_555 1_555
H4XA C7XA 1_555 1_555
H4HC C7HC 1_555 1_555
H4XB C7XB 1_555 1_555
H4RB C7RB 1_555 1_555
H4VB C7VB 1_555 1_555
H4QB C7QB 1_555 1_555
H4BC C7BC 1_555 1_555
C8UA C7UA 1_555 1_555
C8J C7J 1_555 1_555
C8OC C7OC 1_555 1_555
C8DB C7DB 1_555 1_555
C8XA C7XA 1_555 1_555
C8HC C7HC 1_555 1_555
C8XB C7XB 1_555 1_555
C8RB C7RB 1_555 1_555
C8VB C7VB 1_555 1_555
C8QB C7QB 1_555 1_555
C8BC C7BC 1_555 1_555
C9UA C8UA 1_555 1_555
C9J C8J 1_555 1_555
C9OC C8OC 1_555 1_555
C9DB C8DB 1_555 1_555
C9XA C8XA 1_555 1_555
C9HC C8HC 1_555 1_555
C9XB C8XB 1_555 1_555
C9RB C8RB 1_555 1_555
C9VB C8VB 1_555 1_555
C9QB C8QB 1_555 1_555
C9BC C8BC 1_555 1_555
H5UA C9UA 1_555 1_555
H5J C9J 1_555 1_555
H5OC C9OC 1_555 1_555
H5DB C9DB 1_555 1_555
H5XA C9XA 1_555 1_555
H5HC C9HC 1_555 1_555
H5XB C9XB 1_555 1_555
H5RB C9RB 1_555 1_555
H5VB C9VB 1_555 1_555
H5QB C9QB 1_555 1_555
H5BC C9BC 1_555 1_555
C10UA C9UA 1_555 1_555
C10J C9J 1_555 1_555
C10OC C9OC 1_555 1_555
C10DB C9DB 1_555 1_555
C10XA C9XA 1_555 1_555
C10HC C9HC 1_555 1_555
C10XB C9XB 1_555 1_555
C10RB C9RB 1_555 1_555
C10VB C9VB 1_555 1_555
C10QB C9QB 1_555 1_555
C10BC C9BC 1_555 1_555
H6UA C10UA 1_555 1_555
H6J C10J 1_555 1_555
H6OC C10OC 1_555 1_555
H6DB C10DB 1_555 1_555
H6XA C10XA 1_555 1_555
H6HC C10HC 1_555 1_555
H6XB C10XB 1_555 1_555
H6RB C10RB 1_555 1_555
H6VB C10VB 1_555 1_555
H6QB C10QB 1_555 1_555
H6BC C10BC 1_555 1_555
C11UA N2 1_555 1_555
C11J C8J 1_555 1_555
C11OC C8OC 1_555 1_555
C11DB C8DB 1_555 1_555
C11XA C8XA 1_555 1_555
C11HC C8HC 1_555 1_555
C11XB C8XB 1_555 1_555
C11RB C8RB 1_555 1_555
C11VB C8VB 1_555 1_555
C11QB C8QB 1_555 1_555
C11BC C8BC 1_555 1_555
C12OC H7OC 1_555 1_555
C12HC H7HC 1_555 1_555
C12UA H7UA 1_555 1_555
C12JA H7JA 1_555 1_555
C12XA H7XA 1_555 1_555
C12J H7J 1_555 1_555
C12XB H7XB 1_555 1_555
C12NA H7NA 1_555 1_555
C12VB H7VB 1_555 1_555
C12W H7W 1_555 1_555
C12L H7L 1_555 1_555
C13OC C12OC 1_555 1_555
C13HC C12HC 1_555 1_555
C13UA C12UA 1_555 1_555
C13JA C12JA 1_555 1_555
C13XA C12XA 1_555 1_555
C13J C12J 1_555 1_555
C13XB C12XB 1_555 1_555
C13NA C12NA 1_555 1_555
C13VB C12VB 1_555 1_555
C13W C12W 1_555 1_555
C13L C12L 1_555 1_555
H8OC C13OC 1_555 1_555
H8HC C13HC 1_555 1_555
H8UA C13UA 1_555 1_555
H8JA C13JA 1_555 1_555
H8XA C13XA 1_555 1_555
H8J C13J 1_555 1_555
H8XB C13XB 1_555 1_555
H8NA C13NA 1_555 1_555
H8VB C13VB 1_555 1_555
H8W C13W 1_555 1_555
H8L C13L 1_555 1_555
C14OC C13OC 1_555 1_555
C14HC C13HC 1_555 1_555
C14UA C13UA 1_555 1_555
C14JA C13JA 1_555 1_555
C14XA C13XA 1_555 1_555
C14J C13J 1_555 1_555
C14XB C13XB 1_555 1_555
C14NA C13NA 1_555 1_555
C14VB C13VB 1_555 1_555
C14W C13W 1_555 1_555
C14L C13L 1_555 1_555
C15OC C14OC 1_555 1_555
C15HC C14HC 1_555 1_555
C15UA C14UA 1_555 1_555
C15JA C14JA 1_555 1_555
C15XA C14XA 1_555 1_555
C15J C14J 1_555 1_555
C15XB C14XB 1_555 1_555
C15NA C14NA 1_555 1_555
C15VB C14VB 1_555 1_555
C15W C14W 1_555 1_555
C15L C14L 1_555 1_555
H9OC C15OC 1_555 1_555
H9HC C15HC 1_555 1_555
H9UA C15UA 1_555 1_555
H9JA C15JA 1_555 1_555
H9XA C15XA 1_555 1_555
H9J C15J 1_555 1_555
H9XB C15XB 1_555 1_555
H9NA C15NA 1_555 1_555
H9VB C15VB 1_555 1_555
H9W C15W 1_555 1_555
H9L C15L 1_555 1_555
C16OC C15OC 1_555 1_555
C16HC C15HC 1_555 1_555
C16UA C15UA 1_555 1_555
C16JA C15JA 1_555 1_555
C16XA C15XA 1_555 1_555
C16J C15J 1_555 1_555
C16XB C15XB 1_555 1_555
C16NA C15NA 1_555 1_555
C16VB C15VB 1_555 1_555
C16W C15W 1_555 1_555
C16L C15L 1_555 1_555
H10OC C16OC 1_555 1_555
H10HC C16HC 1_555 1_555
H10UA C16UA 1_555 1_555
H10JA C16JA 1_555 1_555
H10XA C16XA 1_555 1_555
H10J C16J 1_555 1_555
H10XB C16XB 1_555 1_555
H10NA C16NA 1_555 1_555
H10VB C16VB 1_555 1_555
H10W C16W 1_555 1_555
H10L C16L 1_555 1_555
C17OC N4 1_555 1_555
C17HC C14HC 1_555 1_555
C17UA C14UA 1_555 1_555
C17JA C14JA 1_555 1_555
C17XA C14XA 1_555 1_555
C17J C14J 1_555 1_555
C17XB C14XB 1_555 1_555
C17NA C14NA 1_555 1_555
C17VB C14VB 1_555 1_555
C17W C14W 1_555 1_555
C17L C14L 1_555 1_555
N1UA C6UA 1_555 1_555
N1J C6J 1_555 1_555
N1OC C6OC 1_555 1_555
N1DB C6DB 1_555 1_555
N1XA C6XA 1_555 1_555
N1HC C6HC 1_555 1_555
N1XB C6XB 1_555 1_555
N1RB C6RB 1_555 1_555
N1VB C6VB 1_555 1_555
N1QB C6QB 1_555 1_555
N1BC C6BC 1_555 1_555
N1WA Ni1WA 1_555 1_555
N1AA Ni1AA 1_555 1_555
N2UA C11UA 1_555 1_555
N2J C11 1_555 1_555
N2OC C11OC 1_555 1_555
N2DB C11DB 1_555 1_555
N2XA C11OC 1_555 1_555
N2HC C11HC 1_555 1_555
N2XB C11XB 1_555 1_555
N2RB C11HC 1_555 1_555
N2VB C11VB 1_555 1_555
N2QB C11QB 1_555 1_555
N2BC C11VB 1_555 1_555
N3OC C12OC 1_555 1_555
N3HC C12HC 1_555 1_555
N3UA C12UA 1_555 1_555
N3JA C12JA 1_555 1_555
N3XA C12XA 1_555 1_555
N3J C12J 1_555 1_555
N3XB C12XB 1_555 1_555
N3NA C12NA 1_555 1_555
N3VB C12VB 1_555 1_555
N3W C12W 1_555 1_555
N3L C12L 1_555 1_555
N3WA Ni1WA 1_555 1_555
N3AA Ni1AA 1_555 1_555
N3DB Ni1DB 1_555 1_555
N3XA_2 Ni1XA 1_555 1_555
N3XB_2 Ni1XB 1_555 1_555
N3RB Ni1RB 1_555 1_555
N4OC C17OC 1_555 1_555
N4HC C17 1_555 1_555
N4UA C17UA 1_555 1_555
N4JA C17JA 1_555 1_555
N4XA C17UA 1_555 1_555
N4J C17J 1_555 1_555
N4XB C17XB 1_555 1_555
N4NA C17J 1_555 1_555
N4VB C17VB 1_555 1_555
N4W C17W 1_555 1_555
N4L C17VB 1_555 1_555
Ni1UA N1UA 1_555 1_555
Ni1J N1J 1_555 1_555
Ni1OC N1OC 1_555 1_555
Ni1HC N1HC 1_555 1_555
Ni1VB N1VB 1_555 1_555
Ni1WA O1WA 1_555 1_555
Ni1AA O1AA 1_555 1_555
Ni1DB N1DB 1_555 1_555
Ni1XA N1XA 1_555 1_555
Ni1XB N1XB 1_555 1_555
Ni1RB N1RB 1_555 1_555
Ni1JA N3JA 1_555 1_555
Ni1XA_2 N3XA 1_555 1_555
Ni1LB O1LB 1_555 1_555
Ni1I O1I 1_555 1_555
Ni1IB O1IB 1_555 1_555
Ni1XB_2 N3XB 1_555 1_555
Ni1NA N3NA 1_555 1_555
Ni1LA O1LA 1_555 1_555
Ni1LC O1LC 1_555 1_555
Ni1MB O1MB 1_555 1_555
Ni1QB N1QB 1_555 1_555
Ni1BC N1BC 1_555 1_555
Ni1W N3W 1_555 1_555
Ni1L N3L 1_555 1_555
O1VB C1VB 1_555 1_555
O1WA C1WA 1_555 1_555
O1AA C1AA 1_555 1_555
O1UA C1UA 1_555 1_555
O1LB C1LB 1_555 1_555
O1I C1I 1_555 1_555
O1IB C1IB 1_555 1_555
O1J C1J 1_555 1_555
O1LA C1LA 1_555 1_555
O1LC C1LC 1_555 1_555
O1MB C1MB 1_555 1_555
O1OC Ni1OC 1_555 1_555
O1HC Ni1HC 1_555 1_555
O1DB Ni1DB 1_555 1_555
O1XA Ni1XA 1_555 1_555
O1XB Ni1XB 1_555 1_555
O1RB Ni1RB 1_555 1_555
O2VB C1VB 1_555 1_555
O2WA C1WA 1_555 1_555
O2AA C1AA 1_555 1_555
O2UA C1UA 1_555 1_555
O2LB C1LB 1_555 1_555
O2I C1I 1_555 1_555
O2IB C1IB 1_555 1_555
O2J C1J 1_555 1_555
O2LA C1LA 1_555 1_555
O2LC C1LC 1_555 1_555
O2MB C1MB 1_555 1_555
O3UA Ni1UA 1_555 1_555
O3J Ni1J 1_555 1_555
O3OC Ni1OC 1_555 1_555
O3HC Ni1HC 1_555 1_555
O3VB Ni1VB 1_555 1_555
O3WA Ni1WA 1_555 1_555
O3AA Ni1AA 1_555 1_555
O3DB Ni1DB 1_555 1_555
O3XA Ni1XA 1_555 1_555
O3XB Ni1XB 1_555 1_555
O3RB Ni1RB 1_555 1_555
O4UA Ni1UA 1_555 1_555
O4J Ni1J 1_555 1_555
O4OC Ni1OC 1_555 1_555
O4HC Ni1HC 1_555 1_555
O4VB Ni1VB 1_555 1_555
O4WA Ni1WA 1_555 1_555
O4AA Ni1AA 1_555 1_555
O4DB Ni1DB 1_555 1_555
O4XA Ni1XA 1_555 1_555
O4XB Ni1XB 1_555 1_555
O4RB Ni1RB 1_555 1_555
O5UA Ni1UA 1_555 1_555
O5J Ni1J 1_555 1_555
O5OC Ni1OC 1_555 1_555
O5HC Ni1HC 1_555 1_555
O5VB Ni1VB 1_555 1_555
O5WA Ni1WA 1_555 1_555
O5AA Ni1AA 1_555 1_555
O5DB Ni1DB 1_555 1_555
O5XA Ni1XA 1_555 1_555
O5XB Ni1XB 1_555 1_555
O5RB Ni1RB 1_555 1_555
C10 N1 1_555 1_555
C16 N3 1_555 1_555
N3 Ni1 1_555 1_555
Ni1 O1 1_555 1_555
C4AA C5AA 1_555 1_555
C4LB C5UA 1_555 1_555
C4IB C5I 1_555 1_555
C4LA C5J 1_555 1_555
C4MB C5MB 1_555 1_555
C8UA C11UA 1_555 1_555
C10UA N1UA 1_555 1_555
C10J N1J 1_555 1_555
C10OC N1OC 1_555 1_555
C10DB N1DB 1_555 1_555
C10XA N1XA 1_555 1_555
C10HC N1HC 1_555 1_555
C10XB N1XB 1_555 1_555
C10RB N1RB 1_555 1_555
C10VB N1VB 1_555 1_555
C10QB N1QB 1_555 1_555
C10BC N1BC 1_555 1_555
C11J N2UA 1_555 1_555
C11J N2J 1_555 1_555
C11DB N2OC 1_555 1_555
C11XA N2DB 1_555 1_555
C11XA N2XA 1_555 1_555
C11XB N2HC 1_555 1_555
C11RB N2XB 1_555 1_555
C11RB N2RB 1_555 1_555
C11QB N2VB 1_555 1_555
C11BC N2QB 1_555 1_555
C11BC N2BC 1_555 1_555
C14OC C17OC 1_555 1_555
C16OC N3OC 1_555 1_555
C16HC N3HC 1_555 1_555
C16UA N3UA 1_555 1_555
C16JA N3JA 1_555 1_555
C16XA N3XA 1_555 1_555
C16J N3J 1_555 1_555
C16XB N3XB 1_555 1_555
C16NA N3NA 1_555 1_555
C16VB N3VB 1_555 1_555
C16W N3W 1_555 1_555
C16L N3L 1_555 1_555
C17HC N4OC 1_555 1_555
C17HC N4HC 1_555 1_555
C17JA N4UA 1_555 1_555
C17XA N4JA 1_555 1_555
C17XA N4XA 1_555 1_555
C17XB N4J 1_555 1_555
C17NA N4XB 1_555 1_555
C17NA N4NA 1_555 1_555
C17W N4VB 1_555 1_555
C17L N4W 1_555 1_555
C17L N4L 1_555 1_555
N3OC Ni1OC 1_555 1_555
N3HC Ni1HC 1_555 1_555
N3UA Ni1UA 1_555 1_555
N3J Ni1J 1_555 1_555
N3VB Ni1VB 1_555 1_555
Ni1UA O1UA 1_555 1_555
Ni1J O1J 1_555 1_555
Ni1VB O1VB 1_555 1_555

#END
