
#######################################################################
#
#                 Cambridge Crystallographic Data Centre
#                                CCDC 
#
#######################################################################
#
# If this CIF has been generated from an entry in the Cambridge 
# Structural Database, then it will include bibliographic, chemical, 
# crystal, experimental, refinement or atomic coordinate data resulting 
# from the CCDC's data processing and validation procedures.
#
#######################################################################

data_KUMGOQ
_chemical_formula_moiety         '(C24 H28 Cu6 N11 S8 W2 1-)n'
_symmetry_cell_setting           monoclinic
_symmetry_space_group_name_H-M   'P 21/c'
_symmetry_Int_Tables_number      14
_space_group_name_Hall           '-P 2ybc'
loop_
_symmetry_equiv_pos_site_id
_symmetry_equiv_pos_as_xyz
1 x,y,z
2 -x,1/2+y,1/2-z
3 -x,-y,-z
4 x,1/2-y,1/2+z
_cell_length_a                   9.2823(19)
_cell_length_b                   14.575(3)
_cell_length_c                   19.371(4)
_cell_angle_alpha                90
_cell_angle_beta                 98.05(3)
_cell_angle_gamma                90
_cell_volume                     2594.87
loop_
_atom_site_label
_atom_site_type_symbol
_atom_site_fract_x
_atom_site_fract_y
_atom_site_fract_z
_atom_site_U_iso_or_equiv
_atom_site_thermal_displace_type
W1 W 0.22714(3) 0.310955(15) 0.349902(10) 0.0329 Uani
Cu1 Cu 0.11694(8) 0.14224(5) 0.31144(3) 0.0439 Uani
Cu2 Cu 0.20178(8) 0.36407(5) 0.21391(3) 0.0427 Uani
Cu3 Cu 0.24557(8) 0.26692(5) 0.48306(3) 0.0441 Uani
S1 S 0.03373(16) 0.28398(10) 0.27103(7) 0.0388 Uani
S2 S 0.30570(18) 0.17558(10) 0.39802(7) 0.0435 Uani
S3 S 0.39869(19) 0.37476(12) 0.30001(8) 0.0542 Uani
S4 S 0.16465(19) 0.39880(10) 0.43416(7) 0.0493 Uani
N1 N 0.2412(6) 0.0881(3) 0.2326(2) 0.0441 Uani
N2 N 0.2500(5) 0.3039(3) 0.1298(3) 0.0447 Uani
N3 N -0.0966(6) -0.0168(4) 0.3129(3) 0.0551 Uani
N4 N 0.3978(5) -0.0578(3) 0.0195(2) 0.0445 Uani
N5 N 0.5413(5) 0.0776(3) 0.0372(2) 0.0411 Uani
C1 C -0.0214(7) 0.0453(4) 0.3181(3) 0.0435 Uani
C2 C 0.2561(6) 0.2732(4) 0.0758(3) 0.0411 Uani
C3 C 0.1760(7) 0.0334(4) 0.1826(3) 0.0480 Uani
H1 H 0.0845 0.0106 0.1876 0.0570 Uiso
C4 C 0.2352(7) 0.0083(4) 0.1241(3) 0.0450 Uani
H2 H 0.1848 -0.0293 0.0902 0.0540 Uiso
C5 C 0.3723(6) 0.0410(4) 0.1177(3) 0.0369 Uani
C6 C 0.4426(6) 0.0962(4) 0.1692(3) 0.0438 Uani
H3 H 0.5358 0.1180 0.1665 0.0530 Uiso
C7 C 0.3726(7) 0.1183(4) 0.2246(3) 0.0465 Uani
H4 H 0.4200 0.1568 0.2588 0.0560 Uiso
C8 C 0.4422(6) 0.0195(4) 0.0545(3) 0.0375 Uani
N1B N 0.7588(6) -0.0881(3) -0.2326(2) 0.0441 Uani
N4B N 0.6022(5) 0.0578(3) -0.0195(2) 0.0445 Uani
N5B N 0.4587(5) -0.0776(3) -0.0372(2) 0.0411 Uani
C3B C 0.8240(7) -0.0334(4) -0.1826(3) 0.0480 Uani
H1B H 0.9155 -0.0106 -0.1876 0.0570 Uiso
C4B C 0.7648(7) -0.0083(4) -0.1241(3) 0.0450 Uani
H2B H 0.8152 0.0293 -0.0902 0.0540 Uiso
C5B C 0.6277(6) -0.0410(4) -0.1177(3) 0.0369 Uani
C6B C 0.5574(6) -0.0962(4) -0.1692(3) 0.0438 Uani
H3B H 0.4642 -0.1180 -0.1665 0.0530 Uiso
C7B C 0.6274(7) -0.1183(4) -0.2246(3) 0.0465 Uani
H4B H 0.5800 -0.1568 -0.2588 0.0560 Uiso
C8B C 0.5578(6) -0.0195(4) -0.0545(3) 0.0375 Uani
W1B W 0.77286(3) -0.310955(15) -0.349902(10) 0.0329 Uani
Cu1B Cu 0.88306(8) -0.14224(5) -0.31144(3) 0.0439 Uani
Cu2B Cu 0.79822(8) -0.36407(5) -0.21391(3) 0.0427 Uani
Cu3B Cu 0.75443(8) -0.26692(5) -0.48306(3) 0.0441 Uani
S1B S 0.96627(16) -0.28398(10) -0.27103(7) 0.0388 Uani
S2B S 0.69430(18) -0.17558(10) -0.39802(7) 0.0435 Uani
S3B S 0.60131(19) -0.37476(12) -0.30001(8) 0.0542 Uani
S4B S 0.83535(19) -0.39880(10) -0.43416(7) 0.0493 Uani
N2B N 0.7500(5) -0.3039(3) -0.1298(3) 0.0447 Uani
N3B N 1.0966(6) 0.0168(4) -0.3129(3) 0.0551 Uani
C1B C 1.0214(7) -0.0453(4) -0.3181(3) 0.0435 Uani
C2B C 0.7439(6) -0.2732(4) -0.0758(3) 0.0411 Uani
Cu2A Cu -0.20178(8) -0.13593(5) 0.28609(3) 0.0427 Uani
Cu2C Cu 1.20178(8) 0.13593(5) -0.28609(3) 0.0427 Uani
Cu3A Cu 0.75443(8) -0.23308(5) 0.01694(3) 0.0441 Uani
Cu3C Cu 0.24557(8) 0.23308(5) -0.01694(3) 0.0441 Uani
N3A N 0.0966(6) 0.4832(4) 0.1871(3) 0.0551 Uani
N3C N 0.9034(6) -0.4832(4) -0.1871(3) 0.0551 Uani
C2A C 0.7439(6) -0.2268(4) -0.5758(3) 0.0411 Uani
C2C C 0.2561(6) 0.2268(4) 0.5758(3) 0.0411 Uani
N6 N 0.7608(6) 0.3307(3) 0.0258(3) 0.0552 Uani
C9 C 0.6728(11) 0.3886(7) 0.1388(4) 0.1072 Uani
H5 H 0.7378 0.3527 0.1709 0.1610 Uiso
H6 H 0.5848 0.4001 0.1581 0.1610 Uiso
H7 H 0.7183 0.4459 0.1303 0.1610 Uiso
C10 C 0.6373(7) 0.3368(5) 0.0708(4) 0.0620 Uani
H8 H 0.6083 0.2749 0.0812 0.0750 Uiso
H9 H 0.5542 0.3660 0.0434 0.0750 Uiso
C11 C 0.8749(10) 0.1900(5) 0.0905(5) 0.1015 Uani
H10 H 0.7992 0.1898 0.1195 0.1520 Uiso
H11 H 0.9643 0.1698 0.1171 0.1520 Uiso
H12 H 0.8491 0.1494 0.0517 0.1520 Uiso
C12 C 0.8941(8) 0.2866(5) 0.0638(4) 0.0779 Uani
H13 H 0.9309 0.3251 0.1031 0.0940 Uiso
H14 H 0.9678 0.2850 0.0329 0.0940 Uiso
C13 C 0.8067(8) 0.4266(5) 0.0037(4) 0.0763 Uani
H15 H 0.8401 0.4619 0.0454 0.0910 Uiso
H16 H 0.8883 0.4199 -0.0222 0.0910 Uiso
C14 C 0.6883(11) 0.4798(5) -0.0402(5) 0.1078 Uani
H17 H 0.6424 0.4413 -0.0771 0.1610 Uiso
H18 H 0.7298 0.5324 -0.0598 0.1610 Uiso
H19 H 0.6174 0.4995 -0.0118 0.1610 Uiso
C15 C 0.6987(7) 0.2751(4) -0.0383(4) 0.0612 Uani
H20 H 0.6690 0.2156 -0.0228 0.0740 Uiso
H21 H 0.6119 0.3059 -0.0607 0.0740 Uiso
C16 C 0.7989(10) 0.2599(5) -0.0922(5) 0.1006 Uani
H22 H 0.8213 0.3178 -0.1118 0.1500 Uiso
H23 H 0.7521 0.2208 -0.1284 0.1500 Uiso
H24 H 0.8871 0.2315 -0.0706 0.1500 Uiso
loop_
_atom_site_aniso_label
_atom_site_aniso_U_11
_atom_site_aniso_U_22
_atom_site_aniso_U_33
_atom_site_aniso_U_23
_atom_site_aniso_U_13
_atom_site_aniso_U_12
W1 0.04501(18) 0.03159(14) 0.02191(13) -0.00073(9) 0.00432(10) -0.00541(10)
Cu1 0.0572(5) 0.0362(4) 0.0400(4) -0.0026(3) 0.0125(4) -0.0087(4)
Cu2 0.0604(5) 0.0409(4) 0.0278(4) 0.0004(3) 0.0092(3) 0.0016(4)
Cu3 0.0559(5) 0.0527(4) 0.0241(3) 0.0032(3) 0.0066(3) -0.0038(4)
S1 0.0466(9) 0.0402(8) 0.0285(7) 0.0023(6) 0.0015(6) -0.0061(7)
S2 0.0549(10) 0.0416(8) 0.0330(8) 0.0009(6) 0.0027(7) 0.0052(7)
S3 0.0601(11) 0.0641(11) 0.0388(8) -0.0017(8) 0.0083(8) -0.0257(9)
S4 0.0737(12) 0.0420(8) 0.0322(8) -0.0081(7) 0.0069(8) 0.0051(8)
N1 0.056(4) 0.039(3) 0.040(3) -0.005(2) 0.016(3) -0.003(2)
N2 0.057(4) 0.046(3) 0.030(3) 0.000(2) 0.002(2) 0.001(2)
N3 0.070(4) 0.044(3) 0.056(3) -0.009(3) 0.025(3) -0.014(3)
N4 0.055(3) 0.038(3) 0.043(3) -0.005(2) 0.016(2) -0.002(2)
N5 0.053(3) 0.037(3) 0.037(3) -0.008(2) 0.019(2) -0.003(2)
C1 0.059(4) 0.033(3) 0.042(3) -0.007(3) 0.019(3) -0.009(3)
C2 0.046(4) 0.043(3) 0.034(3) 0.005(3) 0.005(3) 0.006(3)
C3 0.049(4) 0.053(4) 0.045(4) -0.014(3) 0.017(3) -0.010(3)
C4 0.050(4) 0.045(3) 0.043(3) -0.014(3) 0.017(3) -0.009(3)
C5 0.054(4) 0.030(3) 0.028(3) 0.002(2) 0.010(3) 0.009(3)
C6 0.041(4) 0.044(3) 0.049(4) -0.005(3) 0.015(3) -0.004(3)
C7 0.064(5) 0.046(4) 0.031(3) -0.008(3) 0.012(3) -0.003(3)
C8 0.049(4) 0.034(3) 0.031(3) 0.000(3) 0.011(3) 0.006(3)
N1B 0.056 0.039 0.04 -0.005 0.016 -0.003
N4B 0.055 0.038 0.043 -0.005 0.016 -0.002
N5B 0.053 0.037 0.037 -0.008 0.019 -0.003
C3B 0.049 0.053 0.045 -0.014 0.017 -0.01
C4B 0.05 0.045 0.043 -0.014 0.017 -0.009
C5B 0.054 0.03 0.028 0.002 0.01 0.009
C6B 0.041 0.044 0.049 -0.005 0.015 -0.004
C7B 0.064 0.046 0.031 -0.008 0.012 -0.003
C8B 0.049 0.034 0.031 0 0.011 0.006
W1B 0.04501 0.03159 0.02191 -0.00073 0.00432 -0.00541
Cu1B 0.0572 0.0362 0.04 -0.0026 0.0125 -0.0087
Cu2B 0.0604 0.0409 0.0278 0.0004 0.0092 0.0016
Cu3B 0.0559 0.0527 0.0241 0.0032 0.0066 -0.0038
S1B 0.0466 0.0402 0.0285 0.0023 0.0015 -0.0061
S2B 0.0549 0.0416 0.033 0.0009 0.0027 0.0052
S3B 0.0601 0.0641 0.0388 -0.0017 0.0083 -0.0257
S4B 0.0737 0.042 0.0322 -0.0081 0.0069 0.0051
N2B 0.057 0.046 0.03 0 0.002 0.001
N3B 0.07 0.044 0.056 -0.009 0.025 -0.014
C1B 0.059 0.033 0.042 -0.007 0.019 -0.009
C2B 0.046 0.043 0.034 0.005 0.005 0.006
Cu2A 0.0604 0.0409 0.0278 -0.0004 0.0092 -0.0016
Cu2C 0.0604 0.0409 0.0278 -0.0004 0.0092 -0.0016
Cu3A 0.0559 0.0527 0.0241 -0.0032 0.0066 0.0038
Cu3C 0.0559 0.0527 0.0241 -0.0032 0.0066 0.0038
N3A 0.07 0.044 0.056 0.009 0.025 0.014
N3C 0.07 0.044 0.056 0.009 0.025 0.014
C2A 0.046 0.043 0.034 -0.005 0.005 -0.006
C2C 0.046 0.043 0.034 -0.005 0.005 -0.006
N6 0.046(4) 0.043(3) 0.076(4) -0.001(3) 0.006(3) -0.011(3)
C9 0.126(9) 0.114(8) 0.083(6) -0.015(6) 0.020(6) 0.002(6)
C10 0.049(4) 0.061(4) 0.079(5) 0.008(4) 0.019(4) -0.007(3)
C11 0.093(7) 0.075(6) 0.122(8) 0.010(5) -0.036(6) 0.009(5)
C12 0.045(5) 0.083(6) 0.099(6) -0.013(5) -0.013(4) -0.002(4)
C13 0.075(6) 0.046(4) 0.113(6) -0.013(4) 0.031(5) -0.022(4)
C14 0.143(9) 0.052(5) 0.138(8) 0.032(5) 0.053(7) 0.019(5)
C15 0.056(5) 0.044(4) 0.084(5) 0.008(4) 0.011(4) -0.004(3)
C16 0.116(8) 0.077(6) 0.117(7) -0.018(6) 0.045(6) 0.005(6)
loop_
_geom_bond_atom_site_label_1
_geom_bond_atom_site_label_2
_geom_bond_site_symmetry_1
_geom_bond_site_symmetry_2
W1 S1 1_555 1_555
Cu1 S1 1_555 1_555
Cu2 S1 1_555 1_555
Cu3 S2 1_555 1_555
S2 W1 1_555 1_555
S3 W1 1_555 1_555
S4 W1 1_555 1_555
N1 Cu1 1_555 1_555
N2 Cu2 1_555 1_555
N3 C1 1_555 1_555
N4 C8 1_555 1_555
N5 C8 1_555 1_555
C1 Cu1 1_555 1_555
C2 N2 1_555 1_555
C3 N1 1_555 1_555
H1 C3 1_555 1_555
C4 C3 1_555 1_555
H2 C4 1_555 1_555
C5 C4 1_555 1_555
C6 C5 1_555 1_555
H3 C6 1_555 1_555
C7 N1 1_555 1_555
H4 C7 1_555 1_555
C8 C5 1_555 1_555
N6 C10 1_555 1_555
C9 H5 1_555 1_555
H6 C9 1_555 1_555
H7 C9 1_555 1_555
C10 C9 1_555 1_555
H8 C10 1_555 1_555
H9 C10 1_555 1_555
C11 H10 1_555 1_555
H11 C11 1_555 1_555
H12 C11 1_555 1_555
C12 N6 1_555 1_555
H13 C12 1_555 1_555
H14 C12 1_555 1_555
C13 N6 1_555 1_555
H15 C13 1_555 1_555
H16 C13 1_555 1_555
C14 C13 1_555 1_555
H17 C14 1_555 1_555
H18 C14 1_555 1_555
H19 C14 1_555 1_555
C15 N6 1_555 1_555
H20 C15 1_555 1_555
H21 C15 1_555 1_555
C16 C15 1_555 1_555
H22 C16 1_555 1_555
H23 C16 1_555 1_555
H24 C16 1_555 1_555
N1B C3B 1_555 1_555
N4B N5 1_555 1_555
N5B N4 1_555 1_555
C3B H1B 1_555 1_555
C4B C3B 1_555 1_555
H2B C4B 1_555 1_555
C5B C4B 1_555 1_555
C6B C5B 1_555 1_555
H3B C6B 1_555 1_555
C7B N1B 1_555 1_555
H4B C7B 1_555 1_555
C8B N4B 1_555 1_555
W1B S1B 1_555 1_555
Cu1B N1B 1_555 1_555
Cu2B S1B 1_555 1_555
Cu3B S2B 1_555 1_555
S1B Cu1B 1_555 1_555
S2B W1B 1_555 1_555
S3B W1B 1_555 1_555
S4B W1B 1_555 1_555
N2B Cu2B 1_555 1_555
N3B C1B 1_555 1_555
C1B Cu1B 1_555 1_555
C2B N2B 1_555 1_555
Cu2A N3 1_555 1_555
Cu2C N3B 1_555 1_555
Cu3A C2B 1_555 1_555
Cu3C C2 1_555 1_555
N3A Cu2 1_555 1_555
N3C Cu2B 1_555 1_555
C2A Cu3B 1_555 1_555
C2C Cu3 1_555 1_555
Cu1 S2 1_555 1_555
Cu2 S3 1_555 1_555
Cu3 S4 1_555 1_555
C6 C7 1_555 1_555
C11 C12 1_555 1_555
N5B C8B 1_555 1_555
C5B C8B 1_555 1_555
C6B C7B 1_555 1_555
Cu1B S2B 1_555 1_555
Cu2B S3B 1_555 1_555
Cu3B S4B 1_555 1_555

#END
