
#######################################################################
#
#                 Cambridge Crystallographic Data Centre
#                                CCDC 
#
#######################################################################
#
# If this CIF has been generated from an entry in the Cambridge 
# Structural Database, then it will include bibliographic, chemical, 
# crystal, experimental, refinement or atomic coordinate data resulting 
# from the CCDC's data processing and validation procedures.
#
#######################################################################

data_RUVMUR
_chemical_formula_moiety         '(C24 H25 Cl1 Co1 N6 O11 Zn1)n'
_symmetry_cell_setting           orthorhombic
_symmetry_space_group_name_H-M   'P 21 21 21'
_symmetry_Int_Tables_number      19
_space_group_name_Hall           'P 2ac 2ab'
loop_
_symmetry_equiv_pos_site_id
_symmetry_equiv_pos_as_xyz
1 x,y,z
2 1/2-x,-y,1/2+z
3 -x,1/2+y,1/2-z
4 1/2+x,1/2-y,-z
_cell_length_a                   7.1599(9)
_cell_length_b                   39.159(5)
_cell_length_c                   9.7127(12)
_cell_angle_alpha                90
_cell_angle_beta                 90
_cell_angle_gamma                90
_cell_volume                     2723.19
loop_
_atom_site_label
_atom_site_type_symbol
_atom_site_fract_x
_atom_site_fract_y
_atom_site_fract_z
_atom_site_U_iso_or_equiv
_atom_site_thermal_displace_type
C1 C 1.0949(13) 0.1243(2) 0.6926(9) 0.0343 Uani
C2 C 1.0708(12) 0.15496(18) 0.6261(9) 0.0323 Uani
H1 H 1.0328 0.1558 0.5346 0.0390 Uiso
C3 C 1.1055(12) 0.1850(2) 0.7013(8) 0.0303 Uani
C4 C 1.1617(12) 0.1841(2) 0.8372(9) 0.0340 Uani
H2 H 1.1847 0.2041 0.8856 0.0410 Uiso
C5 C 1.1830(12) 0.1524(2) 0.8997(9) 0.0343 Uani
C6 C 1.1497(12) 0.12260(19) 0.8295(9) 0.0307 Uani
H3 H 1.1638 0.1016 0.8730 0.0370 Uiso
C7 C 1.1117(14) 0.0611(2) 0.6644(10) 0.0423 Uani
H4 H 1.1953 0.0562 0.7350 0.0510 Uiso
C8 C 1.0237(15) 0.0385(2) 0.5825(10) 0.0507 Uani
H5 H 1.0335 0.0149 0.5882 0.0610 Uiso
C9 C 0.9387(13) 0.0887(2) 0.5146(9) 0.0350 Uani
H6 H 0.8837 0.1064 0.4657 0.0420 Uiso
C10 C 1.0945(15) 0.2214(2) 0.4889(9) 0.0443 Uani
H7 H 1.1062 0.2048 0.4212 0.0530 Uiso
C11 C 1.0778(14) 0.2559(2) 0.4712(9) 0.0443 Uani
H8 H 1.0746 0.2670 0.3865 0.0540 Uiso
C12 C 1.0732(14) 0.2472(2) 0.6918(9) 0.0393 Uani
H9 H 1.0672 0.2507 0.7864 0.0470 Uiso
C13 C 1.1930(14) 0.1238(2) 1.1299(10) 0.0467 Uani
H10 H 1.1206 0.1049 1.1083 0.0560 Uiso
C14 C 1.2707(15) 0.1304(2) 1.2511(9) 0.0447 Uani
H11 H 1.2619 0.1167 1.3289 0.0540 Uiso
C15 C 1.3443(13) 0.1725(2) 1.1126(9) 0.0390 Uani
H12 H 1.3937 0.1926 1.0773 0.0470 Uiso
C16 C 1.1036(13) 0.3802(2) 0.2647(9) 0.0367 Uani
C17 C 1.0985(13) 0.4147(2) 0.2480(9) 0.0390 Uani
H13 H 1.0611 0.4283 0.3214 0.0470 Uiso
C18 C 1.1478(12) 0.4302(2) 0.1243(10) 0.0367 Uani
C19 C 1.1924(14) 0.4096(2) 0.0112(9) 0.0373 Uani
C20 C 1.1941(14) 0.3749(2) 0.0311(10) 0.0440 Uani
H14 H 1.2235 0.3610 -0.0436 0.0530 Uiso
C21 C 1.1550(13) 0.3594(2) 0.1550(9) 0.0373 Uani
H15 H 1.1628 0.3358 0.1652 0.0450 Uiso
C22 C 1.0529(14) 0.3649(2) 0.4052(11) 0.0447 Uani
C23 C 1.1377(16) 0.4696(2) 0.1245(10) 0.0433 Uani
C24 C 1.2330(14) 0.4236(2) -0.1310(9) 0.0407 Uani
Co1 Co 1.05255(15) 0.32250(2) 0.61794(10) 0.0214 Uani
N1 N 0.9153(11) 0.05644(17) 0.4875(7) 0.0360 Uani
N2 N 1.0534(10) 0.09274(15) 0.6230(7) 0.0317 Uani
N3 N 1.0663(11) 0.27200(16) 0.5988(7) 0.0357 Uani
N4 N 1.0899(10) 0.21670(15) 0.6328(7) 0.0327 Uani
N5 N 1.3666(11) 0.16090(17) 1.2435(7) 0.0383 Uani
N6 N 1.2386(11) 0.14993(16) 1.0425(6) 0.0343 Uani
O1 O 1.0647(10) 0.33338(16) 0.4195(7) 0.0563 Uani
O2 O 1.0047(12) 0.38437(17) 0.4996(7) 0.0670 Uani
O3 O 1.2851(10) 0.48642(14) 0.1239(7) 0.0480 Uani
O4 O 0.9801(11) 0.48163(18) 0.1341(8) 0.0703 Uani
O5 O 1.2156(10) 0.45480(15) -0.1481(6) 0.0493 Uani
O6 O 1.2704(12) 0.40295(15) -0.2263(6) 0.0537 Uani
O7 O 0.4938(9) 0.04922(15) 0.4204(7) 0.0477 Uani
O8 O 1.3052(8) 0.33752(14) 0.6927(6) 0.0363 Uani
Zn1 Zn 0.74231(17) 0.03567(2) 0.34774(9) 0.0366 Uani
Co1C Co 1.55255(15) 0.17750(2) 1.38206(10) 0.0214 Uani
N5C N 0.8666(11) 0.33910(17) 0.7565(7) 0.0383 Uani
O3B O 0.7149(10) -0.01358(14) 0.3761(7) 0.0480 Uani
O5C O 0.7156(10) 0.04520(15) 0.1481(6) 0.0493 Uani
Zn1B Zn 1.25769(17) 0.53567(2) 0.15226(9) 0.0366 Uani
Zn1C Zn 1.24231(17) 0.46433(2) -0.34774(9) 0.0366 Uani
Cl1 Cl 0.6491(5) 0.23310(8) 0.9145(4) 0.0870 Uani
O9 O 0.2145(13) 0.0349(2) 0.2550(8) 0.0913 Uani
O10 O 0.1430(11) 0.04215(18) 0.9866(7) 0.0703 Uani
O11 O 0.5870(13) 0.79480(18) 0.6239(9) 0.0920 Uani
loop_
_atom_site_aniso_label
_atom_site_aniso_U_11
_atom_site_aniso_U_22
_atom_site_aniso_U_33
_atom_site_aniso_U_23
_atom_site_aniso_U_13
_atom_site_aniso_U_12
C1 0.045(6) 0.024(5) 0.034(5) -0.005(4) 0.001(4) 0.001(4)
C2 0.041(5) 0.024(4) 0.032(5) -0.001(4) -0.008(5) -0.005(4)
C3 0.038(6) 0.025(5) 0.028(5) 0.003(4) -0.002(4) 0.001(4)
C4 0.044(5) 0.026(5) 0.032(5) 0.000(4) -0.001(4) 0.005(4)
C5 0.043(6) 0.028(5) 0.032(5) -0.004(4) -0.009(4) 0.008(4)
C6 0.038(5) 0.019(4) 0.035(5) 0.000(4) -0.011(4) 0.005(4)
C7 0.062(7) 0.029(5) 0.036(5) 0.001(4) -0.024(5) 0.005(5)
C8 0.073(7) 0.037(5) 0.042(6) 0.006(5) -0.021(5) 0.011(5)
C9 0.045(6) 0.031(5) 0.029(5) 0.001(4) -0.008(5) -0.005(5)
C10 0.073(8) 0.037(6) 0.023(5) -0.002(4) 0.001(5) 0.001(5)
C11 0.070(8) 0.043(6) 0.020(5) 0.002(4) -0.005(5) 0.013(5)
C12 0.058(7) 0.038(5) 0.022(5) 0.005(4) -0.001(5) -0.006(5)
C13 0.065(7) 0.038(5) 0.037(6) 0.011(5) -0.013(5) -0.017(5)
C14 0.052(6) 0.048(6) 0.034(5) 0.009(4) -0.001(6) -0.019(5)
C15 0.056(6) 0.033(5) 0.028(5) 0.003(4) -0.010(5) -0.003(4)
C16 0.044 0.042 0.024 0.005 -0.002 -0.005
C17 0.052 0.044 0.021 -0.003 0.001 0.004
C18 0.037 0.026 0.047 0.01 -0.007 0.006
C19 0.055 0.038 0.019 0.002 0.003 -0.011
C20 0.054 0.045 0.033 -0.009 0.002 -0.001
C21 0.048 0.031 0.033 0.007 -0.006 -0.007
C22 0.042 0.04 0.052 -0.019 -0.002 -0.001
C23 0.059 0.042 0.029 0.005 0.006 0.023
C24 0.047 0.048 0.027 -0.001 0 -0.003
Co1 0.0364 0.0157 0.012 0.0015 0.0069 -0.0005
N1 0.052(5) 0.027(4) 0.029(4) -0.002(3) -0.009(4) 0.000(4)
N2 0.042(4) 0.026(4) 0.027(4) -0.005(3) -0.004(4) 0.004(3)
N3 0.050(5) 0.033(4) 0.024(4) -0.006(3) -0.001(4) 0.006(4)
N4 0.048(5) 0.021(4) 0.029(4) 0.000(3) -0.007(4) 0.001(3)
N5 0.062(5) 0.030(4) 0.023(4) 0.001(3) -0.005(4) -0.005(4)
N6 0.048(5) 0.032(4) 0.023(4) -0.003(3) -0.009(4) -0.002(4)
O1 0.071 0.045 0.053 0.012 -0.01 -0.005
O2 0.114 0.053 0.034 -0.004 0.01 -0.013
O3 0.071 0.029 0.044 0.001 -0.013 -0.009
O4 0.072 0.062 0.077 0.021 0.021 0.02
O5 0.084 0.036 0.028 0.007 -0.013 -0.005
O6 0.083 0.049 0.029 -0.006 0.018 -0.005
O7 0.050(4) 0.045(4) 0.048(4) 0.000(3) 0.000(3) 0.004(3)
O8 0.043 0.028 0.038 -0.01 0.014 -0.005
Zn1 0.0558(7) 0.0289(5) 0.0251(5) 0.0002(4) -0.0084(6) -0.0020(6)
Co1C 0.0364 0.0157 0.012 0.0015 -0.0069 0.0005
N5C 0.062 0.03 0.023 0.001 0.005 0.005
O3B 0.071(5) 0.029(3) 0.044(4) -0.001(3) -0.013(4) 0.009(3)
O5C 0.084 0.036 0.028 0.007 0.013 0.005
Zn1B 0.0558 0.0289 0.0251 -0.0002 -0.0084 0.002
Zn1C 0.0558 0.0289 0.0251 0.0002 0.0084 0.002
Cl1 0.110(3) 0.070(2) 0.081(2) 0.0017(18) -0.010(2) 0.0123(19)
O9 0.098(7) 0.114(7) 0.062(5) -0.001(5) -0.010(5) -0.036(6)
O10 0.096(6) 0.065(5) 0.050(5) 0.014(4) -0.014(4) -0.008(5)
O11 0.134(8) 0.068(5) 0.074(6) -0.013(5) -0.026(6) -0.009(5)
loop_
_geom_bond_atom_site_label_1
_geom_bond_atom_site_label_2
_geom_bond_site_symmetry_1
_geom_bond_site_symmetry_2
C1 C2 1_555 1_555
C2 H1 1_555 1_555
C3 C2 1_555 1_555
C4 C3 1_555 1_555
H2 C4 1_555 1_555
C5 C4 1_555 1_555
C6 C1 1_555 1_555
H3 C6 1_555 1_555
C7 H4 1_555 1_555
C8 C7 1_555 1_555
H5 C8 1_555 1_555
C9 H6 1_555 1_555
C10 H7 1_555 1_555
C11 C10 1_555 1_555
H8 C11 1_555 1_555
C12 H9 1_555 1_555
C13 H10 1_555 1_555
C14 C13 1_555 1_555
H11 C14 1_555 1_555
C15 H12 1_555 1_555
C16 C17 1_555 1_555
C17 H13 1_555 1_555
C18 C17 1_555 1_555
C19 C18 1_555 1_555
C20 C19 1_555 1_555
H14 C20 1_555 1_555
C21 C16 1_555 1_555
H15 C21 1_555 1_555
C22 C16 1_555 1_555
C23 C18 1_555 1_555
C24 C19 1_555 1_555
Co1 N3 1_555 1_555
N1 C8 1_555 1_555
N2 C1 1_555 1_555
N3 C11 1_555 1_555
N4 C3 1_555 1_555
N5 C14 1_555 1_555
N6 C5 1_555 1_555
O1 C22 1_555 1_555
O2 C22 1_555 1_555
O3 C23 1_555 1_555
O4 C23 1_555 1_555
O5 C24 1_555 1_555
O6 C24 1_555 1_555
O7 Zn1 1_555 1_555
O8 Co1 1_555 1_555
Zn1 N1 1_555 1_555
Co1C N5 1_555 1_555
N5C Co1 1_555 1_555
O3B Zn1 1_555 1_555
O5C Zn1 1_555 1_555
Zn1B O3 1_555 1_555
Zn1C O5 1_555 1_555
C5 C6 1_555 1_555
C7 N2 1_555 1_555
C9 N1 1_555 1_555
C9 N2 1_555 1_555
C10 N4 1_555 1_555
C12 N3 1_555 1_555
C12 N4 1_555 1_555
C13 N6 1_555 1_555
C15 N5 1_555 1_555
C15 N6 1_555 1_555
C20 C21 1_555 1_555
Co1 O1 1_555 1_555

#END
