
#######################################################################
#
#                 Cambridge Crystallographic Data Centre
#                                CCDC 
#
#######################################################################
#
# If this CIF has been generated from an entry in the Cambridge 
# Structural Database, then it will include bibliographic, chemical, 
# crystal, experimental, refinement or atomic coordinate data resulting 
# from the CCDC's data processing and validation procedures.
#
#######################################################################

data_KIJPUQ
_chemical_formula_moiety         '(C17 H19 Cd1 Cl2 N3 O14)n'
_symmetry_cell_setting           orthorhombic
_symmetry_space_group_name_H-M   'P 21 21 21'
_symmetry_Int_Tables_number      19
_space_group_name_Hall           'P 2ac 2ab'
loop_
_symmetry_equiv_pos_site_id
_symmetry_equiv_pos_as_xyz
1 x,y,z
2 1/2-x,-y,1/2+z
3 -x,1/2+y,1/2-z
4 1/2+x,1/2-y,-z
_cell_length_a                   9.7355(10)
_cell_length_b                   10.0002(10)
_cell_length_c                   26.295(3)
_cell_angle_alpha                90
_cell_angle_beta                 90
_cell_angle_gamma                90
_cell_volume                     2560
loop_
_atom_site_label
_atom_site_type_symbol
_atom_site_fract_x
_atom_site_fract_y
_atom_site_fract_z
_atom_site_U_iso_or_equiv
_atom_site_thermal_displace_type
Cd1 Cd 0.46862(7) 0.31342(6) -0.13384(2) 0.0358 Uani
N1 N 0.3506(8) 0.1529(7) -0.0879(2) 0.0367 Uani
C1 C 0.3059(9) 0.1847(10) -0.0402(3) 0.0377 Uani
H1 H 0.3258 0.2692 -0.0274 0.0450 Uiso
C2 C 0.2328(10) 0.0975(9) -0.0103(3) 0.0357 Uani
C3 C 0.2515(15) -0.0636(10) -0.0761(4) 0.0637 Uani
H2 H 0.2385 -0.1500 -0.0882 0.0770 Uiso
C4 C 0.3232(12) 0.0292(10) -0.1044(3) 0.0487 Uani
H3 H 0.3541 0.0046 -0.1365 0.0590 Uiso
C5 C 0.2000(14) -0.0264(9) -0.0301(4) 0.0577 Uani
H4 H 0.1429 -0.0841 -0.0122 0.0700 Uiso
C6 C 0.1759(11) 0.1390(9) 0.0401(3) 0.0380 Uani
O1 O 0.0452(7) 0.3678(7) 0.1920(2) 0.0517 Uani
C7 C 0.2616(9) 0.2188(9) 0.0765(3) 0.0350 Uani
C8 C 0.4036(10) 0.2272(10) 0.0732(4) 0.0467 Uani
H5 H 0.4516 0.1841 0.0474 0.0560 Uiso
C9 C 0.4724(11) 0.3027(11) 0.1102(3) 0.0523 Uani
H6 H 0.5679 0.3060 0.1107 0.0630 Uiso
C10 C 0.3971(10) 0.3720(10) 0.1459(3) 0.0427 Uani
H7 H 0.4395 0.4288 0.1691 0.0510 Uiso
C11 C 0.2529(9) 0.3539(8) 0.1461(3) 0.0340 Uani
N2 N 0.1887(7) 0.2763(7) 0.1131(2) 0.0320 Uani
C12 C 0.1605(10) 0.4177(10) 0.1848(3) 0.0413 Uani
O2 O 0.0593(7) 0.1065(6) 0.0514(2) 0.0433 Uani
C13 C 0.2384(12) 0.7574(10) 0.2725(4) 0.0537 Uani
H8 H 0.2527 0.8336 0.2921 0.0640 Uiso
C14 C 0.3006(12) 0.7488(10) 0.2261(4) 0.0560 Uani
H9 H 0.3565 0.8184 0.2150 0.0670 Uiso
C15 C 0.2817(11) 0.6374(10) 0.1952(4) 0.0483 Uani
H10 H 0.3217 0.6317 0.1631 0.0580 Uiso
C16 C 0.2004(9) 0.5349(9) 0.2144(3) 0.0367 Uani
C17 C 0.1421(10) 0.5521(10) 0.2619(3) 0.0417 Uani
H11 H 0.0880 0.4832 0.2747 0.0500 Uiso
N3 N 0.1584(8) 0.6614(8) 0.2907(3) 0.0430 Uani
O3 O 0.6034(9) 0.4893(8) -0.1619(3) 0.0717 Uani
O4 O 0.3098(10) 0.4680(9) -0.1036(3) 0.0800 Uani
H12 H 0.6556 0.5627 -0.1605 0.2280 Uiso
H13 H 0.3645 0.5078 -0.0827 0.2280 Uiso
H14 H 0.2416 0.5305 -0.1090 0.2280 Uiso
H15 H 0.5814 0.4492 -0.1940 0.2280 Uiso
Cd1A Cd 0.03138(7) 0.68658(6) 0.36616(2) 0.0358 Uani
Cd1C Cd -0.03138(7) 0.18658(6) 0.13384(2) 0.0358 Uani
O1C O 0.5452(7) 0.1322(7) -0.1920(2) 0.0517 Uani
N2C N 0.6887(7) 0.2237(7) -0.1131(2) 0.0320 Uani
O2C O 0.5593(7) 0.3935(6) -0.0514(2) 0.0433 Uani
N3A N 0.3416(8) 0.3386(8) -0.2093(3) 0.0430 Uani
Cl1 Cl 0.3154(4) 0.1486(3) 0.26884(14) 0.0810 Uani
O5 O 0.1736(11) 0.1160(15) 0.2711(6) 0.1487 Uani
O6 O 0.3829(13) 0.0870(13) 0.3093(4) 0.1217 Uani
O7 O 0.3464(14) 0.2841(9) 0.2634(4) 0.1143 Uani
O8 O 0.361(2) 0.0977(17) 0.2211(5) 0.1817 Uani
Cl2 Cl 0.6648(4) -0.0646(4) -0.01942(14) 0.0817 Uani
O9 O 0.659(2) -0.0875(16) -0.0709(4) 0.1643 Uani
O10 O 0.576(2) -0.1591(18) 0.0000(8) 0.2307 Uani
O11 O 0.6172(13) 0.0613(9) -0.0088(4) 0.1077 Uani
O12 O 0.7856(18) -0.090(2) 0.0049(8) 0.2550 Uani
O13 O 0.5713(13) -0.0332(16) 0.1527(6) 0.1633 Uani
O14 O 0.303(4) -0.123(2) 0.0903(8) 0.1537 Uani
loop_
_atom_site_aniso_label
_atom_site_aniso_U_11
_atom_site_aniso_U_22
_atom_site_aniso_U_33
_atom_site_aniso_U_23
_atom_site_aniso_U_13
_atom_site_aniso_U_12
Cd1 0.0337(3) 0.0486(4) 0.0252(3) 0.0035(3) -0.0013(3) 0.0053(3)
N1 0.039(4) 0.046(5) 0.025(4) 0.003(3) 0.001(3) -0.002(3)
C1 0.038(5) 0.047(5) 0.028(4) -0.004(4) 0.002(3) 0.005(5)
C2 0.036(5) 0.042(5) 0.029(4) -0.005(4) 0.011(4) 0.000(4)
C3 0.122(11) 0.033(5) 0.036(6) -0.011(5) 0.002(6) -0.004(6)
C4 0.068(7) 0.050(6) 0.028(5) -0.016(4) 0.003(5) 0.010(5)
C5 0.104(10) 0.033(5) 0.036(5) 0.000(4) 0.015(6) -0.014(6)
C6 0.047(6) 0.038(5) 0.029(5) 0.012(4) 0.005(4) 0.003(4)
O1 0.039(4) 0.074(4) 0.042(4) -0.025(3) 0.014(3) -0.021(4)
C7 0.035(5) 0.050(6) 0.020(4) 0.001(3) 0.002(4) 0.000(4)
C8 0.036(5) 0.063(6) 0.041(5) -0.009(4) 0.004(4) -0.001(5)
C9 0.029(4) 0.083(7) 0.045(5) -0.019(5) 0.001(4) 0.000(6)
C10 0.031(5) 0.055(5) 0.042(6) -0.008(4) 0.005(4) -0.006(4)
C11 0.038(5) 0.037(5) 0.027(5) -0.004(3) 0.000(3) -0.004(4)
N2 0.032(4) 0.046(4) 0.018(3) -0.002(3) 0.001(3) -0.002(3)
C12 0.036(6) 0.051(6) 0.037(5) -0.006(4) -0.002(4) -0.007(5)
O2 0.043(5) 0.055(4) 0.032(3) -0.007(3) 0.012(3) -0.009(3)
C13 0.056(7) 0.045(6) 0.060(7) -0.012(5) 0.017(6) -0.009(5)
C14 0.068(8) 0.041(6) 0.059(7) 0.003(5) 0.013(6) -0.017(5)
C15 0.049(6) 0.052(6) 0.044(6) 0.002(5) 0.019(5) 0.003(5)
C16 0.038(5) 0.037(5) 0.035(5) -0.010(4) 0.004(4) 0.002(4)
C17 0.042(6) 0.048(6) 0.035(5) -0.006(4) 0.004(4) -0.004(5)
N3 0.039(4) 0.056(5) 0.034(4) -0.018(4) 0.009(3) 0.000(4)
O3 0.063(5) 0.071(5) 0.081(5) 0.015(4) -0.011(5) -0.019(4)
O4 0.083(6) 0.105(7) 0.052(5) -0.008(4) -0.003(4) 0.054(6)
Cd1A 0.0337 0.0486 0.0252 -0.0035 0.0013 0.0053
Cd1C 0.0337 0.0486 0.0252 0.0035 0.0013 -0.0053
O1C 0.039 0.074 0.042 -0.025 -0.014 0.021
N2C 0.032 0.046 0.018 -0.002 -0.001 0.002
O2C 0.043 0.055 0.032 -0.007 -0.012 0.009
N3A 0.039 0.056 0.034 0.018 -0.009 0
Cl1 0.086(3) 0.069(2) 0.088(2) 0.0214(18) -0.019(2) -0.0044(17)
O5 0.110(8) 0.169(9) 0.167(9) 0.030(8) -0.018(7) -0.013(7)
O6 0.112(7) 0.131(8) 0.122(7) 0.055(6) -0.031(6) 0.006(6)
O7 0.138(8) 0.083(6) 0.122(7) 0.000(5) -0.020(6) 0.002(6)
O8 0.213(11) 0.176(9) 0.156(9) -0.038(8) 0.025(8) 0.010(8)
Cl2 0.095(3) 0.070(2) 0.080(2) 0.0080(18) -0.0103(19) 0.003(2)
O9 0.202(10) 0.154(9) 0.137(8) -0.044(7) -0.008(8) 0.002(8)
O10 0.236(12) 0.202(11) 0.254(12) 0.008(9) 0.033(9) -0.031(9)
O11 0.131(8) 0.075(6) 0.117(6) -0.003(5) 0.020(6) 0.007(6)
O12 0.225(13) 0.277(13) 0.263(13) -0.030(10) -0.038(10) 0.037(10)
O13 0.090(10) 0.211(15) 0.189(13) 0.092(11) -0.014(8) -0.056(10)
O14 0.29(4) 0.083(14) 0.088(15) 0.013(11) -0.07(2) 0.047(19)
loop_
_geom_bond_atom_site_label_1
_geom_bond_atom_site_label_2
_geom_bond_site_symmetry_1
_geom_bond_site_symmetry_2
Cd1 N1 1_555 1_555
N1 C1 1_555 1_555
C1 H1 1_555 1_555
C2 C1 1_555 1_555
C3 H2 1_555 1_555
C4 N1 1_555 1_555
H3 C4 1_555 1_555
C5 C2 1_555 1_555
H4 C5 1_555 1_555
C6 C2 1_555 1_555
O1 C12 1_555 1_555
C7 C6 1_555 1_555
C8 C7 1_555 1_555
H5 C8 1_555 1_555
C9 C8 1_555 1_555
H6 C9 1_555 1_555
C10 C9 1_555 1_555
H7 C10 1_555 1_555
C11 C10 1_555 1_555
N2 C7 1_555 1_555
C12 C11 1_555 1_555
O2 C6 1_555 1_555
C13 H8 1_555 1_555
C14 C13 1_555 1_555
H9 C14 1_555 1_555
C15 C14 1_555 1_555
H10 C15 1_555 1_555
C16 C12 1_555 1_555
C17 C16 1_555 1_555
H11 C17 1_555 1_555
N3 C13 1_555 1_555
O3 Cd1 1_555 1_555
O4 Cd1 1_555 1_555
H12 O3 1_555 1_555
H13 O4 1_555 1_555
H14 O4 1_555 1_555
H15 O3 1_555 1_555
Cl1 O5 1_555 1_555
O6 Cl1 1_555 1_555
O7 Cl1 1_555 1_555
O8 Cl1 1_555 1_555
Cl2 O9 1_555 1_555
O10 Cl2 1_555 1_555
O11 Cl2 1_555 1_555
O12 Cl2 1_555 1_555
Cd1A N3 1_555 1_555
Cd1C O1 1_555 1_555
O1C Cd1 1_555 1_555
N2C Cd1 1_555 1_555
O2C Cd1 1_555 1_555
N3A Cd1 1_555 1_555
C3 C4 1_555 1_555
C3 C5 1_555 1_555
C11 N2 1_555 1_555
N2 Cd1C 1_555 1_555
O2 Cd1C 1_555 1_555
C15 C16 1_555 1_555
C17 N3 1_555 1_555

#END
