
#######################################################################
#
#                 Cambridge Crystallographic Data Centre
#                                CCDC 
#
#######################################################################
#
# If this CIF has been generated from an entry in the Cambridge 
# Structural Database, then it will include bibliographic, chemical, 
# crystal, experimental, refinement or atomic coordinate data resulting 
# from the CCDC's data processing and validation procedures.
#
#######################################################################

data_NIVZOJ
_chemical_formula_moiety         '(C64 H102 Ag8 N48 O126 P4 W36 2-)n'
_symmetry_cell_setting           triclinic
_symmetry_space_group_name_H-M   'P -1'
_symmetry_Int_Tables_number      2
_space_group_name_Hall           '-P 1'
loop_
_symmetry_equiv_pos_site_id
_symmetry_equiv_pos_as_xyz
1 x,y,z
2 -x,-y,-z
_cell_length_a                   14.5056(8)
_cell_length_b                   14.8981(8)
_cell_length_c                   22.9934(13)
_cell_angle_alpha                90.5340(10)
_cell_angle_beta                 92.8440(10)
_cell_angle_gamma                104.1530(10)
_cell_volume                     4811.07
loop_
_atom_site_label
_atom_site_type_symbol
_atom_site_fract_x
_atom_site_fract_y
_atom_site_fract_z
W1 W -0.17705(5) -0.11944(6) 0.12795(3)
W2 W -0.37503(5) -0.44421(5) 0.13425(3)
W3 W -0.41241(5) -0.20292(5) 0.13246(3)
W4 W -0.38419(5) -0.19206(6) 0.39720(3)
W5 W -0.02735(5) -0.05794(5) 0.26281(3)
W6 W -0.34558(5) -0.43278(6) 0.39854(4)
W7 W -0.13963(6) -0.35953(6) 0.12571(4)
W8 W -0.52153(5) -0.24741(6) 0.27369(3)
W9 W 0.00995(5) -0.29873(6) 0.26066(4)
W10 W -0.48267(5) -0.48847(6) 0.27547(4)
W11 W -0.08774(5) -0.33468(6) 0.39056(4)
W12 W -0.12722(5) -0.09512(6) 0.39164(3)
W13 W -0.19358(6) 0.08329(6) 0.21736(4)
W14 W -0.29223(6) 0.04796(6) 0.34761(4)
W15 W -0.19248(6) -0.58106(6) 0.34967(4)
W16 W -0.09330(6) -0.54554(6) 0.21932(4)
W17 W -0.32970(6) -0.63517(6) 0.22523(4)
W18 W -0.43219(6) -0.00604(6) 0.22473(4)
Ag1 Ag 0.0000 0.0000 0.0000
Ag2 Ag 1.0000 0.5000 -0.5000
Ag3 Ag 1.2603(2) 0.8873(2) 0.23502(10)
Ag4 Ag 0.92956(13) 0.59066(15) -0.07171(10)
Ag5 Ag 0.51726(11) 0.37814(12) -0.00230(7)
P1 P -0.2762(3) -0.1454(3) 0.2644(2)
P2 P -0.2360(3) -0.4001(3) 0.2644(2)
O1 O -0.3239(8) -0.4021(8) 0.2996(5)
O2 O -0.2521(9) -0.3766(9) 0.2004(6)
O3 O -0.1460(9) -0.3345(9) 0.2933(6)
O4 O -0.2202(9) -0.5018(9) 0.2648(5)
O5 O -0.2820(8) -0.1785(8) 0.1992(5)
O6 O -0.1781(9) -0.1377(9) 0.2928(5)
O7 O -0.3557(9) -0.2059(9) 0.2980(6)
O8 O -0.2903(9) -0.0426(10) 0.2644(6)
O9 O -0.1156(11) -0.0761(11) 0.0690(7)
O10 O -0.2082(10) -0.6378(10) 0.1989(6)
O11 O -0.1857(9) 0.0018(10) 0.3748(6)
O12 O -0.2171(10) -0.3611(10) 0.4084(6)
O13 O -0.1364(10) 0.1854(11) 0.1879(7)
O14 O -0.1692(11) -0.6513(12) 0.4030(7)
O15 O -0.2528(9) -0.1663(9) 0.4082(5)
O16 O -0.0788(11) -0.0583(11) 0.4589(7)
O17 O -0.0103(11) -0.5940(11) 0.1889(7)
O18 O -0.3993(11) -0.7393(11) 0.2011(7)
O19 O -0.3030(9) -0.1470(9) 0.0909(6)
O20 O -0.5260(10) 0.0370(11) 0.1999(7)
O21 O -0.0794(9) -0.1032(9) 0.1872(5)
O22 O -0.4541(9) -0.4924(10) 0.0791(6)
O23 O 0.0850(9) 0.0049(10) 0.2480(6)
O24 O -0.4850(9) -0.2554(9) 0.1948(6)
O25 O -0.3458(9) -0.5557(10) 0.1628(6)
O26 O -0.3734(10) -0.4647(10) 0.4669(6)
O27 O -0.0909(9) 0.0359(9) 0.2515(5)
O28 O -0.4987(10) -0.2173(10) 0.0770(6)
O29 O 0.0209(9) -0.3143(10) 0.3427(6)
O30 O -0.1756(10) -0.2446(10) 0.1187(6)
O31 O -0.3828(10) -0.3180(10) 0.1241(6)
O32 O -0.0875(10) -0.2074(10) 0.3892(6)
O33 O -0.5099(10) -0.3700(10) 0.2859(6)
O34 O -0.4155(10) -0.1837(10) 0.4661(6)
O35 O 0.1282(10) -0.2745(10) 0.2470(6)
O36 O -0.4540(9) -0.4534(9) 0.1983(6)
O37 O -0.0251(9) -0.0391(9) 0.3451(6)
O38 O -0.4193(9) -0.5840(9) 0.2638(6)
O39 O -0.4948(9) -0.1139(9) 0.2633(6)
O40 O -0.1232(10) -0.4730(10) 0.1568(6)
O41 O -0.6423(10) -0.2653(11) 0.2654(7)
O42 O -0.3663(9) -0.0630(9) 0.3785(6)
O43 O -0.0491(9) -0.3005(10) 0.1848(6)
O44 O -0.4009(10) 0.0580(10) 0.2990(6)
O45 O -0.5051(9) -0.2232(10) 0.3550(6)
O46 O -0.0735(12) -0.3568(12) 0.0660(7)
O47 O -0.0328(10) -0.3340(10) 0.4570(6)
O48 O -0.2923(10) -0.5357(10) 0.3796(6)
O49 O -0.5946(10) -0.5574(10) 0.2670(6)
O50 O -0.0981(10) -0.5960(10) 0.2966(6)
O51 O -0.2955(11) 0.1270(11) 0.4012(7)
O52 O -0.0179(9) -0.4307(9) 0.2521(6)
O53 O 0.0012(10) -0.1793(10) 0.2733(6)
O54 O -0.2855(9) -0.6657(9) 0.2999(6)
O55 O -0.2131(9) 0.1233(9) 0.2949(6)
O56 O -0.1088(10) -0.4651(10) 0.3737(6)
O57 O -0.1972(9) -0.0027(9) 0.1572(6)
O58 O -0.3251(10) 0.0861(10) 0.1970(6)
O59 O -0.2625(9) -0.4216(9) 0.0911(5)
O60 O -0.4192(9) -0.0871(9) 0.1615(6)
O61 O -0.3838(9) -0.3226(10) 0.3958(6)
O62 O -0.4618(9) -0.4962(9) 0.3575(6)
C1 C 0.899(4) 0.496(4) -0.383(2)
H1 H 0.9503 0.4966 -0.3568
C2 C 0.818(2) 0.529(3) -0.4523(12)
H2 H 0.7985 0.5435 -0.4895
C3 C 0.769(4) 0.448(3) -0.3136(17)
H3 H 0.7004 0.4410 -0.3139
H4 H 0.7801 0.3864 -0.3097
C4 C 0.815(3) 0.506(3) -0.2631(15)
H5 H 0.8784 0.4969 -0.2580
H6 H 0.8216 0.5697 -0.2746
C5 C 0.7791(19) 0.4996(19) -0.2101(11)
H7 H 0.7110 0.4924 -0.2157
H8 H 0.8048 0.5588 -0.1902
C6 C 0.7942(14) 0.4251(17) -0.1688(9)
H9 H 0.7687 0.3646 -0.1871
H10 H 0.8619 0.4325 -0.1603
C7 C 0.7181(16) 0.4934(17) -0.0359(10)
H11 H 0.7212 0.5323 -0.0036
C8 C 0.6644(15) 0.3867(16) -0.0992(9)
H12 H 0.6246 0.3362 -0.1191
C9 C 0.363(2) 0.220(2) 0.0466(10)
H13 H 0.3443 0.1975 0.0090
C10 C 0.4282(13) 0.3068(14) 0.1131(9)
H14 H 0.4665 0.3571 0.1341
C11 C 0.3672(15) 0.2083(16) 0.1987(9)
H15 H 0.3971 0.2625 0.2227
H16 H 0.3997 0.1602 0.2080
C12 C 0.2625(14) 0.1752(16) 0.2128(9)
H17 H 0.2301 0.1280 0.1844
H18 H 0.2584 0.1476 0.2509
C13 C 0.2144(15) 0.2529(16) 0.2122(9)
H19 H 0.2273 0.2851 0.2496
H20 H 0.2417 0.2963 0.1828
C14 C 0.1095(14) 0.2237(15) 0.2001(9)
H21 H 0.0827 0.1734 0.2255
H22 H 0.0820 0.2751 0.2089
C15 C 0.0806(18) 0.201(2) 0.0497(11)
H23 H 0.0852 0.2233 0.0120
C16 C 0.049(2) 0.114(2) 0.1182(12)
H24 H 0.0261 0.0620 0.1404
C17 C 1.1448(19) 0.870(3) 0.1172(10)
H25 H 1.0890 0.8389 0.1338
C18 C 1.293(2) 0.934(2) 0.1067(12)
H26 H 1.3590 0.9547 0.1121
C19 C 1.287(3) 0.982(3) 0.0033(15)
H27 H 1.2503 1.0238 -0.0113
H28 H 1.3510 1.0185 0.0135
C20 C 1.292(3) 0.922(3) -0.0408(14)
H29 H 1.3115 0.9577 -0.0751
H30 H 1.2292 0.8828 -0.0496
C21 C 1.3607(17) 0.859(2) -0.0297(12)
H31 H 1.3672 0.8486 0.0117
H32 H 1.4230 0.8890 -0.0430
C22 C 1.3198(16) 0.7654(18) -0.0635(11)
H33 H 1.3164 0.7772 -0.1048
H34 H 1.3633 0.7260 -0.0569
C23 C 1.1455(17) 0.689(2) -0.0785(11)
H35 H 1.1393 0.6956 -0.1186
C24 C 1.1211(16) 0.653(2) 0.0084(13)
H36 H 1.0913 0.6245 0.0407
C25 C 1.3533(17) 0.9292(17) 0.3615(11)
H37 H 1.4155 0.9360 0.3506
C26 C 1.206(2) 0.901(2) 0.3582(13)
H38 H 1.1432 0.8803 0.3441
C27 C 1.378(3) 0.951(4) 0.4718(19)
H39 H 1.3491 0.9893 0.4959
H40 H 1.3717 0.8923 0.4912
C28 C 1.4763(17) 0.994(2) 0.4705(12)
H41 H 1.4841 1.0543 0.4530
H42 H 1.5065 0.9570 0.4465
N1 N 0.8947(13) 0.5041(14) -0.4436(8)
N2 N 0.806(2) 0.488(2) -0.3725(15)
N3 N 0.766(2) 0.532(2) -0.4085(13)
N4 N 0.6452(12) 0.4228(15) -0.0512(8)
N5 N 0.7894(13) 0.5007(13) -0.0755(7)
N6 N 0.7477(11) 0.4313(11) -0.1155(7)
N7 N 0.4172(14) 0.3007(14) 0.0573(9)
N8 N 0.3347(18) 0.1706(18) 0.0956(10)
N9 N 0.3774(12) 0.2317(13) 0.1363(8)
N10 N 0.0846(12) 0.1943(12) 0.1411(8)
N11 N 0.104(2) 0.2551(16) 0.0951(9)
N12 N 0.0482(15) 0.109(2) 0.0609(9)
N13 N 1.1534(19) 0.899(2) 0.0607(10)
N14 N 1.244(2) 0.9403(17) 0.0582(10)
N15 N 1.2372(18) 0.8968(18) 0.1457(10)
N16 N 1.2248(12) 0.7160(15) -0.0461(8)
N17 N 1.2110(15) 0.697(2) 0.0094(10)
N18 N 1.0761(13) 0.6525(13) -0.0445(8)
N19 N 1.2750(16) 0.9138(15) 0.3266(9)
N20 N 1.2326(17) 0.921(2) 0.4171(11)
N21 N 1.3234(17) 0.9330(17) 0.4178(11)
C25A C 1.6467(17) 1.0708(17) 0.6385(11)
H37A H 1.5845 1.0640 0.6494
C26A C 1.794(2) 1.099(2) 0.6418(13)
H38A H 1.8568 1.1197 0.6559
C27A C 1.622(3) 1.049(4) 0.5282(19)
H39A H 1.6509 1.0107 0.5041
H40A H 1.6283 1.1077 0.5088
C28A C 1.5237(17) 1.006(2) 0.5295(12)
H41A H 1.5159 0.9457 0.5470
H42A H 1.4935 1.0430 0.5535
N19A N 1.7250(16) 1.0862(15) 0.6734(9)
N20A N 1.7674(17) 1.079(2) 0.5829(11)
N21A N 1.6766(17) 1.0670(17) 0.5822(11)
W1A W 0.17705(5) 0.11944(6) -0.12795(3)
W2A W 0.37503(5) 0.44421(5) -0.13425(3)
W3A W 0.41241(5) 0.20292(5) -0.13246(3)
W4A W 0.38419(5) 0.19206(6) -0.39720(3)
W5A W 0.02735(5) 0.05794(5) -0.26281(3)
W6A W 0.34558(5) 0.43278(6) -0.39854(4)
W7A W 0.13963(6) 0.35953(6) -0.12571(4)
W8A W 0.52153(5) 0.24741(6) -0.27369(3)
W9A W -0.00995(5) 0.29873(6) -0.26066(4)
W10A W 0.48267(5) 0.48847(6) -0.27547(4)
W11A W 0.08774(5) 0.33468(6) -0.39056(4)
W12A W 0.12722(5) 0.09512(6) -0.39164(3)
W13A W 0.19358(6) -0.08329(6) -0.21736(4)
W14A W 0.29223(6) -0.04796(6) -0.34761(4)
W15A W 0.19248(6) 0.58106(6) -0.34967(4)
W16A W 0.09330(6) 0.54554(6) -0.21932(4)
W17A W 0.32970(6) 0.63517(6) -0.22523(4)
W18A W 0.43219(6) 0.00604(6) -0.22473(4)
Ag3A Ag -1.2603(2) -0.8873(2) -0.23502(10)
Ag4A Ag -0.92956(13) -0.59066(15) 0.07171(10)
Ag5A Ag -0.51726(11) -0.37814(12) 0.00230(7)
P1A P 0.2762(3) 0.1454(3) -0.2644(2)
P2A P 0.2360(3) 0.4001(3) -0.2644(2)
O1A O 0.3239(8) 0.4021(8) -0.2996(5)
O2A O 0.2521(9) 0.3766(9) -0.2004(6)
O3A O 0.1460(9) 0.3345(9) -0.2933(6)
O4A O 0.2202(9) 0.5018(9) -0.2648(5)
O5A O 0.2820(8) 0.1785(8) -0.1992(5)
O6A O 0.1781(9) 0.1377(9) -0.2928(5)
O7A O 0.3557(9) 0.2059(9) -0.2980(6)
O8A O 0.2903(9) 0.0426(10) -0.2644(6)
O9A O 0.1156(11) 0.0761(11) -0.0690(7)
O10A O 0.2082(10) 0.6378(10) -0.1989(6)
O11A O 0.1857(9) -0.0018(10) -0.3748(6)
O12A O 0.2171(10) 0.3611(10) -0.4084(6)
O13A O 0.1364(10) -0.1854(11) -0.1879(7)
O14A O 0.1692(11) 0.6513(12) -0.4030(7)
O15A O 0.2528(9) 0.1663(9) -0.4082(5)
O16A O 0.0788(11) 0.0583(11) -0.4589(7)
O17A O 0.0103(11) 0.5940(11) -0.1889(7)
O18A O 0.3993(11) 0.7393(11) -0.2011(7)
O19A O 0.3030(9) 0.1470(9) -0.0909(6)
O20A O 0.5260(10) -0.0370(11) -0.1999(7)
O21A O 0.0794(9) 0.1032(9) -0.1872(5)
O22A O 0.4541(9) 0.4924(10) -0.0791(6)
O23A O -0.0850(9) -0.0049(10) -0.2480(6)
O24A O 0.4850(9) 0.2554(9) -0.1948(6)
O25A O 0.3458(9) 0.5557(10) -0.1628(6)
O26A O 0.3734(10) 0.4647(10) -0.4669(6)
O27A O 0.0909(9) -0.0359(9) -0.2515(5)
O28A O 0.4987(10) 0.2173(10) -0.0770(6)
O29A O -0.0209(9) 0.3143(10) -0.3427(6)
O30A O 0.1756(10) 0.2446(10) -0.1187(6)
O31A O 0.3828(10) 0.3180(10) -0.1241(6)
O32A O 0.0875(10) 0.2074(10) -0.3892(6)
O33A O 0.5099(10) 0.3700(10) -0.2859(6)
O34A O 0.4155(10) 0.1837(10) -0.4661(6)
O35A O -0.1282(10) 0.2745(10) -0.2470(6)
O36A O 0.4540(9) 0.4534(9) -0.1983(6)
O37A O 0.0251(9) 0.0391(9) -0.3451(6)
O38A O 0.4193(9) 0.5840(9) -0.2638(6)
O39A O 0.4948(9) 0.1139(9) -0.2633(6)
O40A O 0.1232(10) 0.4730(10) -0.1568(6)
O41A O 0.6423(10) 0.2653(11) -0.2654(7)
O42A O 0.3663(9) 0.0630(9) -0.3785(6)
O43A O 0.0491(9) 0.3005(10) -0.1848(6)
O44A O 0.4009(10) -0.0580(10) -0.2990(6)
O45A O 0.5051(9) 0.2232(10) -0.3550(6)
O46A O 0.0735(12) 0.3568(12) -0.0660(7)
O47A O 0.0328(10) 0.3340(10) -0.4570(6)
O48A O 0.2923(10) 0.5357(10) -0.3796(6)
O49A O 0.5946(10) 0.5574(10) -0.2670(6)
O50A O 0.0981(10) 0.5960(10) -0.2966(6)
O51A O 0.2955(11) -0.1270(11) -0.4012(7)
O52A O 0.0179(9) 0.4307(9) -0.2521(6)
O53A O -0.0012(10) 0.1793(10) -0.2733(6)
O54A O 0.2855(9) 0.6657(9) -0.2999(6)
O55A O 0.2131(9) -0.1233(9) -0.2949(6)
O56A O 0.1088(10) 0.4651(10) -0.3737(6)
O57A O 0.1972(9) 0.0027(9) -0.1572(6)
O58A O 0.3251(10) -0.0861(10) -0.1970(6)
O59A O 0.2625(9) 0.4216(9) -0.0911(5)
O60A O 0.4192(9) 0.0871(9) -0.1615(6)
O61A O 0.3838(9) 0.3226(10) -0.3958(6)
O62A O 0.4618(9) 0.4962(9) -0.3575(6)
C1A C -0.899(4) -0.496(4) 0.383(2)
H1A H -0.9503 -0.4966 0.3568
C2A C -0.818(2) -0.529(3) 0.4523(12)
H2A H -0.7985 -0.5435 0.4895
C3A C -0.769(4) -0.448(3) 0.3136(17)
H3A H -0.7004 -0.4410 0.3139
H4A H -0.7801 -0.3864 0.3097
C4A C -0.815(3) -0.506(3) 0.2631(15)
H5A H -0.8784 -0.4969 0.2580
H6A H -0.8216 -0.5697 0.2746
C5A C -0.7791(19) -0.4996(19) 0.2101(11)
H7A H -0.7110 -0.4924 0.2157
H8A H -0.8048 -0.5588 0.1902
C6A C -0.7942(14) -0.4251(17) 0.1688(9)
H9A H -0.7687 -0.3646 0.1871
H10A H -0.8619 -0.4325 0.1603
C7A C -0.7181(16) -0.4934(17) 0.0359(10)
H11A H -0.7212 -0.5323 0.0036
C8A C -0.6644(15) -0.3867(16) 0.0992(9)
H12A H -0.6246 -0.3362 0.1191
C9A C -0.363(2) -0.220(2) -0.0466(10)
H13A H -0.3443 -0.1975 -0.0090
C10A C -0.4282(13) -0.3068(14) -0.1131(9)
H14A H -0.4665 -0.3571 -0.1341
C11A C -0.3672(15) -0.2083(16) -0.1987(9)
H15A H -0.3971 -0.2625 -0.2227
H16A H -0.3997 -0.1602 -0.2080
C12A C -0.2625(14) -0.1752(16) -0.2128(9)
H17A H -0.2301 -0.1280 -0.1844
H18A H -0.2584 -0.1476 -0.2509
C13A C -0.2144(15) -0.2529(16) -0.2122(9)
H19A H -0.2273 -0.2851 -0.2496
H20A H -0.2417 -0.2963 -0.1828
C14A C -0.1095(14) -0.2237(15) -0.2001(9)
H21A H -0.0827 -0.1734 -0.2255
H22A H -0.0820 -0.2751 -0.2089
C15A C -0.0806(18) -0.201(2) -0.0497(11)
H23A H -0.0852 -0.2233 -0.0120
C16A C -0.049(2) -0.114(2) -0.1182(12)
H24A H -0.0261 -0.0620 -0.1404
C17A C -1.1448(19) -0.870(3) -0.1172(10)
H25A H -1.0890 -0.8389 -0.1338
C18A C -1.293(2) -0.934(2) -0.1067(12)
H26A H -1.3590 -0.9547 -0.1121
C19A C -1.287(3) -0.982(3) -0.0033(15)
H27A H -1.2503 -1.0238 0.0113
H28A H -1.3510 -1.0185 -0.0135
C20A C -1.292(3) -0.922(3) 0.0408(14)
H29A H -1.3115 -0.9577 0.0751
H30A H -1.2292 -0.8828 0.0496
C21A C -1.3607(17) -0.859(2) 0.0297(12)
H31A H -1.3672 -0.8486 -0.0117
H32A H -1.4230 -0.8890 0.0430
C22A C -1.3198(16) -0.7654(18) 0.0635(11)
H33A H -1.3164 -0.7772 0.1048
H34A H -1.3633 -0.7260 0.0569
C23A C -1.1455(17) -0.689(2) 0.0785(11)
H35A H -1.1393 -0.6956 0.1186
C24A C -1.1211(16) -0.653(2) -0.0084(13)
H36A H -1.0913 -0.6245 -0.0407
N1A N -0.8947(13) -0.5041(14) 0.4436(8)
N2A N -0.806(2) -0.488(2) 0.3725(15)
N3A N -0.766(2) -0.532(2) 0.4085(13)
N4A N -0.6452(12) -0.4228(15) 0.0512(8)
N5A N -0.7894(13) -0.5007(13) 0.0755(7)
N6A N -0.7477(11) -0.4313(11) 0.1155(7)
N7A N -0.4172(14) -0.3007(14) -0.0573(9)
N8A N -0.3347(18) -0.1706(18) -0.0956(10)
N9A N -0.3774(12) -0.2317(13) -0.1363(8)
N10A N -0.0846(12) -0.1943(12) -0.1411(8)
N11A N -0.104(2) -0.2551(16) -0.0951(9)
N12A N -0.0482(15) -0.109(2) -0.0609(9)
N13A N -1.1534(19) -0.899(2) -0.0607(10)
N14A N -1.244(2) -0.9403(17) -0.0582(10)
N15A N -1.2372(18) -0.8968(18) -0.1457(10)
N16A N -1.2248(12) -0.7160(15) 0.0461(8)
N17A N -1.2110(15) -0.697(2) -0.0094(10)
N18A N -1.0761(13) -0.6525(13) 0.0445(8)
Ag2_2 Ag -1.0000 -0.5000 0.5000
Ag3_2 Ag 0.2603(2) -0.1127(2) 0.23502(10)
Ag3A_2 Ag -0.2603(2) 0.1127(2) -0.23502(10)
Ag3A_3 Ag 1.7397(2) 1.1127(2) 0.76498(10)
Ag4_2 Ag -0.07044(13) -0.40934(15) -0.07171(10)
Ag4A_2 Ag 0.07044(13) 0.40934(15) 0.07171(10)
Ag5_2 Ag -0.48274(11) -0.62186(12) -0.00230(7)
Ag5A_2 Ag 0.48274(11) 0.62186(12) 0.00230(7)
O22_2 O 0.5459(9) 0.5076(10) 0.0791(6)
O22A_2 O -0.5459(9) -0.5076(10) -0.0791(6)
O35_2 O 1.1282(10) 0.7255(10) 0.2470(6)
O35A_2 O -1.1282(10) -0.7255(10) -0.2470(6)
N1A_2 N 1.1053(13) 0.4959(14) -0.5564(8)
N11_2 N -0.896(2) -0.7449(16) 0.0951(9)
N11A_2 N 0.896(2) 0.7449(16) -0.0951(9)
N19A_2 N -1.2750(16) -0.9138(15) -0.3266(9)
C29 C 0.353(3) 0.329(3) 0.407(2)
H43 H 0.3513 0.3494 0.4469
H44 H 0.3551 0.3821 0.3820
C30 C 0.272(3) 0.259(3) 0.3915(19)
H45 H 0.2218 0.2896 0.3838
H46 H 0.2849 0.2344 0.3542
C31 C 0.231(3) 0.180(3) 0.4233(17)
H47 H 0.2069 0.2001 0.4585
H48 H 0.2800 0.1485 0.4348
C32 C 0.157(2) 0.119(2) 0.3911(16)
H49 H 0.1420 0.0590 0.4087
H50 H 0.1747 0.1124 0.3514
C33 C -0.0144(18) 0.2379(18) 0.3572(12)
H51 H -0.0420 0.2729 0.3315
C34 C 0.007(2) 0.160(2) 0.4306(15)
H52 H 0.0007 0.1276 0.4653
N22 N 0.4539(15) 0.2422(14) 0.3505(8)
N23 N 0.4389(13) 0.2943(12) 0.3998(8)
C35 C 0.5183(16) 0.3030(14) 0.4401(8)
H53 H 0.5268 0.3338 0.4760
N24 N 0.5823(15) 0.2562(18) 0.4158(11)
C36 C 0.5425(16) 0.2187(18) 0.3604(11)
H54 H 0.5697 0.1847 0.3351
N25 N 0.075(2) 0.1641(15) 0.3926(12)
N26 N 0.0588(19) 0.213(2) 0.3462(10)
N27 N -0.0512(19) 0.2109(19) 0.4087(12)
O63 O 0.8604(15) 0.1856(15) 0.4959(9)
O64 O 0.5887(17) 0.3851(18) 0.5628(11)
loop_
_geom_bond_atom_site_label_1
_geom_bond_atom_site_label_2
_geom_bond_site_symmetry_1
_geom_bond_site_symmetry_2
W1 O5 1_555 1_555
W2 O2 1_555 1_555
W3 O5 1_555 1_555
W4 O7 1_555 1_555
W5 O6 1_555 1_555
W6 O1 1_555 1_555
W7 O2 1_555 1_555
W8 O7 1_555 1_555
W9 O3 1_555 1_555
W10 O1 1_555 1_555
W11 O3 1_555 1_555
W12 O6 1_555 1_555
W13 O8 1_555 1_555
W14 O8 1_555 1_555
W15 O4 1_555 1_555
W16 O4 1_555 1_555
W17 O4 1_555 1_555
W18 O8 1_555 1_555
Ag1 O9 1_555 1_555
Ag2 N1 1_555 1_555
Ag3 N15 1_555 1_555
Ag4 N5 1_555 1_555
Ag5 N4 1_555 1_555
P1 O5 1_555 1_555
P2 O1 1_555 1_555
O2 P2 1_555 1_555
O3 P2 1_555 1_555
O4 P2 1_555 1_555
O6 P1 1_555 1_555
O7 P1 1_555 1_555
O8 P1 1_555 1_555
O9 W1 1_555 1_555
O10 W16 1_555 1_555
O11 W12 1_555 1_555
O12 W6 1_555 1_555
O13 W13 1_555 1_555
O14 W15 1_555 1_555
O15 W4 1_555 1_555
O16 W12 1_555 1_555
O17 W16 1_555 1_555
O18 W17 1_555 1_555
O19 W1 1_555 1_555
O20 W18 1_555 1_555
O21 W1 1_555 1_555
O22 W2 1_555 1_555
O23 W5 1_555 1_555
O24 W3 1_555 1_555
O25 W2 1_555 1_555
O26 W6 1_555 1_555
O27 W5 1_555 1_555
O28 W3 1_555 1_555
O29 W9 1_555 1_555
O30 W1 1_555 1_555
O31 W2 1_555 1_555
O32 W11 1_555 1_555
O33 W8 1_555 1_555
O34 W4 1_555 1_555
O35 W9 1_555 1_555
O36 W2 1_555 1_555
O37 W5 1_555 1_555
O38 W10 1_555 1_555
O39 W8 1_555 1_555
O40 W7 1_555 1_555
O41 W8 1_555 1_555
O42 W4 1_555 1_555
O43 W7 1_555 1_555
O44 W14 1_555 1_555
O45 W4 1_555 1_555
O46 W7 1_555 1_555
O47 W11 1_555 1_555
O48 W6 1_555 1_555
O49 W10 1_555 1_555
O50 W15 1_555 1_555
O51 W14 1_555 1_555
O52 W9 1_555 1_555
O53 W5 1_555 1_555
O54 W15 1_555 1_555
O55 W13 1_555 1_555
O56 W11 1_555 1_555
O57 W1 1_555 1_555
O58 W13 1_555 1_555
O59 W2 1_555 1_555
O60 W3 1_555 1_555
O61 W4 1_555 1_555
O62 W6 1_555 1_555
C1 H1 1_555 1_555
C2 H2 1_555 1_555
C3 H3 1_555 1_555
H4 C3 1_555 1_555
C4 C3 1_555 1_555
H5 C4 1_555 1_555
H6 C4 1_555 1_555
C5 C4 1_555 1_555
H7 C5 1_555 1_555
H8 C5 1_555 1_555
C6 C5 1_555 1_555
H9 C6 1_555 1_555
H10 C6 1_555 1_555
C7 H11 1_555 1_555
C8 H12 1_555 1_555
C9 H13 1_555 1_555
C10 H14 1_555 1_555
C11 H15 1_555 1_555
H16 C11 1_555 1_555
C12 C11 1_555 1_555
H17 C12 1_555 1_555
H18 C12 1_555 1_555
C13 C12 1_555 1_555
H19 C13 1_555 1_555
H20 C13 1_555 1_555
C14 C13 1_555 1_555
H21 C14 1_555 1_555
H22 C14 1_555 1_555
C15 H23 1_555 1_555
C16 H24 1_555 1_555
C17 H25 1_555 1_555
C18 H26 1_555 1_555
C19 H27 1_555 1_555
H28 C19 1_555 1_555
C20 C19 1_555 1_555
H29 C20 1_555 1_555
H30 C20 1_555 1_555
C21 C20 1_555 1_555
H31 C21 1_555 1_555
H32 C21 1_555 1_555
C22 C21 1_555 1_555
H33 C22 1_555 1_555
H34 C22 1_555 1_555
C23 H35 1_555 1_555
C24 H36 1_555 1_555
C25 H37 1_555 1_555
C26 H38 1_555 1_555
C27 H39 1_555 1_555
H40 C27 1_555 1_555
C28 C27 1_555 1_555
H41 C28 1_555 1_555
H42 C28 1_555 1_555
N1 C1 1_555 1_555
N2 C1 1_555 1_555
N3 C2 1_555 1_555
N4 C7 1_555 1_555
N5 C7 1_555 1_555
N6 C6 1_555 1_555
N7 Ag5 1_555 1_555
N8 C9 1_555 1_555
N9 C10 1_555 1_555
N10 C14 1_555 1_555
N11 C15 1_555 1_555
N12 Ag1 1_555 1_555
N13 C17 1_555 1_555
N14 C18 1_555 1_555
N15 C17 1_555 1_555
N16 C22 1_555 1_555
N17 C24 1_555 1_555
N18 Ag4 1_555 1_555
N19 Ag3 1_555 1_555
N20 C26 1_555 1_555
N21 C25 1_555 1_555
C29 H43 1_555 1_555
H44 C29 1_555 1_555
C30 C29 1_555 1_555
H45 C30 1_555 1_555
H46 C30 1_555 1_555
C31 C30 1_555 1_555
H47 C31 1_555 1_555
H48 C31 1_555 1_555
C32 C31 1_555 1_555
H49 C32 1_555 1_555
H50 C32 1_555 1_555
C33 H51 1_555 1_555
C34 H52 1_555 1_555
N22 N23 1_555 1_555
N23 C29 1_555 1_555
C35 N23 1_555 1_555
H53 C35 1_555 1_555
N24 C35 1_555 1_555
C36 N22 1_555 1_555
H54 C36 1_555 1_555
N25 C32 1_555 1_555
N26 C33 1_555 1_555
N27 C33 1_555 1_555
C25A H37A 1_555 1_555
C26A H38A 1_555 1_555
C27A H39A 1_555 1_555
H40A C27A 1_555 1_555
C28A C28 1_555 1_555
H41A C28A 1_555 1_555
H42A C28A 1_555 1_555
N19A C25A 1_555 1_555
N20A C26A 1_555 1_555
N21A C25A 1_555 1_555
W1A O5A 1_555 1_555
W2A O2A 1_555 1_555
W3A O5A 1_555 1_555
W4A O7A 1_555 1_555
W5A O6A 1_555 1_555
W6A O1A 1_555 1_555
W7A O2A 1_555 1_555
W8A O7A 1_555 1_555
W9A O3A 1_555 1_555
W10A O1A 1_555 1_555
W11A O3A 1_555 1_555
W12A O6A 1_555 1_555
W13A O8A 1_555 1_555
W14A O8A 1_555 1_555
W15A O4A 1_555 1_555
W16A O4A 1_555 1_555
W17A O4A 1_555 1_555
W18A O8A 1_555 1_555
Ag3A N15A 1_555 1_555
Ag4A N5A 1_555 1_555
Ag5A N4A 1_555 1_555
P1A O5A 1_555 1_555
P2A O1A 1_555 1_555
O2A P2A 1_555 1_555
O3A P2A 1_555 1_555
O4A P2A 1_555 1_555
O6A P1A 1_555 1_555
O7A P1A 1_555 1_555
O8A P1A 1_555 1_555
O9A Ag1 1_555 1_555
O10A W16A 1_555 1_555
O11A W12A 1_555 1_555
O12A W6A 1_555 1_555
O13A W13A 1_555 1_555
O14A W15A 1_555 1_555
O15A W4A 1_555 1_555
O16A W12A 1_555 1_555
O17A W16A 1_555 1_555
O18A W17A 1_555 1_555
O19A W1A 1_555 1_555
O20A W18A 1_555 1_555
O21A W1A 1_555 1_555
O22A W2A 1_555 1_555
O23A W5A 1_555 1_555
O24A W3A 1_555 1_555
O25A W2A 1_555 1_555
O26A W6A 1_555 1_555
O27A W5A 1_555 1_555
O28A W3A 1_555 1_555
O29A W9A 1_555 1_555
O30A W1A 1_555 1_555
O31A W2A 1_555 1_555
O32A W11A 1_555 1_555
O33A W8A 1_555 1_555
O34A W4A 1_555 1_555
O35A W9A 1_555 1_555
O36A W2A 1_555 1_555
O37A W5A 1_555 1_555
O38A W10A 1_555 1_555
O39A W8A 1_555 1_555
O40A W7A 1_555 1_555
O41A W8A 1_555 1_555
O42A W4A 1_555 1_555
O43A W7A 1_555 1_555
O44A W14A 1_555 1_555
O45A W4A 1_555 1_555
O46A W7A 1_555 1_555
O47A W11A 1_555 1_555
O48A W6A 1_555 1_555
O49A W10A 1_555 1_555
O50A W15A 1_555 1_555
O51A W14A 1_555 1_555
O52A W9A 1_555 1_555
O53A W5A 1_555 1_555
O54A W15A 1_555 1_555
O55A W13A 1_555 1_555
O56A W11A 1_555 1_555
O57A W1A 1_555 1_555
O58A W13A 1_555 1_555
O59A W2A 1_555 1_555
O60A W3A 1_555 1_555
O61A W4A 1_555 1_555
O62A W6A 1_555 1_555
C1A H1A 1_555 1_555
C2A H2A 1_555 1_555
C3A H3A 1_555 1_555
H4A C3A 1_555 1_555
C4A C3A 1_555 1_555
H5A C4A 1_555 1_555
H6A C4A 1_555 1_555
C5A C4A 1_555 1_555
H7A C5A 1_555 1_555
H8A C5A 1_555 1_555
C6A C5A 1_555 1_555
H9A C6A 1_555 1_555
H10A C6A 1_555 1_555
C7A H11A 1_555 1_555
C8A H12A 1_555 1_555
C9A H13A 1_555 1_555
C10A H14A 1_555 1_555
C11A H15A 1_555 1_555
H16A C11A 1_555 1_555
C12A C11A 1_555 1_555
H17A C12A 1_555 1_555
H18A C12A 1_555 1_555
C13A C12A 1_555 1_555
H19A C13A 1_555 1_555
H20A C13A 1_555 1_555
C14A C13A 1_555 1_555
H21A C14A 1_555 1_555
H22A C14A 1_555 1_555
C15A H23A 1_555 1_555
C16A H24A 1_555 1_555
C17A H25A 1_555 1_555
C18A H26A 1_555 1_555
C19A H27A 1_555 1_555
H28A C19A 1_555 1_555
C20A C19A 1_555 1_555
H29A C20A 1_555 1_555
H30A C20A 1_555 1_555
C21A C20A 1_555 1_555
H31A C21A 1_555 1_555
H32A C21A 1_555 1_555
C22A C21A 1_555 1_555
H33A C22A 1_555 1_555
H34A C22A 1_555 1_555
C23A H35A 1_555 1_555
C24A H36A 1_555 1_555
N1A C1A 1_555 1_555
N2A C1A 1_555 1_555
N3A C2A 1_555 1_555
N4A C7A 1_555 1_555
N5A C7A 1_555 1_555
N6A C6A 1_555 1_555
N7A Ag5A 1_555 1_555
N8A C9A 1_555 1_555
N9A C10A 1_555 1_555
N10A C14A 1_555 1_555
N11A C15A 1_555 1_555
N12A Ag1 1_555 1_555
N13A C17A 1_555 1_555
N14A C18A 1_555 1_555
N15A C17A 1_555 1_555
N16A C22A 1_555 1_555
N17A C24A 1_555 1_555
N18A Ag4A 1_555 1_555
Ag2_2 N1A 1_555 1_555
Ag3_2 O35 1_555 1_555
Ag3A_2 O35A 1_555 1_555
Ag3A_3 N19A 1_555 1_555
Ag4_2 N11A 1_555 1_555
Ag4A_2 N11 1_555 1_555
Ag5_2 O22 1_555 1_555
Ag5A_2 O22A 1_555 1_555
O22_2 Ag5 1_555 1_555
O22A_2 Ag5A 1_555 1_555
O35_2 Ag3 1_555 1_555
O35A_2 Ag3A 1_555 1_555
N1A_2 Ag2 1_555 1_555
N11_2 Ag4A 1_555 1_555
N11A_2 Ag4 1_555 1_555
N19A_2 Ag3A 1_555 1_555
W3 O19 1_555 1_555
W3 O31 1_555 1_555
W5 O21 1_555 1_555
W6 O61 1_555 1_555
W7 O30 1_555 1_555
W7 O59 1_555 1_555
W8 O24 1_555 1_555
W8 O45 1_555 1_555
W9 O43 1_555 1_555
W9 O53 1_555 1_555
W10 O33 1_555 1_555
W10 O36 1_555 1_555
W10 O62 1_555 1_555
W11 O12 1_555 1_555
W11 O29 1_555 1_555
W12 O15 1_555 1_555
W12 O32 1_555 1_555
W12 O37 1_555 1_555
W13 O27 1_555 1_555
W13 O57 1_555 1_555
W14 O11 1_555 1_555
W14 O42 1_555 1_555
W14 O55 1_555 1_555
W15 O48 1_555 1_555
W15 O56 1_555 1_555
W16 O40 1_555 1_555
W16 O50 1_555 1_555
W16 O52 1_555 1_555
W17 O10 1_555 1_555
W17 O25 1_555 1_555
W17 O38 1_555 1_555
W17 O54 1_555 1_555
W18 O39 1_555 1_555
W18 O44 1_555 1_555
W18 O58 1_555 1_555
W18 O60 1_555 1_555
C2 N1 1_555 1_555
C3 N2 1_555 1_555
C8 N4 1_555 1_555
C8 N6 1_555 1_555
C9 N7 1_555 1_555
C10 N7 1_555 1_555
C11 N9 1_555 1_555
C15 N12 1_555 1_555
C16 N10 1_555 1_555
C16 N12 1_555 1_555
C18 N15 1_555 1_555
C19 N14 1_555 1_555
C23 N16 1_555 1_555
C23 N18 1_555 1_555
C24 N18 1_555 1_555
C25 N19 1_555 1_555
C26 N19 1_555 1_555
C27 N21 1_555 1_555
N2 N3 1_555 1_555
N5 N6 1_555 1_555
N8 N9 1_555 1_555
N10 N11 1_555 1_555
N13 N14 1_555 1_555
N16 N17 1_555 1_555
N20 N21 1_555 1_555
C34 N25 1_555 1_555
C34 N27 1_555 1_555
N24 C36 1_555 1_555
N25 N26 1_555 1_555
C26A N19A 1_555 1_555
C27A C28A 1_555 1_555
C27A N21A 1_555 1_555
N20A N21A 1_555 1_555
W1A O9A 1_555 1_555
W3A O19A 1_555 1_555
W3A O31A 1_555 1_555
W5A O21A 1_555 1_555
W6A O61A 1_555 1_555
W7A O30A 1_555 1_555
W7A O59A 1_555 1_555
W8A O24A 1_555 1_555
W8A O45A 1_555 1_555
W9A O43A 1_555 1_555
W9A O53A 1_555 1_555
W10A O33A 1_555 1_555
W10A O36A 1_555 1_555
W10A O62A 1_555 1_555
W11A O12A 1_555 1_555
W11A O29A 1_555 1_555
W12A O15A 1_555 1_555
W12A O32A 1_555 1_555
W12A O37A 1_555 1_555
W13A O27A 1_555 1_555
W13A O57A 1_555 1_555
W14A O11A 1_555 1_555
W14A O42A 1_555 1_555
W14A O55A 1_555 1_555
W15A O48A 1_555 1_555
W15A O56A 1_555 1_555
W16A O40A 1_555 1_555
W16A O50A 1_555 1_555
W16A O52A 1_555 1_555
W17A O10A 1_555 1_555
W17A O25A 1_555 1_555
W17A O38A 1_555 1_555
W17A O54A 1_555 1_555
W18A O39A 1_555 1_555
W18A O44A 1_555 1_555
W18A O58A 1_555 1_555
W18A O60A 1_555 1_555
C2A N1A 1_555 1_555
C3A N2A 1_555 1_555
C8A N4A 1_555 1_555
C8A N6A 1_555 1_555
C9A N7A 1_555 1_555
C10A N7A 1_555 1_555
C11A N9A 1_555 1_555
C15A N12A 1_555 1_555
C16A N10A 1_555 1_555
C16A N12A 1_555 1_555
C18A N15A 1_555 1_555
C19A N14A 1_555 1_555
C23A N16A 1_555 1_555
C23A N18A 1_555 1_555
C24A N18A 1_555 1_555
N2A N3A 1_555 1_555
N5A N6A 1_555 1_555
N8A N9A 1_555 1_555
N10A N11A 1_555 1_555
N13A N14A 1_555 1_555
N16A N17A 1_555 1_555

#END
