
#######################################################################
#
#                 Cambridge Crystallographic Data Centre
#                                CCDC 
#
#######################################################################
#
# If this CIF has been generated from an entry in the Cambridge 
# Structural Database, then it will include bibliographic, chemical, 
# crystal, experimental, refinement or atomic coordinate data resulting 
# from the CCDC's data processing and validation procedures.
#
#######################################################################

data_ALICEE
_chemical_formula_moiety         '(C4 H4 Cu3 N6 1+)n'
_symmetry_cell_setting           tetragonal
_symmetry_space_group_name_H-M   'I 41 2 2'
_symmetry_Int_Tables_number      98
_space_group_name_Hall           'I 4bw 2bw'
loop_
_symmetry_equiv_pos_site_id
_symmetry_equiv_pos_as_xyz
1 x,y,z
2 -y,1/2+x,1/4+z
3 -x,-y,z
4 y,1/2-x,1/4+z
5 x,1/2-y,1/4-z
6 -x,1/2+y,1/4-z
7 y,x,-z
8 -y,-x,-z
9 1/2+x,1/2+y,1/2+z
10 1/2-y,x,3/4+z
11 1/2-x,1/2-y,1/2+z
12 1/2+y,-x,3/4+z
13 1/2+x,-y,3/4-z
14 1/2-x,y,3/4-z
15 1/2+y,1/2+x,1/2-z
16 1/2-y,1/2-x,1/2-z
_cell_length_a                   19.9156(2)
_cell_length_b                   19.9156(2)
_cell_length_c                   3.2237(3)
_cell_angle_alpha                90
_cell_angle_beta                 90
_cell_angle_gamma                90
_cell_volume                     1278.62
loop_
_atom_site_label
_atom_site_type_symbol
_atom_site_fract_x
_atom_site_fract_y
_atom_site_fract_z
_atom_site_U_iso_or_equiv
_atom_site_thermal_displace_type
Cu1 Cu 1.2500 0.1333(2) -0.1250 0.2253 Uani
N1 N 1.0671(6) 0.0671(6) 0.0000 0.2857 Uani
C1 C 1.1356(6) 0.0498(7) -0.108(7) 0.2920 Uani
H1 H 1.1559 0.0099 -0.1911 0.3510 Uiso
Cu2 Cu 1.0000 0.0000 0.0000 0.2527 Uani
N2 N 1.1614(6) 0.1181(6) -0.041(3) 0.2070 Uani
Cu1C Cu 1.1333(2) 0.2500 0.1250 0.2253 Uani
Cu1B Cu 0.7500 -0.1333(2) -0.1250 0.2253 Uani
Cu1A Cu 0.8667(2) -0.2500 0.1250 0.2253 Uani
N1B N 0.9329(6) -0.0671(6) 0.0000 0.2857 Uani
C1F C 1.0498(7) 0.1356(6) 0.108(7) 0.2920 Uani
C1B C 0.8644(6) -0.0498(7) -0.108(7) 0.2920 Uani
C1G C 0.9502(7) -0.1356(6) 0.108(7) 0.2920 Uani
H1F H 1.0099 0.1559 0.1911 0.3510 Uiso
H1B H 0.8441 -0.0099 -0.1911 0.3510 Uiso
H1G H 0.9901 -0.1559 0.1911 0.3510 Uiso
N2F N 1.1181(6) 0.1614(6) 0.041(3) 0.2070 Uani
N2B N 0.8386(6) -0.1181(6) -0.041(3) 0.2070 Uani
N2G N 0.8819(6) -0.1614(6) 0.041(3) 0.2070 Uani
N2M N 1.3386(6) 0.1181(6) -0.209(3) 0.2070 Uani
N2C N 1.1181(6) 0.3386(6) 0.209(3) 0.2070 Uani
loop_
_atom_site_aniso_label
_atom_site_aniso_U_11
_atom_site_aniso_U_22
_atom_site_aniso_U_33
_atom_site_aniso_U_23
_atom_site_aniso_U_13
_atom_site_aniso_U_12
Cu1 0.320(6) 0.258(5) 0.098(3) 0.000 -0.004(3) 0.000
N1 0.40(3) 0.40(3) 0.057(14) 0.040(14) -0.040(14) 0.09(4)
C1 0.126(15) 0.56(5) 0.19(2) -0.19(3) 0.031(14) -0.16(2)
Cu2 0.320(6) 0.320(6) 0.118(5) 0.000 0.000 -0.051(6)
N2 0.33(2) 0.249(16) 0.042(6) -0.083(9) 0.028(9) 0.166(15)
Cu1C 0.258 0.32 0.098 0.004 0 0
Cu1B 0.32 0.258 0.098 0 0.004 0
Cu1A 0.258 0.32 0.098 -0.004 0 0
N1B 0.4 0.4 0.057 -0.04 0.04 0.09
C1F 0.56 0.126 0.19 -0.031 0.19 -0.16
C1B 0.126 0.56 0.19 0.19 -0.031 -0.16
C1G 0.56 0.126 0.19 0.031 -0.19 -0.16
N2F 0.249 0.33 0.042 -0.028 0.083 0.166
N2B 0.33 0.249 0.042 0.083 -0.028 0.166
N2G 0.249 0.33 0.042 0.028 -0.083 0.166
N2M 0.33 0.249 0.042 0.083 0.028 -0.166
N2C 0.249 0.33 0.042 -0.028 -0.083 -0.166
loop_
_geom_bond_atom_site_label_1
_geom_bond_atom_site_label_2
_geom_bond_site_symmetry_1
_geom_bond_site_symmetry_2
Cu1 N2 1_555 1_555
N1 C1 1_555 1_555
C1 H1 1_555 1_555
Cu2 N1 1_555 1_555
N2 C1 1_555 1_555
Cu1C N2F 1_555 1_555
Cu1B N2B 1_555 1_555
Cu1A N2G 1_555 1_555
N1B Cu2 1_555 1_555
C1F N1 1_555 1_555
C1B N1B 1_555 1_555
C1G N1B 1_555 1_555
H1F C1F 1_555 1_555
H1B C1B 1_555 1_555
H1G C1G 1_555 1_555
N2F N2 1_555 1_555
N2B C1B 1_555 1_555
N2G C1G 1_555 1_555
N2M Cu1 1_555 1_555
N2C Cu1C 1_555 1_555
C1F N2F 1_555 1_555
N2B N2G 1_555 1_555

#END
