
#######################################################################
#
#                 Cambridge Crystallographic Data Centre
#                                CCDC 
#
#######################################################################
#
# If this CIF has been generated from an entry in the Cambridge 
# Structural Database, then it will include bibliographic, chemical, 
# crystal, experimental, refinement or atomic coordinate data resulting 
# from the CCDC's data processing and validation procedures.
#
#######################################################################

data_JOXMUG
_chemical_formula_moiety         '(C24 H16 Cu1 In1 N4 O8)n'
_symmetry_cell_setting           orthorhombic
_symmetry_space_group_name_H-M   'F d d d'
_symmetry_Int_Tables_number      70
_space_group_name_Hall           '-F 2uv 2vw'
loop_
_symmetry_equiv_pos_site_id
_symmetry_equiv_pos_as_xyz
1 x,y,z
2 1/4-x,1/4-y,z
3 x,1/4-y,1/4-z
4 1/4-x,y,1/4-z
5 x,1/2+y,1/2+z
6 1/4-x,3/4-y,1/2+z
7 x,3/4-y,3/4-z
8 1/4-x,1/2+y,3/4-z
9 1/2+x,y,1/2+z
10 3/4-x,1/4-y,1/2+z
11 1/2+x,1/4-y,3/4-z
12 3/4-x,y,3/4-z
13 1/2+x,1/2+y,z
14 3/4-x,3/4-y,z
15 1/2+x,3/4-y,1/4-z
16 3/4-x,1/2+y,1/4-z
17 -x,-y,-z
18 3/4+x,3/4+y,-z
19 -x,3/4+y,3/4+z
20 3/4+x,-y,3/4+z
21 -x,1/2-y,1/2-z
22 3/4+x,1/4+y,1/2-z
23 -x,1/4+y,1/4+z
24 3/4+x,1/2-y,1/4+z
25 1/2-x,-y,1/2-z
26 1/4+x,3/4+y,1/2-z
27 1/2-x,3/4+y,1/4+z
28 1/4+x,-y,1/4+z
29 1/2-x,1/2-y,-z
30 1/4+x,1/4+y,-z
31 1/2-x,1/4+y,3/4+z
32 1/4+x,1/2-y,3/4+z
_cell_length_a                   12.2035(3)
_cell_length_b                   22.5755(6)
_cell_length_c                   24.7498(5)
_cell_angle_alpha                90
_cell_angle_beta                 90
_cell_angle_gamma                90
_cell_volume                     6818.57
loop_
_atom_site_label
_atom_site_type_symbol
_atom_site_fract_x
_atom_site_fract_y
_atom_site_fract_z
_atom_site_U_iso_or_equiv
_atom_site_thermal_displace_type
In1 In 0.3750 0.3750 -0.1250 0.0120 Uani
Cu1 Cu 0.6250 0.1250 0.1250 0.0163 Uani
O1 O 0.5139(3) 0.32849(17) -0.07881(15) 0.0167 Uani
O2 O 0.3429(3) 0.30418(18) -0.06239(15) 0.0188 Uani
N1 N 0.5509(4) 0.1831(2) 0.0741(2) 0.0267 Uani
C1 C 0.6178(6) 0.2244(4) 0.0525(4) 0.0517 Uani
H1 H 0.6903 0.2278 0.0662 0.0620 Uiso
C2 C 0.5859(6) 0.2623(3) 0.0113(3) 0.0433 Uani
H2 H 0.6358 0.2905 -0.0031 0.0520 Uiso
C3 C 0.4811(5) 0.2583(2) -0.0084(2) 0.0180 Uani
C4 C 0.4104(5) 0.2180(3) 0.0142(2) 0.0193 Uani
H3 H 0.3366 0.2154 0.0021 0.0230 Uiso
C5 C 0.4488(5) 0.1810(2) 0.0552(2) 0.0180 Uani
H4 H 0.3996 0.1529 0.0704 0.0210 Uiso
C6 C 0.4445(5) 0.2993(2) -0.0524(2) 0.0173 Uani
O1A O 0.7361(3) -0.07849(17) -0.07881(15) 0.0167 Uani
O2A O 0.9071(3) -0.05418(18) -0.06239(15) 0.0188 Uani
N1A N 0.6991(4) 0.0669(2) 0.0741(2) 0.0267 Uani
C1A C 0.6322(6) 0.0256(4) 0.0525(4) 0.0517 Uani
H1A H 0.5597 0.0222 0.0662 0.0620 Uiso
C2A C 0.6641(6) -0.0123(3) 0.0113(3) 0.0433 Uani
H2A H 0.6142 -0.0405 -0.0031 0.0520 Uiso
C3A C 0.7689(5) -0.0083(2) -0.0084(2) 0.0180 Uani
C4A C 0.8396(5) 0.0320(3) 0.0142(2) 0.0193 Uani
H3A H 0.9134 0.0346 0.0021 0.0230 Uiso
C5A C 0.8012(5) 0.0690(2) 0.0552(2) 0.0180 Uani
H4A H 0.8504 0.0971 0.0704 0.0210 Uiso
C6A C 0.8055(5) -0.0493(2) -0.0524(2) 0.0173 Uani
O1B O 0.5139(3) -0.07849(17) 0.32881(15) 0.0167 Uani
O2B O 0.3429(3) -0.05418(18) 0.31239(15) 0.0188 Uani
N1B N 0.5509(4) 0.0669(2) 0.1759(2) 0.0267 Uani
C1B C 0.6178(6) 0.0256(4) 0.1975(4) 0.0517 Uani
H1B H 0.6903 0.0222 0.1838 0.0620 Uiso
C2B C 0.5859(6) -0.0123(3) 0.2387(3) 0.0433 Uani
H2B H 0.6358 -0.0405 0.2531 0.0520 Uiso
C3B C 0.4811(5) -0.0083(2) 0.2584(2) 0.0180 Uani
C4B C 0.4104(5) 0.0320(3) 0.2358(2) 0.0193 Uani
H3B H 0.3366 0.0346 0.2479 0.0230 Uiso
C5B C 0.4488(5) 0.0690(2) 0.1948(2) 0.0180 Uani
H4B H 0.3996 0.0971 0.1796 0.0210 Uiso
C6B C 0.4445(5) -0.0493(2) 0.3024(2) 0.0173 Uani
O1C O 0.7361(3) 0.32849(17) 0.32881(15) 0.0167 Uani
O2C O 0.9071(3) 0.30418(18) 0.31239(15) 0.0188 Uani
N1C N 0.6991(4) 0.1831(2) 0.1759(2) 0.0267 Uani
C1C C 0.6322(6) 0.2244(4) 0.1975(4) 0.0517 Uani
H1C H 0.5597 0.2278 0.1838 0.0620 Uiso
C2C C 0.6641(6) 0.2623(3) 0.2387(3) 0.0433 Uani
H2C H 0.6142 0.2905 0.2531 0.0520 Uiso
C3C C 0.7689(5) 0.2583(2) 0.2584(2) 0.0180 Uani
C4C C 0.8396(5) 0.2180(3) 0.2358(2) 0.0193 Uani
H3C H 0.9134 0.2154 0.2479 0.0230 Uiso
C5C C 0.8012(5) 0.1810(2) 0.1948(2) 0.0180 Uani
H4C H 0.8504 0.1529 0.1796 0.0210 Uiso
C6C C 0.8055(5) 0.2993(2) 0.3024(2) 0.0173 Uani
In1A In 0.8750 -0.1250 -0.1250 0.0120 Uani
In1B In 0.3750 -0.1250 0.3750 0.0120 Uani
In1C In 0.8750 0.3750 0.3750 0.0120 Uani
O1F O 0.5139(3) 0.42151(17) -0.17119(15) 0.0167 Uani
O1K O 0.2361(3) 0.32849(17) -0.17119(15) 0.0167 Uani
O1M O 0.2361(3) 0.42151(17) -0.07881(15) 0.0167 Uani
O2F O 0.3429(3) 0.44582(18) -0.18761(15) 0.0188 Uani
O2K O 0.4071(3) 0.30418(18) -0.18761(15) 0.0188 Uani
O2M O 0.4071(3) 0.44582(18) -0.06239(15) 0.0188 Uani
loop_
_atom_site_aniso_label
_atom_site_aniso_U_11
_atom_site_aniso_U_22
_atom_site_aniso_U_33
_atom_site_aniso_U_23
_atom_site_aniso_U_13
_atom_site_aniso_U_12
In1 0.0135(4) 0.0136(4) 0.0090(4) 0.000 0.000 0.000
Cu1 0.0199(9) 0.0162(9) 0.0129(8) 0.000 0.000 0.000
O1 0.0151(19) 0.0184(19) 0.0165(19) 0.0044(16) -0.0018(15) -0.0028(16)
O2 0.0154(19) 0.026(2) 0.015(2) 0.0076(17) -0.0030(16) 0.0020(17)
N1 0.023(3) 0.028(3) 0.029(3) 0.010(2) -0.009(2) -0.006(2)
C1 0.024(4) 0.061(5) 0.070(6) 0.050(5) -0.026(4) -0.021(3)
C2 0.028(4) 0.047(5) 0.055(5) 0.034(4) -0.018(4) -0.020(3)
C3 0.022(3) 0.019(3) 0.013(3) -0.002(2) -0.002(2) -0.002(2)
C4 0.017(3) 0.021(3) 0.020(3) 0.000(2) -0.005(2) 0.000(2)
C5 0.017(3) 0.018(3) 0.019(3) 0.004(2) -0.002(2) -0.005(2)
C6 0.021(3) 0.016(3) 0.015(3) -0.005(2) -0.001(2) 0.000(2)
O1A 0.0151 0.0184 0.0165 -0.0044 0.0018 -0.0028
O2A 0.0154 0.026 0.015 -0.0076 0.003 0.002
N1A 0.023 0.028 0.029 -0.01 0.009 -0.006
C1A 0.024 0.061 0.07 -0.05 0.026 -0.021
C2A 0.028 0.047 0.055 -0.034 0.018 -0.02
C3A 0.022 0.019 0.013 0.002 0.002 -0.002
C4A 0.017 0.021 0.02 0 0.005 0
C5A 0.017 0.018 0.019 -0.004 0.002 -0.005
C6A 0.021 0.016 0.015 0.005 0.001 0
O1B 0.0151 0.0184 0.0165 0.0044 0.0018 0.0028
O2B 0.0154 0.026 0.015 0.0076 0.003 -0.002
N1B 0.023 0.028 0.029 0.01 0.009 0.006
C1B 0.024 0.061 0.07 0.05 0.026 0.021
C2B 0.028 0.047 0.055 0.034 0.018 0.02
C3B 0.022 0.019 0.013 -0.002 0.002 0.002
C4B 0.017 0.021 0.02 0 0.005 0
C5B 0.017 0.018 0.019 0.004 0.002 0.005
C6B 0.021 0.016 0.015 -0.005 0.001 0
O1C 0.0151 0.0184 0.0165 -0.0044 -0.0018 0.0028
O2C 0.0154 0.026 0.015 -0.0076 -0.003 -0.002
N1C 0.023 0.028 0.029 -0.01 -0.009 0.006
C1C 0.024 0.061 0.07 -0.05 -0.026 0.021
C2C 0.028 0.047 0.055 -0.034 -0.018 0.02
C3C 0.022 0.019 0.013 0.002 -0.002 0.002
C4C 0.017 0.021 0.02 0 -0.005 0
C5C 0.017 0.018 0.019 -0.004 -0.002 0.005
C6C 0.021 0.016 0.015 0.005 -0.001 0
In1A 0.0135 0.0136 0.009 0 0 0
In1B 0.0135 0.0136 0.009 0 0 0
In1C 0.0135 0.0136 0.009 0 0 0
O1F 0.0151 0.0184 0.0165 0.0044 0.0018 0.0028
O1K 0.0151 0.0184 0.0165 -0.0044 -0.0018 0.0028
O1M 0.0151 0.0184 0.0165 -0.0044 0.0018 -0.0028
O2F 0.0154 0.026 0.015 0.0076 0.003 -0.002
O2K 0.0154 0.026 0.015 -0.0076 -0.003 -0.002
O2M 0.0154 0.026 0.015 -0.0076 0.003 0.002
loop_
_geom_bond_atom_site_label_1
_geom_bond_atom_site_label_2
_geom_bond_site_symmetry_1
_geom_bond_site_symmetry_2
In1 O1 1_555 1_555
Cu1 N1 1_555 1_555
O1 C6 1_555 1_555
O2 In1 1_555 1_555
N1 C1 1_555 1_555
C1 H1 1_555 1_555
C2 C1 1_555 1_555
H2 C2 1_555 1_555
C3 C2 1_555 1_555
C4 C3 1_555 1_555
H3 C4 1_555 1_555
C5 N1 1_555 1_555
H4 C5 1_555 1_555
C6 O2 1_555 1_555
O1A C6A 1_555 1_555
O2A C6A 1_555 1_555
N1A Cu1 1_555 1_555
C1A N1A 1_555 1_555
H1A C1A 1_555 1_555
C2A C1A 1_555 1_555
H2A C2A 1_555 1_555
C3A C2A 1_555 1_555
C4A C3A 1_555 1_555
H3A C4A 1_555 1_555
C5A N1A 1_555 1_555
H4A C5A 1_555 1_555
C6A C3A 1_555 1_555
O1B C6B 1_555 1_555
O2B C6B 1_555 1_555
N1B Cu1 1_555 1_555
C1B N1B 1_555 1_555
H1B C1B 1_555 1_555
C2B C1B 1_555 1_555
H2B C2B 1_555 1_555
C3B C2B 1_555 1_555
C4B C3B 1_555 1_555
H3B C4B 1_555 1_555
C5B N1B 1_555 1_555
H4B C5B 1_555 1_555
C6B C3B 1_555 1_555
O1C C6C 1_555 1_555
O2C C6C 1_555 1_555
N1C Cu1 1_555 1_555
C1C N1C 1_555 1_555
H1C C1C 1_555 1_555
C2C C1C 1_555 1_555
H2C C2C 1_555 1_555
C3C C2C 1_555 1_555
C4C C3C 1_555 1_555
H3C C4C 1_555 1_555
C5C N1C 1_555 1_555
H4C C5C 1_555 1_555
C6C C3C 1_555 1_555
In1A O1A 1_555 1_555
In1B O1B 1_555 1_555
In1C O1C 1_555 1_555
O1F In1 1_555 1_555
O1K In1 1_555 1_555
O1M In1 1_555 1_555
O2F In1 1_555 1_555
O2K In1 1_555 1_555
O2M In1 1_555 1_555
C3 C6 1_555 1_555
C4 C5 1_555 1_555
O2A In1A 1_555 1_555
C4A C5A 1_555 1_555
O2B In1B 1_555 1_555
C4B C5B 1_555 1_555
O2C In1C 1_555 1_555
C4C C5C 1_555 1_555

#END
