
#######################################################################
#
#                 Cambridge Crystallographic Data Centre
#                                CCDC 
#
#######################################################################
#
# If this CIF has been generated from an entry in the Cambridge 
# Structural Database, then it will include bibliographic, chemical, 
# crystal, experimental, refinement or atomic coordinate data resulting 
# from the CCDC's data processing and validation procedures.
#
#######################################################################

data_JOXNAN
_chemical_formula_moiety         '(C14 H6 Cu2 I2 In1 N2 O8)n'
_symmetry_cell_setting           tetragonal
_symmetry_space_group_name_H-M   'I -4 2 d'
_symmetry_Int_Tables_number      122
_space_group_name_Hall           'I -4 2bw'
loop_
_symmetry_equiv_pos_site_id
_symmetry_equiv_pos_as_xyz
1 x,y,z
2 y,-x,-z
3 -x,-y,z
4 -y,x,-z
5 x,1/2-y,1/4-z
6 -x,1/2+y,1/4-z
7 -y,1/2-x,1/4+z
8 y,1/2+x,1/4+z
9 1/2+x,1/2+y,1/2+z
10 1/2+y,1/2-x,1/2-z
11 1/2-x,1/2-y,1/2+z
12 1/2-y,1/2+x,1/2-z
13 1/2+x,-y,3/4-z
14 1/2-x,y,3/4-z
15 1/2-y,-x,3/4+z
16 1/2+y,x,3/4+z
_cell_length_a                   20.338(3)
_cell_length_b                   20.338(3)
_cell_length_c                   18.381(5)
_cell_angle_alpha                90
_cell_angle_beta                 90
_cell_angle_gamma                90
_cell_volume                     7603.01
loop_
_atom_site_label
_atom_site_type_symbol
_atom_site_fract_x
_atom_site_fract_y
_atom_site_fract_z
_atom_site_U_iso_or_equiv
_atom_site_thermal_displace_type
I1 I -0.38799(3) -0.01603(3) -0.16737(3) 0.0369 Uani
In1 In -0.2500 0.14445(4) -0.6250 0.0257 Uani
Cu1 Cu -0.43714(5) -0.00576(6) -0.30243(5) 0.0348 Uani
O1 O -0.3078(3) 0.1036(3) -0.5364(4) 0.0357 Uani
O2 O -0.2154(3) 0.0489(3) -0.5569(4) 0.0393 Uani
O3 O -0.1848(3) -0.1682(3) -0.4337(3) 0.0343 Uani
O4 O -0.2415(3) -0.1879(3) -0.3338(4) 0.0390 Uani
N1 N -0.3581(4) -0.0233(4) -0.3675(4) 0.0383 Uani
C1 C -0.3413(5) 0.0189(4) -0.4221(5) 0.0347 Uani
H1 H -0.3673 0.0571 -0.4296 0.0420 Uiso
C2 C -0.2875(4) 0.0081(4) -0.4673(4) 0.0283 Uani
C3 C -0.2508(4) -0.0486(4) -0.4567(5) 0.0313 Uani
H2 H -0.2131 -0.0573 -0.4855 0.0370 Uiso
C4 C -0.2711(4) -0.0934(4) -0.4012(4) 0.0290 Uani
C5 C -0.3243(5) -0.0797(4) -0.3596(5) 0.0363 Uani
H3 H -0.3381 -0.1107 -0.3240 0.0440 Uiso
C6 C -0.2679(5) 0.0547(4) -0.5222(5) 0.0333 Uani
C7 C -0.2305(4) -0.1533(4) -0.3870(5) 0.0330 Uani
I1A I -0.01603(3) 0.38799(3) -0.83263(3) 0.0369 Uani
Cu1A Cu -0.00576(6) 0.43714(5) -0.69757(5) 0.0348 Uani
O1A O 0.1036(3) 0.3078(3) -0.4636(4) 0.0357 Uani
O2A O 0.0489(3) 0.2154(3) -0.4431(4) 0.0393 Uani
O3A O -0.1682(3) 0.1848(3) -0.5663(3) 0.0343 Uani
O4A O -0.1879(3) 0.2415(3) -0.6662(4) 0.0390 Uani
N1A N -0.0233(4) 0.3581(4) -0.6325(4) 0.0383 Uani
C1A C 0.0189(4) 0.3413(5) -0.5779(5) 0.0347 Uani
H1A H 0.0571 0.3673 -0.5704 0.0420 Uiso
C2A C 0.0081(4) 0.2875(4) -0.5327(4) 0.0283 Uani
C3A C -0.0486(4) 0.2508(4) -0.5433(5) 0.0313 Uani
H2A H -0.0573 0.2131 -0.5145 0.0370 Uiso
C4A C -0.0934(4) 0.2711(4) -0.5988(4) 0.0290 Uani
C5A C -0.0797(4) 0.3243(5) -0.6404(5) 0.0363 Uani
H3A H -0.1107 0.3381 -0.6760 0.0440 Uiso
C6A C 0.0547(4) 0.2679(5) -0.4778(5) 0.0333 Uani
C7A C -0.1533(4) 0.2305(4) -0.6130(5) 0.0330 Uani
I1H I 0.11201(3) 0.48397(3) -0.66737(3) 0.0369 Uani
I1I I -0.51603(3) -0.11201(3) -0.33263(3) 0.0369 Uani
I1J I -0.11201(3) 0.51603(3) -0.66737(3) 0.0369 Uani
I1K I -0.48397(3) 0.11201(3) -0.33263(3) 0.0369 Uani
In1A In 0.14445(4) 0.2500 -0.3750 0.0257 Uani
In1C In -0.14445(4) -0.2500 -0.3750 0.0257 Uani
Cu1H Cu 0.06286(5) 0.49424(6) -0.80243(5) 0.0348 Uani
Cu1I Cu -0.50576(6) -0.06286(5) -0.19757(5) 0.0348 Uani
Cu1J Cu -0.06286(5) 0.50576(6) -0.80243(5) 0.0348 Uani
Cu1K Cu -0.49424(6) 0.06286(5) -0.19757(5) 0.0348 Uani
O1M O -0.1922(3) 0.1036(3) -0.7136(4) 0.0357 Uani
O2M O -0.2846(3) 0.0489(3) -0.6931(4) 0.0393 Uani
O3N O -0.3318(3) 0.1848(3) -0.6837(3) 0.0343 Uani
O4N O -0.3121(3) 0.2415(3) -0.5838(4) 0.0390 Uani
loop_
_atom_site_aniso_label
_atom_site_aniso_U_11
_atom_site_aniso_U_22
_atom_site_aniso_U_33
_atom_site_aniso_U_23
_atom_site_aniso_U_13
_atom_site_aniso_U_12
I1 0.0295(3) 0.0450(4) 0.0361(3) 0.0065(2) -0.0063(2) -0.0064(2)
In1 0.0243(4) 0.0238(4) 0.0289(4) 0.000 0.0037(3) 0.000
Cu1 0.0336(6) 0.0375(6) 0.0333(5) 0.0068(5) 0.0106(4) 0.0091(4)
O1 0.036(3) 0.032(3) 0.039(3) 0.011(3) 0.005(3) 0.007(3)
O2 0.040(4) 0.028(3) 0.050(4) 0.001(3) 0.005(3) 0.003(3)
O3 0.029(3) 0.025(3) 0.049(3) 0.004(3) 0.007(3) 0.006(2)
O4 0.035(3) 0.037(3) 0.045(3) 0.012(3) -0.002(3) 0.012(3)
N1 0.039(4) 0.041(4) 0.035(4) 0.005(3) 0.019(3) 0.013(3)
C1 0.040(5) 0.026(4) 0.038(4) 0.007(4) 0.013(4) 0.008(3)
C2 0.033(4) 0.026(4) 0.026(3) -0.006(3) 0.001(3) 0.005(3)
C3 0.025(4) 0.038(4) 0.031(4) -0.006(3) 0.010(3) 0.001(3)
C4 0.027(4) 0.033(4) 0.027(4) 0.001(3) 0.004(3) 0.002(3)
C5 0.038(5) 0.027(4) 0.044(5) 0.013(4) 0.007(4) 0.004(4)
C6 0.040(5) 0.023(4) 0.037(4) -0.008(3) 0.001(4) -0.001(3)
C7 0.029(4) 0.029(4) 0.041(5) 0.000(4) 0.006(4) 0.001(3)
I1A 0.045 0.0295 0.0361 -0.0063 -0.0065 0.0064
Cu1A 0.0375 0.0336 0.0333 0.0106 -0.0068 -0.0091
O1A 0.032 0.036 0.039 0.005 -0.011 -0.007
O2A 0.028 0.04 0.05 0.005 -0.001 -0.003
O3A 0.025 0.029 0.049 0.007 -0.004 -0.006
O4A 0.037 0.035 0.045 -0.002 -0.012 -0.012
N1A 0.041 0.039 0.035 0.019 -0.005 -0.013
C1A 0.026 0.04 0.038 0.013 -0.007 -0.008
C2A 0.026 0.033 0.026 0.001 0.006 -0.005
C3A 0.038 0.025 0.031 0.01 0.006 -0.001
C4A 0.033 0.027 0.027 0.004 -0.001 -0.002
C5A 0.027 0.038 0.044 0.007 -0.013 -0.004
C6A 0.023 0.04 0.037 0.001 0.008 0.001
C7A 0.029 0.029 0.041 0.006 0 -0.001
I1H 0.0295 0.045 0.0361 0.0065 -0.0063 -0.0064
I1I 0.045 0.0295 0.0361 -0.0063 -0.0065 0.0064
I1J 0.0295 0.045 0.0361 -0.0065 0.0063 -0.0064
I1K 0.045 0.0295 0.0361 0.0063 0.0065 0.0064
In1A 0.0238 0.0243 0.0289 0.0037 0 0
In1C 0.0238 0.0243 0.0289 -0.0037 0 0
Cu1H 0.0336 0.0375 0.0333 0.0068 0.0106 0.0091
Cu1I 0.0375 0.0336 0.0333 0.0106 -0.0068 -0.0091
Cu1J 0.0336 0.0375 0.0333 -0.0068 -0.0106 0.0091
Cu1K 0.0375 0.0336 0.0333 -0.0106 0.0068 -0.0091
O1M 0.036 0.032 0.039 -0.011 0.005 -0.007
O2M 0.04 0.028 0.05 -0.001 0.005 -0.003
O3N 0.025 0.029 0.049 -0.007 -0.004 0.006
O4N 0.037 0.035 0.045 0.002 -0.012 0.012
loop_
_geom_bond_atom_site_label_1
_geom_bond_atom_site_label_2
_geom_bond_site_symmetry_1
_geom_bond_site_symmetry_2
I1 Cu1 1_555 1_555
In1 O1 1_555 1_555
Cu1 N1 1_555 1_555
O1 C6 1_555 1_555
O2 In1 1_555 1_555
O3 C7 1_555 1_555
O4 C7 1_555 1_555
N1 C1 1_555 1_555
C1 H1 1_555 1_555
C2 C1 1_555 1_555
C3 C2 1_555 1_555
H2 C3 1_555 1_555
C4 C3 1_555 1_555
C5 N1 1_555 1_555
H3 C5 1_555 1_555
C6 O2 1_555 1_555
C7 C4 1_555 1_555
I1A Cu1A 1_555 1_555
Cu1A N1A 1_555 1_555
O1A C6A 1_555 1_555
O2A C6A 1_555 1_555
O3A In1 1_555 1_555
O4A In1 1_555 1_555
N1A C1A 1_555 1_555
C1A H1A 1_555 1_555
C2A C1A 1_555 1_555
C3A C2A 1_555 1_555
H2A C3A 1_555 1_555
C4A C3A 1_555 1_555
C5A N1A 1_555 1_555
H3A C5A 1_555 1_555
C6A C2A 1_555 1_555
C7A O3A 1_555 1_555
I1H Cu1A 1_555 1_555
I1I Cu1 1_555 1_555
I1J Cu1A 1_555 1_555
I1K Cu1 1_555 1_555
In1A O1A 1_555 1_555
In1C O3 1_555 1_555
Cu1H I1A 1_555 1_555
Cu1I I1 1_555 1_555
Cu1J I1A 1_555 1_555
Cu1K I1 1_555 1_555
O1M In1 1_555 1_555
O2M In1 1_555 1_555
O3N In1 1_555 1_555
O4N In1 1_555 1_555
O4 In1C 1_555 1_555
C2 C6 1_555 1_555
C4 C5 1_555 1_555
O2A In1A 1_555 1_555
O4A C7A 1_555 1_555
C4A C5A 1_555 1_555
C4A C7A 1_555 1_555
I1H Cu1H 1_555 1_555
I1I Cu1I 1_555 1_555
I1J Cu1J 1_555 1_555
I1K Cu1K 1_555 1_555

#END
