
#######################################################################
#
#                 Cambridge Crystallographic Data Centre
#                                CCDC 
#
#######################################################################
#
# If this CIF has been generated from an entry in the Cambridge 
# Structural Database, then it will include bibliographic, chemical, 
# crystal, experimental, refinement or atomic coordinate data resulting 
# from the CCDC's data processing and validation procedures.
#
#######################################################################

data_JOXNER
_chemical_formula_moiety         '(C24 H16 Cu4 I4 In2 N4 O10)n'
_symmetry_cell_setting           orthorhombic
_symmetry_space_group_name_H-M   'F d d d'
_symmetry_Int_Tables_number      70
_space_group_name_Hall           '-F 2uv 2vw'
loop_
_symmetry_equiv_pos_site_id
_symmetry_equiv_pos_as_xyz
1 x,y,z
2 1/4-x,1/4-y,z
3 x,1/4-y,1/4-z
4 1/4-x,y,1/4-z
5 x,1/2+y,1/2+z
6 1/4-x,3/4-y,1/2+z
7 x,3/4-y,3/4-z
8 1/4-x,1/2+y,3/4-z
9 1/2+x,y,1/2+z
10 3/4-x,1/4-y,1/2+z
11 1/2+x,1/4-y,3/4-z
12 3/4-x,y,3/4-z
13 1/2+x,1/2+y,z
14 3/4-x,3/4-y,z
15 1/2+x,3/4-y,1/4-z
16 3/4-x,1/2+y,1/4-z
17 -x,-y,-z
18 3/4+x,3/4+y,-z
19 -x,3/4+y,3/4+z
20 3/4+x,-y,3/4+z
21 -x,1/2-y,1/2-z
22 3/4+x,1/4+y,1/2-z
23 -x,1/4+y,1/4+z
24 3/4+x,1/2-y,1/4+z
25 1/2-x,-y,1/2-z
26 1/4+x,3/4+y,1/2-z
27 1/2-x,3/4+y,1/4+z
28 1/4+x,-y,1/4+z
29 1/2-x,1/2-y,-z
30 1/4+x,1/4+y,-z
31 1/2-x,1/4+y,3/4+z
32 1/4+x,1/2-y,3/4+z
_cell_length_a                   59.030(4)
_cell_length_b                   23.4150(18)
_cell_length_c                   16.1795(7)
_cell_angle_alpha                90
_cell_angle_beta                 90
_cell_angle_gamma                90
_cell_volume                     22363.1
loop_
_atom_site_label
_atom_site_type_symbol
_atom_site_fract_x
_atom_site_fract_y
_atom_site_fract_z
_atom_site_U_iso_or_equiv
_atom_site_thermal_displace_type
In1 In 0.0000 0.5000 0.5000 0.0328 Uani
In2 In 0.00589(2) 0.3750 0.3750 0.0328 Uani
I1 I 0.104028(15) 0.42186(7) 0.50704(5) 0.0732 Uani
I2 I 0.093123(15) 0.28865(8) 0.70235(6) 0.0797 Uani
Cu1 Cu 0.11373(3) 0.31565(14) 0.55503(12) 0.0683 Uani
Cu2 Cu 0.10640(3) 0.39720(15) 0.66884(12) 0.0703 Uani
N1 N 0.0833(2) 0.4520(8) 0.7215(8) 0.0700 Uani
N2 N 0.0959(2) 0.2630(8) 0.4790(8) 0.0673 Uani
C1 C 0.0750(2) 0.2798(7) 0.4564(8) 0.0470 Uani
H1 H 0.0698 0.3163 0.4733 0.0570 Uiso
C2 C 0.0382(2) 0.2686(6) 0.3843(8) 0.0427 Uani
C3 C 0.0609(2) 0.2456(5) 0.4093(7) 0.0383 Uani
C4 C 0.0654(2) 0.4687(6) 0.6786(8) 0.0487 Uani
H2 H 0.0633 0.4533 0.6248 0.0580 Uiso
C5 C 0.0497(3) 0.5071(6) 0.7079(9) 0.0507 Uani
O1 O 0.03269(17) 0.3171(5) 0.4104(7) 0.0597 Uani
O2 O 0.02630(15) 0.2352(4) 0.3396(6) 0.0417 Uani
C6 C 0.0306(2) 0.5257(5) 0.6533(8) 0.0380 Uani
C7 C 0.0526(4) 0.5312(9) 0.7867(11) 0.0767 Uani
H3 H 0.0427 0.5597 0.8077 0.0920 Uiso
C8 C 0.0857(4) 0.4734(11) 0.7983(10) 0.0877 Uani
H4 H 0.0984 0.4616 0.8304 0.1050 Uiso
C9 C 0.0709(4) 0.5111(11) 0.8317(11) 0.0943 Uani
H5 H 0.0730 0.5239 0.8868 0.1130 Uiso
C10 C 0.1029(4) 0.2155(12) 0.4487(15) 0.1077 Uani
H6 H 0.1185 0.2068 0.4560 0.1280 Uiso
O3 O 0.00442(14) 0.4132(3) 0.4907(5) 0.0328 Uani
O4 O 0.02689(15) 0.4978(3) 0.5916(6) 0.0417 Uani
O5 O 0.0197(2) 0.5688(5) 0.6777(6) 0.0593 Uani
C11 C 0.0679(4) 0.1935(11) 0.3811(17) 0.1027 Uani
H7 H 0.0584 0.1709 0.3465 0.1230 Uiso
C12 C 0.0896(5) 0.1745(10) 0.405(2) 0.1413 Uani
H8 H 0.0949 0.1371 0.3932 0.1670 Uiso
I1C I 0.145972(15) 0.42186(7) 0.74296(5) 0.0732 Uani
I2C I 0.156877(15) 0.28865(8) 0.54765(6) 0.0797 Uani
Cu1C Cu 0.13627(3) 0.31565(14) 0.69497(12) 0.0683 Uani
Cu2C Cu 0.14360(3) 0.39720(15) 0.58116(12) 0.0703 Uani
N1C N 0.1667(2) 0.4520(8) 0.5285(8) 0.0700 Uani
N2C N 0.1541(2) 0.2630(8) 0.7710(8) 0.0673 Uani
C1C C 0.1750(2) 0.2798(7) 0.7936(8) 0.0470 Uani
H1C H 0.1802 0.3163 0.7767 0.0570 Uiso
C2C C 0.2118(2) 0.2686(6) 0.8657(8) 0.0427 Uani
C3C C 0.1891(2) 0.2456(5) 0.8407(7) 0.0383 Uani
C4C C 0.1846(2) 0.4687(6) 0.5714(8) 0.0487 Uani
H2C H 0.1867 0.4533 0.6252 0.0580 Uiso
C5C C 0.2003(3) 0.5071(6) 0.5421(9) 0.0507 Uani
O1C O 0.21731(17) 0.3171(5) 0.8396(7) 0.0597 Uani
O2C O 0.22370(15) 0.2352(4) 0.9104(6) 0.0417 Uani
C6C C 0.2194(2) 0.5257(5) 0.5967(8) 0.0380 Uani
C7C C 0.1974(4) 0.5312(9) 0.4633(11) 0.0767 Uani
H3C H 0.2073 0.5597 0.4423 0.0920 Uiso
C8C C 0.1643(4) 0.4734(11) 0.4517(10) 0.0877 Uani
H4C H 0.1516 0.4616 0.4196 0.1050 Uiso
C9C C 0.1791(4) 0.5111(11) 0.4183(11) 0.0943 Uani
H5C H 0.1770 0.5239 0.3632 0.1130 Uiso
C10C C 0.1471(4) 0.2155(12) 0.8013(15) 0.1077 Uani
H6C H 0.1315 0.2068 0.7940 0.1280 Uiso
O4C O 0.22311(15) 0.4978(3) 0.6584(6) 0.0417 Uani
O5C O 0.2303(2) 0.5688(5) 0.5723(6) 0.0593 Uani
C11C C 0.1821(4) 0.1935(11) 0.8689(17) 0.1027 Uani
H7C H 0.1916 0.1709 0.9035 0.1230 Uiso
C12C C 0.1604(5) 0.1745(10) 0.845(2) 0.1413 Uani
H8C H 0.1551 0.1371 0.8568 0.1670 Uiso
O3P O -0.00442(14) 0.5868(3) 0.5093(5) 0.0328 Uani
In1C In 0.2500 0.5000 0.7500 0.0328 Uani
In1E In 0.2500 0.2500 1.0000 0.0328 Uani
In1F In 0.0000 0.2500 0.2500 0.0328 Uani
In2C In 0.24411(2) 0.3750 0.8750 0.0328 Uani
In2P In -0.00589(2) 0.6250 0.6250 0.0328 Uani
In2AA In 0.25589(2) 0.6250 0.6250 0.0328 Uani
O1F O 0.03269(17) 0.4329(5) 0.3396(7) 0.0597 Uani
O2F O 0.02630(15) 0.5148(4) 0.4104(6) 0.0417 Uani
O2V O -0.02630(15) 0.4852(4) 0.5896(6) 0.0417 Uani
O3F O 0.00442(14) 0.3368(3) 0.2593(5) 0.0328 Uani
O4P O -0.02689(15) 0.5022(3) 0.4084(6) 0.0417 Uani
O5P O -0.0197(2) 0.4312(5) 0.3223(6) 0.0593 Uani
O5R O -0.0197(2) 0.3188(5) 0.4277(6) 0.0593 Uani
loop_
_atom_site_aniso_label
_atom_site_aniso_U_11
_atom_site_aniso_U_22
_atom_site_aniso_U_33
_atom_site_aniso_U_23
_atom_site_aniso_U_13
_atom_site_aniso_U_12
In1 0.0504(5) 0.0215(4) 0.0265(4) -0.0186(3) 0.0013(4) 0.0000(4)
In2 0.0504(5) 0.0215(4) 0.0265(4) -0.0186(3) 0.0013(4) 0.0000(4)
I1 0.0354(5) 0.1567(13) 0.0275(4) -0.0063(6) -0.0153(3) 0.0081(6)
I2 0.0277(4) 0.1732(14) 0.0381(5) -0.0134(6) 0.0067(3) -0.0181(6)
Cu1 0.0273(9) 0.147(3) 0.0307(10) -0.0151(13) -0.0058(8) 0.0139(12)
Cu2 0.0307(10) 0.151(3) 0.0293(10) -0.0155(13) -0.0092(8) 0.0150(13)
N1 0.049(7) 0.125(14) 0.036(6) -0.028(8) -0.011(5) 0.017(8)
N2 0.033(6) 0.120(13) 0.049(7) -0.025(8) -0.003(5) 0.019(7)
C1 0.036(6) 0.075(10) 0.030(6) -0.019(7) -0.008(5) 0.014(7)
C2 0.046(7) 0.050(8) 0.032(6) 0.004(6) -0.009(6) 0.016(6)
C3 0.046(7) 0.039(6) 0.030(6) -0.025(5) -0.015(5) 0.028(6)
C4 0.061(9) 0.057(9) 0.028(6) -0.026(6) -0.009(6) 0.016(7)
C5 0.067(9) 0.040(7) 0.045(8) -0.016(6) -0.017(7) 0.006(7)
O1 0.050(6) 0.070(7) 0.059(6) -0.038(6) -0.028(5) 0.020(5)
O2 0.046(5) 0.028(4) 0.051(5) -0.005(4) -0.021(4) 0.010(4)
C6 0.055(8) 0.023(6) 0.036(6) -0.017(5) -0.002(5) 0.010(5)
C7 0.096(14) 0.088(14) 0.046(9) -0.027(9) -0.010(9) 0.032(11)
C8 0.084(13) 0.14(2) 0.039(8) -0.050(11) -0.021(8) 0.025(13)
C9 0.120(17) 0.129(19) 0.034(9) -0.036(11) -0.032(10) 0.014(15)
C10 0.080(14) 0.15(2) 0.093(16) -0.057(16) -0.036(12) 0.067(15)
O3 0.0504(5) 0.0215(4) 0.0265(4) -0.0186(3) 0.0013(4) 0.0000(4)
O4 0.052(5) 0.019(4) 0.054(5) -0.023(4) -0.009(4) 0.004(4)
O5 0.087(8) 0.055(6) 0.036(5) -0.022(5) -0.012(5) 0.020(6)
C11 0.067(12) 0.118(19) 0.123(19) -0.051(16) -0.025(13) 0.032(13)
C12 0.13(2) 0.064(13) 0.23(4) -0.073(19) -0.08(2) 0.052(14)
I1C 0.0354 0.1567 0.0275 0.0063 -0.0153 -0.0081
I2C 0.0277 0.1732 0.0381 0.0134 0.0067 0.0181
Cu1C 0.0273 0.147 0.0307 0.0151 -0.0058 -0.0139
Cu2C 0.0307 0.151 0.0293 0.0155 -0.0092 -0.015
N1C 0.049 0.125 0.036 0.028 -0.011 -0.017
N2C 0.033 0.12 0.049 0.025 -0.003 -0.019
C1C 0.036 0.075 0.03 0.019 -0.008 -0.014
C2C 0.046 0.05 0.032 -0.004 -0.009 -0.016
C3C 0.046 0.039 0.03 0.025 -0.015 -0.028
C4C 0.061 0.057 0.028 0.026 -0.009 -0.016
C5C 0.067 0.04 0.045 0.016 -0.017 -0.006
O1C 0.05 0.07 0.059 0.038 -0.028 -0.02
O2C 0.046 0.028 0.051 0.005 -0.021 -0.01
C6C 0.055 0.023 0.036 0.017 -0.002 -0.01
C7C 0.096 0.088 0.046 0.027 -0.01 -0.032
C8C 0.084 0.14 0.039 0.05 -0.021 -0.025
C9C 0.12 0.129 0.034 0.036 -0.032 -0.014
C10C 0.08 0.15 0.093 0.057 -0.036 -0.067
O4C 0.052 0.019 0.054 0.023 -0.009 -0.004
O5C 0.087 0.055 0.036 0.022 -0.012 -0.02
C11C 0.067 0.118 0.123 0.051 -0.025 -0.032
C12C 0.13 0.064 0.23 0.073 -0.08 -0.052
O3P 0.0504 0.0215 0.0265 -0.0186 0.0013 0
In1C 0.0504 0.0215 0.0265 0.0186 0.0013 0
In1E 0.0504 0.0215 0.0265 0.0186 -0.0013 0
In1F 0.0504 0.0215 0.0265 -0.0186 -0.0013 0
In2C 0.0504 0.0215 0.0265 0.0186 0.0013 0
In2P 0.0504 0.0215 0.0265 -0.0186 0.0013 0
In2AA 0.0504 0.0215 0.0265 0.0186 0.0013 0
O1F 0.05 0.07 0.059 -0.038 0.028 -0.02
O2F 0.046 0.028 0.051 -0.005 0.021 -0.01
O2V 0.046 0.028 0.051 -0.005 0.021 -0.01
O3F 0.0504 0.0215 0.0265 -0.0186 -0.0013 0
O4P 0.052 0.019 0.054 -0.023 -0.009 0.004
O5P 0.087 0.055 0.036 -0.022 -0.012 0.02
O5R 0.087 0.055 0.036 -0.022 0.012 -0.02
loop_
_geom_bond_atom_site_label_1
_geom_bond_atom_site_label_2
_geom_bond_site_symmetry_1
_geom_bond_site_symmetry_2
In1 O3 1_555 1_555
In2 O1 1_555 1_555
I1 Cu1 1_555 1_555
I2 Cu1 1_555 1_555
Cu1 N2 1_555 1_555
Cu2 I1 1_555 1_555
N1 Cu2 1_555 1_555
N2 C1 1_555 1_555
C1 H1 1_555 1_555
C2 C3 1_555 1_555
C3 C1 1_555 1_555
C4 N1 1_555 1_555
H2 C4 1_555 1_555
C5 C4 1_555 1_555
O1 C2 1_555 1_555
O2 C2 1_555 1_555
C6 C5 1_555 1_555
C7 C5 1_555 1_555
H3 C7 1_555 1_555
C8 N1 1_555 1_555
H4 C8 1_555 1_555
C9 C7 1_555 1_555
H5 C9 1_555 1_555
C10 N2 1_555 1_555
H6 C10 1_555 1_555
O3 In2 1_555 1_555
O4 In1 1_555 1_555
O5 C6 1_555 1_555
C11 C3 1_555 1_555
H7 C11 1_555 1_555
C12 C10 1_555 1_555
H8 C12 1_555 1_555
I1C Cu2 1_555 1_555
I2C Cu1 1_555 1_555
Cu1C I2 1_555 1_555
Cu2C I1 1_555 1_555
N1C Cu2C 1_555 1_555
N2C Cu1C 1_555 1_555
C1C N2C 1_555 1_555
H1C C1C 1_555 1_555
C2C C3C 1_555 1_555
C3C C1C 1_555 1_555
C4C N1C 1_555 1_555
H2C C4C 1_555 1_555
C5C C4C 1_555 1_555
O1C C2C 1_555 1_555
O2C C2C 1_555 1_555
C6C C5C 1_555 1_555
C7C C5C 1_555 1_555
H3C C7C 1_555 1_555
C8C N1C 1_555 1_555
H4C C8C 1_555 1_555
C9C C7C 1_555 1_555
H5C C9C 1_555 1_555
C10C N2C 1_555 1_555
H6C C10C 1_555 1_555
O4C C6C 1_555 1_555
O5C C6C 1_555 1_555
C11C C3C 1_555 1_555
H7C C11C 1_555 1_555
C12C C10C 1_555 1_555
H8C C12C 1_555 1_555
O3P In1 1_555 1_555
In1C O4C 1_555 1_555
In1E O2C 1_555 1_555
In1F O2 1_555 1_555
In2C O1C 1_555 1_555
In2P O5 1_555 1_555
In2AA O5C 1_555 1_555
O1F In2 1_555 1_555
O2F In1 1_555 1_555
O2V In1 1_555 1_555
O3F In2 1_555 1_555
O4P In1 1_555 1_555
O5P In2 1_555 1_555
O5R In2 1_555 1_555
I2 Cu2 1_555 1_555
C6 O4 1_555 1_555
C8 C9 1_555 1_555
C11 C12 1_555 1_555
I1C Cu1C 1_555 1_555
I1C Cu2C 1_555 1_555
I2C Cu1C 1_555 1_555
I2C Cu2C 1_555 1_555
C8C C9C 1_555 1_555
C11C C12C 1_555 1_555
O3P In2P 1_555 1_555
In1F O3F 1_555 1_555

#END
