
#######################################################################
#
#                 Cambridge Crystallographic Data Centre
#                                CCDC 
#
#######################################################################
#
# If this CIF has been generated from an entry in the Cambridge 
# Structural Database, then it will include bibliographic, chemical, 
# crystal, experimental, refinement or atomic coordinate data resulting 
# from the CCDC's data processing and validation procedures.
#
#######################################################################

data_AHEQAH
_chemical_formula_moiety         '(C33 H21 Ho1 O9)n'
_symmetry_cell_setting           orthorhombic
_symmetry_space_group_name_H-M   'I m a 2'
_symmetry_Int_Tables_number      46
_space_group_name_Hall           'I 2 -2a'
loop_
_symmetry_equiv_pos_site_id
_symmetry_equiv_pos_as_xyz
1 x,y,z
2 -x,-y,z
3 1/2-x,y,z
4 1/2+x,-y,z
5 1/2+x,1/2+y,1/2+z
6 1/2-x,1/2-y,1/2+z
7 -x,1/2+y,1/2+z
8 x,1/2-y,1/2+z
_cell_length_a                   21.403(6)
_cell_length_b                   34.255(9)
_cell_length_c                   8.023(2)
_cell_angle_alpha                90
_cell_angle_beta                 90
_cell_angle_gamma                90
_cell_volume                     5882.14
loop_
_atom_site_label
_atom_site_type_symbol
_atom_site_fract_x
_atom_site_fract_y
_atom_site_fract_z
O6 O 0.891(3) 0.1431(18) 1.196(11)
C1 C 0.7500 0.1786(11) 0.519(7)
C2 C 0.7500 0.1368(6) 0.505(5)
C3 C 0.7500(10) 0.1159(9) 0.654(4)
H1 H 0.7500 0.1293 0.7574
C4 C 0.7500(10) 0.0753(9) 0.651(4)
H2 H 0.7500 0.0610 0.7523
C5 C 0.7500(3) 0.0556(6) 0.499(4)
C6 C 0.7500(9) 0.0765(7) 0.351(4)
H3 H 0.7500 0.0631 0.2472
C7 C 0.7500(9) 0.1171(7) 0.354(4)
H4 H 0.7500 0.1314 0.2523
C8 C 0.7500 0.013(2) 0.49243(2)
C9 C 0.7500 -0.0233(19) 0.487(4)
C10 C 0.7500 -0.0648(16) 0.475(10)
C11 C 0.8075(17) -0.0838(10) 0.462(8)
H5 H 0.8453 -0.0695 0.4729
C12 C 0.8091(13) -0.1241(9) 0.433(6)
C13 C 0.7500 -0.1420(14) 0.432(8)
H6 H 0.7500 -0.1697 0.4304
C14 C 0.8613(13) -0.1451(8) 0.451(7)
C15 C 0.9094(14) -0.1638(8) 0.478(7)
C16 C 0.9612(18) -0.1842(8) 0.505(6)
C17 C 0.989(2) -0.2049(12) 0.375(6)
H7 H 0.9706 -0.2045 0.2674
C18 C 1.043(2) -0.2262(12) 0.404(8)
H8 H 1.0619 -0.2403 0.3152
C19 C 1.0698(19) -0.2267(11) 0.562(8)
C20 C 1.042(2) -0.2060(15) 0.691(7)
H9 H 1.0604 -0.2064 0.7991
C21 C 0.988(2) -0.1847(14) 0.663(6)
H10 H 0.9691 -0.1706 0.7514
O1 O 0.7500 0.1963(8) 0.666(6)
O2 O 0.7500 0.1971(8) 0.382(11)
O3 O 0.8223(11) 0.1839(6) 0.997(5)
Ho1 Ho 0.7500 0.23370(4) 0.883(4)
O4 O 1.1503(10) -0.2478(7) 0.773(5)
O5 O 1.188(2) -0.2346(16) 0.528(8)
C22 C 1.130(3) -0.2382(10) 0.644(12)
C11B C 0.6925(17) -0.0838(10) 0.462(8)
H5B H 0.6547 -0.0695 0.4729
C12B C 0.6909(13) -0.1241(9) 0.433(6)
C14B C 0.6387(13) -0.1451(8) 0.451(7)
C15B C 0.5906(14) -0.1638(8) 0.478(7)
C16B C 0.5388(18) -0.1842(8) 0.505(6)
C17B C 0.511(2) -0.2049(12) 0.375(6)
H7B H 0.5294 -0.2045 0.2674
C18B C 0.457(2) -0.2262(12) 0.404(8)
H8B H 0.4381 -0.2403 0.3152
C19B C 0.4302(19) -0.2267(11) 0.562(8)
C20B C 0.458(2) -0.2060(15) 0.691(7)
H9B H 0.4396 -0.2064 0.7991
C21B C 0.512(2) -0.1847(14) 0.663(6)
H10B H 0.5309 -0.1706 0.7514
O4B O 0.3497(10) -0.2478(7) 0.773(5)
O5B O 0.312(2) -0.2346(16) 0.528(8)
C22B C 0.370(3) -0.2382(10) 0.644(12)
O3B O 0.6777(11) 0.1839(6) 0.997(5)
O2E O 0.7500 0.3029(8) 0.882(11)
Ho1A Ho 0.2500 -0.23370(4) 0.883(4)
Ho1A_2 Ho 1.2500 -0.23370(4) 0.883(4)
Ho1D Ho 0.2500 -0.26630(4) 0.383(4)
Ho1D_2 Ho 1.2500 -0.26630(4) 0.383(4)
Ho1E Ho 0.7500 0.26630(4) 0.383(4)
O4A O 0.8497(10) 0.2478(7) 0.773(5)
O4C O 0.6503(10) 0.2478(7) 0.773(5)
O5D O 0.688(2) 0.2654(16) 1.028(8)
O5F O 0.812(2) 0.2654(16) 1.028(8)
loop_
_geom_bond_atom_site_label_1
_geom_bond_atom_site_label_2
_geom_bond_site_symmetry_1
_geom_bond_site_symmetry_2
C1 C2 1_555 1_555
C2 C3 1_555 1_555
C3 H1 1_555 1_555
C4 C3 1_555 1_555
H2 C4 1_555 1_555
C5 C4 1_555 1_555
C6 C5 1_555 1_555
H3 C6 1_555 1_555
C7 C2 1_555 1_555
H4 C7 1_555 1_555
C8 C5 1_555 1_555
C9 C8 1_555 1_555
C10 C9 1_555 1_555
C11 C10 1_555 1_555
H5 C11 1_555 1_555
C12 C11 1_555 1_555
C13 C12 1_555 1_555
H6 C13 1_555 1_555
C14 C12 1_555 1_555
C15 C14 1_555 1_555
C16 C15 1_555 1_555
C17 C16 1_555 1_555
H7 C17 1_555 1_555
C18 C17 1_555 1_555
H8 C18 1_555 1_555
C19 C18 1_555 1_555
C20 C19 1_555 1_555
H9 C20 1_555 1_555
C21 C16 1_555 1_555
H10 C21 1_555 1_555
O1 C1 1_555 1_555
O2 C1 1_555 1_555
O3 Ho1 1_555 1_555
Ho1 O1 1_555 1_555
O4 C22 1_555 1_555
O5 C22 1_555 1_555
C22 C19 1_555 1_555
C11B C10 1_555 1_555
H5B C11B 1_555 1_555
C12B C13 1_555 1_555
C14B C12B 1_555 1_555
C15B C14B 1_555 1_555
C16B C15B 1_555 1_555
C17B C16B 1_555 1_555
H7B C17B 1_555 1_555
C18B C17B 1_555 1_555
H8B C18B 1_555 1_555
C19B C18B 1_555 1_555
C20B C19B 1_555 1_555
H9B C20B 1_555 1_555
C21B C16B 1_555 1_555
H10B C21B 1_555 1_555
O4B C22B 1_555 1_555
O5B C22B 1_555 1_555
C22B C19B 1_555 1_555
O3B Ho1 1_555 1_555
O2E Ho1 1_555 1_555
Ho1A O4B 1_555 1_555
Ho1A_2 O4 1_555 1_555
Ho1D O5B 1_555 1_555
Ho1D_2 O5 1_555 1_555
Ho1E O2 1_555 1_555
O4A Ho1 1_555 1_555
O4C Ho1 1_555 1_555
O5D Ho1 1_555 1_555
O5F Ho1 1_555 1_555
C6 C7 1_555 1_555
C20 C21 1_555 1_555
C11B C12B 1_555 1_555
C20B C21B 1_555 1_555

#END
