
#######################################################################
#
#                 Cambridge Crystallographic Data Centre
#                                CCDC 
#
#######################################################################
#
# If this CIF has been generated from an entry in the Cambridge 
# Structural Database, then it will include bibliographic, chemical, 
# crystal, experimental, refinement or atomic coordinate data resulting 
# from the CCDC's data processing and validation procedures.
#
#######################################################################

data_OBIBEJ
_chemical_formula_moiety         '(C72 H79 Ca4 Cl1 N2 O26)n'
_symmetry_cell_setting           triclinic
_symmetry_space_group_name_H-M   'P -1'
_symmetry_Int_Tables_number      2
_space_group_name_Hall           '-P 1'
loop_
_symmetry_equiv_pos_site_id
_symmetry_equiv_pos_as_xyz
1 x,y,z
2 -x,-y,-z
_cell_length_a                   15.547(6)
_cell_length_b                   20.203(10)
_cell_length_c                   20.451(12)
_cell_angle_alpha                118.19(3)
_cell_angle_beta                 95.92(7)
_cell_angle_gamma                103.52(5)
_cell_volume                     5331.05
loop_
_atom_site_label
_atom_site_type_symbol
_atom_site_fract_x
_atom_site_fract_y
_atom_site_fract_z
Ca1 Ca 0.14348(10) 0.12290(8) 0.75551(9)
Ca2 Ca -0.09012(11) 0.18249(10) 0.80093(11)
Ca3 Ca 0.32898(11) 0.17463(9) -0.08960(9)
Ca4 Ca 0.52844(17) 1.14350(16) 0.84886(15)
O1 O -0.2967(3) -0.3053(3) 0.6346(3)
O2 O -0.1015(5) 0.0534(4) 0.7272(5)
O3 O 0.0191(5) 0.0104(3) 0.7146(4)
O4 O -0.4157(3) -0.6648(3) 0.3337(3)
O5 O -0.3951(5) -0.8296(5) -0.0164(4)
O6 O -0.5204(4) -0.7970(4) -0.0277(3)
O7 O -0.5185(3) -0.6144(3) 0.6406(4)
O8 O -0.7113(3) -0.7756(3) 0.8154(3)
O9 O -0.5703(4) -0.7823(3) 0.8427(4)
O10 O 0.0963(3) 0.3648(3) 0.5104(3)
O11 O -0.0323(4) 0.2269(4) 0.7240(4)
O12 O 0.0896(4) 0.1875(3) 0.7017(4)
O13 O 0.1035(3) 0.3567(3) 0.2261(3)
O14 O 0.0601(4) 0.2019(3) -0.1389(3)
O15 O 0.1720(3) 0.1642(3) -0.1058(3)
O16 O 0.1863(3) 0.6996(3) 0.5306(3)
O17 O 0.2430(4) 1.0572(3) 0.7844(3)
O18 O 0.3782(4) 1.0511(3) 0.8228(4)
O19 O 0.3491(4) 0.3073(3) 0.0041(4)
O20 O 0.2944(4) 0.1094(3) -0.0199(4)
O21 O -0.0946(8) 0.3122(5) 0.8869(5)
O22 O -0.1523(5) 0.1411(5) 0.8858(5)
O23 O -0.2399(5) 0.1606(6) 0.7379(6)
O24 O 0.1832(5) 0.0641(4) 0.6368(4)
O25 O 0.5103(9) 1.0923(8) 0.7132(9)
O26 O 0.6527(7) 1.2526(7) 0.8749(8)
N1 N 0.4135(10) 0.4425(6) 0.0746(8)
N2 N 0.3355(9) 0.0496(8) 0.0447(9)
C1 C -0.3346(4) -0.4506(4) 0.5715(4)
C2 C -0.3721(5) -0.4937(5) 0.4922(4)
C3 C -0.4313(4) -0.5731(4) 0.4580(4)
C4 C -0.4498(4) -0.6091(4) 0.5007(4)
C5 C -0.4117(4) -0.5647(4) 0.5817(4)
C6 C -0.3601(4) -0.4850(4) 0.6165(4)
C7 C -0.3320(5) -0.4336(5) 0.7048(5)
H1 H -0.2954 -0.3795 0.7206
H2 H -0.2959 -0.4563 0.7256
H3 H -0.3869 -0.4323 0.7244
C8 C -0.3471(5) -0.4541(5) 0.4456(5)
H4 H -0.3780 -0.4915 0.3914
H5 H -0.2808 -0.4386 0.4518
H6 H -0.3665 -0.4070 0.4639
C9 C -0.5055(5) -0.6981(5) 0.4614(5)
H7 H -0.5131 -0.7125 0.5005
H8 H -0.4730 -0.7300 0.4271
H9 H -0.5656 -0.7083 0.4318
C10 C -0.2587(4) -0.3717(4) 0.6083(5)
H10 H -0.2164 -0.3648 0.6524
H11 H -0.2235 -0.3713 0.5707
C11 C -0.2369(5) -0.2340(4) 0.6512(5)
C12 C -0.2677(6) -0.1699(5) 0.6843(6)
H12 H -0.3262 -0.1771 0.6949
C13 C -0.2142(6) -0.0937(5) 0.7029(6)
H13 H -0.2387 -0.0511 0.7217
C14 C -0.1222(5) -0.0805(4) 0.6934(5)
C15 C -0.0922(5) -0.1465(5) 0.6623(5)
H14 H -0.0325 -0.1397 0.6542
C16 C -0.1469(5) -0.2222(4) 0.6424(5)
H15 H -0.1234 -0.2653 0.6232
C17 C -0.0650(7) 0.0012(5) 0.7160(6)
C18 C -0.4731(5) -0.6195(5) 0.3717(5)
H16 H -0.5354 -0.6556 0.3597
H17 H -0.4776 -0.5824 0.3538
C19 C -0.4335(5) -0.7000(5) 0.2549(5)
C20 C -0.3732(7) -0.7391(6) 0.2195(7)
H18 H -0.3273 -0.7441 0.2497
C21 C -0.3784(6) -0.7702(6) 0.1432(6)
H19 H -0.3352 -0.7949 0.1218
C22 C -0.4456(5) -0.7663(5) 0.0960(5)
C23 C -0.5099(6) -0.7296(5) 0.1319(5)
H20 H -0.5582 -0.7270 0.1018
C24 C -0.5024(4) -0.6976(5) 0.2109(5)
H21 H -0.5460 -0.6743 0.2334
C25 C -0.4580(6) -0.8017(5) 0.0119(6)
C26 C -0.4250(5) -0.6036(5) 0.6303(5)
H22 H -0.4148 -0.6556 0.6044
H23 H -0.3803 -0.5696 0.6808
C27 C -0.5403(5) -0.6525(4) 0.6808(4)
C28 C -0.4809(5) -0.6795(5) 0.7100(6)
H24 H -0.4218 -0.6754 0.7006
C29 C -0.5104(5) -0.7134(4) 0.7545(5)
H25 H -0.4693 -0.7282 0.7784
C30 C -0.5991(5) -0.7246(4) 0.7626(5)
C31 C -0.6594(5) -0.7024(5) 0.7297(5)
H26 H -0.7200 -0.7098 0.7359
C32 C -0.6294(5) -0.6685(5) 0.6865(5)
H27 H -0.6718 -0.6563 0.6606
C33 C -0.6287(5) -0.7646(4) 0.8098(4)
C34 C 0.0760(4) 0.4455(4) 0.4574(4)
C35 C 0.0488(4) 0.4098(4) 0.3786(4)
C36 C 0.0811(4) 0.4520(4) 0.3410(4)
C37 C 0.1462(5) 0.5305(4) 0.3859(5)
C38 C 0.1766(5) 0.5645(4) 0.4648(5)
C39 C 0.1422(4) 0.5223(4) 0.5016(4)
C40 C -0.0181(5) 0.3236(4) 0.3289(5)
H28 H -0.0289 0.3078 0.2747
H29 H -0.0762 0.3208 0.3438
H30 H 0.0085 0.2877 0.3368
C41 C 0.1760(6) 0.5743(4) 0.3432(5)
H31 H 0.2198 0.6271 0.3797
H32 H 0.1224 0.5798 0.3190
H33 H 0.2047 0.5440 0.3038
C42 C 0.1762(5) 0.5617(4) 0.5882(4)
H34 H 0.2218 0.6138 0.6086
H35 H 0.2040 0.5284 0.5998
H36 H 0.1248 0.5681 0.6119
C43 C 0.0341(5) 0.4056(4) 0.4992(5)
H37 H 0.0283 0.4456 0.5492
H38 H -0.0273 0.3670 0.4684
C44 C 0.0762(5) 0.3319(4) 0.5565(5)
C45 C 0.0060(5) 0.3373(5) 0.5917(5)
H39 H -0.0340 0.3643 0.5859
C46 C -0.0062(5) 0.3021(5) 0.6369(4)
H40 H -0.0533 0.3081 0.6632
C47 C 0.0470(4) 0.2599(4) 0.6445(4)
C48 C 0.1188(5) 0.2531(5) 0.6056(5)
H41 H 0.1569 0.2241 0.6100
C49 C 0.1337(5) 0.2885(5) 0.5614(5)
H42 H 0.1811 0.2835 0.5354
C50 C 0.0335(5) 0.2210(5) 0.6935(5)
C51 C 0.0519(6) 0.4109(5) 0.2549(4)
H43 H -0.0145 0.3816 0.2361
H44 H 0.0655 0.4500 0.2380
C52 C 0.1000(5) 0.3203(4) 0.1481(4)
C53 C 0.1541(5) 0.2699(4) 0.1238(5)
H45 H 0.1877 0.2626 0.1599
C54 C 0.1587(5) 0.2314(4) 0.0491(5)
H46 H 0.1960 0.1983 0.0340
C55 C 0.1058(5) 0.2411(4) -0.0087(5)
C56 C 0.0543(5) 0.2910(4) 0.0164(5)
H47 H 0.0216 0.2999 -0.0190
C57 C 0.0487(6) 0.3303(5) 0.0951(5)
H48 H 0.0105 0.3626 0.1107
C58 C 0.1119(5) 0.2012(4) -0.0899(5)
C59 C 0.2433(5) 0.6475(4) 0.5106(5)
H49 H 0.2815 0.6558 0.5574
H50 H 0.2837 0.6578 0.4798
C60 C 0.2199(5) 0.7768(4) 0.5917(5)
C61 C 0.1604(5) 0.8210(4) 0.6023(5)
H51 H 0.1024 0.7973 0.5669
C62 C 0.1828(6) 0.8982(4) 0.6625(5)
H52 H 0.1400 0.9262 0.6707
C63 C 0.2722(6) 0.9340(5) 0.7116(5)
C64 C 0.3354(6) 0.8935(4) 0.6998(5)
H53 H 0.3956 0.9193 0.7322
C65 C 0.3095(6) 0.8132(5) 0.6391(5)
H54 H 0.3518 0.7847 0.6306
C66 C 0.2992(6) 1.0199(4) 0.7766(5)
C67 C 0.3323(12) 0.4545(8) 0.1051(11)
H55 H 0.3434 0.5113 0.1391
H56 H 0.3211 0.4273 0.1339
H57 H 0.2789 0.4328 0.0625
C68 C 0.4896(14) 0.5127(10) 0.0880(14)
H58 H 0.5031 0.5558 0.1413
H59 H 0.4709 0.5306 0.0535
H60 H 0.5442 0.4973 0.0780
C69 C 0.4163(8) 0.3698(7) 0.0252(8)
H61 H 0.4689 0.3647 0.0058
C70 C 0.3318(8) 0.0663(7) -0.0057(8)
H62 H 0.3642 0.0416 -0.0423
C71 C 0.383(2) -0.0001(17) 0.0595(16)
H63 H 0.3684 -0.0027 0.1039
H64 H 0.4494 0.0237 0.0701
H65 H 0.3632 -0.0537 0.0144
C72 C 0.3085(17) 0.0977(14) 0.1158(11)
H66 H 0.3142 0.0766 0.1498
H67 H 0.2451 0.0954 0.1025
H68 H 0.3485 0.1529 0.1419
H69 H -0.1960 0.1373 0.9073
H70 H -0.1481 0.1847 0.8835
H71 H -0.0883 0.3557 0.9293
H72 H -0.1067 0.3224 0.8512
H73 H 0.1749 0.0223 0.5928
H74 H 0.2195 0.1026 0.6343
H75 H 0.6848 1.3045 0.8999
H76 H -0.2859 0.1370 0.7507
H77 H -0.2478 0.1238 0.6898
H78 H 0.5016 1.0963 0.6698
H79 H 0.4617 1.0544 0.7017
Ca1_2 Ca -0.85652(10) -0.87710(8) 0.75551(9)
Ca1_3 Ca 0.14348(10) 0.12290(8) -0.24449(9)
Ca1_4 Ca 0.14348(10) 1.12290(8) 0.75551(9)
Ca2_2 Ca -0.09012(11) 0.18249(10) -0.19907(11)
Ca3_2 Ca -0.67102(11) -0.82537(9) -0.08960(9)
Ca3_3 Ca -0.67102(11) -0.82537(9) 0.91040(9)
Ca3_4 Ca 0.32898(11) 1.17463(9) 0.91040(9)
Ca4_2 Ca -0.47156(17) -0.85650(16) -0.15114(15)
Ca4_3 Ca -0.47156(17) -0.85650(16) 0.84886(15)
O5_2 O 0.6049(5) 1.1704(5) 0.9836(4)
O6_2 O 0.4796(4) 0.2030(4) -0.0277(3)
O6_3 O 0.4796(4) 1.2030(4) 0.9723(3)
O8_2 O 0.2887(3) 0.2244(3) -0.1846(3)
O8_3 O 0.2887(3) 0.2244(3) 0.8154(3)
O9_2 O 0.4297(4) 0.2177(3) -0.1573(4)
O9_3 O 0.4297(4) 1.2177(3) 0.8427(4)
O14_2 O 0.0601(4) 0.2019(3) 0.8611(3)
O15_2 O 0.1720(3) 0.1642(3) 0.8942(3)
O17_2 O 0.2430(4) 0.0572(3) -0.2156(3)
O17_3 O 0.2430(4) 0.0572(3) 0.7844(3)
O18_2 O 0.3782(4) 0.0511(3) -0.1772(4)
Cl1 Cl 0.0319(16) -0.0481(13) 0.8792(8)
loop_
_geom_bond_atom_site_label_1
_geom_bond_atom_site_label_2
_geom_bond_site_symmetry_1
_geom_bond_site_symmetry_2
Ca1 O3 1_555 1_555
Ca2 O2 1_555 1_555
Ca3 O15 1_555 1_555
Ca4 O18 1_555 1_555
O1 C10 1_555 1_555
O2 C17 1_555 1_555
O3 C17 1_555 1_555
O4 C18 1_555 1_555
O5 C25 1_555 1_555
O6 C25 1_555 1_555
O7 C26 1_555 1_555
O8 C33 1_555 1_555
O9 C33 1_555 1_555
O10 C43 1_555 1_555
O11 Ca2 1_555 1_555
O12 Ca1 1_555 1_555
O13 C51 1_555 1_555
O14 C58 1_555 1_555
O15 C58 1_555 1_555
O16 C59 1_555 1_555
O17 C66 1_555 1_555
O18 C66 1_555 1_555
O19 Ca3 1_555 1_555
O20 Ca3 1_555 1_555
O21 Ca2 1_555 1_555
O22 Ca2 1_555 1_555
O23 Ca2 1_555 1_555
O24 Ca1 1_555 1_555
O25 Ca4 1_555 1_555
O26 Ca4 1_555 1_555
N1 C67 1_555 1_555
N2 C70 1_555 1_555
C1 C2 1_555 1_555
C2 C3 1_555 1_555
C3 C4 1_555 1_555
C4 C5 1_555 1_555
C5 C6 1_555 1_555
C6 C1 1_555 1_555
C7 C6 1_555 1_555
H1 C7 1_555 1_555
H2 C7 1_555 1_555
H3 C7 1_555 1_555
C8 C2 1_555 1_555
H4 C8 1_555 1_555
H5 C8 1_555 1_555
H6 C8 1_555 1_555
C9 C4 1_555 1_555
H7 C9 1_555 1_555
H8 C9 1_555 1_555
H9 C9 1_555 1_555
C10 C1 1_555 1_555
H10 C10 1_555 1_555
H11 C10 1_555 1_555
C11 O1 1_555 1_555
C12 C11 1_555 1_555
H12 C12 1_555 1_555
C13 C12 1_555 1_555
H13 C13 1_555 1_555
C14 C13 1_555 1_555
C15 C14 1_555 1_555
H14 C15 1_555 1_555
C16 C11 1_555 1_555
H15 C16 1_555 1_555
C17 C14 1_555 1_555
C18 C3 1_555 1_555
H16 C18 1_555 1_555
H17 C18 1_555 1_555
C19 O4 1_555 1_555
C20 C19 1_555 1_555
H18 C20 1_555 1_555
C21 C20 1_555 1_555
H19 C21 1_555 1_555
C22 C21 1_555 1_555
C23 C22 1_555 1_555
H20 C23 1_555 1_555
C24 C19 1_555 1_555
H21 C24 1_555 1_555
C25 C22 1_555 1_555
C26 C5 1_555 1_555
H22 C26 1_555 1_555
H23 C26 1_555 1_555
C27 O7 1_555 1_555
C28 C27 1_555 1_555
H24 C28 1_555 1_555
C29 C28 1_555 1_555
H25 C29 1_555 1_555
C30 C29 1_555 1_555
C31 C30 1_555 1_555
H26 C31 1_555 1_555
C32 C27 1_555 1_555
H27 C32 1_555 1_555
C33 C30 1_555 1_555
C34 C35 1_555 1_555
C35 C36 1_555 1_555
C36 C37 1_555 1_555
C37 C38 1_555 1_555
C38 C39 1_555 1_555
C39 C34 1_555 1_555
C40 C35 1_555 1_555
H28 C40 1_555 1_555
H29 C40 1_555 1_555
H30 C40 1_555 1_555
C41 C37 1_555 1_555
H31 C41 1_555 1_555
H32 C41 1_555 1_555
H33 C41 1_555 1_555
C42 C39 1_555 1_555
H34 C42 1_555 1_555
H35 C42 1_555 1_555
H36 C42 1_555 1_555
C43 C34 1_555 1_555
H37 C43 1_555 1_555
H38 C43 1_555 1_555
C44 O10 1_555 1_555
C45 C44 1_555 1_555
H39 C45 1_555 1_555
C46 C45 1_555 1_555
H40 C46 1_555 1_555
C47 C46 1_555 1_555
C48 C47 1_555 1_555
H41 C48 1_555 1_555
C49 C44 1_555 1_555
H42 C49 1_555 1_555
C50 O11 1_555 1_555
C51 C36 1_555 1_555
H43 C51 1_555 1_555
H44 C51 1_555 1_555
C52 O13 1_555 1_555
C53 C52 1_555 1_555
H45 C53 1_555 1_555
C54 C53 1_555 1_555
H46 C54 1_555 1_555
C55 C54 1_555 1_555
C56 C55 1_555 1_555
H47 C56 1_555 1_555
C57 C52 1_555 1_555
H48 C57 1_555 1_555
C58 C55 1_555 1_555
C59 C38 1_555 1_555
H49 C59 1_555 1_555
H50 C59 1_555 1_555
C60 O16 1_555 1_555
C61 C60 1_555 1_555
H51 C61 1_555 1_555
C62 C61 1_555 1_555
H52 C62 1_555 1_555
C63 C62 1_555 1_555
C64 C63 1_555 1_555
H53 C64 1_555 1_555
C65 C60 1_555 1_555
H54 C65 1_555 1_555
C66 C63 1_555 1_555
C67 H55 1_555 1_555
H56 C67 1_555 1_555
H57 C67 1_555 1_555
C68 N1 1_555 1_555
H58 C68 1_555 1_555
H59 C68 1_555 1_555
H60 C68 1_555 1_555
C69 O19 1_555 1_555
H61 C69 1_555 1_555
C70 O20 1_555 1_555
H62 C70 1_555 1_555
C71 N2 1_555 1_555
H63 C71 1_555 1_555
H64 C71 1_555 1_555
H65 C71 1_555 1_555
C72 N2 1_555 1_555
H66 C72 1_555 1_555
H67 C72 1_555 1_555
H68 C72 1_555 1_555
H69 O22 1_555 1_555
H70 O22 1_555 1_555
H71 O21 1_555 1_555
H72 O21 1_555 1_555
H73 O24 1_555 1_555
H74 O24 1_555 1_555
H75 O26 1_555 1_555
H76 O23 1_555 1_555
H77 O23 1_555 1_555
H78 O25 1_555 1_555
H79 O25 1_555 1_555
Ca1_2 O8 1_555 1_555
Ca1_3 O14 1_555 1_555
Ca1_4 O17 1_555 1_555
Ca2_2 O14 1_555 1_555
Ca3_2 O6 1_555 1_555
Ca3_3 O8 1_555 1_555
Ca3_4 O17 1_555 1_555
Ca4_2 O5 1_555 1_555
Ca4_3 O9 1_555 1_555
O5_2 Ca4 1_555 1_555
O6_2 Ca3 1_555 1_555
O6_3 Ca4 1_555 1_555
O8_2 Ca3 1_555 1_555
O8_3 Ca1 1_555 1_555
O9_2 Ca3 1_555 1_555
O9_3 Ca4 1_555 1_555
O14_2 Ca1 1_555 1_555
O15_2 Ca1 1_555 1_555
O17_2 Ca3 1_555 1_555
O17_3 Ca1 1_555 1_555
O18_2 Ca3 1_555 1_555
Ca2 O14_2 1_555 1_555
O6 Ca4_2 1_555 1_555
O9 Ca3_3 1_555 1_555
O12 C50 1_555 1_555
O15 Ca1_3 1_555 1_555
O18 Ca3_4 1_555 1_555
N1 C69 1_555 1_555
C15 C16 1_555 1_555
C23 C24 1_555 1_555
C31 C32 1_555 1_555
C47 C50 1_555 1_555
C48 C49 1_555 1_555
C56 C57 1_555 1_555
C64 C65 1_555 1_555
Ca1_3 O8_2 1_555 1_555
Ca1_3 O17_2 1_555 1_555
Ca3_4 O6_3 1_555 1_555
Ca3_4 O9_3 1_555 1_555

#END
