
#######################################################################
#
#                 Cambridge Crystallographic Data Centre
#                                CCDC 
#
#######################################################################
#
# If this CIF has been generated from an entry in the Cambridge 
# Structural Database, then it will include bibliographic, chemical, 
# crystal, experimental, refinement or atomic coordinate data resulting 
# from the CCDC's data processing and validation procedures.
#
#######################################################################

data_BELTUJ
_chemical_formula_moiety         '(C45 H35 Co3 N1 O17 P2)n'
_symmetry_cell_setting           orthorhombic
_symmetry_space_group_name_H-M   'P b c a'
_symmetry_Int_Tables_number      61
_space_group_name_Hall           '-P 2ac 2ab'
loop_
_symmetry_equiv_pos_site_id
_symmetry_equiv_pos_as_xyz
1 x,y,z
2 1/2-x,-y,1/2+z
3 1/2+x,1/2-y,-z
4 -x,1/2+y,1/2-z
5 -x,-y,-z
6 1/2+x,y,1/2-z
7 1/2-x,1/2+y,z
8 x,1/2-y,1/2+z
_cell_length_a                   24.9627(18)
_cell_length_b                   24.875(3)
_cell_length_c                   19.5360(14)
_cell_angle_alpha                90
_cell_angle_beta                 90
_cell_angle_gamma                90
_cell_volume                     12130.8
loop_
_atom_site_label
_atom_site_type_symbol
_atom_site_fract_x
_atom_site_fract_y
_atom_site_fract_z
_atom_site_U_iso_or_equiv
_atom_site_thermal_displace_type
Co1 Co 0.07798(3) 0.09344(2) 0.08280(4) 0.0360 Uani
Co2 Co 0.12444(2) 0.05961(3) 0.24948(4) 0.0310 Uani
Co3 Co 0.08235(3) 0.47281(2) -0.08054(3) 0.0325 Uani
P1 P 0.40296(5) 0.23733(5) 0.08323(8) 0.0417 Uani
P2 P 0.09590(5) 0.11814(5) -0.08934(6) 0.0295 Uani
C1 C 0.3372(2) 0.2076(2) 0.1022(3) 0.0407 Uani
C2 C 0.3019(2) 0.1995(3) 0.0493(3) 0.0603 Uani
H1 H 0.3110 0.2109 0.0044 0.0720 Uiso
C3 C 0.2521(2) 0.1740(2) 0.0613(3) 0.0513 Uani
H2 H 0.2277 0.1692 0.0245 0.0620 Uiso
C4 C 0.2386(2) 0.15624(19) 0.1261(2) 0.0350 Uani
C5 C 0.1870(2) 0.1260(2) 0.1390(3) 0.0373 Uani
C6 C 0.2737(2) 0.1660(3) 0.1800(3) 0.0550 Uani
H3 H 0.2645 0.1550 0.2251 0.0660 Uiso
C7 C 0.3226(2) 0.1921(2) 0.1676(3) 0.0540 Uani
H4 H 0.3461 0.1992 0.2048 0.0650 Uiso
C8 C 0.3975(2) 0.30968(19) 0.0931(3) 0.0413 Uani
C9 C 0.4300(2) 0.3425(2) 0.0548(3) 0.0507 Uani
H5 H 0.4532 0.3270 0.0216 0.0610 Uiso
C10 C 0.4296(2) 0.3989(2) 0.0637(3) 0.0477 Uani
H6 H 0.4528 0.4210 0.0372 0.0570 Uiso
C11 C 0.3949(2) 0.42218(19) 0.1118(2) 0.0363 Uani
C12 C 0.3949(2) 0.4819(2) 0.1245(3) 0.0397 Uani
C13 C 0.3617(2) 0.3887(2) 0.1509(3) 0.0483 Uani
H7 H 0.3384 0.4040 0.1841 0.0580 Uiso
C14 C 0.3626(2) 0.3331(2) 0.1413(3) 0.0537 Uani
H8 H 0.3395 0.3108 0.1676 0.0650 Uiso
C15 C 0.4459(2) 0.2142(2) 0.1523(3) 0.0420 Uani
C16 C 0.4653(2) 0.1612(2) 0.1473(3) 0.0420 Uani
H9 H 0.4577 0.1406 0.1075 0.0500 Uiso
C17 C 0.4957(2) 0.13815(19) 0.2005(3) 0.0397 Uani
H10 H 0.5080 0.1021 0.1971 0.0480 Uiso
C18 C 0.5077(2) 0.1690(2) 0.2585(3) 0.0523 Uani
C19 C 0.5371(2) 0.1437(2) 0.3167(3) 0.0497 Uani
C20 C 0.4890(3) 0.2219(3) 0.2628(4) 0.0913 Uani
H11 H 0.4975 0.2429 0.3019 0.1100 Uiso
C21 C 0.4585(3) 0.2439(2) 0.2114(4) 0.0773 Uani
H12 H 0.4456 0.2797 0.2158 0.0930 Uiso
C22 C 0.10448(19) 0.18982(17) -0.0978(2) 0.0300 Uani
C23 C 0.1348(2) 0.21288(19) -0.1504(3) 0.0437 Uani
H13 H 0.1541 0.1904 -0.1810 0.0520 Uiso
C24 C 0.1370(2) 0.26830(19) -0.1585(3) 0.0450 Uani
H14 H 0.1570 0.2834 -0.1950 0.0540 Uiso
C25 C 0.1093(2) 0.30233(18) -0.1122(2) 0.0360 Uani
C26 C 0.1109(2) 0.3627(2) -0.1226(3) 0.0370 Uani
C27 C 0.0804(2) 0.27993(19) -0.0589(2) 0.0427 Uani
H15 H 0.0628 0.3027 -0.0269 0.0510 Uiso
C28 C 0.0769(2) 0.22409(19) -0.0517(2) 0.0420 Uani
H16 H 0.0560 0.2091 -0.0159 0.0500 Uiso
C29 C 0.15921(19) 0.08599(18) -0.1062(2) 0.0307 Uani
C30 C 0.1776(2) 0.0781(2) -0.1731(3) 0.0443 Uani
H17 H 0.1568 0.0903 -0.2108 0.0530 Uiso
C31 C 0.2268(2) 0.0520(2) -0.1847(3) 0.0503 Uani
H18 H 0.2389 0.0466 -0.2303 0.0610 Uiso
C32 C 0.2578(2) 0.0342(2) -0.1303(3) 0.0400 Uani
C33 C 0.3098(2) 0.0043(2) -0.1436(3) 0.0373 Uani
C34 C 0.2399(2) 0.0430(3) -0.0638(3) 0.0580 Uani
H19 H 0.2609 0.0313 -0.0261 0.0700 Uiso
C35 C 0.1909(2) 0.0692(3) -0.0523(3) 0.0550 Uani
H20 H 0.1793 0.0754 -0.0066 0.0660 Uiso
C36 C 0.05292(19) 0.09523(19) -0.1576(2) 0.0317 Uani
C37 C 0.0334(2) 0.1274(2) -0.2105(3) 0.0497 Uani
H21 H 0.0413 0.1648 -0.2111 0.0600 Uiso
C38 C 0.0022(3) 0.1051(2) -0.2626(3) 0.0520 Uani
H22 H -0.0101 0.1274 -0.2988 0.0630 Uiso
C39 C -0.01115(19) 0.05092(19) -0.2625(2) 0.0343 Uani
C40 C -0.04222(18) 0.02646(19) -0.3199(2) 0.0330 Uani
C41 C 0.0077(2) 0.0186(2) -0.2102(3) 0.0433 Uani
H23 H -0.0008 -0.0186 -0.2097 0.0520 Uiso
C42 C 0.0390(2) 0.0404(2) -0.1583(3) 0.0473 Uani
H24 H 0.0514 0.0177 -0.1225 0.0570 Uiso
C43 C 0.1386(3) 0.4901(4) 0.0499(3) 0.0970 Uani
H25 H 0.1658 0.4749 0.0219 0.1160 Uiso
C44 C 0.1144(6) 0.5273(6) 0.1563(5) 0.2003 Uani
H26 H 0.0806 0.5326 0.1318 0.3010 Uiso
H27 H 0.1091 0.5011 0.1933 0.3010 Uiso
H28 H 0.1264 0.5615 0.1758 0.3010 Uiso
C45 C 0.2144(5) 0.5007(6) 0.1337(5) 0.1930 Uani
H29 H 0.2369 0.5269 0.1095 0.2890 Uiso
H30 H 0.2172 0.5067 0.1832 0.2890 Uiso
H31 H 0.2266 0.4642 0.1229 0.2890 Uiso
N1 N 0.1538(3) 0.5077(3) 0.1103(3) 0.0977 Uani
O1 O 0.15302(13) 0.12510(14) 0.09067(17) 0.0413 Uani
O2 O 0.18250(14) 0.10307(15) 0.19620(17) 0.0450 Uani
O3 O 0.41380(16) 0.51206(14) 0.07731(17) 0.0491 Uani
O4 O 0.37693(16) 0.49695(14) 0.18148(17) 0.0460 Uani
O5 O 0.56156(13) 0.09842(13) 0.30793(16) 0.0369 Uani
O6 O 0.5377(2) 0.1644(2) 0.3758(2) 0.1013 Uani
O7 O 0.42294(15) 0.22116(15) 0.01388(17) 0.0467 Uani
O8 O 0.12588(15) 0.37803(13) -0.18195(17) 0.0428 Uani
O9 O 0.09797(15) 0.39246(13) -0.07330(17) 0.0437 Uani
O10 O 0.31572(14) -0.01503(15) -0.20304(17) 0.0447 Uani
O11 O 0.34178(14) 0.00013(14) -0.09314(16) 0.0431 Uani
O12 O -0.04607(14) 0.04981(14) -0.37744(16) 0.0430 Uani
O13 O -0.06263(13) -0.02125(12) -0.31268(16) 0.0350 Uani
O14 O 0.07364(13) 0.10312(13) -0.02067(15) 0.0345 Uani
O15 O 0.00271(15) 0.45071(14) -0.05531(17) 0.0470 Uani
O16 O -0.0077(3) 0.0713(3) 0.0743(3) 0.1343 Uani
O17 O 0.09262(15) 0.49108(15) 0.02520(17) 0.0455 Uani
Co1F Co 0.42202(3) 0.59344(2) 0.08280(4) 0.0360 Uani
Co1E Co 0.57798(3) 0.09344(2) 0.41720(4) 0.0360 Uani
Co2F Co 0.37556(2) 0.55961(3) 0.24948(4) 0.0310 Uani
Co2E Co 0.62444(2) 0.05961(3) 0.25052(4) 0.0310 Uani
Co2G Co 0.12444(2) 0.44039(3) -0.25052(4) 0.0310 Uani
Co2A Co 0.37556(2) -0.05961(3) -0.25052(4) 0.0310 Uani
Co2D Co -0.12444(2) -0.05961(3) -0.24948(4) 0.0310 Uani
Co3F Co 0.41765(3) -0.02719(2) -0.08054(3) 0.0325 Uani
Co3C Co -0.08235(3) -0.02719(2) -0.41946(3) 0.0325 Uani
O3F O 0.08620(16) 0.01206(14) 0.07731(17) 0.0491 Uani
O4F O 0.12307(16) -0.00305(14) 0.18148(17) 0.0460 Uani
O5E O 0.06156(13) 0.09842(13) 0.19207(16) 0.0369 Uani
O6E O 0.0377(2) 0.1644(2) 0.1242(2) 0.1013 Uani
O8G O 0.12588(15) 0.12197(13) 0.31805(17) 0.0428 Uani
O10A O 0.18428(14) 0.01503(15) 0.29696(17) 0.0447 Uani
O11F O 0.15822(14) 0.50013(14) -0.09314(16) 0.0431 Uani
O12C O 0.04607(14) 0.54981(14) -0.12256(16) 0.0430 Uani
O13D O 0.06263(13) 0.02125(12) 0.31268(16) 0.0350 Uani
O13C O 0.06263(13) 0.47875(12) -0.18732(16) 0.0350 Uani
loop_
_atom_site_aniso_label
_atom_site_aniso_U_11
_atom_site_aniso_U_22
_atom_site_aniso_U_33
_atom_site_aniso_U_23
_atom_site_aniso_U_13
_atom_site_aniso_U_12
Co1 0.0373(4) 0.0249(4) 0.0457(4) 0.0049(3) -0.0058(4) -0.0005(3)
Co2 0.0313(3) 0.0247(3) 0.0370(3) 0.0025(2) 0.0004(4) 0.0026(3)
Co3 0.0338 0.0246 0.0392 -0.0018 0.0013 -0.0004
P1 0.0328(7) 0.0252(7) 0.0670(9) 0.0031(7) -0.0054(7) -0.0033(5)
P2 0.0286 0.0216 0.0384 0.001 0.001 0.0016
C1 0.034(3) 0.027(3) 0.061(3) 0.006(2) -0.009(3) -0.009(2)
C2 0.050(4) 0.089(5) 0.042(3) 0.020(3) -0.004(3) -0.026(3)
C3 0.040(3) 0.064(4) 0.050(3) 0.004(3) -0.009(3) -0.022(3)
C4 0.033(3) 0.028(3) 0.044(3) 0.004(2) -0.001(2) -0.005(2)
C5 0.043(3) 0.028(3) 0.041(3) -0.006(2) 0.004(3) 0.006(2)
C6 0.049(4) 0.073(5) 0.043(3) 0.008(3) -0.004(3) -0.020(3)
C7 0.052(4) 0.062(4) 0.048(3) 0.003(3) -0.013(3) -0.023(3)
C8 0.031(3) 0.028(3) 0.065(3) 0.006(3) -0.005(3) -0.002(2)
C9 0.041(3) 0.026(3) 0.085(4) -0.002(3) 0.010(3) -0.003(2)
C10 0.043(3) 0.031(3) 0.069(4) 0.004(3) 0.008(3) -0.007(2)
C11 0.034(3) 0.031(3) 0.044(3) 0.002(2) -0.008(2) -0.002(2)
C12 0.043(3) 0.030(3) 0.046(3) 0.006(2) -0.005(3) -0.005(2)
C13 0.051(4) 0.034(3) 0.060(3) 0.002(3) 0.013(3) -0.006(3)
C14 0.052(4) 0.036(3) 0.073(4) 0.013(3) 0.010(3) -0.007(3)
C15 0.030(3) 0.025(3) 0.071(3) -0.005(3) -0.006(3) 0.003(2)
C16 0.037(3) 0.038(3) 0.051(3) -0.006(2) -0.002(3) 0.006(2)
C17 0.040(3) 0.021(3) 0.058(3) -0.003(2) -0.006(3) 0.006(2)
C18 0.044(4) 0.048(4) 0.065(4) -0.019(3) -0.019(3) 0.022(3)
C19 0.043(3) 0.043(3) 0.063(3) -0.022(3) -0.021(3) 0.024(3)
C20 0.103(6) 0.046(4) 0.125(6) -0.048(4) -0.074(5) 0.045(4)
C21 0.088(5) 0.030(3) 0.114(5) -0.031(3) -0.059(4) 0.030(3)
C22 0.028 0.024 0.038 -0.001 0.002 0.0008
C23 0.047 0.024 0.06 -0.007 0.014 0.003
C24 0.048 0.029 0.058 0.003 0.018 -0.008
C25 0.044 0.019 0.045 -0.002 0 0.001
C26 0.032 0.034 0.045 0.004 -0.001 -0.007
C27 0.048 0.028 0.052 -0.003 0.016 0.006
C28 0.047 0.028 0.051 0.001 0.012 0.005
C29 0.025 0.028 0.039 -0.001 0 0.004
C30 0.04 0.042 0.051 0.001 0 0.017
C31 0.052 0.061 0.038 0.003 0.001 0.021
C32 0.032 0.039 0.049 -0.009 0.008 0.01
C33 0.034 0.033 0.045 -0.001 0.004 0.003
C34 0.046 0.086 0.042 -0.005 0.001 0.026
C35 0.049 0.067 0.049 -0.008 0.005 0.02
C36 0.028 0.028 0.039 -0.004 0.001 0
C37 0.065 0.02 0.064 0.003 -0.02 -0.004
C38 0.077 0.025 0.054 0.008 -0.02 -0.002
C39 0.035 0.029 0.039 0 0.003 0.001
C40 0.025 0.029 0.045 -0.003 -0.003 0.001
C41 0.05 0.024 0.056 0.01 -0.007 -0.011
C42 0.069 0.022 0.051 0.009 -0.023 -0.005
C43 0.073 0.167 0.051 0.001 -0.001 -0.026
C44 0.204 0.245 0.152 -0.122 -0.057 0.126
C45 0.179 0.283 0.117 0.051 -0.084 -0.073
N1 0.093 0.137 0.063 0.003 -0.016 -0.019
O1 0.035(2) 0.043(2) 0.046(2) 0.0068(17) -0.0036(18) -0.0036(15)
O2 0.036(2) 0.054(2) 0.045(2) 0.0114(18) -0.0007(17) -0.0019(18)
O3 0.069(3) 0.0287(18) 0.0496(19) 0.0006(17) 0.010(2) 0.0011(18)
O4 0.056(2) 0.034(2) 0.048(2) -0.0043(16) 0.0046(19) -0.0087(18)
O5 0.035(2) 0.030(2) 0.0456(19) -0.0021(15) -0.0063(16) 0.0012(15)
O6 0.103(4) 0.125(5) 0.076(3) -0.062(3) -0.050(3) 0.081(3)
O7 0.044(2) 0.039(2) 0.057(2) 0.0002(17) 0.0044(19) -0.0059(18)
O8 0.048 0.0273 0.053 0.001 0.0031 -0.0024
O9 0.057 0.0261 0.048 -0.002 0.0042 0.0038
O10 0.042 0.046 0.046 -0.0048 0.0021 0.0142
O11 0.043 0.045 0.0414 -0.0036 0 0.0109
O12 0.051 0.035 0.0429 0.0063 -0.001 -0.0072
O13 0.034 0.024 0.0471 0.0032 0.0018 -0.0011
O14 0.032 0.0295 0.0419 0.0026 0.0008 0.0005
O15 0.046 0.039 0.056 -0.0061 0.0065 -0.0081
O16 0.095(5) 0.172(7) 0.136(5) 0.046(5) -0.016(4) -0.022(4)
O17 0.043 0.048 0.0455 -0.003 -0.0025 -0.0011
Co1F 0.0373 0.0249 0.0457 0.0049 0.0058 0.0005
Co1E 0.0373 0.0249 0.0457 -0.0049 0.0058 -0.0005
Co2F 0.0313 0.0247 0.037 0.0025 -0.0004 -0.0026
Co2E 0.0313 0.0247 0.037 -0.0025 -0.0004 0.0026
Co2G 0.0313 0.0247 0.037 -0.0025 0.0004 -0.0026
Co2A 0.0313 0.0247 0.037 -0.0025 -0.0004 0.0026
Co2D 0.0313 0.0247 0.037 0.0025 0.0004 0.0026
Co3F 0.0338 0.0246 0.0392 -0.0018 -0.0013 0.0004
Co3C 0.0338 0.0246 0.0392 0.0018 0.0013 0.0004
O3F 0.069 0.0287 0.0496 0.0006 -0.01 -0.0011
O4F 0.056 0.034 0.048 -0.0043 -0.0046 0.0087
O5E 0.035 0.03 0.0456 0.0021 0.0063 0.0012
O6E 0.103 0.125 0.076 0.062 0.05 0.081
O8G 0.048(2) 0.0273(19) 0.053(2) -0.0010(15) 0.0031(19) 0.0024(17)
O10A 0.042 0.046 0.046 0.0048 -0.0021 0.0142
O11F 0.043 0.045 0.0414 -0.0036 0 -0.0109
O12C 0.051 0.035 0.0429 -0.0063 -0.001 0.0072
O13D 0.034 0.024 0.0471 0.0032 0.0018 -0.0011
O13C 0.034 0.024 0.0471 -0.0032 0.0018 0.0011
loop_
_geom_bond_atom_site_label_1
_geom_bond_atom_site_label_2
_geom_bond_site_symmetry_1
_geom_bond_site_symmetry_2
Co1 O1 1_555 1_555
Co2 O2 1_555 1_555
Co3 O9 1_555 1_555
P1 C1 1_555 1_555
P2 C22 1_555 1_555
C1 C2 1_555 1_555
C2 H1 1_555 1_555
C3 C2 1_555 1_555
H2 C3 1_555 1_555
C4 C3 1_555 1_555
C5 C4 1_555 1_555
C6 C4 1_555 1_555
H3 C6 1_555 1_555
C7 C1 1_555 1_555
H4 C7 1_555 1_555
C8 P1 1_555 1_555
C9 C8 1_555 1_555
H5 C9 1_555 1_555
C10 C9 1_555 1_555
H6 C10 1_555 1_555
C11 C10 1_555 1_555
C12 C11 1_555 1_555
C13 C11 1_555 1_555
H7 C13 1_555 1_555
C14 C8 1_555 1_555
H8 C14 1_555 1_555
C15 P1 1_555 1_555
C16 C15 1_555 1_555
H9 C16 1_555 1_555
C17 C16 1_555 1_555
H10 C17 1_555 1_555
C18 C17 1_555 1_555
C19 C18 1_555 1_555
C20 C18 1_555 1_555
H11 C20 1_555 1_555
C21 C15 1_555 1_555
H12 C21 1_555 1_555
C22 C23 1_555 1_555
C23 H13 1_555 1_555
C24 C23 1_555 1_555
H14 C24 1_555 1_555
C25 C24 1_555 1_555
C26 C25 1_555 1_555
C27 C25 1_555 1_555
H15 C27 1_555 1_555
C28 C22 1_555 1_555
H16 C28 1_555 1_555
C29 P2 1_555 1_555
C30 C29 1_555 1_555
H17 C30 1_555 1_555
C31 C30 1_555 1_555
H18 C31 1_555 1_555
C32 C31 1_555 1_555
C33 C32 1_555 1_555
C34 C32 1_555 1_555
H19 C34 1_555 1_555
C35 C29 1_555 1_555
H20 C35 1_555 1_555
C36 P2 1_555 1_555
C37 C36 1_555 1_555
H21 C37 1_555 1_555
C38 C37 1_555 1_555
H22 C38 1_555 1_555
C39 C38 1_555 1_555
C40 C39 1_555 1_555
C41 C39 1_555 1_555
H23 C41 1_555 1_555
C42 C36 1_555 1_555
H24 C42 1_555 1_555
C43 H25 1_555 1_555
C44 H26 1_555 1_555
H27 C44 1_555 1_555
H28 C44 1_555 1_555
C45 H29 1_555 1_555
H30 C45 1_555 1_555
H31 C45 1_555 1_555
N1 C43 1_555 1_555
O1 C5 1_555 1_555
O2 C5 1_555 1_555
O3 C12 1_555 1_555
O4 C12 1_555 1_555
O5 C19 1_555 1_555
O6 C19 1_555 1_555
O7 P1 1_555 1_555
O8 C26 1_555 1_555
O9 C26 1_555 1_555
O10 C33 1_555 1_555
O11 C33 1_555 1_555
O12 C40 1_555 1_555
O13 C40 1_555 1_555
O14 Co1 1_555 1_555
O15 Co3 1_555 1_555
O16 Co1 1_555 1_555
O17 Co3 1_555 1_555
Co1F O3 1_555 1_555
Co1E O5 1_555 1_555
Co2F O4 1_555 1_555
Co2E O5 1_555 1_555
Co2G O8 1_555 1_555
Co2A O10 1_555 1_555
Co2D O13 1_555 1_555
Co3F O11 1_555 1_555
Co3C O12 1_555 1_555
O3F Co1 1_555 1_555
O4F Co2 1_555 1_555
O5E Co1 1_555 1_555
O6E Co1 1_555 1_555
O8G Co2 1_555 1_555
O10A Co2 1_555 1_555
O11F Co3 1_555 1_555
O12C Co3 1_555 1_555
O13D Co2 1_555 1_555
O13C Co3 1_555 1_555
Co2 O5E 1_555 1_555
P2 O14 1_555 1_555
C6 C7 1_555 1_555
C13 C14 1_555 1_555
C20 C21 1_555 1_555
C27 C28 1_555 1_555
C34 C35 1_555 1_555
C41 C42 1_555 1_555
C43 O17 1_555 1_555
C44 N1 1_555 1_555
C45 N1 1_555 1_555
O6 Co1E 1_555 1_555
O13 Co3C 1_555 1_555
Co2G O13C 1_555 1_555

#END
