
#######################################################################
#
#                 Cambridge Crystallographic Data Centre
#                                CCDC 
#
#######################################################################
#
# If this CIF has been generated from an entry in the Cambridge 
# Structural Database, then it will include bibliographic, chemical, 
# crystal, experimental, refinement or atomic coordinate data resulting 
# from the CCDC's data processing and validation procedures.
#
#######################################################################

data_FOKYIP
_chemical_formula_moiety         '(C19 H19 Nd1 O8 S2)n'
_symmetry_cell_setting           monoclinic
_symmetry_space_group_name_H-M   'C 2/c'
_symmetry_Int_Tables_number      15
_space_group_name_Hall           '-C 2yc'
loop_
_symmetry_equiv_pos_site_id
_symmetry_equiv_pos_as_xyz
1 x,y,z
2 -x,y,1/2-z
3 1/2+x,1/2+y,z
4 1/2-x,1/2+y,1/2-z
5 -x,-y,-z
6 x,-y,1/2+z
7 1/2-x,1/2-y,-z
8 1/2+x,1/2-y,1/2+z
_cell_length_a                   24.8718(8)
_cell_length_b                   13.7591(4)
_cell_length_c                   13.6832(4)
_cell_angle_alpha                90
_cell_angle_beta                 98.949(3)
_cell_angle_gamma                90
_cell_volume                     4625.58
loop_
_atom_site_label
_atom_site_type_symbol
_atom_site_fract_x
_atom_site_fract_y
_atom_site_fract_z
_atom_site_U_iso_or_equiv
_atom_site_thermal_displace_type
Nd1 Nd 0.169935(4) 0.215976(8) 0.461143(7) 0.0136 Uani
C1 C 0.07445(8) 0.28171(17) 0.53794(17) 0.0219 Uani
C2 C 0.02339(8) 0.31325(18) 0.57545(16) 0.0223 Uani
C3 C -0.01509(9) 0.2441(2) 0.5928(2) 0.0417 Uani
H1 H -0.0079 0.1780 0.5880 0.0500 Uiso
C4 C -0.06421(10) 0.2756(2) 0.6174(2) 0.0459 Uani
H2 H -0.0901 0.2296 0.6279 0.0550 Uiso
C5 C -0.07611(8) 0.37343(18) 0.62696(16) 0.0237 Uani
C6 C -0.03703(8) 0.4411(2) 0.61123(18) 0.0316 Uani
H3 H -0.0438 0.5072 0.6169 0.0380 Uiso
C7 C 0.01210(9) 0.40952(19) 0.58702(18) 0.0320 Uani
H4 H 0.0384 0.4554 0.5783 0.0380 Uiso
C8 C -0.13128(8) 0.40076(18) 0.64894(16) 0.0233 Uani
C9 C -0.15327(8) 0.34646(18) 0.71905(16) 0.0244 Uani
H5 H -0.1322 0.2991 0.7553 0.0290 Uiso
C10 C -0.20685(8) 0.36262(17) 0.73541(15) 0.0197 Uani
C11 C -0.23788(8) 0.43227(18) 0.67891(15) 0.0213 Uani
H6 H -0.2743 0.4402 0.6852 0.0260 Uiso
C12 C -0.21507(7) 0.49013(17) 0.61314(14) 0.0179 Uani
C13 C -0.16117(8) 0.47531(17) 0.59998(15) 0.0197 Uani
H7 H -0.1454 0.5159 0.5581 0.0240 Uiso
C14 C -0.22852(8) 0.30586(17) 0.81514(16) 0.0187 Uani
C15 C -0.24955(8) 0.56796(15) 0.55919(14) 0.0150 Uani
C16 C 0.0602(3) 0.3410(7) 0.1628(5) 0.1487 Uani
H8 H 0.0291 0.3089 0.1819 0.2230 Uiso
H9 H 0.0567 0.3423 0.0919 0.2230 Uiso
H10 H 0.0622 0.4063 0.1878 0.2230 Uiso
C17 C 0.1597(3) 0.3526(7) 0.1840(6) 0.1487 Uani
H11 H 0.1952 0.3257 0.2052 0.2230 Uiso
H12 H 0.1564 0.4132 0.2172 0.2230 Uiso
H13 H 0.1546 0.3632 0.1138 0.2230 Uiso
C18 C 0.18028(13) -0.0667(3) 0.3259(3) 0.0644 Uani
H14 H 0.2144 -0.0376 0.3531 0.0960 Uiso
H15 H 0.1859 -0.1122 0.2753 0.0960 Uiso
H16 H 0.1654 -0.0999 0.3772 0.0960 Uiso
C19 C 0.07698(14) -0.0466(3) 0.2355(3) 0.0720 Uani
H17 H 0.0646 -0.0739 0.2926 0.1080 Uiso
H18 H 0.0868 -0.0980 0.1942 0.1080 Uiso
H19 H 0.0484 -0.0083 0.1990 0.1080 Uiso
O1 O 0.10647(6) 0.34469(13) 0.51580(13) 0.0348 Uani
O2 O 0.08320(6) 0.19170(13) 0.52801(13) 0.0297 Uani
O3 O -0.22779(5) 0.64288(11) 0.52902(11) 0.0212 Uani
O4 O -0.30057(5) 0.55746(12) 0.54456(12) 0.0246 Uani
O5 O -0.27723(5) 0.32574(14) 0.82768(11) 0.0283 Uani
O6 O -0.19849(6) 0.24627(13) 0.86159(11) 0.0234 Uani
O7 O 0.12417(9) 0.30138(17) 0.31511(15) 0.0544 Uani
O8 O 0.12051(6) 0.08501(14) 0.36065(12) 0.0361 Uani
S1 S 0.11625(6) 0.28143(10) 0.20900(8) 0.0661 Uani
S2 S 0.13352(3) 0.02684(6) 0.27314(5) 0.0466 Uani
Nd1A Nd -0.169935(4) 0.215976(8) 1.038857(7) 0.0136 Uani
Nd1B Nd -0.330065(4) 0.715976(8) 0.461143(7) 0.0136 Uani
Nd1D Nd -0.169935(4) 0.784024(8) 0.538857(7) 0.0136 Uani
Nd1G Nd -0.330065(4) 0.284024(8) 0.961143(7) 0.0136 Uani
O3B O 0.27221(5) 0.14288(11) 0.52902(11) 0.0212 Uani
O3D O 0.22779(5) 0.35712(11) 0.47098(11) 0.0212 Uani
O4B O 0.19943(5) 0.05746(12) 0.54456(12) 0.0246 Uani
O5G O 0.22277(5) 0.17426(14) 0.32768(11) 0.0283 Uani
O6A O 0.19849(6) 0.24627(13) 0.63841(11) 0.0234 Uani
loop_
_atom_site_aniso_label
_atom_site_aniso_U_11
_atom_site_aniso_U_22
_atom_site_aniso_U_33
_atom_site_aniso_U_23
_atom_site_aniso_U_13
_atom_site_aniso_U_12
Nd1 0.01086(5) 0.01487(6) 0.01589(6) -0.00039(4) 0.00470(4) 0.00126(4)
C1 0.0155(9) 0.0275(13) 0.0242(11) 0.0067(9) 0.0077(8) 0.0043(9)
C2 0.0148(9) 0.0284(12) 0.0253(10) 0.0023(10) 0.0081(8) 0.0039(9)
C3 0.0330(11) 0.0217(12) 0.0790(18) 0.0119(13) 0.0353(11) 0.0082(11)
C4 0.0293(11) 0.0278(14) 0.089(2) 0.0190(13) 0.0356(12) 0.0051(10)
C5 0.0176(9) 0.0280(12) 0.0284(10) 0.0121(10) 0.0127(8) 0.0066(9)
C6 0.0231(9) 0.0257(13) 0.0502(13) -0.0028(12) 0.0186(9) 0.0029(10)
C7 0.0210(9) 0.0295(14) 0.0495(13) 0.0024(12) 0.0176(9) -0.0015(10)
C8 0.0155(8) 0.0276(12) 0.0296(10) 0.0071(10) 0.0124(8) 0.0006(9)
C9 0.0199(9) 0.0267(12) 0.0285(10) 0.0108(10) 0.0096(8) 0.0061(10)
C10 0.0144(8) 0.0251(12) 0.0218(9) 0.0039(9) 0.0093(7) 0.0017(9)
C11 0.0134(8) 0.0309(12) 0.0211(9) 0.0038(10) 0.0073(7) 0.0055(9)
C12 0.0172(8) 0.0197(11) 0.0183(9) 0.0006(9) 0.0075(7) 0.0000(9)
C13 0.0210(9) 0.0197(11) 0.0202(9) 0.0064(9) 0.0090(8) 0.0038(9)
C14 0.0170(9) 0.0221(11) 0.0180(9) 0.0056(9) 0.0054(8) 0.0028(9)
C15 0.0192(8) 0.0118(10) 0.0152(8) 0.0007(8) 0.0067(7) 0.0041(8)
C16 0.115(3) 0.165(5) 0.148(4) -0.049(4) -0.036(3) 0.037(4)
C17 0.115(3) 0.165(5) 0.148(4) -0.049(4) -0.036(3) 0.037(4)
C18 0.0667(18) 0.047(2) 0.084(2) -0.0105(19) 0.0257(17) 0.0041(17)
C19 0.076(2) 0.064(2) 0.075(2) -0.0313(19) 0.0082(19) -0.023(2)
O1 0.0260(7) 0.0300(9) 0.0549(9) 0.0067(9) 0.0268(6) 0.0055(7)
O2 0.0196(7) 0.0255(9) 0.0469(9) -0.0015(8) 0.0142(7) 0.0022(7)
O3 0.0212(6) 0.0177(8) 0.0263(7) 0.0047(7) 0.0084(6) 0.0017(6)
O4 0.0166(6) 0.0200(8) 0.0363(8) 0.0060(7) 0.0017(6) 0.0017(6)
O5 0.0137(6) 0.0463(11) 0.0278(7) 0.0137(8) 0.0123(6) 0.0045(7)
O6 0.0235(7) 0.0263(8) 0.0228(7) 0.0083(7) 0.0107(6) 0.0037(7)
O7 0.0673(13) 0.0602(14) 0.0304(10) 0.0098(10) -0.0093(10) 0.0174(11)
O8 0.0301(7) 0.0437(11) 0.0357(8) -0.0151(9) 0.0089(7) -0.0120(8)
S1 0.0939(9) 0.0681(8) 0.0306(5) 0.0000(5) -0.0084(6) 0.0067(7)
S2 0.0514(4) 0.0470(4) 0.0437(3) -0.0115(3) 0.0150(3) -0.0131(3)
Nd1A 0.01086 0.01487 0.01589 0.00039 0.0047 -0.00126
Nd1B 0.01086 0.01487 0.01589 -0.00039 0.0047 0.00126
Nd1D 0.01086 0.01487 0.01589 -0.00039 0.0047 0.00126
Nd1G 0.01086 0.01487 0.01589 0.00039 0.0047 -0.00126
O3B 0.0212 0.0177 0.0263 0.0047 0.0084 0.0017
O3D 0.0212 0.0177 0.0263 0.0047 0.0084 0.0017
O4B 0.0166 0.02 0.0363 0.006 0.0017 0.0017
O5G 0.0137 0.0463 0.0278 -0.0137 0.0123 -0.0045
O6A 0.0235 0.0263 0.0228 -0.0083 0.0107 -0.0037
loop_
_geom_bond_atom_site_label_1
_geom_bond_atom_site_label_2
_geom_bond_site_symmetry_1
_geom_bond_site_symmetry_2
Nd1 O1 1_555 1_555
C1 C2 1_555 1_555
C2 C3 1_555 1_555
C3 H1 1_555 1_555
C4 C3 1_555 1_555
H2 C4 1_555 1_555
C5 C4 1_555 1_555
C6 C5 1_555 1_555
H3 C6 1_555 1_555
C7 C2 1_555 1_555
H4 C7 1_555 1_555
C8 C5 1_555 1_555
C9 C8 1_555 1_555
H5 C9 1_555 1_555
C10 C9 1_555 1_555
C11 C10 1_555 1_555
H6 C11 1_555 1_555
C12 C11 1_555 1_555
C13 C8 1_555 1_555
H7 C13 1_555 1_555
C14 C10 1_555 1_555
C15 C12 1_555 1_555
C16 H8 1_555 1_555
H9 C16 1_555 1_555
H10 C16 1_555 1_555
C17 H11 1_555 1_555
H12 C17 1_555 1_555
H13 C17 1_555 1_555
C18 H14 1_555 1_555
H15 C18 1_555 1_555
H16 C18 1_555 1_555
C19 H17 1_555 1_555
H18 C19 1_555 1_555
H19 C19 1_555 1_555
O1 C1 1_555 1_555
O2 Nd1 1_555 1_555
O3 C15 1_555 1_555
O4 C15 1_555 1_555
O5 C14 1_555 1_555
O6 C14 1_555 1_555
O7 Nd1 1_555 1_555
O8 Nd1 1_555 1_555
S1 C16 1_555 1_555
S2 C18 1_555 1_555
Nd1A O6 1_555 1_555
Nd1B O3 1_555 1_555
Nd1D O3 1_555 1_555
Nd1G O5 1_555 1_555
O3B Nd1 1_555 1_555
O3D Nd1 1_555 1_555
O4B Nd1 1_555 1_555
O5G Nd1 1_555 1_555
O6A Nd1 1_555 1_555
C1 O2 1_555 1_555
C6 C7 1_555 1_555
C12 C13 1_555 1_555
C17 S1 1_555 1_555
C19 S2 1_555 1_555
O4 Nd1B 1_555 1_555
O7 S1 1_555 1_555
O8 S2 1_555 1_555

#END
