
#######################################################################
#
#                 Cambridge Crystallographic Data Centre
#                                CCDC 
#
#######################################################################
#
# If this CIF has been generated from an entry in the Cambridge 
# Structural Database, then it will include bibliographic, chemical, 
# crystal, experimental, refinement or atomic coordinate data resulting 
# from the CCDC's data processing and validation procedures.
#
#######################################################################

data_NIRDAT
_chemical_formula_moiety         'C4 H8 F1 Ga5 N1 O13 P1'
_symmetry_cell_setting           tetragonal
_symmetry_space_group_name_H-M   'P 42/n c m'
_symmetry_Int_Tables_number      138
_space_group_name_Hall           '-P 4ac 2ac'
loop_
_symmetry_equiv_pos_site_id
_symmetry_equiv_pos_as_xyz
1 x,y,z
2 1/2-y,x,1/2+z
3 y,1/2-x,1/2+z
4 1/2+y,1/2+x,-z
5 1/2+x,1/2+y,-z
6 x,1/2-y,1/2+z
7 1/2-x,y,1/2+z
8 y,x,z
9 -x,-y,-z
10 1/2+y,-x,1/2-z
11 -y,1/2+x,1/2-z
12 1/2-y,1/2-x,z
13 1/2-x,1/2-y,z
14 -x,1/2+y,1/2-z
15 1/2+x,-y,1/2-z
16 -y,-x,-z
_cell_length_a                   10.043(7)
_cell_length_b                   10.043(7)
_cell_length_c                   13.828(10)
_cell_angle_alpha                90
_cell_angle_beta                 90
_cell_angle_gamma                90
_cell_volume                     1394.72
loop_
_atom_site_label
_atom_site_type_symbol
_atom_site_fract_x
_atom_site_fract_y
_atom_site_fract_z
_atom_site_U_iso_or_equiv
_atom_site_thermal_displace_type
Ga1 Ga 0.0000 0.0000 0.0000 0.0189 Uani
Ga2 Ga -0.12360(8) -0.12360(8) -0.17792(7) 0.0140 Uani
P1 P 0.0976(2) 0.0976(2) -0.2083(2) 0.0136 Uani
F1 F -0.2500 -0.2500 -0.1128(5) 0.0157 Uani
O1 O 0.0999(4) 0.0999(4) -0.0957(4) 0.0180 Uani
O2 O -0.0033(4) -0.0033(4) -0.2445(4) 0.0153 Uani
O3 O 0.0601(5) 0.2366(4) -0.2430(3) 0.0200 Uani
O4 O 0.1636(4) -0.0107(4) 0.0761(3) 0.0193 Uani
O1H O -0.0999(4) -0.0999(4) 0.0957(4) 0.0180 Uani
O4G O -0.0107(4) 0.1636(4) 0.0761(3) 0.0193 Uani
O4H O -0.1636(4) 0.0107(4) -0.0761(3) 0.0193 Uani
O4O O 0.0107(4) -0.1636(4) -0.0761(3) 0.0193 Uani
O3I O -0.2634(4) -0.0601(5) -0.2570(3) 0.0200 Uani
O3M O -0.0601(5) -0.2634(4) -0.2570(3) 0.0200 Uani
O3G O 0.2366(4) 0.0601(5) -0.2430(3) 0.0200 Uani
Ga2K Ga -0.37640(8) -0.37640(8) -0.17792(7) 0.0140 Uani
Ga2J Ga 0.12360(8) 0.37640(8) -0.32208(7) 0.0140 Uani
Ga2H Ga 0.12360(8) 0.12360(8) 0.17792(7) 0.0140 Uani
N1 N 0.3817(7) 0.1183(7) -0.0535(7) 0.0393 Uani
H1 H 0.2922(7) 0.1193(7) -0.0551(7) 0.0510 Uiso
H2 H 0.4098(7) 0.1937(7) -0.0224(7) 0.0510 Uiso
H3 H 0.4137(7) 0.1203(7) -0.1143(7) 0.0510 Uiso
C1 C 0.4305(13) 0.0033(15) -0.0035(17) 0.0540 Uani
H4 H 0.3992(13) -0.0751(15) -0.0362(17) 0.0710 Uiso
H1K H 0.3807(7) 0.2078(7) -0.0551(7) 0.0510 Uiso
H2K H 0.3063(7) 0.0902(7) -0.0224(7) 0.0510 Uiso
H3K H 0.3797(7) 0.0863(7) -0.1143(7) 0.0510 Uiso
C1K C 0.4967(15) 0.0695(13) -0.0035(17) 0.0540 Uani
C1C C 0.5033(15) -0.0695(13) 0.0035(17) 0.0540 Uani
C1H C 0.5695(13) -0.0033(15) 0.0035(17) 0.0540 Uani
H4C H 0.4249(15) -0.1008(13) 0.0362(17) 0.0710 Uiso
O5 O 0.2646(15) -0.2079(12) -0.1421(8) 0.0757 Uani
O5L O 0.2354(15) -0.2921(12) -0.1421(8) 0.0757 Uani
loop_
_atom_site_aniso_label
_atom_site_aniso_U_11
_atom_site_aniso_U_22
_atom_site_aniso_U_33
_atom_site_aniso_U_23
_atom_site_aniso_U_13
_atom_site_aniso_U_12
Ga1 0.0248(8) 0.0248(8) 0.0072(9) -0.0002(6) -0.0002(6) -0.0097(8)
Ga2 0.0168(6) 0.0168(6) 0.0084(8) -0.0006(4) -0.0006(4) -0.0018(5)
P1 0.0168(9) 0.0168(9) 0.0072(14) 0.0005(8) 0.0005(8) -0.0028(11)
F1 0.020(3) 0.020(3) 0.007(4) 0.000 0.000 -0.001(3)
O1 0.022(2) 0.022(2) 0.010(3) 0.001(2) 0.001(2) -0.007(2)
O2 0.019(2) 0.019(2) 0.008(2) 0.000(2) 0.000(2) -0.004(2)
O3 0.022 0.02 0.018 0.003 0.007 0
O4 0.023(2) 0.022(2) 0.013(2) 0.000(2) 0.000(2) 0.001(2)
O1H 0.022 0.022 0.01 0.001 0.001 -0.007
O4G 0.022 0.023 0.013 0 0 0.001
O4H 0.023 0.022 0.013 0 0 0.001
O4O 0.022 0.023 0.013 0 0 0.001
O3I 0.02 0.022 0.018 0.007 -0.003 0
O3M 0.022 0.02 0.018 -0.003 0.007 0
O3G 0.02 0.022 0.018 0.007 0.003 0
Ga2K 0.0168 0.0168 0.0084 0.0006 0.0006 -0.0018
Ga2J 0.0168 0.0168 0.0084 0.0006 -0.0006 0.0018
Ga2H 0.0168 0.0168 0.0084 -0.0006 -0.0006 -0.0018
N1 0.044(4) 0.044(4) 0.030(5) -0.002(4) 0.002(4) -0.001(5)
C1 0.026(10) 0.028(10) 0.108(13) 0.001(12) -0.021(11) 0.001(8)
C1K 0.028 0.026 0.108 0.021 -0.001 0.001
C1C 0.028 0.026 0.108 0.021 -0.001 0.001
C1H 0.026 0.028 0.108 0.001 -0.021 0.001
O5 0.070(7) 0.069(8) 0.088(6) 0.012(5) 0.004(6) 0.001(6)
O5L 0.07 0.069 0.088 -0.012 -0.004 0.001
loop_
_geom_bond_atom_site_label_1
_geom_bond_atom_site_label_2
_geom_bond_site_symmetry_1
_geom_bond_site_symmetry_2
Ga1 O1 1_555 1_555
Ga2 F1 1_555 1_555
P1 O1 1_555 1_555
F1 Ga2K 1_555 1_555
O2 Ga2 1_555 1_555
O3 P1 1_555 1_555
O4 Ga1 1_555 1_555
N1 H1 1_555 1_555
H1 H2K 1_555 1_555
H2 N1 1_555 1_555
H3 N1 1_555 1_555
C1 N1 1_555 1_555
H4 C1 1_555 1_555
O5 O5L 1_555 1_555
O1H Ga1 1_555 1_555
O4G Ga1 1_555 1_555
O4H Ga1 1_555 1_555
O4O Ga1 1_555 1_555
O3I Ga2 1_555 1_555
O3M Ga2 1_555 1_555
O3G P1 1_555 1_555
Ga2J O3 1_555 1_555
Ga2H O4 1_555 1_555
H1K N1 1_555 1_555
H2K N1 1_555 1_555
H3K N1 1_555 1_555
C1K N1 1_555 1_555
C1C C1 1_555 1_555
C1H C1 1_555 1_555
H4C C1 1_555 1_555
Ga2 O4H 1_555 1_555
Ga2 O4O 1_555 1_555
P1 O2 1_555 1_555
H2 H1K 1_555 1_555
H3 H3K 1_555 1_555
C1 C1K 1_555 1_555
H4 C1C 1_555 1_555
O4G Ga2H 1_555 1_555
C1K C1H 1_555 1_555
C1K C1C 1_555 1_555
C1C C1H 1_555 1_555
C1C H4C 1_555 1_555

#END
