
#######################################################################
#
#                 Cambridge Crystallographic Data Centre
#                                CCDC 
#
#######################################################################
#
# If this CIF has been generated from an entry in the Cambridge 
# Structural Database, then it will include bibliographic, chemical, 
# crystal, experimental, refinement or atomic coordinate data resulting 
# from the CCDC's data processing and validation procedures.
#
#######################################################################

data_QUQZOS
_chemical_formula_moiety         'C24 H12 Cd3 N28 Na1'
_symmetry_cell_setting           trigonal
_symmetry_space_group_name_H-M   'P -3 1 c'
_symmetry_Int_Tables_number      163
_space_group_name_Hall           '-P 3 2c'
loop_
_symmetry_equiv_pos_site_id
_symmetry_equiv_pos_as_xyz
1 x,y,z
2 -y,x-y,z
3 -x+y,-x,z
4 -y,-x,1/2-z
5 -x+y,y,1/2-z
6 x,x-y,1/2-z
7 -x,-y,-z
8 y,-x+y,-z
9 x-y,x,-z
10 y,x,1/2+z
11 x-y,-y,1/2+z
12 -x,-x+y,1/2+z
_cell_length_a                   10.8014(5)
_cell_length_b                   10.8014(5)
_cell_length_c                   13.6319(12)
_cell_angle_alpha                90
_cell_angle_beta                 90
_cell_angle_gamma                120
_cell_volume                     1377.36
loop_
_atom_site_label
_atom_site_type_symbol
_atom_site_fract_x
_atom_site_fract_y
_atom_site_fract_z
Na1 Na 0.3333 0.6667 0.2500
Cd2 Cd 0.6667 0.3333 0.2500
C1 C 0.4704(7) 0.4637(7) 0.2889(9)
N1 N 0.5023(6) 0.3722(6) 0.3387(6)
N2 N 0.3764(7) 0.4909(7) 0.3397(6)
N3 N 0.4139(15) 0.3303(13) 0.4065(10)
N4 N 0.3434(14) 0.3963(16) 0.4062(10)
C2 C 0.3129(19) 0.435(2) 0.4500(18)
C3 C 0.3474(18) 0.3367(17) 0.4883(14)
H2 H 0.3016 0.2884 0.5454
C4 C 0.445(2) 0.307(2) 0.4465(15)
H3 H 0.4775 0.2526 0.4788
Cd2A Cd 0.6667 1.3334 0.2500
Cd2B Cd -0.3334 0.3333 0.2500
C1C C 0.5363(7) 0.5296(7) 0.2111(9)
C1A C 0.5363(7) 1.0067(10) 0.2889(9)
C1E C 0.4704(7) 1.0067(10) 0.2111(9)
C1B C -0.0067(10) 0.5296(7) 0.2889(9)
C1D C -0.0067(10) 0.4637(7) 0.2111(9)
N1C N 0.6278(6) 0.4977(6) 0.1613(6)
N1A N 0.6278(6) 1.1301(8) 0.3387(6)
N1E N 0.5023(6) 1.1301(8) 0.1613(6)
N1B N -0.1301(8) 0.4977(6) 0.3387(6)
N1D N -0.1301(8) 0.3722(6) 0.1613(6)
N1A_2 N 0.6278(6) 0.1301(8) 0.3387(6)
N1B_2 N 0.8699(8) 0.4977(6) 0.3387(6)
N1D_2 N 0.8699(8) 0.3722(6) 0.1613(6)
N1E_2 N 0.5023(6) 0.1301(8) 0.1613(6)
N2C N 0.5091(7) 0.6236(7) 0.1603(6)
N2A N 0.5091(7) 0.8855(10) 0.3397(6)
N2E N 0.3764(7) 0.8855(10) 0.1603(6)
N2B N 0.1145(10) 0.6236(7) 0.3397(6)
N2D N 0.1145(10) 0.4909(7) 0.1603(6)
N3C N 0.6697(13) 0.5861(15) 0.0935(10)
N3A N 0.6697(13) 1.0836(20) 0.4065(10)
N3E N 0.4139(15) 1.0836(20) 0.0935(10)
N3B N -0.0836(20) 0.5861(15) 0.4065(10)
N3D N -0.0836(20) 0.3303(13) 0.0935(10)
N4C N 0.6037(16) 0.6566(14) 0.0938(10)
N4A N 0.6037(16) 0.9471(21) 0.4062(10)
N4E N 0.3434(14) 0.9471(21) 0.0938(10)
N4B N 0.0529(21) 0.6566(14) 0.4062(10)
N4D N 0.0529(21) 0.3963(16) 0.0938(10)
C2C C 0.565(2) 0.6871(19) 0.0500(18)
C2A C 0.565(2) 0.8779(28) 0.4500(18)
C2E C 0.3129(19) 0.8779(28) 0.0500(18)
C2B C 0.1221(28) 0.6871(19) 0.4500(18)
C2D C 0.1221(28) 0.435(2) 0.0500(18)
C3C C 0.6633(17) 0.6526(18) 0.0117(14)
C3A C 0.6633(17) 1.0107(25) 0.4883(14)
C3E C 0.3474(18) 1.0107(25) 0.0117(14)
C3B C -0.0107(25) 0.6526(18) 0.4883(14)
C3D C -0.0107(25) 0.3367(17) 0.0117(14)
H2C H 0.7116 0.6984 -0.0454
H2A H 0.7116 1.0132 0.5454
H2E H 0.3016 1.0132 -0.0454
H2B H -0.0132 0.6984 0.5454
H2D H -0.0132 0.2884 -0.0454
C4C C 0.693(2) 0.555(2) 0.0535(15)
C4A C 0.693(2) 1.138(3) 0.4465(15)
C4E C 0.445(2) 1.138(3) 0.0535(15)
C4B C -0.138(3) 0.555(2) 0.4465(15)
C4D C -0.138(3) 0.307(2) 0.0535(15)
H3C H 0.7474 0.5225 0.0212
H3A H 0.7474 1.2249 0.4788
H3E H 0.4775 1.2249 0.0212
H3B H -0.2249 0.5225 0.4788
H3D H -0.2249 0.2526 0.0212
loop_
_geom_bond_atom_site_label_1
_geom_bond_atom_site_label_2
_geom_bond_site_symmetry_1
_geom_bond_site_symmetry_2
Na1 N2 1_555 1_555
Cd2 N1 1_555 1_555
C1 N1 1_555 1_555
N1 N3 1_555 1_555
N2 C1 1_555 1_555
N3 N4 1_555 1_555
N4 N2 1_555 1_555
C2 N2 1_555 1_555
C3 N3 1_555 1_555
H2 C3 1_555 1_555
C4 N1 1_555 1_555
H3 C4 1_555 1_555
Cd2A N1A 1_555 1_555
Cd2B N1B 1_555 1_555
C1C C1 1_555 1_555
C1A C1E 1_555 1_555
C1E N1E 1_555 1_555
C1B C1D 1_555 1_555
C1D N1D 1_555 1_555
N1C Cd2 1_555 1_555
N1A C1A 1_555 1_555
N1E Cd2A 1_555 1_555
N1B C1B 1_555 1_555
N1D Cd2B 1_555 1_555
N1A_2 Cd2 1_555 1_555
N1B_2 Cd2 1_555 1_555
N1D_2 Cd2 1_555 1_555
N1E_2 Cd2 1_555 1_555
N2C Na1 1_555 1_555
N2A Na1 1_555 1_555
N2E Na1 1_555 1_555
N2B Na1 1_555 1_555
N2D Na1 1_555 1_555
N3C N1C 1_555 1_555
N3A N1A 1_555 1_555
N3E N1E 1_555 1_555
N3B N1B 1_555 1_555
N3D N1D 1_555 1_555
N4C N2C 1_555 1_555
N4A N2A 1_555 1_555
N4E N2E 1_555 1_555
N4B N2B 1_555 1_555
N4D N2D 1_555 1_555
C2C N2C 1_555 1_555
C2A N2A 1_555 1_555
C2E N2E 1_555 1_555
C2B N2B 1_555 1_555
C2D N2D 1_555 1_555
C3C N3C 1_555 1_555
C3A N3A 1_555 1_555
C3E N3E 1_555 1_555
C3B N3B 1_555 1_555
C3D N3D 1_555 1_555
H2C C3C 1_555 1_555
H2A C3A 1_555 1_555
H2E C3E 1_555 1_555
H2B C3B 1_555 1_555
H2D C3D 1_555 1_555
C4C N1C 1_555 1_555
C4A N1A 1_555 1_555
C4E N1E 1_555 1_555
C4B N1B 1_555 1_555
C4D N1D 1_555 1_555
H3C C4C 1_555 1_555
H3A C4A 1_555 1_555
H3E C4E 1_555 1_555
H3B C4B 1_555 1_555
H3D C4D 1_555 1_555
N3 C4 1_555 1_555
N4 C2 1_555 1_555
N4 C3 1_555 1_555
C2 C3 1_555 1_555
C3 C4 1_555 1_555
C1C N1C 1_555 1_555
C1C N2C 1_555 1_555
C1A N2A 1_555 1_555
C1E N2E 1_555 1_555
C1B N2B 1_555 1_555
C1D N2D 1_555 1_555
N3C N4C 1_555 1_555
N3C C4C 1_555 1_555
N3A N4A 1_555 1_555
N3A C4A 1_555 1_555
N3E N4E 1_555 1_555
N3E C4E 1_555 1_555
N3B N4B 1_555 1_555
N3B C4B 1_555 1_555
N3D N4D 1_555 1_555
N3D C4D 1_555 1_555
N4C C2C 1_555 1_555
N4C C3C 1_555 1_555
N4A C2A 1_555 1_555
N4A C3A 1_555 1_555
N4E C2E 1_555 1_555
N4E C3E 1_555 1_555
N4B C2B 1_555 1_555
N4B C3B 1_555 1_555
N4D C2D 1_555 1_555
N4D C3D 1_555 1_555
C2C C3C 1_555 1_555
C2A C3A 1_555 1_555
C2E C3E 1_555 1_555
C2B C3B 1_555 1_555
C2D C3D 1_555 1_555
C3C C4C 1_555 1_555
C3A C4A 1_555 1_555
C3E C4E 1_555 1_555
C3B C4B 1_555 1_555
C3D C4D 1_555 1_555

#END
