
#######################################################################
#
#                 Cambridge Crystallographic Data Centre
#                                CCDC 
#
#######################################################################
#
# If this CIF has been generated from an entry in the Cambridge 
# Structural Database, then it will include bibliographic, chemical, 
# crystal, experimental, refinement or atomic coordinate data resulting 
# from the CCDC's data processing and validation procedures.
#
#######################################################################

data_GAXGET01
_chemical_formula_moiety         '(C66 H40 Co3 N4 O15)n'
_symmetry_cell_setting           monoclinic
_symmetry_space_group_name_H-M   'C 2/c'
_symmetry_Int_Tables_number      15
_space_group_name_Hall           '-C 2yc'
loop_
_symmetry_equiv_pos_site_id
_symmetry_equiv_pos_as_xyz
1 x,y,z
2 -x,y,1/2-z
3 1/2+x,1/2+y,z
4 1/2-x,1/2+y,1/2-z
5 -x,-y,-z
6 x,-y,1/2+z
7 1/2-x,1/2-y,-z
8 1/2+x,1/2-y,1/2+z
_cell_length_a                   15.097(5)
_cell_length_b                   16.499(4)
_cell_length_c                   25.737(5)
_cell_angle_alpha                90
_cell_angle_beta                 90.92(3)
_cell_angle_gamma                90
_cell_volume                     6409.88
loop_
_atom_site_label
_atom_site_type_symbol
_atom_site_fract_x
_atom_site_fract_y
_atom_site_fract_z
_atom_site_U_iso_or_equiv
_atom_site_thermal_displace_type
Co1 Co 0.52980(5) 0.17785(4) -0.00556(3) 0.0313 Uani
Co2 Co 0.7500 0.2500 0.0000 0.0254 Uani
O1 O 0.6455(2) -0.2140(2) 0.44587(12) 0.0325 Uani
O2 O 0.5596(3) -0.1111(2) 0.42634(13) 0.0406 Uani
O3 O 0.7245(2) 0.1550(2) 0.05138(13) 0.0380 Uani
O4 O 0.5888(3) 0.0988(2) 0.04356(14) 0.0461 Uani
O5 O 0.6684(2) 0.3278(2) 0.04295(13) 0.0389 Uani
O6 O 0.5360(3) 0.2676(3) 0.04589(15) 0.0526 Uani
O7 O 0.5000 0.4695(3) 0.2500 0.0448 Uani
O8 O 0.7596(3) -0.1345(2) 0.21280(14) 0.0538 Uani
N1 N 0.4018(3) 0.1276(3) 0.00165(16) 0.0347 Uani
N2 N 0.4503(3) 0.2547(3) -0.05448(18) 0.0427 Uani
C1 C 0.4778(5) 0.3158(4) -0.0825(3) 0.0751 Uani
H1 H 0.5368 0.3317 -0.0796 0.0900 Uiso
C2 C 0.4220(6) 0.3573(5) -0.1162(4) 0.1003 Uani
H2 H 0.4434 0.4002 -0.1358 0.1210 Uiso
C3 C 0.3351(6) 0.3348(5) -0.1206(3) 0.0931 Uani
H3 H 0.2975 0.3624 -0.1434 0.1120 Uiso
C4 C 0.3024(5) 0.2713(4) -0.0914(3) 0.0544 Uani
C5 C 0.2140(5) 0.2442(5) -0.0922(3) 0.0645 Uani
H4 H 0.1724 0.2702 -0.1134 0.0770 Uiso
C6 C 0.1889(4) 0.1814(5) -0.0629(3) 0.0598 Uani
H5 H 0.1298 0.1655 -0.0638 0.0720 Uiso
C7 C 0.2500(4) 0.1384(4) -0.0304(2) 0.0426 Uani
C8 C 0.2283(4) 0.0701(4) -0.0017(3) 0.0595 Uani
H6 H 0.1705 0.0506 -0.0025 0.0710 Uiso
C9 C 0.2924(4) 0.0310(4) 0.0279(3) 0.0581 Uani
H7 H 0.2784 -0.0150 0.0470 0.0690 Uiso
C10 C 0.3788(4) 0.0621(4) 0.0286(2) 0.0459 Uani
H8 H 0.4219 0.0360 0.0487 0.0550 Uiso
C11 C 0.3379(3) 0.1648(3) -0.0281(2) 0.0343 Uani
C12 C 0.3650(4) 0.2313(3) -0.0585(2) 0.0380 Uani
C13 C 0.6212(4) -0.1581(3) 0.41403(19) 0.0324 Uani
C14 C 0.6603(3) -0.1507(3) 0.36128(19) 0.0323 Uani
C15 C 0.7153(4) -0.2107(3) 0.34165(19) 0.0354 Uani
H9 H 0.7311 -0.2551 0.3620 0.0430 Uiso
C16 C 0.7461(4) -0.2035(3) 0.2915(2) 0.0389 Uani
H10 H 0.7821 -0.2437 0.2779 0.0460 Uiso
C17 C 0.6386(4) -0.0850(3) 0.3309(2) 0.0456 Uani
H11 H 0.6026 -0.0446 0.3443 0.0540 Uiso
C18 C 0.6690(4) -0.0778(4) 0.2809(2) 0.0470 Uani
H12 H 0.6528 -0.0335 0.2605 0.0560 Uiso
C19 C 0.5957(4) 0.3136(3) 0.06301(19) 0.0323 Uani
C20 C 0.5748(3) 0.3540(3) 0.11426(18) 0.0293 Uani
C21 C 0.5071(4) 0.3223(4) 0.14364(19) 0.0377 Uani
H13 H 0.4778 0.2759 0.1322 0.0450 Uiso
C22 C 0.4821(4) 0.3584(3) 0.1898(2) 0.0389 Uani
H14 H 0.4359 0.3372 0.2090 0.0470 Uiso
C23 C 0.5272(4) 0.4264(3) 0.20659(18) 0.0326 Uani
C24 C 0.5963(4) 0.4570(3) 0.17905(19) 0.0346 Uani
H15 H 0.6277 0.5017 0.1915 0.0410 Uiso
C25 C 0.6193(4) 0.4210(3) 0.13231(19) 0.0355 Uani
H16 H 0.6653 0.4426 0.1131 0.0430 Uiso
C26 C 0.6663(4) 0.1045(3) 0.06335(19) 0.0320 Uani
C27 C 0.6896(4) 0.0428(3) 0.10512(18) 0.0307 Uani
C28 C 0.7701(4) 0.0453(4) 0.1303(2) 0.0421 Uani
H17 H 0.8102 0.0862 0.1225 0.0500 Uiso
C29 C 0.7921(4) -0.0129(4) 0.1672(2) 0.0471 Uani
H18 H 0.8468 -0.0111 0.1843 0.0570 Uiso
C30 C 0.7328(4) -0.0729(4) 0.1783(2) 0.0412 Uani
C31 C 0.6511(4) -0.0752(3) 0.1540(2) 0.0426 Uani
H19 H 0.6107 -0.1156 0.1621 0.0510 Uiso
C32 C 0.6294(4) -0.0168(3) 0.11734(19) 0.0367 Uani
H20 H 0.5741 -0.0177 0.1009 0.0440 Uiso
C33 C 0.7235(4) -0.1369(3) 0.2616(2) 0.0380 Uani
O5A O 0.3316(2) 0.3278(2) 0.45705(13) 0.0389 Uani
O6A O 0.4640(3) 0.2676(3) 0.45411(15) 0.0526 Uani
C19A C 0.4043(4) 0.3136(3) 0.43699(19) 0.0323 Uani
C20A C 0.4252(3) 0.3540(3) 0.38574(18) 0.0293 Uani
C21A C 0.4929(4) 0.3223(4) 0.35636(19) 0.0377 Uani
H13A H 0.5222 0.2759 0.3678 0.0450 Uiso
C22A C 0.5179(4) 0.3584(3) 0.3102(2) 0.0389 Uani
H14A H 0.5641 0.3372 0.2910 0.0470 Uiso
C23A C 0.4728(4) 0.4264(3) 0.29341(18) 0.0326 Uani
C24A C 0.4037(4) 0.4570(3) 0.32095(19) 0.0346 Uani
H15A H 0.3723 0.5017 0.3085 0.0410 Uiso
C25A C 0.3807(4) 0.4210(3) 0.36769(19) 0.0355 Uani
H16A H 0.3347 0.4426 0.3869 0.0430 Uiso
Co1A Co 0.47020(5) 0.17785(4) 0.50556(3) 0.0313 Uani
O1A O 0.3545(2) -0.2140(2) 0.05413(12) 0.0325 Uani
O2A O 0.4404(3) -0.1111(2) 0.07366(13) 0.0406 Uani
O3A O 0.2755(2) 0.1550(2) 0.44862(13) 0.0380 Uani
O4A O 0.4112(3) 0.0988(2) 0.45644(14) 0.0461 Uani
O8A O 0.2404(3) -0.1345(2) 0.28720(14) 0.0538 Uani
N1A N 0.5982(3) 0.1276(3) 0.49835(16) 0.0347 Uani
N2A N 0.5497(3) 0.2547(3) 0.55448(18) 0.0427 Uani
C1A C 0.5222(5) 0.3158(4) 0.5825(3) 0.0751 Uani
H1A H 0.4632 0.3317 0.5796 0.0900 Uiso
C2A C 0.5780(6) 0.3573(5) 0.6162(4) 0.1003 Uani
H2A H 0.5566 0.4002 0.6358 0.1210 Uiso
C3A C 0.6649(6) 0.3348(5) 0.6206(3) 0.0931 Uani
H3A H 0.7025 0.3624 0.6434 0.1120 Uiso
C4A C 0.6976(5) 0.2713(4) 0.5914(3) 0.0544 Uani
C5A C 0.7860(5) 0.2442(5) 0.5922(3) 0.0645 Uani
H4A H 0.8276 0.2702 0.6134 0.0770 Uiso
C6A C 0.8111(4) 0.1814(5) 0.5629(3) 0.0598 Uani
H5A H 0.8702 0.1655 0.5638 0.0720 Uiso
C7A C 0.7500(4) 0.1384(4) 0.5304(2) 0.0426 Uani
C8A C 0.7717(4) 0.0701(4) 0.5017(3) 0.0595 Uani
H6A H 0.8295 0.0506 0.5025 0.0710 Uiso
C9A C 0.7076(4) 0.0310(4) 0.4721(3) 0.0581 Uani
H7A H 0.7216 -0.0150 0.4530 0.0690 Uiso
C10A C 0.6212(4) 0.0621(4) 0.4714(2) 0.0459 Uani
H8A H 0.5781 0.0360 0.4513 0.0550 Uiso
C11A C 0.6621(3) 0.1648(3) 0.5281(2) 0.0343 Uani
C12A C 0.6350(4) 0.2313(3) 0.5585(2) 0.0380 Uani
C13A C 0.3788(4) -0.1581(3) 0.08597(19) 0.0324 Uani
C14A C 0.3397(3) -0.1507(3) 0.13872(19) 0.0323 Uani
C15A C 0.2847(4) -0.2107(3) 0.15835(19) 0.0354 Uani
H9A H 0.2689 -0.2551 0.1380 0.0430 Uiso
C16A C 0.2539(4) -0.2035(3) 0.2085(2) 0.0389 Uani
H10A H 0.2179 -0.2437 0.2221 0.0460 Uiso
C17A C 0.3614(4) -0.0850(3) 0.1691(2) 0.0456 Uani
H11A H 0.3974 -0.0446 0.1557 0.0540 Uiso
C18A C 0.3310(4) -0.0778(4) 0.2191(2) 0.0470 Uani
H12A H 0.3472 -0.0335 0.2395 0.0560 Uiso
C26A C 0.3337(4) 0.1045(3) 0.43665(19) 0.0320 Uani
C27A C 0.3104(4) 0.0428(3) 0.39488(18) 0.0307 Uani
C28A C 0.2299(4) 0.0453(4) 0.3697(2) 0.0421 Uani
H17A H 0.1898 0.0862 0.3775 0.0500 Uiso
C29A C 0.2079(4) -0.0129(4) 0.3328(2) 0.0471 Uani
H18A H 0.1532 -0.0111 0.3157 0.0570 Uiso
C30A C 0.2672(4) -0.0729(4) 0.3217(2) 0.0412 Uani
C31A C 0.3489(4) -0.0752(3) 0.3460(2) 0.0426 Uani
H19A H 0.3893 -0.1156 0.3379 0.0510 Uiso
C32A C 0.3706(4) -0.0168(3) 0.38266(19) 0.0367 Uani
H20A H 0.4259 -0.0177 0.3991 0.0440 Uiso
C33A C 0.2765(4) -0.1369(3) 0.2384(2) 0.0380 Uani
Co1D Co 0.47020(5) -0.17785(4) 0.00556(3) 0.0313 Uani
Co1E Co 0.52980(5) -0.17785(4) 0.49444(3) 0.0313 Uani
Co2A Co 0.2500 0.2500 0.5000 0.0254 Uani
Co2B Co 0.2500 -0.2500 0.0000 0.0254 Uani
Co2C Co 0.7500 -0.2500 0.5000 0.0254 Uani
O1C O 0.8545(2) 0.2860(2) 0.05413(12) 0.0325 Uani
O1D O 0.3545(2) 0.2140(2) 0.55413(12) 0.0325 Uani
O1E O 0.6455(2) 0.2140(2) -0.05413(12) 0.0325 Uani
O2D O 0.4404(3) 0.1111(2) 0.57366(13) 0.0406 Uani
O2E O 0.5596(3) 0.1111(2) -0.07366(13) 0.0406 Uani
O3F O 0.7755(2) 0.3450(2) -0.05138(13) 0.0380 Uani
O5F O 0.8316(2) 0.1722(2) -0.04295(13) 0.0389 Uani
loop_
_atom_site_aniso_label
_atom_site_aniso_U_11
_atom_site_aniso_U_22
_atom_site_aniso_U_33
_atom_site_aniso_U_23
_atom_site_aniso_U_13
_atom_site_aniso_U_12
Co1 0.0315(4) 0.0377(5) 0.0248(4) 0.0008(3) -0.0009(3) -0.0017(3)
Co2 0.0297(6) 0.0280(6) 0.0186(5) -0.0005(4) 0.0040(4) -0.0030(5)
O1 0.033 0.041 0.0234 0.0063 -0.0008 0.0012
O2 0.048 0.043 0.031 0.0023 0.0062 0.012
O3 0.044(2) 0.036(2) 0.034(2) 0.0125(17) -0.0027(18) -0.0106(19)
O4 0.039(2) 0.056(3) 0.043(2) 0.025(2) -0.0102(19) -0.010(2)
O5 0.042(2) 0.041(2) 0.034(2) -0.0094(18) 0.0104(18) 0.0009(19)
O6 0.041(3) 0.068(3) 0.049(2) -0.030(2) 0.007(2) -0.003(2)
O7 0.072(4) 0.040(3) 0.023(3) 0.000 0.020(3) 0.000
O8 0.074(3) 0.054(3) 0.034(2) 0.023(2) 0.021(2) 0.029(2)
N1 0.036(3) 0.036(3) 0.032(2) 0.004(2) 0.001(2) 0.002(2)
N2 0.043(3) 0.035(3) 0.050(3) 0.009(2) 0.000(2) 0.004(2)
C1 0.059(5) 0.056(5) 0.110(6) 0.044(5) -0.006(4) 0.007(4)
C2 0.082(7) 0.084(6) 0.135(8) 0.073(6) 0.002(6) 0.010(5)
C3 0.072(6) 0.095(7) 0.112(7) 0.058(6) -0.012(5) 0.028(5)
C4 0.054(4) 0.052(4) 0.057(4) 0.007(3) -0.008(3) 0.021(3)
C5 0.052(5) 0.078(5) 0.063(5) 0.002(4) -0.015(4) 0.020(4)
C6 0.032(4) 0.086(6) 0.061(4) -0.014(4) -0.010(3) 0.009(4)
C7 0.029(3) 0.050(4) 0.049(4) -0.012(3) 0.003(3) 0.001(3)
C8 0.036(4) 0.076(5) 0.067(5) -0.012(4) 0.016(3) -0.010(4)
C9 0.046(4) 0.060(4) 0.069(5) 0.012(4) 0.021(4) -0.009(4)
C10 0.047(4) 0.049(4) 0.042(3) 0.012(3) 0.007(3) 0.003(3)
C11 0.030(3) 0.040(3) 0.033(3) -0.007(3) 0.001(2) 0.002(3)
C12 0.038(4) 0.036(4) 0.040(3) -0.002(3) -0.002(3) 0.007(3)
C13 0.04 0.031 0.026 -0.004 -0.003 -0.003
C14 0.038 0.035 0.024 0.005 0.002 0.003
C15 0.045 0.033 0.028 0.01 -0.001 0.003
C16 0.047 0.041 0.029 0.003 0.006 0.015
C17 0.063 0.042 0.032 0.011 0.009 0.022
C18 0.068 0.042 0.031 0.015 0.005 0.021
C19 0.036(3) 0.036(3) 0.025(3) -0.002(2) 0.003(2) 0.009(3)
C20 0.026(3) 0.038(3) 0.024(3) 0.003(2) 0.002(2) 0.005(3)
C21 0.037(3) 0.048(4) 0.028(3) -0.004(3) -0.002(2) -0.001(3)
C22 0.039(3) 0.048(4) 0.030(3) -0.001(3) 0.011(3) -0.012(3)
C23 0.041(3) 0.033(3) 0.024(3) 0.005(2) 0.006(2) 0.007(3)
C24 0.043(3) 0.031(3) 0.030(3) 0.001(2) 0.003(3) -0.005(3)
C25 0.038(3) 0.036(3) 0.033(3) 0.002(3) 0.014(2) -0.002(3)
C26 0.037(3) 0.034(3) 0.025(3) -0.003(2) 0.003(2) -0.003(3)
C27 0.039(3) 0.029(3) 0.024(3) 0.003(2) 0.000(2) -0.002(3)
C28 0.034(3) 0.048(4) 0.044(3) 0.013(3) -0.005(3) -0.008(3)
C29 0.045(4) 0.058(4) 0.038(3) 0.012(3) -0.012(3) 0.006(3)
C30 0.054(4) 0.045(4) 0.025(3) 0.015(3) 0.010(3) 0.011(3)
C31 0.048(4) 0.044(4) 0.036(3) 0.013(3) 0.009(3) -0.002(3)
C32 0.039(3) 0.040(3) 0.031(3) 0.008(3) 0.000(2) -0.007(3)
C33 0.046(4) 0.043(4) 0.025(3) 0.009(3) 0.005(3) 0.006(3)
O5A 0.042 0.041 0.034 0.0094 0.0104 -0.0009
O6A 0.041 0.068 0.049 0.03 0.007 0.003
C19A 0.036 0.036 0.025 0.002 0.003 -0.009
C20A 0.026 0.038 0.024 -0.003 0.002 -0.005
C21A 0.037 0.048 0.028 0.004 -0.002 0.001
C22A 0.039 0.048 0.03 0.001 0.011 0.012
C23A 0.041 0.033 0.024 -0.005 0.006 -0.007
C24A 0.043 0.031 0.03 -0.001 0.003 0.005
C25A 0.038 0.036 0.033 -0.002 0.014 0.002
Co1A 0.0315 0.0377 0.0248 -0.0008 -0.0009 0.0017
O1A 0.033 0.041 0.0234 -0.0063 -0.0008 -0.0012
O2A 0.048 0.043 0.031 -0.0023 0.0062 -0.012
O3A 0.044 0.036 0.034 -0.0125 -0.0027 0.0106
O4A 0.039 0.056 0.043 -0.025 -0.0102 0.01
O8A 0.074 0.054 0.034 -0.023 0.021 -0.029
N1A 0.036 0.036 0.032 -0.004 0.001 -0.002
N2A 0.043 0.035 0.05 -0.009 0 -0.004
C1A 0.059 0.056 0.11 -0.044 -0.006 -0.007
C2A 0.082 0.084 0.135 -0.073 0.002 -0.01
C3A 0.072 0.095 0.112 -0.058 -0.012 -0.028
C4A 0.054 0.052 0.057 -0.007 -0.008 -0.021
C5A 0.052 0.078 0.063 -0.002 -0.015 -0.02
C6A 0.032 0.086 0.061 0.014 -0.01 -0.009
C7A 0.029 0.05 0.049 0.012 0.003 -0.001
C8A 0.036 0.076 0.067 0.012 0.016 0.01
C9A 0.046 0.06 0.069 -0.012 0.021 0.009
C10A 0.047 0.049 0.042 -0.012 0.007 -0.003
C11A 0.03 0.04 0.033 0.007 0.001 -0.002
C12A 0.038 0.036 0.04 0.002 -0.002 -0.007
C13A 0.04 0.031 0.026 0.004 -0.003 0.003
C14A 0.038 0.035 0.024 -0.005 0.002 -0.003
C15A 0.045 0.033 0.028 -0.01 -0.001 -0.003
C16A 0.047 0.041 0.029 -0.003 0.006 -0.015
C17A 0.063 0.042 0.032 -0.011 0.009 -0.022
C18A 0.068 0.042 0.031 -0.015 0.005 -0.021
C26A 0.037 0.034 0.025 0.003 0.003 0.003
C27A 0.039 0.029 0.024 -0.003 0 0.002
C28A 0.034 0.048 0.044 -0.013 -0.005 0.008
C29A 0.045 0.058 0.038 -0.012 -0.012 -0.006
C30A 0.054 0.045 0.025 -0.015 0.01 -0.011
C31A 0.048 0.044 0.036 -0.013 0.009 0.002
C32A 0.039 0.04 0.031 -0.008 0 0.007
C33A 0.046 0.043 0.025 -0.009 0.005 -0.006
Co1D 0.0315 0.0377 0.0248 0.0008 -0.0009 -0.0017
Co1E 0.0315 0.0377 0.0248 -0.0008 -0.0009 0.0017
Co2A 0.0297 0.028 0.0186 0.0005 0.004 0.003
Co2B 0.0297 0.028 0.0186 -0.0005 0.004 -0.003
Co2C 0.0297 0.028 0.0186 0.0005 0.004 0.003
O1C 0.033 0.041 0.0234 -0.0063 -0.0008 -0.0012
O1D 0.033 0.041 0.0234 0.0063 -0.0008 0.0012
O1E 0.033 0.041 0.0234 -0.0063 -0.0008 -0.0012
O2D 0.048 0.043 0.031 0.0023 0.0062 0.012
O2E 0.048 0.043 0.031 -0.0023 0.0062 -0.012
O3F 0.044 0.036 0.034 0.0125 -0.0027 -0.0106
O5F 0.042 0.041 0.034 -0.0094 0.0104 0.0009
loop_
_geom_bond_atom_site_label_1
_geom_bond_atom_site_label_2
_geom_bond_site_symmetry_1
_geom_bond_site_symmetry_2
Co1 O4 1_555 1_555
Co2 O3 1_555 1_555
O1 C13 1_555 1_555
O2 C13 1_555 1_555
O3 C26 1_555 1_555
O4 C26 1_555 1_555
O5 Co2 1_555 1_555
O6 Co1 1_555 1_555
O7 C23 1_555 1_555
O8 C30 1_555 1_555
N1 Co1 1_555 1_555
N2 Co1 1_555 1_555
C1 N2 1_555 1_555
H1 C1 1_555 1_555
C2 C1 1_555 1_555
H2 C2 1_555 1_555
C3 C2 1_555 1_555
H3 C3 1_555 1_555
C4 C3 1_555 1_555
C5 C4 1_555 1_555
H4 C5 1_555 1_555
C6 C5 1_555 1_555
H5 C6 1_555 1_555
C7 C6 1_555 1_555
C8 C7 1_555 1_555
H6 C8 1_555 1_555
C9 C8 1_555 1_555
H7 C9 1_555 1_555
C10 N1 1_555 1_555
H8 C10 1_555 1_555
C11 N1 1_555 1_555
C12 N2 1_555 1_555
C13 C14 1_555 1_555
C14 C15 1_555 1_555
C15 H9 1_555 1_555
C16 C15 1_555 1_555
H10 C16 1_555 1_555
C17 C14 1_555 1_555
H11 C17 1_555 1_555
C18 C17 1_555 1_555
H12 C18 1_555 1_555
C19 O5 1_555 1_555
C20 C19 1_555 1_555
C21 C20 1_555 1_555
H13 C21 1_555 1_555
C22 C21 1_555 1_555
H14 C22 1_555 1_555
C23 C22 1_555 1_555
C24 C23 1_555 1_555
H15 C24 1_555 1_555
C25 C20 1_555 1_555
H16 C25 1_555 1_555
C26 C27 1_555 1_555
C27 C28 1_555 1_555
C28 H17 1_555 1_555
C29 C28 1_555 1_555
H18 C29 1_555 1_555
C30 C29 1_555 1_555
C31 C30 1_555 1_555
H19 C31 1_555 1_555
C32 C27 1_555 1_555
H20 C32 1_555 1_555
C33 O8 1_555 1_555
O5A C19A 1_555 1_555
O6A C19A 1_555 1_555
C19A C20A 1_555 1_555
C20A C21A 1_555 1_555
C21A H13A 1_555 1_555
C22A C21A 1_555 1_555
H14A C22A 1_555 1_555
C23A O7 1_555 1_555
C24A C23A 1_555 1_555
H15A C24A 1_555 1_555
C25A C20A 1_555 1_555
H16A C25A 1_555 1_555
Co1A O6A 1_555 1_555
O1A C13A 1_555 1_555
O2A C13A 1_555 1_555
O3A C26A 1_555 1_555
O4A Co1A 1_555 1_555
O8A C30A 1_555 1_555
N1A Co1A 1_555 1_555
N2A Co1A 1_555 1_555
C1A N2A 1_555 1_555
H1A C1A 1_555 1_555
C2A C1A 1_555 1_555
H2A C2A 1_555 1_555
C3A C2A 1_555 1_555
H3A C3A 1_555 1_555
C4A C3A 1_555 1_555
C5A C4A 1_555 1_555
H4A C5A 1_555 1_555
C6A C5A 1_555 1_555
H5A C6A 1_555 1_555
C7A C6A 1_555 1_555
C8A C7A 1_555 1_555
H6A C8A 1_555 1_555
C9A C8A 1_555 1_555
H7A C9A 1_555 1_555
C10A N1A 1_555 1_555
H8A C10A 1_555 1_555
C11A N1A 1_555 1_555
C12A N2A 1_555 1_555
C13A C14A 1_555 1_555
C14A C15A 1_555 1_555
C15A H9A 1_555 1_555
C16A C15A 1_555 1_555
H10A C16A 1_555 1_555
C17A C14A 1_555 1_555
H11A C17A 1_555 1_555
C18A C17A 1_555 1_555
H12A C18A 1_555 1_555
C26A O4A 1_555 1_555
C27A C26A 1_555 1_555
C28A C27A 1_555 1_555
H17A C28A 1_555 1_555
C29A C28A 1_555 1_555
H18A C29A 1_555 1_555
C30A C29A 1_555 1_555
C31A C30A 1_555 1_555
H19A C31A 1_555 1_555
C32A C27A 1_555 1_555
H20A C32A 1_555 1_555
C33A O8A 1_555 1_555
Co1D O1A 1_555 1_555
Co1E O1 1_555 1_555
Co2A O5A 1_555 1_555
Co2B O1A 1_555 1_555
Co2C O1 1_555 1_555
O1C Co2 1_555 1_555
O1D Co1A 1_555 1_555
O1E Co1 1_555 1_555
O2D Co1A 1_555 1_555
O2E Co1 1_555 1_555
O3F Co2 1_555 1_555
O5F Co2 1_555 1_555
Co2 O1E 1_555 1_555
O2 Co1E 1_555 1_555
O6 C19 1_555 1_555
C4 C12 1_555 1_555
C7 C11 1_555 1_555
C9 C10 1_555 1_555
C11 C12 1_555 1_555
C16 C33 1_555 1_555
C18 C33 1_555 1_555
C24 C25 1_555 1_555
C31 C32 1_555 1_555
C22A C23A 1_555 1_555
C24A C25A 1_555 1_555
O2A Co1D 1_555 1_555
O3A Co2A 1_555 1_555
C4A C12A 1_555 1_555
C7A C11A 1_555 1_555
C9A C10A 1_555 1_555
C11A C12A 1_555 1_555
C16A C33A 1_555 1_555
C18A C33A 1_555 1_555
C31A C32A 1_555 1_555
Co2A O1D 1_555 1_555

#END
