
#######################################################################
#
#                 Cambridge Crystallographic Data Centre
#                                CCDC 
#
#######################################################################
#
# If this CIF has been generated from an entry in the Cambridge 
# Structural Database, then it will include bibliographic, chemical, 
# crystal, experimental, refinement or atomic coordinate data resulting 
# from the CCDC's data processing and validation procedures.
#
#######################################################################

data_ASALIP
_chemical_formula_moiety         '(C8 H9 N3 O5 Zn1)n'
_symmetry_cell_setting           orthorhombic
_symmetry_space_group_name_H-M   'P 21 21 21'
_symmetry_Int_Tables_number      19
_space_group_name_Hall           'P 2ac 2ab'
loop_
_symmetry_equiv_pos_site_id
_symmetry_equiv_pos_as_xyz
1 x,y,z
2 1/2-x,-y,1/2+z
3 -x,1/2+y,1/2-z
4 1/2+x,1/2-y,-z
_cell_length_a                   7.2039(9)
_cell_length_b                   8.7309(11)
_cell_length_c                   16.234(2)
_cell_angle_alpha                90
_cell_angle_beta                 90
_cell_angle_gamma                90
_cell_volume                     1021.06
loop_
_atom_site_label
_atom_site_type_symbol
_atom_site_fract_x
_atom_site_fract_y
_atom_site_fract_z
_atom_site_U_iso_or_equiv
_atom_site_thermal_displace_type
Zn1 Zn 0.74215(7) 0.54235(5) 0.04103(3) 0.0288 Uani
C1 C 0.8355(8) 0.4127(10) 0.3629(3) 0.0573 Uani
H1 H 0.9078 0.3258 0.3836 0.0690 Uiso
N1 N 0.9227(5) 0.5072(4) 0.1397(2) 0.0293 Uani
O1 O 0.8079(7) 0.2379(9) 0.0354(4) 0.0897 Uani
C2 C 0.9379(6) 0.4444(7) 0.2835(3) 0.0353 Uani
C3 C 1.1009(6) 0.4697(6) 0.1321(3) 0.0363 Uani
H2 H 1.1567 0.4775 0.0806 0.0430 Uiso
C4 C 1.1229(7) 0.4065(7) 0.2747(3) 0.0397 Uani
H3 H 1.1910 0.3725 0.3198 0.0480 Uiso
C5 C 1.2061(7) 0.4195(6) 0.1983(3) 0.0410 Uani
H4 H 1.3308 0.3949 0.1914 0.0490 Uiso
C6 C 0.8463(7) 0.4985(6) 0.2148(3) 0.0340 Uani
H5 H 0.7241 0.5308 0.2210 0.0410 Uiso
O2 O 0.5842(5) 0.3453(5) 0.0954(3) 0.0480 Uani
N2 N 0.6705(8) 0.2251(6) 0.0784(4) 0.0510 Uani
N3 N 0.8577(11) 0.5128(8) 0.4263(3) 0.0850 Uani
H6 H 0.7660 0.5329 0.4584 0.1020 Uiso
H7 H 0.9635 0.5560 0.4342 0.1020 Uiso
C7 C 0.6611(9) 0.3386(8) 0.3479(3) 0.0470 Uani
H8 H 0.6839 0.2582 0.3079 0.0560 Uiso
H9 H 0.5813 0.4131 0.3212 0.0560 Uiso
C8 C 0.5501(7) 0.2679(6) 0.4171(3) 0.0309 Uani
O3 O 0.4279(5) 0.1759(5) 0.3947(2) 0.0411 Uani
O4 O 0.5790(6) 0.3016(5) 0.4906(2) 0.0484 Uani
O5 O 0.6134(14) 0.1073(8) 0.1064(7) 0.1517 Uani
N3A N 0.6423(11) 0.4872(8) -0.0737(3) 0.0850 Uani
H6A H 0.7340 0.4671 -0.0416 0.1020 Uiso
O3B O 0.5721(5) 0.6759(5) 0.1053(2) 0.0411 Uani
O4A O 0.9210(6) 0.6984(5) -0.0094(2) 0.0484 Uani
Zn1A Zn 0.75785(7) 0.45765(5) 0.54103(3) 0.0288 Uani
Zn1B Zn 0.25785(7) 0.04235(5) 0.45897(3) 0.0288 Uani
H7A H 0.5365 0.4440 -0.0658 0.1020 Uiso
loop_
_atom_site_aniso_label
_atom_site_aniso_U_11
_atom_site_aniso_U_22
_atom_site_aniso_U_33
_atom_site_aniso_U_23
_atom_site_aniso_U_13
_atom_site_aniso_U_12
Zn1 0.0276(2) 0.0351(2) 0.0237(2) 0.00169(19) 0.0005(2) -0.0007(2)
C1 0.037(3) 0.112(6) 0.023(2) -0.005(3) 0.006(2) -0.032(3)
N1 0.0270(16) 0.0349(18) 0.0259(17) 0.0046(15) 0.0020(14) -0.0021(13)
O1 0.046(2) 0.143(6) 0.080(4) -0.044(4) 0.005(3) 0.010(3)
C2 0.027(2) 0.056(3) 0.0229(18) 0.001(2) 0.0018(15) -0.007(2)
C3 0.029(2) 0.048(3) 0.032(2) 0.007(2) 0.0040(18) -0.002(2)
C4 0.025(2) 0.058(3) 0.036(2) 0.011(2) -0.0063(19) -0.0051(19)
C5 0.026(2) 0.057(3) 0.040(2) 0.010(2) 0.0004(18) 0.0052(18)
C6 0.024(2) 0.050(3) 0.028(2) 0.000(2) 0.0031(17) -0.0017(17)
O2 0.039(2) 0.053(2) 0.052(2) -0.004(2) 0.0042(18) 0.0043(18)
N2 0.057(3) 0.034(2) 0.062(3) 0.003(2) -0.017(3) -0.005(2)
N3 0.124(6) 0.096(5) 0.035(3) -0.026(3) 0.034(3) -0.080(4)
C7 0.060(3) 0.060(3) 0.021(2) 0.000(2) 0.007(2) -0.025(3)
C8 0.032(2) 0.036(2) 0.0246(19) -0.0011(18) -0.0018(17) -0.0029(18)
O3 0.047(2) 0.050(2) 0.0264(16) -0.0032(16) 0.0051(15) -0.0218(17)
O4 0.052(2) 0.070(3) 0.0232(16) -0.0056(18) 0.0023(15) -0.031(2)
O5 0.158(7) 0.069(4) 0.228(11) 0.064(6) -0.070(8) -0.040(5)
N3A 0.124 0.096 0.035 0.026 -0.034 -0.08
O3B 0.047 0.05 0.0264 0.0032 0.0051 0.0218
O4A 0.052 0.07 0.0232 0.0056 -0.0023 -0.031
Zn1A 0.0276 0.0351 0.0237 -0.00169 -0.0005 -0.0007
Zn1B 0.0276 0.0351 0.0237 -0.00169 0.0005 0.0007
loop_
_geom_bond_atom_site_label_1
_geom_bond_atom_site_label_2
_geom_bond_site_symmetry_1
_geom_bond_site_symmetry_2
Zn1 N1 1_555 1_555
C1 H1 1_555 1_555
N1 C3 1_555 1_555
O1 N2 1_555 1_555
C2 C1 1_555 1_555
C3 H2 1_555 1_555
C4 C2 1_555 1_555
H3 C4 1_555 1_555
C5 C3 1_555 1_555
H4 C5 1_555 1_555
C6 N1 1_555 1_555
H5 C6 1_555 1_555
O2 Zn1 1_555 1_555
N2 O2 1_555 1_555
N3 C1 1_555 1_555
H6 N3 1_555 1_555
H7 N3 1_555 1_555
C7 C1 1_555 1_555
H8 C7 1_555 1_555
H9 C7 1_555 1_555
C8 C7 1_555 1_555
O3 C8 1_555 1_555
O4 C8 1_555 1_555
O5 N2 1_555 1_555
N3A Zn1 1_555 1_555
H6A N3A 1_555 1_555
O3B Zn1 1_555 1_555
O4A Zn1 1_555 1_555
Zn1A N3 1_555 1_555
Zn1B O3 1_555 1_555
H7A N3A 1_555 1_555
C2 C6 1_555 1_555
C4 C5 1_555 1_555
O4 Zn1A 1_555 1_555

#END
