
#######################################################################
#
#                 Cambridge Crystallographic Data Centre
#                                CCDC 
#
#######################################################################
#
# If this CIF has been generated from an entry in the Cambridge 
# Structural Database, then it will include bibliographic, chemical, 
# crystal, experimental, refinement or atomic coordinate data resulting 
# from the CCDC's data processing and validation procedures.
#
#######################################################################

data_ACODON
_chemical_formula_moiety         '(C43 H28 O17 P2 Tb2)n'
_symmetry_cell_setting           monoclinic
_symmetry_space_group_name_H-M   'P 2/n'
_symmetry_Int_Tables_number      13
_space_group_name_Hall           '-P 2yac'
loop_
_symmetry_equiv_pos_site_id
_symmetry_equiv_pos_as_xyz
1 x,y,z
2 1/2-x,y,1/2-z
3 -x,-y,-z
4 1/2+x,-y,1/2+z
_cell_length_a                   14.4794(6)
_cell_length_b                   10.5573(5)
_cell_length_c                   23.3160(11)
_cell_angle_alpha                90
_cell_angle_beta                 107.316(3)
_cell_angle_gamma                90
_cell_volume                     3402.63
loop_
_atom_site_label
_atom_site_type_symbol
_atom_site_fract_x
_atom_site_fract_y
_atom_site_fract_z
O9 O 0.7500 0.6351(15) 0.2500
Tb1 Tb 0.574091(15) 0.95195(2) 0.230027(10)
O1 O 0.4861(2) 1.0752(3) 0.14949(15)
O2 O 0.4700(2) 1.7973(3) 0.15866(16)
O3 O 0.5806(2) 1.7247(3) 0.23828(16)
O4 O 0.0504(3) 0.9007(4) 0.22199(18)
O5 O 0.0063(2) 1.0983(3) 0.22062(16)
O6 O 0.3221(2) 1.0990(4) -0.17739(16)
O7 O 0.1730(2) 1.0892(4) -0.17287(15)
O8 O 0.6733(2) 1.1328(3) 0.24817(19)
P1 P 0.40153(8) 1.16027(11) 0.12202(5)
C1 C 0.2999(3) 1.1216(4) 0.1479(2)
C2 C 0.2385(4) 1.2116(5) 0.1590(2)
H1 H 0.2500 1.2968 0.1538
C3 C 0.4321(3) 1.3220(4) 0.1384(2)
C4 C 0.5049(5) 1.3501(6) 0.1907(3)
H2 H 0.5373 1.2844 0.2151
C5 C 0.3603(3) 1.1445(4) 0.0418(2)
C6 C 0.2631(4) 1.1360(6) 0.0112(3)
H3 H 0.2178 1.1393 0.0322
C7 C 0.2326(4) 1.1228(6) -0.0502(2)
H4 H 0.1667 1.1180 -0.0702
C8 C 0.4261(4) 1.1415(6) 0.0097(2)
H5 H 0.4919 1.1495 0.0295
C9 C 0.5298(5) 1.4729(5) 0.2071(3)
H6 H 0.5783 1.4895 0.2427
C10 C 0.4833(4) 1.5739(4) 0.1709(3)
C11 C 0.4114(4) 1.5466(5) 0.1187(3)
H7 H 0.3795 1.6122 0.0941
C12 C 0.3858(4) 1.4219(5) 0.1023(3)
H8 H 0.3372 1.4050 0.0669
C13 C 0.5133(4) 1.7066(5) 0.1909(3)
C14 C 0.2801(3) 0.9952(5) 0.1556(2)
H9 H 0.3206 0.9330 0.1482
C15 C 0.2028(3) 0.9604(5) 0.1737(2)
H10 H 0.1901 0.8751 0.1776
C16 C 0.1431(3) 1.0512(5) 0.1863(2)
C17 C 0.1599(4) 1.1774(5) 0.1779(2)
H11 H 0.1188 1.2392 0.1849
C18 C 0.0605(3) 1.0153(5) 0.2101(2)
C19 C 0.3948(3) 1.1268(6) -0.0522(2)
H12 H 0.4397 1.1239 -0.0735
C20 C 0.2975(3) 1.1165(5) -0.0825(2)
C21 C 0.2619(3) 1.0996(4) -0.1495(2)
C22 C 0.7500 1.1798(7) 0.2500
H13 H 0.7500 1.2679 0.2500
Tb1_2 Tb 0.574091(15) -0.04805(2) 0.230027(10)
Tb1_3 Tb 0.574091(15) 1.95195(2) 0.230027(10)
Tb1A Tb -0.074091(15) 0.95195(2) 0.269973(10)
Tb1B Tb 0.425909(15) 1.04805(2) -0.230027(10)
Tb1C Tb 0.074091(15) 1.04805(2) -0.269973(10)
Tb1A_2 Tb 0.925909(15) 0.95195(2) 0.269973(10)
Tb1A_3 Tb -0.074091(15) -0.04805(2) 0.269973(10)
Tb1B_2 Tb 0.425909(15) 0.04805(2) -0.230027(10)
Tb1C_2 Tb 0.074091(15) 0.04805(2) -0.269973(10)
O1_2 O 0.4861(2) 0.0752(3) 0.14949(15)
O2_2 O 0.4700(2) 0.7973(3) 0.15866(16)
O2_3 O 0.4700(2) -0.2027(3) 0.15866(16)
O3_2 O 0.5806(2) 0.7247(3) 0.23828(16)
O3_3 O 0.5806(2) -0.2753(3) 0.23828(16)
O4_2 O 0.0504(3) -0.0993(4) 0.22199(18)
O4A O 0.4496(3) 0.9007(4) 0.27801(18)
O4A_2 O 0.4496(3) -0.0993(4) 0.27801(18)
O5_2 O 0.0063(2) 0.0983(3) 0.22062(16)
O5A O 0.4937(2) 1.0983(3) 0.27938(16)
O5A_2 O 0.4937(2) 0.0983(3) 0.27938(16)
O6_2 O 0.3221(2) 0.0990(4) -0.17739(16)
O6B O 0.6779(2) 0.9010(4) 0.17739(16)
O6B_2 O 0.6779(2) -0.0990(4) 0.17739(16)
O7_2 O 0.1730(2) 0.0892(4) -0.17287(15)
O7C O 0.6730(2) 0.9108(4) 0.32713(15)
O7C_2 O 0.6730(2) -0.0892(4) 0.32713(15)
O8A O 0.8267(2) 1.1328(3) 0.25183(19)
O8_2 O 0.6733(2) 0.1328(3) 0.24817(19)
P1_2 P 0.40153(8) 0.16027(11) 0.12202(5)
C1_2 C 0.2999(3) 0.1216(4) 0.1479(2)
C2_2 C 0.2385(4) 0.2116(5) 0.1590(2)
H1_2 H 0.2500 0.2968 0.1538
C3_2 C 0.4321(3) 0.3220(4) 0.1384(2)
C4_2 C 0.5049(5) 0.3501(6) 0.1907(3)
H2_2 H 0.5373 0.2844 0.2151
C5_2 C 0.3603(3) 0.1445(4) 0.0418(2)
C6_2 C 0.2631(4) 0.1360(6) 0.0112(3)
H3_2 H 0.2178 0.1393 0.0322
C7_2 C 0.2326(4) 0.1228(6) -0.0502(2)
H4_2 H 0.1667 0.1180 -0.0702
C8_2 C 0.4261(4) 0.1415(6) 0.0097(2)
H5_2 H 0.4919 0.1495 0.0295
C9_2 C 0.5298(5) 0.4729(5) 0.2071(3)
H6_2 H 0.5783 0.4895 0.2427
C10_2 C 0.4833(4) 0.5739(4) 0.1709(3)
C11_2 C 0.4114(4) 0.5466(5) 0.1187(3)
H7_2 H 0.3795 0.6122 0.0941
C12_2 C 0.3858(4) 0.4219(5) 0.1023(3)
H8_2 H 0.3372 0.4050 0.0669
C13_2 C 0.5133(4) 0.7066(5) 0.1909(3)
C14_2 C 0.2801(3) -0.0048(5) 0.1556(2)
H9_2 H 0.3206 -0.0670 0.1482
C15_2 C 0.2028(3) -0.0396(5) 0.1737(2)
H10_2 H 0.1901 -0.1249 0.1776
C16_2 C 0.1431(3) 0.0512(5) 0.1863(2)
C17_2 C 0.1599(4) 0.1774(5) 0.1779(2)
H11_2 H 0.1188 0.2392 0.1849
C18_2 C 0.0605(3) 0.0153(5) 0.2101(2)
C19_2 C 0.3948(3) 0.1268(6) -0.0522(2)
H12_2 H 0.4397 0.1239 -0.0735
C20_2 C 0.2975(3) 0.1165(5) -0.0825(2)
C21_2 C 0.2619(3) 0.0996(4) -0.1495(2)
loop_
_geom_bond_atom_site_label_1
_geom_bond_atom_site_label_2
_geom_bond_site_symmetry_1
_geom_bond_site_symmetry_2
Tb1 O1 1_555 1_555
O1 P1 1_555 1_555
O2 C13 1_555 1_555
O3 C13 1_555 1_555
O4 C18 1_555 1_555
O5 C18 1_555 1_555
O6 C21 1_555 1_555
O7 C21 1_555 1_555
O8 Tb1 1_555 1_555
P1 C1 1_555 1_555
C1 C2 1_555 1_555
C2 H1 1_555 1_555
C3 P1 1_555 1_555
C4 C3 1_555 1_555
H2 C4 1_555 1_555
C5 P1 1_555 1_555
C6 C5 1_555 1_555
H3 C6 1_555 1_555
C7 C6 1_555 1_555
H4 C7 1_555 1_555
C8 C5 1_555 1_555
H5 C8 1_555 1_555
C9 C4 1_555 1_555
H6 C9 1_555 1_555
C10 C9 1_555 1_555
C11 C10 1_555 1_555
H7 C11 1_555 1_555
C12 C3 1_555 1_555
H8 C12 1_555 1_555
C13 C10 1_555 1_555
C14 C1 1_555 1_555
H9 C14 1_555 1_555
C15 C14 1_555 1_555
H10 C15 1_555 1_555
C16 C15 1_555 1_555
C17 C2 1_555 1_555
H11 C17 1_555 1_555
C18 C16 1_555 1_555
C19 C8 1_555 1_555
H12 C19 1_555 1_555
C20 C7 1_555 1_555
C21 C20 1_555 1_555
C22 O8 1_555 1_555
H13 C22 1_555 1_555
Tb1_2 O1_2 1_555 1_555
Tb1_3 O2 1_555 1_555
Tb1A O4 1_555 1_555
Tb1B O6 1_555 1_555
Tb1C O7 1_555 1_555
Tb1A_2 O8A 1_555 1_555
Tb1A_3 O4_2 1_555 1_555
Tb1B_2 O6_2 1_555 1_555
Tb1C_2 O7_2 1_555 1_555
O1_2 P1_2 1_555 1_555
O2_2 Tb1 1_555 1_555
O2_3 Tb1_2 1_555 1_555
O3_2 Tb1 1_555 1_555
O3_3 Tb1_2 1_555 1_555
O4_2 C18_2 1_555 1_555
O4A Tb1 1_555 1_555
O4A_2 Tb1_2 1_555 1_555
O5_2 Tb1A_3 1_555 1_555
O5A Tb1 1_555 1_555
O5A_2 Tb1_2 1_555 1_555
O6_2 C21_2 1_555 1_555
O6B Tb1 1_555 1_555
O6B_2 Tb1_2 1_555 1_555
O7_2 C21_2 1_555 1_555
O7C Tb1 1_555 1_555
O7C_2 Tb1_2 1_555 1_555
O8A C22 1_555 1_555
O8_2 Tb1_2 1_555 1_555
P1_2 C1_2 1_555 1_555
C1_2 C2_2 1_555 1_555
C2_2 H1_2 1_555 1_555
C3_2 P1_2 1_555 1_555
C4_2 C3_2 1_555 1_555
H2_2 C4_2 1_555 1_555
C5_2 P1_2 1_555 1_555
C6_2 C5_2 1_555 1_555
H3_2 C6_2 1_555 1_555
C7_2 C6_2 1_555 1_555
H4_2 C7_2 1_555 1_555
C8_2 C5_2 1_555 1_555
H5_2 C8_2 1_555 1_555
C9_2 C4_2 1_555 1_555
H6_2 C9_2 1_555 1_555
C10_2 C9_2 1_555 1_555
C11_2 C10_2 1_555 1_555
H7_2 C11_2 1_555 1_555
C12_2 C3_2 1_555 1_555
H8_2 C12_2 1_555 1_555
C13_2 O2_2 1_555 1_555
C14_2 C1_2 1_555 1_555
H9_2 C14_2 1_555 1_555
C15_2 C14_2 1_555 1_555
H10_2 C15_2 1_555 1_555
C16_2 C15_2 1_555 1_555
C17_2 C2_2 1_555 1_555
H11_2 C17_2 1_555 1_555
C18_2 O5_2 1_555 1_555
C19_2 C8_2 1_555 1_555
H12_2 C19_2 1_555 1_555
C20_2 C7_2 1_555 1_555
C21_2 C20_2 1_555 1_555
O3 Tb1_3 1_555 1_555
O5 Tb1A 1_555 1_555
C11 C12 1_555 1_555
C16 C17 1_555 1_555
C19 C20 1_555 1_555
O3_2 C13_2 1_555 1_555
C10_2 C13_2 1_555 1_555
C11_2 C12_2 1_555 1_555
C16_2 C17_2 1_555 1_555
C16_2 C18_2 1_555 1_555
C19_2 C20_2 1_555 1_555

#END
