
#######################################################################
#
#                 Cambridge Crystallographic Data Centre
#                                CCDC 
#
#######################################################################
#
# If this CIF has been generated from an entry in the Cambridge 
# Structural Database, then it will include bibliographic, chemical, 
# crystal, experimental, refinement or atomic coordinate data resulting 
# from the CCDC's data processing and validation procedures.
#
#######################################################################

data_KAVXAI
_chemical_formula_moiety         'C42 H26 Co7 N3 O13'
_symmetry_cell_setting           tetragonal
_symmetry_space_group_name_H-M   'I 4/m c m'
_symmetry_Int_Tables_number      140
_space_group_name_Hall           '-I 4 2c'
loop_
_symmetry_equiv_pos_site_id
_symmetry_equiv_pos_as_xyz
1 x,y,z
2 -y,x,z
3 -x,-y,z
4 y,-x,z
5 x,-y,1/2-z
6 -x,y,1/2-z
7 y,x,1/2-z
8 -y,-x,1/2-z
9 1/2+x,1/2+y,1/2+z
10 1/2-y,1/2+x,1/2+z
11 1/2-x,1/2-y,1/2+z
12 1/2+y,1/2-x,1/2+z
13 1/2+x,1/2-y,-z
14 1/2-x,1/2+y,-z
15 1/2+y,1/2+x,-z
16 1/2-y,1/2-x,-z
17 -x,-y,-z
18 y,-x,-z
19 x,y,-z
20 -y,x,-z
21 -x,y,1/2+z
22 x,-y,1/2+z
23 -y,-x,1/2+z
24 y,x,1/2+z
25 1/2-x,1/2-y,1/2-z
26 1/2+y,1/2-x,1/2-z
27 1/2+x,1/2+y,1/2-z
28 1/2-y,1/2+x,1/2-z
29 1/2-x,1/2+y,z
30 1/2+x,1/2-y,z
31 1/2-y,1/2-x,z
32 1/2+y,1/2+x,z
_cell_length_a                   15.4168(7)
_cell_length_b                   15.4168(7)
_cell_length_c                   27.623(2)
_cell_angle_alpha                90
_cell_angle_beta                 90
_cell_angle_gamma                90
_cell_volume                     6565.37
loop_
_atom_site_label
_atom_site_type_symbol
_atom_site_fract_x
_atom_site_fract_y
_atom_site_fract_z
O2 O 0.3218(14) 0.1782(14) 0.1110(7)
Co1 Co 0.0000 0.0000 0.20158(2)
O1 O 0.10524(13) 0.07781(13) 0.21099(7)
N1 N 0.0000 0.0000 0.1278(2)
C1 C 0.11809(17) 0.11809(17) 0.2500
C2 C 0.18687(18) 0.18687(18) 0.2500
C3 C 0.17159(16) 0.26354(16) 0.22430(11)
C4 C 0.08825(19) 0.2784(2) 0.19742(14)
H1 H 0.0898 0.3354 0.1818
H2 H 0.0395 0.2761 0.2202
H3 H 0.0810 0.2333 0.1727
C5 C 0.0000 0.0000 0.0261(2)
C6 C -0.0602(11) 0.0572(10) 0.0511(5)
C7 C -0.0121(14) 0.0794(12) 0.1051(5)
Co1D Co 0.0000 0.0000 0.29842(2)
Co1BA Co 0.5000 0.5000 0.20158(2)
Co1X Co 0.5000 0.5000 0.29842(2)
Co1P Co -0.0000 0.0000 -0.20158(2)
Co1BA_2 Co -0.5000 0.5000 0.20158(2)
Co1X_2 Co -0.5000 0.5000 0.29842(2)
O1F O 0.07781(13) 0.10524(13) 0.28901(7)
O1DA O 0.42219(13) 0.39476(13) 0.21099(7)
O1X O 0.39476(13) 0.42219(13) 0.28901(7)
O1A O -0.07781(13) 0.10524(13) 0.21099(7)
O1E O -0.10524(13) 0.07781(13) 0.28901(7)
O1CA O -0.39476(13) 0.42219(13) 0.21099(7)
O1Y O -0.42219(13) 0.39476(13) 0.28901(7)
O1B O -0.10524(13) -0.07781(13) 0.21099(7)
O1C O 0.07781(13) -0.10524(13) 0.21099(7)
O1D O 0.10524(13) -0.07781(13) 0.28901(7)
O1G O -0.07781(13) -0.10524(13) 0.28901(7)
N1P N -0.0000 0.0000 -0.1278(2)
N1D N 0.0000 0.0000 0.3722(2)
C1X C 0.38191(17) 0.38191(17) 0.2500
C1A C -0.11809(17) 0.11809(17) 0.2500
C1Y C -0.38191(17) 0.38191(17) 0.2500
C2X C 0.31313(18) 0.31313(18) 0.2500
C2A C -0.18687(18) 0.18687(18) 0.2500
C2Y C -0.31313(18) 0.31313(18) 0.2500
C3DA C 0.23646(16) 0.32841(16) 0.22430(11)
C3X C 0.32841(16) 0.23646(16) 0.27570(11)
C3F C 0.26354(16) 0.17159(16) 0.27570(11)
C3A C -0.26354(16) 0.17159(16) 0.22430(11)
C3CA C -0.32841(16) 0.23646(16) 0.22430(11)
C3Y C -0.23646(16) 0.32841(16) 0.27570(11)
C3E C -0.17159(16) 0.26354(16) 0.27570(11)
C4F C 0.2784(2) 0.08825(19) 0.30258(14)
C4X C 0.41175(19) 0.2216(2) 0.30258(14)
C4DA C 0.2216(2) 0.41175(19) 0.19742(14)
C4A C -0.2784(2) 0.08825(19) 0.19742(14)
C4E C -0.08825(19) 0.2784(2) 0.30258(14)
C4Y C -0.2216(2) 0.41175(19) 0.30258(14)
C4CA C -0.41175(19) 0.2216(2) 0.19742(14)
H1F H 0.3354 0.0898 0.3182
H1X H 0.4102 0.1646 0.3182
H1DA H 0.1646 0.4102 0.1818
H1A H -0.3354 0.0898 0.1818
H1E H -0.0898 0.3354 0.3182
H1Y H -0.1646 0.4102 0.3182
H1CA H -0.4102 0.1646 0.1818
H2F H 0.2761 0.0395 0.2798
H2X H 0.4605 0.2239 0.2798
H2DA H 0.2239 0.4605 0.2202
H2A H -0.2761 0.0395 0.2202
H2E H -0.0395 0.2761 0.2798
H2Y H -0.2239 0.4605 0.2798
H2CA H -0.4605 0.2239 0.2202
H3F H 0.2333 0.0810 0.3273
H3X H 0.4190 0.2667 0.3273
H3DA H 0.2667 0.4190 0.1727
H3A H -0.2333 0.0810 0.1727
H3E H -0.0810 0.2333 0.3273
H3Y H -0.2667 0.4190 0.3273
H3CA H -0.4190 0.2667 0.1727
C5P C -0.0000 0.0000 -0.0261(2)
C6P C 0.0602(11) -0.0572(10) -0.0511(5)
C6Q C 0.0572(10) 0.0602(11) -0.0511(5)
C6R C -0.0602(11) 0.0572(10) -0.0511(5)
C6S C -0.0572(10) -0.0602(11) -0.0511(5)
C6A C -0.0572(10) -0.0602(11) 0.0511(5)
C6B C 0.0602(11) -0.0572(10) 0.0511(5)
C6C C 0.0572(10) 0.0602(11) 0.0511(5)
C7P C 0.0121(14) -0.0794(12) -0.1051(5)
C7Q C 0.0794(12) 0.0121(14) -0.1051(5)
C7R C -0.0121(14) 0.0794(12) -0.1051(5)
C7S C -0.0794(12) -0.0121(14) -0.1051(5)
C7A C -0.0794(12) -0.0121(14) 0.1051(5)
C7B C 0.0121(14) -0.0794(12) 0.1051(5)
C7C C 0.0794(12) 0.0121(14) 0.1051(5)
loop_
_geom_bond_atom_site_label_1
_geom_bond_atom_site_label_2
_geom_bond_site_symmetry_1
_geom_bond_site_symmetry_2
Co1 O1 1_555 1_555
O1 C1 1_555 1_555
N1 Co1 1_555 1_555
C1 C2 1_555 1_555
C2 C3 1_555 1_555
C3 C4 1_555 1_555
C4 H1 1_555 1_555
H2 C4 1_555 1_555
H3 C4 1_555 1_555
C5 C6 1_555 1_555
C6 C7 1_555 1_555
C7 N1 1_555 1_555
Co1D O1F 1_555 1_555
Co1BA O1DA 1_555 1_555
Co1X O1X 1_555 1_555
Co1P N1P 1_555 1_555
Co1BA_2 O1CA 1_555 1_555
Co1X_2 O1Y 1_555 1_555
O1F C1 1_555 1_555
O1DA C1X 1_555 1_555
O1X C1X 1_555 1_555
O1A Co1 1_555 1_555
O1E Co1D 1_555 1_555
O1CA C1Y 1_555 1_555
O1Y C1Y 1_555 1_555
O1B Co1 1_555 1_555
O1C Co1 1_555 1_555
O1D Co1D 1_555 1_555
O1G Co1D 1_555 1_555
N1P C7P 1_555 1_555
N1D Co1D 1_555 1_555
C1X C2X 1_555 1_555
C1A O1A 1_555 1_555
C1Y C2Y 1_555 1_555
C2X C3DA 1_555 1_555
C2A C1A 1_555 1_555
C2Y C3CA 1_555 1_555
C3DA C3 1_555 1_555
C3X C2X 1_555 1_555
C3F C2 1_555 1_555
C3A C2A 1_555 1_555
C3CA C3A 1_555 1_555
C3Y C2Y 1_555 1_555
C3E C2A 1_555 1_555
C4F C3F 1_555 1_555
C4X C3X 1_555 1_555
C4DA C3DA 1_555 1_555
C4A C3A 1_555 1_555
C4E C3E 1_555 1_555
C4Y C3Y 1_555 1_555
C4CA C3CA 1_555 1_555
H1F C4F 1_555 1_555
H1X C4X 1_555 1_555
H1DA C4DA 1_555 1_555
H1A C4A 1_555 1_555
H1E C4E 1_555 1_555
H1Y C4Y 1_555 1_555
H1CA C4CA 1_555 1_555
H2F C4F 1_555 1_555
H2X C4X 1_555 1_555
H2DA C4DA 1_555 1_555
H2A C4A 1_555 1_555
H2E C4E 1_555 1_555
H2Y C4Y 1_555 1_555
H2CA C4CA 1_555 1_555
H3F C4F 1_555 1_555
H3X C4X 1_555 1_555
H3DA C4DA 1_555 1_555
H3A C4A 1_555 1_555
H3E C4E 1_555 1_555
H3Y C4Y 1_555 1_555
H3CA C4CA 1_555 1_555
C5P C5 1_555 1_555
C6P C5P 1_555 1_555
C6Q C5P 1_555 1_555
C6R C5P 1_555 1_555
C6S C5P 1_555 1_555
C6A C5 1_555 1_555
C6B C5 1_555 1_555
C6C C5 1_555 1_555
C7P C6P 1_555 1_555
C7Q N1P 1_555 1_555
C7R N1P 1_555 1_555
C7S N1P 1_555 1_555
C7A N1 1_555 1_555
C7B N1 1_555 1_555
C7C N1 1_555 1_555
C7 C7A 1_555 1_555
C7 C7C 1_555 1_555
O1E C1A 1_555 1_555
C3X C3F 1_555 1_555
C3Y C3E 1_555 1_555
C6Q C7Q 1_555 1_555
C6R C7R 1_555 1_555
C6S C7S 1_555 1_555
C6A C7A 1_555 1_555
C6B C7B 1_555 1_555
C6C C7C 1_555 1_555
C7P C7Q 1_555 1_555
C7P C7S 1_555 1_555
C7Q C7R 1_555 1_555
C7R C7S 1_555 1_555
C7A C7B 1_555 1_555
C7B C7C 1_555 1_555

#END
