
#######################################################################
#
#                 Cambridge Crystallographic Data Centre
#                                CCDC 
#
#######################################################################
#
# If this CIF has been generated from an entry in the Cambridge 
# Structural Database, then it will include bibliographic, chemical, 
# crystal, experimental, refinement or atomic coordinate data resulting 
# from the CCDC's data processing and validation procedures.
#
#######################################################################

data_CODNAM
_chemical_formula_moiety         '(C7 H22 N2 O12 P4 Zn3)n'
_symmetry_cell_setting           monoclinic
_symmetry_space_group_name_H-M   'P 21/n'
_symmetry_Int_Tables_number      14
_space_group_name_Hall           '-P 2yn'
loop_
_symmetry_equiv_pos_site_id
_symmetry_equiv_pos_as_xyz
1 x,y,z
2 1/2-x,1/2+y,1/2-z
3 -x,-y,-z
4 1/2+x,1/2-y,1/2+z
_cell_length_a                   8.3319(7)
_cell_length_b                   16.4862(3)
_cell_length_c                   15.2677(5)
_cell_angle_alpha                90
_cell_angle_beta                 91.651(5)
_cell_angle_gamma                90
_cell_volume                     2096.32
loop_
_atom_site_label
_atom_site_type_symbol
_atom_site_fract_x
_atom_site_fract_y
_atom_site_fract_z
Zn1 Zn 0.13905(8) 0.14234(4) 0.24196(4)
Zn2 Zn 0.35968(9) 0.04024(4) 0.61154(4)
Zn3 Zn 0.42848(9) 0.06030(4) 0.88743(4)
P1 P 0.3113(3) 0.05549(12) 0.40417(12)
H1 H 0.2387 -0.0140 0.3941
P2 P 0.1524(2) -0.01829(11) 0.77055(12)
H2 H 0.0350 0.0279 0.8003
P3 P 0.54765(19) 0.16333(9) 0.73511(11)
H3 H 0.6825 0.1053 0.7406
P4 P 0.2691(2) 0.05273(10) 1.06782(10)
H4 H 0.1242 0.0388 1.0516
O1 O 0.6286(6) 0.2429(3) 0.7222(4)
O2 O 0.2646(7) 0.1061(3) 1.1467(3)
O3 O 0.2419(7) 0.1238(3) 0.3519(3)
O4 O 0.4849(9) 0.0431(4) 0.3878(4)
O5 O 0.2722(8) 0.0678(4) 0.4981(3)
O6 O 0.4356(6) 0.1445(3) 0.6574(3)
O7 O 0.4610(6) 0.1579(3) 0.8201(3)
O8 O 0.1757(6) 0.0136(4) 0.6817(4)
O9 O 0.0779(6) -0.1026(3) 0.7713(4)
O10 O 0.2991(6) -0.0198(3) 0.8301(3)
O11 O 0.3559(6) -0.0250(3) 1.0800(4)
O12 O 0.3314(7) 0.1031(3) 0.9926(3)
Zn1_2 Zn 0.13905(8) 0.14234(4) 1.24196(4)
Zn1B Zn -0.13905(8) -0.14234(4) 0.75804(4)
Zn1C Zn 0.63905(8) 0.35766(4) 0.74196(4)
Zn2B Zn 0.64032(9) -0.04024(4) 0.38846(4)
Zn3B Zn 0.57152(9) -0.06030(4) 1.11257(4)
O1C O 0.1286(6) 0.2571(3) 0.2222(4)
O2_2 O 0.2646(7) 0.1061(3) 0.1467(3)
O4B O 0.5151(9) -0.0431(4) 0.6122(4)
O9B O -0.0779(6) 0.1026(3) 0.2287(4)
O11B O 0.6441(6) 0.0250(3) 0.9200(4)
C1 C 0.4533(7) 0.2611(5) 1.0300(4)
H5 H 0.4003 0.2081 1.0271
C2 C 0.4731(9) 0.2859(5) 1.1234(5)
H6 H 0.3685 0.2914 1.1490
H7 H 0.5266 0.3382 1.1270
C3 C 0.7167(9) 0.1934(4) 1.0394(4)
H8 H 0.6656 0.1400 1.0346
C4 C 0.7292(7) 0.2162(3) 1.1331(4)
H9 H 0.7862 0.2673 1.1387
H10 H 0.7913 0.1754 1.1647
C5 C 0.3531(13) 0.3215(8) 0.9796(8)
H11 H 0.3407 0.3042 0.9198
H12 H 0.4050 0.3735 0.9816
H13 H 0.2495 0.3257 1.0052
C6 C 0.8778(11) 0.1890(6) 0.9983(6)
H14 H 0.9434 0.1497 1.0289
H15 H 0.9287 0.2412 1.0018
H16 H 0.8643 0.1733 0.9380
C7 C 0.5883(11) 0.2452(6) 1.2697(5)
H17 H 0.6498 0.2037 1.2993
H18 H 0.4842 0.2489 1.2947
H19 H 0.6426 0.2963 1.2760
N1 N 0.6117(9) 0.2547(4) 0.9909(4)
H20 H 0.6600 0.3035 0.9924
H21 H 0.5995 0.2396 0.9344
N2 N 0.5698(8) 0.2242(5) 1.1732(4)
H22 H 0.5184 0.1757 1.1684
loop_
_geom_bond_atom_site_label_1
_geom_bond_atom_site_label_2
_geom_bond_site_symmetry_1
_geom_bond_site_symmetry_2
Zn1 O3 1_555 1_555
Zn2 O5 1_555 1_555
Zn3 O7 1_555 1_555
P1 H1 1_555 1_555
P2 H2 1_555 1_555
P3 H3 1_555 1_555
P4 H4 1_555 1_555
O1 P3 1_555 1_555
O2 P4 1_555 1_555
O3 P1 1_555 1_555
O4 P1 1_555 1_555
O5 P1 1_555 1_555
O6 Zn2 1_555 1_555
O7 P3 1_555 1_555
O8 Zn2 1_555 1_555
O9 P2 1_555 1_555
O10 Zn3 1_555 1_555
O11 P4 1_555 1_555
O12 Zn3 1_555 1_555
C1 H5 1_555 1_555
C2 C1 1_555 1_555
H6 C2 1_555 1_555
H7 C2 1_555 1_555
C3 H8 1_555 1_555
C4 C3 1_555 1_555
H9 C4 1_555 1_555
H10 C4 1_555 1_555
C5 C1 1_555 1_555
H11 C5 1_555 1_555
H12 C5 1_555 1_555
H13 C5 1_555 1_555
C6 C3 1_555 1_555
H14 C6 1_555 1_555
H15 C6 1_555 1_555
H16 C6 1_555 1_555
C7 H17 1_555 1_555
H18 C7 1_555 1_555
H19 C7 1_555 1_555
N1 C1 1_555 1_555
H20 N1 1_555 1_555
H21 N1 1_555 1_555
N2 C2 1_555 1_555
H22 N2 1_555 1_555
Zn1_2 O2 1_555 1_555
Zn1B O9 1_555 1_555
Zn1C O1 1_555 1_555
Zn2B O4 1_555 1_555
Zn3B O11 1_555 1_555
O1C Zn1 1_555 1_555
O2_2 Zn1 1_555 1_555
O4B Zn2 1_555 1_555
O9B Zn1 1_555 1_555
O11B Zn3 1_555 1_555
P2 O8 1_555 1_555
P2 O10 1_555 1_555
P3 O6 1_555 1_555
P4 O12 1_555 1_555
C3 N1 1_555 1_555
C4 N2 1_555 1_555
C7 N2 1_555 1_555

#END
