
#######################################################################
#
#                 Cambridge Crystallographic Data Centre
#                                CCDC 
#
#######################################################################
#
# If this CIF has been generated from an entry in the Cambridge 
# Structural Database, then it will include bibliographic, chemical, 
# crystal, experimental, refinement or atomic coordinate data resulting 
# from the CCDC's data processing and validation procedures.
#
#######################################################################

data_OCUNAE
_chemical_formula_moiety         '(C20 H17 Mn2 N3 O15)n'
_symmetry_cell_setting           monoclinic
_symmetry_space_group_name_H-M   'C 2/c'
_symmetry_Int_Tables_number      15
_space_group_name_Hall           '-C 2yc'
loop_
_symmetry_equiv_pos_site_id
_symmetry_equiv_pos_as_xyz
1 x,y,z
2 -x,y,1/2-z
3 1/2+x,1/2+y,z
4 1/2-x,1/2+y,1/2-z
5 -x,-y,-z
6 x,-y,1/2+z
7 1/2-x,1/2-y,-z
8 1/2+x,1/2-y,1/2+z
_cell_length_a                   26.4461(9)
_cell_length_b                   16.5489(7)
_cell_length_c                   13.4894(3)
_cell_angle_alpha                90
_cell_angle_beta                 104.288(6)
_cell_angle_gamma                90
_cell_volume                     5721.07
loop_
_atom_site_label
_atom_site_type_symbol
_atom_site_fract_x
_atom_site_fract_y
_atom_site_fract_z
_atom_site_U_iso_or_equiv
_atom_site_thermal_displace_type
C1 C 0.4349(2) 0.9532(4) 0.0469(4) 0.0220 Uani
C2 C 0.4813(2) 0.8981(4) 0.0796(4) 0.0208 Uani
C3 C 0.4787(2) 0.8198(4) 0.0399(4) 0.0286 Uani
H1 H 0.4487 0.8022 -0.0068 0.0340 Uiso
C4 C 0.5226(2) 0.7670(4) 0.0717(5) 0.0305 Uani
C5 C 0.5696(2) 0.7927(3) 0.1439(4) 0.0222 Uani
C6 C 0.5711(2) 0.8714(3) 0.1812(4) 0.0203 Uani
C7 C 0.5270(2) 0.9230(3) 0.1495(4) 0.0217 Uani
H2 H 0.5286 0.9751 0.1762 0.0260 Uiso
C8 C 0.6198(2) 0.7435(4) 0.1649(4) 0.0248 Uani
C9 C 0.6376(2) 0.6922(4) 0.2509(5) 0.0325 Uani
C10 C 0.6860(3) 0.6544(4) 0.2712(5) 0.0347 Uani
H3 H 0.6969 0.6222 0.3290 0.0420 Uiso
C11 C 0.7183(2) 0.6655(4) 0.2029(5) 0.0293 Uani
C12 C 0.7017(2) 0.7160(4) 0.1190(4) 0.0280 Uani
H4 H 0.7230 0.7239 0.0743 0.0330 Uiso
C13 C 0.6533(2) 0.7554(3) 0.1005(4) 0.0237 Uani
C14 C 0.6380(2) 0.8125(4) 0.0091(5) 0.0318 Uani
C15 C 0.7723(2) 0.6249(4) 0.2239(5) 0.0322 Uani
C16 C 0.6188(2) 0.9026(4) 0.2608(4) 0.0233 Uani
C17 C 0.7146(5) 0.3991(8) 0.2960(10) 0.1081 Uani
C18 C 0.6808(9) 0.4090(12) 0.3818(13) 0.1743 Uani
H5 H 0.7041 0.4192 0.4474 0.2600 Uiso
H6 H 0.6616 0.3602 0.3849 0.2600 Uiso
H7 H 0.6570 0.4534 0.3634 0.2600 Uiso
C19 C 0.6388(6) 0.3158(11) 0.1973(13) 0.1547 Uani
H8 H 0.6393 0.2698 0.2409 0.2320 Uiso
H9 H 0.6271 0.2994 0.1271 0.2320 Uiso
H10 H 0.6155 0.3560 0.2121 0.2320 Uiso
C20 C 0.7244(8) 0.3339(13) 0.1297(14) 0.1623 Uani
H11 H 0.7270 0.3830 0.0935 0.2450 Uiso
H12 H 0.7060 0.2941 0.0826 0.2450 Uiso
H13 H 0.7588 0.3143 0.1613 0.2450 Uiso
N1 N 0.5163(3) 0.6858(4) 0.0293(7) 0.0721 Uani
N2 N 0.6039(3) 0.6764(5) 0.3226(6) 0.0673 Uani
N3 N 0.6935(4) 0.3509(8) 0.2161(10) 0.1310 Uani
O1 O 0.43151(16) 1.0100(3) 0.1102(3) 0.0312 Uani
O2 O 0.40214(16) 0.9405(3) -0.0386(3) 0.0294 Uani
O3 O 0.5575(3) 0.6925(5) 0.2974(6) 0.0934 Uani
O4 O 0.6247(4) 0.6497(8) 0.4088(7) 0.1497 Uani
O5 O 0.4828(4) 0.6736(5) -0.0476(10) 0.1469 Uani
O6 O 0.5473(4) 0.6331(5) 0.0689(10) 0.1613 Uani
O7 O 0.7924(2) 0.6030(4) 0.3150(4) 0.0579 Uani
O8 O 0.79310(17) 0.6185(3) 0.1496(4) 0.0430 Uani
O9 O 0.6513(2) 0.8862(3) 0.0239(4) 0.0463 Uani
O10 O 0.6152(2) 0.7879(3) -0.0769(4) 0.0601 Uani
O11 O 0.63627(15) 0.9731(2) 0.2438(3) 0.0266 Uani
O12 O 0.63745(17) 0.8618(3) 0.3394(3) 0.0344 Uani
O13 O 0.9208(2) 0.6299(3) 0.2871(3) 0.0450 Uani
H14 H 0.9496 0.6560 0.2685 0.0680 Uiso
H15 H 0.9339 0.5887 0.3369 0.0680 Uiso
O14 O 0.7566(3) 0.4329(6) 0.3058(7) 0.1160 Uani
O15 O 0.8021(2) 0.5326(3) 0.5275(4) 0.0493 Uani
H16 H 0.8328 0.5381 0.5824 0.0740 Uiso
H17 H 0.7801 0.4913 0.5441 0.0740 Uiso
Mn1 Mn 0.87010(3) 0.57834(6) 0.14851(6) 0.0286 Uani
Mn2 Mn 0.82817(3) 0.49661(6) 0.38608(7) 0.0268 Uani
O1B O 0.93151(16) 0.5100(3) 0.1102(3) 0.0312 Uani
O2G O 0.90214(16) 0.5595(3) 0.4614(3) 0.0294 Uani
O9C O 0.8487(2) 0.3862(3) 0.4761(4) 0.0463 Uani
O9F O 0.8487(2) 0.6138(3) -0.0239(4) 0.0463 Uani
O11C O 0.86373(15) 0.4731(2) 0.2562(3) 0.0266 Uani
Mn1B Mn 0.37010(3) 1.07834(6) 0.14851(6) 0.0286 Uani
Mn1C Mn 0.62990(3) 1.07834(6) 0.35149(6) 0.0286 Uani
Mn1F Mn 0.62990(3) 0.92166(6) -0.14851(6) 0.0286 Uani
Mn2C Mn 0.67183(3) 0.99661(6) 0.11392(7) 0.0268 Uani
Mn2G Mn 0.32817(3) 1.00339(6) -0.11392(7) 0.0268 Uani
loop_
_atom_site_aniso_label
_atom_site_aniso_U_11
_atom_site_aniso_U_22
_atom_site_aniso_U_33
_atom_site_aniso_U_23
_atom_site_aniso_U_13
_atom_site_aniso_U_12
C1 0.018(3) 0.032(3) 0.017(3) -0.001(2) 0.006(2) 0.001(2)
C2 0.013(2) 0.038(3) 0.012(3) 0.000(2) 0.004(2) 0.002(2)
C3 0.021(3) 0.038(3) 0.023(3) -0.010(3) -0.002(2) 0.001(2)
C4 0.020(3) 0.034(3) 0.035(3) -0.010(3) 0.002(3) 0.004(2)
C5 0.019(3) 0.031(3) 0.017(3) 0.003(2) 0.005(2) 0.010(2)
C6 0.015(3) 0.029(3) 0.016(3) -0.002(2) 0.002(2) 0.001(2)
C7 0.019(3) 0.031(3) 0.018(3) -0.002(2) 0.010(2) 0.005(2)
C8 0.023(3) 0.029(3) 0.020(3) -0.002(2) 0.001(2) 0.006(2)
C9 0.034(3) 0.042(4) 0.024(3) 0.013(3) 0.012(3) 0.012(3)
C10 0.048(4) 0.040(4) 0.019(3) 0.013(3) 0.014(3) 0.017(3)
C11 0.025(3) 0.034(3) 0.028(3) 0.001(3) 0.005(2) 0.010(3)
C12 0.030(3) 0.035(3) 0.022(3) -0.002(2) 0.012(2) 0.005(2)
C13 0.030(3) 0.028(3) 0.010(2) 0.003(2) -0.001(2) 0.006(2)
C14 0.032(3) 0.039(4) 0.028(3) 0.011(3) 0.014(3) 0.017(3)
C15 0.028(3) 0.036(4) 0.031(3) 0.001(3) 0.004(3) 0.013(3)
C16 0.018(3) 0.038(3) 0.014(3) -0.003(2) 0.004(2) 0.005(2)
C17 0.086(8) 0.111(9) 0.094(9) 0.049(8) -0.041(7) -0.051(7)
C18 0.27(3) 0.142(15) 0.109(13) 0.028(11) 0.043(16) -0.043(15)
C19 0.110(11) 0.196(17) 0.135(13) 0.021(12) -0.014(10) -0.107(12)
C20 0.138(15) 0.22(2) 0.125(14) 0.050(13) 0.025(12) -0.053(13)
N1 0.044(4) 0.055(5) 0.100(6) -0.006(4) -0.015(4) 0.015(3)
N2 0.058(5) 0.083(5) 0.071(5) 0.027(4) 0.035(4) 0.029(4)
N3 0.082(7) 0.175(12) 0.109(9) 0.050(8) -0.028(7) -0.069(7)
O1 0.021(2) 0.046(3) 0.027(2) -0.0048(19) 0.0065(17) 0.0105(18)
O2 0.025(2) 0.044(3) 0.017(2) -0.0039(18) 0.0008(17) 0.0082(18)
O3 0.057(4) 0.125(6) 0.112(6) 0.050(5) 0.047(4) 0.026(4)
O4 0.109(7) 0.272(14) 0.084(6) 0.087(8) 0.054(6) 0.060(8)
O5 0.110(7) 0.086(6) 0.198(11) -0.062(7) -0.051(7) 0.027(5)
O6 0.109(7) 0.077(6) 0.240(13) -0.041(7) -0.067(8) 0.043(5)
O7 0.055(3) 0.088(4) 0.028(3) 0.014(3) 0.005(2) 0.050(3)
O8 0.025(2) 0.067(3) 0.040(3) 0.019(2) 0.014(2) 0.028(2)
O9 0.076(4) 0.030(3) 0.036(3) 0.002(2) 0.020(3) 0.005(2)
O10 0.076(4) 0.067(4) 0.023(3) 0.013(2) -0.015(3) 0.011(3)
O11 0.025(2) 0.035(2) 0.022(2) -0.0023(17) 0.0097(17) -0.0084(18)
O12 0.034(2) 0.037(3) 0.027(2) 0.0042(19) -0.0022(19) 0.0059(19)
O13 0.054(3) 0.052(3) 0.028(2) 0.006(2) 0.008(2) -0.010(2)
O14 0.059(5) 0.166(8) 0.101(6) -0.030(6) -0.022(4) -0.050(5)
O15 0.059(3) 0.061(3) 0.034(3) -0.013(2) 0.023(2) -0.013(3)
Mn1 0.0288(6) 0.0417(6) 0.0183(5) 0.0080(4) 0.0116(4) 0.0188(4)
Mn2 0.0203(5) 0.0440(7) 0.0157(5) 0.0015(4) 0.0034(4) -0.0013(4)
O1B 0.021 0.046 0.027 -0.0048 0.0065 0.0105
O2G 0.025 0.044 0.017 0.0039 0.0008 -0.0082
O9C 0.076 0.03 0.036 -0.002 0.02 -0.005
O9F 0.076 0.03 0.036 0.002 0.02 0.005
O11C 0.025 0.035 0.022 0.0023 0.0097 0.0084
Mn1B 0.0288 0.0417 0.0183 0.008 0.0116 0.0188
Mn1C 0.0288 0.0417 0.0183 -0.008 0.0116 -0.0188
Mn1F 0.0288 0.0417 0.0183 0.008 0.0116 0.0188
Mn2C 0.0203 0.044 0.0157 -0.0015 0.0034 0.0013
Mn2G 0.0203 0.044 0.0157 -0.0015 0.0034 0.0013
loop_
_geom_bond_atom_site_label_1
_geom_bond_atom_site_label_2
_geom_bond_site_symmetry_1
_geom_bond_site_symmetry_2
C1 C2 1_555 1_555
C2 C3 1_555 1_555
C3 H1 1_555 1_555
C4 C3 1_555 1_555
C5 C4 1_555 1_555
C6 C5 1_555 1_555
C7 C2 1_555 1_555
H2 C7 1_555 1_555
C8 C5 1_555 1_555
C9 C8 1_555 1_555
C10 C9 1_555 1_555
H3 C10 1_555 1_555
C11 C10 1_555 1_555
C12 C11 1_555 1_555
H4 C12 1_555 1_555
C13 C8 1_555 1_555
C14 C13 1_555 1_555
C15 C11 1_555 1_555
C16 C6 1_555 1_555
C17 C18 1_555 1_555
C18 H5 1_555 1_555
H6 C18 1_555 1_555
H7 C18 1_555 1_555
C19 H8 1_555 1_555
H9 C19 1_555 1_555
H10 C19 1_555 1_555
C20 H11 1_555 1_555
H12 C20 1_555 1_555
H13 C20 1_555 1_555
N1 C4 1_555 1_555
N2 C9 1_555 1_555
N3 C17 1_555 1_555
O1 C1 1_555 1_555
O2 C1 1_555 1_555
O3 N2 1_555 1_555
O4 N2 1_555 1_555
O5 N1 1_555 1_555
O6 N1 1_555 1_555
O7 C15 1_555 1_555
O8 C15 1_555 1_555
O9 C14 1_555 1_555
O10 C14 1_555 1_555
O11 C16 1_555 1_555
O12 C16 1_555 1_555
O13 H14 1_555 1_555
H15 O13 1_555 1_555
O14 C17 1_555 1_555
O15 H16 1_555 1_555
H17 O15 1_555 1_555
Mn1 O8 1_555 1_555
Mn2 O7 1_555 1_555
O1B Mn1 1_555 1_555
O2G Mn2 1_555 1_555
O9C Mn2 1_555 1_555
O9F Mn1 1_555 1_555
O11C Mn1 1_555 1_555
Mn1B O1 1_555 1_555
Mn1C O11 1_555 1_555
Mn1F O9 1_555 1_555
Mn2C O9 1_555 1_555
Mn2G O2 1_555 1_555
C6 C7 1_555 1_555
C12 C13 1_555 1_555
C19 N3 1_555 1_555
C20 N3 1_555 1_555
O11 Mn2C 1_555 1_555
O13 Mn1 1_555 1_555
O14 Mn2 1_555 1_555
O15 Mn2 1_555 1_555
Mn2 O11C 1_555 1_555

#END
