
#######################################################################
#
#                 Cambridge Crystallographic Data Centre
#                                CCDC 
#
#######################################################################
#
# If this CIF has been generated from an entry in the Cambridge 
# Structural Database, then it will include bibliographic, chemical, 
# crystal, experimental, refinement or atomic coordinate data resulting 
# from the CCDC's data processing and validation procedures.
#
#######################################################################

data_GUXQAR
_chemical_formula_moiety         '(C10 H8 O12 V2)n'
_symmetry_cell_setting           triclinic
_symmetry_space_group_name_H-M   'P -1'
_symmetry_Int_Tables_number      2
_space_group_name_Hall           '-P 1'
loop_
_symmetry_equiv_pos_site_id
_symmetry_equiv_pos_as_xyz
1 x,y,z
2 -x,-y,-z
_cell_length_a                   6.3758(5)
_cell_length_b                   6.8840(5)
_cell_length_c                   9.0254(7)
_cell_angle_alpha                69.010(2)
_cell_angle_beta                 85.197(2)
_cell_angle_gamma                79.452(2)
_cell_volume                     363.527
loop_
_atom_site_label
_atom_site_type_symbol
_atom_site_fract_x
_atom_site_fract_y
_atom_site_fract_z
V1 V -0.0000 0.5000 0.5000
V2 V -0.0000 0.0000 0.5000
O1 O -0.0107(5) 0.2011(4) 0.6076(3)
O2 O -0.8067(4) 0.1573(4) 0.3209(3)
O3 O -0.1746(4) 0.5113(4) 0.3152(3)
O4 O -0.2520(4) 0.1870(4) 0.3690(3)
O5 O -0.7317(4) 0.4221(4) 0.3856(3)
C1 C -0.3961(6) 0.4561(6) 0.1414(4)
C2 C -0.2677(6) 0.3812(6) 0.2887(4)
C3 C -0.5940(6) 0.3936(6) 0.1443(4)
C4 C -0.7174(6) 0.3141(6) 0.2969(4)
C5 C -0.6945(6) 0.4359(6) 0.0034(4)
H1 H -0.8244(6) 0.3914(6) 0.0057(4)
H2 H -0.0657(93) 0.1626(95) 0.6834(69)
C5A C -0.3055(6) 0.5641(6) -0.0034(4)
C3A C -0.4060(6) 0.6064(6) -0.1443(4)
C1A C -0.6039(6) 0.5439(6) -0.1414(4)
C2A C -0.7323(6) 0.6188(6) -0.2887(4)
O3A O -0.8254(4) 0.4887(4) -0.3152(3)
O4A O -0.7480(4) 0.8130(4) -0.3690(3)
C4A C -0.2826(6) 0.6859(6) -0.2969(4)
O2A O -0.1933(4) 0.8427(4) -0.3209(3)
O5A O -0.2683(4) 0.5779(4) -0.3856(3)
H1A H -0.1756(6) 0.6086(6) -0.0057(4)
O1A O 0.0107(5) 0.7989(4) 0.3924(3)
H2A H 0.0657(93) 0.8374(95) 0.3166(69)
O3A_2 O 0.1746(4) 0.4887(4) 0.6848(3)
O5_2 O 0.2683(4) 0.4221(4) 0.3856(3)
O5A_2 O -0.2683(4) 0.5779(4) 0.6144(3)
O1A_2 O 0.0107(5) -0.2011(4) 0.3924(3)
O2_2 O 0.1933(4) 0.1573(4) 0.3209(3)
O2A_2 O -0.1933(4) -0.1573(4) 0.6791(3)
O4A_2 O 0.2520(4) -0.1870(4) 0.6310(3)
V2_2 V -1.0000 0.0000 0.5000
V1_2 V -1.0000 0.5000 0.5000
V1_3 V -1.0000 0.5000 -0.5000
V2_3 V -1.0000 1.0000 -0.5000
V2_4 V -0.0000 1.0000 -0.5000
V1_4 V -0.0000 0.5000 -0.5000
V2_5 V -0.0000 1.0000 0.5000
H2A_2 H 0.0657(93) -0.1626(95) 0.3166(69)
O6 O -0.1882(12) 0.1032(10) 0.9079(6)
O7 O 0.4052(13) 0.0734(11) 0.8065(9)
loop_
_geom_bond_atom_site_label_1
_geom_bond_atom_site_label_2
_geom_bond_site_symmetry_1
_geom_bond_site_symmetry_2
V1 O1 1_555 1_555
V2 O1 1_555 1_555
O1 H2 1_555 1_555
O2 C4 1_555 1_555
O3 V1 1_555 1_555
O4 V2 1_555 1_555
O5 C4 1_555 1_555
C1 C2 1_555 1_555
C2 O3 1_555 1_555
C3 C1 1_555 1_555
C4 C3 1_555 1_555
C5 C3 1_555 1_555
H1 C5 1_555 1_555
C5A C1 1_555 1_555
C3A C5A 1_555 1_555
C1A C5 1_555 1_555
C2A C1A 1_555 1_555
O3A C2A 1_555 1_555
O4A C2A 1_555 1_555
C4A C3A 1_555 1_555
O2A C4A 1_555 1_555
O5A C4A 1_555 1_555
H1A C5A 1_555 1_555
O1A V1 1_555 1_555
H2A O1A 1_555 1_555
O3A_2 V1 1_555 1_555
O5_2 V1 1_555 1_555
O5A_2 V1 1_555 1_555
O1A_2 V2 1_555 1_555
O2_2 V2 1_555 1_555
O2A_2 V2 1_555 1_555
O4A_2 V2 1_555 1_555
V2_2 O2 1_555 1_555
V1_2 O5 1_555 1_555
V1_3 O3A 1_555 1_555
V2_3 O4A 1_555 1_555
V2_4 O2A 1_555 1_555
V1_4 O5A 1_555 1_555
V2_5 O1A 1_555 1_555
H2A_2 O1A_2 1_555 1_555
O4 C2 1_555 1_555
C3A C1A 1_555 1_555

#END
