
#######################################################################
#
#                 Cambridge Crystallographic Data Centre
#                                CCDC 
#
#######################################################################
#
# If this CIF has been generated from an entry in the Cambridge 
# Structural Database, then it will include bibliographic, chemical, 
# crystal, experimental, refinement or atomic coordinate data resulting 
# from the CCDC's data processing and validation procedures.
#
#######################################################################

data_NIVNOW
_chemical_formula_moiety         '(C24 H16 Cu3 N20 O4 W2)n'
_symmetry_cell_setting           monoclinic
_symmetry_space_group_name_H-M   'C 2/m'
_symmetry_Int_Tables_number      12
_space_group_name_Hall           '-C 2y'
loop_
_symmetry_equiv_pos_site_id
_symmetry_equiv_pos_as_xyz
1 x,y,z
2 1/2+x,1/2+y,z
3 -x,y,-z
4 1/2-x,1/2+y,-z
5 -x,-y,-z
6 1/2-x,1/2-y,-z
7 x,-y,z
8 1/2+x,1/2-y,z
_cell_length_a                   26.507(7)
_cell_length_b                   14.780(3)
_cell_length_c                   11.512(2)
_cell_angle_alpha                90
_cell_angle_beta                 108.359(10)
_cell_angle_gamma                90
_cell_volume                     4280.54
loop_
_atom_site_label
_atom_site_type_symbol
_atom_site_fract_x
_atom_site_fract_y
_atom_site_fract_z
O2 O 0.5021(8) 0.1289(18) 0.6202(15)
O3 O 0.4862(10) 0.3336(19) 0.5944(17)
W1 W 0.349647(9) 0.5000 0.79936(2)
W2 W 0.361684(9) 0.0000 0.85814(2)
Cu1 Cu 0.2500 0.2500 0.5000
Cu2 Cu 0.2500 0.2500 1.0000
Cu3 Cu 0.5000 0.26450(5) 1.0000
O1 O 0.5257(3) 0.2529(6) 0.8121(6)
N1 N 0.30332(16) 0.3371(2) 0.6000(3)
N2 N 0.4266(3) 0.5000 0.6239(8)
N3 N 0.44712(16) 0.3588(2) 0.9270(4)
N4 N 0.31292(18) 0.3531(2) 0.9725(4)
N5 N 0.2180(3) 0.5000 0.7123(8)
N6 N 0.44524(17) 0.1703(2) 0.9352(4)
N7 N 0.4316(4) 0.0000 0.6675(10)
N8 N 0.29866(18) 0.1353(2) 0.6315(3)
N9 N 0.28895(16) 0.1466(2) 0.9526(3)
N10 N 0.4122(4) 0.0000 1.1602(7)
N11 N 0.20624(14) 0.2693(2) 0.6167(3)
N12 N 0.20614(15) 0.2684(2) 0.8211(3)
C1 C 0.32190(17) 0.3925(3) 0.6684(3)
C2 C 0.4010(3) 0.5000 0.6842(7)
C3 C 0.41368(18) 0.4085(3) 0.8837(4)
C4 C 0.32631(18) 0.4065(3) 0.9173(4)
C5 C 0.2637(3) 0.5000 0.7427(6)
C6 C 0.41555(18) 0.1131(3) 0.9070(4)
C7 C 0.4072(3) 0.0000 0.7335(8)
C8 C 0.32018(19) 0.0885(3) 0.7097(4)
C9 C 0.31251(17) 0.0930(2) 0.9208(3)
C10 C 0.3945(3) 0.0000 1.0573(7)
C11 C 0.1545(2) 0.2876(4) 0.5793(4)
H1 H 0.1366 0.2934 0.4960
C12 C 0.1269(2) 0.2982(6) 0.6615(5)
H2 H 0.0910 0.3127 0.6355
C13 C 0.1543(2) 0.2868(4) 0.7829(4)
H3 H 0.1363 0.2920 0.8400
C14 C 0.23009(17) 0.2612(2) 0.7357(3)
H4 H 0.2664 0.2495 0.7619
W1E W 0.150353(9) 0.0000 0.20064(2)
W2E W 0.138316(9) 0.5000 0.14186(2)
W2D W 0.638316(9) 0.0000 1.14186(2)
Cu1F Cu 0.2500 0.7500 0.5000
Cu2F Cu 0.2500 0.7500 1.0000
Cu2_2 Cu 0.2500 0.2500 0.0000
Cu3F Cu 0.5000 0.73550(5) 1.0000
O1B O 0.4743(3) 0.2529(6) 1.1879(6)
N1F N 0.30332(16) 0.6629(2) 0.6000(3)
N1E N 0.19668(16) 0.1629(2) 0.4000(3)
N3F N 0.44712(16) 0.6412(2) 0.9270(4)
N3B N 0.55288(16) 0.3588(2) 1.0730(4)
N4F N 0.31292(18) 0.6469(2) 0.9725(4)
N4E N 0.18708(18) 0.1469(2) 1.0275(4)
N6B N 0.55476(17) 0.1703(2) 1.0648(4)
N8E N 0.20134(18) 0.3647(2) 0.3685(3)
N9E N 0.21105(16) 0.3534(2) 1.0474(3)
N11E N 0.29376(14) 0.2307(2) 0.3833(3)
N12E N 0.29386(15) 0.2316(2) 0.1789(3)
N12E_2 N 0.29386(15) 0.2316(2) 1.1789(3)
C1F C 0.32190(17) 0.6075(3) 0.6684(3)
C1E C 0.17810(17) 0.1075(3) 0.3316(3)
C3F C 0.41368(18) 0.5915(3) 0.8837(4)
C4F C 0.32631(18) 0.5935(3) 0.9173(4)
C6B C 0.58445(18) 0.1131(3) 1.0930(4)
C6F C 0.41555(18) -0.1131(3) 0.9070(4)
C8E C 0.17982(19) 0.4115(3) 0.2903(4)
C8F C 0.32018(19) -0.0885(3) 0.7097(4)
C9F C 0.31251(17) -0.0930(2) 0.9208(3)
C11E C 0.3455(2) 0.2124(4) 0.4207(4)
H1E H 0.3634 0.2066 0.5040
C12E C 0.3731(2) 0.2018(6) 0.3385(5)
H2E H 0.4090 0.1873 0.3645
C13E C 0.3457(2) 0.2132(4) 0.2171(4)
H3E H 0.3637 0.2080 0.1600
C14E C 0.26991(17) 0.2388(2) 0.2643(3)
H4E H 0.2336 0.2505 0.2381
loop_
_geom_bond_atom_site_label_1
_geom_bond_atom_site_label_2
_geom_bond_site_symmetry_1
_geom_bond_site_symmetry_2
W1 C1 1_555 1_555
W2 C6 1_555 1_555
Cu1 N1 1_555 1_555
Cu2 N4 1_555 1_555
Cu3 O1 1_555 1_555
N1 C1 1_555 1_555
N2 C2 1_555 1_555
N3 Cu3 1_555 1_555
N4 C4 1_555 1_555
N5 C5 1_555 1_555
N6 Cu3 1_555 1_555
N7 C7 1_555 1_555
N8 Cu1 1_555 1_555
N9 Cu2 1_555 1_555
N10 C10 1_555 1_555
N11 Cu1 1_555 1_555
N12 Cu2 1_555 1_555
C2 W1 1_555 1_555
C3 W1 1_555 1_555
C4 W1 1_555 1_555
C5 W1 1_555 1_555
C6 N6 1_555 1_555
C7 W2 1_555 1_555
C8 W2 1_555 1_555
C9 W2 1_555 1_555
C10 W2 1_555 1_555
C11 N11 1_555 1_555
H1 C11 1_555 1_555
C12 C11 1_555 1_555
H2 C12 1_555 1_555
C13 N12 1_555 1_555
H3 C13 1_555 1_555
C14 N11 1_555 1_555
H4 C14 1_555 1_555
W1E C1E 1_555 1_555
W2E C8E 1_555 1_555
W2D C6B 1_555 1_555
Cu1F N1F 1_555 1_555
Cu2F N4F 1_555 1_555
Cu2_2 N12E 1_555 1_555
Cu3F N3F 1_555 1_555
O1B Cu3 1_555 1_555
N1F C1F 1_555 1_555
N1E Cu1 1_555 1_555
N3F C3F 1_555 1_555
N3B Cu3 1_555 1_555
N4F C4F 1_555 1_555
N4E Cu2 1_555 1_555
N6B Cu3 1_555 1_555
N8E Cu1 1_555 1_555
N9E Cu2 1_555 1_555
N11E Cu1 1_555 1_555
N12E C13E 1_555 1_555
N12E_2 Cu2 1_555 1_555
C1F W1 1_555 1_555
C1E N1E 1_555 1_555
C3F W1 1_555 1_555
C4F W1 1_555 1_555
C6B N6B 1_555 1_555
C6F W2 1_555 1_555
C8E N8E 1_555 1_555
C8F W2 1_555 1_555
C9F W2 1_555 1_555
C11E N11E 1_555 1_555
H1E C11E 1_555 1_555
C12E C11E 1_555 1_555
H2E C12E 1_555 1_555
C13E C12E 1_555 1_555
H3E C13E 1_555 1_555
C14E N11E 1_555 1_555
H4E C14E 1_555 1_555
N3 C3 1_555 1_555
N8 C8 1_555 1_555
N9 C9 1_555 1_555
N12 C14 1_555 1_555
C12 C13 1_555 1_555
N12E C14E 1_555 1_555

#END
