
#######################################################################
#
#                 Cambridge Crystallographic Data Centre
#                                CCDC 
#
#######################################################################
#
# If this CIF has been generated from an entry in the Cambridge 
# Structural Database, then it will include bibliographic, chemical, 
# crystal, experimental, refinement or atomic coordinate data resulting 
# from the CCDC's data processing and validation procedures.
#
#######################################################################

data_OCAWAT
_chemical_formula_moiety         '(C29 H33 Cd3 N1 O19 Si1)n'
_symmetry_cell_setting           monoclinic
_symmetry_space_group_name_H-M   'P 21/n'
_symmetry_Int_Tables_number      14
_space_group_name_Hall           '-P 2yn'
loop_
_symmetry_equiv_pos_site_id
_symmetry_equiv_pos_as_xyz
1 x,y,z
2 1/2-x,1/2+y,1/2-z
3 -x,-y,-z
4 1/2+x,1/2-y,1/2+z
_cell_length_a                   10.4060(4)
_cell_length_b                   27.2442(9)
_cell_length_c                   13.1722(5)
_cell_angle_alpha                90
_cell_angle_beta                 102.3950(10)
_cell_angle_gamma                90
_cell_volume                     3647.32
loop_
_atom_site_label
_atom_site_type_symbol
_atom_site_fract_x
_atom_site_fract_y
_atom_site_fract_z
Cd1 Cd 0.02664(3) 0.07005(2) 0.38025(2)
Cd2 Cd 1.26989(3) -0.11729(2) 0.80240(2)
Cd3 Cd 1.22885(3) 0.18832(2) 1.15920(2)
Si1 Si 0.65068(9) 0.04853(3) 0.81434(8)
O1 O 0.6731(4) 0.23202(11) 0.6827(3)
O2 O 0.6235(4) 0.28386(11) 0.7929(3)
O3 O 0.3903(3) 0.20450(10) 1.0746(2)
O4 O 0.5237(3) 0.14437(11) 1.1488(2)
O5 O 1.0499(3) 0.15710(10) 1.0450(2)
O6 O 1.2249(3) 0.11033(12) 1.0769(3)
O7 O 1.2390(3) -0.04568(10) 0.8882(2)
O8 O 1.0587(3) -0.07554(9) 0.7887(2)
O9 O 0.8734(3) 0.07113(10) 0.4776(2)
O10 O 0.7121(3) 0.07120(12) 0.3363(2)
O11 O 0.2499(3) 0.07545(11) 0.3719(2)
O12 O 0.2022(3) 0.04967(11) 0.5167(2)
O13 O 1.3741(3) 0.15343(12) 1.2950(3)
O14 O 0.0240(4) 0.15247(12) 0.4083(3)
O15 O -0.0244(3) -0.01365(10) 0.3698(2)
O16 O 1.2388(4) -0.17894(13) 0.6738(3)
H1 H 1.2279 -0.2076 0.7006
H2 H 1.3073 -0.1807 0.6455
O17 O 1.1808(3) -0.17207(12) 0.8941(3)
H3 H 1.1792 -0.2015 0.8665
H4 H 1.0997 -0.1639 0.8956
C1 C 0.5671(4) -0.00292(15) 0.8665(3)
H5 H 0.5826 -0.0004 0.9409
H6 H 0.6014 -0.0336 0.8479
H7 H 0.4743 -0.0014 0.8378
C2 C 0.6007(4) 0.11004(13) 0.8553(3)
C3 C 0.6229(4) 0.15127(14) 0.7976(3)
H8 H 0.6556 0.1466 0.7379
C4 C 0.5977(4) 0.19876(14) 0.8264(3)
C5 C 0.5457(4) 0.20595(14) 0.9144(3)
H9 H 0.5252 0.2374 0.9331
C6 C 0.5245(4) 0.16583(14) 0.9741(3)
C7 C 0.5531(4) 0.11871(13) 0.9445(3)
H10 H 0.5399 0.0922 0.9857
C8 C 0.4769(4) 0.17231(14) 1.0731(3)
C9 C 0.6317(4) 0.24054(15) 0.7633(3)
C10 C 0.8347(3) 0.04512(13) 0.8583(3)
C11 C 0.9046(4) 0.08272(13) 0.9190(3)
H11 H 0.8597 0.1105 0.9332
C12 C 1.0390(4) 0.07936(13) 0.9583(3)
C13 C 1.1083(4) 0.03902(14) 0.9346(3)
H12 H 1.1987 0.0370 0.9601
C14 C 1.0426(4) 0.00161(13) 0.8730(3)
C15 C 0.9066(4) 0.00445(13) 0.8362(3)
H13 H 0.8628 -0.0211 0.7964
C16 C 1.1095(4) 0.11780(14) 1.0305(3)
C17 C 1.1187(4) -0.04177(13) 0.8485(3)
C18 C 0.6032(3) 0.05079(12) 0.6690(3)
C19 C 0.6944(4) 0.05741(13) 0.6062(3)
H14 H 0.7837 0.0579 0.6367
C20 C 0.6551(4) 0.06324(13) 0.4996(3)
C21 C 0.5218(4) 0.06346(13) 0.4532(3)
H15 H 0.4949 0.0670 0.3815
C22 C 0.4293(3) 0.05846(13) 0.5139(3)
C23 C 0.4695(4) 0.05117(13) 0.6204(3)
H16 H 0.4067 0.0465 0.6601
C24 C 0.7531(4) 0.06909(13) 0.4318(3)
C25 C 0.2854(4) 0.06106(13) 0.4647(3)
Cd1_2 Cd 1.02664(3) 0.07005(2) 0.38025(2)
Cd1B Cd 0.97336(3) -0.07005(2) 0.61975(2)
Cd2B Cd 0.73011(3) 0.11729(2) 0.19760(2)
Cd2B_2 Cd 0.73011(3) 0.11729(2) 1.19760(2)
Cd3_2 Cd 0.22885(3) 0.18832(2) 1.15920(2)
Cd3C Cd 0.72885(3) 0.31168(2) 0.65920(2)
O1C O 1.1731(4) 0.26798(11) 1.1827(3)
O2C O 1.1235(4) 0.21614(11) 1.2929(3)
O3_2 O 1.3903(3) 0.20450(10) 1.0746(2)
O4B O 1.4763(3) -0.14437(11) 0.8512(2)
O8B O -0.0587(3) 0.07554(9) 0.2113(2)
O9_2 O -0.1266(3) 0.07113(10) 0.4776(2)
O10B O 1.2879(3) -0.07120(12) 0.6637(2)
N1 N 0.372(2) 0.6825(8) 0.786(2)
O18 O 0.2400(6) 0.74610(15) 0.8016(4)
C26 C 0.443(3) 0.7102(9) 0.719(2)
C27 C 0.416(3) 0.6305(9) 0.810(2)
C28 C 0.2650(7) 0.7029(2) 0.8219(5)
C29 C 0.1996(8) 0.6782(3) 0.8978(6)
H17 H 0.1528 0.7021 0.9294
H18 H 0.2648 0.6625 0.9505
H19 H 0.1390 0.6540 0.8625
O19 O 0.6077(7) 0.1893(3) 0.4679(7)
H20 H 0.5909 0.2099 0.5118
H21 H 0.5372 0.1748 0.4384
loop_
_geom_bond_atom_site_label_1
_geom_bond_atom_site_label_2
_geom_bond_site_symmetry_1
_geom_bond_site_symmetry_2
Cd1 O11 1_555 1_555
Cd2 O7 1_555 1_555
Cd3 O5 1_555 1_555
Si1 C1 1_555 1_555
O1 C9 1_555 1_555
O2 C9 1_555 1_555
O3 C8 1_555 1_555
O4 C8 1_555 1_555
O5 C16 1_555 1_555
O6 Cd3 1_555 1_555
O7 C17 1_555 1_555
O8 Cd2 1_555 1_555
O9 C24 1_555 1_555
O10 C24 1_555 1_555
O11 C25 1_555 1_555
O12 Cd1 1_555 1_555
O13 Cd3 1_555 1_555
O14 Cd1 1_555 1_555
O15 Cd1 1_555 1_555
O16 Cd2 1_555 1_555
H1 O16 1_555 1_555
H2 O16 1_555 1_555
O17 Cd2 1_555 1_555
H3 O17 1_555 1_555
H4 O17 1_555 1_555
C1 H5 1_555 1_555
H6 C1 1_555 1_555
H7 C1 1_555 1_555
C2 Si1 1_555 1_555
C3 C2 1_555 1_555
H8 C3 1_555 1_555
C4 C3 1_555 1_555
C5 C4 1_555 1_555
H9 C5 1_555 1_555
C6 C5 1_555 1_555
C7 C2 1_555 1_555
H10 C7 1_555 1_555
C8 C6 1_555 1_555
C9 C4 1_555 1_555
C10 Si1 1_555 1_555
C11 C10 1_555 1_555
H11 C11 1_555 1_555
C12 C11 1_555 1_555
C13 C12 1_555 1_555
H12 C13 1_555 1_555
C14 C13 1_555 1_555
C15 C10 1_555 1_555
H13 C15 1_555 1_555
C16 O6 1_555 1_555
C17 O8 1_555 1_555
C18 Si1 1_555 1_555
C19 C18 1_555 1_555
H14 C19 1_555 1_555
C20 C19 1_555 1_555
C21 C20 1_555 1_555
H15 C21 1_555 1_555
C22 C21 1_555 1_555
C23 C18 1_555 1_555
H16 C23 1_555 1_555
C24 C20 1_555 1_555
C25 O12 1_555 1_555
N1 C26 1_555 1_555
O18 C28 1_555 1_555
C27 N1 1_555 1_555
C28 N1 1_555 1_555
C29 C28 1_555 1_555
H17 C29 1_555 1_555
H18 C29 1_555 1_555
H19 C29 1_555 1_555
O19 H20 1_555 1_555
H21 O19 1_555 1_555
Cd1_2 O9 1_555 1_555
Cd1B O8 1_555 1_555
Cd2B O10 1_555 1_555
Cd2B_2 O4 1_555 1_555
Cd3_2 O3 1_555 1_555
Cd3C O1 1_555 1_555
O1C Cd3 1_555 1_555
O2C Cd3 1_555 1_555
O3_2 Cd3 1_555 1_555
O4B Cd2 1_555 1_555
O8B Cd1 1_555 1_555
O9_2 Cd1 1_555 1_555
O10B Cd2 1_555 1_555
O2 Cd3C 1_555 1_555
C6 C7 1_555 1_555
C12 C16 1_555 1_555
C14 C15 1_555 1_555
C14 C17 1_555 1_555
C22 C23 1_555 1_555
C22 C25 1_555 1_555

#END
