
#######################################################################
#
#                 Cambridge Crystallographic Data Centre
#                                CCDC 
#
#######################################################################
#
# If this CIF has been generated from an entry in the Cambridge 
# Structural Database, then it will include bibliographic, chemical, 
# crystal, experimental, refinement or atomic coordinate data resulting 
# from the CCDC's data processing and validation procedures.
#
#######################################################################

data_GUVCOP
_chemical_formula_moiety         '(C42 H72 Cu5 N17 O40 Pt3 3+)n'
_symmetry_cell_setting           monoclinic
_symmetry_space_group_name_H-M   'C 2/c'
_symmetry_Int_Tables_number      15
_space_group_name_Hall           '-C 2yc'
loop_
_symmetry_equiv_pos_site_id
_symmetry_equiv_pos_as_xyz
1 x,y,z
2 1/2+x,1/2+y,z
3 -x,y,1/2-z
4 1/2-x,1/2+y,1/2-z
5 -x,-y,-z
6 1/2-x,1/2-y,-z
7 x,-y,1/2+z
8 1/2+x,1/2-y,1/2+z
_cell_length_a                   24.042(8)
_cell_length_b                   12.490(4)
_cell_length_c                   31.150(7)
_cell_angle_alpha                90
_cell_angle_beta                 107.80(2)
_cell_angle_gamma                90
_cell_volume                     8906.09
loop_
_atom_site_label
_atom_site_type_symbol
_atom_site_fract_x
_atom_site_fract_y
_atom_site_fract_z
_atom_site_U_iso_or_equiv
_atom_site_thermal_displace_type
Pt1 Pt 0.28217(3) 0.49248(5) 0.39029(3) 0.0451 Uani
Pt2 Pt 0.5000 0.73117(9) 0.7500 0.0679 Uani
Cu1 Cu 0.5000 1.0000 0.5000 0.0341 Uani
Cu2 Cu 0.53736(9) 0.80281(16) 0.45702(7) 0.0412 Uani
Cu3 Cu 0.59980(9) 0.87048(17) 0.57071(7) 0.0454 Uani
N1 N 0.2920(8) 0.5344(13) 0.3303(6) 0.0705 Uani
H1 H 0.2706 0.5928 0.3192 0.0840 Uiso
H2 H 0.3297 0.5488 0.3334 0.0840 Uiso
N2 N 0.2733(7) 0.3416(11) 0.3643(5) 0.0564 Uani
H3 H 0.2997 0.2980 0.3828 0.0680 Uiso
H4 H 0.2374 0.3165 0.3619 0.0680 Uiso
N3 N 0.2946(6) 0.6446(10) 0.4143(5) 0.0448 Uani
N4 N 0.7757(6) 0.9429(11) 0.4501(5) 0.0405 Uani
N5 N 0.5292(11) 0.6124(14) 0.7953(6) 0.1046 Uani
H5 H 0.5672 0.6222 0.8105 0.1250 Uiso
H6 H 0.5087 0.6110 0.8151 0.1250 Uiso
N6 N 0.4692(8) 0.8457(12) 0.7016(5) 0.0649 Uani
O1 O 0.4227(5) 0.9352(8) 0.4674(4) 0.0416 Uani
O2 O 0.4514(5) 0.7882(8) 0.4381(4) 0.0440 Uani
O3 O 0.6201(5) 0.8355(9) 0.4669(4) 0.0458 Uani
O4 O 0.6600(5) 0.8493(10) 0.5421(5) 0.0547 Uani
O5 O 0.4776(5) 1.0024(8) 0.5672(4) 0.0439 Uani
O6 O 0.5480(5) 0.8944(10) 0.6063(4) 0.0552 Uani
O7 O 0.5345(4) 0.8580(8) 0.5152(3) 0.0335 Uani
O8 O 0.5383(5) 0.6287(10) 0.4898(5) 0.0685 Uani
O9 O 0.5355(6) 0.7412(11) 0.3984(5) 0.0707 Uani
O10 O 0.6634(5) 0.8935(12) 0.6262(4) 0.0714 Uani
O11 O 0.5993(5) 0.6874(10) 0.5821(5) 0.0656 Uani
C1 C 0.2713(15) 0.440(2) 0.2992(8) 0.1114 Uani
H7 H 0.2296 0.4468 0.2848 0.1340 Uiso
H8 H 0.2900 0.4429 0.2756 0.1340 Uiso
C2 C 0.2821(13) 0.343(2) 0.3193(8) 0.0925 Uani
H9 H 0.3221 0.3221 0.3224 0.1120 Uiso
H10 H 0.2565 0.2901 0.3002 0.1120 Uiso
C3 C 0.3441(7) 0.6957(13) 0.4208(6) 0.0414 Uani
H11 H 0.3742 0.6616 0.4131 0.0500 Uiso
C4 C 0.3538(6) 0.7979(12) 0.4385(6) 0.0385 Uani
C5 C 0.3101(8) 0.8515(16) 0.4478(7) 0.0683 Uani
H12 H 0.3158 0.9199 0.4603 0.0820 Uiso
C6 C 0.2569(8) 0.8011(15) 0.4382(8) 0.0752 Uani
H13 H 0.2252 0.8380 0.4421 0.0920 Uiso
C7 C 0.2497(8) 0.6988(15) 0.4230(8) 0.0665 Uani
H14 H 0.2138 0.6650 0.4185 0.0800 Uiso
C8 C 0.4142(7) 0.8451(13) 0.4484(6) 0.0429 Uani
C9 C 0.7253(7) 0.9059(12) 0.4554(6) 0.0379 Uani
H15 H 0.6931 0.8965 0.4300 0.0460 Uiso
C10 C 0.7198(7) 0.8813(11) 0.4979(6) 0.0390 Uani
C11 C 0.7686(8) 0.8897(14) 0.5350(7) 0.0532 Uani
H16 H 0.7674 0.8711 0.5636 0.0640 Uiso
C12 C 0.8192(8) 0.9265(15) 0.5284(7) 0.0577 Uani
H17 H 0.8529 0.9341 0.5527 0.0690 Uiso
C13 C 0.8199(8) 0.9522(15) 0.4854(7) 0.0515 Uani
H18 H 0.8546 0.9778 0.4819 0.0620 Uiso
C14 C 0.6606(8) 0.8529(12) 0.5011(7) 0.0420 Uani
C15 C 0.521(2) 0.5086(18) 0.7689(8) 0.1576 Uani
H19 H 0.5571 0.4916 0.7629 0.1870 Uiso
H20 H 0.5135 0.4519 0.7877 0.1870 Uiso
C16 C 0.4935(9) 0.8579(14) 0.6685(6) 0.0527 Uani
H21 H 0.5243 0.8138 0.6676 0.0630 Uiso
C17 C 0.4737(8) 0.9338(15) 0.6363(6) 0.0480 Uani
C18 C 0.4253(10) 0.9958(18) 0.6364(7) 0.0769 Uani
H22 H 0.4096 1.0453 0.6136 0.0920 Uiso
C19 C 0.4024(13) 0.983(2) 0.6697(9) 0.0984 Uani
H23 H 0.3716 1.0259 0.6711 0.1170 Uiso
C20 C 0.4236(12) 0.905(2) 0.7020(9) 0.0985 Uani
H24 H 0.4058 0.8950 0.7244 0.1170 Uiso
C21 C 0.5016(8) 0.9471(13) 0.5997(6) 0.0398 Uani
C15B C 0.479(2) 0.5086(18) 0.7311(8) 0.1576 Uani
N5B N 0.4708(11) 0.6124(14) 0.7047(6) 0.1046 Uani
H5B H 0.4328 0.6222 0.6895 0.1250 Uiso
H6B H 0.4913 0.6110 0.6849 0.1250 Uiso
H19B H 0.4429 0.4916 0.7371 0.1870 Uiso
H20B H 0.4865 0.4519 0.7123 0.1870 Uiso
N6B N 0.5308(8) 0.8457(12) 0.7984(5) 0.0649 Uani
O5B O 0.5224(5) 1.0024(8) 0.9328(4) 0.0439 Uani
O6B O 0.4520(5) 0.8944(10) 0.8937(4) 0.0552 Uani
C16B C 0.5065(9) 0.8579(14) 0.8315(6) 0.0527 Uani
H21B H 0.4757 0.8138 0.8324 0.0630 Uiso
C17B C 0.5263(8) 0.9338(15) 0.8637(6) 0.0480 Uani
C18B C 0.5747(10) 0.9958(18) 0.8636(7) 0.0769 Uani
H22B H 0.5904 1.0453 0.8864 0.0920 Uiso
C19B C 0.5976(13) 0.983(2) 0.8303(9) 0.0984 Uani
H23B H 0.6284 1.0259 0.8289 0.1170 Uiso
C20B C 0.5764(12) 0.905(2) 0.7980(9) 0.0985 Uani
H24B H 0.5942 0.8950 0.7756 0.1170 Uiso
C21B C 0.4984(8) 0.9471(13) 0.9003(6) 0.0398 Uani
Cu3B Cu 0.40020(9) 0.87048(17) 0.92929(7) 0.0454 Uani
N3D N 0.7054(6) 1.3554(10) 0.5857(5) 0.0448 Uani
O1D O 0.5773(5) 1.0648(8) 0.5326(4) 0.0416 Uani
O2D O 0.5486(5) 1.2118(8) 0.5619(4) 0.0440 Uani
C3D C 0.6559(7) 1.3043(13) 0.5792(6) 0.0414 Uani
H11D H 0.6258 1.3384 0.5869 0.0500 Uiso
C4D C 0.6462(6) 1.2021(12) 0.5615(6) 0.0385 Uani
C5D C 0.6899(8) 1.1485(16) 0.5522(7) 0.0683 Uani
H12D H 0.6842 1.0801 0.5397 0.0820 Uiso
C6D C 0.7431(8) 1.1989(15) 0.5618(8) 0.0752 Uani
H13D H 0.7748 1.1620 0.5579 0.0920 Uiso
C7D C 0.7503(8) 1.3012(15) 0.5770(8) 0.0665 Uani
H14D H 0.7862 1.3350 0.5815 0.0800 Uiso
C8D C 0.5858(7) 1.1549(13) 0.5516(6) 0.0429 Uani
O7D O 0.4655(4) 1.1420(8) 0.4848(3) 0.0335 Uani
N4B N 0.2243(6) 0.9429(11) 1.0499(5) 0.0405 Uani
O3B O 0.3799(5) 0.8355(9) 1.0331(4) 0.0458 Uani
O4B O 0.3400(5) 0.8493(10) 0.9579(5) 0.0547 Uani
C9B C 0.2747(7) 0.9059(12) 1.0446(6) 0.0379 Uani
H15B H 0.3069 0.8965 1.0700 0.0460 Uiso
C10B C 0.2802(7) 0.8813(11) 1.0021(6) 0.0390 Uani
C11B C 0.2314(8) 0.8897(14) 0.9650(7) 0.0532 Uani
H16B H 0.2326 0.8711 0.9364 0.0640 Uiso
C12B C 0.1808(8) 0.9265(15) 0.9716(7) 0.0577 Uani
H17B H 0.1471 0.9341 0.9473 0.0690 Uiso
C13B C 0.1801(8) 0.9522(15) 1.0146(7) 0.0515 Uani
H18B H 0.1454 0.9778 1.0181 0.0620 Uiso
C14B C 0.3394(8) 0.8529(12) 0.9989(7) 0.0420 Uani
O10B O 0.3366(5) 0.8935(12) 0.8738(4) 0.0714 Uani
O11B O 0.4007(5) 0.6874(10) 0.9179(5) 0.0656 Uani
Pt1D Pt 0.71783(3) 1.50752(5) 0.60971(3) 0.0451 Uani
Cu2D Cu 0.46264(9) 1.19719(16) 0.54298(7) 0.0412 Uani
N1D N 0.7080(8) 1.4656(13) 0.6697(6) 0.0705 Uani
H1D H 0.7294 1.4072 0.6808 0.0840 Uiso
H2D H 0.6703 1.4512 0.6666 0.0840 Uiso
N2D N 0.7267(7) 1.6584(11) 0.6357(5) 0.0564 Uani
H3D H 0.7003 1.7020 0.6172 0.0680 Uiso
H4D H 0.7626 1.6835 0.6381 0.0680 Uiso
C1D C 0.7287(15) 1.560(2) 0.7008(8) 0.1114 Uani
H7D H 0.7704 1.5532 0.7152 0.1340 Uiso
H8D H 0.7100 1.5571 0.7244 0.1340 Uiso
C2D C 0.7179(13) 1.657(2) 0.6807(8) 0.0925 Uani
H9D H 0.6779 1.6779 0.6776 0.1120 Uiso
H10D H 0.7435 1.7099 0.6998 0.1120 Uiso
O8D O 0.4617(5) 1.3713(10) 0.5102(5) 0.0685 Uani
O9D O 0.4645(6) 1.2588(11) 0.6016(5) 0.0707 Uani
N4A N 0.2757(6) 0.4429(11) 0.4501(5) 0.0405 Uani
O5D O 0.5224(5) 0.9976(8) 0.4328(4) 0.0439 Uani
Pt1A Pt 0.78217(3) 0.99248(5) 0.39029(3) 0.0451 Uani
Cu1F Cu 0.5000 1.0000 1.0000 0.0341 Uani
O7B O 0.4655(4) 0.8580(8) 0.9848(3) 0.0335 Uani
Cu3D Cu 0.40020(9) 1.12952(17) 0.42929(7) 0.0454 Uani
Pt1C Pt 0.21783(3) 0.99248(5) 1.10971(3) 0.0451 Uani
Cu2B Cu 0.46264(9) 0.80281(16) 1.04298(7) 0.0412 Uani
N4E N 0.7243(6) 1.5571(11) 0.5499(5) 0.0405 Uani
O3D O 0.3799(5) 1.1645(9) 0.5331(4) 0.0458 Uani
N7 N 0.291(2) -0.271(3) 0.6988(16) 0.2093 Uani
O12 O 0.2895(16) -0.186(3) 0.7206(14) 0.2426 Uani
O13 O 0.3322(17) -0.324(3) 0.7178(14) 0.2427 Uani
O14 O 0.250(3) -0.282(6) 0.6633(19) 0.5165 Uani
N8 N 0.4271(9) 0.6696(17) 0.5399(7) 0.0847 Uani
O15 O 0.4536(7) 0.7523(12) 0.5452(6) 0.0919 Uani
O16 O 0.4439(7) 0.5968(13) 0.5184(7) 0.1056 Uani
O17 O 0.3862(9) 0.6579(16) 0.5536(9) 0.1453 Uani
N9 N 0.0419(13) 0.9986(19) 0.1336(10) 0.1134 Uani
O18 O 0.0547(12) 0.9124(19) 0.1481(8) 0.1592 Uani
O19 O -0.0002(16) 1.039(2) 0.1327(12) 0.2320 Uani
O20 O 0.0691(13) 1.053(3) 0.1189(13) 0.2268 Uani
N10 N 0.3616(12) 0.720(2) 0.1522(10) 0.0424 Uani
O21 O 0.3552(10) 0.7737(17) 0.1275(7) 0.0434 Uani
O22 O 0.3304(13) 0.701(3) 0.1757(11) 0.0863 Uani
O23 O 0.385(2) 0.646(4) 0.1472(15) 0.1429 Uani
N11 N 0.097(3) 1.344(4) 0.2092(13) 0.1209 Uani
O24 O 0.106(2) 1.427(3) 0.2269(13) 0.1338 Uani
O25 O 0.116(2) 1.322(4) 0.1739(17) 0.1821 Uani
O26 O 0.052(3) 1.276(5) 0.2216(18) 0.2315 Uani
O27 O 0.2668(9) 0.515(2) 0.1406(8) 0.1536 Uani
O28 O 0.3578(10) 0.104(2) 0.0473(9) 0.1761 Uani
O29 O 0.1471(12) 0.392(3) 0.7058(8) 0.1867 Uani
loop_
_atom_site_aniso_label
_atom_site_aniso_U_11
_atom_site_aniso_U_22
_atom_site_aniso_U_33
_atom_site_aniso_U_23
_atom_site_aniso_U_13
_atom_site_aniso_U_12
Pt1 0.0379(4) 0.0408(4) 0.0623(5) -0.0094(4) 0.0237(3) -0.0089(3)
Pt2 0.1266(12) 0.0456(7) 0.0489(7) 0.000 0.0528(8) 0.000
Cu1 0.0369(14) 0.0275(13) 0.0406(16) 0.0007(12) 0.0158(12) -0.0011(13)
Cu2 0.0340(11) 0.0415(11) 0.0536(14) -0.0096(10) 0.0215(10) -0.0073(9)
Cu3 0.0398 0.0524 0.0472 0.0051 0.018 0.0036
N1 0.089(13) 0.070(11) 0.073(12) 0.003(10) 0.055(11) -0.004(10)
N2 0.062(11) 0.049(9) 0.061(11) -0.014(8) 0.023(9) -0.009(8)
N3 0.031(8) 0.036(8) 0.074(11) -0.021(7) 0.026(8) -0.012(7)
N4 0.028 0.043 0.05 -0.014 0.011 0
N5 0.20(2) 0.070(13) 0.054(12) -0.003(10) 0.054(14) -0.012(14)
N6 0.096(14) 0.053(10) 0.060(11) 0.002(8) 0.045(11) 0.013(9)
O1 0.038(7) 0.032(6) 0.054(8) -0.003(6) 0.013(6) -0.005(5)
O2 0.036(7) 0.035(6) 0.060(8) -0.012(6) 0.013(6) -0.006(5)
O3 0.024 0.053 0.064 -0.012 0.019 -0.01
O4 0.029 0.07 0.065 -0.003 0.014 0.005
O5 0.049(7) 0.041(6) 0.049(7) 0.003(6) 0.026(6) 0.011(6)
O6 0.060(8) 0.066(8) 0.048(8) 0.019(6) 0.029(7) 0.023(7)
O7 0.032(6) 0.035(6) 0.033(6) -0.004(5) 0.009(5) -0.005(5)
O8 0.047(8) 0.047(8) 0.117(12) 0.005(8) 0.033(8) 0.000(6)
O9 0.072(9) 0.078(10) 0.068(9) -0.031(8) 0.030(8) -0.013(8)
O10 0.043 0.098 0.063 0.003 0.001 -0.008
O11 0.054 0.05 0.09 0.017 0.018 0.013
C1 0.17(3) 0.12(2) 0.051(16) -0.004(16) 0.044(18) -0.01(2)
C2 0.13(2) 0.079(17) 0.072(18) -0.007(14) 0.036(17) 0.024(16)
C3 0.027(9) 0.045(10) 0.057(12) 0.003(9) 0.020(9) 0.001(8)
C4 0.028(9) 0.036(9) 0.063(12) 0.000(8) 0.031(9) 0.006(7)
C5 0.052(13) 0.058(13) 0.105(18) -0.022(12) 0.039(13) -0.021(10)
C6 0.038(11) 0.053(12) 0.14(2) -0.031(13) 0.035(13) 0.013(10)
C7 0.037(11) 0.054(12) 0.118(19) 0.001(12) 0.038(12) -0.017(9)
C8 0.038(10) 0.034(10) 0.062(13) -0.005(9) 0.023(10) -0.006(8)
C9 0.022 0.04 0.049 -0.017 0.007 -0.004
C10 0.052 0.018 0.055 -0.008 0.028 -0.006
C11 0.046 0.052 0.065 -0.004 0.022 -0.001
C12 0.035 0.063 0.066 -0.001 0.002 -0.005
C13 0.03 0.06 0.068 0.007 0.02 -0.004
C14 0.037 0.026 0.072 0.005 0.03 -0.005
C15 0.33(6) 0.045(14) 0.070(19) 0.006(12) 0.02(3) 0.01(2)
C16 0.082(14) 0.041(10) 0.040(11) -0.006(9) 0.026(11) -0.005(10)
C17 0.049(11) 0.062(12) 0.043(11) -0.007(9) 0.029(9) 0.003(10)
C18 0.090(16) 0.093(17) 0.055(13) 0.031(12) 0.033(12) 0.030(14)
C19 0.13(2) 0.087(18) 0.12(2) 0.025(16) 0.10(2) 0.031(16)
C20 0.12(2) 0.11(2) 0.10(2) 0.009(17) 0.085(19) 0.016(17)
C21 0.057(12) 0.036(9) 0.026(10) 0.002(8) 0.012(9) 0.000(9)
C15B 0.33 0.045 0.07 -0.006 0.02 -0.01
N5B 0.2 0.07 0.054 0.003 0.054 0.012
N6B 0.096 0.053 0.06 -0.002 0.045 -0.013
O5B 0.049 0.041 0.049 -0.003 0.026 -0.011
O6B 0.06 0.066 0.048 -0.019 0.029 -0.023
C16B 0.082 0.041 0.04 0.006 0.026 0.005
C17B 0.049 0.062 0.043 0.007 0.029 -0.003
C18B 0.09 0.093 0.055 -0.031 0.033 -0.03
C19B 0.13 0.087 0.12 -0.025 0.1 -0.031
C20B 0.12 0.11 0.1 -0.009 0.085 -0.016
C21B 0.057 0.036 0.026 -0.002 0.012 0
Cu3B 0.0398 0.0524 0.0472 -0.0051 0.018 -0.0036
N3D 0.031 0.036 0.074 -0.021 0.026 -0.012
O1D 0.038 0.032 0.054 -0.003 0.013 -0.005
O2D 0.036 0.035 0.06 -0.012 0.013 -0.006
C3D 0.027 0.045 0.057 0.003 0.02 0.001
C4D 0.028 0.036 0.063 0 0.031 0.006
C5D 0.052 0.058 0.105 -0.022 0.039 -0.021
C6D 0.038 0.053 0.14 -0.031 0.035 0.013
C7D 0.037 0.054 0.118 0.001 0.038 -0.017
C8D 0.038 0.034 0.062 -0.005 0.023 -0.006
O7D 0.032 0.035 0.033 -0.004 0.009 -0.005
N4B 0.028 0.043 0.05 0.014 0.011 0
O3B 0.024 0.053 0.064 0.012 0.019 0.01
O4B 0.029 0.07 0.065 0.003 0.014 -0.005
C9B 0.022 0.04 0.049 0.017 0.007 0.004
C10B 0.052 0.018 0.055 0.008 0.028 0.006
C11B 0.046 0.052 0.065 0.004 0.022 0.001
C12B 0.035 0.063 0.066 0.001 0.002 0.005
C13B 0.03 0.06 0.068 -0.007 0.02 0.004
C14B 0.037 0.026 0.072 -0.005 0.03 0.005
O10B 0.043 0.098 0.063 -0.003 0.001 0.008
O11B 0.054 0.05 0.09 -0.017 0.018 -0.013
Pt1D 0.0379 0.0408 0.0623 -0.0094 0.0237 -0.0089
Cu2D 0.034 0.0415 0.0536 -0.0096 0.0215 -0.0073
N1D 0.089 0.07 0.073 0.003 0.055 -0.004
N2D 0.062 0.049 0.061 -0.014 0.023 -0.009
C1D 0.17 0.12 0.051 -0.004 0.044 -0.01
C2D 0.13 0.079 0.072 -0.007 0.036 0.024
O8D 0.047 0.047 0.117 0.005 0.033 0
O9D 0.072 0.078 0.068 -0.031 0.03 -0.013
N4A 0.028(8) 0.043(8) 0.050(10) -0.014(7) 0.011(7) 0.000(6)
O5D 0.049 0.041 0.049 0.003 0.026 0.011
Pt1A 0.0379 0.0408 0.0623 -0.0094 0.0237 -0.0089
Cu1F 0.0369 0.0275 0.0406 -0.0007 0.0158 0.0011
O7B 0.032 0.035 0.033 0.004 0.009 0.005
Cu3D 0.0398 0.0524 0.0472 0.0051 0.018 0.0036
Pt1C 0.0379 0.0408 0.0623 0.0094 0.0237 0.0089
Cu2B 0.034 0.0415 0.0536 0.0096 0.0215 0.0073
N4E 0.028 0.043 0.05 -0.014 0.011 0
O3D 0.024 0.053 0.064 -0.012 0.019 -0.01
N7 0.28(5) 0.11(3) 0.22(5) 0.07(3) 0.05(4) 0.11(3)
O12 0.25(4) 0.14(3) 0.35(5) 0.11(3) 0.11(4) 0.10(3)
O13 0.23(4) 0.22(4) 0.31(5) 0.12(4) 0.13(3) 0.05(3)
O14 0.42(8) 0.73(13) 0.28(6) -0.24(7) -0.07(5) -0.03(7)
N8 0.069(13) 0.080(15) 0.123(18) -0.010(13) 0.056(13) 0.001(12)
O15 0.102(13) 0.068(10) 0.128(15) -0.005(9) 0.068(11) -0.039(9)
O16 0.095(13) 0.066(10) 0.18(2) -0.014(12) 0.078(14) -0.013(9)
O17 0.117(16) 0.122(16) 0.25(3) -0.005(16) 0.135(18) -0.036(13)
N9 0.15(2) 0.068(14) 0.17(2) 0.036(15) 0.12(2) 0.045(15)
O18 0.23(3) 0.124(18) 0.17(2) 0.064(16) 0.13(2) 0.102(18)
O19 0.28(4) 0.18(3) 0.31(4) 0.14(3) 0.20(4) 0.13(3)
O20 0.17(3) 0.23(3) 0.33(4) 0.16(3) 0.15(3) 0.01(2)
N10 0.043(10) 0.050(11) 0.044(11) 0.006(9) 0.028(9) 0.018(8)
O21 0.052(10) 0.041(9) 0.035(9) 0.027(8) 0.010(8) 0.006(8)
O22 0.078(12) 0.099(13) 0.095(13) 0.019(9) 0.046(10) 0.014(9)
O23 0.145(18) 0.150(18) 0.142(18) 0.007(10) 0.056(11) -0.003(10)
N11 0.19(5) 0.12(4) 0.03(2) -0.01(3) 0.00(3) -0.04(4)
O24 0.22(5) 0.12(3) 0.09(3) -0.06(3) 0.09(3) -0.09(3)
O25 0.21(5) 0.23(5) 0.15(4) -0.13(4) 0.12(4) -0.06(4)
O26 0.30(8) 0.20(6) 0.13(5) 0.02(4) -0.03(5) -0.12(6)
O27 0.110(16) 0.19(2) 0.138(19) 0.030(16) 0.004(14) 0.074(15)
O28 0.134(19) 0.19(3) 0.24(3) 0.00(2) 0.11(2) 0.013(16)
O29 0.20(3) 0.25(3) 0.13(2) 0.00(2) 0.080(19) 0.08(2)
loop_
_geom_bond_atom_site_label_1
_geom_bond_atom_site_label_2
_geom_bond_site_symmetry_1
_geom_bond_site_symmetry_2
Pt1 N1 1_555 1_555
Pt2 N5 1_555 1_555
Cu1 O1 1_555 1_555
Cu2 O2 1_555 1_555
Cu3 O4 1_555 1_555
N1 H1 1_555 1_555
H2 N1 1_555 1_555
N2 Pt1 1_555 1_555
H3 N2 1_555 1_555
H4 N2 1_555 1_555
N3 Pt1 1_555 1_555
N4 C9 1_555 1_555
N5 H5 1_555 1_555
H6 N5 1_555 1_555
N6 Pt2 1_555 1_555
O1 C8 1_555 1_555
O2 C8 1_555 1_555
O3 Cu2 1_555 1_555
O4 C14 1_555 1_555
O5 Cu1 1_555 1_555
O6 Cu3 1_555 1_555
O7 Cu1 1_555 1_555
O8 Cu2 1_555 1_555
O9 Cu2 1_555 1_555
O10 Cu3 1_555 1_555
O11 Cu3 1_555 1_555
C1 N1 1_555 1_555
H7 C1 1_555 1_555
H8 C1 1_555 1_555
C2 N2 1_555 1_555
H9 C2 1_555 1_555
H10 C2 1_555 1_555
C3 N3 1_555 1_555
H11 C3 1_555 1_555
C4 C3 1_555 1_555
C5 C4 1_555 1_555
H12 C5 1_555 1_555
C6 C5 1_555 1_555
H13 C6 1_555 1_555
C7 N3 1_555 1_555
H14 C7 1_555 1_555
C8 C4 1_555 1_555
C9 H15 1_555 1_555
C10 C9 1_555 1_555
C11 C10 1_555 1_555
H16 C11 1_555 1_555
C12 C11 1_555 1_555
H17 C12 1_555 1_555
C13 N4 1_555 1_555
H18 C13 1_555 1_555
C14 O3 1_555 1_555
C15 N5 1_555 1_555
H19 C15 1_555 1_555
H20 C15 1_555 1_555
C16 N6 1_555 1_555
H21 C16 1_555 1_555
C17 C16 1_555 1_555
C18 C17 1_555 1_555
H22 C18 1_555 1_555
C19 C18 1_555 1_555
H23 C19 1_555 1_555
C20 N6 1_555 1_555
H24 C20 1_555 1_555
C21 O5 1_555 1_555
N7 O12 1_555 1_555
O13 N7 1_555 1_555
O14 N7 1_555 1_555
N8 O15 1_555 1_555
O16 N8 1_555 1_555
O17 N8 1_555 1_555
N9 O18 1_555 1_555
O19 N9 1_555 1_555
O20 N9 1_555 1_555
N10 O21 1_555 1_555
O22 N10 1_555 1_555
O23 N10 1_555 1_555
N11 O24 1_555 1_555
O25 N11 1_555 1_555
O26 N11 1_555 1_555
C15B C15 1_555 1_555
N5B Pt2 1_555 1_555
H5B N5B 1_555 1_555
H6B N5B 1_555 1_555
H19B C15B 1_555 1_555
H20B C15B 1_555 1_555
N6B Pt2 1_555 1_555
O5B C21B 1_555 1_555
O6B C21B 1_555 1_555
C16B N6B 1_555 1_555
H21B C16B 1_555 1_555
C17B C16B 1_555 1_555
C18B C17B 1_555 1_555
H22B C18B 1_555 1_555
C19B C18B 1_555 1_555
H23B C19B 1_555 1_555
C20B N6B 1_555 1_555
H24B C20B 1_555 1_555
C21B C17B 1_555 1_555
Cu3B O6B 1_555 1_555
N3D C3D 1_555 1_555
O1D Cu1 1_555 1_555
O2D C8D 1_555 1_555
C3D H11D 1_555 1_555
C4D C3D 1_555 1_555
C5D C4D 1_555 1_555
H12D C5D 1_555 1_555
C6D C5D 1_555 1_555
H13D C6D 1_555 1_555
C7D N3D 1_555 1_555
H14D C7D 1_555 1_555
C8D O1D 1_555 1_555
O7D Cu1 1_555 1_555
N4B C9B 1_555 1_555
O3B C14B 1_555 1_555
O4B Cu3B 1_555 1_555
C9B H15B 1_555 1_555
C10B C9B 1_555 1_555
C11B C10B 1_555 1_555
H16B C11B 1_555 1_555
C12B C11B 1_555 1_555
H17B C12B 1_555 1_555
C13B N4B 1_555 1_555
H18B C13B 1_555 1_555
C14B O4B 1_555 1_555
O10B Cu3B 1_555 1_555
O11B Cu3B 1_555 1_555
Pt1D N3D 1_555 1_555
Cu2D O2D 1_555 1_555
N1D Pt1D 1_555 1_555
H1D N1D 1_555 1_555
H2D N1D 1_555 1_555
N2D Pt1D 1_555 1_555
H3D N2D 1_555 1_555
H4D N2D 1_555 1_555
C1D N1D 1_555 1_555
H7D C1D 1_555 1_555
H8D C1D 1_555 1_555
C2D N2D 1_555 1_555
H9D C2D 1_555 1_555
H10D C2D 1_555 1_555
O8D Cu2D 1_555 1_555
O9D Cu2D 1_555 1_555
N4A Pt1 1_555 1_555
O5D Cu1 1_555 1_555
Pt1A N4 1_555 1_555
Cu1F O5B 1_555 1_555
O7B Cu3B 1_555 1_555
Cu3D O7D 1_555 1_555
Pt1C N4B 1_555 1_555
Cu2B O3B 1_555 1_555
N4E Pt1D 1_555 1_555
O3D Cu2D 1_555 1_555
Cu2 O7 1_555 1_555
Cu3 O7 1_555 1_555
O6 C21 1_555 1_555
C1 C2 1_555 1_555
C6 C7 1_555 1_555
C10 C14 1_555 1_555
C12 C13 1_555 1_555
C17 C21 1_555 1_555
C19 C20 1_555 1_555
C15B N5B 1_555 1_555
C19B C20B 1_555 1_555
C4D C8D 1_555 1_555
C6D C7D 1_555 1_555
O7D Cu2D 1_555 1_555
C10B C14B 1_555 1_555
C12B C13B 1_555 1_555
C1D C2D 1_555 1_555
Cu1F O7B 1_555 1_555
O7B Cu2B 1_555 1_555

#END
