
#######################################################################
#
#                 Cambridge Crystallographic Data Centre
#                                CCDC 
#
#######################################################################
#
# If this CIF has been generated from an entry in the Cambridge 
# Structural Database, then it will include bibliographic, chemical, 
# crystal, experimental, refinement or atomic coordinate data resulting 
# from the CCDC's data processing and validation procedures.
#
#######################################################################

data_DEPSEW
_chemical_formula_moiety         'C7 H14 Ga6 N1 O24 P9 1+'
_symmetry_cell_setting           monoclinic
_symmetry_space_group_name_H-M   'P 21/c'
_symmetry_Int_Tables_number      14
_space_group_name_Hall           '-P 2ybc'
loop_
_symmetry_equiv_pos_site_id
_symmetry_equiv_pos_as_xyz
1 x,y,z
2 -x,1/2+y,1/2-z
3 -x,-y,-z
4 x,1/2-y,1/2+z
_cell_length_a                   14.365(1)
_cell_length_b                   16.305(1)
_cell_length_c                   8.734(1)
_cell_angle_alpha                90
_cell_angle_beta                 90.243(1)
_cell_angle_gamma                90
_cell_volume                     2045.67
loop_
_atom_site_label
_atom_site_type_symbol
_atom_site_fract_x
_atom_site_fract_y
_atom_site_fract_z
Ga1 Ga 0.13650(2) 0.03417(2) 0.57163(4)
Ga2 Ga 0.04238(2) 0.27163(2) 0.63240(4)
Ga3 Ga 0.52554(2) 0.12625(2) 1.41042(4)
Ga4 Ga 0.36576(2) 0.16159(2) 0.81337(4)
P1 P 0.14798(6) 0.15184(5) 0.84854(9)
P2 P 0.64016(5) -0.03071(4) 1.44728(8)
P3 P 0.47275(5) 0.21882(4) 1.10989(8)
P4 P -0.02864(5) 0.13241(4) 0.41427(9)
O1 O 0.4479(2) 0.1630(1) 0.9765(3)
O2 O 0.5360(2) 0.1709(1) 1.2187(3)
O3 O -0.0339(2) 0.1972(2) 0.5409(3)
O4 O 0.6299(2) 0.0628(1) 1.4393(3)
O5 O -0.0364(2) 0.3265(2) 0.7574(3)
O6 O 0.2498(2) 0.1493(2) 0.8965(3)
O7 O 0.1352(2) 0.2251(2) 0.7428(4)
O8 O 0.0883(2) 0.1587(2) 0.9916(3)
O9 O 0.1184(2) 0.0727(2) 0.7705(3)
O10 O 0.3842(2) 0.2530(1) 0.6913(3)
O11 O 0.4197(2) 0.0638(1) 1.4221(3)
O12 O 0.0625(2) 0.0856(2) 0.4233(3)
O13 O 0.2599(2) 0.0521(2) 0.5152(3)
O14 O 0.3920(2) 0.0664(2) 0.7056(3)
O15 O 0.5296(2) 0.2928(1) 1.0566(3)
O16 O 0.1137(2) -0.0781(1) 0.5674(3)
O8C O 0.0883(2) 0.3413(2) 0.4916(3)
O15C O 0.5296(2) 0.2072(1) 1.5566(3)
O11B O 0.5803(2) -0.0638(1) 1.5779(3)
O13B O 0.7401(2) -0.0521(2) 1.4848(3)
O14B O 0.6080(2) -0.0664(2) 1.2944(3)
O10C O 0.3842(2) 0.2470(1) 1.1913(3)
O5C O -0.0364(2) 0.1735(2) 0.2574(3)
O16B O -0.1137(2) 0.0781(1) 0.4326(3)
P4C P -0.02864(5) 0.36759(4) 0.91427(9)
Ga2C Ga 0.04238(2) 0.22837(2) 1.13240(4)
P3C P 0.47275(5) 0.28118(4) 0.60989(8)
P2B P 0.35984(5) 0.03071(4) 1.55272(8)
P2B_2 P 0.35984(5) 0.03071(4) 0.55272(8)
Ga3C Ga 0.52554(2) 0.37375(2) 0.91042(4)
P4B P 0.02864(5) -0.13241(4) 0.58573(9)
N1 N 0.2511(9) 0.9653(6) 0.013(1)
C1 C 0.177(1) 0.963(1) 0.119(2)
C2 C 0.167(1) 0.882(1) 0.189(2)
C3 C 0.2399(8) 0.9008(8) -0.099(1)
C4 C 0.2491(8) 0.8189(7) -0.028(1)
C5 C 0.338(1) 0.952(1) 0.087(2)
C6 C 0.337(1) 0.881(1) 0.181(2)
C7 C 0.254(1) 0.8269(7) 0.148(1)
H1 H 0.2502 1.0212 -0.0341
H2 H 0.1896 1.0043 0.2021
H3 H 0.1179 0.9779 0.0651
H4 H 0.1621 0.8876 0.3029
H5 H 0.1087 0.8551 0.1489
H6 H 0.2886 0.9071 -0.1798
H7 H 0.1768 0.9057 -0.1473
H8 H 0.3071 0.7920 -0.0663
H9 H 0.1939 0.7846 -0.0569
H10 H 0.3528 1.0006 0.1522
H11 H 0.3870 0.9452 0.0072
H12 H 0.3347 0.8980 0.2910
H13 H 0.3951 0.8485 0.1627
H14 H 0.2597 0.7730 0.2016
loop_
_geom_bond_atom_site_label_1
_geom_bond_atom_site_label_2
_geom_bond_site_symmetry_1
_geom_bond_site_symmetry_2
N1 C1 1_555 1_555
C1 C2 1_555 1_555
C2 C7 1_555 1_555
C3 N1 1_555 1_555
C4 C3 1_555 1_555
C5 N1 1_555 1_555
C6 C5 1_555 1_555
C7 C4 1_555 1_555
H1 N1 1_555 1_555
H2 C1 1_555 1_555
H3 C1 1_555 1_555
H4 C2 1_555 1_555
H5 C2 1_555 1_555
H6 C3 1_555 1_555
H7 C3 1_555 1_555
H8 C4 1_555 1_555
H9 C4 1_555 1_555
H10 C5 1_555 1_555
H11 C5 1_555 1_555
H12 C6 1_555 1_555
H13 C6 1_555 1_555
H14 C7 1_555 1_555
Ga1 O9 1_555 1_555
Ga2 O3 1_555 1_555
Ga3 O2 1_555 1_555
Ga4 O1 1_555 1_555
P1 O6 1_555 1_555
P2 O4 1_555 1_555
P3 O1 1_555 1_555
P4 O3 1_555 1_555
O2 P3 1_555 1_555
O4 Ga3 1_555 1_555
O5 Ga2 1_555 1_555
O6 Ga4 1_555 1_555
O7 Ga2 1_555 1_555
O8 P1 1_555 1_555
O9 P1 1_555 1_555
O10 Ga4 1_555 1_555
O11 Ga3 1_555 1_555
O12 Ga1 1_555 1_555
O13 Ga1 1_555 1_555
O14 Ga4 1_555 1_555
O15 P3 1_555 1_555
O16 Ga1 1_555 1_555
O8C Ga2 1_555 1_555
O15C Ga3 1_555 1_555
O11B P2 1_555 1_555
O13B P2 1_555 1_555
O14B P2 1_555 1_555
O10C P3 1_555 1_555
O5C P4 1_555 1_555
O16B P4 1_555 1_555
P4C O5 1_555 1_555
Ga2C O8 1_555 1_555
P3C O10 1_555 1_555
P2B O11 1_555 1_555
P2B_2 O13 1_555 1_555
Ga3C O15 1_555 1_555
P4B O16 1_555 1_555
C6 C7 1_555 1_555
P1 O7 1_555 1_555
P4 O12 1_555 1_555
O14 P2B_2 1_555 1_555

#END
