
#######################################################################
#
#                 Cambridge Crystallographic Data Centre
#                                CCDC 
#
#######################################################################
#
# If this CIF has been generated from an entry in the Cambridge 
# Structural Database, then it will include bibliographic, chemical, 
# crystal, experimental, refinement or atomic coordinate data resulting 
# from the CCDC's data processing and validation procedures.
#
#######################################################################

data_QAJKAO
_chemical_formula_moiety         '(C4 H40 N2 O49 P14 V8 2-)n'
_symmetry_cell_setting           trigonal
_symmetry_space_group_name_H-M   'P -3 c 1'
_symmetry_Int_Tables_number      165
_space_group_name_Hall           '-P 3 2"c'
loop_
_symmetry_equiv_pos_site_id
_symmetry_equiv_pos_as_xyz
1 x,y,z
2 -y,x-y,z
3 -x+y,-x,z
4 y,x,1/2-z
5 -x+y,y,1/2+z
6 x,x-y,1/2+z
7 -x,-y,-z
8 y,-x+y,-z
9 x-y,x,-z
10 -y,-x,1/2+z
11 x-y,-y,1/2-z
12 -x,-x+y,1/2-z
_cell_length_a                   13.4678(4)
_cell_length_b                   13.4678(4)
_cell_length_c                   18.3171(8)
_cell_angle_alpha                90
_cell_angle_beta                 90
_cell_angle_gamma                120
_cell_volume                     2877.27
loop_
_atom_site_label
_atom_site_type_symbol
_atom_site_fract_x
_atom_site_fract_y
_atom_site_fract_z
O9 O 0.6104(17) 0.6104(17) 0.2500
N1 N 0.4083(9) 0.3551(9) 0.3219(4)
C1 C 0.3679(19) 0.4448(19) 0.3090(11)
C3 C 0.4325(15) 0.3046(15) 0.2478(9)
C3C C 0.3046(15) 0.4325(15) 0.2522(9)
N1C N 0.3551(9) 0.4083(9) 0.1781(4)
C1C C 0.4448(19) 0.3679(19) 0.1910(11)
V1 V 0.43529(6) 0.14332(6) 0.45823(4)
V2 V 0.0000 0.0000 0.5000
V3 V 0.0000 0.0000 0.2500
P1 P 0.18832(8) 0.02928(9) 0.37115(6)
H1 H 0.193(6) -0.068(6) 0.347(4)
P2 P 0.49605(8) 0.36972(8) 0.55432(6)
H2 H 0.501(6) 0.313(6) 0.620(4)
P3 P 0.6667 0.3333 0.36331(11)
H3 H 0.6667 0.3333 0.29123(16)
O1 O 0.3088(2) 0.1240(3) 0.39168(17)
O2 O 0.4331(3) 0.2825(2) 0.49394(19)
O3 O 0.6191(3) 0.4533(3) 0.53504(18)
O4 O 0.4285(3) 0.4275(3) 0.57650(18)
O5 O 0.5529(3) 0.2276(3) 0.38396(18)
O6 O 0.3104(2) 0.0546(3) 0.53795(18)
H4 H 0.284(5) -0.007(5) 0.532(3)
H5 H 0.2579 0.0712 0.5446
O7 O 0.1115(2) -0.0214(2) 0.43833(15)
O8 O 0.1411(2) 0.0748(2) 0.31273(14)
O5A O 0.7724(3) 0.3253(4) 0.38396(18)
O5B O 0.6747(4) 0.4471(3) 0.38396(18)
P1A P -0.02928(9) 0.15904(12) 0.37115(6)
H1A H 0.068(6) 0.261(8) 0.347(4)
O1A O -0.1240(3) 0.1848(4) 0.39168(17)
O7A O 0.0214(2) 0.1329(3) 0.43833(15)
O8A O -0.0748(2) 0.0663(3) 0.31273(14)
P1B P -0.15904(12) -0.18832(8) 0.37115(6)
H1B H -0.261(8) -0.193(6) 0.347(4)
O1B O -0.1848(4) -0.3088(2) 0.39168(17)
O7B O -0.1329(3) -0.1115(2) 0.43833(15)
O8B O -0.0663(3) -0.1411(2) 0.31273(14)
P1F P -0.18832(8) -0.02928(9) 0.62885(6)
H1F H -0.193(6) 0.068(6) 0.653(4)
O1F O -0.3088(2) -0.1240(3) 0.60832(17)
O7F O -0.1115(2) 0.0214(2) 0.56167(15)
O8F O -0.1411(2) -0.0748(2) 0.68727(14)
P1G P 0.02928(9) -0.15904(12) 0.62885(6)
H1G H -0.068(6) -0.261(8) 0.653(4)
O1G O 0.1240(3) -0.1848(4) 0.60832(17)
O7G O -0.0214(2) -0.1329(3) 0.56167(15)
O8G O 0.0748(2) -0.0663(3) 0.68727(14)
P1H P 0.15904(12) 0.18832(8) 0.62885(6)
H1H H 0.261(8) 0.193(6) 0.653(4)
O1H O 0.1848(4) 0.3088(2) 0.60832(17)
O7H O 0.1329(3) 0.1115(2) 0.56167(15)
O8H O 0.0663(3) 0.1411(2) 0.68727(14)
V1A V -0.14332(6) 0.29197(8) 0.45823(4)
V1B V -0.29197(8) -0.43529(6) 0.45823(4)
V1F V -0.43529(6) -0.14332(6) 0.54177(4)
V1G V 0.14332(6) -0.29197(8) 0.54177(4)
V1H V 0.29197(8) 0.43529(6) 0.54177(4)
P2A P 0.63028(8) 0.12633(11) 0.55432(6)
H2A H 0.687(6) 0.188(8) 0.620(4)
O2A O 0.7175(2) 0.1506(4) 0.49394(19)
O3A O 0.5467(3) 0.1658(4) 0.53504(18)
O4A O 0.5725(3) 0.0010(4) 0.57650(18)
P2G P 0.36972(8) -0.12633(11) 0.44568(6)
H2G H 0.313(6) -0.188(8) 0.380(4)
O2G O 0.2825(2) -0.1506(4) 0.50606(19)
O3G O 0.4533(3) -0.1658(4) 0.46496(18)
O4G O 0.4275(3) -0.0010(4) 0.42350(18)
P2A_2 P -0.36972(8) 0.12633(11) 0.55432(6)
H2A_2 H -0.313(6) 0.188(8) 0.620(4)
O2A_2 O -0.2825(2) 0.1506(4) 0.49394(19)
O3A_2 O -0.4533(3) 0.1658(4) 0.53504(18)
O4A_2 O -0.4275(3) 0.0010(4) 0.57650(18)
P2B P -0.12633(11) 0.50395(8) 0.55432(6)
H2B H -0.188(8) 0.499(6) 0.620(4)
O2B O -0.1506(4) 0.5669(3) 0.49394(19)
O3B O -0.1658(4) 0.3809(3) 0.53504(18)
O4B O -0.0010(4) 0.5715(3) 0.57650(18)
P2H P 0.12633(11) 0.49605(8) 0.44568(6)
H2H H 0.188(8) 0.501(6) 0.380(4)
O2H O 0.1506(4) 0.4331(3) 0.50606(19)
O3H O 0.1658(4) 0.6191(3) 0.46496(18)
O4H O 0.0010(4) 0.4285(3) 0.42350(18)
P3A P -0.3333 0.3334 0.36331(11)
H3A H -0.3333 0.3334 0.29123(16)
O5A_2 O -0.2276(3) 0.3253(4) 0.38396(18)
O5B_2 O -0.3253(4) 0.4471(3) 0.38396(18)
O5_2 O -0.4471(3) 0.2276(3) 0.38396(18)
O6A O -0.0546(3) 0.2558(4) 0.53795(18)
H4A H 0.007(5) 0.291(7) 0.532(3)
H5A H -0.0712 0.1867 0.5446
O6B O -0.2558(4) -0.3104(2) 0.53795(18)
H4B H -0.291(7) -0.284(5) 0.532(3)
H5B H -0.1867 -0.2579 0.5446
O6F O -0.3104(2) -0.0546(3) 0.46205(18)
H4F H -0.284(5) 0.007(5) 0.468(3)
H5F H -0.2579 -0.0712 0.4554
O6G O 0.0546(3) -0.2558(4) 0.46205(18)
H4G H -0.007(5) -0.291(7) 0.468(3)
H5G H 0.0712 -0.1867 0.4554
O6H O 0.2558(4) 0.3104(2) 0.46205(18)
H4H H 0.291(7) 0.284(5) 0.468(3)
H5H H 0.1867 0.2579 0.4554
O8C O 0.0748(2) 0.1411(2) 0.18727(14)
O8J O 0.0663(3) -0.0748(2) 0.18727(14)
O8K O -0.1411(2) -0.0663(3) 0.18727(14)
V1B_2 V 0.70803(8) 0.56471(6) 0.45823(4)
V1A_2 V 0.85668(6) 0.29197(8) 0.45823(4)
V3D V -0.0000 0.0000 0.7500
O2B_2 O -0.1506(4) -0.4331(3) 0.49394(19)
O3_2 O -0.3809(3) -0.5467(3) 0.53504(18)
O4F O -0.4285(3) -0.4275(3) 0.42350(18)
O5B_3 O -0.3253(4) -0.5529(3) 0.38396(18)
O2F O -0.4331(3) -0.2825(2) 0.50606(19)
O3G_2 O -0.5467(3) -0.1658(4) 0.46496(18)
O5F O -0.5529(3) -0.2276(3) 0.61604(18)
O3H_2 O 0.1658(4) -0.3809(3) 0.46496(18)
O4B_2 O -0.0010(4) -0.4285(3) 0.57650(18)
O5G O 0.2276(3) -0.3253(4) 0.61604(18)
O3F O 0.3809(3) 0.5467(3) 0.46496(18)
O5H O 0.3253(4) 0.5529(3) 0.61604(18)
V1F_2 V 0.56471(6) -0.14332(6) 0.54177(4)
V1_2 V -0.56471(6) 0.14332(6) 0.45823(4)
V1B_3 V -0.29197(8) 0.56471(6) 0.45823(4)
V1G_2 V 0.14332(6) 0.70803(8) 0.54177(4)
loop_
_geom_bond_atom_site_label_1
_geom_bond_atom_site_label_2
_geom_bond_site_symmetry_1
_geom_bond_site_symmetry_2
V1 O1 1_555 1_555
V2 O7 1_555 1_555
V3 O8 1_555 1_555
P1 H1 1_555 1_555
P2 H2 1_555 1_555
P3 H3 1_555 1_555
O1 P1 1_555 1_555
O2 V1 1_555 1_555
O3 P2 1_555 1_555
O4 P2 1_555 1_555
O5 V1 1_555 1_555
O6 V1 1_555 1_555
H4 O6 1_555 1_555
H5 O6 1_555 1_555
O7 P1 1_555 1_555
O8 P1 1_555 1_555
N1 C1 1_555 1_555
C1 C3C 1_555 1_555
C3 N1 1_555 1_555
O5A P3 1_555 1_555
O5B P3 1_555 1_555
C3C N1C 1_555 1_555
N1C C1C 1_555 1_555
C1C C3 1_555 1_555
P1A H1A 1_555 1_555
O1A P1A 1_555 1_555
O7A V2 1_555 1_555
O8A V3 1_555 1_555
P1B H1B 1_555 1_555
O1B P1B 1_555 1_555
O7B V2 1_555 1_555
O8B V3 1_555 1_555
P1F H1F 1_555 1_555
O1F P1F 1_555 1_555
O7F V2 1_555 1_555
O8F P1F 1_555 1_555
P1G H1G 1_555 1_555
O1G P1G 1_555 1_555
O7G V2 1_555 1_555
O8G P1G 1_555 1_555
P1H H1H 1_555 1_555
O1H P1H 1_555 1_555
O7H V2 1_555 1_555
O8H P1H 1_555 1_555
V1A O1A 1_555 1_555
V1B O1B 1_555 1_555
V1F O1F 1_555 1_555
V1G O1G 1_555 1_555
V1H O4 1_555 1_555
P2A H2A 1_555 1_555
O2A P2A 1_555 1_555
O3A V1 1_555 1_555
O4A P2A 1_555 1_555
P2G H2G 1_555 1_555
O2G V1G 1_555 1_555
O3G P2G 1_555 1_555
O4G V1 1_555 1_555
P2A_2 H2A_2 1_555 1_555
O2A_2 V1A 1_555 1_555
O3A_2 P2A_2 1_555 1_555
O4A_2 V1F 1_555 1_555
P2B H2B 1_555 1_555
O2B P2B 1_555 1_555
O3B V1A 1_555 1_555
O4B P2B 1_555 1_555
P2H H2H 1_555 1_555
O2H V1H 1_555 1_555
O3H P2H 1_555 1_555
O4H V1A 1_555 1_555
P3A H3A 1_555 1_555
O5A_2 V1A 1_555 1_555
O5B_2 P3A 1_555 1_555
O5_2 P3A 1_555 1_555
O6A V1A 1_555 1_555
H4A O6A 1_555 1_555
H5A O6A 1_555 1_555
O6B V1B 1_555 1_555
H4B O6B 1_555 1_555
H5B O6B 1_555 1_555
O6F V1F 1_555 1_555
H4F O6F 1_555 1_555
H5F O6F 1_555 1_555
O6G V1G 1_555 1_555
H4G O6G 1_555 1_555
H5G O6G 1_555 1_555
O6H V1H 1_555 1_555
H4H O6H 1_555 1_555
H5H O6H 1_555 1_555
O8C V3 1_555 1_555
O8J V3 1_555 1_555
O8K V3 1_555 1_555
V1B_2 O3 1_555 1_555
V1A_2 O5A 1_555 1_555
V3D O8F 1_555 1_555
O2B_2 V1B 1_555 1_555
O3_2 V1B 1_555 1_555
O4F V1B 1_555 1_555
O5B_3 V1B 1_555 1_555
O2F V1F 1_555 1_555
O3G_2 V1F 1_555 1_555
O5F V1F 1_555 1_555
O3H_2 V1G 1_555 1_555
O4B_2 V1G 1_555 1_555
O5G V1G 1_555 1_555
O3F V1H 1_555 1_555
O5H V1H 1_555 1_555
V1F_2 O4A 1_555 1_555
V1_2 O3A_2 1_555 1_555
V1B_3 O2B 1_555 1_555
V1G_2 O4B 1_555 1_555
P2 O2 1_555 1_555
P3 O5 1_555 1_555
O5B V1B_2 1_555 1_555
P1A O7A 1_555 1_555
P1A O8A 1_555 1_555
P1B O7B 1_555 1_555
P1B O8B 1_555 1_555
P1F O7F 1_555 1_555
P1G O7G 1_555 1_555
O8G V3D 1_555 1_555
P1H O7H 1_555 1_555
O1H V1H 1_555 1_555
O8H V3D 1_555 1_555
P2A O3A 1_555 1_555
O2A V1A_2 1_555 1_555
P2G O2G 1_555 1_555
P2G O4G 1_555 1_555
O3G V1F_2 1_555 1_555
P2A_2 O2A_2 1_555 1_555
P2A_2 O4A_2 1_555 1_555
P2B O3B 1_555 1_555
P2H O2H 1_555 1_555
P2H O4H 1_555 1_555
O3H V1G_2 1_555 1_555
P3A O5A_2 1_555 1_555
O5B_2 V1B_3 1_555 1_555
O5_2 V1_2 1_555 1_555

#END
