
#######################################################################
#
#                 Cambridge Crystallographic Data Centre
#                                CCDC 
#
#######################################################################
#
# If this CIF has been generated from an entry in the Cambridge 
# Structural Database, then it will include bibliographic, chemical, 
# crystal, experimental, refinement or atomic coordinate data resulting 
# from the CCDC's data processing and validation procedures.
#
#######################################################################

data_UTEXAT
_chemical_formula_moiety         '(C30 H18 N12 Zn3)n'
_symmetry_cell_setting           tetragonal
_symmetry_space_group_name_H-M   'P 42/n c m'
_symmetry_Int_Tables_number      138
_space_group_name_Hall           '-P 4ac 2ac'
loop_
_symmetry_equiv_pos_site_id
_symmetry_equiv_pos_as_xyz
1 x,y,z
2 -x,1/2+y,1/2-z
3 1/2+x,-y,1/2-z
4 1/2-x,1/2-y,z
5 y,1/2-x,1/2+z
6 1/2-y,x,1/2+z
7 -y,-x,-z
8 1/2+y,1/2+x,-z
9 -x,-y,-z
10 x,1/2-y,1/2+z
11 1/2-x,y,1/2+z
12 1/2+x,1/2+y,-z
13 -y,1/2+x,1/2-z
14 1/2+y,-x,1/2-z
15 y,x,z
16 1/2-y,1/2-x,z
_cell_length_a                   15.55503(99)
_cell_length_b                   15.55503(99)
_cell_length_c                   20.0304(16)
_cell_angle_alpha                90
_cell_angle_beta                 90
_cell_angle_gamma                90
_cell_volume                     4846.53
loop_
_atom_site_label
_atom_site_type_symbol
_atom_site_fract_x
_atom_site_fract_y
_atom_site_fract_z
Zn1 Zn 0.91694(27) 0.08306(27) 0.00000
N1 N 0.931010 -0.007310 0.077500
N2 N 0.699330 0.074560 0.451910
C1 C 0.903850 0.003770 0.141460
C2 C 0.948590 -0.051500 0.180970
H1 H 0.861130 0.043200 0.155990
C3 C 0.939460 -0.060590 0.252660
C4 C 0.880620 -0.009960 0.287050
C5 C 0.871860 -0.018680 0.355780
H2 H 0.846390 0.030600 0.263570
C6 C 0.921940 -0.078020 0.390120
C7 C 0.810480 0.034140 0.391640
H3 H 0.915960 -0.083970 0.437090
C8 C 0.740130 0.005320 0.425170
C9 C 0.813170 0.121180 0.397660
H4 H 0.722570 -0.052940 0.429200
H5 H 0.855580 0.158060 0.379110
N3 N 0.744470 0.146160 0.434910
Zn2 Zn 0.75000 0.25000 0.50000
N1N N 0.992690 -0.068990 0.077500
C1N C 1.003770 -0.096150 0.141460
H1N H 1.043200 -0.138870 0.155990
C4N C 0.990040 -0.119380 0.287050
C5N C 0.981320 -0.128140 0.355780
H2N H 1.030600 -0.153610 0.263570
C7N C 1.034140 -0.189520 0.391640
C8N C 1.005320 -0.259870 0.425170
C9N C 1.121180 -0.186830 0.397660
H4N H 0.947060 -0.277430 0.429200
H5N H 1.158060 -0.144420 0.379110
N3N N 1.146160 -0.255530 0.434910
N2N N 1.074560 -0.300670 0.451910
N1F N 1.007310 0.068990 -0.077500
N2F N 0.925440 0.300670 -0.451910
C1F C 0.996230 0.096150 -0.141460
C2F C 1.051500 0.051410 -0.180970
H1F H 0.956800 0.138870 -0.155990
C3F C 1.060590 0.060540 -0.252660
C4F C 1.009960 0.119380 -0.287050
C5F C 1.018680 0.128140 -0.355780
H2F H 0.969400 0.153610 -0.263570
C6F C 1.078020 0.078060 -0.390120
C7F C 0.965860 0.189520 -0.391640
H3F H 1.083970 0.084040 -0.437090
C8F C 0.994680 0.259870 -0.425170
C9F C 0.878820 0.186830 -0.397660
H4F H 1.052940 0.277430 -0.429200
H5F H 0.841940 0.144420 -0.379110
N3F N 0.853840 0.255530 -0.434910
N1H N 1.068990 0.007310 -0.077500
C1H C 1.096150 -0.003770 -0.141460
H1H H 1.138870 -0.043200 -0.155990
C4H C 1.119380 0.009960 -0.287050
C5H C 1.128140 0.018680 -0.355780
H2H H 1.153610 -0.030600 -0.263570
C7H C 1.189520 -0.034140 -0.391640
C8H C 1.259870 -0.005320 -0.425170
C9H C 1.186830 -0.121180 -0.397660
H4H H 1.277430 0.052940 -0.429200
H5H H 1.144420 -0.158060 -0.379110
N3H N 1.255530 -0.146160 -0.434910
N2H N 1.300670 -0.074560 -0.451910
Zn1J Zn 0.58306(27) 0.08306(27) 0.50000
Zn1A Zn 1.08306(27) -0.41694(27) 0.50000
Zn1B Zn 1.41694(27) -0.08306(27) -0.50000
Zn1H Zn 1.08306(27) -0.08306(27) 0.00000
Zn1I Zn 0.91694(27) 0.41694(27) -0.50000
N1J N 0.568990 -0.007310 0.577500
N1M N 0.492690 0.068990 0.422500
N2G N 0.574560 0.199330 0.548090
N2J N 0.800670 0.074560 -0.048090
N2L N 0.925440 0.199330 0.048090
N3C N 0.755530 0.353840 0.434910
N3F_2 N 0.853840 0.255530 0.565090
N3G N 0.646160 0.244470 0.565090
Zn2_2 Zn 0.75000 0.25000 -0.50000
Zn2H Zn 1.25000 -0.25000 -0.50000
Zn2H_2 Zn 1.25000 -0.25000 0.50000
loop_
_geom_bond_atom_site_label_1
_geom_bond_atom_site_label_2
_geom_bond_site_symmetry_1
_geom_bond_site_symmetry_2
Zn1 N1 1_555 1_555
N1 C1 1_555 1_555
N2 C8 1_555 1_555
C1 C2 1_555 1_555
C2 C3 1_555 1_555
H1 C1 1_555 1_555
C3 C4 1_555 1_555
C4 C5 1_555 1_555
C5 C6 1_555 1_555
H2 C4 1_555 1_555
C6 H3 1_555 1_555
C7 C5 1_555 1_555
C8 C7 1_555 1_555
C9 C7 1_555 1_555
H4 C8 1_555 1_555
H5 C9 1_555 1_555
N3 N2 1_555 1_555
Zn2 N3 1_555 1_555
N1N N1 1_555 1_555
C1N C2 1_555 1_555
H1N C1N 1_555 1_555
C4N C3 1_555 1_555
C5N C6 1_555 1_555
H2N C4N 1_555 1_555
C7N C5N 1_555 1_555
C8N C7N 1_555 1_555
C9N C7N 1_555 1_555
H4N C8N 1_555 1_555
H5N C9N 1_555 1_555
N3N C9N 1_555 1_555
N2N C8N 1_555 1_555
N1F Zn1 1_555 1_555
N2F C8F 1_555 1_555
C1F N1F 1_555 1_555
C2F C1F 1_555 1_555
H1F C1F 1_555 1_555
C3F C2F 1_555 1_555
C4F C3F 1_555 1_555
C5F C4F 1_555 1_555
H2F C4F 1_555 1_555
C6F C5F 1_555 1_555
C7F C5F 1_555 1_555
H3F C6F 1_555 1_555
C8F C7F 1_555 1_555
C9F C7F 1_555 1_555
H4F C8F 1_555 1_555
H5F C9F 1_555 1_555
N3F N2F 1_555 1_555
N1H N1F 1_555 1_555
C1H C2F 1_555 1_555
H1H C1H 1_555 1_555
C4H C3F 1_555 1_555
C5H C6F 1_555 1_555
H2H C4H 1_555 1_555
C7H C5H 1_555 1_555
C8H C7H 1_555 1_555
C9H C7H 1_555 1_555
H4H C8H 1_555 1_555
H5H C9H 1_555 1_555
N3H C9H 1_555 1_555
N2H C8H 1_555 1_555
Zn1J N2 1_555 1_555
Zn1A N2N 1_555 1_555
Zn1B N2H 1_555 1_555
Zn1H N1N 1_555 1_555
Zn1I N2F 1_555 1_555
N1J Zn1J 1_555 1_555
N1M Zn1J 1_555 1_555
N2G Zn1J 1_555 1_555
N2J Zn1 1_555 1_555
N2L Zn1 1_555 1_555
N3C Zn2 1_555 1_555
N3F_2 Zn2 1_555 1_555
N3G Zn2 1_555 1_555
Zn2_2 N3F 1_555 1_555
Zn2H N3H 1_555 1_555
Zn2H_2 N3N 1_555 1_555
C9 N3 1_555 1_555
N1N C1N 1_555 1_555
C4N C5N 1_555 1_555
N3N N2N 1_555 1_555
C9F N3F 1_555 1_555
N1H C1H 1_555 1_555
N1H Zn1H 1_555 1_555
C4H C5H 1_555 1_555
N3H N2H 1_555 1_555
N2G N3G 1_555 1_555

#END
