
#######################################################################
#
#                 Cambridge Crystallographic Data Centre
#                                CCDC 
#
#######################################################################
#
# If this CIF has been generated from an entry in the Cambridge 
# Structural Database, then it will include bibliographic, chemical, 
# crystal, experimental, refinement or atomic coordinate data resulting 
# from the CCDC's data processing and validation procedures.
#
#######################################################################

data_LUYSOP
_chemical_formula_moiety         'C28 H20 Co7 N2 O14'
_symmetry_cell_setting           hexagonal
_symmetry_space_group_name_H-M   'P 6/m m m'
_symmetry_Int_Tables_number      191
_space_group_name_Hall           '-P 6 2'
loop_
_symmetry_equiv_pos_site_id
_symmetry_equiv_pos_as_xyz
1 x,y,z
2 -y,x-y,z
3 -x+y,-x,z
4 -x,-y,z
5 y,-x+y,z
6 x-y,x,z
7 y,x,-z
8 x-y,-y,-z
9 -x,-x+y,-z
10 -y,-x,-z
11 -x+y,y,-z
12 x,x-y,-z
13 -x,-y,-z
14 y,-x+y,-z
15 x-y,x,-z
16 x,y,-z
17 -y,x-y,-z
18 -x+y,-x,-z
19 -y,-x,z
20 -x+y,y,z
21 x,x-y,z
22 y,x,z
23 x-y,-y,z
24 -x,-x+y,z
_cell_length_a                   21.5645(7)
_cell_length_b                   21.5645(7)
_cell_length_c                   9.4379(3)
_cell_angle_alpha                90
_cell_angle_beta                 90
_cell_angle_gamma                120
_cell_volume                     3800.89
loop_
_atom_site_label
_atom_site_type_symbol
_atom_site_fract_x
_atom_site_fract_y
_atom_site_fract_z
H1 H -0.0850(12) 0.4167(11) 0.101(4)
C1 C -0.0761(6) 0.4620(3) 0.0809(10)
C2 C -0.0371(5) 0.4260(5) 0.0812(7)
Co1 Co 0.0000 0.5000 0.35855(8)
H2 H -0.0000 0.418(2) 0.097(4)
N1 N 0.0000 0.5000 0.1372(4)
O1 O 0.07648(12) 0.47305(15) 0.3818(2)
C3 C 0.19836(18) 0.4603(2) 0.3739(3)
H3 H 0.1764 0.4599 0.2864
C4 C 0.1016(2) 0.4690(2) 0.5000
C5 C 0.1659(2) 0.4608(3) 0.5000
H1C H 0.0850(12) 0.5833(11) 0.101(4)
C1C C 0.0761(6) 0.5380(3) 0.0809(10)
C2C C 0.0371(5) 0.5740(5) 0.0812(7)
H2C H -0.0000 0.582(2) 0.097(4)
H1H H 0.0850(12) 0.5017(16) -0.101(4)
C1H C 0.0761(6) 0.5381(7) -0.0809(10)
C2H C 0.0371(5) 0.4631(7) -0.0812(7)
H2H H 0.0000 0.4180(20) -0.097(4)
N1H N 0.0000 0.5000 -0.1372(4)
H1K H -0.0850(12) 0.4983(16) -0.101(4)
C1K C -0.0761(6) 0.4619(7) -0.0809(10)
C2K C -0.0371(5) 0.5369(7) -0.0812(7)
H2K H 0.0000 0.5820(20) -0.097(4)
H1L H 0.0850(12) 0.5833(11) -0.101(4)
C2L C 0.0371(5) 0.5740(5) -0.0812(7)
H1O H -0.0850(12) 0.4167(11) -0.101(4)
C2O C -0.0371(5) 0.4260(5) -0.0812(7)
H1T H -0.0850(12) 0.4983(16) 0.101(4)
C2T C -0.0371(5) 0.5369(7) 0.0812(7)
H1W H 0.0850(12) 0.5017(16) 0.101(4)
C2W C 0.0371(5) 0.4631(7) 0.0812(7)
O1O O 0.07648(12) 0.47305(15) 0.6182(2)
C3O C 0.19836(18) 0.4603(2) 0.6261(3)
H3O H 0.1764 0.4599 0.7136
O1S O 0.39657(19) 0.47305(15) 0.3818(2)
C3S C 0.26194(27) 0.4603(2) 0.3739(3)
H3S H 0.2835 0.4599 0.2864
C4J C 0.3674(3) 0.4690(2) 0.5000
C5J C 0.2949(4) 0.4608(3) 0.5000
O1J O 0.39657(19) 0.47305(15) 0.6182(2)
C3J C 0.26194(27) 0.4603(2) 0.6261(3)
H3J H 0.2835 0.4599 0.7136
Co1H Co 0.0000 0.5000 -0.35855(8)
O1C O -0.07648(12) 0.52695(15) 0.3818(2)
C3C C -0.19836(18) 0.5397(2) 0.3739(3)
H3C H -0.1764 0.5401 0.2864
C4C C -0.1016(2) 0.5310(2) 0.5000
C5C C -0.1659(2) 0.5392(3) 0.5000
O1L O -0.07648(12) 0.52695(15) 0.6182(2)
C3L C -0.19836(18) 0.5397(2) 0.6261(3)
H3L H -0.1764 0.5401 0.7136
O1V O -0.39657(19) 0.52695(15) 0.3818(2)
C3V C -0.26194(27) 0.5397(2) 0.3739(3)
H3V H -0.2835 0.5401 0.2864
C4G C -0.3674(3) 0.5310(2) 0.5000
C5G C -0.2949(4) 0.5392(3) 0.5000
O1G O -0.39657(19) 0.52695(15) 0.6182(2)
C3G C -0.26194(27) 0.5397(2) 0.6261(3)
H3G H -0.2835 0.5401 0.7136
Co1A Co -0.5000 0.5000 0.35855(8)
Co1A_2 Co 0.5000 0.5000 0.35855(8)
Co1G Co -0.5000 0.5000 0.64145(8)
Co1G_2 Co 0.5000 0.5000 0.64145(8)
Co1H_2 Co -0.0000 0.5000 0.64145(8)
O1H O -0.07648(12) 0.39657(19) -0.3818(2)
O1K O 0.07648(12) 0.60343(19) -0.3818(2)
O1L_2 O -0.07648(12) 0.52695(15) -0.3818(2)
O1O_2 O 0.07648(12) 0.47305(15) -0.3818(2)
O1T O 0.07648(12) 0.60343(19) 0.3818(2)
O1W O -0.07648(12) 0.39657(19) 0.3818(2)
loop_
_geom_bond_atom_site_label_1
_geom_bond_atom_site_label_2
_geom_bond_site_symmetry_1
_geom_bond_site_symmetry_2
H1 C1 1_555 1_555
C1 C2 1_555 1_555
C2 H1 1_555 1_555
Co1 N1 1_555 1_555
H2 C2 1_555 1_555
N1 C1 1_555 1_555
O1 Co1 1_555 1_555
C3 H3 1_555 1_555
C4 O1 1_555 1_555
C5 C3 1_555 1_555
H1C C1C 1_555 1_555
C1C N1 1_555 1_555
C2C N1 1_555 1_555
H2C C2C 1_555 1_555
H1H C1H 1_555 1_555
C1H C1C 1_555 1_555
C2H H1H 1_555 1_555
H2H C2H 1_555 1_555
N1H C1H 1_555 1_555
H1K C1K 1_555 1_555
C1K C1 1_555 1_555
C2K N1H 1_555 1_555
H2K C2K 1_555 1_555
H1L C1H 1_555 1_555
C2L C2C 1_555 1_555
H1O C1K 1_555 1_555
C2O C2 1_555 1_555
H1T C1 1_555 1_555
C2T C1 1_555 1_555
H1W C1C 1_555 1_555
C2W C2 1_555 1_555
O1O C4 1_555 1_555
C3O C5 1_555 1_555
H3O C3O 1_555 1_555
O1S C4J 1_555 1_555
C3S C3 1_555 1_555
H3S C3S 1_555 1_555
C4J C5J 1_555 1_555
C5J C3S 1_555 1_555
O1J C4J 1_555 1_555
C3J C3O 1_555 1_555
H3J C3J 1_555 1_555
Co1H N1H 1_555 1_555
O1C Co1 1_555 1_555
C3C H3C 1_555 1_555
C4C O1C 1_555 1_555
C5C C3C 1_555 1_555
O1L C4C 1_555 1_555
C3L C5C 1_555 1_555
H3L C3L 1_555 1_555
O1V C4G 1_555 1_555
C3V C3C 1_555 1_555
H3V C3V 1_555 1_555
C4G C5G 1_555 1_555
C5G C3V 1_555 1_555
O1G C4G 1_555 1_555
C3G C3L 1_555 1_555
H3G C3G 1_555 1_555
Co1A O1V 1_555 1_555
Co1A_2 O1S 1_555 1_555
Co1G O1G 1_555 1_555
Co1G_2 O1J 1_555 1_555
Co1H_2 O1O 1_555 1_555
O1H Co1H 1_555 1_555
O1K Co1H 1_555 1_555
O1L_2 Co1H 1_555 1_555
O1O_2 Co1H 1_555 1_555
O1T Co1 1_555 1_555
O1W Co1 1_555 1_555
C2 N1 1_555 1_555
H2 C2W 1_555 1_555
N1 C2T 1_555 1_555
N1 C2W 1_555 1_555
C4 C5 1_555 1_555
H1C C2C 1_555 1_555
C1C C2C 1_555 1_555
C1C C2W 1_555 1_555
C2C C2T 1_555 1_555
H2C C2T 1_555 1_555
C1H C2H 1_555 1_555
C1H C2L 1_555 1_555
C2H N1H 1_555 1_555
C2H C2O 1_555 1_555
C2H C2W 1_555 1_555
H2H C2O 1_555 1_555
N1H C1K 1_555 1_555
N1H C2L 1_555 1_555
N1H C2O 1_555 1_555
H1K C2K 1_555 1_555
C1K C2K 1_555 1_555
C1K C2O 1_555 1_555
C2K C2L 1_555 1_555
C2K C2T 1_555 1_555
H2K C2L 1_555 1_555
H1L C2L 1_555 1_555
H1O C2O 1_555 1_555
H1T C2T 1_555 1_555
H1W C2W 1_555 1_555
C5J C3J 1_555 1_555
C4C C5C 1_555 1_555
O1L Co1H_2 1_555 1_555
C5G C3G 1_555 1_555

#END
