
#######################################################################
#
#                 Cambridge Crystallographic Data Centre
#                                CCDC 
#
#######################################################################
#
# If this CIF has been generated from an entry in the Cambridge 
# Structural Database, then it will include bibliographic, chemical, 
# crystal, experimental, refinement or atomic coordinate data resulting 
# from the CCDC's data processing and validation procedures.
#
#######################################################################

data_MILROQ
_chemical_formula_moiety         '(C154 H138 Cu18 N26 O28)n'
_symmetry_cell_setting           tetragonal
_symmetry_space_group_name_H-M   'P 42/n m c'
_symmetry_Int_Tables_number      137
_space_group_name_Hall           '-P 4ac 2a'
loop_
_symmetry_equiv_pos_site_id
_symmetry_equiv_pos_as_xyz
1 x,y,z
2 1/2-y,x,1/2+z
3 1/2-x,1/2-y,z
4 y,1/2-x,1/2+z
5 1/2+x,-y,-z
6 -x,1/2+y,-z
7 1/2+y,1/2+x,1/2-z
8 -y,-x,1/2-z
9 -x,-y,-z
10 1/2+y,-x,1/2-z
11 1/2+x,1/2+y,-z
12 -y,1/2+x,1/2-z
13 1/2-x,y,z
14 x,1/2-y,z
15 1/2-y,1/2-x,1/2+z
16 y,x,1/2+z
_cell_length_a                   39.705(6)
_cell_length_b                   39.705(6)
_cell_length_c                   27.201(4)
_cell_angle_alpha                90
_cell_angle_beta                 90
_cell_angle_gamma                90
_cell_volume                     42882
loop_
_atom_site_label
_atom_site_type_symbol
_atom_site_fract_x
_atom_site_fract_y
_atom_site_fract_z
Cu1 Cu 0.2500 0.2500 0.02358(9)
Cu2 Cu 0.2500 0.2500 0.12083(8)
Cu3 Cu -0.2500 0.01277(4) 0.32766(7)
Cu4 Cu -0.2500 0.07982(4) 0.32270(8)
Cu5 Cu -0.00963(4) -0.01171(5) 0.07417(9)
Cu6 Cu 0.05929(4) 0.01573(4) 0.03144(8)
Cu7 Cu 0.01289(4) 0.06080(4) 0.10511(8)
O1 O 0.21505(15) 0.21537(16) 0.1139(3)
O2 O 0.21493(14) 0.21525(17) 0.0333(3)
O3 O -0.21387(12) 0.07043(18) 0.2736(3)
C1 C 0.2043(3) 0.2061(2) 0.0767(6)
O4 O -0.21484(17) 0.01428(19) 0.2797(4)
O5 O 0.2500 0.2500 0.2019(6)
N1 N -0.2500 -0.0423(2) 0.3331(3)
C2 C 0.1383(2) 0.1443(2) 0.1145(5)
H1 H 0.1286 0.1368 0.1445
C3 C 0.1267(2) 0.1316(2) 0.0702(5)
C4 C 0.1413(3) 0.1427(3) 0.0267(4)
H2 H 0.1343 0.1335 -0.0039
C5 C 0.1009(2) 0.1043(2) 0.0685(4)
O6 O 0.07729(16) -0.21495(15) -0.1275(3)
O7 O 0.02213(18) -0.21562(15) -0.1251(3)
O8 O -0.2500 0.1378(3) 0.3113(4)
C6 C 0.1645(2) 0.1682(2) 0.1151(4)
H3 H 0.1730 0.1760 0.1458
C7 C 0.1782(2) 0.1805(3) 0.0721(5)
C8 C 0.1662(3) 0.1676(3) 0.0282(5)
H4 H 0.1753 0.1758 -0.0019
N2 N 0.0550(2) 0.0760(2) 0.0837(3)
N3 N 0.0725(2) 0.0592(2) 0.0499(3)
N4 N -0.0282(2) 0.0451(2) 0.1255(3)
C9 C 0.0578(2) 0.1276(2) 0.1340(4)
H5 H 0.0332 0.1254 0.1349
H6 H 0.0637 0.1509 0.1254
H7 H 0.0672 0.1221 0.1663
C10 C -0.1565(3) 0.0681(2) 0.2094(4)
H8 H -0.1683 0.0889 0.2104
C11 C 0.0484(3) -0.1751(2) -0.0809(4)
C12 C 0.0721(2) 0.1038(2) 0.0958(4)
C13 C -0.1212(3) 0.0068(3) 0.2121(5)
H9 H -0.1086 -0.0136 0.2120
O9 O 0.2500 0.2500 -0.0627(6)
C14 C 0.1258(3) 0.0628(3) 0.0021(4)
H10 H 0.1294 0.0387 0.0081
H11 H 0.1473 0.0748 0.0047
H12 H 0.1165 0.0659 -0.0310
C15 C -0.1520(3) 0.0091(3) 0.2352(5)
H13 H -0.1615 -0.0099 0.2513
N5 N 0.0465(3) -0.0271(3) 0.0174(4)
C16 C 0.1013(2) 0.0766(2) 0.0399(3)
C17 C -0.1690(3) 0.0400(3) 0.2346(4)
C18 C 0.0183(3) -0.1596(3) -0.0673(5)
H14 H -0.0018 -0.1716 -0.0742
C19 C 0.0782(3) -0.1599(3) -0.0662(5)
H15 H 0.0997 -0.1695 -0.0724
C20 C -0.2031(3) 0.0405(4) 0.2660(5)
C21 C 0.0496(3) -0.2041(2) -0.1134(4)
C22 C 0.0739(2) -0.1294(3) -0.0416(5)
H16 H 0.0941 -0.1182 -0.0325
N6 N -0.0362(2) 0.0139(2) 0.1120(4)
N7 N 0.0176(3) -0.0376(3) 0.0367(4)
C23 C -0.0507(3) 0.0937(2) 0.1741(3)
H17 H -0.0275 0.0985 0.1841
H18 H -0.0656 0.0957 0.2027
H19 H -0.0577 0.1098 0.1488
C24 C 0.0112(2) -0.0709(3) 0.0273(3)
C25 C 0.0933(3) -0.0486(2) -0.0310(4)
H20 H 0.0926 -0.0272 -0.0489
H21 H 0.0980 -0.0670 -0.0539
H22 H 0.1112 -0.0476 -0.0061
C26 C -0.0774(2) 0.0339(3) 0.1590(3)
C27 C -0.0528(2) 0.0582(2) 0.1537(3)
C28 C 0.0598(3) -0.0546(3) -0.0060(4)
C29 C -0.0665(3) 0.0068(3) 0.1330(4)
C30 C -0.1269(3) 0.0654(3) 0.1830(5)
H23 H -0.1190 0.0829 0.1622
C31 C -0.2500 -0.1119(2) 0.3462(5)
H24 H -0.2500 -0.1357 0.3505
C32 C -0.21978(10) -0.0944(2) 0.3428(3)
H25 H -0.1990 -0.1064 0.3450
C33 C -0.21981(14) -0.0598(2) 0.3364(2)
H26 H -0.1990 -0.0479 0.3342
C34 C 0.0381(3) -0.0817(2) 0.0001(4)
C35 C -0.1094(3) 0.0355(3) 0.1890(4)
C36 C 0.0145(3) -0.1284(3) -0.0450(5)
H27 H -0.0070 -0.1182 -0.0411
C37 C 0.0442(3) -0.1130(3) -0.0283(4)
C38 C -0.0196(2) -0.0913(3) 0.0439(5)
H28 H -0.0322 -0.0989 0.0150
H29 H -0.0341 -0.0771 0.0643
H30 H -0.0121 -0.1109 0.0629
C39 C -0.0828(3) -0.0270(3) 0.1256(4)
H31 H -0.0723 -0.0383 0.0974
H32 H -0.1069 -0.0239 0.1193
H33 H -0.0797 -0.0407 0.1551
C32L C -0.28022(10) -0.0944(2) 0.3428(3)
H25L H -0.3010 -0.1064 0.3450
C33L C -0.28019(14) -0.0598(2) 0.3364(2)
H26L H -0.3010 -0.0479 0.3342
Cu5B Cu 0.50963(4) 0.51171(5) 0.07417(9)
Cu6B Cu 0.44071(4) 0.48427(4) 0.03144(8)
Cu7B Cu 0.48711(4) 0.43920(4) 0.10511(8)
O1B O 0.28495(15) 0.28463(16) 0.1139(3)
O2B O 0.28507(14) 0.28475(17) 0.0333(3)
O3B O 0.71387(12) 0.42957(18) 0.2736(3)
C1B C 0.2957(3) 0.2939(2) 0.0767(6)
O4B O 0.71484(17) 0.48572(19) 0.2797(4)
C2B C 0.3617(2) 0.3557(2) 0.1145(5)
H1B H 0.3714 0.3632 0.1445
C3B C 0.3733(2) 0.3684(2) 0.0702(5)
C4B C 0.3587(3) 0.3573(3) 0.0267(4)
H2B H 0.3657 0.3665 -0.0039
C5B C 0.3991(2) 0.3957(2) 0.0685(4)
O6B O 0.42271(16) 0.71495(15) -0.1275(3)
O7B O 0.47787(18) 0.71562(15) -0.1251(3)
C6B C 0.3355(2) 0.3318(2) 0.1151(4)
H3B H 0.3270 0.3240 0.1458
C7B C 0.3218(2) 0.3195(3) 0.0721(5)
C8B C 0.3338(3) 0.3324(3) 0.0282(5)
H4B H 0.3247 0.3242 -0.0019
N2B N 0.4450(2) 0.4240(2) 0.0837(3)
N3B N 0.4275(2) 0.4408(2) 0.0499(3)
N4B N 0.5282(2) 0.4549(2) 0.1255(3)
C9B C 0.4422(2) 0.3724(2) 0.1340(4)
H5B H 0.4668 0.3746 0.1349
H6B H 0.4363 0.3491 0.1254
H7B H 0.4328 0.3779 0.1663
C10B C 0.6565(3) 0.4319(2) 0.2094(4)
H8B H 0.6683 0.4111 0.2104
C11B C 0.4516(3) 0.6751(2) -0.0809(4)
C12B C 0.4279(2) 0.3962(2) 0.0958(4)
C13B C 0.6212(3) 0.4932(3) 0.2121(5)
H9B H 0.6086 0.5136 0.2120
C14B C 0.3742(3) 0.4372(3) 0.0021(4)
H10B H 0.3706 0.4613 0.0081
H11B H 0.3527 0.4252 0.0047
H12B H 0.3835 0.4341 -0.0310
C15B C 0.6520(3) 0.4909(3) 0.2352(5)
H13B H 0.6615 0.5099 0.2513
N5B N 0.4535(3) 0.5271(3) 0.0174(4)
C16B C 0.3987(2) 0.4234(2) 0.0399(3)
C17B C 0.6690(3) 0.4600(3) 0.2346(4)
C18B C 0.4817(3) 0.6596(3) -0.0673(5)
H14B H 0.5018 0.6716 -0.0742
C19B C 0.4218(3) 0.6599(3) -0.0662(5)
H15B H 0.4003 0.6695 -0.0724
C20B C 0.7031(3) 0.4595(4) 0.2660(5)
C21B C 0.4504(3) 0.7041(2) -0.1134(4)
C22B C 0.4261(2) 0.6294(3) -0.0416(5)
H16B H 0.4059 0.6182 -0.0325
N6B N 0.5362(2) 0.4861(2) 0.1120(4)
N7B N 0.4824(3) 0.5376(3) 0.0367(4)
C23B C 0.5507(3) 0.4063(2) 0.1741(3)
H17B H 0.5275 0.4015 0.1841
H18B H 0.5656 0.4043 0.2027
H19B H 0.5577 0.3902 0.1488
C24B C 0.4888(2) 0.5709(3) 0.0273(3)
C25B C 0.4067(3) 0.5486(2) -0.0310(4)
H20B H 0.4074 0.5272 -0.0489
H21B H 0.4020 0.5670 -0.0539
H22B H 0.3888 0.5476 -0.0061
C26B C 0.5774(2) 0.4661(3) 0.1590(3)
C27B C 0.5528(2) 0.4418(2) 0.1537(3)
C28B C 0.4402(3) 0.5546(3) -0.0060(4)
C29B C 0.5665(3) 0.4932(3) 0.1330(4)
C30B C 0.6269(3) 0.4346(3) 0.1830(5)
H23B H 0.6190 0.4171 0.1622
C34B C 0.4619(3) 0.5817(2) 0.0001(4)
C35B C 0.6094(3) 0.4645(3) 0.1890(4)
C36B C 0.4855(3) 0.6284(3) -0.0450(5)
H27B H 0.5070 0.6182 -0.0411
C37B C 0.4558(3) 0.6130(3) -0.0283(4)
C38B C 0.5196(2) 0.5913(3) 0.0439(5)
H28B H 0.5322 0.5989 0.0150
H29B H 0.5341 0.5771 0.0643
H30B H 0.5121 0.6109 0.0629
C39B C 0.5828(3) 0.5270(3) 0.1256(4)
H31B H 0.5723 0.5383 0.0974
H32B H 0.6069 0.5239 0.1193
H33B H 0.5797 0.5407 0.1551
Cu5L Cu 0.50963(4) -0.01171(5) 0.07417(9)
Cu6L Cu 0.44071(4) 0.01573(4) 0.03144(8)
Cu7L Cu 0.48711(4) 0.06080(4) 0.10511(8)
O1L O 0.28495(15) 0.21537(16) 0.1139(3)
O2L O 0.28507(14) 0.21525(17) 0.0333(3)
O3L O 0.71387(12) 0.07043(18) 0.2736(3)
C1L C 0.2957(3) 0.2061(2) 0.0767(6)
O4L O 0.71484(17) 0.01428(19) 0.2797(4)
C2L C 0.3617(2) 0.1443(2) 0.1145(5)
H1L H 0.3714 0.1368 0.1445
C3L C 0.3733(2) 0.1316(2) 0.0702(5)
C4L C 0.3587(3) 0.1427(3) 0.0267(4)
H2L H 0.3657 0.1335 -0.0039
C5L C 0.3991(2) 0.1043(2) 0.0685(4)
O6L O 0.42271(16) -0.21495(15) -0.1275(3)
O7L O 0.47787(18) -0.21562(15) -0.1251(3)
C6L C 0.3355(2) 0.1682(2) 0.1151(4)
H3L H 0.3270 0.1760 0.1458
C7L C 0.3218(2) 0.1805(3) 0.0721(5)
C8L C 0.3338(3) 0.1676(3) 0.0282(5)
H4L H 0.3247 0.1758 -0.0019
N2L N 0.4450(2) 0.0760(2) 0.0837(3)
N3L N 0.4275(2) 0.0592(2) 0.0499(3)
N4L N 0.5282(2) 0.0451(2) 0.1255(3)
C9L C 0.4422(2) 0.1276(2) 0.1340(4)
H5L H 0.4668 0.1254 0.1349
H6L H 0.4363 0.1509 0.1254
H7L H 0.4328 0.1221 0.1663
C10L C 0.6565(3) 0.0681(2) 0.2094(4)
H8L H 0.6683 0.0889 0.2104
C11L C 0.4516(3) -0.1751(2) -0.0809(4)
C12L C 0.4279(2) 0.1038(2) 0.0958(4)
C13L C 0.6212(3) 0.0068(3) 0.2121(5)
H9L H 0.6086 -0.0136 0.2120
C14L C 0.3742(3) 0.0628(3) 0.0021(4)
H10L H 0.3706 0.0387 0.0081
H11L H 0.3527 0.0748 0.0047
H12L H 0.3835 0.0659 -0.0310
C15L C 0.6520(3) 0.0091(3) 0.2352(5)
H13L H 0.6615 -0.0099 0.2513
N5L N 0.4535(3) -0.0271(3) 0.0174(4)
C16L C 0.3987(2) 0.0766(2) 0.0399(3)
C17L C 0.6690(3) 0.0400(3) 0.2346(4)
C18L C 0.4817(3) -0.1596(3) -0.0673(5)
H14L H 0.5018 -0.1716 -0.0742
C19L C 0.4218(3) -0.1599(3) -0.0662(5)
H15L H 0.4003 -0.1695 -0.0724
C20L C 0.7031(3) 0.0405(4) 0.2660(5)
C21L C 0.4504(3) -0.2041(2) -0.1134(4)
C22L C 0.4261(2) -0.1294(3) -0.0416(5)
H16L H 0.4059 -0.1182 -0.0325
N6L N 0.5362(2) 0.0139(2) 0.1120(4)
N7L N 0.4824(3) -0.0376(3) 0.0367(4)
C23L C 0.5507(3) 0.0937(2) 0.1741(3)
H17L H 0.5275 0.0985 0.1841
H18L H 0.5656 0.0957 0.2027
H19L H 0.5577 0.1098 0.1488
C24L C 0.4888(2) -0.0709(3) 0.0273(3)
C25L C 0.4067(3) -0.0486(2) -0.0310(4)
H20L H 0.4074 -0.0272 -0.0489
H21L H 0.4020 -0.0670 -0.0539
H22L H 0.3888 -0.0476 -0.0061
C26L C 0.5774(2) 0.0339(3) 0.1590(3)
C27L C 0.5528(2) 0.0582(2) 0.1537(3)
C28L C 0.4402(3) -0.0546(3) -0.0060(4)
C29L C 0.5665(3) 0.0068(3) 0.1330(4)
C30L C 0.6269(3) 0.0654(3) 0.1830(5)
H23L H 0.6190 0.0829 0.1622
C34L C 0.4619(3) -0.0817(2) 0.0001(4)
C35L C 0.6094(3) 0.0355(3) 0.1890(4)
C36L C 0.4855(3) -0.1284(3) -0.0450(5)
H27L H 0.5070 -0.1182 -0.0411
C37L C 0.4558(3) -0.1130(3) -0.0283(4)
C38L C 0.5196(2) -0.0913(3) 0.0439(5)
H28L H 0.5322 -0.0989 0.0150
H29L H 0.5341 -0.0771 0.0643
H30L H 0.5121 -0.1109 0.0629
C39L C 0.5828(3) -0.0270(3) 0.1256(4)
H31L H 0.5723 -0.0383 0.0974
H32L H 0.6069 -0.0239 0.1193
H33L H 0.5797 -0.0407 0.1551
Cu3B Cu -0.2500 0.48723(4) 0.32766(7)
Cu4B Cu -0.2500 0.42018(4) 0.32270(8)
Cu5M Cu -0.00963(4) 0.51171(5) 0.07417(9)
Cu6M Cu 0.05929(4) 0.48427(4) 0.03144(8)
Cu7M Cu 0.01289(4) 0.43920(4) 0.10511(8)
O1M O 0.21505(15) 0.28463(16) 0.1139(3)
O2M O 0.21493(14) 0.28475(17) 0.0333(3)
O3M O -0.21387(12) 0.42957(18) 0.2736(3)
C1M C 0.2043(3) 0.2939(2) 0.0767(6)
O4M O -0.21484(17) 0.48572(19) 0.2797(4)
N1B N -0.2500 0.5423(2) 0.3331(3)
C2M C 0.1383(2) 0.3557(2) 0.1145(5)
H1M H 0.1286 0.3632 0.1445
C3M C 0.1267(2) 0.3684(2) 0.0702(5)
C4M C 0.1413(3) 0.3573(3) 0.0267(4)
H2M H 0.1343 0.3665 -0.0039
C5M C 0.1009(2) 0.3957(2) 0.0685(4)
O6M O 0.07729(16) 0.71495(15) -0.1275(3)
O7M O 0.02213(18) 0.71562(15) -0.1251(3)
O8B O -0.2500 0.3622(3) 0.3113(4)
C6M C 0.1645(2) 0.3318(2) 0.1151(4)
H3M H 0.1730 0.3240 0.1458
C7M C 0.1782(2) 0.3195(3) 0.0721(5)
C8M C 0.1662(3) 0.3324(3) 0.0282(5)
H4M H 0.1753 0.3242 -0.0019
N2M N 0.0550(2) 0.4240(2) 0.0837(3)
N3M N 0.0725(2) 0.4408(2) 0.0499(3)
N4M N -0.0282(2) 0.4549(2) 0.1255(3)
C9M C 0.0578(2) 0.3724(2) 0.1340(4)
H5M H 0.0332 0.3746 0.1349
H6M H 0.0637 0.3491 0.1254
H7M H 0.0672 0.3779 0.1663
C10M C -0.1565(3) 0.4319(2) 0.2094(4)
H8M H -0.1683 0.4111 0.2104
C11M C 0.0484(3) 0.6751(2) -0.0809(4)
C12M C 0.0721(2) 0.3962(2) 0.0958(4)
C13M C -0.1212(3) 0.4932(3) 0.2121(5)
H9M H -0.1086 0.5136 0.2120
C14M C 0.1258(3) 0.4372(3) 0.0021(4)
H10M H 0.1294 0.4613 0.0081
H11M H 0.1473 0.4252 0.0047
H12M H 0.1165 0.4341 -0.0310
C15M C -0.1520(3) 0.4909(3) 0.2352(5)
H13M H -0.1615 0.5099 0.2513
N5M N 0.0465(3) 0.5271(3) 0.0174(4)
C16M C 0.1013(2) 0.4234(2) 0.0399(3)
C17M C -0.1690(3) 0.4600(3) 0.2346(4)
C18M C 0.0183(3) 0.6596(3) -0.0673(5)
H14M H -0.0018 0.6716 -0.0742
C19M C 0.0782(3) 0.6599(3) -0.0662(5)
H15M H 0.0997 0.6695 -0.0724
C20M C -0.2031(3) 0.4595(4) 0.2660(5)
C21M C 0.0496(3) 0.7041(2) -0.1134(4)
C22M C 0.0739(2) 0.6294(3) -0.0416(5)
H16M H 0.0941 0.6182 -0.0325
N6M N -0.0362(2) 0.4861(2) 0.1120(4)
N7M N 0.0176(3) 0.5376(3) 0.0367(4)
C23M C -0.0507(3) 0.4063(2) 0.1741(3)
H17M H -0.0275 0.4015 0.1841
H18M H -0.0656 0.4043 0.2027
H19M H -0.0577 0.3902 0.1488
C24M C 0.0112(2) 0.5709(3) 0.0273(3)
C25M C 0.0933(3) 0.5486(2) -0.0310(4)
H20M H 0.0926 0.5272 -0.0489
H21M H 0.0980 0.5670 -0.0539
H22M H 0.1112 0.5476 -0.0061
C26M C -0.0774(2) 0.4661(3) 0.1590(3)
C27M C -0.0528(2) 0.4418(2) 0.1537(3)
C28M C 0.0598(3) 0.5546(3) -0.0060(4)
C29M C -0.0665(3) 0.4932(3) 0.1330(4)
C30M C -0.1269(3) 0.4346(3) 0.1830(5)
H23M H -0.1190 0.4171 0.1622
C31B C -0.2500 0.6119(2) 0.3462(5)
H24B H -0.2500 0.6357 0.3505
C32M C -0.21978(10) 0.5944(2) 0.3428(3)
H25M H -0.1990 0.6064 0.3450
C33M C -0.21981(14) 0.5598(2) 0.3364(2)
H26M H -0.1990 0.5479 0.3342
C34M C 0.0381(3) 0.5817(2) 0.0001(4)
C35M C -0.1094(3) 0.4645(3) 0.1890(4)
C36M C 0.0145(3) 0.6284(3) -0.0450(5)
H27M H -0.0070 0.6182 -0.0411
C37M C 0.0442(3) 0.6130(3) -0.0283(4)
C38M C -0.0196(2) 0.5913(3) 0.0439(5)
H28M H -0.0322 0.5989 0.0150
H29M H -0.0341 0.5771 0.0643
H30M H -0.0121 0.6109 0.0629
C39M C -0.0828(3) 0.5270(3) 0.1256(4)
H31M H -0.0723 0.5383 0.0974
H32M H -0.1069 0.5239 0.1193
H33M H -0.0797 0.5407 0.1551
C32B C -0.28022(10) 0.5944(2) 0.3428(3)
H25B H -0.3010 0.6064 0.3450
C33B C -0.28019(14) 0.5598(2) 0.3364(2)
H26B H -0.3010 0.5479 0.3342
Cu3_2 Cu 0.7500 0.01277(4) 0.32766(7)
Cu3A Cu 0.48723(4) -0.2500 -0.17234(7)
Cu3A_2 Cu 0.48723(4) 0.7500 -0.17234(7)
Cu3B_2 Cu 0.7500 0.48723(4) 0.32766(7)
Cu3C Cu 0.01277(4) -0.2500 -0.17234(7)
Cu3C_2 Cu 0.01277(4) 0.7500 -0.17234(7)
Cu4_2 Cu 0.7500 0.07982(4) 0.32270(8)
Cu4A Cu 0.42018(4) -0.2500 -0.17730(8)
Cu4A_2 Cu 0.42018(4) 0.7500 -0.17730(8)
Cu4B_2 Cu 0.7500 0.42018(4) 0.32270(8)
Cu4C Cu 0.07982(4) -0.2500 -0.17730(8)
Cu4C_2 Cu 0.07982(4) 0.7500 -0.17730(8)
O3B_2 O -0.28613(12) 0.42957(18) 0.2736(3)
O3L_2 O -0.28613(12) 0.07043(18) 0.2736(3)
O4B_2 O -0.28516(17) 0.48572(19) 0.2797(4)
O4L_2 O -0.28516(17) 0.01428(19) 0.2797(4)
O6A O -0.28505(15) 0.07729(16) 0.3725(3)
O6C O -0.21495(15) 0.42271(16) 0.3725(3)
O6N O -0.28505(15) 0.42271(16) 0.3725(3)
O6O O -0.21495(15) 0.07729(16) 0.3725(3)
O7A O -0.28438(15) 0.02213(18) 0.3749(3)
O7C O -0.21562(15) 0.47787(18) 0.3749(3)
O7N O -0.28438(15) 0.47787(18) 0.3749(3)
O7O O -0.21562(15) 0.02213(18) 0.3749(3)
loop_
_geom_bond_atom_site_label_1
_geom_bond_atom_site_label_2
_geom_bond_site_symmetry_1
_geom_bond_site_symmetry_2
Cu1 O2 1_555 1_555
Cu2 O1 1_555 1_555
Cu3 O4 1_555 1_555
Cu4 O3 1_555 1_555
Cu5 N6 1_555 1_555
Cu6 N3 1_555 1_555
Cu7 N2 1_555 1_555
O1 C1 1_555 1_555
O2 C1 1_555 1_555
O3 C20 1_555 1_555
C1 C7 1_555 1_555
O4 C20 1_555 1_555
O5 Cu2 1_555 1_555
N1 Cu3 1_555 1_555
C2 H1 1_555 1_555
C3 C2 1_555 1_555
C4 C3 1_555 1_555
H2 C4 1_555 1_555
C5 C3 1_555 1_555
O6 C21 1_555 1_555
O7 C21 1_555 1_555
O8 Cu4 1_555 1_555
C6 C2 1_555 1_555
H3 C6 1_555 1_555
C7 C6 1_555 1_555
C8 C4 1_555 1_555
H4 C8 1_555 1_555
N2 N3 1_555 1_555
N3 C16 1_555 1_555
N4 Cu7 1_555 1_555
C9 H5 1_555 1_555
H6 C9 1_555 1_555
H7 C9 1_555 1_555
C10 H8 1_555 1_555
C11 C18 1_555 1_555
C12 C5 1_555 1_555
C13 H9 1_555 1_555
O9 Cu1 1_555 1_555
C14 H10 1_555 1_555
H11 C14 1_555 1_555
H12 C14 1_555 1_555
C15 C13 1_555 1_555
H13 C15 1_555 1_555
N5 Cu6 1_555 1_555
C16 C5 1_555 1_555
C17 C10 1_555 1_555
C18 H14 1_555 1_555
C19 C11 1_555 1_555
H15 C19 1_555 1_555
C20 C17 1_555 1_555
C21 C11 1_555 1_555
C22 C19 1_555 1_555
H16 C22 1_555 1_555
N6 N4 1_555 1_555
N7 Cu5 1_555 1_555
C23 H17 1_555 1_555
H18 C23 1_555 1_555
H19 C23 1_555 1_555
C24 N7 1_555 1_555
C25 H20 1_555 1_555
H21 C25 1_555 1_555
H22 C25 1_555 1_555
C26 C27 1_555 1_555
C27 N4 1_555 1_555
C28 N5 1_555 1_555
C29 N6 1_555 1_555
C30 C10 1_555 1_555
H23 C30 1_555 1_555
C31 H24 1_555 1_555
C32 C31 1_555 1_555
H25 C32 1_555 1_555
C33 N1 1_555 1_555
H26 C33 1_555 1_555
C34 C24 1_555 1_555
C35 C13 1_555 1_555
C36 C18 1_555 1_555
H27 C36 1_555 1_555
C37 C22 1_555 1_555
C38 C24 1_555 1_555
H28 C38 1_555 1_555
H29 C38 1_555 1_555
H30 C38 1_555 1_555
C39 C29 1_555 1_555
H31 C39 1_555 1_555
H32 C39 1_555 1_555
H33 C39 1_555 1_555
C32L C31 1_555 1_555
H25L C32L 1_555 1_555
C33L N1 1_555 1_555
H26L C33L 1_555 1_555
Cu5B N6B 1_555 1_555
Cu6B N3B 1_555 1_555
Cu7B N2B 1_555 1_555
O1B Cu2 1_555 1_555
O2B Cu1 1_555 1_555
O3B C20B 1_555 1_555
C1B O1B 1_555 1_555
O4B C20B 1_555 1_555
C2B H1B 1_555 1_555
C3B C2B 1_555 1_555
C4B C3B 1_555 1_555
H2B C4B 1_555 1_555
C5B C3B 1_555 1_555
O6B C21B 1_555 1_555
O7B C21B 1_555 1_555
C6B C2B 1_555 1_555
H3B C6B 1_555 1_555
C7B C1B 1_555 1_555
C8B C4B 1_555 1_555
H4B C8B 1_555 1_555
N2B N3B 1_555 1_555
N3B C16B 1_555 1_555
N4B Cu7B 1_555 1_555
C9B H5B 1_555 1_555
H6B C9B 1_555 1_555
H7B C9B 1_555 1_555
C10B H8B 1_555 1_555
C11B C18B 1_555 1_555
C12B C5B 1_555 1_555
C13B H9B 1_555 1_555
C14B H10B 1_555 1_555
H11B C14B 1_555 1_555
H12B C14B 1_555 1_555
C15B C13B 1_555 1_555
H13B C15B 1_555 1_555
N5B Cu6B 1_555 1_555
C16B C5B 1_555 1_555
C17B C10B 1_555 1_555
C18B H14B 1_555 1_555
C19B C11B 1_555 1_555
H15B C19B 1_555 1_555
C20B C17B 1_555 1_555
C21B C11B 1_555 1_555
C22B C19B 1_555 1_555
H16B C22B 1_555 1_555
N6B N4B 1_555 1_555
N7B Cu5B 1_555 1_555
C23B H17B 1_555 1_555
H18B C23B 1_555 1_555
H19B C23B 1_555 1_555
C24B N7B 1_555 1_555
C25B H20B 1_555 1_555
H21B C25B 1_555 1_555
H22B C25B 1_555 1_555
C26B C27B 1_555 1_555
C27B N4B 1_555 1_555
C28B N5B 1_555 1_555
C29B N6B 1_555 1_555
C30B C10B 1_555 1_555
H23B C30B 1_555 1_555
C34B C24B 1_555 1_555
C35B C13B 1_555 1_555
C36B C18B 1_555 1_555
H27B C36B 1_555 1_555
C37B C22B 1_555 1_555
C38B C24B 1_555 1_555
H28B C38B 1_555 1_555
H29B C38B 1_555 1_555
H30B C38B 1_555 1_555
C39B C29B 1_555 1_555
H31B C39B 1_555 1_555
H32B C39B 1_555 1_555
H33B C39B 1_555 1_555
Cu5L N6L 1_555 1_555
Cu6L N3L 1_555 1_555
Cu7L N2L 1_555 1_555
O1L Cu2 1_555 1_555
O2L Cu1 1_555 1_555
O3L C20L 1_555 1_555
C1L O1L 1_555 1_555
O4L C20L 1_555 1_555
C2L H1L 1_555 1_555
C3L C2L 1_555 1_555
C4L C3L 1_555 1_555
H2L C4L 1_555 1_555
C5L C3L 1_555 1_555
O6L C21L 1_555 1_555
O7L C21L 1_555 1_555
C6L C2L 1_555 1_555
H3L C6L 1_555 1_555
C7L C1L 1_555 1_555
C8L C4L 1_555 1_555
H4L C8L 1_555 1_555
N2L N3L 1_555 1_555
N3L C16L 1_555 1_555
N4L Cu7L 1_555 1_555
C9L H5L 1_555 1_555
H6L C9L 1_555 1_555
H7L C9L 1_555 1_555
C10L H8L 1_555 1_555
C11L C18L 1_555 1_555
C12L C5L 1_555 1_555
C13L H9L 1_555 1_555
C14L H10L 1_555 1_555
H11L C14L 1_555 1_555
H12L C14L 1_555 1_555
C15L C13L 1_555 1_555
H13L C15L 1_555 1_555
N5L Cu6L 1_555 1_555
C16L C5L 1_555 1_555
C17L C10L 1_555 1_555
C18L H14L 1_555 1_555
C19L C11L 1_555 1_555
H15L C19L 1_555 1_555
C20L C17L 1_555 1_555
C21L C11L 1_555 1_555
C22L C19L 1_555 1_555
H16L C22L 1_555 1_555
N6L N4L 1_555 1_555
N7L Cu5L 1_555 1_555
C23L H17L 1_555 1_555
H18L C23L 1_555 1_555
H19L C23L 1_555 1_555
C24L N7L 1_555 1_555
C25L H20L 1_555 1_555
H21L C25L 1_555 1_555
H22L C25L 1_555 1_555
C26L C27L 1_555 1_555
C27L N4L 1_555 1_555
C28L N5L 1_555 1_555
C29L N6L 1_555 1_555
C30L C10L 1_555 1_555
H23L C30L 1_555 1_555
C34L C24L 1_555 1_555
C35L C13L 1_555 1_555
C36L C18L 1_555 1_555
H27L C36L 1_555 1_555
C37L C22L 1_555 1_555
C38L C24L 1_555 1_555
H28L C38L 1_555 1_555
H29L C38L 1_555 1_555
H30L C38L 1_555 1_555
C39L C29L 1_555 1_555
H31L C39L 1_555 1_555
H32L C39L 1_555 1_555
H33L C39L 1_555 1_555
Cu3B O4M 1_555 1_555
Cu4B O3M 1_555 1_555
Cu5M N6M 1_555 1_555
Cu6M N3M 1_555 1_555
Cu7M N2M 1_555 1_555
O1M Cu2 1_555 1_555
O2M Cu1 1_555 1_555
O3M C20M 1_555 1_555
C1M O1M 1_555 1_555
O4M C20M 1_555 1_555
N1B Cu3B 1_555 1_555
C2M H1M 1_555 1_555
C3M C2M 1_555 1_555
C4M C3M 1_555 1_555
H2M C4M 1_555 1_555
C5M C3M 1_555 1_555
O6M C21M 1_555 1_555
O7M C21M 1_555 1_555
O8B Cu4B 1_555 1_555
C6M C2M 1_555 1_555
H3M C6M 1_555 1_555
C7M C1M 1_555 1_555
C8M C4M 1_555 1_555
H4M C8M 1_555 1_555
N2M N3M 1_555 1_555
N3M C16M 1_555 1_555
N4M Cu7M 1_555 1_555
C9M H5M 1_555 1_555
H6M C9M 1_555 1_555
H7M C9M 1_555 1_555
C10M H8M 1_555 1_555
C11M C18M 1_555 1_555
C12M C5M 1_555 1_555
C13M H9M 1_555 1_555
C14M H10M 1_555 1_555
H11M C14M 1_555 1_555
H12M C14M 1_555 1_555
C15M C13M 1_555 1_555
H13M C15M 1_555 1_555
N5M Cu6M 1_555 1_555
C16M C5M 1_555 1_555
C17M C10M 1_555 1_555
C18M H14M 1_555 1_555
C19M C11M 1_555 1_555
H15M C19M 1_555 1_555
C20M C17M 1_555 1_555
C21M C11M 1_555 1_555
C22M C19M 1_555 1_555
H16M C22M 1_555 1_555
N6M N4M 1_555 1_555
N7M Cu5M 1_555 1_555
C23M H17M 1_555 1_555
H18M C23M 1_555 1_555
H19M C23M 1_555 1_555
C24M N7M 1_555 1_555
C25M H20M 1_555 1_555
H21M C25M 1_555 1_555
H22M C25M 1_555 1_555
C26M C27M 1_555 1_555
C27M N4M 1_555 1_555
C28M N5M 1_555 1_555
C29M N6M 1_555 1_555
C30M C10M 1_555 1_555
H23M C30M 1_555 1_555
C31B H24B 1_555 1_555
C32M C31B 1_555 1_555
H25M C32M 1_555 1_555
C33M N1B 1_555 1_555
H26M C33M 1_555 1_555
C34M C24M 1_555 1_555
C35M C13M 1_555 1_555
C36M C18M 1_555 1_555
H27M C36M 1_555 1_555
C37M C22M 1_555 1_555
C38M C24M 1_555 1_555
H28M C38M 1_555 1_555
H29M C38M 1_555 1_555
H30M C38M 1_555 1_555
C39M C29M 1_555 1_555
H31M C39M 1_555 1_555
H32M C39M 1_555 1_555
H33M C39M 1_555 1_555
C32B C31B 1_555 1_555
H25B C32B 1_555 1_555
C33B N1B 1_555 1_555
H26B C33B 1_555 1_555
Cu3_2 O4L 1_555 1_555
Cu3A O7L 1_555 1_555
Cu3A_2 O7B 1_555 1_555
Cu3B_2 O4B 1_555 1_555
Cu3C O7 1_555 1_555
Cu3C_2 O7M 1_555 1_555
Cu4_2 O3L 1_555 1_555
Cu4A O6L 1_555 1_555
Cu4A_2 O6B 1_555 1_555
Cu4B_2 O3B 1_555 1_555
Cu4C O6 1_555 1_555
Cu4C_2 O6M 1_555 1_555
O3B_2 Cu4B 1_555 1_555
O3L_2 Cu4 1_555 1_555
O4B_2 Cu3B 1_555 1_555
O4L_2 Cu3 1_555 1_555
O6A Cu4 1_555 1_555
O6C Cu4B 1_555 1_555
O6N Cu4B 1_555 1_555
O6O Cu4 1_555 1_555
O7A Cu3 1_555 1_555
O7C Cu3B 1_555 1_555
O7N Cu3B 1_555 1_555
O7O Cu3 1_555 1_555
C7 C8 1_555 1_555
N2 C12 1_555 1_555
C9 C12 1_555 1_555
C14 C16 1_555 1_555
C15 C17 1_555 1_555
N5 N7 1_555 1_555
C23 C27 1_555 1_555
C25 C28 1_555 1_555
C26 C29 1_555 1_555
C26 C35 1_555 1_555
C28 C34 1_555 1_555
C30 C35 1_555 1_555
C32 C33 1_555 1_555
C34 C37 1_555 1_555
C36 C37 1_555 1_555
C32L C33L 1_555 1_555
O2B C1B 1_555 1_555
C6B C7B 1_555 1_555
C7B C8B 1_555 1_555
N2B C12B 1_555 1_555
C9B C12B 1_555 1_555
C14B C16B 1_555 1_555
C15B C17B 1_555 1_555
N5B N7B 1_555 1_555
C23B C27B 1_555 1_555
C25B C28B 1_555 1_555
C26B C29B 1_555 1_555
C26B C35B 1_555 1_555
C28B C34B 1_555 1_555
C30B C35B 1_555 1_555
C34B C37B 1_555 1_555
C36B C37B 1_555 1_555
O2L C1L 1_555 1_555
C6L C7L 1_555 1_555
C7L C8L 1_555 1_555
N2L C12L 1_555 1_555
C9L C12L 1_555 1_555
C14L C16L 1_555 1_555
C15L C17L 1_555 1_555
N5L N7L 1_555 1_555
C23L C27L 1_555 1_555
C25L C28L 1_555 1_555
C26L C29L 1_555 1_555
C26L C35L 1_555 1_555
C28L C34L 1_555 1_555
C30L C35L 1_555 1_555
C34L C37L 1_555 1_555
C36L C37L 1_555 1_555
O2M C1M 1_555 1_555
C6M C7M 1_555 1_555
C7M C8M 1_555 1_555
N2M C12M 1_555 1_555
C9M C12M 1_555 1_555
C14M C16M 1_555 1_555
C15M C17M 1_555 1_555
N5M N7M 1_555 1_555
C23M C27M 1_555 1_555
C25M C28M 1_555 1_555
C26M C29M 1_555 1_555
C26M C35M 1_555 1_555
C28M C34M 1_555 1_555
C30M C35M 1_555 1_555
C32M C33M 1_555 1_555
C34M C37M 1_555 1_555
C36M C37M 1_555 1_555
C32B C33B 1_555 1_555

#END
