
#######################################################################
#
#                 Cambridge Crystallographic Data Centre
#                                CCDC 
#
#######################################################################
#
# If this CIF has been generated from an entry in the Cambridge 
# Structural Database, then it will include bibliographic, chemical, 
# crystal, experimental, refinement or atomic coordinate data resulting 
# from the CCDC's data processing and validation procedures.
#
#######################################################################

data_JOZWIG01
_chemical_formula_moiety         'C264 H168 N12 O50 Zr22'
_symmetry_cell_setting           cubic
_symmetry_space_group_name_H-M   'P m -3 m'
_symmetry_Int_Tables_number      221
_space_group_name_Hall           '-P 4 2 3'
loop_
_symmetry_equiv_pos_site_id
_symmetry_equiv_pos_as_xyz
1 x,y,z
2 -y,x,z
3 -x,-y,z
4 y,-x,z
5 x,-z,y
6 x,-y,-z
7 x,z,-y
8 z,y,-x
9 -x,y,-z
10 -z,y,x
11 z,x,y
12 y,z,x
13 -y,-z,x
14 z,-x,-y
15 -y,z,-x
16 -z,-x,y
17 -z,x,-y
18 y,-z,-x
19 y,x,-z
20 -y,-x,-z
21 -x,z,y
22 -x,-z,-y
23 z,-y,x
24 -z,-y,-x
25 -x,-y,-z
26 y,-x,-z
27 x,y,-z
28 -y,x,-z
29 -x,z,-y
30 -x,y,z
31 -x,-z,y
32 -z,-y,x
33 x,-y,z
34 z,-y,-x
35 -z,-x,-y
36 -y,-z,-x
37 y,z,-x
38 -z,x,y
39 y,-z,x
40 z,x,-y
41 z,-x,y
42 -y,z,x
43 -y,-x,z
44 y,x,z
45 x,-z,-y
46 x,z,y
47 -z,y,-x
48 z,y,x
_cell_length_a                   25.43760(10)
_cell_length_b                   25.43760(10)
_cell_length_c                   25.43760(10)
_cell_angle_alpha                90
_cell_angle_beta                 90
_cell_angle_gamma                90
_cell_volume                     16459.9
loop_
_atom_site_label
_atom_site_type_symbol
_atom_site_fract_x
_atom_site_fract_y
_atom_site_fract_z
Zr1 Zr 0.09742(2) 1.0000 1.0000
O1 O 0.14053(7) 1.0000 0.92379(7)
O2 O 0.04799(13) 1.04799(13) 1.04799(13)
N1 N 0.5000 1.0000 0.5799(3)
C1 C 0.12409(10) 1.0000 0.87591(10)
C2 C 0.16578(11) 1.0000 0.83422(11)
C3 C 0.2163(2) 1.0000 0.8465(2)
H1 H 0.2260 1.0000 0.8826
C4 C 0.2566(3) 1.0000 0.8083(3)
H2 H 0.2925 1.0000 0.8188
C5 C 0.24359(18) 1.0000 0.75641(18)
C6 C 0.2843(2) 1.0000 0.7157(2)
C7 C 0.3232(4) 0.9616(4) 0.7151(4)
H3 H 0.3250 0.9380 0.7441
C8 C 0.3624(4) 0.9551(5) 0.6717(4)
H4 H 0.3846 0.9254 0.6671
C9 C 0.3614(2) 1.0000 0.6386(2)
C10 C 0.4040(2) 1.0000 0.5960(2)
C11 C 0.4567(2) 1.0000 0.6125(2)
C12 C 0.4738(2) 1.0000 0.6650(2)
H5 H 0.4518 1.0000 0.6952
O1B O 0.85947(7) 1.0000 0.92379(7)
C1B C 0.87591(10) 1.0000 0.87591(10)
C2B C 0.83422(11) 1.0000 0.83422(11)
C3B C 0.7837(2) 1.0000 0.8465(2)
H1B H 0.7740 1.0000 0.8826
C4B C 0.7434(3) 1.0000 0.8083(3)
H2B H 0.7075 1.0000 0.8188
C5B C 0.75641(18) 1.0000 0.75641(18)
C6B C 0.7157(2) 1.0000 0.7157(2)
C7B C 0.6768(4) 1.0384(4) 0.7151(4)
H3B H 0.6750 1.0620 0.7441
C8B C 0.6376(4) 1.0449(5) 0.6717(4)
H4B H 0.6154 1.0746 0.6671
C9B C 0.6386(2) 1.0000 0.6386(2)
C10B C 0.5960(2) 1.0000 0.5960(2)
C11B C 0.5433(2) 1.0000 0.6125(2)
C12B C 0.5262(2) 1.0000 0.6650(2)
H5B H 0.5482 1.0000 0.6952
O1W O 0.07621(7) 1.0000 0.85947(7)
N1I N 0.4201(3) 1.0000 0.5000
C3W C 0.1535(2) 1.0000 0.7837(2)
H1W H 0.1174 1.0000 0.7740
C4W C 0.1917(3) 1.0000 0.7434(3)
H2W H 0.1812 1.0000 0.7075
C7W C 0.2849(4) 1.0384(4) 0.6768(4)
H3W H 0.2559 1.0620 0.6750
C8W C 0.3283(4) 1.0449(5) 0.6376(4)
H4W H 0.3329 1.0746 0.6154
C11W C 0.3875(2) 1.0000 0.5433(2)
C12W C 0.3350(2) 1.0000 0.5262(2)
H5W H 0.3048 1.0000 0.5482
C7CA C 0.6768(4) 0.9616(4) 0.7151(4)
H3CA H 0.6750 0.9380 0.7441
C8CA C 0.6376(4) 0.9551(5) 0.6717(4)
H4CA H 0.6154 0.9254 0.6671
C7FA C 0.3232(4) 1.0384(4) 0.7151(4)
H3FA H 0.3250 1.0620 0.7441
C8FA C 0.3624(4) 1.0449(5) 0.6717(4)
H4FA H 0.3846 1.0746 0.6671
C7TA C 0.2849(4) 0.9616(4) 0.6768(4)
H3TA H 0.2559 0.9380 0.6750
C8TA C 0.3283(4) 0.9551(5) 0.6376(4)
H4TA H 0.3329 0.9254 0.6154
O1G O 0.92379(7) 1.0000 0.85947(7)
N1G N 0.5799(3) 1.0000 0.5000
C3G C 0.8465(2) 1.0000 0.7837(2)
H1G H 0.8826 1.0000 0.7740
C4G C 0.8083(3) 1.0000 0.7434(3)
H2G H 0.8188 1.0000 0.7075
C7G C 0.7151(4) 0.9616(4) 0.6768(4)
H3G H 0.7441 0.9380 0.6750
C8G C 0.6717(4) 0.9551(5) 0.6376(4)
H4G H 0.6671 0.9254 0.6154
C11G C 0.6125(2) 1.0000 0.5433(2)
C12G C 0.6650(2) 1.0000 0.5262(2)
H5G H 0.6952 1.0000 0.5482
O1I O 0.07621(7) 1.0000 0.14053(7)
C1E C 0.12409(10) 1.0000 0.12409(10)
C2E C 0.16578(11) 1.0000 0.16578(11)
C3I C 0.1535(2) 1.0000 0.2163(2)
H1I H 0.1174 1.0000 0.2260
C4I C 0.1917(3) 1.0000 0.2566(3)
H2I H 0.1812 1.0000 0.2925
C5E C 0.24359(18) 1.0000 0.24359(18)
C6E C 0.2843(2) 1.0000 0.2843(2)
C7I C 0.2849(4) 0.9616(4) 0.3232(4)
H3I H 0.2559 0.9380 0.3250
C8I C 0.3283(4) 0.9551(5) 0.3624(4)
H4I H 0.3329 0.9254 0.3846
C9E C 0.3614(2) 1.0000 0.3614(2)
C10E C 0.4040(2) 1.0000 0.4040(2)
C11I C 0.3875(2) 1.0000 0.4567(2)
C12I C 0.3350(2) 1.0000 0.4738(2)
H5I H 0.3048 1.0000 0.4518
O1V O 0.92379(7) 1.0000 0.14053(7)
C1H C 0.87591(10) 1.0000 0.12409(10)
C2H C 0.83422(11) 1.0000 0.16578(11)
C3V C 0.8465(2) 1.0000 0.2163(2)
H1V H 0.8826 1.0000 0.2260
C4V C 0.8083(3) 1.0000 0.2566(3)
H2V H 0.8188 1.0000 0.2925
C5H C 0.75641(18) 1.0000 0.24359(18)
C6H C 0.7157(2) 1.0000 0.2843(2)
C7V C 0.7151(4) 1.0384(4) 0.3232(4)
H3V H 0.7441 1.0620 0.3250
C8V C 0.6717(4) 1.0449(5) 0.3624(4)
H4V H 0.6671 1.0746 0.3846
C9H C 0.6386(2) 1.0000 0.3614(2)
C10H C 0.5960(2) 1.0000 0.4040(2)
C11V C 0.6125(2) 1.0000 0.4567(2)
C12V C 0.6650(2) 1.0000 0.4738(2)
H5V H 0.6952 1.0000 0.4518
C7EA C 0.2849(4) 1.0384(4) 0.3232(4)
H3EA H 0.2559 1.0620 0.3250
C8EA C 0.3283(4) 1.0449(5) 0.3624(4)
H4EA H 0.3329 1.0746 0.3846
C7GA C 0.7151(4) 1.0384(4) 0.6768(4)
H3GA H 0.7441 1.0620 0.6750
C8GA C 0.6717(4) 1.0449(5) 0.6376(4)
H4GA H 0.6671 1.0746 0.6154
C7UA C 0.7151(4) 0.9616(4) 0.3232(4)
H3UA H 0.7441 0.9380 0.3250
C8UA C 0.6717(4) 0.9551(5) 0.3624(4)
H4UA H 0.6671 0.9254 0.3846
O1E O 0.14053(7) 1.0000 0.07621(7)
N1E N 0.5000 1.0000 0.4201(3)
C3E C 0.2163(2) 1.0000 0.1535(2)
H1E H 0.2260 1.0000 0.1174
C4E C 0.2566(3) 1.0000 0.1917(3)
H2E H 0.2925 1.0000 0.1812
C7E C 0.3232(4) 1.0384(4) 0.2849(4)
H3E H 0.3250 1.0620 0.2559
C8E C 0.3624(4) 1.0449(5) 0.3283(4)
H4E H 0.3846 1.0746 0.3329
C11E C 0.4567(2) 1.0000 0.3875(2)
C12E C 0.4738(2) 1.0000 0.3350(2)
H5E H 0.4518 1.0000 0.3048
O1H O 0.85947(7) 1.0000 0.07621(7)
C3H C 0.7837(2) 1.0000 0.1535(2)
H1H H 0.7740 1.0000 0.1174
C4H C 0.7434(3) 1.0000 0.1917(3)
H2H H 0.7075 1.0000 0.1812
C7H C 0.6768(4) 0.9616(4) 0.2849(4)
H3H H 0.6750 0.9380 0.2559
C8H C 0.6376(4) 0.9551(5) 0.3283(4)
H4H H 0.6154 0.9254 0.3329
C11H C 0.5433(2) 1.0000 0.3875(2)
C12H C 0.5262(2) 1.0000 0.3350(2)
H5H H 0.5482 1.0000 0.3048
C7X C 0.6768(4) 1.0384(4) 0.2849(4)
H3X H 0.6750 1.0620 0.2559
C8X C 0.6376(4) 1.0449(5) 0.3283(4)
H4X H 0.6154 1.0746 0.3329
C7Z C 0.3232(4) 0.9616(4) 0.2849(4)
H3Z H 0.3250 0.9380 0.2559
C8Z C 0.3624(4) 0.9551(5) 0.3283(4)
H4Z H 0.3846 0.9254 0.3329
Zr1A Zr 0.0000 1.09742(2) 1.0000
O1A O 0.0000 1.14053(7) 0.92379(7)
O2A O -0.04799(13) 1.04799(13) 1.04799(13)
N1A N 0.0000 1.5000 0.5799(3)
C1A C 0.0000 1.12409(10) 0.87591(10)
C2A C 0.0000 1.16578(11) 0.83422(11)
C3A C 0.0000 1.2163(2) 0.8465(2)
H1A H 0.0000 1.2260 0.8826
C4A C 0.0000 1.2566(3) 0.8083(3)
H2A H 0.0000 1.2925 0.8188
C5A C 0.0000 1.24359(18) 0.75641(18)
C6A C 0.0000 1.2843(2) 0.7157(2)
C7A C 0.0384(4) 1.3232(4) 0.7151(4)
H3A H 0.0620 1.3250 0.7441
C8A C 0.0449(5) 1.3624(4) 0.6717(4)
H4A H 0.0746 1.3846 0.6671
C9A C 0.0000 1.3614(2) 0.6386(2)
C10A C 0.0000 1.4040(2) 0.5960(2)
C11A C 0.0000 1.4567(2) 0.6125(2)
C12A C 0.0000 1.4738(2) 0.6650(2)
H5A H 0.0000 1.4518 0.6952
O1C O 0.0000 1.85947(7) 0.92379(7)
C1C C 0.0000 1.87591(10) 0.87591(10)
C2C C 0.0000 1.83422(11) 0.83422(11)
C3C C 0.0000 1.7837(2) 0.8465(2)
H1C H 0.0000 1.7740 0.8826
C4C C 0.0000 1.7434(3) 0.8083(3)
H2C H 0.0000 1.7075 0.8188
C5C C 0.0000 1.75641(18) 0.75641(18)
C6C C 0.0000 1.7157(2) 0.7157(2)
C7C C -0.0384(4) 1.6768(4) 0.7151(4)
H3C H -0.0620 1.6750 0.7441
C8C C -0.0449(5) 1.6376(4) 0.6717(4)
H4C H -0.0746 1.6154 0.6671
C9C C 0.0000 1.6386(2) 0.6386(2)
C10C C 0.0000 1.5960(2) 0.5960(2)
C11C C 0.0000 1.5433(2) 0.6125(2)
C12C C 0.0000 1.5262(2) 0.6650(2)
H5C H 0.0000 1.5482 0.6952
O1Q O 0.0000 1.07621(7) 0.85947(7)
N1L N 0.0000 1.4201(3) 0.5000
C3Q C 0.0000 1.1535(2) 0.7837(2)
H1Q H 0.0000 1.1174 0.7740
C4Q C 0.0000 1.1917(3) 0.7434(3)
H2Q H 0.0000 1.1812 0.7075
C7Q C -0.0384(4) 1.2849(4) 0.6768(4)
H3Q H -0.0620 1.2559 0.6750
C8Q C -0.0449(5) 1.3283(4) 0.6376(4)
H4Q H -0.0746 1.3329 0.6154
C11Q C 0.0000 1.3875(2) 0.5433(2)
C12Q C 0.0000 1.3350(2) 0.5262(2)
H5Q H 0.0000 1.3048 0.5482
C7PA C 0.0384(4) 1.6768(4) 0.7151(4)
H3PA H 0.0620 1.6750 0.7441
C8PA C 0.0449(5) 1.6376(4) 0.6717(4)
H4PA H 0.0746 1.6154 0.6671
C7QA C -0.0384(4) 1.3232(4) 0.7151(4)
H3QA H -0.0620 1.3250 0.7441
C8QA C -0.0449(5) 1.3624(4) 0.6717(4)
H4QA H -0.0746 1.3846 0.6671
C7IA C 0.0384(4) 1.2849(4) 0.6768(4)
H3IA H 0.0620 1.2559 0.6750
C8IA C 0.0449(5) 1.3283(4) 0.6376(4)
H4IA H 0.0746 1.3329 0.6154
O1N O 0.0000 1.92379(7) 0.85947(7)
N1K N 0.0000 1.5799(3) 0.5000
C3N C 0.0000 1.8465(2) 0.7837(2)
H1N H 0.0000 1.8826 0.7740
C4N C 0.0000 1.8083(3) 0.7434(3)
H2N H 0.0000 1.8188 0.7075
C7N C 0.0384(4) 1.7151(4) 0.6768(4)
H3N H 0.0620 1.7441 0.6750
C8N C 0.0449(5) 1.6717(4) 0.6376(4)
H4N H 0.0746 1.6671 0.6154
C11N C 0.0000 1.6125(2) 0.5433(2)
C12N C 0.0000 1.6650(2) 0.5262(2)
H5N H -0.0000 1.6952 0.5482
O1L O 0.0000 1.07621(7) 0.14053(7)
C1L C 0.0000 1.12409(10) 0.12409(10)
C2L C 0.0000 1.16578(11) 0.16578(11)
C3L C 0.0000 1.1535(2) 0.2163(2)
H1L H 0.0000 1.1174 0.2260
C4L C 0.0000 1.1917(3) 0.2566(3)
H2L H 0.0000 1.1812 0.2925
C5L C 0.0000 1.24359(18) 0.24359(18)
C6L C 0.0000 1.2843(2) 0.2843(2)
C7L C 0.0384(4) 1.2849(4) 0.3232(4)
H3L H 0.0620 1.2559 0.3250
C8L C 0.0449(5) 1.3283(4) 0.3624(4)
H4L H 0.0746 1.3329 0.3846
C9L C 0.0000 1.3614(2) 0.3614(2)
C10L C 0.0000 1.4040(2) 0.4040(2)
C11L C 0.0000 1.3875(2) 0.4567(2)
C12L C 0.0000 1.3350(2) 0.4738(2)
H5L H 0.0000 1.3048 0.4518
O1K O 0.0000 1.92379(7) 0.14053(7)
C1K C 0.0000 1.87591(10) 0.12409(10)
C2K C 0.0000 1.83422(11) 0.16578(11)
C3K C 0.0000 1.8465(2) 0.2163(2)
H1K H 0.0000 1.8826 0.2260
C4K C 0.0000 1.8083(3) 0.2566(3)
H2K H 0.0000 1.8188 0.2925
C5K C 0.0000 1.75641(18) 0.24359(18)
C6K C 0.0000 1.7157(2) 0.2843(2)
C7K C -0.0384(4) 1.7151(4) 0.3232(4)
H3K H -0.0620 1.7441 0.3250
C8K C -0.0449(5) 1.6717(4) 0.3624(4)
H4K H -0.0746 1.6671 0.3846
C9K C 0.0000 1.6386(2) 0.3614(2)
C10K C 0.0000 1.5960(2) 0.4040(2)
C11K C 0.0000 1.6125(2) 0.4567(2)
C12K C 0.0000 1.6650(2) 0.4738(2)
H5K H 0.0000 1.6952 0.4518
C7LA C -0.0384(4) 1.2849(4) 0.3232(4)
H3LA H -0.0620 1.2559 0.3250
C8LA C -0.0449(5) 1.3283(4) 0.3624(4)
H4LA H -0.0746 1.3329 0.3846
C7JA C -0.0384(4) 1.7151(4) 0.6768(4)
H3JA H -0.0620 1.7441 0.6750
C8JA C -0.0449(5) 1.6717(4) 0.6376(4)
H4JA H -0.0746 1.6671 0.6154
C7OA C 0.0384(4) 1.7151(4) 0.3232(4)
H3OA H 0.0620 1.7441 0.3250
C8OA C 0.0449(5) 1.6717(4) 0.3624(4)
H4OA H 0.0746 1.6671 0.3846
O1R O 0.0000 1.14053(7) 0.07621(7)
N1R N 0.0000 1.5000 0.4201(3)
C3R C 0.0000 1.2163(2) 0.1535(2)
H1R H 0.0000 1.2260 0.1174
C4R C 0.0000 1.2566(3) 0.1917(3)
H2R H 0.0000 1.2925 0.1812
C7R C -0.0384(4) 1.3232(4) 0.2849(4)
H3R H -0.0620 1.3250 0.2559
C8R C -0.0449(5) 1.3624(4) 0.3283(4)
H4R H -0.0746 1.3846 0.3329
C11R C 0.0000 1.4567(2) 0.3875(2)
C12R C 0.0000 1.4738(2) 0.3350(2)
H5R H 0.0000 1.4518 0.3048
O1S O 0.0000 1.85947(7) 0.07621(7)
C3S C 0.0000 1.7837(2) 0.1535(2)
H1S H 0.0000 1.7740 0.1174
C4S C 0.0000 1.7434(3) 0.1917(3)
H2S H 0.0000 1.7075 0.1812
C7S C 0.0384(4) 1.6768(4) 0.2849(4)
H3S H 0.0620 1.6750 0.2559
C8S C 0.0449(5) 1.6376(4) 0.3283(4)
H4S H 0.0746 1.6154 0.3329
C11S C 0.0000 1.5433(2) 0.3875(2)
C12S C 0.0000 1.5262(2) 0.3350(2)
H5S H 0.0000 1.5482 0.3048
C7Y C -0.0384(4) 1.6768(4) 0.2849(4)
H3Y H -0.0620 1.6750 0.2559
C8Y C -0.0449(5) 1.6376(4) 0.3283(4)
H4Y H -0.0746 1.6154 0.3329
C7AA C 0.0384(4) 1.3232(4) 0.2849(4)
H3AA H 0.0620 1.3250 0.2559
C8AA C 0.0449(5) 1.3624(4) 0.3283(4)
H4AA H 0.0746 1.3846 0.3329
Zr1B Zr -0.09742(2) 1.0000 1.0000
O1B_2 O -0.14053(7) 1.0000 0.92379(7)
O2B O -0.04799(13) 0.95201(13) 1.04799(13)
N1_2 N -0.5000 1.0000 0.5799(3)
C1B_2 C -0.12409(10) 1.0000 0.87591(10)
C2B_2 C -0.16578(11) 1.0000 0.83422(11)
C3B_2 C -0.2163(2) 1.0000 0.8465(2)
H1B_2 H -0.2260 1.0000 0.8826
C4B_2 C -0.2566(3) 1.0000 0.8083(3)
H2B_2 H -0.2925 1.0000 0.8188
C5B_2 C -0.24359(18) 1.0000 0.75641(18)
C6B_2 C -0.2843(2) 1.0000 0.7157(2)
C7B_2 C -0.3232(4) 1.0384(4) 0.7151(4)
H3B_2 H -0.3250 1.0620 0.7441
C8B_2 C -0.3624(4) 1.0449(5) 0.6717(4)
H4B_2 H -0.3846 1.0746 0.6671
C9B_2 C -0.3614(2) 1.0000 0.6386(2)
C10B_2 C -0.4040(2) 1.0000 0.5960(2)
C11B_2 C -0.4567(2) 1.0000 0.6125(2)
C12B_2 C -0.4738(2) 1.0000 0.6650(2)
H5B_2 H -0.4518 1.0000 0.6952
O1_2 O -0.85947(7) 1.0000 0.92379(7)
C1_2 C -0.87591(10) 1.0000 0.87591(10)
C2_2 C -0.83422(11) 1.0000 0.83422(11)
C3_2 C -0.7837(2) 1.0000 0.8465(2)
H1_2 H -0.7740 1.0000 0.8826
C4_2 C -0.7434(3) 1.0000 0.8083(3)
H2_2 H -0.7075 1.0000 0.8188
C5_2 C -0.75641(18) 1.0000 0.75641(18)
C6_2 C -0.7157(2) 1.0000 0.7157(2)
C7_2 C -0.6768(4) 0.9616(4) 0.7151(4)
H3_2 H -0.6750 0.9380 0.7441
C8_2 C -0.6376(4) 0.9551(5) 0.6717(4)
H4_2 H -0.6154 0.9254 0.6671
C9_2 C -0.6386(2) 1.0000 0.6386(2)
C10_2 C -0.5960(2) 1.0000 0.5960(2)
C11_2 C -0.5433(2) 1.0000 0.6125(2)
C12_2 C -0.5262(2) 1.0000 0.6650(2)
H5_2 H -0.5482 1.0000 0.6952
O1G_2 O -0.07621(7) 1.0000 0.85947(7)
N1G_2 N -0.4201(3) 1.0000 0.5000
C3G_2 C -0.1535(2) 1.0000 0.7837(2)
H1G_2 H -0.1174 1.0000 0.7740
C4G_2 C -0.1917(3) 1.0000 0.7434(3)
H2G_2 H -0.1812 1.0000 0.7075
C7G_2 C -0.2849(4) 0.9616(4) 0.6768(4)
H3G_2 H -0.2559 0.9380 0.6750
C8G_2 C -0.3283(4) 0.9551(5) 0.6376(4)
H4G_2 H -0.3329 0.9254 0.6154
C11G_2 C -0.3875(2) 1.0000 0.5433(2)
C12G_2 C -0.3350(2) 1.0000 0.5262(2)
H5G_2 H -0.3048 1.0000 0.5482
C7FA_2 C -0.6768(4) 1.0384(4) 0.7151(4)
H3FA_2 H -0.6750 1.0620 0.7441
C8FA_2 C -0.6376(4) 1.0449(5) 0.6717(4)
H4FA_2 H -0.6154 1.0746 0.6671
C7CA_2 C -0.3232(4) 0.9616(4) 0.7151(4)
H3CA_2 H -0.3250 0.9380 0.7441
C8CA_2 C -0.3624(4) 0.9551(5) 0.6717(4)
H4CA_2 H -0.3846 0.9254 0.6671
C7GA_2 C -0.2849(4) 1.0384(4) 0.6768(4)
H3GA_2 H -0.2559 1.0620 0.6750
C8GA_2 C -0.3283(4) 1.0449(5) 0.6376(4)
H4GA_2 H -0.3329 1.0746 0.6154
O1W_2 O -0.92379(7) 1.0000 0.85947(7)
N1I_2 N -0.5799(3) 1.0000 0.5000
C3W_2 C -0.8465(2) 1.0000 0.7837(2)
H1W_2 H -0.8826 1.0000 0.7740
C4W_2 C -0.8083(3) 1.0000 0.7434(3)
H2W_2 H -0.8188 1.0000 0.7075
C7W_2 C -0.7151(4) 1.0384(4) 0.6768(4)
H3W_2 H -0.7441 1.0620 0.6750
C8W_2 C -0.6717(4) 1.0449(5) 0.6376(4)
H4W_2 H -0.6671 1.0746 0.6154
C11W_2 C -0.6125(2) 1.0000 0.5433(2)
C12W_2 C -0.6650(2) 1.0000 0.5262(2)
H5W_2 H -0.6952 1.0000 0.5482
O1V_2 O -0.07621(7) 1.0000 0.14053(7)
C1H_2 C -0.12409(10) 1.0000 0.12409(10)
C2H_2 C -0.16578(11) 1.0000 0.16578(11)
C3V_2 C -0.1535(2) 1.0000 0.2163(2)
H1V_2 H -0.1174 1.0000 0.2260
C4V_2 C -0.1917(3) 1.0000 0.2566(3)
H2V_2 H -0.1812 1.0000 0.2925
C5H_2 C -0.24359(18) 1.0000 0.24359(18)
C6H_2 C -0.2843(2) 1.0000 0.2843(2)
C7V_2 C -0.2849(4) 1.0384(4) 0.3232(4)
H3V_2 H -0.2559 1.0620 0.3250
C8V_2 C -0.3283(4) 1.0449(5) 0.3624(4)
H4V_2 H -0.3329 1.0746 0.3846
C9H_2 C -0.3614(2) 1.0000 0.3614(2)
C10H_2 C -0.4040(2) 1.0000 0.4040(2)
C11V_2 C -0.3875(2) 1.0000 0.4567(2)
C12V_2 C -0.3350(2) 1.0000 0.4738(2)
H5V_2 H -0.3048 1.0000 0.4518
O1I_2 O -0.92379(7) 1.0000 0.14053(7)
C1E_2 C -0.87591(10) 1.0000 0.12409(10)
C2E_2 C -0.83422(11) 1.0000 0.16578(11)
C3I_2 C -0.8465(2) 1.0000 0.2163(2)
H1I_2 H -0.8826 1.0000 0.2260
C4I_2 C -0.8083(3) 1.0000 0.2566(3)
H2I_2 H -0.8188 1.0000 0.2925
C5E_2 C -0.75641(18) 1.0000 0.24359(18)
C6E_2 C -0.7157(2) 1.0000 0.2843(2)
C7I_2 C -0.7151(4) 0.9616(4) 0.3232(4)
H3I_2 H -0.7441 0.9380 0.3250
C8I_2 C -0.6717(4) 0.9551(5) 0.3624(4)
H4I_2 H -0.6671 0.9254 0.3846
C9E_2 C -0.6386(2) 1.0000 0.3614(2)
C10E_2 C -0.5960(2) 1.0000 0.4040(2)
C11I_2 C -0.6125(2) 1.0000 0.4567(2)
C12I_2 C -0.6650(2) 1.0000 0.4738(2)
H5I_2 H -0.6952 1.0000 0.4518
C7UA_2 C -0.2849(4) 0.9616(4) 0.3232(4)
H3UA_2 H -0.2559 0.9380 0.3250
C8UA_2 C -0.3283(4) 0.9551(5) 0.3624(4)
H4UA_2 H -0.3329 0.9254 0.3846
C7TA_2 C -0.7151(4) 0.9616(4) 0.6768(4)
H3TA_2 H -0.7441 0.9380 0.6750
C8TA_2 C -0.6717(4) 0.9551(5) 0.6376(4)
H4TA_2 H -0.6671 0.9254 0.6154
C7EA_2 C -0.7151(4) 1.0384(4) 0.3232(4)
H3EA_2 H -0.7441 1.0620 0.3250
C8EA_2 C -0.6717(4) 1.0449(5) 0.3624(4)
H4EA_2 H -0.6671 1.0746 0.3846
O1H_2 O -0.14053(7) 1.0000 0.07621(7)
N1E_2 N -0.5000 1.0000 0.4201(3)
C3H_2 C -0.2163(2) 1.0000 0.1535(2)
H1H_2 H -0.2260 1.0000 0.1174
C4H_2 C -0.2566(3) 1.0000 0.1917(3)
H2H_2 H -0.2925 1.0000 0.1812
C7H_2 C -0.3232(4) 0.9616(4) 0.2849(4)
H3H_2 H -0.3250 0.9380 0.2559
C8H_2 C -0.3624(4) 0.9551(5) 0.3283(4)
H4H_2 H -0.3846 0.9254 0.3329
C11H_2 C -0.4567(2) 1.0000 0.3875(2)
C12H_2 C -0.4738(2) 1.0000 0.3350(2)
H5H_2 H -0.4518 1.0000 0.3048
O1E_2 O -0.85947(7) 1.0000 0.07621(7)
C3E_2 C -0.7837(2) 1.0000 0.1535(2)
H1E_2 H -0.7740 1.0000 0.1174
C4E_2 C -0.7434(3) 1.0000 0.1917(3)
H2E_2 H -0.7075 1.0000 0.1812
C7E_2 C -0.6768(4) 1.0384(4) 0.2849(4)
H3E_2 H -0.6750 1.0620 0.2559
C8E_2 C -0.6376(4) 1.0449(5) 0.3283(4)
H4E_2 H -0.6154 1.0746 0.3329
C11E_2 C -0.5433(2) 1.0000 0.3875(2)
C12E_2 C -0.5262(2) 1.0000 0.3350(2)
H5E_2 H -0.5482 1.0000 0.3048
C7Z_2 C -0.6768(4) 0.9616(4) 0.2849(4)
H3Z_2 H -0.6750 0.9380 0.2559
C8Z_2 C -0.6376(4) 0.9551(5) 0.3283(4)
H4Z_2 H -0.6154 0.9254 0.3329
C7X_2 C -0.3232(4) 1.0384(4) 0.2849(4)
H3X_2 H -0.3250 1.0620 0.2559
C8X_2 C -0.3624(4) 1.0449(5) 0.3283(4)
H4X_2 H -0.3846 1.0746 0.3329
Zr1C Zr 0.0000 0.90258(2) 1.0000
O2C O 0.04799(13) 0.95201(13) 1.04799(13)
O2F O 0.04799(13) 1.04799(13) 0.95201(13)
Zr1I Zr 0.0000 1.0000 1.09742(2)
Zr1G Zr 0.0000 1.0000 0.90258(2)
O2S O -0.04799(13) 0.95201(13) 0.95201(13)
O2E O 0.04799(13) 0.95201(13) 0.95201(13)
O2H O -0.04799(13) 1.04799(13) 0.95201(13)
Zr1_2 Zr -0.90258(2) 1.0000 0.0000
Zr1_3 Zr -0.90258(2) 1.0000 1.0000
Zr1_4 Zr 0.09742(2) 1.0000 0.0000
Zr1A_2 Zr 0.0000 1.09742(2) 0.0000
Zr1B_2 Zr -0.09742(2) 1.0000 0.0000
Zr1B_3 Zr 0.90258(2) 1.0000 0.0000
Zr1B_4 Zr 0.90258(2) 1.0000 1.0000
Zr1C_2 Zr 0.0000 1.90258(2) 0.0000
Zr1C_3 Zr 0.0000 1.90258(2) 1.0000
Zr1G_2 Zr -1.0000 1.0000 0.90258(2)
Zr1G_3 Zr 0.0000 2.0000 0.90258(2)
Zr1G_4 Zr 1.0000 1.0000 0.90258(2)
Zr1I_2 Zr -1.0000 1.0000 0.09742(2)
Zr1I_3 Zr 0.0000 1.0000 0.09742(2)
Zr1I_4 Zr 0.0000 2.0000 0.09742(2)
Zr1I_5 Zr 1.0000 1.0000 0.09742(2)
O1C_2 O 0.0000 0.85947(7) 0.92379(7)
O1D O 0.14053(7) 1.07621(7) 1.0000
O1E_3 O 0.14053(7) 1.0000 1.07621(7)
O1F O 0.14053(7) 0.92379(7) 1.0000
O1H_3 O -0.14053(7) 1.0000 1.07621(7)
O1I_3 O 0.07621(7) 1.0000 1.14053(7)
O1J O -0.07621(7) 1.14053(7) 1.0000
O1K_2 O 0.0000 0.92379(7) 1.14053(7)
O1L_2 O 0.0000 1.07621(7) 1.14053(7)
O1M O -0.07621(7) 0.85947(7) 1.0000
O1N_2 O 0.0000 0.92379(7) 0.85947(7)
O1O O 0.07621(7) 0.85947(7) 1.0000
O1P O 0.07621(7) 1.14053(7) 1.0000
O1R_2 O 0.0000 1.14053(7) 1.07621(7)
O1S_2 O 0.0000 0.85947(7) 1.07621(7)
O1T O -0.14053(7) 0.92379(7) 1.0000
O1U O -0.14053(7) 1.07621(7) 1.0000
O1V_3 O -0.07621(7) 1.0000 1.14053(7)
loop_
_geom_bond_atom_site_label_1
_geom_bond_atom_site_label_2
_geom_bond_site_symmetry_1
_geom_bond_site_symmetry_2
Zr1 O1 1_555 1_555
O1 C1 1_555 1_555
O2 Zr1 1_555 1_555
N1 C11 1_555 1_555
C1 C2 1_555 1_555
C2 C3 1_555 1_555
C3 H1 1_555 1_555
C4 C3 1_555 1_555
H2 C4 1_555 1_555
C5 C4 1_555 1_555
C6 C5 1_555 1_555
C7 C6 1_555 1_555
H3 C7 1_555 1_555
C8 C7 1_555 1_555
H4 C8 1_555 1_555
C9 C8 1_555 1_555
C10 C9 1_555 1_555
C11 C10 1_555 1_555
C12 C11 1_555 1_555
H5 C12 1_555 1_555
O1B C1B 1_555 1_555
C1B C2B 1_555 1_555
C2B C3B 1_555 1_555
C3B H1B 1_555 1_555
C4B C3B 1_555 1_555
H2B C4B 1_555 1_555
C5B C4B 1_555 1_555
C6B C5B 1_555 1_555
C7B C6B 1_555 1_555
H3B C7B 1_555 1_555
C8B C7B 1_555 1_555
H4B C8B 1_555 1_555
C9B C8B 1_555 1_555
C10B C9B 1_555 1_555
C11B N1 1_555 1_555
C12B C12 1_555 1_555
H5B C12B 1_555 1_555
O1W C1 1_555 1_555
N1I C11W 1_555 1_555
C3W C2 1_555 1_555
H1W C3W 1_555 1_555
C4W C5 1_555 1_555
H2W C4W 1_555 1_555
C7W C6 1_555 1_555
H3W C7W 1_555 1_555
C8W C9 1_555 1_555
H4W C8W 1_555 1_555
C11W C10 1_555 1_555
C12W C11W 1_555 1_555
H5W C12W 1_555 1_555
C7CA C6B 1_555 1_555
H3CA C7CA 1_555 1_555
C8CA C9B 1_555 1_555
H4CA C8CA 1_555 1_555
C7FA C6 1_555 1_555
H3FA C7FA 1_555 1_555
C8FA C9 1_555 1_555
H4FA C8FA 1_555 1_555
C7TA C6 1_555 1_555
H3TA C7TA 1_555 1_555
C8TA C8 1_555 1_555
H4TA C8TA 1_555 1_555
O1G C1B 1_555 1_555
N1G C11G 1_555 1_555
C3G C2B 1_555 1_555
H1G C3G 1_555 1_555
C4G C5B 1_555 1_555
H2G C4G 1_555 1_555
C7G C6B 1_555 1_555
H3G C7G 1_555 1_555
C8G C9B 1_555 1_555
H4G C8G 1_555 1_555
C11G C10B 1_555 1_555
C12G C11G 1_555 1_555
H5G C12G 1_555 1_555
O1I C1E 1_555 1_555
C1E C2E 1_555 1_555
C2E C3I 1_555 1_555
C3I H1I 1_555 1_555
C4I C3I 1_555 1_555
H2I C4I 1_555 1_555
C5E C4I 1_555 1_555
C6E C5E 1_555 1_555
C7I C6E 1_555 1_555
H3I C7I 1_555 1_555
C8I C7I 1_555 1_555
H4I C8I 1_555 1_555
C9E C8I 1_555 1_555
C10E C9E 1_555 1_555
C11I N1I 1_555 1_555
C12I C12W 1_555 1_555
H5I C12I 1_555 1_555
O1V C1H 1_555 1_555
C1H C2H 1_555 1_555
C2H C3V 1_555 1_555
C3V H1V 1_555 1_555
C4V C3V 1_555 1_555
H2V C4V 1_555 1_555
C5H C4V 1_555 1_555
C6H C5H 1_555 1_555
C7V C6H 1_555 1_555
H3V C7V 1_555 1_555
C8V C7V 1_555 1_555
H4V C8V 1_555 1_555
C9H C8V 1_555 1_555
C10H C9H 1_555 1_555
C11V N1G 1_555 1_555
C12V C12G 1_555 1_555
H5V C12V 1_555 1_555
C7EA C6E 1_555 1_555
H3EA C7EA 1_555 1_555
C8EA C9E 1_555 1_555
H4EA C8EA 1_555 1_555
C7GA C6B 1_555 1_555
H3GA C7GA 1_555 1_555
C8GA C8B 1_555 1_555
H4GA C8GA 1_555 1_555
C7UA C6H 1_555 1_555
H3UA C7UA 1_555 1_555
C8UA C9H 1_555 1_555
H4UA C8UA 1_555 1_555
O1E C1E 1_555 1_555
N1E C11E 1_555 1_555
C3E C2E 1_555 1_555
H1E C3E 1_555 1_555
C4E C5E 1_555 1_555
H2E C4E 1_555 1_555
C7E C6E 1_555 1_555
H3E C7E 1_555 1_555
C8E C9E 1_555 1_555
H4E C8E 1_555 1_555
C11E C10E 1_555 1_555
C12E C11E 1_555 1_555
H5E C12E 1_555 1_555
O1H C1H 1_555 1_555
C3H C2H 1_555 1_555
H1H C3H 1_555 1_555
C4H C5H 1_555 1_555
H2H C4H 1_555 1_555
C7H C6H 1_555 1_555
H3H C7H 1_555 1_555
C8H C9H 1_555 1_555
H4H C8H 1_555 1_555
C11H C10H 1_555 1_555
C12H C12E 1_555 1_555
H5H C12H 1_555 1_555
C7X C6H 1_555 1_555
H3X C7X 1_555 1_555
C8X C8V 1_555 1_555
H4X C8X 1_555 1_555
C7Z C6E 1_555 1_555
H3Z C7Z 1_555 1_555
C8Z C8I 1_555 1_555
H4Z C8Z 1_555 1_555
Zr1A O2 1_555 1_555
O1A Zr1A 1_555 1_555
O2A Zr1A 1_555 1_555
N1A C11A 1_555 1_555
C1A O1A 1_555 1_555
C2A C1A 1_555 1_555
C3A C2A 1_555 1_555
H1A C3A 1_555 1_555
C4A C3A 1_555 1_555
H2A C4A 1_555 1_555
C5A C4A 1_555 1_555
C6A C5A 1_555 1_555
C7A C6A 1_555 1_555
H3A C7A 1_555 1_555
C8A C7A 1_555 1_555
H4A C8A 1_555 1_555
C9A C8A 1_555 1_555
C10A C9A 1_555 1_555
C11A C10A 1_555 1_555
C12A C11A 1_555 1_555
H5A C12A 1_555 1_555
O1C C1C 1_555 1_555
C1C C2C 1_555 1_555
C2C C3C 1_555 1_555
C3C H1C 1_555 1_555
C4C C3C 1_555 1_555
H2C C4C 1_555 1_555
C5C C4C 1_555 1_555
C6C C5C 1_555 1_555
C7C C6C 1_555 1_555
H3C C7C 1_555 1_555
C8C C7C 1_555 1_555
H4C C8C 1_555 1_555
C9C C8C 1_555 1_555
C10C C9C 1_555 1_555
C11C N1A 1_555 1_555
C12C C12A 1_555 1_555
H5C C12C 1_555 1_555
O1Q C1A 1_555 1_555
N1L C11Q 1_555 1_555
C3Q C2A 1_555 1_555
H1Q C3Q 1_555 1_555
C4Q C5A 1_555 1_555
H2Q C4Q 1_555 1_555
C7Q C6A 1_555 1_555
H3Q C7Q 1_555 1_555
C8Q C9A 1_555 1_555
H4Q C8Q 1_555 1_555
C11Q C10A 1_555 1_555
C12Q C11Q 1_555 1_555
H5Q C12Q 1_555 1_555
C7PA C6C 1_555 1_555
H3PA C7PA 1_555 1_555
C8PA C9C 1_555 1_555
H4PA C8PA 1_555 1_555
C7QA C6A 1_555 1_555
H3QA C7QA 1_555 1_555
C8QA C9A 1_555 1_555
H4QA C8QA 1_555 1_555
C7IA C6A 1_555 1_555
H3IA C7IA 1_555 1_555
C8IA C8A 1_555 1_555
H4IA C8IA 1_555 1_555
O1N C1C 1_555 1_555
N1K C11N 1_555 1_555
C3N C2C 1_555 1_555
H1N C3N 1_555 1_555
C4N C5C 1_555 1_555
H2N C4N 1_555 1_555
C7N C6C 1_555 1_555
H3N C7N 1_555 1_555
C8N C9C 1_555 1_555
H4N C8N 1_555 1_555
C11N C10C 1_555 1_555
C12N C11N 1_555 1_555
H5N C12N 1_555 1_555
O1L C1L 1_555 1_555
C1L C2L 1_555 1_555
C2L C3L 1_555 1_555
C3L H1L 1_555 1_555
C4L C3L 1_555 1_555
H2L C4L 1_555 1_555
C5L C4L 1_555 1_555
C6L C5L 1_555 1_555
C7L C6L 1_555 1_555
H3L C7L 1_555 1_555
C8L C7L 1_555 1_555
H4L C8L 1_555 1_555
C9L C8L 1_555 1_555
C10L C9L 1_555 1_555
C11L N1L 1_555 1_555
C12L C12Q 1_555 1_555
H5L C12L 1_555 1_555
O1K C1K 1_555 1_555
C1K C2K 1_555 1_555
C2K C3K 1_555 1_555
C3K H1K 1_555 1_555
C4K C3K 1_555 1_555
H2K C4K 1_555 1_555
C5K C4K 1_555 1_555
C6K C5K 1_555 1_555
C7K C6K 1_555 1_555
H3K C7K 1_555 1_555
C8K C7K 1_555 1_555
H4K C8K 1_555 1_555
C9K C8K 1_555 1_555
C10K C9K 1_555 1_555
C11K N1K 1_555 1_555
C12K C12N 1_555 1_555
H5K C12K 1_555 1_555
C7LA C6L 1_555 1_555
H3LA C7LA 1_555 1_555
C8LA C9L 1_555 1_555
H4LA C8LA 1_555 1_555
C7JA C6C 1_555 1_555
H3JA C7JA 1_555 1_555
C8JA C8C 1_555 1_555
H4JA C8JA 1_555 1_555
C7OA C6K 1_555 1_555
H3OA C7OA 1_555 1_555
C8OA C9K 1_555 1_555
H4OA C8OA 1_555 1_555
O1R C1L 1_555 1_555
N1R C11R 1_555 1_555
C3R C2L 1_555 1_555
H1R C3R 1_555 1_555
C4R C5L 1_555 1_555
H2R C4R 1_555 1_555
C7R C6L 1_555 1_555
H3R C7R 1_555 1_555
C8R C9L 1_555 1_555
H4R C8R 1_555 1_555
C11R C10L 1_555 1_555
C12R C11R 1_555 1_555
H5R C12R 1_555 1_555
O1S C1K 1_555 1_555
C3S C2K 1_555 1_555
H1S C3S 1_555 1_555
C4S C5K 1_555 1_555
H2S C4S 1_555 1_555
C7S C6K 1_555 1_555
H3S C7S 1_555 1_555
C8S C9K 1_555 1_555
H4S C8S 1_555 1_555
C11S C10K 1_555 1_555
C12S C12R 1_555 1_555
H5S C12S 1_555 1_555
C7Y C6K 1_555 1_555
H3Y C7Y 1_555 1_555
C8Y C8K 1_555 1_555
H4Y C8Y 1_555 1_555
C7AA C6L 1_555 1_555
H3AA C7AA 1_555 1_555
C8AA C8L 1_555 1_555
H4AA C8AA 1_555 1_555
Zr1B O2A 1_555 1_555
O1B_2 Zr1B 1_555 1_555
O2B Zr1B 1_555 1_555
N1_2 C11B_2 1_555 1_555
C1B_2 O1B_2 1_555 1_555
C2B_2 C1B_2 1_555 1_555
C3B_2 C2B_2 1_555 1_555
H1B_2 C3B_2 1_555 1_555
C4B_2 C3B_2 1_555 1_555
H2B_2 C4B_2 1_555 1_555
C5B_2 C4B_2 1_555 1_555
C6B_2 C5B_2 1_555 1_555
C7B_2 C6B_2 1_555 1_555
H3B_2 C7B_2 1_555 1_555
C8B_2 C7B_2 1_555 1_555
H4B_2 C8B_2 1_555 1_555
C9B_2 C8B_2 1_555 1_555
C10B_2 C9B_2 1_555 1_555
C11B_2 C10B_2 1_555 1_555
C12B_2 C11B_2 1_555 1_555
H5B_2 C12B_2 1_555 1_555
O1_2 C1_2 1_555 1_555
C1_2 C2_2 1_555 1_555
C2_2 C3_2 1_555 1_555
C3_2 H1_2 1_555 1_555
C4_2 C3_2 1_555 1_555
H2_2 C4_2 1_555 1_555
C5_2 C4_2 1_555 1_555
C6_2 C5_2 1_555 1_555
C7_2 C6_2 1_555 1_555
H3_2 C7_2 1_555 1_555
C8_2 C7_2 1_555 1_555
H4_2 C8_2 1_555 1_555
C9_2 C8_2 1_555 1_555
C10_2 C9_2 1_555 1_555
C11_2 N1_2 1_555 1_555
C12_2 C12B_2 1_555 1_555
H5_2 C12_2 1_555 1_555
O1G_2 C1B_2 1_555 1_555
N1G_2 C11G_2 1_555 1_555
C3G_2 C2B_2 1_555 1_555
H1G_2 C3G_2 1_555 1_555
C4G_2 C5B_2 1_555 1_555
H2G_2 C4G_2 1_555 1_555
C7G_2 C6B_2 1_555 1_555
H3G_2 C7G_2 1_555 1_555
C8G_2 C9B_2 1_555 1_555
H4G_2 C8G_2 1_555 1_555
C11G_2 C10B_2 1_555 1_555
C12G_2 C11G_2 1_555 1_555
H5G_2 C12G_2 1_555 1_555
C7FA_2 C6_2 1_555 1_555
H3FA_2 C7FA_2 1_555 1_555
C8FA_2 C9_2 1_555 1_555
H4FA_2 C8FA_2 1_555 1_555
C7CA_2 C6B_2 1_555 1_555
H3CA_2 C7CA_2 1_555 1_555
C8CA_2 C9B_2 1_555 1_555
H4CA_2 C8CA_2 1_555 1_555
C7GA_2 C6B_2 1_555 1_555
H3GA_2 C7GA_2 1_555 1_555
C8GA_2 C8B_2 1_555 1_555
H4GA_2 C8GA_2 1_555 1_555
O1W_2 C1_2 1_555 1_555
N1I_2 C11W_2 1_555 1_555
C3W_2 C2_2 1_555 1_555
H1W_2 C3W_2 1_555 1_555
C4W_2 C5_2 1_555 1_555
H2W_2 C4W_2 1_555 1_555
C7W_2 C6_2 1_555 1_555
H3W_2 C7W_2 1_555 1_555
C8W_2 C9_2 1_555 1_555
H4W_2 C8W_2 1_555 1_555
C11W_2 C10_2 1_555 1_555
C12W_2 C11W_2 1_555 1_555
H5W_2 C12W_2 1_555 1_555
O1V_2 C1H_2 1_555 1_555
C1H_2 C2H_2 1_555 1_555
C2H_2 C3V_2 1_555 1_555
C3V_2 H1V_2 1_555 1_555
C4V_2 C3V_2 1_555 1_555
H2V_2 C4V_2 1_555 1_555
C5H_2 C4V_2 1_555 1_555
C6H_2 C5H_2 1_555 1_555
C7V_2 C6H_2 1_555 1_555
H3V_2 C7V_2 1_555 1_555
C8V_2 C7V_2 1_555 1_555
H4V_2 C8V_2 1_555 1_555
C9H_2 C8V_2 1_555 1_555
C10H_2 C9H_2 1_555 1_555
C11V_2 N1G_2 1_555 1_555
C12V_2 C12G_2 1_555 1_555
H5V_2 C12V_2 1_555 1_555
O1I_2 C1E_2 1_555 1_555
C1E_2 C2E_2 1_555 1_555
C2E_2 C3I_2 1_555 1_555
C3I_2 H1I_2 1_555 1_555
C4I_2 C3I_2 1_555 1_555
H2I_2 C4I_2 1_555 1_555
C5E_2 C4I_2 1_555 1_555
C6E_2 C5E_2 1_555 1_555
C7I_2 C6E_2 1_555 1_555
H3I_2 C7I_2 1_555 1_555
C8I_2 C7I_2 1_555 1_555
H4I_2 C8I_2 1_555 1_555
C9E_2 C8I_2 1_555 1_555
C10E_2 C9E_2 1_555 1_555
C11I_2 N1I_2 1_555 1_555
C12I_2 C12W_2 1_555 1_555
H5I_2 C12I_2 1_555 1_555
C7UA_2 C6H_2 1_555 1_555
H3UA_2 C7UA_2 1_555 1_555
C8UA_2 C9H_2 1_555 1_555
H4UA_2 C8UA_2 1_555 1_555
C7TA_2 C6_2 1_555 1_555
H3TA_2 C7TA_2 1_555 1_555
C8TA_2 C8_2 1_555 1_555
H4TA_2 C8TA_2 1_555 1_555
C7EA_2 C6E_2 1_555 1_555
H3EA_2 C7EA_2 1_555 1_555
C8EA_2 C9E_2 1_555 1_555
H4EA_2 C8EA_2 1_555 1_555
O1H_2 C1H_2 1_555 1_555
N1E_2 C11H_2 1_555 1_555
C3H_2 C2H_2 1_555 1_555
H1H_2 C3H_2 1_555 1_555
C4H_2 C5H_2 1_555 1_555
H2H_2 C4H_2 1_555 1_555
C7H_2 C6H_2 1_555 1_555
H3H_2 C7H_2 1_555 1_555
C8H_2 C9H_2 1_555 1_555
H4H_2 C8H_2 1_555 1_555
C11H_2 C10H_2 1_555 1_555
C12H_2 C11H_2 1_555 1_555
H5H_2 C12H_2 1_555 1_555
O1E_2 C1E_2 1_555 1_555
C3E_2 C2E_2 1_555 1_555
H1E_2 C3E_2 1_555 1_555
C4E_2 C5E_2 1_555 1_555
H2E_2 C4E_2 1_555 1_555
C7E_2 C6E_2 1_555 1_555
H3E_2 C7E_2 1_555 1_555
C8E_2 C9E_2 1_555 1_555
H4E_2 C8E_2 1_555 1_555
C11E_2 C10E_2 1_555 1_555
C12E_2 C12H_2 1_555 1_555
H5E_2 C12E_2 1_555 1_555
C7Z_2 C6E_2 1_555 1_555
H3Z_2 C7Z_2 1_555 1_555
C8Z_2 C8I_2 1_555 1_555
H4Z_2 C8Z_2 1_555 1_555
C7X_2 C6H_2 1_555 1_555
H3X_2 C7X_2 1_555 1_555
C8X_2 C8V_2 1_555 1_555
H4X_2 C8X_2 1_555 1_555
Zr1C O2B 1_555 1_555
O2C Zr1 1_555 1_555
O2F Zr1 1_555 1_555
Zr1I O2 1_555 1_555
Zr1G O1W 1_555 1_555
O2S Zr1B 1_555 1_555
O2E Zr1 1_555 1_555
O2H Zr1A 1_555 1_555
Zr1_2 O1E_2 1_555 1_555
Zr1_3 O1_2 1_555 1_555
Zr1_4 O1E 1_555 1_555
Zr1A_2 O1R 1_555 1_555
Zr1B_2 O1H_2 1_555 1_555
Zr1B_3 O1H 1_555 1_555
Zr1B_4 O1B 1_555 1_555
Zr1C_2 O1S 1_555 1_555
Zr1C_3 O1C 1_555 1_555
Zr1G_2 O1W_2 1_555 1_555
Zr1G_3 O1N 1_555 1_555
Zr1G_4 O1G 1_555 1_555
Zr1I_2 O1I_2 1_555 1_555
Zr1I_3 O1I 1_555 1_555
Zr1I_4 O1K 1_555 1_555
Zr1I_5 O1V 1_555 1_555
O1C_2 Zr1C 1_555 1_555
O1D Zr1 1_555 1_555
O1E_3 Zr1 1_555 1_555
O1F Zr1 1_555 1_555
O1H_3 Zr1B 1_555 1_555
O1I_3 Zr1I 1_555 1_555
O1J Zr1A 1_555 1_555
O1K_2 Zr1I 1_555 1_555
O1L_2 Zr1I 1_555 1_555
O1M Zr1C 1_555 1_555
O1N_2 Zr1G 1_555 1_555
O1O Zr1C 1_555 1_555
O1P Zr1A 1_555 1_555
O1R_2 Zr1A 1_555 1_555
O1S_2 Zr1C 1_555 1_555
O1T Zr1B 1_555 1_555
O1U Zr1B 1_555 1_555
O1V_3 Zr1I 1_555 1_555
C7 C7TA 1_555 1_555
C9 C8TA 1_555 1_555
C7B C7GA 1_555 1_555
C9B C8GA 1_555 1_555
C10B C11B 1_555 1_555
C11B C12B 1_555 1_555
C3W C4W 1_555 1_555
C7W C8W 1_555 1_555
C7W C7FA 1_555 1_555
C8W C8FA 1_555 1_555
C7CA C8CA 1_555 1_555
C7CA C7G 1_555 1_555
C8CA C8G 1_555 1_555
C7FA C8FA 1_555 1_555
C7TA C8TA 1_555 1_555
C3G C4G 1_555 1_555
C7G C8G 1_555 1_555
C7I C7Z 1_555 1_555
C9E C8Z 1_555 1_555
C10E C11I 1_555 1_555
C11I C12I 1_555 1_555
C7V C7X 1_555 1_555
C9H C8X 1_555 1_555
C10H C11V 1_555 1_555
C11V C12V 1_555 1_555
C7EA C8EA 1_555 1_555
C7EA C7E 1_555 1_555
C8EA C8E 1_555 1_555
C7GA C8GA 1_555 1_555
C7UA C8UA 1_555 1_555
C7UA C7H 1_555 1_555
C8UA C8H 1_555 1_555
N1E C11H 1_555 1_555
C3E C4E 1_555 1_555
C7E C8E 1_555 1_555
C3H C4H 1_555 1_555
C7H C8H 1_555 1_555
C11H C12H 1_555 1_555
C7X C8X 1_555 1_555
C7Z C8Z 1_555 1_555
Zr1A O2F 1_555 1_555
O2A Zr1I 1_555 1_555
C7A C7IA 1_555 1_555
C9A C8IA 1_555 1_555
C7C C7JA 1_555 1_555
C9C C8JA 1_555 1_555
C10C C11C 1_555 1_555
C11C C12C 1_555 1_555
O1Q Zr1G 1_555 1_555
C3Q C4Q 1_555 1_555
C7Q C8Q 1_555 1_555
C7Q C7QA 1_555 1_555
C8Q C8QA 1_555 1_555
C7PA C8PA 1_555 1_555
C7PA C7N 1_555 1_555
C8PA C8N 1_555 1_555
C7QA C8QA 1_555 1_555
C7IA C8IA 1_555 1_555
C3N C4N 1_555 1_555
C7N C8N 1_555 1_555
O1L Zr1I_3 1_555 1_555
C7L C7AA 1_555 1_555
C9L C8AA 1_555 1_555
C10L C11L 1_555 1_555
C11L C12L 1_555 1_555
C7K C7Y 1_555 1_555
C9K C8Y 1_555 1_555
C10K C11K 1_555 1_555
C11K C12K 1_555 1_555
C7LA C8LA 1_555 1_555
C7LA C7R 1_555 1_555
C8LA C8R 1_555 1_555
C7JA C8JA 1_555 1_555
C7OA C8OA 1_555 1_555
C7OA C7S 1_555 1_555
C8OA C8S 1_555 1_555
N1R C11S 1_555 1_555
C3R C4R 1_555 1_555
C7R C8R 1_555 1_555
C3S C4S 1_555 1_555
C7S C8S 1_555 1_555
C11S C12S 1_555 1_555
C7Y C8Y 1_555 1_555
C7AA C8AA 1_555 1_555
Zr1B O2H 1_555 1_555
O2B Zr1I 1_555 1_555
C7B_2 C7GA_2 1_555 1_555
C9B_2 C8GA_2 1_555 1_555
C7_2 C7TA_2 1_555 1_555
C9_2 C8TA_2 1_555 1_555
C10_2 C11_2 1_555 1_555
C11_2 C12_2 1_555 1_555
O1G_2 Zr1G 1_555 1_555
C3G_2 C4G_2 1_555 1_555
C7G_2 C8G_2 1_555 1_555
C7G_2 C7CA_2 1_555 1_555
C8G_2 C8CA_2 1_555 1_555
C7FA_2 C8FA_2 1_555 1_555
C7FA_2 C7W_2 1_555 1_555
C8FA_2 C8W_2 1_555 1_555
C7CA_2 C8CA_2 1_555 1_555
C7GA_2 C8GA_2 1_555 1_555
C3W_2 C4W_2 1_555 1_555
C7W_2 C8W_2 1_555 1_555
O1V_2 Zr1I_3 1_555 1_555
C7V_2 C7X_2 1_555 1_555
C9H_2 C8X_2 1_555 1_555
C10H_2 C11V_2 1_555 1_555
C11V_2 C12V_2 1_555 1_555
C7I_2 C7Z_2 1_555 1_555
C9E_2 C8Z_2 1_555 1_555
C10E_2 C11I_2 1_555 1_555
C11I_2 C12I_2 1_555 1_555
C7UA_2 C8UA_2 1_555 1_555
C7UA_2 C7H_2 1_555 1_555
C8UA_2 C8H_2 1_555 1_555
C7TA_2 C8TA_2 1_555 1_555
C7EA_2 C8EA_2 1_555 1_555
C7EA_2 C7E_2 1_555 1_555
C8EA_2 C8E_2 1_555 1_555
N1E_2 C11E_2 1_555 1_555
C3H_2 C4H_2 1_555 1_555
C7H_2 C8H_2 1_555 1_555
C3E_2 C4E_2 1_555 1_555
C7E_2 C8E_2 1_555 1_555
C11E_2 C12E_2 1_555 1_555
C7Z_2 C8Z_2 1_555 1_555
C7X_2 C8X_2 1_555 1_555
Zr1C O2C 1_555 1_555
Zr1C O2S 1_555 1_555
Zr1C O2E 1_555 1_555
O2C Zr1I 1_555 1_555
O2F Zr1G 1_555 1_555
Zr1G O2S 1_555 1_555
Zr1G O2E 1_555 1_555
Zr1G O2H 1_555 1_555

#END
