
#######################################################################
#
#                 Cambridge Crystallographic Data Centre
#                                CCDC 
#
#######################################################################
#
# If this CIF has been generated from an entry in the Cambridge 
# Structural Database, then it will include bibliographic, chemical, 
# crystal, experimental, refinement or atomic coordinate data resulting 
# from the CCDC's data processing and validation procedures.
#
#######################################################################

data_TETWOG
_chemical_formula_moiety         '(C30 H36 Co4 N2 O23)n'
_symmetry_cell_setting           triclinic
_symmetry_space_group_name_H-M   'P -1'
_symmetry_Int_Tables_number      2
_space_group_name_Hall           '-P 1'
loop_
_symmetry_equiv_pos_site_id
_symmetry_equiv_pos_as_xyz
1 x,y,z
2 -x,-y,-z
_cell_length_a                   9.1238(12)
_cell_length_b                   9.6201(13)
_cell_length_c                   12.6475(17)
_cell_angle_alpha                94.475(2)
_cell_angle_beta                 104.722(2)
_cell_angle_gamma                114.437(2)
_cell_volume                     956.09
loop_
_atom_site_label
_atom_site_type_symbol
_atom_site_fract_x
_atom_site_fract_y
_atom_site_fract_z
O1 O 0.1201(5) 0.2746(5) 0.1922(3)
O2 O 0.0682(4) 0.2353(4) 0.5689(3)
H1 H 0.1375 0.2943 0.5426
O3 O 0.4006(4) 0.2707(3) 0.5186(3)
C1 C 0.3297(5) 0.1513(5) 0.4410(4)
O4 O 0.3299(4) 0.4254(4) 0.3388(2)
C2 C 0.2605(5) 0.3049(5) 0.2589(4)
O5 O 0.7922(4) 0.3410(4) 0.5653(3)
O6 O 0.6931(4) 0.4744(3) 0.4568(2)
C3 C 0.7032(5) 0.3501(5) 0.4756(3)
C4 C 0.6046(5) 0.2063(5) 0.3817(4)
H2 H 0.6377 0.1249 0.4022
Co1 Co 1.12792(7) 0.48609(7) 0.29804(5)
Co2 Co 0.5000 0.5000 0.5000
Co3 Co 0.0000 0.0000 0.5000
O7 O 0.1912(4) 0.0376(4) 0.4297(3)
O8 O 0.9322(4) 0.3168(4) 0.3421(3)
N1 N 1.2231(5) 0.6336(4) 0.1948(3)
O9 O 0.8601(4) 0.4516(5) 0.2277(3)
C5 C 0.3492(5) 0.2067(5) 0.2461(4)
H3 H 0.2727 0.1183 0.1835
C6 C 0.5106(6) 0.3015(6) 0.2156(4)
H4 H 0.4870 0.2838 0.1352
H5 H 0.5548 0.4123 0.2446
C7 C 0.6363(5) 0.2420(5) 0.2701(4)
H6 H 0.6029 0.1417 0.2225
C8 C 0.8188(5) 0.3442(5) 0.2803(4)
C9 C 1.4190(6) 0.9587(5) -0.0039(4)
C10 C 0.4081(5) 0.1390(5) 0.3490(4)
H7 H 0.3633 0.0270 0.3202
C11 C 1.3553(6) 0.8450(5) 0.0641(4)
C12 C 1.4600(6) 0.8142(6) 0.1503(4)
H8 H 1.5770 0.8637 0.1652
C13 C 1.1238(6) 0.6598(6) 0.1113(4)
H9 H 1.0072 0.6059 0.0971
O10 O 0.1427(5) -0.0150(5) 0.6533(3)
H10 H 0.1312 0.0330 0.7045
C14 C 1.1815(6) 0.7615(7) 0.0441(4)
H11 H 1.1052 0.7743 -0.0140
C15 C 1.3906(6) 0.7109(6) 0.2130(4)
H12 H 1.4631 0.6936 0.2709
H13 H 1.315(2) 0.967(2) -0.071(3)
H14 H 0.0565 -0.1043 0.6312
H15 H -0.0088 0.2585 0.5664
O1A O -0.1201(5) -0.2746(5) 0.8078(3)
O1_2 O 1.1201(5) 0.2746(5) 0.1922(3)
O1A_2 O -1.1201(5) -0.2746(5) 0.8078(3)
O2A O -0.0682(4) -0.2353(4) 0.4311(3)
H1A H -0.1375 -0.2943 0.4574
O3A O -0.4006(4) -0.2707(3) 0.4814(3)
O3A_2 O 0.5994(4) 0.7293(3) 0.4814(3)
C1A C -0.3297(5) -0.1513(5) 0.5590(4)
O4A O -0.3299(4) -0.4254(4) 0.6612(2)
O4_2 O 1.3299(4) 0.4254(4) 0.3388(2)
O4A_2 O -1.3299(4) -0.4254(4) 0.6612(2)
O4A_3 O 0.6701(4) 0.5746(4) 0.6612(2)
C2A C -0.2605(5) -0.3049(5) 0.7411(4)
O5A O -0.7922(4) -0.3410(4) 0.4347(3)
O5_2 O -1.2078(4) -0.6590(4) 0.5653(3)
O5A_2 O 1.2078(4) 0.6590(4) 0.4347(3)
O6A O -0.6931(4) -0.4744(3) 0.5432(2)
O6A_2 O 0.3069(4) 0.5256(3) 0.5432(2)
C3A C -0.7032(5) -0.3501(5) 0.5244(3)
C4A C -0.6046(5) -0.2063(5) 0.6183(4)
H2A H -0.6377 -0.1249 0.5978
Co1A Co -1.12792(7) -0.48609(7) 0.70196(5)
Co1_2 Co -0.87208(7) -0.51391(7) 0.29804(5)
Co1_3 Co 0.12792(7) 0.48609(7) 0.29804(5)
Co1A_2 Co -0.12792(7) -0.48609(7) 0.70196(5)
Co1A_3 Co 0.87208(7) 0.51391(7) 0.70196(5)
Co1A_4 Co 1.87208(7) 1.51391(7) -0.29804(5)
Co2_2 Co -0.5000 -0.5000 0.5000
O7A O -0.1912(4) -0.0376(4) 0.5703(3)
O8A O -0.9322(4) -0.3168(4) 0.6579(3)
N1A N 1.7769(5) 1.3664(4) -0.1948(3)
N1A_2 N -1.2231(5) -0.6336(4) 0.8052(3)
O9A O -0.8601(4) -0.4516(5) 0.7723(3)
C5A C -0.3492(5) -0.2067(5) 0.7539(4)
H3A H -0.2727 -0.1183 0.8165
C6A C -0.5106(6) -0.3015(6) 0.7844(4)
H4A H -0.4870 -0.2838 0.8648
H5A H -0.5548 -0.4123 0.7554
C7A C -0.6363(5) -0.2420(5) 0.7299(4)
H6A H -0.6029 -0.1417 0.7775
C8A C -0.8188(5) -0.3442(5) 0.7197(4)
C9A C 1.5810(6) 1.0413(5) 0.0039(4)
C10A C -0.4081(5) -0.1390(5) 0.6510(4)
H7A H -0.3633 -0.0270 0.6798
C11A C 1.6447(6) 1.1550(5) -0.0641(4)
C12A C 1.5400(6) 1.1858(6) -0.1503(4)
H8A H 1.4230 1.1363 -0.1652
C13A C 1.8762(6) 1.3402(6) -0.1113(4)
H9A H 1.9928 1.3941 -0.0971
O10A O -0.1427(5) 0.0150(5) 0.3467(3)
H10A H -0.1312 -0.0330 0.2955
C14A C 1.8185(6) 1.2385(7) -0.0441(4)
H11A H 1.8948 1.2257 0.0140
C15A C 1.6094(6) 1.2891(6) -0.2130(4)
H12A H 1.5369 1.3064 -0.2709
H13A H 1.685(2) 1.033(2) 0.071(3)
H14A H -0.0565 0.1043 0.3688
H15A H 0.0088 -0.2585 0.4336
O11 O 0.6819(10) 0.5654(9) 0.0537(8)
O12 O 0.0932(19) 0.1236(17) 0.8296(16)
O13 O 0.0000 0.0000 0.0000
loop_
_geom_bond_atom_site_label_1
_geom_bond_atom_site_label_2
_geom_bond_site_symmetry_1
_geom_bond_site_symmetry_2
O1 C2 1_555 1_555
O2 H1 1_555 1_555
O3 C1 1_555 1_555
C1 O7 1_555 1_555
O4 C2 1_555 1_555
C2 C5 1_555 1_555
O5 C3 1_555 1_555
O6 C3 1_555 1_555
C3 C4 1_555 1_555
C4 H2 1_555 1_555
Co1 O8 1_555 1_555
Co2 O3 1_555 1_555
Co3 O2 1_555 1_555
O7 Co3 1_555 1_555
O8 C8 1_555 1_555
N1 Co1 1_555 1_555
O9 Co1 1_555 1_555
C5 H3 1_555 1_555
C6 C5 1_555 1_555
H4 C6 1_555 1_555
H5 C6 1_555 1_555
C7 C4 1_555 1_555
H6 C7 1_555 1_555
C8 O9 1_555 1_555
C9 C11 1_555 1_555
C10 C1 1_555 1_555
H7 C10 1_555 1_555
C11 C12 1_555 1_555
C12 H8 1_555 1_555
C13 N1 1_555 1_555
H9 C13 1_555 1_555
O10 Co3 1_555 1_555
H10 O10 1_555 1_555
C14 C11 1_555 1_555
H11 C14 1_555 1_555
C15 N1 1_555 1_555
H12 C15 1_555 1_555
H13 C9 1_555 1_555
H14 O10 1_555 1_555
H15 O2 1_555 1_555
O1A C2A 1_555 1_555
O1_2 Co1 1_555 1_555
O1A_2 Co1A 1_555 1_555
O2A Co3 1_555 1_555
H1A O2A 1_555 1_555
O3A C1A 1_555 1_555
O3A_2 Co2 1_555 1_555
C1A O7A 1_555 1_555
O4A C2A 1_555 1_555
O4_2 Co1 1_555 1_555
O4A_2 Co1A 1_555 1_555
O4A_3 Co2 1_555 1_555
C2A C5A 1_555 1_555
O5A C3A 1_555 1_555
O5_2 Co1A 1_555 1_555
O5A_2 Co1 1_555 1_555
O6A C3A 1_555 1_555
O6A_2 Co2 1_555 1_555
C3A C4A 1_555 1_555
C4A H2A 1_555 1_555
Co1A O8A 1_555 1_555
Co1_2 O5A 1_555 1_555
Co1_3 O1 1_555 1_555
Co1A_2 O1A 1_555 1_555
Co1A_3 O5 1_555 1_555
Co1A_4 N1A 1_555 1_555
Co2_2 O3A 1_555 1_555
O7A Co3 1_555 1_555
O8A C8A 1_555 1_555
N1A C13A 1_555 1_555
N1A_2 Co1A 1_555 1_555
O9A Co1A 1_555 1_555
C5A H3A 1_555 1_555
C6A C5A 1_555 1_555
H4A C6A 1_555 1_555
H5A C6A 1_555 1_555
C7A C4A 1_555 1_555
H6A C7A 1_555 1_555
C8A O9A 1_555 1_555
C9A C9 1_555 1_555
C10A C1A 1_555 1_555
H7A C10A 1_555 1_555
C11A C9A 1_555 1_555
C12A C11A 1_555 1_555
H8A C12A 1_555 1_555
C13A H9A 1_555 1_555
O10A Co3 1_555 1_555
H10A O10A 1_555 1_555
C14A C11A 1_555 1_555
H11A C14A 1_555 1_555
C15A N1A 1_555 1_555
H12A C15A 1_555 1_555
H13A C9A 1_555 1_555
H14A O10A 1_555 1_555
H15A O2A 1_555 1_555
O4 Co2 1_555 1_555
O4 Co1_3 1_555 1_555
O6 Co2 1_555 1_555
C4 C10 1_555 1_555
C5 C10 1_555 1_555
C6 C7 1_555 1_555
C7 C8 1_555 1_555
C12 C15 1_555 1_555
C13 C14 1_555 1_555
O4A Co1A_2 1_555 1_555
O4A Co2_2 1_555 1_555
O4A_3 Co1A_3 1_555 1_555
O6A Co2_2 1_555 1_555
C4A C10A 1_555 1_555
C5A C10A 1_555 1_555
C6A C7A 1_555 1_555
C7A C8A 1_555 1_555
C12A C15A 1_555 1_555
C13A C14A 1_555 1_555

#END
