
#######################################################################
#
#                 Cambridge Crystallographic Data Centre
#                                CCDC 
#
#######################################################################
#
# If this CIF has been generated from an entry in the Cambridge 
# Structural Database, then it will include bibliographic, chemical, 
# crystal, experimental, refinement or atomic coordinate data resulting 
# from the CCDC's data processing and validation procedures.
#
#######################################################################

data_PIHNUQ
_chemical_formula_moiety         '(C36 H40 N2 O12 Zn2)n'
_symmetry_cell_setting           monoclinic
_symmetry_space_group_name_H-M   'C 2/c'
_symmetry_Int_Tables_number      15
_space_group_name_Hall           '-C 2yc'
loop_
_symmetry_equiv_pos_site_id
_symmetry_equiv_pos_as_xyz
1 x,y,z
2 1/2+x,1/2+y,z
3 -x,y,1/2-z
4 1/2-x,1/2+y,1/2-z
5 -x,-y,-z
6 1/2-x,1/2-y,-z
7 x,-y,1/2+z
8 1/2+x,1/2-y,1/2+z
_cell_length_a                   20.595(4)
_cell_length_b                   15.012(3)
_cell_length_c                   10.363(2)
_cell_angle_alpha                90
_cell_angle_beta                 93.967(4)
_cell_angle_gamma                90
_cell_volume                     3196.27
loop_
_atom_site_label
_atom_site_type_symbol
_atom_site_fract_x
_atom_site_fract_y
_atom_site_fract_z
O6 O 0.4674(5) 0.1508(6) 0.0319(17)
H13 H 0.4796 0.1891 0.0889
C16 C 0.5041(10) 0.0715(9) 0.0526(17)
H14 H 0.4978 0.0482 0.1371
H15 H 0.5496 0.0839 0.0477
C17 C 0.4821(6) 0.0033(8) -0.0492(9)
H16 H 0.4933 0.0235 -0.1327
H17 H 0.4356 -0.0034 -0.0516
C18 C 0.4850(11) 0.0870(10) 0.018(3)
H18 H 0.4992 0.1296 0.0835
H19 H 0.4386 0.0803 0.0172
H20 H 0.4968 0.1074 -0.0646
O6D O 0.5326(5) -0.1508(6) -0.0319(17)
H13D H 0.5204 -0.1891 -0.0889
C16D C 0.4959(10) -0.0715(9) -0.0526(17)
H14D H 0.5022 -0.0482 -0.1371
H15D H 0.4504 -0.0839 -0.0477
C17D C 0.5179(6) -0.0033(8) 0.0492(9)
H16D H 0.5067 -0.0235 0.1327
H17D H 0.5644 0.0034 0.0516
C18D C 0.5150(11) -0.0870(10) -0.018(3)
H18D H 0.5008 -0.1296 -0.0835
H19D H 0.5614 -0.0803 -0.0172
H20D H 0.5032 -0.1074 0.0646
Zn1 Zn 0.30090(2) 0.27905(3) 0.10029(4)
O1 O 0.32800(14) 0.15064(17) 0.0961(3)
O2 O 0.24802(14) 0.10835(18) -0.0482(3)
O3 O 0.35698(15) -0.27019(18) 0.1127(3)
O4 O 0.36256(14) -0.30460(19) 0.4551(3)
O5 O 0.28106(14) -0.26464(18) 0.3122(3)
N1 N 0.35339(15) 0.3317(2) 0.2543(3)
C1 C 0.2956(2) 0.0924(3) 0.0324(4)
C2 C 0.31360(19) -0.0023(2) 0.0537(4)
C3 C 0.3516(2) -0.0283(3) 0.1632(4)
H1 H 0.3672 0.0149 0.2218
C4 C 0.3667(2) -0.1164(3) 0.1871(4)
H2 H 0.3917 -0.1324 0.2617
C5 C 0.3442(2) -0.1814(3) 0.0989(4)
C6 C 0.3072(2) -0.1570(3) -0.0122(4)
H3 H 0.2929 -0.1999 -0.0723
C7 C 0.2915(2) -0.0684(3) -0.0332(4)
H4 H 0.2657 -0.0526 -0.1068
C8 C 0.3832(2) -0.3010(3) 0.2346(4)
H5 H 0.4237 -0.2699 0.2569
H6 H 0.3932 -0.3639 0.2278
C9 C 0.3379(2) -0.2880(3) 0.3430(4)
C10 C 0.4107(2) 0.2983(3) 0.2983(4)
H7 H 0.4241 0.2443 0.2651
C11 C 0.4509(2) 0.3404(3) 0.3909(4)
H8 H 0.4907 0.3151 0.4184
C12 C 0.4322(2) 0.4194(3) 0.4424(4)
C13 C 0.3721(2) 0.4524(3) 0.4016(4)
H9 H 0.3570 0.5049 0.4366
C14 C 0.3343(2) 0.4070(3) 0.3082(4)
H10 H 0.2936 0.4299 0.2816
C15 C 0.4773(2) 0.4707(3) 0.5366(4)
H11 H 0.5027 0.4294 0.5915
H12 H 0.4519 0.5075 0.5913
Zn1E Zn 0.19910(2) 0.22095(3) -0.10029(4)
Zn1F Zn 0.30090(2) -0.27905(3) 0.60029(4)
Zn1C Zn 0.19910(2) -0.22095(3) 0.39971(4)
Zn1D Zn 0.69910(2) 0.72095(3) 0.89971(4)
Zn1C_2 Zn 0.19910(2) 0.77905(3) -0.60029(4)
Zn1F_2 Zn 0.30090(2) 0.72095(3) -0.39971(4)
O1E O 0.17200(14) 0.34936(17) -0.0961(3)
O2E O 0.25198(14) 0.39165(18) 0.0482(3)
O3E O 0.14302(15) 0.77019(18) -0.1127(3)
O4E O 0.13744(14) 0.80460(19) -0.4551(3)
O4F O 0.36256(14) 0.30460(19) -0.0449(3)
O4C O 0.13744(14) 0.19540(19) 0.0449(3)
O5E O 0.21894(14) 0.76464(18) -0.3122(3)
O5C O 0.21894(14) 0.23536(18) 0.1878(3)
O5F O 0.28106(14) 0.26464(18) -0.1878(3)
N1D N 0.64661(15) 0.6683(2) 0.7457(3)
N1E N 0.14661(15) 0.1683(2) -0.2543(3)
C1E C 0.2044(2) 0.4076(3) -0.0324(4)
C2E C 0.18640(19) 0.5023(2) -0.0537(4)
C3E C 0.1484(2) 0.5283(3) -0.1632(4)
H1E H 0.1328 0.4851 -0.2218
C4E C 0.1333(2) 0.6164(3) -0.1871(4)
H2E H 0.1083 0.6324 -0.2617
C5E C 0.1558(2) 0.6814(3) -0.0989(4)
C6E C 0.1928(2) 0.6570(3) 0.0122(4)
H3E H 0.2071 0.6999 0.0723
C7E C 0.2085(2) 0.5684(3) 0.0332(4)
H4E H 0.2343 0.5526 0.1068
C8E C 0.1168(2) 0.8010(3) -0.2346(4)
H5E H 0.0763 0.7699 -0.2569
H6E H 0.1068 0.8639 -0.2278
C9E C 0.1621(2) 0.7880(3) -0.3430(4)
C10D C 0.5893(2) 0.7017(3) 0.7017(4)
H7D H 0.5759 0.7557 0.7349
C11D C 0.5491(2) 0.6596(3) 0.6091(4)
H8D H 0.5093 0.6849 0.5816
C12D C 0.5678(2) 0.5806(3) 0.5576(4)
C13D C 0.6279(2) 0.5476(3) 0.5984(4)
H9D H 0.6430 0.4951 0.5634
C14D C 0.6657(2) 0.5930(3) 0.6918(4)
H10D H 0.7064 0.5701 0.7184
C15D C 0.5227(2) 0.5293(3) 0.4634(4)
H11D H 0.4973 0.5706 0.4085
H12D H 0.5481 0.4925 0.4087
loop_
_geom_bond_atom_site_label_1
_geom_bond_atom_site_label_2
_geom_bond_site_symmetry_1
_geom_bond_site_symmetry_2
Zn1 O1 1_555 1_555
O1 C1 1_555 1_555
O2 C1 1_555 1_555
O3 C5 1_555 1_555
O4 C9 1_555 1_555
O5 C9 1_555 1_555
N1 Zn1 1_555 1_555
C1 C2 1_555 1_555
C2 C3 1_555 1_555
C3 H1 1_555 1_555
C4 C3 1_555 1_555
H2 C4 1_555 1_555
C5 C4 1_555 1_555
C6 C5 1_555 1_555
H3 C6 1_555 1_555
C7 C2 1_555 1_555
H4 C7 1_555 1_555
C8 O3 1_555 1_555
H5 C8 1_555 1_555
H6 C8 1_555 1_555
C9 C8 1_555 1_555
C10 N1 1_555 1_555
H7 C10 1_555 1_555
C11 C10 1_555 1_555
H8 C11 1_555 1_555
C12 C11 1_555 1_555
C13 C12 1_555 1_555
H9 C13 1_555 1_555
C14 N1 1_555 1_555
H10 C14 1_555 1_555
C15 C12 1_555 1_555
H11 C15 1_555 1_555
H12 C15 1_555 1_555
O6 H13 1_555 1_555
C16 O6 1_555 1_555
H14 C16 1_555 1_555
H15 C16 1_555 1_555
C17 C16 1_555 1_555
H16 C17 1_555 1_555
H17 C17 1_555 1_555
C18 O6 1_555 1_555
H18 O6 1_555 1_555
H19 O6 1_555 1_555
H20 C18 1_555 1_555
Zn1E O2 1_555 1_555
Zn1F O4 1_555 1_555
Zn1C O5 1_555 1_555
Zn1D N1D 1_555 1_555
Zn1C_2 O4E 1_555 1_555
Zn1F_2 O5E 1_555 1_555
O1E Zn1E 1_555 1_555
O2E Zn1 1_555 1_555
O3E C5E 1_555 1_555
O4E C9E 1_555 1_555
O4F Zn1 1_555 1_555
O4C Zn1E 1_555 1_555
O5E C9E 1_555 1_555
O5C Zn1 1_555 1_555
O5F Zn1E 1_555 1_555
N1D C10D 1_555 1_555
N1E Zn1E 1_555 1_555
C1E O1E 1_555 1_555
C2E C1E 1_555 1_555
C3E C2E 1_555 1_555
H1E C3E 1_555 1_555
C4E C3E 1_555 1_555
H2E C4E 1_555 1_555
C5E C4E 1_555 1_555
C6E C5E 1_555 1_555
H3E C6E 1_555 1_555
C7E C2E 1_555 1_555
H4E C7E 1_555 1_555
C8E O3E 1_555 1_555
H5E C8E 1_555 1_555
H6E C8E 1_555 1_555
C9E C8E 1_555 1_555
C10D H7D 1_555 1_555
C11D C10D 1_555 1_555
H8D C11D 1_555 1_555
C12D C11D 1_555 1_555
C13D C12D 1_555 1_555
H9D C13D 1_555 1_555
C14D N1D 1_555 1_555
H10D C14D 1_555 1_555
C15D C15 1_555 1_555
H11D C15D 1_555 1_555
H12D C15D 1_555 1_555
O6D H13D 1_555 1_555
C16D C17 1_555 1_555
H14D C17 1_555 1_555
H15D C16D 1_555 1_555
C17D C16 1_555 1_555
H16D C17D 1_555 1_555
H17D C17D 1_555 1_555
C18D C17 1_555 1_555
H18D O6D 1_555 1_555
H19D O6D 1_555 1_555
H20D C18D 1_555 1_555
C6 C7 1_555 1_555
C13 C14 1_555 1_555
C16 C18 1_555 1_555
C16 H18 1_555 1_555
H14 C17D 1_555 1_555
C17 C18 1_555 1_555
C17 C17D 1_555 1_555
C18 H18 1_555 1_555
C18 H19 1_555 1_555
C18 C17D 1_555 1_555
O2E C1E 1_555 1_555
C6E C7E 1_555 1_555
C12D C15D 1_555 1_555
C13D C14D 1_555 1_555
O6D C16D 1_555 1_555
O6D C18D 1_555 1_555
C16D H14D 1_555 1_555
C16D C17D 1_555 1_555
C16D C18D 1_555 1_555
C16D H18D 1_555 1_555
C17D C18D 1_555 1_555
C18D H18D 1_555 1_555
C18D H19D 1_555 1_555

#END
