
#######################################################################
#
#                 Cambridge Crystallographic Data Centre
#                                CCDC 
#
#######################################################################
#
# If this CIF has been generated from an entry in the Cambridge 
# Structural Database, then it will include bibliographic, chemical, 
# crystal, experimental, refinement or atomic coordinate data resulting 
# from the CCDC's data processing and validation procedures.
#
#######################################################################

data_FAMBUS
_chemical_formula_moiety         '(C48 H28 Cd3 O20)n'
_symmetry_cell_setting           triclinic
_symmetry_space_group_name_H-M   'P -1'
_symmetry_Int_Tables_number      2
_space_group_name_Hall           '-P 1'
loop_
_symmetry_equiv_pos_site_id
_symmetry_equiv_pos_as_xyz
1 x,y,z
2 -x,-y,-z
_cell_length_a                   9.862(6)
_cell_length_b                   10.381(6)
_cell_length_c                   18.348(11)
_cell_angle_alpha                100.222(8)
_cell_angle_beta                 104.613(7)
_cell_angle_gamma                91.281(8)
_cell_volume                     1784.36
loop_
_atom_site_label
_atom_site_type_symbol
_atom_site_fract_x
_atom_site_fract_y
_atom_site_fract_z
C1 C 0.6034(6) 0.3807(5) -0.2638(3)
C2 C 0.5874(6) 0.2474(5) -0.2946(3)
H1 H 0.5634 0.2178 -0.3474
C3 C 0.6080(6) 0.1600(6) -0.2450(3)
C4 C 0.6426(6) 0.2014(6) -0.1666(3)
H2 H 0.6543 0.1414 -0.1338
C5 C 0.6597(7) 0.3377(6) -0.1376(3)
C6 C 0.6378(6) 0.4290(5) -0.1855(3)
H3 H 0.6458 0.5187 -0.1659
C7 C 0.5757(6) 0.4736(5) -0.3161(3)
C8 C 0.5950(6) 0.0144(6) -0.2769(3)
C9 C 0.8343(7) 0.4321(6) -0.0174(3)
H4 H 0.9036 0.3777 -0.0342
H5 H 0.8409 0.5144 -0.0349
C10 C 0.8731(4) 0.4596(4) 0.06400(15)
C11 C 0.8030(4) 0.5490(4) 0.1045(2)
H6 H 0.7268 0.5884 0.0783
C12 C 0.8469(4) 0.5795(4) 0.1841(2)
H7 H 0.8000 0.6393 0.2111
C13 C 0.9609(4) 0.5206(4) 0.22323(15)
C14 C 1.0309(4) 0.4312(4) 0.1828(2)
H8 H 1.1072 0.3918 0.2090
C15 C 0.9870(4) 0.4007(4) 0.1032(2)
H9 H 1.0339 0.3409 0.0761
C16 C 0.9994(7) 0.5639(6) 0.3042(3)
H10 H 1.0565 0.4988 0.3265
H11 H 1.0593 0.6442 0.3154
C17 C 0.9355(6) 0.6290(5) 0.4199(3)
C18 C 0.8369(6) 0.6550(5) 0.4610(3)
H12 H 0.7420 0.6484 0.4355
C19 C 0.8796(6) 0.6920(6) 0.5421(3)
C20 C 1.0236(6) 0.7032(5) 0.5784(3)
H13 H 1.0535 0.7266 0.6316
C21 C 1.1235(6) 0.6796(6) 0.5359(3)
C22 C 1.0797(6) 0.6438(6) 0.4558(3)
H14 H 1.1451 0.6300 0.4270
C23 C 0.7745(5) 0.7182(5) 0.5883(3)
C24 C 1.2764(6) 0.6969(6) 0.5790(3)
Cd1 Cd 0.5000 0.5000 -0.5000
Cd2 Cd 0.55787(4) 0.76003(4) -0.34218(2)
O1 O 0.5486(4) 0.4367(4) -0.3860(2)
O2 O 0.5950(4) 0.5939(3) -0.2830(2)
O3 O 0.5570(4) -0.0204(3) -0.3481(2)
O4 O 0.6192(4) -0.0679(3) -0.2325(2)
O5 O 0.6974(4) 0.3683(4) -0.0560(2)
O6 O 0.8951(4) 0.5881(4) 0.3431(2)
O7 O 0.6490(3) 0.6869(3) 0.5538(2)
O8 O 0.8106(4) 0.7680(4) 0.6576(2)
O9 O 1.3189(4) 0.7549(3) 0.6460(2)
O10 O 1.3530(4) 0.6496(4) 0.5379(2)
C1A C 0.3966(6) 0.6193(5) -0.7362(3)
C2A C 0.4126(6) 0.7526(5) -0.7054(3)
H1A H 0.4366 0.7822 -0.6526
C3A C 0.3920(6) 0.8400(6) -0.7550(3)
C4A C 0.3574(6) 0.7986(6) -0.8334(3)
H2A H 0.3457 0.8586 -0.8662
C5A C 0.3403(7) 0.6623(6) -0.8624(3)
C6A C 0.3622(6) 0.5710(5) -0.8145(3)
H3A H 0.3542 0.4813 -0.8341
C7A C 0.4243(6) 0.5264(5) -0.6839(3)
C8A C 0.4050(6) 0.9856(6) -0.7231(3)
C9A C 0.1657(7) 0.5679(6) -0.9826(3)
H4A H 0.0964 0.6223 -0.9658
H5A H 0.1591 0.4856 -0.9651
C10A C 0.1269(4) 0.5404(4) -1.06400(15)
C11A C 0.1970(4) 0.4510(4) -1.1045(2)
H6A H 0.2732 0.4116 -1.0783
C12A C 0.1531(4) 0.4205(4) -1.1841(2)
H7A H 0.2000 0.3607 -1.2111
C13A C 0.0391(4) 0.4794(4) -1.22323(15)
C14A C -0.0309(4) 0.5688(4) -1.1828(2)
H8A H -0.1072 0.6082 -1.2090
C15A C 0.0130(4) 0.5993(4) -1.1032(2)
H9A H -0.0339 0.6591 -1.0761
C16A C 0.0006(7) 0.4361(6) -1.3042(3)
H10A H -0.0565 0.5012 -1.3265
H11A H -0.0593 0.3558 -1.3154
C17A C 0.0645(6) 0.3710(5) -1.4199(3)
C18A C 0.1631(6) 0.3450(5) -1.4610(3)
H12A H 0.2580 0.3516 -1.4355
C19A C 0.1204(6) 0.3080(6) -1.5421(3)
C20A C -0.0236(6) 0.2968(5) -1.5784(3)
H13A H -0.0535 0.2734 -1.6316
C21A C -0.1235(6) 0.3204(6) -1.5359(3)
C22A C -0.0797(6) 0.3562(6) -1.4558(3)
H14A H -0.1451 0.3700 -1.4270
C23A C 0.2255(5) 0.2818(5) -1.5883(3)
C24A C -0.2764(6) 0.3031(6) -1.5790(3)
Cd1_2 Cd 0.5000 0.5000 0.5000
Cd1_3 Cd 1.5000 0.5000 0.5000
Cd1_4 Cd 0.5000 0.5000 -1.5000
Cd1_5 Cd -0.5000 0.5000 -1.5000
Cd2A Cd 0.44213(4) 0.23997(4) -0.65782(2)
Cd2_2 Cd 0.55787(4) -0.23997(4) -0.34218(2)
Cd2_3 Cd 0.55787(4) 0.76003(4) 0.65782(2)
Cd2_4 Cd 1.55787(4) 0.76003(4) 0.65782(2)
Cd2A_2 Cd 0.44213(4) 1.23997(4) -0.65782(2)
Cd2A_3 Cd 0.44213(4) 0.23997(4) -1.65782(2)
Cd2A_4 Cd -0.55787(4) 0.23997(4) -1.65782(2)
O1A O 0.4514(4) 0.5633(4) -0.6140(2)
O2A O 0.4050(4) 0.4061(3) -0.7170(2)
O3A O 0.4430(4) 1.0204(3) -0.6519(2)
O3_2 O 0.5570(4) 0.9796(3) -0.3481(2)
O3A_2 O 0.4430(4) 0.0204(3) -0.6519(2)
O4A O 0.3808(4) 1.0679(3) -0.7675(2)
O4_2 O 0.6192(4) 0.9321(3) -0.2325(2)
O4A_2 O 0.3808(4) 0.0679(3) -0.7675(2)
O5A O 0.3026(4) 0.6317(4) -0.9440(2)
O6A O 0.1049(4) 0.4119(4) -1.3431(2)
O7A O 0.3510(3) 0.3131(3) -1.5538(2)
O7_2 O 0.6490(3) 0.6869(3) -0.4462(2)
O7A_2 O 0.3510(3) 0.3131(3) -0.5538(2)
O8A O 0.1894(4) 0.2320(4) -1.6576(2)
O8_2 O 0.8106(4) 0.7680(4) -0.3424(2)
O8A_2 O 0.1894(4) 0.2320(4) -0.6576(2)
O9A O -0.3189(4) 0.2451(3) -1.6460(2)
O9_2 O 0.3189(4) 0.7549(3) -0.3540(2)
O9A_2 O 0.6811(4) 0.2451(3) -0.6460(2)
O10A O -0.3530(4) 0.3504(4) -1.5379(2)
O10_2 O 0.3530(4) 0.6496(4) -0.4621(2)
O10A_2 O 0.6470(4) 0.3504(4) -0.5379(2)
loop_
_geom_bond_atom_site_label_1
_geom_bond_atom_site_label_2
_geom_bond_site_symmetry_1
_geom_bond_site_symmetry_2
C1 C2 1_555 1_555
C2 H1 1_555 1_555
C3 C2 1_555 1_555
C4 C3 1_555 1_555
H2 C4 1_555 1_555
C5 C4 1_555 1_555
C6 C1 1_555 1_555
H3 C6 1_555 1_555
C7 C1 1_555 1_555
C8 C3 1_555 1_555
C9 H4 1_555 1_555
H5 C9 1_555 1_555
C10 C9 1_555 1_555
C11 C10 1_555 1_555
H6 C11 1_555 1_555
C12 C11 1_555 1_555
H7 C12 1_555 1_555
C13 C12 1_555 1_555
C14 C13 1_555 1_555
H8 C14 1_555 1_555
C15 C10 1_555 1_555
H9 C15 1_555 1_555
C16 C13 1_555 1_555
H10 C16 1_555 1_555
H11 C16 1_555 1_555
C17 C18 1_555 1_555
C18 H12 1_555 1_555
C19 C18 1_555 1_555
C20 C19 1_555 1_555
H13 C20 1_555 1_555
C21 C20 1_555 1_555
C22 C17 1_555 1_555
H14 C22 1_555 1_555
C23 C19 1_555 1_555
C24 C21 1_555 1_555
Cd1 O1 1_555 1_555
Cd2 O2 1_555 1_555
O1 C7 1_555 1_555
O2 C7 1_555 1_555
O3 C8 1_555 1_555
O4 C8 1_555 1_555
O5 C5 1_555 1_555
O6 C16 1_555 1_555
O7 C23 1_555 1_555
O8 C23 1_555 1_555
O9 C24 1_555 1_555
O10 C24 1_555 1_555
C1A C2A 1_555 1_555
C2A H1A 1_555 1_555
C3A C2A 1_555 1_555
C4A C3A 1_555 1_555
H2A C4A 1_555 1_555
C5A C4A 1_555 1_555
C6A C1A 1_555 1_555
H3A C6A 1_555 1_555
C7A C1A 1_555 1_555
C8A C3A 1_555 1_555
C9A H4A 1_555 1_555
H5A C9A 1_555 1_555
C10A C9A 1_555 1_555
C11A C10A 1_555 1_555
H6A C11A 1_555 1_555
C12A C11A 1_555 1_555
H7A C12A 1_555 1_555
C13A C12A 1_555 1_555
C14A C13A 1_555 1_555
H8A C14A 1_555 1_555
C15A C10A 1_555 1_555
H9A C15A 1_555 1_555
C16A C13A 1_555 1_555
H10A C16A 1_555 1_555
H11A C16A 1_555 1_555
C17A C18A 1_555 1_555
C18A H12A 1_555 1_555
C19A C18A 1_555 1_555
C20A C19A 1_555 1_555
H13A C20A 1_555 1_555
C21A C20A 1_555 1_555
C22A C17A 1_555 1_555
H14A C22A 1_555 1_555
C23A C19A 1_555 1_555
C24A C21A 1_555 1_555
Cd1_2 O7 1_555 1_555
Cd1_3 O10 1_555 1_555
Cd1_4 O7A 1_555 1_555
Cd1_5 O10A 1_555 1_555
Cd2A O2A 1_555 1_555
Cd2_2 O3 1_555 1_555
Cd2_3 O7 1_555 1_555
Cd2_4 O9 1_555 1_555
Cd2A_2 O3A 1_555 1_555
Cd2A_3 O7A 1_555 1_555
Cd2A_4 O9A 1_555 1_555
O1A Cd1 1_555 1_555
O2A C7A 1_555 1_555
O3A C8A 1_555 1_555
O3_2 Cd2 1_555 1_555
O3A_2 Cd2A 1_555 1_555
O4A C8A 1_555 1_555
O4_2 Cd2 1_555 1_555
O4A_2 Cd2A 1_555 1_555
O5A C5A 1_555 1_555
O6A C16A 1_555 1_555
O7A C23A 1_555 1_555
O7_2 Cd1 1_555 1_555
O7A_2 Cd1 1_555 1_555
O8A C23A 1_555 1_555
O8_2 Cd2 1_555 1_555
O8A_2 Cd2A 1_555 1_555
O9A C24A 1_555 1_555
O9_2 Cd2 1_555 1_555
O9A_2 Cd2A 1_555 1_555
O10A C24A 1_555 1_555
O10_2 Cd1 1_555 1_555
O10A_2 Cd1 1_555 1_555
C5 C6 1_555 1_555
C9 O5 1_555 1_555
C14 C15 1_555 1_555
C17 O6 1_555 1_555
C21 C22 1_555 1_555
Cd2 O7_2 1_555 1_555
O4 Cd2_2 1_555 1_555
O8 Cd2_3 1_555 1_555
C5A C6A 1_555 1_555
C7A O1A 1_555 1_555
C9A O5A 1_555 1_555
C14A C15A 1_555 1_555
C17A O6A 1_555 1_555
C21A C22A 1_555 1_555
Cd2A O7A_2 1_555 1_555
Cd2A_2 O4A 1_555 1_555
Cd2A_3 O8A 1_555 1_555

#END
