
#######################################################################
#
#                 Cambridge Crystallographic Data Centre
#                                CCDC 
#
#######################################################################
#
# If this CIF has been generated from an entry in the Cambridge 
# Structural Database, then it will include bibliographic, chemical, 
# crystal, experimental, refinement or atomic coordinate data resulting 
# from the CCDC's data processing and validation procedures.
#
#######################################################################

data_IBASUB
_chemical_formula_moiety         '(C24 H34 Cu3 N6 O26 Sm2)n'
_symmetry_cell_setting           trigonal
_symmetry_space_group_name_H-M   'P -3 c 1'
_symmetry_Int_Tables_number      165
_space_group_name_Hall           '-P 3 2"c'
loop_
_symmetry_equiv_pos_site_id
_symmetry_equiv_pos_as_xyz
1 x,y,z
2 -y,x-y,z
3 -x+y,-x,z
4 x-y,-y,1/2-z
5 -x,-x+y,1/2-z
6 y,x,1/2-z
7 -x,-y,-z
8 y,-x+y,-z
9 x-y,x,-z
10 -x+y,y,1/2+z
11 x,x-y,1/2+z
12 -y,-x,1/2+z
_cell_length_a                   13.4105(13)
_cell_length_b                   13.4105(13)
_cell_length_c                   14.5808(15)
_cell_angle_alpha                90
_cell_angle_beta                 90
_cell_angle_gamma                120
_cell_volume                     2270.92
loop_
_atom_site_label
_atom_site_type_symbol
_atom_site_fract_x
_atom_site_fract_y
_atom_site_fract_z
Sm1 Sm 0.6667 0.3333 0.33214(2)
Cu1 Cu 0.5000 0.5000 0.5000
O1 O 0.6377(2) 0.4508(2) 0.4430(2)
O2 O 0.8035(3) 0.5588(3) 0.3739(2)
O3 O 0.4756(2) 0.4021(2) 0.6071(2)
O4 O 0.5646(3) 0.3832(3) 0.7271(2)
N1 N 0.6515(2) 0.6096(2) 0.5582(2)
C1 C 0.7291(3) 0.5459(3) 0.4319(2)
C2 C 0.7454(3) 0.6473(3) 0.4897(2)
C3 C 0.6673(4) 0.5521(3) 0.6389(2)
C4 C 0.5625(3) 0.4382(3) 0.6592(2)
H1 H 0.6488 0.6725 0.5778
H2 H 0.8190 0.6810 0.5209
H3 H 0.7456 0.7057 0.4502
H4 H 0.6852 0.6019 0.6920
H5 H 0.7321 0.5405 0.6281
Sm1I Sm 0.6666 0.3333 -0.16786(2)
Sm1I_2 Sm 0.6666 0.3333 0.83214(2)
Cu1C Cu 1.0000 0.5000 0.0000
Cu1A Cu 0.5000 0.0000 0.5000
Cu1B Cu 1.0000 0.5000 0.5000
Cu1D Cu 0.5000 0.0000 0.0000
Cu1E Cu 0.5000 0.5000 0.0000
O1I O 0.8131(3) 0.4508(2) -0.0570(2)
O1A O 0.5492(2) 0.1869(3) 0.4430(2)
O1B O 0.8131(3) 0.3623(2) 0.4430(2)
O1J O 0.6377(2) 0.1869(3) -0.0570(2)
O1K O 0.5492(2) 0.3623(2) -0.0570(2)
O1F O 0.3623(2) 0.5492(2) 0.5570(2)
O1C O 1.1869(3) 0.5492(2) 0.0570(2)
O1G O 0.4508(2) -0.1869(3) 0.5570(2)
O2I O 0.7553(4) 0.5588(3) -0.1261(2)
O2A O 0.4412(3) 0.2447(4) 0.3739(2)
O2B O 0.7553(4) 0.1965(3) 0.3739(2)
O2J O 0.8035(3) 0.2447(4) -0.1261(2)
O2K O 0.4412(3) 0.1965(3) -0.1261(2)
O3I O 0.9265(3) 0.4021(2) 0.1071(2)
O3A O 0.5979(2) 0.0735(3) 0.6071(2)
O3B O 0.9265(3) 0.5244(2) 0.6071(2)
O3J O 0.4756(2) 0.0735(3) 0.1071(2)
O3K O 0.5979(2) 0.5244(2) 0.1071(2)
O3F O 0.5244(2) 0.5979(2) 0.3929(2)
O3C O 1.0735(3) 0.5979(2) -0.1071(2)
O3G O 0.4021(2) -0.0735(3) 0.3929(2)
O4I O 0.8186(4) 0.3832(3) 0.2271(2)
O4A O 0.6168(3) 0.1814(4) 0.7271(2)
O4B O 0.8186(4) 0.4354(3) 0.7271(2)
O4J O 0.5646(3) 0.1814(4) 0.2271(2)
O4K O 0.6168(3) 0.4354(3) 0.2271(2)
O4_2 O 0.5646(3) 0.3832(3) -0.2729(2)
O4A_2 O 0.6168(3) 0.1814(4) -0.2729(2)
O4B_2 O 0.8186(4) 0.4354(3) -0.2729(2)
N1I N 0.9581(3) 0.6096(2) 0.0582(2)
N1A N 0.3904(2) 0.0419(3) 0.5582(2)
N1B N 0.9581(3) 0.3485(2) 0.5582(2)
N1J N 0.6515(2) 0.0419(3) 0.0582(2)
N1K N 0.3904(2) 0.3485(2) 0.0582(2)
N1F N 0.3485(2) 0.3904(2) 0.4418(2)
N1C N 1.0419(3) 0.3904(2) -0.0582(2)
N1G N 0.6096(2) -0.0419(3) 0.4418(2)
C1I C 0.8168(4) 0.5459(3) -0.0681(2)
C1A C 0.4541(3) 0.1832(4) 0.4319(2)
C1B C 0.8168(4) 0.2709(3) 0.4319(2)
C1J C 0.7291(3) 0.1832(4) -0.0681(2)
C1K C 0.4541(3) 0.2709(3) -0.0681(2)
C2I C 0.9019(4) 0.6473(3) -0.0103(2)
C2A C 0.3527(3) 0.0981(4) 0.4897(2)
C2B C 0.9019(4) 0.2546(3) 0.4897(2)
C2J C 0.7454(3) 0.0981(4) -0.0103(2)
C2K C 0.3527(3) 0.2546(3) -0.0103(2)
C3I C 0.8848(5) 0.5521(3) 0.1389(2)
C3A C 0.4479(3) 0.1152(5) 0.6389(2)
C3B C 0.8848(5) 0.3327(4) 0.6389(2)
C3J C 0.6673(4) 0.1152(5) 0.1389(2)
C3K C 0.4479(3) 0.3327(4) 0.1389(2)
C4I C 0.8757(4) 0.4382(3) 0.1592(2)
C4A C 0.5618(3) 0.1243(4) 0.6592(2)
C4B C 0.8757(4) 0.4375(3) 0.6592(2)
C4J C 0.5625(3) 0.1243(4) 0.1592(2)
C4K C 0.5618(3) 0.4375(3) 0.1592(2)
H1I H 1.0237 0.6725 0.0778
H1A H 0.3275 -0.0237 0.5778
H1B H 1.0237 0.3512 0.5778
H1J H 0.6488 -0.0237 0.0778
H1K H 0.3275 0.3512 0.0778
H1F H 0.3512 0.3275 0.4222
H1C H 0.9763 0.3275 -0.0778
H1G H 0.6725 0.0237 0.4222
H2I H 0.8620 0.6810 0.0209
H2A H 0.3190 0.1380 0.5209
H2B H 0.8620 0.1810 0.5209
H2J H 0.8190 0.1380 0.0209
H2K H 0.3190 0.1810 0.0209
H3I H 0.9601 0.7057 -0.0498
H3A H 0.2943 0.0399 0.4502
H3B H 0.9601 0.2544 0.4502
H3J H 0.7456 0.0399 -0.0498
H3K H 0.2943 0.2544 -0.0498
H4I H 0.9167 0.6019 0.1920
H4A H 0.3981 0.0833 0.6920
H4B H 0.9167 0.3148 0.6920
H4J H 0.6852 0.0833 0.1920
H4K H 0.3981 0.3148 0.1920
H5I H 0.8084 0.5405 0.1281
H5A H 0.4595 0.1916 0.6281
H5B H 0.8084 0.2679 0.6281
H5J H 0.7321 0.1916 0.1281
H5K H 0.4595 0.2679 0.1281
O5 O 0.2799(8) 0.0000 0.2500
O6 O 0.171(2) 0.1613(12) 0.3349(10)
loop_
_geom_bond_atom_site_label_1
_geom_bond_atom_site_label_2
_geom_bond_site_symmetry_1
_geom_bond_site_symmetry_2
Sm1 O1 1_555 1_555
Cu1 O1 1_555 1_555
O1 C1 1_555 1_555
O2 Sm1 1_555 1_555
O3 Cu1 1_555 1_555
O4 C4 1_555 1_555
N1 Cu1 1_555 1_555
C1 O2 1_555 1_555
C2 N1 1_555 1_555
C3 N1 1_555 1_555
C4 O3 1_555 1_555
H1 N1 1_555 1_555
H2 C2 1_555 1_555
H3 C2 1_555 1_555
H4 C3 1_555 1_555
H5 C3 1_555 1_555
Sm1I O1I 1_555 1_555
Sm1I_2 O4 1_555 1_555
Cu1C O1I 1_555 1_555
Cu1A O1A 1_555 1_555
Cu1B O1B 1_555 1_555
Cu1D O1J 1_555 1_555
Cu1E O1K 1_555 1_555
O1I C1I 1_555 1_555
O1A Sm1 1_555 1_555
O1B Sm1 1_555 1_555
O1J Sm1I 1_555 1_555
O1K Sm1I 1_555 1_555
O1F Cu1 1_555 1_555
O1C Cu1C 1_555 1_555
O1G Cu1A 1_555 1_555
O2I Sm1I 1_555 1_555
O2A Sm1 1_555 1_555
O2B Sm1 1_555 1_555
O2J Sm1I 1_555 1_555
O2K Sm1I 1_555 1_555
O3I Cu1C 1_555 1_555
O3A Cu1A 1_555 1_555
O3B Cu1B 1_555 1_555
O3J Cu1D 1_555 1_555
O3K Cu1E 1_555 1_555
O3F Cu1 1_555 1_555
O3C Cu1C 1_555 1_555
O3G Cu1A 1_555 1_555
O4I Sm1 1_555 1_555
O4A Sm1I_2 1_555 1_555
O4B Sm1I_2 1_555 1_555
O4J Sm1 1_555 1_555
O4K Sm1 1_555 1_555
O4_2 Sm1I 1_555 1_555
O4A_2 Sm1I 1_555 1_555
O4B_2 Sm1I 1_555 1_555
N1I Cu1C 1_555 1_555
N1A Cu1A 1_555 1_555
N1B Cu1B 1_555 1_555
N1J Cu1D 1_555 1_555
N1K Cu1E 1_555 1_555
N1F Cu1 1_555 1_555
N1C Cu1C 1_555 1_555
N1G Cu1A 1_555 1_555
C1I O2I 1_555 1_555
C1A O1A 1_555 1_555
C1B O1B 1_555 1_555
C1J O1J 1_555 1_555
C1K O1K 1_555 1_555
C2I N1I 1_555 1_555
C2A N1A 1_555 1_555
C2B N1B 1_555 1_555
C2J N1J 1_555 1_555
C2K N1K 1_555 1_555
C3I N1I 1_555 1_555
C3A N1A 1_555 1_555
C3B N1B 1_555 1_555
C3J N1J 1_555 1_555
C3K N1K 1_555 1_555
C4I O3I 1_555 1_555
C4A O3A 1_555 1_555
C4B O3B 1_555 1_555
C4J O3J 1_555 1_555
C4K O3K 1_555 1_555
H1I N1I 1_555 1_555
H1A N1A 1_555 1_555
H1B N1B 1_555 1_555
H1J N1J 1_555 1_555
H1K N1K 1_555 1_555
H1F N1F 1_555 1_555
H1C N1C 1_555 1_555
H1G N1G 1_555 1_555
H2I C2I 1_555 1_555
H2A C2A 1_555 1_555
H2B C2B 1_555 1_555
H2J C2J 1_555 1_555
H2K C2K 1_555 1_555
H3I C2I 1_555 1_555
H3A C2A 1_555 1_555
H3B C2B 1_555 1_555
H3J C2J 1_555 1_555
H3K C2K 1_555 1_555
H4I C3I 1_555 1_555
H4A C3A 1_555 1_555
H4B C3B 1_555 1_555
H4J C3J 1_555 1_555
H4K C3K 1_555 1_555
H5I C3I 1_555 1_555
H5A C3A 1_555 1_555
H5B C3B 1_555 1_555
H5J C3J 1_555 1_555
H5K C3K 1_555 1_555
C1 C2 1_555 1_555
C3 C4 1_555 1_555
O2A C1A 1_555 1_555
O2B C1B 1_555 1_555
O2J C1J 1_555 1_555
O2K C1K 1_555 1_555
O4I C4I 1_555 1_555
O4A C4A 1_555 1_555
O4B C4B 1_555 1_555
O4J C4J 1_555 1_555
O4K C4K 1_555 1_555
C1I C2I 1_555 1_555
C1A C2A 1_555 1_555
C1B C2B 1_555 1_555
C1J C2J 1_555 1_555
C1K C2K 1_555 1_555
C3I C4I 1_555 1_555
C3A C4A 1_555 1_555
C3B C4B 1_555 1_555
C3J C4J 1_555 1_555
C3K C4K 1_555 1_555

#END
