
#######################################################################
#
#                 Cambridge Crystallographic Data Centre
#                                CCDC 
#
#######################################################################
#
# If this CIF has been generated from an entry in the Cambridge 
# Structural Database, then it will include bibliographic, chemical, 
# crystal, experimental, refinement or atomic coordinate data resulting 
# from the CCDC's data processing and validation procedures.
#
#######################################################################

data_IBASEL
_chemical_formula_moiety         '(C24 H34 Cu3 La2 N6 O26)n'
_symmetry_cell_setting           trigonal
_symmetry_space_group_name_H-M   'P -3 c 1'
_symmetry_Int_Tables_number      165
_space_group_name_Hall           '-P 3 2"c'
loop_
_symmetry_equiv_pos_site_id
_symmetry_equiv_pos_as_xyz
1 x,y,z
2 -y,x-y,z
3 -x+y,-x,z
4 x-y,-y,1/2-z
5 -x,-x+y,1/2-z
6 y,x,1/2-z
7 -x,-y,-z
8 y,-x+y,-z
9 x-y,x,-z
10 -x+y,y,1/2+z
11 x,x-y,1/2+z
12 -y,-x,1/2+z
_cell_length_a                   13.4946(18)
_cell_length_b                   13.4946(18)
_cell_length_c                   14.912(2)
_cell_angle_alpha                90
_cell_angle_beta                 90
_cell_angle_gamma                120
_cell_volume                     2351.73
loop_
_atom_site_label
_atom_site_type_symbol
_atom_site_fract_x
_atom_site_fract_y
_atom_site_fract_z
La1 La 0.6667 0.3333 0.33088(2)
Cu1 Cu 0.5000 0.5000 0.5000
O1 O 0.6357(2) 0.4527(2) 0.4440(2)
O2 O 0.8013(3) 0.5610(3) 0.3775(2)
O3 O 0.4763(2) 0.4033(2) 0.60479(19)
O4 O 0.5638(3) 0.3872(3) 0.7241(2)
N1 N 0.6505(3) 0.6104(2) 0.5578(2)
C1 C 0.7271(3) 0.5470(3) 0.4341(2)
C2 C 0.7437(3) 0.6478(3) 0.4913(2)
C3 C 0.6659(4) 0.5536(4) 0.6368(2)
C4 C 0.5607(3) 0.4391(3) 0.6571(3)
H1 H 0.6472 0.6728 0.5767
H2 H 0.8167 0.6805 0.5221
H3 H 0.7447 0.7065 0.4531
H4 H 0.6836 0.6032 0.6885
H5 H 0.7304 0.5421 0.6264
La1I La 0.6666 0.3333 -0.16912(2)
La1I_2 La 0.6666 0.3333 0.83088(2)
Cu1C Cu 1.0000 0.5000 0.0000
Cu1A Cu 0.5000 0.0000 0.5000
Cu1B Cu 1.0000 0.5000 0.5000
Cu1D Cu 0.5000 0.0000 0.0000
Cu1E Cu 0.5000 0.5000 0.0000
O1I O 0.8170(3) 0.4527(2) -0.0560(2)
O1A O 0.5473(2) 0.1830(3) 0.4440(2)
O1B O 0.8170(3) 0.3643(2) 0.4440(2)
O1J O 0.6357(2) 0.1830(3) -0.0560(2)
O1K O 0.5473(2) 0.3643(2) -0.0560(2)
O1F O 0.3643(2) 0.5473(2) 0.5560(2)
O1C O 1.1830(3) 0.5473(2) 0.0560(2)
O1G O 0.4527(2) -0.1830(3) 0.5560(2)
O2I O 0.7597(4) 0.5610(3) -0.1225(2)
O2A O 0.4390(3) 0.2403(4) 0.3775(2)
O2B O 0.7597(4) 0.1987(3) 0.3775(2)
O2J O 0.8013(3) 0.2403(4) -0.1225(2)
O2K O 0.4390(3) 0.1987(3) -0.1225(2)
O3I O 0.9270(3) 0.4033(2) 0.10479(19)
O3A O 0.5967(2) 0.0730(3) 0.60479(19)
O3B O 0.9270(3) 0.5237(2) 0.60479(19)
O3J O 0.4763(2) 0.0730(3) 0.10479(19)
O3K O 0.5967(2) 0.5237(2) 0.10479(19)
O3F O 0.5237(2) 0.5967(2) 0.39521(19)
O3C O 1.0730(3) 0.5967(2) -0.10479(19)
O3G O 0.4033(2) -0.0730(3) 0.39521(19)
O4I O 0.8234(4) 0.3872(3) 0.2241(2)
O4A O 0.6128(3) 0.1766(4) 0.7241(2)
O4B O 0.8234(4) 0.4362(3) 0.7241(2)
O4J O 0.5638(3) 0.1766(4) 0.2241(2)
O4K O 0.6128(3) 0.4362(3) 0.2241(2)
O4_2 O 0.5638(3) 0.3872(3) -0.2759(2)
O4A_2 O 0.6128(3) 0.1766(4) -0.2759(2)
O4B_2 O 0.8234(4) 0.4362(3) -0.2759(2)
N1I N 0.9599(4) 0.6104(2) 0.0578(2)
N1A N 0.3896(2) 0.0401(4) 0.5578(2)
N1B N 0.9599(4) 0.3495(3) 0.5578(2)
N1J N 0.6505(3) 0.0401(4) 0.0578(2)
N1K N 0.3896(2) 0.3495(3) 0.0578(2)
N1F N 0.3495(3) 0.3896(2) 0.4422(2)
N1C N 1.0401(4) 0.3896(2) -0.0578(2)
N1G N 0.6104(2) -0.0401(4) 0.4422(2)
C1I C 0.8199(4) 0.5470(3) -0.0659(2)
C1A C 0.4530(3) 0.1801(4) 0.4341(2)
C1B C 0.8199(4) 0.2729(3) 0.4341(2)
C1J C 0.7271(3) 0.1801(4) -0.0659(2)
C1K C 0.4530(3) 0.2729(3) -0.0659(2)
C2I C 0.9041(4) 0.6478(3) -0.0087(2)
C2A C 0.3522(3) 0.0959(4) 0.4913(2)
C2B C 0.9041(4) 0.2563(3) 0.4913(2)
C2J C 0.7437(3) 0.0959(4) -0.0087(2)
C2K C 0.3522(3) 0.2563(3) -0.0087(2)
C3I C 0.8877(6) 0.5536(4) 0.1368(2)
C3A C 0.4464(4) 0.1123(6) 0.6368(2)
C3B C 0.8877(6) 0.3341(4) 0.6368(2)
C3J C 0.6659(4) 0.1123(6) 0.1368(2)
C3K C 0.4464(4) 0.3341(4) 0.1368(2)
C4I C 0.8784(4) 0.4391(3) 0.1571(3)
C4A C 0.5609(3) 0.1216(4) 0.6571(3)
C4B C 0.8784(4) 0.4393(3) 0.6571(3)
C4J C 0.5607(3) 0.1216(4) 0.1571(3)
C4K C 0.5609(3) 0.4393(3) 0.1571(3)
H1I H 1.0256 0.6728 0.0767
H1A H 0.3272 -0.0256 0.5767
H1B H 1.0256 0.3528 0.5767
H1J H 0.6472 -0.0256 0.0767
H1K H 0.3272 0.3528 0.0767
H1F H 0.3528 0.3272 0.4233
H1C H 0.9744 0.3272 -0.0767
H1G H 0.6728 0.0256 0.4233
H2I H 0.8638 0.6805 0.0221
H2A H 0.3195 0.1362 0.5221
H2B H 0.8638 0.1833 0.5221
H2J H 0.8167 0.1362 0.0221
H2K H 0.3195 0.1833 0.0221
H3I H 0.9618 0.7065 -0.0469
H3A H 0.2935 0.0382 0.4531
H3B H 0.9618 0.2553 0.4531
H3J H 0.7447 0.0382 -0.0469
H3K H 0.2935 0.2553 -0.0469
H4I H 0.9196 0.6032 0.1885
H4A H 0.3968 0.0804 0.6885
H4B H 0.9196 0.3164 0.6885
H4J H 0.6836 0.0804 0.1885
H4K H 0.3968 0.3164 0.1885
H5I H 0.8117 0.5421 0.1264
H5A H 0.4579 0.1883 0.6264
H5B H 0.8117 0.2696 0.6264
H5J H 0.7304 0.1883 0.1264
H5K H 0.4579 0.2696 0.1264
O5 O 0.2830(8) 0.0000 0.2500
O6 O 0.173(2) 0.1638(13) 0.3367(9)
loop_
_geom_bond_atom_site_label_1
_geom_bond_atom_site_label_2
_geom_bond_site_symmetry_1
_geom_bond_site_symmetry_2
La1 O1 1_555 1_555
Cu1 O1 1_555 1_555
O1 C1 1_555 1_555
O2 La1 1_555 1_555
O3 Cu1 1_555 1_555
O4 C4 1_555 1_555
N1 Cu1 1_555 1_555
C1 O2 1_555 1_555
C2 N1 1_555 1_555
C3 N1 1_555 1_555
C4 O3 1_555 1_555
H1 N1 1_555 1_555
H2 C2 1_555 1_555
H3 C2 1_555 1_555
H4 C3 1_555 1_555
H5 C3 1_555 1_555
La1I O1I 1_555 1_555
La1I_2 O4 1_555 1_555
Cu1C O1I 1_555 1_555
Cu1A O1A 1_555 1_555
Cu1B O1B 1_555 1_555
Cu1D O1J 1_555 1_555
Cu1E O1K 1_555 1_555
O1I C1I 1_555 1_555
O1A La1 1_555 1_555
O1B La1 1_555 1_555
O1J La1I 1_555 1_555
O1K La1I 1_555 1_555
O1F Cu1 1_555 1_555
O1C Cu1C 1_555 1_555
O1G Cu1A 1_555 1_555
O2I La1I 1_555 1_555
O2A La1 1_555 1_555
O2B La1 1_555 1_555
O2J La1I 1_555 1_555
O2K La1I 1_555 1_555
O3I Cu1C 1_555 1_555
O3A Cu1A 1_555 1_555
O3B Cu1B 1_555 1_555
O3J Cu1D 1_555 1_555
O3K Cu1E 1_555 1_555
O3F Cu1 1_555 1_555
O3C Cu1C 1_555 1_555
O3G Cu1A 1_555 1_555
O4I La1 1_555 1_555
O4A La1I_2 1_555 1_555
O4B La1I_2 1_555 1_555
O4J La1 1_555 1_555
O4K La1 1_555 1_555
O4_2 La1I 1_555 1_555
O4A_2 La1I 1_555 1_555
O4B_2 La1I 1_555 1_555
N1I Cu1C 1_555 1_555
N1A Cu1A 1_555 1_555
N1B Cu1B 1_555 1_555
N1J Cu1D 1_555 1_555
N1K Cu1E 1_555 1_555
N1F Cu1 1_555 1_555
N1C Cu1C 1_555 1_555
N1G Cu1A 1_555 1_555
C1I O2I 1_555 1_555
C1A O1A 1_555 1_555
C1B O1B 1_555 1_555
C1J O1J 1_555 1_555
C1K O1K 1_555 1_555
C2I N1I 1_555 1_555
C2A N1A 1_555 1_555
C2B N1B 1_555 1_555
C2J N1J 1_555 1_555
C2K N1K 1_555 1_555
C3I N1I 1_555 1_555
C3A N1A 1_555 1_555
C3B N1B 1_555 1_555
C3J N1J 1_555 1_555
C3K N1K 1_555 1_555
C4I O3I 1_555 1_555
C4A O3A 1_555 1_555
C4B O3B 1_555 1_555
C4J O3J 1_555 1_555
C4K O3K 1_555 1_555
H1I N1I 1_555 1_555
H1A N1A 1_555 1_555
H1B N1B 1_555 1_555
H1J N1J 1_555 1_555
H1K N1K 1_555 1_555
H1F N1F 1_555 1_555
H1C N1C 1_555 1_555
H1G N1G 1_555 1_555
H2I C2I 1_555 1_555
H2A C2A 1_555 1_555
H2B C2B 1_555 1_555
H2J C2J 1_555 1_555
H2K C2K 1_555 1_555
H3I C2I 1_555 1_555
H3A C2A 1_555 1_555
H3B C2B 1_555 1_555
H3J C2J 1_555 1_555
H3K C2K 1_555 1_555
H4I C3I 1_555 1_555
H4A C3A 1_555 1_555
H4B C3B 1_555 1_555
H4J C3J 1_555 1_555
H4K C3K 1_555 1_555
H5I C3I 1_555 1_555
H5A C3A 1_555 1_555
H5B C3B 1_555 1_555
H5J C3J 1_555 1_555
H5K C3K 1_555 1_555
C1 C2 1_555 1_555
C3 C4 1_555 1_555
O2A C1A 1_555 1_555
O2B C1B 1_555 1_555
O2J C1J 1_555 1_555
O2K C1K 1_555 1_555
O4I C4I 1_555 1_555
O4A C4A 1_555 1_555
O4B C4B 1_555 1_555
O4J C4J 1_555 1_555
O4K C4K 1_555 1_555
C1I C2I 1_555 1_555
C1A C2A 1_555 1_555
C1B C2B 1_555 1_555
C1J C2J 1_555 1_555
C1K C2K 1_555 1_555
C3I C4I 1_555 1_555
C3A C4A 1_555 1_555
C3B C4B 1_555 1_555
C3J C4J 1_555 1_555
C3K C4K 1_555 1_555

#END
