
#######################################################################
#
#                 Cambridge Crystallographic Data Centre
#                                CCDC 
#
#######################################################################
#
# If this CIF has been generated from an entry in the Cambridge 
# Structural Database, then it will include bibliographic, chemical, 
# crystal, experimental, refinement or atomic coordinate data resulting 
# from the CCDC's data processing and validation procedures.
#
#######################################################################

data_IBASOV
_chemical_formula_moiety         '(C24 H34 Cu3 N6 Nd2 O26)n'
_symmetry_cell_setting           trigonal
_symmetry_space_group_name_H-M   'P -3 c 1'
_symmetry_Int_Tables_number      165
_space_group_name_Hall           '-P 3 2"c'
loop_
_symmetry_equiv_pos_site_id
_symmetry_equiv_pos_as_xyz
1 x,y,z
2 -y,x-y,z
3 -x+y,-x,z
4 x-y,-y,1/2-z
5 -x,-x+y,1/2-z
6 y,x,1/2-z
7 -x,-y,-z
8 y,-x+y,-z
9 x-y,x,-z
10 -x+y,y,1/2+z
11 x,x-y,1/2+z
12 -y,-x,1/2+z
_cell_length_a                   13.4567(16)
_cell_length_b                   13.4567(16)
_cell_length_c                   14.6982(19)
_cell_angle_alpha                90
_cell_angle_beta                 90
_cell_angle_gamma                120
_cell_volume                     2305.01
loop_
_atom_site_label
_atom_site_type_symbol
_atom_site_fract_x
_atom_site_fract_y
_atom_site_fract_z
Nd1 Nd 0.6667 0.3333 0.33178(2)
Cu1 Cu 0.5000 0.0000 0.5000
O1 O 0.5489(2) 0.1855(2) 0.4435(2)
O2 O 0.4409(3) 0.2427(3) 0.3750(2)
O3 O 0.5975(3) 0.0731(2) 0.6064(2)
O4 O 0.6147(3) 0.1796(3) 0.7262(2)
N1 N 0.3899(3) 0.0409(2) 0.5581(2)
C1 C 0.4538(3) 0.1821(3) 0.4325(2)
C2 C 0.3526(3) 0.0974(3) 0.4904(3)
C3 C 0.4471(4) 0.1135(4) 0.6383(3)
C4 C 0.5617(3) 0.1232(4) 0.6585(2)
H1 H 0.3272 -0.0249 0.5772
H2 H 0.3197 0.1376 0.5218
H3 H 0.2939 0.0397 0.4515
H4 H 0.3975 0.0813 0.6909
H5 H 0.4582 0.1896 0.6279
Nd1I Nd 0.6666 0.3333 -0.16822(2)
Nd1I_2 Nd 0.6666 0.3333 0.83178(2)
Cu1C Cu 0.5000 0.0000 0.0000
Cu1A Cu 1.0000 0.5000 0.5000
Cu1E Cu 1.0000 0.5000 0.0000
Cu1B Cu 0.5000 0.5000 0.5000
Cu1D Cu 0.5000 0.5000 0.0000
O1I O 0.6366(3) 0.1855(2) -0.0565(2)
O1A O 0.8145(2) 0.3634(3) 0.4435(2)
O1K O 0.8145(2) 0.4511(2) -0.0565(2)
O1B O 0.6366(3) 0.4511(2) 0.4435(2)
O1J O 0.5489(2) 0.3634(3) -0.0565(2)
O1F O 0.4511(2) -0.1855(2) 0.5565(2)
O1C O 0.3634(3) -0.1855(2) 0.0565(2)
O1G O 1.1855(2) 0.6366(3) 0.5565(2)
O2I O 0.8018(4) 0.2427(3) -0.1250(2)
O2A O 0.7573(3) 0.1982(4) 0.3750(2)
O2K O 0.7573(3) 0.5591(3) -0.1250(2)
O2B O 0.8018(4) 0.5591(3) 0.3750(2)
O2J O 0.4409(3) 0.1982(4) -0.1250(2)
O3I O 0.4756(4) 0.0731(2) 0.1064(2)
O3A O 0.9269(2) 0.5244(4) 0.6064(2)
O3K O 0.9269(2) 0.4025(3) 0.1064(2)
O3B O 0.4756(4) 0.4025(3) 0.6064(2)
O3J O 0.5975(3) 0.5244(4) 0.1064(2)
O3F O 0.4025(3) -0.0731(2) 0.3936(2)
O3C O 0.5244(4) -0.0731(2) -0.1064(2)
O3G O 1.0731(2) 0.4756(4) 0.3936(2)
O4I O 0.5649(4) 0.1796(3) 0.2262(2)
O4A O 0.8204(3) 0.4351(4) 0.7262(2)
O4K O 0.8204(3) 0.3853(3) 0.2262(2)
O4B O 0.5649(4) 0.3853(3) 0.7262(2)
O4J O 0.6147(3) 0.4351(4) 0.2262(2)
O4_2 O 0.6147(3) 0.1796(3) -0.2738(2)
O4B_2 O 0.5649(4) 0.3853(3) -0.2738(2)
O4A_2 O 0.8204(3) 0.4351(4) -0.2738(2)
N1I N 0.6510(4) 0.0409(2) 0.0581(2)
N1A N 0.9591(2) 0.3490(4) 0.5581(2)
N1K N 0.9591(2) 0.6101(3) 0.0581(2)
N1B N 0.6510(4) 0.6101(3) 0.5581(2)
N1J N 0.3899(3) 0.3490(4) 0.0581(2)
N1F N 0.6101(3) -0.0409(2) 0.4419(2)
N1C N 0.3490(4) -0.0409(2) -0.0581(2)
N1G N 1.0409(2) 0.6510(4) 0.4419(2)
C1I C 0.7283(4) 0.1821(3) -0.0675(2)
C1A C 0.8179(3) 0.2717(4) 0.4325(2)
C1K C 0.8179(3) 0.5462(3) -0.0675(2)
C1B C 0.7283(4) 0.5462(3) 0.4325(2)
C1J C 0.4538(3) 0.2717(4) -0.0675(2)
C2I C 0.7448(4) 0.0974(3) -0.0096(3)
C2A C 0.9026(3) 0.2552(4) 0.4904(3)
C2K C 0.9026(3) 0.6474(3) -0.0096(3)
C2B C 0.7448(4) 0.6474(3) 0.4904(3)
C2J C 0.3526(3) 0.2552(4) -0.0096(3)
C3I C 0.6664(6) 0.1135(4) 0.1383(3)
C3A C 0.8865(4) 0.3336(6) 0.6383(3)
C3K C 0.8865(4) 0.5529(4) 0.1383(3)
C3B C 0.6664(6) 0.5529(4) 0.6383(3)
C3J C 0.4471(4) 0.3336(6) 0.1383(3)
C4I C 0.5615(5) 0.1232(4) 0.1585(2)
C4A C 0.8768(4) 0.4385(5) 0.6585(2)
C4K C 0.8768(4) 0.4383(3) 0.1585(2)
C4B C 0.5615(5) 0.4383(3) 0.6585(2)
C4J C 0.5617(3) 0.4385(5) 0.1585(2)
H1I H 0.6479 -0.0249 0.0772
H1A H 1.0249 0.3521 0.5772
H1K H 1.0249 0.6728 0.0772
H1B H 0.6479 0.6728 0.5772
H1J H 0.3272 0.3521 0.0772
H1F H 0.6728 0.0249 0.4228
H1C H 0.3521 0.0249 -0.0772
H1G H 0.9751 0.6479 0.4228
H2I H 0.8179 0.1376 0.0218
H2A H 0.8624 0.1821 0.5218
H2K H 0.8624 0.6803 0.0218
H2B H 0.8179 0.6803 0.5218
H2J H 0.3197 0.1821 0.0218
H3I H 0.7458 0.0397 -0.0485
H3A H 0.9603 0.2542 0.4515
H3K H 0.9603 0.7061 -0.0485
H3B H 0.7458 0.7061 0.4515
H3J H 0.2939 0.2542 -0.0485
H4I H 0.6838 0.0813 0.1909
H4A H 0.9187 0.3162 0.6909
H4K H 0.9187 0.6025 0.1909
H4B H 0.6838 0.6025 0.6909
H4J H 0.3975 0.3162 0.1909
H5I H 0.7314 0.1896 0.1279
H5A H 0.8104 0.2686 0.6279
H5K H 0.8104 0.5418 0.1279
H5B H 0.7314 0.5418 0.6279
H5J H 0.4582 0.2686 0.1279
O5 O 0.2802(9) 0.0000 0.2500
O6 O 0.173(2) 0.1621(13) 0.3352(10)
loop_
_geom_bond_atom_site_label_1
_geom_bond_atom_site_label_2
_geom_bond_site_symmetry_1
_geom_bond_site_symmetry_2
Nd1 O1 1_555 1_555
Cu1 O1 1_555 1_555
O1 C1 1_555 1_555
O2 Nd1 1_555 1_555
O3 Cu1 1_555 1_555
O4 C4 1_555 1_555
N1 Cu1 1_555 1_555
C1 O2 1_555 1_555
C2 N1 1_555 1_555
C3 N1 1_555 1_555
C4 O3 1_555 1_555
H1 N1 1_555 1_555
H2 C2 1_555 1_555
H3 C2 1_555 1_555
H4 C3 1_555 1_555
H5 C3 1_555 1_555
Nd1I O1I 1_555 1_555
Nd1I_2 O4 1_555 1_555
Cu1C O1I 1_555 1_555
Cu1A O1A 1_555 1_555
Cu1E O1K 1_555 1_555
Cu1B O1B 1_555 1_555
Cu1D O1J 1_555 1_555
O1I C1I 1_555 1_555
O1A Nd1 1_555 1_555
O1K Nd1I 1_555 1_555
O1B Nd1 1_555 1_555
O1J Nd1I 1_555 1_555
O1F Cu1 1_555 1_555
O1C Cu1C 1_555 1_555
O1G Cu1A 1_555 1_555
O2I Nd1I 1_555 1_555
O2A Nd1 1_555 1_555
O2K Nd1I 1_555 1_555
O2B Nd1 1_555 1_555
O2J Nd1I 1_555 1_555
O3I Cu1C 1_555 1_555
O3A Cu1A 1_555 1_555
O3K Cu1E 1_555 1_555
O3B Cu1B 1_555 1_555
O3J Cu1D 1_555 1_555
O3F Cu1 1_555 1_555
O3C Cu1C 1_555 1_555
O3G Cu1A 1_555 1_555
O4I Nd1 1_555 1_555
O4A Nd1I_2 1_555 1_555
O4K Nd1 1_555 1_555
O4B Nd1I_2 1_555 1_555
O4J Nd1 1_555 1_555
O4_2 Nd1I 1_555 1_555
O4B_2 Nd1I 1_555 1_555
O4A_2 Nd1I 1_555 1_555
N1I Cu1C 1_555 1_555
N1A Cu1A 1_555 1_555
N1K Cu1E 1_555 1_555
N1B Cu1B 1_555 1_555
N1J Cu1D 1_555 1_555
N1F Cu1 1_555 1_555
N1C Cu1C 1_555 1_555
N1G Cu1A 1_555 1_555
C1I O2I 1_555 1_555
C1A O1A 1_555 1_555
C1K O1K 1_555 1_555
C1B O1B 1_555 1_555
C1J O1J 1_555 1_555
C2I N1I 1_555 1_555
C2A N1A 1_555 1_555
C2K N1K 1_555 1_555
C2B N1B 1_555 1_555
C2J N1J 1_555 1_555
C3I N1I 1_555 1_555
C3A N1A 1_555 1_555
C3K N1K 1_555 1_555
C3B N1B 1_555 1_555
C3J N1J 1_555 1_555
C4I O3I 1_555 1_555
C4A O3A 1_555 1_555
C4K O3K 1_555 1_555
C4B O3B 1_555 1_555
C4J O3J 1_555 1_555
H1I N1I 1_555 1_555
H1A N1A 1_555 1_555
H1K N1K 1_555 1_555
H1B N1B 1_555 1_555
H1J N1J 1_555 1_555
H1F N1F 1_555 1_555
H1C N1C 1_555 1_555
H1G N1G 1_555 1_555
H2I C2I 1_555 1_555
H2A C2A 1_555 1_555
H2K C2K 1_555 1_555
H2B C2B 1_555 1_555
H2J C2J 1_555 1_555
H3I C2I 1_555 1_555
H3A C2A 1_555 1_555
H3K C2K 1_555 1_555
H3B C2B 1_555 1_555
H3J C2J 1_555 1_555
H4I C3I 1_555 1_555
H4A C3A 1_555 1_555
H4K C3K 1_555 1_555
H4B C3B 1_555 1_555
H4J C3J 1_555 1_555
H5I C3I 1_555 1_555
H5A C3A 1_555 1_555
H5K C3K 1_555 1_555
H5B C3B 1_555 1_555
H5J C3J 1_555 1_555
C1 C2 1_555 1_555
C3 C4 1_555 1_555
O2A C1A 1_555 1_555
O2K C1K 1_555 1_555
O2B C1B 1_555 1_555
O2J C1J 1_555 1_555
O4I C4I 1_555 1_555
O4A C4A 1_555 1_555
O4K C4K 1_555 1_555
O4B C4B 1_555 1_555
O4J C4J 1_555 1_555
C1I C2I 1_555 1_555
C1A C2A 1_555 1_555
C1K C2K 1_555 1_555
C1B C2B 1_555 1_555
C1J C2J 1_555 1_555
C3I C4I 1_555 1_555
C3A C4A 1_555 1_555
C3K C4K 1_555 1_555
C3B C4B 1_555 1_555
C3J C4J 1_555 1_555

#END
