
#######################################################################
#
#                 Cambridge Crystallographic Data Centre
#                                CCDC 
#
#######################################################################
#
# If this CIF has been generated from an entry in the Cambridge 
# Structural Database, then it will include bibliographic, chemical, 
# crystal, experimental, refinement or atomic coordinate data resulting 
# from the CCDC's data processing and validation procedures.
#
#######################################################################

data_IBASAH
_chemical_formula_moiety         '(C24 H34 Cu3 Ho2 N6 O26)n'
_symmetry_cell_setting           trigonal
_symmetry_space_group_name_H-M   'P -3 c 1'
_symmetry_Int_Tables_number      165
_space_group_name_Hall           '-P 3 2"c'
loop_
_symmetry_equiv_pos_site_id
_symmetry_equiv_pos_as_xyz
1 x,y,z
2 -y,x-y,z
3 -x+y,-x,z
4 x-y,-y,1/2-z
5 -x,-x+y,1/2-z
6 y,x,1/2-z
7 -x,-y,-z
8 y,-x+y,-z
9 x-y,x,-z
10 -x+y,y,1/2+z
11 x,x-y,1/2+z
12 -y,-x,1/2+z
_cell_length_a                   13.388(2)
_cell_length_b                   13.388(2)
_cell_length_c                   14.306(2)
_cell_angle_alpha                90
_cell_angle_beta                 90
_cell_angle_gamma                120
_cell_volume                     2220.65
loop_
_atom_site_label
_atom_site_type_symbol
_atom_site_fract_x
_atom_site_fract_y
_atom_site_fract_z
Ho1 Ho 0.6667 0.3333 0.33309(3)
Cu1 Cu 0.5000 0.5000 0.5000
O1 O 0.5503(3) 0.3603(3) 0.4410(3)
O2 O 0.4410(4) 0.1940(3) 0.3724(3)
O3 O 0.5979(3) 0.5244(3) 0.6092(3)
O4 O 0.6203(3) 0.4344(3) 0.7299(2)
N1 N 0.3908(4) 0.3477(4) 0.5592(3)
C1 C 0.4543(5) 0.2691(5) 0.4304(3)
C2 C 0.3538(5) 0.2544(5) 0.4885(4)
C3 C 0.4491(5) 0.3316(5) 0.6407(3)
C4 C 0.5627(5) 0.4360(5) 0.6610(3)
H1 H 0.3275 0.3498 0.5795
H2 H 0.2961 0.2550 0.4479
H3 H 0.3190 0.1803 0.5199
H4 H 0.4609 0.2668 0.6290
H5 H 0.3997 0.3131 0.6951
Ho1I Ho 0.6666 0.3333 -0.16691(3)
Ho1I_2 Ho 0.6666 0.3333 0.83309(3)
Cu1C Cu 1.0000 0.5000 0.0000
Cu1B Cu 1.0000 0.5000 0.5000
Cu1A Cu 0.5000 0.0000 0.5000
Cu1D Cu 0.5000 0.0000 0.0000
Cu1E Cu 0.5000 0.5000 0.0000
O1I O 0.8100(4) 0.3603(3) -0.0590(3)
O1B O 0.8100(4) 0.4497(3) 0.4410(3)
O1A O 0.6397(3) 0.1900(4) 0.4410(3)
O1J O 0.5503(3) 0.1900(4) -0.0590(3)
O1K O 0.6397(3) 0.4497(3) -0.0590(3)
O1F O 0.4497(3) 0.6397(3) 0.5590(3)
O1C O 1.1900(4) 0.6397(3) 0.0590(3)
O1H O 1.1900(4) 0.5503(3) 0.5590(3)
O2I O 0.7530(5) 0.1940(3) -0.1276(3)
O2B O 0.7530(5) 0.5590(4) 0.3724(3)
O2A O 0.8060(3) 0.2470(5) 0.3724(3)
O2J O 0.4410(4) 0.2470(5) -0.1276(3)
O2K O 0.8060(3) 0.5590(4) -0.1276(3)
O3I O 0.9265(4) 0.5244(3) 0.1092(3)
O3B O 0.9265(4) 0.4021(3) 0.6092(3)
O3A O 0.4756(3) 0.0735(4) 0.6092(3)
O3J O 0.5979(3) 0.0735(4) 0.1092(3)
O3K O 0.4756(3) 0.4021(3) 0.1092(3)
O3F O 0.4021(3) 0.4756(3) 0.3908(3)
O3C O 1.0735(4) 0.4756(3) -0.1092(3)
O3H O 1.0735(4) 0.5979(3) 0.3908(3)
O4I O 0.8141(4) 0.4344(3) 0.2299(2)
O4B O 0.8141(4) 0.3797(3) 0.7299(2)
O4A O 0.5656(3) 0.1859(4) 0.7299(2)
O4J O 0.6203(3) 0.1859(4) 0.2299(2)
O4K O 0.5656(3) 0.3797(3) 0.2299(2)
O4_2 O 0.6203(3) 0.4344(3) -0.2701(2)
O4A_2 O 0.5656(3) 0.1859(4) -0.2701(2)
O4B_2 O 0.8141(4) 0.3797(3) -0.2701(2)
N1I N 0.9569(6) 0.3477(4) 0.0592(3)
N1B N 0.9569(6) 0.6092(4) 0.5592(3)
N1A N 0.6523(4) 0.0431(6) 0.5592(3)
N1J N 0.3908(4) 0.0431(6) 0.0592(3)
N1K N 0.6523(4) 0.6092(4) 0.0592(3)
N1F N 0.6092(4) 0.6523(4) 0.4408(3)
N1C N 1.0431(6) 0.6523(4) -0.0592(3)
N1H N 1.0431(6) 0.3908(4) 0.4408(3)
C1I C 0.8148(7) 0.2691(5) -0.0696(3)
C1B C 0.8148(7) 0.5457(5) 0.4304(3)
C1A C 0.7309(5) 0.1852(7) 0.4304(3)
C1J C 0.4543(5) 0.1852(7) -0.0696(3)
C1K C 0.7309(5) 0.5457(5) -0.0696(3)
C2I C 0.9006(7) 0.2544(5) -0.0115(4)
C2B C 0.9006(7) 0.6462(5) 0.4885(4)
C2A C 0.7456(5) 0.0994(7) 0.4885(4)
C2J C 0.3538(5) 0.0994(7) -0.0115(4)
C2K C 0.7456(5) 0.6462(5) -0.0115(4)
C3I C 0.8825(7) 0.3316(5) 0.1407(3)
C3B C 0.8825(7) 0.5509(5) 0.6407(3)
C3A C 0.6684(5) 0.1175(7) 0.6407(3)
C3J C 0.4491(5) 0.1175(7) 0.1407(3)
C3K C 0.6684(5) 0.5509(5) 0.1407(3)
C4I C 0.8733(7) 0.4360(5) 0.1610(3)
C4B C 0.8733(7) 0.4373(5) 0.6610(3)
C4A C 0.5640(5) 0.1267(7) 0.6610(3)
C4J C 0.5627(5) 0.1267(7) 0.1610(3)
C4K C 0.5640(5) 0.4373(5) 0.1610(3)
H1I H 1.0223 0.3498 0.0795
H1B H 1.0223 0.6725 0.5795
H1A H 0.6502 -0.0223 0.5795
H1J H 0.3275 -0.0223 0.0795
H1K H 0.6502 0.6725 0.0795
H1F H 0.6725 0.6502 0.4205
H1C H 0.9777 0.6502 -0.0795
H1H H 0.9777 0.3275 0.4205
H2I H 0.9589 0.2550 -0.0521
H2B H 0.9589 0.7039 0.4479
H2A H 0.7450 0.0411 0.4479
H2J H 0.2961 0.0411 -0.0521
H2K H 0.7450 0.7039 -0.0521
H3I H 0.8613 0.1803 0.0199
H3B H 0.8613 0.6810 0.5199
H3A H 0.8197 0.1387 0.5199
H3J H 0.3190 0.1387 0.0199
H3K H 0.8197 0.6810 0.0199
H4I H 0.8059 0.2668 0.1290
H4B H 0.8059 0.5391 0.6290
H4A H 0.7332 0.1941 0.6290
H4J H 0.4609 0.1941 0.1290
H4K H 0.7332 0.5391 0.1290
H5I H 0.9134 0.3131 0.1951
H5B H 0.9134 0.6003 0.6951
H5A H 0.6869 0.0866 0.6951
H5J H 0.3997 0.0866 0.1951
H5K H 0.6869 0.6003 0.1951
O5 O 0.2767(11) 0.2767(11) 0.2500
O6 O -0.010(2) 0.1524(19) 0.3360(17)
loop_
_geom_bond_atom_site_label_1
_geom_bond_atom_site_label_2
_geom_bond_site_symmetry_1
_geom_bond_site_symmetry_2
Ho1 O1 1_555 1_555
Cu1 O1 1_555 1_555
O1 C1 1_555 1_555
O2 Ho1 1_555 1_555
O3 Cu1 1_555 1_555
O4 C4 1_555 1_555
N1 Cu1 1_555 1_555
C1 O2 1_555 1_555
C2 N1 1_555 1_555
C3 N1 1_555 1_555
C4 O3 1_555 1_555
H1 N1 1_555 1_555
H2 C2 1_555 1_555
H3 C2 1_555 1_555
H4 C3 1_555 1_555
H5 C3 1_555 1_555
Ho1I O1I 1_555 1_555
Ho1I_2 O4 1_555 1_555
Cu1C O1I 1_555 1_555
Cu1B O1B 1_555 1_555
Cu1A O1A 1_555 1_555
Cu1D O1J 1_555 1_555
Cu1E O1K 1_555 1_555
O1I C1I 1_555 1_555
O1B Ho1 1_555 1_555
O1A Ho1 1_555 1_555
O1J Ho1I 1_555 1_555
O1K Ho1I 1_555 1_555
O1F Cu1 1_555 1_555
O1C Cu1C 1_555 1_555
O1H Cu1B 1_555 1_555
O2I Ho1I 1_555 1_555
O2B Ho1 1_555 1_555
O2A Ho1 1_555 1_555
O2J Ho1I 1_555 1_555
O2K Ho1I 1_555 1_555
O3I Cu1C 1_555 1_555
O3B Cu1B 1_555 1_555
O3A Cu1A 1_555 1_555
O3J Cu1D 1_555 1_555
O3K Cu1E 1_555 1_555
O3F Cu1 1_555 1_555
O3C Cu1C 1_555 1_555
O3H Cu1B 1_555 1_555
O4I Ho1 1_555 1_555
O4B Ho1I_2 1_555 1_555
O4A Ho1I_2 1_555 1_555
O4J Ho1 1_555 1_555
O4K Ho1 1_555 1_555
O4_2 Ho1I 1_555 1_555
O4A_2 Ho1I 1_555 1_555
O4B_2 Ho1I 1_555 1_555
N1I Cu1C 1_555 1_555
N1B Cu1B 1_555 1_555
N1A Cu1A 1_555 1_555
N1J Cu1D 1_555 1_555
N1K Cu1E 1_555 1_555
N1F Cu1 1_555 1_555
N1C Cu1C 1_555 1_555
N1H Cu1B 1_555 1_555
C1I O2I 1_555 1_555
C1B O1B 1_555 1_555
C1A O1A 1_555 1_555
C1J O1J 1_555 1_555
C1K O1K 1_555 1_555
C2I N1I 1_555 1_555
C2B N1B 1_555 1_555
C2A N1A 1_555 1_555
C2J N1J 1_555 1_555
C2K N1K 1_555 1_555
C3I N1I 1_555 1_555
C3B N1B 1_555 1_555
C3A N1A 1_555 1_555
C3J N1J 1_555 1_555
C3K N1K 1_555 1_555
C4I O3I 1_555 1_555
C4B O3B 1_555 1_555
C4A O3A 1_555 1_555
C4J O3J 1_555 1_555
C4K O3K 1_555 1_555
H1I N1I 1_555 1_555
H1B N1B 1_555 1_555
H1A N1A 1_555 1_555
H1J N1J 1_555 1_555
H1K N1K 1_555 1_555
H1F N1F 1_555 1_555
H1C N1C 1_555 1_555
H1H N1H 1_555 1_555
H2I C2I 1_555 1_555
H2B C2B 1_555 1_555
H2A C2A 1_555 1_555
H2J C2J 1_555 1_555
H2K C2K 1_555 1_555
H3I C2I 1_555 1_555
H3B C2B 1_555 1_555
H3A C2A 1_555 1_555
H3J C2J 1_555 1_555
H3K C2K 1_555 1_555
H4I C3I 1_555 1_555
H4B C3B 1_555 1_555
H4A C3A 1_555 1_555
H4J C3J 1_555 1_555
H4K C3K 1_555 1_555
H5I C3I 1_555 1_555
H5B C3B 1_555 1_555
H5A C3A 1_555 1_555
H5J C3J 1_555 1_555
H5K C3K 1_555 1_555
C1 C2 1_555 1_555
C3 C4 1_555 1_555
O2B C1B 1_555 1_555
O2A C1A 1_555 1_555
O2J C1J 1_555 1_555
O2K C1K 1_555 1_555
O4I C4I 1_555 1_555
O4B C4B 1_555 1_555
O4A C4A 1_555 1_555
O4J C4J 1_555 1_555
O4K C4K 1_555 1_555
C1I C2I 1_555 1_555
C1B C2B 1_555 1_555
C1A C2A 1_555 1_555
C1J C2J 1_555 1_555
C1K C2K 1_555 1_555
C3I C4I 1_555 1_555
C3B C4B 1_555 1_555
C3A C4A 1_555 1_555
C3J C4J 1_555 1_555
C3K C4K 1_555 1_555

#END
