
#######################################################################
#
#                 Cambridge Crystallographic Data Centre
#                                CCDC 
#
#######################################################################
#
# If this CIF has been generated from an entry in the Cambridge 
# Structural Database, then it will include bibliographic, chemical, 
# crystal, experimental, refinement or atomic coordinate data resulting 
# from the CCDC's data processing and validation procedures.
#
#######################################################################

data_IBATAI
_chemical_formula_moiety         '(C24 H30 Cu3 La2 N6 O24)n'
_symmetry_cell_setting           trigonal
_symmetry_space_group_name_H-M   'P -3 c 1'
_symmetry_Int_Tables_number      165
_space_group_name_Hall           '-P 3 2"c'
loop_
_symmetry_equiv_pos_site_id
_symmetry_equiv_pos_as_xyz
1 x,y,z
2 -y,x-y,z
3 -x+y,-x,z
4 x-y,-y,1/2-z
5 -x,-x+y,1/2-z
6 y,x,1/2-z
7 -x,-y,-z
8 y,-x+y,-z
9 x-y,x,-z
10 -x+y,y,1/2+z
11 x,x-y,1/2+z
12 -y,-x,1/2+z
_cell_length_a                   13.3740(6)
_cell_length_b                   13.3740(6)
_cell_length_c                   14.9482(8)
_cell_angle_alpha                90
_cell_angle_beta                 90
_cell_angle_gamma                120
_cell_volume                     2315.49
loop_
_atom_site_label
_atom_site_type_symbol
_atom_site_fract_x
_atom_site_fract_y
_atom_site_fract_z
La1 La 0.6667 0.3333 0.330384(16)
Cu1 Cu 1.0000 0.5000 0.5000
O1 O 0.81747(18) 0.45430(17) 0.44369(14)
O2 O 0.75980(19) 0.56512(19) 0.37778(14)
O3 O 0.92448(18) 0.40061(18) 0.60319(13)
O4 O 0.8231(2) 0.3855(2) 0.72457(15)
N1 N 0.9615(2) 0.6128(2) 0.55799(15)
C1 C 0.8212(2) 0.5502(2) 0.43380(18)
C2 C 0.9059(2) 0.6504(2) 0.49144(19)
C3 C 0.8881(2) 0.5547(2) 0.63717(19)
C4 C 0.8785(2) 0.4390(2) 0.65631(19)
H1 H 1.0281 0.6754 0.5768
H2 H 0.9645 0.7097 0.4536
H3 H 0.8654 0.6837 0.5220
H4 H 0.8114 0.5434 0.6270
H5 H 0.9204 0.6042 0.6891
La1I La 0.6666 0.3333 -0.169616(16)
La1I_2 La 0.6666 0.3333 0.830384(16)
Cu1C Cu 0.5000 0.5000 0.0000
Cu1B Cu 0.5000 -0.0000 0.5000
Cu1A Cu 0.5000 0.5000 0.5000
Cu1D Cu 1.0000 0.5000 0.0000
Cu1E Cu 0.5000 0.0000 0.0000
O1I O 0.63683(25) 0.45430(17) -0.05631(14)
O1B O 0.63683(25) 0.18253(18) 0.44369(14)
O1A O 0.54570(17) 0.36317(25) 0.44369(14)
O1J O 0.81747(18) 0.36317(25) -0.05631(14)
O1K O 0.54570(17) 0.18253(18) -0.05631(14)
O1F O 1.18253(18) 0.54570(17) 0.55631(14)
O1C O 0.36317(25) 0.54570(17) 0.05631(14)
O1H O 0.36317(25) -0.18253(18) 0.55631(14)
O2I O 0.80532(27) 0.56512(19) -0.12222(14)
O2B O 0.80532(27) 0.24020(19) 0.37778(14)
O2A O 0.43488(19) 0.19468(27) 0.37778(14)
O2J O 0.75980(19) 0.19468(27) -0.12222(14)
O2K O 0.43488(19) 0.24020(19) -0.12222(14)
O3I O 0.47613(25) 0.40061(18) 0.10319(13)
O3B O 0.47613(25) 0.07552(18) 0.60319(13)
O3A O 0.59939(18) 0.52387(25) 0.60319(13)
O3J O 0.92448(18) 0.52387(25) 0.10319(13)
O3K O 0.59939(18) 0.07552(18) 0.10319(13)
O3F O 1.07552(18) 0.59939(18) 0.39681(13)
O3C O 0.52387(25) 0.59939(18) -0.10319(13)
O3H O 0.52387(25) -0.07552(18) 0.39681(13)
O4I O 0.5624(3) 0.3855(2) 0.22457(15)
O4B O 0.5624(3) 0.1769(2) 0.72457(15)
O4A O 0.6145(2) 0.4376(3) 0.72457(15)
O4J O 0.8231(2) 0.4376(3) 0.22457(15)
O4K O 0.6145(2) 0.1769(2) 0.22457(15)
O4_2 O 0.8231(2) 0.3855(2) -0.27543(15)
O4A_2 O 0.6145(2) 0.4376(3) -0.27543(15)
O4B_2 O 0.5624(3) 0.1769(2) -0.27543(15)
N1I N 0.6513(3) 0.6128(2) 0.05799(15)
N1B N 0.6513(3) 0.0385(2) 0.55799(15)
N1A N 0.3872(2) 0.3487(3) 0.55799(15)
N1J N 0.9615(2) 0.3487(3) 0.05799(15)
N1K N 0.3872(2) 0.0385(2) 0.05799(15)
N1F N 1.0385(2) 0.3872(2) 0.44201(15)
N1C N 0.3487(3) 0.3872(2) -0.05799(15)
N1H N 0.3487(3) -0.0385(2) 0.44201(15)
C1I C 0.7290(3) 0.5502(2) -0.06620(18)
C1B C 0.7290(3) 0.1788(2) 0.43380(18)
C1A C 0.4498(2) 0.2710(3) 0.43380(18)
C1J C 0.8212(2) 0.2710(3) -0.06620(18)
C1K C 0.4498(2) 0.1788(2) -0.06620(18)
C2I C 0.7445(3) 0.6504(2) -0.00856(19)
C2B C 0.7445(3) 0.0941(2) 0.49144(19)
C2A C 0.3496(2) 0.2555(3) 0.49144(19)
C2J C 0.9059(2) 0.2555(3) -0.00856(19)
C2K C 0.3496(2) 0.0941(2) -0.00856(19)
C3I C 0.6666(3) 0.5547(2) 0.13717(19)
C3B C 0.6666(3) 0.1119(2) 0.63717(19)
C3A C 0.4453(2) 0.3334(3) 0.63717(19)
C3J C 0.8881(2) 0.3334(3) 0.13717(19)
C3K C 0.4453(2) 0.1119(2) 0.13717(19)
C4I C 0.5605(3) 0.4390(2) 0.15631(19)
C4B C 0.5605(3) 0.1215(2) 0.65631(19)
C4A C 0.5610(2) 0.4395(3) 0.65631(19)
C4J C 0.8785(2) 0.4395(3) 0.15631(19)
C4K C 0.5610(2) 0.1215(2) 0.15631(19)
H1I H 0.6473 0.6754 0.0768
H1B H 0.6473 -0.0281 0.5768
H1A H 0.3246 0.3527 0.5768
H1J H 1.0281 0.3527 0.0768
H1K H 0.3246 -0.0281 0.0768
H1F H 0.9719 0.3246 0.4232
H1C H 0.3527 0.3246 -0.0768
H1H H 0.3527 0.0281 0.4232
H2I H 0.7452 0.7097 -0.0464
H2B H 0.7452 0.0355 0.4536
H2A H 0.2903 0.2548 0.4536
H2J H 0.9645 0.2548 -0.0464
H2K H 0.2903 0.0355 -0.0464
H3I H 0.8183 0.6837 0.0220
H3B H 0.8183 0.1346 0.5220
H3A H 0.3163 0.1817 0.5220
H3J H 0.8654 0.1817 0.0220
H3K H 0.3163 0.1346 0.0220
H4I H 0.7320 0.5434 0.1270
H4B H 0.7320 0.1886 0.6270
H4A H 0.4566 0.2680 0.6270
H4J H 0.8114 0.2680 0.1270
H4K H 0.4566 0.1886 0.1270
H5I H 0.6838 0.6042 0.1891
H5B H 0.6838 0.0796 0.6891
H5A H 0.3958 0.3162 0.6891
H5J H 0.9204 0.3162 0.1891
H5K H 0.3958 0.0796 0.1891
loop_
_geom_bond_atom_site_label_1
_geom_bond_atom_site_label_2
_geom_bond_site_symmetry_1
_geom_bond_site_symmetry_2
La1 O1 1_555 1_555
Cu1 O1 1_555 1_555
O1 C1 1_555 1_555
O2 La1 1_555 1_555
O3 Cu1 1_555 1_555
O4 C4 1_555 1_555
N1 Cu1 1_555 1_555
C1 O2 1_555 1_555
C2 N1 1_555 1_555
C3 N1 1_555 1_555
C4 O3 1_555 1_555
H1 N1 1_555 1_555
H2 C2 1_555 1_555
H3 C2 1_555 1_555
H4 C3 1_555 1_555
H5 C3 1_555 1_555
La1I O1I 1_555 1_555
La1I_2 O4 1_555 1_555
Cu1C O1I 1_555 1_555
Cu1B O1B 1_555 1_555
Cu1A O1A 1_555 1_555
Cu1D O1J 1_555 1_555
Cu1E O1K 1_555 1_555
O1I C1I 1_555 1_555
O1B La1 1_555 1_555
O1A La1 1_555 1_555
O1J La1I 1_555 1_555
O1K La1I 1_555 1_555
O1F Cu1 1_555 1_555
O1C Cu1C 1_555 1_555
O1H Cu1B 1_555 1_555
O2I La1I 1_555 1_555
O2B La1 1_555 1_555
O2A La1 1_555 1_555
O2J La1I 1_555 1_555
O2K La1I 1_555 1_555
O3I Cu1C 1_555 1_555
O3B Cu1B 1_555 1_555
O3A Cu1A 1_555 1_555
O3J Cu1D 1_555 1_555
O3K Cu1E 1_555 1_555
O3F Cu1 1_555 1_555
O3C Cu1C 1_555 1_555
O3H Cu1B 1_555 1_555
O4I La1 1_555 1_555
O4B La1I_2 1_555 1_555
O4A La1I_2 1_555 1_555
O4J La1 1_555 1_555
O4K La1 1_555 1_555
O4_2 La1I 1_555 1_555
O4A_2 La1I 1_555 1_555
O4B_2 La1I 1_555 1_555
N1I Cu1C 1_555 1_555
N1B Cu1B 1_555 1_555
N1A Cu1A 1_555 1_555
N1J Cu1D 1_555 1_555
N1K Cu1E 1_555 1_555
N1F Cu1 1_555 1_555
N1C Cu1C 1_555 1_555
N1H Cu1B 1_555 1_555
C1I O2I 1_555 1_555
C1B O1B 1_555 1_555
C1A O1A 1_555 1_555
C1J O1J 1_555 1_555
C1K O1K 1_555 1_555
C2I N1I 1_555 1_555
C2B N1B 1_555 1_555
C2A N1A 1_555 1_555
C2J N1J 1_555 1_555
C2K N1K 1_555 1_555
C3I N1I 1_555 1_555
C3B N1B 1_555 1_555
C3A N1A 1_555 1_555
C3J N1J 1_555 1_555
C3K N1K 1_555 1_555
C4I O3I 1_555 1_555
C4B O3B 1_555 1_555
C4A O3A 1_555 1_555
C4J O3J 1_555 1_555
C4K O3K 1_555 1_555
H1I N1I 1_555 1_555
H1B N1B 1_555 1_555
H1A N1A 1_555 1_555
H1J N1J 1_555 1_555
H1K N1K 1_555 1_555
H1F N1F 1_555 1_555
H1C N1C 1_555 1_555
H1H N1H 1_555 1_555
H2I C2I 1_555 1_555
H2B C2B 1_555 1_555
H2A C2A 1_555 1_555
H2J C2J 1_555 1_555
H2K C2K 1_555 1_555
H3I C2I 1_555 1_555
H3B C2B 1_555 1_555
H3A C2A 1_555 1_555
H3J C2J 1_555 1_555
H3K C2K 1_555 1_555
H4I C3I 1_555 1_555
H4B C3B 1_555 1_555
H4A C3A 1_555 1_555
H4J C3J 1_555 1_555
H4K C3K 1_555 1_555
H5I C3I 1_555 1_555
H5B C3B 1_555 1_555
H5A C3A 1_555 1_555
H5J C3J 1_555 1_555
H5K C3K 1_555 1_555
C1 C2 1_555 1_555
C3 C4 1_555 1_555
O2B C1B 1_555 1_555
O2A C1A 1_555 1_555
O2J C1J 1_555 1_555
O2K C1K 1_555 1_555
O4I C4I 1_555 1_555
O4B C4B 1_555 1_555
O4A C4A 1_555 1_555
O4J C4J 1_555 1_555
O4K C4K 1_555 1_555
C1I C2I 1_555 1_555
C1B C2B 1_555 1_555
C1A C2A 1_555 1_555
C1J C2J 1_555 1_555
C1K C2K 1_555 1_555
C3I C4I 1_555 1_555
C3B C4B 1_555 1_555
C3A C4A 1_555 1_555
C3J C4J 1_555 1_555
C3K C4K 1_555 1_555

#END
