
#######################################################################
#
#                 Cambridge Crystallographic Data Centre
#                                CCDC 
#
#######################################################################
#
# If this CIF has been generated from an entry in the Cambridge 
# Structural Database, then it will include bibliographic, chemical, 
# crystal, experimental, refinement or atomic coordinate data resulting 
# from the CCDC's data processing and validation procedures.
#
#######################################################################

data_QIVJAG
_chemical_formula_moiety         '(C19 H25 Cr1 Mn1 N3 O17)n'
_symmetry_cell_setting           monoclinic
_symmetry_space_group_name_H-M   'C c'
_symmetry_Int_Tables_number      9
_space_group_name_Hall           'C -2yc'
loop_
_symmetry_equiv_pos_site_id
_symmetry_equiv_pos_as_xyz
1 x,y,z
2 x,-y,1/2+z
3 1/2+x,1/2+y,z
4 1/2+x,1/2-y,1/2+z
_cell_length_a                   11.343(2)
_cell_length_b                   14.311(2)
_cell_length_c                   16.928(10)
_cell_angle_alpha                90
_cell_angle_beta                 104.14(3)
_cell_angle_gamma                90
_cell_volume                     2664.66
loop_
_atom_site_label
_atom_site_type_symbol
_atom_site_fract_x
_atom_site_fract_y
_atom_site_fract_z
_atom_site_U_iso_or_equiv
_atom_site_thermal_displace_type
Cr1 Cr 0.08520(3) 0.88354(3) 0.82268(2) 0.0326 Uani
Mn1 Mn 0.31673(3) 0.90710(3) 1.14258(2) 0.0324 Uani
O1 O 0.15745(17) 0.79883(12) 0.91432(10) 0.0389 Uani
O2 O 0.16242(15) 0.98135(11) 0.90111(10) 0.0358 Uani
O3 O 0.23578(15) 0.87850(12) 0.78450(11) 0.0374 Uani
O4 O 0.03844(14) 0.97886(13) 0.73632(10) 0.0358 Uani
O5 O -0.06508(16) 0.88652(12) 0.85939(11) 0.0406 Uani
O6 O 0.00299(14) 0.78010(12) 0.75513(10) 0.0370 Uani
O7 O 0.25341(18) 0.80673(12) 1.04577(11) 0.0443 Uani
O8 O 0.26707(15) 0.99482(11) 1.02986(10) 0.0384 Uani
O9 O 0.33494(15) 0.96458(12) 0.71234(11) 0.0400 Uani
O10 O 0.12974(15) 1.07015(13) 0.66144(10) 0.0380 Uani
O11 O -0.21377(18) 0.78852(15) 0.86848(12) 0.0567 Uani
O12 O -0.16548(15) 0.69352(13) 0.73779(11) 0.0434 Uani
O13 O 0.5058(2) 0.9135(2) 1.14454(15) 0.0461 Uani
C1 C 0.2084(2) 0.84151(16) 0.97916(16) 0.0343 Uani
C2 C 0.2140(2) 0.94894(16) 0.97076(14) 0.0300 Uani
C3 C 0.2439(2) 0.94495(16) 0.73687(13) 0.0315 Uani
C4 C 0.1276(2) 1.00379(16) 0.70799(13) 0.0322 Uani
C5 C -0.1312(2) 0.81368(18) 0.83929(14) 0.0371 Uani
C6 C -0.0965(2) 0.75604(16) 0.77120(14) 0.0324 Uani
H20 H 0.543(3) 0.929(3) 1.178(2) 0.0690 Uiso
H21 H 0.525(3) 0.871(2) 1.129(2) 0.0530 Uiso
O9A O 0.33494(15) 1.03542(12) 1.21234(11) 0.0400 Uani
O10A O 0.12974(15) 0.92985(13) 1.16144(10) 0.0380 Uani
O12C O 0.33452(15) 0.80648(13) 1.23779(11) 0.0434 Uani
Mn1A Mn 0.31673(3) 1.09290(3) 0.64258(2) 0.0324 Uani
Mn1C Mn -0.18327(3) 0.59290(3) 0.64258(2) 0.0324 Uani
N1 N -0.03001(17) 1.22651(14) 0.74485(12) 0.0358 Uani
N2 N -0.17619(19) 1.08140(15) 0.97881(13) 0.0378 Uani
N3 N -0.32576(19) 1.04835(17) 0.87415(14) 0.0484 Uani
O14 O -0.0745(2) 1.11060(17) 1.02112(12) 0.0643 Uani
O15 O -0.3857(2) 1.0359(2) 0.80105(14) 0.0947 Uani
C7 C 0.0343(3) 1.2810(2) 0.69307(19) 0.0540 Uani
H1 H 0.0399 1.3452 0.7099 0.0790 Uiso
H2 H -0.0102 1.2768 0.6371 0.0790 Uiso
H3 H 0.1145 1.2560 0.6988 0.0790 Uiso
C8 C 0.0334(2) 1.1881(2) 0.81471(16) 0.0444 Uani
H4 H 0.1178 1.1926 0.8291 0.0600 Uiso
C9 C -0.0254(2) 1.14226(19) 0.86490(16) 0.0421 Uani
H5 H 0.0192 1.1162 0.9133 0.0600 Uiso
C10 C -0.1505(2) 1.13454(16) 0.84409(14) 0.0326 Uani
C11 C -0.2131(2) 1.17414(19) 0.77088(16) 0.0413 Uani
H6 H -0.2973 1.1693 0.7543 0.0600 Uiso
C12 C -0.1504(2) 1.22008(18) 0.72362(16) 0.0409 Uani
H7 H -0.1930 1.2476 0.6753 0.0600 Uiso
C13 C -0.2153(2) 1.08851(17) 0.89774(15) 0.0348 Uani
C14 C -0.2595(2) 1.02532(17) 1.01654(16) 0.0388 Uani
C15 C -0.3753(2) 1.02029(19) 0.94539(17) 0.0431 Uani
C16 C -0.2743(4) 1.0744(2) 1.0936(2) 0.0668 Uani
H8 H -0.3293 1.0394 1.1171 0.0790 Uiso
H9 H -0.3062 1.1361 1.0800 0.0790 Uiso
H10 H -0.1967 1.0787 1.1320 0.0790 Uiso
C17 C -0.1963(3) 0.93178(19) 1.03882(17) 0.0460 Uani
H11 H -0.1850 0.9019 0.9904 0.0790 Uiso
H12 H -0.2454 0.8927 1.0641 0.0790 Uiso
H13 H -0.1186 0.9417 1.0760 0.0790 Uiso
C18 C -0.4333(3) 0.9241(2) 0.92791(19) 0.0519 Uani
H14 H -0.5032 0.9281 0.8827 0.0790 Uiso
H15 H -0.4578 0.9021 0.9751 0.0790 Uiso
H16 H -0.3755 0.8814 0.9150 0.0790 Uiso
C19 C -0.4726(3) 1.0919(2) 0.9501(3) 0.0758 Uani
H17 H -0.5346 1.0915 0.9001 0.0790 Uiso
H18 H -0.4366 1.1529 0.9588 0.0790 Uiso
H19 H -0.5080 1.0764 0.9945 0.0790 Uiso
O16 O -0.2363(2) 0.69570(19) 1.01948(16) 0.0614 Uani
H22 H -0.241(3) 0.647(3) 1.015(2) 0.0570 Uiso
H23 H -0.233(3) 0.719(3) 0.976(2) 0.0910 Uiso
O17 O 0.5840(3) 0.7538(2) 1.09298(18) 0.0680 Uani
H24 H 0.527(5) 0.727(4) 1.072(3) 0.1300 Uiso
H25 H 0.622(3) 0.736(3) 1.068(2) 0.0550 Uiso
loop_
_atom_site_aniso_label
_atom_site_aniso_U_11
_atom_site_aniso_U_22
_atom_site_aniso_U_33
_atom_site_aniso_U_23
_atom_site_aniso_U_13
_atom_site_aniso_U_12
Cr1 0.0362(2) 0.0343(2) 0.02743(18) -0.00298(16) 0.00826(15) -0.00901(17)
Mn1 0.03747(19) 0.03233(18) 0.02747(17) 0.00179(16) 0.00801(13) 0.00563(17)
O1 0.0574(11) 0.0266(9) 0.0325(9) -0.0025(7) 0.0105(8) -0.0083(8)
O2 0.0457(10) 0.0257(9) 0.0310(9) 0.0030(7) -0.0002(7) -0.0041(7)
O3 0.0354(9) 0.0372(10) 0.0395(10) 0.0082(8) 0.0089(7) -0.0009(7)
O4 0.0297(8) 0.0459(11) 0.0316(9) 0.0000(7) 0.0072(6) -0.0033(7)
O5 0.0473(11) 0.0387(11) 0.0405(10) -0.0141(8) 0.0199(8) -0.0113(8)
O6 0.0363(9) 0.0444(10) 0.0347(9) -0.0122(7) 0.0174(7) -0.0107(7)
O7 0.0703(13) 0.0255(9) 0.0342(10) 0.0033(7) 0.0071(8) 0.0022(8)
O8 0.0518(11) 0.0272(9) 0.0307(9) -0.0014(7) -0.0007(7) -0.0030(7)
O9 0.033 0.0422 0.0463 0.0079 0.0127 -0.0008
O10 0.0345 0.0402 0.0366 0.0068 0.0035 -0.002
O11 0.0511(12) 0.0695(14) 0.0599(13) -0.0192(10) 0.0337(10) -0.0209(10)
O12 0.04 0.047 0.0429 -0.017 0.0096 -0.0134
O13 0.0433(12) 0.0555(15) 0.0401(12) -0.0045(10) 0.0111(10) -0.0009(11)
C1 0.0423(13) 0.0274(13) 0.0342(11) 0.0012(10) 0.0112(9) -0.0022(10)
C2 0.0318(12) 0.0269(12) 0.0315(13) -0.0005(9) 0.0082(9) -0.0024(9)
C3 0.0308(12) 0.0332(12) 0.0295(11) -0.0020(9) 0.0052(9) -0.0055(9)
C4 0.0302(12) 0.0363(13) 0.0270(11) -0.0039(10) 0.0012(9) -0.0066(9)
C5 0.0361(13) 0.0442(14) 0.0327(12) -0.0061(11) 0.0116(10) -0.0038(11)
C6 0.0341(12) 0.0355(13) 0.0269(11) -0.0043(9) 0.0060(9) -0.0036(10)
O9A 0.033 0.0422 0.0463 -0.0079 0.0127 0.0008
O10A 0.0345 0.0402 0.0366 -0.0068 0.0035 0.002
O12C 0.04 0.047 0.0429 0.017 0.0096 0.0134
Mn1A 0.03747 0.03233 0.02747 -0.00179 0.00801 -0.00563
Mn1C 0.03747 0.03233 0.02747 -0.00179 0.00801 -0.00563
N1 0.0338 0.0323 0.043 0.0002 0.0124 -0.0005
N2 0.041 0.0338 0.0396 -0.0029 0.012 -0.0085
N3 0.0321 0.0583 0.0495 0.0226 -0.0002 -0.0113
O14 0.06 0.0862 0.0435 -0.01 0.0067 -0.0392
O15 0.0658 0.145 0.054 0.0479 -0.0228 -0.0573
C7 0.0492 0.0595 0.061 0.0155 0.028 -0.0019
C8 0.0278 0.0558 0.049 0.0044 0.0081 -0.0007
C9 0.0326 0.0485 0.0443 0.0083 0.0075 0.0013
C10 0.0301 0.0312 0.0366 0.001 0.0084 -0.0022
C11 0.0291 0.0465 0.0456 0.0097 0.004 -0.0036
C12 0.0383 0.0402 0.0427 0.0088 0.0072 0.0001
C13 0.0291 0.0334 0.0419 0.0044 0.0086 -0.0007
C14 0.0474 0.0295 0.0443 0.0008 0.0207 -0.0082
C15 0.0347 0.0392 0.0573 0.0149 0.015 -0.0005
C16 0.102 0.0455 0.07 -0.0083 0.054 -0.0099
C17 0.0536 0.0371 0.0426 0.0031 0.0026 0.0008
C18 0.0458 0.0479 0.0593 0.0107 0.0077 -0.0138
C19 0.048 0.054 0.133 0.021 0.037 0.0081
O16 0.0917(18) 0.0339(13) 0.0701(17) -0.0038(11) 0.0418(13) 0.0012(12)
O17 0.0563(16) 0.0707(17) 0.0854(19) -0.0305(14) 0.0336(14) -0.0192(13)
loop_
_geom_bond_atom_site_label_1
_geom_bond_atom_site_label_2
_geom_bond_site_symmetry_1
_geom_bond_site_symmetry_2
Cr1 O1 1_555 1_555
Mn1 O7 1_555 1_555
O1 C1 1_555 1_555
O2 Cr1 1_555 1_555
O3 Cr1 1_555 1_555
O4 Cr1 1_555 1_555
O5 Cr1 1_555 1_555
O6 Cr1 1_555 1_555
O7 C1 1_555 1_555
O8 Mn1 1_555 1_555
O9 C3 1_555 1_555
O10 C4 1_555 1_555
O11 C5 1_555 1_555
O12 C6 1_555 1_555
O13 Mn1 1_555 1_555
C1 C2 1_555 1_555
C2 O2 1_555 1_555
C3 O3 1_555 1_555
C4 O4 1_555 1_555
C5 O5 1_555 1_555
C6 O6 1_555 1_555
N1 C7 1_555 1_555
N2 O14 1_555 1_555
N3 O15 1_555 1_555
C7 H1 1_555 1_555
H2 C7 1_555 1_555
H3 C7 1_555 1_555
C8 N1 1_555 1_555
H4 C8 1_555 1_555
C9 C8 1_555 1_555
H5 C9 1_555 1_555
C10 C9 1_555 1_555
C11 C10 1_555 1_555
H6 C11 1_555 1_555
C12 N1 1_555 1_555
H7 C12 1_555 1_555
C13 N2 1_555 1_555
C14 N2 1_555 1_555
C15 N3 1_555 1_555
C16 C14 1_555 1_555
H8 C16 1_555 1_555
H9 C16 1_555 1_555
H10 C16 1_555 1_555
C17 C14 1_555 1_555
H11 C17 1_555 1_555
H12 C17 1_555 1_555
H13 C17 1_555 1_555
C18 C15 1_555 1_555
H14 C18 1_555 1_555
H15 C18 1_555 1_555
H16 C18 1_555 1_555
C19 C15 1_555 1_555
H17 C19 1_555 1_555
H18 C19 1_555 1_555
H19 C19 1_555 1_555
O16 H22 1_555 1_555
O17 H24 1_555 1_555
H20 O13 1_555 1_555
H21 O13 1_555 1_555
H23 O16 1_555 1_555
H25 O17 1_555 1_555
O9A Mn1 1_555 1_555
O10A Mn1 1_555 1_555
O12C Mn1 1_555 1_555
Mn1A O9 1_555 1_555
Mn1C O12 1_555 1_555
O8 C2 1_555 1_555
O10 Mn1A 1_555 1_555
C3 C4 1_555 1_555
C5 C6 1_555 1_555
N3 C13 1_555 1_555
C10 C13 1_555 1_555
C11 C12 1_555 1_555
C14 C15 1_555 1_555

#END
