
#######################################################################
#
#                 Cambridge Crystallographic Data Centre
#                                CCDC 
#
#######################################################################
#
# If this CIF has been generated from an entry in the Cambridge 
# Structural Database, then it will include bibliographic, chemical, 
# crystal, experimental, refinement or atomic coordinate data resulting 
# from the CCDC's data processing and validation procedures.
#
#######################################################################

data_ELOZOW
_chemical_formula_moiety         '(C22 H12 Cd3 Cl1 N10 O8 S2 1-)n'
_symmetry_cell_setting           orthorhombic
_symmetry_space_group_name_H-M   'C c c m'
_symmetry_Int_Tables_number      66
_space_group_name_Hall           '-C 2 2c'
loop_
_symmetry_equiv_pos_site_id
_symmetry_equiv_pos_as_xyz
1 x,y,z
2 -x,-y,z
3 x,-y,1/2-z
4 -x,y,1/2-z
5 1/2+x,1/2+y,z
6 1/2-x,1/2-y,z
7 1/2+x,1/2-y,1/2-z
8 1/2-x,1/2+y,1/2-z
9 -x,-y,-z
10 x,y,-z
11 -x,y,1/2+z
12 x,-y,1/2+z
13 1/2-x,1/2-y,-z
14 1/2+x,1/2+y,-z
15 1/2-x,1/2+y,1/2+z
16 1/2+x,1/2-y,1/2+z
_cell_length_a                   24.715(15)
_cell_length_b                   24.819(15)
_cell_length_c                   18.975(15)
_cell_angle_alpha                90
_cell_angle_beta                 90
_cell_angle_gamma                90
_cell_volume                     11639.3
loop_
_atom_site_label
_atom_site_type_symbol
_atom_site_fract_x
_atom_site_fract_y
_atom_site_fract_z
_atom_site_U_iso_or_equiv
_atom_site_thermal_displace_type
Cd1 Cd 0.05115(8) -0.05100(8) 0.0000 0.0936 Uani
Cd2 Cd 0.20266(6) 0.0000 0.2500 0.0864 Uani
Cd3 Cd 0.5000 0.29734(7) 0.2500 0.0870 Uani
S1 S 0.3475(2) 0.1526(2) 0.2456(4) 0.1187 Uani
Cl1 Cl 0.1246(3) -0.1246(3) 0.0000 0.1327 Uani
O1 O 0.2691(6) 0.0629(6) 0.2250(12) 0.1407 Uani
O2 O 0.4371(5) 0.2303(6) 0.2230(10) 0.1347 Uani
O3 O 0.4219(6) 0.2810(5) 0.3165(9) 0.1273 Uani
O4 O 0.2182(6) 0.0777(6) 0.3165(9) 0.1253 Uani
N1 N 0.1367(6) 0.0308(7) 0.1761(10) 0.1050 Uani
N2 N 0.1182(6) 0.1172(6) 0.2588(8) 0.1247 Uani
H1 H 0.0980 0.1454 0.2598 0.1500 Uiso
H2 H 0.1431 0.1129 0.2901 0.1500 Uiso
N3 N 0.0116(6) 0.0799(6) 0.0854(9) 0.1023 Uani
N4 N 0.0307(6) 0.1369(6) 0.1747(10) 0.1080 Uani
N5 N 0.0797(6) 0.0112(6) 0.0849(9) 0.0970 Uani
C1 C 0.1103(8) 0.0766(7) 0.2042(10) 0.1240 Uani
C2 C 0.0684(7) 0.0981(7) 0.1668(10) 0.1173 Uani
C3 C 0.0584(7) 0.0564(7) 0.1108(9) 0.1070 Uani
C4 C 0.1244(9) 0.0009(9) 0.1244(14) 0.1167 Uani
H3 H 0.1462 -0.0284 0.1133 0.1400 Uiso
C5 C -0.0064(7) 0.1254(8) 0.1194(12) 0.1167 Uani
H4 H -0.0372 0.1451 0.1083 0.1400 Uiso
C6 C 0.2912(8) 0.1389(8) 0.2981(16) 0.1267 Uani
C7 C 0.2850(10) 0.1775(10) 0.3456(15) 0.1513 Uani
H5 H 0.2561 0.1777 0.3769 0.1810 Uiso
C8 C 0.3624(7) 0.2090(7) 0.2979(15) 0.1217 Uani
C9 C 0.3233(10) 0.2166(10) 0.3462(17) 0.1603 Uani
H6 H 0.3226 0.2457 0.3769 0.1940 Uiso
C10 C 0.2565(8) 0.0898(8) 0.2798(17) 0.1100 Uani
C11 C 0.4086(8) 0.2426(7) 0.2810(15) 0.1093 Uani
N1A N -0.1367(6) -0.0308(7) 0.1761(10) 0.1050 Uani
N2A N -0.1182(6) -0.1172(6) 0.2588(8) 0.1247 Uani
H1A H -0.0980 -0.1454 0.2598 0.1500 Uiso
H2A H -0.1431 -0.1129 0.2901 0.1500 Uiso
N3A N -0.0116(6) -0.0799(6) 0.0854(9) 0.1023 Uani
N4A N -0.0307(6) -0.1369(6) 0.1747(10) 0.1080 Uani
N5A N -0.0797(6) -0.0112(6) 0.0849(9) 0.0970 Uani
C1A C -0.1103(8) -0.0766(7) 0.2042(10) 0.1240 Uani
C2A C -0.0684(7) -0.0981(7) 0.1668(10) 0.1173 Uani
C3A C -0.0584(7) -0.0564(7) 0.1108(9) 0.1070 Uani
C4A C -0.1244(9) -0.0009(9) 0.1244(14) 0.1167 Uani
H3A H -0.1462 0.0284 0.1133 0.1400 Uiso
C5A C 0.0064(7) -0.1254(8) 0.1194(12) 0.1167 Uani
H4A H 0.0372 -0.1451 0.1083 0.1400 Uiso
S1B S 0.3475(2) -0.1526(2) 0.2544(4) 0.1187 Uani
O1B O 0.2691(6) -0.0629(6) 0.2750(12) 0.1407 Uani
O2B O 0.4371(5) -0.2303(6) 0.2770(10) 0.1347 Uani
O3B O 0.4219(6) -0.2810(5) 0.1835(9) 0.1273 Uani
O4B O 0.2182(6) -0.0777(6) 0.1835(9) 0.1253 Uani
C6B C 0.2912(8) -0.1389(8) 0.2019(16) 0.1267 Uani
C7B C 0.2850(10) -0.1775(10) 0.1544(15) 0.1513 Uani
H5B H 0.2561 -0.1777 0.1231 0.1810 Uiso
C8B C 0.3624(7) -0.2090(7) 0.2021(15) 0.1217 Uani
C9B C 0.3233(10) -0.2166(10) 0.1538(17) 0.1603 Uani
H6B H 0.3226 -0.2457 0.1231 0.1940 Uiso
C10B C 0.2565(8) -0.0898(8) 0.2202(17) 0.1100 Uani
C11B C 0.4086(8) -0.2426(7) 0.2190(15) 0.1093 Uani
Cd1A Cd -0.05115(8) 0.05100(8) 0.0000 0.0936 Uani
Cd2A Cd -0.20266(6) 0.0000 0.2500 0.0864 Uani
Cd3A Cd 0.5000 -0.29734(7) 0.2500 0.0870 Uani
Cd3D Cd -0.0000 -0.20266(7) 0.2500 0.0870 Uani
Cd3E Cd 0.0000 0.20266(7) 0.2500 0.0870 Uani
O2C O 0.5629(5) 0.2303(6) 0.2770(10) 0.1347 Uani
O3C O 0.5781(6) 0.2810(5) 0.1835(9) 0.1273 Uani
N1B N 0.1367(6) -0.0308(7) 0.3239(10) 0.1050 Uani
N3H N -0.0116(6) -0.0799(6) -0.0854(9) 0.1023 Uani
N4E N 0.4693(6) 0.3631(6) 0.1747(10) 0.1080 Uani
N4F N 0.5307(6) 0.3631(6) 0.3253(10) 0.1080 Uani
N5I N 0.0797(6) 0.0112(6) -0.0849(9) 0.0970 Uani
loop_
_atom_site_aniso_label
_atom_site_aniso_U_11
_atom_site_aniso_U_22
_atom_site_aniso_U_33
_atom_site_aniso_U_23
_atom_site_aniso_U_13
_atom_site_aniso_U_12
Cd1 0.0861(13) 0.0862(13) 0.1084(15) 0.000 0.000 0.0226(11)
Cd2 0.0547(10) 0.0621(11) 0.1425(18) -0.0100(11) 0.000 0.000
Cd3 0.0618(11) 0.0546(10) 0.1447(18) 0.000 0.0083(11) 0.000
S1 0.079(3) 0.080(3) 0.197(6) -0.017(4) 0.019(4) -0.030(3)
Cl1 0.091(5) 0.089(5) 0.218(9) 0.000 0.000 0.065(4)
O1 0.092(10) 0.090(11) 0.24(2) -0.011(12) 0.005(12) -0.034(8)
O2 0.092(10) 0.098(10) 0.214(16) -0.044(10) 0.016(9) -0.038(8)
O3 0.113(10) 0.082(9) 0.187(14) -0.020(8) 0.015(9) -0.039(8)
O4 0.089(10) 0.111(11) 0.176(15) -0.017(10) 0.029(10) -0.041(8)
N1 0.073(9) 0.102(10) 0.140(14) 0.004(8) 0.011(9) -0.002(6)
N2 0.102(11) 0.090(10) 0.182(15) -0.006(8) 0.008(9) -0.007(8)
N3 0.102(9) 0.076(8) 0.129(11) 0.017(6) 0.031(6) 0.010(6)
N4 0.083(9) 0.091(9) 0.150(12) 0.002(7) 0.034(7) -0.004(6)
N5 0.082(9) 0.079(8) 0.130(12) 0.013(6) 0.006(8) 0.002(6)
C1 0.105(9) 0.105(9) 0.162(11) -0.005(7) 0.009(6) 0.008(6)
C2 0.112(8) 0.088(8) 0.152(11) 0.002(6) 0.017(6) 0.011(6)
C3 0.092(8) 0.085(8) 0.144(10) 0.009(6) 0.024(6) 0.002(5)
C4 0.090(10) 0.103(10) 0.157(13) 0.012(10) -0.004(10) 0.007(9)
C5 0.102(9) 0.093(9) 0.155(11) -0.008(8) 0.022(7) 0.011(6)
C6 0.075(12) 0.085(14) 0.22(3) -0.014(13) 0.036(15) -0.004(11)
C7 0.114(17) 0.14(2) 0.20(3) -0.034(16) 0.075(18) -0.053(17)
C8 0.067(12) 0.058(11) 0.24(3) -0.031(14) 0.014(15) -0.012(9)
C9 0.111(18) 0.120(19) 0.25(3) -0.06(2) 0.05(2) -0.059(16)
C10 0.064(13) 0.066(13) 0.20(3) 0.000(15) 0.001(16) -0.012(10)
C11 0.082(13) 0.056(10) 0.19(2) -0.009(10) 0.003(11) -0.015(10)
N1A 0.073 0.102 0.14 -0.004 -0.011 -0.002
N2A 0.102 0.09 0.182 0.006 -0.008 -0.007
N3A 0.102 0.076 0.129 -0.017 -0.031 0.01
N4A 0.083 0.091 0.15 -0.002 -0.034 -0.004
N5A 0.082 0.079 0.13 -0.013 -0.006 0.002
C1A 0.105 0.105 0.162 0.005 -0.009 0.008
C2A 0.112 0.088 0.152 -0.002 -0.017 0.011
C3A 0.092 0.085 0.144 -0.009 -0.024 0.002
C4A 0.09 0.103 0.157 -0.012 0.004 0.007
C5A 0.102 0.093 0.155 0.008 -0.022 0.011
S1B 0.079 0.08 0.197 -0.017 -0.019 0.03
O1B 0.092 0.09 0.24 -0.011 -0.005 0.034
O2B 0.092 0.098 0.214 -0.044 -0.016 0.038
O3B 0.113 0.082 0.187 -0.02 -0.015 0.039
O4B 0.089 0.111 0.176 -0.017 -0.029 0.041
C6B 0.075 0.085 0.22 -0.014 -0.036 0.004
C7B 0.114 0.14 0.2 -0.034 -0.075 0.053
C8B 0.067 0.058 0.24 -0.031 -0.014 0.012
C9B 0.111 0.12 0.25 -0.06 -0.05 0.059
C10B 0.064 0.066 0.2 0 -0.001 0.012
C11B 0.082 0.056 0.19 -0.009 -0.003 0.015
Cd1A 0.0861 0.0862 0.1084 0 0 0.0226
Cd2A 0.0547 0.0621 0.1425 0.01 0 0
Cd3A 0.0618 0.0546 0.1447 0 -0.0083 0
Cd3D 0.0618 0.0546 0.1447 0 0.0083 0
Cd3E 0.0618 0.0546 0.1447 0 -0.0083 0
O2C 0.092 0.098 0.214 0.044 0.016 0.038
O3C 0.113 0.082 0.187 0.02 0.015 0.039
N1B 0.073 0.102 0.14 0.004 -0.011 0.002
N3H 0.102 0.076 0.129 0.017 0.031 0.01
N4E 0.083 0.091 0.15 -0.002 -0.034 -0.004
N4F 0.083 0.091 0.15 0.002 -0.034 0.004
N5I 0.082 0.079 0.13 -0.013 -0.006 0.002
loop_
_geom_bond_atom_site_label_1
_geom_bond_atom_site_label_2
_geom_bond_site_symmetry_1
_geom_bond_site_symmetry_2
Cd1 Cl1 1_555 1_555
Cd2 O1 1_555 1_555
Cd3 O2 1_555 1_555
S1 C6 1_555 1_555
O1 C10 1_555 1_555
O2 C11 1_555 1_555
O3 Cd3 1_555 1_555
O4 Cd2 1_555 1_555
N1 Cd2 1_555 1_555
N2 H1 1_555 1_555
H2 N2 1_555 1_555
N3 C3 1_555 1_555
N4 C2 1_555 1_555
N5 Cd1 1_555 1_555
C1 N1 1_555 1_555
C2 C1 1_555 1_555
C3 N5 1_555 1_555
C4 N1 1_555 1_555
H3 C4 1_555 1_555
C5 N3 1_555 1_555
H4 C5 1_555 1_555
C6 C7 1_555 1_555
C7 H5 1_555 1_555
C8 S1 1_555 1_555
C9 C7 1_555 1_555
H6 C9 1_555 1_555
C10 O4 1_555 1_555
C11 O3 1_555 1_555
N1A C1A 1_555 1_555
N2A H1A 1_555 1_555
H2A N2A 1_555 1_555
N3A Cd1 1_555 1_555
N4A C2A 1_555 1_555
N5A C3A 1_555 1_555
C1A N2A 1_555 1_555
C2A C1A 1_555 1_555
C3A N3A 1_555 1_555
C4A N1A 1_555 1_555
H3A C4A 1_555 1_555
C5A N3A 1_555 1_555
H4A C5A 1_555 1_555
S1B C6B 1_555 1_555
O1B Cd2 1_555 1_555
O2B C11B 1_555 1_555
O3B C11B 1_555 1_555
O4B Cd2 1_555 1_555
C6B C7B 1_555 1_555
C7B H5B 1_555 1_555
C8B S1B 1_555 1_555
C9B C7B 1_555 1_555
H6B C9B 1_555 1_555
C10B O1B 1_555 1_555
C11B C8B 1_555 1_555
Cd1A N3 1_555 1_555
Cd2A N1A 1_555 1_555
Cd3A O2B 1_555 1_555
Cd3D N4A 1_555 1_555
Cd3E N4 1_555 1_555
O2C Cd3 1_555 1_555
O3C Cd3 1_555 1_555
N1B Cd2 1_555 1_555
N3H Cd1 1_555 1_555
N4E Cd3 1_555 1_555
N4F Cd3 1_555 1_555
N5I Cd1 1_555 1_555
N2 C1 1_555 1_555
N4 C5 1_555 1_555
N5 C4 1_555 1_555
C2 C3 1_555 1_555
C6 C10 1_555 1_555
C8 C9 1_555 1_555
C8 C11 1_555 1_555
N4A C5A 1_555 1_555
N5A C4A 1_555 1_555
N5A Cd1A 1_555 1_555
C2A C3A 1_555 1_555
O3B Cd3A 1_555 1_555
O4B C10B 1_555 1_555
C6B C10B 1_555 1_555
C8B C9B 1_555 1_555

#END
