
#######################################################################
#
#                 Cambridge Crystallographic Data Centre
#                                CCDC 
#
#######################################################################
#
# If this CIF has been generated from an entry in the Cambridge 
# Structural Database, then it will include bibliographic, chemical, 
# crystal, experimental, refinement or atomic coordinate data resulting 
# from the CCDC's data processing and validation procedures.
#
#######################################################################

data_WEYQAU11
_chemical_formula_moiety         '(C15 H14 Mn1 N2 O6)n'
_symmetry_cell_setting           orthorhombic
_symmetry_space_group_name_H-M   'P b c a'
_symmetry_Int_Tables_number      61
_space_group_name_Hall           '-P 2ac 2ab'
loop_
_symmetry_equiv_pos_site_id
_symmetry_equiv_pos_as_xyz
1 x,y,z
2 1/2-x,-y,1/2+z
3 -x,1/2+y,1/2-z
4 1/2+x,1/2-y,-z
5 -x,-y,-z
6 1/2+x,y,1/2-z
7 x,1/2-y,1/2+z
8 1/2-x,1/2+y,z
_cell_length_a                   14.6480(9)
_cell_length_b                   12.4006(10)
_cell_length_c                   16.6062(10)
_cell_angle_alpha                90
_cell_angle_beta                 90
_cell_angle_gamma                90
_cell_volume                     3016.42
loop_
_atom_site_label
_atom_site_type_symbol
_atom_site_fract_x
_atom_site_fract_y
_atom_site_fract_z
_atom_site_U_iso_or_equiv
_atom_site_thermal_displace_type
Mn1 Mn 0.60520(7) 0.48195(9) 0.57808(6) 0.0251 Uani
O1 O 0.7902(3) 0.5197(5) 0.9834(3) 0.0507 Uani
O2 O 0.7999(3) 0.3701(5) 1.0508(3) 0.0453 Uani
O3 O 0.5952(3) 0.3443(4) 0.6655(3) 0.0413 Uani
O4 O 0.5010(3) 0.0802(4) 0.8738(3) 0.0327 Uani
C1 C 0.6509(4) 0.2817(6) 0.9595(4) 0.0263 Uiso
H1 H 0.6542 0.2561 1.0121 0.0320 Uiso
O5 O 0.5232(3) 0.1195(4) 1.0025(3) 0.0313 Uani
C2 C 0.7671(5) 0.4247(7) 0.9949(5) 0.0318 Uiso
C3 C 0.6950(4) 0.4109(6) 0.8593(4) 0.0253 Uiso
H2 H 0.7256 0.4737 0.8450 0.0300 Uiso
C4 C 0.6372(5) 0.3995(6) 0.7173(4) 0.0273 Uiso
C5 C 0.7023(4) 0.3716(6) 0.9373(4) 0.0260 Uiso
C6 C 0.5367(4) 0.1362(6) 0.9290(4) 0.0222 Uiso
O6 O 0.6742(3) 0.4860(4) 0.7007(3) 0.0410 Uani
C7 C 0.5929(4) 0.2674(6) 0.8252(4) 0.0234 Uiso
H3 H 0.5579 0.2316 0.7869 0.0280 Uiso
C8 C 0.5946(4) 0.2296(6) 0.9039(4) 0.0212 Uiso
C9 C 0.6427(4) 0.3577(6) 0.8030(4) 0.0249 Uiso
Mn1A Mn 0.89480(7) 0.51805(9) 1.07808(6) 0.0251 Uani
Mn1B Mn 0.39480(7) -0.01805(9) 0.92192(6) 0.0251 Uani
Mn1F Mn 0.60520(7) 0.01805(9) 1.07808(6) 0.0251 Uani
O1A O 0.7098(3) 0.4803(5) 0.4834(3) 0.0507 Uani
O2A O 0.7001(3) 0.6299(5) 0.5508(3) 0.0453 Uani
O4B O 0.4990(3) 0.5802(4) 0.6262(3) 0.0327 Uani
O5F O 0.5232(3) 0.3805(4) 0.5025(3) 0.0313 Uani
C10 C 0.3454(6) 0.2373(9) 0.7733(6) 0.0763 Uani
H4 H 0.3265 0.1669 0.7831 0.0920 Uiso
C11 C 0.3894(8) 0.2121(10) 0.6276(8) 0.1103 Uani
H5 H 0.3318 0.1822 0.6113 0.1660 Uiso
H6 H 0.4321 0.1548 0.6370 0.1660 Uiso
H7 H 0.4122 0.2584 0.5858 0.1660 Uiso
C12 C 0.3455(6) 0.3178(9) 0.8279(7) 0.0827 Uani
H8 H 0.3267 0.3141 0.8813 0.1000 Uiso
C13 C 0.3902(8) 0.5120(10) 0.8268(8) 0.1190 Uani
H9 H 0.3310 0.5457 0.8342 0.1430 Uiso
H10 H 0.4265 0.5578 0.7920 0.1430 Uiso
N1 N 0.3771(4) 0.2746(7) 0.7018(6) 0.0717 Uani
C14 C 0.4374(9) 0.4992(13) 0.9079(9) 0.1547 Uani
H11 H 0.4968 0.4682 0.9001 0.2320 Uiso
H12 H 0.4017 0.4529 0.9418 0.2320 Uiso
H13 H 0.4435 0.5686 0.9330 0.2320 Uiso
N2 N 0.3785(5) 0.4046(7) 0.7890(6) 0.0823 Uani
C15 C 0.3978(6) 0.3780(8) 0.7132(7) 0.0763 Uani
H14 H 0.4218 0.4241 0.6745 0.0910 Uiso
loop_
_atom_site_aniso_label
_atom_site_aniso_U_11
_atom_site_aniso_U_22
_atom_site_aniso_U_33
_atom_site_aniso_U_23
_atom_site_aniso_U_13
_atom_site_aniso_U_12
Mn1 0.0291(6) 0.0272(8) 0.0190(6) 0.0008(6) 0.0027(5) 0.0011(5)
O1 0.06 0.04 0.052 0.012 -0.026 -0.024
O2 0.059 0.041 0.036 0.003 -0.023 -0.01
O3 0.053(4) 0.042(4) 0.029(3) 0.007(2) -0.007(2) -0.011(2)
O4 0.039 0.037 0.022 0.001 -0.003 -0.01
O5 0.038 0.033 0.023 0.005 0.002 0
O6 0.047(3) 0.039(4) 0.037(3) 0.014(3) -0.004(2) -0.010(2)
Mn1A 0.0291 0.0272 0.019 -0.0008 -0.0027 0.0011
Mn1B 0.0291 0.0272 0.019 -0.0008 0.0027 -0.0011
Mn1F 0.0291 0.0272 0.019 -0.0008 0.0027 -0.0011
O1A 0.06 0.04 0.052 -0.012 0.026 -0.024
O2A 0.059 0.041 0.036 -0.003 0.023 -0.01
O4B 0.039 0.037 0.022 -0.001 -0.003 0.01
O5F 0.038 0.033 0.023 -0.005 0.002 0
C10 0.048(5) 0.061(6) 0.120(7) 0.050(4) -0.004(5) 0.003(4)
C11 0.099(10) 0.097(9) 0.135(7) 0.021(6) 0.005(6) 0.009(7)
C12 0.048(6) 0.075(6) 0.125(6) 0.041(5) -0.004(5) 0.003(4)
C13 0.080(9) 0.085(7) 0.192(10) 0.008(6) 0.004(7) -0.010(6)
N1 0.038(5) 0.060(5) 0.117(6) 0.047(4) -0.001(4) 0.005(3)
C14 0.092(10) 0.193(16) 0.179(11) -0.047(9) 0.005(7) 0.039(9)
N2 0.039(5) 0.071(5) 0.137(6) 0.033(4) 0.003(4) 0.000(3)
C15 0.030(5) 0.065(5) 0.134(6) 0.048(4) 0.001(5) 0.003(4)
loop_
_geom_bond_atom_site_label_1
_geom_bond_atom_site_label_2
_geom_bond_site_symmetry_1
_geom_bond_site_symmetry_2
Mn1 O3 1_555 1_555
O1 C2 1_555 1_555
O2 C2 1_555 1_555
O3 C4 1_555 1_555
O4 C6 1_555 1_555
C1 H1 1_555 1_555
O5 C6 1_555 1_555
C2 C5 1_555 1_555
C3 H2 1_555 1_555
C4 O6 1_555 1_555
C5 C1 1_555 1_555
C6 C8 1_555 1_555
O6 Mn1 1_555 1_555
C7 H3 1_555 1_555
C8 C1 1_555 1_555
C9 C3 1_555 1_555
C10 H4 1_555 1_555
C11 H5 1_555 1_555
H6 C11 1_555 1_555
H7 C11 1_555 1_555
C12 C10 1_555 1_555
H8 C12 1_555 1_555
C13 H9 1_555 1_555
H10 C13 1_555 1_555
N1 C10 1_555 1_555
C14 C13 1_555 1_555
H11 C14 1_555 1_555
H12 C14 1_555 1_555
H13 C14 1_555 1_555
N2 C12 1_555 1_555
C15 N1 1_555 1_555
H14 C15 1_555 1_555
Mn1A O1 1_555 1_555
Mn1B O4 1_555 1_555
Mn1F O5 1_555 1_555
O1A Mn1 1_555 1_555
O2A Mn1 1_555 1_555
O4B Mn1 1_555 1_555
O5F Mn1 1_555 1_555
O2 Mn1A 1_555 1_555
C3 C5 1_555 1_555
C4 C9 1_555 1_555
C7 C8 1_555 1_555
C7 C9 1_555 1_555
C11 N1 1_555 1_555
C13 N2 1_555 1_555
N2 C15 1_555 1_555

#END
