
#######################################################################
#
#                 Cambridge Crystallographic Data Centre
#                                CCDC 
#
#######################################################################
#
# If this CIF has been generated from an entry in the Cambridge 
# Structural Database, then it will include bibliographic, chemical, 
# crystal, experimental, refinement or atomic coordinate data resulting 
# from the CCDC's data processing and validation procedures.
#
#######################################################################

data_KEGZOL01
_chemical_formula_moiety         '(C8 H12 Cu1 N5 Zn1)n'
_symmetry_cell_setting           cubic
_symmetry_space_group_name_H-M   'F -4 3 m'
_symmetry_Int_Tables_number      216
_space_group_name_Hall           'F -4 2 3'
loop_
_symmetry_equiv_pos_site_id
_symmetry_equiv_pos_as_xyz
1 x,y,z
2 x,1/2+y,1/2+z
3 1/2+x,y,1/2+z
4 1/2+x,1/2+y,z
5 z,x,y
6 y,z,x
7 1/2+z,x,1/2+y
8 1/2+y,1/2+z,x
9 1/2+z,1/2+x,y
10 y,1/2+z,1/2+x
11 z,1/2+x,1/2+y
12 1/2+y,z,1/2+x
13 -y,x,-z
14 1/2-y,x,1/2-z
15 -y,1/2+x,1/2-z
16 1/2-y,1/2+x,-z
17 -x,z,-y
18 -z,y,-x
19 -x,1/2+z,1/2-y
20 1/2-z,1/2+y,-x
21 1/2-x,1/2+z,-y
22 1/2-z,y,1/2-x
23 1/2-x,z,1/2-y
24 -z,1/2+y,1/2-x
25 x,-y,-z
26 x,1/2-y,1/2-z
27 1/2+x,-y,1/2-z
28 1/2+x,1/2-y,-z
29 z,-x,-y
30 y,-z,-x
31 1/2+z,-x,1/2-y
32 1/2+y,1/2-z,-x
33 1/2+z,1/2-x,-y
34 y,1/2-z,1/2-x
35 z,1/2-x,1/2-y
36 1/2+y,-z,1/2-x
37 -y,-x,z
38 1/2-y,-x,1/2+z
39 -y,1/2-x,1/2+z
40 1/2-y,1/2-x,z
41 -x,-z,y
42 -z,-y,x
43 -x,1/2-z,1/2+y
44 1/2-z,1/2-y,x
45 1/2-x,1/2-z,y
46 1/2-z,-y,1/2+x
47 1/2-x,-z,1/2+y
48 -z,1/2-y,1/2+x
49 -x,y,-z
50 -x,1/2+y,1/2-z
51 1/2-x,y,1/2-z
52 1/2-x,1/2+y,-z
53 -z,x,-y
54 -y,z,-x
55 1/2-z,x,1/2-y
56 1/2-y,1/2+z,-x
57 1/2-z,1/2+x,-y
58 -y,1/2+z,1/2-x
59 -z,1/2+x,1/2-y
60 1/2-y,z,1/2-x
61 y,x,z
62 1/2+y,x,1/2+z
63 y,1/2+x,1/2+z
64 1/2+y,1/2+x,z
65 x,z,y
66 z,y,x
67 x,1/2+z,1/2+y
68 1/2+z,1/2+y,x
69 1/2+x,1/2+z,y
70 1/2+z,y,1/2+x
71 1/2+x,z,1/2+y
72 z,1/2+y,1/2+x
73 -x,-y,z
74 -x,1/2-y,1/2+z
75 1/2-x,-y,1/2+z
76 1/2-x,1/2-y,z
77 -z,-x,y
78 -y,-z,x
79 1/2-z,-x,1/2+y
80 1/2-y,1/2-z,x
81 1/2-z,1/2-x,y
82 -y,1/2-z,1/2+x
83 -z,1/2-x,1/2+y
84 1/2-y,-z,1/2+x
85 y,-x,-z
86 1/2+y,-x,1/2-z
87 y,1/2-x,1/2-z
88 1/2+y,1/2-x,-z
89 x,-z,-y
90 z,-y,-x
91 x,1/2-z,1/2-y
92 1/2+z,1/2-y,-x
93 1/2+x,1/2-z,-y
94 1/2+z,-y,1/2-x
95 1/2+x,-z,1/2-y
96 z,1/2-y,1/2-x
_cell_length_a                   11.671(2)
_cell_length_b                   11.671(2)
_cell_length_c                   11.671(2)
_cell_angle_alpha                90
_cell_angle_beta                 90
_cell_angle_gamma                90
_cell_volume                     1589.73
loop_
_atom_site_label
_atom_site_type_symbol
_atom_site_fract_x
_atom_site_fract_y
_atom_site_fract_z
Cu1 Cu 0.000 0.000 0.000
Zn1 Zn 0.250 0.250 0.250
C1 C 0.096(1) 0.096(1) 0.096(1)
N1 N 0.150(2) 0.150(2) 0.150(2)
Cu1B Cu 0.500 0.000 0.500
Zn1B Zn -0.250 0.250 -0.250
Zn1A Zn 0.250 -0.250 -0.250
C1L C -0.096(1) 0.096(1) -0.096(1)
C1X C 0.096(1) -0.096(1) -0.096(1)
C1JA C -0.096(1) -0.096(1) 0.096(1)
C1M C 0.404(1) 0.096(1) 0.404(1)
N1M N 0.350(2) 0.150(2) 0.350(2)
N1Y N 0.150(2) 0.350(2) 0.350(2)
N1MA N 0.350(2) 0.350(2) 0.150(2)
N1L N -0.150(2) 0.150(2) -0.150(2)
N1X N 0.150(2) -0.150(2) -0.150(2)
N2 N 0.500 0.500 0.500
C2 C 0.572(1) 0.572(1) 0.572(1)
C2L C 0.428(1) 0.572(1) 0.428(1)
C2X C 0.572(1) 0.428(1) 0.428(1)
C2JA C 0.428(1) 0.428(1) 0.572(1)
loop_
_geom_bond_atom_site_label_1
_geom_bond_atom_site_label_2
_geom_bond_site_symmetry_1
_geom_bond_site_symmetry_2
Cu1 C1 1_555 1_555
Zn1 N1 1_555 1_555
C1 N1 1_555 1_555
N2 C2 1_555 1_555
Cu1B C1M 1_555 1_555
Zn1B N1L 1_555 1_555
Zn1A N1X 1_555 1_555
C1L Cu1 1_555 1_555
C1X Cu1 1_555 1_555
C1JA Cu1 1_555 1_555
C1M N1M 1_555 1_555
N1M Zn1 1_555 1_555
N1Y Zn1 1_555 1_555
N1MA Zn1 1_555 1_555
N1L C1L 1_555 1_555
N1X C1X 1_555 1_555
C2L N2 1_555 1_555
C2X N2 1_555 1_555
C2JA N2 1_555 1_555

#END
