
#######################################################################
#
#                 Cambridge Crystallographic Data Centre
#                                CCDC 
#
#######################################################################
#
# If this CIF has been generated from an entry in the Cambridge 
# Structural Database, then it will include bibliographic, chemical, 
# crystal, experimental, refinement or atomic coordinate data resulting 
# from the CCDC's data processing and validation procedures.
#
#######################################################################

data_XAGCEO
_chemical_formula_moiety         '(C8 H6 Co2 O10)n'
_symmetry_cell_setting           cubic
_symmetry_space_group_name_H-M   'P a -3'
_symmetry_Int_Tables_number      205
_space_group_name_Hall           '-P 2ac 2ab 3'
loop_
_symmetry_equiv_pos_site_id
_symmetry_equiv_pos_as_xyz
1 x,y,z
2 z,x,y
3 y,z,x
4 1/2-x,-y,1/2+z
5 -x,1/2+y,1/2-z
6 1/2+x,1/2-y,-z
7 1/2+z,1/2-x,-y
8 1/2-z,-x,1/2+y
9 -z,1/2+x,1/2-y
10 -y,1/2+z,1/2-x
11 1/2+y,1/2-z,-x
12 1/2-y,-z,1/2+x
13 -x,-y,-z
14 -z,-x,-y
15 -y,-z,-x
16 1/2+x,y,1/2-z
17 x,1/2-y,1/2+z
18 1/2-x,1/2+y,z
19 1/2-z,1/2+x,y
20 1/2+z,x,1/2-y
21 z,1/2-x,1/2+y
22 y,1/2-z,1/2+x
23 1/2-y,1/2+z,x
24 1/2+y,z,1/2-x
_cell_length_a                   20.2730(10)
_cell_length_b                   20.2730(10)
_cell_length_c                   20.2730(10)
_cell_angle_alpha                90
_cell_angle_beta                 90
_cell_angle_gamma                90
_cell_volume                     8332.09
loop_
_atom_site_label
_atom_site_type_symbol
_atom_site_fract_x
_atom_site_fract_y
_atom_site_fract_z
_atom_site_U_iso_or_equiv
_atom_site_thermal_displace_type
Co1 Co 0.15901(9) 0.39695(9) 0.14260(9) 0.0311 Uani
Co2 Co 0.00649(9) 0.56230(10) 0.27128(9) 0.0357 Uani
O1 O 0.1250(4) 0.3310(4) 0.2179(4) 0.0270 Uani
C1 C 0.0884(7) 0.3674(6) 0.2674(6) 0.0307 Uani
H1 H 0.1186 0.3797 0.3030 0.0370 Uiso
C2 C 0.0589(7) 0.4303(7) 0.2379(8) 0.0410 Uani
O2 O 0.0770(5) 0.4482(5) 0.1819(5) 0.0410 Uani
O3 O 0.0197(5) 0.4610(5) 0.2750(5) 0.0513 Uani
C3 C 0.0378(6) 0.3174(6) 0.2944(6) 0.0240 Uani
H2 H -0.0017 0.3403 0.3103 0.0280 Uiso
C4 C 0.0704(6) 0.2792(6) 0.3506(7) 0.0293 Uani
O4 O 0.0668(6) 0.3069(5) 0.4056(5) 0.0570 Uani
O5 O 0.0992(4) 0.2274(5) 0.3374(4) 0.0380 Uani
C5 C 0.0211(6) 0.2755(6) 0.2320(6) 0.0343 Uani
H3 H -0.0121 0.2996 0.2065 0.0410 Uiso
C6 C -0.0065(6) 0.2089(6) 0.2473(7) 0.0307 Uani
O6 O -0.0537(5) 0.2102(4) 0.2868(5) 0.0387 Uani
O7 O 0.0147(5) 0.1585(4) 0.2194(4) 0.0337 Uani
C7 C 0.0858(6) 0.2760(6) 0.1920(6) 0.0273 Uani
H4 H 0.1096 0.2346 0.1995 0.0330 Uiso
C8 C 0.0728(7) 0.2843(7) 0.1184(7) 0.0387 Uani
O8 O 0.0462(5) 0.2394(5) 0.0896(4) 0.0420 Uani
O9 O 0.0905(4) 0.3399(5) 0.0918(4) 0.0393 Uani
O10 O 0.1686(5) 0.4677(4) 0.0655(4) 0.0393 Uani
O5B O 0.2274(5) 0.3374(4) 0.0992(4) 0.0380 Uani
O6R O 0.2132(5) 0.4463(5) 0.2102(4) 0.0387 Uani
O4R O 0.0944(5) 0.5668(6) 0.3069(5) 0.0570 Uani
O7D O -0.0147(5) 0.6585(4) 0.2806(4) 0.0337 Uani
O8H O -0.0896(4) 0.5462(5) 0.2606(5) 0.0420 Uani
O10V O 0.0323(4) 0.5655(4) 0.1686(5) 0.0393 Uani
Co2W Co 0.06230(10) 0.27128(9) 0.49351(9) 0.0357 Uani
Co1A Co 0.14260(9) 0.15901(9) 0.39695(9) 0.0311 Uani
Co1W Co -0.10305(9) 0.14260(9) 0.34099(9) 0.0311 Uani
Co2D Co -0.00649(9) 0.06230(10) 0.22872(9) 0.0357 Uani
Co2J Co 0.06230(10) 0.22872(9) -0.00649(9) 0.0357 Uani
Co2T Co 0.27128(9) 0.49351(9) 0.06230(10) 0.0357 Uani
loop_
_atom_site_aniso_label
_atom_site_aniso_U_11
_atom_site_aniso_U_22
_atom_site_aniso_U_33
_atom_site_aniso_U_23
_atom_site_aniso_U_13
_atom_site_aniso_U_12
Co1 0.0331(11) 0.0301(11) 0.0302(11) -0.0025(9) 0.0038(9) -0.0038(9)
Co2 0.0237 0.0284 0.0549 0.0062 0.0025 0.0052
O1 0.025(5) 0.030(5) 0.026(5) -0.010(4) 0.005(4) -0.005(4)
C1 0.043(8) 0.031(8) 0.018(7) 0.005(6) 0.001(6) 0.000(6)
C2 0.032(8) 0.028(8) 0.063(11) 0.001(8) 0.003(8) -0.004(7)
O2 0.046(6) 0.032(6) 0.045(7) 0.003(5) 0.015(5) 0.008(5)
O3 0.055(7) 0.038(6) 0.061(7) 0.013(5) 0.017(6) 0.016(5)
C3 0.021(7) 0.026(7) 0.025(7) -0.003(6) 0.005(6) -0.002(6)
C4 0.029(8) 0.029(8) 0.030(8) 0.006(7) -0.009(6) -0.012(7)
O4 0.095(9) 0.049(7) 0.027(6) -0.011(5) -0.019(6) 0.010(6)
O5 0.042(6) 0.035(6) 0.037(6) -0.003(5) -0.004(5) 0.017(5)
C5 0.035(8) 0.036(8) 0.032(8) 0.013(7) -0.006(7) -0.002(7)
C6 0.022(7) 0.037(8) 0.033(8) -0.008(7) 0.001(7) -0.010(6)
O6 0.042(6) 0.026(5) 0.048(7) 0.005(5) 0.005(5) -0.011(5)
O7 0.052(6) 0.026(5) 0.023(5) -0.003(4) 0.011(4) -0.006(5)
C7 0.041(8) 0.028(7) 0.013(6) -0.002(6) -0.001(6) -0.001(6)
C8 0.041(9) 0.028(8) 0.047(10) -0.010(7) -0.002(8) 0.000(7)
O8 0.058(7) 0.047(7) 0.021(5) -0.007(5) 0.009(5) -0.020(5)
O9 0.039(6) 0.043(6) 0.036(6) 0.002(5) -0.004(5) -0.006(5)
O10 0.055(7) 0.024(5) 0.039(6) 0.001(5) -0.004(5) 0.002(5)
O5B 0.035 0.037 0.042 -0.004 0.017 -0.003
O6R 0.048 0.042 0.026 -0.011 -0.005 -0.005
O4R 0.027 0.095 0.049 0.01 0.011 0.019
O7D 0.052 0.026 0.023 0.003 0.011 0.006
O8H 0.021 0.058 0.047 0.02 -0.007 -0.009
O10V 0.024 0.039 0.055 -0.004 -0.002 -0.001
Co2W 0.0284(11) 0.0549(14) 0.0237(11) -0.0025(10) -0.0052(9) 0.0062(10)
Co1A 0.0302 0.0331 0.0301 -0.0038 -0.0025 0.0038
Co1W 0.0301 0.0302 0.0331 -0.0038 0.0038 -0.0025
Co2D 0.0237 0.0284 0.0549 -0.0062 0.0025 -0.0052
Co2J 0.0284 0.0549 0.0237 0.0025 -0.0052 -0.0062
Co2T 0.0549 0.0237 0.0284 -0.0052 0.0062 -0.0025
loop_
_geom_bond_atom_site_label_1
_geom_bond_atom_site_label_2
_geom_bond_site_symmetry_1
_geom_bond_site_symmetry_2
Co1 O1 1_555 1_555
Co2 O3 1_555 1_555
O1 C1 1_555 1_555
C1 H1 1_555 1_555
C2 C1 1_555 1_555
O2 Co1 1_555 1_555
O3 C2 1_555 1_555
C3 C1 1_555 1_555
H2 C3 1_555 1_555
C4 C3 1_555 1_555
O4 C4 1_555 1_555
O5 C4 1_555 1_555
C5 C3 1_555 1_555
H3 C5 1_555 1_555
C6 C5 1_555 1_555
O6 C6 1_555 1_555
O7 C6 1_555 1_555
C7 O1 1_555 1_555
H4 C7 1_555 1_555
C8 C7 1_555 1_555
O8 C8 1_555 1_555
O9 Co1 1_555 1_555
O10 Co1 1_555 1_555
O5B Co1 1_555 1_555
O6R Co1 1_555 1_555
O4R Co2 1_555 1_555
O7D Co2 1_555 1_555
O8H Co2 1_555 1_555
O10V Co2 1_555 1_555
Co2W O4 1_555 1_555
Co1A O5 1_555 1_555
Co1W O6 1_555 1_555
Co2D O7 1_555 1_555
Co2J O8 1_555 1_555
Co2T O10 1_555 1_555
C2 O2 1_555 1_555
C5 C7 1_555 1_555
C8 O9 1_555 1_555

#END
