
#######################################################################
#
#                 Cambridge Crystallographic Data Centre
#                                CCDC 
#
#######################################################################
#
# If this CIF has been generated from an entry in the Cambridge 
# Structural Database, then it will include bibliographic, chemical, 
# crystal, experimental, refinement or atomic coordinate data resulting 
# from the CCDC's data processing and validation procedures.
#
#######################################################################

data_GIQXUA
_chemical_formula_moiety         '(C4 H28 Gd1 O24 P4 Ru2)n'
_symmetry_cell_setting           monoclinic
_symmetry_space_group_name_H-M   'C 2/c'
_symmetry_Int_Tables_number      15
_space_group_name_Hall           '-C 2yc'
loop_
_symmetry_equiv_pos_site_id
_symmetry_equiv_pos_as_xyz
1 x,y,z
2 1/2+x,1/2+y,z
3 -x,y,1/2-z
4 1/2-x,1/2+y,1/2-z
5 -x,-y,-z
6 1/2-x,1/2-y,-z
7 x,-y,1/2+z
8 1/2+x,1/2-y,1/2+z
_cell_length_a                   12.475(2)
_cell_length_b                   14.6256(19)
_cell_length_c                   15.548(3)
_cell_angle_alpha                90
_cell_angle_beta                 94.518(5)
_cell_angle_gamma                90
_cell_volume                     2827.99
loop_
_atom_site_label
_atom_site_type_symbol
_atom_site_fract_x
_atom_site_fract_y
_atom_site_fract_z
Ru1 Ru 0.16656(5) 0.71221(4) 0.49805(3)
Gd1 Gd 0.5000 0.51105(3) 0.2500
P1 P 0.30014(14) 0.65456(12) 0.35517(11)
P2 P 0.18634(14) 0.83725(12) 0.34596(11)
O1 O 0.2112(3) 0.6203(3) 0.4105(3)
O2 O 0.3907(3) 0.7005(3) 0.4141(3)
O3 O 0.3441(4) 0.5790(3) 0.3012(3)
O4 O 0.1021(3) 0.7932(3) 0.4016(3)
O5 O 0.2808(3) 0.8743(3) 0.4064(3)
O6 O 0.1377(4) 0.9082(3) 0.2857(3)
O7 O 0.3255(4) 0.7749(3) 0.2334(3)
O8 O 0.0079(4) 0.6327(3) 0.4935(3)
O9 O 0.5711(4) 0.6312(3) 0.3512(3)
O10 O 0.5234(4) 0.4519(3) 0.1078(3)
H1 H 0.377(5) 0.799(5) 0.270(4)
H2 H -0.007(6) 0.617(6) 0.440(3)
H3 H -0.040(6) 0.676(5) 0.503(5)
H4 H 0.535(4) 0.625(4) 0.401(3)
H5 H 0.559(5) 0.684(3) 0.328(4)
H6 H 0.476(5) 0.410(5) 0.095(6)
H7 H 0.585(4) 0.429(4) 0.104(4)
C1 C 0.2390(5) 0.7436(4) 0.2828(4)
C2 C 0.1510(5) 0.7037(5) 0.2216(5)
H16 H 0.1813 0.6563 0.1862
H17 H 0.1195 0.7522 0.1841
H18 H 0.0952 0.6770 0.2548
Ru1B Ru 0.83344(5) 0.71221(4) 0.00195(3)
Ru1E Ru 0.33344(5) 0.78779(4) 0.50195(3)
Ru1G Ru 0.66656(5) 0.78779(4) -0.00195(3)
Gd1A Gd 0.0000 1.01105(3) 0.2500
Gd1A_2 Gd 1.0000 1.01105(3) 0.2500
P1B P 0.69986(14) 0.65456(12) 0.14483(11)
P2B P 0.81366(14) 0.83725(12) 0.15404(11)
O1B O 0.7888(3) 0.6203(3) 0.0895(3)
O2B O 0.6093(3) 0.7005(3) 0.0859(3)
O2E O 0.1093(3) 0.7995(3) 0.5859(3)
O2G O 0.8907(3) 0.7995(3) -0.0859(3)
O3B O 0.6559(4) 0.5790(3) 0.1988(3)
O4B O 0.8979(3) 0.7932(3) 0.0984(3)
O5B O 0.7192(3) 0.8743(3) 0.0936(3)
O5E O 0.2192(3) 0.6257(3) 0.5936(3)
O5G O 0.7808(3) 0.6257(3) -0.0936(3)
O6B O 0.8623(4) 0.9082(3) 0.2143(3)
O6A O 0.6377(4) 0.4082(3) 0.2857(3)
O6C O 0.3623(4) 0.4082(3) 0.2143(3)
O7B O 0.6745(4) 0.7749(3) 0.2666(3)
O8B O 0.9921(4) 0.6327(3) 0.0065(3)
O9B O 0.4289(4) 0.6312(3) 0.1488(3)
O10B O 0.4766(4) 0.4519(3) 0.3922(3)
H1B H 0.623(5) 0.799(5) 0.230(4)
H2B H 1.007(6) 0.617(6) 0.060(3)
H3B H 1.040(6) 0.676(5) -0.003(5)
H4B H 0.465(4) 0.625(4) 0.099(3)
H5B H 0.441(5) 0.684(3) 0.172(4)
H6B H 0.524(5) 0.410(5) 0.405(6)
H7B H 0.415(4) 0.429(4) 0.396(4)
C1B C 0.7610(5) 0.7436(4) 0.2172(4)
C2B C 0.8490(5) 0.7037(5) 0.2784(5)
H16B H 0.8187 0.6563 0.3138
H17B H 0.8805 0.7522 0.3159
H18B H 0.9048 0.6770 0.2452
O11 O 0.0181(4) 0.4978(3) 0.1257(3)
H8 H 0.090(4) 0.497(4) 0.121(4)
H9 H 0.007(6) 0.469(5) 0.175(4)
O12 O 0.6919(4) 0.5391(3) 0.4970(3)
H10 H 0.757(4) 0.519(5) 0.504(5)
H11 H 0.669(6) 0.521(5) 0.444(3)
O13 O 0.8498(4) 0.4585(4) 0.2238(3)
H12 H 0.781(4) 0.453(5) 0.201(4)
H13 H 0.850(7) 0.519(3) 0.243(6)
O14 O 0.8171(4) 0.3125(4) 0.0439(3)
H14 H 0.761(5) 0.344(5) 0.065(5)
H15 H 0.8287 0.2767 0.0975
loop_
_geom_bond_atom_site_label_1
_geom_bond_atom_site_label_2
_geom_bond_site_symmetry_1
_geom_bond_site_symmetry_2
Ru1 O1 1_555 1_555
Gd1 O3 1_555 1_555
P1 O1 1_555 1_555
P2 O4 1_555 1_555
O2 P1 1_555 1_555
O3 P1 1_555 1_555
O4 Ru1 1_555 1_555
O5 P2 1_555 1_555
O6 P2 1_555 1_555
O7 H1 1_555 1_555
O8 Ru1 1_555 1_555
O9 Gd1 1_555 1_555
O10 Gd1 1_555 1_555
O11 H8 1_555 1_555
O12 H10 1_555 1_555
O13 H12 1_555 1_555
O14 H14 1_555 1_555
H2 O8 1_555 1_555
H3 O8 1_555 1_555
H4 O9 1_555 1_555
H5 O9 1_555 1_555
H6 O10 1_555 1_555
H7 O10 1_555 1_555
H9 O11 1_555 1_555
H11 O12 1_555 1_555
H13 O13 1_555 1_555
H15 O14 1_555 1_555
C1 P1 1_555 1_555
C2 C1 1_555 1_555
H16 C2 1_555 1_555
H17 C2 1_555 1_555
H18 C2 1_555 1_555
Ru1B Ru1G 1_555 1_555
Ru1E Ru1 1_555 1_555
Ru1G O2B 1_555 1_555
Gd1A O6 1_555 1_555
Gd1A_2 O6B 1_555 1_555
P1B O1B 1_555 1_555
P2B O4B 1_555 1_555
O1B Ru1B 1_555 1_555
O2B P1B 1_555 1_555
O2E Ru1 1_555 1_555
O2G Ru1B 1_555 1_555
O3B Gd1 1_555 1_555
O4B Ru1B 1_555 1_555
O5B Ru1G 1_555 1_555
O5E Ru1 1_555 1_555
O5G Ru1B 1_555 1_555
O6B P2B 1_555 1_555
O6A Gd1 1_555 1_555
O6C Gd1 1_555 1_555
O7B H1B 1_555 1_555
O8B Ru1B 1_555 1_555
O9B Gd1 1_555 1_555
O10B Gd1 1_555 1_555
H2B O8B 1_555 1_555
H3B O8B 1_555 1_555
H4B O9B 1_555 1_555
H5B O9B 1_555 1_555
H6B O10B 1_555 1_555
H7B O10B 1_555 1_555
C1B P1B 1_555 1_555
C2B C1B 1_555 1_555
H16B C2B 1_555 1_555
H17B C2B 1_555 1_555
H18B C2B 1_555 1_555
P2 C1 1_555 1_555
O2 Ru1E 1_555 1_555
O5 Ru1E 1_555 1_555
O7 C1 1_555 1_555
P1B O3B 1_555 1_555
P2B O5B 1_555 1_555
P2B C1B 1_555 1_555
O7B C1B 1_555 1_555

#END
