
#######################################################################
#
#                 Cambridge Crystallographic Data Centre
#                                CCDC 
#
#######################################################################
#
# If this CIF has been generated from an entry in the Cambridge 
# Structural Database, then it will include bibliographic, chemical, 
# crystal, experimental, refinement or atomic coordinate data resulting 
# from the CCDC's data processing and validation procedures.
#
#######################################################################

data_BIJDUV
_chemical_formula_moiety         '(C149 H196 Br1 Cd3 N15 O27 Ti4)n'
_symmetry_cell_setting           orthorhombic
_symmetry_space_group_name_H-M   'P 21 21 2'
_symmetry_Int_Tables_number      18
_space_group_name_Hall           'P 2 2ab'
loop_
_symmetry_equiv_pos_site_id
_symmetry_equiv_pos_as_xyz
1 x,y,z
2 -x,-y,z
3 1/2+x,1/2-y,-z
4 1/2-x,1/2+y,-z
_cell_length_a                   34.4419(13)
_cell_length_b                   16.7622(8)
_cell_length_c                   18.4473(8)
_cell_angle_alpha                90
_cell_angle_beta                 90
_cell_angle_gamma                90
_cell_volume                     10650
loop_
_atom_site_label
_atom_site_type_symbol
_atom_site_fract_x
_atom_site_fract_y
_atom_site_fract_z
Ti1 Ti 0.82225(6) 0.65309(13) 0.17004(11)
Ti2 Ti 0.83826(6) 0.77514(13) 0.32796(12)
Cd1 Cd 1.0000 0.5000 0.58940(6)
Cd2 Cd 0.99419(2) 0.62269(6) 0.74984(5)
Br1 Br 1.0000 0.5000 0.44943(10)
N1 N 0.8740(2) 0.7210(6) 0.1371(5)
N2 N 0.7966(3) 0.7611(6) 0.1117(6)
N3 N 0.8632(3) 0.6593(6) 0.3615(5)
N4 N 0.7894(2) 0.7177(5) 0.3901(5)
O1 O 0.9354(3) 0.5801(8) -0.2015(7)
O2 O 0.9754(3) 0.6399(7) -0.1317(6)
O3 O 0.8327(2) 0.6000(4) 0.0799(4)
O4 O 0.7707(2) 0.6205(5) 0.1687(4)
O5 O 0.8471(2) 0.5735(5) 0.2232(4)
O6 O 0.82104(18) 0.7181(4) 0.2498(4)
O7 O 0.9871(2) 0.6324(6) 0.6165(5)
O8 O 0.9657(2) 0.7252(7) 0.6927(5)
O9 O 1.0000 0.5000 0.7182(8)
O10 O 0.8619(2) 0.8077(5) 0.4184(4)
O11 O 0.80307(19) 0.8603(5) 0.3236(4)
O12 O 0.8807(2) 0.8108(5) 0.2742(4)
C1 C 0.9439(4) 0.6070(9) -0.1417(9)
C2 C 0.91487(18) 0.6034(5) -0.0830(4)
C3 C 0.92332(16) 0.6353(5) -0.0153(4)
H1 H 0.9474 0.6587 -0.0068
C4 C 0.8958(2) 0.6323(5) 0.0398(3)
C5 C 0.85983(18) 0.5973(5) 0.0270(3)
C6 C 0.85139(16) 0.5655(5) -0.0407(4)
C7 C 0.8789(2) 0.5685(5) -0.0957(3)
H2 H 0.8733 0.5472 -0.1411
C8 C 0.8111(3) 0.5249(8) -0.0568(7)
C9 C 0.8076(3) 0.5024(10) -0.1385(7)
H3 H 0.7828 0.4779 -0.1471
H4 H 0.8279 0.4657 -0.1511
H5 H 0.8099 0.5496 -0.1675
C10 C 0.8085(4) 0.4499(8) -0.0093(8)
H6 H 0.7842 0.4234 -0.0182
H7 H 0.8100 0.4648 0.0408
H8 H 0.8295 0.4146 -0.0209
C11 C 0.7767(3) 0.5803(7) -0.0389(7)
H9 H 0.7528 0.5535 -0.0500
H10 H 0.7786 0.6281 -0.0674
H11 H 0.7773 0.5938 0.0116
C12 C 0.9041(3) 0.6656(8) 0.1156(7)
H12 H 0.9054 0.6221 0.1501
H13 H 0.9290 0.6926 0.1155
C13 C 0.8653(3) 0.7862(7) 0.0866(7)
H14 H 0.8616 0.7616 0.0389
C14 C 0.8981(4) 0.8459(9) 0.0784(8)
H15 H 0.9208 0.8189 0.0594
H16 H 0.9047 0.8673 0.1256
C15 C 0.8868(4) 0.9163(10) 0.0264(9)
H17 H 0.9069 0.9569 0.0280
H18 H 0.8852 0.8966 -0.0230
C16 C 0.8489(4) 0.9521(8) 0.0477(8)
H19 H 0.8418 0.9926 0.0126
H20 H 0.8518 0.9780 0.0945
C17 C 0.8160(3) 0.8894(8) 0.0525(7)
H21 H 0.7921 0.9148 0.0681
H22 H 0.8116 0.8658 0.0052
C18 C 0.8274(3) 0.8255(7) 0.1059(6)
H23 H 0.8302 0.8504 0.1537
C19 C 0.7632(3) 0.7902(7) 0.1497(7)
H24 H 0.7531 0.8358 0.1233
H25 H 0.7716 0.8093 0.1968
C20 C 0.73013(16) 0.7325(4) 0.1615(5)
C21 C 0.6934(2) 0.7661(4) 0.1683(5)
H26 H 0.6903 0.8210 0.1638
C22 C 0.66144(15) 0.7177(5) 0.1817(5)
C23 C 0.66618(18) 0.6357(5) 0.1884(5)
H27 H 0.6448 0.6033 0.1973
C24 C 0.7029(2) 0.6021(4) 0.1816(5)
C25 C 0.73487(16) 0.6504(4) 0.1682(5)
C26 C 0.7074(3) 0.5092(7) 0.1896(6)
C27 C 0.7279(4) 0.4746(7) 0.1218(7)
H28 H 0.7305 0.4178 0.1269
H29 H 0.7532 0.4981 0.1170
H30 H 0.7128 0.4863 0.0794
C28 C 0.6682(4) 0.4637(8) 0.1963(11)
H31 H 0.6732 0.4076 0.2016
H32 H 0.6529 0.4726 0.1535
H33 H 0.6543 0.4828 0.2380
C29 C 0.7291(4) 0.4934(10) 0.2578(8)
H34 H 0.7320 0.4369 0.2643
H35 H 0.7151 0.5154 0.2981
H36 H 0.7543 0.5177 0.2549
N5 N 0.5526(2) 0.8277(6) 0.2336(7)
C30 C 0.5781(3) 0.8646(6) 0.1858(7)
H37 H 0.5718 0.9138 0.1656
C31 C 0.6131(3) 0.8281(7) 0.1681(7)
H38 H 0.6301 0.8528 0.1361
C32 C 0.6226(2) 0.7546(7) 0.1983(8)
C33 C 0.5971(3) 0.7177(6) 0.2461(7)
H39 H 0.6034 0.6686 0.2663
C34 C 0.5621(3) 0.7543(7) 0.2638(6)
H40 H 0.5451 0.7296 0.2958
C35 C 0.9664(4) 0.6926(9) 0.6290(8)
C36 C 0.94014(19) 0.7278(5) 0.5705(3)
C37 C 0.9190(2) 0.7971(5) 0.5831(3)
H41 H 0.9224 0.8251 0.6262
C38 C 0.8929(2) 0.8245(4) 0.5314(4)
C39 C 0.88789(19) 0.7827(4) 0.4670(3)
C40 C 0.9090(2) 0.7134(4) 0.4544(3)
C41 C 0.9351(2) 0.6860(4) 0.5061(4)
H42 H 0.9493 0.6396 0.4977
C42 C 0.8720(4) 0.9090(8) 0.5454(8)
C43 C 0.8269(4) 0.8990(10) 0.5394(9)
H43 H 0.8146 0.9495 0.5480
H44 H 0.8182 0.8610 0.5747
H45 H 0.8204 0.8805 0.4917
C44 C 0.8867(5) 0.9663(9) 0.4866(10)
H46 H 0.8749 1.0177 0.4933
H47 H 0.8798 0.9458 0.4397
H48 H 0.9144 0.9712 0.4900
C45 C 0.8850(7) 0.9446(11) 0.6222(9)
H49 H 0.8725 0.9949 0.6299
H50 H 0.9127 0.9519 0.6226
H51 H 0.8778 0.9082 0.6600
C46 C 0.8392(3) 0.6170(8) 0.4156(7)
H52 H 0.8436 0.6405 0.4635
C47 C 0.8490(4) 0.5255(7) 0.4185(8)
H53 H 0.8461 0.5022 0.3706
H54 H 0.8757 0.5180 0.4340
C48 C 0.8221(4) 0.4857(9) 0.4703(7)
H55 H 0.8265 0.5077 0.5183
H56 H 0.8284 0.4293 0.4722
C49 C 0.7800(3) 0.4948(8) 0.4516(7)
H57 H 0.7640 0.4681 0.4875
H58 H 0.7748 0.4712 0.4046
C50 C 0.7708(4) 0.5836(8) 0.4502(7)
H59 H 0.7746 0.6059 0.4982
H60 H 0.7438 0.5913 0.4368
C51 C 0.7975(3) 0.6281(8) 0.3947(7)
H61 H 0.7935 0.6047 0.3466
C52 C 0.7513(3) 0.7296(7) 0.3520(6)
H62 H 0.7535 0.7099 0.3028
H63 H 0.7315 0.6985 0.3765
C53 C 0.73882(19) 0.8152(3) 0.3500(4)
C54 C 0.69960(17) 0.8322(4) 0.3587(4)
H64 H 0.6822 0.7915 0.3697
C55 C 0.68636(13) 0.9101(4) 0.3511(4)
C56 C 0.71234(19) 0.9710(3) 0.3347(4)
H65 H 0.7035 1.0231 0.3295
C57 C 0.75156(17) 0.9539(4) 0.3259(4)
C58 C 0.76480(13) 0.8760(4) 0.3336(4)
C59 C 0.7796(3) 1.0250(7) 0.3086(7)
C60 C 0.8025(3) 1.0069(9) 0.2378(7)
H66 H 0.7846 0.9998 0.1984
H67 H 0.8175 0.9591 0.2440
H68 H 0.8196 1.0507 0.2271
C61 C 0.8087(4) 1.0329(9) 0.3707(8)
H69 H 0.8264 1.0756 0.3605
H70 H 0.8229 0.9839 0.3758
H71 H 0.7950 1.0441 0.4150
C62 C 0.7597(4) 1.1038(8) 0.3002(7)
H72 H 0.7411 1.1006 0.2617
H73 H 0.7786 1.1441 0.2891
H74 H 0.7467 1.1172 0.3446
N6 N 0.56578(15) 0.9694(5) 0.3921(5)
C63 C 0.58093(19) 0.8978(4) 0.4175(4)
H75 H 0.5653 0.8630 0.4438
C64 C 0.6194(2) 0.8782(4) 0.4035(5)
H76 H 0.6296 0.8303 0.4205
C65 C 0.64277(15) 0.9302(5) 0.3642(5)
C66 C 0.6276(2) 1.0018(5) 0.3389(5)
H77 H 0.6432 1.0366 0.3126
C67 C 0.5891(2) 1.0214(4) 0.3528(5)
H78 H 0.5790 1.0693 0.3358
C68 C 0.8563(4) 0.4963(11) 0.2050(8)
H79 H 0.8695 0.4713 0.2448
H80 H 0.8730 0.4965 0.1633
H81 H 0.8330 0.4674 0.1941
C69 C 0.9110(4) 0.8655(10) 0.2920(9)
H82 H 0.9288 0.8695 0.2521
H83 H 0.9246 0.8468 0.3341
H84 H 0.9001 0.9171 0.3018
C70 C 0.9048(3) 0.6704(8) 0.3833(6)
H85 H 0.9181 0.7003 0.3459
H86 H 0.9171 0.6185 0.3869
Ti1A Ti 1.17775(6) 0.34691(13) 0.17004(11)
Ti2A Ti 1.16174(6) 0.22486(13) 0.32796(12)
Cd2A Cd 1.00581(2) 0.37731(6) 0.74984(5)
N1A N 1.1260(2) 0.2790(6) 0.1371(5)
N2A N 1.2034(3) 0.2389(6) 0.1117(6)
N3A N 1.1368(3) 0.3407(6) 0.3615(5)
N4A N 1.2106(2) 0.2823(5) 0.3901(5)
O1A O 1.0646(3) 0.4199(8) -0.2015(7)
O2A O 1.0246(3) 0.3601(7) -0.1317(6)
O3A O 1.1673(2) 0.4000(4) 0.0799(4)
O4A O 1.2293(2) 0.3795(5) 0.1687(4)
O5A O 1.1529(2) 0.4265(5) 0.2232(4)
O6A O 1.17896(18) 0.2819(4) 0.2498(4)
O7A O 1.0129(2) 0.3676(6) 0.6165(5)
O8A O 1.0343(2) 0.2748(7) 0.6927(5)
O10A O 1.1381(2) 0.1923(5) 0.4184(4)
O11A O 1.19693(19) 0.1397(5) 0.3236(4)
O12A O 1.1193(2) 0.1892(5) 0.2742(4)
C1A C 1.0561(4) 0.3930(9) -0.1417(9)
C2A C 1.08513(18) 0.3966(5) -0.0830(4)
C3A C 1.07668(16) 0.3647(5) -0.0153(4)
H1A H 1.0526 0.3413 -0.0068
C4A C 1.1042(2) 0.3677(5) 0.0398(3)
C5A C 1.14017(18) 0.4027(5) 0.0270(3)
C6A C 1.14861(16) 0.4345(5) -0.0407(4)
C7A C 1.1211(2) 0.4315(5) -0.0957(3)
H2A H 1.1267 0.4528 -0.1411
C8A C 1.1889(3) 0.4751(8) -0.0568(7)
C9A C 1.1924(3) 0.4976(10) -0.1385(7)
H3A H 1.2172 0.5221 -0.1471
H4A H 1.1721 0.5343 -0.1511
H5A H 1.1901 0.4504 -0.1675
C10A C 1.1915(4) 0.5501(8) -0.0093(8)
H6A H 1.2158 0.5766 -0.0182
H7A H 1.1900 0.5352 0.0408
H8A H 1.1705 0.5854 -0.0209
C11A C 1.2233(3) 0.4197(7) -0.0389(7)
H9A H 1.2472 0.4465 -0.0500
H10A H 1.2214 0.3719 -0.0674
H11A H 1.2227 0.4062 0.0116
C12A C 1.0959(3) 0.3344(8) 0.1156(7)
H12A H 1.0946 0.3779 0.1501
H13A H 1.0710 0.3074 0.1155
C13A C 1.1347(3) 0.2138(7) 0.0866(7)
H14A H 1.1384 0.2384 0.0389
C14A C 1.1019(4) 0.1541(9) 0.0784(8)
H15A H 1.0792 0.1811 0.0594
H16A H 1.0953 0.1327 0.1256
C15A C 1.1132(4) 0.0837(10) 0.0264(9)
H17A H 1.0931 0.0431 0.0280
H18A H 1.1148 0.1034 -0.0230
C16A C 1.1511(4) 0.0479(8) 0.0477(8)
H19A H 1.1582 0.0074 0.0126
H20A H 1.1482 0.0220 0.0945
C17A C 1.1840(3) 0.1106(8) 0.0525(7)
H21A H 1.2079 0.0852 0.0681
H22A H 1.1884 0.1342 0.0052
C18A C 1.1726(3) 0.1745(7) 0.1059(6)
H23A H 1.1698 0.1496 0.1537
C19A C 1.2368(3) 0.2098(7) 0.1497(7)
H24A H 1.2469 0.1642 0.1233
H25A H 1.2284 0.1907 0.1968
C20A C 1.26987(16) 0.2675(4) 0.1615(5)
C21A C 1.3066(2) 0.2339(4) 0.1683(5)
H26A H 1.3097 0.1790 0.1638
C22A C 1.33856(15) 0.2823(5) 0.1817(5)
C23A C 1.33382(18) 0.3643(5) 0.1884(5)
H27A H 1.3552 0.3967 0.1973
C24A C 1.2971(2) 0.3979(4) 0.1816(5)
C25A C 1.26513(16) 0.3496(4) 0.1682(5)
C26A C 1.2926(3) 0.4908(7) 0.1896(6)
C27A C 1.2721(4) 0.5254(7) 0.1218(7)
H28A H 1.2695 0.5822 0.1269
H29A H 1.2468 0.5019 0.1170
H30A H 1.2872 0.5137 0.0794
C28A C 1.3318(4) 0.5363(8) 0.1963(11)
H31A H 1.3268 0.5924 0.2016
H32A H 1.3471 0.5274 0.1535
H33A H 1.3457 0.5172 0.2380
C29A C 1.2709(4) 0.5066(10) 0.2578(8)
H34A H 1.2680 0.5631 0.2643
H35A H 1.2849 0.4846 0.2981
H36A H 1.2457 0.4823 0.2549
N5A N 1.4474(2) 0.1723(6) 0.2336(7)
C30A C 1.4219(3) 0.1354(6) 0.1858(7)
H37A H 1.4282 0.0862 0.1656
C31A C 1.3869(3) 0.1719(7) 0.1681(7)
H38A H 1.3699 0.1472 0.1361
C32A C 1.3774(2) 0.2454(7) 0.1983(8)
C33A C 1.4029(3) 0.2823(6) 0.2461(7)
H39A H 1.3966 0.3314 0.2663
C34A C 1.4379(3) 0.2457(7) 0.2638(6)
H40A H 1.4549 0.2704 0.2958
C35A C 1.0336(4) 0.3074(9) 0.6290(8)
C36A C 1.05986(19) 0.2722(5) 0.5705(3)
C37A C 1.0810(2) 0.2029(5) 0.5831(3)
H41A H 1.0776 0.1749 0.6262
C38A C 1.1071(2) 0.1755(4) 0.5314(4)
C39A C 1.11211(19) 0.2173(4) 0.4670(3)
C40A C 1.0910(2) 0.2866(4) 0.4544(3)
C41A C 1.0649(2) 0.3140(4) 0.5061(4)
H42A H 1.0507 0.3604 0.4977
C42A C 1.1280(4) 0.0910(8) 0.5454(8)
C43A C 1.1731(4) 0.1010(10) 0.5394(9)
H43A H 1.1854 0.0505 0.5480
H44A H 1.1818 0.1390 0.5747
H45A H 1.1796 0.1195 0.4917
C44A C 1.1133(5) 0.0337(9) 0.4866(10)
H46A H 1.1251 -0.0177 0.4933
H47A H 1.1202 0.0542 0.4397
H48A H 1.0856 0.0288 0.4900
C45A C 1.1150(7) 0.0554(11) 0.6222(9)
H49A H 1.1275 0.0051 0.6299
H50A H 1.0873 0.0481 0.6226
H51A H 1.1222 0.0918 0.6600
C46A C 1.1608(3) 0.3830(8) 0.4156(7)
H52A H 1.1564 0.3595 0.4635
C47A C 1.1510(4) 0.4745(7) 0.4185(8)
H53A H 1.1539 0.4978 0.3706
H54A H 1.1243 0.4820 0.4340
C48A C 1.1779(4) 0.5143(9) 0.4703(7)
H55A H 1.1735 0.4923 0.5183
H56A H 1.1716 0.5707 0.4722
C49A C 1.2200(3) 0.5052(8) 0.4516(7)
H57A H 1.2360 0.5319 0.4875
H58A H 1.2252 0.5288 0.4046
C50A C 1.2292(4) 0.4164(8) 0.4502(7)
H59A H 1.2254 0.3941 0.4982
H60A H 1.2562 0.4087 0.4368
C51A C 1.2025(3) 0.3719(8) 0.3947(7)
H61A H 1.2065 0.3953 0.3466
C52A C 1.2487(3) 0.2704(7) 0.3520(6)
H62A H 1.2465 0.2901 0.3028
H63A H 1.2685 0.3015 0.3765
C53A C 1.26118(19) 0.1848(3) 0.3500(4)
C54A C 1.30040(17) 0.1678(4) 0.3587(4)
H64A H 1.3178 0.2085 0.3697
C55A C 1.31364(13) 0.0899(4) 0.3511(4)
C56A C 1.28766(19) 0.0290(3) 0.3347(4)
H65A H 1.2965 -0.0231 0.3295
C57A C 1.24844(17) 0.0461(4) 0.3259(4)
C58A C 1.23520(13) 0.1240(4) 0.3336(4)
C59A C 1.2204(3) -0.0250(7) 0.3086(7)
C60A C 1.1975(3) -0.0069(9) 0.2378(7)
H66A H 1.2154 0.0002 0.1984
H67A H 1.1825 0.0409 0.2440
H68A H 1.1804 -0.0507 0.2271
C61A C 1.1913(4) -0.0329(9) 0.3707(8)
H69A H 1.1736 -0.0756 0.3605
H70A H 1.1771 0.0161 0.3758
H71A H 1.2050 -0.0441 0.4150
C62A C 1.2403(4) -0.1038(8) 0.3002(7)
H72A H 1.2589 -0.1006 0.2617
H73A H 1.2214 -0.1441 0.2891
H74A H 1.2533 -0.1172 0.3446
N6A N 1.43422(15) 0.0306(5) 0.3921(5)
C63A C 1.41907(19) 0.1022(4) 0.4175(4)
H75A H 1.4347 0.1370 0.4438
C64A C 1.3806(2) 0.1218(4) 0.4035(5)
H76A H 1.3704 0.1697 0.4205
C65A C 1.35723(15) 0.0698(5) 0.3642(5)
C66A C 1.3724(2) -0.0018(5) 0.3389(5)
H77A H 1.3568 -0.0366 0.3126
C67A C 1.4109(2) -0.0214(4) 0.3528(5)
H78A H 1.4210 -0.0693 0.3358
C68A C 1.1437(4) 0.5037(11) 0.2050(8)
H79A H 1.1305 0.5287 0.2448
H80A H 1.1270 0.5035 0.1633
H81A H 1.1670 0.5326 0.1941
C69A C 1.0890(4) 0.1345(10) 0.2920(9)
H82A H 1.0712 0.1305 0.2521
H83A H 1.0754 0.1532 0.3341
H84A H 1.0999 0.0829 0.3018
C70A C 1.0952(3) 0.3296(8) 0.3833(6)
H85A H 1.0819 0.2997 0.3459
H86A H 1.0829 0.3815 0.3869
Cd1B Cd 0.5000 1.0000 0.41060(6)
Cd1B_2 Cd 1.5000 -0.0000 0.41060(6)
Cd2_2 Cd 0.99419(2) 0.62269(6) -0.25016(5)
Cd2A_2 Cd 1.00581(2) 0.37731(6) -0.25016(5)
Cd2B Cd 0.49419(2) 0.87731(6) 0.25016(5)
Cd2C Cd 1.50581(2) 0.12269(6) 0.25016(5)
O1_2 O 0.9354(3) 0.5801(8) 0.7985(7)
O1A_2 O 1.0646(3) 0.4199(8) 0.7985(7)
O2_2 O 0.9754(3) 0.6399(7) 0.8683(6)
O2A_2 O 1.0246(3) 0.3601(7) 0.8683(6)
N5B N 1.0526(2) 0.6723(6) 0.7664(7)
N5C N 0.9474(2) 0.3277(6) 0.7664(7)
N6B N 1.06578(15) 0.5306(5) 0.6079(5)
N6C N 0.93422(15) 0.4694(5) 0.6079(5)
O13 O 0.7513(3) 0.2713(7) 0.0267(7)
C71 C 0.7824(6) 0.2326(13) 0.0214(13)
N7 N 0.8099(4) 0.2349(9) 0.0692(9)
C72 C 0.8428(11) 0.186(2) 0.038(2)
C73 C 0.8046(9) 0.281(2) 0.127(2)
O14 O 0.8342(7) 0.6757(14) 0.7317(14)
C74 C 0.8658(6) 0.7144(14) 0.7496(15)
N8 N 0.8614(5) 0.7517(11) 0.8052(11)
C75 C 0.8338(6) 0.7529(13) 0.8630(13)
C76 C 0.8987(7) 0.7841(15) 0.8244(15)
O15 O 0.8252(7) 0.6908(13) 0.5959(14)
O16 O 0.7453(5) 0.2648(12) 0.4559(11)
C77 C 0.7802(6) 0.2590(18) 0.4533(13)
N9 N 0.8102(5) 0.2779(13) 0.4020(11)
C78 C 0.8031(6) 0.3155(18) 0.3314(12)
C79 C 0.8508(6) 0.2460(18) 0.4160(16)
loop_
_geom_bond_atom_site_label_1
_geom_bond_atom_site_label_2
_geom_bond_site_symmetry_1
_geom_bond_site_symmetry_2
Ti1 N1 1_555 1_555
Ti2 N3 1_555 1_555
Cd1 Br1 1_555 1_555
Cd2 O7 1_555 1_555
N1 C12 1_555 1_555
N2 Ti1 1_555 1_555
N3 C46 1_555 1_555
N4 Ti2 1_555 1_555
O1 C1 1_555 1_555
O2 C1 1_555 1_555
O3 Ti1 1_555 1_555
O4 Ti1 1_555 1_555
O5 Ti1 1_555 1_555
O6 Ti1 1_555 1_555
O7 Cd1 1_555 1_555
O8 Cd2 1_555 1_555
O9 Cd1 1_555 1_555
O10 Ti2 1_555 1_555
O11 Ti2 1_555 1_555
O12 Ti2 1_555 1_555
C1 C2 1_555 1_555
C2 C3 1_555 1_555
C3 H1 1_555 1_555
C4 C3 1_555 1_555
C5 O3 1_555 1_555
C6 C5 1_555 1_555
C7 C2 1_555 1_555
H2 C7 1_555 1_555
C8 C6 1_555 1_555
C9 C8 1_555 1_555
H3 C9 1_555 1_555
H4 C9 1_555 1_555
H5 C9 1_555 1_555
C10 C8 1_555 1_555
H6 C10 1_555 1_555
H7 C10 1_555 1_555
H8 C10 1_555 1_555
C11 C8 1_555 1_555
H9 C11 1_555 1_555
H10 C11 1_555 1_555
H11 C11 1_555 1_555
C12 C4 1_555 1_555
H12 C12 1_555 1_555
H13 C12 1_555 1_555
C13 N1 1_555 1_555
H14 C13 1_555 1_555
C14 C13 1_555 1_555
H15 C14 1_555 1_555
H16 C14 1_555 1_555
C15 C14 1_555 1_555
H17 C15 1_555 1_555
H18 C15 1_555 1_555
C16 C15 1_555 1_555
H19 C16 1_555 1_555
H20 C16 1_555 1_555
C17 C16 1_555 1_555
H21 C17 1_555 1_555
H22 C17 1_555 1_555
C18 N2 1_555 1_555
H23 C18 1_555 1_555
C19 N2 1_555 1_555
H24 C19 1_555 1_555
H25 C19 1_555 1_555
C20 C19 1_555 1_555
C21 C20 1_555 1_555
H26 C21 1_555 1_555
C22 C21 1_555 1_555
C23 C22 1_555 1_555
H27 C23 1_555 1_555
C24 C23 1_555 1_555
C25 O4 1_555 1_555
C26 C24 1_555 1_555
C27 C26 1_555 1_555
H28 C27 1_555 1_555
H29 C27 1_555 1_555
H30 C27 1_555 1_555
C28 C26 1_555 1_555
H31 C28 1_555 1_555
H32 C28 1_555 1_555
H33 C28 1_555 1_555
C29 C26 1_555 1_555
H34 C29 1_555 1_555
H35 C29 1_555 1_555
H36 C29 1_555 1_555
N5 C30 1_555 1_555
C30 H37 1_555 1_555
C31 C30 1_555 1_555
H38 C31 1_555 1_555
C32 C22 1_555 1_555
C33 C32 1_555 1_555
H39 C33 1_555 1_555
C34 N5 1_555 1_555
H40 C34 1_555 1_555
C35 O7 1_555 1_555
C36 C35 1_555 1_555
C37 C36 1_555 1_555
H41 C37 1_555 1_555
C38 C37 1_555 1_555
C39 O10 1_555 1_555
C40 C39 1_555 1_555
C41 C36 1_555 1_555
H42 C41 1_555 1_555
C42 C38 1_555 1_555
C43 C42 1_555 1_555
H43 C43 1_555 1_555
H44 C43 1_555 1_555
H45 C43 1_555 1_555
C44 C42 1_555 1_555
H46 C44 1_555 1_555
H47 C44 1_555 1_555
H48 C44 1_555 1_555
C45 C42 1_555 1_555
H49 C45 1_555 1_555
H50 C45 1_555 1_555
H51 C45 1_555 1_555
C46 H52 1_555 1_555
C47 C46 1_555 1_555
H53 C47 1_555 1_555
H54 C47 1_555 1_555
C48 C47 1_555 1_555
H55 C48 1_555 1_555
H56 C48 1_555 1_555
C49 C48 1_555 1_555
H57 C49 1_555 1_555
H58 C49 1_555 1_555
C50 C49 1_555 1_555
H59 C50 1_555 1_555
H60 C50 1_555 1_555
C51 N4 1_555 1_555
H61 C51 1_555 1_555
C52 N4 1_555 1_555
H62 C52 1_555 1_555
H63 C52 1_555 1_555
C53 C52 1_555 1_555
C54 C53 1_555 1_555
H64 C54 1_555 1_555
C55 C54 1_555 1_555
C56 C55 1_555 1_555
H65 C56 1_555 1_555
C57 C56 1_555 1_555
C58 O11 1_555 1_555
C59 C57 1_555 1_555
C60 C59 1_555 1_555
H66 C60 1_555 1_555
H67 C60 1_555 1_555
H68 C60 1_555 1_555
C61 C59 1_555 1_555
H69 C61 1_555 1_555
H70 C61 1_555 1_555
H71 C61 1_555 1_555
C62 C59 1_555 1_555
H72 C62 1_555 1_555
H73 C62 1_555 1_555
H74 C62 1_555 1_555
N6 C63 1_555 1_555
C63 H75 1_555 1_555
C64 C63 1_555 1_555
H76 C64 1_555 1_555
C65 C55 1_555 1_555
C66 C65 1_555 1_555
H77 C66 1_555 1_555
C67 N6 1_555 1_555
H78 C67 1_555 1_555
C68 O5 1_555 1_555
H79 C68 1_555 1_555
H80 C68 1_555 1_555
H81 C68 1_555 1_555
C69 O12 1_555 1_555
H82 C69 1_555 1_555
H83 C69 1_555 1_555
H84 C69 1_555 1_555
C70 N3 1_555 1_555
H85 C70 1_555 1_555
H86 C70 1_555 1_555
O13 C71 1_555 1_555
C71 N7 1_555 1_555
N7 C72 1_555 1_555
C73 N7 1_555 1_555
O14 C74 1_555 1_555
C74 N8 1_555 1_555
N8 C75 1_555 1_555
C76 N8 1_555 1_555
O16 C77 1_555 1_555
C77 N9 1_555 1_555
N9 C78 1_555 1_555
C79 N9 1_555 1_555
Ti1A N1A 1_555 1_555
Ti2A N3A 1_555 1_555
Cd2A O9 1_555 1_555
N1A C12A 1_555 1_555
N2A Ti1A 1_555 1_555
N3A C46A 1_555 1_555
N4A Ti2A 1_555 1_555
O1A C1A 1_555 1_555
O2A C1A 1_555 1_555
O3A Ti1A 1_555 1_555
O4A Ti1A 1_555 1_555
O5A Ti1A 1_555 1_555
O6A Ti1A 1_555 1_555
O7A Cd1 1_555 1_555
O8A Cd2A 1_555 1_555
O10A Ti2A 1_555 1_555
O11A Ti2A 1_555 1_555
O12A Ti2A 1_555 1_555
C1A C2A 1_555 1_555
C2A C3A 1_555 1_555
C3A H1A 1_555 1_555
C4A C3A 1_555 1_555
C5A O3A 1_555 1_555
C6A C5A 1_555 1_555
C7A C2A 1_555 1_555
H2A C7A 1_555 1_555
C8A C6A 1_555 1_555
C9A C8A 1_555 1_555
H3A C9A 1_555 1_555
H4A C9A 1_555 1_555
H5A C9A 1_555 1_555
C10A C8A 1_555 1_555
H6A C10A 1_555 1_555
H7A C10A 1_555 1_555
H8A C10A 1_555 1_555
C11A C8A 1_555 1_555
H9A C11A 1_555 1_555
H10A C11A 1_555 1_555
H11A C11A 1_555 1_555
C12A C4A 1_555 1_555
H12A C12A 1_555 1_555
H13A C12A 1_555 1_555
C13A N1A 1_555 1_555
H14A C13A 1_555 1_555
C14A C13A 1_555 1_555
H15A C14A 1_555 1_555
H16A C14A 1_555 1_555
C15A C14A 1_555 1_555
H17A C15A 1_555 1_555
H18A C15A 1_555 1_555
C16A C15A 1_555 1_555
H19A C16A 1_555 1_555
H20A C16A 1_555 1_555
C17A C16A 1_555 1_555
H21A C17A 1_555 1_555
H22A C17A 1_555 1_555
C18A N2A 1_555 1_555
H23A C18A 1_555 1_555
C19A N2A 1_555 1_555
H24A C19A 1_555 1_555
H25A C19A 1_555 1_555
C20A C19A 1_555 1_555
C21A C20A 1_555 1_555
H26A C21A 1_555 1_555
C22A C21A 1_555 1_555
C23A C22A 1_555 1_555
H27A C23A 1_555 1_555
C24A C23A 1_555 1_555
C25A O4A 1_555 1_555
C26A C24A 1_555 1_555
C27A C26A 1_555 1_555
H28A C27A 1_555 1_555
H29A C27A 1_555 1_555
H30A C27A 1_555 1_555
C28A C26A 1_555 1_555
H31A C28A 1_555 1_555
H32A C28A 1_555 1_555
H33A C28A 1_555 1_555
C29A C26A 1_555 1_555
H34A C29A 1_555 1_555
H35A C29A 1_555 1_555
H36A C29A 1_555 1_555
N5A C30A 1_555 1_555
C30A H37A 1_555 1_555
C31A C30A 1_555 1_555
H38A C31A 1_555 1_555
C32A C22A 1_555 1_555
C33A C32A 1_555 1_555
H39A C33A 1_555 1_555
C34A N5A 1_555 1_555
H40A C34A 1_555 1_555
C35A O7A 1_555 1_555
C36A C35A 1_555 1_555
C37A C36A 1_555 1_555
H41A C37A 1_555 1_555
C38A C37A 1_555 1_555
C39A O10A 1_555 1_555
C40A C39A 1_555 1_555
C41A C36A 1_555 1_555
H42A C41A 1_555 1_555
C42A C38A 1_555 1_555
C43A C42A 1_555 1_555
H43A C43A 1_555 1_555
H44A C43A 1_555 1_555
H45A C43A 1_555 1_555
C44A C42A 1_555 1_555
H46A C44A 1_555 1_555
H47A C44A 1_555 1_555
H48A C44A 1_555 1_555
C45A C42A 1_555 1_555
H49A C45A 1_555 1_555
H50A C45A 1_555 1_555
H51A C45A 1_555 1_555
C46A H52A 1_555 1_555
C47A C46A 1_555 1_555
H53A C47A 1_555 1_555
H54A C47A 1_555 1_555
C48A C47A 1_555 1_555
H55A C48A 1_555 1_555
H56A C48A 1_555 1_555
C49A C48A 1_555 1_555
H57A C49A 1_555 1_555
H58A C49A 1_555 1_555
C50A C49A 1_555 1_555
H59A C50A 1_555 1_555
H60A C50A 1_555 1_555
C51A N4A 1_555 1_555
H61A C51A 1_555 1_555
C52A N4A 1_555 1_555
H62A C52A 1_555 1_555
H63A C52A 1_555 1_555
C53A C52A 1_555 1_555
C54A C53A 1_555 1_555
H64A C54A 1_555 1_555
C55A C54A 1_555 1_555
C56A C55A 1_555 1_555
H65A C56A 1_555 1_555
C57A C56A 1_555 1_555
C58A O11A 1_555 1_555
C59A C57A 1_555 1_555
C60A C59A 1_555 1_555
H66A C60A 1_555 1_555
H67A C60A 1_555 1_555
H68A C60A 1_555 1_555
C61A C59A 1_555 1_555
H69A C61A 1_555 1_555
H70A C61A 1_555 1_555
H71A C61A 1_555 1_555
C62A C59A 1_555 1_555
H72A C62A 1_555 1_555
H73A C62A 1_555 1_555
H74A C62A 1_555 1_555
N6A C63A 1_555 1_555
C63A H75A 1_555 1_555
C64A C63A 1_555 1_555
H76A C64A 1_555 1_555
C65A C55A 1_555 1_555
C66A C65A 1_555 1_555
H77A C66A 1_555 1_555
C67A N6A 1_555 1_555
H78A C67A 1_555 1_555
C68A O5A 1_555 1_555
H79A C68A 1_555 1_555
H80A C68A 1_555 1_555
H81A C68A 1_555 1_555
C69A O12A 1_555 1_555
H82A C69A 1_555 1_555
H83A C69A 1_555 1_555
H84A C69A 1_555 1_555
C70A N3A 1_555 1_555
H85A C70A 1_555 1_555
H86A C70A 1_555 1_555
Cd1B N6 1_555 1_555
Cd1B_2 N6A 1_555 1_555
Cd2_2 O1 1_555 1_555
Cd2A_2 O1A 1_555 1_555
Cd2B N5 1_555 1_555
Cd2C N5A 1_555 1_555
O1_2 Cd2 1_555 1_555
O1A_2 Cd2A 1_555 1_555
O2_2 Cd2 1_555 1_555
O2A_2 Cd2A 1_555 1_555
N5B Cd2 1_555 1_555
N5C Cd2A 1_555 1_555
N6B Cd1 1_555 1_555
N6C Cd1 1_555 1_555
Ti2 O6 1_555 1_555
Cd2 O9 1_555 1_555
O2 Cd2_2 1_555 1_555
O8 C35 1_555 1_555
C4 C5 1_555 1_555
C6 C7 1_555 1_555
C13 C18 1_555 1_555
C17 C18 1_555 1_555
C20 C25 1_555 1_555
C24 C25 1_555 1_555
C31 C32 1_555 1_555
C33 C34 1_555 1_555
C38 C39 1_555 1_555
C40 C41 1_555 1_555
C40 C70 1_555 1_555
C46 C51 1_555 1_555
C50 C51 1_555 1_555
C53 C58 1_555 1_555
C57 C58 1_555 1_555
C64 C65 1_555 1_555
C66 C67 1_555 1_555
Ti2A O6A 1_555 1_555
Cd2A O7A 1_555 1_555
O2A Cd2A_2 1_555 1_555
O8A C35A 1_555 1_555
C4A C5A 1_555 1_555
C6A C7A 1_555 1_555
C13A C18A 1_555 1_555
C17A C18A 1_555 1_555
C20A C25A 1_555 1_555
C24A C25A 1_555 1_555
C31A C32A 1_555 1_555
C33A C34A 1_555 1_555
C38A C39A 1_555 1_555
C40A C41A 1_555 1_555
C40A C70A 1_555 1_555
C46A C51A 1_555 1_555
C50A C51A 1_555 1_555
C53A C58A 1_555 1_555
C57A C58A 1_555 1_555
C64A C65A 1_555 1_555
C66A C67A 1_555 1_555

#END
