
#######################################################################
#
#                 Cambridge Crystallographic Data Centre
#                                CCDC 
#
#######################################################################
#
# If this CIF has been generated from an entry in the Cambridge 
# Structural Database, then it will include bibliographic, chemical, 
# crystal, experimental, refinement or atomic coordinate data resulting 
# from the CCDC's data processing and validation procedures.
#
#######################################################################

data_BIJFAD
_chemical_formula_moiety         'C153 H201 N19 O31 Ti4 Zn10'
_symmetry_cell_setting           orthorhombic
_symmetry_space_group_name_H-M   'P 21 21 2'
_symmetry_Int_Tables_number      18
_space_group_name_Hall           'P 2 2ab'
loop_
_symmetry_equiv_pos_site_id
_symmetry_equiv_pos_as_xyz
1 x,y,z
2 -x,-y,z
3 1/2+x,1/2-y,-z
4 1/2-x,1/2+y,-z
_cell_length_a                   34.0597(5)
_cell_length_b                   16.9014(2)
_cell_length_c                   18.3315(3)
_cell_angle_alpha                90
_cell_angle_beta                 90
_cell_angle_gamma                90
_cell_volume                     10552.6
loop_
_atom_site_label
_atom_site_type_symbol
_atom_site_fract_x
_atom_site_fract_y
_atom_site_fract_z
O14 O 0.7428(6) 0.2291(16) 0.0229(12)
C73 C 0.7546(6) 0.2002(16) 0.0798(13)
N7 N 0.7955(4) 0.2066(8) 0.0969(8)
C74 C 0.8100(8) 0.176(2) 0.1687(13)
C75 C 0.8231(6) 0.2413(16) 0.0449(12)
O15 O 0.7491(2) 0.7033(5) 0.5236(4)
C76 C 0.7181(6) 0.7373(16) 0.5105(11)
N8 N 0.6926(3) 0.7505(6) 0.5723(5)
C77 C 0.6564(7) 0.8022(19) 0.567(2)
C78 C 0.6947(10) 0.710(2) 0.6467(14)
O16 O 0.7106(5) 0.2216(14) 0.2598(12)
C79 C 0.6791(8) 0.258(2) 0.2366(15)
N9 N 0.6467(4) 0.2392(10) 0.2934(9)
C80 C 0.6659(6) 0.2251(13) 0.3639(11)
C81 C 0.6065(7) 0.2047(19) 0.3152(18)
Zn1 Zn 0.99540(3) 0.89189(7) -0.24860(6)
Zn2 Zn 0.98597(8) 0.9992(2) -0.09769(13)
Ti1 Ti 0.84552(6) 0.71198(9) 0.17086(9)
Ti2 Ti 0.82443(4) 0.82669(8) 0.33135(8)
O1 O 0.9960(5) 0.8796(7) -0.1013(8)
O2 O 0.9707(3) 0.7981(10) -0.1899(6)
O3 O 1.0000 1.0000 -0.1997(11)
O4 O 0.8701(3) 0.6843(4) 0.0790(4)
O5 O 0.8127(2) 0.6251(4) 0.1697(4)
O6 O 0.8885(2) 0.6775(4) 0.2245(4)
O7 O 0.9803(4) 0.8603(12) 0.6313(8)
O8 O 0.9452(4) 0.9206(6) 0.6977(7)
O9 O 0.83423(16) 0.8754(3) 0.4244(3)
O10 O 0.77152(16) 0.8571(3) 0.3301(3)
O11 O 0.85009(17) 0.9074(3) 0.2806(3)
O12 O 0.82497(16) 0.7638(3) 0.2502(3)
O13 O 1.0000 1.0000 0.0298(6)
N1 N 0.8682(3) 0.8306(5) 0.1413(5)
N2 N 0.7964(3) 0.7701(4) 0.1084(4)
N3 N 0.87681(18) 0.7589(4) 0.3639(4)
N4 N 0.79897(17) 0.7182(4) 0.3876(3)
C1 C 0.9722(4) 0.8292(12) -0.1280(10)
C2 C 0.9466(2) 0.7785(5) -0.0716(4)
C3 C 0.9273(3) 0.7078(5) -0.0866(3)
H1 H 0.9315 0.6817 -0.1318
C4 C 0.9020(2) 0.6753(4) -0.0353(4)
C5 C 0.8958(2) 0.7135(4) 0.0309(3)
C6 C 0.9151(3) 0.7842(4) 0.0458(3)
C7 C 0.9405(2) 0.8167(4) -0.0054(5)
H2 H 0.9536 0.8650 0.0047
C8 C 0.8840(5) 0.5960(10) -0.0524(6)
C9 C 0.8937(7) 0.5583(13) -0.1274(7)
H3 H 0.9222 0.5534 -0.1327
H4 H 0.8833 0.5919 -0.1665
H5 H 0.8816 0.5057 -0.1304
C10 C 0.8977(6) 0.5322(10) 0.0015(8)
H6 H 0.9263 0.5271 -0.0012
H7 H 0.8855 0.4815 -0.0112
H8 H 0.8900 0.5472 0.0511
C11 C 0.8381(5) 0.6018(11) -0.0448(10)
H9 H 0.8314 0.6242 0.0029
H10 H 0.8266 0.5489 -0.0492
H11 H 0.8277 0.6360 -0.0834
C12 C 0.9117(4) 0.8266(8) 0.1202(7)
H12 H 0.9266 0.7971 0.1578
H13 H 0.9227 0.8806 0.1167
C13 C 0.8442(4) 0.8739(5) 0.0869(5)
H14 H 0.8498 0.8509 0.0377
C14 C 0.8524(4) 0.9616(6) 0.0838(6)
H15 H 0.8797 0.9703 0.0671
H16 H 0.8498 0.9845 0.1333
C15 C 0.8237(4) 1.0038(6) 0.0312(6)
H17 H 0.8282 1.0616 0.0337
H18 H 0.8291 0.9864 -0.0194
C16 C 0.7837(4) 0.9872(6) 0.0489(6)
H19 H 0.7665 1.0129 0.0123
H20 H 0.7776 1.0107 0.0970
C17 C 0.7746(4) 0.9020(6) 0.0511(5)
H21 H 0.7777 0.8792 0.0017
H22 H 0.7469 0.8946 0.0661
C18 C 0.8018(3) 0.8579(5) 0.1051(5)
H23 H 0.7967 0.8796 0.1549
C19 C 0.7566(3) 0.7531(6) 0.1450(5)
H24 H 0.7568 0.7751 0.1951
H25 H 0.7356 0.7803 0.1174
C20 C 0.7475(2) 0.6667(3) 0.1487(3)
C21 C 0.70779(19) 0.6488(3) 0.1419(3)
H26 H 0.6894 0.6897 0.1318
C22 C 0.69501(19) 0.5712(4) 0.1499(3)
C23 C 0.7219(2) 0.5115(3) 0.1648(3)
H27 H 0.7132 0.4584 0.1702
C24 C 0.7616(2) 0.5293(3) 0.1716(3)
C25 C 0.77435(18) 0.6069(4) 0.1635(3)
C26 C 0.7903(5) 0.4623(6) 0.1848(7)
C27 C 0.7710(5) 0.3786(6) 0.1946(7)
H28 H 0.7523 0.3804 0.2352
H29 H 0.7914 0.3394 0.2051
H30 H 0.7572 0.3639 0.1498
C28 C 0.8194(5) 0.4528(6) 0.1215(8)
H31 H 0.8324 0.5035 0.1121
H32 H 0.8052 0.4358 0.0777
H33 H 0.8391 0.4129 0.1344
C29 C 0.8139(4) 0.4766(6) 0.2577(6)
H34 H 0.8264 0.5288 0.2562
H35 H 0.8341 0.4357 0.2631
H36 H 0.7958 0.4741 0.2993
N5 N 0.5722(2) 0.5142(6) 0.1223(7)
C30 C 0.5974(3) 0.4623(5) 0.1579(7)
H37 H 0.5878 0.4133 0.1759
C31 C 0.6367(3) 0.4822(5) 0.1672(6)
H38 H 0.6539 0.4468 0.1916
C32 C 0.6508(2) 0.5540(5) 0.1409(5)
C33 C 0.6255(3) 0.6058(4) 0.1053(5)
H39 H 0.6352 0.6549 0.0873
C34 C 0.5863(3) 0.5859(5) 0.0960(6)
H40 H 0.5690 0.6214 0.0717
C35 C 0.9510(5) 0.8903(10) 0.6384(11)
C36 C 0.92017(18) 0.8877(4) 0.5821(4)
C37 C 0.8831(2) 0.9184(4) 0.5968(3)
H41 H 0.8778 0.9417 0.6429
C38 C 0.85388(15) 0.9149(4) 0.5440(3)
C39 C 0.86167(14) 0.8808(4) 0.4766(3)
C40 C 0.89872(16) 0.8501(4) 0.4619(3)
C41 C 0.92797(13) 0.8536(4) 0.5147(4)
H42 H 0.9533 0.8327 0.5046
C42 C 0.8132(3) 0.9513(5) 0.5597(5)
C43 C 0.8078(3) 0.9733(6) 0.6439(5)
H43 H 0.8286 1.0100 0.6588
H44 H 0.8095 0.9250 0.6734
H45 H 0.7822 0.9982 0.6511
C44 C 0.7792(3) 0.8944(6) 0.5446(5)
H46 H 0.7801 0.8774 0.4935
H47 H 0.7542 0.9214 0.5542
H48 H 0.7815 0.8481 0.5765
C45 C 0.8084(3) 1.0282(5) 0.5160(5)
H49 H 0.8117 1.0170 0.4639
H50 H 0.8284 1.0665 0.5316
H51 H 0.7822 1.0502 0.5246
C46 C 0.9084(2) 0.8130(6) 0.3891(5)
H52 H 0.9123 0.8553 0.3524
H53 H 0.9333 0.7831 0.3933
C47 C 0.8677(2) 0.6970(5) 0.4175(5)
H54 H 0.8629 0.7231 0.4656
C48 C 0.9009(3) 0.6356(6) 0.4277(6)
H55 H 0.9076 0.6123 0.3798
H56 H 0.9246 0.6628 0.4465
C49 C 0.8898(3) 0.5708(7) 0.4793(7)
H57 H 0.8852 0.5932 0.5285
H58 H 0.9116 0.5322 0.4829
C50 C 0.8516(3) 0.5279(6) 0.4519(6)
H59 H 0.8565 0.5036 0.4037
H60 H 0.8443 0.4853 0.4865
C51 C 0.8182(3) 0.5876(5) 0.4462(5)
H61 H 0.8122 0.6092 0.4951
H62 H 0.7943 0.5611 0.4274
C52 C 0.8299(2) 0.6557(5) 0.3944(5)
H63 H 0.8343 0.6326 0.3449
C53 C 0.7648(2) 0.6869(4) 0.3450(4)
H64 H 0.7545 0.6395 0.3704
H65 H 0.7743 0.6696 0.2966
C54 C 0.73115(10) 0.7440(2) 0.3337(3)
C55 C 0.69409(12) 0.71054(19) 0.3264(3)
H66 H 0.6909 0.6549 0.3304
C56 C 0.66169(9) 0.7585(2) 0.3134(3)
C57 C 0.66635(10) 0.8400(2) 0.3076(3)
H67 H 0.6442 0.8727 0.2987
C58 C 0.70341(13) 0.87347(19) 0.3149(3)
C59 C 0.73581(10) 0.8255(2) 0.3280(3)
C60 C 0.7075(2) 0.9653(5) 0.3095(5)
C61 C 0.6660(3) 1.0057(6) 0.3050(8)
H68 H 0.6693 1.0632 0.3016
H69 H 0.6509 0.9928 0.3489
H70 H 0.6521 0.9863 0.2618
C62 C 0.7263(3) 0.9990(6) 0.3770(5)
H71 H 0.7285 1.0566 0.3721
H72 H 0.7526 0.9761 0.3831
H73 H 0.7102 0.9862 0.4196
C63 C 0.7311(3) 0.9862(6) 0.2406(6)
H74 H 0.7337 1.0438 0.2368
H75 H 0.7174 0.9659 0.1974
H76 H 0.7573 0.9622 0.2435
N6 N 0.55007(12) 0.6515(3) 0.2641(4)
C64 C 0.57573(16) 0.6142(3) 0.3120(4)
H77 H 0.5685 0.5653 0.3339
C65 C 0.61189(15) 0.6482(4) 0.3277(4)
H78 H 0.6294 0.6227 0.3604
C66 C 0.62239(12) 0.7197(3) 0.2956(4)
C67 C 0.59674(17) 0.7570(3) 0.2478(4)
H79 H 0.6039 0.8059 0.2259
C68 C 0.56057(16) 0.7230(4) 0.2320(4)
H80 H 0.5430 0.7485 0.1993
C69 C 0.9230(4) 0.6333(8) 0.2095(8)
H81 H 0.9440 0.6518 0.2426
H82 H 0.9314 0.6454 0.1590
C70 C 0.9195(7) 0.5437(10) 0.2171(13)
H83 H 0.9446 0.5190 0.2044
H84 H 0.8990 0.5241 0.1842
H85 H 0.9127 0.5303 0.2675
C71 C 0.8602(5) 0.9882(9) 0.3010(10)
H86 H 0.8593 0.9933 0.3548
H87 H 0.8405 1.0250 0.2802
C72 C 0.8996(5) 1.0107(14) 0.2750(12)
H88 H 0.9052 1.0655 0.2893
H89 H 0.9006 1.0063 0.2217
H90 H 0.9192 0.9755 0.2966
Zn1A Zn 1.00460(3) 1.10811(7) -0.24860(6)
Zn2A Zn 1.01403(8) 1.0008(2) -0.09769(13)
Ti1A Ti 1.15448(6) 1.28802(9) 0.17086(9)
Ti2A Ti 1.17557(4) 1.17331(8) 0.33135(8)
O1A O 1.0040(5) 1.1204(7) -0.1013(8)
O2A O 1.0293(3) 1.2019(10) -0.1899(6)
O4A O 1.1299(3) 1.3157(4) 0.0790(4)
O5A O 1.1873(2) 1.3749(4) 0.1697(4)
O6A O 1.1115(2) 1.3225(4) 0.2245(4)
O7A O 1.0197(4) 1.1397(12) 0.6313(8)
O8A O 1.0548(4) 1.0794(6) 0.6977(7)
O9A O 1.16577(16) 1.1246(3) 0.4244(3)
O10A O 1.22848(16) 1.1429(3) 0.3301(3)
O11A O 1.14991(17) 1.0926(3) 0.2806(3)
O12A O 1.17503(16) 1.2362(3) 0.2502(3)
N1A N 1.1318(3) 1.1694(5) 0.1413(5)
N2A N 1.2036(3) 1.2299(4) 0.1084(4)
N3A N 1.12319(18) 1.2411(4) 0.3639(4)
N4A N 1.20103(17) 1.2818(4) 0.3876(3)
C1A C 1.0278(4) 1.1708(12) -0.1280(10)
C2A C 1.0534(2) 1.2215(5) -0.0716(4)
C3A C 1.0727(3) 1.2922(5) -0.0866(3)
H1A H 1.0685 1.3183 -0.1318
C4A C 1.0980(2) 1.3247(4) -0.0353(4)
C5A C 1.1042(2) 1.2865(4) 0.0309(3)
C6A C 1.0849(3) 1.2158(4) 0.0458(3)
C7A C 1.0595(2) 1.1833(4) -0.0054(5)
H2A H 1.0464 1.1350 0.0047
C8A C 1.1160(5) 1.4040(10) -0.0524(6)
C9A C 1.1063(7) 1.4417(13) -0.1274(7)
H3A H 1.0778 1.4466 -0.1327
H4A H 1.1167 1.4081 -0.1665
H5A H 1.1184 1.4943 -0.1304
C10A C 1.1023(6) 1.4678(10) 0.0015(8)
H6A H 1.0737 1.4729 -0.0012
H7A H 1.1145 1.5185 -0.0112
H8A H 1.1100 1.4528 0.0511
C11A C 1.1619(5) 1.3982(11) -0.0448(10)
H9A H 1.1686 1.3758 0.0029
H10A H 1.1734 1.4511 -0.0492
H11A H 1.1723 1.3640 -0.0834
C12A C 1.0883(4) 1.1734(8) 0.1202(7)
H12A H 1.0734 1.2029 0.1578
H13A H 1.0773 1.1194 0.1167
C13A C 1.1558(4) 1.1261(5) 0.0869(5)
H14A H 1.1502 1.1491 0.0377
C14A C 1.1476(4) 1.0384(6) 0.0838(6)
H15A H 1.1203 1.0297 0.0671
H16A H 1.1502 1.0155 0.1333
C15A C 1.1763(4) 0.9962(6) 0.0312(6)
H17A H 1.1718 0.9384 0.0337
H18A H 1.1709 1.0136 -0.0194
C16A C 1.2163(4) 1.0128(6) 0.0489(6)
H19A H 1.2335 0.9871 0.0123
H20A H 1.2224 0.9893 0.0970
C17A C 1.2254(4) 1.0980(6) 0.0511(5)
H21A H 1.2223 1.1208 0.0017
H22A H 1.2531 1.1054 0.0661
C18A C 1.1982(3) 1.1421(5) 0.1051(5)
H23A H 1.2033 1.1204 0.1549
C19A C 1.2434(3) 1.2469(6) 0.1450(5)
H24A H 1.2432 1.2249 0.1951
H25A H 1.2644 1.2197 0.1174
C20A C 1.2525(2) 1.3333(3) 0.1487(3)
C21A C 1.29221(19) 1.3512(3) 0.1419(3)
H26A H 1.3106 1.3103 0.1318
C22A C 1.30499(19) 1.4288(4) 0.1499(3)
C23A C 1.2781(2) 1.4885(3) 0.1648(3)
H27A H 1.2868 1.5416 0.1702
C24A C 1.2384(2) 1.4707(3) 0.1716(3)
C25A C 1.22565(18) 1.3931(4) 0.1635(3)
C26A C 1.2097(5) 1.5377(6) 0.1848(7)
C27A C 1.2290(5) 1.6214(6) 0.1946(7)
H28A H 1.2477 1.6196 0.2352
H29A H 1.2086 1.6606 0.2051
H30A H 1.2428 1.6361 0.1498
C28A C 1.1806(5) 1.5472(6) 0.1215(8)
H31A H 1.1676 1.4965 0.1121
H32A H 1.1948 1.5642 0.0777
H33A H 1.1609 1.5871 0.1344
C29A C 1.1861(4) 1.5234(6) 0.2577(6)
H34A H 1.1736 1.4712 0.2562
H35A H 1.1659 1.5643 0.2631
H36A H 1.2042 1.5259 0.2993
N5A N 1.4278(2) 1.4858(6) 0.1223(7)
C30A C 1.4026(3) 1.5377(5) 0.1579(7)
H37A H 1.4122 1.5867 0.1759
C31A C 1.3633(3) 1.5178(5) 0.1672(6)
H38A H 1.3461 1.5532 0.1916
C32A C 1.3492(2) 1.4460(5) 0.1409(5)
C33A C 1.3745(3) 1.3942(4) 0.1053(5)
H39A H 1.3648 1.3451 0.0873
C34A C 1.4137(3) 1.4141(5) 0.0960(6)
H40A H 1.4310 1.3786 0.0717
C35A C 1.0490(5) 1.1097(10) 0.6384(11)
C36A C 1.07983(18) 1.1123(4) 0.5821(4)
C37A C 1.1169(2) 1.0816(4) 0.5968(3)
H41A H 1.1222 1.0583 0.6429
C38A C 1.14612(15) 1.0851(4) 0.5440(3)
C39A C 1.13833(14) 1.1192(4) 0.4766(3)
C40A C 1.10128(16) 1.1499(4) 0.4619(3)
C41A C 1.07203(13) 1.1464(4) 0.5147(4)
H42A H 1.0467 1.1673 0.5046
C42A C 1.1868(3) 1.0487(5) 0.5597(5)
C43A C 1.1922(3) 1.0267(6) 0.6439(5)
H43A H 1.1714 0.9900 0.6588
H44A H 1.1905 1.0750 0.6734
H45A H 1.2178 1.0018 0.6511
C44A C 1.2208(3) 1.1056(6) 0.5446(5)
H46A H 1.2199 1.1226 0.4935
H47A H 1.2458 1.0786 0.5542
H48A H 1.2185 1.1519 0.5765
C45A C 1.1916(3) 0.9718(5) 0.5160(5)
H49A H 1.1883 0.9830 0.4639
H50A H 1.1716 0.9335 0.5316
H51A H 1.2178 0.9498 0.5246
C46A C 1.0916(2) 1.1870(6) 0.3891(5)
H52A H 1.0877 1.1447 0.3524
H53A H 1.0667 1.2169 0.3933
C47A C 1.1323(2) 1.3030(5) 0.4175(5)
H54A H 1.1371 1.2769 0.4656
C48A C 1.0991(3) 1.3644(6) 0.4277(6)
H55A H 1.0924 1.3877 0.3798
H56A H 1.0754 1.3372 0.4465
C49A C 1.1102(3) 1.4292(7) 0.4793(7)
H57A H 1.1148 1.4068 0.5285
H58A H 1.0884 1.4678 0.4829
C50A C 1.1484(3) 1.4721(6) 0.4519(6)
H59A H 1.1435 1.4964 0.4037
H60A H 1.1557 1.5147 0.4865
C51A C 1.1818(3) 1.4124(5) 0.4462(5)
H61A H 1.1878 1.3908 0.4951
H62A H 1.2057 1.4389 0.4274
C52A C 1.1701(2) 1.3443(5) 0.3944(5)
H63A H 1.1657 1.3674 0.3449
C53A C 1.2352(2) 1.3131(4) 0.3450(4)
H64A H 1.2455 1.3605 0.3704
H65A H 1.2257 1.3304 0.2966
C54A C 1.26885(10) 1.2560(2) 0.3337(3)
C55A C 1.30591(12) 1.28946(19) 0.3264(3)
H66A H 1.3091 1.3451 0.3304
C56A C 1.33831(9) 1.2415(2) 0.3134(3)
C57A C 1.33365(10) 1.1600(2) 0.3076(3)
H67A H 1.3558 1.1273 0.2987
C58A C 1.29659(13) 1.12653(19) 0.3149(3)
C59A C 1.26419(10) 1.1745(2) 0.3280(3)
C60A C 1.2925(2) 1.0347(5) 0.3095(5)
C61A C 1.3340(3) 0.9943(6) 0.3050(8)
H68A H 1.3307 0.9368 0.3016
H69A H 1.3491 1.0072 0.3489
H70A H 1.3479 1.0137 0.2618
C62A C 1.2737(3) 1.0010(6) 0.3770(5)
H71A H 1.2715 0.9434 0.3721
H72A H 1.2474 1.0239 0.3831
H73A H 1.2898 1.0138 0.4196
C63A C 1.2689(3) 1.0138(6) 0.2406(6)
H74A H 1.2663 0.9562 0.2368
H75A H 1.2826 1.0341 0.1974
H76A H 1.2427 1.0378 0.2435
N6A N 1.44993(12) 1.3485(3) 0.2641(4)
C64A C 1.42427(16) 1.3858(3) 0.3120(4)
H77A H 1.4315 1.4347 0.3339
C65A C 1.38811(15) 1.3518(4) 0.3277(4)
H78A H 1.3706 1.3773 0.3604
C66A C 1.37761(12) 1.2803(3) 0.2956(4)
C67A C 1.40326(17) 1.2430(3) 0.2478(4)
H79A H 1.3961 1.1941 0.2259
C68A C 1.43943(16) 1.2770(4) 0.2320(4)
H80A H 1.4570 1.2515 0.1993
C69A C 1.0770(4) 1.3667(8) 0.2095(8)
H81A H 1.0560 1.3482 0.2426
H82A H 1.0686 1.3546 0.1590
C70A C 1.0805(7) 1.4563(10) 0.2171(13)
H83A H 1.0554 1.4810 0.2044
H84A H 1.1010 1.4759 0.1842
H85A H 1.0873 1.4697 0.2675
C71A C 1.1398(5) 1.0118(9) 0.3010(10)
H86A H 1.1407 1.0067 0.3548
H87A H 1.1595 0.9750 0.2802
C72A C 1.1004(5) 0.9893(14) 0.2750(12)
H88A H 1.0948 0.9345 0.2893
H89A H 1.0994 0.9937 0.2217
H90A H 1.0808 1.0245 0.2966
Zn1_2 Zn 0.99540(3) 0.89189(7) 0.75140(6)
Zn1A_2 Zn 1.00460(3) 1.10811(7) 0.75140(6)
Zn1B Zn 0.49540(3) 0.60811(7) 0.24860(6)
Zn1C Zn 1.50460(3) 1.39189(7) 0.24860(6)
Zn2B Zn 1.48597(8) 1.5008(2) 0.09769(13)
Zn2C Zn 0.51403(8) 0.4992(2) 0.09769(13)
O7_2 O 0.9803(4) 0.8603(12) -0.3687(8)
O7A_2 O 1.0197(4) 1.1397(12) -0.3687(8)
O8_2 O 0.9452(4) 0.9206(6) -0.3023(7)
O8A_2 O 1.0548(4) 1.0794(6) -0.3023(7)
N5B N 1.0722(2) 0.9858(6) -0.1223(7)
N5C N 0.9278(2) 1.0142(6) -0.1223(7)
N6B N 1.05007(12) 0.8485(3) -0.2641(4)
N6C N 0.94993(12) 1.1515(3) -0.2641(4)
loop_
_geom_bond_atom_site_label_1
_geom_bond_atom_site_label_2
_geom_bond_site_symmetry_1
_geom_bond_site_symmetry_2
Zn1 O2 1_555 1_555
Zn2 O1 1_555 1_555
Ti1 O4 1_555 1_555
Ti2 O9 1_555 1_555
O1 C1 1_555 1_555
O2 C1 1_555 1_555
O3 Zn1 1_555 1_555
O4 C5 1_555 1_555
O5 Ti1 1_555 1_555
O6 Ti1 1_555 1_555
O7 C35 1_555 1_555
O8 C35 1_555 1_555
O9 C39 1_555 1_555
O10 Ti2 1_555 1_555
O11 Ti2 1_555 1_555
O12 Ti1 1_555 1_555
O13 Zn2 1_555 1_555
N1 Ti1 1_555 1_555
N2 Ti1 1_555 1_555
N3 Ti2 1_555 1_555
N4 Ti2 1_555 1_555
C1 C2 1_555 1_555
C2 C3 1_555 1_555
C3 H1 1_555 1_555
C4 C3 1_555 1_555
C5 C4 1_555 1_555
C6 C5 1_555 1_555
C7 C2 1_555 1_555
H2 C7 1_555 1_555
C8 C4 1_555 1_555
C9 C8 1_555 1_555
H3 C9 1_555 1_555
H4 C9 1_555 1_555
H5 C9 1_555 1_555
C10 C8 1_555 1_555
H6 C10 1_555 1_555
H7 C10 1_555 1_555
H8 C10 1_555 1_555
C11 C8 1_555 1_555
H9 C11 1_555 1_555
H10 C11 1_555 1_555
H11 C11 1_555 1_555
C12 N1 1_555 1_555
H12 C12 1_555 1_555
H13 C12 1_555 1_555
C13 N1 1_555 1_555
H14 C13 1_555 1_555
C14 C13 1_555 1_555
H15 C14 1_555 1_555
H16 C14 1_555 1_555
C15 C14 1_555 1_555
H17 C15 1_555 1_555
H18 C15 1_555 1_555
C16 C15 1_555 1_555
H19 C16 1_555 1_555
H20 C16 1_555 1_555
C17 C16 1_555 1_555
H21 C17 1_555 1_555
H22 C17 1_555 1_555
C18 N2 1_555 1_555
H23 C18 1_555 1_555
C19 N2 1_555 1_555
H24 C19 1_555 1_555
H25 C19 1_555 1_555
C20 C19 1_555 1_555
C21 C20 1_555 1_555
H26 C21 1_555 1_555
C22 C21 1_555 1_555
C23 C22 1_555 1_555
H27 C23 1_555 1_555
C24 C23 1_555 1_555
C25 O5 1_555 1_555
C26 C24 1_555 1_555
C27 C26 1_555 1_555
H28 C27 1_555 1_555
H29 C27 1_555 1_555
H30 C27 1_555 1_555
C28 C26 1_555 1_555
H31 C28 1_555 1_555
H32 C28 1_555 1_555
H33 C28 1_555 1_555
C29 C26 1_555 1_555
H34 C29 1_555 1_555
H35 C29 1_555 1_555
H36 C29 1_555 1_555
N5 C30 1_555 1_555
C30 H37 1_555 1_555
C31 C30 1_555 1_555
H38 C31 1_555 1_555
C32 C22 1_555 1_555
C33 C32 1_555 1_555
H39 C33 1_555 1_555
C34 N5 1_555 1_555
H40 C34 1_555 1_555
C35 C36 1_555 1_555
C36 C37 1_555 1_555
C37 H41 1_555 1_555
C38 C37 1_555 1_555
C39 C38 1_555 1_555
C40 C39 1_555 1_555
C41 C36 1_555 1_555
H42 C41 1_555 1_555
C42 C38 1_555 1_555
C43 C42 1_555 1_555
H43 C43 1_555 1_555
H44 C43 1_555 1_555
H45 C43 1_555 1_555
C44 C42 1_555 1_555
H46 C44 1_555 1_555
H47 C44 1_555 1_555
H48 C44 1_555 1_555
C45 C42 1_555 1_555
H49 C45 1_555 1_555
H50 C45 1_555 1_555
H51 C45 1_555 1_555
C46 N3 1_555 1_555
H52 C46 1_555 1_555
H53 C46 1_555 1_555
C47 N3 1_555 1_555
H54 C47 1_555 1_555
C48 C47 1_555 1_555
H55 C48 1_555 1_555
H56 C48 1_555 1_555
C49 C48 1_555 1_555
H57 C49 1_555 1_555
H58 C49 1_555 1_555
C50 C49 1_555 1_555
H59 C50 1_555 1_555
H60 C50 1_555 1_555
C51 C50 1_555 1_555
H61 C51 1_555 1_555
H62 C51 1_555 1_555
C52 N4 1_555 1_555
H63 C52 1_555 1_555
C53 N4 1_555 1_555
H64 C53 1_555 1_555
H65 C53 1_555 1_555
C54 C53 1_555 1_555
C55 C54 1_555 1_555
H66 C55 1_555 1_555
C56 C55 1_555 1_555
C57 C56 1_555 1_555
H67 C57 1_555 1_555
C58 C57 1_555 1_555
C59 O10 1_555 1_555
C60 C58 1_555 1_555
C61 C60 1_555 1_555
H68 C61 1_555 1_555
H69 C61 1_555 1_555
H70 C61 1_555 1_555
C62 C60 1_555 1_555
H71 C62 1_555 1_555
H72 C62 1_555 1_555
H73 C62 1_555 1_555
C63 C60 1_555 1_555
H74 C63 1_555 1_555
H75 C63 1_555 1_555
H76 C63 1_555 1_555
N6 C64 1_555 1_555
C64 H77 1_555 1_555
C65 C64 1_555 1_555
H78 C65 1_555 1_555
C66 C56 1_555 1_555
C67 C66 1_555 1_555
H79 C67 1_555 1_555
C68 N6 1_555 1_555
H80 C68 1_555 1_555
C69 O6 1_555 1_555
H81 C69 1_555 1_555
H82 C69 1_555 1_555
C70 C69 1_555 1_555
H83 C70 1_555 1_555
H84 C70 1_555 1_555
H85 C70 1_555 1_555
C71 O11 1_555 1_555
H86 C71 1_555 1_555
H87 C71 1_555 1_555
C72 C71 1_555 1_555
H88 C72 1_555 1_555
H89 C72 1_555 1_555
H90 C72 1_555 1_555
O14 C73 1_555 1_555
C73 N7 1_555 1_555
N7 C74 1_555 1_555
C75 N7 1_555 1_555
O15 C76 1_555 1_555
C76 N8 1_555 1_555
N8 C77 1_555 1_555
C78 N8 1_555 1_555
O16 C79 1_555 1_555
C79 N9 1_555 1_555
N9 C80 1_555 1_555
C81 N9 1_555 1_555
Zn1A O3 1_555 1_555
Zn2A Zn2 1_555 1_555
Ti1A O4A 1_555 1_555
Ti2A O9A 1_555 1_555
O1A Zn2 1_555 1_555
O2A Zn1A 1_555 1_555
O4A C5A 1_555 1_555
O5A Ti1A 1_555 1_555
O6A Ti1A 1_555 1_555
O7A C35A 1_555 1_555
O8A C35A 1_555 1_555
O9A C39A 1_555 1_555
O10A Ti2A 1_555 1_555
O11A Ti2A 1_555 1_555
O12A Ti1A 1_555 1_555
N1A Ti1A 1_555 1_555
N2A Ti1A 1_555 1_555
N3A Ti2A 1_555 1_555
N4A Ti2A 1_555 1_555
C1A O1A 1_555 1_555
C2A C1A 1_555 1_555
C3A C2A 1_555 1_555
H1A C3A 1_555 1_555
C4A C3A 1_555 1_555
C5A C4A 1_555 1_555
C6A C5A 1_555 1_555
C7A C2A 1_555 1_555
H2A C7A 1_555 1_555
C8A C4A 1_555 1_555
C9A C8A 1_555 1_555
H3A C9A 1_555 1_555
H4A C9A 1_555 1_555
H5A C9A 1_555 1_555
C10A C8A 1_555 1_555
H6A C10A 1_555 1_555
H7A C10A 1_555 1_555
H8A C10A 1_555 1_555
C11A C8A 1_555 1_555
H9A C11A 1_555 1_555
H10A C11A 1_555 1_555
H11A C11A 1_555 1_555
C12A N1A 1_555 1_555
H12A C12A 1_555 1_555
H13A C12A 1_555 1_555
C13A N1A 1_555 1_555
H14A C13A 1_555 1_555
C14A C13A 1_555 1_555
H15A C14A 1_555 1_555
H16A C14A 1_555 1_555
C15A C14A 1_555 1_555
H17A C15A 1_555 1_555
H18A C15A 1_555 1_555
C16A C15A 1_555 1_555
H19A C16A 1_555 1_555
H20A C16A 1_555 1_555
C17A C16A 1_555 1_555
H21A C17A 1_555 1_555
H22A C17A 1_555 1_555
C18A N2A 1_555 1_555
H23A C18A 1_555 1_555
C19A N2A 1_555 1_555
H24A C19A 1_555 1_555
H25A C19A 1_555 1_555
C20A C19A 1_555 1_555
C21A C20A 1_555 1_555
H26A C21A 1_555 1_555
C22A C21A 1_555 1_555
C23A C22A 1_555 1_555
H27A C23A 1_555 1_555
C24A C23A 1_555 1_555
C25A O5A 1_555 1_555
C26A C24A 1_555 1_555
C27A C26A 1_555 1_555
H28A C27A 1_555 1_555
H29A C27A 1_555 1_555
H30A C27A 1_555 1_555
C28A C26A 1_555 1_555
H31A C28A 1_555 1_555
H32A C28A 1_555 1_555
H33A C28A 1_555 1_555
C29A C26A 1_555 1_555
H34A C29A 1_555 1_555
H35A C29A 1_555 1_555
H36A C29A 1_555 1_555
N5A C30A 1_555 1_555
C30A H37A 1_555 1_555
C31A C30A 1_555 1_555
H38A C31A 1_555 1_555
C32A C22A 1_555 1_555
C33A C32A 1_555 1_555
H39A C33A 1_555 1_555
C34A N5A 1_555 1_555
H40A C34A 1_555 1_555
C35A C36A 1_555 1_555
C36A C37A 1_555 1_555
C37A H41A 1_555 1_555
C38A C37A 1_555 1_555
C39A C38A 1_555 1_555
C40A C39A 1_555 1_555
C41A C36A 1_555 1_555
H42A C41A 1_555 1_555
C42A C38A 1_555 1_555
C43A C42A 1_555 1_555
H43A C43A 1_555 1_555
H44A C43A 1_555 1_555
H45A C43A 1_555 1_555
C44A C42A 1_555 1_555
H46A C44A 1_555 1_555
H47A C44A 1_555 1_555
H48A C44A 1_555 1_555
C45A C42A 1_555 1_555
H49A C45A 1_555 1_555
H50A C45A 1_555 1_555
H51A C45A 1_555 1_555
C46A N3A 1_555 1_555
H52A C46A 1_555 1_555
H53A C46A 1_555 1_555
C47A N3A 1_555 1_555
H54A C47A 1_555 1_555
C48A C47A 1_555 1_555
H55A C48A 1_555 1_555
H56A C48A 1_555 1_555
C49A C48A 1_555 1_555
H57A C49A 1_555 1_555
H58A C49A 1_555 1_555
C50A C49A 1_555 1_555
H59A C50A 1_555 1_555
H60A C50A 1_555 1_555
C51A C50A 1_555 1_555
H61A C51A 1_555 1_555
H62A C51A 1_555 1_555
C52A N4A 1_555 1_555
H63A C52A 1_555 1_555
C53A N4A 1_555 1_555
H64A C53A 1_555 1_555
H65A C53A 1_555 1_555
C54A C53A 1_555 1_555
C55A C54A 1_555 1_555
H66A C55A 1_555 1_555
C56A C55A 1_555 1_555
C57A C56A 1_555 1_555
H67A C57A 1_555 1_555
C58A C57A 1_555 1_555
C59A O10A 1_555 1_555
C60A C58A 1_555 1_555
C61A C60A 1_555 1_555
H68A C61A 1_555 1_555
H69A C61A 1_555 1_555
H70A C61A 1_555 1_555
C62A C60A 1_555 1_555
H71A C62A 1_555 1_555
H72A C62A 1_555 1_555
H73A C62A 1_555 1_555
C63A C60A 1_555 1_555
H74A C63A 1_555 1_555
H75A C63A 1_555 1_555
H76A C63A 1_555 1_555
N6A C64A 1_555 1_555
C64A H77A 1_555 1_555
C65A C64A 1_555 1_555
H78A C65A 1_555 1_555
C66A C56A 1_555 1_555
C67A C66A 1_555 1_555
H79A C67A 1_555 1_555
C68A N6A 1_555 1_555
H80A C68A 1_555 1_555
C69A O6A 1_555 1_555
H81A C69A 1_555 1_555
H82A C69A 1_555 1_555
C70A C69A 1_555 1_555
H83A C70A 1_555 1_555
H84A C70A 1_555 1_555
H85A C70A 1_555 1_555
C71A O11A 1_555 1_555
H86A C71A 1_555 1_555
H87A C71A 1_555 1_555
C72A C71A 1_555 1_555
H88A C72A 1_555 1_555
H89A C72A 1_555 1_555
H90A C72A 1_555 1_555
Zn1_2 O7 1_555 1_555
Zn1A_2 O7A 1_555 1_555
Zn1B N6 1_555 1_555
Zn1C N6A 1_555 1_555
Zn2B N5A 1_555 1_555
Zn2C N5 1_555 1_555
O7_2 Zn1 1_555 1_555
O7A_2 Zn1A 1_555 1_555
O8_2 Zn1 1_555 1_555
O8A_2 Zn1A 1_555 1_555
N5B Zn2A 1_555 1_555
N5C Zn2 1_555 1_555
N6B Zn1 1_555 1_555
N6C Zn1A 1_555 1_555
Zn2 O3 1_555 1_555
Ti2 O12 1_555 1_555
O1 Zn2A 1_555 1_555
O3 Zn2A 1_555 1_555
O8 Zn1_2 1_555 1_555
O13 Zn2A 1_555 1_555
C6 C7 1_555 1_555
C6 C12 1_555 1_555
C13 C18 1_555 1_555
C17 C18 1_555 1_555
C20 C25 1_555 1_555
C24 C25 1_555 1_555
C31 C32 1_555 1_555
C33 C34 1_555 1_555
C40 C41 1_555 1_555
C40 C46 1_555 1_555
C47 C52 1_555 1_555
C51 C52 1_555 1_555
C54 C59 1_555 1_555
C58 C59 1_555 1_555
C65 C66 1_555 1_555
C67 C68 1_555 1_555
Zn2A O1A 1_555 1_555
Ti2A O12A 1_555 1_555
O2A C1A 1_555 1_555
O8A Zn1A_2 1_555 1_555
C6A C7A 1_555 1_555
C6A C12A 1_555 1_555
C13A C18A 1_555 1_555
C17A C18A 1_555 1_555
C20A C25A 1_555 1_555
C24A C25A 1_555 1_555
C31A C32A 1_555 1_555
C33A C34A 1_555 1_555
C40A C41A 1_555 1_555
C40A C46A 1_555 1_555
C47A C52A 1_555 1_555
C51A C52A 1_555 1_555
C54A C59A 1_555 1_555
C58A C59A 1_555 1_555
C65A C66A 1_555 1_555
C67A C68A 1_555 1_555

#END
