
#######################################################################
#
#                 Cambridge Crystallographic Data Centre
#                                CCDC 
#
#######################################################################
#
# If this CIF has been generated from an entry in the Cambridge 
# Structural Database, then it will include bibliographic, chemical, 
# crystal, experimental, refinement or atomic coordinate data resulting 
# from the CCDC's data processing and validation procedures.
#
#######################################################################

data_OPEGUM
_chemical_formula_moiety         '(C4 In1 O8 1-)n'
_symmetry_cell_setting           tetragonal
_symmetry_space_group_name_H-M   'I 41/a m d'
_symmetry_Int_Tables_number      141
_space_group_name_Hall           '-I 4bd 2'
loop_
_symmetry_equiv_pos_site_id
_symmetry_equiv_pos_as_xyz
1 x,y,z
2 1/2-x,-y,1/2+z
3 1/4-y,3/4+x,1/4+z
4 1/4+y,1/4-x,3/4+z
5 1/2-x,y,1/2-z
6 x,-y,-z
7 1/4+y,3/4+x,1/4-z
8 1/4-y,1/4-x,3/4-z
9 1/2+x,1/2+y,1/2+z
10 -x,1/2-y,z
11 3/4-y,1/4+x,3/4+z
12 3/4+y,3/4-x,1/4+z
13 -x,1/2+y,-z
14 1/2+x,1/2-y,1/2-z
15 3/4+y,1/4+x,3/4-z
16 3/4-y,3/4-x,1/4-z
17 -x,-y,-z
18 1/2+x,y,1/2-z
19 3/4+y,1/4-x,3/4-z
20 3/4-y,3/4+x,1/4-z
21 1/2+x,-y,1/2+z
22 -x,y,z
23 3/4-y,1/4-x,3/4+z
24 3/4+y,3/4+x,1/4+z
25 1/2-x,1/2-y,1/2-z
26 x,1/2+y,-z
27 1/4+y,3/4-x,1/4-z
28 1/4-y,1/4+x,3/4-z
29 x,1/2-y,z
30 1/2-x,1/2+y,1/2+z
31 1/4-y,3/4-x,1/4+z
32 1/4+y,1/4+x,3/4+z
_cell_length_a                   21.750(3)
_cell_length_b                   21.750(3)
_cell_length_c                   12.335(3)
_cell_angle_alpha                90
_cell_angle_beta                 90
_cell_angle_gamma                90
_cell_volume                     5835.23
loop_
_atom_site_label
_atom_site_type_symbol
_atom_site_fract_x
_atom_site_fract_y
_atom_site_fract_z
_atom_site_U_iso_or_equiv
_atom_site_thermal_displace_type
In1 In 0.36416(4) 0.38584(4) 0.1250 0.0367 Uani
O1 O 0.3261(4) 0.3971(4) 0.2920(7) 0.0440 Uani
O2 O 0.2391(4) 0.3935(4) 0.3893(7) 0.0440 Uani
O3 O 0.3324(4) 0.3010(4) 0.0289(8) 0.0457 Uani
O4 O 0.3925(4) 0.3019(5) 0.2171(8) 0.0560 Uani
C1 C 0.2687(5) 0.3955(5) 0.3004(11) 0.0350 Uani
C2 C 0.3462(8) 0.2500 0.0684(15) 0.0377 Uani
C3 C 0.3801(9) 0.2500 0.1764(16) 0.0447 Uani
In1D In 0.13584(4) 0.38584(4) 0.3750 0.0367 Uani
In1S In 0.36416(4) 0.11416(4) 0.1250 0.0367 Uani
O1D O 0.1739(4) 0.3971(4) 0.2080(7) 0.0440 Uani
O1O O 0.3529(4) 0.4239(4) -0.0420(7) 0.0440 Uani
O2D O 0.2609(4) 0.3935(4) 0.1107(7) 0.0440 Uani
O2J O 0.3565(4) 0.4891(4) 0.1393(7) 0.0440 Uani
O3BA O 0.3324(4) 0.1990(4) 0.0289(8) 0.0457 Uani
O3O O 0.4490(4) 0.4176(4) 0.2211(8) 0.0457 Uani
O4BA O 0.3925(4) 0.1981(5) 0.2171(8) 0.0560 Uani
O4O O 0.4481(5) 0.3575(4) 0.0329(8) 0.0560 Uani
C1D C 0.2313(5) 0.3955(5) 0.1996(11) 0.0350 Uani
loop_
_atom_site_aniso_label
_atom_site_aniso_U_11
_atom_site_aniso_U_22
_atom_site_aniso_U_33
_atom_site_aniso_U_23
_atom_site_aniso_U_13
_atom_site_aniso_U_12
In1 0.0299(5) 0.0299(5) 0.0502(8) 0.0010(4) 0.0010(4) 0.0008(5)
O1 0.028(4) 0.058(6) 0.046(5) 0.002(4) -0.004(4) -0.001(4)
O2 0.036 0.052 0.044 0.005 0.007 0.002
O3 0.045(5) 0.029(4) 0.063(6) 0.003(4) -0.011(5) 0.007(4)
O4 0.075 0.034 0.059 0.002 -0.015 -0.003
C1 0.028(6) 0.024(6) 0.053(7) 0.000(5) 0.000(5) -0.001(4)
C2 0.027(8) 0.032(9) 0.054(11) 0.000 0.013(8) 0.000
C3 0.046(11) 0.031(9) 0.057(12) 0.000 -0.016(9) 0.000
In1D 0.0299 0.0299 0.0502 -0.001 0.001 -0.0008
In1S 0.0299 0.0299 0.0502 -0.001 0.001 -0.0008
O1D 0.028 0.058 0.046 -0.002 -0.004 0.001
O1O 0.058 0.028 0.046 -0.004 0.002 -0.001
O2D 0.036 0.052 0.044 -0.005 0.007 -0.002
O2J 0.052 0.036 0.044 0.007 -0.005 -0.002
O3BA 0.045 0.029 0.063 -0.003 -0.011 -0.007
O3O 0.029 0.045 0.063 -0.011 0.003 0.007
O4BA 0.075 0.034 0.059 -0.002 -0.015 0.003
O4O 0.034 0.075 0.059 -0.015 0.002 -0.003
C1D 0.028 0.024 0.053 0 0 0.001
loop_
_geom_bond_atom_site_label_1
_geom_bond_atom_site_label_2
_geom_bond_site_symmetry_1
_geom_bond_site_symmetry_2
In1 O1 1_555 1_555
O1 C1 1_555 1_555
O2 C1 1_555 1_555
O3 In1 1_555 1_555
O4 In1 1_555 1_555
C1 C1D 1_555 1_555
C2 O3 1_555 1_555
C3 O4 1_555 1_555
In1D O2 1_555 1_555
In1S O3BA 1_555 1_555
O1D In1D 1_555 1_555
O1O In1 1_555 1_555
O2D In1 1_555 1_555
O2J In1 1_555 1_555
O3BA C2 1_555 1_555
O3O In1 1_555 1_555
O4BA C3 1_555 1_555
O4O In1 1_555 1_555
C1D O1D 1_555 1_555
C2 C3 1_555 1_555
In1S O4BA 1_555 1_555
O2D C1D 1_555 1_555

#END
