
#######################################################################
#
#                 Cambridge Crystallographic Data Centre
#                                CCDC 
#
#######################################################################
#
# If this CIF has been generated from an entry in the Cambridge 
# Structural Database, then it will include bibliographic, chemical, 
# crystal, experimental, refinement or atomic coordinate data resulting 
# from the CCDC's data processing and validation procedures.
#
#######################################################################

data_FOQTAH
_chemical_formula_moiety         '(C12 H16 Cl1 N12 O4 Zn1 1+)n'
_symmetry_cell_setting           orthorhombic
_symmetry_space_group_name_H-M   'P n m a'
_symmetry_Int_Tables_number      62
_space_group_name_Hall           '-P 2ac 2n'
loop_
_symmetry_equiv_pos_site_id
_symmetry_equiv_pos_as_xyz
1 x,y,z
2 1/2-x,-y,1/2+z
3 -x,1/2+y,-z
4 1/2+x,1/2-y,1/2-z
5 -x,-y,-z
6 1/2+x,y,1/2-z
7 x,1/2-y,z
8 1/2-x,1/2+y,1/2+z
_cell_length_a                   8.0135(3)
_cell_length_b                   17.6580(7)
_cell_length_c                   13.8841(6)
_cell_angle_alpha                90
_cell_angle_beta                 90
_cell_angle_gamma                90
_cell_volume                     1964.63
loop_
_atom_site_label
_atom_site_type_symbol
_atom_site_fract_x
_atom_site_fract_y
_atom_site_fract_z
_atom_site_U_iso_or_equiv
_atom_site_thermal_displace_type
Zn1 Zn 0.21439(6) 0.2500 0.25202(3) 0.0119 Uani
C1 C 0.1047(6) 0.2500 0.0405(3) 0.0260 Uani
H1 H 0.2179 0.2500 0.0227 0.0310 Uiso
N1 N 0.0515(4) 0.2500 0.1281(3) 0.0181 Uani
N2 N -0.1236(5) 0.2500 0.1237(3) 0.0176 Uani
C2 C -0.1628(6) 0.2500 0.0327(3) 0.0237 Uani
H2 H -0.2724 0.2500 0.0087 0.0280 Uiso
N3 N -0.0236(5) 0.2500 -0.0222(3) 0.0203 Uani
C3 C -0.0003(6) 0.2500 -0.1274(3) 0.0230 Uani
H3 H 0.0646 0.2052 -0.1456 0.0280 Uiso
C4 C -0.1616(7) 0.2500 -0.1834(3) 0.0277 Uani
H4 H -0.2276 0.2049 -0.1678 0.0330 Uiso
N4 N -0.1168(5) 0.2500 -0.2856(3) 0.0258 Uani
C5 C -0.0836(5) 0.3104(3) -0.3419(3) 0.0312 Uani
H5 H -0.0924 0.3611 -0.3219 0.0380 Uiso
N5 N -0.0373(4) 0.2889(2) -0.4283(2) 0.0373 Uani
C6 C 0.0998(4) 0.39513(18) 0.3640(2) 0.0172 Uani
H6 H 0.2116 0.4087 0.3751 0.0210 Uiso
N6 N 0.0520(3) 0.33498(15) 0.31578(19) 0.0141 Uani
N7 N -0.1219(3) 0.33564(15) 0.31542(18) 0.0147 Uani
C7 C -0.1684(4) 0.39616(19) 0.3636(2) 0.0178 Uani
H7 H -0.2798 0.4105 0.3743 0.0210 Uiso
N8 N -0.0338(3) 0.43494(16) 0.39549(19) 0.0158 Uani
C8 C -0.0327(4) 0.50669(19) 0.4490(2) 0.0217 Uani
H8 H -0.1461 0.5274 0.4519 0.0260 Uiso
H9 H 0.0386 0.5435 0.4158 0.0260 Uiso
Zn1A Zn 0.28561(6) 0.7500 0.75202(3) 0.0119 Uani
Zn1B Zn -0.21439(6) 0.7500 0.74798(3) 0.0119 Uani
Zn1C Zn -0.28561(6) 0.2500 0.24798(3) 0.0119 Uani
N2C N 0.3764(5) 0.2500 0.3763(3) 0.0176 Uani
H3F H 0.0646 0.2948 -0.1456 0.0280 Uiso
H4F H -0.2276 0.2951 -0.1678 0.0330 Uiso
C5F C -0.0836(5) 0.1896(3) -0.3419(3) 0.0312 Uani
H5F H -0.0924 0.1389 -0.3219 0.0380 Uiso
N5F N -0.0373(4) 0.2111(2) -0.4283(2) 0.0373 Uani
C6D C -0.0998(4) 0.60487(18) 0.6360(2) 0.0172 Uani
H6D H -0.2116 0.5913 0.6249 0.0210 Uiso
N6D N -0.0520(3) 0.66502(15) 0.68422(19) 0.0141 Uani
N6F N 0.0520(3) 0.16502(15) 0.31578(19) 0.0141 Uani
N7D N 0.1219(3) 0.66436(15) 0.68458(18) 0.0147 Uani
N7C N 0.3781(3) 0.16436(15) 0.18458(18) 0.0147 Uani
N7E N 0.3781(3) 0.33564(15) 0.18458(18) 0.0147 Uani
C7D C 0.1684(4) 0.60384(19) 0.6364(2) 0.0178 Uani
H7D H 0.2798 0.5895 0.6257 0.0210 Uiso
N8D N 0.0338(3) 0.56506(16) 0.60451(19) 0.0158 Uani
C8D C 0.0327(4) 0.49331(19) 0.5510(2) 0.0217 Uani
H8D H 0.1461 0.4726 0.5481 0.0260 Uiso
H9D H -0.0386 0.4565 0.5842 0.0260 Uiso
Cl1 Cl 0.95163(11) 0.54198(6) 0.13706(7) 0.0329 Uani
O1 O 0.9648(4) 0.4615(2) 0.1391(4) 0.0659 Uani
O2 O 1.1103(4) 0.5749(2) 0.1191(3) 0.0629 Uani
O3 O 0.8375(5) 0.5656(2) 0.0638(3) 0.0633 Uani
O4 O 0.8874(6) 0.5685(3) 0.2271(3) 0.0733 Uani
loop_
_atom_site_aniso_label
_atom_site_aniso_U_11
_atom_site_aniso_U_22
_atom_site_aniso_U_33
_atom_site_aniso_U_23
_atom_site_aniso_U_13
_atom_site_aniso_U_12
Zn1 0.0098(3) 0.0139(3) 0.0119(3) 0.000 -0.00049(16) 0.000
C1 0.018(2) 0.041(3) 0.019(2) 0.000 0.0006(19) 0.000
N1 0.0122(17) 0.026(2) 0.0161(18) 0.000 -0.0027(14) 0.000
N2 0.0159(18) 0.024(2) 0.0128(17) 0.000 -0.0009(14) 0.000
C2 0.018(2) 0.030(3) 0.023(2) 0.000 -0.0016(19) 0.000
N3 0.021(2) 0.028(2) 0.0119(18) 0.000 0.0004(15) 0.000
C3 0.027(2) 0.029(3) 0.013(2) 0.000 0.0027(18) 0.000
C4 0.025(3) 0.038(3) 0.020(2) 0.000 0.005(2) 0.000
N4 0.023(2) 0.036(3) 0.0184(19) 0.000 -0.0030(17) 0.000
C5 0.033(2) 0.035(2) 0.0257(18) 0.0067(16) -0.0009(15) 0.0001(17)
N5 0.0315(17) 0.059(2) 0.0214(16) 0.0054(15) 0.0004(13) -0.0029(16)
C6 0.0144(14) 0.0150(16) 0.0221(16) -0.0038(12) -0.0009(12) -0.0019(12)
N6 0.0081(11) 0.0154(14) 0.0189(13) -0.0031(10) 0.0006(9) 0.0004(10)
N7 0.0102(12) 0.0158(14) 0.0180(12) -0.0034(10) 0.0005(10) -0.0001(10)
C7 0.0150(14) 0.0179(17) 0.0205(15) -0.0030(12) 0.0003(12) 0.0001(13)
N8 0.0166(13) 0.0128(13) 0.0179(13) -0.0043(10) -0.0031(10) 0.0016(11)
C8 0.0289(18) 0.0131(16) 0.0232(17) -0.0054(13) -0.0069(14) 0.0039(14)
Zn1A 0.0098 0.0139 0.0119 0 0.00049 0
Zn1B 0.0098 0.0139 0.0119 0 -0.00049 0
Zn1C 0.0098 0.0139 0.0119 0 0.00049 0
N2C 0.0159 0.024 0.0128 0 0.0009 0
C5F 0.033 0.035 0.0257 -0.0067 -0.0009 -0.0001
N5F 0.0315 0.059 0.0214 -0.0054 0.0004 0.0029
C6D 0.0144 0.015 0.0221 -0.0038 -0.0009 -0.0019
N6D 0.0081 0.0154 0.0189 -0.0031 0.0006 0.0004
N6F 0.0081 0.0154 0.0189 0.0031 0.0006 -0.0004
N7D 0.0102 0.0158 0.018 -0.0034 0.0005 -0.0001
N7C 0.0102 0.0158 0.018 -0.0034 -0.0005 0.0001
N7E 0.0102 0.0158 0.018 0.0034 -0.0005 -0.0001
C7D 0.015 0.0179 0.0205 -0.003 0.0003 0.0001
N8D 0.0166 0.0128 0.0179 -0.0043 -0.0031 0.0016
C8D 0.0289 0.0131 0.0232 -0.0054 -0.0069 0.0039
Cl1 0.0224(4) 0.0354(6) 0.0410(6) -0.0037(4) -0.0027(4) 0.0015(4)
O1 0.0266(17) 0.037(2) 0.134(4) 0.001(2) 0.0089(19) 0.0005(15)
O2 0.0296(17) 0.045(2) 0.114(3) -0.013(2) 0.0060(19) -0.0076(16)
O3 0.053(2) 0.084(3) 0.053(2) 0.000(2) -0.0235(18) 0.019(2)
O4 0.083(3) 0.096(4) 0.041(2) -0.009(2) 0.005(2) 0.025(3)
loop_
_geom_bond_atom_site_label_1
_geom_bond_atom_site_label_2
_geom_bond_site_symmetry_1
_geom_bond_site_symmetry_2
Zn1 N1 1_555 1_555
C1 H1 1_555 1_555
N1 C1 1_555 1_555
N2 N1 1_555 1_555
C2 N2 1_555 1_555
H2 C2 1_555 1_555
N3 C1 1_555 1_555
C3 N3 1_555 1_555
H3 C3 1_555 1_555
C4 C3 1_555 1_555
H4 C4 1_555 1_555
N4 C4 1_555 1_555
C5 N4 1_555 1_555
H5 C5 1_555 1_555
N5 C5 1_555 1_555
C6 H6 1_555 1_555
N6 Zn1 1_555 1_555
N7 N6 1_555 1_555
C7 N7 1_555 1_555
H7 C7 1_555 1_555
N8 C6 1_555 1_555
C8 N8 1_555 1_555
H8 C8 1_555 1_555
H9 C8 1_555 1_555
Cl1 O1 1_555 1_555
O2 Cl1 1_555 1_555
O3 Cl1 1_555 1_555
O4 Cl1 1_555 1_555
Zn1A N7D 1_555 1_555
Zn1B N6D 1_555 1_555
Zn1C N2 1_555 1_555
N2C Zn1 1_555 1_555
H3F C3 1_555 1_555
H4F C4 1_555 1_555
C5F N4 1_555 1_555
H5F C5F 1_555 1_555
N5F N5 1_555 1_555
C6D H6D 1_555 1_555
N6D C6D 1_555 1_555
N6F Zn1 1_555 1_555
N7D N6D 1_555 1_555
N7C Zn1 1_555 1_555
N7E Zn1 1_555 1_555
C7D N7D 1_555 1_555
H7D C7D 1_555 1_555
N8D C6D 1_555 1_555
C8D C8 1_555 1_555
H8D C8D 1_555 1_555
H9D C8D 1_555 1_555
C2 N3 1_555 1_555
C6 N6 1_555 1_555
N7 Zn1C 1_555 1_555
C7 N8 1_555 1_555
C5F N5F 1_555 1_555
C7D N8D 1_555 1_555
N8D C8D 1_555 1_555

#END
