
#######################################################################
#
#                 Cambridge Crystallographic Data Centre
#                                CCDC 
#
#######################################################################
#
# If this CIF has been generated from an entry in the Cambridge 
# Structural Database, then it will include bibliographic, chemical, 
# crystal, experimental, refinement or atomic coordinate data resulting 
# from the CCDC's data processing and validation procedures.
#
#######################################################################

data_FOQTEL
_chemical_formula_moiety         '(C12 H16 Cd1 Cl1 N12 O4 1+)n'
_symmetry_cell_setting           orthorhombic
_symmetry_space_group_name_H-M   'P n m a'
_symmetry_Int_Tables_number      62
_space_group_name_Hall           '-P 2ac 2n'
loop_
_symmetry_equiv_pos_site_id
_symmetry_equiv_pos_as_xyz
1 x,y,z
2 1/2-x,-y,1/2+z
3 -x,1/2+y,-z
4 1/2+x,1/2-y,1/2-z
5 -x,-y,-z
6 1/2+x,y,1/2-z
7 x,1/2-y,z
8 1/2-x,1/2+y,1/2+z
_cell_length_a                   8.23350(10)
_cell_length_b                   17.8751(4)
_cell_length_c                   14.2061(3)
_cell_angle_alpha                90
_cell_angle_beta                 90
_cell_angle_gamma                90
_cell_volume                     2090.78
loop_
_atom_site_label
_atom_site_type_symbol
_atom_site_fract_x
_atom_site_fract_y
_atom_site_fract_z
_atom_site_U_iso_or_equiv
_atom_site_thermal_displace_type
Cd1 Cd 0.20828(3) 0.2500 0.25092(2) 0.0121 Uani
C1 C 0.0918(5) 0.2500 0.0316(3) 0.0288 Uani
H1 H 0.2022 0.2500 0.0146 0.0340 Uiso
N1 N 0.0384(4) 0.2500 0.1185(2) 0.0212 Uani
N2 N -0.1284(4) 0.2500 0.1132(2) 0.0194 Uani
C2 C -0.1670(4) 0.2500 0.0232(3) 0.0235 Uani
H2 H -0.2736 0.2500 -0.0005 0.0280 Uiso
N3 N -0.0314(4) 0.2500 -0.0300(2) 0.0189 Uani
C3 C -0.0094(4) 0.2500 -0.1322(3) 0.0217 Uani
H3 H 0.0537 0.2057 -0.1501 0.0260 Uiso
C4 C -0.1665(4) 0.2500 -0.1868(3) 0.0240 Uani
H4 H -0.2307 0.2055 -0.1714 0.0290 Uiso
N4 N -0.1234(4) 0.2500 -0.2869(2) 0.0205 Uani
C5 C -0.0912(3) 0.30961(18) -0.3427(2) 0.0283 Uani
H5 H -0.1022 0.3597 -0.3235 0.0340 Uiso
N5 N -0.0434(3) 0.28915(15) -0.42589(17) 0.0330 Uani
C6 C 0.0897(3) 0.40023(14) 0.3638(2) 0.0199 Uani
H6 H 0.1987 0.4139 0.3732 0.0240 Uiso
N6 N 0.0423(2) 0.34082(11) 0.31806(16) 0.0173 Uani
N7 N -0.1269(2) 0.34122(11) 0.32020(15) 0.0153 Uani
C7 C -0.1711(3) 0.40098(14) 0.3678(2) 0.0179 Uani
H7 H -0.2791 0.4148 0.3804 0.0210 Uiso
N8 N -0.0393(2) 0.43927(11) 0.39575(15) 0.0165 Uani
C8 C -0.0347(3) 0.50842(14) 0.45152(19) 0.0210 Uani
H8 H -0.1447 0.5288 0.4578 0.0250 Uiso
H9 H 0.0329 0.5458 0.4197 0.0250 Uiso
Cd1A Cd 0.29172(3) 0.7500 0.75092(2) 0.0121 Uani
Cd1B Cd -0.20828(3) 0.7500 0.74908(2) 0.0121 Uani
Cd1C Cd -0.29172(3) 0.2500 0.24908(2) 0.0121 Uani
N2C N 0.3716(4) 0.2500 0.3868(2) 0.0194 Uani
H3F H 0.0537 0.2943 -0.1501 0.0260 Uiso
H4F H -0.2307 0.2945 -0.1714 0.0290 Uiso
C5F C -0.0912(3) 0.19039(18) -0.3427(2) 0.0283 Uani
H5F H -0.1022 0.1403 -0.3235 0.0340 Uiso
N5F N -0.0434(3) 0.21085(15) -0.42589(17) 0.0330 Uani
C6D C -0.0897(3) 0.59977(14) 0.6362(2) 0.0199 Uani
H6D H -0.1987 0.5861 0.6268 0.0240 Uiso
N6D N -0.0423(2) 0.65918(11) 0.68194(16) 0.0173 Uani
N6F N 0.0423(2) 0.15918(11) 0.31806(16) 0.0173 Uani
N7D N 0.1269(2) 0.65878(11) 0.67980(15) 0.0153 Uani
N7C N 0.3731(2) 0.15878(11) 0.17980(15) 0.0153 Uani
N7E N 0.3731(2) 0.34122(11) 0.17980(15) 0.0153 Uani
C7D C 0.1711(3) 0.59902(14) 0.6322(2) 0.0179 Uani
H7D H 0.2791 0.5852 0.6196 0.0210 Uiso
N8D N 0.0393(2) 0.56073(11) 0.60425(15) 0.0165 Uani
C8D C 0.0347(3) 0.49158(14) 0.54848(19) 0.0210 Uani
H8D H 0.1447 0.4712 0.5422 0.0250 Uiso
H9D H -0.0329 0.4542 0.5803 0.0250 Uiso
Cl1 Cl 0.95034(8) 0.54159(4) 0.13853(6) 0.0308 Uani
O1 O 0.9607(3) 0.46149(13) 0.1419(2) 0.0582 Uani
O2 O 1.1058(3) 0.57230(13) 0.1168(2) 0.0571 Uani
O3 O 0.8359(3) 0.56381(15) 0.06881(18) 0.0596 Uani
O4 O 0.8959(4) 0.57023(17) 0.22750(18) 0.0658 Uani
loop_
_atom_site_aniso_label
_atom_site_aniso_U_11
_atom_site_aniso_U_22
_atom_site_aniso_U_33
_atom_site_aniso_U_23
_atom_site_aniso_U_13
_atom_site_aniso_U_12
Cd1 0.01051(11) 0.01291(12) 0.01274(12) 0.000 0.00047(10) 0.000
C1 0.0143(18) 0.051(3) 0.021(2) 0.000 -0.0002(15) 0.000
N1 0.0132(14) 0.0323(18) 0.0181(17) 0.000 0.0040(14) 0.000
N2 0.0143(14) 0.0331(18) 0.0109(16) 0.000 -0.0002(13) 0.000
C2 0.0136(17) 0.040(2) 0.017(2) 0.000 -0.0006(15) 0.000
N3 0.0176(15) 0.0284(18) 0.0108(15) 0.000 0.0014(13) 0.000
C3 0.0212(18) 0.030(2) 0.014(2) 0.000 0.0031(14) 0.000
C4 0.0201(18) 0.040(3) 0.012(2) 0.000 0.0014(15) 0.000
N4 0.0203(16) 0.0289(18) 0.0124(15) 0.000 -0.0014(14) 0.000
C5 0.0310(16) 0.0303(16) 0.0236(17) 0.0055(14) -0.0016(12) -0.0033(13)
N5 0.0253(12) 0.0538(16) 0.0199(13) 0.0082(12) -0.0009(11) -0.0043(13)
C6 0.0137(12) 0.0190(14) 0.0271(16) -0.0064(12) -0.0010(10) -0.0023(10)
N6 0.0107(9) 0.0182(11) 0.0230(12) -0.0050(9) 0.0006(10) -0.0011(10)
N7 0.0111(9) 0.0158(11) 0.0190(12) -0.0031(9) -0.0005(9) 0.0003(9)
C7 0.0135(11) 0.0194(14) 0.0207(15) -0.0021(12) -0.0017(10) 0.0004(10)
N8 0.0177(10) 0.0137(10) 0.0182(11) -0.0040(9) -0.0007(9) 0.0010(9)
C8 0.0270(14) 0.0137(12) 0.0224(14) -0.0083(11) -0.0017(12) 0.0034(12)
Cd1A 0.01051 0.01291 0.01274 0 -0.00047 0
Cd1B 0.01051 0.01291 0.01274 0 0.00047 0
Cd1C 0.01051 0.01291 0.01274 0 -0.00047 0
N2C 0.0143 0.0331 0.0109 0 0.0002 0
C5F 0.031 0.0303 0.0236 -0.0055 -0.0016 0.0033
N5F 0.0253 0.0538 0.0199 -0.0082 -0.0009 0.0043
C6D 0.0137 0.019 0.0271 -0.0064 -0.001 -0.0023
N6D 0.0107 0.0182 0.023 -0.005 0.0006 -0.0011
N6F 0.0107 0.0182 0.023 0.005 0.0006 0.0011
N7D 0.0111 0.0158 0.019 -0.0031 -0.0005 0.0003
N7C 0.0111 0.0158 0.019 -0.0031 0.0005 -0.0003
N7E 0.0111 0.0158 0.019 0.0031 0.0005 0.0003
C7D 0.0135 0.0194 0.0207 -0.0021 -0.0017 0.0004
N8D 0.0177 0.0137 0.0182 -0.004 -0.0007 0.001
C8D 0.027 0.0137 0.0224 -0.0083 -0.0017 0.0034
Cl1 0.0211(3) 0.0331(4) 0.0382(4) -0.0039(4) -0.0025(3) 0.0008(3)
O1 0.0314(12) 0.0332(13) 0.110(3) 0.0006(15) 0.0069(15) -0.0007(11)
O2 0.0270(12) 0.0442(15) 0.100(2) -0.0045(15) 0.0069(14) -0.0085(11)
O3 0.0464(15) 0.081(2) 0.0515(17) -0.0042(16) -0.0217(13) 0.0204(15)
O4 0.0753(19) 0.083(2) 0.0391(17) -0.0119(15) 0.0120(14) 0.0107(19)
loop_
_geom_bond_atom_site_label_1
_geom_bond_atom_site_label_2
_geom_bond_site_symmetry_1
_geom_bond_site_symmetry_2
Cd1 N1 1_555 1_555
C1 H1 1_555 1_555
N1 C1 1_555 1_555
N2 N1 1_555 1_555
C2 N2 1_555 1_555
H2 C2 1_555 1_555
N3 C1 1_555 1_555
C3 N3 1_555 1_555
H3 C3 1_555 1_555
C4 C3 1_555 1_555
H4 C4 1_555 1_555
N4 C4 1_555 1_555
C5 N4 1_555 1_555
H5 C5 1_555 1_555
N5 C5 1_555 1_555
C6 H6 1_555 1_555
N6 Cd1 1_555 1_555
N7 N6 1_555 1_555
C7 N7 1_555 1_555
H7 C7 1_555 1_555
N8 C6 1_555 1_555
C8 N8 1_555 1_555
H8 C8 1_555 1_555
H9 C8 1_555 1_555
Cl1 O1 1_555 1_555
O2 Cl1 1_555 1_555
O3 Cl1 1_555 1_555
O4 Cl1 1_555 1_555
Cd1A N7D 1_555 1_555
Cd1B N6D 1_555 1_555
Cd1C N2 1_555 1_555
N2C Cd1 1_555 1_555
H3F C3 1_555 1_555
H4F C4 1_555 1_555
C5F N4 1_555 1_555
H5F C5F 1_555 1_555
N5F N5 1_555 1_555
C6D H6D 1_555 1_555
N6D C6D 1_555 1_555
N6F Cd1 1_555 1_555
N7D N6D 1_555 1_555
N7C Cd1 1_555 1_555
N7E Cd1 1_555 1_555
C7D N7D 1_555 1_555
H7D C7D 1_555 1_555
N8D C6D 1_555 1_555
C8D C8 1_555 1_555
H8D C8D 1_555 1_555
H9D C8D 1_555 1_555
C2 N3 1_555 1_555
C6 N6 1_555 1_555
N7 Cd1C 1_555 1_555
C7 N8 1_555 1_555
C5F N5F 1_555 1_555
C7D N8D 1_555 1_555
N8D C8D 1_555 1_555

#END
