
#######################################################################
#
#                 Cambridge Crystallographic Data Centre
#                                CCDC 
#
#######################################################################
#
# If this CIF has been generated from an entry in the Cambridge 
# Structural Database, then it will include bibliographic, chemical, 
# crystal, experimental, refinement or atomic coordinate data resulting 
# from the CCDC's data processing and validation procedures.
#
#######################################################################

data_NADYUP
_chemical_formula_moiety         'C144 H72 Co3 N12 O91 Zr33'
_symmetry_cell_setting           cubic
_symmetry_space_group_name_H-M   'I m -3 m'
_symmetry_Int_Tables_number      229
_space_group_name_Hall           '-I 4 2 3'
loop_
_symmetry_equiv_pos_site_id
_symmetry_equiv_pos_as_xyz
1 x,y,z
2 -y,x,z
3 -x,-y,z
4 y,-x,z
5 x,-z,y
6 x,-y,-z
7 x,z,-y
8 z,y,-x
9 -x,y,-z
10 -z,y,x
11 z,x,y
12 y,z,x
13 -y,-z,x
14 z,-x,-y
15 -y,z,-x
16 -z,-x,y
17 -z,x,-y
18 y,-z,-x
19 y,x,-z
20 -y,-x,-z
21 -x,z,y
22 -x,-z,-y
23 z,-y,x
24 -z,-y,-x
25 1/2+x,1/2+y,1/2+z
26 1/2-y,1/2+x,1/2+z
27 1/2-x,1/2-y,1/2+z
28 1/2+y,1/2-x,1/2+z
29 1/2+x,1/2-z,1/2+y
30 1/2+x,1/2-y,1/2-z
31 1/2+x,1/2+z,1/2-y
32 1/2+z,1/2+y,1/2-x
33 1/2-x,1/2+y,1/2-z
34 1/2-z,1/2+y,1/2+x
35 1/2+z,1/2+x,1/2+y
36 1/2+y,1/2+z,1/2+x
37 1/2-y,1/2-z,1/2+x
38 1/2+z,1/2-x,1/2-y
39 1/2-y,1/2+z,1/2-x
40 1/2-z,1/2-x,1/2+y
41 1/2-z,1/2+x,1/2-y
42 1/2+y,1/2-z,1/2-x
43 1/2+y,1/2+x,1/2-z
44 1/2-y,1/2-x,1/2-z
45 1/2-x,1/2+z,1/2+y
46 1/2-x,1/2-z,1/2-y
47 1/2+z,1/2-y,1/2+x
48 1/2-z,1/2-y,1/2-x
49 -x,-y,-z
50 y,-x,-z
51 x,y,-z
52 -y,x,-z
53 -x,z,-y
54 -x,y,z
55 -x,-z,y
56 -z,-y,x
57 x,-y,z
58 z,-y,-x
59 -z,-x,-y
60 -y,-z,-x
61 y,z,-x
62 -z,x,y
63 y,-z,x
64 z,x,-y
65 z,-x,y
66 -y,z,x
67 -y,-x,z
68 y,x,z
69 x,-z,-y
70 x,z,y
71 -z,y,-x
72 z,y,x
73 1/2-x,1/2-y,1/2-z
74 1/2+y,1/2-x,1/2-z
75 1/2+x,1/2+y,1/2-z
76 1/2-y,1/2+x,1/2-z
77 1/2-x,1/2+z,1/2-y
78 1/2-x,1/2+y,1/2+z
79 1/2-x,1/2-z,1/2+y
80 1/2-z,1/2-y,1/2+x
81 1/2+x,1/2-y,1/2+z
82 1/2+z,1/2-y,1/2-x
83 1/2-z,1/2-x,1/2-y
84 1/2-y,1/2-z,1/2-x
85 1/2+y,1/2+z,1/2-x
86 1/2-z,1/2+x,1/2+y
87 1/2+y,1/2-z,1/2+x
88 1/2+z,1/2+x,1/2-y
89 1/2+z,1/2-x,1/2+y
90 1/2-y,1/2+z,1/2+x
91 1/2-y,1/2-x,1/2+z
92 1/2+y,1/2+x,1/2+z
93 1/2+x,1/2-z,1/2-y
94 1/2+x,1/2+z,1/2+y
95 1/2-z,1/2+y,1/2-x
96 1/2+z,1/2+y,1/2+x
_cell_length_a                   38.5873(13)
_cell_length_b                   38.5873(13)
_cell_length_c                   38.5873(13)
_cell_angle_alpha                90
_cell_angle_beta                 90
_cell_angle_gamma                90
_cell_volume                     57455.7
loop_
_atom_site_label
_atom_site_type_symbol
_atom_site_fract_x
_atom_site_fract_y
_atom_site_fract_z
Co1 Co 0.2500 0.5000 0.0000
O1 O 0.21738(12) 0.21738(12) 0.21738(12)
O2 O 0.24068(14) 0.30321(17) 0.24068(14)
N1 N 0.2506(2) 0.44979(13) 0.0000
C1 C 0.2525(2) 0.39184(9) 0.01719(12)
H1 H 0.2531 0.3721 0.0319
C2 C 0.2500 0.40963(10) 0.09037(10)
C3 C 0.2500 0.35927(10) 0.14073(10)
C4 C 0.25143(19) 0.42728(10) 0.02791(10)
C5 C 0.2500 0.43746(9) 0.06254(9)
C6 C 0.2199(2) 0.36629(15) 0.12351(14)
H2 H 0.1994 0.3538 0.1291
C7 C 0.2190(2) 0.39217(14) 0.09727(15)
H3 H 0.1984 0.3973 0.0850
Zr1 Zr 0.21336(4) 0.27621(8) 0.21336(4)
O3 O 0.22250(11) 0.31514(11) 0.17212(10)
O4 O 0.1972(3) 0.2490(2) 0.1521(2)
C8 C 0.2500 0.33107(12) 0.16893(12)
N1SA N 0.2494(2) 0.5000 0.05021(13)
C1SA C 0.2475(2) 0.48281(12) 0.10816(9)
H1SA H 0.2469 0.4681 0.1279
C4SA C 0.24857(19) 0.47209(10) 0.07272(10)
C6SA C 0.2801(2) 0.37649(14) 0.13371(15)
H2SA H 0.3006 0.3709 0.1462
C7SA C 0.2810(2) 0.40273(15) 0.10783(14)
H3SA H 0.3016 0.4150 0.1027
O3SA O 0.27750(11) 0.32788(10) 0.18486(11)
C1XA C 0.2525(2) 0.39184(9) -0.01719(12)
H1XA H 0.2531 0.3721 -0.0319
C2XA C 0.2500 0.40963(10) -0.09037(10)
C3XA C 0.2500 0.35927(10) -0.14073(10)
C4XA C 0.25143(19) 0.42728(10) -0.02791(10)
C5XA C 0.2500 0.43746(9) -0.06254(9)
C6XA C 0.2199(2) 0.36629(15) -0.12351(14)
H2XA H 0.1994 0.3538 -0.1291
C7XA C 0.2190(2) 0.39217(14) -0.09727(15)
H3XA H 0.1984 0.3973 -0.0850
O3XA O 0.22250(11) 0.31514(11) -0.17212(10)
C8XA C 0.2500 0.33107(12) -0.16893(12)
C1XB C 0.2475(2) 0.51719(12) 0.10816(9)
H1XB H 0.2469 0.5319 0.1279
C2DB C 0.2500 0.59037(10) 0.09037(10)
C3DB C 0.2500 0.64073(10) 0.14073(10)
C4XB C 0.24857(19) 0.52791(10) 0.07272(10)
C5DB C 0.2500 0.56254(9) 0.06254(9)
C6XB C 0.2801(2) 0.62351(14) 0.13371(15)
H2XB H 0.3006 0.6291 0.1462
C7XB C 0.2810(2) 0.59727(15) 0.10783(14)
H3XB H 0.3016 0.5850 0.1027
O3XB O 0.27750(11) 0.67212(10) 0.18486(11)
C8DB C 0.2500 0.66893(12) 0.16893(12)
N1RA N 0.2494(2) 0.5000 -0.05021(13)
C1ZB C 0.2475(2) 0.48281(12) -0.10816(9)
H1ZB H 0.2469 0.4681 -0.1279
C4ZB C 0.24857(19) 0.47209(10) -0.07272(10)
C6ZB C 0.2801(2) 0.37649(14) -0.13371(15)
H2ZB H 0.3006 0.3709 -0.1462
C7ZB C 0.2810(2) 0.40273(15) -0.10783(14)
H3ZB H 0.3016 0.4150 -0.1027
O3ZB O 0.27750(11) 0.32788(10) -0.18486(11)
C1RA C 0.2475(2) 0.51719(12) -0.10816(9)
H1RA H 0.2469 0.5319 -0.1279
C2E C 0.2500 0.59037(10) -0.09037(10)
C3E C 0.2500 0.64073(10) -0.14073(10)
C4RA C 0.24857(19) 0.52791(10) -0.07272(10)
C5E C 0.2500 0.56254(9) -0.06254(9)
C6RA C 0.2801(2) 0.62351(14) -0.13371(15)
H2RA H 0.3006 0.6291 -0.1462
C7RA C 0.2810(2) 0.59727(15) -0.10783(14)
H3RA H 0.3016 0.5850 -0.1027
O3RA O 0.27750(11) 0.67212(10) -0.18486(11)
C8E C 0.2500 0.66893(12) -0.16893(12)
N1E N 0.2506(2) 0.55021(13) 0.0000
C1DB C 0.2525(2) 0.60816(9) 0.01719(12)
H1DB H 0.2531 0.6279 0.0319
C4DB C 0.25143(19) 0.57272(10) 0.02791(10)
C6DB C 0.2199(2) 0.63371(15) 0.12351(14)
H2DB H 0.1994 0.6462 0.1291
C7DB C 0.2190(2) 0.60783(14) 0.09727(15)
H3DB H 0.1984 0.6027 0.0850
O3DB O 0.22250(11) 0.68486(11) 0.17212(10)
C1E C 0.2525(2) 0.60816(9) -0.01719(12)
H1E H 0.2531 0.6279 -0.0319
C4E C 0.25143(19) 0.57272(10) -0.02791(10)
C6E C 0.2199(2) 0.63371(15) -0.12351(14)
H2E H 0.1994 0.6462 -0.1291
C7E C 0.2190(2) 0.60783(14) -0.09727(15)
H3E H 0.1984 0.6027 -0.0850
O3E O 0.22250(11) 0.68486(11) -0.17212(10)
O2E O 0.24068(14) 0.69679(17) -0.24068(14)
Zr1E Zr 0.21336(4) 0.72379(8) -0.21336(4)
O4E O 0.1972(3) 0.7510(2) -0.1521(2)
Co1G Co 0.0000 0.5000 -0.2500
O1F O 0.21738(12) 0.21738(12) -0.21738(12)
O2G O 0.24068(14) 0.30321(17) -0.24068(14)
N1G N -0.0000 0.44979(13) -0.2506(2)
C1G C 0.01719(12) 0.39184(9) -0.2525(2)
H1G H 0.0319 0.3721 -0.2531
C2G C 0.09037(10) 0.40963(10) -0.2500
C3G C 0.14073(10) 0.35927(10) -0.2500
C4G C 0.02791(10) 0.42728(10) -0.25143(19)
C5G C 0.06254(9) 0.43746(9) -0.2500
C6G C 0.12351(14) 0.36629(15) -0.2199(2)
H2G H 0.1291 0.3538 -0.1994
C7G C 0.09727(15) 0.39217(14) -0.2190(2)
H3G H 0.0850 0.3973 -0.1984
Zr1G Zr 0.21336(4) 0.27621(8) -0.21336(4)
O3G O 0.17212(10) 0.31514(11) -0.22250(11)
O4G O 0.1521(2) 0.2490(2) -0.1972(3)
C8G C 0.16893(12) 0.33107(12) -0.2500
N1JA N 0.05021(13) 0.5000 -0.2494(2)
C1JA C 0.10816(9) 0.48281(12) -0.2475(2)
H1JA H 0.1279 0.4681 -0.2469
C4JA C 0.07272(10) 0.47209(10) -0.24857(19)
C6JA C 0.13371(15) 0.37649(14) -0.2801(2)
H2JA H 0.1462 0.3709 -0.3006
C7JA C 0.10783(14) 0.40273(15) -0.2810(2)
H3JA H 0.1027 0.4150 -0.3016
O3JA O 0.18486(11) 0.32788(10) -0.27750(11)
C1RB C -0.01719(12) 0.39184(9) -0.2525(2)
H1RB H -0.0319 0.3721 -0.2531
C2RB C -0.09037(10) 0.40963(10) -0.2500
C3RB C -0.14073(10) 0.35927(10) -0.2500
C4RB C -0.02791(10) 0.42728(10) -0.25143(19)
C5RB C -0.06254(9) 0.43746(9) -0.2500
C6RB C -0.12351(14) 0.36629(15) -0.2199(2)
H2RB H -0.1291 0.3538 -0.1994
C7RB C -0.09727(15) 0.39217(14) -0.2190(2)
H3RB H -0.0850 0.3973 -0.1984
O3RB O -0.17212(10) 0.31514(11) -0.22250(11)
C8RB C -0.16893(12) 0.33107(12) -0.2500
C1KC C 0.10816(9) 0.51719(12) -0.2475(2)
H1KC H 0.1279 0.5319 -0.2469
C2EB C 0.09037(10) 0.59037(10) -0.2500
C3EB C 0.14073(10) 0.64073(10) -0.2500
C4KC C 0.07272(10) 0.52791(10) -0.24857(19)
C5EB C 0.06254(9) 0.56254(9) -0.2500
C6KC C 0.13371(15) 0.62351(14) -0.2801(2)
H2KC H 0.1462 0.6291 -0.3006
C7KC C 0.10783(14) 0.59727(15) -0.2810(2)
H3KC H 0.1027 0.5850 -0.3016
O3KC O 0.18486(11) 0.67212(10) -0.27750(11)
C8EB C 0.16893(12) 0.66893(12) -0.2500
N1IA N -0.05021(13) 0.5000 -0.2494(2)
C1HC C -0.10816(9) 0.48281(12) -0.2475(2)
H1HC H -0.1279 0.4681 -0.2469
C4HC C -0.07272(10) 0.47209(10) -0.24857(19)
C6HC C -0.13371(15) 0.37649(14) -0.2801(2)
H2HC H -0.1462 0.3709 -0.3006
C7HC C -0.10783(14) 0.40273(15) -0.2810(2)
H3HC H -0.1027 0.4150 -0.3016
O3HC O -0.18486(11) 0.32788(10) -0.27750(11)
C1IA C -0.10816(9) 0.51719(12) -0.2475(2)
H1IA H -0.1279 0.5319 -0.2469
C2W C -0.09037(10) 0.59037(10) -0.2500
C3W C -0.14073(10) 0.64073(10) -0.2500
C4IA C -0.07272(10) 0.52791(10) -0.24857(19)
C5W C -0.06254(9) 0.56254(9) -0.2500
C6IA C -0.13371(15) 0.62351(14) -0.2801(2)
H2IA H -0.1462 0.6291 -0.3006
C7IA C -0.10783(14) 0.59727(15) -0.2810(2)
H3IA H -0.1027 0.5850 -0.3016
O3IA O -0.18486(11) 0.67212(10) -0.27750(11)
C8W C -0.16893(12) 0.66893(12) -0.2500
N1W N 0.0000 0.55021(13) -0.2506(2)
C1EB C 0.01719(12) 0.60816(9) -0.2525(2)
H1EB H 0.0319 0.6279 -0.2531
C4EB C 0.02791(10) 0.57272(10) -0.25143(19)
C6EB C 0.12351(14) 0.63371(15) -0.2199(2)
H2EB H 0.1291 0.6462 -0.1994
C7EB C 0.09727(15) 0.60783(14) -0.2190(2)
H3EB H 0.0850 0.6027 -0.1984
O3EB O 0.17212(10) 0.68486(11) -0.22250(11)
C1W C -0.01719(12) 0.60816(9) -0.2525(2)
H1W H -0.0319 0.6279 -0.2531
C4W C -0.02791(10) 0.57272(10) -0.25143(19)
C6W C -0.12351(14) 0.63371(15) -0.2199(2)
H2W H -0.1291 0.6462 -0.1994
C7W C -0.09727(15) 0.60783(14) -0.2190(2)
H3W H -0.0850 0.6027 -0.1984
O3W O -0.17212(10) 0.68486(11) -0.22250(11)
Co1I Co 0.0000 0.5000 0.2500
O1A O -0.21738(12) 0.21738(12) 0.21738(12)
O2I O -0.24068(14) 0.30321(17) 0.24068(14)
N1I N -0.0000 0.44979(13) 0.2506(2)
C1I C -0.01719(12) 0.39184(9) 0.2525(2)
H1I H -0.0319 0.3721 0.2531
C2I C -0.09037(10) 0.40963(10) 0.2500
C3I C -0.14073(10) 0.35927(10) 0.2500
C4I C -0.02791(10) 0.42728(10) 0.25143(19)
C5I C -0.06254(9) 0.43746(9) 0.2500
C6I C -0.12351(14) 0.36629(15) 0.2199(2)
H2I H -0.1291 0.3538 0.1994
C7I C -0.09727(15) 0.39217(14) 0.2190(2)
H3I H -0.0850 0.3973 0.1984
Zr1I Zr -0.21336(4) 0.27621(8) 0.21336(4)
O3I O -0.17212(10) 0.31514(11) 0.22250(11)
O4I O -0.1521(2) 0.2490(2) 0.1972(3)
C8I C -0.16893(12) 0.33107(12) 0.2500
N1OA N -0.05021(13) 0.5000 0.2494(2)
C1OA C -0.10816(9) 0.48281(12) 0.2475(2)
H1OA H -0.1279 0.4681 0.2469
C4OA C -0.07272(10) 0.47209(10) 0.24857(19)
C6OA C -0.13371(15) 0.37649(14) 0.2801(2)
H2OA H -0.1462 0.3709 0.3006
C7OA C -0.10783(14) 0.40273(15) 0.2810(2)
H3OA H -0.1027 0.4150 0.3016
O3OA O -0.18486(11) 0.32788(10) 0.27750(11)
C1SB C 0.01719(12) 0.39184(9) 0.2525(2)
H1SB H 0.0319 0.3721 0.2531
C2SB C 0.09037(10) 0.40963(10) 0.2500
C3SB C 0.14073(10) 0.35927(10) 0.2500
C4SB C 0.02791(10) 0.42728(10) 0.25143(19)
C5SB C 0.06254(9) 0.43746(9) 0.2500
C6SB C 0.12351(14) 0.36629(15) 0.2199(2)
H2SB H 0.1291 0.3538 0.1994
C7SB C 0.09727(15) 0.39217(14) 0.2190(2)
H3SB H 0.0850 0.3973 0.1984
O3SB O 0.17212(10) 0.31514(11) 0.22250(11)
C8SB C 0.16893(12) 0.33107(12) 0.2500
C1FC C -0.10816(9) 0.51719(12) 0.2475(2)
H1FC H -0.1279 0.5319 0.2469
C2CB C -0.09037(10) 0.59037(10) 0.2500
C3CB C -0.14073(10) 0.64073(10) 0.2500
C4FC C -0.07272(10) 0.52791(10) 0.24857(19)
C5CB C -0.06254(9) 0.56254(9) 0.2500
C6FC C -0.13371(15) 0.62351(14) 0.2801(2)
H2FC H -0.1462 0.6291 0.3006
C7FC C -0.10783(14) 0.59727(15) 0.2810(2)
H3FC H -0.1027 0.5850 0.3016
O3FC O -0.18486(11) 0.67212(10) 0.27750(11)
C8CB C -0.16893(12) 0.66893(12) 0.2500
N1LA N 0.05021(13) 0.5000 0.2494(2)
C1EC C 0.10816(9) 0.48281(12) 0.2475(2)
H1EC H 0.1279 0.4681 0.2469
C4EC C 0.07272(10) 0.47209(10) 0.24857(19)
C6EC C 0.13371(15) 0.37649(14) 0.2801(2)
H2EC H 0.1462 0.3709 0.3006
C7EC C 0.10783(14) 0.40273(15) 0.2810(2)
H3EC H 0.1027 0.4150 0.3016
O3EC O 0.18486(11) 0.32788(10) 0.27750(11)
C1LA C 0.10816(9) 0.51719(12) 0.2475(2)
H1LA H 0.1279 0.5319 0.2469
C2V C 0.09037(10) 0.59037(10) 0.2500
C3V C 0.14073(10) 0.64073(10) 0.2500
C4LA C 0.07272(10) 0.52791(10) 0.24857(19)
C5V C 0.06254(9) 0.56254(9) 0.2500
C6LA C 0.13371(15) 0.62351(14) 0.2801(2)
H2LA H 0.1462 0.6291 0.3006
C7LA C 0.10783(14) 0.59727(15) 0.2810(2)
H3LA H 0.1027 0.5850 0.3016
O3LA O 0.18486(11) 0.67212(10) 0.27750(11)
C8V C 0.16893(12) 0.66893(12) 0.2500
N1V N 0.0000 0.55021(13) 0.2506(2)
C1CB C -0.01719(12) 0.60816(9) 0.2525(2)
H1CB H -0.0319 0.6279 0.2531
C4CB C -0.02791(10) 0.57272(10) 0.25143(19)
C6CB C -0.12351(14) 0.63371(15) 0.2199(2)
H2CB H -0.1291 0.6462 0.1994
C7CB C -0.09727(15) 0.60783(14) 0.2190(2)
H3CB H -0.0850 0.6027 0.1984
O3CB O -0.17212(10) 0.68486(11) 0.22250(11)
C1V C 0.01719(12) 0.60816(9) 0.2525(2)
H1V H 0.0319 0.6279 0.2531
C4V C 0.02791(10) 0.57272(10) 0.25143(19)
C6V C 0.12351(14) 0.63371(15) 0.2199(2)
H2V H 0.1291 0.6462 0.1994
C7V C 0.09727(15) 0.60783(14) 0.2190(2)
H3V H 0.0850 0.6027 0.1984
O3V O 0.17212(10) 0.68486(11) 0.22250(11)
O2J O 0.24068(14) 0.24068(14) 0.30321(17)
Zr1J Zr 0.21336(4) 0.21336(4) 0.27621(8)
O4J O 0.1521(2) 0.1972(3) 0.2490(2)
O2K O 0.30321(17) 0.24068(14) 0.24068(14)
Zr1K Zr 0.27621(8) 0.21336(4) 0.21336(4)
O4K O 0.2490(2) 0.1521(2) 0.1972(3)
O2R O 0.30321(17) 0.24068(14) -0.24068(14)
Zr1R Zr 0.27621(8) 0.21336(4) -0.21336(4)
O4R O 0.2490(2) 0.1972(3) -0.1521(2)
O1C O 0.21738(12) 0.78262(12) 0.21738(12)
O2V O 0.24068(14) 0.69679(17) 0.24068(14)
Zr1V Zr 0.21336(4) 0.72379(8) 0.21336(4)
O4V O 0.1521(2) 0.7510(2) 0.1972(3)
O2W O -0.24068(14) 0.69679(17) -0.24068(14)
Zr1W Zr -0.21336(4) 0.72379(8) -0.21336(4)
O4W O -0.1521(2) 0.7510(2) -0.1972(3)
O2QA O 0.19679(17) 0.25932(14) 0.25932(14)
Zr1QA Zr 0.22379(8) 0.28664(4) 0.28664(4)
O4QA O 0.2510(2) 0.3028(3) 0.3479(2)
O2RA O 0.25932(14) 0.74068(14) -0.19679(17)
Zr1RA Zr 0.28664(4) 0.71336(4) -0.22379(8)
O4RA O 0.3028(3) 0.6521(2) -0.2510(2)
O2SA O 0.25932(14) 0.25932(14) 0.19679(17)
Zr1SA Zr 0.28664(4) 0.28664(4) 0.22379(8)
O4SA O 0.3028(3) 0.3479(2) 0.2510(2)
O4XA O 0.1972(3) 0.2490(2) -0.1521(2)
O4DB O 0.1972(3) 0.7510(2) 0.1521(2)
O4EB O 0.1521(2) 0.7510(2) -0.1972(3)
O4HB O 0.2490(2) 0.1521(2) -0.1972(3)
O4SB O 0.1521(2) 0.2490(2) 0.1972(3)
O4AB O -0.1972(3) 0.2490(2) 0.1521(2)
O4QB O 0.1972(3) 0.1521(2) 0.2490(2)
O4OB O 0.2490(2) 0.1972(3) 0.1521(2)
O4VA O -0.1972(3) 0.7510(2) -0.1521(2)
O4EC O 0.2510(2) 0.3479(2) 0.3028(3)
O4GC O 0.3479(2) 0.6972(3) -0.2510(2)
O4DC O 0.3479(2) 0.3028(3) 0.2510(2)
O1E O 0.21738(12) 0.78262(12) -0.21738(12)
O1S O -0.21738(12) 0.78262(12) -0.21738(12)
O1Y O 0.28262(12) 0.71738(12) -0.28262(12)
O1QA O 0.28262(12) 0.28262(12) 0.28262(12)
O2Q O 0.30321(17) 0.75932(14) -0.24068(14)
O2Y O 0.19679(17) 0.74068(14) -0.25932(14)
O2Z O 0.25932(14) 0.19679(17) -0.25932(14)
O2HA O -0.25932(14) 0.74068(14) -0.19679(17)
O2IA O -0.19679(17) 0.74068(14) -0.25932(14)
O2JA O 0.19679(17) 0.25932(14) -0.25932(14)
O2KA O -0.25932(14) 0.25932(14) 0.19679(17)
O2LA O 0.19679(17) 0.74068(14) 0.25932(14)
O2MA O 0.25932(14) 0.25932(14) -0.19679(17)
O2NA O 0.25932(14) 0.74068(14) 0.19679(17)
O2OA O -0.19679(17) 0.25932(14) 0.25932(14)
O2UA O 0.25932(14) 0.19679(17) 0.25932(14)
Zr1A Zr -0.27621(8) 0.21336(4) 0.21336(4)
Zr1B Zr -0.21336(4) 0.72379(8) 0.21336(4)
Zr1C Zr 0.27621(8) 0.78664(4) 0.21336(4)
Zr1D Zr 0.21336(4) 0.78664(4) 0.27621(8)
Zr1F Zr 0.21336(4) 0.21336(4) -0.27621(8)
Zr1H Zr -0.21336(4) 0.27621(8) -0.21336(4)
Zr1Q Zr 0.27621(8) 0.78664(4) -0.21336(4)
Zr1T Zr -0.21336(4) 0.21336(4) 0.27621(8)
Zr1Y Zr 0.22379(8) 0.71336(4) -0.28664(4)
Zr1Z Zr 0.28664(4) 0.22379(8) -0.28664(4)
Zr1AA Zr -0.22379(8) 0.28664(4) -0.28664(4)
Zr1HA Zr -0.28664(4) 0.71336(4) -0.22379(8)
Zr1IA Zr -0.22379(8) 0.71336(4) -0.28664(4)
Zr1JA Zr 0.22379(8) 0.28664(4) -0.28664(4)
Zr1KA Zr -0.28664(4) 0.28664(4) 0.22379(8)
Zr1LA Zr 0.22379(8) 0.71336(4) 0.28664(4)
Zr1MA Zr 0.28664(4) 0.28664(4) -0.22379(8)
Zr1NA Zr 0.28664(4) 0.71336(4) 0.22379(8)
Zr1OA Zr -0.22379(8) 0.28664(4) 0.28664(4)
Zr1PA Zr -0.22379(8) 0.71336(4) 0.28664(4)
Zr1UA Zr 0.28664(4) 0.22379(8) 0.28664(4)
O3J O 0.17212(10) 0.22250(11) 0.31514(11)
O3K O 0.31514(11) 0.17212(10) 0.22250(11)
O3R O 0.31514(11) 0.22250(11) -0.17212(10)
O3QA O 0.18486(11) 0.27750(11) 0.32788(10)
O3VA O -0.22250(11) 0.68486(11) -0.17212(10)
O3AB O -0.22250(11) 0.31514(11) 0.17212(10)
O3HB O 0.31514(11) 0.17212(10) -0.22250(11)
O3OB O 0.31514(11) 0.22250(11) 0.17212(10)
O3QB O 0.22250(11) 0.17212(10) 0.31514(11)
O3DC O 0.32788(10) 0.27750(11) 0.18486(11)
O3GC O 0.32788(10) 0.72250(11) -0.18486(11)
loop_
_geom_bond_atom_site_label_1
_geom_bond_atom_site_label_2
_geom_bond_site_symmetry_1
_geom_bond_site_symmetry_2
Co1 N1 1_555 1_555
O1 Zr1 1_555 1_555
O2 Zr1 1_555 1_555
N1 C4 1_555 1_555
C1 H1 1_555 1_555
C2 C5 1_555 1_555
C3 C6 1_555 1_555
C4 C1 1_555 1_555
C5 C4 1_555 1_555
C6 H2 1_555 1_555
C7 C2 1_555 1_555
H3 C7 1_555 1_555
Zr1 O3 1_555 1_555
O3 C8 1_555 1_555
O4 Zr1 1_555 1_555
C8 C3 1_555 1_555
N1SA Co1 1_555 1_555
C1SA H1SA 1_555 1_555
C4SA C5 1_555 1_555
C6SA C3 1_555 1_555
H2SA C6SA 1_555 1_555
C7SA C2 1_555 1_555
H3SA C7SA 1_555 1_555
O3SA C8 1_555 1_555
C1XA C1 1_555 1_555
H1XA C1XA 1_555 1_555
C2XA C5XA 1_555 1_555
C3XA C6XA 1_555 1_555
C4XA N1 1_555 1_555
C5XA C4XA 1_555 1_555
C6XA H2XA 1_555 1_555
C7XA C2XA 1_555 1_555
H3XA C7XA 1_555 1_555
O3XA C8XA 1_555 1_555
C8XA C3XA 1_555 1_555
C1XB C1SA 1_555 1_555
H1XB C1XB 1_555 1_555
C2DB C5DB 1_555 1_555
C3DB C6XB 1_555 1_555
C4XB N1SA 1_555 1_555
C5DB C4XB 1_555 1_555
C6XB H2XB 1_555 1_555
C7XB C2DB 1_555 1_555
H3XB C7XB 1_555 1_555
O3XB C8DB 1_555 1_555
C8DB C3DB 1_555 1_555
N1RA Co1 1_555 1_555
C1ZB H1ZB 1_555 1_555
C4ZB C5XA 1_555 1_555
C6ZB C3XA 1_555 1_555
H2ZB C6ZB 1_555 1_555
C7ZB C2XA 1_555 1_555
H3ZB C7ZB 1_555 1_555
O3ZB C8XA 1_555 1_555
C1RA C1ZB 1_555 1_555
H1RA C1RA 1_555 1_555
C2E C5E 1_555 1_555
C3E C6RA 1_555 1_555
C4RA N1RA 1_555 1_555
C5E C4RA 1_555 1_555
C6RA H2RA 1_555 1_555
C7RA C2E 1_555 1_555
H3RA C7RA 1_555 1_555
O3RA C8E 1_555 1_555
C8E C3E 1_555 1_555
N1E Co1 1_555 1_555
C1DB H1DB 1_555 1_555
C4DB C5DB 1_555 1_555
C6DB C3DB 1_555 1_555
H2DB C6DB 1_555 1_555
C7DB C2DB 1_555 1_555
H3DB C7DB 1_555 1_555
O3DB C8DB 1_555 1_555
C1E C1DB 1_555 1_555
H1E C1E 1_555 1_555
C4E C5E 1_555 1_555
C6E C3E 1_555 1_555
H2E C6E 1_555 1_555
C7E C2E 1_555 1_555
H3E C7E 1_555 1_555
O3E C8E 1_555 1_555
O2E Zr1E 1_555 1_555
Zr1E O3E 1_555 1_555
O4E Zr1E 1_555 1_555
Co1G N1G 1_555 1_555
O1F Zr1G 1_555 1_555
O2G Zr1G 1_555 1_555
N1G C4G 1_555 1_555
C1G H1G 1_555 1_555
C2G C5G 1_555 1_555
C3G C6G 1_555 1_555
C4G C1G 1_555 1_555
C5G C4G 1_555 1_555
C6G H2G 1_555 1_555
C7G C2G 1_555 1_555
H3G C7G 1_555 1_555
Zr1G O3XA 1_555 1_555
O3G Zr1G 1_555 1_555
O4G Zr1G 1_555 1_555
C8G C3G 1_555 1_555
N1JA Co1G 1_555 1_555
C1JA H1JA 1_555 1_555
C4JA C5G 1_555 1_555
C6JA C3G 1_555 1_555
H2JA C6JA 1_555 1_555
C7JA C2G 1_555 1_555
H3JA C7JA 1_555 1_555
O3JA C8G 1_555 1_555
C1RB C1G 1_555 1_555
H1RB C1RB 1_555 1_555
C2RB C5RB 1_555 1_555
C3RB C6RB 1_555 1_555
C4RB N1G 1_555 1_555
C5RB C4RB 1_555 1_555
C6RB H2RB 1_555 1_555
C7RB C2RB 1_555 1_555
H3RB C7RB 1_555 1_555
O3RB C8RB 1_555 1_555
C8RB C3RB 1_555 1_555
C1KC C1JA 1_555 1_555
H1KC C1KC 1_555 1_555
C2EB C5EB 1_555 1_555
C3EB C6KC 1_555 1_555
C4KC N1JA 1_555 1_555
C5EB C4KC 1_555 1_555
C6KC H2KC 1_555 1_555
C7KC C2EB 1_555 1_555
H3KC C7KC 1_555 1_555
O3KC C8EB 1_555 1_555
C8EB C3EB 1_555 1_555
N1IA Co1G 1_555 1_555
C1HC H1HC 1_555 1_555
C4HC C5RB 1_555 1_555
C6HC C3RB 1_555 1_555
H2HC C6HC 1_555 1_555
C7HC C2RB 1_555 1_555
H3HC C7HC 1_555 1_555
O3HC C8RB 1_555 1_555
C1IA C1HC 1_555 1_555
H1IA C1IA 1_555 1_555
C2W C5W 1_555 1_555
C3W C6IA 1_555 1_555
C4IA N1IA 1_555 1_555
C5W C4IA 1_555 1_555
C6IA H2IA 1_555 1_555
C7IA C2W 1_555 1_555
H3IA C7IA 1_555 1_555
O3IA C8W 1_555 1_555
C8W C3W 1_555 1_555
N1W Co1G 1_555 1_555
C1EB H1EB 1_555 1_555
C4EB C5EB 1_555 1_555
C6EB C3EB 1_555 1_555
H2EB C6EB 1_555 1_555
C7EB C2EB 1_555 1_555
H3EB C7EB 1_555 1_555
O3EB Zr1E 1_555 1_555
C1W C1EB 1_555 1_555
H1W C1W 1_555 1_555
C4W C5W 1_555 1_555
C6W C3W 1_555 1_555
H2W C6W 1_555 1_555
C7W C2W 1_555 1_555
H3W C7W 1_555 1_555
O3W C8W 1_555 1_555
Co1I N1I 1_555 1_555
O1A Zr1I 1_555 1_555
O2I Zr1I 1_555 1_555
N1I C4I 1_555 1_555
C1I H1I 1_555 1_555
C2I C5I 1_555 1_555
C3I C6I 1_555 1_555
C4I C1I 1_555 1_555
C5I C4I 1_555 1_555
C6I H2I 1_555 1_555
C7I C2I 1_555 1_555
H3I C7I 1_555 1_555
Zr1I O3I 1_555 1_555
O3I C8I 1_555 1_555
O4I Zr1I 1_555 1_555
C8I C3I 1_555 1_555
N1OA Co1I 1_555 1_555
C1OA H1OA 1_555 1_555
C4OA C5I 1_555 1_555
C6OA C3I 1_555 1_555
H2OA C6OA 1_555 1_555
C7OA C2I 1_555 1_555
H3OA C7OA 1_555 1_555
O3OA C8I 1_555 1_555
C1SB C1I 1_555 1_555
H1SB C1SB 1_555 1_555
C2SB C5SB 1_555 1_555
C3SB C6SB 1_555 1_555
C4SB N1I 1_555 1_555
C5SB C4SB 1_555 1_555
C6SB H2SB 1_555 1_555
C7SB C2SB 1_555 1_555
H3SB C7SB 1_555 1_555
O3SB Zr1 1_555 1_555
C8SB C3SB 1_555 1_555
C1FC C1OA 1_555 1_555
H1FC C1FC 1_555 1_555
C2CB C5CB 1_555 1_555
C3CB C6FC 1_555 1_555
C4FC N1OA 1_555 1_555
C5CB C4FC 1_555 1_555
C6FC H2FC 1_555 1_555
C7FC C2CB 1_555 1_555
H3FC C7FC 1_555 1_555
O3FC C8CB 1_555 1_555
C8CB C3CB 1_555 1_555
N1LA Co1I 1_555 1_555
C1EC H1EC 1_555 1_555
C4EC C5SB 1_555 1_555
C6EC C3SB 1_555 1_555
H2EC C6EC 1_555 1_555
C7EC C2SB 1_555 1_555
H3EC C7EC 1_555 1_555
O3EC C8SB 1_555 1_555
C1LA C1EC 1_555 1_555
H1LA C1LA 1_555 1_555
C2V C5V 1_555 1_555
C3V C6LA 1_555 1_555
C4LA N1LA 1_555 1_555
C5V C4LA 1_555 1_555
C6LA H2LA 1_555 1_555
C7LA C2V 1_555 1_555
H3LA C7LA 1_555 1_555
O3LA C8V 1_555 1_555
C8V C3V 1_555 1_555
N1V Co1I 1_555 1_555
C1CB H1CB 1_555 1_555
C4CB C5CB 1_555 1_555
C6CB C3CB 1_555 1_555
H2CB C6CB 1_555 1_555
C7CB C2CB 1_555 1_555
H3CB C7CB 1_555 1_555
O3CB C8CB 1_555 1_555
C1V C1CB 1_555 1_555
H1V C1V 1_555 1_555
C4V C5V 1_555 1_555
C6V C3V 1_555 1_555
H2V C6V 1_555 1_555
C7V C2V 1_555 1_555
H3V C7V 1_555 1_555
O3V C8V 1_555 1_555
O2J Zr1J 1_555 1_555
Zr1J O1 1_555 1_555
O4J Zr1J 1_555 1_555
O2K Zr1K 1_555 1_555
Zr1K O1 1_555 1_555
O4K Zr1K 1_555 1_555
O2R Zr1R 1_555 1_555
Zr1R O1F 1_555 1_555
O4R Zr1R 1_555 1_555
O1C Zr1V 1_555 1_555
O2V Zr1V 1_555 1_555
Zr1V O3DB 1_555 1_555
O4V Zr1V 1_555 1_555
O2W Zr1W 1_555 1_555
Zr1W O3W 1_555 1_555
O4W Zr1W 1_555 1_555
O2QA Zr1 1_555 1_555
Zr1QA O2 1_555 1_555
O4QA Zr1QA 1_555 1_555
O2RA Zr1E 1_555 1_555
Zr1RA O3RA 1_555 1_555
O4RA Zr1RA 1_555 1_555
O2SA Zr1 1_555 1_555
Zr1SA O2 1_555 1_555
O4SA Zr1SA 1_555 1_555
O4XA Zr1G 1_555 1_555
O4DB Zr1V 1_555 1_555
O4EB Zr1E 1_555 1_555
O4HB Zr1R 1_555 1_555
O4SB Zr1 1_555 1_555
O4AB Zr1I 1_555 1_555
O4QB Zr1J 1_555 1_555
O4OB Zr1K 1_555 1_555
O4VA Zr1W 1_555 1_555
O4EC Zr1QA 1_555 1_555
O4GC Zr1RA 1_555 1_555
O4DC Zr1SA 1_555 1_555
O1E Zr1E 1_555 1_555
O1S Zr1W 1_555 1_555
O1Y Zr1RA 1_555 1_555
O1QA Zr1QA 1_555 1_555
O2Q Zr1RA 1_555 1_555
O2Y Zr1E 1_555 1_555
O2Z Zr1R 1_555 1_555
O2HA Zr1W 1_555 1_555
O2IA Zr1W 1_555 1_555
O2JA Zr1G 1_555 1_555
O2KA Zr1I 1_555 1_555
O2LA Zr1V 1_555 1_555
O2MA Zr1G 1_555 1_555
O2NA Zr1V 1_555 1_555
O2OA Zr1I 1_555 1_555
O2UA Zr1J 1_555 1_555
Zr1A O1A 1_555 1_555
Zr1B O3CB 1_555 1_555
Zr1C O1C 1_555 1_555
Zr1D O1C 1_555 1_555
Zr1F O1F 1_555 1_555
Zr1H O3RB 1_555 1_555
Zr1Q O2RA 1_555 1_555
Zr1T O1A 1_555 1_555
Zr1Y O2E 1_555 1_555
Zr1Z O2R 1_555 1_555
Zr1AA O3HC 1_555 1_555
Zr1HA O2W 1_555 1_555
Zr1IA O3IA 1_555 1_555
Zr1JA O2G 1_555 1_555
Zr1KA O2I 1_555 1_555
Zr1LA O3LA 1_555 1_555
Zr1MA O3ZB 1_555 1_555
Zr1NA O3XB 1_555 1_555
Zr1OA O2I 1_555 1_555
Zr1PA O3FC 1_555 1_555
Zr1UA O2J 1_555 1_555
O3J Zr1J 1_555 1_555
O3K Zr1K 1_555 1_555
O3R Zr1R 1_555 1_555
O3QA Zr1QA 1_555 1_555
O3VA Zr1W 1_555 1_555
O3AB Zr1I 1_555 1_555
O3HB Zr1R 1_555 1_555
O3OB Zr1K 1_555 1_555
O3QB Zr1J 1_555 1_555
O3DC Zr1SA 1_555 1_555
O3GC Zr1RA 1_555 1_555
C6 C7 1_555 1_555
N1SA C4SA 1_555 1_555
C1SA C4SA 1_555 1_555
C6SA C7SA 1_555 1_555
O3SA Zr1SA 1_555 1_555
C1XA C4XA 1_555 1_555
C6XA C7XA 1_555 1_555
C1XB C4XB 1_555 1_555
C6XB C7XB 1_555 1_555
N1RA C4ZB 1_555 1_555
C1ZB C4ZB 1_555 1_555
C6ZB C7ZB 1_555 1_555
C1RA C4RA 1_555 1_555
C6RA C7RA 1_555 1_555
N1E C4DB 1_555 1_555
N1E C4E 1_555 1_555
C1DB C4DB 1_555 1_555
C6DB C7DB 1_555 1_555
C1E C4E 1_555 1_555
C6E C7E 1_555 1_555
O2E Zr1RA 1_555 1_555
O2G Zr1MA 1_555 1_555
C6G C7G 1_555 1_555
O3G C8G 1_555 1_555
N1JA C4JA 1_555 1_555
C1JA C4JA 1_555 1_555
C6JA C7JA 1_555 1_555
O3JA Zr1JA 1_555 1_555
C1RB C4RB 1_555 1_555
C6RB C7RB 1_555 1_555
C1KC C4KC 1_555 1_555
C6KC C7KC 1_555 1_555
O3KC Zr1Y 1_555 1_555
C8EB O3EB 1_555 1_555
N1IA C4HC 1_555 1_555
C1HC C4HC 1_555 1_555
C6HC C7HC 1_555 1_555
C1IA C4IA 1_555 1_555
C6IA C7IA 1_555 1_555
N1W C4EB 1_555 1_555
N1W C4W 1_555 1_555
C1EB C4EB 1_555 1_555
C6EB C7EB 1_555 1_555
C1W C4W 1_555 1_555
C6W C7W 1_555 1_555
C6I C7I 1_555 1_555
N1OA C4OA 1_555 1_555
C1OA C4OA 1_555 1_555
C6OA C7OA 1_555 1_555
O3OA Zr1OA 1_555 1_555
C1SB C4SB 1_555 1_555
C6SB C7SB 1_555 1_555
O3SB C8SB 1_555 1_555
C1FC C4FC 1_555 1_555
C6FC C7FC 1_555 1_555
N1LA C4EC 1_555 1_555
C1EC C4EC 1_555 1_555
C6EC C7EC 1_555 1_555
O3EC Zr1QA 1_555 1_555
C1LA C4LA 1_555 1_555
C6LA C7LA 1_555 1_555
N1V C4CB 1_555 1_555
N1V C4V 1_555 1_555
C1CB C4CB 1_555 1_555
C6CB C7CB 1_555 1_555
C1V C4V 1_555 1_555
C6V C7V 1_555 1_555
O3V Zr1V 1_555 1_555
O2J Zr1QA 1_555 1_555
Zr1J O2QA 1_555 1_555
O2K Zr1SA 1_555 1_555
O2K Zr1UA 1_555 1_555
Zr1K O2SA 1_555 1_555
Zr1K O2UA 1_555 1_555
O2R Zr1MA 1_555 1_555
Zr1R O2MA 1_555 1_555
O2V Zr1LA 1_555 1_555
O2V Zr1NA 1_555 1_555
O2W Zr1IA 1_555 1_555
O2QA Zr1QA 1_555 1_555
O2RA Zr1RA 1_555 1_555
O2SA Zr1SA 1_555 1_555
Zr1SA O1QA 1_555 1_555
O1E Zr1Q 1_555 1_555
O1Y Zr1Y 1_555 1_555
O1QA Zr1UA 1_555 1_555
O2Q Zr1Q 1_555 1_555
O2Y Zr1Y 1_555 1_555
O2Z Zr1F 1_555 1_555
O2Z Zr1Z 1_555 1_555
O2HA Zr1HA 1_555 1_555
O2IA Zr1IA 1_555 1_555
O2JA Zr1F 1_555 1_555
O2JA Zr1JA 1_555 1_555
O2KA Zr1A 1_555 1_555
O2KA Zr1KA 1_555 1_555
O2LA Zr1D 1_555 1_555
O2LA Zr1LA 1_555 1_555
O2MA Zr1MA 1_555 1_555
O2NA Zr1C 1_555 1_555
O2NA Zr1NA 1_555 1_555
O2OA Zr1T 1_555 1_555
O2OA Zr1OA 1_555 1_555
O2UA Zr1UA 1_555 1_555

#END
