
#######################################################################
#
#                 Cambridge Crystallographic Data Centre
#                                CCDC 
#
#######################################################################
#
# If this CIF has been generated from an entry in the Cambridge 
# Structural Database, then it will include bibliographic, chemical, 
# crystal, experimental, refinement or atomic coordinate data resulting 
# from the CCDC's data processing and validation procedures.
#
#######################################################################

data_HORHIG
_chemical_formula_moiety         '(C66 H70 B1 Cd2 F4 N24 O2 3+)n'
_symmetry_cell_setting           rhombohedral
_symmetry_space_group_name_H-M   'R -3'
_symmetry_Int_Tables_number      148
_space_group_name_Hall           '-R 3'
loop_
_symmetry_equiv_pos_site_id
_symmetry_equiv_pos_as_xyz
1 x,y,z
2 -y,x-y,z
3 -x+y,-x,z
4 2/3+x,1/3+y,1/3+z
5 2/3-y,1/3+x-y,1/3+z
6 2/3-x+y,1/3-x,1/3+z
7 1/3+x,2/3+y,2/3+z
8 1/3-y,2/3+x-y,2/3+z
9 1/3-x+y,2/3-x,2/3+z
10 -x,-y,-z
11 y,-x+y,-z
12 x-y,x,-z
13 1/3-x,2/3-y,2/3-z
14 1/3+y,2/3-x+y,2/3-z
15 1/3+x-y,2/3+x,2/3-z
16 2/3-x,1/3-y,1/3-z
17 2/3+y,1/3-x+y,1/3-z
18 2/3+x-y,1/3+x,1/3-z
_cell_length_a                   21.218(5)
_cell_length_b                   21.218(5)
_cell_length_c                   15.259(4)
_cell_angle_alpha                90
_cell_angle_beta                 90
_cell_angle_gamma                120
_cell_volume                     5949.3
loop_
_atom_site_label
_atom_site_type_symbol
_atom_site_fract_x
_atom_site_fract_y
_atom_site_fract_z
Cd1 Cd 0.0000 0.0000 0.0000
Cd2 Cd 0.0000 0.0000 0.5000
N1 N 0.07582(14) 0.20983(13) 0.14198(15)
N2 N 0.02033(13) 0.09891(13) 0.08844(15)
N3 N 0.17681(13) 0.16347(13) 0.32731(16)
N4 N 0.10297(14) 0.07179(13) 0.41154(18)
C1 C 0.14991(16) 0.30920(15) 0.24603(18)
C2 C 0.18282(16) 0.28130(15) 0.29985(18)
C3 C 0.13391(16) 0.36065(15) 0.27997(19)
H1 H 0.1111 0.3795 0.2433
C4 C 0.13088(19) 0.28742(16) 0.15133(19)
H2 H 0.1121 0.3174 0.1247
H3 H 0.1754 0.2973 0.1192
C5 C 0.07749(16) 0.16410(15) 0.08234(18)
H4 H 0.1155 0.1774 0.0408
C6 C -0.02024(17) 0.10329(18) 0.1558(2)
H5 H -0.0652 0.0641 0.1759
C7 C 0.01308(18) 0.17151(18) 0.1894(2)
H6 H -0.0036 0.1891 0.2361
C8 C 0.20445(18) 0.22710(16) 0.26873(19)
H7 H 0.1851 0.2106 0.2089
H8 H 0.2582 0.2513 0.2658
C9 C 0.10896(17) 0.12415(16) 0.3600(2)
H9 H 0.0703 0.1331 0.3473
C10 C 0.16980(18) 0.07724(19) 0.4106(2)
H10 H 0.1822 0.0462 0.4418
C11 C 0.21581(18) 0.13326(18) 0.3591(2)
H11 H 0.2654 0.1485 0.3473
Cd1F Cd 0.3333 0.6667 0.6667
Cd1F_2 Cd -0.6667 -0.3333 0.6667
Cd1F_3 Cd 0.3333 -0.3333 0.6667
Cd2F Cd 0.3333 0.6667 0.1667
Cd2F_2 Cd -0.6667 -0.3333 0.1667
Cd2F_3 Cd 0.3333 -0.3333 0.1667
N1L N 0.25751(14) 0.45684(13) 0.52469(15)
N1A N -0.20983(13) -0.13401(19) 0.14198(15)
N1M N -0.45684(13) -0.19932(19) 0.52469(15)
N1B N 0.13401(19) -0.07582(14) 0.14198(15)
N1N N 0.19932(19) -0.25751(14) 0.52469(15)
N2L N 0.31300(13) 0.56776(13) 0.57823(15)
N2A N -0.09891(13) -0.07858(18) 0.08844(15)
N2M N -0.56776(13) -0.25475(18) 0.57823(15)
N2B N 0.07858(18) -0.02033(13) 0.08844(15)
N2N N 0.25475(18) -0.31300(13) 0.57823(15)
N2I N -0.02033(13) -0.09891(13) -0.08844(15)
N2J N 0.09891(13) 0.07858(18) -0.08844(15)
N2K N -0.07858(18) 0.02033(13) -0.08844(15)
N3L N 0.15652(13) 0.50320(13) 0.33936(16)
N3A N -0.16347(13) 0.01334(18) 0.32731(16)
N3M N -0.50320(13) -0.34667(18) 0.33936(16)
N3B N -0.01334(18) -0.17681(13) 0.32731(16)
N3N N 0.34667(18) -0.15652(13) 0.33936(16)
N4L N 0.23036(14) 0.59488(13) 0.25513(18)
N4A N -0.07179(13) 0.03118(19) 0.41154(18)
N4M N -0.59488(13) -0.36451(19) 0.25513(18)
N4B N -0.03118(19) -0.10297(14) 0.41154(18)
N4N N 0.36451(19) -0.23036(14) 0.25513(18)
N4I N -0.10297(14) -0.07179(13) 0.58846(18)
N4J N 0.07179(13) -0.03118(19) 0.58846(18)
N4K N 0.03118(19) 0.10297(14) 0.58846(18)
C1L C 0.18342(16) 0.35747(15) 0.42064(18)
C1A C -0.30920(15) -0.15929(22) 0.24603(18)
C1M C -0.35747(15) -0.17404(22) 0.42064(18)
C1B C 0.15929(22) -0.14991(16) 0.24603(18)
C1N C 0.17404(22) -0.18342(16) 0.42064(18)
C2L C 0.15051(16) 0.38537(15) 0.36682(18)
C2A C -0.28130(15) -0.09848(22) 0.29985(18)
C2M C -0.38537(15) -0.23485(22) 0.36682(18)
C2B C 0.09848(22) -0.18282(16) 0.29985(18)
C2N C 0.23485(22) -0.15051(16) 0.36682(18)
C3L C 0.19942(16) 0.30602(15) 0.38670(19)
C3A C -0.36065(15) -0.22674(22) 0.27997(19)
C3M C -0.30602(15) -0.10659(22) 0.38670(19)
C3B C 0.22674(22) -0.13391(16) 0.27997(19)
C3N C 0.10659(22) -0.19942(16) 0.38670(19)
H1L H 0.2222 0.2872 0.4234
H1A H -0.3795 -0.2684 0.2433
H1M H -0.2872 -0.0649 0.4234
H1B H 0.2684 -0.1111 0.2433
H1N H 0.0649 -0.2222 0.4234
C4L C 0.20245(19) 0.37925(16) 0.51534(19)
C4A C -0.28742(16) -0.15654(25) 0.15133(19)
C4M C -0.37925(16) -0.17679(25) 0.51534(19)
C4B C 0.15654(25) -0.13088(19) 0.15133(19)
C4N C 0.17679(25) -0.20245(19) 0.51534(19)
H2L H 0.2212 0.3493 0.5420
H2A H -0.3174 -0.2053 0.1247
H2M H -0.3493 -0.1280 0.5420
H2B H 0.2053 -0.1121 0.1247
H2N H 0.1280 -0.2212 0.5420
H3L H 0.1579 0.3694 0.5475
H3A H -0.2973 -0.1219 0.1192
H3M H -0.3694 -0.2114 0.5475
H3B H 0.1219 -0.1754 0.1192
H3N H 0.2114 -0.1579 0.5475
C5L C 0.25584(16) 0.50257(15) 0.58433(18)
C5A C -0.16410(15) -0.08661(22) 0.08234(18)
C5M C -0.50257(15) -0.24672(22) 0.58433(18)
C5B C 0.08661(22) -0.07749(16) 0.08234(18)
C5N C 0.24672(22) -0.25584(16) 0.58433(18)
H4L H 0.2178 0.4893 0.6259
H4A H -0.1774 -0.0619 0.0408
H4M H -0.4893 -0.2714 0.6259
H4B H 0.0619 -0.1155 0.0408
H4N H 0.2714 -0.2178 0.6259
C6L C 0.35357(17) 0.56338(18) 0.5109(2)
C6A C -0.10329(18) -0.12353(25) 0.1558(2)
C6M C -0.56338(18) -0.20980(25) 0.5109(2)
C6B C 0.12353(25) 0.02024(17) 0.1558(2)
C6N C 0.20980(25) -0.35357(17) 0.5109(2)
H5L H 0.3985 0.6026 0.4908
H5A H -0.0641 -0.1293 0.1759
H5M H -0.6026 -0.2040 0.4908
H5B H 0.1293 0.0652 0.1759
H5N H 0.2040 -0.3985 0.4908
C7L C 0.32025(18) 0.49516(18) 0.4773(2)
C7A C -0.17151(18) -0.15843(25) 0.1894(2)
C7M C -0.49516(18) -0.17490(25) 0.4773(2)
C7B C 0.15843(25) -0.01308(18) 0.1894(2)
C7N C 0.17490(25) -0.32025(18) 0.4773(2)
H6L H 0.3369 0.4776 0.4306
H6A H -0.1891 -0.1927 0.2361
H6M H -0.4776 -0.1406 0.4306
H6B H 0.1927 0.0036 0.2361
H6N H 0.1406 -0.3369 0.4306
C8L C 0.12888(18) 0.43957(16) 0.39794(19)
C8A C -0.22710(16) -0.02265(24) 0.26873(19)
C8M C -0.43957(16) -0.31068(24) 0.39794(19)
C8B C 0.02265(24) -0.20445(18) 0.26873(19)
C8N C 0.31068(24) -0.12888(18) 0.39794(19)
H7L H 0.1482 0.4561 0.4578
H7A H -0.2106 -0.0255 0.2089
H7M H -0.4561 -0.3078 0.4578
H7B H 0.0255 -0.1851 0.2089
H7N H 0.3078 -0.1482 0.4578
H8L H 0.0751 0.4154 0.4009
H8A H -0.2513 0.0069 0.2658
H8M H -0.4154 -0.3402 0.4009
H8B H -0.0069 -0.2582 0.2658
H8N H 0.3402 -0.0751 0.4009
C9L C 0.22437(17) 0.54252(16) 0.3067(2)
C9A C -0.12415(16) -0.01519(23) 0.3600(2)
C9M C -0.54252(16) -0.31814(23) 0.3067(2)
C9B C 0.01519(23) -0.10896(17) 0.3600(2)
C9N C 0.31814(23) -0.22437(17) 0.3067(2)
H9L H 0.2630 0.5336 0.3194
H9A H -0.1331 -0.0628 0.3473
H9M H -0.5336 -0.2705 0.3194
H9B H 0.0628 -0.0703 0.3473
H9N H 0.2705 -0.2630 0.3194
C10L C 0.16353(18) 0.58943(19) 0.2561(2)
C10A C -0.07724(19) 0.09256(26) 0.4106(2)
C10M C -0.58943(19) -0.42589(26) 0.2561(2)
C10B C -0.09256(26) -0.16980(18) 0.4106(2)
C10N C 0.42589(26) -0.16353(18) 0.2561(2)
H10L H 0.1511 0.6205 0.2249
H10A H -0.0462 0.1360 0.4418
H10M H -0.6205 -0.4693 0.2249
H10B H -0.1360 -0.1822 0.4418
H10N H 0.4693 -0.1511 0.2249
C11L C 0.11752(18) 0.53341(18) 0.3076(2)
C11A C -0.13326(18) 0.08255(25) 0.3591(2)
C11M C -0.53341(18) -0.41588(25) 0.3076(2)
C11B C -0.08255(25) -0.21581(18) 0.3591(2)
C11N C 0.41588(25) -0.11752(18) 0.3076(2)
H11L H 0.0679 0.5182 0.3194
H11A H -0.1485 0.1169 0.3473
H11M H -0.5182 -0.4502 0.3194
H11B H -0.1169 -0.2654 0.3473
H11N H 0.4502 -0.0679 0.3194
F1 F 0.3912(3) 0.3081(3) 0.3389(5)
F2 F 0.4702(2) 0.4076(4) 0.4055(3)
F3 F 0.3583(2) 0.3440(4) 0.4556(3)
F4 F 0.3772(2) 0.4040(2) 0.3335(3)
B1 B 0.3970(3) 0.3664(4) 0.3861(5)
O1 O 0.3788(7) 0.2530(8) 0.2750(9)
O2 O 0.5137(8) 0.4919(9) 0.4553(10)
loop_
_geom_bond_atom_site_label_1
_geom_bond_atom_site_label_2
_geom_bond_site_symmetry_1
_geom_bond_site_symmetry_2
Cd1 N2 1_555 1_555
Cd2 N4 1_555 1_555
F1 B1 1_555 1_555
F2 B1 1_555 1_555
F3 B1 1_555 1_555
F4 B1 1_555 1_555
N1 C4 1_555 1_555
N2 C5 1_555 1_555
N3 C8 1_555 1_555
N4 C9 1_555 1_555
C1 C2 1_555 1_555
C2 C8 1_555 1_555
C3 C1 1_555 1_555
H1 C3 1_555 1_555
C4 C1 1_555 1_555
H2 C4 1_555 1_555
H3 C4 1_555 1_555
C5 N1 1_555 1_555
H4 C5 1_555 1_555
C6 N2 1_555 1_555
H5 C6 1_555 1_555
C7 N1 1_555 1_555
H6 C7 1_555 1_555
C8 H7 1_555 1_555
H8 C8 1_555 1_555
C9 N3 1_555 1_555
H9 C9 1_555 1_555
C10 N4 1_555 1_555
H10 C10 1_555 1_555
C11 N3 1_555 1_555
H11 C11 1_555 1_555
Cd1F N2L 1_555 1_555
Cd1F_2 N2M 1_555 1_555
Cd1F_3 N2N 1_555 1_555
Cd2F N4L 1_555 1_555
Cd2F_2 N4M 1_555 1_555
Cd2F_3 N4N 1_555 1_555
N1L C4L 1_555 1_555
N1A C4A 1_555 1_555
N1M C4M 1_555 1_555
N1B C4B 1_555 1_555
N1N C4N 1_555 1_555
N2L C5L 1_555 1_555
N2A Cd1 1_555 1_555
N2M C5M 1_555 1_555
N2B Cd1 1_555 1_555
N2N C5N 1_555 1_555
N2I Cd1 1_555 1_555
N2J Cd1 1_555 1_555
N2K Cd1 1_555 1_555
N3L C8L 1_555 1_555
N3A C8A 1_555 1_555
N3M C8M 1_555 1_555
N3B C8B 1_555 1_555
N3N C8N 1_555 1_555
N4L C9L 1_555 1_555
N4A Cd2 1_555 1_555
N4M C9M 1_555 1_555
N4B Cd2 1_555 1_555
N4N C9N 1_555 1_555
N4I Cd2 1_555 1_555
N4J Cd2 1_555 1_555
N4K Cd2 1_555 1_555
C1L C2L 1_555 1_555
C1A C2A 1_555 1_555
C1M C2M 1_555 1_555
C1B C2B 1_555 1_555
C1N C2N 1_555 1_555
C2L C3 1_555 1_555
C2A C3M 1_555 1_555
C2M C3A 1_555 1_555
C2B C3N 1_555 1_555
C2N C3B 1_555 1_555
C3L C2 1_555 1_555
C3A C1A 1_555 1_555
C3M C1M 1_555 1_555
C3B C1B 1_555 1_555
C3N C1N 1_555 1_555
H1L C3L 1_555 1_555
H1A C3A 1_555 1_555
H1M C3M 1_555 1_555
H1B C3B 1_555 1_555
H1N C3N 1_555 1_555
C4L C1L 1_555 1_555
C4A C1A 1_555 1_555
C4M C1M 1_555 1_555
C4B C1B 1_555 1_555
C4N C1N 1_555 1_555
H2L C4L 1_555 1_555
H2A C4A 1_555 1_555
H2M C4M 1_555 1_555
H2B C4B 1_555 1_555
H2N C4N 1_555 1_555
H3L C4L 1_555 1_555
H3A C4A 1_555 1_555
H3M C4M 1_555 1_555
H3B C4B 1_555 1_555
H3N C4N 1_555 1_555
C5L N1L 1_555 1_555
C5A N1A 1_555 1_555
C5M N1M 1_555 1_555
C5B N1B 1_555 1_555
C5N N1N 1_555 1_555
H4L C5L 1_555 1_555
H4A C5A 1_555 1_555
H4M C5M 1_555 1_555
H4B C5B 1_555 1_555
H4N C5N 1_555 1_555
C6L N2L 1_555 1_555
C6A N2A 1_555 1_555
C6M N2M 1_555 1_555
C6B N2B 1_555 1_555
C6N N2N 1_555 1_555
H5L C6L 1_555 1_555
H5A C6A 1_555 1_555
H5M C6M 1_555 1_555
H5B C6B 1_555 1_555
H5N C6N 1_555 1_555
C7L N1L 1_555 1_555
C7A N1A 1_555 1_555
C7M N1M 1_555 1_555
C7B N1B 1_555 1_555
C7N N1N 1_555 1_555
H6L C7L 1_555 1_555
H6A C7A 1_555 1_555
H6M C7M 1_555 1_555
H6B C7B 1_555 1_555
H6N C7N 1_555 1_555
C8L C2L 1_555 1_555
C8A C2A 1_555 1_555
C8M C2M 1_555 1_555
C8B C2B 1_555 1_555
C8N C2N 1_555 1_555
H7L C8L 1_555 1_555
H7A C8A 1_555 1_555
H7M C8M 1_555 1_555
H7B C8B 1_555 1_555
H7N C8N 1_555 1_555
H8L C8L 1_555 1_555
H8A C8A 1_555 1_555
H8M C8M 1_555 1_555
H8B C8B 1_555 1_555
H8N C8N 1_555 1_555
C9L N3L 1_555 1_555
C9A N3A 1_555 1_555
C9M N3M 1_555 1_555
C9B N3B 1_555 1_555
C9N N3N 1_555 1_555
H9L C9L 1_555 1_555
H9A C9A 1_555 1_555
H9M C9M 1_555 1_555
H9B C9B 1_555 1_555
H9N C9N 1_555 1_555
C10L N4L 1_555 1_555
C10A N4A 1_555 1_555
C10M N4M 1_555 1_555
C10B N4B 1_555 1_555
C10N N4N 1_555 1_555
H10L C10L 1_555 1_555
H10A C10A 1_555 1_555
H10M C10M 1_555 1_555
H10B C10B 1_555 1_555
H10N C10N 1_555 1_555
C11L N3L 1_555 1_555
C11A N3A 1_555 1_555
C11M N3M 1_555 1_555
C11B N3B 1_555 1_555
C11N N3N 1_555 1_555
H11L C11L 1_555 1_555
H11A C11A 1_555 1_555
H11M C11M 1_555 1_555
H11B C11B 1_555 1_555
H11N C11N 1_555 1_555
C6 C7 1_555 1_555
C10 C11 1_555 1_555
N2A C5A 1_555 1_555
N2B C5B 1_555 1_555
N4A C9A 1_555 1_555
N4B C9B 1_555 1_555
C1L C3L 1_555 1_555
C6L C7L 1_555 1_555
C6A C7A 1_555 1_555
C6M C7M 1_555 1_555
C6B C7B 1_555 1_555
C6N C7N 1_555 1_555
C10L C11L 1_555 1_555
C10A C11A 1_555 1_555
C10M C11M 1_555 1_555
C10B C11B 1_555 1_555
C10N C11N 1_555 1_555

#END
