
#######################################################################
#
#                 Cambridge Crystallographic Data Centre
#                                CCDC 
#
#######################################################################
#
# If this CIF has been generated from an entry in the Cambridge 
# Structural Database, then it will include bibliographic, chemical, 
# crystal, experimental, refinement or atomic coordinate data resulting 
# from the CCDC's data processing and validation procedures.
#
#######################################################################

data_KUFVAK
_chemical_formula_moiety         '(C25 H31 Mn2 N3 O13)n'
_symmetry_cell_setting           monoclinic
_symmetry_space_group_name_H-M   'P 21/c'
_symmetry_Int_Tables_number      14
_space_group_name_Hall           '-P 2ybc'
loop_
_symmetry_equiv_pos_site_id
_symmetry_equiv_pos_as_xyz
1 x,y,z
2 -x,1/2+y,1/2-z
3 -x,-y,-z
4 x,1/2-y,1/2+z
_cell_length_a                   14.460(3)
_cell_length_b                   13.063(3)
_cell_length_c                   22.054(4)
_cell_angle_alpha                90
_cell_angle_beta                 125.160(10)
_cell_angle_gamma                90
_cell_volume                     3405.74
loop_
_atom_site_label
_atom_site_type_symbol
_atom_site_fract_x
_atom_site_fract_y
_atom_site_fract_z
_atom_site_U_iso_or_equiv
_atom_site_thermal_displace_type
Mn1 Mn 0.22733(5) -0.44228(5) -0.27293(3) 0.0228 Uani
Mn2 Mn 0.29507(5) -0.27085(5) -0.13121(3) 0.0267 Uani
O1 O 0.2368(3) -0.4109(3) -0.11455(18) 0.0436 Uani
O2 O 0.4446(3) -0.2956(3) -0.0165(2) 0.0614 Uani
H1 H 0.4247 -0.3054 0.0143 0.0920 Uiso
H2 H 0.4906 -0.2421 -0.0001 0.0920 Uiso
O3 O 0.1552(3) -0.4979(3) -0.22070(18) 0.0412 Uani
O4 O -0.1467(3) -0.7406(3) -0.25856(18) 0.0447 Uani
O5 O -0.0971(3) -0.8400(3) -0.16240(17) 0.0378 Uani
O6 O 0.2030(3) -0.9431(3) 0.14976(19) 0.0431 Uani
O7 O 0.3569(3) -0.9182(3) 0.26108(19) 0.0505 Uani
O8 O 0.6441(3) -0.6565(3) 0.28180(17) 0.0447 Uani
O9 O 0.6287(2) -0.6379(2) 0.17728(16) 0.0279 Uani
O10 O 0.2105(4) -0.1813(4) -0.0937(2) 0.0641 Uani
O11 O 0.3735(4) -0.1366(3) -0.1390(3) 0.0661 Uani
N1 N 0.1356(5) -0.1410(5) -0.0319(3) 0.0734 Uani
N2 N 0.4851(7) -0.0101(5) -0.1314(6) 0.0972 Uani
C1 C 0.1834(4) -0.4859(4) -0.1557(2) 0.0307 Uani
C2 C 0.1513(4) -0.5710(3) -0.1252(2) 0.0294 Uani
C3 C 0.2241(4) -0.5976(4) -0.0510(2) 0.0336 Uani
H3 H 0.2883 -0.5582 -0.0197 0.0400 Uiso
C4 C 0.2027(4) -0.6825(4) -0.0221(2) 0.0314 Uani
C5 C 0.1017(4) -0.7355(3) -0.0701(2) 0.0311 Uani
H4 H 0.0848 -0.7918 -0.0523 0.0370 Uiso
C6 C 0.0256(3) -0.7063(3) -0.1440(2) 0.0274 Uani
C7 C -0.0818(4) -0.7666(3) -0.1926(2) 0.0294 Uani
C8 C 0.0519(4) -0.6261(3) -0.1721(2) 0.0300 Uani
H5 H 0.0036 -0.6089 -0.2220 0.0360 Uiso
C9 C 0.2843(4) -0.7162(3) 0.0554(2) 0.0304 Uani
C10 C 0.3962(4) -0.6816(3) 0.0972(2) 0.0304 Uani
H6 H 0.4203 -0.6388 0.0752 0.0370 Uiso
C11 C 0.4722(3) -0.7099(3) 0.1708(2) 0.0285 Uani
C12 C 0.5884(3) -0.6675(3) 0.2132(2) 0.0286 Uani
C13 C 0.4385(4) -0.7752(3) 0.2042(2) 0.0307 Uani
H7 H 0.4884 -0.7921 0.2541 0.0370 Uiso
C14 C 0.3292(4) -0.8157(3) 0.1623(2) 0.0304 Uani
C15 C 0.2951(4) -0.8962(4) 0.1939(3) 0.0351 Uani
C16 C 0.2538(4) -0.7844(4) 0.0896(3) 0.0343 Uani
H8 H 0.1803 -0.8098 0.0626 0.0410 Uiso
C17 C 0.4425(12) -0.0832(7) -0.1166(10) 0.1579 Uani
H9 H 0.4908 -0.0954 -0.0659 0.1900 Uiso
C18 C 0.5836(15) 0.0450(13) -0.0818(12) 0.2311 Uani
H10 H 0.6411 0.0266 -0.0888 0.3440 Uiso
H11 H 0.6092 0.0292 -0.0319 0.3440 Uiso
H12 H 0.5683 0.1169 -0.0906 0.3440 Uiso
C19 C 0.4286(12) 0.0233(12) -0.2052(8) 0.1628 Uani
H13 H 0.4678 -0.0013 -0.2256 0.2440 Uiso
H14 H 0.4267 0.0967 -0.2066 0.2440 Uiso
H15 H 0.3527 -0.0028 -0.2338 0.2440 Uiso
C20 C 0.1944(6) -0.1989(6) -0.0485(4) 0.0735 Uani
H16 H 0.2255 -0.2590 -0.0215 0.0890 Uiso
C21 C 0.1328(15) -0.1653(12) 0.0314(8) 0.1892 Uani
H17 H 0.0641 -0.2011 0.0147 0.2870 Uiso
H18 H 0.1361 -0.1031 0.0558 0.2870 Uiso
H19 H 0.1965 -0.2076 0.0655 0.2870 Uiso
C22 C 0.0731(11) -0.0541(9) -0.0769(7) 0.1448 Uani
H20 H 0.0950 0.0056 -0.0461 0.2170 Uiso
H21 H -0.0064 -0.0661 -0.1015 0.2170 Uiso
H22 H 0.0889 -0.0436 -0.1132 0.2170 Uiso
Mn1A Mn -0.22733(5) -0.94228(5) -0.22707(3) 0.0228 Uani
Mn1B Mn 0.77267(5) -0.55772(5) 0.27293(3) 0.0228 Uani
Mn1C Mn 0.22733(5) -1.05772(5) 0.22707(3) 0.0228 Uani
Mn2A Mn -0.29507(5) -0.77085(5) -0.36879(3) 0.0267 Uani
Mn2B Mn 0.70493(5) -0.72915(5) 0.13121(3) 0.0267 Uani
O4A O 0.1467(3) -0.2406(3) -0.24144(18) 0.0447 Uani
O5A O 0.0971(3) -0.3400(3) -0.33760(17) 0.0378 Uani
O6C O 0.2030(3) -0.5569(3) -0.35024(19) 0.0431 Uani
O7C O 0.3569(3) -0.5818(3) -0.23892(19) 0.0505 Uani
O8B O 0.3559(3) -0.3435(3) -0.28180(17) 0.0447 Uani
O9B O 0.3713(2) -0.3621(2) -0.17728(16) 0.0279 Uani
O12 O 0.5298(13) -0.5767(11) -0.0862(5) 0.4491 Uani
H23 H 0.4998 -0.5283 -0.0774 0.6720 Uiso
H24 H 0.4784 -0.6103 -0.1238 0.6720 Uiso
O13 O -0.3666(5) -0.3191(5) -0.4233(3) 0.0998 Uani
N3 N -0.2051(5) -0.3284(5) -0.3070(3) 0.0723 Uani
C23 C -0.1295(9) -0.2757(8) -0.2346(5) 0.1086 Uani
H25 H -0.1458 -0.2037 -0.2407 0.1630 Uiso
H26 H -0.0521 -0.2863 -0.2170 0.1630 Uiso
H27 H -0.1416 -0.3030 -0.1993 0.1630 Uiso
C24 C -0.1692(9) -0.4261(8) -0.3171(7) 0.1218 Uani
H28 H -0.2201 -0.4474 -0.3678 0.1830 Uiso
H29 H -0.1695 -0.4760 -0.2852 0.1830 Uiso
H30 H -0.0942 -0.4201 -0.3049 0.1830 Uiso
C25 C -0.2985(7) -0.2825(6) -0.3606(5) 0.0812 Uani
H31 H -0.3144 -0.2182 -0.3506 0.0970 Uiso
loop_
_atom_site_aniso_label
_atom_site_aniso_U_11
_atom_site_aniso_U_22
_atom_site_aniso_U_33
_atom_site_aniso_U_23
_atom_site_aniso_U_13
_atom_site_aniso_U_12
Mn1 0.0198(3) 0.0237(4) 0.0206(3) -0.0019(2) 0.0092(3) 0.0017(2)
Mn2 0.0263(4) 0.0278(4) 0.0225(4) -0.0034(2) 0.0121(3) -0.0045(3)
O1 0.051(2) 0.042(2) 0.0320(18) 0.0004(15) 0.0205(17) -0.0196(17)
O2 0.050(2) 0.078(3) 0.032(2) 0.0025(19) 0.0095(18) -0.020(2)
O3 0.046(2) 0.047(2) 0.0330(18) 0.0004(15) 0.0241(16) -0.0144(16)
O4 0.0333(19) 0.051(2) 0.0279(18) 0.0001(15) 0.0049(16) -0.0149(16)
O5 0.0326(17) 0.0428(19) 0.0311(17) -0.0049(14) 0.0143(15) -0.0177(14)
O6 0.0363(19) 0.043(2) 0.0394(19) 0.0132(15) 0.0157(16) -0.0123(15)
O7 0.050(2) 0.055(2) 0.0318(19) 0.0141(16) 0.0150(17) -0.0119(18)
O8 0.0272(17) 0.072(3) 0.0259(17) -0.0033(16) 0.0101(15) -0.0139(16)
O9 0.0226(15) 0.0296(16) 0.0308(16) -0.0018(12) 0.0150(13) -0.0041(12)
O10 0.081(3) 0.073(3) 0.062(3) -0.008(2) 0.055(3) 0.006(2)
O11 0.061(3) 0.034(2) 0.111(4) -0.008(2) 0.054(3) -0.019(2)
N1 0.072(4) 0.098(5) 0.073(4) -0.017(3) 0.055(3) 0.002(3)
N2 0.133(6) 0.048(4) 0.176(8) -0.010(4) 0.127(7) -0.024(4)
C1 0.023(2) 0.036(3) 0.027(2) 0.0058(19) 0.0109(19) -0.0029(18)
C2 0.028(2) 0.031(2) 0.025(2) 0.0025(18) 0.0129(19) -0.0038(18)
C3 0.025(2) 0.037(3) 0.029(2) 0.0019(19) 0.0098(19) -0.0113(19)
C4 0.024(2) 0.036(2) 0.026(2) 0.0047(19) 0.0097(19) -0.0082(18)
C5 0.029(2) 0.032(2) 0.027(2) 0.0031(18) 0.013(2) -0.0091(18)
C6 0.019(2) 0.033(2) 0.024(2) -0.0014(17) 0.0087(18) -0.0067(17)
C7 0.027(2) 0.030(2) 0.028(2) -0.0039(18) 0.014(2) -0.0074(18)
C8 0.026(2) 0.034(2) 0.022(2) 0.0031(18) 0.0091(18) -0.0039(18)
C9 0.023(2) 0.034(2) 0.025(2) 0.0055(18) 0.0085(19) -0.0059(18)
C10 0.025(2) 0.033(2) 0.028(2) 0.0040(18) 0.0123(19) -0.0069(18)
C11 0.021(2) 0.033(2) 0.027(2) 0.0002(18) 0.0112(19) -0.0025(17)
C12 0.022(2) 0.031(2) 0.027(2) 0.0011(18) 0.0108(19) 0.0011(17)
C13 0.028(2) 0.035(2) 0.021(2) 0.0024(18) 0.0094(19) -0.0008(18)
C14 0.028(2) 0.032(2) 0.030(2) 0.0064(19) 0.016(2) -0.0034(18)
C15 0.033(2) 0.033(2) 0.036(3) 0.010(2) 0.018(2) 0.001(2)
C16 0.021(2) 0.039(3) 0.032(2) 0.004(2) 0.009(2) -0.0084(18)
C17 0.237(14) 0.056(5) 0.344(19) -0.030(8) 0.262(16) -0.022(7)
C18 0.196(16) 0.178(15) 0.35(3) -0.142(17) 0.175(19) -0.103(13)
C19 0.163(13) 0.190(14) 0.185(14) 0.050(12) 0.129(12) 0.054(11)
C20 0.086(5) 0.078(5) 0.068(4) -0.004(4) 0.051(4) 0.010(4)
C21 0.32(2) 0.184(14) 0.192(14) 0.023(11) 0.222(16) 0.052(14)
C22 0.143(10) 0.143(11) 0.167(11) 0.037(8) 0.100(10) 0.082(9)
Mn1A 0.0198 0.0237 0.0206 0.0019 0.0092 -0.0017
Mn1B 0.0198 0.0237 0.0206 -0.0019 0.0092 0.0017
Mn1C 0.0198 0.0237 0.0206 0.0019 0.0092 -0.0017
Mn2A 0.0263 0.0278 0.0225 0.0034 0.0121 0.0045
Mn2B 0.0263 0.0278 0.0225 -0.0034 0.0121 -0.0045
O4A 0.0333 0.051 0.0279 -0.0001 0.0049 0.0149
O5A 0.0326 0.0428 0.0311 0.0049 0.0143 0.0177
O6C 0.0363 0.043 0.0394 -0.0132 0.0157 0.0123
O7C 0.05 0.055 0.0318 -0.0141 0.015 0.0119
O8B 0.0272 0.072 0.0259 -0.0033 0.0101 -0.0139
O9B 0.0226 0.0296 0.0308 -0.0018 0.015 -0.0041
O12 0.45(2) 0.343(18) 0.098(6) 0.122(9) -0.107(10) -0.298(17)
O13 0.067(3) 0.113(5) 0.076(4) 0.016(3) 0.016(3) 0.022(3)
N3 0.062(3) 0.072(4) 0.074(4) 0.021(3) 0.034(3) 0.017(3)
C23 0.116(8) 0.124(8) 0.065(5) 0.003(5) 0.040(5) -0.008(6)
C24 0.094(7) 0.088(7) 0.164(11) 0.010(6) 0.063(7) 0.023(5)
C25 0.070(5) 0.074(5) 0.086(6) 0.024(4) 0.037(5) 0.021(4)
loop_
_geom_bond_atom_site_label_1
_geom_bond_atom_site_label_2
_geom_bond_site_symmetry_1
_geom_bond_site_symmetry_2
Mn1 O3 1_555 1_555
Mn2 O1 1_555 1_555
O1 C1 1_555 1_555
O2 Mn2 1_555 1_555
H1 O2 1_555 1_555
H2 O2 1_555 1_555
O3 C1 1_555 1_555
O4 C7 1_555 1_555
O5 C7 1_555 1_555
O6 C15 1_555 1_555
O7 C15 1_555 1_555
O8 C12 1_555 1_555
O9 C12 1_555 1_555
O10 Mn2 1_555 1_555
O11 Mn2 1_555 1_555
N1 C20 1_555 1_555
N2 C17 1_555 1_555
C1 C2 1_555 1_555
C2 C3 1_555 1_555
C3 H3 1_555 1_555
C4 C3 1_555 1_555
C5 C4 1_555 1_555
H4 C5 1_555 1_555
C6 C5 1_555 1_555
C7 C6 1_555 1_555
C8 C2 1_555 1_555
H5 C8 1_555 1_555
C9 C4 1_555 1_555
C10 C9 1_555 1_555
H6 C10 1_555 1_555
C11 C10 1_555 1_555
C12 C11 1_555 1_555
C13 C11 1_555 1_555
H7 C13 1_555 1_555
C14 C13 1_555 1_555
C15 C14 1_555 1_555
C16 C9 1_555 1_555
H8 C16 1_555 1_555
C17 O11 1_555 1_555
H9 C17 1_555 1_555
C18 N2 1_555 1_555
H10 C18 1_555 1_555
H11 C18 1_555 1_555
H12 C18 1_555 1_555
C19 N2 1_555 1_555
H13 C19 1_555 1_555
H14 C19 1_555 1_555
H15 C19 1_555 1_555
C20 O10 1_555 1_555
H16 C20 1_555 1_555
C21 N1 1_555 1_555
H17 C21 1_555 1_555
H18 C21 1_555 1_555
H19 C21 1_555 1_555
C22 N1 1_555 1_555
H20 C22 1_555 1_555
H21 C22 1_555 1_555
H22 C22 1_555 1_555
O12 H23 1_555 1_555
H24 O12 1_555 1_555
O13 C25 1_555 1_555
N3 C23 1_555 1_555
C23 H25 1_555 1_555
H26 C23 1_555 1_555
H27 C23 1_555 1_555
C24 N3 1_555 1_555
H28 C24 1_555 1_555
H29 C24 1_555 1_555
H30 C24 1_555 1_555
C25 N3 1_555 1_555
H31 C25 1_555 1_555
Mn1A O5 1_555 1_555
Mn1B O8 1_555 1_555
Mn1C O6 1_555 1_555
Mn2A O4 1_555 1_555
Mn2B O9 1_555 1_555
O4A Mn2 1_555 1_555
O5A Mn1 1_555 1_555
O6C Mn1 1_555 1_555
O7C Mn1 1_555 1_555
O8B Mn1 1_555 1_555
O9B Mn1 1_555 1_555
Mn2 O9B 1_555 1_555
O7 Mn1C 1_555 1_555
O9 Mn1B 1_555 1_555
C6 C8 1_555 1_555
C14 C16 1_555 1_555

#END
