
#######################################################################
#
#                 Cambridge Crystallographic Data Centre
#                                CCDC 
#
#######################################################################
#
# If this CIF has been generated from an entry in the Cambridge 
# Structural Database, then it will include bibliographic, chemical, 
# crystal, experimental, refinement or atomic coordinate data resulting 
# from the CCDC's data processing and validation procedures.
#
#######################################################################

data_FIPPAW
_chemical_formula_moiety         '(C21 H33 Cl2 N3 O32 Pr3 1+)n'
_symmetry_cell_setting           cubic
_symmetry_space_group_name_H-M   'P a -3'
_symmetry_Int_Tables_number      205
_space_group_name_Hall           '-P 2ac 2ab 3'
loop_
_symmetry_equiv_pos_site_id
_symmetry_equiv_pos_as_xyz
1 x,y,z
2 z,x,y
3 y,z,x
4 1/2-x,-y,1/2+z
5 -x,1/2+y,1/2-z
6 1/2+x,1/2-y,-z
7 1/2+z,1/2-x,-y
8 1/2-z,-x,1/2+y
9 -z,1/2+x,1/2-y
10 -y,1/2+z,1/2-x
11 1/2+y,1/2-z,-x
12 1/2-y,-z,1/2+x
13 -x,-y,-z
14 -z,-x,-y
15 -y,-z,-x
16 1/2+x,y,1/2-z
17 x,1/2-y,1/2+z
18 1/2-x,1/2+y,z
19 1/2-z,1/2+x,y
20 1/2+z,x,1/2-y
21 z,1/2-x,1/2+y
22 y,1/2-z,1/2+x
23 1/2-y,1/2+z,x
24 1/2+y,z,1/2-x
_cell_length_a                   20.506(4)
_cell_length_b                   20.506(4)
_cell_length_c                   20.506(4)
_cell_angle_alpha                90
_cell_angle_beta                 90
_cell_angle_gamma                90
_cell_volume                     8622.69
loop_
_atom_site_label
_atom_site_type_symbol
_atom_site_fract_x
_atom_site_fract_y
_atom_site_fract_z
Pr1 Pr 0.479686(9) 0.242280(9) 0.143704(10)
O1 O 0.37557(14) 0.21085(13) 0.08469(13)
O2 O 0.33226(14) 0.29631(13) 0.03334(13)
O3 O 0.07756(15) 0.21768(13) -0.08039(14)
O4 O 0.14401(13) 0.30218(13) -0.06451(13)
N1 N 0.23092(14) 0.23005(15) -0.00483(15)
C1 C 0.33321(18) 0.23666(18) 0.04997(19)
C2 C 0.27793(18) 0.19580(18) 0.02509(19)
C3 C 0.2745(2) 0.1285(2) 0.0315(2)
H1 H 0.3079 0.1055 0.0517
C4 C 0.2206(3) 0.0965(2) 0.0075(2)
H2 H 0.2169 0.0515 0.0117
C5 C 0.1718(2) 0.1321(2) -0.0229(2)
H3 H 0.1352 0.1113 -0.0397
C6 C 0.17840(19) 0.19890(19) -0.02770(19)
C7 C 0.12895(19) 0.24219(18) -0.06022(19)
O5 O 0.38433(16) 0.2952(2) 0.20077(18)
O6 O 0.44891(15) 0.33644(16) 0.07405(18)
O7 O 0.49791(18) 0.1688(2) 0.04629(19)
O8 O 0.57508(14) 0.16926(16) 0.17116(16)
H4 H 0.473(2) 0.362(3) 0.046(3)
H5 H 0.605(3) 0.178(5) 0.139(2)
H6 H 0.4056(10) 0.338(3) 0.061(3)
H7 H 0.4627(16) 0.148(3) 0.026(3)
H8 H 0.5356(14) 0.148(3) 0.032(3)
H9 H 0.3428(14) 0.279(3) 0.195(3)
H10 H 0.386(3) 0.318(3) 0.240(2)
H11 H 0.594(3) 0.181(4) 0.2107(17)
Pr1S Pr 0.643704(10) 0.479686(9) 0.257720(9)
Pr1E Pr 0.979686(9) 0.257720(9) -0.143704(10)
Pr1U Pr 0.242280(9) 0.356296(10) -0.020314(9)
Pr1E_2 Pr -0.020314(9) 0.257720(9) -0.143704(10)
Pr1R Pr 0.356296(10) -0.020314(9) 0.242280(9)
Pr1W Pr 0.742280(9) 0.143704(10) 0.020314(9)
O1S O 0.58469(13) 0.37557(14) 0.28915(13)
O1E O 0.87557(14) 0.28915(13) -0.08469(13)
O2S O 0.53334(13) 0.33226(14) 0.20369(13)
O2E O 0.83226(14) 0.20369(13) -0.03334(13)
O2I O 0.70369(13) 0.53334(13) 0.16774(14)
O2T O 1.03334(13) 0.16774(14) -0.20369(13)
O3S O 0.41961(14) 0.07756(15) 0.28232(13)
O3E O 0.57756(15) 0.28232(13) 0.08039(14)
O3R O 0.58039(14) 0.57756(15) 0.21768(13)
O3_2 O 1.07756(15) 0.21768(13) -0.08039(14)
O4S O 0.43549(13) 0.14401(13) 0.19782(13)
O4E O 0.64401(13) 0.19782(13) 0.06451(13)
O4I O 0.69782(13) 0.43549(13) 0.35599(13)
O4T O 0.93549(13) 0.35599(13) -0.19782(13)
N1S N 0.49517(15) 0.23092(14) 0.26995(15)
N1E N 0.73092(14) 0.26995(15) 0.00483(15)
N1I N 0.76995(15) 0.49517(15) 0.26908(14)
N1T N 0.99517(15) 0.26908(14) -0.26995(15)
C1S C 0.54997(19) 0.33321(18) 0.26334(18)
C1E C 0.83321(18) 0.26334(18) -0.04997(19)
C2S C 0.52509(19) 0.27793(18) 0.30420(18)
C2E C 0.77793(18) 0.30420(18) -0.02509(19)
C3S C 0.5315(2) 0.2745(2) 0.3715(2)
C3E C 0.7745(2) 0.3715(2) -0.0315(2)
H1S H 0.5517 0.3079 0.3945
H1E H 0.8079 0.3945 -0.0517
C4S C 0.5075(2) 0.2206(3) 0.4035(2)
C4E C 0.7206(3) 0.4035(2) -0.0075(2)
H2S H 0.5117 0.2169 0.4485
H2E H 0.7169 0.4485 -0.0117
C5S C 0.4771(2) 0.1718(2) 0.3679(2)
C5E C 0.6718(2) 0.3679(2) 0.0229(2)
H3S H 0.4603 0.1352 0.3887
H3E H 0.6352 0.3887 0.0397
C6S C 0.47230(19) 0.17840(19) 0.30110(19)
C6E C 0.67840(19) 0.30110(19) 0.02770(19)
C7S C 0.43978(19) 0.12895(19) 0.25781(18)
C7E C 0.62895(19) 0.25781(18) 0.06022(19)
O5S O 0.70077(18) 0.38433(16) 0.2048(2)
O5E O 0.88433(16) 0.2048(2) -0.20077(18)
O6S O 0.57405(18) 0.44891(15) 0.16356(16)
O6E O 0.94891(15) 0.16356(16) -0.07405(18)
O7S O 0.54629(19) 0.49791(18) 0.3312(2)
O7E O 0.99791(18) 0.3312(2) -0.04629(19)
O8S O 0.67116(16) 0.57508(14) 0.33074(16)
O8E O 1.07508(14) 0.33074(16) -0.17116(16)
H4S H 0.546(3) 0.473(2) 0.138(3)
H4E H 0.973(2) 0.138(3) -0.046(3)
H5S H 0.639(2) 0.605(3) 0.322(5)
H5E H 1.105(3) 0.322(5) -0.139(2)
H6S H 0.561(3) 0.4056(10) 0.162(3)
H6E H 0.9056(10) 0.162(3) -0.061(3)
H7S H 0.526(3) 0.4627(16) 0.352(3)
H7E H 0.9627(16) 0.352(3) -0.026(3)
H8S H 0.532(3) 0.5356(14) 0.352(3)
H8E H 1.0356(14) 0.352(3) -0.032(3)
H9S H 0.695(3) 0.3428(14) 0.221(3)
H9E H 0.8428(14) 0.221(3) -0.195(3)
H10S H 0.740(2) 0.386(3) 0.182(3)
H10E H 0.886(3) 0.182(3) -0.240(2)
H11S H 0.7107(17) 0.594(3) 0.319(4)
H11E H 1.094(3) 0.319(4) -0.2107(17)
Cl2 Cl 0.37212(6) 0.37212(6) 0.37212(6)
O10 O 0.3326(3) 0.3326(3) 0.3326(3)
O11 O 0.4276(2) 0.3917(2) 0.3365(3)
O11A O 0.3365(3) 0.4276(2) 0.3917(2)
O11B O 0.3917(2) 0.3365(3) 0.4276(2)
Cl3 Cl 0.21519(7) 0.21519(7) 0.21519(7)
O12 O 0.1767(4) 0.1767(4) 0.1767(4)
O13 O 0.2452(2) 0.2629(3) 0.1766(3)
O13A O 0.1766(3) 0.2452(2) 0.2629(3)
O13B O 0.2629(3) 0.1766(3) 0.2452(2)
loop_
_geom_bond_atom_site_label_1
_geom_bond_atom_site_label_2
_geom_bond_site_symmetry_1
_geom_bond_site_symmetry_2
Pr1 O1 1_555 1_555
O1 C1 1_555 1_555
O2 C1 1_555 1_555
O3 C7 1_555 1_555
O4 C7 1_555 1_555
N1 C2 1_555 1_555
C1 C2 1_555 1_555
C2 C3 1_555 1_555
C3 H1 1_555 1_555
C4 C3 1_555 1_555
H2 C4 1_555 1_555
C5 C4 1_555 1_555
H3 C5 1_555 1_555
C6 N1 1_555 1_555
C7 C6 1_555 1_555
O5 Pr1 1_555 1_555
O6 Pr1 1_555 1_555
O7 Pr1 1_555 1_555
O8 Pr1 1_555 1_555
Cl2 O10 1_555 1_555
O11 Cl2 1_555 1_555
Cl3 O12 1_555 1_555
O13 Cl3 1_555 1_555
H4 O6 1_555 1_555
H5 O8 1_555 1_555
H6 O6 1_555 1_555
H7 O7 1_555 1_555
H8 O7 1_555 1_555
H9 O5 1_555 1_555
H10 O5 1_555 1_555
H11 O8 1_555 1_555
Pr1S O1S 1_555 1_555
Pr1E O1E 1_555 1_555
Pr1U O2 1_555 1_555
Pr1E_2 O3 1_555 1_555
Pr1R O3S 1_555 1_555
Pr1W O2E 1_555 1_555
O1S C1S 1_555 1_555
O1E C1E 1_555 1_555
O2S Pr1 1_555 1_555
O2E C1E 1_555 1_555
O2I Pr1S 1_555 1_555
O2T Pr1E 1_555 1_555
O3S C7S 1_555 1_555
O3E Pr1 1_555 1_555
O3R Pr1S 1_555 1_555
O3_2 Pr1E 1_555 1_555
O4S Pr1 1_555 1_555
O4E Pr1W 1_555 1_555
O4I Pr1S 1_555 1_555
O4T Pr1E 1_555 1_555
N1S Pr1 1_555 1_555
N1E Pr1W 1_555 1_555
N1I Pr1S 1_555 1_555
N1T Pr1E 1_555 1_555
C1S O2S 1_555 1_555
C1E C2E 1_555 1_555
C2S N1S 1_555 1_555
C2E N1E 1_555 1_555
C3S C2S 1_555 1_555
C3E C2E 1_555 1_555
H1S C3S 1_555 1_555
H1E C3E 1_555 1_555
C4S C3S 1_555 1_555
C4E C3E 1_555 1_555
H2S C4S 1_555 1_555
H2E C4E 1_555 1_555
C5S C4S 1_555 1_555
C5E C4E 1_555 1_555
H3S C5S 1_555 1_555
H3E C5E 1_555 1_555
C6S N1S 1_555 1_555
C6E N1E 1_555 1_555
C7S O4S 1_555 1_555
C7E O3E 1_555 1_555
O5S Pr1S 1_555 1_555
O5E Pr1E 1_555 1_555
O6S Pr1S 1_555 1_555
O6E Pr1E 1_555 1_555
O7S Pr1S 1_555 1_555
O7E Pr1E 1_555 1_555
O8S Pr1S 1_555 1_555
O8E Pr1E 1_555 1_555
O11A Cl2 1_555 1_555
O11B Cl2 1_555 1_555
O13A Cl3 1_555 1_555
O13B Cl3 1_555 1_555
H4S O6S 1_555 1_555
H4E O6E 1_555 1_555
H5S O8S 1_555 1_555
H5E O8E 1_555 1_555
H6S O6S 1_555 1_555
H6E O6E 1_555 1_555
H7S O7S 1_555 1_555
H7E O7E 1_555 1_555
H8S O7S 1_555 1_555
H8E O7E 1_555 1_555
H9S O5S 1_555 1_555
H9E O5E 1_555 1_555
H10S O5S 1_555 1_555
H10E O5E 1_555 1_555
H11S O8S 1_555 1_555
H11E O8E 1_555 1_555
O4 Pr1U 1_555 1_555
N1 Pr1U 1_555 1_555
C5 C6 1_555 1_555
O4E C7E 1_555 1_555
C1S C2S 1_555 1_555
C5S C6S 1_555 1_555
C5E C6E 1_555 1_555
C6S C7S 1_555 1_555
C6E C7E 1_555 1_555

#END
