
#######################################################################
#
#                 Cambridge Crystallographic Data Centre
#                                CCDC 
#
#######################################################################
#
# If this CIF has been generated from an entry in the Cambridge 
# Structural Database, then it will include bibliographic, chemical, 
# crystal, experimental, refinement or atomic coordinate data resulting 
# from the CCDC's data processing and validation procedures.
#
#######################################################################

data_ERUNIQ
_chemical_formula_moiety         '(C50 H52 Co8 N9 O30 1+)n'
_symmetry_cell_setting           tetragonal
_symmetry_space_group_name_H-M   'P -4 21 c'
_symmetry_Int_Tables_number      114
_space_group_name_Hall           'P -4 2n'
loop_
_symmetry_equiv_pos_site_id
_symmetry_equiv_pos_as_xyz
1 x,y,z
2 -x,-y,z
3 y,-x,-z
4 -y,x,-z
5 1/2-x,1/2+y,1/2-z
6 1/2+x,1/2-y,1/2-z
7 1/2-y,1/2-x,1/2+z
8 1/2+y,1/2+x,1/2+z
_cell_length_a                   13.8147(6)
_cell_length_b                   13.8147(6)
_cell_length_c                   19.4911(16)
_cell_angle_alpha                90
_cell_angle_beta                 90
_cell_angle_gamma                90
_cell_volume                     3719.8
loop_
_atom_site_label
_atom_site_type_symbol
_atom_site_fract_x
_atom_site_fract_y
_atom_site_fract_z
Co1 Co 0.17966(4) 0.78445(4) 1.09570(3)
N1 N 0.2752(3) 0.7635(3) 1.18289(19)
O1 O 0.10049(19) 0.81969(18) 1.00813(13)
O2 O 0.3072(2) 0.7943(2) 1.03914(16)
O3 O 0.1754(2) 0.9440(2) 1.10118(15)
N2 N 0.1791(3) 0.6320(2) 1.07313(19)
O4 O 0.0611(2) 0.7700(2) 1.16038(14)
C1 C 0.2505(4) 0.7138(5) 1.2368(3)
C2 C 0.3675(4) 0.7975(5) 1.1824(3)
Co2 Co 0.15017(4) 0.95687(4) 0.98836(3)
H1 H 0.1135 0.7815 0.9752
C3 C 0.3364(3) 0.8507(3) 0.9924(2)
H2 H 0.2373 0.9730 1.1163
H3 H 0.1209 0.9690 1.1291
C4 C 0.2236(5) 0.5969(4) 1.0181(3)
C5 C 0.1310(5) 0.5671(4) 1.1088(3)
H4 H 0.1850 0.6937 1.2405
C6 C 0.3131(4) 0.6884(5) 1.2889(3)
C7 C 0.4351(4) 0.7764(5) 1.2323(3)
H5 H 0.3867 0.8381 1.1455
O5 O -0.0000 1.0000 1.0000
O6 O 0.2892(2) 0.9166(2) 0.96476(18)
O7 O 0.1235(2) 0.9540(2) 0.88210(15)
C8 C 0.4394(3) 0.8348(3) 0.9674(2)
H6 H 0.2622 0.6406 0.9922
C9 C 0.2184(5) 0.5031(4) 0.9952(3)
C10 C 0.1235(5) 0.4715(4) 1.0897(3)
H7 H 0.0998 0.5873 1.1498
H8 H 0.2903 0.6517 1.3268
C11 C 0.4094(3) 0.7165(4) 1.2860(2)
H9 H 0.4985 0.8028 1.2298
H10 H 0.2510 0.4833 0.9547
H11 H 0.0881 0.4279 1.1178
C12 C 0.4811(3) 0.6881(3) 1.3405(2)
Co2B Co -0.04313(4) 0.84983(4) 1.01164(3)
O1C O 0.18031(18) 1.10049(19) 0.99187(13)
O1B O -0.18031(18) 0.89951(19) 0.99187(13)
O6B O -0.0834(2) 0.7108(2) 1.03524(18)
O3B O -0.0560(2) 0.8246(2) 0.89882(15)
O7B O -0.0460(2) 0.8765(2) 1.11790(15)
Co2A Co -0.15017(4) 1.04313(4) 0.98836(3)
Co2C Co 0.04313(4) 1.15017(4) 1.01164(3)
Co1B Co -0.21555(4) 0.82034(4) 0.90430(3)
H1B H -0.2185 0.8865 1.0248
C3B C -0.1493(3) 0.6636(3) 1.0076(2)
H2B H -0.0270 0.7627 0.8837
H3B H -0.0310 0.8791 0.8709
C9B C 0.5031(4) 0.7816(5) 1.0048(3)
C10B C 0.4715(4) 0.8765(5) 0.9103(3)
C8C C 0.1652(3) 0.4394(3) 1.0326(2)
O1A O -0.10049(19) 1.18031(18) 1.00813(13)
O6A O -0.2892(2) 1.0834(2) 0.96476(18)
O3A O -0.1754(2) 1.0560(2) 1.10118(15)
O7A O -0.1235(2) 1.0460(2) 0.88210(15)
N1B N -0.2365(3) 0.7248(3) 0.81711(19)
O2B O -0.2057(2) 0.6928(2) 0.96086(16)
N2B N -0.3680(2) 0.8209(3) 0.92687(19)
O4B O -0.2300(2) 0.9389(2) 0.83962(14)
C8B C -0.1652(3) 0.5606(3) 1.0326(2)
C4B C 0.5969(4) 0.7764(5) 0.9819(3)
H10B H 0.4833 0.7490 1.0453
H11B H 0.4279 0.9119 0.8822
C5B C 0.5671(4) 0.8690(5) 0.8912(3)
C3C C 0.1493(3) 0.3364(3) 1.0076(2)
O4E O 0.5611(2) 0.7300(2) 1.33962(14)
O7G O 0.4540(2) 0.6235(2) 1.38210(15)
Co1A Co -0.17966(4) 1.21555(4) 1.09570(3)
H1A H -0.1135 1.2185 0.9752
C3A C -0.3364(3) 1.1493(3) 0.9924(2)
H2A H -0.2373 1.0270 1.1163
H3A H -0.1209 1.0310 1.1291
C1B C -0.2862(5) 0.7495(4) 0.7632(3)
C2B C -0.2025(5) 0.6325(4) 0.8176(3)
C9A C -0.2184(5) 0.4969(4) 0.9952(3)
C10A C -0.1235(5) 0.5285(4) 1.0897(3)
N2B_2 N 0.6320(2) 0.8209(3) 0.92687(19)
H6B H 0.6406 0.7378 1.0078
H7B H 0.5873 0.9002 0.8502
O6C O 0.0834(2) 0.2892(2) 1.03524(18)
O2C O 0.2057(2) 0.3072(2) 0.96086(16)
Co1E Co 0.67966(4) 0.71555(4) 1.40430(3)
Co2G Co 0.45687(4) 0.65017(4) 1.48836(3)
N1A N -0.2752(3) 1.2365(3) 1.18289(19)
O2A O -0.3072(2) 1.2057(2) 1.03914(16)
N2A N -0.1791(3) 1.3680(2) 1.07313(19)
O4A O -0.0611(2) 1.2300(2) 1.16038(14)
C8A C -0.4394(3) 1.1652(3) 0.9674(2)
H4B H -0.3063 0.8150 0.7595
C6B C -0.3116(5) 0.6869(4) 0.7111(3)
C7B C -0.2236(5) 0.5649(4) 0.7677(3)
H5B H -0.1619 0.6133 0.8545
C4A C -0.2236(5) 0.4031(4) 1.0181(3)
H10A H -0.2510 0.5167 0.9547
H11A H -0.0881 0.5721 1.1178
C5A C -0.1310(5) 0.4329(4) 1.1088(3)
Co1B_2 Co 0.78445(4) 0.82034(4) 0.90430(3)
Co2C_2 Co 0.04313(4) 0.15017(4) 1.01164(3)
Co1C Co 0.21555(4) 0.17966(4) 0.90430(3)
C1A C -0.2505(4) 1.2862(5) 1.2368(3)
C2A C -0.3675(4) 1.2025(5) 1.1824(3)
C9C C -0.5031(4) 1.2184(5) 1.0048(3)
C10C C -0.4715(4) 1.1235(5) 0.9103(3)
H8B H -0.3483 0.7097 0.6732
C11B C -0.2835(4) 0.5906(3) 0.7140(2)
H9B H -0.1972 0.5015 0.7702
N2A_2 N -0.1791(3) 0.3680(2) 1.07313(19)
H6A H -0.2622 0.3594 0.9922
H7A H -0.0998 0.4127 1.1498
O1C_2 O 0.18031(18) 0.10049(19) 0.99187(13)
O3C O 0.0560(2) 0.1754(2) 0.89882(15)
O5_2 O 0.0000 0.0000 1.0000
O1A_2 O -0.10049(19) 0.18031(18) 1.00813(13)
O7C O 0.0460(2) 0.1235(2) 1.11790(15)
N1C N 0.2365(3) 0.2752(3) 0.81711(19)
N2C N 0.3680(2) 0.1791(3) 0.92687(19)
O4C O 0.2300(2) 0.0611(2) 0.83962(14)
H4A H -0.1850 1.3063 1.2405
C6A C -0.3131(4) 1.3116(5) 1.2889(3)
C7A C -0.4351(4) 1.2236(5) 1.2323(3)
H5A H -0.3867 1.1619 1.1455
C4C C -0.5969(4) 1.2236(5) 0.9819(3)
H10C H -0.4833 1.2510 1.0453
H11C H -0.4279 1.0881 0.8822
C5C C -0.5671(4) 1.1310(5) 0.8912(3)
Co1G Co 0.28445(4) 0.67966(4) 0.59570(3)
C12B C -0.3119(3) 0.5189(3) 0.6595(2)
Co1A_2 Co -0.17966(4) 0.21555(4) 1.09570(3)
H1C H 0.2185 0.1135 1.0248
Co2_2 Co 0.15017(4) -0.04313(4) 0.98836(3)
H2C H 0.0270 0.2373 0.8837
H3C H 0.0310 0.1209 0.8709
C1C C 0.2862(5) 0.2505(4) 0.7632(3)
C2C C 0.2025(5) 0.3675(4) 0.8176(3)
H8A H -0.2903 1.3483 1.3268
C11A C -0.4094(3) 1.2835(4) 1.2860(2)
H9A H -0.4985 1.1972 1.2298
N2C_2 N -0.6320(2) 1.1791(3) 0.92687(19)
H6C H -0.6406 1.2622 1.0078
H7C H -0.5873 1.0998 0.8502
O4G O 0.2700(2) 0.5611(2) 0.66038(14)
O4F O -0.2700(2) 0.4389(2) 0.66038(14)
O7E O -0.3765(2) 0.5460(2) 0.61790(15)
H4C H 0.3063 0.1850 0.7595
C6C C 0.3116(5) 0.3131(4) 0.7111(3)
C7C C 0.2236(5) 0.4351(4) 0.7677(3)
H5C H 0.1619 0.3867 0.8545
C12A C -0.4811(3) 1.3119(3) 1.3405(2)
Co1C_2 Co -0.78445(4) 1.17966(4) 0.90430(3)
C12C C 0.3119(3) 0.4811(3) 0.6595(2)
Co2D Co 0.34983(4) 0.45687(4) 0.51164(3)
Co1F Co -0.28445(4) 0.32034(4) 0.59570(3)
Co2E Co -0.34983(4) 0.54313(4) 0.51164(3)
H8C H 0.3483 0.2903 0.6732
C11C C 0.2835(4) 0.4094(3) 0.7140(2)
H9C H 0.1972 0.4985 0.7702
O4D O -0.5611(2) 1.2700(2) 1.33962(14)
O7F O -0.4540(2) 1.3765(2) 1.38210(15)
O7D O 0.3765(2) 0.4540(2) 0.61790(15)
Co1D Co -0.67966(4) 1.28445(4) 1.40430(3)
Co2F Co -0.45687(4) 1.34983(4) 1.48836(3)
C13 C 0.1187(15) 0.8939(8) 1.3504(6)
H12 H 0.1018 0.8348 1.3253
H13 H 0.0617 0.9178 1.3751
H14 H 0.1705 0.8797 1.3832
C14 C 0.1508(8) 0.9656(8) 1.3033(4)
H15 H 0.2191 0.9530 1.2908
H16 H 0.1474 1.0302 1.3253
O8 O 0.0895(7) 0.9651(10) 1.2399(4)
H17 H 0.0848 0.9082 1.2251
N3 N 0.5000 1.0000 1.1854(5)
O9 O 0.5000 1.0000 1.1047(6)
O10 O 0.5990(9) 0.9701(15) 1.2202(7)
O10A O 0.4010(9) 1.0299(15) 1.2202(7)
O11 O 0.3348(5) 1.0574(6) 1.1091(4)
H18 H 0.3623 1.0504 1.1478
H19 H 0.3738 1.0422 1.0771
loop_
_geom_bond_atom_site_label_1
_geom_bond_atom_site_label_2
_geom_bond_site_symmetry_1
_geom_bond_site_symmetry_2
Co1 N1 1_555 1_555
N1 C1 1_555 1_555
O1 Co1 1_555 1_555
O2 Co1 1_555 1_555
O3 Co1 1_555 1_555
N2 Co1 1_555 1_555
O4 Co1 1_555 1_555
C1 H4 1_555 1_555
C2 N1 1_555 1_555
Co2 O1 1_555 1_555
H1 O1 1_555 1_555
C3 O2 1_555 1_555
H2 O3 1_555 1_555
H3 O3 1_555 1_555
C4 N2 1_555 1_555
C5 N2 1_555 1_555
C6 C1 1_555 1_555
C7 C2 1_555 1_555
H5 C2 1_555 1_555
O5 Co2 1_555 1_555
O6 Co2 1_555 1_555
O7 Co2 1_555 1_555
C8 C3 1_555 1_555
H6 C4 1_555 1_555
C9 C4 1_555 1_555
C10 C5 1_555 1_555
H7 C5 1_555 1_555
H8 C6 1_555 1_555
C11 C6 1_555 1_555
H9 C7 1_555 1_555
H10 C9 1_555 1_555
H11 C10 1_555 1_555
C12 C11 1_555 1_555
C13 H12 1_555 1_555
H13 C13 1_555 1_555
H14 C13 1_555 1_555
C14 C13 1_555 1_555
H15 C14 1_555 1_555
H16 C14 1_555 1_555
O8 C14 1_555 1_555
H17 O8 1_555 1_555
N3 O9 1_555 1_555
O10 N3 1_555 1_555
O11 H18 1_555 1_555
H19 O11 1_555 1_555
Co2B O1 1_555 1_555
O1C Co2 1_555 1_555
O1B Co2B 1_555 1_555
O6B Co2B 1_555 1_555
O3B Co2B 1_555 1_555
O7B Co2B 1_555 1_555
Co2A O5 1_555 1_555
Co2C O5 1_555 1_555
Co1B O1B 1_555 1_555
H1B O1B 1_555 1_555
C3B O6B 1_555 1_555
H2B O3B 1_555 1_555
H3B O3B 1_555 1_555
C9B C8 1_555 1_555
C10B C8 1_555 1_555
C8C C9 1_555 1_555
O1A Co2A 1_555 1_555
O6A Co2A 1_555 1_555
O3A Co2A 1_555 1_555
O7A Co2A 1_555 1_555
N1B Co1B 1_555 1_555
O2B Co1B 1_555 1_555
N2B Co1B 1_555 1_555
O4B Co1B 1_555 1_555
C8B C3B 1_555 1_555
C4B C9B 1_555 1_555
H10B C9B 1_555 1_555
H11B C10B 1_555 1_555
C5B C10B 1_555 1_555
C3C C8C 1_555 1_555
O4E C12 1_555 1_555
O7G C12 1_555 1_555
Co1A O1A 1_555 1_555
H1A O1A 1_555 1_555
C3A O6A 1_555 1_555
H2A O3A 1_555 1_555
H3A O3A 1_555 1_555
C1B N1B 1_555 1_555
C2B N1B 1_555 1_555
C9A C8B 1_555 1_555
C10A C8B 1_555 1_555
N2B_2 C4B 1_555 1_555
H6B C4B 1_555 1_555
H7B C5B 1_555 1_555
O6C C3C 1_555 1_555
O2C C3C 1_555 1_555
Co1E O4E 1_555 1_555
Co2G O7G 1_555 1_555
N1A Co1A 1_555 1_555
O2A Co1A 1_555 1_555
N2A Co1A 1_555 1_555
O4A Co1A 1_555 1_555
C8A C3A 1_555 1_555
H4B C1B 1_555 1_555
C6B C1B 1_555 1_555
C7B C2B 1_555 1_555
H5B C2B 1_555 1_555
C4A C9A 1_555 1_555
H10A C9A 1_555 1_555
H11A C10A 1_555 1_555
C5A C10A 1_555 1_555
Co1B_2 N2B_2 1_555 1_555
Co2C_2 O6C 1_555 1_555
Co1C O2C 1_555 1_555
C1A N1A 1_555 1_555
C2A N1A 1_555 1_555
C9C C8A 1_555 1_555
C10C C8A 1_555 1_555
H8B C6B 1_555 1_555
C11B C6B 1_555 1_555
H9B C7B 1_555 1_555
N2A_2 C4A 1_555 1_555
H6A C4A 1_555 1_555
H7A C5A 1_555 1_555
O1C_2 Co2C_2 1_555 1_555
O3C Co2C_2 1_555 1_555
O5_2 Co2C_2 1_555 1_555
O1A_2 Co2C_2 1_555 1_555
O7C Co2C_2 1_555 1_555
N1C Co1C 1_555 1_555
N2C Co1C 1_555 1_555
O4C Co1C 1_555 1_555
H4A C1A 1_555 1_555
C6A C1A 1_555 1_555
C7A C2A 1_555 1_555
H5A C2A 1_555 1_555
C4C C9C 1_555 1_555
H10C C9C 1_555 1_555
H11C C10C 1_555 1_555
C5C C10C 1_555 1_555
Co1G O4G 1_555 1_555
C12B C11B 1_555 1_555
Co1A_2 N2A_2 1_555 1_555
H1C O1C_2 1_555 1_555
Co2_2 O1C_2 1_555 1_555
H2C O3C 1_555 1_555
H3C O3C 1_555 1_555
C1C N1C 1_555 1_555
C2C N1C 1_555 1_555
H8A C6A 1_555 1_555
C11A C6A 1_555 1_555
H9A C7A 1_555 1_555
N2C_2 C4C 1_555 1_555
H6C C4C 1_555 1_555
H7C C5C 1_555 1_555
O4G C12C 1_555 1_555
O4F C12B 1_555 1_555
O7E C12B 1_555 1_555
H4C C1C 1_555 1_555
C6C C1C 1_555 1_555
C7C C2C 1_555 1_555
H5C C2C 1_555 1_555
C12A C11A 1_555 1_555
Co1C_2 N2C_2 1_555 1_555
C12C C11C 1_555 1_555
Co2D O7D 1_555 1_555
Co1F O4F 1_555 1_555
Co2E O7E 1_555 1_555
H8C C6C 1_555 1_555
C11C C6C 1_555 1_555
H9C C7C 1_555 1_555
O4D C12A 1_555 1_555
O7F C12A 1_555 1_555
O7D C12C 1_555 1_555
Co1D O4D 1_555 1_555
Co2F O7F 1_555 1_555
O10A N3 1_555 1_555
O3 Co2 1_555 1_555
C3 O6 1_555 1_555
C7 C11 1_555 1_555
O5 Co2B 1_555 1_555
C10 C8C 1_555 1_555
O1C Co2C 1_555 1_555
O1B Co2A 1_555 1_555
O3B Co1B 1_555 1_555
Co2C O1A 1_555 1_555
C3B O2B 1_555 1_555
O3A Co1A 1_555 1_555
C5B N2B_2 1_555 1_555
C3A O2A 1_555 1_555
C7B C11B 1_555 1_555
C5A N2A_2 1_555 1_555
Co1C O1C_2 1_555 1_555
Co1C O3C 1_555 1_555
O5_2 Co2_2 1_555 1_555
O1A_2 Co1A_2 1_555 1_555
C7A C11A 1_555 1_555
C5C N2C_2 1_555 1_555
C7C C11C 1_555 1_555

#END
