
#######################################################################
#
#                 Cambridge Crystallographic Data Centre
#                                CCDC 
#
#######################################################################
#
# If this CIF has been generated from an entry in the Cambridge 
# Structural Database, then it will include bibliographic, chemical, 
# crystal, experimental, refinement or atomic coordinate data resulting 
# from the CCDC's data processing and validation procedures.
#
#######################################################################

data_AQIQIC
_chemical_formula_moiety         'C30 H8 Mn12 N2 O30'
_symmetry_cell_setting           monoclinic
_symmetry_space_group_name_H-M   'C 2/c'
_symmetry_Int_Tables_number      15
_space_group_name_Hall           '-C 2yc'
loop_
_symmetry_equiv_pos_site_id
_symmetry_equiv_pos_as_xyz
1 x,y,z
2 -x,y,1/2-z
3 1/2+x,1/2+y,z
4 1/2-x,1/2+y,1/2-z
5 -x,-y,-z
6 x,-y,1/2+z
7 1/2-x,1/2-y,-z
8 1/2+x,1/2-y,1/2+z
_cell_length_a                   23.412(12)
_cell_length_b                   11.374(6)
_cell_length_c                   19.755(10)
_cell_angle_alpha                90
_cell_angle_beta                 122.518(7)
_cell_angle_gamma                90
_cell_volume                     4435.79
loop_
_atom_site_label
_atom_site_type_symbol
_atom_site_fract_x
_atom_site_fract_y
_atom_site_fract_z
_atom_site_U_iso_or_equiv
_atom_site_thermal_displace_type
C1 C 0.52521(19) 1.1113(3) 0.5049(2) 0.0369 Uani
C2 C 0.54224(19) 0.9123(3) 0.5491(2) 0.0367 Uani
C3 C 0.56827(17) 1.0238(3) 0.5556(2) 0.0289 Uani
C4 C 0.64210(17) 1.0497(3) 0.6148(2) 0.0306 Uani
N1 N 0.9950(4) 0.9277(10) 0.9276(6) 0.0958 Uani
O1 O 0.8822(4) 0.8345(8) 0.8113(5) 0.0523 Uani
C5 C 1.0256(7) 0.8304(15) 0.9105(11) 0.1683 Uani
C6 C 1.0328(7) 1.0047(18) 0.9947(9) 0.1346 Uani
C7 C 0.9244(6) 0.9419(13) 0.8659(10) 0.0964 Uani
Mn1 Mn 0.78494(2) 0.92203(4) 0.73594(3) 0.0188 Uani
O2 O 0.66356(14) 1.1502(3) 0.61526(19) 0.0511 Uani
O3 O 0.67719(13) 0.9677(3) 0.66030(19) 0.0514 Uani
O4 O 0.5468(5) 1.2087(9) 0.5020(7) 0.1087 Uani
H1 H 0.5185 1.2423 0.4606 0.1630 Uiso
C8 C 0.79351(18) 1.0341(3) 0.59379(19) 0.0270 Uani
C9 C 0.79580(18) 0.9909(3) 0.52341(18) 0.0247 Uani
C10 C 0.78865(18) 1.0677(3) 0.46468(18) 0.0230 Uani
H2 H 0.7855 1.1479 0.4712 0.0280 Uiso
C11 C 0.8017(2) 0.8705(3) 0.5157(2) 0.0324 Uani
H3 H 0.8090 0.8190 0.5562 0.0390 Uiso
C12 C 0.78605(15) 1.0280(3) 0.39548(16) 0.0172 Uani
C13 C 0.78893(16) 0.9047(3) 0.38732(17) 0.0204 Uani
C14 C 0.79657(19) 0.8288(3) 0.4470(2) 0.0281 Uani
H4 H 0.7982 0.7482 0.4404 0.0340 Uiso
C15 C 0.78214(16) 0.8503(3) 0.31538(17) 0.0220 Uani
Mn2 Mn 0.76361(2) 1.22565(4) 0.67474(3) 0.0189 Uani
O5 O 0.80045(18) 0.9600(3) 0.64350(16) 0.0473 Uani
O6 O 0.80402(13) 0.90031(19) 0.27687(12) 0.0249 Uani
O7 O 0.75544(18) 0.7516(2) 0.29300(16) 0.0465 Uani
O8 O 0.78398(19) 1.1418(3) 0.59730(17) 0.0513 Uani
O9 O 0.77851(12) 1.10424(18) 0.34120(12) 0.0215 Uani
O10 O 0.85944(17) 1.3191(3) 0.7310(3) 0.0933 Uani
C1D C 0.47479(19) 0.8887(3) 0.4951(2) 0.0369 Uani
C2D C 0.45776(19) 1.0877(3) 0.4509(2) 0.0367 Uani
C3D C 0.43173(17) 0.9762(3) 0.4444(2) 0.0289 Uani
C4D C 0.35790(17) 0.9503(3) 0.3852(2) 0.0306 Uani
O2D O 0.33644(14) 0.8498(3) 0.38474(19) 0.0511 Uani
O3D O 0.32281(13) 1.0323(3) 0.33970(19) 0.0514 Uani
O4D O 0.4532(5) 0.7913(9) 0.4980(7) 0.1087 Uani
H1D H 0.4815 0.7577 0.5394 0.1630 Uiso
N1D N 0.0050(4) 1.0723(10) 0.0724(6) 0.0958 Uani
O1D O 0.1178(4) 1.1655(8) 0.1887(5) 0.0523 Uani
C5D C -0.0256(7) 1.1696(15) 0.0895(11) 0.1683 Uani
C6D C -0.0328(7) 0.9953(18) 0.0053(9) 0.1346 Uani
C7D C 0.0756(6) 1.0581(13) 0.1341(10) 0.0964 Uani
Mn1D Mn 0.21506(2) 1.07797(4) 0.26406(3) 0.0188 Uani
C8D C 0.20649(18) 0.9659(3) 0.40621(19) 0.0270 Uani
C9D C 0.20420(18) 1.0091(3) 0.47659(18) 0.0247 Uani
C10D C 0.21135(18) 0.9323(3) 0.53532(18) 0.0230 Uani
H2D H 0.2145 0.8521 0.5288 0.0280 Uiso
C11D C 0.1983(2) 1.1295(3) 0.4843(2) 0.0324 Uani
H3D H 0.1910 1.1810 0.4438 0.0390 Uiso
C12D C 0.21395(15) 0.9720(3) 0.60452(16) 0.0172 Uani
C13D C 0.21107(16) 1.0953(3) 0.61268(17) 0.0204 Uani
C14D C 0.20343(19) 1.1712(3) 0.5530(2) 0.0281 Uani
H4D H 0.2018 1.2518 0.5596 0.0340 Uiso
C15D C 0.21786(16) 1.1497(3) 0.68462(17) 0.0220 Uani
Mn2D Mn 0.23639(2) 0.77435(4) 0.32526(3) 0.0189 Uani
O5D O 0.19955(18) 1.0400(3) 0.35650(16) 0.0473 Uani
O6D O 0.19598(13) 1.09969(19) 0.72313(12) 0.0249 Uani
O7D O 0.24456(18) 1.2484(2) 0.70700(16) 0.0465 Uani
O8D O 0.21602(19) 0.8582(3) 0.40270(17) 0.0513 Uani
O9D O 0.22149(12) 0.89576(18) 0.65880(12) 0.0215 Uani
O10D O 0.14056(17) 0.6809(3) 0.2690(3) 0.0933 Uani
Mn1A Mn 0.21506(2) 0.92203(4) 0.76406(3) 0.0188 Uani
Mn1B Mn 0.28494(2) 1.42203(4) 0.73594(3) 0.0188 Uani
Mn1E Mn 0.78494(2) 1.07797(4) 0.23594(3) 0.0188 Uani
Mn1F Mn 0.71506(2) 0.57797(4) 0.26406(3) 0.0188 Uani
Mn2A Mn 0.23639(2) 1.22565(4) 0.82526(3) 0.0189 Uani
Mn2B Mn 0.26361(2) 0.72565(4) 0.67474(3) 0.0189 Uani
Mn2E Mn 0.76361(2) 0.77435(4) 0.17474(3) 0.0189 Uani
Mn2F Mn 0.73639(2) 1.27435(4) 0.32526(3) 0.0189 Uani
O6A O 0.19598(13) 0.90031(19) 0.22313(12) 0.0249 Uani
O6E O 0.80402(13) 1.09969(19) 0.77687(12) 0.0249 Uani
O7A O 0.24456(18) 0.7516(2) 0.20700(16) 0.0465 Uani
O7B O 0.25544(18) 1.2516(2) 0.29300(16) 0.0465 Uani
O7E O 0.75544(18) 1.2484(2) 0.79300(16) 0.0465 Uani
O7F O 0.74456(18) 0.7484(2) 0.70700(16) 0.0465 Uani
O9A O 0.22149(12) 1.10424(18) 0.15880(12) 0.0215 Uani
O9B O 0.27851(12) 0.60424(18) 0.34120(12) 0.0215 Uani
O9E O 0.77851(12) 0.89576(18) 0.84120(12) 0.0215 Uani
O9F O 0.72149(12) 1.39576(18) 0.65880(12) 0.0215 Uani
loop_
_atom_site_aniso_label
_atom_site_aniso_U_11
_atom_site_aniso_U_22
_atom_site_aniso_U_33
_atom_site_aniso_U_23
_atom_site_aniso_U_13
_atom_site_aniso_U_12
C1 0.0280(18) 0.0292(19) 0.041(2) 0.0085(16) 0.0102(16) -0.0036(15)
C2 0.0277(18) 0.032(2) 0.0339(18) 0.0123(16) 0.0057(15) 0.0026(15)
C3 0.0231(16) 0.0314(18) 0.0259(16) 0.0057(14) 0.0090(13) 0.0007(13)
C4 0.0256(17) 0.0347(19) 0.0253(16) 0.0011(14) 0.0095(14) -0.0012(14)
N1 0.032(4) 0.136(10) 0.095(7) 0.032(7) 0.018(4) 0.011(5)
O1 0.039(4) 0.063(5) 0.059(4) 0.012(4) 0.029(3) 0.010(4)
C5 0.071(9) 0.179(16) 0.25(2) 0.114(16) 0.083(12) 0.074(10)
C6 0.068(8) 0.177(17) 0.089(9) -0.027(11) -0.004(7) -0.010(10)
C7 0.056(7) 0.103(10) 0.141(12) 0.053(10) 0.060(8) 0.025(7)
Mn1 0.0281(3) 0.0156(2) 0.0163(2) 0.00050(16) 0.01430(19) -0.00061(18)
O2 0.0285 0.0418 0.054 0.0188 0.003 -0.009
O3 0.0261(14) 0.0361(16) 0.0568(18) 0.0085(14) -0.0010(13) -0.0003(12)
O4 0.086(7) 0.081(7) 0.112(8) 0.005(6) 0.022(6) -0.009(6)
C8 0.0416 0.0276 0.0222 -0.0015 0.024 0.0006
C9 0.0398 0.0244 0.0186 0.0012 0.0215 0.001
C10 0.0399 0.0152 0.0223 -0.0011 0.0222 0.0015
C11 0.06 0.0227 0.0275 0.0067 0.0322 0.0061
C12 0.0251 0.0147 0.015 0.0012 0.0128 -0.0009
C13 0.032 0.0153 0.0158 -0.0029 0.0142 -0.0023
C14 0.049 0.0148 0.0275 0.0036 0.0252 0.002
C15 0.0319 0.0169 0.0154 0.001 0.0116 0.0029
Mn2 0.0299 0.0142 0.0173 0.00049 0.0157 0.00061
O5 0.097 0.0341 0.0363 0.0026 0.0527 0.0029
O6 0.0436 0.0191 0.0184 0.0018 0.0208 0.006
O7 0.087 0.0186 0.0335 -0.0101 0.0322 -0.016
O8 0.104 0.0335 0.0435 0.0049 0.0576 0.0202
O9 0.0394 0.0139 0.0185 0.0028 0.0204 0.0026
O10 0.0348 0.051 0.142 0.006 0.013 -0.0121
C1D 0.028 0.0292 0.041 0.0085 0.0102 -0.0036
C2D 0.0277 0.032 0.0339 0.0123 0.0057 0.0026
C3D 0.0231 0.0314 0.0259 0.0057 0.009 0.0007
C4D 0.0256 0.0347 0.0253 0.0011 0.0095 -0.0012
O2D 0.0285 0.0418 0.054 0.0188 0.003 -0.009
O3D 0.0261 0.0361 0.0568 0.0085 -0.001 -0.0003
O4D 0.086 0.081 0.112 0.005 0.022 -0.009
N1D 0.032 0.136 0.095 0.032 0.018 0.011
O1D 0.039 0.063 0.059 0.012 0.029 0.01
C5D 0.071 0.179 0.25 0.114 0.083 0.074
C6D 0.068 0.177 0.089 -0.027 -0.004 -0.01
C7D 0.056 0.103 0.141 0.053 0.06 0.025
Mn1D 0.0281 0.0156 0.0163 0.0005 0.0143 -0.00061
C8D 0.0416 0.0276 0.0222 -0.0015 0.024 0.0006
C9D 0.0398 0.0244 0.0186 0.0012 0.0215 0.001
C10D 0.0399 0.0152 0.0223 -0.0011 0.0222 0.0015
C11D 0.06 0.0227 0.0275 0.0067 0.0322 0.0061
C12D 0.0251 0.0147 0.015 0.0012 0.0128 -0.0009
C13D 0.032 0.0153 0.0158 -0.0029 0.0142 -0.0023
C14D 0.049 0.0148 0.0275 0.0036 0.0252 0.002
C15D 0.0319 0.0169 0.0154 0.001 0.0116 0.0029
Mn2D 0.0299 0.0142 0.0173 0.00049 0.0157 0.00061
O5D 0.097 0.0341 0.0363 0.0026 0.0527 0.0029
O6D 0.0436 0.0191 0.0184 0.0018 0.0208 0.006
O7D 0.087 0.0186 0.0335 -0.0101 0.0322 -0.016
O8D 0.104 0.0335 0.0435 0.0049 0.0576 0.0202
O9D 0.0394 0.0139 0.0185 0.0028 0.0204 0.0026
O10D 0.0348 0.051 0.142 0.006 0.013 -0.0121
Mn1A 0.0281 0.0156 0.0163 -0.0005 0.0143 0.00061
Mn1B 0.0281 0.0156 0.0163 0.0005 0.0143 -0.00061
Mn1E 0.0281 0.0156 0.0163 -0.0005 0.0143 0.00061
Mn1F 0.0281 0.0156 0.0163 0.0005 0.0143 -0.00061
Mn2A 0.0299 0.0142 0.0173 -0.00049 0.0157 -0.00061
Mn2B 0.0299 0.0142 0.0173 0.00049 0.0157 0.00061
Mn2E 0.0299 0.0142 0.0173 -0.00049 0.0157 -0.00061
Mn2F 0.0299 0.0142 0.0173 0.00049 0.0157 0.00061
O6A 0.0436 0.0191 0.0184 -0.0018 0.0208 -0.006
O6E 0.0436 0.0191 0.0184 -0.0018 0.0208 -0.006
O7A 0.087 0.0186 0.0335 0.0101 0.0322 0.016
O7B 0.087 0.0186 0.0335 -0.0101 0.0322 -0.016
O7E 0.087 0.0186 0.0335 0.0101 0.0322 0.016
O7F 0.087 0.0186 0.0335 -0.0101 0.0322 -0.016
O9A 0.0394 0.0139 0.0185 -0.0028 0.0204 -0.0026
O9B 0.0394 0.0139 0.0185 0.0028 0.0204 0.0026
O9E 0.0394 0.0139 0.0185 -0.0028 0.0204 -0.0026
O9F 0.0394 0.0139 0.0185 0.0028 0.0204 0.0026
loop_
_geom_bond_atom_site_label_1
_geom_bond_atom_site_label_2
_geom_bond_site_symmetry_1
_geom_bond_site_symmetry_2
C1 C3 1_555 1_555
C2 C3 1_555 1_555
C3 C4 1_555 1_555
C4 O2 1_555 1_555
N1 C5 1_555 1_555
O1 C7 1_555 1_555
C6 N1 1_555 1_555
C7 N1 1_555 1_555
Mn1 O1 1_555 1_555
O2 Mn2 1_555 1_555
O3 C4 1_555 1_555
O4 C1 1_555 1_555
H1 O4 1_555 1_555
C8 C9 1_555 1_555
C9 C10 1_555 1_555
C10 H2 1_555 1_555
C11 C9 1_555 1_555
H3 C11 1_555 1_555
C12 C10 1_555 1_555
C13 C12 1_555 1_555
C14 C11 1_555 1_555
H4 C14 1_555 1_555
C15 C13 1_555 1_555
Mn2 O8 1_555 1_555
O5 Mn1 1_555 1_555
O6 C15 1_555 1_555
O7 C15 1_555 1_555
O8 C8 1_555 1_555
O9 C12 1_555 1_555
O10 Mn2 1_555 1_555
C1D C2 1_555 1_555
C2D C1 1_555 1_555
C3D C1D 1_555 1_555
C4D C3D 1_555 1_555
O2D C4D 1_555 1_555
O3D C4D 1_555 1_555
O4D C1D 1_555 1_555
H1D O4D 1_555 1_555
N1D C5D 1_555 1_555
O1D C7D 1_555 1_555
C6D N1D 1_555 1_555
C7D N1D 1_555 1_555
Mn1D O3D 1_555 1_555
C8D C9D 1_555 1_555
C9D C10D 1_555 1_555
C10D H2D 1_555 1_555
C11D C9D 1_555 1_555
H3D C11D 1_555 1_555
C12D C10D 1_555 1_555
C13D C12D 1_555 1_555
C14D C11D 1_555 1_555
H4D C14D 1_555 1_555
C15D C13D 1_555 1_555
Mn2D O2D 1_555 1_555
O5D Mn1D 1_555 1_555
O6D C15D 1_555 1_555
O7D C15D 1_555 1_555
O8D C8D 1_555 1_555
O9D C12D 1_555 1_555
O10D Mn2D 1_555 1_555
Mn1A O6D 1_555 1_555
Mn1B O7D 1_555 1_555
Mn1E O6 1_555 1_555
Mn1F O7 1_555 1_555
Mn2A O6D 1_555 1_555
Mn2B O9D 1_555 1_555
Mn2E O6 1_555 1_555
Mn2F O9 1_555 1_555
O6A Mn1D 1_555 1_555
O6E Mn1 1_555 1_555
O7A Mn2D 1_555 1_555
O7B Mn1D 1_555 1_555
O7E Mn2 1_555 1_555
O7F Mn1 1_555 1_555
O9A Mn1D 1_555 1_555
O9B Mn2D 1_555 1_555
O9E Mn1 1_555 1_555
O9F Mn2 1_555 1_555
Mn1 O3 1_555 1_555
C8 O5 1_555 1_555
C13 C14 1_555 1_555
Mn2 O6E 1_555 1_555
O7 Mn2E 1_555 1_555
O9 Mn1E 1_555 1_555
C2D C3D 1_555 1_555
O1D Mn1D 1_555 1_555
C8D O5D 1_555 1_555
C13D C14D 1_555 1_555
Mn2D O8D 1_555 1_555
Mn2D O6A 1_555 1_555
O7D Mn2A 1_555 1_555
O9D Mn1A 1_555 1_555

#END
