
#######################################################################
#
#                 Cambridge Crystallographic Data Centre
#                                CCDC 
#
#######################################################################
#
# If this CIF has been generated from an entry in the Cambridge 
# Structural Database, then it will include bibliographic, chemical, 
# crystal, experimental, refinement or atomic coordinate data resulting 
# from the CCDC's data processing and validation procedures.
#
#######################################################################

data_WECJIZ
_chemical_formula_moiety         'C102 H125 N9 O20 S6 Zn7'
_symmetry_cell_setting           monoclinic
_symmetry_space_group_name_H-M   'C 2/c'
_symmetry_Int_Tables_number      15
_space_group_name_Hall           '-C 2yc'
loop_
_symmetry_equiv_pos_site_id
_symmetry_equiv_pos_as_xyz
1 x,y,z
2 -x,y,1/2-z
3 1/2+x,1/2+y,z
4 1/2-x,1/2+y,1/2-z
5 -x,-y,-z
6 x,-y,1/2+z
7 1/2-x,1/2-y,-z
8 1/2+x,1/2-y,1/2+z
_cell_length_a                   31.138(2)
_cell_length_b                   39.627(2)
_cell_length_c                   22.721(2)
_cell_angle_alpha                90
_cell_angle_beta                 121.737(2)
_cell_angle_gamma                90
_cell_volume                     23843.5
loop_
_atom_site_label
_atom_site_type_symbol
_atom_site_fract_x
_atom_site_fract_y
_atom_site_fract_z
_atom_site_U_iso_or_equiv
_atom_site_thermal_displace_type
C91 C 0.4704(4) 0.2068(2) 0.9680(4) 0.1337 Uani
H105 H 0.4789 0.2234 0.9449 0.2000 Uiso
H106 H 0.5007 0.1976 1.0065 0.2000 Uiso
H107 H 0.4508 0.2173 0.9844 0.2000 Uiso
N1 N 0.4406(2) 0.17952(13) 0.9191(3) 0.0673 Uani
C92 C 0.4341(2) 0.18182(17) 0.8529(3) 0.0675 Uani
H108 H 0.4171 0.1620 0.8267 0.1010 Uiso
H109 H 0.4665 0.1837 0.8576 0.1010 Uiso
H110 H 0.4142 0.2014 0.8295 0.1010 Uiso
C93 C 0.4240(3) 0.15393(18) 0.9381(4) 0.0682 Uani
H111 H 0.4086 0.1365 0.9062 0.0820 Uiso
O1 O 0.4267(2) 0.15063(13) 0.9937(3) 0.1016 Uani
C94 C 0.5452(4) 0.2381(2) 0.2048(6) 0.1524 Uani
H112 H 0.5205 0.2326 0.2163 0.2280 Uiso
H113 H 0.5354 0.2584 0.1779 0.2280 Uiso
H114 H 0.5775 0.2413 0.2465 0.2280 Uiso
C95 C 0.5231(4) 0.1783(2) 0.1548(5) 0.1487 Uani
H115 H 0.5009 0.1800 0.1721 0.2230 Uiso
H116 H 0.5476 0.1610 0.1795 0.2230 Uiso
H117 H 0.5038 0.1729 0.1064 0.2230 Uiso
C96 C 0.5810(4) 0.2138(2) 0.1427(4) 0.1031 Uani
H118 H 0.5981 0.2342 0.1511 0.1240 Uiso
N6 N 0.5487(3) 0.21054(18) 0.1647(4) 0.1010 Uani
O15 O 0.5899(2) 0.19105(15) 0.1114(3) 0.1146 Uani
C97 C 0.1592(3) 0.1400(2) 0.6494(4) 0.1001 Uani
H119 H 0.1749 0.1585 0.6405 0.1500 Uiso
H120 H 0.1299 0.1329 0.6068 0.1500 Uiso
H121 H 0.1827 0.1216 0.6692 0.1500 Uiso
C98 C 0.1308(4) 0.1247(3) 0.7335(6) 0.1674 Uani
H122 H 0.1298 0.1027 0.7151 0.2510 Uiso
H123 H 0.0983 0.1300 0.7263 0.2510 Uiso
H124 H 0.1557 0.1250 0.7821 0.2510 Uiso
C99 C 0.1479(3) 0.1832(3) 0.7146(5) 0.1066 Uani
H125 H 0.1586 0.1986 0.6941 0.1280 Uiso
N7 N 0.1445(2) 0.15060(19) 0.6970(4) 0.0938 Uani
O14 O 0.1372(3) 0.1941(2) 0.7578(5) 0.1695 Uani
O17 O 0.6818(4) 0.0853(2) 1.2092(6) 0.1037 Uani
C1 C 0.07469(19) 0.48924(12) 0.4584(3) 0.0324 Uani
C2 C 0.1213(2) 0.46818(12) 0.5001(3) 0.0393 Uani
C3 C 0.1596(3) 0.47232(15) 0.5641(3) 0.0776 Uani
H1 H 0.1615 0.4901 0.5921 0.0930 Uiso
C4 C 0.1982(2) 0.44701(16) 0.5868(3) 0.0880 Uani
C5 C 0.18586(19) 0.42380(12) 0.5365(3) 0.0410 Uani
C6 C 0.21151(18) 0.39213(12) 0.5411(3) 0.0386 Uani
C7 C 0.22829(18) 0.37951(13) 0.5003(3) 0.0405 Uani
C8 C 0.24831(18) 0.34655(12) 0.5220(3) 0.0370 Uani
H2 H 0.2614 0.3340 0.5005 0.0450 Uiso
C9 C 0.24662(18) 0.33497(12) 0.5769(3) 0.0349 Uani
C10 C 0.26238(18) 0.30215(12) 0.6132(3) 0.0375 Uani
C11 C -0.1005(2) 0.51516(13) 0.3155(3) 0.0362 Uani
C12 C -0.14107(18) 0.49001(11) 0.2960(3) 0.0337 Uani
C13 C -0.1918(2) 0.49472(13) 0.2593(3) 0.0496 Uani
H3 H -0.2066 0.5155 0.2405 0.0600 Uiso
C14 C -0.22064(19) 0.46515(13) 0.2516(3) 0.0523 Uani
C15 C -0.18941(18) 0.43793(12) 0.2826(3) 0.0403 Uani
C16 C -0.20246(17) 0.40304(12) 0.2863(3) 0.0372 Uani
C17 C -0.22191(19) 0.39004(13) 0.3234(3) 0.0456 Uani
C18 C -0.22684(18) 0.35423(12) 0.3164(3) 0.0402 Uani
H4 H -0.2397 0.3412 0.3377 0.0480 Uiso
C19 C -0.21115(17) 0.34107(12) 0.2761(3) 0.0352 Uani
C20 C -0.21241(17) 0.30594(13) 0.2546(3) 0.0360 Uani
C21 C 0.19397(19) 0.22518(12) 0.5890(3) 0.0368 Uani
C22 C 0.14509(17) 0.21319(12) 0.5306(3) 0.0368 Uani
C23 C 0.13560(17) 0.19915(12) 0.4696(3) 0.0402 Uani
H5 H 0.1605 0.1952 0.4596 0.0480 Uiso
C24 C 0.08386(19) 0.19126(12) 0.4235(3) 0.0404 Uani
C25 C 0.05540(18) 0.20024(12) 0.4506(3) 0.0372 Uani
C26 C -0.00019(17) 0.19918(12) 0.4181(3) 0.0345 Uani
C27 C -0.0284(2) 0.18599(14) 0.4427(3) 0.0444 Uani
C28 C -0.08023(18) 0.19340(13) 0.3991(3) 0.0403 Uani
H6 H -0.1047 0.1863 0.4080 0.0480 Uiso
C29 C -0.09075(17) 0.21224(12) 0.3423(3) 0.0333 Uani
C30 C -0.14028(18) 0.22536(12) 0.2866(3) 0.0348 Uani
C31 C 0.00439(17) 0.56221(11) 0.5248(3) 0.0288 Uani
H7 H 0.0267 0.5447 0.5492 0.0350 Uiso
C32 C -0.04664(19) 0.59008(12) 0.4239(3) 0.0416 Uani
H8 H -0.0610 0.5918 0.3763 0.0500 Uiso
C33 C -0.00676(17) 0.58528(12) 0.5610(3) 0.0312 Uani
H9 H 0.0075 0.5828 0.6084 0.0370 Uiso
C34 C -0.0585(2) 0.61410(13) 0.4555(3) 0.0474 Uani
H10 H -0.0794 0.6320 0.4300 0.0570 Uiso
C35 C -0.03906(17) 0.61187(11) 0.5264(3) 0.0306 Uani
C36 C -0.05349(17) 0.63482(12) 0.5625(3) 0.0356 Uani
H11 H -0.0414 0.6305 0.6089 0.0430 Uiso
C37 C -0.08295(17) 0.66175(12) 0.5336(3) 0.0364 Uani
H12 H -0.0901 0.6684 0.4901 0.0440 Uiso
C38 C -0.10495(18) 0.68164(12) 0.5661(3) 0.0378 Uani
C39 C -0.0936(2) 0.67667(15) 0.6330(3) 0.0596 Uani
H13 H -0.0681 0.6617 0.6620 0.0710 Uiso
C40 C -0.14138(17) 0.70583(12) 0.5274(3) 0.0346 Uani
H14 H -0.1490 0.7112 0.4831 0.0420 Uiso
C41 C -0.1198(2) 0.69375(15) 0.6568(3) 0.0587 Uani
H15 H -0.1118 0.6899 0.7019 0.0700 Uiso
C42 C -0.16591(18) 0.72172(12) 0.5547(3) 0.0356 Uani
H16 H -0.1905 0.7376 0.5275 0.0430 Uiso
C43 C 0.1950(2) 0.72552(15) 0.2928(3) 0.0611 Uani
H17 H 0.1983 0.7487 0.3009 0.0740 Uiso
C44 C 0.2100(3) 0.67931(16) 0.2482(4) 0.0747 Uani
H18 H 0.2247 0.6694 0.2260 0.0900 Uiso
C45 C 0.1701(2) 0.70734(15) 0.3164(4) 0.0672 Uani
H19 H 0.1589 0.7178 0.3426 0.0810 Uiso
C46 C 0.1837(3) 0.65856(16) 0.2689(4) 0.0724 Uani
H20 H 0.1812 0.6354 0.2607 0.0870 Uiso
C47 C 0.1615(2) 0.67343(15) 0.3016(3) 0.0567 Uani
C48 C 0.1326(2) 0.65342(15) 0.3236(3) 0.0635 Uani
H21 H 0.1240 0.6640 0.3526 0.0760 Uiso
C49 C 0.1180(2) 0.62258(15) 0.3065(3) 0.0577 Uani
H22 H 0.1272 0.6118 0.2784 0.0700 Uiso
C50 C 0.0878(2) 0.60272(13) 0.3276(3) 0.0450 Uani
C51 C 0.07518(18) 0.57015(13) 0.3044(3) 0.0390 Uani
H23 H 0.0841 0.5612 0.2744 0.0470 Uiso
C52 C 0.0742(2) 0.61463(14) 0.3726(3) 0.0581 Uani
H24 H 0.0823 0.6365 0.3897 0.0690 Uiso
C53 C 0.04902(17) 0.55085(12) 0.3260(3) 0.0330 Uani
H25 H 0.0407 0.5288 0.3099 0.0390 Uiso
C54 C 0.0487(2) 0.59380(13) 0.3918(3) 0.0500 Uani
H26 H 0.0402 0.6021 0.4227 0.0600 Uiso
C55 C 0.2537(3) 0.4521(3) 0.6469(5) 0.0678 Uani
H27 H 0.2699 0.4301 0.6585 0.0810 Uiso
H28 H 0.2531 0.4599 0.6869 0.0810 Uiso
C56 C 0.2875(3) 0.4763(3) 0.6361(7) 0.0894 Uani
H29 H 0.2716 0.4984 0.6246 0.1070 Uiso
H30 H 0.2887 0.4685 0.5965 0.1070 Uiso
C57 C 0.3417(3) 0.4802(4) 0.6975(6) 0.0977 Uani
H31 H 0.3421 0.4971 0.7286 0.1180 Uiso
H32 H 0.3524 0.4590 0.7225 0.1180 Uiso
C58 C 0.3802(6) 0.4903(8) 0.6778(10) 0.2573 Uani
H33 H 0.3824 0.4723 0.6505 0.3100 Uiso
H34 H 0.3681 0.5104 0.6490 0.3100 Uiso
C59 C 0.4334(6) 0.4974(8) 0.7409(13) 0.3102 Uani
H35 H 0.4567 0.4808 0.7418 0.3760 Uiso
H36 H 0.4326 0.4946 0.7827 0.3760 Uiso
C60 C 0.4536(11) 0.5329(8) 0.741(2) 0.4233 Uani
H37 H 0.4874 0.5351 0.7805 0.6430 Uiso
H38 H 0.4536 0.5363 0.6995 0.6430 Uiso
H39 H 0.4323 0.5495 0.7442 0.6430 Uiso
C61 C 0.2272(2) 0.39756(14) 0.4424(3) 0.0498 Uani
H40 H 0.2014 0.3874 0.3991 0.0600 Uiso
H41 H 0.2175 0.4208 0.4425 0.0600 Uiso
C62 C 0.2769(2) 0.39716(15) 0.4451(3) 0.0565 Uani
H42 H 0.2723 0.4083 0.4041 0.0680 Uiso
H43 H 0.2864 0.3739 0.4441 0.0680 Uiso
C63 C 0.3195(2) 0.41427(16) 0.5083(4) 0.0676 Uani
H44 H 0.3126 0.4383 0.5057 0.0810 Uiso
H45 H 0.3211 0.4055 0.5492 0.0810 Uiso
C64 C 0.3702(3) 0.4090(2) 0.5152(5) 0.1122 Uani
H46 H 0.3768 0.3850 0.5168 0.1350 Uiso
H47 H 0.3688 0.4182 0.4747 0.1350 Uiso
C65 C 0.4143(3) 0.4259(3) 0.5806(6) 0.1632 Uani
H48 H 0.4077 0.4499 0.5790 0.1960 Uiso
H49 H 0.4156 0.4168 0.6212 0.1960 Uiso
C66 C 0.4664(4) 0.4205(4) 0.5881(9) 0.2816 Uani
H50 H 0.4922 0.4313 0.6295 0.4220 Uiso
H51 H 0.4734 0.3968 0.5905 0.4220 Uiso
H52 H 0.4657 0.4300 0.5488 0.4220 Uiso
C67 C -0.2781(2) 0.46365(17) 0.2111(5) 0.0905 Uani
H53 H -0.2887 0.4404 0.1980 0.1090 Uiso
H54 H -0.2900 0.4710 0.2409 0.1090 Uiso
C68 C -0.3029(2) 0.4856(2) 0.1458(4) 0.1019 Uani
H55 H -0.2928 0.4774 0.1146 0.1220 Uiso
H56 H -0.2907 0.5086 0.1585 0.1220 Uiso
C69 C -0.3600(3) 0.4858(3) 0.1082(5) 0.1327 Uani
H57 H -0.3730 0.4636 0.0890 0.1590 Uiso
H58 H -0.3705 0.4911 0.1404 0.1590 Uiso
C70 C -0.3824(4) 0.5133(4) 0.0471(6) 0.1935 Uani
H59 H -0.3761 0.5064 0.0113 0.2320 Uiso
H60 H -0.3667 0.5350 0.0649 0.2320 Uiso
C71 C -0.4394(5) 0.5155(5) 0.0175(9) 0.2595 Uani
H61 H -0.4552 0.4937 0.0002 0.3110 Uiso
H62 H -0.4459 0.5229 0.0528 0.3110 Uiso
C72 C -0.4607(7) 0.5424(6) -0.0441(10) 0.3644 Uani
H63 H -0.4966 0.5443 -0.0654 0.5510 Uiso
H64 H -0.4452 0.5639 -0.0259 0.5510 Uiso
H65 H -0.4531 0.5350 -0.0778 0.5510 Uiso
C73 C -0.2304(7) 0.4103(5) 0.3783(5) 0.0551 Uani
H66 H -0.2664 0.4111 0.3607 0.0660 Uiso
H67 H -0.2188 0.4333 0.3817 0.0660 Uiso
C74 C -0.2033(4) 0.3947(2) 0.4510(5) 0.0828 Uani
H68 H -0.1671 0.3963 0.4712 0.0990 Uiso
H69 H -0.2121 0.3710 0.4475 0.0990 Uiso
C75 C -0.2172(5) 0.4123(2) 0.4989(5) 0.0945 Uani
H70 H -0.2044 0.3989 0.5406 0.1140 Uiso
H71 H -0.2536 0.4132 0.4760 0.1140 Uiso
C76 C -0.1961(6) 0.4479(3) 0.5187(7) 0.0854 Uani
H72 H -0.1598 0.4473 0.5397 0.1030 Uiso
H73 H -0.2104 0.4618 0.4776 0.1030 Uiso
C77 C -0.2089(4) 0.4634(3) 0.5705(6) 0.0794 Uani
H74 H -0.1938 0.4498 0.6122 0.0950 Uiso
H75 H -0.2452 0.4633 0.5500 0.0950 Uiso
C78 C -0.1890(6) 0.4997(3) 0.5891(7) 0.0678 Uani
H76 H -0.1975 0.5089 0.6208 0.1020 Uiso
H77 H -0.1530 0.4997 0.6103 0.1020 Uiso
H78 H -0.2042 0.5132 0.5479 0.1020 Uiso
C79 C 0.06409(19) 0.17513(14) 0.3535(3) 0.0483 Uani
H79 H 0.0444 0.1917 0.3179 0.0580 Uiso
H80 H 0.0416 0.1568 0.3479 0.0580 Uiso
C80 C 0.10470(19) 0.16154(13) 0.3427(3) 0.0453 Uani
H81 H 0.1248 0.1803 0.3429 0.0540 Uiso
H82 H 0.1268 0.1470 0.3813 0.0540 Uiso
C81 C 0.0848(2) 0.14177(14) 0.2757(3) 0.0506 Uani
H83 H 0.0599 0.1554 0.2373 0.0610 Uiso
H84 H 0.0680 0.1215 0.2776 0.0610 Uiso
C82 C 0.1260(2) 0.13185(16) 0.2625(3) 0.0640 Uani
H85 H 0.1508 0.1182 0.3010 0.0780 Uiso
H86 H 0.1429 0.1521 0.2610 0.0780 Uiso
C83 C 0.1070(3) 0.11231(19) 0.1960(4) 0.0832 Uani
H87 H 0.0956 0.0902 0.2003 0.1000 Uiso
H88 H 0.0784 0.1241 0.1582 0.1000 Uiso
C84 C 0.1495(3) 0.1083(2) 0.1793(4) 0.1356 Uani
H89 H 0.1794 0.0994 0.2191 0.2030 Uiso
H90 H 0.1383 0.0931 0.1411 0.2030 Uiso
H91 H 0.1569 0.1299 0.1676 0.2030 Uiso
C85 C -0.008(2) 0.1645(5) 0.5045(15) 0.0663 Uani
H92 H -0.0252 0.1428 0.4909 0.0800 Uiso
H93 H 0.0273 0.1607 0.5233 0.0800 Uiso
C86 C -0.0151(5) 0.1796(3) 0.5623(6) 0.0884 Uani
H94 H 0.0069 0.1991 0.5806 0.1060 Uiso
H95 H -0.0495 0.1879 0.5400 0.1060 Uiso
C87 C -0.0054(6) 0.1578(4) 0.6258(6) 0.1230 Uani
H96 H 0.0272 0.1471 0.6442 0.1480 Uiso
H97 H -0.0304 0.1399 0.6076 0.1480 Uiso
C88 C -0.0057(8) 0.1734(4) 0.6884(7) 0.1261 Uani
H98 H 0.0211 0.1900 0.7086 0.1520 Uiso
H99 H -0.0372 0.1857 0.6695 0.1520 Uiso
C89 C -0.0000 0.1517(5) 0.7500 0.2663 Uani
C90 C 0.0529(7) 0.1416(17) 0.813(2) 0.6747 Uani
H102 H 0.0486 0.1265 0.8426 1.0100 Uiso
H103 H 0.0721 0.1306 0.7966 1.0100 Uiso
H104 H 0.0704 0.1615 0.8384 1.0100 Uiso
N2 N -0.01569(13) 0.56413(9) 0.4566(2) 0.0255 Uani
N3 N -0.15659(14) 0.71581(10) 0.6175(2) 0.0341 Uani
N4 N 0.21478(15) 0.71223(11) 0.2589(2) 0.0411 Uani
N5 N 0.03517(14) 0.56220(9) 0.3687(2) 0.0297 Uani
O2 O 0.04933(12) 0.48532(8) 0.3946(2) 0.0388 Uani
O3 O 0.06413(13) 0.50963(8) 0.49058(19) 0.0417 Uani
O4 O 0.28592(12) 0.28222(8) 0.59740(17) 0.0381 Uani
O5 O 0.25051(12) 0.29678(8) 0.65752(18) 0.0380 Uani
O6 O -0.05575(12) 0.50283(7) 0.35170(18) 0.0361 Uani
O7 O -0.11099(13) 0.54475(9) 0.29771(19) 0.0454 Uani
O8 O -0.19442(12) 0.30038(8) 0.21709(18) 0.0392 Uani
O9 O -0.23245(12) 0.28423(8) 0.27326(18) 0.0427 Uani
O10 O 0.23196(12) 0.22231(8) 0.58359(18) 0.0426 Uani
O11 O 0.19364(12) 0.23761(8) 0.63973(18) 0.0407 Uani
O12 O -0.14019(11) 0.23923(8) 0.23665(17) 0.0361 Uani
O13 O 0.32266(12) 0.27824(9) 0.79424(17) 0.0402 Uani
S1 S 0.13047(5) 0.43390(3) 0.46213(7) 0.0373 Uani
S2 S 0.21906(5) 0.36371(3) 0.60323(7) 0.0403 Uani
S3 S -0.12664(5) 0.44883(3) 0.32121(7) 0.0369 Uani
S4 S -0.18912(5) 0.37193(3) 0.24543(7) 0.0349 Uani
S5 S 0.09099(5) 0.21804(3) 0.53168(7) 0.0392 Uani
S6 S -0.03710(4) 0.22094(3) 0.34198(7) 0.0334 Uani
Zn1 Zn 0.00362(2) 0.530389(12) 0.40658(3) 0.0262 Uani
Zn2 Zn 0.252335(19) 0.261263(14) 0.72454(3) 0.0311 Uani
Zn3 Zn 0.303071(19) 0.237821(13) 0.65207(3) 0.0299 Uani
C30G C 0.35972(18) 0.27464(12) 0.7866(3) 0.0348 Uani
C88A C 0.0057(8) 0.1734(4) 0.8116(7) 0.1261 Uani
C90A C -0.0529(7) 0.1416(17) 0.687(2) 0.6747 Uani
N3B N 0.34341(14) 0.21581(10) 0.6175(2) 0.0341 Uani
N4E N 0.21478(15) 0.28777(11) 0.7589(2) 0.0411 Uani
O8G O 0.30558(12) 0.19962(8) 0.71709(18) 0.0392 Uani
O9G O 0.26755(12) 0.21577(8) 0.77326(18) 0.0427 Uani
O12G O 0.35981(11) 0.26077(8) 0.73665(17) 0.0361 Uani
O13G O -0.17734(12) 0.22176(9) 0.29424(17) 0.0402 Uani
Zn2E Zn 0.252335(19) 0.738737(14) 0.22454(3) 0.0311 Uani
Zn2G Zn -0.247665(19) 0.238737(14) 0.22454(3) 0.0311 Uani
Zn3B Zn -0.196929(19) 0.737821(13) 0.65207(3) 0.0299 Uani
Zn3G Zn -0.196929(19) 0.262179(13) 0.15207(3) 0.0299 Uani
loop_
_atom_site_aniso_label
_atom_site_aniso_U_11
_atom_site_aniso_U_22
_atom_site_aniso_U_33
_atom_site_aniso_U_23
_atom_site_aniso_U_13
_atom_site_aniso_U_12
C91 0.235(11) 0.096(7) 0.054(5) -0.008(5) 0.065(7) -0.034(7)
N1 0.088(4) 0.052(3) 0.052(4) 0.003(3) 0.030(3) -0.011(3)
C92 0.061(4) 0.081(5) 0.051(4) 0.007(4) 0.023(4) -0.008(3)
C93 0.083(5) 0.067(5) 0.046(4) 0.014(4) 0.028(4) 0.015(4)
O1 0.143(5) 0.085(4) 0.078(4) 0.025(3) 0.059(4) 0.008(3)
C94 0.137(8) 0.108(7) 0.165(11) -0.068(7) 0.047(8) 0.017(6)
C95 0.122(8) 0.134(8) 0.130(9) 0.049(7) 0.025(7) -0.053(7)
C96 0.135(8) 0.071(6) 0.070(6) -0.003(5) 0.031(6) -0.030(6)
N6 0.101(5) 0.097(5) 0.090(5) -0.009(4) 0.040(5) -0.026(4)
O15 0.169(6) 0.086(4) 0.087(4) -0.032(3) 0.066(4) -0.036(4)
C97 0.096(6) 0.098(6) 0.086(6) -0.008(5) 0.034(5) 0.027(5)
C98 0.122(8) 0.163(10) 0.219(13) 0.097(10) 0.091(9) 0.026(7)
C99 0.079(6) 0.114(8) 0.113(8) -0.019(6) 0.041(5) 0.018(5)
N7 0.066(4) 0.088(5) 0.116(6) 0.011(5) 0.040(4) 0.011(4)
O14 0.167(7) 0.177(7) 0.199(9) -0.046(6) 0.120(7) -0.003(6)
O17 0.112(8) 0.052(6) 0.149(11) -0.018(6) 0.070(8) -0.023(5)
C1 0.045 0.018 0.048 0.006 0.034 0.006
C2 0.05 0.033 0.042 0.01 0.029 0.014
C3 0.115 0.054 0.048 -0.005 0.032 0.049
C4 0.1 0.065 0.045 -0.011 0.001 0.052
C5 0.044 0.033 0.039 0.001 0.017 0.017
C6 0.039 0.034 0.036 -0.001 0.015 0.008
C7 0.032 0.049 0.03 -0.001 0.009 0.011
C8 0.035 0.036 0.035 -0.001 0.015 0.019
C9 0.033 0.034 0.034 -0.003 0.015 0.01
C10 0.028 0.034 0.035 -0.002 0.006 0.013
C11 0.046 0.028 0.048 -0.006 0.034 -0.01
C12 0.036 0.02 0.051 0.001 0.027 0
C13 0.046 0.035 0.07 0.008 0.032 0.005
C14 0.032 0.04 0.081 0.007 0.027 -0.001
C15 0.033 0.037 0.053 -0.004 0.024 -0.011
C16 0.025 0.037 0.049 0.004 0.019 -0.007
C17 0.044 0.041 0.059 -0.008 0.032 -0.013
C18 0.042 0.037 0.048 -0.007 0.028 -0.021
C19 0.029 0.033 0.033 0 0.009 -0.01
C20 0.022 0.043 0.026 0.003 0.001 -0.011
C21 0.036 0.024 0.036 0.004 0.009 0.014
C22 0.025 0.028 0.042 0.003 0.007 0.007
C23 0.021 0.038 0.043 -0.006 0.004 0.007
C24 0.038 0.031 0.041 0 0.013 0.011
C25 0.033 0.032 0.033 0.002 0.008 0.004
C26 0.029 0.035 0.028 0 0.007 0.004
C27 0.042 0.047 0.034 0.012 0.013 0.001
C28 0.034 0.043 0.036 0.008 0.013 -0.007
C29 0.026 0.036 0.036 -0.004 0.015 -0.007
C30 0.029 0.033 0.028 -0.005 0.005 -0.008
C31 0.027 0.023 0.041 0.008 0.021 0.007
C32 0.053 0.039 0.027 0.005 0.017 0.026
C33 0.031 0.037 0.03 0.003 0.019 0.009
C34 0.057 0.041 0.033 0.005 0.016 0.035
C35 0.033 0.031 0.032 0.004 0.02 0.011
C36 0.033 0.043 0.03 -0.001 0.016 0.015
C37 0.037 0.043 0.033 0 0.021 0.012
C38 0.039 0.037 0.031 -0.005 0.014 0.016
C39 0.063 0.075 0.031 0.012 0.018 0.052
C40 0.038 0.033 0.031 0.004 0.017 0.016
C41 0.059 0.078 0.031 0.007 0.018 0.052
C42 0.03 0.029 0.043 0.001 0.016 0.013
C43 0.074 0.049 0.079 -0.006 0.053 -0.027
C44 0.102 0.054 0.103 -0.006 0.078 -0.026
C45 0.095 0.049 0.087 -0.016 0.068 -0.033
C46 0.107 0.051 0.09 -0.007 0.073 -0.029
C47 0.068 0.055 0.071 0.004 0.053 -0.015
C48 0.087 0.054 0.077 0 0.062 -0.016
C49 0.073 0.056 0.057 -0.008 0.043 -0.03
C50 0.06 0.044 0.048 -0.01 0.04 -0.023
C51 0.045 0.047 0.034 -0.005 0.027 -0.014
C52 0.101 0.033 0.076 -0.019 0.071 -0.032
C53 0.04 0.025 0.042 -0.002 0.027 -0.003
C54 0.081 0.034 0.064 -0.011 0.058 -0.018
C55 0.075 0.055 0.047 -0.001 0.014 0.023
C56 0.024 0.092 0.096 -0.029 -0.007 0.007
C57 0.019 0.143 0.097 -0.053 0.007 -0.012
C58 0.111 0.32 0.28 -0.03 0.061 -0.007
C59 0.101 0.4 0.37 -0.07 0.083 -0.122
C60 0.28 0.55 0.43 -0.13 0.18 -0.08
C61 0.055 0.05 0.041 0.005 0.023 0.02
C62 0.064 0.056 0.056 0.004 0.036 0.014
C63 0.074 0.054 0.082 0.016 0.046 0.012
C64 0.078 0.109 0.156 0.058 0.066 0.017
C65 0.06 0.159 0.197 0.058 0.017 -0.013
C66 0.067 0.258 0.43 0.19 0.069 0.03
C67 0.038 0.064 0.15 0.015 0.036 -0.005
C68 0.036 0.135 0.1 -0.011 0.012 0.007
C69 0.059 0.169 0.131 0.005 0.023 0.024
C70 0.095 0.278 0.107 0.024 -0.016 0.058
C71 0.113 0.347 0.217 0.082 0.017 0.091
C72 0.25 0.54 0.23 0.19 0.076 0.17
C73 0.075 0.065 0.048 -0.019 0.048 -0.02
C74 0.121 0.087 0.061 -0.015 0.062 -0.012
C75 0.141 0.085 0.071 -0.001 0.065 -0.028
C76 0.072 0.094 0.059 -0.008 0.013 0.004
C77 0.094 0.094 0.046 -0.013 0.034 0.01
C78 0.089 0.079 0.04 -0.012 0.037 -0.004
C79 0.033 0.054 0.039 -0.012 0.006 0.004
C80 0.042 0.04 0.041 -0.004 0.013 0.015
C81 0.044 0.047 0.037 -0.008 0.005 0.006
C82 0.055 0.064 0.048 -0.005 0.01 0.025
C83 0.079 0.091 0.061 -0.015 0.024 0.028
C84 0.137 0.172 0.075 -0.002 0.04 0.087
C85 0.062 0.073 0.048 0.018 0.018 0
C86 0.092 0.1 0.038 0.037 0.01 0.011
C87 0.091 0.168 0.088 0.06 0.032 0.019
C88 0.169 0.119 0.13 -0.002 0.106 -0.029
C89 0.172 0.23 0.31 0 0.067 0
C90 0.38 0.63 0.66 0.04 0.03 0
N2 0.031 0.02 0.032 0.0061 0.021 0.0048
N3 0.032 0.038 0.025 -0.002 0.01 0.0171
N4 0.037 0.038 0.053 0.002 0.027 -0.011
N5 0.04 0.019 0.038 -0.0085 0.026 -0.008
O2 0.035 0.0283 0.053 0.003 0.023 0.0033
O3 0.057 0.03 0.056 0.0078 0.042 0.0169
O4 0.0375 0.035 0.038 0.0005 0.0172 0.0199
O5 0.038 0.035 0.04 0.0047 0.0199 0.0141
O6 0.035 0.0249 0.058 -0.0077 0.031 -0.0089
O7 0.056 0.031 0.059 0.005 0.037 -0.0059
O8 0.035 0.037 0.04 -0.0026 0.0159 -0.0114
O9 0.043 0.036 0.043 0.0011 0.0184 -0.0159
O10 0.029 0.046 0.04 -0.0071 0.0094 0.0118
O11 0.0282 0.046 0.034 -0.0068 0.0068 0.0051
O12 0.0277 0.043 0.032 0.0089 0.0118 -0.0044
O13 0.022 0.056 0.038 -0.0077 0.0126 0.0078
S1 0.0355 0.0308 0.0445 0.001 0.0203 0.0103
S2 0.0436 0.0377 0.0391 0.0023 0.0214 0.0206
S3 0.0308 0.0271 0.0564 0.0015 0.0255 -0.005
S4 0.0325 0.0354 0.0355 0.0025 0.0169 -0.0094
S5 0.0287 0.0431 0.0349 -0.0002 0.0092 0.0059
S6 0.0233 0.0382 0.0301 0.0019 0.0082 -0.002
Zn1 0.0346 0.0164 0.0385 0.0004 0.0267 -0.0002
Zn2 0.0236 0.0333 0.0321 -0.006 0.0116 0.011
Zn3 0.0232 0.0323 0.0282 -0.004 0.0093 0.013
C30G 0.029 0.033 0.028 0.005 0.005 0.008
C88A 0.169 0.119 0.13 0.002 0.106 0.029
C90A 0.38 0.63 0.66 -0.04 0.03 0
N3B 0.032 0.038 0.025 -0.002 0.01 0.0171
N4E 0.037 0.038 0.053 -0.002 0.027 0.011
O8G 0.035 0.037 0.04 0.0026 0.0159 0.0114
O9G 0.043 0.036 0.043 -0.0011 0.0184 0.0159
O12G 0.0277 0.043 0.032 -0.0089 0.0118 0.0044
O13G 0.022 0.056 0.038 0.0077 0.0126 -0.0078
Zn2E 0.0236 0.0333 0.0321 0.006 0.0116 -0.011
Zn2G 0.0236 0.0333 0.0321 0.006 0.0116 -0.011
Zn3B 0.0232 0.0323 0.0282 -0.004 0.0093 0.013
Zn3G 0.0232 0.0323 0.0282 0.004 0.0093 -0.013
loop_
_geom_bond_atom_site_label_1
_geom_bond_atom_site_label_2
_geom_bond_site_symmetry_1
_geom_bond_site_symmetry_2
C1 C2 1_555 1_555
C2 C3 1_555 1_555
C3 H1 1_555 1_555
C4 C3 1_555 1_555
C5 C4 1_555 1_555
C6 C5 1_555 1_555
C7 C6 1_555 1_555
C8 C7 1_555 1_555
H2 C8 1_555 1_555
C9 C8 1_555 1_555
C10 C9 1_555 1_555
C11 C12 1_555 1_555
C12 C13 1_555 1_555
C13 H3 1_555 1_555
C14 C13 1_555 1_555
C15 C14 1_555 1_555
C16 C15 1_555 1_555
C17 C16 1_555 1_555
C18 C17 1_555 1_555
H4 C18 1_555 1_555
C19 C18 1_555 1_555
C20 C19 1_555 1_555
C21 C22 1_555 1_555
C22 C23 1_555 1_555
C23 H5 1_555 1_555
C24 C23 1_555 1_555
C25 C24 1_555 1_555
C26 C25 1_555 1_555
C27 C26 1_555 1_555
C28 C27 1_555 1_555
H6 C28 1_555 1_555
C29 C28 1_555 1_555
C30 C29 1_555 1_555
C31 H7 1_555 1_555
C32 H8 1_555 1_555
C33 C31 1_555 1_555
H9 C33 1_555 1_555
C34 C32 1_555 1_555
H10 C34 1_555 1_555
C35 C33 1_555 1_555
C36 C35 1_555 1_555
H11 C36 1_555 1_555
C37 C36 1_555 1_555
H12 C37 1_555 1_555
C38 C37 1_555 1_555
C39 C38 1_555 1_555
H13 C39 1_555 1_555
C40 C38 1_555 1_555
H14 C40 1_555 1_555
C41 C39 1_555 1_555
H15 C41 1_555 1_555
C42 C40 1_555 1_555
H16 C42 1_555 1_555
C43 H17 1_555 1_555
C44 H18 1_555 1_555
C45 C43 1_555 1_555
H19 C45 1_555 1_555
C46 C44 1_555 1_555
H20 C46 1_555 1_555
C47 C45 1_555 1_555
C48 C47 1_555 1_555
H21 C48 1_555 1_555
C49 C48 1_555 1_555
H22 C49 1_555 1_555
C50 C49 1_555 1_555
C51 C50 1_555 1_555
H23 C51 1_555 1_555
C52 C50 1_555 1_555
H24 C52 1_555 1_555
C53 C51 1_555 1_555
H25 C53 1_555 1_555
C54 C52 1_555 1_555
H26 C54 1_555 1_555
C55 C4 1_555 1_555
H27 C55 1_555 1_555
H28 C55 1_555 1_555
C56 C55 1_555 1_555
H29 C56 1_555 1_555
H30 C56 1_555 1_555
C57 C56 1_555 1_555
H31 C57 1_555 1_555
H32 C57 1_555 1_555
C58 C57 1_555 1_555
H33 C58 1_555 1_555
H34 C58 1_555 1_555
C59 C58 1_555 1_555
H35 C59 1_555 1_555
H36 C59 1_555 1_555
C60 C59 1_555 1_555
H37 C60 1_555 1_555
H38 C60 1_555 1_555
H39 C60 1_555 1_555
C61 C7 1_555 1_555
H40 C61 1_555 1_555
H41 C61 1_555 1_555
C62 C61 1_555 1_555
H42 C62 1_555 1_555
H43 C62 1_555 1_555
C63 C62 1_555 1_555
H44 C63 1_555 1_555
H45 C63 1_555 1_555
C64 C63 1_555 1_555
H46 C64 1_555 1_555
H47 C64 1_555 1_555
C65 C64 1_555 1_555
H48 C65 1_555 1_555
H49 C65 1_555 1_555
C66 C65 1_555 1_555
H50 C66 1_555 1_555
H51 C66 1_555 1_555
H52 C66 1_555 1_555
C67 C14 1_555 1_555
H53 C67 1_555 1_555
H54 C67 1_555 1_555
C68 C67 1_555 1_555
H55 C68 1_555 1_555
H56 C68 1_555 1_555
C69 C68 1_555 1_555
H57 C69 1_555 1_555
H58 C69 1_555 1_555
C70 C69 1_555 1_555
H59 C70 1_555 1_555
H60 C70 1_555 1_555
C71 C70 1_555 1_555
H61 C71 1_555 1_555
H62 C71 1_555 1_555
C72 C71 1_555 1_555
H63 C72 1_555 1_555
H64 C72 1_555 1_555
H65 C72 1_555 1_555
C73 C17 1_555 1_555
H66 C73 1_555 1_555
H67 C73 1_555 1_555
C74 C73 1_555 1_555
H68 C74 1_555 1_555
H69 C74 1_555 1_555
C75 C74 1_555 1_555
H70 C75 1_555 1_555
H71 C75 1_555 1_555
C76 C75 1_555 1_555
H72 C76 1_555 1_555
H73 C76 1_555 1_555
C77 C76 1_555 1_555
H74 C77 1_555 1_555
H75 C77 1_555 1_555
C78 C77 1_555 1_555
H76 C78 1_555 1_555
H77 C78 1_555 1_555
H78 C78 1_555 1_555
C79 C24 1_555 1_555
H79 C79 1_555 1_555
H80 C79 1_555 1_555
C80 C79 1_555 1_555
H81 C80 1_555 1_555
H82 C80 1_555 1_555
C81 C80 1_555 1_555
H83 C81 1_555 1_555
H84 C81 1_555 1_555
C82 C81 1_555 1_555
H85 C82 1_555 1_555
H86 C82 1_555 1_555
C83 C82 1_555 1_555
H87 C83 1_555 1_555
H88 C83 1_555 1_555
C84 C83 1_555 1_555
H89 C84 1_555 1_555
H90 C84 1_555 1_555
H91 C84 1_555 1_555
C85 C27 1_555 1_555
H92 C85 1_555 1_555
H93 C85 1_555 1_555
C86 C85 1_555 1_555
H94 C86 1_555 1_555
H95 C86 1_555 1_555
C87 C86 1_555 1_555
H96 C87 1_555 1_555
H97 C87 1_555 1_555
C88 C87 1_555 1_555
H98 C88 1_555 1_555
H99 C88 1_555 1_555
C89 C88 1_555 1_555
C90 C89 1_555 1_555
H102 C90 1_555 1_555
H103 C90 1_555 1_555
H104 C90 1_555 1_555
C91 H105 1_555 1_555
H106 C91 1_555 1_555
H107 C91 1_555 1_555
N1 C91 1_555 1_555
C92 N1 1_555 1_555
H108 C92 1_555 1_555
H109 C92 1_555 1_555
H110 C92 1_555 1_555
C93 N1 1_555 1_555
H111 C93 1_555 1_555
O1 C93 1_555 1_555
C94 H112 1_555 1_555
H113 C94 1_555 1_555
H114 C94 1_555 1_555
C95 H115 1_555 1_555
H116 C95 1_555 1_555
H117 C95 1_555 1_555
C96 H118 1_555 1_555
C97 H119 1_555 1_555
H120 C97 1_555 1_555
H121 C97 1_555 1_555
C98 H122 1_555 1_555
H123 C98 1_555 1_555
H124 C98 1_555 1_555
C99 H125 1_555 1_555
N2 C31 1_555 1_555
N3 C41 1_555 1_555
N4 C43 1_555 1_555
N5 C53 1_555 1_555
N6 C94 1_555 1_555
N7 C97 1_555 1_555
O2 C1 1_555 1_555
O3 C1 1_555 1_555
O4 C10 1_555 1_555
O5 C10 1_555 1_555
O6 C11 1_555 1_555
O7 C11 1_555 1_555
O8 C20 1_555 1_555
O9 C20 1_555 1_555
O10 C21 1_555 1_555
O11 C21 1_555 1_555
O12 C30 1_555 1_555
O13 Zn2 1_555 1_555
O14 C99 1_555 1_555
O15 C96 1_555 1_555
S1 C2 1_555 1_555
S2 C6 1_555 1_555
S3 C12 1_555 1_555
S4 C16 1_555 1_555
S5 C22 1_555 1_555
S6 C26 1_555 1_555
Zn1 N2 1_555 1_555
Zn2 O5 1_555 1_555
Zn3 O4 1_555 1_555
C30G O13 1_555 1_555
C88A C89 1_555 1_555
C90A C89 1_555 1_555
N3B Zn3 1_555 1_555
N4E Zn2 1_555 1_555
O8G Zn3 1_555 1_555
O9G Zn2 1_555 1_555
O12G Zn3 1_555 1_555
O13G C30 1_555 1_555
Zn2E N4 1_555 1_555
Zn2G O9 1_555 1_555
Zn3B N3 1_555 1_555
Zn3G O8 1_555 1_555
C5 S1 1_555 1_555
C9 S2 1_555 1_555
C15 S3 1_555 1_555
C19 S4 1_555 1_555
C25 S5 1_555 1_555
C29 S6 1_555 1_555
C32 N2 1_555 1_555
C34 C35 1_555 1_555
C42 N3 1_555 1_555
C44 N4 1_555 1_555
C46 C47 1_555 1_555
C54 N5 1_555 1_555
C95 N6 1_555 1_555
C96 N6 1_555 1_555
C98 N7 1_555 1_555
C99 N7 1_555 1_555
N5 Zn1 1_555 1_555
O3 Zn1 1_555 1_555
O6 Zn1 1_555 1_555
O10 Zn3 1_555 1_555
O11 Zn2 1_555 1_555
O12 Zn3G 1_555 1_555
C30G O12G 1_555 1_555
O13G Zn2G 1_555 1_555

#END
