
#######################################################################
#
#                 Cambridge Crystallographic Data Centre
#                                CCDC 
#
#######################################################################
#
# If this CIF has been generated from an entry in the Cambridge 
# Structural Database, then it will include bibliographic, chemical, 
# crystal, experimental, refinement or atomic coordinate data resulting 
# from the CCDC's data processing and validation procedures.
#
#######################################################################

data_WECJAR
_chemical_formula_moiety         '(C32 H18 N2 O8 S4 Zn2)n'
_symmetry_cell_setting           monoclinic
_symmetry_space_group_name_H-M   'C 2/c'
_symmetry_Int_Tables_number      15
_space_group_name_Hall           '-C 2yc'
loop_
_symmetry_equiv_pos_site_id
_symmetry_equiv_pos_as_xyz
1 x,y,z
2 -x,y,1/2-z
3 1/2+x,1/2+y,z
4 1/2-x,1/2+y,1/2-z
5 -x,-y,-z
6 x,-y,1/2+z
7 1/2-x,1/2-y,-z
8 1/2+x,1/2-y,1/2+z
_cell_length_a                   17.1764(8)
_cell_length_b                   22.0141(12)
_cell_length_c                   9.9312(5)
_cell_angle_alpha                90
_cell_angle_beta                 96.535(2)
_cell_angle_gamma                90
_cell_volume                     3730.82
loop_
_atom_site_label
_atom_site_type_symbol
_atom_site_fract_x
_atom_site_fract_y
_atom_site_fract_z
C1 C 0.08163(14) 0.36112(12) 0.1794(3)
C2 C 0.12023(15) 0.42016(12) 0.1719(3)
C3 C 0.10091(16) 0.46779(13) 0.0864(3)
H1 H 0.0618 0.4660 0.0136
C4 C 0.14678(16) 0.52015(13) 0.1205(3)
H2 H 0.1408 0.5565 0.0728
C5 C 0.20107(16) 0.51161(12) 0.2317(3)
C6 C 0.25870(16) 0.55448(13) 0.2948(3)
C7 C 0.28721(18) 0.56132(13) 0.4277(3)
H3 H 0.2722 0.5369 0.4966
C8 C 0.34136(17) 0.60881(13) 0.4503(3)
H4 H 0.3656 0.6195 0.5355
C9 C 0.35468(15) 0.63771(12) 0.3330(3)
C10 C 0.40730(15) 0.68912(12) 0.3100(3)
C11 C 0.6575(3) 0.73274(17) 0.6103(4)
H5 H 0.6700 0.7056 0.5442
C12 C 0.58695(17) 0.81203(16) 0.6730(3)
H6 H 0.5489 0.8415 0.6507
C13 C 0.7003(3) 0.72978(16) 0.7391(4)
H7 H 0.7403 0.7015 0.7570
C14 C 0.62576(18) 0.81267(16) 0.8023(3)
H8 H 0.6141 0.8419 0.8644
C15 C 0.68260(17) 0.76891(13) 0.8382(3)
C16 C 0.72234(17) 0.76884(14) 0.9778(3)
H9 H 0.7069 0.7976 1.0380
N1 N 0.60032(13) 0.77212(10) 0.5782(2)
O1 O 0.44288(10) 0.71512(8) 0.41222(19)
O2 O 0.41152(10) 0.70192(8) 0.18759(19)
O3 O 0.10159(10) 0.32863(8) 0.28218(19)
O4 O 0.03017(10) 0.34734(8) 0.08247(19)
S1 S 0.19580(4) 0.43900(3) 0.29507(7)
S2 S 0.29978(4) 0.60642(3) 0.19408(7)
Zn1 Zn 0.535476(16) 0.771982(13) 0.39496(3)
C1A C 0.91837(14) 0.36112(12) 0.3206(3)
C2A C 0.87977(15) 0.42016(12) 0.3281(3)
C3A C 0.89909(16) 0.46779(13) 0.4136(3)
H1A H 0.9382 0.4660 0.4864
C4A C 0.85322(16) 0.52015(13) 0.3795(3)
H2A H 0.8592 0.5565 0.4272
C5A C 0.79893(16) 0.51161(12) 0.2683(3)
C6A C 0.74130(16) 0.55448(13) 0.2052(3)
C7A C 0.71279(18) 0.56132(13) 0.0723(3)
H3A H 0.7278 0.5369 0.0034
C8A C 0.65864(17) 0.60881(13) 0.0497(3)
H4A H 0.6344 0.6195 -0.0355
C9A C 0.64532(15) 0.63771(12) 0.1670(3)
C10A C 0.59270(15) 0.68912(12) 0.1900(3)
C11F C 0.8425(3) 0.76726(17) 1.3897(4)
H5F H 0.8300 0.7944 1.4558
C12F C 0.91305(17) 0.68797(16) 1.3270(3)
H6F H 0.9511 0.6585 1.3493
C13F C 0.7997(3) 0.77022(16) 1.2609(4)
H7F H 0.7597 0.7985 1.2430
C14F C 0.87424(18) 0.68733(16) 1.1977(3)
H8F H 0.8859 0.6581 1.1356
C15F C 0.81740(17) 0.73109(13) 1.1618(3)
C16F C 0.77766(17) 0.73116(14) 1.0222(3)
H9F H 0.7931 0.7024 0.9620
N1F N 0.89968(13) 0.72788(10) 1.4218(2)
N1A N 0.39968(13) 0.77212(10) -0.0782(2)
O1A O 0.55712(10) 0.71512(8) 0.08778(19)
O2A O 0.58848(10) 0.70192(8) 0.31241(19)
O3A O 0.89841(10) 0.32863(8) 0.21782(19)
O3B O 0.60159(10) 0.82863(8) 0.28218(19)
O3C O 0.39841(10) 0.82863(8) 0.21782(19)
O4A O 0.96983(10) 0.34734(8) 0.41753(19)
O4B O 0.53017(10) 0.84734(8) 0.08247(19)
O4C O 0.46983(10) 0.84734(8) 0.41753(19)
S1A S 0.80420(4) 0.43900(3) 0.20493(7)
S2A S 0.70022(4) 0.60642(3) 0.30592(7)
Zn1A Zn 0.464524(16) 0.771982(13) 0.10504(3)
Zn1B Zn 0.035476(16) 0.271982(13) 0.39496(3)
Zn1B_2 Zn 1.035476(16) 0.271982(13) 0.39496(3)
Zn1C Zn -0.035476(16) 0.271982(13) 0.10504(3)
Zn1C_2 Zn 0.964524(16) 0.271982(13) 0.10504(3)
Zn1F Zn 0.964524(16) 0.728018(13) 1.60504(3)
loop_
_geom_bond_atom_site_label_1
_geom_bond_atom_site_label_2
_geom_bond_site_symmetry_1
_geom_bond_site_symmetry_2
C1 C2 1_555 1_555
C2 C3 1_555 1_555
C3 H1 1_555 1_555
C4 C3 1_555 1_555
H2 C4 1_555 1_555
C5 C4 1_555 1_555
C6 C5 1_555 1_555
C7 C6 1_555 1_555
H3 C7 1_555 1_555
C8 C7 1_555 1_555
H4 C8 1_555 1_555
C9 C8 1_555 1_555
C10 C9 1_555 1_555
C11 H5 1_555 1_555
C12 H6 1_555 1_555
C13 C11 1_555 1_555
H7 C13 1_555 1_555
C14 C12 1_555 1_555
H8 C14 1_555 1_555
C15 C13 1_555 1_555
C16 C15 1_555 1_555
H9 C16 1_555 1_555
N1 C11 1_555 1_555
O1 C10 1_555 1_555
O2 C10 1_555 1_555
O3 C1 1_555 1_555
O4 C1 1_555 1_555
S1 C2 1_555 1_555
S2 C6 1_555 1_555
Zn1 N1 1_555 1_555
C1A C2A 1_555 1_555
C2A C3A 1_555 1_555
C3A H1A 1_555 1_555
C4A C3A 1_555 1_555
H2A C4A 1_555 1_555
C5A C4A 1_555 1_555
C6A C5A 1_555 1_555
C7A C6A 1_555 1_555
H3A C7A 1_555 1_555
C8A C7A 1_555 1_555
H4A C8A 1_555 1_555
C9A C8A 1_555 1_555
C10A C9A 1_555 1_555
C11F H5F 1_555 1_555
C12F H6F 1_555 1_555
C13F C11F 1_555 1_555
H7F C13F 1_555 1_555
C14F C12F 1_555 1_555
H8F C14F 1_555 1_555
C15F C13F 1_555 1_555
C16F C16 1_555 1_555
H9F C16F 1_555 1_555
N1F C11F 1_555 1_555
N1A Zn1A 1_555 1_555
O1A C10A 1_555 1_555
O2A Zn1 1_555 1_555
O3A C1A 1_555 1_555
O3B Zn1 1_555 1_555
O3C Zn1A 1_555 1_555
O4A C1A 1_555 1_555
O4B Zn1A 1_555 1_555
O4C Zn1 1_555 1_555
S1A C2A 1_555 1_555
S2A C6A 1_555 1_555
Zn1A O2 1_555 1_555
Zn1B O3 1_555 1_555
Zn1B_2 O4A 1_555 1_555
Zn1C O4 1_555 1_555
Zn1C_2 O3A 1_555 1_555
Zn1F N1F 1_555 1_555
C5 S1 1_555 1_555
C9 S2 1_555 1_555
C12 N1 1_555 1_555
C14 C15 1_555 1_555
O1 Zn1 1_555 1_555
C5A S1A 1_555 1_555
C9A S2A 1_555 1_555
C10A O2A 1_555 1_555
C12F N1F 1_555 1_555
C14F C15F 1_555 1_555
C15F C16F 1_555 1_555
O1A Zn1A 1_555 1_555

#END
