
#######################################################################
#
#                 Cambridge Crystallographic Data Centre
#                                CCDC 
#
#######################################################################
#
# If this CIF has been generated from an entry in the Cambridge 
# Structural Database, then it will include bibliographic, chemical, 
# crystal, experimental, refinement or atomic coordinate data resulting 
# from the CCDC's data processing and validation procedures.
#
#######################################################################

data_AGABIU
_chemical_formula_moiety         '(C30 H34 Li5 N6 Ni2 O29 3-)n'
_symmetry_cell_setting           hexagonal
_symmetry_space_group_name_H-M   'P 63/m'
_symmetry_Int_Tables_number      176
_space_group_name_Hall           '-P 6c'
loop_
_symmetry_equiv_pos_site_id
_symmetry_equiv_pos_as_xyz
1 x,y,z
2 x-y,x,1/2+z
3 -y,x-y,z
4 -x+y,-x,z
5 y,-x+y,1/2+z
6 -x,-y,1/2+z
7 -x,-y,-z
8 -x+y,-x,1/2-z
9 y,-x+y,-z
10 x-y,x,-z
11 -y,x-y,1/2-z
12 x,y,1/2-z
_cell_length_a                   18.605(2)
_cell_length_b                   18.605(2)
_cell_length_c                   14.9040(12)
_cell_angle_alpha                90
_cell_angle_beta                 90
_cell_angle_gamma                120
_cell_volume                     4467.79
loop_
_atom_site_label
_atom_site_type_symbol
_atom_site_fract_x
_atom_site_fract_y
_atom_site_fract_z
_atom_site_U_iso_or_equiv
_atom_site_thermal_displace_type
Ni1 Ni 0.3333 0.6667 0.0200 0.0455 Uani
O1 O 0.4937 0.9128 0.0829 0.0766 Uani
O2 O 0.4093 0.9019 -0.0678 0.0965 Uani
O3 O 0.3439 0.7633 -0.0622 0.0593 Uani
N1 N 0.4258 0.7690 0.0866 0.0439 Uani
C1 C 0.4650 0.7675 0.1685 0.0413 Uani
C2 C 0.4342 0.7778 0.2500 0.0410 Uani
C3 C 0.5299 0.7501 0.1677 0.0527 Uani
C4 C 0.5612 0.7412 0.2500 0.0577 Uani
C5 C 0.4427 0.8405 0.0537 0.0524 Uani
C6 C 0.3944 0.8343 -0.0326 0.0605 Uani
Li1 Li 0.5000 1.0000 0.0000 0.1941 Uiso
O6 O 0.6073 0.9828 -0.0982 0.2503 Uiso
Ni1K Ni 0.3333 0.6667 0.4800 0.0455 Uani
O1K O 0.4937 0.9128 0.4171 0.0766 Uani
O1B O 0.0872 0.5809 0.0829 0.0766 Uani
O1J O 0.0872 0.5809 0.4171 0.0766 Uani
O1C O 0.4191 0.5063 0.0829 0.0766 Uani
O1G O 0.4191 0.5063 0.4171 0.0766 Uani
O1F O 0.5063 1.0872 -0.0829 0.0766 Uani
O1E O 0.5063 1.0872 0.5829 0.0766 Uani
O1H O -0.0872 0.4191 -0.0829 0.0766 Uani
O2K O 0.4093 0.9019 0.5678 0.0965 Uani
O2B O 0.0981 0.5074 -0.0678 0.0965 Uani
O2J O 0.0981 0.5074 0.5678 0.0965 Uani
O2C O 0.4926 0.5907 -0.0678 0.0965 Uani
O2G O 0.4926 0.5907 0.5678 0.0965 Uani
O2F O 0.5907 1.0981 0.0678 0.0965 Uani
O2E O 0.5907 1.0981 0.4322 0.0965 Uani
O2H O -0.0981 0.4926 0.0678 0.0965 Uani
O3K O 0.3439 0.7633 0.5622 0.0593 Uani
O3B O 0.2367 0.5806 -0.0622 0.0593 Uani
O3J O 0.2367 0.5806 0.5622 0.0593 Uani
O3C O 0.4194 0.6561 -0.0622 0.0593 Uani
O3G O 0.4194 0.6561 0.5622 0.0593 Uani
N1K N 0.4258 0.7690 0.4134 0.0439 Uani
N1B N 0.2310 0.6568 0.0866 0.0439 Uani
N1J N 0.2310 0.6568 0.4134 0.0439 Uani
N1C N 0.3432 0.5742 0.0866 0.0439 Uani
N1G N 0.3432 0.5742 0.4134 0.0439 Uani
C1K C 0.4650 0.7675 0.3315 0.0413 Uani
C1B C 0.2325 0.6975 0.1685 0.0413 Uani
C1J C 0.2325 0.6975 0.3315 0.0413 Uani
C1C C 0.3025 0.5350 0.1685 0.0413 Uani
C1G C 0.3025 0.5350 0.3315 0.0413 Uani
C2B C 0.2222 0.6564 0.2500 0.0410 Uani
C2C C 0.3436 0.5658 0.2500 0.0410 Uani
C3K C 0.5299 0.7501 0.3323 0.0527 Uani
C3B C 0.2499 0.7798 0.1677 0.0527 Uani
C3J C 0.2499 0.7798 0.3323 0.0527 Uani
C3C C 0.2202 0.4701 0.1677 0.0527 Uani
C3G C 0.2202 0.4701 0.3323 0.0527 Uani
C4B C 0.2588 0.8200 0.2500 0.0577 Uani
C4C C 0.1800 0.4388 0.2500 0.0577 Uani
C5K C 0.4427 0.8405 0.4463 0.0524 Uani
C5B C 0.1595 0.6022 0.0537 0.0524 Uani
C5J C 0.1595 0.6022 0.4463 0.0524 Uani
C5C C 0.3978 0.5573 0.0537 0.0524 Uani
C5G C 0.3978 0.5573 0.4463 0.0524 Uani
C6K C 0.3944 0.8343 0.5326 0.0605 Uani
C6B C 0.1657 0.5601 -0.0326 0.0605 Uani
C6J C 0.1657 0.5601 0.5326 0.0605 Uani
C6C C 0.4399 0.6056 -0.0326 0.0605 Uani
C6G C 0.4399 0.6056 0.5326 0.0605 Uani
Li1K Li 0.5000 1.0000 0.5000 0.1941 Uiso
Li1B Li -0.0000 0.5000 0.0000 0.1941 Uiso
Li1D Li -0.0000 0.5000 0.5000 0.1941 Uiso
Li1C Li 0.5000 0.5000 0.0000 0.1941 Uiso
Li1A Li 0.5000 0.5000 0.5000 0.1941 Uiso
O6F O 0.3927 1.0172 0.0982 0.2503 Uiso
O6K O 0.6073 0.9828 0.5982 0.2503 Uiso
O6E O 0.3927 1.0172 0.4018 0.2503 Uiso
O6B O 0.0172 0.6245 -0.0982 0.2503 Uiso
O6H O -0.0172 0.3755 0.0982 0.2503 Uiso
Li2 Li 0.5188 0.6588 -0.2500 0.1648 Uiso
Li3 Li -0.0000 -0.0000 0.2500 0.1648 Uiso
O4 O 0.5019 0.9817 0.2500 0.1540 Uiso
O5 O 0.6515 0.9609 0.1422 0.2698 Uiso
O7 O 0.5572 0.8092 -0.1190 0.2410 Uiso
O8 O 0.0960 -0.0020 -0.1140 0.6053 Uiso
O9 O 0.3333 0.6667 -0.2500 0.6053 Uiso
loop_
_atom_site_aniso_label
_atom_site_aniso_U_11
_atom_site_aniso_U_22
_atom_site_aniso_U_33
_atom_site_aniso_U_23
_atom_site_aniso_U_13
_atom_site_aniso_U_12
Ni1 0.0490 0.0490 0.0385 0.0000 0.0000 0.0245
O1 0.1011 0.0413 0.0642 0.0069 -0.0174 0.0181
O2 0.1407 0.0568 0.0754 0.0135 -0.0313 0.0369
O3 0.0689 0.0581 0.0486 0.0077 -0.0075 0.03
N1 0.0469 0.0431 0.0380 0.0016 0.0031 0.0198
C1 0.0378 0.0347 0.0471 0.0039 0.0010 0.0149
C2 0.0364 0.0381 0.0426 0.0000 0.0000 0.0143
C3 0.0464 0.0604 0.0538 0.0022 0.0050 0.0285
C4 0.0460 0.0762 0.0588 0.0000 0.0000 0.0364
C5 0.0607 0.0495 0.0442 0.0047 0.0024 0.0255
C6 0.0724 0.053 0.0528 0.0066 -0.0035 0.0289
Ni1K 0.049 0.049 0.0385 0 0 0.0245
O1K 0.1011 0.0413 0.0642 -0.0069 0.0174 0.0181
O1B 0.0413 0.1062 0.0642 -0.0243 -0.0069 0.0232
O1J 0.0413 0.1062 0.0642 0.0243 0.0069 0.0232
O1C 0.1062 0.1011 0.0642 0.0174 0.0243 0.083
O1G 0.1062 0.1011 0.0642 -0.0174 -0.0243 0.083
O1F 0.1011 0.0413 0.0642 0.0069 -0.0174 0.0181
O1E 0.1011 0.0413 0.0642 -0.0069 0.0174 0.0181
O1H 0.0413 0.1062 0.0642 -0.0243 -0.0069 0.0232
O2K 0.1407 0.0568 0.0754 -0.0135 0.0313 0.0369
O2B 0.0568 0.1237 0.0754 -0.0448 -0.0135 0.0199
O2J 0.0568 0.1237 0.0754 0.0448 0.0135 0.0199
O2C 0.1237 0.1407 0.0754 0.0313 0.0448 0.1038
O2G 0.1237 0.1407 0.0754 -0.0313 -0.0448 0.1038
O2F 0.1407 0.0568 0.0754 0.0135 -0.0313 0.0369
O2E 0.1407 0.0568 0.0754 -0.0135 0.0313 0.0369
O2H 0.0568 0.1237 0.0754 -0.0448 -0.0135 0.0199
O3K 0.0689 0.0581 0.0486 -0.0077 0.0075 0.03
O3B 0.0581 0.067 0.0486 -0.0152 -0.0077 0.0281
O3J 0.0581 0.067 0.0486 0.0152 0.0077 0.0281
O3C 0.067 0.0689 0.0486 0.0075 0.0152 0.0389
O3G 0.067 0.0689 0.0486 -0.0075 -0.0152 0.0389
N1K 0.0469 0.0431 0.038 -0.0016 -0.0031 0.0198
N1B 0.0431 0.0504 0.038 0.0015 -0.0016 0.0233
N1J 0.0431 0.0504 0.038 -0.0015 0.0016 0.0233
N1C 0.0504 0.0469 0.038 -0.0031 -0.0015 0.0271
N1G 0.0504 0.0469 0.038 0.0031 0.0015 0.0271
C1K 0.0378 0.0347 0.0471 -0.0039 -0.001 0.0149
C1B 0.0347 0.0427 0.0471 -0.0029 -0.0039 0.0198
C1J 0.0347 0.0427 0.0471 0.0029 0.0039 0.0198
C1C 0.0427 0.0378 0.0471 -0.001 0.0029 0.0229
C1G 0.0427 0.0378 0.0471 0.001 -0.0029 0.0229
C2B 0.0381 0.0459 0.0426 0 0 0.0238
C2C 0.0459 0.0364 0.0426 0 0 0.0221
C3K 0.0464 0.0604 0.0538 -0.0022 -0.005 0.0285
C3B 0.0604 0.0498 0.0538 0.0028 -0.0022 0.0319
C3J 0.0604 0.0498 0.0538 -0.0028 0.0022 0.0319
C3C 0.0498 0.0464 0.0538 -0.005 -0.0028 0.0179
C3G 0.0498 0.0464 0.0538 0.005 0.0028 0.0179
C4B 0.0762 0.0494 0.0588 0 0 0.0398
C4C 0.0494 0.046 0.0588 0 0 0.0096
C5K 0.0607 0.0495 0.0442 -0.0047 -0.0024 0.0255
C5B 0.0495 0.0592 0.0442 -0.0023 -0.0047 0.024
C5J 0.0495 0.0592 0.0442 0.0023 0.0047 0.024
C5C 0.0592 0.0607 0.0442 -0.0024 0.0023 0.0352
C5G 0.0592 0.0607 0.0442 0.0024 -0.0023 0.0352
C6K 0.0724 0.053 0.0528 -0.0066 0.0035 0.0289
C6B 0.053 0.0676 0.0528 -0.0101 -0.0066 0.0241
C6J 0.053 0.0676 0.0528 0.0101 0.0066 0.0241
C6C 0.0676 0.0724 0.0528 0.0035 0.0101 0.0435
C6G 0.0676 0.0724 0.0528 -0.0035 -0.0101 0.0435
loop_
_geom_bond_atom_site_label_1
_geom_bond_atom_site_label_2
_geom_bond_site_symmetry_1
_geom_bond_site_symmetry_2
Ni1 O3 1_555 1_555
O1 C5 1_555 1_555
O2 C6 1_555 1_555
O3 C6 1_555 1_555
N1 Ni1 1_555 1_555
C1 N1 1_555 1_555
C2 C1 1_555 1_555
C3 C1 1_555 1_555
C4 C3 1_555 1_555
C5 N1 1_555 1_555
C6 C5 1_555 1_555
Li1 O1 1_555 1_555
O6 Li1 1_555 1_555
Ni1K O3K 1_555 1_555
O1K C5K 1_555 1_555
O1B C5B 1_555 1_555
O1J C5J 1_555 1_555
O1C C5C 1_555 1_555
O1G C5G 1_555 1_555
O1F Li1 1_555 1_555
O1E Li1K 1_555 1_555
O1H Li1B 1_555 1_555
O2K C6K 1_555 1_555
O2B C6B 1_555 1_555
O2J C6J 1_555 1_555
O2C C6C 1_555 1_555
O2G C6G 1_555 1_555
O2F Li1 1_555 1_555
O2E Li1K 1_555 1_555
O2H Li1B 1_555 1_555
O3K C6K 1_555 1_555
O3B Ni1 1_555 1_555
O3J Ni1K 1_555 1_555
O3C Ni1 1_555 1_555
O3G Ni1K 1_555 1_555
N1K Ni1K 1_555 1_555
N1B Ni1 1_555 1_555
N1J Ni1K 1_555 1_555
N1C Ni1 1_555 1_555
N1G Ni1K 1_555 1_555
C1K C2 1_555 1_555
C1B N1B 1_555 1_555
C1J N1J 1_555 1_555
C1C N1C 1_555 1_555
C1G N1G 1_555 1_555
C2B C1B 1_555 1_555
C2C C1C 1_555 1_555
C3K C4 1_555 1_555
C3B C1B 1_555 1_555
C3J C1J 1_555 1_555
C3C C1C 1_555 1_555
C3G C1G 1_555 1_555
C4B C3B 1_555 1_555
C4C C3C 1_555 1_555
C5K N1K 1_555 1_555
C5B N1B 1_555 1_555
C5J N1J 1_555 1_555
C5C N1C 1_555 1_555
C5G N1G 1_555 1_555
C6K C5K 1_555 1_555
C6B O3B 1_555 1_555
C6J O3J 1_555 1_555
C6C O3C 1_555 1_555
C6G O3G 1_555 1_555
Li1K O1K 1_555 1_555
Li1B O1B 1_555 1_555
Li1D O1J 1_555 1_555
Li1C O1C 1_555 1_555
Li1A O1G 1_555 1_555
O6F Li1 1_555 1_555
O6K Li1K 1_555 1_555
O6E Li1K 1_555 1_555
O6B Li1B 1_555 1_555
O6H Li1B 1_555 1_555
O2 Li1 1_555 1_555
O2K Li1K 1_555 1_555
O2B Li1B 1_555 1_555
O2J Li1D 1_555 1_555
O2C Li1C 1_555 1_555
O2G Li1A 1_555 1_555
N1K C1K 1_555 1_555
C1K C3K 1_555 1_555
C1J C2B 1_555 1_555
C1G C2C 1_555 1_555
C3J C4B 1_555 1_555
C3G C4C 1_555 1_555
C5B C6B 1_555 1_555
C5J C6J 1_555 1_555
C5C C6C 1_555 1_555
C5G C6G 1_555 1_555

#END
