
#######################################################################
#
#                 Cambridge Crystallographic Data Centre
#                                CCDC 
#
#######################################################################
#
# If this CIF has been generated from an entry in the Cambridge 
# Structural Database, then it will include bibliographic, chemical, 
# crystal, experimental, refinement or atomic coordinate data resulting 
# from the CCDC's data processing and validation procedures.
#
#######################################################################

data_HAMLAL
_chemical_formula_moiety         'C20 H30 Ag8 B2 F8 O5 S8 2-'
_symmetry_cell_setting           orthorhombic
_symmetry_space_group_name_H-M   'I m m a'
_symmetry_Int_Tables_number      74
_space_group_name_Hall           '-I 2b 2'
loop_
_symmetry_equiv_pos_site_id
_symmetry_equiv_pos_as_xyz
1 x,y,z
2 -x,1/2-y,z
3 -x,1/2+y,-z
4 x,-y,-z
5 1/2+x,1/2+y,1/2+z
6 1/2-x,-y,1/2+z
7 1/2-x,y,1/2-z
8 1/2+x,1/2-y,1/2-z
9 -x,-y,-z
10 x,1/2+y,-z
11 x,1/2-y,z
12 -x,y,z
13 1/2-x,1/2-y,1/2-z
14 1/2+x,y,1/2-z
15 1/2+x,-y,1/2+z
16 1/2-x,1/2+y,1/2+z
_cell_length_a                   20.888(3)
_cell_length_b                   22.219(3)
_cell_length_c                   7.8466(10)
_cell_angle_alpha                90
_cell_angle_beta                 90
_cell_angle_gamma                90
_cell_volume                     3641.69
loop_
_atom_site_label
_atom_site_type_symbol
_atom_site_fract_x
_atom_site_fract_y
_atom_site_fract_z
B1 B 0.3300(6) 0.7500 0.0727(14)
F1 F 0.2666(6) 0.7500 0.0183(15)
F2 F 0.3505(5) 0.6917(4) 0.0386(11)
F3 F 0.3268(6) 0.7500 0.2507(13)
F2J F 0.3505(5) 0.8083(4) 0.0386(11)
F4 F 0.4508(10) 0.5580(7) 0.146(2)
F5 F 0.5000 0.6132(8) 0.354(2)
B2 B 0.5000 0.5691(7) 0.239(2)
F6 F 0.5000 0.5147(9) 0.328(3)
F4K F 0.5492(10) 0.5580(7) 0.146(2)
O3 O 0.5000 0.6970(11) 0.067(3)
Ag1 Ag 0.2500 0.66253(2) 0.7500
S1 S 0.35310(4) 0.65503(4) 0.61109(11)
Ag2 Ag 0.41336(3) 0.7500 0.53243(10)
C1 C 0.4043(2) 0.6064(2) 0.7349(6)
C2 C 0.3349(2) 0.60937(16) 0.4227(4)
O1 O 0.5000 0.7626(4) 0.7754(11)
O2 O 0.5000 0.7627(3) 0.3481(11)
H1 H 0.3817 0.5688 0.7604
H2 H 0.4160 0.6265 0.8416
H3 H 0.4432 0.5974 0.6698
H4 H 0.3094 0.6337 0.3419
H5 H 0.3755 0.5984 0.3654
C3 C 0.29878(17) 0.55307(15) 0.4646(4)
C4 C 0.23220(18) 0.55286(16) 0.4670(4)
C5 C 0.3316(2) 0.5000 0.5000
H6 H 0.2094 0.5891 0.4460
C6 C 0.1987(3) 0.5000 0.5000
H7 H 0.3771 0.5000 0.5000
H8 H 0.1532 0.5000 0.5000
S1F S 0.14690(4) 0.65503(4) 0.88891(11)
O1A O 0.5000 0.7374(4) 0.7754(11)
O2A O 0.5000 0.7373(3) 0.3481(11)
S1J S 0.35310(4) 0.84497(4) 0.61109(11)
Ag2A Ag 0.58664(3) 0.7500 0.53243(10)
S1K S 0.64690(4) 0.65503(4) 0.61109(11)
S1A S 0.64690(4) 0.84497(4) 0.61109(11)
C3C C 0.29878(17) 0.44693(15) 0.5354(4)
C1K C 0.5957(2) 0.6064(2) 0.7349(6)
C2K C 0.6651(2) 0.60937(16) 0.4227(4)
Ag1K Ag 0.7500 0.66253(2) 0.7500
C4C C 0.23220(18) 0.44714(16) 0.5330(4)
C2C C 0.3349(2) 0.39063(16) 0.5773(4)
H1K H 0.6183 0.5688 0.7604
H2K H 0.5840 0.6265 0.8416
H3K H 0.5568 0.5974 0.6698
H4K H 0.6906 0.6337 0.3419
H5K H 0.6245 0.5984 0.3654
C3K C 0.70122(17) 0.55307(15) 0.4646(4)
H6C H 0.2094 0.4109 0.5540
S1C S 0.35310(4) 0.34497(4) 0.38891(11)
H4C H 0.3094 0.3663 0.6581
H5C H 0.3755 0.4016 0.6346
C4K C 0.76780(18) 0.55286(16) 0.4670(4)
C5H C 0.6684(2) 0.5000 0.5000
C1C C 0.4043(2) 0.3936(2) 0.2651(6)
Ag1C Ag 0.2500 0.33747(2) 0.2500
Ag2C Ag 0.41336(3) 0.2500 0.46757(10)
H6K H 0.7906 0.5891 0.4460
C6H C 0.8013(3) 0.5000 0.5000
H7H H 0.6229 0.5000 0.5000
C3H C 0.70122(17) 0.44693(15) 0.5354(4)
H1C H 0.3817 0.4312 0.2396
H2C H 0.4160 0.3735 0.1584
H3C H 0.4432 0.4026 0.3302
S1E S 0.14690(4) 0.34497(4) 0.11109(11)
H8H H 0.8468 0.5000 0.5000
C4H C 0.76780(18) 0.44714(16) 0.5330(4)
C2H C 0.6651(2) 0.39063(16) 0.5773(4)
Ag2B Ag 0.58664(3) 0.2500 0.46757(10)
H6H H 0.7906 0.4109 0.5540
S1H S 0.64690(4) 0.34497(4) 0.38891(11)
H4H H 0.6906 0.3663 0.6581
H5H H 0.6245 0.4016 0.6346
C1H C 0.5957(2) 0.3936(2) 0.2651(6)
Ag1H Ag 0.7500 0.33747(2) 0.2500
H1H H 0.6183 0.4312 0.2396
H2H H 0.5840 0.3735 0.1584
H3H H 0.5568 0.4026 0.3302
loop_
_geom_bond_atom_site_label_1
_geom_bond_atom_site_label_2
_geom_bond_site_symmetry_1
_geom_bond_site_symmetry_2
Ag1 S1 1_555 1_555
S1 Ag2 1_555 1_555
Ag2 O1 1_555 1_555
C1 S1 1_555 1_555
C2 S1 1_555 1_555
O1 O1A 1_555 1_555
O2 Ag2 1_555 1_555
H1 C1 1_555 1_555
H2 C1 1_555 1_555
H3 C1 1_555 1_555
H4 C2 1_555 1_555
H5 C2 1_555 1_555
C3 C2 1_555 1_555
C4 C3 1_555 1_555
C5 C3 1_555 1_555
H6 C4 1_555 1_555
C6 C4 1_555 1_555
H7 C5 1_555 1_555
H8 C6 1_555 1_555
B1 F1 1_555 1_555
F2 B1 1_555 1_555
F3 B1 1_555 1_555
F4 B2 1_555 1_555
F5 B2 1_555 1_555
B2 F6 1_555 1_555
S1F Ag1 1_555 1_555
O1A Ag2 1_555 1_555
O2A Ag2 1_555 1_555
S1J Ag2 1_555 1_555
Ag2A O1 1_555 1_555
S1K Ag2A 1_555 1_555
S1A Ag2A 1_555 1_555
C3C C5 1_555 1_555
C1K S1K 1_555 1_555
C2K S1K 1_555 1_555
Ag1K S1K 1_555 1_555
C4C C6 1_555 1_555
C2C C3C 1_555 1_555
H1K C1K 1_555 1_555
H2K C1K 1_555 1_555
H3K C1K 1_555 1_555
H4K C2K 1_555 1_555
H5K C2K 1_555 1_555
C3K C2K 1_555 1_555
H6C C4C 1_555 1_555
S1C C2C 1_555 1_555
H4C C2C 1_555 1_555
H5C C2C 1_555 1_555
C4K C3K 1_555 1_555
C5H C3K 1_555 1_555
C1C S1C 1_555 1_555
Ag1C S1C 1_555 1_555
Ag2C S1C 1_555 1_555
H6K C4K 1_555 1_555
C6H C4K 1_555 1_555
H7H C5H 1_555 1_555
C3H C5H 1_555 1_555
H1C C1C 1_555 1_555
H2C C1C 1_555 1_555
H3C C1C 1_555 1_555
S1E Ag1C 1_555 1_555
H8H C6H 1_555 1_555
C4H C6H 1_555 1_555
C2H C3H 1_555 1_555
Ag2B S1H 1_555 1_555
H6H C4H 1_555 1_555
S1H C2H 1_555 1_555
H4H C2H 1_555 1_555
H5H C2H 1_555 1_555
C1H S1H 1_555 1_555
Ag1H S1H 1_555 1_555
H1H C1H 1_555 1_555
H2H C1H 1_555 1_555
H3H C1H 1_555 1_555
F2J B1 1_555 1_555
F4K B2 1_555 1_555
O2 O2A 1_555 1_555
O2 Ag2A 1_555 1_555
O1A Ag2A 1_555 1_555
O2A Ag2A 1_555 1_555
C3C C4C 1_555 1_555
C3H C4H 1_555 1_555

#END
