
#######################################################################
#
#                 Cambridge Crystallographic Data Centre
#                                CCDC 
#
#######################################################################
#
# If this CIF has been generated from an entry in the Cambridge 
# Structural Database, then it will include bibliographic, chemical, 
# crystal, experimental, refinement or atomic coordinate data resulting 
# from the CCDC's data processing and validation procedures.
#
#######################################################################

data_HADDOI
_chemical_formula_moiety         '(C72 H40 F24 N6 O18 Zn5)n'
_symmetry_cell_setting           monoclinic
_symmetry_space_group_name_H-M   'P 2/c'
_symmetry_Int_Tables_number      13
_space_group_name_Hall           '-P 2yc'
loop_
_symmetry_equiv_pos_site_id
_symmetry_equiv_pos_as_xyz
1 x,y,z
2 -x,y,1/2-z
3 -x,-y,-z
4 x,-y,1/2+z
_cell_length_a                   20.896(4)
_cell_length_b                   7.3872(15)
_cell_length_c                   31.834(4)
_cell_angle_alpha                90
_cell_angle_beta                 124.636(9)
_cell_angle_gamma                90
_cell_volume                     4043.13
loop_
_atom_site_label
_atom_site_type_symbol
_atom_site_fract_x
_atom_site_fract_y
_atom_site_fract_z
Zn1 Zn -0.5000 -0.0000 -0.5000
Zn2 Zn -0.32553(4) -0.55349(10) -0.34398(3)
Zn3 Zn -0.32214(4) -0.18879(11) -0.40950(3)
F1 F 0.0071(3) -0.6921(7) -0.4587(2)
F2 F 0.0734(3) -0.6142(7) -0.3799(2)
F3 F 0.1117(3) -0.8334(8) -0.4047(2)
F4 F -0.0954(3) -0.9580(8) -0.48747(17)
F5 F -0.0663(3) -1.1685(7) -0.43318(19)
F6 F 0.0119(3) -1.1042(8) -0.45444(18)
F7 F -0.3700(3) -1.6025(6) -0.1885(2)
F8 F -0.4482(3) -1.4121(7) -0.19059(19)
F9 F -0.3686(3) -1.5550(7) -0.1218(2)
F10 F -0.2297(3) -1.4827(7) -0.1577(2)
F11 F -0.1777(3) -1.2861(7) -0.09764(18)
F12 F -0.2185(3) -1.5377(7) -0.0874(2)
O1 O -0.2631(4) -0.4097(7) -0.4066(3)
O2 O -0.2739(3) -0.6664(7) -0.3740(2)
O3 O 0.2591(3) -1.3560(8) -0.1990(2)
O4 O 0.2541(3) -1.1077(7) -0.16100(19)
O5 O -0.3986(3) 0.0807(6) -0.42719(17)
H1 H -0.3740 0.1873 -0.4299
H2 H -0.4101 0.1011 -0.4020
O6 O -0.4275(3) -0.8911(7) -0.01906(19)
O7 O -0.3024(3) -0.9321(7) 0.04441(19)
O8 O -0.4144(3) -0.8865(9) -0.3532(2)
O9 O -0.3210(3) -0.7107(7) -0.2939(2)
N1 N -0.4262(3) -0.4517(7) -0.4036(2)
N2 N -0.4221(3) -0.3043(8) -0.4260(2)
N3 N -0.4929(3) -0.2482(8) -0.4632(2)
C1 C -0.2440(4) -0.5694(10) -0.3913(3)
C2 C -0.1814(4) -0.6536(10) -0.3950(3)
C3 C -0.1523(4) -0.8224(9) -0.3748(3)
H3 H -0.1725 -0.8881 -0.3600
C4 C -0.0927(4) -0.8939(10) -0.3768(3)
H4 H -0.0731 -1.0078 -0.3629
C5 C -0.0617(4) -0.7998(9) -0.3989(3)
C6 C -0.0924(4) -0.6305(11) -0.4198(3)
H5 H -0.0730 -0.5653 -0.4352
C7 C -0.1520(4) -0.5583(10) -0.4177(3)
H6 H -0.1721 -0.4448 -0.4317
C8 C 0.0040(4) -0.8915(10) -0.4002(3)
C9 C 0.0493(5) -0.7569(12) -0.4115(3)
C10 C -0.0359(5) -1.0315(12) -0.4441(3)
C11 C 0.0648(4) -0.9799(9) -0.3478(3)
C12 C 0.0946(4) -1.1533(11) -0.3423(3)
H7 H 0.0771 -1.2233 -0.3712
C13 C 0.1493(4) -1.2230(10) -0.2950(3)
H8 H 0.1686 -1.3391 -0.2922
C14 C 0.1758(4) -1.1217(10) -0.2516(3)
C15 C 0.1476(4) -0.9493(10) -0.2565(3)
H9 H 0.1659 -0.8786 -0.2276
C16 C 0.0923(4) -0.8806(10) -0.3041(3)
H10 H 0.0731 -0.7646 -0.3067
C17 C 0.2341(4) -1.2002(10) -0.1999(3)
C18 C -0.5018(4) -0.4914(11) -0.4278(3)
H11 H -0.5224 -0.5884 -0.4205
C19 C -0.5435(4) -0.3649(11) -0.4651(3)
H12 H -0.5974 -0.3604 -0.4876
C20 C -0.3588(4) -0.9406(9) -0.0021(3)
C21 C -0.3430(4) -1.0212(9) -0.0384(3)
C22 C -0.3981(4) -1.0109(10) -0.0910(3)
H13 H -0.4433 -0.9441 -0.1039
C23 C -0.2757(4) -1.1199(11) -0.0200(3)
H14 H -0.2372 -1.1230 0.0149
C24 C -0.2652(4) -1.2145(11) -0.0535(3)
H15 H -0.2206 -1.2836 -0.0406
C25 C -0.3202(4) -1.2071(9) -0.1055(3)
C26 C -0.3862(4) -1.0978(10) -0.1239(3)
H16 H -0.4222 -1.0846 -0.1589
C27 C -0.3160(4) -1.3199(10) -0.1446(3)
C28 C -0.3758(5) -1.4746(11) -0.1618(3)
C29 C -0.2345(5) -1.4074(11) -0.1213(3)
C30 C -0.3308(4) -1.2000(9) -0.1891(3)
C31 C -0.3769(5) -1.2522(11) -0.2401(3)
H17 H -0.4004 -1.3656 -0.2487
C32 C -0.3882(4) -1.1371(11) -0.2783(3)
H18 H -0.4205 -1.1732 -0.3123
C33 C -0.3523(4) -0.9700(10) -0.2667(3)
C34 C -0.3046(4) -0.9188(10) -0.2159(3)
H19 H -0.2791 -0.8078 -0.2073
C35 C -0.2945(4) -1.0307(10) -0.1780(3)
H20 H -0.2629 -0.9928 -0.1442
C36 C -0.3642(4) -0.8485(10) -0.3080(3)
Zn2B Zn -0.67447(4) 0.55349(10) -0.65602(3)
Zn3B Zn -0.67786(4) 0.18879(11) -0.59050(3)
F1B F -1.0071(3) 0.6921(7) -0.5413(2)
F2B F -1.0734(3) 0.6142(7) -0.6201(2)
F3B F -1.1117(3) 0.8334(8) -0.5953(2)
F4B F -0.9046(3) 0.9580(8) -0.51253(17)
F5B F -0.9337(3) 1.1685(7) -0.56682(19)
F6B F -1.0119(3) 1.1042(8) -0.54556(18)
F7B F -0.6300(3) 1.6025(6) -0.8115(2)
F8B F -0.5518(3) 1.4121(7) -0.80941(19)
F9B F -0.6314(3) 1.5550(7) -0.8782(2)
F10B F -0.7703(3) 1.4827(7) -0.8423(2)
F11B F -0.8223(3) 1.2861(7) -0.90236(18)
F12B F -0.7815(3) 1.5377(7) -0.9126(2)
O1B O -0.7369(4) 0.4097(7) -0.5934(3)
O2B O -0.7261(3) 0.6664(7) -0.6260(2)
O3B O -1.2591(3) 1.3560(8) -0.8010(2)
O4B O -1.2541(3) 1.1077(7) -0.83900(19)
O5B O -0.6014(3) -0.0807(6) -0.57281(17)
H1B H -0.6260 -0.1873 -0.5701
H2B H -0.5899 -0.1011 -0.5980
O6B O -0.5725(3) 0.8911(7) -0.98094(19)
O7B O -0.6976(3) 0.9321(7) -1.04441(19)
O8B O -0.5856(3) 0.8865(9) -0.6468(2)
O9B O -0.6790(3) 0.7107(7) -0.7061(2)
N1B N -0.5738(3) 0.4517(7) -0.5964(2)
N2B N -0.5779(3) 0.3043(8) -0.5740(2)
N3B N -0.5071(3) 0.2482(8) -0.5368(2)
C1B C -0.7560(4) 0.5694(10) -0.6087(3)
C2B C -0.8186(4) 0.6536(10) -0.6050(3)
C3B C -0.8477(4) 0.8224(9) -0.6252(3)
H3B H -0.8275 0.8881 -0.6400
C4B C -0.9073(4) 0.8939(10) -0.6232(3)
H4B H -0.9269 1.0078 -0.6371
C5B C -0.9383(4) 0.7998(9) -0.6011(3)
C6B C -0.9076(4) 0.6305(11) -0.5802(3)
H5B H -0.9270 0.5653 -0.5648
C7B C -0.8480(4) 0.5583(10) -0.5823(3)
H6B H -0.8279 0.4448 -0.5683
C8B C -1.0040(4) 0.8915(10) -0.5998(3)
C9B C -1.0493(5) 0.7569(12) -0.5885(3)
C10B C -0.9641(5) 1.0315(12) -0.5559(3)
C11B C -1.0648(4) 0.9799(9) -0.6522(3)
C12B C -1.0946(4) 1.1533(11) -0.6577(3)
H7B H -1.0771 1.2233 -0.6288
C13B C -1.1493(4) 1.2230(10) -0.7050(3)
H8B H -1.1686 1.3391 -0.7078
C14B C -1.1758(4) 1.1217(10) -0.7484(3)
C15B C -1.1476(4) 0.9493(10) -0.7435(3)
H9B H -1.1659 0.8786 -0.7724
C16B C -1.0923(4) 0.8806(10) -0.6959(3)
H10B H -1.0731 0.7646 -0.6933
C17B C -1.2341(4) 1.2002(10) -0.8001(3)
C18B C -0.4982(4) 0.4914(11) -0.5722(3)
H11B H -0.4776 0.5884 -0.5795
C19B C -0.4565(4) 0.3649(11) -0.5349(3)
H12B H -0.4026 0.3604 -0.5124
C20B C -0.6412(4) 0.9406(9) -0.9979(3)
C21B C -0.6570(4) 1.0212(9) -0.9616(3)
C22B C -0.6019(4) 1.0109(10) -0.9090(3)
H13B H -0.5567 0.9441 -0.8961
C23B C -0.7243(4) 1.1199(11) -0.9800(3)
H14B H -0.7628 1.1230 -1.0149
C24B C -0.7348(4) 1.2145(11) -0.9465(3)
H15B H -0.7794 1.2836 -0.9594
C25B C -0.6798(4) 1.2071(9) -0.8945(3)
C26B C -0.6138(4) 1.0978(10) -0.8761(3)
H16B H -0.5778 1.0846 -0.8411
C27B C -0.6840(4) 1.3199(10) -0.8554(3)
C28B C -0.6242(5) 1.4746(11) -0.8382(3)
C29B C -0.7655(5) 1.4074(11) -0.8787(3)
C30B C -0.6692(4) 1.2000(9) -0.8109(3)
C31B C -0.6231(5) 1.2522(11) -0.7599(3)
H17B H -0.5996 1.3656 -0.7513
C32B C -0.6118(4) 1.1371(11) -0.7217(3)
H18B H -0.5795 1.1732 -0.6877
C33B C -0.6477(4) 0.9700(10) -0.7333(3)
C34B C -0.6954(4) 0.9188(10) -0.7841(3)
H19B H -0.7209 0.8078 -0.7927
C35B C -0.7055(4) 1.0307(10) -0.8220(3)
H20B H -0.7371 0.9928 -0.8558
C36B C -0.6358(4) 0.8485(10) -0.6920(3)
Zn1A Zn -0.5000 -1.0000 0.0000
Zn1A_2 Zn -0.5000 1.0000 -1.0000
Zn2A Zn 0.32553(4) -1.55349(10) -0.15602(3)
Zn2C Zn -1.32553(4) 1.55349(10) -0.84398(3)
Zn3A Zn -0.67786(4) 0.81121(11) -1.09050(3)
Zn3A_2 Zn 0.32214(4) -1.18879(11) -0.09050(3)
Zn3C Zn -1.32214(4) 1.18879(11) -0.90950(3)
Zn3C_2 Zn -0.32214(4) -0.81121(11) 0.09050(3)
O3A O -0.2591(3) -0.3560(8) -0.3010(2)
O3C O -0.7409(3) 0.3560(8) -0.6990(2)
O4A O -0.2541(3) -0.1077(7) -0.33900(19)
O4C O -0.7459(3) 0.1077(7) -0.66100(19)
O6A O -0.5725(3) 0.1089(7) -0.48094(19)
O6C O -0.4275(3) -0.1089(7) -0.51906(19)
O7A O -0.6976(3) 0.0679(7) -0.54441(19)
O7C O -0.3024(3) -0.0679(7) -0.45559(19)
loop_
_geom_bond_atom_site_label_1
_geom_bond_atom_site_label_2
_geom_bond_site_symmetry_1
_geom_bond_site_symmetry_2
Zn1 O5 1_555 1_555
Zn2 O2 1_555 1_555
Zn3 O1 1_555 1_555
F1 C9 1_555 1_555
F2 C9 1_555 1_555
F3 C9 1_555 1_555
F4 C10 1_555 1_555
F5 C10 1_555 1_555
F6 C10 1_555 1_555
F7 C28 1_555 1_555
F8 C28 1_555 1_555
F9 C28 1_555 1_555
F10 C29 1_555 1_555
F11 C29 1_555 1_555
F12 C29 1_555 1_555
O1 C1 1_555 1_555
O2 C1 1_555 1_555
O3 C17 1_555 1_555
O4 C17 1_555 1_555
O5 Zn3 1_555 1_555
H1 O5 1_555 1_555
H2 O5 1_555 1_555
O6 C20 1_555 1_555
O7 C20 1_555 1_555
O8 C36 1_555 1_555
O9 Zn2 1_555 1_555
N1 Zn2 1_555 1_555
N2 Zn3 1_555 1_555
N3 Zn1 1_555 1_555
C1 C2 1_555 1_555
C2 C3 1_555 1_555
C3 H3 1_555 1_555
C4 C3 1_555 1_555
H4 C4 1_555 1_555
C5 C4 1_555 1_555
C6 C5 1_555 1_555
H5 C6 1_555 1_555
C7 C2 1_555 1_555
H6 C7 1_555 1_555
C8 C5 1_555 1_555
C9 C8 1_555 1_555
C10 C8 1_555 1_555
C11 C8 1_555 1_555
C12 C11 1_555 1_555
H7 C12 1_555 1_555
C13 C12 1_555 1_555
H8 C13 1_555 1_555
C14 C13 1_555 1_555
C15 C14 1_555 1_555
H9 C15 1_555 1_555
C16 C11 1_555 1_555
H10 C16 1_555 1_555
C17 C14 1_555 1_555
C18 N1 1_555 1_555
H11 C18 1_555 1_555
C19 N3 1_555 1_555
H12 C19 1_555 1_555
C20 C21 1_555 1_555
C21 C22 1_555 1_555
C22 H13 1_555 1_555
C23 C21 1_555 1_555
H14 C23 1_555 1_555
C24 C23 1_555 1_555
H15 C24 1_555 1_555
C25 C24 1_555 1_555
C26 C22 1_555 1_555
H16 C26 1_555 1_555
C27 C25 1_555 1_555
C28 C27 1_555 1_555
C29 C27 1_555 1_555
C30 C27 1_555 1_555
C31 C30 1_555 1_555
H17 C31 1_555 1_555
C32 C31 1_555 1_555
H18 C32 1_555 1_555
C33 C32 1_555 1_555
C34 C33 1_555 1_555
H19 C34 1_555 1_555
C35 C30 1_555 1_555
H20 C35 1_555 1_555
C36 O9 1_555 1_555
Zn2B O2B 1_555 1_555
Zn3B O1B 1_555 1_555
F1B C9B 1_555 1_555
F2B C9B 1_555 1_555
F3B C9B 1_555 1_555
F4B C10B 1_555 1_555
F5B C10B 1_555 1_555
F6B C10B 1_555 1_555
F7B C28B 1_555 1_555
F8B C28B 1_555 1_555
F9B C28B 1_555 1_555
F10B C29B 1_555 1_555
F11B C29B 1_555 1_555
F12B C29B 1_555 1_555
O1B C1B 1_555 1_555
O2B C1B 1_555 1_555
O3B C17B 1_555 1_555
O4B C17B 1_555 1_555
O5B Zn1 1_555 1_555
H1B O5B 1_555 1_555
H2B O5B 1_555 1_555
O6B C20B 1_555 1_555
O7B C20B 1_555 1_555
O8B C36B 1_555 1_555
O9B Zn2B 1_555 1_555
N1B Zn2B 1_555 1_555
N2B Zn3B 1_555 1_555
N3B Zn1 1_555 1_555
C1B C2B 1_555 1_555
C2B C3B 1_555 1_555
C3B H3B 1_555 1_555
C4B C3B 1_555 1_555
H4B C4B 1_555 1_555
C5B C4B 1_555 1_555
C6B C5B 1_555 1_555
H5B C6B 1_555 1_555
C7B C2B 1_555 1_555
H6B C7B 1_555 1_555
C8B C5B 1_555 1_555
C9B C8B 1_555 1_555
C10B C8B 1_555 1_555
C11B C8B 1_555 1_555
C12B C11B 1_555 1_555
H7B C12B 1_555 1_555
C13B C12B 1_555 1_555
H8B C13B 1_555 1_555
C14B C13B 1_555 1_555
C15B C14B 1_555 1_555
H9B C15B 1_555 1_555
C16B C11B 1_555 1_555
H10B C16B 1_555 1_555
C17B C14B 1_555 1_555
C18B N1B 1_555 1_555
H11B C18B 1_555 1_555
C19B N3B 1_555 1_555
H12B C19B 1_555 1_555
C20B C21B 1_555 1_555
C21B C22B 1_555 1_555
C22B H13B 1_555 1_555
C23B C21B 1_555 1_555
H14B C23B 1_555 1_555
C24B C23B 1_555 1_555
H15B C24B 1_555 1_555
C25B C24B 1_555 1_555
C26B C22B 1_555 1_555
H16B C26B 1_555 1_555
C27B C25B 1_555 1_555
C28B C27B 1_555 1_555
C29B C27B 1_555 1_555
C30B C27B 1_555 1_555
C31B C30B 1_555 1_555
H17B C31B 1_555 1_555
C32B C31B 1_555 1_555
H18B C32B 1_555 1_555
C33B C32B 1_555 1_555
C34B C33B 1_555 1_555
H19B C34B 1_555 1_555
C35B C30B 1_555 1_555
H20B C35B 1_555 1_555
C36B O9B 1_555 1_555
Zn1A O6 1_555 1_555
Zn1A_2 O6B 1_555 1_555
Zn2A O3 1_555 1_555
Zn2C O3B 1_555 1_555
Zn3A O7B 1_555 1_555
Zn3A_2 O4 1_555 1_555
Zn3C O4B 1_555 1_555
Zn3C_2 O7 1_555 1_555
O3A Zn2 1_555 1_555
O3C Zn2B 1_555 1_555
O4A Zn3 1_555 1_555
O4C Zn3B 1_555 1_555
O6A Zn1 1_555 1_555
O6C Zn1 1_555 1_555
O7A Zn3B 1_555 1_555
O7C Zn3 1_555 1_555
N1 N2 1_555 1_555
N2 N3 1_555 1_555
C6 C7 1_555 1_555
C15 C16 1_555 1_555
C18 C19 1_555 1_555
C25 C26 1_555 1_555
C33 C36 1_555 1_555
C34 C35 1_555 1_555
Zn3B O5B 1_555 1_555
N1B N2B 1_555 1_555
N2B N3B 1_555 1_555
C6B C7B 1_555 1_555
C15B C16B 1_555 1_555
C18B C19B 1_555 1_555
C25B C26B 1_555 1_555
C33B C36B 1_555 1_555
C34B C35B 1_555 1_555

#END
