
#######################################################################
#
#                 Cambridge Crystallographic Data Centre
#                                CCDC 
#
#######################################################################
#
# If this CIF has been generated from an entry in the Cambridge 
# Structural Database, then it will include bibliographic, chemical, 
# crystal, experimental, refinement or atomic coordinate data resulting 
# from the CCDC's data processing and validation procedures.
#
#######################################################################

data_GIZNOT
_chemical_formula_moiety         '(C10 H10 Cd1 N2 O6)n'
_symmetry_cell_setting           trigonal
_symmetry_space_group_name_H-M   'P 32 2 1'
_symmetry_Int_Tables_number      154
_space_group_name_Hall           'P 32 2"'
loop_
_symmetry_equiv_pos_site_id
_symmetry_equiv_pos_as_xyz
1 x,y,z
2 -y,x-y,2/3+z
3 -x+y,-x,1/3+z
4 y,x,-z
5 x-y,-y,1/3-z
6 -x,-x+y,2/3-z
_cell_length_a                   9.1884(13)
_cell_length_b                   9.1884(13)
_cell_length_c                   12.743(3)
_cell_angle_alpha                90
_cell_angle_beta                 90
_cell_angle_gamma                120
_cell_volume                     931.713
loop_
_atom_site_label
_atom_site_type_symbol
_atom_site_fract_x
_atom_site_fract_y
_atom_site_fract_z
Cd1 Cd 1.359885(18) 1.359885(18) 0.0000
C1 C 2.0677(3) 2.0677(3) 0.0000
C2 C 1.9031(3) 1.9031(3) 0.0000
C3 C 1.8775(3) 1.7772(3) 0.07094(16)
H1 H 1.9612 1.7919 0.1179
C4 C 1.7232(3) 1.6287(3) 0.06965(16)
C5 C 1.6775(3) 1.4820(3) 0.14443(17)
N2 N 1.6053(3) 1.6053(3) 0.0000
O1 O 2.1922(2) 2.0728(2) 0.04345(14)
O2 O 1.7829(3) 1.4988(3) 0.21107(16)
O3 O 1.5360(2) 1.3538(2) 0.13272(13)
Cd1_2 Cd 2.359885(18) 2.359885(18) 0.0000
Cd1B Cd 2.000000(25) 1.640115(18) 0.3333
Cd1A Cd 1.640115(18) 2.000000(25) -0.3333
C3C C 1.7772(3) 1.8775(3) -0.07094(16)
H1C H 1.7919 1.9612 -0.1179
C4C C 1.6287(3) 1.7232(3) -0.06965(16)
C5C C 1.4820(3) 1.6775(3) -0.14443(17)
O1C O 2.0728(2) 2.1922(2) -0.04345(14)
O1_2 O 1.1922(2) 1.0728(2) 0.04345(14)
O1C_2 O 1.0728(2) 1.1922(2) -0.04345(14)
O2C O 1.4988(3) 1.7829(3) -0.21107(16)
O2A O 1.5012(3) 1.2841(4) -0.12226(16)
O2D O 1.2841(4) 1.5012(3) 0.12226(16)
O3C O 1.3538(2) 1.5360(2) -0.13272(13)
N1 N 0.4245(4) 1.0000 0.1667
H2 H 0.3309 1.0000 0.1667
C6 C 0.4919(7) 0.9741(6) 0.0709(4)
H3 H 0.5985 1.0719 0.0561
H4 H 0.4156 0.9548 0.0142
H5 H 0.5067 0.8784 0.0786
C6D C 0.5178(9) 1.0259(6) 0.2624(4)
H3D H 0.5266 0.9281 0.2772
H4D H 0.4608 1.0452 0.3191
H5D H 0.6283 1.1216 0.2547
loop_
_geom_bond_atom_site_label_1
_geom_bond_atom_site_label_2
_geom_bond_site_symmetry_1
_geom_bond_site_symmetry_2
Cd1 N2 1_555 1_555
C1 C2 1_555 1_555
C2 C3 1_555 1_555
C3 H1 1_555 1_555
C4 C3 1_555 1_555
C5 C4 1_555 1_555
N1 H2 1_555 1_555
N2 C4 1_555 1_555
O1 C1 1_555 1_555
O2 C5 1_555 1_555
O3 Cd1 1_555 1_555
C6 N1 1_555 1_555
H3 C6 1_555 1_555
H4 C6 1_555 1_555
H5 C6 1_555 1_555
Cd1_2 O1 1_555 1_555
Cd1B O2 1_555 1_555
Cd1A O2C 1_555 1_555
C3C C2 1_555 1_555
H1C C3C 1_555 1_555
C4C N2 1_555 1_555
C5C C4C 1_555 1_555
O1C C1 1_555 1_555
O1_2 Cd1 1_555 1_555
O1C_2 Cd1 1_555 1_555
O2C C5C 1_555 1_555
O2A Cd1 1_555 1_555
O2D Cd1 1_555 1_555
O3C Cd1 1_555 1_555
C6D N1 1_555 1_555
H3D C6D 1_555 1_555
H4D C6D 1_555 1_555
H5D C6D 1_555 1_555
C5 O3 1_555 1_555
Cd1_2 O1C 1_555 1_555
C3C C4C 1_555 1_555
C5C O3C 1_555 1_555

#END
