
#######################################################################
#
#                 Cambridge Crystallographic Data Centre
#                                CCDC 
#
#######################################################################
#
# If this CIF has been generated from an entry in the Cambridge 
# Structural Database, then it will include bibliographic, chemical, 
# crystal, experimental, refinement or atomic coordinate data resulting 
# from the CCDC's data processing and validation procedures.
#
#######################################################################

data_KEFFEI01
_chemical_formula_moiety         '(C5 H9 Dy1 N2 O8)n'
_symmetry_cell_setting           orthorhombic
_symmetry_space_group_name_H-M   'C 2 2 21'
_symmetry_Int_Tables_number      20
_space_group_name_Hall           'C 2c 2'
loop_
_symmetry_equiv_pos_site_id
_symmetry_equiv_pos_as_xyz
1 x,y,z
2 -x,-y,1/2+z
3 -x,y,1/2-z
4 x,-y,-z
5 1/2+x,1/2+y,z
6 1/2-x,1/2-y,1/2+z
7 1/2-x,1/2+y,1/2-z
8 1/2+x,1/2-y,-z
_cell_length_a                   6.6837(5)
_cell_length_b                   18.4684(12)
_cell_length_c                   8.4759(6)
_cell_angle_alpha                90
_cell_angle_beta                 90
_cell_angle_gamma                90
_cell_volume                     1046.24
loop_
_atom_site_label
_atom_site_type_symbol
_atom_site_fract_x
_atom_site_fract_y
_atom_site_fract_z
Dy1 Dy -0.5000 -0.142642(8) -0.7500
O1 O -0.4879(8) -0.04998(13) -0.9307(3)
O2 O -0.1637(4) -0.09415(13) -0.7284(6)
O3 O -0.1798(4) -0.25737(14) -1.1529(3)
O4 O -0.3249(5) -0.18314(13) -0.9822(3)
C1 C -0.5740(8) -0.0000 -1.0000
H1 H -0.7132 -0.0000 -1.0000
C2 C 0.0000 -0.1247(2) -0.7500
H2 H 0.0000 -0.1751 -0.7500
C3 C -0.2644(9) -0.2428(3) -1.0251(5)
H3 H -0.2836 -0.2811 -0.9555
O1C O -0.4879(8) 0.04998(13) -1.0693(3)
O2B O 0.1637(4) -0.09415(13) -0.7716(6)
O3B O -0.8202(4) -0.25737(14) -0.3471(3)
O4B O -0.6751(5) -0.18314(13) -0.5178(3)
C3B C -0.7356(9) -0.2428(3) -0.4749(5)
H3B H -0.7164 -0.2811 -0.5445
Dy1_2 Dy 0.5000 -0.142642(8) -0.7500
Dy1A Dy -0.5000 0.142642(8) -1.2500
Dy1E Dy -1.0000 -0.357358(8) -0.2500
Dy1E_2 Dy 0.0000 -0.357358(8) -1.2500
O1B O -0.5121(8) -0.04998(13) -0.5693(3)
O2B_2 O -0.8363(4) -0.09415(13) -0.7716(6)
O3E O -0.3202(4) -0.24263(14) -0.6529(3)
O3G O -0.6798(4) -0.24263(14) -0.8471(3)
C4 C -0.5000 -0.4053(2) -0.7500
H4 H -0.5000 -0.3550 -0.7500
N1 N -0.3626(6) -0.4371(2) -0.6678(5)
H5 H -0.3572 -0.4836 -0.6646
H6 H -0.2767 -0.4117 -0.6164
N1B N -0.6374(6) -0.4371(2) -0.8322(5)
H5B H -0.6428 -0.4836 -0.8354
H6B H -0.7233 -0.4117 -0.8836
loop_
_geom_bond_atom_site_label_1
_geom_bond_atom_site_label_2
_geom_bond_site_symmetry_1
_geom_bond_site_symmetry_2
Dy1 O1 1_555 1_555
O1 C1 1_555 1_555
O2 Dy1 1_555 1_555
O3 C3 1_555 1_555
O4 Dy1 1_555 1_555
C1 H1 1_555 1_555
C2 O2 1_555 1_555
H2 C2 1_555 1_555
C3 O4 1_555 1_555
H3 C3 1_555 1_555
C4 H4 1_555 1_555
N1 C4 1_555 1_555
H5 N1 1_555 1_555
H6 N1 1_555 1_555
O1C C1 1_555 1_555
O2B C2 1_555 1_555
O3B C3B 1_555 1_555
O4B Dy1 1_555 1_555
C3B O4B 1_555 1_555
H3B C3B 1_555 1_555
Dy1_2 O2B 1_555 1_555
Dy1A O1C 1_555 1_555
Dy1E O3B 1_555 1_555
Dy1E_2 O3 1_555 1_555
O1B Dy1 1_555 1_555
O2B_2 Dy1 1_555 1_555
O3E Dy1 1_555 1_555
O3G Dy1 1_555 1_555
N1B C4 1_555 1_555
H5B N1B 1_555 1_555
H6B N1B 1_555 1_555

#END
