
#######################################################################
#
#                 Cambridge Crystallographic Data Centre
#                                CCDC 
#
#######################################################################
#
# If this CIF has been generated from an entry in the Cambridge 
# Structural Database, then it will include bibliographic, chemical, 
# crystal, experimental, refinement or atomic coordinate data resulting 
# from the CCDC's data processing and validation procedures.
#
#######################################################################

data_DAJBOI
_chemical_formula_moiety         '(C206 H249 Cl4 Hg2 N1 O45 S36 Zr6)n'
_symmetry_cell_setting           cubic
_symmetry_space_group_name_H-M   'P n -3'
_symmetry_Int_Tables_number      201
_space_group_name_Hall           '-P 2ab 2bc 3'
loop_
_symmetry_equiv_pos_site_id
_symmetry_equiv_pos_as_xyz
1 x,y,z
2 1/2-x,1/2-y,z
3 1/2-x,y,1/2-z
4 x,1/2-y,1/2-z
5 z,x,y
6 z,1/2-x,1/2-y
7 1/2-z,1/2-x,y
8 1/2-z,x,1/2-y
9 y,z,x
10 1/2-y,z,1/2-x
11 y,1/2-z,1/2-x
12 1/2-y,1/2-z,x
13 -x,-y,-z
14 1/2+x,1/2+y,-z
15 1/2+x,-y,1/2+z
16 -x,1/2+y,1/2+z
17 -z,-x,-y
18 -z,1/2+x,1/2+y
19 1/2+z,1/2+x,-y
20 1/2+z,-x,1/2+y
21 -y,-z,-x
22 1/2+y,-z,1/2+x
23 -y,1/2+z,1/2+x
24 1/2+y,1/2+z,-x
_cell_length_a                   33.6473(15)
_cell_length_b                   33.6473(15)
_cell_length_c                   33.6473(15)
_cell_angle_alpha                90
_cell_angle_beta                 90
_cell_angle_gamma                90
_cell_volume                     38093.5
loop_
_atom_site_label
_atom_site_type_symbol
_atom_site_fract_x
_atom_site_fract_y
_atom_site_fract_z
C1 C 0.4082(4) 0.0947(4) 0.4972(5)
C2 C 0.3781(4) 0.1255(4) 0.4865(6)
C3 C 0.3894(5) 0.1638(5) 0.4729(8)
H1 H 0.4167 0.1702 0.4699
C4 C 0.3613(5) 0.1913(5) 0.4642(9)
C5 C 0.3202(5) 0.1826(5) 0.4693(8)
C6 C 0.3105(5) 0.1450(6) 0.4840(9)
H2 H 0.2834 0.1395 0.4899
C7 C 0.3383(5) 0.1153(5) 0.4905(8)
H3 H 0.3304 0.0891 0.4974
C8 C 0.2913(6) 0.2119(6) 0.4627(6)
C9 C 0.2649(6) 0.2362(6) 0.4607(7)
O1 O 0.3677(4) 0.2285(4) 0.4492(7)
C10 C 0.4076(6) 0.2427(7) 0.4443(9)
H4 H 0.4214 0.2270 0.4236
H5 H 0.4225 0.2400 0.4695
C11 C 0.4057(7) 0.2852(7) 0.4322(8)
C12 C 0.3821(8) 0.3099(8) 0.4631(8)
H6 H 0.3542 0.3005 0.4632
H7 H 0.3820 0.3380 0.4545
C13 C 0.3711(10) 0.2686(9) 0.5361(10)
H8 H 0.3837 0.2427 0.5317
H9 H 0.3445 0.2686 0.5244
H10 H 0.3691 0.2736 0.5648
C14 C 0.4488(7) 0.2996(7) 0.4277(8)
H11 H 0.4618 0.2833 0.4069
H12 H 0.4629 0.2943 0.4530
C15 C 0.4647(10) 0.3734(9) 0.4646(7)
H13 H 0.4880 0.3610 0.4769
H14 H 0.4414 0.3692 0.4816
H15 H 0.4694 0.4019 0.4615
C16 C 0.3824(8) 0.2926(8) 0.3937(9)
H16 H 0.3809 0.3216 0.3892
H17 H 0.3549 0.2827 0.3974
C17 C 0.370(2) 0.2258(18) 0.345(2)
H18 H 0.3777 0.2098 0.3214
H19 H 0.3721 0.2095 0.3686
H20 H 0.3427 0.2350 0.3413
C18 C 0.5956(4) 0.0900(4) 0.4926(4)
C19 C 0.6270(7) 0.1205(6) 0.4828(8)
C20 C 0.6163(7) 0.1613(7) 0.4862(11)
H21 H 0.5897 0.1682 0.4929
C21 C 0.6435(7) 0.1901(6) 0.4802(12)
C22 C 0.6816(6) 0.1802(6) 0.4646(10)
C23 C 0.6912(7) 0.1402(6) 0.4602(13)
H22 H 0.7163 0.1333 0.4493
C24 C 0.6653(8) 0.1098(7) 0.4712(15)
H23 H 0.6735 0.0828 0.4709
C25 C 0.7105(8) 0.2096(7) 0.4575(10)
C26 C 0.7359(8) 0.2352(8) 0.4554(11)
O2 O 0.6359(7) 0.2298(5) 0.4837(9)
C27 C 0.6043(7) 0.2420(7) 0.5092(9)
H24 H 0.6079 0.2310 0.5362
H25 H 0.5784 0.2330 0.4986
C28 C 0.6066(10) 0.2891(8) 0.5099(11)
C29 C 0.6428(11) 0.3017(10) 0.5267(13)
H26 H 0.6433 0.3311 0.5260
H27 H 0.6645 0.2923 0.5092
S1 S 0.6541(5) 0.2868(4) 0.5750(5)
C30 C 0.7018(12) 0.3141(17) 0.5727(18)
H28 H 0.7160 0.3109 0.5979
H29 H 0.7180 0.3034 0.5510
H30 H 0.6966 0.3423 0.5679
C31 C 0.5752(11) 0.3007(10) 0.5376(11)
H31 H 0.5795 0.2865 0.5630
H32 H 0.5494 0.2917 0.5267
C32 C 0.5217(8) 0.3617(15) 0.5693(12)
H33 H 0.5189 0.3901 0.5753
H34 H 0.5013 0.3538 0.5501
H35 H 0.5185 0.3463 0.5938
C33 C 0.6005(10) 0.3043(8) 0.4677(11)
H36 H 0.6236 0.2956 0.4516
H37 H 0.6009 0.3337 0.4685
C34 C 0.5735(12) 0.2453(8) 0.4144(11)
H38 H 0.6017 0.2412 0.4202
H39 H 0.5700 0.2497 0.3858
H40 H 0.5584 0.2217 0.4225
O3 O 0.4455(3) 0.1078(3) 0.4976(3)
O4 O 0.3966(3) 0.0599(3) 0.5010(3)
O5 O 0.5600(3) 0.1036(3) 0.4959(3)
O6 O 0.6063(3) 0.0545(3) 0.4951(3)
O7 O 0.4590(5) 0.0410(5) 0.4590(5)
H41 H 0.4419 0.0581 0.4419
S2 S 0.4011(2) 0.3074(2) 0.5131(3)
S3 S 0.4558(2) 0.35074(19) 0.4153(2)
S4 S 0.4035(3) 0.2690(3) 0.3488(3)
S5 S 0.5716(4) 0.3523(3) 0.5480(3)
S6 S 0.5553(3) 0.2888(2) 0.4419(3)
Zr1 Zr 0.50169(4) 0.07346(3) 0.49820(4)
O8 O 0.5320(6) 0.0295(5) 0.4699(5)
C1A C 0.0918(4) 0.4053(4) 0.4972(5)
C2A C 0.1219(4) 0.3745(4) 0.4865(6)
C3A C 0.1106(5) 0.3362(5) 0.4729(8)
H1A H 0.0833 0.3298 0.4699
C4A C 0.1387(5) 0.3087(5) 0.4642(9)
C5A C 0.1798(5) 0.3174(5) 0.4693(8)
C6A C 0.1895(5) 0.3550(6) 0.4840(9)
H2A H 0.2166 0.3605 0.4899
C7A C 0.1617(5) 0.3847(5) 0.4905(8)
H3A H 0.1696 0.4109 0.4974
C8A C 0.2087(6) 0.2881(6) 0.4627(6)
C9A C 0.2351(6) 0.2638(6) 0.4607(7)
O1A O 0.1323(4) 0.2715(4) 0.4492(7)
C10A C 0.0924(6) 0.2573(7) 0.4443(9)
H4A H 0.0786 0.2730 0.4236
H5A H 0.0775 0.2600 0.4695
C11A C 0.0943(7) 0.2148(7) 0.4322(8)
C12A C 0.1179(8) 0.1901(8) 0.4631(8)
H6A H 0.1458 0.1995 0.4632
H7A H 0.1180 0.1620 0.4545
C13A C 0.1289(10) 0.2314(9) 0.5361(10)
H8A H 0.1163 0.2573 0.5317
H9A H 0.1555 0.2314 0.5244
H10A H 0.1309 0.2264 0.5648
C14A C 0.0512(7) 0.2004(7) 0.4277(8)
H11A H 0.0382 0.2167 0.4069
H12A H 0.0371 0.2057 0.4530
C15A C 0.0353(10) 0.1266(9) 0.4646(7)
H13A H 0.0120 0.1390 0.4769
H14A H 0.0586 0.1308 0.4816
H15A H 0.0306 0.0981 0.4615
C16A C 0.1176(8) 0.2074(8) 0.3937(9)
H16A H 0.1191 0.1784 0.3892
H17A H 0.1451 0.2173 0.3974
C17A C 0.130(2) 0.2742(18) 0.345(2)
H18A H 0.1223 0.2902 0.3214
H19A H 0.1279 0.2905 0.3686
H20A H 0.1573 0.2650 0.3413
O3A O 0.0545(3) 0.3922(3) 0.4976(3)
O4A O 0.1034(3) 0.4401(3) 0.5010(3)
S2A S 0.0989(2) 0.1926(2) 0.5131(3)
S3A S 0.0442(2) 0.14926(19) 0.4153(2)
S4A S 0.0965(3) 0.2310(3) 0.3488(3)
C18A C 0.9044(4) 0.4100(4) 0.4926(4)
C19A C 0.8730(7) 0.3795(6) 0.4828(8)
C20A C 0.8837(7) 0.3387(7) 0.4862(11)
H21A H 0.9103 0.3318 0.4929
C21A C 0.8565(7) 0.3099(6) 0.4802(12)
C22A C 0.8184(6) 0.3198(6) 0.4646(10)
C23A C 0.8088(7) 0.3598(6) 0.4602(13)
H22A H 0.7837 0.3667 0.4493
C24A C 0.8347(8) 0.3902(7) 0.4712(15)
H23A H 0.8265 0.4172 0.4709
C25A C 0.7895(8) 0.2904(7) 0.4575(10)
C26A C 0.7641(8) 0.2648(8) 0.4554(11)
O2A O 0.8641(7) 0.2702(5) 0.4837(9)
C27A C 0.8957(7) 0.2580(7) 0.5092(9)
H24A H 0.8921 0.2690 0.5362
H25A H 0.9216 0.2670 0.4986
C28A C 0.8934(10) 0.2109(8) 0.5099(11)
C29A C 0.8572(11) 0.1983(10) 0.5267(13)
H26A H 0.8567 0.1689 0.5260
H27A H 0.8355 0.2077 0.5092
S1A S 0.8459(5) 0.2132(4) 0.5750(5)
C30A C 0.7982(12) 0.1859(17) 0.5727(18)
H28A H 0.7840 0.1891 0.5979
H29A H 0.7820 0.1966 0.5510
H30A H 0.8034 0.1577 0.5679
C31A C 0.9248(11) 0.1993(10) 0.5376(11)
H31A H 0.9205 0.2135 0.5630
H32A H 0.9506 0.2083 0.5267
C32A C 0.9783(8) 0.1383(15) 0.5693(12)
H33A H 0.9811 0.1099 0.5753
H34A H 0.9987 0.1462 0.5501
H35A H 0.9815 0.1537 0.5938
C33A C 0.8995(10) 0.1957(8) 0.4677(11)
H36A H 0.8764 0.2044 0.4516
H37A H 0.8991 0.1663 0.4685
C34A C 0.9265(12) 0.2547(8) 0.4144(11)
H38A H 0.8983 0.2588 0.4202
H39A H 0.9300 0.2503 0.3858
H40A H 0.9416 0.2783 0.4225
O5A O 0.9400(3) 0.3964(3) 0.4959(3)
O6A O 0.8937(3) 0.4455(3) 0.4951(3)
S5A S 0.9284(4) 0.1477(3) 0.5480(3)
S6A S 0.9447(3) 0.2112(2) 0.4419(3)
C18A_2 C -0.0956(4) 0.4100(4) 0.4926(4)
C19A_2 C -0.1270(7) 0.3795(6) 0.4828(8)
C20A_2 C -0.1163(7) 0.3387(7) 0.4862(11)
H21A_2 H -0.0897 0.3318 0.4929
C21A_2 C -0.1435(7) 0.3099(6) 0.4802(12)
C22A_2 C -0.1816(6) 0.3198(6) 0.4646(10)
C23A_2 C -0.1912(7) 0.3598(6) 0.4602(13)
H22A_2 H -0.2163 0.3667 0.4493
C24A_2 C -0.1653(8) 0.3902(7) 0.4712(15)
H23A_2 H -0.1735 0.4172 0.4709
C25A_2 C -0.2105(8) 0.2904(7) 0.4575(10)
C26A_2 C -0.2359(8) 0.2648(8) 0.4554(11)
O2A_2 O -0.1359(7) 0.2702(5) 0.4837(9)
C27A_2 C -0.1043(7) 0.2580(7) 0.5092(9)
H24A_2 H -0.1079 0.2690 0.5362
H25A_2 H -0.0784 0.2670 0.4986
C28A_2 C -0.1066(10) 0.2109(8) 0.5099(11)
C29A_2 C -0.1428(11) 0.1983(10) 0.5267(13)
H26A_2 H -0.1433 0.1689 0.5260
H27A_2 H -0.1645 0.2077 0.5092
S1A_2 S -0.1541(5) 0.2132(4) 0.5750(5)
C30A_2 C -0.2018(12) 0.1859(17) 0.5727(18)
H28A_2 H -0.2160 0.1891 0.5979
H29A_2 H -0.2180 0.1966 0.5510
H30A_2 H -0.1966 0.1577 0.5679
C31A_2 C -0.0752(11) 0.1993(10) 0.5376(11)
H31A_2 H -0.0795 0.2135 0.5630
H32A_2 H -0.0494 0.2083 0.5267
C32A_2 C -0.0217(8) 0.1383(15) 0.5693(12)
H33A_2 H -0.0189 0.1099 0.5753
H34A_2 H -0.0013 0.1462 0.5501
H35A_2 H -0.0185 0.1537 0.5938
C33A_2 C -0.1005(10) 0.1957(8) 0.4677(11)
H36A_2 H -0.1236 0.2044 0.4516
H37A_2 H -0.1009 0.1663 0.4685
C34A_2 C -0.0735(12) 0.2547(8) 0.4144(11)
H38A_2 H -0.1017 0.2588 0.4202
H39A_2 H -0.0700 0.2503 0.3858
H40A_2 H -0.0584 0.2783 0.4225
O5A_2 O -0.0600(3) 0.3964(3) 0.4959(3)
O6A_2 O -0.1063(3) 0.4455(3) 0.4951(3)
O7A O 0.0410(5) 0.4590(5) 0.4590(5)
H41A H 0.0581 0.4419 0.4419
S5A_2 S -0.0716(4) 0.1477(3) 0.5480(3)
S6A_2 S -0.0553(3) 0.2112(2) 0.4419(3)
Zr1A Zr -0.00169(4) 0.42654(3) 0.49820(4)
O8A O -0.0320(6) 0.4705(5) 0.4699(5)
C18_2 C -0.4044(4) 0.0900(4) 0.4926(4)
C19_2 C -0.3730(7) 0.1205(6) 0.4828(8)
C20_2 C -0.3837(7) 0.1613(7) 0.4862(11)
H21_2 H -0.4103 0.1682 0.4929
C21_2 C -0.3565(7) 0.1901(6) 0.4802(12)
C22_2 C -0.3184(6) 0.1802(6) 0.4646(10)
C23_2 C -0.3088(7) 0.1402(6) 0.4602(13)
H22_2 H -0.2837 0.1333 0.4493
C24_2 C -0.3347(8) 0.1098(7) 0.4712(15)
H23_2 H -0.3265 0.0828 0.4709
C25_2 C -0.2895(8) 0.2096(7) 0.4575(10)
C26_2 C -0.2641(8) 0.2352(8) 0.4554(11)
O2_2 O -0.3641(7) 0.2298(5) 0.4837(9)
C27_2 C -0.3957(7) 0.2420(7) 0.5092(9)
H24_2 H -0.3921 0.2310 0.5362
H25_2 H -0.4216 0.2330 0.4986
C28_2 C -0.3934(10) 0.2891(8) 0.5099(11)
C29_2 C -0.3572(11) 0.3017(10) 0.5267(13)
H26_2 H -0.3567 0.3311 0.5260
H27_2 H -0.3355 0.2923 0.5092
S1_2 S -0.3459(5) 0.2868(4) 0.5750(5)
C30_2 C -0.2982(12) 0.3141(17) 0.5727(18)
H28_2 H -0.2840 0.3109 0.5979
H29_2 H -0.2820 0.3034 0.5510
H30_2 H -0.3034 0.3423 0.5679
C31_2 C -0.4248(11) 0.3007(10) 0.5376(11)
H31_2 H -0.4205 0.2865 0.5630
H32_2 H -0.4506 0.2917 0.5267
C32_2 C -0.4783(8) 0.3617(15) 0.5693(12)
H33_2 H -0.4811 0.3901 0.5753
H34_2 H -0.4987 0.3538 0.5501
H35_2 H -0.4815 0.3463 0.5938
C33_2 C -0.3995(10) 0.3043(8) 0.4677(11)
H36_2 H -0.3764 0.2956 0.4516
H37_2 H -0.3991 0.3337 0.4685
C34_2 C -0.4265(12) 0.2453(8) 0.4144(11)
H38_2 H -0.3983 0.2412 0.4202
H39_2 H -0.4300 0.2497 0.3858
H40_2 H -0.4416 0.2217 0.4225
O5_2 O -0.4400(3) 0.1036(3) 0.4959(3)
O6_2 O -0.3937(3) 0.0545(3) 0.4951(3)
S5_2 S -0.4284(4) 0.3523(3) 0.5480(3)
S6_2 S -0.4447(3) 0.2888(2) 0.4419(3)
C1D C 0.4972(5) 0.4082(4) 0.0947(4)
C2D C 0.4865(6) 0.3781(4) 0.1255(4)
C3D C 0.4729(8) 0.3894(5) 0.1638(5)
H1D H 0.4699 0.4167 0.1702
C4D C 0.4642(9) 0.3613(5) 0.1913(5)
C5D C 0.4693(8) 0.3202(5) 0.1826(5)
C6D C 0.4840(9) 0.3105(5) 0.1450(6)
H2D H 0.4899 0.2834 0.1395
C7D C 0.4905(8) 0.3383(5) 0.1153(5)
H3D H 0.4974 0.3304 0.0891
C8D C 0.4627(6) 0.2913(6) 0.2119(6)
C9D C 0.4607(7) 0.2649(6) 0.2362(6)
O1D O 0.4492(7) 0.3677(4) 0.2285(4)
C10D C 0.4443(9) 0.4076(6) 0.2427(7)
H4D H 0.4236 0.4214 0.2270
H5D H 0.4695 0.4225 0.2400
C11D C 0.4322(8) 0.4057(7) 0.2852(7)
C12D C 0.4631(8) 0.3821(8) 0.3099(8)
H6D H 0.4632 0.3542 0.3005
H7D H 0.4545 0.3820 0.3380
C13D C 0.5361(10) 0.3711(10) 0.2686(9)
H8D H 0.5317 0.3837 0.2427
H9D H 0.5244 0.3445 0.2686
H10D H 0.5648 0.3691 0.2736
C14D C 0.4277(8) 0.4488(7) 0.2996(7)
H11D H 0.4069 0.4618 0.2833
H12D H 0.4530 0.4629 0.2943
C15D C 0.4646(7) 0.4647(10) 0.3734(9)
H13D H 0.4769 0.4880 0.3610
H14D H 0.4816 0.4414 0.3692
H15D H 0.4615 0.4694 0.4019
C16D C 0.3937(9) 0.3824(8) 0.2926(8)
H16D H 0.3892 0.3809 0.3216
H17D H 0.3974 0.3549 0.2827
C17D C 0.345(2) 0.370(2) 0.2258(18)
H18D H 0.3214 0.3777 0.2098
H19D H 0.3686 0.3721 0.2095
H20D H 0.3413 0.3427 0.2350
O3D O 0.4976(3) 0.4455(3) 0.1078(3)
O4D O 0.5010(3) 0.3966(3) 0.0599(3)
S2D S 0.5131(3) 0.4011(2) 0.3074(2)
S3D S 0.4153(2) 0.4558(2) 0.35074(19)
S4D S 0.3488(3) 0.4035(3) 0.2690(3)
Zr1D Zr 0.49820(4) 0.50169(4) 0.07346(3)
O8D O 0.4699(5) 0.5320(6) 0.0295(5)
C1E C 0.4972(5) 0.0918(4) 0.4053(4)
C2E C 0.4865(6) 0.1219(4) 0.3745(4)
C3E C 0.4729(8) 0.1106(5) 0.3362(5)
H1E H 0.4699 0.0833 0.3298
C4E C 0.4642(9) 0.1387(5) 0.3087(5)
C5E C 0.4693(8) 0.1798(5) 0.3174(5)
C6E C 0.4840(9) 0.1895(5) 0.3550(6)
H2E H 0.4899 0.2166 0.3605
C7E C 0.4905(8) 0.1617(5) 0.3847(5)
H3E H 0.4974 0.1696 0.4109
C8E C 0.4627(6) 0.2087(6) 0.2881(6)
C9E C 0.4607(7) 0.2351(6) 0.2638(6)
O1E O 0.4492(7) 0.1323(4) 0.2715(4)
C10E C 0.4443(9) 0.0924(6) 0.2573(7)
H4E H 0.4236 0.0786 0.2730
H5E H 0.4695 0.0775 0.2600
C11E C 0.4322(8) 0.0943(7) 0.2148(7)
C12E C 0.4631(8) 0.1179(8) 0.1901(8)
H6E H 0.4632 0.1458 0.1995
H7E H 0.4545 0.1180 0.1620
C13E C 0.5361(10) 0.1289(10) 0.2314(9)
H8E H 0.5317 0.1163 0.2573
H9E H 0.5244 0.1555 0.2314
H10E H 0.5648 0.1309 0.2264
C14E C 0.4277(8) 0.0512(7) 0.2004(7)
H11E H 0.4069 0.0382 0.2167
H12E H 0.4530 0.0371 0.2057
C15E C 0.4646(7) 0.0353(10) 0.1266(9)
H13E H 0.4769 0.0120 0.1390
H14E H 0.4816 0.0586 0.1308
H15E H 0.4615 0.0306 0.0981
C16E C 0.3937(9) 0.1176(8) 0.2074(8)
H16E H 0.3892 0.1191 0.1784
H17E H 0.3974 0.1451 0.2173
C17E C 0.345(2) 0.130(2) 0.2742(18)
H18E H 0.3214 0.1223 0.2902
H19E H 0.3686 0.1279 0.2905
H20E H 0.3413 0.1573 0.2650
O3E O 0.4976(3) 0.0545(3) 0.3922(3)
O4E O 0.5010(3) 0.1034(3) 0.4401(3)
S2E S 0.5131(3) 0.0989(2) 0.1926(2)
S3E S 0.4153(2) 0.0442(2) 0.14926(19)
S4E S 0.3488(3) 0.0965(3) 0.2310(3)
Zr1E Zr 0.49820(4) -0.00169(4) 0.42654(3)
O8E O 0.4699(5) -0.0320(6) 0.4705(5)
C1F C 0.0028(5) 0.0918(4) 0.0947(4)
C2F C 0.0135(6) 0.1219(4) 0.1255(4)
C3F C 0.0271(8) 0.1106(5) 0.1638(5)
H1F H 0.0301 0.0833 0.1702
C4F C 0.0358(9) 0.1387(5) 0.1913(5)
C5F C 0.0307(8) 0.1798(5) 0.1826(5)
C6F C 0.0160(9) 0.1895(5) 0.1450(6)
H2F H 0.0101 0.2166 0.1395
C7F C 0.0095(8) 0.1617(5) 0.1153(5)
H3F H 0.0026 0.1696 0.0891
C8F C 0.0373(6) 0.2087(6) 0.2119(6)
C9F C 0.0393(7) 0.2351(6) 0.2362(6)
O1F O 0.0508(7) 0.1323(4) 0.2285(4)
C10F C 0.0557(9) 0.0924(6) 0.2427(7)
H4F H 0.0764 0.0786 0.2270
H5F H 0.0305 0.0775 0.2400
C11F C 0.0678(8) 0.0943(7) 0.2852(7)
C12F C 0.0369(8) 0.1179(8) 0.3099(8)
H6F H 0.0368 0.1458 0.3005
H7F H 0.0455 0.1180 0.3380
C13F C -0.0361(10) 0.1289(10) 0.2686(9)
H8F H -0.0317 0.1163 0.2427
H9F H -0.0244 0.1555 0.2686
H10F H -0.0648 0.1309 0.2736
C14F C 0.0723(8) 0.0512(7) 0.2996(7)
H11F H 0.0931 0.0382 0.2833
H12F H 0.0470 0.0371 0.2943
C15F C 0.0354(7) 0.0353(10) 0.3734(9)
H13F H 0.0231 0.0120 0.3610
H14F H 0.0184 0.0586 0.3692
H15F H 0.0385 0.0306 0.4019
C16F C 0.1063(9) 0.1176(8) 0.2926(8)
H16F H 0.1108 0.1191 0.3216
H17F H 0.1026 0.1451 0.2827
C17F C 0.155(2) 0.130(2) 0.2258(18)
H18F H 0.1786 0.1223 0.2098
H19F H 0.1314 0.1279 0.2095
H20F H 0.1587 0.1573 0.2350
O3F O 0.0024(3) 0.0545(3) 0.1078(3)
O4F O -0.0010(3) 0.1034(3) 0.0599(3)
S2F S -0.0131(3) 0.0989(2) 0.3074(2)
S3F S 0.0847(2) 0.0442(2) 0.35074(19)
S4F S 0.1512(3) 0.0965(3) 0.2690(3)
Zr1F Zr 0.00180(4) -0.00169(4) 0.07346(3)
O8F O 0.0301(5) -0.0320(6) 0.0295(5)
C1G C 0.0028(5) 0.4082(4) 0.4053(4)
C2G C 0.0135(6) 0.3781(4) 0.3745(4)
C3G C 0.0271(8) 0.3894(5) 0.3362(5)
H1G H 0.0301 0.4167 0.3298
C4G C 0.0358(9) 0.3613(5) 0.3087(5)
C5G C 0.0307(8) 0.3202(5) 0.3174(5)
C6G C 0.0160(9) 0.3105(5) 0.3550(6)
H2G H 0.0101 0.2834 0.3605
C7G C 0.0095(8) 0.3383(5) 0.3847(5)
H3G H 0.0026 0.3304 0.4109
C8G C 0.0373(6) 0.2913(6) 0.2881(6)
C9G C 0.0393(7) 0.2649(6) 0.2638(6)
O1G O 0.0508(7) 0.3677(4) 0.2715(4)
C10G C 0.0557(9) 0.4076(6) 0.2573(7)
H4G H 0.0764 0.4214 0.2730
H5G H 0.0305 0.4225 0.2600
C11G C 0.0678(8) 0.4057(7) 0.2148(7)
C12G C 0.0369(8) 0.3821(8) 0.1901(8)
H6G H 0.0368 0.3542 0.1995
H7G H 0.0455 0.3820 0.1620
C13G C -0.0361(10) 0.3711(10) 0.2314(9)
H8G H -0.0317 0.3837 0.2573
H9G H -0.0244 0.3445 0.2314
H10G H -0.0648 0.3691 0.2264
C14G C 0.0723(8) 0.4488(7) 0.2004(7)
H11G H 0.0931 0.4618 0.2167
H12G H 0.0470 0.4629 0.2057
C15G C 0.0354(7) 0.4647(10) 0.1266(9)
H13G H 0.0231 0.4880 0.1390
H14G H 0.0184 0.4414 0.1308
H15G H 0.0385 0.4694 0.0981
C16G C 0.1063(9) 0.3824(8) 0.2074(8)
H16G H 0.1108 0.3809 0.1784
H17G H 0.1026 0.3549 0.2173
C17G C 0.155(2) 0.370(2) 0.2742(18)
H18G H 0.1786 0.3777 0.2902
H19G H 0.1314 0.3721 0.2905
H20G H 0.1587 0.3427 0.2650
O3G O 0.0024(3) 0.4455(3) 0.3922(3)
O4G O -0.0010(3) 0.3966(3) 0.4401(3)
S2G S -0.0131(3) 0.4011(2) 0.1926(2)
S3G S 0.0847(2) 0.4558(2) 0.14926(19)
S4G S 0.1512(3) 0.4035(3) 0.2310(3)
Zr1G Zr 0.00180(4) 0.50169(4) 0.42654(3)
O8G O 0.0301(5) 0.5320(6) 0.4705(5)
C18Q C 0.5074(4) 0.0956(4) 0.5900(4)
C19Q C 0.5172(8) 0.1270(7) 0.6205(6)
C20Q C 0.5138(11) 0.1163(7) 0.6613(7)
H21Q H 0.5071 0.0897 0.6682
C21Q C 0.5198(12) 0.1435(7) 0.6901(6)
C22Q C 0.5354(10) 0.1816(6) 0.6802(6)
C23Q C 0.5398(13) 0.1912(7) 0.6402(6)
H22Q H 0.5507 0.2163 0.6333
C24Q C 0.5288(15) 0.1653(8) 0.6098(7)
H23Q H 0.5291 0.1735 0.5828
C25Q C 0.5425(10) 0.2105(8) 0.7096(7)
C26Q C 0.5446(11) 0.2359(8) 0.7352(8)
O2Q O 0.5163(9) 0.1359(7) 0.7298(5)
C27Q C 0.4908(9) 0.1043(7) 0.7420(7)
H24Q H 0.4638 0.1079 0.7310
H25Q H 0.5014 0.0784 0.7330
C28Q C 0.4901(11) 0.1066(10) 0.7891(8)
C29Q C 0.4733(13) 0.1428(11) 0.8017(10)
H26Q H 0.4740 0.1433 0.8311
H27Q H 0.4908 0.1645 0.7923
S1Q S 0.4250(5) 0.1541(5) 0.7868(4)
C30Q C 0.4273(18) 0.2018(12) 0.8141(17)
H28Q H 0.4021 0.2160 0.8109
H29Q H 0.4490 0.2180 0.8034
H30Q H 0.4321 0.1966 0.8423
C31Q C 0.4624(11) 0.0752(11) 0.8007(10)
H31Q H 0.4370 0.0795 0.7865
H32Q H 0.4733 0.0494 0.7917
C32Q C 0.4307(12) 0.0217(8) 0.8617(15)
H33Q H 0.4247 0.0189 0.8901
H34Q H 0.4499 0.0013 0.8538
H35Q H 0.4062 0.0185 0.8463
C33Q C 0.5323(11) 0.1005(10) 0.8043(8)
H36Q H 0.5484 0.1236 0.7956
H37Q H 0.5315 0.1009 0.8337
C34Q C 0.5856(11) 0.0735(12) 0.7453(8)
H38Q H 0.5798 0.1017 0.7412
H39Q H 0.6142 0.0700 0.7497
H40Q H 0.5775 0.0584 0.7217
O5Q O 0.5041(3) 0.0600(3) 0.6036(3)
O6Q O 0.5049(3) 0.1063(3) 0.5545(3)
S5Q S 0.4520(3) 0.0716(4) 0.8523(3)
S6Q S 0.5581(3) 0.0553(3) 0.7888(2)
C18P C 0.5074(4) 0.4044(4) 0.9100(4)
C19P C 0.5172(8) 0.3730(7) 0.8795(6)
C20P C 0.5138(11) 0.3837(7) 0.8387(7)
H21P H 0.5071 0.4103 0.8318
C21P C 0.5198(12) 0.3565(7) 0.8099(6)
C22P C 0.5354(10) 0.3184(6) 0.8198(6)
C23P C 0.5398(13) 0.3088(7) 0.8598(6)
H22P H 0.5507 0.2837 0.8667
C24P C 0.5288(15) 0.3347(8) 0.8902(7)
H23P H 0.5291 0.3265 0.9172
C25P C 0.5425(10) 0.2895(8) 0.7904(7)
C26P C 0.5446(11) 0.2641(8) 0.7648(8)
O2P O 0.5163(9) 0.3641(7) 0.7702(5)
C27P C 0.4908(9) 0.3957(7) 0.7580(7)
H24P H 0.4638 0.3921 0.7690
H25P H 0.5014 0.4216 0.7670
C28P C 0.4901(11) 0.3934(10) 0.7109(8)
C29P C 0.4733(13) 0.3572(11) 0.6983(10)
H26P H 0.4740 0.3567 0.6689
H27P H 0.4908 0.3355 0.7077
S1P S 0.4250(5) 0.3459(5) 0.7132(4)
C30P C 0.4273(18) 0.2982(12) 0.6859(17)
H28P H 0.4021 0.2840 0.6891
H29P H 0.4490 0.2820 0.6966
H30P H 0.4321 0.3034 0.6577
C31P C 0.4624(11) 0.4248(11) 0.6993(10)
H31P H 0.4370 0.4205 0.7135
H32P H 0.4733 0.4506 0.7083
C32P C 0.4307(12) 0.4783(8) 0.6383(15)
H33P H 0.4247 0.4811 0.6099
H34P H 0.4499 0.4987 0.6462
H35P H 0.4062 0.4815 0.6537
C33P C 0.5323(11) 0.3995(10) 0.6957(8)
H36P H 0.5484 0.3764 0.7044
H37P H 0.5315 0.3991 0.6663
C34P C 0.5856(11) 0.4265(12) 0.7547(8)
H38P H 0.5798 0.3983 0.7588
H39P H 0.6142 0.4300 0.7503
H40P H 0.5775 0.4416 0.7783
O5P O 0.5041(3) 0.4400(3) 0.8964(3)
O6P O 0.5049(3) 0.3937(3) 0.9455(3)
S5P S 0.4520(3) 0.4284(4) 0.6477(3)
S6P S 0.5581(3) 0.4447(3) 0.7112(2)
O4H O 0.0599(3) 0.5010(3) 0.3966(3)
O4I O 0.4401(3) 0.5010(3) 0.1034(3)
O4J O 0.0599(3) -0.0010(3) 0.1034(3)
O4K O 0.4401(3) -0.0010(3) 0.3966(3)
O5D O 0.4959(3) 0.5600(3) 0.1036(3)
O5E O 0.4959(3) -0.0600(3) 0.3964(3)
O5F O 0.0041(3) -0.0600(3) 0.1036(3)
O5G O 0.0041(3) 0.5600(3) 0.3964(3)
O6S O -0.0049(3) 0.3937(3) 0.5545(3)
O6T O -0.0545(3) 0.5049(3) 0.3937(3)
O6U O 0.5545(3) 0.5049(3) 0.1063(3)
O6V O -0.0545(3) -0.0049(3) 0.1063(3)
O6W O 0.5545(3) -0.0049(3) 0.3937(3)
O7B O 0.0410(5) 0.0410(5) 0.0410(5)
O7C O 0.4590(5) 0.4590(5) 0.0410(5)
Zr1_2 Zr -0.49831(4) 0.07346(3) 0.49820(4)
Zr1A_2 Zr 0.99831(4) 0.42654(3) 0.49820(4)
Zr1B Zr -0.00169(4) 0.07346(3) 0.00180(4)
Zr1C Zr 0.50169(4) 0.42654(3) 0.00180(4)
Zr1C_2 Zr 0.50169(4) 0.42654(3) 1.00180(4)
Zr1H Zr 0.07346(3) 0.49820(4) 0.50169(4)
Zr1I Zr 0.42654(3) 0.49820(4) -0.00169(4)
Zr1J Zr 0.07346(3) 0.00180(4) -0.00169(4)
Zr1K Zr 0.42654(3) 0.00180(4) 0.50169(4)
Zr1L Zr 0.49831(4) -0.07346(3) 0.50180(4)
Zr1M Zr 0.00169(4) 0.57346(3) 0.50180(4)
Zr1N Zr 0.00169(4) -0.07346(3) -0.00180(4)
Zr1O Zr 0.49831(4) 0.57346(3) -0.00180(4)
Zr1P Zr 0.50180(4) 0.49831(4) 0.92654(3)
Zr1Q Zr 0.50180(4) 0.00169(4) 0.57346(3)
Zr1T Zr -0.07346(3) 0.50180(4) 0.49831(4)
Zr1T_2 Zr 0.92654(3) 0.50180(4) 0.49831(4)
Zr1W Zr -0.42654(3) -0.00180(4) 0.49831(4)
Zr1W_2 Zr 0.57346(3) -0.00180(4) 0.49831(4)
O8B O -0.0320(6) 0.0295(5) 0.0301(5)
O8C O 0.5320(6) 0.4705(5) 0.0301(5)
O8H O 0.0295(5) 0.4699(5) 0.5320(6)
O8K O 0.4705(5) 0.0301(5) 0.5320(6)
O8Q O 0.5301(5) 0.0320(6) 0.5295(5)
O8S O -0.0301(5) 0.4680(6) 0.5295(5)
O8T O -0.0295(5) 0.5301(5) 0.4680(6)
O8U O 0.5295(5) 0.5301(5) 0.0320(6)
O8V O -0.0295(5) -0.0301(5) 0.0320(6)
O8W O 0.5295(5) -0.0301(5) 0.4680(6)
Hg1 Hg 0.53737(4) 0.34906(3) 0.37788(4)
Cl1 Cl 0.5188(3) 0.29449(19) 0.3385(3)
Cl2 Cl 0.5577(3) 0.4039(3) 0.4172(4)
Hg2 Hg 0.65763(7) 0.38376(8) 0.38919(10)
Cl3 Cl 0.6973(5) 0.3507(5) 0.4398(7)
Cl4 Cl 0.6187(4) 0.3492(7) 0.3435(7)
N1 N 0.5051 0.2048 0.4984
C35 C 0.4805 0.1992 0.5224
C36 C 0.4548 0.1828 0.5548
H42 H 0.4462 0.1559 0.5478
H43 H 0.4314 0.1998 0.5582
H44 H 0.4699 0.1820 0.5797
O9 O 0.5889(7) 0.0854(8) 0.4006(8)
loop_
_geom_bond_atom_site_label_1
_geom_bond_atom_site_label_2
_geom_bond_site_symmetry_1
_geom_bond_site_symmetry_2
C1 C2 1_555 1_555
C2 C3 1_555 1_555
C3 H1 1_555 1_555
C4 C3 1_555 1_555
C5 C4 1_555 1_555
C6 C5 1_555 1_555
H2 C6 1_555 1_555
C7 C2 1_555 1_555
H3 C7 1_555 1_555
C8 C5 1_555 1_555
C9 C8 1_555 1_555
O1 C4 1_555 1_555
C10 O1 1_555 1_555
H4 C10 1_555 1_555
H5 C10 1_555 1_555
C11 C10 1_555 1_555
C12 C11 1_555 1_555
H6 C12 1_555 1_555
H7 C12 1_555 1_555
C13 H8 1_555 1_555
H9 C13 1_555 1_555
H10 C13 1_555 1_555
C14 C11 1_555 1_555
H11 C14 1_555 1_555
H12 C14 1_555 1_555
C15 H13 1_555 1_555
H14 C15 1_555 1_555
H15 C15 1_555 1_555
C16 C11 1_555 1_555
H16 C16 1_555 1_555
H17 C16 1_555 1_555
C17 H18 1_555 1_555
H19 C17 1_555 1_555
H20 C17 1_555 1_555
C18 C19 1_555 1_555
C19 C20 1_555 1_555
C20 H21 1_555 1_555
C21 C20 1_555 1_555
C22 C21 1_555 1_555
C23 C22 1_555 1_555
H22 C23 1_555 1_555
C24 C19 1_555 1_555
H23 C24 1_555 1_555
C25 C22 1_555 1_555
C26 C25 1_555 1_555
O2 C21 1_555 1_555
C27 O2 1_555 1_555
H24 C27 1_555 1_555
H25 C27 1_555 1_555
C28 C27 1_555 1_555
C29 C28 1_555 1_555
H26 C29 1_555 1_555
H27 C29 1_555 1_555
S1 C29 1_555 1_555
C30 S1 1_555 1_555
H28 C30 1_555 1_555
H29 C30 1_555 1_555
H30 C30 1_555 1_555
C31 C28 1_555 1_555
H31 C31 1_555 1_555
H32 C31 1_555 1_555
C32 H33 1_555 1_555
H34 C32 1_555 1_555
H35 C32 1_555 1_555
C33 C28 1_555 1_555
H36 C33 1_555 1_555
H37 C33 1_555 1_555
C34 H38 1_555 1_555
H39 C34 1_555 1_555
H40 C34 1_555 1_555
O3 C1 1_555 1_555
O4 C1 1_555 1_555
O5 C18 1_555 1_555
O6 C18 1_555 1_555
O7 H41 1_555 1_555
S2 C12 1_555 1_555
S3 C14 1_555 1_555
S4 C16 1_555 1_555
S5 C31 1_555 1_555
S6 C33 1_555 1_555
Zr1 O3 1_555 1_555
O8 Zr1 1_555 1_555
Hg1 Cl1 1_555 1_555
Cl2 Hg1 1_555 1_555
Hg2 Cl3 1_555 1_555
Cl4 Hg2 1_555 1_555
N1 C35 1_555 1_555
C35 C36 1_555 1_555
C36 H42 1_555 1_555
H43 C36 1_555 1_555
H44 C36 1_555 1_555
C1A C2A 1_555 1_555
C2A C3A 1_555 1_555
C3A H1A 1_555 1_555
C4A C3A 1_555 1_555
C5A C4A 1_555 1_555
C6A C5A 1_555 1_555
H2A C6A 1_555 1_555
C7A C2A 1_555 1_555
H3A C7A 1_555 1_555
C8A C5A 1_555 1_555
C9A C9 1_555 1_555
O1A C4A 1_555 1_555
C10A O1A 1_555 1_555
H4A C10A 1_555 1_555
H5A C10A 1_555 1_555
C11A C10A 1_555 1_555
C12A C11A 1_555 1_555
H6A C12A 1_555 1_555
H7A C12A 1_555 1_555
C13A H8A 1_555 1_555
H9A C13A 1_555 1_555
H10A C13A 1_555 1_555
C14A C11A 1_555 1_555
H11A C14A 1_555 1_555
H12A C14A 1_555 1_555
C15A H13A 1_555 1_555
H14A C15A 1_555 1_555
H15A C15A 1_555 1_555
C16A C11A 1_555 1_555
H16A C16A 1_555 1_555
H17A C16A 1_555 1_555
C17A H18A 1_555 1_555
H19A C17A 1_555 1_555
H20A C17A 1_555 1_555
O3A C1A 1_555 1_555
O4A C1A 1_555 1_555
S2A C12A 1_555 1_555
S3A C14A 1_555 1_555
S4A C16A 1_555 1_555
C18A C19A 1_555 1_555
C19A C20A 1_555 1_555
C20A H21A 1_555 1_555
C21A C20A 1_555 1_555
C22A C21A 1_555 1_555
C23A C22A 1_555 1_555
H22A C23A 1_555 1_555
C24A C19A 1_555 1_555
H23A C24A 1_555 1_555
C25A C22A 1_555 1_555
C26A C26 1_555 1_555
O2A C21A 1_555 1_555
C27A O2A 1_555 1_555
H24A C27A 1_555 1_555
H25A C27A 1_555 1_555
C28A C27A 1_555 1_555
C29A C28A 1_555 1_555
H26A C29A 1_555 1_555
H27A C29A 1_555 1_555
S1A C29A 1_555 1_555
C30A S1A 1_555 1_555
H28A C30A 1_555 1_555
H29A C30A 1_555 1_555
H30A C30A 1_555 1_555
C31A C28A 1_555 1_555
H31A C31A 1_555 1_555
H32A C31A 1_555 1_555
C32A H33A 1_555 1_555
H34A C32A 1_555 1_555
H35A C32A 1_555 1_555
C33A C28A 1_555 1_555
H36A C33A 1_555 1_555
H37A C33A 1_555 1_555
C34A H38A 1_555 1_555
H39A C34A 1_555 1_555
H40A C34A 1_555 1_555
O5A C18A 1_555 1_555
O6A C18A 1_555 1_555
S5A C31A 1_555 1_555
S6A C33A 1_555 1_555
C18A_2 C19A_2 1_555 1_555
C19A_2 C20A_2 1_555 1_555
C20A_2 H21A_2 1_555 1_555
C21A_2 C20A_2 1_555 1_555
C22A_2 C21A_2 1_555 1_555
C23A_2 C22A_2 1_555 1_555
H22A_2 C23A_2 1_555 1_555
C24A_2 C19A_2 1_555 1_555
H23A_2 C24A_2 1_555 1_555
C25A_2 C22A_2 1_555 1_555
C26A_2 C25A_2 1_555 1_555
O2A_2 C21A_2 1_555 1_555
C27A_2 O2A_2 1_555 1_555
H24A_2 C27A_2 1_555 1_555
H25A_2 C27A_2 1_555 1_555
C28A_2 C27A_2 1_555 1_555
C29A_2 C28A_2 1_555 1_555
H26A_2 C29A_2 1_555 1_555
H27A_2 C29A_2 1_555 1_555
S1A_2 C29A_2 1_555 1_555
C30A_2 S1A_2 1_555 1_555
H28A_2 C30A_2 1_555 1_555
H29A_2 C30A_2 1_555 1_555
H30A_2 C30A_2 1_555 1_555
C31A_2 C28A_2 1_555 1_555
H31A_2 C31A_2 1_555 1_555
H32A_2 C31A_2 1_555 1_555
C32A_2 H33A_2 1_555 1_555
H34A_2 C32A_2 1_555 1_555
H35A_2 C32A_2 1_555 1_555
C33A_2 C28A_2 1_555 1_555
H36A_2 C33A_2 1_555 1_555
H37A_2 C33A_2 1_555 1_555
C34A_2 H38A_2 1_555 1_555
H39A_2 C34A_2 1_555 1_555
H40A_2 C34A_2 1_555 1_555
O5A_2 C18A_2 1_555 1_555
O6A_2 C18A_2 1_555 1_555
O7A H41A 1_555 1_555
S5A_2 C31A_2 1_555 1_555
S6A_2 C33A_2 1_555 1_555
Zr1A O3A 1_555 1_555
O8A Zr1A 1_555 1_555
C18_2 C19_2 1_555 1_555
C19_2 C20_2 1_555 1_555
C20_2 H21_2 1_555 1_555
C21_2 C20_2 1_555 1_555
C22_2 C21_2 1_555 1_555
C23_2 C22_2 1_555 1_555
H22_2 C23_2 1_555 1_555
C24_2 C19_2 1_555 1_555
H23_2 C24_2 1_555 1_555
C25_2 C22_2 1_555 1_555
C26_2 C26A_2 1_555 1_555
O2_2 C21_2 1_555 1_555
C27_2 O2_2 1_555 1_555
H24_2 C27_2 1_555 1_555
H25_2 C27_2 1_555 1_555
C28_2 C27_2 1_555 1_555
C29_2 C28_2 1_555 1_555
H26_2 C29_2 1_555 1_555
H27_2 C29_2 1_555 1_555
S1_2 C29_2 1_555 1_555
C30_2 S1_2 1_555 1_555
H28_2 C30_2 1_555 1_555
H29_2 C30_2 1_555 1_555
H30_2 C30_2 1_555 1_555
C31_2 C28_2 1_555 1_555
H31_2 C31_2 1_555 1_555
H32_2 C31_2 1_555 1_555
C32_2 H33_2 1_555 1_555
H34_2 C32_2 1_555 1_555
H35_2 C32_2 1_555 1_555
C33_2 C28_2 1_555 1_555
H36_2 C33_2 1_555 1_555
H37_2 C33_2 1_555 1_555
C34_2 H38_2 1_555 1_555
H39_2 C34_2 1_555 1_555
H40_2 C34_2 1_555 1_555
O5_2 C18_2 1_555 1_555
O6_2 C18_2 1_555 1_555
S5_2 C31_2 1_555 1_555
S6_2 C33_2 1_555 1_555
C1D C2D 1_555 1_555
C2D C3D 1_555 1_555
C3D H1D 1_555 1_555
C4D C3D 1_555 1_555
C5D C4D 1_555 1_555
C6D C5D 1_555 1_555
H2D C6D 1_555 1_555
C7D C2D 1_555 1_555
H3D C7D 1_555 1_555
C8D C5D 1_555 1_555
C9D C8D 1_555 1_555
O1D C4D 1_555 1_555
C10D O1D 1_555 1_555
H4D C10D 1_555 1_555
H5D C10D 1_555 1_555
C11D C10D 1_555 1_555
C12D C11D 1_555 1_555
H6D C12D 1_555 1_555
H7D C12D 1_555 1_555
C13D H8D 1_555 1_555
H9D C13D 1_555 1_555
H10D C13D 1_555 1_555
C14D C11D 1_555 1_555
H11D C14D 1_555 1_555
H12D C14D 1_555 1_555
C15D H13D 1_555 1_555
H14D C15D 1_555 1_555
H15D C15D 1_555 1_555
C16D C11D 1_555 1_555
H16D C16D 1_555 1_555
H17D C16D 1_555 1_555
C17D H18D 1_555 1_555
H19D C17D 1_555 1_555
H20D C17D 1_555 1_555
O3D C1D 1_555 1_555
O4D C1D 1_555 1_555
S2D C12D 1_555 1_555
S3D C14D 1_555 1_555
S4D C16D 1_555 1_555
Zr1D O3D 1_555 1_555
O8D Zr1D 1_555 1_555
C1E C2E 1_555 1_555
C2E C3E 1_555 1_555
C3E H1E 1_555 1_555
C4E C3E 1_555 1_555
C5E C4E 1_555 1_555
C6E C5E 1_555 1_555
H2E C6E 1_555 1_555
C7E C2E 1_555 1_555
H3E C7E 1_555 1_555
C8E C5E 1_555 1_555
C9E C9D 1_555 1_555
O1E C4E 1_555 1_555
C10E O1E 1_555 1_555
H4E C10E 1_555 1_555
H5E C10E 1_555 1_555
C11E C10E 1_555 1_555
C12E C11E 1_555 1_555
H6E C12E 1_555 1_555
H7E C12E 1_555 1_555
C13E H8E 1_555 1_555
H9E C13E 1_555 1_555
H10E C13E 1_555 1_555
C14E C11E 1_555 1_555
H11E C14E 1_555 1_555
H12E C14E 1_555 1_555
C15E H13E 1_555 1_555
H14E C15E 1_555 1_555
H15E C15E 1_555 1_555
C16E C11E 1_555 1_555
H16E C16E 1_555 1_555
H17E C16E 1_555 1_555
C17E H18E 1_555 1_555
H19E C17E 1_555 1_555
H20E C17E 1_555 1_555
O3E C1E 1_555 1_555
O4E Zr1 1_555 1_555
S2E C12E 1_555 1_555
S3E C14E 1_555 1_555
S4E C16E 1_555 1_555
Zr1E O7 1_555 1_555
O8E Zr1E 1_555 1_555
C1F C2F 1_555 1_555
C2F C3F 1_555 1_555
C3F H1F 1_555 1_555
C4F C3F 1_555 1_555
C5F C4F 1_555 1_555
C6F C5F 1_555 1_555
H2F C6F 1_555 1_555
C7F C2F 1_555 1_555
H3F C7F 1_555 1_555
C8F C5F 1_555 1_555
C9F C8F 1_555 1_555
O1F C4F 1_555 1_555
C10F O1F 1_555 1_555
H4F C10F 1_555 1_555
H5F C10F 1_555 1_555
C11F C10F 1_555 1_555
C12F C11F 1_555 1_555
H6F C12F 1_555 1_555
H7F C12F 1_555 1_555
C13F H8F 1_555 1_555
H9F C13F 1_555 1_555
H10F C13F 1_555 1_555
C14F C11F 1_555 1_555
H11F C14F 1_555 1_555
H12F C14F 1_555 1_555
C15F H13F 1_555 1_555
H14F C15F 1_555 1_555
H15F C15F 1_555 1_555
C16F C11F 1_555 1_555
H16F C16F 1_555 1_555
H17F C16F 1_555 1_555
C17F H18F 1_555 1_555
H19F C17F 1_555 1_555
H20F C17F 1_555 1_555
O3F C1F 1_555 1_555
O4F C1F 1_555 1_555
S2F C12F 1_555 1_555
S3F C14F 1_555 1_555
S4F C16F 1_555 1_555
Zr1F O3F 1_555 1_555
O8F Zr1F 1_555 1_555
C1G C2G 1_555 1_555
C2G C3G 1_555 1_555
C3G H1G 1_555 1_555
C4G C3G 1_555 1_555
C5G C4G 1_555 1_555
C6G C5G 1_555 1_555
H2G C6G 1_555 1_555
C7G C2G 1_555 1_555
H3G C7G 1_555 1_555
C8G C5G 1_555 1_555
C9G C9F 1_555 1_555
O1G C4G 1_555 1_555
C10G O1G 1_555 1_555
H4G C10G 1_555 1_555
H5G C10G 1_555 1_555
C11G C10G 1_555 1_555
C12G C11G 1_555 1_555
H6G C12G 1_555 1_555
H7G C12G 1_555 1_555
C13G H8G 1_555 1_555
H9G C13G 1_555 1_555
H10G C13G 1_555 1_555
C14G C11G 1_555 1_555
H11G C14G 1_555 1_555
H12G C14G 1_555 1_555
C15G H13G 1_555 1_555
H14G C15G 1_555 1_555
H15G C15G 1_555 1_555
C16G C11G 1_555 1_555
H16G C16G 1_555 1_555
H17G C16G 1_555 1_555
C17G H18G 1_555 1_555
H19G C17G 1_555 1_555
H20G C17G 1_555 1_555
O3G C1G 1_555 1_555
O4G Zr1A 1_555 1_555
S2G C12G 1_555 1_555
S3G C14G 1_555 1_555
S4G C16G 1_555 1_555
Zr1G O7A 1_555 1_555
O8G Zr1G 1_555 1_555
C18Q C19Q 1_555 1_555
C19Q C20Q 1_555 1_555
C20Q H21Q 1_555 1_555
C21Q C20Q 1_555 1_555
C22Q C21Q 1_555 1_555
C23Q C22Q 1_555 1_555
H22Q C23Q 1_555 1_555
C24Q C19Q 1_555 1_555
H23Q C24Q 1_555 1_555
C25Q C22Q 1_555 1_555
C26Q C25Q 1_555 1_555
O2Q C21Q 1_555 1_555
C27Q O2Q 1_555 1_555
H24Q C27Q 1_555 1_555
H25Q C27Q 1_555 1_555
C28Q C27Q 1_555 1_555
C29Q C28Q 1_555 1_555
H26Q C29Q 1_555 1_555
H27Q C29Q 1_555 1_555
S1Q C29Q 1_555 1_555
C30Q S1Q 1_555 1_555
H28Q C30Q 1_555 1_555
H29Q C30Q 1_555 1_555
H30Q C30Q 1_555 1_555
C31Q C28Q 1_555 1_555
H31Q C31Q 1_555 1_555
H32Q C31Q 1_555 1_555
C32Q H33Q 1_555 1_555
H34Q C32Q 1_555 1_555
H35Q C32Q 1_555 1_555
C33Q C28Q 1_555 1_555
H36Q C33Q 1_555 1_555
H37Q C33Q 1_555 1_555
C34Q H38Q 1_555 1_555
H39Q C34Q 1_555 1_555
H40Q C34Q 1_555 1_555
O5Q C18Q 1_555 1_555
O6Q Zr1 1_555 1_555
S5Q C31Q 1_555 1_555
S6Q C33Q 1_555 1_555
C18P C19P 1_555 1_555
C19P C20P 1_555 1_555
C20P H21P 1_555 1_555
C21P C20P 1_555 1_555
C22P C21P 1_555 1_555
C23P C22P 1_555 1_555
H22P C23P 1_555 1_555
C24P C19P 1_555 1_555
H23P C24P 1_555 1_555
C25P C22P 1_555 1_555
C26P C26Q 1_555 1_555
O2P C21P 1_555 1_555
C27P O2P 1_555 1_555
H24P C27P 1_555 1_555
H25P C27P 1_555 1_555
C28P C27P 1_555 1_555
C29P C28P 1_555 1_555
H26P C29P 1_555 1_555
H27P C29P 1_555 1_555
S1P C29P 1_555 1_555
C30P S1P 1_555 1_555
H28P C30P 1_555 1_555
H29P C30P 1_555 1_555
H30P C30P 1_555 1_555
C31P C28P 1_555 1_555
H31P C31P 1_555 1_555
H32P C31P 1_555 1_555
C32P H33P 1_555 1_555
H34P C32P 1_555 1_555
H35P C32P 1_555 1_555
C33P C28P 1_555 1_555
H36P C33P 1_555 1_555
H37P C33P 1_555 1_555
C34P H38P 1_555 1_555
H39P C34P 1_555 1_555
H40P C34P 1_555 1_555
O5P C18P 1_555 1_555
O6P C18P 1_555 1_555
S5P C31P 1_555 1_555
S6P C33P 1_555 1_555
O4H Zr1G 1_555 1_555
O4I Zr1D 1_555 1_555
O4J Zr1F 1_555 1_555
O4K Zr1E 1_555 1_555
O5D Zr1D 1_555 1_555
O5E Zr1E 1_555 1_555
O5F Zr1F 1_555 1_555
O5G Zr1G 1_555 1_555
O6S Zr1A 1_555 1_555
O6T Zr1G 1_555 1_555
O6U Zr1D 1_555 1_555
O6V Zr1F 1_555 1_555
O6W Zr1E 1_555 1_555
O7B Zr1F 1_555 1_555
O7C Zr1D 1_555 1_555
Zr1_2 O5_2 1_555 1_555
Zr1A_2 O5A 1_555 1_555
Zr1B O4F 1_555 1_555
Zr1C O4D 1_555 1_555
Zr1C_2 O6P 1_555 1_555
Zr1H O4A 1_555 1_555
Zr1I O8D 1_555 1_555
Zr1J O8F 1_555 1_555
Zr1K O4 1_555 1_555
Zr1L O8E 1_555 1_555
Zr1M O8G 1_555 1_555
Zr1N O8F 1_555 1_555
Zr1O O8D 1_555 1_555
Zr1P O5P 1_555 1_555
Zr1Q O5Q 1_555 1_555
Zr1T O6A_2 1_555 1_555
Zr1T_2 O6A 1_555 1_555
Zr1W O6_2 1_555 1_555
Zr1W_2 O6 1_555 1_555
O8B Zr1F 1_555 1_555
O8C Zr1D 1_555 1_555
O8H Zr1A 1_555 1_555
O8K Zr1 1_555 1_555
O8Q Zr1 1_555 1_555
O8S Zr1A 1_555 1_555
O8T Zr1G 1_555 1_555
O8U Zr1D 1_555 1_555
O8V Zr1F 1_555 1_555
O8W Zr1E 1_555 1_555
C6 C7 1_555 1_555
C13 S2 1_555 1_555
C15 S3 1_555 1_555
C17 S4 1_555 1_555
C23 C24 1_555 1_555
C32 S5 1_555 1_555
C34 S6 1_555 1_555
O5 Zr1 1_555 1_555
O7 Zr1 1_555 1_555
O7 Zr1K 1_555 1_555
O8 Zr1E 1_555 1_555
O8 Zr1W_2 1_555 1_555
C6A C7A 1_555 1_555
C8A C9A 1_555 1_555
C13A S2A 1_555 1_555
C15A S3A 1_555 1_555
C17A S4A 1_555 1_555
C23A C24A 1_555 1_555
C25A C26A 1_555 1_555
C32A S5A 1_555 1_555
C34A S6A 1_555 1_555
C23A_2 C24A_2 1_555 1_555
C32A_2 S5A_2 1_555 1_555
C34A_2 S6A_2 1_555 1_555
O5A_2 Zr1A 1_555 1_555
O7A Zr1A 1_555 1_555
O7A Zr1H 1_555 1_555
O8A Zr1G 1_555 1_555
O8A Zr1T 1_555 1_555
C23_2 C24_2 1_555 1_555
C25_2 C26_2 1_555 1_555
C32_2 S5_2 1_555 1_555
C34_2 S6_2 1_555 1_555
C6D C7D 1_555 1_555
C13D S2D 1_555 1_555
C15D S3D 1_555 1_555
C17D S4D 1_555 1_555
C1E O4E 1_555 1_555
C6E C7E 1_555 1_555
C8E C9E 1_555 1_555
C13E S2E 1_555 1_555
C15E S3E 1_555 1_555
C17E S4E 1_555 1_555
O3E Zr1E 1_555 1_555
O8E Zr1K 1_555 1_555
C6F C7F 1_555 1_555
C13F S2F 1_555 1_555
C15F S3F 1_555 1_555
C17F S4F 1_555 1_555
C1G O4G 1_555 1_555
C6G C7G 1_555 1_555
C8G C9G 1_555 1_555
C13G S2G 1_555 1_555
C15G S3G 1_555 1_555
C17G S4G 1_555 1_555
O3G Zr1G 1_555 1_555
O8G Zr1H 1_555 1_555
C18Q O6Q 1_555 1_555
C23Q C24Q 1_555 1_555
C32Q S5Q 1_555 1_555
C34Q S6Q 1_555 1_555
C23P C24P 1_555 1_555
C25P C26P 1_555 1_555
C32P S5P 1_555 1_555
C34P S6P 1_555 1_555
O7B Zr1B 1_555 1_555
O7B Zr1J 1_555 1_555
O7C Zr1C 1_555 1_555
O7C Zr1I 1_555 1_555
Zr1B O8B 1_555 1_555
Zr1C O8C 1_555 1_555
Zr1H O8H 1_555 1_555
Zr1K O8K 1_555 1_555
Zr1L O8W 1_555 1_555
Zr1M O8T 1_555 1_555
Zr1N O8V 1_555 1_555
Zr1O O8U 1_555 1_555
Zr1Q O8K 1_555 1_555
Zr1Q O8Q 1_555 1_555
Zr1T O8S 1_555 1_555
Zr1T O8T 1_555 1_555
Zr1W_2 O8Q 1_555 1_555
Zr1W_2 O8W 1_555 1_555

#END
