
#######################################################################
#
#                 Cambridge Crystallographic Data Centre
#                                CCDC 
#
#######################################################################
#
# If this CIF has been generated from an entry in the Cambridge 
# Structural Database, then it will include bibliographic, chemical, 
# crystal, experimental, refinement or atomic coordinate data resulting 
# from the CCDC's data processing and validation procedures.
#
#######################################################################

data_MUTNAQ
_chemical_formula_moiety         '(C15 H12 Ag1 F3 N4 O4 S1)n'
_symmetry_cell_setting           orthorhombic
_symmetry_space_group_name_H-M   'P n n m'
_symmetry_Int_Tables_number      58
_space_group_name_Hall           '-P 2 2n'
loop_
_symmetry_equiv_pos_site_id
_symmetry_equiv_pos_as_xyz
1 x,y,z
2 x,y,-z
3 1/2+x,1/2-y,1/2+z
4 1/2-x,1/2+y,1/2+z
5 -x,-y,-z
6 -x,-y,z
7 1/2-x,1/2+y,1/2-z
8 1/2+x,1/2-y,1/2-z
_cell_length_a                   7.9341(4)
_cell_length_b                   11.5500(5)
_cell_length_c                   18.1157(8)
_cell_angle_alpha                90
_cell_angle_beta                 90
_cell_angle_gamma                90
_cell_volume                     1660.1
loop_
_atom_site_label
_atom_site_type_symbol
_atom_site_fract_x
_atom_site_fract_y
_atom_site_fract_z
_atom_site_U_iso_or_equiv
_atom_site_thermal_displace_type
Ag1 Ag 0.0000 -0.0000 0.40102(2) 0.0424 Uani
C1 C 0.3050(5) -0.0725(3) 0.26843(19) 0.0252 Uani
C2 C 0.3874(5) -0.1789(3) 0.2640(2) 0.0288 Uani
H1 H 0.4248 -0.2162 0.3078 0.0350 Uiso
C3 C 0.4148(5) -0.2304(3) 0.19625(19) 0.0261 Uani
H2 H 0.4730 -0.3022 0.1937 0.0310 Uiso
C4 C 0.3584(4) -0.1786(3) 0.13208(19) 0.0228 Uani
C5 C 0.2749(5) -0.0724(3) 0.1366(2) 0.0311 Uani
H3 H 0.2356 -0.0359 0.0929 0.0380 Uiso
C6 C 0.2491(5) -0.0200(3) 0.2041(2) 0.0320 Uani
H4 H 0.1926 0.0524 0.2065 0.0380 Uiso
C7 C 0.3848(4) -0.2293(3) 0.05919(19) 0.0213 Uani
O1 O 0.3500(4) -0.1610(3) 0.0000 0.0229 Uani
N1 N 0.2735(5) -0.0177(3) 0.33691(19) 0.0320 Uani
H5 H 0.290(6) 0.050(4) 0.333(2) 0.0350 Uiso
H6 H 0.317(6) -0.045(4) 0.368(3) 0.0340 Uiso
N2 N 0.4382(4) -0.3304(3) 0.03904(15) 0.0202 Uani
C7A C 0.3848(4) -0.2293(3) -0.05919(19) 0.0213 Uani
C4A C 0.3584(4) -0.1786(3) -0.13208(19) 0.0228 Uani
C3A C 0.4148(5) -0.2304(3) -0.19625(19) 0.0261 Uani
C2A C 0.3874(5) -0.1789(3) -0.2640(2) 0.0288 Uani
C1A C 0.3050(5) -0.0725(3) -0.26843(19) 0.0252 Uani
C6A C 0.2491(5) -0.0200(3) -0.2041(2) 0.0320 Uani
C5A C 0.2749(5) -0.0724(3) -0.1366(2) 0.0311 Uani
H3A H 0.2356 -0.0359 -0.0929 0.0380 Uiso
H4A H 0.1926 0.0524 -0.2065 0.0380 Uiso
N1A N 0.2735(5) -0.0177(3) -0.33691(19) 0.0320 Uani
H5A H 0.290(6) 0.050(4) -0.333(2) 0.0350 Uiso
H6A H 0.317(6) -0.045(4) -0.368(3) 0.0340 Uiso
H1A H 0.4248 -0.2162 -0.3078 0.0350 Uiso
H2A H 0.4730 -0.3022 -0.1937 0.0310 Uiso
N2A N 0.4382(4) -0.3304(3) -0.03904(15) 0.0202 Uani
N1E N -0.2735(5) 0.0177(3) 0.33691(19) 0.0320 Uani
N2F N 0.0618(4) 0.1696(3) 0.46096(15) 0.0202 Uani
N2G N -0.0618(4) -0.1696(3) 0.46096(15) 0.0202 Uani
Ag1F Ag 0.5000 -0.5000 0.09898(2) 0.0424 Uani
Ag1A Ag -0.0000 0.0000 -0.40102(2) 0.0424 Uani
Ag1B Ag 0.5000 -0.5000 -0.09898(2) 0.0424 Uani
H5E H -0.290(6) -0.050(4) 0.333(2) 0.0350 Uiso
H6E H -0.317(6) 0.045(4) 0.368(3) 0.0340 Uiso
S1 S 0.04587(16) 0.33443(11) 0.0000 0.0232 Uani
O2 O -0.0498(4) 0.3317(3) 0.06719(15) 0.0346 Uani
O3 O 0.1856(5) 0.4149(3) 0.0000 0.0293 Uani
C8 C 0.1480(8) 0.1942(5) 0.0000 0.0403 Uani
F1 F 0.2458(4) 0.1812(2) 0.0594(2) 0.0672 Uani
F2 F 0.0373(5) 0.1087(3) 0.0000 0.0581 Uani
O2A O -0.0498(4) 0.3317(3) -0.06719(15) 0.0346 Uani
F1A F 0.2458(4) 0.1812(2) -0.0594(2) 0.0672 Uani
loop_
_atom_site_aniso_label
_atom_site_aniso_U_11
_atom_site_aniso_U_22
_atom_site_aniso_U_33
_atom_site_aniso_U_23
_atom_site_aniso_U_13
_atom_site_aniso_U_12
Ag1 0.0762(4) 0.0233(3) 0.0277(3) 0.000 0.000 -0.0155(2)
C1 0.0303 0.0247 0.0206 -0.003 0.0013 -0.004
C2 0.04 0.0253 0.0212 0.0032 -0.0038 0.0004
C3 0.036 0.018 0.0242 -0.0004 -0.0026 0.0012
C4 0.0267 0.0207 0.0211 -0.002 0.0009 -0.0005
C5 0.045 0.026 0.0224 0.0022 -0.006 0.0098
C6 0.045 0.024 0.0271 -0.0018 0.0013 0.01
C7 0.0237 0.0183 0.0218 0.0014 -0.0012 -0.0014
O1 0.0322 0.0185 0.0181 0 0 0.0035
N1 0.05 0.025 0.0211 -0.0025 -0.0027 0.0021
N2 0.0233 0.0191 0.0182 0.0007 0.0009 0.0009
C7A 0.0237 0.0183 0.0218 -0.0014 0.0012 -0.0014
C4A 0.0267 0.0207 0.0211 0.002 -0.0009 -0.0005
C3A 0.036 0.018 0.0242 0.0004 0.0026 0.0012
C2A 0.04 0.0253 0.0212 -0.0032 0.0038 0.0004
C1A 0.0303 0.0247 0.0206 0.003 -0.0013 -0.004
C6A 0.045 0.024 0.0271 0.0018 -0.0013 0.01
C5A 0.045 0.026 0.0224 -0.0022 0.006 0.0098
N1A 0.05 0.025 0.0211 0.0025 0.0027 0.0021
N2A 0.0233 0.0191 0.0182 -0.0007 -0.0009 0.0009
N1E 0.05 0.025 0.0211 0.0025 0.0027 0.0021
N2F 0.0233(14) 0.0191(15) 0.0182(14) -0.0007(12) 0.0009(11) -0.0009(12)
N2G 0.0233 0.0191 0.0182 0.0007 -0.0009 -0.0009
Ag1F 0.0762 0.0233 0.0277 0 0 0.0155
Ag1A 0.0762 0.0233 0.0277 0 0 -0.0155
Ag1B 0.0762 0.0233 0.0277 0 0 0.0155
S1 0.0252(6) 0.0203(6) 0.0241(6) 0.000 0.000 0.0008(5)
O2 0.0363(15) 0.0416(17) 0.0258(14) 0.0024(13) 0.0021(11) 0.0013(13)
O3 0.032(2) 0.0220(18) 0.034(2) 0.000 0.000 -0.0014(16)
C8 0.030(3) 0.022(3) 0.069(4) 0.000 0.000 -0.002(2)
F1 0.0458(16) 0.0369(15) 0.119(3) 0.0316(17) -0.0283(18) -0.0011(13)
F2 0.037(2) 0.0204(18) 0.117(4) 0.000 0.000 -0.0080(15)
O2A 0.0363 0.0416 0.0258 -0.0024 -0.0021 0.0013
F1A 0.0458 0.0369 0.119 -0.0316 0.0283 -0.0011
loop_
_geom_bond_atom_site_label_1
_geom_bond_atom_site_label_2
_geom_bond_site_symmetry_1
_geom_bond_site_symmetry_2
Ag1 N1 1_555 1_555
C1 C2 1_555 1_555
C2 H1 1_555 1_555
C3 C2 1_555 1_555
H2 C3 1_555 1_555
C4 C3 1_555 1_555
C5 C4 1_555 1_555
H3 C5 1_555 1_555
C6 C1 1_555 1_555
H4 C6 1_555 1_555
C7 C4 1_555 1_555
O1 C7 1_555 1_555
N1 C1 1_555 1_555
H5 N1 1_555 1_555
H6 N1 1_555 1_555
N2 C7 1_555 1_555
S1 O2 1_555 1_555
O3 S1 1_555 1_555
C8 S1 1_555 1_555
F1 C8 1_555 1_555
F2 C8 1_555 1_555
C7A O1 1_555 1_555
C4A C7A 1_555 1_555
C3A C4A 1_555 1_555
C2A C3A 1_555 1_555
C1A C2A 1_555 1_555
C6A C1A 1_555 1_555
C5A C4A 1_555 1_555
H3A C5A 1_555 1_555
H4A C6A 1_555 1_555
N1A C1A 1_555 1_555
H5A N1A 1_555 1_555
H6A N1A 1_555 1_555
H1A C2A 1_555 1_555
H2A C3A 1_555 1_555
N2A N2 1_555 1_555
O2A S1 1_555 1_555
F1A C8 1_555 1_555
N1E Ag1 1_555 1_555
N2F Ag1 1_555 1_555
N2G Ag1 1_555 1_555
Ag1F N2 1_555 1_555
Ag1A N1A 1_555 1_555
Ag1B N2A 1_555 1_555
H5E N1E 1_555 1_555
H6E N1E 1_555 1_555
C5 C6 1_555 1_555
C7A N2A 1_555 1_555
C6A C5A 1_555 1_555

#END
