
#######################################################################
#
#                 Cambridge Crystallographic Data Centre
#                                CCDC 
#
#######################################################################
#
# If this CIF has been generated from an entry in the Cambridge 
# Structural Database, then it will include bibliographic, chemical, 
# crystal, experimental, refinement or atomic coordinate data resulting 
# from the CCDC's data processing and validation procedures.
#
#######################################################################

data_LOFZUB
_chemical_formula_moiety         '(C12 H32 Al3 N4 O14 P3)n'
_symmetry_cell_setting           tetragonal
_symmetry_space_group_name_H-M   'P 4/n'
_symmetry_Int_Tables_number      85
_space_group_name_Hall           '-P 4a'
loop_
_symmetry_equiv_pos_site_id
_symmetry_equiv_pos_as_xyz
1 x,y,z
2 1/2-y,x,z
3 y,1/2-x,z
4 1/2+x,1/2+y,-z
5 -x,-y,-z
6 1/2+y,-x,-z
7 -y,1/2+x,-z
8 1/2-x,1/2-y,z
_cell_length_a                   18.7732(8)
_cell_length_b                   18.7732(8)
_cell_length_c                   9.4537(5)
_cell_angle_alpha                90
_cell_angle_beta                 90
_cell_angle_gamma                90
_cell_volume                     3331.8
loop_
_atom_site_label
_atom_site_type_symbol
_atom_site_fract_x
_atom_site_fract_y
_atom_site_fract_z
_atom_site_U_iso_or_equiv
_atom_site_thermal_displace_type
P1 P 0.06413(8) -0.44232(8) 0.3363(2) 0.0268 Uani
O1 O 0.0574(3) -0.3757(2) 0.2463(5) 0.0480 Uani
O2 O 0.0754(3) -0.4193(3) 0.4878(4) 0.0470 Uani
O3 O 0.1273(2) -0.4872(2) 0.2903(5) 0.0463 Uani
O4 O -0.0050(2) -0.4838(2) 0.3239(5) 0.0477 Uani
Al1 Al 0.06412(9) -0.33432(9) 0.0809(2) 0.0258 Uani
P2 P 0.05021(8) -0.66685(8) 0.1622(2) 0.0268 Uani
O5 O 0.0151(2) -0.6567(2) 0.0189(5) 0.0450 Uani
O6 O 0.0026(2) -0.6359(2) 0.2775(5) 0.0460 Uani
O7 O 0.1221(2) -0.6292(2) 0.1598(5) 0.0497 Uani
O8 O 0.0624(3) -0.7442(2) 0.1932(6) 0.0527 Uani
Al2 Al 0.16401(9) -0.54423(9) 0.1578(2) 0.0270 Uani
P3 P -0.16580(9) -0.56624(8) 0.0942(2) 0.0272 Uani
O9 O -0.1551(3) -0.4979(3) 0.0127(5) 0.0493 Uani
O10 O -0.1370(2) -0.6297(2) 0.0146(5) 0.0460 Uani
O11 O -0.1297(3) -0.5599(2) 0.2363(4) 0.0527 Uani
O12 O -0.2444(3) -0.5795(2) 0.1207(5) 0.0503 Uani
Al3 Al -0.05070(9) -0.56519(9) 0.3358(2) 0.0252 Uani
O8B O 0.2558(2) -0.5624(3) 0.1932(6) 0.0527 Uani
Al2A Al 0.04423(9) -0.83599(9) 0.1578(2) 0.0270 Uani
O5D O -0.0151(2) -0.3433(2) -0.0189(5) 0.0450 Uani
Al2D Al -0.16401(9) -0.45577(9) -0.1578(2) 0.0270 Uani
O9D O 0.1551(3) -0.5021(3) -0.0127(5) 0.0493 Uani
O10D O 0.1370(2) -0.3703(2) -0.0146(5) 0.0460 Uani
O12A O 0.0795(2) -0.2444(3) 0.1207(5) 0.0503 Uani
Al1D Al -0.06412(9) -0.66568(9) -0.0809(2) 0.0258 Uani
Al1B Al -0.33432(9) -0.56412(9) 0.0809(2) 0.0258 Uani
Al3D Al 0.05070(9) -0.43481(9) 0.6642(2) 0.0252 Uani
O2D O -0.0754(3) -0.5807(3) 0.5122(4) 0.0470 Uani
N1 N -0.1485(5) -0.2133(5) 0.3433(10) 0.1030 Uiso
C1 C -0.1274(10) -0.2631(11) 0.2487(21) 0.1770 Uiso
C2 C -0.1575(9) -0.1513(8) 0.2573(18) 0.1430 Uiso
C3 C -0.0891(12) -0.1981(12) 0.4511(23) 0.2040 Uiso
C2B C -0.1513(8) -0.3425(9) 0.2573(18) 0.1430 Uiso
N1B N -0.2133(5) -0.3515(5) 0.3433(10) 0.1030 Uiso
C1B C -0.2631(11) -0.3726(10) 0.2487(21) 0.1770 Uiso
C2G C -0.3425(9) -0.3487(8) 0.2573(18) 0.1430 Uiso
N1G N -0.3515(5) -0.2867(5) 0.3433(10) 0.1030 Uiso
C1G C -0.3726(10) -0.2369(11) 0.2487(21) 0.1770 Uiso
C2A C -0.3487(8) -0.1575(9) 0.2573(18) 0.1430 Uiso
N1A N -0.2867(5) -0.1485(5) 0.3433(10) 0.1030 Uiso
C1A C -0.2369(11) -0.1274(10) 0.2487(21) 0.1770 Uiso
C3A C -0.3019(12) -0.0891(12) 0.4511(23) 0.2040 Uiso
C3G C -0.4109(12) -0.3019(12) 0.4511(23) 0.2040 Uiso
C3B C -0.1981(12) -0.4109(12) 0.4511(23) 0.2040 Uiso
O13 O -0.2500 -0.2500 -0.0803(25) 0.1640 Uiso
O14 O -0.2500 -0.2500 -0.3900(61) 0.2110 Uiso
loop_
_atom_site_aniso_label
_atom_site_aniso_U_11
_atom_site_aniso_U_22
_atom_site_aniso_U_33
_atom_site_aniso_U_23
_atom_site_aniso_U_13
_atom_site_aniso_U_12
P1 0.0387 0.0228 0.0188 0.0005 0.0042 -0.003
O1 0.072 0.033 0.039 0.01 0.012 0.002
O2 0.06 0.055 0.026 -0.009 0.003 -0.014
O3 0.049 0.043 0.047 -0.002 0.006 0.007
O4 0.048 0.046 0.049 0.004 -0.001 -0.016
Al1 0.033 0.021 0.0235 0.0004 0.0015 0.0034
P2 0.0229 0.0222 0.0352 -0.0058 -0.0014 0.0009
O5 0.044 0.05 0.041 0.001 -0.01 0.001
O6 0.051 0.044 0.043 -0.005 0.005 0.014
O7 0.025 0.047 0.077 -0.013 -0.005 -0.009
O8 0.06 0.03 0.068 -0.005 -0.014 0.014
Al2 0.0211 0.0283 0.0317 -0.0009 0.0024 -0.0017
P3 0.0195 0.0406 0.0216 0.0013 0.0008 0.0055
O9 0.053 0.057 0.038 0.008 -0.006 -0.006
O10 0.044 0.048 0.046 -0.009 0.011 0.006
O11 0.046 0.086 0.026 -0.002 -0.01 0.013
O12 0.029 0.071 0.051 0.012 0.008 0.006
Al3 0.0259 0.0321 0.0177 -0.0032 -0.0022 0.0016
O8B 0.03 0.06 0.068 0.014 -0.005 -0.014
Al2A 0.0283 0.0211 0.0317 0.0024 0.0009 0.0017
O5D 0.044 0.05 0.041 0.001 -0.01 0.001
Al2D 0.0211 0.0283 0.0317 -0.0009 0.0024 -0.0017
O9D 0.053 0.057 0.038 0.008 -0.006 -0.006
O10D 0.044 0.048 0.046 -0.009 0.011 0.006
O12A 0.071 0.029 0.051 0.008 -0.012 -0.006
Al1D 0.033 0.021 0.0235 0.0004 0.0015 0.0034
Al1B 0.021 0.033 0.0235 -0.0015 0.0004 -0.0034
Al3D 0.0259 0.0321 0.0177 -0.0032 -0.0022 0.0016
O2D 0.06 0.055 0.026 -0.009 0.003 -0.014
loop_
_geom_bond_atom_site_label_1
_geom_bond_atom_site_label_2
_geom_bond_site_symmetry_1
_geom_bond_site_symmetry_2
P1 O1 1_555 1_555
O1 Al1 1_555 1_555
O2 P1 1_555 1_555
O3 P1 1_555 1_555
O4 P1 1_555 1_555
Al1 O5D 1_555 1_555
P2 O5 1_555 1_555
O5 Al1D 1_555 1_555
O6 P2 1_555 1_555
O7 P2 1_555 1_555
O8 P2 1_555 1_555
Al2 O3 1_555 1_555
P3 O9 1_555 1_555
O9 Al2D 1_555 1_555
O10 P3 1_555 1_555
O11 P3 1_555 1_555
O12 P3 1_555 1_555
Al3 O4 1_555 1_555
N1 C1 1_555 1_555
C1 C2B 1_555 1_555
C2 N1 1_555 1_555
C3 N1 1_555 1_555
O8B Al2 1_555 1_555
Al2A O8 1_555 1_555
C2B N1B 1_555 1_555
N1B C1B 1_555 1_555
C1B C2G 1_555 1_555
C2G N1G 1_555 1_555
N1G C1G 1_555 1_555
C1G C2A 1_555 1_555
C2A N1A 1_555 1_555
N1A C1A 1_555 1_555
C1A C2 1_555 1_555
C3A N1A 1_555 1_555
C3G N1G 1_555 1_555
C3B N1B 1_555 1_555
O9D Al2 1_555 1_555
O10D Al1 1_555 1_555
O12A Al1 1_555 1_555
Al1D O10 1_555 1_555
Al1B O12 1_555 1_555
Al3D O2 1_555 1_555
O2D Al3 1_555 1_555
O6 Al3 1_555 1_555
O7 Al2 1_555 1_555
O11 Al3 1_555 1_555

#END
