
#######################################################################
#
#                 Cambridge Crystallographic Data Centre
#                                CCDC 
#
#######################################################################
#
# If this CIF has been generated from an entry in the Cambridge 
# Structural Database, then it will include bibliographic, chemical, 
# crystal, experimental, refinement or atomic coordinate data resulting 
# from the CCDC's data processing and validation procedures.
#
#######################################################################

data_KULMAG
_chemical_formula_moiety         'C60 H52 N2 O22 S4 Zn10'
_symmetry_cell_setting           monoclinic
_symmetry_space_group_name_H-M   'C 2/m'
_symmetry_Int_Tables_number      12
_space_group_name_Hall           '-C 2y'
loop_
_symmetry_equiv_pos_site_id
_symmetry_equiv_pos_as_xyz
1 x,y,z
2 -x,y,-z
3 1/2+x,1/2+y,z
4 1/2-x,1/2+y,-z
5 -x,-y,-z
6 x,-y,z
7 1/2-x,1/2-y,-z
8 1/2+x,1/2-y,z
_cell_length_a                   25.0111(9)
_cell_length_b                   22.9843(9)
_cell_length_c                   17.1959(3)
_cell_angle_alpha                90
_cell_angle_beta                 96.404(4)
_cell_angle_gamma                90
_cell_volume                     9823.6
loop_
_atom_site_label
_atom_site_type_symbol
_atom_site_fract_x
_atom_site_fract_y
_atom_site_fract_z
Zn1 Zn 0.07965(2) 0.0000 1.17837(3)
Zn2 Zn 0.142420(19) -0.06731(2) 1.31883(2)
Zn3 Zn 0.20952(3) 0.0000 1.19914(4)
S1 S -0.1479(2) -0.2552(3) 1.4852(3)
S2 S 0.2443(5) 0.1166(5) 0.8119(7)
O1 O 0.14198(14) 0.0000 1.25265(18)
O2 O 0.1769(2) -0.0000 1.0870(3)
O3 O 0.08892(17) 0.0000 1.0686(2)
O4 O 0.03299(14) -0.06713(14) 1.1922(2)
O5 O 0.07180(17) -0.10570(18) 1.3029(2)
O6 O -0.30376(19) -0.3737(2) 1.3134(3)
O7 O -0.2813(4) -0.4129(3) 1.2025(3)
O8 O 0.2512(3) -0.0177(7) 1.3164(5)
O9 O 0.2827(4) 0.0000 1.1519(6)
O10 O 0.14490(16) -0.04899(16) 0.42913(17)
N1 N 0.3204(6) -0.0605(8) 1.3940(8)
C1 C 0.0342(2) -0.1013(2) 1.2483(3)
C2 C -0.0127(3) -0.1416(3) 1.2501(4)
C3 C -0.0537(3) -0.1411(3) 1.1899(4)
H1 H -0.0526 -0.1149 1.1474
C4 C -0.0968(4) -0.1789(4) 1.1912(5)
H2 H -0.1238 -0.1815 1.1479
C5 C -0.0995(4) -0.2139(4) 1.2592(5)
C6 C -0.0616(4) -0.2105(4) 1.3204(5)
H3 H -0.0646 -0.2332 1.3659
C7 C -0.0174(3) -0.1734(3) 1.3174(5)
H4 H 0.0091 -0.1702 1.3612
C8 C -0.1462(4) -0.2551(4) 1.2598(6)
C9 C -0.1561(5) -0.2924(5) 1.1964(6)
H5 H -0.1341 -0.2927 1.1547
C10 C -0.2016(5) -0.3308(5) 1.1974(5)
H6 H -0.2112 -0.3555 1.1537
C11 C -0.2309(4) -0.3326(4) 1.2582(5)
C12 C -0.2226(4) -0.2912(4) 1.3132(5)
H7 H -0.2467 -0.2884 1.3519
C13 C -0.1813(4) -0.2534(4) 1.3153(6)
C14 C -0.1729(7) -0.2110(7) 1.3905(10)
H8 H -0.1462 -0.1805 1.3818
H9 H -0.2073 -0.1915 1.3976
C15 C -0.1426(7) -0.1969(7) 1.5581(11)
H10 H -0.1304 -0.2132 1.6098
H11 H -0.1166 -0.1678 1.5443
H12 H -0.1778 -0.1786 1.5593
C16 C -0.2742(4) -0.3768(4) 1.2592(4)
C17 C 0.1459(2) -0.0000 0.4624(3)
C18 C 0.1467(3) -0.0000 0.5500(3)
C19 C 0.1306(4) -0.0497(4) 0.5896(6)
H13 H 0.1200 -0.0837 0.5603
C20 C 0.1297(4) -0.0503(4) 0.6669(6)
H14 H 0.1187 -0.0843 0.6923
C21 C 0.1453(3) 0.0000 0.7109(4)
C22 C 0.1435(3) 0.0000 0.7983(4)
C23 C 0.0946(3) -0.0115(3) 0.8284(4)
C24 C 0.0907(3) 0.0109(3) 0.9046(4)
C25 C 0.1359(3) -0.0000 0.9585(3)
C26 C 0.1860(3) 0.0158(3) 0.9297(5)
C27 C 0.1895(4) 0.0160(3) 0.8499(5)
C28 C 0.2427(7) 0.0314(6) 0.8236(10)
H18 H 0.2469 0.0123 0.7731
H19 H 0.2723 0.0184 0.8627
C29 C 0.1342(3) 0.0000 1.0450(3)
C30 C 0.2637(13) 0.1220(10) 0.7160(15)
H20 H 0.2650 0.1631 0.7010
H21 H 0.2376 0.1015 0.6792
H22 H 0.2994 0.1046 0.7149
C31 C 0.2977(4) -0.0395(8) 1.3196(5)
H23 H 0.3166 -0.0418 1.2748
C32 C 0.2906(10) -0.0565(13) 1.4635(7)
H24 H 0.3122 -0.0738 1.5087
H25 H 0.2836 -0.0155 1.4745
H26 H 0.2564 -0.0774 1.4534
C33 C 0.3719(10) -0.0872(17) 1.3873(14)
H27 H 0.3864 -0.1031 1.4381
H28 H 0.3675 -0.1186 1.3486
H29 H 0.3967 -0.0579 1.3705
Zn2E Zn 0.142420(19) 0.06731(2) 1.31883(2)
Zn2G Zn -0.357580(19) -0.43269(2) 1.31883(2)
Zn2_2 Zn 0.142420(19) -0.06731(2) 0.31883(2)
Zn2E_2 Zn 0.142420(19) 0.06731(2) 0.31883(2)
Zn2B Zn -0.357580(19) 0.43269(2) 1.31883(2)
Zn3B Zn -0.29048(3) -0.5000 1.19914(4)
Zn3B_2 Zn -0.29048(3) 0.5000 1.19914(4)
S1E S -0.1479(2) 0.2552(3) 1.4852(3)
S2E S 0.2443(5) -0.1166(5) 0.8119(7)
O4E O 0.03299(14) 0.06713(14) 1.1922(2)
O5E O 0.07180(17) 0.10570(18) 1.3029(2)
O6E O -0.30376(19) 0.3737(2) 1.3134(3)
O6G O 0.19624(19) -0.1263(2) 1.3134(3)
O6B O 0.19624(19) 0.1263(2) 1.3134(3)
O7E O -0.2813(4) 0.4129(3) 1.2025(3)
O7B O 0.2187(4) 0.0871(3) 1.2025(3)
O7G O 0.2187(4) -0.0871(3) 1.2025(3)
O8E O 0.2512(3) 0.0177(7) 1.3164(5)
O10E O 0.14490(16) 0.04899(16) 0.42913(17)
O10_2 O 0.14490(16) -0.04899(16) 1.42913(17)
O10E_2 O 0.14490(16) 0.04899(16) 1.42913(17)
N1E N 0.3204(6) 0.0605(8) 1.3940(8)
C1E C 0.0342(2) 0.1013(2) 1.2483(3)
C2E C -0.0127(3) 0.1416(3) 1.2501(4)
C3E C -0.0537(3) 0.1411(3) 1.1899(4)
H1E H -0.0526 0.1149 1.1474
C4E C -0.0968(4) 0.1789(4) 1.1912(5)
H2E H -0.1238 0.1815 1.1479
C5E C -0.0995(4) 0.2139(4) 1.2592(5)
C6E C -0.0616(4) 0.2105(4) 1.3204(5)
H3E H -0.0646 0.2332 1.3659
C7E C -0.0174(3) 0.1734(3) 1.3174(5)
H4E H 0.0091 0.1702 1.3612
C8E C -0.1462(4) 0.2551(4) 1.2598(6)
C9E C -0.1561(5) 0.2924(5) 1.1964(6)
H5E H -0.1341 0.2927 1.1547
C10E C -0.2016(5) 0.3308(5) 1.1974(5)
H6E H -0.2112 0.3555 1.1537
C11E C -0.2309(4) 0.3326(4) 1.2582(5)
C12E C -0.2226(4) 0.2912(4) 1.3132(5)
H7E H -0.2467 0.2884 1.3519
C13E C -0.1813(4) 0.2534(4) 1.3153(6)
C14E C -0.1729(7) 0.2110(7) 1.3905(10)
H8E H -0.1462 0.1805 1.3818
H9E H -0.2073 0.1915 1.3976
C15E C -0.1426(7) 0.1969(7) 1.5581(11)
H10E H -0.1304 0.2132 1.6098
H11E H -0.1166 0.1678 1.5443
H12E H -0.1778 0.1786 1.5593
C16E C -0.2742(4) 0.3768(4) 1.2592(4)
C19E C 0.1306(4) 0.0497(4) 0.5896(6)
H13E H 0.1200 0.0837 0.5603
C20E C 0.1297(4) 0.0503(4) 0.6669(6)
H14E H 0.1187 0.0843 0.6923
C23E C 0.0946(3) 0.0115(3) 0.8284(4)
C24E C 0.0907(3) -0.0109(3) 0.9046(4)
C26E C 0.1860(3) -0.0158(3) 0.9297(5)
C27E C 0.1895(4) -0.0160(3) 0.8499(5)
C28E C 0.2427(7) -0.0314(6) 0.8236(10)
H18E H 0.2469 -0.0123 0.7731
H19E H 0.2723 -0.0184 0.8627
C30E C 0.2637(13) -0.1220(10) 0.7160(15)
H20E H 0.2650 -0.1631 0.7010
H21E H 0.2376 -0.1015 0.6792
H22E H 0.2994 -0.1046 0.7149
C31E C 0.2977(4) 0.0395(8) 1.3196(5)
H23E H 0.3166 0.0418 1.2748
C32E C 0.2906(10) 0.0565(13) 1.4635(7)
H24E H 0.3122 0.0738 1.5087
H25E H 0.2836 0.0155 1.4745
H26E H 0.2564 0.0774 1.4534
C33E C 0.3719(10) 0.0872(17) 1.3873(14)
H27E H 0.3864 0.1031 1.4381
H28E H 0.3675 0.1186 1.3486
H29E H 0.3967 0.0579 1.3705
loop_
_geom_bond_atom_site_label_1
_geom_bond_atom_site_label_2
_geom_bond_site_symmetry_1
_geom_bond_site_symmetry_2
Zn1 O1 1_555 1_555
Zn2 O1 1_555 1_555
Zn3 O1 1_555 1_555
S1 C14 1_555 1_555
S2 C28 1_555 1_555
O1 Zn2E 1_555 1_555
O2 Zn3 1_555 1_555
O3 Zn1 1_555 1_555
O4 Zn1 1_555 1_555
O5 Zn2 1_555 1_555
O6 C16 1_555 1_555
O7 C16 1_555 1_555
O8 Zn3 1_555 1_555
O9 Zn3 1_555 1_555
O10 C17 1_555 1_555
N1 C31 1_555 1_555
C1 O4 1_555 1_555
C2 C1 1_555 1_555
C3 C2 1_555 1_555
H1 C3 1_555 1_555
C4 C3 1_555 1_555
H2 C4 1_555 1_555
C5 C4 1_555 1_555
C6 C5 1_555 1_555
H3 C6 1_555 1_555
C7 C2 1_555 1_555
H4 C7 1_555 1_555
C8 C5 1_555 1_555
C9 C8 1_555 1_555
H5 C9 1_555 1_555
C10 C9 1_555 1_555
H6 C10 1_555 1_555
C11 C10 1_555 1_555
C12 C11 1_555 1_555
H7 C12 1_555 1_555
C13 C8 1_555 1_555
C14 C13 1_555 1_555
H8 C14 1_555 1_555
H9 C14 1_555 1_555
C15 S1 1_555 1_555
H10 C15 1_555 1_555
H11 C15 1_555 1_555
H12 C15 1_555 1_555
C16 C11 1_555 1_555
C17 C18 1_555 1_555
C18 C19 1_555 1_555
C19 H13 1_555 1_555
C20 C19 1_555 1_555
H14 C20 1_555 1_555
C21 C20 1_555 1_555
C22 C21 1_555 1_555
C23 C22 1_555 1_555
C24 C23 1_555 1_555
C25 C24 1_555 1_555
C26 C25 1_555 1_555
C27 C22 1_555 1_555
C28 C27 1_555 1_555
H18 C28 1_555 1_555
H19 C28 1_555 1_555
C29 O2 1_555 1_555
C30 S2 1_555 1_555
H20 C30 1_555 1_555
H21 C30 1_555 1_555
H22 C30 1_555 1_555
C31 O8 1_555 1_555
H23 C31 1_555 1_555
C32 N1 1_555 1_555
H24 C32 1_555 1_555
H25 C32 1_555 1_555
H26 C32 1_555 1_555
C33 N1 1_555 1_555
H27 C33 1_555 1_555
H28 C33 1_555 1_555
H29 C33 1_555 1_555
Zn2E O5E 1_555 1_555
Zn2G O6 1_555 1_555
Zn2_2 O10 1_555 1_555
Zn2E_2 O10E 1_555 1_555
Zn2B O6E 1_555 1_555
Zn3B O7 1_555 1_555
Zn3B_2 O7E 1_555 1_555
S1E C14E 1_555 1_555
S2E C28E 1_555 1_555
O4E Zn1 1_555 1_555
O5E C1E 1_555 1_555
O6E C16E 1_555 1_555
O6G Zn2 1_555 1_555
O6B Zn2E 1_555 1_555
O7E C16E 1_555 1_555
O7B Zn3 1_555 1_555
O7G Zn3 1_555 1_555
O8E Zn3 1_555 1_555
O10E C17 1_555 1_555
O10_2 Zn2 1_555 1_555
O10E_2 Zn2E 1_555 1_555
N1E C31E 1_555 1_555
C1E O4E 1_555 1_555
C2E C1E 1_555 1_555
C3E C2E 1_555 1_555
H1E C3E 1_555 1_555
C4E C3E 1_555 1_555
H2E C4E 1_555 1_555
C5E C4E 1_555 1_555
C6E C5E 1_555 1_555
H3E C6E 1_555 1_555
C7E C2E 1_555 1_555
H4E C7E 1_555 1_555
C8E C5E 1_555 1_555
C9E C8E 1_555 1_555
H5E C9E 1_555 1_555
C10E C9E 1_555 1_555
H6E C10E 1_555 1_555
C11E C10E 1_555 1_555
C12E C11E 1_555 1_555
H7E C12E 1_555 1_555
C13E C8E 1_555 1_555
C14E C13E 1_555 1_555
H8E C14E 1_555 1_555
H9E C14E 1_555 1_555
C15E S1E 1_555 1_555
H10E C15E 1_555 1_555
H11E C15E 1_555 1_555
H12E C15E 1_555 1_555
C16E C11E 1_555 1_555
C19E C18 1_555 1_555
H13E C19E 1_555 1_555
C20E C21 1_555 1_555
H14E C20E 1_555 1_555
C23E C22 1_555 1_555
C24E C23 1_555 1_555
C26E C25 1_555 1_555
C27E C22 1_555 1_555
C28E C28 1_555 1_555
H18E H18 1_555 1_555
H19E H19 1_555 1_555
C30E S2E 1_555 1_555
H20E C30E 1_555 1_555
H21E C30E 1_555 1_555
H22E C30E 1_555 1_555
C31E O8 1_555 1_555
H23E C31E 1_555 1_555
C32E N1E 1_555 1_555
H24E C32E 1_555 1_555
H25E H25 1_555 1_555
H26E C32E 1_555 1_555
C33E N1E 1_555 1_555
H27E C33E 1_555 1_555
H28E C33E 1_555 1_555
H29E C33E 1_555 1_555
O3 C29 1_555 1_555
O5 C1 1_555 1_555
O8 O8E 1_555 1_555
C6 C7 1_555 1_555
C12 C13 1_555 1_555
C23 C23E 1_555 1_555
C24 C23E 1_555 1_555
C24 C24E 1_555 1_555
C25 C29 1_555 1_555
C25 C24E 1_555 1_555
C26 C27 1_555 1_555
C26 C26E 1_555 1_555
C26 C27E 1_555 1_555
C27 C26E 1_555 1_555
C27 C27E 1_555 1_555
C31 O8E 1_555 1_555
O8E C31E 1_555 1_555
C6E C7E 1_555 1_555
C12E C13E 1_555 1_555
C19E C20E 1_555 1_555
C23E C24E 1_555 1_555
C26E C27E 1_555 1_555
C27E C28E 1_555 1_555
C28E H18E 1_555 1_555
C28E H19E 1_555 1_555
C32E H25E 1_555 1_555

#END
