
#######################################################################
#
#                 Cambridge Crystallographic Data Centre
#                                CCDC 
#
#######################################################################
#
# If this CIF has been generated from an entry in the Cambridge 
# Structural Database, then it will include bibliographic, chemical, 
# crystal, experimental, refinement or atomic coordinate data resulting 
# from the CCDC's data processing and validation procedures.
#
#######################################################################

data_POWBEK
_chemical_formula_moiety         '(C44 H64 Cu5 N20 O92 Si2 W22 Y2)n'
_symmetry_cell_setting           triclinic
_symmetry_space_group_name_H-M   'P -1'
_symmetry_Int_Tables_number      2
_space_group_name_Hall           '-P 1'
loop_
_symmetry_equiv_pos_site_id
_symmetry_equiv_pos_as_xyz
1 x,y,z
2 -x,-y,-z
_cell_length_a                   11.335(5)
_cell_length_b                   12.152(5)
_cell_length_c                   23.319(5)
_cell_angle_alpha                83.543(5)
_cell_angle_beta                 81.741(5)
_cell_angle_gamma                71.112(5)
_cell_volume                     3000.08
loop_
_atom_site_label
_atom_site_type_symbol
_atom_site_fract_x
_atom_site_fract_y
_atom_site_fract_z
W1 W 1.08615(8) 0.01098(7) 0.23558(4)
W2 W 0.98687(8) 0.15729(7) 0.36891(4)
W3 W 0.98008(8) 0.51458(7) 0.25469(4)
W4 W 0.76239(8) 0.42068(7) 0.36972(4)
W5 W 0.68097(8) 0.18445(7) 0.35560(4)
W6 W 0.78609(8) 0.03283(7) 0.21918(4)
W7 W 0.96737(8) 0.12952(7) 0.11126(4)
W8 W 0.73909(7) 0.42428(7) 0.10830(4)
W9 W 0.64621(8) 0.56719(7) 0.23155(4)
W10 W 1.06895(7) 0.38338(7) 0.13301(4)
W11 W 0.55873(7) 0.33143(7) 0.21797(4)
Cu1 Cu 1.1078(2) -0.2560(2) 0.25484(11)
Cu2 Cu 1.6925(2) -0.3702(2) -0.02826(11)
Cu3 Cu 0.5000 -0.0000 0.5000
Y1 Y 1.2555(2) 0.23653(18) 0.25890(10)
Si1 Si 0.8688(5) 0.2868(5) 0.2377(2)
O1 O 1.1939(11) -0.1308(10) 0.2426(6)
O2 O 1.0543(14) 0.0786(11) 0.4268(7)
O3 O 0.9846(13) 0.6547(11) 0.2678(6)
O4 O 0.7131(14) 0.5176(12) 0.4224(7)
O5 O 0.5738(14) 0.1254(12) 0.3975(6)
O6 O 1.6401(14) -0.4292(15) -0.0940(8)
O7 O 0.7084(14) -0.0671(15) 0.2168(7)
O8 O 1.0167(13) 0.0849(13) 0.0432(7)
O9 O 0.7034(13) 0.4753(13) 0.0385(7)
O10 O 0.5511(15) 0.7077(13) 0.2424(9)
O11 O 1.1374(13) 0.4310(13) 0.0657(7)
O12 O 0.4082(12) 0.3241(12) 0.2197(6)
O13 O 0.7445(12) 0.3663(13) 0.2088(6)
O14 O 0.6533(12) 0.3296(13) 0.3917(7)
O15 O 0.8935(13) 0.2978(12) 0.4051(7)
O16 O 0.8226(11) 0.1130(10) 0.3913(6)
O17 O 0.6605(12) 0.5035(11) 0.3115(6)
O18 O 0.7429(13) 0.0712(12) 0.2980(7)
O19 O 1.0162(11) 0.0432(10) 0.3126(6)
O20 O 1.1012(13) 0.2178(11) 0.3311(7)
O21 O 0.8037(13) 0.5775(11) 0.2297(6)
O22 O 1.1337(13) 0.4256(12) 0.2688(6)
O23 O 1.1832(14) 0.0996(13) 0.2315(7)
O24 O 1.2061(12) 0.3146(12) 0.1660(6)
O25 O 1.0318(12) 0.5206(12) 0.1705(6)
O26 O 0.8908(13) 0.4446(12) 0.1111(6)
O27 O 0.6556(13) 0.5634(14) 0.1501(7)
O28 O 0.8220(12) 0.2655(11) 0.0988(6)
O29 O 1.0894(11) 0.0125(11) 0.1516(6)
O30 O 0.9379(13) -0.0583(13) 0.2373(7)
O31 O 0.5166(12) 0.4910(13) 0.2355(6)
O32 O 0.8522(12) 0.0428(13) 0.1380(6)
O33 O 0.6532(13) 0.1798(11) 0.2004(7)
O34 O 1.0507(13) 0.2411(12) 0.1155(6)
O35 O 0.5819(12) 0.2855(11) 0.2966(6)
O36 O 0.8942(12) 0.4738(11) 0.3247(6)
O37 O 0.5884(13) 0.3782(12) 0.1368(6)
O38 O 0.8361(13) 0.2681(12) 0.3079(6)
O39 O 0.9154(11) 0.1588(10) 0.2117(6)
O40 O 0.9773(12) 0.3475(11) 0.2209(6)
O41 O 1.388(3) 0.087(3) 0.3174(13)
O42 O 1.4242(16) 0.1039(15) 0.1971(10)
O43 O 1.3175(17) 0.307(2) 0.3390(8)
O44 O 1.2699(15) -0.4120(14) 0.2583(9)
C1 C 0.9986(18) -0.2276(16) 0.3738(9)
H1 H 0.9272 -0.2310 0.3599
C2 C 0.9919(19) -0.2087(19) 0.4300(9)
C3 C 1.091(2) -0.192(2) 0.4548(12)
H2 H 1.0836 -0.1691 0.4922
C4 C 1.2038(18) -0.2140(17) 0.4164(9)
C5 C 1.2030(19) -0.2347(18) 0.3599(9)
H3 H 1.2774 -0.2447 0.3353
C6 C 0.763(2) -0.114(2) 0.4539(10)
H4 H 0.7521 -0.0729 0.4180
C7 C 0.719(2) -0.1854(17) 0.5345(11)
H5 H 0.6753 -0.2016 0.5696
C8 C 0.848(2) -0.239(2) 0.5181(11)
H6 H 0.9052 -0.3001 0.5371
C9 C 1.431(3) -0.279(3) 0.4283(18)
H7 H 1.4541 -0.3509 0.4127
C10 C 1.507(3) -0.232(2) 0.4493(13)
H8 H 1.5921 -0.2692 0.4525
C11 C 1.322(2) -0.107(2) 0.4555(12)
H9 H 1.2540 -0.0396 0.4623
C12 C 1.0020(19) -0.2476(18) 0.1474(10)
H10 H 0.9297 -0.2455 0.1723
C13 C 0.9983(17) -0.2446(16) 0.0893(9)
C14 C 1.1028(19) -0.2483(17) 0.0501(10)
H11 H 1.1015 -0.2472 0.0103
C15 C 1.2117(17) -0.2537(16) 0.0745(9)
C16 C 1.2114(18) -0.2583(15) 0.1344(9)
H12 H 1.2852 -0.2650 0.1495
C17 C 1.4397(19) -0.3238(17) 0.0386(10)
H13 H 1.4624 -0.3856 0.0664
C18 C 1.318(3) -0.163(3) -0.0078(12)
H14 H 1.2532 -0.0965 -0.0177
C19 C 1.443(2) -0.2024(19) -0.0337(11)
H15 H 1.4722 -0.1679 -0.0681
C20 C 0.8726(19) -0.3123(17) 0.0309(10)
H16 H 0.9390 -0.3707 0.0135
C21 C 0.768(2) -0.1643(19) 0.0854(10)
H17 H 0.7500 -0.1052 0.1104
C22 C 0.685(2) -0.193(3) 0.0577(11)
H18 H 0.5980 -0.1584 0.0610
N1 N 1.1039(16) -0.2417(16) 0.3371(8)
N2 N 0.8677(16) -0.1755(15) 0.4662(7)
N3 N 0.6689(18) -0.110(2) 0.4930(9)
N4 N 1.3118(17) -0.1999(19) 0.4343(9)
N5 N 1.4377(16) -0.1183(17) 0.4659(9)
N6 N 1.1081(15) -0.2534(14) 0.1705(8)
N7 N 1.3183(16) -0.2480(15) 0.0358(8)
N8 N 1.5187(16) -0.2964(15) -0.0038(9)
N9 N 0.8854(14) -0.2429(13) 0.0677(7)
N10 N 0.7567(16) -0.2895(16) 0.0220(8)
W1A W -0.08615(8) -0.01098(7) 0.76442(4)
W2A W 0.01313(8) -0.15729(7) 0.63109(4)
W3A W 0.01992(8) -0.51458(7) 0.74531(4)
W4A W 0.23761(8) -0.42068(7) 0.63028(4)
W5A W 0.31903(8) -0.18445(7) 0.64440(4)
W6A W 0.21391(8) -0.03283(7) 0.78082(4)
W7A W 0.03263(8) -0.12952(7) 0.88874(4)
W8A W 0.26091(7) -0.42428(7) 0.89170(4)
W9A W 0.35379(8) -0.56719(7) 0.76845(4)
W10A W -0.06895(7) -0.38338(7) 0.86699(4)
W11A W 0.44127(7) -0.33143(7) 0.78203(4)
Cu1A Cu -0.1078(2) 0.2560(2) 0.74516(11)
Cu2A Cu -0.6925(2) 0.3702(2) 1.02826(11)
Y1A Y -0.2555(2) -0.23653(18) 0.74110(10)
Si1A Si 0.1312(5) -0.2868(5) 0.7623(2)
O1A O -0.1939(11) 0.1308(10) 0.7574(6)
O2A O -0.0543(14) -0.0786(11) 0.5732(7)
O3A O 0.0154(13) -0.6547(11) 0.7322(6)
O4A O 0.2869(14) -0.5176(12) 0.5776(7)
O5A O 0.4262(14) -0.1254(12) 0.6025(6)
O6A O -0.6401(14) 0.4292(15) 1.0940(8)
O7A O 0.2916(14) 0.0671(15) 0.7832(7)
O8A O -0.0167(13) -0.0849(13) 0.9568(7)
O9A O 0.2966(13) -0.4753(13) 0.9615(7)
O10A O 0.4489(15) -0.7077(13) 0.7576(9)
O11A O -0.1374(13) -0.4310(13) 0.9343(7)
O12A O 0.5918(12) -0.3241(12) 0.7803(6)
O13A O 0.2555(12) -0.3663(13) 0.7912(6)
O14A O 0.3467(12) -0.3296(13) 0.6083(7)
O15A O 0.1065(13) -0.2978(12) 0.5949(7)
O16A O 0.1774(11) -0.1130(10) 0.6087(6)
O17A O 0.3395(12) -0.5035(11) 0.6885(6)
O18A O 0.2571(13) -0.0712(12) 0.7020(7)
O19A O -0.0162(11) -0.0432(10) 0.6874(6)
O20A O -0.1012(13) -0.2178(11) 0.6689(7)
O21A O 0.1963(13) -0.5775(11) 0.7703(6)
O22A O -0.1337(13) -0.4256(12) 0.7312(6)
O23A O -0.1832(14) -0.0996(13) 0.7685(7)
O24A O -0.2061(12) -0.3146(12) 0.8340(6)
O25A O -0.0318(12) -0.5206(12) 0.8295(6)
O26A O 0.1092(13) -0.4446(12) 0.8889(6)
O27A O 0.3444(13) -0.5634(14) 0.8499(7)
O28A O 0.1780(12) -0.2655(11) 0.9012(6)
O29A O -0.0894(11) -0.0125(11) 0.8484(6)
O30A O 0.0621(13) 0.0583(13) 0.7627(7)
O31A O 0.4834(12) -0.4910(13) 0.7645(6)
O32A O 0.1478(12) -0.0428(13) 0.8620(6)
O33A O 0.3468(13) -0.1798(11) 0.7996(7)
O34A O -0.0507(13) -0.2411(12) 0.8845(6)
O35A O 0.4181(12) -0.2855(11) 0.7034(6)
O36A O 0.1058(12) -0.4738(11) 0.6753(6)
O37A O 0.4116(13) -0.3782(12) 0.8632(6)
O38A O 0.1639(13) -0.2681(12) 0.6921(6)
O39A O 0.0846(11) -0.1588(10) 0.7883(6)
O40A O 0.0227(12) -0.3475(11) 0.7791(6)
O41A O -0.388(3) -0.087(3) 0.6826(13)
O42A O -0.4242(16) -0.1039(15) 0.8029(10)
O43A O -0.3175(17) -0.307(2) 0.6610(8)
O44A O -0.2699(15) 0.4120(14) 0.7417(9)
C1A C 0.0014(18) 0.2276(16) 0.6262(9)
H1A H 0.0728 0.2310 0.6401
C2A C 0.0081(19) 0.2087(19) 0.5700(9)
C3A C -0.091(2) 0.192(2) 0.5452(12)
H2A H -0.0836 0.1691 0.5078
C4A C -0.2038(18) 0.2140(17) 0.5836(9)
C5A C -0.2030(19) 0.2347(18) 0.6401(9)
H3A H -0.2774 0.2447 0.6647
C6A C 0.237(2) 0.114(2) 0.5461(10)
H4A H 0.2479 0.0729 0.5820
C7A C 0.281(2) 0.1854(17) 0.4655(11)
H5A H 0.3247 0.2016 0.4304
C8A C 0.152(2) 0.239(2) 0.4819(11)
H6A H 0.0948 0.3001 0.4629
C9A C -0.431(3) 0.279(3) 0.5717(18)
H7A H -0.4541 0.3509 0.5873
C10A C -0.507(3) 0.232(2) 0.5507(13)
H8A H -0.5921 0.2692 0.5475
C11A C -0.322(2) 0.107(2) 0.5445(12)
H9A H -0.2540 0.0396 0.5377
C12A C -0.0020(19) 0.2476(18) 0.8526(10)
H10A H 0.0703 0.2455 0.8277
C13A C 0.0017(17) 0.2446(16) 0.9107(9)
C14A C -0.1028(19) 0.2483(17) 0.9499(10)
H11A H -0.1015 0.2472 0.9897
C15A C -0.2117(17) 0.2537(16) 0.9255(9)
C16A C -0.2114(18) 0.2583(15) 0.8656(9)
H12A H -0.2852 0.2650 0.8505
C17A C -0.4397(19) 0.3238(17) 0.9614(10)
H13A H -0.4624 0.3856 0.9336
C18A C -0.318(3) 0.163(3) 1.0078(12)
H14A H -0.2532 0.0965 1.0177
C19A C -0.443(2) 0.2024(19) 1.0337(11)
H15A H -0.4722 0.1679 1.0681
C20A C 0.1274(19) 0.3123(17) 0.9691(10)
H16A H 0.0610 0.3707 0.9865
C21A C 0.232(2) 0.1643(19) 0.9146(10)
H17A H 0.2500 0.1052 0.8896
C22A C 0.315(2) 0.193(3) 0.9423(11)
H18A H 0.4020 0.1584 0.9390
N1A N -0.1039(16) 0.2417(16) 0.6629(8)
N2A N 0.1323(16) 0.1755(15) 0.5338(7)
N3A N 0.3311(18) 0.110(2) 0.5070(9)
N4A N -0.3118(17) 0.1999(19) 0.5657(9)
N5A N -0.4377(16) 0.1183(17) 0.5341(9)
N6A N -0.1081(15) 0.2534(14) 0.8295(8)
N7A N -0.3183(16) 0.2480(15) 0.9642(8)
N8A N -0.5187(16) 0.2964(15) 1.0038(9)
N9A N 0.1146(14) 0.2429(13) 0.9323(7)
N10A N 0.2433(16) 0.2895(16) 0.9780(8)
Cu1_2 Cu 1.1078(2) 0.7440(2) 0.25484(11)
Cu1A_2 Cu -0.1078(2) -0.7440(2) 0.74516(11)
Cu2_2 Cu -0.3075(2) -0.3702(2) 0.97174(11)
Cu2_3 Cu 0.6925(2) -0.3702(2) -0.02826(11)
Cu2_4 Cu 0.6925(2) 0.6298(2) -0.02826(11)
Cu2A_2 Cu 0.3075(2) -0.6298(2) 1.02826(11)
Cu2A_3 Cu 0.3075(2) 0.3702(2) 1.02826(11)
Cu2A_4 Cu 1.3075(2) 0.3702(2) 0.02826(11)
Cu3_2 Cu -0.5000 -0.0000 0.5000
Cu3_3 Cu 1.5000 -0.0000 0.5000
Y1_2 Y 0.2555(2) 0.23653(18) 0.25890(10)
Y1A_2 Y 0.7445(2) -0.23653(18) 0.74110(10)
O3_2 O 0.9846(13) -0.3453(11) 0.2678(6)
O3A_2 O 0.0154(13) 0.3453(11) 0.7322(6)
O9_2 O 1.7034(13) -0.5247(13) 0.0385(7)
O9A_2 O -0.7034(13) 0.5247(13) 0.9615(7)
O11_2 O -0.8626(13) 0.4310(13) 1.0657(7)
O11A_2 O 1.8626(13) -0.4310(13) -0.0657(7)
O12_2 O 1.4082(12) 0.3241(12) 0.2197(6)
O12A_2 O -0.4082(12) -0.3241(12) 0.7803(6)
N5_2 N 0.4377(16) -0.1183(17) 0.4659(9)
N5A_2 N 0.5623(16) 0.1183(17) 0.5341(9)
N10_2 N 1.7567(16) -0.2895(16) 0.0220(8)
N10A_2 N -0.7567(16) 0.2895(16) 0.9780(8)
O45 O 0.718(5) -0.232(4) 0.338(2)
O46 O 0.404(4) 0.464(4) 0.453(2)
O47 O 0.075(7) 0.506(6) 0.409(3)
O48 O 0.420(3) -0.104(3) 0.1638(16)
loop_
_geom_bond_atom_site_label_1
_geom_bond_atom_site_label_2
_geom_bond_site_symmetry_1
_geom_bond_site_symmetry_2
W1 O1 1_555 1_555
W2 O2 1_555 1_555
W3 O3 1_555 1_555
W4 O4 1_555 1_555
W5 O5 1_555 1_555
W6 O7 1_555 1_555
W7 O8 1_555 1_555
W8 O9 1_555 1_555
W9 O10 1_555 1_555
W10 O11 1_555 1_555
W11 O12 1_555 1_555
Cu1 O1 1_555 1_555
Cu2 O6 1_555 1_555
Cu3 N3 1_555 1_555
Y1 O20 1_555 1_555
Si1 O13 1_555 1_555
O3 Cu1_2 1_555 1_555
O9 Cu2_4 1_555 1_555
O11 Cu2A_4 1_555 1_555
O12 Y1_2 1_555 1_555
O13 W8 1_555 1_555
O14 W4 1_555 1_555
O15 W2 1_555 1_555
O16 W2 1_555 1_555
O17 W4 1_555 1_555
O18 W5 1_555 1_555
O19 W1 1_555 1_555
O20 W2 1_555 1_555
O21 W3 1_555 1_555
O22 W3 1_555 1_555
O23 W1 1_555 1_555
O24 W10 1_555 1_555
O25 W3 1_555 1_555
O26 W8 1_555 1_555
O27 W8 1_555 1_555
O28 W7 1_555 1_555
O29 W1 1_555 1_555
O30 W1 1_555 1_555
O31 W9 1_555 1_555
O32 W6 1_555 1_555
O33 W6 1_555 1_555
O34 W7 1_555 1_555
O35 W5 1_555 1_555
O36 W3 1_555 1_555
O37 W8 1_555 1_555
O38 W2 1_555 1_555
O39 W1 1_555 1_555
O40 W3 1_555 1_555
O41 Y1 1_555 1_555
O42 Y1 1_555 1_555
O43 Y1 1_555 1_555
O44 Cu1 1_555 1_555
C1 H1 1_555 1_555
C2 C1 1_555 1_555
C3 C2 1_555 1_555
H2 C3 1_555 1_555
C4 C3 1_555 1_555
C5 C4 1_555 1_555
H3 C5 1_555 1_555
C6 H4 1_555 1_555
C7 H5 1_555 1_555
C8 C7 1_555 1_555
H6 C8 1_555 1_555
C9 H7 1_555 1_555
C10 C9 1_555 1_555
H8 C10 1_555 1_555
C11 H9 1_555 1_555
C12 H10 1_555 1_555
C13 C12 1_555 1_555
C14 C13 1_555 1_555
H11 C14 1_555 1_555
C15 C14 1_555 1_555
C16 C15 1_555 1_555
H12 C16 1_555 1_555
C17 H13 1_555 1_555
C18 H14 1_555 1_555
C19 C18 1_555 1_555
H15 C19 1_555 1_555
C20 H16 1_555 1_555
C21 H17 1_555 1_555
C22 C21 1_555 1_555
H18 C22 1_555 1_555
N1 Cu1 1_555 1_555
N2 C2 1_555 1_555
N3 C6 1_555 1_555
N4 C4 1_555 1_555
N5 C10 1_555 1_555
N6 Cu1 1_555 1_555
N7 C15 1_555 1_555
N8 Cu2 1_555 1_555
N9 C13 1_555 1_555
N10 C20 1_555 1_555
W1A O1A 1_555 1_555
W2A O2A 1_555 1_555
W3A O3A 1_555 1_555
W4A O4A 1_555 1_555
W5A O5A 1_555 1_555
W6A O7A 1_555 1_555
W7A O8A 1_555 1_555
W8A O9A 1_555 1_555
W9A O10A 1_555 1_555
W10A O11A 1_555 1_555
W11A O12A 1_555 1_555
Cu1A O1A 1_555 1_555
Cu2A O6A 1_555 1_555
Y1A O20A 1_555 1_555
Si1A O13A 1_555 1_555
O3A Cu1A_2 1_555 1_555
O9A Cu2A_2 1_555 1_555
O11A Cu2_2 1_555 1_555
O12A Y1A_2 1_555 1_555
O13A W8A 1_555 1_555
O14A W4A 1_555 1_555
O15A W2A 1_555 1_555
O16A W2A 1_555 1_555
O17A W4A 1_555 1_555
O18A W5A 1_555 1_555
O19A W1A 1_555 1_555
O20A W2A 1_555 1_555
O21A W3A 1_555 1_555
O22A W3A 1_555 1_555
O23A W1A 1_555 1_555
O24A W10A 1_555 1_555
O25A W3A 1_555 1_555
O26A W8A 1_555 1_555
O27A W8A 1_555 1_555
O28A W7A 1_555 1_555
O29A W1A 1_555 1_555
O30A W1A 1_555 1_555
O31A W9A 1_555 1_555
O32A W6A 1_555 1_555
O33A W6A 1_555 1_555
O34A W7A 1_555 1_555
O35A W5A 1_555 1_555
O36A W3A 1_555 1_555
O37A W8A 1_555 1_555
O38A W2A 1_555 1_555
O39A W1A 1_555 1_555
O40A W3A 1_555 1_555
O41A Y1A 1_555 1_555
O42A Y1A 1_555 1_555
O43A Y1A 1_555 1_555
O44A Cu1A 1_555 1_555
C1A H1A 1_555 1_555
C2A C1A 1_555 1_555
C3A C2A 1_555 1_555
H2A C3A 1_555 1_555
C4A C3A 1_555 1_555
C5A C4A 1_555 1_555
H3A C5A 1_555 1_555
C6A H4A 1_555 1_555
C7A H5A 1_555 1_555
C8A C7A 1_555 1_555
H6A C8A 1_555 1_555
C9A H7A 1_555 1_555
C10A C9A 1_555 1_555
H8A C10A 1_555 1_555
C11A H9A 1_555 1_555
C12A H10A 1_555 1_555
C13A C12A 1_555 1_555
C14A C13A 1_555 1_555
H11A C14A 1_555 1_555
C15A C14A 1_555 1_555
C16A C15A 1_555 1_555
H12A C16A 1_555 1_555
C17A H13A 1_555 1_555
C18A H14A 1_555 1_555
C19A C18A 1_555 1_555
H15A C19A 1_555 1_555
C20A H16A 1_555 1_555
C21A H17A 1_555 1_555
C22A C21A 1_555 1_555
H18A C22A 1_555 1_555
N1A Cu1A 1_555 1_555
N2A C2A 1_555 1_555
N3A Cu3 1_555 1_555
N4A C4A 1_555 1_555
N5A C10A 1_555 1_555
N6A Cu1A 1_555 1_555
N7A C15A 1_555 1_555
N8A Cu2A 1_555 1_555
N9A C13A 1_555 1_555
N10A C20A 1_555 1_555
Cu2_3 N10 1_555 1_555
Cu2A_3 N10A 1_555 1_555
Cu3_2 N5A 1_555 1_555
Cu3_3 N5 1_555 1_555
O3_2 Cu1 1_555 1_555
O3A_2 Cu1A 1_555 1_555
O9_2 Cu2 1_555 1_555
O9A_2 Cu2A 1_555 1_555
O11_2 Cu2A 1_555 1_555
O11A_2 Cu2 1_555 1_555
O12_2 Y1 1_555 1_555
O12A_2 Y1A 1_555 1_555
N5_2 Cu3 1_555 1_555
N5A_2 Cu3 1_555 1_555
N10_2 Cu2 1_555 1_555
N10A_2 Cu2A 1_555 1_555
W2 O19 1_555 1_555
W4 O15 1_555 1_555
W4 O36 1_555 1_555
W4 O38 1_555 1_555
W5 O14 1_555 1_555
W5 O16 1_555 1_555
W5 O38 1_555 1_555
W6 O18 1_555 1_555
W6 O30 1_555 1_555
W6 O39 1_555 1_555
W7 O29 1_555 1_555
W7 O32 1_555 1_555
W7 O39 1_555 1_555
W8 O28 1_555 1_555
W9 O13 1_555 1_555
W9 O17 1_555 1_555
W9 O21 1_555 1_555
W9 O27 1_555 1_555
W10 O25 1_555 1_555
W10 O26 1_555 1_555
W10 O34 1_555 1_555
W10 O40 1_555 1_555
W11 O13 1_555 1_555
W11 O31 1_555 1_555
W11 O33 1_555 1_555
W11 O35 1_555 1_555
W11 O37 1_555 1_555
Cu1 O30 1_555 1_555
Y1 O22 1_555 1_555
Y1 O23 1_555 1_555
Y1 O24 1_555 1_555
Si1 O38 1_555 1_555
Si1 O39 1_555 1_555
Si1 O40 1_555 1_555
C1 N1 1_555 1_555
C5 N1 1_555 1_555
C6 N2 1_555 1_555
C7 N3 1_555 1_555
C8 N2 1_555 1_555
C9 N4 1_555 1_555
C11 N4 1_555 1_555
C11 N5 1_555 1_555
C12 N6 1_555 1_555
C16 N6 1_555 1_555
C17 N7 1_555 1_555
C17 N8 1_555 1_555
C18 N7 1_555 1_555
C19 N8 1_555 1_555
C20 N9 1_555 1_555
C21 N9 1_555 1_555
C22 N10 1_555 1_555
W2A O19A 1_555 1_555
W4A O15A 1_555 1_555
W4A O36A 1_555 1_555
W4A O38A 1_555 1_555
W5A O14A 1_555 1_555
W5A O16A 1_555 1_555
W5A O38A 1_555 1_555
W6A O18A 1_555 1_555
W6A O30A 1_555 1_555
W6A O39A 1_555 1_555
W7A O29A 1_555 1_555
W7A O32A 1_555 1_555
W7A O39A 1_555 1_555
W8A O28A 1_555 1_555
W9A O13A 1_555 1_555
W9A O17A 1_555 1_555
W9A O21A 1_555 1_555
W9A O27A 1_555 1_555
W10A O25A 1_555 1_555
W10A O26A 1_555 1_555
W10A O34A 1_555 1_555
W10A O40A 1_555 1_555
W11A O13A 1_555 1_555
W11A O31A 1_555 1_555
W11A O33A 1_555 1_555
W11A O35A 1_555 1_555
W11A O37A 1_555 1_555
Cu1A O30A 1_555 1_555
Y1A O22A 1_555 1_555
Y1A O23A 1_555 1_555
Y1A O24A 1_555 1_555
Si1A O38A 1_555 1_555
Si1A O39A 1_555 1_555
Si1A O40A 1_555 1_555
C1A N1A 1_555 1_555
C5A N1A 1_555 1_555
C6A N2A 1_555 1_555
C6A N3A 1_555 1_555
C7A N3A 1_555 1_555
C8A N2A 1_555 1_555
C9A N4A 1_555 1_555
C11A N4A 1_555 1_555
C11A N5A 1_555 1_555
C12A N6A 1_555 1_555
C16A N6A 1_555 1_555
C17A N7A 1_555 1_555
C17A N8A 1_555 1_555
C18A N7A 1_555 1_555
C19A N8A 1_555 1_555
C20A N9A 1_555 1_555
C21A N9A 1_555 1_555
C22A N10A 1_555 1_555

#END
