
#######################################################################
#
#                 Cambridge Crystallographic Data Centre
#                                CCDC 
#
#######################################################################
#
# If this CIF has been generated from an entry in the Cambridge 
# Structural Database, then it will include bibliographic, chemical, 
# crystal, experimental, refinement or atomic coordinate data resulting 
# from the CCDC's data processing and validation procedures.
#
#######################################################################

data_POWBIO
_chemical_formula_moiety         '(C44 H68 Ce2 Cu5 N20 O94 Si2 W22)n'
_symmetry_cell_setting           triclinic
_symmetry_space_group_name_H-M   'P -1'
_symmetry_Int_Tables_number      2
_space_group_name_Hall           '-P 1'
loop_
_symmetry_equiv_pos_site_id
_symmetry_equiv_pos_as_xyz
1 x,y,z
2 -x,-y,-z
_cell_length_a                   11.322(5)
_cell_length_b                   12.139(5)
_cell_length_c                   23.311(5)
_cell_angle_alpha                83.586(5)
_cell_angle_beta                 81.753(5)
_cell_angle_gamma                71.169(5)
_cell_volume                     2993.64
loop_
_atom_site_label
_atom_site_type_symbol
_atom_site_fract_x
_atom_site_fract_y
_atom_site_fract_z
W1 W 0.91485(7) 0.98821(6) 0.26460(3)
W2 W 1.01340(7) 0.84185(6) 0.13138(3)
W3 W 1.01865(7) 0.48595(6) 0.24556(3)
W4 W 1.23697(7) 0.57908(6) 0.13061(3)
W5 W 1.31911(6) 0.81499(6) 0.14462(3)
W6 W 1.21480(7) 0.96647(6) 0.28099(4)
W7 W 1.03331(7) 0.87031(6) 0.38876(3)
W8 W 1.26055(6) 0.57560(6) 0.39177(3)
W9 W 1.35263(7) 0.43296(6) 0.26886(4)
W10 W 0.93043(6) 0.61678(6) 0.36715(3)
W11 W 1.44112(6) 0.66786(6) 0.28220(3)
Cu1 Cu 0.89232(19) 1.25578(18) 0.24516(9)
Cu2 Cu 1.3081(2) 1.3697(2) 0.52783(10)
Cu3 Cu 0.5000 1.0000 0.0000
Ce1 Ce 0.74382(17) 0.76358(16) 0.24117(9)
Si1 Si 1.1307(4) 0.7133(4) 0.2624(2)
O1 O 0.8070(11) 1.1300(10) 0.2574(6)
O2 O 0.9424(12) 0.9253(11) 0.0742(6)
O3 O 1.0132(11) 0.3487(10) 0.2329(6)
O4 O 1.2848(12) 0.4830(12) 0.0781(6)
O5 O 1.4302(12) 0.8686(11) 0.1034(6)
O6 O 1.2926(12) 1.0654(12) 0.2830(6)
O7 O 0.9850(13) 0.9134(12) 0.4565(6)
O8 O 1.2962(11) 0.5236(12) 0.4616(6)
O9 O 1.4477(12) 0.2940(12) 0.2584(7)
O10 O 0.8647(11) 0.5680(11) 0.4336(5)
O11 O 1.5955(11) 0.6715(10) 0.2803(5)
O12 O 1.2554(11) 0.6319(10) 0.2914(5)
O13 O 1.3466(11) 0.6703(11) 0.1081(6)
O14 O 1.1075(11) 0.7014(10) 0.0940(6)
O15 O 1.1801(11) 0.8821(10) 0.1086(6)
O16 O 1.3368(11) 0.4975(10) 0.1897(5)
O17 O 1.2610(11) 0.9236(11) 0.2028(6)
O18 O 0.9829(11) 0.9565(10) 0.1868(6)
O19 O 0.8963(11) 0.7854(11) 0.1698(6)
O20 O 1.1941(12) 0.4247(12) 0.2705(6)
O21 O 0.8652(12) 0.5741(11) 0.2317(6)
O22 O 0.8197(11) 0.8981(11) 0.2688(6)
O23 O 0.7918(11) 0.6872(10) 0.3330(6)
O24 O 0.9698(11) 0.4786(10) 0.3284(6)
O25 O 1.1095(11) 0.5551(11) 0.3885(6)
O26 O 1.3449(11) 0.4346(10) 0.3513(6)
O27 O 1.1764(10) 0.7358(10) 0.4022(6)
O28 O 0.9127(11) 0.9858(11) 0.3474(6)
O29 O 1.0605(11) 1.0599(10) 0.2636(6)
O30 O 1.4833(11) 0.5088(11) 0.2642(6)
O31 O 1.1498(11) 0.9545(11) 0.3614(6)
O32 O 1.3462(11) 0.8206(10) 0.2988(6)
O33 O 0.9472(10) 0.7598(11) 0.3858(6)
O34 O 1.4174(11) 0.7142(11) 0.2043(5)
O35 O 1.1047(11) 0.5277(11) 0.1765(6)
O36 O 1.4148(11) 0.6175(11) 0.3621(6)
O37 O 1.1631(11) 0.7306(10) 0.1931(5)
O38 O 1.0850(10) 0.8408(10) 0.2887(5)
O39 O 1.0213(11) 0.6503(10) 0.2796(5)
O40 O 0.6811(16) 0.6905(17) 0.1615(7)
O41 O 0.616(2) 0.9101(19) 0.1832(10)
O42 O 0.5768(14) 0.8948(14) 0.3048(9)
O43 O 0.7289(13) 1.4120(12) 0.2419(8)
O44 O 1.3609(12) 1.4297(12) 0.5939(6)
C1 C 0.7954(17) 1.2338(16) 0.1405(9)
H1 H 0.7203 1.2468 0.1648
C2 C 0.7996(16) 1.2086(16) 0.0835(8)
C3 C 0.9095(16) 1.1899(16) 0.0468(8)
H2 H 0.9147 1.1705 0.0088
C4 C 1.0113(17) 1.2011(16) 0.0685(9)
C5 C 1.0035(16) 1.2243(16) 0.1254(8)
H3 H 1.0743 1.2294 0.1395
C6 C 0.6825(18) 1.100(2) 0.0437(10)
H4 H 0.7504 1.0339 0.0364
C7 C 0.497(2) 1.226(2) 0.0506(14)
H5 H 0.4110 1.2615 0.0488
C8 C 0.573(2) 1.276(2) 0.0690(14)
H6 H 0.5497 1.3507 0.0820
C9 C 1.1529(18) 1.237(2) -0.0202(9)
H7 H 1.0955 1.2918 -0.0422
C10 C 1.2775(18) 1.192(2) -0.0345(10)
H8 H 1.3216 1.2135 -0.0683
C11 C 1.2382(17) 1.1079(18) 0.0489(10)
H9 H 1.2470 1.0608 0.0833
C12 C 0.7899(18) 1.2565(17) 0.3670(8)
H10 H 0.7167 1.2606 0.3520
C13 C 0.7885(16) 1.2563(17) 0.4250(8)
C14 C 0.8928(18) 1.2539(16) 0.4484(8)
H11 H 0.8917 1.2581 0.4881
C15 C 1.0000(15) 1.2451(14) 0.4104(8)
C16 C 1.0002(17) 1.2443(15) 0.3522(8)
H12 H 1.0735 1.2392 0.3274
C17 C 1.1276(18) 1.3096(16) 0.4681(8)
H13 H 1.0612 1.3685 0.4852
C18 C 1.2319(19) 1.168(2) 0.4148(11)
H14 H 1.2531 1.1107 0.3882
C19 C 1.311(2) 1.194(2) 0.4451(11)
H15 H 1.3968 1.1560 0.4434
C20 C 0.5629(17) 1.3226(17) 0.4621(9)
H16 H 0.5388 1.3865 0.4356
C21 C 0.683(2) 1.168(2) 0.5076(10)
H17 H 0.7514 1.1045 0.5171
C22 C 0.5587(19) 1.198(2) 0.5359(11)
H18 H 0.5319 1.1613 0.5701
N1 N 0.8971(13) 1.2399(12) 0.1612(6)
N2 N 0.6894(14) 1.1973(15) 0.0649(7)
N3 N 0.5638(15) 1.1138(15) 0.0345(8)
N4 N 1.1284(13) 1.1845(14) 0.0343(7)
N5 N 1.3313(14) 1.1088(14) 0.0076(7)
N6 N 0.8936(13) 1.2511(12) 0.3307(7)
N7 N 1.1157(14) 1.2404(13) 0.4305(7)
N8 N 1.2463(15) 1.2839(14) 0.4784(8)
N9 N 0.6797(13) 1.2511(15) 0.4634(7)
N10 N 0.4843(13) 1.2898(15) 0.5045(7)
W1A W 0.08515(7) 1.01179(6) -0.26460(3)
W2A W -0.01340(7) 1.15815(6) -0.13138(3)
W3A W -0.01865(7) 1.51405(6) -0.24556(3)
W4A W -0.23697(7) 1.42092(6) -0.13061(3)
W5A W -0.31911(6) 1.18501(6) -0.14462(3)
W6A W -0.21480(7) 1.03353(6) -0.28099(4)
W7A W -0.03331(7) 1.12969(6) -0.38876(3)
W8A W -0.26055(6) 1.42440(6) -0.39177(3)
W9A W -0.35263(7) 1.56704(6) -0.26886(4)
W10A W 0.06957(6) 1.38322(6) -0.36715(3)
W11A W -0.44112(6) 1.33214(6) -0.28220(3)
Cu1A Cu 0.10768(19) 0.74422(18) -0.24516(9)
Cu2A Cu -0.3081(2) 0.6303(2) -0.52783(10)
Ce1A Ce 0.25618(17) 1.23642(16) -0.24117(9)
Si1A Si -0.1307(4) 1.2867(4) -0.2624(2)
O1A O 0.1930(11) 0.8700(10) -0.2574(6)
O2A O 0.0576(12) 1.0747(11) -0.0742(6)
O3A O -0.0132(11) 1.6513(10) -0.2329(6)
O4A O -0.2848(12) 1.5170(12) -0.0781(6)
O5A O -0.4302(12) 1.1314(11) -0.1034(6)
O6A O -0.2926(12) 0.9346(12) -0.2830(6)
O7A O 0.0150(13) 1.0866(12) -0.4565(6)
O8A O -0.2962(11) 1.4764(12) -0.4616(6)
O9A O -0.4477(12) 1.7060(12) -0.2584(7)
O10A O 0.1353(11) 1.4320(11) -0.4336(5)
O11A O -0.5955(11) 1.3285(10) -0.2803(5)
O12A O -0.2554(11) 1.3681(10) -0.2914(5)
O13A O -0.3466(11) 1.3297(11) -0.1081(6)
O14A O -0.1075(11) 1.2986(10) -0.0940(6)
O15A O -0.1801(11) 1.1179(10) -0.1086(6)
O16A O -0.3368(11) 1.5025(10) -0.1897(5)
O17A O -0.2610(11) 1.0764(11) -0.2028(6)
O18A O 0.0171(11) 1.0435(10) -0.1868(6)
O19A O 0.1037(11) 1.2146(11) -0.1698(6)
O20A O -0.1941(12) 1.5753(12) -0.2705(6)
O21A O 0.1348(12) 1.4259(11) -0.2317(6)
O22A O 0.1803(11) 1.1019(11) -0.2688(6)
O23A O 0.2082(11) 1.3128(10) -0.3330(6)
O24A O 0.0302(11) 1.5214(10) -0.3284(6)
O25A O -0.1095(11) 1.4449(11) -0.3885(6)
O26A O -0.3449(11) 1.5654(10) -0.3513(6)
O27A O -0.1764(10) 1.2642(10) -0.4022(6)
O28A O 0.0873(11) 1.0142(11) -0.3474(6)
O29A O -0.0605(11) 0.9401(10) -0.2636(6)
O30A O -0.4833(11) 1.4912(11) -0.2642(6)
O31A O -0.1498(11) 1.0455(11) -0.3614(6)
O32A O -0.3462(11) 1.1794(10) -0.2988(6)
O33A O 0.0528(10) 1.2402(11) -0.3858(6)
O34A O -0.4174(11) 1.2858(11) -0.2043(5)
O35A O -0.1047(11) 1.4723(11) -0.1765(6)
O36A O -0.4148(11) 1.3825(11) -0.3621(6)
O37A O -0.1631(11) 1.2694(10) -0.1931(5)
O38A O -0.0850(10) 1.1592(10) -0.2887(5)
O39A O -0.0213(11) 1.3497(10) -0.2796(5)
O40A O 0.3189(16) 1.3095(17) -0.1615(7)
O41A O 0.384(2) 1.0899(19) -0.1832(10)
O42A O 0.4232(14) 1.1052(14) -0.3048(9)
O43A O 0.2711(13) 0.5880(12) -0.2419(8)
O44A O -0.3609(12) 0.5703(12) -0.5939(6)
C1A C 0.2046(17) 0.7662(16) -0.1405(9)
H1A H 0.2797 0.7532 -0.1648
C2A C 0.2004(16) 0.7914(16) -0.0835(8)
C3A C 0.0905(16) 0.8101(16) -0.0468(8)
H2A H 0.0853 0.8295 -0.0088
C4A C -0.0113(17) 0.7989(16) -0.0685(9)
C5A C -0.0035(16) 0.7757(16) -0.1254(8)
H3A H -0.0743 0.7706 -0.1395
C6A C 0.3175(18) 0.900(2) -0.0437(10)
H4A H 0.2496 0.9661 -0.0364
C7A C 0.503(2) 0.774(2) -0.0506(14)
H5A H 0.5890 0.7385 -0.0488
C8A C 0.427(2) 0.724(2) -0.0690(14)
H6A H 0.4503 0.6493 -0.0820
C9A C -0.1529(18) 0.763(2) 0.0202(9)
H7A H -0.0955 0.7082 0.0422
C10A C -0.2775(18) 0.808(2) 0.0345(10)
H8A H -0.3216 0.7865 0.0683
C11A C -0.2382(17) 0.8921(18) -0.0489(10)
H9A H -0.2470 0.9392 -0.0833
C12A C 0.2101(18) 0.7435(17) -0.3670(8)
H10A H 0.2833 0.7394 -0.3520
C13A C 0.2115(16) 0.7437(17) -0.4250(8)
C14A C 0.1072(18) 0.7461(16) -0.4484(8)
H11A H 0.1083 0.7419 -0.4881
C15A C -0.0000(15) 0.7549(14) -0.4104(8)
C16A C -0.0002(17) 0.7557(15) -0.3522(8)
H12A H -0.0735 0.7608 -0.3274
C17A C -0.1276(18) 0.6904(16) -0.4681(8)
H13A H -0.0612 0.6315 -0.4852
C18A C -0.2319(19) 0.832(2) -0.4148(11)
H14A H -0.2531 0.8893 -0.3882
C19A C -0.311(2) 0.806(2) -0.4451(11)
H15A H -0.3968 0.8440 -0.4434
C20A C 0.4371(17) 0.6774(17) -0.4621(9)
H16A H 0.4612 0.6135 -0.4356
C21A C 0.317(2) 0.832(2) -0.5076(10)
H17A H 0.2486 0.8955 -0.5171
C22A C 0.4413(19) 0.802(2) -0.5359(11)
H18A H 0.4681 0.8387 -0.5701
N1A N 0.1029(13) 0.7601(12) -0.1612(6)
N2A N 0.3106(14) 0.8027(15) -0.0649(7)
N3A N 0.4362(15) 0.8862(15) -0.0345(8)
N4A N -0.1284(13) 0.8155(14) -0.0343(7)
N5A N -0.3313(14) 0.8912(14) -0.0076(7)
N6A N 0.1064(13) 0.7489(12) -0.3307(7)
N7A N -0.1157(14) 0.7596(13) -0.4305(7)
N8A N -0.2463(15) 0.7161(14) -0.4784(8)
N9A N 0.3203(13) 0.7489(15) -0.4634(7)
N10A N 0.5157(13) 0.7102(15) -0.5045(7)
Cu1_2 Cu 0.89232(19) 0.25578(18) 0.24516(9)
Cu1A_2 Cu 0.10768(19) 1.74422(18) -0.24516(9)
Cu2_2 Cu 0.3081(2) 1.3697(2) -0.47217(10)
Cu2_3 Cu 0.3081(2) 1.3697(2) 0.52783(10)
Cu2_4 Cu 1.3081(2) 0.3697(2) 0.52783(10)
Cu2A_2 Cu -0.3081(2) 1.6303(2) -0.52783(10)
Cu2A_3 Cu 0.6919(2) 0.6303(2) -0.52783(10)
Cu2A_4 Cu 0.6919(2) 0.6303(2) 0.47217(10)
Cu3_2 Cu -0.5000 1.0000 0.0000
Cu3_3 Cu 1.5000 1.0000 0.0000
Ce1_2 Ce 1.74382(17) 0.76358(16) 0.24117(9)
Ce1A_2 Ce -0.74382(17) 1.23642(16) -0.24117(9)
O3_2 O 1.0132(11) 1.3487(10) 0.2329(6)
O3A_2 O -0.0132(11) 0.6513(10) -0.2329(6)
O8_2 O 1.2962(11) 1.5236(12) 0.4616(6)
O8A_2 O -0.2962(11) 0.4764(12) -0.4616(6)
O10_2 O -0.1353(11) 0.5680(11) -0.5664(5)
O10A_2 O 1.1353(11) 1.4320(11) 0.5664(5)
O11_2 O 0.5955(11) 0.6715(10) 0.2803(5)
O11A_2 O 0.4045(11) 1.3285(10) -0.2803(5)
N5_2 N 0.3313(14) 1.1088(14) 0.0076(7)
N5A_2 N 0.6687(14) 0.8912(14) -0.0076(7)
N10_2 N 1.4843(13) 1.2898(15) 0.5045(7)
N10A_2 N -0.4843(13) 0.7102(15) -0.5045(7)
O45 O 0.592(3) 0.541(3) 0.0470(15)
O46 O 0.802(4) 0.507(4) 0.106(2)
O47 O 0.574(3) 0.118(4) 0.337(2)
O48 O 0.659(4) 0.924(4) 0.404(2)
O49 O 0.281(4) 0.231(4) 0.167(2)
O50 O 0.457(4) 1.113(4) 0.184(2)
loop_
_geom_bond_atom_site_label_1
_geom_bond_atom_site_label_2
_geom_bond_site_symmetry_1
_geom_bond_site_symmetry_2
W1 O1 1_555 1_555
W2 O2 1_555 1_555
W3 O3 1_555 1_555
W4 O4 1_555 1_555
W5 O5 1_555 1_555
W6 O6 1_555 1_555
W7 O7 1_555 1_555
W8 O8 1_555 1_555
W9 O9 1_555 1_555
W10 O10 1_555 1_555
W11 O11 1_555 1_555
Cu1 O1 1_555 1_555
Cu2 O44 1_555 1_555
Cu3 N3 1_555 1_555
Ce1 O19 1_555 1_555
Si1 O12 1_555 1_555
O3 Cu1_2 1_555 1_555
O8 Cu2_4 1_555 1_555
O10 Cu2A_4 1_555 1_555
O11 Ce1_2 1_555 1_555
O12 W8 1_555 1_555
O13 W4 1_555 1_555
O14 W2 1_555 1_555
O15 W2 1_555 1_555
O16 W4 1_555 1_555
O17 W5 1_555 1_555
O18 W1 1_555 1_555
O19 W2 1_555 1_555
O20 W3 1_555 1_555
O21 W3 1_555 1_555
O22 W1 1_555 1_555
O23 W10 1_555 1_555
O24 W3 1_555 1_555
O25 W8 1_555 1_555
O26 W8 1_555 1_555
O27 W7 1_555 1_555
O28 W1 1_555 1_555
O29 W1 1_555 1_555
O30 W9 1_555 1_555
O31 W6 1_555 1_555
O32 W6 1_555 1_555
O33 W7 1_555 1_555
O34 W5 1_555 1_555
O35 W3 1_555 1_555
O36 W8 1_555 1_555
O37 W2 1_555 1_555
O38 W1 1_555 1_555
O39 W3 1_555 1_555
O40 Ce1 1_555 1_555
O41 Ce1 1_555 1_555
O42 Ce1 1_555 1_555
O43 Cu1 1_555 1_555
C1 H1 1_555 1_555
C2 C1 1_555 1_555
C3 C2 1_555 1_555
H2 C3 1_555 1_555
C4 C3 1_555 1_555
C5 C4 1_555 1_555
H3 C5 1_555 1_555
C6 H4 1_555 1_555
C7 H5 1_555 1_555
C8 C7 1_555 1_555
H6 C8 1_555 1_555
C9 H7 1_555 1_555
C10 C9 1_555 1_555
H8 C10 1_555 1_555
C11 H9 1_555 1_555
C12 H10 1_555 1_555
C13 C12 1_555 1_555
C14 C13 1_555 1_555
H11 C14 1_555 1_555
C15 C14 1_555 1_555
C16 C15 1_555 1_555
H12 C16 1_555 1_555
C17 H13 1_555 1_555
C18 H14 1_555 1_555
C19 C18 1_555 1_555
H15 C19 1_555 1_555
C20 H16 1_555 1_555
C21 H17 1_555 1_555
C22 C21 1_555 1_555
H18 C22 1_555 1_555
N1 Cu1 1_555 1_555
N2 C2 1_555 1_555
N3 C6 1_555 1_555
N4 C4 1_555 1_555
N5 C10 1_555 1_555
N6 Cu1 1_555 1_555
N7 C15 1_555 1_555
N8 Cu2 1_555 1_555
N9 C13 1_555 1_555
N10 C20 1_555 1_555
W1A O1A 1_555 1_555
W2A O2A 1_555 1_555
W3A O3A 1_555 1_555
W4A O4A 1_555 1_555
W5A O5A 1_555 1_555
W6A O6A 1_555 1_555
W7A O7A 1_555 1_555
W8A O8A 1_555 1_555
W9A O9A 1_555 1_555
W10A O10A 1_555 1_555
W11A O11A 1_555 1_555
Cu1A O1A 1_555 1_555
Cu2A O44A 1_555 1_555
Ce1A O19A 1_555 1_555
Si1A O12A 1_555 1_555
O3A Cu1A_2 1_555 1_555
O8A Cu2A_2 1_555 1_555
O10A Cu2_2 1_555 1_555
O11A Ce1A_2 1_555 1_555
O12A W8A 1_555 1_555
O13A W4A 1_555 1_555
O14A W2A 1_555 1_555
O15A W2A 1_555 1_555
O16A W4A 1_555 1_555
O17A W5A 1_555 1_555
O18A W1A 1_555 1_555
O19A W2A 1_555 1_555
O20A W3A 1_555 1_555
O21A W3A 1_555 1_555
O22A W1A 1_555 1_555
O23A W10A 1_555 1_555
O24A W3A 1_555 1_555
O25A W8A 1_555 1_555
O26A W8A 1_555 1_555
O27A W7A 1_555 1_555
O28A W1A 1_555 1_555
O29A W1A 1_555 1_555
O30A W9A 1_555 1_555
O31A W6A 1_555 1_555
O32A W6A 1_555 1_555
O33A W7A 1_555 1_555
O34A W5A 1_555 1_555
O35A W3A 1_555 1_555
O36A W8A 1_555 1_555
O37A W2A 1_555 1_555
O38A W1A 1_555 1_555
O39A W3A 1_555 1_555
O40A Ce1A 1_555 1_555
O41A Ce1A 1_555 1_555
O42A Ce1A 1_555 1_555
O43A Cu1A 1_555 1_555
C1A H1A 1_555 1_555
C2A C1A 1_555 1_555
C3A C2A 1_555 1_555
H2A C3A 1_555 1_555
C4A C3A 1_555 1_555
C5A C4A 1_555 1_555
H3A C5A 1_555 1_555
C6A H4A 1_555 1_555
C7A H5A 1_555 1_555
C8A C7A 1_555 1_555
H6A C8A 1_555 1_555
C9A H7A 1_555 1_555
C10A C9A 1_555 1_555
H8A C10A 1_555 1_555
C11A H9A 1_555 1_555
C12A H10A 1_555 1_555
C13A C12A 1_555 1_555
C14A C13A 1_555 1_555
H11A C14A 1_555 1_555
C15A C14A 1_555 1_555
C16A C15A 1_555 1_555
H12A C16A 1_555 1_555
C17A H13A 1_555 1_555
C18A H14A 1_555 1_555
C19A C18A 1_555 1_555
H15A C19A 1_555 1_555
C20A H16A 1_555 1_555
C21A H17A 1_555 1_555
C22A C21A 1_555 1_555
H18A C22A 1_555 1_555
N1A Cu1A 1_555 1_555
N2A C2A 1_555 1_555
N3A Cu3 1_555 1_555
N4A C4A 1_555 1_555
N5A C10A 1_555 1_555
N6A Cu1A 1_555 1_555
N7A C15A 1_555 1_555
N8A Cu2A 1_555 1_555
N9A C13A 1_555 1_555
N10A C20A 1_555 1_555
Cu2_3 N10 1_555 1_555
Cu2A_3 N10A 1_555 1_555
Cu3_2 N5A 1_555 1_555
Cu3_3 N5 1_555 1_555
O3_2 Cu1 1_555 1_555
O3A_2 Cu1A 1_555 1_555
O8_2 Cu2 1_555 1_555
O8A_2 Cu2A 1_555 1_555
O10_2 Cu2A 1_555 1_555
O10A_2 Cu2 1_555 1_555
O11_2 Ce1 1_555 1_555
O11A_2 Ce1A 1_555 1_555
N5_2 Cu3 1_555 1_555
N5A_2 Cu3 1_555 1_555
N10_2 Cu2 1_555 1_555
N10A_2 Cu2A 1_555 1_555
W2 O18 1_555 1_555
W4 O14 1_555 1_555
W4 O35 1_555 1_555
W4 O37 1_555 1_555
W5 O13 1_555 1_555
W5 O15 1_555 1_555
W5 O37 1_555 1_555
W6 O17 1_555 1_555
W6 O29 1_555 1_555
W6 O38 1_555 1_555
W7 O28 1_555 1_555
W7 O31 1_555 1_555
W7 O38 1_555 1_555
W8 O27 1_555 1_555
W9 O12 1_555 1_555
W9 O16 1_555 1_555
W9 O20 1_555 1_555
W9 O26 1_555 1_555
W10 O24 1_555 1_555
W10 O25 1_555 1_555
W10 O33 1_555 1_555
W10 O39 1_555 1_555
W11 O12 1_555 1_555
W11 O30 1_555 1_555
W11 O32 1_555 1_555
W11 O34 1_555 1_555
W11 O36 1_555 1_555
Cu1 O29 1_555 1_555
Ce1 O21 1_555 1_555
Ce1 O22 1_555 1_555
Ce1 O23 1_555 1_555
Si1 O37 1_555 1_555
Si1 O38 1_555 1_555
Si1 O39 1_555 1_555
C1 N1 1_555 1_555
C5 N1 1_555 1_555
C6 N2 1_555 1_555
C7 N3 1_555 1_555
C8 N2 1_555 1_555
C9 N4 1_555 1_555
C11 N4 1_555 1_555
C11 N5 1_555 1_555
C12 N6 1_555 1_555
C16 N6 1_555 1_555
C17 N7 1_555 1_555
C17 N8 1_555 1_555
C18 N7 1_555 1_555
C19 N8 1_555 1_555
C20 N9 1_555 1_555
C21 N9 1_555 1_555
C22 N10 1_555 1_555
W2A O18A 1_555 1_555
W4A O14A 1_555 1_555
W4A O35A 1_555 1_555
W4A O37A 1_555 1_555
W5A O13A 1_555 1_555
W5A O15A 1_555 1_555
W5A O37A 1_555 1_555
W6A O17A 1_555 1_555
W6A O29A 1_555 1_555
W6A O38A 1_555 1_555
W7A O28A 1_555 1_555
W7A O31A 1_555 1_555
W7A O38A 1_555 1_555
W8A O27A 1_555 1_555
W9A O12A 1_555 1_555
W9A O16A 1_555 1_555
W9A O20A 1_555 1_555
W9A O26A 1_555 1_555
W10A O24A 1_555 1_555
W10A O25A 1_555 1_555
W10A O33A 1_555 1_555
W10A O39A 1_555 1_555
W11A O12A 1_555 1_555
W11A O30A 1_555 1_555
W11A O32A 1_555 1_555
W11A O34A 1_555 1_555
W11A O36A 1_555 1_555
Cu1A O29A 1_555 1_555
Ce1A O21A 1_555 1_555
Ce1A O22A 1_555 1_555
Ce1A O23A 1_555 1_555
Si1A O37A 1_555 1_555
Si1A O38A 1_555 1_555
Si1A O39A 1_555 1_555
C1A N1A 1_555 1_555
C5A N1A 1_555 1_555
C6A N2A 1_555 1_555
C6A N3A 1_555 1_555
C7A N3A 1_555 1_555
C8A N2A 1_555 1_555
C9A N4A 1_555 1_555
C11A N4A 1_555 1_555
C11A N5A 1_555 1_555
C12A N6A 1_555 1_555
C16A N6A 1_555 1_555
C17A N7A 1_555 1_555
C17A N8A 1_555 1_555
C18A N7A 1_555 1_555
C19A N8A 1_555 1_555
C20A N9A 1_555 1_555
C21A N9A 1_555 1_555
C22A N10A 1_555 1_555

#END
