
#######################################################################
#
#                 Cambridge Crystallographic Data Centre
#                                CCDC 
#
#######################################################################
#
# If this CIF has been generated from an entry in the Cambridge 
# Structural Database, then it will include bibliographic, chemical, 
# crystal, experimental, refinement or atomic coordinate data resulting 
# from the CCDC's data processing and validation procedures.
#
#######################################################################

data_NUGRIR
_chemical_formula_moiety         'C192 H160 Br24 Cu66 N158 O8 S38 W9'
_symmetry_cell_setting           cubic
_symmetry_space_group_name_H-M   'I -4 3 d'
_symmetry_Int_Tables_number      220
_space_group_name_Hall           'I -4bd 2c 3'
loop_
_symmetry_equiv_pos_site_id
_symmetry_equiv_pos_as_xyz
1 x,y,z
2 1/2-x,-y,1/2+z
3 -x,1/2+y,1/2-z
4 1/2+x,1/2-y,-z
5 z,x,y
6 1/2+z,1/2-x,-y
7 1/2-z,-x,1/2+y
8 -z,1/2+x,1/2-y
9 y,z,x
10 -y,1/2+z,1/2-x
11 1/2+y,1/2-z,-x
12 1/2-y,-z,1/2+x
13 1/4+y,1/4+x,1/4+z
14 1/4-y,3/4-x,3/4+z
15 3/4+y,1/4-x,3/4-z
16 3/4-y,3/4+x,1/4-z
17 1/4+x,1/4+z,1/4+y
18 3/4-x,3/4+z,1/4-y
19 1/4-x,3/4-z,3/4+y
20 3/4+x,1/4-z,3/4-y
21 1/4+z,1/4+y,1/4+x
22 3/4+z,1/4-y,3/4-x
23 3/4-z,3/4+y,1/4-x
24 1/4-z,3/4-y,3/4+x
25 1/2+x,1/2+y,1/2+z
26 -x,1/2-y,z
27 1/2-x,y,-z
28 x,-y,1/2-z
29 1/2+z,1/2+x,1/2+y
30 z,-x,1/2-y
31 -z,1/2-x,y
32 1/2-z,x,-y
33 1/2+y,1/2+z,1/2+x
34 1/2-y,z,-x
35 y,-z,1/2-x
36 -y,1/2-z,x
37 3/4+y,3/4+x,3/4+z
38 3/4-y,1/4-x,1/4+z
39 1/4+y,3/4-x,1/4-z
40 1/4-y,1/4+x,3/4-z
41 3/4+x,3/4+z,3/4+y
42 1/4-x,1/4+z,3/4-y
43 3/4-x,1/4-z,1/4+y
44 1/4+x,3/4-z,1/4-y
45 3/4+z,3/4+y,3/4+x
46 1/4+z,3/4-y,1/4-x
47 1/4-z,1/4+y,3/4-x
48 3/4-z,1/4-y,1/4+x
_cell_length_a                   30.0965(16)
_cell_length_b                   30.0965(16)
_cell_length_c                   30.0965(16)
_cell_angle_alpha                90
_cell_angle_beta                 90
_cell_angle_gamma                90
_cell_volume                     27261.4
loop_
_atom_site_label
_atom_site_type_symbol
_atom_site_fract_x
_atom_site_fract_y
_atom_site_fract_z
O1 O 0.2720(6) 0.9561(6) 0.6120(6)
H7 H 0.2526 0.9730 0.6004
H8 H 0.2936 0.9717 0.6216
O2 O 0.3083(6) 0.9203(6) 0.5660(6)
H9 H 0.3184 0.9375 0.5460
H10 H 0.2916 0.9008 0.5541
O3 O 0.2202(6) 0.9200(6) 0.5581(6)
H11 H 0.2121 0.9041 0.5362
H12 H 0.2112 0.9465 0.5542
O4 O 0.0438(6) 0.7579(6) 0.6217(6)
H13 H 0.0570 0.7371 0.6079
H14 H 0.0355 0.7777 0.6033
O6 O 0.0989(6) 0.7474(6) 0.7208(6)
H17 H 0.1135 0.7262 0.7091
H18 H 0.1121 0.7719 0.7156
O7 O 0.1080(8) 0.7403(7) 0.8185(9)
H19 H 0.1056 0.7423 0.7905
H20 H 0.0957 0.7625 0.8308
O8 O 0.1480(8) 0.7988(9) 0.8725(9)
H21 H 0.1465 0.7897 0.8992
H22 H 0.1751 0.8012 0.8649
O9 O 0.3776(2) 0.8776(2) 0.6224(2)
C1 C 0.5229(3) 0.6001(3) 0.9363(3)
H1 H 0.4975 0.5945 0.9198
C2 C 0.5820(3) 0.6309(3) 0.9631(3)
H2 H 0.6057 0.6503 0.9670
C3 C 0.5734(3) 0.5958(3) 0.9908(3)
H3 H 0.5882 0.5875 1.0166
C4 C 0.5154(3) 0.5387(3) 0.9863(3)
C5 C 0.5837(3) 0.7178(3) 0.7383(3)
H4 H 0.5883 0.6947 0.7583
C6 C 0.5549(3) 0.7727(3) 0.7053(3)
H5 H 0.5347 0.7949 0.6976
C7 C 0.5907(3) 0.7618(3) 0.6820(3)
H6 H 0.6019 0.7756 0.6567
C8 C 0.6452(3) 0.7006(3) 0.6919(3)
Br1 Br 0.62570(3) 0.66187(3) 0.84383(3)
Cu1 Cu 0.55616(4) 0.67955(4) 0.88027(4)
Cu2 Cu 0.5000 0.7500 0.78629(5)
N1 N 0.5521(3) 0.6344(3) 0.9293(3)
N2 N 0.5373(3) 0.5761(2) 0.9711(3)
N3 N 0.4802(3) 0.5245(3) 0.9656(3)
N4 N 0.5522(3) 0.7469(3) 0.7416(3)
N5 N 0.6078(3) 0.7249(3) 0.7041(3)
N6 N 0.6561(3) 0.6694(3) 0.7173(3)
S1 S 0.49718(8) 0.68805(7) 0.83234(7)
W1 W 0.5000 0.7500 0.8750
C1I C 0.3999(3) 0.4363(3) 0.9771(3)
C1F C 0.5637(3) 0.4771(3) 1.1001(3)
C1N C 0.3501(3) 0.7271(3) 0.8137(3)
C1T C 0.1863(3) 0.8501(3) 0.7729(3)
C1Q C 0.2271(3) 0.6863(3) 0.6499(3)
C1MA C 0.6499(3) 0.7729(3) 0.8137(3)
C1UA C 0.8137(3) 0.6499(3) 0.7729(3)
C1QA C 0.7729(3) 0.8137(3) 0.6499(3)
C1Y C 0.4771(3) 0.8999(3) 0.9363(3)
C1HA C 0.6001(3) 1.0637(3) 0.9771(3)
C1BA C 0.4363(3) 1.0229(3) 1.1001(3)
C1D C 0.9363(3) 0.5229(3) 0.6001(3)
C1A C 0.9771(3) 0.3999(3) 0.4363(3)
C1J C 1.1001(3) 0.5637(3) 0.4771(3)
C1CA C 0.9363(3) 0.4771(3) 0.8999(3)
C1Z C 0.9771(3) 0.6001(3) 1.0637(3)
C1FA C 1.1001(3) 0.4363(3) 1.0229(3)
C1H C 0.6001(3) 0.9363(3) 0.5229(3)
C1E C 0.4363(3) 0.9771(3) 0.3999(3)
C1B C 0.4771(3) 1.1001(3) 0.5637(3)
C1GA C 0.8999(3) 0.9363(3) 0.4771(3)
C1DA C 1.0637(3) 0.9771(3) 0.6001(3)
C1X C 1.0229(3) 1.1001(3) 0.4363(3)
H1I H 0.4055 0.4198 1.0025
H1F H 0.5802 0.5025 1.0945
H1N H 0.3445 0.7525 0.8302
H1T H 0.1698 0.8445 0.7475
H1Q H 0.2525 0.6698 0.6555
H1MA H 0.6555 0.7475 0.8302
H1UA H 0.8302 0.6555 0.7475
H1QA H 0.7475 0.8302 0.6555
H1Y H 0.5025 0.9055 0.9198
H1HA H 0.5945 1.0802 1.0025
H1BA H 0.4198 0.9975 1.0945
H1D H 0.9198 0.4975 0.5945
H1A H 1.0025 0.4055 0.4198
H1J H 1.0945 0.5802 0.5025
H1CA H 0.9198 0.5025 0.9055
H1Z H 1.0025 0.5945 1.0802
H1FA H 1.0945 0.4198 0.9975
H1H H 0.5945 0.9198 0.4975
H1E H 0.4198 1.0025 0.4055
H1B H 0.5025 1.0945 0.5802
H1GA H 0.9055 0.9198 0.5025
H1DA H 1.0802 1.0025 0.5945
H1X H 0.9975 1.0945 0.4198
C2I C 0.3691(3) 0.4631(3) 0.9180(3)
C2F C 0.5369(3) 0.4180(3) 1.1309(3)
C2N C 0.3809(3) 0.6680(3) 0.7869(3)
C2T C 0.2131(3) 0.8809(3) 0.8320(3)
C2Q C 0.1680(3) 0.7131(3) 0.6191(3)
C2MA C 0.6191(3) 0.8320(3) 0.7869(3)
C2UA C 0.7869(3) 0.6191(3) 0.8320(3)
C2QA C 0.8320(3) 0.7869(3) 0.6191(3)
C2Y C 0.4180(3) 0.8691(3) 0.9631(3)
C2HA C 0.6309(3) 1.0369(3) 0.9180(3)
C2BA C 0.4631(3) 1.0820(3) 1.1309(3)
C2D C 0.9631(3) 0.5820(3) 0.6309(3)
C2A C 0.9180(3) 0.3691(3) 0.4631(3)
C2J C 1.1309(3) 0.5369(3) 0.4180(3)
C2CA C 0.9631(3) 0.4180(3) 0.8691(3)
C2Z C 0.9180(3) 0.6309(3) 1.0369(3)
C2FA C 1.1309(3) 0.4631(3) 1.0820(3)
C2H C 0.6309(3) 0.9631(3) 0.5820(3)
C2E C 0.4631(3) 0.9180(3) 0.3691(3)
C2B C 0.4180(3) 1.1309(3) 0.5369(3)
C2GA C 0.8691(3) 0.9631(3) 0.4180(3)
C2DA C 1.0369(3) 0.9180(3) 0.6309(3)
C2X C 1.0820(3) 1.1309(3) 0.4631(3)
H2I H 0.3497 0.4670 0.8943
H2F H 0.5330 0.3943 1.1503
H2N H 0.4003 0.6443 0.7830
H2T H 0.2170 0.9003 0.8557
H2Q H 0.1443 0.7170 0.5997
H2MA H 0.5997 0.8557 0.7830
H2UA H 0.7830 0.5997 0.8557
H2QA H 0.8557 0.7830 0.5997
H2Y H 0.3943 0.8497 0.9670
H2HA H 0.6503 1.0330 0.8943
H2BA H 0.4670 1.1057 1.1503
H2D H 0.9670 0.6057 0.6503
H2A H 0.8943 0.3497 0.4670
H2J H 1.1503 0.5330 0.3943
H2CA H 0.9670 0.3943 0.8497
H2Z H 0.8943 0.6503 1.0330
H2FA H 1.1503 0.4670 1.1057
H2H H 0.6503 0.9670 0.6057
H2E H 0.4670 0.8943 0.3497
H2B H 0.3943 1.1503 0.5330
H2GA H 0.8497 0.9670 0.3943
H2DA H 1.0330 0.8943 0.6503
H2X H 1.1057 1.1503 0.4670
C3I C 0.4042(3) 0.4908(3) 0.9266(3)
C3F C 0.5092(3) 0.4266(3) 1.0958(3)
C3N C 0.3458(3) 0.6766(3) 0.7592(3)
C3T C 0.2408(3) 0.8458(3) 0.8234(3)
C3Q C 0.1766(3) 0.7408(3) 0.6542(3)
C3MA C 0.6542(3) 0.8234(3) 0.7592(3)
C3UA C 0.7592(3) 0.6542(3) 0.8234(3)
C3QA C 0.8234(3) 0.7592(3) 0.6542(3)
C3Y C 0.4266(3) 0.9042(3) 0.9908(3)
C3HA C 0.5958(3) 1.0092(3) 0.9266(3)
C3BA C 0.4908(3) 1.0734(3) 1.0958(3)
C3D C 0.9908(3) 0.5734(3) 0.5958(3)
C3A C 0.9266(3) 0.4042(3) 0.4908(3)
C3J C 1.0958(3) 0.5092(3) 0.4266(3)
C3CA C 0.9908(3) 0.4266(3) 0.9042(3)
C3Z C 0.9266(3) 0.5958(3) 1.0092(3)
C3FA C 1.0958(3) 0.4908(3) 1.0734(3)
C3H C 0.5958(3) 0.9908(3) 0.5734(3)
C3E C 0.4908(3) 0.9266(3) 0.4042(3)
C3B C 0.4266(3) 1.0958(3) 0.5092(3)
C3GA C 0.9042(3) 0.9908(3) 0.4266(3)
C3DA C 1.0092(3) 0.9266(3) 0.5958(3)
C3X C 1.0734(3) 1.0958(3) 0.4908(3)
H3I H 0.4125 0.5166 0.9118
H3F H 0.4834 0.4118 1.0875
H3N H 0.3375 0.6618 0.7334
H3T H 0.2666 0.8375 0.8382
H3Q H 0.1618 0.7666 0.6625
H3MA H 0.6625 0.8382 0.7334
H3UA H 0.7334 0.6625 0.8382
H3QA H 0.8382 0.7334 0.6625
H3Y H 0.4118 0.9125 1.0166
H3HA H 0.5875 0.9834 0.9118
H3BA H 0.5166 1.0882 1.0875
H3D H 1.0166 0.5882 0.5875
H3A H 0.9118 0.4125 0.5166
H3J H 1.0875 0.4834 0.4118
H3CA H 1.0166 0.4118 0.9125
H3Z H 0.9118 0.5875 0.9834
H3FA H 1.0875 0.5166 1.0882
H3H H 0.5875 1.0166 0.5882
H3E H 0.5166 0.9118 0.4125
H3B H 0.4118 1.0875 0.4834
H3GA H 0.9125 1.0166 0.4118
H3DA H 0.9834 0.9118 0.5875
H3X H 1.0882 1.0875 0.5166
C4I C 0.4613(3) 0.4863(3) 0.9846(3)
C4F C 0.5137(3) 0.4846(3) 1.0387(3)
C4N C 0.2887(3) 0.7346(3) 0.7637(3)
C4T C 0.2363(3) 0.7887(3) 0.7654(3)
C4Q C 0.2346(3) 0.7363(3) 0.7113(3)
C4MA C 0.7113(3) 0.7654(3) 0.7637(3)
C4UA C 0.7637(3) 0.7113(3) 0.7654(3)
C4QA C 0.7654(3) 0.7637(3) 0.7113(3)
C4Y C 0.4846(3) 0.9613(3) 0.9863(3)
C4HA C 0.5387(3) 1.0137(3) 0.9846(3)
C4BA C 0.4863(3) 1.0154(3) 1.0387(3)
C4D C 0.9863(3) 0.5154(3) 0.5387(3)
C4A C 0.9846(3) 0.4613(3) 0.4863(3)
C4J C 1.0387(3) 0.5137(3) 0.4846(3)
C4CA C 0.9863(3) 0.4846(3) 0.9613(3)
C4Z C 0.9846(3) 0.5387(3) 1.0137(3)
C4FA C 1.0387(3) 0.4863(3) 1.0154(3)
C4H C 0.5387(3) 0.9863(3) 0.5154(3)
C4E C 0.4863(3) 0.9846(3) 0.4613(3)
C4B C 0.4846(3) 1.0387(3) 0.5137(3)
C4GA C 0.9613(3) 0.9863(3) 0.4846(3)
C4DA C 1.0137(3) 0.9846(3) 0.5387(3)
C4X C 1.0154(3) 1.0387(3) 0.4863(3)
C5D C 0.7383(3) 0.5837(3) 0.7178(3)
C5H C 0.7178(3) 0.7383(3) 0.5837(3)
C5Y C 0.4163(3) 0.7822(3) 0.7383(3)
C5DA C 0.2617(3) 0.9163(3) 0.7178(3)
C5IA C 0.2822(3) 0.7617(3) 0.5837(3)
C5N C 0.4678(3) 0.6663(3) 1.0117(3)
C5S C 0.3337(3) 0.5117(3) 1.0322(3)
C5U C 0.4883(3) 0.5322(3) 1.1663(3)
C5MA C 0.5322(3) 0.8337(3) 1.0117(3)
C5OA C 0.6663(3) 0.9883(3) 1.0322(3)
C5TA C 0.5117(3) 0.9678(3) 1.1663(3)
C5CA C 0.7383(3) 0.4163(3) 0.7822(3)
C5HA C 0.7178(3) 0.2617(3) 0.9163(3)
C5AA C 0.5837(3) 0.2822(3) 0.7617(3)
C5GA C 0.7822(3) 0.7383(3) 0.4163(3)
C5Z C 0.9163(3) 0.7178(3) 0.2617(3)
C5EA C 0.7617(3) 0.5837(3) 0.2822(3)
C5G C 0.2617(3) 1.0837(3) 0.7822(3)
C5I C 0.2822(3) 1.2383(3) 0.9163(3)
C5B C 0.4163(3) 1.2178(3) 0.7617(3)
C5J C 0.2178(3) 0.7617(3) 0.4163(3)
C5C C 0.0837(3) 0.7822(3) 0.2617(3)
C5E C 0.2383(3) 0.9163(3) 0.2822(3)
H4D H 0.7583 0.5883 0.6947
H4H H 0.6947 0.7583 0.5883
H4Y H 0.4117 0.8053 0.7583
H4DA H 0.2417 0.9117 0.6947
H4IA H 0.3053 0.7417 0.5883
H4N H 0.4447 0.6617 0.9917
H4S H 0.3383 0.4917 1.0553
H4U H 0.5083 0.5553 1.1617
H4MA H 0.5553 0.8383 0.9917
H4OA H 0.6617 1.0083 1.0553
H4TA H 0.4917 0.9447 1.1617
H4CA H 0.7583 0.4117 0.8053
H4HA H 0.6947 0.2417 0.9117
H4AA H 0.5883 0.3053 0.7417
H4GA H 0.8053 0.7583 0.4117
H4Z H 0.9117 0.6947 0.2417
H4EA H 0.7417 0.5883 0.3053
H4G H 0.2417 1.0883 0.8053
H4I H 0.3053 1.2583 0.9117
H4B H 0.4117 1.1947 0.7417
H4J H 0.1947 0.7417 0.4117
H4C H 0.0883 0.8053 0.2417
H4E H 0.2583 0.9117 0.3053
C6D C 0.7053(3) 0.5549(3) 0.7727(3)
C6H C 0.7727(3) 0.7053(3) 0.5549(3)
C6Y C 0.4451(3) 0.7273(3) 0.7053(3)
C6DA C 0.2947(3) 0.9451(3) 0.7727(3)
C6IA C 0.2273(3) 0.7947(3) 0.5549(3)
C6N C 0.5227(3) 0.6951(3) 1.0447(3)
C6S C 0.3049(3) 0.5447(3) 0.9773(3)
C6U C 0.4553(3) 0.4773(3) 1.1951(3)
C6MA C 0.4773(3) 0.8049(3) 1.0447(3)
C6OA C 0.6951(3) 0.9553(3) 0.9773(3)
C6TA C 0.5447(3) 1.0227(3) 1.1951(3)
C6CA C 0.7053(3) 0.4451(3) 0.7273(3)
C6HA C 0.7727(3) 0.2947(3) 0.9451(3)
C6AA C 0.5549(3) 0.2273(3) 0.7947(3)
C6GA C 0.7273(3) 0.7053(3) 0.4451(3)
C6Z C 0.9451(3) 0.7727(3) 0.2947(3)
C6EA C 0.7947(3) 0.5549(3) 0.2273(3)
C6G C 0.2947(3) 1.0549(3) 0.7273(3)
C6I C 0.2273(3) 1.2053(3) 0.9451(3)
C6B C 0.4451(3) 1.2727(3) 0.7947(3)
C6J C 0.2727(3) 0.7947(3) 0.4451(3)
C6C C 0.0549(3) 0.7273(3) 0.2947(3)
C6E C 0.2053(3) 0.9451(3) 0.2273(3)
H5D H 0.6976 0.5347 0.7949
H5H H 0.7949 0.6976 0.5347
H5Y H 0.4653 0.7051 0.6976
H5DA H 0.3024 0.9653 0.7949
H5IA H 0.2051 0.8024 0.5347
H5N H 0.5449 0.7153 1.0524
H5S H 0.2847 0.5524 0.9551
H5U H 0.4476 0.4551 1.2153
H5MA H 0.4551 0.7847 1.0524
H5OA H 0.7153 0.9476 0.9551
H5TA H 0.5524 1.0449 1.2153
H5CA H 0.6976 0.4653 0.7051
H5HA H 0.7949 0.3024 0.9653
H5AA H 0.5347 0.2051 0.8024
H5GA H 0.7051 0.6976 0.4653
H5Z H 0.9653 0.7949 0.3024
H5EA H 0.8024 0.5347 0.2051
H5G H 0.3024 1.0347 0.7051
H5I H 0.2051 1.1976 0.9653
H5B H 0.4653 1.2949 0.8024
H5J H 0.2949 0.8024 0.4653
H5C H 0.0347 0.7051 0.3024
H5E H 0.1976 0.9653 0.2051
C7D C 0.6820(3) 0.5907(3) 0.7618(3)
C7H C 0.7618(3) 0.6820(3) 0.5907(3)
C7Y C 0.4093(3) 0.7382(3) 0.6820(3)
C7DA C 0.3180(3) 0.9093(3) 0.7618(3)
C7IA C 0.2382(3) 0.8180(3) 0.5907(3)
C7N C 0.5118(3) 0.6593(3) 1.0680(3)
C7S C 0.3407(3) 0.5680(3) 0.9882(3)
C7U C 0.4320(3) 0.4882(3) 1.1593(3)
C7MA C 0.4882(3) 0.8407(3) 1.0680(3)
C7OA C 0.6593(3) 0.9320(3) 0.9882(3)
C7TA C 0.5680(3) 1.0118(3) 1.1593(3)
C7CA C 0.6820(3) 0.4093(3) 0.7382(3)
C7HA C 0.7618(3) 0.3180(3) 0.9093(3)
C7AA C 0.5907(3) 0.2382(3) 0.8180(3)
C7GA C 0.7382(3) 0.6820(3) 0.4093(3)
C7Z C 0.9093(3) 0.7618(3) 0.3180(3)
C7EA C 0.8180(3) 0.5907(3) 0.2382(3)
C7G C 0.3180(3) 1.0907(3) 0.7382(3)
C7I C 0.2382(3) 1.1820(3) 0.9093(3)
C7B C 0.4093(3) 1.2618(3) 0.8180(3)
C7J C 0.2618(3) 0.8180(3) 0.4093(3)
C7C C 0.0907(3) 0.7382(3) 0.3180(3)
C7E C 0.1820(3) 0.9093(3) 0.2382(3)
H6D H 0.6567 0.6019 0.7756
H6H H 0.7756 0.6567 0.6019
H6Y H 0.3981 0.7244 0.6567
H6DA H 0.3433 0.8981 0.7756
H6IA H 0.2244 0.8433 0.6019
H6N H 0.5256 0.6481 1.0933
H6S H 0.3519 0.5933 0.9744
H6U H 0.4067 0.4744 1.1481
H6MA H 0.4744 0.8519 1.0933
H6OA H 0.6481 0.9067 0.9744
H6TA H 0.5933 1.0256 1.1481
H6CA H 0.6567 0.3981 0.7244
H6HA H 0.7756 0.3433 0.8981
H6AA H 0.6019 0.2244 0.8433
H6GA H 0.7244 0.6567 0.3981
H6Z H 0.8981 0.7756 0.3433
H6EA H 0.8433 0.6019 0.2244
H6G H 0.3433 1.1019 0.7244
H6I H 0.2244 1.1567 0.8981
H6B H 0.3981 1.2756 0.8433
H6J H 0.2756 0.8433 0.3981
H6C H 0.1019 0.7244 0.3433
H6E H 0.1567 0.8981 0.2244
C8D C 0.6919(3) 0.6452(3) 0.7006(3)
C8H C 0.7006(3) 0.6919(3) 0.6452(3)
C8Y C 0.3548(3) 0.7994(3) 0.6919(3)
C8DA C 0.3081(3) 0.8548(3) 0.7006(3)
C8IA C 0.2994(3) 0.8081(3) 0.6452(3)
C8N C 0.4506(3) 0.6048(3) 1.0581(3)
C8S C 0.3952(3) 0.5581(3) 1.0494(3)
C8U C 0.4419(3) 0.5494(3) 1.1048(3)
C8MA C 0.5494(3) 0.8952(3) 1.0581(3)
C8OA C 0.6048(3) 0.9419(3) 1.0494(3)
C8TA C 0.5581(3) 0.9506(3) 1.1048(3)
C8CA C 0.6919(3) 0.3548(3) 0.7994(3)
C8HA C 0.7006(3) 0.3081(3) 0.8548(3)
C8AA C 0.6452(3) 0.2994(3) 0.8081(3)
C8GA C 0.7994(3) 0.6919(3) 0.3548(3)
C8Z C 0.8548(3) 0.7006(3) 0.3081(3)
C8EA C 0.8081(3) 0.6452(3) 0.2994(3)
C8G C 0.3081(3) 1.1452(3) 0.7994(3)
C8I C 0.2994(3) 1.1919(3) 0.8548(3)
C8B C 0.3548(3) 1.2006(3) 0.8081(3)
C8J C 0.2006(3) 0.8081(3) 0.3548(3)
C8C C 0.1452(3) 0.7994(3) 0.3081(3)
C8E C 0.1919(3) 0.8548(3) 0.2994(3)
Br1N Br 0.41187(3) 0.62430(3) 0.90617(3)
Br1MA Br 0.58813(3) 0.87570(3) 0.90617(3)
Br1Y Br 0.37430(3) 0.83813(3) 0.84383(3)
Br1I Br 0.33813(3) 0.34383(3) 0.87430(3)
Br1F Br 0.65617(3) 0.37430(3) 1.16187(3)
Br1T Br 0.09383(3) 0.91187(3) 0.87570(3)
Br1Q Br 0.12430(3) 0.59383(3) 0.58813(3)
Br1UA Br 0.90617(3) 0.58813(3) 0.87570(3)
Br1QA Br 0.87570(3) 0.90617(3) 0.58813(3)
Br1HA Br 0.66187(3) 1.15617(3) 0.87430(3)
Br1BA Br 0.34383(3) 1.12570(3) 1.16187(3)
Br1D Br 0.84383(3) 0.62570(3) 0.66187(3)
Br1CA Br 0.84383(3) 0.37430(3) 0.83813(3)
Br1H Br 0.66187(3) 0.84383(3) 0.62570(3)
Br1GA Br 0.83813(3) 0.84383(3) 0.37430(3)
Br1DA Br 0.15617(3) 0.87430(3) 0.66187(3)
Br1G Br 0.15617(3) 1.12570(3) 0.83813(3)
Br1IA Br 0.33813(3) 0.65617(3) 0.62570(3)
Br1J Br 0.16187(3) 0.65617(3) 0.37430(3)
Br1S Br 0.37570(3) 0.40617(3) 1.08813(3)
Br1PA Br 0.12430(3) 0.40617(3) 0.91187(3)
Br1U Br 0.59383(3) 0.58813(3) 1.12430(3)
Br1RA Br 0.59383(3) 0.41187(3) 1.37570(3)
Cu1N Cu 0.42955(4) 0.69384(4) 0.86973(4)
Cu1MA Cu 0.57045(4) 0.80616(4) 0.86973(4)
Cu1Y Cu 0.44384(4) 0.82045(4) 0.88027(4)
Cu1I Cu 0.32045(4) 0.38027(4) 0.94384(4)
Cu1F Cu 0.61973(4) 0.44384(4) 1.17955(4)
Cu1T Cu 0.13027(4) 0.92955(4) 0.80616(4)
Cu1Q Cu 0.19384(4) 0.63027(4) 0.57045(4)
Cu1UA Cu 0.86973(4) 0.57045(4) 0.80616(4)
Cu1QA Cu 0.80616(4) 0.86973(4) 0.57045(4)
Cu1HA Cu 0.67955(4) 1.11973(4) 0.94384(4)
Cu1BA Cu 0.38027(4) 1.05616(4) 1.17955(4)
Cu1D Cu 0.88027(4) 0.55616(4) 0.67955(4)
Cu1CA Cu 0.88027(4) 0.44384(4) 0.82045(4)
Cu1H Cu 0.67955(4) 0.88027(4) 0.55616(4)
Cu1GA Cu 0.82045(4) 0.88027(4) 0.44384(4)
Cu1DA Cu 0.11973(4) 0.94384(4) 0.67955(4)
Cu1G Cu 0.11973(4) 1.05616(4) 0.82045(4)
Cu1IA Cu 0.32045(4) 0.61973(4) 0.55616(4)
Cu1J Cu 0.17955(4) 0.61973(4) 0.44384(4)
Cu1S Cu 0.30616(4) 0.36973(4) 1.07045(4)
Cu1PA Cu 0.19384(4) 0.36973(4) 0.92955(4)
Cu1U Cu 0.63027(4) 0.57045(4) 1.19384(4)
Cu1RA Cu 0.63027(4) 0.42955(4) 1.30616(4)
Cu1V Cu 0.86973(4) 0.42955(4) 0.69384(4)
Cu1R Cu 0.69384(4) 0.86973(4) 0.42955(4)
Cu1SA Cu 0.13027(4) 1.07045(4) 0.69384(4)
Cu1NA Cu 0.30616(4) 0.63027(4) 0.42955(4)
Cu1FA Cu 0.17955(4) 0.38027(4) 1.05616(4)
Cu1EA Cu 0.61973(4) 0.55616(4) 1.32045(4)
Cu1OA Cu 0.69384(4) 1.13027(4) 1.07045(4)
Cu1K Cu 0.82045(4) 1.11973(4) 1.05616(4)
Cu1P Cu 0.80616(4) 1.13027(4) 0.92955(4)
Cu1TA Cu 0.36973(4) 0.92955(4) 1.19384(4)
Cu1E Cu 0.38027(4) 0.94384(4) 1.32045(4)
Cu1W Cu 0.36973(4) 1.07045(4) 1.30616(4)
Cu1A Cu 0.94384(4) 0.32045(4) 0.38027(4)
Cu1J_2 Cu 1.17955(4) 0.61973(4) 0.44384(4)
Cu1Z Cu 0.94384(4) 0.67955(4) 1.11973(4)
Cu1FA_2 Cu 1.17955(4) 0.38027(4) 1.05616(4)
Cu1E_2 Cu 0.38027(4) 0.94384(4) 0.32045(4)
Cu1B Cu 0.44384(4) 1.17955(4) 0.61973(4)
Cu1DA_2 Cu 1.11973(4) 0.94384(4) 0.67955(4)
Cu1X Cu 1.05616(4) 1.17955(4) 0.38027(4)
Cu2N Cu 0.5000 0.7500 0.96371(5)
Cu2D Cu 0.78629(5) 0.5000 0.7500
Cu2H Cu 0.7500 0.78629(5) 0.5000
Cu2G Cu 0.21371(5) 1.0000 0.7500
Cu2J Cu 0.2500 0.71371(5) 0.5000
Cu2S Cu 0.2500 0.46371(5) 1.0000
Cu2U Cu 0.53629(5) 0.5000 1.2500
Cu2P Cu 0.7500 1.03629(5) 1.0000
Cu2W Cu 0.46371(5) 1.0000 1.2500
Cu2K Cu 0.7500 0.21371(5) 1.0000
Cu2B Cu 0.5000 0.2500 0.71371(5)
Cu2C Cu 1.0000 0.7500 0.21371(5)
Cu2F Cu 0.71371(5) 0.5000 0.2500
Cu2I Cu 0.2500 1.28629(5) 1.0000
Cu2B_2 Cu 0.5000 1.2500 0.71371(5)
Cu2C_2 Cu 0.0000 0.7500 0.21371(5)
Cu2E Cu 0.28629(5) 1.0000 0.2500
Cu2I_2 Cu 0.2500 0.28629(5) 1.0000
Cu2F_2 Cu 0.71371(5) 0.5000 1.2500
Cu2T Cu 0.03629(5) 1.0000 0.7500
Cu2Q Cu 0.2500 0.53629(5) 0.5000
N1I N 0.3656(3) 0.4293(3) 0.9479(3)
N1F N 0.5707(3) 0.4479(3) 1.1344(3)
N1N N 0.3844(3) 0.6979(3) 0.8207(3)
N1T N 0.1793(3) 0.8844(3) 0.8021(3)
N1Q N 0.1979(3) 0.6793(3) 0.6156(3)
N1MA N 0.6156(3) 0.8021(3) 0.8207(3)
N1UA N 0.8207(3) 0.6156(3) 0.8021(3)
N1QA N 0.8021(3) 0.8207(3) 0.6156(3)
N1Y N 0.4479(3) 0.8656(3) 0.9293(3)
N1HA N 0.6344(3) 1.0707(3) 0.9479(3)
N1BA N 0.4293(3) 1.0521(3) 1.1344(3)
N1D N 0.9293(3) 0.5521(3) 0.6344(3)
N1A N 0.9479(3) 0.3656(3) 0.4293(3)
N1J N 1.1344(3) 0.5707(3) 0.4479(3)
N1CA N 0.9293(3) 0.4479(3) 0.8656(3)
N1Z N 0.9479(3) 0.6344(3) 1.0707(3)
N1FA N 1.1344(3) 0.4293(3) 1.0521(3)
N1H N 0.6344(3) 0.9293(3) 0.5521(3)
N1E N 0.4293(3) 0.9479(3) 0.3656(3)
N1B N 0.4479(3) 1.1344(3) 0.5707(3)
N1GA N 0.8656(3) 0.9293(3) 0.4479(3)
N1DA N 1.0707(3) 0.9479(3) 0.6344(3)
N1X N 1.0521(3) 1.1344(3) 0.4293(3)
N1DA_2 N 0.0707(3) 0.9479(3) 0.6344(3)
N1G N 0.0707(3) 1.0521(3) 0.8656(3)
N1IA N 0.3656(3) 0.5707(3) 0.5521(3)
N1J_2 N 0.1344(3) 0.5707(3) 0.4479(3)
N1S N 0.3021(3) 0.3207(3) 1.1156(3)
N1PA N 0.1979(3) 0.3207(3) 0.8844(3)
N1U N 0.6793(3) 0.6156(3) 1.1979(3)
N1RA N 0.6793(3) 0.3844(3) 1.3021(3)
N2I N 0.4239(2) 0.4711(3) 0.9627(3)
N2F N 0.5289(3) 0.4627(3) 1.0761(2)
N2N N 0.3261(2) 0.7127(3) 0.7789(3)
N2T N 0.2211(3) 0.8261(2) 0.7873(3)
N2Q N 0.2127(3) 0.7211(3) 0.6739(2)
N2MA N 0.6739(2) 0.7873(3) 0.7789(3)
N2UA N 0.7789(3) 0.6739(2) 0.7873(3)
N2QA N 0.7873(3) 0.7789(3) 0.6739(2)
N2Y N 0.4627(3) 0.9239(2) 0.9711(3)
N2HA N 0.5761(2) 1.0289(3) 0.9627(3)
N2BA N 0.4711(3) 1.0373(3) 1.0761(2)
N2D N 0.9711(3) 0.5373(3) 0.5761(2)
N2A N 0.9627(3) 0.4239(2) 0.4711(3)
N2J N 1.0761(2) 0.5289(3) 0.4627(3)
N2CA N 0.9711(3) 0.4627(3) 0.9239(2)
N2Z N 0.9627(3) 0.5761(2) 1.0289(3)
N2FA N 1.0761(2) 0.4711(3) 1.0373(3)
N2H N 0.5761(2) 0.9711(3) 0.5373(3)
N2E N 0.4711(3) 0.9627(3) 0.4239(2)
N2B N 0.4627(3) 1.0761(2) 0.5289(3)
N2GA N 0.9239(2) 0.9711(3) 0.4627(3)
N2DA N 1.0289(3) 0.9627(3) 0.5761(2)
N2X N 1.0373(3) 1.0761(2) 0.4711(3)
N3I N 0.4755(3) 0.4656(3) 1.0198(3)
N3F N 0.5344(3) 0.5198(3) 1.0245(3)
N3N N 0.2745(3) 0.7698(3) 0.7844(3)
N3T N 0.2156(3) 0.7745(3) 0.7302(3)
N3Q N 0.2698(3) 0.7156(3) 0.7255(3)
N3MA N 0.7255(3) 0.7302(3) 0.7844(3)
N3UA N 0.7844(3) 0.7255(3) 0.7302(3)
N3QA N 0.7302(3) 0.7844(3) 0.7255(3)
N3Y N 0.5198(3) 0.9755(3) 0.9656(3)
N3HA N 0.5245(3) 1.0344(3) 1.0198(3)
N3BA N 0.4656(3) 0.9802(3) 1.0245(3)
N3D N 0.9656(3) 0.4802(3) 0.5245(3)
N3A N 1.0198(3) 0.4755(3) 0.4656(3)
N3J N 1.0245(3) 0.5344(3) 0.5198(3)
N3CA N 0.9656(3) 0.5198(3) 0.9755(3)
N3Z N 1.0198(3) 0.5245(3) 1.0344(3)
N3FA N 1.0245(3) 0.4656(3) 0.9802(3)
N3H N 0.5245(3) 0.9656(3) 0.4802(3)
N3E N 0.4656(3) 1.0198(3) 0.4755(3)
N3B N 0.5198(3) 1.0245(3) 0.5344(3)
N3GA N 0.9755(3) 0.9656(3) 0.5198(3)
N3DA N 1.0344(3) 1.0198(3) 0.5245(3)
N3X N 0.9802(3) 1.0245(3) 0.4656(3)
N4D N 0.7416(3) 0.5522(3) 0.7469(3)
N4H N 0.7469(3) 0.7416(3) 0.5522(3)
N4Y N 0.4478(3) 0.7531(3) 0.7416(3)
N4DA N 0.2584(3) 0.9478(3) 0.7469(3)
N4IA N 0.2531(3) 0.7584(3) 0.5522(3)
N4N N 0.4969(3) 0.6978(3) 1.0084(3)
N4S N 0.3022(3) 0.5084(3) 1.0031(3)
N4U N 0.4916(3) 0.5031(3) 1.1978(3)
N4MA N 0.5031(3) 0.8022(3) 1.0084(3)
N4OA N 0.6978(3) 0.9916(3) 1.0031(3)
N4TA N 0.5084(3) 0.9969(3) 1.1978(3)
N4CA N 0.7416(3) 0.4478(3) 0.7531(3)
N4HA N 0.7469(3) 0.2584(3) 0.9478(3)
N4AA N 0.5522(3) 0.2531(3) 0.7584(3)
N4GA N 0.7531(3) 0.7416(3) 0.4478(3)
N4Z N 0.9478(3) 0.7469(3) 0.2584(3)
N4EA N 0.7584(3) 0.5522(3) 0.2531(3)
N4G N 0.2584(3) 1.0522(3) 0.7531(3)
N4I N 0.2531(3) 1.2416(3) 0.9478(3)
N4B N 0.4478(3) 1.2469(3) 0.7584(3)
N4J N 0.2469(3) 0.7584(3) 0.4478(3)
N4C N 0.0522(3) 0.7531(3) 0.2584(3)
N4E N 0.2416(3) 0.9478(3) 0.2531(3)
N4PA N 0.1978(3) 0.5084(3) 0.9969(3)
N4RA N 0.4916(3) 0.4969(3) 1.3022(3)
N4P N 0.8022(3) 0.9916(3) 0.9969(3)
N4W N 0.5084(3) 1.0031(3) 1.3022(3)
N4K N 0.7531(3) 0.2584(3) 1.0522(3)
N4B_2 N 0.4478(3) 0.2469(3) 0.7584(3)
N5D N 0.7041(3) 0.6078(3) 0.7249(3)
N5H N 0.7249(3) 0.7041(3) 0.6078(3)
N5Y N 0.3922(3) 0.7751(3) 0.7041(3)
N5DA N 0.2959(3) 0.8922(3) 0.7249(3)
N5IA N 0.2751(3) 0.7959(3) 0.6078(3)
N5N N 0.4749(3) 0.6422(3) 1.0459(3)
N5S N 0.3578(3) 0.5459(3) 1.0251(3)
N5U N 0.4541(3) 0.5251(3) 1.1422(3)
N5MA N 0.5251(3) 0.8578(3) 1.0459(3)
N5OA N 0.6422(3) 0.9541(3) 1.0251(3)
N5TA N 0.5459(3) 0.9749(3) 1.1422(3)
N5CA N 0.7041(3) 0.3922(3) 0.7751(3)
N5HA N 0.7249(3) 0.2959(3) 0.8922(3)
N5AA N 0.6078(3) 0.2751(3) 0.7959(3)
N5GA N 0.7751(3) 0.7041(3) 0.3922(3)
N5Z N 0.8922(3) 0.7249(3) 0.2959(3)
N5EA N 0.7959(3) 0.6078(3) 0.2751(3)
N5G N 0.2959(3) 1.1078(3) 0.7751(3)
N5I N 0.2751(3) 1.2041(3) 0.8922(3)
N5B N 0.3922(3) 1.2249(3) 0.7959(3)
N5J N 0.2249(3) 0.7959(3) 0.3922(3)
N5C N 0.1078(3) 0.7751(3) 0.2959(3)
N5E N 0.2041(3) 0.8922(3) 0.2751(3)
N6D N 0.7173(3) 0.6561(3) 0.6694(3)
N6H N 0.6694(3) 0.7173(3) 0.6561(3)
N6Y N 0.3439(3) 0.8306(3) 0.7173(3)
N6DA N 0.2827(3) 0.8439(3) 0.6694(3)
N6IA N 0.3306(3) 0.7827(3) 0.6561(3)
N6N N 0.4194(3) 0.5939(3) 1.0327(3)
N6S N 0.4061(3) 0.5327(3) 1.0806(3)
N6U N 0.4673(3) 0.5806(3) 1.0939(3)
N6MA N 0.5806(3) 0.9061(3) 1.0327(3)
N6OA N 0.5939(3) 0.9673(3) 1.0806(3)
N6TA N 0.5327(3) 0.9194(3) 1.0939(3)
N6CA N 0.7173(3) 0.3439(3) 0.8306(3)
N6HA N 0.6694(3) 0.2827(3) 0.8439(3)
N6AA N 0.6561(3) 0.3306(3) 0.7827(3)
N6GA N 0.8306(3) 0.7173(3) 0.3439(3)
N6Z N 0.8439(3) 0.6694(3) 0.2827(3)
N6EA N 0.7827(3) 0.6561(3) 0.3306(3)
N6G N 0.2827(3) 1.1561(3) 0.8306(3)
N6I N 0.3306(3) 1.2173(3) 0.8439(3)
N6B N 0.3439(3) 1.1694(3) 0.7827(3)
N6J N 0.1694(3) 0.7827(3) 0.3439(3)
N6C N 0.1561(3) 0.8306(3) 0.2827(3)
N6E N 0.2173(3) 0.8439(3) 0.3306(3)
S1N S 0.43805(7) 0.75282(8) 0.91766(7)
S1MA S 0.56195(7) 0.74718(8) 0.91766(7)
S1Y S 0.50282(8) 0.81195(7) 0.83234(7)
S1D S 0.83234(7) 0.49718(8) 0.68805(7)
S1CA S 0.83234(7) 0.50282(8) 0.81195(7)
S1H S 0.68805(7) 0.83234(7) 0.49718(8)
S1GA S 0.81195(7) 0.83234(7) 0.50282(8)
S1DA S 0.16766(7) 1.00282(8) 0.68805(7)
S1G S 0.16766(7) 0.99718(8) 0.81195(7)
S1IA S 0.31195(7) 0.66766(7) 0.49718(8)
S1J S 0.18805(7) 0.66766(7) 0.50282(8)
S1S S 0.24718(8) 0.41766(7) 1.06195(7)
S1PA S 0.25282(8) 0.41766(7) 0.93805(7)
S1U S 0.58234(7) 0.56195(7) 1.25282(8)
S1RA S 0.58234(7) 0.43805(7) 1.24718(8)
S1OA S 0.75282(8) 1.08234(7) 1.06195(7)
S1P S 0.74718(8) 1.08234(7) 0.93805(7)
S1TA S 0.41766(7) 0.93805(7) 1.25282(8)
S1W S 0.41766(7) 1.06195(7) 1.24718(8)
S1I S 0.31195(7) 0.33234(7) 1.00282(8)
S1F S 0.66766(7) 0.50282(8) 1.18805(7)
S1T S 0.08234(7) 0.93805(7) 0.74718(8)
S1Q S 0.25282(8) 0.58234(7) 0.56195(7)
S1UA S 0.91766(7) 0.56195(7) 0.74718(8)
S1QA S 0.74718(8) 0.91766(7) 0.56195(7)
S1HA S 0.68805(7) 1.16766(7) 1.00282(8)
S1BA S 0.33234(7) 0.99718(8) 1.18805(7)
S1V S 0.91766(7) 0.43805(7) 0.75282(8)
S1R S 0.75282(8) 0.91766(7) 0.43805(7)
S1SA S 0.08234(7) 1.06195(7) 0.75282(8)
S1NA S 0.24718(8) 0.58234(7) 0.43805(7)
S1FA S 0.18805(7) 0.33234(7) 0.99718(8)
S1HA_2 S 0.68805(7) 0.16766(7) 1.00282(8)
S1K S 0.81195(7) 0.16766(7) 0.99718(8)
S1AA S 0.49718(8) 0.31195(7) 0.66766(7)
S1B S 0.50282(8) 0.18805(7) 0.66766(7)
S1EA S 0.66766(7) 0.49718(8) 1.31195(7)
W1D W 0.8750 0.5000 0.7500
W1H W 0.7500 0.8750 0.5000
W1G W 0.1250 1.0000 0.7500
W1J W 0.2500 0.6250 0.5000
W1I W 0.2500 0.3750 1.0000
W1F W 0.6250 0.5000 1.2500
W1K W 0.7500 1.1250 1.0000
W1E W 0.3750 1.0000 1.2500
loop_
_geom_bond_atom_site_label_1
_geom_bond_atom_site_label_2
_geom_bond_site_symmetry_1
_geom_bond_site_symmetry_2
C1 H1 1_555 1_555
C2 H2 1_555 1_555
C3 C2 1_555 1_555
H3 C3 1_555 1_555
C4 N2 1_555 1_555
C5 H4 1_555 1_555
C6 H5 1_555 1_555
C7 C6 1_555 1_555
H6 C7 1_555 1_555
C8 N5 1_555 1_555
Br1 Cu1 1_555 1_555
Cu1 N1 1_555 1_555
Cu2 N4 1_555 1_555
N1 C1 1_555 1_555
N2 C1 1_555 1_555
N3 C4 1_555 1_555
N4 C5 1_555 1_555
N5 C5 1_555 1_555
N6 C8 1_555 1_555
O1 H7 1_555 1_555
H8 O1 1_555 1_555
O2 H9 1_555 1_555
H10 O2 1_555 1_555
O3 H11 1_555 1_555
H12 O3 1_555 1_555
O4 H13 1_555 1_555
H14 O4 1_555 1_555
O6 H17 1_555 1_555
H18 O6 1_555 1_555
O7 H19 1_555 1_555
H20 O7 1_555 1_555
O8 H21 1_555 1_555
H22 O8 1_555 1_555
S1 Cu1 1_555 1_555
W1 S1 1_555 1_555
C1I H1I 1_555 1_555
C1F H1F 1_555 1_555
C1N H1N 1_555 1_555
C1T H1T 1_555 1_555
C1Q H1Q 1_555 1_555
C1MA H1MA 1_555 1_555
C1UA H1UA 1_555 1_555
C1QA H1QA 1_555 1_555
C1Y H1Y 1_555 1_555
C1HA H1HA 1_555 1_555
C1BA H1BA 1_555 1_555
C1D H1D 1_555 1_555
C1A H1A 1_555 1_555
C1J H1J 1_555 1_555
C1CA H1CA 1_555 1_555
C1Z H1Z 1_555 1_555
C1FA H1FA 1_555 1_555
C1H H1H 1_555 1_555
C1E H1E 1_555 1_555
C1B H1B 1_555 1_555
C1GA H1GA 1_555 1_555
C1DA H1DA 1_555 1_555
C1X H1X 1_555 1_555
C2I H2I 1_555 1_555
C2F H2F 1_555 1_555
C2N H2N 1_555 1_555
C2T H2T 1_555 1_555
C2Q H2Q 1_555 1_555
C2MA H2MA 1_555 1_555
C2UA H2UA 1_555 1_555
C2QA H2QA 1_555 1_555
C2Y H2Y 1_555 1_555
C2HA H2HA 1_555 1_555
C2BA H2BA 1_555 1_555
C2D H2D 1_555 1_555
C2A H2A 1_555 1_555
C2J H2J 1_555 1_555
C2CA H2CA 1_555 1_555
C2Z H2Z 1_555 1_555
C2FA H2FA 1_555 1_555
C2H H2H 1_555 1_555
C2E H2E 1_555 1_555
C2B H2B 1_555 1_555
C2GA H2GA 1_555 1_555
C2DA H2DA 1_555 1_555
C2X H2X 1_555 1_555
C3I C2I 1_555 1_555
C3F C2F 1_555 1_555
C3N C2N 1_555 1_555
C3T C2T 1_555 1_555
C3Q C2Q 1_555 1_555
C3MA C2MA 1_555 1_555
C3UA C2UA 1_555 1_555
C3QA C2QA 1_555 1_555
C3Y C2Y 1_555 1_555
C3HA C2HA 1_555 1_555
C3BA C2BA 1_555 1_555
C3D C2D 1_555 1_555
C3A C2A 1_555 1_555
C3J C2J 1_555 1_555
C3CA C2CA 1_555 1_555
C3Z C2Z 1_555 1_555
C3FA C2FA 1_555 1_555
C3H C2H 1_555 1_555
C3E C2E 1_555 1_555
C3B C2B 1_555 1_555
C3GA C2GA 1_555 1_555
C3DA C2DA 1_555 1_555
C3X C2X 1_555 1_555
H3I C3I 1_555 1_555
H3F C3F 1_555 1_555
H3N C3N 1_555 1_555
H3T C3T 1_555 1_555
H3Q C3Q 1_555 1_555
H3MA C3MA 1_555 1_555
H3UA C3UA 1_555 1_555
H3QA C3QA 1_555 1_555
H3Y C3Y 1_555 1_555
H3HA C3HA 1_555 1_555
H3BA C3BA 1_555 1_555
H3D C3D 1_555 1_555
H3A C3A 1_555 1_555
H3J C3J 1_555 1_555
H3CA C3CA 1_555 1_555
H3Z C3Z 1_555 1_555
H3FA C3FA 1_555 1_555
H3H C3H 1_555 1_555
H3E C3E 1_555 1_555
H3B C3B 1_555 1_555
H3GA C3GA 1_555 1_555
H3DA C3DA 1_555 1_555
H3X C3X 1_555 1_555
C4I N3 1_555 1_555
C4F N2F 1_555 1_555
C4N N2N 1_555 1_555
C4T N2T 1_555 1_555
C4Q N2Q 1_555 1_555
C4MA N2MA 1_555 1_555
C4UA N2UA 1_555 1_555
C4QA N2QA 1_555 1_555
C4Y N2Y 1_555 1_555
C4HA N2HA 1_555 1_555
C4BA N2BA 1_555 1_555
C4D N2D 1_555 1_555
C4A N2A 1_555 1_555
C4J N2J 1_555 1_555
C4CA N2CA 1_555 1_555
C4Z N2Z 1_555 1_555
C4FA N2FA 1_555 1_555
C4H N2H 1_555 1_555
C4E N2E 1_555 1_555
C4B N2B 1_555 1_555
C4GA N2GA 1_555 1_555
C4DA N2DA 1_555 1_555
C4X N2X 1_555 1_555
C5D H4D 1_555 1_555
C5H H4H 1_555 1_555
C5Y H4Y 1_555 1_555
C5DA H4DA 1_555 1_555
C5IA H4IA 1_555 1_555
C5N H4N 1_555 1_555
C5S H4S 1_555 1_555
C5U H4U 1_555 1_555
C5MA H4MA 1_555 1_555
C5OA H4OA 1_555 1_555
C5TA H4TA 1_555 1_555
C5CA H4CA 1_555 1_555
C5HA H4HA 1_555 1_555
C5AA H4AA 1_555 1_555
C5GA H4GA 1_555 1_555
C5Z H4Z 1_555 1_555
C5EA H4EA 1_555 1_555
C5G H4G 1_555 1_555
C5I H4I 1_555 1_555
C5B H4B 1_555 1_555
C5J H4J 1_555 1_555
C5C H4C 1_555 1_555
C5E H4E 1_555 1_555
C6D H5D 1_555 1_555
C6H H5H 1_555 1_555
C6Y H5Y 1_555 1_555
C6DA H5DA 1_555 1_555
C6IA H5IA 1_555 1_555
C6N H5N 1_555 1_555
C6S H5S 1_555 1_555
C6U H5U 1_555 1_555
C6MA H5MA 1_555 1_555
C6OA H5OA 1_555 1_555
C6TA H5TA 1_555 1_555
C6CA H5CA 1_555 1_555
C6HA H5HA 1_555 1_555
C6AA H5AA 1_555 1_555
C6GA H5GA 1_555 1_555
C6Z H5Z 1_555 1_555
C6EA H5EA 1_555 1_555
C6G H5G 1_555 1_555
C6I H5I 1_555 1_555
C6B H5B 1_555 1_555
C6J H5J 1_555 1_555
C6C H5C 1_555 1_555
C6E H5E 1_555 1_555
C7D C6D 1_555 1_555
C7H C6H 1_555 1_555
C7Y C6Y 1_555 1_555
C7DA C6DA 1_555 1_555
C7IA C6IA 1_555 1_555
C7N C6N 1_555 1_555
C7S C6S 1_555 1_555
C7U C6U 1_555 1_555
C7MA C6MA 1_555 1_555
C7OA C6OA 1_555 1_555
C7TA C6TA 1_555 1_555
C7CA C6CA 1_555 1_555
C7HA C6HA 1_555 1_555
C7AA C6AA 1_555 1_555
C7GA C6GA 1_555 1_555
C7Z C6Z 1_555 1_555
C7EA C6EA 1_555 1_555
C7G C6G 1_555 1_555
C7I C6I 1_555 1_555
C7B C6B 1_555 1_555
C7J C6J 1_555 1_555
C7C C6C 1_555 1_555
C7E C6E 1_555 1_555
H6D C7D 1_555 1_555
H6H C7H 1_555 1_555
H6Y C7Y 1_555 1_555
H6DA C7DA 1_555 1_555
H6IA C7IA 1_555 1_555
H6N C7N 1_555 1_555
H6S C7S 1_555 1_555
H6U C7U 1_555 1_555
H6MA C7MA 1_555 1_555
H6OA C7OA 1_555 1_555
H6TA C7TA 1_555 1_555
H6CA C7CA 1_555 1_555
H6HA C7HA 1_555 1_555
H6AA C7AA 1_555 1_555
H6GA C7GA 1_555 1_555
H6Z C7Z 1_555 1_555
H6EA C7EA 1_555 1_555
H6G C7G 1_555 1_555
H6I C7I 1_555 1_555
H6B C7B 1_555 1_555
H6J C7J 1_555 1_555
H6C C7C 1_555 1_555
H6E C7E 1_555 1_555
C8D N6 1_555 1_555
C8H N5H 1_555 1_555
C8Y N5Y 1_555 1_555
C8DA N5DA 1_555 1_555
C8IA N5IA 1_555 1_555
C8N N5N 1_555 1_555
C8S N5S 1_555 1_555
C8U N5U 1_555 1_555
C8MA N5MA 1_555 1_555
C8OA N5OA 1_555 1_555
C8TA N5TA 1_555 1_555
C8CA N5CA 1_555 1_555
C8HA N5HA 1_555 1_555
C8AA N5AA 1_555 1_555
C8GA N5GA 1_555 1_555
C8Z N5Z 1_555 1_555
C8EA N5EA 1_555 1_555
C8G N5G 1_555 1_555
C8I N5I 1_555 1_555
C8B N5B 1_555 1_555
C8J N5J 1_555 1_555
C8C N5C 1_555 1_555
C8E N5E 1_555 1_555
Br1N Cu1N 1_555 1_555
Br1MA Cu1MA 1_555 1_555
Br1Y Cu1Y 1_555 1_555
Br1I Cu1I 1_555 1_555
Br1F Cu1F 1_555 1_555
Br1T Cu1T 1_555 1_555
Br1Q Cu1Q 1_555 1_555
Br1UA Cu1UA 1_555 1_555
Br1QA Cu1QA 1_555 1_555
Br1HA Cu1HA 1_555 1_555
Br1BA Cu1BA 1_555 1_555
Br1D Cu1D 1_555 1_555
Br1CA Cu1CA 1_555 1_555
Br1H Cu1H 1_555 1_555
Br1GA Cu1GA 1_555 1_555
Br1DA Cu1DA 1_555 1_555
Br1G Cu1G 1_555 1_555
Br1IA Cu1IA 1_555 1_555
Br1J Cu1J 1_555 1_555
Br1S Cu1S 1_555 1_555
Br1PA Cu1PA 1_555 1_555
Br1U Cu1U 1_555 1_555
Br1RA Cu1RA 1_555 1_555
Cu1N S1 1_555 1_555
Cu1MA N1MA 1_555 1_555
Cu1Y N1Y 1_555 1_555
Cu1I N1I 1_555 1_555
Cu1F N1F 1_555 1_555
Cu1T N1T 1_555 1_555
Cu1Q N1Q 1_555 1_555
Cu1UA N1UA 1_555 1_555
Cu1QA N1QA 1_555 1_555
Cu1HA N1HA 1_555 1_555
Cu1BA N1BA 1_555 1_555
Cu1D N1D 1_555 1_555
Cu1CA N1CA 1_555 1_555
Cu1H N1H 1_555 1_555
Cu1GA N1GA 1_555 1_555
Cu1DA N1DA_2 1_555 1_555
Cu1G N1G 1_555 1_555
Cu1IA N1IA 1_555 1_555
Cu1J N1J_2 1_555 1_555
Cu1S N1S 1_555 1_555
Cu1PA N1PA 1_555 1_555
Cu1U N1U 1_555 1_555
Cu1RA N1RA 1_555 1_555
Cu1V S1D 1_555 1_555
Cu1R S1H 1_555 1_555
Cu1SA S1DA 1_555 1_555
Cu1NA S1IA 1_555 1_555
Cu1FA S1S 1_555 1_555
Cu1EA S1U 1_555 1_555
Cu1OA S1OA 1_555 1_555
Cu1K S1OA 1_555 1_555
Cu1P S1P 1_555 1_555
Cu1TA S1TA 1_555 1_555
Cu1E S1TA 1_555 1_555
Cu1W S1W 1_555 1_555
Cu1A N1A 1_555 1_555
Cu1J_2 N1J 1_555 1_555
Cu1Z N1Z 1_555 1_555
Cu1FA_2 N1FA 1_555 1_555
Cu1E_2 N1E 1_555 1_555
Cu1B N1B 1_555 1_555
Cu1DA_2 N1DA 1_555 1_555
Cu1X N1X 1_555 1_555
Cu2N N4N 1_555 1_555
Cu2D N4D 1_555 1_555
Cu2H N4H 1_555 1_555
Cu2G N4DA 1_555 1_555
Cu2J N4IA 1_555 1_555
Cu2S N4S 1_555 1_555
Cu2U N4U 1_555 1_555
Cu2P N4OA 1_555 1_555
Cu2W N4TA 1_555 1_555
Cu2K N4HA 1_555 1_555
Cu2B N4AA 1_555 1_555
Cu2C N4Z 1_555 1_555
Cu2F N4EA 1_555 1_555
Cu2I N4I 1_555 1_555
Cu2B_2 N4B 1_555 1_555
Cu2C_2 N4C 1_555 1_555
Cu2E N4E 1_555 1_555
Cu2I_2 S1I 1_555 1_555
Cu2F_2 S1F 1_555 1_555
Cu2T S1T 1_555 1_555
Cu2Q S1Q 1_555 1_555
N1I C1I 1_555 1_555
N1F C1F 1_555 1_555
N1N C1N 1_555 1_555
N1T C1T 1_555 1_555
N1Q C1Q 1_555 1_555
N1MA C1MA 1_555 1_555
N1UA C1UA 1_555 1_555
N1QA C1QA 1_555 1_555
N1Y C1Y 1_555 1_555
N1HA C1HA 1_555 1_555
N1BA C1BA 1_555 1_555
N1D C1D 1_555 1_555
N1A C1A 1_555 1_555
N1J C1J 1_555 1_555
N1CA C1CA 1_555 1_555
N1Z C1Z 1_555 1_555
N1FA C1FA 1_555 1_555
N1H C1H 1_555 1_555
N1E C1E 1_555 1_555
N1B C1B 1_555 1_555
N1GA C1GA 1_555 1_555
N1DA C1DA 1_555 1_555
N1X C1X 1_555 1_555
N2I C1I 1_555 1_555
N2F C1F 1_555 1_555
N2N C1N 1_555 1_555
N2T C1T 1_555 1_555
N2Q C1Q 1_555 1_555
N2MA C1MA 1_555 1_555
N2UA C1UA 1_555 1_555
N2QA C1QA 1_555 1_555
N2Y C1Y 1_555 1_555
N2HA C1HA 1_555 1_555
N2BA C1BA 1_555 1_555
N2D C1D 1_555 1_555
N2A C1A 1_555 1_555
N2J C1J 1_555 1_555
N2CA C1CA 1_555 1_555
N2Z C1Z 1_555 1_555
N2FA C1FA 1_555 1_555
N2H C1H 1_555 1_555
N2E C1E 1_555 1_555
N2B C1B 1_555 1_555
N2GA C1GA 1_555 1_555
N2DA C1DA 1_555 1_555
N2X C1X 1_555 1_555
N3I C4I 1_555 1_555
N3F C4 1_555 1_555
N3N C4N 1_555 1_555
N3T C4T 1_555 1_555
N3Q C4N 1_555 1_555
N3MA C4MA 1_555 1_555
N3UA C4UA 1_555 1_555
N3QA C4MA 1_555 1_555
N3Y C4Y 1_555 1_555
N3HA C4HA 1_555 1_555
N3BA C4Y 1_555 1_555
N3D C4D 1_555 1_555
N3A C4A 1_555 1_555
N3J C4D 1_555 1_555
N3CA C4CA 1_555 1_555
N3Z C4Z 1_555 1_555
N3FA C4CA 1_555 1_555
N3H C4H 1_555 1_555
N3E C4E 1_555 1_555
N3B C4H 1_555 1_555
N3GA C4GA 1_555 1_555
N3DA C4DA 1_555 1_555
N3X C4GA 1_555 1_555
N4D C5D 1_555 1_555
N4H C5H 1_555 1_555
N4Y Cu2 1_555 1_555
N4DA C5DA 1_555 1_555
N4IA C5IA 1_555 1_555
N4N C5N 1_555 1_555
N4S C5S 1_555 1_555
N4U C5U 1_555 1_555
N4MA C5MA 1_555 1_555
N4OA C5OA 1_555 1_555
N4TA C5TA 1_555 1_555
N4CA C5CA 1_555 1_555
N4HA C5HA 1_555 1_555
N4AA C5AA 1_555 1_555
N4GA C5GA 1_555 1_555
N4Z C5Z 1_555 1_555
N4EA C5EA 1_555 1_555
N4G C5G 1_555 1_555
N4I C5I 1_555 1_555
N4B C5B 1_555 1_555
N4J C5J 1_555 1_555
N4C C5C 1_555 1_555
N4E C5E 1_555 1_555
N4PA Cu2S 1_555 1_555
N4RA Cu2U 1_555 1_555
N4P Cu2P 1_555 1_555
N4W Cu2W 1_555 1_555
N4K Cu2K 1_555 1_555
N4B_2 Cu2B 1_555 1_555
N5D C5D 1_555 1_555
N5H C5H 1_555 1_555
N5Y C5Y 1_555 1_555
N5DA C5DA 1_555 1_555
N5IA C5IA 1_555 1_555
N5N C5N 1_555 1_555
N5S C5S 1_555 1_555
N5U C5U 1_555 1_555
N5MA C5MA 1_555 1_555
N5OA C5OA 1_555 1_555
N5TA C5TA 1_555 1_555
N5CA C5CA 1_555 1_555
N5HA C5HA 1_555 1_555
N5AA C5AA 1_555 1_555
N5GA C5GA 1_555 1_555
N5Z C5Z 1_555 1_555
N5EA C5EA 1_555 1_555
N5G C5G 1_555 1_555
N5I C5I 1_555 1_555
N5B C5B 1_555 1_555
N5J C5J 1_555 1_555
N5C C5C 1_555 1_555
N5E C5E 1_555 1_555
N6D C8D 1_555 1_555
N6H C8 1_555 1_555
N6Y C8Y 1_555 1_555
N6DA C8DA 1_555 1_555
N6IA C8Y 1_555 1_555
N6N C8N 1_555 1_555
N6S C8S 1_555 1_555
N6U C8N 1_555 1_555
N6MA C8MA 1_555 1_555
N6OA C8OA 1_555 1_555
N6TA C8MA 1_555 1_555
N6CA C8CA 1_555 1_555
N6HA C8HA 1_555 1_555
N6AA C8CA 1_555 1_555
N6GA C8GA 1_555 1_555
N6Z C8Z 1_555 1_555
N6EA C8GA 1_555 1_555
N6G C8G 1_555 1_555
N6I C8I 1_555 1_555
N6B C8G 1_555 1_555
N6J C8J 1_555 1_555
N6C C8C 1_555 1_555
N6E C8J 1_555 1_555
S1N W1 1_555 1_555
S1MA Cu1 1_555 1_555
S1Y Cu2 1_555 1_555
S1D Cu1D 1_555 1_555
S1CA Cu1UA 1_555 1_555
S1H Cu1H 1_555 1_555
S1GA Cu1QA 1_555 1_555
S1DA Cu1DA 1_555 1_555
S1G Cu1T 1_555 1_555
S1IA Cu1IA 1_555 1_555
S1J Cu1Q 1_555 1_555
S1S Cu1S 1_555 1_555
S1PA Cu1I 1_555 1_555
S1U Cu1U 1_555 1_555
S1RA Cu1F 1_555 1_555
S1OA Cu2P 1_555 1_555
S1P Cu1HA 1_555 1_555
S1TA Cu2W 1_555 1_555
S1W Cu1BA 1_555 1_555
S1I Cu1I 1_555 1_555
S1F Cu1F 1_555 1_555
S1T Cu1T 1_555 1_555
S1Q Cu1Q 1_555 1_555
S1UA Cu1UA 1_555 1_555
S1QA Cu1QA 1_555 1_555
S1HA Cu1HA 1_555 1_555
S1BA Cu1BA 1_555 1_555
S1V Cu1CA 1_555 1_555
S1R Cu1GA 1_555 1_555
S1SA Cu1G 1_555 1_555
S1NA Cu1J 1_555 1_555
S1FA Cu1PA 1_555 1_555
S1HA_2 Cu2K 1_555 1_555
S1K Cu2K 1_555 1_555
S1AA Cu2B 1_555 1_555
S1B Cu2B 1_555 1_555
S1EA Cu1RA 1_555 1_555
W1D S1D 1_555 1_555
W1H S1H 1_555 1_555
W1G S1DA 1_555 1_555
W1J S1IA 1_555 1_555
W1I S1S 1_555 1_555
W1F S1U 1_555 1_555
W1K S1OA 1_555 1_555
W1E S1TA 1_555 1_555
C2 N1 1_555 1_555
C3 N2 1_555 1_555
C6 N4 1_555 1_555
C7 N5 1_555 1_555
Cu2 S1 1_555 1_555
W1 S1MA 1_555 1_555
W1 S1Y 1_555 1_555
C2I N1I 1_555 1_555
C2F N1F 1_555 1_555
C2N N1N 1_555 1_555
C2T N1T 1_555 1_555
C2Q N1Q 1_555 1_555
C2MA N1MA 1_555 1_555
C2UA N1UA 1_555 1_555
C2QA N1QA 1_555 1_555
C2Y N1Y 1_555 1_555
C2HA N1HA 1_555 1_555
C2BA N1BA 1_555 1_555
C2D N1D 1_555 1_555
C2A N1A 1_555 1_555
C2J N1J 1_555 1_555
C2CA N1CA 1_555 1_555
C2Z N1Z 1_555 1_555
C2FA N1FA 1_555 1_555
C2H N1H 1_555 1_555
C2E N1E 1_555 1_555
C2B N1B 1_555 1_555
C2GA N1GA 1_555 1_555
C2DA N1DA 1_555 1_555
C2X N1X 1_555 1_555
C3I N2I 1_555 1_555
C3F N2F 1_555 1_555
C3N N2N 1_555 1_555
C3T N2T 1_555 1_555
C3Q N2Q 1_555 1_555
C3MA N2MA 1_555 1_555
C3UA N2UA 1_555 1_555
C3QA N2QA 1_555 1_555
C3Y N2Y 1_555 1_555
C3HA N2HA 1_555 1_555
C3BA N2BA 1_555 1_555
C3D N2D 1_555 1_555
C3A N2A 1_555 1_555
C3J N2J 1_555 1_555
C3CA N2CA 1_555 1_555
C3Z N2Z 1_555 1_555
C3FA N2FA 1_555 1_555
C3H N2H 1_555 1_555
C3E N2E 1_555 1_555
C3B N2B 1_555 1_555
C3GA N2GA 1_555 1_555
C3DA N2DA 1_555 1_555
C3X N2X 1_555 1_555
C4I N2I 1_555 1_555
C4F N3I 1_555 1_555
C4F N3F 1_555 1_555
C4T N3N 1_555 1_555
C4Q N3T 1_555 1_555
C4Q N3Q 1_555 1_555
C4UA N3MA 1_555 1_555
C4QA N3UA 1_555 1_555
C4QA N3QA 1_555 1_555
C4HA N3Y 1_555 1_555
C4BA N3HA 1_555 1_555
C4BA N3BA 1_555 1_555
C4A N3D 1_555 1_555
C4J N3A 1_555 1_555
C4J N3J 1_555 1_555
C4Z N3CA 1_555 1_555
C4FA N3Z 1_555 1_555
C4FA N3FA 1_555 1_555
C4E N3H 1_555 1_555
C4B N3E 1_555 1_555
C4B N3B 1_555 1_555
C4DA N3GA 1_555 1_555
C4X N3DA 1_555 1_555
C4X N3X 1_555 1_555
C5Y N4Y 1_555 1_555
C6D N4D 1_555 1_555
C6H N4H 1_555 1_555
C6Y N4Y 1_555 1_555
C6DA N4DA 1_555 1_555
C6IA N4IA 1_555 1_555
C6N N4N 1_555 1_555
C6S N4S 1_555 1_555
C6U N4U 1_555 1_555
C6MA N4MA 1_555 1_555
C6OA N4OA 1_555 1_555
C6TA N4TA 1_555 1_555
C6CA N4CA 1_555 1_555
C6HA N4HA 1_555 1_555
C6AA N4AA 1_555 1_555
C6GA N4GA 1_555 1_555
C6Z N4Z 1_555 1_555
C6EA N4EA 1_555 1_555
C6G N4G 1_555 1_555
C6I N4I 1_555 1_555
C6B N4B 1_555 1_555
C6J N4J 1_555 1_555
C6C N4C 1_555 1_555
C6E N4E 1_555 1_555
C7D N5D 1_555 1_555
C7H N5H 1_555 1_555
C7Y N5Y 1_555 1_555
C7DA N5DA 1_555 1_555
C7IA N5IA 1_555 1_555
C7N N5N 1_555 1_555
C7S N5S 1_555 1_555
C7U N5U 1_555 1_555
C7MA N5MA 1_555 1_555
C7OA N5OA 1_555 1_555
C7TA N5TA 1_555 1_555
C7CA N5CA 1_555 1_555
C7HA N5HA 1_555 1_555
C7AA N5AA 1_555 1_555
C7GA N5GA 1_555 1_555
C7Z N5Z 1_555 1_555
C7EA N5EA 1_555 1_555
C7G N5G 1_555 1_555
C7I N5I 1_555 1_555
C7B N5B 1_555 1_555
C7J N5J 1_555 1_555
C7C N5C 1_555 1_555
C7E N5E 1_555 1_555
C8D N5D 1_555 1_555
C8H N6D 1_555 1_555
C8H N6H 1_555 1_555
C8DA N6Y 1_555 1_555
C8IA N6DA 1_555 1_555
C8IA N6IA 1_555 1_555
C8S N6N 1_555 1_555
C8U N6S 1_555 1_555
C8U N6U 1_555 1_555
C8OA N6MA 1_555 1_555
C8TA N6OA 1_555 1_555
C8TA N6TA 1_555 1_555
C8HA N6CA 1_555 1_555
C8AA N6HA 1_555 1_555
C8AA N6AA 1_555 1_555
C8Z N6GA 1_555 1_555
C8EA N6Z 1_555 1_555
C8EA N6EA 1_555 1_555
C8I N6G 1_555 1_555
C8B N6I 1_555 1_555
C8B N6B 1_555 1_555
C8C N6J 1_555 1_555
C8E N6C 1_555 1_555
C8E N6E 1_555 1_555
Cu1N N1N 1_555 1_555
Cu1N S1N 1_555 1_555
Cu1MA S1MA 1_555 1_555
Cu1MA S1Y 1_555 1_555
Cu1Y S1N 1_555 1_555
Cu1Y S1Y 1_555 1_555
Cu1D S1UA 1_555 1_555
Cu1CA S1CA 1_555 1_555
Cu1H S1QA 1_555 1_555
Cu1GA S1GA 1_555 1_555
Cu1DA S1T 1_555 1_555
Cu1G S1G 1_555 1_555
Cu1IA S1Q 1_555 1_555
Cu1J S1J 1_555 1_555
Cu1S S1I 1_555 1_555
Cu1PA S1PA 1_555 1_555
Cu1U S1F 1_555 1_555
Cu1RA S1RA 1_555 1_555
Cu1V S1V 1_555 1_555
Cu1R S1R 1_555 1_555
Cu1SA S1SA 1_555 1_555
Cu1NA S1NA 1_555 1_555
Cu1FA S1FA 1_555 1_555
Cu1EA S1EA 1_555 1_555
Cu1OA S1HA 1_555 1_555
Cu1TA S1BA 1_555 1_555
Cu2N N4MA 1_555 1_555
Cu2N S1N 1_555 1_555
Cu2N S1MA 1_555 1_555
Cu2D N4CA 1_555 1_555
Cu2D S1D 1_555 1_555
Cu2D S1CA 1_555 1_555
Cu2H N4GA 1_555 1_555
Cu2H S1H 1_555 1_555
Cu2H S1GA 1_555 1_555
Cu2G N4G 1_555 1_555
Cu2G S1DA 1_555 1_555
Cu2G S1G 1_555 1_555
Cu2J N4J 1_555 1_555
Cu2J S1IA 1_555 1_555
Cu2J S1J 1_555 1_555
Cu2S S1S 1_555 1_555
Cu2S S1PA 1_555 1_555
Cu2U S1U 1_555 1_555
Cu2U S1RA 1_555 1_555
Cu2P S1P 1_555 1_555
Cu2W S1W 1_555 1_555
Cu2I_2 S1FA 1_555 1_555
Cu2F_2 S1EA 1_555 1_555
Cu2T S1SA 1_555 1_555
Cu2Q S1NA 1_555 1_555
S1CA W1D 1_555 1_555
S1GA W1H 1_555 1_555
S1G W1G 1_555 1_555
S1J W1J 1_555 1_555
S1PA W1I 1_555 1_555
S1RA W1F 1_555 1_555
S1P W1K 1_555 1_555
S1W W1E 1_555 1_555
S1I W1I 1_555 1_555
S1F W1F 1_555 1_555
S1T W1G 1_555 1_555
S1Q W1J 1_555 1_555
S1UA W1D 1_555 1_555
S1QA W1H 1_555 1_555
S1HA W1K 1_555 1_555
S1BA W1E 1_555 1_555
S1V W1D 1_555 1_555
S1R W1H 1_555 1_555
S1SA W1G 1_555 1_555
S1NA W1J 1_555 1_555
S1FA W1I 1_555 1_555
S1EA W1F 1_555 1_555

#END
