
#######################################################################
#
#                 Cambridge Crystallographic Data Centre
#                                CCDC 
#
#######################################################################
#
# If this CIF has been generated from an entry in the Cambridge 
# Structural Database, then it will include bibliographic, chemical, 
# crystal, experimental, refinement or atomic coordinate data resulting 
# from the CCDC's data processing and validation procedures.
#
#######################################################################

data_EBOBIJ
_chemical_formula_moiety         '(C16 H14 N2 O5 Zn1)n'
_symmetry_cell_setting           monoclinic
_symmetry_space_group_name_H-M   'C 2/c'
_symmetry_Int_Tables_number      15
_space_group_name_Hall           '-C 2yc'
loop_
_symmetry_equiv_pos_site_id
_symmetry_equiv_pos_as_xyz
1 x,y,z
2 -x,y,1/2-z
3 1/2+x,1/2+y,z
4 1/2-x,1/2+y,1/2-z
5 -x,-y,-z
6 x,-y,1/2+z
7 1/2-x,1/2-y,-z
8 1/2+x,1/2-y,1/2+z
_cell_length_a                   8.8979(3)
_cell_length_b                   21.4587(7)
_cell_length_c                   13.4851(4)
_cell_angle_alpha                90
_cell_angle_beta                 96.7804(16)
_cell_angle_gamma                90
_cell_volume                     2556.8
loop_
_atom_site_label
_atom_site_type_symbol
_atom_site_fract_x
_atom_site_fract_y
_atom_site_fract_z
_atom_site_U_iso_or_equiv
_atom_site_thermal_displace_type
O3 O 1.0000 0.7375(4) 0.7500 0.1084 Uani
Zn1 Zn 0.5000 0.64732(2) 0.7500 0.0343 Uani
O1 O 0.6028(2) 0.70593(9) 0.84632(14) 0.0499 Uani
O2 O 0.7071(3) 0.62298(11) 0.9219(2) 0.0691 Uani
N1 N 0.3533(2) 0.59490(11) 0.81818(17) 0.0429 Uani
C1 C 0.6871(3) 0.67905(13) 0.9168(2) 0.0440 Uani
C2 C 0.7610(3) 0.72009(14) 0.9967(2) 0.0478 Uani
H1 H 0.8284 0.7016 1.0460 0.0570 Uiso
C3 C 0.3977(4) 0.54151(14) 0.8652(2) 0.0535 Uani
H2 H 0.4952 0.5270 0.8610 0.0640 Uiso
C4 C 0.3041(4) 0.50750(15) 0.9193(3) 0.0603 Uani
H3 H 0.3383 0.4706 0.9503 0.0720 Uiso
C5 C 0.1598(4) 0.52854(15) 0.9274(3) 0.0569 Uani
C6 C 0.1143(3) 0.58322(19) 0.8781(3) 0.0661 Uani
H4 H 0.0178 0.5990 0.8819 0.0790 Uiso
C7 C 0.2128(3) 0.61410(17) 0.8233(3) 0.0570 Uani
H5 H 0.1792 0.6499 0.7886 0.0680 Uiso
C8 C 0.0672(4) 0.49230(17) 0.9908(3) 0.0659 Uani
H6 H 0.1084 0.4558 1.0194 0.0790 Uiso
O1F O 0.8972(2) 0.79407(9) 1.15368(14) 0.0499 Uani
O2F O 0.7929(3) 0.87702(11) 1.0781(2) 0.0691 Uani
C1F C 0.8129(3) 0.82095(13) 1.0832(2) 0.0440 Uani
C2F C 0.7390(3) 0.77991(14) 1.0033(2) 0.0478 Uani
H1F H 0.6716 0.7984 0.9540 0.0570 Uiso
N1D N -0.3533(2) 0.40510(11) 1.18182(17) 0.0429 Uani
C3D C -0.3977(4) 0.45849(14) 1.1348(2) 0.0535 Uani
H2D H -0.4952 0.4730 1.1390 0.0640 Uiso
C4D C -0.3041(4) 0.49250(15) 1.0807(3) 0.0603 Uani
H3D H -0.3383 0.5294 1.0497 0.0720 Uiso
C5D C -0.1598(4) 0.47146(15) 1.0726(3) 0.0569 Uani
C6D C -0.1143(3) 0.41678(19) 1.1219(3) 0.0661 Uani
H4D H -0.0178 0.4010 1.1181 0.0790 Uiso
C7D C -0.2128(3) 0.38590(17) 1.1767(3) 0.0570 Uani
H5D H -0.1792 0.3501 1.2114 0.0680 Uiso
C8D C -0.0672(4) 0.50770(17) 1.0092(3) 0.0659 Uani
H6D H -0.1084 0.5442 0.9806 0.0790 Uiso
Zn1D Zn -0.5000 0.35268(2) 1.2500 0.0343 Uani
Zn1F Zn 1.0000 0.85268(2) 1.2500 0.0343 Uani
O1A O 0.3972(2) 0.70593(9) 0.65368(14) 0.0499 Uani
N1A N 0.6467(2) 0.59490(11) 0.68182(17) 0.0429 Uani
loop_
_atom_site_aniso_label
_atom_site_aniso_U_11
_atom_site_aniso_U_22
_atom_site_aniso_U_33
_atom_site_aniso_U_23
_atom_site_aniso_U_13
_atom_site_aniso_U_12
O3 0.090(6) 0.059(4) 0.179(11) 0.000 0.027(6) 0.000
Zn1 0.0361(2) 0.0372(2) 0.0298(2) 0.000 0.00450(15) 0.000
O1 0.0597(12) 0.0475(10) 0.0389(10) -0.0026(8) -0.0097(9) 0.0003(9)
O2 0.0876(17) 0.0457(12) 0.0671(15) -0.0072(11) -0.0198(13) 0.0106(12)
N1 0.0408(11) 0.0490(12) 0.0398(11) 0.0070(10) 0.0091(9) -0.0018(9)
C1 0.0468(14) 0.0455(15) 0.0383(14) -0.0006(11) -0.0010(11) 0.0030(11)
C2 0.0492(15) 0.0516(14) 0.0390(14) 0.0008(12) -0.0104(12) 0.0046(12)
C3 0.0536(16) 0.0505(16) 0.0588(18) 0.0126(13) 0.0166(14) 0.0029(13)
C4 0.0632(19) 0.0521(16) 0.068(2) 0.0230(15) 0.0177(16) 0.0013(14)
C5 0.0575(17) 0.0602(18) 0.0545(18) 0.0083(15) 0.0135(14) -0.0089(14)
C6 0.0381(15) 0.094(2) 0.068(2) 0.0135(19) 0.0136(14) 0.0055(16)
C7 0.0444(15) 0.070(2) 0.0575(18) 0.0205(16) 0.0102(13) 0.0060(14)
C8 0.0566(18) 0.069(2) 0.073(2) 0.0219(18) 0.0116(17) 0.0027(15)
O1F 0.0597 0.0475 0.0389 -0.0026 -0.0097 0.0003
O2F 0.0876 0.0457 0.0671 -0.0072 -0.0198 0.0106
C1F 0.0468 0.0455 0.0383 -0.0006 -0.001 0.003
C2F 0.0492 0.0516 0.039 0.0008 -0.0104 0.0046
N1D 0.0408 0.049 0.0398 0.007 0.0091 -0.0018
C3D 0.0536 0.0505 0.0588 0.0126 0.0166 0.0029
C4D 0.0632 0.0521 0.068 0.023 0.0177 0.0013
C5D 0.0575 0.0602 0.0545 0.0083 0.0135 -0.0089
C6D 0.0381 0.094 0.068 0.0135 0.0136 0.0055
C7D 0.0444 0.07 0.0575 0.0205 0.0102 0.006
C8D 0.0566 0.069 0.073 0.0219 0.0116 0.0027
Zn1D 0.0361 0.0372 0.0298 0 0.0045 0
Zn1F 0.0361 0.0372 0.0298 0 0.0045 0
O1A 0.0597 0.0475 0.0389 0.0026 -0.0097 -0.0003
N1A 0.0408 0.049 0.0398 -0.007 0.0091 0.0018
loop_
_geom_bond_atom_site_label_1
_geom_bond_atom_site_label_2
_geom_bond_site_symmetry_1
_geom_bond_site_symmetry_2
Zn1 O1 1_555 1_555
O1 C1 1_555 1_555
O2 C1 1_555 1_555
N1 Zn1 1_555 1_555
C1 C2 1_555 1_555
C2 H1 1_555 1_555
C3 N1 1_555 1_555
H2 C3 1_555 1_555
C4 C3 1_555 1_555
H3 C4 1_555 1_555
C5 C4 1_555 1_555
C6 C5 1_555 1_555
H4 C6 1_555 1_555
C7 N1 1_555 1_555
H5 C7 1_555 1_555
C8 C5 1_555 1_555
H6 C8 1_555 1_555
O1F C1F 1_555 1_555
O2F C1F 1_555 1_555
C1F C2F 1_555 1_555
C2F C2 1_555 1_555
H1F C2F 1_555 1_555
N1D C3D 1_555 1_555
C3D H2D 1_555 1_555
C4D C3D 1_555 1_555
H3D C4D 1_555 1_555
C5D C4D 1_555 1_555
C6D C5D 1_555 1_555
H4D C6D 1_555 1_555
C7D N1D 1_555 1_555
H5D C7D 1_555 1_555
C8D C8 1_555 1_555
H6D C8D 1_555 1_555
Zn1D N1D 1_555 1_555
Zn1F O1F 1_555 1_555
O1A Zn1 1_555 1_555
N1A Zn1 1_555 1_555
C6 C7 1_555 1_555
C5D C8D 1_555 1_555
C6D C7D 1_555 1_555

#END
