
#######################################################################
#
#                 Cambridge Crystallographic Data Centre
#                                CCDC 
#
#######################################################################
#
# If this CIF has been generated from an entry in the Cambridge 
# Structural Database, then it will include bibliographic, chemical, 
# crystal, experimental, refinement or atomic coordinate data resulting 
# from the CCDC's data processing and validation procedures.
#
#######################################################################

data_EBOCOQ
_chemical_formula_moiety         '(C18 H14 I2 N2 O4 Zn1)n'
_symmetry_cell_setting           orthorhombic
_symmetry_space_group_name_H-M   'P n n a'
_symmetry_Int_Tables_number      52
_space_group_name_Hall           '-P 2a 2bc'
loop_
_symmetry_equiv_pos_site_id
_symmetry_equiv_pos_as_xyz
1 x,y,z
2 1/2-x,-y,z
3 1/2-x,1/2+y,1/2-z
4 x,1/2-y,1/2-z
5 -x,-y,-z
6 1/2+x,y,-z
7 1/2+x,1/2-y,1/2+z
8 -x,1/2+y,1/2+z
_cell_length_a                   12.471(3)
_cell_length_b                   13.306(3)
_cell_length_c                   15.711(3)
_cell_angle_alpha                90
_cell_angle_beta                 90
_cell_angle_gamma                90
_cell_volume                     2607.07
loop_
_atom_site_label
_atom_site_type_symbol
_atom_site_fract_x
_atom_site_fract_y
_atom_site_fract_z
C1 C 0.9678(11) 0.3197(8) 0.1291(6)
C2 C 1.0107(9) 0.3821(8) 0.0582(6)
H1 H 1.0674 0.3554 0.0272
C3 C 0.9760(9) 0.4718(7) 0.0353(5)
H2 H 0.9190 0.5003 0.0649
C4 C 0.7260(9) 0.3134(6) 0.4072(5)
H3 H 0.7674 0.2654 0.4349
C5 C 0.6529(9) 0.3686(7) 0.4536(5)
H4 H 0.6445 0.3569 0.5116
C6 C 0.5926(8) 0.4411(6) 0.4138(6)
C7 C 0.6048(8) 0.4558(7) 0.3294(6)
H5 H 0.5645 0.5043 0.3012
C8 C 0.6756(9) 0.3997(7) 0.2872(6)
H6 H 0.6820 0.4112 0.2290
C9 C 0.5137(10) 0.5055(7) 0.4613(5)
H7 H 0.4822 0.5581 0.4314
N1 N 0.7391(6) 0.3273(5) 0.3214(4)
O1 O 0.8924(7) 0.3631(5) 0.1733(4)
O2 O 0.9919(7) 0.2324(4) 0.1405(4)
Zn1 Zn 0.85009(12) 0.2500 0.2500
C1D C 1.0322(11) 0.6803(8) -0.1291(6)
C2D C 0.9893(9) 0.6179(8) -0.0582(6)
H1D H 0.9326 0.6446 -0.0272
C3D C 1.0240(9) 0.5282(7) -0.0353(5)
H2D H 1.0810 0.4997 -0.0649
O1D O 1.1076(7) 0.6369(5) -0.1733(4)
O2D O 1.0081(7) 0.7676(4) -0.1405(4)
C4D C 0.2740(9) 0.6866(6) 0.5928(5)
H3D H 0.2326 0.7346 0.5651
C5D C 0.3471(9) 0.6314(7) 0.5464(5)
H4D H 0.3555 0.6431 0.4884
C6D C 0.4074(8) 0.5589(6) 0.5862(6)
C7D C 0.3952(8) 0.5442(7) 0.6706(6)
H5D H 0.4355 0.4957 0.6988
C8D C 0.3244(9) 0.6003(7) 0.7128(6)
H6D H 0.3180 0.5888 0.7710
C9D C 0.4863(10) 0.4945(7) 0.5387(5)
H7D H 0.5178 0.4419 0.5686
N1D N 0.2609(6) 0.6727(5) 0.6786(4)
N1C N 0.7391(6) 0.1727(5) 0.1786(4)
O1C O 0.8924(7) 0.1369(5) 0.3267(4)
O2C O 0.9919(7) 0.2676(4) 0.3595(4)
Zn1D Zn 0.14991(12) 0.7500 0.7500
Zn1D_2 Zn 1.14991(12) 0.7500 -0.2500
I1 I 0.887(4) 0.278(4) 0.852(3)
I1C I 0.887(4) 0.222(4) 0.648(3)
loop_
_geom_bond_atom_site_label_1
_geom_bond_atom_site_label_2
_geom_bond_site_symmetry_1
_geom_bond_site_symmetry_2
C1 C2 1_555 1_555
C2 H1 1_555 1_555
C3 C2 1_555 1_555
H2 C3 1_555 1_555
C4 H3 1_555 1_555
C5 C4 1_555 1_555
H4 C5 1_555 1_555
C6 C5 1_555 1_555
C7 C6 1_555 1_555
H5 C7 1_555 1_555
C8 C7 1_555 1_555
H6 C8 1_555 1_555
C9 C6 1_555 1_555
H7 C9 1_555 1_555
N1 C4 1_555 1_555
O1 C1 1_555 1_555
O2 C1 1_555 1_555
Zn1 N1 1_555 1_555
I1 I1C 1_555 1_555
C1D C2D 1_555 1_555
C2D H1D 1_555 1_555
C3D C3 1_555 1_555
H2D C3D 1_555 1_555
O1D C1D 1_555 1_555
O2D C1D 1_555 1_555
C4D H3D 1_555 1_555
C5D C4D 1_555 1_555
H4D C5D 1_555 1_555
C6D C5D 1_555 1_555
C7D C6D 1_555 1_555
H5D C7D 1_555 1_555
C8D C7D 1_555 1_555
H6D C8D 1_555 1_555
C9D C9 1_555 1_555
H7D C9D 1_555 1_555
N1D C4D 1_555 1_555
N1C Zn1 1_555 1_555
O1C Zn1 1_555 1_555
O2C Zn1 1_555 1_555
Zn1D N1D 1_555 1_555
Zn1D_2 O1D 1_555 1_555
C8 N1 1_555 1_555
O1 Zn1 1_555 1_555
O2 Zn1 1_555 1_555
C2D C3D 1_555 1_555
O2D Zn1D_2 1_555 1_555
C6D C9D 1_555 1_555
C8D N1D 1_555 1_555

#END
