
#######################################################################
#
#                 Cambridge Crystallographic Data Centre
#                                CCDC 
#
#######################################################################
#
# If this CIF has been generated from an entry in the Cambridge 
# Structural Database, then it will include bibliographic, chemical, 
# crystal, experimental, refinement or atomic coordinate data resulting 
# from the CCDC's data processing and validation procedures.
#
#######################################################################

data_IRAJER
_chemical_formula_moiety         '(C2 H3 Ga4 O25 P5 2-)n'
_symmetry_cell_setting           monoclinic
_symmetry_space_group_name_H-M   'C 2/c'
_symmetry_Int_Tables_number      15
_space_group_name_Hall           '-C 2yc'
loop_
_symmetry_equiv_pos_site_id
_symmetry_equiv_pos_as_xyz
1 x,y,z
2 -x,y,1/2-z
3 1/2+x,1/2+y,z
4 1/2-x,1/2+y,1/2-z
5 -x,-y,-z
6 x,-y,1/2+z
7 1/2-x,1/2-y,-z
8 1/2+x,1/2-y,1/2+z
_cell_length_a                   20.355(2)
_cell_length_b                   15.6488(15)
_cell_length_c                   9.0517(9)
_cell_angle_alpha                90
_cell_angle_beta                 105.781(2)
_cell_angle_gamma                90
_cell_volume                     2774.58
loop_
_atom_site_label
_atom_site_type_symbol
_atom_site_fract_x
_atom_site_fract_y
_atom_site_fract_z
Ga1 Ga 0.33968(2) 0.36254(3) 0.16782(5)
Ga2 Ga 0.24750(3) 0.11722(3) 0.43387(6)
P1 P 0.29287(5) 0.51985(7) 0.36591(11)
P2 P 0.35614(6) 0.26263(7) 0.49504(13)
P3 P 0.5000 0.30519(12) 0.2500
O2 O 0.33270(17) 0.4634(2) 0.2851(4)
O3 O 0.43762(16) 0.3609(2) 0.2297(4)
O4 O 0.34313(16) 0.5688(2) 0.4925(4)
O5 O 0.33189(18) 0.2838(2) 0.3272(4)
O6 O 0.23646(16) 0.3461(2) 0.0848(4)
O7 O 0.16208(16) 0.2474(2) -0.0379(4)
O8 O 0.3224(2) 0.1788(2) 0.5251(4)
O9 O 0.24672(18) 0.5827(2) 0.2523(4)
O10 O 0.24184(17) 0.4694(2) 0.4302(4)
O11 O 0.33512(19) 0.3323(3) 0.5930(4)
O12 O 0.43244(19) 0.2518(3) 0.5549(5)
O13 O 0.4930(3) 0.2465(4) 0.1119(9)
C1 C 0.2206(2) 0.2766(3) 0.0137(5)
Ga1E Ga 0.33968(2) 0.63746(3) -0.33218(5)
Ga1E_2 Ga 0.33968(2) 0.63746(3) 0.66782(5)
Ga1F Ga 0.16032(2) 0.13746(3) -0.16782(5)
Ga1A Ga 0.66032(2) 0.36254(3) 0.33218(5)
Ga1F_2 Ga 0.16032(2) 0.13746(3) 0.83218(5)
Ga2C Ga 0.25250(3) 0.61722(3) 0.06613(6)
Ga2F Ga 0.25250(3) 0.38278(3) 0.56613(6)
Ga2F_2 Ga 0.25250(3) 0.38278(3) -0.43387(6)
P1E P 0.29287(5) 0.48015(7) -0.13409(11)
P2F P 0.14386(6) 0.23737(7) 0.50496(13)
O2E O 0.33270(17) 0.5366(2) -0.2149(4)
O3A O 0.56238(16) 0.3609(2) 0.2703(4)
O3E O 0.43762(16) 0.6391(2) -0.2703(4)
O4E O 0.34313(16) 0.4312(2) -0.0075(4)
O4_2 O 0.34313(16) 0.5688(2) -0.5075(4)
O5F O 0.16811(18) 0.2162(2) 0.6728(4)
O5E O 0.33189(18) 0.7162(2) -0.1728(4)
O6F O 0.26354(16) 0.1539(2) -0.0848(4)
O6E O 0.23646(16) 0.6539(2) -0.4152(4)
O7F O 0.33792(16) 0.2526(2) 0.0379(4)
O7C O 0.33792(16) 0.7474(2) -0.4621(4)
O8F O 0.1776(2) 0.3212(2) 0.4749(4)
O8C O 0.1776(2) 0.6788(2) -0.0251(4)
O9E O 0.24672(18) 0.4173(2) -0.2477(4)
O9C O 0.25328(18) 0.0827(2) 0.2477(4)
O10E O 0.24184(17) 0.5306(2) -0.0698(4)
O10F O 0.25816(17) 0.0306(2) 0.5698(4)
O11F O 0.16488(19) 0.1677(3) 0.4070(4)
O11E O 0.33512(19) 0.6677(3) 0.0930(4)
O12F O 0.06756(19) 0.2482(3) 0.4451(5)
O13A O 0.5070(3) 0.2465(4) 0.3881(9)
C1F C 0.2794(2) 0.2234(3) -0.0137(5)
O1 O 0.5975(8) 0.0767(11) 0.305(3)
loop_
_geom_bond_atom_site_label_1
_geom_bond_atom_site_label_2
_geom_bond_site_symmetry_1
_geom_bond_site_symmetry_2
Ga1 O2 1_555 1_555
Ga2 O8 1_555 1_555
P1 O2 1_555 1_555
P2 O5 1_555 1_555
P3 O3 1_555 1_555
O3 Ga1 1_555 1_555
O4 P1 1_555 1_555
O5 Ga1 1_555 1_555
O6 Ga1 1_555 1_555
O7 C1 1_555 1_555
O8 P2 1_555 1_555
O9 P1 1_555 1_555
O10 P1 1_555 1_555
O11 P2 1_555 1_555
O12 P2 1_555 1_555
O13 P3 1_555 1_555
C1 O6 1_555 1_555
Ga1E O2E 1_555 1_555
Ga1E_2 O4 1_555 1_555
Ga1F O7 1_555 1_555
Ga1A O3A 1_555 1_555
Ga1F_2 O5F 1_555 1_555
Ga2C O9 1_555 1_555
Ga2F O10 1_555 1_555
Ga2F_2 O9E 1_555 1_555
P1E O2E 1_555 1_555
P2F O5F 1_555 1_555
O3A P3 1_555 1_555
O3E Ga1E 1_555 1_555
O4E Ga1 1_555 1_555
O4_2 Ga1E 1_555 1_555
O5E Ga1E 1_555 1_555
O6F Ga1F 1_555 1_555
O6E Ga1E 1_555 1_555
O7F Ga1 1_555 1_555
O7C Ga1E 1_555 1_555
O8F Ga2F 1_555 1_555
O8C Ga2C 1_555 1_555
O9E P1E 1_555 1_555
O9C Ga2 1_555 1_555
O10E Ga2C 1_555 1_555
O10F Ga2 1_555 1_555
O11F Ga2 1_555 1_555
O11E Ga2C 1_555 1_555
O12F P2F 1_555 1_555
O13A P3 1_555 1_555
C1F C1 1_555 1_555
O11 Ga2F 1_555 1_555
P1E O4E 1_555 1_555
P1E O10E 1_555 1_555
P2F O8F 1_555 1_555
P2F O11F 1_555 1_555
O6F C1F 1_555 1_555
O7F C1F 1_555 1_555

#END
