
#######################################################################
#
#                 Cambridge Crystallographic Data Centre
#                                CCDC 
#
#######################################################################
#
# If this CIF has been generated from an entry in the Cambridge 
# Structural Database, then it will include bibliographic, chemical, 
# crystal, experimental, refinement or atomic coordinate data resulting 
# from the CCDC's data processing and validation procedures.
#
#######################################################################

data_IRAJAN
_chemical_formula_moiety         'H4 F2 Ga8 O21 P4'
_symmetry_cell_setting           monoclinic
_symmetry_space_group_name_H-M   'P 21/n'
_symmetry_Int_Tables_number      14
_space_group_name_Hall           '-P 2yn'
loop_
_symmetry_equiv_pos_site_id
_symmetry_equiv_pos_as_xyz
1 x,y,z
2 1/2-x,1/2+y,1/2-z
3 -x,-y,-z
4 1/2+x,1/2-y,1/2+z
_cell_length_a                   8.6503(15)
_cell_length_b                   10.1871(18)
_cell_length_c                   16.921(3)
_cell_angle_alpha                90
_cell_angle_beta                 94.688(3)
_cell_angle_gamma                90
_cell_volume                     1486.11
loop_
_atom_site_label
_atom_site_type_symbol
_atom_site_fract_x
_atom_site_fract_y
_atom_site_fract_z
O2 O 0.5000 1.0000 0.5000
Ga1 Ga 0.23211(7) 0.82679(6) 0.79826(4)
Ga2 Ga 0.08362(7) 0.85117(6) 0.59704(4)
Ga3 Ga 0.57616(7) 0.65885(6) 0.76886(4)
P1 P -0.12372(17) 0.85223(15) 0.74123(9)
P2 P 0.22196(17) 1.12408(15) 0.83632(9)
P3 P 0.40509(17) 0.64238(15) 0.92795(9)
O3 O 0.2698(5) 0.9838(4) 0.8593(2)
O4 O 0.2673(5) 0.7214(4) 0.8921(2)
O5 O 0.0102(5) 0.8335(4) 0.8053(3)
O6 O 0.2046(5) 0.6651(4) 0.7378(2)
F1 F 0.2038(4) 0.9187(3) 0.6964(2)
F2 F 0.4528(4) 0.8271(3) 0.7798(2)
O7 O -0.0802(5) 0.8157(4) 0.6582(2)
O8 O 0.3480(5) 0.5036(4) 0.9491(2)
O9 O 0.2761(5) 1.2127(4) 0.9075(2)
O10 O 0.4694(5) 0.7117(4) 1.0036(3)
O11 O -0.2511(5) 0.7582(4) 0.7617(3)
O12 O 0.5344(5) 0.6243(4) 0.8720(3)
O13 O 0.0433(5) 1.1352(4) 0.8258(2)
O14 O -0.1873(5) 0.9937(4) 0.7399(3)
Ga2A Ga 0.41638(7) 0.35117(6) 0.90296(4)
Ga2A_2 Ga 0.41638(7) 1.35117(6) 0.90296(4)
Ga2C Ga 0.58362(7) 0.64883(6) 1.09704(4)
Ga3_2 Ga -0.42384(7) 0.65885(6) 0.76886(4)
Ga3A Ga -0.07616(7) 1.15885(6) 0.73114(4)
P2A P 0.27804(17) 0.62408(15) 0.66368(9)
O6A O 0.2954(5) 1.1651(4) 0.7622(2)
O8A O 0.1520(5) 1.0036(4) 0.5509(2)
O9A O 0.2239(5) 0.7127(4) 0.5925(2)
O10C O -0.0306(5) 0.7883(4) 0.5036(3)
O11_2 O 0.7489(5) 0.7582(4) 0.7617(3)
O13A O 0.4567(5) 0.6352(4) 0.6742(2)
O14A O 0.6873(5) 0.4937(4) 0.7601(3)
O1 O 0.5006(8) 1.0265(8) 0.6501(4)
loop_
_geom_bond_atom_site_label_1
_geom_bond_atom_site_label_2
_geom_bond_site_symmetry_1
_geom_bond_site_symmetry_2
Ga1 O3 1_555 1_555
Ga2 F1 1_555 1_555
Ga3 F2 1_555 1_555
P1 O5 1_555 1_555
P2 O3 1_555 1_555
P3 O4 1_555 1_555
O4 Ga1 1_555 1_555
O5 Ga1 1_555 1_555
O6 Ga1 1_555 1_555
F1 Ga1 1_555 1_555
F2 Ga1 1_555 1_555
O7 Ga2 1_555 1_555
O8 P3 1_555 1_555
O9 P2 1_555 1_555
O10 P3 1_555 1_555
O11 P1 1_555 1_555
O12 Ga3 1_555 1_555
O13 P2 1_555 1_555
O14 P1 1_555 1_555
Ga2A O8 1_555 1_555
Ga2A_2 O9 1_555 1_555
Ga2C O10 1_555 1_555
Ga3_2 O11 1_555 1_555
Ga3A O13 1_555 1_555
P2A O6 1_555 1_555
O6A P2 1_555 1_555
O8A Ga2 1_555 1_555
O9A Ga2 1_555 1_555
O10C Ga2 1_555 1_555
O11_2 Ga3 1_555 1_555
O13A Ga3 1_555 1_555
O14A Ga3 1_555 1_555
P1 O7 1_555 1_555
P3 O12 1_555 1_555
O14 Ga3A 1_555 1_555
P2A O9A 1_555 1_555
P2A O13A 1_555 1_555

#END
