
#######################################################################
#
#                 Cambridge Crystallographic Data Centre
#                                CCDC 
#
#######################################################################
#
# If this CIF has been generated from an entry in the Cambridge 
# Structural Database, then it will include bibliographic, chemical, 
# crystal, experimental, refinement or atomic coordinate data resulting 
# from the CCDC's data processing and validation procedures.
#
#######################################################################

data_IRAJIV
_chemical_formula_moiety         'H3 Ga3 O22 P5'
_symmetry_cell_setting           trigonal
_symmetry_space_group_name_H-M   'P -3 c 1'
_symmetry_Int_Tables_number      165
_space_group_name_Hall           '-P 3 2"c'
loop_
_symmetry_equiv_pos_site_id
_symmetry_equiv_pos_as_xyz
1 x,y,z
2 -y,x-y,z
3 y,x,1/2-z
4 -x+y,-x,z
5 -x,-x+y,1/2-z
6 x-y,-y,1/2-z
7 -x,-y,-z
8 y,-x+y,-z
9 -y,-x,1/2+z
10 x-y,x,-z
11 x,x-y,1/2+z
12 -x+y,y,1/2+z
_cell_length_a                   13.3422(3)
_cell_length_b                   13.3422(3)
_cell_length_c                   17.8687(6)
_cell_angle_alpha                90
_cell_angle_beta                 90
_cell_angle_gamma                120
_cell_volume                     2754.73
loop_
_atom_site_label
_atom_site_type_symbol
_atom_site_fract_x
_atom_site_fract_y
_atom_site_fract_z
_atom_site_U_iso_or_equiv
_atom_site_thermal_displace_type
Ga1 Ga 0.0000 0.0000 0.2500 0.0108 Uani
Ga2 Ga 0.0000 0.0000 0.5000 0.0097 Uani
Ga3 Ga -0.14042(8) -0.43263(6) 0.46033(4) 0.0164 Uani
P1 P -0.02544(18) -0.18658(13) 0.37109(8) 0.0117 Uani
H1 H 0.0367 -0.1939 0.3472 0.0140 Uiso
P2 P -0.12747(18) -0.63216(12) 0.55354(8) 0.0135 Uani
H2 H -0.1703 -0.6762 0.5978 0.0160 Uiso
P3 P -0.3333 -0.6667 0.3629(2) 0.0476 Uani
H3 H -0.3333 -0.6667 0.3081 0.0570 Uiso
O1 O -0.0745(6) -0.1402(4) 0.3111(2) 0.0156 Uani
O2 O 0.0285(6) -0.1066(4) 0.4387(2) 0.0156 Uani
O3 O -0.1697(6) -0.5481(4) 0.5361(3) 0.0217 Uani
O4 O -0.2802(6) -0.4326(4) 0.4917(3) 0.0229 Uani
O5 O 0.0005(6) -0.4274(4) 0.4264(3) 0.0210 Uani
O6 O -0.2251(7) -0.5494(6) 0.3826(3) 0.0269 Uani
O7 O -0.1189(6) -0.3079(4) 0.3923(2) 0.0221 Uani
O8 O -0.0562(6) -0.3128(4) 0.5432(2) 0.0197 Uani
P2A P -0.36784(12) -0.49531(22) 0.55354(8) 0.0135 Uani
P2F P 0.12747(18) -0.36784(12) 0.44646(8) 0.0135 Uani
O1A O 0.1402(4) 0.0657(7) 0.3111(2) 0.0156 Uani
O1B O -0.1402(4) -0.0745(6) 0.1889(2) 0.0156 Uani
O1C O -0.0657(7) 0.0745(6) 0.3111(2) 0.0156 Uani
O1D O 0.0745(6) -0.0657(7) 0.1889(2) 0.0156 Uani
O1E O 0.0657(7) 0.1402(4) 0.1889(2) 0.0156 Uani
O2A O 0.1066(4) 0.1351(7) 0.4387(2) 0.0156 Uani
O2C O -0.1351(7) -0.0285(6) 0.4387(2) 0.0156 Uani
O2F O -0.0285(6) 0.1066(4) 0.5613(2) 0.0156 Uani
O2G O -0.1066(4) -0.1351(7) 0.5613(2) 0.0156 Uani
O2I O 0.1351(7) 0.0285(6) 0.5613(2) 0.0156 Uani
O4C O -0.1524(7) -0.7198(6) 0.4917(3) 0.0229 Uani
O5F O -0.0005(6) -0.5726(4) 0.5736(3) 0.0210 Uani
O6A O -0.4506(6) -0.6757(9) 0.3826(3) 0.0269 Uani
O6C O -0.3243(9) -0.7749(7) 0.3826(3) 0.0269 Uani
loop_
_atom_site_aniso_label
_atom_site_aniso_U_11
_atom_site_aniso_U_22
_atom_site_aniso_U_33
_atom_site_aniso_U_23
_atom_site_aniso_U_13
_atom_site_aniso_U_12
Ga1 0.0123(5) 0.0123(5) 0.0080(7) 0.000 0.000 0.0062(2)
Ga2 0.0098 0.0098 0.0095 0 0 0.0049
Ga3 0.0136 0.0151 0.0229 0.0045 0.0032 0.0089
P1 0.0131 0.0113 0.011 -0.0013 -0.0008 0.0063
P2 0.0113 0.0111 0.0187 0.0023 0.0015 0.0061
P3 0.0463 0.0463 0.05 0 0 0.0231
O1 0.016 0.015 0.0116 0.0008 -0.0024 0.0045
O2 0.0188 0.015 0.0136 -0.0002 0.0004 0.0089
O3 0.022 0.018 0.033 0.0066 0.006 0.016
O4 0.0192 0.021 0.034 0.0073 0.0073 0.0141
O5 0.013 0.0256 0.026 -0.0072 -0.001 0.0108
O6 0.024 0.023 0.03 -0.005 -0.005 0.009
O7 0.0256 0.015 0.024 0.0043 -0.0055 0.0088
O8 0.0188 0.018 0.026 0.0024 0.0038 0.0119
P2A 0.0111 0.0102 0.0187 -0.0008 -0.0023 0.005
P2F 0.0113 0.0111 0.0187 0.0023 0.0015 0.0061
O1A 0.015 0.022 0.0116 -0.0032 -0.0008 0.0105
O1B 0.015 0.016 0.0116 0.0024 -0.0008 0.0045
O1C 0.022 0.016 0.0116 0.0024 0.0032 0.0115
O1D 0.016 0.022 0.0116 -0.0032 -0.0024 0.0115
O1E 0.022(2) 0.015(2) 0.0116(19) 0.0008(16) 0.0032(16) 0.0105(18)
O2A 0.015 0.016 0.0136 0.0006 0.0002 0.0061
O2C 0.016 0.0188 0.0136 -0.0004 -0.0006 0.0099
O2F 0.0188 0.015 0.0136 -0.0002 0.0004 0.0089
O2G 0.015 0.016 0.0136 0.0006 0.0002 0.0061
O2I 0.016 0.0188 0.0136 -0.0004 -0.0006 0.0099
O4C 0.012 0.0192 0.034 -0.0073 0 0.0051
O5F 0.013 0.0256 0.026 -0.0072 -0.001 0.0108
O6A 0.023 0.029 0.03 0 0.005 0.014
O6C 0.029 0.024 0.03 0.005 0 0.015
loop_
_geom_bond_atom_site_label_1
_geom_bond_atom_site_label_2
_geom_bond_site_symmetry_1
_geom_bond_site_symmetry_2
Ga1 O1 1_555 1_555
Ga2 O2 1_555 1_555
Ga3 O3 1_555 1_555
P1 H1 1_555 1_555
P2 H2 1_555 1_555
P3 H3 1_555 1_555
O1 P1 1_555 1_555
O2 P1 1_555 1_555
O3 P2 1_555 1_555
O4 Ga3 1_555 1_555
O5 Ga3 1_555 1_555
O6 Ga3 1_555 1_555
O7 Ga3 1_555 1_555
O8 Ga3 1_555 1_555
P2A O4 1_555 1_555
P2F O5 1_555 1_555
O1A Ga1 1_555 1_555
O1B Ga1 1_555 1_555
O1C Ga1 1_555 1_555
O1D Ga1 1_555 1_555
O1E Ga1 1_555 1_555
O2A Ga2 1_555 1_555
O2C Ga2 1_555 1_555
O2F Ga2 1_555 1_555
O2G Ga2 1_555 1_555
O2I Ga2 1_555 1_555
O4C P2 1_555 1_555
O5F P2 1_555 1_555
O6A P3 1_555 1_555
O6C P3 1_555 1_555
P1 O7 1_555 1_555
P3 O6 1_555 1_555

#END
