
#######################################################################
#
#                 Cambridge Crystallographic Data Centre
#                                CCDC 
#
#######################################################################
#
# If this CIF has been generated from an entry in the Cambridge 
# Structural Database, then it will include bibliographic, chemical, 
# crystal, experimental, refinement or atomic coordinate data resulting 
# from the CCDC's data processing and validation procedures.
#
#######################################################################

data_OTALUS
_chemical_formula_moiety         '(C68 H84 F1 N4 O18 P4 Zn4 1-)n'
_symmetry_cell_setting           tetragonal
_symmetry_space_group_name_H-M   'I -4 2 d'
_symmetry_Int_Tables_number      122
_space_group_name_Hall           'I -4 2bw'
loop_
_symmetry_equiv_pos_site_id
_symmetry_equiv_pos_as_xyz
1 x,y,z
2 y,-x,-z
3 -x,-y,z
4 -y,x,-z
5 1/2-x,y,3/4-z
6 1/2-y,-x,3/4+z
7 1/2+x,-y,3/4-z
8 1/2+y,x,3/4+z
9 1/2+x,1/2+y,1/2+z
10 1/2+y,1/2-x,1/2-z
11 1/2-x,1/2-y,1/2+z
12 1/2-y,1/2+x,1/2-z
13 -x,1/2+y,1/4-z
14 -y,1/2-x,1/4+z
15 x,1/2-y,1/4-z
16 y,1/2+x,1/4+z
_cell_length_a                   27.581(5)
_cell_length_b                   27.581(5)
_cell_length_c                   43.468(8)
_cell_angle_alpha                90
_cell_angle_beta                 90
_cell_angle_gamma                90
_cell_volume                     33066.6
loop_
_atom_site_label
_atom_site_type_symbol
_atom_site_fract_x
_atom_site_fract_y
_atom_site_fract_z
_atom_site_U_iso_or_equiv
_atom_site_thermal_displace_type
C1 C 0.2214(3) 0.2397(3) 0.27654(18) 0.1333 Uani
C2 C 0.2002(4) 0.2589(4) 0.25041(17) 0.1657 Uani
C3 C 0.1615(4) 0.2354(4) 0.2367(2) 0.2047 Uani
H1 H 0.1469 0.2486 0.2188 0.2450 Uiso
C4 C 0.1440(4) 0.1926(5) 0.2491(3) 0.2423 Uani
H2 H 0.1175 0.1764 0.2397 0.2910 Uiso
C5 C 0.1653(4) 0.1733(4) 0.2752(3) 0.1813 Uani
H3 H 0.1533 0.1440 0.2837 0.2180 Uiso
C6 C 0.2040(4) 0.1969(3) 0.2890(2) 0.1650 Uani
C7 C 0.2273(6) 0.1681(4) 0.3175(4) 0.1793 Uani
H4 H 0.2562 0.1883 0.3229 0.2160 Uiso
C8 C 0.2046(17) 0.1566(9) 0.3492(7) 0.4287 Uani
H5 H 0.2288 0.1404 0.3622 0.6390 Uiso
H6 H 0.1766 0.1352 0.3464 0.6390 Uiso
H7 H 0.1942 0.1868 0.3590 0.6390 Uiso
C9 C 0.2499(11) 0.1236(4) 0.3020(6) 0.2670 Uani
H8 H 0.2682 0.1049 0.3173 0.4050 Uiso
H9 H 0.2718 0.1342 0.2855 0.4050 Uiso
H10 H 0.2242 0.1033 0.2933 0.4050 Uiso
C10 C 0.2210(6) 0.3049(7) 0.2368(3) 0.2157 Uani
H11 H 0.2543 0.3131 0.2443 0.2590 Uiso
C11 C 0.1840(10) 0.3439(10) 0.2423(6) 0.4067 Uani
H12 H 0.1778 0.3468 0.2644 0.6140 Uiso
H13 H 0.1538 0.3355 0.2317 0.6140 Uiso
H14 H 0.1962 0.3748 0.2344 0.6140 Uiso
C12 C 0.2175(10) 0.2992(11) 0.2017(4) 0.3390 Uani
H15 H 0.2412 0.2751 0.1947 0.5060 Uiso
H16 H 0.2242 0.3304 0.1918 0.5060 Uiso
H17 H 0.1848 0.2884 0.1962 0.5060 Uiso
C13 C 0.3857(2) 0.49377(17) 0.40065(12) 0.0937 Uani
C14 C 0.3718(3) 0.5374(2) 0.38898(15) 0.1540 Uani
C15 C 0.3724(4) 0.5775(2) 0.40712(19) 0.1533 Uani
H18 H 0.3627 0.6079 0.3990 0.1840 Uiso
C16 C 0.3869(3) 0.5741(2) 0.43694(18) 0.1300 Uani
H19 H 0.3874 0.6021 0.4496 0.1560 Uiso
C17 C 0.4009(2) 0.5305(2) 0.44862(15) 0.1203 Uani
H20 H 0.4110 0.5281 0.4694 0.1450 Uiso
C18 C 0.4003(2) 0.49035(17) 0.43047(13) 0.0817 Uani
C19 C 0.4158(4) 0.4414(4) 0.4427(2) 0.1203 Uani
H21 H 0.4083 0.4154 0.4274 0.1440 Uiso
C20 C 0.3943(13) 0.4288(8) 0.4741(5) 0.3883 Uani
H22 H 0.3589 0.4285 0.4726 0.5860 Uiso
H23 H 0.4045 0.4531 0.4892 0.5860 Uiso
H24 H 0.4059 0.3967 0.4805 0.5860 Uiso
C21 C 0.4670(5) 0.4363(7) 0.4542(6) 0.2517 Uani
H25 H 0.4723 0.4030 0.4612 0.3780 Uiso
H26 H 0.4723 0.4588 0.4713 0.3780 Uiso
H27 H 0.4897 0.4438 0.4375 0.3780 Uiso
C22 C 0.4316(4) 0.2209(3) 0.4125(2) 0.1110 Uani
H28 H 0.4324 0.1963 0.3973 0.1330 Uiso
C23 C 0.4610(4) 0.2169(4) 0.4377(2) 0.1220 Uani
H29 H 0.4836 0.1910 0.4394 0.1460 Uiso
C24 C 0.4571(3) 0.2524(3) 0.46139(16) 0.0940 Uani
C25 C 0.4890(3) 0.2477(3) 0.48963(17) 0.0907 Uani
C26 C 0.4251(3) 0.2887(3) 0.45782(19) 0.1097 Uani
H30 H 0.4213 0.3122 0.4736 0.1320 Uiso
C27 C 0.3977(3) 0.2916(3) 0.4312(2) 0.1120 Uani
H31 H 0.3755 0.3177 0.4286 0.1340 Uiso
C28 C 0.5064(2) 0.2686(3) 0.54157(17) 0.0903 Uani
H32 H 0.4970 0.2855 0.5597 0.1080 Uiso
C29 C 0.4757(3) 0.2685(3) 0.5167(2) 0.0993 Uani
H33 H 0.4447 0.2833 0.5184 0.1190 Uiso
C30 C 0.5317(4) 0.2234(4) 0.4888(2) 0.1293 Uani
H34 H 0.5414 0.2064 0.4708 0.1550 Uiso
C31 C 0.5616(3) 0.2237(4) 0.51506(17) 0.1117 Uani
H35 H 0.5920 0.2076 0.5142 0.1340 Uiso
F1 F 0.2500 0.35635(14) 0.3750 0.0136 Uani
N1 N 0.4022(3) 0.2584(2) 0.40904(16) 0.0933 Uani
N2 N 0.5486(2) 0.2459(3) 0.54115(12) 0.0913 Uani
O1 O 0.3850(2) 0.4533(2) 0.38200(14) 0.1090 Uani
O2 O 0.35572(19) 0.36703(17) 0.38072(13) 0.0933 Uani
O3 O 0.3163(2) 0.4293(2) 0.34766(13) 0.1010 Uani
O4 O 0.3047(2) 0.4327(2) 0.40489(12) 0.0943 Uani
O5 O 0.2629(3) 0.2601(2) 0.28883(14) 0.1207 Uani
O6 O 0.3013(2) 0.28113(18) 0.33846(12) 0.0993 Uani
O7 O 0.2632(3) 0.34626(18) 0.30674(10) 0.1053 Uani
O8 O 0.2105(2) 0.2850(2) 0.33312(15) 0.1167 Uani
O9 O 0.3764(2) 0.2635(2) 0.38316(13) 0.1043 Uani
P1 P 0.33592(8) 0.41791(7) 0.37871(4) 0.0842 Uani
P2 P 0.25889(9) 0.29618(7) 0.31924(4) 0.0901 Uani
Zn1 Zn 0.31648(3) 0.30863(3) 0.378068(18) 0.0811 Uani
Zn2 Zn 0.25624(3) 0.40563(3) 0.330495(16) 0.0813 Uani
C32 C 0.3565(10) 0.5428(6) 0.3555(4) 0.3033 Uani
H36 H 0.3591 0.5107 0.3450 0.3620 Uiso
C33 C 0.3031(11) 0.5588(9) 0.3560(6) 0.4200 Uani
H37 H 0.2915 0.5628 0.3348 0.6320 Uiso
H38 H 0.3002 0.5897 0.3669 0.6320 Uiso
H39 H 0.2836 0.5341 0.3664 0.6320 Uiso
C34 C 0.3931(17) 0.5791(13) 0.3404(7) 0.4967 Uani
H40 H 0.4262 0.5668 0.3430 0.7460 Uiso
H41 H 0.3903 0.6108 0.3505 0.7460 Uiso
H42 H 0.3857 0.5824 0.3185 0.7460 Uiso
C1D C 0.2786(3) 0.2397(3) 0.47346(18) 0.1333 Uani
C2D C 0.2998(4) 0.2589(4) 0.49959(17) 0.1657 Uani
C3D C 0.3385(4) 0.2354(4) 0.5133(2) 0.2047 Uani
H1D H 0.3531 0.2486 0.5312 0.2450 Uiso
C4D C 0.3560(4) 0.1926(5) 0.5009(3) 0.2423 Uani
H2D H 0.3825 0.1764 0.5103 0.2910 Uiso
C5D C 0.3347(4) 0.1733(4) 0.4748(3) 0.1813 Uani
H3D H 0.3467 0.1440 0.4663 0.2180 Uiso
C6D C 0.2960(4) 0.1969(3) 0.4610(2) 0.1650 Uani
C7D C 0.2727(6) 0.1681(4) 0.4325(4) 0.1793 Uani
H4D H 0.2438 0.1883 0.4271 0.2160 Uiso
C8D C 0.2954(17) 0.1566(9) 0.4008(7) 0.4287 Uani
H5D H 0.2712 0.1404 0.3878 0.6390 Uiso
H6D H 0.3234 0.1352 0.4036 0.6390 Uiso
H7D H 0.3058 0.1868 0.3910 0.6390 Uiso
C9D C 0.2501(11) 0.1236(4) 0.4480(6) 0.2670 Uani
H8D H 0.2318 0.1049 0.4327 0.4050 Uiso
H9D H 0.2282 0.1342 0.4645 0.4050 Uiso
H10D H 0.2758 0.1033 0.4567 0.4050 Uiso
C10D C 0.2790(6) 0.3049(7) 0.5132(3) 0.2157 Uani
H11D H 0.2457 0.3131 0.5057 0.2590 Uiso
C11D C 0.3160(10) 0.3439(10) 0.5077(6) 0.4067 Uani
H12D H 0.3222 0.3468 0.4856 0.6140 Uiso
H13D H 0.3462 0.3355 0.5183 0.6140 Uiso
H14D H 0.3038 0.3748 0.5156 0.6140 Uiso
C12D C 0.2825(10) 0.2992(11) 0.5483(4) 0.3390 Uani
H15D H 0.2588 0.2751 0.5553 0.5060 Uiso
H16D H 0.2758 0.3304 0.5582 0.5060 Uiso
H17D H 0.3152 0.2884 0.5538 0.5060 Uiso
C13D C 0.1143(2) 0.49377(17) 0.34935(12) 0.0937 Uani
C14D C 0.1282(3) 0.5374(2) 0.36102(15) 0.1540 Uani
C15D C 0.1276(4) 0.5775(2) 0.34288(19) 0.1533 Uani
H18D H 0.1373 0.6079 0.3510 0.1840 Uiso
C16D C 0.1131(3) 0.5741(2) 0.31306(18) 0.1300 Uani
H19D H 0.1126 0.6021 0.3004 0.1560 Uiso
C17D C 0.0991(2) 0.5305(2) 0.30138(15) 0.1203 Uani
H20D H 0.0890 0.5281 0.2806 0.1450 Uiso
C18D C 0.0997(2) 0.49035(17) 0.31953(13) 0.0817 Uani
C19D C 0.0842(4) 0.4414(4) 0.3073(2) 0.1203 Uani
H21D H 0.0917 0.4154 0.3226 0.1440 Uiso
C20D C 0.1057(13) 0.4288(8) 0.2759(5) 0.3883 Uani
H22D H 0.1411 0.4285 0.2774 0.5860 Uiso
H23D H 0.0955 0.4531 0.2608 0.5860 Uiso
H24D H 0.0941 0.3967 0.2695 0.5860 Uiso
C21D C 0.0330(5) 0.4363(7) 0.2958(6) 0.2517 Uani
H25D H 0.0277 0.4030 0.2888 0.3780 Uiso
H26D H 0.0277 0.4588 0.2787 0.3780 Uiso
H27D H 0.0103 0.4438 0.3125 0.3780 Uiso
C22D C 0.0684(4) 0.2209(3) 0.3375(2) 0.1110 Uani
H28D H 0.0676 0.1963 0.3527 0.1330 Uiso
C23D C 0.0390(4) 0.2169(4) 0.3123(2) 0.1220 Uani
H29D H 0.0164 0.1910 0.3106 0.1460 Uiso
C24D C 0.0429(3) 0.2524(3) 0.28861(16) 0.0940 Uani
C25D C 0.0110(3) 0.2477(3) 0.26037(17) 0.0907 Uani
C26D C 0.0749(3) 0.2887(3) 0.29218(19) 0.1097 Uani
H30D H 0.0787 0.3122 0.2764 0.1320 Uiso
C27D C 0.1023(3) 0.2916(3) 0.3188(2) 0.1120 Uani
H31D H 0.1245 0.3177 0.3214 0.1340 Uiso
C28D C -0.0064(2) 0.2686(3) 0.20843(17) 0.0903 Uani
H32D H 0.0030 0.2855 0.1903 0.1080 Uiso
C29D C 0.0243(3) 0.2685(3) 0.2333(2) 0.0993 Uani
H33D H 0.0553 0.2833 0.2316 0.1190 Uiso
C30D C -0.0317(4) 0.2234(4) 0.2612(2) 0.1293 Uani
H34D H -0.0414 0.2064 0.2792 0.1550 Uiso
C31D C -0.0616(3) 0.2237(4) 0.23494(17) 0.1117 Uani
H35D H -0.0920 0.2076 0.2358 0.1340 Uiso
N1D N 0.0978(3) 0.2584(2) 0.34096(16) 0.0933 Uani
N2D N -0.0486(2) 0.2459(3) 0.20885(12) 0.0913 Uani
O1D O 0.1150(2) 0.4533(2) 0.36800(14) 0.1090 Uani
O2D O 0.14428(19) 0.36703(17) 0.36928(13) 0.0933 Uani
O3D O 0.1837(2) 0.4293(2) 0.40234(13) 0.1010 Uani
O4D O 0.1953(2) 0.4327(2) 0.34511(12) 0.0943 Uani
O5D O 0.2371(3) 0.2601(2) 0.46117(14) 0.1207 Uani
O6D O 0.1987(2) 0.28113(18) 0.41154(12) 0.0993 Uani
O7D O 0.2368(3) 0.34626(18) 0.44326(10) 0.1053 Uani
O8D O 0.2895(2) 0.2850(2) 0.41688(15) 0.1167 Uani
O9D O 0.1236(2) 0.2635(2) 0.36684(13) 0.1043 Uani
P1D P 0.16408(8) 0.41791(7) 0.37129(4) 0.0842 Uani
P2D P 0.24111(9) 0.29618(7) 0.43076(4) 0.0901 Uani
Zn1D Zn 0.18352(3) 0.30863(3) 0.371932(18) 0.0811 Uani
Zn2D Zn 0.24376(3) 0.40563(3) 0.419505(16) 0.0813 Uani
C32D C 0.1435(10) 0.5428(6) 0.3945(4) 0.3033 Uani
H36D H 0.1409 0.5107 0.4050 0.3620 Uiso
C33D C 0.1969(11) 0.5588(9) 0.3940(6) 0.4200 Uani
H37D H 0.2085 0.5628 0.4152 0.6320 Uiso
H38D H 0.1998 0.5897 0.3831 0.6320 Uiso
H39D H 0.2164 0.5341 0.3836 0.6320 Uiso
C34D C 0.1069(17) 0.5791(13) 0.4096(7) 0.4967 Uani
H40D H 0.0738 0.5668 0.4070 0.7460 Uiso
H41D H 0.1097 0.6108 0.3995 0.7460 Uiso
H42D H 0.1143 0.5824 0.4315 0.7460 Uiso
N2A N 0.2459(3) 0.4514(2) 0.45885(12) 0.0913 Uani
N2E N 0.2541(3) 0.4514(2) 0.29115(12) 0.0913 Uani
Zn2I Zn -0.09437(3) 0.24376(3) 0.169505(16) 0.0813 Uani
Zn2M Zn 0.59437(3) 0.24376(3) 0.580495(16) 0.0813 Uani
loop_
_atom_site_aniso_label
_atom_site_aniso_U_11
_atom_site_aniso_U_22
_atom_site_aniso_U_33
_atom_site_aniso_U_23
_atom_site_aniso_U_13
_atom_site_aniso_U_12
C1 0.172(10) 0.123(8) 0.105(8) -0.050(6) -0.053(7) 0.010(8)
C2 0.196(13) 0.231(16) 0.070(6) -0.056(8) -0.037(8) 0.029(12)
C3 0.178(12) 0.32(2) 0.116(9) -0.096(12) -0.098(9) 0.048(14)
C4 0.157(14) 0.28(3) 0.29(3) -0.17(2) -0.090(16) 0.063(16)
C5 0.190(14) 0.185(14) 0.169(15) -0.062(12) -0.037(12) -0.005(12)
C6 0.159(10) 0.181(13) 0.155(12) -0.104(11) -0.060(9) 0.013(10)
C7 0.203(13) 0.091(6) 0.244(17) -0.055(9) -0.118(13) 0.009(7)
C8 0.70(9) 0.166(19) 0.42(5) 0.00(2) 0.31(5) -0.04(3)
C9 0.31(2) 0.081(7) 0.41(4) -0.059(13) -0.08(3) 0.032(13)
C10 0.213(16) 0.36(3) 0.074(7) -0.005(12) -0.067(9) 0.097(18)
C11 0.32(3) 0.33(4) 0.57(6) 0.20(4) -0.30(4) -0.05(3)
C12 0.40(4) 0.51(5) 0.107(12) 0.11(2) 0.040(18) 0.06(3)
C13 0.100(4) 0.073(4) 0.108(5) -0.020(4) -0.004(4) -0.050(4)
C14 0.240(14) 0.088(6) 0.134(9) 0.021(6) -0.064(9) -0.080(8)
C15 0.197(13) 0.106(8) 0.157(11) 0.025(7) -0.048(10) -0.034(8)
C16 0.170(10) 0.087(6) 0.133(9) -0.005(6) -0.032(8) -0.013(6)
C17 0.097(6) 0.155(9) 0.109(7) -0.010(6) -0.003(5) -0.064(6)
C18 0.089(4) 0.064(3) 0.092(5) -0.024(3) -0.016(4) -0.012(3)
C19 0.137(8) 0.116(7) 0.108(7) -0.022(6) -0.044(6) -0.040(6)
C20 0.71(7) 0.205(19) 0.25(2) 0.128(18) 0.03(3) 0.25(3)
C21 0.130(11) 0.175(14) 0.45(4) -0.02(2) -0.100(17) 0.038(10)
C22 0.149(8) 0.094(5) 0.090(6) -0.035(4) -0.026(5) 0.041(5)
C23 0.150(8) 0.124(7) 0.092(6) -0.009(5) -0.065(6) 0.056(6)
C24 0.122(5) 0.105(5) 0.055(4) -0.005(4) -0.033(4) 0.002(5)
C25 0.128(6) 0.072(4) 0.072(4) 0.003(3) -0.017(4) -0.017(4)
C26 0.123(6) 0.121(6) 0.085(5) -0.032(4) -0.062(5) 0.081(5)
C27 0.110(6) 0.088(5) 0.138(8) -0.033(5) -0.046(6) 0.034(5)
C28 0.066(3) 0.143(7) 0.062(4) -0.005(4) -0.011(3) 0.024(4)
C29 0.076(4) 0.133(7) 0.089(5) -0.012(5) -0.011(4) 0.025(4)
C30 0.141(8) 0.161(9) 0.086(5) -0.035(5) -0.029(5) 0.105(7)
C31 0.106(5) 0.172(8) 0.057(4) -0.006(5) -0.035(4) 0.067(6)
F1 0.0137(11) 0.0129(11) 0.0141(12) 0.000 -0.0017(9) 0.000
N1 0.117(4) 0.075(3) 0.088(4) -0.013(3) -0.035(4) 0.017(3)
N2 0.122 0.108 0.044 0.015 -0.018 0.006
O1 0.114(4) 0.119(4) 0.094(4) -0.007(3) 0.001(3) -0.038(3)
O2 0.097(3) 0.081(3) 0.102(4) 0.008(3) -0.044(3) -0.021(2)
O3 0.122(4) 0.095(3) 0.086(3) 0.016(3) -0.026(3) -0.014(3)
O4 0.113 0.103 0.067 -0.018 0.016 -0.043
O5 0.159(6) 0.123(4) 0.080(4) -0.046(3) -0.039(4) 0.049(4)
O6 0.150(5) 0.076(3) 0.072(3) -0.022(2) -0.044(3) 0.009(3)
O7 0.184(6) 0.087(3) 0.045(2) -0.009(2) -0.023(3) 0.029(3)
O8 0.128(5) 0.135(5) 0.087(4) -0.041(3) -0.068(4) -0.002(4)
O9 0.114(4) 0.108(4) 0.091(4) -0.007(3) -0.058(3) 0.059(3)
P1 0.1151(14) 0.0778(10) 0.0596(9) 0.0025(8) -0.0142(10) -0.0157(9)
P2 0.1179(16) 0.0880(11) 0.0644(10) -0.0189(9) -0.0425(11) 0.0212(11)
Zn1 0.1048(6) 0.0736(4) 0.0649(5) 0.0015(4) -0.0350(4) 0.0049(4)
Zn2 0.1125(6) 0.0807(5) 0.0506(4) 0.0056(3) -0.0116(4) 0.0219(4)
C32 0.56(4) 0.110(10) 0.24(2) 0.096(13) -0.16(3) -0.088(18)
C33 0.74(7) 0.21(2) 0.31(4) -0.12(2) -0.36(5) 0.17(3)
C34 0.92(11) 0.34(4) 0.23(3) 0.14(3) -0.12(5) -0.33(6)
C1D 0.172 0.123 0.105 0.05 -0.053 -0.01
C2D 0.196 0.231 0.07 0.056 -0.037 -0.029
C3D 0.178 0.32 0.116 0.096 -0.098 -0.048
C4D 0.157 0.28 0.29 0.17 -0.09 -0.063
C5D 0.19 0.185 0.169 0.062 -0.037 0.005
C6D 0.159 0.181 0.155 0.104 -0.06 -0.013
C7D 0.203 0.091 0.244 0.055 -0.118 -0.009
C8D 0.7 0.166 0.42 0 0.31 0.04
C9D 0.31 0.081 0.41 0.059 -0.08 -0.032
C10D 0.213 0.36 0.074 0.005 -0.067 -0.097
C11D 0.32 0.33 0.57 -0.2 -0.3 0.05
C12D 0.4 0.51 0.107 -0.11 0.04 -0.06
C13D 0.1 0.073 0.108 0.02 -0.004 0.05
C14D 0.24 0.088 0.134 -0.021 -0.064 0.08
C15D 0.197 0.106 0.157 -0.025 -0.048 0.034
C16D 0.17 0.087 0.133 0.005 -0.032 0.013
C17D 0.097 0.155 0.109 0.01 -0.003 0.064
C18D 0.089 0.064 0.092 0.024 -0.016 0.012
C19D 0.137 0.116 0.108 0.022 -0.044 0.04
C20D 0.71 0.205 0.25 -0.128 0.03 -0.25
C21D 0.13 0.175 0.45 0.02 -0.1 -0.038
C22D 0.149 0.094 0.09 0.035 -0.026 -0.041
C23D 0.15 0.124 0.092 0.009 -0.065 -0.056
C24D 0.122 0.105 0.055 0.005 -0.033 -0.002
C25D 0.128 0.072 0.072 -0.003 -0.017 0.017
C26D 0.123 0.121 0.085 0.032 -0.062 -0.081
C27D 0.11 0.088 0.138 0.033 -0.046 -0.034
C28D 0.066 0.143 0.062 0.005 -0.011 -0.024
C29D 0.076 0.133 0.089 0.012 -0.011 -0.025
C30D 0.141 0.161 0.086 0.035 -0.029 -0.105
C31D 0.106 0.172 0.057 0.006 -0.035 -0.067
N1D 0.117 0.075 0.088 0.013 -0.035 -0.017
N2D 0.122 0.108 0.044 -0.015 -0.018 -0.006
O1D 0.114 0.119 0.094 0.007 0.001 0.038
O2D 0.097 0.081 0.102 -0.008 -0.044 0.021
O3D 0.122 0.095 0.086 -0.016 -0.026 0.014
O4D 0.113 0.103 0.067 0.018 0.016 0.043
O5D 0.159 0.123 0.08 0.046 -0.039 -0.049
O6D 0.15 0.076 0.072 0.022 -0.044 -0.009
O7D 0.184 0.087 0.045 0.009 -0.023 -0.029
O8D 0.128 0.135 0.087 0.041 -0.068 0.002
O9D 0.114 0.108 0.091 0.007 -0.058 -0.059
P1D 0.1151 0.0778 0.0596 -0.0025 -0.0142 0.0157
P2D 0.1179 0.088 0.0644 0.0189 -0.0425 -0.0212
Zn1D 0.1048 0.0736 0.0649 -0.0015 -0.035 -0.0049
Zn2D 0.1125 0.0807 0.0506 -0.0056 -0.0116 -0.0219
C32D 0.56 0.11 0.24 -0.096 -0.16 0.088
C33D 0.74 0.21 0.31 0.12 -0.36 -0.17
C34D 0.92 0.34 0.23 -0.14 -0.12 0.33
N2A 0.108 0.122 0.044 -0.018 -0.015 -0.006
N2E 0.108 0.122 0.044 0.018 -0.015 0.006
Zn2I 0.0807 0.1125 0.0506 -0.0116 -0.0056 -0.0219
Zn2M 0.0807 0.1125 0.0506 0.0116 -0.0056 0.0219
loop_
_geom_bond_atom_site_label_1
_geom_bond_atom_site_label_2
_geom_bond_site_symmetry_1
_geom_bond_site_symmetry_2
C1 C2 1_555 1_555
C2 C3 1_555 1_555
C3 H1 1_555 1_555
C4 C3 1_555 1_555
H2 C4 1_555 1_555
C5 C4 1_555 1_555
H3 C5 1_555 1_555
C6 C1 1_555 1_555
C7 C6 1_555 1_555
H4 C7 1_555 1_555
C8 C7 1_555 1_555
H5 C8 1_555 1_555
H6 C8 1_555 1_555
H7 C8 1_555 1_555
C9 C7 1_555 1_555
H8 C9 1_555 1_555
H9 C9 1_555 1_555
H10 C9 1_555 1_555
C10 C2 1_555 1_555
H11 C10 1_555 1_555
C11 C10 1_555 1_555
H12 C11 1_555 1_555
H13 C11 1_555 1_555
H14 C11 1_555 1_555
C12 C10 1_555 1_555
H15 C12 1_555 1_555
H16 C12 1_555 1_555
H17 C12 1_555 1_555
C13 C14 1_555 1_555
C14 C15 1_555 1_555
C15 H18 1_555 1_555
C16 C15 1_555 1_555
H19 C16 1_555 1_555
C17 C16 1_555 1_555
H20 C17 1_555 1_555
C18 C13 1_555 1_555
C19 C18 1_555 1_555
H21 C19 1_555 1_555
C20 C19 1_555 1_555
H22 C20 1_555 1_555
H23 C20 1_555 1_555
H24 C20 1_555 1_555
C21 C19 1_555 1_555
H25 C21 1_555 1_555
H26 C21 1_555 1_555
H27 C21 1_555 1_555
C22 H28 1_555 1_555
C23 C22 1_555 1_555
H29 C23 1_555 1_555
C24 C23 1_555 1_555
C25 C24 1_555 1_555
C26 C24 1_555 1_555
H30 C26 1_555 1_555
C27 C26 1_555 1_555
H31 C27 1_555 1_555
C28 H32 1_555 1_555
C29 C25 1_555 1_555
H33 C29 1_555 1_555
C30 C25 1_555 1_555
H34 C30 1_555 1_555
C31 C30 1_555 1_555
H35 C31 1_555 1_555
F1 Zn1 1_555 1_555
N1 C22 1_555 1_555
N2 C28 1_555 1_555
O1 C13 1_555 1_555
O2 P1 1_555 1_555
O3 P1 1_555 1_555
O4 P1 1_555 1_555
O5 C1 1_555 1_555
O6 P2 1_555 1_555
O7 P2 1_555 1_555
O8 P2 1_555 1_555
O9 N1 1_555 1_555
P1 O1 1_555 1_555
P2 O5 1_555 1_555
Zn1 O2 1_555 1_555
Zn2 F1 1_555 1_555
C32 C14 1_555 1_555
H36 C32 1_555 1_555
C33 C32 1_555 1_555
H37 C33 1_555 1_555
H38 C33 1_555 1_555
H39 C33 1_555 1_555
C34 C32 1_555 1_555
H40 C34 1_555 1_555
H41 C34 1_555 1_555
H42 C34 1_555 1_555
C1D C2D 1_555 1_555
C2D C3D 1_555 1_555
C3D H1D 1_555 1_555
C4D C3D 1_555 1_555
H2D C4D 1_555 1_555
C5D C4D 1_555 1_555
H3D C5D 1_555 1_555
C6D C1D 1_555 1_555
C7D C6D 1_555 1_555
H4D C7D 1_555 1_555
C8D C7D 1_555 1_555
H5D C8D 1_555 1_555
H6D C8D 1_555 1_555
H7D C8D 1_555 1_555
C9D C7D 1_555 1_555
H8D C9D 1_555 1_555
H9D C9D 1_555 1_555
H10D C9D 1_555 1_555
C10D C2D 1_555 1_555
H11D C10D 1_555 1_555
C11D C10D 1_555 1_555
H12D C11D 1_555 1_555
H13D C11D 1_555 1_555
H14D C11D 1_555 1_555
C12D C10D 1_555 1_555
H15D C12D 1_555 1_555
H16D C12D 1_555 1_555
H17D C12D 1_555 1_555
C13D C14D 1_555 1_555
C14D C15D 1_555 1_555
C15D H18D 1_555 1_555
C16D C15D 1_555 1_555
H19D C16D 1_555 1_555
C17D C16D 1_555 1_555
H20D C17D 1_555 1_555
C18D C13D 1_555 1_555
C19D C18D 1_555 1_555
H21D C19D 1_555 1_555
C20D C19D 1_555 1_555
H22D C20D 1_555 1_555
H23D C20D 1_555 1_555
H24D C20D 1_555 1_555
C21D C19D 1_555 1_555
H25D C21D 1_555 1_555
H26D C21D 1_555 1_555
H27D C21D 1_555 1_555
C22D H28D 1_555 1_555
C23D C22D 1_555 1_555
H29D C23D 1_555 1_555
C24D C23D 1_555 1_555
C25D C24D 1_555 1_555
C26D C24D 1_555 1_555
H30D C26D 1_555 1_555
C27D C26D 1_555 1_555
H31D C27D 1_555 1_555
C28D H32D 1_555 1_555
C29D C25D 1_555 1_555
H33D C29D 1_555 1_555
C30D C25D 1_555 1_555
H34D C30D 1_555 1_555
C31D C30D 1_555 1_555
H35D C31D 1_555 1_555
N1D C22D 1_555 1_555
N2D C28D 1_555 1_555
O1D C13D 1_555 1_555
O2D P1D 1_555 1_555
O3D P1D 1_555 1_555
O4D Zn2 1_555 1_555
O5D C1D 1_555 1_555
O6D P2D 1_555 1_555
O7D P2D 1_555 1_555
O8D Zn1 1_555 1_555
O9D N1D 1_555 1_555
P1D O1D 1_555 1_555
P2D O5D 1_555 1_555
Zn1D F1 1_555 1_555
Zn2D F1 1_555 1_555
C32D C14D 1_555 1_555
H36D C32D 1_555 1_555
C33D C32D 1_555 1_555
H37D C33D 1_555 1_555
H38D C33D 1_555 1_555
H39D C33D 1_555 1_555
C34D C32D 1_555 1_555
H40D C34D 1_555 1_555
H41D C34D 1_555 1_555
H42D C34D 1_555 1_555
N2A Zn2D 1_555 1_555
N2E Zn2 1_555 1_555
Zn2I N2D 1_555 1_555
Zn2M N2 1_555 1_555
C5 C6 1_555 1_555
C17 C18 1_555 1_555
C27 N1 1_555 1_555
C28 C29 1_555 1_555
C31 N2 1_555 1_555
O3 Zn2 1_555 1_555
O4 Zn2D 1_555 1_555
O6 Zn1 1_555 1_555
O7 Zn2 1_555 1_555
O8 Zn1D 1_555 1_555
O9 Zn1 1_555 1_555
C5D C6D 1_555 1_555
C17D C18D 1_555 1_555
C27D N1D 1_555 1_555
C28D C29D 1_555 1_555
C31D N2D 1_555 1_555
O2D Zn1D 1_555 1_555
O3D Zn2D 1_555 1_555
O4D P1D 1_555 1_555
O6D Zn1D 1_555 1_555
O7D Zn2D 1_555 1_555
O8D P2D 1_555 1_555
O9D Zn1D 1_555 1_555

#END
