
#######################################################################
#
#                 Cambridge Crystallographic Data Centre
#                                CCDC 
#
#######################################################################
#
# If this CIF has been generated from an entry in the Cambridge 
# Structural Database, then it will include bibliographic, chemical, 
# crystal, experimental, refinement or atomic coordinate data resulting 
# from the CCDC's data processing and validation procedures.
#
#######################################################################

data_QUHVEW
_chemical_formula_moiety         'C84 H40 O26 Zr11'
_symmetry_cell_setting           cubic
_symmetry_space_group_name_H-M   'F m -3 m'
_symmetry_Int_Tables_number      225
_space_group_name_Hall           '-F 4 2 3'
loop_
_symmetry_equiv_pos_site_id
_symmetry_equiv_pos_as_xyz
1 x,y,z
2 -y,x,z
3 -x,-y,z
4 y,-x,z
5 x,-z,y
6 x,-y,-z
7 x,z,-y
8 z,y,-x
9 -x,y,-z
10 -z,y,x
11 z,x,y
12 y,z,x
13 -y,-z,x
14 z,-x,-y
15 -y,z,-x
16 -z,-x,y
17 -z,x,-y
18 y,-z,-x
19 y,x,-z
20 -y,-x,-z
21 -x,z,y
22 -x,-z,-y
23 z,-y,x
24 -z,-y,-x
25 x,1/2+y,1/2+z
26 -y,1/2+x,1/2+z
27 -x,1/2-y,1/2+z
28 y,1/2-x,1/2+z
29 x,1/2-z,1/2+y
30 x,1/2-y,1/2-z
31 x,1/2+z,1/2-y
32 z,1/2+y,1/2-x
33 -x,1/2+y,1/2-z
34 -z,1/2+y,1/2+x
35 z,1/2+x,1/2+y
36 y,1/2+z,1/2+x
37 -y,1/2-z,1/2+x
38 z,1/2-x,1/2-y
39 -y,1/2+z,1/2-x
40 -z,1/2-x,1/2+y
41 -z,1/2+x,1/2-y
42 y,1/2-z,1/2-x
43 y,1/2+x,1/2-z
44 -y,1/2-x,1/2-z
45 -x,1/2+z,1/2+y
46 -x,1/2-z,1/2-y
47 z,1/2-y,1/2+x
48 -z,1/2-y,1/2-x
49 1/2+x,y,1/2+z
50 1/2-y,x,1/2+z
51 1/2-x,-y,1/2+z
52 1/2+y,-x,1/2+z
53 1/2+x,-z,1/2+y
54 1/2+x,-y,1/2-z
55 1/2+x,z,1/2-y
56 1/2+z,y,1/2-x
57 1/2-x,y,1/2-z
58 1/2-z,y,1/2+x
59 1/2+z,x,1/2+y
60 1/2+y,z,1/2+x
61 1/2-y,-z,1/2+x
62 1/2+z,-x,1/2-y
63 1/2-y,z,1/2-x
64 1/2-z,-x,1/2+y
65 1/2-z,x,1/2-y
66 1/2+y,-z,1/2-x
67 1/2+y,x,1/2-z
68 1/2-y,-x,1/2-z
69 1/2-x,z,1/2+y
70 1/2-x,-z,1/2-y
71 1/2+z,-y,1/2+x
72 1/2-z,-y,1/2-x
73 1/2+x,1/2+y,z
74 1/2-y,1/2+x,z
75 1/2-x,1/2-y,z
76 1/2+y,1/2-x,z
77 1/2+x,1/2-z,y
78 1/2+x,1/2-y,-z
79 1/2+x,1/2+z,-y
80 1/2+z,1/2+y,-x
81 1/2-x,1/2+y,-z
82 1/2-z,1/2+y,x
83 1/2+z,1/2+x,y
84 1/2+y,1/2+z,x
85 1/2-y,1/2-z,x
86 1/2+z,1/2-x,-y
87 1/2-y,1/2+z,-x
88 1/2-z,1/2-x,y
89 1/2-z,1/2+x,-y
90 1/2+y,1/2-z,-x
91 1/2+y,1/2+x,-z
92 1/2-y,1/2-x,-z
93 1/2-x,1/2+z,y
94 1/2-x,1/2-z,-y
95 1/2+z,1/2-y,x
96 1/2-z,1/2-y,-x
97 -x,-y,-z
98 y,-x,-z
99 x,y,-z
100 -y,x,-z
101 -x,z,-y
102 -x,y,z
103 -x,-z,y
104 -z,-y,x
105 x,-y,z
106 z,-y,-x
107 -z,-x,-y
108 -y,-z,-x
109 y,z,-x
110 -z,x,y
111 y,-z,x
112 z,x,-y
113 z,-x,y
114 -y,z,x
115 -y,-x,z
116 y,x,z
117 x,-z,-y
118 x,z,y
119 -z,y,-x
120 z,y,x
121 -x,1/2-y,1/2-z
122 y,1/2-x,1/2-z
123 x,1/2+y,1/2-z
124 -y,1/2+x,1/2-z
125 -x,1/2+z,1/2-y
126 -x,1/2+y,1/2+z
127 -x,1/2-z,1/2+y
128 -z,1/2-y,1/2+x
129 x,1/2-y,1/2+z
130 z,1/2-y,1/2-x
131 -z,1/2-x,1/2-y
132 -y,1/2-z,1/2-x
133 y,1/2+z,1/2-x
134 -z,1/2+x,1/2+y
135 y,1/2-z,1/2+x
136 z,1/2+x,1/2-y
137 z,1/2-x,1/2+y
138 -y,1/2+z,1/2+x
139 -y,1/2-x,1/2+z
140 y,1/2+x,1/2+z
141 x,1/2-z,1/2-y
142 x,1/2+z,1/2+y
143 -z,1/2+y,1/2-x
144 z,1/2+y,1/2+x
145 1/2-x,-y,1/2-z
146 1/2+y,-x,1/2-z
147 1/2+x,y,1/2-z
148 1/2-y,x,1/2-z
149 1/2-x,z,1/2-y
150 1/2-x,y,1/2+z
151 1/2-x,-z,1/2+y
152 1/2-z,-y,1/2+x
153 1/2+x,-y,1/2+z
154 1/2+z,-y,1/2-x
155 1/2-z,-x,1/2-y
156 1/2-y,-z,1/2-x
157 1/2+y,z,1/2-x
158 1/2-z,x,1/2+y
159 1/2+y,-z,1/2+x
160 1/2+z,x,1/2-y
161 1/2+z,-x,1/2+y
162 1/2-y,z,1/2+x
163 1/2-y,-x,1/2+z
164 1/2+y,x,1/2+z
165 1/2+x,-z,1/2-y
166 1/2+x,z,1/2+y
167 1/2-z,y,1/2-x
168 1/2+z,y,1/2+x
169 1/2-x,1/2-y,-z
170 1/2+y,1/2-x,-z
171 1/2+x,1/2+y,-z
172 1/2-y,1/2+x,-z
173 1/2-x,1/2+z,-y
174 1/2-x,1/2+y,z
175 1/2-x,1/2-z,y
176 1/2-z,1/2-y,x
177 1/2+x,1/2-y,z
178 1/2+z,1/2-y,-x
179 1/2-z,1/2-x,-y
180 1/2-y,1/2-z,-x
181 1/2+y,1/2+z,-x
182 1/2-z,1/2+x,y
183 1/2+y,1/2-z,x
184 1/2+z,1/2+x,-y
185 1/2+z,1/2-x,y
186 1/2-y,1/2+z,x
187 1/2-y,1/2-x,z
188 1/2+y,1/2+x,z
189 1/2+x,1/2-z,-y
190 1/2+x,1/2+z,y
191 1/2-z,1/2+y,-x
192 1/2+z,1/2+y,x
_cell_length_a                   32.7304(6)
_cell_length_b                   32.7304(6)
_cell_length_c                   32.7304(6)
_cell_angle_alpha                90
_cell_angle_beta                 90
_cell_angle_gamma                90
_cell_volume                     35063.4
loop_
_atom_site_label
_atom_site_type_symbol
_atom_site_fract_x
_atom_site_fract_y
_atom_site_fract_z
Zr1 Zr 0.5000 0.5000 0.57549(2)
O1 O 0.46338(18) 0.46338(18) 0.53662(18)
H1 H 0.4484 0.4482 0.5518
O2 O 0.5000 0.55845(14) 0.60934(12)
C1 C 0.5000 0.59616(17) 0.59616(17)
C2 C 0.5000 0.6281(3) 0.6281(3)
C3 C 0.5000 0.6161(3) 0.6687(3)
H2 H 0.5000 0.5880 0.6760
C4 C 0.5000 0.6465(3) 0.6988(3)
H3 H 0.5000 0.6393 0.7270
C5 C 0.5000 0.6870(3) 0.6870(3)
C6 C 0.5000 0.7210(3) 0.7210(3)
C7 C 0.4620(3) 0.73483(10) 0.73483(10)
C8 C 0.4261(3) 0.7182(6) 0.7182(6)
C9 C 0.3977(5) 0.7034(7) 0.7034(7)
H4 H 0.3743 0.6913 0.6913
O2T O 0.5000 0.60934(12) 0.55845(14)
C3T C 0.5000 0.6687(3) 0.6161(3)
H2T H 0.5000 0.6760 0.5880
C4T C 0.5000 0.6988(3) 0.6465(3)
H3T H 0.5000 0.7270 0.6393
C7T C 0.5380(3) 0.73483(10) 0.73483(10)
C8T C 0.5739(3) 0.7182(6) 0.7182(6)
C9T C 0.6023(5) 0.7034(7) 0.7034(7)
H4T H 0.6257 0.6913 0.6913
O2CA O 0.5000 0.94155(14) 0.89066(12)
C1CA C 0.5000 0.90384(17) 0.90384(17)
C2CA C 0.5000 0.8719(3) 0.8719(3)
C3CA C 0.5000 0.8839(3) 0.8313(3)
H2CA H 0.5000 0.9120 0.8240
C4CA C 0.5000 0.8535(3) 0.8012(3)
H3CA H 0.5000 0.8607 0.7730
C5CA C 0.5000 0.8130(3) 0.8130(3)
C6CA C 0.5000 0.7790(3) 0.7790(3)
C7CA C 0.4620(3) 0.76517(10) 0.76517(10)
C8CA C 0.4261(3) 0.7818(6) 0.7818(6)
C9CA C 0.3977(5) 0.7966(7) 0.7966(7)
H4CA H 0.3743 0.8087 0.8087
O2SA O 0.5000 0.89066(12) 0.94155(14)
C3SA C 0.5000 0.8313(3) 0.8839(3)
H2SA H 0.5000 0.8240 0.9120
C4SA C 0.5000 0.8012(3) 0.8535(3)
H3SA H 0.5000 0.7730 0.8607
C7SA C 0.5380(3) 0.76517(10) 0.76517(10)
C8SA C 0.5739(3) 0.7818(6) 0.7818(6)
C9SA C 0.6023(5) 0.7966(7) 0.7966(7)
H4SA H 0.6257 0.8087 0.8087
O1A O 0.53662(18) 0.46338(18) 0.53662(18)
H1A H 0.5518 0.4484 0.5518
O2A O 0.44155(14) 0.5000 0.60934(12)
C1A C 0.40384(17) 0.5000 0.59616(17)
C2A C 0.3719(3) 0.5000 0.6281(3)
C3A C 0.3839(3) 0.5000 0.6687(3)
H2A H 0.4120 0.5000 0.6760
C4A C 0.3535(3) 0.5000 0.6988(3)
H3A H 0.3607 0.5000 0.7270
C5A C 0.3130(3) 0.5000 0.6870(3)
C6A C 0.2790(3) 0.5000 0.7210(3)
C7A C 0.26517(10) 0.4620(3) 0.73483(10)
C8A C 0.2818(6) 0.4261(3) 0.7182(6)
C9A C 0.2966(7) 0.3977(5) 0.7034(7)
H4A H 0.3087 0.3743 0.6913
O2O O 0.39066(12) 0.5000 0.55845(14)
C3O C 0.3313(3) 0.5000 0.6161(3)
H2O H 0.3240 0.5000 0.5880
C4O C 0.3012(3) 0.5000 0.6465(3)
H3O H 0.2730 0.5000 0.6393
C7O C 0.26517(10) 0.5380(3) 0.73483(10)
C8O C 0.2818(6) 0.5739(3) 0.7182(6)
C9O C 0.2966(7) 0.6023(5) 0.7034(7)
H4O H 0.3087 0.6257 0.6913
O2NB O 0.05845(14) 0.5000 0.89066(12)
C1IB C 0.09616(17) 0.5000 0.90384(17)
C2IB C 0.1281(3) 0.5000 0.8719(3)
C3NB C 0.1161(3) 0.5000 0.8313(3)
H2NB H 0.0880 0.5000 0.8240
C4NB C 0.1465(3) 0.5000 0.8012(3)
H3NB H 0.1393 0.5000 0.7730
C5IB C 0.1870(3) 0.5000 0.8130(3)
C6IB C 0.2210(3) 0.5000 0.7790(3)
C7NB C 0.23483(10) 0.4620(3) 0.76517(10)
C8NB C 0.2182(6) 0.4261(3) 0.7818(6)
C9NB C 0.2034(7) 0.3977(5) 0.7966(7)
H4NB H 0.1913 0.3743 0.8087
O2IB O 0.10934(12) 0.5000 0.94155(14)
C3IB C 0.1687(3) 0.5000 0.8839(3)
H2IB H 0.1760 0.5000 0.9120
C4IB C 0.1988(3) 0.5000 0.8535(3)
H3IB H 0.2270 0.5000 0.8607
C7IB C 0.23483(10) 0.5380(3) 0.76517(10)
C8IB C 0.2182(6) 0.5739(3) 0.7818(6)
C9IB C 0.2034(7) 0.6023(5) 0.7966(7)
H4IB H 0.1913 0.6257 0.8087
O1B O 0.53662(18) 0.53662(18) 0.53662(18)
H1B H 0.5516 0.5518 0.5518
O2B O 0.5000 0.44155(14) 0.60934(12)
C1B C 0.5000 0.40384(17) 0.59616(17)
C2B C 0.5000 0.3719(3) 0.6281(3)
C3B C 0.5000 0.3839(3) 0.6687(3)
H2B H 0.5000 0.4120 0.6760
C4B C 0.5000 0.3535(3) 0.6988(3)
H3B H 0.5000 0.3607 0.7270
C5B C 0.5000 0.3130(3) 0.6870(3)
C6B C 0.5000 0.2790(3) 0.7210(3)
C7B C 0.5380(3) 0.26517(10) 0.73483(10)
C8B C 0.5739(3) 0.2818(6) 0.7182(6)
C9B C 0.6023(5) 0.2966(7) 0.7034(7)
H4B H 0.6257 0.3087 0.6913
O2D O 0.5000 0.39066(12) 0.55845(14)
C3D C 0.5000 0.3313(3) 0.6161(3)
H2D H 0.5000 0.3240 0.5880
C4D C 0.5000 0.3012(3) 0.6465(3)
H3D H 0.5000 0.2730 0.6393
C7D C 0.4620(3) 0.26517(10) 0.73483(10)
C8D C 0.4261(3) 0.2818(6) 0.7182(6)
C9D C 0.3977(5) 0.2966(7) 0.7034(7)
H4D H 0.3743 0.3087 0.6913
O2FA O 0.5000 0.05845(14) 0.89066(12)
C1DA C 0.5000 0.09616(17) 0.90384(17)
C2DA C 0.5000 0.1281(3) 0.8719(3)
C3FA C 0.5000 0.1161(3) 0.8313(3)
H2FA H 0.5000 0.0880 0.8240
C4FA C 0.5000 0.1465(3) 0.8012(3)
H3FA H 0.5000 0.1393 0.7730
C5DA C 0.5000 0.1870(3) 0.8130(3)
C6DA C 0.5000 0.2210(3) 0.7790(3)
C7FA C 0.5380(3) 0.23483(10) 0.76517(10)
C8FA C 0.5739(3) 0.2182(6) 0.7818(6)
C9FA C 0.6023(5) 0.2034(7) 0.7966(7)
H4FA H 0.6257 0.1913 0.8087
O2DA O 0.5000 0.10934(12) 0.94155(14)
C3DA C 0.5000 0.1687(3) 0.8839(3)
H2DA H 0.5000 0.1760 0.9120
C4DA C 0.5000 0.1988(3) 0.8535(3)
H3DA H 0.5000 0.2270 0.8607
C7DA C 0.4620(3) 0.23483(10) 0.76517(10)
C8DA C 0.4261(3) 0.2182(6) 0.7818(6)
C9DA C 0.3977(5) 0.2034(7) 0.7966(7)
H4DA H 0.3743 0.1913 0.8087
O1C O 0.46338(18) 0.53662(18) 0.53662(18)
H1C H 0.4482 0.5516 0.5518
Zr1D Zr 0.5000 0.42451(2) 0.5000
Zr1I Zr 0.42451(2) 0.5000 0.5000
Zr1F Zr 0.5000 0.57549(2) 0.5000
Zr1G Zr 0.57549(2) 0.5000 0.5000
Zr1BA Zr 0.5000 0.92451(2) 1.0000
Zr1CA Zr 0.5000 0.0000 0.92451(2)
Zr1CA_2 Zr 0.5000 1.0000 0.92451(2)
Zr1DA Zr 0.5000 0.07549(2) 1.0000
Zr1AB Zr -0.0000 0.5000 0.92451(2)
Zr1CB Zr 0.07549(2) 0.5000 1.0000
O1D O 0.46338(18) 0.46338(18) 0.46338(18)
O1E O 0.46338(18) 0.53662(18) 0.46338(18)
O1H O 0.53662(18) 0.46338(18) 0.46338(18)
O2C O 0.55845(14) 0.5000 0.60934(12)
O2I O 0.39066(12) 0.55845(14) 0.5000
O2L O 0.44155(14) 0.39066(12) 0.5000
O2P O 0.39066(12) 0.5000 0.44155(14)
O2Q O 0.55845(14) 0.39066(12) 0.5000
O2U O 0.5000 0.39066(12) 0.44155(14)
O2W O 0.39066(12) 0.44155(14) 0.5000
loop_
_geom_bond_atom_site_label_1
_geom_bond_atom_site_label_2
_geom_bond_site_symmetry_1
_geom_bond_site_symmetry_2
Zr1 O1 1_555 1_555
O1 H1 1_555 1_555
O2 Zr1 1_555 1_555
C1 O2 1_555 1_555
C2 C1 1_555 1_555
C3 C2 1_555 1_555
H2 C3 1_555 1_555
C4 C3 1_555 1_555
H3 C4 1_555 1_555
C5 C4 1_555 1_555
C6 C5 1_555 1_555
C7 C6 1_555 1_555
C8 C7 1_555 1_555
C9 C8 1_555 1_555
H4 C9 1_555 1_555
O2T C1 1_555 1_555
C3T C2 1_555 1_555
H2T C3T 1_555 1_555
C4T C5 1_555 1_555
H3T C4T 1_555 1_555
C7T C6 1_555 1_555
C8T C7T 1_555 1_555
C9T C8T 1_555 1_555
H4T C9T 1_555 1_555
O2CA C1CA 1_555 1_555
C1CA C2CA 1_555 1_555
C2CA C3CA 1_555 1_555
C3CA H2CA 1_555 1_555
C4CA C3CA 1_555 1_555
H3CA C4CA 1_555 1_555
C5CA C4CA 1_555 1_555
C6CA C5CA 1_555 1_555
C7CA C7 1_555 1_555
C8CA C7CA 1_555 1_555
C9CA C8CA 1_555 1_555
H4CA C9CA 1_555 1_555
O2SA C1CA 1_555 1_555
C3SA C2CA 1_555 1_555
H2SA C3SA 1_555 1_555
C4SA C5CA 1_555 1_555
H3SA C4SA 1_555 1_555
C7SA C7T 1_555 1_555
C8SA C7SA 1_555 1_555
C9SA C8SA 1_555 1_555
H4SA C9SA 1_555 1_555
O1A Zr1 1_555 1_555
H1A O1A 1_555 1_555
O2A Zr1 1_555 1_555
C1A O2A 1_555 1_555
C2A C1A 1_555 1_555
C3A C2A 1_555 1_555
H2A C3A 1_555 1_555
C4A C3A 1_555 1_555
H3A C4A 1_555 1_555
C5A C4A 1_555 1_555
C6A C5A 1_555 1_555
C7A C6A 1_555 1_555
C8A C7A 1_555 1_555
C9A C8A 1_555 1_555
H4A C9A 1_555 1_555
O2O C1A 1_555 1_555
C3O C2A 1_555 1_555
H2O C3O 1_555 1_555
C4O C5A 1_555 1_555
H3O C4O 1_555 1_555
C7O C6A 1_555 1_555
C8O C7O 1_555 1_555
C9O C8O 1_555 1_555
H4O C9O 1_555 1_555
O2NB C1IB 1_555 1_555
C1IB C2IB 1_555 1_555
C2IB C3NB 1_555 1_555
C3NB H2NB 1_555 1_555
C4NB C3NB 1_555 1_555
H3NB C4NB 1_555 1_555
C5IB C4NB 1_555 1_555
C6IB C5IB 1_555 1_555
C7NB C7A 1_555 1_555
C8NB C7NB 1_555 1_555
C9NB C8NB 1_555 1_555
H4NB C9NB 1_555 1_555
O2IB C1IB 1_555 1_555
C3IB C2IB 1_555 1_555
H2IB C3IB 1_555 1_555
C4IB C5IB 1_555 1_555
H3IB C4IB 1_555 1_555
C7IB C7O 1_555 1_555
C8IB C7IB 1_555 1_555
C9IB C8IB 1_555 1_555
H4IB C9IB 1_555 1_555
O1B Zr1 1_555 1_555
H1B O1B 1_555 1_555
O2B Zr1 1_555 1_555
C1B O2B 1_555 1_555
C2B C1B 1_555 1_555
C3B C2B 1_555 1_555
H2B C3B 1_555 1_555
C4B C3B 1_555 1_555
H3B C4B 1_555 1_555
C5B C4B 1_555 1_555
C6B C5B 1_555 1_555
C7B C6B 1_555 1_555
C8B C7B 1_555 1_555
C9B C8B 1_555 1_555
H4B C9B 1_555 1_555
O2D C1B 1_555 1_555
C3D C2B 1_555 1_555
H2D C3D 1_555 1_555
C4D C5B 1_555 1_555
H3D C4D 1_555 1_555
C7D C6B 1_555 1_555
C8D C7D 1_555 1_555
C9D C8D 1_555 1_555
H4D C9D 1_555 1_555
O2FA C1DA 1_555 1_555
C1DA C2DA 1_555 1_555
C2DA C3FA 1_555 1_555
C3FA H2FA 1_555 1_555
C4FA C3FA 1_555 1_555
H3FA C4FA 1_555 1_555
C5DA C4FA 1_555 1_555
C6DA C5DA 1_555 1_555
C7FA C7B 1_555 1_555
C8FA C7FA 1_555 1_555
C9FA C8FA 1_555 1_555
H4FA C9FA 1_555 1_555
O2DA C1DA 1_555 1_555
C3DA C2DA 1_555 1_555
H2DA C3DA 1_555 1_555
C4DA C5DA 1_555 1_555
H3DA C4DA 1_555 1_555
C7DA C7D 1_555 1_555
C8DA C7DA 1_555 1_555
C9DA C8DA 1_555 1_555
H4DA C9DA 1_555 1_555
O1C Zr1 1_555 1_555
H1C O1C 1_555 1_555
Zr1D O1 1_555 1_555
Zr1I O1 1_555 1_555
Zr1F O2T 1_555 1_555
Zr1G O1A 1_555 1_555
Zr1BA O2SA 1_555 1_555
Zr1CA O2FA 1_555 1_555
Zr1CA_2 O2CA 1_555 1_555
Zr1DA O2DA 1_555 1_555
Zr1AB O2NB 1_555 1_555
Zr1CB O2IB 1_555 1_555
O1D Zr1D 1_555 1_555
O1E Zr1I 1_555 1_555
O1H Zr1D 1_555 1_555
O2C Zr1 1_555 1_555
O2I Zr1I 1_555 1_555
O2L Zr1D 1_555 1_555
O2P Zr1I 1_555 1_555
O2Q Zr1D 1_555 1_555
O2U Zr1D 1_555 1_555
O2W Zr1I 1_555 1_555
C3T C4T 1_555 1_555
C6CA C7CA 1_555 1_555
C6CA C7SA 1_555 1_555
C3SA C4SA 1_555 1_555
O1A Zr1D 1_555 1_555
O2O Zr1I 1_555 1_555
C3O C4O 1_555 1_555
C6IB C7NB 1_555 1_555
C6IB C7IB 1_555 1_555
C3IB C4IB 1_555 1_555
O1B Zr1F 1_555 1_555
O1B Zr1G 1_555 1_555
O2D Zr1D 1_555 1_555
C3D C4D 1_555 1_555
C6DA C7FA 1_555 1_555
C6DA C7DA 1_555 1_555
C3DA C4DA 1_555 1_555
O1C Zr1I 1_555 1_555
O1C Zr1F 1_555 1_555
Zr1I O1D 1_555 1_555
Zr1F O1E 1_555 1_555
Zr1G O1H 1_555 1_555

#END
