
#######################################################################
#
#                 Cambridge Crystallographic Data Centre
#                                CCDC 
#
#######################################################################
#
# If this CIF has been generated from an entry in the Cambridge 
# Structural Database, then it will include bibliographic, chemical, 
# crystal, experimental, refinement or atomic coordinate data resulting 
# from the CCDC's data processing and validation procedures.
#
#######################################################################

data_KEGZOL03
_chemical_formula_moiety         '(C8 H12 Cu1 N5 Zn1)n'
_symmetry_cell_setting           cubic
_symmetry_space_group_name_H-M   'F -4 3 m'
_symmetry_Int_Tables_number      216
_space_group_name_Hall           'F -4 2 3'
loop_
_symmetry_equiv_pos_site_id
_symmetry_equiv_pos_as_xyz
1 x,y,z
2 -x,-y,z
3 -x,y,-z
4 x,-y,-z
5 z,x,y
6 z,-x,-y
7 -z,-x,y
8 -z,x,-y
9 y,z,x
10 -y,z,-x
11 y,-z,-x
12 -y,-z,x
13 y,x,z
14 -y,-x,z
15 y,-x,-z
16 -y,x,-z
17 x,z,y
18 -x,z,-y
19 -x,-z,y
20 x,-z,-y
21 z,y,x
22 z,-y,-x
23 -z,y,-x
24 -z,-y,x
25 x,1/2+y,1/2+z
26 -x,1/2-y,1/2+z
27 -x,1/2+y,1/2-z
28 x,1/2-y,1/2-z
29 z,1/2+x,1/2+y
30 z,1/2-x,1/2-y
31 -z,1/2-x,1/2+y
32 -z,1/2+x,1/2-y
33 y,1/2+z,1/2+x
34 -y,1/2+z,1/2-x
35 y,1/2-z,1/2-x
36 -y,1/2-z,1/2+x
37 y,1/2+x,1/2+z
38 -y,1/2-x,1/2+z
39 y,1/2-x,1/2-z
40 -y,1/2+x,1/2-z
41 x,1/2+z,1/2+y
42 -x,1/2+z,1/2-y
43 -x,1/2-z,1/2+y
44 x,1/2-z,1/2-y
45 z,1/2+y,1/2+x
46 z,1/2-y,1/2-x
47 -z,1/2+y,1/2-x
48 -z,1/2-y,1/2+x
49 1/2+x,y,1/2+z
50 1/2-x,-y,1/2+z
51 1/2-x,y,1/2-z
52 1/2+x,-y,1/2-z
53 1/2+z,x,1/2+y
54 1/2+z,-x,1/2-y
55 1/2-z,-x,1/2+y
56 1/2-z,x,1/2-y
57 1/2+y,z,1/2+x
58 1/2-y,z,1/2-x
59 1/2+y,-z,1/2-x
60 1/2-y,-z,1/2+x
61 1/2+y,x,1/2+z
62 1/2-y,-x,1/2+z
63 1/2+y,-x,1/2-z
64 1/2-y,x,1/2-z
65 1/2+x,z,1/2+y
66 1/2-x,z,1/2-y
67 1/2-x,-z,1/2+y
68 1/2+x,-z,1/2-y
69 1/2+z,y,1/2+x
70 1/2+z,-y,1/2-x
71 1/2-z,y,1/2-x
72 1/2-z,-y,1/2+x
73 1/2+x,1/2+y,z
74 1/2-x,1/2-y,z
75 1/2-x,1/2+y,-z
76 1/2+x,1/2-y,-z
77 1/2+z,1/2+x,y
78 1/2+z,1/2-x,-y
79 1/2-z,1/2-x,y
80 1/2-z,1/2+x,-y
81 1/2+y,1/2+z,x
82 1/2-y,1/2+z,-x
83 1/2+y,1/2-z,-x
84 1/2-y,1/2-z,x
85 1/2+y,1/2+x,z
86 1/2-y,1/2-x,z
87 1/2+y,1/2-x,-z
88 1/2-y,1/2+x,-z
89 1/2+x,1/2+z,y
90 1/2-x,1/2+z,-y
91 1/2-x,1/2-z,y
92 1/2+x,1/2-z,-y
93 1/2+z,1/2+y,x
94 1/2+z,1/2-y,-x
95 1/2-z,1/2+y,-x
96 1/2-z,1/2-y,x
_cell_length_a                   11.6247(7)
_cell_length_b                   11.6247(7)
_cell_length_c                   11.6247(7)
_cell_angle_alpha                90
_cell_angle_beta                 90
_cell_angle_gamma                90
_cell_volume                     1570.89
loop_
_atom_site_label
_atom_site_type_symbol
_atom_site_fract_x
_atom_site_fract_y
_atom_site_fract_z
_atom_site_U_iso_or_equiv
_atom_site_thermal_displace_type
Zn1 Zn 1.0000 1.0000 1.0000 0.0489 Uani
Cu1 Cu 0.7500 0.7500 0.7500 0.0514 Uani
C1 C 0.8475(3) 0.8475(3) 0.8475(3) 0.0637 Uani
N1 N 0.9035(3) 0.9035(3) 0.9035(3) 0.0686 Uani
Zn1X Zn 1.0000 0.5000 0.5000 0.0489 Uani
Zn1VA Zn 0.5000 1.0000 0.5000 0.0489 Uani
Cu1A Cu 1.2500 1.2500 0.7500 0.0514 Uani
C1A C 1.1525(3) 1.1525(3) 0.8475(3) 0.0637 Uani
C1AA C 0.8475(3) 0.6525(3) 0.6525(3) 0.0637 Uani
C1XA C 0.6525(3) 0.8475(3) 0.6525(3) 0.0637 Uani
C1UB C 0.6525(3) 0.6525(3) 0.8475(3) 0.0637 Uani
N1A N 1.0965(3) 1.0965(3) 0.9035(3) 0.0686 Uani
N1B N 1.0965(3) 0.9035(3) 1.0965(3) 0.0686 Uani
N1C N 0.9035(3) 1.0965(3) 1.0965(3) 0.0686 Uani
N1AA N 0.9035(3) 0.5965(3) 0.5965(3) 0.0686 Uani
N1XA N 0.5965(3) 0.9035(3) 0.5965(3) 0.0686 Uani
N2 N 1.0000 0.5000 1.0000 0.0600 Uani
C2 C 0.9264(4) 0.4264(4) 0.9264(4) 0.1700 Uani
C2A C 1.0736(4) 0.5736(4) 0.9264(4) 0.1700 Uani
C2B C 1.0736(4) 0.4264(4) 1.0736(4) 0.1700 Uani
C2C C 0.9264(4) 0.5736(4) 1.0736(4) 0.1700 Uani
loop_
_atom_site_aniso_label
_atom_site_aniso_U_11
_atom_site_aniso_U_22
_atom_site_aniso_U_33
_atom_site_aniso_U_23
_atom_site_aniso_U_13
_atom_site_aniso_U_12
Zn1 0.0489(3) 0.0489(3) 0.0489(3) 0.000 0.000 0.000
Cu1 0.0514(3) 0.0514(3) 0.0514(3) 0.000 0.000 0.000
C1 0.0637(13) 0.0637(13) 0.0637(13) -0.002(2) -0.002(2) -0.002(2)
N1 0.0686(12) 0.0686(12) 0.0686(12) -0.0078(17) -0.0078(17) -0.0078(17)
Zn1X 0.0489 0.0489 0.0489 0 0 0
Zn1VA 0.0489 0.0489 0.0489 0 0 0
Cu1A 0.0514 0.0514 0.0514 0 0 0
C1A 0.0637 0.0637 0.0637 0.002 0.002 -0.002
C1AA 0.0637 0.0637 0.0637 -0.002 0.002 0.002
C1XA 0.0637 0.0637 0.0637 0.002 -0.002 0.002
C1UB 0.0637 0.0637 0.0637 0.002 0.002 -0.002
N1A 0.0686 0.0686 0.0686 0.0078 0.0078 -0.0078
N1B 0.0686 0.0686 0.0686 0.0078 -0.0078 0.0078
N1C 0.0686 0.0686 0.0686 -0.0078 0.0078 0.0078
N1AA 0.0686 0.0686 0.0686 -0.0078 0.0078 0.0078
N1XA 0.0686 0.0686 0.0686 0.0078 -0.0078 0.0078
N2 0.060(2) 0.060(2) 0.060(2) 0.000 0.000 0.000
C2 0.170(5) 0.170(5) 0.170(5) -0.045(4) -0.045(4) -0.045(4)
C2A 0.17 0.17 0.17 0.045 0.045 -0.045
C2B 0.17 0.17 0.17 0.045 -0.045 0.045
C2C 0.17 0.17 0.17 -0.045 0.045 0.045
loop_
_geom_bond_atom_site_label_1
_geom_bond_atom_site_label_2
_geom_bond_site_symmetry_1
_geom_bond_site_symmetry_2
Zn1 N1 1_555 1_555
Cu1 C1 1_555 1_555
C1 N1 1_555 1_555
N2 C2 1_555 1_555
Zn1X N1AA 1_555 1_555
Zn1VA N1XA 1_555 1_555
Cu1A C1A 1_555 1_555
C1A N1A 1_555 1_555
C1AA Cu1 1_555 1_555
C1XA Cu1 1_555 1_555
C1UB Cu1 1_555 1_555
N1A Zn1 1_555 1_555
N1B Zn1 1_555 1_555
N1C Zn1 1_555 1_555
N1AA C1AA 1_555 1_555
N1XA C1XA 1_555 1_555
C2A N2 1_555 1_555
C2B N2 1_555 1_555
C2C N2 1_555 1_555

#END
