
#######################################################################
#
#                 Cambridge Crystallographic Data Centre
#                                CCDC 
#
#######################################################################
#
# If this CIF has been generated from an entry in the Cambridge 
# Structural Database, then it will include bibliographic, chemical, 
# crystal, experimental, refinement or atomic coordinate data resulting 
# from the CCDC's data processing and validation procedures.
#
#######################################################################

data_KEGZOL02
_chemical_formula_moiety         '(C8 H12 Cu1 N5 Zn1)n'
_symmetry_cell_setting           cubic
_symmetry_space_group_name_H-M   'P 21 3'
_symmetry_Int_Tables_number      198
_space_group_name_Hall           'P 2ac 2ab 3'
loop_
_symmetry_equiv_pos_site_id
_symmetry_equiv_pos_as_xyz
1 x,y,z
2 1/2-x,-y,1/2+z
3 -x,1/2+y,1/2-z
4 1/2+x,1/2-y,-z
5 z,x,y
6 1/2+z,1/2-x,-y
7 1/2-z,-x,1/2+y
8 -z,1/2+x,1/2-y
9 y,z,x
10 -y,1/2+z,1/2-x
11 1/2+y,1/2-z,-x
12 1/2-y,-z,1/2+x
_cell_length_a                   11.6012(3)
_cell_length_b                   11.6012(3)
_cell_length_c                   11.6012(3)
_cell_angle_alpha                90
_cell_angle_beta                 90
_cell_angle_gamma                90
_cell_volume                     1561.38
loop_
_atom_site_label
_atom_site_type_symbol
_atom_site_fract_x
_atom_site_fract_y
_atom_site_fract_z
_atom_site_U_iso_or_equiv
_atom_site_thermal_displace_type
C1 C 0.4162(5) 0.5838(5) 0.0838(5) 0.0560 Uani
N1 N 0.1497(4) 0.6431(4) 0.3214(3) 0.0467 Uani
C2 C 0.0869(4) 0.5950(4) 0.3788(4) 0.0413 Uani
Cu1 Cu 0.51310(5) 0.48690(5) -0.01310(5) 0.0381 Uani
Zn1 Zn 0.26113(5) 0.73887(5) 0.23887(5) 0.0334 Uani
N2 N 0.3587(5) 0.6413(5) 0.1413(5) 0.0550 Uani
N1H N 0.6431(4) 0.3214(3) 0.1497(4) 0.0467 Uani
N1G N 0.6786(3) 0.6497(4) -0.1431(4) 0.0467 Uani
N1F N 0.1786(3) 0.8503(4) 0.1431(4) 0.0467 Uani
N1I N 0.3569(4) 0.8214(3) 0.3503(4) 0.0467 Uani
C2H C 0.5950(4) 0.3788(4) 0.0869(4) 0.0413 Uani
C2G C 0.6212(4) 0.5869(4) -0.0950(4) 0.0413 Uani
C2A C 0.4131(4) 0.4050(4) -0.1212(4) 0.0413 Uani
Cu1A Cu -0.01310(5) 0.51310(5) 0.48690(5) 0.0381 Uani
Zn1B Zn 0.73887(5) 0.23887(5) 0.26113(5) 0.0334 Uani
Zn1C Zn 0.76113(5) 0.76113(5) -0.23887(5) 0.0334 Uani
N3 N 0.2449(2) 0.7449(2) 0.7551(2) 0.0472 Uani
C3 C 0.1714(4) 0.6714(4) 0.8286(4) 0.0840 Uani
H1 H 0.2195 0.6150 0.8691 0.1250 Uiso
C4 C 0.3355(7) 0.7980(9) 0.8230(6) 0.2080 Uani
H2 H 0.3012 0.8405 0.8874 0.3120 Uiso
H3 H 0.3796 0.8512 0.7744 0.3120 Uiso
H4 H 0.3869 0.7381 0.8530 0.3120 Uiso
H1G H 0.1309 0.7195 0.8850 0.1250 Uiso
H1J H 0.1150 0.6309 0.7805 0.1250 Uiso
C4G C 0.1770(6) 0.8355(7) 0.7020(9) 0.2080 Uani
C4J C 0.2980(9) 0.6770(6) 0.6645(7) 0.2080 Uani
H2G H 0.1126 0.8012 0.6595 0.3120 Uiso
H2J H 0.3405 0.6126 0.6988 0.3120 Uiso
H3G H 0.2256 0.8796 0.6488 0.3120 Uiso
H3J H 0.3512 0.7256 0.6204 0.3120 Uiso
H4G H 0.1470 0.8869 0.7619 0.3120 Uiso
H4J H 0.2381 0.6470 0.6131 0.3120 Uiso
loop_
_atom_site_aniso_label
_atom_site_aniso_U_11
_atom_site_aniso_U_22
_atom_site_aniso_U_33
_atom_site_aniso_U_23
_atom_site_aniso_U_13
_atom_site_aniso_U_12
C1 0.056(3) 0.056(3) 0.056(3) -0.009(3) 0.009(3) 0.009(3)
N1 0.043(2) 0.051(2) 0.046(2) 0.0036(18) 0.0038(17) -0.0063(18)
C2 0.036 0.045 0.043 -0.0059 -0.007 0.003
Cu1 0.0381(3) 0.0381(3) 0.0381(3) -0.0041(2) 0.0041(2) 0.0041(2)
Zn1 0.0334(2) 0.0334(2) 0.0334(2) -0.0028(2) 0.0028(2) 0.0028(2)
N2 0.055(2) 0.055(2) 0.055(2) -0.011(2) 0.011(2) 0.011(2)
N1H 0.051 0.046 0.043 0.0038 -0.0063 0.0036
N1G 0.046 0.043 0.051 0.0063 0.0036 -0.0038
N1F 0.046 0.043 0.051 0.0063 -0.0036 0.0038
N1I 0.051 0.046 0.043 -0.0038 -0.0063 -0.0036
C2H 0.045 0.043 0.036 -0.007 0.003 -0.0059
C2G 0.043 0.036 0.045 -0.003 -0.0059 0.007
C2A 0.036 0.045 0.043 0.0059 0.007 0.003
Cu1A 0.0381 0.0381 0.0381 0.0041 -0.0041 0.0041
Zn1B 0.0334 0.0334 0.0334 0.0028 0.0028 -0.0028
Zn1C 0.0334 0.0334 0.0334 -0.0028 -0.0028 -0.0028
N3 0.0472(11) 0.0472(11) 0.0472(11) 0.0050(17) 0.0050(17) -0.0050(17)
C3 0.084(3) 0.084(3) 0.084(3) 0.020(2) 0.020(2) -0.020(2)
C4 0.155(7) 0.376(15) 0.093(5) 0.012(7) -0.016(5) -0.187(9)
C4G 0.093 0.155 0.376 0.187 0.012 0.016
C4J 0.376 0.093 0.155 -0.016 0.187 -0.012
loop_
_geom_bond_atom_site_label_1
_geom_bond_atom_site_label_2
_geom_bond_site_symmetry_1
_geom_bond_site_symmetry_2
C1 Cu1 1_555 1_555
N1 C2 1_555 1_555
C2 Cu1A 1_555 1_555
Cu1 C2H 1_555 1_555
Zn1 N1 1_555 1_555
N2 C1 1_555 1_555
N3 C3 1_555 1_555
C3 H1 1_555 1_555
C4 N3 1_555 1_555
H2 C4 1_555 1_555
H3 C4 1_555 1_555
H4 C4 1_555 1_555
N1H C2H 1_555 1_555
N1G C2G 1_555 1_555
N1F Zn1 1_555 1_555
N1I Zn1 1_555 1_555
C2G Cu1 1_555 1_555
C2A Cu1 1_555 1_555
Zn1B N1H 1_555 1_555
Zn1C N1G 1_555 1_555
H1G C3 1_555 1_555
H1J C3 1_555 1_555
C4G N3 1_555 1_555
C4J N3 1_555 1_555
H2G C4G 1_555 1_555
H2J C4J 1_555 1_555
H3G C4G 1_555 1_555
H3J C4J 1_555 1_555
H4G C4G 1_555 1_555
H4J C4J 1_555 1_555
Zn1 N2 1_555 1_555

#END
