
#######################################################################
#
#                 Cambridge Crystallographic Data Centre
#                                CCDC 
#
#######################################################################
#
# If this CIF has been generated from an entry in the Cambridge 
# Structural Database, then it will include bibliographic, chemical, 
# crystal, experimental, refinement or atomic coordinate data resulting 
# from the CCDC's data processing and validation procedures.
#
#######################################################################

data_MOYMET
_chemical_formula_moiety         '(C12 H26 Co1 O11)n'
_symmetry_cell_setting           tetragonal
_symmetry_space_group_name_H-M   'P -4 21 c'
_symmetry_Int_Tables_number      114
_space_group_name_Hall           'P -4 2n'
loop_
_symmetry_equiv_pos_site_id
_symmetry_equiv_pos_as_xyz
1 x,y,z
2 -x,-y,z
3 y,-x,-z
4 -y,x,-z
5 1/2-x,1/2+y,1/2-z
6 1/2+x,1/2-y,1/2-z
7 1/2-y,1/2-x,1/2+z
8 1/2+y,1/2+x,1/2+z
_cell_length_a                   22.1138(10)
_cell_length_b                   22.1138(10)
_cell_length_c                   8.0576(8)
_cell_angle_alpha                90
_cell_angle_beta                 90
_cell_angle_gamma                90
_cell_volume                     3940.33
loop_
_atom_site_label
_atom_site_type_symbol
_atom_site_fract_x
_atom_site_fract_y
_atom_site_fract_z
_atom_site_U_iso_or_equiv
_atom_site_thermal_displace_type
Co1 Co 0.255199(9) 0.755365(8) 0.75767(2) 0.0170 Uani
O1 O 0.23530(6) 0.66645(4) 0.82550(13) 0.0284 Uani
O2 O 0.26261(7) 0.61778(5) 0.59560(14) 0.0440 Uani
O3 O 0.22608(5) 0.34441(4) 0.81120(13) 0.0271 Uani
O4 O 0.24984(8) 0.39330(5) 0.57862(14) 0.0480 Uani
O5 O 0.34106(5) 0.74561(6) 0.85370(14) 0.0370 Uani
H1 H 0.3469 0.7527 0.9550 0.0560 Uiso
H2 H 0.3470 0.7065 0.8438 0.0560 Uiso
O6 O 0.16953(5) 0.76509(6) 0.66097(15) 0.0365 Uani
H3 H 0.1730 0.7490 0.5681 0.0550 Uiso
H4 H 0.1345 0.7797 0.6715 0.0550 Uiso
O7 O 0.22800(4) 0.78302(4) 1.00779(13) 0.0193 Uani
H5 H 0.1845 0.7774 1.0078 0.0290 Uiso
H6 H 0.2342 0.8264 1.0078 0.0290 Uiso
C1 C 0.21986(7) 0.55999(6) 0.81450(19) 0.0228 Uani
C2 C 0.23438(7) 0.50563(6) 0.73635(17) 0.0242 Uani
H15 H 0.2564 0.5056 0.6380 0.0290 Uiso
C3 C 0.21548(7) 0.45116(6) 0.80728(18) 0.0225 Uani
C4 C 0.18148(7) 0.45158(7) 0.95396(19) 0.0234 Uani
H16 H 0.1690 0.4150 0.9996 0.0280 Uiso
C5 C 0.16582(7) 0.50566(7) 1.03363(18) 0.0227 Uani
C6 C 0.18616(7) 0.55974(7) 0.96032(19) 0.0244 Uani
H17 H 0.1768 0.5964 1.0108 0.0290 Uiso
C7 C 0.24088(7) 0.61848(7) 0.73874(18) 0.0259 Uani
C8 C 0.23168(7) 0.39235(6) 0.72466(19) 0.0256 Uani
C9 C 0.12979(7) 0.50725(7) 1.19557(19) 0.0271 Uani
C10 C 0.17005(11) 0.53406(14) 1.3317(3) 0.0629 Uani
H18 H 0.2078 0.5126 1.3348 0.0940 Uiso
H19 H 0.1501 0.5304 1.4370 0.0940 Uiso
H20 H 0.1775 0.5760 1.3084 0.0940 Uiso
C11 C 0.07487(10) 0.54755(11) 1.1742(3) 0.0523 Uani
H21 H 0.0525 0.5489 1.2763 0.0780 Uiso
H22 H 0.0496 0.5317 1.0877 0.0780 Uiso
H23 H 0.0877 0.5876 1.1452 0.0780 Uiso
C12 C 0.10820(12) 0.44486(10) 1.2484(3) 0.0646 Uani
H24 H 0.1424 0.4186 1.2617 0.0970 Uiso
H25 H 0.0817 0.4287 1.1650 0.0970 Uiso
H26 H 0.0868 0.4479 1.3518 0.0970 Uiso
Co1D Co 0.244801(9) 0.255365(8) 0.74233(2) 0.0170 Uani
Co1G Co 0.255365(8) 0.755199(9) 1.25767(2) 0.0170 Uani
O3D O 0.27392(5) 0.84441(4) 0.68880(13) 0.0271 Uani
O7G O 0.28302(4) 0.72800(4) 0.50779(13) 0.0193 Uani
H5G H 0.2774 0.6845 0.5078 0.0290 Uiso
H6G H 0.3264 0.7342 0.5078 0.0290 Uiso
O8 O 0.32283(9) 0.57229(8) 0.3119(3) 0.1189 Uani
H7 H 0.3200 0.5340 0.3096 0.1780 Uiso
H8 H 0.3027 0.5772 0.4027 0.1780 Uiso
O9 O 0.31295(14) 0.43712(8) 0.3038(4) 0.1063 Uani
H9 H 0.3079 0.4031 0.2591 0.1590 Uiso
H10 H 0.2977 0.4347 0.4022 0.1590 Uiso
O10 O 0.3997(6) 0.5539(6) 0.6366(16) 0.6780 Uiso
H11 H 0.4097 0.5905 0.6543 1.0170 Uiso
H12 H 0.3800 0.5614 0.5485 1.0170 Uiso
O11 O 0.3803(8) 0.4524(8) 0.006(2) 0.8690 Uiso
H13 H 0.3980 0.4209 -0.0222 1.3030 Uiso
H14 H 0.3752 0.4531 0.0833 1.3030 Uiso
loop_
_atom_site_aniso_label
_atom_site_aniso_U_11
_atom_site_aniso_U_22
_atom_site_aniso_U_33
_atom_site_aniso_U_23
_atom_site_aniso_U_13
_atom_site_aniso_U_12
Co1 0.02058(9) 0.01439(8) 0.01589(10) 0.00041(6) 0.00055(7) -0.00243(6)
O1 0.0482(6) 0.0163(4) 0.0208(5) -0.0010(4) 0.0052(5) -0.0069(5)
O2 0.0839(9) 0.0207(5) 0.0275(5) -0.0025(4) 0.0218(6) -0.0088(6)
O3 0.0455(6) 0.0152(4) 0.0206(5) 0.0000(4) 0.0058(5) 0.0042(5)
O4 0.0983(11) 0.0197(5) 0.0260(5) 0.0013(4) 0.0219(7) 0.0077(6)
O5 0.0298(6) 0.0540(7) 0.0273(6) -0.0053(6) -0.0050(5) 0.0034(6)
O6 0.0244(5) 0.0597(8) 0.0253(5) -0.0042(6) -0.0029(5) 0.0025(6)
O7 0.0216(4) 0.0200(4) 0.0164(4) 0.0014(4) 0.0022(4) -0.0010(4)
C1 0.0300(7) 0.0168(6) 0.0216(7) 0.0009(6) -0.0008(6) -0.0019(6)
C2 0.0338(7) 0.0173(6) 0.0214(6) -0.0001(6) 0.0030(7) -0.0010(6)
C3 0.0330(8) 0.0160(6) 0.0186(6) -0.0019(5) 0.0010(6) 0.0023(6)
C4 0.0303(8) 0.0151(6) 0.0248(7) 0.0037(6) 0.0013(6) -0.0021(6)
C5 0.0268(7) 0.0188(6) 0.0224(7) 0.0002(6) 0.0010(6) 0.0001(6)
C6 0.0315(8) 0.0175(7) 0.0242(7) -0.0015(6) 0.0021(6) 0.0001(6)
C7 0.0357(8) 0.0185(6) 0.0234(7) 0.0016(6) 0.0006(7) -0.0042(6)
C8 0.0346(8) 0.0174(6) 0.0248(7) 0.0013(6) 0.0013(7) 0.0020(6)
C9 0.0328(8) 0.0254(7) 0.0231(7) 0.0007(6) 0.0044(6) -0.0001(7)
C10 0.0505(12) 0.112(2) 0.0262(9) -0.0139(11) 0.0019(9) -0.0032(13)
C11 0.0482(11) 0.0622(13) 0.0464(11) 0.0109(10) 0.0175(10) 0.0156(10)
C12 0.0977(15) 0.0405(11) 0.0557(11) 0.0103(10) 0.0434(11) 0.0013(11)
Co1D 0.02058 0.01439 0.01589 -0.00041 0.00055 0.00243
Co1G 0.01439 0.02058 0.01589 0.00055 0.00041 -0.00243
O3D 0.0455 0.0152 0.0206 0 0.0058 -0.0042
O7G 0.02 0.0216 0.0164 0.0022 0.0014 -0.001
O8 0.1219(18) 0.0837(14) 0.151(2) 0.0076(17) -0.006(2) 0.0245(14)
O9 0.145(2) 0.0788(13) 0.0951(15) -0.0045(13) 0.0199(16) -0.0183(14)
loop_
_geom_bond_atom_site_label_1
_geom_bond_atom_site_label_2
_geom_bond_site_symmetry_1
_geom_bond_site_symmetry_2
Co1 O1 1_555 1_555
O1 C7 1_555 1_555
O2 C7 1_555 1_555
O3 C8 1_555 1_555
O4 C8 1_555 1_555
O5 Co1 1_555 1_555
H1 O5 1_555 1_555
H2 O5 1_555 1_555
O6 Co1 1_555 1_555
H3 O6 1_555 1_555
H4 O6 1_555 1_555
O7 Co1 1_555 1_555
H5 O7 1_555 1_555
H6 O7 1_555 1_555
O8 H7 1_555 1_555
H8 O8 1_555 1_555
O9 H9 1_555 1_555
H10 O9 1_555 1_555
O10 H11 1_555 1_555
H12 O10 1_555 1_555
O11 H13 1_555 1_555
H14 O11 1_555 1_555
C1 C2 1_555 1_555
C2 H15 1_555 1_555
C3 C2 1_555 1_555
C4 C3 1_555 1_555
H16 C4 1_555 1_555
C5 C4 1_555 1_555
C6 C1 1_555 1_555
H17 C6 1_555 1_555
C7 C1 1_555 1_555
C8 C3 1_555 1_555
C9 C5 1_555 1_555
C10 C9 1_555 1_555
H18 C10 1_555 1_555
H19 C10 1_555 1_555
H20 C10 1_555 1_555
C11 C9 1_555 1_555
H21 C11 1_555 1_555
H22 C11 1_555 1_555
H23 C11 1_555 1_555
C12 C9 1_555 1_555
H24 C12 1_555 1_555
H25 C12 1_555 1_555
H26 C12 1_555 1_555
Co1D O3 1_555 1_555
Co1G O7 1_555 1_555
O3D Co1 1_555 1_555
O7G Co1 1_555 1_555
H5G O7G 1_555 1_555
H6G O7G 1_555 1_555
C5 C6 1_555 1_555

#END
