
#######################################################################
#
#                 Cambridge Crystallographic Data Centre
#                                CCDC 
#
#######################################################################
#
# If this CIF has been generated from an entry in the Cambridge 
# Structural Database, then it will include bibliographic, chemical, 
# crystal, experimental, refinement or atomic coordinate data resulting 
# from the CCDC's data processing and validation procedures.
#
#######################################################################

data_RUKDOS
_chemical_formula_moiety         '(C48 H26 Hf3 O16)n'
_symmetry_cell_setting           cubic
_symmetry_space_group_name_H-M   'F m -3 m'
_symmetry_Int_Tables_number      225
_space_group_name_Hall           '-F 4 2 3'
loop_
_symmetry_equiv_pos_site_id
_symmetry_equiv_pos_as_xyz
1 x,y,z
2 -y,x,z
3 -x,-y,z
4 y,-x,z
5 x,-z,y
6 x,-y,-z
7 x,z,-y
8 z,y,-x
9 -x,y,-z
10 -z,y,x
11 z,x,y
12 y,z,x
13 -y,-z,x
14 z,-x,-y
15 -y,z,-x
16 -z,-x,y
17 -z,x,-y
18 y,-z,-x
19 y,x,-z
20 -y,-x,-z
21 -x,z,y
22 -x,-z,-y
23 z,-y,x
24 -z,-y,-x
25 x,1/2+y,1/2+z
26 -y,1/2+x,1/2+z
27 -x,1/2-y,1/2+z
28 y,1/2-x,1/2+z
29 x,1/2-z,1/2+y
30 x,1/2-y,1/2-z
31 x,1/2+z,1/2-y
32 z,1/2+y,1/2-x
33 -x,1/2+y,1/2-z
34 -z,1/2+y,1/2+x
35 z,1/2+x,1/2+y
36 y,1/2+z,1/2+x
37 -y,1/2-z,1/2+x
38 z,1/2-x,1/2-y
39 -y,1/2+z,1/2-x
40 -z,1/2-x,1/2+y
41 -z,1/2+x,1/2-y
42 y,1/2-z,1/2-x
43 y,1/2+x,1/2-z
44 -y,1/2-x,1/2-z
45 -x,1/2+z,1/2+y
46 -x,1/2-z,1/2-y
47 z,1/2-y,1/2+x
48 -z,1/2-y,1/2-x
49 1/2+x,y,1/2+z
50 1/2-y,x,1/2+z
51 1/2-x,-y,1/2+z
52 1/2+y,-x,1/2+z
53 1/2+x,-z,1/2+y
54 1/2+x,-y,1/2-z
55 1/2+x,z,1/2-y
56 1/2+z,y,1/2-x
57 1/2-x,y,1/2-z
58 1/2-z,y,1/2+x
59 1/2+z,x,1/2+y
60 1/2+y,z,1/2+x
61 1/2-y,-z,1/2+x
62 1/2+z,-x,1/2-y
63 1/2-y,z,1/2-x
64 1/2-z,-x,1/2+y
65 1/2-z,x,1/2-y
66 1/2+y,-z,1/2-x
67 1/2+y,x,1/2-z
68 1/2-y,-x,1/2-z
69 1/2-x,z,1/2+y
70 1/2-x,-z,1/2-y
71 1/2+z,-y,1/2+x
72 1/2-z,-y,1/2-x
73 1/2+x,1/2+y,z
74 1/2-y,1/2+x,z
75 1/2-x,1/2-y,z
76 1/2+y,1/2-x,z
77 1/2+x,1/2-z,y
78 1/2+x,1/2-y,-z
79 1/2+x,1/2+z,-y
80 1/2+z,1/2+y,-x
81 1/2-x,1/2+y,-z
82 1/2-z,1/2+y,x
83 1/2+z,1/2+x,y
84 1/2+y,1/2+z,x
85 1/2-y,1/2-z,x
86 1/2+z,1/2-x,-y
87 1/2-y,1/2+z,-x
88 1/2-z,1/2-x,y
89 1/2-z,1/2+x,-y
90 1/2+y,1/2-z,-x
91 1/2+y,1/2+x,-z
92 1/2-y,1/2-x,-z
93 1/2-x,1/2+z,y
94 1/2-x,1/2-z,-y
95 1/2+z,1/2-y,x
96 1/2-z,1/2-y,-x
97 -x,-y,-z
98 y,-x,-z
99 x,y,-z
100 -y,x,-z
101 -x,z,-y
102 -x,y,z
103 -x,-z,y
104 -z,-y,x
105 x,-y,z
106 z,-y,-x
107 -z,-x,-y
108 -y,-z,-x
109 y,z,-x
110 -z,x,y
111 y,-z,x
112 z,x,-y
113 z,-x,y
114 -y,z,x
115 -y,-x,z
116 y,x,z
117 x,-z,-y
118 x,z,y
119 -z,y,-x
120 z,y,x
121 -x,1/2-y,1/2-z
122 y,1/2-x,1/2-z
123 x,1/2+y,1/2-z
124 -y,1/2+x,1/2-z
125 -x,1/2+z,1/2-y
126 -x,1/2+y,1/2+z
127 -x,1/2-z,1/2+y
128 -z,1/2-y,1/2+x
129 x,1/2-y,1/2+z
130 z,1/2-y,1/2-x
131 -z,1/2-x,1/2-y
132 -y,1/2-z,1/2-x
133 y,1/2+z,1/2-x
134 -z,1/2+x,1/2+y
135 y,1/2-z,1/2+x
136 z,1/2+x,1/2-y
137 z,1/2-x,1/2+y
138 -y,1/2+z,1/2+x
139 -y,1/2-x,1/2+z
140 y,1/2+x,1/2+z
141 x,1/2-z,1/2-y
142 x,1/2+z,1/2+y
143 -z,1/2+y,1/2-x
144 z,1/2+y,1/2+x
145 1/2-x,-y,1/2-z
146 1/2+y,-x,1/2-z
147 1/2+x,y,1/2-z
148 1/2-y,x,1/2-z
149 1/2-x,z,1/2-y
150 1/2-x,y,1/2+z
151 1/2-x,-z,1/2+y
152 1/2-z,-y,1/2+x
153 1/2+x,-y,1/2+z
154 1/2+z,-y,1/2-x
155 1/2-z,-x,1/2-y
156 1/2-y,-z,1/2-x
157 1/2+y,z,1/2-x
158 1/2-z,x,1/2+y
159 1/2+y,-z,1/2+x
160 1/2+z,x,1/2-y
161 1/2+z,-x,1/2+y
162 1/2-y,z,1/2+x
163 1/2-y,-x,1/2+z
164 1/2+y,x,1/2+z
165 1/2+x,-z,1/2-y
166 1/2+x,z,1/2+y
167 1/2-z,y,1/2-x
168 1/2+z,y,1/2+x
169 1/2-x,1/2-y,-z
170 1/2+y,1/2-x,-z
171 1/2+x,1/2+y,-z
172 1/2-y,1/2+x,-z
173 1/2-x,1/2+z,-y
174 1/2-x,1/2+y,z
175 1/2-x,1/2-z,y
176 1/2-z,1/2-y,x
177 1/2+x,1/2-y,z
178 1/2+z,1/2-y,-x
179 1/2-z,1/2-x,-y
180 1/2-y,1/2-z,-x
181 1/2+y,1/2+z,-x
182 1/2-z,1/2+x,y
183 1/2+y,1/2-z,x
184 1/2+z,1/2+x,-y
185 1/2+z,1/2-x,y
186 1/2-y,1/2+z,x
187 1/2-y,1/2-x,z
188 1/2+y,1/2+x,z
189 1/2+x,1/2-z,-y
190 1/2+x,1/2+z,y
191 1/2-z,1/2+y,-x
192 1/2+z,1/2+y,x
_cell_length_a                   30.1107(12)
_cell_length_b                   30.1107(12)
_cell_length_c                   30.1107(12)
_cell_angle_alpha                90
_cell_angle_beta                 90
_cell_angle_gamma                90
_cell_volume                     27300
loop_
_atom_site_label
_atom_site_type_symbol
_atom_site_fract_x
_atom_site_fract_y
_atom_site_fract_z
Hf1 Hf 0.5000 0.08137(2) 0.5000
O1 O 0.5617(3) 0.1188(2) 0.5000
O2 O 0.53932(19) 0.03932(19) 0.46068(19)
C1 C 0.6019(8) 0.1019(8) 0.5000
C2 C 0.6368(8) 0.1368(8) 0.5000
C3 C 0.6817(7) 0.1231(5) 0.5000
H1 H 0.6893 0.0932 0.5000
C4 C 0.7144(7) 0.1565(5) 0.5000
H2 H 0.7444 0.1490 0.5000
C5 C 0.7015(5) 0.2015(5) 0.5000
C6 C 0.7360(2) 0.2360(2) 0.5000
O1S O 0.8812(2) 0.4383(3) 0.5000
C1S C 0.8981(8) 0.3981(8) 0.5000
C2S C 0.8632(8) 0.3632(8) 0.5000
C3S C 0.8769(5) 0.3183(7) 0.5000
H1S H 0.9068 0.3107 0.5000
C4S C 0.8435(5) 0.2856(7) 0.5000
H2S H 0.8510 0.2556 0.5000
C5S C 0.7985(5) 0.2985(5) 0.5000
C6S C 0.7640(2) 0.2640(2) 0.5000
O1VB O 0.9383(3) 0.3812(2) 0.5000
C3VB C 0.8183(7) 0.3769(5) 0.5000
H1VB H 0.8107 0.4068 0.5000
C4VB C 0.7856(7) 0.3435(5) 0.5000
H2VB H 0.7556 0.3510 0.5000
O1LC O 0.6188(2) 0.0617(3) 0.5000
C3LC C 0.6231(5) 0.1817(7) 0.5000
H1LC H 0.5932 0.1893 0.5000
C4LC C 0.6565(5) 0.2144(7) 0.5000
H2LC H 0.6490 0.2444 0.5000
Hf1A Hf 0.91863(2) 0.5000 0.5000
O1A O 0.8812(2) 0.5617(3) 0.5000
C1A C 0.8981(8) 0.6019(8) 0.5000
C2A C 0.8632(8) 0.6368(8) 0.5000
C3A C 0.8769(5) 0.6817(7) 0.5000
H1A H 0.9068 0.6893 0.5000
C4A C 0.8435(5) 0.7144(7) 0.5000
H2A H 0.8510 0.7444 0.5000
C5A C 0.7985(5) 0.7015(5) 0.5000
C6A C 0.7640(2) 0.7360(2) 0.5000
O1E O 0.5617(3) 0.8812(2) 0.5000
C1E C 0.6019(8) 0.8981(8) 0.5000
C2E C 0.6368(8) 0.8632(8) 0.5000
C3E C 0.6817(7) 0.8769(5) 0.5000
H1E H 0.6893 0.9068 0.5000
C4E C 0.7144(7) 0.8435(5) 0.5000
H2E H 0.7444 0.8510 0.5000
C5E C 0.7015(5) 0.7985(5) 0.5000
C6E C 0.7360(2) 0.7640(2) 0.5000
O1WB O 0.6188(2) 0.9383(3) 0.5000
C3WB C 0.6231(5) 0.8183(7) 0.5000
H1WB H 0.5932 0.8107 0.5000
C4WB C 0.6565(5) 0.7856(7) 0.5000
H2WB H 0.6490 0.7556 0.5000
O1BC O 0.9383(3) 0.6188(2) 0.5000
C3BC C 0.8183(7) 0.6231(5) 0.5000
H1BC H 0.8107 0.5932 0.5000
C4BC C 0.7856(7) 0.6565(5) 0.5000
H2BC H 0.7556 0.6490 0.5000
Hf1C Hf 0.08137(2) 0.5000 0.5000
O1C O 0.1188(2) 0.4383(3) 0.5000
C1C C 0.1019(8) 0.3981(8) 0.5000
C2C C 0.1368(8) 0.3632(8) 0.5000
C3C C 0.1231(5) 0.3183(7) 0.5000
H1C H 0.0932 0.3107 0.5000
C4C C 0.1565(5) 0.2856(7) 0.5000
H2C H 0.1490 0.2556 0.5000
C5C C 0.2015(5) 0.2985(5) 0.5000
C6C C 0.2360(2) 0.2640(2) 0.5000
O1H O 0.4383(3) 0.1188(2) 0.5000
C1H C 0.3981(8) 0.1019(8) 0.5000
C2H C 0.3632(8) 0.1368(8) 0.5000
C3H C 0.3183(7) 0.1231(5) 0.5000
H1H H 0.3107 0.0932 0.5000
C4H C 0.2856(7) 0.1565(5) 0.5000
H2H H 0.2556 0.1490 0.5000
C5H C 0.2985(5) 0.2015(5) 0.5000
C6H C 0.2640(2) 0.2360(2) 0.5000
O1UB O 0.3812(2) 0.0617(3) 0.5000
C3UB C 0.3769(5) 0.1817(7) 0.5000
H1UB H 0.4068 0.1893 0.5000
C4UB C 0.3435(5) 0.2144(7) 0.5000
H2UB H 0.3510 0.2444 0.5000
O1YB O 0.0617(3) 0.3812(2) 0.5000
C3YB C 0.1817(7) 0.3769(5) 0.5000
H1YB H 0.1893 0.4068 0.5000
C4YB C 0.2144(7) 0.3435(5) 0.5000
H2YB H 0.2444 0.3510 0.5000
O2G O 0.46068(19) 0.03932(19) 0.46068(19)
O2H O 0.46068(19) 0.03932(19) 0.53932(19)
O2I O 0.53932(19) 0.03932(19) 0.53932(19)
Hf1B Hf 0.5000 0.91863(2) 0.5000
Hf1BA Hf 0.5000 0.0000 0.58137(2)
Hf1DA Hf 0.5000 0.0000 0.41863(2)
Hf1ZA Hf 0.0000 0.5000 0.58137(2)
Hf1ZA_2 Hf 1.0000 0.5000 0.58137(2)
Hf1BB Hf 0.0000 0.5000 0.41863(2)
Hf1BB_2 Hf 1.0000 0.5000 0.41863(2)
Hf1TB Hf 0.0000 0.58137(2) 0.5000
Hf1TB_2 Hf 1.0000 0.58137(2) 0.5000
Hf1UB Hf 0.41863(2) 0.0000 0.5000
Hf1VB Hf 0.0000 0.41863(2) 0.5000
Hf1VB_2 Hf 1.0000 0.41863(2) 0.5000
Hf1WB Hf 0.58137(2) 0.0000 0.5000
Hf1WB_2 Hf 0.58137(2) 1.0000 0.5000
O1G O 0.5000 0.1188(2) 0.4383(3)
O1I O 0.5000 0.1188(2) 0.5617(3)
O1K O 0.1188(2) 0.5000 0.5617(3)
O1L O 0.8812(2) 0.5000 0.5617(3)
O1N O 0.8812(2) 0.5000 0.4383(3)
O1Q O 0.1188(2) 0.5000 0.4383(3)
O1R O 0.1188(2) 0.5617(3) 0.5000
O2A O 0.96068(19) 0.53932(19) 0.46068(19)
O2C O 0.03932(19) 0.46068(19) 0.46068(19)
O2K O 0.03932(19) 0.46068(19) 0.53932(19)
O2L O 0.96068(19) 0.53932(19) 0.53932(19)
O2N O 0.96068(19) 0.46068(19) 0.46068(19)
O2Q O 0.03932(19) 0.53932(19) 0.46068(19)
O2R O 0.03932(19) 0.53932(19) 0.53932(19)
O2S O 0.96068(19) 0.46068(19) 0.53932(19)
loop_
_geom_bond_atom_site_label_1
_geom_bond_atom_site_label_2
_geom_bond_site_symmetry_1
_geom_bond_site_symmetry_2
Hf1 O1 1_555 1_555
O1 C1 1_555 1_555
O2 Hf1 1_555 1_555
C1 C2 1_555 1_555
C2 C3 1_555 1_555
C3 H1 1_555 1_555
C4 C3 1_555 1_555
H2 C4 1_555 1_555
C5 C4 1_555 1_555
C6 C5 1_555 1_555
O1S C1S 1_555 1_555
C1S C2S 1_555 1_555
C2S C3S 1_555 1_555
C3S H1S 1_555 1_555
C4S C3S 1_555 1_555
H2S C4S 1_555 1_555
C5S C4S 1_555 1_555
C6S C6 1_555 1_555
O1VB C1S 1_555 1_555
C3VB C2S 1_555 1_555
H1VB C3VB 1_555 1_555
C4VB C5S 1_555 1_555
H2VB C4VB 1_555 1_555
O1LC C1 1_555 1_555
C3LC C2 1_555 1_555
H1LC C3LC 1_555 1_555
C4LC C5 1_555 1_555
H2LC C4LC 1_555 1_555
Hf1A O1S 1_555 1_555
O1A Hf1A 1_555 1_555
C1A O1A 1_555 1_555
C2A C1A 1_555 1_555
C3A C2A 1_555 1_555
H1A C3A 1_555 1_555
C4A C3A 1_555 1_555
H2A C4A 1_555 1_555
C5A C4A 1_555 1_555
C6A C5A 1_555 1_555
O1E C1E 1_555 1_555
C1E C2E 1_555 1_555
C2E C3E 1_555 1_555
C3E H1E 1_555 1_555
C4E C3E 1_555 1_555
H2E C4E 1_555 1_555
C5E C4E 1_555 1_555
C6E C6A 1_555 1_555
O1WB C1E 1_555 1_555
C3WB C2E 1_555 1_555
H1WB C3WB 1_555 1_555
C4WB C5E 1_555 1_555
H2WB C4WB 1_555 1_555
O1BC C1A 1_555 1_555
C3BC C2A 1_555 1_555
H1BC C3BC 1_555 1_555
C4BC C5A 1_555 1_555
H2BC C4BC 1_555 1_555
Hf1C O1C 1_555 1_555
O1C C1C 1_555 1_555
C1C C2C 1_555 1_555
C2C C3C 1_555 1_555
C3C H1C 1_555 1_555
C4C C3C 1_555 1_555
H2C C4C 1_555 1_555
C5C C4C 1_555 1_555
C6C C5C 1_555 1_555
O1H Hf1 1_555 1_555
C1H O1H 1_555 1_555
C2H C1H 1_555 1_555
C3H C2H 1_555 1_555
H1H C3H 1_555 1_555
C4H C3H 1_555 1_555
H2H C4H 1_555 1_555
C5H C4H 1_555 1_555
C6H C6C 1_555 1_555
O1UB C1H 1_555 1_555
C3UB C2H 1_555 1_555
H1UB C3UB 1_555 1_555
C4UB C5H 1_555 1_555
H2UB C4UB 1_555 1_555
O1YB C1C 1_555 1_555
C3YB C2C 1_555 1_555
H1YB C3YB 1_555 1_555
C4YB C5C 1_555 1_555
H2YB C4YB 1_555 1_555
O2G Hf1 1_555 1_555
O2H Hf1 1_555 1_555
O2I Hf1 1_555 1_555
Hf1B O1E 1_555 1_555
Hf1BA Hf1 1_555 1_555
Hf1DA Hf1 1_555 1_555
Hf1ZA Hf1C 1_555 1_555
Hf1ZA_2 Hf1A 1_555 1_555
Hf1BB Hf1C 1_555 1_555
Hf1BB_2 Hf1A 1_555 1_555
Hf1TB Hf1C 1_555 1_555
Hf1TB_2 Hf1A 1_555 1_555
Hf1UB Hf1 1_555 1_555
Hf1VB Hf1C 1_555 1_555
Hf1VB_2 O1VB 1_555 1_555
Hf1WB Hf1 1_555 1_555
Hf1WB_2 O1WB 1_555 1_555
O1G Hf1 1_555 1_555
O1I Hf1 1_555 1_555
O1K Hf1C 1_555 1_555
O1L Hf1A 1_555 1_555
O1N Hf1A 1_555 1_555
O1Q Hf1C 1_555 1_555
O1R Hf1C 1_555 1_555
O2A Hf1A 1_555 1_555
O2C Hf1C 1_555 1_555
O2K Hf1C 1_555 1_555
O2L Hf1A 1_555 1_555
O2N Hf1A 1_555 1_555
O2Q Hf1C 1_555 1_555
O2R Hf1C 1_555 1_555
O2S Hf1A 1_555 1_555
O2 Hf1DA 1_555 1_555
O2 Hf1WB 1_555 1_555
C5S C6S 1_555 1_555
C3VB C4VB 1_555 1_555
O1LC Hf1WB 1_555 1_555
C3LC C4LC 1_555 1_555
Hf1A Hf1VB_2 1_555 1_555
C5E C6E 1_555 1_555
C3WB C4WB 1_555 1_555
O1BC Hf1TB_2 1_555 1_555
C3BC C4BC 1_555 1_555
C5H C6H 1_555 1_555
O1UB Hf1UB 1_555 1_555
C3UB C4UB 1_555 1_555
O1YB Hf1VB 1_555 1_555
C3YB C4YB 1_555 1_555
O2G Hf1DA 1_555 1_555
O2G Hf1UB 1_555 1_555
O2H Hf1BA 1_555 1_555
O2H Hf1UB 1_555 1_555
O2I Hf1BA 1_555 1_555
O2I Hf1WB 1_555 1_555
Hf1B Hf1WB_2 1_555 1_555
Hf1BA Hf1UB 1_555 1_555
Hf1BA Hf1WB 1_555 1_555
Hf1DA Hf1UB 1_555 1_555
Hf1DA Hf1WB 1_555 1_555
Hf1ZA Hf1TB 1_555 1_555
Hf1ZA Hf1VB 1_555 1_555
Hf1ZA O2K 1_555 1_555
Hf1ZA O2R 1_555 1_555
Hf1ZA_2 Hf1TB_2 1_555 1_555
Hf1ZA_2 Hf1VB_2 1_555 1_555
Hf1ZA_2 O2L 1_555 1_555
Hf1ZA_2 O2S 1_555 1_555
Hf1BB Hf1TB 1_555 1_555
Hf1BB Hf1VB 1_555 1_555
Hf1BB O2C 1_555 1_555
Hf1BB O2Q 1_555 1_555
Hf1BB_2 Hf1TB_2 1_555 1_555
Hf1BB_2 Hf1VB_2 1_555 1_555
Hf1BB_2 O2A 1_555 1_555
Hf1BB_2 O2N 1_555 1_555
Hf1TB O2Q 1_555 1_555
Hf1TB O2R 1_555 1_555
Hf1TB_2 O2A 1_555 1_555
Hf1TB_2 O2L 1_555 1_555
Hf1VB O2C 1_555 1_555
Hf1VB O2K 1_555 1_555
Hf1VB_2 O2N 1_555 1_555
Hf1VB_2 O2S 1_555 1_555

#END
