
#######################################################################
#
#                 Cambridge Crystallographic Data Centre
#                                CCDC 
#
#######################################################################
#
# If this CIF has been generated from an entry in the Cambridge 
# Structural Database, then it will include bibliographic, chemical, 
# crystal, experimental, refinement or atomic coordinate data resulting 
# from the CCDC's data processing and validation procedures.
#
#######################################################################

data_BEWWEH
_chemical_formula_moiety         '(C54 H61 Cr2 Mn4 N5 O35)n'
_symmetry_cell_setting           orthorhombic
_symmetry_space_group_name_H-M   'P 21 21 21'
_symmetry_Int_Tables_number      19
_space_group_name_Hall           'P 2ac 2ab'
loop_
_symmetry_equiv_pos_site_id
_symmetry_equiv_pos_as_xyz
1 x,y,z
2 1/2-x,-y,1/2+z
3 1/2+x,1/2-y,-z
4 -x,1/2+y,1/2-z
_cell_length_a                   14.5286(4)
_cell_length_b                   20.8778(7)
_cell_length_c                   22.7570(6)
_cell_angle_alpha                90
_cell_angle_beta                 90
_cell_angle_gamma                90
_cell_volume                     6902.77
loop_
_atom_site_label
_atom_site_type_symbol
_atom_site_fract_x
_atom_site_fract_y
_atom_site_fract_z
_atom_site_U_iso_or_equiv
_atom_site_thermal_displace_type
C1 C 0.0717(3) 0.5693(2) 0.1299(2) 0.0260 Uani
C2 C 0.1596(3) 0.5887(2) 0.1477(2) 0.0373 Uani
H1 H 0.1652 0.6221 0.1759 0.0450 Uiso
C3 C 0.2377(3) 0.5608(3) 0.1257(2) 0.0457 Uani
H2 H 0.2961 0.5734 0.1404 0.0550 Uiso
C4 C 0.2325(3) 0.5142(3) 0.0819(3) 0.0497 Uani
H3 H 0.2872 0.4955 0.0669 0.0590 Uiso
C5 C 0.1486(3) 0.4954(2) 0.0607(2) 0.0377 Uani
H4 H 0.1445 0.4641 0.0305 0.0450 Uiso
C6 C 0.0680(3) 0.5235(2) 0.0845(2) 0.0283 Uani
C7 C -0.0187(3) 0.5090(2) 0.0555(2) 0.0293 Uani
H5 H -0.0154 0.4857 0.0197 0.0350 Uiso
C8 C -0.1768(3) 0.5160(2) 0.03127(19) 0.0360 Uani
H6 H -0.1539 0.4922 -0.0034 0.0430 Uiso
H7 H -0.1982 0.5585 0.0177 0.0430 Uiso
C9 C -0.2568(3) 0.4801(3) 0.0578(2) 0.0390 Uani
H8 H -0.2342 0.4389 0.0736 0.0470 Uiso
H9 H -0.3017 0.4704 0.0263 0.0470 Uiso
C10 C -0.3057(3) 0.5159(3) 0.1063(2) 0.0480 Uani
H10 H -0.3628 0.4927 0.1166 0.0570 Uiso
H11 H -0.3233 0.5589 0.0918 0.0570 Uiso
C11 C -0.2850(3) 0.5071(2) 0.2088(2) 0.0297 Uani
H12 H -0.3438 0.4876 0.2059 0.0360 Uiso
C12 C -0.2484(3) 0.5149(2) 0.2673(2) 0.0270 Uani
C13 C -0.2927(3) 0.4861(2) 0.3146(2) 0.0343 Uani
H13 H -0.3436 0.4587 0.3071 0.0410 Uiso
C14 C -0.2653(4) 0.4961(2) 0.3723(2) 0.0440 Uani
H14 H -0.2954 0.4754 0.4041 0.0530 Uiso
C15 C -0.1924(3) 0.5373(2) 0.3816(2) 0.0390 Uani
H15 H -0.1733 0.5457 0.4207 0.0470 Uiso
C16 C -0.1470(3) 0.5664(2) 0.3364(2) 0.0323 Uani
H16 H -0.0964 0.5936 0.3451 0.0390 Uiso
C17 C -0.1728(3) 0.5573(2) 0.27711(18) 0.0240 Uani
N1 N -0.0996(2) 0.52493(18) 0.07377(15) 0.0287 Uani
N2 N -0.2475(2) 0.52341(17) 0.16098(16) 0.0273 Uani
O1 O -0.00163(18) 0.59543(13) 0.15253(13) 0.0260 Uani
O2 O -0.12921(19) 0.58719(13) 0.23460(12) 0.0268 Uani
Mn1 Mn -0.12000(4) 0.56076(3) 0.15476(3) 0.0228 Uani
N3 N -0.0610(3) 0.4613(2) 0.19255(18) 0.0353 Uani
C18 C -0.0585(4) 0.4368(3) 0.2361(3) 0.0493 Uani
C19 C -0.0618(4) 0.4040(3) 0.2956(2) 0.0643 Uani
H17 H -0.1256 0.4020 0.3093 0.0970 Uiso
H18 H -0.0247 0.4283 0.3238 0.0970 Uiso
H19 H -0.0371 0.3605 0.2920 0.0970 Uiso
O3 O -0.18325(19) 0.64985(13) 0.12535(13) 0.0306 Uani
C20 C -0.1449(3) 0.6944(2) 0.0836(2) 0.0443 Uani
H20 H -0.0963 0.7195 0.1026 0.0660 Uiso
H21 H -0.1934 0.7232 0.0696 0.0660 Uiso
H22 H -0.1190 0.6707 0.0503 0.0660 Uiso
C21 C -0.1904(3) 0.8702(3) 0.1886(2) 0.0400 Uani
C22 C -0.2037(4) 0.8929(3) 0.1315(2) 0.0563 Uani
H23 H -0.2037 0.8642 0.0991 0.0680 Uiso
C23 C -0.2171(5) 0.9587(3) 0.1228(3) 0.0757 Uani
H24 H -0.2297 0.9739 0.0843 0.0910 Uiso
C24 C -0.2125(5) 1.0018(3) 0.1681(3) 0.0893 Uani
H25 H -0.2210 1.0462 0.1608 0.1070 Uiso
C25 C -0.1958(5) 0.9808(3) 0.2235(3) 0.0750 Uani
H26 H -0.1913 1.0106 0.2549 0.0900 Uiso
C26 C -0.1852(4) 0.9156(3) 0.2345(2) 0.0467 Uani
C27 C -0.1612(4) 0.8949(3) 0.2933(2) 0.0503 Uani
H27 H -0.1448 0.9275 0.3205 0.0600 Uiso
C28 C -0.1214(4) 0.8268(3) 0.3714(2) 0.0520 Uani
H28 H -0.1067 0.8686 0.3897 0.0620 Uiso
H29 H -0.0631 0.8025 0.3676 0.0620 Uiso
C29 C -0.1854(4) 0.7905(3) 0.4112(2) 0.0593 Uani
H30 H -0.2455 0.8128 0.4121 0.0710 Uiso
H31 H -0.1599 0.7912 0.4516 0.0710 Uiso
C30 C -0.2009(4) 0.7218(3) 0.3932(2) 0.0467 Uani
H32 H -0.1406 0.7002 0.3890 0.0560 Uiso
H33 H -0.2355 0.6995 0.4246 0.0560 Uiso
C31 C -0.3222(4) 0.6787(2) 0.3373(2) 0.0397 Uani
H34 H -0.3393 0.6612 0.3743 0.0480 Uiso
C32 C -0.3781(3) 0.6602(3) 0.2867(2) 0.0403 Uani
C33 C -0.4597(3) 0.6266(3) 0.2960(2) 0.0510 Uani
H35 H -0.4786 0.6177 0.3351 0.0610 Uiso
C34 C -0.5127(4) 0.6061(3) 0.2508(3) 0.0613 Uani
H36 H -0.5688 0.5842 0.2582 0.0730 Uiso
C35 C -0.4841(4) 0.6175(3) 0.1930(3) 0.0563 Uani
H37 H -0.5210 0.6031 0.1612 0.0670 Uiso
C36 C -0.4025(3) 0.6497(3) 0.1819(2) 0.0440 Uani
H38 H -0.3831 0.6565 0.1425 0.0530 Uiso
C37 C -0.3481(3) 0.6724(2) 0.2289(2) 0.0377 Uani
N4 N -0.1597(3) 0.8381(2) 0.31223(17) 0.0437 Uani
N5 N -0.2528(3) 0.71598(19) 0.33677(16) 0.0347 Uani
O4 O -0.1777(2) 0.80856(19) 0.19665(13) 0.0483 Uani
O5 O -0.2693(2) 0.70207(15) 0.21711(12) 0.0355 Uani
Mn2 Mn -0.21333(5) 0.76495(4) 0.26475(3) 0.0381 Uani
O6 O -0.08594(19) 0.70691(14) 0.26603(13) 0.0359 Uani
C38 C 0.0032(3) 0.7262(2) 0.2466(3) 0.0620 Uani
H39 H -0.0019 0.7471 0.2082 0.0930 Uiso
H40 H 0.0431 0.6886 0.2434 0.0930 Uiso
H41 H 0.0296 0.7564 0.2750 0.0930 Uiso
O7 O -0.3491(2) 0.81639(16) 0.26576(15) 0.0447 Uani
C39 C -0.4184(6) 0.8178(4) 0.2145(4) 0.0570 Uiso
H42 H -0.4691 0.7882 0.2228 0.0850 Uiso
H43 H -0.3874 0.8049 0.1782 0.0850 Uiso
H44 H -0.4427 0.8613 0.2100 0.0850 Uiso
O8 O -0.3988(4) 0.9065(3) 0.3379(3) 0.0680 Uiso
C40 C -0.4346(6) 0.9586(5) 0.3097(4) 0.0710 Uiso
H45 H -0.4790 0.9800 0.3355 0.1060 Uiso
H46 H -0.4656 0.9447 0.2737 0.1060 Uiso
H47 H -0.3849 0.9884 0.2998 0.1060 Uiso
C42 C 0.3923(3) 0.8266(2) 0.45847(19) 0.0230 Uani
C43 C 0.4743(3) 0.7940(2) 0.42732(19) 0.0260 Uani
C44 C 0.6372(3) 0.7956(2) 0.58850(19) 0.0260 Uani
C45 C 0.7116(3) 0.8376(2) 0.55920(18) 0.0247 Uani
C46 C 0.5188(3) 0.9956(2) 0.54612(19) 0.0227 Uani
C47 C 0.5251(3) 0.9971(2) 0.47811(19) 0.0227 Uani
C48 C 0.5541(3) 1.2188(2) 0.42924(18) 0.0207 Uani
C49 C 0.6422(3) 1.1883(2) 0.45803(19) 0.0230 Uani
C50 C 0.3082(3) 1.1562(2) 0.55868(18) 0.0223 Uani
C51 C 0.3758(3) 1.1946(2) 0.59687(19) 0.0263 Uani
C52 C 0.3086(3) 0.7220(2) 0.2421(2) 0.0233 Uani
C53 C 0.3144(3) 0.7962(2) 0.2468(2) 0.0263 Uani
O10 O 0.41253(18) 0.86229(14) 0.50230(12) 0.0291 Uani
O11 O 0.5530(2) 0.80942(15) 0.44755(13) 0.0298 Uani
O12 O 0.3143(2) 0.81636(16) 0.44048(13) 0.0323 Uani
O13 O 0.45841(18) 0.75680(15) 0.38658(13) 0.0332 Uani
O14 O 0.5553(2) 0.80572(14) 0.57218(13) 0.0277 Uani
O15 O 0.68139(19) 0.87600(15) 0.52115(12) 0.0285 Uani
O16 O 0.66248(19) 0.75424(15) 0.62517(13) 0.0332 Uani
O17 O 0.7932(2) 0.83097(15) 0.57392(12) 0.0322 Uani
O18 O 0.53077(19) 0.94133(16) 0.56918(12) 0.0280 Uani
O19 O 0.5445(2) 0.94393(15) 0.45464(12) 0.0272 Uani
O20 O 0.5046(2) 1.04616(16) 0.57208(12) 0.0332 Uani
O21 O 0.5087(2) 1.04788(15) 0.45276(13) 0.0304 Uani
O22 O 0.4794(2) 1.20176(15) 0.44713(13) 0.0304 Uani
O23 O 0.63207(19) 1.15225(15) 0.49945(13) 0.0314 Uani
O24 O 0.57157(18) 1.25941(14) 0.38855(12) 0.0287 Uani
O25 O 0.71796(19) 1.20499(14) 0.43452(12) 0.0265 Uani
O26 O 0.33965(18) 1.12261(15) 0.51977(13) 0.0295 Uani
O27 O 0.4593(2) 1.19012(15) 0.58782(13) 0.0305 Uani
O28 O 0.2236(2) 1.16331(14) 0.57215(12) 0.0267 Uani
O29 O 0.33852(19) 1.22880(14) 0.63803(12) 0.0297 Uani
O30 O 0.3099(2) 0.69056(14) 0.28787(13) 0.0306 Uani
O31 O 0.3183(2) 0.82117(15) 0.29532(13) 0.0358 Uani
O32 O 0.3048(2) 0.69991(14) 0.19041(13) 0.0281 Uani
O33 O 0.3137(2) 0.82530(14) 0.19742(13) 0.0278 Uani
Cr1 Cr 0.29614(5) 0.76762(4) 0.12993(3) 0.0272 Uani
Cr2 Cr 0.54697(5) 0.87224(4) 0.51162(3) 0.0265 Uani
Mn3 Mn 0.48872(5) 1.12838(4) 0.51468(3) 0.0296 Uani
Mn4 Mn 0.31256(5) 0.75019(4) 0.36530(3) 0.0343 Uani
O16B O 0.16248(19) 0.74576(15) 0.37483(13) 0.0332 Uani
O17B O 0.2932(2) 0.66903(15) 0.42608(12) 0.0322 Uani
O24C O 0.42843(18) 0.75941(14) 0.11145(12) 0.0287 Uani
O25C O 0.28204(19) 0.70499(14) 0.06548(12) 0.0265 Uani
O28A O 0.2764(2) 0.83669(14) 0.07215(12) 0.0267 Uani
O29A O 0.16148(19) 0.77120(14) 0.13803(12) 0.0297 Uani
Cr1A Cr 0.20386(5) 1.23238(4) 0.62993(3) 0.0272 Uani
Cr1C Cr 0.70386(5) 1.26762(4) 0.37007(3) 0.0272 Uani
Mn4B Mn 0.81256(5) 0.74981(4) 0.63470(3) 0.0343 Uani
O34 O 0.4324(5) 0.5806(4) 0.4318(3) 0.0640 Uiso
O35 O 0.6069(4) 0.6164(3) 0.4628(3) 0.0380 Uiso
C54 C 0.5826(6) 0.6551(4) 0.5067(4) 0.0260 Uiso
H51 H 0.5983 0.6350 0.5443 0.0390 Uiso
H52 H 0.5161 0.6629 0.5051 0.0390 Uiso
H53 H 0.6155 0.6959 0.5031 0.0390 Uiso
O36 O 0.0523(7) 0.6270(5) 0.9618(4) 0.0850 Uiso
C55 C 0.0249(10) 0.5719(7) 0.9206(7) 0.1030 Uiso
H54 H 0.0616 0.5339 0.9300 0.1540 Uiso
H55 H 0.0360 0.5845 0.8798 0.1540 Uiso
H56 H -0.0406 0.5621 0.9259 0.1540 Uiso
loop_
_atom_site_aniso_label
_atom_site_aniso_U_11
_atom_site_aniso_U_22
_atom_site_aniso_U_33
_atom_site_aniso_U_23
_atom_site_aniso_U_13
_atom_site_aniso_U_12
C1 0.030(3) 0.020(3) 0.028(3) 0.011(2) -0.003(2) -0.002(2)
C2 0.031(3) 0.038(3) 0.043(3) 0.002(3) 0.002(3) -0.003(2)
C3 0.034(3) 0.049(4) 0.054(4) 0.009(3) 0.002(3) -0.016(3)
C4 0.030(3) 0.059(4) 0.060(4) 0.020(3) 0.014(3) 0.011(3)
C5 0.035(3) 0.035(3) 0.043(3) 0.012(3) 0.010(3) 0.012(2)
C6 0.027(3) 0.024(3) 0.034(3) 0.018(2) 0.003(2) 0.002(2)
C7 0.032(3) 0.027(3) 0.029(3) 0.001(2) 0.005(2) 0.011(2)
C8 0.039(3) 0.049(3) 0.020(3) -0.002(2) -0.011(2) -0.004(3)
C9 0.031(3) 0.061(4) 0.025(3) -0.017(3) -0.010(2) -0.015(3)
C10 0.028(3) 0.073(4) 0.043(3) -0.010(3) -0.014(3) 0.002(3)
C11 0.028(3) 0.034(3) 0.027(3) -0.002(2) 0.003(2) -0.006(2)
C12 0.026(2) 0.030(3) 0.025(3) -0.007(2) 0.004(2) -0.002(2)
C13 0.036(3) 0.037(3) 0.030(3) -0.006(2) 0.008(3) -0.002(3)
C14 0.056(4) 0.041(3) 0.035(3) 0.007(3) 0.021(3) 0.002(3)
C15 0.051(3) 0.048(4) 0.018(3) 0.004(2) 0.010(2) 0.009(3)
C16 0.034(3) 0.032(3) 0.031(3) -0.007(2) 0.003(2) -0.004(2)
C17 0.025(2) 0.033(3) 0.014(2) -0.008(2) -0.0030(19) 0.003(2)
N1 0.032(2) 0.034(3) 0.020(2) 0.0052(18) -0.0039(18) 0.004(2)
N2 0.033(2) 0.034(2) 0.015(2) -0.0099(18) -0.0063(18) -0.0003(19)
O1 0.0224(16) 0.0288(18) 0.0267(18) -0.0042(15) 0.0028(15) -0.0046(14)
O2 0.0278(17) 0.036(2) 0.0165(17) 0.0004(14) -0.0030(14) -0.0021(15)
Mn1 0.0229(3) 0.0297(4) 0.0159(4) -0.0024(3) -0.0020(3) 0.0003(3)
N3 0.042(3) 0.040(3) 0.024(2) 0.006(2) 0.003(2) -0.004(2)
C18 0.048(3) 0.055(4) 0.045(4) -0.001(3) -0.001(3) 0.012(3)
C19 0.092(5) 0.060(4) 0.041(4) 0.025(3) 0.000(3) 0.029(4)
O3 0.0355(18) 0.0300(19) 0.0264(18) 0.0030(15) 0.0011(15) 0.0016(15)
C20 0.062(4) 0.044(4) 0.027(3) 0.007(3) 0.013(3) 0.004(3)
C21 0.050(3) 0.047(4) 0.023(3) -0.002(3) 0.012(2) 0.001(3)
C22 0.068(4) 0.068(4) 0.033(3) 0.004(3) 0.007(3) -0.021(3)
C23 0.119(6) 0.080(5) 0.028(4) 0.005(3) 0.013(4) -0.023(5)
C24 0.147(7) 0.065(5) 0.056(5) -0.018(4) 0.025(5) -0.026(5)
C25 0.135(6) 0.056(5) 0.034(4) 0.008(3) 0.008(4) -0.023(4)
C26 0.062(4) 0.051(4) 0.027(3) -0.004(3) 0.009(3) -0.014(3)
C27 0.075(4) 0.051(4) 0.025(3) -0.012(3) 0.008(3) -0.002(3)
C28 0.068(4) 0.052(4) 0.036(3) -0.018(3) -0.007(3) 0.002(3)
C29 0.076(4) 0.076(5) 0.026(3) -0.014(3) 0.001(3) 0.013(4)
C30 0.050(3) 0.069(4) 0.021(3) -0.003(3) 0.001(3) 0.006(3)
C31 0.051(3) 0.049(3) 0.019(3) -0.001(3) 0.004(2) 0.010(3)
C32 0.033(3) 0.061(4) 0.027(3) -0.017(3) 0.000(2) 0.010(3)
C33 0.038(3) 0.072(4) 0.043(4) -0.008(3) 0.007(3) 0.011(3)
C34 0.029(3) 0.090(5) 0.065(4) -0.017(4) -0.005(3) 0.001(3)
C35 0.028(3) 0.089(5) 0.052(4) -0.013(4) -0.018(3) 0.013(3)
C36 0.030(3) 0.069(4) 0.033(3) -0.011(3) -0.004(2) 0.024(3)
C37 0.034(3) 0.046(3) 0.033(3) -0.008(3) -0.005(3) 0.020(3)
N4 0.056(3) 0.055(3) 0.020(2) -0.011(2) 0.004(2) 0.013(3)
N5 0.032(2) 0.043(3) 0.029(2) -0.007(2) -0.0019(19) 0.002(2)
O4 0.072(3) 0.053(3) 0.0200(19) -0.0094(18) 0.0113(18) 0.008(2)
O5 0.036(2) 0.047(2) 0.0235(18) -0.0106(16) -0.0005(15) 0.0099(17)
Mn2 0.0468(5) 0.0481(5) 0.0194(4) -0.0093(4) 0.0005(3) 0.0088(4)
O6 0.0307(18) 0.046(2) 0.031(2) -0.0050(17) 0.0081(15) -0.0015(16)
C38 0.056(4) 0.048(4) 0.082(4) -0.024(3) 0.014(3) -0.012(3)
O7 0.047(2) 0.052(2) 0.035(2) -0.0014(18) 0.0029(17) 0.0210(17)
C42 0.027(3) 0.028(3) 0.014(2) 0.001(2) -0.001(2) 0.004(2)
C43 0.034(3) 0.030(3) 0.014(2) -0.001(2) 0.006(2) -0.003(2)
C44 0.039(3) 0.022(3) 0.017(3) -0.004(2) 0.008(2) 0.003(2)
C45 0.025(3) 0.031(3) 0.018(3) -0.006(2) 0.009(2) 0.000(2)
C46 0.020(2) 0.028(3) 0.020(2) -0.007(2) 0.005(2) 0.001(2)
C47 0.020(2) 0.029(3) 0.019(3) 0.000(2) 0.001(2) -0.005(2)
C48 0.024(2) 0.023(3) 0.015(2) -0.004(2) -0.002(2) 0.004(2)
C49 0.030(3) 0.019(3) 0.020(3) -0.003(2) 0.003(2) 0.001(2)
C50 0.035(3) 0.017(3) 0.015(3) 0.0015(19) -0.005(2) -0.002(2)
C51 0.033(3) 0.025(3) 0.021(3) 0.008(2) 0.000(2) 0.006(2)
C52 0.021(2) 0.025(3) 0.024(3) -0.003(2) -0.005(2) -0.001(2)
C53 0.028(3) 0.029(3) 0.022(3) -0.004(2) -0.001(2) -0.003(2)
O10 0.0312(17) 0.034(2) 0.0222(19) 0.0024(16) 0.0048(14) 0.0071(15)
O11 0.0300(18) 0.034(2) 0.0254(19) -0.0052(16) 0.0031(15) 0.0009(16)
O12 0.0219(17) 0.045(2) 0.030(2) -0.0103(16) -0.0038(15) 0.0018(16)
O13 0.0330(18) 0.039(2) 0.0276(18) -0.0105(17) 0.0040(14) -0.0001(16)
O14 0.0260(17) 0.027(2) 0.0302(19) -0.0005(15) -0.0005(15) 0.0010(15)
O15 0.0302(17) 0.038(2) 0.0172(16) 0.0055(16) 0.0022(14) -0.0017(16)
O16 0.035 0.038 0.0265 0.0024 0.0039 0.0052
O17 0.0278 0.046 0.0228 0.0039 -0.0015 -0.0019
O18 0.0365(19) 0.029(2) 0.0185(17) 0.0000(15) 0.0021(14) -0.0024(17)
O19 0.0376(19) 0.028(2) 0.0159(16) -0.0033(15) 0.0017(14) 0.0009(16)
O20 0.048(2) 0.035(2) 0.0166(17) -0.0003(15) 0.0042(15) -0.0054(18)
O21 0.0360(19) 0.034(2) 0.0211(18) 0.0031(16) 0.0065(15) -0.0013(17)
O22 0.0215(17) 0.037(2) 0.0328(19) 0.0050(16) -0.0027(15) 0.0063(16)
O23 0.0336(18) 0.038(2) 0.0225(19) 0.0046(16) -0.0004(15) -0.0015(16)
O24 0.028 0.0285 0.0296 0.0077 -0.0041 -0.002
O25 0.0243 0.033 0.0222 0.0048 -0.0018 -0.0011
O26 0.0293(17) 0.037(2) 0.0221(17) -0.0070(17) 0.0046(14) 0.0039(15)
O27 0.0258(18) 0.038(2) 0.0276(19) -0.0030(16) -0.0016(15) 0.0023(16)
O28 0.0282 0.0273 0.0246 -0.0032 0.0003 0.0009
O29 0.0377 0.0289 0.0226 -0.0075 -0.0072 0.0034
O30 0.044(2) 0.030(2) 0.0177(18) 0.0024(15) -0.0038(15) -0.0006(17)
O31 0.061(2) 0.026(2) 0.0204(19) -0.0046(15) 0.0002(17) -0.0070(18)
O32 0.0363(19) 0.0267(19) 0.0212(17) -0.0037(14) -0.0028(15) -0.0006(16)
O33 0.044(2) 0.0182(18) 0.0212(18) -0.0018(14) 0.0015(15) 0.0036(15)
Cr1 0.0326(4) 0.0302(4) 0.0189(4) -0.0024(4) -0.0020(3) 0.0039(4)
Cr2 0.0272(4) 0.0338(5) 0.0184(4) -0.0015(4) 0.0025(3) -0.0007(4)
Mn3 0.0319(4) 0.0319(4) 0.0249(4) -0.0002(4) 0.0066(3) -0.0010(4)
Mn4 0.0383(4) 0.0448(5) 0.0199(4) -0.0021(4) -0.0006(3) -0.0088(4)
O16B 0.035 0.038 0.0265 0.0024 -0.0039 -0.0052
O17B 0.0278 0.046 0.0228 0.0039 0.0015 0.0019
O24C 0.028 0.0285 0.0296 -0.0077 -0.0041 0.002
O25C 0.0243 0.033 0.0222 -0.0048 -0.0018 0.0011
O28A 0.0282 0.0273 0.0246 0.0032 -0.0003 0.0009
O29A 0.0377 0.0289 0.0226 0.0075 0.0072 0.0034
Cr1A 0.0326 0.0302 0.0189 0.0024 0.002 0.0039
Cr1C 0.0326 0.0302 0.0189 0.0024 -0.002 -0.0039
Mn4B 0.0383 0.0448 0.0199 -0.0021 0.0006 0.0088
loop_
_geom_bond_atom_site_label_1
_geom_bond_atom_site_label_2
_geom_bond_site_symmetry_1
_geom_bond_site_symmetry_2
C1 C2 1_555 1_555
C2 H1 1_555 1_555
C3 C2 1_555 1_555
H2 C3 1_555 1_555
C4 C3 1_555 1_555
H3 C4 1_555 1_555
C5 C4 1_555 1_555
H4 C5 1_555 1_555
C6 C1 1_555 1_555
C7 C6 1_555 1_555
H5 C7 1_555 1_555
C8 H6 1_555 1_555
H7 C8 1_555 1_555
C9 C8 1_555 1_555
H8 C9 1_555 1_555
H9 C9 1_555 1_555
C10 C9 1_555 1_555
H10 C10 1_555 1_555
H11 C10 1_555 1_555
C11 H12 1_555 1_555
C12 C11 1_555 1_555
C13 C12 1_555 1_555
H13 C13 1_555 1_555
C14 C13 1_555 1_555
H14 C14 1_555 1_555
C15 C14 1_555 1_555
H15 C15 1_555 1_555
C16 C15 1_555 1_555
H16 C16 1_555 1_555
C17 C12 1_555 1_555
N1 C7 1_555 1_555
N2 C10 1_555 1_555
O1 C1 1_555 1_555
O2 C17 1_555 1_555
Mn1 N1 1_555 1_555
N3 Mn1 1_555 1_555
C18 N3 1_555 1_555
C19 C18 1_555 1_555
H17 C19 1_555 1_555
H18 C19 1_555 1_555
H19 C19 1_555 1_555
O3 Mn1 1_555 1_555
C20 O3 1_555 1_555
H20 C20 1_555 1_555
H21 C20 1_555 1_555
H22 C20 1_555 1_555
C21 C22 1_555 1_555
C22 H23 1_555 1_555
C23 C22 1_555 1_555
H24 C23 1_555 1_555
C24 C23 1_555 1_555
H25 C24 1_555 1_555
C25 C24 1_555 1_555
H26 C25 1_555 1_555
C26 C21 1_555 1_555
C27 C26 1_555 1_555
H27 C27 1_555 1_555
C28 H28 1_555 1_555
H29 C28 1_555 1_555
C29 C28 1_555 1_555
H30 C29 1_555 1_555
H31 C29 1_555 1_555
C30 C29 1_555 1_555
H32 C30 1_555 1_555
H33 C30 1_555 1_555
C31 H34 1_555 1_555
C32 C31 1_555 1_555
C33 C32 1_555 1_555
H35 C33 1_555 1_555
C34 C33 1_555 1_555
H36 C34 1_555 1_555
C35 C34 1_555 1_555
H37 C35 1_555 1_555
C36 C35 1_555 1_555
H38 C36 1_555 1_555
C37 C32 1_555 1_555
N4 C27 1_555 1_555
N5 C30 1_555 1_555
O4 C21 1_555 1_555
O5 C37 1_555 1_555
Mn2 N4 1_555 1_555
O6 Mn2 1_555 1_555
C38 O6 1_555 1_555
H39 C38 1_555 1_555
H40 C38 1_555 1_555
H41 C38 1_555 1_555
O7 Mn2 1_555 1_555
C39 O7 1_555 1_555
H42 C39 1_555 1_555
H43 C39 1_555 1_555
H44 C39 1_555 1_555
O8 C40 1_555 1_555
C40 H45 1_555 1_555
H46 C40 1_555 1_555
H47 C40 1_555 1_555
C42 C43 1_555 1_555
C43 O11 1_555 1_555
C44 C45 1_555 1_555
C45 O15 1_555 1_555
C46 C47 1_555 1_555
C47 O19 1_555 1_555
C48 C49 1_555 1_555
C49 O23 1_555 1_555
C50 C51 1_555 1_555
C51 O27 1_555 1_555
C52 C53 1_555 1_555
C53 O31 1_555 1_555
O10 C42 1_555 1_555
O11 Cr2 1_555 1_555
O12 C42 1_555 1_555
O13 C43 1_555 1_555
O14 C44 1_555 1_555
O15 Cr2 1_555 1_555
O16 C44 1_555 1_555
O17 C45 1_555 1_555
O18 C46 1_555 1_555
O19 Cr2 1_555 1_555
O20 C46 1_555 1_555
O21 C47 1_555 1_555
O22 C48 1_555 1_555
O23 Mn3 1_555 1_555
O24 C48 1_555 1_555
O25 C49 1_555 1_555
O26 C50 1_555 1_555
O27 Mn3 1_555 1_555
O28 C50 1_555 1_555
O29 C51 1_555 1_555
O30 C52 1_555 1_555
O31 Mn4 1_555 1_555
O32 C52 1_555 1_555
O33 C53 1_555 1_555
Cr1 O32 1_555 1_555
Cr2 O10 1_555 1_555
Mn3 O20 1_555 1_555
Mn4 O12 1_555 1_555
O35 C54 1_555 1_555
C54 H51 1_555 1_555
H52 C54 1_555 1_555
H53 C54 1_555 1_555
O36 C55 1_555 1_555
C55 H54 1_555 1_555
H55 C55 1_555 1_555
H56 C55 1_555 1_555
O16B Mn4 1_555 1_555
O17B Mn4 1_555 1_555
O24C Cr1 1_555 1_555
O25C Cr1 1_555 1_555
O28A Cr1 1_555 1_555
O29A Cr1 1_555 1_555
Cr1A O28 1_555 1_555
Cr1C O24 1_555 1_555
Mn4B O16 1_555 1_555
C5 C6 1_555 1_555
C8 N1 1_555 1_555
C11 N2 1_555 1_555
C16 C17 1_555 1_555
N2 Mn1 1_555 1_555
O1 Mn1 1_555 1_555
O2 Mn1 1_555 1_555
C25 C26 1_555 1_555
C28 N4 1_555 1_555
C31 N5 1_555 1_555
C36 C37 1_555 1_555
N5 Mn2 1_555 1_555
O4 Mn2 1_555 1_555
O5 Mn2 1_555 1_555
O13 Mn4 1_555 1_555
O14 Cr2 1_555 1_555
O17 Mn4B 1_555 1_555
O18 Cr2 1_555 1_555
O21 Mn3 1_555 1_555
O22 Mn3 1_555 1_555
O25 Cr1C 1_555 1_555
O26 Mn3 1_555 1_555
O29 Cr1A 1_555 1_555
O30 Mn4 1_555 1_555
O33 Cr1 1_555 1_555

#END
