
#######################################################################
#
#                 Cambridge Crystallographic Data Centre
#                                CCDC 
#
#######################################################################
#
# If this CIF has been generated from an entry in the Cambridge 
# Structural Database, then it will include bibliographic, chemical, 
# crystal, experimental, refinement or atomic coordinate data resulting 
# from the CCDC's data processing and validation procedures.
#
#######################################################################

data_LAFFEG
_chemical_formula_moiety         '(C62 H53 N17 O14 Zn3 2-)n'
_symmetry_cell_setting           rhombohedral
_symmetry_space_group_name_H-M   'R -3'
_symmetry_Int_Tables_number      148
_space_group_name_Hall           '-R 3'
loop_
_symmetry_equiv_pos_site_id
_symmetry_equiv_pos_as_xyz
1 x,y,z
2 -y,x-y,z
3 -x+y,-x,z
4 2/3+x,1/3+y,1/3+z
5 2/3-y,1/3+x-y,1/3+z
6 2/3-x+y,1/3-x,1/3+z
7 1/3+x,2/3+y,2/3+z
8 1/3-y,2/3+x-y,2/3+z
9 1/3-x+y,2/3-x,2/3+z
10 -x,-y,-z
11 y,-x+y,-z
12 x-y,x,-z
13 1/3-x,2/3-y,2/3-z
14 1/3+y,2/3-x+y,2/3-z
15 1/3+x-y,2/3+x,2/3-z
16 2/3-x,1/3-y,1/3-z
17 2/3+y,1/3-x+y,1/3-z
18 2/3+x-y,1/3+x,1/3-z
_cell_length_a                   31.3837(10)
_cell_length_b                   31.3837(10)
_cell_length_c                   15.0411(7)
_cell_angle_alpha                90
_cell_angle_beta                 90
_cell_angle_gamma                120
_cell_volume                     12829.8
loop_
_atom_site_label
_atom_site_type_symbol
_atom_site_fract_x
_atom_site_fract_y
_atom_site_fract_z
Zn1 Zn 0.061264(15) 0.730992(15) 0.48673(2)
C1 C 0.14864(12) 0.73902(12) 0.5458(2)
C2 C 0.18600(12) 0.72225(12) 0.5515(2)
C3 C 0.17617(11) 0.67775(11) 0.5142(2)
H1 H 0.1458 0.6574 0.4879
C4 C 0.21149(11) 0.66367(11) 0.5160(2)
H2 H 0.2043 0.6335 0.4917
C5 C 0.25809(11) 0.69400(11) 0.55392(18)
C6 C 0.26604(12) 0.73728(12) 0.5947(2)
H3 H 0.2959 0.7572 0.6231
C7 C 0.23084(12) 0.75127(12) 0.5939(2)
H4 H 0.2371 0.7803 0.6219
C8 C 0.29646(11) 0.68001(11) 0.55190(18)
C9 C 0.34620(12) 0.71595(11) 0.55146(18)
H5 H 0.3549 0.7490 0.5509
C10 C 0.07503(13) 0.81984(13) 0.4332(2)
C11 C 0.05805(12) 0.85583(12) 0.4163(2)
C12 C 0.08447(13) 0.89570(13) 0.3592(2)
H6 H 0.1124 0.8994 0.3307
C13 C 0.06952(12) 0.92960(12) 0.3447(2)
H7 H 0.0881 0.9563 0.3077
C14 C 0.02734(11) 0.92475(11) 0.38419(19)
C15 C 0.00008(11) 0.88413(11) 0.4392(2)
H8 H -0.0288 0.8795 0.4651
C16 C 0.01560(12) 0.85074(11) 0.4555(2)
H9 H -0.0027 0.8243 0.4933
C17 C 0.01294(11) 0.96315(11) 0.37437(18)
C18 C -0.03648(11) 0.95086(11) 0.37381(19)
H10 H -0.0609 0.9179 0.3731
C19 C 0.04298(12) 0.67123(13) 0.3172(2)
O1 O 0.10901(12) 0.82086(12) 0.3912(3)
O2 O 0.05184(11) 0.78754(10) 0.49310(17)
O3 O 0.15106(10) 0.77166(9) 0.59555(17)
O4 O 0.11539(9) 0.71745(10) 0.48704(16)
N1 N -0.02817(12) 0.65741(16) 0.2791(2)
N2 N 0.00799(10) 0.64808(11) 0.25675(18)
N3 N -0.01572(13) 0.68480(16) 0.3491(2)
N4 N 0.08706(13) 0.67365(17) 0.3173(3)
H11 H 0.0943 0.6595 0.2759
H12 H 0.1079 0.6894 0.3588
N5 N 0.02920(10) 0.69404(11) 0.37588(18)
C1A C 0.26098(12) 0.40962(17) 0.5458(2)
C2A C 0.27775(12) 0.46375(17) 0.5515(2)
C3A C 0.32225(11) 0.49842(16) 0.5142(2)
H1A H 0.3426 0.4884 0.4879
C4A C 0.33633(11) 0.54782(16) 0.5160(2)
H2A H 0.3665 0.5708 0.4917
C5A C 0.30600(11) 0.56409(16) 0.55392(18)
C6A C 0.26272(12) 0.52876(17) 0.5947(2)
H3A H 0.2428 0.5387 0.6231
C7A C 0.24873(12) 0.47957(17) 0.5939(2)
H4A H 0.2197 0.4568 0.6219
C8A C 0.31999(11) 0.61645(16) 0.55190(18)
C9A C 0.28405(11) 0.63025(16) 0.55146(18)
H5A H 0.2510 0.6059 0.5509
O3A O 0.22834(9) 0.37940(13) 0.59555(17)
O4A O 0.28255(10) 0.39794(13) 0.48704(16)
C1B C 0.59038(17) 0.85136(12) 0.5458(2)
C2B C 0.53625(17) 0.81400(12) 0.5515(2)
C3B C 0.50158(16) 0.82383(11) 0.5142(2)
H1B H 0.5116 0.8542 0.4879
C4B C 0.45218(16) 0.78851(11) 0.5160(2)
H2B H 0.4292 0.7957 0.4917
C5B C 0.43591(16) 0.74191(11) 0.55392(18)
C6B C 0.47124(17) 0.73396(12) 0.5947(2)
H3B H 0.4613 0.7041 0.6231
C7B C 0.52043(17) 0.76916(12) 0.5939(2)
H4B H 0.5432 0.7629 0.6219
C8B C 0.38355(16) 0.70354(11) 0.55190(18)
C9B C 0.36975(16) 0.65380(12) 0.55146(18)
H5B H 0.3941 0.6451 0.5509
O3B O 0.62060(13) 0.84894(10) 0.59555(17)
O4B O 0.60206(13) 0.88461(9) 0.48704(16)
C10A C 0.18016(13) 1.25519(18) 0.4332(2)
C11A C 0.14417(12) 1.20222(17) 0.4163(2)
C12A C 0.10430(13) 1.18877(18) 0.3592(2)
H6A H 0.1006 1.2130 0.3307
C13A C 0.07040(12) 1.13992(17) 0.3447(2)
H7A H 0.0437 1.1318 0.3077
C14A C 0.07525(11) 1.10259(16) 0.38419(19)
C15A C 0.11587(11) 1.11595(16) 0.4392(2)
H8A H 0.1205 1.0917 0.4651
C16A C 0.14926(11) 1.16486(16) 0.4555(2)
H9A H 0.1757 1.1730 0.4933
C17A C 0.03685(11) 1.04979(16) 0.37437(18)
C18A C 0.04914(11) 1.01266(16) 0.37381(19)
H10A H 0.0821 1.0212 0.3731
O1A O 0.17914(12) 1.28815(17) 0.3912(3)
O2A O 0.21246(10) 1.26430(15) 0.49310(17)
C10B C -0.25519(18) 0.92497(13) 0.4332(2)
C11B C -0.20222(17) 0.94195(12) 0.4163(2)
C12B C -0.18877(18) 0.91553(13) 0.3592(2)
H6B H -0.2130 0.8876 0.3307
C13B C -0.13992(17) 0.93048(12) 0.3447(2)
H7B H -0.1318 0.9119 0.3077
C14B C -0.10259(16) 0.97266(11) 0.38419(19)
C15B C -0.11595(16) 0.99992(11) 0.4392(2)
H8B H -0.0917 1.0288 0.4651
C16B C -0.16486(16) 0.98440(12) 0.4555(2)
H9B H -0.1730 1.0027 0.4933
C17B C -0.04979(16) 0.98706(11) 0.37437(18)
C18B C -0.01266(16) 1.03648(11) 0.37381(19)
H10B H -0.0212 1.0609 0.3731
O1B O -0.28815(17) 0.89099(12) 0.3912(3)
O2B O -0.26430(15) 0.94816(11) 0.49310(17)
Zn1A Zn 0.269008(15) 0.330272(21) 0.48673(2)
C19A C 0.32877(13) 0.37175(18) 0.3172(2)
N1A N 0.34259(16) 0.31442(20) 0.2791(2)
N2A N 0.35192(11) 0.35991(15) 0.25675(18)
N3A N 0.31520(16) 0.29948(21) 0.3491(2)
N4A N 0.32635(17) 0.41341(21) 0.3173(3)
H11A H 0.3405 0.4348 0.2759
H12A H 0.3106 0.4185 0.3588
N5A N 0.30596(11) 0.33516(15) 0.37588(18)
Zn1D Zn -0.064325(15) 0.663605(21) 0.82006(2)
C19D C -0.00456(13) 0.70508(18) 0.6505(2)
N1D N 0.00926(16) 0.64775(20) 0.6124(2)
N2D N 0.01859(11) 0.69324(15) 0.59008(18)
N3D N -0.01813(16) 0.63281(21) 0.6824(2)
N4D N -0.00698(17) 0.74674(21) 0.6506(3)
H11D H 0.0072 0.7681 0.6092
H12D H -0.0227 0.7518 0.6921
N5D N -0.02737(11) 0.66849(15) 0.70921(18)
Zn1A_2 Zn 0.269008(15) 1.330272(21) 0.48673(2)
Zn1B Zn -0.330272(21) 0.938736(15) 0.48673(2)
Zn1B_2 Zn 0.669728(21) 0.938736(15) 0.48673(2)
Zn1F Zn 0.394597(15) 0.397659(15) 0.15340(2)
Zn1H Zn 0.003061(21) 0.605403(15) 0.15340(2)
O2A_2 O 0.21246(10) 0.26430(15) 0.49310(17)
O2D O -0.12087(10) 0.59763(15) 0.82643(17)
O4D O -0.05078(10) 0.73127(13) 0.82037(16)
N2E N 0.30676(15) 0.32534(10) 0.59008(18)
N2H N -0.02658(15) 0.65868(10) 0.92342(18)
C20 C -0.0612(2) 0.5064(3) 0.7432(6)
H13 H -0.0694 0.4893 0.6874
H14 H -0.0693 0.5321 0.7412
H15 H -0.0795 0.4837 0.7900
C21 C 0.0080(3) 0.5551(3) 0.8464(5)
H16 H 0.0428 0.5677 0.8522
H17 H -0.0088 0.5333 0.8951
H18 H 0.0015 0.5818 0.8470
N6 N -0.00986(15) 0.52718(16) 0.7596(3)
H19 H 0.0068 0.5478 0.7147
H20 H -0.0026 0.5028 0.7592
C22 C 0.0798(4) 0.4357(3) 0.5533(5)
H21 H 0.0519 0.4287 0.5897
H22 H 0.1051 0.4360 0.5896
H23 H 0.0701 0.4108 0.5084
C23 C 0.1399(2) 0.5002(3) 0.4562(6)
H24 H 0.1484 0.5319 0.4326
H25 H 0.1327 0.4774 0.4083
H26 H 0.1670 0.5029 0.4903
C24 C 0.0773(3) 0.5098(2) 0.5273(3)
H27 H 0.0503 0.4961 0.5652
O5 O 0.0898(2) 0.55079(16) 0.4970(3)
N7 N 0.09836(19) 0.48332(17) 0.5113(3)
O6 O 0.04709(16) 0.58357(15) 0.6181(3)
H28 H 0.0378 0.6039 0.6042
H29 H 0.0595 0.5779 0.5725
loop_
_geom_bond_atom_site_label_1
_geom_bond_atom_site_label_2
_geom_bond_site_symmetry_1
_geom_bond_site_symmetry_2
Zn1 O2 1_555 1_555
C1 C2 1_555 1_555
C2 C3 1_555 1_555
C3 H1 1_555 1_555
C4 C3 1_555 1_555
H2 C4 1_555 1_555
C5 C4 1_555 1_555
C6 C5 1_555 1_555
H3 C6 1_555 1_555
C7 C2 1_555 1_555
H4 C7 1_555 1_555
C8 C5 1_555 1_555
C9 C8 1_555 1_555
H5 C9 1_555 1_555
C10 C11 1_555 1_555
C11 C12 1_555 1_555
C12 H6 1_555 1_555
C13 C12 1_555 1_555
H7 C13 1_555 1_555
C14 C13 1_555 1_555
C15 C14 1_555 1_555
H8 C15 1_555 1_555
C16 C11 1_555 1_555
H9 C16 1_555 1_555
C17 C14 1_555 1_555
C18 C17 1_555 1_555
H10 C18 1_555 1_555
C19 N2 1_555 1_555
O1 C10 1_555 1_555
O2 C10 1_555 1_555
O3 C1 1_555 1_555
O4 Zn1 1_555 1_555
N1 N2 1_555 1_555
N2 Zn1H 1_555 1_555
N3 N1 1_555 1_555
N4 C19 1_555 1_555
H11 N4 1_555 1_555
H12 N4 1_555 1_555
N5 Zn1 1_555 1_555
C20 H13 1_555 1_555
H14 C20 1_555 1_555
H15 C20 1_555 1_555
C21 H16 1_555 1_555
H17 C21 1_555 1_555
H18 C21 1_555 1_555
N6 C20 1_555 1_555
H19 N6 1_555 1_555
H20 N6 1_555 1_555
C22 H21 1_555 1_555
H22 C22 1_555 1_555
H23 C22 1_555 1_555
C23 H24 1_555 1_555
H25 C23 1_555 1_555
H26 C23 1_555 1_555
C24 H27 1_555 1_555
O5 C24 1_555 1_555
N7 C22 1_555 1_555
O6 H28 1_555 1_555
H29 O6 1_555 1_555
C1A C2A 1_555 1_555
C2A C3A 1_555 1_555
C3A H1A 1_555 1_555
C4A C3A 1_555 1_555
H2A C4A 1_555 1_555
C5A C4A 1_555 1_555
C6A C5A 1_555 1_555
H3A C6A 1_555 1_555
C7A C2A 1_555 1_555
H4A C7A 1_555 1_555
C8A C5A 1_555 1_555
C9A C8 1_555 1_555
H5A C9A 1_555 1_555
O3A C1A 1_555 1_555
O4A C1A 1_555 1_555
C1B C2B 1_555 1_555
C2B C3B 1_555 1_555
C3B H1B 1_555 1_555
C4B C3B 1_555 1_555
H2B C4B 1_555 1_555
C5B C4B 1_555 1_555
C6B C5B 1_555 1_555
H3B C6B 1_555 1_555
C7B C2B 1_555 1_555
H4B C7B 1_555 1_555
C8B C9 1_555 1_555
C9B C8A 1_555 1_555
H5B C9B 1_555 1_555
O3B C1B 1_555 1_555
O4B C1B 1_555 1_555
C10A C11A 1_555 1_555
C11A C12A 1_555 1_555
C12A H6A 1_555 1_555
C13A C12A 1_555 1_555
H7A C13A 1_555 1_555
C14A C13A 1_555 1_555
C15A C14A 1_555 1_555
H8A C15A 1_555 1_555
C16A C11A 1_555 1_555
H9A C16A 1_555 1_555
C17A C14A 1_555 1_555
C18A C17 1_555 1_555
H10A C18A 1_555 1_555
O1A C10A 1_555 1_555
O2A C10A 1_555 1_555
C10B C11B 1_555 1_555
C11B C12B 1_555 1_555
C12B H6B 1_555 1_555
C13B C12B 1_555 1_555
H7B C13B 1_555 1_555
C14B C13B 1_555 1_555
C15B C14B 1_555 1_555
H8B C15B 1_555 1_555
C16B C11B 1_555 1_555
H9B C16B 1_555 1_555
C17B C18 1_555 1_555
C18B C17A 1_555 1_555
H10B C18B 1_555 1_555
O1B C10B 1_555 1_555
O2B C10B 1_555 1_555
Zn1A O4A 1_555 1_555
C19A N2A 1_555 1_555
N1A N2A 1_555 1_555
N2A Zn1F 1_555 1_555
N3A N1A 1_555 1_555
N4A C19A 1_555 1_555
H11A N4A 1_555 1_555
H12A N4A 1_555 1_555
N5A Zn1A 1_555 1_555
Zn1D N5D 1_555 1_555
C19D N2D 1_555 1_555
N1D N2D 1_555 1_555
N2D Zn1 1_555 1_555
N3D N1D 1_555 1_555
N4D C19D 1_555 1_555
H11D N4D 1_555 1_555
H12D N4D 1_555 1_555
N5D C19D 1_555 1_555
Zn1A_2 O2A 1_555 1_555
Zn1B O2B 1_555 1_555
Zn1B_2 O4B 1_555 1_555
O2A_2 Zn1A 1_555 1_555
O2D Zn1D 1_555 1_555
O4D Zn1D 1_555 1_555
N2E Zn1A 1_555 1_555
N2H Zn1D 1_555 1_555
C1 O4 1_555 1_555
C6 C7 1_555 1_555
C15 C16 1_555 1_555
C19 N5 1_555 1_555
N3 N5 1_555 1_555
C21 N6 1_555 1_555
C23 N7 1_555 1_555
C24 N7 1_555 1_555
C6A C7A 1_555 1_555
C8A C9A 1_555 1_555
C5B C8B 1_555 1_555
C6B C7B 1_555 1_555
C8B C9B 1_555 1_555
C15A C16A 1_555 1_555
C17A C18A 1_555 1_555
C14B C17B 1_555 1_555
C15B C16B 1_555 1_555
C17B C18B 1_555 1_555
C19A N5A 1_555 1_555
N3A N5A 1_555 1_555
N3D N5D 1_555 1_555

#END
