
#######################################################################
#
#                 Cambridge Crystallographic Data Centre
#                                CCDC 
#
#######################################################################
#
# If this CIF has been generated from an entry in the Cambridge 
# Structural Database, then it will include bibliographic, chemical, 
# crystal, experimental, refinement or atomic coordinate data resulting 
# from the CCDC's data processing and validation procedures.
#
#######################################################################

data_LAFFEG02
_chemical_formula_moiety         '(C62 H53 N17 O14 Zn3 2-)n'
_symmetry_cell_setting           rhombohedral
_symmetry_space_group_name_H-M   'R -3'
_symmetry_Int_Tables_number      148
_space_group_name_Hall           '-R 3'
loop_
_symmetry_equiv_pos_site_id
_symmetry_equiv_pos_as_xyz
1 x,y,z
2 -y,x-y,z
3 -x+y,-x,z
4 2/3+x,1/3+y,1/3+z
5 2/3-y,1/3+x-y,1/3+z
6 2/3-x+y,1/3-x,1/3+z
7 1/3+x,2/3+y,2/3+z
8 1/3-y,2/3+x-y,2/3+z
9 1/3-x+y,2/3-x,2/3+z
10 -x,-y,-z
11 y,-x+y,-z
12 x-y,x,-z
13 1/3-x,2/3-y,2/3-z
14 1/3+y,2/3-x+y,2/3-z
15 1/3+x-y,2/3+x,2/3-z
16 2/3-x,1/3-y,1/3-z
17 2/3+y,1/3-x+y,1/3-z
18 2/3+x-y,1/3+x,1/3-z
_cell_length_a                   31.4077(9)
_cell_length_b                   31.4077(9)
_cell_length_c                   15.0945(7)
_cell_angle_alpha                90
_cell_angle_beta                 90
_cell_angle_gamma                120
_cell_volume                     12895
loop_
_atom_site_label
_atom_site_type_symbol
_atom_site_fract_x
_atom_site_fract_y
_atom_site_fract_z
Zn1 Zn 0.06099(2) 0.73073(2) 0.48688(4)
C1 C 0.14877(18) 0.73931(18) 0.5454(3)
C2 C 0.18614(17) 0.72238(17) 0.5509(3)
C3 C 0.17635(17) 0.67761(17) 0.5133(3)
H1 H 0.1460 0.6572 0.4870
C4 C 0.21152(17) 0.66387(17) 0.5153(3)
H2 H 0.2044 0.6339 0.4906
C5 C 0.25817(17) 0.69405(16) 0.5539(3)
C6 C 0.26610(18) 0.73749(18) 0.5944(3)
H3 H 0.2959 0.7575 0.6227
C7 C 0.2307(2) 0.75147(19) 0.5933(3)
H4 H 0.2368 0.7804 0.6211
C8 C 0.29656(17) 0.67981(17) 0.5520(3)
C9 C 0.34646(17) 0.71604(18) 0.5516(3)
H5 H 0.3552 0.7490 0.5510
C10 C 0.0747(2) 0.81930(19) 0.4334(4)
C11 C 0.05795(18) 0.85585(18) 0.4167(3)
C12 C 0.08423(19) 0.89555(19) 0.3593(4)
H6 H 0.1120 0.8991 0.3306
C13 C 0.0695(2) 0.92930(19) 0.3449(3)
H7 H 0.0881 0.9560 0.3080
C14 C 0.02707(17) 0.92456(16) 0.3841(3)
C15 C 0.00002(17) 0.88435(16) 0.4393(3)
H8 H -0.0286 0.8802 0.4658
C16 C 0.01507(18) 0.85032(17) 0.4556(3)
H9 H -0.0035 0.8237 0.4926
C17 C 0.01307(17) 0.96325(16) 0.3745(3)
C18 C -0.03652(17) 0.95084(17) 0.3740(3)
H10 H -0.0609 0.9179 0.3734
C19 C 0.04252(18) 0.6707(2) 0.3180(3)
O1 O 0.10882(19) 0.8207(2) 0.3917(4)
O2 O 0.05124(18) 0.78729(15) 0.4926(3)
O3 O 0.15096(16) 0.77167(14) 0.5946(3)
O4 O 0.11538(14) 0.71742(15) 0.4866(3)
N1 N -0.02840(19) 0.6573(3) 0.2798(4)
N2 N 0.00779(15) 0.64786(17) 0.2570(3)
N3 N -0.01587(19) 0.6847(3) 0.3493(4)
N4 N 0.0867(2) 0.6735(3) 0.3178(4)
H11 H 0.0942 0.6599 0.2759
H12 H 0.1074 0.6889 0.3596
N5 N 0.02896(15) 0.69370(17) 0.3763(3)
C1A C 0.26069(18) 0.40946(25) 0.5454(3)
C2A C 0.27762(17) 0.46376(24) 0.5509(3)
C3A C 0.32239(17) 0.49874(24) 0.5133(3)
H1A H 0.3428 0.4888 0.4870
C4A C 0.33613(17) 0.54765(24) 0.5153(3)
H2A H 0.3661 0.5705 0.4906
C5A C 0.30595(16) 0.56412(23) 0.5539(3)
C6A C 0.26251(18) 0.52861(25) 0.5944(3)
H3A H 0.2425 0.5384 0.6227
C7A C 0.24853(19) 0.47923(28) 0.5933(3)
H4A H 0.2196 0.4564 0.6211
C8A C 0.32019(17) 0.61675(24) 0.5520(3)
C9A C 0.28396(18) 0.63042(25) 0.5516(3)
H5A H 0.2510 0.6062 0.5510
O3A O 0.22833(14) 0.37929(21) 0.5946(3)
O4A O 0.28258(15) 0.39796(21) 0.4866(3)
C1B C 0.59054(25) 0.85123(18) 0.5454(3)
C2B C 0.53624(24) 0.81386(17) 0.5509(3)
C3B C 0.50126(24) 0.82365(17) 0.5133(3)
H1B H 0.5112 0.8540 0.4870
C4B C 0.45235(24) 0.78848(17) 0.5153(3)
H2B H 0.4295 0.7956 0.4906
C5B C 0.43588(23) 0.74183(17) 0.5539(3)
C6B C 0.47139(25) 0.73390(18) 0.5944(3)
H3B H 0.4616 0.7041 0.6227
C7B C 0.52077(28) 0.7693(2) 0.5933(3)
H4B H 0.5436 0.7632 0.6211
C8B C 0.38325(24) 0.70344(17) 0.5520(3)
C9B C 0.36958(25) 0.65354(17) 0.5516(3)
H5B H 0.3938 0.6448 0.5510
O3B O 0.62071(21) 0.84904(16) 0.5946(3)
O4B O 0.60204(21) 0.88462(14) 0.4866(3)
C10A C 0.18070(19) 1.25540(28) 0.4334(4)
C11A C 0.14415(18) 1.20210(25) 0.4167(3)
C12A C 0.10445(19) 1.18868(27) 0.3593(4)
H6A H 0.1009 1.2129 0.3306
C13A C 0.07070(19) 1.14020(28) 0.3449(3)
H7A H 0.0440 1.1321 0.3080
C14A C 0.07544(16) 1.10251(23) 0.3841(3)
C15A C 0.11565(16) 1.11567(23) 0.4393(3)
H8A H 0.1198 1.0912 0.4658
C16A C 0.14968(17) 1.16475(25) 0.4556(3)
H9A H 0.1763 1.1728 0.4926
C17A C 0.03675(16) 1.04982(23) 0.3745(3)
C18A C 0.04916(17) 1.01264(24) 0.3740(3)
H10A H 0.0821 1.0212 0.3734
O1A O 0.1793(2) 1.28812(28) 0.3917(4)
O2A O 0.21271(15) 1.26395(23) 0.4926(3)
C10B C -0.25540(28) 0.9253(2) 0.4334(4)
C11B C -0.20210(25) 0.94205(18) 0.4167(3)
C12B C -0.18868(27) 0.91577(19) 0.3593(4)
H6B H -0.2129 0.8880 0.3306
C13B C -0.14020(28) 0.9305(2) 0.3449(3)
H7B H -0.1321 0.9119 0.3080
C14B C -0.10251(23) 0.97293(17) 0.3841(3)
C15B C -0.11567(23) 0.99998(17) 0.4393(3)
H8B H -0.0912 1.0286 0.4658
C16B C -0.16475(25) 0.98493(18) 0.4556(3)
H9B H -0.1728 1.0035 0.4926
C17B C -0.04982(23) 0.98693(17) 0.3745(3)
C18B C -0.01264(24) 1.03652(17) 0.3740(3)
H10B H -0.0212 1.0609 0.3734
O1B O -0.28812(28) 0.89118(19) 0.3917(4)
O2B O -0.26395(23) 0.94876(18) 0.4926(3)
Zn1A Zn 0.26927(2) 0.33026(3) 0.48688(4)
C19A C 0.3293(2) 0.37182(27) 0.3180(3)
N1A N 0.3427(3) 0.31430(36) 0.2798(4)
N2A N 0.35214(17) 0.35993(23) 0.2570(3)
N3A N 0.3153(3) 0.29943(36) 0.3493(4)
N4A N 0.3265(3) 0.4132(4) 0.3178(4)
H11A H 0.3401 0.4343 0.2759
H12A H 0.3111 0.4185 0.3596
N5A N 0.30630(17) 0.33526(23) 0.3763(3)
Zn1D Zn -0.06406(2) 0.66359(3) 0.82021(4)
C19D C -0.0040(2) 0.70515(27) 0.6513(3)
N1D N 0.0094(3) 0.64763(36) 0.6131(4)
N2D N 0.01881(17) 0.69326(23) 0.5903(3)
N3D N -0.0180(3) 0.63276(36) 0.6826(4)
N4D N -0.0068(3) 0.7465(4) 0.6511(4)
H11D H 0.0068 0.7676 0.6092
H12D H -0.0222 0.7518 0.6929
N5D N -0.02703(17) 0.66859(23) 0.7096(3)
Zn1A_2 Zn 0.26927(2) 1.33026(3) 0.48688(4)
Zn1B Zn -0.33026(3) 0.93901(2) 0.48688(4)
Zn1B_2 Zn 0.66974(3) 0.93901(2) 0.48688(4)
Zn1F Zn 0.39432(2) 0.39740(2) 0.15355(4)
Zn1H Zn 0.00307(3) 0.60568(2) 0.15355(4)
O2A_2 O 0.21271(15) 0.26395(23) 0.4926(3)
O2D O -0.12062(15) 0.59728(23) 0.8259(3)
O4D O -0.05075(15) 0.73129(21) 0.8199(3)
N2E N 0.30674(23) 0.32554(15) 0.5903(3)
N2H N -0.02660(23) 0.65888(15) 0.9237(3)
C20 C -0.0609(4) 0.5072(5) 0.7453(12)
H13 H -0.0694 0.4900 0.6897
H14 H -0.0686 0.5331 0.7435
H15 H -0.0792 0.4847 0.7921
C21 C 0.0081(7) 0.5551(6) 0.8478(8)
H16 H 0.0428 0.5676 0.8532
H17 H -0.0087 0.5333 0.8963
H18 H 0.0016 0.5819 0.8488
N6 N -0.0102(3) 0.5272(3) 0.7609(6)
H19 H 0.0065 0.5478 0.7161
H20 H -0.0033 0.5027 0.7602
C22 C 0.0804(7) 0.4360(5) 0.5541(8)
H21 H 0.0526 0.4289 0.5904
H22 H 0.1059 0.4367 0.5902
H23 H 0.0708 0.4111 0.5095
C23 C 0.1392(4) 0.4994(6) 0.4551(10)
H24 H 0.1478 0.5311 0.4312
H25 H 0.1310 0.4763 0.4076
H26 H 0.1665 0.5018 0.4878
C24 C 0.0771(5) 0.5097(4) 0.5291(6)
H27 H 0.0500 0.4961 0.5666
O5 O 0.0910(3) 0.5514(3) 0.4982(5)
N7 N 0.0985(3) 0.4836(3) 0.5118(5)
O6 O 0.0473(3) 0.5836(3) 0.6185(5)
H28 H 0.0381 0.6039 0.6046
H29 H 0.0597 0.5780 0.5729
loop_
_geom_bond_atom_site_label_1
_geom_bond_atom_site_label_2
_geom_bond_site_symmetry_1
_geom_bond_site_symmetry_2
Zn1 O2 1_555 1_555
C1 C2 1_555 1_555
C2 C3 1_555 1_555
C3 H1 1_555 1_555
C4 C3 1_555 1_555
H2 C4 1_555 1_555
C5 C4 1_555 1_555
C6 C5 1_555 1_555
H3 C6 1_555 1_555
C7 C2 1_555 1_555
H4 C7 1_555 1_555
C8 C5 1_555 1_555
C9 C8 1_555 1_555
H5 C9 1_555 1_555
C10 C11 1_555 1_555
C11 C12 1_555 1_555
C12 H6 1_555 1_555
C13 C12 1_555 1_555
H7 C13 1_555 1_555
C14 C13 1_555 1_555
C15 C14 1_555 1_555
H8 C15 1_555 1_555
C16 C11 1_555 1_555
H9 C16 1_555 1_555
C17 C14 1_555 1_555
C18 C17 1_555 1_555
H10 C18 1_555 1_555
C19 N2 1_555 1_555
O1 C10 1_555 1_555
O2 C10 1_555 1_555
O3 C1 1_555 1_555
O4 Zn1 1_555 1_555
N1 N2 1_555 1_555
N2 Zn1H 1_555 1_555
N3 N1 1_555 1_555
N4 C19 1_555 1_555
H11 N4 1_555 1_555
H12 N4 1_555 1_555
N5 Zn1 1_555 1_555
C20 H13 1_555 1_555
H14 C20 1_555 1_555
H15 C20 1_555 1_555
C21 H16 1_555 1_555
H17 C21 1_555 1_555
H18 C21 1_555 1_555
N6 C20 1_555 1_555
H19 N6 1_555 1_555
H20 N6 1_555 1_555
C22 H21 1_555 1_555
H22 C22 1_555 1_555
H23 C22 1_555 1_555
C23 H24 1_555 1_555
H25 C23 1_555 1_555
H26 C23 1_555 1_555
C24 H27 1_555 1_555
O5 C24 1_555 1_555
N7 C22 1_555 1_555
O6 H28 1_555 1_555
H29 O6 1_555 1_555
C1A C2A 1_555 1_555
C2A C3A 1_555 1_555
C3A H1A 1_555 1_555
C4A C3A 1_555 1_555
H2A C4A 1_555 1_555
C5A C4A 1_555 1_555
C6A C5A 1_555 1_555
H3A C6A 1_555 1_555
C7A C2A 1_555 1_555
H4A C7A 1_555 1_555
C8A C5A 1_555 1_555
C9A C8 1_555 1_555
H5A C9A 1_555 1_555
O3A C1A 1_555 1_555
O4A C1A 1_555 1_555
C1B C2B 1_555 1_555
C2B C3B 1_555 1_555
C3B H1B 1_555 1_555
C4B C3B 1_555 1_555
H2B C4B 1_555 1_555
C5B C4B 1_555 1_555
C6B C5B 1_555 1_555
H3B C6B 1_555 1_555
C7B C2B 1_555 1_555
H4B C7B 1_555 1_555
C8B C9 1_555 1_555
C9B C8A 1_555 1_555
H5B C9B 1_555 1_555
O3B C1B 1_555 1_555
O4B C1B 1_555 1_555
C10A C11A 1_555 1_555
C11A C12A 1_555 1_555
C12A H6A 1_555 1_555
C13A C12A 1_555 1_555
H7A C13A 1_555 1_555
C14A C13A 1_555 1_555
C15A C14A 1_555 1_555
H8A C15A 1_555 1_555
C16A C11A 1_555 1_555
H9A C16A 1_555 1_555
C17A C14A 1_555 1_555
C18A C17 1_555 1_555
H10A C18A 1_555 1_555
O1A C10A 1_555 1_555
O2A C10A 1_555 1_555
C10B C11B 1_555 1_555
C11B C12B 1_555 1_555
C12B H6B 1_555 1_555
C13B C12B 1_555 1_555
H7B C13B 1_555 1_555
C14B C13B 1_555 1_555
C15B C14B 1_555 1_555
H8B C15B 1_555 1_555
C16B C11B 1_555 1_555
H9B C16B 1_555 1_555
C17B C18 1_555 1_555
C18B C17A 1_555 1_555
H10B C18B 1_555 1_555
O1B C10B 1_555 1_555
O2B C10B 1_555 1_555
Zn1A O4A 1_555 1_555
C19A N2A 1_555 1_555
N1A N2A 1_555 1_555
N2A Zn1F 1_555 1_555
N3A N1A 1_555 1_555
N4A C19A 1_555 1_555
H11A N4A 1_555 1_555
H12A N4A 1_555 1_555
N5A Zn1A 1_555 1_555
Zn1D N5D 1_555 1_555
C19D N2D 1_555 1_555
N1D N2D 1_555 1_555
N2D Zn1 1_555 1_555
N3D N1D 1_555 1_555
N4D C19D 1_555 1_555
H11D N4D 1_555 1_555
H12D N4D 1_555 1_555
N5D C19D 1_555 1_555
Zn1A_2 O2A 1_555 1_555
Zn1B O2B 1_555 1_555
Zn1B_2 O4B 1_555 1_555
O2A_2 Zn1A 1_555 1_555
O2D Zn1D 1_555 1_555
O4D Zn1D 1_555 1_555
N2E Zn1A 1_555 1_555
N2H Zn1D 1_555 1_555
C1 O4 1_555 1_555
C6 C7 1_555 1_555
C15 C16 1_555 1_555
C19 N5 1_555 1_555
N3 N5 1_555 1_555
C21 N6 1_555 1_555
C23 N7 1_555 1_555
C24 N7 1_555 1_555
C6A C7A 1_555 1_555
C8A C9A 1_555 1_555
C5B C8B 1_555 1_555
C6B C7B 1_555 1_555
C8B C9B 1_555 1_555
C15A C16A 1_555 1_555
C17A C18A 1_555 1_555
C14B C17B 1_555 1_555
C15B C16B 1_555 1_555
C17B C18B 1_555 1_555
C19A N5A 1_555 1_555
N3A N5A 1_555 1_555
N3D N5D 1_555 1_555

#END
