
#######################################################################
#
#                 Cambridge Crystallographic Data Centre
#                                CCDC 
#
#######################################################################
#
# If this CIF has been generated from an entry in the Cambridge 
# Structural Database, then it will include bibliographic, chemical, 
# crystal, experimental, refinement or atomic coordinate data resulting 
# from the CCDC's data processing and validation procedures.
#
#######################################################################

data_QACRES
_chemical_formula_moiety         '(C6 H18 F2 Ga6 N2 O24 P6)n'
_symmetry_cell_setting           monoclinic
_symmetry_space_group_name_H-M   'P 21/n'
_symmetry_Int_Tables_number      14
_space_group_name_Hall           '-P 2yn'
loop_
_symmetry_equiv_pos_site_id
_symmetry_equiv_pos_as_xyz
1 x,y,z
2 1/2-x,1/2+y,1/2-z
3 -x,-y,-z
4 1/2+x,1/2-y,1/2+z
_cell_length_a                   8.861(3)
_cell_length_b                   18.624(5)
_cell_length_c                   9.329(3)
_cell_angle_alpha                90
_cell_angle_beta                 118.27(2)
_cell_angle_gamma                90
_cell_volume                     1355.91
loop_
_atom_site_label
_atom_site_type_symbol
_atom_site_fract_x
_atom_site_fract_y
_atom_site_fract_z
Ga1 Ga 0.4946(1) 0.2201(1) 0.8554(1)
Ga2 Ga 0.3997(1) 0.4419(1) 0.8771(1)
Ga3 Ga -0.0128(1) 0.1794(1) 0.8161(1)
P1 P 0.2199(2) 0.0987(1) 0.6996(2)
P2 P 0.2390(2) 0.3065(1) 0.9523(2)
P3 P 0.8809(2) 0.1628(1) 1.0956(2)
F1 F 0.5750(4) 0.5137(2) 0.9141(4)
O1 O 0.7039(5) 0.1979(2) 1.0202(5)
O2 O 0.1550(5) 0.1232(2) 0.8192(5)
O3 O 0.2244(4) 0.3780(2) 0.8678(5)
O4 O 0.2844(5) 0.3199(2) 1.1307(5)
O5 O 0.8853(4) 0.0933(2) 1.1811(4)
O6 O 0.2649(4) 0.0180(2) 0.7244(4)
O7 O 0.3907(4) 0.1386(2) 0.7461(5)
O8 O 0.0908(4) 0.1180(2) 0.5250(4)
O9 O 1.0104(5) 0.2175(2) 1.2137(5)
O10 O 0.0621(5) 0.2714(2) 0.8674(5)
O11 O 0.9327(5) 0.1435(2) 0.9654(5)
O12 O 0.3747(5) 0.2563(2) 0.9520(5)
P3C P 0.3809(2) 0.3372(1) 0.5956(2)
O1C O 0.2039(5) 0.3021(2) 0.5202(5)
O5C O 0.3853(4) 0.4067(2) 0.6811(4)
O9C O 0.5104(5) 0.2825(2) 0.7137(5)
O11C O 0.4327(5) 0.3565(2) 0.4654(5)
Ga1C Ga -0.0054(1) 0.2799(1) 0.3554(1)
Ga2C Ga 0.8997(1) 0.0581(1) 1.3771(1)
Ga3C Ga 0.4872(1) 0.3206(1) 1.3161(1)
F1B F 0.4250(4) 0.4863(2) 1.0859(4)
P1A P 0.2801(2) 0.5987(1) 0.8004(2)
O2A O 0.3450(5) 0.6232(2) 0.6808(5)
O6A O 0.2351(4) 0.5180(2) 0.7756(4)
O7A O 0.1093(4) 0.6386(2) 0.7539(5)
O8A O 0.4092(4) 0.6180(2) 0.9750(4)
P2C P -0.2610(2) 0.1935(1) 0.4523(2)
O3C O -0.2756(4) 0.1220(2) 0.3678(5)
O4C O -0.2156(5) 0.1801(2) 0.6307(5)
O10C O -0.4379(5) 0.2286(2) 0.3674(5)
O12C O -0.1253(5) 0.2437(2) 0.4520(5)
O8C O 0.5908(4) 0.3820(2) 1.0250(4)
O11_2 O -0.0673(5) 0.1435(2) 0.9654(5)
Ga2B Ga 0.6003(1) 0.5581(1) 1.1229(1)
Ga2A Ga 0.1003(1) -0.0581(1) 0.6229(1)
Ga2C_2 Ga -0.1003(1) 0.0581(1) 0.3771(1)
Ga1C_2 Ga 0.9946(1) 0.2799(1) 1.3554(1)
Ga3_2 Ga 0.9872(1) 0.1794(1) 0.8161(1)
Ga3C_2 Ga 0.4872(1) 0.3206(1) 0.3161(1)
O7C O -0.1093(4) 0.3614(2) 0.2461(5)
O9_2 O 0.0104(5) 0.2175(2) 0.2137(5)
F1A F 0.9250(4) 0.0137(2) 1.5859(4)
F1C F 1.0750(4) -0.0137(2) 1.4141(4)
O3C_2 O 0.7244(4) 0.1220(2) 1.3678(5)
O6B O 0.7351(4) -0.0180(2) 1.2756(4)
O8_2 O 1.0908(4) 0.1180(2) 1.5250(4)
O2C O 0.6550(5) 0.3768(2) 1.3192(5)
O10C_2 O 0.5621(5) 0.2286(2) 1.3674(5)
O11C_2 O 0.4327(5) 0.3565(2) 1.4654(5)
Ga3A Ga 0.5128(1) 0.6794(1) 0.6839(1)
Ga1A Ga 0.0054(1) 0.7201(1) 0.6446(1)
Ga3C_3 Ga -0.5128(1) 0.3206(1) 0.3161(1)
N1 N -0.5873(6) 0.0399(3) 0.2881(6)
C1 C -0.5567(7) -0.0148(3) 0.4156(7)
C2 C -0.6875(8) 0.1021(3) 0.2973(10)
C3 C -0.6778(9) 0.0052(4) 0.1215(8)
H1 H -0.4838(6) 0.0563(3) 0.3038(6)
H2 H -0.5027(7) -0.0567(3) 0.3978(7)
H3 H -0.6656(7) -0.0296(3) 0.4071(7)
H4 H -0.7054(56) 0.1359(13) 0.2129(39)
H5 H -0.6256(31) 0.1250(17) 0.4015(24)
H6 H -0.7963(27) 0.0857(5) 0.2835(63)
H7 H -0.7016(59) 0.0409(7) 0.0393(8)
H8 H -0.6059(28) -0.0314(19) 0.1137(23)
H9 H -0.7834(33) -0.0158(24) 0.1061(25)
C1B C -0.4433(7) 0.0148(3) 0.5844(7)
N1B N -0.4127(6) -0.0399(3) 0.7119(6)
C2B C -0.3125(8) -0.1021(3) 0.7027(10)
H4B H -0.2946(56) -0.1359(13) 0.7871(39)
H5B H -0.3744(31) -0.1250(17) 0.5985(24)
H6B H -0.2037(27) -0.0857(5) 0.7165(63)
C3B C -0.3222(9) -0.0052(4) 0.8785(8)
H7B H -0.2984(59) -0.0409(7) 0.9607(8)
H8B H -0.3941(28) 0.0314(19) 0.8863(23)
H9B H -0.2166(33) 0.0158(24) 0.8939(25)
H1B H -0.5162(6) -0.0563(3) 0.6962(6)
H2B H -0.4973(7) 0.0567(3) 0.6022(7)
H3B H -0.3344(7) 0.0296(3) 0.5929(7)
loop_
_geom_bond_atom_site_label_1
_geom_bond_atom_site_label_2
_geom_bond_site_symmetry_1
_geom_bond_site_symmetry_2
Ga1 O1 1_555 1_555
Ga2 F1 1_555 1_555
Ga3 O2 1_555 1_555
P1 O2 1_555 1_555
P2 O3 1_555 1_555
P3 O1 1_555 1_555
F1 Ga2B 1_555 1_555
O3 Ga2 1_555 1_555
O4 P2 1_555 1_555
O5 P3 1_555 1_555
O6 P1 1_555 1_555
O7 Ga1 1_555 1_555
O8 P1 1_555 1_555
O9 P3 1_555 1_555
O10 Ga3 1_555 1_555
O11 P3 1_555 1_555
O12 Ga1 1_555 1_555
N1 C1 1_555 1_555
C1 H2 1_555 1_555
C2 N1 1_555 1_555
C3 N1 1_555 1_555
H1 N1 1_555 1_555
H3 C1 1_555 1_555
H4 C2 1_555 1_555
H5 C2 1_555 1_555
H6 C2 1_555 1_555
H7 C3 1_555 1_555
H8 C3 1_555 1_555
H9 C3 1_555 1_555
C1B C1 1_555 1_555
N1B C1B 1_555 1_555
C2B N1B 1_555 1_555
H4B C2B 1_555 1_555
H5B C2B 1_555 1_555
H6B C2B 1_555 1_555
C3B N1B 1_555 1_555
H7B C3B 1_555 1_555
H8B C3B 1_555 1_555
H9B C3B 1_555 1_555
H1B N1B 1_555 1_555
H2B C1B 1_555 1_555
H3B C1B 1_555 1_555
P3C O1C 1_555 1_555
O1C Ga1C 1_555 1_555
O5C Ga2 1_555 1_555
O9C Ga1 1_555 1_555
O11C P3C 1_555 1_555
Ga1C O12C 1_555 1_555
Ga2C O5 1_555 1_555
Ga3C O4 1_555 1_555
F1B Ga2 1_555 1_555
P1A O2A 1_555 1_555
O2A Ga3A 1_555 1_555
O6A Ga2 1_555 1_555
O7A P1A 1_555 1_555
O8A P1A 1_555 1_555
P2C O3C 1_555 1_555
O3C Ga2C_2 1_555 1_555
O4C Ga3 1_555 1_555
O10C P2C 1_555 1_555
O12C P2C 1_555 1_555
O8C Ga2 1_555 1_555
O11_2 Ga3 1_555 1_555
Ga2B F1B 1_555 1_555
Ga2A O6 1_555 1_555
Ga2C_2 O8 1_555 1_555
Ga1C_2 O9 1_555 1_555
Ga3_2 O11 1_555 1_555
Ga3C_2 O11C 1_555 1_555
O7C Ga1C 1_555 1_555
O9_2 Ga1C 1_555 1_555
F1A Ga2C 1_555 1_555
F1C Ga2C 1_555 1_555
O3C_2 Ga2C 1_555 1_555
O6B Ga2C 1_555 1_555
O8_2 Ga2C 1_555 1_555
O2C Ga3C 1_555 1_555
O10C_2 Ga3C 1_555 1_555
O11C_2 Ga3C 1_555 1_555
Ga1A O7A 1_555 1_555
Ga3C_3 O10C 1_555 1_555
P1 O7 1_555 1_555
P2 O10 1_555 1_555
P2 O12 1_555 1_555
P3C O5C 1_555 1_555
P3C O9C 1_555 1_555
P1A O6A 1_555 1_555
O8A Ga2B 1_555 1_555
P2C O4C 1_555 1_555

#END
