
#######################################################################
#
#                 Cambridge Crystallographic Data Centre
#                                CCDC 
#
#######################################################################
#
# If this CIF has been generated from an entry in the Cambridge 
# Structural Database, then it will include bibliographic, chemical, 
# crystal, experimental, refinement or atomic coordinate data resulting 
# from the CCDC's data processing and validation procedures.
#
#######################################################################

data_XOTXAG
_chemical_formula_moiety         '(C14 H26 La1 Na1 O19)n'
_symmetry_cell_setting           monoclinic
_symmetry_space_group_name_H-M   'P 21/c'
_symmetry_Int_Tables_number      14
_space_group_name_Hall           '-P 2ybc'
loop_
_symmetry_equiv_pos_site_id
_symmetry_equiv_pos_as_xyz
1 x,y,z
2 -x,1/2+y,1/2-z
3 -x,-y,-z
4 x,1/2-y,1/2+z
_cell_length_a                   6.44670(10)
_cell_length_b                   21.6974(3)
_cell_length_c                   16.6485(3)
_cell_angle_alpha                90
_cell_angle_beta                 91.2830(10)
_cell_angle_gamma                90
_cell_volume                     2328.15
loop_
_atom_site_label
_atom_site_type_symbol
_atom_site_fract_x
_atom_site_fract_y
_atom_site_fract_z
La1 La 0.43754(2) 0.077726(8) 0.219314(10)
Na1 Na 0.3883(2) 0.07417(7) 0.46196(10)
C1 C 0.2059(4) 0.27018(15) 0.28712(18)
C2 C 0.3426(5) 0.30909(15) 0.3271(2)
H1 H 0.4565 0.2928 0.3550
C3 C 0.3106(5) 0.37301(15) 0.3260(2)
H2 H 0.4030 0.3987 0.3536
C4 C 0.1454(4) 0.39793(14) 0.28484(19)
C5 C -0.0185(4) 0.35853(14) 0.25438(18)
C6 C 0.0133(4) 0.29374(14) 0.25555(18)
C7 C -0.1489(4) 0.25432(14) 0.22400(18)
C8 C -0.3122(4) 0.27996(15) 0.18213(19)
H3 H -0.4034 0.2546 0.1533
C9 C -0.3444(5) 0.34375(15) 0.1819(2)
H4 H -0.4576 0.3601 0.1537
C10 C -0.2113(4) 0.38237(15) 0.22281(19)
C11 C 0.2855(4) 0.20751(15) 0.26575(19)
C12 C 0.1643(4) 0.46418(14) 0.25918(19)
C13 C -0.1668(4) 0.18748(14) 0.24786(19)
C14 C -0.2902(4) 0.44557(15) 0.2433(2)
O1 O 0.4055(4) 0.17932(11) 0.31421(15)
O2 O 0.2441(3) 0.18588(11) 0.19698(14)
O3 O -0.1019(3) 0.17387(11) 0.31815(14)
O4 O -0.2569(3) 0.15057(11) 0.20044(14)
O5 O -0.4065(3) 0.47337(11) 0.19323(15)
O6 O -0.2483(3) 0.46792(11) 0.31182(15)
O7 O 0.1015(3) 0.47786(11) 0.18924(14)
O8 O 0.2557(3) 0.50210(10) 0.30642(14)
O9 O 0.0855(4) 0.07847(11) 0.14021(17)
O10 O 0.4997(4) 0.07982(15) 0.07188(17)
O11 O 0.6455(3) 0.07518(10) 0.35489(14)
O12 O 0.1613(3) 0.07613(10) 0.33300(15)
O13 O 0.4818(5) 0.18490(15) 0.47408(17)
O14 O 0.1160(5) 0.09837(16) 0.55276(19)
O15 O 0.6878(5) 0.03670(15) 0.53663(17)
La1_2 La -0.56246(2) 0.077726(8) 0.219314(10)
La1A La -0.43754(2) 0.577726(8) 0.280686(10)
La1A_2 La 0.56246(2) 0.577726(8) 0.280686(10)
Na1B Na 0.6117(2) -0.07417(7) 0.53804(10)
O4_2 O 0.7431(3) 0.15057(11) 0.20044(14)
O5A O 0.4065(3) -0.02663(11) 0.30677(15)
O6A O 0.2483(3) -0.03208(11) 0.18818(15)
O8A O 0.7443(3) 0.00210(10) 0.19358(14)
O15B O 0.3122(5) -0.03670(15) 0.46337(17)
O16 O 0.8347(5) -0.26780(17) -0.06467(19)
O17 O 0.8116(5) -0.03471(17) 0.02622(19)
O18 O 1.1542(5) -0.24582(18) 0.0485(2)
O19 O 1.1971(6) -0.1123(2) 0.0412(3)
loop_
_geom_bond_atom_site_label_1
_geom_bond_atom_site_label_2
_geom_bond_site_symmetry_1
_geom_bond_site_symmetry_2
La1 O1 1_555 1_555
Na1 O11 1_555 1_555
C1 C2 1_555 1_555
C2 H1 1_555 1_555
C3 C2 1_555 1_555
H2 C3 1_555 1_555
C4 C3 1_555 1_555
C5 C4 1_555 1_555
C6 C1 1_555 1_555
C7 C6 1_555 1_555
C8 C7 1_555 1_555
H3 C8 1_555 1_555
C9 C8 1_555 1_555
H4 C9 1_555 1_555
C10 C5 1_555 1_555
C11 C1 1_555 1_555
C12 C4 1_555 1_555
C13 C7 1_555 1_555
C14 C10 1_555 1_555
O1 C11 1_555 1_555
O2 La1 1_555 1_555
O3 C13 1_555 1_555
O4 C13 1_555 1_555
O5 C14 1_555 1_555
O6 C14 1_555 1_555
O7 C12 1_555 1_555
O8 C12 1_555 1_555
O9 La1 1_555 1_555
O10 La1 1_555 1_555
O11 La1 1_555 1_555
O12 La1 1_555 1_555
O13 Na1 1_555 1_555
O14 Na1 1_555 1_555
O15 Na1 1_555 1_555
La1_2 O4 1_555 1_555
La1A O5 1_555 1_555
La1A_2 O8 1_555 1_555
Na1B O15 1_555 1_555
O4_2 La1 1_555 1_555
O5A La1 1_555 1_555
O6A La1 1_555 1_555
O8A La1 1_555 1_555
O15B Na1 1_555 1_555
Na1 O12 1_555 1_555
C5 C6 1_555 1_555
C9 C10 1_555 1_555
C11 O2 1_555 1_555
O6 La1A 1_555 1_555
Na1B O15B 1_555 1_555

#END
