
#######################################################################
#
#                 Cambridge Crystallographic Data Centre
#                                CCDC 
#
#######################################################################
#
# If this CIF has been generated from an entry in the Cambridge 
# Structural Database, then it will include bibliographic, chemical, 
# crystal, experimental, refinement or atomic coordinate data resulting 
# from the CCDC's data processing and validation procedures.
#
#######################################################################

data_ZECKID
_chemical_formula_moiety         '(C12 H14 Cu2 N4 O5)n'
_symmetry_cell_setting           tetragonal
_symmetry_space_group_name_H-M   'I 41 m d'
_symmetry_Int_Tables_number      109
_space_group_name_Hall           'I 4bw -2'
loop_
_symmetry_equiv_pos_site_id
_symmetry_equiv_pos_as_xyz
1 x,y,z
2 -x,-y,z
3 -y,1/2+x,1/4+z
4 y,1/2-x,1/4+z
5 -x,y,z
6 x,-y,z
7 y,1/2+x,1/4+z
8 -y,1/2-x,1/4+z
9 1/2+x,1/2+y,1/2+z
10 1/2-x,1/2-y,1/2+z
11 1/2-y,x,3/4+z
12 1/2+y,-x,3/4+z
13 1/2-x,1/2+y,1/2+z
14 1/2+x,1/2-y,1/2+z
15 1/2+y,x,3/4+z
16 1/2-y,-x,3/4+z
_cell_length_a                   16.119(4)
_cell_length_b                   16.119(4)
_cell_length_c                   16.455(4)
_cell_angle_alpha                90
_cell_angle_beta                 90
_cell_angle_gamma                90
_cell_volume                     4275.37
loop_
_atom_site_label
_atom_site_type_symbol
_atom_site_fract_x
_atom_site_fract_y
_atom_site_fract_z
_atom_site_U_iso_or_equiv
_atom_site_thermal_displace_type
Cu1 Cu 0.0000 0.10143(6) 0.80027(7) 0.0498 Uani
N1 N 0.0899(3) 0.0419(3) 0.7441(4) 0.0490 Uani
O1 O 0.0000 0.0000 0.9071(7) 0.0673 Uani
C1 C 0.2008(6) -0.0000 0.6770(6) 0.0520 Uani
C2 C 0.1557(4) 0.0692(4) 0.7037(4) 0.0523 Uani
C3 C 0.1729(6) 0.1597(4) 0.6926(6) 0.0763 Uani
H1 H 0.1528 0.1901 0.7395 0.1140 Uiso
H2 H 0.1449 0.1794 0.6441 0.1140 Uiso
H3 H 0.2322 0.1683 0.6870 0.1140 Uiso
O2 O 0.3101(4) 0.0669(3) 0.6066(3) 0.0647 Uani
C4 C 0.2752(6) -0.0000 0.6294(6) 0.0557 Uani
Cu1A Cu -0.0000 -0.10143(6) 0.80027(7) 0.0498 Uani
Cu1J Cu 0.39857(6) 0.0000 0.55027(7) 0.0498 Uani
Cu1K Cu -0.39857(6) 0.0000 0.55027(7) 0.0498 Uani
N1E N 0.0899(3) -0.0419(3) 0.7441(4) 0.0490 Uani
N1D N -0.0899(3) 0.0419(3) 0.7441(4) 0.0490 Uani
N1A N -0.0899(3) -0.0419(3) 0.7441(4) 0.0490 Uani
C1A C -0.2008(6) -0.0000 0.6770(6) 0.0520 Uani
C2E C 0.1557(4) -0.0692(4) 0.7037(4) 0.0523 Uani
C2D C -0.1557(4) 0.0692(4) 0.7037(4) 0.0523 Uani
C2A C -0.1557(4) -0.0692(4) 0.7037(4) 0.0523 Uani
C3E C 0.1729(6) -0.1597(4) 0.6926(6) 0.0763 Uani
C3D C -0.1729(6) 0.1597(4) 0.6926(6) 0.0763 Uani
C3A C -0.1729(6) -0.1597(4) 0.6926(6) 0.0763 Uani
H1E H 0.1528 -0.1901 0.7395 0.1140 Uiso
H1D H -0.1528 0.1901 0.7395 0.1140 Uiso
H1A H -0.1528 -0.1901 0.7395 0.1140 Uiso
H2E H 0.1449 -0.1794 0.6441 0.1140 Uiso
H2D H -0.1449 0.1794 0.6441 0.1140 Uiso
H2A H -0.1449 -0.1794 0.6441 0.1140 Uiso
H3E H 0.2322 -0.1683 0.6870 0.1140 Uiso
H3D H -0.2322 0.1683 0.6870 0.1140 Uiso
H3A H -0.2322 -0.1683 0.6870 0.1140 Uiso
O2E O 0.3101(4) -0.0669(3) 0.6066(3) 0.0647 Uani
O2D O -0.3101(4) 0.0669(3) 0.6066(3) 0.0647 Uani
O2A O -0.3101(4) -0.0669(3) 0.6066(3) 0.0647 Uani
O2C O 0.0669(3) 0.1899(4) 0.8566(3) 0.0647 Uani
O2G O -0.0669(3) 0.1899(4) 0.8566(3) 0.0647 Uani
O2F O 0.0669(3) -0.1899(4) 0.8566(3) 0.0647 Uani
O2B O -0.0669(3) -0.1899(4) 0.8566(3) 0.0647 Uani
C4A C -0.2752(6) -0.0000 0.6294(6) 0.0557 Uani
loop_
_atom_site_aniso_label
_atom_site_aniso_U_11
_atom_site_aniso_U_22
_atom_site_aniso_U_33
_atom_site_aniso_U_23
_atom_site_aniso_U_13
_atom_site_aniso_U_12
Cu1 0.0386(5) 0.0500(6) 0.0607(6) -0.0181(5) 0.000 0.000
N1 0.050(3) 0.038(3) 0.059(3) 0.001(2) 0.005(2) -0.003(2)
O1 0.069(6) 0.064(6) 0.069(6) 0.000 0.000 0.000
C1 0.060(5) 0.040(4) 0.056(5) 0.000 0.019(4) 0.000
C2 0.055(3) 0.038(3) 0.064(4) -0.003(3) 0.020(3) -0.004(2)
C3 0.078(5) 0.038(3) 0.113(7) 0.003(4) 0.032(5) -0.006(3)
O2 0.068(3) 0.037(2) 0.089(4) -0.001(2) 0.033(3) -0.0020(19)
C4 0.054(5) 0.048(5) 0.065(6) 0.000 0.021(4) 0.000
Cu1A 0.0386 0.05 0.0607 0.0181 0 0
Cu1J 0.05 0.0386 0.0607 0 0.0181 0
Cu1K 0.05 0.0386 0.0607 0 -0.0181 0
N1E 0.05 0.038 0.059 -0.001 0.005 0.003
N1D 0.05 0.038 0.059 0.001 -0.005 0.003
N1A 0.05 0.038 0.059 -0.001 -0.005 -0.003
C1A 0.06 0.04 0.056 0 -0.019 0
C2E 0.055 0.038 0.064 0.003 0.02 0.004
C2D 0.055 0.038 0.064 -0.003 -0.02 0.004
C2A 0.055 0.038 0.064 0.003 -0.02 -0.004
C3E 0.078 0.038 0.113 -0.003 0.032 0.006
C3D 0.078 0.038 0.113 0.003 -0.032 0.006
C3A 0.078 0.038 0.113 -0.003 -0.032 -0.006
O2E 0.068 0.037 0.089 0.001 0.033 0.002
O2D 0.068 0.037 0.089 -0.001 -0.033 0.002
O2A 0.068 0.037 0.089 0.001 -0.033 -0.002
O2C 0.037 0.068 0.089 -0.033 -0.001 0.002
O2G 0.037 0.068 0.089 -0.033 0.001 -0.002
O2F 0.037 0.068 0.089 0.033 -0.001 -0.002
O2B 0.037 0.068 0.089 0.033 0.001 0.002
C4A 0.054 0.048 0.065 0 -0.021 0
loop_
_geom_bond_atom_site_label_1
_geom_bond_atom_site_label_2
_geom_bond_site_symmetry_1
_geom_bond_site_symmetry_2
Cu1 N1 1_555 1_555
N1 C2 1_555 1_555
O1 Cu1 1_555 1_555
C1 C2 1_555 1_555
C2 C3 1_555 1_555
C3 H1 1_555 1_555
H2 C3 1_555 1_555
H3 C3 1_555 1_555
O2 C4 1_555 1_555
C4 C1 1_555 1_555
Cu1A O1 1_555 1_555
Cu1J O2 1_555 1_555
Cu1K O2D 1_555 1_555
N1E N1 1_555 1_555
N1D Cu1 1_555 1_555
N1A Cu1A 1_555 1_555
C1A C2D 1_555 1_555
C2E C1 1_555 1_555
C2D N1D 1_555 1_555
C2A N1A 1_555 1_555
C3E C2E 1_555 1_555
C3D C2D 1_555 1_555
C3A C2A 1_555 1_555
H1E C3E 1_555 1_555
H1D C3D 1_555 1_555
H1A C3A 1_555 1_555
H2E C3E 1_555 1_555
H2D C3D 1_555 1_555
H2A C3A 1_555 1_555
H3E C3E 1_555 1_555
H3D C3D 1_555 1_555
H3A C3A 1_555 1_555
O2E C4 1_555 1_555
O2D C4A 1_555 1_555
O2A Cu1K 1_555 1_555
O2C Cu1 1_555 1_555
O2G Cu1 1_555 1_555
O2F Cu1A 1_555 1_555
O2B Cu1A 1_555 1_555
C4A C1A 1_555 1_555
Cu1A N1E 1_555 1_555
Cu1J O2E 1_555 1_555
N1E C2E 1_555 1_555
N1D N1A 1_555 1_555
C1A C2A 1_555 1_555
O2A C4A 1_555 1_555

#END
