
#######################################################################
#
#                 Cambridge Crystallographic Data Centre
#                                CCDC 
#
#######################################################################
#
# If this CIF has been generated from an entry in the Cambridge 
# Structural Database, then it will include bibliographic, chemical, 
# crystal, experimental, refinement or atomic coordinate data resulting 
# from the CCDC's data processing and validation procedures.
#
#######################################################################

data_QAGQEW
_chemical_formula_moiety         '(C120 H58 Cd13 O66 S24)n'
_symmetry_cell_setting           cubic
_symmetry_space_group_name_H-M   'F m -3 c'
_symmetry_Int_Tables_number      226
_space_group_name_Hall           '-F 4a 2 3'
loop_
_symmetry_equiv_pos_site_id
_symmetry_equiv_pos_as_xyz
1 x,y,z
2 -y,x,1/2+z
3 -x,-y,z
4 y,-x,1/2+z
5 x,-z,1/2+y
6 x,-y,-z
7 x,z,1/2-y
8 z,y,1/2-x
9 -x,y,-z
10 -z,y,1/2+x
11 z,x,y
12 y,z,x
13 -y,-z,x
14 z,-x,-y
15 -y,z,-x
16 -z,-x,y
17 -z,x,-y
18 y,-z,-x
19 y,x,1/2-z
20 -y,-x,1/2-z
21 -x,z,1/2+y
22 -x,-z,1/2-y
23 z,-y,1/2+x
24 -z,-y,1/2-x
25 x,1/2+y,1/2+z
26 -y,1/2+x,z
27 -x,1/2-y,1/2+z
28 y,1/2-x,z
29 x,1/2-z,y
30 x,1/2-y,1/2-z
31 x,1/2+z,-y
32 z,1/2+y,-x
33 -x,1/2+y,1/2-z
34 -z,1/2+y,x
35 z,1/2+x,1/2+y
36 y,1/2+z,1/2+x
37 -y,1/2-z,1/2+x
38 z,1/2-x,1/2-y
39 -y,1/2+z,1/2-x
40 -z,1/2-x,1/2+y
41 -z,1/2+x,1/2-y
42 y,1/2-z,1/2-x
43 y,1/2+x,-z
44 -y,1/2-x,-z
45 -x,1/2+z,y
46 -x,1/2-z,-y
47 z,1/2-y,x
48 -z,1/2-y,-x
49 1/2+x,y,1/2+z
50 1/2-y,x,z
51 1/2-x,-y,1/2+z
52 1/2+y,-x,z
53 1/2+x,-z,y
54 1/2+x,-y,1/2-z
55 1/2+x,z,-y
56 1/2+z,y,-x
57 1/2-x,y,1/2-z
58 1/2-z,y,x
59 1/2+z,x,1/2+y
60 1/2+y,z,1/2+x
61 1/2-y,-z,1/2+x
62 1/2+z,-x,1/2-y
63 1/2-y,z,1/2-x
64 1/2-z,-x,1/2+y
65 1/2-z,x,1/2-y
66 1/2+y,-z,1/2-x
67 1/2+y,x,-z
68 1/2-y,-x,-z
69 1/2-x,z,y
70 1/2-x,-z,-y
71 1/2+z,-y,x
72 1/2-z,-y,-x
73 1/2+x,1/2+y,z
74 1/2-y,1/2+x,1/2+z
75 1/2-x,1/2-y,z
76 1/2+y,1/2-x,1/2+z
77 1/2+x,1/2-z,1/2+y
78 1/2+x,1/2-y,-z
79 1/2+x,1/2+z,1/2-y
80 1/2+z,1/2+y,1/2-x
81 1/2-x,1/2+y,-z
82 1/2-z,1/2+y,1/2+x
83 1/2+z,1/2+x,y
84 1/2+y,1/2+z,x
85 1/2-y,1/2-z,x
86 1/2+z,1/2-x,-y
87 1/2-y,1/2+z,-x
88 1/2-z,1/2-x,y
89 1/2-z,1/2+x,-y
90 1/2+y,1/2-z,-x
91 1/2+y,1/2+x,1/2-z
92 1/2-y,1/2-x,1/2-z
93 1/2-x,1/2+z,1/2+y
94 1/2-x,1/2-z,1/2-y
95 1/2+z,1/2-y,1/2+x
96 1/2-z,1/2-y,1/2-x
97 -x,-y,-z
98 y,-x,1/2-z
99 x,y,-z
100 -y,x,1/2-z
101 -x,z,1/2-y
102 -x,y,z
103 -x,-z,1/2+y
104 -z,-y,1/2+x
105 x,-y,z
106 z,-y,1/2-x
107 -z,-x,-y
108 -y,-z,-x
109 y,z,-x
110 -z,x,y
111 y,-z,x
112 z,x,-y
113 z,-x,y
114 -y,z,x
115 -y,-x,1/2+z
116 y,x,1/2+z
117 x,-z,1/2-y
118 x,z,1/2+y
119 -z,y,1/2-x
120 z,y,1/2+x
121 -x,1/2-y,1/2-z
122 y,1/2-x,-z
123 x,1/2+y,1/2-z
124 -y,1/2+x,-z
125 -x,1/2+z,-y
126 -x,1/2+y,1/2+z
127 -x,1/2-z,y
128 -z,1/2-y,x
129 x,1/2-y,1/2+z
130 z,1/2-y,-x
131 -z,1/2-x,1/2-y
132 -y,1/2-z,1/2-x
133 y,1/2+z,1/2-x
134 -z,1/2+x,1/2+y
135 y,1/2-z,1/2+x
136 z,1/2+x,1/2-y
137 z,1/2-x,1/2+y
138 -y,1/2+z,1/2+x
139 -y,1/2-x,z
140 y,1/2+x,z
141 x,1/2-z,-y
142 x,1/2+z,y
143 -z,1/2+y,-x
144 z,1/2+y,x
145 1/2-x,-y,1/2-z
146 1/2+y,-x,-z
147 1/2+x,y,1/2-z
148 1/2-y,x,-z
149 1/2-x,z,-y
150 1/2-x,y,1/2+z
151 1/2-x,-z,y
152 1/2-z,-y,x
153 1/2+x,-y,1/2+z
154 1/2+z,-y,-x
155 1/2-z,-x,1/2-y
156 1/2-y,-z,1/2-x
157 1/2+y,z,1/2-x
158 1/2-z,x,1/2+y
159 1/2+y,-z,1/2+x
160 1/2+z,x,1/2-y
161 1/2+z,-x,1/2+y
162 1/2-y,z,1/2+x
163 1/2-y,-x,z
164 1/2+y,x,z
165 1/2+x,-z,-y
166 1/2+x,z,y
167 1/2-z,y,-x
168 1/2+z,y,x
169 1/2-x,1/2-y,-z
170 1/2+y,1/2-x,1/2-z
171 1/2+x,1/2+y,-z
172 1/2-y,1/2+x,1/2-z
173 1/2-x,1/2+z,1/2-y
174 1/2-x,1/2+y,z
175 1/2-x,1/2-z,1/2+y
176 1/2-z,1/2-y,1/2+x
177 1/2+x,1/2-y,z
178 1/2+z,1/2-y,1/2-x
179 1/2-z,1/2-x,-y
180 1/2-y,1/2-z,-x
181 1/2+y,1/2+z,-x
182 1/2-z,1/2+x,y
183 1/2+y,1/2-z,x
184 1/2+z,1/2+x,-y
185 1/2+z,1/2-x,y
186 1/2-y,1/2+z,x
187 1/2-y,1/2-x,1/2+z
188 1/2+y,1/2+x,1/2+z
189 1/2+x,1/2-z,1/2-y
190 1/2+x,1/2+z,1/2+y
191 1/2-z,1/2+y,1/2-x
192 1/2+z,1/2+y,1/2+x
_cell_length_a                   39.2048(18)
_cell_length_b                   39.2048(18)
_cell_length_c                   39.2048(18)
_cell_angle_alpha                90
_cell_angle_beta                 90
_cell_angle_gamma                90
_cell_volume                     60258.4
loop_
_atom_site_label
_atom_site_type_symbol
_atom_site_fract_x
_atom_site_fract_y
_atom_site_fract_z
_atom_site_U_iso_or_equiv
_atom_site_thermal_displace_type
Cd2 Cd 0.2500 0.2500 0.2500 0.0272 Uani
O4 O 0.2500 0.2500 0.1944(13) 0.4000 Uiso
O4F O 0.2500 0.1944(13) 0.2500 0.4000 Uiso
O4G O 0.1944(13) 0.2500 0.2500 0.4000 Uiso
O4R O 0.2500 0.2500 0.3056(13) 0.4000 Uiso
O4BA O 0.2500 0.3056(13) 0.2500 0.4000 Uiso
O4EB O 0.3056(13) 0.2500 0.2500 0.4000 Uiso
Cd1 Cd 0.0000 0.273086(12) 0.184104(12) 0.0170 Uani
S1 S 0.10148(4) 0.20877(4) 0.12649(4) 0.0379 Uani
O1 O 0.03582(9) 0.22249(9) 0.20115(10) 0.0248 Uani
O2 O 0.04323(10) 0.24881(11) 0.15160(10) 0.0323 Uani
O3 O 0.0000 0.32410(17) 0.1559(2) 0.0520 Uani
C1 C 0.05030(13) 0.22522(13) 0.17207(14) 0.0250 Uani
C2 C 0.07776(14) 0.20087(13) 0.16312(15) 0.0310 Uani
C3 C 0.08751(14) 0.17173(13) 0.18217(18) 0.0390 Uani
H1 H 0.0775 0.1640 0.2028 0.0470 Uiso
C4 C 0.11610(15) 0.15579(14) 0.16373(15) 0.0363 Uani
C5 C 0.12648(15) 0.17387(15) 0.13479(15) 0.0353 Uani
Cd1J Cd 0.184104(12) 0.0000 0.273086(12) 0.0170 Uani
Cd1K Cd 0.273086(12) 0.184104(12) 0.0000 0.0170 Uani
Cd1BA Cd 0.0000 0.315896(12) 0.273086(12) 0.0170 Uani
Cd1TA Cd 0.184104(12) 0.226914(12) 0.0000 0.0170 Uani
Cd1AA Cd 0.273086(12) 0.5000 0.184104(12) 0.0170 Uani
Cd1O Cd -0.184104(12) 0.0000 0.273086(12) 0.0170 Uani
Cd1N Cd -0.273086(12) 0.184104(12) 0.0000 0.0170 Uani
Cd1UA Cd -0.184104(12) 0.226914(12) 0.0000 0.0170 Uani
Cd1Y Cd -0.273086(12) 0.5000 0.184104(12) 0.0170 Uani
Cd1F Cd -0.0000 0.184104(12) 0.226914(12) 0.0170 Uani
Cd1WA Cd 0.226914(12) 0.0000 0.184104(12) 0.0170 Uani
Cd1FC Cd 0.226914(12) 0.315896(12) 0.0000 0.0170 Uani
Cd1KA Cd 0.184104(12) 0.5000 0.226914(12) 0.0170 Uani
Cd1YA Cd -0.226914(12) 0.0000 0.184104(12) 0.0170 Uani
Cd1KC Cd -0.226914(12) 0.315896(12) 0.0000 0.0170 Uani
Cd1NA Cd -0.184104(12) 0.5000 0.226914(12) 0.0170 Uani
Cd1R Cd 0.273086(12) 0.0000 0.315896(12) 0.0170 Uani
Cd1CA Cd 0.0000 0.226914(12) 0.315896(12) 0.0170 Uani
Cd1G Cd 0.184104(12) 0.273086(12) 0.5000 0.0170 Uani
Cd1JB Cd 0.226914(12) 0.184104(12) 0.5000 0.0170 Uani
Cd1Q Cd 0.273086(12) -0.184104(12) 0.0000 0.0170 Uani
Cd1EA Cd 0.184104(12) -0.226914(12) 0.0000 0.0170 Uani
Cd1B Cd -0.0000 -0.273086(12) 0.184104(12) 0.0170 Uani
Cd1U Cd -0.0000 -0.184104(12) 0.226914(12) 0.0170 Uani
Cd1FA Cd 0.0000 -0.226914(12) 0.315896(12) 0.0170 Uani
Cd1V Cd 0.184104(12) -0.273086(12) 0.5000 0.0170 Uani
Cd1HB Cd 0.226914(12) -0.184104(12) 0.5000 0.0170 Uani
Cd1EB Cd 0.315896(12) 0.273086(12) 0.0000 0.0170 Uani
Cd1LB Cd 0.315896(12) -0.0000 0.226914(12) 0.0170 Uani
Cd1PB Cd 0.5000 0.184104(12) 0.273086(12) 0.0170 Uani
Cd1VB Cd 0.5000 0.226914(12) 0.184104(12) 0.0170 Uani
S1K S 0.20877(4) 0.12649(4) 0.10148(4) 0.0379 Uani
S1J S 0.12649(4) 0.10148(4) 0.20877(4) 0.0379 Uani
S1BA S 0.10148(4) 0.37351(4) 0.20877(4) 0.0379 Uani
S1AA S 0.20877(4) 0.39852(4) 0.12649(4) 0.0379 Uani
S1TA S 0.12649(4) 0.29123(4) 0.10148(4) 0.0379 Uani
S1WC S -0.10148(4) 0.20877(4) 0.12649(4) 0.0379 Uani
S1ID S -0.20877(4) 0.12649(4) 0.10148(4) 0.0379 Uani
S1ED S -0.12649(4) 0.10148(4) 0.20877(4) 0.0379 Uani
S1VD S -0.10148(4) 0.37351(4) 0.20877(4) 0.0379 Uani
S1HE S -0.20877(4) 0.39852(4) 0.12649(4) 0.0379 Uani
S1WD S -0.12649(4) 0.29123(4) 0.10148(4) 0.0379 Uani
S1R S 0.20877(4) 0.10148(4) 0.37351(4) 0.0379 Uani
S1G S 0.12649(4) 0.20877(4) 0.39852(4) 0.0379 Uani
S1F S 0.10148(4) 0.12649(4) 0.29123(4) 0.0379 Uani
S1HD S 0.12649(4) -0.10148(4) 0.20877(4) 0.0379 Uani
S1ZC S 0.10148(4) -0.20877(4) 0.12649(4) 0.0379 Uani
S1FD S 0.20877(4) -0.12649(4) 0.10148(4) 0.0379 Uani
S1SC S 0.20877(4) -0.10148(4) 0.37351(4) 0.0379 Uani
S1AD S 0.12649(4) -0.20877(4) 0.39852(4) 0.0379 Uani
S1LD S 0.10148(4) -0.12649(4) 0.29123(4) 0.0379 Uani
S1EB S 0.37351(4) 0.20877(4) 0.10148(4) 0.0379 Uani
S1PB S 0.39852(4) 0.12649(4) 0.20877(4) 0.0379 Uani
S1WA S 0.29123(4) 0.10148(4) 0.12649(4) 0.0379 Uani
O1J O 0.20115(10) 0.03582(9) 0.22249(9) 0.0248 Uani
O1K O 0.22249(9) 0.20115(10) 0.03582(9) 0.0248 Uani
O1BA O 0.03582(9) 0.29885(10) 0.22249(9) 0.0248 Uani
O1TA O 0.20115(10) 0.27751(9) 0.03582(9) 0.0248 Uani
O1AA O 0.22249(9) 0.46418(9) 0.20115(10) 0.0248 Uani
O1WC O -0.03582(9) 0.22249(9) 0.20115(10) 0.0248 Uani
O1ED O -0.20115(10) 0.03582(9) 0.22249(9) 0.0248 Uani
O1ID O -0.22249(9) 0.20115(10) 0.03582(9) 0.0248 Uani
O1VD O -0.03582(9) 0.29885(10) 0.22249(9) 0.0248 Uani
O1WD O -0.20115(10) 0.27751(9) 0.03582(9) 0.0248 Uani
O1HE O -0.22249(9) 0.46418(9) 0.20115(10) 0.0248 Uani
O1R O 0.22249(9) 0.03582(9) 0.29885(10) 0.0248 Uani
O1F O 0.03582(9) 0.20115(10) 0.27751(9) 0.0248 Uani
O1G O 0.20115(10) 0.22249(9) 0.46418(9) 0.0248 Uani
O1HD O 0.20115(10) -0.03582(9) 0.22249(9) 0.0248 Uani
O1FD O 0.22249(9) -0.20115(10) 0.03582(9) 0.0248 Uani
O1ZC O 0.03582(9) -0.22249(9) 0.20115(10) 0.0248 Uani
O1SC O 0.22249(9) -0.03582(9) 0.29885(10) 0.0248 Uani
O1LD O 0.03582(9) -0.20115(10) 0.27751(9) 0.0248 Uani
O1AD O 0.20115(10) -0.22249(9) 0.46418(9) 0.0248 Uani
O1EB O 0.29885(10) 0.22249(9) 0.03582(9) 0.0248 Uani
O1WA O 0.27751(9) 0.03582(9) 0.20115(10) 0.0248 Uani
O1PB O 0.46418(9) 0.20115(10) 0.22249(9) 0.0248 Uani
O1DD O 0.22249(9) 0.20115(10) -0.03582(9) 0.0248 Uani
O1JF O 0.29885(10) 0.22249(9) -0.03582(9) 0.0248 Uani
O1CA O 0.03582(9) 0.27751(9) 0.29885(10) 0.0248 Uani
O1PD O -0.03582(9) 0.27751(9) 0.29885(10) 0.0248 Uani
O1YD O 0.20115(10) 0.27751(9) -0.03582(9) 0.0248 Uani
O1IC O 0.29885(10) 0.46418(9) 0.22249(9) 0.0248 Uani
O1IE O 0.22249(9) 0.53582(9) 0.20115(10) 0.0248 Uani
O1YF O 0.29885(10) 0.53582(9) 0.22249(9) 0.0248 Uani
O1UC O -0.22249(9) 0.03582(9) 0.29885(10) 0.0248 Uani
O1O O -0.20115(10) -0.03582(9) 0.22249(9) 0.0248 Uani
O1S O -0.22249(9) -0.03582(9) 0.29885(10) 0.0248 Uani
O1KF O -0.29885(10) 0.22249(9) 0.03582(9) 0.0248 Uani
O1N O -0.22249(9) 0.20115(10) -0.03582(9) 0.0248 Uani
O1CB O -0.29885(10) 0.22249(9) -0.03582(9) 0.0248 Uani
O1UA O -0.20115(10) 0.27751(9) -0.03582(9) 0.0248 Uani
O1BG O -0.29885(10) 0.46418(9) 0.22249(9) 0.0248 Uani
O1Y O -0.22249(9) 0.53582(9) 0.20115(10) 0.0248 Uani
O1DC O -0.29885(10) 0.53582(9) 0.22249(9) 0.0248 Uani
O1VC O -0.03582(9) 0.20115(10) 0.27751(9) 0.0248 Uani
O1FF O 0.27751(9) -0.03582(9) 0.20115(10) 0.0248 Uani
O2J O 0.15160(10) 0.04323(10) 0.24881(11) 0.0323 Uani
O2K O 0.24881(11) 0.15160(10) 0.04323(10) 0.0323 Uani
O2BA O 0.04323(10) 0.34840(10) 0.24881(11) 0.0323 Uani
O2TA O 0.15160(10) 0.25119(11) 0.04323(10) 0.0323 Uani
O2AA O 0.24881(11) 0.45677(10) 0.15160(10) 0.0323 Uani
O2WC O -0.04323(10) 0.24881(11) 0.15160(10) 0.0323 Uani
O2ED O -0.15160(10) 0.04323(10) 0.24881(11) 0.0323 Uani
O2ID O -0.24881(11) 0.15160(10) 0.04323(10) 0.0323 Uani
O2VD O -0.04323(10) 0.34840(10) 0.24881(11) 0.0323 Uani
O2WD O -0.15160(10) 0.25119(11) 0.04323(10) 0.0323 Uani
O2HE O -0.24881(11) 0.45677(10) 0.15160(10) 0.0323 Uani
O2R O 0.24881(11) 0.04323(10) 0.34840(10) 0.0323 Uani
O2F O 0.04323(10) 0.15160(10) 0.25119(11) 0.0323 Uani
O2G O 0.15160(10) 0.24881(11) 0.45677(10) 0.0323 Uani
O2HD O 0.15160(10) -0.04323(10) 0.24881(11) 0.0323 Uani
O2FD O 0.24881(11) -0.15160(10) 0.04323(10) 0.0323 Uani
O2ZC O 0.04323(10) -0.24881(11) 0.15160(10) 0.0323 Uani
O2SC O 0.24881(11) -0.04323(10) 0.34840(10) 0.0323 Uani
O2LD O 0.04323(10) -0.15160(10) 0.25119(11) 0.0323 Uani
O2AD O 0.15160(10) -0.24881(11) 0.45677(10) 0.0323 Uani
O2EB O 0.34840(10) 0.24881(11) 0.04323(10) 0.0323 Uani
O2WA O 0.25119(11) 0.04323(10) 0.15160(10) 0.0323 Uani
O2PB O 0.45677(10) 0.15160(10) 0.24881(11) 0.0323 Uani
O2DD O 0.24881(11) 0.15160(10) -0.04323(10) 0.0323 Uani
O2YD O 0.15160(10) 0.25119(11) -0.04323(10) 0.0323 Uani
O2IE O 0.24881(11) 0.54323(10) 0.15160(10) 0.0323 Uani
O2O O -0.15160(10) -0.04323(10) 0.24881(11) 0.0323 Uani
O2N O -0.24881(11) 0.15160(10) -0.04323(10) 0.0323 Uani
O2UA O -0.15160(10) 0.25119(11) -0.04323(10) 0.0323 Uani
O2Y O -0.24881(11) 0.54323(10) 0.15160(10) 0.0323 Uani
O2VC O -0.04323(10) 0.15160(10) 0.25119(11) 0.0323 Uani
O2FF O 0.25119(11) -0.04323(10) 0.15160(10) 0.0323 Uani
O3J O 0.1559(2) 0.0000 0.32410(17) 0.0520 Uani
O3K O 0.32410(17) 0.1559(2) 0.0000 0.0520 Uani
O3BA O 0.0000 0.3441(2) 0.32410(17) 0.0520 Uani
O3TA O 0.1559(2) 0.17590(17) 0.0000 0.0520 Uani
O3AA O 0.32410(17) 0.5000 0.1559(2) 0.0520 Uani
O3O O -0.1559(2) 0.0000 0.32410(17) 0.0520 Uani
O3N O -0.32410(17) 0.1559(2) 0.0000 0.0520 Uani
O3UA O -0.1559(2) 0.17590(17) 0.0000 0.0520 Uani
O3Y O -0.32410(17) 0.5000 0.1559(2) 0.0520 Uani
O3F O -0.0000 0.1559(2) 0.17590(17) 0.0520 Uani
O3WA O 0.17590(17) 0.0000 0.1559(2) 0.0520 Uani
C1J C 0.17207(14) 0.05030(13) 0.22522(13) 0.0250 Uani
C1K C 0.22522(13) 0.17207(14) 0.05030(13) 0.0250 Uani
C1BA C 0.05030(13) 0.32793(14) 0.22522(13) 0.0250 Uani
C1TA C 0.17207(14) 0.27478(13) 0.05030(13) 0.0250 Uani
C1AA C 0.22522(13) 0.44970(13) 0.17207(14) 0.0250 Uani
C1WC C -0.05030(13) 0.22522(13) 0.17207(14) 0.0250 Uani
C1ED C -0.17207(14) 0.05030(13) 0.22522(13) 0.0250 Uani
C1ID C -0.22522(13) 0.17207(14) 0.05030(13) 0.0250 Uani
C1VD C -0.05030(13) 0.32793(14) 0.22522(13) 0.0250 Uani
C1WD C -0.17207(14) 0.27478(13) 0.05030(13) 0.0250 Uani
C1HE C -0.22522(13) 0.44970(13) 0.17207(14) 0.0250 Uani
C1R C 0.22522(13) 0.05030(13) 0.32793(14) 0.0250 Uani
C1F C 0.05030(13) 0.17207(14) 0.27478(13) 0.0250 Uani
C1G C 0.17207(14) 0.22522(13) 0.44970(13) 0.0250 Uani
C1HD C 0.17207(14) -0.05030(13) 0.22522(13) 0.0250 Uani
C1FD C 0.22522(13) -0.17207(14) 0.05030(13) 0.0250 Uani
C1ZC C 0.05030(13) -0.22522(13) 0.17207(14) 0.0250 Uani
C1SC C 0.22522(13) -0.05030(13) 0.32793(14) 0.0250 Uani
C1LD C 0.05030(13) -0.17207(14) 0.27478(13) 0.0250 Uani
C1AD C 0.17207(14) -0.22522(13) 0.44970(13) 0.0250 Uani
C1EB C 0.32793(14) 0.22522(13) 0.05030(13) 0.0250 Uani
C1WA C 0.27478(13) 0.05030(13) 0.17207(14) 0.0250 Uani
C1PB C 0.44970(13) 0.17207(14) 0.22522(13) 0.0250 Uani
C2K C 0.20087(13) 0.16312(15) 0.07776(14) 0.0310 Uani
C2J C 0.16312(15) 0.07776(14) 0.20087(13) 0.0310 Uani
C2BA C 0.07776(14) 0.33688(15) 0.20087(13) 0.0310 Uani
C2AA C 0.20087(13) 0.42224(14) 0.16312(15) 0.0310 Uani
C2TA C 0.16312(15) 0.29913(13) 0.07776(14) 0.0310 Uani
C2WC C -0.07776(14) 0.20087(13) 0.16312(15) 0.0310 Uani
C2ID C -0.20087(13) 0.16312(15) 0.07776(14) 0.0310 Uani
C2ED C -0.16312(15) 0.07776(14) 0.20087(13) 0.0310 Uani
C2VD C -0.07776(14) 0.33688(15) 0.20087(13) 0.0310 Uani
C2HE C -0.20087(13) 0.42224(14) 0.16312(15) 0.0310 Uani
C2WD C -0.16312(15) 0.29913(13) 0.07776(14) 0.0310 Uani
C2R C 0.20087(13) 0.07776(14) 0.33688(15) 0.0310 Uani
C2G C 0.16312(15) 0.20087(13) 0.42224(14) 0.0310 Uani
C2F C 0.07776(14) 0.16312(15) 0.29913(13) 0.0310 Uani
C2HD C 0.16312(15) -0.07776(14) 0.20087(13) 0.0310 Uani
C2ZC C 0.07776(14) -0.20087(13) 0.16312(15) 0.0310 Uani
C2FD C 0.20087(13) -0.16312(15) 0.07776(14) 0.0310 Uani
C2SC C 0.20087(13) -0.07776(14) 0.33688(15) 0.0310 Uani
C2AD C 0.16312(15) -0.20087(13) 0.42224(14) 0.0310 Uani
C2LD C 0.07776(14) -0.16312(15) 0.29913(13) 0.0310 Uani
C2EB C 0.33688(15) 0.20087(13) 0.07776(14) 0.0310 Uani
C2PB C 0.42224(14) 0.16312(15) 0.20087(13) 0.0310 Uani
C2WA C 0.29913(13) 0.07776(14) 0.16312(15) 0.0310 Uani
C3K C 0.17173(13) 0.18217(18) 0.08751(14) 0.0390 Uani
C3J C 0.18217(18) 0.08751(14) 0.17173(13) 0.0390 Uani
C3BA C 0.08751(14) 0.31783(18) 0.17173(13) 0.0390 Uani
C3AA C 0.17173(13) 0.41249(14) 0.18217(18) 0.0390 Uani
C3TA C 0.18217(18) 0.32827(13) 0.08751(14) 0.0390 Uani
C3WC C -0.08751(14) 0.17173(13) 0.18217(18) 0.0390 Uani
C3ID C -0.17173(13) 0.18217(18) 0.08751(14) 0.0390 Uani
C3ED C -0.18217(18) 0.08751(14) 0.17173(13) 0.0390 Uani
C3VD C -0.08751(14) 0.31783(18) 0.17173(13) 0.0390 Uani
C3HE C -0.17173(13) 0.41249(14) 0.18217(18) 0.0390 Uani
C3WD C -0.18217(18) 0.32827(13) 0.08751(14) 0.0390 Uani
C3R C 0.17173(13) 0.08751(14) 0.31783(18) 0.0390 Uani
C3G C 0.18217(18) 0.17173(13) 0.41249(14) 0.0390 Uani
C3F C 0.08751(14) 0.18217(18) 0.32827(13) 0.0390 Uani
C3HD C 0.18217(18) -0.08751(14) 0.17173(13) 0.0390 Uani
C3ZC C 0.08751(14) -0.17173(13) 0.18217(18) 0.0390 Uani
C3FD C 0.17173(13) -0.18217(18) 0.08751(14) 0.0390 Uani
C3SC C 0.17173(13) -0.08751(14) 0.31783(18) 0.0390 Uani
C3AD C 0.18217(18) -0.17173(13) 0.41249(14) 0.0390 Uani
C3LD C 0.08751(14) -0.18217(18) 0.32827(13) 0.0390 Uani
C3EB C 0.31783(18) 0.17173(13) 0.08751(14) 0.0390 Uani
C3PB C 0.41249(14) 0.18217(18) 0.17173(13) 0.0390 Uani
C3WA C 0.32827(13) 0.08751(14) 0.18217(18) 0.0390 Uani
H1J H 0.2028 0.0775 0.1640 0.0470 Uiso
H1K H 0.1640 0.2028 0.0775 0.0470 Uiso
H1BA H 0.0775 0.2972 0.1640 0.0470 Uiso
H1TA H 0.2028 0.3360 0.0775 0.0470 Uiso
H1AA H 0.1640 0.4225 0.2028 0.0470 Uiso
H1WC H -0.0775 0.1640 0.2028 0.0470 Uiso
H1ED H -0.2028 0.0775 0.1640 0.0470 Uiso
H1ID H -0.1640 0.2028 0.0775 0.0470 Uiso
H1VD H -0.0775 0.2972 0.1640 0.0470 Uiso
H1WD H -0.2028 0.3360 0.0775 0.0470 Uiso
H1HE H -0.1640 0.4225 0.2028 0.0470 Uiso
H1R H 0.1640 0.0775 0.2972 0.0470 Uiso
H1F H 0.0775 0.2028 0.3360 0.0470 Uiso
H1G H 0.2028 0.1640 0.4225 0.0470 Uiso
H1HD H 0.2028 -0.0775 0.1640 0.0470 Uiso
H1FD H 0.1640 -0.2028 0.0775 0.0470 Uiso
H1ZC H 0.0775 -0.1640 0.2028 0.0470 Uiso
H1SC H 0.1640 -0.0775 0.2972 0.0470 Uiso
H1LD H 0.0775 -0.2028 0.3360 0.0470 Uiso
H1AD H 0.2028 -0.1640 0.4225 0.0470 Uiso
H1EB H 0.2972 0.1640 0.0775 0.0470 Uiso
H1WA H 0.3360 0.0775 0.2028 0.0470 Uiso
H1PB H 0.4225 0.2028 0.1640 0.0470 Uiso
C4K C 0.15579(14) 0.16373(15) 0.11610(15) 0.0363 Uani
C4J C 0.16373(15) 0.11610(15) 0.15579(14) 0.0363 Uani
C4BA C 0.11610(15) 0.33627(15) 0.15579(14) 0.0363 Uani
C4AA C 0.15579(14) 0.38390(15) 0.16373(15) 0.0363 Uani
C4TA C 0.16373(15) 0.34421(14) 0.11610(15) 0.0363 Uani
C4WC C -0.11610(15) 0.15579(14) 0.16373(15) 0.0363 Uani
C4ID C -0.15579(14) 0.16373(15) 0.11610(15) 0.0363 Uani
C4ED C -0.16373(15) 0.11610(15) 0.15579(14) 0.0363 Uani
C4VD C -0.11610(15) 0.33627(15) 0.15579(14) 0.0363 Uani
C4HE C -0.15579(14) 0.38390(15) 0.16373(15) 0.0363 Uani
C4WD C -0.16373(15) 0.34421(14) 0.11610(15) 0.0363 Uani
C4R C 0.15579(14) 0.11610(15) 0.33627(15) 0.0363 Uani
C4G C 0.16373(15) 0.15579(14) 0.38390(15) 0.0363 Uani
C4F C 0.11610(15) 0.16373(15) 0.34421(14) 0.0363 Uani
C4HD C 0.16373(15) -0.11610(15) 0.15579(14) 0.0363 Uani
C4ZC C 0.11610(15) -0.15579(14) 0.16373(15) 0.0363 Uani
C4FD C 0.15579(14) -0.16373(15) 0.11610(15) 0.0363 Uani
C4SC C 0.15579(14) -0.11610(15) 0.33627(15) 0.0363 Uani
C4AD C 0.16373(15) -0.15579(14) 0.38390(15) 0.0363 Uani
C4LD C 0.11610(15) -0.16373(15) 0.34421(14) 0.0363 Uani
C4EB C 0.33627(15) 0.15579(14) 0.11610(15) 0.0363 Uani
C4PB C 0.38390(15) 0.16373(15) 0.15579(14) 0.0363 Uani
C4WA C 0.34421(14) 0.11610(15) 0.16373(15) 0.0363 Uani
C5K C 0.17387(15) 0.13479(15) 0.12648(15) 0.0353 Uani
C5J C 0.13479(15) 0.12648(15) 0.17387(15) 0.0353 Uani
C5BA C 0.12648(15) 0.36521(15) 0.17387(15) 0.0353 Uani
C5AA C 0.17387(15) 0.37352(15) 0.13479(15) 0.0353 Uani
C5TA C 0.13479(15) 0.32613(15) 0.12648(15) 0.0353 Uani
C5WC C -0.12648(15) 0.17387(15) 0.13479(15) 0.0353 Uani
C5ID C -0.17387(15) 0.13479(15) 0.12648(15) 0.0353 Uani
C5ED C -0.13479(15) 0.12648(15) 0.17387(15) 0.0353 Uani
C5VD C -0.12648(15) 0.36521(15) 0.17387(15) 0.0353 Uani
C5HE C -0.17387(15) 0.37352(15) 0.13479(15) 0.0353 Uani
C5WD C -0.13479(15) 0.32613(15) 0.12648(15) 0.0353 Uani
C5R C 0.17387(15) 0.12648(15) 0.36521(15) 0.0353 Uani
C5G C 0.13479(15) 0.17387(15) 0.37352(15) 0.0353 Uani
C5F C 0.12648(15) 0.13479(15) 0.32613(15) 0.0353 Uani
C5HD C 0.13479(15) -0.12648(15) 0.17387(15) 0.0353 Uani
C5ZC C 0.12648(15) -0.17387(15) 0.13479(15) 0.0353 Uani
C5FD C 0.17387(15) -0.13479(15) 0.12648(15) 0.0353 Uani
C5SC C 0.17387(15) -0.12648(15) 0.36521(15) 0.0353 Uani
C5AD C 0.13479(15) -0.17387(15) 0.37352(15) 0.0353 Uani
C5LD C 0.12648(15) -0.13479(15) 0.32613(15) 0.0353 Uani
C5EB C 0.36521(15) 0.17387(15) 0.12648(15) 0.0353 Uani
C5PB C 0.37352(15) 0.13479(15) 0.17387(15) 0.0353 Uani
C5WA C 0.32613(15) 0.12648(15) 0.13479(15) 0.0353 Uani
loop_
_atom_site_aniso_label
_atom_site_aniso_U_11
_atom_site_aniso_U_22
_atom_site_aniso_U_33
_atom_site_aniso_U_23
_atom_site_aniso_U_13
_atom_site_aniso_U_12
Cd2 0.0272(4) 0.0272(4) 0.0272(4) 0.000 0.000 0.000
Cd1 0.0135(2) 0.0164(3) 0.0211(3) -0.00302(17) 0.000 0.000
S1 0.0314(7) 0.0342(8) 0.0482(9) 0.0177(7) 0.0160(7) 0.0136(6)
O1 0.0188(16) 0.0206(17) 0.035(2) 0.0021(14) 0.0110(14) -0.0028(13)
O2 0.0332(19) 0.0287(19) 0.035(2) 0.0089(17) 0.0098(16) 0.0130(17)
O3 0.043(4) 0.040(4) 0.073(5) 0.020(3) 0.000 0.000
C1 0.021(2) 0.023(2) 0.031(3) -0.001(2) 0.007(2) 0.0018(19)
C2 0.027(3) 0.023(2) 0.043(3) 0.013(2) 0.022(2) 0.010(2)
C3 0.023(2) 0.016(2) 0.078(4) -0.001(2) 0.014(2) 0.0065(19)
C4 0.039(3) 0.029(3) 0.041(3) 0.017(2) 0.025(3) 0.014(2)
C5 0.027(3) 0.038(3) 0.041(3) 0.019(3) 0.015(2) 0.013(2)
Cd1J 0.0211 0.0135 0.0164 0 -0.00302 0
Cd1K 0.0164 0.0211 0.0135 0 0 -0.00302
Cd1BA 0.0135 0.0211 0.0164 0.00302 0 0
Cd1TA 0.0211 0.0164 0.0135 0 0 0.00302
Cd1AA 0.0164 0.0135 0.0211 0 -0.00302 0
Cd1O 0.0211 0.0135 0.0164 0 0.00302 0
Cd1N 0.0164 0.0211 0.0135 0 0 0.00302
Cd1UA 0.0211 0.0164 0.0135 0 0 -0.00302
Cd1Y 0.0164 0.0135 0.0211 0 0.00302 0
Cd1F 0.0135 0.0211 0.0164 0.00302 0 0
Cd1WA 0.0164 0.0135 0.0211 0 0.00302 0
Cd1FC 0.0164 0.0211 0.0135 0 0 -0.00302
Cd1KA 0.0211 0.0135 0.0164 0 0.00302 0
Cd1YA 0.0164 0.0135 0.0211 0 -0.00302 0
Cd1KC 0.0164 0.0211 0.0135 0 0 0.00302
Cd1NA 0.0211 0.0135 0.0164 0 -0.00302 0
Cd1R 0.0164 0.0135 0.0211 0 0.00302 0
Cd1CA 0.0135 0.0164 0.0211 -0.00302 0 0
Cd1G 0.0211 0.0164 0.0135 0 0 -0.00302
Cd1JB 0.0164 0.0211 0.0135 0 0 0.00302
Cd1Q 0.0164 0.0211 0.0135 0 0 0.00302
Cd1EA 0.0211 0.0164 0.0135 0 0 -0.00302
Cd1B 0.0135 0.0164 0.0211 0.00302 0 0
Cd1U 0.0135 0.0211 0.0164 -0.00302 0 0
Cd1FA 0.0135 0.0164 0.0211 0.00302 0 0
Cd1V 0.0211 0.0164 0.0135 0 0 0.00302
Cd1HB 0.0164 0.0211 0.0135 0 0 -0.00302
Cd1EB 0.0211 0.0164 0.0135 0 0 0.00302
Cd1LB 0.0211 0.0135 0.0164 0 -0.00302 0
Cd1PB 0.0135 0.0211 0.0164 -0.00302 0 0
Cd1VB 0.0135 0.0164 0.0211 0.00302 0 0
S1K 0.0342 0.0482 0.0314 0.016 0.0136 0.0177
S1J 0.0482 0.0314 0.0342 0.0136 0.0177 0.016
S1BA 0.0314 0.0482 0.0342 -0.0177 0.0136 -0.016
S1AA 0.0342 0.0314 0.0482 -0.016 0.0177 -0.0136
S1TA 0.0482 0.0342 0.0314 -0.0136 0.016 -0.0177
S1WC 0.0314 0.0342 0.0482 0.0177 -0.016 -0.0136
S1ID 0.0342 0.0482 0.0314 0.016 -0.0136 -0.0177
S1ED 0.0482 0.0314 0.0342 0.0136 -0.0177 -0.016
S1VD 0.0314 0.0482 0.0342 -0.0177 -0.0136 0.016
S1HE 0.0342 0.0314 0.0482 -0.016 -0.0177 0.0136
S1WD 0.0482 0.0342 0.0314 -0.0136 -0.016 0.0177
S1R 0.0342 0.0314 0.0482 -0.016 -0.0177 0.0136
S1G 0.0482 0.0342 0.0314 -0.0136 -0.016 0.0177
S1F 0.0314 0.0482 0.0342 -0.0177 -0.0136 0.016
S1HD 0.0482 0.0314 0.0342 -0.0136 0.0177 -0.016
S1ZC 0.0314 0.0342 0.0482 -0.0177 0.016 -0.0136
S1FD 0.0342 0.0482 0.0314 -0.016 0.0136 -0.0177
S1SC 0.0342 0.0314 0.0482 0.016 -0.0177 -0.0136
S1AD 0.0482 0.0342 0.0314 0.0136 -0.016 -0.0177
S1LD 0.0314 0.0482 0.0342 0.0177 -0.0136 -0.016
S1EB 0.0482 0.0342 0.0314 0.0136 -0.016 -0.0177
S1PB 0.0314 0.0482 0.0342 0.0177 -0.0136 -0.016
S1WA 0.0342 0.0314 0.0482 0.016 -0.0177 -0.0136
O1J 0.035 0.0188 0.0206 -0.0028 0.0021 0.011
O1K 0.0206 0.035 0.0188 0.011 -0.0028 0.0021
O1BA 0.0188 0.035 0.0206 -0.0021 -0.0028 -0.011
O1TA 0.035 0.0206 0.0188 0.0028 0.011 -0.0021
O1AA 0.0206 0.0188 0.035 -0.011 0.0021 0.0028
O1WC 0.0188 0.0206 0.035 0.0021 -0.011 0.0028
O1ED 0.035 0.0188 0.0206 -0.0028 -0.0021 -0.011
O1ID 0.0206 0.035 0.0188 0.011 0.0028 -0.0021
O1VD 0.0188 0.035 0.0206 -0.0021 0.0028 0.011
O1WD 0.035 0.0206 0.0188 0.0028 -0.011 0.0021
O1HE 0.0206 0.0188 0.035 -0.011 -0.0021 -0.0028
O1R 0.0206 0.0188 0.035 -0.011 -0.0021 -0.0028
O1F 0.0188 0.035 0.0206 -0.0021 0.0028 0.011
O1G 0.035 0.0206 0.0188 0.0028 -0.011 0.0021
O1HD 0.035 0.0188 0.0206 0.0028 0.0021 -0.011
O1FD 0.0206 0.035 0.0188 -0.011 -0.0028 -0.0021
O1ZC 0.0188 0.0206 0.035 -0.0021 0.011 0.0028
O1SC 0.0206 0.0188 0.035 0.011 -0.0021 0.0028
O1LD 0.0188 0.035 0.0206 0.0021 0.0028 -0.011
O1AD 0.035 0.0206 0.0188 -0.0028 -0.011 -0.0021
O1EB 0.035 0.0206 0.0188 -0.0028 -0.011 -0.0021
O1WA 0.0206 0.0188 0.035 0.011 -0.0021 0.0028
O1PB 0.0188 0.035 0.0206 0.0021 0.0028 -0.011
O1DD 0.0206 0.035 0.0188 -0.011 0.0028 0.0021
O1JF 0.035 0.0206 0.0188 0.0028 0.011 -0.0021
O1CA 0.0188 0.0206 0.035 0.0021 -0.011 0.0028
O1PD 0.0188 0.0206 0.035 0.0021 0.011 -0.0028
O1YD 0.035 0.0206 0.0188 -0.0028 -0.011 -0.0021
O1IC 0.035 0.0188 0.0206 0.0028 -0.0021 0.011
O1IE 0.0206 0.0188 0.035 0.011 0.0021 -0.0028
O1YF 0.035 0.0188 0.0206 -0.0028 -0.0021 -0.011
O1UC 0.0206 0.0188 0.035 -0.011 0.0021 0.0028
O1O 0.035 0.0188 0.0206 0.0028 -0.0021 0.011
O1S 0.0206 0.0188 0.035 0.011 0.0021 -0.0028
O1KF 0.035 0.0206 0.0188 -0.0028 0.011 0.0021
O1N 0.0206 0.035 0.0188 -0.011 -0.0028 -0.0021
O1CB 0.035 0.0206 0.0188 0.0028 -0.011 0.0021
O1UA 0.035 0.0206 0.0188 -0.0028 0.011 0.0021
O1BG 0.035 0.0188 0.0206 0.0028 0.0021 -0.011
O1Y 0.0206 0.0188 0.035 0.011 -0.0021 0.0028
O1DC 0.035 0.0188 0.0206 -0.0028 0.0021 0.011
O1VC 0.0188 0.035 0.0206 -0.0021 -0.0028 -0.011
O1FF 0.0206 0.0188 0.035 -0.011 -0.0021 -0.0028
O2J 0.035 0.0332 0.0287 0.013 0.0089 0.0098
O2K 0.0287 0.035 0.0332 0.0098 0.013 0.0089
O2BA 0.0332 0.035 0.0287 -0.0089 0.013 -0.0098
O2TA 0.035 0.0287 0.0332 -0.013 0.0098 -0.0089
O2AA 0.0287 0.0332 0.035 -0.0098 0.0089 -0.013
O2WC 0.0332 0.0287 0.035 0.0089 -0.0098 -0.013
O2ED 0.035 0.0332 0.0287 0.013 -0.0089 -0.0098
O2ID 0.0287 0.035 0.0332 0.0098 -0.013 -0.0089
O2VD 0.0332 0.035 0.0287 -0.0089 -0.013 0.0098
O2WD 0.035 0.0287 0.0332 -0.013 -0.0098 0.0089
O2HE 0.0287 0.0332 0.035 -0.0098 -0.0089 0.013
O2R 0.0287 0.0332 0.035 -0.0098 -0.0089 0.013
O2F 0.0332 0.035 0.0287 -0.0089 -0.013 0.0098
O2G 0.035 0.0287 0.0332 -0.013 -0.0098 0.0089
O2HD 0.035 0.0332 0.0287 -0.013 0.0089 -0.0098
O2FD 0.0287 0.035 0.0332 -0.0098 0.013 -0.0089
O2ZC 0.0332 0.0287 0.035 -0.0089 0.0098 -0.013
O2SC 0.0287 0.0332 0.035 0.0098 -0.0089 -0.013
O2LD 0.0332 0.035 0.0287 0.0089 -0.013 -0.0098
O2AD 0.035 0.0287 0.0332 0.013 -0.0098 -0.0089
O2EB 0.035 0.0287 0.0332 0.013 -0.0098 -0.0089
O2WA 0.0287 0.0332 0.035 0.0098 -0.0089 -0.013
O2PB 0.0332 0.035 0.0287 0.0089 -0.013 -0.0098
O2DD 0.0287 0.035 0.0332 -0.0098 -0.013 0.0089
O2YD 0.035 0.0287 0.0332 0.013 -0.0098 -0.0089
O2IE 0.0287 0.0332 0.035 0.0098 0.0089 0.013
O2O 0.035 0.0332 0.0287 -0.013 -0.0089 0.0098
O2N 0.0287 0.035 0.0332 -0.0098 0.013 -0.0089
O2UA 0.035 0.0287 0.0332 0.013 0.0098 0.0089
O2Y 0.0287 0.0332 0.035 0.0098 -0.0089 -0.013
O2VC 0.0332 0.035 0.0287 -0.0089 0.013 -0.0098
O2FF 0.0287 0.0332 0.035 -0.0098 -0.0089 0.013
O3J 0.073 0.043 0.04 0 0.02 0
O3K 0.04 0.073 0.043 0 0 0.02
O3BA 0.043 0.073 0.04 -0.02 0 0
O3TA 0.073 0.04 0.043 0 0 -0.02
O3AA 0.04 0.043 0.073 0 0.02 0
O3O 0.073 0.043 0.04 0 -0.02 0
O3N 0.04 0.073 0.043 0 0 -0.02
O3UA 0.073 0.04 0.043 0 0 0.02
O3Y 0.04 0.043 0.073 0 -0.02 0
O3F 0.043 0.073 0.04 -0.02 0 0
O3WA 0.04 0.043 0.073 0 -0.02 0
C1J 0.031 0.021 0.023 0.0018 -0.001 0.007
C1K 0.023 0.031 0.021 0.007 0.0018 -0.001
C1BA 0.021 0.031 0.023 0.001 0.0018 -0.007
C1TA 0.031 0.023 0.021 -0.0018 0.007 0.001
C1AA 0.023 0.021 0.031 -0.007 -0.001 -0.0018
C1WC 0.021 0.023 0.031 -0.001 -0.007 -0.0018
C1ED 0.031 0.021 0.023 0.0018 0.001 -0.007
C1ID 0.023 0.031 0.021 0.007 -0.0018 0.001
C1VD 0.021 0.031 0.023 0.001 -0.0018 0.007
C1WD 0.031 0.023 0.021 -0.0018 -0.007 -0.001
C1HE 0.023 0.021 0.031 -0.007 0.001 0.0018
C1R 0.023 0.021 0.031 -0.007 0.001 0.0018
C1F 0.021 0.031 0.023 0.001 -0.0018 0.007
C1G 0.031 0.023 0.021 -0.0018 -0.007 -0.001
C1HD 0.031 0.021 0.023 -0.0018 -0.001 -0.007
C1FD 0.023 0.031 0.021 -0.007 0.0018 0.001
C1ZC 0.021 0.023 0.031 0.001 0.007 -0.0018
C1SC 0.023 0.021 0.031 0.007 0.001 -0.0018
C1LD 0.021 0.031 0.023 -0.001 -0.0018 -0.007
C1AD 0.031 0.023 0.021 0.0018 -0.007 0.001
C1EB 0.031 0.023 0.021 0.0018 -0.007 0.001
C1WA 0.023 0.021 0.031 0.007 0.001 -0.0018
C1PB 0.021 0.031 0.023 -0.001 -0.0018 -0.007
C2K 0.023 0.043 0.027 0.022 0.01 0.013
C2J 0.043 0.027 0.023 0.01 0.013 0.022
C2BA 0.027 0.043 0.023 -0.013 0.01 -0.022
C2AA 0.023 0.027 0.043 -0.022 0.013 -0.01
C2TA 0.043 0.023 0.027 -0.01 0.022 -0.013
C2WC 0.027 0.023 0.043 0.013 -0.022 -0.01
C2ID 0.023 0.043 0.027 0.022 -0.01 -0.013
C2ED 0.043 0.027 0.023 0.01 -0.013 -0.022
C2VD 0.027 0.043 0.023 -0.013 -0.01 0.022
C2HE 0.023 0.027 0.043 -0.022 -0.013 0.01
C2WD 0.043 0.023 0.027 -0.01 -0.022 0.013
C2R 0.023 0.027 0.043 -0.022 -0.013 0.01
C2G 0.043 0.023 0.027 -0.01 -0.022 0.013
C2F 0.027 0.043 0.023 -0.013 -0.01 0.022
C2HD 0.043 0.027 0.023 -0.01 0.013 -0.022
C2ZC 0.027 0.023 0.043 -0.013 0.022 -0.01
C2FD 0.023 0.043 0.027 -0.022 0.01 -0.013
C2SC 0.023 0.027 0.043 0.022 -0.013 -0.01
C2AD 0.043 0.023 0.027 0.01 -0.022 -0.013
C2LD 0.027 0.043 0.023 0.013 -0.01 -0.022
C2EB 0.043 0.023 0.027 0.01 -0.022 -0.013
C2PB 0.027 0.043 0.023 0.013 -0.01 -0.022
C2WA 0.023 0.027 0.043 0.022 -0.013 -0.01
C3K 0.016 0.078 0.023 0.014 0.0065 -0.001
C3J 0.078 0.023 0.016 0.0065 -0.001 0.014
C3BA 0.023 0.078 0.016 0.001 0.0065 -0.014
C3AA 0.016 0.023 0.078 -0.014 -0.001 -0.0065
C3TA 0.078 0.016 0.023 -0.0065 0.014 0.001
C3WC 0.023 0.016 0.078 -0.001 -0.014 -0.0065
C3ID 0.016 0.078 0.023 0.014 -0.0065 0.001
C3ED 0.078 0.023 0.016 0.0065 0.001 -0.014
C3VD 0.023 0.078 0.016 0.001 -0.0065 0.014
C3HE 0.016 0.023 0.078 -0.014 0.001 0.0065
C3WD 0.078 0.016 0.023 -0.0065 -0.014 -0.001
C3R 0.016 0.023 0.078 -0.014 0.001 0.0065
C3G 0.078 0.016 0.023 -0.0065 -0.014 -0.001
C3F 0.023 0.078 0.016 0.001 -0.0065 0.014
C3HD 0.078 0.023 0.016 -0.0065 -0.001 -0.014
C3ZC 0.023 0.016 0.078 0.001 0.014 -0.0065
C3FD 0.016 0.078 0.023 -0.014 0.0065 0.001
C3SC 0.016 0.023 0.078 0.014 0.001 -0.0065
C3AD 0.078 0.016 0.023 0.0065 -0.014 0.001
C3LD 0.023 0.078 0.016 -0.001 -0.0065 -0.014
C3EB 0.078 0.016 0.023 0.0065 -0.014 0.001
C3PB 0.023 0.078 0.016 -0.001 -0.0065 -0.014
C3WA 0.016 0.023 0.078 0.014 0.001 -0.0065
C4K 0.029 0.041 0.039 0.025 0.014 0.017
C4J 0.041 0.039 0.029 0.014 0.017 0.025
C4BA 0.039 0.041 0.029 -0.017 0.014 -0.025
C4AA 0.029 0.039 0.041 -0.025 0.017 -0.014
C4TA 0.041 0.029 0.039 -0.014 0.025 -0.017
C4WC 0.039 0.029 0.041 0.017 -0.025 -0.014
C4ID 0.029 0.041 0.039 0.025 -0.014 -0.017
C4ED 0.041 0.039 0.029 0.014 -0.017 -0.025
C4VD 0.039 0.041 0.029 -0.017 -0.014 0.025
C4HE 0.029 0.039 0.041 -0.025 -0.017 0.014
C4WD 0.041 0.029 0.039 -0.014 -0.025 0.017
C4R 0.029 0.039 0.041 -0.025 -0.017 0.014
C4G 0.041 0.029 0.039 -0.014 -0.025 0.017
C4F 0.039 0.041 0.029 -0.017 -0.014 0.025
C4HD 0.041 0.039 0.029 -0.014 0.017 -0.025
C4ZC 0.039 0.029 0.041 -0.017 0.025 -0.014
C4FD 0.029 0.041 0.039 -0.025 0.014 -0.017
C4SC 0.029 0.039 0.041 0.025 -0.017 -0.014
C4AD 0.041 0.029 0.039 0.014 -0.025 -0.017
C4LD 0.039 0.041 0.029 0.017 -0.014 -0.025
C4EB 0.041 0.029 0.039 0.014 -0.025 -0.017
C4PB 0.039 0.041 0.029 0.017 -0.014 -0.025
C4WA 0.029 0.039 0.041 0.025 -0.017 -0.014
C5K 0.038 0.041 0.027 0.015 0.013 0.019
C5J 0.041 0.027 0.038 0.013 0.019 0.015
C5BA 0.027 0.041 0.038 -0.019 0.013 -0.015
C5AA 0.038 0.027 0.041 -0.015 0.019 -0.013
C5TA 0.041 0.038 0.027 -0.013 0.015 -0.019
C5WC 0.027 0.038 0.041 0.019 -0.015 -0.013
C5ID 0.038 0.041 0.027 0.015 -0.013 -0.019
C5ED 0.041 0.027 0.038 0.013 -0.019 -0.015
C5VD 0.027 0.041 0.038 -0.019 -0.013 0.015
C5HE 0.038 0.027 0.041 -0.015 -0.019 0.013
C5WD 0.041 0.038 0.027 -0.013 -0.015 0.019
C5R 0.038 0.027 0.041 -0.015 -0.019 0.013
C5G 0.041 0.038 0.027 -0.013 -0.015 0.019
C5F 0.027 0.041 0.038 -0.019 -0.013 0.015
C5HD 0.041 0.027 0.038 -0.013 0.019 -0.015
C5ZC 0.027 0.038 0.041 -0.019 0.015 -0.013
C5FD 0.038 0.041 0.027 -0.015 0.013 -0.019
C5SC 0.038 0.027 0.041 0.015 -0.019 -0.013
C5AD 0.041 0.038 0.027 0.013 -0.015 -0.019
C5LD 0.027 0.041 0.038 0.019 -0.013 -0.015
C5EB 0.041 0.038 0.027 0.013 -0.015 -0.019
C5PB 0.027 0.041 0.038 0.019 -0.013 -0.015
C5WA 0.038 0.027 0.041 0.015 -0.019 -0.013
loop_
_geom_bond_atom_site_label_1
_geom_bond_atom_site_label_2
_geom_bond_site_symmetry_1
_geom_bond_site_symmetry_2
Cd1 O1 1_555 1_555
Cd2 O4 1_555 1_555
S1 C2 1_555 1_555
O1 C1 1_555 1_555
O2 Cd1 1_555 1_555
O3 Cd1 1_555 1_555
C1 O2 1_555 1_555
C2 C1 1_555 1_555
C3 C2 1_555 1_555
H1 C3 1_555 1_555
C4 C3 1_555 1_555
C5 S1 1_555 1_555
Cd1J O1J 1_555 1_555
Cd1K O1K 1_555 1_555
Cd1BA O1BA 1_555 1_555
Cd1TA O1K 1_555 1_555
Cd1AA O1AA 1_555 1_555
Cd1O O1ED 1_555 1_555
Cd1N O1ID 1_555 1_555
Cd1UA O1ID 1_555 1_555
Cd1Y O1HE 1_555 1_555
Cd1F O1 1_555 1_555
Cd1WA O1J 1_555 1_555
Cd1FC O1TA 1_555 1_555
Cd1KA O1AA 1_555 1_555
Cd1YA O1ED 1_555 1_555
Cd1KC O1WD 1_555 1_555
Cd1NA O1HE 1_555 1_555
Cd1R O1R 1_555 1_555
Cd1CA O1F 1_555 1_555
Cd1G O1G 1_555 1_555
Cd1JB O1G 1_555 1_555
Cd1Q O1FD 1_555 1_555
Cd1EA O1FD 1_555 1_555
Cd1B O1ZC 1_555 1_555
Cd1U O1ZC 1_555 1_555
Cd1FA O1LD 1_555 1_555
Cd1V O1AD 1_555 1_555
Cd1HB O1AD 1_555 1_555
Cd1EB O1EB 1_555 1_555
Cd1LB O1WA 1_555 1_555
Cd1PB O1PB 1_555 1_555
Cd1VB O1PB 1_555 1_555
S1K C2K 1_555 1_555
S1J C2J 1_555 1_555
S1BA C2BA 1_555 1_555
S1AA C2AA 1_555 1_555
S1TA C2TA 1_555 1_555
S1WC C2WC 1_555 1_555
S1ID C2ID 1_555 1_555
S1ED C2ED 1_555 1_555
S1VD C2VD 1_555 1_555
S1HE C2HE 1_555 1_555
S1WD C2WD 1_555 1_555
S1R C2R 1_555 1_555
S1G C2G 1_555 1_555
S1F C2F 1_555 1_555
S1HD C2HD 1_555 1_555
S1ZC C2ZC 1_555 1_555
S1FD C2FD 1_555 1_555
S1SC C2SC 1_555 1_555
S1AD C2AD 1_555 1_555
S1LD C2LD 1_555 1_555
S1EB C2EB 1_555 1_555
S1PB C2PB 1_555 1_555
S1WA C2WA 1_555 1_555
O1J C1J 1_555 1_555
O1K C1K 1_555 1_555
O1BA Cd1 1_555 1_555
O1TA Cd1TA 1_555 1_555
O1AA C1AA 1_555 1_555
O1WC Cd1 1_555 1_555
O1ED C1ED 1_555 1_555
O1ID C1ID 1_555 1_555
O1VD Cd1 1_555 1_555
O1WD Cd1UA 1_555 1_555
O1HE C1HE 1_555 1_555
O1R Cd1J 1_555 1_555
O1F Cd1F 1_555 1_555
O1G C1G 1_555 1_555
O1HD Cd1J 1_555 1_555
O1FD C1FD 1_555 1_555
O1ZC C1ZC 1_555 1_555
O1SC Cd1J 1_555 1_555
O1LD Cd1U 1_555 1_555
O1AD C1AD 1_555 1_555
O1EB Cd1K 1_555 1_555
O1WA Cd1WA 1_555 1_555
O1PB C1PB 1_555 1_555
O1DD Cd1K 1_555 1_555
O1JF Cd1K 1_555 1_555
O1CA Cd1BA 1_555 1_555
O1PD Cd1BA 1_555 1_555
O1YD Cd1TA 1_555 1_555
O1IC Cd1AA 1_555 1_555
O1IE Cd1AA 1_555 1_555
O1YF Cd1AA 1_555 1_555
O1UC Cd1O 1_555 1_555
O1O Cd1O 1_555 1_555
O1S Cd1O 1_555 1_555
O1KF Cd1N 1_555 1_555
O1N Cd1N 1_555 1_555
O1CB Cd1N 1_555 1_555
O1UA Cd1UA 1_555 1_555
O1BG Cd1Y 1_555 1_555
O1Y Cd1Y 1_555 1_555
O1DC Cd1Y 1_555 1_555
O1VC Cd1F 1_555 1_555
O1FF Cd1WA 1_555 1_555
O2J Cd1J 1_555 1_555
O2K Cd1K 1_555 1_555
O2BA Cd1BA 1_555 1_555
O2TA Cd1TA 1_555 1_555
O2AA Cd1AA 1_555 1_555
O2WC Cd1 1_555 1_555
O2ED Cd1O 1_555 1_555
O2ID Cd1N 1_555 1_555
O2VD Cd1BA 1_555 1_555
O2WD Cd1UA 1_555 1_555
O2HE Cd1Y 1_555 1_555
O2R Cd1R 1_555 1_555
O2F Cd1F 1_555 1_555
O2G Cd1G 1_555 1_555
O2HD Cd1J 1_555 1_555
O2FD Cd1Q 1_555 1_555
O2ZC Cd1B 1_555 1_555
O2SC Cd1R 1_555 1_555
O2LD Cd1U 1_555 1_555
O2AD Cd1V 1_555 1_555
O2EB Cd1EB 1_555 1_555
O2WA Cd1WA 1_555 1_555
O2PB Cd1PB 1_555 1_555
O2DD Cd1K 1_555 1_555
O2YD Cd1TA 1_555 1_555
O2IE Cd1AA 1_555 1_555
O2O Cd1O 1_555 1_555
O2N Cd1N 1_555 1_555
O2UA Cd1UA 1_555 1_555
O2Y Cd1Y 1_555 1_555
O2VC Cd1F 1_555 1_555
O2FF Cd1WA 1_555 1_555
O3J Cd1J 1_555 1_555
O3K Cd1K 1_555 1_555
O3BA Cd1BA 1_555 1_555
O3TA Cd1TA 1_555 1_555
O3AA Cd1AA 1_555 1_555
O3O Cd1O 1_555 1_555
O3N Cd1N 1_555 1_555
O3UA Cd1UA 1_555 1_555
O3Y Cd1Y 1_555 1_555
O3F Cd1F 1_555 1_555
O3WA Cd1WA 1_555 1_555
C1J O2J 1_555 1_555
C1K O2K 1_555 1_555
C1BA O1BA 1_555 1_555
C1TA O1TA 1_555 1_555
C1AA O2AA 1_555 1_555
C1WC O1WC 1_555 1_555
C1ED O2ED 1_555 1_555
C1ID O2ID 1_555 1_555
C1VD O1VD 1_555 1_555
C1WD O1WD 1_555 1_555
C1HE O2HE 1_555 1_555
C1R O1R 1_555 1_555
C1F O1F 1_555 1_555
C1G O2G 1_555 1_555
C1HD O1HD 1_555 1_555
C1FD O2FD 1_555 1_555
C1ZC O2ZC 1_555 1_555
C1SC O1SC 1_555 1_555
C1LD O1LD 1_555 1_555
C1AD O2AD 1_555 1_555
C1EB O1EB 1_555 1_555
C1WA O1WA 1_555 1_555
C1PB O2PB 1_555 1_555
C2K C1K 1_555 1_555
C2J C1J 1_555 1_555
C2BA C1BA 1_555 1_555
C2AA C1AA 1_555 1_555
C2TA C1TA 1_555 1_555
C2WC C1WC 1_555 1_555
C2ID C1ID 1_555 1_555
C2ED C1ED 1_555 1_555
C2VD C1VD 1_555 1_555
C2HE C1HE 1_555 1_555
C2WD C1WD 1_555 1_555
C2R C1R 1_555 1_555
C2G C1G 1_555 1_555
C2F C1F 1_555 1_555
C2HD C1HD 1_555 1_555
C2ZC C1ZC 1_555 1_555
C2FD C1FD 1_555 1_555
C2SC C1SC 1_555 1_555
C2AD C1AD 1_555 1_555
C2LD C1LD 1_555 1_555
C2EB C1EB 1_555 1_555
C2PB C1PB 1_555 1_555
C2WA C1WA 1_555 1_555
C3K C2K 1_555 1_555
C3J C2J 1_555 1_555
C3BA C2BA 1_555 1_555
C3AA C2AA 1_555 1_555
C3TA C2TA 1_555 1_555
C3WC C2WC 1_555 1_555
C3ID C2ID 1_555 1_555
C3ED C2ED 1_555 1_555
C3VD C2VD 1_555 1_555
C3HE C2HE 1_555 1_555
C3WD C2WD 1_555 1_555
C3R C2R 1_555 1_555
C3G C2G 1_555 1_555
C3F C2F 1_555 1_555
C3HD C2HD 1_555 1_555
C3ZC C2ZC 1_555 1_555
C3FD C2FD 1_555 1_555
C3SC C2SC 1_555 1_555
C3AD C2AD 1_555 1_555
C3LD C2LD 1_555 1_555
C3EB C2EB 1_555 1_555
C3PB C2PB 1_555 1_555
C3WA C2WA 1_555 1_555
H1J C3J 1_555 1_555
H1K C3K 1_555 1_555
H1BA C3BA 1_555 1_555
H1TA C3TA 1_555 1_555
H1AA C3AA 1_555 1_555
H1WC C3WC 1_555 1_555
H1ED C3ED 1_555 1_555
H1ID C3ID 1_555 1_555
H1VD C3VD 1_555 1_555
H1WD C3WD 1_555 1_555
H1HE C3HE 1_555 1_555
H1R C3R 1_555 1_555
H1F C3F 1_555 1_555
H1G C3G 1_555 1_555
H1HD C3HD 1_555 1_555
H1FD C3FD 1_555 1_555
H1ZC C3ZC 1_555 1_555
H1SC C3SC 1_555 1_555
H1LD C3LD 1_555 1_555
H1AD C3AD 1_555 1_555
H1EB C3EB 1_555 1_555
H1WA C3WA 1_555 1_555
H1PB C3PB 1_555 1_555
C4K C5 1_555 1_555
C4J C3J 1_555 1_555
C4BA C3BA 1_555 1_555
C4AA C3AA 1_555 1_555
C4TA C3TA 1_555 1_555
C4WC C3WC 1_555 1_555
C4ID C3ID 1_555 1_555
C4ED C3ED 1_555 1_555
C4VD C3VD 1_555 1_555
C4HE C3HE 1_555 1_555
C4WD C3WD 1_555 1_555
C4R C3R 1_555 1_555
C4G C3G 1_555 1_555
C4F C3F 1_555 1_555
C4HD C3HD 1_555 1_555
C4ZC C3ZC 1_555 1_555
C4FD C3FD 1_555 1_555
C4SC C3SC 1_555 1_555
C4AD C3AD 1_555 1_555
C4LD C3LD 1_555 1_555
C4EB C3EB 1_555 1_555
C4PB C3PB 1_555 1_555
C4WA C3WA 1_555 1_555
C5K S1K 1_555 1_555
C5J C4 1_555 1_555
C5BA S1BA 1_555 1_555
C5AA S1AA 1_555 1_555
C5TA S1TA 1_555 1_555
C5WC S1WC 1_555 1_555
C5ID S1ID 1_555 1_555
C5ED S1ED 1_555 1_555
C5VD S1VD 1_555 1_555
C5HE S1HE 1_555 1_555
C5WD S1WD 1_555 1_555
C5R S1R 1_555 1_555
C5G S1G 1_555 1_555
C5F S1F 1_555 1_555
C5HD S1HD 1_555 1_555
C5ZC S1ZC 1_555 1_555
C5FD S1FD 1_555 1_555
C5SC S1SC 1_555 1_555
C5AD S1AD 1_555 1_555
C5LD S1LD 1_555 1_555
C5EB S1EB 1_555 1_555
C5PB S1PB 1_555 1_555
C5WA S1WA 1_555 1_555
O4F Cd2 1_555 1_555
O4G Cd2 1_555 1_555
O4R Cd2 1_555 1_555
O4BA Cd2 1_555 1_555
O4EB Cd2 1_555 1_555
C4 C5 1_555 1_555
Cd1BA O1VD 1_555 1_555
Cd1TA O1DD 1_555 1_555
Cd1UA O1N 1_555 1_555
Cd1F O1WC 1_555 1_555
Cd1WA O1HD 1_555 1_555
Cd1FC O1YD 1_555 1_555
Cd1KA O1IE 1_555 1_555
Cd1YA O1O 1_555 1_555
Cd1KC O1UA 1_555 1_555
Cd1NA O1Y 1_555 1_555
Cd1R O1SC 1_555 1_555
Cd1CA O1CA 1_555 1_555
Cd1CA O1PD 1_555 1_555
Cd1CA O1VC 1_555 1_555
Cd1EB O1JF 1_555 1_555
Cd1LB O1FF 1_555 1_555
S1J C5J 1_555 1_555
O2BA C1BA 1_555 1_555
O2TA C1TA 1_555 1_555
O2WC C1WC 1_555 1_555
O2VD C1VD 1_555 1_555
O2WD C1WD 1_555 1_555
O2R C1R 1_555 1_555
O2F C1F 1_555 1_555
O2HD C1HD 1_555 1_555
O2SC C1SC 1_555 1_555
O2LD C1LD 1_555 1_555
O2EB C1EB 1_555 1_555
O2WA C1WA 1_555 1_555
C3K C4K 1_555 1_555
C4K C5K 1_555 1_555
C4J C5K 1_555 1_555
C4J C5J 1_555 1_555
C4BA C5BA 1_555 1_555
C4BA C5TA 1_555 1_555
C4AA C5BA 1_555 1_555
C4AA C5AA 1_555 1_555
C4TA C5AA 1_555 1_555
C4TA C5TA 1_555 1_555
C4WC C5WC 1_555 1_555
C4WC C5ED 1_555 1_555
C4ID C5WC 1_555 1_555
C4ID C5ID 1_555 1_555
C4ED C5ID 1_555 1_555
C4ED C5ED 1_555 1_555
C4VD C5VD 1_555 1_555
C4VD C5WD 1_555 1_555
C4HE C5VD 1_555 1_555
C4HE C5HE 1_555 1_555
C4WD C5HE 1_555 1_555
C4WD C5WD 1_555 1_555
C4R C5R 1_555 1_555
C4R C5F 1_555 1_555
C4G C5R 1_555 1_555
C4G C5G 1_555 1_555
C4F C5G 1_555 1_555
C4F C5F 1_555 1_555
C4HD C5HD 1_555 1_555
C4HD C5FD 1_555 1_555
C4ZC C5HD 1_555 1_555
C4ZC C5ZC 1_555 1_555
C4FD C5ZC 1_555 1_555
C4FD C5FD 1_555 1_555
C4SC C5SC 1_555 1_555
C4SC C5LD 1_555 1_555
C4AD C5SC 1_555 1_555
C4AD C5AD 1_555 1_555
C4LD C5AD 1_555 1_555
C4LD C5LD 1_555 1_555
C4EB C5EB 1_555 1_555
C4EB C5WA 1_555 1_555
C4PB C5EB 1_555 1_555
C4PB C5PB 1_555 1_555
C4WA C5PB 1_555 1_555
C4WA C5WA 1_555 1_555

#END
