
#######################################################################
#
#                 Cambridge Crystallographic Data Centre
#                                CCDC 
#
#######################################################################
#
# If this CIF has been generated from an entry in the Cambridge 
# Structural Database, then it will include bibliographic, chemical, 
# crystal, experimental, refinement or atomic coordinate data resulting 
# from the CCDC's data processing and validation procedures.
#
#######################################################################

data_QIWPET
_chemical_formula_moiety         '(C20 H32 Mg5 O31)n'
_symmetry_cell_setting           triclinic
_symmetry_space_group_name_H-M   'P -1'
_symmetry_Int_Tables_number      2
_space_group_name_Hall           '-P 1'
loop_
_symmetry_equiv_pos_site_id
_symmetry_equiv_pos_as_xyz
1 x,y,z
2 -x,-y,-z
_cell_length_a                   7.3742(3)
_cell_length_b                   11.4011(6)
_cell_length_c                   11.6706(6)
_cell_angle_alpha                89.666(4)
_cell_angle_beta                 76.813(4)
_cell_angle_gamma                74.971(4)
_cell_volume                     921.159
loop_
_atom_site_label
_atom_site_type_symbol
_atom_site_fract_x
_atom_site_fract_y
_atom_site_fract_z
Mg1 Mg 0.54122(9) 0.14697(6) 0.67436(6)
Mg2 Mg 0.68751(9) 0.13197(6) 0.36399(6)
Mg3 Mg 1.0000 -0.0000 0.5000
O1 O 0.3264(2) 0.25246(14) 0.60626(13)
O2 O 0.3971(2) 0.22060(14) 0.41132(13)
O3 O 0.0025(2) 0.17899(12) 0.51094(13)
O4 O -0.2260(2) 0.27349(13) 0.41980(14)
O5 O 0.97798(19) 0.02162(13) 0.32188(11)
O6 O 1.2742(2) -0.07218(16) 0.22082(13)
O7 O 1.3221(2) 0.16767(14) -0.16235(12)
O8 O 1.36635(19) 0.00991(13) -0.28043(12)
O9 O 0.70107(18) 0.05109(12) 0.52381(11)
H1 H 0.6599 -0.0237 0.5208
O10 O 0.6121(3) 0.30367(17) 0.70135(18)
H2 H 0.532(3) 0.3695(15) 0.706(3)
H3 H 0.711(3) 0.306(2) 0.722(3)
O11 O 0.7100(3) 0.22386(16) 0.20684(16)
H4 H 0.668(4) 0.208(2) 0.1513(19)
H5 H 0.708(4) 0.2948(12) 0.218(2)
C1 C 0.2984(3) 0.27715(18) 0.50623(18)
C2 C 0.1395(3) 0.39039(18) 0.50154(17)
C3 C 0.1786(3) 0.50135(18) 0.51597(18)
H6 H 0.2993 0.5023 0.5268
C4 C -0.0421(3) 0.38894(18) 0.48529(17)
C5 C -0.0928(3) 0.27101(18) 0.47119(18)
C6 C 1.1006(3) -0.02138(18) 0.22770(17)
C7 C 1.0387(3) -0.00926(19) 0.11257(17)
C8 C 1.1640(3) 0.0248(2) 0.01798(17)
H7 H 1.2749 0.0419 0.0303
C9 C 1.1288(3) 0.03399(19) -0.09436(17)
C10 C 1.2784(3) 0.07364(18) -0.18569(17)
O1A O -0.3264(2) 0.74754(14) 0.39374(13)
O2A O -0.3971(2) 0.77940(14) 0.58868(13)
O3A O -0.0025(2) 0.82101(12) 0.48906(13)
O4A O 0.2260(2) 0.72651(13) 0.58020(14)
C1A C -0.2984(3) 0.72285(18) 0.49377(18)
C2A C -0.1395(3) 0.60961(18) 0.49846(17)
C3A C -0.1786(3) 0.49865(18) 0.48403(18)
H6A H -0.2993 0.4977 0.4732
C4A C 0.0421(3) 0.61106(18) 0.51471(17)
C5A C 0.0928(3) 0.72899(18) 0.52881(18)
O5A O 1.02202(19) -0.02162(13) -0.32188(11)
O6A O 0.7258(2) 0.07218(16) -0.22082(13)
O7A O 0.6779(2) -0.16767(14) 0.16235(12)
O8A O 0.63365(19) -0.00991(13) 0.28043(12)
C6A C 0.8994(3) 0.02138(18) -0.22770(17)
C7A C 0.9613(3) 0.00926(19) -0.11257(17)
C8A C 0.8360(3) -0.0248(2) -0.01798(17)
H7A H 0.7251 -0.0419 -0.0303
C9A C 0.8712(3) -0.03399(19) 0.09436(17)
C10A C 0.7216(3) -0.07364(18) 0.18569(17)
Mg1A Mg -0.54122(9) 0.85303(6) 0.32564(6)
Mg2A Mg -0.68751(9) 0.86803(6) 0.63601(6)
O9A O -0.70107(18) 0.94891(12) 0.47619(11)
H1A H -0.6599 1.0237 0.4792
O10A O -0.6121(3) 0.69633(17) 0.29865(18)
H2A H -0.532(3) 0.6305(15) 0.294(3)
H3A H -0.711(3) 0.694(2) 0.278(3)
O11A O -0.7100(3) 0.77614(16) 0.79316(16)
H4A H -0.668(4) 0.792(2) 0.8487(19)
H5A H -0.708(4) 0.7052(12) 0.782(2)
Mg1_2 Mg 0.54122(9) 0.14697(6) -0.32564(6)
Mg1_3 Mg 1.54122(9) 0.14697(6) -0.32564(6)
Mg1A_2 Mg 0.45878(9) -0.14697(6) 0.32564(6)
Mg1A_3 Mg 1.45878(9) -0.14697(6) 0.32564(6)
Mg2_2 Mg -0.31249(9) 0.13197(6) 0.36399(6)
Mg2A_2 Mg 0.31249(9) 0.86803(6) 0.63601(6)
Mg2A_3 Mg 1.31249(9) -0.13197(6) -0.36399(6)
Mg3_2 Mg -1.0000 1.0000 0.5000
Mg3_3 Mg -0.0000 -0.0000 0.5000
Mg3_4 Mg 0.0000 1.0000 0.5000
Mg3_5 Mg 1.0000 0.0000 -0.5000
O3_2 O 1.0025(2) 0.17899(12) 0.51094(13)
O3A_2 O 0.9975(2) -0.17899(12) 0.48906(13)
O4_2 O 0.7740(2) 0.27349(13) 0.41980(14)
O4A_2 O -0.7740(2) 0.72651(13) 0.58020(14)
O5A_2 O -0.97798(19) 0.97838(13) 0.67812(11)
O5A_3 O 1.02202(19) -0.02162(13) 0.67812(11)
O6_2 O -0.7258(2) 0.92782(16) 0.22082(13)
O6A_2 O 0.7258(2) 0.07218(16) 0.77918(13)
O7_2 O 0.3221(2) 0.16767(14) 0.83765(12)
O7A_2 O -0.3221(2) 0.83233(14) 0.16235(12)
O8_2 O -0.63365(19) 1.00991(13) 0.71957(12)
O8_3 O 0.36635(19) 0.00991(13) 0.71957(12)
O8A_2 O -0.36635(19) 0.99009(13) 0.28043(12)
O9A_2 O 1.29893(18) -0.05109(12) 0.47619(11)
O12 O 0.4553(6) 0.7544(3) 0.9905(3)
H8 H 0.405(8) 0.697(4) 1.003(4)
H9 H 0.456(9) 0.791(4) 1.051(2)
O13 O 0.9366(4) 0.3146(3) 0.7734(2)
H10 H 1.0456 0.2889 0.7283
H11 H 0.9047 0.3905 0.7852
O14 O 0.6578(7) 0.4750(3) 0.2359(4)
H12 H 0.6394 0.4808 0.1684
H13 H 0.7737 0.4694 0.2140
O15 O 0.437(3) 0.511(2) 1.015(3)
O16 O 0.2337(7) 0.2390(5) 0.2116(4)
O17 O 0.2436(18) 0.3712(16) 0.2146(9)
O18 O 0.0388(14) 0.4578(8) 0.1625(8)
O19 O 0.0141(18) 0.3149(10) 0.0409(14)
O15A O 0.563(3) 0.489(2) 0.985(3)
loop_
_geom_bond_atom_site_label_1
_geom_bond_atom_site_label_2
_geom_bond_site_symmetry_1
_geom_bond_site_symmetry_2
Mg1 O1 1_555 1_555
Mg2 O2 1_555 1_555
Mg3 O5 1_555 1_555
O1 C1 1_555 1_555
O2 C1 1_555 1_555
O3 C5 1_555 1_555
O4 C5 1_555 1_555
O5 Mg2 1_555 1_555
O6 C6 1_555 1_555
O7 C10 1_555 1_555
O8 C10 1_555 1_555
O9 Mg1 1_555 1_555
H1 O9 1_555 1_555
O10 Mg1 1_555 1_555
H2 O10 1_555 1_555
H3 O10 1_555 1_555
O11 Mg2 1_555 1_555
H4 O11 1_555 1_555
H5 O11 1_555 1_555
C1 C2 1_555 1_555
C2 C3 1_555 1_555
C3 H6 1_555 1_555
C4 C2 1_555 1_555
C5 C4 1_555 1_555
C6 O5 1_555 1_555
C7 C6 1_555 1_555
C8 C7 1_555 1_555
H7 C8 1_555 1_555
C9 C8 1_555 1_555
C10 C9 1_555 1_555
O12 H8 1_555 1_555
H9 O12 1_555 1_555
O13 H10 1_555 1_555
H11 O13 1_555 1_555
O14 H12 1_555 1_555
H13 O14 1_555 1_555
O1A C1A 1_555 1_555
O2A C1A 1_555 1_555
O3A C5A 1_555 1_555
O4A C5A 1_555 1_555
C1A C2A 1_555 1_555
C2A C3A 1_555 1_555
C3A C4 1_555 1_555
H6A C3A 1_555 1_555
C4A C3 1_555 1_555
C5A C4A 1_555 1_555
O5A C6A 1_555 1_555
O6A C6A 1_555 1_555
O7A C10A 1_555 1_555
O8A Mg2 1_555 1_555
C6A C7A 1_555 1_555
C7A C9 1_555 1_555
C8A C7A 1_555 1_555
H7A C8A 1_555 1_555
C9A C7 1_555 1_555
C10A O8A 1_555 1_555
Mg1A O1A 1_555 1_555
Mg2A O2A 1_555 1_555
O9A Mg1A 1_555 1_555
H1A O9A 1_555 1_555
O10A Mg1A 1_555 1_555
H2A O10A 1_555 1_555
H3A O10A 1_555 1_555
O11A Mg2A 1_555 1_555
H4A O11A 1_555 1_555
H5A O11A 1_555 1_555
Mg1_2 O6A 1_555 1_555
Mg1_3 O7 1_555 1_555
Mg1A_2 O7A 1_555 1_555
Mg1A_3 O6 1_555 1_555
Mg2_2 O4 1_555 1_555
Mg2A_2 O4A 1_555 1_555
Mg2A_3 O8 1_555 1_555
Mg3_2 O9A 1_555 1_555
Mg3_3 O3 1_555 1_555
Mg3_4 O3A 1_555 1_555
Mg3_5 O5A 1_555 1_555
O3_2 Mg3 1_555 1_555
O3A_2 Mg3 1_555 1_555
O4_2 Mg2 1_555 1_555
O4A_2 Mg2A 1_555 1_555
O5A_2 Mg2A 1_555 1_555
O5A_3 Mg3 1_555 1_555
O6_2 Mg1A 1_555 1_555
O6A_2 Mg1 1_555 1_555
O7_2 Mg1 1_555 1_555
O7A_2 Mg1A 1_555 1_555
O8_2 Mg2A 1_555 1_555
O8_3 Mg1 1_555 1_555
O8A_2 Mg1A 1_555 1_555
O9A_2 Mg3 1_555 1_555
Mg2 O9 1_555 1_555
Mg3 O9 1_555 1_555
O8 Mg1_3 1_555 1_555
C2A C4A 1_555 1_555
O5A Mg2A_3 1_555 1_555
O8A Mg1A_2 1_555 1_555
C8A C9A 1_555 1_555
C9A C10A 1_555 1_555
Mg2A O9A 1_555 1_555
Mg1A_3 O9A_2 1_555 1_555
Mg3_2 O5A_2 1_555 1_555

#END
