
#######################################################################
#
#                 Cambridge Crystallographic Data Centre
#                                CCDC 
#
#######################################################################
#
# If this CIF has been generated from an entry in the Cambridge 
# Structural Database, then it will include bibliographic, chemical, 
# crystal, experimental, refinement or atomic coordinate data resulting 
# from the CCDC's data processing and validation procedures.
#
#######################################################################

data_ICIZOL
_chemical_formula_moiety         '(C40 H44 Mn2 N8 O22 S4)n'
_symmetry_cell_setting           monoclinic
_symmetry_space_group_name_H-M   'P c'
_symmetry_Int_Tables_number      7
_space_group_name_Hall           'P -2yc'
loop_
_symmetry_equiv_pos_site_id
_symmetry_equiv_pos_as_xyz
1 x,y,z
2 x,-y,1/2+z
_cell_length_a                   9.316(6)
_cell_length_b                   11.917(8)
_cell_length_c                   25.515(16)
_cell_angle_alpha                90
_cell_angle_beta                 94.663(13)
_cell_angle_gamma                90
_cell_volume                     2823.27
loop_
_atom_site_label
_atom_site_type_symbol
_atom_site_fract_x
_atom_site_fract_y
_atom_site_fract_z
Mn1 Mn 0.44433(13) 0.08057(12) 0.02126(5)
Mn2 Mn -0.07356(15) -0.60055(13) -0.29405(5)
S1 S 0.5826(3) -0.1621(2) 0.07683(11)
S2 S -0.2206(3) -0.5671(3) -0.16948(9)
S3 S 0.3127(3) 0.0162(2) -0.10583(8)
S4 S 1.1102(3) -0.3441(3) -0.30183(13)
O1 O 0.6420(13) 0.1571(14) 0.0022(10)
O2 O 0.3375(11) 0.2393(7) -0.0005(3)
O3 O 0.5804(8) -0.0670(6) 0.0403(3)
O4 O 0.7286(7) -0.2116(7) 0.0858(3)
O5 O 0.5187(9) -0.1353(7) 0.1252(3)
O6 O -0.1617(10) -0.5691(8) -0.2195(3)
O7 O -0.2023(14) -0.6717(7) -0.1427(4)
O8 O -0.3668(11) -0.5238(11) -0.1744(5)
O9 O 1.1148(18) -0.3366(12) -0.3552(4)
O10 O 1.2474(10) -0.3309(11) -0.2715(6)
O11 O 1.0398(9) -0.4440(8) -0.2869(4)
O12 O 0.3162(16) 0.1240(8) -0.1279(4)
O13 O 0.3822(12) 0.0091(10) -0.0523(3)
O14 O 0.1647(11) -0.0243(14) -0.1098(5)
O15 O 0.1223(11) -0.6753(12) -0.2601(5)
O16 O -0.1803(11) -0.7635(7) -0.3021(3)
N1 N 0.0876(9) -0.3740(7) 0.0994(3)
N2 N -0.0381(8) -0.4019(6) 0.1188(3)
N3 N -0.1400(8) -0.4538(7) 0.0335(3)
N4 N -0.2723(9) -0.4779(7) 0.1629(3)
N5 N 0.4693(9) -0.1147(6) -0.3911(3)
N6 N 0.6002(8) -0.1395(7) -0.3651(2)
N7 N 0.3712(7) -0.0835(6) -0.3091(2)
N8 N 0.2413(8) -0.0207(6) -0.4433(2)
C1 C 0.4748(11) -0.2659(9) 0.0440(4)
C2 C 0.5253(11) -0.3270(10) 0.0026(4)
H1 H 0.6189 -0.3122 -0.0079
C3 C 0.4412(12) -0.4092(9) -0.0234(4)
H2 H 0.4776 -0.4527 -0.0505
C4 C 0.2990(11) -0.4265(9) -0.0083(4)
H3 H 0.2396 -0.4813 -0.0262
C5 C 0.2459(10) -0.3660(8) 0.0315(3)
C6 C 0.3317(9) -0.2821(8) 0.0573(4)
H4 H 0.2937 -0.2367 0.0834
C7 C 0.1023(9) -0.3843(8) 0.0481(3)
C8 C -0.0219(9) -0.4132(7) 0.0135(3)
C9 C -0.0303(9) -0.4004(7) -0.0441(3)
C10 C 0.0325(12) -0.3089(9) -0.0682(3)
H5 H 0.0856 -0.2542 -0.0477
C11 C 0.0156(15) -0.2996(9) -0.1231(4)
H6 H 0.0543 -0.2356 -0.1391
C12 C -0.0533(12) -0.3774(11) -0.1541(4)
H7 H -0.0585 -0.3702 -0.1913
C13 C -0.1185(9) -0.4710(8) -0.1302(3)
C14 C -0.1088(10) -0.4799(8) -0.0757(3)
H8 H -0.1554 -0.5402 -0.0597
C15 C -0.1399(10) -0.4528(7) 0.0865(3)
C16 C -0.2679(9) -0.4972(8) 0.1108(3)
C17 C -0.3772(10) -0.5505(8) 0.0794(4)
H9 H -0.3681 -0.5620 0.0430
C18 C -0.4987(11) -0.5862(10) 0.1021(6)
H10 H -0.5770 -0.6207 0.0820
C19 C -0.5002(14) -0.5678(13) 0.1588(6)
H11 H -0.5795 -0.5930 0.1769
C20 C -0.3880(11) -0.5149(10) 0.1853(5)
H12 H -0.3918 -0.5033 0.2220
C21 C 0.1208(13) 0.0196(10) -0.4712(4)
H13 H 0.1207 0.0252 -0.5083
C22 C -0.0004(12) 0.0526(11) -0.4479(5)
H14 H -0.0826 0.0786 -0.4688
C23 C -0.0021(13) 0.0475(16) -0.3936(5)
H15 H -0.0827 0.0748 -0.3769
C24 C 0.1168(12) 0.0016(11) -0.3638(4)
H16 H 0.1177 -0.0061 -0.3268
C25 C 0.2329(10) -0.0320(8) -0.3908(3)
C26 C 0.3638(10) -0.0770(8) -0.3618(3)
C27 C 0.4933(9) -0.1137(7) -0.2847(3)
C28 C 0.6176(10) -0.1312(7) -0.3136(3)
C29 C 0.7630(9) -0.1439(7) -0.2904(3)
C30 C 0.8196(11) -0.0635(8) -0.2515(3)
H17 H 0.7606 -0.0042 -0.2407
C31 C 0.9614(11) -0.0738(10) -0.2299(4)
H18 H 0.9982 -0.0218 -0.2040
C32 C 1.0476(12) -0.1574(9) -0.2456(4)
H19 H 1.1436 -0.1633 -0.2302
C33 C 0.9993(9) -0.2323(9) -0.2827(4)
C34 C 0.8602(10) -0.2254(7) -0.3062(3)
H20 H 0.8297 -0.2766 -0.3333
C35 C 0.4958(9) -0.1301(7) -0.2266(3)
C36 C 0.4178(9) -0.0570(7) -0.1979(3)
H21 H 0.3674 0.0044 -0.2145
C37 C 0.4149(10) -0.0763(7) -0.1430(3)
C38 C 0.4833(13) -0.1663(10) -0.1187(4)
H22 H 0.4811 -0.1779 -0.0819
C39 C 0.5571(18) -0.2413(12) -0.1498(4)
H23 H 0.6007 -0.3056 -0.1333
C40 C 0.5694(9) -0.2271(7) -0.2023(3)
H24 H 0.6230 -0.2776 -0.2220
Mn1A Mn 0.44433(13) -0.08057(12) -0.47874(5)
Mn2_2 Mn 0.92644(15) -0.60055(13) -0.29405(5)
Mn2A Mn -0.07356(15) -0.39945(13) 0.20595(5)
O11_2 O 0.0398(9) -0.4440(8) -0.2869(4)
N2A N -0.0381(8) -0.5981(6) -0.3812(3)
N4A N -0.2723(9) -0.5221(7) -0.3371(3)
N5A N 0.4693(9) 0.1147(6) 0.1089(3)
N8A N 0.2413(8) 0.0207(6) 0.0567(2)
O17 O 0.049(2) -0.2008(17) 0.3246(9)
O18 O -0.6708(9) -0.5197(7) -0.2055(3)
O19 O 0.6312(9) -0.1743(7) 0.2755(3)
O20 O -0.134(3) 0.001(2) 0.4117(13)
O21 O 0.076(3) 0.307(2) 0.0327(11)
O22 O 0.147(7) 0.377(7) -0.113(3)
loop_
_geom_bond_atom_site_label_1
_geom_bond_atom_site_label_2
_geom_bond_site_symmetry_1
_geom_bond_site_symmetry_2
Mn1 O1 1_555 1_555
Mn2 O6 1_555 1_555
S1 O3 1_555 1_555
S2 O6 1_555 1_555
S3 O12 1_555 1_555
S4 O9 1_555 1_555
O2 Mn1 1_555 1_555
O3 Mn1 1_555 1_555
O4 S1 1_555 1_555
O5 S1 1_555 1_555
O7 S2 1_555 1_555
O8 S2 1_555 1_555
O10 S4 1_555 1_555
O11 S4 1_555 1_555
O13 Mn1 1_555 1_555
O14 S3 1_555 1_555
O15 Mn2 1_555 1_555
O16 Mn2 1_555 1_555
N1 N2 1_555 1_555
N2 C15 1_555 1_555
N3 C8 1_555 1_555
N4 C16 1_555 1_555
N5 N6 1_555 1_555
N6 C28 1_555 1_555
N7 C26 1_555 1_555
N8 C21 1_555 1_555
C1 S1 1_555 1_555
C2 C1 1_555 1_555
H1 C2 1_555 1_555
C3 C2 1_555 1_555
H2 C3 1_555 1_555
C4 C3 1_555 1_555
H3 C4 1_555 1_555
C5 C4 1_555 1_555
C6 C1 1_555 1_555
H4 C6 1_555 1_555
C7 N1 1_555 1_555
C8 C7 1_555 1_555
C9 C8 1_555 1_555
C10 C9 1_555 1_555
H5 C10 1_555 1_555
C11 C10 1_555 1_555
H6 C11 1_555 1_555
C12 C11 1_555 1_555
H7 C12 1_555 1_555
C13 S2 1_555 1_555
C14 C9 1_555 1_555
H8 C14 1_555 1_555
C15 N3 1_555 1_555
C16 C15 1_555 1_555
C17 C16 1_555 1_555
H9 C17 1_555 1_555
C18 C17 1_555 1_555
H10 C18 1_555 1_555
C19 C18 1_555 1_555
H11 C19 1_555 1_555
C20 N4 1_555 1_555
H12 C20 1_555 1_555
C21 H13 1_555 1_555
C22 C21 1_555 1_555
H14 C22 1_555 1_555
C23 C22 1_555 1_555
H15 C23 1_555 1_555
C24 C23 1_555 1_555
H16 C24 1_555 1_555
C25 N8 1_555 1_555
C26 N5 1_555 1_555
C27 N7 1_555 1_555
C28 C27 1_555 1_555
C29 C28 1_555 1_555
C30 C29 1_555 1_555
H17 C30 1_555 1_555
C31 C30 1_555 1_555
H18 C31 1_555 1_555
C32 C31 1_555 1_555
H19 C32 1_555 1_555
C33 S4 1_555 1_555
C34 C29 1_555 1_555
H20 C34 1_555 1_555
C35 C27 1_555 1_555
C36 C35 1_555 1_555
H21 C36 1_555 1_555
C37 S3 1_555 1_555
C38 C37 1_555 1_555
H22 C38 1_555 1_555
C39 C38 1_555 1_555
H23 C39 1_555 1_555
C40 C35 1_555 1_555
H24 C40 1_555 1_555
Mn1A N5 1_555 1_555
Mn2_2 O11 1_555 1_555
Mn2A N2 1_555 1_555
O11_2 Mn2 1_555 1_555
N2A Mn2 1_555 1_555
N4A Mn2 1_555 1_555
N5A Mn1 1_555 1_555
N8A Mn1 1_555 1_555
S3 O13 1_555 1_555
N4 Mn2A 1_555 1_555
N8 Mn1A 1_555 1_555
C5 C6 1_555 1_555
C5 C7 1_555 1_555
C12 C13 1_555 1_555
C13 C14 1_555 1_555
C19 C20 1_555 1_555
C24 C25 1_555 1_555
C25 C26 1_555 1_555
C32 C33 1_555 1_555
C33 C34 1_555 1_555
C36 C37 1_555 1_555
C39 C40 1_555 1_555

#END
