
#######################################################################
#
#                 Cambridge Crystallographic Data Centre
#                                CCDC 
#
#######################################################################
#
# If this CIF has been generated from an entry in the Cambridge 
# Structural Database, then it will include bibliographic, chemical, 
# crystal, experimental, refinement or atomic coordinate data resulting 
# from the CCDC's data processing and validation procedures.
#
#######################################################################

data_SAYKIO
_chemical_formula_moiety         '(C52 H40 O27 U3)n'
_symmetry_cell_setting           monoclinic
_symmetry_space_group_name_H-M   'C 2/c'
_symmetry_Int_Tables_number      15
_space_group_name_Hall           '-C 2yc'
loop_
_symmetry_equiv_pos_site_id
_symmetry_equiv_pos_as_xyz
1 x,y,z
2 -x,y,1/2-z
3 1/2+x,1/2+y,z
4 1/2-x,1/2+y,1/2-z
5 -x,-y,-z
6 x,-y,1/2+z
7 1/2-x,1/2-y,-z
8 1/2+x,1/2-y,1/2+z
_cell_length_a                   35.621(3)
_cell_length_b                   9.2925(8)
_cell_length_c                   20.4260(17)
_cell_angle_alpha                90
_cell_angle_beta                 114.6560(10)
_cell_angle_gamma                90
_cell_volume                     6144.75
loop_
_atom_site_label
_atom_site_type_symbol
_atom_site_fract_x
_atom_site_fract_y
_atom_site_fract_z
_atom_site_U_iso_or_equiv
_atom_site_thermal_displace_type
U1 U 0.339170(12) 1.55735(5) 0.90574(2) 0.0632 Uani
U2 U -0.0000 -0.0000 1.0000 0.0473 Uani
O1 O 0.1174(2) 1.1121(8) 0.8101(4) 0.0686 Uani
O2 O 0.3053(3) 1.7649(12) 0.8289(6) 0.1331 Uani
O3 O 0.0000 0.9418(10) 0.7500 0.0560 Uani
O4 O 0.0507(3) 0.7260(10) 0.7249(5) 0.0921 Uani
O5 O 0.09969(19) 0.7065(7) 0.8791(4) 0.0641 Uani
O6 O 0.2647(2) 1.5281(10) 0.8495(5) 0.0962 Uani
O7 O 0.2998(2) 1.3564(10) 0.9202(5) 0.0965 Uani
O8 O 0.0498(2) 0.1624(8) 1.0071(4) 0.0769 Uani
O9 O 0.1103(2) 0.0934(8) 1.0183(4) 0.0708 Uani
O10 O 0.1065(2) 0.2082(9) 0.5817(4) 0.0796 Uani
O11 O 0.0498(2) 0.1364(10) 0.5847(5) 0.0830 Uani
O12 O 0.3354(2) 1.6428(9) 0.9789(4) 0.0838 Uani
O13 O 0.3419(3) 1.4765(11) 0.8338(5) 0.0990 Uani
O14 O -0.0065(2) 0.0956(10) 1.0677(4) 0.0800 Uani
C1 C 0.0731(3) 0.9188(10) 0.8072(5) 0.0448 Uani
C2 C 0.1134(3) 0.9993(12) 0.8502(6) 0.0579 Uani
H1 H 0.1132 1.0354 0.8947 0.0690 Uiso
H2 H 0.1366 0.9343 0.8624 0.0690 Uiso
C3 C 0.0362(3) 1.0225(11) 0.7830(6) 0.0611 Uani
H3 H 0.0361 1.0738 0.8243 0.0730 Uiso
H4 H 0.0382 1.0925 0.7494 0.0730 Uiso
C4 C 0.0807(4) 0.8384(14) 0.7438(6) 0.0960 Uani
H5 H 0.0757 0.9022 0.7034 0.1160 Uiso
H6 H 0.1085 0.8001 0.7610 0.1160 Uiso
C5 C 0.0667(3) 0.8126(11) 0.8559(6) 0.0610 Uani
H7 H 0.0663 0.8616 0.8976 0.0730 Uiso
H8 H 0.0403 0.7649 0.8309 0.0730 Uiso
C6 C 0.0588(3) 0.6010(14) 0.6924(6) 0.0653 Uani
C7 C 0.0898(3) 0.6133(14) 0.6690(7) 0.0834 Uani
H9 H 0.1049 0.6976 0.6745 0.1000 Uiso
C8 C 0.0977(4) 0.4800(13) 0.6339(6) 0.0813 Uani
H10 H 0.1180 0.4770 0.6165 0.0970 Uiso
C9 C 0.0725(3) 0.3624(12) 0.6292(5) 0.0600 Uani
C10 C 0.0430(4) 0.3785(16) 0.6565(6) 0.0855 Uani
H11 H 0.0261 0.2988 0.6507 0.1030 Uiso
C11 C 0.0350(4) 0.4890(15) 0.6895(8) 0.0863 Uani
H12 H 0.0152 0.4883 0.7081 0.1040 Uiso
C12 C 0.0763(3) 0.2292(12) 0.5962(6) 0.0577 Uani
C13 C 0.0950(3) 0.5866(11) 0.9120(6) 0.0556 Uani
C14 C 0.1258(3) 0.4849(11) 0.9306(6) 0.0634 Uani
H13 H 0.1494 0.5047 0.9233 0.0760 Uiso
C15 C 0.1225(3) 0.3541(12) 0.9598(6) 0.0651 Uani
H14 H 0.1431 0.2852 0.9703 0.0780 Uiso
C16 C 0.0874(3) 0.3256(10) 0.9737(5) 0.0459 Uani
C17 C 0.0590(3) 0.4290(11) 0.9585(6) 0.0590 Uani
H15 H 0.0364 0.4121 0.9689 0.0710 Uiso
C18 C 0.0614(3) 0.5590(11) 0.9283(6) 0.0587 Uani
H16 H 0.0408 0.6277 0.9189 0.0700 Uiso
C19 C 0.0831(3) 0.1854(11) 1.0005(5) 0.0546 Uani
C20 C 0.1549(3) 1.1809(11) 0.8335(6) 0.0574 Uani
C21 C 0.1547(3) 1.3098(12) 0.8018(6) 0.0710 Uani
H17 H 0.1298 1.3465 0.7684 0.0850 Uiso
C22 C 0.1901(3) 1.3869(13) 0.8178(6) 0.0680 Uani
H18 H 0.1894 1.4757 0.7963 0.0820 Uiso
C23 C 0.2266(3) 1.3301(12) 0.8662(6) 0.0629 Uani
C24 C 0.2268(3) 1.2062(15) 0.8987(7) 0.0896 Uani
H19 H 0.2519 1.1705 0.9322 0.1080 Uiso
C25 C 0.1907(3) 1.1271(13) 0.8843(7) 0.0862 Uani
H20 H 0.1912 1.0417 0.9083 0.1030 Uiso
C26 C 0.2651(3) 1.4107(14) 0.8785(7) 0.0787 Uani
U1A U -0.339170(12) 1.55735(5) 0.59426(2) 0.0632 Uani
U1F U 0.160830(12) -0.05735(5) 1.09426(2) 0.0632 Uani
U1C U 0.160830(12) 0.05735(5) 0.59426(2) 0.0632 Uani
U1B U -0.160830(12) 0.05735(5) 0.90574(2) 0.0632 Uani
U1G U -0.160830(12) -0.05735(5) 0.40574(2) 0.0632 Uani
U2A U -0.0000 -0.0000 0.5000 0.0473 Uani
O1A O -0.1174(2) 1.1121(8) 0.6899(4) 0.0686 Uani
O2A O -0.3053(3) 1.7649(12) 0.6711(6) 0.1331 Uani
O4A O -0.0507(3) 0.7260(10) 0.7751(5) 0.0921 Uani
O5A O -0.09969(19) 0.7065(7) 0.6209(4) 0.0641 Uani
O6A O -0.2647(2) 1.5281(10) 0.6505(5) 0.0962 Uani
O7A O -0.2998(2) 1.3564(10) 0.5798(5) 0.0965 Uani
O8A O -0.0498(2) 0.1624(8) 0.4929(4) 0.0769 Uani
O8D O -0.0498(2) -0.1624(8) 0.9929(4) 0.0769 Uani
O9A O -0.1103(2) 0.0934(8) 0.4817(4) 0.0708 Uani
O9F O 0.3897(2) 1.4066(8) 0.9817(4) 0.0708 Uani
O9G O -0.3897(2) 1.4066(8) 0.5183(4) 0.0708 Uani
O10A O -0.1065(2) 0.2082(9) 0.9183(4) 0.0796 Uani
O10C O 0.3935(2) 1.7082(9) 0.9183(4) 0.0796 Uani
O10B O -0.3935(2) 1.7082(9) 0.5817(4) 0.0796 Uani
O11A O -0.0498(2) 0.1364(10) 0.9153(5) 0.0830 Uani
O11E O 0.0498(2) -0.1364(10) 1.0847(5) 0.0830 Uani
O12A O -0.3354(2) 1.6428(9) 0.5211(4) 0.0838 Uani
O13A O -0.3419(3) 1.4765(11) 0.6662(5) 0.0990 Uani
O14D O 0.0065(2) -0.0956(10) 0.9323(4) 0.0800 Uani
C1A C -0.0731(3) 0.9188(10) 0.6928(5) 0.0448 Uani
C2A C -0.1134(3) 0.9993(12) 0.6498(6) 0.0579 Uani
H1A H -0.1132 1.0354 0.6053 0.0690 Uiso
H2A H -0.1366 0.9343 0.6376 0.0690 Uiso
C3A C -0.0362(3) 1.0225(11) 0.7170(6) 0.0611 Uani
H3A H -0.0361 1.0738 0.6757 0.0730 Uiso
H4A H -0.0382 1.0925 0.7506 0.0730 Uiso
C4A C -0.0807(4) 0.8384(14) 0.7562(6) 0.0960 Uani
H5A H -0.0757 0.9022 0.7966 0.1160 Uiso
H6A H -0.1085 0.8001 0.7390 0.1160 Uiso
C5A C -0.0667(3) 0.8126(11) 0.6441(6) 0.0610 Uani
H7A H -0.0663 0.8616 0.6024 0.0730 Uiso
H8A H -0.0403 0.7649 0.6691 0.0730 Uiso
C6A C -0.0588(3) 0.6010(14) 0.8076(6) 0.0653 Uani
C7A C -0.0898(3) 0.6133(14) 0.8310(7) 0.0834 Uani
H9A H -0.1049 0.6976 0.8255 0.1000 Uiso
C8A C -0.0977(4) 0.4800(13) 0.8661(6) 0.0813 Uani
H10A H -0.1180 0.4770 0.8835 0.0970 Uiso
C9A C -0.0725(3) 0.3624(12) 0.8708(5) 0.0600 Uani
C10A C -0.0430(4) 0.3785(16) 0.8435(6) 0.0855 Uani
H11A H -0.0261 0.2988 0.8493 0.1030 Uiso
C11A C -0.0350(4) 0.4890(15) 0.8105(8) 0.0863 Uani
H12A H -0.0152 0.4883 0.7919 0.1040 Uiso
C12A C -0.0763(3) 0.2292(12) 0.9038(6) 0.0577 Uani
C13A C -0.0950(3) 0.5866(11) 0.5880(6) 0.0556 Uani
C14A C -0.1258(3) 0.4849(11) 0.5694(6) 0.0634 Uani
H13A H -0.1494 0.5047 0.5767 0.0760 Uiso
C15A C -0.1225(3) 0.3541(12) 0.5402(6) 0.0651 Uani
H14A H -0.1431 0.2852 0.5297 0.0780 Uiso
C16A C -0.0874(3) 0.3256(10) 0.5263(5) 0.0459 Uani
C17A C -0.0590(3) 0.4290(11) 0.5415(6) 0.0590 Uani
H15A H -0.0364 0.4121 0.5311 0.0710 Uiso
C18A C -0.0614(3) 0.5590(11) 0.5717(6) 0.0587 Uani
H16A H -0.0408 0.6277 0.5811 0.0700 Uiso
C19A C -0.0831(3) 0.1854(11) 0.4995(5) 0.0546 Uani
C20A C -0.1549(3) 1.1809(11) 0.6665(6) 0.0574 Uani
C21A C -0.1547(3) 1.3098(12) 0.6982(6) 0.0710 Uani
H17A H -0.1298 1.3465 0.7316 0.0850 Uiso
C22A C -0.1901(3) 1.3869(13) 0.6822(6) 0.0680 Uani
H18A H -0.1894 1.4757 0.7037 0.0820 Uiso
C23A C -0.2266(3) 1.3301(12) 0.6338(6) 0.0629 Uani
C24A C -0.2268(3) 1.2062(15) 0.6013(7) 0.0896 Uani
H19A H -0.2519 1.1705 0.5678 0.1080 Uiso
C25A C -0.1907(3) 1.1271(13) 0.6157(7) 0.0862 Uani
H20A H -0.1912 1.0417 0.5917 0.1030 Uiso
C26A C -0.2651(3) 1.4107(14) 0.6215(7) 0.0787 Uani
loop_
_atom_site_aniso_label
_atom_site_aniso_U_11
_atom_site_aniso_U_22
_atom_site_aniso_U_33
_atom_site_aniso_U_23
_atom_site_aniso_U_13
_atom_site_aniso_U_12
U1 0.0429 0.0654 0.0758 0.0175 0.0194 -0.00721
U2 0.0377(3) 0.0455(3) 0.0632(3) 0.0066(2) 0.0254(2) -0.0021(2)
O1 0.051(4) 0.057(4) 0.081(5) 0.020(4) 0.011(4) -0.012(4)
O2 0.075 0.127 0.145 0.079 -0.006 -0.006
O3 0.043(5) 0.041(5) 0.077(6) 0.000 0.018(5) 0.000
O4 0.082(6) 0.086(7) 0.116(7) -0.026(5) 0.049(5) 0.004(5)
O5 0.045(4) 0.050(4) 0.106(5) 0.028(4) 0.040(4) 0.004(3)
O6 0.047(4) 0.098(7) 0.118(7) 0.056(6) 0.009(5) -0.009(4)
O7 0.044(4) 0.084(6) 0.140(7) 0.046(6) 0.017(5) -0.010(4)
O8 0.042(4) 0.067(5) 0.119(6) 0.025(5) 0.031(4) -0.007(4)
O9 0.045(4) 0.057(5) 0.106(6) 0.026(4) 0.027(4) 0.005(4)
O10 0.060(5) 0.070(5) 0.106(6) -0.025(5) 0.032(4) 0.009(4)
O11 0.056(4) 0.080(6) 0.112(6) -0.041(5) 0.034(4) -0.014(4)
O12 0.075 0.083 0.105 0.012 0.049 0.003
O13 0.099 0.093 0.092 -0.006 0.027 -0.025
O14 0.071(5) 0.089(6) 0.087(6) -0.005(5) 0.040(5) 0.005(5)
C1 0.038(5) 0.035(5) 0.060(6) 0.008(4) 0.019(4) 0.000(4)
C2 0.047(6) 0.063(7) 0.062(6) 0.006(5) 0.021(5) -0.003(5)
C3 0.046(6) 0.046(6) 0.080(7) -0.003(5) 0.015(5) -0.005(5)
C4 0.119(10) 0.074(9) 0.072(7) -0.003(6) 0.017(7) -0.078(8)
C5 0.043(5) 0.059(7) 0.082(7) 0.028(6) 0.027(5) 0.009(5)
C6 0.041(5) 0.086(9) 0.063(7) -0.009(6) 0.016(5) 0.008(6)
C7 0.058(7) 0.061(8) 0.125(10) 0.030(8) 0.032(7) 0.003(6)
C8 0.098(10) 0.066(9) 0.058(7) 0.002(6) 0.011(7) 0.022(7)
C9 0.046(5) 0.059(7) 0.064(6) 0.002(5) 0.012(5) 0.006(5)
C10 0.093(9) 0.084(9) 0.072(8) -0.008(7) 0.027(7) 0.031(8)
C11 0.074(9) 0.079(10) 0.113(11) -0.014(8) 0.046(8) -0.006(7)
C12 0.033(5) 0.058(7) 0.073(7) -0.013(5) 0.013(5) 0.009(5)
C13 0.034(5) 0.055(7) 0.075(7) 0.008(5) 0.020(5) 0.002(4)
C14 0.050(6) 0.051(6) 0.100(8) 0.023(6) 0.042(6) -0.003(5)
C15 0.043(5) 0.053(7) 0.093(8) 0.016(6) 0.022(5) 0.005(5)
C16 0.043(5) 0.034(5) 0.056(6) -0.001(4) 0.016(4) -0.004(4)
C17 0.037(5) 0.062(8) 0.078(7) 0.008(5) 0.024(5) -0.006(5)
C18 0.048(6) 0.046(6) 0.082(7) 0.011(5) 0.027(5) 0.002(5)
C19 0.044(5) 0.046(6) 0.065(6) 0.006(5) 0.014(5) -0.008(5)
C20 0.046(5) 0.048(6) 0.069(6) 0.006(5) 0.015(5) -0.008(5)
C21 0.052(6) 0.068(8) 0.077(7) 0.020(6) 0.011(5) -0.016(6)
C22 0.049(6) 0.069(7) 0.075(7) 0.029(6) 0.015(5) -0.002(5)
C23 0.045(6) 0.063(7) 0.073(7) 0.015(6) 0.017(5) -0.012(5)
C24 0.036(6) 0.089(10) 0.125(10) 0.037(8) 0.015(6) 0.000(6)
C25 0.048(6) 0.059(8) 0.131(11) 0.029(8) 0.017(7) -0.005(6)
C26 0.046(6) 0.079(9) 0.102(9) 0.019(7) 0.022(6) -0.008(6)
U1A 0.0429 0.0654 0.0758 -0.0175 0.0194 0.00721
U1F 0.0429(2) 0.0654(3) 0.0758(3) 0.0175(2) 0.0194(2) -0.00721(18)
U1C 0.0429 0.0654 0.0758 -0.0175 0.0194 0.00721
U1B 0.0429 0.0654 0.0758 0.0175 0.0194 -0.00721
U1G 0.0429 0.0654 0.0758 -0.0175 0.0194 0.00721
U2A 0.0377 0.0455 0.0632 -0.0066 0.0254 0.0021
O1A 0.051 0.057 0.081 -0.02 0.011 0.012
O2A 0.075 0.127 0.145 -0.079 -0.006 0.006
O4A 0.082 0.086 0.116 0.026 0.049 -0.004
O5A 0.045 0.05 0.106 -0.028 0.04 -0.004
O6A 0.047 0.098 0.118 -0.056 0.009 0.009
O7A 0.044 0.084 0.14 -0.046 0.017 0.01
O8A 0.042 0.067 0.119 -0.025 0.031 0.007
O8D 0.042 0.067 0.119 0.025 0.031 -0.007
O9A 0.045 0.057 0.106 -0.026 0.027 -0.005
O9F 0.045 0.057 0.106 0.026 0.027 0.005
O9G 0.045 0.057 0.106 -0.026 0.027 -0.005
O10A 0.06 0.07 0.106 0.025 0.032 -0.009
O10C 0.06 0.07 0.106 0.025 0.032 -0.009
O10B 0.06 0.07 0.106 -0.025 0.032 0.009
O11A 0.056 0.08 0.112 0.041 0.034 0.014
O11E 0.056 0.08 0.112 0.041 0.034 0.014
O12A 0.075 0.083 0.105 -0.012 0.049 -0.003
O13A 0.099 0.093 0.092 0.006 0.027 0.025
O14D 0.071 0.089 0.087 -0.005 0.04 0.005
C1A 0.038 0.035 0.06 -0.008 0.019 0
C2A 0.047 0.063 0.062 -0.006 0.021 0.003
C3A 0.046 0.046 0.08 0.003 0.015 0.005
C4A 0.119 0.074 0.072 0.003 0.017 0.078
C5A 0.043 0.059 0.082 -0.028 0.027 -0.009
C6A 0.041 0.086 0.063 0.009 0.016 -0.008
C7A 0.058 0.061 0.125 -0.03 0.032 -0.003
C8A 0.098 0.066 0.058 -0.002 0.011 -0.022
C9A 0.046 0.059 0.064 -0.002 0.012 -0.006
C10A 0.093 0.084 0.072 0.008 0.027 -0.031
C11A 0.074 0.079 0.113 0.014 0.046 0.006
C12A 0.033 0.058 0.073 0.013 0.013 -0.009
C13A 0.034 0.055 0.075 -0.008 0.02 -0.002
C14A 0.05 0.051 0.1 -0.023 0.042 0.003
C15A 0.043 0.053 0.093 -0.016 0.022 -0.005
C16A 0.043 0.034 0.056 0.001 0.016 0.004
C17A 0.037 0.062 0.078 -0.008 0.024 0.006
C18A 0.048 0.046 0.082 -0.011 0.027 -0.002
C19A 0.044 0.046 0.065 -0.006 0.014 0.008
C20A 0.046 0.048 0.069 -0.006 0.015 0.008
C21A 0.052 0.068 0.077 -0.02 0.011 0.016
C22A 0.049 0.069 0.075 -0.029 0.015 0.002
C23A 0.045 0.063 0.073 -0.015 0.017 0.012
C24A 0.036 0.089 0.125 -0.037 0.015 0
C25A 0.048 0.059 0.131 -0.029 0.017 0.005
C26A 0.046 0.079 0.102 -0.019 0.022 0.008
loop_
_geom_bond_atom_site_label_1
_geom_bond_atom_site_label_2
_geom_bond_site_symmetry_1
_geom_bond_site_symmetry_2
U1 O2 1_555 1_555
U2 O8 1_555 1_555
O1 C2 1_555 1_555
O3 C3 1_555 1_555
O4 C4 1_555 1_555
O5 C5 1_555 1_555
O6 U1 1_555 1_555
O7 U1 1_555 1_555
O8 C19 1_555 1_555
O9 C19 1_555 1_555
O10 C12 1_555 1_555
O11 C12 1_555 1_555
O12 U1 1_555 1_555
O13 U1 1_555 1_555
O14 U2 1_555 1_555
C1 C2 1_555 1_555
C2 H1 1_555 1_555
H2 C2 1_555 1_555
C3 C1 1_555 1_555
H3 C3 1_555 1_555
H4 C3 1_555 1_555
C4 C1 1_555 1_555
H5 C4 1_555 1_555
H6 C4 1_555 1_555
C5 C1 1_555 1_555
H7 C5 1_555 1_555
H8 C5 1_555 1_555
C6 O4 1_555 1_555
C7 C6 1_555 1_555
H9 C7 1_555 1_555
C8 C7 1_555 1_555
H10 C8 1_555 1_555
C9 C8 1_555 1_555
C10 C9 1_555 1_555
H11 C10 1_555 1_555
C11 C6 1_555 1_555
H12 C11 1_555 1_555
C12 C9 1_555 1_555
C13 O5 1_555 1_555
C14 C13 1_555 1_555
H13 C14 1_555 1_555
C15 C14 1_555 1_555
H14 C15 1_555 1_555
C16 C15 1_555 1_555
C17 C16 1_555 1_555
H15 C17 1_555 1_555
C18 C13 1_555 1_555
H16 C18 1_555 1_555
C19 C16 1_555 1_555
C20 O1 1_555 1_555
C21 C20 1_555 1_555
H17 C21 1_555 1_555
C22 C21 1_555 1_555
H18 C22 1_555 1_555
C23 C22 1_555 1_555
C24 C23 1_555 1_555
H19 C24 1_555 1_555
C25 C20 1_555 1_555
H20 C25 1_555 1_555
C26 O6 1_555 1_555
U1A O2A 1_555 1_555
U1F O9 1_555 1_555
U1C O10 1_555 1_555
U1B O10A 1_555 1_555
U1G O9A 1_555 1_555
U2A O11 1_555 1_555
O1A C2A 1_555 1_555
O4A C4A 1_555 1_555
O5A C5A 1_555 1_555
O6A U1A 1_555 1_555
O7A U1A 1_555 1_555
O8A U2A 1_555 1_555
O8D U2 1_555 1_555
O9A C19A 1_555 1_555
O9F U1 1_555 1_555
O9G U1A 1_555 1_555
O10A C12A 1_555 1_555
O10C U1 1_555 1_555
O10B U1A 1_555 1_555
O11A U2 1_555 1_555
O11E U2 1_555 1_555
O12A U1A 1_555 1_555
O13A U1A 1_555 1_555
O14D U2 1_555 1_555
C1A C2A 1_555 1_555
C2A H1A 1_555 1_555
H2A C2A 1_555 1_555
C3A O3 1_555 1_555
H3A C3A 1_555 1_555
H4A C3A 1_555 1_555
C4A C1A 1_555 1_555
H5A C4A 1_555 1_555
H6A C4A 1_555 1_555
C5A C1A 1_555 1_555
H7A C5A 1_555 1_555
H8A C5A 1_555 1_555
C6A O4A 1_555 1_555
C7A C6A 1_555 1_555
H9A C7A 1_555 1_555
C8A C7A 1_555 1_555
H10A C8A 1_555 1_555
C9A C8A 1_555 1_555
C10A C9A 1_555 1_555
H11A C10A 1_555 1_555
C11A C6A 1_555 1_555
H12A C11A 1_555 1_555
C12A O11A 1_555 1_555
C13A O5A 1_555 1_555
C14A C13A 1_555 1_555
H13A C14A 1_555 1_555
C15A C14A 1_555 1_555
H14A C15A 1_555 1_555
C16A C15A 1_555 1_555
C17A C16A 1_555 1_555
H15A C17A 1_555 1_555
C18A C13A 1_555 1_555
H16A C18A 1_555 1_555
C19A O8A 1_555 1_555
C20A O1A 1_555 1_555
C21A C20A 1_555 1_555
H17A C21A 1_555 1_555
C22A C21A 1_555 1_555
H18A C22A 1_555 1_555
C23A C22A 1_555 1_555
C24A C23A 1_555 1_555
H19A C24A 1_555 1_555
C25A C20A 1_555 1_555
H20A C25A 1_555 1_555
C26A O6A 1_555 1_555
O7 C26 1_555 1_555
C10 C11 1_555 1_555
C17 C18 1_555 1_555
C23 C26 1_555 1_555
C24 C25 1_555 1_555
O7A C26A 1_555 1_555
C1A C3A 1_555 1_555
C9A C12A 1_555 1_555
C10A C11A 1_555 1_555
C16A C19A 1_555 1_555
C17A C18A 1_555 1_555
C23A C26A 1_555 1_555
C24A C25A 1_555 1_555

#END
