
#######################################################################
#
#                 Cambridge Crystallographic Data Centre
#                                CCDC 
#
#######################################################################
#
# If this CIF has been generated from an entry in the Cambridge 
# Structural Database, then it will include bibliographic, chemical, 
# crystal, experimental, refinement or atomic coordinate data resulting 
# from the CCDC's data processing and validation procedures.
#
#######################################################################

data_OMUMEQ
_chemical_formula_moiety         '(C164 H107 Eu5 O45)n'
_symmetry_cell_setting           orthorhombic
_symmetry_space_group_name_H-M   'P b c m'
_symmetry_Int_Tables_number      57
_space_group_name_Hall           '-P 2c 2b'
loop_
_symmetry_equiv_pos_site_id
_symmetry_equiv_pos_as_xyz
1 x,y,z
2 -x,-y,1/2+z
3 x,1/2-y,-z
4 -x,1/2+y,1/2-z
5 -x,-y,-z
6 x,y,1/2-z
7 -x,1/2+y,z
8 x,1/2-y,1/2+z
_cell_length_a                   24.0875(9)
_cell_length_b                   27.8262(8)
_cell_length_c                   30.3154(13)
_cell_angle_alpha                90
_cell_angle_beta                 90
_cell_angle_gamma                90
_cell_volume                     20319.3
loop_
_atom_site_label
_atom_site_type_symbol
_atom_site_fract_x
_atom_site_fract_y
_atom_site_fract_z
Eu1 Eu 0.75636(3) 0.76293(2) 0.36313(2)
Eu2 Eu 0.87839(4) 0.27268(3) 0.7500
Eu3 Eu 0.77383(4) 0.85184(3) 0.2500
Eu4 Eu 0.61793(4) 0.29552(3) 1.2500
O1 O 0.7125(5) 0.3314(5) 1.2500
H1 H 0.7273 0.3275 1.2752
O2 O 0.8901(4) 0.3300(3) 0.6940(3)
O3 O 0.7855(5) 0.3122(5) 0.7500
H2 H 0.7702 0.3082 0.7250
O4 O 0.7597(3) 0.7710(3) 0.2854(3)
O5 O 0.6822(4) 0.2532(4) 1.2021(4)
C1 C 0.5960(5) 0.9666(4) 0.4095(5)
O6 O 0.6845(4) 0.8179(3) 0.3490(3)
C2 C 0.7182(6) 0.1085(4) 1.0382(5)
C3 C 0.7598(5) -0.0397(4) 1.0577(5)
H3 H 0.7649 -0.0190 1.0815
O7 O 0.6881(5) 1.1081(4) 0.6853(5)
C4 C 0.7189(5) 0.0588(4) 1.0418(4)
H4 H 0.7013 0.0441 1.0655
C5 C 0.5692(5) 1.0052(4) 0.4375(5)
C6 C 0.5020(6) 1.0708(4) 0.4421(5)
C7 C 0.7690(6) 0.1026(4) 0.9686(5)
C8 C 0.7395(6) -0.0528(5) 0.9829(5)
H5 H 0.7314 -0.0410 0.9550
C9 C 0.9610(5) 0.4834(4) 0.4297(5)
H6 H 0.9696 0.4947 0.4016
C10 C 0.5277(5) 1.0332(4) 0.4175(5)
H7 H 0.5171 1.0273 0.3885
C11 C 0.9555(6) 0.4031(4) 0.5837(4)
H8 H 0.9927 0.4007 0.5760
C12 C 0.8972(5) 0.5541(4) 0.4377(4)
C13 C 0.8430(7) 0.1187(5) 0.9143(5)
H9 H 0.8659 0.0965 0.9283
C14 C 0.8803(5) 0.3838(4) 0.6343(4)
C15 C 0.8644(6) 0.4341(5) 0.5721(5)
H10 H 0.8396 0.4524 0.5556
C16 C 0.8864(5) 0.5909(4) 0.4656(5)
H11 H 0.8936 0.5875 0.4956
C17 C 0.8643(6) 0.6344(5) 0.4492(5)
H12 H 0.8587 0.6603 0.4680
O8 O 0.3184(4) 1.2052(3) 0.3437(3)
C18 C 0.7705(5) 0.0532(4) 0.9743(4)
H13 H 0.7888 0.0344 0.9535
C19 C 0.6279(7) 0.1638(6) 1.1260(7)
H14 H 0.5905 0.1631 1.1336
C20 C 0.9226(5) 0.5069(4) 0.4544(5)
C21 C 0.9359(7) 0.3810(5) 0.6223(6)
H15 H 0.9606 0.3643 0.6402
C22 C 0.7492(5) -0.0213(4) 1.0175(4)
C23 C 0.7420(6) -0.1018(4) 0.9900(5)
H16 H 0.7357 -0.1226 0.9665
C24 C 0.8461(6) 0.4135(5) 0.6103(5)
H17 H 0.8102 0.4195 0.6202
C25 C 0.6482(5) 0.8954(4) 0.3591(5)
C26 C 0.9346(5) 0.4502(4) 0.5136(4)
C27 C 0.9743(5) 0.4261(4) 0.4883(4)
H18 H 0.9916 0.3991 0.5000
C28 C 0.5612(5) 1.0495(4) 0.5045(5)
C29 C 0.7536(5) -0.1207(5) 1.0309(4)
C30 C 0.6540(7) 1.0697(6) 0.6041(6)
H19 H 0.6912 1.0647 0.6110
C31 C 0.5842(6) 1.0130(5) 0.4792(5)
H20 H 0.6111 0.9933 0.4918
C32 C 0.7453(5) 0.0309(4) 1.0105(4)
C33 C 0.5807(6) 1.0633(5) 0.5509(5)
O9 O 0.9735(6) 0.2769(5) 0.7500
H21 H 0.9938 0.2776 0.7729
O10 O 0.6118(4) 1.1472(4) 0.6948(4)
O11 O 0.5976(5) 0.2293(4) 1.1958(4)
O12 O 0.8047(4) 0.6850(3) 0.3500(3)
O13 O 0.8130(5) 0.2296(3) 0.7966(4)
O14 O 0.8965(5) 0.2071(4) 0.8066(4)
C34 C 0.9095(5) 0.4915(4) 0.4966(5)
H22 H 0.8839 0.5085 0.5135
O15 O 0.800(3) 0.7101(19) 0.4185(7)
C35 C 0.6184(6) 1.0974(5) 0.6331(5)
O16 O 0.7655(5) -0.1865(3) 1.0771(4)
C36 C 0.6099(6) 0.9748(5) 0.3660(5)
H23 H 0.6024 1.0046 0.3534
O17 O 0.8091(5) 0.3688(4) 0.6859(4)
C37 C 0.5203(5) 1.0781(4) 0.4848(4)
H24 H 0.5049 1.1031 0.5010
C38 C 0.8829(6) 0.5572(4) 0.3934(5)
H25 H 0.8888 0.5313 0.3746
C39 C 0.7434(6) 0.1286(5) 1.0012(5)
H26 H 0.7427 0.1619 0.9983
C40 C 0.7755(7) 0.1815(5) 0.8688(5)
H27 H 0.7516 0.2014 0.8531
O18 O 0.6985(4) 0.8714(3) 0.2953(3)
C41 C 0.7492(6) 0.6993(5) 0.2500
C42 C 0.9884(5) 0.4414(5) 0.4464(5)
C43 C 0.4594(6) 1.1019(5) 0.4238(5)
C44 C 0.6092(5) 0.9227(5) 0.4270(5)
H28 H 0.6016 0.9168 0.4566
C45 C 0.7902(6) 0.1261(4) 0.9298(5)
C46 C 1.0302(5) 0.4171(5) 0.4205(4)
C47 C 0.7635(6) -0.0894(4) 1.0645(5)
H29 H 0.7727 -0.1011 1.0923
C48 C 0.7580(6) 0.7473(6) 0.2500
O19 O 0.8667(7) 0.8263(8) 0.2500
H30 H 0.8816 0.8341 0.2744
C49 C 0.9183(5) 0.4291(4) 0.5567(4)
C50 C 0.6963(6) 0.1388(5) 1.0751(5)
C51 C 0.8486(7) 0.2069(4) 0.8170(5)
C52 C 0.8579(7) 0.3582(5) 0.6744(5)
O20 O 0.7496(7) -0.2019(4) 1.0090(4)
C53 C 0.6452(6) 0.2283(5) 1.1828(5)
O21 O 0.3215(11) 1.2359(9) 0.4081(8)
C54 C 0.6804(6) 0.8595(5) 0.3327(5)
C55 C 0.6333(6) 0.8874(5) 0.4021(5)
H31 H 0.6397 0.8573 0.4145
C56 C 0.8512(6) 0.6384(4) 0.4050(5)
C57 C 0.8293(7) 0.1765(5) 0.8555(5)
C58 C 0.8597(6) 0.6000(5) 0.3775(5)
H32 H 0.8499 0.6024 0.3479
C59 C 0.8208(6) 0.6818(5) 0.3891(4)
C60 C 0.6623(6) 0.1950(6) 1.1476(6)
C61 C 0.7337(7) 0.1686(6) 1.0974(6)
H33 H 0.7712 0.1679 1.0903
C62 C 1.0659(6) 0.4427(6) 0.3903(5)
H34 H 1.0624 0.4756 0.3861
C63 C 0.8626(7) 0.1438(5) 0.8779(6)
H35 H 0.8988 0.1386 0.8684
C64 C 0.7142(7) 0.2002(6) 1.1312(6)
H36 H 0.7372 0.2244 1.1418
C65 C 0.6350(6) 0.9393(5) 0.3408(5)
H37 H 0.6430 0.9451 0.3113
C66 C 0.3331(7) 1.2019(5) 0.3819(6)
C67 C 0.7564(6) 0.1575(5) 0.9052(6)
H38 H 0.7198 0.1621 0.9140
O22 O 1.1727(13) 0.3187(11) 0.3537(12)
C68 C 1.0408(6) 0.3684(5) 0.4262(5)
H39 H 1.0229 0.3520 0.4489
C69 C 0.7561(8) -0.1741(5) 1.0395(5)
C70 C 1.1060(6) 0.4163(7) 0.3675(5)
H40 H 1.1306 0.4329 0.3494
C71 C 0.5450(7) 1.0850(6) 0.5813(6)
H41 H 0.5076 1.0880 0.5744
C72 C 1.0773(7) 0.3432(6) 0.3991(6)
H42 H 1.0790 0.3098 0.4005
C73 C 0.6309(8) 1.0510(7) 0.5657(6)
H43 H 0.6515 1.0288 0.5496
C74 C 0.5635(7) 1.1016(6) 0.6207(6)
H44 H 0.5385 1.1162 0.6399
C75 C 0.6466(6) 0.1333(5) 1.0932(6)
H45 H 0.6238 0.1083 1.0837
C76 C 0.6421(6) 1.1174(6) 0.6738(6)
O23 O 0.7885(11) 0.9327(5) 0.2500
H46 H 0.7918 0.9501 0.2729
C77 C 0.3777(5) 1.1658(4) 0.3950(4)
C78 C 0.4160(8) 1.1491(8) 0.3650(5)
H47 H 0.4154 1.1598 0.3359
C79 C 0.4562(8) 1.1158(7) 0.3790(5)
H48 H 0.4808 1.1027 0.3587
C80 C 0.3770(10) 1.1486(10) 0.4379(6)
H49 H 0.3488 1.1574 0.4573
C81 C 0.4191(9) 1.1179(8) 0.4514(6)
H50 H 0.4198 1.1079 0.4806
C82 C 1.1111(7) 0.3682(8) 0.3702(5)
O24 O 1.1818(14) 0.3850(11) 0.3142(9)
C83 C 1.1675(14) 0.3619(12) 0.3469(15)
O25 O 0.5231(7) 0.3014(5) 1.2500
H51 H 0.5028 0.3027 1.2729
H1E H 0.7273 0.3275 1.2248
H2E H 0.7702 0.3082 0.7750
O4E O 0.7597(3) 0.7710(3) 0.2146(3)
H21E H 0.9938 0.2776 0.7271
H30E H 0.8816 0.8341 0.2256
H46E H 0.7918 0.9501 0.2271
H51E H 0.5028 0.3027 1.2271
Eu1B Eu 0.75636(3) 0.73707(2) 1.63687(2)
O2B O 0.8901(4) 1.1700(3) 1.3060(3)
C1B C 0.5960(5) 0.5334(4) 1.5905(5)
O6B O 0.6845(4) 0.6821(3) 1.6510(3)
O7B O 0.6881(5) 0.3919(4) 1.3147(5)
C5B C 0.5692(5) 0.4948(4) 1.5625(5)
C6B C 0.5020(6) 0.4292(4) 1.5579(5)
C9B C 0.9610(5) 1.0166(4) 1.5703(5)
H6B H 0.9696 1.0053 1.5984
C10B C 0.5277(5) 0.4668(4) 1.5825(5)
H7B H 0.5171 0.4727 1.6115
C11B C 0.9555(6) 1.0969(4) 1.4163(4)
H8B H 0.9927 1.0993 1.4240
C12B C 0.8972(5) 0.9459(4) 1.5623(4)
C14B C 0.8803(5) 1.1162(4) 1.3657(4)
C15B C 0.8644(6) 1.0659(5) 1.4279(5)
H10B H 0.8396 1.0476 1.4444
C16B C 0.8864(5) 0.9091(4) 1.5344(5)
H11B H 0.8936 0.9125 1.5044
C17B C 0.8643(6) 0.8656(5) 1.5508(5)
H12B H 0.8587 0.8397 1.5320
O8B O 0.3184(4) 0.2948(3) 1.6563(3)
C20B C 0.9226(5) 0.9931(4) 1.5456(5)
C21B C 0.9359(7) 1.1190(5) 1.3777(6)
H15B H 0.9606 1.1357 1.3598
C24B C 0.8461(6) 1.0865(5) 1.3897(5)
H17B H 0.8102 1.0805 1.3798
C25B C 0.6482(5) 0.6046(4) 1.6409(5)
C26B C 0.9346(5) 1.0498(4) 1.4864(4)
C27B C 0.9743(5) 1.0739(4) 1.5117(4)
H18B H 0.9916 1.1009 1.5000
C28B C 0.5612(5) 0.4505(4) 1.4955(5)
C30B C 0.6540(7) 0.4303(6) 1.3959(6)
H19B H 0.6912 0.4353 1.3890
C31B C 0.5842(6) 0.4870(5) 1.5208(5)
H20B H 0.6111 0.5067 1.5082
C33B C 0.5807(6) 0.4367(5) 1.4491(5)
O10B O 0.6118(4) 0.3528(4) 1.3052(4)
O12B O 0.8047(4) 0.8150(3) 1.6500(3)
C34B C 0.9095(5) 1.0085(4) 1.5034(5)
H22B H 0.8839 0.9915 1.4865
O15B O 0.800(3) 0.7899(19) 1.5815(7)
C35B C 0.6184(6) 0.4026(5) 1.3669(5)
C36B C 0.6099(6) 0.5252(5) 1.6340(5)
H23B H 0.6024 0.4954 1.6466
O17B O 0.8091(5) 1.1312(4) 1.3141(4)
C37B C 0.5203(5) 0.4219(4) 1.5152(4)
H24B H 0.5049 0.3969 1.4990
C38B C 0.8829(6) 0.9428(4) 1.6066(5)
H25B H 0.8888 0.9687 1.6254
O18B O 0.6985(4) 0.6286(3) 1.7047(3)
C42B C 0.9884(5) 1.0586(5) 1.5536(5)
C43B C 0.4594(6) 0.3981(5) 1.5762(5)
C44B C 0.6092(5) 0.5773(5) 1.5730(5)
H28B H 0.6016 0.5832 1.5434
C46B C 1.0302(5) 1.0829(5) 1.5795(4)
C49B C 0.9183(5) 1.0709(4) 1.4433(4)
C52B C 0.8579(7) 1.1418(5) 1.3256(5)
O21B O 0.3215(11) 0.2641(9) 1.5919(8)
C54B C 0.6804(6) 0.6405(5) 1.6673(5)
C55B C 0.6333(6) 0.6126(5) 1.5979(5)
H31B H 0.6397 0.6427 1.5855
C56B C 0.8512(6) 0.8616(4) 1.5950(5)
C58B C 0.8597(6) 0.9000(5) 1.6225(5)
H32B H 0.8499 0.8976 1.6521
C59B C 0.8208(6) 0.8182(5) 1.6109(4)
C62B C 1.0659(6) 1.0573(6) 1.6097(5)
H34B H 1.0624 1.0244 1.6139
C65B C 0.6350(6) 0.5607(5) 1.6592(5)
H37B H 0.6430 0.5549 1.6887
C66B C 0.3331(7) 0.2981(5) 1.6181(6)
O22B O 1.1727(13) 1.1813(11) 1.6463(12)
C68B C 1.0408(6) 1.1316(5) 1.5738(5)
H39B H 1.0229 1.1480 1.5511
C70B C 1.1060(6) 1.0837(7) 1.6325(5)
H40B H 1.1306 1.0671 1.6506
C71B C 0.5450(7) 0.4150(6) 1.4187(6)
H41B H 0.5076 0.4120 1.4256
C72B C 1.0773(7) 1.1568(6) 1.6009(6)
H42B H 1.0790 1.1902 1.5995
C73B C 0.6309(8) 0.4490(7) 1.4343(6)
H43B H 0.6515 0.4712 1.4504
C74B C 0.5635(7) 0.3984(6) 1.3793(6)
H44B H 0.5385 0.3838 1.3601
C76B C 0.6421(6) 0.3826(6) 1.3262(6)
C77B C 0.3777(5) 0.3342(4) 1.6050(4)
C78B C 0.4160(8) 0.3509(8) 1.6350(5)
H47B H 0.4154 0.3402 1.6641
C79B C 0.4562(8) 0.3842(7) 1.6210(5)
H48B H 0.4808 0.3973 1.6413
C80B C 0.3770(10) 0.3514(10) 1.5621(6)
H49B H 0.3488 0.3426 1.5427
C81B C 0.4191(9) 0.3821(8) 1.5486(6)
H50B H 0.4198 0.3921 1.5194
C82B C 1.1111(7) 1.1318(8) 1.6298(5)
O24B O 1.1818(14) 1.1150(11) 1.6858(9)
C83B C 1.1675(14) 1.1381(12) 1.6531(15)
O5E O 0.6822(4) 1.2532(4) 0.2979(4)
C2E C 0.7182(6) 1.1085(4) 0.4618(5)
C3E C 0.7598(5) 0.9603(4) 0.4423(5)
H3E H 0.7649 0.9810 0.4185
C4E C 0.7189(5) 1.0588(4) 0.4582(4)
H4E H 0.7013 1.0441 0.4345
C7E C 0.7690(6) 1.1026(4) 0.5314(5)
C8E C 0.7395(6) 0.9472(5) 0.5171(5)
H5E H 0.7314 0.9590 0.5450
C13E C 0.8430(7) 1.1187(5) 0.5857(5)
H9E H 0.8659 1.0965 0.5717
C18E C 0.7705(5) 1.0532(4) 0.5257(4)
H13E H 0.7888 1.0344 0.5465
C19E C 0.6279(7) 1.1638(6) 0.3740(7)
H14E H 0.5905 1.1631 0.3664
C22E C 0.7492(5) 0.9787(4) 0.4825(4)
C23E C 0.7420(6) 0.8982(4) 0.5100(5)
H16E H 0.7357 0.8774 0.5335
C29E C 0.7536(5) 0.8793(5) 0.4691(4)
C32E C 0.7453(5) 1.0309(4) 0.4895(4)
O11E O 0.5976(5) 1.2293(4) 0.3042(4)
O13E O 0.8130(5) 1.2296(3) 0.7034(4)
O14E O 0.8965(5) 1.2071(4) 0.6934(4)
O16E O 0.7655(5) 0.8135(3) 0.4229(4)
C39E C 0.7434(6) 1.1286(5) 0.4988(5)
H26E H 0.7427 1.1619 0.5017
C40E C 0.7755(7) 1.1815(5) 0.6312(5)
H27E H 0.7516 1.2014 0.6469
C45E C 0.7902(6) 1.1261(4) 0.5702(5)
C47E C 0.7635(6) 0.9106(4) 0.4355(5)
H29E H 0.7727 0.8989 0.4077
C50E C 0.6963(6) 1.1388(5) 0.4249(5)
C51E C 0.8486(7) 1.2069(4) 0.6830(5)
O20E O 0.7496(7) 0.7981(4) 0.4910(4)
C53E C 0.6452(6) 1.2283(5) 0.3172(5)
C57E C 0.8293(7) 1.1765(5) 0.6445(5)
C60E C 0.6623(6) 1.1950(6) 0.3524(6)
C61E C 0.7337(7) 1.1686(6) 0.4026(6)
H33E H 0.7712 1.1679 0.4097
C63E C 0.8626(7) 1.1438(5) 0.6221(6)
H35E H 0.8988 1.1386 0.6316
C64E C 0.7142(7) 1.2002(6) 0.3688(6)
H36E H 0.7372 1.2244 0.3582
C67E C 0.7564(6) 1.1575(5) 0.5948(6)
H38E H 0.7198 1.1621 0.5860
C69E C 0.7561(8) 0.8259(5) 0.4605(5)
C75E C 0.6466(6) 1.1333(5) 0.4068(6)
H45E H 0.6238 1.1083 0.4163
Eu1D Eu 0.24364(3) 0.23707(2) 1.63687(2)
Eu1D_2 Eu 1.24364(3) 1.23707(2) 1.63687(2)
Eu1E Eu 0.75636(3) -0.23707(2) 1.13687(2)
Eu1E_2 Eu 0.75636(3) 0.76293(2) 0.13687(2)
Eu1F Eu 0.24364(3) 1.26293(2) 0.36313(2)
Eu1F_2 Eu 1.24364(3) 0.26293(2) 0.36313(2)
Eu2_2 Eu 0.87839(4) 1.27268(3) 0.7500
Eu2B Eu 0.87839(4) 1.22732(3) 1.2500
Eu3A Eu 1.22617(4) 1.14816(3) 1.7500
Eu3B Eu 0.77383(4) 0.64816(3) 1.7500
Eu3C Eu 1.22617(4) 0.35184(3) 0.2500
Eu4_2 Eu 0.61793(4) 1.29552(3) 0.2500
Eu4B Eu 0.61793(4) 1.20448(3) 0.7500
O2E O 0.8901(4) 0.3300(3) 0.8060(3)
O4B O 0.7597(3) 0.7290(3) 1.7146(3)
O5E_2 O 0.6822(4) 0.2532(4) 1.2979(4)
O8D O 0.6816(4) 0.7948(3) 1.6563(3)
O8F O 0.6816(4) 0.7052(3) 0.3437(3)
O10G O 0.6118(4) 0.3528(4) 1.1948(4)
O11E_2 O 0.5976(5) 0.2293(4) 1.3042(4)
O13E_2 O 0.8130(5) 0.2296(3) 0.7034(4)
O14E_2 O 0.8965(5) 0.2071(4) 0.6934(4)
O16G O 0.7655(5) 0.6865(3) 1.5771(4)
O18E O 0.6985(4) 0.8714(3) 0.2047(3)
O21D O 0.6785(11) 0.7641(9) 1.5919(8)
O21F O 0.6785(11) 0.7359(9) 0.4081(8)
O22D O 0.8273(13) 0.6813(11) 1.6463(12)
O22F O 0.8273(13) 0.8187(11) 0.3537(12)
O24C O 0.8182(14) 0.8850(11) 0.1858(9)
O24F O 0.8182(14) 0.8850(11) 0.3142(9)
O26 O 0.6233(11) 0.7687(13) 0.2500
loop_
_geom_bond_atom_site_label_1
_geom_bond_atom_site_label_2
_geom_bond_site_symmetry_1
_geom_bond_site_symmetry_2
Eu1 O4 1_555 1_555
Eu2 O2 1_555 1_555
Eu3 O4 1_555 1_555
Eu4 O1 1_555 1_555
O1 H1 1_555 1_555
O2 C52 1_555 1_555
O3 Eu2 1_555 1_555
H2 O3 1_555 1_555
O4 C48 1_555 1_555
O5 Eu4 1_555 1_555
C1 C5 1_555 1_555
O6 Eu1 1_555 1_555
C2 C4 1_555 1_555
C3 H3 1_555 1_555
O7 C76 1_555 1_555
C4 H4 1_555 1_555
C5 C10 1_555 1_555
C6 C10 1_555 1_555
C7 C18 1_555 1_555
C8 H5 1_555 1_555
C9 H6 1_555 1_555
C10 H7 1_555 1_555
C11 H8 1_555 1_555
C12 C16 1_555 1_555
C13 H9 1_555 1_555
C14 C21 1_555 1_555
C15 H10 1_555 1_555
C16 H11 1_555 1_555
C17 C16 1_555 1_555
H12 C17 1_555 1_555
O8 C66 1_555 1_555
C18 H13 1_555 1_555
C19 H14 1_555 1_555
C20 C9 1_555 1_555
C21 C11 1_555 1_555
H15 C21 1_555 1_555
C22 C3 1_555 1_555
C23 C8 1_555 1_555
H16 C23 1_555 1_555
C24 C14 1_555 1_555
H17 C24 1_555 1_555
C25 C54 1_555 1_555
C26 C27 1_555 1_555
C27 H18 1_555 1_555
C28 C31 1_555 1_555
C29 C23 1_555 1_555
C30 H19 1_555 1_555
C31 C5 1_555 1_555
H20 C31 1_555 1_555
C32 C4 1_555 1_555
C33 C28 1_555 1_555
O9 Eu2 1_555 1_555
H21 O9 1_555 1_555
O10 C76 1_555 1_555
O11 Eu4 1_555 1_555
O12 Eu1 1_555 1_555
O13 Eu2 1_555 1_555
O14 Eu2 1_555 1_555
C34 C20 1_555 1_555
H22 C34 1_555 1_555
O15 Eu1 1_555 1_555
C35 C30 1_555 1_555
O16 C69 1_555 1_555
C36 C1 1_555 1_555
H23 C36 1_555 1_555
O17 C52 1_555 1_555
C37 C6 1_555 1_555
H24 C37 1_555 1_555
C38 C12 1_555 1_555
H25 C38 1_555 1_555
C39 C2 1_555 1_555
H26 C39 1_555 1_555
C40 H27 1_555 1_555
O18 Eu3 1_555 1_555
C41 C48 1_555 1_555
C42 C9 1_555 1_555
C43 C6 1_555 1_555
C44 C1 1_555 1_555
H28 C44 1_555 1_555
C45 C7 1_555 1_555
C46 C42 1_555 1_555
C47 C3 1_555 1_555
H29 C47 1_555 1_555
C48 O4E 1_555 1_555
O19 Eu3 1_555 1_555
H30 O19 1_555 1_555
C49 C11 1_555 1_555
C50 C2 1_555 1_555
C51 O13 1_555 1_555
C52 C14 1_555 1_555
O20 C69 1_555 1_555
C53 O5 1_555 1_555
O21 C66 1_555 1_555
C54 O6 1_555 1_555
C55 C25 1_555 1_555
H31 C55 1_555 1_555
C56 C17 1_555 1_555
C57 C40 1_555 1_555
C58 C38 1_555 1_555
H32 C58 1_555 1_555
C59 O12 1_555 1_555
C60 C19 1_555 1_555
C61 C50 1_555 1_555
H33 C61 1_555 1_555
C62 C46 1_555 1_555
H34 C62 1_555 1_555
C63 C13 1_555 1_555
H35 C63 1_555 1_555
C64 C60 1_555 1_555
H36 C64 1_555 1_555
C65 C25 1_555 1_555
H37 C65 1_555 1_555
C66 C77 1_555 1_555
C67 C40 1_555 1_555
H38 C67 1_555 1_555
O22 C83 1_555 1_555
C68 C46 1_555 1_555
H39 C68 1_555 1_555
C69 C29 1_555 1_555
C70 C62 1_555 1_555
H40 C70 1_555 1_555
C71 C33 1_555 1_555
H41 C71 1_555 1_555
C72 C68 1_555 1_555
H42 C72 1_555 1_555
C73 C30 1_555 1_555
H43 C73 1_555 1_555
C74 C35 1_555 1_555
H44 C74 1_555 1_555
C75 C19 1_555 1_555
H45 C75 1_555 1_555
C76 C35 1_555 1_555
O23 Eu3 1_555 1_555
H46 O23 1_555 1_555
C77 C78 1_555 1_555
C78 H47 1_555 1_555
C79 C43 1_555 1_555
H48 C79 1_555 1_555
C80 C77 1_555 1_555
H49 C80 1_555 1_555
C81 C43 1_555 1_555
H50 C81 1_555 1_555
C82 C70 1_555 1_555
O24 C83 1_555 1_555
C83 C82 1_555 1_555
O25 Eu4 1_555 1_555
H51 O25 1_555 1_555
H1E O1 1_555 1_555
H2E O3 1_555 1_555
O4E Eu3 1_555 1_555
H21E O9 1_555 1_555
H30E O19 1_555 1_555
H46E O23 1_555 1_555
H51E O25 1_555 1_555
Eu1B O6B 1_555 1_555
O2B C52B 1_555 1_555
C1B C5B 1_555 1_555
O6B C54B 1_555 1_555
O7B C76B 1_555 1_555
C5B C10B 1_555 1_555
C6B C10B 1_555 1_555
C9B H6B 1_555 1_555
C10B H7B 1_555 1_555
C11B H8B 1_555 1_555
C12B C16B 1_555 1_555
C14B C21B 1_555 1_555
C15B H10B 1_555 1_555
C16B H11B 1_555 1_555
C17B C16B 1_555 1_555
H12B C17B 1_555 1_555
O8B C66B 1_555 1_555
C20B C9B 1_555 1_555
C21B C11B 1_555 1_555
H15B C21B 1_555 1_555
C24B C14B 1_555 1_555
H17B C24B 1_555 1_555
C25B C54B 1_555 1_555
C26B C27B 1_555 1_555
C27B H18B 1_555 1_555
C28B C31B 1_555 1_555
C30B H19B 1_555 1_555
C31B C5B 1_555 1_555
H20B C31B 1_555 1_555
C33B C28B 1_555 1_555
O10B Eu4 1_555 1_555
O12B Eu1B 1_555 1_555
C34B C20B 1_555 1_555
H22B C34B 1_555 1_555
O15B Eu1B 1_555 1_555
C35B C30B 1_555 1_555
C36B C1B 1_555 1_555
H23B C36B 1_555 1_555
O17B C52B 1_555 1_555
C37B C6B 1_555 1_555
H24B C37B 1_555 1_555
C38B C12B 1_555 1_555
H25B C38B 1_555 1_555
O18B C54B 1_555 1_555
C42B C9B 1_555 1_555
C43B C6B 1_555 1_555
C44B C1B 1_555 1_555
H28B C44B 1_555 1_555
C46B C42B 1_555 1_555
C49B C11B 1_555 1_555
C52B C14B 1_555 1_555
O21B C66B 1_555 1_555
C55B C25B 1_555 1_555
H31B C55B 1_555 1_555
C56B C17B 1_555 1_555
C58B C38B 1_555 1_555
H32B C58B 1_555 1_555
C59B O12B 1_555 1_555
C62B C46B 1_555 1_555
H34B C62B 1_555 1_555
C65B C25B 1_555 1_555
H37B C65B 1_555 1_555
C66B C77B 1_555 1_555
O22B C83B 1_555 1_555
C68B C46B 1_555 1_555
H39B C68B 1_555 1_555
C70B C62B 1_555 1_555
H40B C70B 1_555 1_555
C71B C33B 1_555 1_555
H41B C71B 1_555 1_555
C72B C68B 1_555 1_555
H42B C72B 1_555 1_555
C73B C30B 1_555 1_555
H43B C73B 1_555 1_555
C74B C35B 1_555 1_555
H44B C74B 1_555 1_555
C76B O10B 1_555 1_555
C77B C78B 1_555 1_555
C78B H47B 1_555 1_555
C79B C43B 1_555 1_555
H48B C79B 1_555 1_555
C80B C77B 1_555 1_555
H49B C80B 1_555 1_555
C81B C43B 1_555 1_555
H50B C81B 1_555 1_555
C82B C70B 1_555 1_555
O24B C83B 1_555 1_555
C83B C82B 1_555 1_555
O5E C53E 1_555 1_555
C2E C4E 1_555 1_555
C3E H3E 1_555 1_555
C4E H4E 1_555 1_555
C7E C18E 1_555 1_555
C8E H5E 1_555 1_555
C13E H9E 1_555 1_555
C18E H13E 1_555 1_555
C19E H14E 1_555 1_555
C22E C3E 1_555 1_555
C23E C8E 1_555 1_555
H16E C23E 1_555 1_555
C29E C23E 1_555 1_555
C32E C4E 1_555 1_555
O11E C53E 1_555 1_555
O13E C51E 1_555 1_555
O14E C51E 1_555 1_555
O16E Eu1 1_555 1_555
C39E C2E 1_555 1_555
H26E C39E 1_555 1_555
C40E H27E 1_555 1_555
C45E C7E 1_555 1_555
C47E C3E 1_555 1_555
H29E C47E 1_555 1_555
C50E C2E 1_555 1_555
C51E C57E 1_555 1_555
O20E C69E 1_555 1_555
C53E C60E 1_555 1_555
C57E C40E 1_555 1_555
C60E C19E 1_555 1_555
C61E C50E 1_555 1_555
H33E C61E 1_555 1_555
C63E C13E 1_555 1_555
H35E C63E 1_555 1_555
C64E C60E 1_555 1_555
H36E C64E 1_555 1_555
C67E C40E 1_555 1_555
H38E C67E 1_555 1_555
C69E C29E 1_555 1_555
C75E C19E 1_555 1_555
H45E C75E 1_555 1_555
Eu1D O8B 1_555 1_555
Eu1D_2 O22B 1_555 1_555
Eu1E O16 1_555 1_555
Eu1E_2 O4E 1_555 1_555
Eu1F O8 1_555 1_555
Eu1F_2 O22 1_555 1_555
Eu2_2 O13E 1_555 1_555
Eu2B O2B 1_555 1_555
Eu3A O24B 1_555 1_555
Eu3B O18B 1_555 1_555
Eu3C O24 1_555 1_555
Eu4_2 O5E 1_555 1_555
Eu4B O10 1_555 1_555
O2E Eu2 1_555 1_555
O4B Eu1B 1_555 1_555
O5E_2 Eu4 1_555 1_555
O8D Eu1B 1_555 1_555
O8F Eu1 1_555 1_555
O10G Eu4 1_555 1_555
O11E_2 Eu4 1_555 1_555
O13E_2 Eu2 1_555 1_555
O14E_2 Eu2 1_555 1_555
O16G Eu1B 1_555 1_555
O18E Eu3 1_555 1_555
O21D Eu1B 1_555 1_555
O21F Eu1 1_555 1_555
O22D Eu1B 1_555 1_555
O22F Eu1 1_555 1_555
O24C Eu3 1_555 1_555
O24F Eu3 1_555 1_555
C7 C39 1_555 1_555
C8 C22 1_555 1_555
C12 C20 1_555 1_555
C13 C45 1_555 1_555
C15 C24 1_555 1_555
C15 C49 1_555 1_555
C18 C32 1_555 1_555
C22 C32 1_555 1_555
C26 C34 1_555 1_555
C26 C49 1_555 1_555
C27 C42 1_555 1_555
C28 C37 1_555 1_555
C29 C47 1_555 1_555
C33 C73 1_555 1_555
O11 C53 1_555 1_555
O14 C51 1_555 1_555
O15 C59 1_555 1_555
C36 C65 1_555 1_555
O18 C54 1_555 1_555
C44 C55 1_555 1_555
C45 C67 1_555 1_555
C50 C75 1_555 1_555
C51 C57 1_555 1_555
C53 C60 1_555 1_555
O21 Eu1F 1_555 1_555
C56 C58 1_555 1_555
C56 C59 1_555 1_555
C57 C63 1_555 1_555
C61 C64 1_555 1_555
C71 C74 1_555 1_555
C72 C82 1_555 1_555
C78 C79 1_555 1_555
C80 C81 1_555 1_555
C12B C20B 1_555 1_555
C15B C24B 1_555 1_555
C15B C49B 1_555 1_555
C26B C34B 1_555 1_555
C26B C49B 1_555 1_555
C27B C42B 1_555 1_555
C28B C37B 1_555 1_555
C33B C73B 1_555 1_555
O15B C59B 1_555 1_555
C35B C76B 1_555 1_555
C36B C65B 1_555 1_555
C44B C55B 1_555 1_555
O21B Eu1D 1_555 1_555
C56B C58B 1_555 1_555
C56B C59B 1_555 1_555
C71B C74B 1_555 1_555
C72B C82B 1_555 1_555
C78B C79B 1_555 1_555
C80B C81B 1_555 1_555
C7E C39E 1_555 1_555
C8E C22E 1_555 1_555
C13E C45E 1_555 1_555
C18E C32E 1_555 1_555
C22E C32E 1_555 1_555
C29E C47E 1_555 1_555
O11E Eu4_2 1_555 1_555
O14E Eu2_2 1_555 1_555
O16E C69E 1_555 1_555
C45E C67E 1_555 1_555
C50E C75E 1_555 1_555
C57E C63E 1_555 1_555
C61E C64E 1_555 1_555
Eu3B O4B 1_555 1_555

#END
