
#######################################################################
#
#                 Cambridge Crystallographic Data Centre
#                                CCDC 
#
#######################################################################
#
# If this CIF has been generated from an entry in the Cambridge 
# Structural Database, then it will include bibliographic, chemical, 
# crystal, experimental, refinement or atomic coordinate data resulting 
# from the CCDC's data processing and validation procedures.
#
#######################################################################

data_OMUMIU
_chemical_formula_moiety         '(C164 H109 Dy5 O46)n'
_symmetry_cell_setting           orthorhombic
_symmetry_space_group_name_H-M   'P b c m'
_symmetry_Int_Tables_number      57
_space_group_name_Hall           '-P 2c 2b'
loop_
_symmetry_equiv_pos_site_id
_symmetry_equiv_pos_as_xyz
1 x,y,z
2 -x,-y,1/2+z
3 x,1/2-y,-z
4 -x,1/2+y,1/2-z
5 -x,-y,-z
6 x,y,1/2-z
7 -x,1/2+y,z
8 x,1/2-y,1/2+z
_cell_length_a                   24.435(2)
_cell_length_b                   27.255(3)
_cell_length_c                   30.407(3)
_cell_angle_alpha                90
_cell_angle_beta                 90
_cell_angle_gamma                90
_cell_volume                     20250.3
loop_
_atom_site_label
_atom_site_type_symbol
_atom_site_fract_x
_atom_site_fract_y
_atom_site_fract_z
Dy1 Dy 0.744573(14) 0.760629(12) 0.362672(11)
O1 O 0.6983(3) 0.6825(2) 0.35062(18)
O2 O 0.7424(2) 0.76897(18) 0.28569(17)
O3 O 0.6781(10) 0.7209(5) 0.4112(6)
O4 O 0.6607(3) 0.7974(3) 0.3496(2)
O5 O 0.7357(3) 0.8151(2) 0.41828(19)
O6 O 0.8110(2) 0.8181(2) 0.34884(19)
O7 O 0.8215(3) 0.7062(2) 0.3432(2)
O8 O 0.8081(3) 0.7233(3) 0.4122(2)
C1 C 0.6817(3) 0.6797(3) 0.3898(2)
C2 C 0.7463(4) 0.7443(4) 0.2500
Dy2 Dy 0.72428(2) 0.850475(18) 0.2500
C3 C 0.6565(4) 0.8422(4) 0.3447(3)
C4 C 0.7437(4) 0.8288(3) 0.4576(3)
C5 C 0.6549(3) 0.6347(3) 0.4066(2)
C6 C 0.7532(5) 0.6939(4) 0.2500
O9 O 0.6859(3) 0.8665(3) 0.3192(3)
C7 C 0.6131(3) 0.8692(3) 0.3704(3)
O10 O 0.7394(12) 0.7996(8) 0.4888(7)
C8 C 0.7442(3) 0.8827(3) 0.4654(3)
C9 C 0.6401(3) 0.6308(3) 0.4506(2)
C10 C 0.6457(4) 0.5946(3) 0.3788(3)
C11 C 0.6044(4) 0.9184(4) 0.3656(3)
C12 C 0.5845(4) 0.8438(4) 0.4011(3)
C13 C 0.7321(3) 0.9151(3) 0.4320(2)
C14 C 0.7567(4) 0.9009(3) 0.5069(3)
H1 H 0.6463 0.6571 0.4694
C15 C 0.6166(3) 0.5887(3) 0.4668(2)
C16 C 0.6223(4) 0.5523(3) 0.3953(3)
H2 H 0.6553 0.5965 0.3493
H3 H 0.6253 0.9362 0.3457
C17 C 0.5646(3) 0.9420(3) 0.3902(3)
C18 C 0.5435(4) 0.8662(3) 0.4249(3)
H4 H 0.5926 0.8110 0.4060
C19 C 0.7332(3) 0.9648(3) 0.4388(3)
H5 H 0.7231 0.9030 0.4043
C20 C 0.7587(3) 0.9514(3) 0.5144(3)
H6 H 0.7637 0.8793 0.5299
C21 C 0.6074(3) 0.5481(3) 0.4392(2)
H7 H 0.6066 0.5871 0.4962
H8 H 0.6165 0.5259 0.3765
C22 C 0.5328(3) 0.9156(3) 0.4199(2)
H9 H 0.5591 0.9756 0.3869
H10 H 0.5229 0.8478 0.4446
H11 H 0.7246 0.9860 0.4158
C23 C 0.7473(3) 0.9838(3) 0.4803(3)
H12 H 0.7677 0.9633 0.5421
C24 C 0.5796(3) 0.5035(3) 0.4563(2)
C25 C 0.4896(3) 0.9397(3) 0.4468(2)
C26 C 0.7496(3) 1.0377(3) 0.4861(3)
C27 C 0.5913(3) 0.4859(3) 0.4980(2)
C28 C 0.5398(3) 0.4798(3) 0.4305(2)
C29 C 0.4770(3) 0.9230(3) 0.4891(2)
C30 C 0.7253(3) 1.0597(3) 0.5227(3)
C31 C 0.7760(3) 1.0670(3) 0.4554(3)
H13 H 0.6178 0.5013 0.5151
C32 C 0.5628(3) 0.4447(3) 0.5148(2)
H14 H 0.5330 0.4909 0.4021
H15 H 0.4962 0.8963 0.5003
H16 H 0.7092 1.0402 0.5442
C33 C 0.7250(3) 1.1116(3) 0.5273(3)
C34 C 0.7771(3) 1.1178(3) 0.4596(3)
H17 H 0.7933 1.0523 0.4315
C35 C 0.5755(3) 0.4238(3) 0.5590(2)
C36 C 0.6961(4) 1.1340(4) 0.5653(4)
C37 C 0.7517(3) 1.1384(3) 0.4962(3)
C38 C 0.8041(4) 1.1473(3) 0.4246(3)
C39 C 0.6291(3) 0.4175(4) 0.5735(3)
C40 C 0.5328(3) 0.4073(3) 0.5851(3)
C41 C 0.6456(4) 1.1164(4) 0.5786(4)
C42 C 0.7176(4) 1.1749(4) 0.5867(4)
H18 H 0.7529 1.1723 0.4995
C43 C 0.7831(5) 1.1882(4) 0.4080(5)
C44 C 0.8542(5) 1.1313(4) 0.4078(4)
H19 H 0.6580 0.4279 0.5560
C45 C 0.6394(4) 0.3961(4) 0.6134(3)
C46 C 0.5440(4) 0.3846(3) 0.6257(3)
H20 H 0.4968 0.4113 0.5759
H21 H 0.6308 1.0890 0.5647
C47 C 0.6163(5) 1.1391(4) 0.6126(4)
C48 C 0.6887(5) 1.1950(5) 0.6214(5)
H22 H 0.7508 1.1884 0.5778
C49 C 0.8124(6) 1.2155(5) 0.3742(5)
H23 H 0.7495 1.1995 0.4180
H24 H 0.8700 1.1029 0.4190
C50 C 0.8808(6) 1.1568(6) 0.3748(6)
C51 C 0.5966(4) 0.3787(3) 0.6399(2)
H25 H 0.6753 0.3931 0.6232
H26 H 0.5152 0.3735 0.6431
H27 H 0.5819 1.1273 0.6206
C52 C 0.6381(5) 1.1784(5) 0.6340(4)
H28 H 0.7042 1.2210 0.6368
H29 H 0.7976 1.2447 0.3636
C53 C 0.8612(7) 1.1992(6) 0.3577(5)
H30 H 0.9134 1.1443 0.3638
C54 C 0.6075(4) 0.3515(3) 0.6813(3)
C55 C 0.6085(5) 1.2028(5) 0.6711(4)
C56 C 0.8930(6) 1.2254(7) 0.3211(7)
O11 O 0.5677(3) 0.3311(3) 0.7004(2)
O12 O 0.6553(3) 0.3480(2) 0.6971(2)
O13 O 0.6331(3) 1.2353(3) 0.6911(3)
O14 O 0.5616(4) 1.1864(4) 0.6806(4)
O15 O 0.8687(5) 1.2586(4) 0.3054(4)
O16 O 0.9392(5) 1.2087(7) 0.3118(6)
Dy3 Dy 0.62513(2) 0.286509(18) 0.7500
Dy4 Dy 0.87278(3) 1.31286(3) 0.2500
O17 O 0.5412(3) 0.2418(3) 0.7500
O18 O 0.7164(5) 0.2650(6) 0.7500
O19 O 0.2886(5) 0.4366(4) 0.2500
O20 O 0.2030(3) 0.3715(2) 0.29481(17)
O21 O 0.3624(4) 0.3128(5) 0.2500
H31 H 0.5213 0.2514 0.7712
H32 H 0.7233 0.2481 0.7272
C57 C 0.1845(3) 0.3596(3) 0.3317(2)
H33 H 0.2914 0.4544 0.2728
H34 H 0.3756 0.3133 0.2758
C58 C 0.1550(3) 0.3992(3) 0.3580(2)
C59 C 0.1434(4) 0.4436(3) 0.3393(3)
C60 C 0.1414(3) 0.3908(3) 0.4014(3)
C61 C 0.1169(4) 0.4799(3) 0.3644(3)
H35 H 0.1528 0.4498 0.3102
C62 C 0.1173(3) 0.4258(3) 0.4264(3)
H36 H 0.1489 0.3603 0.4139
H37 H 0.1077 0.5098 0.3515
C63 C 0.1046(3) 0.4716(3) 0.4079(2)
H38 H 0.1091 0.4196 0.4557
C64 C 0.0769(3) 0.5105(3) 0.4345(3)
C65 C 0.0933(3) 0.5191(3) 0.4789(3)
C66 C 0.0352(3) 0.5384(3) 0.4170(3)
C67 C 0.0687(4) 0.5545(3) 0.5039(3)
H39 H 0.1213 0.5003 0.4911
C68 C 0.0084(3) 0.5745(3) 0.4420(3)
H40 H 0.0246 0.5333 0.3880
C69 C 0.0861(4) 0.5653(3) 0.5500(3)
C70 C 0.0258(4) 0.5818(3) 0.4851(3)
C71 C -0.0378(4) 0.6048(3) 0.4243(3)
C72 C 0.0399(5) 0.5767(5) 0.5810(4)
C73 C 0.1319(6) 0.5732(6) 0.5619(4)
H41 H 0.0085 0.6056 0.5020
C74 C -0.0393(4) 0.6209(4) 0.3818(3)
C75 C -0.0789(5) 0.6189(5) 0.4515(4)
H42 H 0.0037 0.5730 0.5722
C76 C 0.0522(7) 0.5926(5) 0.6228(4)
C77 C 0.1456(6) 0.5937(7) 0.6048(4)
H43 H 0.1604 0.5659 0.5427
H44 H -0.0116 0.6118 0.3625
C78 C -0.0823(4) 0.6513(4) 0.3667(3)
H45 H -0.0804 0.6057 0.4797
C79 C -0.1185(5) 0.6520(5) 0.4389(4)
C80 C 0.1096(8) 0.5981(6) 0.6348(5)
H46 H 0.0246 0.5998 0.6429
H47 H 0.1813 0.6038 0.6104
H48 H -0.0842 0.6605 0.3373
C81 C -0.1218(4) 0.6672(3) 0.3965(3)
H49 H -0.1431 0.6640 0.4596
C82 C 0.1160(6) 0.6262(7) 0.6795(5)
C83 C -0.1659(4) 0.7003(3) 0.3827(3)
O22 O 0.1629(4) 0.6272(4) 0.6949(3)
O23 O 0.0705(6) 0.6409(6) 0.7009(4)
O24 O 0.7813(4) 0.2946(4) 0.2500
O25 O 0.9602(4) 0.2748(4) 0.2500
H50 H 0.7734 0.2780 0.2728
H51 H 0.9805 0.2896 0.2684
O2E O 0.7424(2) 0.76897(18) 0.21431(17)
Dy1E Dy 0.744573(14) 0.760629(12) 0.137328(11)
C28F C 0.4602(3) 0.9798(3) 0.4305(2)
C25F C 0.5104(3) 0.4397(3) 0.4468(2)
C32F C 0.4372(3) 0.9447(3) 0.5148(2)
C24F C 0.4204(3) 1.0035(3) 0.4563(2)
H14F H 0.4670 0.9909 0.4021
C29F C 0.5230(3) 0.4230(3) 0.4891(2)
C22F C 0.4672(3) 0.4156(3) 0.4199(2)
C27F C 0.4087(3) 0.9859(3) 0.4980(2)
C35F C 0.4245(3) 0.9238(3) 0.5590(2)
C21F C 0.3926(3) 1.0481(3) 0.4392(2)
H15F H 0.5038 0.3963 0.5003
C17F C 0.4354(3) 0.4420(3) 0.3902(3)
C18F C 0.4565(4) 0.3662(3) 0.4249(3)
H13F H 0.3822 1.0013 0.5151
C39F C 0.3709(3) 0.9175(4) 0.5735(3)
C40F C 0.4672(3) 0.9073(3) 0.5851(3)
C16F C 0.3777(4) 1.0523(3) 0.3953(3)
C15F C 0.3834(3) 1.0887(3) 0.4668(2)
C11F C 0.3956(4) 0.4184(4) 0.3656(3)
H9F H 0.4409 0.4756 0.3869
H10F H 0.4771 0.3478 0.4446
C12F C 0.4155(4) 0.3438(4) 0.4011(3)
H19F H 0.3420 0.9279 0.5560
C45F C 0.3606(4) 0.8961(4) 0.6134(3)
C46F C 0.4560(4) 0.8846(3) 0.6257(3)
H20F H 0.5032 0.9113 0.5759
H8F H 0.3835 1.0259 0.3765
C10F C 0.3543(4) 1.0946(3) 0.3788(3)
C9F C 0.3599(3) 1.1308(3) 0.4506(2)
H7F H 0.3934 1.0871 0.4962
H3F H 0.3747 0.4362 0.3457
C7F C 0.3869(3) 0.3692(3) 0.3704(3)
H4F H 0.4074 0.3110 0.4060
C51F C 0.4034(4) 0.8787(3) 0.6399(2)
H25F H 0.3247 0.8931 0.6232
H26F H 0.4848 0.8735 0.6431
H2F H 0.3447 1.0965 0.3493
C5F C 0.3451(3) 1.1347(3) 0.4066(2)
H1F H 0.3537 1.1571 0.4694
C3F C 0.3435(4) 0.3422(4) 0.3447(3)
C54F C 0.3925(4) 0.8515(3) 0.6813(3)
C1F C 0.3183(3) 1.1797(3) 0.3898(2)
O4F O 0.3393(3) 0.2974(3) 0.3496(2)
O9F O 0.3141(3) 0.3665(3) 0.3192(3)
O11F O 0.4323(3) 0.8311(3) 0.7004(2)
O12F O 0.3447(3) 0.8480(2) 0.6971(2)
O1F O 0.3017(3) 1.1825(2) 0.35062(18)
O3F O 0.3219(10) 1.2209(5) 0.4112(6)
Dy1F Dy 0.255427(14) 0.260629(12) 0.362672(11)
Dy2C Dy 0.27572(2) 0.350475(18) 0.2500
Dy3C Dy 0.37487(2) 0.786509(18) 0.7500
Dy1F_2 Dy 0.255427(14) 1.260629(12) 0.362672(11)
Dy3_2 Dy 0.62513(2) 1.286509(18) 0.7500
O13_2 O 0.6331(3) 0.2353(3) 0.6911(3)
O11E O 0.5677(3) 0.3311(3) 0.7996(2)
O13E O 0.6331(3) 0.2353(3) 0.8089(3)
O12E O 0.6553(3) 0.3480(2) 0.8029(2)
O6F O 0.1890(2) 0.3181(2) 0.34884(19)
O2F O 0.2576(2) 0.26897(18) 0.28569(17)
O2C O 0.2576(2) 0.26897(18) 0.21431(17)
O20E O 0.2030(3) 0.3715(2) 0.20519(17)
O9C O 0.3141(3) 0.3665(3) 0.1808(3)
O6F_2 O 0.1890(2) 1.3181(2) 0.34884(19)
O5F O 0.2643(3) 1.3151(2) 0.41828(19)
O2F_2 O 0.2576(2) 1.26897(18) 0.28569(17)
O7F O 0.1785(3) 1.2062(2) 0.3432(2)
O8F O 0.1919(3) 1.2233(3) 0.4122(2)
O4F_2 O 0.3393(3) 1.2974(3) 0.3496(2)
C55_2 C 0.6085(5) 0.2028(5) 0.6711(4)
H31E H 0.5213 0.2514 0.7288
H32E H 0.7233 0.2481 0.7728
H33E H 0.2914 0.4544 0.2272
H34E H 0.3756 0.3133 0.2242
O14_2 O 0.5616(4) 0.1864(4) 0.6806(4)
C52_2 C 0.6381(5) 0.1784(5) 0.6340(4)
C47_2 C 0.6163(5) 0.1391(4) 0.6126(4)
C48_2 C 0.6887(5) 0.1950(5) 0.6214(5)
C41_2 C 0.6456(4) 0.1164(4) 0.5786(4)
H27_2 H 0.5819 0.1273 0.6206
H28_2 H 0.7042 0.2210 0.6368
C42_2 C 0.7176(4) 0.1749(4) 0.5867(4)
C36_2 C 0.6961(4) 0.1340(4) 0.5653(4)
H21_2 H 0.6308 0.0890 0.5647
H22_2 H 0.7508 0.1884 0.5778
C33_2 C 0.7250(3) 0.1116(3) 0.5273(3)
C30_2 C 0.7253(3) 0.0597(3) 0.5227(3)
C37_2 C 0.7517(3) 0.1384(3) 0.4962(3)
H16_2 H 0.7092 0.0402 0.5442
C26_2 C 0.7496(3) 0.0377(3) 0.4861(3)
C34_2 C 0.7771(3) 0.1178(3) 0.4596(3)
H18_2 H 0.7529 0.1723 0.4995
C31_2 C 0.7760(3) 0.0670(3) 0.4554(3)
C23_2 C 0.7473(3) -0.0162(3) 0.4803(3)
C38_2 C 0.8041(4) 0.1473(3) 0.4246(3)
H17_2 H 0.7933 0.0523 0.4315
C19_2 C 0.7332(3) -0.0352(3) 0.4388(3)
C20_2 C 0.7587(3) -0.0486(3) 0.5144(3)
C43_2 C 0.7831(5) 0.1882(4) 0.4080(5)
C44_2 C 0.8542(5) 0.1313(4) 0.4078(4)
H11_2 H 0.7246 -0.0140 0.4158
C13_2 C 0.7321(3) -0.0849(3) 0.4320(2)
H12_2 H 0.7677 -0.0367 0.5421
C14_2 C 0.7567(4) -0.0991(3) 0.5069(3)
C49_2 C 0.8124(6) 0.2155(5) 0.3742(5)
H23_2 H 0.7495 0.1995 0.4180
H24_2 H 0.8700 0.1029 0.4190
C50_2 C 0.8808(6) 0.1568(6) 0.3748(6)
H5_2 H 0.7231 -0.0970 0.4043
C8_2 C 0.7442(3) -0.1173(3) 0.4654(3)
H6_2 H 0.7637 -0.1207 0.5299
H29_2 H 0.7976 0.2447 0.3636
C53_2 C 0.8612(7) 0.1992(6) 0.3577(5)
H30_2 H 0.9134 0.1443 0.3638
C4_2 C 0.7437(4) -0.1712(3) 0.4576(3)
C56_2 C 0.8930(6) 0.2254(7) 0.3211(7)
O5_2 O 0.7357(3) -0.1849(2) 0.41828(19)
O10_2 O 0.7394(12) -0.2004(8) 0.4888(7)
O15_2 O 0.8687(5) 0.2586(4) 0.3054(4)
O16_2 O 0.9392(5) 0.2087(7) 0.3118(6)
O7_2 O -0.1785(3) 0.7062(2) 0.3432(2)
O8_2 O -0.1919(3) 0.7233(3) 0.4122(2)
Dy1_2 Dy 0.744573(14) -0.239371(12) 0.362672(11)
Dy4_2 Dy 0.87278(3) 0.31286(3) 0.2500
Dy4A Dy 0.12722(3) 0.68714(3) 0.7500
Dy1_3 Dy -0.255427(14) 0.760629(12) 0.362672(11)
O22D O 0.8371(4) 0.3728(4) 0.3051(3)
O23D O 0.9295(6) 0.3591(6) 0.2991(4)
O22A O 0.8371(4) 0.3728(4) 0.1949(3)
O15E O 0.8687(5) 0.2586(4) 0.1946(4)
O23A O 0.9295(6) 0.3591(6) 0.2009(4)
H50E H 0.7734 0.2780 0.2272
H51E H 0.9805 0.2896 0.2316
C82D C 0.8840(6) 0.3738(7) 0.3205(5)
C80D C 0.8904(8) 0.4019(6) 0.3652(5)
C77D C 0.8544(6) 0.4063(7) 0.3952(4)
C76D C 0.9478(7) 0.4074(5) 0.3772(4)
H47D H 0.8187 0.3962 0.3896
C73D C 0.8681(6) 0.4268(6) 0.4381(4)
C72D C 0.9601(5) 0.4233(5) 0.4190(4)
H46D H 0.9754 0.4002 0.3571
C69D C 0.9139(4) 0.4347(3) 0.4500(3)
H43D H 0.8396 0.4341 0.4573
H42D H 0.9963 0.4270 0.4278
C67D C 0.9313(4) 0.4455(3) 0.4961(3)
C65D C 0.9067(3) 0.4809(3) 0.5211(3)
C70D C 0.9742(4) 0.4182(3) 0.5149(3)
C64D C 0.9231(3) 0.4895(3) 0.5655(3)
H39D H 0.8787 0.4997 0.5089
H41D H 0.9915 0.3944 0.4980
C68D C 0.9916(3) 0.4255(3) 0.5580(3)
C63D C 0.8954(3) 0.5284(3) 0.5921(2)
C66D C 0.9648(3) 0.4616(3) 0.5830(3)
C71D C 1.0378(4) 0.3952(3) 0.5757(3)
C61D C 0.8831(4) 0.5201(3) 0.6356(3)
C62D C 0.8827(3) 0.5742(3) 0.5736(3)
H40D H 0.9754 0.4667 0.6120
C74D C 1.0393(4) 0.3791(4) 0.6182(3)
C75D C 1.0789(5) 0.3811(5) 0.5485(4)
H37D H 0.8923 0.4902 0.6485
C59D C 0.8566(4) 0.5564(3) 0.6607(3)
H38D H 0.8909 0.5804 0.5443
C60D C 0.8586(3) 0.6092(3) 0.5986(3)
H44D H 1.0116 0.3882 0.6375
C78D C 1.0823(4) 0.3487(4) 0.6333(3)
H45D H 1.0804 0.3943 0.5203
C79D C 1.1185(5) 0.3480(5) 0.5611(4)
C58D C 0.8450(3) 0.6008(3) 0.6420(2)
H35D H 0.8472 0.5502 0.6898
H36D H 0.8511 0.6397 0.5861
H48D H 1.0842 0.3395 0.6627
C81D C 1.1218(4) 0.3328(3) 0.6035(3)
H49D H 1.1431 0.3360 0.5404
C57D C 0.8155(3) 0.6404(3) 0.6683(2)
C83D C 1.1659(4) 0.2997(3) 0.6173(3)
O6B O 0.8110(2) 0.6819(2) 0.65116(19)
O20D O 0.7970(3) 0.6285(2) 0.70519(17)
O7D O 1.1785(3) 0.2938(2) 0.6568(2)
O8D O 1.1919(3) 0.2767(3) 0.5878(2)
Dy1B Dy 0.744573(14) 0.739371(12) 0.637328(11)
Dy2B Dy 0.72428(2) 0.649525(18) 0.7500
Dy1D Dy 1.255427(14) 0.239371(12) 0.637328(11)
O26 O 0.1431(12) 0.5210(8) 0.2500
O27 O 0.7011(14) 0.2500 0.5000
loop_
_geom_bond_atom_site_label_1
_geom_bond_atom_site_label_2
_geom_bond_site_symmetry_1
_geom_bond_site_symmetry_2
Dy1 O1 1_555 1_555
O1 C1 1_555 1_555
O2 Dy1 1_555 1_555
O3 Dy1 1_555 1_555
O4 Dy1 1_555 1_555
O5 Dy1 1_555 1_555
O6 Dy1 1_555 1_555
O7 Dy1 1_555 1_555
O8 Dy1 1_555 1_555
C1 O3 1_555 1_555
C2 O2 1_555 1_555
Dy2 O2 1_555 1_555
C3 O4 1_555 1_555
C4 O5 1_555 1_555
C5 C1 1_555 1_555
C6 C2 1_555 1_555
O9 Dy2 1_555 1_555
C7 C3 1_555 1_555
O10 C4 1_555 1_555
C8 C4 1_555 1_555
C9 C5 1_555 1_555
C10 C5 1_555 1_555
C11 C7 1_555 1_555
C12 C7 1_555 1_555
C13 C8 1_555 1_555
C14 C8 1_555 1_555
H1 C9 1_555 1_555
C15 C9 1_555 1_555
C16 C10 1_555 1_555
H2 C10 1_555 1_555
H3 C11 1_555 1_555
C17 C11 1_555 1_555
C18 C12 1_555 1_555
H4 C12 1_555 1_555
C19 C13 1_555 1_555
H5 C13 1_555 1_555
C20 C14 1_555 1_555
H6 C14 1_555 1_555
C21 C15 1_555 1_555
H7 C15 1_555 1_555
H8 C16 1_555 1_555
C22 C17 1_555 1_555
H9 C17 1_555 1_555
H10 C18 1_555 1_555
H11 C19 1_555 1_555
C23 C19 1_555 1_555
H12 C20 1_555 1_555
C24 C21 1_555 1_555
C25 C22 1_555 1_555
C26 C23 1_555 1_555
C27 C24 1_555 1_555
C28 C24 1_555 1_555
C29 C25 1_555 1_555
C30 C26 1_555 1_555
C31 C26 1_555 1_555
H13 C27 1_555 1_555
C32 C27 1_555 1_555
H14 C28 1_555 1_555
H15 C29 1_555 1_555
H16 C30 1_555 1_555
C33 C30 1_555 1_555
C34 C31 1_555 1_555
H17 C31 1_555 1_555
C35 C32 1_555 1_555
C36 C33 1_555 1_555
C37 C33 1_555 1_555
C38 C34 1_555 1_555
C39 C35 1_555 1_555
C40 C35 1_555 1_555
C41 C36 1_555 1_555
C42 C36 1_555 1_555
H18 C37 1_555 1_555
C43 C38 1_555 1_555
C44 C38 1_555 1_555
H19 C39 1_555 1_555
C45 C39 1_555 1_555
C46 C40 1_555 1_555
H20 C40 1_555 1_555
H21 C41 1_555 1_555
C47 C41 1_555 1_555
C48 C42 1_555 1_555
H22 C42 1_555 1_555
C49 C43 1_555 1_555
H23 C43 1_555 1_555
H24 C44 1_555 1_555
C50 C44 1_555 1_555
C51 C45 1_555 1_555
H25 C45 1_555 1_555
H26 C46 1_555 1_555
H27 C47 1_555 1_555
C52 C47 1_555 1_555
H28 C48 1_555 1_555
H29 C49 1_555 1_555
C53 C49 1_555 1_555
H30 C50 1_555 1_555
C54 C51 1_555 1_555
C55 C52 1_555 1_555
C56 C53 1_555 1_555
O11 C54 1_555 1_555
O12 C54 1_555 1_555
O13 C55 1_555 1_555
O14 C55 1_555 1_555
O15 C56 1_555 1_555
O16 C56 1_555 1_555
Dy3 O11 1_555 1_555
Dy4 O15 1_555 1_555
O17 Dy3 1_555 1_555
O18 Dy3 1_555 1_555
O19 H33 1_555 1_555
O20 C57 1_555 1_555
O21 H34 1_555 1_555
H31 O17 1_555 1_555
H32 O18 1_555 1_555
C57 C58 1_555 1_555
C58 C59 1_555 1_555
C59 C61 1_555 1_555
C60 C58 1_555 1_555
C61 H37 1_555 1_555
H35 C59 1_555 1_555
C62 C60 1_555 1_555
H36 C60 1_555 1_555
C63 C61 1_555 1_555
H38 C62 1_555 1_555
C64 C63 1_555 1_555
C65 C64 1_555 1_555
C66 C64 1_555 1_555
C67 C65 1_555 1_555
H39 C65 1_555 1_555
C68 C66 1_555 1_555
H40 C66 1_555 1_555
C69 C67 1_555 1_555
C70 C67 1_555 1_555
C71 C68 1_555 1_555
C72 C69 1_555 1_555
C73 C69 1_555 1_555
H41 C70 1_555 1_555
C74 C71 1_555 1_555
C75 C71 1_555 1_555
H42 C72 1_555 1_555
C76 C72 1_555 1_555
C77 C73 1_555 1_555
H43 C73 1_555 1_555
H44 C74 1_555 1_555
C78 C74 1_555 1_555
H45 C75 1_555 1_555
C79 C75 1_555 1_555
C80 C76 1_555 1_555
H46 C76 1_555 1_555
H47 C77 1_555 1_555
H48 C78 1_555 1_555
C81 C78 1_555 1_555
H49 C79 1_555 1_555
C82 C80 1_555 1_555
C83 C81 1_555 1_555
O22 C82 1_555 1_555
O23 C82 1_555 1_555
O24 H50 1_555 1_555
O25 H51 1_555 1_555
O2E C2 1_555 1_555
Dy1E O2E 1_555 1_555
C28F C25 1_555 1_555
C25F C28 1_555 1_555
C32F C29 1_555 1_555
C24F C28F 1_555 1_555
H14F C28F 1_555 1_555
C29F C32 1_555 1_555
C22F C25F 1_555 1_555
C27F C32F 1_555 1_555
C35F C32F 1_555 1_555
C21F C24F 1_555 1_555
H15F C29F 1_555 1_555
C17F C22F 1_555 1_555
C18F C22F 1_555 1_555
H13F C27F 1_555 1_555
C39F C35F 1_555 1_555
C40F C35F 1_555 1_555
C16F C21F 1_555 1_555
C15F C21F 1_555 1_555
C11F C17F 1_555 1_555
H9F C17F 1_555 1_555
H10F C18F 1_555 1_555
C12F C18F 1_555 1_555
H19F C39F 1_555 1_555
C45F C39F 1_555 1_555
C46F C40F 1_555 1_555
H20F C40F 1_555 1_555
H8F C16F 1_555 1_555
C10F C16F 1_555 1_555
C9F C15F 1_555 1_555
H7F C15F 1_555 1_555
H3F C11F 1_555 1_555
C7F C11F 1_555 1_555
H4F C12F 1_555 1_555
C51F C45F 1_555 1_555
H25F C45F 1_555 1_555
H26F C46F 1_555 1_555
H2F C10F 1_555 1_555
C5F C10F 1_555 1_555
H1F C9F 1_555 1_555
C3F C7F 1_555 1_555
C54F C51F 1_555 1_555
C1F C5F 1_555 1_555
O4F C3F 1_555 1_555
O9F C3F 1_555 1_555
O11F C54F 1_555 1_555
O12F C54F 1_555 1_555
O1F C1F 1_555 1_555
O3F C1F 1_555 1_555
Dy1F O4F 1_555 1_555
Dy2C O19 1_555 1_555
Dy3C O11F 1_555 1_555
Dy1F_2 O1F 1_555 1_555
Dy3_2 O13 1_555 1_555
O13_2 Dy3 1_555 1_555
O11E Dy3 1_555 1_555
O13E Dy3 1_555 1_555
O12E Dy3 1_555 1_555
O6F C57 1_555 1_555
O2F Dy1F 1_555 1_555
O2C Dy2C 1_555 1_555
O20E Dy2C 1_555 1_555
O9C Dy2C 1_555 1_555
O6F_2 Dy1F_2 1_555 1_555
O5F Dy1F_2 1_555 1_555
O2F_2 Dy1F_2 1_555 1_555
O7F Dy1F_2 1_555 1_555
O8F Dy1F_2 1_555 1_555
O4F_2 Dy1F_2 1_555 1_555
C55_2 O13_2 1_555 1_555
H31E O17 1_555 1_555
H32E O18 1_555 1_555
H33E O19 1_555 1_555
H34E O21 1_555 1_555
O14_2 C55_2 1_555 1_555
C52_2 C55_2 1_555 1_555
C47_2 C52_2 1_555 1_555
C48_2 C52_2 1_555 1_555
C41_2 C47_2 1_555 1_555
H27_2 C47_2 1_555 1_555
H28_2 C48_2 1_555 1_555
C42_2 C48_2 1_555 1_555
C36_2 C41_2 1_555 1_555
H21_2 C41_2 1_555 1_555
H22_2 C42_2 1_555 1_555
C33_2 C36_2 1_555 1_555
C30_2 C33_2 1_555 1_555
C37_2 C33_2 1_555 1_555
H16_2 C30_2 1_555 1_555
C26_2 C30_2 1_555 1_555
C34_2 C37_2 1_555 1_555
H18_2 C37_2 1_555 1_555
C31_2 C26_2 1_555 1_555
C23_2 C26_2 1_555 1_555
C38_2 C34_2 1_555 1_555
H17_2 C31_2 1_555 1_555
C19_2 C23_2 1_555 1_555
C20_2 C23_2 1_555 1_555
C43_2 C38_2 1_555 1_555
C44_2 C38_2 1_555 1_555
H11_2 C19_2 1_555 1_555
C13_2 C19_2 1_555 1_555
H12_2 C20_2 1_555 1_555
C14_2 C20_2 1_555 1_555
C49_2 C43_2 1_555 1_555
H23_2 C43_2 1_555 1_555
H24_2 C44_2 1_555 1_555
C50_2 C44_2 1_555 1_555
H5_2 C13_2 1_555 1_555
C8_2 C13_2 1_555 1_555
H6_2 C14_2 1_555 1_555
H29_2 C49_2 1_555 1_555
C53_2 C49_2 1_555 1_555
H30_2 C50_2 1_555 1_555
C4_2 C8_2 1_555 1_555
C56_2 C53_2 1_555 1_555
O5_2 C4_2 1_555 1_555
O10_2 C4_2 1_555 1_555
O15_2 C56_2 1_555 1_555
O16_2 C56_2 1_555 1_555
O7_2 C83 1_555 1_555
O8_2 C83 1_555 1_555
Dy1_2 O5_2 1_555 1_555
Dy4_2 O24 1_555 1_555
Dy4A O22 1_555 1_555
Dy1_3 O7_2 1_555 1_555
O22D Dy4_2 1_555 1_555
O23D Dy4_2 1_555 1_555
O22A Dy4_2 1_555 1_555
O15E Dy4_2 1_555 1_555
O23A Dy4_2 1_555 1_555
H50E O24 1_555 1_555
H51E O25 1_555 1_555
C82D O22D 1_555 1_555
C80D C82D 1_555 1_555
C77D C80D 1_555 1_555
C76D C80D 1_555 1_555
H47D C77D 1_555 1_555
C73D C77D 1_555 1_555
C72D C76D 1_555 1_555
H46D C76D 1_555 1_555
C69D C73D 1_555 1_555
H43D C73D 1_555 1_555
H42D C72D 1_555 1_555
C67D C69D 1_555 1_555
C65D C67D 1_555 1_555
C70D C67D 1_555 1_555
C64D C65D 1_555 1_555
H39D C65D 1_555 1_555
H41D C70D 1_555 1_555
C68D C70D 1_555 1_555
C63D C64D 1_555 1_555
C66D C64D 1_555 1_555
C71D C68D 1_555 1_555
C61D C63D 1_555 1_555
C62D C63D 1_555 1_555
H40D C66D 1_555 1_555
C74D C71D 1_555 1_555
C75D C71D 1_555 1_555
H37D C61D 1_555 1_555
C59D C61D 1_555 1_555
H38D C62D 1_555 1_555
C60D C62D 1_555 1_555
H44D C74D 1_555 1_555
C78D C74D 1_555 1_555
H45D C75D 1_555 1_555
C79D C75D 1_555 1_555
C58D C59D 1_555 1_555
H35D C59D 1_555 1_555
H36D C60D 1_555 1_555
H48D C78D 1_555 1_555
C81D C78D 1_555 1_555
H49D C79D 1_555 1_555
C57D C58D 1_555 1_555
C83D C81D 1_555 1_555
O6B C57D 1_555 1_555
O20D C57D 1_555 1_555
O7D C83D 1_555 1_555
O8D C83D 1_555 1_555
Dy1B O6B 1_555 1_555
Dy2B O20D 1_555 1_555
Dy1D O7D 1_555 1_555
Dy2 O2E 1_555 1_555
C3 O9 1_555 1_555
C16 C21 1_555 1_555
C18 C22 1_555 1_555
C20 C23 1_555 1_555
C34 C37 1_555 1_555
C46 C51 1_555 1_555
C48 C52 1_555 1_555
C50 C53 1_555 1_555
O12 Dy3 1_555 1_555
O20 Dy2C 1_555 1_555
O21 Dy2C 1_555 1_555
C62 C63 1_555 1_555
C68 C70 1_555 1_555
C77 C80 1_555 1_555
C79 C81 1_555 1_555
O23 Dy4A 1_555 1_555
O25 Dy4_2 1_555 1_555
C25F C29F 1_555 1_555
C24F C27F 1_555 1_555
C12F C7F 1_555 1_555
C46F C51F 1_555 1_555
C9F C5F 1_555 1_555
O9F Dy2C 1_555 1_555
O12F Dy3C 1_555 1_555
O3F Dy1F_2 1_555 1_555
Dy1F O6F 1_555 1_555
Dy2C O2F 1_555 1_555
C42_2 C36_2 1_555 1_555
C34_2 C31_2 1_555 1_555
C14_2 C8_2 1_555 1_555
C50_2 C53_2 1_555 1_555
O15_2 Dy4_2 1_555 1_555
O8_2 Dy1_3 1_555 1_555
O23D C82D 1_555 1_555
C72D C69D 1_555 1_555
C68D C66D 1_555 1_555
C60D C58D 1_555 1_555
C79D C81D 1_555 1_555
O8D Dy1D 1_555 1_555

#END
