
#######################################################################
#
#                 Cambridge Crystallographic Data Centre
#                                CCDC 
#
#######################################################################
#
# If this CIF has been generated from an entry in the Cambridge 
# Structural Database, then it will include bibliographic, chemical, 
# crystal, experimental, refinement or atomic coordinate data resulting 
# from the CCDC's data processing and validation procedures.
#
#######################################################################

data_WAFLIB
_chemical_formula_moiety         'C19 H11 N8 O11 Zn8'
_symmetry_cell_setting           orthorhombic
_symmetry_space_group_name_H-M   'C m c m'
_symmetry_Int_Tables_number      63
_space_group_name_Hall           '-C 2c 2'
loop_
_symmetry_equiv_pos_site_id
_symmetry_equiv_pos_as_xyz
1 x,y,z
2 -x,-y,1/2+z
3 x,-y,-z
4 -x,y,1/2-z
5 1/2+x,1/2+y,z
6 1/2-x,1/2-y,1/2+z
7 1/2+x,1/2-y,-z
8 1/2-x,1/2+y,1/2-z
9 -x,-y,-z
10 x,y,1/2-z
11 -x,y,z
12 x,-y,1/2+z
13 1/2-x,1/2-y,-z
14 1/2+x,1/2+y,1/2-z
15 1/2-x,1/2+y,z
16 1/2+x,1/2-y,1/2+z
_cell_length_a                   10.267(5)
_cell_length_b                   32.086(5)
_cell_length_c                   6.955(5)
_cell_angle_alpha                90
_cell_angle_beta                 90
_cell_angle_gamma                90
_cell_volume                     2291.16
loop_
_atom_site_label
_atom_site_type_symbol
_atom_site_fract_x
_atom_site_fract_y
_atom_site_fract_z
Zn1 Zn 0.5000 0.5000 0.5000
Zn2 Zn 0.5000 0.40393(2) 0.2500
O1 O 0.2353(12) 0.4273(2) 0.2500
O2 O 0.4547(6) 0.46568(17) 0.2500
O3 O 0.2897(7) 0.5000 0.5000
O4 O 0.3396(8) 0.3695(2) 0.2500
N1 N -0.0000 0.05633(10) 0.3430(6)
N2 N 0.0000 0.09541(10) 0.4072(6)
C1 C 0.2360(14) 0.3885(3) 0.2500
C2 C 0.1144(9) 0.36461(17) 0.2500
C3 C 0.0000 0.3855(2) 0.2500
H1 H 0.0000 0.4145 0.2500
C4 C 0.1160(6) 0.32058(16) 0.2500
H2 H 0.1949 0.3064 0.2500
C5 C 0.0000 0.29864(19) 0.2500
C6 C -0.0000 0.25196(18) 0.2500
C7 C 0.0683(8) 0.2303(2) 0.1113(13)
H3 H 0.1165 0.2450 0.0147
C8 C 0.0664(8) 0.18639(19) 0.1113(13)
H4 H 0.1127 0.1713 0.0136
C9 C -0.0000 0.16507(17) 0.2500
C10 C 0.0000 0.11868(17) 0.2500
O1C O -0.2353(12) 0.4273(2) 0.2500
O4C O -0.3396(8) 0.3695(2) 0.2500
N1C N 0.0000 0.05633(10) 0.1570(6)
N2C N -0.0000 0.09541(10) 0.0928(6)
C1C C -0.2360(14) 0.3885(3) 0.2500
C2C C -0.1144(9) 0.36461(17) 0.2500
C4C C -0.1160(6) 0.32058(16) 0.2500
H2C H -0.1949 0.3064 0.2500
C7C C -0.0683(8) 0.2303(2) 0.3887(13)
H3C H -0.1165 0.2450 0.4853
C8C C -0.0664(8) 0.18639(19) 0.3887(13)
H4C H -0.1127 0.1713 0.4864
C7I C 0.0683(8) 0.2303(2) 0.3887(13)
H3I H 0.1165 0.2450 0.4853
C8I C 0.0664(8) 0.18639(19) 0.3887(13)
H4I H 0.1127 0.1713 0.4864
C7J C -0.0683(8) 0.2303(2) 0.1113(13)
H3J H -0.1165 0.2450 0.0147
C8J C -0.0664(8) 0.18639(19) 0.1113(13)
H4J H -0.1127 0.1713 0.0136
O2C O 0.5453(6) 0.46568(17) 0.2500
O3H O 0.7103(7) 0.5000 0.5000
Zn1A Zn 0.5000 0.5000 0.0000
Zn1D Zn 0.0000 -0.0000 0.5000
Zn1E Zn 0.0000 0.0000 0.0000
Zn2_2 Zn -0.5000 0.40393(2) 0.2500
Zn2E Zn 0.0000 0.09607(2) -0.2500
Zn2E_2 Zn -0.0000 0.09607(2) 0.7500
O2A O 0.5453(6) 0.53432(17) 0.7500
O2B O 0.4547(6) 0.53432(17) 0.7500
O4C_2 O 0.6604(8) 0.3695(2) 0.2500
N1D N 0.5000 0.55633(10) 0.3430(6)
N1F N 0.5000 0.44367(10) 0.6570(6)
N2E N 0.5000 0.40459(10) -0.0928(6)
N2F N 0.5000 0.40459(10) 0.5928(6)
loop_
_geom_bond_atom_site_label_1
_geom_bond_atom_site_label_2
_geom_bond_site_symmetry_1
_geom_bond_site_symmetry_2
Zn1 O2 1_555 1_555
Zn2 O2 1_555 1_555
O1 C1 1_555 1_555
O2 O2C 1_555 1_555
O3 Zn1 1_555 1_555
O4 Zn2 1_555 1_555
N1 N2 1_555 1_555
N2 C10 1_555 1_555
C1 O4 1_555 1_555
C2 C1 1_555 1_555
C3 C2 1_555 1_555
H1 C3 1_555 1_555
C4 C2 1_555 1_555
H2 C4 1_555 1_555
C5 C4 1_555 1_555
C6 C5 1_555 1_555
C7 C6 1_555 1_555
H3 C7 1_555 1_555
C8 C7 1_555 1_555
H4 C8 1_555 1_555
C9 C8 1_555 1_555
C10 C9 1_555 1_555
O1C C1C 1_555 1_555
O4C C1C 1_555 1_555
N1C N1 1_555 1_555
N2C C10 1_555 1_555
C1C C2C 1_555 1_555
C2C C3 1_555 1_555
C4C C5 1_555 1_555
H2C C4C 1_555 1_555
C7C C6 1_555 1_555
H3C C7C 1_555 1_555
C8C C9 1_555 1_555
H4C C8C 1_555 1_555
C7I C6 1_555 1_555
H3I C7I 1_555 1_555
C8I C9 1_555 1_555
H4I C8I 1_555 1_555
C7J C6 1_555 1_555
H3J C7J 1_555 1_555
C8J C8 1_555 1_555
H4J C8J 1_555 1_555
O2C Zn1 1_555 1_555
O3H Zn1 1_555 1_555
Zn1A O2 1_555 1_555
Zn1D N1 1_555 1_555
Zn1E N1C 1_555 1_555
Zn2_2 O4C 1_555 1_555
Zn2E N2C 1_555 1_555
Zn2E_2 N2 1_555 1_555
O2A Zn1 1_555 1_555
O2B Zn1 1_555 1_555
O4C_2 Zn2 1_555 1_555
N1D Zn1 1_555 1_555
N1F Zn1 1_555 1_555
N2E Zn2 1_555 1_555
N2F Zn2 1_555 1_555
Zn2 O2C 1_555 1_555
C7 C7J 1_555 1_555
C9 C8J 1_555 1_555
N1C N2C 1_555 1_555
C2C C4C 1_555 1_555
C7C C8C 1_555 1_555
C7C C7I 1_555 1_555
C8C C8I 1_555 1_555
C7I C8I 1_555 1_555
C7J C8J 1_555 1_555
O2C Zn1A 1_555 1_555
O2A O2B 1_555 1_555
N1F N2F 1_555 1_555

#END
