
#######################################################################
#
#                 Cambridge Crystallographic Data Centre
#                                CCDC 
#
#######################################################################
#
# If this CIF has been generated from an entry in the Cambridge 
# Structural Database, then it will include bibliographic, chemical, 
# crystal, experimental, refinement or atomic coordinate data resulting 
# from the CCDC's data processing and validation procedures.
#
#######################################################################

data_YUJVOQ01
_chemical_formula_moiety         '(C12 H16 Li2 N2 O16 Zr1)n'
_symmetry_cell_setting           monoclinic
_symmetry_space_group_name_H-M   'I 2/a'
_symmetry_Int_Tables_number      15
_space_group_name_Hall           '-I 2ya'
loop_
_symmetry_equiv_pos_site_id
_symmetry_equiv_pos_as_xyz
1 x,y,z
2 1/2-x,y,-z
3 1/2+x,1/2+y,1/2+z
4 -x,1/2+y,1/2-z
5 -x,-y,-z
6 1/2+x,-y,z
7 1/2-x,1/2-y,1/2-z
8 x,1/2-y,1/2+z
_cell_length_a                   16.1265(5)
_cell_length_b                   16.6649(6)
_cell_length_c                   15.4756(4)
_cell_angle_alpha                90
_cell_angle_beta                 91.161(3)
_cell_angle_gamma                90
_cell_volume                     4158.16
loop_
_atom_site_label
_atom_site_type_symbol
_atom_site_fract_x
_atom_site_fract_y
_atom_site_fract_z
_atom_site_U_iso_or_equiv
_atom_site_thermal_displace_type
Li1 Li -0.1948(2) 1.0474(2) 0.1166(2) 0.0356 Uani
Li2 Li 0.1957(2) 0.4491(2) 0.1326(2) 0.0350 Uani
C1 C -0.13754(14) 0.62870(15) 0.09285(17) 0.0405 Uani
C2 C -0.13059(14) 0.88249(13) 0.11556(15) 0.0364 Uani
C3 C 0.14672(14) 0.86607(14) 0.13672(15) 0.0377 Uani
C4 C 0.12441(13) 0.86101(13) 0.03987(15) 0.0400 Uani
C5 C -0.11989(13) 0.86506(13) 0.21250(14) 0.0389 Uani
C6 C 0.08762(12) 0.62732(13) 0.24342(14) 0.0370 Uani
C7 C -0.09398(13) 0.63636(13) 0.00559(14) 0.0389 Uani
C8 C 0.12527(14) 0.61418(14) 0.15366(16) 0.0372 Uani
O1 O 0.03605(9) 0.68605(9) 0.24649(9) 0.0383 Uani
O2 O -0.03855(9) 0.69108(9) 0.00454(8) 0.0382 Uani
O3 O -0.10300(10) 0.67112(10) 0.15255(10) 0.0449 Uani
O4 O 0.09622(10) 0.82703(10) 0.18383(9) 0.0420 Uani
O5 O 0.09820(10) 0.66533(10) 0.09766(9) 0.0443 Uani
O6 O 0.06557(9) 0.81132(10) 0.02201(9) 0.0414 Uani
O7 O -0.08865(10) 0.83402(10) 0.06856(9) 0.0429 Uani
O8 O -0.06135(9) 0.81494(9) 0.23051(9) 0.0397 Uani
O9 O 0.17502(11) 0.56161(11) 0.14061(13) 0.0525 Uani
O10 O -0.19695(12) 0.58534(12) 0.09997(14) 0.0609 Uani
O11 O 0.20591(11) 0.90459(12) 0.16391(12) 0.0547 Uani
O12 O -0.17510(11) 0.93578(10) 0.08801(12) 0.0495 Uani
O13 O -0.16654(13) 0.89694(13) 0.26260(12) 0.0630 Uani
O14 O 0.16103(13) 0.90307(13) -0.01026(13) 0.0705 Uani
O15 O -0.11140(13) 0.59297(13) -0.05553(12) 0.0656 Uani
O16 O 0.10600(12) 0.58451(12) 0.30469(12) 0.0613 Uani
Zr1 Zr 0.000455(8) 0.750443(8) 0.126308(7) 0.0243 Uani
Li1C Li 0.1948(2) 0.5474(2) 0.3834(2) 0.0356 Uani
Li1D Li 0.1948(2) 0.9526(2) -0.1166(2) 0.0356 Uani
Li1E Li 0.3052(2) 0.9526(2) 0.1166(2) 0.0356 Uani
Li2C Li -0.1957(2) 0.9491(2) 0.3674(2) 0.0350 Uani
Li2D Li -0.1957(2) 0.5509(2) -0.1326(2) 0.0350 Uani
Li2E Li -0.3043(2) 0.5509(2) 0.1326(2) 0.0350 Uani
O10E O 0.30305(12) 0.41466(12) 0.09997(14) 0.0609 Uani
O11E O -0.29409(11) 1.09541(12) 0.16391(12) 0.0547 Uani
O13C O 0.16654(13) 0.39694(13) 0.23740(12) 0.0630 Uani
O14D O -0.16103(13) 1.09693(13) 0.01026(13) 0.0705 Uani
O15D O 0.11140(13) 0.40703(13) 0.05553(12) 0.0656 Uani
O16C O -0.10600(12) 1.08451(12) 0.19531(12) 0.0613 Uani
C9 C -0.0946(3) 0.5720(2) 0.3733(3) 0.0967 Uani
H1 H -0.1153 0.5572 0.3170 0.1450 Uiso
H2 H -0.1325 0.5541 0.4162 0.1450 Uiso
H3 H -0.0414 0.5475 0.3835 0.1450 Uiso
C10 C -0.1664(2) 0.7016(2) 0.36665(19) 0.0726 Uani
H4 H -0.1919 0.6857 0.3128 0.1090 Uiso
H5 H -0.1572 0.7585 0.3664 0.1090 Uiso
H6 H -0.2021 0.6879 0.4133 0.1090 Uiso
N1 N -0.08624(14) 0.65969(14) 0.37821(13) 0.0566 Uani
H7 H -0.0514 0.6763 0.3372 0.0680 Uiso
H8 H -0.0638 0.6730 0.4299 0.0680 Uiso
C11 C 0.0923(3) 0.5783(2) -0.1215(2) 0.0897 Uani
H9 H 0.1285 0.5591 -0.1655 0.1340 Uiso
H10 H 0.0378 0.5565 -0.1311 0.1340 Uiso
H11 H 0.1132 0.5617 -0.0658 0.1340 Uiso
C12 C 0.1700(2) 0.7046(2) -0.1164(2) 0.0766 Uani
H12 H 0.2037 0.6890 -0.1640 0.1150 Uiso
H13 H 0.1964 0.6882 -0.0631 0.1150 Uiso
H14 H 0.1632 0.7618 -0.1166 0.1150 Uiso
N2 N 0.08836(14) 0.66601(14) -0.12489(12) 0.0546 Uani
H15 H 0.0560 0.6836 -0.0821 0.0650 Uiso
H16 H 0.0645 0.6809 -0.1754 0.0650 Uiso
loop_
_atom_site_aniso_label
_atom_site_aniso_U_11
_atom_site_aniso_U_22
_atom_site_aniso_U_33
_atom_site_aniso_U_23
_atom_site_aniso_U_13
_atom_site_aniso_U_12
Li1 0.0374(17) 0.0300(17) 0.0397(16) -0.0007(14) 0.0054(14) 0.0010(14)
Li2 0.0341(16) 0.0344(18) 0.0367(15) -0.0045(14) 0.0039(13) -0.0040(14)
C1 0.0306(10) 0.0346(11) 0.0561(13) -0.0002(10) -0.0006(9) -0.0057(9)
C2 0.0353(10) 0.0263(10) 0.0476(12) -0.0038(9) 0.0024(9) 0.0019(8)
C3 0.0342(11) 0.0313(11) 0.0479(12) -0.0002(9) 0.0073(9) -0.0052(9)
C4 0.0361(10) 0.0379(11) 0.0463(11) 0.0140(10) 0.0066(8) -0.0041(9)
C5 0.0397(11) 0.0347(11) 0.0426(11) -0.0114(9) 0.0078(8) 0.0019(9)
C6 0.0326(10) 0.0359(11) 0.0424(11) 0.0065(9) -0.0049(8) -0.0027(8)
C7 0.0380(11) 0.0359(11) 0.0425(11) -0.0052(9) -0.0079(8) -0.0030(9)
C8 0.0329(10) 0.0295(11) 0.0491(12) -0.0024(9) -0.0004(9) 0.0018(9)
O1 0.0412(8) 0.0430(9) 0.0309(6) 0.0079(6) 0.0046(5) 0.0070(6)
O2 0.0421(8) 0.0418(8) 0.0307(6) -0.0067(6) 0.0024(5) -0.0069(7)
O3 0.0440(8) 0.0505(9) 0.0406(7) -0.0035(7) 0.0109(6) -0.0203(7)
O4 0.0428(8) 0.0474(9) 0.0358(7) -0.0029(7) 0.0040(6) -0.0193(7)
O5 0.0495(9) 0.0468(9) 0.0368(7) 0.0008(7) 0.0085(6) 0.0182(7)
O6 0.0425(8) 0.0498(9) 0.0321(6) 0.0110(6) 0.0044(6) -0.0092(7)
O7 0.0516(9) 0.0413(9) 0.0359(7) 0.0005(6) 0.0032(6) 0.0180(7)
O8 0.0426(8) 0.0453(9) 0.0313(6) -0.0078(6) 0.0053(6) 0.0067(7)
O9 0.0487(10) 0.0353(9) 0.0737(11) -0.0035(8) 0.0044(8) 0.0107(8)
O10 0.0437(10) 0.0550(12) 0.0845(13) -0.0060(10) 0.0108(9) -0.0197(9)
O11 0.0484(10) 0.0549(11) 0.0611(10) -0.0041(9) 0.0055(8) -0.0235(9)
O12 0.0521(10) 0.0353(9) 0.0610(10) -0.0011(8) -0.0012(8) 0.0116(7)
O13 0.0665(11) 0.0715(13) 0.0515(9) -0.0178(9) 0.0149(8) 0.0235(10)
O14 0.0707(13) 0.0806(14) 0.0605(11) 0.0328(11) 0.0057(9) -0.0294(11)
O15 0.0690(12) 0.0698(13) 0.0576(10) -0.0251(10) -0.0094(9) -0.0187(10)
O16 0.0632(11) 0.0661(12) 0.0541(10) 0.0242(9) -0.0075(8) 0.0151(10)
Zr1 0.02617(15) 0.02472(15) 0.02218(15) -0.00002(5) 0.00353(9) -0.00142(5)
Li1C 0.0374 0.03 0.0397 0.0007 0.0054 -0.001
Li1D 0.0374 0.03 0.0397 -0.0007 0.0054 0.001
Li1E 0.0374 0.03 0.0397 0.0007 0.0054 -0.001
Li2C 0.0341 0.0344 0.0367 0.0045 0.0039 0.004
Li2D 0.0341 0.0344 0.0367 -0.0045 0.0039 -0.004
Li2E 0.0341 0.0344 0.0367 0.0045 0.0039 0.004
O10E 0.0437 0.055 0.0845 0.006 0.0108 0.0197
O11E 0.0484 0.0549 0.0611 0.0041 0.0055 0.0235
O13C 0.0665 0.0715 0.0515 0.0178 0.0149 -0.0235
O14D 0.0707 0.0806 0.0605 0.0328 0.0057 -0.0294
O15D 0.069 0.0698 0.0576 -0.0251 -0.0094 -0.0187
O16C 0.0632 0.0661 0.0541 -0.0242 -0.0075 -0.0151
C9 0.139(4) 0.060(2) 0.093(3) -0.0126(19) 0.052(2) -0.026(2)
C10 0.0711(19) 0.091(2) 0.0556(15) 0.0030(16) 0.0024(13) -0.0229(18)
N1 0.0684(14) 0.0636(14) 0.0384(9) -0.0115(9) 0.0158(9) -0.0309(12)
C11 0.126(3) 0.062(2) 0.082(2) 0.0110(17) 0.026(2) 0.024(2)
C12 0.072(2) 0.093(3) 0.0647(17) -0.0090(18) 0.0008(15) 0.0134(19)
N2 0.0651(13) 0.0620(14) 0.0370(9) 0.0087(9) 0.0113(9) 0.0288(11)
loop_
_geom_bond_atom_site_label_1
_geom_bond_atom_site_label_2
_geom_bond_site_symmetry_1
_geom_bond_site_symmetry_2
Li1 O12 1_555 1_555
Li2 O9 1_555 1_555
C1 C7 1_555 1_555
C2 C5 1_555 1_555
C3 C4 1_555 1_555
C4 O6 1_555 1_555
C5 O8 1_555 1_555
C6 C8 1_555 1_555
C7 O2 1_555 1_555
C8 O5 1_555 1_555
O1 C6 1_555 1_555
O2 Zr1 1_555 1_555
O3 C1 1_555 1_555
O4 C3 1_555 1_555
O5 Zr1 1_555 1_555
O6 Zr1 1_555 1_555
O7 C2 1_555 1_555
O8 Zr1 1_555 1_555
O9 C8 1_555 1_555
O10 C1 1_555 1_555
O11 C3 1_555 1_555
O12 C2 1_555 1_555
O13 C5 1_555 1_555
O14 C4 1_555 1_555
O15 C7 1_555 1_555
O16 C6 1_555 1_555
Zr1 O1 1_555 1_555
C9 H1 1_555 1_555
H2 C9 1_555 1_555
H3 C9 1_555 1_555
C10 H4 1_555 1_555
H5 C10 1_555 1_555
H6 C10 1_555 1_555
N1 C9 1_555 1_555
H7 N1 1_555 1_555
H8 N1 1_555 1_555
C11 H9 1_555 1_555
H10 C11 1_555 1_555
H11 C11 1_555 1_555
C12 H12 1_555 1_555
H13 C12 1_555 1_555
H14 C12 1_555 1_555
N2 C11 1_555 1_555
H15 N2 1_555 1_555
H16 N2 1_555 1_555
Li1C O16 1_555 1_555
Li1D O14 1_555 1_555
Li1E O11 1_555 1_555
Li2C O13 1_555 1_555
Li2D O15 1_555 1_555
Li2E O10 1_555 1_555
O10E Li2 1_555 1_555
O11E Li1 1_555 1_555
O13C Li2 1_555 1_555
O14D Li1 1_555 1_555
O15D Li2 1_555 1_555
O16C Li1 1_555 1_555
O3 Zr1 1_555 1_555
O4 Zr1 1_555 1_555
O7 Zr1 1_555 1_555
C10 N1 1_555 1_555
C12 N2 1_555 1_555

#END
