
#######################################################################
#
#                 Cambridge Crystallographic Data Centre
#                                CCDC 
#
#######################################################################
#
# If this CIF has been generated from an entry in the Cambridge 
# Structural Database, then it will include bibliographic, chemical, 
# crystal, experimental, refinement or atomic coordinate data resulting 
# from the CCDC's data processing and validation procedures.
#
#######################################################################

data_YUJWAD
_chemical_formula_moiety         '(C24 H34 Li4 N4 O33 Zr2)n'
_symmetry_cell_setting           triclinic
_symmetry_space_group_name_H-M   'P 1'
_symmetry_Int_Tables_number      1
_space_group_name_Hall           'P 1'
loop_
_symmetry_equiv_pos_site_id
_symmetry_equiv_pos_as_xyz
1 x,y,z
_cell_length_a                   8.4752(3)
_cell_length_b                   8.4797(3)
_cell_length_c                   16.1725(5)
_cell_angle_alpha                78.177(3)
_cell_angle_beta                 89.232(3)
_cell_angle_gamma                69.334(3)
_cell_volume                     1062.21
loop_
_atom_site_label
_atom_site_type_symbol
_atom_site_fract_x
_atom_site_fract_y
_atom_site_fract_z
Li1 Li 0.242(3) 0.757(3) 0.0912(14)
Li2 Li 0.204(3) 1.099(3) 0.5653(15)
Li3 Li 1.187(2) 0.774(2) 0.5723(10)
Li4 Li 0.240(3) 0.420(3) 0.6260(14)
C1 C 0.9903(15) 0.7339(17) 0.6988(8)
C2 C 0.9994(17) 0.9168(18) 0.9624(8)
C3 C 0.4585(16) 1.0897(17) 0.7091(8)
C4 C 0.9776(18) 0.9301(19) 0.6885(9)
C5 C 1.0498(17) 0.7230(18) 0.9682(9)
C6 C 0.6088(18) 0.611(2) 0.9250(9)
C7 C 0.4804(16) 1.2154(17) 0.7592(9)
C8 C 0.5527(19) 0.756(2) 0.9747(10)
C9 C 0.3939(18) 0.8085(19) 0.2246(9)
C10 C 0.452(2) 0.607(2) 0.2350(10)
C11 C 0.9897(17) 0.4416(19) 0.4849(9)
C12 C 0.9684(17) 0.3085(19) 0.4355(9)
C13 C 0.8430(19) 0.916(2) 0.2697(10)
C14 C 0.886(2) 0.770(2) 0.2188(11)
C15 C 0.4649(16) 0.6051(18) 0.5079(8)
C16 C 0.4613(16) 0.7872(18) 0.4989(8)
O1 O 0.3487(13) 1.1442(13) 0.6528(7)
O2 O 1.1053(13) 0.3803(14) 0.5432(7)
O3 O 0.2855(13) 0.9019(14) 0.1731(7)
O4 O 1.1624(14) 0.6209(15) 1.0244(7)
O5 O 1.0644(12) 0.9803(11) 0.6344(6)
O6 O 1.0862(6) 0.8204(6) 0.4599(3)
H1 H 1.0049 0.7642 0.4515
H2 H 1.1637 0.7877 0.4146
O7 O 0.4800(12) 0.8486(13) 0.2795(6)
O8 O 0.6024(13) 0.8854(13) 0.9401(7)
O9 O 0.5585(12) 0.9338(13) 0.7341(7)
O10 O 0.8874(12) 0.5926(13) 0.4601(6)
O11 O 0.9665(13) 0.6792(13) 0.9192(7)
O12 O 0.8488(12) 0.3759(13) 0.3778(6)
O13 O 0.8896(11) 1.0049(13) 0.7388(6)
O14 O 0.3889(12) 1.3689(13) 0.7408(6)
O15 O 1.0689(13) 0.1596(14) 0.4532(7)
O16 O 0.5758(13) 0.5222(13) 0.2882(7)
O17 O 0.8959(13) 0.6975(14) 0.7518(7)
O18 O 1.0764(11) 0.6468(12) 0.6536(6)
O19 O 0.3695(13) 0.5490(14) 0.1926(6)
O20 O 0.6002(12) 1.1499(13) 0.8170(6)
O21 O 0.8723(12) 1.0058(12) 0.9057(6)
O22 O 1.0706(13) 0.9723(13) 1.0033(6)
O23 O 0.4958(15) 0.7385(15) 1.0435(8)
O24 O 0.5795(15) 0.4770(13) 0.9501(7)
O25 O 0.6855(14) 0.6463(15) 0.8555(7)
O26 O 0.3664(12) 0.8832(13) 0.5428(6)
O27 O 0.3889(14) 0.5438(15) 0.5622(8)
O28 O 0.5664(12) 0.5216(13) 0.4561(6)
O29 O 0.5528(11) 0.8349(12) 0.4417(6)
O30 O 0.7711(13) 0.8784(14) 0.3344(7)
O31 O 0.8379(12) 0.6475(12) 0.2522(6)
O32 O 0.8730(16) 1.0448(15) 0.2467(8)
O33 O 0.9848(12) 0.7651(13) 0.1632(6)
Zr1 Zr 0.68592(5) 0.65558(5) 0.35981(3)
Zr2 Zr 0.76287(5) 0.87021(5) 0.83557(3)
Li1_2 Li 0.242(3) 0.757(3) 1.0912(14)
Li1_3 Li 1.242(3) 0.757(3) 0.0912(14)
Li1_4 Li 1.242(3) 0.757(3) 1.0912(14)
Li2_2 Li 1.204(3) 0.099(3) 0.5653(15)
Li2_3 Li 1.204(3) 1.099(3) 0.5653(15)
Li3_2 Li 0.187(2) 0.774(2) 0.5723(10)
Li4_2 Li 0.240(3) 1.420(3) 0.6260(14)
Li4_3 Li 1.240(3) 0.420(3) 0.6260(14)
O1_2 O 0.3487(13) 0.1442(13) 0.6528(7)
O2_2 O 0.1053(13) 0.3803(14) 0.5432(7)
O2_3 O 0.1053(13) 1.3803(14) 0.5432(7)
O4_2 O 0.1624(14) 0.6209(15) 0.0244(7)
O5_2 O 0.0644(12) 0.9803(11) 0.6344(6)
O14_2 O 0.3889(12) 0.3689(13) 0.7408(6)
O15_2 O 0.0689(13) 1.1596(14) 0.4532(7)
O18_2 O 0.0764(11) 0.6468(12) 0.6536(6)
O22_2 O 0.0706(13) 0.9723(13) 0.0033(6)
O23_2 O 0.4958(15) 0.7385(15) 0.0435(8)
O26_2 O 1.3664(12) 0.8832(13) 0.5428(6)
O27_2 O 1.3889(14) 0.5438(15) 0.5622(8)
O33_2 O -0.0152(12) 0.7651(13) 0.1632(6)
C17 C 0.7843(19) 0.411(2) 0.6933(9)
H3 H 0.8238 0.5025 0.6696
H4 H 0.6637 0.4506 0.6838
H5 H 0.8356 0.3150 0.6668
C18 C 1.0177(19) 0.283(2) 0.8054(11)
H6 H 1.0666 0.1906 0.7764
H7 H 1.0440 0.2399 0.8652
H8 H 1.0628 0.3722 0.7860
N1 N 0.8318(15) 0.3540(16) 0.7880(8)
H9 H 0.7867 0.4448 0.8126
H10 H 0.7885 0.2732 0.8108
C19 C 0.3242(19) 0.227(2) 0.9836(11)
H11 H 0.3016 0.2609 0.9233
H12 H 0.2610 0.3205 1.0092
H13 H 0.2915 0.1290 1.0049
C20 C 0.545(2) 0.162(2) 1.0958(10)
H14 H 0.6650 0.1120 1.1087
H15 H 0.4918 0.0893 1.1286
H16 H 0.5024 0.2741 1.1094
N2 N 0.5081(15) 0.1788(16) 1.0044(8)
H17 H 0.5655 0.0781 0.9897
H18 H 0.5438 0.2600 0.9741
C21 C 1.1247(19) 1.291(2) 0.2129(12)
H19 H 1.1659 1.3712 0.1772
H20 H 1.1848 1.1767 0.2043
H21 H 1.1417 1.2938 0.2711
C22 C 0.896(2) 1.359(3) 0.1017(12)
H22 H 0.9145 1.4585 0.0691
H23 H 0.7786 1.3744 0.0952
H24 H 0.9634 1.2583 0.0820
N3 N 0.9433(14) 1.3383(16) 0.1918(7)
H25 H 0.8870 1.4379 0.2078
H26 H 0.9087 1.2566 0.2225
C23 C 0.667(2) 0.1150(19) 0.5007(9)
H27 H 0.7869 0.0573 0.5090
H28 H 0.6118 0.0369 0.5259
H29 H 0.6327 0.2131 0.5266
C24 C 0.4316(18) 0.2491(19) 0.3885(11)
H30 H 0.4115 0.2845 0.3281
H31 H 0.3827 0.3473 0.4137
H32 H 0.3811 0.1648 0.4096
N4 N 0.6189(14) 0.1716(14) 0.4109(7)
H33 H 0.6633 0.0808 0.3863
H34 H 0.6652 0.2503 0.3888
loop_
_geom_bond_atom_site_label_1
_geom_bond_atom_site_label_2
_geom_bond_site_symmetry_1
_geom_bond_site_symmetry_2
Li1 O3 1_555 1_555
Li2 O1 1_555 1_555
Li3 O5 1_555 1_555
Li4 O27 1_555 1_555
C1 C4 1_555 1_555
C2 C5 1_555 1_555
C3 C7 1_555 1_555
C4 O5 1_555 1_555
C5 O4 1_555 1_555
C6 C8 1_555 1_555
C7 O14 1_555 1_555
C8 O8 1_555 1_555
C9 C10 1_555 1_555
C10 O16 1_555 1_555
C11 C12 1_555 1_555
C12 O12 1_555 1_555
C13 C14 1_555 1_555
C14 O31 1_555 1_555
C15 C16 1_555 1_555
C16 O26 1_555 1_555
O1 C3 1_555 1_555
O2 C11 1_555 1_555
O3 C9 1_555 1_555
O4 Li1_4 1_555 1_555
O5 Li2_3 1_555 1_555
O6 Li3 1_555 1_555
H1 O6 1_555 1_555
H2 O6 1_555 1_555
O7 C9 1_555 1_555
O8 Zr2 1_555 1_555
O9 C3 1_555 1_555
O10 C11 1_555 1_555
O11 C5 1_555 1_555
O12 Zr1 1_555 1_555
O13 C4 1_555 1_555
O14 Li4_2 1_555 1_555
O15 C12 1_555 1_555
O16 Zr1 1_555 1_555
O17 C1 1_555 1_555
O18 Li3 1_555 1_555
O19 Li1 1_555 1_555
O20 C7 1_555 1_555
O21 C2 1_555 1_555
O22 C2 1_555 1_555
O23 C8 1_555 1_555
O24 C6 1_555 1_555
O25 C6 1_555 1_555
O26 Li2 1_555 1_555
O27 C15 1_555 1_555
O28 C15 1_555 1_555
O29 C16 1_555 1_555
O30 C13 1_555 1_555
O31 Zr1 1_555 1_555
O32 C13 1_555 1_555
O33 C14 1_555 1_555
Zr1 O7 1_555 1_555
Zr2 O9 1_555 1_555
C17 H3 1_555 1_555
H4 C17 1_555 1_555
H5 C17 1_555 1_555
C18 H6 1_555 1_555
H7 C18 1_555 1_555
H8 C18 1_555 1_555
N1 C17 1_555 1_555
H9 N1 1_555 1_555
H10 N1 1_555 1_555
C19 H11 1_555 1_555
H12 C19 1_555 1_555
H13 C19 1_555 1_555
C20 H14 1_555 1_555
H15 C20 1_555 1_555
H16 C20 1_555 1_555
N2 C19 1_555 1_555
H17 N2 1_555 1_555
H18 N2 1_555 1_555
C21 H19 1_555 1_555
H20 C21 1_555 1_555
H21 C21 1_555 1_555
C22 H22 1_555 1_555
H23 C22 1_555 1_555
H24 C22 1_555 1_555
N3 C21 1_555 1_555
H25 N3 1_555 1_555
H26 N3 1_555 1_555
C23 H27 1_555 1_555
H28 C23 1_555 1_555
H29 C23 1_555 1_555
C24 H30 1_555 1_555
H31 C24 1_555 1_555
H32 C24 1_555 1_555
N4 C23 1_555 1_555
H33 N4 1_555 1_555
H34 N4 1_555 1_555
Li1_2 O23 1_555 1_555
Li1_3 O33 1_555 1_555
Li1_4 O22 1_555 1_555
Li2_2 O2 1_555 1_555
Li2_3 O26_2 1_555 1_555
Li3_2 O26 1_555 1_555
Li4_2 O1 1_555 1_555
Li4_3 O2 1_555 1_555
O1_2 Li4 1_555 1_555
O2_2 Li4 1_555 1_555
O2_3 Li2 1_555 1_555
O4_2 Li1 1_555 1_555
O5_2 Li2 1_555 1_555
O14_2 Li4 1_555 1_555
O15_2 Li2 1_555 1_555
O18_2 Li4 1_555 1_555
O22_2 Li1 1_555 1_555
O23_2 Li1 1_555 1_555
O26_2 Li3 1_555 1_555
O27_2 Li3 1_555 1_555
O33_2 Li1 1_555 1_555
C1 O18 1_555 1_555
C10 O19 1_555 1_555
O10 Zr1 1_555 1_555
O11 Zr2 1_555 1_555
O13 Zr2 1_555 1_555
O15 Li2_2 1_555 1_555
O17 Zr2 1_555 1_555
O18 Li4_3 1_555 1_555
O20 Zr2 1_555 1_555
O21 Zr2 1_555 1_555
O25 Zr2 1_555 1_555
O27 Li3_2 1_555 1_555
O28 Zr1 1_555 1_555
O29 Zr1 1_555 1_555
O30 Zr1 1_555 1_555
C18 N1 1_555 1_555
C20 N2 1_555 1_555
C22 N3 1_555 1_555
C24 N4 1_555 1_555
Li3_2 O5_2 1_555 1_555
Li3_2 O18_2 1_555 1_555
Li4_2 O2_3 1_555 1_555
Li4_3 O27_2 1_555 1_555

#END
