
#######################################################################
#
#                 Cambridge Crystallographic Data Centre
#                                CCDC 
#
#######################################################################
#
# If this CIF has been generated from an entry in the Cambridge 
# Structural Database, then it will include bibliographic, chemical, 
# crystal, experimental, refinement or atomic coordinate data resulting 
# from the CCDC's data processing and validation procedures.
#
#######################################################################

data_YUJWAD01
_chemical_formula_moiety         '(C24 H34 Li4 N4 O33 Zr2)n'
_symmetry_cell_setting           triclinic
_symmetry_space_group_name_H-M   'P 1'
_symmetry_Int_Tables_number      1
_space_group_name_Hall           'P 1'
loop_
_symmetry_equiv_pos_site_id
_symmetry_equiv_pos_as_xyz
1 x,y,z
_cell_length_a                   8.5302(6)
_cell_length_b                   8.5902(6)
_cell_length_c                   16.1582(12)
_cell_angle_alpha                89.309(6)
_cell_angle_beta                 78.004(6)
_cell_angle_gamma                68.812(6)
_cell_volume                     1077.28
loop_
_atom_site_label
_atom_site_type_symbol
_atom_site_fract_x
_atom_site_fract_y
_atom_site_fract_z
Zr1 Zr 0.59693(5) 0.73780(5) 0.58595(3)
O1 O 0.4054(12) 0.9400(13) 0.6702(6)
O2 O 0.6604(13) 0.5373(13) 0.4841(7)
O3 O 0.8746(13) 0.5758(12) 0.5659(6)
O4 O 0.6062(14) 0.5772(13) 0.6906(7)
O5 O 0.7295(11) 0.8422(12) 0.6604(7)
O6 O 0.4205(13) 0.8751(14) 0.5042(7)
O7 O 0.7260(12) 0.8625(14) 0.4900(7)
O8 O 0.3735(16) 0.6582(17) 0.6100(8)
C1 C 0.446(2) 1.0171(19) 0.7187(10)
C2 C 0.816(2) 0.4375(19) 0.4604(10)
C3 C 0.9416(18) 0.4535(19) 0.5089(10)
C4 C 0.491(2) 0.520(2) 0.7205(11)
C5 C 0.6531(18) 0.952(2) 0.7084(10)
C6 C 0.462(2) 0.9676(18) 0.4501(10)
C7 C 0.6452(18) 0.9629(18) 0.4410(8)
C8 C 0.3383(19) 0.5759(18) 0.6743(9)
O9 O 0.3497(15) 1.1341(14) 0.7736(7)
O10 O 0.8683(16) 0.3205(16) 0.4021(8)
O11 O 1.0902(13) 0.3544(13) 0.4903(7)
O12 O 0.4946(19) 0.4354(16) 0.7785(10)
O13 O 0.6988(14) 1.0389(17) 0.7551(8)
O14 O 0.3719(14) 1.0590(13) 0.4047(7)
O15 O 0.7044(15) 1.0420(15) 0.3885(8)
O16 O 0.2166(14) 0.5472(18) 0.6959(7)
Li1 Li 0.477(7) 1.205(8) 0.850(4)
Li2 Li 0.825(3) 0.185(3) 0.3220(17)
Li3 Li 1.148(3) 0.218(3) 0.3787(15)
Li4 Li 0.4692(19) 1.242(2) 0.3778(10)
O17 O 0.6234(15) 1.2629(15) 0.9218(8)
O18 O 0.2706(15) 1.3577(13) 0.9396(7)
O19 O 0.5029(18) 0.928(2) 0.9086(9)
O20 O 0.6023(14) 0.3417(13) 0.2923(7)
O21 O 0.2703(14) 1.3553(14) 0.3098(8)
O22 O 0.1087(15) 1.0680(15) 0.2953(8)
O23 O 0.8851(13) 1.0357(14) 0.2070(8)
C9 C 0.5115(17) 0.4316(17) 0.2490(9)
C10 C 0.1658(17) 0.9610(18) 0.2390(9)
O24 O 0.4266(8) 0.3468(9) 0.4886(4)
C11 C 0.3215(18) 0.4392(16) 0.2563(10)
O25 O 0.5527(11) 0.5237(13) 0.1945(6)
C12 C 0.0343(18) 0.9400(18) 0.1893(9)
O26 O 0.3175(14) 0.8538(13) 0.2141(7)
H1 H 0.4439 0.2728 0.5288
H2 H 0.3180 0.4201 0.5058
O27 O 0.2422(14) 0.5314(14) 0.2058(7)
Zr2 Zr 0.37781(5) 0.65760(5) 0.11165(3)
O28 O 0.0970(10) 0.8191(11) 0.1330(6)
O29 O 0.6033(16) 0.7298(17) 0.0887(8)
O30 O 0.3623(15) 0.8143(15) 0.0078(7)
O31 O 0.2407(13) 0.5556(14) 0.0415(7)
O32 O 0.5671(14) 0.4498(13) 0.0303(8)
C13 C 0.633(3) 0.802(2) 0.0234(13)
C14 C 0.495(3) 0.853(3) -0.0286(13)
C15 C 0.3356(18) 0.4207(16) -0.0198(8)
C16 C 0.525(2) 0.366(2) -0.0263(10)
O33 O 0.7722(16) 0.8338(19) -0.0009(10)
Li1_2 Li 0.477(7) 0.205(8) 0.850(4)
Li3_2 Li 0.148(3) 1.218(3) 0.3787(15)
Li2_2 Li 0.825(3) 1.185(3) 0.3220(17)
O12_2 O 0.4946(19) 1.4354(16) 0.7785(10)
O15_2 O 0.7044(15) 0.0420(15) 0.3885(8)
O10_2 O -0.1317(16) 1.3205(16) 0.4021(8)
O11_2 O 0.0902(13) 1.3544(13) 0.4903(7)
O20_2 O 0.6023(14) 1.3417(13) 0.2923(7)
O10_3 O 0.8683(16) 1.3205(16) 0.4021(8)
O22_2 O 1.1087(15) 1.0680(15) 0.2953(8)
Li4_2 Li 0.4692(19) 0.242(2) 0.3778(10)
Li2_3 Li -0.175(3) 1.185(3) 0.3220(17)
O14_2 O 0.3719(14) 0.0590(13) 0.4047(7)
O21_2 O 0.2703(14) 0.3553(14) 0.3098(8)
O23_2 O -0.1149(13) 1.0357(14) 0.2070(8)
Li3_3 Li 0.148(3) 0.218(3) 0.3787(15)
O19_2 O 0.5029(18) 0.928(2) -0.0914(9)
O18_2 O 0.2706(15) 0.3577(13) -0.0604(7)
O17_2 O 0.6234(15) 0.2629(15) -0.0782(8)
Li1_3 Li 0.477(7) 1.205(8) -0.150(4)
Li1_4 Li 0.477(7) 0.205(8) -0.150(4)
C17 C 0.005(2) 0.992(2) 0.5588(14)
H3 H 0.0820 1.0422 0.5292
H4 H -0.0106 1.0111 0.6188
H5 H -0.1048 1.0406 0.5432
C18 C 0.138(2) 0.755(3) 0.4454(11)
H6 H 0.0516 0.8171 0.4153
H7 H 0.1598 0.6377 0.4378
H8 H 0.2423 0.7747 0.4237
N1 N 0.0774(15) 0.8085(16) 0.5356(9)
H9 H 0.1663 0.7619 0.5610
H10 H -0.0036 0.7664 0.5574
C19 C -0.030(3) 0.308(3) 0.7313(17)
H11 H -0.0321 0.2883 0.6731
H12 H -0.1104 0.2681 0.7676
H13 H 0.0835 0.2489 0.7403
C20 C -0.104(3) 0.518(3) 0.8376(14)
H14 H -0.1155 0.6323 0.8452
H15 H -0.0085 0.4467 0.8597
H16 H -0.2078 0.5042 0.8673
N2 N -0.0756(18) 0.4733(17) 0.7494(7)
H17 H -0.1723 0.5291 0.7311
H18 H 0.0082 0.5062 0.7207
C21 C 0.835(2) 1.636(2) 1.2516(11)
H19 H 0.7703 1.7537 1.2618
H20 H 0.9340 1.6066 1.2765
H21 H 0.7642 1.5751 1.2764
C22 C 0.9640(19) 1.408(2) 1.1413(13)
H22 H 1.0060 1.3814 1.0813
H23 H 0.8753 1.3641 1.1615
H24 H 1.0569 1.3594 1.1698
N3 N 0.8926(18) 1.5921(18) 1.1587(9)
H25 H 0.8028 1.6376 1.1338
H26 H 0.9735 1.6343 1.1368
C23 C 0.014(2) 1.098(2) 0.9660(12)
H27 H 0.1104 1.1300 0.9425
H28 H -0.0166 1.1216 1.0264
H29 H -0.0821 1.1608 0.9419
C24 C 0.095(3) 0.864(3) 0.8542(12)
H30 H 0.1417 0.9372 0.8216
H31 H -0.0119 0.8735 0.8397
H32 H 0.1746 0.7505 0.8419
N4 N 0.063(2) 0.911(2) 0.9454(11)
H33 H 0.1586 0.8538 0.9644
H34 H -0.0222 0.8794 0.9735
loop_
_geom_bond_atom_site_label_1
_geom_bond_atom_site_label_2
_geom_bond_site_symmetry_1
_geom_bond_site_symmetry_2
Zr1 O1 1_555 1_555
O1 C1 1_555 1_555
O2 Zr1 1_555 1_555
O3 Zr1 1_555 1_555
O4 Zr1 1_555 1_555
O5 Zr1 1_555 1_555
O6 Zr1 1_555 1_555
O7 Zr1 1_555 1_555
O8 Zr1 1_555 1_555
C1 C5 1_555 1_555
C2 O2 1_555 1_555
C3 O3 1_555 1_555
C4 O4 1_555 1_555
C5 O5 1_555 1_555
C6 O6 1_555 1_555
C7 O7 1_555 1_555
C8 O8 1_555 1_555
O9 C1 1_555 1_555
O10 C2 1_555 1_555
O11 C3 1_555 1_555
O12 C4 1_555 1_555
O13 C5 1_555 1_555
O14 C6 1_555 1_555
O15 C7 1_555 1_555
O16 C8 1_555 1_555
Li1 O9 1_555 1_555
Li2 O10 1_555 1_555
Li3 O10 1_555 1_555
Li4 O14 1_555 1_555
O17 Li1 1_555 1_555
O18 Li1 1_555 1_555
O19 Li1 1_555 1_555
O20 Li2 1_555 1_555
O21 Li4 1_555 1_555
O22 C10 1_555 1_555
O23 Li2_2 1_555 1_555
C9 O20 1_555 1_555
C10 C12 1_555 1_555
O24 H1 1_555 1_555
C11 C9 1_555 1_555
O25 C9 1_555 1_555
C12 O28 1_555 1_555
O26 C10 1_555 1_555
H2 O24 1_555 1_555
O27 C11 1_555 1_555
Zr2 O25 1_555 1_555
O28 Zr2 1_555 1_555
O29 Zr2 1_555 1_555
O30 Zr2 1_555 1_555
O31 Zr2 1_555 1_555
O32 Zr2 1_555 1_555
C13 O29 1_555 1_555
C14 O30 1_555 1_555
C15 O31 1_555 1_555
C16 O32 1_555 1_555
O33 C13 1_555 1_555
C17 H3 1_555 1_555
H4 C17 1_555 1_555
H5 C17 1_555 1_555
C18 H6 1_555 1_555
H7 C18 1_555 1_555
H8 C18 1_555 1_555
N1 C17 1_555 1_555
H9 N1 1_555 1_555
H10 N1 1_555 1_555
C19 H11 1_555 1_555
H12 C19 1_555 1_555
H13 C19 1_555 1_555
C20 H14 1_555 1_555
H15 C20 1_555 1_555
H16 C20 1_555 1_555
N2 C19 1_555 1_555
H17 N2 1_555 1_555
H18 N2 1_555 1_555
C21 H19 1_555 1_555
H20 C21 1_555 1_555
H21 C21 1_555 1_555
C22 H22 1_555 1_555
H23 C22 1_555 1_555
H24 C22 1_555 1_555
N3 C21 1_555 1_555
H25 N3 1_555 1_555
H26 N3 1_555 1_555
C23 H27 1_555 1_555
H28 C23 1_555 1_555
H29 C23 1_555 1_555
C24 H30 1_555 1_555
H31 C24 1_555 1_555
H32 C24 1_555 1_555
N4 C23 1_555 1_555
H33 N4 1_555 1_555
H34 N4 1_555 1_555
Li1_2 O12 1_555 1_555
Li3_2 O14 1_555 1_555
Li2_2 O15 1_555 1_555
O12_2 Li1 1_555 1_555
O15_2 Li2 1_555 1_555
O10_2 Li3_2 1_555 1_555
O11_2 Li3_2 1_555 1_555
O20_2 Li4 1_555 1_555
O10_3 Li2_2 1_555 1_555
O22_2 Li2_2 1_555 1_555
Li4_2 O20 1_555 1_555
Li2_3 O22 1_555 1_555
O14_2 Li4_2 1_555 1_555
O21_2 C11 1_555 1_555
O23_2 C12 1_555 1_555
Li3_3 O14_2 1_555 1_555
O19_2 C14 1_555 1_555
O18_2 C15 1_555 1_555
O17_2 C16 1_555 1_555
Li1_3 O19_2 1_555 1_555
Li1_4 O18_2 1_555 1_555
C2 C3 1_555 1_555
C4 C8 1_555 1_555
C6 C7 1_555 1_555
O11 Li3 1_555 1_555
O13 Li1 1_555 1_555
O15 Li4 1_555 1_555
O21 Li3_2 1_555 1_555
O22 Li3_2 1_555 1_555
O24 Li4_2 1_555 1_555
O26 Zr2 1_555 1_555
O27 Zr2 1_555 1_555
C13 C14 1_555 1_555
C15 C16 1_555 1_555
C18 N1 1_555 1_555
C20 N2 1_555 1_555
C22 N3 1_555 1_555
C24 N4 1_555 1_555
Li2_2 O20_2 1_555 1_555
O15_2 Li4_2 1_555 1_555
O10_2 Li2_3 1_555 1_555
Li4_2 O21_2 1_555 1_555
Li2_3 O23_2 1_555 1_555
O21_2 Li3_3 1_555 1_555
O17_2 Li1_4 1_555 1_555

#END
