
#######################################################################
#
#                 Cambridge Crystallographic Data Centre
#                                CCDC 
#
#######################################################################
#
# If this CIF has been generated from an entry in the Cambridge 
# Structural Database, then it will include bibliographic, chemical, 
# crystal, experimental, refinement or atomic coordinate data resulting 
# from the CCDC's data processing and validation procedures.
#
#######################################################################

data_MAGVOG14
_chemical_formula_moiety         '(C8 H32 Ag4 N11 O9 1+)n'
_symmetry_cell_setting           monoclinic
_symmetry_space_group_name_H-M   'C 2/c'
_symmetry_Int_Tables_number      15
_space_group_name_Hall           '-C 2yc'
loop_
_symmetry_equiv_pos_site_id
_symmetry_equiv_pos_as_xyz
1 x,y,z
2 -x,y,1/2-z
3 1/2+x,1/2+y,z
4 1/2-x,1/2+y,1/2-z
5 -x,-y,-z
6 x,-y,1/2+z
7 1/2-x,1/2-y,-z
8 1/2+x,1/2-y,1/2+z
_cell_length_a                   20.183(8)
_cell_length_b                   19.607(7)
_cell_length_c                   5.9778(14)
_cell_angle_alpha                90
_cell_angle_beta                 113.92(3)
_cell_angle_gamma                90
_cell_volume                     2162.41
loop_
_atom_site_label
_atom_site_type_symbol
_atom_site_fract_x
_atom_site_fract_y
_atom_site_fract_z
Ag1 Ag 0.5000 0.0000 0.0000
Ag2 Ag 0.7500 0.2500 0.0000
Ag3 Ag 0.7500 0.2500 0.5000
Ag4 Ag 1.0000 0.0000 0.5000
N1 N 0.593(2) 0.0541(12) 0.141(5)
H1 H 0.5989 0.0732 0.2850
H2 H 0.6316 0.0272 0.1654
N2 N 0.6439(18) 0.2087(10) -0.130(4)
H3 H 0.6123 0.2391 -0.1172
H4 H 0.6287 0.1953 -0.2869
N3 N 0.8425(18) 0.1935(10) 0.608(4)
H5 H 0.8797 0.2204 0.6173
H6 H 0.8527 0.1758 0.7568
N4 N 0.8994(15) 0.0472(9) 0.372(3)
H7 H 0.8869 0.0624 0.2180
H8 H 0.8652 0.0179 0.3728
C1 C 0.5854(11) 0.1062(10) -0.041(3)
H9 H 0.5441 0.1349 -0.0623
H10 H 0.5762 0.0845 -0.1968
C2 C 0.6527(12) 0.1495(10) 0.034(3)
H11 H 0.6653 0.1660 0.1995
H12 H 0.6924 0.1215 0.0358
C3 C 0.8335(11) 0.1389(8) 0.434(3)
H13 H 0.8227 0.1566 0.2710
H14 H 0.7954 0.1076 0.4263
C4 C 0.9069(11) 0.1052(8) 0.541(3)
H15 H 0.9446 0.1364 0.5443
H16 H 0.9181 0.0891 0.7058
N1D N 0.407(2) -0.0541(12) -0.141(5)
H1D H 0.4011 -0.0732 -0.2850
H2D H 0.3684 -0.0272 -0.1654
N2D N 0.3561(18) -0.2087(10) 0.130(4)
H3D H 0.3877 -0.2391 0.1172
H4D H 0.3713 -0.1953 0.2869
C1D C 0.4146(11) -0.1062(10) 0.041(3)
H9D H 0.4559 -0.1349 0.0623
H10D H 0.4238 -0.0845 0.1968
C2D C 0.3473(12) -0.1495(10) -0.034(3)
H11D H 0.3347 -0.1660 -0.1995
H12D H 0.3076 -0.1215 -0.0358
N3F N 0.6575(18) 0.3065(10) 0.392(4)
H5F H 0.6203 0.2796 0.3827
H6F H 0.6473 0.3242 0.2432
N4F N 0.6006(15) 0.4528(9) 0.628(3)
H7F H 0.6131 0.4376 0.7820
H8F H 0.6348 0.4821 0.6272
C3F C 0.6665(11) 0.3611(8) 0.566(3)
H13F H 0.6773 0.3434 0.7290
H14F H 0.7046 0.3924 0.5737
C4F C 0.5931(11) 0.3948(8) 0.459(3)
H15F H 0.5554 0.3636 0.4557
H16F H 0.5819 0.4109 0.2942
Ag1A Ag 0.5000 -0.0000 -0.5000
Ag1A_2 Ag 0.5000 0.0000 0.5000
Ag2_2 Ag 0.7500 0.2500 1.0000
Ag2B Ag 0.2500 -0.2500 0.0000
Ag3_2 Ag 0.7500 0.2500 -0.5000
Ag4A Ag 1.0000 0.0000 0.0000
Ag4A_2 Ag 1.0000 0.0000 1.0000
Ag4B Ag 0.5000 0.5000 0.5000
N2F N 0.8561(18) 0.2913(10) 0.130(4)
N4D N 1.1006(15) -0.0472(9) 0.628(3)
N5 N 0.7585(11) 0.0761(7) 0.747(3)
O1 O 0.8007(12) 0.1144(11) 0.893(3)
O2 O 0.7041(12) 0.0982(10) 0.590(3)
O3 O 0.7671(17) 0.0155(8) 0.776(4)
N6 N 0.0000 0.3084(3) 0.7500
O4 O 0.0522(12) 0.3423(10) 0.9137(5)
O5 O 0.0000 0.2487(3) 0.7500
O4A O -0.0522(12) 0.3423(10) 0.5863(5)
N7 N -0.0000 0.8293(3) 0.7500
O6 O 0.0463(9) 0.8621(11) 0.9074(6)
O7 O 0.0000 0.7659(3) 0.7500
O6A O -0.0463(9) 0.8621(11) 0.5926(6)
loop_
_geom_bond_atom_site_label_1
_geom_bond_atom_site_label_2
_geom_bond_site_symmetry_1
_geom_bond_site_symmetry_2
Ag1 N1 1_555 1_555
Ag2 Ag3 1_555 1_555
Ag3 N3 1_555 1_555
Ag4 N4 1_555 1_555
N1 H1 1_555 1_555
H2 N1 1_555 1_555
N2 Ag2 1_555 1_555
H3 N2 1_555 1_555
H4 N2 1_555 1_555
N3 H5 1_555 1_555
H6 N3 1_555 1_555
N4 H7 1_555 1_555
H8 N4 1_555 1_555
C1 N1 1_555 1_555
H9 C1 1_555 1_555
H10 C1 1_555 1_555
C2 N2 1_555 1_555
H11 C2 1_555 1_555
H12 C2 1_555 1_555
C3 N3 1_555 1_555
H13 C3 1_555 1_555
H14 C3 1_555 1_555
C4 N4 1_555 1_555
H15 C4 1_555 1_555
H16 C4 1_555 1_555
N5 O1 1_555 1_555
O2 N5 1_555 1_555
O3 N5 1_555 1_555
N6 O4 1_555 1_555
O5 N6 1_555 1_555
N7 O6 1_555 1_555
O7 N7 1_555 1_555
N1D Ag1 1_555 1_555
H1D N1D 1_555 1_555
H2D N1D 1_555 1_555
N2D H3D 1_555 1_555
H4D N2D 1_555 1_555
C1D N1D 1_555 1_555
H9D C1D 1_555 1_555
H10D C1D 1_555 1_555
C2D N2D 1_555 1_555
H11D C2D 1_555 1_555
H12D C2D 1_555 1_555
N3F Ag3 1_555 1_555
H5F N3F 1_555 1_555
H6F N3F 1_555 1_555
N4F H7F 1_555 1_555
H8F N4F 1_555 1_555
C3F N3F 1_555 1_555
H13F C3F 1_555 1_555
H14F C3F 1_555 1_555
C4F N4F 1_555 1_555
H15F C4F 1_555 1_555
H16F C4F 1_555 1_555
Ag1A Ag1 1_555 1_555
Ag1A_2 Ag1 1_555 1_555
Ag2_2 Ag3 1_555 1_555
Ag2B N2D 1_555 1_555
Ag3_2 Ag2 1_555 1_555
Ag4A Ag4 1_555 1_555
Ag4A_2 Ag4 1_555 1_555
Ag4B N4F 1_555 1_555
N2F Ag2 1_555 1_555
N4D Ag4 1_555 1_555
O4A N6 1_555 1_555
O6A N7 1_555 1_555
C1 C2 1_555 1_555
C3 C4 1_555 1_555
C1D C2D 1_555 1_555
C3F C4F 1_555 1_555

#END
