
#######################################################################
#
#                 Cambridge Crystallographic Data Centre
#                                CCDC 
#
#######################################################################
#
# If this CIF has been generated from an entry in the Cambridge 
# Structural Database, then it will include bibliographic, chemical, 
# crystal, experimental, refinement or atomic coordinate data resulting 
# from the CCDC's data processing and validation procedures.
#
#######################################################################

data_MAGVOG29
_chemical_formula_moiety         '(C2 H8 Ag1 N3 O3)n'
_symmetry_cell_setting           monoclinic
_symmetry_space_group_name_H-M   'C 2/c'
_symmetry_Int_Tables_number      15
_space_group_name_Hall           '-C 2yc'
loop_
_symmetry_equiv_pos_site_id
_symmetry_equiv_pos_as_xyz
1 x,y,z
2 -x,y,1/2-z
3 1/2+x,1/2+y,z
4 1/2-x,1/2+y,1/2-z
5 -x,-y,-z
6 x,-y,1/2+z
7 1/2-x,1/2-y,-z
8 1/2+x,1/2-y,1/2+z
_cell_length_a                   10.3159(3)
_cell_length_b                   10.5935(2)
_cell_length_c                   6.2495(2)
_cell_angle_alpha                90
_cell_angle_beta                 114.772(4)
_cell_angle_gamma                90
_cell_volume                     620.111
loop_
_atom_site_label
_atom_site_type_symbol
_atom_site_fract_x
_atom_site_fract_y
_atom_site_fract_z
Ag1 Ag 0.5000 0.0000 0.5000
C1 C 0.3174(2) 0.2109(2) 0.5459(5)
H1 H 0.3992 0.2657 0.5722
H2 H 0.3316 0.1736 0.6976
N1 N 0.3115(2) 0.1096(2) 0.3810(4)
H3 H 0.2961 0.1445 0.2393
H4 H 0.2363 0.0582 0.3588
C1F C 0.1826(2) 0.2891(2) 0.4541(5)
H1F H 0.1008 0.2343 0.4278
H2F H 0.1684 0.3264 0.3024
N1F N 0.1885(2) 0.3904(2) 0.6190(4)
H3F H 0.2039 0.3555 0.7607
H4F H 0.2637 0.4418 0.6412
Ag1A Ag 0.5000 0.0000 0.0000
Ag1A_2 Ag 0.5000 0.0000 1.0000
Ag1B Ag -0.0000 0.5000 0.5000
N1D N 0.6885(2) -0.1096(2) 0.6190(4)
N2 N -0.0000 0.1070(4) 0.7500
O1 O 0.1124(3) 0.1646(4) 0.8597(5)
O2 O -0.0000 -0.0084(5) 0.7500
O1A O -0.1124(3) 0.1646(4) 0.6403(5)
loop_
_geom_bond_atom_site_label_1
_geom_bond_atom_site_label_2
_geom_bond_site_symmetry_1
_geom_bond_site_symmetry_2
Ag1 N1 1_555 1_555
C1 H1 1_555 1_555
H2 C1 1_555 1_555
N1 C1 1_555 1_555
H3 N1 1_555 1_555
H4 N1 1_555 1_555
N2 O1 1_555 1_555
O2 N2 1_555 1_555
C1F C1 1_555 1_555
H1F C1F 1_555 1_555
H2F C1F 1_555 1_555
N1F C1F 1_555 1_555
H3F N1F 1_555 1_555
H4F N1F 1_555 1_555
Ag1A Ag1 1_555 1_555
Ag1A_2 Ag1 1_555 1_555
Ag1B N1F 1_555 1_555
N1D Ag1 1_555 1_555
O1A N2 1_555 1_555

#END
