
#######################################################################
#
#                 Cambridge Crystallographic Data Centre
#                                CCDC 
#
#######################################################################
#
# If this CIF has been generated from an entry in the Cambridge 
# Structural Database, then it will include bibliographic, chemical, 
# crystal, experimental, refinement or atomic coordinate data resulting 
# from the CCDC's data processing and validation procedures.
#
#######################################################################

data_MAGVOG15
_chemical_formula_moiety         '(C8 H32 Ag4 N11 O9 1+)n'
_symmetry_cell_setting           monoclinic
_symmetry_space_group_name_H-M   'C 2/c'
_symmetry_Int_Tables_number      15
_space_group_name_Hall           '-C 2yc'
loop_
_symmetry_equiv_pos_site_id
_symmetry_equiv_pos_as_xyz
1 x,y,z
2 -x,y,1/2-z
3 1/2+x,1/2+y,z
4 1/2-x,1/2+y,1/2-z
5 -x,-y,-z
6 x,-y,1/2+z
7 1/2-x,1/2-y,-z
8 1/2+x,1/2-y,1/2+z
_cell_length_a                   20.117(10)
_cell_length_b                   19.565(10)
_cell_length_c                   5.961(3)
_cell_angle_alpha                90
_cell_angle_beta                 114.04(5)
_cell_angle_gamma                90
_cell_volume                     2142.68
loop_
_atom_site_label
_atom_site_type_symbol
_atom_site_fract_x
_atom_site_fract_y
_atom_site_fract_z
Ag1 Ag 0.5000 0.0000 0.0000
Ag2 Ag 0.7500 0.2500 0.0000
Ag3 Ag 0.7500 0.2500 0.5000
Ag4 Ag 1.0000 0.0000 0.5000
N1 N 0.5816(18) 0.0524(13) 0.117(5)
H1 H 0.5859 0.0724 0.2580
H2 H 0.6209 0.0257 0.1492
N2 N 0.6449(19) 0.2036(12) -0.136(5)
H3 H 0.6113 0.2342 -0.1381
H4 H 0.6327 0.1884 -0.2906
N3 N 0.8368(18) 0.1932(10) 0.605(5)
H5 H 0.8756 0.2195 0.6248
H6 H 0.8447 0.1738 0.7502
N4 N 0.8962(17) 0.0469(10) 0.374(4)
H7 H 0.8817 0.0601 0.2161
H8 H 0.8631 0.0175 0.3836
C1 C 0.5789(11) 0.1046(10) -0.060(3)
H9 H 0.5382 0.1349 -0.0875
H10 H 0.5713 0.0831 -0.2152
C2 C 0.6483(12) 0.1457(10) 0.029(3)
H11 H 0.6582 0.1634 0.1915
H12 H 0.6883 0.1159 0.0423
C3 C 0.8294(11) 0.1399(11) 0.425(3)
H13 H 0.8191 0.1591 0.2642
H14 H 0.7916 0.1075 0.4126
C4 C 0.9038(10) 0.1074(9) 0.535(3)
H15 H 0.9407 0.1386 0.5304
H16 H 0.9162 0.0935 0.7033
N1D N 0.4184(18) -0.0524(13) -0.117(5)
H1D H 0.4141 -0.0724 -0.2580
H2D H 0.3791 -0.0257 -0.1492
N2D N 0.3551(19) -0.2036(12) 0.136(5)
H3D H 0.3887 -0.2342 0.1381
H4D H 0.3673 -0.1884 0.2906
C1D C 0.4211(11) -0.1046(10) 0.060(3)
H9D H 0.4618 -0.1349 0.0875
H10D H 0.4287 -0.0831 0.2152
C2D C 0.3517(12) -0.1457(10) -0.029(3)
H11D H 0.3418 -0.1634 -0.1915
H12D H 0.3117 -0.1159 -0.0423
N3F N 0.6632(18) 0.3068(10) 0.395(5)
H5F H 0.6244 0.2805 0.3752
H6F H 0.6553 0.3262 0.2498
N4F N 0.6038(17) 0.4531(10) 0.626(4)
H7F H 0.6183 0.4399 0.7839
H8F H 0.6369 0.4825 0.6164
C3F C 0.6706(11) 0.3601(11) 0.575(3)
H13F H 0.6809 0.3409 0.7358
H14F H 0.7084 0.3925 0.5874
C4F C 0.5962(10) 0.3926(9) 0.465(3)
H15F H 0.5593 0.3614 0.4696
H16F H 0.5838 0.4065 0.2967
Ag1A Ag 0.5000 0.0000 -0.5000
Ag1A_2 Ag 0.5000 0.0000 0.5000
Ag2_2 Ag 0.7500 0.2500 1.0000
Ag2B Ag 0.2500 -0.2500 0.0000
Ag3_2 Ag 0.7500 0.2500 -0.5000
Ag4A Ag 1.0000 0.0000 0.0000
Ag4A_2 Ag 1.0000 0.0000 1.0000
Ag4B Ag 0.5000 0.5000 0.5000
N2F N 0.8551(19) 0.2964(12) 0.136(5)
N4D N 1.1038(17) -0.0469(10) 0.626(4)
N5 N 0.7633(14) 0.0777(11) 0.760(3)
O1 O 0.8103(16) 0.1131(15) 0.904(3)
O2 O 0.7136(16) 0.1033(16) 0.592(4)
O3 O 0.768(2) 0.0165(11) 0.781(4)
N6 N 0.0000 0.3081(3) 0.7500
O4 O 0.0522(11) 0.3423(13) 0.9137(5)
O5 O 0.0000 0.2483(3) 0.7500
O4A O -0.0522(11) 0.3423(13) 0.5863(5)
N7 N -0.0000 0.8288(17) 0.7500
O6 O 0.0441(13) 0.8616(16) 0.916(3)
O7 O 0.0000 0.7652(17) 0.7500
O6A O -0.0441(13) 0.8616(16) 0.584(3)
loop_
_geom_bond_atom_site_label_1
_geom_bond_atom_site_label_2
_geom_bond_site_symmetry_1
_geom_bond_site_symmetry_2
Ag1 N1 1_555 1_555
Ag2 Ag3 1_555 1_555
Ag3 N3 1_555 1_555
Ag4 N4 1_555 1_555
N1 H1 1_555 1_555
H2 N1 1_555 1_555
N2 Ag2 1_555 1_555
H3 N2 1_555 1_555
H4 N2 1_555 1_555
N3 H5 1_555 1_555
H6 N3 1_555 1_555
N4 H7 1_555 1_555
H8 N4 1_555 1_555
C1 N1 1_555 1_555
H9 C1 1_555 1_555
H10 C1 1_555 1_555
C2 N2 1_555 1_555
H11 C2 1_555 1_555
H12 C2 1_555 1_555
C3 N3 1_555 1_555
H13 C3 1_555 1_555
H14 C3 1_555 1_555
C4 N4 1_555 1_555
H15 C4 1_555 1_555
H16 C4 1_555 1_555
N5 O1 1_555 1_555
O2 N5 1_555 1_555
O3 N5 1_555 1_555
N6 O4 1_555 1_555
O5 N6 1_555 1_555
N7 O6 1_555 1_555
O7 N7 1_555 1_555
N1D Ag1 1_555 1_555
H1D N1D 1_555 1_555
H2D N1D 1_555 1_555
N2D H3D 1_555 1_555
H4D N2D 1_555 1_555
C1D N1D 1_555 1_555
H9D C1D 1_555 1_555
H10D C1D 1_555 1_555
C2D N2D 1_555 1_555
H11D C2D 1_555 1_555
H12D C2D 1_555 1_555
N3F Ag3 1_555 1_555
H5F N3F 1_555 1_555
H6F N3F 1_555 1_555
N4F H7F 1_555 1_555
H8F N4F 1_555 1_555
C3F N3F 1_555 1_555
H13F C3F 1_555 1_555
H14F C3F 1_555 1_555
C4F N4F 1_555 1_555
H15F C4F 1_555 1_555
H16F C4F 1_555 1_555
Ag1A Ag1 1_555 1_555
Ag1A_2 Ag1 1_555 1_555
Ag2_2 Ag3 1_555 1_555
Ag2B N2D 1_555 1_555
Ag3_2 Ag2 1_555 1_555
Ag4A Ag4 1_555 1_555
Ag4A_2 Ag4 1_555 1_555
Ag4B N4F 1_555 1_555
N2F Ag2 1_555 1_555
N4D Ag4 1_555 1_555
O4A N6 1_555 1_555
O6A N7 1_555 1_555
C1 C2 1_555 1_555
C3 C4 1_555 1_555
C1D C2D 1_555 1_555
C3F C4F 1_555 1_555

#END
