
#######################################################################
#
#                 Cambridge Crystallographic Data Centre
#                                CCDC 
#
#######################################################################
#
# If this CIF has been generated from an entry in the Cambridge 
# Structural Database, then it will include bibliographic, chemical, 
# crystal, experimental, refinement or atomic coordinate data resulting 
# from the CCDC's data processing and validation procedures.
#
#######################################################################

data_MAGVOG21
_chemical_formula_moiety         '(C2 H8 Ag1 N3 O3)n'
_symmetry_cell_setting           monoclinic
_symmetry_space_group_name_H-M   'C 2/c'
_symmetry_Int_Tables_number      15
_space_group_name_Hall           '-C 2yc'
loop_
_symmetry_equiv_pos_site_id
_symmetry_equiv_pos_as_xyz
1 x,y,z
2 -x,y,1/2-z
3 1/2+x,1/2+y,z
4 1/2-x,1/2+y,1/2-z
5 -x,-y,-z
6 x,-y,1/2+z
7 1/2-x,1/2-y,-z
8 1/2+x,1/2-y,1/2+z
_cell_length_a                   10.508(5)
_cell_length_b                   10.464(3)
_cell_length_c                   6.336(3)
_cell_angle_alpha                90
_cell_angle_beta                 115.49(6)
_cell_angle_gamma                90
_cell_volume                     628.865
loop_
_atom_site_label
_atom_site_type_symbol
_atom_site_fract_x
_atom_site_fract_y
_atom_site_fract_z
Ag1 Ag 0.5000 0.0000 0.5000
C1 C 0.3151(5) 0.2097(4) 0.5461(7)
H1 H 0.3964 0.2646 0.5839
H2 H 0.3246 0.1688 0.6896
N1 N 0.3150(4) 0.1116(4) 0.3825(6)
H3 H 0.3021 0.1496 0.2474
H4 H 0.2411 0.0593 0.3519
C1F C 0.1849(5) 0.2903(4) 0.4539(7)
H1F H 0.1036 0.2354 0.4161
H2F H 0.1754 0.3312 0.3104
N1F N 0.1850(4) 0.3884(4) 0.6175(6)
H3F H 0.1979 0.3504 0.7526
H4F H 0.2589 0.4407 0.6481
Ag1A Ag 0.5000 0.0000 0.0000
Ag1A_2 Ag 0.5000 0.0000 1.0000
Ag1B Ag 0.0000 0.5000 0.5000
N1D N 0.6850(4) -0.1116(4) 0.6175(6)
N2 N 0.0000 0.1096(7) 0.7500
O1 O 0.1092(6) 0.1635(7) 0.8592(8)
O2 O 0.0000 -0.0057(7) 0.7500
O1A O -0.1092(6) 0.1635(7) 0.6408(8)
loop_
_geom_bond_atom_site_label_1
_geom_bond_atom_site_label_2
_geom_bond_site_symmetry_1
_geom_bond_site_symmetry_2
Ag1 N1 1_555 1_555
C1 H1 1_555 1_555
H2 C1 1_555 1_555
N1 C1 1_555 1_555
H3 N1 1_555 1_555
H4 N1 1_555 1_555
N2 O1 1_555 1_555
O2 N2 1_555 1_555
C1F C1 1_555 1_555
H1F C1F 1_555 1_555
H2F C1F 1_555 1_555
N1F C1F 1_555 1_555
H3F N1F 1_555 1_555
H4F N1F 1_555 1_555
Ag1A Ag1 1_555 1_555
Ag1A_2 Ag1 1_555 1_555
Ag1B N1F 1_555 1_555
N1D Ag1 1_555 1_555
O1A N2 1_555 1_555

#END
