
#######################################################################
#
#                 Cambridge Crystallographic Data Centre
#                                CCDC 
#
#######################################################################
#
# If this CIF has been generated from an entry in the Cambridge 
# Structural Database, then it will include bibliographic, chemical, 
# crystal, experimental, refinement or atomic coordinate data resulting 
# from the CCDC's data processing and validation procedures.
#
#######################################################################

data_IZUVUV
_chemical_formula_moiety         '(C54 H39 Cl6 N15 O6 Zn3)n'
_symmetry_cell_setting           orthorhombic
_symmetry_space_group_name_H-M   'F d d 2'
_symmetry_Int_Tables_number      43
_space_group_name_Hall           'F 2 -2d'
loop_
_symmetry_equiv_pos_site_id
_symmetry_equiv_pos_as_xyz
1 x,y,z
2 -x,-y,z
3 1/4+x,1/4-y,1/4+z
4 1/4-x,1/4+y,1/4+z
5 x,1/2+y,1/2+z
6 -x,1/2-y,1/2+z
7 1/4+x,3/4-y,3/4+z
8 1/4-x,3/4+y,3/4+z
9 1/2+x,y,1/2+z
10 1/2-x,-y,1/2+z
11 3/4+x,1/4-y,3/4+z
12 3/4-x,1/4+y,3/4+z
13 1/2+x,1/2+y,z
14 1/2-x,1/2-y,z
15 3/4+x,3/4-y,1/4+z
16 3/4-x,3/4+y,1/4+z
_cell_length_a                   49.62000(10)
_cell_length_b                   50.5890(6)
_cell_length_c                   6.0590(6)
_cell_angle_alpha                90
_cell_angle_beta                 90
_cell_angle_gamma                90
_cell_volume                     15209.5
loop_
_atom_site_label
_atom_site_type_symbol
_atom_site_fract_x
_atom_site_fract_y
_atom_site_fract_z
_atom_site_U_iso_or_equiv
_atom_site_thermal_displace_type
Zn1 Zn 0.7500 0.2500 -0.6211(3) 0.0703 Uani
Zn2 Zn 0.874690(16) 0.13747(2) 1.14012(19) 0.0687 Uani
Cl1 Cl 0.86018(4) 0.10593(5) 1.3647(4) 0.0729 Uani
Cl2 Cl 0.88733(4) 0.17672(5) 1.2770(4) 0.0755 Uani
Cl3 Cl 0.71049(5) 0.24256(5) -0.7795(5) 0.0787 Uani
C1 C 0.84712(15) 0.15829(19) 0.7380(18) 0.0700 Uani
H1 H 0.8635 0.1676 0.7169 0.0840 Uiso
C2 C 0.82630(14) 0.16249(18) 0.5861(17) 0.0683 Uani
H2 H 0.8284 0.1741 0.4639 0.0820 Uiso
C3 C 0.80230(15) 0.14876(19) 0.6233(16) 0.0660 Uani
C4 C 0.80019(15) 0.1316(2) 0.7903(17) 0.0703 Uani
H3 H 0.7840 0.1218 0.8115 0.0840 Uiso
C5 C 0.82212(14) 0.12812(19) 0.9342(19) 0.0727 Uani
H4 H 0.8207 0.1157 1.0514 0.0870 Uiso
C6 C 0.77797(15) 0.15456(19) 0.4765(17) 0.0657 Uani
C7 C 0.75664(14) 0.17305(18) 0.1900(16) 0.0637 Uani
C8 C 0.73272(14) 0.15062(19) 0.4410(17) 0.0653 Uani
C9 C 0.75685(16) 0.18899(18) -0.0082(18) 0.0670 Uani
C10 C 0.78021(15) 0.20074(18) -0.0946(17) 0.0697 Uani
H5 H 0.7972 0.1977 -0.0275 0.0830 Uiso
C11 C 0.77814(16) 0.21648(18) -0.2754(17) 0.0690 Uani
H6 H 0.7940 0.2250 -0.3276 0.0830 Uiso
C12 C 0.73255(17) 0.2086(2) -0.3064(18) 0.0747 Uani
H7 H 0.7161 0.2112 -0.3839 0.0900 Uiso
C13 C 0.73233(15) 0.19358(19) -0.1295(18) 0.0697 Uani
H8 H 0.7160 0.1857 -0.0815 0.0840 Uiso
C14 C 0.70642(15) 0.14087(18) 0.5427(17) 0.0633 Uani
C15 C 0.68224(15) 0.1466(2) 0.4308(18) 0.0713 Uani
H9 H 0.6818 0.1559 0.2946 0.0860 Uiso
C16 C 0.65828(16) 0.13728(19) 0.539(2) 0.0727 Uani
H10 H 0.6414 0.1405 0.4703 0.0870 Uiso
C17 C 0.68232(15) 0.11964(19) 0.8281(18) 0.0713 Uani
H11 H 0.6824 0.1102 0.9635 0.0860 Uiso
C18 C 0.70670(16) 0.1280(2) 0.738(2) 0.0767 Uani
H12 H 0.7232 0.1247 0.8127 0.0920 Uiso
N1 N 0.75476(13) 0.14377(15) 0.5590(14) 0.0673 Uani
N2 N 0.78016(13) 0.16889(16) 0.2993(13) 0.0647 Uani
N3 N 0.73233(13) 0.16394(16) 0.2580(14) 0.0673 Uani
N4 N 0.75514(13) 0.22069(14) -0.3841(14) 0.0647 Uani
N5 N 0.84535(12) 0.14210(14) 0.9095(14) 0.0663 Uani
N6 N 0.65833(13) 0.12472(16) 0.7264(14) 0.0683 Uani
Zn2M Zn 0.625310(16) 0.36253(2) 1.14012(19) 0.0687 Uani
Zn2J Zn 0.624690(16) 0.11253(2) 0.89012(19) 0.0687 Uani
Zn2K Zn 0.875310(16) 0.38747(2) 0.89012(19) 0.0687 Uani
Cl1M Cl 0.63982(4) 0.39407(5) 1.3647(4) 0.0729 Uani
Cl2M Cl 0.61267(4) 0.32328(5) 1.2770(4) 0.0755 Uani
Cl3M Cl 0.78951(5) 0.25744(5) -0.7795(5) 0.0787 Uani
C1M C 0.65288(15) 0.34171(19) 0.7380(18) 0.0700 Uani
H1M H 0.6365 0.3324 0.7169 0.0840 Uiso
C2M C 0.67370(14) 0.33751(18) 0.5861(17) 0.0683 Uani
H2M H 0.6716 0.3259 0.4639 0.0820 Uiso
C3M C 0.69770(15) 0.35124(19) 0.6233(16) 0.0660 Uani
C4M C 0.69981(15) 0.3684(2) 0.7903(17) 0.0703 Uani
H3M H 0.7160 0.3782 0.8115 0.0840 Uiso
C5M C 0.67788(14) 0.37188(19) 0.9342(19) 0.0727 Uani
H4M H 0.6793 0.3843 1.0514 0.0870 Uiso
C6M C 0.72203(15) 0.34544(19) 0.4765(17) 0.0657 Uani
C7M C 0.74336(14) 0.32695(18) 0.1900(16) 0.0637 Uani
C8M C 0.76728(14) 0.34938(19) 0.4410(17) 0.0653 Uani
C9M C 0.74315(16) 0.31101(18) -0.0082(18) 0.0670 Uani
C10M C 0.71979(15) 0.29926(18) -0.0946(17) 0.0697 Uani
H5M H 0.7028 0.3023 -0.0275 0.0830 Uiso
C11M C 0.72186(16) 0.28352(18) -0.2754(17) 0.0690 Uani
H6M H 0.7060 0.2750 -0.3276 0.0830 Uiso
C12M C 0.76745(17) 0.2914(2) -0.3064(18) 0.0747 Uani
H7M H 0.7839 0.2888 -0.3839 0.0900 Uiso
C13M C 0.76767(15) 0.30642(19) -0.1295(18) 0.0697 Uani
H8M H 0.7840 0.3143 -0.0815 0.0840 Uiso
C14M C 0.79358(15) 0.35913(18) 0.5427(17) 0.0633 Uani
C15M C 0.81776(15) 0.3534(2) 0.4308(18) 0.0713 Uani
H9M H 0.8182 0.3441 0.2946 0.0860 Uiso
C16M C 0.84172(16) 0.36272(19) 0.539(2) 0.0727 Uani
H10M H 0.8586 0.3595 0.4703 0.0870 Uiso
C17M C 0.81768(15) 0.38036(19) 0.8281(18) 0.0713 Uani
H11M H 0.8176 0.3898 0.9635 0.0860 Uiso
C18M C 0.79330(16) 0.3720(2) 0.738(2) 0.0767 Uani
H12M H 0.7768 0.3753 0.8127 0.0920 Uiso
N1M N 0.74524(13) 0.35623(15) 0.5590(14) 0.0673 Uani
N2M N 0.71984(13) 0.33111(16) 0.2993(13) 0.0647 Uani
N3M N 0.76767(13) 0.33606(16) 0.2580(14) 0.0673 Uani
N4M N 0.74486(13) 0.27931(14) -0.3841(14) 0.0647 Uani
N5M N 0.65465(12) 0.35790(14) 0.9095(14) 0.0663 Uani
N6M N 0.84167(13) 0.37528(16) 0.7264(14) 0.0683 Uani
N6B N 0.90833(13) 0.12528(16) 0.9764(14) 0.0683 Uani
N6C N 0.59167(13) 0.37472(16) 0.9764(14) 0.0683 Uani
C19 C 0.39656(17) 0.02504(18) 0.6639(17) 0.0730 Uani
C20 C 0.40649(19) 0.0220(2) 0.451(2) 0.0877 Uani
H13 H 0.4177 0.0352 0.3880 0.1050 Uiso
C21 C 0.4001(2) 0.0000(2) 0.336(2) 0.0923 Uani
H14 H 0.4072 -0.0022 0.1913 0.1110 Uiso
C22 C 0.3831(2) -0.0197(2) 0.422(2) 0.0970 Uani
H15 H 0.3788 -0.0350 0.3386 0.1160 Uiso
C23 C 0.3729(2) -0.0161(2) 0.633(2) 0.0967 Uani
H16 H 0.3612 -0.0291 0.6940 0.1160 Uiso
C24 C 0.37958(19) 0.0065(2) 0.758(2) 0.0843 Uani
H17 H 0.3726 0.0089 0.9028 0.1010 Uiso
N7 N 0.40419(17) 0.04842(18) 0.7862(18) 0.0837 Uani
O1 O 0.41800(13) 0.06549(16) 0.6963(16) 0.0997 Uani
O2 O 0.39728(17) 0.05026(15) 0.9781(18) 0.1033 Uani
C25 C 0.73934(17) 0.07798(19) 0.4143(18) 0.0720 Uani
C26 C 0.6953(2) 0.0614(2) 0.473(2) 0.0987 Uani
H18 H 0.6772 0.0589 0.4263 0.1180 Uiso
C27 C 0.7033(2) 0.0519(3) 0.669(2) 0.1023 Uani
H19 H 0.6906 0.0429 0.7595 0.1230 Uiso
C28 C 0.7296(2) 0.0547(2) 0.743(2) 0.0910 Uani
H20 H 0.7349 0.0476 0.8817 0.1090 Uiso
C29 C 0.74790(18) 0.0677(2) 0.6162(19) 0.0780 Uani
H21 H 0.7660 0.0697 0.6637 0.0930 Uiso
C30 C 0.71358(19) 0.0752(2) 0.335(2) 0.0883 Uani
H22 H 0.7083 0.0820 0.1957 0.1060 Uiso
N8 N 0.75859(17) 0.09257(18) 0.2782(17) 0.0813 Uani
O3 O 0.78203(12) 0.09471(15) 0.3484(14) 0.0893 Uani
O4 O 0.75091(15) 0.10309(17) 0.1118(17) 0.1010 Uani
C31 C 0.8087(4) 0.0177(4) 0.826(3) 0.0860 Uiso
C32 C 0.8315(4) 0.0337(4) 0.814(3) 0.0860 Uiso
H23 H 0.8443 0.0309 0.6997 0.1040 Uiso
C33 C 0.8356(3) 0.0531(4) 0.962(2) 0.0650 Uiso
H24 H 0.8491 0.0662 0.9381 0.0770 Uiso
C34 C 0.8196(5) 0.0536(6) 1.154(4) 0.0970 Uiso
H25 H 0.8238 0.0655 1.2700 0.1170 Uiso
C35 C 0.7978(3) 0.0369(3) 1.175(3) 0.0830 Uiso
H26 H 0.7867 0.0379 1.3021 0.1000 Uiso
C36 C 0.7918(3) 0.0183(4) 1.009(3) 0.0770 Uiso
H27 H 0.7769 0.0067 1.0211 0.0920 Uiso
N9 N 0.8050(3) -0.0018(3) 0.653(3) 0.1040 Uiso
O5 O 0.7832(4) -0.0128(4) 0.647(4) 0.1220 Uiso
O6 O 0.8229(3) -0.0073(3) 0.528(3) 0.1240 Uiso
loop_
_atom_site_aniso_label
_atom_site_aniso_U_11
_atom_site_aniso_U_22
_atom_site_aniso_U_33
_atom_site_aniso_U_23
_atom_site_aniso_U_13
_atom_site_aniso_U_12
Zn1 0.0533(8) 0.0731(10) 0.0844(10) 0.000 0.000 0.0008(6)
Zn2 0.0368(5) 0.0787(8) 0.0905(7) -0.0014(6) -0.0021(4) 0.0019(4)
Cl1 0.0480(11) 0.0795(16) 0.0912(15) 0.0029(13) -0.0061(11) -0.0023(9)
Cl2 0.0494(11) 0.0792(17) 0.0980(17) -0.0044(13) 0.0029(10) -0.0004(10)
Cl3 0.0594(13) 0.0816(17) 0.0952(17) 0.0013(13) -0.0052(11) 0.0005(11)
C1 0.041(4) 0.078(6) 0.091(6) 0.006(5) 0.000(4) 0.000(4)
C2 0.038(4) 0.072(6) 0.095(6) -0.004(5) 0.005(4) -0.004(4)
C3 0.036(4) 0.084(7) 0.078(6) 0.000(6) -0.002(4) 0.004(4)
C4 0.038(4) 0.079(7) 0.094(7) 0.008(5) -0.004(4) -0.006(4)
C5 0.039(4) 0.073(6) 0.106(7) 0.003(5) -0.003(4) -0.001(4)
C6 0.030(4) 0.083(7) 0.084(6) -0.004(5) -0.003(4) 0.005(4)
C7 0.035(4) 0.068(6) 0.088(7) 0.001(5) -0.001(4) 0.003(4)
C8 0.024(4) 0.081(6) 0.091(7) -0.004(5) -0.001(4) 0.003(3)
C9 0.045(4) 0.056(5) 0.100(7) 0.000(5) -0.004(4) 0.003(4)
C10 0.039(4) 0.081(6) 0.089(6) 0.003(6) -0.004(4) -0.004(4)
C11 0.044(4) 0.068(6) 0.095(7) -0.002(5) 0.004(4) 0.000(4)
C12 0.051(5) 0.080(7) 0.093(7) 0.005(6) -0.008(4) -0.001(4)
C13 0.042(4) 0.081(6) 0.086(6) 0.003(6) -0.007(4) -0.005(4)
C14 0.034(4) 0.071(6) 0.085(6) 0.009(5) -0.007(4) 0.003(4)
C15 0.036(4) 0.087(7) 0.091(7) 0.008(5) -0.002(4) 0.002(4)
C16 0.028(4) 0.082(7) 0.108(8) -0.003(6) -0.010(4) -0.009(4)
C17 0.039(4) 0.070(6) 0.105(7) 0.007(5) -0.006(4) -0.006(4)
C18 0.035(4) 0.089(7) 0.106(8) -0.003(6) -0.009(4) 0.002(4)
N1 0.045(4) 0.067(5) 0.090(6) 0.004(4) 0.004(3) 0.001(3)
N2 0.040(4) 0.078(5) 0.076(5) -0.001(4) 0.002(3) 0.000(3)
N3 0.043(4) 0.072(5) 0.087(6) 0.012(4) -0.007(4) 0.001(3)
N4 0.049(4) 0.059(4) 0.086(5) -0.004(4) -0.004(4) 0.006(3)
N5 0.042(4) 0.069(5) 0.088(5) -0.004(4) 0.006(3) 0.003(3)
N6 0.042(4) 0.081(6) 0.082(5) 0.005(5) -0.002(3) 0.001(3)
Zn2M 0.0368 0.0787 0.0905 0.0014 0.0021 0.0019
Zn2J 0.0368 0.0787 0.0905 0.0014 -0.0021 -0.0019
Zn2K 0.0368 0.0787 0.0905 -0.0014 0.0021 -0.0019
Cl1M 0.048 0.0795 0.0912 -0.0029 0.0061 -0.0023
Cl2M 0.0494 0.0792 0.098 0.0044 -0.0029 -0.0004
Cl3M 0.0594 0.0816 0.0952 -0.0013 0.0052 0.0005
C1M 0.041 0.078 0.091 -0.006 0 0
C2M 0.038 0.072 0.095 0.004 -0.005 -0.004
C3M 0.036 0.084 0.078 0 0.002 0.004
C4M 0.038 0.079 0.094 -0.008 0.004 -0.006
C5M 0.039 0.073 0.106 -0.003 0.003 -0.001
C6M 0.03 0.083 0.084 0.004 0.003 0.005
C7M 0.035 0.068 0.088 -0.001 0.001 0.003
C8M 0.024 0.081 0.091 0.004 0.001 0.003
C9M 0.045 0.056 0.1 0 0.004 0.003
C10M 0.039 0.081 0.089 -0.003 0.004 -0.004
C11M 0.044 0.068 0.095 0.002 -0.004 0
C12M 0.051 0.08 0.093 -0.005 0.008 -0.001
C13M 0.042 0.081 0.086 -0.003 0.007 -0.005
C14M 0.034 0.071 0.085 -0.009 0.007 0.003
C15M 0.036 0.087 0.091 -0.008 0.002 0.002
C16M 0.028 0.082 0.108 0.003 0.01 -0.009
C17M 0.039 0.07 0.105 -0.007 0.006 -0.006
C18M 0.035 0.089 0.106 0.003 0.009 0.002
N1M 0.045 0.067 0.09 -0.004 -0.004 0.001
N2M 0.04 0.078 0.076 0.001 -0.002 0
N3M 0.043 0.072 0.087 -0.012 0.007 0.001
N4M 0.049 0.059 0.086 0.004 0.004 0.006
N5M 0.042 0.069 0.088 0.004 -0.006 0.003
N6M 0.042 0.081 0.082 -0.005 0.002 0.001
N6B 0.042 0.081 0.082 -0.005 -0.002 -0.001
N6C 0.042 0.081 0.082 0.005 0.002 -0.001
C19 0.056(5) 0.070(7) 0.093(8) 0.001(6) -0.010(5) 0.006(4)
C20 0.063(6) 0.090(8) 0.110(9) -0.004(7) -0.013(5) -0.001(5)
C21 0.065(6) 0.114(10) 0.098(8) 0.008(7) 0.001(6) 0.023(6)
C22 0.096(8) 0.067(7) 0.128(11) -0.020(7) -0.030(8) 0.008(6)
C23 0.099(8) 0.079(8) 0.112(10) 0.006(8) -0.018(7) -0.016(6)
C24 0.067(6) 0.093(9) 0.093(7) 0.000(7) -0.003(5) -0.004(5)
N7 0.057(5) 0.090(8) 0.104(7) -0.004(6) -0.014(5) 0.013(5)
O1 0.045(4) 0.093(5) 0.161(8) 0.006(5) -0.010(4) -0.001(3)
O2 0.101(6) 0.084(6) 0.125(7) -0.018(5) -0.021(5) 0.016(4)
C25 0.056(5) 0.067(6) 0.093(7) -0.006(6) 0.007(5) -0.009(4)
C26 0.063(6) 0.111(9) 0.122(10) 0.014(8) 0.004(6) -0.004(6)
C27 0.074(7) 0.112(9) 0.121(10) 0.005(8) 0.020(7) -0.014(6)
C28 0.071(6) 0.093(8) 0.109(8) 0.019(6) 0.001(6) -0.003(5)
C29 0.061(5) 0.084(7) 0.089(7) 0.008(6) -0.005(5) -0.007(5)
C30 0.064(6) 0.084(8) 0.117(9) 0.007(6) -0.007(6) 0.000(5)
N8 0.068(5) 0.082(6) 0.094(6) 0.017(5) 0.002(4) 0.003(4)
O3 0.047(3) 0.104(5) 0.117(6) 0.007(4) 0.008(4) -0.002(3)
O4 0.086(5) 0.105(6) 0.112(6) 0.033(6) 0.006(5) -0.006(4)
loop_
_geom_bond_atom_site_label_1
_geom_bond_atom_site_label_2
_geom_bond_site_symmetry_1
_geom_bond_site_symmetry_2
Zn1 Cl3 1_555 1_555
Zn2 Cl1 1_555 1_555
Cl2 Zn2 1_555 1_555
C1 H1 1_555 1_555
C2 C1 1_555 1_555
H2 C2 1_555 1_555
C3 C2 1_555 1_555
C4 C3 1_555 1_555
H3 C4 1_555 1_555
C5 C4 1_555 1_555
H4 C5 1_555 1_555
C6 C3 1_555 1_555
C7 C9 1_555 1_555
C8 C14 1_555 1_555
C9 C10 1_555 1_555
C10 H5 1_555 1_555
C11 C10 1_555 1_555
H6 C11 1_555 1_555
C12 H7 1_555 1_555
C13 C9 1_555 1_555
H8 C13 1_555 1_555
C14 C15 1_555 1_555
C15 H9 1_555 1_555
C16 C15 1_555 1_555
H10 C16 1_555 1_555
C17 H11 1_555 1_555
C18 C14 1_555 1_555
H12 C18 1_555 1_555
N1 C6 1_555 1_555
N2 C6 1_555 1_555
N3 C7 1_555 1_555
N4 Zn1 1_555 1_555
N5 Zn2 1_555 1_555
N6 C16 1_555 1_555
C19 C20 1_555 1_555
C20 H13 1_555 1_555
C21 C20 1_555 1_555
H14 C21 1_555 1_555
C22 C21 1_555 1_555
H15 C22 1_555 1_555
C23 C22 1_555 1_555
H16 C23 1_555 1_555
C24 C19 1_555 1_555
H17 C24 1_555 1_555
N7 C19 1_555 1_555
O1 N7 1_555 1_555
O2 N7 1_555 1_555
C25 C29 1_555 1_555
C26 H18 1_555 1_555
C27 C26 1_555 1_555
H19 C27 1_555 1_555
C28 C27 1_555 1_555
H20 C28 1_555 1_555
C29 C28 1_555 1_555
H21 C29 1_555 1_555
C30 C25 1_555 1_555
H22 C30 1_555 1_555
N8 C25 1_555 1_555
O3 N8 1_555 1_555
O4 N8 1_555 1_555
C31 C32 1_555 1_555
C32 H23 1_555 1_555
C33 C32 1_555 1_555
H24 C33 1_555 1_555
C34 C33 1_555 1_555
H25 C34 1_555 1_555
C35 C34 1_555 1_555
H26 C35 1_555 1_555
C36 C31 1_555 1_555
H27 C36 1_555 1_555
N9 C31 1_555 1_555
O5 N9 1_555 1_555
O6 N9 1_555 1_555
Zn2M Cl1M 1_555 1_555
Zn2J N6 1_555 1_555
Zn2K N6M 1_555 1_555
Cl2M Zn2M 1_555 1_555
Cl3M Zn1 1_555 1_555
C1M H1M 1_555 1_555
C2M C1M 1_555 1_555
H2M C2M 1_555 1_555
C3M C2M 1_555 1_555
C4M C3M 1_555 1_555
H3M C4M 1_555 1_555
C5M C4M 1_555 1_555
H4M C5M 1_555 1_555
C6M C3M 1_555 1_555
C7M C9M 1_555 1_555
C8M C14M 1_555 1_555
C9M C10M 1_555 1_555
C10M H5M 1_555 1_555
C11M C10M 1_555 1_555
H6M C11M 1_555 1_555
C12M H7M 1_555 1_555
C13M C9M 1_555 1_555
H8M C13M 1_555 1_555
C14M C15M 1_555 1_555
C15M H9M 1_555 1_555
C16M C15M 1_555 1_555
H10M C16M 1_555 1_555
C17M H11M 1_555 1_555
C18M C14M 1_555 1_555
H12M C18M 1_555 1_555
N1M C6M 1_555 1_555
N2M C6M 1_555 1_555
N3M C7M 1_555 1_555
N4M Zn1 1_555 1_555
N5M Zn2M 1_555 1_555
N6M C16M 1_555 1_555
N6B Zn2 1_555 1_555
N6C Zn2M 1_555 1_555
C1 N5 1_555 1_555
C5 N5 1_555 1_555
C7 N2 1_555 1_555
C8 N1 1_555 1_555
C8 N3 1_555 1_555
C11 N4 1_555 1_555
C12 C13 1_555 1_555
C12 N4 1_555 1_555
C17 C18 1_555 1_555
C17 N6 1_555 1_555
C23 C24 1_555 1_555
C26 C30 1_555 1_555
C35 C36 1_555 1_555
C1M N5M 1_555 1_555
C5M N5M 1_555 1_555
C7M N2M 1_555 1_555
C8M N1M 1_555 1_555
C8M N3M 1_555 1_555
C11M N4M 1_555 1_555
C12M C13M 1_555 1_555
C12M N4M 1_555 1_555
C17M C18M 1_555 1_555
C17M N6M 1_555 1_555

#END
