
#######################################################################
#
#                 Cambridge Crystallographic Data Centre
#                                CCDC 
#
#######################################################################
#
# If this CIF has been generated from an entry in the Cambridge 
# Structural Database, then it will include bibliographic, chemical, 
# crystal, experimental, refinement or atomic coordinate data resulting 
# from the CCDC's data processing and validation procedures.
#
#######################################################################

data_WOHSOB
_chemical_formula_moiety         '(C38 H31 Cu2 K1 N6 O7)n'
_symmetry_cell_setting           orthorhombic
_symmetry_space_group_name_H-M   'P 21 21 21'
_symmetry_Int_Tables_number      19
_space_group_name_Hall           'P 2ac 2ab'
loop_
_symmetry_equiv_pos_site_id
_symmetry_equiv_pos_as_xyz
1 x,y,z
2 1/2-x,-y,1/2+z
3 1/2+x,1/2-y,-z
4 -x,1/2+y,1/2-z
_cell_length_a                   8.491(2)
_cell_length_b                   19.915(4)
_cell_length_c                   22.077(8)
_cell_angle_alpha                90
_cell_angle_beta                 90
_cell_angle_gamma                90
_cell_volume                     3733.18
loop_
_atom_site_label
_atom_site_type_symbol
_atom_site_fract_x
_atom_site_fract_y
_atom_site_fract_z
Cu1 Cu 0.9984(3) -0.0726(1) -1.40672(9)
Cu2 Cu 1.3052(3) -0.1690(1) -1.3640(1)
K1 K 0.8517(6) -0.0061(2) -1.6512(2)
O1 O 1.154(1) -0.1404(5) -1.4202(5)
O2 O 0.857(2) 0.0522(7) -1.5422(6)
O3 O 0.849(2) -0.0309(7) -1.2364(6)
O4 O 1.477(2) -0.0410(7) -1.2368(6)
O5 O 1.354(2) -0.3669(6) -1.3341(6)
N1 N 0.993(2) -0.0307(7) -1.4890(6)
N2 N 0.855(2) 0.0003(7) -1.3906(7)
N3 N 0.946(2) -0.0914(7) -1.3186(6)
N4 N 1.363(2) -0.0790(7) -1.3264(6)
N5 N 1.432(2) -0.1995(7) -1.2988(6)
N6 N 1.311(2) -0.2679(6) -1.3852(6)
C1 C 1.095(2) -0.0455(9) -1.5396(7)
C2 C 1.179(3) 0.003(1) -1.5666(9)
C3 C 1.285(3) -0.009(1) -1.613(1)
C4 C 1.293(3) -0.074(2) -1.6340(9)
C5 C 1.213(3) -0.124(1) -1.6078(9)
C6 C 1.114(3) -0.1104(9) -1.5603(9)
C7 C 0.889(3) 0.020(1) -1.4944(9)
C8 C 0.812(3) 0.0383(9) -1.4384(8)
C9 C 0.710(3) 0.092(1) -1.429(1)
C10 C 0.659(2) 0.103(1) -1.370(1)
C11 C 0.706(3) 0.064(1) -1.322(1)
C12 C 0.806(2) 0.011(1) -1.3347(8)
C13 C 0.875(3) -0.041(1) -1.2903(8)
C14 C 1.002(3) -0.1445(8) -1.2817(8)
C15 C 1.073(3) -0.138(1) -1.2275(9)
C16 C 1.119(3) -0.189(1) -1.192(1)
C17 C 1.101(3) -0.255(1) -1.214(1)
C18 C 1.038(3) -0.265(1) -1.270(1)
C19 C 0.991(3) -0.209(1) -1.3034(8)
C20 C 1.311(2) -0.0154(8) -1.3424(8)
C21 C 1.235(3) 0.026(1) -1.3015(9)
C22 C 1.180(3) 0.087(1) -1.319(1)
C23 C 1.197(4) 0.108(1) -1.379(1)
C24 C 1.267(3) 0.068(1) -1.419(1)
C25 C 1.318(3) 0.0059(9) -1.4010(9)
C26 C 1.441(2) -0.0847(9) -1.2746(9)
C27 C 1.493(3) -0.1578(9) -1.2608(7)
C28 C 1.592(2) -0.179(1) -1.2153(9)
C29 C 1.619(3) -0.248(1) -1.208(1)
C30 C 1.548(2) -0.291(1) -1.2475(9)
C31 C 1.453(2) -0.267(1) -1.2929(9)
C32 C 1.363(2) -0.3039(9) -1.3400(8)
C33 C 1.243(2) -0.2982(8) -1.4368(8)
C34 C 1.276(2) -0.2749(9) -1.4922(9)
C35 C 1.215(3) -0.305(1) -1.5445(8)
C36 C 1.121(3) -0.360(1) -1.5391(9)
C37 C 1.083(3) -0.381(1) -1.484(1)
C38 C 1.139(2) -0.353(1) -1.4325(8)
H1 H 1.15521 -0.16238 -1.46065
H2 H 1.16804 0.05141 -1.55058
H3 H 1.35213 0.02736 -1.62970
H4 H 1.35272 -0.08252 -1.66964
H5 H 1.22874 -0.17040 -1.61987
H6 H 1.05371 -0.14676 -1.54056
H7 H 0.66729 0.11954 -1.46387
H8 H 0.59160 0.14369 -1.36415
H9 H 0.67802 0.07531 -1.28009
H10 H 1.08444 -0.09437 -1.20849
H11 H 1.16292 -0.18128 -1.14834
H12 H 1.13349 -0.29227 -1.18848
H13 H 1.03708 -0.30999 -1.28588
H14 H 0.94232 -0.21749 -1.34365
H15 H 1.64445 -0.14718 -1.18535
H16 H 1.68803 -0.26192 -1.17362
H17 H 1.56766 -0.34040 -1.23974
H18 H 1.22277 0.01461 -1.25715
H19 H 1.12884 0.11731 -1.29085
H20 H 1.15399 0.15017 -1.39415
H21 H 1.28449 0.08762 -1.46170
H22 H 1.35233 -0.02530 -1.43362
H23 H 1.34669 -0.23620 -1.49616
H24 H 1.23816 -0.28892 -1.58537
H25 H 1.08363 -0.38288 -1.57525
H26 H 1.01274 -0.42111 -1.48364
H27 H 1.10809 -0.37111 -1.39210
K1A K 0.6483(6) 0.0061(2) -1.1512(2)
K1A_2 K 1.6483(6) 0.0061(2) -1.1512(2)
K1B K 1.3517(6) -0.4939(2) -1.3488(2)
O3A O 0.651(2) 0.0309(7) -1.7364(6)
O4A O 1.023(2) 0.0410(7) -1.7368(6)
O5B O 0.854(2) -0.1331(6) -1.6659(6)
O6 O -0.020(7) 0.216(3) 0.462(2)
O7 O 0.364(7) 0.227(3) 0.481(3)
loop_
_geom_bond_atom_site_label_1
_geom_bond_atom_site_label_2
_geom_bond_site_symmetry_1
_geom_bond_site_symmetry_2
Cu1 O1 1_555 1_555
Cu2 O1 1_555 1_555
K1 O2 1_555 1_555
O1 H1 1_555 1_555
O2 C7 1_555 1_555
O3 C13 1_555 1_555
O4 C26 1_555 1_555
O5 C32 1_555 1_555
N1 Cu1 1_555 1_555
N2 Cu1 1_555 1_555
N3 Cu1 1_555 1_555
N4 Cu2 1_555 1_555
N5 Cu2 1_555 1_555
N6 Cu2 1_555 1_555
C1 N1 1_555 1_555
C2 C1 1_555 1_555
C3 C2 1_555 1_555
C4 C3 1_555 1_555
C5 C4 1_555 1_555
C6 C1 1_555 1_555
C7 N1 1_555 1_555
C8 N2 1_555 1_555
C9 C8 1_555 1_555
C10 C9 1_555 1_555
C11 C10 1_555 1_555
C12 N2 1_555 1_555
C13 N3 1_555 1_555
C14 N3 1_555 1_555
C15 C14 1_555 1_555
C16 C15 1_555 1_555
C17 C16 1_555 1_555
C18 C17 1_555 1_555
C19 C14 1_555 1_555
C20 N4 1_555 1_555
C21 C20 1_555 1_555
C22 C21 1_555 1_555
C23 C22 1_555 1_555
C24 C23 1_555 1_555
C25 C20 1_555 1_555
C26 N4 1_555 1_555
C27 N5 1_555 1_555
C28 C27 1_555 1_555
C29 C28 1_555 1_555
C30 C29 1_555 1_555
C31 N5 1_555 1_555
C32 N6 1_555 1_555
C33 N6 1_555 1_555
C34 C33 1_555 1_555
C35 C34 1_555 1_555
C36 C35 1_555 1_555
C37 C36 1_555 1_555
C38 C33 1_555 1_555
H2 C2 1_555 1_555
H3 C3 1_555 1_555
H4 C4 1_555 1_555
H5 C5 1_555 1_555
H6 C6 1_555 1_555
H7 C9 1_555 1_555
H8 C10 1_555 1_555
H9 C11 1_555 1_555
H10 C15 1_555 1_555
H11 C16 1_555 1_555
H12 C17 1_555 1_555
H13 C18 1_555 1_555
H14 C19 1_555 1_555
H15 C28 1_555 1_555
H16 C29 1_555 1_555
H17 C30 1_555 1_555
H18 C21 1_555 1_555
H19 C22 1_555 1_555
H20 C23 1_555 1_555
H21 C24 1_555 1_555
H22 C25 1_555 1_555
H23 C34 1_555 1_555
H24 C35 1_555 1_555
H25 C36 1_555 1_555
H26 C37 1_555 1_555
H27 C38 1_555 1_555
K1A O3 1_555 1_555
K1A_2 O4 1_555 1_555
K1B O5 1_555 1_555
O3A K1 1_555 1_555
O4A K1 1_555 1_555
O5B K1 1_555 1_555
C5 C6 1_555 1_555
C7 C8 1_555 1_555
C11 C12 1_555 1_555
C12 C13 1_555 1_555
C18 C19 1_555 1_555
C24 C25 1_555 1_555
C26 C27 1_555 1_555
C30 C31 1_555 1_555
C31 C32 1_555 1_555
C37 C38 1_555 1_555

#END
