
#######################################################################
#
#                 Cambridge Crystallographic Data Centre
#                                CCDC 
#
#######################################################################
#
# If this CIF has been generated from an entry in the Cambridge 
# Structural Database, then it will include bibliographic, chemical, 
# crystal, experimental, refinement or atomic coordinate data resulting 
# from the CCDC's data processing and validation procedures.
#
#######################################################################

data_RATVEP
_chemical_formula_moiety         '(C11 H11 Mg1 N3 O6)n'
_symmetry_cell_setting           orthorhombic
_symmetry_space_group_name_H-M   'P n a 21'
_symmetry_Int_Tables_number      33
_space_group_name_Hall           'P 2c -2n'
loop_
_symmetry_equiv_pos_site_id
_symmetry_equiv_pos_as_xyz
1 x,y,z
2 -x,-y,1/2+z
3 1/2+x,1/2-y,z
4 1/2-x,1/2+y,1/2+z
_cell_length_a                   7.7639(10)
_cell_length_b                   10.1765(14)
_cell_length_c                   15.949(2)
_cell_angle_alpha                90
_cell_angle_beta                 90
_cell_angle_gamma                90
_cell_volume                     1260.12
loop_
_atom_site_label
_atom_site_type_symbol
_atom_site_fract_x
_atom_site_fract_y
_atom_site_fract_z
_atom_site_U_iso_or_equiv
_atom_site_thermal_displace_type
Mg1 Mg 0.13974(13) 0.97018(10) 0.21074(7) 0.0197 Uani
O1 O 0.3394(3) 0.8615(2) 0.16324(16) 0.0256 Uani
O2 O 0.4719(3) 0.6682(2) 0.16083(15) 0.0259 Uani
O3 O 0.4388(3) 0.4266(2) 0.25668(17) 0.0285 Uani
O4 O 0.2989(3) 1.1092(2) 0.26174(18) 0.0331 Uani
H1 H 0.4027 1.1256 0.2751 0.0400 Uiso
H2 H 0.2382 1.1751 0.2760 0.0400 Uiso
N1 N -0.1094(4) 0.9258(3) 0.58983(19) 0.0272 Uani
N2 N 0.1819(3) 0.8017(3) 0.31170(18) 0.0206 Uani
N3 N 0.1312(3) 0.6076(3) 0.36857(17) 0.0212 Uani
H3 H 0.0896 0.5488 0.4016 0.0250 Uiso
C1 C 0.1066(4) 0.7390(3) 0.3750(2) 0.0195 Uani
C2 C 0.2340(4) 0.5848(3) 0.3003(2) 0.0199 Uani
C3 C 0.2645(4) 0.7073(3) 0.2657(2) 0.0197 Uani
C4 C 0.0225(4) 0.8014(3) 0.4472(2) 0.0233 Uani
C5 C -0.1070(5) 0.7957(4) 0.5832(2) 0.0334 Uani
H4 H -0.1496 0.7460 0.6275 0.0400 Uiso
C6 C -0.0499(5) 0.9944(4) 0.5236(2) 0.0339 Uani
H5 H -0.0544 1.0856 0.5260 0.0410 Uiso
C7 C -0.0438(5) 0.7306(4) 0.5132(2) 0.0308 Uani
H6 H -0.0463 0.6393 0.5109 0.0370 Uiso
C8 C 0.2858(4) 0.4470(3) 0.2778(2) 0.0228 Uani
O5 O 0.1709(3) 0.3617(2) 0.2838(2) 0.0364 Uani
C9 C 0.0172(5) 0.9372(3) 0.4524(2) 0.0300 Uani
H7 H 0.0582 0.9889 0.4086 0.0360 Uiso
C10 C 0.3670(4) 0.7473(3) 0.19080(19) 0.0198 Uani
Mg1A Mg -0.13974(13) 1.02982(10) 0.71074(7) 0.0197 Uani
Mg1B Mg 0.63974(13) 0.52982(10) 0.21074(7) 0.0197 Uani
O2B O -0.0281(3) 0.8318(2) 0.16083(15) 0.0259 Uani
O3B O -0.0612(3) 1.0734(2) 0.25668(17) 0.0285 Uani
N1A N 0.1094(4) 1.0742(3) 0.08983(19) 0.0272 Uani
O6 O 1.0462(5) 0.4147(4) 0.4961(2) 0.0560 Uani
H8 H 1.0730 0.3979 0.5447 0.0840 Uiso
C11 C 0.8700(18) 0.3364(12) 0.4721(9) 0.2233 Uani
H9 H 0.8109 0.3117 0.5226 0.3350 Uiso
H10 H 0.8982 0.2590 0.4406 0.3350 Uiso
H11 H 0.7972 0.3924 0.4391 0.3350 Uiso
loop_
_atom_site_aniso_label
_atom_site_aniso_U_11
_atom_site_aniso_U_22
_atom_site_aniso_U_33
_atom_site_aniso_U_23
_atom_site_aniso_U_13
_atom_site_aniso_U_12
Mg1 0.0198(5) 0.0173(5) 0.0221(5) 0.0011(5) 0.0010(5) 0.0016(4)
O1 0.0251(12) 0.0227(12) 0.0291(13) 0.0072(11) 0.0066(10) 0.0032(10)
O2 0.0284(13) 0.0250(12) 0.0244(12) -0.0005(10) 0.0033(11) 0.0060(10)
O3 0.0241(12) 0.0212(12) 0.0401(15) -0.0020(11) 0.0057(11) 0.0024(10)
O4 0.0235(12) 0.0224(12) 0.0535(18) -0.0071(12) -0.0065(12) -0.0004(10)
N1 0.0309(16) 0.0278(15) 0.0228(15) -0.0066(13) 0.0009(13) 0.0029(13)
N2 0.0212(13) 0.0188(13) 0.0217(14) -0.0008(11) 0.0010(11) 0.0028(11)
N3 0.0239(14) 0.0163(13) 0.0234(15) 0.0018(11) 0.0046(12) -0.0011(11)
C1 0.0195(15) 0.0187(16) 0.0202(16) -0.0017(13) -0.0002(13) 0.0045(13)
C2 0.0199(15) 0.0163(15) 0.0235(17) -0.0002(12) 0.0019(14) 0.0010(13)
C3 0.0208(15) 0.0160(14) 0.0222(17) -0.0030(13) -0.0012(13) 0.0022(13)
C4 0.0229(16) 0.0224(16) 0.0245(16) -0.0044(14) -0.0045(14) 0.0022(14)
C5 0.042(2) 0.0302(19) 0.028(2) -0.0033(16) 0.0088(17) -0.0008(17)
C6 0.053(2) 0.0213(16) 0.0275(19) -0.0047(15) -0.0039(18) 0.0066(18)
C7 0.0389(19) 0.0196(18) 0.034(2) -0.0027(15) 0.0064(16) 0.0004(15)
C8 0.0252(16) 0.0194(15) 0.0237(16) -0.0001(13) 0.0012(14) -0.0001(14)
O5 0.0271(13) 0.0180(12) 0.064(2) -0.0048(12) 0.0097(13) -0.0056(10)
C9 0.042(2) 0.0265(18) 0.0215(17) 0.0021(16) 0.0015(16) 0.0021(16)
C10 0.0223(16) 0.0201(16) 0.0171(16) -0.0013(12) -0.0011(12) 0.0013(13)
Mg1A 0.0198 0.0173 0.0221 -0.0011 -0.001 0.0016
Mg1B 0.0198 0.0173 0.0221 -0.0011 0.001 -0.0016
O2B 0.0284 0.025 0.0244 0.0005 0.0033 -0.006
O3B 0.0241 0.0212 0.0401 0.002 0.0057 -0.0024
N1A 0.0309 0.0278 0.0228 0.0066 -0.0009 0.0029
O6 0.058(2) 0.058(2) 0.052(2) 0.0159(17) -0.0078(17) -0.0086(19)
C11 0.319(16) 0.193(12) 0.158(10) 0.121(10) 0.095(11) 0.125(11)
loop_
_geom_bond_atom_site_label_1
_geom_bond_atom_site_label_2
_geom_bond_site_symmetry_1
_geom_bond_site_symmetry_2
Mg1 O1 1_555 1_555
O1 C10 1_555 1_555
O2 C10 1_555 1_555
O3 C8 1_555 1_555
O4 Mg1 1_555 1_555
H1 O4 1_555 1_555
H2 O4 1_555 1_555
N1 C5 1_555 1_555
N2 Mg1 1_555 1_555
N3 H3 1_555 1_555
C1 N2 1_555 1_555
C2 N3 1_555 1_555
C3 N2 1_555 1_555
C4 C1 1_555 1_555
C5 H4 1_555 1_555
C6 N1 1_555 1_555
H5 C6 1_555 1_555
C7 C4 1_555 1_555
H6 C7 1_555 1_555
C8 C2 1_555 1_555
O5 C8 1_555 1_555
C9 C4 1_555 1_555
H7 C9 1_555 1_555
C10 C3 1_555 1_555
O6 H8 1_555 1_555
C11 O6 1_555 1_555
H9 C11 1_555 1_555
H10 C11 1_555 1_555
H11 C11 1_555 1_555
Mg1A N1 1_555 1_555
Mg1B O2 1_555 1_555
O2B Mg1 1_555 1_555
O3B Mg1 1_555 1_555
N1A Mg1 1_555 1_555
O3 Mg1B 1_555 1_555
N3 C1 1_555 1_555
C2 C3 1_555 1_555
C5 C7 1_555 1_555
C6 C9 1_555 1_555

#END
