
#######################################################################
#
#                 Cambridge Crystallographic Data Centre
#                                CCDC 
#
#######################################################################
#
# If this CIF has been generated from an entry in the Cambridge 
# Structural Database, then it will include bibliographic, chemical, 
# crystal, experimental, refinement or atomic coordinate data resulting 
# from the CCDC's data processing and validation procedures.
#
#######################################################################

data_TIXVON
_chemical_formula_moiety         '(C54 H55 Mg3 N3 O20)n'
_symmetry_cell_setting           orthorhombic
_symmetry_space_group_name_H-M   'P c c n'
_symmetry_Int_Tables_number      56
_space_group_name_Hall           '-P 2ab 2ac'
loop_
_symmetry_equiv_pos_site_id
_symmetry_equiv_pos_as_xyz
1 x,y,z
2 1/2-x,1/2-y,z
3 -x,1/2+y,1/2-z
4 1/2+x,-y,1/2-z
5 -x,-y,-z
6 1/2+x,1/2+y,-z
7 x,1/2-y,1/2+z
8 1/2-x,y,1/2+z
_cell_length_a                   23.7111(13)
_cell_length_b                   11.3748(4)
_cell_length_c                   22.0842(10)
_cell_angle_alpha                90
_cell_angle_beta                 90
_cell_angle_gamma                90
_cell_volume                     5956.31
loop_
_atom_site_label
_atom_site_type_symbol
_atom_site_fract_x
_atom_site_fract_y
_atom_site_fract_z
_atom_site_U_iso_or_equiv
_atom_site_thermal_displace_type
Mg1 Mg 0.5000 0.5000 0.0000 0.0218 Uani
Mg2 Mg 0.44058(6) 0.21110(12) -0.00243(7) 0.0299 Uani
O1 O 0.39669(13) 0.3036(3) 0.06102(16) 0.0453 Uani
O2 O 0.47751(15) 0.1017(3) -0.06770(15) 0.0528 Uani
O3 O 0.42842(12) 0.4876(3) 0.05175(14) 0.0385 Uani
O4 O 0.04413(12) 0.4595(3) 0.42283(13) 0.0362 Uani
O5 O 0.09725(13) 0.2979(3) 0.42943(15) 0.0442 Uani
O6 O 0.22307(16) 0.5890(3) 0.22397(17) 0.0563 Uani
O7 O 0.51786(11) 0.3140(2) 0.01163(13) 0.0294 Uani
O8 O 0.50442(12) 0.1463(2) 0.05747(14) 0.0360 Uani
O9 O 0.7500 0.2500 0.1558(2) 0.0607 Uani
O10 O 0.39157(17) 0.0757(3) 0.0175(2) 0.0713 Uani
C1 C 0.2665(2) 0.5362(4) 0.1916(2) 0.0397 Uani
C2 C 0.2627(2) 0.4235(4) 0.1684(2) 0.0453 Uani
H1 H 0.2322 0.3755 0.1781 0.0540 Uiso
C3 C 0.30509(19) 0.3837(4) 0.1306(2) 0.0403 Uani
H2 H 0.3031 0.3077 0.1153 0.0480 Uiso
C4 C 0.35061(17) 0.4546(4) 0.11503(19) 0.0313 Uani
C5 C 0.35332(19) 0.5663(4) 0.1398(2) 0.0380 Uani
H3 H 0.3836 0.6148 0.1302 0.0460 Uiso
C6 C 0.3119(2) 0.6068(4) 0.1784(2) 0.0420 Uani
H4 H 0.3147 0.6814 0.1953 0.0500 Uiso
C7 C 0.1901(2) 0.5298(4) 0.2658(2) 0.0407 Uani
C8 C 0.1368(2) 0.5758(4) 0.2740(2) 0.0413 Uani
H5 H 0.1241 0.6369 0.2495 0.0500 Uiso
C9 C 0.10228(19) 0.5300(4) 0.3190(2) 0.0357 Uani
H6 H 0.0664 0.5611 0.3248 0.0430 Uiso
C10 C 0.12077(18) 0.4386(4) 0.3552(2) 0.0320 Uani
C11 C 0.1739(2) 0.3923(4) 0.3452(2) 0.0403 Uani
H7 H 0.1862 0.3292 0.3684 0.0480 Uiso
C12 C 0.2089(2) 0.4380(4) 0.3012(2) 0.0480 Uani
H8 H 0.2449 0.4073 0.2956 0.0580 Uiso
C13 C 0.39573(18) 0.4123(4) 0.0727(2) 0.0313 Uani
C14 C 0.08419(19) 0.3950(4) 0.4066(2) 0.0317 Uani
C15 C 0.69938(19) 0.2419(5) 0.1233(2) 0.0423 Uani
C16 C 0.6619(2) 0.1562(5) 0.1412(2) 0.0483 Uani
H9 H 0.6718 0.1014 0.1706 0.0580 Uiso
C17 C 0.60912(19) 0.1536(4) 0.1146(2) 0.0423 Uani
H10 H 0.5833 0.0963 0.1263 0.0510 Uiso
C18 C 0.59408(17) 0.2346(4) 0.07082(19) 0.0307 Uani
C19 C 0.63268(18) 0.3184(4) 0.0525(2) 0.0367 Uani
H11 H 0.6233 0.3721 0.0224 0.0440 Uiso
C20 C 0.68613(18) 0.3219(4) 0.0797(2) 0.0420 Uani
H12 H 0.7123 0.3783 0.0679 0.0510 Uiso
C21 C 0.53608(17) 0.2317(4) 0.04546(19) 0.0277 Uani
C22 C 0.2965(3) 0.0828(7) -0.0189(4) 0.0953 Uani
H13 H 0.3105 0.1482 -0.0419 0.1430 Uiso
H14 H 0.2664 0.1086 0.0068 0.1430 Uiso
H15 H 0.2828 0.0233 -0.0460 0.1430 Uiso
C23 C 0.3452(3) 0.0308(5) 0.0207(3) 0.0597 Uani
C24 C 0.3812(3) -0.1046(6) 0.0910(3) 0.0863 Uani
H16 H 0.4129 -0.0523 0.0883 0.1300 Uiso
H17 H 0.3917 -0.1807 0.0760 0.1300 Uiso
H18 H 0.3696 -0.1111 0.1325 0.1300 Uiso
C25 C 0.2810(3) -0.1238(6) 0.0522(4) 0.1000 Uani
H19 H 0.2545 -0.0819 0.0274 0.1500 Uiso
H20 H 0.2660 -0.1321 0.0924 0.1500 Uiso
H21 H 0.2877 -0.2002 0.0352 0.1500 Uiso
N1 N 0.3345(2) -0.0581(5) 0.0548(3) 0.0723 Uani
O7A O 0.98214(11) 0.1860(2) 0.01163(13) 0.0294 Uani
O8A O 0.99558(12) 0.3537(2) 0.05747(14) 0.0360 Uani
C15A C 0.80062(19) 0.2581(5) 0.1233(2) 0.0423 Uani
C16A C 0.8381(2) 0.3438(5) 0.1412(2) 0.0483 Uani
H9A H 0.8282 0.3986 0.1706 0.0580 Uiso
C17A C 0.89088(19) 0.3464(4) 0.1146(2) 0.0423 Uani
H10A H 0.9167 0.4037 0.1263 0.0510 Uiso
C18A C 0.90592(17) 0.2654(4) 0.07082(19) 0.0307 Uani
C19A C 0.86732(18) 0.1816(4) 0.0525(2) 0.0367 Uani
H11A H 0.8767 0.1279 0.0224 0.0440 Uiso
C20A C 0.81387(18) 0.1781(4) 0.0797(2) 0.0420 Uani
H12A H 0.7877 0.1217 0.0679 0.0510 Uiso
C21A C 0.96392(17) 0.2683(4) 0.04546(19) 0.0277 Uani
Mg2A Mg 1.05942(6) 0.28890(12) -0.00243(7) 0.0299 Uani
O1A O 1.10331(13) 0.1964(3) 0.06102(16) 0.0453 Uani
O2A O 1.02249(15) 0.3983(3) -0.06770(15) 0.0528 Uani
O3A O 1.07158(12) 0.0124(3) 0.05175(14) 0.0385 Uani
O4A O 1.45587(12) 0.0405(3) 0.42283(13) 0.0362 Uani
O5A O 1.40275(13) 0.2021(3) 0.42943(15) 0.0442 Uani
O6A O 1.27693(16) -0.0890(3) 0.22397(17) 0.0563 Uani
O10A O 1.10843(17) 0.4243(3) 0.0175(2) 0.0713 Uani
C1A C 1.2335(2) -0.0362(4) 0.1916(2) 0.0397 Uani
C2A C 1.2373(2) 0.0765(4) 0.1684(2) 0.0453 Uani
H1A H 1.2678 0.1245 0.1781 0.0540 Uiso
C3A C 1.19491(19) 0.1163(4) 0.1306(2) 0.0403 Uani
H2A H 1.1969 0.1923 0.1153 0.0480 Uiso
C4A C 1.14939(17) 0.0454(4) 0.11503(19) 0.0313 Uani
C5A C 1.14668(19) -0.0663(4) 0.1398(2) 0.0380 Uani
H3A H 1.1164 -0.1148 0.1302 0.0460 Uiso
C6A C 1.1881(2) -0.1068(4) 0.1784(2) 0.0420 Uani
H4A H 1.1853 -0.1814 0.1953 0.0500 Uiso
C7A C 1.3099(2) -0.0298(4) 0.2658(2) 0.0407 Uani
C8A C 1.3632(2) -0.0758(4) 0.2740(2) 0.0413 Uani
H5A H 1.3759 -0.1369 0.2495 0.0500 Uiso
C9A C 1.39772(19) -0.0300(4) 0.3190(2) 0.0357 Uani
H6A H 1.4336 -0.0611 0.3248 0.0430 Uiso
C10A C 1.37923(18) 0.0614(4) 0.3552(2) 0.0320 Uani
C11A C 1.3261(2) 0.1077(4) 0.3452(2) 0.0403 Uani
H7A H 1.3138 0.1708 0.3684 0.0480 Uiso
C12A C 1.2911(2) 0.0620(4) 0.3012(2) 0.0480 Uani
H8A H 1.2551 0.0927 0.2956 0.0580 Uiso
C13A C 1.10427(18) 0.0877(4) 0.0727(2) 0.0313 Uani
C14A C 1.41581(19) 0.1050(4) 0.4066(2) 0.0317 Uani
C22A C 1.2035(3) 0.4172(7) -0.0189(4) 0.0953 Uani
H13A H 1.1895 0.3518 -0.0419 0.1430 Uiso
H14A H 1.2336 0.3914 0.0068 0.1430 Uiso
H15A H 1.2172 0.4767 -0.0460 0.1430 Uiso
C23A C 1.1548(3) 0.4692(5) 0.0207(3) 0.0597 Uani
C24A C 1.1188(3) 0.6046(6) 0.0910(3) 0.0863 Uani
H16A H 1.0871 0.5523 0.0883 0.1300 Uiso
H17A H 1.1083 0.6807 0.0760 0.1300 Uiso
H18A H 1.1304 0.6111 0.1325 0.1300 Uiso
C25A C 1.2190(3) 0.6238(6) 0.0522(4) 0.1000 Uani
H19A H 1.2455 0.5819 0.0274 0.1500 Uiso
H20A H 1.2340 0.6321 0.0924 0.1500 Uiso
H21A H 1.2123 0.7002 0.0352 0.1500 Uiso
N1A N 1.1655(2) 0.5581(5) 0.0548(3) 0.0723 Uani
Mg1A Mg 1.0000 0.0000 0.0000 0.0218 Uani
Mg1B Mg 1.5000 0.0000 0.5000 0.0218 Uani
Mg1C Mg 0.0000 0.5000 0.5000 0.0218 Uani
Mg2F Mg 1.44058(6) 0.28890(12) 0.49757(7) 0.0299 Uani
Mg2G Mg 0.05942(6) 0.21110(12) 0.49757(7) 0.0299 Uani
O3D O 0.57158(12) 0.5124(3) -0.05175(14) 0.0385 Uani
O4C O 0.54413(12) 0.5405(3) 0.07717(13) 0.0362 Uani
O4G O 0.45587(12) 0.4595(3) -0.07717(13) 0.0362 Uani
O5F O 1.09725(13) 0.2021(3) -0.07057(15) 0.0442 Uani
O5G O 0.40275(13) 0.2979(3) -0.07057(15) 0.0442 Uani
O7D O 0.48214(11) 0.6860(2) -0.01163(13) 0.0294 Uani
O11 O 0.4767(4) 0.6536(9) 0.2412(6) 0.2430 Uani
C26 C 0.5707(4) 0.6837(8) 0.2983(4) 0.1310 Uiso
H22 H 0.5556 0.6223 0.3233 0.1570 Uiso
H23 H 0.5790 0.7512 0.3229 0.1570 Uiso
H24 H 0.6047 0.6567 0.2792 0.1570 Uiso
C27 C 0.5290(4) 0.7160(9) 0.2515(4) 0.0980 Uiso
C28 C 0.5971(4) 0.8582(8) 0.2250(5) 0.1437 Uani
H25 H 0.6182 0.8182 0.2558 0.2150 Uiso
H26 H 0.5932 0.9396 0.2356 0.2150 Uiso
H27 H 0.6165 0.8517 0.1870 0.2150 Uiso
C29 C 0.5014(3) 0.8352(7) 0.1826(4) 0.0790 Uiso
H28 H 0.4691 0.7857 0.1889 0.1190 Uiso
H29 H 0.5145 0.8267 0.1417 0.1190 Uiso
H30 H 0.4911 0.9157 0.1898 0.1190 Uiso
N2 N 0.5412(5) 0.8050(11) 0.2198(6) 0.1920 Uani
loop_
_atom_site_aniso_label
_atom_site_aniso_U_11
_atom_site_aniso_U_22
_atom_site_aniso_U_33
_atom_site_aniso_U_23
_atom_site_aniso_U_13
_atom_site_aniso_U_12
Mg1 0.0173(10) 0.0281(10) 0.0200(10) 0.0031(8) -0.0011(7) -0.0023(8)
Mg2 0.0271(8) 0.0284(8) 0.0341(9) 0.0050(7) -0.0044(6) -0.0027(6)
O1 0.042(2) 0.0389(19) 0.055(2) 0.0046(17) 0.0220(16) 0.0017(15)
O2 0.080(3) 0.0403(19) 0.038(2) -0.0030(17) 0.0005(18) 0.0090(17)
O3 0.0295(18) 0.0431(18) 0.043(2) 0.0062(16) 0.0137(14) -0.0042(14)
O4 0.0316(18) 0.0452(18) 0.0319(19) 0.0039(15) 0.0149(14) 0.0040(15)
O5 0.047(2) 0.0367(18) 0.049(2) 0.0128(17) 0.0190(16) 0.0025(15)
O6 0.071(3) 0.0388(19) 0.059(3) 0.0050(17) 0.045(2) 0.0033(17)
O7 0.0270(16) 0.0299(16) 0.0314(17) 0.0061(14) -0.0052(12) 0.0022(13)
O8 0.0374(18) 0.0315(16) 0.039(2) 0.0064(15) -0.0073(14) -0.0016(15)
O9 0.023(3) 0.121(5) 0.038(3) 0.000 0.000 0.007(3)
O10 0.059(3) 0.051(2) 0.104(4) 0.011(2) 0.009(2) -0.032(2)
C1 0.048(3) 0.040(3) 0.031(3) -0.001(2) 0.021(2) -0.001(2)
C2 0.042(3) 0.042(3) 0.052(3) -0.001(2) 0.025(2) -0.014(2)
C3 0.042(3) 0.033(3) 0.046(3) -0.008(2) 0.017(2) -0.009(2)
C4 0.032(3) 0.038(2) 0.024(2) 0.006(2) 0.0064(19) -0.001(2)
C5 0.033(3) 0.043(3) 0.038(3) 0.004(2) 0.009(2) -0.011(2)
C6 0.054(3) 0.034(3) 0.038(3) -0.004(2) 0.012(2) -0.007(2)
C7 0.049(3) 0.037(3) 0.036(3) -0.002(2) 0.029(2) -0.004(2)
C8 0.055(3) 0.040(3) 0.029(3) 0.003(2) 0.013(2) 0.002(2)
C9 0.032(3) 0.042(3) 0.033(3) -0.002(2) 0.009(2) 0.004(2)
C10 0.034(3) 0.034(2) 0.028(3) -0.005(2) 0.0128(19) 0.000(2)
C11 0.044(3) 0.035(3) 0.042(3) 0.005(2) 0.014(2) 0.005(2)
C12 0.044(3) 0.049(3) 0.051(3) 0.006(3) 0.022(2) 0.010(2)
C13 0.030(3) 0.036(3) 0.028(3) 0.004(2) 0.0033(19) 0.000(2)
C14 0.034(3) 0.037(3) 0.024(2) -0.005(2) 0.0079(19) -0.008(2)
C15 0.025(3) 0.067(3) 0.035(3) -0.006(3) -0.003(2) 0.008(2)
C16 0.040(3) 0.056(3) 0.049(3) 0.014(3) -0.006(2) 0.013(3)
C17 0.033(3) 0.051(3) 0.043(3) 0.008(3) -0.006(2) 0.001(2)
C18 0.027(2) 0.034(2) 0.031(3) 0.002(2) -0.0001(19) 0.0078(19)
C19 0.029(3) 0.046(3) 0.035(3) -0.001(2) 0.002(2) 0.003(2)
C20 0.027(3) 0.057(3) 0.042(3) 0.001(3) 0.003(2) -0.002(2)
C21 0.028(2) 0.033(2) 0.022(2) -0.007(2) 0.0008(18) -0.001(2)
C22 0.084(6) 0.096(6) 0.106(6) -0.004(5) -0.002(4) 0.000(4)
C23 0.076(5) 0.044(3) 0.059(4) -0.018(3) 0.013(3) -0.010(3)
C24 0.096(6) 0.090(5) 0.073(5) 0.012(4) -0.004(4) 0.001(4)
C25 0.101(5) 0.099(5) 0.100(6) -0.029(5) 0.045(4) -0.076(5)
N1 0.083(4) 0.067(3) 0.067(4) -0.009(3) 0.025(3) -0.026(3)
O7A 0.027 0.0299 0.0314 -0.0061 0.0052 0.0022
O8A 0.0374 0.0315 0.039 -0.0064 0.0073 -0.0016
C15A 0.025 0.067 0.035 0.006 0.003 0.008
C16A 0.04 0.056 0.049 -0.014 0.006 0.013
C17A 0.033 0.051 0.043 -0.008 0.006 0.001
C18A 0.027 0.034 0.031 -0.002 0.0001 0.0078
C19A 0.029 0.046 0.035 0.001 -0.002 0.003
C20A 0.027 0.057 0.042 -0.001 -0.003 -0.002
C21A 0.028 0.033 0.022 0.007 -0.0008 -0.001
Mg2A 0.0271 0.0284 0.0341 -0.005 0.0044 -0.0027
O1A 0.042 0.0389 0.055 -0.0046 -0.022 0.0017
O2A 0.08 0.0403 0.038 0.003 -0.0005 0.009
O3A 0.0295 0.0431 0.043 -0.0062 -0.0137 -0.0042
O4A 0.0316 0.0452 0.0319 -0.0039 -0.0149 0.004
O5A 0.047 0.0367 0.049 -0.0128 -0.019 0.0025
O6A 0.071 0.0388 0.059 -0.005 -0.045 0.0033
O10A 0.059 0.051 0.104 -0.011 -0.009 -0.032
C1A 0.048 0.04 0.031 0.001 -0.021 -0.001
C2A 0.042 0.042 0.052 0.001 -0.025 -0.014
C3A 0.042 0.033 0.046 0.008 -0.017 -0.009
C4A 0.032 0.038 0.024 -0.006 -0.0064 -0.001
C5A 0.033 0.043 0.038 -0.004 -0.009 -0.011
C6A 0.054 0.034 0.038 0.004 -0.012 -0.007
C7A 0.049 0.037 0.036 0.002 -0.029 -0.004
C8A 0.055 0.04 0.029 -0.003 -0.013 0.002
C9A 0.032 0.042 0.033 0.002 -0.009 0.004
C10A 0.034 0.034 0.028 0.005 -0.0128 0
C11A 0.044 0.035 0.042 -0.005 -0.014 0.005
C12A 0.044 0.049 0.051 -0.006 -0.022 0.01
C13A 0.03 0.036 0.028 -0.004 -0.0033 0
C14A 0.034 0.037 0.024 0.005 -0.0079 -0.008
C22A 0.084 0.096 0.106 0.004 0.002 0
C23A 0.076 0.044 0.059 0.018 -0.013 -0.01
C24A 0.096 0.09 0.073 -0.012 0.004 0.001
C25A 0.101 0.099 0.1 0.029 -0.045 -0.076
N1A 0.083 0.067 0.067 0.009 -0.025 -0.026
Mg1A 0.0173 0.0281 0.02 -0.0031 0.0011 -0.0023
Mg1B 0.0173 0.0281 0.02 -0.0031 -0.0011 0.0023
Mg1C 0.0173 0.0281 0.02 0.0031 0.0011 0.0023
Mg2F 0.0271 0.0284 0.0341 -0.005 -0.0044 0.0027
Mg2G 0.0271 0.0284 0.0341 0.005 0.0044 0.0027
O3D 0.0295 0.0431 0.043 0.0062 0.0137 -0.0042
O4C 0.0316 0.0452 0.0319 0.0039 -0.0149 -0.004
O4G 0.0316 0.0452 0.0319 0.0039 -0.0149 -0.004
O5F 0.047 0.0367 0.049 -0.0128 0.019 -0.0025
O5G 0.047 0.0367 0.049 0.0128 -0.019 -0.0025
O7D 0.027 0.0299 0.0314 0.0061 -0.0052 0.0022
O11 0.176(9) 0.257(11) 0.296(13) 0.020(9) 0.037(8) -0.016(7)
C28 0.156(10) 0.104(7) 0.171(11) -0.041(7) -0.001(8) -0.009(7)
N2 0.194(11) 0.183(10) 0.199(11) -0.153(10) 0.087(9) -0.031(9)
loop_
_geom_bond_atom_site_label_1
_geom_bond_atom_site_label_2
_geom_bond_site_symmetry_1
_geom_bond_site_symmetry_2
Mg1 O3 1_555 1_555
Mg2 O1 1_555 1_555
O1 C13 1_555 1_555
O2 Mg2 1_555 1_555
O3 C13 1_555 1_555
O4 C14 1_555 1_555
O5 C14 1_555 1_555
O6 C1 1_555 1_555
O7 Mg1 1_555 1_555
O8 Mg2 1_555 1_555
O9 C15 1_555 1_555
O10 Mg2 1_555 1_555
C1 C2 1_555 1_555
C2 H1 1_555 1_555
C3 C2 1_555 1_555
H2 C3 1_555 1_555
C4 C3 1_555 1_555
C5 C4 1_555 1_555
H3 C5 1_555 1_555
C6 C1 1_555 1_555
H4 C6 1_555 1_555
C7 O6 1_555 1_555
C8 C7 1_555 1_555
H5 C8 1_555 1_555
C9 C8 1_555 1_555
H6 C9 1_555 1_555
C10 C9 1_555 1_555
C11 C10 1_555 1_555
H7 C11 1_555 1_555
C12 C7 1_555 1_555
H8 C12 1_555 1_555
C13 C4 1_555 1_555
C14 C10 1_555 1_555
C15 C16 1_555 1_555
C16 H9 1_555 1_555
C17 C16 1_555 1_555
H10 C17 1_555 1_555
C18 C17 1_555 1_555
C19 C18 1_555 1_555
H11 C19 1_555 1_555
C20 C15 1_555 1_555
H12 C20 1_555 1_555
C21 O7 1_555 1_555
C22 H13 1_555 1_555
H14 C22 1_555 1_555
H15 C22 1_555 1_555
C23 O10 1_555 1_555
C24 H16 1_555 1_555
H17 C24 1_555 1_555
H18 C24 1_555 1_555
C25 H19 1_555 1_555
H20 C25 1_555 1_555
H21 C25 1_555 1_555
N1 C23 1_555 1_555
O11 C27 1_555 1_555
C26 H22 1_555 1_555
H23 C26 1_555 1_555
H24 C26 1_555 1_555
C27 C26 1_555 1_555
C28 H25 1_555 1_555
H26 C28 1_555 1_555
H27 C28 1_555 1_555
C29 H28 1_555 1_555
H29 C29 1_555 1_555
H30 C29 1_555 1_555
N2 C27 1_555 1_555
O7A C21A 1_555 1_555
O8A C21A 1_555 1_555
C15A O9 1_555 1_555
C16A C15A 1_555 1_555
H9A C16A 1_555 1_555
C17A C16A 1_555 1_555
H10A C17A 1_555 1_555
C18A C17A 1_555 1_555
C19A C18A 1_555 1_555
H11A C19A 1_555 1_555
C20A C15A 1_555 1_555
H12A C20A 1_555 1_555
C21A C18A 1_555 1_555
Mg2A O7A 1_555 1_555
O1A Mg2A 1_555 1_555
O2A Mg2A 1_555 1_555
O3A C13A 1_555 1_555
O4A C14A 1_555 1_555
O5A C14A 1_555 1_555
O6A C1A 1_555 1_555
O10A Mg2A 1_555 1_555
C1A C2A 1_555 1_555
C2A H1A 1_555 1_555
C3A C2A 1_555 1_555
H2A C3A 1_555 1_555
C4A C3A 1_555 1_555
C5A C4A 1_555 1_555
H3A C5A 1_555 1_555
C6A C1A 1_555 1_555
H4A C6A 1_555 1_555
C7A O6A 1_555 1_555
C8A C7A 1_555 1_555
H5A C8A 1_555 1_555
C9A C8A 1_555 1_555
H6A C9A 1_555 1_555
C10A C9A 1_555 1_555
C11A C10A 1_555 1_555
H7A C11A 1_555 1_555
C12A C7A 1_555 1_555
H8A C12A 1_555 1_555
C13A O1A 1_555 1_555
C14A C10A 1_555 1_555
C22A H13A 1_555 1_555
H14A C22A 1_555 1_555
H15A C22A 1_555 1_555
C23A O10A 1_555 1_555
C24A H16A 1_555 1_555
H17A C24A 1_555 1_555
H18A C24A 1_555 1_555
C25A H19A 1_555 1_555
H20A C25A 1_555 1_555
H21A C25A 1_555 1_555
N1A C23A 1_555 1_555
Mg1A O7A 1_555 1_555
Mg1B O4A 1_555 1_555
Mg1C O4 1_555 1_555
Mg2F O5A 1_555 1_555
Mg2G O5 1_555 1_555
O3D Mg1 1_555 1_555
O4C Mg1 1_555 1_555
O4G Mg1 1_555 1_555
O5F Mg2A 1_555 1_555
O5G Mg2 1_555 1_555
O7D Mg1 1_555 1_555
Mg2 O7 1_555 1_555
O8 C21 1_555 1_555
C5 C6 1_555 1_555
C11 C12 1_555 1_555
C18 C21 1_555 1_555
C19 C20 1_555 1_555
C22 C23 1_555 1_555
C24 N1 1_555 1_555
C25 N1 1_555 1_555
C28 N2 1_555 1_555
C29 N2 1_555 1_555
O8A Mg2A 1_555 1_555
C19A C20A 1_555 1_555
O3A Mg1A 1_555 1_555
C4A C13A 1_555 1_555
C5A C6A 1_555 1_555
C11A C12A 1_555 1_555
C22A C23A 1_555 1_555
C24A N1A 1_555 1_555
C25A N1A 1_555 1_555

#END
