
#######################################################################
#
#                 Cambridge Crystallographic Data Centre
#                                CCDC 
#
#######################################################################
#
# If this CIF has been generated from an entry in the Cambridge 
# Structural Database, then it will include bibliographic, chemical, 
# crystal, experimental, refinement or atomic coordinate data resulting 
# from the CCDC's data processing and validation procedures.
#
#######################################################################

data_YILBEC
_chemical_formula_moiety         'C81 H36 Cr3 N6 O59 Zn12'
_symmetry_cell_setting           hexagonal
_symmetry_space_group_name_H-M   'P 63/m m c'
_symmetry_Int_Tables_number      194
_space_group_name_Hall           '-P 6c 2c'
loop_
_symmetry_equiv_pos_site_id
_symmetry_equiv_pos_as_xyz
1 x,y,z
2 -y,x-y,z
3 -x+y,-x,z
4 -x,-y,1/2+z
5 y,-x+y,1/2+z
6 x-y,x,1/2+z
7 y,x,-z
8 x-y,-y,-z
9 -x,-x+y,-z
10 -y,-x,1/2-z
11 -x+y,y,1/2-z
12 x,x-y,1/2-z
13 -x,-y,-z
14 y,-x+y,-z
15 x-y,x,-z
16 x,y,1/2-z
17 -y,x-y,1/2-z
18 -x+y,-x,1/2-z
19 -y,-x,z
20 -x+y,y,z
21 x,x-y,z
22 y,x,1/2+z
23 x-y,-y,1/2+z
24 -x,-x+y,1/2+z
_cell_length_a                   19.0306(5)
_cell_length_b                   19.0306(5)
_cell_length_c                   36.2445(8)
_cell_angle_alpha                90
_cell_angle_beta                 90
_cell_angle_gamma                120
_cell_volume                     11367.8
loop_
_atom_site_label
_atom_site_type_symbol
_atom_site_fract_x
_atom_site_fract_y
_atom_site_fract_z
_atom_site_U_iso_or_equiv
_atom_site_thermal_displace_type
Zn1 Zn 0.519994(9) 0.480006(9) 0.536604(8) 0.0352 Uani
Cr1 Cr 0.55034(3) 0.275171(16) 0.7500 0.0318 Uani
O1 O 0.6667 0.3333 0.7500 0.0304 Uani
O2 O 0.42907(17) 0.21453(8) 0.7500 0.0536 Uani
N1 N 0.54088(6) 0.45912(6) 0.58897(5) 0.0391 Uani
O3 O 0.54139(7) 0.34094(8) 0.71038(3) 0.0444 Uani
C1 C 0.62468(17) 0.49684(16) 0.64184(7) 0.0906 Uani
H1 H 0.6732 0.5351 0.6533 0.1090 Uiso
C2 C 0.60656(17) 0.51055(16) 0.60657(7) 0.0910 Uani
H2 H 0.6433 0.5592 0.5947 0.1090 Uiso
C3 C 0.59276(7) 0.40724(7) 0.69661(6) 0.0390 Uani
C4 C 0.57205(7) 0.42795(7) 0.65960(6) 0.0391 Uani
O4 O 0.77118(6) 0.54236(12) 0.48449(5) 0.0468 Uani
O5 O 0.62861(8) 0.51814(9) 0.51143(4) 0.0551 Uani
O6 O 0.59899(10) 0.55247(13) 0.45720(4) 0.0704 Uani
C5 C 0.64443(12) 0.54264(13) 0.47909(6) 0.0505 Uani
C6 C 0.72317(13) 0.56137(16) 0.46364(5) 0.0584 Uani
C7 C 0.75908(18) 0.5926(2) 0.43114(7) 0.1002 Uani
H3 H 0.7388 0.6109 0.4121 0.1200 Uiso
C8 C 0.3794(8) 0.1897(4) 0.7284(4) 0.0840 Uiso
C8K C 0.3794(8) 0.1897(9) 0.7716(4) 0.0840 Uiso
O3R O 0.65906(8) 0.45861(7) 0.71038(3) 0.0444 Uani
C1R C 0.50316(16) 0.37532(17) 0.64184(7) 0.0906 Uani
H1R H 0.4649 0.3268 0.6533 0.1090 Uiso
C2R C 0.48945(16) 0.39344(17) 0.60657(7) 0.0910 Uani
H2R H 0.4408 0.3567 0.5947 0.1090 Uiso
O5S O 0.88953(12) 0.51814(9) 0.51143(4) 0.0551 Uani
O6S O 0.95348(16) 0.55247(13) 0.45720(4) 0.0704 Uani
C5S C 0.89821(18) 0.54264(13) 0.47909(6) 0.0505 Uani
C6S C 0.83820(21) 0.56137(16) 0.46364(5) 0.0584 Uani
C7S C 0.83352(27) 0.5926(2) 0.43114(7) 0.1002 Uani
H3S H 0.8721 0.6109 0.4121 0.1200 Uiso
Zn1A Zn 0.519994(9) 0.039988(13) 0.536604(8) 0.0352 Uani
Cr1A Cr 0.724829(16) 0.275169(34) 0.7500 0.0318 Uani
O2A O 0.78547(8) 0.21454(19) 0.7500 0.0536 Uani
N1A N 0.54088(6) 0.08176(8) 0.58897(5) 0.0391 Uani
O3A O 0.65906(8) 0.20045(11) 0.71038(3) 0.0444 Uani
C1A C 0.50316(16) 0.12784(23) 0.64184(7) 0.0906 Uani
H1A H 0.4649 0.1381 0.6533 0.1090 Uiso
C2A C 0.48945(16) 0.09601(23) 0.60657(7) 0.0910 Uani
H2A H 0.4408 0.0841 0.5947 0.1090 Uiso
C3A C 0.59276(7) 0.18552(10) 0.69661(6) 0.0390 Uani
C4A C 0.57205(7) 0.14410(10) 0.65960(6) 0.0391 Uani
O4A O 0.45764(12) 0.22882(13) 0.48449(5) 0.0468 Uani
O5A O 0.48186(9) 0.11047(12) 0.51143(4) 0.0551 Uani
O6A O 0.44753(13) 0.04652(16) 0.45720(4) 0.0704 Uani
C5A C 0.45736(13) 0.10179(18) 0.47909(6) 0.0505 Uani
C6A C 0.43863(16) 0.16180(21) 0.46364(5) 0.0584 Uani
C7A C 0.4074(2) 0.16648(27) 0.43114(7) 0.1002 Uani
H3A H 0.3891 0.1279 0.4121 0.1200 Uiso
C8A C 0.8103(4) 0.1897(9) 0.7284(4) 0.0840 Uiso
C8J C 0.8103(9) 0.1897(4) 0.7716(4) 0.0840 Uiso
O3T O 0.54139(7) 0.20045(11) 0.71038(3) 0.0444 Uani
C1T C 0.62468(17) 0.12784(23) 0.64184(7) 0.0906 Uani
H1T H 0.6732 0.1381 0.6533 0.1090 Uiso
C2T C 0.60656(17) 0.09601(23) 0.60657(7) 0.0910 Uani
H2T H 0.6433 0.0841 0.5947 0.1090 Uiso
O5R O 0.48186(9) 0.37139(8) 0.51143(4) 0.0551 Uani
O6R O 0.44753(13) 0.40101(10) 0.45720(4) 0.0704 Uani
C5R C 0.45736(13) 0.35557(12) 0.47909(6) 0.0505 Uani
C6R C 0.43863(16) 0.27683(13) 0.46364(5) 0.0584 Uani
C7R C 0.4074(2) 0.24092(18) 0.43114(7) 0.1002 Uani
H3R H 0.3891 0.2612 0.4121 0.1200 Uiso
Zn1B Zn 0.960012(13) 0.480006(9) 0.536604(8) 0.0352 Uani
Cr1B Cr 0.724831(34) 0.44966(3) 0.7500 0.0318 Uani
O2B O 0.78546(19) 0.57093(17) 0.7500 0.0536 Uani
N1B N 0.91824(8) 0.45912(6) 0.58897(5) 0.0391 Uani
O3B O 0.79955(11) 0.45861(7) 0.71038(3) 0.0444 Uani
C1B C 0.87216(23) 0.37532(17) 0.64184(7) 0.0906 Uani
H1B H 0.8619 0.3268 0.6533 0.1090 Uiso
C2B C 0.90399(23) 0.39344(17) 0.60657(7) 0.0910 Uani
H2B H 0.9159 0.3567 0.5947 0.1090 Uiso
C3B C 0.81448(10) 0.40724(7) 0.69661(6) 0.0390 Uani
C4B C 0.85590(10) 0.42795(7) 0.65960(6) 0.0391 Uani
O4B O 0.77118(13) 0.22882(6) 0.48449(5) 0.0468 Uani
O5B O 0.88953(12) 0.37139(8) 0.51143(4) 0.0551 Uani
O6B O 0.95348(16) 0.40101(10) 0.45720(4) 0.0704 Uani
C5B C 0.89821(18) 0.35557(12) 0.47909(6) 0.0505 Uani
C6B C 0.83820(21) 0.27683(13) 0.46364(5) 0.0584 Uani
C7B C 0.83352(27) 0.24092(18) 0.43114(7) 0.1002 Uani
H3B H 0.8721 0.2612 0.4121 0.1200 Uiso
C8B C 0.8103(9) 0.6206(8) 0.7284(4) 0.0840 Uiso
C8I C 0.8103(4) 0.6206(8) 0.7716(4) 0.0840 Uiso
O3S O 0.79955(11) 0.34094(8) 0.71038(3) 0.0444 Uani
C1S C 0.87216(23) 0.49684(16) 0.64184(7) 0.0906 Uani
H1S H 0.8619 0.5351 0.6533 0.1090 Uiso
C2S C 0.90399(23) 0.51055(16) 0.60657(7) 0.0910 Uani
H2S H 0.9159 0.5592 0.5947 0.1090 Uiso
O5T O 0.62861(8) 0.11047(12) 0.51143(4) 0.0551 Uani
O6T O 0.59899(10) 0.04652(16) 0.45720(4) 0.0704 Uani
C5T C 0.64443(12) 0.10179(18) 0.47909(6) 0.0505 Uani
C6T C 0.72317(13) 0.16180(21) 0.46364(5) 0.0584 Uani
C7T C 0.75908(18) 0.16648(27) 0.43114(7) 0.1002 Uani
H3T H 0.7388 0.1279 0.4121 0.1200 Uiso
Zn1I Zn 0.519994(9) 0.480006(9) 0.963396(8) 0.0352 Uani
N1I N 0.54088(6) 0.45912(6) 0.91103(5) 0.0391 Uani
O3I O 0.65906(8) 0.45861(7) 0.78962(3) 0.0444 Uani
C1I C 0.50316(16) 0.37532(17) 0.85816(7) 0.0906 Uani
H1I H 0.4649 0.3268 0.8467 0.1090 Uiso
C2I C 0.48945(16) 0.39344(17) 0.89343(7) 0.0910 Uani
H2I H 0.4408 0.3567 0.9053 0.1090 Uiso
C3I C 0.59276(7) 0.40724(7) 0.80339(6) 0.0390 Uani
C4I C 0.57205(7) 0.42795(7) 0.84040(6) 0.0391 Uani
O4I O 0.45764(12) 0.22882(6) 1.01551(5) 0.0468 Uani
O5I O 0.48186(9) 0.37139(8) 0.98857(4) 0.0551 Uani
O6I O 0.44753(13) 0.40101(10) 1.04280(4) 0.0704 Uani
C5I C 0.45736(13) 0.35557(12) 1.02091(6) 0.0505 Uani
C6I C 0.43863(16) 0.27683(13) 1.03636(5) 0.0584 Uani
C7I C 0.4074(2) 0.24092(18) 1.06886(7) 0.1002 Uani
H3I H 0.3891 0.2612 1.0879 0.1200 Uiso
O3O O 0.54139(7) 0.34094(8) 0.78962(3) 0.0444 Uani
C1O C 0.62468(17) 0.49684(16) 0.85816(7) 0.0906 Uani
H1O H 0.6732 0.5351 0.8467 0.1090 Uiso
C2O C 0.60656(17) 0.51055(16) 0.89343(7) 0.0910 Uani
H2O H 0.6433 0.5592 0.9053 0.1090 Uiso
O5P O 0.48186(9) 0.11047(12) 0.98857(4) 0.0551 Uani
O6P O 0.44753(13) 0.04652(16) 1.04280(4) 0.0704 Uani
C5P C 0.45736(13) 0.10179(18) 1.02091(6) 0.0505 Uani
C6P C 0.43863(16) 0.16180(21) 1.03636(5) 0.0584 Uani
C7P C 0.4074(2) 0.16648(27) 1.06886(7) 0.1002 Uani
H3P H 0.3891 0.1279 1.0879 0.1200 Uiso
Zn1J Zn 0.960012(13) 0.480006(9) 0.963396(8) 0.0352 Uani
N1J N 0.91824(8) 0.45912(6) 0.91103(5) 0.0391 Uani
O3J O 0.79955(11) 0.34094(8) 0.78962(3) 0.0444 Uani
C1J C 0.87216(23) 0.49684(16) 0.85816(7) 0.0906 Uani
H1J H 0.8619 0.5351 0.8467 0.1090 Uiso
C2J C 0.90399(23) 0.51055(16) 0.89343(7) 0.0910 Uani
H2J H 0.9159 0.5592 0.9053 0.1090 Uiso
C3J C 0.81448(10) 0.40724(7) 0.80339(6) 0.0390 Uani
C4J C 0.85590(10) 0.42795(7) 0.84040(6) 0.0391 Uani
O4J O 0.77118(13) 0.54236(12) 1.01551(5) 0.0468 Uani
O5J O 0.88953(12) 0.51814(9) 0.98857(4) 0.0551 Uani
O6J O 0.95348(16) 0.55247(13) 1.04280(4) 0.0704 Uani
C5J C 0.89821(18) 0.54264(13) 1.02091(6) 0.0505 Uani
C6J C 0.83820(21) 0.56137(16) 1.03636(5) 0.0584 Uani
C7J C 0.83352(27) 0.5926(2) 1.06886(7) 0.1002 Uani
H3J H 0.8721 0.6109 1.0879 0.1200 Uiso
O3Q O 0.79955(11) 0.45861(7) 0.78962(3) 0.0444 Uani
C1Q C 0.87216(23) 0.37532(17) 0.85816(7) 0.0906 Uani
H1Q H 0.8619 0.3268 0.8467 0.1090 Uiso
C2Q C 0.90399(23) 0.39344(17) 0.89343(7) 0.0910 Uani
H2Q H 0.9159 0.3567 0.9053 0.1090 Uiso
O5O O 0.62861(8) 0.51814(9) 0.98857(4) 0.0551 Uani
O6O O 0.59899(10) 0.55247(13) 1.04280(4) 0.0704 Uani
C5O C 0.64443(12) 0.54264(13) 1.02091(6) 0.0505 Uani
C6O C 0.72317(13) 0.56137(16) 1.03636(5) 0.0584 Uani
C7O C 0.75908(18) 0.5926(2) 1.06886(7) 0.1002 Uani
H3O H 0.7388 0.6109 1.0879 0.1200 Uiso
Zn1K Zn 0.519994(9) 0.039988(13) 0.963396(8) 0.0352 Uani
N1K N 0.54088(6) 0.08176(8) 0.91103(5) 0.0391 Uani
O3K O 0.54139(7) 0.20045(11) 0.78962(3) 0.0444 Uani
C1K C 0.62468(17) 0.12784(23) 0.85816(7) 0.0906 Uani
H1K H 0.6732 0.1381 0.8467 0.1090 Uiso
C2K C 0.60656(17) 0.09601(23) 0.89343(7) 0.0910 Uani
H2K H 0.6433 0.0841 0.9053 0.1090 Uiso
C3K C 0.59276(7) 0.18552(10) 0.80339(6) 0.0390 Uani
C4K C 0.57205(7) 0.14410(10) 0.84040(6) 0.0391 Uani
O4K O 0.77118(6) 0.22882(13) 1.01551(5) 0.0468 Uani
O5K O 0.62861(8) 0.11047(12) 0.98857(4) 0.0551 Uani
O6K O 0.59899(10) 0.04652(16) 1.04280(4) 0.0704 Uani
C5K C 0.64443(12) 0.10179(18) 1.02091(6) 0.0505 Uani
C6K C 0.72317(13) 0.16180(21) 1.03636(5) 0.0584 Uani
C7K C 0.75908(18) 0.16648(27) 1.06886(7) 0.1002 Uani
H3K H 0.7388 0.1279 1.0879 0.1200 Uiso
O3P O 0.65906(8) 0.20045(11) 0.78962(3) 0.0444 Uani
C1P C 0.50316(16) 0.12784(23) 0.85816(7) 0.0906 Uani
H1P H 0.4649 0.1381 0.8467 0.1090 Uiso
C2P C 0.48945(16) 0.09601(23) 0.89343(7) 0.0910 Uani
H2P H 0.4408 0.0841 0.9053 0.1090 Uiso
O5Q O 0.88953(12) 0.37139(8) 0.98857(4) 0.0551 Uani
O6Q O 0.95348(16) 0.40101(10) 1.04280(4) 0.0704 Uani
C5Q C 0.89821(18) 0.35557(12) 1.02091(6) 0.0505 Uani
C6Q C 0.83820(21) 0.27683(13) 1.03636(5) 0.0584 Uani
C7Q C 0.83352(27) 0.24092(18) 1.06886(7) 0.1002 Uani
H3Q H 0.8721 0.2612 1.0879 0.1200 Uiso
Zn1C Zn 0.480006(9) 0.519994(9) 1.036604(8) 0.0352 Uani
Zn1D Zn 0.480006(9) -0.039988(13) 1.036604(8) 0.0352 Uani
Zn1E Zn 1.039988(13) 0.519994(9) 1.036604(8) 0.0352 Uani
Zn1F Zn 0.480006(9) 0.519994(9) 0.463396(8) 0.0352 Uani
Zn1G Zn 1.039988(13) 0.519994(9) 0.463396(8) 0.0352 Uani
Zn1H Zn 0.480006(9) -0.039988(13) 0.463396(8) 0.0352 Uani
O6C O 0.40101(10) 0.44753(13) 0.95720(4) 0.0704 Uani
O6D O 0.55247(13) -0.04652(16) 0.95720(4) 0.0704 Uani
O6E O 1.04652(16) 0.59899(10) 0.95720(4) 0.0704 Uani
O6F O 0.55247(13) 0.59899(10) 0.54280(4) 0.0704 Uani
O6G O 1.04652(16) 0.44753(13) 0.54280(4) 0.0704 Uani
O6H O 0.40101(10) -0.04652(16) 0.54280(4) 0.0704 Uani
O6L O 0.40101(10) 0.44753(13) 0.54280(4) 0.0704 Uani
O6M O 0.55247(13) -0.04652(16) 0.54280(4) 0.0704 Uani
O6N O 1.04652(16) 0.59899(10) 0.54280(4) 0.0704 Uani
O6U O 0.55247(13) 0.59899(10) 0.95720(4) 0.0704 Uani
O6V O 1.04652(16) 0.44753(13) 0.95720(4) 0.0704 Uani
O6W O 0.40101(10) -0.04652(16) 0.95720(4) 0.0704 Uani
O7 O 0.6667 0.3333 0.63949(13) 0.0904 Uani
C9 C 0.6857(4) 0.3143(4) 0.6123(4) 0.0960 Uiso
C9A C 0.6857(4) 0.3714(6) 0.6123(4) 0.0960 Uiso
C9B C 0.6286(6) 0.3143(4) 0.6123(4) 0.0960 Uiso
loop_
_atom_site_aniso_label
_atom_site_aniso_U_11
_atom_site_aniso_U_22
_atom_site_aniso_U_33
_atom_site_aniso_U_23
_atom_site_aniso_U_13
_atom_site_aniso_U_12
Zn1 0.05162(18) 0.05162(18) 0.02095(17) 0.00337(5) -0.00337(5) 0.03968(17)
Cr1 0.0405(3) 0.0422(2) 0.0121(2) 0.000 0.000 0.02027(15)
O1 0.0379(12) 0.0379(12) 0.0154(16) 0.000 0.000 0.0189(6)
O2 0.0448(15) 0.0664(14) 0.0424(14) 0.000 0.000 0.0224(8)
N1 0.0526(9) 0.0526(9) 0.0244(9) 0.0053(4) -0.0053(4) 0.0356(11)
O3 0.0494(7) 0.0582(8) 0.0254(5) 0.0118(5) -0.0020(5) 0.0267(6)
C1 0.0887(18) 0.0744(16) 0.0553(13) 0.0259(12) -0.0381(13) 0.0008(14)
C2 0.0796(17) 0.0828(17) 0.0530(14) 0.0363(12) -0.0288(12) -0.0027(14)
C3 0.0526(11) 0.0526(11) 0.0212(10) 0.0026(5) -0.0026(5) 0.0333(13)
C4 0.0499(11) 0.0499(11) 0.0241(11) 0.0032(5) -0.0032(5) 0.0298(12)
O4 0.0402(6) 0.0709(12) 0.0396(9) 0.0026(8) 0.0013(4) 0.0355(6)
O5 0.0493(8) 0.0802(10) 0.0509(8) 0.0109(7) 0.0049(6) 0.0438(7)
O6 0.0623 0.1298 0.0482 0.0017 -0.0039 0.0698
C5 0.0502(11) 0.0708(13) 0.0464(11) -0.0054(9) -0.0045(9) 0.0421(10)
C6 0.0531(12) 0.0949(17) 0.0459(11) 0.0069(11) -0.0003(9) 0.0511(13)
C7 0.0864(19) 0.200(4) 0.0562(14) 0.0401(18) 0.0133(13) 0.103(2)
O3R 0.0582 0.0494 0.0254 0.002 -0.0118 0.0267
C1R 0.0744 0.0887 0.0553 0.0381 -0.0259 0.0008
C2R 0.0828 0.0796 0.053 0.0288 -0.0363 -0.0027
O5S 0.0419 0.0802 0.0509 0.0109 0.006 0.0364
O6S 0.0525 0.1298 0.0482 0.0017 0.0056 0.06
C5S 0.0368 0.0708 0.0464 -0.0054 -0.0009 0.0287
C6S 0.0458 0.0949 0.0459 0.0069 0.0072 0.0438
C7S 0.0804 0.2 0.0562 0.0401 0.0268 0.097
Zn1A 0.05162 0.02388 0.02095 -0.00674 -0.00337 0.01194
Cr1A 0.0422 0.04216 0.0121 0 0 0.02193
O2A 0.0664 0.0664 0.0424 0 0 0.044
N1A 0.0526 0.034 0.0244 -0.0106 -0.0053 0.017
O3A 0.0582 0.0542 0.0254 -0.0138 -0.0118 0.0315
C1A 0.0744 0.1615 0.0553 -0.064 -0.0259 0.0736
C2A 0.0828 0.1678 0.053 -0.0651 -0.0363 0.0855
C3A 0.0526 0.0386 0.0212 -0.0052 -0.0026 0.0193
C4A 0.0499 0.0402 0.0241 -0.0064 -0.0032 0.0201
O4A 0.0709 0.0401 0.0396 -0.0013 -0.0026 0.0354
O5A 0.0802 0.0419 0.0509 -0.006 -0.0109 0.0364
O6A 0.1298 0.0525 0.0482 -0.0056 -0.0017 0.06
C5A 0.0708 0.0368 0.0464 0.0009 0.0054 0.0287
C6A 0.0949 0.0458 0.0459 -0.0072 -0.0069 0.0438
C7A 0.2 0.0804 0.0562 -0.0268 -0.0401 0.097
O3T 0.0494 0.0542 0.0254 -0.0138 -0.002 0.0227
C1T 0.0887 0.1615 0.0553 -0.064 -0.0381 0.0879
C2T 0.0796 0.1678 0.053 -0.0651 -0.0288 0.0823
O5R 0.0802 0.0493 0.0509 -0.0049 -0.0109 0.0438
O6R 0.1298 0.0623 0.0482 0.0039 -0.0017 0.0698
C5R 0.0708 0.0502 0.0464 0.0045 0.0054 0.0421
C6R 0.0949 0.0531 0.0459 0.0003 -0.0069 0.0511
C7R 0.2 0.0864 0.0562 -0.0133 -0.0401 0.103
Zn1B 0.02388 0.05162 0.02095 0.00337 0.00674 0.01194
Cr1B 0.04216 0.0405 0.0121 0 0 0.02023
O2B 0.0664 0.0448 0.0424 0 0 0.0224
N1B 0.034 0.0526 0.0244 0.0053 0.0106 0.017
O3B 0.0542 0.0494 0.0254 0.002 0.0138 0.0227
C1B 0.1615 0.0887 0.0553 0.0381 0.064 0.0879
C2B 0.1678 0.0796 0.053 0.0288 0.0651 0.0823
C3B 0.0386 0.0526 0.0212 0.0026 0.0052 0.0193
C4B 0.0402 0.0499 0.0241 0.0032 0.0064 0.0201
O4B 0.0401 0.0402 0.0396 -0.0013 0.0013 0.0047
O5B 0.0419 0.0493 0.0509 -0.0049 0.006 0.0055
O6B 0.0525 0.0623 0.0482 0.0039 0.0056 -0.0075
C5B 0.0368 0.0502 0.0464 0.0045 -0.0009 0.0081
C6B 0.0458 0.0531 0.0459 0.0003 0.0072 0.002
C7B 0.0804 0.0864 0.0562 -0.0133 0.0268 -0.0166
O3S 0.0542 0.0582 0.0254 0.0118 0.0138 0.0315
C1S 0.1615 0.0744 0.0553 0.0259 0.064 0.0736
C2S 0.1678 0.0828 0.053 0.0363 0.0651 0.0855
O5T 0.0493 0.0419 0.0509 -0.006 0.0049 0.0055
O6T 0.0623 0.0525 0.0482 -0.0056 -0.0039 -0.0075
C5T 0.0502 0.0368 0.0464 0.0009 -0.0045 0.0081
C6T 0.0531 0.0458 0.0459 -0.0072 -0.0003 0.002
C7T 0.0864 0.0804 0.0562 -0.0268 0.0133 -0.0166
Zn1I 0.05162 0.05162 0.02095 -0.00337 0.00337 0.03968
N1I 0.0526 0.0526 0.0244 -0.0053 0.0053 0.0356
O3I 0.0582 0.0494 0.0254 -0.002 0.0118 0.0267
C1I 0.0744 0.0887 0.0553 -0.0381 0.0259 0.0008
C2I 0.0828 0.0796 0.053 -0.0288 0.0363 -0.0027
C3I 0.0526 0.0526 0.0212 -0.0026 0.0026 0.0333
C4I 0.0499 0.0499 0.0241 -0.0032 0.0032 0.0298
O4I 0.0709 0.0402 0.0396 0.0013 0.0026 0.0355
O5I 0.0802 0.0493 0.0509 0.0049 0.0109 0.0438
O6I 0.1298 0.0623 0.0482 -0.0039 0.0017 0.0698
C5I 0.0708 0.0502 0.0464 -0.0045 -0.0054 0.0421
C6I 0.0949 0.0531 0.0459 -0.0003 0.0069 0.0511
C7I 0.2 0.0864 0.0562 0.0133 0.0401 0.103
O3O 0.0494 0.0582 0.0254 -0.0118 0.002 0.0267
C1O 0.0887 0.0744 0.0553 -0.0259 0.0381 0.0008
C2O 0.0796 0.0828 0.053 -0.0363 0.0288 -0.0027
O5P 0.0802 0.0419 0.0509 0.006 0.0109 0.0364
O6P 0.1298 0.0525 0.0482 0.0056 0.0017 0.06
C5P 0.0708 0.0368 0.0464 -0.0009 -0.0054 0.0287
C6P 0.0949 0.0458 0.0459 0.0072 0.0069 0.0438
C7P 0.2 0.0804 0.0562 0.0268 0.0401 0.097
Zn1J 0.02388 0.05162 0.02095 -0.00337 -0.00674 0.01194
N1J 0.034 0.0526 0.0244 -0.0053 -0.0106 0.017
O3J 0.0542 0.0582 0.0254 -0.0118 -0.0138 0.0315
C1J 0.1615 0.0744 0.0553 -0.0259 -0.064 0.0736
C2J 0.1678 0.0828 0.053 -0.0363 -0.0651 0.0855
C3J 0.0386 0.0526 0.0212 -0.0026 -0.0052 0.0193
C4J 0.0402 0.0499 0.0241 -0.0032 -0.0064 0.0201
O4J 0.0401 0.0709 0.0396 -0.0026 -0.0013 0.0354
O5J 0.0419 0.0802 0.0509 -0.0109 -0.006 0.0364
O6J 0.0525 0.1298 0.0482 -0.0017 -0.0056 0.06
C5J 0.0368 0.0708 0.0464 0.0054 0.0009 0.0287
C6J 0.0458 0.0949 0.0459 -0.0069 -0.0072 0.0438
C7J 0.0804 0.2 0.0562 -0.0401 -0.0268 0.097
O3Q 0.0542 0.0494 0.0254 -0.002 -0.0138 0.0227
C1Q 0.1615 0.0887 0.0553 -0.0381 -0.064 0.0879
C2Q 0.1678 0.0796 0.053 -0.0288 -0.0651 0.0823
O5O 0.0493 0.0802 0.0509 -0.0109 -0.0049 0.0438
O6O 0.0623 0.1298 0.0482 -0.0017 0.0039 0.0698
C5O 0.0502 0.0708 0.0464 0.0054 0.0045 0.0421
C6O 0.0531 0.0949 0.0459 -0.0069 0.0003 0.0511
C7O 0.0864 0.2 0.0562 -0.0401 -0.0133 0.103
Zn1K 0.05162 0.02388 0.02095 0.00674 0.00337 0.01194
N1K 0.0526 0.034 0.0244 0.0106 0.0053 0.017
O3K 0.0494 0.0542 0.0254 0.0138 0.002 0.0227
C1K 0.0887 0.1615 0.0553 0.064 0.0381 0.0879
C2K 0.0796 0.1678 0.053 0.0651 0.0288 0.0823
C3K 0.0526 0.0386 0.0212 0.0052 0.0026 0.0193
C4K 0.0499 0.0402 0.0241 0.0064 0.0032 0.0201
O4K 0.0402 0.0401 0.0396 0.0013 -0.0013 0.0047
O5K 0.0493 0.0419 0.0509 0.006 -0.0049 0.0055
O6K 0.0623 0.0525 0.0482 0.0056 0.0039 -0.0075
C5K 0.0502 0.0368 0.0464 -0.0009 0.0045 0.0081
C6K 0.0531 0.0458 0.0459 0.0072 0.0003 0.002
C7K 0.0864 0.0804 0.0562 0.0268 -0.0133 -0.0166
O3P 0.0582 0.0542 0.0254 0.0138 0.0118 0.0315
C1P 0.0744 0.1615 0.0553 0.064 0.0259 0.0736
C2P 0.0828 0.1678 0.053 0.0651 0.0363 0.0855
O5Q 0.0419 0.0493 0.0509 0.0049 -0.006 0.0055
O6Q 0.0525 0.0623 0.0482 -0.0039 -0.0056 -0.0075
C5Q 0.0368 0.0502 0.0464 -0.0045 0.0009 0.0081
C6Q 0.0458 0.0531 0.0459 -0.0003 -0.0072 0.002
C7Q 0.0804 0.0864 0.0562 0.0133 -0.0268 -0.0166
Zn1C 0.05162 0.05162 0.02095 -0.00337 0.00337 0.03968
Zn1D 0.05162 0.02388 0.02095 0.00674 0.00337 0.01194
Zn1E 0.02388 0.05162 0.02095 -0.00337 -0.00674 0.01194
Zn1F 0.05162 0.05162 0.02095 0.00337 -0.00337 0.03968
Zn1G 0.02388 0.05162 0.02095 0.00337 0.00674 0.01194
Zn1H 0.05162 0.02388 0.02095 -0.00674 -0.00337 0.01194
O6C 0.0623 0.1298 0.0482 -0.0017 0.0039 0.0698
O6D 0.1298 0.0525 0.0482 0.0056 0.0017 0.06
O6E 0.0525 0.0623 0.0482 -0.0039 -0.0056 -0.0075
O6F 0.1298 0.0623 0.0482 0.0039 -0.0017 0.0698
O6G 0.0525 0.1298 0.0482 0.0017 0.0056 0.06
O6H 0.0623 0.0525 0.0482 -0.0056 -0.0039 -0.0075
O6L 0.0623 0.1298 0.0482 0.0017 -0.0039 0.0698
O6M 0.1298 0.0525 0.0482 -0.0056 -0.0017 0.06
O6N 0.0525 0.0623 0.0482 0.0039 0.0056 -0.0075
O6U 0.1298 0.0623 0.0482 -0.0039 0.0017 0.0698
O6V 0.0525 0.1298 0.0482 -0.0017 -0.0056 0.06
O6W 0.0623 0.0525 0.0482 0.0056 0.0039 -0.0075
O7 0.101(2) 0.101(2) 0.069(3) 0.000 0.000 0.0504(11)
loop_
_geom_bond_atom_site_label_1
_geom_bond_atom_site_label_2
_geom_bond_site_symmetry_1
_geom_bond_site_symmetry_2
Zn1 N1 1_555 1_555
Cr1 O1 1_555 1_555
O1 Cr1A 1_555 1_555
O2 Cr1 1_555 1_555
N1 C2 1_555 1_555
O3 Cr1 1_555 1_555
C1 H1 1_555 1_555
C2 C1 1_555 1_555
H2 C2 1_555 1_555
C3 O3 1_555 1_555
C4 C1 1_555 1_555
O4 C6 1_555 1_555
O5 Zn1 1_555 1_555
O6 C5 1_555 1_555
C5 O5 1_555 1_555
C6 C5 1_555 1_555
C7 C6 1_555 1_555
H3 C7 1_555 1_555
C8 O2 1_555 1_555
O7 C9 1_555 1_555
C8K O2 1_555 1_555
O3R C3 1_555 1_555
C1R C4 1_555 1_555
H1R C1R 1_555 1_555
C2R N1 1_555 1_555
H2R C2R 1_555 1_555
O5S C5S 1_555 1_555
O6S C5S 1_555 1_555
C5S C6S 1_555 1_555
C6S O4 1_555 1_555
C7S C7 1_555 1_555
H3S C7S 1_555 1_555
Zn1A N1A 1_555 1_555
Cr1A O2A 1_555 1_555
O2A C8A 1_555 1_555
N1A C2A 1_555 1_555
O3A Cr1A 1_555 1_555
C1A H1A 1_555 1_555
C2A C1A 1_555 1_555
H2A C2A 1_555 1_555
C3A O3A 1_555 1_555
C4A C1A 1_555 1_555
O4A C6A 1_555 1_555
O5A Zn1A 1_555 1_555
O6A C5A 1_555 1_555
C5A O5A 1_555 1_555
C6A C5A 1_555 1_555
C7A C6A 1_555 1_555
H3A C7A 1_555 1_555
C8J O2A 1_555 1_555
O3T Cr1 1_555 1_555
C1T C4A 1_555 1_555
H1T C1T 1_555 1_555
C2T N1A 1_555 1_555
H2T C2T 1_555 1_555
O5R Zn1 1_555 1_555
O6R C5R 1_555 1_555
C5R O5R 1_555 1_555
C6R O4A 1_555 1_555
C7R C7A 1_555 1_555
H3R C7R 1_555 1_555
Zn1B O5S 1_555 1_555
Cr1B O1 1_555 1_555
O2B Cr1B 1_555 1_555
N1B Zn1B 1_555 1_555
O3B Cr1B 1_555 1_555
C1B H1B 1_555 1_555
C2B N1B 1_555 1_555
H2B C2B 1_555 1_555
C3B O3B 1_555 1_555
C4B C1B 1_555 1_555
O4B C6B 1_555 1_555
O5B Zn1B 1_555 1_555
O6B C5B 1_555 1_555
C5B O5B 1_555 1_555
C6B C5B 1_555 1_555
C7B C6B 1_555 1_555
H3B C7B 1_555 1_555
C8B O2B 1_555 1_555
C8I O2B 1_555 1_555
O3S Cr1A 1_555 1_555
C1S C4B 1_555 1_555
H1S C1S 1_555 1_555
C2S N1B 1_555 1_555
H2S C2S 1_555 1_555
O5T Zn1A 1_555 1_555
O6T C5T 1_555 1_555
C5T O5T 1_555 1_555
C6T O4B 1_555 1_555
C7T C7B 1_555 1_555
H3T C7T 1_555 1_555
Zn1I N1I 1_555 1_555
N1I C2I 1_555 1_555
O3I Cr1B 1_555 1_555
C1I H1I 1_555 1_555
C2I C1I 1_555 1_555
H2I C2I 1_555 1_555
C3I O3I 1_555 1_555
C4I C1I 1_555 1_555
O4I C6I 1_555 1_555
O5I Zn1I 1_555 1_555
O6I C5I 1_555 1_555
C5I O5I 1_555 1_555
C6I C5I 1_555 1_555
C7I C6I 1_555 1_555
H3I C7I 1_555 1_555
O3O Cr1 1_555 1_555
C1O C4I 1_555 1_555
H1O C1O 1_555 1_555
C2O N1I 1_555 1_555
H2O C2O 1_555 1_555
O5P C5P 1_555 1_555
O6P C5P 1_555 1_555
C5P C6P 1_555 1_555
C6P O4I 1_555 1_555
C7P C7I 1_555 1_555
H3P C7P 1_555 1_555
Zn1J N1J 1_555 1_555
N1J C2J 1_555 1_555
O3J Cr1A 1_555 1_555
C1J H1J 1_555 1_555
C2J C1J 1_555 1_555
H2J C2J 1_555 1_555
C3J O3J 1_555 1_555
C4J C1J 1_555 1_555
O4J C6J 1_555 1_555
O5J Zn1J 1_555 1_555
O6J C5J 1_555 1_555
C5J O5J 1_555 1_555
C6J C5J 1_555 1_555
C7J C6J 1_555 1_555
H3J C7J 1_555 1_555
O3Q Cr1B 1_555 1_555
C1Q C4J 1_555 1_555
H1Q C1Q 1_555 1_555
C2Q N1J 1_555 1_555
H2Q C2Q 1_555 1_555
O5O Zn1I 1_555 1_555
O6O C5O 1_555 1_555
C5O O5O 1_555 1_555
C6O O4J 1_555 1_555
C7O C7J 1_555 1_555
H3O C7O 1_555 1_555
Zn1K O5P 1_555 1_555
N1K Zn1K 1_555 1_555
O3K Cr1 1_555 1_555
C1K H1K 1_555 1_555
C2K N1K 1_555 1_555
H2K C2K 1_555 1_555
C3K O3K 1_555 1_555
C4K C1K 1_555 1_555
O4K C6K 1_555 1_555
O5K Zn1K 1_555 1_555
O6K C5K 1_555 1_555
C5K O5K 1_555 1_555
C6K C5K 1_555 1_555
C7K C6K 1_555 1_555
H3K C7K 1_555 1_555
O3P Cr1A 1_555 1_555
C1P C4K 1_555 1_555
H1P C1P 1_555 1_555
C2P N1K 1_555 1_555
H2P C2P 1_555 1_555
O5Q Zn1J 1_555 1_555
O6Q C5Q 1_555 1_555
C5Q O5Q 1_555 1_555
C6Q O4K 1_555 1_555
C7Q C7K 1_555 1_555
H3Q C7Q 1_555 1_555
Zn1C O6I 1_555 1_555
Zn1D O6P 1_555 1_555
Zn1E O6J 1_555 1_555
Zn1F O6 1_555 1_555
Zn1G O6S 1_555 1_555
Zn1H O6A 1_555 1_555
O6C Zn1I 1_555 1_555
O6D Zn1K 1_555 1_555
O6E Zn1J 1_555 1_555
O6F Zn1 1_555 1_555
O6G Zn1B 1_555 1_555
O6H Zn1A 1_555 1_555
O6L Zn1 1_555 1_555
O6M Zn1A 1_555 1_555
O6N Zn1B 1_555 1_555
O6U Zn1I 1_555 1_555
O6V Zn1J 1_555 1_555
O6W Zn1K 1_555 1_555
C9A O7 1_555 1_555
C9B O7 1_555 1_555
C3 C4 1_555 1_555
O3R Cr1B 1_555 1_555
C1R C2R 1_555 1_555
C6S C7S 1_555 1_555
C3A C4A 1_555 1_555
C3A O3T 1_555 1_555
C1T C2T 1_555 1_555
O6R Zn1F 1_555 1_555
C5R C6R 1_555 1_555
C6R C7R 1_555 1_555
C1B C2B 1_555 1_555
C3B C4B 1_555 1_555
C3B O3S 1_555 1_555
O6B Zn1G 1_555 1_555
C1S C2S 1_555 1_555
O6T Zn1H 1_555 1_555
C5T C6T 1_555 1_555
C6T C7T 1_555 1_555
C3I C4I 1_555 1_555
C3I O3O 1_555 1_555
C1O C2O 1_555 1_555
C6P C7P 1_555 1_555
C3J C4J 1_555 1_555
C3J O3Q 1_555 1_555
C1Q C2Q 1_555 1_555
O6O Zn1C 1_555 1_555
C5O C6O 1_555 1_555
C6O C7O 1_555 1_555
C1K C2K 1_555 1_555
C3K C4K 1_555 1_555
C3K O3P 1_555 1_555
O6K Zn1D 1_555 1_555
C1P C2P 1_555 1_555
O6Q Zn1E 1_555 1_555
C5Q C6Q 1_555 1_555
C6Q C7Q 1_555 1_555

#END
