
#######################################################################
#
#                 Cambridge Crystallographic Data Centre
#                                CCDC 
#
#######################################################################
#
# If this CIF has been generated from an entry in the Cambridge 
# Structural Database, then it will include bibliographic, chemical, 
# crystal, experimental, refinement or atomic coordinate data resulting 
# from the CCDC's data processing and validation procedures.
#
#######################################################################

data_YILCON
_chemical_formula_moiety         'C114 H128 Cr3 N6 O52 Zn12'
_symmetry_cell_setting           hexagonal
_symmetry_space_group_name_H-M   'P 63/m m c'
_symmetry_Int_Tables_number      194
_space_group_name_Hall           '-P 6c 2c'
loop_
_symmetry_equiv_pos_site_id
_symmetry_equiv_pos_as_xyz
1 x,y,z
2 -y,x-y,z
3 -x+y,-x,z
4 -x,-y,1/2+z
5 y,-x+y,1/2+z
6 x-y,x,1/2+z
7 y,x,-z
8 x-y,-y,-z
9 -x,-x+y,-z
10 -y,-x,1/2-z
11 -x+y,y,1/2-z
12 x,x-y,1/2-z
13 -x,-y,-z
14 y,-x+y,-z
15 x-y,x,-z
16 x,y,1/2-z
17 -y,x-y,1/2-z
18 -x+y,-x,1/2-z
19 -y,-x,z
20 -x+y,y,z
21 x,x-y,z
22 y,x,1/2+z
23 x-y,-y,1/2+z
24 -x,-x+y,1/2+z
_cell_length_a                   19.0495(5)
_cell_length_b                   19.0495(5)
_cell_length_c                   36.0366(9)
_cell_angle_alpha                90
_cell_angle_beta                 90
_cell_angle_gamma                120
_cell_volume                     11325.1
loop_
_atom_site_label
_atom_site_type_symbol
_atom_site_fract_x
_atom_site_fract_y
_atom_site_fract_z
_atom_site_U_iso_or_equiv
_atom_site_thermal_displace_type
Cr1 Cr 0.72471(3) 0.27529(3) -0.2500 0.0427 Uani
Zn1 Zn 0.523922(16) 0.04784(3) -0.033992(14) 0.0486 Uani
O1 O 0.6667 0.3333 -0.2500 0.0440 Uani
O2 O 0.78577(15) 0.21423(15) -0.2500 0.0683 Uani
O3 O 0.48316(17) 0.11347(14) -0.00741(7) 0.0679 Uani
O4 O 0.4440(3) 0.03726(19) 0.04326(7) 0.1031 Uani
C1 C 0.4300(3) 0.1521(2) 0.04164(10) 0.0837 Uani
C2 C 0.4547(3) 0.0969(2) 0.02465(10) 0.0705 Uani
C3 C 0.3747(8) 0.1292(11) 0.0709(3) 0.1209 Uani
H1 H 0.3578 0.0768 0.0807 0.1450 Uiso
C4 C 0.4458(3) 0.22290(16) 0.02441(14) 0.0662 Uani
H2 H 0.4681 0.2340 0.0001 0.0800 Uiso
C5 C 0.3399(13) 0.1700(7) 0.0881(6) 0.1347 Uani
C6 C 0.2847(15) 0.1424(8) 0.1225(7) 0.1591 Uani
O5 O 0.65927(15) 0.20074(14) -0.21014(5) 0.0534 Uani
N1 N 0.54560(10) 0.0912(2) -0.08648(9) 0.0474 Uani
C7 C 0.4944(3) 0.1044(3) -0.10413(11) 0.0872 Uani
H3 H 0.4462 0.0939 -0.0916 0.1050 Uiso
C8 C 0.5054(3) 0.1331(3) -0.14026(11) 0.0879 Uani
H4 H 0.4661 0.1423 -0.1520 0.1050 Uiso
C9 C 0.59281(13) 0.1856(3) -0.19612(10) 0.0493 Uani
C10 C 0.57374(13) 0.1475(3) -0.15829(11) 0.0471 Uani
H5 H 0.2246 0.0220 0.1057 0.2070 Uiso
H6 H 0.1773 0.0686 0.0945 0.2070 Uiso
H7 H 0.1755 0.0406 0.1365 0.2070 Uiso
C11 C 0.2087(16) 0.0611(15) 0.1140(9) 0.1358 Uani
H8 H 0.3165 0.2496 0.1503 0.2590 Uiso
H9 H 0.3392 0.2581 0.1453 0.3060 Uiso
H10 H 0.2213 0.1863 0.1521 0.2590 Uiso
H11 H 0.2606 0.2363 0.1149 0.2590 Uiso
C12 C 0.269(3) 0.210(2) 0.1362(19) 0.1722 Uani
O3T O 0.48316(17) 0.36969(22) -0.00741(7) 0.0679 Uani
O4T O 0.4440(3) 0.40674(36) 0.04326(7) 0.1031 Uani
C1T C 0.4300(3) 0.2779(4) 0.04164(10) 0.0837 Uani
C2T C 0.4547(3) 0.3578(4) 0.02465(10) 0.0705 Uani
C3T C 0.3747(8) 0.2455(14) 0.0709(3) 0.1209 Uani
H1T H 0.3578 0.2810 0.0807 0.1450 Uiso
H5T H 0.2246 0.2026 0.1057 0.2070 Uiso
H6T H 0.1773 0.1087 0.0945 0.2070 Uiso
H7T H 0.1755 0.1349 0.1365 0.2070 Uiso
C11T C 0.2087(16) 0.1476(22) 0.1140(9) 0.1358 Uani
H8T H 0.3165 0.0669 0.1503 0.2590 Uiso
H9T H 0.3392 0.0811 0.1453 0.3060 Uiso
H10T H 0.2213 0.0350 0.1521 0.2590 Uiso
H11T H 0.2606 0.0243 0.1149 0.2590 Uiso
C12T C 0.269(3) 0.059(4) 0.1362(19) 0.1722 Uani
O5S O 0.54147(21) 0.20074(14) -0.21014(5) 0.0534 Uani
C7S C 0.6100(4) 0.1044(3) -0.10413(11) 0.0872 Uani
H3S H 0.6477 0.0939 -0.0916 0.1050 Uiso
C8S C 0.6277(4) 0.1331(3) -0.14026(11) 0.0879 Uani
H4S H 0.6762 0.1423 -0.1520 0.1050 Uiso
Cr1A Cr 0.72471(3) 0.44942(4) -0.2500 0.0427 Uani
Zn1A Zn 0.95216(3) 0.476082(34) -0.033992(14) 0.0486 Uani
O2A O 0.78577(15) 0.57154(21) -0.2500 0.0683 Uani
O3A O 0.88653(14) 0.36969(22) -0.00741(7) 0.0679 Uani
O4A O 0.96274(19) 0.40674(36) 0.04326(7) 0.1031 Uani
C1A C 0.8479(2) 0.2779(4) 0.04164(10) 0.0837 Uani
C2A C 0.9031(2) 0.3578(4) 0.02465(10) 0.0705 Uani
C3A C 0.8708(11) 0.2455(14) 0.0709(3) 0.1209 Uani
H1A H 0.9232 0.2810 0.0807 0.1450 Uiso
C4A C 0.77710(16) 0.22290(34) 0.02441(14) 0.0662 Uani
H2A H 0.7660 0.2341 0.0001 0.0800 Uiso
C5A C 0.8300(7) 0.1699(15) 0.0881(6) 0.1347 Uani
C6A C 0.8576(8) 0.1423(17) 0.1225(7) 0.1591 Uani
O5A O 0.79926(14) 0.45853(21) -0.21014(5) 0.0534 Uani
N1A N 0.9088(2) 0.45440(22) -0.08648(9) 0.0474 Uani
C7A C 0.8956(3) 0.3900(4) -0.10413(11) 0.0872 Uani
H3A H 0.9061 0.3523 -0.0916 0.1050 Uiso
C8A C 0.8669(3) 0.3723(4) -0.14026(11) 0.0879 Uani
H4A H 0.8577 0.3238 -0.1520 0.1050 Uiso
C9A C 0.8144(3) 0.40721(33) -0.19612(10) 0.0493 Uani
C10A C 0.8525(3) 0.42624(33) -0.15829(11) 0.0471 Uani
H5A H 0.9780 0.2026 0.1057 0.2070 Uiso
H6A H 0.9314 0.1087 0.0945 0.2070 Uiso
H7A H 0.9594 0.1349 0.1365 0.2070 Uiso
C11A C 0.9389(15) 0.1476(22) 0.1140(9) 0.1358 Uani
H8A H 0.7504 0.0669 0.1503 0.2590 Uiso
H9A H 0.7419 0.0811 0.1453 0.3060 Uiso
H10A H 0.8137 0.0350 0.1521 0.2590 Uiso
H11A H 0.7637 0.0243 0.1149 0.2590 Uiso
C12A C 0.790(2) 0.059(4) 0.1362(19) 0.1722 Uani
O3S O 0.63031(22) 0.11347(14) -0.00741(7) 0.0679 Uani
O4S O 0.59326(36) 0.03726(19) 0.04326(7) 0.1031 Uani
C1S C 0.7221(4) 0.1521(2) 0.04164(10) 0.0837 Uani
C2S C 0.6422(4) 0.0969(2) 0.02465(10) 0.0705 Uani
C3S C 0.7545(14) 0.1292(11) 0.0709(3) 0.1209 Uani
H1S H 0.7190 0.0768 0.0807 0.1450 Uiso
H5S H 0.7974 0.0220 0.1057 0.2070 Uiso
H6S H 0.8913 0.0686 0.0945 0.2070 Uiso
H7S H 0.8651 0.0406 0.1365 0.2070 Uiso
C11S C 0.8524(22) 0.0611(15) 0.1140(9) 0.1358 Uani
H8S H 0.9331 0.2496 0.1503 0.2590 Uiso
H9S H 0.9189 0.2581 0.1453 0.3060 Uiso
H10S H 0.9650 0.1863 0.1521 0.2590 Uiso
H11S H 0.9757 0.2363 0.1149 0.2590 Uiso
C12S C 0.941(4) 0.210(2) 0.1362(19) 0.1722 Uani
O5R O 0.79926(14) 0.34073(15) -0.21014(5) 0.0534 Uani
C7R C 0.8956(3) 0.5056(3) -0.10413(11) 0.0872 Uani
H3R H 0.9061 0.5538 -0.0916 0.1050 Uiso
C8R C 0.8669(3) 0.4946(3) -0.14026(11) 0.0879 Uani
H4R H 0.8577 0.5339 -0.1520 0.1050 Uiso
Cr1B Cr 0.55058(4) 0.27529(3) -0.2500 0.0427 Uani
Zn1B Zn 0.523918(34) 0.476078(16) -0.033992(14) 0.0486 Uani
O2B O 0.42846(21) 0.21423(15) -0.2500 0.0683 Uani
O3B O 0.63031(22) 0.51684(17) -0.00741(7) 0.0679 Uani
O4B O 0.59326(36) 0.5560(3) 0.04326(7) 0.1031 Uani
C1B C 0.7221(4) 0.5700(3) 0.04164(10) 0.0837 Uani
C2B C 0.6422(4) 0.5453(3) 0.02465(10) 0.0705 Uani
C3B C 0.7545(14) 0.6253(8) 0.0709(3) 0.1209 Uani
H1B H 0.7190 0.6422 0.0807 0.1450 Uiso
C4B C 0.77710(34) 0.5542(3) 0.02441(14) 0.0662 Uani
H2B H 0.7659 0.5319 0.0001 0.0800 Uiso
C5B C 0.8301(15) 0.6601(13) 0.0881(6) 0.1347 Uani
C6B C 0.8577(17) 0.7153(15) 0.1225(7) 0.1591 Uani
O5B O 0.54147(21) 0.34073(15) -0.21014(5) 0.0534 Uani
N1B N 0.54560(22) 0.45440(10) -0.08648(9) 0.0474 Uani
C7B C 0.6100(4) 0.5056(3) -0.10413(11) 0.0872 Uani
H3B H 0.6477 0.5538 -0.0916 0.1050 Uiso
C8B C 0.6277(4) 0.4946(3) -0.14026(11) 0.0879 Uani
H4B H 0.6762 0.5339 -0.1520 0.1050 Uiso
C9B C 0.59279(33) 0.40719(13) -0.19612(10) 0.0493 Uani
C10B C 0.57376(33) 0.42626(13) -0.15829(11) 0.0471 Uani
H5B H 0.7974 0.7754 0.1057 0.2070 Uiso
H6B H 0.8913 0.8227 0.0945 0.2070 Uiso
H7B H 0.8651 0.8245 0.1365 0.2070 Uiso
C11B C 0.8524(22) 0.7913(16) 0.1140(9) 0.1358 Uani
H8B H 0.9331 0.6835 0.1503 0.2590 Uiso
H9B H 0.9189 0.6608 0.1453 0.3060 Uiso
H10B H 0.9650 0.7787 0.1521 0.2590 Uiso
H11B H 0.9757 0.7394 0.1149 0.2590 Uiso
C12B C 0.941(4) 0.731(3) 0.1362(19) 0.1722 Uani
O3R O 0.88653(14) 0.51684(17) -0.00741(7) 0.0679 Uani
O4R O 0.96274(19) 0.5560(3) 0.04326(7) 0.1031 Uani
C1R C 0.8479(2) 0.5700(3) 0.04164(10) 0.0837 Uani
C2R C 0.9031(2) 0.5453(3) 0.02465(10) 0.0705 Uani
C3R C 0.8708(11) 0.6253(8) 0.0709(3) 0.1209 Uani
H1R H 0.9232 0.6422 0.0807 0.1450 Uiso
H5R H 0.9780 0.7754 0.1057 0.2070 Uiso
H6R H 0.9314 0.8227 0.0945 0.2070 Uiso
H7R H 0.9594 0.8245 0.1365 0.2070 Uiso
C11R C 0.9389(15) 0.7913(16) 0.1140(9) 0.1358 Uani
H8R H 0.7504 0.6835 0.1503 0.2590 Uiso
H9R H 0.7419 0.6608 0.1453 0.3060 Uiso
H10R H 0.8137 0.7787 0.1521 0.2590 Uiso
H11R H 0.7637 0.7394 0.1149 0.2590 Uiso
C12R C 0.790(2) 0.731(3) 0.1362(19) 0.1722 Uani
O5T O 0.65927(15) 0.45853(21) -0.21014(5) 0.0534 Uani
C7T C 0.4944(3) 0.3900(4) -0.10413(11) 0.0872 Uani
H3T H 0.4462 0.3523 -0.0916 0.1050 Uiso
C8T C 0.5054(3) 0.3723(4) -0.14026(11) 0.0879 Uani
H4T H 0.4661 0.3238 -0.1520 0.1050 Uiso
Zn1I Zn 0.95216(3) 0.476078(16) -0.466008(14) 0.0486 Uani
O3I O 0.88653(14) 0.51684(17) -0.49259(7) 0.0679 Uani
O4I O 0.96274(19) 0.5560(3) -0.54326(7) 0.1031 Uani
C1I C 0.8479(2) 0.5700(3) -0.54164(10) 0.0837 Uani
C2I C 0.9031(2) 0.5453(3) -0.52465(10) 0.0705 Uani
C3I C 0.8708(11) 0.6253(8) -0.5709(3) 0.1209 Uani
H1I H 0.9232 0.6422 -0.5807 0.1450 Uiso
C4I C 0.77710(16) 0.5542(3) -0.52441(14) 0.0662 Uani
H2I H 0.7660 0.5319 -0.5001 0.0800 Uiso
C5I C 0.8300(7) 0.6601(13) -0.5881(6) 0.1347 Uani
C6I C 0.8576(8) 0.7153(15) -0.6225(7) 0.1591 Uani
O5I O 0.79926(14) 0.34073(15) -0.28986(5) 0.0534 Uani
N1I N 0.9088(2) 0.45440(10) -0.41352(9) 0.0474 Uani
C7I C 0.8956(3) 0.5056(3) -0.39587(11) 0.0872 Uani
H3I H 0.9061 0.5538 -0.4084 0.1050 Uiso
C8I C 0.8669(3) 0.4946(3) -0.35974(11) 0.0879 Uani
H4I H 0.8577 0.5339 -0.3480 0.1050 Uiso
C9I C 0.8144(3) 0.40719(13) -0.30388(10) 0.0493 Uani
C10I C 0.8525(3) 0.42626(13) -0.34171(11) 0.0471 Uani
H5I H 0.9780 0.7754 -0.6057 0.2070 Uiso
H6I H 0.9314 0.8227 -0.5945 0.2070 Uiso
H7I H 0.9594 0.8245 -0.6365 0.2070 Uiso
C11I C 0.9389(15) 0.7913(16) -0.6140(9) 0.1358 Uani
H8I H 0.7504 0.6835 -0.6503 0.2590 Uiso
H9I H 0.7419 0.6608 -0.6453 0.3060 Uiso
H10I H 0.8137 0.7787 -0.6521 0.2590 Uiso
H11I H 0.7637 0.7394 -0.6149 0.2590 Uiso
C12I C 0.790(2) 0.731(3) -0.6362(19) 0.1722 Uani
O3Q O 0.63031(22) 0.51684(17) -0.49259(7) 0.0679 Uani
O4Q O 0.59326(36) 0.5560(3) -0.54326(7) 0.1031 Uani
C1Q C 0.7221(4) 0.5700(3) -0.54164(10) 0.0837 Uani
C2Q C 0.6422(4) 0.5453(3) -0.52465(10) 0.0705 Uani
C3Q C 0.7545(14) 0.6253(8) -0.5709(3) 0.1209 Uani
H1Q H 0.7190 0.6422 -0.5807 0.1450 Uiso
H5Q H 0.7974 0.7754 -0.6057 0.2070 Uiso
H6Q H 0.8913 0.8227 -0.5945 0.2070 Uiso
H7Q H 0.8651 0.8245 -0.6365 0.2070 Uiso
C11Q C 0.8524(22) 0.7913(16) -0.6140(9) 0.1358 Uani
H8Q H 0.9331 0.6835 -0.6503 0.2590 Uiso
H9Q H 0.9189 0.6608 -0.6453 0.3060 Uiso
H10Q H 0.9650 0.7787 -0.6521 0.2590 Uiso
H11Q H 0.9757 0.7394 -0.6149 0.2590 Uiso
C12Q C 0.941(4) 0.731(3) -0.6362(19) 0.1722 Uani
O5P O 0.79926(14) 0.45853(21) -0.28986(5) 0.0534 Uani
C7P C 0.8956(3) 0.3900(4) -0.39587(11) 0.0872 Uani
H3P H 0.9061 0.3523 -0.4084 0.1050 Uiso
C8P C 0.8669(3) 0.3723(4) -0.35974(11) 0.0879 Uani
H4P H 0.8577 0.3238 -0.3480 0.1050 Uiso
Zn1J Zn 0.523918(34) 0.04784(3) -0.466008(14) 0.0486 Uani
O3J O 0.63031(22) 0.11347(14) -0.49259(7) 0.0679 Uani
O4J O 0.59326(36) 0.03726(19) -0.54326(7) 0.1031 Uani
C1J C 0.7221(4) 0.1521(2) -0.54164(10) 0.0837 Uani
C2J C 0.6422(4) 0.0969(2) -0.52465(10) 0.0705 Uani
C3J C 0.7545(14) 0.1292(11) -0.5709(3) 0.1209 Uani
H1J H 0.7190 0.0768 -0.5807 0.1450 Uiso
C4J C 0.77710(34) 0.22290(16) -0.52441(14) 0.0662 Uani
H2J H 0.7659 0.2340 -0.5001 0.0800 Uiso
C5J C 0.8301(15) 0.1700(7) -0.5881(6) 0.1347 Uani
C6J C 0.8577(17) 0.1424(8) -0.6225(7) 0.1591 Uani
O5J O 0.54147(21) 0.20074(14) -0.28986(5) 0.0534 Uani
N1J N 0.54560(22) 0.0912(2) -0.41352(9) 0.0474 Uani
C7J C 0.6100(4) 0.1044(3) -0.39587(11) 0.0872 Uani
H3J H 0.6477 0.0939 -0.4084 0.1050 Uiso
C8J C 0.6277(4) 0.1331(3) -0.35974(11) 0.0879 Uani
H4J H 0.6762 0.1423 -0.3480 0.1050 Uiso
C9J C 0.59279(33) 0.1856(3) -0.30388(10) 0.0493 Uani
C10J C 0.57376(33) 0.1475(3) -0.34171(11) 0.0471 Uani
H5J H 0.7974 0.0220 -0.6057 0.2070 Uiso
H6J H 0.8913 0.0686 -0.5945 0.2070 Uiso
H7J H 0.8651 0.0406 -0.6365 0.2070 Uiso
C11J C 0.8524(22) 0.0611(15) -0.6140(9) 0.1358 Uani
H8J H 0.9331 0.2496 -0.6503 0.2590 Uiso
H9J H 0.9189 0.2581 -0.6453 0.3060 Uiso
H10J H 0.9650 0.1863 -0.6521 0.2590 Uiso
H11J H 0.9757 0.2363 -0.6149 0.2590 Uiso
C12J C 0.941(4) 0.210(2) -0.6362(19) 0.1722 Uani
O3P O 0.88653(14) 0.36969(22) -0.49259(7) 0.0679 Uani
O4P O 0.96274(19) 0.40674(36) -0.54326(7) 0.1031 Uani
C1P C 0.8479(2) 0.2779(4) -0.54164(10) 0.0837 Uani
C2P C 0.9031(2) 0.3578(4) -0.52465(10) 0.0705 Uani
C3P C 0.8708(11) 0.2455(14) -0.5709(3) 0.1209 Uani
H1P H 0.9232 0.2810 -0.5807 0.1450 Uiso
H5P H 0.9780 0.2026 -0.6057 0.2070 Uiso
H6P H 0.9314 0.1087 -0.5945 0.2070 Uiso
H7P H 0.9594 0.1349 -0.6365 0.2070 Uiso
C11P C 0.9389(15) 0.1476(22) -0.6140(9) 0.1358 Uani
H8P H 0.7504 0.0669 -0.6503 0.2590 Uiso
H9P H 0.7419 0.0811 -0.6453 0.3060 Uiso
H10P H 0.8137 0.0350 -0.6521 0.2590 Uiso
H11P H 0.7637 0.0243 -0.6149 0.2590 Uiso
C12P C 0.790(2) 0.059(4) -0.6362(19) 0.1722 Uani
O5O O 0.65927(15) 0.20074(14) -0.28986(5) 0.0534 Uani
C7O C 0.4944(3) 0.1044(3) -0.39587(11) 0.0872 Uani
H3O H 0.4462 0.0939 -0.4084 0.1050 Uiso
C8O C 0.5054(3) 0.1331(3) -0.35974(11) 0.0879 Uani
H4O H 0.4661 0.1423 -0.3480 0.1050 Uiso
Zn1K Zn 0.523922(16) 0.476082(34) -0.466008(14) 0.0486 Uani
O3K O 0.48316(17) 0.36969(22) -0.49259(7) 0.0679 Uani
O4K O 0.4440(3) 0.40674(36) -0.54326(7) 0.1031 Uani
C1K C 0.4300(3) 0.2779(4) -0.54164(10) 0.0837 Uani
C2K C 0.4547(3) 0.3578(4) -0.52465(10) 0.0705 Uani
C3K C 0.3747(8) 0.2455(14) -0.5709(3) 0.1209 Uani
H1K H 0.3578 0.2810 -0.5807 0.1450 Uiso
C4K C 0.4458(3) 0.22290(34) -0.52441(14) 0.0662 Uani
H2K H 0.4681 0.2341 -0.5001 0.0800 Uiso
C5K C 0.3399(13) 0.1699(15) -0.5881(6) 0.1347 Uani
C6K C 0.2847(15) 0.1423(17) -0.6225(7) 0.1591 Uani
O5K O 0.65927(15) 0.45853(21) -0.28986(5) 0.0534 Uani
N1K N 0.54560(10) 0.45440(22) -0.41352(9) 0.0474 Uani
C7K C 0.4944(3) 0.3900(4) -0.39587(11) 0.0872 Uani
H3K H 0.4462 0.3523 -0.4084 0.1050 Uiso
C8K C 0.5054(3) 0.3723(4) -0.35974(11) 0.0879 Uani
H4K H 0.4661 0.3238 -0.3480 0.1050 Uiso
C9K C 0.59281(13) 0.40721(33) -0.30388(10) 0.0493 Uani
C10K C 0.57374(13) 0.42624(33) -0.34171(11) 0.0471 Uani
H5K H 0.2246 0.2026 -0.6057 0.2070 Uiso
H6K H 0.1773 0.1087 -0.5945 0.2070 Uiso
H7K H 0.1755 0.1349 -0.6365 0.2070 Uiso
C11K C 0.2087(16) 0.1476(22) -0.6140(9) 0.1358 Uani
H8K H 0.3165 0.0669 -0.6503 0.2590 Uiso
H9K H 0.3392 0.0811 -0.6453 0.3060 Uiso
H10K H 0.2213 0.0350 -0.6521 0.2590 Uiso
H11K H 0.2606 0.0243 -0.6149 0.2590 Uiso
C12K C 0.269(3) 0.059(4) -0.6362(19) 0.1722 Uani
O3O O 0.48316(17) 0.11347(14) -0.49259(7) 0.0679 Uani
O4O O 0.4440(3) 0.03726(19) -0.54326(7) 0.1031 Uani
C1O C 0.4300(3) 0.1521(2) -0.54164(10) 0.0837 Uani
C2O C 0.4547(3) 0.0969(2) -0.52465(10) 0.0705 Uani
C3O C 0.3747(8) 0.1292(11) -0.5709(3) 0.1209 Uani
H1O H 0.3578 0.0768 -0.5807 0.1450 Uiso
H5O H 0.2246 0.0220 -0.6057 0.2070 Uiso
H6O H 0.1773 0.0686 -0.5945 0.2070 Uiso
H7O H 0.1755 0.0406 -0.6365 0.2070 Uiso
C11O C 0.2087(16) 0.0611(15) -0.6140(9) 0.1358 Uani
H8O H 0.3165 0.2496 -0.6503 0.2590 Uiso
H9O H 0.3392 0.2581 -0.6453 0.3060 Uiso
H10O H 0.2213 0.1863 -0.6521 0.2590 Uiso
H11O H 0.2606 0.2363 -0.6149 0.2590 Uiso
C12O C 0.269(3) 0.210(2) -0.6362(19) 0.1722 Uani
O5Q O 0.54147(21) 0.34073(15) -0.28986(5) 0.0534 Uani
C7Q C 0.6100(4) 0.5056(3) -0.39587(11) 0.0872 Uani
H3Q H 0.6477 0.5538 -0.4084 0.1050 Uiso
C8Q C 0.6277(4) 0.4946(3) -0.35974(11) 0.0879 Uani
H4Q H 0.6762 0.5339 -0.3480 0.1050 Uiso
Zn1C Zn 0.476078(16) -0.04784(3) -0.533992(14) 0.0486 Uani
Zn1D Zn 1.04784(3) 0.523918(34) -0.533992(14) 0.0486 Uani
Zn1E Zn 0.476082(34) 0.523922(16) -0.533992(14) 0.0486 Uani
Zn1F Zn 1.04784(3) 0.523922(16) 0.033992(14) 0.0486 Uani
Zn1G Zn 0.476082(34) -0.04784(3) 0.033992(14) 0.0486 Uani
Zn1H Zn 0.476078(16) 0.523918(34) 0.033992(14) 0.0486 Uani
O4C O 0.5560(3) -0.03726(19) -0.45674(7) 0.1031 Uani
O4D O 1.03726(19) 0.59326(36) -0.45674(7) 0.1031 Uani
O4E O 0.40674(36) 0.4440(3) -0.45674(7) 0.1031 Uani
O4F O 1.03726(19) 0.4440(3) -0.04326(7) 0.1031 Uani
O4G O 0.40674(36) -0.03726(19) -0.04326(7) 0.1031 Uani
O4H O 0.5560(3) 0.59326(36) -0.04326(7) 0.1031 Uani
O4L O 0.5560(3) -0.03726(19) -0.04326(7) 0.1031 Uani
O4M O 1.03726(19) 0.59326(36) -0.04326(7) 0.1031 Uani
O4N O 0.40674(36) 0.4440(3) -0.04326(7) 0.1031 Uani
O4U O 1.03726(19) 0.4440(3) -0.45674(7) 0.1031 Uani
O4V O 0.40674(36) -0.03726(19) -0.45674(7) 0.1031 Uani
O4W O 0.5560(3) 0.59326(36) -0.45674(7) 0.1031 Uani
H12 H 0.3829 0.2086 0.1575 0.3060 Uiso
H13 H 0.2984 0.1100 0.1760 0.3060 Uiso
loop_
_atom_site_aniso_label
_atom_site_aniso_U_11
_atom_site_aniso_U_22
_atom_site_aniso_U_33
_atom_site_aniso_U_23
_atom_site_aniso_U_13
_atom_site_aniso_U_12
Cr1 0.0570(5) 0.0570(5) 0.0158(4) 0.000 0.000 0.0298(5)
Zn1 0.0757(4) 0.0286(3) 0.0259(3) 0.00699(19) 0.00350(10) 0.01432(17)
O1 0.055(3) 0.055(3) 0.022(3) 0.000 0.000 0.0274(13)
O2 0.090(3) 0.090(3) 0.049(3) 0.000 0.000 0.063(3)
O3 0.104(2) 0.0516(13) 0.0597(16) 0.0117(11) 0.0092(13) 0.0476(14)
O4 0.216(4) 0.0734(18) 0.0473(14) 0.0137(13) 0.009(2) 0.093(2)
C1 0.149(4) 0.070(3) 0.047(2) 0.0151(18) 0.018(2) 0.066(3)
C2 0.122(3) 0.052(2) 0.0449(18) 0.0003(16) -0.008(2) 0.049(2)
C3 0.215(10) 0.109(5) 0.076(5) 0.036(4) 0.045(6) 0.109(6)
C4 0.115(5) 0.0582(19) 0.045(2) 0.0011(14) 0.002(3) 0.058(2)
C5 0.21(3) 0.107(11) 0.12(2) 0.051(10) 0.101(19) 0.104(14)
C6 0.20(3) 0.138(16) 0.16(3) 0.057(11) 0.11(2) 0.100(14)
O5 0.0728(15) 0.0649(14) 0.0281(10) 0.0110(9) 0.0109(10) 0.0387(12)
N1 0.0691(19) 0.0364(18) 0.0259(16) 0.0085(14) 0.0043(7) 0.0182(9)
C7 0.094(3) 0.137(4) 0.051(2) 0.046(3) 0.029(2) 0.073(3)
C8 0.081(3) 0.140(4) 0.053(2) 0.048(3) 0.020(2) 0.063(3)
C9 0.070(2) 0.047(2) 0.0231(18) 0.0017(17) 0.0008(8) 0.0235(12)
C10 0.062(2) 0.043(2) 0.0299(19) 0.0048(17) 0.0024(9) 0.0215(11)
C11 0.099(19) 0.18(3) 0.11(2) 0.018(19) 0.054(17) 0.056(19)
C12 0.17(3) 0.21(4) 0.17(4) 0.03(3) 0.10(3) 0.12(3)
O3T 0.104 0.0604 0.0597 -0.0025 0.0092 0.0564
O4T 0.216 0.1034 0.0473 -0.0047 0.009 0.123
C1T 0.149 0.087 0.047 0.0029 0.018 0.083
C2T 0.122 0.076 0.0449 -0.0083 -0.008 0.073
C3T 0.215 0.106 0.076 0.009 0.045 0.106
C11T 0.099 0.167 0.11 0.036 0.054 0.043
C12T 0.17 0.14 0.17 0.07 0.1 0.05
O5S 0.0603 0.0649 0.0281 0.011 0.0001 0.0262
C7S 0.085 0.137 0.051 0.046 0.017 0.064
C8S 0.095 0.14 0.053 0.048 0.028 0.077
Cr1A 0.057 0.0544 0.0158 0 0 0.0272
Zn1A 0.0286 0.07566 0.0259 -0.00349 -0.00699 0.01428
O2A 0.09 0.054 0.049 0 0 0.027
O3A 0.0516 0.0604 0.0597 -0.0025 -0.0117 0.004
O4A 0.0734 0.1034 0.0473 -0.0047 -0.0137 -0.0196
C1A 0.07 0.087 0.047 0.0029 -0.0151 0.004
C2A 0.052 0.076 0.0449 -0.0083 -0.0003 0.003
C3A 0.109 0.106 0.076 0.009 -0.036 0
C4A 0.0582 0.0572 0.045 0.0009 -0.0011 0.0002
C5A 0.107 0.109 0.12 0.05 -0.051 0.003
C6A 0.138 0.138 0.16 0.053 -0.057 0.038
O5A 0.0649 0.0603 0.0281 -0.0001 -0.011 0.0262
N1A 0.0364 0.0691 0.0259 -0.0042 -0.0085 0.0182
C7A 0.137 0.085 0.051 -0.017 -0.046 0.064
C8A 0.14 0.095 0.053 -0.028 -0.048 0.077
C9A 0.047 0.07 0.0231 -0.0009 -0.0017 0.0235
C10A 0.043 0.062 0.0299 -0.0024 -0.0048 0.0215
C11A 0.18 0.167 0.11 0.036 -0.018 0.124
C12A 0.21 0.14 0.17 0.07 -0.03 0.09
O3S 0.0604 0.0516 0.0597 0.0117 0.0025 0.004
O4S 0.1034 0.0734 0.0473 0.0137 0.0047 -0.0196
C1S 0.087 0.07 0.047 0.0151 -0.0029 0.004
C2S 0.076 0.052 0.0449 0.0003 0.0083 0.003
C3S 0.106 0.109 0.076 0.036 -0.009 0
C11S 0.167 0.18 0.11 0.018 -0.036 0.124
C12S 0.14 0.21 0.17 0.03 -0.07 0.09
O5R 0.0649 0.0728 0.0281 -0.0109 -0.011 0.0387
C7R 0.137 0.094 0.051 -0.029 -0.046 0.073
C8R 0.14 0.081 0.053 -0.02 -0.048 0.063
Cr1B 0.0544 0.057 0.0158 0 0 0.0272
Zn1B 0.07566 0.0757 0.0259 -0.0035 0.00349 0.06138
O2B 0.054 0.09 0.049 0 0 0.027
O3B 0.0604 0.104 0.0597 -0.0092 0.0025 0.0564
O4B 0.1034 0.216 0.0473 -0.009 0.0047 0.123
C1B 0.087 0.149 0.047 -0.018 -0.0029 0.083
C2B 0.076 0.122 0.0449 0.008 0.0083 0.073
C3B 0.106 0.215 0.076 -0.045 -0.009 0.106
C4B 0.0572 0.115 0.045 -0.002 -0.0009 0.057
C5B 0.109 0.21 0.12 -0.101 -0.05 0.106
C6B 0.138 0.2 0.16 -0.11 -0.053 0.1
O5B 0.0603 0.0728 0.0281 -0.0109 0.0001 0.0341
N1B 0.0691 0.0691 0.0259 -0.0043 0.0042 0.0509
C7B 0.085 0.094 0.051 -0.029 0.017 0.021
C8B 0.095 0.081 0.053 -0.02 0.028 0.018
C9B 0.07 0.07 0.0231 -0.0008 0.0009 0.0465
C10B 0.062 0.062 0.0299 -0.0024 0.0024 0.0405
C11B 0.167 0.099 0.11 -0.054 -0.036 0.043
C12B 0.14 0.17 0.17 -0.1 -0.07 0.05
O3R 0.0516 0.104 0.0597 -0.0092 -0.0117 0.0476
O4R 0.0734 0.216 0.0473 -0.009 -0.0137 0.093
C1R 0.07 0.149 0.047 -0.018 -0.0151 0.066
C2R 0.052 0.122 0.0449 0.008 -0.0003 0.049
C3R 0.109 0.215 0.076 -0.045 -0.036 0.109
C11R 0.18 0.099 0.11 -0.054 -0.018 0.056
C12R 0.21 0.17 0.17 -0.1 -0.03 0.12
O5T 0.0728 0.0603 0.0281 -0.0001 0.0109 0.0341
C7T 0.094 0.085 0.051 -0.017 0.029 0.021
C8T 0.081 0.095 0.053 -0.028 0.02 0.018
Zn1I 0.0286 0.0757 0.0259 0.0035 0.00699 0.01432
O3I 0.0516 0.104 0.0597 0.0092 0.0117 0.0476
O4I 0.0734 0.216 0.0473 0.009 0.0137 0.093
C1I 0.07 0.149 0.047 0.018 0.0151 0.066
C2I 0.052 0.122 0.0449 -0.008 0.0003 0.049
C3I 0.109 0.215 0.076 0.045 0.036 0.109
C4I 0.0582 0.115 0.045 0.002 0.0011 0.058
C5I 0.107 0.21 0.12 0.101 0.051 0.104
C6I 0.138 0.2 0.16 0.11 0.057 0.1
O5I 0.0649 0.0728 0.0281 0.0109 0.011 0.0387
N1I 0.0364 0.0691 0.0259 0.0043 0.0085 0.0182
C7I 0.137 0.094 0.051 0.029 0.046 0.073
C8I 0.14 0.081 0.053 0.02 0.048 0.063
C9I 0.047 0.07 0.0231 0.0008 0.0017 0.0235
C10I 0.043 0.062 0.0299 0.0024 0.0048 0.0215
C11I 0.18 0.099 0.11 0.054 0.018 0.056
C12I 0.21 0.17 0.17 0.1 0.03 0.12
O3Q 0.0604 0.104 0.0597 0.0092 -0.0025 0.0564
O4Q 0.1034 0.216 0.0473 0.009 -0.0047 0.123
C1Q 0.087 0.149 0.047 0.018 0.0029 0.083
C2Q 0.076 0.122 0.0449 -0.008 -0.0083 0.073
C3Q 0.106 0.215 0.076 0.045 0.009 0.106
C11Q 0.167 0.099 0.11 0.054 0.036 0.043
C12Q 0.14 0.17 0.17 0.1 0.07 0.05
O5P 0.0649 0.0603 0.0281 0.0001 0.011 0.0262
C7P 0.137 0.085 0.051 0.017 0.046 0.064
C8P 0.14 0.095 0.053 0.028 0.048 0.077
Zn1J 0.07566 0.0286 0.0259 -0.00699 -0.00349 0.01428
O3J 0.0604 0.0516 0.0597 -0.0117 -0.0025 0.004
O4J 0.1034 0.0734 0.0473 -0.0137 -0.0047 -0.0196
C1J 0.087 0.07 0.047 -0.0151 0.0029 0.004
C2J 0.076 0.052 0.0449 -0.0003 -0.0083 0.003
C3J 0.106 0.109 0.076 -0.036 0.009 0
C4J 0.0572 0.0582 0.045 -0.0011 0.0009 0.0002
C5J 0.109 0.107 0.12 -0.051 0.05 0.003
C6J 0.138 0.138 0.16 -0.057 0.053 0.038
O5J 0.0603 0.0649 0.0281 -0.011 -0.0001 0.0262
N1J 0.0691 0.0364 0.0259 -0.0085 -0.0042 0.0182
C7J 0.085 0.137 0.051 -0.046 -0.017 0.064
C8J 0.095 0.14 0.053 -0.048 -0.028 0.077
C9J 0.07 0.047 0.0231 -0.0017 -0.0009 0.0235
C10J 0.062 0.043 0.0299 -0.0048 -0.0024 0.0215
C11J 0.167 0.18 0.11 -0.018 0.036 0.124
C12J 0.14 0.21 0.17 -0.03 0.07 0.09
O3P 0.0516 0.0604 0.0597 0.0025 0.0117 0.004
O4P 0.0734 0.1034 0.0473 0.0047 0.0137 -0.0196
C1P 0.07 0.087 0.047 -0.0029 0.0151 0.004
C2P 0.052 0.076 0.0449 0.0083 0.0003 0.003
C3P 0.109 0.106 0.076 -0.009 0.036 0
C11P 0.18 0.167 0.11 -0.036 0.018 0.124
C12P 0.21 0.14 0.17 -0.07 0.03 0.09
O5O 0.0728 0.0649 0.0281 -0.011 -0.0109 0.0387
C7O 0.094 0.137 0.051 -0.046 -0.029 0.073
C8O 0.081 0.14 0.053 -0.048 -0.02 0.063
Zn1K 0.0757 0.07566 0.0259 0.00349 -0.0035 0.06138
O3K 0.104 0.0604 0.0597 0.0025 -0.0092 0.0564
O4K 0.216 0.1034 0.0473 0.0047 -0.009 0.123
C1K 0.149 0.087 0.047 -0.0029 -0.018 0.083
C2K 0.122 0.076 0.0449 0.0083 0.008 0.073
C3K 0.215 0.106 0.076 -0.009 -0.045 0.106
C4K 0.115 0.0572 0.045 -0.0009 -0.002 0.057
C5K 0.21 0.109 0.12 -0.05 -0.101 0.106
C6K 0.2 0.138 0.16 -0.053 -0.11 0.1
O5K 0.0728 0.0603 0.0281 0.0001 -0.0109 0.0341
N1K 0.0691 0.0691 0.0259 0.0042 -0.0043 0.0509
C7K 0.094 0.085 0.051 0.017 -0.029 0.021
C8K 0.081 0.095 0.053 0.028 -0.02 0.018
C9K 0.07 0.07 0.0231 0.0009 -0.0008 0.0465
C10K 0.062 0.062 0.0299 0.0024 -0.0024 0.0405
C11K 0.099 0.167 0.11 -0.036 -0.054 0.043
C12K 0.17 0.14 0.17 -0.07 -0.1 0.05
O3O 0.104 0.0516 0.0597 -0.0117 -0.0092 0.0476
O4O 0.216 0.0734 0.0473 -0.0137 -0.009 0.093
C1O 0.149 0.07 0.047 -0.0151 -0.018 0.066
C2O 0.122 0.052 0.0449 -0.0003 0.008 0.049
C3O 0.215 0.109 0.076 -0.036 -0.045 0.109
C11O 0.099 0.18 0.11 -0.018 -0.054 0.056
C12O 0.17 0.21 0.17 -0.03 -0.1 0.12
O5Q 0.0603 0.0728 0.0281 0.0109 -0.0001 0.0341
C7Q 0.085 0.094 0.051 0.029 -0.017 0.021
C8Q 0.095 0.081 0.053 0.02 -0.028 0.018
Zn1C 0.0757 0.0286 0.0259 -0.00699 -0.0035 0.01432
Zn1D 0.0286 0.07566 0.0259 0.00349 0.00699 0.01428
Zn1E 0.07566 0.0757 0.0259 0.0035 -0.00349 0.06138
Zn1F 0.0286 0.0757 0.0259 -0.0035 -0.00699 0.01432
Zn1G 0.07566 0.0286 0.0259 0.00699 0.00349 0.01428
Zn1H 0.0757 0.07566 0.0259 -0.00349 0.0035 0.06138
O4C 0.216 0.0734 0.0473 -0.0137 -0.009 0.093
O4D 0.0734 0.1034 0.0473 0.0047 0.0137 -0.0196
O4E 0.1034 0.216 0.0473 0.009 -0.0047 0.123
O4F 0.0734 0.216 0.0473 -0.009 -0.0137 0.093
O4G 0.1034 0.0734 0.0473 0.0137 0.0047 -0.0196
O4H 0.216 0.1034 0.0473 -0.0047 0.009 0.123
O4L 0.216 0.0734 0.0473 0.0137 0.009 0.093
O4M 0.0734 0.1034 0.0473 -0.0047 -0.0137 -0.0196
O4N 0.1034 0.216 0.0473 -0.009 0.0047 0.123
O4U 0.0734 0.216 0.0473 0.009 0.0137 0.093
O4V 0.1034 0.0734 0.0473 -0.0137 -0.0047 -0.0196
O4W 0.216 0.1034 0.0473 0.0047 -0.009 0.123
loop_
_geom_bond_atom_site_label_1
_geom_bond_atom_site_label_2
_geom_bond_site_symmetry_1
_geom_bond_site_symmetry_2
Cr1 O1 1_555 1_555
Zn1 O3 1_555 1_555
O1 Cr1A 1_555 1_555
O2 Cr1 1_555 1_555
O3 C2 1_555 1_555
O4 C2 1_555 1_555
C1 C2 1_555 1_555
C3 C1 1_555 1_555
H1 C3 1_555 1_555
C4 C1 1_555 1_555
H2 C4 1_555 1_555
C5 C3 1_555 1_555
C6 C5 1_555 1_555
O5 Cr1 1_555 1_555
N1 Zn1 1_555 1_555
C7 N1 1_555 1_555
H3 C7 1_555 1_555
C8 C7 1_555 1_555
H4 C8 1_555 1_555
C9 O5 1_555 1_555
C10 C8 1_555 1_555
H5 C11 1_555 1_555
H6 C11 1_555 1_555
H7 C11 1_555 1_555
C11 C6 1_555 1_555
H8 C12 1_555 1_555
H9 C12 1_555 1_555
H10 C12 1_555 1_555
H11 C12 1_555 1_555
C12 C6 1_555 1_555
O3T C2T 1_555 1_555
O4T C2T 1_555 1_555
C1T C4 1_555 1_555
C2T C1T 1_555 1_555
C3T C5 1_555 1_555
H1T C3T 1_555 1_555
H5T C12 1_555 1_555
H6T C11T 1_555 1_555
H7T C11T 1_555 1_555
C11T C6 1_555 1_555
H8T C12T 1_555 1_555
H9T C12T 1_555 1_555
H10T C12T 1_555 1_555
H11T C12T 1_555 1_555
C12T C6 1_555 1_555
O5S C9 1_555 1_555
C7S N1 1_555 1_555
H3S C7S 1_555 1_555
C8S C10 1_555 1_555
H4S C8S 1_555 1_555
Cr1A O2A 1_555 1_555
Zn1A O3A 1_555 1_555
O3A C2A 1_555 1_555
O4A C2A 1_555 1_555
C1A C2A 1_555 1_555
C3A C1A 1_555 1_555
H1A C3A 1_555 1_555
C4A C1A 1_555 1_555
H2A C4A 1_555 1_555
C5A C3A 1_555 1_555
C6A C5A 1_555 1_555
O5A Cr1A 1_555 1_555
N1A Zn1A 1_555 1_555
C7A N1A 1_555 1_555
H3A C7A 1_555 1_555
C8A C7A 1_555 1_555
H4A C8A 1_555 1_555
C9A O5A 1_555 1_555
C10A C8A 1_555 1_555
H5A C11A 1_555 1_555
H6A C11A 1_555 1_555
H7A C11A 1_555 1_555
C11A C6A 1_555 1_555
H8A C12A 1_555 1_555
H9A C12A 1_555 1_555
H10A C12A 1_555 1_555
H11A C12A 1_555 1_555
C12A C6A 1_555 1_555
O3S Zn1 1_555 1_555
O4S C2S 1_555 1_555
C1S C4A 1_555 1_555
C2S O3S 1_555 1_555
C3S C5A 1_555 1_555
H1S C3S 1_555 1_555
H5S C12A 1_555 1_555
H6S C11S 1_555 1_555
H7S C11S 1_555 1_555
C11S C6A 1_555 1_555
H8S C12S 1_555 1_555
H9S C12S 1_555 1_555
H10S C12S 1_555 1_555
H11S C12S 1_555 1_555
C12S C6A 1_555 1_555
O5R Cr1 1_555 1_555
C7R N1A 1_555 1_555
H3R C7R 1_555 1_555
C8R C10A 1_555 1_555
H4R C8R 1_555 1_555
Cr1B O1 1_555 1_555
Zn1B O3T 1_555 1_555
O2B Cr1B 1_555 1_555
O3B Zn1B 1_555 1_555
O4B C2B 1_555 1_555
C1B C2B 1_555 1_555
C2B O3B 1_555 1_555
C3B C1B 1_555 1_555
H1B C3B 1_555 1_555
C4B C1B 1_555 1_555
H2B C4B 1_555 1_555
C5B C3B 1_555 1_555
C6B C5B 1_555 1_555
O5B Cr1B 1_555 1_555
N1B Zn1B 1_555 1_555
C7B N1B 1_555 1_555
H3B C7B 1_555 1_555
C8B C7B 1_555 1_555
H4B C8B 1_555 1_555
C9B O5B 1_555 1_555
C10B C8B 1_555 1_555
H5B C11B 1_555 1_555
H6B C11B 1_555 1_555
H7B C11B 1_555 1_555
C11B C6B 1_555 1_555
H8B C12B 1_555 1_555
H9B C12B 1_555 1_555
H10B C12B 1_555 1_555
H11B C12B 1_555 1_555
C12B C6B 1_555 1_555
O3R Zn1A 1_555 1_555
O4R C2R 1_555 1_555
C1R C4B 1_555 1_555
C2R O3R 1_555 1_555
C3R C5B 1_555 1_555
H1R C3R 1_555 1_555
H5R C12B 1_555 1_555
H6R C11R 1_555 1_555
H7R C11R 1_555 1_555
C11R C6B 1_555 1_555
H8R C12R 1_555 1_555
H9R C12R 1_555 1_555
H10R C12R 1_555 1_555
H11R C12R 1_555 1_555
C12R C6B 1_555 1_555
O5T Cr1A 1_555 1_555
C7T N1B 1_555 1_555
H3T C7T 1_555 1_555
C8T C10B 1_555 1_555
H4T C8T 1_555 1_555
Zn1I O3I 1_555 1_555
O3I C2I 1_555 1_555
O4I C2I 1_555 1_555
C1I C2I 1_555 1_555
C3I C1I 1_555 1_555
H1I C3I 1_555 1_555
C4I C1I 1_555 1_555
H2I C4I 1_555 1_555
C5I C3I 1_555 1_555
C6I C5I 1_555 1_555
O5I Cr1 1_555 1_555
N1I Zn1I 1_555 1_555
C7I N1I 1_555 1_555
H3I C7I 1_555 1_555
C8I C7I 1_555 1_555
H4I C8I 1_555 1_555
C9I O5I 1_555 1_555
C10I C8I 1_555 1_555
H5I C11I 1_555 1_555
H6I C11I 1_555 1_555
H7I C11I 1_555 1_555
C11I C6I 1_555 1_555
H8I C12I 1_555 1_555
H9I C12I 1_555 1_555
H10I C12I 1_555 1_555
H11I C12I 1_555 1_555
C12I C6I 1_555 1_555
O3Q C2Q 1_555 1_555
O4Q C2Q 1_555 1_555
C1Q C4I 1_555 1_555
C2Q C1Q 1_555 1_555
C3Q C5I 1_555 1_555
H1Q C3Q 1_555 1_555
H5Q C12I 1_555 1_555
H6Q C11Q 1_555 1_555
H7Q C11Q 1_555 1_555
C11Q C6I 1_555 1_555
H8Q C12Q 1_555 1_555
H9Q C12Q 1_555 1_555
H10Q C12Q 1_555 1_555
H11Q C12Q 1_555 1_555
C12Q C6I 1_555 1_555
O5P Cr1A 1_555 1_555
C7P N1I 1_555 1_555
H3P C7P 1_555 1_555
C8P C10I 1_555 1_555
H4P C8P 1_555 1_555
Zn1J O3J 1_555 1_555
O3J C2J 1_555 1_555
O4J C2J 1_555 1_555
C1J C2J 1_555 1_555
C3J C1J 1_555 1_555
H1J C3J 1_555 1_555
C4J C1J 1_555 1_555
H2J C4J 1_555 1_555
C5J C3J 1_555 1_555
C6J C5J 1_555 1_555
O5J Cr1B 1_555 1_555
N1J Zn1J 1_555 1_555
C7J N1J 1_555 1_555
H3J C7J 1_555 1_555
C8J C7J 1_555 1_555
H4J C8J 1_555 1_555
C9J O5J 1_555 1_555
C10J C8J 1_555 1_555
H5J C11J 1_555 1_555
H6J C11J 1_555 1_555
H7J C11J 1_555 1_555
C11J C6J 1_555 1_555
H8J C12J 1_555 1_555
H9J C12J 1_555 1_555
H10J C12J 1_555 1_555
H11J C12J 1_555 1_555
C12J C6J 1_555 1_555
O3P Zn1I 1_555 1_555
O4P C2P 1_555 1_555
C1P C4J 1_555 1_555
C2P O3P 1_555 1_555
C3P C5J 1_555 1_555
H1P C3P 1_555 1_555
H5P C12J 1_555 1_555
H6P C11P 1_555 1_555
H7P C11P 1_555 1_555
C11P C6J 1_555 1_555
H8P C12P 1_555 1_555
H9P C12P 1_555 1_555
H10P C12P 1_555 1_555
H11P C12P 1_555 1_555
C12P C6J 1_555 1_555
O5O Cr1 1_555 1_555
C7O N1J 1_555 1_555
H3O C7O 1_555 1_555
C8O C10J 1_555 1_555
H4O C8O 1_555 1_555
Zn1K O3Q 1_555 1_555
O3K Zn1K 1_555 1_555
O4K C2K 1_555 1_555
C1K C2K 1_555 1_555
C2K O3K 1_555 1_555
C3K C1K 1_555 1_555
H1K C3K 1_555 1_555
C4K C1K 1_555 1_555
H2K C4K 1_555 1_555
C5K C3K 1_555 1_555
C6K C5K 1_555 1_555
O5K Cr1A 1_555 1_555
N1K Zn1K 1_555 1_555
C7K N1K 1_555 1_555
H3K C7K 1_555 1_555
C8K C7K 1_555 1_555
H4K C8K 1_555 1_555
C9K O5K 1_555 1_555
C10K C8K 1_555 1_555
H5K C11K 1_555 1_555
H6K C11K 1_555 1_555
H7K C11K 1_555 1_555
C11K C6K 1_555 1_555
H8K C12K 1_555 1_555
H9K C12K 1_555 1_555
H10K C12K 1_555 1_555
H11K C12K 1_555 1_555
C12K C6K 1_555 1_555
O3O Zn1J 1_555 1_555
O4O C2O 1_555 1_555
C1O C4K 1_555 1_555
C2O O3O 1_555 1_555
C3O C5K 1_555 1_555
H1O C3O 1_555 1_555
H5O C12K 1_555 1_555
H6O C11O 1_555 1_555
H7O C11O 1_555 1_555
C11O C6K 1_555 1_555
H8O C12O 1_555 1_555
H9O C12O 1_555 1_555
H10O C12O 1_555 1_555
H11O C12O 1_555 1_555
C12O C6K 1_555 1_555
O5Q Cr1B 1_555 1_555
C7Q N1K 1_555 1_555
H3Q C7Q 1_555 1_555
C8Q C10K 1_555 1_555
H4Q C8Q 1_555 1_555
Zn1C O4J 1_555 1_555
Zn1D O4I 1_555 1_555
Zn1E O4Q 1_555 1_555
Zn1F O4A 1_555 1_555
Zn1G O4 1_555 1_555
Zn1H O4T 1_555 1_555
O4C Zn1J 1_555 1_555
O4D Zn1I 1_555 1_555
O4E Zn1K 1_555 1_555
O4F Zn1A 1_555 1_555
O4G Zn1 1_555 1_555
O4H Zn1B 1_555 1_555
O4L Zn1 1_555 1_555
O4M Zn1A 1_555 1_555
O4N Zn1B 1_555 1_555
O4U Zn1I 1_555 1_555
O4V Zn1J 1_555 1_555
O4W Zn1K 1_555 1_555
C9 C10 1_555 1_555
H5 C12T 1_555 1_555
C11 C11T 1_555 1_555
C11 C12T 1_555 1_555
C12 C11T 1_555 1_555
C1T C3T 1_555 1_555
H5T C11T 1_555 1_555
O5S Cr1B 1_555 1_555
C7S C8S 1_555 1_555
C9A C10A 1_555 1_555
C9A O5R 1_555 1_555
H5A C12S 1_555 1_555
C11A C11S 1_555 1_555
C11A C12S 1_555 1_555
C12A C11S 1_555 1_555
O4S Zn1G 1_555 1_555
C1S C2S 1_555 1_555
C1S C3S 1_555 1_555
H5S C11S 1_555 1_555
C7R C8R 1_555 1_555
O4B Zn1H 1_555 1_555
C9B C10B 1_555 1_555
C9B O5T 1_555 1_555
H5B C12R 1_555 1_555
C11B C11R 1_555 1_555
C11B C12R 1_555 1_555
C12B C11R 1_555 1_555
O4R Zn1F 1_555 1_555
C1R C2R 1_555 1_555
C1R C3R 1_555 1_555
H5R C11R 1_555 1_555
C7T C8T 1_555 1_555
C9I C10I 1_555 1_555
C9I O5P 1_555 1_555
H5I C12Q 1_555 1_555
C11I C11Q 1_555 1_555
C11I C12Q 1_555 1_555
C12I C11Q 1_555 1_555
C1Q C3Q 1_555 1_555
H5Q C11Q 1_555 1_555
C7P C8P 1_555 1_555
C9J C10J 1_555 1_555
C9J O5O 1_555 1_555
H5J C12P 1_555 1_555
C11J C11P 1_555 1_555
C11J C12P 1_555 1_555
C12J C11P 1_555 1_555
O4P Zn1D 1_555 1_555
C1P C2P 1_555 1_555
C1P C3P 1_555 1_555
H5P C11P 1_555 1_555
C7O C8O 1_555 1_555
O4K Zn1E 1_555 1_555
C9K C10K 1_555 1_555
C9K O5Q 1_555 1_555
H5K C12O 1_555 1_555
C11K C11O 1_555 1_555
C11K C12O 1_555 1_555
C12K C11O 1_555 1_555
O4O Zn1C 1_555 1_555
C1O C2O 1_555 1_555
C1O C3O 1_555 1_555
H5O C11O 1_555 1_555
C7Q C8Q 1_555 1_555

#END
