
#######################################################################
#
#                 Cambridge Crystallographic Data Centre
#                                CCDC 
#
#######################################################################
#
# If this CIF has been generated from an entry in the Cambridge 
# Structural Database, then it will include bibliographic, chemical, 
# crystal, experimental, refinement or atomic coordinate data resulting 
# from the CCDC's data processing and validation procedures.
#
#######################################################################

data_ENOVAG
_chemical_formula_moiety         'C80 H75 N18 Nd25 O131 Si1 W12'
_symmetry_cell_setting           monoclinic
_symmetry_space_group_name_H-M   'P 21/m'
_symmetry_Int_Tables_number      11
_space_group_name_Hall           '-P 2yb'
loop_
_symmetry_equiv_pos_site_id
_symmetry_equiv_pos_as_xyz
1 x,y,z
2 -x,1/2+y,-z
3 -x,-y,-z
4 x,1/2-y,z
_cell_length_a                   17.353(2)
_cell_length_b                   30.453(3)
_cell_length_c                   17.511(2)
_cell_angle_alpha                90
_cell_angle_beta                 119.547(2)
_cell_angle_gamma                90
_cell_volume                     8050.27
loop_
_atom_site_label
_atom_site_type_symbol
_atom_site_fract_x
_atom_site_fract_y
_atom_site_fract_z
O29 O 0.5495(4) 1.07693(17) 0.2809(4)
O30 O 0.7906(4) 1.15926(16) 0.4686(4)
O31 O 0.7633(8) 1.2500 0.1905(9)
O32 O 0.5194(5) 1.3276(2) -0.0120(4)
O33 O 0.2323(4) 1.33067(16) 0.0412(4)
O34 O 0.2266(6) 1.2500 0.2619(8)
O35 O 0.5344(4) 1.1583(2) 0.5099(4)
O36 O 0.6333(4) 1.19789(16) 0.4531(4)
O37 O 0.7553(4) 1.20474(17) 0.3216(4)
O38 O 0.6283(4) 1.2885(2) 0.1614(4)
O39 O 0.3886(4) 1.31938(18) 0.0382(4)
O40 O 0.3254(4) 1.28995(18) 0.2045(4)
O41 O 0.4240(6) 1.2500 0.4168(6)
O42 O 0.4863(4) 1.1536(2) 0.3438(4)
O43 O 0.6280(3) 1.1565(2) 0.3180(4)
O44 O 0.7619(4) 1.2500 0.4598(5)
O45 O 0.4785(6) 1.2500 0.0536(5)
O46 O 0.5318(4) 1.36205(17) 0.1465(4)
O47 O 0.3151(5) 1.2500 0.0806(5)
O48 O 0.3878(4) 1.36234(18) 0.1624(5)
O49 O 0.6255(4) 1.2500 0.3023(5)
O50 O 0.4811(3) 1.29178(15) 0.1948(3)
O51 O 0.4796(4) 1.2500 0.3185(5)
Si1 Si 0.51583(15) 1.2500 0.25319(17)
W1 W 0.51133(2) 1.13440(2) 0.24668(2)
W2 W 0.71263(2) 1.19476(2) 0.40005(2)
W3 W 0.71000(3) 1.2500 0.23269(3)
W4 W 0.50889(2) 1.31053(2) 0.07928(2)
W5 W 0.32953(2) 1.31045(2) 0.10609(2)
W6 W 0.33467(3) 1.2500 0.29044(4)
W7 W 0.51919(3) 1.19478(2) 0.43208(2)
O50C O 0.4811(3) 1.20822(15) 0.1948(3)
O29C O 0.5495(4) 1.42307(17) 0.2809(4)
O30C O 0.7906(4) 1.34074(16) 0.4686(4)
O32C O 0.5194(5) 1.1724(2) -0.0120(4)
O33C O 0.2323(4) 1.16933(16) 0.0412(4)
O35C O 0.5344(4) 1.3417(2) 0.5099(4)
O36C O 0.6333(4) 1.30211(16) 0.4531(4)
O37C O 0.7553(4) 1.29526(17) 0.3216(4)
O38C O 0.6283(4) 1.2115(2) 0.1614(4)
O39C O 0.3886(4) 1.18062(18) 0.0382(4)
O40C O 0.3254(4) 1.21005(18) 0.2045(4)
O42C O 0.4863(4) 1.3464(2) 0.3438(4)
O43C O 0.6280(3) 1.3435(2) 0.3180(4)
O46C O 0.5318(4) 1.13795(17) 0.1465(4)
O48C O 0.3878(4) 1.13766(18) 0.1624(5)
W1C W 0.51133(2) 1.36560(2) 0.24668(2)
W2C W 0.71263(2) 1.30524(2) 0.40005(2)
W4C W 0.50889(2) 1.18947(2) 0.07928(2)
W5C W 0.32953(2) 1.18955(2) 0.10609(2)
W7C W 0.51919(3) 1.30522(2) 0.43208(2)
O52 O 1.0482(7) 0.7500 0.5691(6)
H25 H 1.0532 0.7775 0.5784
H25C H 1.0532 0.7225 0.5784
O53 O 0.8677(10) 0.7924(5) 0.5382(11)
H26 H 0.8845 0.8179 0.5333
H27 H 0.9126 0.7768 0.5710
O54 O 0.7789(9) 0.8120(4) 0.6012(8)
H28 H 0.7294 0.8016 0.5627
H29 H 0.7989 0.7969 0.6479
O55 O 0.9660(6) 0.7500 0.7949(7)
H30 H 0.9357 0.7721 0.7938
H30C H 0.9357 0.7279 0.7938
O56 O 0.0809(8) 1.3004(4) 0.0542(8)
H31 H 0.1130 1.3208 0.0515
H32 H 0.0540 1.2874 0.0049
O57 O 0.1929(8) 0.8297(4) -0.0123(8)
H33 H 0.1505 0.8389 -0.0606
H34 H 0.2109 0.8056 -0.0226
O58 O 0.2468(10) 0.7500 -0.0431(9)
H35 H 0.2370 0.7625 -0.0054
H35C H 0.2370 0.7375 -0.0054
O57C O 0.1929(8) 0.6703(4) -0.0123(8)
H33C H 0.1505 0.6611 -0.0606
H34C H 0.2109 0.6944 -0.0226
O59 O 0.7548(5) 1.1364(3) 0.2498(5)
H36 H 0.8002 1.1503 0.2876
H37 H 0.7382 1.1346 0.1954
O60 O 0.2244(9) 1.1063(5) 0.2414(8)
H38 H 0.2124 1.0790 0.2378
H39 H 0.2742 1.1116 0.2452
O61 O 1.0595(14) 0.8658(5) 0.7340(12)
H40 H 1.0443 0.8463 0.6944
H41 H 1.0574 0.8575 0.7793
O62 O 0.3823(9) 0.8258(4) 0.0949(8)
H42 H 0.4330 0.8184 0.1028
H43 H 0.3881 0.8383 0.1408
C1 C 0.8417(4) 0.8436(2) 0.2325(4)
C2 C 0.8961(4) 0.7734(2) 0.2938(5)
H1 H 0.9379 0.7890 0.3422
C3 C 0.8356(4) 0.7940(2) 0.2237(5)
C4 C 0.6066(3) 0.84416(19) 0.2643(4)
C5 C 0.6034(5) 0.7961(2) 0.2628(5)
C6 C 0.6202(4) 0.77204(17) 0.3416(4)
H2 H 0.6309 0.7873 0.3919
C7 C 0.3398(4) 0.84576(16) 0.2358(4)
C8 C 0.4074(4) 0.7742(2) 0.3050(4)
H3 H 0.4524 0.7890 0.3525
C9 C 0.3468(4) 0.79662(16) 0.2408(4)
C10 C 0.1043(3) 0.84481(18) 0.2671(3)
C11 C 0.1069(4) 0.7952(2) 0.2696(5)
C12 C 0.1169(4) 0.7717(2) 0.3477(6)
H4 H 0.1231 0.7872 0.3962
C13 C 0.8477(4) 0.99110(18) 0.1905(4)
C14 C 0.7715(4) 1.01525(19) 0.1195(4)
C15 C 0.7807(4) 1.05059(19) 0.0747(4)
H5 H 0.8364 1.0627 0.0934
C16 C 0.7080(4) 1.0677(2) 0.0031(4)
H6 H 0.7137 1.0899 -0.0304
C17 C 0.6243(4) 1.0506(2) -0.0181(4)
C18 C 0.62281(14) 1.0186(2) 0.0390(4)
H7 H 0.5681 1.0113 0.0332
C19 C 0.5404(4) 1.0660(2) -0.0957(4)
C20 C 0.8644(4) 0.9376(2) 0.4022(4)
C21 C 0.8536(3) 0.95329(18) 0.4778(4)
C22 C 0.7943(3) 0.9346(2) 0.5003(4)
H8 H 0.7582 0.9113 0.4683
C23 C 0.7906(4) 0.9521(2) 0.5735(4)
H9 H 0.7525 0.9398 0.5907
C24 C 0.8437(4) 0.9876(2) 0.6196(4)
C25 C 0.9121(3) 0.98715(18) 0.5353(4)
H10 H 0.9572 0.9973 0.5258
C26 C 0.8362(4) 1.0092(2) 0.6897(4)
C27 C 0.6617(4) 0.9903(2) 0.3108(4)
C28 C 0.6551(4) 1.0158(2) 0.3815(4)
C29 C 0.7036(4) 1.0508(2) 0.4215(4)
H11 H 0.7384 1.0644 0.4016
C30 C 0.7003(4) 1.0666(2) 0.4964(4)
H12 H 0.7386 1.0890 0.5297
C31 C 0.6426(3) 1.0499(2) 0.5206(3)
C32 C 0.5896(3) 1.01393(17) 0.4682(3)
H13 H 0.5478 1.0025 0.4812
C33 C 0.6391(4) 1.06597(17) 0.5971(4)
C34 C 0.3484(4) 0.98716(17) 0.1883(3)
C35 C 0.2704(4) 1.0114(2) 0.1223(4)
C36 C 0.2793(5) 1.05042(19) 0.0755(4)
H14 H 0.3335 1.0641 0.0937
C37 C 0.2039(4) 1.06462(19) 0.0050(5)
H15 H 0.2086 1.0876 -0.0276
C38 C 0.1218(4) 1.0480(2) -0.0220(5)
C39 C 0.1218(3) 1.01342(19) 0.0327(4)
H16 H 0.0675 1.0039 0.0252
C40 C 0.0388(4) 1.0631(2) -0.0934(4)
N1 N 0.6951(3) 0.99767(17) 0.1012(4)
N2 N 0.9048(3) 1.00368(17) 0.5979(4)
N3 N 0.5958(3) 0.99532(16) 0.4010(3)
N4 N 0.1950(3) 0.99393(17) 0.0941(4)
Nd1 Nd 0.99433(2) 0.92855(2) 0.30436(2)
Nd2 Nd 0.69020(2) 0.92928(2) 0.19402(2)
Nd3 Nd 0.49622(2) 0.92810(2) 0.30522(2)
Nd4 Nd 0.18938(2) 0.92687(2) 0.19359(2)
O1 O 0.9065(3) 0.85998(14) 0.3025(3)
O2 O 0.7839(3) 0.86543(17) 0.1703(3)
O3 O 0.6321(3) 0.86363(15) 0.2157(3)
O4 O 0.5917(3) 0.86374(15) 0.3186(3)
O5 O 0.4116(3) 0.86314(14) 0.2843(3)
O6 O 0.2686(3) 0.86092(14) 0.1846(3)
O7 O 0.1250(3) 0.86143(15) 0.2166(3)
O8 O 0.0928(3) 0.86592(15) 0.3224(3)
O9 O 0.9294(3) 1.00261(16) 0.2167(3)
O10 O 0.8331(3) 0.95479(14) 0.2156(3)
O11 O 0.5412(3) 1.08757(14) -0.1552(3)
O12 O 0.4655(3) 1.05580(15) -0.0984(3)
O13 O 0.9283(3) 0.94890(15) 0.3963(3)
O14 O 0.7969(3) 0.91466(15) 0.3459(3)
O15 O 0.8804(3) 1.04692(14) 0.7159(3)
O16 O 0.7875(3) 0.99879(16) 0.7198(3)
O17 O 0.7119(3) 1.00392(15) 0.2829(3)
O18 O 0.6209(3) 0.95479(14) 0.2826(3)
O19 O 0.7008(3) 1.08621(15) 0.6554(3)
O20 O 0.5710(3) 1.05349(15) 0.6041(3)
O21 O 0.4254(3) 1.00036(14) 0.2109(3)
O22 O 0.3308(3) 0.95298(14) 0.2146(3)
O23 O 0.0472(3) 1.08670(16) -0.1524(3)
O24 O -0.0334(3) 1.05487(15) -0.0975(3)
O25 O 1.0797(3) 0.89879(14) 0.4558(3)
H17 H 1.132(2) 0.892(3) 0.469(6)
H18 H 1.049(5) 0.8755(16) 0.445(6)
O26 O 0.6369(3) 0.90667(14) 0.0419(3)
H19 H 0.6515 0.9287 0.0119
H20 H 0.5738 0.9029 0.0127
O27 O 0.5912(3) 0.90088(15) 0.4624(3)
H21 H 0.603(6) 0.8750(11) 0.453(6)
H22 H 0.560(5) 0.900(3) 0.488(5)
O28 O 0.1144(3) 0.89886(15) 0.0378(3)
H23 H 0.141(4) 0.886(3) 0.015(5)
H24 H 0.0582(10) 0.898(3) 0.008(5)
N5 N 0.2755(3) 0.77073(17) 0.1708(3)
N6 N 0.7748(4) 0.77090(18) 0.1484(4)
N7 N 0.5985(4) 0.77249(18) 0.1887(4)
N8 N 0.1021(4) 0.77200(17) 0.2048(4)
C1C C 0.8417(4) 0.6564(2) 0.2325(4)
C2C C 0.8961(4) 0.7266(2) 0.2938(5)
H1C H 0.9379 0.7110 0.3422
C3C C 0.8356(4) 0.7060(2) 0.2237(5)
O1C O 0.9065(3) 0.64002(14) 0.3025(3)
O2C O 0.7839(3) 0.63457(17) 0.1703(3)
N6C N 0.7748(4) 0.72910(18) 0.1484(4)
C4C C 0.6066(3) 0.65584(19) 0.2643(4)
C5C C 0.6034(5) 0.7039(2) 0.2628(5)
C6C C 0.6202(4) 0.72796(17) 0.3416(4)
H2C H 0.6309 0.7127 0.3919
O3C O 0.6321(3) 0.63637(15) 0.2157(3)
O4C O 0.5917(3) 0.63626(15) 0.3186(3)
N7C N 0.5985(4) 0.72751(18) 0.1887(4)
C7C C 0.3398(4) 0.65424(16) 0.2358(4)
C8C C 0.4074(4) 0.7258(2) 0.3050(4)
H3C H 0.4524 0.7110 0.3525
C9C C 0.3468(4) 0.70338(16) 0.2408(4)
O5C O 0.4116(3) 0.63686(14) 0.2843(3)
O6C O 0.2686(3) 0.63908(14) 0.1846(3)
N5C N 0.2755(3) 0.72927(17) 0.1708(3)
C10C C 0.1043(3) 0.65519(18) 0.2671(3)
C11C C 0.1069(4) 0.7048(2) 0.2696(5)
C12C C 0.1169(4) 0.7283(2) 0.3477(6)
H4C H 0.1231 0.7128 0.3962
O7C O 0.1250(3) 0.63857(15) 0.2166(3)
O8C O 0.0928(3) 0.63408(15) 0.3224(3)
N8C N 0.1021(4) 0.72800(17) 0.2048(4)
C13B C -0.8477(4) 1.00890(18) -0.1905(4)
C14B C -0.7715(4) 0.98475(19) -0.1195(4)
C15B C -0.7807(4) 0.94941(19) -0.0747(4)
H5B H -0.8364 0.9373 -0.0934
C16B C -0.7080(4) 0.9323(2) -0.0031(4)
H6B H -0.7137 0.9101 0.0304
C17B C -0.6243(4) 0.9494(2) 0.0181(4)
C18B C -0.62281(14) 0.9814(2) -0.0390(4)
H7B H -0.5681 0.9887 -0.0332
C19B C -0.5404(4) 0.9340(2) 0.0957(4)
C20B C -0.8644(4) 1.0624(2) -0.4022(4)
C21B C -0.8536(3) 1.04671(18) -0.4778(4)
C22B C -0.7943(3) 1.0654(2) -0.5003(4)
H8B H -0.7582 1.0887 -0.4683
C23B C -0.7906(4) 1.0479(2) -0.5735(4)
H9B H -0.7525 1.0602 -0.5907
C24B C -0.8437(4) 1.0124(2) -0.6196(4)
C25B C -0.9121(3) 1.01285(18) -0.5353(4)
H10B H -0.9572 1.0027 -0.5258
C26B C -0.8362(4) 0.9908(2) -0.6897(4)
C27B C -0.6617(4) 1.0097(2) -0.3108(4)
C28B C -0.6551(4) 0.9842(2) -0.3815(4)
C29B C -0.7036(4) 0.9492(2) -0.4215(4)
H11B H -0.7384 0.9356 -0.4016
C30B C -0.7003(4) 0.9334(2) -0.4964(4)
H12B H -0.7386 0.9110 -0.5297
C31B C -0.6426(3) 0.9501(2) -0.5206(3)
C32B C -0.5896(3) 0.98607(17) -0.4682(3)
H13B H -0.5478 0.9975 -0.4812
C33B C -0.6391(4) 0.93403(17) -0.5971(4)
C34B C -0.3484(4) 1.01284(17) -0.1883(3)
C35B C -0.2704(4) 0.9886(2) -0.1223(4)
C36B C -0.2793(5) 0.94958(19) -0.0755(4)
H14B H -0.3335 0.9359 -0.0937
C37B C -0.2039(4) 0.93538(19) -0.0050(5)
H15B H -0.2086 0.9124 0.0276
C38B C -0.1218(4) 0.9520(2) 0.0220(5)
C39B C -0.1218(3) 0.98658(19) -0.0327(4)
H16B H -0.0675 0.9961 -0.0252
C40B C -0.0388(4) 0.9369(2) 0.0934(4)
N1B N -0.6951(3) 1.00233(17) -0.1012(4)
N2B N -0.9048(3) 0.99632(17) -0.5979(4)
N3B N -0.5958(3) 1.00468(16) -0.4010(3)
N4B N -0.1950(3) 1.00607(17) -0.0941(4)
Nd1B Nd -0.99433(2) 1.07145(2) -0.30436(2)
Nd2B Nd -0.69020(2) 1.07072(2) -0.19402(2)
Nd3B Nd -0.49622(2) 1.07190(2) -0.30522(2)
Nd4B Nd -0.18938(2) 1.07313(2) -0.19359(2)
O9B O -0.9294(3) 0.99739(16) -0.2167(3)
O10B O -0.8331(3) 1.04521(14) -0.2156(3)
O11B O -0.5412(3) 0.91243(14) 0.1552(3)
O12B O -0.4655(3) 0.94420(15) 0.0984(3)
O13B O -0.9283(3) 1.05110(15) -0.3963(3)
O14B O -0.7969(3) 1.08534(15) -0.3459(3)
O15B O -0.8804(3) 0.95308(14) -0.7159(3)
O16B O -0.7875(3) 1.00121(16) -0.7198(3)
O17B O -0.7119(3) 0.99608(15) -0.2829(3)
O18B O -0.6209(3) 1.04521(14) -0.2826(3)
O19B O -0.7008(3) 0.91379(15) -0.6554(3)
O20B O -0.5710(3) 0.94651(15) -0.6041(3)
O21B O -0.4254(3) 0.99964(14) -0.2109(3)
O22B O -0.3308(3) 1.04702(14) -0.2146(3)
O23B O -0.0472(3) 0.91330(16) 0.1524(3)
O24B O 0.0334(3) 0.94513(15) 0.0975(3)
O25B O -1.0797(3) 1.10121(14) -0.4558(3)
H17B H -1.132(2) 1.108(3) -0.469(6)
H18B H -1.049(5) 1.1245(16) -0.445(6)
O26B O -0.6369(3) 1.09333(14) -0.0419(3)
H19B H -0.6515 1.0713 -0.0119
H20B H -0.5738 1.0971 -0.0127
O27B O -0.5912(3) 1.09912(15) -0.4624(3)
H21B H -0.603(6) 1.1250(11) -0.453(6)
H22B H -0.560(5) 1.100(3) -0.488(5)
O28B O -0.1144(3) 1.10114(15) -0.0378(3)
H23B H -0.141(4) 1.114(3) -0.015(5)
H24B H -0.0582(10) 1.102(3) -0.008(5)
N2_2 N -1.0952(3) 1.00368(17) -0.4021(4)
N2B_2 N 1.0952(3) 0.99632(17) 0.4021(4)
Nd1_2 Nd -1.00567(2) 0.92855(2) -0.69564(2)
Nd1_3 Nd -0.00567(2) 0.92855(2) 0.30436(2)
Nd1B_2 Nd 0.00567(2) 1.07145(2) -0.30436(2)
Nd1B_3 Nd 1.00567(2) 1.07145(2) 0.69564(2)
Nd1C Nd -0.00567(2) 0.57145(2) 0.30436(2)
Nd1C_2 Nd 0.99433(2) 0.57145(2) 0.30436(2)
Nd2_2 Nd -0.30980(2) 0.92928(2) 0.19402(2)
Nd2B_2 Nd 0.30980(2) 1.07072(2) -0.19402(2)
Nd2C Nd 0.69020(2) 0.57072(2) 0.19402(2)
Nd3_2 Nd -0.50378(2) 0.92810(2) -0.69478(2)
Nd3_3 Nd -0.50378(2) 0.92810(2) 0.30522(2)
Nd3B_2 Nd 0.50378(2) 1.07190(2) -0.30522(2)
Nd3B_3 Nd 0.50378(2) 1.07190(2) 0.69478(2)
Nd3C Nd 0.49622(2) 0.57190(2) 0.30522(2)
Nd4_2 Nd -0.81062(2) 0.92687(2) -0.80641(2)
Nd4B_2 Nd 0.81062(2) 1.07313(2) 0.80641(2)
Nd4C Nd 0.18938(2) 0.57313(2) 0.19359(2)
O1B O -0.9065(3) 1.14002(14) -0.3025(3)
O2B O -0.7839(3) 1.13457(17) -0.1703(3)
O3B O -0.6321(3) 1.13637(15) -0.2157(3)
O4B O -0.5917(3) 1.13626(15) -0.3186(3)
O5B O -0.4116(3) 1.13686(14) -0.2843(3)
O6B O -0.2686(3) 1.13908(14) -0.1846(3)
O7B O -0.1250(3) 1.13857(15) -0.2166(3)
O8_2 O 1.0928(3) 0.86592(15) 0.3224(3)
O8B O -1.0928(3) 1.13408(15) -0.3224(3)
O11_2 O -0.4588(3) 1.08757(14) -0.1552(3)
O11B_2 O 0.4588(3) 0.91243(14) 0.1552(3)
O12_2 O -0.5345(3) 1.05580(15) -0.0984(3)
O12B_2 O 0.5345(3) 0.94420(15) 0.0984(3)
O15_2 O -1.1196(3) 1.04692(14) -0.2841(3)
O15_3 O -0.1196(3) 1.04692(14) -0.2841(3)
O15B_2 O 0.1196(3) 0.95308(14) 0.2841(3)
O15B_3 O 1.1196(3) 0.95308(14) 0.2841(3)
O16_2 O -0.2125(3) 0.99879(16) -0.2802(3)
O16B_2 O 0.2125(3) 1.00121(16) 0.2802(3)
O19_2 O -0.2992(3) 1.08621(15) -0.3446(3)
O19B_2 O 0.2992(3) 0.91379(15) 0.3446(3)
O20_2 O -0.4290(3) 1.05349(15) -0.3959(3)
O20B_2 O 0.4290(3) 0.94651(15) 0.3959(3)
O23_2 O -0.9528(3) 1.08670(16) -0.1524(3)
O23B_2 O 0.9528(3) 0.91330(16) 0.1524(3)
loop_
_geom_bond_atom_site_label_1
_geom_bond_atom_site_label_2
_geom_bond_site_symmetry_1
_geom_bond_site_symmetry_2
C1 C3 1_555 1_555
C2 H1 1_555 1_555
C3 C2 1_555 1_555
C4 C5 1_555 1_555
C5 C6 1_555 1_555
C6 H2 1_555 1_555
C7 C9 1_555 1_555
C8 H3 1_555 1_555
C9 C8 1_555 1_555
C10 C11 1_555 1_555
C11 C12 1_555 1_555
C12 H4 1_555 1_555
C13 C14 1_555 1_555
C14 C15 1_555 1_555
C15 H5 1_555 1_555
C16 C15 1_555 1_555
H6 C16 1_555 1_555
C17 C16 1_555 1_555
C18 C17 1_555 1_555
H7 C18 1_555 1_555
C19 C17 1_555 1_555
C20 C21 1_555 1_555
C21 C22 1_555 1_555
C22 H8 1_555 1_555
C23 C22 1_555 1_555
H9 C23 1_555 1_555
C24 C23 1_555 1_555
C25 C21 1_555 1_555
H10 C25 1_555 1_555
C26 C24 1_555 1_555
C27 C28 1_555 1_555
C28 C29 1_555 1_555
C29 H11 1_555 1_555
C30 C29 1_555 1_555
H12 C30 1_555 1_555
C31 C30 1_555 1_555
C32 C31 1_555 1_555
H13 C32 1_555 1_555
C33 C31 1_555 1_555
C34 C35 1_555 1_555
C35 C36 1_555 1_555
C36 H14 1_555 1_555
C37 C36 1_555 1_555
H15 C37 1_555 1_555
C38 C37 1_555 1_555
C39 C38 1_555 1_555
H16 C39 1_555 1_555
C40 C38 1_555 1_555
N1 C14 1_555 1_555
N2 C24 1_555 1_555
N3 C28 1_555 1_555
N4 C35 1_555 1_555
Nd1 O1 1_555 1_555
Nd2 N1 1_555 1_555
Nd3 N3 1_555 1_555
Nd4 N4 1_555 1_555
O1 C1 1_555 1_555
O2 C1 1_555 1_555
O3 C4 1_555 1_555
O4 C4 1_555 1_555
O5 C7 1_555 1_555
O6 C7 1_555 1_555
O7 C10 1_555 1_555
O8 C10 1_555 1_555
O9 C13 1_555 1_555
O10 C13 1_555 1_555
O11 C19 1_555 1_555
O12 C19 1_555 1_555
O13 C20 1_555 1_555
O14 C20 1_555 1_555
O15 C26 1_555 1_555
O16 C26 1_555 1_555
O17 C27 1_555 1_555
O18 C27 1_555 1_555
O19 C33 1_555 1_555
O20 C33 1_555 1_555
O21 C34 1_555 1_555
O22 C34 1_555 1_555
O23 C40 1_555 1_555
O24 C40 1_555 1_555
O25 Nd1 1_555 1_555
H17 O25 1_555 1_555
H18 O25 1_555 1_555
O26 Nd2 1_555 1_555
H19 O26 1_555 1_555
H20 O26 1_555 1_555
O27 Nd3 1_555 1_555
H21 O27 1_555 1_555
H22 O27 1_555 1_555
O28 Nd4 1_555 1_555
H23 O28 1_555 1_555
H24 O28 1_555 1_555
N5 C9 1_555 1_555
N6 C3 1_555 1_555
N7 C5 1_555 1_555
N8 C11 1_555 1_555
O29 W1 1_555 1_555
O30 W2 1_555 1_555
O31 W3 1_555 1_555
O32 W4 1_555 1_555
O33 W5 1_555 1_555
O34 W6 1_555 1_555
O35 W7 1_555 1_555
O36 W2 1_555 1_555
O37 W2 1_555 1_555
O38 W3 1_555 1_555
O39 W4 1_555 1_555
O40 W5 1_555 1_555
O41 W6 1_555 1_555
O42 W1 1_555 1_555
O43 W1 1_555 1_555
O44 W2 1_555 1_555
O45 W4 1_555 1_555
O46 W4 1_555 1_555
O47 W5 1_555 1_555
O48 W5 1_555 1_555
O49 Si1 1_555 1_555
O50 Si1 1_555 1_555
O51 Si1 1_555 1_555
Si1 O50C 1_555 1_555
W1 O50C 1_555 1_555
W2 O43 1_555 1_555
W3 O37 1_555 1_555
W4 O38 1_555 1_555
W5 O39 1_555 1_555
W6 O40 1_555 1_555
W7 O36 1_555 1_555
O52 H25 1_555 1_555
O53 H26 1_555 1_555
H27 O53 1_555 1_555
O54 H28 1_555 1_555
H29 O54 1_555 1_555
O55 H30 1_555 1_555
O56 H31 1_555 1_555
H32 O56 1_555 1_555
O57 H33 1_555 1_555
H34 O57 1_555 1_555
O58 H35 1_555 1_555
O59 H36 1_555 1_555
H37 O59 1_555 1_555
O60 H38 1_555 1_555
H39 O60 1_555 1_555
O61 H40 1_555 1_555
H41 O61 1_555 1_555
O62 H42 1_555 1_555
H43 O62 1_555 1_555
C1C C3C 1_555 1_555
C2C C2 1_555 1_555
H1C C2C 1_555 1_555
C3C C2C 1_555 1_555
O1C C1C 1_555 1_555
O2C C1C 1_555 1_555
N6C N6 1_555 1_555
C4C C5C 1_555 1_555
C5C C6C 1_555 1_555
C6C C6 1_555 1_555
H2C C6C 1_555 1_555
O3C C4C 1_555 1_555
O4C C4C 1_555 1_555
N7C N7 1_555 1_555
C7C C9C 1_555 1_555
C8C C8 1_555 1_555
H3C C8C 1_555 1_555
C9C C8C 1_555 1_555
O5C C7C 1_555 1_555
O6C C7C 1_555 1_555
N5C N5 1_555 1_555
C10C C11C 1_555 1_555
C11C C12C 1_555 1_555
C12C C12 1_555 1_555
H4C C12C 1_555 1_555
O7C C10C 1_555 1_555
O8C C10C 1_555 1_555
N8C N8 1_555 1_555
C13B C14B 1_555 1_555
C14B C15B 1_555 1_555
C15B H5B 1_555 1_555
C16B C15B 1_555 1_555
H6B C16B 1_555 1_555
C17B C16B 1_555 1_555
C18B C17B 1_555 1_555
H7B C18B 1_555 1_555
C19B C17B 1_555 1_555
C20B C21B 1_555 1_555
C21B C22B 1_555 1_555
C22B H8B 1_555 1_555
C23B C22B 1_555 1_555
H9B C23B 1_555 1_555
C24B C23B 1_555 1_555
C25B C21B 1_555 1_555
H10B C25B 1_555 1_555
C26B C24B 1_555 1_555
C27B C28B 1_555 1_555
C28B C29B 1_555 1_555
C29B H11B 1_555 1_555
C30B C29B 1_555 1_555
H12B C30B 1_555 1_555
C31B C30B 1_555 1_555
C32B C31B 1_555 1_555
H13B C32B 1_555 1_555
C33B C31B 1_555 1_555
C34B C35B 1_555 1_555
C35B C36B 1_555 1_555
C36B H14B 1_555 1_555
C37B C36B 1_555 1_555
H15B C37B 1_555 1_555
C38B C37B 1_555 1_555
C39B C38B 1_555 1_555
H16B C39B 1_555 1_555
C40B C38B 1_555 1_555
N1B C14B 1_555 1_555
N2B C24B 1_555 1_555
N3B C28B 1_555 1_555
N4B C35B 1_555 1_555
Nd1B O9B 1_555 1_555
Nd2B N1B 1_555 1_555
Nd3B N3B 1_555 1_555
Nd4B O24 1_555 1_555
O9B C13B 1_555 1_555
O10B C13B 1_555 1_555
O11B C19B 1_555 1_555
O12B C19B 1_555 1_555
O13B C20B 1_555 1_555
O14B C20B 1_555 1_555
O15B C26B 1_555 1_555
O16B C26B 1_555 1_555
O17B C27B 1_555 1_555
O18B C27B 1_555 1_555
O19B C33B 1_555 1_555
O20B C33B 1_555 1_555
O21B C34B 1_555 1_555
O22B C34B 1_555 1_555
O23B C40B 1_555 1_555
O24B Nd4 1_555 1_555
O25B Nd1B 1_555 1_555
H17B O25B 1_555 1_555
H18B O25B 1_555 1_555
O26B Nd2B 1_555 1_555
H19B O26B 1_555 1_555
H20B O26B 1_555 1_555
O27B Nd3B 1_555 1_555
H21B O27B 1_555 1_555
H22B O27B 1_555 1_555
O28B Nd4B 1_555 1_555
H23B O28B 1_555 1_555
H24B O28B 1_555 1_555
N2_2 Nd1B 1_555 1_555
N2B_2 Nd1 1_555 1_555
Nd1_2 N2B 1_555 1_555
Nd1_3 O8 1_555 1_555
Nd1B_2 O23 1_555 1_555
Nd1B_3 N2 1_555 1_555
Nd1C O8C 1_555 1_555
Nd1C_2 O1C 1_555 1_555
Nd2_2 O12B 1_555 1_555
Nd2B_2 O12 1_555 1_555
Nd2C O2C 1_555 1_555
Nd3_2 O20B 1_555 1_555
Nd3_3 O11B 1_555 1_555
Nd3B_2 O11 1_555 1_555
Nd3B_3 O20 1_555 1_555
Nd3C O4C 1_555 1_555
Nd4_2 O15B 1_555 1_555
Nd4B_2 O15 1_555 1_555
Nd4C O6C 1_555 1_555
O1B Nd1B 1_555 1_555
O2B Nd2B 1_555 1_555
O3B Nd2B 1_555 1_555
O4B Nd3B 1_555 1_555
O5B Nd3B 1_555 1_555
O6B Nd4B 1_555 1_555
O7B Nd4B 1_555 1_555
O8_2 Nd1 1_555 1_555
O8B Nd1B 1_555 1_555
O11_2 Nd3B 1_555 1_555
O11B_2 Nd3 1_555 1_555
O12_2 Nd2B 1_555 1_555
O12B_2 Nd2 1_555 1_555
O15_2 Nd1B 1_555 1_555
O15_3 Nd4B 1_555 1_555
O15B_2 Nd4 1_555 1_555
O15B_3 Nd1 1_555 1_555
O16_2 Nd4B 1_555 1_555
O16B_2 Nd4 1_555 1_555
O19_2 Nd4B 1_555 1_555
O19B_2 Nd4 1_555 1_555
O20_2 Nd3B 1_555 1_555
O20B_2 Nd3 1_555 1_555
O23_2 Nd1B 1_555 1_555
O23B_2 Nd1 1_555 1_555
O50C W4C 1_555 1_555
O29C W1C 1_555 1_555
O30C W2C 1_555 1_555
O32C W4C 1_555 1_555
O33C W5C 1_555 1_555
O35C W7C 1_555 1_555
O36C W2C 1_555 1_555
O37C W3 1_555 1_555
O38C W3 1_555 1_555
O39C W4C 1_555 1_555
O40C W6 1_555 1_555
O42C W1C 1_555 1_555
O43C W1C 1_555 1_555
O46C W1 1_555 1_555
O48C W1 1_555 1_555
W1C O46 1_555 1_555
W2C O44 1_555 1_555
W4C O45 1_555 1_555
W5C O47 1_555 1_555
W7C O41 1_555 1_555
H25C O52 1_555 1_555
H30C O55 1_555 1_555
H35C O58 1_555 1_555
O57C H33C 1_555 1_555
H34C O57C 1_555 1_555
C18 N1 1_555 1_555
C25 N2 1_555 1_555
C32 N3 1_555 1_555
C39 N4 1_555 1_555
Nd1 O9 1_555 1_555
Nd1 O10 1_555 1_555
Nd1 O13 1_555 1_555
Nd2 O2 1_555 1_555
Nd2 O3 1_555 1_555
Nd2 O10 1_555 1_555
Nd2 O14 1_555 1_555
Nd2 O17 1_555 1_555
Nd2 O18 1_555 1_555
Nd3 O4 1_555 1_555
Nd3 O5 1_555 1_555
Nd3 O18 1_555 1_555
Nd3 O21 1_555 1_555
Nd3 O22 1_555 1_555
Nd4 O6 1_555 1_555
Nd4 O7 1_555 1_555
Nd4 O22 1_555 1_555
O15 Nd1B_3 1_555 1_555
O16 Nd4B_2 1_555 1_555
O19 Nd4B_2 1_555 1_555
O41 W7 1_555 1_555
O42 W7 1_555 1_555
O48 W1C 1_555 1_555
O49 W2 1_555 1_555
O49 W3 1_555 1_555
O49 W2C 1_555 1_555
O50 W4 1_555 1_555
O50 W5 1_555 1_555
O50 W1C 1_555 1_555
O51 W6 1_555 1_555
O51 W7 1_555 1_555
O51 W7C 1_555 1_555
C3C N6C 1_555 1_555
C5C N7C 1_555 1_555
O3C Nd2C 1_555 1_555
C9C N5C 1_555 1_555
O5C Nd3C 1_555 1_555
C11C N8C 1_555 1_555
O7C Nd4C 1_555 1_555
C18B N1B 1_555 1_555
C25B N2B 1_555 1_555
C32B N3B 1_555 1_555
C39B N4B 1_555 1_555
C40B O24B 1_555 1_555
N4B Nd4B 1_555 1_555
Nd1B O10B 1_555 1_555
Nd1B O13B 1_555 1_555
Nd2B O10B 1_555 1_555
Nd2B O14B 1_555 1_555
Nd2B O17B 1_555 1_555
Nd2B O18B 1_555 1_555
Nd3B O18B 1_555 1_555
Nd3B O21B 1_555 1_555
Nd3B O22B 1_555 1_555
Nd4B O22B 1_555 1_555
O15B Nd1_2 1_555 1_555
O16B Nd4_2 1_555 1_555
O19B Nd4_2 1_555 1_555
O23B Nd1_3 1_555 1_555
Nd1_3 O15B_2 1_555 1_555
Nd1B_2 O15_3 1_555 1_555
O50C W5C 1_555 1_555
O36C W7C 1_555 1_555
O37C W2C 1_555 1_555
O38C W4C 1_555 1_555
O39C W5C 1_555 1_555
O40C W5C 1_555 1_555
O42C W7C 1_555 1_555
O43C W2C 1_555 1_555
O46C W4C 1_555 1_555
O48C W5C 1_555 1_555

#END
