
#######################################################################
#
#                 Cambridge Crystallographic Data Centre
#                                CCDC 
#
#######################################################################
#
# If this CIF has been generated from an entry in the Cambridge 
# Structural Database, then it will include bibliographic, chemical, 
# crystal, experimental, refinement or atomic coordinate data resulting 
# from the CCDC's data processing and validation procedures.
#
#######################################################################

data_JEXSOV
_chemical_formula_moiety         '(C8 H10 N2 Nd4 O28)n'
_symmetry_cell_setting           triclinic
_symmetry_space_group_name_H-M   'P -1'
_symmetry_Int_Tables_number      2
_space_group_name_Hall           '-P 1'
loop_
_symmetry_equiv_pos_site_id
_symmetry_equiv_pos_as_xyz
1 x,y,z
2 -x,-y,-z
_cell_length_a                   6.2672(10)
_cell_length_b                   8.6204(14)
_cell_length_c                   12.936(2)
_cell_angle_alpha                105.314(2)
_cell_angle_beta                 90.439(2)
_cell_angle_gamma                105.081(2)
_cell_volume                     648.654
loop_
_atom_site_label
_atom_site_type_symbol
_atom_site_fract_x
_atom_site_fract_y
_atom_site_fract_z
O1 O 0.1726(7) 0.0288(6) 0.8965(3)
O2 O 0.0209(8) -0.2039(6) 0.9446(3)
O3 O 0.5583(8) 0.8437(6) 0.8745(4)
O4 O 0.4954(7) 0.6159(6) 0.9342(3)
O5 O 0.2347(8) 0.6858(6) 0.7179(3)
O6 O 0.1641(8) 0.4598(6) 0.7779(4)
O7 O 0.6416(9) 0.1303(7) 0.6205(4)
O8 O 0.6837(9) 0.1507(7) 0.4522(4)
O9 O -0.2006(7) 0.1682(5) 0.8377(3)
O10 O -0.1604(7) 0.4331(6) 0.9247(4)
O11 O -0.4900(7) 0.2678(6) 0.8395(4)
N1 N -0.2843(11) 0.2925(8) 0.8686(5)
Nd1 Nd 0.19087(5) 0.33354(4) 0.92510(2)
O12 O 0.1413(8) 0.1021(7) 0.7052(4)
H1 H 0.0197 0.0305 0.7047
O13 O 0.7303(8) -0.1699(7) 0.6626(4)
H2 H 0.7564 -0.1844 0.5969
H3 H 0.6859 -0.2571 0.6842
C1 C 0.0553(11) -0.0519(8) 0.9544(5)
C2 C 0.4574(11) 0.6979(8) 0.8716(5)
C3 C 0.2688(11) 0.6053(8) 0.7817(5)
C4 C 0.5946(12) 0.0816(10) 0.5213(6)
Nd2 Nd 0.44244(5) -0.02780(4) 0.74238(2)
O1A O -0.1726(7) -0.0288(6) 1.1035(3)
O2A O -0.0209(8) 0.2039(6) 1.0554(3)
O3A O 0.4417(8) 0.1563(6) 1.1255(4)
O3_2 O 0.5583(8) -0.1563(6) 0.8745(4)
O3A_2 O -0.5583(8) 0.1563(6) 1.1255(4)
O4A O 0.5046(7) 0.3841(6) 1.0658(3)
O4_2 O -0.5046(7) -0.3841(6) 0.9342(3)
O4A_2 O -0.4954(7) -0.6159(6) 1.0658(3)
O5A O 0.7653(8) 0.3142(6) 1.2821(3)
O5_2 O 0.2347(8) -0.3142(6) 0.7179(3)
O5A_2 O -0.2347(8) 0.3142(6) 1.2821(3)
O6A O 0.8359(8) 0.5402(6) 1.2221(4)
O6A_2 O -0.1641(8) -0.4598(6) 1.2221(4)
O7A O 0.3584(9) -0.1303(7) 0.3795(4)
O7A_2 O -0.6416(9) -0.1303(7) 1.3795(4)
O8A O 0.3163(9) -0.1507(7) 0.5478(4)
O8_2 O -0.3163(9) 0.1507(7) 1.4522(4)
O9A O 0.2006(7) 0.8318(5) 1.1623(3)
O9_2 O 0.7994(7) 0.1682(5) 0.8377(3)
O9A_2 O 0.2006(7) -0.1682(5) 1.1623(3)
O9A_3 O -0.7994(7) -0.1682(5) 1.1623(3)
O10A O 0.1604(7) 0.5669(6) 1.0753(4)
O10_2 O -0.1604(7) -0.5669(6) 0.9247(4)
O10A_2 O 0.1604(7) -0.4331(6) 1.0753(4)
O11A O 0.4900(7) 0.7322(6) 1.1605(4)
O11_2 O 0.5100(7) 0.2678(6) 0.8395(4)
O11A_2 O -0.5100(7) -0.2678(6) 1.1605(4)
N1A N 0.2843(11) 0.7075(8) 1.1314(5)
Nd1A Nd -0.19087(5) -0.33354(4) 1.07490(2)
Nd1A_2 Nd 0.80913(5) 0.66646(4) 1.07490(2)
Nd1A_3 Nd -0.19087(5) 0.66646(4) 1.07490(2)
Nd1_2 Nd -0.80913(5) 0.33354(4) 0.92510(2)
O12A O -0.1413(8) -0.1021(7) 1.2948(4)
H1A H -0.0197 -0.0305 1.2953
O13A O -0.7303(8) 0.1699(7) 1.3374(4)
H2A H -0.7564 0.1844 1.4031
H3A H -0.6859 0.2571 1.3158
C1A C -0.0553(11) 0.0519(8) 1.0456(5)
C2A C 0.5426(11) 0.3021(8) 1.1284(5)
C3A C 0.7312(11) 0.3947(8) 1.2183(5)
C4A C 0.4054(12) -0.0816(10) 0.4787(6)
Nd2A Nd -0.44244(5) 0.02780(4) 1.25762(2)
Nd2_2 Nd 0.44244(5) 0.97220(4) 0.74238(2)
Nd2A_2 Nd 0.55756(5) 0.02780(4) 0.25762(2)
Nd2_3 Nd -0.55756(5) -0.02780(4) 0.74238(2)
Nd2A_3 Nd 0.55756(5) 0.02780(4) 1.25762(2)
Nd2A_4 Nd 0.55756(5) 1.02780(4) 1.25762(2)
O14 O 0.7219(11) 0.5202(9) 0.6922(6)
O15 O 0.149(2) 0.2623(16) 0.5444(9)
loop_
_geom_bond_atom_site_label_1
_geom_bond_atom_site_label_2
_geom_bond_site_symmetry_1
_geom_bond_site_symmetry_2
O1 Nd1 1_555 1_555
O2 C1 1_555 1_555
O3 C2 1_555 1_555
O4 Nd1 1_555 1_555
O5 C3 1_555 1_555
O6 Nd1 1_555 1_555
O7 C4 1_555 1_555
O8 C4 1_555 1_555
O9 N1 1_555 1_555
O10 N1 1_555 1_555
O11 N1 1_555 1_555
Nd1 O9 1_555 1_555
O12 H1 1_555 1_555
O13 H2 1_555 1_555
H3 O13 1_555 1_555
C1 O1 1_555 1_555
C2 O4 1_555 1_555
C3 O6 1_555 1_555
C4 C4A 1_555 1_555
Nd2 O1 1_555 1_555
O1A Nd1A 1_555 1_555
O2A Nd1 1_555 1_555
O3A C2A 1_555 1_555
O3_2 Nd2 1_555 1_555
O3A_2 Nd2A 1_555 1_555
O4A Nd1 1_555 1_555
O4_2 Nd1A 1_555 1_555
O4A_2 Nd1A 1_555 1_555
O5A C3A 1_555 1_555
O5_2 Nd2 1_555 1_555
O5A_2 Nd2A 1_555 1_555
O6A Nd1A_2 1_555 1_555
O6A_2 Nd1A 1_555 1_555
O7A C4A 1_555 1_555
O7A_2 Nd2A 1_555 1_555
O8A Nd2 1_555 1_555
O8_2 Nd2A 1_555 1_555
O9A N1A 1_555 1_555
O9_2 Nd2 1_555 1_555
O9A_2 Nd1A 1_555 1_555
O9A_3 Nd2A 1_555 1_555
O10A Nd1 1_555 1_555
O10_2 Nd1A 1_555 1_555
O10A_2 Nd1A 1_555 1_555
O11A N1A 1_555 1_555
O11_2 Nd1 1_555 1_555
O11A_2 Nd1A 1_555 1_555
N1A O10A 1_555 1_555
Nd1A O2 1_555 1_555
Nd1A_2 O4 1_555 1_555
Nd1A_3 O10 1_555 1_555
Nd1_2 O11 1_555 1_555
O12A H1A 1_555 1_555
O13A H2A 1_555 1_555
H3A O13A 1_555 1_555
C1A C1 1_555 1_555
C2A O4A 1_555 1_555
C3A O6A 1_555 1_555
C4A O8A 1_555 1_555
Nd2A O1A 1_555 1_555
Nd2_2 O3 1_555 1_555
Nd2A_2 O8 1_555 1_555
Nd2_3 O9 1_555 1_555
Nd2A_3 O3A 1_555 1_555
Nd2A_4 O9A 1_555 1_555
O5 Nd2_2 1_555 1_555
O7 Nd2 1_555 1_555
O10 Nd1 1_555 1_555
O11 Nd2_3 1_555 1_555
O12 Nd2 1_555 1_555
O13 Nd2 1_555 1_555
C2 C3 1_555 1_555
Nd2 O11_2 1_555 1_555
O1A C1A 1_555 1_555
O2A C1A 1_555 1_555
O4A Nd1A_2 1_555 1_555
O5A Nd2A_3 1_555 1_555
O7A Nd2A_2 1_555 1_555
O9A Nd1A_3 1_555 1_555
O9A_2 Nd2A_3 1_555 1_555
O10A Nd1A_3 1_555 1_555
O11A Nd1A_2 1_555 1_555
O11A Nd2A_4 1_555 1_555
O11A_2 Nd2A 1_555 1_555
O12A Nd2A 1_555 1_555
O13A Nd2A 1_555 1_555
C2A C3A 1_555 1_555

#END
