
#######################################################################
#
#                 Cambridge Crystallographic Data Centre
#                                CCDC 
#
#######################################################################
#
# If this CIF has been generated from an entry in the Cambridge 
# Structural Database, then it will include bibliographic, chemical, 
# crystal, experimental, refinement or atomic coordinate data resulting 
# from the CCDC's data processing and validation procedures.
#
#######################################################################

data_MOXJOZ
_chemical_formula_moiety         '(C16 H20 B1 Cu1 N8)n'
_symmetry_cell_setting           cubic
_symmetry_space_group_name_H-M   'P -4 3 n'
_symmetry_Int_Tables_number      218
_space_group_name_Hall           'P -4n 2 3'
loop_
_symmetry_equiv_pos_site_id
_symmetry_equiv_pos_as_xyz
1 x,y,z
2 -x,-y,z
3 -x,y,-z
4 x,-y,-z
5 z,x,y
6 z,-x,-y
7 -z,-x,y
8 -z,x,-y
9 y,z,x
10 -y,z,-x
11 y,-z,-x
12 -y,-z,x
13 1/2+y,1/2+x,1/2+z
14 1/2-y,1/2-x,1/2+z
15 1/2+y,1/2-x,1/2-z
16 1/2-y,1/2+x,1/2-z
17 1/2+x,1/2+z,1/2+y
18 1/2-x,1/2+z,1/2-y
19 1/2-x,1/2-z,1/2+y
20 1/2+x,1/2-z,1/2-y
21 1/2+z,1/2+y,1/2+x
22 1/2+z,1/2-y,1/2-x
23 1/2-z,1/2+y,1/2-x
24 1/2-z,1/2-y,1/2+x
_cell_length_a                   16.0184(2)
_cell_length_b                   16.0184(2)
_cell_length_c                   16.0184(2)
_cell_angle_alpha                90
_cell_angle_beta                 90
_cell_angle_gamma                90
_cell_volume                     4110.15
loop_
_atom_site_label
_atom_site_type_symbol
_atom_site_fract_x
_atom_site_fract_y
_atom_site_fract_z
_atom_site_U_iso_or_equiv
_atom_site_thermal_displace_type
Cu1 Cu 0.5000 0.0000 0.2500 0.0414 Uani
B1 B 0.2500 0.0000 0.5000 0.0410 Uiso
N1 N 0.4029(3) 0.0312(3) 0.3269(3) 0.0390 Uani
N2 N 0.3071(3) 0.0302(3) 0.4272(3) 0.0347 Uani
C1 C 0.3013(4) 0.1063(4) 0.3868(4) 0.0450 Uani
H1 H 0.2642 0.1493 0.3988 0.0540 Uiso
C2 C 0.3605(4) 0.1058(4) 0.3264(4) 0.0487 Uani
H2 H 0.3710 0.1496 0.2898 0.0580 Uiso
C3 C 0.3707(3) -0.0107(4) 0.3885(4) 0.0363 Uani
C4 C 0.4031(4) -0.0953(4) 0.4151(4) 0.0507 Uani
H3 H 0.4478 -0.1119 0.3788 0.0760 Uiso
H4 H 0.3589 -0.1356 0.4121 0.0760 Uiso
H5 H 0.4234 -0.0921 0.4715 0.0760 Uiso
Cu1B Cu 0.5000 0.0000 0.7500 0.0414 Uani
Cu1J Cu 0.0000 -0.2500 0.5000 0.0414 Uani
Cu1H Cu 0.0000 0.2500 0.5000 0.0414 Uani
N1C N 0.4029(3) -0.0312(3) 0.6731(3) 0.0390 Uani
N1Q N 0.0971(3) -0.1731(3) 0.4688(3) 0.0390 Uani
N1R N 0.0971(3) 0.1731(3) 0.5312(3) 0.0390 Uani
N1A N 0.5971(3) -0.0312(3) 0.3269(3) 0.0390 Uani
N1N N 0.5312(3) 0.0971(3) 0.1731(3) 0.0390 Uani
N1O N 0.4688(3) -0.0971(3) 0.1731(3) 0.0390 Uani
N2C N 0.3071(3) -0.0302(3) 0.5728(3) 0.0347 Uani
N2Q N 0.1929(3) -0.0728(3) 0.4698(3) 0.0347 Uani
N2R N 0.1929(3) 0.0728(3) 0.5302(3) 0.0347 Uani
C1C C 0.3013(4) -0.1063(4) 0.6132(4) 0.0450 Uani
C1Q C 0.1987(4) -0.1132(4) 0.3937(4) 0.0450 Uani
C1R C 0.1987(4) 0.1132(4) 0.6063(4) 0.0450 Uani
H1C H 0.2642 -0.1493 0.6012 0.0540 Uiso
H1Q H 0.2358 -0.1012 0.3507 0.0540 Uiso
H1R H 0.2358 0.1012 0.6493 0.0540 Uiso
C2C C 0.3605(4) -0.1058(4) 0.6736(4) 0.0487 Uani
C2Q C 0.1395(4) -0.1736(4) 0.3942(4) 0.0487 Uani
C2R C 0.1395(4) 0.1736(4) 0.6058(4) 0.0487 Uani
H2C H 0.3710 -0.1496 0.7102 0.0580 Uiso
H2Q H 0.1290 -0.2102 0.3504 0.0580 Uiso
H2R H 0.1290 0.2102 0.6496 0.0580 Uiso
C3C C 0.3707(3) 0.0107(4) 0.6115(4) 0.0363 Uani
C3Q C 0.1293(3) -0.1115(4) 0.5107(4) 0.0363 Uani
C3R C 0.1293(3) 0.1115(4) 0.4893(4) 0.0363 Uani
C4C C 0.4031(4) 0.0953(4) 0.5849(4) 0.0507 Uani
C4Q C 0.0969(4) -0.0849(4) 0.5953(4) 0.0507 Uani
C4R C 0.0969(4) 0.0849(4) 0.4047(4) 0.0507 Uani
H3C H 0.4478 0.1119 0.6212 0.0760 Uiso
H3Q H 0.0522 -0.1212 0.6119 0.0760 Uiso
H3R H 0.0522 0.1212 0.3881 0.0760 Uiso
H4C H 0.3589 0.1356 0.5879 0.0760 Uiso
H4Q H 0.1411 -0.0879 0.6356 0.0760 Uiso
H4R H 0.1411 0.0879 0.3644 0.0760 Uiso
H5C H 0.4234 0.0921 0.5285 0.0760 Uiso
H5Q H 0.0766 -0.0285 0.5921 0.0760 Uiso
H5R H 0.0766 0.0285 0.4079 0.0760 Uiso
loop_
_atom_site_aniso_label
_atom_site_aniso_U_11
_atom_site_aniso_U_22
_atom_site_aniso_U_33
_atom_site_aniso_U_23
_atom_site_aniso_U_13
_atom_site_aniso_U_12
Cu1 0.0431(6) 0.0431(6) 0.0381(8) 0.000 0.000 0.000
N1 0.043(3) 0.035(3) 0.039(3) 0.005(2) 0.006(2) 0.003(2)
N2 0.032(3) 0.038(3) 0.034(3) 0.000(2) 0.002(2) 0.001(2)
C1 0.046(4) 0.039(4) 0.050(4) 0.008(3) 0.007(3) 0.005(3)
C2 0.049(4) 0.042(4) 0.055(4) 0.010(3) 0.013(3) 0.006(3)
C3 0.032(3) 0.037(4) 0.040(3) -0.001(3) -0.003(2) 0.004(3)
C4 0.051(4) 0.045(4) 0.056(4) 0.000(3) 0.005(3) 0.013(3)
Cu1B 0.0431 0.0431 0.0381 0 0 0
Cu1J 0.0431 0.0381 0.0431 0 0 0
Cu1H 0.0431 0.0381 0.0431 0 0 0
N1C 0.043 0.035 0.039 0.005 -0.006 -0.003
N1Q 0.043 0.039 0.035 -0.005 0.003 -0.006
N1R 0.043 0.039 0.035 -0.005 -0.003 0.006
N1A 0.043 0.035 0.039 -0.005 -0.006 0.003
N1N 0.035 0.043 0.039 0.006 -0.005 -0.003
N1O 0.035 0.043 0.039 -0.006 0.005 -0.003
N2C 0.032 0.038 0.034 0 -0.002 -0.001
N2Q 0.032 0.034 0.038 0 0.001 -0.002
N2R 0.032 0.034 0.038 0 -0.001 0.002
C1C 0.046 0.039 0.05 0.008 -0.007 -0.005
C1Q 0.046 0.05 0.039 -0.008 0.005 -0.007
C1R 0.046 0.05 0.039 -0.008 -0.005 0.007
C2C 0.049 0.042 0.055 0.01 -0.013 -0.006
C2Q 0.049 0.055 0.042 -0.01 0.006 -0.013
C2R 0.049 0.055 0.042 -0.01 -0.006 0.013
C3C 0.032 0.037 0.04 -0.001 0.003 -0.004
C3Q 0.032 0.04 0.037 0.001 0.004 0.003
C3R 0.032 0.04 0.037 0.001 -0.004 -0.003
C4C 0.051 0.045 0.056 0 -0.005 -0.013
C4Q 0.051 0.056 0.045 0 0.013 -0.005
C4R 0.051 0.056 0.045 0 -0.013 0.005
loop_
_geom_bond_atom_site_label_1
_geom_bond_atom_site_label_2
_geom_bond_site_symmetry_1
_geom_bond_site_symmetry_2
Cu1 N1 1_555 1_555
B1 N2 1_555 1_555
N1 C2 1_555 1_555
N2 C1 1_555 1_555
C1 H1 1_555 1_555
C2 C1 1_555 1_555
H2 C2 1_555 1_555
C3 N1 1_555 1_555
C4 C3 1_555 1_555
H3 C4 1_555 1_555
H4 C4 1_555 1_555
H5 C4 1_555 1_555
Cu1B N1C 1_555 1_555
Cu1J N1Q 1_555 1_555
Cu1H N1R 1_555 1_555
N1C C2C 1_555 1_555
N1Q C2Q 1_555 1_555
N1R C2R 1_555 1_555
N1A Cu1 1_555 1_555
N1N Cu1 1_555 1_555
N1O Cu1 1_555 1_555
N2C B1 1_555 1_555
N2Q B1 1_555 1_555
N2R B1 1_555 1_555
C1C N2C 1_555 1_555
C1Q N2Q 1_555 1_555
C1R N2R 1_555 1_555
H1C C1C 1_555 1_555
H1Q C1Q 1_555 1_555
H1R C1R 1_555 1_555
C2C C1C 1_555 1_555
C2Q C1Q 1_555 1_555
C2R C1R 1_555 1_555
H2C C2C 1_555 1_555
H2Q C2Q 1_555 1_555
H2R C2R 1_555 1_555
C3C N1C 1_555 1_555
C3Q N1Q 1_555 1_555
C3R N1R 1_555 1_555
C4C C3C 1_555 1_555
C4Q C3Q 1_555 1_555
C4R C3R 1_555 1_555
H3C C4C 1_555 1_555
H3Q C4Q 1_555 1_555
H3R C4R 1_555 1_555
H4C C4C 1_555 1_555
H4Q C4Q 1_555 1_555
H4R C4R 1_555 1_555
H5C C4C 1_555 1_555
H5Q C4Q 1_555 1_555
H5R C4R 1_555 1_555
N2 C3 1_555 1_555
N2C C3C 1_555 1_555
N2Q C3Q 1_555 1_555
N2R C3R 1_555 1_555

#END
