
#######################################################################
#
#                 Cambridge Crystallographic Data Centre
#                                CCDC 
#
#######################################################################
#
# If this CIF has been generated from an entry in the Cambridge 
# Structural Database, then it will include bibliographic, chemical, 
# crystal, experimental, refinement or atomic coordinate data resulting 
# from the CCDC's data processing and validation procedures.
#
#######################################################################

data_MUCLOM
_chemical_formula_moiety         '(C16 H20 B1 Li1 N8)n'
_symmetry_cell_setting           cubic
_symmetry_space_group_name_H-M   'P -4 3 n'
_symmetry_Int_Tables_number      218
_space_group_name_Hall           'P -4n 2 3'
loop_
_symmetry_equiv_pos_site_id
_symmetry_equiv_pos_as_xyz
1 x,y,z
2 -x,-y,z
3 -x,y,-z
4 x,-y,-z
5 z,x,y
6 z,-x,-y
7 -z,-x,y
8 -z,x,-y
9 y,z,x
10 -y,z,-x
11 y,-z,-x
12 -y,-z,x
13 1/2+y,1/2+x,1/2+z
14 1/2-y,1/2-x,1/2+z
15 1/2+y,1/2-x,1/2-z
16 1/2-y,1/2+x,1/2-z
17 1/2+x,1/2+z,1/2+y
18 1/2-x,1/2+z,1/2-y
19 1/2-x,1/2-z,1/2+y
20 1/2+x,1/2-z,1/2-y
21 1/2+z,1/2+y,1/2+x
22 1/2+z,1/2-y,1/2-x
23 1/2-z,1/2+y,1/2-x
24 1/2-z,1/2-y,1/2+x
_cell_length_a                   16.0311(1)
_cell_length_b                   16.0311(1)
_cell_length_c                   16.0311(1)
_cell_angle_alpha                90
_cell_angle_beta                 90
_cell_angle_gamma                90
_cell_volume                     4119.93
loop_
_atom_site_label
_atom_site_type_symbol
_atom_site_fract_x
_atom_site_fract_y
_atom_site_fract_z
_atom_site_U_iso_or_equiv
_atom_site_thermal_displace_type
Li1 Li 0.5000 0.2500 0.0000 0.0429 Uani
B1 B 0.2500 0.5000 0.0000 0.0409 Uani
N1 N 0.30612(8) 0.42758(8) 0.03026(8) 0.0402 Uani
N2 N 0.40334(9) 0.32712(9) 0.03154(9) 0.0492 Uani
C1 C 0.37008(10) 0.38929(10) -0.01140(10) 0.0417 Uani
C2 C 0.35971(11) 0.32587(12) 0.10594(12) 0.0570 Uani
H1 H 0.3689 0.2886 0.1494 0.0680 Uiso
C3 C 0.30205(11) 0.38656(11) 0.10593(11) 0.0510 Uani
H2 H 0.2656 0.3989 0.1494 0.0610 Uiso
C4 C 0.40306(12) 0.41540(13) -0.09506(12) 0.0596 Uani
H3 H 0.4469 0.3782 -0.1117 0.0890 Uiso
H4 H 0.4245 0.4712 -0.0915 0.0890 Uiso
H5 H 0.3589 0.4135 -0.1354 0.0890 Uiso
Li1A Li 0.5000 0.7500 0.0000 0.0429 Uani
Li1D Li 0.0000 0.5000 0.2500 0.0429 Uani
Li1E Li 0.0000 0.5000 -0.2500 0.0429 Uani
N1C N 0.30612(8) 0.57242(8) -0.03026(8) 0.0402 Uani
N1Q N 0.19388(8) 0.53026(8) 0.07242(8) 0.0402 Uani
N1R N 0.19388(8) 0.46974(8) -0.07242(8) 0.0402 Uani
N2C N 0.40334(9) 0.67288(9) -0.03154(9) 0.0492 Uani
N2Q N 0.09666(9) 0.53154(9) 0.17288(9) 0.0492 Uani
N2R N 0.09666(9) 0.46846(9) -0.17288(9) 0.0492 Uani
N2B N 0.59666(9) 0.32712(9) -0.03154(9) 0.0492 Uani
N2U N 0.53154(9) 0.17288(9) 0.09666(9) 0.0492 Uani
N2W N 0.46846(9) 0.17288(9) -0.09666(9) 0.0492 Uani
C1C C 0.37008(10) 0.61071(10) 0.01140(10) 0.0417 Uani
C1Q C 0.12992(10) 0.48860(10) 0.11071(10) 0.0417 Uani
C1R C 0.12992(10) 0.51140(10) -0.11071(10) 0.0417 Uani
C2C C 0.35971(11) 0.67413(12) -0.10594(12) 0.0570 Uani
C2Q C 0.14029(11) 0.60594(12) 0.17413(12) 0.0570 Uani
C2R C 0.14029(11) 0.39406(12) -0.17413(12) 0.0570 Uani
H1C H 0.3689 0.7114 -0.1494 0.0680 Uiso
H1Q H 0.1311 0.6494 0.2114 0.0680 Uiso
H1R H 0.1311 0.3506 -0.2114 0.0680 Uiso
C3C C 0.30205(11) 0.61344(11) -0.10593(11) 0.0510 Uani
C3Q C 0.19795(11) 0.60593(11) 0.11344(11) 0.0510 Uani
C3R C 0.19795(11) 0.39407(11) -0.11344(11) 0.0510 Uani
H2C H 0.2656 0.6011 -0.1494 0.0610 Uiso
H2Q H 0.2344 0.6494 0.1011 0.0610 Uiso
H2R H 0.2344 0.3506 -0.1011 0.0610 Uiso
C4C C 0.40306(12) 0.58460(13) 0.09506(12) 0.0596 Uani
C4Q C 0.09694(12) 0.40494(12) 0.08460(13) 0.0596 Uani
C4R C 0.09694(12) 0.59506(12) -0.08460(13) 0.0596 Uani
H3C H 0.4469 0.6218 0.1117 0.0890 Uiso
H3Q H 0.0531 0.3883 0.1218 0.0890 Uiso
H3R H 0.0531 0.6117 -0.1218 0.0890 Uiso
H4C H 0.4245 0.5288 0.0915 0.0890 Uiso
H4Q H 0.0755 0.4085 0.0288 0.0890 Uiso
H4R H 0.0755 0.5915 -0.0288 0.0890 Uiso
H5C H 0.3589 0.5865 0.1354 0.0890 Uiso
H5Q H 0.1411 0.3646 0.0865 0.0890 Uiso
H5R H 0.1411 0.6354 -0.0865 0.0890 Uiso
loop_
_atom_site_aniso_label
_atom_site_aniso_U_11
_atom_site_aniso_U_22
_atom_site_aniso_U_33
_atom_site_aniso_U_23
_atom_site_aniso_U_13
_atom_site_aniso_U_12
Li1 0.0473(18) 0.034(3) 0.0473(18) 0.000 0.000 0.000
B1 0.0362(19) 0.0433(12) 0.0433(12) 0.000 0.000 0.000
N1 0.0390(8) 0.0435(8) 0.0381(7) 0.0018(6) -0.0001(6) 0.0033(6)
N2 0.0486(9) 0.0471(8) 0.0518(9) 0.0043(7) 0.0010(7) 0.0080(7)
C1 0.0386(8) 0.0444(9) 0.0422(9) -0.0025(8) 0.0000(7) 0.0023(7)
C2 0.0576(11) 0.0594(11) 0.0539(11) 0.0127(9) 0.0056(10) 0.0065(10)
C3 0.0518(11) 0.0559(11) 0.0454(10) 0.0077(9) 0.0059(8) 0.0062(9)
C4 0.0535(11) 0.0709(12) 0.0544(11) 0.0066(10) 0.0135(10) 0.0115(11)
Li1A 0.0473 0.034 0.0473 0 0 0
Li1D 0.0473 0.0473 0.034 0 0 0
Li1E 0.0473 0.0473 0.034 0 0 0
N1C 0.039 0.0435 0.0381 0.0018 0.0001 -0.0033
N1Q 0.039 0.0381 0.0435 -0.0018 0.0033 0.0001
N1R 0.039 0.0381 0.0435 -0.0018 -0.0033 -0.0001
N2C 0.0486 0.0471 0.0518 0.0043 -0.001 -0.008
N2Q 0.0486 0.0518 0.0471 -0.0043 0.008 -0.001
N2R 0.0486 0.0518 0.0471 -0.0043 -0.008 0.001
N2B 0.0486 0.0471 0.0518 -0.0043 0.001 -0.008
N2U 0.0518 0.0471 0.0486 0.008 -0.001 -0.0043
N2W 0.0518 0.0471 0.0486 -0.008 -0.001 0.0043
C1C 0.0386 0.0444 0.0422 -0.0025 0 -0.0023
C1Q 0.0386 0.0422 0.0444 0.0025 0.0023 0
C1R 0.0386 0.0422 0.0444 0.0025 -0.0023 0
C2C 0.0576 0.0594 0.0539 0.0127 -0.0056 -0.0065
C2Q 0.0576 0.0539 0.0594 -0.0127 0.0065 -0.0056
C2R 0.0576 0.0539 0.0594 -0.0127 -0.0065 0.0056
C3C 0.0518 0.0559 0.0454 0.0077 -0.0059 -0.0062
C3Q 0.0518 0.0454 0.0559 -0.0077 0.0062 -0.0059
C3R 0.0518 0.0454 0.0559 -0.0077 -0.0062 0.0059
C4C 0.0535 0.0709 0.0544 0.0066 -0.0135 -0.0115
C4Q 0.0535 0.0544 0.0709 -0.0066 0.0115 -0.0135
C4R 0.0535 0.0544 0.0709 -0.0066 -0.0115 0.0135
loop_
_geom_bond_atom_site_label_1
_geom_bond_atom_site_label_2
_geom_bond_site_symmetry_1
_geom_bond_site_symmetry_2
Li1 N2 1_555 1_555
B1 N1 1_555 1_555
N1 C1 1_555 1_555
N2 C1 1_555 1_555
C1 C4 1_555 1_555
C2 N2 1_555 1_555
H1 C2 1_555 1_555
C3 N1 1_555 1_555
H2 C3 1_555 1_555
C4 H3 1_555 1_555
H4 C4 1_555 1_555
H5 C4 1_555 1_555
Li1A N2C 1_555 1_555
Li1D N2Q 1_555 1_555
Li1E N2R 1_555 1_555
N1C B1 1_555 1_555
N1Q B1 1_555 1_555
N1R B1 1_555 1_555
N2C C1C 1_555 1_555
N2Q C1Q 1_555 1_555
N2R C1R 1_555 1_555
N2B Li1 1_555 1_555
N2U Li1 1_555 1_555
N2W Li1 1_555 1_555
C1C N1C 1_555 1_555
C1Q N1Q 1_555 1_555
C1R N1R 1_555 1_555
C2C N2C 1_555 1_555
C2Q N2Q 1_555 1_555
C2R N2R 1_555 1_555
H1C C2C 1_555 1_555
H1Q C2Q 1_555 1_555
H1R C2R 1_555 1_555
C3C N1C 1_555 1_555
C3Q N1Q 1_555 1_555
C3R N1R 1_555 1_555
H2C C3C 1_555 1_555
H2Q C3Q 1_555 1_555
H2R C3R 1_555 1_555
C4C C1C 1_555 1_555
C4Q C1Q 1_555 1_555
C4R C1R 1_555 1_555
H3C C4C 1_555 1_555
H3Q C4Q 1_555 1_555
H3R C4R 1_555 1_555
H4C C4C 1_555 1_555
H4Q C4Q 1_555 1_555
H4R C4R 1_555 1_555
H5C C4C 1_555 1_555
H5Q C4Q 1_555 1_555
H5R C4R 1_555 1_555
C2 C3 1_555 1_555
C2C C3C 1_555 1_555
C2Q C3Q 1_555 1_555
C2R C3R 1_555 1_555

#END
