
#######################################################################
#
#                 Cambridge Crystallographic Data Centre
#                                CCDC 
#
#######################################################################
#
# If this CIF has been generated from an entry in the Cambridge 
# Structural Database, then it will include bibliographic, chemical, 
# crystal, experimental, refinement or atomic coordinate data resulting 
# from the CCDC's data processing and validation procedures.
#
#######################################################################

data_CUVTIX
_chemical_formula_moiety         'C78 H60 N12 O43 Zn10'
_symmetry_cell_setting           cubic
_symmetry_space_group_name_H-M   'P -4 3 m'
_symmetry_Int_Tables_number      215
_space_group_name_Hall           'P -4 2 3'
loop_
_symmetry_equiv_pos_site_id
_symmetry_equiv_pos_as_xyz
1 x,y,z
2 z,x,y
3 y,z,x
4 -y,x,-z
5 -x,z,-y
6 -z,y,-x
7 x,-y,-z
8 z,-x,-y
9 y,-z,-x
10 -y,-x,z
11 -x,-z,y
12 -z,-y,x
13 -x,y,-z
14 -z,x,-y
15 -y,z,-x
16 y,x,z
17 x,z,y
18 z,y,x
19 -x,-y,z
20 -z,-x,y
21 -y,-z,x
22 y,-x,-z
23 x,-z,-y
24 z,-y,-x
_cell_length_a                   17.1728(3)
_cell_length_b                   17.1728(3)
_cell_length_c                   17.1728(3)
_cell_angle_alpha                90
_cell_angle_beta                 90
_cell_angle_gamma                90
_cell_volume                     5064.35
loop_
_atom_site_label
_atom_site_type_symbol
_atom_site_fract_x
_atom_site_fract_y
_atom_site_fract_z
O1 O 0.5000 0.5000 0.5000
C1 C 0.2926(8) 0.5000 0.5000
C2 C 0.2040(7) 0.5000 0.5000
C3 C 0.0426(7) 0.5000 0.5000
Zn1 Zn 0.43504(6) 0.43504(6) 0.56496(6)
O2 O 0.3257(4) 0.4524(5) 0.5476(5)
C4 C 0.1640(5) 0.5494(3) 0.4506(3)
H1 H 0.1912 0.5825 0.4175
C5 C 0.0832(6) 0.5496(3) 0.4504(3)
N1 N 0.0461 0.6005 0.3995
H2 H -0.0040 0.5996 0.4004
C6 C 0.0799 0.6539 0.3461
C7 C 0.0871 0.7476 0.2523
C8 C 0.0435 0.8031 0.1969
H3 H 0.0108 0.8373 0.2266
H4 H 0.0121 0.7733 0.1616
H5 H 0.0805 0.8333 0.1679
O3 O 0.0329 0.7041 0.2959
O4 O 0.1511 0.6568 0.3432
C1D C -0.2926(8) 0.5000 0.5000
C1E C 0.5000 0.5000 0.7074(8)
C1B C 0.5000 0.5000 1.2926(8)
C1A C 0.5000 0.2926(8) 0.5000
C1G C 0.5000 -0.2926(8) 0.5000
C2D C -0.2040(7) 0.5000 0.5000
C2E C 0.5000 0.5000 0.7960(7)
C2B C 0.5000 0.5000 1.2040(7)
C2A C 0.5000 0.2040(7) 0.5000
C2G C 0.5000 -0.2040(7) 0.5000
C3D C -0.0426(7) 0.5000 0.5000
C3E C 0.5000 0.5000 0.9574(7)
C3B C 0.5000 0.5000 1.0426(7)
C3A C 0.5000 0.0426(7) 0.5000
C3G C 0.5000 -0.0426(7) 0.5000
Zn1A Zn 0.56496(6) 0.43504(6) 0.43504(6)
Zn1B Zn 0.43504(6) 0.56496(6) 0.43504(6)
Zn1D Zn 0.56496(6) 0.56496(6) 0.56496(6)
Zn1A_2 Zn -0.43504(6) 0.43504(6) 0.43504(6)
Zn1D_2 Zn -0.43504(6) 0.56496(6) 0.56496(6)
Zn1A_3 Zn 0.56496(6) 0.43504(6) 1.43504(6)
Zn1B_2 Zn 0.43504(6) 0.56496(6) 1.43504(6)
Zn1D_3 Zn 0.56496(6) -0.43504(6) 0.56496(6)
Zn1B_3 Zn 0.43504(6) -0.43504(6) 0.43504(6)
O2J O -0.3257(4) 0.4524(5) 0.4524(5)
O2D O -0.3257(4) 0.5476(5) 0.5476(5)
O2F O 0.3257(4) 0.5476(5) 0.4524(5)
O2E O 0.4524(5) 0.4524(5) 0.6743(4)
O2Q O 0.5476(5) 0.4524(5) 1.3257(4)
O2B O 0.4524(5) 0.5476(5) 1.3257(4)
O2N O 0.5476(5) 0.5476(5) 0.6743(4)
O2M O 0.4524(5) 0.3257(4) 0.5476(5)
O2G O 0.5476(5) -0.3257(4) 0.5476(5)
O2S O 0.4524(5) -0.3257(4) 0.4524(5)
O2A O 0.5476(5) 0.3257(4) 0.4524(5)
O2J_2 O 0.6743(4) 0.4524(5) 0.4524(5)
O2Q_2 O 0.5476(5) 0.4524(5) 0.3257(4)
O2B_2 O 0.4524(5) 0.5476(5) 0.3257(4)
O2S_2 O 0.4524(5) 0.6743(4) 0.4524(5)
O2D_2 O 0.6743(4) 0.5476(5) 0.5476(5)
O2G_2 O 0.5476(5) 0.6743(4) 0.5476(5)
C4J C -0.1640(5) 0.5494(3) 0.5494(3)
C4D C -0.1640(5) 0.4506(3) 0.4506(3)
C4F C 0.1640(5) 0.4506(3) 0.5494(3)
C4E C 0.5494(3) 0.5494(3) 0.8360(5)
C4Q C 0.4506(3) 0.5494(3) 1.1640(5)
C4B C 0.5494(3) 0.4506(3) 1.1640(5)
C4N C 0.4506(3) 0.4506(3) 0.8360(5)
C4M C 0.5494(3) 0.1640(5) 0.4506(3)
C4G C 0.4506(3) -0.1640(5) 0.4506(3)
C4S C 0.5494(3) -0.1640(5) 0.5494(3)
C4A C 0.4506(3) 0.1640(5) 0.5494(3)
H1D H -0.1912 0.4175 0.4175
H1J H -0.1912 0.5825 0.5825
H1F H 0.1912 0.4175 0.5825
H1E H 0.5825 0.5825 0.8088
H1B H 0.5825 0.4175 1.1912
H1Q H 0.4175 0.5825 1.1912
H1N H 0.4175 0.4175 0.8088
H1M H 0.5825 0.1912 0.4175
H1S H 0.5825 -0.1912 0.5825
H1G H 0.4175 -0.1912 0.4175
H1A H 0.4175 0.1912 0.5825
C5J C -0.0832(6) 0.5496(3) 0.5496(3)
C5D C -0.0832(6) 0.4504(3) 0.4504(3)
C5F C 0.0832(6) 0.4504(3) 0.5496(3)
C5E C 0.5496(3) 0.5496(3) 0.9168(6)
C5Q C 0.4504(3) 0.5496(3) 1.0832(6)
C5B C 0.5496(3) 0.4504(3) 1.0832(6)
C5N C 0.4504(3) 0.4504(3) 0.9168(6)
C5M C 0.5496(3) 0.0832(6) 0.4504(3)
C5G C 0.4504(3) -0.0832(6) 0.4504(3)
C5S C 0.5496(3) -0.0832(6) 0.5496(3)
C5A C 0.4504(3) 0.0832(6) 0.5496(3)
N1D N -0.0461 0.3995 0.3995
N1J N -0.0461 0.6005 0.6005
N1F N 0.0461 0.3995 0.6005
N1E N 0.6005 0.6005 0.9539
N1B N 0.6005 0.3995 1.0461
N1Q N 0.3995 0.6005 1.0461
N1N N 0.3995 0.3995 0.9539
N1M N 0.6005 0.0461 0.3995
N1S N 0.6005 -0.0461 0.6005
N1G N 0.3995 -0.0461 0.3995
N1A N 0.3995 0.0461 0.6005
H2D H 0.0040 0.4004 0.4004
H2J H 0.0040 0.5996 0.5996
H2F H -0.0040 0.4004 0.5996
H2E H 0.5996 0.5996 1.0040
H2B H 0.5996 0.4004 0.9960
H2Q H 0.4004 0.5996 0.9960
H2N H 0.4004 0.4004 1.0040
H2M H 0.5996 -0.0040 0.4004
H2S H 0.5996 0.0040 0.5996
H2G H 0.4004 0.0040 0.4004
H2A H 0.4004 -0.0040 0.5996
C6D C -0.0799 0.3461 0.3461
C6J C -0.0799 0.6539 0.6539
C6F C 0.0799 0.3461 0.6539
C6E C 0.6539 0.6539 0.9201
C6B C 0.6539 0.3461 1.0799
C6Q C 0.3461 0.6539 1.0799
C6N C 0.3461 0.3461 0.9201
C6M C 0.6539 0.0799 0.3461
C6S C 0.6539 -0.0799 0.6539
C6G C 0.3461 -0.0799 0.3461
C6A C 0.3461 0.0799 0.6539
C7D C -0.0871 0.2523 0.2524
C7J C -0.0871 0.7477 0.7476
C7F C 0.0871 0.2524 0.7477
C7E C 0.7477 0.7476 0.9129
C7B C 0.7476 0.2523 1.0871
C7T C 0.2524 0.7477 1.0871
C7W C 0.2523 0.2524 0.9129
C7M C 0.7477 0.0871 0.2524
C7U C 0.7476 -0.0871 0.7477
C7I C 0.2524 -0.0871 0.2523
C7A C 0.2523 0.0871 0.7476
C8D C -0.0435 0.1969 0.1969
C8J C -0.0435 0.8031 0.8031
C8F C 0.0435 0.1969 0.8031
C8E C 0.8031 0.8031 0.9565
C8B C 0.8031 0.1969 1.0435
C8Q C 0.1969 0.8031 1.0435
C8N C 0.1969 0.1969 0.9565
C8M C 0.8031 0.0435 0.1969
C8S C 0.8031 -0.0435 0.8031
C8G C 0.1969 -0.0435 0.1969
C8A C 0.1969 0.0435 0.8031
H3D H -0.0108 0.2266 0.1627
H3J H -0.0108 0.7734 0.8373
H3F H 0.0108 0.1627 0.7734
H3E H 0.7734 0.8373 0.9892
H3B H 0.8373 0.2266 1.0108
H3T H 0.1627 0.7734 1.0108
H3W H 0.2266 0.1627 0.9892
H3M H 0.7734 0.0108 0.1627
H3U H 0.8373 -0.0108 0.7734
H3I H 0.1627 -0.0108 0.2266
H3A H 0.2266 0.0108 0.8373
H4D H -0.0121 0.1616 0.2267
H4J H -0.0121 0.8384 0.7733
H4F H 0.0121 0.2267 0.8384
H4E H 0.8384 0.7733 0.9879
H4B H 0.7733 0.1616 1.0121
H4T H 0.2267 0.8384 1.0121
H4W H 0.1616 0.2267 0.9879
H4M H 0.8384 0.0121 0.2267
H4U H 0.7733 -0.0121 0.8384
H4I H 0.2267 -0.0121 0.1616
H4A H 0.1616 0.0121 0.7733
H5D H -0.0805 0.1679 0.1667
H5J H -0.0805 0.8321 0.8333
H5F H 0.0805 0.1667 0.8321
H5E H 0.8321 0.8333 0.9195
H5B H 0.8333 0.1679 1.0805
H5T H 0.1667 0.8321 1.0805
H5W H 0.1679 0.1667 0.9195
H5M H 0.8321 0.0805 0.1667
H5U H 0.8333 -0.0805 0.8321
H5I H 0.1667 -0.0805 0.1679
H5A H 0.1679 0.0805 0.8333
O3D O -0.0329 0.2959 0.2959
O3J O -0.0329 0.7041 0.7041
O3F O 0.0329 0.2959 0.7041
O3E O 0.7041 0.7041 0.9671
O3B O 0.7041 0.2959 1.0329
O3Q O 0.2959 0.7041 1.0329
O3N O 0.2959 0.2959 0.9671
O3M O 0.7041 0.0329 0.2959
O3S O 0.7041 -0.0329 0.7041
O3G O 0.2959 -0.0329 0.2959
O3A O 0.2959 0.0329 0.7041
O4D O -0.1511 0.3432 0.3432
O4J O -0.1511 0.6568 0.6568
O4F O 0.1511 0.3432 0.6568
O4E O 0.6568 0.6568 0.8489
O4B O 0.6568 0.3432 1.1511
O4Q O 0.3432 0.6568 1.1511
O4N O 0.3432 0.3432 0.8489
O4M O 0.6568 0.1511 0.3432
O4S O 0.6568 -0.1511 0.6568
O4G O 0.3432 -0.1511 0.3432
O4A O 0.3432 0.1511 0.6568
loop_
_geom_bond_atom_site_label_1
_geom_bond_atom_site_label_2
_geom_bond_site_symmetry_1
_geom_bond_site_symmetry_2
O1 Zn1 1_555 1_555
C1 C2 1_555 1_555
C2 C4 1_555 1_555
C3 C5 1_555 1_555
Zn1 O2 1_555 1_555
O2 C1 1_555 1_555
C4 H1 1_555 1_555
C5 C4 1_555 1_555
N1 C5 1_555 1_555
H2 N1 1_555 1_555
C6 N1 1_555 1_555
C7 C8 1_555 1_555
C8 H3 1_555 1_555
H4 C8 1_555 1_555
H5 C8 1_555 1_555
O3 C6 1_555 1_555
O4 C6 1_555 1_555
C1D C2D 1_555 1_555
C1E C2E 1_555 1_555
C1B C2B 1_555 1_555
C1A C2A 1_555 1_555
C1G C2G 1_555 1_555
C2D C4J 1_555 1_555
C2E C4E 1_555 1_555
C2B C4Q 1_555 1_555
C2A C4M 1_555 1_555
C2G C4G 1_555 1_555
C3D C3 1_555 1_555
C3E C3B 1_555 1_555
C3B C5Q 1_555 1_555
C3A C3G 1_555 1_555
C3G C5G 1_555 1_555
Zn1A O1 1_555 1_555
Zn1B O1 1_555 1_555
Zn1D O1 1_555 1_555
Zn1A_2 O2J 1_555 1_555
Zn1D_2 O2D 1_555 1_555
Zn1A_3 O2Q 1_555 1_555
Zn1B_2 O2B 1_555 1_555
Zn1D_3 O2G 1_555 1_555
Zn1B_3 O2S 1_555 1_555
O2J C1D 1_555 1_555
O2D C1D 1_555 1_555
O2F C1 1_555 1_555
O2E Zn1 1_555 1_555
O2Q C1B 1_555 1_555
O2B C1B 1_555 1_555
O2N C1E 1_555 1_555
O2M Zn1 1_555 1_555
O2G C1G 1_555 1_555
O2S C1G 1_555 1_555
O2A C1A 1_555 1_555
O2J_2 Zn1A 1_555 1_555
O2Q_2 Zn1A 1_555 1_555
O2B_2 Zn1B 1_555 1_555
O2S_2 Zn1B 1_555 1_555
O2D_2 Zn1D 1_555 1_555
O2G_2 Zn1D 1_555 1_555
C4J H1J 1_555 1_555
C4D C2D 1_555 1_555
C4F C2 1_555 1_555
C4E H1E 1_555 1_555
C4Q H1Q 1_555 1_555
C4B C2B 1_555 1_555
C4N C2E 1_555 1_555
C4M H1M 1_555 1_555
C4G H1G 1_555 1_555
C4S C2G 1_555 1_555
C4A C2A 1_555 1_555
H1D C4D 1_555 1_555
H1F C4F 1_555 1_555
H1B C4B 1_555 1_555
H1N C4N 1_555 1_555
H1S C4S 1_555 1_555
H1A C4A 1_555 1_555
C5J C3D 1_555 1_555
C5D C3D 1_555 1_555
C5F C3 1_555 1_555
C5E C3E 1_555 1_555
C5Q C4Q 1_555 1_555
C5B C3B 1_555 1_555
C5N C3E 1_555 1_555
C5M C3A 1_555 1_555
C5G C4G 1_555 1_555
C5S C3G 1_555 1_555
C5A C3A 1_555 1_555
N1D C5D 1_555 1_555
N1J C5J 1_555 1_555
N1F C5F 1_555 1_555
N1E C5E 1_555 1_555
N1B C5B 1_555 1_555
N1Q C5Q 1_555 1_555
N1N C5N 1_555 1_555
N1M C5M 1_555 1_555
N1S C5S 1_555 1_555
N1G C5G 1_555 1_555
N1A C5A 1_555 1_555
H2D N1D 1_555 1_555
H2J N1J 1_555 1_555
H2F N1F 1_555 1_555
H2E N1E 1_555 1_555
H2B N1B 1_555 1_555
H2Q N1Q 1_555 1_555
H2N N1N 1_555 1_555
H2M N1M 1_555 1_555
H2S N1S 1_555 1_555
H2G N1G 1_555 1_555
H2A N1A 1_555 1_555
C6D N1D 1_555 1_555
C6J N1J 1_555 1_555
C6F N1F 1_555 1_555
C6E N1E 1_555 1_555
C6B N1B 1_555 1_555
C6Q N1Q 1_555 1_555
C6N N1N 1_555 1_555
C6M N1M 1_555 1_555
C6S N1S 1_555 1_555
C6G N1G 1_555 1_555
C6A N1A 1_555 1_555
C7D C8D 1_555 1_555
C7J C8J 1_555 1_555
C7F C8F 1_555 1_555
C7E C8E 1_555 1_555
C7B C8B 1_555 1_555
C7T C8Q 1_555 1_555
C7W C8N 1_555 1_555
C7M C8M 1_555 1_555
C7U C8S 1_555 1_555
C7I C8G 1_555 1_555
C7A C8A 1_555 1_555
C8D H3D 1_555 1_555
C8J H3J 1_555 1_555
C8F H3F 1_555 1_555
C8E H3E 1_555 1_555
C8B H3B 1_555 1_555
C8Q H3T 1_555 1_555
C8N H3W 1_555 1_555
C8M H3M 1_555 1_555
C8S H3U 1_555 1_555
C8G H3I 1_555 1_555
C8A H3A 1_555 1_555
H4D C8D 1_555 1_555
H4J C8J 1_555 1_555
H4F C8F 1_555 1_555
H4E C8E 1_555 1_555
H4B C8B 1_555 1_555
H4T C8Q 1_555 1_555
H4W C8N 1_555 1_555
H4M C8M 1_555 1_555
H4U C8S 1_555 1_555
H4I C8G 1_555 1_555
H4A C8A 1_555 1_555
H5D C8D 1_555 1_555
H5J C8J 1_555 1_555
H5F C8F 1_555 1_555
H5E C8E 1_555 1_555
H5B C8B 1_555 1_555
H5T C8Q 1_555 1_555
H5W C8N 1_555 1_555
H5M C8M 1_555 1_555
H5U C8S 1_555 1_555
H5I C8G 1_555 1_555
H5A C8A 1_555 1_555
O3D C6D 1_555 1_555
O3J C6J 1_555 1_555
O3F C6F 1_555 1_555
O3E C6E 1_555 1_555
O3B C6B 1_555 1_555
O3Q C6Q 1_555 1_555
O3N C6N 1_555 1_555
O3M C6M 1_555 1_555
O3S C6S 1_555 1_555
O3G C6G 1_555 1_555
O3A C6A 1_555 1_555
O4D C6D 1_555 1_555
O4J C6J 1_555 1_555
O4F C6F 1_555 1_555
O4E C6E 1_555 1_555
O4B C6B 1_555 1_555
O4Q C6Q 1_555 1_555
O4N C6N 1_555 1_555
O4M C6M 1_555 1_555
O4S C6S 1_555 1_555
O4G C6G 1_555 1_555
O4A C6A 1_555 1_555
C7 O3 1_555 1_555
C1E O2E 1_555 1_555
C1A O2M 1_555 1_555
Zn1A O2A 1_555 1_555
Zn1B O2F 1_555 1_555
Zn1D O2N 1_555 1_555
C4J C5J 1_555 1_555
C4D C5D 1_555 1_555
C4F C5F 1_555 1_555
C4E C5E 1_555 1_555
C4B C5B 1_555 1_555
C4N C5N 1_555 1_555
C4M C5M 1_555 1_555
C4S C5S 1_555 1_555
C4A C5A 1_555 1_555
C7D O3D 1_555 1_555
C7J O3J 1_555 1_555
C7F O3F 1_555 1_555
C7E O3E 1_555 1_555
C7B O3B 1_555 1_555
C7T O3Q 1_555 1_555
C7W O3N 1_555 1_555
C7M O3M 1_555 1_555
C7U O3S 1_555 1_555
C7I O3G 1_555 1_555
C7A O3A 1_555 1_555

#END
