
#######################################################################
#
#                 Cambridge Crystallographic Data Centre
#                                CCDC 
#
#######################################################################
#
# If this CIF has been generated from an entry in the Cambridge 
# Structural Database, then it will include bibliographic, chemical, 
# crystal, experimental, refinement or atomic coordinate data resulting 
# from the CCDC's data processing and validation procedures.
#
#######################################################################

data_KAHYEY
_chemical_formula_moiety         '(C6 H6 Mn4 O22 P2 2-)n'
_symmetry_cell_setting           triclinic
_symmetry_space_group_name_H-M   'P -1'
_symmetry_Int_Tables_number      2
_space_group_name_Hall           '-P 1'
loop_
_symmetry_equiv_pos_site_id
_symmetry_equiv_pos_as_xyz
1 x,y,z
2 -x,-y,-z
_cell_length_a                   8.014(1)
_cell_length_b                   9.740(2)
_cell_length_c                   7.744(2)
_cell_angle_alpha                102.32(2)
_cell_angle_beta                 93.38(2)
_cell_angle_gamma                75.90(1)
_cell_volume                     572.741
loop_
_atom_site_label
_atom_site_type_symbol
_atom_site_fract_x
_atom_site_fract_y
_atom_site_fract_z
Mn1 Mn 0.03196(3) 0.25126(2) 0.15892(3)
O1 O -0.1060(2) 0.4856(1) 0.1835(2)
O2 O -0.0546(2) 0.2199(2) 0.4104(2)
O3 O 0.2403(2) 0.2830(2) 0.3466(2)
O4 O 0.1953(2) 0.0541(1) 0.0152(2)
O5 O -0.1595(2) 0.6609(1) 0.0283(2)
O6 O 0.1939(2) -0.2106(1) -0.0375(2)
C1 C -0.0766(2) 0.5418(1) 0.0625(2)
C2 C 0.0653(2) 0.1992(2) 0.5204(2)
C3 C 0.2371(2) 0.2333(2) 0.4817(2)
Mn2 Mn 0.30922(3) 0.11955(3) -0.18729(3)
P1 P 0.26732(5) -0.08984(4) 0.07318(5)
O7 O 0.0605(2) 0.1537(2) 0.6593(2)
O8 O 0.3601(2) 0.2071(2) 0.5867(2)
O9 O 0.3529(2) -0.1003(2) -0.3528(2)
O10 O 0.4606(2) -0.1335(2) 0.0698(2)
O11 O 0.2117(2) -0.0667(2) 0.2725(2)
O1A O 0.1060(2) 0.5144(1) -0.1835(2)
O5A O 0.1595(2) 0.3391(1) -0.0283(2)
C1A C 0.0766(2) 0.4582(1) -0.0625(2)
Mn1A Mn -0.03196(3) -0.25126(2) -0.15892(3)
O2A O 0.0546(2) -0.2199(2) -0.4104(2)
O3A O -0.2403(2) -0.2830(2) -0.3466(2)
O4A O -0.1953(2) -0.0541(1) -0.0152(2)
O6A O -0.1939(2) 0.2106(1) 0.0375(2)
C2A C -0.0653(2) -0.1992(2) -0.5204(2)
C3A C -0.2371(2) -0.2333(2) -0.4817(2)
Mn2A Mn -0.30922(3) -0.11955(3) 0.18729(3)
P1A P -0.26732(5) 0.08984(4) -0.07318(5)
O7A O -0.0605(2) -0.1537(2) -0.6593(2)
O8A O -0.3601(2) -0.2071(2) -0.5867(2)
O9A O -0.3529(2) 0.1003(2) 0.3528(2)
O10A O -0.4606(2) 0.1335(2) -0.0698(2)
O11A O -0.2117(2) 0.0667(2) -0.2725(2)
Mn1A_2 Mn -0.03196(3) 0.74874(2) -0.15892(3)
O1A_2 O 0.1060(2) -0.4856(1) -0.1835(2)
O5_2 O -0.1595(2) -0.3391(1) 0.0283(2)
Mn2_2 Mn -0.69078(3) 0.11955(3) -0.18729(3)
Mn2_3 Mn 0.30922(3) 0.11955(3) 0.81271(3)
Mn2A_2 Mn -0.30922(3) -0.11955(3) -0.81271(3)
Mn2A_3 Mn -0.30922(3) 0.88045(3) 0.18729(3)
Mn2A_4 Mn 0.69078(3) -0.11955(3) 0.18729(3)
O7_2 O 0.0605(2) 0.1537(2) -0.3407(2)
O7A_2 O -0.0605(2) -0.1537(2) 0.3407(2)
O8_2 O 0.3601(2) 0.2071(2) -0.4133(2)
O8A_2 O -0.3601(2) -0.2071(2) 0.4133(2)
O10_2 O -0.5394(2) -0.1335(2) 0.0698(2)
O10A_2 O 0.5394(2) 0.1335(2) -0.0698(2)
loop_
_geom_bond_atom_site_label_1
_geom_bond_atom_site_label_2
_geom_bond_site_symmetry_1
_geom_bond_site_symmetry_2
Mn1 O1 1_555 1_555
O1 C1 1_555 1_555
O2 Mn1 1_555 1_555
O3 Mn1 1_555 1_555
O4 Mn1 1_555 1_555
O5 C1 1_555 1_555
O6 P1 1_555 1_555
C1 C1A 1_555 1_555
C2 O2 1_555 1_555
C3 O3 1_555 1_555
Mn2 O4 1_555 1_555
P1 O4 1_555 1_555
O7 C2 1_555 1_555
O8 C3 1_555 1_555
O9 Mn2 1_555 1_555
O10 P1 1_555 1_555
O11 P1 1_555 1_555
O1A C1A 1_555 1_555
O5A Mn1 1_555 1_555
C1A O5A 1_555 1_555
Mn1A O6 1_555 1_555
O2A Mn1A 1_555 1_555
O3A Mn1A 1_555 1_555
O4A Mn1A 1_555 1_555
O6A Mn1 1_555 1_555
C2A O2A 1_555 1_555
C3A O3A 1_555 1_555
Mn2A O4A 1_555 1_555
P1A O4A 1_555 1_555
O7A C2A 1_555 1_555
O8A C3A 1_555 1_555
O9A Mn2A 1_555 1_555
O10A P1A 1_555 1_555
O11A P1A 1_555 1_555
Mn1A_2 O5 1_555 1_555
O1A_2 Mn1A 1_555 1_555
O5_2 Mn1A 1_555 1_555
Mn2_2 O10A 1_555 1_555
Mn2_3 O7 1_555 1_555
Mn2A_2 O7A 1_555 1_555
Mn2A_3 O5 1_555 1_555
Mn2A_4 O10 1_555 1_555
O7_2 Mn2 1_555 1_555
O7A_2 Mn2A 1_555 1_555
O8_2 Mn2 1_555 1_555
O8A_2 Mn2A 1_555 1_555
O10_2 Mn2A 1_555 1_555
O10A_2 Mn2 1_555 1_555
C2 C3 1_555 1_555
Mn2 O5A 1_555 1_555
O8 Mn2_3 1_555 1_555
O1A Mn1A_2 1_555 1_555
O6A P1A 1_555 1_555
C2A C3A 1_555 1_555
Mn2A O5_2 1_555 1_555
O8A Mn2A_2 1_555 1_555

#END
