
#######################################################################
#
#                 Cambridge Crystallographic Data Centre
#                                CCDC 
#
#######################################################################
#
# If this CIF has been generated from an entry in the Cambridge 
# Structural Database, then it will include bibliographic, chemical, 
# crystal, experimental, refinement or atomic coordinate data resulting 
# from the CCDC's data processing and validation procedures.
#
#######################################################################

data_ODONIF
_chemical_formula_moiety         '(C44 H62 Co2 N16 O19)n'
_symmetry_cell_setting           hexagonal
_symmetry_space_group_name_H-M   'P 65 2 2'
_symmetry_Int_Tables_number      179
_space_group_name_Hall           'P 65 2 (0 0 1)'
loop_
_symmetry_equiv_pos_site_id
_symmetry_equiv_pos_as_xyz
1 x,y,z
2 -y,x-y,2/3+z
3 -x+y,-x,1/3+z
4 -x,-y,1/2+z
5 y,-x+y,1/6+z
6 x-y,x,5/6+z
7 y,x,2/3-z
8 x-y,-y,-z
9 -x,-x+y,1/3-z
10 -y,-x,1/6-z
11 -x+y,y,1/2-z
12 x,x-y,5/6-z
_cell_length_a                   12.5764(6)
_cell_length_b                   12.5764(6)
_cell_length_c                   62.941(4)
_cell_angle_alpha                90
_cell_angle_beta                 90
_cell_angle_gamma                120
_cell_volume                     8621.38
loop_
_atom_site_label
_atom_site_type_symbol
_atom_site_fract_x
_atom_site_fract_y
_atom_site_fract_z
_atom_site_U_iso_or_equiv
_atom_site_thermal_displace_type
C1 C 0.0767(3) 0.4151(3) 0.53100(6) 0.0307 Uani
C2 C 0.0753(3) 0.5265(4) 0.50125(5) 0.0329 Uani
C3 C 0.0408(3) 0.5723(3) 0.53448(5) 0.0291 Uani
C4 C 0.0702(4) 0.2838(4) 0.56027(6) 0.0381 Uani
H1 H 0.0220 0.2020 0.5657 0.0570 Uiso
H2 H 0.0223 0.3240 0.5605 0.0570 Uiso
C5 C 0.1823(3) 0.3544(3) 0.57399(5) 0.0316 Uani
C6 C 0.0715(4) 0.6412(4) 0.47006(6) 0.0449 Uani
H3 H 0.0964 0.7100 0.4796 0.0540 Uiso
H4 H -0.0150 0.6074 0.4669 0.0540 Uiso
C7 C 0.1444(4) 0.6858(4) 0.44974(5) 0.0330 Uani
C8 C -0.0053(4) 0.7382(4) 0.53856(7) 0.0394 Uani
H5 H 0.0574 0.7879 0.5282 0.0470 Uiso
H6 H -0.0012 0.7921 0.5499 0.0470 Uiso
C9 C -0.1306(4) 0.6830(3) 0.52797(6) 0.0380 Uani
C10 C 0.3942(4) 0.8193(4) 0.56761(6) 0.0390 Uani
H7 H 0.4091 0.8429 0.5818 0.0470 Uiso
C11 C 0.3733(4) 0.8923(4) 0.55333(7) 0.0424 Uani
H8 H 0.3752 0.9632 0.5581 0.0510 Uiso
C12 C 0.3496(4) 0.8594(4) 0.53206(6) 0.0361 Uani
C13 C 0.3514(4) 0.7548(4) 0.52604(6) 0.0411 Uani
H9 H 0.3380 0.7301 0.5119 0.0490 Uiso
C14 C 0.3726(4) 0.6871(4) 0.54059(6) 0.0388 Uani
H10 H 0.3727 0.6169 0.5360 0.0470 Uiso
C15 C 0.3224(4) 0.9322(4) 0.51651(7) 0.0477 Uani
H11 H 0.3098 0.9917 0.5242 0.0570 Uiso
H12 H 0.2465 0.8774 0.5092 0.0570 Uiso
C16 C 0.4237(4) 1.0000 0.5000 0.0424 Uani
H13 H 0.4400 0.9414 0.4927 0.0510 Uiso
C17 C 0.4390(4) 0.7378(3) 0.37446(5) 0.0336 Uani
H14 H 0.3712 0.7445 0.3706 0.0400 Uiso
C18 C 0.5333(4) 0.7781(4) 0.36037(6) 0.0431 Uani
H15 H 0.5287 0.8114 0.3475 0.0510 Uiso
C19 C 0.6365(4) 0.7696(4) 0.36521(7) 0.0438 Uani
C20 C 0.6351(4) 0.7139(5) 0.38463(7) 0.0472 Uani
H16 H 0.7005 0.7032 0.3885 0.0570 Uiso
C21 C 0.5359(4) 0.6756(4) 0.39786(6) 0.0414 Uani
H17 H 0.5363 0.6381 0.4106 0.0500 Uiso
C22 C 0.7437(4) 0.8102(4) 0.34970(7) 0.0438 Uani
H18 H 0.7605 0.8860 0.3428 0.0530 Uiso
H19 H 0.8168 0.8252 0.3574 0.0530 Uiso
C23 C 0.7123(5) 0.7123(5) 0.3333 0.0646 Uani
H20 H 0.6959 0.6382 0.3406 0.0770 Uiso
N1 N 0.0529(3) 0.4828(3) 0.54405(5) 0.0340 Uani
N2 N 0.0911(3) 0.4346(3) 0.50914(4) 0.0329 Uani
N3 N 0.0486(3) 0.5979(3) 0.51328(5) 0.0349 Uani
N4 N 0.0837(3) 0.3196(3) 0.53775(5) 0.0327 Uani
H21 H 0.0968 0.2765 0.5286 0.0390 Uiso
N5 N 0.0896(3) 0.5473(3) 0.48047(4) 0.0433 Uani
H22 H 0.1103 0.5038 0.4728 0.0510 Uiso
N6 N 0.0218(3) 0.6471(3) 0.54720(5) 0.0380 Uani
H23 H 0.0258 0.6409 0.5607 0.0460 Uiso
N7 N 0.3937(3) 0.7172(3) 0.56165(5) 0.0298 Uani
N8 N 0.4373(3) 0.6886(3) 0.39365(4) 0.0284 Uani
Co1 Co 0.40575(3) 0.59425(3) 0.5833 0.0267 Uani
Co2 Co 0.30362(6) 0.65181(3) 0.4167 0.0259 Uani
O1 O 0.2672(2) 0.4517(2) 0.56650(4) 0.0339 Uani
O2 O 0.1794(3) 0.3096(3) 0.59185(4) 0.0516 Uani
O3 O 0.1710(2) 0.6140(2) 0.43995(3) 0.0311 Uani
O4 O 0.1721(4) 0.7929(3) 0.44338(5) 0.0617 Uani
O5 O -0.1430(3) 0.7318(3) 0.51154(5) 0.0553 Uani
H24 H -0.2145 0.6932 0.5075 0.0660 Uiso
O6 O -0.2174(3) 0.5888(3) 0.53683(5) 0.0492 Uani
O7 O 0.5348(3) 0.5948(3) 0.56238(4) 0.0369 Uani
H25 H 0.5307 0.5261 0.5644 0.0440 Uiso
H26 H 0.6089 0.6510 0.5642 0.0440 Uiso
O8 O 0.2967(3) 0.8076(2) 0.40854(4) 0.0378 Uani
H27 H 0.2690 0.8297 0.4189 0.0450 Uiso
H28 H 0.2414 0.7835 0.3990 0.0450 Uiso
C1I C 0.5849(3) 0.9233(3) 0.63567(6) 0.0307 Uani
C2I C 0.4735(4) 0.9247(3) 0.66542(5) 0.0329 Uani
C3I C 0.4277(3) 0.9592(3) 0.63219(5) 0.0291 Uani
C4I C 0.7162(4) 0.9298(4) 0.60640(6) 0.0381 Uani
H1I H 0.7980 0.9780 0.6010 0.0570 Uiso
H2I H 0.6760 0.9777 0.6062 0.0570 Uiso
C5I C 0.6456(3) 0.8177(3) 0.59268(5) 0.0316 Uani
C6I C 0.3588(4) 0.9285(4) 0.69661(6) 0.0449 Uani
H3I H 0.2900 0.9036 0.6871 0.0540 Uiso
H4I H 0.3926 1.0150 0.6998 0.0540 Uiso
C7I C 0.3142(4) 0.8556(4) 0.71693(5) 0.0330 Uani
C8I C 0.2618(4) 1.0053(4) 0.62811(7) 0.0394 Uani
H5I H 0.2121 0.9426 0.6385 0.0470 Uiso
H6I H 0.2079 1.0012 0.6168 0.0470 Uiso
C9I C 0.3170(3) 1.1306(4) 0.63870(6) 0.0380 Uani
C10G C 0.5749(6) 1.1807(4) 0.43239(6) 0.0390 Uani
H7G H 0.5662 1.1571 0.4182 0.0470 Uiso
C11G C 0.4810(6) 1.1077(4) 0.44667(7) 0.0424 Uani
H8G H 0.4120 1.0368 0.4419 0.0510 Uiso
C12G C 0.4902(6) 1.1406(4) 0.46794(6) 0.0361 Uani
C13G C 0.5966(6) 1.2452(4) 0.47396(6) 0.0411 Uani
H9G H 0.6079 1.2699 0.4881 0.0490 Uiso
C14G C 0.6855(6) 1.3129(4) 0.45941(6) 0.0388 Uani
H10G H 0.7558 1.3831 0.4640 0.0470 Uiso
C15G C 0.3902(6) 1.0678(4) 0.48349(7) 0.0477 Uani
H11G H 0.3181 1.0083 0.4758 0.0570 Uiso
H12G H 0.3691 1.1226 0.4908 0.0570 Uiso
H13G H 0.4986 1.0586 0.5073 0.0510 Uiso
C17F C 0.7378(3) 0.4390(4) 0.29221(5) 0.0336 Uani
H14F H 0.7445 0.3712 0.2961 0.0400 Uiso
C18F C 0.7781(4) 0.5333(4) 0.30630(6) 0.0431 Uani
H15F H 0.8114 0.5287 0.3192 0.0510 Uiso
C19F C 0.7696(4) 0.6365(4) 0.30146(7) 0.0438 Uani
C20F C 0.7139(5) 0.6351(4) 0.28204(7) 0.0472 Uani
H16F H 0.7032 0.7005 0.2782 0.0570 Uiso
C21F C 0.6756(4) 0.5359(4) 0.26881(6) 0.0414 Uani
H17F H 0.6381 0.5363 0.2561 0.0500 Uiso
C22F C 0.8102(4) 0.7437(4) 0.31697(7) 0.0438 Uani
H18F H 0.8860 0.7605 0.3239 0.0530 Uiso
H19F H 0.8252 0.8168 0.3093 0.0530 Uiso
H20F H 0.6382 0.6959 0.3261 0.0770 Uiso
N1I N 0.5172(3) 0.9471(3) 0.62262(5) 0.0340 Uani
N2I N 0.5654(3) 0.9089(3) 0.65753(4) 0.0329 Uani
N3I N 0.4021(3) 0.9514(3) 0.65339(5) 0.0349 Uani
N4I N 0.6804(3) 0.9163(3) 0.62892(5) 0.0327 Uani
H21I H 0.7235 0.9032 0.6381 0.0390 Uiso
N5I N 0.4527(3) 0.9104(3) 0.68620(4) 0.0433 Uani
H22I H 0.4962 0.8897 0.6939 0.0510 Uiso
N6I N 0.3529(3) 0.9782(3) 0.61947(5) 0.0380 Uani
H23I H 0.3591 0.9742 0.6060 0.0460 Uiso
N7G N 0.6765(4) 1.2828(3) 0.43835(5) 0.0298 Uani
N7I N 0.2828(3) 0.6063(3) 0.60502(5) 0.0298 Uani
N8F N 0.6886(3) 0.4373(3) 0.27302(4) 0.0284 Uani
N8K N 0.4373(3) 0.7487(4) 0.43968(4) 0.0284 Uani
Co1G Co 0.81150(4) 1.40575(3) 0.4167 0.0267 Uani
Co2I Co 0.34819(3) 0.69638(6) 0.7500 0.0259 Uani
Co2E Co 0.65181(7) 0.30362(6) 0.2500 0.0259 Uani
O1I O 0.5483(2) 0.7328(2) 0.60017(4) 0.0339 Uani
O2I O 0.6904(3) 0.8206(3) 0.57482(4) 0.0516 Uani
O3I O 0.3860(2) 0.8290(2) 0.72672(3) 0.0311 Uani
O3K O 0.1710(2) 0.5570(3) 0.39338(3) 0.0311 Uani
O4I O 0.2071(3) 0.8279(4) 0.72329(5) 0.0617 Uani
O5I O 0.2682(3) 1.1430(3) 0.65513(5) 0.0553 Uani
H24I H 0.3068 1.2145 0.6592 0.0660 Uiso
O6I O 0.4112(3) 1.2174(3) 0.62984(5) 0.0492 Uani
O7I O 0.4052(3) 0.4652(3) 0.60429(4) 0.0369 Uani
H25I H 0.4739 0.4693 0.6023 0.0440 Uiso
H26I H 0.3490 0.3911 0.6025 0.0440 Uiso
O8K O 0.2967(3) 0.4891(4) 0.42479(4) 0.0378 Uani
H27K H 0.2690 0.4393 0.4144 0.0450 Uiso
H28K H 0.2414 0.4579 0.4343 0.0450 Uiso
O9 O 0.0827(9) 1.0000 0.5000 0.2012 Uani
H29 H 0.0207 0.9565 0.4922 0.2410 Uiso
H29G H 0.0642 1.0435 0.5078 0.2410 Uiso
O10 O 0.0375(6) 0.9043(6) 0.46151(9) 0.1677 Uani
H30 H 0.0757 0.8695 0.4568 0.2010 Uiso
H31 H 0.0855 0.9802 0.4591 0.2010 Uiso
O11 O 0.0631(5) 0.0575(5) 0.60166(6) 0.1822 Uani
H32 H 0.0802 0.1218 0.5946 0.2190 Uiso
H33 H -0.0146 0.0142 0.6008 0.2190 Uiso
loop_
_atom_site_aniso_label
_atom_site_aniso_U_11
_atom_site_aniso_U_22
_atom_site_aniso_U_33
_atom_site_aniso_U_23
_atom_site_aniso_U_13
_atom_site_aniso_U_12
C1 0.0275(19) 0.034(2) 0.0330(19) -0.0068(16) -0.0094(14) 0.0171(17)
C2 0.0311(18) 0.048(2) 0.0219(16) 0.0007(16) 0.0018(14) 0.0214(18)
C3 0.0233(18) 0.036(2) 0.0270(17) -0.0045(15) -0.0009(14) 0.0141(16)
C4 0.044(2) 0.042(2) 0.0315(19) 0.0101(17) 0.0008(17) 0.024(2)
C5 0.0249(19) 0.0374(18) 0.0304(18) 0.0051(15) -0.0020(15) 0.0140(17)
C6 0.066(3) 0.058(3) 0.0240(18) 0.0028(18) 0.0067(18) 0.041(3)
C7 0.038(2) 0.035(2) 0.0235(17) -0.0017(15) -0.0041(15) 0.0164(18)
C8 0.034(2) 0.043(2) 0.042(2) -0.0059(18) 0.0017(17) 0.0199(19)
C9 0.045(2) 0.031(2) 0.040(2) -0.0021(16) 0.0017(18) 0.0205(19)
C10 0.053(3) 0.038(2) 0.0291(17) 0.0033(16) 0.0077(17) 0.025(2)
C11 0.058(3) 0.029(2) 0.046(2) 0.0019(17) 0.0067(19) 0.026(2)
C12 0.0270(18) 0.039(2) 0.041(2) 0.0175(18) 0.0103(17) 0.0156(17)
C13 0.045(2) 0.055(3) 0.0233(18) 0.0080(17) 0.0024(16) 0.025(2)
C14 0.053(2) 0.033(2) 0.0316(18) 0.0061(15) 0.0088(16) 0.0225(18)
C15 0.043(2) 0.053(3) 0.051(3) 0.031(2) 0.0122(19) 0.027(2)
C16 0.030(2) 0.051(3) 0.053(3) 0.033(3) 0.0166(14) 0.0253(17)
C17 0.042(2) 0.039(2) 0.0252(17) 0.0024(15) 0.0038(15) 0.0244(19)
C18 0.056(2) 0.055(3) 0.0213(17) 0.0108(17) 0.0170(17) 0.030(2)
C19 0.0376(16) 0.0341(16) 0.0518(18) -0.0142(13) 0.0114(14) 0.0119(13)
C20 0.036(2) 0.057(3) 0.051(3) -0.001(2) -0.0011(19) 0.025(2)
C21 0.035(2) 0.051(3) 0.0325(19) 0.0054(17) -0.0018(17) 0.0172(19)
C22 0.0376(16) 0.0341(16) 0.0518(18) -0.0142(13) 0.0114(14) 0.0119(13)
C23 0.050(3) 0.050(3) 0.067(4) -0.024(2) 0.024(2) 0.005(3)
N1 0.0304(16) 0.0460(19) 0.0285(15) 0.0057(14) 0.0050(13) 0.0212(15)
N2 0.0442(19) 0.0420(18) 0.0213(14) 0.0064(13) 0.0035(13) 0.0281(16)
N3 0.0436(19) 0.0428(19) 0.0273(15) 0.0037(14) 0.0019(14) 0.0284(17)
N4 0.0280(17) 0.0374(18) 0.0283(15) -0.0050(13) -0.0022(12) 0.0130(14)
N5 0.072(2) 0.053(2) 0.0191(13) 0.0071(14) 0.0099(15) 0.042(2)
N6 0.049(2) 0.057(2) 0.0178(14) -0.0017(14) 0.0018(13) 0.0338(18)
N7 0.0286(14) 0.0261(15) 0.0311(15) 0.0020(12) 0.0022(12) 0.0109(13)
N8 0.0326(16) 0.0421(17) 0.0178(13) 0.0055(12) 0.0041(12) 0.0241(14)
Co1 0.0298(3) 0.0298(3) 0.0226(3) 0.0024(2) 0.0024(2) 0.0164(3)
Co2 0.0262(3) 0.0304(3) 0.0198(3) 0.0035(2) 0.000 0.01308(16)
O1 0.0341(15) 0.0290(13) 0.0312(13) 0.0055(11) 0.0023(11) 0.0102(11)
O2 0.0382(17) 0.0577(19) 0.0381(15) 0.0190(14) -0.0021(12) 0.0083(15)
O3 0.0353(14) 0.0315(13) 0.0240(11) 0.0003(10) 0.0014(10) 0.0148(11)
O4 0.103(3) 0.0427(18) 0.0495(17) 0.0115(15) 0.0293(19) 0.044(2)
O5 0.058(2) 0.0508(18) 0.0477(17) 0.0165(14) -0.0137(15) 0.0202(16)
O6 0.0278(15) 0.0459(16) 0.0518(16) 0.0159(14) -0.0016(13) 0.0019(13)
O7 0.0387(15) 0.0338(14) 0.0381(14) 0.0011(12) 0.0071(12) 0.0181(12)
O8 0.0500(16) 0.0421(15) 0.0242(12) -0.0011(11) -0.0038(12) 0.0253(14)
C1I 0.034 0.0275 0.033 -0.0094 -0.0068 0.0171
C2I 0.048 0.0311 0.0219 0.0018 0.0007 0.0214
C3I 0.036 0.0233 0.027 -0.0009 -0.0045 0.0141
C4I 0.042 0.044 0.0315 0.0008 0.0101 0.024
C5I 0.0374 0.0249 0.0304 -0.002 0.0051 0.014
C6I 0.058 0.066 0.024 0.0067 0.0028 0.041
C7I 0.035 0.038 0.0235 -0.0041 -0.0017 0.0164
C8I 0.043 0.034 0.042 0.0017 -0.0059 0.0199
C9I 0.031 0.045 0.04 0.0017 -0.0021 0.0205
C10G 0.041 0.038 0.0291 0.0033 -0.0044 0.013
C11G 0.035 0.029 0.046 0.0019 -0.0048 0.003
C12G 0.0348 0.039 0.041 0.0175 0.0072 0.0234
C13G 0.05 0.055 0.0233 0.008 0.0056 0.03
C14G 0.041 0.033 0.0316 0.0061 -0.0027 0.0105
C15G 0.042 0.053 0.051 0.031 0.0188 0.026
C17F 0.039 0.042 0.0252 -0.0038 -0.0024 0.0244
C18F 0.055 0.056 0.0213 -0.017 -0.0108 0.03
C19F 0.0341 0.0376 0.0518 -0.0114 0.0142 0.0119
C20F 0.057 0.036 0.051 0.0011 0.001 0.025
C21F 0.051 0.035 0.0325 0.0018 -0.0054 0.0172
C22F 0.0341 0.0376 0.0518 -0.0114 0.0142 0.0119
N1I 0.046 0.0304 0.0285 0.005 0.0057 0.0212
N2I 0.042 0.0442 0.0213 0.0035 0.0064 0.0281
N3I 0.0428 0.0436 0.0273 0.0019 0.0037 0.0284
N4I 0.0374 0.028 0.0283 -0.0022 -0.005 0.013
N5I 0.053 0.072 0.0191 0.0099 0.0071 0.042
N6I 0.057 0.049 0.0178 0.0018 -0.0017 0.0338
N7G 0.0329 0.0261 0.0311 0.002 -0.0002 0.0152
N7I 0.0261 0.0286 0.0311 0.0022 0.002 0.0109
N8F 0.0421 0.0326 0.0178 -0.0041 -0.0055 0.0241
N8K 0.0326 0.0265 0.0178 0.0014 -0.0041 0.0085
Co1G 0.0268 0.0298 0.0226 0.0024 -2.90329e-19 0.0134
Co2I 0.03044 0.0262 0.0198 0 0.0035 0.01312
Co2E 0.03044 0.0262 0.0198 0 -0.0035 0.01312
O1I 0.029 0.0341 0.0312 0.0023 0.0055 0.0102
O2I 0.0577 0.0382 0.0381 -0.0021 0.019 0.0083
O3I 0.0315 0.0353 0.024 0.0014 0.0003 0.0148
O3K 0.0353 0.0372 0.024 -0.0011 -0.0014 0.0205
O4I 0.0427 0.103 0.0495 0.0293 0.0115 0.044
O5I 0.0508 0.058 0.0477 -0.0137 0.0165 0.0202
O6I 0.0459 0.0278 0.0518 -0.0016 0.0159 0.0019
O7I 0.0338 0.0387 0.0381 0.0071 0.0011 0.0181
O8K 0.05 0.0415 0.0242 0.0027 0.0038 0.0247
O9 0.194(7) 0.330(18) 0.125(8) 0.018(9) 0.009(5) 0.165(9)
O10 0.155(6) 0.133(6) 0.255(8) -0.079(6) -0.085(6) 0.102(5)
O11 0.098(4) 0.117(5) 0.300(9) 0.088(6) -0.031(5) 0.030(4)
loop_
_geom_bond_atom_site_label_1
_geom_bond_atom_site_label_2
_geom_bond_site_symmetry_1
_geom_bond_site_symmetry_2
C1 N1 1_555 1_555
C2 N2 1_555 1_555
C3 N1 1_555 1_555
C4 H1 1_555 1_555
H2 C4 1_555 1_555
C5 C4 1_555 1_555
C6 H3 1_555 1_555
H4 C6 1_555 1_555
C7 C6 1_555 1_555
C8 H5 1_555 1_555
H6 C8 1_555 1_555
C9 C8 1_555 1_555
C10 H7 1_555 1_555
C11 C10 1_555 1_555
H8 C11 1_555 1_555
C12 C11 1_555 1_555
C13 C12 1_555 1_555
H9 C13 1_555 1_555
C14 C13 1_555 1_555
H10 C14 1_555 1_555
C15 C12 1_555 1_555
H11 C15 1_555 1_555
H12 C15 1_555 1_555
C16 C15 1_555 1_555
H13 C16 1_555 1_555
C17 H14 1_555 1_555
C18 C17 1_555 1_555
H15 C18 1_555 1_555
C19 C18 1_555 1_555
C20 C19 1_555 1_555
H16 C20 1_555 1_555
C21 C20 1_555 1_555
H17 C21 1_555 1_555
C22 C19 1_555 1_555
H18 C22 1_555 1_555
H19 C22 1_555 1_555
C23 C22 1_555 1_555
H20 C23 1_555 1_555
N2 C1 1_555 1_555
N3 C2 1_555 1_555
N4 C1 1_555 1_555
H21 N4 1_555 1_555
N5 C2 1_555 1_555
H22 N5 1_555 1_555
N6 C3 1_555 1_555
H23 N6 1_555 1_555
N7 C10 1_555 1_555
N8 C17 1_555 1_555
Co1 N7 1_555 1_555
Co2 N8 1_555 1_555
O1 C5 1_555 1_555
O2 C5 1_555 1_555
O3 C7 1_555 1_555
O4 C7 1_555 1_555
O5 C9 1_555 1_555
H24 O5 1_555 1_555
O6 C9 1_555 1_555
O7 Co1 1_555 1_555
H25 O7 1_555 1_555
H26 O7 1_555 1_555
O8 Co2 1_555 1_555
H27 O8 1_555 1_555
H28 O8 1_555 1_555
O9 H29 1_555 1_555
O10 H30 1_555 1_555
H31 O10 1_555 1_555
O11 H32 1_555 1_555
H33 O11 1_555 1_555
C1I N1I 1_555 1_555
C2I N2I 1_555 1_555
C3I N1I 1_555 1_555
C4I H1I 1_555 1_555
H2I C4I 1_555 1_555
C5I C4I 1_555 1_555
C6I H3I 1_555 1_555
H4I C6I 1_555 1_555
C7I C6I 1_555 1_555
C8I H5I 1_555 1_555
H6I C8I 1_555 1_555
C9I C8I 1_555 1_555
C10G H7G 1_555 1_555
C11G C10G 1_555 1_555
H8G C11G 1_555 1_555
C12G C11G 1_555 1_555
C13G C12G 1_555 1_555
H9G C13G 1_555 1_555
C14G C13G 1_555 1_555
H10G C14G 1_555 1_555
C15G C16 1_555 1_555
H11G C15G 1_555 1_555
H12G C15G 1_555 1_555
H13G C16 1_555 1_555
C17F H14F 1_555 1_555
C18F C17F 1_555 1_555
H15F C18F 1_555 1_555
C19F C18F 1_555 1_555
C20F C19F 1_555 1_555
H16F C20F 1_555 1_555
C21F C20F 1_555 1_555
H17F C21F 1_555 1_555
C22F C23 1_555 1_555
H18F C22F 1_555 1_555
H19F C22F 1_555 1_555
H20F C23 1_555 1_555
N2I C1I 1_555 1_555
N3I C2I 1_555 1_555
N4I C1I 1_555 1_555
H21I N4I 1_555 1_555
N5I C2I 1_555 1_555
H22I N5I 1_555 1_555
N6I C3I 1_555 1_555
H23I N6I 1_555 1_555
N7G C10G 1_555 1_555
N7I Co1 1_555 1_555
N8F C17F 1_555 1_555
N8K Co2 1_555 1_555
Co1G N7G 1_555 1_555
Co2I O3I 1_555 1_555
Co2E N8F 1_555 1_555
O1I Co1 1_555 1_555
O2I C5I 1_555 1_555
O3I C7I 1_555 1_555
O3K Co2 1_555 1_555
O4I C7I 1_555 1_555
O5I C9I 1_555 1_555
H24I O5I 1_555 1_555
O6I C9I 1_555 1_555
O7I Co1 1_555 1_555
H25I O7I 1_555 1_555
H26I O7I 1_555 1_555
O8K Co2 1_555 1_555
H27K O8K 1_555 1_555
H28K O8K 1_555 1_555
H29G O9 1_555 1_555
C3 N3 1_555 1_555
C4 N4 1_555 1_555
C6 N5 1_555 1_555
C8 N6 1_555 1_555
C14 N7 1_555 1_555
C21 N8 1_555 1_555
Co1 O1 1_555 1_555
Co2 O3 1_555 1_555
C3I N3I 1_555 1_555
C4I N4I 1_555 1_555
C5I O1I 1_555 1_555
C6I N5I 1_555 1_555
C8I N6I 1_555 1_555
C12G C15G 1_555 1_555
C14G N7G 1_555 1_555
C19F C22F 1_555 1_555
C21F N8F 1_555 1_555

#END
