
#######################################################################
#
#                 Cambridge Crystallographic Data Centre
#                                CCDC 
#
#######################################################################
#
# If this CIF has been generated from an entry in the Cambridge 
# Structural Database, then it will include bibliographic, chemical, 
# crystal, experimental, refinement or atomic coordinate data resulting 
# from the CCDC's data processing and validation procedures.
#
#######################################################################

data_ODONEB
_chemical_formula_moiety         '(C44 H62 N16 Ni2 O19)n'
_symmetry_cell_setting           hexagonal
_symmetry_space_group_name_H-M   'P 65 2 2'
_symmetry_Int_Tables_number      179
_space_group_name_Hall           'P 65 2 (0 0 1)'
loop_
_symmetry_equiv_pos_site_id
_symmetry_equiv_pos_as_xyz
1 x,y,z
2 -y,x-y,2/3+z
3 -x+y,-x,1/3+z
4 -x,-y,1/2+z
5 y,-x+y,1/6+z
6 x-y,x,5/6+z
7 y,x,2/3-z
8 x-y,-y,-z
9 -x,-x+y,1/3-z
10 -y,-x,1/6-z
11 -x+y,y,1/2-z
12 x,x-y,5/6-z
_cell_length_a                   12.5611(4)
_cell_length_b                   12.5611(4)
_cell_length_c                   62.471(3)
_cell_angle_alpha                90
_cell_angle_beta                 90
_cell_angle_gamma                120
_cell_volume                     8536.2
loop_
_atom_site_label
_atom_site_type_symbol
_atom_site_fract_x
_atom_site_fract_y
_atom_site_fract_z
_atom_site_U_iso_or_equiv
_atom_site_thermal_displace_type
C1 C 0.0761(4) 0.4142(4) 0.53097(6) 0.0332 Uani
C2 C 0.0757(4) 0.5272(4) 0.50141(6) 0.0354 Uani
C3 C 0.0414(4) 0.5720(4) 0.53454(6) 0.0314 Uani
C4 C 0.0704(4) 0.2840(4) 0.56042(6) 0.0412 Uani
H1 H 0.0364 0.1996 0.5557 0.0500 Uiso
H2 H 0.0036 0.2935 0.5660 0.0500 Uiso
C5 C 0.1820(4) 0.3542(4) 0.57401(6) 0.0342 Uani
C6 C 0.0714(5) 0.6409(5) 0.47004(7) 0.0476 Uani
H3 H 0.0964 0.7096 0.4798 0.0570 Uiso
H4 H -0.0152 0.6073 0.4669 0.0570 Uiso
C7 C 0.1445(4) 0.6861(4) 0.44957(6) 0.0360 Uani
C8 C -0.0042(4) 0.7389(4) 0.53874(7) 0.0402 Uani
H5 H 0.0586 0.7889 0.5284 0.0480 Uiso
H6 H -0.0002 0.7923 0.5503 0.0480 Uiso
C9 C -0.1308(4) 0.6830(4) 0.52801(7) 0.0414 Uani
C10 C 0.3939(4) 0.8190(4) 0.56755(7) 0.0413 Uani
H7 H 0.4089 0.8430 0.5818 0.0500 Uiso
C11 C 0.3728(5) 0.8913(4) 0.55341(8) 0.0452 Uani
H8 H 0.3738 0.9617 0.5583 0.0540 Uiso
C12 C 0.3504(4) 0.8596(4) 0.53211(7) 0.0371 Uani
C13 C 0.3516(4) 0.7543(4) 0.52601(7) 0.0416 Uani
H9 H 0.3379 0.7294 0.5118 0.0500 Uiso
C14 C 0.3729(4) 0.6865(4) 0.54069(7) 0.0402 Uani
H10 H 0.3731 0.6163 0.5360 0.0480 Uiso
C15 C 0.3221(5) 0.9324(5) 0.51640(8) 0.0510 Uani
H11 H 0.3090 0.9918 0.5242 0.0610 Uiso
H12 H 0.2464 0.8773 0.5090 0.0610 Uiso
C16 C 0.4233(5) 1.0000 0.5000 0.0454 Uani
H13 H 0.4395 0.9414 0.4927 0.0550 Uiso
C17 C 0.4393(4) 0.7382(4) 0.37461(6) 0.0360 Uani
H14 H 0.3721 0.7466 0.3709 0.0430 Uiso
C18 C 0.5332(5) 0.7772(5) 0.36029(6) 0.0453 Uani
H15 H 0.5278 0.8091 0.3472 0.0540 Uiso
C19 C 0.6365(4) 0.7696(4) 0.36522(8) 0.0469 Uani
C20 C 0.6350(4) 0.7138(5) 0.38470(8) 0.0472 Uani
H16 H 0.7002 0.7026 0.3886 0.0570 Uiso
C21 C 0.5359(4) 0.6761(5) 0.39792(7) 0.0428 Uani
H17 H 0.5363 0.6393 0.4108 0.0510 Uiso
C22 C 0.7439(6) 0.8111(6) 0.34961(9) 0.0721 Uani
H18 H 0.7598 0.8864 0.3425 0.0860 Uiso
H19 H 0.8174 0.8271 0.3573 0.0860 Uiso
C23 C 0.7120(6) 0.7120(6) 0.3333 0.0687 Uani
H20 H 0.6956 0.6382 0.3406 0.0830 Uiso
N1 N 0.0530(3) 0.4826(3) 0.54412(5) 0.0372 Uani
N2 N 0.0912(3) 0.4346(3) 0.50910(5) 0.0359 Uani
N3 N 0.0481(4) 0.5970(4) 0.51329(5) 0.0367 Uani
N4 N 0.0837(3) 0.3191(3) 0.53782(5) 0.0365 Uani
H21 H 0.0970 0.2759 0.5287 0.0440 Uiso
N5 N 0.0891(4) 0.5473(4) 0.48036(5) 0.0454 Uani
H22 H 0.1089 0.5032 0.4726 0.0540 Uiso
N6 N 0.0218(3) 0.6468(4) 0.54721(5) 0.0389 Uani
H23 H 0.0248 0.6399 0.5609 0.0470 Uiso
N7 N 0.3938(3) 0.7164(3) 0.56176(5) 0.0326 Uani
N8 N 0.4377(3) 0.6886(3) 0.39359(5) 0.0305 Uani
Ni1 Ni 0.40573(3) 0.59427(3) 0.5833 0.0293 Uani
Ni2 Ni 0.30390(6) 0.65195(3) 0.4167 0.0283 Uani
O1 O 0.2670(3) 0.4520(3) 0.56656(4) 0.0355 Uani
O2 O 0.1797(3) 0.3096(3) 0.59196(5) 0.0540 Uani
O3 O 0.1712(3) 0.6144(3) 0.43993(4) 0.0337 Uani
O4 O 0.1721(4) 0.7924(3) 0.44328(6) 0.0652 Uani
O5 O -0.1428(4) 0.7315(3) 0.51151(5) 0.0598 Uani
H24 H -0.2144 0.6930 0.5075 0.0720 Uiso
O6 O -0.2169(3) 0.5888(3) 0.53687(5) 0.0519 Uani
O7 O 0.5342(3) 0.5949(3) 0.56238(5) 0.0402 Uani
H25 H 0.5299 0.5261 0.5646 0.0480 Uiso
H26 H 0.6071 0.6509 0.5653 0.0480 Uiso
O8 O 0.2971(3) 0.8078(3) 0.40849(4) 0.0394 Uani
H27 H 0.2689 0.8294 0.4189 0.0470 Uiso
H28 H 0.2433 0.7845 0.3986 0.0470 Uiso
C1I C 0.5858(4) 0.9239(4) 0.63570(6) 0.0332 Uani
C2I C 0.4728(4) 0.9243(4) 0.66526(6) 0.0354 Uani
C3I C 0.4280(4) 0.9586(4) 0.63213(6) 0.0314 Uani
C4I C 0.7160(4) 0.9296(4) 0.60625(6) 0.0412 Uani
H1I H 0.8004 0.9636 0.6110 0.0500 Uiso
H2I H 0.7065 0.9964 0.6007 0.0500 Uiso
C5I C 0.6458(4) 0.8180(4) 0.59266(6) 0.0342 Uani
C6I C 0.3591(5) 0.9286(5) 0.69663(7) 0.0476 Uani
H3I H 0.2904 0.9036 0.6869 0.0570 Uiso
H4I H 0.3927 1.0152 0.6998 0.0570 Uiso
C7I C 0.3139(4) 0.8555(4) 0.71710(6) 0.0360 Uani
C8I C 0.2611(4) 1.0042(4) 0.62793(7) 0.0402 Uani
H5I H 0.2111 0.9414 0.6383 0.0480 Uiso
H6I H 0.2077 1.0002 0.6164 0.0480 Uiso
C9I C 0.3170(4) 1.1308(4) 0.63866(7) 0.0414 Uani
C10G C 0.5749(6) 1.1810(4) 0.43245(7) 0.0413 Uani
H7G H 0.5659 1.1570 0.4182 0.0500 Uiso
C11G C 0.4815(6) 1.1087(4) 0.44659(8) 0.0452 Uani
H8G H 0.4121 1.0383 0.4417 0.0540 Uiso
C12G C 0.4908(6) 1.1404(4) 0.46789(7) 0.0371 Uani
C13G C 0.5973(6) 1.2457(4) 0.47399(7) 0.0416 Uani
H9G H 0.6085 1.2706 0.4882 0.0500 Uiso
C14G C 0.6864(6) 1.3135(4) 0.45931(7) 0.0402 Uani
H10G H 0.7568 1.3837 0.4640 0.0480 Uiso
C15G C 0.3897(7) 1.0676(5) 0.48360(8) 0.0510 Uani
H11G H 0.3172 1.0082 0.4758 0.0610 Uiso
H12G H 0.3691 1.1227 0.4910 0.0610 Uiso
H13G H 0.4981 1.0586 0.5073 0.0550 Uiso
C17F C 0.7382(4) 0.4393(4) 0.29206(6) 0.0360 Uani
H14F H 0.7466 0.3721 0.2958 0.0430 Uiso
C18F C 0.7772(5) 0.5332(5) 0.30638(6) 0.0453 Uani
H15F H 0.8091 0.5278 0.3195 0.0540 Uiso
C19F C 0.7696(4) 0.6365(4) 0.30145(8) 0.0469 Uani
C20F C 0.7138(5) 0.6350(4) 0.28197(8) 0.0472 Uani
H16F H 0.7026 0.7002 0.2781 0.0570 Uiso
C21F C 0.6761(5) 0.5359(4) 0.26875(7) 0.0428 Uani
H17F H 0.6393 0.5363 0.2559 0.0510 Uiso
C22F C 0.8111(6) 0.7439(6) 0.31706(9) 0.0721 Uani
H18F H 0.8864 0.7598 0.3242 0.0860 Uiso
H19F H 0.8271 0.8174 0.3094 0.0860 Uiso
H20F H 0.6382 0.6956 0.3261 0.0830 Uiso
N1I N 0.5174(3) 0.9470(3) 0.62255(5) 0.0372 Uani
N2I N 0.5654(3) 0.9088(3) 0.65757(5) 0.0359 Uani
N3I N 0.4030(4) 0.9519(4) 0.65338(5) 0.0367 Uani
N4I N 0.6809(3) 0.9163(3) 0.62885(5) 0.0365 Uani
H21I H 0.7241 0.9030 0.6380 0.0440 Uiso
N5I N 0.4527(4) 0.9109(4) 0.68631(5) 0.0454 Uani
H22I H 0.4968 0.8911 0.6941 0.0540 Uiso
N6I N 0.3532(4) 0.9782(3) 0.61946(5) 0.0389 Uani
H23I H 0.3601 0.9752 0.6058 0.0470 Uiso
N7G N 0.6774(4) 1.2836(3) 0.43824(5) 0.0326 Uani
N7I N 0.2836(3) 0.6062(3) 0.60491(5) 0.0326 Uani
N8F N 0.6886(3) 0.4377(3) 0.27308(5) 0.0305 Uani
N8K N 0.4377(3) 0.7491(4) 0.43974(5) 0.0305 Uani
Ni1G Ni 0.81146(4) 1.40573(3) 0.4167 0.0293 Uani
Ni2I Ni 0.34805(3) 0.69610(6) 0.7500 0.0283 Uani
Ni2E Ni 0.65195(7) 0.30390(6) 0.2500 0.0283 Uani
O1I O 0.5480(3) 0.7330(3) 0.60011(4) 0.0355 Uani
O2I O 0.6904(3) 0.8203(3) 0.57471(5) 0.0540 Uani
O3I O 0.3856(3) 0.8288(3) 0.72674(4) 0.0337 Uani
O3K O 0.1712(3) 0.5568(4) 0.39340(4) 0.0337 Uani
O4I O 0.2076(3) 0.8279(4) 0.72339(6) 0.0652 Uani
O5I O 0.2685(3) 1.1428(4) 0.65516(5) 0.0598 Uani
H24I H 0.3070 1.2144 0.6592 0.0720 Uiso
O6I O 0.4112(3) 1.2169(3) 0.62980(5) 0.0519 Uani
O7I O 0.4051(3) 0.4658(3) 0.60429(5) 0.0402 Uani
H25I H 0.4739 0.4701 0.6021 0.0480 Uiso
H26I H 0.3491 0.3929 0.6014 0.0480 Uiso
O8K O 0.2971(3) 0.4893(4) 0.42484(4) 0.0394 Uani
H27K H 0.2689 0.4395 0.4144 0.0470 Uiso
H28K H 0.2433 0.4588 0.4347 0.0470 Uiso
O9 O 0.0822(11) 1.0000 0.5000 0.1982 Uani
H29 H 0.0195 0.9549 0.4924 0.2380 Uiso
H29G H 0.0646 1.0451 0.5076 0.2380 Uiso
O10 O 0.0398(8) 0.9046(7) 0.46153(15) 0.1710 Uani
H30 H 0.0781 0.8698 0.4568 0.2060 Uiso
H31 H 0.0866 0.9814 0.4596 0.2060 Uiso
O11 O 0.0633(6) 0.0594(5) 0.60145(12) 0.1874 Uani
H32 H 0.0804 0.1239 0.5944 0.2250 Uiso
H33 H -0.0141 0.0117 0.6008 0.2250 Uiso
loop_
_atom_site_aniso_label
_atom_site_aniso_U_11
_atom_site_aniso_U_22
_atom_site_aniso_U_33
_atom_site_aniso_U_23
_atom_site_aniso_U_13
_atom_site_aniso_U_12
C1 0.031(2) 0.037(2) 0.037(2) -0.0088(18) -0.0076(17) 0.0210(19)
C2 0.0316(19) 0.051(3) 0.0254(18) 0.0010(18) 0.0001(15) 0.022(2)
C3 0.0243(19) 0.038(2) 0.0296(19) -0.0047(17) -0.0004(15) 0.0139(17)
C4 0.050(3) 0.048(3) 0.029(2) 0.0055(18) -0.0003(19) 0.027(2)
C5 0.029(2) 0.039(2) 0.032(2) 0.0053(17) -0.0015(17) 0.0151(19)
C6 0.072(3) 0.058(3) 0.028(2) 0.004(2) 0.005(2) 0.044(3)
C7 0.041(2) 0.037(2) 0.028(2) -0.0038(17) -0.0031(17) 0.018(2)
C8 0.035(2) 0.041(2) 0.042(2) -0.0040(19) 0.0008(18) 0.017(2)
C9 0.047(3) 0.035(2) 0.043(2) -0.0033(19) -0.002(2) 0.021(2)
C10 0.054(3) 0.037(2) 0.032(2) 0.0021(18) 0.006(2) 0.022(2)
C11 0.059(3) 0.030(2) 0.049(3) 0.0012(19) 0.005(2) 0.024(2)
C12 0.032(2) 0.040(2) 0.039(2) 0.0151(19) 0.0115(18) 0.0177(19)
C13 0.044(2) 0.054(3) 0.026(2) 0.0111(18) 0.0047(18) 0.024(2)
C14 0.052(3) 0.034(2) 0.034(2) 0.0057(17) 0.0093(17) 0.021(2)
C15 0.044(3) 0.059(3) 0.053(3) 0.034(2) 0.015(2) 0.028(2)
C16 0.033(2) 0.055(4) 0.055(4) 0.030(3) 0.0152(16) 0.027(2)
C17 0.041(2) 0.043(2) 0.0308(19) 0.0016(17) 0.0031(17) 0.026(2)
C18 0.055(3) 0.054(3) 0.0253(19) 0.0079(19) 0.0139(19) 0.026(2)
C19 0.040(3) 0.036(2) 0.054(3) -0.012(2) 0.014(2) 0.011(2)
C20 0.037(2) 0.057(3) 0.051(3) -0.003(2) 0.002(2) 0.026(2)
C21 0.036(2) 0.054(3) 0.035(2) 0.006(2) 0.0000(18) 0.020(2)
C22 0.062(4) 0.066(4) 0.063(3) -0.022(3) 0.030(3) 0.013(3)
C23 0.050(3) 0.050(3) 0.074(5) -0.025(2) 0.025(2) 0.001(4)
N1 0.0339(18) 0.047(2) 0.0334(18) 0.0081(15) 0.0040(15) 0.0223(16)
N2 0.049(2) 0.047(2) 0.0214(15) 0.0095(14) 0.0044(14) 0.0313(18)
N3 0.047(2) 0.047(2) 0.0239(16) 0.0020(15) 0.0029(15) 0.0294(18)
N4 0.0334(19) 0.038(2) 0.0341(18) -0.0041(15) -0.0026(14) 0.0149(16)
N5 0.074(3) 0.058(2) 0.0201(15) 0.0060(16) 0.0091(16) 0.045(2)
N6 0.049(2) 0.058(2) 0.0183(16) -0.0021(15) 0.0013(14) 0.0332(19)
N7 0.0339(16) 0.0301(17) 0.0309(16) 0.0047(13) 0.0055(13) 0.0138(14)
N8 0.0323(17) 0.0413(18) 0.0235(15) 0.0042(13) 0.0028(13) 0.0225(15)
Ni1 0.0331(3) 0.0331(3) 0.0248(3) 0.0029(3) 0.0029(3) 0.0189(3)
Ni2 0.0285(3) 0.0331(3) 0.0218(3) 0.0034(2) 0.000 0.01427(17)
O1 0.0365(16) 0.0306(15) 0.0333(14) 0.0062(12) 0.0057(12) 0.0121(13)
O2 0.0437(19) 0.058(2) 0.0415(17) 0.0192(16) -0.0016(14) 0.0114(17)
O3 0.0348(14) 0.0365(15) 0.0281(13) 0.0024(11) 0.0027(11) 0.0166(12)
O4 0.107(3) 0.045(2) 0.053(2) 0.0126(17) 0.029(2) 0.045(2)
O5 0.065(2) 0.056(2) 0.049(2) 0.0184(16) -0.0131(18) 0.0233(19)
O6 0.0332(17) 0.0479(18) 0.0547(18) 0.0168(16) -0.0020(15) 0.0053(15)
O7 0.0431(17) 0.0349(15) 0.0423(16) -0.0011(13) 0.0048(13) 0.0192(13)
O8 0.0509(18) 0.0439(17) 0.0264(13) 0.0000(12) -0.0040(13) 0.0259(15)
C1I 0.037 0.031 0.037 -0.0076 -0.0088 0.021
C2I 0.051 0.0316 0.0254 0.0001 0.001 0.022
C3I 0.038 0.0243 0.0296 -0.0004 -0.0047 0.0139
C4I 0.048 0.05 0.029 -0.0003 0.0055 0.027
C5I 0.039 0.029 0.032 -0.0015 0.0053 0.0151
C6I 0.058 0.072 0.028 0.005 0.004 0.044
C7I 0.037 0.041 0.028 -0.0031 -0.0038 0.018
C8I 0.041 0.035 0.042 0.0008 -0.004 0.017
C9I 0.035 0.047 0.043 -0.002 -0.0033 0.021
C10G 0.047 0.037 0.032 0.0021 -0.0039 0.015
C11G 0.041 0.03 0.049 0.0012 -0.0038 0.006
C12G 0.0366 0.04 0.039 0.0151 0.0036 0.0223
C13G 0.05 0.054 0.026 0.0111 0.0064 0.03
C14G 0.044 0.034 0.034 0.0057 -0.0036 0.013
C15G 0.047 0.059 0.053 0.034 0.019 0.031
C17F 0.043 0.041 0.0308 -0.0031 -0.0016 0.026
C18F 0.054 0.055 0.0253 -0.0139 -0.0079 0.026
C19F 0.036 0.04 0.054 -0.014 0.012 0.011
C20F 0.057 0.037 0.051 -0.002 0.003 0.026
C21F 0.054 0.036 0.035 0 -0.006 0.02
C22F 0.066 0.062 0.063 -0.03 0.022 0.013
N1I 0.047 0.0339 0.0334 0.004 0.0081 0.0223
N2I 0.047 0.049 0.0214 0.0044 0.0095 0.0313
N3I 0.047 0.047 0.0239 0.0029 0.002 0.0294
N4I 0.038 0.0334 0.0341 -0.0026 -0.0041 0.0149
N5I 0.058 0.074 0.0201 0.0091 0.006 0.045
N6I 0.058 0.049 0.0183 0.0013 -0.0021 0.0332
N7G 0.0364 0.0301 0.0309 0.0047 -0.0008 0.0163
N7I 0.0301 0.0339 0.0309 0.0055 0.0047 0.0138
N8F 0.0413 0.0323 0.0235 -0.0028 -0.0042 0.0225
N8K 0.0323 0.0286 0.0235 0.0014 -0.0028 0.0098
Ni1G 0.0284 0.0331 0.0248 0.0029 0 0.0142
Ni2I 0.03306 0.0285 0.0218 0 0.0034 0.01423
Ni2E 0.03306 0.0285 0.0218 0 -0.0034 0.01423
O1I 0.0306 0.0365 0.0333 0.0057 0.0062 0.0121
O2I 0.058 0.0437 0.0415 -0.0016 0.0192 0.0114
O3I 0.0365 0.0348 0.0281 0.0027 0.0024 0.0166
O3K 0.0348 0.0381 0.0281 -0.0003 -0.0027 0.0182
O4I 0.045 0.107 0.053 0.029 0.0126 0.045
O5I 0.056 0.065 0.049 -0.0131 0.0184 0.0233
O6I 0.0479 0.0332 0.0547 -0.002 0.0168 0.0053
O7I 0.0349 0.0431 0.0423 0.0048 -0.0011 0.0192
O8K 0.0509 0.043 0.0264 0.004 0.004 0.025
O9 0.199(9) 0.302(19) 0.128(9) 0.017(10) 0.009(5) 0.151(10)
O10 0.160(8) 0.139(6) 0.261(10) -0.081(7) -0.089(7) 0.110(6)
O11 0.108(5) 0.132(6) 0.289(11) 0.087(7) -0.029(6) 0.035(5)
loop_
_geom_bond_atom_site_label_1
_geom_bond_atom_site_label_2
_geom_bond_site_symmetry_1
_geom_bond_site_symmetry_2
C1 N1 1_555 1_555
C2 N2 1_555 1_555
C3 N1 1_555 1_555
C4 H1 1_555 1_555
H2 C4 1_555 1_555
C5 C4 1_555 1_555
C6 H3 1_555 1_555
H4 C6 1_555 1_555
C7 C6 1_555 1_555
C8 H5 1_555 1_555
H6 C8 1_555 1_555
C9 C8 1_555 1_555
C10 H7 1_555 1_555
C11 C10 1_555 1_555
H8 C11 1_555 1_555
C12 C11 1_555 1_555
C13 C12 1_555 1_555
H9 C13 1_555 1_555
C14 C13 1_555 1_555
H10 C14 1_555 1_555
C15 C12 1_555 1_555
H11 C15 1_555 1_555
H12 C15 1_555 1_555
C16 C15 1_555 1_555
H13 C16 1_555 1_555
C17 H14 1_555 1_555
C18 C17 1_555 1_555
H15 C18 1_555 1_555
C19 C18 1_555 1_555
C20 C19 1_555 1_555
H16 C20 1_555 1_555
C21 C20 1_555 1_555
H17 C21 1_555 1_555
C22 C19 1_555 1_555
H18 C22 1_555 1_555
H19 C22 1_555 1_555
C23 C22 1_555 1_555
H20 C23 1_555 1_555
N2 C1 1_555 1_555
N3 C2 1_555 1_555
N4 C1 1_555 1_555
H21 N4 1_555 1_555
N5 C2 1_555 1_555
H22 N5 1_555 1_555
N6 C3 1_555 1_555
H23 N6 1_555 1_555
N7 C10 1_555 1_555
N8 C17 1_555 1_555
Ni1 N7 1_555 1_555
Ni2 N8 1_555 1_555
O1 C5 1_555 1_555
O2 C5 1_555 1_555
O3 C7 1_555 1_555
O4 C7 1_555 1_555
O5 C9 1_555 1_555
H24 O5 1_555 1_555
O6 C9 1_555 1_555
O7 Ni1 1_555 1_555
H25 O7 1_555 1_555
H26 O7 1_555 1_555
O8 Ni2 1_555 1_555
H27 O8 1_555 1_555
H28 O8 1_555 1_555
O9 H29 1_555 1_555
O10 H30 1_555 1_555
H31 O10 1_555 1_555
O11 H32 1_555 1_555
H33 O11 1_555 1_555
C1I N1I 1_555 1_555
C2I N2I 1_555 1_555
C3I N1I 1_555 1_555
C4I H1I 1_555 1_555
H2I C4I 1_555 1_555
C5I C4I 1_555 1_555
C6I H3I 1_555 1_555
H4I C6I 1_555 1_555
C7I C6I 1_555 1_555
C8I H5I 1_555 1_555
H6I C8I 1_555 1_555
C9I C8I 1_555 1_555
C10G H7G 1_555 1_555
C11G C10G 1_555 1_555
H8G C11G 1_555 1_555
C12G C11G 1_555 1_555
C13G C12G 1_555 1_555
H9G C13G 1_555 1_555
C14G C13G 1_555 1_555
H10G C14G 1_555 1_555
C15G C16 1_555 1_555
H11G C15G 1_555 1_555
H12G C15G 1_555 1_555
H13G C16 1_555 1_555
C17F H14F 1_555 1_555
C18F C17F 1_555 1_555
H15F C18F 1_555 1_555
C19F C18F 1_555 1_555
C20F C19F 1_555 1_555
H16F C20F 1_555 1_555
C21F C20F 1_555 1_555
H17F C21F 1_555 1_555
C22F C23 1_555 1_555
H18F C22F 1_555 1_555
H19F C22F 1_555 1_555
H20F C23 1_555 1_555
N2I C1I 1_555 1_555
N3I C2I 1_555 1_555
N4I C1I 1_555 1_555
H21I N4I 1_555 1_555
N5I C2I 1_555 1_555
H22I N5I 1_555 1_555
N6I C3I 1_555 1_555
H23I N6I 1_555 1_555
N7G C10G 1_555 1_555
N7I Ni1 1_555 1_555
N8F C17F 1_555 1_555
N8K Ni2 1_555 1_555
Ni1G N7G 1_555 1_555
Ni2I O3I 1_555 1_555
Ni2E N8F 1_555 1_555
O1I Ni1 1_555 1_555
O2I C5I 1_555 1_555
O3I C7I 1_555 1_555
O3K Ni2 1_555 1_555
O4I C7I 1_555 1_555
O5I C9I 1_555 1_555
H24I O5I 1_555 1_555
O6I C9I 1_555 1_555
O7I Ni1 1_555 1_555
H25I O7I 1_555 1_555
H26I O7I 1_555 1_555
O8K Ni2 1_555 1_555
H27K O8K 1_555 1_555
H28K O8K 1_555 1_555
H29G O9 1_555 1_555
C3 N3 1_555 1_555
C4 N4 1_555 1_555
C6 N5 1_555 1_555
C8 N6 1_555 1_555
C14 N7 1_555 1_555
C21 N8 1_555 1_555
Ni1 O1 1_555 1_555
Ni2 O3 1_555 1_555
C3I N3I 1_555 1_555
C4I N4I 1_555 1_555
C5I O1I 1_555 1_555
C6I N5I 1_555 1_555
C8I N6I 1_555 1_555
C12G C15G 1_555 1_555
C14G N7G 1_555 1_555
C19F C22F 1_555 1_555
C21F N8F 1_555 1_555

#END
