
#######################################################################
#
#                 Cambridge Crystallographic Data Centre
#                                CCDC 
#
#######################################################################
#
# If this CIF has been generated from an entry in the Cambridge 
# Structural Database, then it will include bibliographic, chemical, 
# crystal, experimental, refinement or atomic coordinate data resulting 
# from the CCDC's data processing and validation procedures.
#
#######################################################################

data_KOZQEX
_chemical_formula_moiety         '(C42 H26 Cu3 N2 O15)n'
_symmetry_cell_setting           cubic
_symmetry_space_group_name_H-M   'P m -3 m'
_symmetry_Int_Tables_number      221
_space_group_name_Hall           '-P 4 2 3'
loop_
_symmetry_equiv_pos_site_id
_symmetry_equiv_pos_as_xyz
1 x,y,z
2 -y,x,z
3 -x,-y,z
4 y,-x,z
5 x,-y,-z
6 y,x,-z
7 -x,y,-z
8 -y,-x,-z
9 z,x,y
10 -x,z,y
11 -z,-x,y
12 x,-z,y
13 z,-x,-y
14 x,z,-y
15 -z,x,-y
16 -x,-z,-y
17 y,z,x
18 -z,-y,-x
19 -z,y,x
20 z,y,-x
21 z,-y,x
22 y,-z,-x
23 -y,-z,x
24 -y,z,-x
25 -x,-y,-z
26 y,-x,-z
27 x,y,-z
28 -y,x,-z
29 -x,y,z
30 -y,-x,z
31 x,-y,z
32 y,x,z
33 -z,-x,-y
34 x,-z,-y
35 z,x,-y
36 -x,z,-y
37 -z,x,y
38 -x,-z,y
39 z,-x,y
40 x,z,y
41 -y,-z,-x
42 z,y,x
43 z,-y,-x
44 -z,-y,x
45 -z,y,-x
46 -y,z,x
47 y,z,-x
48 y,-z,x
_cell_length_a                   27.860(3)
_cell_length_b                   27.860(3)
_cell_length_c                   27.860(3)
_cell_angle_alpha                90
_cell_angle_beta                 90
_cell_angle_gamma                90
_cell_volume                     21624.4
loop_
_atom_site_label
_atom_site_type_symbol
_atom_site_fract_x
_atom_site_fract_y
_atom_site_fract_z
_atom_site_U_iso_or_equiv
_atom_site_thermal_displace_type
Cu1 Cu 0.5000 0.5000 0.24979(3) 0.0661 Uani
Cu2 Cu 0.5000 0.5000 0.15536(3) 0.0795 Uani
Cu3 Cu 0.45244(5) 0.0000 0.0000 0.1143 Uani
O1 O 0.5000 0.43028(10) 0.16273(9) 0.1042 Uani
O2 O 0.5000 0.43002(9) 0.24268(9) 0.0887 Uani
O3 O 0.5000 0.5000 0.07856(19) 0.1647 Uani
O4 O 0.5000 0.5000 0.32754(17) 0.1113 Uani
O5 O 0.46012(18) 0.04997(8) 0.04997(8) 0.1414 Uani
O6 O 0.3728(4) 0.0000 0.0000 0.1920 Uani
N1 N 0.5000 0.20824(12) 0.20824(12) 0.1580 Uani
C1 C 0.5000 0.40931(15) 0.20265(15) 0.0923 Uani
C2 C 0.5000 0.35600(15) 0.20259(15) 0.1050 Uani
C3 C 0.5000 0.33142(17) 0.15853(15) 0.1363 Uani
H1 H 0.5000 0.3486 0.1299 0.1640 Uiso
C4 C 0.5000 0.28211(19) 0.15742(17) 0.1547 Uani
H2 H 0.5000 0.2659 0.1282 0.1860 Uiso
C5 C 0.5000 0.25683(17) 0.19996(16) 0.1373 Uani
C6 C 0.5000 0.28092(15) 0.24477(13) 0.1103 Uani
C7 C 0.5000 0.33046(14) 0.24496(14) 0.1020 Uani
H3 H 0.5000 0.3468 0.2741 0.1220 Uiso
C8 C 0.5000 0.17224(16) 0.17224(16) 0.1493 Uani
C9 C 0.4612(3) 0.15591(16) 0.15591(16) 0.2337 Uani
H4 H 0.4323 0.1678 0.1678 0.2800 Uiso
C10 C 0.4603(3) 0.11866(16) 0.11866(16) 0.2210 Uani
H5 H 0.4310 0.1073 0.1073 0.2660 Uiso
C11 C 0.5000 0.10148(15) 0.10148(15) 0.1310 Uani
C12 C 0.5000 0.06376(18) 0.06376(18) 0.1177 Uani
O1I O 0.5000 0.16273(9) 0.43028(10) 0.1042 Uani
O2I O 0.5000 0.24268(9) 0.43002(9) 0.0887 Uani
O5I O 0.53988(18) 0.04997(8) 0.04997(8) 0.1414 Uani
C1I C 0.5000 0.20265(15) 0.40931(15) 0.0923 Uani
C2I C 0.5000 0.20259(15) 0.35600(15) 0.1050 Uani
C3I C 0.5000 0.15853(15) 0.33142(17) 0.1363 Uani
H1I H 0.5000 0.1299 0.3486 0.1640 Uiso
C4I C 0.5000 0.15742(17) 0.28211(19) 0.1547 Uani
H2I H 0.5000 0.1282 0.2659 0.1860 Uiso
C5I C 0.5000 0.19996(16) 0.25683(17) 0.1373 Uani
C6I C 0.5000 0.24477(13) 0.28092(15) 0.1103 Uani
C7I C 0.5000 0.24496(14) 0.33046(14) 0.1020 Uani
H3I H 0.5000 0.2741 0.3468 0.1220 Uiso
C9I C 0.5388(3) 0.15591(16) 0.15591(16) 0.2337 Uani
H4I H 0.5677 0.1678 0.1678 0.2800 Uiso
C10I C 0.5397(3) 0.11866(16) 0.11866(16) 0.2210 Uani
H5I H 0.5690 0.1073 0.1073 0.2660 Uiso
O1A O 0.56972(10) 0.5000 0.16273(9) 0.1042 Uani
O2A O 0.56998(9) 0.5000 0.24268(9) 0.0887 Uani
O5A O 0.95003(8) 0.46012(18) 0.04997(8) 0.1414 Uani
N1A N 0.79176(12) 0.5000 0.20824(12) 0.1580 Uani
C1A C 0.59069(15) 0.5000 0.20265(15) 0.0923 Uani
C2A C 0.64400(15) 0.5000 0.20259(15) 0.1050 Uani
C3A C 0.66858(17) 0.5000 0.15853(15) 0.1363 Uani
H1A H 0.6514 0.5000 0.1299 0.1640 Uiso
C4A C 0.71789(19) 0.5000 0.15742(17) 0.1547 Uani
H2A H 0.7341 0.5000 0.1282 0.1860 Uiso
C5A C 0.74317(17) 0.5000 0.19996(16) 0.1373 Uani
C6A C 0.71908(15) 0.5000 0.24477(13) 0.1103 Uani
C7A C 0.66954(14) 0.5000 0.24496(14) 0.1020 Uani
H3A H 0.6532 0.5000 0.2741 0.1220 Uiso
C8A C 0.82776(16) 0.5000 0.17224(16) 0.1493 Uani
C9A C 0.84409(16) 0.4612(3) 0.15591(16) 0.2337 Uani
H4A H 0.8322 0.4323 0.1678 0.2800 Uiso
C10A C 0.88134(16) 0.4603(3) 0.11866(16) 0.2210 Uani
H5A H 0.8927 0.4310 0.1073 0.2660 Uiso
C11A C 0.89852(15) 0.5000 0.10148(15) 0.1310 Uani
C12A C 0.93624(18) 0.5000 0.06376(18) 0.1177 Uani
O1J O 0.83727(9) 0.5000 0.43028(10) 0.1042 Uani
O2J O 0.75732(9) 0.5000 0.43002(9) 0.0887 Uani
O5J O 0.95003(8) 0.53988(18) 0.04997(8) 0.1414 Uani
C1J C 0.79735(15) 0.5000 0.40931(15) 0.0923 Uani
C2J C 0.79741(15) 0.5000 0.35600(15) 0.1050 Uani
C3J C 0.84147(15) 0.5000 0.33142(17) 0.1363 Uani
H1J H 0.8701 0.5000 0.3486 0.1640 Uiso
C4J C 0.84258(17) 0.5000 0.28211(19) 0.1547 Uani
H2J H 0.8718 0.5000 0.2659 0.1860 Uiso
C5J C 0.80004(16) 0.5000 0.25683(17) 0.1373 Uani
C6J C 0.75523(13) 0.5000 0.28092(15) 0.1103 Uani
C7J C 0.75504(14) 0.5000 0.33046(14) 0.1020 Uani
H3J H 0.7259 0.5000 0.3468 0.1220 Uiso
C9J C 0.84409(16) 0.5388(3) 0.15591(16) 0.2337 Uani
H4J H 0.8322 0.5677 0.1678 0.2800 Uiso
C10J C 0.88134(16) 0.5397(3) 0.11866(16) 0.2210 Uani
H5J H 0.8927 0.5690 0.1073 0.2660 Uiso
Cu1I Cu 0.5000 0.24979(3) 0.5000 0.0661 Uani
Cu1J Cu 0.75021(3) 0.5000 0.5000 0.0661 Uani
Cu2I Cu 0.5000 0.15536(3) 0.5000 0.0795 Uani
Cu2J Cu 0.84464(3) 0.5000 0.5000 0.0795 Uani
Cu3A Cu 1.0000 0.45244(5) 0.0000 0.1143 Uani
Cu3B Cu 0.54756(5) 0.0000 0.0000 0.1143 Uani
Cu3C Cu 1.0000 0.54756(5) 0.0000 0.1143 Uani
O1B O 0.5000 0.56972(10) 0.16273(9) 0.1042 Uani
O1C O 0.43028(10) 0.5000 0.16273(9) 0.1042 Uani
O2B O 0.5000 0.56998(9) 0.24268(9) 0.0887 Uani
O2C O 0.43002(9) 0.5000 0.24268(9) 0.0887 Uani
O5D O 0.46012(18) -0.04997(8) -0.04997(8) 0.1414 Uani
O5K O 0.46012(18) -0.04997(8) 0.04997(8) 0.1414 Uani
O5M O 0.46012(18) 0.04997(8) -0.04997(8) 0.1414 Uani
loop_
_atom_site_aniso_label
_atom_site_aniso_U_11
_atom_site_aniso_U_22
_atom_site_aniso_U_33
_atom_site_aniso_U_23
_atom_site_aniso_U_13
_atom_site_aniso_U_12
Cu1 0.0740(3) 0.0740(3) 0.0502(4) 0.000 0.000 0.000
Cu2 0.0934(4) 0.0934(4) 0.0517(4) 0.000 0.000 0.000
Cu3 0.2297(14) 0.0566(3) 0.0566(3) 0.000 0.000 0.000
O1 0.153(3) 0.0882(18) 0.0714(16) -0.0111(14) 0.000 0.000
O2 0.123(2) 0.0713(14) 0.0717(15) -0.0101(12) 0.000 0.000
O3 0.224(5) 0.224(5) 0.046(3) 0.000 0.000 0.000
O4 0.140(3) 0.140(3) 0.054(3) 0.000 0.000 0.000
O5 0.242(5) 0.0911(15) 0.0911(15) -0.0298(18) 0.0030(15) 0.0030(15)
O6 0.242(11) 0.167(5) 0.167(5) 0.000 0.000 0.000
N1 0.324(11) 0.075(2) 0.075(2) -0.027(3) 0.000 0.000
C1 0.114(3) 0.084(2) 0.079(2) -0.010(2) 0.000 0.000
C2 0.155(4) 0.079(2) 0.081(2) -0.019(2) 0.000 0.000
C3 0.251(7) 0.088(3) 0.070(2) -0.017(2) 0.000 0.000
C4 0.292(9) 0.095(3) 0.077(3) -0.027(3) 0.000 0.000
C5 0.255(7) 0.084(3) 0.073(3) -0.026(2) 0.000 0.000
C6 0.186(5) 0.075(2) 0.070(2) -0.0177(18) 0.000 0.000
C7 0.156(4) 0.078(2) 0.072(2) -0.016(2) 0.000 0.000
C8 0.274(12) 0.087(3) 0.087(3) -0.038(4) 0.000 0.000
C9 0.259(8) 0.221(5) 0.221(5) -0.153(6) 0.000(3) 0.000(3)
C10 0.245(7) 0.209(5) 0.209(5) -0.134(6) 0.005(3) 0.005(3)
C11 0.237(10) 0.078(2) 0.078(2) -0.027(3) 0.000 0.000
C12 0.217(10) 0.068(2) 0.068(2) -0.002(3) 0.000 0.000
O1I 0.153 0.0714 0.0882 -0.0111 0 0
O2I 0.123 0.0717 0.0713 -0.0101 0 0
O5I 0.242 0.0911 0.0911 -0.0298 -0.003 -0.003
C1I 0.114 0.079 0.084 -0.01 0 0
C2I 0.155 0.081 0.079 -0.019 0 0
C3I 0.251 0.07 0.088 -0.017 0 0
C4I 0.292 0.077 0.095 -0.027 0 0
C5I 0.255 0.073 0.084 -0.026 0 0
C6I 0.186 0.07 0.075 -0.0177 0 0
C7I 0.156 0.072 0.078 -0.016 0 0
C9I 0.259 0.221 0.221 -0.153 0 0
C10I 0.245 0.209 0.209 -0.134 -0.005 -0.005
O1A 0.0882 0.153 0.0714 0 0.0111 0
O2A 0.0713 0.123 0.0717 0 0.0101 0
O5A 0.0911 0.242 0.0911 0.003 0.0298 -0.003
N1A 0.075 0.324 0.075 0 0.027 0
C1A 0.084 0.114 0.079 0 0.01 0
C2A 0.079 0.155 0.081 0 0.019 0
C3A 0.088 0.251 0.07 0 0.017 0
C4A 0.095 0.292 0.077 0 0.027 0
C5A 0.084 0.255 0.073 0 0.026 0
C6A 0.075 0.186 0.07 0 0.0177 0
C7A 0.078 0.156 0.072 0 0.016 0
C8A 0.087 0.274 0.087 0 0.038 0
C9A 0.221 0.259 0.221 0 0.153 0
C10A 0.209 0.245 0.209 0.005 0.134 -0.005
C11A 0.078 0.237 0.078 0 0.027 0
C12A 0.068 0.217 0.068 0 0.002 0
O1J 0.0714 0.153 0.0882 0 0.0111 0
O2J 0.0717 0.123 0.0713 0 0.0101 0
O5J 0.0911 0.242 0.0911 -0.003 0.0298 0.003
C1J 0.079 0.114 0.084 0 0.01 0
C2J 0.081 0.155 0.079 0 0.019 0
C3J 0.07 0.251 0.088 0 0.017 0
C4J 0.077 0.292 0.095 0 0.027 0
C5J 0.073 0.255 0.084 0 0.026 0
C6J 0.07 0.186 0.075 0 0.0177 0
C7J 0.072 0.156 0.078 0 0.016 0
C9J 0.221 0.259 0.221 0 0.153 0
C10J 0.209 0.245 0.209 -0.005 0.134 0.005
Cu1I 0.074 0.0502 0.074 0 0 0
Cu1J 0.0502 0.074 0.074 0 0 0
Cu2I 0.0934 0.0517 0.0934 0 0 0
Cu2J 0.0517 0.0934 0.0934 0 0 0
Cu3A 0.0566 0.2297 0.0566 0 0 0
Cu3B 0.2297 0.0566 0.0566 0 0 0
Cu3C 0.0566 0.2297 0.0566 0 0 0
O1B 0.153 0.0882 0.0714 0.0111 0 0
O1C 0.0882 0.153 0.0714 0 -0.0111 0
O2B 0.123 0.0713 0.0717 0.0101 0 0
O2C 0.0713 0.123 0.0717 0 -0.0101 0
O5D 0.242 0.0911 0.0911 -0.0298 -0.003 -0.003
O5K 0.242 0.0911 0.0911 0.0298 0.003 -0.003
O5M 0.242 0.0911 0.0911 0.0298 -0.003 0.003
loop_
_geom_bond_atom_site_label_1
_geom_bond_atom_site_label_2
_geom_bond_site_symmetry_1
_geom_bond_site_symmetry_2
Cu1 Cu2 1_555 1_555
Cu2 O1 1_555 1_555
Cu3 O5 1_555 1_555
O1 C1 1_555 1_555
O2 Cu1 1_555 1_555
O3 Cu2 1_555 1_555
O4 Cu1 1_555 1_555
O5 C12 1_555 1_555
O6 Cu3 1_555 1_555
N1 C5 1_555 1_555
C1 O2 1_555 1_555
C2 C1 1_555 1_555
C3 C2 1_555 1_555
H1 C3 1_555 1_555
C4 C3 1_555 1_555
H2 C4 1_555 1_555
C5 C4 1_555 1_555
C6 C5 1_555 1_555
C7 C2 1_555 1_555
H3 C7 1_555 1_555
C8 N1 1_555 1_555
C9 C8 1_555 1_555
H4 C9 1_555 1_555
C10 C9 1_555 1_555
H5 C10 1_555 1_555
C11 C10 1_555 1_555
C12 C11 1_555 1_555
O1I C1I 1_555 1_555
O2I C1I 1_555 1_555
O5I C12 1_555 1_555
C1I C2I 1_555 1_555
C2I C3I 1_555 1_555
C3I H1I 1_555 1_555
C4I C3I 1_555 1_555
H2I C4I 1_555 1_555
C5I N1 1_555 1_555
C6I C6 1_555 1_555
C7I C2I 1_555 1_555
H3I C7I 1_555 1_555
C9I C8 1_555 1_555
H4I C9I 1_555 1_555
C10I C11 1_555 1_555
H5I C10I 1_555 1_555
O1A Cu2 1_555 1_555
O2A Cu1 1_555 1_555
O5A C12A 1_555 1_555
N1A C5A 1_555 1_555
C1A O1A 1_555 1_555
C2A C1A 1_555 1_555
C3A C2A 1_555 1_555
H1A C3A 1_555 1_555
C4A C3A 1_555 1_555
H2A C4A 1_555 1_555
C5A C4A 1_555 1_555
C6A C5A 1_555 1_555
C7A C2A 1_555 1_555
H3A C7A 1_555 1_555
C8A N1A 1_555 1_555
C9A C8A 1_555 1_555
H4A C9A 1_555 1_555
C10A C9A 1_555 1_555
H5A C10A 1_555 1_555
C11A C10A 1_555 1_555
C12A C11A 1_555 1_555
O1J C1J 1_555 1_555
O2J C1J 1_555 1_555
O5J C12A 1_555 1_555
C1J C2J 1_555 1_555
C2J C3J 1_555 1_555
C3J H1J 1_555 1_555
C4J C3J 1_555 1_555
H2J C4J 1_555 1_555
C5J N1A 1_555 1_555
C6J C6A 1_555 1_555
C7J C2J 1_555 1_555
H3J C7J 1_555 1_555
C9J C8A 1_555 1_555
H4J C9J 1_555 1_555
C10J C11A 1_555 1_555
H5J C10J 1_555 1_555
Cu1I O2I 1_555 1_555
Cu1J O2J 1_555 1_555
Cu2I O1I 1_555 1_555
Cu2J O1J 1_555 1_555
Cu3A O5A 1_555 1_555
Cu3B Cu3 1_555 1_555
Cu3C O5J 1_555 1_555
O1B Cu2 1_555 1_555
O1C Cu2 1_555 1_555
O2B Cu1 1_555 1_555
O2C Cu1 1_555 1_555
O5D Cu3 1_555 1_555
O5K Cu3 1_555 1_555
O5M Cu3 1_555 1_555
C6 C7 1_555 1_555
O5I Cu3B 1_555 1_555
C4I C5I 1_555 1_555
C5I C6I 1_555 1_555
C6I C7I 1_555 1_555
C9I C10I 1_555 1_555
O2A C1A 1_555 1_555
C6A C7A 1_555 1_555
C4J C5J 1_555 1_555
C5J C6J 1_555 1_555
C6J C7J 1_555 1_555
C9J C10J 1_555 1_555
Cu1I Cu2I 1_555 1_555
Cu1J Cu2J 1_555 1_555
Cu3A Cu3C 1_555 1_555

#END
