
#######################################################################
#
#                 Cambridge Crystallographic Data Centre
#                                CCDC 
#
#######################################################################
#
# If this CIF has been generated from an entry in the Cambridge 
# Structural Database, then it will include bibliographic, chemical, 
# crystal, experimental, refinement or atomic coordinate data resulting 
# from the CCDC's data processing and validation procedures.
#
#######################################################################

data_ARUHUS
_chemical_formula_moiety         'C366 H192 O107 Zr40'
_symmetry_cell_setting           cubic
_symmetry_space_group_name_H-M   'P m -3 n'
_symmetry_Int_Tables_number      223
_space_group_name_Hall           '-P 4n 2 3'
loop_
_symmetry_equiv_pos_site_id
_symmetry_equiv_pos_as_xyz
1 x,y,z
2 -x,-y,z
3 -x,y,-z
4 x,-y,-z
5 z,x,y
6 z,-x,-y
7 -z,-x,y
8 -z,x,-y
9 y,z,x
10 -y,z,-x
11 y,-z,-x
12 -y,-z,x
13 1/2+y,1/2+x,1/2-z
14 1/2-y,1/2-x,1/2-z
15 1/2+y,1/2-x,1/2+z
16 1/2-y,1/2+x,1/2+z
17 1/2+x,1/2+z,1/2-y
18 1/2-x,1/2+z,1/2+y
19 1/2-x,1/2-z,1/2-y
20 1/2+x,1/2-z,1/2+y
21 1/2+z,1/2+y,1/2-x
22 1/2+z,1/2-y,1/2+x
23 1/2-z,1/2+y,1/2+x
24 1/2-z,1/2-y,1/2-x
25 -x,-y,-z
26 x,y,-z
27 x,-y,z
28 -x,y,z
29 -z,-x,-y
30 -z,x,y
31 z,x,-y
32 z,-x,y
33 -y,-z,-x
34 y,-z,x
35 -y,z,x
36 y,z,-x
37 1/2-y,1/2-x,1/2+z
38 1/2+y,1/2+x,1/2+z
39 1/2-y,1/2+x,1/2-z
40 1/2+y,1/2-x,1/2-z
41 1/2-x,1/2-z,1/2+y
42 1/2+x,1/2-z,1/2-y
43 1/2+x,1/2+z,1/2+y
44 1/2-x,1/2+z,1/2-y
45 1/2-z,1/2-y,1/2+x
46 1/2-z,1/2+y,1/2-x
47 1/2+z,1/2-y,1/2-x
48 1/2+z,1/2+y,1/2+x
_cell_length_a                   48.842(8)
_cell_length_b                   48.842(8)
_cell_length_c                   48.842(8)
_cell_angle_alpha                90
_cell_angle_beta                 90
_cell_angle_gamma                90
_cell_volume                     116515
loop_
_atom_site_label
_atom_site_type_symbol
_atom_site_fract_x
_atom_site_fract_y
_atom_site_fract_z
Zr1 Zr -0.2500 0.035731(10) -0.464269(10)
Zr2 Zr -0.30048(2) 0.0000 -0.5000
Zr3 Zr -0.47224(5) 0.47224(5) -0.52776(5)
O1 O -0.02776(11) 0.47118(12) -0.32316(12)
O2 O -0.24767(8) 0.07944(9) -0.47617(9)
O3 O -0.05160(9) 0.44783(9) -0.28932(11)
C1 C -0.1904(2) 0.3123(2) -0.5000
C2 C -0.24506(18) 0.09046(18) -0.5000
C3 C -0.2379(2) 0.1201(2) -0.5000
C4 C -0.17014(14) 0.35281(13) -0.47498(11)
C5 C -0.17548(15) 0.37885(14) -0.46482(17)
H1 H -0.1899 0.3891 -0.4720
C6 C -0.15935(18) 0.38957(13) -0.44397(18)
H2 H -0.1629 0.4070 -0.4372
C7 C -0.13788(16) 0.37426(18) -0.43328(15)
C8 C -0.13253(15) 0.34822(17) -0.44344(18)
H3 H -0.1182 0.3380 -0.4363
C9 C -0.14866(17) 0.33749(12) -0.46429(16)
H4 H -0.1451 0.3201 -0.4711
C10 C -0.18744(19) 0.34345(15) -0.5000
C11 C -0.09040(15) 0.40935(15) -0.37486(14)
C12 C -0.07251(16) 0.43013(17) -0.38248(11)
H5 H -0.0703 0.4346 -0.4009
C13 C -0.05789(14) 0.44431(14) -0.36260(14)
H6 H -0.0459 0.4582 -0.3677
C14 C -0.06115(13) 0.43771(13) -0.33511(12)
C15 C -0.07904(15) 0.41692(14) -0.32750(11)
H7 H -0.0812 0.4125 -0.3091
C16 C -0.09366(15) 0.40274(14) -0.34737(16)
H8 H -0.1056 0.3888 -0.3423
C17 C -0.1068(3) 0.3947(2) -0.3953(3)
C18 C -0.2339(2) 0.13467(16) -0.47554(18)
H9 H -0.2362 0.1257 -0.4589
C19 C -0.2158(4) 0.2034(3) -0.5000
C20 C -0.2249(4) 0.1767(3) -0.5000
C21 C -0.2043(4) 0.2558(3) -0.5000
C22 C -0.1200(3) 0.3839(2) -0.4108(2)
C23 C -0.2103(3) 0.2264(3) -0.5000
C24 C -0.2264(2) 0.16214(18) -0.47559(19)
H10 H -0.2223 0.1709 -0.4592
C25 C -0.1938(3) 0.29786(18) -0.52350(19)
H11 H -0.1917 0.3069 -0.5401
C26 C -0.2148(3) 0.35515(16) -0.5000
C27 C -0.2005(3) 0.2702(2) -0.5238(2)
H12 H -0.2024 0.2612 -0.5404
C28 C -0.2700(4) 0.3774(5) -0.5000
C29 C -0.2564(2) 0.3680(4) -0.5227(3)
H13 H -0.2659 0.3673 -0.5392
C30 C -0.2958(4) 0.3898(6) -0.5000
C31 C -0.2299(2) 0.3596(3) -0.5225(2)
H14 H -0.2215 0.3568 -0.5394
C32 C -0.3412(4) 0.4088(7) -0.5000
C33 C -0.3145(4) 0.3986(6) -0.5000
C34 C -0.3962(5) 0.4354(7) -0.5000
C35 C -0.4240(6) 0.4463(9) -0.5000
C36 C -0.0443(2) 0.4534(2) -0.3148(2)
C37 C -0.3556(3) 0.4170(5) -0.4779(3)
H15 H -0.3469 0.4158 -0.4610
C38 C -0.3821(3) 0.4270(5) -0.4777(3)
H16 H -0.3910 0.4280 -0.4609
O4 O -0.4318(3) 0.4568(4) -0.4791(2)
O5 O -0.27808(10) 0.04046(9) -0.5000
O6 O -0.27170(10) 0.0000 -0.46897(10)
O7 O -0.47721(15) 0.45688(14) -0.5000
O1Y O -0.02776(11) 0.47118(12) -0.67684(12)
O2Y O -0.24767(8) 0.07944(9) -0.52383(9)
O3Y O -0.05160(9) 0.44783(9) -0.71068(11)
C4Y C -0.17014(14) 0.35281(13) -0.52502(11)
C5Y C -0.17548(15) 0.37885(14) -0.53518(17)
H1Y H -0.1899 0.3891 -0.5280
C6Y C -0.15935(18) 0.38957(13) -0.55603(18)
H2Y H -0.1629 0.4070 -0.5628
C7Y C -0.13788(16) 0.37426(18) -0.56672(15)
C8Y C -0.13253(15) 0.34822(17) -0.55656(18)
H3Y H -0.1182 0.3380 -0.5637
C9Y C -0.14866(17) 0.33749(12) -0.53571(16)
H4Y H -0.1451 0.3201 -0.5289
C11Y C -0.09040(15) 0.40935(15) -0.62514(14)
C12Y C -0.07251(16) 0.43013(17) -0.61752(11)
H5Y H -0.0703 0.4346 -0.5991
C13Y C -0.05789(14) 0.44431(14) -0.63740(14)
H6Y H -0.0459 0.4582 -0.6323
C14Y C -0.06115(13) 0.43771(13) -0.66489(12)
C15Y C -0.07904(15) 0.41692(14) -0.67250(11)
H7Y H -0.0812 0.4125 -0.6909
C16Y C -0.09366(15) 0.40274(14) -0.65263(16)
H8Y H -0.1056 0.3888 -0.6577
C17Y C -0.1068(3) 0.3947(2) -0.6047(3)
C18Y C -0.2339(2) 0.13467(16) -0.52446(18)
H9Y H -0.2362 0.1257 -0.5411
C22Y C -0.1200(3) 0.3839(2) -0.5892(2)
C24Y C -0.2264(2) 0.16214(18) -0.52441(19)
H10Y H -0.2223 0.1709 -0.5408
C25Y C -0.1938(3) 0.29786(18) -0.47650(19)
H11Y H -0.1917 0.3069 -0.4599
C27Y C -0.2005(3) 0.2702(2) -0.4762(2)
H12Y H -0.2024 0.2612 -0.4596
C29Y C -0.2564(2) 0.3680(4) -0.4773(3)
H13Y H -0.2659 0.3673 -0.4608
C31Y C -0.2299(2) 0.3596(3) -0.4775(2)
H14Y H -0.2215 0.3568 -0.4606
C36Y C -0.0443(2) 0.4534(2) -0.6852(2)
C37Y C -0.3556(3) 0.4170(5) -0.5221(3)
H15Y H -0.3469 0.4158 -0.5390
C38Y C -0.3821(3) 0.4270(5) -0.5223(3)
H16Y H -0.3910 0.4280 -0.5391
O4Y O -0.4318(3) 0.4568(4) -0.5209(2)
Zr1C Zr -0.2500 -0.035731(10) -0.535731(10)
O1C O -0.02776(11) -0.47118(12) -0.67684(12)
O2C O -0.24767(8) -0.07944(9) -0.52383(9)
O3C O -0.05160(9) -0.44783(9) -0.71068(11)
C1C C -0.1904(2) -0.3123(2) -0.5000
C2C C -0.24506(18) -0.09046(18) -0.5000
C3C C -0.2379(2) -0.1201(2) -0.5000
C4C C -0.17014(14) -0.35281(13) -0.52502(11)
C5C C -0.17548(15) -0.37885(14) -0.53518(17)
H1C H -0.1899 -0.3891 -0.5280
C6C C -0.15935(18) -0.38957(13) -0.55603(18)
H2C H -0.1629 -0.4070 -0.5628
C7C C -0.13788(16) -0.37426(18) -0.56672(15)
C8C C -0.13253(15) -0.34822(17) -0.55656(18)
H3C H -0.1182 -0.3380 -0.5637
C9C C -0.14866(17) -0.33749(12) -0.53571(16)
H4C H -0.1451 -0.3201 -0.5289
C10C C -0.18744(19) -0.34345(15) -0.5000
C11C C -0.09040(15) -0.40935(15) -0.62514(14)
C12C C -0.07251(16) -0.43013(17) -0.61752(11)
H5C H -0.0703 -0.4346 -0.5991
C13C C -0.05789(14) -0.44431(14) -0.63740(14)
H6C H -0.0459 -0.4582 -0.6323
C14C C -0.06115(13) -0.43771(13) -0.66489(12)
C15C C -0.07904(15) -0.41692(14) -0.67250(11)
H7C H -0.0812 -0.4125 -0.6909
C16C C -0.09366(15) -0.40274(14) -0.65263(16)
H8C H -0.1056 -0.3888 -0.6577
C17C C -0.1068(3) -0.3947(2) -0.6047(3)
C18C C -0.2339(2) -0.13467(16) -0.52446(18)
H9C H -0.2362 -0.1257 -0.5411
C19C C -0.2158(4) -0.2034(3) -0.5000
C20C C -0.2249(4) -0.1767(3) -0.5000
C21C C -0.2043(4) -0.2558(3) -0.5000
C22C C -0.1200(3) -0.3839(2) -0.5892(2)
C23C C -0.2103(3) -0.2264(3) -0.5000
C24C C -0.2264(2) -0.16214(18) -0.52441(19)
H10C H -0.2223 -0.1709 -0.5408
C25C C -0.1938(3) -0.29786(18) -0.47650(19)
H11C H -0.1917 -0.3069 -0.4599
C26C C -0.2148(3) -0.35515(16) -0.5000
C27C C -0.2005(3) -0.2702(2) -0.4762(2)
H12C H -0.2024 -0.2612 -0.4596
C28C C -0.2700(4) -0.3774(5) -0.5000
C29C C -0.2564(2) -0.3680(4) -0.4773(3)
H13C H -0.2659 -0.3673 -0.4608
C30C C -0.2958(4) -0.3898(6) -0.5000
C31C C -0.2299(2) -0.3596(3) -0.4775(2)
H14C H -0.2215 -0.3568 -0.4606
C32C C -0.3412(4) -0.4088(7) -0.5000
C33C C -0.3145(4) -0.3986(6) -0.5000
C34C C -0.3962(5) -0.4354(7) -0.5000
C35C C -0.4240(6) -0.4463(9) -0.5000
C36C C -0.0443(2) -0.4534(2) -0.6852(2)
C37C C -0.3556(3) -0.4170(5) -0.5221(3)
H15C H -0.3469 -0.4158 -0.5390
C38C C -0.3821(3) -0.4270(5) -0.5223(3)
H16C H -0.3910 -0.4280 -0.5391
O4C O -0.4318(3) -0.4568(4) -0.5209(2)
O5C O -0.27808(10) -0.04046(9) -0.5000
O6C O -0.27170(10) 0.0000 -0.53103(10)
O1Z O -0.02776(11) -0.47118(12) -0.32316(12)
O2Z O -0.24767(8) -0.07944(9) -0.47617(9)
O3Z O -0.05160(9) -0.44783(9) -0.28932(11)
C4Z C -0.17014(14) -0.35281(13) -0.47498(11)
C5Z C -0.17548(15) -0.37885(14) -0.46482(17)
H1Z H -0.1899 -0.3891 -0.4720
C6Z C -0.15935(18) -0.38957(13) -0.44397(18)
H2Z H -0.1629 -0.4070 -0.4372
C7Z C -0.13788(16) -0.37426(18) -0.43328(15)
C8Z C -0.13253(15) -0.34822(17) -0.44344(18)
H3Z H -0.1182 -0.3380 -0.4363
C9Z C -0.14866(17) -0.33749(12) -0.46429(16)
H4Z H -0.1451 -0.3201 -0.4711
C11Z C -0.09040(15) -0.40935(15) -0.37486(14)
C12Z C -0.07251(16) -0.43013(17) -0.38248(11)
H5Z H -0.0703 -0.4346 -0.4009
C13Z C -0.05789(14) -0.44431(14) -0.36260(14)
H6Z H -0.0459 -0.4582 -0.3677
C14Z C -0.06115(13) -0.43771(13) -0.33511(12)
C15Z C -0.07904(15) -0.41692(14) -0.32750(11)
H7Z H -0.0812 -0.4125 -0.3091
C16Z C -0.09366(15) -0.40274(14) -0.34737(16)
H8Z H -0.1056 -0.3888 -0.3423
C17Z C -0.1068(3) -0.3947(2) -0.3953(3)
C18Z C -0.2339(2) -0.13467(16) -0.47554(18)
H9Z H -0.2362 -0.1257 -0.4589
C22Z C -0.1200(3) -0.3839(2) -0.4108(2)
C24Z C -0.2264(2) -0.16214(18) -0.47559(19)
H10Z H -0.2223 -0.1709 -0.4592
C25Z C -0.1938(3) -0.29786(18) -0.52350(19)
H11Z H -0.1917 -0.3069 -0.5401
C27Z C -0.2005(3) -0.2702(2) -0.5238(2)
H12Z H -0.2024 -0.2612 -0.5404
C29Z C -0.2564(2) -0.3680(4) -0.5227(3)
H13Z H -0.2659 -0.3673 -0.5392
C31Z C -0.2299(2) -0.3596(3) -0.5225(2)
H14Z H -0.2215 -0.3568 -0.5394
C36Z C -0.0443(2) -0.4534(2) -0.3148(2)
C37Z C -0.3556(3) -0.4170(5) -0.4779(3)
H15Z H -0.3469 -0.4158 -0.4610
C38Z C -0.3821(3) -0.4270(5) -0.4777(3)
H16Z H -0.3910 -0.4280 -0.4609
O4Z O -0.4318(3) -0.4568(4) -0.4791(2)
Zr1E Zr -0.464269(10) 0.2500 -0.035731(10)
Zr3B Zr -0.52776(5) 0.47224(5) -0.47224(5)
O1E O -0.32316(12) 0.02776(11) -0.47118(12)
O2E O -0.47617(9) 0.24767(8) -0.07944(9)
O3E O -0.28932(11) 0.05160(9) -0.44783(9)
C1E C -0.5000 0.1904(2) -0.3123(2)
C2E C -0.5000 0.24506(18) -0.09046(18)
C3E C -0.5000 0.2379(2) -0.1201(2)
C4E C -0.47498(11) 0.17014(14) -0.35281(13)
C5E C -0.46482(17) 0.17548(15) -0.37885(14)
H1E H -0.4720 0.1899 -0.3891
C6E C -0.44397(18) 0.15935(18) -0.38957(13)
H2E H -0.4372 0.1629 -0.4070
C7E C -0.43328(15) 0.13788(16) -0.37426(18)
C8E C -0.44344(18) 0.13253(15) -0.34822(17)
H3E H -0.4363 0.1182 -0.3380
C9E C -0.46429(16) 0.14866(17) -0.33749(12)
H4E H -0.4711 0.1451 -0.3201
C10E C -0.5000 0.18744(19) -0.34345(15)
C11E C -0.37486(14) 0.09040(15) -0.40935(15)
C12E C -0.38248(11) 0.07251(16) -0.43013(17)
H5E H -0.4009 0.0703 -0.4346
C13E C -0.36260(14) 0.05789(14) -0.44431(14)
H6E H -0.3677 0.0459 -0.4582
C14E C -0.33511(12) 0.06115(13) -0.43771(13)
C15E C -0.32750(11) 0.07904(15) -0.41692(14)
H7E H -0.3091 0.0812 -0.4125
C16E C -0.34737(16) 0.09366(15) -0.40274(14)
H8E H -0.3423 0.1056 -0.3888
C17E C -0.3953(3) 0.1068(3) -0.3947(2)
C18E C -0.47554(18) 0.2339(2) -0.13467(16)
H9E H -0.4589 0.2362 -0.1257
C19E C -0.5000 0.2158(4) -0.2034(3)
C20E C -0.5000 0.2249(4) -0.1767(3)
C21E C -0.5000 0.2043(4) -0.2558(3)
C22E C -0.4108(2) 0.1200(3) -0.3839(2)
C23E C -0.5000 0.2103(3) -0.2264(3)
C24E C -0.47559(19) 0.2264(2) -0.16214(18)
H10E H -0.4592 0.2223 -0.1709
C25E C -0.52350(19) 0.1938(3) -0.29786(18)
H11E H -0.5401 0.1917 -0.3069
C26E C -0.5000 0.2148(3) -0.35515(16)
C27E C -0.5238(2) 0.2005(3) -0.2702(2)
H12E H -0.5404 0.2024 -0.2612
C28E C -0.5000 0.2700(4) -0.3774(5)
C29E C -0.5227(3) 0.2564(2) -0.3680(4)
H13E H -0.5392 0.2659 -0.3673
C30E C -0.5000 0.2958(4) -0.3898(6)
C31E C -0.5225(2) 0.2299(2) -0.3596(3)
H14E H -0.5394 0.2215 -0.3568
C32E C -0.5000 0.3412(4) -0.4088(7)
C33E C -0.5000 0.3145(4) -0.3986(6)
C34E C -0.5000 0.3962(5) -0.4354(7)
C35E C -0.5000 0.4240(6) -0.4463(9)
C36E C -0.3148(2) 0.0443(2) -0.4534(2)
C37E C -0.4779(3) 0.3556(3) -0.4170(5)
H15E H -0.4610 0.3469 -0.4158
C38E C -0.4777(3) 0.3821(3) -0.4270(5)
H16E H -0.4609 0.3910 -0.4280
O4E O -0.4791(2) 0.4318(3) -0.4568(4)
O5E O -0.5000 0.27808(10) -0.04046(9)
O6E O -0.46897(10) 0.27170(10) 0.0000
O7E O -0.5000 0.47721(15) -0.45688(14)
O1BA O -0.67684(12) 0.02776(11) -0.47118(12)
O2BA O -0.52383(9) 0.24767(8) -0.07944(9)
O3BA O -0.71068(11) 0.05160(9) -0.44783(9)
C4BA C -0.52502(11) 0.17014(14) -0.35281(13)
C5BA C -0.53518(17) 0.17548(15) -0.37885(14)
H1BA H -0.5280 0.1899 -0.3891
C6BA C -0.55603(18) 0.15935(18) -0.38957(13)
H2BA H -0.5628 0.1629 -0.4070
C7BA C -0.56672(15) 0.13788(16) -0.37426(18)
C8BA C -0.55656(18) 0.13253(15) -0.34822(17)
H3BA H -0.5637 0.1182 -0.3380
C9BA C -0.53571(16) 0.14866(17) -0.33749(12)
H4BA H -0.5289 0.1451 -0.3201
C11BA C -0.62514(14) 0.09040(15) -0.40935(15)
C12BA C -0.61752(11) 0.07251(16) -0.43013(17)
H5BA H -0.5991 0.0703 -0.4346
C13BA C -0.63740(14) 0.05789(14) -0.44431(14)
H6BA H -0.6323 0.0459 -0.4582
C14BA C -0.66489(12) 0.06115(13) -0.43771(13)
C15BA C -0.67250(11) 0.07904(15) -0.41692(14)
H7BA H -0.6909 0.0812 -0.4125
C16BA C -0.65263(16) 0.09366(15) -0.40274(14)
H8BA H -0.6577 0.1056 -0.3888
C17BA C -0.6047(3) 0.1068(3) -0.3947(2)
C18BA C -0.52446(18) 0.2339(2) -0.13467(16)
H9BA H -0.5411 0.2362 -0.1257
C22BA C -0.5892(2) 0.1200(3) -0.3839(2)
C24BA C -0.52441(19) 0.2264(2) -0.16214(18)
H10BA H -0.5408 0.2223 -0.1709
C25BA C -0.47650(19) 0.1938(3) -0.29786(18)
H11BA H -0.4599 0.1917 -0.3069
C27BA C -0.4762(2) 0.2005(3) -0.2702(2)
H12BA H -0.4596 0.2024 -0.2612
C29BA C -0.4773(3) 0.2564(2) -0.3680(4)
H13BA H -0.4608 0.2659 -0.3673
C31BA C -0.4775(2) 0.2299(2) -0.3596(3)
H14BA H -0.4606 0.2215 -0.3568
C36BA C -0.6852(2) 0.0443(2) -0.4534(2)
C37BA C -0.5221(3) 0.3556(3) -0.4170(5)
H15BA H -0.5390 0.3469 -0.4158
C38BA C -0.5223(3) 0.3821(3) -0.4270(5)
H16BA H -0.5391 0.3910 -0.4280
O4BA O -0.5209(2) 0.4318(3) -0.4568(4)
O1F O -0.67684(12) 0.02776(11) -0.52882(12)
O2F O -0.52383(9) 0.24767(8) -0.92056(9)
O3F O -0.71068(11) 0.05160(9) -0.55217(9)
C1F C -0.5000 0.1904(2) -0.6877(2)
C2F C -0.5000 0.24506(18) -0.90954(18)
C3F C -0.5000 0.2379(2) -0.8799(2)
C4F C -0.52502(11) 0.17014(14) -0.64719(13)
C5F C -0.53518(17) 0.17548(15) -0.62115(14)
H1F H -0.5280 0.1899 -0.6109
C6F C -0.55603(18) 0.15935(18) -0.61043(13)
H2F H -0.5628 0.1629 -0.5930
C7F C -0.56672(15) 0.13788(16) -0.62574(18)
C8F C -0.55656(18) 0.13253(15) -0.65178(17)
H3F H -0.5637 0.1182 -0.6620
C9F C -0.53571(16) 0.14866(17) -0.66251(12)
H4F H -0.5289 0.1451 -0.6799
C10F C -0.5000 0.18744(19) -0.65655(15)
C11F C -0.62514(14) 0.09040(15) -0.59065(15)
C12F C -0.61752(11) 0.07251(16) -0.56987(17)
H5F H -0.5991 0.0703 -0.5654
C13F C -0.63740(14) 0.05789(14) -0.55569(14)
H6F H -0.6323 0.0459 -0.5418
C14F C -0.66489(12) 0.06115(13) -0.56229(13)
C15F C -0.67250(11) 0.07904(15) -0.58308(14)
H7F H -0.6909 0.0812 -0.5875
C16F C -0.65263(16) 0.09366(15) -0.59726(14)
H8F H -0.6577 0.1056 -0.6112
C17F C -0.6047(3) 0.1068(3) -0.6053(2)
C18F C -0.52446(18) 0.2339(2) -0.86533(16)
H9F H -0.5411 0.2362 -0.8743
C19F C -0.5000 0.2158(4) -0.7966(3)
C20F C -0.5000 0.2249(4) -0.8233(3)
C21F C -0.5000 0.2043(4) -0.7442(3)
C22F C -0.5892(2) 0.1200(3) -0.6161(2)
C23F C -0.5000 0.2103(3) -0.7736(3)
C24F C -0.52441(19) 0.2264(2) -0.83786(18)
H10F H -0.5408 0.2223 -0.8291
C25F C -0.47650(19) 0.1938(3) -0.70214(18)
H11F H -0.4599 0.1917 -0.6931
C26F C -0.5000 0.2148(3) -0.64485(16)
C27F C -0.4762(2) 0.2005(3) -0.7298(2)
H12F H -0.4596 0.2024 -0.7388
C28F C -0.5000 0.2700(4) -0.6226(5)
C29F C -0.4773(3) 0.2564(2) -0.6320(4)
H13F H -0.4608 0.2659 -0.6327
C30F C -0.5000 0.2958(4) -0.6102(6)
C31F C -0.4775(2) 0.2299(2) -0.6404(3)
H14F H -0.4606 0.2215 -0.6432
C32F C -0.5000 0.3412(4) -0.5912(7)
C33F C -0.5000 0.3145(4) -0.6014(6)
C34F C -0.5000 0.3962(5) -0.5646(7)
C35F C -0.5000 0.4240(6) -0.5537(9)
C36F C -0.6852(2) 0.0443(2) -0.5466(2)
C37F C -0.5221(3) 0.3556(3) -0.5830(5)
H15F H -0.5390 0.3469 -0.5842
C38F C -0.5223(3) 0.3821(3) -0.5730(5)
H16F H -0.5391 0.3910 -0.5720
O4F O -0.5209(2) 0.4318(3) -0.5432(4)
O7F O -0.5000 0.47721(15) -0.54312(14)
O1EA O -0.32316(12) 0.02776(11) -0.52882(12)
O2EA O -0.47617(9) 0.24767(8) -0.92056(9)
O3EA O -0.28932(11) 0.05160(9) -0.55217(9)
C4EA C -0.47498(11) 0.17014(14) -0.64719(13)
C5EA C -0.46482(17) 0.17548(15) -0.62115(14)
H1EA H -0.4720 0.1899 -0.6109
C6EA C -0.44397(18) 0.15935(18) -0.61043(13)
H2EA H -0.4372 0.1629 -0.5930
C7EA C -0.43328(15) 0.13788(16) -0.62574(18)
C8EA C -0.44344(18) 0.13253(15) -0.65178(17)
H3EA H -0.4363 0.1182 -0.6620
C9EA C -0.46429(16) 0.14866(17) -0.66251(12)
H4EA H -0.4711 0.1451 -0.6799
C11EA C -0.37486(14) 0.09040(15) -0.59065(15)
C12EA C -0.38248(11) 0.07251(16) -0.56987(17)
H5EA H -0.4009 0.0703 -0.5654
C13EA C -0.36260(14) 0.05789(14) -0.55569(14)
H6EA H -0.3677 0.0459 -0.5418
C14EA C -0.33511(12) 0.06115(13) -0.56229(13)
C15EA C -0.32750(11) 0.07904(15) -0.58308(14)
H7EA H -0.3091 0.0812 -0.5875
C16EA C -0.34737(16) 0.09366(15) -0.59726(14)
H8EA H -0.3423 0.1056 -0.6112
C17EA C -0.3953(3) 0.1068(3) -0.6053(2)
C18EA C -0.47554(18) 0.2339(2) -0.86533(16)
H9EA H -0.4589 0.2362 -0.8743
C22EA C -0.4108(2) 0.1200(3) -0.6161(2)
C24EA C -0.47559(19) 0.2264(2) -0.83786(18)
H10EA H -0.4592 0.2223 -0.8291
C25EA C -0.52350(19) 0.1938(3) -0.70214(18)
H11EA H -0.5401 0.1917 -0.6931
C27EA C -0.5238(2) 0.2005(3) -0.7298(2)
H12EA H -0.5404 0.2024 -0.7388
C29EA C -0.5227(3) 0.2564(2) -0.6320(4)
H13EA H -0.5392 0.2659 -0.6327
C31EA C -0.5225(2) 0.2299(2) -0.6404(3)
H14EA H -0.5394 0.2215 -0.6432
C36EA C -0.3148(2) 0.0443(2) -0.5466(2)
C37EA C -0.4779(3) 0.3556(3) -0.5830(5)
H15EA H -0.4610 0.3469 -0.5842
C38EA C -0.4777(3) 0.3821(3) -0.5730(5)
H16EA H -0.4609 0.3910 -0.5720
O4EA O -0.4791(2) 0.4318(3) -0.5432(4)
O1H O -0.52882(12) 0.67684(12) -0.02776(11)
O2H O -0.92056(9) 0.52383(9) -0.24767(8)
O3H O -0.55217(9) 0.71068(11) -0.05160(9)
C1H C -0.6877(2) 0.5000 -0.1904(2)
C2H C -0.90954(18) 0.5000 -0.24506(18)
C3H C -0.8799(2) 0.5000 -0.2379(2)
C4H C -0.64719(13) 0.52502(11) -0.17014(14)
C5H C -0.62115(14) 0.53518(17) -0.17548(15)
H1H H -0.6109 0.5280 -0.1899
C6H C -0.61043(13) 0.55603(18) -0.15935(18)
H2H H -0.5930 0.5628 -0.1629
C7H C -0.62574(18) 0.56672(15) -0.13788(16)
C8H C -0.65178(17) 0.55656(18) -0.13253(15)
H3H H -0.6620 0.5637 -0.1182
C9H C -0.66251(12) 0.53571(16) -0.14866(17)
H4H H -0.6799 0.5289 -0.1451
C10H C -0.65655(15) 0.5000 -0.18744(19)
C11H C -0.59065(15) 0.62514(14) -0.09040(15)
C12H C -0.56987(17) 0.61752(11) -0.07251(16)
H5H H -0.5654 0.5991 -0.0703
C13H C -0.55569(14) 0.63740(14) -0.05789(14)
H6H H -0.5418 0.6323 -0.0459
C14H C -0.56229(13) 0.66489(12) -0.06115(13)
C15H C -0.58308(14) 0.67250(11) -0.07904(15)
H7H H -0.5875 0.6909 -0.0812
C16H C -0.59726(14) 0.65263(16) -0.09366(15)
H8H H -0.6112 0.6577 -0.1056
C17H C -0.6053(2) 0.6047(3) -0.1068(3)
C18H C -0.86533(16) 0.52446(18) -0.2339(2)
H9H H -0.8743 0.5411 -0.2362
C19H C -0.7966(3) 0.5000 -0.2158(4)
C20H C -0.8233(3) 0.5000 -0.2249(4)
C21H C -0.7442(3) 0.5000 -0.2043(4)
C22H C -0.6161(2) 0.5892(2) -0.1200(3)
C23H C -0.7736(3) 0.5000 -0.2103(3)
C24H C -0.83786(18) 0.52441(19) -0.2264(2)
H10H H -0.8291 0.5408 -0.2223
C25H C -0.70214(18) 0.47650(19) -0.1938(3)
H11H H -0.6931 0.4599 -0.1917
C26H C -0.64485(16) 0.5000 -0.2148(3)
C27H C -0.7298(2) 0.4762(2) -0.2005(3)
H12H H -0.7388 0.4596 -0.2024
C28H C -0.6226(5) 0.5000 -0.2700(4)
C29H C -0.6320(4) 0.4773(3) -0.2564(2)
H13H H -0.6327 0.4608 -0.2659
C30H C -0.6102(6) 0.5000 -0.2958(4)
C31H C -0.6404(3) 0.4775(2) -0.2299(2)
H14H H -0.6432 0.4606 -0.2215
C32H C -0.5912(7) 0.5000 -0.3412(4)
C33H C -0.6014(6) 0.5000 -0.3145(4)
C34H C -0.5646(7) 0.5000 -0.3962(5)
C35H C -0.5537(9) 0.5000 -0.4240(6)
C36H C -0.5466(2) 0.6852(2) -0.0443(2)
C37H C -0.5830(5) 0.5221(3) -0.3556(3)
H15H H -0.5842 0.5390 -0.3469
C38H C -0.5730(5) 0.5223(3) -0.3821(3)
H16H H -0.5720 0.5391 -0.3910
O4H O -0.5432(4) 0.5209(2) -0.4318(3)
O7H O -0.54312(14) 0.5000 -0.47721(15)
O1GA O -0.52882(12) 0.32316(12) -0.02776(11)
O2GA O -0.92056(9) 0.47617(9) -0.24767(8)
O3GA O -0.55217(9) 0.28932(11) -0.05160(9)
C4GA C -0.64719(13) 0.47498(11) -0.17014(14)
C5GA C -0.62115(14) 0.46482(17) -0.17548(15)
H1GA H -0.6109 0.4720 -0.1899
C6GA C -0.61043(13) 0.44397(18) -0.15935(18)
H2GA H -0.5930 0.4372 -0.1629
C7GA C -0.62574(18) 0.43328(15) -0.13788(16)
C8GA C -0.65178(17) 0.44344(18) -0.13253(15)
H3GA H -0.6620 0.4363 -0.1182
C9GA C -0.66251(12) 0.46429(16) -0.14866(17)
H4GA H -0.6799 0.4711 -0.1451
C11GA C -0.59065(15) 0.37486(14) -0.09040(15)
C12GA C -0.56987(17) 0.38248(11) -0.07251(16)
H5GA H -0.5654 0.4009 -0.0703
C13GA C -0.55569(14) 0.36260(14) -0.05789(14)
H6GA H -0.5418 0.3677 -0.0459
C14GA C -0.56229(13) 0.33511(12) -0.06115(13)
C15GA C -0.58308(14) 0.32750(11) -0.07904(15)
H7GA H -0.5875 0.3091 -0.0812
C16GA C -0.59726(14) 0.34737(16) -0.09366(15)
H8GA H -0.6112 0.3423 -0.1056
C17GA C -0.6053(2) 0.3953(3) -0.1068(3)
C18GA C -0.86533(16) 0.47554(18) -0.2339(2)
H9GA H -0.8743 0.4589 -0.2362
C22GA C -0.6161(2) 0.4108(2) -0.1200(3)
C24GA C -0.83786(18) 0.47559(19) -0.2264(2)
H10GA H -0.8291 0.4592 -0.2223
C25GA C -0.70214(18) 0.52350(19) -0.1938(3)
H11GA H -0.6931 0.5401 -0.1917
C27GA C -0.7298(2) 0.5238(2) -0.2005(3)
H12GA H -0.7388 0.5404 -0.2024
C29GA C -0.6320(4) 0.5227(3) -0.2564(2)
H13GA H -0.6327 0.5392 -0.2659
C31GA C -0.6404(3) 0.5225(2) -0.2299(2)
H14GA H -0.6432 0.5394 -0.2215
C36GA C -0.5466(2) 0.3148(2) -0.0443(2)
C37GA C -0.5830(5) 0.4779(3) -0.3556(3)
H15GA H -0.5842 0.4610 -0.3469
C38GA C -0.5730(5) 0.4777(3) -0.3821(3)
H16GA H -0.5720 0.4609 -0.3910
O4GA O -0.5432(4) 0.4791(2) -0.4318(3)
O1I O -0.47118(12) 0.67684(12) -0.97224(11)
O2I O -0.07944(9) 0.52383(9) -0.75233(8)
O3I O -0.44783(9) 0.71068(11) -0.94840(9)
C1I C -0.3123(2) 0.5000 -0.8096(2)
C2I C -0.09046(18) 0.5000 -0.75494(18)
C3I C -0.1201(2) 0.5000 -0.7621(2)
C4I C -0.35281(13) 0.52502(11) -0.82986(14)
C5I C -0.37885(14) 0.53518(17) -0.82452(15)
H1I H -0.3891 0.5280 -0.8101
C6I C -0.38957(13) 0.55603(18) -0.84065(18)
H2I H -0.4070 0.5628 -0.8371
C7I C -0.37426(18) 0.56672(15) -0.86212(16)
C8I C -0.34822(17) 0.55656(18) -0.86747(15)
H3I H -0.3380 0.5637 -0.8818
C9I C -0.33749(12) 0.53571(16) -0.85134(17)
H4I H -0.3201 0.5289 -0.8549
C10I C -0.34345(15) 0.5000 -0.81256(19)
C11I C -0.40935(15) 0.62514(14) -0.90960(15)
C12I C -0.43013(17) 0.61752(11) -0.92749(16)
H5I H -0.4346 0.5991 -0.9297
C13I C -0.44431(14) 0.63740(14) -0.94211(14)
H6I H -0.4582 0.6323 -0.9541
C14I C -0.43771(13) 0.66489(12) -0.93885(13)
C15I C -0.41692(14) 0.67250(11) -0.92096(15)
H7I H -0.4125 0.6909 -0.9188
C16I C -0.40274(14) 0.65263(16) -0.90634(15)
H8I H -0.3888 0.6577 -0.8944
C17I C -0.3947(2) 0.6047(3) -0.8932(3)
C18I C -0.13467(16) 0.52446(18) -0.7661(2)
H9I H -0.1257 0.5411 -0.7638
C19I C -0.2034(3) 0.5000 -0.7842(4)
C20I C -0.1767(3) 0.5000 -0.7751(4)
C21I C -0.2558(3) 0.5000 -0.7957(4)
C22I C -0.3839(2) 0.5892(2) -0.8800(3)
C23I C -0.2264(3) 0.5000 -0.7897(3)
C24I C -0.16214(18) 0.52441(19) -0.7736(2)
H10I H -0.1709 0.5408 -0.7777
C25I C -0.29786(18) 0.47650(19) -0.8062(3)
H11I H -0.3069 0.4599 -0.8083
C26I C -0.35515(16) 0.5000 -0.7852(3)
C27I C -0.2702(2) 0.4762(2) -0.7995(3)
H12I H -0.2612 0.4596 -0.7976
C28I C -0.3774(5) 0.5000 -0.7300(4)
C29I C -0.3680(4) 0.4773(3) -0.7436(2)
H13I H -0.3673 0.4608 -0.7341
C30I C -0.3898(6) 0.5000 -0.7042(4)
C31I C -0.3596(3) 0.4775(2) -0.7701(2)
H14I H -0.3568 0.4606 -0.7785
C32I C -0.4088(7) 0.5000 -0.6588(4)
C33I C -0.3986(6) 0.5000 -0.6855(4)
C34I C -0.4354(7) 0.5000 -0.6038(5)
C35I C -0.4463(9) 0.5000 -0.5760(6)
C36I C -0.4534(2) 0.6852(2) -0.9557(2)
C37I C -0.4170(5) 0.5221(3) -0.6444(3)
H15I H -0.4158 0.5390 -0.6531
C38I C -0.4270(5) 0.5223(3) -0.6179(3)
H16I H -0.4280 0.5391 -0.6090
O4I O -0.4568(4) 0.5209(2) -0.5682(3)
O7I O -0.45688(14) 0.5000 -0.52279(15)
O1FA O -0.47118(12) 0.32316(12) -0.97224(11)
O2FA O -0.07944(9) 0.47617(9) -0.75233(8)
O3FA O -0.44783(9) 0.28932(11) -0.94840(9)
C4FA C -0.35281(13) 0.47498(11) -0.82986(14)
C5FA C -0.37885(14) 0.46482(17) -0.82452(15)
H1FA H -0.3891 0.4720 -0.8101
C6FA C -0.38957(13) 0.44397(18) -0.84065(18)
H2FA H -0.4070 0.4372 -0.8371
C7FA C -0.37426(18) 0.43328(15) -0.86212(16)
C8FA C -0.34822(17) 0.44344(18) -0.86747(15)
H3FA H -0.3380 0.4363 -0.8818
C9FA C -0.33749(12) 0.46429(16) -0.85134(17)
H4FA H -0.3201 0.4711 -0.8549
C11FA C -0.40935(15) 0.37486(14) -0.90960(15)
C12FA C -0.43013(17) 0.38248(11) -0.92749(16)
H5FA H -0.4346 0.4009 -0.9297
C13FA C -0.44431(14) 0.36260(14) -0.94211(14)
H6FA H -0.4582 0.3677 -0.9541
C14FA C -0.43771(13) 0.33511(12) -0.93885(13)
C15FA C -0.41692(14) 0.32750(11) -0.92096(15)
H7FA H -0.4125 0.3091 -0.9188
C16FA C -0.40274(14) 0.34737(16) -0.90634(15)
H8FA H -0.3888 0.3423 -0.8944
C17FA C -0.3947(2) 0.3953(3) -0.8932(3)
C18FA C -0.13467(16) 0.47554(18) -0.7661(2)
H9FA H -0.1257 0.4589 -0.7638
C22FA C -0.3839(2) 0.4108(2) -0.8800(3)
C24FA C -0.16214(18) 0.47559(19) -0.7736(2)
H10FA H -0.1709 0.4592 -0.7777
C25FA C -0.29786(18) 0.52350(19) -0.8062(3)
H11FA H -0.3069 0.5401 -0.8083
C27FA C -0.2702(2) 0.5238(2) -0.7995(3)
H12FA H -0.2612 0.5404 -0.7976
C29FA C -0.3680(4) 0.5227(3) -0.7436(2)
H13FA H -0.3673 0.5392 -0.7341
C31FA C -0.3596(3) 0.5225(2) -0.7701(2)
H14FA H -0.3568 0.5394 -0.7785
C36FA C -0.4534(2) 0.3148(2) -0.9557(2)
C37FA C -0.4170(5) 0.4779(3) -0.6444(3)
H15FA H -0.4158 0.4610 -0.6531
C38FA C -0.4270(5) 0.4777(3) -0.6179(3)
H16FA H -0.4280 0.4609 -0.6090
O4FA O -0.4568(4) 0.4791(2) -0.5682(3)
Zr1K Zr -0.035731(10) 0.464269(10) -0.2500
Zr1Y Zr -0.2500 0.035731(10) -0.535731(10)
Zr1Z Zr -0.2500 -0.035731(10) -0.464269(10)
Zr2A Zr -0.69952(2) 0.0000 -0.5000
O7B O -0.52279(15) 0.45688(14) -0.5000
O5Q O -0.22192(10) 0.0000 -0.45954(9)
O6Q O -0.22830(10) 0.03103(10) -0.5000
O5R O -0.22192(10) 0.0000 -0.54046(9)
O6R O -0.22830(10) -0.03103(10) -0.5000
O5L O -0.45954(9) 0.22192(10) 0.0000
O6L O -0.5000 0.22830(10) -0.03103(10)
Zr3Y Zr -0.47224(5) 0.47224(5) -0.47224(5)
Zr2H Zr 0.0000 0.5000 -0.30048(2)
Zr3Z Zr -0.47224(5) -0.47224(5) -0.52776(5)
Zr1B Zr -0.7500 0.035731(10) -0.535731(10)
Zr1D Zr -0.464269(10) 0.7500 -0.964269(10)
Zr1F Zr -0.535731(10) 0.2500 -0.964269(10)
Zr1G Zr -0.535731(10) 0.7500 -0.035731(10)
Zr1H Zr -0.964269(10) 0.535731(10) -0.2500
Zr1I Zr -0.035731(10) -0.464269(10) -0.7500
Zr1I_2 Zr -0.035731(10) 0.535731(10) -0.7500
Zr1AA Zr -0.7500 0.035731(10) -0.464269(10)
Zr1BA Zr -0.535731(10) 0.2500 -0.035731(10)
Zr1EA Zr -0.464269(10) 0.2500 -0.964269(10)
Zr1EA_2 Zr -0.464269(10) 0.2500 0.035731(10)
Zr1FA Zr -0.035731(10) 0.464269(10) -0.7500
Zr1GA Zr -0.964269(10) 0.464269(10) -0.2500
Zr1HA Zr -0.035731(10) -0.464269(10) -0.2500
Zr2D Zr -0.5000 0.69952(2) -1.0000
Zr2D_2 Zr -0.5000 0.69952(2) 0.0000
Zr2E Zr -0.5000 0.30048(2) -1.0000
Zr2E_2 Zr -0.5000 0.30048(2) 0.0000
Zr2H_2 Zr -0.0000 -0.5000 -0.30048(2)
Zr2I Zr 0.0000 -0.5000 -0.69952(2)
Zr2I_2 Zr 0.0000 0.5000 -0.69952(2)
Zr2L Zr -0.5000 0.19952(2) 0.0000
Zr2Q Zr -0.19952(2) 0.0000 -0.5000
Zr3C Zr -0.47224(5) -0.47224(5) -0.47224(5)
Zr3X Zr -0.52776(5) 0.52776(5) -0.47224(5)
Zr3Z_2 Zr -0.47224(5) 0.52776(5) -0.52776(5)
Zr3AA Zr -0.52776(5) 0.47224(5) -0.52776(5)
O1A O 0.02776(11) 0.52882(12) -0.32316(12)
O1D O -0.32316(12) -0.02776(11) -0.52882(12)
O1G O -0.67684(12) -0.02776(11) -0.47118(12)
O1Z_2 O -0.02776(11) 0.52882(12) -0.32316(12)
O1AA O 0.02776(11) 0.47118(12) -0.32316(12)
O1CA O -0.67684(12) -0.02776(11) -0.52882(12)
O1DA O -0.32316(12) -0.02776(11) -0.47118(12)
O2K O -0.07944(9) 0.47617(9) -0.24767(8)
O2L O -0.42056(9) 0.25233(8) -0.02383(9)
O2Q O -0.25233(8) 0.02383(9) -0.42056(9)
O2R O -0.25233(8) -0.02383(9) -0.57944(9)
O2W O -0.02383(9) 0.42056(9) -0.25233(8)
O2NA O -0.25233(8) -0.02383(9) -0.42056(9)
O2QA O -0.25233(8) 0.02383(9) -0.57944(9)
O3D O -0.28932(11) -0.05160(9) -0.55217(9)
O3K O -0.44783(9) 0.28932(11) -0.05160(9)
O3L O -0.05217(9) 0.44840(9) -0.21068(11)
O3Q O -0.44840(9) 0.21068(11) -0.05217(9)
O3V O -0.21068(11) -0.05217(9) -0.55160(9)
O3W O -0.21068(11) 0.05217(9) -0.44840(9)
O3DA O -0.28932(11) -0.05160(9) -0.44783(9)
O3RA O -0.21068(11) 0.05217(9) -0.55160(9)
O3SA O -0.21068(11) -0.05217(9) -0.44840(9)
O4D O -0.4791(2) -0.4318(3) -0.5432(4)
O4I_2 O -0.4568(4) -0.4791(2) -0.5682(3)
O4K O -0.4568(4) 0.4791(2) -0.4318(3)
O4AA O -0.5682(3) 0.4568(4) -0.4791(2)
O5A O -0.72192(10) -0.04046(9) -0.5000
O5B O -0.72192(10) 0.04046(9) -0.5000
O5H O 0.04046(9) 0.5000 -0.27808(10)
O5K O -0.04046(9) 0.5000 -0.27808(10)
O5W O -0.0000 0.45954(9) -0.22192(10)
O6A O -0.72830(10) 0.0000 -0.46897(10)
O6B O -0.72830(10) 0.0000 -0.53103(10)
O6H O -0.0000 0.53103(10) -0.27170(10)
O6K O -0.0000 0.46897(10) -0.27170(10)
O6W O -0.03103(10) 0.5000 -0.22830(10)
O7C O -0.47721(15) -0.45688(14) -0.5000
O7D O -0.5000 -0.47721(15) -0.54312(14)
O7I_2 O -0.45688(14) -0.5000 -0.52279(15)
O7K O -0.45688(14) 0.5000 -0.47721(15)
loop_
_geom_bond_atom_site_label_1
_geom_bond_atom_site_label_2
_geom_bond_site_symmetry_1
_geom_bond_site_symmetry_2
Zr1 O2 1_555 1_555
Zr2 O5 1_555 1_555
Zr3 O7 1_555 1_555
O1 C36 1_555 1_555
O2 C2 1_555 1_555
O3 C36 1_555 1_555
C1 C10 1_555 1_555
C2 C3 1_555 1_555
C3 C18 1_555 1_555
C4 C5 1_555 1_555
C5 H1 1_555 1_555
C6 C5 1_555 1_555
H2 C6 1_555 1_555
C7 C6 1_555 1_555
C8 C7 1_555 1_555
H3 C8 1_555 1_555
C9 C4 1_555 1_555
H4 C9 1_555 1_555
C10 C4 1_555 1_555
C11 C12 1_555 1_555
C12 H5 1_555 1_555
C13 C12 1_555 1_555
H6 C13 1_555 1_555
C14 C13 1_555 1_555
C15 C14 1_555 1_555
H7 C15 1_555 1_555
C16 C11 1_555 1_555
H8 C16 1_555 1_555
C17 C11 1_555 1_555
C18 H9 1_555 1_555
C19 C20 1_555 1_555
C20 C24 1_555 1_555
C21 C23 1_555 1_555
C22 C7 1_555 1_555
C23 C19 1_555 1_555
C24 C18 1_555 1_555
H10 C24 1_555 1_555
C25 C1 1_555 1_555
H11 C25 1_555 1_555
C26 C10 1_555 1_555
C27 C21 1_555 1_555
H12 C27 1_555 1_555
C28 C29 1_555 1_555
C29 H13 1_555 1_555
C30 C28 1_555 1_555
C31 C26 1_555 1_555
H14 C31 1_555 1_555
C32 C33 1_555 1_555
C33 C30 1_555 1_555
C34 C35 1_555 1_555
C35 O4 1_555 1_555
C36 C14 1_555 1_555
C37 C32 1_555 1_555
H15 C37 1_555 1_555
C38 C34 1_555 1_555
H16 C38 1_555 1_555
O4 Zr3Y 1_555 1_555
O5 Zr1 1_555 1_555
O6 Zr1 1_555 1_555
O7 Zr3Y 1_555 1_555
O1Y C36Y 1_555 1_555
O2Y C2 1_555 1_555
O3Y C36Y 1_555 1_555
C4Y C10 1_555 1_555
C5Y C4Y 1_555 1_555
H1Y C5Y 1_555 1_555
C6Y C5Y 1_555 1_555
H2Y C6Y 1_555 1_555
C7Y C6Y 1_555 1_555
C8Y C7Y 1_555 1_555
H3Y C8Y 1_555 1_555
C9Y C4Y 1_555 1_555
H4Y C9Y 1_555 1_555
C11Y C12Y 1_555 1_555
C12Y H5Y 1_555 1_555
C13Y C12Y 1_555 1_555
H6Y C13Y 1_555 1_555
C14Y C13Y 1_555 1_555
C15Y C14Y 1_555 1_555
H7Y C15Y 1_555 1_555
C16Y C11Y 1_555 1_555
H8Y C16Y 1_555 1_555
C17Y C11Y 1_555 1_555
C18Y C3 1_555 1_555
H9Y C18Y 1_555 1_555
C22Y C7Y 1_555 1_555
C24Y C20 1_555 1_555
H10Y C24Y 1_555 1_555
C25Y C1 1_555 1_555
H11Y C25Y 1_555 1_555
C27Y C21 1_555 1_555
H12Y C27Y 1_555 1_555
C29Y C28 1_555 1_555
H13Y C29Y 1_555 1_555
C31Y C26 1_555 1_555
H14Y C31Y 1_555 1_555
C36Y C14Y 1_555 1_555
C37Y C32 1_555 1_555
H15Y C37Y 1_555 1_555
C38Y C34 1_555 1_555
H16Y C38Y 1_555 1_555
O4Y Zr3 1_555 1_555
Zr1C O2C 1_555 1_555
O1C C36C 1_555 1_555
O2C C2C 1_555 1_555
O3C C36C 1_555 1_555
C1C C10C 1_555 1_555
C2C C3C 1_555 1_555
C3C C18C 1_555 1_555
C4C C5C 1_555 1_555
C5C H1C 1_555 1_555
C6C C5C 1_555 1_555
H2C C6C 1_555 1_555
C7C C6C 1_555 1_555
C8C C7C 1_555 1_555
H3C C8C 1_555 1_555
C9C C4C 1_555 1_555
H4C C9C 1_555 1_555
C10C C4C 1_555 1_555
C11C C12C 1_555 1_555
C12C H5C 1_555 1_555
C13C C12C 1_555 1_555
H6C C13C 1_555 1_555
C14C C13C 1_555 1_555
C15C C14C 1_555 1_555
H7C C15C 1_555 1_555
C16C C11C 1_555 1_555
H8C C16C 1_555 1_555
C17C C11C 1_555 1_555
C18C H9C 1_555 1_555
C19C C20C 1_555 1_555
C20C C24C 1_555 1_555
C21C C23C 1_555 1_555
C22C C7C 1_555 1_555
C23C C19C 1_555 1_555
C24C C18C 1_555 1_555
H10C C24C 1_555 1_555
C25C C1C 1_555 1_555
H11C C25C 1_555 1_555
C26C C10C 1_555 1_555
C27C C21C 1_555 1_555
H12C C27C 1_555 1_555
C28C C29C 1_555 1_555
C29C H13C 1_555 1_555
C30C C28C 1_555 1_555
C31C C26C 1_555 1_555
H14C C31C 1_555 1_555
C32C C33C 1_555 1_555
C33C C30C 1_555 1_555
C34C C35C 1_555 1_555
C35C O4C 1_555 1_555
C36C C14C 1_555 1_555
C37C C32C 1_555 1_555
H15C C37C 1_555 1_555
C38C C34C 1_555 1_555
H16C C38C 1_555 1_555
O4C Zr3Z 1_555 1_555
O5C Zr2 1_555 1_555
O6C Zr2 1_555 1_555
O1Z C36Z 1_555 1_555
O2Z C2C 1_555 1_555
O3Z C36Z 1_555 1_555
C4Z C10C 1_555 1_555
C5Z C4Z 1_555 1_555
H1Z C5Z 1_555 1_555
C6Z C5Z 1_555 1_555
H2Z C6Z 1_555 1_555
C7Z C6Z 1_555 1_555
C8Z C7Z 1_555 1_555
H3Z C8Z 1_555 1_555
C9Z C4Z 1_555 1_555
H4Z C9Z 1_555 1_555
C11Z C12Z 1_555 1_555
C12Z H5Z 1_555 1_555
C13Z C12Z 1_555 1_555
H6Z C13Z 1_555 1_555
C14Z C13Z 1_555 1_555
C15Z C14Z 1_555 1_555
H7Z C15Z 1_555 1_555
C16Z C11Z 1_555 1_555
H8Z C16Z 1_555 1_555
C17Z C11Z 1_555 1_555
C18Z C3C 1_555 1_555
H9Z C18Z 1_555 1_555
C22Z C7Z 1_555 1_555
C24Z C20C 1_555 1_555
H10Z C24Z 1_555 1_555
C25Z C1C 1_555 1_555
H11Z C25Z 1_555 1_555
C27Z C21C 1_555 1_555
H12Z C27Z 1_555 1_555
C29Z C28C 1_555 1_555
H13Z C29Z 1_555 1_555
C31Z C26C 1_555 1_555
H14Z C31Z 1_555 1_555
C36Z C14Z 1_555 1_555
C37Z C32C 1_555 1_555
H15Z C37Z 1_555 1_555
C38Z C34C 1_555 1_555
H16Z C38Z 1_555 1_555
O4Z C35C 1_555 1_555
Zr1E O2E 1_555 1_555
Zr3B O7E 1_555 1_555
O1E Zr2 1_555 1_555
O2E C2E 1_555 1_555
O3E Zr1 1_555 1_555
C1E C10E 1_555 1_555
C2E C3E 1_555 1_555
C3E C18E 1_555 1_555
C4E C5E 1_555 1_555
C5E H1E 1_555 1_555
C6E C5E 1_555 1_555
H2E C6E 1_555 1_555
C7E C6E 1_555 1_555
C8E C7E 1_555 1_555
H3E C8E 1_555 1_555
C9E C4E 1_555 1_555
H4E C9E 1_555 1_555
C10E C4E 1_555 1_555
C11E C12E 1_555 1_555
C12E H5E 1_555 1_555
C13E C12E 1_555 1_555
H6E C13E 1_555 1_555
C14E C13E 1_555 1_555
C15E C14E 1_555 1_555
H7E C15E 1_555 1_555
C16E C11E 1_555 1_555
H8E C16E 1_555 1_555
C17E C11E 1_555 1_555
C18E H9E 1_555 1_555
C19E C20E 1_555 1_555
C20E C24E 1_555 1_555
C21E C23E 1_555 1_555
C22E C7E 1_555 1_555
C23E C19E 1_555 1_555
C24E C18E 1_555 1_555
H10E C24E 1_555 1_555
C25E C1E 1_555 1_555
H11E C25E 1_555 1_555
C26E C10E 1_555 1_555
C27E C21E 1_555 1_555
H12E C27E 1_555 1_555
C28E C29E 1_555 1_555
C29E H13E 1_555 1_555
C30E C28E 1_555 1_555
C31E C26E 1_555 1_555
H14E C31E 1_555 1_555
C32E C33E 1_555 1_555
C33E C30E 1_555 1_555
C34E C35E 1_555 1_555
C35E O4E 1_555 1_555
C36E O1E 1_555 1_555
C37E C32E 1_555 1_555
H15E C37E 1_555 1_555
C38E C34E 1_555 1_555
H16E C38E 1_555 1_555
O4E Zr3Y 1_555 1_555
O5E Zr1E 1_555 1_555
O6E Zr1E 1_555 1_555
O7E Zr3Y 1_555 1_555
O1BA C36BA 1_555 1_555
O2BA C2E 1_555 1_555
O3BA C36BA 1_555 1_555
C4BA C10E 1_555 1_555
C5BA C4BA 1_555 1_555
H1BA C5BA 1_555 1_555
C6BA C5BA 1_555 1_555
H2BA C6BA 1_555 1_555
C7BA C6BA 1_555 1_555
C8BA C7BA 1_555 1_555
H3BA C8BA 1_555 1_555
C9BA C4BA 1_555 1_555
H4BA C9BA 1_555 1_555
C11BA C12BA 1_555 1_555
C12BA H5BA 1_555 1_555
C13BA C12BA 1_555 1_555
H6BA C13BA 1_555 1_555
C14BA C13BA 1_555 1_555
C15BA C14BA 1_555 1_555
H7BA C15BA 1_555 1_555
C16BA C11BA 1_555 1_555
H8BA C16BA 1_555 1_555
C17BA C11BA 1_555 1_555
C18BA C3E 1_555 1_555
H9BA C18BA 1_555 1_555
C22BA C7BA 1_555 1_555
C24BA C20E 1_555 1_555
H10BA C24BA 1_555 1_555
C25BA C1E 1_555 1_555
H11BA C25BA 1_555 1_555
C27BA C21E 1_555 1_555
H12BA C27BA 1_555 1_555
C29BA C28E 1_555 1_555
H13BA C29BA 1_555 1_555
C31BA C26E 1_555 1_555
H14BA C31BA 1_555 1_555
C36BA C14BA 1_555 1_555
C37BA C32E 1_555 1_555
H15BA C37BA 1_555 1_555
C38BA C34E 1_555 1_555
H16BA C38BA 1_555 1_555
O4BA Zr3B 1_555 1_555
O1F C36F 1_555 1_555
O2F C2F 1_555 1_555
O3F C36F 1_555 1_555
C1F C10F 1_555 1_555
C2F C3F 1_555 1_555
C3F C18F 1_555 1_555
C4F C5F 1_555 1_555
C5F H1F 1_555 1_555
C6F C5F 1_555 1_555
H2F C6F 1_555 1_555
C7F C6F 1_555 1_555
C8F C7F 1_555 1_555
H3F C8F 1_555 1_555
C9F C4F 1_555 1_555
H4F C9F 1_555 1_555
C10F C4F 1_555 1_555
C11F C12F 1_555 1_555
C12F H5F 1_555 1_555
C13F C12F 1_555 1_555
H6F C13F 1_555 1_555
C14F C13F 1_555 1_555
C15F C14F 1_555 1_555
H7F C15F 1_555 1_555
C16F C11F 1_555 1_555
H8F C16F 1_555 1_555
C17F C11F 1_555 1_555
C18F H9F 1_555 1_555
C19F C20F 1_555 1_555
C20F C24F 1_555 1_555
C21F C23F 1_555 1_555
C22F C7F 1_555 1_555
C23F C19F 1_555 1_555
C24F C18F 1_555 1_555
H10F C24F 1_555 1_555
C25F C1F 1_555 1_555
H11F C25F 1_555 1_555
C26F C10F 1_555 1_555
C27F C21F 1_555 1_555
H12F C27F 1_555 1_555
C28F C29F 1_555 1_555
C29F H13F 1_555 1_555
C30F C28F 1_555 1_555
C31F C26F 1_555 1_555
H14F C31F 1_555 1_555
C32F C33F 1_555 1_555
C33F C30F 1_555 1_555
C34F C35F 1_555 1_555
C35F O4F 1_555 1_555
C36F C14F 1_555 1_555
C37F C32F 1_555 1_555
H15F C37F 1_555 1_555
C38F C34F 1_555 1_555
H16F C38F 1_555 1_555
O4F Zr3AA 1_555 1_555
O7F Zr3 1_555 1_555
O1EA Zr2 1_555 1_555
O2EA C2F 1_555 1_555
O3EA C36EA 1_555 1_555
C4EA C10F 1_555 1_555
C5EA C4EA 1_555 1_555
H1EA C5EA 1_555 1_555
C6EA C5EA 1_555 1_555
H2EA C6EA 1_555 1_555
C7EA C6EA 1_555 1_555
C8EA C7EA 1_555 1_555
H3EA C8EA 1_555 1_555
C9EA C4EA 1_555 1_555
H4EA C9EA 1_555 1_555
C11EA C12EA 1_555 1_555
C12EA H5EA 1_555 1_555
C13EA C12EA 1_555 1_555
H6EA C13EA 1_555 1_555
C14EA C13EA 1_555 1_555
C15EA C14EA 1_555 1_555
H7EA C15EA 1_555 1_555
C16EA C11EA 1_555 1_555
H8EA C16EA 1_555 1_555
C17EA C11EA 1_555 1_555
C18EA C3F 1_555 1_555
H9EA C18EA 1_555 1_555
C22EA C7EA 1_555 1_555
C24EA C20F 1_555 1_555
H10EA C24EA 1_555 1_555
C25EA C1F 1_555 1_555
H11EA C25EA 1_555 1_555
C27EA C21F 1_555 1_555
H12EA C27EA 1_555 1_555
C29EA C28F 1_555 1_555
H13EA C29EA 1_555 1_555
C31EA C26F 1_555 1_555
H14EA C31EA 1_555 1_555
C36EA O1EA 1_555 1_555
C37EA C32F 1_555 1_555
H15EA C37EA 1_555 1_555
C38EA C34F 1_555 1_555
H16EA C38EA 1_555 1_555
O4EA Zr3 1_555 1_555
O1H C36H 1_555 1_555
O2H C2H 1_555 1_555
O3H C36H 1_555 1_555
C1H C10H 1_555 1_555
C2H C3H 1_555 1_555
C3H C18H 1_555 1_555
C4H C5H 1_555 1_555
C5H H1H 1_555 1_555
C6H C5H 1_555 1_555
H2H C6H 1_555 1_555
C7H C6H 1_555 1_555
C8H C7H 1_555 1_555
H3H C8H 1_555 1_555
C9H C4H 1_555 1_555
H4H C9H 1_555 1_555
C10H C4H 1_555 1_555
C11H C12H 1_555 1_555
C12H H5H 1_555 1_555
C13H C12H 1_555 1_555
H6H C13H 1_555 1_555
C14H C13H 1_555 1_555
C15H C14H 1_555 1_555
H7H C15H 1_555 1_555
C16H C11H 1_555 1_555
H8H C16H 1_555 1_555
C17H C11H 1_555 1_555
C18H H9H 1_555 1_555
C19H C20H 1_555 1_555
C20H C24H 1_555 1_555
C21H C23H 1_555 1_555
C22H C7H 1_555 1_555
C23H C19H 1_555 1_555
C24H C18H 1_555 1_555
H10H C24H 1_555 1_555
C25H C1H 1_555 1_555
H11H C25H 1_555 1_555
C26H C10H 1_555 1_555
C27H C21H 1_555 1_555
H12H C27H 1_555 1_555
C28H C29H 1_555 1_555
C29H H13H 1_555 1_555
C30H C28H 1_555 1_555
C31H C26H 1_555 1_555
H14H C31H 1_555 1_555
C32H C33H 1_555 1_555
C33H C30H 1_555 1_555
C34H C35H 1_555 1_555
C35H O4H 1_555 1_555
C36H C14H 1_555 1_555
C37H C32H 1_555 1_555
H15H C37H 1_555 1_555
C38H C34H 1_555 1_555
H16H C38H 1_555 1_555
O4H Zr3X 1_555 1_555
O7H Zr3B 1_555 1_555
O1GA C36GA 1_555 1_555
O2GA C2H 1_555 1_555
O3GA C36GA 1_555 1_555
C4GA C10H 1_555 1_555
C5GA C4GA 1_555 1_555
H1GA C5GA 1_555 1_555
C6GA C5GA 1_555 1_555
H2GA C6GA 1_555 1_555
C7GA C6GA 1_555 1_555
C8GA C7GA 1_555 1_555
H3GA C8GA 1_555 1_555
C9GA C4GA 1_555 1_555
H4GA C9GA 1_555 1_555
C11GA C12GA 1_555 1_555
C12GA H5GA 1_555 1_555
C13GA C12GA 1_555 1_555
H6GA C13GA 1_555 1_555
C14GA C13GA 1_555 1_555
C15GA C14GA 1_555 1_555
H7GA C15GA 1_555 1_555
C16GA C11GA 1_555 1_555
H8GA C16GA 1_555 1_555
C17GA C11GA 1_555 1_555
C18GA C3H 1_555 1_555
H9GA C18GA 1_555 1_555
C22GA C7GA 1_555 1_555
C24GA C20H 1_555 1_555
H10GA C24GA 1_555 1_555
C25GA C1H 1_555 1_555
H11GA C25GA 1_555 1_555
C27GA C21H 1_555 1_555
H12GA C27GA 1_555 1_555
C29GA C28H 1_555 1_555
H13GA C29GA 1_555 1_555
C31GA C26H 1_555 1_555
H14GA C31GA 1_555 1_555
C36GA C14GA 1_555 1_555
C37GA C32H 1_555 1_555
H15GA C37GA 1_555 1_555
C38GA C34H 1_555 1_555
H16GA C38GA 1_555 1_555
O4GA Zr3B 1_555 1_555
O1I C36I 1_555 1_555
O2I C2I 1_555 1_555
O3I C36I 1_555 1_555
C1I C10I 1_555 1_555
C2I C3I 1_555 1_555
C3I C18I 1_555 1_555
C4I C5I 1_555 1_555
C5I H1I 1_555 1_555
C6I C5I 1_555 1_555
H2I C6I 1_555 1_555
C7I C6I 1_555 1_555
C8I C7I 1_555 1_555
H3I C8I 1_555 1_555
C9I C4I 1_555 1_555
H4I C9I 1_555 1_555
C10I C4I 1_555 1_555
C11I C12I 1_555 1_555
C12I H5I 1_555 1_555
C13I C12I 1_555 1_555
H6I C13I 1_555 1_555
C14I C13I 1_555 1_555
C15I C14I 1_555 1_555
H7I C15I 1_555 1_555
C16I C11I 1_555 1_555
H8I C16I 1_555 1_555
C17I C11I 1_555 1_555
C18I H9I 1_555 1_555
C19I C20I 1_555 1_555
C20I C24I 1_555 1_555
C21I C23I 1_555 1_555
C22I C7I 1_555 1_555
C23I C19I 1_555 1_555
C24I C18I 1_555 1_555
H10I C24I 1_555 1_555
C25I C1I 1_555 1_555
H11I C25I 1_555 1_555
C26I C10I 1_555 1_555
C27I C21I 1_555 1_555
H12I C27I 1_555 1_555
C28I C29I 1_555 1_555
C29I H13I 1_555 1_555
C30I C28I 1_555 1_555
C31I C26I 1_555 1_555
H14I C31I 1_555 1_555
C32I C33I 1_555 1_555
C33I C30I 1_555 1_555
C34I C35I 1_555 1_555
C35I O4I 1_555 1_555
C36I C14I 1_555 1_555
C37I C32I 1_555 1_555
H15I C37I 1_555 1_555
C38I C34I 1_555 1_555
H16I C38I 1_555 1_555
O4I Zr3Z_2 1_555 1_555
O7I Zr3 1_555 1_555
O1FA C36FA 1_555 1_555
O2FA C2I 1_555 1_555
O3FA C36FA 1_555 1_555
C4FA C10I 1_555 1_555
C5FA C4FA 1_555 1_555
H1FA C5FA 1_555 1_555
C6FA C5FA 1_555 1_555
H2FA C6FA 1_555 1_555
C7FA C6FA 1_555 1_555
C8FA C7FA 1_555 1_555
H3FA C8FA 1_555 1_555
C9FA C4FA 1_555 1_555
H4FA C9FA 1_555 1_555
C11FA C12FA 1_555 1_555
C12FA H5FA 1_555 1_555
C13FA C12FA 1_555 1_555
H6FA C13FA 1_555 1_555
C14FA C13FA 1_555 1_555
C15FA C14FA 1_555 1_555
H7FA C15FA 1_555 1_555
C16FA C11FA 1_555 1_555
H8FA C16FA 1_555 1_555
C17FA C11FA 1_555 1_555
C18FA C3I 1_555 1_555
H9FA C18FA 1_555 1_555
C22FA C7FA 1_555 1_555
C24FA C20I 1_555 1_555
H10FA C24FA 1_555 1_555
C25FA C1I 1_555 1_555
H11FA C25FA 1_555 1_555
C27FA C21I 1_555 1_555
H12FA C27FA 1_555 1_555
C29FA C28I 1_555 1_555
H13FA C29FA 1_555 1_555
C31FA C26I 1_555 1_555
H14FA C31FA 1_555 1_555
C36FA C14FA 1_555 1_555
C37FA C32I 1_555 1_555
H15FA C37FA 1_555 1_555
C38FA C34I 1_555 1_555
H16FA C38FA 1_555 1_555
O4FA Zr3 1_555 1_555
Zr1K O3 1_555 1_555
Zr1Y O5 1_555 1_555
Zr1Z O6 1_555 1_555
Zr2A O1BA 1_555 1_555
O7B Zr3B 1_555 1_555
O5Q Zr1 1_555 1_555
O6Q Zr1 1_555 1_555
O5R Zr1C 1_555 1_555
O6R Zr1C 1_555 1_555
O5L Zr1E 1_555 1_555
O6L Zr1E 1_555 1_555
Zr3Y O4K 1_555 1_555
Zr2H O1 1_555 1_555
Zr3Z O4D 1_555 1_555
Zr1B O3F 1_555 1_555
Zr1D O3I 1_555 1_555
Zr1F O2F 1_555 1_555
Zr1G O3H 1_555 1_555
Zr1H O2H 1_555 1_555
Zr1I O3C 1_555 1_555
Zr1I_2 O2I 1_555 1_555
Zr1AA O3BA 1_555 1_555
Zr1BA O5E 1_555 1_555
Zr1EA O2EA 1_555 1_555
Zr1EA_2 O6E 1_555 1_555
Zr1FA O3Y 1_555 1_555
Zr1GA O2GA 1_555 1_555
Zr1HA O3Z 1_555 1_555
Zr2D O1I 1_555 1_555
Zr2D_2 O1H 1_555 1_555
Zr2E O1FA 1_555 1_555
Zr2E_2 O5E 1_555 1_555
Zr2H_2 O1Z 1_555 1_555
Zr2I O1C 1_555 1_555
Zr2I_2 O1Y 1_555 1_555
Zr2L O5L 1_555 1_555
Zr2Q O5Q 1_555 1_555
Zr3C O4Z 1_555 1_555
Zr3X O7H 1_555 1_555
Zr3Z_2 O7I 1_555 1_555
Zr3AA O7F 1_555 1_555
O1A Zr2H 1_555 1_555
O1D Zr2 1_555 1_555
O1G Zr2A 1_555 1_555
O1Z_2 Zr2H 1_555 1_555
O1AA Zr2H 1_555 1_555
O1CA Zr2A 1_555 1_555
O1DA Zr2 1_555 1_555
O2K Zr1K 1_555 1_555
O2L Zr1E 1_555 1_555
O2Q Zr1 1_555 1_555
O2R Zr1C 1_555 1_555
O2W Zr1K 1_555 1_555
O2NA Zr1Z 1_555 1_555
O2QA Zr1Y 1_555 1_555
O3D Zr1C 1_555 1_555
O3K Zr1E 1_555 1_555
O3L Zr1K 1_555 1_555
O3Q Zr1E 1_555 1_555
O3V Zr1C 1_555 1_555
O3W Zr1 1_555 1_555
O3DA Zr1Z 1_555 1_555
O3RA Zr1Y 1_555 1_555
O3SA Zr1Z 1_555 1_555
O4I_2 Zr3Z 1_555 1_555
O4AA Zr3B 1_555 1_555
O5A Zr2A 1_555 1_555
O5B Zr2A 1_555 1_555
O5H Zr2H 1_555 1_555
O5K Zr1K 1_555 1_555
O5W Zr1K 1_555 1_555
O6A Zr2A 1_555 1_555
O6B Zr2A 1_555 1_555
O6H Zr2H 1_555 1_555
O6K Zr1K 1_555 1_555
O6W Zr1K 1_555 1_555
O7C Zr3Z 1_555 1_555
O7D Zr3Z 1_555 1_555
O7I_2 Zr3Z 1_555 1_555
O7K Zr3Y 1_555 1_555
Zr2 O6 1_555 1_555
C8 C9 1_555 1_555
C15 C16 1_555 1_555
C17 C22 1_555 1_555
C25 C27 1_555 1_555
C29 C31 1_555 1_555
C35 O4Y 1_555 1_555
C37 C38 1_555 1_555
O2Y Zr1Y 1_555 1_555
C8Y C9Y 1_555 1_555
C15Y C16Y 1_555 1_555
C17Y C22Y 1_555 1_555
C18Y C24Y 1_555 1_555
C25Y C27Y 1_555 1_555
C29Y C31Y 1_555 1_555
C37Y C38Y 1_555 1_555
Zr1C O5C 1_555 1_555
Zr1C O6C 1_555 1_555
C8C C9C 1_555 1_555
C15C C16C 1_555 1_555
C17C C22C 1_555 1_555
C25C C27C 1_555 1_555
C29C C31C 1_555 1_555
C37C C38C 1_555 1_555
O5C Zr1Z 1_555 1_555
O6C Zr1Y 1_555 1_555
O2Z Zr1Z 1_555 1_555
C8Z C9Z 1_555 1_555
C15Z C16Z 1_555 1_555
C17Z C22Z 1_555 1_555
C18Z C24Z 1_555 1_555
C25Z C27Z 1_555 1_555
C29Z C31Z 1_555 1_555
C37Z C38Z 1_555 1_555
O3E C36E 1_555 1_555
C8E C9E 1_555 1_555
C14E C36E 1_555 1_555
C15E C16E 1_555 1_555
C17E C22E 1_555 1_555
C25E C27E 1_555 1_555
C29E C31E 1_555 1_555
C35E O4BA 1_555 1_555
C37E C38E 1_555 1_555
O6E Zr2E_2 1_555 1_555
O2BA Zr1BA 1_555 1_555
C8BA C9BA 1_555 1_555
C15BA C16BA 1_555 1_555
C17BA C22BA 1_555 1_555
C18BA C24BA 1_555 1_555
C25BA C27BA 1_555 1_555
C29BA C31BA 1_555 1_555
C37BA C38BA 1_555 1_555
O1F Zr2A 1_555 1_555
C8F C9F 1_555 1_555
C15F C16F 1_555 1_555
C17F C22F 1_555 1_555
C25F C27F 1_555 1_555
C29F C31F 1_555 1_555
C35F O4EA 1_555 1_555
C37F C38F 1_555 1_555
O3EA Zr1Y 1_555 1_555
C8EA C9EA 1_555 1_555
C14EA C36EA 1_555 1_555
C15EA C16EA 1_555 1_555
C17EA C22EA 1_555 1_555
C18EA C24EA 1_555 1_555
C25EA C27EA 1_555 1_555
C29EA C31EA 1_555 1_555
C37EA C38EA 1_555 1_555
C8H C9H 1_555 1_555
C15H C16H 1_555 1_555
C17H C22H 1_555 1_555
C25H C27H 1_555 1_555
C29H C31H 1_555 1_555
C35H O4GA 1_555 1_555
C37H C38H 1_555 1_555
O1GA Zr2E_2 1_555 1_555
O3GA Zr1BA 1_555 1_555
C8GA C9GA 1_555 1_555
C15GA C16GA 1_555 1_555
C17GA C22GA 1_555 1_555
C18GA C24GA 1_555 1_555
C25GA C27GA 1_555 1_555
C29GA C31GA 1_555 1_555
C37GA C38GA 1_555 1_555
C8I C9I 1_555 1_555
C15I C16I 1_555 1_555
C17I C22I 1_555 1_555
C25I C27I 1_555 1_555
C29I C31I 1_555 1_555
C35I O4FA 1_555 1_555
C37I C38I 1_555 1_555
O2FA Zr1FA 1_555 1_555
O3FA Zr1EA 1_555 1_555
C8FA C9FA 1_555 1_555
C15FA C16FA 1_555 1_555
C17FA C22FA 1_555 1_555
C18FA C24FA 1_555 1_555
C25FA C27FA 1_555 1_555
C29FA C31FA 1_555 1_555
C37FA C38FA 1_555 1_555
Zr1Y O6Q 1_555 1_555
Zr1Y O5R 1_555 1_555
Zr1Z O5Q 1_555 1_555
Zr1Z O6R 1_555 1_555
O7B Zr3AA 1_555 1_555
O6Q Zr2Q 1_555 1_555
O5R Zr2Q 1_555 1_555
O6R Zr2Q 1_555 1_555
O5L Zr1EA_2 1_555 1_555
O6L Zr1BA 1_555 1_555
O6L Zr2L 1_555 1_555
Zr2H O5K 1_555 1_555
Zr2H O6K 1_555 1_555
Zr1B O5B 1_555 1_555
Zr1B O6B 1_555 1_555
Zr1AA O5B 1_555 1_555
Zr1AA O6A 1_555 1_555
Zr3C O7C 1_555 1_555

#END
