
#######################################################################
#
#                 Cambridge Crystallographic Data Centre
#                                CCDC 
#
#######################################################################
#
# If this CIF has been generated from an entry in the Cambridge 
# Structural Database, then it will include bibliographic, chemical, 
# crystal, experimental, refinement or atomic coordinate data resulting 
# from the CCDC's data processing and validation procedures.
#
#######################################################################

data_ARUJAA
_chemical_formula_moiety         'C360 H96 B6 F96 O104 Zr40'
_symmetry_cell_setting           cubic
_symmetry_space_group_name_H-M   'P m -3 n'
_symmetry_Int_Tables_number      223
_space_group_name_Hall           '-P 4n 2 3'
loop_
_symmetry_equiv_pos_site_id
_symmetry_equiv_pos_as_xyz
1 x,y,z
2 -x,-y,z
3 -x,y,-z
4 x,-y,-z
5 z,x,y
6 z,-x,-y
7 -z,-x,y
8 -z,x,-y
9 y,z,x
10 -y,z,-x
11 y,-z,-x
12 -y,-z,x
13 1/2+y,1/2+x,1/2-z
14 1/2-y,1/2-x,1/2-z
15 1/2+y,1/2-x,1/2+z
16 1/2-y,1/2+x,1/2+z
17 1/2+x,1/2+z,1/2-y
18 1/2-x,1/2+z,1/2+y
19 1/2-x,1/2-z,1/2-y
20 1/2+x,1/2-z,1/2+y
21 1/2+z,1/2+y,1/2-x
22 1/2+z,1/2-y,1/2+x
23 1/2-z,1/2+y,1/2+x
24 1/2-z,1/2-y,1/2-x
25 -x,-y,-z
26 x,y,-z
27 x,-y,z
28 -x,y,z
29 -z,-x,-y
30 -z,x,y
31 z,x,-y
32 z,-x,y
33 -y,-z,-x
34 y,-z,x
35 -y,z,x
36 y,z,-x
37 1/2-y,1/2-x,1/2+z
38 1/2+y,1/2+x,1/2+z
39 1/2-y,1/2+x,1/2-z
40 1/2+y,1/2-x,1/2-z
41 1/2-x,1/2-z,1/2+y
42 1/2+x,1/2-z,1/2-y
43 1/2+x,1/2+z,1/2+y
44 1/2-x,1/2+z,1/2-y
45 1/2-z,1/2-y,1/2+x
46 1/2-z,1/2+y,1/2-x
47 1/2+z,1/2-y,1/2-x
48 1/2+z,1/2+y,1/2+x
_cell_length_a                   49.365(3)
_cell_length_b                   49.365(3)
_cell_length_c                   49.365(3)
_cell_angle_alpha                90
_cell_angle_beta                 90
_cell_angle_gamma                90
_cell_volume                     120298
loop_
_atom_site_label
_atom_site_type_symbol
_atom_site_fract_x
_atom_site_fract_y
_atom_site_fract_z
Zr1 Zr 0.2500 0.464397(16) -0.035603(16)
O1 O 0.22216(17) 0.46032(17) 0.0000
O2 O 0.27268(18) 0.46781(17) 0.0000
O3 O 0.21111(18) 0.44804(17) -0.05269(15)
O4 O 0.02423(17) 0.25187(16) -0.42023(15)
Zr2 Zr 0.19962(4) 0.5000 0.0000
C1 C 0.1869(3) 0.4540(4) -0.0462(4)
C2 C 0.0000 0.2529(4) -0.4093(5)
O5 O 0.17675(18) 0.47244(16) -0.02887(18)
C3 C 0.16540(19) 0.4405(2) -0.0622(2)
C4 C 0.0000 0.2617(4) -0.3789(4)
C5 C 0.17235(18) 0.4218(3) -0.0821(2)
C6 C 0.1384(2) 0.4445(2) -0.0555(2)
C7 C -0.0259(3) 0.2660(4) -0.3652(3)
H1 H 0.1904 0.4192 -0.0867
C8 C 0.1523(3) 0.4071(2) -0.0953(2)
C9 C 0.11826(17) 0.4298(3) -0.0686(3)
H2 H 0.1337 0.4569 -0.0421
H3 H -0.0423 0.2656 -0.3746
C10 C -0.0250(3) 0.2707(5) -0.3377(3)
H4 H 0.1569 0.3947 -0.1086
C11 C 0.1252(2) 0.4111(2) -0.0885(3)
H5 H 0.1002 0.4324 -0.0641
H6 H -0.0409 0.2722 -0.3277
C12 C 0.0000 0.2732(6) -0.3249(4)
C13 C 0.1043(4) 0.3948(4) -0.1016(4)
C14 C 0.0000 0.2783(7) -0.2963(4)
C15 C 0.0876(4) 0.3810(4) -0.1118(5)
C16 C 0.0000 0.2856(5) -0.2732(4)
C17 C 0.0666(2) 0.3630(3) -0.1228(3)
C18 C 0.0000 0.2937(6) -0.2481(5)
C19 C 0.0568(3) 0.3683(2) -0.1486(3)
C20 C 0.0561(3) 0.3416(3) -0.1079(2)
C21 C -0.0219(4) 0.2952(5) -0.2308(4)
C22 C 0.0364(3) 0.3522(3) -0.1596(2)
F1 F 0.0658(4) 0.3883(4) -0.1633(3)
C23 C 0.0358(3) 0.3254(2) -0.1188(2)
F2 F 0.0675(5) 0.3390(5) -0.0841(3)
C24 C -0.0228(3) 0.3025(4) -0.2040(3)
F3 F -0.0453(3) 0.2937(5) -0.2454(3)
C25 C 0.02595(19) 0.3307(2) -0.1446(2)
F4 F 0.0277(4) 0.3566(3) -0.1826(3)
F5 F 0.0258(6) 0.3090(6) -0.1040(3)
C26 C -0.0000 0.3068(4) -0.1886(3)
F6 F -0.0461(2) 0.3077(5) -0.1915(3)
B1 B 0.0000 0.3127(4) -0.1557(3)
C27 C -0.0000 0.2838(4) -0.1476(5)
C28 C 0.0213(3) 0.2668(3) -0.1427(4)
C29 C 0.0213(3) 0.2404(4) -0.1351(5)
F7 F 0.0459(3) 0.2797(3) -0.1428(6)
C30 C 0.0000 0.2243(5) -0.1291(7)
F8 F 0.0451(4) 0.2263(3) -0.1310(5)
C31 C 0.0000 0.1981(5) -0.1151(6)
C32 C -0.0000 0.1791(7) -0.1000(9)
C33 C 0.0000 0.1529(6) -0.0857(11)
C34 C -0.0236(4) 0.1379(4) -0.0863(7)
H7 H -0.0389 0.1439 -0.0954
C35 C -0.0232(3) 0.1134(5) -0.0726(7)
H8 H -0.0398 0.1052 -0.0688
C36 C -0.0000 0.1005(6) -0.0643(12)
C37 C -0.0000 0.0726(5) -0.0532(9)
O6 O -0.0198(7) 0.0703(9) -0.0400(7)
Zr3 Zr -0.02701(6) 0.02701(6) -0.02701(6)
O7 O 0.0000 0.0178(8) -0.0434(6)
O3AA O -0.21111(18) 0.44804(17) -0.05269(15)
O4AA O -0.02423(17) 0.25187(16) -0.42023(15)
C1AA C -0.1869(3) 0.4540(4) -0.0462(4)
O5AA O -0.17675(18) 0.47244(16) -0.02887(18)
C3AA C -0.16540(19) 0.4405(2) -0.0622(2)
C5AA C -0.17235(18) 0.4218(3) -0.0821(2)
C6AA C -0.1384(2) 0.4445(2) -0.0555(2)
C7AA C 0.0259(3) 0.2660(4) -0.3652(3)
H1AA H -0.1904 0.4192 -0.0867
C8AA C -0.1523(3) 0.4071(2) -0.0953(2)
C9AA C -0.11826(17) 0.4298(3) -0.0686(3)
H2AA H -0.1337 0.4569 -0.0421
H3AA H 0.0423 0.2656 -0.3746
C10AA C 0.0250(3) 0.2707(5) -0.3377(3)
H4AA H -0.1569 0.3947 -0.1086
C11AA C -0.1252(2) 0.4111(2) -0.0885(3)
H5AA H -0.1002 0.4324 -0.0641
H6AA H 0.0409 0.2722 -0.3277
C13AA C -0.1043(4) 0.3948(4) -0.1016(4)
C15AA C -0.0876(4) 0.3810(4) -0.1118(5)
C17AA C -0.0666(2) 0.3630(3) -0.1228(3)
C19AA C -0.0568(3) 0.3683(2) -0.1486(3)
C20AA C -0.0561(3) 0.3416(3) -0.1079(2)
C21AA C 0.0219(4) 0.2952(5) -0.2308(4)
C22AA C -0.0364(3) 0.3522(3) -0.1596(2)
F1AA F -0.0658(4) 0.3883(4) -0.1633(3)
C23AA C -0.0358(3) 0.3254(2) -0.1188(2)
F2AA F -0.0675(5) 0.3390(5) -0.0841(3)
C24AA C 0.0228(3) 0.3025(4) -0.2040(3)
F3AA F 0.0453(3) 0.2937(5) -0.2454(3)
C25AA C -0.02595(19) 0.3307(2) -0.1446(2)
F4AA F -0.0277(4) 0.3566(3) -0.1826(3)
F5AA F -0.0258(6) 0.3090(6) -0.1040(3)
F6AA F 0.0461(2) 0.3077(5) -0.1915(3)
C28AA C -0.0213(3) 0.2668(3) -0.1427(4)
C29AA C -0.0213(3) 0.2404(4) -0.1351(5)
F7AA F -0.0459(3) 0.2797(3) -0.1428(6)
F8AA F -0.0451(4) 0.2263(3) -0.1310(5)
C34AA C 0.0236(4) 0.1379(4) -0.0863(7)
H7AA H 0.0389 0.1439 -0.0954
C35AA C 0.0232(3) 0.1134(5) -0.0726(7)
H8AA H 0.0398 0.1052 -0.0688
O6AA O 0.0198(7) 0.0703(9) -0.0400(7)
O1A O -0.22216(17) 0.53968(17) 0.0000
O3A O -0.21111(18) 0.55196(17) -0.05269(15)
O4A O -0.02423(17) 0.74813(16) -0.42023(15)
Zr2A Zr -0.19962(4) 0.5000 0.0000
C1A C -0.1869(3) 0.5460(4) -0.0462(4)
C2A C -0.0000 0.7471(4) -0.4093(5)
O5A O -0.17675(18) 0.52756(16) -0.02887(18)
C3A C -0.16540(19) 0.5595(2) -0.0622(2)
C4A C -0.0000 0.7383(4) -0.3789(4)
C5A C -0.17235(18) 0.5782(3) -0.0821(2)
C6A C -0.1384(2) 0.5555(2) -0.0555(2)
C7A C 0.0259(3) 0.7340(4) -0.3652(3)
H1A H -0.1904 0.5808 -0.0867
C8A C -0.1523(3) 0.5929(2) -0.0953(2)
C9A C -0.11826(17) 0.5702(3) -0.0686(3)
H2A H -0.1337 0.5431 -0.0421
H3A H 0.0423 0.7344 -0.3746
C10A C 0.0250(3) 0.7293(5) -0.3377(3)
H4A H -0.1569 0.6053 -0.1086
C11A C -0.1252(2) 0.5889(2) -0.0885(3)
H5A H -0.1002 0.5676 -0.0641
H6A H 0.0409 0.7278 -0.3277
C12A C 0.0000 0.7268(6) -0.3249(4)
C13A C -0.1043(4) 0.6052(4) -0.1016(4)
C14A C -0.0000 0.7217(7) -0.2963(4)
C15A C -0.0876(4) 0.6190(4) -0.1118(5)
C16A C -0.0000 0.7144(5) -0.2732(4)
C17A C -0.0666(2) 0.6370(3) -0.1228(3)
C18A C 0.0000 0.7063(6) -0.2481(5)
C19A C -0.0568(3) 0.6317(2) -0.1486(3)
C20A C -0.0561(3) 0.6584(3) -0.1079(2)
C21A C 0.0219(4) 0.7048(5) -0.2308(4)
C22A C -0.0364(3) 0.6478(3) -0.1596(2)
F1A F -0.0658(4) 0.6117(4) -0.1633(3)
C23A C -0.0358(3) 0.6746(2) -0.1188(2)
F2A F -0.0675(5) 0.6610(5) -0.0841(3)
C24A C 0.0228(3) 0.6975(4) -0.2040(3)
F3A F 0.0453(3) 0.7063(5) -0.2454(3)
C25A C -0.02595(19) 0.6693(2) -0.1446(2)
F4A F -0.0277(4) 0.6434(3) -0.1826(3)
F5A F -0.0258(6) 0.6910(6) -0.1040(3)
C26A C -0.0000 0.6932(4) -0.1886(3)
F6A F 0.0461(2) 0.6923(5) -0.1915(3)
B1A B 0.0000 0.6873(4) -0.1557(3)
C27A C 0.0000 0.7162(4) -0.1476(5)
C28A C -0.0213(3) 0.7332(3) -0.1427(4)
C29A C -0.0213(3) 0.7596(4) -0.1351(5)
F7A F -0.0459(3) 0.7203(3) -0.1428(6)
C30A C 0.0000 0.7757(5) -0.1291(7)
F8A F -0.0451(4) 0.7737(3) -0.1310(5)
C31A C 0.0000 0.8019(5) -0.1151(6)
C32A C -0.0000 0.8209(7) -0.1000(9)
C33A C 0.0000 0.8471(6) -0.0857(11)
C34A C 0.0236(4) 0.8621(4) -0.0863(7)
H7A H 0.0389 0.8561 -0.0954
C35A C 0.0232(3) 0.8866(5) -0.0726(7)
H8A H 0.0398 0.8948 -0.0688
C36A C -0.0000 0.8995(6) -0.0643(12)
C37A C 0.0000 0.9274(5) -0.0532(9)
O6A O 0.0198(7) 0.9297(9) -0.0400(7)
O3Z O 0.21111(18) 0.55196(17) -0.05269(15)
O4Z O 0.02423(17) 0.74813(16) -0.42023(15)
C1Z C 0.1869(3) 0.5460(4) -0.0462(4)
O5Z O 0.17675(18) 0.52756(16) -0.02887(18)
C3Z C 0.16540(19) 0.5595(2) -0.0622(2)
C5Z C 0.17235(18) 0.5782(3) -0.0821(2)
C6Z C 0.1384(2) 0.5555(2) -0.0555(2)
C7Z C -0.0259(3) 0.7340(4) -0.3652(3)
H1Z H 0.1904 0.5808 -0.0867
C8Z C 0.1523(3) 0.5929(2) -0.0953(2)
C9Z C 0.11826(17) 0.5702(3) -0.0686(3)
H2Z H 0.1337 0.5431 -0.0421
H3Z H -0.0423 0.7344 -0.3746
C10Z C -0.0250(3) 0.7293(5) -0.3377(3)
H4Z H 0.1569 0.6053 -0.1086
C11Z C 0.1252(2) 0.5889(2) -0.0885(3)
H5Z H 0.1002 0.5676 -0.0641
H6Z H -0.0409 0.7278 -0.3277
C13Z C 0.1043(4) 0.6052(4) -0.1016(4)
C15Z C 0.0876(4) 0.6190(4) -0.1118(5)
C17Z C 0.0666(2) 0.6370(3) -0.1228(3)
C19Z C 0.0568(3) 0.6317(2) -0.1486(3)
C20Z C 0.0561(3) 0.6584(3) -0.1079(2)
C21Z C -0.0219(4) 0.7048(5) -0.2308(4)
C22Z C 0.0364(3) 0.6478(3) -0.1596(2)
F1Z F 0.0658(4) 0.6117(4) -0.1633(3)
C23Z C 0.0358(3) 0.6746(2) -0.1188(2)
F2Z F 0.0675(5) 0.6610(5) -0.0841(3)
C24Z C -0.0228(3) 0.6975(4) -0.2040(3)
F3Z F -0.0453(3) 0.7063(5) -0.2454(3)
C25Z C 0.02595(19) 0.6693(2) -0.1446(2)
F4Z F 0.0277(4) 0.6434(3) -0.1826(3)
F5Z F 0.0258(6) 0.6910(6) -0.1040(3)
F6Z F -0.0461(2) 0.6923(5) -0.1915(3)
C28Z C 0.0213(3) 0.7332(3) -0.1427(4)
C29Z C 0.0213(3) 0.7596(4) -0.1351(5)
F7Z F 0.0459(3) 0.7203(3) -0.1428(6)
F8Z F 0.0451(4) 0.7737(3) -0.1310(5)
C34Z C -0.0236(4) 0.8621(4) -0.0863(7)
H7Z H -0.0389 0.8561 -0.0954
C35Z C -0.0232(3) 0.8866(5) -0.0726(7)
H8Z H -0.0398 0.8948 -0.0688
O6Z O -0.0198(7) 0.9297(9) -0.0400(7)
O1B O -0.22216(17) 0.46032(17) 0.0000
O3B O -0.21111(18) 0.44804(17) 0.05269(15)
O4B O -0.02423(17) 0.25187(16) 0.42023(15)
C1B C -0.1869(3) 0.4540(4) 0.0462(4)
C2B C -0.0000 0.2529(4) 0.4093(5)
O5B O -0.17675(18) 0.47244(16) 0.02887(18)
C3B C -0.16540(19) 0.4405(2) 0.0622(2)
C4B C 0.0000 0.2617(4) 0.3789(4)
C5B C -0.17235(18) 0.4218(3) 0.0821(2)
C6B C -0.1384(2) 0.4445(2) 0.0555(2)
C7B C 0.0259(3) 0.2660(4) 0.3652(3)
H1B H -0.1904 0.4192 0.0867
C8B C -0.1523(3) 0.4071(2) 0.0953(2)
C9B C -0.11826(17) 0.4298(3) 0.0686(3)
H2B H -0.1337 0.4569 0.0421
H3B H 0.0423 0.2656 0.3746
C10B C 0.0250(3) 0.2707(5) 0.3377(3)
H4B H -0.1569 0.3947 0.1086
C11B C -0.1252(2) 0.4111(2) 0.0885(3)
H5B H -0.1002 0.4324 0.0641
H6B H 0.0409 0.2722 0.3277
C12B C -0.0000 0.2732(6) 0.3249(4)
C13B C -0.1043(4) 0.3948(4) 0.1016(4)
C14B C -0.0000 0.2783(7) 0.2963(4)
C15B C -0.0876(4) 0.3810(4) 0.1118(5)
C16B C -0.0000 0.2856(5) 0.2732(4)
C17B C -0.0666(2) 0.3630(3) 0.1228(3)
C18B C -0.0000 0.2937(6) 0.2481(5)
C19B C -0.0568(3) 0.3683(2) 0.1486(3)
C20B C -0.0561(3) 0.3416(3) 0.1079(2)
C21B C 0.0219(4) 0.2952(5) 0.2308(4)
C22B C -0.0364(3) 0.3522(3) 0.1596(2)
F1B F -0.0658(4) 0.3883(4) 0.1633(3)
C23B C -0.0358(3) 0.3254(2) 0.1188(2)
F2B F -0.0675(5) 0.3390(5) 0.0841(3)
C24B C 0.0228(3) 0.3025(4) 0.2040(3)
F3B F 0.0453(3) 0.2937(5) 0.2454(3)
C25B C -0.02595(19) 0.3307(2) 0.1446(2)
F4B F -0.0277(4) 0.3566(3) 0.1826(3)
F5B F -0.0258(6) 0.3090(6) 0.1040(3)
C26B C 0.0000 0.3068(4) 0.1886(3)
F6B F 0.0461(2) 0.3077(5) 0.1915(3)
B1B B 0.0000 0.3127(4) 0.1557(3)
C27B C 0.0000 0.2838(4) 0.1476(5)
C28B C -0.0213(3) 0.2668(3) 0.1427(4)
C29B C -0.0213(3) 0.2404(4) 0.1351(5)
F7B F -0.0459(3) 0.2797(3) 0.1428(6)
C30B C -0.0000 0.2243(5) 0.1291(7)
F8B F -0.0451(4) 0.2263(3) 0.1310(5)
C31B C -0.0000 0.1981(5) 0.1151(6)
C32B C -0.0000 0.1791(7) 0.1000(9)
C33B C 0.0000 0.1529(6) 0.0857(11)
C34B C 0.0236(4) 0.1379(4) 0.0863(7)
H7B H 0.0389 0.1439 0.0954
C35B C 0.0232(3) 0.1134(5) 0.0726(7)
H8B H 0.0398 0.1052 0.0688
C36B C -0.0000 0.1005(6) 0.0643(12)
C37B C -0.0000 0.0726(5) 0.0532(9)
O6B O 0.0198(7) 0.0703(9) 0.0400(7)
Zr3B Zr 0.02701(6) 0.02701(6) 0.02701(6)
O7B O 0.0000 0.0178(8) 0.0434(6)
O3Y O 0.21111(18) 0.44804(17) 0.05269(15)
O4Y O 0.02423(17) 0.25187(16) 0.42023(15)
C1Y C 0.1869(3) 0.4540(4) 0.0462(4)
O5Y O 0.17675(18) 0.47244(16) 0.02887(18)
C3Y C 0.16540(19) 0.4405(2) 0.0622(2)
C5Y C 0.17235(18) 0.4218(3) 0.0821(2)
C6Y C 0.1384(2) 0.4445(2) 0.0555(2)
C7Y C -0.0259(3) 0.2660(4) 0.3652(3)
H1Y H 0.1904 0.4192 0.0867
C8Y C 0.1523(3) 0.4071(2) 0.0953(2)
C9Y C 0.11826(17) 0.4298(3) 0.0686(3)
H2Y H 0.1337 0.4569 0.0421
H3Y H -0.0423 0.2656 0.3746
C10Y C -0.0250(3) 0.2707(5) 0.3377(3)
H4Y H 0.1569 0.3947 0.1086
C11Y C 0.1252(2) 0.4111(2) 0.0885(3)
H5Y H 0.1002 0.4324 0.0641
H6Y H -0.0409 0.2722 0.3277
C13Y C 0.1043(4) 0.3948(4) 0.1016(4)
C15Y C 0.0876(4) 0.3810(4) 0.1118(5)
C17Y C 0.0666(2) 0.3630(3) 0.1228(3)
C19Y C 0.0568(3) 0.3683(2) 0.1486(3)
C20Y C 0.0561(3) 0.3416(3) 0.1079(2)
C21Y C -0.0219(4) 0.2952(5) 0.2308(4)
C22Y C 0.0364(3) 0.3522(3) 0.1596(2)
F1Y F 0.0658(4) 0.3883(4) 0.1633(3)
C23Y C 0.0358(3) 0.3254(2) 0.1188(2)
F2Y F 0.0675(5) 0.3390(5) 0.0841(3)
C24Y C -0.0228(3) 0.3025(4) 0.2040(3)
F3Y F -0.0453(3) 0.2937(5) 0.2454(3)
C25Y C 0.02595(19) 0.3307(2) 0.1446(2)
F4Y F 0.0277(4) 0.3566(3) 0.1826(3)
F5Y F 0.0258(6) 0.3090(6) 0.1040(3)
F6Y F -0.0461(2) 0.3077(5) 0.1915(3)
C28Y C 0.0213(3) 0.2668(3) 0.1427(4)
C29Y C 0.0213(3) 0.2404(4) 0.1351(5)
F7Y F 0.0459(3) 0.2797(3) 0.1428(6)
F8Y F 0.0451(4) 0.2263(3) 0.1310(5)
C34Y C -0.0236(4) 0.1379(4) 0.0863(7)
H7Y H -0.0389 0.1439 0.0954
C35Y C -0.0232(3) 0.1134(5) 0.0726(7)
H8Y H -0.0398 0.1052 0.0688
O6Y O -0.0198(7) 0.0703(9) 0.0400(7)
Zr1C Zr 0.2500 0.535603(16) 0.035603(16)
O1C O 0.22216(17) 0.53968(17) 0.0000
O2C O 0.27268(18) 0.53219(17) 0.0000
O3C O 0.21111(18) 0.55196(17) 0.05269(15)
O4C O 0.02423(17) 0.74813(16) 0.42023(15)
C1C C 0.1869(3) 0.5460(4) 0.0462(4)
C2C C -0.0000 0.7471(4) 0.4093(5)
O5C O 0.17675(18) 0.52756(16) 0.02887(18)
C3C C 0.16540(19) 0.5595(2) 0.0622(2)
C4C C 0.0000 0.7383(4) 0.3789(4)
C5C C 0.17235(18) 0.5782(3) 0.0821(2)
C6C C 0.1384(2) 0.5555(2) 0.0555(2)
C7C C -0.0259(3) 0.7340(4) 0.3652(3)
H1C H 0.1904 0.5808 0.0867
C8C C 0.1523(3) 0.5929(2) 0.0953(2)
C9C C 0.11826(17) 0.5702(3) 0.0686(3)
H2C H 0.1337 0.5431 0.0421
H3C H -0.0423 0.7344 0.3746
C10C C -0.0250(3) 0.7293(5) 0.3377(3)
H4C H 0.1569 0.6053 0.1086
C11C C 0.1252(2) 0.5889(2) 0.0885(3)
H5C H 0.1002 0.5676 0.0641
H6C H -0.0409 0.7278 0.3277
C12C C -0.0000 0.7268(6) 0.3249(4)
C13C C 0.1043(4) 0.6052(4) 0.1016(4)
C14C C -0.0000 0.7217(7) 0.2963(4)
C15C C 0.0876(4) 0.6190(4) 0.1118(5)
C16C C 0.0000 0.7144(5) 0.2732(4)
C17C C 0.0666(2) 0.6370(3) 0.1228(3)
C18C C -0.0000 0.7063(6) 0.2481(5)
C19C C 0.0568(3) 0.6317(2) 0.1486(3)
C20C C 0.0561(3) 0.6584(3) 0.1079(2)
C21C C -0.0219(4) 0.7048(5) 0.2308(4)
C22C C 0.0364(3) 0.6478(3) 0.1596(2)
F1C F 0.0658(4) 0.6117(4) 0.1633(3)
C23C C 0.0358(3) 0.6746(2) 0.1188(2)
F2C F 0.0675(5) 0.6610(5) 0.0841(3)
C24C C -0.0228(3) 0.6975(4) 0.2040(3)
F3C F -0.0453(3) 0.7063(5) 0.2454(3)
C25C C 0.02595(19) 0.6693(2) 0.1446(2)
F4C F 0.0277(4) 0.6434(3) 0.1826(3)
F5C F 0.0258(6) 0.6910(6) 0.1040(3)
C26C C 0.0000 0.6932(4) 0.1886(3)
F6C F -0.0461(2) 0.6923(5) 0.1915(3)
B1C B -0.0000 0.6873(4) 0.1557(3)
C27C C 0.0000 0.7162(4) 0.1476(5)
C28C C 0.0213(3) 0.7332(3) 0.1427(4)
C29C C 0.0213(3) 0.7596(4) 0.1351(5)
F7C F 0.0459(3) 0.7203(3) 0.1428(6)
C30C C 0.0000 0.7757(5) 0.1291(7)
F8C F 0.0451(4) 0.7737(3) 0.1310(5)
C31C C 0.0000 0.8019(5) 0.1151(6)
C32C C 0.0000 0.8209(7) 0.1000(9)
C33C C 0.0000 0.8471(6) 0.0857(11)
C34C C -0.0236(4) 0.8621(4) 0.0863(7)
H7C H -0.0389 0.8561 0.0954
C35C C -0.0232(3) 0.8866(5) 0.0726(7)
H8C H -0.0398 0.8948 0.0688
C36C C -0.0000 0.8995(6) 0.0643(12)
C37C C -0.0000 0.9274(5) 0.0532(9)
O6C O -0.0198(7) 0.9297(9) 0.0400(7)
O3X O -0.21111(18) 0.55196(17) 0.05269(15)
O4X O -0.02423(17) 0.74813(16) 0.42023(15)
C1X C -0.1869(3) 0.5460(4) 0.0462(4)
O5X O -0.17675(18) 0.52756(16) 0.02887(18)
C3X C -0.16540(19) 0.5595(2) 0.0622(2)
C5X C -0.17235(18) 0.5782(3) 0.0821(2)
C6X C -0.1384(2) 0.5555(2) 0.0555(2)
C7X C 0.0259(3) 0.7340(4) 0.3652(3)
H1X H -0.1904 0.5808 0.0867
C8X C -0.1523(3) 0.5929(2) 0.0953(2)
C9X C -0.11826(17) 0.5702(3) 0.0686(3)
H2X H -0.1337 0.5431 0.0421
H3X H 0.0423 0.7344 0.3746
C10X C 0.0250(3) 0.7293(5) 0.3377(3)
H4X H -0.1569 0.6053 0.1086
C11X C -0.1252(2) 0.5889(2) 0.0885(3)
H5X H -0.1002 0.5676 0.0641
H6X H 0.0409 0.7278 0.3277
C13X C -0.1043(4) 0.6052(4) 0.1016(4)
C15X C -0.0876(4) 0.6190(4) 0.1118(5)
C17X C -0.0666(2) 0.6370(3) 0.1228(3)
C19X C -0.0568(3) 0.6317(2) 0.1486(3)
C20X C -0.0561(3) 0.6584(3) 0.1079(2)
C21X C 0.0219(4) 0.7048(5) 0.2308(4)
C22X C -0.0364(3) 0.6478(3) 0.1596(2)
F1X F -0.0658(4) 0.6117(4) 0.1633(3)
C23X C -0.0358(3) 0.6746(2) 0.1188(2)
F2X F -0.0675(5) 0.6610(5) 0.0841(3)
C24X C 0.0228(3) 0.6975(4) 0.2040(3)
F3X F 0.0453(3) 0.7063(5) 0.2454(3)
C25X C -0.02595(19) 0.6693(2) 0.1446(2)
F4X F -0.0277(4) 0.6434(3) 0.1826(3)
F5X F -0.0258(6) 0.6910(6) 0.1040(3)
F6X F 0.0461(2) 0.6923(5) 0.1915(3)
C28X C -0.0213(3) 0.7332(3) 0.1427(4)
C29X C -0.0213(3) 0.7596(4) 0.1351(5)
F7X F -0.0459(3) 0.7203(3) 0.1428(6)
F8X F -0.0451(4) 0.7737(3) 0.1310(5)
C34X C 0.0236(4) 0.8621(4) 0.0863(7)
H7X H 0.0389 0.8561 0.0954
C35X C 0.0232(3) 0.8866(5) 0.0726(7)
H8X H 0.0398 0.8948 0.0688
O6X O 0.0198(7) 0.9297(9) 0.0400(7)
O3E O -0.05269(15) -0.21111(18) -0.44804(17)
O4E O -0.42023(15) -0.02423(17) -0.25187(16)
C1E C -0.0462(4) -0.1869(3) -0.4540(4)
C2E C -0.4093(5) 0.0000 -0.2529(4)
O5E O -0.02887(18) -0.17675(18) -0.47244(16)
C3E C -0.0622(2) -0.16540(19) -0.4405(2)
C4E C -0.3789(4) 0.0000 -0.2617(4)
C5E C -0.0821(2) -0.17235(18) -0.4218(3)
C6E C -0.0555(2) -0.1384(2) -0.4445(2)
C7E C -0.3652(3) 0.0259(3) -0.2660(4)
H1E H -0.0867 -0.1904 -0.4192
C8E C -0.0953(2) -0.1523(3) -0.4071(2)
C9E C -0.0686(3) -0.11826(17) -0.4298(3)
H2E H -0.0421 -0.1337 -0.4569
H3E H -0.3746 0.0423 -0.2656
C10E C -0.3377(3) 0.0250(3) -0.2707(5)
H4E H -0.1086 -0.1569 -0.3947
C11E C -0.0885(3) -0.1252(2) -0.4111(2)
H5E H -0.0641 -0.1002 -0.4324
H6E H -0.3277 0.0409 -0.2722
C12E C -0.3249(4) 0.0000 -0.2732(6)
C13E C -0.1016(4) -0.1043(4) -0.3948(4)
C14E C -0.2963(4) 0.0000 -0.2783(7)
C15E C -0.1118(5) -0.0876(4) -0.3810(4)
C16E C -0.2732(4) 0.0000 -0.2856(5)
C17E C -0.1228(3) -0.0666(2) -0.3630(3)
C18E C -0.2481(5) 0.0000 -0.2937(6)
C19E C -0.1486(3) -0.0568(3) -0.3683(2)
C20E C -0.1079(2) -0.0561(3) -0.3416(3)
C21E C -0.2308(4) 0.0219(4) -0.2952(5)
C22E C -0.1596(2) -0.0364(3) -0.3522(3)
F1E F -0.1633(3) -0.0658(4) -0.3883(4)
C23E C -0.1188(2) -0.0358(3) -0.3254(2)
F2E F -0.0841(3) -0.0675(5) -0.3390(5)
C24E C -0.2040(3) 0.0228(3) -0.3025(4)
F3E F -0.2454(3) 0.0453(3) -0.2937(5)
C25E C -0.1446(2) -0.02595(19) -0.3307(2)
F4E F -0.1826(3) -0.0277(4) -0.3566(3)
F5E F -0.1040(3) -0.0258(6) -0.3090(6)
C26E C -0.1886(3) 0.0000 -0.3068(4)
F6E F -0.1915(3) 0.0461(2) -0.3077(5)
B1E B -0.1557(3) -0.0000 -0.3127(4)
C27E C -0.1476(5) 0.0000 -0.2838(4)
C28E C -0.1427(4) -0.0213(3) -0.2668(3)
C29E C -0.1351(5) -0.0213(3) -0.2404(4)
F7E F -0.1428(6) -0.0459(3) -0.2797(3)
C30E C -0.1291(7) 0.0000 -0.2243(5)
F8E F -0.1310(5) -0.0451(4) -0.2263(3)
C31E C -0.1151(6) 0.0000 -0.1981(5)
C32E C -0.1000(9) 0.0000 -0.1791(7)
C33E C -0.0857(11) 0.0000 -0.1529(6)
C34E C -0.0863(7) 0.0236(4) -0.1379(4)
H7E H -0.0954 0.0389 -0.1439
C35E C -0.0726(7) 0.0232(3) -0.1134(5)
H8E H -0.0688 0.0398 -0.1052
C36E C -0.0643(12) 0.0000 -0.1005(6)
C37E C -0.0532(9) 0.0000 -0.0726(5)
O6E O -0.0400(7) 0.0198(7) -0.0703(9)
O7E O -0.0434(6) 0.0000 -0.0178(8)
O3DA O -0.05269(15) 0.21111(18) -0.44804(17)
O4DA O -0.42023(15) 0.02423(17) -0.25187(16)
C1DA C -0.0462(4) 0.1869(3) -0.4540(4)
O5DA O -0.02887(18) 0.17675(18) -0.47244(16)
C3DA C -0.0622(2) 0.16540(19) -0.4405(2)
C5DA C -0.0821(2) 0.17235(18) -0.4218(3)
C6DA C -0.0555(2) 0.1384(2) -0.4445(2)
C7DA C -0.3652(3) -0.0259(3) -0.2660(4)
H1DA H -0.0867 0.1904 -0.4192
C8DA C -0.0953(2) 0.1523(3) -0.4071(2)
C9DA C -0.0686(3) 0.11826(17) -0.4298(3)
H2DA H -0.0421 0.1337 -0.4569
H3DA H -0.3746 -0.0423 -0.2656
C10DA C -0.3377(3) -0.0250(3) -0.2707(5)
H4DA H -0.1086 0.1569 -0.3947
C11DA C -0.0885(3) 0.1252(2) -0.4111(2)
H5DA H -0.0641 0.1002 -0.4324
H6DA H -0.3277 -0.0409 -0.2722
C13DA C -0.1016(4) 0.1043(4) -0.3948(4)
C15DA C -0.1118(5) 0.0876(4) -0.3810(4)
C17DA C -0.1228(3) 0.0666(2) -0.3630(3)
C19DA C -0.1486(3) 0.0568(3) -0.3683(2)
C20DA C -0.1079(2) 0.0561(3) -0.3416(3)
C21DA C -0.2308(4) -0.0219(4) -0.2952(5)
C22DA C -0.1596(2) 0.0364(3) -0.3522(3)
F1DA F -0.1633(3) 0.0658(4) -0.3883(4)
C23DA C -0.1188(2) 0.0358(3) -0.3254(2)
F2DA F -0.0841(3) 0.0675(5) -0.3390(5)
C24DA C -0.2040(3) -0.0228(3) -0.3025(4)
F3DA F -0.2454(3) -0.0453(3) -0.2937(5)
C25DA C -0.1446(2) 0.02595(19) -0.3307(2)
F4DA F -0.1826(3) 0.0277(4) -0.3566(3)
F5DA F -0.1040(3) 0.0258(6) -0.3090(6)
F6DA F -0.1915(3) -0.0461(2) -0.3077(5)
C28DA C -0.1427(4) 0.0213(3) -0.2668(3)
C29DA C -0.1351(5) 0.0213(3) -0.2404(4)
F7DA F -0.1428(6) 0.0459(3) -0.2797(3)
F8DA F -0.1310(5) 0.0451(4) -0.2263(3)
C34DA C -0.0863(7) -0.0236(4) -0.1379(4)
H7DA H -0.0954 -0.0389 -0.1439
C35DA C -0.0726(7) -0.0232(3) -0.1134(5)
H8DA H -0.0688 -0.0398 -0.1052
O6DA O -0.0400(7) -0.0198(7) -0.0703(9)
Zr1G Zr 0.035603(16) 0.2500 -0.464397(16)
Zr2Q Zr 0.30038(4) 0.5000 0.0000
Zr1Y Zr 0.2500 0.464397(16) 0.035603(16)
O3Q O 0.28889(18) 0.44731(15) -0.05196(17)
O4Q O 0.47577(17) 0.07977(15) -0.24813(16)
C1Q C 0.3131(3) 0.4538(4) -0.0460(4)
C2Q C 0.5000 0.0907(5) -0.2471(4)
O5Q O 0.32325(18) 0.47113(18) -0.02756(16)
C3Q C 0.33460(19) 0.4378(2) -0.0595(2)
C4Q C 0.5000 0.1211(4) -0.2383(4)
C5Q C 0.32765(18) 0.4179(2) -0.0782(3)
C6Q C 0.3616(2) 0.4445(2) -0.0555(2)
C7Q C 0.5259(3) 0.1348(3) -0.2340(4)
H1Q H 0.3096 0.4133 -0.0808
C8Q C 0.3477(3) 0.4047(2) -0.0929(2)
C9Q C 0.38174(17) 0.4314(3) -0.0702(3)
H2Q H 0.3663 0.4579 -0.0431
H3Q H 0.5423 0.1254 -0.2344
C10Q C 0.5250(3) 0.1623(3) -0.2293(5)
H4Q H 0.3431 0.3914 -0.1053
C11Q C 0.3748(2) 0.4115(3) -0.0889(2)
H5Q H 0.3998 0.4359 -0.0676
H6Q H 0.5409 0.1723 -0.2278
C12Q C 0.5000 0.1751(4) -0.2268(6)
C13Q C 0.3957(4) 0.3984(4) -0.1052(4)
C14Q C 0.5000 0.2037(4) -0.2217(7)
C15Q C 0.4124(4) 0.3882(5) -0.1190(4)
C16Q C 0.5000 0.2268(4) -0.2144(5)
C17Q C 0.4334(2) 0.3772(3) -0.1370(3)
C18Q C 0.5000 0.2519(5) -0.2063(6)
C19Q C 0.4432(3) 0.3514(3) -0.1317(2)
C20Q C 0.4439(3) 0.3921(2) -0.1584(3)
C21Q C 0.5219(4) 0.2692(4) -0.2048(5)
C22Q C 0.4636(3) 0.3404(2) -0.1478(3)
F1Q F 0.4342(4) 0.3367(3) -0.1117(4)
C23Q C 0.4642(3) 0.3812(2) -0.1746(2)
F2Q F 0.4325(5) 0.4159(3) -0.1610(5)
C24Q C 0.5228(3) 0.2960(3) -0.1975(4)
F3Q F 0.5453(3) 0.2546(3) -0.2063(5)
C25Q C 0.47405(19) 0.3554(2) -0.1693(2)
F4Q F 0.4723(4) 0.3174(3) -0.1434(3)
F5Q F 0.4742(6) 0.3960(3) -0.1910(6)
C26Q C 0.5000 0.3114(3) -0.1932(4)
F6Q F 0.5461(2) 0.3085(3) -0.1923(5)
B1Q B 0.5000 0.3443(3) -0.1873(4)
C27Q C 0.5000 0.3524(5) -0.2162(4)
C28Q C 0.4787(3) 0.3573(4) -0.2332(3)
C29Q C 0.4787(3) 0.3649(5) -0.2596(4)
F7Q F 0.4541(3) 0.3572(6) -0.2203(3)
C30Q C 0.5000 0.3709(7) -0.2757(5)
F8Q F 0.4549(4) 0.3690(5) -0.2737(3)
C31Q C 0.5000 0.3849(6) -0.3019(5)
C32Q C 0.5000 0.4000(9) -0.3209(7)
C33Q C 0.5000 0.4143(11) -0.3471(6)
C34Q C 0.5236(4) 0.4137(7) -0.3621(4)
H7Q H 0.5389 0.4046 -0.3561
C35Q C 0.5232(3) 0.4274(7) -0.3866(5)
H8Q H 0.5398 0.4312 -0.3948
C36Q C 0.5000 0.4357(12) -0.3995(6)
C37Q C 0.5000 0.4468(9) -0.4274(5)
O6Q O 0.5198(7) 0.4600(7) -0.4297(9)
Zr3L Zr 0.52701(6) 0.47299(6) -0.47299(6)
O7Q O 0.5000 0.4566(6) -0.4822(8)
O3PA O 0.71111(18) 0.44731(15) -0.05196(17)
O4PA O 0.52423(17) 0.07977(15) -0.24813(16)
C1PA C 0.6869(3) 0.4538(4) -0.0460(4)
O5PA O 0.67675(18) 0.47113(18) -0.02756(16)
C3PA C 0.66540(19) 0.4378(2) -0.0595(2)
C5PA C 0.67235(18) 0.4179(2) -0.0782(3)
C6PA C 0.6384(2) 0.4445(2) -0.0555(2)
C7PA C 0.4741(3) 0.1348(3) -0.2340(4)
H1PA H 0.6904 0.4133 -0.0808
C8PA C 0.6523(3) 0.4047(2) -0.0929(2)
C9PA C 0.61826(17) 0.4314(3) -0.0702(3)
H2PA H 0.6337 0.4579 -0.0431
H3PA H 0.4577 0.1254 -0.2344
C10PA C 0.4750(3) 0.1623(3) -0.2293(5)
H4PA H 0.6569 0.3914 -0.1053
C11PA C 0.6252(2) 0.4115(3) -0.0889(2)
H5PA H 0.6002 0.4359 -0.0676
H6PA H 0.4591 0.1723 -0.2278
C13PA C 0.6043(4) 0.3984(4) -0.1052(4)
C15PA C 0.5876(4) 0.3882(5) -0.1190(4)
C17PA C 0.5666(2) 0.3772(3) -0.1370(3)
C19PA C 0.5568(3) 0.3514(3) -0.1317(2)
C20PA C 0.5561(3) 0.3921(2) -0.1584(3)
C21PA C 0.4781(4) 0.2692(4) -0.2048(5)
C22PA C 0.5364(3) 0.3404(2) -0.1478(3)
F1PA F 0.5658(4) 0.3367(3) -0.1117(4)
C23PA C 0.5358(3) 0.3812(2) -0.1746(2)
F2PA F 0.5675(5) 0.4159(3) -0.1610(5)
C24PA C 0.4772(3) 0.2960(3) -0.1975(4)
F3PA F 0.4547(3) 0.2546(3) -0.2063(5)
C25PA C 0.52595(19) 0.3554(2) -0.1693(2)
F4PA F 0.5277(4) 0.3174(3) -0.1434(3)
F5PA F 0.5258(6) 0.3960(3) -0.1910(6)
F6PA F 0.4539(2) 0.3085(3) -0.1923(5)
C28PA C 0.5213(3) 0.3573(4) -0.2332(3)
C29PA C 0.5213(3) 0.3649(5) -0.2596(4)
F7PA F 0.5459(3) 0.3572(6) -0.2203(3)
F8PA F 0.5451(4) 0.3690(5) -0.2737(3)
C34PA C 0.4764(4) 0.4137(7) -0.3621(4)
H7PA H 0.4611 0.4046 -0.3561
C35PA C 0.4768(3) 0.4274(7) -0.3866(5)
H8PA H 0.4602 0.4312 -0.3948
O6PA O 0.4802(7) 0.4600(7) -0.4297(9)
O2Q O 0.22732(18) 0.5000 -0.03219(17)
O7K O -0.0178(8) 0.0434(6) 0.0000
O2R O 0.22732(18) 0.5000 0.03219(17)
O7F O 0.0434(6) 0.0000 0.0178(8)
O1Q O 0.27784(17) 0.5000 -0.03968(17)
O2P O -0.22732(18) 0.5000 0.03219(17)
O1R O 0.27784(17) 0.5000 0.03968(17)
O2S O -0.22732(18) 0.5000 -0.03219(17)
Zr3AA Zr 0.02701(6) 0.02701(6) -0.02701(6)
Zr1AA Zr -0.2500 0.464397(16) -0.035603(16)
Zr1DA Zr -0.035603(16) 0.2500 -0.464397(16)
Zr1A Zr -0.2500 0.535603(16) -0.035603(16)
Zr1B Zr -0.2500 0.464397(16) 0.035603(16)
Zr1D Zr -0.035603(16) 0.2500 0.464397(16)
Zr1E Zr -0.035603(16) -0.2500 -0.464397(16)
Zr1E_2 Zr -0.035603(16) 0.7500 -0.464397(16)
Zr1F Zr 0.035603(16) 0.7500 0.464397(16)
Zr1I Zr -0.464397(16) -0.035603(16) -0.2500
Zr1J Zr 0.464397(16) 0.035603(16) -0.2500
Zr1X Zr -0.2500 0.535603(16) 0.035603(16)
Zr1Z Zr 0.2500 0.535603(16) -0.035603(16)
Zr1AA_2 Zr 0.7500 0.464397(16) -0.035603(16)
Zr1BA Zr 0.035603(16) 0.7500 -0.464397(16)
Zr1CA Zr 0.035603(16) 0.2500 0.464397(16)
Zr1EA Zr -0.035603(16) 0.7500 0.464397(16)
Zr1FA Zr -0.464397(16) 0.035603(16) -0.2500
Zr1FA_2 Zr 0.535603(16) 0.035603(16) -0.2500
O1G O 0.0000 0.22216(17) -0.46032(17)
O1M O 0.03968(17) 0.27784(17) -0.5000
O1N O -0.03968(17) 0.27784(17) -0.5000
O1S O -0.27784(17) 0.5000 -0.03968(17)
O2B O -0.27268(18) 0.46781(17) 0.0000
O2G O 0.0000 0.27268(18) -0.46781(17)
O2M O 0.03219(17) 0.22732(18) -0.5000
O2N O -0.03219(17) 0.22732(18) -0.5000
O3G O 0.05269(15) 0.21111(18) -0.44804(17)
O3M O 0.05196(17) 0.28889(18) -0.44731(15)
O3R O 0.28889(18) 0.55269(15) 0.05196(17)
O3MA O -0.05196(17) 0.28889(18) -0.44731(15)
O3PA_2 O -0.28889(18) 0.44731(15) -0.05196(17)
O3QA O 0.28889(18) 0.44731(15) 0.05196(17)
O4H O 0.25187(16) 0.57977(15) 0.02423(17)
O4J O 0.25187(16) 0.42023(15) -0.02423(17)
O4M O 0.24813(16) 0.47577(17) -0.07977(15)
O4O O 0.24813(16) 0.52423(17) 0.07977(15)
O4U O 0.07977(15) 0.24813(16) -0.47577(17)
O4FA O -0.25187(16) 0.42023(15) -0.02423(17)
O4GA O 0.25187(16) 0.42023(15) 0.02423(17)
O4JA O 0.24813(16) 0.47577(17) 0.07977(15)
O4MA O -0.24813(16) 0.47577(17) -0.07977(15)
O4RA O -0.07977(15) 0.24813(16) -0.47577(17)
Zr2D Zr 0.0000 0.19962(4) -0.5000
Zr2E Zr 0.0000 -0.19962(4) -0.5000
Zr2P Zr 0.69962(4) 0.5000 0.0000
O5R O 0.32325(18) 0.52887(18) 0.02756(16)
O5NA O 0.32325(18) 0.52887(18) -0.02756(16)
O5QA O 0.32325(18) 0.47113(18) 0.02756(16)
O6F O 0.0400(7) 0.0198(7) 0.0703(9)
O6J O 0.0703(9) 0.0400(7) 0.0198(7)
O6K O -0.0703(9) 0.0400(7) -0.0198(7)
O6L O 0.5703(9) 0.4802(7) -0.4600(7)
O6W O 0.5400(7) 0.4297(9) -0.4802(7)
O6BA O 0.0400(7) 0.0198(7) -0.0703(9)
O6GA O 0.0703(9) 0.0400(7) -0.0198(7)
Zr3A Zr 0.02701(6) 0.97299(6) -0.02701(6)
Zr3C Zr -0.02701(6) 0.97299(6) 0.02701(6)
Zr3X Zr 0.02701(6) -0.02701(6) 0.02701(6)
Zr3X_2 Zr 0.02701(6) 0.97299(6) 0.02701(6)
Zr3Y Zr -0.02701(6) 0.02701(6) 0.02701(6)
Zr3Z Zr -0.02701(6) -0.02701(6) -0.02701(6)
Zr3Z_2 Zr -0.02701(6) 0.97299(6) -0.02701(6)
Zr3LA Zr 0.47299(6) 0.47299(6) -0.47299(6)
O7G O 0.0434(6) 0.0000 -0.0178(8)
O7J O 0.0178(8) 0.0434(6) 0.0000
O7L O 0.5178(8) 0.5000 -0.4566(6)
O7W O 0.5434(6) 0.4822(8) -0.5000
loop_
_geom_bond_atom_site_label_1
_geom_bond_atom_site_label_2
_geom_bond_site_symmetry_1
_geom_bond_site_symmetry_2
Zr1 O1 1_555 1_555
O1 Zr2 1_555 1_555
O2 Zr1 1_555 1_555
O3 Zr1 1_555 1_555
O4 C2 1_555 1_555
Zr2 O5 1_555 1_555
C1 O3 1_555 1_555
C2 C4 1_555 1_555
O5 C1 1_555 1_555
C3 C1 1_555 1_555
C4 C7 1_555 1_555
C5 C3 1_555 1_555
C6 C3 1_555 1_555
C7 H3 1_555 1_555
H1 C5 1_555 1_555
C8 C5 1_555 1_555
C9 C6 1_555 1_555
H2 C6 1_555 1_555
C10 C7 1_555 1_555
H4 C8 1_555 1_555
C11 C8 1_555 1_555
H5 C9 1_555 1_555
H6 C10 1_555 1_555
C12 C10 1_555 1_555
C13 C11 1_555 1_555
C14 C12 1_555 1_555
C15 C13 1_555 1_555
C16 C14 1_555 1_555
C17 C15 1_555 1_555
C18 C16 1_555 1_555
C19 C17 1_555 1_555
C20 C17 1_555 1_555
C21 C18 1_555 1_555
C22 C19 1_555 1_555
F1 C19 1_555 1_555
C23 C20 1_555 1_555
F2 C20 1_555 1_555
C24 C21 1_555 1_555
F3 C21 1_555 1_555
C25 C22 1_555 1_555
F4 C22 1_555 1_555
F5 C23 1_555 1_555
C26 C24 1_555 1_555
F6 C24 1_555 1_555
B1 C25 1_555 1_555
C27 B1 1_555 1_555
C28 C27 1_555 1_555
C29 C28 1_555 1_555
F7 C28 1_555 1_555
C30 C29 1_555 1_555
F8 C29 1_555 1_555
C31 C30 1_555 1_555
C32 C31 1_555 1_555
C33 C32 1_555 1_555
C34 C33 1_555 1_555
H7 C34 1_555 1_555
C35 C34 1_555 1_555
H8 C35 1_555 1_555
C36 C35 1_555 1_555
C37 C36 1_555 1_555
O6 C37 1_555 1_555
Zr3 O6 1_555 1_555
O7 Zr3 1_555 1_555
O3AA C1AA 1_555 1_555
O4AA C2 1_555 1_555
C1AA O5AA 1_555 1_555
O5AA Zr2A 1_555 1_555
C3AA C1AA 1_555 1_555
C5AA C3AA 1_555 1_555
C6AA C3AA 1_555 1_555
C7AA C4 1_555 1_555
H1AA C5AA 1_555 1_555
C8AA C5AA 1_555 1_555
C9AA C6AA 1_555 1_555
H2AA C6AA 1_555 1_555
H3AA C7AA 1_555 1_555
C10AA C12 1_555 1_555
H4AA C8AA 1_555 1_555
C11AA C8AA 1_555 1_555
H5AA C9AA 1_555 1_555
H6AA C10AA 1_555 1_555
C13AA C11AA 1_555 1_555
C15AA C13AA 1_555 1_555
C17AA C15AA 1_555 1_555
C19AA C17AA 1_555 1_555
C20AA C17AA 1_555 1_555
C21AA C18 1_555 1_555
C22AA C19AA 1_555 1_555
F1AA C19AA 1_555 1_555
C23AA C20AA 1_555 1_555
F2AA C20AA 1_555 1_555
C24AA C26 1_555 1_555
F3AA C21AA 1_555 1_555
C25AA B1 1_555 1_555
F4AA C22AA 1_555 1_555
F5AA C23AA 1_555 1_555
F6AA C24AA 1_555 1_555
C28AA C27 1_555 1_555
C29AA C30 1_555 1_555
F7AA C28AA 1_555 1_555
F8AA C29AA 1_555 1_555
C34AA C33 1_555 1_555
H7AA C34AA 1_555 1_555
C35AA C36 1_555 1_555
H8AA C35AA 1_555 1_555
O6AA C37 1_555 1_555
O1A Zr2A 1_555 1_555
O3A C1A 1_555 1_555
O4A C2A 1_555 1_555
Zr2A O5A 1_555 1_555
C1A O5A 1_555 1_555
C2A C4A 1_555 1_555
C3A C1A 1_555 1_555
C4A C7A 1_555 1_555
C5A C3A 1_555 1_555
C6A C3A 1_555 1_555
C7A H3A 1_555 1_555
H1A C5A 1_555 1_555
C8A C5A 1_555 1_555
C9A C6A 1_555 1_555
H2A C6A 1_555 1_555
C10A C7A 1_555 1_555
H4A C8A 1_555 1_555
C11A C8A 1_555 1_555
H5A C9A 1_555 1_555
H6A C10A 1_555 1_555
C12A C10A 1_555 1_555
C13A C11A 1_555 1_555
C14A C12A 1_555 1_555
C15A C13A 1_555 1_555
C16A C14A 1_555 1_555
C17A C15A 1_555 1_555
C18A C16A 1_555 1_555
C19A C17A 1_555 1_555
C20A C17A 1_555 1_555
C21A C18A 1_555 1_555
C22A C19A 1_555 1_555
F1A C19A 1_555 1_555
C23A C20A 1_555 1_555
F2A C20A 1_555 1_555
C24A C21A 1_555 1_555
F3A C21A 1_555 1_555
C25A C22A 1_555 1_555
F4A C22A 1_555 1_555
F5A C23A 1_555 1_555
C26A C24A 1_555 1_555
F6A C24A 1_555 1_555
B1A C25A 1_555 1_555
C27A B1A 1_555 1_555
C28A C27A 1_555 1_555
C29A C28A 1_555 1_555
F7A C28A 1_555 1_555
C30A C29A 1_555 1_555
F8A C29A 1_555 1_555
C31A C30A 1_555 1_555
C32A C31A 1_555 1_555
C33A C32A 1_555 1_555
C34A C33A 1_555 1_555
H7A C34A 1_555 1_555
C35A C34A 1_555 1_555
H8A C35A 1_555 1_555
C36A C35A 1_555 1_555
C37A C36A 1_555 1_555
O6A C37A 1_555 1_555
O3Z C1Z 1_555 1_555
O4Z C2A 1_555 1_555
C1Z O5Z 1_555 1_555
O5Z Zr2 1_555 1_555
C3Z C1Z 1_555 1_555
C5Z C3Z 1_555 1_555
C6Z C3Z 1_555 1_555
C7Z C4A 1_555 1_555
H1Z C5Z 1_555 1_555
C8Z C5Z 1_555 1_555
C9Z C6Z 1_555 1_555
H2Z C6Z 1_555 1_555
H3Z C7Z 1_555 1_555
C10Z C12A 1_555 1_555
H4Z C8Z 1_555 1_555
C11Z C8Z 1_555 1_555
H5Z C9Z 1_555 1_555
H6Z C10Z 1_555 1_555
C13Z C11Z 1_555 1_555
C15Z C13Z 1_555 1_555
C17Z C15Z 1_555 1_555
C19Z C17Z 1_555 1_555
C20Z C17Z 1_555 1_555
C21Z C18A 1_555 1_555
C22Z C19Z 1_555 1_555
F1Z C19Z 1_555 1_555
C23Z C20Z 1_555 1_555
F2Z C20Z 1_555 1_555
C24Z C26A 1_555 1_555
F3Z C21Z 1_555 1_555
C25Z B1A 1_555 1_555
F4Z C22Z 1_555 1_555
F5Z C23Z 1_555 1_555
F6Z C24Z 1_555 1_555
C28Z C27A 1_555 1_555
C29Z C30A 1_555 1_555
F7Z C28Z 1_555 1_555
F8Z C29Z 1_555 1_555
C34Z C33A 1_555 1_555
H7Z C34Z 1_555 1_555
C35Z C36A 1_555 1_555
H8Z C35Z 1_555 1_555
O6Z C37A 1_555 1_555
O1B Zr2A 1_555 1_555
O3B C1B 1_555 1_555
O4B C2B 1_555 1_555
C1B O5B 1_555 1_555
C2B C4B 1_555 1_555
O5B Zr2A 1_555 1_555
C3B C1B 1_555 1_555
C4B C7B 1_555 1_555
C5B C3B 1_555 1_555
C6B C3B 1_555 1_555
C7B H3B 1_555 1_555
H1B C5B 1_555 1_555
C8B C5B 1_555 1_555
C9B C6B 1_555 1_555
H2B C6B 1_555 1_555
C10B C7B 1_555 1_555
H4B C8B 1_555 1_555
C11B C8B 1_555 1_555
H5B C9B 1_555 1_555
H6B C10B 1_555 1_555
C12B C10B 1_555 1_555
C13B C11B 1_555 1_555
C14B C12B 1_555 1_555
C15B C13B 1_555 1_555
C16B C14B 1_555 1_555
C17B C15B 1_555 1_555
C18B C16B 1_555 1_555
C19B C17B 1_555 1_555
C20B C17B 1_555 1_555
C21B C18B 1_555 1_555
C22B C19B 1_555 1_555
F1B C19B 1_555 1_555
C23B C20B 1_555 1_555
F2B C20B 1_555 1_555
C24B C21B 1_555 1_555
F3B C21B 1_555 1_555
C25B C22B 1_555 1_555
F4B C22B 1_555 1_555
F5B C23B 1_555 1_555
C26B C24B 1_555 1_555
F6B C24B 1_555 1_555
B1B C25B 1_555 1_555
C27B B1B 1_555 1_555
C28B C27B 1_555 1_555
C29B C28B 1_555 1_555
F7B C28B 1_555 1_555
C30B C29B 1_555 1_555
F8B C29B 1_555 1_555
C31B C30B 1_555 1_555
C32B C31B 1_555 1_555
C33B C32B 1_555 1_555
C34B C33B 1_555 1_555
H7B C34B 1_555 1_555
C35B C34B 1_555 1_555
H8B C35B 1_555 1_555
C36B C35B 1_555 1_555
C37B C36B 1_555 1_555
O6B C37B 1_555 1_555
Zr3B O6B 1_555 1_555
O7B Zr3B 1_555 1_555
O3Y C1Y 1_555 1_555
O4Y C2B 1_555 1_555
C1Y O5Y 1_555 1_555
O5Y Zr2 1_555 1_555
C3Y C1Y 1_555 1_555
C5Y C3Y 1_555 1_555
C6Y C3Y 1_555 1_555
C7Y C4B 1_555 1_555
H1Y C5Y 1_555 1_555
C8Y C5Y 1_555 1_555
C9Y C6Y 1_555 1_555
H2Y C6Y 1_555 1_555
H3Y C7Y 1_555 1_555
C10Y C12B 1_555 1_555
H4Y C8Y 1_555 1_555
C11Y C8Y 1_555 1_555
H5Y C9Y 1_555 1_555
H6Y C10Y 1_555 1_555
C13Y C11Y 1_555 1_555
C15Y C13Y 1_555 1_555
C17Y C15Y 1_555 1_555
C19Y C17Y 1_555 1_555
C20Y C17Y 1_555 1_555
C21Y C18B 1_555 1_555
C22Y C19Y 1_555 1_555
F1Y C19Y 1_555 1_555
C23Y C20Y 1_555 1_555
F2Y C20Y 1_555 1_555
C24Y C26B 1_555 1_555
F3Y C21Y 1_555 1_555
C25Y B1B 1_555 1_555
F4Y C22Y 1_555 1_555
F5Y C23Y 1_555 1_555
F6Y C24Y 1_555 1_555
C28Y C27B 1_555 1_555
C29Y C30B 1_555 1_555
F7Y C28Y 1_555 1_555
F8Y C29Y 1_555 1_555
C34Y C33B 1_555 1_555
H7Y C34Y 1_555 1_555
C35Y C36B 1_555 1_555
H8Y C35Y 1_555 1_555
O6Y C37B 1_555 1_555
Zr1C O1C 1_555 1_555
O1C Zr2 1_555 1_555
O2C Zr1C 1_555 1_555
O3C Zr1C 1_555 1_555
O4C C2C 1_555 1_555
C1C O3C 1_555 1_555
C2C C4C 1_555 1_555
O5C Zr2 1_555 1_555
C3C C1C 1_555 1_555
C4C C7C 1_555 1_555
C5C C3C 1_555 1_555
C6C C3C 1_555 1_555
C7C H3C 1_555 1_555
H1C C5C 1_555 1_555
C8C C5C 1_555 1_555
C9C C6C 1_555 1_555
H2C C6C 1_555 1_555
C10C C7C 1_555 1_555
H4C C8C 1_555 1_555
C11C C8C 1_555 1_555
H5C C9C 1_555 1_555
H6C C10C 1_555 1_555
C12C C10C 1_555 1_555
C13C C11C 1_555 1_555
C14C C12C 1_555 1_555
C15C C13C 1_555 1_555
C16C C14C 1_555 1_555
C17C C15C 1_555 1_555
C18C C16C 1_555 1_555
C19C C17C 1_555 1_555
C20C C17C 1_555 1_555
C21C C18C 1_555 1_555
C22C C19C 1_555 1_555
F1C C19C 1_555 1_555
C23C C20C 1_555 1_555
F2C C20C 1_555 1_555
C24C C21C 1_555 1_555
F3C C21C 1_555 1_555
C25C C22C 1_555 1_555
F4C C22C 1_555 1_555
F5C C23C 1_555 1_555
C26C C24C 1_555 1_555
F6C C24C 1_555 1_555
B1C C25C 1_555 1_555
C27C B1C 1_555 1_555
C28C C27C 1_555 1_555
C29C C28C 1_555 1_555
F7C C28C 1_555 1_555
C30C C29C 1_555 1_555
F8C C29C 1_555 1_555
C31C C30C 1_555 1_555
C32C C31C 1_555 1_555
C33C C32C 1_555 1_555
C34C C33C 1_555 1_555
H7C C34C 1_555 1_555
C35C C34C 1_555 1_555
H8C C35C 1_555 1_555
C36C C35C 1_555 1_555
C37C C36C 1_555 1_555
O6C C37C 1_555 1_555
O3X C1X 1_555 1_555
O4X C2C 1_555 1_555
C1X O5X 1_555 1_555
O5X Zr2A 1_555 1_555
C3X C1X 1_555 1_555
C5X C3X 1_555 1_555
C6X C3X 1_555 1_555
C7X C4C 1_555 1_555
H1X C5X 1_555 1_555
C8X C5X 1_555 1_555
C9X C6X 1_555 1_555
H2X C6X 1_555 1_555
H3X C7X 1_555 1_555
C10X C12C 1_555 1_555
H4X C8X 1_555 1_555
C11X C8X 1_555 1_555
H5X C9X 1_555 1_555
H6X C10X 1_555 1_555
C13X C11X 1_555 1_555
C15X C13X 1_555 1_555
C17X C15X 1_555 1_555
C19X C17X 1_555 1_555
C20X C17X 1_555 1_555
C21X C18C 1_555 1_555
C22X C19X 1_555 1_555
F1X C19X 1_555 1_555
C23X C20X 1_555 1_555
F2X C20X 1_555 1_555
C24X C26C 1_555 1_555
F3X C21X 1_555 1_555
C25X B1C 1_555 1_555
F4X C22X 1_555 1_555
F5X C23X 1_555 1_555
F6X C24X 1_555 1_555
C28X C27C 1_555 1_555
C29X C30C 1_555 1_555
F7X C28X 1_555 1_555
F8X C29X 1_555 1_555
C34X C33C 1_555 1_555
H7X C34X 1_555 1_555
C35X C36C 1_555 1_555
H8X C35X 1_555 1_555
O6X C37C 1_555 1_555
O3E C1E 1_555 1_555
O4E C2E 1_555 1_555
C1E O5E 1_555 1_555
C2E C4E 1_555 1_555
O5E Zr2E 1_555 1_555
C3E C1E 1_555 1_555
C4E C7E 1_555 1_555
C5E C3E 1_555 1_555
C6E C3E 1_555 1_555
C7E H3E 1_555 1_555
H1E C5E 1_555 1_555
C8E C5E 1_555 1_555
C9E C6E 1_555 1_555
H2E C6E 1_555 1_555
C10E C7E 1_555 1_555
H4E C8E 1_555 1_555
C11E C8E 1_555 1_555
H5E C9E 1_555 1_555
H6E C10E 1_555 1_555
C12E C10E 1_555 1_555
C13E C11E 1_555 1_555
C14E C12E 1_555 1_555
C15E C13E 1_555 1_555
C16E C14E 1_555 1_555
C17E C15E 1_555 1_555
C18E C16E 1_555 1_555
C19E C17E 1_555 1_555
C20E C17E 1_555 1_555
C21E C18E 1_555 1_555
C22E C19E 1_555 1_555
F1E C19E 1_555 1_555
C23E C20E 1_555 1_555
F2E C20E 1_555 1_555
C24E C21E 1_555 1_555
F3E C21E 1_555 1_555
C25E C22E 1_555 1_555
F4E C22E 1_555 1_555
F5E C23E 1_555 1_555
C26E C24E 1_555 1_555
F6E C24E 1_555 1_555
B1E C25E 1_555 1_555
C27E B1E 1_555 1_555
C28E C27E 1_555 1_555
C29E C28E 1_555 1_555
F7E C28E 1_555 1_555
C30E C29E 1_555 1_555
F8E C29E 1_555 1_555
C31E C30E 1_555 1_555
C32E C31E 1_555 1_555
C33E C32E 1_555 1_555
C34E C33E 1_555 1_555
H7E C34E 1_555 1_555
C35E C34E 1_555 1_555
H8E C35E 1_555 1_555
C36E C35E 1_555 1_555
C37E C36E 1_555 1_555
O6E Zr3 1_555 1_555
O7E Zr3 1_555 1_555
O3DA C1DA 1_555 1_555
O4DA C2E 1_555 1_555
C1DA O5DA 1_555 1_555
O5DA Zr2D 1_555 1_555
C3DA C1DA 1_555 1_555
C5DA C3DA 1_555 1_555
C6DA C3DA 1_555 1_555
C7DA C4E 1_555 1_555
H1DA C5DA 1_555 1_555
C8DA C5DA 1_555 1_555
C9DA C6DA 1_555 1_555
H2DA C6DA 1_555 1_555
H3DA C7DA 1_555 1_555
C10DA C12E 1_555 1_555
H4DA C8DA 1_555 1_555
C11DA C8DA 1_555 1_555
H5DA C9DA 1_555 1_555
H6DA C10DA 1_555 1_555
C13DA C11DA 1_555 1_555
C15DA C13DA 1_555 1_555
C17DA C15DA 1_555 1_555
C19DA C17DA 1_555 1_555
C20DA C17DA 1_555 1_555
C21DA C18E 1_555 1_555
C22DA C19DA 1_555 1_555
F1DA C19DA 1_555 1_555
C23DA C20DA 1_555 1_555
F2DA C20DA 1_555 1_555
C24DA C26E 1_555 1_555
F3DA C21DA 1_555 1_555
C25DA B1E 1_555 1_555
F4DA C22DA 1_555 1_555
F5DA C23DA 1_555 1_555
F6DA C24DA 1_555 1_555
C28DA C27E 1_555 1_555
C29DA C30E 1_555 1_555
F7DA C28DA 1_555 1_555
F8DA C29DA 1_555 1_555
C34DA C33E 1_555 1_555
H7DA C34DA 1_555 1_555
C35DA C36E 1_555 1_555
H8DA C35DA 1_555 1_555
O6DA C37E 1_555 1_555
Zr1G O4 1_555 1_555
Zr2Q O2 1_555 1_555
Zr1Y O1 1_555 1_555
O3Q Zr1 1_555 1_555
O4Q C2Q 1_555 1_555
C1Q O3Q 1_555 1_555
C2Q C4Q 1_555 1_555
O5Q Zr2Q 1_555 1_555
C3Q C1Q 1_555 1_555
C4Q C7Q 1_555 1_555
C5Q C3Q 1_555 1_555
C6Q C3Q 1_555 1_555
C7Q H3Q 1_555 1_555
H1Q C5Q 1_555 1_555
C8Q C5Q 1_555 1_555
C9Q C6Q 1_555 1_555
H2Q C6Q 1_555 1_555
C10Q C7Q 1_555 1_555
H4Q C8Q 1_555 1_555
C11Q C8Q 1_555 1_555
H5Q C9Q 1_555 1_555
H6Q C10Q 1_555 1_555
C12Q C10Q 1_555 1_555
C13Q C11Q 1_555 1_555
C14Q C12Q 1_555 1_555
C15Q C13Q 1_555 1_555
C16Q C14Q 1_555 1_555
C17Q C15Q 1_555 1_555
C18Q C16Q 1_555 1_555
C19Q C17Q 1_555 1_555
C20Q C17Q 1_555 1_555
C21Q C18Q 1_555 1_555
C22Q C19Q 1_555 1_555
F1Q C19Q 1_555 1_555
C23Q C20Q 1_555 1_555
F2Q C20Q 1_555 1_555
C24Q C21Q 1_555 1_555
F3Q C21Q 1_555 1_555
C25Q C22Q 1_555 1_555
F4Q C22Q 1_555 1_555
F5Q C23Q 1_555 1_555
C26Q C24Q 1_555 1_555
F6Q C24Q 1_555 1_555
B1Q C25Q 1_555 1_555
C27Q B1Q 1_555 1_555
C28Q C27Q 1_555 1_555
C29Q C28Q 1_555 1_555
F7Q C28Q 1_555 1_555
C30Q C29Q 1_555 1_555
F8Q C29Q 1_555 1_555
C31Q C30Q 1_555 1_555
C32Q C31Q 1_555 1_555
C33Q C32Q 1_555 1_555
C34Q C33Q 1_555 1_555
H7Q C34Q 1_555 1_555
C35Q C34Q 1_555 1_555
H8Q C35Q 1_555 1_555
C36Q C35Q 1_555 1_555
C37Q C36Q 1_555 1_555
O6Q C37Q 1_555 1_555
Zr3L O6Q 1_555 1_555
O7Q Zr3L 1_555 1_555
O3PA C1PA 1_555 1_555
O4PA C2Q 1_555 1_555
C1PA O5PA 1_555 1_555
O5PA Zr2P 1_555 1_555
C3PA C1PA 1_555 1_555
C5PA C3PA 1_555 1_555
C6PA C3PA 1_555 1_555
C7PA C4Q 1_555 1_555
H1PA C5PA 1_555 1_555
C8PA C5PA 1_555 1_555
C9PA C6PA 1_555 1_555
H2PA C6PA 1_555 1_555
H3PA C7PA 1_555 1_555
C10PA C12Q 1_555 1_555
H4PA C8PA 1_555 1_555
C11PA C8PA 1_555 1_555
H5PA C9PA 1_555 1_555
H6PA C10PA 1_555 1_555
C13PA C11PA 1_555 1_555
C15PA C13PA 1_555 1_555
C17PA C15PA 1_555 1_555
C19PA C17PA 1_555 1_555
C20PA C17PA 1_555 1_555
C21PA C18Q 1_555 1_555
C22PA C19PA 1_555 1_555
F1PA C19PA 1_555 1_555
C23PA C20PA 1_555 1_555
F2PA C20PA 1_555 1_555
C24PA C26Q 1_555 1_555
F3PA C21PA 1_555 1_555
C25PA B1Q 1_555 1_555
F4PA C22PA 1_555 1_555
F5PA C23PA 1_555 1_555
F6PA C24PA 1_555 1_555
C28PA C27Q 1_555 1_555
C29PA C30Q 1_555 1_555
F7PA C28PA 1_555 1_555
F8PA C29PA 1_555 1_555
C34PA C33Q 1_555 1_555
H7PA C34PA 1_555 1_555
C35PA C36Q 1_555 1_555
H8PA C35PA 1_555 1_555
O6PA C37Q 1_555 1_555
O2Q Zr1 1_555 1_555
O7K Zr3 1_555 1_555
O2R Zr2 1_555 1_555
O7F Zr3B 1_555 1_555
O1Q Zr1 1_555 1_555
O2P Zr2A 1_555 1_555
O1R Zr1C 1_555 1_555
O2S Zr2A 1_555 1_555
Zr3AA O7 1_555 1_555
Zr1AA O3AA 1_555 1_555
Zr1DA O4AA 1_555 1_555
Zr1A O1A 1_555 1_555
Zr1B O1B 1_555 1_555
Zr1D O4B 1_555 1_555
Zr1E O3E 1_555 1_555
Zr1E_2 O4A 1_555 1_555
Zr1F O4C 1_555 1_555
Zr1I O4E 1_555 1_555
Zr1J O4Q 1_555 1_555
Zr1X O1A 1_555 1_555
Zr1Z O3Z 1_555 1_555
Zr1AA_2 O3PA 1_555 1_555
Zr1BA O4Z 1_555 1_555
Zr1CA O4Y 1_555 1_555
Zr1EA O4X 1_555 1_555
Zr1FA O4DA 1_555 1_555
Zr1FA_2 O4PA 1_555 1_555
O1G Zr1G 1_555 1_555
O1M Zr1G 1_555 1_555
O1N Zr1DA 1_555 1_555
O1S Zr1AA 1_555 1_555
O2B Zr1AA 1_555 1_555
O2G Zr1G 1_555 1_555
O2M Zr1G 1_555 1_555
O2N Zr1DA 1_555 1_555
O3G Zr1G 1_555 1_555
O3M Zr1G 1_555 1_555
O3R Zr1C 1_555 1_555
O3MA Zr1DA 1_555 1_555
O3PA_2 Zr1AA 1_555 1_555
O3QA Zr1Y 1_555 1_555
O4H Zr1C 1_555 1_555
O4J Zr1 1_555 1_555
O4M Zr1 1_555 1_555
O4O Zr1C 1_555 1_555
O4U Zr1G 1_555 1_555
O4FA Zr1AA 1_555 1_555
O4GA Zr1Y 1_555 1_555
O4JA Zr1Y 1_555 1_555
O4MA Zr1AA 1_555 1_555
O4RA Zr1DA 1_555 1_555
Zr2D O1G 1_555 1_555
O5R Zr2Q 1_555 1_555
O5NA Zr2Q 1_555 1_555
O5QA Zr2Q 1_555 1_555
O6F Zr3B 1_555 1_555
O6J Zr3B 1_555 1_555
O6K Zr3 1_555 1_555
O6L Zr3L 1_555 1_555
O6W Zr3L 1_555 1_555
O6BA Zr3AA 1_555 1_555
O6GA Zr3AA 1_555 1_555
Zr3A O6A 1_555 1_555
Zr3C O6C 1_555 1_555
Zr3X O7F 1_555 1_555
Zr3X_2 O6X 1_555 1_555
Zr3Y O7B 1_555 1_555
Zr3Z O7E 1_555 1_555
Zr3Z_2 O6Z 1_555 1_555
Zr3LA O7Q 1_555 1_555
O7G Zr3AA 1_555 1_555
O7J Zr3B 1_555 1_555
O7L Zr3L 1_555 1_555
O7W Zr3L 1_555 1_555
O2 Zr1Y 1_555 1_555
Zr2 O2Q 1_555 1_555
C9 C11 1_555 1_555
C23 C25 1_555 1_555
C26 B1 1_555 1_555
C7AA C10AA 1_555 1_555
C9AA C11AA 1_555 1_555
C21AA C24AA 1_555 1_555
C22AA C25AA 1_555 1_555
C23AA C25AA 1_555 1_555
C28AA C29AA 1_555 1_555
C34AA C35AA 1_555 1_555
O6AA Zr3AA 1_555 1_555
O3A Zr1A 1_555 1_555
C9A C11A 1_555 1_555
C23A C25A 1_555 1_555
C26A B1A 1_555 1_555
C7Z C10Z 1_555 1_555
C9Z C11Z 1_555 1_555
C21Z C24Z 1_555 1_555
C22Z C25Z 1_555 1_555
C23Z C25Z 1_555 1_555
C28Z C29Z 1_555 1_555
C34Z C35Z 1_555 1_555
O1B Zr1AA 1_555 1_555
O3B Zr1B 1_555 1_555
C9B C11B 1_555 1_555
C23B C25B 1_555 1_555
C26B B1B 1_555 1_555
O3Y Zr1Y 1_555 1_555
C7Y C10Y 1_555 1_555
C9Y C11Y 1_555 1_555
C21Y C24Y 1_555 1_555
C22Y C25Y 1_555 1_555
C23Y C25Y 1_555 1_555
C28Y C29Y 1_555 1_555
C34Y C35Y 1_555 1_555
O6Y Zr3Y 1_555 1_555
Zr1C O2R 1_555 1_555
O1C Zr1Z 1_555 1_555
O2C Zr2Q 1_555 1_555
O2C Zr1Z 1_555 1_555
C1C O5C 1_555 1_555
C9C C11C 1_555 1_555
C23C C25C 1_555 1_555
C26C B1C 1_555 1_555
O3X Zr1X 1_555 1_555
C7X C10X 1_555 1_555
C9X C11X 1_555 1_555
C21X C24X 1_555 1_555
C22X C25X 1_555 1_555
C23X C25X 1_555 1_555
C28X C29X 1_555 1_555
C34X C35X 1_555 1_555
C9E C11E 1_555 1_555
C23E C25E 1_555 1_555
C26E B1E 1_555 1_555
C37E O6E 1_555 1_555
O3DA Zr1DA 1_555 1_555
C7DA C10DA 1_555 1_555
C9DA C11DA 1_555 1_555
C21DA C24DA 1_555 1_555
C22DA C25DA 1_555 1_555
C23DA C25DA 1_555 1_555
C28DA C29DA 1_555 1_555
C34DA C35DA 1_555 1_555
O6DA Zr3Z 1_555 1_555
Zr2Q O1Q 1_555 1_555
Zr2Q O1R 1_555 1_555
Zr1Y O2R 1_555 1_555
Zr1Y O1R 1_555 1_555
C1Q O5Q 1_555 1_555
C9Q C11Q 1_555 1_555
C23Q C25Q 1_555 1_555
C26Q B1Q 1_555 1_555
C7PA C10PA 1_555 1_555
C9PA C11PA 1_555 1_555
C21PA C24PA 1_555 1_555
C22PA C25PA 1_555 1_555
C23PA C25PA 1_555 1_555
C28PA C29PA 1_555 1_555
C34PA C35PA 1_555 1_555
O6PA Zr3LA 1_555 1_555
O2Q Zr1Z 1_555 1_555
O7K Zr3Y 1_555 1_555
O1Q Zr1Z 1_555 1_555
O2P Zr1B 1_555 1_555
O2P Zr1X 1_555 1_555
O2S Zr1AA 1_555 1_555
O2S Zr1A 1_555 1_555
Zr3AA O7J 1_555 1_555
Zr1DA O1G 1_555 1_555
Zr1DA O2G 1_555 1_555
Zr1A O1S 1_555 1_555
Zr1B O2B 1_555 1_555
O2M Zr2D 1_555 1_555
O2N Zr2D 1_555 1_555

#END
