
#######################################################################
#
#                 Cambridge Crystallographic Data Centre
#                                CCDC 
#
#######################################################################
#
# If this CIF has been generated from an entry in the Cambridge 
# Structural Database, then it will include bibliographic, chemical, 
# crystal, experimental, refinement or atomic coordinate data resulting 
# from the CCDC's data processing and validation procedures.
#
#######################################################################

data_NIWYID
_chemical_formula_moiety         '(C66 H54 N2 O36 Zn5 2-)n'
_symmetry_cell_setting           monoclinic
_symmetry_space_group_name_H-M   'P 21/c'
_symmetry_Int_Tables_number      14
_space_group_name_Hall           '-P 2ybc'
loop_
_symmetry_equiv_pos_site_id
_symmetry_equiv_pos_as_xyz
1 x,y,z
2 -x,1/2+y,1/2-z
3 -x,-y,-z
4 x,1/2-y,1/2+z
_cell_length_a                   13.871(3)
_cell_length_b                   19.994(4)
_cell_length_c                   15.102(3)
_cell_angle_alpha                90
_cell_angle_beta                 94.69(3)
_cell_angle_gamma                90
_cell_volume                     4174.32
loop_
_atom_site_label
_atom_site_type_symbol
_atom_site_fract_x
_atom_site_fract_y
_atom_site_fract_z
Zn1 Zn 0.0000 0.0000 0.0000
Zn2 Zn -0.06754(3) 0.159901(19) -0.05534(3)
Zn3 Zn 0.44623(3) 0.437357(19) 0.07008(3)
O1 O 0.41624(18) 0.44121(12) -0.06139(17)
O2 O 0.1097(2) 0.65565(12) 0.43626(18)
O3 O 0.10706(18) 0.06699(11) 0.03493(18)
O4 O 0.07863(18) 0.75248(12) 0.11750(18)
O5 O 0.41777(19) 0.54710(12) -0.11041(18)
O6 O 0.07477(19) 0.16754(12) -0.02770(19)
O7 O 0.43214(19) 0.34163(12) 0.09345(18)
O8 O 0.3612(2) 0.51038(13) 0.09846(18)
O9 O 0.2229(2) 0.74490(13) 0.06342(18)
O10 O 0.4504(2) 0.03083(14) 0.1729(2)
O11 O 0.27390(19) 0.36094(12) 0.07398(19)
O12 O 0.3923(2) 0.47662(12) 0.23868(19)
O13 O 0.1004(2) 0.54398(13) 0.42190(19)
C1 C 0.2229(3) 0.15316(17) 0.0577(2)
O14 O 0.0689(2) 0.31414(15) -0.2682(2)
C2 C 0.2350(3) 0.55832(17) 0.2867(2)
C3 C 0.3444(3) 0.32278(17) 0.0856(2)
C4 C 0.1624(3) 0.72463(17) 0.1130(2)
O15 O 0.0502(2) 0.56076(13) -0.38519(18)
C5 C 0.1226(3) 0.60133(17) 0.3966(2)
O16 O 0.0760(3) 0.32669(17) -0.1204(2)
C6 C 0.0949(3) 0.34526(19) -0.2017(3)
O17 O 0.1827(2) 0.61827(14) -0.3534(2)
C7 C 0.2857(3) 0.47886(17) -0.1596(2)
C8 C 0.2336(3) 0.42028(18) -0.1489(3)
C9 C 0.3497(3) 0.51337(16) 0.1812(2)
C10 C 0.1490(3) 0.40935(18) -0.2040(3)
C11 C 0.1462(3) 0.66130(17) 0.2545(2)
C12 C 0.3803(3) 0.49014(17) -0.1055(2)
C13 C 0.2520(3) 0.52671(17) -0.2226(2)
C14 C 0.3805(3) 0.13727(18) 0.1348(3)
C15 C 0.2406(3) 0.22139(17) 0.0545(3)
C16 C 0.3269(3) 0.24812(17) 0.0908(2)
C17 C 0.1673(3) 0.51572(17) -0.2748(2)
C18 C 0.1269(2) 0.12658(17) 0.0185(2)
C19 C 0.4604(3) 0.09646(18) 0.1819(3)
O18 O 0.5282(3) 0.12237(16) 0.2229(3)
C20 C 0.1155(3) 0.45664(18) -0.2672(3)
C21 C 0.2939(3) 0.11041(18) 0.0986(3)
C22 C 0.2769(3) 0.56467(16) 0.2064(2)
C23 C 0.2517(3) 0.61741(17) 0.1486(3)
C24 C 0.1861(3) 0.66606(17) 0.1729(2)
C25 C 0.1689(3) 0.60692(16) 0.3106(2)
C26 C 0.3971(3) 0.20610(17) 0.1310(3)
C27 C 0.1326(3) 0.56755(18) -0.3423(2)
H1 H 0.289(3) 0.570(2) -0.225(3)
H2 H 0.258(3) 0.386(2) -0.107(3)
H3 H 0.454(3) 0.2284(19) 0.157(3)
H4 H 0.061(4) 0.447(2) -0.306(3)
H5 H 0.282(4) 0.066(2) 0.097(3)
H6 H 0.190(4) 0.251(2) 0.027(3)
H7 H 0.502(4) 0.011(3) 0.200(4)
H8 H 0.031(6) 0.292(4) -0.112(6)
Zn2B Zn 0.06754(3) -0.159901(19) 0.05534(3)
Zn3B Zn -0.44623(3) -0.437357(19) -0.07008(3)
O1B O -0.41624(18) -0.44121(12) 0.06139(17)
O2B O -0.1097(2) -0.65565(12) -0.43626(18)
O3B O -0.10706(18) -0.06699(11) -0.03493(18)
O4B O -0.07863(18) -0.75248(12) -0.11750(18)
O5B O -0.41777(19) -0.54710(12) 0.11041(18)
O6B O -0.07477(19) -0.16754(12) 0.02770(19)
O7B O -0.43214(19) -0.34163(12) -0.09345(18)
O8B O -0.3612(2) -0.51038(13) -0.09846(18)
O9B O -0.2229(2) -0.74490(13) -0.06342(18)
O10B O -0.4504(2) -0.03083(14) -0.1729(2)
O11B O -0.27390(19) -0.36094(12) -0.07398(19)
O12B O -0.3923(2) -0.47662(12) -0.23868(19)
O13B O -0.1004(2) -0.54398(13) -0.42190(19)
C1B C -0.2229(3) -0.15316(17) -0.0577(2)
O14B O -0.0689(2) -0.31414(15) 0.2682(2)
C2B C -0.2350(3) -0.55832(17) -0.2867(2)
C3B C -0.3444(3) -0.32278(17) -0.0856(2)
C4B C -0.1624(3) -0.72463(17) -0.1130(2)
O15B O -0.0502(2) -0.56076(13) 0.38519(18)
C5B C -0.1226(3) -0.60133(17) -0.3966(2)
O16B O -0.0760(3) -0.32669(17) 0.1204(2)
C6B C -0.0949(3) -0.34526(19) 0.2017(3)
O17B O -0.1827(2) -0.61827(14) 0.3534(2)
C7B C -0.2857(3) -0.47886(17) 0.1596(2)
C8B C -0.2336(3) -0.42028(18) 0.1489(3)
C9B C -0.3497(3) -0.51337(16) -0.1812(2)
C10B C -0.1490(3) -0.40935(18) 0.2040(3)
C11B C -0.1462(3) -0.66130(17) -0.2545(2)
C12B C -0.3803(3) -0.49014(17) 0.1055(2)
C13B C -0.2520(3) -0.52671(17) 0.2226(2)
C14B C -0.3805(3) -0.13727(18) -0.1348(3)
C15B C -0.2406(3) -0.22139(17) -0.0545(3)
C16B C -0.3269(3) -0.24812(17) -0.0908(2)
C17B C -0.1673(3) -0.51572(17) 0.2748(2)
C18B C -0.1269(2) -0.12658(17) -0.0185(2)
C19B C -0.4604(3) -0.09646(18) -0.1819(3)
O18B O -0.5282(3) -0.12237(16) -0.2229(3)
C20B C -0.1155(3) -0.45664(18) 0.2672(3)
C21B C -0.2939(3) -0.11041(18) -0.0986(3)
C22B C -0.2769(3) -0.56467(16) -0.2064(2)
C23B C -0.2517(3) -0.61741(17) -0.1486(3)
C24B C -0.1861(3) -0.66606(17) -0.1729(2)
C25B C -0.1689(3) -0.60692(16) -0.3106(2)
C26B C -0.3971(3) -0.20610(17) -0.1310(3)
C27B C -0.1326(3) -0.56755(18) 0.3423(2)
H1B H -0.289(3) -0.570(2) 0.225(3)
H2B H -0.258(3) -0.386(2) 0.107(3)
H3B H -0.454(3) -0.2284(19) -0.157(3)
H4B H -0.061(4) -0.447(2) 0.306(3)
H5B H -0.282(4) -0.066(2) -0.097(3)
H6B H -0.190(4) -0.251(2) -0.027(3)
H7B H -0.502(4) -0.011(3) -0.200(4)
H8B H -0.031(6) -0.292(4) 0.112(6)
Zn1A Zn -0.0000 -0.5000 -0.5000
Zn1A_2 Zn -0.0000 -0.5000 0.5000
Zn1A_3 Zn 0.0000 0.5000 -0.5000
Zn1A_4 Zn 0.0000 0.5000 0.5000
Zn2_2 Zn -0.06754(3) -0.840099(19) -0.05534(3)
Zn2A Zn 0.06754(3) 0.659901(19) -0.44466(3)
Zn2A_2 Zn 0.06754(3) 0.659901(19) 0.55534(3)
Zn2B_2 Zn 0.06754(3) 0.840099(19) 0.05534(3)
Zn2C Zn -0.06754(3) -0.659901(19) -0.55534(3)
Zn2C_2 Zn -0.06754(3) -0.659901(19) 0.44466(3)
Zn3_2 Zn -0.55377(3) -0.562643(19) 0.07008(3)
Zn3B_2 Zn 0.55377(3) 0.562643(19) -0.07008(3)
O2A O -0.1097(2) 0.15565(12) 0.06374(18)
O2C O 0.1097(2) -0.15565(12) -0.06374(18)
O4_2 O 0.07863(18) -0.24752(12) 0.11750(18)
O4B_2 O -0.07863(18) 0.24752(12) -0.11750(18)
O5_2 O -0.58223(19) -0.45290(12) -0.11041(18)
O5B_2 O 0.58223(19) 0.45290(12) 0.11041(18)
O13A O -0.1004(2) 0.04398(13) 0.07810(19)
O13C O 0.1004(2) -0.04398(13) -0.07810(19)
O15A O -0.0502(2) 0.06076(13) -0.11481(18)
O15C O 0.0502(2) -0.06076(13) 0.11481(18)
O17A O -0.1827(2) 0.11827(14) -0.1466(2)
O17C O 0.1827(2) -0.11827(14) 0.1466(2)
N1 N 0.1014(3) 0.13199(18) 0.6547(3)
C28 C 0.0250(3) 0.1724(2) 0.6020(3)
H9 H 0.0259 0.1607 0.5397
H10 H 0.0417 0.2194 0.6079
C29 C 0.0849(4) 0.0559(3) 0.6442(5)
H11 H 0.1261 0.0326 0.6891
H12 H 0.0182 0.0457 0.6541
C30 C 0.1059(5) 0.0308(3) 0.5539(6)
H13 H 0.0947 -0.0165 0.5507
H14 H 0.1721 0.0400 0.5442
H15 H 0.0642 0.0530 0.5092
C31 C 0.2137(5) 0.1506(4) 0.7894(4)
H16 H 0.2164 0.1640 0.8506
H17 H 0.2522 0.1806 0.7573
H18 H 0.2384 0.1059 0.7855
C32 C -0.0768(4) 0.1628(3) 0.6293(4)
H19 H -0.1208 0.1899 0.5924
H20 H -0.0793 0.1759 0.6903
H21 H -0.0949 0.1166 0.6226
C33 C 0.1118(5) 0.1527(3) 0.7506(4)
H22 H 0.0871 0.1978 0.7557
H23 H 0.0730 0.1233 0.7843
N2 N 0.5940(3) 0.2036(2) 0.8893(3)
C34 C 0.6341(6) 0.1070(6) 0.9887(7)
H24 H 0.6099 0.0808 1.0353
H25 H 0.6946 0.1270 1.0096
H26 H 0.6434 0.0787 0.9387
C35 C 0.6375(4) 0.2060(3) 0.7321(4)
H27 H 0.6264 0.1838 0.6758
H28 H 0.7052 0.2045 0.7512
H29 H 0.6170 0.2518 0.7261
C36 C 0.5810(4) 0.1716(2) 0.7996(4)
H30 H 0.5129 0.1721 0.7790
H31 H 0.6014 0.1252 0.8045
C37 C 0.4347(4) 0.2675(3) 0.8768(4)
H32 H 0.4089 0.3119 0.8797
H33 H 0.4088 0.2401 0.9214
H34 H 0.4172 0.2488 0.8192
C38 C 0.5432(4) 0.2700(3) 0.8927(4)
H35 H 0.5597 0.2899 0.9506
H36 H 0.5679 0.2993 0.8486
C39 C 0.5658(5) 0.1584(4) 0.9623(6)
H37 H 0.5557 0.1857 1.0139
H38 H 0.5045 0.1375 0.9432
loop_
_geom_bond_atom_site_label_1
_geom_bond_atom_site_label_2
_geom_bond_site_symmetry_1
_geom_bond_site_symmetry_2
Zn1 O3 1_555 1_555
Zn2 O6 1_555 1_555
Zn3 O1 1_555 1_555
O1 C12 1_555 1_555
O2 C5 1_555 1_555
O3 C18 1_555 1_555
O4 C4 1_555 1_555
O5 C12 1_555 1_555
O6 C18 1_555 1_555
O7 Zn3 1_555 1_555
O8 Zn3 1_555 1_555
O9 C4 1_555 1_555
O10 C19 1_555 1_555
O11 C3 1_555 1_555
O12 C9 1_555 1_555
O13 C5 1_555 1_555
C1 C15 1_555 1_555
O14 C6 1_555 1_555
C2 C22 1_555 1_555
C3 O7 1_555 1_555
C4 C24 1_555 1_555
O15 C27 1_555 1_555
C5 C25 1_555 1_555
O16 C6 1_555 1_555
C6 C10 1_555 1_555
O17 C27 1_555 1_555
C7 C8 1_555 1_555
C8 C10 1_555 1_555
C9 O8 1_555 1_555
C10 C20 1_555 1_555
C11 C24 1_555 1_555
C12 C7 1_555 1_555
C13 C7 1_555 1_555
C14 C19 1_555 1_555
C15 C16 1_555 1_555
C16 C3 1_555 1_555
C17 C13 1_555 1_555
C18 C1 1_555 1_555
C19 O18 1_555 1_555
C20 C17 1_555 1_555
C21 C1 1_555 1_555
C22 C9 1_555 1_555
C23 C22 1_555 1_555
C24 C23 1_555 1_555
C25 C2 1_555 1_555
C26 C14 1_555 1_555
C27 C17 1_555 1_555
H1 C13 1_555 1_555
H2 C8 1_555 1_555
H3 C26 1_555 1_555
H4 C20 1_555 1_555
H5 C21 1_555 1_555
H6 C15 1_555 1_555
H7 O10 1_555 1_555
H8 O16 1_555 1_555
N1 C28 1_555 1_555
C28 H9 1_555 1_555
H10 C28 1_555 1_555
C29 N1 1_555 1_555
H11 C29 1_555 1_555
H12 C29 1_555 1_555
C30 C29 1_555 1_555
H13 C30 1_555 1_555
H14 C30 1_555 1_555
H15 C30 1_555 1_555
C31 H16 1_555 1_555
H17 C31 1_555 1_555
H18 C31 1_555 1_555
C32 C28 1_555 1_555
H19 C32 1_555 1_555
H20 C32 1_555 1_555
H21 C32 1_555 1_555
C33 N1 1_555 1_555
H22 C33 1_555 1_555
H23 C33 1_555 1_555
N2 C36 1_555 1_555
C34 H24 1_555 1_555
H25 C34 1_555 1_555
H26 C34 1_555 1_555
C35 H27 1_555 1_555
H28 C35 1_555 1_555
H29 C35 1_555 1_555
C36 C35 1_555 1_555
H30 C36 1_555 1_555
H31 C36 1_555 1_555
C37 H32 1_555 1_555
H33 C37 1_555 1_555
H34 C37 1_555 1_555
C38 N2 1_555 1_555
H35 C38 1_555 1_555
H36 C38 1_555 1_555
C39 N2 1_555 1_555
H37 C39 1_555 1_555
H38 C39 1_555 1_555
Zn2B O6B 1_555 1_555
Zn3B O1B 1_555 1_555
O1B C12B 1_555 1_555
O2B C5B 1_555 1_555
O3B Zn1 1_555 1_555
O4B C4B 1_555 1_555
O5B C12B 1_555 1_555
O6B C18B 1_555 1_555
O7B Zn3B 1_555 1_555
O8B Zn3B 1_555 1_555
O9B C4B 1_555 1_555
O10B C19B 1_555 1_555
O11B C3B 1_555 1_555
O12B C9B 1_555 1_555
O13B C5B 1_555 1_555
C1B C15B 1_555 1_555
O14B C6B 1_555 1_555
C2B C22B 1_555 1_555
C3B O7B 1_555 1_555
C4B C24B 1_555 1_555
O15B C27B 1_555 1_555
C5B C25B 1_555 1_555
O16B C6B 1_555 1_555
C6B C10B 1_555 1_555
O17B C27B 1_555 1_555
C7B C8B 1_555 1_555
C8B C10B 1_555 1_555
C9B O8B 1_555 1_555
C10B C20B 1_555 1_555
C11B C24B 1_555 1_555
C12B C7B 1_555 1_555
C13B C7B 1_555 1_555
C14B C19B 1_555 1_555
C15B C16B 1_555 1_555
C16B C3B 1_555 1_555
C17B C13B 1_555 1_555
C18B O3B 1_555 1_555
C19B O18B 1_555 1_555
C20B C17B 1_555 1_555
C21B C1B 1_555 1_555
C22B C9B 1_555 1_555
C23B C22B 1_555 1_555
C24B C23B 1_555 1_555
C25B C2B 1_555 1_555
C26B C14B 1_555 1_555
C27B C17B 1_555 1_555
H1B C13B 1_555 1_555
H2B C8B 1_555 1_555
H3B C26B 1_555 1_555
H4B C20B 1_555 1_555
H5B C21B 1_555 1_555
H6B C15B 1_555 1_555
H7B O10B 1_555 1_555
H8B O16B 1_555 1_555
Zn1A O13B 1_555 1_555
Zn1A_2 O15B 1_555 1_555
Zn1A_3 O15 1_555 1_555
Zn1A_4 O13 1_555 1_555
Zn2_2 O4B 1_555 1_555
Zn2A O15 1_555 1_555
Zn2A_2 O2 1_555 1_555
Zn2B_2 O4 1_555 1_555
Zn2C O2B 1_555 1_555
Zn2C_2 O15B 1_555 1_555
Zn3_2 O5B 1_555 1_555
Zn3B_2 O5 1_555 1_555
O2A Zn2 1_555 1_555
O2C Zn2B 1_555 1_555
O4_2 Zn2B 1_555 1_555
O4B_2 Zn2 1_555 1_555
O5_2 Zn3B 1_555 1_555
O5B_2 Zn3 1_555 1_555
O13A Zn1 1_555 1_555
O13C Zn1 1_555 1_555
O15A Zn1 1_555 1_555
O15C Zn1 1_555 1_555
O17A Zn2 1_555 1_555
O17C Zn2B 1_555 1_555
Zn2 O15A 1_555 1_555
O17 Zn2A 1_555 1_555
C11 C25 1_555 1_555
C14 C21 1_555 1_555
C16 C26 1_555 1_555
C31 C33 1_555 1_555
C34 C39 1_555 1_555
C37 C38 1_555 1_555
Zn2B O15C 1_555 1_555
C1B C18B 1_555 1_555
O17B Zn2C_2 1_555 1_555
C11B C25B 1_555 1_555
C14B C21B 1_555 1_555
C16B C26B 1_555 1_555

#END
