
#######################################################################
#
#                 Cambridge Crystallographic Data Centre
#                                CCDC 
#
#######################################################################
#
# If this CIF has been generated from an entry in the Cambridge 
# Structural Database, then it will include bibliographic, chemical, 
# crystal, experimental, refinement or atomic coordinate data resulting 
# from the CCDC's data processing and validation procedures.
#
#######################################################################

data_OVEJIJ
_chemical_formula_moiety         '(C2 H24 N2 O48 P8 V9)n'
_symmetry_cell_setting           monoclinic
_symmetry_space_group_name_H-M   'P 21/n'
_symmetry_Int_Tables_number      14
_space_group_name_Hall           '-P 2yn'
loop_
_symmetry_equiv_pos_site_id
_symmetry_equiv_pos_as_xyz
1 x,y,z
2 1/2-x,1/2+y,1/2-z
3 -x,-y,-z
4 1/2+x,1/2-y,1/2+z
_cell_length_a                   14.3049(3)
_cell_length_b                   10.1537(2)
_cell_length_c                   18.3128(3)
_cell_angle_alpha                90
_cell_angle_beta                 90.107(2)
_cell_angle_gamma                90
_cell_volume                     2659.89
loop_
_atom_site_label
_atom_site_type_symbol
_atom_site_fract_x
_atom_site_fract_y
_atom_site_fract_z
V1 V 0.28821(5) 1.20040(7) 0.19680(4)
V2 V -0.0000 1.5000 0.0000
V3 V 0.24235(5) 1.68450(7) 0.10383(4)
V4 V 0.25322(5) 1.84789(7) -0.19661(4)
V5 V 0.25326(6) 1.36237(7) -0.10754(4)
P1 P 0.34595(9) 1.63699(11) -0.30221(7)
P2 P 0.18414(8) 1.64285(10) -0.06954(6)
P3 P 0.33320(8) 1.42923(10) 0.31365(6)
P4 P 0.19833(9) 1.38912(11) 0.06685(6)
O1 O 0.1970(2) 1.7124(3) 0.00388(17)
O2 O 0.4298(2) 1.4874(3) 0.2948(2)
O3 O 0.4444(3) 1.6743(3) -0.2754(2)
O4 O 0.2873(3) 1.3714(3) 0.24552(18)
O5 O 0.0961(2) 1.5587(4) -0.07149(18)
O6 O 0.2180(3) 1.3260(3) -0.00646(18)
O7 O 0.3259(3) 1.7088(3) -0.37348(18)
O8 O 0.3926(3) 1.1846(4) 0.1690(2)
O9 O 0.0981(2) 1.4440(4) 0.07087(19)
O10 O 0.2065(3) 1.2840(3) 0.12597(18)
O11 O 0.2746(2) 1.6768(3) -0.24342(17)
O12 O 0.3434(2) 1.7489(3) 0.1080(2)
O13 O 0.1725(2) 1.7486(3) -0.12854(17)
O14 O 0.2817(3) 1.9257(3) -0.29383(17)
O15 O 0.2723(3) 1.5402(3) 0.34112(18)
O16 O 0.2680(2) 1.5005(3) 0.08161(17)
O17 O 0.3577(3) 1.3125(4) -0.1158(3)
O18 O 0.2838(3) 1.1189(3) 0.29521(18)
O19 O -0.0019(3) 1.6730(4) 0.0472(3)
O20 O 0.3466(2) 1.3254(3) 0.37284(17)
O21 O 0.3409(2) 1.4884(3) -0.31566(18)
O22 O 0.2680(2) 1.5539(3) -0.08576(18)
O23 O 0.3429(3) 1.8856(3) -0.1504(2)
V1B V -0.28821(5) 1.79960(7) -0.19680(4)
V1A V 0.21179(5) 1.70040(7) 0.30320(4)
V1A_2 V 0.21179(5) 0.70040(7) 0.30320(4)
V3B V -0.24235(5) 1.31550(7) -0.10383(4)
V3A V 0.25765(5) 1.18450(7) 0.39617(4)
V3_2 V 0.24235(5) 0.68450(7) 0.10383(4)
V4B V -0.25322(5) 1.15211(7) 0.19661(4)
V4A V 0.24678(5) 1.34789(7) -0.30339(4)
V4A_2 V 0.24678(5) 2.34789(7) -0.30339(4)
V5B V -0.25326(6) 1.63763(7) 0.10754(4)
V5A V 0.24674(6) 1.86237(7) -0.39246(4)
V5_2 V 0.25326(6) 2.36237(7) -0.10754(4)
P1A P 0.15405(9) 2.13699(11) -0.19779(7)
P2B P -0.18414(8) 1.35715(10) 0.06954(6)
P3A P 0.16680(8) 0.92923(10) 0.18635(6)
P4B P -0.19833(9) 1.61088(11) -0.06685(6)
O1B O -0.1970(2) 1.2876(3) -0.00388(17)
O2A O 0.0702(2) 0.9874(3) 0.2052(2)
O3A O 0.0556(3) 2.1743(3) -0.2246(2)
O4A O 0.2127(3) 0.8714(3) 0.25448(18)
O4B O -0.2873(3) 1.6286(3) -0.24552(18)
O5B O -0.0961(2) 1.4413(4) 0.07149(18)
O6B O -0.2180(3) 1.6740(3) 0.00646(18)
O7A O 0.1741(3) 2.2088(3) -0.12652(18)
O7A_2 O 0.1741(3) 1.2088(3) -0.12652(18)
O7C O -0.1741(3) 1.7912(3) 0.12652(18)
O8B O -0.3926(3) 1.8154(4) -0.1690(2)
O9B O -0.0981(2) 1.5560(4) -0.07087(19)
O10B O -0.2065(3) 1.7160(3) -0.12597(18)
O11A O 0.2254(2) 2.1768(3) -0.25658(17)
O11B O -0.2746(2) 1.3232(3) 0.24342(17)
O12B O -0.3434(2) 1.2511(3) -0.1080(2)
O13B O -0.1725(2) 1.2514(3) 0.12854(17)
O14A O 0.2183(3) 1.4257(3) -0.20617(17)
O14B O -0.2817(3) 1.0743(3) 0.29383(17)
O14C O -0.2183(3) 1.5743(3) 0.20617(17)
O15A O 0.2277(3) 1.0402(3) 0.15888(18)
O15C O -0.2277(3) 1.9598(3) -0.15888(18)
O16B O -0.2680(2) 1.4995(3) -0.08161(17)
O17B O -0.3577(3) 1.6875(4) 0.1158(3)
O18A O 0.2162(3) 1.6189(3) 0.20479(18)
O18B O -0.2838(3) 1.8811(3) -0.29521(18)
O18C O -0.2162(3) 1.3811(3) -0.20479(18)
O19B O 0.0019(3) 1.3270(4) -0.0472(3)
O20A O 0.1534(2) 0.8254(3) 0.12716(17)
O20A_2 O 0.1534(2) 1.8254(3) 0.12716(17)
O20C O -0.1534(2) 1.1746(3) -0.12716(17)
O21A O 0.1591(2) 1.9884(3) -0.18434(18)
O21C O -0.1591(2) 1.0116(3) 0.18434(18)
O22B O -0.2680(2) 1.4461(3) 0.08576(18)
O23B O -0.3429(3) 1.1144(3) 0.1504(2)
O24 O 0.9805(13) 0.6621(14) 0.4871(7)
O26 O 0.9505(6) 0.8512(10) 0.3807(6)
C1 C 0.4784(7) 0.8136(7) 0.2563(5)
C2 C 0.5102(8) 0.9405(6) 0.2390(4)
N1 N 0.5013(3) 1.0454(4) 0.2943(2)
N2 N 0.4851(4) 0.7514(6) 0.3233(4)
loop_
_geom_bond_atom_site_label_1
_geom_bond_atom_site_label_2
_geom_bond_site_symmetry_1
_geom_bond_site_symmetry_2
V1 O4 1_555 1_555
V2 O5 1_555 1_555
V3 O1 1_555 1_555
V4 O11 1_555 1_555
V5 O6 1_555 1_555
P1 O3 1_555 1_555
P2 O1 1_555 1_555
P3 O2 1_555 1_555
P4 O6 1_555 1_555
O4 P3 1_555 1_555
O5 P2 1_555 1_555
O7 P1 1_555 1_555
O8 V1 1_555 1_555
O9 V2 1_555 1_555
O10 V1 1_555 1_555
O11 P1 1_555 1_555
O12 V3 1_555 1_555
O13 V4 1_555 1_555
O14 V4 1_555 1_555
O15 P3 1_555 1_555
O16 V3 1_555 1_555
O17 V5 1_555 1_555
O18 V1 1_555 1_555
O19 V2 1_555 1_555
O20 P3 1_555 1_555
O21 P1 1_555 1_555
O22 V5 1_555 1_555
O23 V4 1_555 1_555
C1 C2 1_555 1_555
C2 N1 1_555 1_555
N2 C1 1_555 1_555
V1B O4B 1_555 1_555
V1A O15 1_555 1_555
V1A_2 O4A 1_555 1_555
V3B O1B 1_555 1_555
V3A O18 1_555 1_555
V3_2 O20A 1_555 1_555
V4B O11B 1_555 1_555
V4A O21 1_555 1_555
V4A_2 O11A 1_555 1_555
V5B O6B 1_555 1_555
V5A O7 1_555 1_555
V5_2 O7A 1_555 1_555
P1A O3A 1_555 1_555
P2B O1B 1_555 1_555
P3A O2A 1_555 1_555
P4B O6B 1_555 1_555
O4A P3A 1_555 1_555
O5B V2 1_555 1_555
O7A P1A 1_555 1_555
O7A_2 V5 1_555 1_555
O7C V5B 1_555 1_555
O8B V1B 1_555 1_555
O9B V2 1_555 1_555
O10B V1B 1_555 1_555
O11A P1A 1_555 1_555
O12B V3B 1_555 1_555
O13B V4B 1_555 1_555
O14A V5 1_555 1_555
O14B V4B 1_555 1_555
O14C V5B 1_555 1_555
O15A V1 1_555 1_555
O15C V1B 1_555 1_555
O16B V3B 1_555 1_555
O17B V5B 1_555 1_555
O18A V3 1_555 1_555
O18B V1B 1_555 1_555
O18C V3B 1_555 1_555
O19B V2 1_555 1_555
O20A P3A 1_555 1_555
O20A_2 V3 1_555 1_555
O20C V3B 1_555 1_555
O21A V4 1_555 1_555
O21C V4B 1_555 1_555
O22B V5B 1_555 1_555
O23B V4B 1_555 1_555
P2 O13 1_555 1_555
P2 O22 1_555 1_555
P4 O9 1_555 1_555
P4 O10 1_555 1_555
P4 O16 1_555 1_555
O14 V5A 1_555 1_555
O20 V3A 1_555 1_555
V1A O18A 1_555 1_555
V4A O14A 1_555 1_555
P1A O21A 1_555 1_555
P2B O5B 1_555 1_555
P2B O13B 1_555 1_555
P2B O22B 1_555 1_555
P3A O15A 1_555 1_555
P4B O9B 1_555 1_555
P4B O10B 1_555 1_555
P4B O16B 1_555 1_555

#END
