
#######################################################################
#
#                 Cambridge Crystallographic Data Centre
#                                CCDC 
#
#######################################################################
#
# If this CIF has been generated from an entry in the Cambridge 
# Structural Database, then it will include bibliographic, chemical, 
# crystal, experimental, refinement or atomic coordinate data resulting 
# from the CCDC's data processing and validation procedures.
#
#######################################################################

data_DIYTEM
_chemical_formula_moiety         '(C31 H20 Cd2 N6 O9)n'
_symmetry_cell_setting           monoclinic
_symmetry_space_group_name_H-M   'P 21/c'
_symmetry_Int_Tables_number      14
_space_group_name_Hall           '-P 2ybc'
loop_
_symmetry_equiv_pos_site_id
_symmetry_equiv_pos_as_xyz
1 x,y,z
2 -x,1/2+y,1/2-z
3 -x,-y,-z
4 x,1/2-y,1/2+z
_cell_length_a                   13.3294(17)
_cell_length_b                   16.202(2)
_cell_length_c                   20.283(3)
_cell_angle_alpha                90
_cell_angle_beta                 99.496(2)
_cell_angle_gamma                90
_cell_volume                     4320.35
loop_
_atom_site_label
_atom_site_type_symbol
_atom_site_fract_x
_atom_site_fract_y
_atom_site_fract_z
Cd1 Cd 0.32432(3) 0.49806(3) 0.35787(2)
Cd2 Cd 0.03022(5) 0.30156(6) 0.73516(3)
O1 O 0.1426(3) 0.4638(4) 0.3419(2)
O2 O 0.2411(3) 0.4479(3) 0.4382(2)
O3 O 0.1010(4) 0.3641(4) 0.6410(3)
O4 O -0.0491(5) 0.3130(6) 0.6274(3)
O5 O -0.0766(4) 0.2146(4) 0.3564(3)
O6 O -0.1043(5) 0.2686(6) 0.2555(3)
O7 O -0.4910(3) 0.4752(3) 0.4083(3)
O8 O -0.5732(3) 0.3937(3) 0.3332(3)
O9 O -0.0064(6) 0.4431(6) 0.7531(3)
H1 H 0.0142 0.4434 0.7950
H2 H -0.0631 0.4418 0.7268
N1 N 0.3368(4) 0.6266(4) 0.3999(3)
N2 N 0.3774(4) 0.7269(4) 0.4703(2)
N3 N 0.6852(4) 0.7975(4) 0.6204(3)
N4 N 0.8390(4) 0.8011(5) 0.6803(3)
N5 N 0.3609(4) 0.9018(4) 0.6628(3)
N6 N 0.3138(4) 0.9569(4) 0.7517(3)
C1 C 0.0655(4) 0.4178(4) 0.4343(3)
C2 C 0.0802(5) 0.4030(5) 0.5025(3)
H3 H 0.1441 0.4117 0.5279
C3 C 0.0014(5) 0.3754(5) 0.5334(3)
C4 C -0.0950(4) 0.3648(4) 0.4936(3)
H4 H -0.1494 0.3483 0.5138
C5 C -0.1105(4) 0.3783(4) 0.4260(3)
C6 C -0.0297(4) 0.4058(4) 0.3971(3)
H5 H -0.0399 0.4166 0.3515
C7 C -0.2115(4) 0.3599(4) 0.3830(3)
C8 C -0.2157(5) 0.3058(5) 0.3288(3)
C9 C -0.3087(5) 0.2904(5) 0.2881(3)
H6 H -0.3115 0.2556 0.2513
C10 C -0.3961(5) 0.3263(5) 0.3019(3)
H7 H -0.4579 0.3149 0.2748
C11 C -0.3935(4) 0.3790(4) 0.3556(3)
C12 C -0.3004(5) 0.3962(4) 0.3961(3)
H8 H -0.2981 0.4323 0.4320
C13 C 0.1531(4) 0.4451(4) 0.4016(3)
C14 C 0.0197(6) 0.3517(6) 0.6055(4)
C15 C -0.1250(5) 0.2593(5) 0.3121(4)
C16 C -0.4917(5) 0.4187(4) 0.3666(3)
C17 C 0.3969(5) 0.6492(5) 0.4552(3)
H9 H 0.4458 0.6158 0.4800
C18 C 0.2770(5) 0.6931(5) 0.3798(3)
H10 H 0.2265 0.6943 0.3422
C19 C 0.3011(5) 0.7564(5) 0.4218(3)
H11 H 0.2725 0.8089 0.4189
C20 C 0.4276(5) 0.7714(4) 0.5284(3)
C21 C 0.5309(5) 0.7635(4) 0.5448(3)
H12 H 0.5680 0.7324 0.5188
C22 C 0.5782(5) 0.8041(5) 0.6024(3)
C23 C 0.5235(5) 0.8502(5) 0.6417(3)
H13 H 0.5559 0.8765 0.6801
C24 C 0.4187(5) 0.8562(4) 0.6220(3)
C25 C 0.3694(5) 0.8175(5) 0.5657(3)
H14 H 0.2993 0.8220 0.5529
C26 C 0.7522(6) 0.7779(7) 0.5791(5)
H15 H 0.7367 0.7660 0.5337
C27 C 0.8461(6) 0.7791(7) 0.6169(5)
H16 H 0.9064 0.7667 0.6016
C28 C 0.7429(6) 0.8124(7) 0.6789(4)
H17 H 0.7160 0.8296 0.7161
C29 C 0.3852(5) 0.9165(5) 0.7277(4)
H18 H 0.4461 0.8999 0.7535
C30 C 0.2379(6) 0.9662(7) 0.6968(4)
H19 H 0.1759 0.9922 0.6975
C31 C 0.2664(6) 0.9330(6) 0.6433(4)
H20 H 0.2287 0.9313 0.6005
Cd1_2 Cd -0.67568(3) 0.49806(3) 0.35787(2)
Cd1C Cd 0.32432(3) 1.00194(3) 0.85787(2)
Cd2A Cd 0.96978(5) 0.80156(6) 0.76484(3)
Cd2C Cd 0.03022(5) 0.19844(6) 0.23516(3)
O6C O -0.1043(5) 0.2314(6) 0.7555(3)
O7_2 O 0.5090(3) 0.4752(3) 0.4083(3)
O8_2 O 0.4268(3) 0.3937(3) 0.3332(3)
N4A N 0.1610(4) 0.3011(5) 0.8197(3)
N6C N 0.3138(4) 0.5431(4) 0.2517(3)
loop_
_geom_bond_atom_site_label_1
_geom_bond_atom_site_label_2
_geom_bond_site_symmetry_1
_geom_bond_site_symmetry_2
Cd1 O1 1_555 1_555
Cd2 O3 1_555 1_555
O1 C13 1_555 1_555
O2 Cd1 1_555 1_555
O3 C14 1_555 1_555
O4 Cd2 1_555 1_555
O5 C15 1_555 1_555
O6 C15 1_555 1_555
O7 C16 1_555 1_555
O8 C16 1_555 1_555
O9 Cd2 1_555 1_555
H1 O9 1_555 1_555
H2 O9 1_555 1_555
N1 Cd1 1_555 1_555
N2 C17 1_555 1_555
N3 C22 1_555 1_555
N4 C27 1_555 1_555
N5 C24 1_555 1_555
N6 C29 1_555 1_555
C1 C2 1_555 1_555
C2 H3 1_555 1_555
C3 C2 1_555 1_555
C4 C3 1_555 1_555
H4 C4 1_555 1_555
C5 C4 1_555 1_555
C6 C1 1_555 1_555
H5 C6 1_555 1_555
C7 C5 1_555 1_555
C8 C7 1_555 1_555
C9 C8 1_555 1_555
H6 C9 1_555 1_555
C10 C9 1_555 1_555
H7 C10 1_555 1_555
C11 C10 1_555 1_555
C12 C7 1_555 1_555
H8 C12 1_555 1_555
C13 O2 1_555 1_555
C14 O4 1_555 1_555
C15 C8 1_555 1_555
C16 C11 1_555 1_555
C17 N1 1_555 1_555
H9 C17 1_555 1_555
C18 N1 1_555 1_555
H10 C18 1_555 1_555
C19 N2 1_555 1_555
H11 C19 1_555 1_555
C20 N2 1_555 1_555
C21 C20 1_555 1_555
H12 C21 1_555 1_555
C22 C21 1_555 1_555
C23 C22 1_555 1_555
H13 C23 1_555 1_555
C24 C23 1_555 1_555
C25 C20 1_555 1_555
H14 C25 1_555 1_555
C26 N3 1_555 1_555
H15 C26 1_555 1_555
C27 C26 1_555 1_555
H16 C27 1_555 1_555
C28 N3 1_555 1_555
H17 C28 1_555 1_555
C29 N5 1_555 1_555
H18 C29 1_555 1_555
C30 N6 1_555 1_555
H19 C30 1_555 1_555
C31 N5 1_555 1_555
H20 C31 1_555 1_555
Cd1_2 O7 1_555 1_555
Cd1C N6 1_555 1_555
Cd2A N4 1_555 1_555
Cd2C O6 1_555 1_555
O6C Cd2 1_555 1_555
O7_2 Cd1 1_555 1_555
O8_2 Cd1 1_555 1_555
N4A Cd2 1_555 1_555
N6C Cd1 1_555 1_555
O8 Cd1_2 1_555 1_555
N4 C28 1_555 1_555
C1 C13 1_555 1_555
C3 C14 1_555 1_555
C5 C6 1_555 1_555
C11 C12 1_555 1_555
C18 C19 1_555 1_555
C24 C25 1_555 1_555
C30 C31 1_555 1_555

#END
