
#######################################################################
#
#                 Cambridge Crystallographic Data Centre
#                                CCDC 
#
#######################################################################
#
# If this CIF has been generated from an entry in the Cambridge 
# Structural Database, then it will include bibliographic, chemical, 
# crystal, experimental, refinement or atomic coordinate data resulting 
# from the CCDC's data processing and validation procedures.
#
#######################################################################

data_DIYWIT
_chemical_formula_moiety         '(C30 H30 Cd2 N4 O13)n'
_symmetry_cell_setting           monoclinic
_symmetry_space_group_name_H-M   'P 21/n'
_symmetry_Int_Tables_number      14
_space_group_name_Hall           '-P 2yn'
loop_
_symmetry_equiv_pos_site_id
_symmetry_equiv_pos_as_xyz
1 x,y,z
2 1/2-x,1/2+y,1/2-z
3 -x,-y,-z
4 1/2+x,1/2-y,1/2+z
_cell_length_a                   11.128(5)
_cell_length_b                   14.055(6)
_cell_length_c                   22.979(10)
_cell_angle_alpha                90
_cell_angle_beta                 103.992(5)
_cell_angle_gamma                90
_cell_volume                     3487.37
loop_
_atom_site_label
_atom_site_type_symbol
_atom_site_fract_x
_atom_site_fract_y
_atom_site_fract_z
Cd1 Cd 0.69861(2) 0.52606(2) 0.197755(11)
Cd2 Cd 1.06686(2) 0.67120(2) 0.192861(11)
N1 N 0.8958(3) 0.3409(3) 0.70696(15)
N2 N 0.9066(4) 0.3691(3) 0.61497(16)
N3 N 0.6180(3) 0.6589(2) 0.35244(15)
N4 N 0.6647(3) 0.6248(2) 0.26743(14)
O1 O 0.9998(3) 0.8305(2) 0.19859(15)
H1 H 0.9856 0.7986 0.2277
H2 H 1.0481 0.8677 0.2226
O2 O 1.0653(2) 0.4996(2) 0.19159(12)
H3 H 1.0047 0.4892 0.2073
H4 H 1.1382 0.4790 0.2060
O3 O 0.9337(2) 0.6787(2) 0.10165(11)
O4 O 0.8204(2) 0.62547(17) 0.16070(10)
O5 O 0.7878(2) 0.90145(18) 0.22300(11)
O6 O 0.6259(2) 0.95059(18) 0.25256(11)
O7 O 0.2512(2) 0.7512(2) 0.20543(14)
O8 O 0.2240(2) 0.6430(2) 0.13550(13)
O9 O 0.3430(2) 0.57440(19) -0.10679(11)
O10 O 0.4903(2) 0.51674(19) -0.14539(11)
C1 C 0.8332(3) 0.6478(2) 0.10917(15)
C2 C 0.7304(3) 0.6354(2) 0.05399(14)
C3 C 0.7621(3) 0.5889(3) 0.00633(15)
H5 H 0.8445 0.5731 0.0092
C4 C 0.6741(3) 0.5658(3) -0.04490(15)
H6 H 0.6971 0.5335 -0.0759
C5 C 0.5512(3) 0.5906(2) -0.05046(15)
C6 C 0.5198(3) 0.6403(2) -0.00407(15)
H7 H 0.4381 0.6593 -0.0084
C7 C 0.6072(3) 0.6628(2) 0.04902(14)
C8 C 0.4549(3) 0.5605(2) -0.10428(15)
C9 C 0.5651(3) 0.7146(2) 0.09748(14)
C10 C 0.4503(3) 0.6915(2) 0.10812(15)
H8 H 0.4017 0.6453 0.0846
C11 C 0.4073(3) 0.7357(2) 0.15283(15)
C12 C 0.4786(3) 0.8046(2) 0.18805(16)
H9 H 0.4492 0.8354 0.2177
C13 C 0.5947(3) 0.8281(2) 0.17916(15)
C14 C 0.6356(3) 0.7838(2) 0.13375(14)
H10 H 0.7122 0.8006 0.1273
C15 C 0.6749(3) 0.8976(2) 0.22034(15)
C16 C 0.2863(3) 0.7082(3) 0.16533(18)
C17 C 0.5921(4) 0.6047(3) 0.30299(18)
H11 H 0.5304 0.5586 0.2949
C18 C 0.7147(4) 0.7162(3) 0.3483(2)
H12 H 0.7538 0.7610 0.3763
C19 C 0.7429(4) 0.6955(3) 0.29597(19)
H13 H 0.8050 0.7242 0.2814
C20 C 0.5707(5) 0.6430(4) 0.4064(2)
H14 H 0.4909 0.6114 0.3953
H15 H 0.5601 0.7035 0.4248
C21 C 0.6623(5) 0.5818(4) 0.4503(2)
C22 C 0.7431(5) 0.6195(4) 0.4990(2)
H16 H 0.7371 0.6836 0.5079
C23 C 0.8339(6) 0.5644(4) 0.5356(2)
H17 H 0.8882 0.5927 0.5681
C24 C 0.8457(6) 0.4710(4) 0.5253(2)
C25 C 0.7615(7) 0.4319(4) 0.4775(2)
H18 H 0.7661 0.3672 0.4700
C26 C 0.6699(7) 0.4856(4) 0.4402(3)
H19 H 0.6137 0.4568 0.4085
C27 C 0.9460(6) 0.4113(4) 0.5640(2)
H20 H 0.9688 0.3609 0.5400
H21 H 1.0186 0.4505 0.5791
C28 C 0.8203(6) 0.3003(4) 0.6126(2)
H22 H 0.7741 0.2709 0.5781
C29 C 0.8136(6) 0.2824(4) 0.6691(2)
H23 H 0.7621 0.2378 0.6806
C30 C 0.9482(4) 0.3915(3) 0.6723(2)
H24 H 1.0077 0.4379 0.6862
Cd1A Cd 0.80139(2) 1.02606(2) 0.302245(11)
Cd1B Cd 0.30139(2) 0.47394(2) -0.197755(11)
Cd2_2 Cd 0.06686(2) 0.67120(2) 0.192861(11)
Cd2B Cd 0.93314(2) 0.32880(2) 0.807139(11)
N1B N 1.1042(3) 0.6591(3) 0.29304(15)
O5A O 0.7122(2) 0.40145(18) 0.27700(11)
O6A O 0.8741(2) 0.45059(18) 0.24744(11)
O7_2 O 1.2512(2) 0.7512(2) 0.20543(14)
O8_2 O 1.2240(2) 0.6430(2) 0.13550(13)
O9B O 0.6570(2) 0.42560(19) 0.10679(11)
O10B O 0.5097(2) 0.48326(19) 0.14539(11)
O11 O 0.3454(3) 0.4626(3) 0.22669(16)
H25 H 0.3306 0.4869 0.2581
H26 H 0.3503 0.4975 0.1972
O12 O 0.9172(3) 0.4136(3) 0.09343(16)
H27 H 0.9268 0.3928 0.0601
H28 H 0.8415 0.4156 0.0945
O13 O 0.9137(3) 0.3438(3) 0.98172(15)
H29 H 0.8604 0.3570 0.9495
H30 H 0.9802 0.3205 0.9758
loop_
_geom_bond_atom_site_label_1
_geom_bond_atom_site_label_2
_geom_bond_site_symmetry_1
_geom_bond_site_symmetry_2
Cd1 N4 1_555 1_555
Cd2 O1 1_555 1_555
N1 C29 1_555 1_555
N2 C27 1_555 1_555
N3 C17 1_555 1_555
N4 C17 1_555 1_555
O1 H1 1_555 1_555
H2 O1 1_555 1_555
O2 Cd2 1_555 1_555
H3 O2 1_555 1_555
H4 O2 1_555 1_555
O3 Cd2 1_555 1_555
O4 Cd1 1_555 1_555
O5 C15 1_555 1_555
O6 C15 1_555 1_555
O7 C16 1_555 1_555
O8 C16 1_555 1_555
O9 C8 1_555 1_555
O10 C8 1_555 1_555
C1 O3 1_555 1_555
C2 C1 1_555 1_555
C3 C2 1_555 1_555
H5 C3 1_555 1_555
C4 C3 1_555 1_555
H6 C4 1_555 1_555
C5 C4 1_555 1_555
C6 C5 1_555 1_555
H7 C6 1_555 1_555
C7 C2 1_555 1_555
C8 C5 1_555 1_555
C9 C7 1_555 1_555
C10 C9 1_555 1_555
H8 C10 1_555 1_555
C11 C10 1_555 1_555
C12 C11 1_555 1_555
H9 C12 1_555 1_555
C13 C12 1_555 1_555
C14 C9 1_555 1_555
H10 C14 1_555 1_555
C15 C13 1_555 1_555
C16 C11 1_555 1_555
C17 H11 1_555 1_555
C18 N3 1_555 1_555
H12 C18 1_555 1_555
C19 N4 1_555 1_555
H13 C19 1_555 1_555
C20 N3 1_555 1_555
H14 C20 1_555 1_555
H15 C20 1_555 1_555
C21 C20 1_555 1_555
C22 C21 1_555 1_555
H16 C22 1_555 1_555
C23 C22 1_555 1_555
H17 C23 1_555 1_555
C24 C23 1_555 1_555
C25 C24 1_555 1_555
H18 C25 1_555 1_555
C26 C21 1_555 1_555
H19 C26 1_555 1_555
C27 C24 1_555 1_555
H20 C27 1_555 1_555
H21 C27 1_555 1_555
C28 N2 1_555 1_555
H22 C28 1_555 1_555
C29 C28 1_555 1_555
H23 C29 1_555 1_555
C30 N1 1_555 1_555
H24 C30 1_555 1_555
O11 H25 1_555 1_555
H26 O11 1_555 1_555
O12 H27 1_555 1_555
H28 O12 1_555 1_555
O13 H29 1_555 1_555
H30 O13 1_555 1_555
Cd1A O5 1_555 1_555
Cd1B O9 1_555 1_555
Cd2_2 O7 1_555 1_555
Cd2B N1 1_555 1_555
N1B Cd2 1_555 1_555
O5A Cd1 1_555 1_555
O6A Cd1 1_555 1_555
O7_2 Cd2 1_555 1_555
O8_2 Cd2 1_555 1_555
O9B Cd1 1_555 1_555
O10B Cd1 1_555 1_555
Cd2 O4 1_555 1_555
N2 C30 1_555 1_555
O4 C1 1_555 1_555
O6 Cd1A 1_555 1_555
O8 Cd2_2 1_555 1_555
O10 Cd1B 1_555 1_555
C6 C7 1_555 1_555
C13 C14 1_555 1_555
C18 C19 1_555 1_555
C25 C26 1_555 1_555

#END
