
#######################################################################
#
#                 Cambridge Crystallographic Data Centre
#                                CCDC 
#
#######################################################################
#
# If this CIF has been generated from an entry in the Cambridge 
# Structural Database, then it will include bibliographic, chemical, 
# crystal, experimental, refinement or atomic coordinate data resulting 
# from the CCDC's data processing and validation procedures.
#
#######################################################################

data_TUTWUC
_chemical_formula_moiety         'C48 H24 Cl1 Fe1 N4 O8 Zr1 2-'
_symmetry_cell_setting           hexagonal
_symmetry_space_group_name_H-M   'P 6/m'
_symmetry_Int_Tables_number      175
_space_group_name_Hall           '-P 6'
loop_
_symmetry_equiv_pos_site_id
_symmetry_equiv_pos_as_xyz
1 x,y,z
2 x-y,x,z
3 -y,x-y,z
4 -x,-y,z
5 -x+y,-x,z
6 y,-x+y,z
7 -x,-y,-z
8 -x+y,-x,-z
9 y,-x+y,-z
10 x,y,-z
11 x-y,x,-z
12 -y,x-y,-z
_cell_length_a                   21.43(3)
_cell_length_b                   21.43(3)
_cell_length_c                   16.89(2)
_cell_angle_alpha                90
_cell_angle_beta                 90
_cell_angle_gamma                120
_cell_volume                     6717.45
loop_
_atom_site_label
_atom_site_type_symbol
_atom_site_fract_x
_atom_site_fract_y
_atom_site_fract_z
_atom_site_U_iso_or_equiv
_atom_site_thermal_displace_type
Zr1 Zr -0.0003(2) 0.0774(2) 0.1046(2) 0.0586 Uani
O1 O -0.0016(13) 0.1832(7) 0.0759(10) 0.2606 Uani
O2 O 0.0772(9) 0.1751(8) 0.1376(12) 0.2953 Uani
N1 N -0.0000 0.5000 0.3867(15) 0.2512 Uani
N2 N 0.005(2) 0.4108(17) 0.5000 0.2512 Uani
C1 C -0.0026(19) 0.4471(14) 0.3236(10) 0.2512 Uani
C2 C -0.0019(17) 0.4675(8) 0.2476(10) 0.2512 Uani
H1 H -0.0037 0.4407 0.2019 0.3040 Uiso
C3 C 0.0012(9) 0.3881(8) 0.3542(8) 0.2512 Uani
C4 C -0.0069(19) 0.3585(13) 0.4304(11) 0.2512 Uani
C5 C -0.0117(16) 0.2975(12) 0.45992(6) 0.2592 Uani
H2 H -0.0146 0.2595 0.4283 0.3100 Uiso
C6 C 0.0115(6) 0.3460(6) 0.2899(7) 0.5014 Uani
C7 C -0.0481(5) 0.2886(8) 0.2545(10) 0.5014 Uani
H3 H -0.0952 0.2793 0.2669 0.6030 Uiso
C8 C -0.0388(6) 0.2447(8) 0.2008(11) 0.5014 Uani
H4 H -0.0796 0.2055 0.1766 0.6030 Uiso
C9 C 0.0804(5) 0.3595(8) 0.2715(12) 0.5014 Uani
H5 H 0.1212 0.3987 0.2957 0.6030 Uiso
C10 C 0.0394(9) 0.2045(6) 0.1346(7) 0.5014 Uani
C11 C 0.0301(6) 0.2582(7) 0.1824(9) 0.5014 Uani
C12 C 0.0897(5) 0.3157(9) 0.2179(13) 0.5014 Uani
H6 H 0.1369 0.3249 0.2054 0.6030 Uiso
O1C O 0.0016(13) 0.8168(7) 0.0759(10) 0.2606 Uani
O2C O -0.0772(9) 0.8249(8) 0.1376(12) 0.2953 Uani
N2C N -0.005(2) 0.5892(17) 0.5000 0.2512 Uani
C1C C 0.0026(19) 0.5529(14) 0.3236(10) 0.2512 Uani
C2C C 0.0019(17) 0.5325(8) 0.2476(10) 0.2512 Uani
H1C H 0.0037 0.5593 0.2019 0.3040 Uiso
C3C C -0.0012(9) 0.6119(8) 0.3542(8) 0.2512 Uani
C4C C 0.0069(19) 0.6415(13) 0.4304(11) 0.2512 Uani
C5C C 0.0117(16) 0.7025(12) 0.45992(6) 0.2592 Uani
H2C H 0.0146 0.7405 0.4283 0.3100 Uiso
C6C C -0.0115(6) 0.6540(6) 0.2899(7) 0.5014 Uani
C7C C 0.0481(5) 0.7114(8) 0.2545(10) 0.5014 Uani
H3C H 0.0952 0.7207 0.2669 0.6030 Uiso
C8C C 0.0388(6) 0.7553(8) 0.2008(11) 0.5014 Uani
H4C H 0.0796 0.7945 0.1766 0.6030 Uiso
C9C C -0.0804(5) 0.6405(8) 0.2715(12) 0.5014 Uani
H5C H -0.1212 0.6013 0.2957 0.6030 Uiso
C10C C -0.0394(9) 0.7955(6) 0.1346(7) 0.5014 Uani
C11C C -0.0301(6) 0.7418(7) 0.1824(9) 0.5014 Uani
C12C C -0.0897(5) 0.6843(9) 0.2179(13) 0.5014 Uani
H6C H -0.1369 0.6751 0.2054 0.6030 Uiso
O1F O 0.0016(13) 0.8168(7) 0.9241(10) 0.2606 Uani
O2F O -0.0772(9) 0.8249(8) 0.8624(12) 0.2953 Uani
N1F N 0.0000 0.5000 0.6133(15) 0.2512 Uani
C1F C 0.0026(19) 0.5529(14) 0.6764(10) 0.2512 Uani
C2F C 0.0019(17) 0.5325(8) 0.7524(10) 0.2512 Uani
H1F H 0.0037 0.5593 0.7981 0.3040 Uiso
C3F C -0.0012(9) 0.6119(8) 0.6458(8) 0.2512 Uani
C4F C 0.0069(19) 0.6415(13) 0.5696(11) 0.2512 Uani
C5F C 0.0117(16) 0.7025(12) 0.54008(6) 0.2592 Uani
H2F H 0.0146 0.7405 0.5717 0.3100 Uiso
C6F C -0.0115(6) 0.6540(6) 0.7101(7) 0.5014 Uani
C7F C 0.0481(5) 0.7114(8) 0.7455(10) 0.5014 Uani
H3F H 0.0952 0.7207 0.7331 0.6030 Uiso
C8F C 0.0388(6) 0.7553(8) 0.7992(11) 0.5014 Uani
H4F H 0.0796 0.7945 0.8234 0.6030 Uiso
C9F C -0.0804(5) 0.6405(8) 0.7285(12) 0.5014 Uani
H5F H -0.1212 0.6013 0.7043 0.6030 Uiso
C10F C -0.0394(9) 0.7955(6) 0.8654(7) 0.5014 Uani
C11F C -0.0301(6) 0.7418(7) 0.8176(9) 0.5014 Uani
C12F C -0.0897(5) 0.6843(9) 0.7821(13) 0.5014 Uani
H6F H -0.1369 0.6751 0.7946 0.6030 Uiso
O1I O -0.0016(13) 0.1832(7) 0.9241(10) 0.2606 Uani
O2I O 0.0772(9) 0.1751(8) 0.8624(12) 0.2953 Uani
C1I C -0.0026(19) 0.4471(14) 0.6764(10) 0.2512 Uani
C2I C -0.0019(17) 0.4675(8) 0.7524(10) 0.2512 Uani
H1I H -0.0037 0.4407 0.7981 0.3040 Uiso
C3I C 0.0012(9) 0.3881(8) 0.6458(8) 0.2512 Uani
C4I C -0.0069(19) 0.3585(13) 0.5696(11) 0.2512 Uani
C5I C -0.0117(16) 0.2975(12) 0.54008(6) 0.2592 Uani
H2I H -0.0146 0.2595 0.5717 0.3100 Uiso
C6I C 0.0115(6) 0.3460(6) 0.7101(7) 0.5014 Uani
C7I C -0.0481(5) 0.2886(8) 0.7455(10) 0.5014 Uani
H3I H -0.0952 0.2793 0.7331 0.6030 Uiso
C8I C -0.0388(6) 0.2447(8) 0.7992(11) 0.5014 Uani
H4I H -0.0796 0.2055 0.8234 0.6030 Uiso
C9I C 0.0804(5) 0.3595(8) 0.7285(12) 0.5014 Uani
H5I H 0.1212 0.3987 0.7043 0.6030 Uiso
C10I C 0.0394(9) 0.2045(6) 0.8654(7) 0.5014 Uani
C11I C 0.0301(6) 0.2582(7) 0.8176(9) 0.5014 Uani
C12I C 0.0897(5) 0.3157(9) 0.7821(13) 0.5014 Uani
H6I H 0.1369 0.3249 0.7946 0.6030 Uiso
Fe1 Fe 0.0000 0.5000 0.5000 0.3423 Uani
Cl1 Cl -0.145(3) 0.4253(16) 0.5000 0.3423 Uani
loop_
_atom_site_aniso_label
_atom_site_aniso_U_11
_atom_site_aniso_U_22
_atom_site_aniso_U_33
_atom_site_aniso_U_23
_atom_site_aniso_U_13
_atom_site_aniso_U_12
Zr1 0.054(2) 0.094(4) 0.013(3) 0.000 0.000 0.026(3)
O1 0.47(3) 0.107(12) 0.191(16) -0.042(12) -0.11(2) 0.134(18)
O2 0.44(3) 0.104(13) 0.27(2) -0.116(14) -0.09(2) 0.082(19)
N1 0.52(2) 0.272(17) 0.095(9) 0.000 0.000 0.298(17)
N2 0.52(2) 0.272(17) 0.095(9) 0.000 0.000 0.298(17)
C1 0.52(2) 0.272(17) 0.095(9) 0.000 0.000 0.298(17)
C2 0.52(2) 0.272(17) 0.095(9) 0.000 0.000 0.298(17)
C3 0.52(2) 0.272(17) 0.095(9) 0.000 0.000 0.298(17)
C4 0.52(2) 0.272(17) 0.095(9) 0.000 0.000 0.298(17)
C5 0.53(5) 0.24(3) 0.111(19) 0.061(17) 0.01(2) 0.27(3)
C6 1.07(5) 0.48(3) 0.251(16) -0.118(17) 0.00(3) 0.61(4)
C7 1.07(5) 0.48(3) 0.251(16) -0.118(17) 0.00(3) 0.61(4)
C8 1.07(5) 0.48(3) 0.251(16) -0.118(17) 0.00(3) 0.61(4)
C9 1.07(5) 0.48(3) 0.251(16) -0.118(17) 0.00(3) 0.61(4)
C10 1.07(5) 0.48(3) 0.251(16) -0.118(17) 0.00(3) 0.61(4)
C11 1.07(5) 0.48(3) 0.251(16) -0.118(17) 0.00(3) 0.61(4)
C12 1.07(5) 0.48(3) 0.251(16) -0.118(17) 0.00(3) 0.61(4)
O1C 0.47 0.107 0.191 0.042 0.11 0.134
O2C 0.44 0.104 0.27 0.116 0.09 0.082
N2C 0.52 0.272 0.095 0 0 0.298
C1C 0.52 0.272 0.095 0 0 0.298
C2C 0.52 0.272 0.095 0 0 0.298
C3C 0.52 0.272 0.095 0 0 0.298
C4C 0.52 0.272 0.095 0 0 0.298
C5C 0.53 0.24 0.111 -0.061 -0.01 0.27
C6C 1.07 0.48 0.251 0.118 0 0.61
C7C 1.07 0.48 0.251 0.118 0 0.61
C8C 1.07 0.48 0.251 0.118 0 0.61
C9C 1.07 0.48 0.251 0.118 0 0.61
C10C 1.07 0.48 0.251 0.118 0 0.61
C11C 1.07 0.48 0.251 0.118 0 0.61
C12C 1.07 0.48 0.251 0.118 0 0.61
O1F 0.47 0.107 0.191 -0.042 -0.11 0.134
O2F 0.44 0.104 0.27 -0.116 -0.09 0.082
N1F 0.52 0.272 0.095 0 0 0.298
C1F 0.52 0.272 0.095 0 0 0.298
C2F 0.52 0.272 0.095 0 0 0.298
C3F 0.52 0.272 0.095 0 0 0.298
C4F 0.52 0.272 0.095 0 0 0.298
C5F 0.53 0.24 0.111 0.061 0.01 0.27
C6F 1.07 0.48 0.251 -0.118 0 0.61
C7F 1.07 0.48 0.251 -0.118 0 0.61
C8F 1.07 0.48 0.251 -0.118 0 0.61
C9F 1.07 0.48 0.251 -0.118 0 0.61
C10F 1.07 0.48 0.251 -0.118 0 0.61
C11F 1.07 0.48 0.251 -0.118 0 0.61
C12F 1.07 0.48 0.251 -0.118 0 0.61
O1I 0.47 0.107 0.191 0.042 0.11 0.134
O2I 0.44 0.104 0.27 0.116 0.09 0.082
C1I 0.52 0.272 0.095 0 0 0.298
C2I 0.52 0.272 0.095 0 0 0.298
C3I 0.52 0.272 0.095 0 0 0.298
C4I 0.52 0.272 0.095 0 0 0.298
C5I 0.53 0.24 0.111 -0.061 -0.01 0.27
C6I 1.07 0.48 0.251 0.118 0 0.61
C7I 1.07 0.48 0.251 0.118 0 0.61
C8I 1.07 0.48 0.251 0.118 0 0.61
C9I 1.07 0.48 0.251 0.118 0 0.61
C10I 1.07 0.48 0.251 0.118 0 0.61
C11I 1.07 0.48 0.251 0.118 0 0.61
C12I 1.07 0.48 0.251 0.118 0 0.61
Fe1 0.74(3) 0.275(14) 0.175(8) 0.000 0.000 0.376(18)
Cl1 0.74(3) 0.275(14) 0.175(8) 0.000 0.000 0.376(18)
loop_
_geom_bond_atom_site_label_1
_geom_bond_atom_site_label_2
_geom_bond_site_symmetry_1
_geom_bond_site_symmetry_2
O1 C10 1_555 1_555
O2 C10 1_555 1_555
N1 C1 1_555 1_555
N2 C4 1_555 1_555
C1 C2 1_555 1_555
C2 H1 1_555 1_555
C3 C1 1_555 1_555
C4 C3 1_555 1_555
C5 C4 1_555 1_555
H2 C5 1_555 1_555
C6 C3 1_555 1_555
C7 C6 1_555 1_555
H3 C7 1_555 1_555
C8 C7 1_555 1_555
H4 C8 1_555 1_555
C9 C6 1_555 1_555
H5 C9 1_555 1_555
C10 C11 1_555 1_555
C11 C8 1_555 1_555
C12 C9 1_555 1_555
H6 C12 1_555 1_555
O1C C10C 1_555 1_555
O2C C10C 1_555 1_555
N2C C4C 1_555 1_555
C1C N1 1_555 1_555
C2C C2 1_555 1_555
H1C C2C 1_555 1_555
C3C C1C 1_555 1_555
C4C C3C 1_555 1_555
C5C C4C 1_555 1_555
H2C C5C 1_555 1_555
C6C C3C 1_555 1_555
C7C C6C 1_555 1_555
H3C C7C 1_555 1_555
C8C C7C 1_555 1_555
H4C C8C 1_555 1_555
C9C C6C 1_555 1_555
H5C C9C 1_555 1_555
C10C C11C 1_555 1_555
C11C C8C 1_555 1_555
C12C C9C 1_555 1_555
H6C C12C 1_555 1_555
O1F C10F 1_555 1_555
O2F C10F 1_555 1_555
N1F C1F 1_555 1_555
C1F C2F 1_555 1_555
C2F H1F 1_555 1_555
C3F C1F 1_555 1_555
C4F N2C 1_555 1_555
C5F C5C 1_555 1_555
H2F C5F 1_555 1_555
C6F C3F 1_555 1_555
C7F C6F 1_555 1_555
H3F C7F 1_555 1_555
C8F C7F 1_555 1_555
H4F C8F 1_555 1_555
C9F C6F 1_555 1_555
H5F C9F 1_555 1_555
C10F C11F 1_555 1_555
C11F C8F 1_555 1_555
C12F C9F 1_555 1_555
H6F C12F 1_555 1_555
O1I C10I 1_555 1_555
O2I C10I 1_555 1_555
C1I N1F 1_555 1_555
C2I C2F 1_555 1_555
H1I C2I 1_555 1_555
C3I C1I 1_555 1_555
C4I N2 1_555 1_555
C5I C5 1_555 1_555
H2I C5I 1_555 1_555
C6I C3I 1_555 1_555
C7I C6I 1_555 1_555
H3I C7I 1_555 1_555
C8I C7I 1_555 1_555
H4I C8I 1_555 1_555
C9I C6I 1_555 1_555
H5I C9I 1_555 1_555
C10I C11I 1_555 1_555
C11I C8I 1_555 1_555
C12I C9I 1_555 1_555
H6I C12I 1_555 1_555
C11 C12 1_555 1_555
C1C C2C 1_555 1_555
C11C C12C 1_555 1_555
C3F C4F 1_555 1_555
C4F C5F 1_555 1_555
C11F C12F 1_555 1_555
C1I C2I 1_555 1_555
C3I C4I 1_555 1_555
C4I C5I 1_555 1_555
C11I C12I 1_555 1_555

#END
