
#######################################################################
#
#                 Cambridge Crystallographic Data Centre
#                                CCDC 
#
#######################################################################
#
# If this CIF has been generated from an entry in the Cambridge 
# Structural Database, then it will include bibliographic, chemical, 
# crystal, experimental, refinement or atomic coordinate data resulting 
# from the CCDC's data processing and validation procedures.
#
#######################################################################

data_WOTSEF
_chemical_formula_moiety         '(C16 H15 Cd1 Cl6 N5 O3)n'
_symmetry_cell_setting           orthorhombic
_symmetry_space_group_name_H-M   'P 21 21 21'
_symmetry_Int_Tables_number      19
_space_group_name_Hall           'P 2ac 2ab'
loop_
_symmetry_equiv_pos_site_id
_symmetry_equiv_pos_as_xyz
1 x,y,z
2 1/2-x,-y,1/2+z
3 -x,1/2+y,1/2-z
4 1/2+x,1/2-y,-z
_cell_length_a                   10.4215(4)
_cell_length_b                   10.5323(4)
_cell_length_c                   22.2477(10)
_cell_angle_alpha                90
_cell_angle_beta                 90
_cell_angle_gamma                90
_cell_volume                     2441.96
loop_
_atom_site_label
_atom_site_type_symbol
_atom_site_fract_x
_atom_site_fract_y
_atom_site_fract_z
_atom_site_U_iso_or_equiv
_atom_site_thermal_displace_type
N1 N 0.6290(2) 0.4362(2) 0.65754(10) 0.0300 Uani
C1 C 0.5718(3) 0.3934(3) 0.70722(12) 0.0286 Uani
C2 C 0.6216(3) 0.2956(3) 0.74188(11) 0.0253 Uani
Cd1 Cd 0.479411(17) 0.080513(17) 0.903263(7) 0.0244 Uani
C3 C 0.2489(3) 0.1118(3) 1.01124(13) 0.0337 Uani
H1 H 0.2780 0.0329 1.0241 0.0400 Uiso
C4 C 0.1614(3) 0.1765(3) 1.04589(14) 0.0368 Uani
H2 H 0.1338 0.1409 1.0819 0.0440 Uiso
C5 C 0.1579(3) 0.3350(3) 0.97698(13) 0.0337 Uani
H3 H 0.1255 0.4121 0.9633 0.0400 Uiso
C6 C 0.2492(3) 0.2723(3) 0.94224(12) 0.0276 Uani
C7 C 0.3022(3) 0.3281(3) 0.88675(12) 0.0336 Uani
C8 C 0.2483(4) 0.4483(4) 0.86119(18) 0.0667 Uani
H4 H 0.2820 0.5197 0.8829 0.1000 Uiso
H5 H 0.1565 0.4472 0.8647 0.1000 Uiso
H6 H 0.2719 0.4551 0.8196 0.1000 Uiso
C9 C 0.5562(2) 0.2495(3) 0.79749(11) 0.0263 Uani
C10 C 0.7365(3) 0.2407(3) 0.72331(13) 0.0353 Uani
H7 H 0.7725 0.1740 0.7449 0.0420 Uiso
C11 C 0.7958(3) 0.2869(3) 0.67247(15) 0.0432 Uani
H8 H 0.8731 0.2524 0.6595 0.0520 Uiso
C12 C 0.7399(3) 0.3837(3) 0.64131(14) 0.0381 Uani
H9 H 0.7811 0.4145 0.6072 0.0460 Uiso
H10 H 0.4950 0.4308 0.7191 0.0460 Uiso
C13 C 0.6311(6) -0.2391(5) 0.9937(2) 0.0893 Uani
H11 H 0.5925 -0.2434 1.0328 0.1330 Uiso
H12 H 0.7225 -0.2318 0.9978 0.1330 Uiso
H13 H 0.6109 -0.3147 0.9716 0.1330 Uiso
C14 C 0.5801(4) -0.1247(3) 0.96050(14) 0.0406 Uani
N2 N 0.2931(2) 0.1595(2) 0.95971(10) 0.0293 Uani
N3 N 0.1151(2) 0.2889(2) 1.02908(10) 0.0322 Uani
N4 N 0.3990(2) 0.2693(2) 0.86398(9) 0.0270 Uani
N5 N 0.4550(2) 0.3183(2) 0.81351(10) 0.0324 Uani
O1 O 0.60245(19) 0.15310(19) 0.82352(9) 0.0331 Uani
O2 O 0.6364(2) -0.0872(2) 0.91424(10) 0.0469 Uani
O3 O 0.4845(2) -0.0690(2) 0.98151(9) 0.0426 Uani
N1B N 0.3710(2) -0.0638(2) 0.84246(10) 0.0300 Uani
Cd1B Cd 0.520589(17) 0.580513(17) 0.596737(7) 0.0244 Uani
Cd1C Cd -0.020589(17) 0.419487(17) 1.096737(7) 0.0244 Uani
N3C N 0.6151(2) 0.2111(2) 0.97092(10) 0.0322 Uani
C15 C 0.8780(3) 0.0884(5) 0.87745(17) 0.0576 Uani
H14 H 0.7843 0.0877 0.8810 0.0690 Uiso
Cl1 Cl 0.94263(13) 0.03738(17) 0.94528(6) 0.1023 Uani
Cl2 Cl 0.92171(13) -0.01349(12) 0.81879(6) 0.0805 Uani
Cl3 Cl 0.92675(14) 0.24334(13) 0.86164(7) 0.0891 Uani
C16 C 0.2599(4) 0.8177(4) 0.16924(17) 0.0540 Uani
H15 H 0.2339 0.7303 0.1602 0.0650 Uiso
Cl4 Cl 0.32655(18) 0.81988(17) 0.24117(6) 0.1074 Uani
Cl5 Cl 0.37276(11) 0.86462(13) 0.11562(6) 0.0811 Uani
Cl6 Cl 0.12367(11) 0.91405(13) 0.16595(6) 0.0791 Uani
loop_
_atom_site_aniso_label
_atom_site_aniso_U_11
_atom_site_aniso_U_22
_atom_site_aniso_U_33
_atom_site_aniso_U_23
_atom_site_aniso_U_13
_atom_site_aniso_U_12
N1 0.0329(12) 0.0338(14) 0.0234(11) 0.0044(10) 0.0042(9) -0.0001(11)
C1 0.0270(12) 0.0325(17) 0.0263(13) 0.0036(11) 0.0032(11) 0.0037(11)
C2 0.0277(13) 0.0267(14) 0.0215(12) 0.0011(10) 0.0006(10) -0.0012(11)
Cd1 0.02911(9) 0.02412(9) 0.02007(8) 0.00078(7) 0.00057(7) 0.00023(7)
C3 0.0392(16) 0.0311(17) 0.0308(15) 0.0070(11) 0.0091(13) 0.0042(12)
C4 0.0417(17) 0.0400(18) 0.0288(15) 0.0062(13) 0.0110(13) -0.0005(14)
C5 0.0385(16) 0.0311(16) 0.0314(15) 0.0039(12) 0.0075(13) 0.0072(12)
C6 0.0287(14) 0.0288(15) 0.0253(13) 0.0016(11) 0.0037(11) 0.0021(11)
C7 0.0375(16) 0.0323(16) 0.0309(15) 0.0059(11) 0.0075(12) 0.0082(12)
C8 0.077(3) 0.059(3) 0.064(2) 0.032(2) 0.037(2) 0.039(2)
C9 0.0286(14) 0.0294(14) 0.0208(12) 0.0014(10) 0.0003(10) -0.0012(11)
C10 0.0385(16) 0.0346(16) 0.0329(15) 0.0079(13) 0.0033(12) 0.0094(13)
C11 0.0366(17) 0.050(2) 0.0429(17) 0.0103(15) 0.0160(14) 0.0118(14)
C12 0.0377(17) 0.045(2) 0.0316(15) 0.0098(12) 0.0132(13) 0.0019(13)
C13 0.132(5) 0.069(3) 0.067(3) 0.034(2) 0.025(3) 0.057(3)
C14 0.054(2) 0.0332(17) 0.0346(16) 0.0062(13) -0.0041(15) 0.0059(14)
N2 0.0324(13) 0.0300(13) 0.0256(12) 0.0004(10) 0.0036(10) 0.0017(10)
N3 0.0363(14) 0.0336(14) 0.0268(12) 0.0006(10) 0.0080(10) 0.0030(11)
N4 0.0288(12) 0.0309(13) 0.0212(11) 0.0027(9) 0.0040(9) 0.0015(10)
N5 0.0380(15) 0.0342(13) 0.0251(11) 0.0089(10) 0.0097(10) 0.0043(11)
O1 0.0319(11) 0.0368(12) 0.0307(10) 0.0103(9) 0.0055(9) 0.0074(9)
O2 0.0475(12) 0.0455(13) 0.0476(13) 0.0121(12) 0.0056(10) 0.0081(11)
O3 0.0578(13) 0.0347(11) 0.0352(10) 0.0074(7) 0.0056(10) 0.0094(12)
N1B 0.0329 0.0338 0.0234 -0.0044 0.0042 0.0001
Cd1B 0.02911 0.02412 0.02007 -0.00078 0.00057 -0.00023
Cd1C 0.02911 0.02412 0.02007 0.00078 -0.00057 -0.00023
N3C 0.0363 0.0336 0.0268 0.0006 -0.008 -0.003
C15 0.0358(17) 0.074(3) 0.063(2) -0.008(2) -0.0031(16) 0.006(2)
Cl1 0.0762(8) 0.1608(15) 0.0699(7) 0.0161(8) -0.0187(6) 0.0022(8)
Cl2 0.0929(8) 0.0678(7) 0.0808(8) -0.0095(6) 0.0104(7) 0.0190(6)
Cl3 0.0865(8) 0.0765(8) 0.1043(9) -0.0162(7) -0.0071(7) -0.0164(7)
C16 0.055(2) 0.054(2) 0.053(2) 0.0031(17) -0.0029(18) 0.0038(18)
Cl4 0.1343(13) 0.1324(13) 0.0555(7) 0.0028(8) -0.0196(8) 0.0044(11)
Cl5 0.0604(6) 0.1009(9) 0.0819(8) 0.0318(7) 0.0095(6) 0.0108(6)
Cl6 0.0726(7) 0.0746(7) 0.0900(8) 0.0067(7) 0.0160(6) 0.0208(7)
loop_
_geom_bond_atom_site_label_1
_geom_bond_atom_site_label_2
_geom_bond_site_symmetry_1
_geom_bond_site_symmetry_2
N1 C1 1_555 1_555
C1 C2 1_555 1_555
C2 C9 1_555 1_555
Cd1 N2 1_555 1_555
C3 H1 1_555 1_555
C4 C3 1_555 1_555
H2 C4 1_555 1_555
C5 H3 1_555 1_555
C6 C5 1_555 1_555
C7 C6 1_555 1_555
C8 C7 1_555 1_555
H4 C8 1_555 1_555
H5 C8 1_555 1_555
H6 C8 1_555 1_555
C9 N5 1_555 1_555
C10 C2 1_555 1_555
H7 C10 1_555 1_555
C11 C10 1_555 1_555
H8 C11 1_555 1_555
C12 N1 1_555 1_555
H9 C12 1_555 1_555
H10 C1 1_555 1_555
C13 H11 1_555 1_555
H12 C13 1_555 1_555
H13 C13 1_555 1_555
C14 C13 1_555 1_555
N2 C3 1_555 1_555
N3 C4 1_555 1_555
N4 Cd1 1_555 1_555
N5 N4 1_555 1_555
O1 Cd1 1_555 1_555
O2 Cd1 1_555 1_555
O3 Cd1 1_555 1_555
C15 H14 1_555 1_555
Cl1 C15 1_555 1_555
Cl2 C15 1_555 1_555
Cl3 C15 1_555 1_555
C16 H15 1_555 1_555
Cl4 C16 1_555 1_555
Cl5 C16 1_555 1_555
Cl6 C16 1_555 1_555
N1B Cd1 1_555 1_555
Cd1B N1 1_555 1_555
Cd1C N3 1_555 1_555
N3C Cd1 1_555 1_555
C5 N3 1_555 1_555
C6 N2 1_555 1_555
C7 N4 1_555 1_555
C9 O1 1_555 1_555
C11 C12 1_555 1_555
C14 O2 1_555 1_555
C14 O3 1_555 1_555

#END
