
#######################################################################
#
#                 Cambridge Crystallographic Data Centre
#                                CCDC 
#
#######################################################################
#
# If this CIF has been generated from an entry in the Cambridge 
# Structural Database, then it will include bibliographic, chemical, 
# crystal, experimental, refinement or atomic coordinate data resulting 
# from the CCDC's data processing and validation procedures.
#
#######################################################################

data_EKUPEG
_chemical_formula_moiety         'C144 H152 Cu22 N12 O76 S9'
_symmetry_cell_setting           hexagonal
_symmetry_space_group_name_H-M   'P 63 2 2'
_symmetry_Int_Tables_number      182
_space_group_name_Hall           'P 6c 2c'
loop_
_symmetry_equiv_pos_site_id
_symmetry_equiv_pos_as_xyz
1 x,y,z
2 -y,x-y,z
3 -x+y,-x,z
4 -x,-y,1/2+z
5 y,-x+y,1/2+z
6 x-y,x,1/2+z
7 y,x,-z
8 x-y,-y,-z
9 -x,-x+y,-z
10 -y,-x,1/2-z
11 -x+y,y,1/2-z
12 x,x-y,1/2-z
_cell_length_a                   26.2486(5)
_cell_length_b                   26.2486(5)
_cell_length_c                   25.2139(6)
_cell_angle_alpha                90
_cell_angle_beta                 90
_cell_angle_gamma                120
_cell_volume                     15044.7
loop_
_atom_site_label
_atom_site_type_symbol
_atom_site_fract_x
_atom_site_fract_y
_atom_site_fract_z
O2 O 0.3805(9) 0.3663(9) 0.2288(8)
O3 O 0.9981(18) 0.6351(14) 0.5989(12)
O4 O 0.3073(9) -0.0008(10) 0.4247(7)
O5 O 0.4883(14) 0.2591(12) 0.5329(10)
O6 O 0.4344(14) 0.1326(15) 0.4630(14)
O7 O 0.223(2) 0.371(3) 0.191(3)
Cu1 Cu 0.07774(3) 0.02038(3) 0.39660(4)
Cu2 Cu 0.0000 0.0000 0.5000
Cu3 Cu 0.58055(5) 0.29104(6) 0.31491(8)
C1 C 0.05934(12) -0.07058(13) 0.46532(14)
C2 C 0.11782(13) -0.04573(13) 0.44989(14)
C3 C 0.15043(11) -0.07183(16) 0.46493(16)
H1 H 0.1896 -0.0552 0.4546
C4 C 0.12455(15) -0.12279(16) 0.49541(15)
C5 C 0.06607(15) -0.14763(13) 0.51084(14)
C6 C 0.03346(11) -0.12153(14) 0.49580(14)
C7 C 0.0429(3) -0.2000(2) 0.5480(3)
H2 H 0.0725 -0.2108 0.5530
H3 H 0.0084 -0.2325 0.5329
H4 H 0.0333 -0.1897 0.5816
C8 C 0.1616(3) -0.1507(3) 0.5088(3)
H5 H 0.2005 -0.1269 0.4947
H6 H 0.1440 -0.1894 0.4935
H7 H 0.1637 -0.1535 0.5466
C9 C 0.1922(2) 0.0339(2) 0.4015(3)
H8 H 0.2179 0.0218 0.4136
C10 C 0.21638(15) 0.08443(14) 0.36752(16)
C11 C 0.18532(11) 0.10930(16) 0.34546(17)
C12 C 0.21450(15) 0.16004(17) 0.31495(17)
C13 C 0.27472(15) 0.18592(15) 0.30651(18)
H9 H 0.2942 0.2199 0.2861
C14 C 0.30578(11) 0.16105(17) 0.32857(19)
C15 C 0.27660(14) 0.11030(17) 0.35908(18)
H10 H 0.2974 0.0937 0.3738
C16 C 0.1809(3) 0.1874(3) 0.2873(3)
C17 C 0.1511(3) 0.2070(3) 0.3280(3)
H11 H 0.1306 0.2237 0.3100
H12 H 0.1803 0.2359 0.3511
H13 H 0.1236 0.1737 0.3485
C18 C 0.1350(3) 0.1414(3) 0.2494(3)
H14 H 0.1138 0.1577 0.2321
H15 H 0.1080 0.1072 0.2693
H16 H 0.1545 0.1305 0.2233
C19 C 0.2221(3) 0.2424(3) 0.2535(4)
H17 H 0.1995 0.2578 0.2373
H18 H 0.2406 0.2315 0.2264
H19 H 0.2517 0.2719 0.2759
C20 C 0.37187(13) 0.19210(18) 0.3254(3)
C21 C 0.40076(18) 0.15989(15) 0.3268(3)
H20 H 0.3792 0.1190 0.3284
C22 C 0.46186(18) 0.1887(2) 0.3259(3)
H21 H 0.4812 0.1672 0.3269
N1 N 0.49409(13) 0.2498(2) 0.3236(3)
C23 C 0.46521(18) 0.28201(15) 0.3222(3)
H22 H 0.4868 0.3229 0.3206
C24 C 0.40410(18) 0.25317(18) 0.3231(3)
H23 H 0.3848 0.2747 0.3221
N2 N 0.13850(18) 0.0037(2) 0.41684(18)
O8 O 0.0000 0.0000 0.3641(2)
O9 O 0.02913(14) -0.04329(14) 0.44872(16)
O10 O 0.12715(17) 0.08583(18) 0.35389(17)
O11 O 0.6667 0.3333 0.3012(8)
S1 S 0.59564(6) 0.40436(6) 0.2500
O12 O 0.5697(2) 0.3392(2) 0.2483(4)
O13 O 0.5775(4) 0.4218(4) 0.2984(6)
S2 S 0.6346(3) 0.3673(3) 0.4114(3)
O14 O 0.5847(6) 0.3404(7) 0.3741(6)
O15 O 0.6173(8) 0.3817(7) 0.4635(6)
O16 O 0.6667 0.3333 0.4220(5)
O17 O 0.6761(4) 0.4217(4) 0.3811(4)
Cu1H Cu -0.07774(3) -0.05736(4) 0.60340(4)
Cu1B Cu -0.05736(4) -0.07774(3) 0.39660(4)
Cu1F Cu 0.02038(3) 0.07774(3) 0.60340(4)
Cu1G Cu 0.05736(4) -0.02038(3) 0.60340(4)
Cu1A Cu -0.02038(3) 0.05736(4) 0.39660(4)
Cu3H Cu -0.58055(5) -0.28951(8) 0.68509(8)
Cu3B Cu -0.28951(8) -0.58055(5) 0.31491(8)
Cu3F Cu 0.29104(6) 0.58055(5) 0.68509(8)
Cu3G Cu 0.28951(8) -0.29104(6) 0.68509(8)
Cu3A Cu -0.29104(6) 0.28951(8) 0.31491(8)
Cu3B_2 Cu 0.71049(8) 0.41945(5) 0.31491(8)
Cu3A_2 Cu 0.70896(6) 0.28951(8) 0.31491(8)
Cu3K Cu 0.58055(5) 0.28951(8) 0.18509(8)
Cu3I Cu 0.70896(6) 0.41945(5) 0.18509(8)
Cu3J Cu 0.71049(8) 0.29104(6) 0.18509(8)
Cu3G_2 Cu -0.71049(8) -0.29104(6) 0.68509(8)
Cu3F_2 Cu -0.70896(6) -0.41945(5) 0.68509(8)
Cu3C Cu -0.58055(5) -0.29104(6) 0.81491(8)
Cu3D Cu -0.70896(6) -0.28951(8) 0.81491(8)
C1H C -0.05934(12) -0.12992(18) 0.53468(14)
C1B C -0.12992(18) -0.05934(12) 0.46532(14)
C1F C -0.07058(13) 0.05934(12) 0.53468(14)
C1G C 0.12992(18) 0.07058(13) 0.53468(14)
C1A C 0.07058(13) 0.12992(18) 0.46532(14)
C2H C -0.11782(13) -0.16355(18) 0.55011(14)
C2B C -0.16355(18) -0.11782(13) 0.44989(14)
C2F C -0.04573(13) 0.11782(13) 0.55011(14)
C2G C 0.16355(18) 0.04573(13) 0.55011(14)
C2A C 0.04573(13) 0.16355(18) 0.44989(14)
C3H C -0.15043(11) -0.22226(19) 0.53507(16)
C3B C -0.22226(19) -0.15043(11) 0.46493(16)
C3F C -0.07183(16) 0.15043(11) 0.53507(16)
C3G C 0.22226(19) 0.07183(16) 0.53507(16)
C3A C 0.07183(16) 0.22226(19) 0.46493(16)
H1H H -0.1896 -0.2448 0.5454
H1B H -0.2448 -0.1896 0.4546
H1F H -0.0552 0.1896 0.5454
H1G H 0.2448 0.0552 0.5454
H1A H 0.0552 0.2448 0.4546
C4H C -0.12455(15) -0.24734(22) 0.50459(15)
C4B C -0.24734(22) -0.12455(15) 0.49541(15)
C4F C -0.12279(16) 0.12455(15) 0.50459(15)
C4G C 0.24734(22) 0.12279(16) 0.50459(15)
C4A C 0.12279(16) 0.24734(22) 0.49541(15)
C5H C -0.06607(15) -0.21370(20) 0.48916(14)
C5B C -0.21370(20) -0.06607(15) 0.51084(14)
C5F C -0.14763(13) 0.06607(15) 0.48916(14)
C5G C 0.21370(20) 0.14763(13) 0.48916(14)
C5A C 0.14763(13) 0.21370(20) 0.51084(14)
C6H C -0.03346(11) -0.15499(18) 0.50420(14)
C6B C -0.15499(18) -0.03346(11) 0.49580(14)
C6F C -0.12153(14) 0.03346(11) 0.50420(14)
C6G C 0.15499(18) 0.12153(14) 0.50420(14)
C6A C 0.12153(14) 0.15499(18) 0.49580(14)
C7H C -0.0429(3) -0.2429(4) 0.4520(3)
C7B C -0.2429(4) -0.0429(3) 0.5480(3)
C7F C -0.2000(2) 0.0429(3) 0.4520(3)
C7G C 0.2429(4) 0.2000(2) 0.4520(3)
C7A C 0.2000(2) 0.2429(4) 0.5480(3)
H2H H -0.0725 -0.2833 0.4470
H2B H -0.2833 -0.0725 0.5530
H2F H -0.2108 0.0725 0.4470
H2G H 0.2833 0.2108 0.4470
H2A H 0.2108 0.2833 0.5530
H3H H -0.0084 -0.2409 0.4671
H3B H -0.2409 -0.0084 0.5329
H3F H -0.2325 0.0084 0.4671
H3G H 0.2409 0.2325 0.4671
H3A H 0.2325 0.2409 0.5329
H4H H -0.0333 -0.2230 0.4184
H4B H -0.2230 -0.0333 0.5816
H4F H -0.1897 0.0333 0.4184
H4G H 0.2230 0.1897 0.4184
H4A H 0.1897 0.2230 0.5816
C8H C -0.1616(3) -0.3123(4) 0.4912(3)
C8B C -0.3123(4) -0.1616(3) 0.5088(3)
C8F C -0.1507(3) 0.1616(3) 0.4912(3)
C8G C 0.3123(4) 0.1507(3) 0.4912(3)
C8A C 0.1507(3) 0.3123(4) 0.5088(3)
H5H H -0.2005 -0.3274 0.5053
H5B H -0.3274 -0.2005 0.4947
H5F H -0.1269 0.2005 0.5053
H5G H 0.3274 0.1269 0.5053
H5A H 0.1269 0.3274 0.4947
H6H H -0.1440 -0.3334 0.5065
H6B H -0.3334 -0.1440 0.4935
H6F H -0.1894 0.1440 0.5065
H6G H 0.3334 0.1894 0.5065
H6A H 0.1894 0.3334 0.4935
H7H H -0.1637 -0.3172 0.4534
H7B H -0.3172 -0.1637 0.5466
H7F H -0.1535 0.1637 0.4534
H7G H 0.3172 0.1535 0.4534
H7A H 0.1535 0.3172 0.5466
C9H C -0.1922(2) -0.1583(3) 0.5985(3)
C9B C -0.1583(3) -0.1922(2) 0.4015(3)
C9F C 0.0339(2) 0.1922(2) 0.5985(3)
C9G C 0.1583(3) -0.0339(2) 0.5985(3)
C9A C -0.0339(2) 0.1583(3) 0.4015(3)
H8H H -0.2179 -0.1961 0.5864
H8B H -0.1961 -0.2179 0.4136
H8F H 0.0218 0.2179 0.5864
H8G H 0.1961 -0.0218 0.5864
H8A H -0.0218 0.1961 0.4136
C10H C -0.21638(15) -0.13195(21) 0.63248(16)
C10B C -0.13195(21) -0.21638(15) 0.36752(16)
C10F C 0.08443(14) 0.21638(15) 0.63248(16)
C10G C 0.13195(21) -0.08443(14) 0.63248(16)
C10A C -0.08443(14) 0.13195(21) 0.36752(16)
C11H C -0.18532(11) -0.07602(19) 0.65454(17)
C11B C -0.07602(19) -0.18532(11) 0.34546(17)
C11F C 0.10930(16) 0.18532(11) 0.65454(17)
C11G C 0.07602(19) -0.10930(16) 0.65454(17)
C11A C -0.10930(16) 0.07602(19) 0.34546(17)
C12H C -0.21450(15) -0.05446(23) 0.68505(17)
C12B C -0.05446(23) -0.21450(15) 0.31495(17)
C12F C 0.16004(17) 0.21450(15) 0.68505(17)
C12G C 0.05446(23) -0.16004(17) 0.68505(17)
C12A C -0.16004(17) 0.05446(23) 0.31495(17)
C13H C -0.27472(15) -0.08880(21) 0.69349(18)
C13B C -0.08880(21) -0.27472(15) 0.30651(18)
C13F C 0.18592(15) 0.27472(15) 0.69349(18)
C13G C 0.08880(21) -0.18592(15) 0.69349(18)
C13A C -0.18592(15) 0.08880(21) 0.30651(18)
H9H H -0.2942 -0.0743 0.7139
H9B H -0.0743 -0.2942 0.2861
H9F H 0.2199 0.2942 0.7139
H9G H 0.0743 -0.2199 0.7139
H9A H -0.2199 0.0743 0.2861
C14H C -0.30578(11) -0.14473(20) 0.67143(19)
C14B C -0.14473(20) -0.30578(11) 0.32857(19)
C14F C 0.16105(17) 0.30578(11) 0.67143(19)
C14G C 0.14473(20) -0.16105(17) 0.67143(19)
C14A C -0.16105(17) 0.14473(20) 0.32857(19)
C15H C -0.27660(14) -0.16630(22) 0.64092(18)
C15B C -0.16630(22) -0.27660(14) 0.35908(18)
C15F C 0.11030(17) 0.27660(14) 0.64092(18)
C15G C 0.16630(22) -0.11030(17) 0.64092(18)
C15A C -0.11030(17) 0.16630(22) 0.35908(18)
H10H H -0.2974 -0.2037 0.6262
H10B H -0.2037 -0.2974 0.3738
H10F H 0.0937 0.2974 0.6262
H10G H 0.2037 -0.0937 0.6262
H10A H -0.0937 0.2037 0.3738
C16H C -0.1809(3) 0.0065(4) 0.7127(3)
C16B C 0.0065(4) -0.1809(3) 0.2873(3)
C16F C 0.1874(3) 0.1809(3) 0.7127(3)
C16G C -0.0065(4) -0.1874(3) 0.7127(3)
C16A C -0.1874(3) -0.0065(4) 0.2873(3)
C17H C -0.1511(3) 0.0559(4) 0.6720(3)
C17B C 0.0559(4) -0.1511(3) 0.3280(3)
C17F C 0.2070(3) 0.1511(3) 0.6720(3)
C17G C -0.0559(4) -0.2070(3) 0.6720(3)
C17A C -0.2070(3) -0.0559(4) 0.3280(3)
H11H H -0.1306 0.0931 0.6900
H11B H 0.0931 -0.1306 0.3100
H11F H 0.2237 0.1306 0.6900
H11G H -0.0931 -0.2237 0.6900
H11A H -0.2237 -0.0931 0.3100
H12H H -0.1803 0.0556 0.6489
H12B H 0.0556 -0.1803 0.3511
H12F H 0.2359 0.1803 0.6489
H12G H -0.0556 -0.2359 0.6489
H12A H -0.2359 -0.0556 0.3511
H13H H -0.1236 0.0501 0.6515
H13B H 0.0501 -0.1236 0.3485
H13F H 0.1737 0.1236 0.6515
H13G H -0.0501 -0.1737 0.6515
H13A H -0.1737 -0.0501 0.3485
C18H C -0.1350(3) 0.0064(4) 0.7506(3)
C18B C 0.0064(4) -0.1350(3) 0.2494(3)
C18F C 0.1414(3) 0.1350(3) 0.7506(3)
C18G C -0.0064(4) -0.1414(3) 0.7506(3)
C18A C -0.1414(3) -0.0064(4) 0.2494(3)
H14H H -0.1138 0.0439 0.7679
H14B H 0.0439 -0.1138 0.2321
H14F H 0.1577 0.1138 0.7679
H14G H -0.0439 -0.1577 0.7679
H14A H -0.1577 -0.0439 0.2321
H15H H -0.1080 -0.0008 0.7307
H15B H -0.0008 -0.1080 0.2693
H15F H 0.1072 0.1080 0.7307
H15G H 0.0008 -0.1072 0.7307
H15A H -0.1072 0.0008 0.2693
H16H H -0.1545 -0.0240 0.7767
H16B H -0.0240 -0.1545 0.2233
H16F H 0.1305 0.1545 0.7767
H16G H 0.0240 -0.1305 0.7767
H16A H -0.1305 0.0240 0.2233
C19H C -0.2221(3) 0.0203(4) 0.7465(4)
C19B C 0.0203(4) -0.2221(3) 0.2535(4)
C19F C 0.2424(3) 0.2221(3) 0.7465(4)
C19G C -0.0203(4) -0.2424(3) 0.7465(4)
C19A C -0.2424(3) -0.0203(4) 0.2535(4)
H17H H -0.1995 0.0583 0.7627
H17B H 0.0583 -0.1995 0.2373
H17F H 0.2578 0.1995 0.7627
H17G H -0.0583 -0.2578 0.7627
H17A H -0.2578 -0.0583 0.2373
H18H H -0.2406 -0.0091 0.7736
H18B H -0.0091 -0.2406 0.2264
H18F H 0.2315 0.2406 0.7736
H18G H 0.0091 -0.2315 0.7736
H18A H -0.2315 0.0091 0.2264
H19H H -0.2517 0.0202 0.7241
H19B H 0.0202 -0.2517 0.2759
H19F H 0.2719 0.2517 0.7241
H19G H -0.0202 -0.2719 0.7241
H19A H -0.2719 -0.0202 0.2759
C20H C -0.37187(13) -0.17977(22) 0.6746(3)
C20B C -0.17977(22) -0.37187(13) 0.3254(3)
C20F C 0.19210(18) 0.37187(13) 0.6746(3)
C20G C 0.17977(22) -0.19210(18) 0.6746(3)
C20A C -0.19210(18) 0.17977(22) 0.3254(3)
C21H C -0.40076(18) -0.24087(23) 0.6732(3)
C21B C -0.24087(23) -0.40076(18) 0.3268(3)
C21F C 0.15989(15) 0.40076(18) 0.6732(3)
C21G C 0.24087(23) -0.15989(15) 0.6732(3)
C21A C -0.15989(15) 0.24087(23) 0.3268(3)
H20H H -0.3792 -0.2602 0.6716
H20B H -0.2602 -0.3792 0.3284
H20F H 0.1190 0.3792 0.6716
H20G H 0.2602 -0.1190 0.6716
H20A H -0.1190 0.2602 0.3284
C22H C -0.46186(18) -0.27316(27) 0.6741(3)
C22B C -0.27316(27) -0.46186(18) 0.3259(3)
C22F C 0.1887(2) 0.46186(18) 0.6741(3)
C22G C 0.27316(27) -0.1887(2) 0.6741(3)
C22A C -0.1887(2) 0.27316(27) 0.3259(3)
H21H H -0.4812 -0.3140 0.6731
H21B H -0.3140 -0.4812 0.3269
H21F H 0.1672 0.4812 0.6731
H21G H 0.3140 -0.1672 0.6731
H21A H -0.1672 0.3140 0.3269
N1H N -0.49409(13) -0.24429(24) 0.6764(3)
N1B N -0.24429(24) -0.49409(13) 0.3236(3)
N1F N 0.2498(2) 0.49409(13) 0.6764(3)
N1G N 0.24429(24) -0.2498(2) 0.6764(3)
N1A N -0.2498(2) 0.24429(24) 0.3236(3)
C23H C -0.46521(18) -0.18320(23) 0.6778(3)
C23B C -0.18320(23) -0.46521(18) 0.3222(3)
C23F C 0.28201(15) 0.46521(18) 0.6778(3)
C23G C 0.18320(23) -0.28201(15) 0.6778(3)
C23A C -0.28201(15) 0.18320(23) 0.3222(3)
H22H H -0.4868 -0.1639 0.6794
H22B H -0.1639 -0.4868 0.3206
H22F H 0.3229 0.4868 0.6794
H22G H 0.1639 -0.3229 0.6794
H22A H -0.3229 0.1639 0.3206
C24H C -0.40410(18) -0.15093(25) 0.6769(3)
C24B C -0.15093(25) -0.40410(18) 0.3231(3)
C24F C 0.25317(18) 0.40410(18) 0.6769(3)
C24G C 0.15093(25) -0.25317(18) 0.6769(3)
C24A C -0.25317(18) 0.15093(25) 0.3231(3)
H23H H -0.3848 -0.1101 0.6779
H23B H -0.1101 -0.3848 0.3221
H23F H 0.2747 0.3848 0.6779
H23G H 0.1101 -0.2747 0.6779
H23A H -0.2747 0.1101 0.3221
N2H N -0.13850(18) -0.13480(27) 0.58316(18)
N2B N -0.13480(27) -0.13850(18) 0.41684(18)
N2F N 0.0037(2) 0.13850(18) 0.58316(18)
N2G N 0.13480(27) -0.0037(2) 0.58316(18)
N2A N -0.0037(2) 0.13480(27) 0.41684(18)
O8F O -0.0000 0.0000 0.6359(2)
O9H O -0.02913(14) -0.07242(20) 0.55128(16)
O9B O -0.07242(20) -0.02913(14) 0.44872(16)
O9F O -0.04329(14) 0.02913(14) 0.55128(16)
O9G O 0.07242(20) 0.04329(14) 0.55128(16)
O9A O 0.04329(14) 0.07242(20) 0.44872(16)
O10H O -0.12715(17) -0.04132(25) 0.64611(17)
O10B O -0.04132(25) -0.12715(17) 0.35389(17)
O10F O 0.08583(18) 0.12715(17) 0.64611(17)
O10G O 0.04132(25) -0.08583(18) 0.64611(17)
O10A O -0.08583(18) 0.04132(25) 0.35389(17)
O11H O -0.6667 -0.3334 0.6988(8)
O11B O -0.3334 -0.6667 0.3012(8)
O11F O 0.3333 0.6667 0.6988(8)
O11G O 0.3334 -0.3333 0.6988(8)
O11A O -0.3333 0.3334 0.3012(8)
S1A S 0.59564(6) 0.19128(8) 0.2500
S1D S -0.59564(6) -0.19128(8) 0.7500
O12I O 0.6608(2) 0.4303(2) 0.2517(4)
O12K O 0.5697(2) 0.2305(3) 0.2517(4)
O12A O 0.6608(2) 0.2305(3) 0.2483(4)
O12H O -0.5697(2) -0.2305(3) 0.7517(4)
O12D O -0.6608(2) -0.2305(3) 0.7483(4)
O12C O -0.5697(2) -0.3392(2) 0.7483(4)
O12B O -0.2305(3) -0.5697(2) 0.2483(4)
O12I_2 O -0.3392(2) -0.5697(2) 0.2517(4)
O12F O 0.3392(2) 0.5697(2) 0.7517(4)
O12E O 0.2305(3) 0.5697(2) 0.7483(4)
O12G O 0.2305(3) -0.3392(2) 0.7517(4)
O12D_2 O 0.3392(2) -0.2305(3) 0.7483(4)
O12A_2 O -0.3392(2) 0.2305(3) 0.2483(4)
O12J O -0.2305(3) 0.3392(2) 0.2517(4)
O13I O 0.5782(4) 0.4225(4) 0.2016(6)
O13K O 0.5775(4) 0.1557(6) 0.2016(6)
O13A O 0.5782(4) 0.1557(6) 0.2984(6)
O13H O -0.5775(4) -0.1557(6) 0.7016(6)
O13D O -0.5782(4) -0.1557(6) 0.7984(6)
S2B S 0.7327(4) 0.3654(3) 0.4114(3)
S2A S 0.6327(3) 0.2673(4) 0.4114(3)
S2H S -0.6346(3) -0.2673(4) 0.5886(3)
S2G S -0.7327(4) -0.3673(3) 0.5886(3)
S2F S -0.6327(3) -0.3654(3) 0.5886(3)
O14B O 0.7557(9) 0.4153(6) 0.3741(6)
O14A O 0.6596(7) 0.2443(9) 0.3741(6)
O14H O -0.5847(6) -0.2443(9) 0.6259(6)
O14G O -0.7557(9) -0.3404(7) 0.6259(6)
O14F O -0.6596(7) -0.4153(6) 0.6259(6)
O14B_2 O -0.2443(9) -0.5847(6) 0.3741(6)
O14F_2 O 0.3404(7) 0.5847(6) 0.6259(6)
O14G_2 O 0.2443(9) -0.3404(7) 0.6259(6)
O14A_2 O -0.3404(7) 0.2443(9) 0.3741(6)
O15B O 0.7644(11) 0.3827(8) 0.4635(6)
O15A O 0.6183(7) 0.2356(11) 0.4635(6)
O15H O -0.6173(8) -0.2356(11) 0.5365(6)
O15G O -0.7644(11) -0.3817(7) 0.5365(6)
O15F O -0.6183(7) -0.3827(8) 0.5365(6)
O16H O -0.6667 -0.3334 0.5780(5)
O17B O 0.7456(6) 0.3239(4) 0.3811(4)
O17A O 0.5783(4) 0.2544(6) 0.3811(4)
O17H O -0.6761(4) -0.2544(6) 0.6189(4)
O17G O -0.7456(6) -0.4217(4) 0.6189(4)
O17F O -0.5783(4) -0.3239(4) 0.6189(4)
O17_2 O -0.3239(4) -0.5783(4) 0.3811(4)
O17G_2 O 0.2544(6) 0.5783(4) 0.6189(4)
O17H_2 O 0.3239(4) -0.2544(6) 0.6189(4)
O17B_2 O -0.2544(6) 0.3239(4) 0.3811(4)
O1 O 0.0000 0.0000 0.2500
loop_
_geom_bond_atom_site_label_1
_geom_bond_atom_site_label_2
_geom_bond_site_symmetry_1
_geom_bond_site_symmetry_2
Cu1 N2 1_555 1_555
Cu2 O9 1_555 1_555
Cu3 N1 1_555 1_555
C1 C2 1_555 1_555
C2 C3 1_555 1_555
C3 H1 1_555 1_555
C4 C3 1_555 1_555
C5 C4 1_555 1_555
C6 C1 1_555 1_555
C7 C5 1_555 1_555
H2 C7 1_555 1_555
H3 C7 1_555 1_555
H4 C7 1_555 1_555
C8 C4 1_555 1_555
H5 C8 1_555 1_555
H6 C8 1_555 1_555
H7 C8 1_555 1_555
C9 H8 1_555 1_555
C10 C9 1_555 1_555
C11 C10 1_555 1_555
C12 C11 1_555 1_555
C13 C12 1_555 1_555
H9 C13 1_555 1_555
C14 C13 1_555 1_555
C15 C10 1_555 1_555
H10 C15 1_555 1_555
C16 C12 1_555 1_555
C17 C16 1_555 1_555
H11 C17 1_555 1_555
H12 C17 1_555 1_555
H13 C17 1_555 1_555
C18 C16 1_555 1_555
H14 C18 1_555 1_555
H15 C18 1_555 1_555
H16 C18 1_555 1_555
C19 C16 1_555 1_555
H17 C19 1_555 1_555
H18 C19 1_555 1_555
H19 C19 1_555 1_555
C20 C14 1_555 1_555
C21 C20 1_555 1_555
H20 C21 1_555 1_555
C22 C21 1_555 1_555
H21 C22 1_555 1_555
N1 C22 1_555 1_555
C23 N1 1_555 1_555
H22 C23 1_555 1_555
C24 C20 1_555 1_555
H23 C24 1_555 1_555
N2 C2 1_555 1_555
O8 Cu1 1_555 1_555
O9 Cu1 1_555 1_555
O10 Cu1 1_555 1_555
O11 Cu3 1_555 1_555
S1 O12 1_555 1_555
O12 Cu3 1_555 1_555
O13 S1 1_555 1_555
S2 O14 1_555 1_555
O14 Cu3 1_555 1_555
O15 S2 1_555 1_555
O16 S2 1_555 1_555
O17 S2 1_555 1_555
Cu1H N2H 1_555 1_555
Cu1B O8 1_555 1_555
Cu1F N2F 1_555 1_555
Cu1G N2G 1_555 1_555
Cu1A O8 1_555 1_555
Cu3H N1H 1_555 1_555
Cu3B N1B 1_555 1_555
Cu3F N1F 1_555 1_555
Cu3G N1G 1_555 1_555
Cu3A N1A 1_555 1_555
Cu3B_2 O11 1_555 1_555
Cu3A_2 O11 1_555 1_555
Cu3K O12 1_555 1_555
Cu3I O12I 1_555 1_555
Cu3J O12A 1_555 1_555
Cu3G_2 O11H 1_555 1_555
Cu3F_2 O11H 1_555 1_555
Cu3C O12H 1_555 1_555
Cu3D O12D 1_555 1_555
C1H C2H 1_555 1_555
C1B C2B 1_555 1_555
C1F C2F 1_555 1_555
C1G C2G 1_555 1_555
C1A C2A 1_555 1_555
C2H C3H 1_555 1_555
C2B C3B 1_555 1_555
C2F C3F 1_555 1_555
C2G C3G 1_555 1_555
C2A C3A 1_555 1_555
C3H H1H 1_555 1_555
C3B H1B 1_555 1_555
C3F H1F 1_555 1_555
C3G H1G 1_555 1_555
C3A H1A 1_555 1_555
C4H C3H 1_555 1_555
C4B C3B 1_555 1_555
C4F C3F 1_555 1_555
C4G C3G 1_555 1_555
C4A C3A 1_555 1_555
C5H C4H 1_555 1_555
C5B C4B 1_555 1_555
C5F C4F 1_555 1_555
C5G C4G 1_555 1_555
C5A C4A 1_555 1_555
C6H C6 1_555 1_555
C6B C1B 1_555 1_555
C6F C1F 1_555 1_555
C6G C1G 1_555 1_555
C6A C1A 1_555 1_555
C7H C5H 1_555 1_555
C7B C5B 1_555 1_555
C7F C5F 1_555 1_555
C7G C5G 1_555 1_555
C7A C5A 1_555 1_555
H2H C7H 1_555 1_555
H2B C7B 1_555 1_555
H2F C7F 1_555 1_555
H2G C7G 1_555 1_555
H2A C7A 1_555 1_555
H3H C7H 1_555 1_555
H3B C7B 1_555 1_555
H3F C7F 1_555 1_555
H3G C7G 1_555 1_555
H3A C7A 1_555 1_555
H4H C7H 1_555 1_555
H4B C7B 1_555 1_555
H4F C7F 1_555 1_555
H4G C7G 1_555 1_555
H4A C7A 1_555 1_555
C8H C4H 1_555 1_555
C8B C4B 1_555 1_555
C8F C4F 1_555 1_555
C8G C4G 1_555 1_555
C8A C4A 1_555 1_555
H5H C8H 1_555 1_555
H5B C8B 1_555 1_555
H5F C8F 1_555 1_555
H5G C8G 1_555 1_555
H5A C8A 1_555 1_555
H6H C8H 1_555 1_555
H6B C8B 1_555 1_555
H6F C8F 1_555 1_555
H6G C8G 1_555 1_555
H6A C8A 1_555 1_555
H7H C8H 1_555 1_555
H7B C8B 1_555 1_555
H7F C8F 1_555 1_555
H7G C8G 1_555 1_555
H7A C8A 1_555 1_555
C9H H8H 1_555 1_555
C9B H8B 1_555 1_555
C9F H8F 1_555 1_555
C9G H8G 1_555 1_555
C9A H8A 1_555 1_555
C10H C9H 1_555 1_555
C10B C9B 1_555 1_555
C10F C9F 1_555 1_555
C10G C9G 1_555 1_555
C10A C9A 1_555 1_555
C11H C10H 1_555 1_555
C11B C10B 1_555 1_555
C11F C10F 1_555 1_555
C11G C10G 1_555 1_555
C11A C10A 1_555 1_555
C12H C11H 1_555 1_555
C12B C11B 1_555 1_555
C12F C11F 1_555 1_555
C12G C11G 1_555 1_555
C12A C11A 1_555 1_555
C13H C12H 1_555 1_555
C13B C12B 1_555 1_555
C13F C12F 1_555 1_555
C13G C12G 1_555 1_555
C13A C12A 1_555 1_555
H9H C13H 1_555 1_555
H9B C13B 1_555 1_555
H9F C13F 1_555 1_555
H9G C13G 1_555 1_555
H9A C13A 1_555 1_555
C14H C13H 1_555 1_555
C14B C13B 1_555 1_555
C14F C13F 1_555 1_555
C14G C13G 1_555 1_555
C14A C13A 1_555 1_555
C15H C10H 1_555 1_555
C15B C10B 1_555 1_555
C15F C10F 1_555 1_555
C15G C10G 1_555 1_555
C15A C10A 1_555 1_555
H10H C15H 1_555 1_555
H10B C15B 1_555 1_555
H10F C15F 1_555 1_555
H10G C15G 1_555 1_555
H10A C15A 1_555 1_555
C16H C12H 1_555 1_555
C16B C12B 1_555 1_555
C16F C12F 1_555 1_555
C16G C12G 1_555 1_555
C16A C12A 1_555 1_555
C17H C16H 1_555 1_555
C17B C16B 1_555 1_555
C17F C16F 1_555 1_555
C17G C16G 1_555 1_555
C17A C16A 1_555 1_555
H11H C17H 1_555 1_555
H11B C17B 1_555 1_555
H11F C17F 1_555 1_555
H11G C17G 1_555 1_555
H11A C17A 1_555 1_555
H12H C17H 1_555 1_555
H12B C17B 1_555 1_555
H12F C17F 1_555 1_555
H12G C17G 1_555 1_555
H12A C17A 1_555 1_555
H13H C17H 1_555 1_555
H13B C17B 1_555 1_555
H13F C17F 1_555 1_555
H13G C17G 1_555 1_555
H13A C17A 1_555 1_555
C18H C16H 1_555 1_555
C18B C16B 1_555 1_555
C18F C16F 1_555 1_555
C18G C16G 1_555 1_555
C18A C16A 1_555 1_555
H14H C18H 1_555 1_555
H14B C18B 1_555 1_555
H14F C18F 1_555 1_555
H14G C18G 1_555 1_555
H14A C18A 1_555 1_555
H15H C18H 1_555 1_555
H15B C18B 1_555 1_555
H15F C18F 1_555 1_555
H15G C18G 1_555 1_555
H15A C18A 1_555 1_555
H16H C18H 1_555 1_555
H16B C18B 1_555 1_555
H16F C18F 1_555 1_555
H16G C18G 1_555 1_555
H16A C18A 1_555 1_555
C19H C16H 1_555 1_555
C19B C16B 1_555 1_555
C19F C16F 1_555 1_555
C19G C16G 1_555 1_555
C19A C16A 1_555 1_555
H17H C19H 1_555 1_555
H17B C19B 1_555 1_555
H17F C19F 1_555 1_555
H17G C19G 1_555 1_555
H17A C19A 1_555 1_555
H18H C19H 1_555 1_555
H18B C19B 1_555 1_555
H18F C19F 1_555 1_555
H18G C19G 1_555 1_555
H18A C19A 1_555 1_555
H19H C19H 1_555 1_555
H19B C19B 1_555 1_555
H19F C19F 1_555 1_555
H19G C19G 1_555 1_555
H19A C19A 1_555 1_555
C20H C14H 1_555 1_555
C20B C14B 1_555 1_555
C20F C14F 1_555 1_555
C20G C14G 1_555 1_555
C20A C14A 1_555 1_555
C21H C20H 1_555 1_555
C21B C20B 1_555 1_555
C21F C20F 1_555 1_555
C21G C20G 1_555 1_555
C21A C20A 1_555 1_555
H20H C21H 1_555 1_555
H20B C21B 1_555 1_555
H20F C21F 1_555 1_555
H20G C21G 1_555 1_555
H20A C21A 1_555 1_555
C22H C21H 1_555 1_555
C22B C21B 1_555 1_555
C22F C21F 1_555 1_555
C22G C21G 1_555 1_555
C22A C21A 1_555 1_555
H21H C22H 1_555 1_555
H21B C22B 1_555 1_555
H21F C22F 1_555 1_555
H21G C22G 1_555 1_555
H21A C22A 1_555 1_555
N1H C22H 1_555 1_555
N1B C22B 1_555 1_555
N1F C22F 1_555 1_555
N1G C22G 1_555 1_555
N1A C22A 1_555 1_555
C23H N1H 1_555 1_555
C23B N1B 1_555 1_555
C23F N1F 1_555 1_555
C23G N1G 1_555 1_555
C23A N1A 1_555 1_555
H22H C23H 1_555 1_555
H22B C23B 1_555 1_555
H22F C23F 1_555 1_555
H22G C23G 1_555 1_555
H22A C23A 1_555 1_555
C24H C20H 1_555 1_555
C24B C20B 1_555 1_555
C24F C20F 1_555 1_555
C24G C20G 1_555 1_555
C24A C20A 1_555 1_555
H23H C24H 1_555 1_555
H23B C24B 1_555 1_555
H23F C24F 1_555 1_555
H23G C24G 1_555 1_555
H23A C24A 1_555 1_555
N2H C2H 1_555 1_555
N2B Cu1B 1_555 1_555
N2F C2F 1_555 1_555
N2G C2G 1_555 1_555
N2A Cu1A 1_555 1_555
O8F Cu1H 1_555 1_555
O9H Cu2 1_555 1_555
O9B Cu2 1_555 1_555
O9F Cu2 1_555 1_555
O9G Cu2 1_555 1_555
O9A Cu1 1_555 1_555
O10H Cu1H 1_555 1_555
O10B Cu1B 1_555 1_555
O10F Cu1F 1_555 1_555
O10G Cu1G 1_555 1_555
O10A Cu1A 1_555 1_555
O11H Cu3H 1_555 1_555
O11B Cu3B 1_555 1_555
O11F Cu3F 1_555 1_555
O11G Cu3G 1_555 1_555
O11A Cu3A 1_555 1_555
S1A O12K 1_555 1_555
S1D O12H 1_555 1_555
O12I S1 1_555 1_555
O12K Cu3 1_555 1_555
O12A Cu3A_2 1_555 1_555
O12H Cu3H 1_555 1_555
O12D Cu3G_2 1_555 1_555
O12C Cu3H 1_555 1_555
O12B Cu3B 1_555 1_555
O12I_2 Cu3B 1_555 1_555
O12F Cu3F 1_555 1_555
O12E Cu3F 1_555 1_555
O12G Cu3G 1_555 1_555
O12D_2 Cu3G 1_555 1_555
O12A_2 Cu3A 1_555 1_555
O12J Cu3A 1_555 1_555
O13I S1 1_555 1_555
O13K S1A 1_555 1_555
O13A S1A 1_555 1_555
O13H S1D 1_555 1_555
O13D S1D 1_555 1_555
S2B O16 1_555 1_555
S2A O16 1_555 1_555
S2H O14H 1_555 1_555
S2G O14G 1_555 1_555
S2F O14F 1_555 1_555
O14B Cu3B_2 1_555 1_555
O14A Cu3A_2 1_555 1_555
O14H Cu3H 1_555 1_555
O14G Cu3G_2 1_555 1_555
O14F Cu3F_2 1_555 1_555
O14B_2 Cu3B 1_555 1_555
O14F_2 Cu3F 1_555 1_555
O14G_2 Cu3G 1_555 1_555
O14A_2 Cu3A 1_555 1_555
O15B S2B 1_555 1_555
O15A S2A 1_555 1_555
O15H S2H 1_555 1_555
O15G S2G 1_555 1_555
O15F S2F 1_555 1_555
O16H S2H 1_555 1_555
O17B Cu3A_2 1_555 1_555
O17A Cu3 1_555 1_555
O17H Cu3G_2 1_555 1_555
O17G Cu3F_2 1_555 1_555
O17F Cu3H 1_555 1_555
O17_2 Cu3B 1_555 1_555
O17G_2 Cu3F 1_555 1_555
O17H_2 Cu3G 1_555 1_555
O17B_2 Cu3A 1_555 1_555
Cu2 O9A 1_555 1_555
C1 O9 1_555 1_555
C5 C6 1_555 1_555
C9 N2 1_555 1_555
C11 O10 1_555 1_555
C14 C15 1_555 1_555
C23 C24 1_555 1_555
O9 Cu1B 1_555 1_555
O17 Cu3B_2 1_555 1_555
Cu1H O9H 1_555 1_555
Cu1H O9F 1_555 1_555
Cu1B O9B 1_555 1_555
Cu1F O8F 1_555 1_555
Cu1F O9F 1_555 1_555
Cu1F O9G 1_555 1_555
Cu1G O8F 1_555 1_555
Cu1G O9H 1_555 1_555
Cu1G O9G 1_555 1_555
Cu1A O9B 1_555 1_555
Cu1A O9A 1_555 1_555
Cu3B_2 O12I 1_555 1_555
Cu3K O12K 1_555 1_555
Cu3C O12C 1_555 1_555
C1H C6H 1_555 1_555
C1H O9H 1_555 1_555
C1B O9B 1_555 1_555
C1F O9F 1_555 1_555
C1G O9G 1_555 1_555
C1A O9A 1_555 1_555
C2B N2B 1_555 1_555
C2A N2A 1_555 1_555
C5H C6H 1_555 1_555
C5B C6B 1_555 1_555
C5F C6F 1_555 1_555
C5G C6G 1_555 1_555
C5A C6A 1_555 1_555
C6B C6F 1_555 1_555
C6G C6A 1_555 1_555
C9H N2H 1_555 1_555
C9B N2B 1_555 1_555
C9F N2F 1_555 1_555
C9G N2G 1_555 1_555
C9A N2A 1_555 1_555
C11H O10H 1_555 1_555
C11B O10B 1_555 1_555
C11F O10F 1_555 1_555
C11G O10G 1_555 1_555
C11A O10A 1_555 1_555
C14H C15H 1_555 1_555
C14B C15B 1_555 1_555
C14F C15F 1_555 1_555
C14G C15G 1_555 1_555
C14A C15A 1_555 1_555
C23H C24H 1_555 1_555
C23B C24B 1_555 1_555
C23F C24F 1_555 1_555
C23G C24G 1_555 1_555
C23A C24A 1_555 1_555
S1A O12A 1_555 1_555
S1D O12D 1_555 1_555
S2B O14B 1_555 1_555
S2B O17B 1_555 1_555
S2A O14A 1_555 1_555
S2A O17A 1_555 1_555
S2H O17H 1_555 1_555
S2G O16H 1_555 1_555
S2G O17G 1_555 1_555
S2F O16H 1_555 1_555
S2F O17F 1_555 1_555

#END
