
#######################################################################
#
#                 Cambridge Crystallographic Data Centre
#                                CCDC 
#
#######################################################################
#
# If this CIF has been generated from an entry in the Cambridge 
# Structural Database, then it will include bibliographic, chemical, 
# crystal, experimental, refinement or atomic coordinate data resulting 
# from the CCDC's data processing and validation procedures.
#
#######################################################################

data_EMIZAD
_chemical_formula_moiety         '(C48 H32 O16 Zr3)n'
_symmetry_cell_setting           hexagonal
_symmetry_space_group_name_H-M   'P 6/m m m'
_symmetry_Int_Tables_number      191
_space_group_name_Hall           '-P 6 2'
loop_
_symmetry_equiv_pos_site_id
_symmetry_equiv_pos_as_xyz
1 x,y,z
2 -y,x-y,z
3 -x+y,-x,z
4 -x,-y,z
5 y,-x+y,z
6 x-y,x,z
7 y,x,-z
8 x-y,-y,-z
9 -x,-x+y,-z
10 -y,-x,-z
11 -x+y,y,-z
12 x,x-y,-z
13 -x,-y,-z
14 y,-x+y,-z
15 x-y,x,-z
16 x,y,-z
17 -y,x-y,-z
18 -x+y,-x,-z
19 -y,-x,z
20 -x+y,y,z
21 x,x-y,z
22 y,x,z
23 x-y,-y,z
24 -x,-x+y,z
_cell_length_a                   45.4548(6)
_cell_length_b                   45.4548(6)
_cell_length_c                   15.5951(2)
_cell_angle_alpha                90
_cell_angle_beta                 90
_cell_angle_gamma                120
_cell_volume                     27904.8
loop_
_atom_site_label
_atom_site_type_symbol
_atom_site_fract_x
_atom_site_fract_y
_atom_site_fract_z
Zr1 Zr 0.46883(2) 0.53117(2) 0.5000
Zr2 Zr 0.46105(2) 0.46105(2) 0.61341(3)
O1 O 0.42525(6) 0.51597(7) 0.58533(16)
O2 O 0.41967(7) 0.47071(8) 0.6587(2)
O3 O 0.52347(12) 0.55399(16) 0.5000
H1 H 0.5339 0.5793 0.5000
O4 O 0.48509(6) 0.51491(6) 0.3867(4)
O5 O 0.41328(10) 0.41328(10) 0.5982(4)
H2 H 0.4102(19) 0.3932(11) 0.577(5)
O6 O 0.46384(11) 0.46384(11) 0.7534(3)
C1 C 0.41093(10) 0.49219(11) 0.6388(3)
C2 C 0.38059(12) 0.48961(13) 0.6861(3)
C3 C 0.36765(13) 0.51009(16) 0.6572(3)
H3 H 0.3774 0.5244 0.6088
C4 C 0.34025(14) 0.50909(17) 0.7006(3)
H4 H 0.3318 0.5236 0.6836
C5 C 0.32533(13) 0.48661(16) 0.7691(3)
C6 C 0.33845(14) 0.46593(16) 0.7942(3)
H5 H 0.3283 0.4506 0.8407
C7 C 0.36602(12) 0.46749(14) 0.7523(3)
H6 H 0.3747 0.4532 0.7696
C8 C 0.29626(13) 0.48527(18) 0.8156(3)
C9 C 0.27014(13) 0.48614(19) 0.7715(3)
H7 H 0.2708 0.4874 0.7106
C10 C 0.24260(14) 0.4852(3) 0.8163(4)
C11 C 0.24240(13) 0.4848(3) 0.9090(4)
C12 C 0.26973(12) 0.48447(16) 0.9533(3)
C13 C 0.29565(13) 0.48456(18) 0.9060(3)
H8 H 0.3137 0.4841 0.9357
O1O O 0.42525(6) 0.51597(7) 1.41467(16)
O2O O 0.41967(7) 0.47071(8) 1.3413(2)
C1O C 0.41093(10) 0.49219(11) 1.3612(3)
C2O C 0.38059(12) 0.48961(13) 1.3139(3)
C3O C 0.36765(13) 0.51009(16) 1.3428(3)
H3O H 0.3774 0.5244 1.3912
C4O C 0.34025(14) 0.50909(17) 1.2994(3)
H4O H 0.3318 0.5236 1.3164
C5O C 0.32533(13) 0.48661(16) 1.2309(3)
C6O C 0.33845(14) 0.46593(16) 1.2058(3)
H5O H 0.3283 0.4506 1.1593
C7O C 0.36602(12) 0.46749(14) 1.2477(3)
H6O H 0.3747 0.4532 1.2304
C8O C 0.29626(13) 0.48527(18) 1.1844(3)
C9O C 0.27014(13) 0.48614(19) 1.2285(3)
H7O H 0.2708 0.4874 1.2894
C10J C 0.24260(33) 0.4852(3) 1.1837(4)
C11J C 0.24240(33) 0.4848(3) 1.0910(4)
C12O C 0.26973(12) 0.48447(16) 1.0467(3)
C13O C 0.29565(13) 0.48456(18) 1.0940(3)
H8O H 0.3137 0.4841 1.0643
O1S O 0.09072(9) 0.51597(7) 0.58533(16)
O2S O 0.05104(11) 0.47071(8) 0.6587(2)
C1S C 0.08126(15) 0.49219(11) 0.6388(3)
C2S C 0.10902(18) 0.48961(13) 0.6861(3)
C3S C 0.14244(21) 0.51009(16) 0.6572(3)
H3S H 0.1470 0.5244 0.6088
C4S C 0.16884(22) 0.50909(17) 0.7006(3)
H4S H 0.1918 0.5236 0.6836
C5S C 0.16128(21) 0.48661(16) 0.7691(3)
C6S C 0.12748(21) 0.46593(16) 0.7942(3)
H5S H 0.1223 0.4506 0.8407
C7S C 0.10147(18) 0.46749(14) 0.7523(3)
H6S H 0.0785 0.4532 0.7696
C8S C 0.18901(22) 0.48527(18) 0.8156(3)
C9S C 0.21600(23) 0.48614(19) 0.7715(3)
H7S H 0.2166 0.4874 0.7106
C12S C 0.21474(20) 0.48447(16) 0.9533(3)
C13S C 0.18891(22) 0.48456(18) 0.9060(3)
H8S H 0.1704 0.4841 0.9357
O1J O 0.09072(9) 0.51597(7) 1.41467(16)
O2J O 0.05104(11) 0.47071(8) 1.3413(2)
C1J C 0.08126(15) 0.49219(11) 1.3612(3)
C2J C 0.10902(18) 0.48961(13) 1.3139(3)
C3J C 0.14244(21) 0.51009(16) 1.3428(3)
H3J H 0.1470 0.5244 1.3912
C4J C 0.16884(22) 0.50909(17) 1.2994(3)
H4J H 0.1918 0.5236 1.3164
C5J C 0.16128(21) 0.48661(16) 1.2309(3)
C6J C 0.12748(21) 0.46593(16) 1.2058(3)
H5J H 0.1223 0.4506 1.1593
C7J C 0.10147(18) 0.46749(14) 1.2477(3)
H6J H 0.0785 0.4532 1.2304
C8J C 0.18901(22) 0.48527(18) 1.1844(3)
C9J C 0.21600(23) 0.48614(19) 1.2285(3)
H7J H 0.2166 0.4874 1.2894
C12J C 0.21474(20) 0.48447(16) 1.0467(3)
C13J C 0.18891(22) 0.48456(18) 1.0940(3)
H8J H 0.1704 0.4841 1.0643
H2U H 0.3932(11) 0.4102(19) 0.577(5)
Zr2C Zr 0.53895(2) 0.53895(2) 0.61341(3)
O5C O 0.58672(10) 0.58672(10) 0.5982(4)
H2C H 0.5898(19) 0.6068(11) 0.577(5)
O6C O 0.53616(11) 0.53616(11) 0.7534(3)
H2R H 0.6068(11) 0.5898(19) 0.577(5)
O3I O 0.44601(16) 0.47653(12) 0.5000
H1I H 0.4207 0.4661 0.5000
O4I O 0.48509(6) 0.51491(6) 0.6133(4)
Zr1_2 Zr 0.46883(2) 0.53117(2) 1.5000
Zr1B Zr 0.06234(3) 0.53117(2) 0.5000
Zr1B_2 Zr 0.06234(3) 0.53117(2) 1.5000
Zr2E Zr -0.00000(3) 0.46105(2) 0.61341(3)
Zr2F Zr 0.46105(2) 0.46105(2) 0.38659(3)
Zr2F_2 Zr 0.46105(2) 0.46105(2) 1.38659(3)
Zr2I Zr 0.53895(2) 0.53895(2) 0.38659(3)
Zr2J Zr 0.00000(3) 0.46105(2) 1.38659(3)
O1I O 0.48403(7) 0.57475(6) 0.41467(16)
O1O_2 O 0.42525(6) 0.51597(7) 0.41467(16)
O1R O 0.48403(7) 0.57475(6) 0.58533(16)
O2C O 0.58033(7) 0.52929(8) 0.6587(2)
O2R O 0.52929(8) 0.58033(7) 0.6587(2)
O2U O 0.47071(8) 0.41967(7) 0.6587(2)
O3C O 0.47653(12) 0.44601(16) 0.5000
O3F O 0.55399(16) 0.52347(12) 0.5000
O4F O 0.51491(6) 0.48509(6) 0.6133(4)
loop_
_geom_bond_atom_site_label_1
_geom_bond_atom_site_label_2
_geom_bond_site_symmetry_1
_geom_bond_site_symmetry_2
Zr1 O1 1_555 1_555
Zr2 O2 1_555 1_555
O1 C1 1_555 1_555
O2 C1 1_555 1_555
O3 Zr1 1_555 1_555
H1 O3 1_555 1_555
O4 Zr1 1_555 1_555
O5 Zr2 1_555 1_555
H2 O5 1_555 1_555
O6 Zr2 1_555 1_555
C1 C2 1_555 1_555
C2 C3 1_555 1_555
C3 H3 1_555 1_555
C4 C3 1_555 1_555
H4 C4 1_555 1_555
C5 C4 1_555 1_555
C6 C5 1_555 1_555
H5 C6 1_555 1_555
C7 C2 1_555 1_555
H6 C7 1_555 1_555
C8 C5 1_555 1_555
C9 C8 1_555 1_555
H7 C9 1_555 1_555
C10 C9 1_555 1_555
C11 C10 1_555 1_555
C12 C11 1_555 1_555
C13 C8 1_555 1_555
H8 C13 1_555 1_555
O1O C1O 1_555 1_555
O2O C1O 1_555 1_555
C1O C2O 1_555 1_555
C2O C3O 1_555 1_555
C3O H3O 1_555 1_555
C4O C3O 1_555 1_555
H4O C4O 1_555 1_555
C5O C4O 1_555 1_555
C6O C5O 1_555 1_555
H5O C6O 1_555 1_555
C7O C2O 1_555 1_555
H6O C7O 1_555 1_555
C8O C5O 1_555 1_555
C9O C8O 1_555 1_555
H7O C9O 1_555 1_555
C10J C9O 1_555 1_555
C11J C10J 1_555 1_555
C12O C12 1_555 1_555
C13O C8O 1_555 1_555
H8O C13O 1_555 1_555
O1S C1S 1_555 1_555
O2S C1S 1_555 1_555
C1S C2S 1_555 1_555
C2S C3S 1_555 1_555
C3S H3S 1_555 1_555
C4S C3S 1_555 1_555
H4S C4S 1_555 1_555
C5S C4S 1_555 1_555
C6S C5S 1_555 1_555
H5S C6S 1_555 1_555
C7S C2S 1_555 1_555
H6S C7S 1_555 1_555
C8S C5S 1_555 1_555
C9S C10 1_555 1_555
H7S C9S 1_555 1_555
C12S C11 1_555 1_555
C13S C8S 1_555 1_555
H8S C13S 1_555 1_555
O1J C1J 1_555 1_555
O2J C1J 1_555 1_555
C1J C2J 1_555 1_555
C2J C3J 1_555 1_555
C3J H3J 1_555 1_555
C4J C3J 1_555 1_555
H4J C4J 1_555 1_555
C5J C4J 1_555 1_555
C6J C5J 1_555 1_555
H5J C6J 1_555 1_555
C7J C2J 1_555 1_555
H6J C7J 1_555 1_555
C8J C5J 1_555 1_555
C9J C10J 1_555 1_555
H7J C9J 1_555 1_555
C12J C11J 1_555 1_555
C13J C8J 1_555 1_555
H8J C13J 1_555 1_555
H2U O5 1_555 1_555
Zr2C O3 1_555 1_555
O5C Zr2C 1_555 1_555
H2C O5C 1_555 1_555
O6C Zr2C 1_555 1_555
H2R O5C 1_555 1_555
O3I Zr1 1_555 1_555
H1I O3I 1_555 1_555
O4I Zr1 1_555 1_555
Zr1_2 O1O 1_555 1_555
Zr1B O1S 1_555 1_555
Zr1B_2 O1J 1_555 1_555
Zr2E O2S 1_555 1_555
Zr2F O4 1_555 1_555
Zr2F_2 O2O 1_555 1_555
Zr2I O3 1_555 1_555
Zr2J O2J 1_555 1_555
O1I Zr1 1_555 1_555
O1O_2 Zr1 1_555 1_555
O1R Zr1 1_555 1_555
O2C Zr2C 1_555 1_555
O2R Zr2C 1_555 1_555
O2U Zr2 1_555 1_555
O3C Zr2 1_555 1_555
O3F Zr2C 1_555 1_555
O4F Zr2 1_555 1_555
Zr2 O3I 1_555 1_555
Zr2 O4I 1_555 1_555
O4 Zr2I 1_555 1_555
C6 C7 1_555 1_555
C12 C13 1_555 1_555
C6O C7O 1_555 1_555
C11J C12O 1_555 1_555
C12O C13O 1_555 1_555
C6S C7S 1_555 1_555
C8S C9S 1_555 1_555
C12S C13S 1_555 1_555
C12S C12J 1_555 1_555
C6J C7J 1_555 1_555
C8J C9J 1_555 1_555
C12J C13J 1_555 1_555
Zr2C O4I 1_555 1_555
Zr2C O4F 1_555 1_555
O3I Zr2F 1_555 1_555
Zr2F O3C 1_555 1_555
Zr2I O3F 1_555 1_555

#END
