
#######################################################################
#
#                 Cambridge Crystallographic Data Centre
#                                CCDC 
#
#######################################################################
#
# If this CIF has been generated from an entry in the Cambridge 
# Structural Database, then it will include bibliographic, chemical, 
# crystal, experimental, refinement or atomic coordinate data resulting 
# from the CCDC's data processing and validation procedures.
#
#######################################################################

data_ICIZAV
_chemical_formula_moiety         '(C10 H12 Cu2 N2 O8 P2)n'
_symmetry_cell_setting           triclinic
_symmetry_space_group_name_H-M   'P -1'
_symmetry_Int_Tables_number      2
_space_group_name_Hall           '-P 1'
loop_
_symmetry_equiv_pos_site_id
_symmetry_equiv_pos_as_xyz
1 x,y,z
2 -x,-y,-z
_cell_length_a                   7.5074(8)
_cell_length_b                   9.2012(8)
_cell_length_c                   11.6139(13)
_cell_angle_alpha                100.368(11)
_cell_angle_beta                 104.665(10)
_cell_angle_gamma                94.691(9)
_cell_volume                     756.58
loop_
_atom_site_label
_atom_site_type_symbol
_atom_site_fract_x
_atom_site_fract_y
_atom_site_fract_z
Cu1 Cu 0.1605(2) 0.12120(15) 0.51184(13)
Cu2 Cu 0.6413(2) 0.07526(18) 0.72147(14)
P1 P 0.3532(4) -0.1639(3) 0.5241(3)
P2 P 0.0345(4) 0.0803(3) 0.7391(3)
O1 O 0.1745(12) -0.0909(9) 0.5063(7)
O2 O 0.4863(12) -0.1121(9) 0.6507(7)
O3 O 0.4522(13) -0.1561(9) 0.4240(8)
O4 O 0.1808(12) 0.1529(9) 0.6891(7)
O5 O -0.0735(12) -0.0689(9) 0.6661(7)
O6 O -0.1007(12) 0.1883(9) 0.7688(8)
N1 N 0.2006(15) -0.6625(10) 0.5116(9)
N2 N 0.3099(16) -0.0267(13) 1.1122(9)
C1 C 0.2838(17) -0.3590(12) 0.5162(11)
C2 C 0.2851(19) -0.4686(13) 0.4151(11)
H1 H 0.3150 -0.4419 0.3480
C3 C 0.2405(18) -0.6191(14) 0.4171(12)
H2 H 0.2388 -0.6912 0.3494
C4 C 0.196(2) -0.5575(14) 0.6089(11)
H3 H 0.1651 -0.5871 0.6745
C5 C 0.238(2) -0.4076(14) 0.6125(12)
H4 H 0.2347 -0.3381 0.6806
C6 C 0.1596(18) 0.0382(14) 0.8829(11)
C7 C 0.144(2) -0.1057(15) 0.9017(11)
H5 H 0.0823 -0.1838 0.8375
C8 C 0.221(2) -0.1346(15) 1.0161(12)
H6 H 0.2099 -0.2326 1.0264
C9 C 0.333(2) 0.1119(16) 1.0946(12)
H7 H 0.3995 0.1871 1.1597
C10 C 0.260(2) 0.1480(15) 0.9830(12)
H8 H 0.2793 0.2462 0.9745
O5A O 0.0735(12) 0.0689(9) 0.3339(7)
N1_2 N 0.2006(15) 0.3375(10) 0.5116(9)
O3A O 0.5478(13) 0.1561(9) 0.5760(8)
O6_2 O 0.8993(12) 0.1883(9) 0.7688(8)
N2A N 0.6901(16) 0.0267(13) 0.8878(9)
Cu2A Cu 0.3587(2) -0.07526(18) 0.27853(14)
Cu1A Cu -0.1605(2) -0.12120(15) 0.48816(13)
Cu2_2 Cu -0.3587(2) 0.07526(18) 0.72147(14)
Cu1_2 Cu 0.1605(2) -0.87880(15) 0.51184(13)
Cu2A_2 Cu 0.3587(2) -0.07526(18) 1.27853(14)
O7 O 0.478(2) -0.3122(19) 0.1900(15)
O8 O 0.004(3) 0.485(3) 0.877(2)
loop_
_geom_bond_atom_site_label_1
_geom_bond_atom_site_label_2
_geom_bond_site_symmetry_1
_geom_bond_site_symmetry_2
Cu1 O1 1_555 1_555
Cu2 O2 1_555 1_555
P1 O1 1_555 1_555
P2 O4 1_555 1_555
O2 P1 1_555 1_555
O3 P1 1_555 1_555
O4 Cu1 1_555 1_555
O5 P2 1_555 1_555
O6 P2 1_555 1_555
N1 C3 1_555 1_555
N2 C8 1_555 1_555
C1 P1 1_555 1_555
C2 C1 1_555 1_555
H1 C2 1_555 1_555
C3 C2 1_555 1_555
H2 C3 1_555 1_555
C4 N1 1_555 1_555
H3 C4 1_555 1_555
C5 C1 1_555 1_555
H4 C5 1_555 1_555
C6 P2 1_555 1_555
C7 C6 1_555 1_555
H5 C7 1_555 1_555
C8 C7 1_555 1_555
H6 C8 1_555 1_555
C9 N2 1_555 1_555
H7 C9 1_555 1_555
C10 C6 1_555 1_555
H8 C10 1_555 1_555
O5A Cu1 1_555 1_555
N1_2 Cu1 1_555 1_555
O3A Cu2 1_555 1_555
O6_2 Cu2 1_555 1_555
N2A Cu2 1_555 1_555
Cu2A O3 1_555 1_555
Cu1A O5 1_555 1_555
Cu2_2 O6 1_555 1_555
Cu1_2 N1 1_555 1_555
Cu2A_2 N2 1_555 1_555
C4 C5 1_555 1_555
C9 C10 1_555 1_555

#END
