
#######################################################################
#
#                 Cambridge Crystallographic Data Centre
#                                CCDC 
#
#######################################################################
#
# If this CIF has been generated from an entry in the Cambridge 
# Structural Database, then it will include bibliographic, chemical, 
# crystal, experimental, refinement or atomic coordinate data resulting 
# from the CCDC's data processing and validation procedures.
#
#######################################################################

data_BAHGUN04
_chemical_formula_moiety         '(C12 H12 Cu1 N2 O6)n'
_symmetry_cell_setting           monoclinic
_symmetry_space_group_name_H-M   'C c'
_symmetry_Int_Tables_number      9
_space_group_name_Hall           'C -2yc'
loop_
_symmetry_equiv_pos_site_id
_symmetry_equiv_pos_as_xyz
1 x,y,z
2 x,-y,1/2+z
3 1/2+x,1/2+y,z
4 1/2+x,1/2-y,1/2+z
_cell_length_a                   5.006(1)
_cell_length_b                   25.157(5)
_cell_length_c                   11.052(2)
_cell_angle_alpha                90
_cell_angle_beta                 98.66(1)
_cell_angle_gamma                90
_cell_volume                     1375.98
loop_
_atom_site_label
_atom_site_type_symbol
_atom_site_fract_x
_atom_site_fract_y
_atom_site_fract_z
Cu1 Cu 0.78737(4) 0.613375(11) 0.30453(3)
N1 N 0.9454(7) 0.55543(13) 0.4227(3)
N2 N 0.6375(8) 0.67445(15) 0.1964(3)
O1 O 1.5493(6) 0.43903(11) 0.7099(2)
O2 O 1.1492(5) 0.39747(9) 0.7012(2)
O3 O 0.4741(7) 0.82918(12) -0.0905(3)
O4 O 0.1586(6) 0.84116(10) 0.0305(3)
C1 C 1.2961(7) 0.43428(12) 0.6728(3)
C2 C 1.1731(7) 0.47718(13) 0.5870(3)
C3 C 0.9318(8) 0.46828(13) 0.5084(3)
H1 H 0.8415 0.4361 0.5104
C4 C 0.8284(8) 0.50755(13) 0.4279(3)
H2 H 0.6701 0.5006 0.3746
C5 C 1.1782(8) 0.56405(13) 0.4978(4)
H3 H 1.2628 0.5968 0.4945
C6 C 1.2974(8) 0.52650(13) 0.5794(3)
H4 H 1.4599 0.534 0.6291
C7 C 0.3546(9) 0.81713(15) -0.0012(4)
C8 C 0.4581(9) 0.76712(16) 0.0681(4)
C9 C 0.6550(10) 0.73492(16) 0.0297(4)
H5 H 0.7294 0.7437 -0.0399
C10 C 0.7389(10) 0.68987(17) 0.0957(4)
H6 H 0.8725 0.669 0.0694
C11 C 0.4433(8) 0.70519(13) 0.2336(3)
H7 H 0.3696 0.6949 0.3024
C12 C 0.3497(7) 0.75150(13) 0.1730(3)
H8 H 0.2172 0.7719 0.2014
O1A O 0.5493(6) 0.56097(11) 0.2099(2)
O2A O 1.1492(5) 0.60253(9) 0.2012(2)
O3C O 0.9741(7) 0.67082(12) 0.4095(3)
Cu1A Cu 1.78737(4) 0.386625(11) 0.80453(3)
Cu1A_2 Cu 0.78737(4) 0.386625(11) 0.80453(3)
Cu1C Cu 0.28737(4) 0.886625(11) -0.19547(3)
O5 O 0.6642(13) 0.6200(2) 0.7722(5)
H9 H 0.883(11) 0.622(3) 0.793(7)
H10 H 0.715(16) 0.637(3) 0.688(5)
O6 O 0.2043(15) 0.6407(3) -0.1179(6)
H11 H 0.235(17) 0.600(2) -0.155(7)
H12 H 0.334(18) 0.646(2) -0.190(7)
loop_
_geom_bond_atom_site_label_1
_geom_bond_atom_site_label_2
_geom_bond_site_symmetry_1
_geom_bond_site_symmetry_2
Cu1 N1 1_555 1_555
N1 C4 1_555 1_555
N2 Cu1 1_555 1_555
O1 C1 1_555 1_555
O2 C1 1_555 1_555
O3 C7 1_555 1_555
O4 C7 1_555 1_555
C1 C2 1_555 1_555
C2 C3 1_555 1_555
C3 H1 1_555 1_555
C4 C3 1_555 1_555
H2 C4 1_555 1_555
C5 N1 1_555 1_555
H3 C5 1_555 1_555
C6 C2 1_555 1_555
H4 C6 1_555 1_555
C7 C8 1_555 1_555
C8 C9 1_555 1_555
C9 H5 1_555 1_555
C10 N2 1_555 1_555
H6 C10 1_555 1_555
C11 N2 1_555 1_555
H7 C11 1_555 1_555
C12 C8 1_555 1_555
H8 C12 1_555 1_555
O5 H9 1_555 1_555
H10 O5 1_555 1_555
O6 H11 1_555 1_555
H12 O6 1_555 1_555
O1A Cu1 1_555 1_555
O2A Cu1 1_555 1_555
O3C Cu1 1_555 1_555
Cu1A O1 1_555 1_555
Cu1A_2 O2 1_555 1_555
Cu1C O3 1_555 1_555
C5 C6 1_555 1_555
C9 C10 1_555 1_555
C11 C12 1_555 1_555

#END
