
#######################################################################
#
#                 Cambridge Crystallographic Data Centre
#                                CCDC 
#
#######################################################################
#
# If this CIF has been generated from an entry in the Cambridge 
# Structural Database, then it will include bibliographic, chemical, 
# crystal, experimental, refinement or atomic coordinate data resulting 
# from the CCDC's data processing and validation procedures.
#
#######################################################################

data_BAHGUN03
_chemical_formula_moiety         '(C12 H12 Cu1 N2 O6)n'
_symmetry_cell_setting           monoclinic
_symmetry_space_group_name_H-M   'C c'
_symmetry_Int_Tables_number      9
_space_group_name_Hall           'C -2yc'
loop_
_symmetry_equiv_pos_site_id
_symmetry_equiv_pos_as_xyz
1 x,y,z
2 x,-y,1/2+z
3 1/2+x,1/2+y,z
4 1/2+x,1/2-y,1/2+z
_cell_length_a                   4.981(1)
_cell_length_b                   25.067(3)
_cell_length_c                   11.019(2)
_cell_angle_alpha                90
_cell_angle_beta                 98.57(1)
_cell_angle_gamma                90
_cell_volume                     1360.46
loop_
_atom_site_label
_atom_site_type_symbol
_atom_site_fract_x
_atom_site_fract_y
_atom_site_fract_z
Cu1 Cu 0.78732(5) 0.613390(12) 0.30450(4)
N1 N 0.9463(7) 0.55560(13) 0.4219(3)
N2 N 0.6370(8) 0.67461(16) 0.1966(3)
O1 O 1.5499(6) 0.43919(11) 0.7101(2)
O2 O 1.1500(5) 0.39754(9) 0.7012(2)
O3 O 0.4731(7) 0.82911(13) -0.0903(3)
O4 O 0.1591(6) 0.84126(11) 0.0309(3)
C1 C 1.2969(7) 0.43397(12) 0.6733(3)
C2 C 1.1734(7) 0.47712(13) 0.5866(3)
C3 C 0.9330(8) 0.46832(14) 0.5087(3)
H1 H 0.8422 0.436 0.5111
C4 C 0.8285(8) 0.50746(14) 0.4275(3)
H2 H 0.6695 0.5004 0.3743
C5 C 1.1787(8) 0.56411(14) 0.4971(4)
H3 H 1.2632 0.5971 0.4945
C6 C 1.2992(8) 0.52625(14) 0.5784(4)
H4 H 1.4637 0.5335 0.6275
C7 C 0.3548(9) 0.81711(17) 0.0002(4)
C8 C 0.4590(10) 0.76718(19) 0.0690(4)
C9 C 0.6538(11) 0.73507(17) 0.0302(4)
H5 H 0.7277 0.7437 -0.0399
C10 C 0.7371(11) 0.69025(19) 0.0962(4)
H6 H 0.8715 0.6694 0.0696
C11 C 0.4427(8) 0.70548(13) 0.2340(3)
H7 H 0.3685 0.6952 0.303
C12 C 0.3499(8) 0.75180(13) 0.1736(3)
H8 H 0.217 0.7724 0.202
O1A O 0.5499(6) 0.56081(11) 0.2101(2)
O2A O 1.1500(5) 0.60246(9) 0.2012(2)
O3C O 0.9731(7) 0.67089(13) 0.4097(3)
Cu1A Cu 1.78732(5) 0.386610(12) 0.80450(4)
Cu1A_2 Cu 0.78732(5) 0.386610(12) 0.80450(4)
Cu1C Cu 0.28732(5) 0.886610(12) -0.19550(4)
O5 O 0.6682(12) 0.6199(2) 0.7731(5)
H9 H 0.920(14) 0.614(4) 0.779(10)
H10 H 0.71(2) 0.630(4) 0.665(6)
O6 O 0.2046(16) 0.6403(4) -0.1196(7)
H11 H 0.29(3) 0.597(3) -0.162(10)
H12 H 0.36(2) 0.655(3) -0.195(9)
loop_
_geom_bond_atom_site_label_1
_geom_bond_atom_site_label_2
_geom_bond_site_symmetry_1
_geom_bond_site_symmetry_2
Cu1 N1 1_555 1_555
N1 C4 1_555 1_555
N2 Cu1 1_555 1_555
O1 C1 1_555 1_555
O2 C1 1_555 1_555
O3 C7 1_555 1_555
O4 C7 1_555 1_555
C1 C2 1_555 1_555
C2 C3 1_555 1_555
C3 H1 1_555 1_555
C4 C3 1_555 1_555
H2 C4 1_555 1_555
C5 N1 1_555 1_555
H3 C5 1_555 1_555
C6 C2 1_555 1_555
H4 C6 1_555 1_555
C7 C8 1_555 1_555
C8 C9 1_555 1_555
C9 H5 1_555 1_555
C10 N2 1_555 1_555
H6 C10 1_555 1_555
C11 N2 1_555 1_555
H7 C11 1_555 1_555
C12 C8 1_555 1_555
H8 C12 1_555 1_555
O5 H9 1_555 1_555
H10 O5 1_555 1_555
O6 H11 1_555 1_555
H12 O6 1_555 1_555
O1A Cu1 1_555 1_555
O2A Cu1 1_555 1_555
O3C Cu1 1_555 1_555
Cu1A O1 1_555 1_555
Cu1A_2 O2 1_555 1_555
Cu1C O3 1_555 1_555
C5 C6 1_555 1_555
C9 C10 1_555 1_555
C11 C12 1_555 1_555

#END
