
#######################################################################
#
#                 Cambridge Crystallographic Data Centre
#                                CCDC 
#
#######################################################################
#
# If this CIF has been generated from an entry in the Cambridge 
# Structural Database, then it will include bibliographic, chemical, 
# crystal, experimental, refinement or atomic coordinate data resulting 
# from the CCDC's data processing and validation procedures.
#
#######################################################################

data_KILJEV
_chemical_formula_moiety         '(C10 H14 Cu2 N2 O9 P2)n'
_symmetry_cell_setting           triclinic
_symmetry_space_group_name_H-M   'P -1'
_symmetry_Int_Tables_number      2
_space_group_name_Hall           '-P 1'
loop_
_symmetry_equiv_pos_site_id
_symmetry_equiv_pos_as_xyz
1 x,y,z
2 -x,-y,-z
_cell_length_a                   7.4564(15)
_cell_length_b                   9.1845(19)
_cell_length_c                   11.582(2)
_cell_angle_alpha                100.842(3)
_cell_angle_beta                 104.303(3)
_cell_angle_gamma                94.774(3)
_cell_volume                     747.826
loop_
_atom_site_label
_atom_site_type_symbol
_atom_site_fract_x
_atom_site_fract_y
_atom_site_fract_z
Cu1 Cu 0.83928(12) 0.87899(9) -0.01208(7)
Cu2 Cu 0.63817(12) 1.08040(9) -0.77591(7)
P1 P 0.6477(2) 0.16278(18) -0.02408(15)
P2 P 0.9663(2) 0.91741(18) -0.24017(15)
C1 C 0.8079(10) 0.5563(7) -0.1084(6)
H1 H 0.8408 0.5850 -0.1741
C2 C 0.7675(9) 0.4063(8) -0.1116(6)
H2 H 0.7742 0.3357 -0.1789
C3 C 0.7169(9) 0.3592(7) -0.0156(6)
C4 C 0.7135(10) 0.4698(7) 0.0841(6)
H3 H 0.6835 0.4433 0.1513
C5 C 0.7549(10) 0.6195(7) 0.0828(6)
H4 H 0.7507 0.6922 0.1495
C6 C 0.7854(10) 1.1356(8) -0.5140(6)
H5 H 0.8001 1.2340 -0.5233
C7 C 0.8617(10) 1.1053(8) -0.4011(6)
H6 H 0.9255 1.1829 -0.3362
C8 C 0.8437(9) 0.9596(7) -0.3839(6)
C9 C 0.7369(10) 0.8502(8) -0.4833(6)
H7 H 0.7150 0.7520 -0.4751
C10 C 0.6631(10) 0.8880(7) -0.5949(6)
H8 H 0.5925 0.8137 -0.6603
N1 N 0.8010(8) 0.6627(6) -0.0124(5)
N2 N 0.6907(8) 1.0286(6) -0.6111(5)
O1 O 0.8178(6) 0.8467(5) -0.1897(4)
O2 O 0.8258(7) 0.0926(5) -0.0056(4)
O3 O 1.0728(7) 1.0682(5) -0.1667(4)
O4 O 0.5162(7) 0.1096(5) -0.1515(4)
O5 O 0.5498(6) 0.1550(5) 0.0755(4)
O6 O 1.1008(7) 0.8080(5) -0.2705(4)
Cu1_2 Cu 0.83928(12) -0.12101(9) -0.01208(7)
Cu1A Cu 1.16072(12) 1.12101(9) 0.01208(7)
Cu2A Cu 0.36183(12) -0.08040(9) -0.22409(7)
Cu2_2 Cu 0.63817(12) 0.08040(9) 0.22409(7)
Cu2A_2 Cu 1.36183(12) 0.91960(9) -0.22409(7)
O2_2 O 0.8258(7) 1.0926(5) -0.0056(4)
O3A O 0.9272(7) 0.9318(5) 0.1667(4)
O4A O 0.4838(7) 0.8904(5) -0.8485(4)
O5_2 O 0.5498(6) 1.1550(5) -0.9245(4)
O6A O 0.8992(7) 1.1920(5) -0.7295(4)
O7 O 0.9954(11) 0.4889(7) 0.3762(6)
O8 O 0.5242(8) 0.3086(6) 0.3116(5)
O9 O 0.497(8) 0.354(7) 0.481(6)
loop_
_geom_bond_atom_site_label_1
_geom_bond_atom_site_label_2
_geom_bond_site_symmetry_1
_geom_bond_site_symmetry_2
Cu1 N1 1_555 1_555
Cu2 N2 1_555 1_555
P1 C3 1_555 1_555
P2 C8 1_555 1_555
C1 H1 1_555 1_555
C2 C1 1_555 1_555
H2 C2 1_555 1_555
C3 C2 1_555 1_555
C4 C3 1_555 1_555
H3 C4 1_555 1_555
C5 C4 1_555 1_555
H4 C5 1_555 1_555
C6 H5 1_555 1_555
C7 C6 1_555 1_555
H6 C7 1_555 1_555
C8 C7 1_555 1_555
C9 C8 1_555 1_555
H7 C9 1_555 1_555
C10 C9 1_555 1_555
H8 C10 1_555 1_555
N1 C1 1_555 1_555
N2 C6 1_555 1_555
O1 Cu1 1_555 1_555
O2 P1 1_555 1_555
O3 P2 1_555 1_555
O4 P1 1_555 1_555
O5 P1 1_555 1_555
O6 P2 1_555 1_555
Cu1_2 O2 1_555 1_555
Cu1A O3 1_555 1_555
Cu2A O4 1_555 1_555
Cu2_2 O5 1_555 1_555
Cu2A_2 O6 1_555 1_555
O2_2 Cu1 1_555 1_555
O3A Cu1 1_555 1_555
O4A Cu2 1_555 1_555
O5_2 Cu2 1_555 1_555
O6A Cu2 1_555 1_555
P2 O1 1_555 1_555
C5 N1 1_555 1_555
C10 N2 1_555 1_555

#END
