
#######################################################################
#
#                 Cambridge Crystallographic Data Centre
#                                CCDC 
#
#######################################################################
#
# If this CIF has been generated from an entry in the Cambridge 
# Structural Database, then it will include bibliographic, chemical, 
# crystal, experimental, refinement or atomic coordinate data resulting 
# from the CCDC's data processing and validation procedures.
#
#######################################################################

data_WUYNOV
_chemical_formula_moiety         'C36 O61 Zn20'
_symmetry_cell_setting           rhombohedral
_symmetry_space_group_name_H-M   'R -3 m'
_symmetry_Int_Tables_number      166
_space_group_name_Hall           '-R 3 2"'
loop_
_symmetry_equiv_pos_site_id
_symmetry_equiv_pos_as_xyz
1 x,y,z
2 -y,x-y,z
3 -x+y,-x,z
4 y,x,-z
5 x-y,-y,-z
6 -x,-x+y,-z
7 2/3+x,1/3+y,1/3+z
8 2/3-y,1/3+x-y,1/3+z
9 2/3-x+y,1/3-x,1/3+z
10 2/3+y,1/3+x,1/3-z
11 2/3+x-y,1/3-y,1/3-z
12 2/3-x,1/3-x+y,1/3-z
13 1/3+x,2/3+y,2/3+z
14 1/3-y,2/3+x-y,2/3+z
15 1/3-x+y,2/3-x,2/3+z
16 1/3+y,2/3+x,2/3-z
17 1/3+x-y,2/3-y,2/3-z
18 1/3-x,2/3-x+y,2/3-z
19 -x,-y,-z
20 y,-x+y,-z
21 x-y,x,-z
22 -y,-x,z
23 -x+y,y,z
24 x,x-y,z
25 1/3-x,2/3-y,2/3-z
26 1/3+y,2/3-x+y,2/3-z
27 1/3+x-y,2/3+x,2/3-z
28 1/3-y,2/3-x,2/3+z
29 1/3-x+y,2/3+y,2/3+z
30 1/3+x,2/3+x-y,2/3+z
31 2/3-x,1/3-y,1/3-z
32 2/3+y,1/3-x+y,1/3-z
33 2/3+x-y,1/3+x,1/3-z
34 2/3-y,1/3-x,1/3+z
35 2/3-x+y,1/3+y,1/3+z
36 2/3+x,1/3+x-y,1/3+z
_cell_length_a                   18.2657(8)
_cell_length_b                   18.2657(8)
_cell_length_c                   22.3708(15)
_cell_angle_alpha                90
_cell_angle_beta                 90
_cell_angle_gamma                120
_cell_volume                     6463.75
loop_
_atom_site_label
_atom_site_type_symbol
_atom_site_fract_x
_atom_site_fract_y
_atom_site_fract_z
Zn1 Zn 0.3333 0.6667 0.07962(10)
Zn2 Zn 0.44924(8) 0.72462(4) 0.13770(6)
O1 O 0.3333 0.6667 0.1667
O2 O 0.4312(3) 0.8625(6) 0.1295(5)
O3 O 0.4713(4) 0.8220(4) 0.0889(3)
O4 O 0.3910(3) 0.7820(6) 0.0492(4)
C1 C 0.4640(5) 0.9280(10) 0.0385(5)
C2 C 0.4259(2) 0.8518(5) 0.0736(4)
C3 C 0.5373(13) 0.9925(15) 0.0469(10)
C4 C 0.505(2) 0.9337(13) -0.0010(16)
O5 O 0.5891(19) 0.9972(14) 0.093(2)
O6 O 0.5211(19) 0.888(2) -0.0270(11)
O2D O 0.5687(7) 1.1375(6) -0.1295(5)
O3D O 0.6493(6) 1.1780(4) -0.0889(3)
O4D O 0.6090(7) 1.2180(6) -0.0492(4)
C1D C 0.5360(11) 1.0720(10) -0.0385(5)
C2D C 0.5741(5) 1.1482(5) -0.0736(4)
C3D C 0.5448(20) 1.0075(15) -0.0469(10)
C4D C 0.5713(24) 1.0663(13) 0.0010(16)
O5D O 0.5919(24) 1.0028(14) -0.093(2)
O6D O 0.6331(28) 1.112(2) 0.0270(11)
O3R O 0.5287(4) 1.1780(4) -0.0889(3)
C3R C 0.4627(13) 1.0075(15) -0.0469(10)
C4R C 0.495(2) 1.0663(13) 0.0010(16)
O5R O 0.4109(19) 1.0028(14) -0.093(2)
O6R O 0.4789(19) 1.112(2) 0.0270(11)
O3V O 0.3507(6) 0.8220(4) 0.0889(3)
C3V C 0.4552(20) 0.9925(15) 0.0469(10)
C4V C 0.4287(24) 0.9337(13) -0.0010(16)
O5V O 0.4081(24) 0.9972(14) 0.093(2)
O6V O 0.3669(28) 0.888(2) -0.0270(11)
Zn2A Zn 0.27538(4) 0.72462(9) 0.13770(6)
O2A O 0.1375(6) 0.5687(7) 0.1295(5)
O3A O 0.1780(4) 0.6493(6) 0.0889(3)
O4A O 0.2180(6) 0.6090(7) 0.0492(4)
C1A C 0.0720(10) 0.5360(11) 0.0385(5)
C2A C 0.1482(5) 0.5741(5) 0.0736(4)
C3A C 0.0075(15) 0.5448(20) 0.0469(10)
C4A C 0.0663(13) 0.5713(24) -0.0010(16)
O5A O 0.0028(14) 0.5919(24) 0.093(2)
O6A O 0.112(2) 0.6331(28) -0.0270(11)
O2C O -0.1375(6) 0.4312(3) -0.1295(5)
O3C O -0.1780(4) 0.4713(4) -0.0889(3)
O4C O -0.2180(6) 0.3910(3) -0.0492(4)
C1C C -0.0720(10) 0.4640(5) -0.0385(5)
C2C C -0.1482(5) 0.4259(2) -0.0736(4)
C3C C -0.0075(15) 0.5373(13) -0.0469(10)
C4C C -0.0663(13) 0.505(2) 0.0010(16)
O5C O -0.0028(14) 0.5891(19) -0.093(2)
O6C O -0.112(2) 0.5211(19) 0.0270(11)
O3S O -0.1780(4) 0.3507(6) -0.0889(3)
C3S C -0.0075(15) 0.4552(20) -0.0469(10)
C4S C -0.0663(13) 0.4287(24) 0.0010(16)
O5S O -0.0028(14) 0.4081(24) -0.093(2)
O6S O -0.112(2) 0.3669(28) 0.0270(11)
O3U O 0.1780(4) 0.5287(4) 0.0889(3)
C3U C 0.0075(15) 0.4627(13) 0.0469(10)
C4U C 0.0663(13) 0.495(2) -0.0010(16)
O5U O 0.0028(14) 0.4109(19) 0.093(2)
O6U O 0.112(2) 0.4789(19) -0.0270(11)
Zn2B Zn 0.27538(9) 0.55076(8) 0.13770(6)
O2B O 0.4313(7) 0.5688(3) 0.1295(5)
O3B O 0.3507(6) 0.5287(4) 0.0889(3)
O4B O 0.3910(7) 0.6090(3) 0.0492(4)
C1B C 0.4640(11) 0.5360(5) 0.0385(5)
C2B C 0.4259(5) 0.5741(2) 0.0736(4)
C3B C 0.4552(20) 0.4627(13) 0.0469(10)
C4B C 0.4287(24) 0.495(2) -0.0010(16)
O5B O 0.4081(24) 0.4109(19) 0.093(2)
O6B O 0.3669(28) 0.4789(19) -0.0270(11)
O2E O 0.5688(3) 0.4313(7) -0.1295(5)
O3E O 0.5287(4) 0.3507(6) -0.0889(3)
O4E O 0.6090(3) 0.3910(7) -0.0492(4)
C1E C 0.5360(5) 0.4640(11) -0.0385(5)
C2E C 0.5741(2) 0.4259(5) -0.0736(4)
C3E C 0.4627(13) 0.4552(20) -0.0469(10)
C4E C 0.495(2) 0.4287(24) 0.0010(16)
O5E O 0.4109(19) 0.4081(24) -0.093(2)
O6E O 0.4789(19) 0.3669(28) 0.0270(11)
O3T O 0.6493(6) 0.4713(4) -0.0889(3)
C3T C 0.5448(20) 0.5373(13) -0.0469(10)
C4T C 0.5713(24) 0.505(2) 0.0010(16)
O5T O 0.5919(24) 0.5891(19) -0.093(2)
O6T O 0.6331(28) 0.5211(19) 0.0270(11)
O3W O 0.4713(4) 0.6493(6) 0.0889(3)
C3W C 0.5373(13) 0.5448(20) 0.0469(10)
C4W C 0.505(2) 0.5713(24) -0.0010(16)
O5W O 0.5891(19) 0.5919(24) 0.093(2)
O6W O 0.5211(19) 0.6331(28) -0.0270(11)
Zn1I Zn 0.3334 0.6666 0.25371(10)
Zn2I Zn 0.39129(4) 0.78257(8) 0.19563(6)
Zn2J Zn 0.39129(9) 0.60871(4) 0.19563(6)
Zn2K Zn 0.21743(8) 0.60871(9) 0.19563(6)
Zn1C Zn -0.3333 0.3333 -0.07962(10)
Zn1C_2 Zn 0.6667 0.3333 -0.07962(10)
Zn1C_3 Zn 0.6667 1.3333 -0.07962(10)
Zn2C Zn -0.27538(4) 0.44924(8) -0.13770(6)
Zn2C_2 Zn 0.72462(4) 0.44924(8) -0.13770(6)
Zn2D Zn -0.27538(9) 0.27538(4) -0.13770(6)
Zn2D_2 Zn 0.72462(9) 1.27538(4) -0.13770(6)
Zn2E Zn 0.55076(8) 0.27538(9) -0.13770(6)
Zn2E_2 Zn 0.55076(8) 1.27538(9) -0.13770(6)
Zn2L Zn -0.21743(8) 0.39129(4) -0.19563(6)
Zn2M Zn 0.60871(4) 0.39129(9) -0.19563(6)
Zn2N Zn 0.60871(9) 1.21743(8) -0.19563(6)
O2I O 0.5292(6) 0.7645(3) 0.2038(5)
O2J O 0.2354(7) 0.4708(6) 0.2038(5)
O2K O 0.2355(3) 0.7646(7) 0.2038(5)
O3I O 0.4887(4) 0.8046(4) 0.2444(3)
O3J O 0.3160(6) 0.5113(4) 0.2444(3)
O3K O 0.1954(4) 0.6840(6) 0.2444(3)
O3DA O 0.1954(4) 0.5113(4) 0.2444(3)
O3EA O 0.4887(4) 0.6840(6) 0.2444(3)
O3FA O 0.3160(6) 0.8046(4) 0.2444(3)
O4I O 0.4487(6) 0.7243(3) 0.2841(4)
O4J O 0.2757(7) 0.5513(6) 0.2841(4)
O4K O 0.2757(3) 0.7243(7) 0.2841(4)
loop_
_geom_bond_atom_site_label_1
_geom_bond_atom_site_label_2
_geom_bond_site_symmetry_1
_geom_bond_site_symmetry_2
Zn1 Zn2 1_555 1_555
Zn2 O1 1_555 1_555
O1 Zn1 1_555 1_555
O2 O3 1_555 1_555
O3 Zn2 1_555 1_555
O4 Zn1 1_555 1_555
C1 C2 1_555 1_555
C2 O2 1_555 1_555
C3 C1 1_555 1_555
C4 C1 1_555 1_555
O5 C3 1_555 1_555
O6 C4 1_555 1_555
O2D O3D 1_555 1_555
O3D O4D 1_555 1_555
O4D C2D 1_555 1_555
C1D C2D 1_555 1_555
C2D O2D 1_555 1_555
C3D C4 1_555 1_555
C4D C3 1_555 1_555
O5D C3D 1_555 1_555
O6D C4D 1_555 1_555
O3R O2D 1_555 1_555
C3R C1D 1_555 1_555
C4R C1D 1_555 1_555
O5R C3R 1_555 1_555
O6R C4R 1_555 1_555
O3V O2 1_555 1_555
C3V C1 1_555 1_555
C4V C1 1_555 1_555
O5V C3V 1_555 1_555
O6V C4V 1_555 1_555
Zn2A Zn1 1_555 1_555
O2A O3A 1_555 1_555
O3A Zn2A 1_555 1_555
O4A Zn1 1_555 1_555
C1A C2A 1_555 1_555
C2A O2A 1_555 1_555
C3A C1A 1_555 1_555
C4A C1A 1_555 1_555
O5A C3A 1_555 1_555
O6A C4A 1_555 1_555
O2C O3C 1_555 1_555
O3C O4C 1_555 1_555
O4C C2C 1_555 1_555
C1C C2C 1_555 1_555
C2C O2C 1_555 1_555
C3C C4A 1_555 1_555
C4C C3A 1_555 1_555
O5C C3C 1_555 1_555
O6C C4C 1_555 1_555
O3S O2C 1_555 1_555
C3S C1C 1_555 1_555
C4S C1C 1_555 1_555
O5S C3S 1_555 1_555
O6S C4S 1_555 1_555
O3U O2A 1_555 1_555
C3U C1A 1_555 1_555
C4U C1A 1_555 1_555
O5U C3U 1_555 1_555
O6U C4U 1_555 1_555
Zn2B Zn1 1_555 1_555
O2B O3B 1_555 1_555
O3B Zn2B 1_555 1_555
O4B Zn1 1_555 1_555
C1B C2B 1_555 1_555
C2B O2B 1_555 1_555
C3B C1B 1_555 1_555
C4B C1B 1_555 1_555
O5B C3B 1_555 1_555
O6B C4B 1_555 1_555
O2E O3E 1_555 1_555
O3E O4E 1_555 1_555
O4E C2E 1_555 1_555
C1E C2E 1_555 1_555
C2E O2E 1_555 1_555
C3E C4B 1_555 1_555
C4E C3B 1_555 1_555
O5E C3E 1_555 1_555
O6E C4E 1_555 1_555
O3T O2E 1_555 1_555
C3T C1E 1_555 1_555
C4T C1E 1_555 1_555
O5T C3T 1_555 1_555
O6T C4T 1_555 1_555
O3W Zn2 1_555 1_555
C3W C1B 1_555 1_555
C4W C1B 1_555 1_555
O5W C3W 1_555 1_555
O6W C4W 1_555 1_555
Zn1I O1 1_555 1_555
Zn2I Zn2 1_555 1_555
Zn2J Zn2 1_555 1_555
Zn2K O1 1_555 1_555
Zn1C O4C 1_555 1_555
Zn1C_2 O4E 1_555 1_555
Zn1C_3 O4D 1_555 1_555
Zn2C O3C 1_555 1_555
Zn2C_2 O3T 1_555 1_555
Zn2D O3S 1_555 1_555
Zn2D_2 O3D 1_555 1_555
Zn2E O3E 1_555 1_555
Zn2E_2 O3R 1_555 1_555
Zn2L O2C 1_555 1_555
Zn2M O2E 1_555 1_555
Zn2N O2D 1_555 1_555
O2I Zn2 1_555 1_555
O2J Zn2B 1_555 1_555
O2K Zn2A 1_555 1_555
O3I Zn2I 1_555 1_555
O3J Zn2J 1_555 1_555
O3K Zn2K 1_555 1_555
O3DA Zn2K 1_555 1_555
O3EA Zn2J 1_555 1_555
O3FA Zn2I 1_555 1_555
O4I Zn1I 1_555 1_555
O4J Zn1I 1_555 1_555
O4K Zn1I 1_555 1_555
O1 Zn2A 1_555 1_555
O1 Zn2B 1_555 1_555
O1 Zn2I 1_555 1_555
O1 Zn2J 1_555 1_555
O2 Zn2I 1_555 1_555
O3 O4 1_555 1_555
O3 C2 1_555 1_555
O4 C2 1_555 1_555
O4 O3V 1_555 1_555
C2 O3V 1_555 1_555
C3 C4 1_555 1_555
C3 C3V 1_555 1_555
C4 C4V 1_555 1_555
O3D C2D 1_555 1_555
O4D O3R 1_555 1_555
C1D C3D 1_555 1_555
C1D C4D 1_555 1_555
C2D O3R 1_555 1_555
C3D C4D 1_555 1_555
C3D C3R 1_555 1_555
C4D C4R 1_555 1_555
C3R C4R 1_555 1_555
C3R C4V 1_555 1_555
C4R C3V 1_555 1_555
O3V Zn2A 1_555 1_555
C3V C4V 1_555 1_555
Zn2A Zn2I 1_555 1_555
Zn2A Zn2K 1_555 1_555
O2A Zn2K 1_555 1_555
O3A O4A 1_555 1_555
O3A C2A 1_555 1_555
O4A C2A 1_555 1_555
O4A O3U 1_555 1_555
C2A O3U 1_555 1_555
C3A C4A 1_555 1_555
C3A C3U 1_555 1_555
C4A C4U 1_555 1_555
O3C C2C 1_555 1_555
O4C O3S 1_555 1_555
C1C C3C 1_555 1_555
C1C C4C 1_555 1_555
C2C O3S 1_555 1_555
C3C C4C 1_555 1_555
C3C C3S 1_555 1_555
C4C C4S 1_555 1_555
C3S C4S 1_555 1_555
C3S C4U 1_555 1_555
C4S C3U 1_555 1_555
O3U Zn2B 1_555 1_555
C3U C4U 1_555 1_555
Zn2B Zn2J 1_555 1_555
Zn2B Zn2K 1_555 1_555
O2B O3W 1_555 1_555
O2B Zn2J 1_555 1_555
O3B O4B 1_555 1_555
O3B C2B 1_555 1_555
O4B C2B 1_555 1_555
O4B O3W 1_555 1_555
C2B O3W 1_555 1_555
C3B C4B 1_555 1_555
C3B C3W 1_555 1_555
C4B C4W 1_555 1_555
O3E C2E 1_555 1_555
O4E O3T 1_555 1_555
C1E C3E 1_555 1_555
C1E C4E 1_555 1_555
C2E O3T 1_555 1_555
C3E C4E 1_555 1_555
C3E C3T 1_555 1_555
C4E C4T 1_555 1_555
C3T C4T 1_555 1_555
C3T C4W 1_555 1_555
C4T C3W 1_555 1_555
C3W C4W 1_555 1_555
Zn1I Zn2I 1_555 1_555
Zn1I Zn2J 1_555 1_555
Zn1I Zn2K 1_555 1_555
Zn1C Zn2C 1_555 1_555
Zn1C Zn2D 1_555 1_555
Zn1C_2 Zn2C_2 1_555 1_555
Zn1C_2 Zn2E 1_555 1_555
Zn1C_3 Zn2D_2 1_555 1_555
Zn1C_3 Zn2E_2 1_555 1_555
Zn2C Zn2L 1_555 1_555
Zn2C_2 Zn2M 1_555 1_555
Zn2D Zn2L 1_555 1_555
Zn2D_2 Zn2N 1_555 1_555
Zn2E Zn2M 1_555 1_555
Zn2E_2 Zn2N 1_555 1_555
O2I O3I 1_555 1_555
O2I O3EA 1_555 1_555
O2J O3J 1_555 1_555
O2J O3DA 1_555 1_555
O2K O3K 1_555 1_555
O2K O3FA 1_555 1_555
O3I O4I 1_555 1_555
O3J O4J 1_555 1_555
O3K O4K 1_555 1_555
O3DA O4J 1_555 1_555
O3EA O4I 1_555 1_555
O3FA O4K 1_555 1_555

#END
