
#######################################################################
#
#                 Cambridge Crystallographic Data Centre
#                                CCDC 
#
#######################################################################
#
# If this CIF has been generated from an entry in the Cambridge 
# Structural Database, then it will include bibliographic, chemical, 
# crystal, experimental, refinement or atomic coordinate data resulting 
# from the CCDC's data processing and validation procedures.
#
#######################################################################

data_FAPTIB
_chemical_formula_moiety         '(C18 H13 Cd1 N3 O4)n'
_symmetry_cell_setting           orthorhombic
_symmetry_space_group_name_H-M   'P 21 21 2'
_symmetry_Int_Tables_number      18
_space_group_name_Hall           'P 2 2ab'
loop_
_symmetry_equiv_pos_site_id
_symmetry_equiv_pos_as_xyz
1 x,y,z
2 -x,-y,z
3 1/2+x,1/2-y,-z
4 1/2-x,1/2+y,-z
_cell_length_a                   14.233(2)
_cell_length_b                   17.313(3)
_cell_length_c                   11.714(3)
_cell_angle_alpha                90
_cell_angle_beta                 90
_cell_angle_gamma                90
_cell_volume                     2886.52
loop_
_atom_site_label
_atom_site_type_symbol
_atom_site_fract_x
_atom_site_fract_y
_atom_site_fract_z
N1 N 0.3712(5) 0.9826(5) 0.7871(4)
C1 C 0.3752(9) 0.9177(6) 0.7274(7)
H1 H 0.3801 0.8712 0.7666
C2 C 0.3692(11) 1.0477(7) 0.7233(7)
H2 H 0.3696 1.0945 0.7621
C3 C 0.3667(11) 1.0505(6) 0.6066(7)
H3 H 0.3625 1.0974 0.5680
C4 C 0.3726(10) 0.9161(5) 0.6114(7)
H4 H 0.3721 0.8683 0.5751
C5 C 0.3707(7) 0.9799(6) 0.5469(5)
O1 O 0.5025(3) 0.9098(2) 0.9859(5)
O2 O 0.6538(3) 0.8863(2) 0.9878(5)
C6 C 0.5699(4) 0.8626(3) 0.9882(8)
Cd1 Cd 0.36468(3) 0.98277(3) 0.98536(4)
N2 N 0.3706(5) 0.9811(4) 0.1826(4)
C7 C 0.3697(6) 0.9810(6) 0.4219(5)
O3 O 0.6893(3) 0.5263(2) 1.0008(6)
O4 O 0.7781(3) 0.6276(2) 1.0218(6)
C8 C 0.6305(5) 0.7289(3) 1.0018(7)
H5 H 0.6910 0.7490 1.0009
C9 C 0.3292(7) 1.0357(6) 0.2443(7)
H6 H 0.2973 1.0745 0.2054
C10 C 0.3299(8) 1.0389(6) 0.3610(7)
H7 H 0.3032 1.0809 0.3985
C11 C 0.7001(5) 0.5987(4) 1.0097(9)
C12 C 0.4146(7) 0.9217(6) 0.3587(7)
H8 H 0.4452 0.8816 0.3962
C13 C 0.4125(7) 0.9239(6) 0.2417(8)
H9 H 0.4414 0.8842 0.2014
C14 C 0.6172(4) 0.6503(4) 1.0081(10)
C15 C 0.5266(5) 0.6201(5) 0.9776(11)
H10 H 0.5197 0.5679 0.9609
C16 C 0.4638(5) 0.7482(4) 0.9749(11)
H11 H 0.4138 0.7815 0.9615
C17 C 0.4493(6) 0.6689(4) 0.9731(12)
C18 C 0.5533(4) 0.7784(4) 0.9966(11)
N3 N 0.3599(6) 0.6359(4) 0.9458(7)
H12 H 0.3131 0.6654 0.9299
H13 H 0.3529 0.5866 0.9454
O2A O 0.3462(3) 1.1137(2) 0.9878(5)
Cd1A Cd 0.63532(3) 1.01723(3) 0.98536(4)
Cd1_2 Cd 0.36468(3) 0.98277(3) -0.01464(4)
Cd1B Cd 0.86468(3) 0.51723(3) 1.01464(4)
N2_2 N 0.3706(5) 0.9811(4) 1.1826(4)
O3B O 0.1893(3) 0.9737(2) 0.9992(6)
O4B O 0.2781(3) 0.8724(2) 0.9782(6)
loop_
_geom_bond_atom_site_label_1
_geom_bond_atom_site_label_2
_geom_bond_site_symmetry_1
_geom_bond_site_symmetry_2
N1 C1 1_555 1_555
C1 H1 1_555 1_555
C2 N1 1_555 1_555
H2 C2 1_555 1_555
C3 C2 1_555 1_555
H3 C3 1_555 1_555
C4 C1 1_555 1_555
H4 C4 1_555 1_555
C5 C3 1_555 1_555
O1 C6 1_555 1_555
O2 C6 1_555 1_555
C6 C18 1_555 1_555
Cd1 N1 1_555 1_555
N2 C9 1_555 1_555
C7 C5 1_555 1_555
O3 C11 1_555 1_555
O4 C11 1_555 1_555
C8 H5 1_555 1_555
C9 H6 1_555 1_555
C10 C7 1_555 1_555
H7 C10 1_555 1_555
C11 C14 1_555 1_555
C12 C7 1_555 1_555
H8 C12 1_555 1_555
C13 N2 1_555 1_555
H9 C13 1_555 1_555
C14 C8 1_555 1_555
C15 C14 1_555 1_555
H10 C15 1_555 1_555
C16 H11 1_555 1_555
C17 C15 1_555 1_555
C18 C8 1_555 1_555
N3 C17 1_555 1_555
H12 N3 1_555 1_555
H13 N3 1_555 1_555
O2A Cd1 1_555 1_555
Cd1A O2 1_555 1_555
Cd1_2 N2 1_555 1_555
Cd1B O3 1_555 1_555
N2_2 Cd1 1_555 1_555
O3B Cd1 1_555 1_555
O4B Cd1 1_555 1_555
C4 C5 1_555 1_555
O1 Cd1 1_555 1_555
O4 Cd1B 1_555 1_555
C9 C10 1_555 1_555
C12 C13 1_555 1_555
C16 C17 1_555 1_555
C16 C18 1_555 1_555

#END
