
#######################################################################
#
#                 Cambridge Crystallographic Data Centre
#                                CCDC 
#
#######################################################################
#
# If this CIF has been generated from an entry in the Cambridge 
# Structural Database, then it will include bibliographic, chemical, 
# crystal, experimental, refinement or atomic coordinate data resulting 
# from the CCDC's data processing and validation procedures.
#
#######################################################################

data_FAPTUN
_chemical_formula_moiety         '(C18 H13 Cu1 N3 O4)n'
_symmetry_cell_setting           orthorhombic
_symmetry_space_group_name_H-M   'P b a m'
_symmetry_Int_Tables_number      55
_space_group_name_Hall           '-P 2 2ab'
loop_
_symmetry_equiv_pos_site_id
_symmetry_equiv_pos_as_xyz
1 x,y,z
2 -x,-y,z
3 1/2+x,1/2-y,-z
4 1/2-x,1/2+y,-z
5 -x,-y,-z
6 x,y,-z
7 1/2-x,1/2+y,z
8 1/2+x,1/2-y,z
_cell_length_a                   14.3040(16)
_cell_length_b                   16.970(2)
_cell_length_c                   11.098(2)
_cell_angle_alpha                90
_cell_angle_beta                 90
_cell_angle_gamma                90
_cell_volume                     2693.92
loop_
_atom_site_label
_atom_site_type_symbol
_atom_site_fract_x
_atom_site_fract_y
_atom_site_fract_z
C1 C -0.0584(4) 0.1295(4) 0.0000
C2 C -0.0486(6) 0.2185(5) 0.0000
C3 C 0.0419(6) 0.2483(5) 0.0000
H1 H 0.0926 0.2140 0.0000
C4 C 0.0567(5) 0.3275(5) 0.0000
C5 C -0.0206(6) 0.3795(5) 0.0000
H2 H -0.0114 0.4338 0.0000
C6 C -0.1109(6) 0.3480(5) 0.0000
C7 C -0.1246(6) 0.2693(5) 0.0000
H3 H -0.1851 0.2492 0.0000
C8 C -0.1906(5) 0.4069(4) 0.0000
C9 C 0.1838(5) -0.0430(4) -0.2438(5)
H4 H 0.2109 -0.0847 -0.2021
C10 C 0.1086(6) 0.0725(5) -0.2430(6)
H5 H 0.0819 0.1142 -0.2011
C11 C 0.1843(5) -0.0455(4) -0.3684(5)
H6 H 0.2115 -0.0880 -0.4080
C12 C 0.1449(6) 0.0146(4) -0.4337(7)
C13 C 0.1059(6) 0.0738(4) -0.3665(6)
H7 H 0.0771 0.1158 -0.4054
N1 N 0.1471(3) 0.0151(2) -0.1810(4)
O1 O -0.1415(3) 0.1017(2) 0.0000
O2 O 0.0121(3) 0.0891(3) 0.0000
O3 O -0.2733(3) 0.3822(3) 0.0000
O4 O -0.1735(4) 0.4792(3) 0.0000
Cu1 Cu 0.15113(5) 0.01548(4) 0.0000
N2 N 0.1464(4) 0.3595(4) 0.0000
H8 H 0.1944 0.3290 0.0000
H9 H 0.1538 0.4098 0.0000
C9E C 0.1838(5) -0.0430(4) -0.7562(5)
H4E H 0.2109 -0.0847 -0.7979
C10E C 0.1086(6) 0.0725(5) -0.7570(6)
H5E H 0.0819 0.1142 -0.7989
C11E C 0.1843(5) -0.0455(4) -0.6316(5)
H6E H 0.2115 -0.0880 -0.5920
C12E C 0.1449(6) 0.0146(4) -0.5663(7)
C13E C 0.1059(6) 0.0738(4) -0.6335(6)
H7E H 0.0771 0.1158 -0.5946
N1E N 0.1471(3) 0.0151(2) -0.8190(4)
N1E_2 N 0.1471(3) 0.0151(2) 0.1810(4)
O1A O 0.1415(3) -0.1017(2) 0.0000
O3B O 0.2267(3) 0.1178(3) 0.0000
O4B O 0.3265(4) 0.0208(3) 0.0000
Cu1A Cu -0.15113(5) -0.01548(4) 0.0000
Cu1B Cu -0.34887(5) 0.48452(4) 0.0000
Cu1_2 Cu 0.15113(5) 0.01548(4) -1.0000
loop_
_geom_bond_atom_site_label_1
_geom_bond_atom_site_label_2
_geom_bond_site_symmetry_1
_geom_bond_site_symmetry_2
C1 C2 1_555 1_555
C2 C3 1_555 1_555
C3 H1 1_555 1_555
C4 C3 1_555 1_555
C5 C4 1_555 1_555
H2 C5 1_555 1_555
C6 C5 1_555 1_555
C7 C2 1_555 1_555
H3 C7 1_555 1_555
C8 C6 1_555 1_555
C9 H4 1_555 1_555
C10 H5 1_555 1_555
C11 C9 1_555 1_555
H6 C11 1_555 1_555
C12 C11 1_555 1_555
C13 C10 1_555 1_555
H7 C13 1_555 1_555
N1 C9 1_555 1_555
O1 C1 1_555 1_555
O2 C1 1_555 1_555
O3 C8 1_555 1_555
O4 C8 1_555 1_555
Cu1 N1 1_555 1_555
N2 C4 1_555 1_555
H8 N2 1_555 1_555
H9 N2 1_555 1_555
C9E H4E 1_555 1_555
C10E H5E 1_555 1_555
C11E C9E 1_555 1_555
H6E C11E 1_555 1_555
C12E C12 1_555 1_555
C13E C10E 1_555 1_555
H7E C13E 1_555 1_555
N1E C9E 1_555 1_555
N1E_2 Cu1 1_555 1_555
O1A Cu1 1_555 1_555
O3B Cu1 1_555 1_555
O4B Cu1 1_555 1_555
Cu1A O1 1_555 1_555
Cu1B O3 1_555 1_555
Cu1_2 N1E 1_555 1_555
C6 C7 1_555 1_555
C10 N1 1_555 1_555
C12 C13 1_555 1_555
O2 Cu1 1_555 1_555
O4 Cu1B 1_555 1_555
C10E N1E 1_555 1_555
C11E C12E 1_555 1_555
C12E C13E 1_555 1_555

#END
