
#######################################################################
#
#                 Cambridge Crystallographic Data Centre
#                                CCDC 
#
#######################################################################
#
# If this CIF has been generated from an entry in the Cambridge 
# Structural Database, then it will include bibliographic, chemical, 
# crystal, experimental, refinement or atomic coordinate data resulting 
# from the CCDC's data processing and validation procedures.
#
#######################################################################

data_EMAPAK
_chemical_formula_moiety         'C48 H68 N30 O4 Zn12'
_symmetry_cell_setting           cubic
_symmetry_space_group_name_H-M   'I -4 3 m'
_symmetry_Int_Tables_number      217
_space_group_name_Hall           'I -4 2 3'
loop_
_symmetry_equiv_pos_site_id
_symmetry_equiv_pos_as_xyz
1 x,y,z
2 x,-y,-z
3 -x,-y,z
4 -x,y,-z
5 y,-x,-z
6 -y,-x,z
7 -y,x,-z
8 y,x,z
9 y,z,x
10 -y,-z,x
11 y,-z,-x
12 -y,z,-x
13 z,-y,-x
14 z,y,x
15 -z,y,-x
16 -z,-y,x
17 z,x,y
18 -z,x,-y
19 -z,-x,y
20 z,-x,-y
21 x,z,y
22 x,-z,-y
23 -x,z,-y
24 -x,-z,y
25 1/2+x,1/2+y,1/2+z
26 1/2+x,1/2-y,1/2-z
27 1/2-x,1/2-y,1/2+z
28 1/2-x,1/2+y,1/2-z
29 1/2+y,1/2-x,1/2-z
30 1/2-y,1/2-x,1/2+z
31 1/2-y,1/2+x,1/2-z
32 1/2+y,1/2+x,1/2+z
33 1/2+y,1/2+z,1/2+x
34 1/2-y,1/2-z,1/2+x
35 1/2+y,1/2-z,1/2-x
36 1/2-y,1/2+z,1/2-x
37 1/2+z,1/2-y,1/2-x
38 1/2+z,1/2+y,1/2+x
39 1/2-z,1/2+y,1/2-x
40 1/2-z,1/2-y,1/2+x
41 1/2+z,1/2+x,1/2+y
42 1/2-z,1/2+x,1/2-y
43 1/2-z,1/2-x,1/2+y
44 1/2+z,1/2-x,1/2-y
45 1/2+x,1/2+z,1/2+y
46 1/2+x,1/2-z,1/2-y
47 1/2-x,1/2+z,1/2-y
48 1/2-x,1/2-z,1/2+y
_cell_length_a                   16.9858(11)
_cell_length_b                   16.9858(11)
_cell_length_c                   16.9858(11)
_cell_angle_alpha                90
_cell_angle_beta                 90
_cell_angle_gamma                90
_cell_volume                     4900.7
loop_
_atom_site_label
_atom_site_type_symbol
_atom_site_fract_x
_atom_site_fract_y
_atom_site_fract_z
O2 O 0.2527(19) 0.5000 0.5000
O3 O 0.704(3) 0.296(3) 0.704(3)
O4 O 0.802(6) 0.198(6) 0.802(6)
Zn1 Zn 0.0000 0.5000 0.2500
N1 N 0.02918(12) 0.41060(13) 0.31965(12)
C1 C 0.10129(19) 0.37646(16) 0.32120(19)
H3 H 0.1436 0.3895 0.2890
C2 C -0.01310(13) 0.3755(2) 0.37549(13)
C3 C -0.0958(3) 0.3957(3) 0.3957(3)
H4 H -0.1043 0.3872 0.4510
H5 H -0.1321 0.3651 0.3651
Zn1T Zn 0.0000 0.2500 0.5000
Zn1U Zn -0.0000 0.7500 0.5000
Zn1N Zn -0.2500 0.5000 0.0000
Zn1L Zn 0.2500 0.5000 0.0000
Zn1A Zn -0.0000 0.5000 0.7500
Zn1Q Zn -0.2500 0.0000 0.5000
Zn1P Zn 0.2500 0.0000 0.5000
Zn1P_2 Zn 0.2500 1.0000 0.5000
Zn1Q_2 Zn -0.2500 1.0000 0.5000
Zn1A_2 Zn 0.0000 0.5000 -0.2500
Zn1I Zn -0.5000 0.7500 0.0000
N1T N 0.02918(12) 0.31965(12) 0.41060(13)
N1B N -0.02918(12) 0.58940(13) 0.31965(12)
N1W N -0.02918(12) 0.68035(12) 0.41060(13)
N1BA N -0.08940(13) 0.47082(12) 0.18035(12)
N1QA N -0.18035(12) 0.47082(12) 0.08940(13)
N1DA N 0.08940(13) 0.52918(12) 0.18035(12)
N1OA N 0.18035(12) 0.52918(12) 0.08940(13)
N1V N -0.02918(12) 0.31965(12) 0.58940(13)
N1C N -0.02918(12) 0.41060(13) 0.68035(12)
N1HA N -0.08940(13) 0.18035(12) 0.47082(12)
N1JA N -0.18035(12) 0.08940(13) 0.47082(12)
N1GA N 0.08940(13) 0.18035(12) 0.52918(12)
N1MA N 0.18035(12) 0.08940(13) 0.52918(12)
N1U N 0.02918(12) 0.68035(12) 0.58940(13)
N1A N 0.02918(12) 0.58940(13) 0.68035(12)
N1IA N 0.08940(13) 0.81965(12) 0.47082(12)
N1LA N 0.18035(12) 0.91060(13) 0.47082(12)
N1FA N -0.08940(13) 0.81965(12) 0.52918(12)
N1KA N -0.18035(12) 0.91060(13) 0.52918(12)
N1NA N -0.18035(12) 0.52918(12) -0.08940(13)
N1EA N -0.08940(13) 0.52918(12) -0.18035(12)
N1O N -0.31965(12) 0.58940(13) 0.02918(12)
N1I N -0.41060(13) 0.68035(12) 0.02918(12)
N1N N -0.31965(12) 0.41060(13) -0.02918(12)
N1PA N 0.18035(12) 0.47082(12) -0.08940(13)
N1M N 0.31965(12) 0.41060(13) 0.02918(12)
N1L N 0.31965(12) 0.58940(13) -0.02918(12)
N1CA N 0.08940(13) 0.47082(12) 0.81965(12)
N1EA_2 N -0.08940(13) 0.52918(12) 0.81965(12)
C1T C 0.10129(19) 0.32120(19) 0.37646(16)
C1B C -0.10129(19) 0.62354(16) 0.32120(19)
C1W C -0.10129(19) 0.67880(19) 0.37646(16)
C1BA C -0.12354(16) 0.39871(19) 0.17880(19)
C1QA C -0.17880(19) 0.39871(19) 0.12354(16)
C1DA C 0.12354(16) 0.60129(19) 0.17880(19)
C1OA C 0.17880(19) 0.60129(19) 0.12354(16)
C1V C -0.10129(19) 0.32120(19) 0.62354(16)
C1C C -0.10129(19) 0.37646(16) 0.67880(19)
C1HA C -0.12354(16) 0.17880(19) 0.39871(19)
C1JA C -0.17880(19) 0.12354(16) 0.39871(19)
C1GA C 0.12354(16) 0.17880(19) 0.60129(19)
C1MA C 0.17880(19) 0.12354(16) 0.60129(19)
C1U C 0.10129(19) 0.67880(19) 0.62354(16)
C1A C 0.10129(19) 0.62354(16) 0.67880(19)
C1IA C 0.12354(16) 0.82120(19) 0.39871(19)
C1LA C 0.17880(19) 0.87646(16) 0.39871(19)
C1FA C -0.12354(16) 0.82120(19) 0.60129(19)
C1KA C -0.17880(19) 0.87646(16) 0.60129(19)
C1NA C -0.17880(19) 0.60129(19) -0.12354(16)
C1EA C -0.12354(16) 0.60129(19) -0.17880(19)
C1O C -0.32120(19) 0.62354(16) 0.10129(19)
C1I C -0.37646(16) 0.67880(19) 0.10129(19)
H3T H 0.1436 0.2890 0.3895
H3B H -0.1436 0.6105 0.2890
H3W H -0.1436 0.7110 0.3895
H3BA H -0.1105 0.3564 0.2110
H3QA H -0.2110 0.3564 0.1105
H3DA H 0.1105 0.6436 0.2110
H3OA H 0.2110 0.6436 0.1105
H3V H -0.1436 0.2890 0.6105
H3C H -0.1436 0.3895 0.7110
H3HA H -0.1105 0.2110 0.3564
H3JA H -0.2110 0.1105 0.3564
H3GA H 0.1105 0.2110 0.6436
H3MA H 0.2110 0.1105 0.6436
H3U H 0.1436 0.7110 0.6105
H3A H 0.1436 0.6105 0.7110
H3IA H 0.1105 0.7890 0.3564
H3LA H 0.2110 0.8895 0.3564
H3FA H -0.1105 0.7890 0.6436
H3KA H -0.2110 0.8895 0.6436
H3NA H -0.2110 0.6436 -0.1105
H3EA H -0.1105 0.6436 -0.2110
H3O H -0.2890 0.6105 0.1436
H3I H -0.3895 0.7110 0.1436
C2B C 0.01310(13) 0.6245(2) 0.37549(13)
C2BA C -0.1245(2) 0.51310(13) 0.12451(13)
C2DA C 0.1245(2) 0.48690(13) 0.12451(13)
C2V C 0.01310(13) 0.37549(13) 0.6245(2)
C2HA C -0.1245(2) 0.12451(13) 0.51310(13)
C2GA C 0.1245(2) 0.12451(13) 0.48690(13)
C2U C -0.01310(13) 0.62451(13) 0.6245(2)
C2IA C 0.1245(2) 0.87549(13) 0.51310(13)
C2FA C -0.1245(2) 0.87549(13) 0.48690(13)
C2NA C -0.12451(13) 0.48690(13) -0.1245(2)
C2O C -0.37549(13) 0.6245(2) -0.01310(13)
C3B C 0.0958(3) 0.6043(3) 0.3957(3)
C3BA C -0.1043(3) 0.5958(3) 0.1043(3)
C3DA C 0.1043(3) 0.4042(3) 0.1043(3)
C3C C 0.0958(3) 0.3957(3) 0.6043(3)
C3HA C -0.1043(3) 0.1043(3) 0.5958(3)
C3GA C 0.1043(3) 0.1043(3) 0.4042(3)
C3A C -0.0958(3) 0.6043(3) 0.6043(3)
C3IA C 0.1043(3) 0.8957(3) 0.5958(3)
C3FA C -0.1043(3) 0.8957(3) 0.4042(3)
C3EA C -0.1043(3) 0.4042(3) -0.1043(3)
C3I C -0.3957(3) 0.6043(3) -0.0958(3)
H4T H -0.1043 0.4510 0.3872
H4B H 0.1043 0.6128 0.4510
H4W H 0.1043 0.5490 0.3872
H4BA H -0.1128 0.6043 0.0490
H4QA H -0.0490 0.6043 0.1128
H4DA H 0.1128 0.3957 0.0490
H4OA H 0.0490 0.3957 0.1128
H4V H 0.1043 0.4510 0.6128
H4C H 0.1043 0.3872 0.5490
H4HA H -0.1128 0.0490 0.6043
H4JA H -0.0490 0.1128 0.6043
H4GA H 0.1128 0.0490 0.3957
H4MA H 0.0490 0.1128 0.3957
H4U H -0.1043 0.5490 0.6128
H4A H -0.1043 0.6128 0.5490
H4IA H 0.1128 0.9510 0.6043
H4LA H 0.0490 0.8872 0.6043
H4FA H -0.1128 0.9510 0.3957
H4KA H -0.0490 0.8872 0.3957
H4NA H -0.0490 0.3957 -0.1128
H4EA H -0.1128 0.3957 -0.0490
H4O H -0.4510 0.6128 -0.1043
H4I H -0.3872 0.5490 -0.1043
H5B H 0.1321 0.6349 0.3651
H5BA H -0.1349 0.6321 0.1349
H5DA H 0.1349 0.3679 0.1349
H5C H 0.1321 0.3651 0.6349
H5HA H -0.1349 0.1349 0.6321
H5GA H 0.1349 0.1349 0.3679
H5A H -0.1321 0.6349 0.6349
H5IA H 0.1349 0.8651 0.6321
H5FA H -0.1349 0.8651 0.3679
H5EA H -0.1349 0.3679 -0.1349
H5I H -0.3651 0.6349 -0.1321
O1 O 0.7391(5) 0.4361(9) 0.7391(5)
H1 H 0.7382 0.3861 0.7382
H2 H 0.7350 0.4858 0.7350
loop_
_geom_bond_atom_site_label_1
_geom_bond_atom_site_label_2
_geom_bond_site_symmetry_1
_geom_bond_site_symmetry_2
O1 H1 1_555 1_555
H2 O1 1_555 1_555
Zn1 N1 1_555 1_555
N1 C1 1_555 1_555
C1 H3 1_555 1_555
C2 N1 1_555 1_555
C3 C2 1_555 1_555
H4 C3 1_555 1_555
H5 C3 1_555 1_555
Zn1T N1T 1_555 1_555
Zn1U N1W 1_555 1_555
Zn1N N1QA 1_555 1_555
Zn1L N1OA 1_555 1_555
Zn1A N1C 1_555 1_555
Zn1Q N1JA 1_555 1_555
Zn1P N1MA 1_555 1_555
Zn1P_2 N1LA 1_555 1_555
Zn1Q_2 N1KA 1_555 1_555
Zn1A_2 N1EA 1_555 1_555
Zn1I N1I 1_555 1_555
N1T C2 1_555 1_555
N1B Zn1 1_555 1_555
N1W C1W 1_555 1_555
N1BA Zn1 1_555 1_555
N1QA C1QA 1_555 1_555
N1DA Zn1 1_555 1_555
N1OA C1OA 1_555 1_555
N1V Zn1T 1_555 1_555
N1C C1C 1_555 1_555
N1HA Zn1T 1_555 1_555
N1JA C1JA 1_555 1_555
N1GA Zn1T 1_555 1_555
N1MA C1MA 1_555 1_555
N1U Zn1U 1_555 1_555
N1A Zn1A 1_555 1_555
N1IA Zn1U 1_555 1_555
N1LA C1LA 1_555 1_555
N1FA Zn1U 1_555 1_555
N1KA C1KA 1_555 1_555
N1NA Zn1N 1_555 1_555
N1EA C1EA 1_555 1_555
N1O Zn1N 1_555 1_555
N1I C1I 1_555 1_555
N1N Zn1N 1_555 1_555
N1PA Zn1L 1_555 1_555
N1M Zn1L 1_555 1_555
N1L Zn1L 1_555 1_555
N1CA Zn1A 1_555 1_555
N1EA_2 Zn1A 1_555 1_555
C1T C1 1_555 1_555
C1B N1B 1_555 1_555
C1W C1B 1_555 1_555
C1BA N1BA 1_555 1_555
C1QA C1BA 1_555 1_555
C1DA N1DA 1_555 1_555
C1OA C1DA 1_555 1_555
C1V N1V 1_555 1_555
C1C C1V 1_555 1_555
C1HA N1HA 1_555 1_555
C1JA C1HA 1_555 1_555
C1GA N1GA 1_555 1_555
C1MA C1GA 1_555 1_555
C1U N1U 1_555 1_555
C1A N1A 1_555 1_555
C1IA N1IA 1_555 1_555
C1LA C1IA 1_555 1_555
C1FA N1FA 1_555 1_555
C1KA C1FA 1_555 1_555
C1NA N1NA 1_555 1_555
C1EA C1NA 1_555 1_555
C1O N1O 1_555 1_555
C1I C1O 1_555 1_555
H3T C1T 1_555 1_555
H3B C1B 1_555 1_555
H3W C1W 1_555 1_555
H3BA C1BA 1_555 1_555
H3QA C1QA 1_555 1_555
H3DA C1DA 1_555 1_555
H3OA C1OA 1_555 1_555
H3V C1V 1_555 1_555
H3C C1C 1_555 1_555
H3HA C1HA 1_555 1_555
H3JA C1JA 1_555 1_555
H3GA C1GA 1_555 1_555
H3MA C1MA 1_555 1_555
H3U C1U 1_555 1_555
H3A C1A 1_555 1_555
H3IA C1IA 1_555 1_555
H3LA C1LA 1_555 1_555
H3FA C1FA 1_555 1_555
H3KA C1KA 1_555 1_555
H3NA C1NA 1_555 1_555
H3EA C1EA 1_555 1_555
H3O C1O 1_555 1_555
H3I C1I 1_555 1_555
C2B N1B 1_555 1_555
C2BA N1BA 1_555 1_555
C2DA N1DA 1_555 1_555
C2V N1V 1_555 1_555
C2HA N1HA 1_555 1_555
C2GA N1GA 1_555 1_555
C2U N1U 1_555 1_555
C2IA N1IA 1_555 1_555
C2FA N1FA 1_555 1_555
C2NA N1NA 1_555 1_555
C2O N1O 1_555 1_555
C3B C2B 1_555 1_555
C3BA C2BA 1_555 1_555
C3DA C2DA 1_555 1_555
C3C C2V 1_555 1_555
C3HA C2HA 1_555 1_555
C3GA C2GA 1_555 1_555
C3A C2U 1_555 1_555
C3IA C2IA 1_555 1_555
C3FA C2FA 1_555 1_555
C3EA C2NA 1_555 1_555
C3I C2O 1_555 1_555
H4T C3 1_555 1_555
H4B C3B 1_555 1_555
H4W C3B 1_555 1_555
H4BA C3BA 1_555 1_555
H4QA C3BA 1_555 1_555
H4DA C3DA 1_555 1_555
H4OA C3DA 1_555 1_555
H4V C3C 1_555 1_555
H4C C3C 1_555 1_555
H4HA C3HA 1_555 1_555
H4JA C3HA 1_555 1_555
H4GA C3GA 1_555 1_555
H4MA C3GA 1_555 1_555
H4U C3A 1_555 1_555
H4A C3A 1_555 1_555
H4IA C3IA 1_555 1_555
H4LA C3IA 1_555 1_555
H4FA C3FA 1_555 1_555
H4KA C3FA 1_555 1_555
H4NA C3EA 1_555 1_555
H4EA C3EA 1_555 1_555
H4O C3I 1_555 1_555
H4I C3I 1_555 1_555
H5B C3B 1_555 1_555
H5BA C3BA 1_555 1_555
H5DA C3DA 1_555 1_555
H5C C3C 1_555 1_555
H5HA C3HA 1_555 1_555
H5GA C3GA 1_555 1_555
H5A C3A 1_555 1_555
H5IA C3IA 1_555 1_555
H5FA C3FA 1_555 1_555
H5EA C3EA 1_555 1_555
H5I C3I 1_555 1_555
N1T C1T 1_555 1_555
N1W C2B 1_555 1_555
N1QA C2BA 1_555 1_555
N1OA C2DA 1_555 1_555
N1C C2V 1_555 1_555
N1JA C2HA 1_555 1_555
N1MA C2GA 1_555 1_555
N1A C2U 1_555 1_555
N1LA C2IA 1_555 1_555
N1KA C2FA 1_555 1_555
N1EA C2NA 1_555 1_555
N1I C2O 1_555 1_555
C1U C1A 1_555 1_555

#END
