
#######################################################################
#
#                 Cambridge Crystallographic Data Centre
#                                CCDC 
#
#######################################################################
#
# If this CIF has been generated from an entry in the Cambridge 
# Structural Database, then it will include bibliographic, chemical, 
# crystal, experimental, refinement or atomic coordinate data resulting 
# from the CCDC's data processing and validation procedures.
#
#######################################################################

data_WOHDON
_chemical_formula_moiety         '(C4 H20 Cd2 O18 S1)n'
_symmetry_cell_setting           orthorhombic
_symmetry_space_group_name_H-M   'P 21 21 21'
_symmetry_Int_Tables_number      19
_space_group_name_Hall           'P 2ac 2ab'
loop_
_symmetry_equiv_pos_site_id
_symmetry_equiv_pos_as_xyz
1 x,y,z
2 1/2-x,-y,1/2+z
3 -x,1/2+y,1/2-z
4 1/2+x,1/2-y,-z
_cell_length_a                   8.4085(17)
_cell_length_b                   9.807(2)
_cell_length_c                   21.019(4)
_cell_angle_alpha                90
_cell_angle_beta                 90
_cell_angle_gamma                90
_cell_volume                     1733.27
loop_
_atom_site_label
_atom_site_type_symbol
_atom_site_fract_x
_atom_site_fract_y
_atom_site_fract_z
_atom_site_U_iso_or_equiv
_atom_site_thermal_displace_type
Cd1 Cd -0.00436(2) -0.392500(19) 0.283060(9) 0.0199 Uani
Cd2 Cd -0.19393(2) 0.16251(2) 0.477369(9) 0.0187 Uani
S1 S -0.36856(8) -0.23962(7) 0.29278(3) 0.0210 Uani
O1 O 0.0460(3) -0.1037(2) 0.25775(9) 0.0258 Uani
O2 O 0.1017(3) -0.2275(2) 0.34239(10) 0.0262 Uani
O3 O 0.1128(2) 0.13029(19) 0.32196(9) 0.0207 Uani
H1 H 0.185(3) 0.182(3) 0.3135(16) 0.0250 Uiso
O4 O -0.0510(2) -0.0122(2) 0.42373(10) 0.0217 Uani
H2 H -0.066(4) -0.0940(12) 0.4210(17) 0.0260 Uiso
O5 O 0.0787(2) 0.1984(2) 0.48292(10) 0.0248 Uani
O6 O 0.3216(2) 0.1428(2) 0.45649(11) 0.0328 Uani
O7 O -0.1887(3) 0.2746(2) 0.38224(10) 0.0297 Uani
H3 H -0.152(4) 0.216(3) 0.3567(13) 0.0360 Uiso
H4 H -0.266(3) 0.317(3) 0.3658(14) 0.0360 Uiso
O8 O -0.3901(3) 0.0220(3) 0.44213(12) 0.0358 Uani
H5 H -0.387(4) -0.034(3) 0.4118(14) 0.0430 Uiso
H6 H -0.483(2) 0.058(4) 0.4436(17) 0.0430 Uiso
O9 O -0.1848(3) 0.0328(2) 0.56779(11) 0.0317 Uani
H7 H -0.148(4) -0.0456(19) 0.5574(17) 0.0380 Uiso
H8 H -0.114(3) 0.071(3) 0.5910(16) 0.0380 Uiso
O10 O 0.2352(3) -0.3880(2) 0.23136(11) 0.0292 Uani
H9 H 0.250(4) -0.466(2) 0.2151(16) 0.0350 Uiso
H10 H 0.312(3) -0.370(3) 0.2559(14) 0.0350 Uiso
O11 O 0.0107(3) -0.5027(2) 0.38044(11) 0.0328 Uani
H11 H -0.037(3) -0.578(2) 0.3832(18) 0.0390 Uiso
H12 H 0.102(2) -0.508(3) 0.3952(18) 0.0390 Uiso
O12 O -0.2647(3) -0.3539(3) 0.31247(10) 0.0313 Uani
O13 O -0.3470(3) -0.2163(3) 0.22377(10) 0.0351 Uani
O14 O -0.5327(3) -0.2751(3) 0.30734(12) 0.0461 Uani
O15 O -0.3252(4) -0.1169(2) 0.32792(11) 0.0430 Uani
C1 C 0.0989(3) -0.1170(3) 0.31292(12) 0.0167 Uiso
C2 C 0.1666(3) 0.0063(3) 0.34882(12) 0.0152 Uani
H13 H 0.2830 0.0035 0.3463 0.0180 Uiso
C3 C 0.1169(3) -0.0030(3) 0.41887(12) 0.0155 Uani
H14 H 0.1644 -0.0849 0.4377 0.0190 Uiso
C4 C 0.1743(3) 0.1209(3) 0.45506(12) 0.0178 Uiso
Cd1B Cd 0.00436(2) 0.107500(19) 0.216940(9) 0.0199 Uani
Cd2C Cd 0.30607(2) 0.33749(2) 0.522631(9) 0.0187 Uani
O1B O -0.0460(3) -0.6037(2) 0.24225(9) 0.0258 Uani
O3B O -0.1128(2) -0.36971(19) 0.17804(9) 0.0207 Uani
H1B H -0.185(3) -0.318(3) 0.1865(16) 0.0250 Uiso
O5C O -0.4213(2) 0.3016(2) 0.51708(10) 0.0248 Uani
O6C O -0.1784(2) 0.3572(2) 0.54351(11) 0.0328 Uani
O16 O 0.6676(4) 0.2865(4) -0.04876(14) 0.0590 Uani
O17 O -0.4451(3) 0.4128(3) 0.34899(11) 0.0348 Uani
O18 O 0.5244(4) 0.2053(3) 0.05985(13) 0.0560 Uani
loop_
_atom_site_aniso_label
_atom_site_aniso_U_11
_atom_site_aniso_U_22
_atom_site_aniso_U_33
_atom_site_aniso_U_23
_atom_site_aniso_U_13
_atom_site_aniso_U_12
Cd1 0.02272 0.01937 0.01751 -0.00235 -0.0016 -0.0021
Cd2 0.01714(9) 0.01909(9) 0.01987(9) -0.00452(8) 0.00295(8) -0.00030(8)
S1 0.021 0.022 0.0199 -0.0003 0.0007 0.002
O1 0.0363(12) 0.0203(9) 0.0207(9) -0.0032(8) -0.0078(8) -0.0005(9)
O2 0.0405(12) 0.0157(10) 0.0225(10) -0.0015(8) -0.0007(9) -0.0040(9)
O3 0.0277(10) 0.0139(10) 0.0205(9) 0.0012(7) -0.0007(8) -0.0035(8)
O4 0.0181(9) 0.0179(10) 0.0291(11) -0.0086(8) 0.0083(8) -0.0068(8)
O5 0.0202(9) 0.0253(11) 0.0290(10) -0.0140(9) 0.0023(9) -0.0002(8)
O6 0.0157(9) 0.0358(13) 0.0469(12) -0.0204(10) -0.0058(9) -0.0014(9)
O7 0.0382(12) 0.0261(11) 0.0248(10) -0.0019(9) 0.0024(10) 0.0050(11)
O8 0.0212(11) 0.0412(14) 0.0451(14) -0.0204(12) 0.0015(10) -0.0005(10)
O9 0.0342(12) 0.0331(12) 0.0277(11) 0.0039(9) 0.0024(11) 0.0041(11)
O10 0.0253 0.0257 0.0367 -0.0079 0.0004 0.0013
O11 0.0348 0.0319 0.0317 0.0111 -0.0099 -0.0083
O12 0.0288 0.0356 0.0296 0.0089 0.004 0.0076
O13 0.0428 0.0434 0.019 0.0045 0.0028 0.019
O14 0.0207 0.0746 0.0431 -0.0017 0.0015 -0.007
O15 0.0716 0.0263 0.0312 -0.0052 0.0126 -0.0093
C2 0.0150(12) 0.0157(12) 0.0148(11) -0.0020(9) -0.0002(10) -0.0021(10)
C3 0.0167(12) 0.0140(12) 0.0158(12) -0.0023(9) -0.0014(10) 0.0000(10)
Cd1B 0.02272(10) 0.01937(9) 0.01751(9) 0.00235(7) -0.00160(8) 0.00210(8)
Cd2C 0.01714 0.01909 0.01987 -0.00452 -0.00295 0.0003
O1B 0.0363 0.0203 0.0207 0.0032 -0.0078 0.0005
O3B 0.0277 0.0139 0.0205 -0.0012 -0.0007 0.0035
O5C 0.0202 0.0253 0.029 -0.014 -0.0023 0.0002
O6C 0.0157 0.0358 0.0469 -0.0204 0.0058 0.0014
O16 0.063(2) 0.074(2) 0.0400(14) 0.0162(15) 0.0064(14) -0.0005(18)
O17 0.0403(12) 0.0330(13) 0.0311(11) 0.0027(10) -0.0079(10) -0.0078(10)
O18 0.074(2) 0.0517(17) 0.0423(14) 0.0053(12) 0.0144(15) 0.0163(16)
loop_
_geom_bond_atom_site_label_1
_geom_bond_atom_site_label_2
_geom_bond_site_symmetry_1
_geom_bond_site_symmetry_2
Cd1 O2 1_555 1_555
Cd2 O4 1_555 1_555
S1 O12 1_555 1_555
O1 C1 1_555 1_555
O2 C1 1_555 1_555
O3 H1 1_555 1_555
O4 H2 1_555 1_555
O5 Cd2 1_555 1_555
O6 C4 1_555 1_555
O7 Cd2 1_555 1_555
H3 O7 1_555 1_555
H4 O7 1_555 1_555
O8 Cd2 1_555 1_555
H5 O8 1_555 1_555
H6 O8 1_555 1_555
O9 Cd2 1_555 1_555
H7 O9 1_555 1_555
H8 O9 1_555 1_555
O10 Cd1 1_555 1_555
H9 O10 1_555 1_555
H10 O10 1_555 1_555
O11 Cd1 1_555 1_555
H11 O11 1_555 1_555
H12 O11 1_555 1_555
O12 Cd1 1_555 1_555
O13 S1 1_555 1_555
O14 S1 1_555 1_555
O15 S1 1_555 1_555
C1 C2 1_555 1_555
C2 O3 1_555 1_555
H13 C2 1_555 1_555
C3 O4 1_555 1_555
H14 C3 1_555 1_555
C4 O5 1_555 1_555
Cd1B O1 1_555 1_555
Cd2C O5 1_555 1_555
O1B Cd1 1_555 1_555
O3B Cd1 1_555 1_555
H1B O3B 1_555 1_555
O5C Cd2 1_555 1_555
O6C Cd2 1_555 1_555
O3 Cd1B 1_555 1_555
O6 Cd2C 1_555 1_555
C2 C3 1_555 1_555
C3 C4 1_555 1_555

#END
