
#######################################################################
#
#                 Cambridge Crystallographic Data Centre
#                                CCDC 
#
#######################################################################
#
# If this CIF has been generated from an entry in the Cambridge 
# Structural Database, then it will include bibliographic, chemical, 
# crystal, experimental, refinement or atomic coordinate data resulting 
# from the CCDC's data processing and validation procedures.
#
#######################################################################

data_CILKOZ
_chemical_formula_moiety         '(C8 H7 N5 O2 Zn1)n'
_symmetry_cell_setting           monoclinic
_symmetry_space_group_name_H-M   'C 2/c'
_symmetry_Int_Tables_number      15
_space_group_name_Hall           '-C 2yc'
loop_
_symmetry_equiv_pos_site_id
_symmetry_equiv_pos_as_xyz
1 x,y,z
2 -x,y,1/2-z
3 1/2+x,1/2+y,z
4 1/2-x,1/2+y,1/2-z
5 -x,-y,-z
6 x,-y,1/2+z
7 1/2-x,1/2-y,-z
8 1/2+x,1/2-y,1/2+z
_cell_length_a                   17.2027(8)
_cell_length_b                   16.6803(5)
_cell_length_c                   10.0443(5)
_cell_angle_alpha                90
_cell_angle_beta                 120.267(6)
_cell_angle_gamma                90
_cell_volume                     2489.29
loop_
_atom_site_label
_atom_site_type_symbol
_atom_site_fract_x
_atom_site_fract_y
_atom_site_fract_z
_atom_site_U_iso_or_equiv
_atom_site_thermal_displace_type
Zn1 Zn 0.26764(2) 0.105331(18) 0.85457(4) 0.0254 Uani
C1 C 0.2907(2) 0.01416(17) 0.6085(4) 0.0296 Uani
C2 C 0.3675(3) 0.0609(3) 0.6200(6) 0.0788 Uani
H1 H 0.3839 0.1023 0.6960 0.1180 Uiso
H2 H 0.3502 0.0847 0.5219 0.1180 Uiso
H3 H 0.4179 0.0259 0.6496 0.1180 Uiso
C3 C 0.0739(2) 0.15328(18) 0.6592(4) 0.0342 Uani
H4 H 0.0645 0.0982 0.6531 0.0410 Uiso
C4 C 0.0008(2) 0.20237(19) 0.5813(4) 0.0342 Uani
H5 H -0.0566 0.1807 0.5239 0.0410 Uiso
C5 C 0.01325(19) 0.28447(18) 0.5891(3) 0.0280 Uani
C6 C 0.1007(2) 0.31353(18) 0.6771(4) 0.0348 Uani
H6 H 0.1118 0.3684 0.6849 0.0420 Uiso
C7 C 0.1707(2) 0.26003(18) 0.7525(4) 0.0354 Uani
H7 H 0.2289 0.2798 0.8119 0.0420 Uiso
C8 C -0.0637(2) 0.34184(19) 0.5074(4) 0.0338 Uani
N1 N 0.25248(16) 0.02665(15) 0.6934(3) 0.0294 Uani
N2 N 0.1871(2) -0.02957(17) 0.6498(4) 0.0480 Uani
N3 N 0.1856(2) -0.07405(18) 0.5421(4) 0.0460 Uani
N4 N 0.25058(17) -0.04784(14) 0.5137(3) 0.0281 Uani
N5 N 0.15785(16) 0.18041(13) 0.7432(3) 0.0261 Uani
O1 O -0.14126(15) 0.31112(13) 0.4293(3) 0.0431 Uani
O2 O -0.0503(2) 0.41431(15) 0.5200(4) 0.0718 Uani
Zn1E Zn 0.26764(2) -0.105331(18) 0.35457(4) 0.0254 Uani
Zn1G Zn -0.23236(2) 0.394669(18) 0.35457(4) 0.0254 Uani
N4E N 0.25058(17) 0.04784(14) 1.0137(3) 0.0281 Uani
O1G O 0.35874(15) 0.18888(13) 0.9293(3) 0.0431 Uani
loop_
_atom_site_aniso_label
_atom_site_aniso_U_11
_atom_site_aniso_U_22
_atom_site_aniso_U_33
_atom_site_aniso_U_23
_atom_site_aniso_U_13
_atom_site_aniso_U_12
Zn1 0.0240(2) 0.0243(2) 0.0245(3) -0.00036(13) 0.00964(18) 0.00007(13)
C1 0.0323(17) 0.0277(16) 0.0294(17) -0.0032(14) 0.0161(14) -0.0063(13)
C2 0.092(4) 0.075(3) 0.107(4) -0.052(3) 0.078(3) -0.055(3)
C3 0.0333(18) 0.0218(15) 0.0426(19) 0.0011(15) 0.0156(15) -0.0020(13)
C4 0.0199(15) 0.0379(17) 0.0371(18) 0.0007(15) 0.0086(14) -0.0051(13)
C5 0.0242(16) 0.0311(15) 0.0269(16) 0.0030(13) 0.0116(13) 0.0034(13)
C6 0.0324(18) 0.0257(16) 0.0335(18) 0.0026(14) 0.0071(14) 0.0014(13)
C7 0.0227(16) 0.0305(17) 0.0383(19) -0.0050(15) 0.0046(14) -0.0021(13)
C8 0.0317(18) 0.0345(18) 0.0305(17) 0.0035(15) 0.0122(15) 0.0050(14)
N1 0.0285(14) 0.0301(14) 0.0281(13) -0.0046(12) 0.0131(11) -0.0040(11)
N2 0.0534(19) 0.0473(17) 0.061(2) -0.0227(16) 0.0419(17) -0.0202(15)
N3 0.0424(18) 0.0489(17) 0.056(2) -0.0220(17) 0.0317(16) -0.0212(15)
N4 0.0281(13) 0.0262(12) 0.0286(14) -0.0029(11) 0.0133(11) -0.0057(11)
N5 0.0221(13) 0.0240(12) 0.0245(13) 0.0020(11) 0.0060(11) 0.0005(10)
O1 0.0245(12) 0.0452(14) 0.0482(15) 0.0021(11) 0.0098(11) 0.0060(10)
O2 0.0501(18) 0.0383(15) 0.096(3) 0.0081(16) 0.0139(17) 0.0106(14)
Zn1E 0.024 0.0243 0.0245 0.00036 0.00964 -7e-05
Zn1G 0.024 0.0243 0.0245 0.00036 0.00964 -7e-05
N4E 0.0281 0.0262 0.0286 0.0029 0.0133 0.0057
O1G 0.0245 0.0452 0.0482 -0.0021 0.0098 -0.006
loop_
_geom_bond_atom_site_label_1
_geom_bond_atom_site_label_2
_geom_bond_site_symmetry_1
_geom_bond_site_symmetry_2
Zn1 N1 1_555 1_555
C1 C2 1_555 1_555
C2 H1 1_555 1_555
H2 C2 1_555 1_555
H3 C2 1_555 1_555
C3 H4 1_555 1_555
C4 C3 1_555 1_555
H5 C4 1_555 1_555
C5 C4 1_555 1_555
C6 C5 1_555 1_555
H6 C6 1_555 1_555
C7 C6 1_555 1_555
H7 C7 1_555 1_555
C8 C5 1_555 1_555
N1 C1 1_555 1_555
N2 N1 1_555 1_555
N3 N2 1_555 1_555
N4 C1 1_555 1_555
N5 Zn1 1_555 1_555
O1 C8 1_555 1_555
O2 C8 1_555 1_555
Zn1E N4 1_555 1_555
Zn1G O1 1_555 1_555
N4E Zn1 1_555 1_555
O1G Zn1 1_555 1_555
C3 N5 1_555 1_555
C7 N5 1_555 1_555
N3 N4 1_555 1_555

#END
