
#######################################################################
#
#                 Cambridge Crystallographic Data Centre
#                                CCDC 
#
#######################################################################
#
# If this CIF has been generated from an entry in the Cambridge 
# Structural Database, then it will include bibliographic, chemical, 
# crystal, experimental, refinement or atomic coordinate data resulting 
# from the CCDC's data processing and validation procedures.
#
#######################################################################

data_LABNAG
_chemical_formula_moiety         '(C285 H318 I24 N48 O15 Zn12)n'
_symmetry_cell_setting           monoclinic
_symmetry_space_group_name_H-M   'P 21'
_symmetry_Int_Tables_number      4
_space_group_name_Hall           'P 2yb'
loop_
_symmetry_equiv_pos_site_id
_symmetry_equiv_pos_as_xyz
1 x,y,z
2 -x,1/2+y,-z
_cell_length_a                   32.8072(2)
_cell_length_b                   14.9123(1)
_cell_length_c                   34.9062(2)
_cell_angle_alpha                90
_cell_angle_beta                 105.8220(10)
_cell_angle_gamma                90
_cell_volume                     16430.2
loop_
_atom_site_label
_atom_site_type_symbol
_atom_site_fract_x
_atom_site_fract_y
_atom_site_fract_z
N1 N 0.93839(17) 0.3363(4) 0.11394(16)
I1 I 0.95545(2) 0.40680(3) 0.01740(2)
Zn1 Zn 0.98081(3) 0.31435(6) 0.08095(3)
C1 C 0.9252(2) 0.4201(5) 0.1187(2)
H1 H 0.9362 0.4686 0.1070
I2 I 1.05563(2) 0.32989(3) 0.12625(2)
Zn2 Zn 0.67121(3) 0.79335(6) 0.15206(3)
C2 C 0.8962(2) 0.4381(5) 0.1399(2)
H2 H 0.8874 0.4979 0.1425
I3 I 0.70751(2) 0.90029(4) 0.11492(2)
Zn3 Zn 0.81949(2) 0.05258(6) 0.36222(2)
C3 C 0.88019(19) 0.3673(4) 0.15738(18)
I4 I 0.64077(2) 0.82307(4) 0.21031(2)
Zn4 Zn 0.98981(3) 0.77396(6) 0.58766(3)
C4 C 0.8943(2) 0.2805(5) 0.1527(2)
H3 H 0.8842 0.2305 0.1643
I5 I 0.75273(2) 0.04586(4) 0.38468(2)
Zn5 Zn 1.17471(2) 0.03392(6) 0.65542(2)
C5 C 0.9232(2) 0.2693(5) 0.1307(2)
H4 H 0.9327 0.2103 0.1275
I6 I 0.85712(2) -0.08676(3) 0.34560(2)
Zn6 Zn 0.67739(2) 1.26647(6) 0.62028(3)
N2 N 0.71237(17) 0.6839(4) 0.16686(18)
I7 I 1.05991(2) 0.80375(4) 0.63906(2)
Zn7 Zn 0.30762(3) 1.23771(6) 0.36796(2)
C6 C 0.7325(2) 0.6566(5) 0.1406(2)
H5 H 0.7283 0.6887 0.1164
I8 I 0.96416(2) 0.87720(3) 0.52737(2)
Zn8 Zn 0.48092(3) 0.50521(6) 0.58652(3)
C7 C 0.7593(2) 0.5830(5) 0.1475(2)
H6 H 0.7734 0.5650 0.1283
I9 I 1.13893(2) 0.01101(3) 0.71087(2)
Zn9 Zn 0.30628(3) 0.76691(6) 0.86862(2)
C8 C 0.76524(18) 0.5363(4) 0.18288(18)
I10 I 1.21147(2) -0.08452(3) 0.62446(2)
Zn10 Zn 0.17500(2) 0.55409(6) 0.11952(2)
C9 C 0.7441(2) 0.5646(4) 0.21033(19)
H7 H 0.7475 0.5337 0.2348
I11 I 0.69150(2) 1.32497(3) 0.55607(2)
Zn11 Zn 0.49022(3) 1.04434(7) 0.08388(3)
C10 C 0.71791(19) 0.6389(5) 0.20107(19)
H8 H 0.7034 0.6586 0.2197
I12 I 0.67484(2) 1.37322(3) 0.67500(2)
Zn12 Zn -0.19985(3) 0.58765(6) -0.12899(2)
N3 N 0.81339(17) 0.1401(4) 0.31472(15)
I13 I 0.23792(2) 1.22831(3) 0.38531(2)
C11 C 0.8409(2) 0.1332(5) 0.2930(2)
H9 H 0.8612 0.0863 0.2990
I14 I 0.34130(2) 1.38464(3) 0.35487(2)
C12 C 0.8413(2) 0.1908(6) 0.2624(2)
H10 H 0.8607 0.1823 0.2469
I15 I 0.45232(2) 0.39826(3) 0.52803(2)
C13 C 0.81263(18) 0.2619(4) 0.25465(17)
I16 I 0.55352(2) 0.47646(3) 0.63474(2)
C14 C 0.7838(2) 0.2694(5) 0.27693(19)
H11 H 0.7635 0.3164 0.2719
I17 I 0.34016(2) 0.91321(3) 0.85442(2)
C15 C 0.7850(2) 0.2067(4) 0.30686(18)
H12 H 0.7651 0.2115 0.3221
I18 I 0.23744(2) 0.75298(4) 0.88776(2)
C16 C 0.84796(19) 0.3799(4) 0.17944(18)
I19 I 0.18092(2) 0.51669(4) 0.04942(2)
N4 N 0.82367(16) 0.4535(4) 0.17169(15)
I20 I 0.17772(2) 0.43566(4) 0.17080(2)
C17 C 0.79305(19) 0.4561(4) 0.19023(17)
I21 I 0.46468(2) 0.95003(4) 0.02095(2)
N5 N 0.78612(15) 0.3947(4) 0.21582(14)
I22 I 0.56253(2) 1.02592(4) 0.13325(2)
C18 C 0.81475(18) 0.3272(4) 0.22331(17)
I23 I -0.27062(2) 0.61250(4) -0.11501(2)
N6 N 0.84553(16) 0.3165(4) 0.20570(15)
I24 I -0.17174(2) 0.43390(3) -0.14144(2)
N7 N 0.86300(16) 0.1172(4) 0.40811(15)
C19 C 0.8928(2) 0.0693(4) 0.4340(2)
H13 H 0.8943 0.0065 0.4300
C20 C 0.9214(2) 0.1085(5) 0.4661(2)
H14 H 0.9424 0.0732 0.4838
C21 C 0.91902(18) 0.1993(4) 0.47215(17)
C22 C 0.8882(2) 0.2494(4) 0.4463(2)
H15 H 0.8857 0.3120 0.4501
C23 C 0.8608(2) 0.2049(5) 0.41423(19)
H16 H 0.8396 0.2387 0.3960
N8 N 0.98344(17) 0.6402(4) 0.57246(16)
C24 C 0.9548(2) 0.6099(5) 0.53987(19)
H17 H 0.9364 0.6515 0.5230
C25 C 0.9513(2) 0.5198(5) 0.53000(19)
H18 H 0.9306 0.5004 0.5068
C26 C 0.97814(18) 0.4576(4) 0.55414(18)
C27 C 1.0072(2) 0.4903(5) 0.58848(19)
H19 H 1.0258 0.4503 0.6062
C28 C 1.0087(2) 0.5807(5) 0.5963(2)
H20 H 1.0285 0.6020 0.6197
N9 N 1.12608(16) 0.0929(4) 0.61238(15)
C29 C 1.0901(2) 0.0466(4) 0.59592(19)
H21 H 1.0902 -0.0167 0.5991
C30 C 1.05310(19) 0.0880(4) 0.57467(18)
H22 H 1.0286 0.0537 0.5626
C31 C 1.05262(19) 0.1804(4) 0.57142(17)
C32 C 1.0898(2) 0.2279(5) 0.58713(19)
H23 H 1.0906 0.2912 0.5841
C33 C 1.1255(2) 0.1814(5) 0.60718(19)
H24 H 1.1510 0.2140 0.6178
C34 C 0.95138(18) 0.2426(4) 0.50549(17)
N10 N 0.94628(15) 0.3285(4) 0.51455(15)
C35 C 0.97788(19) 0.3616(4) 0.54382(17)
N11 N 1.01195(16) 0.3156(4) 0.56396(15)
C36 C 1.01346(18) 0.2309(4) 0.55183(17)
N12 N 0.98436(17) 0.1907(4) 0.52327(15)
N13 N 0.94376(17) 0.7918(4) 0.61736(17)
C37 C 0.9304(3) 0.8761(5) 0.6201(2)
H25 H 0.9420 0.9232 0.6080
C38 C 0.9008(2) 0.8965(5) 0.6398(2)
H26 H 0.8917 0.9567 0.6410
C39 C 0.88412(19) 0.8289(5) 0.65802(18)
C40 C 0.8975(2) 0.7413(5) 0.6548(2)
H27 H 0.8866 0.6930 0.6667
C41 C 0.9270(2) 0.7262(5) 0.6340(2)
H28 H 0.9357 0.6663 0.6313
N14 N 0.71937(16) 1.1641(3) 0.64294(16)
C42 C 0.74231(19) 1.1271(5) 0.62091(19)
H29 H 0.7404 1.1516 0.5954
C43 C 0.76841(18) 1.0553(5) 0.63363(19)
H30 H 0.7846 1.0310 0.6173
C44 C 0.77086(18) 1.0184(4) 0.67085(18)
C45 C 0.74732(19) 1.0569(5) 0.69430(19)
H31 H 0.7484 1.0331 0.7198
C46 C 0.72242(19) 1.1301(5) 0.67962(19)
H32 H 0.7069 1.1578 0.6957
N15 N 0.80328(18) 0.6620(4) 0.82188(15)
C47 C 0.8391(2) 0.6602(5) 0.8110(2)
H33 H 0.8619 0.6246 0.8260
C48 C 0.8444(2) 0.7083(5) 0.7788(2)
H34 H 0.8704 0.7055 0.7718
C49 C 0.81117(19) 0.7608(4) 0.75678(17)
C50 C 0.77370(19) 0.7615(4) 0.76817(18)
H35 H 0.7502 0.7961 0.7537
C51 C 0.7710(2) 0.7116(4) 0.80066(18)
H36 H 0.7453 0.7125 0.8082
C52 C 0.85183(19) 0.8503(4) 0.67892(18)
N16 N 0.82897(16) 0.9242(4) 0.66706(15)
C53 C 0.79824(18) 0.9388(4) 0.68476(17)
N17 N 0.79043(16) 0.8875(4) 0.71334(15)
C54 C 0.81679(18) 0.8170(4) 0.72405(17)
N18 N 0.84770(17) 0.7957(4) 0.70788(15)
N19 N 0.62143(16) 1.1953(4) 0.60109(17)
C55 C 0.5838(2) 1.2374(4) 0.5893(2)
H37 H 0.5827 1.3003 0.5932
C56 C 0.54666(19) 1.1921(5) 0.5717(2)
H38 H 0.5206 1.2235 0.5630
C57 C 0.54829(19) 1.0993(5) 0.56698(18)
C58 C 0.5869(2) 1.0556(5) 0.5795(2)
H39 H 0.5888 0.9925 0.5766
C59 C 0.6225(2) 1.1061(5) 0.5963(2)
H40 H 0.6490 1.0763 0.6048
N20 N 0.35288(16) 1.1690(4) 0.41098(16)
C60 C 0.3810(2) 1.2153(5) 0.4392(2)
H41 H 0.3797 1.2790 0.4388
C61 C 0.4120(2) 1.1737(5) 0.4688(2)
H42 H 0.4316 1.2081 0.4883
C62 C 0.41379(19) 1.0801(4) 0.46966(19)
C63 C 0.38431(19) 1.0319(4) 0.44125(19)
H43 H 0.3845 0.9682 0.4415
C64 C 0.3542(2) 1.0793(5) 0.41215(19)
H44 H 0.3340 1.0466 0.3925
N21 N 0.47832(17) 0.6360(4) 0.56625(18)
C65 C 0.5090(2) 0.6923(5) 0.5849(3)
H45 H 0.5315 0.6697 0.6060
C66 C 0.5095(2) 0.7816(5) 0.5750(3)
H46 H 0.5323 0.8190 0.5887
C67 C 0.47660(19) 0.8164(4) 0.5450(2)
C68 C 0.4450(2) 0.7580(5) 0.5249(2)
H47 H 0.4223 0.7789 0.5036
C69 C 0.4470(2) 0.6687(5) 0.5364(2)
C70 C 0.51015(18) 1.0466(4) 0.54699(19)
N22 N 0.47936(16) 1.0886(4) 0.51998(16)
C71 C 0.44746(18) 1.0349(4) 0.50071(18)
N23 N 0.44434(16) 0.9471(4) 0.50647(17)
C72 C 0.47653(18) 0.9130(5) 0.53514(18)
N24 N 0.50992(16) 0.9600(4) 0.55639(17)
N25 N 0.43815(15) 0.4973(4) 0.61987(16)
C73 C 0.42755(19) 0.4146(5) 0.6289(2)
H48 H 0.4406 0.3642 0.6205
C74 C 0.3981(2) 0.4010(4) 0.65012(19)
H49 H 0.3911 0.3418 0.6561
C75 C 0.37901(18) 0.4738(4) 0.66263(18)
C76 C 0.3912(2) 0.5587(5) 0.6541(2)
H50 H 0.3795 0.6102 0.6631
C77 C 0.4203(2) 0.5680(5) 0.6327(2)
H51 H 0.4281 0.6266 0.6267
N26 N 0.30437(17) 0.6839(4) 0.82065(16)
C78 C 0.2744(2) 0.6220(5) 0.8072(2)
H52 H 0.2522 0.6170 0.8198
C79 C 0.2741(2) 0.5650(5) 0.7760(2)
H53 H 0.2521 0.5220 0.7672
C80 C 0.3065(2) 0.5719(4) 0.75768(19)
C81 C 0.3372(3) 0.6372(7) 0.7713(3)
H54 H 0.3594 0.6447 0.7589
C82 C 0.3352(3) 0.6907(7) 0.8026(3)
H55 H 0.3567 0.7343 0.8119
N27 N 0.21590(15) 0.1423(4) 0.67015(15)
C83 C 0.21470(19) 0.1974(5) 0.70042(18)
H56 H 0.1966 0.1828 0.7167
C84 C 0.2391(2) 0.2751(5) 0.70866(18)
H57 H 0.2376 0.3128 0.7302
C85 C 0.26574(18) 0.2972(4) 0.68518(17)
C86 C 0.2667(2) 0.2397(5) 0.6538(2)
H58 H 0.2844 0.2527 0.6371
C87 C 0.2416(2) 0.1634(5) 0.6475(2)
H59 H 0.2426 0.1246 0.6262
C88 C 0.34608(18) 0.4606(4) 0.68381(17)
N28 N 0.34123(16) 0.5236(4) 0.70886(15)
C89 C 0.31019(19) 0.5091(4) 0.72564(18)
N29 N 0.28311(16) 0.4396(4) 0.71783(15)
C90 C 0.29204(18) 0.3794(4) 0.69315(17)
N30 N 0.32383(16) 0.3839(4) 0.67598(15)
N31 N 0.35251(17) 0.7061(4) 0.91323(16)
C91 C 0.3820(3) 0.7545(5) 0.9394(3)
H60 H 0.3819 0.8178 0.9365
C92 C 0.4123(3) 0.7156(5) 0.9703(3)
H61 H 0.4332 0.7514 0.9879
C93 C 0.41171(19) 0.6235(5) 0.9752(2)
C94 C 0.3813(2) 0.5734(5) 0.9490(2)
H62 H 0.3801 0.5101 0.9518
C95 C 0.3523(2) 0.6182(5) 0.9183(2)
H63 H 0.3313 0.5838 0.9000
N32 N 0.4818(2) 0.1795(4) 1.0694(2)
C96 C 0.4499(3) 0.2120(7) 1.0411(4)
H64 H 0.4295 0.1712 1.0261
C97 C 0.4445(3) 0.3024(6) 1.0323(3)
H65 H 0.4208 0.3228 1.0119
C98 C 0.4738(2) 0.3616(5) 1.0532(2)
C99 C 0.5075(4) 0.3285(6) 1.0812(4)
H66 H 0.5290 0.3678 1.0956
C100 C 0.5105(4) 0.2376(7) 1.0886(4)
H67 H 0.5343 0.2158 1.1085
N33 N 0.61944(18) 0.7326(4) 1.11306(18)
C101 C 0.6175(3) 0.6434(5) 1.1135(3)
H68 H 0.6421 0.6106 1.1269
C102 C 0.5808(3) 0.5969(6) 1.0951(3)
H69 H 0.5804 0.5332 1.0960
C103 C 0.5452(2) 0.6431(5) 1.0755(2)
C104 C 0.5477(2) 0.7358(5) 1.0741(2)
H70 H 0.5238 0.7702 1.0603
C105 C 0.5857(2) 0.7774(5) 1.0932(2)
H71 H 0.5874 0.8409 1.0918
C106 C 0.44469(19) 0.5810(5) 1.0080(2)
N34 N 0.44052(17) 0.4932(4) 1.01520(18)
C107 C 0.4724(2) 0.4606(5) 1.0449(2)
N35 N 0.50489(18) 0.5076(4) 1.06661(18)
C108 C 0.5064(2) 0.5923(5) 1.0556(2)
N36 N 0.47707(17) 0.6334(4) 1.02644(17)
N37 N 0.30868(18) 1.1582(4) 0.31965(16)
C109 C 0.2756(2) 1.1103(5) 0.29828(19)
H72 H 0.2496 1.1132 0.3052
C110 C 0.2779(2) 1.0573(4) 0.26678(19)
H73 H 0.2541 1.0232 0.2526
C111 C 0.3153(2) 1.0542(5) 0.25591(19)
C112 C 0.3497(2) 1.1046(6) 0.2774(2)
H74 H 0.3757 1.1042 0.2705
C113 C 0.3450(2) 1.1551(6) 0.3091(2)
H75 H 0.3684 1.1891 0.3240
N38 N 0.21811(17) 0.6536(4) 0.14350(17)
C114 C 0.2219(2) 0.6882(5) 0.17970(19)
H76 H 0.2056 0.6633 0.1958
C115 C 0.2489(2) 0.7596(5) 0.19429(19)
H77 H 0.2510 0.7832 0.2200
C116 C 0.27282(19) 0.7958(4) 0.17110(18)
C117 C 0.2700(2) 0.7577(5) 0.1343(2)
H78 H 0.2868 0.7799 0.1181
C118 C 0.2424(2) 0.6866(5) 0.1214(2)
H79 H 0.2405 0.6605 0.0962
N39 N 0.44498(19) 1.0221(5) 0.11398(18)
C119 C 0.4372(3) 1.0803(6) 0.1399(3)
H80 H 0.4524 1.1352 0.1441
C120 C 0.4077(3) 1.0644(6) 0.1613(3)
H81 H 0.4033 1.1071 0.1799
C121 C 0.3851(2) 0.9852(5) 0.1547(2)
C122 C 0.3936(3) 0.9239(6) 0.1280(3)
H82 H 0.3792 0.8680 0.1234
C123 C 0.4230(3) 0.9453(6) 0.1082(3)
H83 H 0.4282 0.9035 0.0895
C124 C 0.3203(2) 0.9960(5) 0.22307(18)
N40 N 0.29330(17) 0.9270(4) 0.21278(16)
C125 C 0.30024(19) 0.8759(5) 0.18379(18)
N41 N 0.32924(17) 0.8911(4) 0.16445(16)
C126 C 0.3536(2) 0.9633(5) 0.17675(19)
N42 N 0.35106(17) 1.0164(4) 0.20640(16)
N43 N 0.11789(16) 0.6231(4) 0.10637(15)
C127 C 0.0815(2) 0.5792(5) 0.0919(2)
H84 H 0.0815 0.5155 0.0934
C128 C 0.04366(19) 0.6227(4) 0.0749(2)
H85 H 0.0183 0.5895 0.0645
C129 C 0.04332(19) 0.7155(4) 0.07335(18)
C130 C 0.0809(2) 0.7616(5) 0.0895(2)
H86 H 0.0814 0.8252 0.0899
C131 C 0.1178(2) 0.7126(5) 0.1051(2)
H87 H 0.1438 0.7438 0.1151
N44 N -0.15193(16) 0.6494(4) -0.08678(15)
C132 C -0.1182(2) 0.6030(4) -0.06511(19)
H88 H -0.1163 0.5408 -0.0702
C133 C -0.0863(2) 0.6429(5) -0.0356(2)
H89 H -0.0628 0.6087 -0.0207
C134 C -0.08917(18) 0.7336(4) -0.02809(17)
C135 C -0.1236(2) 0.7826(4) -0.05091(19)
H90 H -0.1260 0.8452 -0.0469
C136 C -0.1541(2) 0.7373(5) -0.07951(19)
H91 H -0.1778 0.7701 -0.0948
N45 N -0.02741(17) 1.1775(4) 0.06756(16)
C137 C -0.0042(2) 1.1194(5) 0.0935(2)
H92 H 0.0136 1.1417 0.1179
C138 C -0.0048(2) 1.0283(5) 0.0866(2)
H93 H 0.0126 0.9890 0.1056
C139 C -0.03146(19) 0.9948(4) 0.05127(19)
C140 C -0.0568(2) 1.0548(5) 0.02518(19)
H94 H -0.0762 1.0342 0.0014
C141 C -0.0534(2) 1.1459(4) 0.0341(2)
H95 H -0.0703 1.1870 0.0156
C142 C 0.00500(18) 0.7669(4) 0.05298(18)
N46 N -0.02369(16) 0.7259(4) 0.02357(16)
C143 C -0.05629(18) 0.7774(4) 0.00437(17)
N47 N -0.06105(16) 0.8640(3) 0.01201(15)
C144 C -0.03042(18) 0.8979(4) 0.04208(17)
N48 N 0.00261(16) 0.8519(4) 0.06430(15)
Zn1_2 Zn -0.01919(3) 1.31435(6) 0.08095(3)
Zn2_2 Zn 0.67121(3) 0.79335(6) 1.15206(3)
Zn5_2 Zn 0.17471(2) 0.03392(6) 0.65542(2)
Zn11_2 Zn 0.49022(3) 0.04434(7) 1.08388(3)
Zn12_2 Zn 0.80015(3) 0.58765(6) 0.87101(2)
N15_2 N -0.19672(18) 0.6620(4) -0.17812(15)
N27_2 N 1.21590(15) 0.1423(4) 0.67015(15)
N32_2 N 0.4818(2) 1.1795(4) 0.0694(2)
N33_2 N 0.61944(18) 0.7326(4) 0.11306(18)
N45_2 N 0.97259(17) 0.1775(4) 0.06756(16)
C145 C 0.3717(4) -0.1946(6) 0.5773(3)
C146 C 0.3237(4) -0.1940(6) 0.5643(3)
H96 H 0.3136 -0.2158 0.5362
C147 C 0.3154(3) -0.0928(5) 0.5654(2)
H97 H 0.3197 -0.0748 0.5939
C148 C 0.2742(3) -0.0530(6) 0.5413(3)
H98 H 0.2502 -0.0789 0.5496
H99 H 0.2700 -0.0654 0.5126
C149 C 0.2772(3) 0.0489(6) 0.5492(3)
H100 H 0.2780 0.0599 0.5773
H101 H 0.2514 0.0779 0.5323
C150 C 0.3165(2) 0.0930(5) 0.5407(2)
C151 C 0.3174(3) 0.1888(6) 0.5539(3)
H102 H 0.2927 0.2238 0.5435
C152 C 0.3498(3) 0.2278(6) 0.5787(3)
H103 H 0.3480 0.2893 0.5851
C153 C 0.3891(3) 0.1774(5) 0.5968(3)
C154 C 0.3916(3) 0.0812(5) 0.5861(2)
C155 C 0.3574(2) 0.0424(5) 0.5612(2)
C156 C 0.3519(3) -0.0560(5) 0.5514(2)
H104 H 0.3451 -0.0633 0.5219
C157 C 0.3052(5) -0.2529(8) 0.5911(4)
H105 H 0.3152 -0.3146 0.5903
H106 H 0.2742 -0.2516 0.5816
H107 H 0.3143 -0.2302 0.6184
C158 C 0.3102(2) 0.0956(6) 0.4949(2)
H108 H 0.2848 0.1308 0.4823
H109 H 0.3067 0.0344 0.4843
H110 H 0.3349 0.1234 0.4892
C159 C 0.4335(3) 0.0403(6) 0.6058(3)
H111 H 0.4353 0.0280 0.6338
H112 H 0.4562 0.0818 0.6042
H113 H 0.4367 -0.0159 0.5923
O1 O 0.3874(2) -0.1130(4) 0.56977(19)
O2 O 0.3949(3) -0.2538(5) 0.5924(3)
O3 O 0.4189(2) 0.2127(4) 0.6211(2)
C160 C 0.8858(3) 0.0124(6) 0.1250(3)
C161 C 0.8442(3) 0.0212(5) 0.0920(2)
H114 H 0.8200 0.0208 0.1043
C162 C 0.8442(2) -0.0666(5) 0.0699(2)
H115 H 0.8644 -0.0607 0.0531
C163 C 0.8032(2) -0.1064(6) 0.0444(2)
H116 H 0.7902 -0.0658 0.0220
H117 H 0.7829 -0.1151 0.0605
C164 C 0.8142(3) -0.1967(6) 0.0288(2)
H118 H 0.8317 -0.1857 0.0102
H119 H 0.7877 -0.2260 0.0135
C165 C 0.8385(3) -0.2620(5) 0.0622(2)
C166 C 0.8506(3) -0.3432(5) 0.0428(2)
H120 H 0.8299 -0.3694 0.0213
C167 C 0.8886(3) -0.3807(5) 0.0541(2)
H121 H 0.8938 -0.4334 0.0409
C168 C 0.9225(3) -0.3434(5) 0.0862(2)
C169 C 0.9152(3) -0.2543(5) 0.1029(2)
C170 C 0.8768(2) -0.2172(5) 0.0908(2)
C171 C 0.8638(2) -0.1294(5) 0.1045(2)
H122 H 0.8421 -0.1415 0.1191
C172 C 0.8422(3) 0.1071(6) 0.0677(3)
H123 H 0.8648 0.1065 0.0543
H124 H 0.8458 0.1591 0.0855
H125 H 0.8146 0.1109 0.0478
C173 C 0.8080(3) -0.2957(6) 0.0863(2)
H126 H 0.7842 -0.3277 0.0685
H127 H 0.7974 -0.2444 0.0982
H128 H 0.8234 -0.3363 0.1074
C174 C 0.9534(3) -0.2186(6) 0.1341(3)
H129 H 0.9598 -0.1577 0.1269
H130 H 0.9779 -0.2576 0.1356
H131 H 0.9473 -0.2173 0.1601
O4 O 0.89716(18) -0.0758(4) 0.13023(16)
O5 O 0.9077(2) 0.0697(4) 0.1441(2)
O6 O 0.9559(2) -0.3847(4) 0.0993(2)
C175 C 1.0506(3) -0.1821(7) 0.2364(3)
C176 C 1.0839(3) -0.1452(8) 0.2171(3)
H132 H 1.1007 -0.1963 0.2107
C177 C 1.1118(3) -0.0918(7) 0.2513(2)
H133 H 1.0976 -0.0334 0.2534
C178 C 1.1579(3) -0.0740(7) 0.2536(3)
H134 H 1.1600 -0.0359 0.2310
H135 H 1.1728 -0.1313 0.2522
C179 C 1.1783(3) -0.0262(7) 0.2932(3)
H136 H 1.1665 0.0351 0.2919
H137 H 1.2091 -0.0204 0.2962
C180 C 1.1719(2) -0.0742(6) 0.3306(2)
C181 C 1.1881(3) -0.0124(7) 0.3652(3)
H138 H 1.2164 0.0087 0.3701
C182 C 1.1660(3) 0.0143(7) 0.3889(3)
H139 H 1.1792 0.0513 0.4110
C183 C 1.1211(3) -0.0112(7) 0.3823(3)
C184 C 1.1034(3) -0.0765(6) 0.3506(2)
C185 C 1.1254(2) -0.0998(5) 0.3250(2)
C186 C 1.1098(2) -0.1510(6) 0.2864(2)
H140 H 1.1287 -0.2040 0.2872
C187 C 1.0631(3) -0.0940(10) 0.1787(3)
H141 H 1.0450 -0.0463 0.1844
H142 H 1.0458 -0.1354 0.1590
H143 H 1.0851 -0.0675 0.1681
C188 C 1.1998(2) -0.1604(6) 0.3394(3)
H144 H 1.2298 -0.1435 0.3466
H145 H 1.1934 -0.1987 0.3157
H146 H 1.1937 -0.1932 0.3616
C189 C 1.0591(3) -0.1089(8) 0.3497(3)
H147 H 1.0394 -0.0580 0.3443
H148 H 1.0596 -0.1354 0.3755
H149 H 1.0498 -0.1540 0.3287
O7 O 1.06623(17) -0.1818(5) 0.27652(18)
O8 O 1.0155(2) -0.2054(7) 0.2212(2)
O9 O 1.0999(3) 0.0200(6) 0.4031(2)
C190 C 0.9815(2) 0.1300(6) 0.6454(2)
C191 C 1.0230(2) 0.1299(7) 0.6785(2)
H150 H 1.0398 0.0757 0.6754
C192 C 1.0069(2) 0.1183(6) 0.7151(2)
H151 H 0.9974 0.1784 0.7221
C193 C 1.0346(3) 0.0758(8) 0.7536(3)
H152 H 1.0428 0.0142 0.7483
H153 H 1.0606 0.1117 0.7641
C194 C 1.0083(3) 0.0741(8) 0.7835(3)
H154 H 1.0048 0.1364 0.7918
H155 H 1.0243 0.0408 0.8074
C195 C 0.9634(3) 0.0307(8) 0.7679(3)
C196 C 0.9402(4) 0.0468(9) 0.7983(4)
H156 H 0.9532 0.0277 0.8247
C197 C 0.9023(4) 0.0865(9) 0.7910(4)
H157 H 0.8897 0.0954 0.8122
C198 C 0.8800(3) 0.1161(7) 0.7509(3)
C199 C 0.9009(2) 0.1033(6) 0.7189(3)
C200 C 0.9396(2) 0.0670(6) 0.7272(3)
C201 C 0.9675(2) 0.0604(6) 0.6992(2)
H158 H 0.9766 -0.0034 0.6983
C202 C 1.0491(3) 0.2126(8) 0.6774(3)
H159 H 1.0335 0.2658 0.6819
H160 H 1.0548 0.2172 0.6513
H161 H 1.0759 0.2086 0.6983
C203 C 0.9678(4) -0.0723(8) 0.7656(4)
H162 H 0.9829 -0.0956 0.7919
H163 H 0.9836 -0.0872 0.7464
H164 H 0.9395 -0.0995 0.7571
C204 C 0.8754(2) 0.1371(5) 0.6785(3)
H165 H 0.8885 0.1920 0.6718
H166 H 0.8464 0.1500 0.6793
H167 H 0.8750 0.0912 0.6583
O10 O 0.94976(16) 0.0917(4) 0.65878(17)
O11 O 0.97447(19) 0.1569(5) 0.61228(17)
O12 O 0.8458(2) 0.1545(6) 0.7450(3)
C205 C 0.3703(4) 0.6975(11) 0.2631(4)
C206 C 0.4081(4) 0.6860(10) 0.2975(3)
H168 H 0.4073 0.7327 0.3178
C207 C 0.4444(4) 0.7083(9) 0.2797(3)
H169 H 0.4505 0.6539 0.2655
C208 C 0.4860(4) 0.7463(11) 0.3037(4)
H170 H 0.5009 0.7022 0.3239
H171 H 0.4811 0.8014 0.3177
C209 C 0.5134(4) 0.7685(11) 0.2745(4)
H172 H 0.5397 0.7987 0.2897
H173 H 0.5216 0.7115 0.2641
C210 C 0.4911(4) 0.8290(9) 0.2386(4)
C211 C 0.5190(5) 0.8304(13) 0.2120(5)
H174 H 0.5465 0.8554 0.2223
C212 C 0.5092(5) 0.8000(14) 0.1748(5)
H175 H 0.5290 0.8065 0.1596
C213 C 0.4688(5) 0.7570(12) 0.1569(4)
C214 C 0.4377(3) 0.7501(9) 0.1813(3)
C215 C 0.4478(3) 0.7859(8) 0.2179(3)
C216 C 0.4233(3) 0.7779(10) 0.2485(4)
H176 H 0.4233 0.8373 0.2618
C217 C 0.4108(5) 0.5948(12) 0.3171(4)
H177 H 0.3861 0.5859 0.3273
H178 H 0.4367 0.5914 0.3392
H179 H 0.4114 0.5480 0.2976
C218 C 0.4867(5) 0.9257(11) 0.2525(5)
H180 H 0.5138 0.9572 0.2564
H181 H 0.4789 0.9245 0.2777
H182 H 0.4647 0.9571 0.2323
C219 C 0.3970(4) 0.7011(10) 0.1614(4)
H183 H 0.3992 0.6386 0.1703
H184 H 0.3921 0.7031 0.1324
H185 H 0.3733 0.7301 0.1686
O13 O 0.3798(2) 0.7460(7) 0.2340(2)
O14 O 0.3345(3) 0.6673(9) 0.2581(3)
O15 O 0.4603(4) 0.7303(10) 0.1228(3)
C220 C 1.1702(5) 0.3653(13) 0.5198(4)
H186 H 1.1845 0.4222 0.5304
H187 H 1.1404 0.3696 0.5207
C221 C 1.1910(3) 0.2905(15) 0.5459(3)
H188 H 1.1873 0.2988 0.5728
H189 H 1.2218 0.2911 0.5482
C222 C 1.1722(5) 0.1992(13) 0.5291(3)
H190 H 1.1877 0.1504 0.5462
H191 H 1.1421 0.1962 0.5292
C223 C 1.1754(4) 0.1858(15) 0.4863(4)
H192 H 1.2056 0.1823 0.4864
H193 H 1.1615 0.1289 0.4754
C224 C 1.1542(3) 0.2638(11) 0.4603(3)
H194 H 1.1585 0.2570 0.4335
H195 H 1.1233 0.2618 0.4574
C225 C 1.1713(5) 0.3541(14) 0.4772(4)
H196 H 1.2009 0.3604 0.4757
H197 H 1.1543 0.4022 0.4609
C226 C 0.8110(4) -0.1075(8) 0.2175(3)
H198 H 0.8135 -0.1022 0.2464
H199 H 0.7829 -0.0841 0.2027
C227 C 0.8148(3) -0.2048(7) 0.2069(2)
H200 H 0.7927 -0.2400 0.2146
H201 H 0.8097 -0.2101 0.1777
C228 C 0.8572(4) -0.2430(9) 0.2270(4)
H202 H 0.8585 -0.3060 0.2184
H203 H 0.8613 -0.2429 0.2562
C229 C 0.8918(3) -0.1901(11) 0.2173(3)
H204 H 0.8897 -0.1964 0.1886
H205 H 0.9196 -0.2142 0.2325
C230 C 0.8891(5) -0.0910(13) 0.2273(3)
H206 H 0.8949 -0.0841 0.2565
H207 H 0.9110 -0.0573 0.2187
C231 C 0.8460(6) -0.0519(8) 0.2072(4)
H208 H 0.8415 -0.0514 0.1780
H209 H 0.8446 0.0108 0.2162
C232 C 0.9848(4) 0.0709(11) 0.2850(5)
H210 H 0.9711 0.0191 0.2941
H211 H 1.0046 0.0984 0.3086
C233 C 1.0103(5) 0.0370(11) 0.2563(5)
H212 H 0.9913 0.0060 0.2331
H213 H 1.0326 -0.0055 0.2702
C234 C 1.0309(5) 0.1223(13) 0.2421(4)
H214 H 1.0507 0.1511 0.2654
H215 H 1.0474 0.1034 0.2235
C235 C 0.9983(6) 0.1875(10) 0.2220(5)
H216 H 0.9794 0.1601 0.1978
H217 H 1.0120 0.2406 0.2138
C236 C 0.9720(7) 0.2169(11) 0.2504(5)
H218 H 0.9906 0.2499 0.2732
H219 H 0.9494 0.2583 0.2361
C237 C 0.9520(4) 0.1372(10) 0.2661(4)
H220 H 0.9375 0.1586 0.2859
H221 H 0.9306 0.1086 0.2439
C238 C 0.8354(3) 0.3580(7) 0.0374(3)
H222 H 0.8626 0.3882 0.0386
H223 H 0.8378 0.3304 0.0637
C239 C 0.8274(4) 0.2848(7) 0.0056(3)
H224 H 0.8522 0.2440 0.0111
H225 H 0.8024 0.2492 0.0069
C240 C 0.8200(3) 0.3243(7) -0.0360(3)
H226 H 0.8132 0.2756 -0.0560
H227 H 0.8461 0.3547 -0.0383
C241 C 0.7836(3) 0.3914(7) -0.0441(2)
H228 H 0.7792 0.4173 -0.0710
H229 H 0.7572 0.3603 -0.0431
C242 C 0.7934(3) 0.4658(7) -0.0131(3)
H230 H 0.7698 0.5095 -0.0189
H231 H 0.8194 0.4978 -0.0146
C243 C 0.7998(3) 0.4278(7) 0.0287(3)
H232 H 0.7732 0.3996 0.0308
H233 H 0.8071 0.4769 0.0485
C244 C 0.6990(3) 0.8950(6) 0.5092(3)
H234 H 0.6714 0.8637 0.5034
H235 H 0.7215 0.8515 0.5218
C245 C 0.6994(4) 0.9718(8) 0.5374(3)
H236 H 0.7279 0.9996 0.5450
H237 H 0.6936 0.9485 0.5620
C246 C 0.6665(3) 1.0429(7) 0.5190(3)
H238 H 0.6377 1.0176 0.5148
H239 H 0.6694 1.0944 0.5375
C247 C 0.6722(3) 1.0750(6) 0.4796(3)
H240 H 0.6488 1.1165 0.4670
H241 H 0.6991 1.1086 0.4844
C248 C 0.6725(2) 0.9979(6) 0.4515(2)
H242 H 0.6780 1.0212 0.4268
H243 H 0.6444 0.9684 0.4442
C249 C 0.7064(2) 0.9296(6) 0.4706(3)
H244 H 0.7056 0.8789 0.4521
H245 H 0.7348 0.9578 0.4762
C250 C 0.3479(4) 1.0625(11) 0.0387(4)
H246 H 0.3457 1.0671 0.0664
H247 H 0.3784 1.0638 0.0397
C251 C 0.3285(5) 0.9713(12) 0.0206(5)
H248 H 0.3453 0.9213 0.0357
H249 H 0.2992 0.9661 0.0229
C252 C 0.3283(4) 0.9651(12) -0.0223(4)
H250 H 0.3132 0.9098 -0.0339
H251 H 0.3578 0.9607 -0.0241
C253 C 0.3071(5) 1.0452(14) -0.0460(4)
H252 H 0.2768 1.0457 -0.0465
H253 H 0.3088 1.0392 -0.0737
C254 C 0.3275(6) 1.1355(12) -0.0287(4)
H254 H 0.3573 1.1377 -0.0298
H255 H 0.3120 1.1859 -0.0447
C255 C 0.3256(6) 1.1439(13) 0.0146(4)
H256 H 0.2957 1.1464 0.0155
H257 H 0.3398 1.2000 0.0264
C256 C 0.3029(9) 0.6687(15) 0.0045(6)
H258 H 0.3284 0.6828 -0.0043
H259 H 0.2812 0.7149 -0.0065
C257 C 0.2857(6) 0.5748(14) -0.0116(6)
H260 H 0.2562 0.5695 -0.0096
H261 H 0.2845 0.5722 -0.0403
C258 C 0.3106(8) 0.4936(16) 0.0089(6)
H262 H 0.2951 0.4380 -0.0016
H263 H 0.3385 0.4917 0.0032
C259 C 0.3167(10) 0.499(2) 0.0524(7)
H264 H 0.3342 0.4477 0.0656
H265 H 0.2889 0.4952 0.0583
C260 C 0.3387(11) 0.588(2) 0.0683(7)
H266 H 0.3673 0.5886 0.0639
H267 H 0.3422 0.5911 0.0973
C261 C 0.3136(12) 0.671(2) 0.0480(7)
H268 H 0.2871 0.6752 0.0562
H269 H 0.3306 0.7251 0.0576
C262 C 0.8085(12) 0.110(2) 0.5287(12)
H270 H 0.8139 0.0629 0.5106
H271 H 0.7865 0.0864 0.5407
C263 C 0.7916(12) 0.190(3) 0.5049(13)
H272 H 0.7632 0.2002 0.5088
H273 H 0.7868 0.1718 0.4768
C264 C 0.8119(11) 0.279(2) 0.5083(10)
H274 H 0.7894 0.3253 0.5031
H275 H 0.8268 0.2844 0.4873
C265 C 0.8424(14) 0.2980(19) 0.5474(11)
H276 H 0.8308 0.3468 0.5605
H277 H 0.8691 0.3199 0.5427
C266 C 0.8523(17) 0.220(2) 0.5751(9)
H278 H 0.8819 0.2284 0.5915
H279 H 0.8341 0.2260 0.5933
C267 C 0.8488(14) 0.125(2) 0.5615(12)
H280 H 0.8491 0.0855 0.5843
H281 H 0.8735 0.1099 0.5517
C268 C 0.3523(10) 0.3146(17) 0.1962(9)
H282 H 0.3319 0.2652 0.1951
H283 H 0.3810 0.2877 0.2025
C269 C 0.3431(10) 0.357(2) 0.1554(9)
H284 H 0.3413 0.3104 0.1348
H285 H 0.3655 0.4001 0.1542
C270 C 0.3002(7) 0.405(2) 0.1491(8)
H286 H 0.2792 0.3640 0.1555
H287 H 0.2894 0.4246 0.1211
C271 C 0.3086(8) 0.4879(17) 0.1781(10)
H288 H 0.3307 0.5266 0.1721
H289 H 0.2824 0.5237 0.1737
C272 C 0.3232(12) 0.458(2) 0.2217(9)
H290 H 0.3391 0.5078 0.2378
H291 H 0.2978 0.4466 0.2311
C273 C 0.3503(11) 0.376(2) 0.2293(8)
H292 H 0.3796 0.3960 0.2421
H293 H 0.3412 0.3397 0.2492
C274 C 0.5336(7) 0.2598(16) 0.2959(7)
H294 H 0.5307 0.3043 0.2743
H295 H 0.5640 0.2453 0.3064
C275 C 0.5093(7) 0.1745(16) 0.2788(9)
H296 H 0.5198 0.1509 0.2567
H297 H 0.5134 0.1279 0.2997
C276 C 0.4624(7) 0.200(2) 0.2636(8)
H298 H 0.4454 0.1449 0.2545
H299 H 0.4582 0.2408 0.2406
C277 C 0.4470(7) 0.246(2) 0.2976(9)
H300 H 0.4164 0.2598 0.2876
H301 H 0.4508 0.2043 0.3203
C278 C 0.4712(8) 0.3328(18) 0.3119(9)
H302 H 0.4603 0.3625 0.3325
H303 H 0.4689 0.3749 0.2895
C279 C 0.5175(7) 0.302(2) 0.3294(8)
H304 H 0.5355 0.3533 0.3412
H305 H 0.5190 0.2568 0.3507
C280 C 0.6503(11) 0.5582(19) 0.2807(7)
H306 H 0.6227 0.5588 0.2601
H307 H 0.6638 0.6177 0.2806
C281 C 0.6431(9) 0.5412(17) 0.3210(6)
H308 H 0.6242 0.5875 0.3270
H309 H 0.6704 0.5428 0.3420
C282 C 0.6229(7) 0.4486(16) 0.3193(7)
H310 H 0.5952 0.4490 0.2988
H311 H 0.6175 0.4356 0.3453
C283 C 0.6505(7) 0.3741(18) 0.3095(7)
H312 H 0.6777 0.3707 0.3305
H313 H 0.6360 0.3156 0.3082
C284 C 0.6584(8) 0.395(2) 0.2700(7)
H314 H 0.6314 0.3930 0.2488
H315 H 0.6777 0.3495 0.2638
C285 C 0.6781(7) 0.487(2) 0.2709(7)
H316 H 0.7059 0.4880 0.2911
H317 H 0.6829 0.5002 0.2447
loop_
_geom_bond_atom_site_label_1
_geom_bond_atom_site_label_2
_geom_bond_site_symmetry_1
_geom_bond_site_symmetry_2
N1 Zn1 1_555 1_555
I1 Zn1 1_555 1_555
Zn1 I2 1_555 1_555
C1 N1 1_555 1_555
H1 C1 1_555 1_555
Zn2 I3 1_555 1_555
C2 C1 1_555 1_555
H2 C2 1_555 1_555
Zn3 I5 1_555 1_555
C3 C2 1_555 1_555
I4 Zn2 1_555 1_555
Zn4 I7 1_555 1_555
C4 C3 1_555 1_555
H3 C4 1_555 1_555
Zn5 I9 1_555 1_555
C5 N1 1_555 1_555
H4 C5 1_555 1_555
I6 Zn3 1_555 1_555
Zn6 I11 1_555 1_555
N2 Zn2 1_555 1_555
Zn7 I13 1_555 1_555
C6 N2 1_555 1_555
H5 C6 1_555 1_555
I8 Zn4 1_555 1_555
Zn8 I15 1_555 1_555
C7 C6 1_555 1_555
H6 C7 1_555 1_555
Zn9 I17 1_555 1_555
C8 C7 1_555 1_555
I10 Zn5 1_555 1_555
Zn10 I19 1_555 1_555
C9 C8 1_555 1_555
H7 C9 1_555 1_555
Zn11 I21 1_555 1_555
C10 N2 1_555 1_555
H8 C10 1_555 1_555
I12 Zn6 1_555 1_555
Zn12 I23 1_555 1_555
N3 Zn3 1_555 1_555
C11 N3 1_555 1_555
H9 C11 1_555 1_555
I14 Zn7 1_555 1_555
C12 C11 1_555 1_555
H10 C12 1_555 1_555
C13 C12 1_555 1_555
I16 Zn8 1_555 1_555
C14 C13 1_555 1_555
H11 C14 1_555 1_555
C15 N3 1_555 1_555
H12 C15 1_555 1_555
I18 Zn9 1_555 1_555
C16 C3 1_555 1_555
N4 C16 1_555 1_555
I20 Zn10 1_555 1_555
C17 C8 1_555 1_555
N5 C17 1_555 1_555
I22 Zn11 1_555 1_555
C18 C13 1_555 1_555
N6 C16 1_555 1_555
I24 Zn12 1_555 1_555
N7 Zn3 1_555 1_555
C19 N7 1_555 1_555
H13 C19 1_555 1_555
C20 C19 1_555 1_555
H14 C20 1_555 1_555
C21 C20 1_555 1_555
C22 C21 1_555 1_555
H15 C22 1_555 1_555
C23 N7 1_555 1_555
H16 C23 1_555 1_555
N8 Zn4 1_555 1_555
C24 N8 1_555 1_555
H17 C24 1_555 1_555
C25 C24 1_555 1_555
H18 C25 1_555 1_555
C26 C25 1_555 1_555
C27 C26 1_555 1_555
H19 C27 1_555 1_555
C28 N8 1_555 1_555
H20 C28 1_555 1_555
N9 Zn5 1_555 1_555
C29 N9 1_555 1_555
H21 C29 1_555 1_555
C30 C29 1_555 1_555
H22 C30 1_555 1_555
C31 C30 1_555 1_555
C32 C31 1_555 1_555
H23 C32 1_555 1_555
C33 N9 1_555 1_555
H24 C33 1_555 1_555
C34 C21 1_555 1_555
N10 C34 1_555 1_555
C35 C26 1_555 1_555
N11 C35 1_555 1_555
C36 C31 1_555 1_555
N12 C34 1_555 1_555
N13 Zn4 1_555 1_555
C37 N13 1_555 1_555
H25 C37 1_555 1_555
C38 C37 1_555 1_555
H26 C38 1_555 1_555
C39 C38 1_555 1_555
C40 C39 1_555 1_555
H27 C40 1_555 1_555
C41 N13 1_555 1_555
H28 C41 1_555 1_555
N14 Zn6 1_555 1_555
C42 N14 1_555 1_555
H29 C42 1_555 1_555
C43 C42 1_555 1_555
H30 C43 1_555 1_555
C44 C43 1_555 1_555
C45 C44 1_555 1_555
H31 C45 1_555 1_555
C46 N14 1_555 1_555
H32 C46 1_555 1_555
N15 C47 1_555 1_555
C47 H33 1_555 1_555
C48 C47 1_555 1_555
H34 C48 1_555 1_555
C49 C48 1_555 1_555
C50 C49 1_555 1_555
H35 C50 1_555 1_555
C51 N15 1_555 1_555
H36 C51 1_555 1_555
C52 C39 1_555 1_555
N16 C52 1_555 1_555
C53 C44 1_555 1_555
N17 C53 1_555 1_555
C54 C49 1_555 1_555
N18 C52 1_555 1_555
N19 Zn6 1_555 1_555
C55 N19 1_555 1_555
H37 C55 1_555 1_555
C56 C55 1_555 1_555
H38 C56 1_555 1_555
C57 C56 1_555 1_555
C58 C57 1_555 1_555
H39 C58 1_555 1_555
C59 N19 1_555 1_555
H40 C59 1_555 1_555
N20 Zn7 1_555 1_555
C60 N20 1_555 1_555
H41 C60 1_555 1_555
C61 C60 1_555 1_555
H42 C61 1_555 1_555
C62 C61 1_555 1_555
C63 C62 1_555 1_555
H43 C63 1_555 1_555
C64 N20 1_555 1_555
H44 C64 1_555 1_555
N21 Zn8 1_555 1_555
C65 N21 1_555 1_555
H45 C65 1_555 1_555
C66 C65 1_555 1_555
H46 C66 1_555 1_555
C67 C66 1_555 1_555
C68 C67 1_555 1_555
H47 C68 1_555 1_555
C69 N21 1_555 1_555
C70 C57 1_555 1_555
N22 C70 1_555 1_555
C71 C62 1_555 1_555
N23 C71 1_555 1_555
C72 C67 1_555 1_555
N24 C70 1_555 1_555
N25 Zn8 1_555 1_555
C73 N25 1_555 1_555
H48 C73 1_555 1_555
C74 C73 1_555 1_555
H49 C74 1_555 1_555
C75 C74 1_555 1_555
C76 C75 1_555 1_555
H50 C76 1_555 1_555
C77 N25 1_555 1_555
H51 C77 1_555 1_555
N26 Zn9 1_555 1_555
C78 N26 1_555 1_555
H52 C78 1_555 1_555
C79 C78 1_555 1_555
H53 C79 1_555 1_555
C80 C79 1_555 1_555
C81 C80 1_555 1_555
H54 C81 1_555 1_555
C82 N26 1_555 1_555
H55 C82 1_555 1_555
N27 C83 1_555 1_555
C83 H56 1_555 1_555
C84 C83 1_555 1_555
H57 C84 1_555 1_555
C85 C84 1_555 1_555
C86 C85 1_555 1_555
H58 C86 1_555 1_555
C87 N27 1_555 1_555
H59 C87 1_555 1_555
C88 C75 1_555 1_555
N28 C88 1_555 1_555
C89 C80 1_555 1_555
N29 C89 1_555 1_555
C90 C85 1_555 1_555
N30 C88 1_555 1_555
N31 Zn9 1_555 1_555
C91 N31 1_555 1_555
H60 C91 1_555 1_555
C92 C91 1_555 1_555
H61 C92 1_555 1_555
C93 C92 1_555 1_555
C94 C93 1_555 1_555
H62 C94 1_555 1_555
C95 N31 1_555 1_555
H63 C95 1_555 1_555
N32 C96 1_555 1_555
C96 H64 1_555 1_555
C97 C96 1_555 1_555
H65 C97 1_555 1_555
C98 C97 1_555 1_555
C99 C98 1_555 1_555
H66 C99 1_555 1_555
C100 N32 1_555 1_555
H67 C100 1_555 1_555
N33 C101 1_555 1_555
C101 H68 1_555 1_555
C102 C101 1_555 1_555
H69 C102 1_555 1_555
C103 C102 1_555 1_555
C104 C103 1_555 1_555
H70 C104 1_555 1_555
C105 N33 1_555 1_555
H71 C105 1_555 1_555
C106 C93 1_555 1_555
N34 C106 1_555 1_555
C107 C98 1_555 1_555
N35 C107 1_555 1_555
C108 C103 1_555 1_555
N36 C106 1_555 1_555
N37 Zn7 1_555 1_555
C109 N37 1_555 1_555
H72 C109 1_555 1_555
C110 C109 1_555 1_555
H73 C110 1_555 1_555
C111 C110 1_555 1_555
C112 C111 1_555 1_555
H74 C112 1_555 1_555
C113 N37 1_555 1_555
H75 C113 1_555 1_555
N38 Zn10 1_555 1_555
C114 N38 1_555 1_555
H76 C114 1_555 1_555
C115 C114 1_555 1_555
H77 C115 1_555 1_555
C116 C115 1_555 1_555
C117 C116 1_555 1_555
H78 C117 1_555 1_555
C118 N38 1_555 1_555
H79 C118 1_555 1_555
N39 Zn11 1_555 1_555
C119 N39 1_555 1_555
H80 C119 1_555 1_555
C120 C119 1_555 1_555
H81 C120 1_555 1_555
C121 C120 1_555 1_555
C122 C121 1_555 1_555
H82 C122 1_555 1_555
C123 N39 1_555 1_555
H83 C123 1_555 1_555
C124 C111 1_555 1_555
N40 C124 1_555 1_555
C125 C116 1_555 1_555
N41 C125 1_555 1_555
C126 C121 1_555 1_555
N42 C124 1_555 1_555
N43 Zn10 1_555 1_555
C127 N43 1_555 1_555
H84 C127 1_555 1_555
C128 C127 1_555 1_555
H85 C128 1_555 1_555
C129 C128 1_555 1_555
C130 C129 1_555 1_555
H86 C130 1_555 1_555
C131 N43 1_555 1_555
H87 C131 1_555 1_555
N44 Zn12 1_555 1_555
C132 N44 1_555 1_555
H88 C132 1_555 1_555
C133 C132 1_555 1_555
H89 C133 1_555 1_555
C134 C133 1_555 1_555
C135 C134 1_555 1_555
H90 C135 1_555 1_555
C136 N44 1_555 1_555
H91 C136 1_555 1_555
N45 C137 1_555 1_555
C137 H92 1_555 1_555
C138 C137 1_555 1_555
H93 C138 1_555 1_555
C139 C138 1_555 1_555
C140 C139 1_555 1_555
H94 C140 1_555 1_555
C141 N45 1_555 1_555
H95 C141 1_555 1_555
C142 C129 1_555 1_555
N46 C142 1_555 1_555
C143 C134 1_555 1_555
N47 C143 1_555 1_555
C144 C139 1_555 1_555
N48 C142 1_555 1_555
C145 C146 1_555 1_555
C146 H96 1_555 1_555
C147 C146 1_555 1_555
H97 C147 1_555 1_555
C148 C147 1_555 1_555
H98 C148 1_555 1_555
H99 C148 1_555 1_555
C149 C148 1_555 1_555
H100 C149 1_555 1_555
H101 C149 1_555 1_555
C150 C149 1_555 1_555
C151 C150 1_555 1_555
H102 C151 1_555 1_555
C152 C151 1_555 1_555
H103 C152 1_555 1_555
C153 C152 1_555 1_555
C154 C153 1_555 1_555
C155 C150 1_555 1_555
C156 C147 1_555 1_555
H104 C156 1_555 1_555
C157 C146 1_555 1_555
H105 C157 1_555 1_555
H106 C157 1_555 1_555
H107 C157 1_555 1_555
C158 C150 1_555 1_555
H108 C158 1_555 1_555
H109 C158 1_555 1_555
H110 C158 1_555 1_555
C159 C154 1_555 1_555
H111 C159 1_555 1_555
H112 C159 1_555 1_555
H113 C159 1_555 1_555
O1 C145 1_555 1_555
O2 C145 1_555 1_555
O3 C153 1_555 1_555
C160 C161 1_555 1_555
C161 H114 1_555 1_555
C162 C161 1_555 1_555
H115 C162 1_555 1_555
C163 C162 1_555 1_555
H116 C163 1_555 1_555
H117 C163 1_555 1_555
C164 C163 1_555 1_555
H118 C164 1_555 1_555
H119 C164 1_555 1_555
C165 C164 1_555 1_555
C166 C165 1_555 1_555
H120 C166 1_555 1_555
C167 C166 1_555 1_555
H121 C167 1_555 1_555
C168 C167 1_555 1_555
C169 C168 1_555 1_555
C170 C165 1_555 1_555
C171 C162 1_555 1_555
H122 C171 1_555 1_555
C172 C161 1_555 1_555
H123 C172 1_555 1_555
H124 C172 1_555 1_555
H125 C172 1_555 1_555
C173 C165 1_555 1_555
H126 C173 1_555 1_555
H127 C173 1_555 1_555
H128 C173 1_555 1_555
C174 C169 1_555 1_555
H129 C174 1_555 1_555
H130 C174 1_555 1_555
H131 C174 1_555 1_555
O4 C160 1_555 1_555
O5 C160 1_555 1_555
O6 C168 1_555 1_555
C175 C176 1_555 1_555
C176 H132 1_555 1_555
C177 C176 1_555 1_555
H133 C177 1_555 1_555
C178 C177 1_555 1_555
H134 C178 1_555 1_555
H135 C178 1_555 1_555
C179 C178 1_555 1_555
H136 C179 1_555 1_555
H137 C179 1_555 1_555
C180 C179 1_555 1_555
C181 C180 1_555 1_555
H138 C181 1_555 1_555
C182 C181 1_555 1_555
H139 C182 1_555 1_555
C183 C182 1_555 1_555
C184 C183 1_555 1_555
C185 C180 1_555 1_555
C186 C177 1_555 1_555
H140 C186 1_555 1_555
C187 C176 1_555 1_555
H141 C187 1_555 1_555
H142 C187 1_555 1_555
H143 C187 1_555 1_555
C188 C180 1_555 1_555
H144 C188 1_555 1_555
H145 C188 1_555 1_555
H146 C188 1_555 1_555
C189 C184 1_555 1_555
H147 C189 1_555 1_555
H148 C189 1_555 1_555
H149 C189 1_555 1_555
O7 C175 1_555 1_555
O8 C175 1_555 1_555
O9 C183 1_555 1_555
C190 C191 1_555 1_555
C191 H150 1_555 1_555
C192 C191 1_555 1_555
H151 C192 1_555 1_555
C193 C192 1_555 1_555
H152 C193 1_555 1_555
H153 C193 1_555 1_555
C194 C193 1_555 1_555
H154 C194 1_555 1_555
H155 C194 1_555 1_555
C195 C194 1_555 1_555
C196 C195 1_555 1_555
H156 C196 1_555 1_555
C197 C196 1_555 1_555
H157 C197 1_555 1_555
C198 C197 1_555 1_555
C199 C198 1_555 1_555
C200 C195 1_555 1_555
C201 C192 1_555 1_555
H158 C201 1_555 1_555
C202 C191 1_555 1_555
H159 C202 1_555 1_555
H160 C202 1_555 1_555
H161 C202 1_555 1_555
C203 C195 1_555 1_555
H162 C203 1_555 1_555
H163 C203 1_555 1_555
H164 C203 1_555 1_555
C204 C199 1_555 1_555
H165 C204 1_555 1_555
H166 C204 1_555 1_555
H167 C204 1_555 1_555
O10 C190 1_555 1_555
O11 C190 1_555 1_555
O12 C198 1_555 1_555
C205 C206 1_555 1_555
C206 H168 1_555 1_555
C207 C206 1_555 1_555
H169 C207 1_555 1_555
C208 C207 1_555 1_555
H170 C208 1_555 1_555
H171 C208 1_555 1_555
C209 C208 1_555 1_555
H172 C209 1_555 1_555
H173 C209 1_555 1_555
C210 C209 1_555 1_555
C211 C210 1_555 1_555
H174 C211 1_555 1_555
C212 C211 1_555 1_555
H175 C212 1_555 1_555
C213 C212 1_555 1_555
C214 C213 1_555 1_555
C215 C210 1_555 1_555
C216 C207 1_555 1_555
H176 C216 1_555 1_555
C217 C206 1_555 1_555
H177 C217 1_555 1_555
H178 C217 1_555 1_555
H179 C217 1_555 1_555
C218 C210 1_555 1_555
H180 C218 1_555 1_555
H181 C218 1_555 1_555
H182 C218 1_555 1_555
C219 C214 1_555 1_555
H183 C219 1_555 1_555
H184 C219 1_555 1_555
H185 C219 1_555 1_555
O13 C205 1_555 1_555
O14 C205 1_555 1_555
O15 C213 1_555 1_555
C220 H186 1_555 1_555
H187 C220 1_555 1_555
C221 C220 1_555 1_555
H188 C221 1_555 1_555
H189 C221 1_555 1_555
C222 C221 1_555 1_555
H190 C222 1_555 1_555
H191 C222 1_555 1_555
C223 C222 1_555 1_555
H192 C223 1_555 1_555
H193 C223 1_555 1_555
C224 C223 1_555 1_555
H194 C224 1_555 1_555
H195 C224 1_555 1_555
C225 C220 1_555 1_555
H196 C225 1_555 1_555
H197 C225 1_555 1_555
C226 H198 1_555 1_555
H199 C226 1_555 1_555
C227 C226 1_555 1_555
H200 C227 1_555 1_555
H201 C227 1_555 1_555
C228 C227 1_555 1_555
H202 C228 1_555 1_555
H203 C228 1_555 1_555
C229 C228 1_555 1_555
H204 C229 1_555 1_555
H205 C229 1_555 1_555
C230 C229 1_555 1_555
H206 C230 1_555 1_555
H207 C230 1_555 1_555
C231 C226 1_555 1_555
H208 C231 1_555 1_555
H209 C231 1_555 1_555
C232 H210 1_555 1_555
H211 C232 1_555 1_555
C233 C232 1_555 1_555
H212 C233 1_555 1_555
H213 C233 1_555 1_555
C234 C233 1_555 1_555
H214 C234 1_555 1_555
H215 C234 1_555 1_555
C235 C234 1_555 1_555
H216 C235 1_555 1_555
H217 C235 1_555 1_555
C236 C235 1_555 1_555
H218 C236 1_555 1_555
H219 C236 1_555 1_555
C237 C232 1_555 1_555
H220 C237 1_555 1_555
H221 C237 1_555 1_555
C238 H222 1_555 1_555
H223 C238 1_555 1_555
C239 C238 1_555 1_555
H224 C239 1_555 1_555
H225 C239 1_555 1_555
C240 C239 1_555 1_555
H226 C240 1_555 1_555
H227 C240 1_555 1_555
C241 C240 1_555 1_555
H228 C241 1_555 1_555
H229 C241 1_555 1_555
C242 C241 1_555 1_555
H230 C242 1_555 1_555
H231 C242 1_555 1_555
C243 C238 1_555 1_555
H232 C243 1_555 1_555
H233 C243 1_555 1_555
C244 H234 1_555 1_555
H235 C244 1_555 1_555
C245 C244 1_555 1_555
H236 C245 1_555 1_555
H237 C245 1_555 1_555
C246 C245 1_555 1_555
H238 C246 1_555 1_555
H239 C246 1_555 1_555
C247 C246 1_555 1_555
H240 C247 1_555 1_555
H241 C247 1_555 1_555
C248 C247 1_555 1_555
H242 C248 1_555 1_555
H243 C248 1_555 1_555
C249 C244 1_555 1_555
H244 C249 1_555 1_555
H245 C249 1_555 1_555
C250 H246 1_555 1_555
H247 C250 1_555 1_555
C251 C250 1_555 1_555
H248 C251 1_555 1_555
H249 C251 1_555 1_555
C252 C251 1_555 1_555
H250 C252 1_555 1_555
H251 C252 1_555 1_555
C253 C252 1_555 1_555
H252 C253 1_555 1_555
H253 C253 1_555 1_555
C254 C253 1_555 1_555
H254 C254 1_555 1_555
H255 C254 1_555 1_555
C255 C250 1_555 1_555
H256 C255 1_555 1_555
H257 C255 1_555 1_555
C256 H258 1_555 1_555
H259 C256 1_555 1_555
C257 C256 1_555 1_555
H260 C257 1_555 1_555
H261 C257 1_555 1_555
C258 C257 1_555 1_555
H262 C258 1_555 1_555
H263 C258 1_555 1_555
C259 C258 1_555 1_555
H264 C259 1_555 1_555
H265 C259 1_555 1_555
C260 C259 1_555 1_555
H266 C260 1_555 1_555
H267 C260 1_555 1_555
C261 C256 1_555 1_555
H268 C261 1_555 1_555
H269 C261 1_555 1_555
C262 H270 1_555 1_555
H271 C262 1_555 1_555
C263 C262 1_555 1_555
H272 C263 1_555 1_555
H273 C263 1_555 1_555
C264 C263 1_555 1_555
H274 C264 1_555 1_555
H275 C264 1_555 1_555
C265 C264 1_555 1_555
H276 C265 1_555 1_555
H277 C265 1_555 1_555
C266 C265 1_555 1_555
H278 C266 1_555 1_555
H279 C266 1_555 1_555
C267 C262 1_555 1_555
H280 C267 1_555 1_555
H281 C267 1_555 1_555
C268 H282 1_555 1_555
H283 C268 1_555 1_555
C269 C268 1_555 1_555
H284 C269 1_555 1_555
H285 C269 1_555 1_555
C270 C269 1_555 1_555
H286 C270 1_555 1_555
H287 C270 1_555 1_555
C271 C270 1_555 1_555
H288 C271 1_555 1_555
H289 C271 1_555 1_555
C272 C271 1_555 1_555
H290 C272 1_555 1_555
H291 C272 1_555 1_555
C273 C268 1_555 1_555
H292 C273 1_555 1_555
H293 C273 1_555 1_555
C274 H294 1_555 1_555
H295 C274 1_555 1_555
C275 C274 1_555 1_555
H296 C275 1_555 1_555
H297 C275 1_555 1_555
C276 C275 1_555 1_555
H298 C276 1_555 1_555
H299 C276 1_555 1_555
C277 C276 1_555 1_555
H300 C277 1_555 1_555
H301 C277 1_555 1_555
C278 C277 1_555 1_555
H302 C278 1_555 1_555
H303 C278 1_555 1_555
C279 C274 1_555 1_555
H304 C279 1_555 1_555
H305 C279 1_555 1_555
C280 H306 1_555 1_555
H307 C280 1_555 1_555
C281 C280 1_555 1_555
H308 C281 1_555 1_555
H309 C281 1_555 1_555
C282 C281 1_555 1_555
H310 C282 1_555 1_555
H311 C282 1_555 1_555
C283 C282 1_555 1_555
H312 C283 1_555 1_555
H313 C283 1_555 1_555
C284 C283 1_555 1_555
H314 C284 1_555 1_555
H315 C284 1_555 1_555
C285 C280 1_555 1_555
H316 C285 1_555 1_555
H317 C285 1_555 1_555
Zn1_2 N45 1_555 1_555
Zn2_2 N33 1_555 1_555
Zn5_2 N27 1_555 1_555
Zn11_2 N32 1_555 1_555
Zn12_2 N15 1_555 1_555
N15_2 Zn12 1_555 1_555
N27_2 Zn5 1_555 1_555
N32_2 Zn11 1_555 1_555
N33_2 Zn2 1_555 1_555
N45_2 Zn1 1_555 1_555
C4 C5 1_555 1_555
C9 C10 1_555 1_555
C14 C15 1_555 1_555
N4 C17 1_555 1_555
N5 C18 1_555 1_555
C18 N6 1_555 1_555
C22 C23 1_555 1_555
C27 C28 1_555 1_555
C32 C33 1_555 1_555
N10 C35 1_555 1_555
N11 C36 1_555 1_555
C36 N12 1_555 1_555
C40 C41 1_555 1_555
C45 C46 1_555 1_555
C50 C51 1_555 1_555
N16 C53 1_555 1_555
N17 C54 1_555 1_555
C54 N18 1_555 1_555
C58 C59 1_555 1_555
C63 C64 1_555 1_555
C68 C69 1_555 1_555
N22 C71 1_555 1_555
N23 C72 1_555 1_555
C72 N24 1_555 1_555
C76 C77 1_555 1_555
C81 C82 1_555 1_555
C86 C87 1_555 1_555
N28 C89 1_555 1_555
N29 C90 1_555 1_555
C90 N30 1_555 1_555
C94 C95 1_555 1_555
C99 C100 1_555 1_555
C104 C105 1_555 1_555
N34 C107 1_555 1_555
N35 C108 1_555 1_555
C108 N36 1_555 1_555
C112 C113 1_555 1_555
C117 C118 1_555 1_555
C122 C123 1_555 1_555
N40 C125 1_555 1_555
N41 C126 1_555 1_555
C126 N42 1_555 1_555
C130 C131 1_555 1_555
C135 C136 1_555 1_555
C140 C141 1_555 1_555
N46 C143 1_555 1_555
N47 C144 1_555 1_555
C144 N48 1_555 1_555
C154 C155 1_555 1_555
C155 C156 1_555 1_555
C156 O1 1_555 1_555
C169 C170 1_555 1_555
C170 C171 1_555 1_555
C171 O4 1_555 1_555
C184 C185 1_555 1_555
C185 C186 1_555 1_555
C186 O7 1_555 1_555
C199 C200 1_555 1_555
C200 C201 1_555 1_555
C201 O10 1_555 1_555
C214 C215 1_555 1_555
C215 C216 1_555 1_555
C216 O13 1_555 1_555
C224 C225 1_555 1_555
C230 C231 1_555 1_555
C236 C237 1_555 1_555
C242 C243 1_555 1_555
C248 C249 1_555 1_555
C254 C255 1_555 1_555
C260 C261 1_555 1_555
C266 C267 1_555 1_555
C272 C273 1_555 1_555
C278 C279 1_555 1_555
C284 C285 1_555 1_555

#END
