
#######################################################################
#
#                 Cambridge Crystallographic Data Centre
#                                CCDC 
#
#######################################################################
#
# If this CIF has been generated from an entry in the Cambridge 
# Structural Database, then it will include bibliographic, chemical, 
# crystal, experimental, refinement or atomic coordinate data resulting 
# from the CCDC's data processing and validation procedures.
#
#######################################################################

data_LABPIQ
_chemical_formula_moiety         '(C120 H108 I12 N24 O12 Zn6)n'
_symmetry_cell_setting           triclinic
_symmetry_space_group_name_H-M   'P -1'
_symmetry_Int_Tables_number      2
_space_group_name_Hall           '-P 1'
loop_
_symmetry_equiv_pos_site_id
_symmetry_equiv_pos_as_xyz
1 x,y,z
2 -x,-y,-z
_cell_length_a                   14.8292(6)
_cell_length_b                   17.9234(7)
_cell_length_c                   29.9062(8)
_cell_angle_alpha                96.836(3)
_cell_angle_beta                 93.529(3)
_cell_angle_gamma                110.142(4)
_cell_volume                     7364.61
loop_
_atom_site_label
_atom_site_type_symbol
_atom_site_fract_x
_atom_site_fract_y
_atom_site_fract_z
Zn1 Zn 1.05321(15) 1.34642(16) 0.90657(7)
Zn2 Zn 0.72081(18) 0.75356(15) 0.56225(10)
Zn3 Zn 0.17624(18) 1.15736(18) 0.74141(9)
Zn4 Zn -0.21770(17) 0.34870(14) 0.39974(8)
Zn5 Zn 0.46039(18) 0.1741(2) 0.21640(10)
I1 I -0.20949(11) 0.46472(8) 0.35837(4)
I2 I -0.35798(8) 0.26340(8) 0.43759(5)
I3 I 0.52856(11) 0.25762(16) 0.29362(6)
I4 I 0.47792(14) 0.04063(14) 0.18856(7)
N1 N 0.9433(10) 1.2692(9) 0.8590(5)
C1 C 0.8720(14) 1.2919(12) 0.8456(6)
H1 H 0.8745 1.3442 0.8576
C2 C 0.7938(15) 1.2448(12) 0.8151(8)
H2 H 0.7407 1.2615 0.8089
C3 C 0.7953(11) 1.1709(10) 0.7932(5)
C4 C 0.8734(13) 1.1455(12) 0.8072(6)
H3 H 0.8769 1.0957 0.7942
C5 C 0.9423(12) 1.1967(13) 0.8400(6)
H4 H 0.9933 1.1801 0.8502
N2 N 0.6959(9) 0.8331(8) 0.6108(5)
C6 C 0.7580(14) 0.8675(11) 0.6489(7)
H5 H 0.8113 0.8509 0.6549
C7 C 0.7446(13) 0.9264(11) 0.6789(7)
H6 H 0.7904 0.9515 0.7048
C8 C 0.6650(11) 0.9497(10) 0.6720(6)
C9 C 0.6022(12) 0.9117(12) 0.6330(7)
H7 H 0.5467 0.9253 0.6266
C10 C 0.6198(14) 0.8550(13) 0.6038(8)
H8 H 0.5758 0.8302 0.5773
N3 N 0.2967(10) 1.1230(10) 0.7381(5)
C11 C 0.3726(17) 1.1653(16) 0.7668(10)
H9 H 0.3672 1.2042 0.7900
C12 C 0.4612(16) 1.1546(17) 0.7642(10)
H10 H 0.5151 1.1847 0.7858
C13 C 0.4690(12) 1.1006(10) 0.7303(6)
C14 C 0.3912(14) 1.0583(13) 0.7015(8)
H11 H 0.3950 1.0197 0.6777
C15 C 0.3036(15) 1.0705(16) 0.7063(8)
H12 H 0.2483 1.0395 0.6858
C16 C 0.7168(11) 1.1185(10) 0.7595(6)
N4 N 0.7256(10) 1.0551(8) 0.7351(5)
C17 C 0.6515(11) 1.0137(9) 0.7041(6)
N5 N 0.5690(9) 1.0276(9) 0.6983(5)
C18 C 0.5653(11) 1.0883(11) 0.7271(6)
N6 N 0.6372(10) 1.1401(8) 0.7565(5)
N7 N 0.5867(11) 0.6589(9) 0.5536(6)
C19 C 0.5293(12) 0.6348(10) 0.5152(6)
H13 H 0.5472 0.6612 0.4897
C20 C 0.4428(13) 0.5707(10) 0.5123(6)
H14 H 0.4016 0.5535 0.4846
C21 C 0.4156(11) 0.5315(8) 0.5488(6)
C22 C 0.4760(16) 0.5594(12) 0.5887(8)
H15 H 0.4603 0.5337 0.6146
C23 C 0.5613(16) 0.6263(15) 0.5906(8)
H16 H 0.6010 0.6485 0.6185
N8 N -0.0949(11) 0.3807(9) 0.4451(5)
C24 C -0.0091(13) 0.4419(10) 0.4418(6)
H17 H -0.0089 0.4789 0.4216
C25 C 0.0737(13) 0.4508(10) 0.4661(6)
H18 H 0.1316 0.4921 0.4616
C26 C 0.0761(12) 0.4002(10) 0.4981(6)
C27 C -0.0113(13) 0.3386(11) 0.5032(7)
H19 H -0.0136 0.3022 0.5241
C28 C -0.0951(16) 0.3333(14) 0.4757(9)
H20 H -0.1548 0.2935 0.4796
N9 N 0.1961(12) 0.2205(11) 0.6868(5)
C29 C 0.2676(16) 0.2830(13) 0.6899(7)
H21 H 0.3122 0.2977 0.7165
C30 C 0.2861(17) 0.3324(14) 0.6571(8)
H22 H 0.3405 0.3810 0.6615
C31 C 0.2214(11) 0.3089(9) 0.6160(6)
C32 C 0.1414(14) 0.2397(12) 0.6128(6)
H23 H 0.0948 0.2227 0.5869
C33 C 0.1310(14) 0.1955(13) 0.6486(6)
H24 H 0.0774 0.1467 0.6465
C34 C 0.3216(11) 0.4650(9) 0.5483(6)
N10 N 0.2483(10) 0.4626(8) 0.5206(5)
C35 C 0.1627(12) 0.4037(10) 0.5259(6)
N11 N 0.1532(10) 0.3527(8) 0.5542(5)
C36 C 0.2338(12) 0.3614(9) 0.5807(6)
N12 N 0.3193(10) 0.4153(8) 0.5784(5)
N13 N -0.1821(11) 0.2720(10) 0.3533(6)
C37 C -0.2493(14) 0.2069(14) 0.3290(8)
H25 H -0.3138 0.1903 0.3365
C38 C -0.2255(15) 0.1627(14) 0.2922(8)
H26 H -0.2750 0.1191 0.2739
C39 C -0.1324(11) 0.1819(11) 0.2828(6)
C40 C -0.0650(14) 0.2518(17) 0.3075(10)
H27 H -0.0003 0.2706 0.3001
C41 C -0.0915(15) 0.2927(19) 0.3419(9)
H28 H -0.0434 0.3388 0.3590
N14 N -0.3549(15) -0.1234(11) 0.0838(9)
C42 C -0.2652(17) -0.1237(13) 0.0864(10)
H29 H -0.2499 -0.1598 0.0649
C43 C -0.1913(14) -0.0720(11) 0.1201(8)
H30 H -0.1280 -0.0739 0.1219
C44 C -0.2153(14) -0.0184(14) 0.1504(7)
C45 C -0.3108(15) -0.0182(14) 0.1480(10)
H31 H -0.3283 0.0180 0.1684
C46 C -0.3777(17) -0.0729(15) 0.1146(10)
H32 H -0.4427 -0.0751 0.1132
N15 N 0.3140(10) 0.1570(11) 0.2098(6)
C47 C 0.2512(13) 0.0997(13) 0.1804(7)
H33 H 0.2738 0.0660 0.1607
C48 C 0.1530(14) 0.0867(13) 0.1768(7)
H34 H 0.1098 0.0465 0.1542
C49 C 0.1200(12) 0.1315(11) 0.2057(6)
C50 C 0.1869(13) 0.1977(13) 0.2368(7)
H35 H 0.1666 0.2331 0.2565
C51 C 0.2826(12) 0.2060(13) 0.2360(7)
H36 H 0.3293 0.2499 0.2554
C52 C -0.1035(11) 0.1377(10) 0.2454(6)
N16 N -0.0095(10) 0.1602(10) 0.2408(5)
C53 C 0.0146(13) 0.1160(11) 0.2088(5)
N17 N -0.0479(10) 0.0565(10) 0.1778(5)
C54 C -0.1424(13) 0.0401(12) 0.1843(6)
N18 N -0.1724(10) 0.0793(10) 0.2182(5)
N19 N 0.5130(11) 0.2438(14) 0.1677(6)
C55 C 0.583(2) 0.2322(18) 0.1419(12)
H37 H 0.6031 0.1884 0.1457
C56 C 0.6226(19) 0.2794(17) 0.1121(11)
H38 H 0.6745 0.2723 0.0972
C57 C 0.5882(12) 0.3387(11) 0.1030(6)
C58 C 0.5202(16) 0.3494(13) 0.1277(7)
H39 H 0.4973 0.3917 0.1232
C59 C 0.4832(19) 0.3017(14) 0.1586(8)
H40 H 0.4334 0.3105 0.1745
N20 N 0.9624(9) 0.3827(9) -0.0518(4)
C60 C 0.9385(13) 0.4466(12) -0.0553(6)
H41 H 0.9729 0.4834 -0.0741
C61 C 0.8685(13) 0.4626(11) -0.0339(6)
H42 H 0.8542 0.5094 -0.0375
C62 C 0.8182(12) 0.4097(10) -0.0067(5)
C63 C 0.8444(13) 0.3450(12) -0.0007(6)
H43 H 0.8135 0.3092 0.0193
C64 C 0.9165(11) 0.3327(11) -0.0241(5)
H44 H 0.9340 0.2874 -0.0205
N21 N 0.5771(16) 0.7060(12) 0.0249(11)
C65 C 0.563(3) 0.6695(19) 0.0612(19)
H45 H 0.5382 0.6927 0.0856
C66 C 0.582(3) 0.5966(19) 0.0663(16)
H46 H 0.5704 0.5706 0.0924
C67 C 0.6179(13) 0.5694(11) 0.0283(8)
C68 C 0.6342(16) 0.6099(12) -0.0075(8)
H47 H 0.6602 0.5907 -0.0328
C69 C 0.614(2) 0.6777(13) -0.0074(10)
H48 H 0.6268 0.7056 -0.0327
C70 C 0.6325(11) 0.3905(11) 0.0692(5)
N22 N 0.7013(9) 0.3736(9) 0.0467(5)
C71 C 0.7394(11) 0.4237(10) 0.0178(5)
N23 N 0.7134(9) 0.4852(8) 0.0093(4)
C72 C 0.6465(11) 0.4969(9) 0.0350(6)
N24 N 0.6035(10) 0.4501(8) 0.0646(5)
I5 I 1.1267(5) 1.2730(8) 0.9496(3)
I6 I 1.1401(5) 1.4744(8) 0.8668(2)
I7 I 0.7402(5) 0.8193(5) 0.4906(2)
I8 I 0.8390(4) 0.7001(3) 0.6014(2)
I9 I 0.2125(4) 1.2671(4) 0.81201(17)
I10 I 0.0215(3) 1.0425(3) 0.72232(13)
Zn6 Zn -0.4335(12) -0.1795(14) 0.0182(6)
I11 I -0.6045(5) -0.1984(9) 0.0375(8)
I12 I -0.3509(13) -0.1152(4) -0.0475(3)
Zn1_2 Zn 1.05321(15) 0.34642(16) -0.09343(7)
Zn3_2 Zn 0.17624(18) 0.15736(18) 0.74141(9)
N9_2 N 0.1961(12) 1.2205(11) 0.6868(5)
N20_2 N 0.9624(9) 1.3827(9) 0.9482(4)
N21_2 N -0.4229(16) -0.2940(12) 0.0249(11)
Zn6_2 Zn 0.5665(12) 0.8205(14) 0.0182(6)
C73 C -0.028(2) 0.558(2) 0.2803(10)
C74 C -0.0711(19) 0.622(2) 0.2976(13)
H49 H -0.1414 0.6142 0.2966
C75 C 0.004(3) 0.645(2) 0.3421(11)
H50 H -0.0084 0.6578 0.3741
C76 C 0.044(3) 0.578(2) 0.3222(12)
H51 H 0.0580 0.5375 0.3394
C77 C 0.117(3) 0.637(3) 0.2980(14)
H52 H 0.1866 0.6446 0.2991
C78 C 0.051(3) 0.617(3) 0.2561(13)
H53 H 0.0678 0.6036 0.2250
C79 C 0.004(2) 0.676(3) 0.2695(14)
H54 H -0.0086 0.7140 0.2499
C80 C 0.079(2) 0.703(2) 0.3151(12)
C81 C -0.076(2) 0.471(3) 0.2595(12)
O1 O -0.1667(19) 0.456(2) 0.2411(8)
O2 O -0.042(3) 0.421(2) 0.2565(15)
C82 C -0.220(2) 0.367(3) 0.2179(13)
H55 H -0.2853 0.3609 0.2053
H56 H -0.1842 0.3545 0.1934
H57 H -0.2240 0.3309 0.2403
C83 C 0.139(2) 0.791(3) 0.3387(13)
O3 O 0.096(2) 0.8186(19) 0.3680(13)
O4 O 0.2181(17) 0.824(2) 0.3271(12)
C84 C 0.159(4) 0.901(2) 0.3893(19)
H58 H 0.1248 0.9220 0.4119
H59 H 0.2184 0.8990 0.4041
H60 H 0.1740 0.9360 0.3659
C85 C 0.400(3) 0.525(3) 0.2863(15)
C86 C 0.446(3) 0.606(3) 0.3194(16)
H61 H 0.5130 0.6455 0.3204
C87 C 0.402(3) 0.557(3) 0.3590(15)
H62 H 0.4342 0.5621 0.3901
C88 C 0.357(4) 0.477(3) 0.3229(17)
H63 H 0.3588 0.4226 0.3270
C89 C 0.266(3) 0.496(3) 0.3136(18)
H64 H 0.1993 0.4563 0.3128
C90 C 0.304(3) 0.538(4) 0.2754(15)
H65 H 0.2679 0.5277 0.2445
C91 C 0.350(3) 0.618(3) 0.3042(17)
H66 H 0.3443 0.6699 0.2971
C92 C 0.308(3) 0.574(3) 0.3462(15)
C93 C 0.453(3) 0.490(4) 0.2528(19)
O5 O 0.548(2) 0.521(3) 0.2668(17)
O6 O 0.420(3) 0.436(3) 0.223(2)
C94 C 0.619(3) 0.501(4) 0.235(2)
H67 H 0.6850 0.5276 0.2500
H68 H 0.6031 0.4430 0.2300
H69 H 0.6124 0.5206 0.2065
C95 C 0.260(4) 0.604(4) 0.3868(15)
O7 O 0.272(5) 0.679(3) 0.3900(16)
O8 O 0.263(7) 0.572(4) 0.4201(18)
C96 C 0.213(7) 0.696(5) 0.426(3)
H70 H 0.2205 0.7532 0.4295
H71 H 0.1451 0.6630 0.4176
H72 H 0.2360 0.6840 0.4548
C97 C 0.022(5) 0.297(3) 0.1254(15)
C98 C 0.077(4) 0.362(3) 0.1689(13)
H73 H 0.0510 0.3659 0.1988
C99 C 0.104(5) 0.427(3) 0.1401(16)
H74 H 0.0967 0.4801 0.1499
C100 C 0.041(5) 0.368(3) 0.0954(15)
H75 H -0.0063 0.3773 0.0734
C101 C 0.146(5) 0.358(3) 0.0866(14)
H76 H 0.1695 0.3559 0.0560
C102 C 0.123(5) 0.288(3) 0.1143(17)
H77 H 0.1330 0.2363 0.1053
C103 C 0.174(4) 0.352(3) 0.1619(18)
H78 H 0.2172 0.3433 0.1861
C104 C 0.208(5) 0.422(4) 0.1299(18)
C105 C -0.075(7) 0.235(4) 0.1235(18)
O9 O -0.109(5) 0.205(3) 0.0805(12)
O10 O -0.106(5) 0.208(3) 0.1529(14)
C106 C -0.198(6) 0.137(5) 0.076(2)
H79 H -0.2200 0.1176 0.0436
H80 H -0.1875 0.0944 0.0905
H81 H -0.2472 0.1537 0.0903
C107 C 0.303(5) 0.487(4) 0.133(2)
O11 O 0.317(4) 0.549(3) 0.1639(17)
O12 O 0.376(4) 0.474(4) 0.114(2)
C108 C 0.420(6) 0.610(5) 0.174(4)
H82 H 0.4221 0.6538 0.1970
H83 H 0.4634 0.5835 0.1839
H84 H 0.4403 0.6317 0.1457
C109 C 0.129(9) 0.955(7) 0.491(3)
H85 H 0.1049 0.9365 0.4590
H86 H 0.1790 1.0096 0.4942
C110 C 0.046(7) 0.959(8) 0.519(3)
H87 H -0.0106 0.9081 0.5100
H88 H 0.0261 1.0038 0.5116
C111 C 0.078(8) 0.970(7) 0.570(3)
H89 H 0.0506 0.9185 0.5813
H90 H 0.0543 1.0096 0.5862
C112 C 0.189(8) 1.000(5) 0.577(3)
H91 H 0.2113 1.0161 0.6100
H92 H 0.2167 1.0479 0.5619
C113 C 0.224(9) 0.932(8) 0.558(4)
H93 H 0.2950 0.9539 0.5574
H94 H 0.2079 0.8895 0.5771
C114 C 0.175(10) 0.898(7) 0.509(4)
H95 H 0.2226 0.8905 0.4892
H96 H 0.1238 0.8445 0.5091
C109A C -0.129(9) 1.045(7) 0.509(3)
H85A H -0.1049 1.0635 0.5410
H86A H -0.1790 0.9904 0.5058
C110A C -0.046(7) 1.041(8) 0.481(3)
H87A H 0.0106 1.0919 0.4900
H88A H -0.0261 0.9962 0.4884
C111A C -0.078(8) 1.030(7) 0.430(3)
H89A H -0.0506 1.0815 0.4187
H90A H -0.0543 0.9904 0.4138
C112A C -0.189(8) 1.000(5) 0.423(3)
H91A H -0.2113 0.9839 0.3900
H92A H -0.2167 0.9521 0.4381
C113A C -0.224(9) 1.068(8) 0.442(4)
H93A H -0.2950 1.0461 0.4426
H94A H -0.2079 1.1105 0.4229
C114A C -0.175(10) 1.102(7) 0.491(4)
H95A H -0.2226 1.1095 0.5108
H96A H -0.1238 1.1555 0.4909
loop_
_geom_bond_atom_site_label_1
_geom_bond_atom_site_label_2
_geom_bond_site_symmetry_1
_geom_bond_site_symmetry_2
Zn1 N1 1_555 1_555
Zn2 N2 1_555 1_555
Zn3 N3 1_555 1_555
Zn4 I1 1_555 1_555
Zn5 I3 1_555 1_555
I2 Zn4 1_555 1_555
I4 Zn5 1_555 1_555
N1 C1 1_555 1_555
C1 H1 1_555 1_555
C2 C1 1_555 1_555
H2 C2 1_555 1_555
C3 C2 1_555 1_555
C4 C3 1_555 1_555
H3 C4 1_555 1_555
C5 N1 1_555 1_555
H4 C5 1_555 1_555
N2 C6 1_555 1_555
C6 H5 1_555 1_555
C7 C6 1_555 1_555
H6 C7 1_555 1_555
C8 C7 1_555 1_555
C9 C8 1_555 1_555
H7 C9 1_555 1_555
C10 N2 1_555 1_555
H8 C10 1_555 1_555
N3 C11 1_555 1_555
C11 H9 1_555 1_555
C12 C11 1_555 1_555
H10 C12 1_555 1_555
C13 C12 1_555 1_555
C14 C13 1_555 1_555
H11 C14 1_555 1_555
C15 N3 1_555 1_555
H12 C15 1_555 1_555
C16 C3 1_555 1_555
N4 C16 1_555 1_555
C17 C8 1_555 1_555
N5 C17 1_555 1_555
C18 C13 1_555 1_555
N6 C16 1_555 1_555
N7 Zn2 1_555 1_555
C19 N7 1_555 1_555
H13 C19 1_555 1_555
C20 C19 1_555 1_555
H14 C20 1_555 1_555
C21 C20 1_555 1_555
C22 C21 1_555 1_555
H15 C22 1_555 1_555
C23 N7 1_555 1_555
H16 C23 1_555 1_555
N8 Zn4 1_555 1_555
C24 N8 1_555 1_555
H17 C24 1_555 1_555
C25 C24 1_555 1_555
H18 C25 1_555 1_555
C26 C25 1_555 1_555
C27 C26 1_555 1_555
H19 C27 1_555 1_555
C28 N8 1_555 1_555
H20 C28 1_555 1_555
N9 C29 1_555 1_555
C29 H21 1_555 1_555
C30 C29 1_555 1_555
H22 C30 1_555 1_555
C31 C30 1_555 1_555
C32 C31 1_555 1_555
H23 C32 1_555 1_555
C33 N9 1_555 1_555
H24 C33 1_555 1_555
C34 C21 1_555 1_555
N10 C34 1_555 1_555
C35 C26 1_555 1_555
N11 C35 1_555 1_555
C36 C31 1_555 1_555
N12 C34 1_555 1_555
N13 Zn4 1_555 1_555
C37 N13 1_555 1_555
H25 C37 1_555 1_555
C38 C37 1_555 1_555
H26 C38 1_555 1_555
C39 C38 1_555 1_555
C40 C39 1_555 1_555
H27 C40 1_555 1_555
C41 N13 1_555 1_555
H28 C41 1_555 1_555
N14 C42 1_555 1_555
C42 H29 1_555 1_555
C43 C42 1_555 1_555
H30 C43 1_555 1_555
C44 C43 1_555 1_555
C45 C44 1_555 1_555
H31 C45 1_555 1_555
C46 N14 1_555 1_555
H32 C46 1_555 1_555
N15 Zn5 1_555 1_555
C47 N15 1_555 1_555
H33 C47 1_555 1_555
C48 C47 1_555 1_555
H34 C48 1_555 1_555
C49 C48 1_555 1_555
C50 C49 1_555 1_555
H35 C50 1_555 1_555
C51 N15 1_555 1_555
H36 C51 1_555 1_555
C52 C39 1_555 1_555
N16 C52 1_555 1_555
C53 C49 1_555 1_555
N17 C53 1_555 1_555
C54 C44 1_555 1_555
N18 C52 1_555 1_555
N19 Zn5 1_555 1_555
C55 N19 1_555 1_555
H37 C55 1_555 1_555
C56 C55 1_555 1_555
H38 C56 1_555 1_555
C57 C56 1_555 1_555
C58 C57 1_555 1_555
H39 C58 1_555 1_555
C59 N19 1_555 1_555
H40 C59 1_555 1_555
N20 C60 1_555 1_555
C60 H41 1_555 1_555
C61 C60 1_555 1_555
H42 C61 1_555 1_555
C62 C61 1_555 1_555
C63 C62 1_555 1_555
H43 C63 1_555 1_555
C64 N20 1_555 1_555
H44 C64 1_555 1_555
N21 C65 1_555 1_555
C65 H45 1_555 1_555
C66 C65 1_555 1_555
H46 C66 1_555 1_555
C67 C66 1_555 1_555
C68 C67 1_555 1_555
H47 C68 1_555 1_555
C69 N21 1_555 1_555
H48 C69 1_555 1_555
C70 C57 1_555 1_555
N22 C70 1_555 1_555
C71 C62 1_555 1_555
N23 C71 1_555 1_555
C72 C67 1_555 1_555
N24 C70 1_555 1_555
I5 Zn1 1_555 1_555
I6 Zn1 1_555 1_555
I7 Zn2 1_555 1_555
I8 Zn2 1_555 1_555
I9 Zn3 1_555 1_555
I10 Zn3 1_555 1_555
Zn6 N14 1_555 1_555
I11 Zn6 1_555 1_555
I12 Zn6 1_555 1_555
C73 C74 1_555 1_555
C74 H49 1_555 1_555
C75 C74 1_555 1_555
H50 C75 1_555 1_555
C76 C73 1_555 1_555
H51 C76 1_555 1_555
C77 C76 1_555 1_555
H52 C77 1_555 1_555
C78 C73 1_555 1_555
H53 C78 1_555 1_555
C79 C74 1_555 1_555
H54 C79 1_555 1_555
C80 C75 1_555 1_555
C81 C73 1_555 1_555
O1 C81 1_555 1_555
O2 C81 1_555 1_555
C82 O1 1_555 1_555
H55 C82 1_555 1_555
H56 C82 1_555 1_555
H57 C82 1_555 1_555
C83 C80 1_555 1_555
O3 C83 1_555 1_555
O4 C83 1_555 1_555
C84 O3 1_555 1_555
H58 C84 1_555 1_555
H59 C84 1_555 1_555
H60 C84 1_555 1_555
C85 C86 1_555 1_555
C86 H61 1_555 1_555
C87 C86 1_555 1_555
H62 C87 1_555 1_555
C88 C85 1_555 1_555
H63 C88 1_555 1_555
C89 C88 1_555 1_555
H64 C89 1_555 1_555
C90 C85 1_555 1_555
H65 C90 1_555 1_555
C91 C86 1_555 1_555
H66 C91 1_555 1_555
C92 C87 1_555 1_555
C93 C85 1_555 1_555
O5 C93 1_555 1_555
O6 C93 1_555 1_555
C94 O5 1_555 1_555
H67 C94 1_555 1_555
H68 C94 1_555 1_555
H69 C94 1_555 1_555
C95 C92 1_555 1_555
O7 C95 1_555 1_555
O8 C95 1_555 1_555
C96 O7 1_555 1_555
H70 C96 1_555 1_555
H71 C96 1_555 1_555
H72 C96 1_555 1_555
C97 C98 1_555 1_555
C98 H73 1_555 1_555
C99 C98 1_555 1_555
H74 C99 1_555 1_555
C100 C97 1_555 1_555
H75 C100 1_555 1_555
C101 C100 1_555 1_555
H76 C101 1_555 1_555
C102 C97 1_555 1_555
H77 C102 1_555 1_555
C103 C98 1_555 1_555
H78 C103 1_555 1_555
C104 C99 1_555 1_555
C105 C97 1_555 1_555
O9 C105 1_555 1_555
O10 C105 1_555 1_555
C106 O9 1_555 1_555
H79 C106 1_555 1_555
H80 C106 1_555 1_555
H81 C106 1_555 1_555
C107 C104 1_555 1_555
O11 C107 1_555 1_555
O12 C107 1_555 1_555
C108 O11 1_555 1_555
H82 C108 1_555 1_555
H83 C108 1_555 1_555
H84 C108 1_555 1_555
C109 H85 1_555 1_555
H86 C109 1_555 1_555
C110 C109 1_555 1_555
H87 C110 1_555 1_555
H88 C110 1_555 1_555
C111 C110 1_555 1_555
H89 C111 1_555 1_555
H90 C111 1_555 1_555
C112 C111 1_555 1_555
H91 C112 1_555 1_555
H92 C112 1_555 1_555
C113 C112 1_555 1_555
H93 C113 1_555 1_555
H94 C113 1_555 1_555
C114 C109 1_555 1_555
H95 C114 1_555 1_555
H96 C114 1_555 1_555
Zn1_2 N20 1_555 1_555
Zn3_2 N9 1_555 1_555
N9_2 Zn3 1_555 1_555
N20_2 Zn1 1_555 1_555
N21_2 Zn6 1_555 1_555
Zn6_2 N21 1_555 1_555
C109A H85A 1_555 1_555
H86A C109A 1_555 1_555
C110A C109A 1_555 1_555
H87A C110A 1_555 1_555
H88A C110A 1_555 1_555
C111A C110A 1_555 1_555
H89A C111A 1_555 1_555
H90A C111A 1_555 1_555
C112A C111A 1_555 1_555
H91A C112A 1_555 1_555
H92A C112A 1_555 1_555
C113A C112A 1_555 1_555
H93A C113A 1_555 1_555
H94A C113A 1_555 1_555
C114A C109A 1_555 1_555
H95A C114A 1_555 1_555
H96A C114A 1_555 1_555
C4 C5 1_555 1_555
C9 C10 1_555 1_555
C14 C15 1_555 1_555
N4 C17 1_555 1_555
N5 C18 1_555 1_555
C18 N6 1_555 1_555
C22 C23 1_555 1_555
C27 C28 1_555 1_555
C32 C33 1_555 1_555
N10 C35 1_555 1_555
N11 C36 1_555 1_555
C36 N12 1_555 1_555
C40 C41 1_555 1_555
C45 C46 1_555 1_555
C50 C51 1_555 1_555
N16 C53 1_555 1_555
N17 C54 1_555 1_555
C54 N18 1_555 1_555
C58 C59 1_555 1_555
C63 C64 1_555 1_555
C68 C69 1_555 1_555
N22 C71 1_555 1_555
N23 C72 1_555 1_555
C72 N24 1_555 1_555
C75 C76 1_555 1_555
C77 C78 1_555 1_555
C77 C80 1_555 1_555
C78 C79 1_555 1_555
C79 C80 1_555 1_555
C87 C88 1_555 1_555
C89 C90 1_555 1_555
C89 C92 1_555 1_555
C90 C91 1_555 1_555
C91 C92 1_555 1_555
C99 C100 1_555 1_555
C101 C102 1_555 1_555
C101 C104 1_555 1_555
C102 C103 1_555 1_555
C103 C104 1_555 1_555
C113 C114 1_555 1_555
C113A C114A 1_555 1_555

#END
