
#######################################################################
#
#                 Cambridge Crystallographic Data Centre
#                                CCDC 
#
#######################################################################
#
# If this CIF has been generated from an entry in the Cambridge 
# Structural Database, then it will include bibliographic, chemical, 
# crystal, experimental, refinement or atomic coordinate data resulting 
# from the CCDC's data processing and validation procedures.
#
#######################################################################

data_UKIQOV
_chemical_formula_moiety         '(C180 H110 Co6 Cu12 O85)n'
_symmetry_cell_setting           hexagonal
_symmetry_space_group_name_H-M   'P 63/m m c'
_symmetry_Int_Tables_number      194
_space_group_name_Hall           '-P 6c 2c'
loop_
_symmetry_equiv_pos_site_id
_symmetry_equiv_pos_as_xyz
1 x,y,z
2 x-y,x,1/2+z
3 -y,x-y,z
4 -x,-y,1/2+z
5 -x+y,-x,z
6 y,-x+y,1/2+z
7 x-y,-y,-z
8 -y,-x,1/2-z
9 -x,-x+y,-z
10 -x+y,y,1/2-z
11 y,x,-z
12 x,x-y,1/2-z
13 -x,-y,-z
14 -x+y,-x,1/2-z
15 y,-x+y,-z
16 x,y,1/2-z
17 x-y,x,-z
18 -y,x-y,1/2-z
19 -x+y,y,z
20 y,x,1/2+z
21 x,x-y,z
22 x-y,-y,1/2+z
23 -y,-x,z
24 -x,-x+y,1/2+z
_cell_length_a                   18.431(14)
_cell_length_b                   18.431(14)
_cell_length_c                   40.52(4)
_cell_angle_alpha                90
_cell_angle_beta                 90
_cell_angle_gamma                120
_cell_volume                     11920.6
loop_
_atom_site_label
_atom_site_type_symbol
_atom_site_fract_x
_atom_site_fract_y
_atom_site_fract_z
Cu1 Cu 0.52393(4) 0.04786(8) 0.52601(4)
Co1 Co 0.88374(14) -0.05813(7) 0.2500
O1 O 0.6282(3) 0.1097(3) 0.50233(15)
O2 O 0.8778(5) 0.0095(4) 0.28475(18)
O3 O 0.5715(5) 0.1429(10) 0.5666(4)
O4 O 0.5885(3) 0.0264(3) 0.45668(13)
C1 C 0.6419(5) 0.0911(5) 0.4734(3)
C2 C 0.7222(4) 0.1457(4) 0.4571(2)
C3 C 0.7779(3) 0.2221(3) 0.4714(2)
H1 H 0.7635 0.2365 0.4914
C4 C 0.7446(5) 0.1250(5) 0.42755(17)
H2 H 0.7074 0.0746 0.4174
C5 C 0.8220(3) 0.1780(3) 0.4124(3)
C6 C 0.8460(4) 0.1540(4) 0.3820(3)
C7 C 0.9168(8) 0.1973(9) 0.3694(3)
H3 H 0.9564 0.2456 0.3801
C8 C 0.9395(7) 0.1731(9) 0.3372(4)
H4 H 0.9886 0.2120 0.3268
C9 C 0.8961(3) 0.1039(3) 0.3240(3)
C10 C 0.9232(4) 0.0768(4) 0.2957(3)
Cu1B Cu 0.95214(8) 0.47607(9) 0.52601(4)
Cu1K Cu 0.52393(4) -0.52393(9) -0.02601(4)
Cu1G Cu 0.95214(8) -0.52393(4) -0.02601(4)
Cu1I Cu 0.52393(9) 0.04786(8) -0.02601(4)
Cu1G_2 Cu 0.95214(8) 0.47607(4) -0.02601(4)
Cu1D Cu 0.52393(9) -0.52393(4) 0.52601(4)
Cu1B_2 Cu 0.95214(8) -0.52393(9) 0.52601(4)
Cu1F Cu 0.47607(9) -0.04786(8) 0.47399(4)
Cu1J Cu 1.04786(8) 0.52393(4) 0.47399(4)
Cu1A Cu 0.47607(9) -0.47607(4) 0.02601(4)
Cu1E Cu 1.04786(8) -0.47607(9) 0.02601(4)
Cu1C Cu 0.47607(4) -0.04786(8) 0.02601(4)
Cu1E_2 Cu 1.04786(8) 0.52393(9) 0.02601(4)
Cu1H Cu 0.47607(4) -0.47607(9) 0.47399(4)
Cu1J_2 Cu 1.04786(8) -0.47607(4) 0.47399(4)
Cu1D_2 Cu 0.52393(9) 0.47607(4) 0.52601(4)
Cu1H_2 Cu 0.47607(4) 0.52393(9) 0.47399(4)
Cu1J_3 Cu 0.04786(8) -0.47607(4) 0.47399(4)
Cu1B_3 Cu -0.04786(8) -0.52393(9) 0.52601(4)
Cu1K_2 Cu 1.52393(4) 0.47607(9) -0.02601(4)
Cu1A_2 Cu 1.47607(9) 0.52393(4) 0.02601(4)
Cu1I_2 Cu 1.52393(9) 0.04786(8) -0.02601(4)
Cu1C_2 Cu 1.47607(4) -0.04786(8) 0.02601(4)
Cu1D_3 Cu 1.52393(9) 0.47607(4) 0.52601(4)
Cu1H_3 Cu 1.47607(4) 0.52393(9) 0.47399(4)
Cu1_2 Cu 1.52393(4) 0.04786(8) 0.52601(4)
Cu1F_2 Cu 1.47607(9) -0.04786(8) 0.47399(4)
Cu1F_3 Cu 1.47607(9) 0.95214(8) 0.47399(4)
Cu1_3 Cu 1.52393(4) 1.04786(8) 0.52601(4)
Co1D Co 1.05813(16) 0.11626(14) 0.2500
Co1B Co 1.05813(7) -0.05813(16) 0.2500
Co1E Co 0.94187(7) 0.05813(16) 0.7500
Co1A Co 0.94187(16) -0.11626(14) 0.7500
Co1B_2 Co 0.05813(7) -0.05813(16) 0.2500
Co1D_2 Co 0.05813(16) 0.11626(14) 0.2500
Co1C Co 0.11626(14) 0.05813(7) 0.7500
Co1A_2 Co -0.05813(16) -0.11626(14) 0.7500
Co1C_2 Co 1.11626(14) 0.05813(7) 0.7500
Co1B_3 Co 1.05813(7) 0.94187(16) 0.2500
Co1_2 Co 0.88374(14) 0.94187(7) 0.2500
Co1A_3 Co 0.94187(16) 0.88374(14) 0.7500
Co1C_3 Co 1.11626(14) 1.05813(7) 0.7500
O1V O 0.8903(3) 0.3718(3) 0.50233(15)
O1K O 0.6282(3) -0.4815(4) -0.00233(15)
O1Q O 0.8903(3) -0.4815(4) -0.00233(15)
O1O O 0.6282(3) 0.1097(3) -0.00233(15)
O1G O 0.8903(3) 0.3718(3) -0.00233(15)
O1T O 0.6282(3) -0.4815(4) 0.50233(15)
O1B O 0.8903(3) -0.4815(4) 0.50233(15)
O1F O 0.5185(4) -0.1097(3) 0.49767(15)
O1P O 0.5185(4) -0.3718(3) 0.49767(15)
O1R O 0.4815(4) 0.1097(3) 0.50233(15)
O1D O 0.4815(4) 0.3718(3) 0.50233(15)
O1L O 0.3718(3) -0.1097(3) 0.49767(15)
O1J O 0.1097(3) -0.3718(3) 0.49767(15)
O1M O 1.4815(4) 0.3718(3) -0.00233(15)
O1I O 1.4815(4) 0.1097(3) -0.00233(15)
O1D_2 O 1.4815(4) 0.3718(3) 0.50233(15)
O1R_2 O 1.4815(4) 0.1097(3) 0.50233(15)
O1N O 1.1097(3) 0.4815(4) 0.49767(15)
O1H O 1.3718(3) 0.4815(4) 0.49767(15)
O1B_2 O 0.8903(3) 0.5185(4) 0.50233(15)
O1T_2 O 0.6282(3) 0.5185(4) 0.50233(15)
O1J_2 O 1.1097(3) 0.6282(3) 0.49767(15)
O1L_2 O 1.3718(3) 0.8903(3) 0.49767(15)
O1M_2 O 0.4815(4) -0.6282(3) -0.00233(15)
O1G_2 O 0.8903(3) -0.6282(3) -0.00233(15)
O1I_2 O 0.4815(4) 0.1097(3) -0.00233(15)
O1Q_2 O 0.8903(3) 0.5185(4) -0.00233(15)
O1D_3 O 0.4815(4) -0.6282(3) 0.50233(15)
O1V_2 O 0.8903(3) -0.6282(3) 0.50233(15)
O1A O 0.5185(4) -0.3718(3) 0.00233(15)
O1W O 0.3718(3) -0.5185(4) 0.00233(15)
O1S O 1.1097(3) -0.3718(3) 0.00233(15)
O1E O 1.1097(3) -0.5185(4) 0.00233(15)
O2V O 0.9905(4) 0.1222(5) 0.28475(18)
O2K O 0.8778(5) -0.1317(6) 0.21525(18)
O2Q O 0.9905(4) -0.1317(6) 0.21525(18)
O2O O 0.8778(5) 0.0095(4) 0.21525(18)
O2G O 0.9905(4) 0.1222(5) 0.21525(18)
O2T O 0.8778(5) -0.1317(6) 0.28475(18)
O2B O 0.9905(4) -0.1317(6) 0.28475(18)
O2F O 0.8683(6) -0.0095(4) 0.71525(18)
O2P O 0.8683(6) -0.1222(5) 0.71525(18)
O2R O 0.1317(6) 0.0095(4) 0.28475(18)
O2D O 0.1317(6) 0.1222(5) 0.28475(18)
O2L O 0.1222(5) -0.0095(4) 0.71525(18)
O2J O 0.0095(4) -0.1222(5) 0.71525(18)
O2M O 1.1317(6) 0.1222(5) 0.21525(18)
O2I O 1.1317(6) 0.0095(4) 0.21525(18)
O2D_2 O 1.1317(6) 0.1222(5) 0.28475(18)
O2R_2 O 1.1317(6) 0.0095(4) 0.28475(18)
O2N O 1.0095(4) 0.1317(6) 0.71525(18)
O2H O 1.1222(5) 0.1317(6) 0.71525(18)
O2B_2 O 0.9905(4) 0.8683(6) 0.28475(18)
O2T_2 O 0.8778(5) 0.8683(6) 0.28475(18)
O2J_2 O 1.0095(4) 0.8778(5) 0.71525(18)
O2L_2 O 1.1222(5) 0.9905(4) 0.71525(18)
O2E O 1.0095(4) 0.1317(6) 0.78475(18)
O2U O 0.8683(6) -0.0095(4) 0.78475(18)
O2S O 1.0095(4) -0.1222(5) 0.78475(18)
O2A O 0.8683(6) -0.1222(5) 0.78475(18)
O2J_3 O 1.0095(4) -0.1222(5) 0.71525(18)
O2Q_2 O -0.0095(4) -0.1317(6) 0.21525(18)
O2I_2 O 0.1317(6) 0.0095(4) 0.21525(18)
O2B_3 O -0.0095(4) -0.1317(6) 0.28475(18)
O3V O 0.8571(10) 0.4285(5) 0.5666(4)
O3K O 0.5715(5) -0.5714(11) -0.0666(4)
O3Q O 0.8571(10) -0.5714(11) -0.0666(4)
O3O O 0.5715(5) 0.1429(10) -0.0666(4)
O3G O 0.8571(10) 0.4285(5) -0.0666(4)
O3T O 0.5715(5) -0.5714(11) 0.5666(4)
O3B O 0.8571(10) -0.5714(11) 0.5666(4)
O3F O 0.4286(11) -0.1429(10) 0.4334(4)
O3N O 1.1429(10) 0.5714(11) 0.4334(4)
O3A O 0.4286(11) -0.4285(5) 0.0666(4)
O3S O 1.1429(10) -0.4285(5) 0.0666(4)
O4V O 0.9736(3) 0.4115(3) 0.45668(13)
O4K O 0.5885(3) -0.4379(4) 0.04332(13)
O4Q O 0.9736(3) -0.4379(4) 0.04332(13)
O4O O 0.5885(3) 0.0264(3) 0.04332(13)
O4G O 0.9736(3) 0.4115(3) 0.04332(13)
O4T O 0.5885(3) -0.4379(4) 0.45668(13)
O4B O 0.9736(3) -0.4379(4) 0.45668(13)
O4F O 0.5621(4) -0.0264(3) 0.54332(13)
O4P O 0.5621(4) -0.4115(3) 0.54332(13)
O4R O 0.4379(4) 0.0264(3) 0.45668(13)
O4D O 0.4379(4) 0.4115(3) 0.45668(13)
O4L O 0.4115(3) -0.0264(3) 0.54332(13)
O4J O 0.0264(3) -0.4115(3) 0.54332(13)
O4M O 1.4379(4) 0.4115(3) 0.04332(13)
O4I O 1.4379(4) 0.0264(3) 0.04332(13)
O4D_2 O 1.4379(4) 0.4115(3) 0.45668(13)
O4R_2 O 1.4379(4) 0.0264(3) 0.45668(13)
O4N O 1.0264(3) 0.4379(4) 0.54332(13)
O4H O 1.4115(3) 0.4379(4) 0.54332(13)
O4B_2 O 0.9736(3) 0.5621(4) 0.45668(13)
O4T_2 O 0.5885(3) 0.5621(4) 0.45668(13)
O4J_2 O 1.0264(3) 0.5885(3) 0.54332(13)
O4L_2 O 1.4115(3) 0.9736(3) 0.54332(13)
O4A O 0.5621(4) -0.4115(3) -0.04332(13)
O4W O 0.4115(3) -0.5621(4) -0.04332(13)
O4S O 1.0264(3) -0.4115(3) -0.04332(13)
O4E O 1.0264(3) -0.5621(4) -0.04332(13)
O4U O 0.5621(4) -0.0264(3) -0.04332(13)
O4C O 0.4115(3) -0.0264(3) -0.04332(13)
O4E_2 O 1.0264(3) 0.4379(4) -0.04332(13)
O4S_2 O 1.0264(3) 0.5885(3) -0.04332(13)
O4H_2 O 0.4115(3) -0.5621(4) 0.54332(13)
O4J_3 O 1.0264(3) -0.4115(3) 0.54332(13)
O4N_2 O 1.0264(3) -0.5621(4) 0.54332(13)
O4M_2 O 0.4379(4) -0.5885(3) 0.04332(13)
O4G_2 O 0.9736(3) -0.5885(3) 0.04332(13)
C1V C 0.9089(5) 0.3581(5) 0.4734(3)
C1K C 0.6419(5) -0.4492(7) 0.0266(3)
C1Q C 0.9089(5) -0.4492(7) 0.0266(3)
C1O C 0.6419(5) 0.0911(5) 0.0266(3)
C1G C 0.9089(5) 0.3581(5) 0.0266(3)
C1T C 0.6419(5) -0.4492(7) 0.4734(3)
C1B C 0.9089(5) -0.4492(7) 0.4734(3)
C1F C 0.5508(7) -0.0911(5) 0.5266(3)
C1P C 0.5508(7) -0.3581(5) 0.5266(3)
C1R C 0.4492(7) 0.0911(5) 0.4734(3)
C1D C 0.4492(7) 0.3581(5) 0.4734(3)
C1L C 0.3581(5) -0.0911(5) 0.5266(3)
C1J C 0.0911(5) -0.3581(5) 0.5266(3)
C1M C 1.4492(7) 0.3581(5) 0.0266(3)
C1I C 1.4492(7) 0.0911(5) 0.0266(3)
C1D_2 C 1.4492(7) 0.3581(5) 0.4734(3)
C1R_2 C 1.4492(7) 0.0911(5) 0.4734(3)
C1N C 1.0911(5) 0.4492(7) 0.5266(3)
C1H C 1.3581(5) 0.4492(7) 0.5266(3)
C1B_2 C 0.9089(5) 0.5508(7) 0.4734(3)
C1T_2 C 0.6419(5) 0.5508(7) 0.4734(3)
C1J_2 C 1.0911(5) 0.6419(5) 0.5266(3)
C1L_2 C 1.3581(5) 0.9089(5) 0.5266(3)
C2V C 0.8543(4) 0.2778(4) 0.4571(2)
C2K C 0.7222(4) -0.4235(6) 0.0429(2)
C2Q C 0.8543(4) -0.4235(6) 0.0429(2)
C2O C 0.7222(4) 0.1457(4) 0.0429(2)
C2G C 0.8543(4) 0.2778(4) 0.0429(2)
C2T C 0.7222(4) -0.4235(6) 0.4571(2)
C2B C 0.8543(4) -0.4235(6) 0.4571(2)
C2F C 0.5765(6) -0.1457(4) 0.5429(2)
C2P C 0.5765(6) -0.2778(4) 0.5429(2)
C2R C 0.4235(6) 0.1457(4) 0.4571(2)
C2D C 0.4235(6) 0.2778(4) 0.4571(2)
C2L C 0.2778(4) -0.1457(4) 0.5429(2)
C2J C 0.1457(4) -0.2778(4) 0.5429(2)
C2M C 1.4235(6) 0.2778(4) 0.0429(2)
C2I C 1.4235(6) 0.1457(4) 0.0429(2)
C2D_2 C 1.4235(6) 0.2778(4) 0.4571(2)
C2R_2 C 1.4235(6) 0.1457(4) 0.4571(2)
C2N C 1.1457(4) 0.4235(6) 0.5429(2)
C2H C 1.2778(4) 0.4235(6) 0.5429(2)
C2B_2 C 0.8543(4) 0.5765(6) 0.4571(2)
C2T_2 C 0.7222(4) 0.5765(6) 0.4571(2)
C2J_2 C 1.1457(4) 0.7222(4) 0.5429(2)
C2L_2 C 1.2778(4) 0.8543(4) 0.5429(2)
C3K C 0.7779(3) -0.4442(4) 0.0286(2)
C3G C 0.7779(3) 0.2221(3) 0.0286(2)
C3B C 0.7779(3) -0.4442(4) 0.4714(2)
C3F C 0.5558(4) -0.2221(3) 0.5286(2)
C3D C 0.4442(4) 0.2221(3) 0.4714(2)
C3J C 0.2221(3) -0.2221(3) 0.5286(2)
C3I C 1.4442(4) 0.2221(3) 0.0286(2)
C3D_2 C 1.4442(4) 0.2221(3) 0.4714(2)
C3H C 1.2221(3) 0.4442(4) 0.5286(2)
C3B_2 C 0.7779(3) 0.5558(4) 0.4714(2)
C3J_2 C 1.2221(3) 0.7779(3) 0.5286(2)
H1K H 0.7635 -0.4730 0.0086
H1G H 0.7635 0.2365 0.0086
H1B H 0.7635 -0.4730 0.4914
H1F H 0.5270 -0.2365 0.5086
H1D H 0.4730 0.2365 0.4914
H1J H 0.2365 -0.2365 0.5086
H1I H 1.4730 0.2365 0.0086
H1D_2 H 1.4730 0.2365 0.4914
H1H H 1.2365 0.4730 0.5086
H1B_2 H 0.7635 0.5270 0.4914
H1J_2 H 1.2365 0.7635 0.5086
C4V C 0.8750(5) 0.2554(5) 0.42755(17)
C4K C 0.7446(5) -0.3804(7) 0.07245(17)
C4Q C 0.8750(5) -0.3804(7) 0.07245(17)
C4O C 0.7446(5) 0.1250(5) 0.07245(17)
C4G C 0.8750(5) 0.2554(5) 0.07245(17)
C4T C 0.7446(5) -0.3804(7) 0.42755(17)
C4B C 0.8750(5) -0.3804(7) 0.42755(17)
C4F C 0.6196(7) -0.1250(5) 0.57245(17)
C4P C 0.6196(7) -0.2554(5) 0.57245(17)
C4R C 0.3804(7) 0.1250(5) 0.42755(17)
C4D C 0.3804(7) 0.2554(5) 0.42755(17)
C4L C 0.2554(5) -0.1250(5) 0.57245(17)
C4J C 0.1250(5) -0.2554(5) 0.57245(17)
C4M C 1.3804(7) 0.2554(5) 0.07245(17)
C4I C 1.3804(7) 0.1250(5) 0.07245(17)
C4D_2 C 1.3804(7) 0.2554(5) 0.42755(17)
C4R_2 C 1.3804(7) 0.1250(5) 0.42755(17)
C4N C 1.1250(5) 0.3804(7) 0.57245(17)
C4H C 1.2554(5) 0.3804(7) 0.57245(17)
C4B_2 C 0.8750(5) 0.6196(7) 0.42755(17)
C4T_2 C 0.7446(5) 0.6196(7) 0.42755(17)
C4J_2 C 1.1250(5) 0.7446(5) 0.57245(17)
C4L_2 C 1.2554(5) 0.8750(5) 0.57245(17)
H2V H 0.9254 0.2926 0.4174
H2K H 0.7074 -0.3672 0.0826
H2Q H 0.9254 -0.3672 0.0826
H2O H 0.7074 0.0746 0.0826
H2G H 0.9254 0.2926 0.0826
H2T H 0.7074 -0.3672 0.4174
H2B H 0.9254 -0.3672 0.4174
H2F H 0.6328 -0.0746 0.5826
H2P H 0.6328 -0.2926 0.5826
H2R H 0.3672 0.0746 0.4174
H2D H 0.3672 0.2926 0.4174
H2L H 0.2926 -0.0746 0.5826
H2J H 0.0746 -0.2926 0.5826
H2M H 1.3672 0.2926 0.0826
H2I H 1.3672 0.0746 0.0826
H2D_2 H 1.3672 0.2926 0.4174
H2R_2 H 1.3672 0.0746 0.4174
H2N H 1.0746 0.3672 0.5826
H2H H 1.2926 0.3672 0.5826
H2B_2 H 0.9254 0.6328 0.4174
H2T_2 H 0.7074 0.6328 0.4174
H2J_2 H 1.0746 0.7074 0.5826
H2L_2 H 1.2926 0.9254 0.5826
C5K C 0.8220(3) -0.3560(4) 0.0876(3)
C5G C 0.8220(3) 0.1780(3) 0.0876(3)
C5B C 0.8220(3) -0.3560(4) 0.4124(3)
C5F C 0.6440(4) -0.1780(3) 0.5876(3)
C5D C 0.3560(4) 0.1780(3) 0.4124(3)
C5J C 0.1780(3) -0.1780(3) 0.5876(3)
C5I C 1.3560(4) 0.1780(3) 0.0876(3)
C5D_2 C 1.3560(4) 0.1780(3) 0.4124(3)
C5H C 1.1780(3) 0.3560(4) 0.5876(3)
C5B_2 C 0.8220(3) 0.6440(4) 0.4124(3)
C5J_2 C 1.1780(3) 0.8220(3) 0.5876(3)
C6K C 0.8460(4) -0.3080(6) 0.1180(3)
C6G C 0.8460(4) 0.1540(4) 0.1180(3)
C6B C 0.8460(4) -0.3080(6) 0.3820(3)
C6F C 0.6920(6) -0.1540(4) 0.6180(3)
C6D C 0.3080(6) 0.1540(4) 0.3820(3)
C6J C 0.1540(4) -0.1540(4) 0.6180(3)
C6I C 1.3080(6) 0.1540(4) 0.1180(3)
C6D_2 C 1.3080(6) 0.1540(4) 0.3820(3)
C6H C 1.1540(4) 0.3080(6) 0.6180(3)
C6B_2 C 0.8460(4) 0.6920(6) 0.3820(3)
C6J_2 C 1.1540(4) 0.8460(4) 0.6180(3)
C7V C 0.8027(9) 0.0832(8) 0.3694(3)
C7K C 0.9168(8) -0.2805(12) 0.1306(3)
C7Q C 0.8027(9) -0.2805(12) 0.1306(3)
C7O C 0.9168(8) 0.1973(9) 0.1306(3)
C7G C 0.8027(9) 0.0832(8) 0.1306(3)
C7T C 0.9168(8) -0.2805(12) 0.3694(3)
C7B C 0.8027(9) -0.2805(12) 0.3694(3)
C7F C 0.7195(12) -0.1973(9) 0.6306(3)
C7P C 0.7195(12) -0.0832(8) 0.6306(3)
C7R C 0.2805(12) 0.1973(9) 0.3694(3)
C7D C 0.2805(12) 0.0832(8) 0.3694(3)
C7L C 0.0832(8) -0.1973(9) 0.6306(3)
C7J C 0.1973(9) -0.0832(8) 0.6306(3)
C7M C 1.2805(12) 0.0832(8) 0.1306(3)
C7I C 1.2805(12) 0.1973(9) 0.1306(3)
C7D_2 C 1.2805(12) 0.0832(8) 0.3694(3)
C7R_2 C 1.2805(12) 0.1973(9) 0.3694(3)
C7N C 1.1973(9) 0.2805(12) 0.6306(3)
C7H C 1.0832(8) 0.2805(12) 0.6306(3)
C7B_2 C 0.8027(9) 0.7195(12) 0.3694(3)
C7T_2 C 0.9168(8) 0.7195(12) 0.3694(3)
C7J_2 C 1.1973(9) 0.9168(8) 0.6306(3)
C7L_2 C 1.0832(8) 0.8027(9) 0.6306(3)
H3V H 0.7544 0.0436 0.3801
H3K H 0.9564 -0.2892 0.1199
H3Q H 0.7544 -0.2892 0.1199
H3O H 0.9564 0.2456 0.1199
H3G H 0.7544 0.0436 0.1199
H3T H 0.9564 -0.2892 0.3801
H3B H 0.7544 -0.2892 0.3801
H3F H 0.7108 -0.2456 0.6199
H3P H 0.7108 -0.0436 0.6199
H3R H 0.2892 0.2456 0.3801
H3D H 0.2892 0.0436 0.3801
H3L H 0.0436 -0.2456 0.6199
H3J H 0.2456 -0.0436 0.6199
H3M H 1.2892 0.0436 0.1199
H3I H 1.2892 0.2456 0.1199
H3D_2 H 1.2892 0.0436 0.3801
H3R_2 H 1.2892 0.2456 0.3801
H3N H 1.2456 0.2892 0.6199
H3H H 1.0436 0.2892 0.6199
H3B_2 H 0.7544 0.7108 0.3801
H3T_2 H 0.9564 0.7108 0.3801
H3J_2 H 1.2456 0.9564 0.6199
H3L_2 H 1.0436 0.7544 0.6199
C8V C 0.8269(9) 0.0605(7) 0.3372(4)
C8K C 0.9395(7) -0.2336(11) 0.1628(4)
C8Q C 0.8269(9) -0.2336(11) 0.1628(4)
C8O C 0.9395(7) 0.1731(9) 0.1628(4)
C8G C 0.8269(9) 0.0605(7) 0.1628(4)
C8T C 0.9395(7) -0.2336(11) 0.3372(4)
C8B C 0.8269(9) -0.2336(11) 0.3372(4)
C8F C 0.7664(11) -0.1731(9) 0.6628(4)
C8P C 0.7664(11) -0.0605(7) 0.6628(4)
C8R C 0.2336(11) 0.1731(9) 0.3372(4)
C8D C 0.2336(11) 0.0605(7) 0.3372(4)
C8L C 0.0605(7) -0.1731(9) 0.6628(4)
C8J C 0.1731(9) -0.0605(7) 0.6628(4)
C8M C 1.2336(11) 0.0605(7) 0.1628(4)
C8I C 1.2336(11) 0.1731(9) 0.1628(4)
C8D_2 C 1.2336(11) 0.0605(7) 0.3372(4)
C8R_2 C 1.2336(11) 0.1731(9) 0.3372(4)
C8N C 1.1731(9) 0.2336(11) 0.6628(4)
C8H C 1.0605(7) 0.2336(11) 0.6628(4)
C8B_2 C 0.8269(9) 0.7664(11) 0.3372(4)
C8T_2 C 0.9395(7) 0.7664(11) 0.3372(4)
C8J_2 C 1.1731(9) 0.9395(7) 0.6628(4)
C8L_2 C 1.0605(7) 0.8269(9) 0.6628(4)
H4V H 0.7880 0.0114 0.3268
H4K H 0.9886 -0.2234 0.1732
H4Q H 0.7880 -0.2234 0.1732
H4O H 0.9886 0.2120 0.1732
H4G H 0.7880 0.0114 0.1732
H4T H 0.9886 -0.2234 0.3268
H4B H 0.7880 -0.2234 0.3268
H4F H 0.7766 -0.2120 0.6732
H4P H 0.7766 -0.0114 0.6732
H4R H 0.2234 0.2120 0.3268
H4D H 0.2234 0.0114 0.3268
H4L H 0.0114 -0.2120 0.6732
H4J H 0.2120 -0.0114 0.6732
H4M H 1.2234 0.0114 0.1732
H4I H 1.2234 0.2120 0.1732
H4D_2 H 1.2234 0.0114 0.3268
H4R_2 H 1.2234 0.2120 0.3268
H4N H 1.2120 0.2234 0.6732
H4H H 1.0114 0.2234 0.6732
H4B_2 H 0.7880 0.7766 0.3268
H4T_2 H 0.9886 0.7766 0.3268
H4J_2 H 1.2120 0.9886 0.6732
H4L_2 H 1.0114 0.7880 0.6732
C9K C 0.8961(3) -0.2078(4) 0.1760(3)
C9G C 0.8961(3) 0.1039(3) 0.1760(3)
C9B C 0.8961(3) -0.2078(4) 0.3240(3)
C9F C 0.7922(4) -0.1039(3) 0.6760(3)
C9D C 0.2078(4) 0.1039(3) 0.3240(3)
C9J C 0.1039(3) -0.1039(3) 0.6760(3)
C9I C 1.2078(4) 0.1039(3) 0.1760(3)
C9D_2 C 1.2078(4) 0.1039(3) 0.3240(3)
C9H C 1.1039(3) 0.2078(4) 0.6760(3)
C9B_2 C 0.8961(3) 0.7922(4) 0.3240(3)
C9J_2 C 1.1039(3) 0.8961(3) 0.6760(3)
C10K C 0.9232(4) -0.1536(6) 0.2043(3)
C10G C 0.9232(4) 0.0768(4) 0.2043(3)
C10B C 0.9232(4) -0.1536(6) 0.2957(3)
C10F C 0.8464(6) -0.0768(4) 0.7043(3)
C10D C 0.1536(6) 0.0768(4) 0.2957(3)
C10J C 0.0768(4) -0.0768(4) 0.7043(3)
C10I C 1.1536(6) 0.0768(4) 0.2043(3)
C10D_2 C 1.1536(6) 0.0768(4) 0.2957(3)
C10H C 1.0768(4) 0.1536(6) 0.7043(3)
C10B_2 C 0.9232(4) 0.8464(6) 0.2957(3)
C10J_2 C 1.0768(4) 0.9232(4) 0.7043(3)
O5 O 0.6667 0.3333 0.5737(19)
loop_
_geom_bond_atom_site_label_1
_geom_bond_atom_site_label_2
_geom_bond_site_symmetry_1
_geom_bond_site_symmetry_2
Cu1 O1 1_555 1_555
Co1 O2 1_555 1_555
O1 C1 1_555 1_555
O2 C10 1_555 1_555
O3 Cu1 1_555 1_555
O4 C1 1_555 1_555
C1 C2 1_555 1_555
C2 C3 1_555 1_555
C3 H1 1_555 1_555
C4 C2 1_555 1_555
H2 C4 1_555 1_555
C5 C4 1_555 1_555
C6 C5 1_555 1_555
C7 C6 1_555 1_555
H3 C7 1_555 1_555
C8 C7 1_555 1_555
H4 C8 1_555 1_555
C9 C8 1_555 1_555
C10 C9 1_555 1_555
Cu1B Cu1J 1_555 1_555
Cu1K Cu1A 1_555 1_555
Cu1G Cu1E 1_555 1_555
Cu1I Cu1C 1_555 1_555
Cu1G_2 Cu1E_2 1_555 1_555
Cu1D Cu1H 1_555 1_555
Cu1B_2 Cu1J_2 1_555 1_555
Cu1F Cu1 1_555 1_555
Cu1J O1N 1_555 1_555
Cu1A O1A 1_555 1_555
Cu1E O1S 1_555 1_555
Cu1C O4O 1_555 1_555
Cu1E_2 O4G 1_555 1_555
Cu1H O1P 1_555 1_555
Cu1J_2 O4B 1_555 1_555
Cu1D_2 Cu1H_2 1_555 1_555
Cu1H_2 O4D 1_555 1_555
Cu1J_3 Cu1B_3 1_555 1_555
Cu1B_3 O4J 1_555 1_555
Cu1K_2 Cu1A_2 1_555 1_555
Cu1A_2 O4M 1_555 1_555
Cu1I_2 Cu1C_2 1_555 1_555
Cu1C_2 O4I 1_555 1_555
Cu1D_3 Cu1H_3 1_555 1_555
Cu1H_3 O1H 1_555 1_555
Cu1_2 Cu1F_2 1_555 1_555
Cu1F_2 O4R_2 1_555 1_555
Cu1F_3 Cu1_3 1_555 1_555
Cu1_3 O4L_2 1_555 1_555
Co1D O2V 1_555 1_555
Co1B O2Q 1_555 1_555
Co1E O2F 1_555 1_555
Co1A O2P 1_555 1_555
Co1B_2 O2R 1_555 1_555
Co1D_2 O2D 1_555 1_555
Co1C O2L 1_555 1_555
Co1A_2 O2J 1_555 1_555
Co1C_2 O2H 1_555 1_555
Co1B_3 O2B_2 1_555 1_555
Co1_2 O2T_2 1_555 1_555
Co1A_3 O2J_2 1_555 1_555
Co1C_3 O2L_2 1_555 1_555
O1V Cu1B 1_555 1_555
O1K Cu1K 1_555 1_555
O1Q Cu1G 1_555 1_555
O1O Cu1I 1_555 1_555
O1G Cu1G_2 1_555 1_555
O1T Cu1D 1_555 1_555
O1B Cu1B_2 1_555 1_555
O1F Cu1F 1_555 1_555
O1P C1P 1_555 1_555
O1R Cu1 1_555 1_555
O1D Cu1D_2 1_555 1_555
O1L Cu1F 1_555 1_555
O1J Cu1J_3 1_555 1_555
O1M Cu1K_2 1_555 1_555
O1I Cu1I_2 1_555 1_555
O1D_2 Cu1D_3 1_555 1_555
O1R_2 Cu1_2 1_555 1_555
O1N C1N 1_555 1_555
O1H C1H 1_555 1_555
O1B_2 Cu1B 1_555 1_555
O1T_2 Cu1D_2 1_555 1_555
O1J_2 Cu1J 1_555 1_555
O1L_2 Cu1F_3 1_555 1_555
O1M_2 Cu1K 1_555 1_555
O1G_2 Cu1G 1_555 1_555
O1I_2 Cu1I 1_555 1_555
O1Q_2 Cu1G_2 1_555 1_555
O1D_3 Cu1D 1_555 1_555
O1V_2 Cu1B_2 1_555 1_555
O1W Cu1A 1_555 1_555
O1E Cu1E 1_555 1_555
O2V C10 1_555 1_555
O2K Co1 1_555 1_555
O2Q C10K 1_555 1_555
O2O Co1 1_555 1_555
O2G Co1D 1_555 1_555
O2T Co1 1_555 1_555
O2B Co1B 1_555 1_555
O2F C10F 1_555 1_555
O2P C10F 1_555 1_555
O2R C10D 1_555 1_555
O2D C10D 1_555 1_555
O2L C10J 1_555 1_555
O2J C10J 1_555 1_555
O2M Co1D 1_555 1_555
O2I Co1B 1_555 1_555
O2D_2 Co1D 1_555 1_555
O2R_2 Co1B 1_555 1_555
O2N Co1E 1_555 1_555
O2H C10H 1_555 1_555
O2B_2 C10B_2 1_555 1_555
O2T_2 C10B_2 1_555 1_555
O2J_2 C10J_2 1_555 1_555
O2L_2 C10J_2 1_555 1_555
O2E Co1E 1_555 1_555
O2U Co1E 1_555 1_555
O2S Co1A 1_555 1_555
O2A Co1A 1_555 1_555
O2J_3 Co1A 1_555 1_555
O2Q_2 Co1B_2 1_555 1_555
O2I_2 Co1B_2 1_555 1_555
O2B_3 Co1B_2 1_555 1_555
O3V Cu1B 1_555 1_555
O3K Cu1K 1_555 1_555
O3Q Cu1G 1_555 1_555
O3O Cu1I 1_555 1_555
O3G Cu1G_2 1_555 1_555
O3T Cu1D 1_555 1_555
O3B Cu1B_2 1_555 1_555
O3F Cu1F 1_555 1_555
O3N Cu1J 1_555 1_555
O3A Cu1A 1_555 1_555
O3S Cu1E 1_555 1_555
O4V Cu1J 1_555 1_555
O4K Cu1A 1_555 1_555
O4Q Cu1E 1_555 1_555
O4O C1O 1_555 1_555
O4G C1G 1_555 1_555
O4T Cu1H 1_555 1_555
O4B C1B 1_555 1_555
O4F Cu1 1_555 1_555
O4P Cu1D 1_555 1_555
O4R Cu1F 1_555 1_555
O4D C1D 1_555 1_555
O4L Cu1 1_555 1_555
O4J C1J 1_555 1_555
O4M C1M 1_555 1_555
O4I C1I 1_555 1_555
O4D_2 Cu1H_3 1_555 1_555
O4R_2 C1R_2 1_555 1_555
O4N Cu1B 1_555 1_555
O4H Cu1D_3 1_555 1_555
O4B_2 Cu1J 1_555 1_555
O4T_2 Cu1H_2 1_555 1_555
O4J_2 Cu1B 1_555 1_555
O4L_2 C1L_2 1_555 1_555
O4A Cu1K 1_555 1_555
O4W Cu1K 1_555 1_555
O4S Cu1G 1_555 1_555
O4E Cu1G 1_555 1_555
O4U Cu1I 1_555 1_555
O4C Cu1I 1_555 1_555
O4E_2 Cu1G_2 1_555 1_555
O4S_2 Cu1G_2 1_555 1_555
O4H_2 Cu1D 1_555 1_555
O4J_3 Cu1B_2 1_555 1_555
O4N_2 Cu1B_2 1_555 1_555
O4M_2 Cu1A 1_555 1_555
O4G_2 Cu1E 1_555 1_555
C1V O1V 1_555 1_555
C1K O1K 1_555 1_555
C1Q O1Q 1_555 1_555
C1O O1O 1_555 1_555
C1G O1G 1_555 1_555
C1T O1T 1_555 1_555
C1B O1B 1_555 1_555
C1F O1F 1_555 1_555
C1P O4P 1_555 1_555
C1R O1R 1_555 1_555
C1D O1D 1_555 1_555
C1L O1L 1_555 1_555
C1J O1J 1_555 1_555
C1M O1M 1_555 1_555
C1I O1I 1_555 1_555
C1D_2 O1D_2 1_555 1_555
C1R_2 O1R_2 1_555 1_555
C1N O4N 1_555 1_555
C1H O4H 1_555 1_555
C1B_2 O1B_2 1_555 1_555
C1T_2 O1T_2 1_555 1_555
C1J_2 O1J_2 1_555 1_555
C1L_2 O1L_2 1_555 1_555
C2V C3 1_555 1_555
C2K C1K 1_555 1_555
C2Q C1Q 1_555 1_555
C2O C1O 1_555 1_555
C2G C1G 1_555 1_555
C2T C1T 1_555 1_555
C2B C1B 1_555 1_555
C2F C1F 1_555 1_555
C2P C1P 1_555 1_555
C2R C1R 1_555 1_555
C2D C1D 1_555 1_555
C2L C1L 1_555 1_555
C2J C1J 1_555 1_555
C2M C1M 1_555 1_555
C2I C1I 1_555 1_555
C2D_2 C1D_2 1_555 1_555
C2R_2 C1R_2 1_555 1_555
C2N C1N 1_555 1_555
C2H C1H 1_555 1_555
C2B_2 C1B_2 1_555 1_555
C2T_2 C1T_2 1_555 1_555
C2J_2 C1J_2 1_555 1_555
C2L_2 C1L_2 1_555 1_555
C3K C2K 1_555 1_555
C3G C2O 1_555 1_555
C3B C2T 1_555 1_555
C3F C2F 1_555 1_555
C3D C2R 1_555 1_555
C3J C2L 1_555 1_555
C3I C2M 1_555 1_555
C3D_2 C2D_2 1_555 1_555
C3H C2N 1_555 1_555
C3B_2 C2B_2 1_555 1_555
C3J_2 C2J_2 1_555 1_555
H1K C3K 1_555 1_555
H1G C3G 1_555 1_555
H1B C3B 1_555 1_555
H1F C3F 1_555 1_555
H1D C3D 1_555 1_555
H1J C3J 1_555 1_555
H1I C3I 1_555 1_555
H1D_2 C3D_2 1_555 1_555
H1H C3H 1_555 1_555
H1B_2 C3B_2 1_555 1_555
H1J_2 C3J_2 1_555 1_555
C4V C5 1_555 1_555
C4K C2K 1_555 1_555
C4Q C2Q 1_555 1_555
C4O C2O 1_555 1_555
C4G C2G 1_555 1_555
C4T C2T 1_555 1_555
C4B C2B 1_555 1_555
C4F C2F 1_555 1_555
C4P C2P 1_555 1_555
C4R C2R 1_555 1_555
C4D C2D 1_555 1_555
C4L C2L 1_555 1_555
C4J C2J 1_555 1_555
C4M C2M 1_555 1_555
C4I C2I 1_555 1_555
C4D_2 C2D_2 1_555 1_555
C4R_2 C2R_2 1_555 1_555
C4N C2N 1_555 1_555
C4H C2H 1_555 1_555
C4B_2 C2B_2 1_555 1_555
C4T_2 C2T_2 1_555 1_555
C4J_2 C2J_2 1_555 1_555
C4L_2 C2L_2 1_555 1_555
H2V C4V 1_555 1_555
H2K C4K 1_555 1_555
H2Q C4Q 1_555 1_555
H2O C4O 1_555 1_555
H2G C4G 1_555 1_555
H2T C4T 1_555 1_555
H2B C4B 1_555 1_555
H2F C4F 1_555 1_555
H2P C4P 1_555 1_555
H2R C4R 1_555 1_555
H2D C4D 1_555 1_555
H2L C4L 1_555 1_555
H2J C4J 1_555 1_555
H2M C4M 1_555 1_555
H2I C4I 1_555 1_555
H2D_2 C4D_2 1_555 1_555
H2R_2 C4R_2 1_555 1_555
H2N C4N 1_555 1_555
H2H C4H 1_555 1_555
H2B_2 C4B_2 1_555 1_555
H2T_2 C4T_2 1_555 1_555
H2J_2 C4J_2 1_555 1_555
H2L_2 C4L_2 1_555 1_555
C5K C4K 1_555 1_555
C5G C4O 1_555 1_555
C5B C4T 1_555 1_555
C5F C4F 1_555 1_555
C5D C4R 1_555 1_555
C5J C4L 1_555 1_555
C5I C4M 1_555 1_555
C5D_2 C4D_2 1_555 1_555
C5H C4N 1_555 1_555
C5B_2 C4B_2 1_555 1_555
C5J_2 C4J_2 1_555 1_555
C6K C5K 1_555 1_555
C6G C5G 1_555 1_555
C6B C5B 1_555 1_555
C6F C5F 1_555 1_555
C6D C5D 1_555 1_555
C6J C5J 1_555 1_555
C6I C5I 1_555 1_555
C6D_2 C5D_2 1_555 1_555
C6H C5H 1_555 1_555
C6B_2 C5B_2 1_555 1_555
C6J_2 C5J_2 1_555 1_555
C7V C6 1_555 1_555
C7K C6K 1_555 1_555
C7Q C6K 1_555 1_555
C7O C6G 1_555 1_555
C7G C6G 1_555 1_555
C7T C6B 1_555 1_555
C7B C6B 1_555 1_555
C7F C6F 1_555 1_555
C7P C6F 1_555 1_555
C7R C6D 1_555 1_555
C7D C6D 1_555 1_555
C7L C6J 1_555 1_555
C7J C6J 1_555 1_555
C7M C6I 1_555 1_555
C7I C6I 1_555 1_555
C7D_2 C6D_2 1_555 1_555
C7R_2 C6D_2 1_555 1_555
C7N C6H 1_555 1_555
C7H C6H 1_555 1_555
C7B_2 C6B_2 1_555 1_555
C7T_2 C6B_2 1_555 1_555
C7J_2 C6J_2 1_555 1_555
C7L_2 C6J_2 1_555 1_555
H3V C7V 1_555 1_555
H3K C7K 1_555 1_555
H3Q C7Q 1_555 1_555
H3O C7O 1_555 1_555
H3G C7G 1_555 1_555
H3T C7T 1_555 1_555
H3B C7B 1_555 1_555
H3F C7F 1_555 1_555
H3P C7P 1_555 1_555
H3R C7R 1_555 1_555
H3D C7D 1_555 1_555
H3L C7L 1_555 1_555
H3J C7J 1_555 1_555
H3M C7M 1_555 1_555
H3I C7I 1_555 1_555
H3D_2 C7D_2 1_555 1_555
H3R_2 C7R_2 1_555 1_555
H3N C7N 1_555 1_555
H3H C7H 1_555 1_555
H3B_2 C7B_2 1_555 1_555
H3T_2 C7T_2 1_555 1_555
H3J_2 C7J_2 1_555 1_555
H3L_2 C7L_2 1_555 1_555
C8V C9 1_555 1_555
C8K C7K 1_555 1_555
C8Q C7Q 1_555 1_555
C8O C7O 1_555 1_555
C8G C7G 1_555 1_555
C8T C7T 1_555 1_555
C8B C7B 1_555 1_555
C8F C7F 1_555 1_555
C8P C7P 1_555 1_555
C8R C7R 1_555 1_555
C8D C7D 1_555 1_555
C8L C7L 1_555 1_555
C8J C7J 1_555 1_555
C8M C7M 1_555 1_555
C8I C7I 1_555 1_555
C8D_2 C7D_2 1_555 1_555
C8R_2 C7R_2 1_555 1_555
C8N C7N 1_555 1_555
C8H C7H 1_555 1_555
C8B_2 C7B_2 1_555 1_555
C8T_2 C7T_2 1_555 1_555
C8J_2 C7J_2 1_555 1_555
C8L_2 C7L_2 1_555 1_555
H4V C8V 1_555 1_555
H4K C8K 1_555 1_555
H4Q C8Q 1_555 1_555
H4O C8O 1_555 1_555
H4G C8G 1_555 1_555
H4T C8T 1_555 1_555
H4B C8B 1_555 1_555
H4F C8F 1_555 1_555
H4P C8P 1_555 1_555
H4R C8R 1_555 1_555
H4D C8D 1_555 1_555
H4L C8L 1_555 1_555
H4J C8J 1_555 1_555
H4M C8M 1_555 1_555
H4I C8I 1_555 1_555
H4D_2 C8D_2 1_555 1_555
H4R_2 C8R_2 1_555 1_555
H4N C8N 1_555 1_555
H4H C8H 1_555 1_555
H4B_2 C8B_2 1_555 1_555
H4T_2 C8T_2 1_555 1_555
H4J_2 C8J_2 1_555 1_555
H4L_2 C8L_2 1_555 1_555
C9K C8K 1_555 1_555
C9G C8O 1_555 1_555
C9B C8T 1_555 1_555
C9F C8F 1_555 1_555
C9D C8R 1_555 1_555
C9J C8L 1_555 1_555
C9I C8M 1_555 1_555
C9D_2 C8D_2 1_555 1_555
C9H C8N 1_555 1_555
C9B_2 C8B_2 1_555 1_555
C9J_2 C8J_2 1_555 1_555
C10K O2K 1_555 1_555
C10G O2O 1_555 1_555
C10B O2T 1_555 1_555
C10F C9F 1_555 1_555
C10D C9D 1_555 1_555
C10J C9J 1_555 1_555
C10I O2M 1_555 1_555
C10D_2 O2D_2 1_555 1_555
C10H O2N 1_555 1_555
C10B_2 C9B_2 1_555 1_555
C10J_2 C9J_2 1_555 1_555
O4 Cu1F 1_555 1_555
O2G C10G 1_555 1_555
O2B C10B 1_555 1_555
O2I C10I 1_555 1_555
O2R_2 C10D_2 1_555 1_555
O4V C1V 1_555 1_555
O4K C1K 1_555 1_555
O4Q C1Q 1_555 1_555
O4T C1T 1_555 1_555
O4F C1F 1_555 1_555
O4R C1R 1_555 1_555
O4L C1L 1_555 1_555
O4D_2 C1D_2 1_555 1_555
O4B_2 C1B_2 1_555 1_555
O4T_2 C1T_2 1_555 1_555
O4J_2 C1J_2 1_555 1_555
C1V C2V 1_555 1_555
C2V C4V 1_555 1_555
C2Q C3K 1_555 1_555
C2G C3G 1_555 1_555
C2B C3B 1_555 1_555
C2P C3F 1_555 1_555
C2D C3D 1_555 1_555
C2J C3J 1_555 1_555
C2I C3I 1_555 1_555
C2R_2 C3D_2 1_555 1_555
C2H C3H 1_555 1_555
C2T_2 C3B_2 1_555 1_555
C2L_2 C3J_2 1_555 1_555
C4Q C5K 1_555 1_555
C4G C5G 1_555 1_555
C4B C5B 1_555 1_555
C4P C5F 1_555 1_555
C4D C5D 1_555 1_555
C4J C5J 1_555 1_555
C4I C5I 1_555 1_555
C4R_2 C5D_2 1_555 1_555
C4H C5H 1_555 1_555
C4T_2 C5B_2 1_555 1_555
C4L_2 C5J_2 1_555 1_555
C7V C8V 1_555 1_555
C8Q C9K 1_555 1_555
C8G C9G 1_555 1_555
C8B C9B 1_555 1_555
C8P C9F 1_555 1_555
C8D C9D 1_555 1_555
C8J C9J 1_555 1_555
C8I C9I 1_555 1_555
C8R_2 C9D_2 1_555 1_555
C8H C9H 1_555 1_555
C8T_2 C9B_2 1_555 1_555
C8L_2 C9J_2 1_555 1_555
C9K C10K 1_555 1_555
C9G C10G 1_555 1_555
C9B C10B 1_555 1_555
C9I C10I 1_555 1_555
C9D_2 C10D_2 1_555 1_555
C9H C10H 1_555 1_555

#END
