
#######################################################################
#
#                 Cambridge Crystallographic Data Centre
#                                CCDC 
#
#######################################################################
#
# If this CIF has been generated from an entry in the Cambridge 
# Structural Database, then it will include bibliographic, chemical, 
# crystal, experimental, refinement or atomic coordinate data resulting 
# from the CCDC's data processing and validation procedures.
#
#######################################################################

data_ITIWEO
_chemical_formula_moiety         '(C48 H36 Cd1 Cl2 I5 N12 O5 2+)n'
_symmetry_cell_setting           tetragonal
_symmetry_space_group_name_H-M   'P 41 21 2'
_symmetry_Int_Tables_number      92
_space_group_name_Hall           'P 4abw 2nw'
loop_
_symmetry_equiv_pos_site_id
_symmetry_equiv_pos_as_xyz
1 x,y,z
2 -x,-y,1/2+z
3 1/2-y,1/2+x,1/4+z
4 1/2+y,1/2-x,3/4+z
5 1/2-x,1/2+y,1/4-z
6 1/2+x,1/2-y,3/4-z
7 y,x,-z
8 -y,-x,1/2-z
_cell_length_a                   15.9506(19)
_cell_length_b                   15.9506(19)
_cell_length_c                   21.125(5)
_cell_angle_alpha                90
_cell_angle_beta                 90
_cell_angle_gamma                90
_cell_volume                     5374.66
loop_
_atom_site_label
_atom_site_type_symbol
_atom_site_fract_x
_atom_site_fract_y
_atom_site_fract_z
Cl1 Cl 0.2419(6) 0.7803(5) 0.7521(8)
O1 O 0.2677(17) 0.757(2) 0.8055(10)
O2 O 0.292(4) 0.850(3) 0.731(3)
O3 O 0.1682(5) 0.8318(5) 0.7500
Cl1G Cl 0.2197(5) 0.7581(6) 0.7479(8)
O1G O 0.243(2) 0.7323(17) 0.6945(10)
O2G O 0.150(3) 0.708(4) 0.769(3)
I1 I 0.2778(13) 0.0758(6) 0.0147(14)
I2 I 0.4483(15) 0.035(2) 0.0498(16)
I3 I 0.1165(4) 0.1165(4) 0.0000
I1F I 0.0758(6) 0.2778(13) -0.0147(14)
I2F I 0.035(2) 0.4483(15) -0.0498(16)
C1 C 1.0375(9) 1.2429(11) 0.7857(7)
H1 H 1.0053 1.2376 0.8233
C2 C 1.0913(8) 1.3098(8) 0.7814(7)
H2 H 1.0951 1.3495 0.8148
C3 C 1.1401(9) 1.3182(9) 0.7275(7)
C4 C 1.1276(9) 1.2599(9) 0.6808(7)
H3 H 1.1576 1.2632 0.6420
C5 C 1.0691(9) 1.1947(8) 0.6914(6)
H4 H 1.0604 1.1547 0.6588
C6 C 1.2074(9) 1.3827(8) 0.7222(7)
C7 C 1.2081(10) 1.4546(8) 0.7611(8)
H5 H 1.1661 1.4604 0.7927
C8 C 1.2677(12) 1.5165(10) 0.7547(11)
H6 H 1.2633 1.5670 0.7782
C9 C 1.3345(10) 1.5041(9) 0.7133(8)
H7 H 1.3776 1.5451 0.7101
C10 C 1.3383(8) 1.4323(9) 0.6768(6)
C11 C 1.2750(8) 1.3723(9) 0.6816(7)
H8 H 1.2783 1.3231 0.6564
C12 C 1.4068(9) 1.4235(7) 0.6339(6)
C13 C 1.5044(8) 1.3753(8) 0.5703(6)
C14 C 1.5603(9) 1.3106(8) 0.5395(6)
C15 C 1.5420(10) 1.2797(7) 0.4804(6)
H9 H 1.4944 1.2998 0.4581
C16 C 1.5937(10) 1.2185(10) 0.4530(8)
H10 H 1.5812 1.1967 0.4123
C17 C 1.6623(9) 1.1907(10) 0.4857(7)
H11 H 1.6985 1.1503 0.4671
C18 C 1.6796(9) 1.2219(9) 0.5475(7)
C19 C 1.6301(9) 1.2861(8) 0.5714(7)
H12 H 1.6451 1.3129 0.6099
C20 C 1.7518(9) 1.1904(9) 0.5833(6)
C21 C 1.7947(8) 1.1178(9) 0.5693(7)
H13 H 1.7812 1.0871 0.5321
C22 C 1.8567(9) 1.0897(10) 0.6087(8)
H14 H 1.8852 1.0397 0.5971
C23 C 1.8469(9) 1.1994(9) 0.6720(7)
H15 H 1.8676 1.2300 0.7073
C24 C 1.7825(7) 1.2366(8) 0.6350(7)
H16 H 1.7610 1.2906 0.6448
Cd1 Cd 0.94053(5) 1.05947(5) 0.7500
N1 N 1.0275(7) 1.1870(7) 0.7426(6)
N2 N 1.4463(7) 1.4874(7) 0.6071(6)
N3 N 1.5073(6) 1.4565(7) 0.5671(5)
N4 N 1.4460(8) 1.3529(7) 0.6115(5)
N5 N 1.4240(9) 1.2717(7) 0.6310(7)
H17 H 1.4461 1.2342 0.6032
H18 H 1.4451 1.2618 0.6703
N6 N 1.8794(8) 1.1263(8) 0.6608(5)
C1_2 C 0.0375(9) 1.2429(11) 0.7857(7)
H1_2 H 0.0053 1.2376 0.8233
C2_2 C 0.0913(8) 1.3098(8) 0.7814(7)
H2_2 H 0.0951 1.3495 0.8148
C3_2 C 0.1401(9) 1.3182(9) 0.7275(7)
C4_2 C 0.1276(9) 1.2599(9) 0.6808(7)
H3_2 H 0.1576 1.2632 0.6420
C5_2 C 0.0691(9) 1.1947(8) 0.6914(6)
H4_2 H 0.0604 1.1547 0.6588
C6_2 C 0.2074(9) 1.3827(8) 0.7222(7)
C7_2 C 0.2081(10) 1.4546(8) 0.7611(8)
H5_2 H 0.1661 1.4604 0.7927
C8_2 C 0.2677(12) 1.5165(10) 0.7547(11)
H6_2 H 0.2633 1.5670 0.7782
C9_2 C 0.3345(10) 1.5041(9) 0.7133(8)
H7_2 H 0.3776 1.5451 0.7101
C10_2 C 0.3383(8) 1.4323(9) 0.6768(6)
C11_2 C 0.2750(8) 1.3723(9) 0.6816(7)
H8_2 H 0.2783 1.3231 0.6564
C12_2 C 0.4068(9) 1.4235(7) 0.6339(6)
C13_2 C 0.5044(8) 1.3753(8) 0.5703(6)
C14_2 C 0.5603(9) 1.3106(8) 0.5395(6)
C15_2 C 0.5420(10) 1.2797(7) 0.4804(6)
H9_2 H 0.4944 1.2998 0.4581
C16_2 C 0.5937(10) 1.2185(10) 0.4530(8)
H10_2 H 0.5812 1.1967 0.4123
C17_2 C 0.6623(9) 1.1907(10) 0.4857(7)
H11_2 H 0.6985 1.1503 0.4671
C18_2 C 0.6796(9) 1.2219(9) 0.5475(7)
C19_2 C 0.6301(9) 1.2861(8) 0.5714(7)
H12_2 H 0.6451 1.3129 0.6099
C20_2 C 0.7518(9) 1.1904(9) 0.5833(6)
C21_2 C 0.7947(8) 1.1178(9) 0.5693(7)
H13_2 H 0.7812 1.0871 0.5321
C22_2 C 0.8567(9) 1.0897(10) 0.6087(8)
H14_2 H 0.8852 1.0397 0.5971
C23_2 C 0.8469(9) 1.1994(9) 0.6720(7)
H15_2 H 0.8676 1.2300 0.7073
C24_2 C 0.7825(7) 1.2366(8) 0.6350(7)
H16_2 H 0.7610 1.2906 0.6448
Cd1C Cd 1.55947(5) 1.55947(5) 0.5000
Cd1_2 Cd 1.94053(5) 1.05947(5) 0.7500
Cd1_3 Cd -0.05947(5) 1.05947(5) 0.7500
Cd1C_2 Cd 0.55947(5) 1.55947(5) 0.5000
N1_2 N 0.0275(7) 1.1870(7) 0.7426(6)
N1G N 0.8130(7) 0.9725(7) 0.7574(6)
N2_2 N 0.4463(7) 1.4874(7) 0.6071(6)
N3_2 N 0.5073(6) 1.4565(7) 0.5671(5)
N3D N 0.9927(6) 0.9565(7) 0.6829(5)
N3B N 1.0435(7) 1.0073(6) 0.8171(5)
N4_2 N 0.4460(8) 1.3529(7) 0.6115(5)
N5_2 N 0.4240(9) 1.2717(7) 0.6310(7)
H17_2 H 0.4461 1.2342 0.6032
H18_2 H 0.4451 1.2618 0.6703
N6_2 N 0.8794(8) 1.1263(8) 0.6608(5)
N6G N 0.8737(8) 1.1206(8) 0.8392(5)
loop_
_geom_bond_atom_site_label_1
_geom_bond_atom_site_label_2
_geom_bond_site_symmetry_1
_geom_bond_site_symmetry_2
C1 H1 1_555 1_555
C2 C1 1_555 1_555
H2 C2 1_555 1_555
C3 C2 1_555 1_555
C4 C3 1_555 1_555
H3 C4 1_555 1_555
C5 C4 1_555 1_555
H4 C5 1_555 1_555
C6 C3 1_555 1_555
C7 C6 1_555 1_555
H5 C7 1_555 1_555
C8 C7 1_555 1_555
H6 C8 1_555 1_555
C9 C8 1_555 1_555
H7 C9 1_555 1_555
C10 C9 1_555 1_555
C11 C6 1_555 1_555
H8 C11 1_555 1_555
C12 C10 1_555 1_555
C13 C14 1_555 1_555
C14 C15 1_555 1_555
C15 H9 1_555 1_555
C16 C15 1_555 1_555
H10 C16 1_555 1_555
C17 C16 1_555 1_555
H11 C17 1_555 1_555
C18 C17 1_555 1_555
C19 C14 1_555 1_555
H12 C19 1_555 1_555
C20 C18 1_555 1_555
C21 C20 1_555 1_555
H13 C21 1_555 1_555
C22 C21 1_555 1_555
H14 C22 1_555 1_555
C23 H15 1_555 1_555
C24 C20 1_555 1_555
H16 C24 1_555 1_555
Cd1 N1 1_555 1_555
Cl1 O1 1_555 1_555
I1 I2 1_555 1_555
I3 I1 1_555 1_555
N1 C1 1_555 1_555
N2 C12 1_555 1_555
N3 C13 1_555 1_555
N4 C12 1_555 1_555
N5 N4 1_555 1_555
H17 N5 1_555 1_555
H18 N5 1_555 1_555
N6 C22 1_555 1_555
O1 Cl1G 1_555 1_555
O2 Cl1 1_555 1_555
O3 Cl1 1_555 1_555
C1_2 H1_2 1_555 1_555
C2_2 C1_2 1_555 1_555
H2_2 C2_2 1_555 1_555
C3_2 C2_2 1_555 1_555
C4_2 C3_2 1_555 1_555
H3_2 C4_2 1_555 1_555
C5_2 C4_2 1_555 1_555
H4_2 C5_2 1_555 1_555
C6_2 C3_2 1_555 1_555
C7_2 C6_2 1_555 1_555
H5_2 C7_2 1_555 1_555
C8_2 C7_2 1_555 1_555
H6_2 C8_2 1_555 1_555
C9_2 C8_2 1_555 1_555
H7_2 C9_2 1_555 1_555
C10_2 C9_2 1_555 1_555
C11_2 C6_2 1_555 1_555
H8_2 C11_2 1_555 1_555
C12_2 C10_2 1_555 1_555
C13_2 C14_2 1_555 1_555
C14_2 C15_2 1_555 1_555
C15_2 H9_2 1_555 1_555
C16_2 C15_2 1_555 1_555
H10_2 C16_2 1_555 1_555
C17_2 C16_2 1_555 1_555
H11_2 C17_2 1_555 1_555
C18_2 C17_2 1_555 1_555
C19_2 C14_2 1_555 1_555
H12_2 C19_2 1_555 1_555
C20_2 C18_2 1_555 1_555
C21_2 C20_2 1_555 1_555
H13_2 C21_2 1_555 1_555
C22_2 C21_2 1_555 1_555
H14_2 C22_2 1_555 1_555
C23_2 H15_2 1_555 1_555
C24_2 C20_2 1_555 1_555
H16_2 C24_2 1_555 1_555
Cd1C N3 1_555 1_555
Cd1_2 N6 1_555 1_555
Cd1_3 N1_2 1_555 1_555
Cd1C_2 N3_2 1_555 1_555
Cl1G Cl1 1_555 1_555
I1F I3 1_555 1_555
I2F I1F 1_555 1_555
N1_2 C1_2 1_555 1_555
N1G Cd1 1_555 1_555
N2_2 C12_2 1_555 1_555
N3_2 C13_2 1_555 1_555
N3D Cd1 1_555 1_555
N3B Cd1 1_555 1_555
N4_2 C12_2 1_555 1_555
N5_2 N4_2 1_555 1_555
H17_2 N5_2 1_555 1_555
H18_2 N5_2 1_555 1_555
N6_2 Cd1 1_555 1_555
N6G Cd1 1_555 1_555
O1G Cl1 1_555 1_555
O2G Cl1 1_555 1_555
C5 N1 1_555 1_555
C10 C11 1_555 1_555
C13 N4 1_555 1_555
C18 C19 1_555 1_555
C23 C24 1_555 1_555
C23 N6 1_555 1_555
N2 N3 1_555 1_555
O2 Cl1G 1_555 1_555
O3 Cl1G 1_555 1_555
C5_2 N1_2 1_555 1_555
C10_2 C11_2 1_555 1_555
C13_2 N4_2 1_555 1_555
C18_2 C19_2 1_555 1_555
C22_2 N6_2 1_555 1_555
C23_2 C24_2 1_555 1_555
C23_2 N6_2 1_555 1_555
Cl1G O1G 1_555 1_555
Cl1G O2G 1_555 1_555
N2_2 N3_2 1_555 1_555

#END
