
#######################################################################
#
#                 Cambridge Crystallographic Data Centre
#                                CCDC 
#
#######################################################################
#
# If this CIF has been generated from an entry in the Cambridge 
# Structural Database, then it will include bibliographic, chemical, 
# crystal, experimental, refinement or atomic coordinate data resulting 
# from the CCDC's data processing and validation procedures.
#
#######################################################################

data_ITIWAK
_chemical_formula_moiety         '(C48 H36 Cd1 Cl1 I2 N12 O4 1+)n'
_symmetry_cell_setting           tetragonal
_symmetry_space_group_name_H-M   'P 41 21 2'
_symmetry_Int_Tables_number      92
_space_group_name_Hall           'P 4abw 2nw'
loop_
_symmetry_equiv_pos_site_id
_symmetry_equiv_pos_as_xyz
1 x,y,z
2 -x,-y,1/2+z
3 1/2-y,1/2+x,1/4+z
4 1/2+y,1/2-x,3/4+z
5 1/2-x,1/2+y,1/4-z
6 1/2+x,1/2-y,3/4-z
7 y,x,-z
8 -y,-x,1/2-z
_cell_length_a                   15.8346(14)
_cell_length_b                   15.8346(14)
_cell_length_c                   21.463(4)
_cell_angle_alpha                90
_cell_angle_beta                 90
_cell_angle_gamma                90
_cell_volume                     5381.52
loop_
_atom_site_label
_atom_site_type_symbol
_atom_site_fract_x
_atom_site_fract_y
_atom_site_fract_z
C1 C -0.0873(6) -0.1408(6) -0.1420(5)
H1 H -0.0371 -0.1117 -0.1532
C2 C -0.1168(6) -0.2022(6) -0.1813(5)
H2 H -0.0863 -0.2156 -0.2181
C3 C -0.1923(6) -0.2457(7) -0.1673(5)
C4 C -0.2349(6) -0.2182(6) -0.1150(5)
H3 H -0.2887 -0.2413 -0.1052
C5 C -0.2003(6) -0.1574(6) -0.0771(5)
H4 H -0.2307 -0.1413 -0.0409
C6 C -0.2220(6) -0.3178(6) -0.2052(5)
C7 C -0.1919(8) -0.3364(8) -0.2641(5)
H5 H -0.1503 -0.3010 -0.2824
C8 C -0.5943(8) -0.7786(8) -0.2035(5)
H6 H -0.5840 -0.7990 -0.1626
C9 C -0.5396(7) -0.7201(7) -0.2290(5)
H7 H -0.4910 -0.7019 -0.2068
C10 C -0.5573(5) -0.6888(6) -0.2872(3)
C11 C -0.6276(6) -0.7171(6) -0.3203(5)
H8 H -0.6388 -0.6950 -0.3606
C12 C -0.5034(6) -0.6247(6) -0.3187(4)
C13 C -0.4078(5) -0.5743(5) -0.3808(4)
C14 C -0.3363(6) -0.5656(6) -0.4246(4)
C15 C -0.3349(8) -0.4935(8) -0.4613(6)
H9 H -0.3800 -0.4541 -0.4591
C16 C -0.2683(9) -0.4791(9) -0.5010(8)
H10 H -0.2638 -0.4273 -0.5231
C17 C -0.2063(8) -0.5432(8) -0.5083(7)
H11 H -0.1647 -0.5383 -0.5400
C18 C -0.2066(7) -0.6116(7) -0.4700(5)
C19 C -0.2735(6) -0.6247(6) -0.4299(4)
H12 H -0.2760 -0.6749 -0.4057
C20 C -0.1399(6) -0.6801(6) -0.4775(4)
C21 C -0.1230(7) -0.7351(7) -0.4287(5)
H13 H -0.1493 -0.7285 -0.3892
C22 C -0.0664(7) -0.7997(7) -0.4398(5)
H14 H -0.0578 -0.8389 -0.4069
C23 C -0.0389(6) -0.7554(6) -0.5361(5)
H15 H -0.0091 -0.7621 -0.5742
C24 C -0.0937(6) -0.6885(6) -0.5320(4)
H16 H -0.0997 -0.6494 -0.5653
Cd1 Cd -0.56021(4) -0.43979(4) -0.2500
N1 N -0.1255(5) -0.1194(5) -0.0884(4)
N2 N -0.5083(5) -0.5441(5) -0.3163(4)
N3 N -0.4473(5) -0.5105(5) -0.3554(4)
N4 N -0.4402(4) -0.6470(6) -0.3582(3)
N5 N -0.4188(6) -0.7310(8) -0.3767(5)
H17 H -0.4170 -0.7648 -0.3424
H18 H -0.4590 -0.7503 -0.4034
N6 N -0.0236(5) -0.8125(5) -0.4909(4)
C1G C -0.8592(6) -0.9127(6) -0.3580(5)
H1G H -0.8883 -0.9629 -0.3468
C2G C -0.7978(6) -0.8832(6) -0.3187(5)
H2G H -0.7844 -0.9137 -0.2819
C3G C -0.7543(7) -0.8077(6) -0.3327(5)
C4G C -0.7818(6) -0.7651(6) -0.3850(5)
H3G H -0.7587 -0.7113 -0.3948
C5G C -0.8426(6) -0.7997(6) -0.4229(5)
H4G H -0.8587 -0.7693 -0.4591
C6G C -0.6822(6) -0.7780(6) -0.2948(5)
C7G C -0.6636(8) -0.8081(8) -0.2359(5)
H5G H -0.6990 -0.8497 -0.2176
C8G C -0.2214(8) -0.4057(8) -0.2965(5)
H6G H -0.2010 -0.4160 -0.3374
C9G C -0.2799(7) -0.4604(7) -0.2710(5)
H7G H -0.2981 -0.5090 -0.2932
C10G C -0.3112(6) -0.4427(5) -0.2128(3)
C11G C -0.2829(6) -0.3724(6) -0.1797(5)
H8G H -0.3050 -0.3612 -0.1394
C12G C -0.3753(6) -0.4966(6) -0.1813(4)
C13G C -0.4257(5) -0.5922(5) -0.1192(4)
C14G C -0.4344(6) -0.6637(6) -0.0754(4)
C15G C -0.5065(8) -0.6651(8) -0.0387(6)
H9G H -0.5459 -0.6200 -0.0409
C16G C -0.5209(9) -0.7317(9) 0.0010(8)
H10G H -0.5727 -0.7362 0.0231
C17G C -0.4568(8) -0.7937(8) 0.0083(7)
H11G H -0.4617 -0.8353 0.0400
C18G C -0.3884(7) -0.7934(7) -0.0300(5)
C19G C -0.3753(6) -0.7265(6) -0.0701(4)
H12G H -0.3251 -0.7240 -0.0943
C20G C -0.3199(6) -0.8601(6) -0.0225(4)
C21G C -0.2649(7) -0.8770(7) -0.0713(5)
H13G H -0.2715 -0.8507 -0.1108
C22G C -0.2003(7) -0.9336(7) -0.0602(5)
H14G H -0.1611 -0.9422 -0.0931
C23G C -0.2446(6) -0.9611(6) 0.0361(5)
H15G H -0.2379 -0.9909 0.0742
C24G C -0.3115(6) -0.9063(6) 0.0320(4)
H16G H -0.3506 -0.9003 0.0653
Cd1B Cd -0.06021(4) -0.06021(4) 0.0000
Cd1C Cd 0.06021(4) -0.93979(4) -0.5000
Cd1B_2 Cd -0.06021(4) -1.06021(4) 0.0000
Cd1C_2 Cd -0.93979(4) -0.93979(4) -0.5000
N1E N -0.6255(5) -0.3806(5) -0.1616(4)
N1C N -0.6194(5) -0.3745(5) -0.3384(4)
N1G N -0.8806(5) -0.8745(5) -0.4116(4)
N2G N -0.4559(5) -0.4917(5) -0.1837(4)
N3G N -0.4895(5) -0.5527(5) -0.1446(4)
N4G N -0.3530(6) -0.5598(4) -0.1418(3)
N5G N -0.2690(8) -0.5812(6) -0.1233(5)
H17G H -0.2352 -0.5830 -0.1576
H18G H -0.2497 -0.5410 -0.0966
N6D N -0.4764(5) -0.3125(5) -0.2591(4)
N6B N -0.6875(5) -0.5236(5) -0.2409(4)
N6G N -0.1875(5) -0.9764(5) -0.0091(4)
Cl1 Cl 0.62487(19) 0.62487(19) 1.0000
O4 O 0.5665(15) 0.6163(13) 1.0422(7)
O5 O 0.6134(15) 0.6968(15) 0.9713(14)
O4F O 0.6163(13) 0.5665(15) 0.9578(7)
O5F O 0.6968(15) 0.6134(15) 1.0287(14)
I1 I 0.54912(15) 0.86963(16) -0.02947(15)
I2 I 0.4591(3) 1.0081(2) -0.0382(4)
loop_
_geom_bond_atom_site_label_1
_geom_bond_atom_site_label_2
_geom_bond_site_symmetry_1
_geom_bond_site_symmetry_2
C1 H1 1_555 1_555
C2 C1 1_555 1_555
H2 C2 1_555 1_555
C3 C2 1_555 1_555
C4 C3 1_555 1_555
H3 C4 1_555 1_555
C5 C4 1_555 1_555
H4 C5 1_555 1_555
C6 C3 1_555 1_555
C7 C6 1_555 1_555
H5 C7 1_555 1_555
C8 H6 1_555 1_555
C9 C8 1_555 1_555
H7 C9 1_555 1_555
C10 C9 1_555 1_555
C11 C10 1_555 1_555
H8 C11 1_555 1_555
C12 C10 1_555 1_555
C13 C14 1_555 1_555
C14 C15 1_555 1_555
C15 H9 1_555 1_555
C16 C15 1_555 1_555
H10 C16 1_555 1_555
C17 C16 1_555 1_555
H11 C17 1_555 1_555
C18 C17 1_555 1_555
C19 C14 1_555 1_555
H12 C19 1_555 1_555
C20 C18 1_555 1_555
C21 C20 1_555 1_555
H13 C21 1_555 1_555
C22 C21 1_555 1_555
H14 C22 1_555 1_555
C23 H15 1_555 1_555
C24 C20 1_555 1_555
H16 C24 1_555 1_555
Cd1 N2 1_555 1_555
Cl1 O4 1_555 1_555
N1 C1 1_555 1_555
N2 C12 1_555 1_555
N3 C13 1_555 1_555
N4 C12 1_555 1_555
N5 N4 1_555 1_555
H17 N5 1_555 1_555
H18 N5 1_555 1_555
N6 C22 1_555 1_555
O5 Cl1 1_555 1_555
I1 I2 1_555 1_555
C1G H1G 1_555 1_555
C2G C1G 1_555 1_555
H2G C2G 1_555 1_555
C3G C2G 1_555 1_555
C4G C3G 1_555 1_555
H3G C4G 1_555 1_555
C5G C4G 1_555 1_555
H4G C5G 1_555 1_555
C6G C11 1_555 1_555
C7G C8 1_555 1_555
H5G C7G 1_555 1_555
C8G C7 1_555 1_555
H6G C8G 1_555 1_555
C9G C8G 1_555 1_555
H7G C9G 1_555 1_555
C10G C9G 1_555 1_555
C11G C6 1_555 1_555
H8G C11G 1_555 1_555
C12G C10G 1_555 1_555
C13G C14G 1_555 1_555
C14G C15G 1_555 1_555
C15G H9G 1_555 1_555
C16G C15G 1_555 1_555
H10G C16G 1_555 1_555
C17G C16G 1_555 1_555
H11G C17G 1_555 1_555
C18G C17G 1_555 1_555
C19G C14G 1_555 1_555
H12G C19G 1_555 1_555
C20G C18G 1_555 1_555
C21G C20G 1_555 1_555
H13G C21G 1_555 1_555
C22G C21G 1_555 1_555
H14G C22G 1_555 1_555
C23G H15G 1_555 1_555
C24G C20G 1_555 1_555
H16G C24G 1_555 1_555
Cd1B N1 1_555 1_555
Cd1C N6 1_555 1_555
Cd1B_2 N6G 1_555 1_555
Cd1C_2 N1G 1_555 1_555
N1E Cd1 1_555 1_555
N1C Cd1 1_555 1_555
N1G C1G 1_555 1_555
N2G Cd1 1_555 1_555
N3G C13G 1_555 1_555
N4G C12G 1_555 1_555
N5G N4G 1_555 1_555
H17G N5G 1_555 1_555
H18G N5G 1_555 1_555
N6D Cd1 1_555 1_555
N6B Cd1 1_555 1_555
N6G C22G 1_555 1_555
O4F Cl1 1_555 1_555
O5F Cl1 1_555 1_555
C5 N1 1_555 1_555
C13 N4 1_555 1_555
C18 C19 1_555 1_555
C23 C24 1_555 1_555
C23 N6 1_555 1_555
N2 N3 1_555 1_555
C3G C6G 1_555 1_555
C5G N1G 1_555 1_555
C6G C7G 1_555 1_555
C10G C11G 1_555 1_555
C12G N2G 1_555 1_555
C13G N4G 1_555 1_555
C18G C19G 1_555 1_555
C23G C24G 1_555 1_555
C23G N6G 1_555 1_555
N2G N3G 1_555 1_555

#END
