
#######################################################################
#
#                 Cambridge Crystallographic Data Centre
#                                CCDC 
#
#######################################################################
#
# If this CIF has been generated from an entry in the Cambridge 
# Structural Database, then it will include bibliographic, chemical, 
# crystal, experimental, refinement or atomic coordinate data resulting 
# from the CCDC's data processing and validation procedures.
#
#######################################################################

data_JALPAQ
_chemical_formula_moiety         '(C13 H11 Cu1 N1 O6)n'
_symmetry_cell_setting           orthorhombic
_symmetry_space_group_name_H-M   'P c c n'
_symmetry_Int_Tables_number      56
_space_group_name_Hall           '-P 2ab 2ac'
loop_
_symmetry_equiv_pos_site_id
_symmetry_equiv_pos_as_xyz
1 x,y,z
2 1/2-x,1/2-y,z
3 1/2+x,-y,1/2-z
4 -x,1/2+y,1/2-z
5 -x,-y,-z
6 1/2+x,1/2+y,-z
7 1/2-x,y,1/2+z
8 x,1/2-y,1/2+z
_cell_length_a                   20.124(2)
_cell_length_b                   7.0312(7)
_cell_length_c                   17.2274(19)
_cell_angle_alpha                90
_cell_angle_beta                 90
_cell_angle_gamma                90
_cell_volume                     2437.61
loop_
_atom_site_label
_atom_site_type_symbol
_atom_site_fract_x
_atom_site_fract_y
_atom_site_fract_z
_atom_site_U_iso_or_equiv
_atom_site_thermal_displace_type
Cu1 Cu 0.508559(12) 0.84551(4) 0.594785(14) 0.0345 Uani
O1 O 0.42778(7) 0.7045(2) 0.55876(8) 0.0439 Uani
O2 O 0.50707(7) 0.7799(3) 0.48281(8) 0.0439 Uani
O3 O 0.48812(7) 0.6301(3) 0.20139(8) 0.0442 Uani
O4 O 0.40764(8) 0.4427(3) 0.16102(8) 0.0561 Uani
N1 N 0.10176(8) 0.4129(2) 0.39683(9) 0.0292 Uani
C1 C 0.45157(11) 0.7069(4) 0.49152(11) 0.0439 Uani
C2 C 0.43531(10) 0.5355(3) 0.21189(11) 0.0345 Uani
C3 C 0.41301(10) 0.6270(3) 0.42602(10) 0.0260 Uani
C4 C 0.44345(10) 0.6113(3) 0.35367(11) 0.0292 Uani
H1 H 0.4879 0.6440 0.3470 0.0350 Uiso
C5 C 0.40589(9) 0.5457(3) 0.29220(10) 0.0278 Uani
C6 C 0.34023(9) 0.5024(3) 0.30228(10) 0.0285 Uani
H2 H 0.3159 0.4577 0.2602 0.0340 Uiso
C7 C 0.30879(9) 0.5231(3) 0.37373(10) 0.0240 Uani
C8 C 0.34796(9) 0.5849(3) 0.43535(11) 0.0261 Uani
H3 H 0.3289 0.5975 0.4842 0.0310 Uiso
C9 C 0.23753(9) 0.4890(3) 0.38229(10) 0.0240 Uani
C10 C 0.19454(9) 0.4954(3) 0.31957(11) 0.0290 Uani
H4 H 0.2113 0.5245 0.2707 0.0350 Uiso
C11 C 0.12903(10) 0.4604(3) 0.32773(11) 0.0333 Uani
H5 H 0.1017 0.4692 0.2844 0.0400 Uiso
C12 C 0.14247(10) 0.4076(3) 0.45853(11) 0.0310 Uani
H6 H 0.1248 0.3771 0.5068 0.0370 Uiso
C13 C 0.20864(9) 0.4451(3) 0.45313(10) 0.0285 Uani
H7 H 0.2348 0.4413 0.4976 0.0340 Uiso
Cu1E Cu 0.008559(12) 0.34551(4) 0.405215(14) 0.0345 Uani
Cu1G Cu 0.508559(12) 0.65449(4) 0.094785(14) 0.0345 Uani
O3G O 0.48812(7) 0.8699(3) 0.70139(8) 0.0442 Uani
O4G O 0.40764(8) 1.0573(3) 0.66102(8) 0.0561 Uani
N1E N 0.60176(8) 0.9129(2) 0.60317(9) 0.0292 Uani
O5 O 0.1887(2) 0.3253(6) 0.12838(16) 0.2253 Uani
H8 H 0.1599 0.2402 0.1384 0.2710 Uiso
H9 H 0.2269 0.2741 0.1288 0.2710 Uiso
O6 O 0.30300(17) 0.6708(7) 0.63577(19) 0.2143 Uani
H11 H 0.3285 0.7120 0.6002 0.2570 Uiso
H12 H 0.3009 0.5502 0.6335 0.2570 Uiso
loop_
_atom_site_aniso_label
_atom_site_aniso_U_11
_atom_site_aniso_U_22
_atom_site_aniso_U_33
_atom_site_aniso_U_23
_atom_site_aniso_U_13
_atom_site_aniso_U_12
Cu1 0.02435(12) 0.06172(17) 0.01756(13) -0.00549(11) 0.00059(9) -0.00478(12)
O1 0.0329(4) 0.0817(7) 0.0170(4) -0.0086(5) 0.0010(4) -0.0180(5)
O2 0.0329(4) 0.0817(7) 0.0170(4) -0.0086(5) 0.0010(4) -0.0180(5)
O3 0.0290(7) 0.0861(11) 0.0175(7) 0.0071(7) 0.0042(6) -0.0046(7)
O4 0.0571(9) 0.0902(12) 0.0210(7) -0.0158(9) 0.0078(7) -0.0162(9)
N1 0.0251(8) 0.0445(9) 0.0181(8) 0.0018(8) -0.0017(6) -0.0012(7)
C1 0.0329(4) 0.0817(7) 0.0170(4) -0.0086(5) 0.0010(4) -0.0180(5)
C2 0.0308(10) 0.0561(13) 0.0166(9) 0.0036(10) 0.0037(8) 0.0077(9)
C3 0.0297(10) 0.0335(10) 0.0149(9) 0.0021(8) 0.0006(8) -0.0015(8)
C4 0.0251(9) 0.0423(12) 0.0203(10) 0.0006(9) 0.0038(8) -0.0029(9)
C5 0.0306(10) 0.0380(11) 0.0147(9) 0.0001(9) 0.0056(8) 0.0046(9)
C6 0.0292(10) 0.0433(11) 0.0130(9) -0.0053(9) -0.0031(8) -0.0004(9)
C7 0.0222(8) 0.0318(10) 0.0179(9) -0.0027(8) 0.0006(7) -0.0023(8)
C8 0.0289(10) 0.0354(10) 0.0141(8) -0.0010(9) 0.0035(8) -0.0038(9)
C9 0.0268(9) 0.0285(10) 0.0167(8) -0.0021(8) -0.0001(7) -0.0017(8)
C10 0.0290(10) 0.0446(11) 0.0134(9) 0.0016(8) 0.0007(7) -0.0063(9)
C11 0.0327(10) 0.0503(12) 0.0168(9) 0.0008(10) 0.0007(8) -0.0008(10)
C12 0.0309(10) 0.0433(12) 0.0188(9) 0.0042(9) 0.0003(8) -0.0034(9)
C13 0.0276(9) 0.0409(11) 0.0171(9) 0.0018(9) -0.0037(8) -0.0005(9)
Cu1E 0.02435 0.06172 0.01756 0.00549 -0.00059 -0.00478
Cu1G 0.02435 0.06172 0.01756 0.00549 0.00059 0.00478
O3G 0.029 0.0861 0.0175 -0.0071 0.0042 0.0046
O4G 0.0571 0.0902 0.021 0.0158 0.0078 0.0162
N1E 0.0251 0.0445 0.0181 -0.0018 0.0017 -0.0012
O5 0.313(4) 0.298(4) 0.0649(16) -0.012(2) 0.017(2) -0.189(3)
O6 0.132(2) 0.384(6) 0.127(2) 0.007(3) 0.051(2) -0.071(3)
loop_
_geom_bond_atom_site_label_1
_geom_bond_atom_site_label_2
_geom_bond_site_symmetry_1
_geom_bond_site_symmetry_2
Cu1 O1 1_555 1_555
O1 C1 1_555 1_555
O2 Cu1 1_555 1_555
O3 C2 1_555 1_555
O4 C2 1_555 1_555
N1 C11 1_555 1_555
C1 O2 1_555 1_555
C2 C5 1_555 1_555
C3 C1 1_555 1_555
C4 C3 1_555 1_555
H1 C4 1_555 1_555
C5 C4 1_555 1_555
C6 C5 1_555 1_555
H2 C6 1_555 1_555
C7 C6 1_555 1_555
C8 C3 1_555 1_555
H3 C8 1_555 1_555
C9 C7 1_555 1_555
C10 C9 1_555 1_555
H4 C10 1_555 1_555
C11 C10 1_555 1_555
H5 C11 1_555 1_555
C12 N1 1_555 1_555
H6 C12 1_555 1_555
C13 C9 1_555 1_555
H7 C13 1_555 1_555
O5 H8 1_555 1_555
H9 O5 1_555 1_555
O6 H11 1_555 1_555
H12 O6 1_555 1_555
Cu1E N1 1_555 1_555
Cu1G O3 1_555 1_555
O3G Cu1 1_555 1_555
O4G Cu1 1_555 1_555
N1E Cu1 1_555 1_555
O4 Cu1G 1_555 1_555
C7 C8 1_555 1_555
C12 C13 1_555 1_555

#END
