
#######################################################################
#
#                 Cambridge Crystallographic Data Centre
#                                CCDC 
#
#######################################################################
#
# If this CIF has been generated from an entry in the Cambridge 
# Structural Database, then it will include bibliographic, chemical, 
# crystal, experimental, refinement or atomic coordinate data resulting 
# from the CCDC's data processing and validation procedures.
#
#######################################################################

data_AHINIP
_chemical_formula_moiety         '(C56 H64 N12 O14 Zn2)n'
_symmetry_cell_setting           monoclinic
_symmetry_space_group_name_H-M   'P 21'
_symmetry_Int_Tables_number      4
_space_group_name_Hall           'P 2yb'
loop_
_symmetry_equiv_pos_site_id
_symmetry_equiv_pos_as_xyz
1 x,y,z
2 -x,1/2+y,-z
_cell_length_a                   10.592(4)
_cell_length_b                   22.306(8)
_cell_length_c                   13.120(5)
_cell_angle_alpha                90
_cell_angle_beta                 100.813(4)
_cell_angle_gamma                90
_cell_volume                     3044.76
loop_
_atom_site_label
_atom_site_type_symbol
_atom_site_fract_x
_atom_site_fract_y
_atom_site_fract_z
Zn1 Zn 0.22275(11) 0.86159(6) 0.51552(9)
Zn2 Zn 0.69534(11) 0.92922(6) 0.01230(9)
C1 C 0.5747(11) 0.7258(6) 0.3155(13)
H1 H 0.5240 0.7592 0.2942
C2 C 0.5671(11) 0.7012(8) 0.4108(11)
C3 C 0.6434(11) 0.6537(6) 0.4438(10)
H2 H 0.6417 0.6370 0.5085
C4 C 0.7209(11) 0.6304(7) 0.3848(11)
C5 C 0.7936(13) 0.5858(7) 0.4145(11)
H3 H 0.7919 0.5695 0.4794
C6 C 0.8740(13) 0.5604(7) 0.3564(11)
H4 H 0.9199 0.5263 0.3815
C7 C 0.8900(11) 0.5845(6) 0.2585(9)
C8 C 0.9719(10) 0.5606(5) 0.2037(8)
H5 H 1.0228 0.5277 0.2278
C9 C 0.9773(10) 0.5873(6) 0.1088(11)
C10 C 0.8947(11) 0.6339(7) 0.0718(10)
H6 H 0.8989 0.6507 0.0076
C11 C 0.8104(10) 0.6297(6) 0.2267(9)
C12 C 0.7258(10) 0.6553(6) 0.2921(11)
C13 C 0.3987(12) 0.7741(7) 0.4420(10)
H7 H 0.3844 0.7920 0.3768
C14 C 0.4829(14) 0.7153(7) 0.5790(11)
H8 H 0.5342 0.6882 0.6219
C15 C 0.3924(15) 0.7503(10) 0.6037(13)
H9 H 0.3675 0.7495 0.6680
C16 C 1.1292(10) 0.5136(6) 0.0554(10)
H10 H 1.1196 0.4857 0.1060
C17 C 1.1041(16) 0.5913(7) -0.0328(12)
H11 H 1.0786 0.6289 -0.0598
C18 C 1.1914(15) 0.5544(8) -0.0681(14)
H12 H 1.2325 0.5620 -0.1234
C19 C 0.5681(12) 1.0710(7) 0.7879(9)
H13 H 0.5213 1.0622 0.8393
C20 C 0.5548(12) 1.0356(6) 0.6986(10)
C21 C 0.6162(12) 1.0478(6) 0.6239(9)
H14 H 0.6028 1.0236 0.5651
C22 C 0.7005(11) 1.0953(6) 0.6294(9)
C23 C 0.7718(14) 1.1099(7) 0.5518(12)
H15 H 0.7600 1.0880 0.4904
C24 C 0.8575(15) 1.1559(7) 0.5667(13)
H16 H 0.9054 1.1639 0.5157
C25 C 0.8763(12) 1.1915(6) 0.6560(9)
C26 C 0.9640(11) 1.2399(6) 0.6705(9)
H17 H 1.0084 1.2503 0.6183
C27 C 0.9831(11) 1.2709(6) 0.7604(10)
C28 C 0.9156(11) 1.2570(6) 0.8362(10)
H18 H 0.9302 1.2797 0.8967
C29 C 0.8132(11) 1.1793(6) 0.7329(9)
C30 C 0.7191(11) 1.1291(6) 0.7217(10)
C31 C 0.3958(12) 0.9630(7) 0.5979(10)
H19 H 0.4033 0.9754 0.5316
C32 C 0.4278(10) 0.9541(7) 0.7698(10)
H20 H 0.4575 0.9600 0.8404
C33 C 0.3465(11) 0.9102(7) 0.7261(11)
H21 H 0.3120 0.8799 0.7613
C34 C 1.1347(13) 1.3360(6) 0.8729(9)
H22 H 1.1339 1.3153 0.9342
C35 C 1.0955(12) 1.3611(9) 0.7107(10)
H23 H 1.0623 1.3617 0.6399
C36 C 1.1794(11) 1.3999(7) 0.7592(9)
H24 H 1.2157 1.4316 0.7287
C37 C 0.0357(12) 0.8194(9) 0.6097(12)
C38 C -0.1010(11) 0.8099(9) 0.6353(10)
C39 C -0.1076(11) 0.8212(7) 0.7511(9)
C40 C -0.2491(9) 0.8335(6) 0.7467(8)
H25 H -0.2937 0.7948 0.7403
C41 C -0.2945(12) 0.8663(9) 0.6558(11)
H26 H -0.2963 0.9088 0.6706
H27 H -0.3804 0.8534 0.6240
C42 C -0.1973(12) 0.8526(9) 0.5837(9)
H28 H -0.2423 0.8357 0.5187
H29 H -0.1556 0.8893 0.5684
C43 C -0.1335(19) 0.7454(11) 0.612(2)
H30 H -0.0564 0.7217 0.6267
H31 H -0.1725 0.7411 0.5404
H32 H -0.1923 0.7319 0.6548
C44 C -0.053(2) 0.7726(10) 0.8286(15)
H33 H 0.0005 0.7907 0.8878
H34 H -0.0028 0.7451 0.7965
H35 H -0.1222 0.7514 0.8505
C45 C -0.0323(13) 0.8747(8) 0.7928(13)
H36 H 0.0567 0.8684 0.7904
H37 H -0.0416 0.8812 0.8633
H38 H -0.0633 0.9091 0.7517
C46 C 0.4679(16) 0.9656(14) 0.0608(16)
C47 C 0.3404(13) 0.9603(9) 0.0876(13)
C48 C 0.3384(12) 0.9242(10) 0.1844(10)
C49 C 0.2095(11) 0.9378(10) 0.2205(11)
H39 H 0.1453 0.9100 0.1834
C50 C 0.1705(12) 1.0003(9) 0.1801(12)
H40 H 0.1677 1.0278 0.2370
H41 H 0.0869 0.9997 0.1348
C51 C 0.2792(13) 1.0193(7) 0.1181(12)
H42 H 0.2424 1.0420 0.0566
H43 H 0.3435 1.0439 0.1613
C52 C 0.2477(11) 0.9416(8) -0.0035(10)
H44 H 0.2882 0.9415 -0.0631
H45 H 0.1765 0.9690 -0.0148
H46 H 0.2174 0.9020 0.0076
C53 C 0.3554(14) 0.8533(10) 0.1620(12)
H47 H 0.3174 0.8445 0.0913
H48 H 0.3136 0.8301 0.2076
H49 H 0.4452 0.8434 0.1739
C54 C 0.4529(14) 0.9351(13) 0.2699(13)
H50 H 0.4258 0.9347 0.3357
H51 H 0.4901 0.9734 0.2597
H52 H 0.5156 0.9042 0.2686
C55 C 0.2140(12) 0.9281(13) 0.3321(12)
C56 C -0.2785(13) 0.8655(11) 0.8473(10)
N1 N 0.6495(10) 0.7052(6) 0.2516(10)
N2 N 0.8062(10) 0.6562(5) 0.1274(9)
N3 N 0.4856(9) 0.7276(5) 0.4761(9)
N4 N 0.3385(9) 0.7882(6) 0.5235(9)
N5 N 1.0618(9) 0.5650(5) 0.0457(8)
N6 N 1.2059(9) 0.5043(6) -0.0058(8)
N7 N 0.6530(10) 1.1199(5) 0.7989(8)
N8 N 0.8270(9) 1.2112(5) 0.8280(8)
N9 N 0.4578(8) 0.9882(5) 0.6909(7)
N10 N 0.3247(8) 0.9186(6) 0.6207(8)
N11 N 1.0639(9) 1.3196(5) 0.7793(8)
N12 N 1.2049(9) 1.3846(5) 0.8673(8)
O1 O 0.0477(7) 0.8478(5) 0.5333(6)
O2 O 0.1312(9) 0.7931(6) 0.6687(7)
O3 O -0.2795(12) 0.9099(7) 0.8668(14)
O4 O -0.2924(11) 0.8159(7) 0.9094(8)
O5 O 0.5165(6) 0.9283(6) 0.0217(5)
O6 O 0.5373(18) 1.0074(8) 0.0948(19)
O7 O 0.2157(14) 0.9702(9) 0.3909(10)
O8 O 0.2191(8) 0.8773(6) 0.3693(7)
Zn2_2 Zn -0.30466(11) 0.92922(6) 1.01230(9)
Zn2A Zn 1.30466(11) 0.42922(6) -0.01230(9)
Zn2A_2 Zn 1.30466(11) 1.42922(6) 0.98770(9)
N6A N 0.7941(9) 1.0043(6) 0.0058(8)
N12A N 0.7951(9) 0.8846(5) 0.1327(8)
O3_2 O 0.7205(12) 0.9099(7) -0.1332(14)
O9 O 0.207(2) 0.6848(9) 0.7834(12)
H53 H 0.2864 0.6888 0.8088
H54 H 0.1798 0.7157 0.7479
O10 O 0.3305(14) 0.7063(9) 0.0052(11)
H55 H 0.3237 0.6726 -0.0258
H56 H 0.3244 0.7012 0.0683
O11 O 0.684(3) 0.6769(9) 0.8282(16)
H57 H 0.7128 0.6412 0.8359
H58 H 0.6396 0.6844 0.8740
O12 O 0.533(4) 0.7574(15) 0.987(4)
H59 H 0.5985 0.7646 0.9611
H60 H 0.4876 0.7303 0.9521
O13 O 0.365(6) 0.589(2) 0.711(4)
H61 H 0.3193 0.6199 0.6963
H62 H 0.4266 0.5963 0.7610
O14 O 0.577(4) 0.569(2) 0.603(3)
H63 H 0.5261 0.5775 0.6434
H64 H 0.6071 0.5340 0.6157
loop_
_geom_bond_atom_site_label_1
_geom_bond_atom_site_label_2
_geom_bond_site_symmetry_1
_geom_bond_site_symmetry_2
Zn1 N4 1_555 1_555
Zn2 O5 1_555 1_555
C1 H1 1_555 1_555
C2 C1 1_555 1_555
C3 C2 1_555 1_555
H2 C3 1_555 1_555
C4 C3 1_555 1_555
C5 C4 1_555 1_555
H3 C5 1_555 1_555
C6 C5 1_555 1_555
H4 C6 1_555 1_555
C7 C6 1_555 1_555
C8 C7 1_555 1_555
H5 C8 1_555 1_555
C9 C8 1_555 1_555
C10 C9 1_555 1_555
H6 C10 1_555 1_555
C11 C7 1_555 1_555
C12 C4 1_555 1_555
C13 H7 1_555 1_555
C14 H8 1_555 1_555
C15 C14 1_555 1_555
H9 C15 1_555 1_555
C16 H10 1_555 1_555
C17 H11 1_555 1_555
C18 C17 1_555 1_555
H12 C18 1_555 1_555
C19 H13 1_555 1_555
C20 C19 1_555 1_555
C21 C20 1_555 1_555
H14 C21 1_555 1_555
C22 C21 1_555 1_555
C23 C22 1_555 1_555
H15 C23 1_555 1_555
C24 C23 1_555 1_555
H16 C24 1_555 1_555
C25 C24 1_555 1_555
C26 C25 1_555 1_555
H17 C26 1_555 1_555
C27 C26 1_555 1_555
C28 C27 1_555 1_555
H18 C28 1_555 1_555
C29 C25 1_555 1_555
C30 C22 1_555 1_555
C31 H19 1_555 1_555
C32 H20 1_555 1_555
C33 C32 1_555 1_555
H21 C33 1_555 1_555
C34 H22 1_555 1_555
C35 H23 1_555 1_555
C36 C35 1_555 1_555
H24 C36 1_555 1_555
C37 C38 1_555 1_555
C38 C39 1_555 1_555
C39 C40 1_555 1_555
C40 H25 1_555 1_555
C41 C40 1_555 1_555
H26 C41 1_555 1_555
H27 C41 1_555 1_555
C42 C38 1_555 1_555
H28 C42 1_555 1_555
H29 C42 1_555 1_555
C43 C38 1_555 1_555
H30 C43 1_555 1_555
H31 C43 1_555 1_555
H32 C43 1_555 1_555
C44 C39 1_555 1_555
H33 C44 1_555 1_555
H34 C44 1_555 1_555
H35 C44 1_555 1_555
C45 C39 1_555 1_555
H36 C45 1_555 1_555
H37 C45 1_555 1_555
H38 C45 1_555 1_555
C46 C47 1_555 1_555
C47 C48 1_555 1_555
C48 C49 1_555 1_555
C49 H39 1_555 1_555
C50 C49 1_555 1_555
H40 C50 1_555 1_555
H41 C50 1_555 1_555
C51 C47 1_555 1_555
H42 C51 1_555 1_555
H43 C51 1_555 1_555
C52 C47 1_555 1_555
H44 C52 1_555 1_555
H45 C52 1_555 1_555
H46 C52 1_555 1_555
C53 C48 1_555 1_555
H47 C53 1_555 1_555
H48 C53 1_555 1_555
H49 C53 1_555 1_555
C54 C48 1_555 1_555
H50 C54 1_555 1_555
H51 C54 1_555 1_555
H52 C54 1_555 1_555
C55 C49 1_555 1_555
C56 C40 1_555 1_555
N1 C1 1_555 1_555
N2 C10 1_555 1_555
N3 C2 1_555 1_555
N4 C13 1_555 1_555
N5 C9 1_555 1_555
N6 C16 1_555 1_555
N7 C19 1_555 1_555
N8 C28 1_555 1_555
N9 C20 1_555 1_555
N10 Zn1 1_555 1_555
N11 C27 1_555 1_555
N12 C34 1_555 1_555
O1 Zn1 1_555 1_555
O2 Zn1 1_555 1_555
O3 C56 1_555 1_555
O4 C56 1_555 1_555
O5 C46 1_555 1_555
O6 Zn2 1_555 1_555
O7 C55 1_555 1_555
O8 Zn1 1_555 1_555
O9 H53 1_555 1_555
H54 O9 1_555 1_555
O10 H55 1_555 1_555
H56 O10 1_555 1_555
O11 H57 1_555 1_555
H58 O11 1_555 1_555
O12 H59 1_555 1_555
H60 O12 1_555 1_555
O13 H61 1_555 1_555
H62 O13 1_555 1_555
O14 H63 1_555 1_555
H64 O14 1_555 1_555
Zn2_2 O3 1_555 1_555
Zn2A N6 1_555 1_555
Zn2A_2 N12 1_555 1_555
N6A Zn2 1_555 1_555
N12A Zn2 1_555 1_555
O3_2 Zn2 1_555 1_555
C11 C12 1_555 1_555
C11 N2 1_555 1_555
C12 N1 1_555 1_555
C13 N3 1_555 1_555
C14 N3 1_555 1_555
C15 N4 1_555 1_555
C16 N5 1_555 1_555
C17 N5 1_555 1_555
C18 N6 1_555 1_555
C29 C30 1_555 1_555
C29 N8 1_555 1_555
C30 N7 1_555 1_555
C31 N9 1_555 1_555
C31 N10 1_555 1_555
C32 N9 1_555 1_555
C33 N10 1_555 1_555
C34 N11 1_555 1_555
C35 N11 1_555 1_555
C36 N12 1_555 1_555
C37 O1 1_555 1_555
C37 O2 1_555 1_555
C41 C42 1_555 1_555
C46 O6 1_555 1_555
C50 C51 1_555 1_555
C55 O8 1_555 1_555

#END
