
#######################################################################
#
#                 Cambridge Crystallographic Data Centre
#                                CCDC 
#
#######################################################################
#
# If this CIF has been generated from an entry in the Cambridge 
# Structural Database, then it will include bibliographic, chemical, 
# crystal, experimental, refinement or atomic coordinate data resulting 
# from the CCDC's data processing and validation procedures.
#
#######################################################################

data_ODIXIK
_chemical_formula_moiety         '(C56 H40 Cd4 O20 Si2)n'
_symmetry_cell_setting           triclinic
_symmetry_space_group_name_H-M   'P -1'
_symmetry_Int_Tables_number      2
_space_group_name_Hall           '-P 1'
loop_
_symmetry_equiv_pos_site_id
_symmetry_equiv_pos_as_xyz
1 x,y,z
2 -x,-y,-z
_cell_length_a                   13.775(4)
_cell_length_b                   14.507(4)
_cell_length_c                   24.244(7)
_cell_angle_alpha                83.217(3)
_cell_angle_beta                 81.797(3)
_cell_angle_gamma                65.572(3)
_cell_volume                     4356.55
loop_
_atom_site_label
_atom_site_type_symbol
_atom_site_fract_x
_atom_site_fract_y
_atom_site_fract_z
Cd1 Cd -0.25255(5) 0.77374(5) -0.39938(3)
Cd2 Cd -0.24926(7) 0.74967(6) -0.25021(4)
Cd3 Cd 0.2716(3) 0.2598(4) 0.1036(2)
O1 O 0.3610(9) 0.3003(12) 0.0271(5)
Si1 Si 0.36915(19) 0.39464(19) -0.26376(11)
Si2 Si 0.1289(7) 1.1054(6) -0.2353(2)
O2 O -0.1316(6) 0.7265(6) -0.3301(3)
O3 O -0.0862(6) 0.6285(6) -0.4004(3)
O4 O 0.2172(8) 0.2802(8) 0.0096(4)
O5 O 0.6290(7) -0.1183(6) -0.3073(4)
O6 O 0.6519(7) -0.0656(6) -0.3819(4)
O7 O 0.6502(10) 0.6837(10) -0.3708(4)
O8 O 0.6792(10) 0.6628(11) -0.2840(4)
O9 O 0.2844(6) 1.2093(7) -0.5096(3)
O10 O 0.1578(7) 1.1625(8) -0.5225(4)
O11 O -0.1485(15) 1.5961(11) -0.2104(5)
O12 O 0.6310(14) 0.7686(11) -0.1689(6)
O13 O 0.5894(14) 0.8717(11) -0.1001(6)
O14 O -0.1021(15) 1.5662(11) -0.1222(5)
C1 C -0.0663(5) 0.6519(8) -0.3553(5)
C2 C 0.0405(4) 0.5868(5) -0.3341(3)
C3 C 0.1104(5) 0.4998(5) -0.3603(3)
H1 H 0.0913 0.4813 -0.3922
C4 C 0.2082(4) 0.4400(4) -0.3400(3)
H2 H 0.2559 0.3806 -0.3579
C5 C 0.2361(4) 0.4672(5) -0.2934(3)
C6 C 0.1662(5) 0.5541(5) -0.2672(3)
H3 H 0.1853 0.5727 -0.2354
C7 C 0.0684(5) 0.6139(4) -0.2875(3)
H4 H 0.0206 0.6733 -0.2696
C8 C 0.3014(9) 0.3080(5) -0.0096(2)
C9 C 0.3061(7) 0.3423(5) -0.0708(2)
C10 C 0.3888(7) 0.3716(7) -0.0923(3)
H5 H 0.4325 0.3796 -0.0678
C11 C 0.4077(7) 0.3894(8) -0.1496(3)
H6 H 0.4643 0.4095 -0.1643
C12 C 0.3438(8) 0.3778(8) -0.1854(2)
C13 C 0.2610(8) 0.3484(9) -0.1639(3)
H7 H 0.2174 0.3405 -0.1884
C14 C 0.2422(7) 0.3307(7) -0.1066(3)
H8 H 0.1856 0.3106 -0.0919
C15 C 0.6267(9) -0.0448(5) -0.3348(6)
C16 C 0.5635(4) 0.0628(4) -0.3186(3)
C17 C 0.5378(5) 0.1425(5) -0.3594(2)
H9 H 0.5611 0.1293 -0.3975
C18 C 0.4781(6) 0.2415(4) -0.3444(3)
H10 H 0.4606 0.2959 -0.3723
C19 C 0.4439(6) 0.2610(4) -0.2885(3)
C20 C 0.4695(7) 0.1813(5) -0.2477(2)
H11 H 0.4462 0.1945 -0.2095
C21 C 0.5293(6) 0.0823(4) -0.2627(3)
H12 H 0.5468 0.0279 -0.2348
C22 C 0.6402(7) 0.6504(7) -0.3224(5)
C23 C 0.5752(4) 0.5870(4) -0.3113(3)
C24 C 0.4548(5) 0.4712(5) -0.2844(3)
C25 C 0.4786(6) 0.6159(5) -0.3336(4)
H13 H 0.4536 0.6752 -0.3580
C26 C 0.4183(5) 0.5581(6) -0.3202(4)
H14 H 0.3523 0.5778 -0.3355
C27 C 0.5514(6) 0.4423(5) -0.2621(4)
H15 H 0.5764 0.3830 -0.2377
C28 C 0.6116(5) 0.5002(6) -0.2755(4)
H16 H 0.6776 0.4805 -0.2602
O15 O -0.1556(8) 0.8192(7) -0.1289(4)
O16 O -0.1171(15) 0.7847(14) -0.2131(8)
C29 C -0.1024(7) 0.8231(9) -0.1700(10)
C30 C -0.0392(7) 0.8876(8) -0.1854(5)
C31 C 0.0379(10) 0.8674(9) -0.2313(5)
H17 H 0.0511 0.8126 -0.2533
C32 C 0.0957(10) 0.9275(10) -0.2450(6)
H18 H 0.1483 0.9137 -0.2764
C33 C 0.0764(10) 1.0077(9) -0.2129(7)
C34 C -0.0007(12) 1.0279(10) -0.1670(7)
H19 H -0.0139 1.0827 -0.1450
C35 C -0.0584(10) 0.9678(11) -0.1533(5)
H20 H -0.1111 0.9816 -0.1219
C36 C 0.2154(12) 1.1791(13) -0.4923(4)
C37 C 0.1983(7) 1.1544(5) -0.4304(4)
C38 C 0.1137(7) 1.1295(7) -0.4063(3)
H21 H 0.0645 1.1282 -0.4296
C39 C 0.0988(7) 1.1065(8) -0.3493(3)
H22 H 0.0402 1.0898 -0.3343
C40 C 0.1697(8) 1.1079(8) -0.3143(4)
C41 C 0.2545(9) 1.1327(9) -0.3381(4)
H23 H 0.3038 1.1341 -0.3148
C42 C 0.2689(8) 1.1557(8) -0.3952(4)
H24 H 0.3275 1.1724 -0.4102
C43 C -0.1224(16) 1.5424(8) -0.1704(8)
C44 C -0.0497(5) 1.4344(7) -0.1828(4)
C45 C -0.0162(8) 1.4133(7) -0.2385(4)
H25 H -0.0326 1.4670 -0.2668
C46 C 0.0412(11) 1.3135(8) -0.2527(3)
H26 H 0.0640 1.2992 -0.2908
C47 C 0.0652(12) 1.2348(6) -0.2113(5)
C48 C 0.0319(13) 1.2557(8) -0.1556(4)
H27 H 0.0482 1.2020 -0.1273
C49 C -0.0256(10) 1.3555(9) -0.1415(4)
H28 H -0.0484 1.3699 -0.1034
C50 C 0.5666(9) 0.8534(14) -0.1414(7)
C51 C 0.4612(6) 0.9138(9) -0.1651(4)
C52 C 0.4348(8) 0.8857(7) -0.2118(4)
H29 H 0.4834 0.8265 -0.2296
C53 C 0.3371(9) 0.9444(9) -0.2326(4)
H30 H 0.3190 0.9251 -0.2645
C54 C 0.2658(7) 1.0311(8) -0.2066(5)
C55 C 0.2923(8) 1.0592(7) -0.1599(5)
H31 H 0.2436 1.1185 -0.1421
C56 C 0.3900(9) 1.0006(9) -0.1391(4)
H32 H 0.4081 1.0198 -0.1072
Cd1_2 Cd 0.74745(5) -0.22626(5) -0.39938(3)
Cd1_3 Cd 0.74745(5) 0.77374(5) -0.39938(3)
Cd1A Cd 0.25255(5) 1.22626(5) -0.60062(3)
Cd2_2 Cd -0.24926(7) 1.74967(6) -0.25021(4)
Cd2_3 Cd 0.75074(7) -0.25033(6) -0.25021(4)
Cd2_4 Cd 0.75074(7) 0.74967(6) -0.25021(4)
Cd3A Cd -0.2716(3) 0.7402(4) -0.1036(2)
Cd3A_2 Cd -0.2716(3) 1.7402(4) -0.1036(2)
Cd3A_3 Cd 0.7284(3) 0.7402(4) -0.1036(2)
O5_2 O -0.3710(7) 0.8817(6) -0.3073(4)
O6_2 O -0.3481(7) 0.9344(6) -0.3819(4)
O7_2 O -0.3498(10) 0.6837(10) -0.3708(4)
O8_2 O -0.3208(10) 0.6628(11) -0.2840(4)
O9A O -0.2844(6) 0.7907(7) -0.4904(3)
O10A O -0.1578(7) 0.8375(8) -0.4775(4)
O11_2 O -0.1485(15) 0.5961(11) -0.2104(5)
O12_2 O -0.3690(14) 0.7686(11) -0.1689(6)
O12A O 0.3690(14) 0.2314(11) 0.1689(6)
O13A O 0.4106(14) 0.1283(11) 0.1001(6)
O14A O 0.1021(15) 0.4338(11) 0.1222(5)
O15A O 0.1556(8) 0.1808(7) 0.1289(4)
Cd4 Cd 0.2351(3) 0.7367(3) 0.0139(2)
O17 O 0.410(2) 0.728(5) 0.011(2)
O18 O 0.0478(6) 0.826(4) 0.023(2)
O19 O 0.191(5) 0.734(5) -0.0757(10)
O20 O 0.224(5) 0.584(2) -0.001(2)
loop_
_geom_bond_atom_site_label_1
_geom_bond_atom_site_label_2
_geom_bond_site_symmetry_1
_geom_bond_site_symmetry_2
Cd1 O2 1_555 1_555
Cd2 O2 1_555 1_555
Cd3 O1 1_555 1_555
O1 C8 1_555 1_555
Si1 C5 1_555 1_555
Si2 C33 1_555 1_555
O2 C1 1_555 1_555
O3 Cd1 1_555 1_555
O4 Cd3 1_555 1_555
O5 C15 1_555 1_555
O6 C15 1_555 1_555
O7 C22 1_555 1_555
O8 C22 1_555 1_555
O9 C36 1_555 1_555
O10 C36 1_555 1_555
O11 C43 1_555 1_555
O12 C50 1_555 1_555
O13 C50 1_555 1_555
O14 C43 1_555 1_555
C1 O3 1_555 1_555
C2 C1 1_555 1_555
C3 C2 1_555 1_555
H1 C3 1_555 1_555
C4 C3 1_555 1_555
H2 C4 1_555 1_555
C5 C4 1_555 1_555
C6 C5 1_555 1_555
H3 C6 1_555 1_555
C7 C2 1_555 1_555
H4 C7 1_555 1_555
C8 O4 1_555 1_555
C9 C8 1_555 1_555
C10 C9 1_555 1_555
H5 C10 1_555 1_555
C11 C10 1_555 1_555
H6 C11 1_555 1_555
C12 Si1 1_555 1_555
C13 C12 1_555 1_555
H7 C13 1_555 1_555
C14 C9 1_555 1_555
H8 C14 1_555 1_555
C15 C16 1_555 1_555
C16 C17 1_555 1_555
C17 H9 1_555 1_555
C18 C17 1_555 1_555
H10 C18 1_555 1_555
C19 Si1 1_555 1_555
C20 C19 1_555 1_555
H11 C20 1_555 1_555
C21 C16 1_555 1_555
H12 C21 1_555 1_555
C22 C23 1_555 1_555
C23 C25 1_555 1_555
C24 Si1 1_555 1_555
C25 H13 1_555 1_555
C26 C24 1_555 1_555
H14 C26 1_555 1_555
C27 C24 1_555 1_555
H15 C27 1_555 1_555
C28 C23 1_555 1_555
H16 C28 1_555 1_555
O15 C29 1_555 1_555
O16 Cd2 1_555 1_555
C29 O16 1_555 1_555
C30 C29 1_555 1_555
C31 C30 1_555 1_555
H17 C31 1_555 1_555
C32 C31 1_555 1_555
H18 C32 1_555 1_555
C33 C32 1_555 1_555
C34 C33 1_555 1_555
H19 C34 1_555 1_555
C35 C30 1_555 1_555
H20 C35 1_555 1_555
C36 C37 1_555 1_555
C37 C38 1_555 1_555
C38 H21 1_555 1_555
C39 C38 1_555 1_555
H22 C39 1_555 1_555
C40 Si2 1_555 1_555
C41 C40 1_555 1_555
H23 C41 1_555 1_555
C42 C37 1_555 1_555
H24 C42 1_555 1_555
C43 C44 1_555 1_555
C44 C45 1_555 1_555
C45 H25 1_555 1_555
C46 C45 1_555 1_555
H26 C46 1_555 1_555
C47 Si2 1_555 1_555
C48 C47 1_555 1_555
H27 C48 1_555 1_555
C49 C44 1_555 1_555
H28 C49 1_555 1_555
C50 C51 1_555 1_555
C51 C52 1_555 1_555
C52 H29 1_555 1_555
C53 C52 1_555 1_555
H30 C53 1_555 1_555
C54 Si2 1_555 1_555
C55 C54 1_555 1_555
H31 C55 1_555 1_555
C56 C51 1_555 1_555
H32 C56 1_555 1_555
Cd4 O17 1_555 1_555
O18 Cd4 1_555 1_555
O19 Cd4 1_555 1_555
O20 Cd4 1_555 1_555
Cd1_2 O5 1_555 1_555
Cd1_3 O7 1_555 1_555
Cd1A O9 1_555 1_555
Cd2_2 O11 1_555 1_555
Cd2_3 O5 1_555 1_555
Cd2_4 O8 1_555 1_555
Cd3A O15 1_555 1_555
Cd3A_2 O14 1_555 1_555
Cd3A_3 O12 1_555 1_555
O5_2 Cd1 1_555 1_555
O6_2 Cd1 1_555 1_555
O7_2 Cd1 1_555 1_555
O8_2 Cd2 1_555 1_555
O9A Cd1 1_555 1_555
O10A Cd1 1_555 1_555
O11_2 Cd2 1_555 1_555
O12_2 Cd2 1_555 1_555
O12A Cd3 1_555 1_555
O13A Cd3 1_555 1_555
O14A Cd3 1_555 1_555
O15A Cd3 1_555 1_555
Cd2 O5_2 1_555 1_555
O6 Cd1_2 1_555 1_555
O10 Cd1A 1_555 1_555
O12 Cd2_4 1_555 1_555
O13 Cd3A_3 1_555 1_555
C6 C7 1_555 1_555
C11 C12 1_555 1_555
C13 C14 1_555 1_555
C18 C19 1_555 1_555
C20 C21 1_555 1_555
C25 C26 1_555 1_555
C27 C28 1_555 1_555
C34 C35 1_555 1_555
C39 C40 1_555 1_555
C41 C42 1_555 1_555
C46 C47 1_555 1_555
C48 C49 1_555 1_555
C53 C54 1_555 1_555
C55 C56 1_555 1_555
Cd3A O12_2 1_555 1_555

#END
