
#######################################################################
#
#                 Cambridge Crystallographic Data Centre
#                                CCDC 
#
#######################################################################
#
# If this CIF has been generated from an entry in the Cambridge 
# Structural Database, then it will include bibliographic, chemical, 
# crystal, experimental, refinement or atomic coordinate data resulting 
# from the CCDC's data processing and validation procedures.
#
#######################################################################

data_ODODIW
_chemical_formula_moiety         '(C72 H66 N4 O22 Si2 Zn5)n'
_symmetry_cell_setting           triclinic
_symmetry_space_group_name_H-M   'P -1'
_symmetry_Int_Tables_number      2
_space_group_name_Hall           '-P 1'
loop_
_symmetry_equiv_pos_site_id
_symmetry_equiv_pos_as_xyz
1 x,y,z
2 -x,-y,-z
_cell_length_a                   13.9350(16)
_cell_length_b                   14.196(3)
_cell_length_c                   14.6708(17)
_cell_angle_alpha                107.988(2)
_cell_angle_beta                 113.7350(10)
_cell_angle_gamma                100.298(2)
_cell_volume                     2368.84
loop_
_atom_site_label
_atom_site_type_symbol
_atom_site_fract_x
_atom_site_fract_y
_atom_site_fract_z
Zn1 Zn 0.5000 1.0000 0.5000
Zn2 Zn 0.52875(6) 1.20329(6) 0.44345(6)
Zn3 Zn 0.30330(7) 0.99584(5) 0.26420(7)
Si1 Si 0.23617(12) 1.36569(12) 0.88000(12)
O1 O -0.3143(4) 1.2195(4) 0.5134(4)
O2 O -0.3362(3) 1.1227(3) 0.6050(4)
O3 O 0.3123(4) 1.1105(4) 1.2139(4)
O4 O 0.4751(3) 1.2443(3) 1.3211(4)
O5 O 0.2704(3) 1.8642(3) 1.1488(3)
O6 O 0.4477(3) 1.9072(3) 1.1778(4)
O7 O 0.4651(3) 1.2434(3) 0.5395(3)
O8 O 0.4270(3) 1.0951(3) 0.5626(3)
C1 C -0.2775(5) 1.1843(5) 0.5872(5)
C2 C -0.1540(5) 1.2242(5) 0.6572(5)
C3 C -0.0832(5) 1.2505(6) 0.6158(5)
H1 H -0.1143 1.2412 0.5415
C4 C 0.0325(5) 1.2902(6) 0.6830(5)
H2 H 0.0792 1.3085 0.6540
C5 C 0.0806(4) 1.3036(4) 0.7912(4)
C6 C 0.0088(5) 1.2796(4) 0.8337(5)
H3 H 0.0398 1.2923 0.9089
C7 C -0.1051(5) 1.2382(5) 0.7668(5)
H4 H -0.1517 1.2186 0.7954
C8 C 0.3839(5) 1.1938(5) 1.2355(5)
C9 C 0.3511(5) 1.2370(5) 1.1497(5)
C10 C 0.4095(5) 1.3402(5) 1.1743(5)
H5 H 0.4733 1.3836 1.2443
C11 C 0.3731(5) 1.3782(5) 1.0950(5)
H6 H 0.4109 1.4493 1.1127
C12 C 0.2821(5) 1.3150(5) 0.9893(5)
C13 C 0.2272(5) 1.2123(5) 0.9675(5)
H7 H 0.1662 1.1672 0.8962
C14 C 0.2590(6) 1.1742(5) 1.0469(5)
H8 H 0.2178 1.1048 1.0310
C15 C 0.3518(5) 1.8424(5) 1.1353(5)
C16 C 0.3235(5) 1.7295(5) 1.0656(5)
C17 C 0.4057(5) 1.6933(5) 1.0523(5)
H9 H 0.4785 1.7419 1.0822
C18 C 0.3809(5) 1.5850(5) 0.9947(5)
H10 H 0.4383 1.5607 0.9888
C19 C 0.2725(5) 1.5117(4) 0.9455(4)
C20 C 0.1909(5) 1.5504(5) 0.9554(5)
H11 H 0.1164 1.5030 0.9207
C21 C 0.2163(5) 1.6579(5) 1.0154(5)
H12 H 0.1591 1.6822 1.0219
C22 C 0.4293(5) 1.1880(5) 0.5788(5)
C23 C 0.3828(5) 1.2350(5) 0.6510(5)
C24 C 0.3934(5) 1.3414(4) 0.6860(5)
H13 H 0.4291 1.3853 0.6631
C25 C 0.3512(5) 1.3832(5) 0.7550(5)
H14 H 0.3579 1.4555 0.7779
C26 C 0.2995(4) 1.3207(4) 0.7909(5)
C27 C 0.2899(5) 1.2135(5) 0.7535(5)
H15 H 0.2546 1.1689 0.7761
C28 C 0.3305(5) 1.1724(5) 0.6853(5)
H16 H 0.3226 1.0998 0.6612
O9 O 0.4642(3) 1.0449(3) 0.3744(3)
O10 O 0.2048(5) 1.0199(6) 0.3236(6)
N1 N 0.1129(6) 1.0977(7) 0.3951(6)
C29 C 0.1856(8) 1.0958(8) 0.3541(7)
H17 H 0.2207 1.1576 0.3508
C30 C 0.1013(10) 1.1982(8) 0.4305(9)
H18 H 0.1454 1.2462 0.4145
H19 H 0.1281 1.2271 0.5097
H20 H 0.0224 1.1905 0.3915
C31 C 0.0523(10) 1.0173(11) 0.4172(17)
H21 H 0.0027 1.0439 0.4418
H22 H 0.1066 1.0035 0.4745
H23 H 0.0080 0.9517 0.3498
H24 H 0.481(5) 1.013(5) 0.317(6)
Zn2A Zn -0.52875(6) 0.79671(6) 0.55655(6)
Zn3A Zn -0.30330(7) 1.00416(5) 0.73580(7)
Si1A Si -0.23617(12) 0.63431(12) 0.12000(12)
O1A O 0.3143(4) 0.7805(4) 0.4866(4)
O2A O 0.3362(3) 0.8773(3) 0.3950(4)
O3A O -0.3123(4) 0.8895(4) -0.2139(4)
O4A O -0.4751(3) 0.7557(3) -0.3211(4)
O5A O -0.2704(3) 0.1358(3) -0.1488(3)
O6A O -0.4477(3) 0.0928(3) -0.1778(4)
O7A O -0.4651(3) 0.7566(3) 0.4605(3)
O8A O -0.4270(3) 0.9049(3) 0.4374(3)
C1A C 0.2775(5) 0.8157(5) 0.4128(5)
C2A C 0.1540(5) 0.7758(5) 0.3428(5)
C3A C 0.0832(5) 0.7495(6) 0.3842(5)
H1A H 0.1143 0.7588 0.4585
C4A C -0.0325(5) 0.7098(6) 0.3170(5)
H2A H -0.0792 0.6915 0.3460
C5A C -0.0806(4) 0.6964(4) 0.2088(4)
C6A C -0.0088(5) 0.7204(4) 0.1663(5)
H3A H -0.0398 0.7077 0.0911
C7A C 0.1051(5) 0.7618(5) 0.2332(5)
H4A H 0.1517 0.7814 0.2046
C8A C -0.3839(5) 0.8062(5) -0.2355(5)
C9A C -0.3511(5) 0.7630(5) -0.1497(5)
C10A C -0.4095(5) 0.6598(5) -0.1743(5)
H5A H -0.4733 0.6164 -0.2443
C11A C -0.3731(5) 0.6218(5) -0.0950(5)
H6A H -0.4109 0.5507 -0.1127
C12A C -0.2821(5) 0.6850(5) 0.0107(5)
C13A C -0.2272(5) 0.7877(5) 0.0325(5)
H7A H -0.1662 0.8328 0.1038
C14A C -0.2590(6) 0.8258(5) -0.0469(5)
H8A H -0.2178 0.8952 -0.0310
C15A C -0.3518(5) 0.1576(5) -0.1353(5)
C16A C -0.3235(5) 0.2705(5) -0.0656(5)
C17A C -0.4057(5) 0.3067(5) -0.0523(5)
H9A H -0.4785 0.2581 -0.0822
C18A C -0.3809(5) 0.4150(5) 0.0053(5)
H10A H -0.4383 0.4393 0.0112
C19A C -0.2725(5) 0.4883(4) 0.0545(4)
C20A C -0.1909(5) 0.4496(5) 0.0446(5)
H11A H -0.1164 0.4970 0.0793
C21A C -0.2163(5) 0.3421(5) -0.0154(5)
H12A H -0.1591 0.3178 -0.0219
C22A C -0.4293(5) 0.8120(5) 0.4212(5)
C23A C -0.3828(5) 0.7650(5) 0.3490(5)
C24A C -0.3934(5) 0.6586(4) 0.3140(5)
H13A H -0.4291 0.6147 0.3369
C25A C -0.3512(5) 0.6168(5) 0.2450(5)
H14A H -0.3579 0.5445 0.2221
C26A C -0.2995(4) 0.6793(4) 0.2091(5)
C27A C -0.2899(5) 0.7865(5) 0.2465(5)
H15A H -0.2546 0.8311 0.2239
C28A C -0.3305(5) 0.8276(5) 0.3147(5)
H16A H -0.3226 0.9002 0.3388
O9A O -0.4642(3) 0.9551(3) 0.6256(3)
O10A O -0.2048(5) 0.9801(6) 0.6764(6)
N1A N -0.1129(6) 0.9023(7) 0.6049(6)
C29A C -0.1856(8) 0.9042(8) 0.6459(7)
H17A H -0.2207 0.8424 0.6492
C30A C -0.1013(10) 0.8018(8) 0.5695(9)
H18A H -0.1454 0.7538 0.5855
H19A H -0.1281 0.7729 0.4903
H20A H -0.0224 0.8095 0.6085
C31A C -0.0523(10) 0.9827(11) 0.5828(17)
H21A H -0.0027 0.9561 0.5582
H22A H -0.1066 0.9965 0.5255
H23A H -0.0080 1.0483 0.6502
H24A H -0.481(5) 0.987(5) 0.683(6)
Zn1_2 Zn -0.5000 1.0000 0.5000
Zn2_2 Zn -0.47125(6) 1.20329(6) 0.44345(6)
Zn2_3 Zn 0.52875(6) 1.20329(6) 1.44345(6)
Zn2A_2 Zn -0.52875(6) 0.79671(6) -0.44345(6)
Zn2A_3 Zn 0.47125(6) 0.79671(6) 0.55655(6)
Zn3_2 Zn 0.30330(7) 0.99584(5) 1.26420(7)
Zn3_3 Zn 0.30330(7) 1.99584(5) 1.26420(7)
Zn3A_2 Zn -0.30330(7) 0.00416(5) -0.26420(7)
Zn3A_3 Zn -0.30330(7) 1.00416(5) -0.26420(7)
O1_2 O 0.6857(4) 1.2195(4) 0.5134(4)
O1A_2 O -0.6857(4) 0.7805(4) 0.4866(4)
O2_2 O 0.6638(3) 1.1227(3) 0.6050(4)
O3_2 O 0.3123(4) 1.1105(4) 0.2139(4)
O3A_2 O -0.3123(4) 0.8895(4) 0.7861(4)
O4_2 O 0.4751(3) 1.2443(3) 0.3211(4)
O4A_2 O -0.4751(3) 0.7557(3) 0.6789(4)
O5_2 O 0.2704(3) 0.8642(3) 0.1488(3)
O5A_2 O -0.2704(3) 1.1358(3) 0.8512(3)
O8A_2 O 0.5730(3) 0.9049(3) 0.4374(3)
O9A_2 O 0.5358(3) 0.9551(3) 0.6256(3)
O11 O -0.0206(8) 1.3599(8) 0.4723(10)
N2 N -0.1325(6) 1.3942(6) 0.3407(8)
C32 C -0.2505(8) 1.4543(9) 0.3913(10)
H25 H -0.2424 1.5299 0.4205
H26 H -0.3291 1.4108 0.3618
C33 C -0.0983(7) 1.3909(6) 0.4379(8)
C34 C -0.1726(10) 1.4300(9) 0.4792(8)
H27 H -0.2148 1.3750 0.4908
H28 H -0.1281 1.4941 0.5495
C35 C -0.2171(8) 1.4281(8) 0.3039(8)
H29 H -0.2803 1.3725 0.2336
H30 H -0.1935 1.4915 0.2923
C36 C -0.0825(11) 1.3628(10) 0.2719(10)
H31 H -0.1211 1.3715 0.2042
H32 H -0.0891 1.2886 0.2535
H33 H -0.0033 1.4070 0.3115
C37 C -0.3330(7) 1.1049(5) 0.1693(9)
N3 N -0.2600(7) 1.0863(6) 0.1356(8)
C38 C -0.2942(10) 1.0929(9) 0.2749(9)
H34 H -0.3521 1.0359 0.2689
H35 H -0.2770 1.1595 0.3361
C39 C -0.1909(10) 1.0655(10) 0.2933(10)
H36 H -0.2006 0.9957 0.2959
H37 H -0.1254 1.1193 0.3630
C40 C -0.1758(8) 1.0632(8) 0.1971(10)
H38 H -0.1031 1.1159 0.2221
H39 H -0.1783 0.9924 0.1550
C41 C -0.2671(12) 1.0900(11) 0.0355(10)
H40 H -0.3327 1.1078 -0.0014
H41 H -0.2742 1.0208 -0.0133
H42 H -0.1994 1.1437 0.0535
O12 O -0.4165(11) 1.1276(8) 0.1202(11)
loop_
_geom_bond_atom_site_label_1
_geom_bond_atom_site_label_2
_geom_bond_site_symmetry_1
_geom_bond_site_symmetry_2
Zn1 O8 1_555 1_555
Zn2 O7 1_555 1_555
Zn3 O9 1_555 1_555
Si1 C5 1_555 1_555
O1 C1 1_555 1_555
O2 C1 1_555 1_555
O3 C8 1_555 1_555
O4 C8 1_555 1_555
O5 C15 1_555 1_555
O6 C15 1_555 1_555
O7 C22 1_555 1_555
O8 C22 1_555 1_555
C1 C2 1_555 1_555
C2 C3 1_555 1_555
C3 H1 1_555 1_555
C4 C3 1_555 1_555
H2 C4 1_555 1_555
C5 C4 1_555 1_555
C6 C5 1_555 1_555
H3 C6 1_555 1_555
C7 C2 1_555 1_555
H4 C7 1_555 1_555
C8 C9 1_555 1_555
C9 C10 1_555 1_555
C10 H5 1_555 1_555
C11 C10 1_555 1_555
H6 C11 1_555 1_555
C12 Si1 1_555 1_555
C13 C12 1_555 1_555
H7 C13 1_555 1_555
C14 C9 1_555 1_555
H8 C14 1_555 1_555
C15 C16 1_555 1_555
C16 C17 1_555 1_555
C17 H9 1_555 1_555
C18 C17 1_555 1_555
H10 C18 1_555 1_555
C19 Si1 1_555 1_555
C20 C19 1_555 1_555
H11 C20 1_555 1_555
C21 C16 1_555 1_555
H12 C21 1_555 1_555
C22 C23 1_555 1_555
C23 C24 1_555 1_555
C24 H13 1_555 1_555
C25 C24 1_555 1_555
H14 C25 1_555 1_555
C26 Si1 1_555 1_555
C27 C26 1_555 1_555
H15 C27 1_555 1_555
C28 C23 1_555 1_555
H16 C28 1_555 1_555
O9 Zn1 1_555 1_555
O10 Zn3 1_555 1_555
N1 C29 1_555 1_555
C29 O10 1_555 1_555
H17 C29 1_555 1_555
C30 N1 1_555 1_555
H18 C30 1_555 1_555
H19 C30 1_555 1_555
H20 C30 1_555 1_555
C31 N1 1_555 1_555
H21 C31 1_555 1_555
H22 C31 1_555 1_555
H23 C31 1_555 1_555
H24 O9 1_555 1_555
O11 C33 1_555 1_555
N2 C33 1_555 1_555
C32 H25 1_555 1_555
H26 C32 1_555 1_555
C33 C34 1_555 1_555
C34 C32 1_555 1_555
H27 C34 1_555 1_555
H28 C34 1_555 1_555
C35 N2 1_555 1_555
H29 C35 1_555 1_555
H30 C35 1_555 1_555
C36 N2 1_555 1_555
H31 C36 1_555 1_555
H32 C36 1_555 1_555
H33 C36 1_555 1_555
C37 N3 1_555 1_555
N3 C40 1_555 1_555
C38 C37 1_555 1_555
H34 C38 1_555 1_555
H35 C38 1_555 1_555
C39 C38 1_555 1_555
H36 C39 1_555 1_555
H37 C39 1_555 1_555
C40 C39 1_555 1_555
H38 C40 1_555 1_555
H39 C40 1_555 1_555
C41 N3 1_555 1_555
H40 C41 1_555 1_555
H41 C41 1_555 1_555
H42 C41 1_555 1_555
O12 C37 1_555 1_555
Zn2A O7A 1_555 1_555
Zn3A O9A 1_555 1_555
Si1A C5A 1_555 1_555
O1A C1A 1_555 1_555
O2A Zn1 1_555 1_555
O3A C8A 1_555 1_555
O4A C8A 1_555 1_555
O5A C15A 1_555 1_555
O6A C15A 1_555 1_555
O7A C22A 1_555 1_555
O8A C22A 1_555 1_555
C1A O2A 1_555 1_555
C2A C1A 1_555 1_555
C3A C2A 1_555 1_555
H1A C3A 1_555 1_555
C4A C3A 1_555 1_555
H2A C4A 1_555 1_555
C5A C4A 1_555 1_555
C6A C5A 1_555 1_555
H3A C6A 1_555 1_555
C7A C2A 1_555 1_555
H4A C7A 1_555 1_555
C8A C9A 1_555 1_555
C9A C10A 1_555 1_555
C10A H5A 1_555 1_555
C11A C10A 1_555 1_555
H6A C11A 1_555 1_555
C12A Si1A 1_555 1_555
C13A C12A 1_555 1_555
H7A C13A 1_555 1_555
C14A C9A 1_555 1_555
H8A C14A 1_555 1_555
C15A C16A 1_555 1_555
C16A C17A 1_555 1_555
C17A H9A 1_555 1_555
C18A C17A 1_555 1_555
H10A C18A 1_555 1_555
C19A Si1A 1_555 1_555
C20A C19A 1_555 1_555
H11A C20A 1_555 1_555
C21A C16A 1_555 1_555
H12A C21A 1_555 1_555
C22A C23A 1_555 1_555
C23A C24A 1_555 1_555
C24A H13A 1_555 1_555
C25A C24A 1_555 1_555
H14A C25A 1_555 1_555
C26A Si1A 1_555 1_555
C27A C26A 1_555 1_555
H15A C27A 1_555 1_555
C28A C23A 1_555 1_555
H16A C28A 1_555 1_555
O9A Zn2A 1_555 1_555
O10A Zn3A 1_555 1_555
N1A C29A 1_555 1_555
C29A O10A 1_555 1_555
H17A C29A 1_555 1_555
C30A N1A 1_555 1_555
H18A C30A 1_555 1_555
H19A C30A 1_555 1_555
H20A C30A 1_555 1_555
C31A N1A 1_555 1_555
H21A C31A 1_555 1_555
H22A C31A 1_555 1_555
H23A C31A 1_555 1_555
H24A O9A 1_555 1_555
Zn1_2 O2 1_555 1_555
Zn2_2 O1 1_555 1_555
Zn2_3 O4 1_555 1_555
Zn2A_2 O4A 1_555 1_555
Zn2A_3 O1A 1_555 1_555
Zn3_2 O3 1_555 1_555
Zn3_3 O5 1_555 1_555
Zn3A_2 O5A 1_555 1_555
Zn3A_3 O3A 1_555 1_555
O1_2 Zn2 1_555 1_555
O1A_2 Zn2A 1_555 1_555
O2_2 Zn1 1_555 1_555
O3_2 Zn3 1_555 1_555
O3A_2 Zn3A 1_555 1_555
O4_2 Zn2 1_555 1_555
O4A_2 Zn2A 1_555 1_555
O5_2 Zn3 1_555 1_555
O5A_2 Zn3A 1_555 1_555
O8A_2 Zn1 1_555 1_555
O9A_2 Zn1 1_555 1_555
Zn2 O9 1_555 1_555
C6 C7 1_555 1_555
C11 C12 1_555 1_555
C13 C14 1_555 1_555
C18 C19 1_555 1_555
C20 C21 1_555 1_555
C25 C26 1_555 1_555
C27 C28 1_555 1_555
C32 C35 1_555 1_555
O8A Zn1_2 1_555 1_555
C6A C7A 1_555 1_555
C11A C12A 1_555 1_555
C13A C14A 1_555 1_555
C18A C19A 1_555 1_555
C20A C21A 1_555 1_555
C25A C26A 1_555 1_555
C27A C28A 1_555 1_555
O9A Zn1_2 1_555 1_555
Zn2A_3 O9A_2 1_555 1_555

#END
