
#######################################################################
#
#                 Cambridge Crystallographic Data Centre
#                                CCDC 
#
#######################################################################
#
# If this CIF has been generated from an entry in the Cambridge 
# Structural Database, then it will include bibliographic, chemical, 
# crystal, experimental, refinement or atomic coordinate data resulting 
# from the CCDC's data processing and validation procedures.
#
#######################################################################

data_ATIXAE
_chemical_formula_moiety         '(C32 H36 N3 O10 S4 Tb1)n'
_symmetry_cell_setting           monoclinic
_symmetry_space_group_name_H-M   'P 21/n'
_symmetry_Int_Tables_number      14
_space_group_name_Hall           '-P 2yn'
loop_
_symmetry_equiv_pos_site_id
_symmetry_equiv_pos_as_xyz
1 x,y,z
2 1/2-x,1/2+y,1/2-z
3 -x,-y,-z
4 1/2+x,1/2-y,1/2+z
_cell_length_a                   8.3219(9)
_cell_length_b                   15.4318(11)
_cell_length_c                   28.647(3)
_cell_angle_alpha                90
_cell_angle_beta                 93.449(11)
_cell_angle_gamma                90
_cell_volume                     3672.24
loop_
_atom_site_label
_atom_site_type_symbol
_atom_site_fract_x
_atom_site_fract_y
_atom_site_fract_z
Tb1 Tb 0.77314(12) 1.01306(5) 0.71417(3)
S1 S 1.1826(7) 0.9302(3) 0.7027(2)
O1 O 0.6563(15) 0.9351(7) 0.6496(4)
O2 O 0.6004(16) 0.8857(7) 0.7191(5)
O3 O 0.3863(17) 0.5360(8) 0.2906(5)
O4 O 0.1704(18) 0.4555(8) 0.2889(5)
O5 O -0.1358(15) 0.0937(7) 0.6473(4)
O6 O -0.0695(15) 0.1490(7) 0.7177(4)
O7 O 0.9954(17) 0.9332(7) 0.6974(5)
O8 O 0.5626(17) 1.1138(7) 0.6982(5)
N1 N 0.3117(19) 0.5813(8) 0.5344(5)
N2 N 0.191(2) 0.4417(9) 0.5329(6)
N3 N 0.2405(19) 0.5157(8) 0.6062(6)
C1 C 0.589(2) 0.8784(10) 0.6766(7)
C2 C 0.516(2) 0.8019(10) 0.6509(7)
C3 C 0.508(2) 0.7949(11) 0.6030(7)
H1 H 0.5512 0.8405 0.5853
C4 C 0.440(3) 0.7238(12) 0.5792(8)
H2 H 0.4373 0.7201 0.5461
C5 C 0.373(2) 0.6559(10) 0.6070(7)
C6 C 0.382(2) 0.6629(11) 0.6537(7)
H3 H 0.3364 0.6173 0.6708
C7 C 0.454(2) 0.7316(11) 0.6797(7)
H4 H 0.4619 0.7326 0.7129
C8 C 0.306(2) 0.5805(11) 0.5800(7)
C9 C 0.256(2) 0.5090(10) 0.5112(7)
C10 C 0.183(2) 0.4480(11) 0.5792(7)
C11 C 0.265(3) 0.5044(11) 0.4611(7)
C12 C 0.364(2) 0.5610(11) 0.4382(7)
H5 H 0.4274 0.6024 0.4557
C13 C 0.371(3) 0.5569(12) 0.3886(7)
H6 H 0.4404 0.5943 0.3729
C14 C 0.272(2) 0.4958(10) 0.3627(7)
C15 C 0.179(2) 0.4410(11) 0.3864(7)
H7 H 0.1146 0.3999 0.3692
C16 C 0.174(3) 0.4421(12) 0.4348(7)
H8 H 0.1105 0.4012 0.4501
C17 C 0.278(2) 0.4935(10) 0.3119(7)
C18 C 0.121(2) 0.3732(10) 0.6053(6)
C19 C 0.103(2) 0.2935(10) 0.5818(7)
H9 H 0.1341 0.2876 0.5506
C20 C 0.038(2) 0.2221(11) 0.6052(7)
H10 H 0.0284 0.1678 0.5897
C21 C -0.012(3) 0.2294(12) 0.6491(8)
C22 C 0.006(2) 0.3111(10) 0.6735(7)
H11 H -0.0237 0.3168 0.7049
C23 C 0.066(2) 0.3807(11) 0.6500(7)
H12 H 0.0704 0.4358 0.6648
C24 C -0.072(2) 0.1525(11) 0.6735(7)
C25 C 1.241(3) 1.0026(12) 0.7489(8)
H13 H 1.2345 1.0624 0.7374
H14 H 1.3525 0.9900 0.7602
H15 H 1.1698 0.9954 0.7745
C26 C 1.244(3) 0.9918(12) 0.6536(8)
H16 H 1.2166 0.9596 0.6247
H17 H 1.3602 1.0016 0.6568
H18 H 1.1877 1.0476 0.6525
C27 C 0.607(3) 1.2349(14) 0.7665(9)
C28 C 0.410(4) 1.2575(19) 0.6867(12)
S2 S 0.5846(12) 1.2152(5) 0.7030(4)
Tb1_2 Tb -0.22686(12) 0.01306(5) 0.71417(3)
Tb1C Tb 0.27314(12) 0.48694(5) 0.21417(3)
O3C O 0.8863(17) 0.9640(8) 0.7906(5)
O4C O 0.6704(18) 1.0445(8) 0.7889(5)
O5_2 O 0.8642(15) 1.0937(7) 0.6473(4)
O6_2 O 0.9305(15) 1.1490(7) 0.7177(4)
S4 S 0.5324(9) 0.8192(5) 0.4445(3)
O9 O 0.627(2) 0.7979(11) 0.4886(7)
C29 C 0.535(4) 0.9376(16) 0.4420(11)
H19 H 0.4696 0.9611 0.4664
H20 H 0.4906 0.9569 0.4113
H21 H 0.6460 0.9584 0.4470
C30 C 0.334(3) 0.8101(17) 0.4553(10)
H22 H 0.3108 0.7502 0.4640
H23 H 0.2678 0.8257 0.4271
H24 H 0.3095 0.8490 0.4809
S5 S 1.0037(9) 0.8755(4) 0.5325(3)
O10 O 1.162(2) 0.9146(10) 0.5492(6)
C31 C 0.972(5) 0.792(2) 0.5723(13)
H25 H 1.0522 0.7463 0.5688
H26 H 0.8639 0.7681 0.5662
H27 H 0.9828 0.8150 0.6042
C32 C 0.845(3) 0.9449(16) 0.5504(10)
H28 H 0.8681 0.9624 0.5830
H29 H 0.7426 0.9137 0.5475
H30 H 0.8388 0.9965 0.5304
loop_
_geom_bond_atom_site_label_1
_geom_bond_atom_site_label_2
_geom_bond_site_symmetry_1
_geom_bond_site_symmetry_2
Tb1 O1 1_555 1_555
S1 O7 1_555 1_555
O1 C1 1_555 1_555
O2 Tb1 1_555 1_555
O3 C17 1_555 1_555
O4 C17 1_555 1_555
O5 C24 1_555 1_555
O6 C24 1_555 1_555
O7 Tb1 1_555 1_555
O8 Tb1 1_555 1_555
N1 C8 1_555 1_555
N2 C9 1_555 1_555
N3 C8 1_555 1_555
C1 O2 1_555 1_555
C2 C1 1_555 1_555
C3 C2 1_555 1_555
H1 C3 1_555 1_555
C4 C3 1_555 1_555
H2 C4 1_555 1_555
C5 C4 1_555 1_555
C6 C5 1_555 1_555
H3 C6 1_555 1_555
C7 C2 1_555 1_555
H4 C7 1_555 1_555
C8 C5 1_555 1_555
C9 N1 1_555 1_555
C10 N2 1_555 1_555
C11 C9 1_555 1_555
C12 C11 1_555 1_555
H5 C12 1_555 1_555
C13 C12 1_555 1_555
H6 C13 1_555 1_555
C14 C13 1_555 1_555
C15 C14 1_555 1_555
H7 C15 1_555 1_555
C16 C11 1_555 1_555
H8 C16 1_555 1_555
C17 C14 1_555 1_555
C18 C10 1_555 1_555
C19 C18 1_555 1_555
H9 C19 1_555 1_555
C20 C19 1_555 1_555
H10 C20 1_555 1_555
C21 C20 1_555 1_555
C22 C21 1_555 1_555
H11 C22 1_555 1_555
C23 C18 1_555 1_555
H12 C23 1_555 1_555
C24 C21 1_555 1_555
C25 S1 1_555 1_555
H13 C25 1_555 1_555
H14 C25 1_555 1_555
H15 C25 1_555 1_555
C26 S1 1_555 1_555
H16 C26 1_555 1_555
H17 C26 1_555 1_555
H18 C26 1_555 1_555
C27 S2 1_555 1_555
C28 S2 1_555 1_555
S2 O8 1_555 1_555
S4 O9 1_555 1_555
C29 S4 1_555 1_555
H19 C29 1_555 1_555
H20 C29 1_555 1_555
H21 C29 1_555 1_555
C30 S4 1_555 1_555
H22 C30 1_555 1_555
H23 C30 1_555 1_555
H24 C30 1_555 1_555
S5 O10 1_555 1_555
C31 S5 1_555 1_555
H25 C31 1_555 1_555
H26 C31 1_555 1_555
H27 C31 1_555 1_555
C32 S5 1_555 1_555
H28 C32 1_555 1_555
H29 C32 1_555 1_555
H30 C32 1_555 1_555
Tb1_2 O5 1_555 1_555
Tb1C O3 1_555 1_555
O3C Tb1 1_555 1_555
O4C Tb1 1_555 1_555
O5_2 Tb1 1_555 1_555
O6_2 Tb1 1_555 1_555
O4 Tb1C 1_555 1_555
O6 Tb1_2 1_555 1_555
N3 C10 1_555 1_555
C6 C7 1_555 1_555
C15 C16 1_555 1_555
C22 C23 1_555 1_555

#END
