
#######################################################################
#
#                 Cambridge Crystallographic Data Centre
#                                CCDC 
#
#######################################################################
#
# If this CIF has been generated from an entry in the Cambridge 
# Structural Database, then it will include bibliographic, chemical, 
# crystal, experimental, refinement or atomic coordinate data resulting 
# from the CCDC's data processing and validation procedures.
#
#######################################################################

data_IZUKIZ
_chemical_formula_moiety         '(C27 H15 Bi1 O6)n'
_symmetry_cell_setting           orthorhombic
_symmetry_space_group_name_H-M   'P b 21 a'
_symmetry_Int_Tables_number      29
_space_group_name_Hall           'P -2a -2ab'
loop_
_symmetry_equiv_pos_site_id
_symmetry_equiv_pos_as_xyz
1 x,y,z
2 -x,1/2+y,-z
3 1/2-x,1/2+y,z
4 1/2+x,y,-z
_cell_length_a                   32.366(10)
_cell_length_b                   28.0847(72)
_cell_length_c                   3.91323(99)
_cell_angle_alpha                90
_cell_angle_beta                 90
_cell_angle_gamma                90
_cell_volume                     3557.08
loop_
_atom_site_label
_atom_site_type_symbol
_atom_site_fract_x
_atom_site_fract_y
_atom_site_fract_z
C1 C 0.620040(12) 0.255909(8) 0.061535(6)
C2 C 0.654056(12) 0.284361(8) 0.129602(6)
C3 C 0.585348(12) 0.276455(8) -0.087411(6)
C4 C 0.653942(12) 0.332549(8) 0.051893(6)
C5 C 0.584341(12) 0.324670(8) -0.166978(55)
C6 C 0.61892(12) 0.352310(8) -0.096340(55)
C7 C 0.610116(33) 0.204439(74) 0.22884(72)
C8 C 0.580606(33) 0.184479(74) 0.44485(72)
C9 C 0.644410(33) 0.177154(74) 0.13856(72)
C10 C 0.585130(33) 0.138440(74) 0.56627(72)
C11 C 0.64895(33) 0.131250(74) 0.26133(72)
C12 C 0.619298(33) 0.111821(74) 0.47431(72)
C13 C 0.688995(33) 0.355070(74) 0.19570(72)
C14 C 0.689552(7) 0.393399(8) 0.421293(6)
C15 C 0.725195(7) 0.343404(8) 0.022936(6)
C16 C 0.725408(7) 0.419266(8) 0.474640(6)
C17 C 0.761041(7) 0.369385(8) 0.075986(6)
C18 C 0.761128(7) 0.407177(8) 0.302890(6)
C19 C 0.547653(10) 0.355122(8) -0.166035(6)
C20 C 0.540336(10) 0.403095(8) -0.099369(1)
C21 C 0.517858(10) 0.329537(8) -0.347501(6)
C22 C 0.504321(10) 0.424822(8) -0.211189(6)
C23 C 0.481849(10) 0.351348(8) -0.457576(6)
C24 C 0.475029(10) 0.398997(8) -0.389959(6)
C25 C 0.624219(10) 0.063100(1) 0.601838(6)
O1 O 0.65448(33) 0.040248(7) 0.52382(72)
O2 O 0.594913(33) 0.043855(7) 0.80945(72)
C26 C 0.799196(33) 0.43437(74) 0.36228(72)
O3 O 0.801981(33) 0.460037(74) 0.61022(72)
O4 O 0.831190(33) 0.430561(74) 0.13919(72)
C27 C 0.436819(10) 0.421943(8) -0.507490(6)
O5 O 0.410093(10) 0.398637(82) -0.643803(6)
O6 O 0.431732(10) 0.469589(8) -0.464645(6)
Bi1 Bi 0.36444(38) 0.4636(16) -0.8052(18)
O1A O 0.34552(33) 0.540248(7) -0.52382(72)
O2A O 0.405087(33) 0.543855(7) -0.80945(72)
O3C O 0.301981(33) 0.460037(74) -0.61022(72)
O4C O 0.331190(33) 0.430561(74) -1.13919(72)
Bi1A Bi 0.63556(38) -0.0364(16) 0.8052(18)
Bi1C Bi 0.86444(38) 0.4636(16) -0.1948(18)
Bi1C_2 Bi 0.86444(38) 0.4636(16) 0.8052(18)
loop_
_geom_bond_atom_site_label_1
_geom_bond_atom_site_label_2
_geom_bond_site_symmetry_1
_geom_bond_site_symmetry_2
C1 C2 1_555 1_555
C2 C4 1_555 1_555
C3 C1 1_555 1_555
C4 C6 1_555 1_555
C5 C3 1_555 1_555
C6 C5 1_555 1_555
C7 C1 1_555 1_555
C8 C7 1_555 1_555
C9 C7 1_555 1_555
C10 C8 1_555 1_555
C11 C9 1_555 1_555
C12 C10 1_555 1_555
C13 C4 1_555 1_555
C14 C13 1_555 1_555
C15 C13 1_555 1_555
C16 C14 1_555 1_555
C17 C15 1_555 1_555
C18 C16 1_555 1_555
C19 C5 1_555 1_555
C20 C19 1_555 1_555
C21 C19 1_555 1_555
C22 C20 1_555 1_555
C23 C21 1_555 1_555
C24 C22 1_555 1_555
C25 C12 1_555 1_555
O1 C25 1_555 1_555
O2 C25 1_555 1_555
C26 C18 1_555 1_555
O3 C26 1_555 1_555
O4 C26 1_555 1_555
C27 C24 1_555 1_555
O5 C27 1_555 1_555
O6 C27 1_555 1_555
Bi1 O5 1_555 1_555
O1A Bi1 1_555 1_555
O2A Bi1 1_555 1_555
O3C Bi1 1_555 1_555
O4C Bi1 1_555 1_555
Bi1A O1 1_555 1_555
Bi1C O4 1_555 1_555
Bi1C_2 O3 1_555 1_555
C11 C12 1_555 1_555
C17 C18 1_555 1_555
C23 C24 1_555 1_555
O2 Bi1A 1_555 1_555
O6 Bi1 1_555 1_555

#END
