
#######################################################################
#
#                 Cambridge Crystallographic Data Centre
#                                CCDC 
#
#######################################################################
#
# If this CIF has been generated from an entry in the Cambridge 
# Structural Database, then it will include bibliographic, chemical, 
# crystal, experimental, refinement or atomic coordinate data resulting 
# from the CCDC's data processing and validation procedures.
#
#######################################################################

data_HOVGEG
_chemical_formula_moiety         '(C42 H30 O18 Zn5)n'
_symmetry_cell_setting           monoclinic
_symmetry_space_group_name_H-M   'P 21/c'
_symmetry_Int_Tables_number      14
_space_group_name_Hall           '-P 2ybc'
loop_
_symmetry_equiv_pos_site_id
_symmetry_equiv_pos_as_xyz
1 x,y,z
2 -x,1/2+y,1/2-z
3 -x,-y,-z
4 x,1/2-y,1/2+z
_cell_length_a                   23.5728(14)
_cell_length_b                   6.4248(2)
_cell_length_c                   31.1276(15)
_cell_angle_alpha                90
_cell_angle_beta                 94.773(5)
_cell_angle_gamma                90
_cell_volume                     4697.94
loop_
_atom_site_label
_atom_site_type_symbol
_atom_site_fract_x
_atom_site_fract_y
_atom_site_fract_z
Zn1 Zn 0.30005(9) 0.6969(3) 0.67207(7)
O1 O 0.3013(5) -0.2263(12) 0.6055(3)
O2 O 0.5831(5) 0.2697(19) 0.3736(4)
O3 O 0.3374(6) 0.5835(17) 0.2020(4)
H1 H 0.3308 0.5919 0.2283
O4 O 0.4101(7) 0.428(3) 0.1810(6)
H2 H 0.4109 0.5740 0.1873
H3 H 0.4195 0.4056 0.1519
Zn2 Zn 0.33566(5) 0.39580(19) 0.59272(4)
Zn3 Zn 0.19263(6) 0.52361(17) 0.18978(4)
Zn4 Zn 0.19722(6) 0.05751(17) 0.21089(4)
Zn5 Zn 0.32676(6) 0.30872(18) 0.18804(4)
C1 C 0.2247(5) 0.4301(16) 0.5623(4)
C2 C 0.1765(4) 0.4736(15) 0.5285(3)
C3 C 0.1259(5) 0.5481(17) 0.5406(4)
H4 H 0.1211 0.5633 0.5698
C4 C 0.0816(5) 0.6018(19) 0.5106(4)
H5 H 0.0474 0.6506 0.5197
C5 C 0.0883(4) 0.5825(14) 0.4663(3)
C6 C 0.1411(4) 0.5062(15) 0.4537(3)
C7 C 0.1834(4) 0.4556(14) 0.4853(3)
H6 H 0.2181 0.4074 0.4769
C8 C 0.0399(4) 0.6336(16) 0.4354(3)
C9 C 0.0142(5) 0.8227(18) 0.4351(4)
H7 H 0.0277 0.9231 0.4549
C10 C -0.0301(5) 0.8684(19) 0.4072(4)
H8 H -0.0475 0.9979 0.4086
C11 C -0.0510(4) 0.7241(15) 0.3757(4)
C12 C -0.0249(5) 0.5375(16) 0.3761(3)
H9 H -0.0385 0.4370 0.3564
C13 C 0.0208(4) 0.4897(17) 0.4044(3)
H10 H 0.0389 0.3617 0.4027
C14 C -0.1007(5) 0.7720(17) 0.3448(4)
C15 C 0.1525(4) 0.4848(17) 0.4082(3)
C16 C 0.1442(5) 0.651(2) 0.3796(4)
H11 H 0.1318 0.7795 0.3888
C17 C 0.1557(5) 0.618(3) 0.3348(4)
H12 H 0.1511 0.7234 0.3144
C18 C 0.1739(5) 0.418(2) 0.3243(4)
C19 C 0.1802(6) 0.265(3) 0.3522(5)
H13 H 0.1896 0.1326 0.3428
C20 C 0.1733(6) 0.295(2) 0.3935(4)
H14 H 0.1824 0.1890 0.4132
C21 C 0.1814(6) 0.392(3) 0.2760(6)
C22 C 0.3140(4) -0.0566(11) 0.5870(3)
C23 C 0.3151(5) -0.0432(15) 0.5394(4)
C24 C 0.2701(5) -0.1138(16) 0.5131(4)
H15 H 0.2388 -0.1714 0.5250
C25 C 0.2705(4) -0.1006(16) 0.4686(4)
H16 H 0.2388 -0.1448 0.4511
C26 C 0.3178(4) -0.0218(15) 0.4495(3)
C27 C 0.3645(4) 0.0484(14) 0.4767(3)
C28 C 0.3621(5) 0.0380(14) 0.5208(3)
H17 H 0.3928 0.0867 0.5386
C29 C 0.3144(4) -0.0013(14) 0.4017(3)
C30 C 0.2969(5) -0.1627(17) 0.3761(3)
H18 H 0.2866 -0.2884 0.3880
C31 C 0.2945(5) -0.1383(17) 0.3319(4)
H19 H 0.2829 -0.2500 0.3143
C32 C 0.3089(5) 0.0471(15) 0.3131(3)
C33 C 0.3284(4) 0.2078(16) 0.3398(3)
H20 H 0.3408 0.3311 0.3281
C34 C 0.3295(4) 0.1856(15) 0.3835(3)
H21 H 0.3405 0.2973 0.4013
C35 C 0.3058(5) 0.0738(17) 0.2651(4)
C36 C 0.4171(4) 0.1287(15) 0.4587(3)
C37 C 0.4473(4) 0.0089(16) 0.4314(3)
H22 H 0.4353 -0.1261 0.4248
C38 C 0.4947(4) 0.0851(17) 0.4138(3)
H23 H 0.5147 0.0017 0.3959
C39 C 0.5125(4) 0.2869(16) 0.4228(3)
C40 C 0.4835(4) 0.4009(17) 0.4508(3)
H24 H 0.4961 0.5344 0.4581
C41 C 0.4363(4) 0.3251(15) 0.4685(3)
H25 H 0.4173 0.4075 0.4873
C42 C 0.5622(5) 0.3726(15) 0.4033(3)
O5 O 0.2141(4) 0.4240(11) 0.6006(2)
O6 O 0.2733(3) 0.4091(10) 0.5493(2)
O7 O -0.1207(3) 0.9555(12) 0.3440(3)
O8 O -0.1201(3) 0.6276(14) 0.3210(3)
O9 O 0.1845(4) 0.5299(16) 0.2523(3)
O10 O 0.1901(5) 0.194(2) 0.2653(3)
O11 O 0.3340(3) 0.0921(10) 0.6101(2)
O12 O 0.2763(4) -0.0524(12) 0.2418(2)
O13 O 0.3332(3) 0.2231(11) 0.2499(2)
O14 O 0.5915(3) 0.5074(10) 0.4243(2)
O15 O 0.3374(3) 0.4574(9) 0.6559(2)
H26 H 0.3775 0.4906 0.6635
O16 O 0.2389(3) 0.2774(9) 0.1765(2)
H27 H 0.2307 0.2460 0.1458
O17 O 0.1534(10) -0.119(6) 0.2534(7)
H28 H 0.1757 -0.2405 0.2613
H29 H 0.1176 -0.1613 0.2391
O18 O 0.2083(4) 0.8044(9) 0.1718(2)
H30 H 0.1907 0.8301 0.1426
Zn1_2 Zn 0.30005(9) -0.3031(3) 0.67207(7)
Zn1C Zn 0.30005(9) -0.1969(3) 0.17207(7)
Zn1C_2 Zn 0.30005(9) 0.8031(3) 0.17207(7)
O1_2 O 0.3013(5) 0.7737(12) 0.6055(3)
O3C O 0.3374(6) 0.9165(17) 0.7020(4)
Zn2B Zn 0.66434(5) 0.60420(19) 0.40728(4)
Zn3A Zn -0.19263(6) 1.02361(17) 0.31022(4)
Zn3C Zn 0.19263(6) 0.97639(17) 0.68978(4)
Zn4_2 Zn 0.19722(6) 1.05751(17) 0.21089(4)
Zn4A Zn -0.19722(6) 0.55751(17) 0.28911(4)
Zn5C Zn 0.32676(6) 0.19128(18) 0.68804(4)
Zn5C_2 Zn 0.32676(6) 1.19128(18) 0.68804(4)
O7A O 0.1207(3) 0.4555(12) 0.1560(3)
O8A O 0.1201(3) 0.1276(14) 0.1790(3)
O11C O 0.3340(3) 0.4079(10) 0.1101(2)
O12C O 0.2763(4) 0.5524(12) 0.7418(2)
O14B O 0.4085(3) 0.4926(10) 0.5757(2)
O15C O 0.3374(3) 0.0426(9) 0.1559(2)
O18_2 O 0.2083(4) -0.1956(9) 0.1718(2)
O18C O 0.2083(4) 0.6956(9) 0.6718(2)
loop_
_geom_bond_atom_site_label_1
_geom_bond_atom_site_label_2
_geom_bond_site_symmetry_1
_geom_bond_site_symmetry_2
Zn1 O15 1_555 1_555
O1 C22 1_555 1_555
O2 C42 1_555 1_555
O3 H1 1_555 1_555
O4 H2 1_555 1_555
H3 O4 1_555 1_555
Zn2 O6 1_555 1_555
Zn3 O9 1_555 1_555
Zn4 O10 1_555 1_555
Zn5 O3 1_555 1_555
C1 C2 1_555 1_555
C2 C3 1_555 1_555
C3 H4 1_555 1_555
C4 C3 1_555 1_555
H5 C4 1_555 1_555
C5 C4 1_555 1_555
C6 C5 1_555 1_555
C7 C2 1_555 1_555
H6 C7 1_555 1_555
C8 C5 1_555 1_555
C9 C8 1_555 1_555
H7 C9 1_555 1_555
C10 C9 1_555 1_555
H8 C10 1_555 1_555
C11 C10 1_555 1_555
C12 C11 1_555 1_555
H9 C12 1_555 1_555
C13 C8 1_555 1_555
H10 C13 1_555 1_555
C14 C11 1_555 1_555
C15 C6 1_555 1_555
C16 C15 1_555 1_555
H11 C16 1_555 1_555
C17 C16 1_555 1_555
H12 C17 1_555 1_555
C18 C17 1_555 1_555
C19 C18 1_555 1_555
H13 C19 1_555 1_555
C20 C15 1_555 1_555
H14 C20 1_555 1_555
C21 C18 1_555 1_555
C22 C23 1_555 1_555
C23 C24 1_555 1_555
C24 H15 1_555 1_555
C25 C24 1_555 1_555
H16 C25 1_555 1_555
C26 C25 1_555 1_555
C27 C26 1_555 1_555
C28 C23 1_555 1_555
H17 C28 1_555 1_555
C29 C26 1_555 1_555
C30 C29 1_555 1_555
H18 C30 1_555 1_555
C31 C30 1_555 1_555
H19 C31 1_555 1_555
C32 C31 1_555 1_555
C33 C32 1_555 1_555
H20 C33 1_555 1_555
C34 C29 1_555 1_555
H21 C34 1_555 1_555
C35 C32 1_555 1_555
C36 C27 1_555 1_555
C37 C36 1_555 1_555
H22 C37 1_555 1_555
C38 C37 1_555 1_555
H23 C38 1_555 1_555
C39 C38 1_555 1_555
C40 C39 1_555 1_555
H24 C40 1_555 1_555
C41 C36 1_555 1_555
H25 C41 1_555 1_555
C42 C39 1_555 1_555
O5 C1 1_555 1_555
O6 C1 1_555 1_555
O7 C14 1_555 1_555
O8 C14 1_555 1_555
O9 C21 1_555 1_555
O10 C21 1_555 1_555
O11 Zn2 1_555 1_555
O12 Zn4 1_555 1_555
O13 Zn5 1_555 1_555
O14 C42 1_555 1_555
O15 Zn2 1_555 1_555
H26 O15 1_555 1_555
O16 Zn3 1_555 1_555
H27 O16 1_555 1_555
O17 Zn4 1_555 1_555
H28 O17 1_555 1_555
H29 O17 1_555 1_555
O18 Zn3 1_555 1_555
H30 O18 1_555 1_555
Zn1_2 O1 1_555 1_555
Zn1C O12 1_555 1_555
Zn1C_2 O3 1_555 1_555
O1_2 Zn1 1_555 1_555
O3C Zn1 1_555 1_555
Zn2B O14 1_555 1_555
Zn3A O7 1_555 1_555
Zn3C O18C 1_555 1_555
Zn4_2 O18 1_555 1_555
Zn4A O8 1_555 1_555
Zn5C O11 1_555 1_555
Zn5C_2 O3C 1_555 1_555
O7A Zn3 1_555 1_555
O8A Zn4 1_555 1_555
O11C Zn5 1_555 1_555
O12C Zn1 1_555 1_555
O14B Zn2 1_555 1_555
O15C Zn5 1_555 1_555
O18_2 Zn4 1_555 1_555
O18C Zn1 1_555 1_555
O4 Zn5 1_555 1_555
Zn4 O16 1_555 1_555
Zn5 O16 1_555 1_555
C6 C7 1_555 1_555
C12 C13 1_555 1_555
C19 C20 1_555 1_555
C22 O11 1_555 1_555
C27 C28 1_555 1_555
C33 C34 1_555 1_555
C35 O12 1_555 1_555
C35 O13 1_555 1_555
C40 C41 1_555 1_555
O15 Zn5C 1_555 1_555
O18 Zn1C_2 1_555 1_555
Zn1C O15C 1_555 1_555
Zn1C O18_2 1_555 1_555

#END
