
#######################################################################
#
#                 Cambridge Crystallographic Data Centre
#                                CCDC 
#
#######################################################################
#
# If this CIF has been generated from an entry in the Cambridge 
# Structural Database, then it will include bibliographic, chemical, 
# crystal, experimental, refinement or atomic coordinate data resulting 
# from the CCDC's data processing and validation procedures.
#
#######################################################################

data_NEVPOU
_chemical_formula_moiety         '(C16 H20 Cl12 Cu3 N24 O3 Zn3 2-)n'
_symmetry_cell_setting           tetragonal
_symmetry_space_group_name_H-M   'P 42/n c m'
_symmetry_Int_Tables_number      138
_space_group_name_Hall           '-P 4ac 2ac'
loop_
_symmetry_equiv_pos_site_id
_symmetry_equiv_pos_as_xyz
1 x,y,z
2 1/2-y,x,1/2+z
3 y,1/2-x,1/2+z
4 1/2+y,1/2+x,-z
5 1/2-x,1/2-y,z
6 -x,1/2+y,1/2-z
7 1/2+x,-y,1/2-z
8 -y,-x,-z
9 -x,-y,-z
10 1/2+y,-x,1/2-z
11 -y,1/2+x,1/2-z
12 1/2-y,1/2-x,z
13 1/2+x,1/2+y,-z
14 x,1/2-y,1/2+z
15 1/2-x,y,1/2+z
16 y,x,z
_cell_length_a                   18.1136(9)
_cell_length_b                   18.1136(9)
_cell_length_c                   13.1866(7)
_cell_angle_alpha                90
_cell_angle_beta                 90
_cell_angle_gamma                90
_cell_volume                     4326.56
loop_
_atom_site_label
_atom_site_type_symbol
_atom_site_fract_x
_atom_site_fract_y
_atom_site_fract_z
_atom_site_U_iso_or_equiv
_atom_site_thermal_displace_type
Zn1 Zn 0.2500 0.7500 0.2500 0.0219 Uani
Cl2 Cl 0.15338(6) 0.78529(6) 0.14917(8) 0.0301 Uani
Cl2I Cl 0.28529(6) 0.84662(6) 0.35083(8) 0.0301 Uani
Cl2J Cl 0.21471(6) 0.65338(6) 0.35083(8) 0.0301 Uani
Cl2D Cl 0.34662(6) 0.71471(6) 0.14917(8) 0.0301 Uani
Cu1 Cu 0.01194(2) 0.48806(2) 0.23450(4) 0.0111 Uani
Cu2 Cu 0.0000 0.5000 0.5000 0.0106 Uani
Cl1 Cl 0.08012(5) 0.41988(5) 0.37630(9) 0.0178 Uani
O1 O -0.0400(2) 0.5400(2) 0.0817(3) 0.0365 Uani
N1 N 0.01891(16) 0.58931(16) 0.4141(2) 0.0130 Uani
N2 N 0.02308(16) 0.58717(16) 0.3095(2) 0.0125 Uani
N3 N 0.02861(17) 0.69986(16) 0.3592(2) 0.0145 Uani
N4 N 0.07792(19) 0.88557(17) 0.3873(2) 0.0213 Uani
N5 N 0.01221(16) 0.89098(16) 0.3326(2) 0.0156 Uani
N6 N 0.03465(17) 0.77625(15) 0.3584(2) 0.0136 Uani
C1 C 0.0217(2) 0.65759(19) 0.4428(3) 0.0165 Uani
H1 H 0.0200 0.6747 0.5112 0.0200 Uiso
C2 C 0.0301(2) 0.65493(19) 0.2778(3) 0.0146 Uani
H2 H 0.0349 0.6700 0.2087 0.0180 Uiso
C3 C 0.0904(2) 0.8157(2) 0.4005(3) 0.0207 Uani
H3 H 0.1312 0.7954 0.4370 0.0250 Uiso
C4 C -0.0130(2) 0.8245(2) 0.3164(3) 0.0182 Uani
H4 H -0.0566 0.8123 0.2793 0.0220 Uiso
H5 H -0.0388 0.5902 0.0897 0.0270 Uiso
Cu1C Cu -0.01194(2) 0.51194(2) 0.76550(4) 0.0111 Uani
Cu1I Cu -0.01194(2) 0.98806(2) 0.26550(4) 0.0111 Uani
Cu1B Cu 0.48806(2) 0.48806(2) 0.73450(4) 0.0111 Uani
Cu1A Cu 0.01194(2) 0.01194(2) 0.73450(4) 0.0111 Uani
Cu1J Cu -0.48806(2) 0.51194(2) 0.26550(4) 0.0111 Uani
Cl1C Cl -0.08012(5) 0.58012(5) 0.62370(9) 0.0178 Uani
O1C O 0.0400(2) 0.4600(2) 0.9183(3) 0.0365 Uani
N1C N 0.08931(16) 0.51891(16) 0.5859(2) 0.0130 Uani
N1H N -0.01891(16) 0.41069(16) 0.5859(2) 0.0130 Uani
N1K N -0.08931(16) 0.48109(16) 0.4141(2) 0.0130 Uani
N2C N 0.08717(16) 0.52308(16) 0.6905(2) 0.0125 Uani
N2H N -0.02308(16) 0.41283(16) 0.6905(2) 0.0125 Uani
N2K N -0.08717(16) 0.47692(16) 0.3095(2) 0.0125 Uani
N3C N 0.19986(16) 0.52861(17) 0.6408(2) 0.0145 Uani
N3H N -0.02861(17) 0.30014(16) 0.6408(2) 0.0145 Uani
N3K N -0.19986(16) 0.47139(17) 0.3592(2) 0.0145 Uani
N4C N 0.38557(17) 0.57792(19) 0.6127(2) 0.0213 Uani
N4H N -0.07792(19) 0.11443(17) 0.6127(2) 0.0213 Uani
N4K N -0.38557(17) 0.42208(19) 0.3873(2) 0.0213 Uani
N5C N 0.39098(16) 0.51221(16) 0.6674(2) 0.0156 Uani
N5H N -0.01221(16) 0.10902(16) 0.6674(2) 0.0156 Uani
N5K N -0.39098(16) 0.48779(16) 0.3326(2) 0.0156 Uani
N5J N 0.10902(16) 0.51221(16) 0.1674(2) 0.0156 Uani
N5E N -0.01221(16) 0.39098(16) 0.1674(2) 0.0156 Uani
N5B N -0.10902(16) 0.48779(16) 0.8326(2) 0.0156 Uani
N5M N 0.01221(16) 0.60902(16) 0.8326(2) 0.0156 Uani
N6C N 0.27625(15) 0.53465(17) 0.6416(2) 0.0136 Uani
N6H N -0.03465(17) 0.22375(15) 0.6416(2) 0.0136 Uani
N6K N -0.27625(15) 0.46535(17) 0.3584(2) 0.0136 Uani
C1C C 0.15759(19) 0.5217(2) 0.5572(3) 0.0165 Uani
C1H C -0.0217(2) 0.34241(19) 0.5572(3) 0.0165 Uani
C1K C -0.15759(19) 0.4783(2) 0.4428(3) 0.0165 Uani
H1C H 0.1747 0.5200 0.4888 0.0200 Uiso
H1H H -0.0200 0.3253 0.4888 0.0200 Uiso
H1K H -0.1747 0.4800 0.5112 0.0200 Uiso
C2C C 0.15493(19) 0.5301(2) 0.7222(3) 0.0146 Uani
C2H C -0.0301(2) 0.34507(19) 0.7222(3) 0.0146 Uani
C2K C -0.15493(19) 0.4699(2) 0.2778(3) 0.0146 Uani
H2C H 0.1700 0.5349 0.7913 0.0180 Uiso
H2H H -0.0349 0.3300 0.7913 0.0180 Uiso
H2K H -0.1700 0.4651 0.2087 0.0180 Uiso
C3C C 0.3157(2) 0.5904(2) 0.5995(3) 0.0207 Uani
C3H C -0.0904(2) 0.1843(2) 0.5995(3) 0.0207 Uani
C3K C -0.3157(2) 0.4096(2) 0.4005(3) 0.0207 Uani
H3C H 0.2954 0.6312 0.5630 0.0250 Uiso
H3H H -0.1312 0.2046 0.5630 0.0250 Uiso
H3K H -0.2954 0.3688 0.4370 0.0250 Uiso
C4C C 0.3245(2) 0.4870(2) 0.6836(3) 0.0182 Uani
C4H C 0.0130(2) 0.1755(2) 0.6836(3) 0.0182 Uani
C4K C -0.3245(2) 0.5130(2) 0.3164(3) 0.0182 Uani
H4C H 0.3123 0.4434 0.7207 0.0220 Uiso
H4H H 0.0566 0.1877 0.7207 0.0220 Uiso
H4K H -0.3123 0.5566 0.2793 0.0220 Uiso
H5K H -0.0902 0.5388 0.0897 0.0270 Uiso
H5C H 0.0902 0.4612 0.9103 0.0270 Uiso
H5H H 0.0388 0.4098 0.9103 0.0270 Uiso
Zn2 Zn -0.17326(7) 0.67326(7) 0.14149(14) 0.0489 Uani
Cl3 Cl -0.06454(13) 0.70904(10) 0.07059(16) 0.0321 Uani
Cl4 Cl -0.15982(16) 0.65982(16) 0.3078(4) 0.0615 Uani
O2 O -0.2500 0.7500 0.1120(12) 0.0683 Uani
Zn2O Zn -0.32674(7) 0.82674(7) 0.14149(14) 0.0489 Uani
Cl3K Cl -0.20904(10) 0.56454(13) 0.07059(16) 0.0321 Uani
Cl3O Cl -0.29096(10) 0.93546(13) 0.07059(16) 0.0321 Uani
Cl3D Cl -0.43546(13) 0.79096(10) 0.07059(16) 0.0321 Uani
Cl4O Cl -0.34018(16) 0.84018(16) 0.3078(4) 0.0615 Uani
loop_
_atom_site_aniso_label
_atom_site_aniso_U_11
_atom_site_aniso_U_22
_atom_site_aniso_U_33
_atom_site_aniso_U_23
_atom_site_aniso_U_13
_atom_site_aniso_U_12
Zn1 0.0210(3) 0.0210(3) 0.0238(4) 0.000 0.000 0.000
Cl2 0.0298(5) 0.0286(5) 0.0319(5) 0.0027(4) -0.0081(4) 0.0016(4)
Cl2I 0.0286 0.0298 0.0319 -0.0081 -0.0027 -0.0016
Cl2J 0.0286 0.0298 0.0319 0.0081 0.0027 -0.0016
Cl2D 0.0298 0.0286 0.0319 -0.0027 0.0081 0.0016
Cu1 0.0101(2) 0.0101(2) 0.0131(3) -0.00312(15) 0.00312(15) -0.0028(2)
Cu2 0.0103(3) 0.0103(3) 0.0111(4) 0.0036(2) -0.0036(2) -0.0025(3)
Cl1 0.0187(4) 0.0187(4) 0.0161(6) 0.0000(3) 0.0000(3) 0.0034(5)
O1 0.0388(16) 0.0388(16) 0.032(2) 0.0114(15) -0.0114(15) -0.018(2)
N1 0.0135(14) 0.0129(14) 0.0127(14) 0.0014(11) 0.0005(11) -0.0005(11)
N2 0.0134(14) 0.0152(14) 0.0090(13) 0.0000(11) 0.0013(10) -0.0006(11)
N3 0.0209(15) 0.0081(14) 0.0145(13) 0.0024(11) 0.0024(11) -0.0014(12)
N4 0.0285(18) 0.0142(16) 0.0211(15) 0.0003(12) -0.0096(13) -0.0008(13)
N5 0.0169(15) 0.0153(15) 0.0147(14) 0.0010(11) -0.0001(11) 0.0033(12)
N6 0.0199(15) 0.0065(13) 0.0145(13) 0.0021(11) -0.0009(11) -0.0001(11)
C1 0.0241(19) 0.0108(16) 0.0145(16) -0.0010(13) -0.0024(14) 0.0000(14)
C2 0.0193(18) 0.0114(17) 0.0130(15) 0.0006(13) 0.0007(13) -0.0027(13)
C3 0.028(2) 0.0131(18) 0.0211(17) 0.0018(14) -0.0082(16) 0.0009(15)
C4 0.0192(18) 0.0149(17) 0.0206(18) 0.0037(14) -0.0003(15) -0.0019(14)
Cu1C 0.0101 0.0101 0.0131 -0.00312 0.00312 -0.0028
Cu1I 0.0101 0.0101 0.0131 0.00312 0.00312 0.0028
Cu1B 0.0101 0.0101 0.0131 -0.00312 -0.00312 0.0028
Cu1A 0.0101 0.0101 0.0131 0.00312 0.00312 0.0028
Cu1J 0.0101 0.0101 0.0131 -0.00312 -0.00312 0.0028
Cl1C 0.0187 0.0187 0.0161 0 0 0.0034
O1C 0.0388 0.0388 0.032 0.0114 -0.0114 -0.018
N1C 0.0129 0.0135 0.0127 -0.0005 -0.0014 -0.0005
N1H 0.0135 0.0129 0.0127 0.0014 0.0005 -0.0005
N1K 0.0129 0.0135 0.0127 -0.0005 -0.0014 -0.0005
N2C 0.0152 0.0134 0.009 -0.0013 0 -0.0006
N2H 0.0134 0.0152 0.009 0 0.0013 -0.0006
N2K 0.0152 0.0134 0.009 -0.0013 0 -0.0006
N3C 0.0081 0.0209 0.0145 -0.0024 -0.0024 -0.0014
N3H 0.0209 0.0081 0.0145 0.0024 0.0024 -0.0014
N3K 0.0081 0.0209 0.0145 -0.0024 -0.0024 -0.0014
N4C 0.0142 0.0285 0.0211 0.0096 -0.0003 -0.0008
N4H 0.0285 0.0142 0.0211 0.0003 -0.0096 -0.0008
N4K 0.0142 0.0285 0.0211 0.0096 -0.0003 -0.0008
N5C 0.0153 0.0169 0.0147 0.0001 -0.001 0.0033
N5H 0.0169 0.0153 0.0147 0.001 -0.0001 0.0033
N5K 0.0153 0.0169 0.0147 0.0001 -0.001 0.0033
N5J 0.0153 0.0169 0.0147 0.0001 0.001 -0.0033
N5E 0.0169 0.0153 0.0147 -0.001 -0.0001 -0.0033
N5B 0.0153 0.0169 0.0147 0.0001 0.001 -0.0033
N5M 0.0169 0.0153 0.0147 -0.001 -0.0001 -0.0033
N6C 0.0065 0.0199 0.0145 0.0009 -0.0021 -0.0001
N6H 0.0199 0.0065 0.0145 0.0021 -0.0009 -0.0001
N6K 0.0065 0.0199 0.0145 0.0009 -0.0021 -0.0001
C1C 0.0108 0.0241 0.0145 0.0024 0.001 0
C1H 0.0241 0.0108 0.0145 -0.001 -0.0024 0
C1K 0.0108 0.0241 0.0145 0.0024 0.001 0
C2C 0.0114 0.0193 0.013 -0.0007 -0.0006 -0.0027
C2H 0.0193 0.0114 0.013 0.0006 0.0007 -0.0027
C2K 0.0114 0.0193 0.013 -0.0007 -0.0006 -0.0027
C3C 0.0131 0.028 0.0211 0.0082 -0.0018 0.0009
C3H 0.028 0.0131 0.0211 0.0018 -0.0082 0.0009
C3K 0.0131 0.028 0.0211 0.0082 -0.0018 0.0009
C4C 0.0149 0.0192 0.0206 0.0003 -0.0037 -0.0019
C4H 0.0192 0.0149 0.0206 0.0037 -0.0003 -0.0019
C4K 0.0149 0.0192 0.0206 0.0003 -0.0037 -0.0019
Zn2 0.0477(7) 0.0477(7) 0.0512(10) -0.0048(5) 0.0048(5) 0.0038(8)
Cl3 0.0505(13) 0.0132(9) 0.0326(10) 0.0099(7) -0.0044(9) -0.0082(8)
Cl4 0.0588(16) 0.0588(16) 0.067(2) -0.0076(14) 0.0076(14) 0.016(2)
O2 0.079(8) 0.079(8) 0.047(9) 0.000 0.000 0.045(10)
Zn2O 0.0477 0.0477 0.0512 0.0048 -0.0048 0.0038
Cl3K 0.0132 0.0505 0.0326 0.0044 -0.0099 -0.0082
Cl3O 0.0132 0.0505 0.0326 -0.0044 0.0099 -0.0082
Cl3D 0.0505 0.0132 0.0326 -0.0099 0.0044 -0.0082
Cl4O 0.0588 0.0588 0.067 0.0076 -0.0076 0.016
loop_
_geom_bond_atom_site_label_1
_geom_bond_atom_site_label_2
_geom_bond_site_symmetry_1
_geom_bond_site_symmetry_2
Zn1 Cl2 1_555 1_555
Cu1 Cl1 1_555 1_555
Cu2 Cl1 1_555 1_555
O1 Cu1 1_555 1_555
N1 Cu2 1_555 1_555
N2 Cu1 1_555 1_555
N3 N6 1_555 1_555
N4 N5 1_555 1_555
N5 C4 1_555 1_555
N6 C3 1_555 1_555
C1 N1 1_555 1_555
H1 C1 1_555 1_555
C2 N2 1_555 1_555
H2 C2 1_555 1_555
C3 N4 1_555 1_555
H3 C3 1_555 1_555
C4 N6 1_555 1_555
H4 C4 1_555 1_555
H5 O1 1_555 1_555
Zn2 Cl3 1_555 1_555
Cl4 Zn2 1_555 1_555
O2 Zn2 1_555 1_555
Cu1C Cl1C 1_555 1_555
Cu1I N5 1_555 1_555
Cu1B N5C 1_555 1_555
Cu1A N5H 1_555 1_555
Cu1J N5K 1_555 1_555
Cl1C Cu2 1_555 1_555
Cl2I Zn1 1_555 1_555
Cl2J Zn1 1_555 1_555
Cl2D Zn1 1_555 1_555
O1C Cu1C 1_555 1_555
N1C Cu2 1_555 1_555
N1H Cu2 1_555 1_555
N1K Cu2 1_555 1_555
N2C Cu1C 1_555 1_555
N2H Cu1C 1_555 1_555
N2K Cu1 1_555 1_555
N3C N6C 1_555 1_555
N3H N6H 1_555 1_555
N3K N6K 1_555 1_555
N4C N5C 1_555 1_555
N4H N5H 1_555 1_555
N4K N5K 1_555 1_555
N5C C4C 1_555 1_555
N5H C4H 1_555 1_555
N5K C4K 1_555 1_555
N5J Cu1 1_555 1_555
N5E Cu1 1_555 1_555
N5B Cu1C 1_555 1_555
N5M Cu1C 1_555 1_555
N6C C3C 1_555 1_555
N6H C3H 1_555 1_555
N6K C3K 1_555 1_555
C1C N1C 1_555 1_555
C1H N1H 1_555 1_555
C1K N1K 1_555 1_555
H1C C1C 1_555 1_555
H1H C1H 1_555 1_555
H1K C1K 1_555 1_555
C2C N2C 1_555 1_555
C2H N2H 1_555 1_555
C2K N2K 1_555 1_555
H2C C2C 1_555 1_555
H2H C2H 1_555 1_555
H2K C2K 1_555 1_555
C3C N4C 1_555 1_555
C3H N4H 1_555 1_555
C3K N4K 1_555 1_555
H3C C3C 1_555 1_555
H3H C3H 1_555 1_555
H3K C3K 1_555 1_555
C4C N6C 1_555 1_555
C4H N6H 1_555 1_555
C4K N6K 1_555 1_555
H4C C4C 1_555 1_555
H4H C4H 1_555 1_555
H4K C4K 1_555 1_555
H5K O1 1_555 1_555
H5C O1C 1_555 1_555
H5H O1C 1_555 1_555
Zn2O O2 1_555 1_555
Cl3K Zn2 1_555 1_555
Cl3O Zn2O 1_555 1_555
Cl3D Zn2O 1_555 1_555
Cl4O Zn2O 1_555 1_555
N1 N2 1_555 1_555
N3 C1 1_555 1_555
N3 C2 1_555 1_555
N1C N2C 1_555 1_555
N1H N2H 1_555 1_555
N1K N2K 1_555 1_555
N3C C1C 1_555 1_555
N3C C2C 1_555 1_555
N3H C1H 1_555 1_555
N3H C2H 1_555 1_555
N3K C1K 1_555 1_555
N3K C2K 1_555 1_555

#END
