
#######################################################################
#
#                 Cambridge Crystallographic Data Centre
#                                CCDC 
#
#######################################################################
#
# If this CIF has been generated from an entry in the Cambridge 
# Structural Database, then it will include bibliographic, chemical, 
# crystal, experimental, refinement or atomic coordinate data resulting 
# from the CCDC's data processing and validation procedures.
#
#######################################################################

data_QESRAI
_chemical_formula_moiety         '(C12 N6 O24 P5 Zn5 5-)n'
_symmetry_cell_setting           monoclinic
_symmetry_space_group_name_H-M   'C 2/c'
_symmetry_Int_Tables_number      15
_space_group_name_Hall           '-C 2yc'
loop_
_symmetry_equiv_pos_site_id
_symmetry_equiv_pos_as_xyz
1 x,y,z
2 -x,y,1/2-z
3 1/2+x,1/2+y,z
4 1/2-x,1/2+y,1/2-z
5 -x,-y,-z
6 x,-y,1/2+z
7 1/2-x,1/2-y,-z
8 1/2+x,1/2-y,1/2+z
_cell_length_a                   14.0189(3)
_cell_length_b                   13.4792(4)
_cell_length_c                   14.2787(5)
_cell_angle_alpha                90
_cell_angle_beta                 90.466(2)
_cell_angle_gamma                90
_cell_volume                     2698.06
loop_
_atom_site_label
_atom_site_type_symbol
_atom_site_fract_x
_atom_site_fract_y
_atom_site_fract_z
O11 O 0.0521(20) 0.5122(20) 0.5091(19)
O11D O -0.0521(20) 0.4878(20) 0.4909(19)
O12 O -0.0480(28) 0.0151(29) 0.5075(24)
O12D O 0.0480(28) -0.0151(29) 0.4925(24)
N1 N -0.2400(9) 0.1250(10) 0.3376(9)
C1 C -0.2381(15) 0.1371(15) 0.4360(14)
C2 C -0.2837(26) 0.0802(26) 0.4853(23)
C3 C -0.1913(30) 0.0550(31) 0.4923(28)
N2 N -0.2367(17) -0.0239(18) 0.4901(16)
C4 C -0.2652(25) -0.0878(27) 0.5678(25)
C5 C -0.2227(29) -0.1536(30) 0.5863(28)
C6 C -0.2605(54) -0.1935(51) 0.5333(49)
N3 N -0.2062(16) -0.2331(16) 0.5165(15)
N1F N -0.2600(9) -0.6250(10) 0.6624(9)
C1F C -0.2619(15) -0.6371(15) 0.5640(14)
C2F C -0.2163(26) -0.5802(26) 0.5147(23)
C3F C -0.3087(30) -0.5550(31) 0.5077(28)
N2F N -0.2633(17) -0.4761(18) 0.5099(16)
C4F C -0.2348(25) -0.4122(27) 0.4322(25)
C5F C -0.2773(29) -0.3464(30) 0.4137(28)
C6F C -0.2395(54) -0.3065(51) 0.4667(49)
N3F N -0.2938(16) -0.2669(16) 0.4835(15)
Zn1 Zn 0.1216(1) 0.1303(1) 0.7342(1)
Zn2 Zn -0.0259(1) 0.7301(1) 0.8742(1)
Zn3 Zn 0.0000 0.4341(1) 0.7500
P1 P 0.0000 -0.0696(3) 0.7500
P2 P 0.1465(2) 0.6128(2) 0.7737(2)
P3 P -0.0252(2) 0.2532(2) 0.6072(2)
O1 O 0.0583(7) 0.1829(7) 0.6237(6)
O2 O 0.0870(7) -0.0052(7) 0.7601(9)
O3 O 0.2495(5) 0.6133(5) 0.8111(5)
O4 O -0.1110(7) 0.2212(8) 0.6625(6)
O5 O 0.0081(10) -0.1350(7) 0.6649(7)
O6 O 0.0843(6) 0.6496(8) 0.8531(6)
O7 O -0.0513(6) 0.2538(6) 0.5044(5)
O8 O 0.1388(6) 0.6803(7) 0.6893(6)
O9 O 0.0036(8) 0.3579(7) 0.6359(6)
O10 O 0.1199(6) 0.5066(6) 0.7505(8)
Zn1A Zn -0.1216(1) 0.1303(1) 0.7658(1)
Zn1C Zn 0.3784(1) 0.6303(1) 0.7658(1)
Zn1B Zn -0.3784(1) 0.6303(1) 0.7342(1)
Zn2A Zn 0.0259(1) 0.7301(1) 0.6258(1)
Zn2A_2 Zn 0.0259(1) -0.2699(1) 0.6258(1)
Zn2E Zn -0.0259(1) 0.2699(1) 0.3742(1)
Zn2_2 Zn -0.0259(1) -0.2699(1) 0.8742(1)
Zn2D Zn 0.0259(1) 0.2699(1) 1.1258(1)
P2A P -0.1465(2) 0.6128(2) 0.7263(2)
P3A P 0.0252(2) 0.2532(2) 0.8928(2)
O1A O -0.0583(7) 0.1829(7) 0.8763(6)
O2A O -0.0870(7) -0.0052(7) 0.7399(9)
O3A O -0.2495(5) 0.6133(5) 0.6889(5)
O3C O 0.2505(5) 0.1133(5) 0.6889(5)
O3B O -0.2505(5) 0.1133(5) 0.8111(5)
O4A O 0.1110(7) 0.2212(8) 0.8375(6)
O5A O -0.0081(10) -0.1350(7) 0.8351(7)
O5A_2 O -0.0081(10) 0.8650(7) 0.8351(7)
O5_2 O 0.0081(10) 0.8650(7) 0.6649(7)
O6A O -0.0843(6) 0.6496(8) 0.6469(6)
O7A O 0.0513(6) 0.2538(6) 0.9956(5)
O7E O -0.0513(6) 0.7462(6) 1.0044(5)
O7D O 0.0513(6) 0.7462(6) 0.4956(5)
O8A O -0.1388(6) 0.6803(7) 0.8107(6)
O9A O -0.0036(8) 0.3579(7) 0.8641(6)
O10A O -0.1199(6) 0.5066(6) 0.7495(8)
loop_
_geom_bond_atom_site_label_1
_geom_bond_atom_site_label_2
_geom_bond_site_symmetry_1
_geom_bond_site_symmetry_2
Zn1 O1 1_555 1_555
Zn2 O6 1_555 1_555
Zn3 O9 1_555 1_555
P1 O2 1_555 1_555
P2 O3 1_555 1_555
P3 O1 1_555 1_555
O2 Zn1 1_555 1_555
O3 Zn1C 1_555 1_555
O4 P3 1_555 1_555
O5 P1 1_555 1_555
O6 P2 1_555 1_555
O7 P3 1_555 1_555
O8 P2 1_555 1_555
O9 P3 1_555 1_555
O10 Zn3 1_555 1_555
O11 O11D 1_555 1_555
O12 O12D 1_555 1_555
N1 C1 1_555 1_555
C1 C2 1_555 1_555
C2 C3 1_555 1_555
C3 C1 1_555 1_555
N2 C2 1_555 1_555
C4 N2 1_555 1_555
C5 C4 1_555 1_555
C6 C4 1_555 1_555
N3 C5 1_555 1_555
Zn1A O4 1_555 1_555
Zn1B O3A 1_555 1_555
Zn2A O8 1_555 1_555
Zn2A_2 O5 1_555 1_555
Zn2E O7 1_555 1_555
Zn2_2 O5A 1_555 1_555
Zn2D O7A 1_555 1_555
P2A O3A 1_555 1_555
P3A O1A 1_555 1_555
O1A Zn1A 1_555 1_555
O2A P1 1_555 1_555
O3C Zn1 1_555 1_555
O3B Zn1A 1_555 1_555
O4A Zn1 1_555 1_555
O5A P1 1_555 1_555
O5A_2 Zn2 1_555 1_555
O5_2 Zn2A 1_555 1_555
O6A Zn2A 1_555 1_555
O7A P3A 1_555 1_555
O7E Zn2 1_555 1_555
O7D Zn2A 1_555 1_555
O8A Zn2 1_555 1_555
O9A Zn3 1_555 1_555
O10A Zn3 1_555 1_555
N1F C1F 1_555 1_555
C1F C2F 1_555 1_555
C2F C3F 1_555 1_555
C3F C1F 1_555 1_555
N2F C2F 1_555 1_555
C4F N2F 1_555 1_555
C5F C4F 1_555 1_555
C6F N3 1_555 1_555
N3F C6 1_555 1_555
P2 O10 1_555 1_555
C3 N2 1_555 1_555
C5 C6 1_555 1_555
C6 N3 1_555 1_555
N3 N3F 1_555 1_555
Zn1A O2A 1_555 1_555
P2A O6A 1_555 1_555
P2A O8A 1_555 1_555
P2A O10A 1_555 1_555
P3A O4A 1_555 1_555
P3A O9A 1_555 1_555
C3F N2F 1_555 1_555
C4F C6F 1_555 1_555
C5F C6F 1_555 1_555
C5F N3F 1_555 1_555
C6F N3F 1_555 1_555

#END
