
#######################################################################
#
#                 Cambridge Crystallographic Data Centre
#                                CCDC 
#
#######################################################################
#
# If this CIF has been generated from an entry in the Cambridge 
# Structural Database, then it will include bibliographic, chemical, 
# crystal, experimental, refinement or atomic coordinate data resulting 
# from the CCDC's data processing and validation procedures.
#
#######################################################################

data_OVEXOD
_chemical_formula_moiety         '(C128 H118 Mn9 N32 O52)n'
_symmetry_cell_setting           monoclinic
_symmetry_space_group_name_H-M   'C 2/c'
_symmetry_Int_Tables_number      15
_space_group_name_Hall           '-C 2yc'
loop_
_symmetry_equiv_pos_site_id
_symmetry_equiv_pos_as_xyz
1 x,y,z
2 -x,y,1/2-z
3 1/2+x,1/2+y,z
4 1/2-x,1/2+y,1/2-z
5 -x,-y,-z
6 x,-y,1/2+z
7 1/2-x,1/2-y,-z
8 1/2+x,1/2-y,1/2+z
_cell_length_a                   33.758(7)
_cell_length_b                   23.128(5)
_cell_length_c                   21.937(4)
_cell_angle_alpha                90
_cell_angle_beta                 124.48(3)
_cell_angle_gamma                90
_cell_volume                     14118.5
loop_
_atom_site_label
_atom_site_type_symbol
_atom_site_fract_x
_atom_site_fract_y
_atom_site_fract_z
_atom_site_U_iso_or_equiv
_atom_site_thermal_displace_type
Mn1 Mn -0.0000 1.01069(4) 0.2500 0.0118 Uani
Mn2 Mn 0.16240(3) 1.04702(3) 0.39610(4) 0.0129 Uani
Mn3 Mn 0.26855(3) 1.01002(3) 0.41176(4) 0.0160 Uani
Mn4 Mn 0.28822(3) 1.04629(3) 0.57910(4) 0.0182 Uani
Mn5 Mn -0.11076(3) 0.49852(3) 0.05920(5) 0.0224 Uani
O1 O 0.23440(12) 1.06946(15) 0.59249(19) 0.0229 Uani
O2 O 0.16160(13) 1.05109(17) 0.4905(2) 0.0269 Uani
O3 O -0.21516(12) 1.02978(15) 0.19786(19) 0.0210 Uani
O4 O -0.14421(11) 1.04719(14) 0.21553(17) 0.0155 Uani
O5 O 0.29503(12) 1.13026(14) 0.53674(19) 0.0198 Uani
O6 O 0.23071(11) 1.08731(13) 0.44321(18) 0.0168 Uani
O7 O -0.03951(12) 1.07474(14) 0.16404(18) 0.0176 Uani
O8 O -0.10603(12) 1.10920(14) 0.15056(19) 0.0203 Uani
O9 O 0.21554(12) 0.96581(13) 0.42699(19) 0.0183 Uani
O10 O 0.13800(12) 0.95636(14) 0.37703(19) 0.0185 Uani
O11 O -0.09891(13) 0.57239(15) 0.1288(2) 0.0275 Uani
O12 O -0.17058(14) 0.61589(15) 0.0743(2) 0.0363 Uani
O13 O 0.36816(14) 0.94530(16) 0.4673(2) 0.0324 Uani
O14 O 0.28926(13) 0.93471(16) 0.3802(2) 0.0334 Uani
O15 O 0.69324(13) 0.92146(15) 0.5995(2) 0.0271 Uani
O16 O 0.61734(14) 0.92375(17) 0.5010(2) 0.0391 Uani
O17 O 0.34917(14) 1.07231(15) 0.6867(2) 0.0312 Uani
O18 O 0.28942(16) 0.95956(17) 0.6269(3) 0.0420 Uani
O19 O 0.31536(12) 1.00144(14) 0.52803(19) 0.0197 Uani
O20 O -0.05159(12) 1.00912(14) 0.27888(18) 0.0175 Uani
O21 O -0.04393(12) 0.94031(14) 0.17099(18) 0.0164 Uani
O22 O -0.03341(15) 0.50229(19) 0.0979(3) 0.0472 Uani
O23 O -0.08200(19) 0.4448(3) 0.1571(3) 0.0736 Uani
N1 N 0.03041(15) 1.0687(2) 0.6144(2) 0.0287 Uani
N2 N -0.01917(16) 1.0672(2) 0.5710(2) 0.0279 Uani
N3 N 0.00568(14) 1.08012(16) 0.4992(2) 0.0119 Uani
N4 N 0.00237(15) 1.09631(18) 0.4343(2) 0.0159 Uani
N5 N 0.11748(15) 1.31980(18) 0.2717(2) 0.0242 Uani
N6 N 0.06777(15) 1.31847(17) 0.2255(2) 0.0224 Uani
N7 N 0.09483(14) 1.23038(16) 0.2388(2) 0.0155 Uani
N8 N 0.09960(16) 1.17267(18) 0.2210(3) 0.0212 Uani
N9 N 0.09453(15) 0.69922(18) 0.2439(2) 0.0218 Uani
N10 N 0.04701(15) 0.68313(18) 0.1942(2) 0.0228 Uani
N11 N 0.04832(16) 0.77429(17) 0.2223(2) 0.0194 Uani
N12 N 0.0294(2) 0.8294(2) 0.2216(4) 0.0512 Uani
N13 N 0.46279(15) 0.71318(17) 0.4518(2) 0.0192 Uani
N14 N 0.51299(16) 0.70993(17) 0.4947(2) 0.0215 Uani
N15 N 0.49168(15) 0.79781(17) 0.5025(2) 0.0174 Uani
N16 N 0.49432(17) 0.85451(19) 0.5300(3) 0.0274 Uani
C1 C 0.04511(18) 1.0771(2) 0.5706(3) 0.0151 Uani
C2 C -0.03380(18) 1.0748(2) 0.5021(3) 0.0159 Uani
C3 C 0.09643(18) 1.0823(2) 0.6015(3) 0.0152 Uani
C4 C 0.11735(17) 1.07294(19) 0.5624(3) 0.0136 Uani
H1 H 0.0980 1.0643 0.5122 0.0800 Uiso
C5 C 0.16677(18) 1.0765(2) 0.5985(3) 0.0144 Uani
C6 C 0.19636(19) 1.0888(2) 0.6742(3) 0.0206 Uani
H2 H 0.2295 1.0906 0.6982 0.0800 Uiso
C7 C 0.17578(18) 1.0982(2) 0.7133(3) 0.0201 Uani
H3 H 0.1952 1.1069 0.7635 0.0800 Uiso
C8 C 0.12689(19) 1.0948(2) 0.6777(3) 0.0198 Uani
H4 H 0.1135 1.1008 0.7044 0.0800 Uiso
C9 C 0.18964(18) 1.0642(2) 0.5573(3) 0.0175 Uani
C10 C -0.08510(17) 1.07630(19) 0.4421(3) 0.0138 Uani
C11 C -0.10297(17) 1.06353(19) 0.3686(3) 0.0137 Uani
H5 H -0.0818 1.0568 0.3550 0.0800 Uiso
C12 C -0.15225(17) 1.0609(2) 0.3158(3) 0.0156 Uani
C13 C -0.18407(18) 1.0710(2) 0.3361(3) 0.0204 Uani
H6 H -0.2171 1.0684 0.3011 0.0800 Uiso
C14 C -0.16619(19) 1.0849(2) 0.4091(3) 0.0245 Uani
H7 H -0.1873 1.0930 0.4225 0.0800 Uiso
C15 C -0.11717(18) 1.0867(2) 0.4617(3) 0.0189 Uani
H8 H -0.1055 1.0949 0.5106 0.0800 Uiso
C16 C -0.17226(17) 1.04460(19) 0.2374(3) 0.0136 Uani
C17 C 0.13349(18) 1.2665(2) 0.2795(3) 0.0162 Uani
C18 C 0.05480(18) 1.2642(2) 0.2073(3) 0.0157 Uani
C19 C 0.18414(18) 1.24982(19) 0.3328(3) 0.0156 Uani
C20 C 0.19711(17) 1.1970(2) 0.3703(3) 0.0154 Uani
H9 H 0.1740 1.1684 0.3557 0.0800 Uiso
C21 C 0.24428(17) 1.1870(2) 0.4295(3) 0.0143 Uani
C22 C 0.27885(18) 1.2294(2) 0.4495(3) 0.0194 Uani
H10 H 0.3104 1.2232 0.4895 0.0800 Uiso
C23 C 0.26665(18) 1.2808(2) 0.4104(3) 0.0222 Uani
H11 H 0.2903 1.3083 0.4233 0.0800 Uiso
C24 C 0.21994(19) 1.2916(2) 0.3527(3) 0.0191 Uani
H12 H 0.2120 1.3263 0.3270 0.0800 Uiso
C25 C 0.25793(17) 1.1325(2) 0.4730(3) 0.0165 Uani
C26 C 0.00428(18) 1.2455(2) 0.1671(3) 0.0154 Uani
C27 C -0.00876(17) 1.1887(2) 0.1696(2) 0.0130 Uani
H13 H 0.0145 1.1599 0.1906 0.0800 Uiso
C28 C -0.05643(17) 1.1751(2) 0.1408(3) 0.0147 Uani
C29 C -0.09213(18) 1.2174(2) 0.1063(3) 0.0214 Uani
H14 H -0.1240 1.2082 0.0869 0.0800 Uiso
C30 C -0.07933(19) 1.2733(2) 0.1015(3) 0.0270 Uani
H15 H -0.1030 1.3015 0.0778 0.0800 Uiso
C31 C -0.03207(19) 1.2880(2) 0.1313(3) 0.0258 Uani
H16 H -0.0242 1.3258 0.1278 0.0800 Uiso
C32 C -0.06830(17) 1.1150(2) 0.1516(3) 0.0137 Uani
C33 C 0.09451(17) 0.7545(2) 0.2604(3) 0.0153 Uani
C34 C 0.02016(19) 0.7287(2) 0.1830(3) 0.0224 Uani
C35 C 0.13868(18) 0.7860(2) 0.3137(3) 0.0172 Uani
C36 C 0.13845(18) 0.8434(2) 0.3327(3) 0.0168 Uani
H17 H 0.1094 0.8631 0.3109 0.0800 Uiso
C37 C 0.18098(18) 0.8714(2) 0.3838(3) 0.0156 Uani
C38 C 0.22459(19) 0.8431(2) 0.4181(3) 0.0222 Uani
H18 H 0.2530 0.8623 0.4522 0.0800 Uiso
C39 C 0.2252(2) 0.7849(2) 0.4006(3) 0.0285 Uani
H19 H 0.2542 0.7651 0.4237 0.0800 Uiso
C40 C 0.1827(2) 0.7569(2) 0.3489(3) 0.0238 Uani
H20 H 0.1834 0.7183 0.3376 0.0800 Uiso
C41 C 0.17840(17) 0.9347(2) 0.3976(3) 0.0147 Uani
C42 C -0.03292(19) 0.7272(2) 0.1377(3) 0.0207 Uani
C43 C -0.05476(18) 0.6756(2) 0.1381(3) 0.0191 Uani
H21 H -0.0359 0.6438 0.1647 0.0800 Uiso
C44 C -0.10391(19) 0.6722(2) 0.0991(3) 0.0215 Uani
C45 C -0.13276(19) 0.7188(2) 0.0562(3) 0.0212 Uani
H22 H -0.1661 0.7160 0.0294 0.0800 Uiso
C46 C -0.1111(2) 0.7693(2) 0.0540(3) 0.0266 Uani
H23 H -0.1302 0.8002 0.0250 0.0800 Uiso
C47 C -0.0615(2) 0.7740(2) 0.0945(3) 0.0251 Uani
H24 H -0.0473 0.8079 0.0930 0.0800 Uiso
C48 C -0.12687(19) 0.6167(2) 0.1002(3) 0.0264 Uani
C49 C 0.45075(18) 0.7663(2) 0.4576(3) 0.0152 Uani
C50 C 0.52972(18) 0.7612(2) 0.5241(3) 0.0156 Uani
C51 C 0.40091(18) 0.7863(2) 0.4207(3) 0.0169 Uani
C52 C 0.38969(19) 0.8414(2) 0.4321(3) 0.0218 Uani
H25 H 0.4142 0.8670 0.4635 0.0800 Uiso
C53 C 0.34150(18) 0.8587(2) 0.3965(3) 0.0188 Uani
C54 C 0.30488(19) 0.8214(2) 0.3478(3) 0.0227 Uani
H26 H 0.2730 0.8333 0.3226 0.0800 Uiso
C55 C 0.31594(19) 0.7663(2) 0.3368(3) 0.0251 Uani
H27 H 0.2913 0.7409 0.3050 0.0800 Uiso
C56 C 0.36349(19) 0.7484(2) 0.3726(3) 0.0203 Uani
H28 H 0.3705 0.7114 0.3647 0.0800 Uiso
C57 C 0.33208(19) 0.9169(2) 0.4160(3) 0.0242 Uani
C58 C 0.57979(18) 0.7795(2) 0.5676(3) 0.0171 Uani
C59 C 0.59237(18) 0.8314(2) 0.5495(3) 0.0183 Uani
H29 H 0.5684 0.8546 0.5120 0.0800 Uiso
C60 C 0.63967(18) 0.8486(2) 0.5865(3) 0.0194 Uani
C61 C 0.67616(19) 0.8147(2) 0.6439(3) 0.0238 Uani
H30 H 0.7080 0.8266 0.6697 0.0800 Uiso
C62 C 0.6640(2) 0.7625(2) 0.6620(3) 0.0277 Uani
H31 H 0.6879 0.7394 0.6998 0.0800 Uiso
C63 C 0.61603(19) 0.7450(2) 0.6235(3) 0.0207 Uani
H32 H 0.6082 0.7101 0.6352 0.0800 Uiso
C64 C 0.65128(19) 0.9022(2) 0.5607(3) 0.0225 Uani
H35 H 0.017(2) 1.1290(16) 0.446(4) 0.0800 Uiso
H36 H 0.015(2) 1.074(2) 0.420(4) 0.0800 Uiso
H37 H 0.077(2) 1.164(3) 0.1756(14) 0.0800 Uiso
H38 H 0.097(3) 1.151(3) 0.250(3) 0.0800 Uiso
H39 H 0.5175(19) 0.854(3) 0.5768(14) 0.0800 Uiso
H40 H 0.501(2) 0.880(3) 0.509(3) 0.0800 Uiso
H41 H 0.039(3) 0.855(2) 0.203(4) 0.0800 Uiso
H42 H 0.037(2) 0.8436(16) 0.2643(18) 0.0800 Uiso
Mn2A Mn -0.16240(3) 1.04702(3) 0.10390(4) 0.0129 Uani
Mn3A Mn -0.26855(3) 1.01002(3) 0.08824(4) 0.0160 Uani
Mn3D Mn 0.73145(3) 0.98998(3) 0.58824(4) 0.0160 Uani
Mn4A Mn -0.28822(3) 1.04629(3) -0.07910(4) 0.0182 Uani
Mn5A Mn 0.11076(3) 0.49852(3) 0.44080(5) 0.0224 Uani
Mn5G Mn 0.38924(3) 1.00148(3) 0.55920(5) 0.0224 Uani
Mn5C Mn 0.61076(3) 0.99852(3) 0.44080(5) 0.0224 Uani
Mn5F Mn -0.38924(3) 1.00148(3) -0.05920(5) 0.0224 Uani
O1A O -0.23440(12) 1.06946(15) -0.09249(19) 0.0229 Uani
O2A O -0.16160(13) 1.05109(17) 0.0095(2) 0.0269 Uani
O3A O 0.21516(12) 1.02978(15) 0.30214(19) 0.0210 Uani
O4A O 0.14421(11) 1.04719(14) 0.28447(17) 0.0155 Uani
O5A O -0.29503(12) 1.13026(14) -0.03674(19) 0.0198 Uani
O6A O -0.23071(11) 1.08731(13) 0.05679(18) 0.0168 Uani
O7A O 0.03951(12) 1.07474(14) 0.33596(18) 0.0176 Uani
O8A O 0.10603(12) 1.10920(14) 0.34944(19) 0.0203 Uani
O9A O -0.21554(12) 0.96581(13) 0.07301(19) 0.0183 Uani
O10A O -0.13800(12) 0.95636(14) 0.12297(19) 0.0185 Uani
O11A O 0.09891(13) 0.57239(15) 0.3712(2) 0.0275 Uani
O12A O 0.17058(14) 0.61589(15) 0.4257(2) 0.0363 Uani
O13D O 0.63184(14) 1.05470(16) 0.5327(2) 0.0324 Uani
O13G O -0.13184(14) 0.55470(16) -0.0327(2) 0.0324 Uani
O13F O 0.13184(14) 0.55470(16) 0.5327(2) 0.0324 Uani
O14D O 0.71074(13) 1.06529(16) 0.6198(2) 0.0334 Uani
O14A O -0.28926(13) 0.93471(16) 0.1198(2) 0.0334 Uani
O15D O 0.30676(13) 1.07854(15) 0.4005(2) 0.0271 Uani
O15E O -0.30676(13) 1.07854(15) 0.0995(2) 0.0271 Uani
O16D O 0.38266(14) 1.07625(17) 0.4990(2) 0.0391 Uani
O16C O -0.11734(14) 0.42375(17) -0.0010(2) 0.0391 Uani
O16B O 0.11734(14) 0.42375(17) 0.5010(2) 0.0391 Uani
O17A O -0.34917(14) 1.07231(15) -0.1867(2) 0.0312 Uani
O18A O -0.28942(16) 0.95956(17) -0.1269(3) 0.0420 Uani
O19A O -0.31536(12) 1.00144(14) -0.02803(19) 0.0197 Uani
O19G O -0.18464(12) 0.49856(14) 0.02803(19) 0.0197 Uani
O19F O 0.18464(12) 0.49856(14) 0.47197(19) 0.0197 Uani
O20A O 0.05159(12) 1.00912(14) 0.22112(18) 0.0175 Uani
O21A O 0.04393(12) 0.94031(14) 0.32901(18) 0.0164 Uani
O22A O 0.03341(15) 0.50229(19) 0.4021(3) 0.0472 Uani
O23A O 0.08200(19) 0.4448(3) 0.3429(3) 0.0736 Uani
N1A N -0.03041(15) 1.0687(2) -0.1144(2) 0.0287 Uani
N2A N 0.01917(16) 1.0672(2) -0.0710(2) 0.0279 Uani
N3A N -0.00568(14) 1.08012(16) 0.0008(2) 0.0119 Uani
N4A N -0.00237(15) 1.09631(18) 0.0657(2) 0.0159 Uani
N5A N -0.11748(15) 1.31980(18) 0.2283(2) 0.0242 Uani
N6A N -0.06777(15) 1.31847(17) 0.2745(2) 0.0224 Uani
N7A N -0.09483(14) 1.23038(16) 0.2612(2) 0.0155 Uani
N8A N -0.09960(16) 1.17267(18) 0.2790(3) 0.0212 Uani
N9A N -0.09453(15) 0.69922(18) 0.2561(2) 0.0218 Uani
N10A N -0.04701(15) 0.68313(18) 0.3058(2) 0.0228 Uani
N11A N -0.04832(16) 0.77429(17) 0.2777(2) 0.0194 Uani
N12A N -0.0294(2) 0.8294(2) 0.2784(4) 0.0512 Uani
N13D N 0.53721(15) 1.28682(17) 0.5482(2) 0.0192 Uani
N14D N 0.48701(16) 1.29007(17) 0.5053(2) 0.0215 Uani
N15D N 0.50832(15) 1.20219(17) 0.4975(2) 0.0174 Uani
N16D N 0.50568(17) 1.14549(19) 0.4700(3) 0.0274 Uani
C1A C -0.04511(18) 1.0771(2) -0.0706(3) 0.0151 Uani
C2A C 0.03380(18) 1.0748(2) -0.0021(3) 0.0159 Uani
C3A C -0.09643(18) 1.0823(2) -0.1015(3) 0.0152 Uani
C4A C -0.11735(17) 1.07294(19) -0.0624(3) 0.0136 Uani
H1A H -0.0980 1.0643 -0.0122 0.0800 Uiso
C5A C -0.16677(18) 1.0765(2) -0.0985(3) 0.0144 Uani
C6A C -0.19636(19) 1.0888(2) -0.1742(3) 0.0206 Uani
H2A H -0.2295 1.0906 -0.1982 0.0800 Uiso
C7A C -0.17578(18) 1.0982(2) -0.2133(3) 0.0201 Uani
H3A H -0.1952 1.1069 -0.2635 0.0800 Uiso
C8A C -0.12689(19) 1.0948(2) -0.1777(3) 0.0198 Uani
H4A H -0.1135 1.1008 -0.2044 0.0800 Uiso
C9A C -0.18964(18) 1.0642(2) -0.0573(3) 0.0175 Uani
C10A C 0.08510(17) 1.07630(19) 0.0579(3) 0.0138 Uani
C11A C 0.10297(17) 1.06353(19) 0.1314(3) 0.0137 Uani
H5A H 0.0818 1.0568 0.1450 0.0800 Uiso
C12A C 0.15225(17) 1.0609(2) 0.1842(3) 0.0156 Uani
C13A C 0.18407(18) 1.0710(2) 0.1639(3) 0.0204 Uani
H6A H 0.2171 1.0684 0.1989 0.0800 Uiso
C14A C 0.16619(19) 1.0849(2) 0.0909(3) 0.0245 Uani
H7A H 0.1873 1.0930 0.0775 0.0800 Uiso
C15A C 0.11717(18) 1.0867(2) 0.0383(3) 0.0189 Uani
H8A H 0.1055 1.0949 -0.0106 0.0800 Uiso
C16A C 0.17226(17) 1.04460(19) 0.2626(3) 0.0136 Uani
C17A C -0.13349(18) 1.2665(2) 0.2205(3) 0.0162 Uani
C18A C -0.05480(18) 1.2642(2) 0.2927(3) 0.0157 Uani
C19A C -0.18414(18) 1.24982(19) 0.1672(3) 0.0156 Uani
C20A C -0.19711(17) 1.1970(2) 0.1297(3) 0.0154 Uani
H9A H -0.1740 1.1684 0.1443 0.0800 Uiso
C21A C -0.24428(17) 1.1870(2) 0.0705(3) 0.0143 Uani
C22A C -0.27885(18) 1.2294(2) 0.0505(3) 0.0194 Uani
H10A H -0.3104 1.2232 0.0105 0.0800 Uiso
C23A C -0.26665(18) 1.2808(2) 0.0896(3) 0.0222 Uani
H11A H -0.2903 1.3083 0.0767 0.0800 Uiso
C24A C -0.21994(19) 1.2916(2) 0.1473(3) 0.0191 Uani
H12A H -0.2120 1.3263 0.1730 0.0800 Uiso
C25A C -0.25793(17) 1.1325(2) 0.0270(3) 0.0165 Uani
C26A C -0.00428(18) 1.2455(2) 0.3329(3) 0.0154 Uani
C27A C 0.00876(17) 1.1887(2) 0.3304(2) 0.0130 Uani
H13A H -0.0145 1.1599 0.3094 0.0800 Uiso
C28A C 0.05643(17) 1.1751(2) 0.3592(3) 0.0147 Uani
C29A C 0.09213(18) 1.2174(2) 0.3937(3) 0.0214 Uani
H14A H 0.1240 1.2082 0.4131 0.0800 Uiso
C30A C 0.07933(19) 1.2733(2) 0.3985(3) 0.0270 Uani
H15A H 0.1030 1.3015 0.4222 0.0800 Uiso
C31A C 0.03207(19) 1.2880(2) 0.3687(3) 0.0258 Uani
H16A H 0.0242 1.3258 0.3722 0.0800 Uiso
C32A C 0.06830(17) 1.1150(2) 0.3484(3) 0.0137 Uani
C33A C -0.09451(17) 0.7545(2) 0.2396(3) 0.0153 Uani
C34A C -0.02016(19) 0.7287(2) 0.3170(3) 0.0224 Uani
C35A C -0.13868(18) 0.7860(2) 0.1863(3) 0.0172 Uani
C36A C -0.13845(18) 0.8434(2) 0.1673(3) 0.0168 Uani
H17A H -0.1094 0.8631 0.1891 0.0800 Uiso
C37A C -0.18098(18) 0.8714(2) 0.1162(3) 0.0156 Uani
C38A C -0.22459(19) 0.8431(2) 0.0819(3) 0.0222 Uani
H18A H -0.2530 0.8623 0.0478 0.0800 Uiso
C39A C -0.2252(2) 0.7849(2) 0.0994(3) 0.0285 Uani
H19A H -0.2542 0.7651 0.0763 0.0800 Uiso
C40A C -0.1827(2) 0.7569(2) 0.1511(3) 0.0238 Uani
H20A H -0.1834 0.7183 0.1624 0.0800 Uiso
C41A C -0.17840(17) 0.9347(2) 0.1024(3) 0.0147 Uani
C42A C 0.03292(19) 0.7272(2) 0.3623(3) 0.0207 Uani
C43A C 0.05476(18) 0.6756(2) 0.3619(3) 0.0191 Uani
H21A H 0.0359 0.6438 0.3353 0.0800 Uiso
C44A C 0.10391(19) 0.6722(2) 0.4009(3) 0.0215 Uani
C45A C 0.13276(19) 0.7188(2) 0.4438(3) 0.0212 Uani
H22A H 0.1661 0.7160 0.4706 0.0800 Uiso
C46A C 0.1111(2) 0.7693(2) 0.4460(3) 0.0266 Uani
H23A H 0.1302 0.8002 0.4750 0.0800 Uiso
C47A C 0.0615(2) 0.7740(2) 0.4055(3) 0.0251 Uani
H24A H 0.0473 0.8079 0.4070 0.0800 Uiso
C48A C 0.12687(19) 0.6167(2) 0.3998(3) 0.0264 Uani
C49D C 0.54925(18) 1.2337(2) 0.5424(3) 0.0152 Uani
C50D C 0.47028(18) 1.2388(2) 0.4759(3) 0.0156 Uani
C51D C 0.59909(18) 1.2137(2) 0.5793(3) 0.0169 Uani
C52D C 0.61031(19) 1.1586(2) 0.5679(3) 0.0218 Uani
H25D H 0.5858 1.1330 0.5365 0.0800 Uiso
C53D C 0.65850(18) 1.1413(2) 0.6035(3) 0.0188 Uani
C54D C 0.69512(19) 1.1786(2) 0.6522(3) 0.0227 Uani
H26D H 0.7270 1.1667 0.6774 0.0800 Uiso
C55D C 0.68406(19) 1.2337(2) 0.6632(3) 0.0251 Uani
H27D H 0.7087 1.2591 0.6950 0.0800 Uiso
C56D C 0.63651(19) 1.2516(2) 0.6274(3) 0.0203 Uani
H28D H 0.6295 1.2886 0.6353 0.0800 Uiso
C57D C 0.66792(19) 1.0831(2) 0.5840(3) 0.0242 Uani
C58D C 0.42021(18) 1.2205(2) 0.4324(3) 0.0171 Uani
C59D C 0.40763(18) 1.1686(2) 0.4505(3) 0.0183 Uani
H29D H 0.4316 1.1454 0.4880 0.0800 Uiso
C60D C 0.36033(18) 1.1514(2) 0.4135(3) 0.0194 Uani
C61D C 0.32384(19) 1.1853(2) 0.3561(3) 0.0238 Uani
H30D H 0.2920 1.1734 0.3303 0.0800 Uiso
C62D C 0.3360(2) 1.2375(2) 0.3380(3) 0.0277 Uani
H31D H 0.3121 1.2606 0.3002 0.0800 Uiso
C63D C 0.38397(19) 1.2550(2) 0.3765(3) 0.0207 Uani
H32D H 0.3918 1.2899 0.3648 0.0800 Uiso
C64D C 0.34872(19) 1.0978(2) 0.4393(3) 0.0225 Uani
H35A H -0.017(2) 1.1290(16) 0.054(4) 0.0800 Uiso
H36A H -0.015(2) 1.074(2) 0.080(4) 0.0800 Uiso
H37A H -0.077(2) 1.164(3) 0.3244(14) 0.0800 Uiso
H38A H -0.097(3) 1.151(3) 0.250(3) 0.0800 Uiso
H39D H 0.4825(19) 1.146(3) 0.4232(14) 0.0800 Uiso
H40D H 0.499(2) 1.120(3) 0.491(3) 0.0800 Uiso
H41A H -0.039(3) 0.855(2) 0.297(4) 0.0800 Uiso
H42A H -0.037(2) 0.8436(16) 0.2357(18) 0.0800 Uiso
O24 O 0.54483(19) 0.93756(19) 0.7146(3) 0.0562 Uani
H33 H 0.542(3) 0.9004(11) 0.705(4) 0.0800 Uiso
H34 H 0.559(3) 0.940(3) 0.7623(13) 0.0800 Uiso
O25 O 0.3921(2) 0.9987(3) 0.8052(4) 0.0608 Uani
O26 O 0.5233(2) 1.0909(3) 0.6113(4) 0.0538 Uani
O27 O 0.3024(3) 0.9750(4) 0.7743(4) 0.0703 Uani
O28 O 0.4327(7) 1.0151(7) 0.9341(8) 0.0510 Uani
O29 O 0.5000 1.1152(6) 0.7500 0.0500 Uani
loop_
_atom_site_aniso_label
_atom_site_aniso_U_11
_atom_site_aniso_U_22
_atom_site_aniso_U_33
_atom_site_aniso_U_23
_atom_site_aniso_U_13
_atom_site_aniso_U_12
Mn1 0.0093(5) 0.0145(5) 0.0116(5) 0.000 0.0060(5) 0.000
Mn2 0.0078(4) 0.0152(4) 0.0134(4) -0.0007(3) 0.0047(3) -0.0002(3)
Mn3 0.0085(4) 0.0152(4) 0.0191(4) -0.0012(3) 0.0047(3) -0.0001(3)
Mn4 0.0122(4) 0.0167(4) 0.0240(4) -0.0006(3) 0.0092(4) 0.0001(3)
Mn5 0.0123 0.0169 0.0268 -0.0011 0.0043 -0.0005
O1 0.012(2) 0.029(2) 0.025(2) -0.0011(16) 0.0088(18) 0.0015(16)
O2 0.015(2) 0.044(2) 0.022(2) -0.0065(18) 0.0107(18) -0.0040(17)
O3 0.0083(19) 0.031(2) 0.0214(19) 0.0033(16) 0.0070(17) -0.0003(15)
O4 0.0102(18) 0.0236(18) 0.0124(17) -0.0010(14) 0.0063(16) 0.0005(14)
O5 0.0109(19) 0.0205(18) 0.0179(19) -0.0011(15) 0.0021(17) 0.0014(15)
O6 0.0070(18) 0.0154(17) 0.0229(19) 0.0020(15) 0.0054(16) -0.0005(14)
O7 0.0159(19) 0.0205(18) 0.0170(18) 0.0053(15) 0.0096(17) 0.0040(15)
O8 0.017(2) 0.0215(18) 0.027(2) -0.0008(16) 0.0153(18) -0.0030(15)
O9 0.0128(19) 0.0138(17) 0.025(2) 0.0001(15) 0.0088(17) -0.0026(14)
O10 0.0113(19) 0.0189(18) 0.0229(19) 0.0029(15) 0.0082(17) 0.0014(15)
O11 0.012(2) 0.0198(19) 0.035(2) 0.0001(17) 0.0039(18) 0.0040(16)
O12 0.017(2) 0.0193(19) 0.053(3) -0.0011(19) 0.008(2) -0.0031(16)
O13 0.021(2) 0.030(2) 0.044(3) -0.0107(19) 0.017(2) 0.0022(18)
O14 0.013(2) 0.027(2) 0.048(3) -0.0090(19) 0.010(2) 0.0050(17)
O15 0.013(2) 0.0238(19) 0.036(2) -0.0009(17) 0.0087(19) -0.0051(16)
O16 0.014(2) 0.037(2) 0.045(3) 0.018(2) 0.004(2) -0.0031(18)
O17 0.022(2) 0.0200(19) 0.029(2) -0.0031(17) 0.0008(19) -0.0031(16)
O18 0.045(3) 0.028(2) 0.060(3) 0.009(2) 0.034(3) -0.003(2)
O19 0.0086(18) 0.0206(18) 0.0201(19) -0.0030(15) 0.0022(16) 0.0016(14)
O20 0.0127(19) 0.0247(18) 0.0143(18) -0.0014(15) 0.0071(16) 0.0000(15)
O21 0.0099(18) 0.0195(17) 0.0151(18) -0.0043(14) 0.0043(16) -0.0004(14)
O22 0.019 0.043 0.057 -0.012 0.008 0.002
O23 0.049 0.092 0.077 0.047 0.034 0.036
N1 0.011(2) 0.056(3) 0.022(3) 0.011(2) 0.011(2) 0.004(2)
N2 0.014(3) 0.053(3) 0.016(2) 0.016(2) 0.008(2) 0.005(2)
N3 0.012(2) 0.0139(19) 0.011(2) 0.0028(16) 0.0072(19) 0.0005(16)
N4 0.015(2) 0.026(2) 0.011(2) 0.0004(19) 0.010(2) -0.0014(19)
N5 0.012(2) 0.018(2) 0.024(3) 0.0006(19) -0.001(2) -0.0001(18)
N6 0.011(2) 0.016(2) 0.025(3) -0.0002(19) 0.001(2) 0.0034(18)
N7 0.012(2) 0.0109(19) 0.019(2) 0.0004(17) 0.006(2) 0.0007(17)
N8 0.020(3) 0.016(2) 0.026(2) -0.0014(19) 0.012(2) 0.0012(18)
N9 0.017(2) 0.020(2) 0.023(2) -0.0049(19) 0.008(2) -0.0060(19)
N10 0.013(2) 0.025(2) 0.021(2) -0.0051(19) 0.004(2) -0.0091(19)
N11 0.021(3) 0.015(2) 0.023(2) -0.0074(18) 0.013(2) -0.0067(18)
N12 0.039(4) 0.029(3) 0.074(5) -0.008(3) 0.025(4) 0.000(3)
N13 0.011(2) 0.018(2) 0.026(2) 0.0003(19) 0.009(2) 0.0026(17)
N14 0.018(2) 0.017(2) 0.029(3) -0.0003(19) 0.013(2) 0.0006(18)
N15 0.015(2) 0.013(2) 0.024(2) 0.0002(18) 0.011(2) 0.0009(17)
N16 0.028(3) 0.015(2) 0.037(3) -0.006(2) 0.017(3) 0.001(2)
C1 0.015(3) 0.016(2) 0.015(3) 0.004(2) 0.009(2) 0.001(2)
C2 0.017(3) 0.016(2) 0.017(3) 0.002(2) 0.011(2) 0.002(2)
C3 0.016(3) 0.015(2) 0.015(3) 0.002(2) 0.009(2) 0.001(2)
C4 0.014(3) 0.011(2) 0.013(2) 0.0013(19) 0.006(2) -0.0003(19)
C5 0.016(3) 0.014(2) 0.013(3) 0.000(2) 0.008(2) -0.001(2)
C6 0.016(3) 0.022(3) 0.019(3) -0.001(2) 0.007(2) -0.003(2)
C7 0.016(3) 0.025(3) 0.016(3) -0.004(2) 0.007(2) -0.006(2)
C8 0.025(3) 0.021(3) 0.017(3) -0.004(2) 0.014(3) -0.004(2)
C9 0.015(3) 0.017(2) 0.017(3) -0.002(2) 0.007(2) -0.002(2)
C10 0.011(3) 0.012(2) 0.018(3) 0.002(2) 0.008(2) 0.0022(19)
C11 0.014(3) 0.012(2) 0.017(3) -0.001(2) 0.010(2) 0.0011(19)
C12 0.014(3) 0.014(2) 0.023(3) 0.002(2) 0.013(2) 0.003(2)
C13 0.008(3) 0.030(3) 0.020(3) 0.000(2) 0.006(2) -0.001(2)
C14 0.018(3) 0.037(3) 0.025(3) -0.002(3) 0.016(3) 0.004(2)
C15 0.017(3) 0.023(3) 0.016(3) 0.001(2) 0.009(2) 0.003(2)
C16 0.012(3) 0.011(2) 0.015(3) 0.004(2) 0.006(2) 0.001(2)
C17 0.017(3) 0.012(2) 0.017(3) -0.002(2) 0.008(2) -0.005(2)
C18 0.013(3) 0.016(2) 0.016(3) 0.001(2) 0.007(2) 0.002(2)
C19 0.014(3) 0.012(2) 0.022(3) -0.002(2) 0.011(2) -0.001(2)
C20 0.014(3) 0.014(2) 0.017(3) -0.003(2) 0.008(2) 0.000(2)
C21 0.009(3) 0.013(2) 0.017(3) -0.005(2) 0.005(2) -0.0014(19)
C22 0.010(3) 0.016(2) 0.021(3) -0.004(2) 0.002(2) -0.003(2)
C23 0.012(3) 0.020(3) 0.031(3) -0.004(2) 0.010(3) -0.004(2)
C24 0.020(3) 0.011(2) 0.025(3) -0.005(2) 0.012(3) -0.003(2)
C25 0.010(3) 0.016(2) 0.023(3) -0.006(2) 0.009(3) 0.000(2)
C26 0.014(3) 0.018(2) 0.013(3) 0.003(2) 0.007(2) -0.001(2)
C27 0.013(3) 0.018(2) 0.008(2) 0.001(2) 0.006(2) 0.002(2)
C28 0.011(3) 0.022(3) 0.012(3) 0.003(2) 0.007(2) -0.001(2)
C29 0.013(3) 0.029(3) 0.020(3) 0.007(2) 0.008(2) 0.004(2)
C30 0.014(3) 0.028(3) 0.031(3) 0.014(2) 0.008(3) 0.008(2)
C31 0.017(3) 0.025(3) 0.030(3) 0.010(2) 0.010(3) 0.002(2)
C32 0.009(3) 0.020(3) 0.011(2) -0.004(2) 0.005(2) -0.005(2)
C33 0.012(3) 0.015(2) 0.017(3) -0.003(2) 0.007(2) -0.006(2)
C34 0.021(3) 0.020(3) 0.027(3) -0.004(2) 0.014(3) -0.006(2)
C35 0.019(3) 0.017(2) 0.018(3) -0.002(2) 0.012(2) -0.004(2)
C36 0.018(3) 0.017(2) 0.016(3) 0.002(2) 0.010(2) 0.001(2)
C37 0.016(3) 0.015(2) 0.018(3) 0.000(2) 0.011(2) -0.004(2)
C38 0.016(3) 0.018(3) 0.025(3) 0.002(2) 0.007(3) 0.001(2)
C39 0.017(3) 0.021(3) 0.037(3) -0.002(3) 0.009(3) 0.001(2)
C40 0.026(3) 0.018(3) 0.025(3) -0.002(2) 0.013(3) 0.000(2)
C41 0.012(3) 0.017(2) 0.011(2) 0.001(2) 0.004(2) 0.002(2)
C42 0.017(3) 0.025(3) 0.015(3) -0.009(2) 0.006(2) -0.007(2)
C43 0.014(3) 0.019(3) 0.020(3) -0.006(2) 0.007(2) -0.007(2)
C44 0.019(3) 0.019(3) 0.021(3) -0.007(2) 0.008(3) -0.004(2)
C45 0.018(3) 0.021(3) 0.020(3) -0.007(2) 0.008(3) -0.001(2)
C46 0.032(4) 0.024(3) 0.023(3) 0.001(2) 0.015(3) 0.005(2)
C47 0.032(4) 0.023(3) 0.024(3) -0.003(2) 0.018(3) -0.005(2)
C48 0.010(3) 0.024(3) 0.031(3) -0.007(2) 0.003(3) -0.002(2)
C49 0.018(3) 0.014(2) 0.017(3) 0.002(2) 0.012(2) 0.001(2)
C50 0.016(3) 0.015(2) 0.018(3) 0.005(2) 0.011(2) 0.002(2)
C51 0.017(3) 0.015(2) 0.022(3) 0.003(2) 0.013(2) 0.002(2)
C52 0.020(3) 0.024(3) 0.024(3) -0.002(2) 0.014(3) -0.001(2)
C53 0.013(3) 0.016(2) 0.028(3) -0.002(2) 0.012(2) -0.001(2)
C54 0.014(3) 0.028(3) 0.028(3) 0.001(2) 0.013(3) 0.008(2)
C55 0.017(3) 0.026(3) 0.030(3) -0.006(2) 0.012(3) 0.000(2)
C56 0.022(3) 0.018(3) 0.023(3) -0.003(2) 0.014(3) 0.002(2)
C57 0.016(3) 0.021(3) 0.035(3) -0.001(2) 0.014(3) 0.003(2)
C58 0.015(3) 0.018(3) 0.020(3) -0.001(2) 0.011(2) -0.002(2)
C59 0.017(3) 0.014(2) 0.021(3) -0.002(2) 0.009(2) 0.000(2)
C60 0.016(3) 0.019(3) 0.023(3) -0.003(2) 0.011(3) 0.000(2)
C61 0.015(3) 0.023(3) 0.027(3) -0.002(2) 0.008(3) 0.000(2)
C62 0.018(3) 0.029(3) 0.030(3) 0.005(3) 0.010(3) 0.009(2)
C63 0.021(3) 0.018(3) 0.027(3) 0.002(2) 0.016(3) 0.001(2)
C64 0.014(3) 0.022(3) 0.026(3) -0.003(2) 0.008(3) -0.004(2)
Mn2A 0.0078 0.0152 0.0134 0.0007 0.0047 0.0002
Mn3A 0.0085 0.0152 0.0191 0.0012 0.0047 0.0001
Mn3D 0.0085 0.0152 0.0191 -0.0012 0.0047 -0.0001
Mn4A 0.0122 0.0167 0.024 0.0006 0.0092 -0.0001
Mn5A 0.0123 0.0169 0.0268 0.0011 0.0043 0.0005
Mn5G 0.0123(4) 0.0169(4) 0.0268(5) 0.0011(3) 0.0043(4) 0.0005(3)
Mn5C 0.0123 0.0169 0.0268 0.0011 0.0043 0.0005
Mn5F 0.0123 0.0169 0.0268 -0.0011 0.0043 -0.0005
O1A 0.012 0.029 0.025 0.0011 0.0088 -0.0015
O2A 0.015 0.044 0.022 0.0065 0.0107 0.004
O3A 0.0083 0.031 0.0214 -0.0033 0.007 0.0003
O4A 0.0102 0.0236 0.0124 0.001 0.0063 -0.0005
O5A 0.0109 0.0205 0.0179 0.0011 0.0021 -0.0014
O6A 0.007 0.0154 0.0229 -0.002 0.0054 0.0005
O7A 0.0159 0.0205 0.017 -0.0053 0.0096 -0.004
O8A 0.017 0.0215 0.027 0.0008 0.0153 0.003
O9A 0.0128 0.0138 0.025 -0.0001 0.0088 0.0026
O10A 0.0113 0.0189 0.0229 -0.0029 0.0082 -0.0014
O11A 0.012 0.0198 0.035 -0.0001 0.0039 -0.004
O12A 0.017 0.0193 0.053 0.0011 0.008 0.0031
O13D 0.021 0.03 0.044 -0.0107 0.017 0.0022
O13G 0.021 0.03 0.044 0.0107 0.017 -0.0022
O13F 0.021 0.03 0.044 -0.0107 0.017 0.0022
O14D 0.013 0.027 0.048 -0.009 0.01 0.005
O14A 0.013 0.027 0.048 0.009 0.01 -0.005
O15D 0.013 0.0238 0.036 -0.0009 0.0087 -0.0051
O15E 0.013 0.0238 0.036 0.0009 0.0087 0.0051
O16D 0.014 0.037 0.045 0.018 0.004 -0.0031
O16C 0.014 0.037 0.045 -0.018 0.004 0.0031
O16B 0.014 0.037 0.045 0.018 0.004 -0.0031
O17A 0.022 0.02 0.029 0.0031 0.0008 0.0031
O18A 0.045 0.028 0.06 -0.009 0.034 0.003
O19A 0.0086 0.0206 0.0201 0.003 0.0022 -0.0016
O19G 0.0086 0.0206 0.0201 0.003 0.0022 -0.0016
O19F 0.0086 0.0206 0.0201 -0.003 0.0022 0.0016
O20A 0.0127 0.0247 0.0143 0.0014 0.0071 0
O21A 0.0099 0.0195 0.0151 0.0043 0.0043 0.0004
O22A 0.019 0.043 0.057 0.012 0.008 -0.002
O23A 0.049 0.092 0.077 -0.047 0.034 -0.036
N1A 0.011 0.056 0.022 -0.011 0.011 -0.004
N2A 0.014 0.053 0.016 -0.016 0.008 -0.005
N3A 0.012 0.0139 0.011 -0.0028 0.0072 -0.0005
N4A 0.015 0.026 0.011 -0.0004 0.01 0.0014
N5A 0.012 0.018 0.024 -0.0006 -0.001 0.0001
N6A 0.011 0.016 0.025 0.0002 0.001 -0.0034
N7A 0.012 0.0109 0.019 -0.0004 0.006 -0.0007
N8A 0.02 0.016 0.026 0.0014 0.012 -0.0012
N9A 0.017 0.02 0.023 0.0049 0.008 0.006
N10A 0.013 0.025 0.021 0.0051 0.004 0.0091
N11A 0.021 0.015 0.023 0.0074 0.013 0.0067
N12A 0.039 0.029 0.074 0.008 0.025 0
N13D 0.011 0.018 0.026 0.0003 0.009 0.0026
N14D 0.018 0.017 0.029 -0.0003 0.013 0.0006
N15D 0.015 0.013 0.024 0.0002 0.011 0.0009
N16D 0.028 0.015 0.037 -0.006 0.017 0.001
C1A 0.015 0.016 0.015 -0.004 0.009 -0.001
C2A 0.017 0.016 0.017 -0.002 0.011 -0.002
C3A 0.016 0.015 0.015 -0.002 0.009 -0.001
C4A 0.014 0.011 0.013 -0.0013 0.006 0.0003
C5A 0.016 0.014 0.013 0 0.008 0.001
C6A 0.016 0.022 0.019 0.001 0.007 0.003
C7A 0.016 0.025 0.016 0.004 0.007 0.006
C8A 0.025 0.021 0.017 0.004 0.014 0.004
C9A 0.015 0.017 0.017 0.002 0.007 0.002
C10A 0.011 0.012 0.018 -0.002 0.008 -0.0022
C11A 0.014 0.012 0.017 0.001 0.01 -0.0011
C12A 0.014 0.014 0.023 -0.002 0.013 -0.003
C13A 0.008 0.03 0.02 0 0.006 0.001
C14A 0.018 0.037 0.025 0.002 0.016 -0.004
C15A 0.017 0.023 0.016 -0.001 0.009 -0.003
C16A 0.012 0.011 0.015 -0.004 0.006 -0.001
C17A 0.017 0.012 0.017 0.002 0.008 0.005
C18A 0.013 0.016 0.016 -0.001 0.007 -0.002
C19A 0.014 0.012 0.022 0.002 0.011 0.001
C20A 0.014 0.014 0.017 0.003 0.008 0
C21A 0.009 0.013 0.017 0.005 0.005 0.0014
C22A 0.01 0.016 0.021 0.004 0.002 0.003
C23A 0.012 0.02 0.031 0.004 0.01 0.004
C24A 0.02 0.011 0.025 0.005 0.012 0.003
C25A 0.01 0.016 0.023 0.006 0.009 0
C26A 0.014 0.018 0.013 -0.003 0.007 0.001
C27A 0.013 0.018 0.008 -0.001 0.006 -0.002
C28A 0.011 0.022 0.012 -0.003 0.007 0.001
C29A 0.013 0.029 0.02 -0.007 0.008 -0.004
C30A 0.014 0.028 0.031 -0.014 0.008 -0.008
C31A 0.017 0.025 0.03 -0.01 0.01 -0.002
C32A 0.009 0.02 0.011 0.004 0.005 0.005
C33A 0.012 0.015 0.017 0.003 0.007 0.006
C34A 0.021 0.02 0.027 0.004 0.014 0.006
C35A 0.019 0.017 0.018 0.002 0.012 0.004
C36A 0.018 0.017 0.016 -0.002 0.01 -0.001
C37A 0.016 0.015 0.018 0 0.011 0.004
C38A 0.016 0.018 0.025 -0.002 0.007 -0.001
C39A 0.017 0.021 0.037 0.002 0.009 -0.001
C40A 0.026 0.018 0.025 0.002 0.013 0
C41A 0.012 0.017 0.011 -0.001 0.004 -0.002
C42A 0.017 0.025 0.015 0.009 0.006 0.007
C43A 0.014 0.019 0.02 0.006 0.007 0.007
C44A 0.019 0.019 0.021 0.007 0.008 0.004
C45A 0.018 0.021 0.02 0.007 0.008 0.001
C46A 0.032 0.024 0.023 -0.001 0.015 -0.005
C47A 0.032 0.023 0.024 0.003 0.018 0.005
C48A 0.01 0.024 0.031 0.007 0.003 0.002
C49D 0.018 0.014 0.017 0.002 0.012 0.001
C50D 0.016 0.015 0.018 0.005 0.011 0.002
C51D 0.017 0.015 0.022 0.003 0.013 0.002
C52D 0.02 0.024 0.024 -0.002 0.014 -0.001
C53D 0.013 0.016 0.028 -0.002 0.012 -0.001
C54D 0.014 0.028 0.028 0.001 0.013 0.008
C55D 0.017 0.026 0.03 -0.006 0.012 0
C56D 0.022 0.018 0.023 -0.003 0.014 0.002
C57D 0.016 0.021 0.035 -0.001 0.014 0.003
C58D 0.015 0.018 0.02 -0.001 0.011 -0.002
C59D 0.017 0.014 0.021 -0.002 0.009 0
C60D 0.016 0.019 0.023 -0.003 0.011 0
C61D 0.015 0.023 0.027 -0.002 0.008 0
C62D 0.018 0.029 0.03 0.005 0.01 0.009
C63D 0.021 0.018 0.027 0.002 0.016 0.001
C64D 0.014 0.022 0.026 -0.003 0.008 -0.004
O24 0.054(3) 0.028(2) 0.046(3) 0.008(2) 0.004(3) -0.001(2)
O25 0.033(4) 0.076(5) 0.080(5) 0.057(4) 0.036(4) 0.022(3)
O26 0.060(5) 0.046(4) 0.057(4) -0.003(3) 0.034(4) -0.010(3)
O27 0.051(5) 0.102(6) 0.048(4) -0.002(4) 0.022(4) 0.001(4)
O28 0.069(13) 0.068(11) 0.033(9) 0.003(8) 0.039(10) 0.016(9)
O29 0.034(8) 0.057(9) 0.045(8) 0.000 0.014(7) 0.000
loop_
_geom_bond_atom_site_label_1
_geom_bond_atom_site_label_2
_geom_bond_site_symmetry_1
_geom_bond_site_symmetry_2
Mn1 O7 1_555 1_555
Mn2 O2 1_555 1_555
Mn3 O6 1_555 1_555
Mn4 O1 1_555 1_555
Mn5 O11 1_555 1_555
O1 C9 1_555 1_555
O2 C9 1_555 1_555
O3 C16 1_555 1_555
O4 C16 1_555 1_555
O5 Mn4 1_555 1_555
O6 Mn2 1_555 1_555
O7 C32 1_555 1_555
O8 C32 1_555 1_555
O9 Mn2 1_555 1_555
O10 Mn2 1_555 1_555
O11 C48 1_555 1_555
O12 C48 1_555 1_555
O13 C57 1_555 1_555
O14 Mn3 1_555 1_555
O15 C64 1_555 1_555
O16 C64 1_555 1_555
O17 Mn4 1_555 1_555
O18 Mn4 1_555 1_555
O19 Mn3 1_555 1_555
O20 Mn1 1_555 1_555
O21 Mn1 1_555 1_555
O22 Mn5 1_555 1_555
O23 Mn5 1_555 1_555
N1 N2 1_555 1_555
N2 C2 1_555 1_555
N3 N4 1_555 1_555
N4 H35 1_555 1_555
N5 N6 1_555 1_555
N6 C18 1_555 1_555
N7 N8 1_555 1_555
N8 H37 1_555 1_555
N9 N10 1_555 1_555
N10 C34 1_555 1_555
N11 N12 1_555 1_555
N12 H41 1_555 1_555
N13 N14 1_555 1_555
N14 C50 1_555 1_555
N15 N16 1_555 1_555
N16 H39 1_555 1_555
C1 N1 1_555 1_555
C2 N3 1_555 1_555
C3 C1 1_555 1_555
C4 C3 1_555 1_555
H1 C4 1_555 1_555
C5 C4 1_555 1_555
C6 C5 1_555 1_555
H2 C6 1_555 1_555
C7 C6 1_555 1_555
H3 C7 1_555 1_555
C8 C3 1_555 1_555
H4 C8 1_555 1_555
C9 C5 1_555 1_555
C10 C2 1_555 1_555
C11 C10 1_555 1_555
H5 C11 1_555 1_555
C12 C11 1_555 1_555
C13 C12 1_555 1_555
H6 C13 1_555 1_555
C14 C13 1_555 1_555
H7 C14 1_555 1_555
C15 C10 1_555 1_555
H8 C15 1_555 1_555
C16 C12 1_555 1_555
C17 N5 1_555 1_555
C18 N7 1_555 1_555
C19 C17 1_555 1_555
C20 C19 1_555 1_555
H9 C20 1_555 1_555
C21 C20 1_555 1_555
C22 C21 1_555 1_555
H10 C22 1_555 1_555
C23 C22 1_555 1_555
H11 C23 1_555 1_555
C24 C19 1_555 1_555
H12 C24 1_555 1_555
C25 O5 1_555 1_555
C26 C18 1_555 1_555
C27 C26 1_555 1_555
H13 C27 1_555 1_555
C28 C27 1_555 1_555
C29 C28 1_555 1_555
H14 C29 1_555 1_555
C30 C29 1_555 1_555
H15 C30 1_555 1_555
C31 C26 1_555 1_555
H16 C31 1_555 1_555
C32 C28 1_555 1_555
C33 N9 1_555 1_555
C34 N11 1_555 1_555
C35 C33 1_555 1_555
C36 C35 1_555 1_555
H17 C36 1_555 1_555
C37 C36 1_555 1_555
C38 C37 1_555 1_555
H18 C38 1_555 1_555
C39 C38 1_555 1_555
H19 C39 1_555 1_555
C40 C35 1_555 1_555
H20 C40 1_555 1_555
C41 O9 1_555 1_555
C42 C34 1_555 1_555
C43 C42 1_555 1_555
H21 C43 1_555 1_555
C44 C43 1_555 1_555
C45 C44 1_555 1_555
H22 C45 1_555 1_555
C46 C45 1_555 1_555
H23 C46 1_555 1_555
C47 C42 1_555 1_555
H24 C47 1_555 1_555
C48 C44 1_555 1_555
C49 N13 1_555 1_555
C50 N15 1_555 1_555
C51 C49 1_555 1_555
C52 C51 1_555 1_555
H25 C52 1_555 1_555
C53 C52 1_555 1_555
C54 C53 1_555 1_555
H26 C54 1_555 1_555
C55 C54 1_555 1_555
H27 C55 1_555 1_555
C56 C51 1_555 1_555
H28 C56 1_555 1_555
C57 O14 1_555 1_555
C58 C50 1_555 1_555
C59 C58 1_555 1_555
H29 C59 1_555 1_555
C60 C59 1_555 1_555
C61 C60 1_555 1_555
H30 C61 1_555 1_555
C62 C61 1_555 1_555
H31 C62 1_555 1_555
C63 C58 1_555 1_555
H32 C63 1_555 1_555
C64 C60 1_555 1_555
O24 H33 1_555 1_555
H34 O24 1_555 1_555
H36 N4 1_555 1_555
H38 N8 1_555 1_555
H40 N16 1_555 1_555
H42 N12 1_555 1_555
Mn2A O4 1_555 1_555
Mn3A O3 1_555 1_555
Mn3D O15 1_555 1_555
Mn4A O1A 1_555 1_555
Mn5A O11A 1_555 1_555
Mn5G O13 1_555 1_555
Mn5C O16 1_555 1_555
Mn5F O19A 1_555 1_555
O1A C9A 1_555 1_555
O2A Mn2A 1_555 1_555
O3A Mn3 1_555 1_555
O4A Mn2 1_555 1_555
O5A Mn4A 1_555 1_555
O6A Mn2A 1_555 1_555
O7A Mn1 1_555 1_555
O8A Mn2 1_555 1_555
O9A Mn2A 1_555 1_555
O10A Mn2A 1_555 1_555
O11A C48A 1_555 1_555
O12A C48A 1_555 1_555
O13D Mn5C 1_555 1_555
O13G Mn5 1_555 1_555
O13F Mn5A 1_555 1_555
O14D Mn3D 1_555 1_555
O14A Mn3A 1_555 1_555
O15D Mn3 1_555 1_555
O15E Mn3A 1_555 1_555
O16D Mn5G 1_555 1_555
O16C Mn5 1_555 1_555
O16B Mn5A 1_555 1_555
O17A Mn4A 1_555 1_555
O18A Mn4A 1_555 1_555
O19A Mn3A 1_555 1_555
O19G Mn5 1_555 1_555
O19F Mn5A 1_555 1_555
O20A Mn1 1_555 1_555
O21A Mn1 1_555 1_555
O22A Mn5A 1_555 1_555
O23A Mn5A 1_555 1_555
N1A N2A 1_555 1_555
N2A C2A 1_555 1_555
N3A N4A 1_555 1_555
N4A H35A 1_555 1_555
N5A N6A 1_555 1_555
N6A C18A 1_555 1_555
N7A N8A 1_555 1_555
N8A H37A 1_555 1_555
N9A N10A 1_555 1_555
N10A C34A 1_555 1_555
N11A N12A 1_555 1_555
N12A H41A 1_555 1_555
N13D N14D 1_555 1_555
N14D C50D 1_555 1_555
N15D N16D 1_555 1_555
N16D H39D 1_555 1_555
C1A N1A 1_555 1_555
C2A N3A 1_555 1_555
C3A C1A 1_555 1_555
C4A C3A 1_555 1_555
H1A C4A 1_555 1_555
C5A C4A 1_555 1_555
C6A C5A 1_555 1_555
H2A C6A 1_555 1_555
C7A C6A 1_555 1_555
H3A C7A 1_555 1_555
C8A C3A 1_555 1_555
H4A C8A 1_555 1_555
C9A O2A 1_555 1_555
C10A C2A 1_555 1_555
C11A C10A 1_555 1_555
H5A C11A 1_555 1_555
C12A C11A 1_555 1_555
C13A C12A 1_555 1_555
H6A C13A 1_555 1_555
C14A C13A 1_555 1_555
H7A C14A 1_555 1_555
C15A C10A 1_555 1_555
H8A C15A 1_555 1_555
C16A O3A 1_555 1_555
C17A N5A 1_555 1_555
C18A N7A 1_555 1_555
C19A C17A 1_555 1_555
C20A C19A 1_555 1_555
H9A C20A 1_555 1_555
C21A C20A 1_555 1_555
C22A C21A 1_555 1_555
H10A C22A 1_555 1_555
C23A C22A 1_555 1_555
H11A C23A 1_555 1_555
C24A C19A 1_555 1_555
H12A C24A 1_555 1_555
C25A O5A 1_555 1_555
C26A C18A 1_555 1_555
C27A C26A 1_555 1_555
H13A C27A 1_555 1_555
C28A C27A 1_555 1_555
C29A C28A 1_555 1_555
H14A C29A 1_555 1_555
C30A C29A 1_555 1_555
H15A C30A 1_555 1_555
C31A C26A 1_555 1_555
H16A C31A 1_555 1_555
C32A O7A 1_555 1_555
C33A N9A 1_555 1_555
C34A N11A 1_555 1_555
C35A C33A 1_555 1_555
C36A C35A 1_555 1_555
H17A C36A 1_555 1_555
C37A C36A 1_555 1_555
C38A C37A 1_555 1_555
H18A C38A 1_555 1_555
C39A C38A 1_555 1_555
H19A C39A 1_555 1_555
C40A C35A 1_555 1_555
H20A C40A 1_555 1_555
C41A O9A 1_555 1_555
C42A C34A 1_555 1_555
C43A C42A 1_555 1_555
H21A C43A 1_555 1_555
C44A C43A 1_555 1_555
C45A C44A 1_555 1_555
H22A C45A 1_555 1_555
C46A C45A 1_555 1_555
H23A C46A 1_555 1_555
C47A C42A 1_555 1_555
H24A C47A 1_555 1_555
C48A C44A 1_555 1_555
C49D N13D 1_555 1_555
C50D N15D 1_555 1_555
C51D C49D 1_555 1_555
C52D C51D 1_555 1_555
H25D C52D 1_555 1_555
C53D C52D 1_555 1_555
C54D C53D 1_555 1_555
H26D C54D 1_555 1_555
C55D C54D 1_555 1_555
H27D C55D 1_555 1_555
C56D C51D 1_555 1_555
H28D C56D 1_555 1_555
C57D O13D 1_555 1_555
C58D C50D 1_555 1_555
C59D C58D 1_555 1_555
H29D C59D 1_555 1_555
C60D C59D 1_555 1_555
C61D C60D 1_555 1_555
H30D C61D 1_555 1_555
C62D C61D 1_555 1_555
H31D C62D 1_555 1_555
C63D C58D 1_555 1_555
H32D C63D 1_555 1_555
C64D O15D 1_555 1_555
H36A N4A 1_555 1_555
H38A N8A 1_555 1_555
H40D N16D 1_555 1_555
H42A N12A 1_555 1_555
Mn3 O9 1_555 1_555
Mn4 O19 1_555 1_555
O6 C25 1_555 1_555
O8 Mn2A 1_555 1_555
O10 C41 1_555 1_555
O19 Mn5G 1_555 1_555
N3 C1 1_555 1_555
N7 C17 1_555 1_555
N11 C33 1_555 1_555
N15 C49 1_555 1_555
C7 C8 1_555 1_555
C14 C15 1_555 1_555
C21 C25 1_555 1_555
C23 C24 1_555 1_555
C30 C31 1_555 1_555
C37 C41 1_555 1_555
C39 C40 1_555 1_555
C46 C47 1_555 1_555
C53 C57 1_555 1_555
C55 C56 1_555 1_555
C62 C63 1_555 1_555
Mn3A O6A 1_555 1_555
Mn3A O9A 1_555 1_555
Mn4A O19A 1_555 1_555
O4A C16A 1_555 1_555
O6A C25A 1_555 1_555
O8A C32A 1_555 1_555
O10A C41A 1_555 1_555
O14D C57D 1_555 1_555
O16D C64D 1_555 1_555
N3A C1A 1_555 1_555
N7A C17A 1_555 1_555
N11A C33A 1_555 1_555
N15D C49D 1_555 1_555
C5A C9A 1_555 1_555
C7A C8A 1_555 1_555
C12A C16A 1_555 1_555
C14A C15A 1_555 1_555
C21A C25A 1_555 1_555
C23A C24A 1_555 1_555
C28A C32A 1_555 1_555
C30A C31A 1_555 1_555
C37A C41A 1_555 1_555
C39A C40A 1_555 1_555
C46A C47A 1_555 1_555
C53D C57D 1_555 1_555
C55D C56D 1_555 1_555
C60D C64D 1_555 1_555
C62D C63D 1_555 1_555

#END
