
#######################################################################
#
#                 Cambridge Crystallographic Data Centre
#                                CCDC 
#
#######################################################################
#
# If this CIF has been generated from an entry in the Cambridge 
# Structural Database, then it will include bibliographic, chemical, 
# crystal, experimental, refinement or atomic coordinate data resulting 
# from the CCDC's data processing and validation procedures.
#
#######################################################################

data_SODKON
_chemical_formula_moiety         '(C2 H5 Cu1 I1 N1 S1)n'
_symmetry_cell_setting           trigonal
_symmetry_space_group_name_H-M   'P 3 1 c'
_symmetry_Int_Tables_number      159
_space_group_name_Hall           'P 3 -2c'
loop_
_symmetry_equiv_pos_site_id
_symmetry_equiv_pos_as_xyz
1 x,y,z
2 -y,x-y,z
3 -x+y,-x,z
4 y,x,1/2+z
5 x-y,-y,1/2+z
6 -x,-x+y,1/2+z
_cell_length_a                   11.7896(2)
_cell_length_b                   11.7896(2)
_cell_length_c                   8.15090(10)
_cell_angle_alpha                90
_cell_angle_beta                 90
_cell_angle_gamma                120
_cell_volume                     981.148
loop_
_atom_site_label
_atom_site_type_symbol
_atom_site_fract_x
_atom_site_fract_y
_atom_site_fract_z
_atom_site_U_iso_or_equiv
_atom_site_thermal_displace_type
Cu1 Cu 0.45303(5) 0.13647(5) 0.53118(11) 0.0393 Uani
I1 I 0.29157(3) -0.00005(3) 0.28121(12) 0.0360 Uani
C1 C 0.3584(4) 0.3586(5) 0.5312(8) 0.0338 Uani
C2 C 0.3629(5) 0.4866(5) 0.5312(9) 0.0424 Uani
H1 H 0.2796 0.4744 0.4965 0.0630 Uiso
H2 H 0.4299 0.5455 0.4572 0.0630 Uiso
H3 H 0.382 0.5228 0.6399 0.0630 Uiso
N1 N 0.2415(6) 0.2482(6) 0.533(2) 0.0966 Uani
H4 H 0.1707 0.2524 0.5346 0.1160 Uiso
H5 H 0.2373 0.1732 0.5333 0.1160 Uiso
S1 S 0.49600(11) 0.34877(11) 0.53131(18) 0.0386 Uani
Cu1B Cu 0.68344(7) 0.54697(5) 0.53118(11) 0.0393 Uani
Cu1D Cu 0.31656(7) -0.13647(5) 0.03118(11) 0.0393 Uani
I1D I 0.29162(4) 0.00005(3) 0.78121(12) 0.0360 Uani
S1A S 0.65123(11) 0.14723(16) 0.53131(18) 0.0386 Uani
loop_
_atom_site_aniso_label
_atom_site_aniso_U_11
_atom_site_aniso_U_22
_atom_site_aniso_U_33
_atom_site_aniso_U_23
_atom_site_aniso_U_13
_atom_site_aniso_U_12
Cu1 0.0280(3) 0.0290(3) 0.0625(3) 0.0003(3) 0.0001(3) 0.0154(2)
I1 0.03941(16) 0.03501(15) 0.03229(12) -0.00721(8) -0.00370(11) 0.01759(12)
C1 0.0236(18) 0.0276(19) 0.052(3) 0.0008(17) 0.0021(17) 0.0142(17)
C2 0.037(2) 0.034(2) 0.062(3) 0.002(2) 0.000(2) 0.0221(19)
N1 0.025(2) 0.037(3) 0.231(11) 0.005(5) 0.007(4) 0.018(2)
S1 0.0208(4) 0.0211(4) 0.0733(8) 0.0000(4) 0.0002(4) 0.0100(3)
Cu1B 0.0262 0.028 0.0625 -0.0001 0.0002 0.0126
Cu1D 0.0262 0.029 0.0625 -0.0003 -0.0002 0.0136
I1D 0.03924 0.03501 0.03229 0.00721 0.00351 0.01742
S1A 0.0211 0.0219 0.0733 0.0002 0 0.0111
loop_
_geom_bond_atom_site_label_1
_geom_bond_atom_site_label_2
_geom_bond_site_symmetry_1
_geom_bond_site_symmetry_2
Cu1 I1 1_555 1_555
I1 Cu1D 1_555 1_555
C1 C2 1_555 1_555
C2 H1 1_555 1_555
H2 C2 1_555 1_555
H3 C2 1_555 1_555
N1 C1 1_555 1_555
H4 N1 1_555 1_555
H5 N1 1_555 1_555
S1 Cu1 1_555 1_555
Cu1B S1 1_555 1_555
I1D Cu1 1_555 1_555
S1A Cu1 1_555 1_555
C1 S1 1_555 1_555

#END
