
#######################################################################
#
#                 Cambridge Crystallographic Data Centre
#                                CCDC 
#
#######################################################################
#
# If this CIF has been generated from an entry in the Cambridge 
# Structural Database, then it will include bibliographic, chemical, 
# crystal, experimental, refinement or atomic coordinate data resulting 
# from the CCDC's data processing and validation procedures.
#
#######################################################################

data_EZEQOR
_chemical_formula_moiety         '(C30 H21 Mg2 N3 O10)n'
_symmetry_cell_setting           monoclinic
_symmetry_space_group_name_H-M   'C 2/c'
_symmetry_Int_Tables_number      15
_space_group_name_Hall           '-C 2yc'
loop_
_symmetry_equiv_pos_site_id
_symmetry_equiv_pos_as_xyz
1 x,y,z
2 -x,y,1/2-z
3 1/2+x,1/2+y,z
4 1/2-x,1/2+y,1/2-z
5 -x,-y,-z
6 x,-y,1/2+z
7 1/2-x,1/2-y,-z
8 1/2+x,1/2-y,1/2+z
_cell_length_a                   18.3066(19)
_cell_length_b                   16.9790(18)
_cell_length_c                   13.8035(15)
_cell_angle_alpha                90
_cell_angle_beta                 130.1340(10)
_cell_angle_gamma                90
_cell_volume                     3280.26
loop_
_atom_site_label
_atom_site_type_symbol
_atom_site_fract_x
_atom_site_fract_y
_atom_site_fract_z
Mg1 Mg 0.0000 0.19181(7) 0.7500
Mg2 Mg 0.2500 0.2500 1.0000
O1 O 0.09933(13) 0.27866(11) 0.88833(18)
O2 O 0.08858(13) 0.10834(10) 0.87882(18)
O3 O 0.23165(13) -0.18773(11) 1.35637(17)
O4 O 0.07581(13) -0.19891(11) 1.19096(18)
O5 O 0.23134(13) 0.14610(10) 1.05769(17)
N1 N 0.07295(15) 0.33959(13) 0.9207(2)
C1 C 0.15746(19) -0.16911(15) 1.2475(3)
C2 C 0.16165(18) 0.09893(15) 0.9917(3)
C3 C 0.16627(19) 0.02518(16) 1.0564(3)
C4 C 0.01488(18) 0.46603(16) 0.9826(3)
C5 C 0.0870(2) 0.41297(17) 0.9007(3)
C6 C 0.0581(2) 0.47663(18) 0.9297(3)
C7 C 0.16313(19) -0.10470(16) 1.1782(3)
C8 C 0.0862(2) -0.08865(19) 1.0525(3)
C9 C 0.2426(2) -0.0565(2) 1.2403(3)
C10 C 0.2431(2) 0.0083(2) 1.1801(3)
C11 C 0.0877(2) -0.02488(19) 0.9917(3)
C12 C 0.0336(2) 0.32680(18) 0.9744(3)
C13 C 0.0040(2) 0.38929(18) 1.0045(3)
H1 H 0.117(2) 0.4170(17) 0.868(3)
H2 H 0.028(3) -0.012(2) 0.898(4)
H3 H 0.019(3) 0.272(2) 0.979(4)
H4 H 0.026(3) -0.123(2) 1.008(3)
H5 H 0.072(3) 0.528(2) 0.919(4)
H6 H 0.292(3) 0.041(2) 1.224(4)
H7 H -0.023(3) 0.377(2) 1.047(4)
H8 H 0.300(3) -0.066(2) 1.330(4)
O1D O -0.09933(13) 0.72134(11) 1.11167(18)
N1D N -0.07295(15) 0.66041(13) 1.0793(2)
C4D C -0.01488(18) 0.53397(16) 1.0174(3)
C5D C -0.0870(2) 0.58703(17) 1.0993(3)
C6D C -0.0581(2) 0.52337(18) 1.0703(3)
C12D C -0.0336(2) 0.67320(18) 1.0256(3)
C13D C -0.0040(2) 0.61071(18) 0.9955(3)
H1D H -0.117(2) 0.5830(17) 1.132(3)
H3D H -0.019(3) 0.728(2) 1.021(4)
H5D H -0.072(3) 0.472(2) 1.081(4)
H7D H 0.023(3) 0.623(2) 0.953(4)
O2A O -0.08858(13) 0.10834(10) 0.62118(18)
O3A O -0.23165(13) -0.18773(11) 0.14363(17)
O4A O -0.07581(13) -0.19891(11) 0.30904(18)
O5A O -0.23134(13) 0.14610(10) 0.44231(17)
C1A C -0.15746(19) -0.16911(15) 0.2525(3)
C2A C -0.16165(18) 0.09893(15) 0.5083(3)
C3A C -0.16627(19) 0.02518(16) 0.4436(3)
C7A C -0.16313(19) -0.10470(16) 0.3218(3)
C8A C -0.0862(2) -0.08865(19) 0.4475(3)
C9A C -0.2426(2) -0.0565(2) 0.2597(3)
C10A C -0.2431(2) 0.0083(2) 0.3199(3)
C11A C -0.0877(2) -0.02488(19) 0.5083(3)
H2A H -0.028(3) -0.012(2) 0.602(4)
H4A H -0.026(3) -0.123(2) 0.492(3)
H6A H -0.292(3) 0.041(2) 0.276(4)
H8A H -0.300(3) -0.066(2) 0.170(4)
Mg1D Mg 0.0000 -0.19181(7) 0.2500
Mg1D_2 Mg 0.0000 -0.19181(7) 1.2500
Mg1D_3 Mg 0.0000 0.80819(7) 1.2500
Mg2A Mg -0.2500 0.2500 0.5000
Mg2B Mg -0.2500 -0.2500 0.0000
Mg2B_2 Mg -0.2500 0.7500 1.0000
Mg2C Mg 0.2500 -0.2500 1.5000
O1A O -0.09933(13) 0.27866(11) 0.61167(18)
O1F O 0.40067(13) 0.22134(11) 1.11167(18)
O3C O 0.26835(13) 0.31227(11) 1.14363(17)
O3E O 0.23165(13) 0.18773(11) 0.85637(17)
O4D O -0.07581(13) 0.19891(11) 0.80904(18)
O4E O 0.07581(13) 0.19891(11) 0.69096(18)
O5F O 0.26866(13) 0.35390(10) 0.94231(17)
C14 C -0.3280(8) 0.3337(7) 0.7806(9)
H9 H -0.3138 0.3613 0.7364
N2 N -0.3889(6) 0.1725(7) 0.8814(10)
C15 C -0.3089(8) 0.2489(8) 0.8052(10)
H10 H -0.2403 0.2417 0.8686
H11 H -0.3296 0.2238 0.7280
C16 C -0.3631(13) 0.3661(13) 0.8201(18)
H12 H -0.3768 0.3373 0.8641
H13 H -0.3764 0.4197 0.8066
C17 C -0.3546(8) 0.2066(6) 0.8493(11)
loop_
_geom_bond_atom_site_label_1
_geom_bond_atom_site_label_2
_geom_bond_site_symmetry_1
_geom_bond_site_symmetry_2
Mg1 O1 1_555 1_555
Mg2 O1 1_555 1_555
O1 N1 1_555 1_555
O2 Mg1 1_555 1_555
O3 C1 1_555 1_555
O4 C1 1_555 1_555
O5 Mg2 1_555 1_555
N1 C5 1_555 1_555
C1 C7 1_555 1_555
C2 O2 1_555 1_555
C3 C2 1_555 1_555
C4 C6 1_555 1_555
C5 C6 1_555 1_555
C6 H5 1_555 1_555
C7 C8 1_555 1_555
C8 C11 1_555 1_555
C9 C7 1_555 1_555
C10 C3 1_555 1_555
C11 C3 1_555 1_555
C12 N1 1_555 1_555
C13 C4 1_555 1_555
H1 C5 1_555 1_555
H2 C11 1_555 1_555
H3 C12 1_555 1_555
H4 C8 1_555 1_555
H6 C10 1_555 1_555
H7 C13 1_555 1_555
H8 C9 1_555 1_555
C14 H9 1_555 1_555
N2 C17 1_555 1_555
C15 C14 1_555 1_555
H10 C15 1_555 1_555
H11 C15 1_555 1_555
C16 C14 1_555 1_555
H12 C16 1_555 1_555
H13 C16 1_555 1_555
C17 C15 1_555 1_555
O1D N1D 1_555 1_555
N1D C5D 1_555 1_555
C4D C4 1_555 1_555
C5D C6D 1_555 1_555
C6D C4D 1_555 1_555
C12D N1D 1_555 1_555
C13D C4D 1_555 1_555
H1D C5D 1_555 1_555
H3D C12D 1_555 1_555
H5D C6D 1_555 1_555
H7D C13D 1_555 1_555
O2A Mg1 1_555 1_555
O3A C1A 1_555 1_555
O4A C1A 1_555 1_555
O5A C2A 1_555 1_555
C1A C7A 1_555 1_555
C2A O2A 1_555 1_555
C3A C2A 1_555 1_555
C7A C8A 1_555 1_555
C8A C11A 1_555 1_555
C9A C7A 1_555 1_555
C10A C3A 1_555 1_555
C11A C3A 1_555 1_555
H2A C11A 1_555 1_555
H4A C8A 1_555 1_555
H6A C10A 1_555 1_555
H8A C9A 1_555 1_555
Mg1D O4A 1_555 1_555
Mg1D_2 O4 1_555 1_555
Mg1D_3 O1D 1_555 1_555
Mg2A O5A 1_555 1_555
Mg2B O3A 1_555 1_555
Mg2B_2 O1D 1_555 1_555
Mg2C O3 1_555 1_555
O1A Mg1 1_555 1_555
O1F Mg2 1_555 1_555
O3C Mg2 1_555 1_555
O3E Mg2 1_555 1_555
O4D Mg1 1_555 1_555
O4E Mg1 1_555 1_555
O5F Mg2 1_555 1_555
O5 C2 1_555 1_555
C9 C10 1_555 1_555
C12 C13 1_555 1_555
C12D C13D 1_555 1_555
C9A C10A 1_555 1_555
Mg2A O1A 1_555 1_555

#END
