
#######################################################################
#
#                 Cambridge Crystallographic Data Centre
#                                CCDC 
#
#######################################################################
#
# If this CIF has been generated from an entry in the Cambridge 
# Structural Database, then it will include bibliographic, chemical, 
# crystal, experimental, refinement or atomic coordinate data resulting 
# from the CCDC's data processing and validation procedures.
#
#######################################################################

data_EZEQUX
_chemical_formula_moiety         '(C30 H21 Mg2 N3 O10)n'
_symmetry_cell_setting           monoclinic
_symmetry_space_group_name_H-M   'C 2/c'
_symmetry_Int_Tables_number      15
_space_group_name_Hall           '-C 2yc'
loop_
_symmetry_equiv_pos_site_id
_symmetry_equiv_pos_as_xyz
1 x,y,z
2 -x,y,1/2-z
3 1/2+x,1/2+y,z
4 1/2-x,1/2+y,1/2-z
5 -x,-y,-z
6 x,-y,1/2+z
7 1/2-x,1/2-y,-z
8 1/2+x,1/2-y,1/2+z
_cell_length_a                   18.1652(13)
_cell_length_b                   17.2466(12)
_cell_length_c                   13.4921(10)
_cell_angle_alpha                90
_cell_angle_beta                 129.4000(10)
_cell_angle_gamma                90
_cell_volume                     3266.28
loop_
_atom_site_label
_atom_site_type_symbol
_atom_site_fract_x
_atom_site_fract_y
_atom_site_fract_z
Mg1 Mg 0.0000 0.19347(6) 0.7500
Mg2 Mg 0.2500 0.2500 1.0000
O1 O 0.09932(12) 0.27847(10) 0.88938(17)
O2 O 0.08878(12) 0.11102(10) 0.87900(17)
O3 O 0.07547(12) -0.19911(10) 1.18685(17)
O4 O 0.23074(12) -0.18909(10) 1.35221(17)
O5 O 0.23126(12) 0.14687(10) 1.05926(17)
N1 N 0.07298(14) 0.33949(12) 0.9217(2)
C1 C 0.15659(18) -0.16980(15) 1.2435(2)
C2 C 0.01517(17) 0.46611(15) 0.9831(2)
C3 C 0.16220(18) 0.10074(14) 0.9926(2)
C4 C 0.0593(2) 0.47491(17) 0.9289(3)
C5 C 0.0883(2) 0.41116(16) 0.9002(3)
C6 C 0.16612(18) 0.02641(15) 1.0550(3)
C7 C 0.2425(2) -0.05781(18) 1.2376(3)
C8 C 0.16271(18) -0.10466(15) 1.1741(2)
C9 C 0.0856(2) -0.08705(18) 1.0479(3)
C10 C 0.0877(2) -0.02258(17) 0.9891(3)
C11 C 0.2437(2) 0.00742(18) 1.1789(3)
C12 C 0.0315(2) 0.32834(17) 0.9751(3)
C13 C 0.0021(2) 0.39055(17) 1.0055(3)
H1 H 0.075(2) 0.5230(18) 0.917(3)
H2 H -0.026(2) 0.3810(19) 1.046(3)
H3 H 0.034(3) -0.008(2) 0.903(4)
H4 H 0.119(2) 0.4168(17) 0.869(3)
H5 H 0.022(3) 0.276(2) 0.986(3)
H6 H 0.029(3) -0.123(2) 1.008(3)
H7 H 0.298(3) 0.041(2) 1.224(4)
H8 H 0.301(2) -0.071(2) 1.328(3)
O1D O -0.09932(12) 0.72153(10) 1.11062(17)
N1D N -0.07298(14) 0.66051(12) 1.0783(2)
C2D C -0.01517(17) 0.53389(15) 1.0169(2)
C4D C -0.0593(2) 0.52509(17) 1.0711(3)
C5D C -0.0883(2) 0.58884(16) 1.0998(3)
C12D C -0.0315(2) 0.67166(17) 1.0249(3)
C13D C -0.0021(2) 0.60945(17) 0.9945(3)
H1D H -0.075(2) 0.4770(18) 1.083(3)
H2D H 0.026(2) 0.6190(19) 0.954(3)
H4D H -0.119(2) 0.5832(17) 1.131(3)
H5D H -0.022(3) 0.724(2) 1.014(3)
O2A O -0.08878(12) 0.11102(10) 0.62100(17)
O3A O -0.07547(12) -0.19911(10) 0.31315(17)
O4A O -0.23074(12) -0.18909(10) 0.14779(17)
O5A O -0.23126(12) 0.14687(10) 0.44074(17)
C1A C -0.15659(18) -0.16980(15) 0.2565(2)
C3A C -0.16220(18) 0.10074(14) 0.5074(2)
C6A C -0.16612(18) 0.02641(15) 0.4450(3)
C7A C -0.2425(2) -0.05781(18) 0.2624(3)
C8A C -0.16271(18) -0.10466(15) 0.3259(2)
C9A C -0.0856(2) -0.08705(18) 0.4521(3)
C10A C -0.0877(2) -0.02258(17) 0.5109(3)
C11A C -0.2437(2) 0.00742(18) 0.3211(3)
H3A H -0.034(3) -0.008(2) 0.597(4)
H6A H -0.029(3) -0.123(2) 0.492(3)
H7A H -0.298(3) 0.041(2) 0.276(4)
H8A H -0.301(2) -0.071(2) 0.172(3)
Mg1D Mg 0.0000 -0.19347(6) 0.2500
Mg1D_2 Mg 0.0000 -0.19347(6) 1.2500
Mg1D_3 Mg 0.0000 0.80653(6) 1.2500
Mg2A Mg -0.2500 0.2500 0.5000
Mg2B Mg -0.2500 -0.2500 0.0000
Mg2B_2 Mg -0.2500 0.7500 1.0000
Mg2C Mg 0.2500 -0.2500 1.5000
O1A O -0.09932(12) 0.27847(10) 0.61062(17)
O1F O 0.40068(12) 0.22153(10) 1.11062(17)
O3D O -0.07547(12) 0.19911(10) 0.81315(17)
O3E O 0.07547(12) 0.19911(10) 0.68685(17)
O4C O 0.26926(12) 0.31091(10) 1.14779(17)
O4E O 0.23074(12) 0.18909(10) 0.85221(17)
O5F O 0.26874(12) 0.35313(10) 0.94074(17)
C14 C 0.1377(4) 0.3018(4) 0.3370(6)
N2 N 0.1150(4) 0.3442(5) 0.3754(7)
C15 C 0.1746(6) 0.1802(4) 0.2846(7)
H9 H 0.1950 0.1632 0.2401
C16 C 0.1691(4) 0.2523(4) 0.2890(6)
H10 H 0.1908 0.2788 0.2519
C17 C 0.1554(7) 0.1221(6) 0.3350(8)
H11 H 0.1670 0.0727 0.3144
H12 H 0.1959 0.1278 0.4265
H13 H 0.0900 0.1252 0.2994
loop_
_geom_bond_atom_site_label_1
_geom_bond_atom_site_label_2
_geom_bond_site_symmetry_1
_geom_bond_site_symmetry_2
Mg1 O1 1_555 1_555
Mg2 O1 1_555 1_555
O1 N1 1_555 1_555
O2 Mg1 1_555 1_555
O3 C1 1_555 1_555
O4 C1 1_555 1_555
O5 Mg2 1_555 1_555
N1 C5 1_555 1_555
C1 C8 1_555 1_555
C2 C4 1_555 1_555
C3 O2 1_555 1_555
C4 C5 1_555 1_555
C5 H4 1_555 1_555
C6 C3 1_555 1_555
C7 C8 1_555 1_555
C8 C9 1_555 1_555
C9 C10 1_555 1_555
C10 C6 1_555 1_555
C11 C6 1_555 1_555
C12 N1 1_555 1_555
C13 C2 1_555 1_555
H1 C4 1_555 1_555
H2 C13 1_555 1_555
H3 C10 1_555 1_555
H5 C12 1_555 1_555
H6 C9 1_555 1_555
H7 C11 1_555 1_555
H8 C7 1_555 1_555
C14 N2 1_555 1_555
C15 H9 1_555 1_555
C16 C14 1_555 1_555
H10 C16 1_555 1_555
C17 C15 1_555 1_555
H11 C17 1_555 1_555
H12 C17 1_555 1_555
H13 C17 1_555 1_555
O1D N1D 1_555 1_555
N1D C5D 1_555 1_555
C2D C2 1_555 1_555
C4D C2D 1_555 1_555
C5D C4D 1_555 1_555
C12D N1D 1_555 1_555
C13D C2D 1_555 1_555
H1D C4D 1_555 1_555
H2D C13D 1_555 1_555
H4D C5D 1_555 1_555
H5D C12D 1_555 1_555
O2A Mg1 1_555 1_555
O3A C1A 1_555 1_555
O4A C1A 1_555 1_555
O5A C3A 1_555 1_555
C1A C8A 1_555 1_555
C3A O2A 1_555 1_555
C6A C3A 1_555 1_555
C7A C8A 1_555 1_555
C8A C9A 1_555 1_555
C9A C10A 1_555 1_555
C10A C6A 1_555 1_555
C11A C6A 1_555 1_555
H3A C10A 1_555 1_555
H6A C9A 1_555 1_555
H7A C11A 1_555 1_555
H8A C7A 1_555 1_555
Mg1D O3A 1_555 1_555
Mg1D_2 O3 1_555 1_555
Mg1D_3 O1D 1_555 1_555
Mg2A O5A 1_555 1_555
Mg2B O4A 1_555 1_555
Mg2B_2 O1D 1_555 1_555
Mg2C O4 1_555 1_555
O1A Mg1 1_555 1_555
O1F Mg2 1_555 1_555
O3D Mg1 1_555 1_555
O3E Mg1 1_555 1_555
O4C Mg2 1_555 1_555
O4E Mg2 1_555 1_555
O5F Mg2 1_555 1_555
O5 C3 1_555 1_555
C7 C11 1_555 1_555
C12 C13 1_555 1_555
C15 C16 1_555 1_555
C12D C13D 1_555 1_555
C7A C11A 1_555 1_555
Mg2A O1A 1_555 1_555

#END
