
#######################################################################
#
#                 Cambridge Crystallographic Data Centre
#                                CCDC 
#
#######################################################################
#
# If this CIF has been generated from an entry in the Cambridge 
# Structural Database, then it will include bibliographic, chemical, 
# crystal, experimental, refinement or atomic coordinate data resulting 
# from the CCDC's data processing and validation procedures.
#
#######################################################################

data_EZEQIL
_chemical_formula_moiety         '(C29 H21 Mg2 N3 O10)n'
_symmetry_cell_setting           monoclinic
_symmetry_space_group_name_H-M   'C 2/c'
_symmetry_Int_Tables_number      15
_space_group_name_Hall           '-C 2yc'
loop_
_symmetry_equiv_pos_site_id
_symmetry_equiv_pos_as_xyz
1 x,y,z
2 -x,y,1/2-z
3 1/2+x,1/2+y,z
4 1/2-x,1/2+y,1/2-z
5 -x,-y,-z
6 x,-y,1/2+z
7 1/2-x,1/2-y,-z
8 1/2+x,1/2-y,1/2+z
_cell_length_a                   17.655(4)
_cell_length_b                   17.638(4)
_cell_length_c                   12.956(3)
_cell_angle_alpha                90
_cell_angle_beta                 127.421(4)
_cell_angle_gamma                90
_cell_volume                     3204.15
loop_
_atom_site_label
_atom_site_type_symbol
_atom_site_fract_x
_atom_site_fract_y
_atom_site_fract_z
Mg1 Mg 0.0000 0.30427(10) 0.2500
Mg2 Mg 0.2500 0.2500 0.5000
O1 O 0.0987(2) 0.22105(15) 0.3890(3)
O2 O 0.0774(2) 0.29891(16) 0.1821(3)
O3 O 0.0871(2) 0.61520(16) -0.1208(3)
O4 O 0.2278(2) 0.65085(16) 0.0634(3)
O5 O 0.2320(2) 0.31213(16) 0.3507(3)
N1 N 0.0725(2) 0.16054(19) 0.4216(3)
C1 C 0.0895(4) 0.0910(3) 0.3972(5)
C2 C 0.0147(3) 0.0335(2) 0.4823(4)
C3 C 0.0606(4) 0.0278(3) 0.4267(5)
C4 C 0.1577(3) 0.3308(2) 0.2404(4)
C5 C 0.1602(3) 0.6048(2) -0.0059(4)
C6 C 0.1647(3) 0.5305(2) 0.0566(4)
C7 C 0.2395(4) 0.4473(3) 0.2410(5)
C8 C 0.1640(3) 0.3970(2) 0.1737(4)
C9 C 0.0009(4) 0.1069(3) 0.5085(6)
C10 C 0.0897(4) 0.4796(3) -0.0134(5)
C11 C 0.0885(4) 0.4133(3) 0.0445(5)
C12 C 0.0290(4) 0.1686(3) 0.4768(5)
C13 C 0.2399(4) 0.5134(3) 0.1837(5)
H1 H 0.024(4) 0.498(3) -0.111(5)
H2 H 0.013(3) 0.219(3) 0.489(4)
H3 H -0.033(3) 0.116(3) 0.544(5)
H4 H 0.028(4) 0.373(3) -0.001(5)
H5 H 0.114(4) 0.085(3) 0.361(5)
H6 H 0.295(3) 0.549(3) 0.238(5)
H7 H 0.056(4) -0.012(3) 0.394(6)
H8 H 0.290(4) 0.443(4) 0.326(6)
O1D O -0.0987(2) -0.22105(15) 0.6110(3)
N1D N -0.0725(2) -0.16054(19) 0.5784(3)
C1D C -0.0895(4) -0.0910(3) 0.6028(5)
C2D C -0.0147(3) -0.0335(2) 0.5177(4)
C3D C -0.0606(4) -0.0278(3) 0.5733(5)
C9D C -0.0009(4) -0.1069(3) 0.4915(6)
C12D C -0.0290(4) -0.1686(3) 0.5232(5)
H2D H -0.013(3) -0.219(3) 0.511(4)
H3D H 0.033(3) -0.116(3) 0.456(5)
H5D H -0.114(4) -0.085(3) 0.639(5)
H7D H -0.056(4) 0.012(3) 0.606(6)
O2A O -0.0774(2) 0.29891(16) 0.3179(3)
O3A O -0.0871(2) 0.61520(16) 0.6208(3)
O4A O -0.2278(2) 0.65085(16) 0.4366(3)
O5A O -0.2320(2) 0.31213(16) 0.1493(3)
C4A C -0.1577(3) 0.3308(2) 0.2596(4)
C5A C -0.1602(3) 0.6048(2) 0.5059(4)
C6A C -0.1647(3) 0.5305(2) 0.4434(4)
C7A C -0.2395(4) 0.4473(3) 0.2590(5)
C8A C -0.1640(3) 0.3970(2) 0.3263(4)
C10A C -0.0897(4) 0.4796(3) 0.5134(5)
C11A C -0.0885(4) 0.4133(3) 0.4555(5)
C13A C -0.2399(4) 0.5134(3) 0.3163(5)
H1A H -0.024(4) 0.498(3) 0.611(5)
H4A H -0.028(4) 0.373(3) 0.501(5)
H6A H -0.295(3) 0.549(3) 0.262(5)
H8A H -0.290(4) 0.443(4) 0.174(6)
Mg1D Mg -0.0000 -0.30427(10) 0.7500
Mg1D_2 Mg 0.0000 0.69573(10) -0.2500
Mg1D_3 Mg -0.0000 0.69573(10) 0.7500
Mg2A Mg -0.2500 0.2500 0.0000
Mg2B Mg -0.2500 -0.2500 0.5000
Mg2B_2 Mg -0.2500 0.7500 0.5000
Mg2C Mg 0.2500 0.7500 0.0000
O1A O -0.0987(2) 0.22105(15) 0.1110(3)
O1F O 0.4013(2) 0.27895(15) 0.6110(3)
O3D O -0.0871(2) 0.38480(16) 0.1208(3)
O3E O 0.0871(2) 0.38480(16) 0.3792(3)
O4C O 0.2722(2) 0.15085(16) 0.4366(3)
O4E O 0.2278(2) 0.34915(16) 0.5634(3)
O5F O 0.2680(2) 0.18787(16) 0.6493(3)
N2 N 0.1268(8) 0.1456(5) 0.8778(13)
C14 C 0.1431(9) 0.2053(9) 0.8329(12)
C15 C 0.1666(11) 0.2736(9) 0.7878(13)
H9 H 0.1792 0.2671 0.7283
C16 C 0.1699(14) 0.3406(8) 0.8294(17)
H10 H 0.1575 0.3478 0.8889
H11 H 0.1847 0.3819 0.7999
loop_
_geom_bond_atom_site_label_1
_geom_bond_atom_site_label_2
_geom_bond_site_symmetry_1
_geom_bond_site_symmetry_2
Mg1 O1 1_555 1_555
Mg2 O1 1_555 1_555
O1 N1 1_555 1_555
O2 Mg1 1_555 1_555
O3 C5 1_555 1_555
O4 C5 1_555 1_555
O5 Mg2 1_555 1_555
N1 C1 1_555 1_555
C1 C3 1_555 1_555
C2 C3 1_555 1_555
C3 H7 1_555 1_555
C4 O2 1_555 1_555
C5 C6 1_555 1_555
C6 C10 1_555 1_555
C7 C8 1_555 1_555
C8 C4 1_555 1_555
C9 C2 1_555 1_555
C10 C11 1_555 1_555
C11 C8 1_555 1_555
C12 N1 1_555 1_555
C13 C6 1_555 1_555
H1 C10 1_555 1_555
H2 C12 1_555 1_555
H3 C9 1_555 1_555
H4 C11 1_555 1_555
H5 C1 1_555 1_555
H6 C13 1_555 1_555
H8 C7 1_555 1_555
N2 C14 1_555 1_555
C14 C15 1_555 1_555
C15 H9 1_555 1_555
C16 C15 1_555 1_555
H10 C16 1_555 1_555
H11 C16 1_555 1_555
O1D N1D 1_555 1_555
N1D C1D 1_555 1_555
C1D C3D 1_555 1_555
C2D C2 1_555 1_555
C3D C2D 1_555 1_555
C9D C2D 1_555 1_555
C12D N1D 1_555 1_555
H2D C12D 1_555 1_555
H3D C9D 1_555 1_555
H5D C1D 1_555 1_555
H7D C3D 1_555 1_555
O2A Mg1 1_555 1_555
O3A C5A 1_555 1_555
O4A C5A 1_555 1_555
O5A C4A 1_555 1_555
C4A O2A 1_555 1_555
C5A C6A 1_555 1_555
C6A C10A 1_555 1_555
C7A C8A 1_555 1_555
C8A C4A 1_555 1_555
C10A C11A 1_555 1_555
C11A C8A 1_555 1_555
C13A C6A 1_555 1_555
H1A C10A 1_555 1_555
H4A C11A 1_555 1_555
H6A C13A 1_555 1_555
H8A C7A 1_555 1_555
Mg1D O1D 1_555 1_555
Mg1D_2 O3 1_555 1_555
Mg1D_3 O3A 1_555 1_555
Mg2A O5A 1_555 1_555
Mg2B O1D 1_555 1_555
Mg2B_2 O4A 1_555 1_555
Mg2C O4 1_555 1_555
O1A Mg1 1_555 1_555
O1F Mg2 1_555 1_555
O3D Mg1 1_555 1_555
O3E Mg1 1_555 1_555
O4C Mg2 1_555 1_555
O4E Mg2 1_555 1_555
O5F Mg2 1_555 1_555
O5 C4 1_555 1_555
C7 C13 1_555 1_555
C9 C12 1_555 1_555
C9D C12D 1_555 1_555
C7A C13A 1_555 1_555
Mg2A O1A 1_555 1_555

#END
