
#######################################################################
#
#                 Cambridge Crystallographic Data Centre
#                                CCDC 
#
#######################################################################
#
# If this CIF has been generated from an entry in the Cambridge 
# Structural Database, then it will include bibliographic, chemical, 
# crystal, experimental, refinement or atomic coordinate data resulting 
# from the CCDC's data processing and validation procedures.
#
#######################################################################

data_EZEQEH
_chemical_formula_moiety         '(C28 H19 Mg2 N3 O10)n'
_symmetry_cell_setting           monoclinic
_symmetry_space_group_name_H-M   'C 2/c'
_symmetry_Int_Tables_number      15
_space_group_name_Hall           '-C 2yc'
loop_
_symmetry_equiv_pos_site_id
_symmetry_equiv_pos_as_xyz
1 x,y,z
2 -x,y,1/2-z
3 1/2+x,1/2+y,z
4 1/2-x,1/2+y,1/2-z
5 -x,-y,-z
6 x,-y,1/2+z
7 1/2-x,1/2-y,-z
8 1/2+x,1/2-y,1/2+z
_cell_length_a                   16.7513(15)
_cell_length_b                   18.1923(17)
_cell_length_c                   12.0258(11)
_cell_angle_alpha                90
_cell_angle_beta                 123.8700(10)
_cell_angle_gamma                90
_cell_volume                     3042.9
loop_
_atom_site_label
_atom_site_type_symbol
_atom_site_fract_x
_atom_site_fract_y
_atom_site_fract_z
Mg1 Mg 0.0000 0.30208(6) 0.2500
Mg2 Mg 0.2500 0.2500 0.5000
O1 O 0.09866(13) 0.22254(10) 0.39026(19)
O2 O 0.08245(13) 0.29668(10) 0.17330(19)
O3 O 0.08488(13) 0.61931(10) -0.1199(2)
O4 O 0.22311(13) 0.65451(10) 0.06649(19)
O5 O 0.23549(13) 0.31127(10) 0.34432(19)
N1 N 0.07141(16) 0.16102(12) 0.4213(2)
C1 C 0.0661(2) 0.03208(16) 0.4237(3)
C2 C 0.0941(2) 0.09610(16) 0.3944(3)
C3 C 0.1569(2) 0.60840(15) -0.0038(3)
C4 C 0.0152(2) 0.03412(15) 0.4834(3)
C5 C 0.1636(2) 0.53428(14) 0.0557(3)
C6 C 0.1619(2) 0.32974(15) 0.2330(3)
C7 C 0.1667(2) 0.39864(15) 0.1674(3)
C8 C -0.0055(3) 0.10312(17) 0.5107(4)
C9 C 0.2365(2) 0.45059(19) 0.2420(3)
C10 C 0.0233(2) 0.16578(17) 0.4801(4)
C11 C 0.2345(2) 0.51783(18) 0.1873(3)
C12 C 0.0953(2) 0.48121(18) -0.0199(3)
C13 C 0.0964(3) 0.41426(18) 0.0356(3)
H1 H 0.085(2) -0.0133(19) 0.405(4)
H2 H 0.129(2) 0.0984(17) 0.355(3)
H3 H -0.037(3) 0.1080(19) 0.559(4)
H4 H 0.050(3) 0.381(2) -0.009(4)
H5 H 0.279(3) 0.555(2) 0.243(4)
H6 H 0.285(3) 0.441(2) 0.340(5)
H7 H 0.042(3) 0.496(2) -0.114(4)
H8 H 0.009(3) 0.218(2) 0.494(4)
O1D O -0.09866(13) -0.22254(10) 0.60974(19)
N1D N -0.07141(16) -0.16102(12) 0.5787(2)
C1D C -0.0661(2) -0.03208(16) 0.5763(3)
C2D C -0.0941(2) -0.09610(16) 0.6056(3)
C4D C -0.0152(2) -0.03412(15) 0.5166(3)
C8D C 0.0055(3) -0.10312(17) 0.4893(4)
C10D C -0.0233(2) -0.16578(17) 0.5199(4)
H1D H -0.085(2) 0.0133(19) 0.595(4)
H2D H -0.129(2) -0.0984(17) 0.645(3)
H3D H 0.037(3) -0.1080(19) 0.441(4)
H8D H -0.009(3) -0.218(2) 0.506(4)
O2A O -0.08245(13) 0.29668(10) 0.32670(19)
O3A O -0.08488(13) 0.61931(10) 0.6199(2)
O4A O -0.22311(13) 0.65451(10) 0.43351(19)
O5A O -0.23549(13) 0.31127(10) 0.15568(19)
C3A C -0.1569(2) 0.60840(15) 0.5038(3)
C5A C -0.1636(2) 0.53428(14) 0.4443(3)
C6A C -0.1619(2) 0.32974(15) 0.2670(3)
C7A C -0.1667(2) 0.39864(15) 0.3326(3)
C9A C -0.2365(2) 0.45059(19) 0.2580(3)
C11A C -0.2345(2) 0.51783(18) 0.3127(3)
C12A C -0.0953(2) 0.48121(18) 0.5199(3)
C13A C -0.0964(3) 0.41426(18) 0.4644(3)
H4A H -0.050(3) 0.381(2) 0.509(4)
H5A H -0.279(3) 0.555(2) 0.257(4)
H6A H -0.285(3) 0.441(2) 0.160(5)
H7A H -0.042(3) 0.496(2) 0.614(4)
Mg1D Mg 0.0000 -0.30208(6) 0.7500
Mg1D_2 Mg 0.0000 0.69792(6) -0.2500
Mg1D_3 Mg 0.0000 0.69792(6) 0.7500
Mg2A Mg -0.2500 0.2500 0.0000
Mg2B Mg -0.2500 -0.2500 0.5000
Mg2B_2 Mg -0.2500 0.7500 0.5000
Mg2C Mg 0.2500 0.7500 0.0000
O1A O -0.09866(13) 0.22254(10) 0.10974(19)
O1F O 0.40134(13) 0.27746(10) 0.60974(19)
O3D O -0.08488(13) 0.38069(10) 0.1199(2)
O3E O 0.08488(13) 0.38069(10) 0.3801(2)
O4C O 0.27689(13) 0.15451(10) 0.43351(19)
O4E O 0.22311(13) 0.34549(10) 0.56649(19)
O5F O 0.26451(13) 0.18873(10) 0.65568(19)
C14 C 0.1708(6) 0.3001(5) 0.7965(8)
H9 H 0.1149 0.3224 0.7208
H10 H 0.2154 0.2873 0.7733
H11 H 0.2008 0.3341 0.8701
C15 C 0.1416(6) 0.2311(8) 0.8369(8)
N2 N 0.1317(9) 0.1741(8) 0.8832(16)
loop_
_geom_bond_atom_site_label_1
_geom_bond_atom_site_label_2
_geom_bond_site_symmetry_1
_geom_bond_site_symmetry_2
Mg1 O1 1_555 1_555
Mg2 O1 1_555 1_555
O1 N1 1_555 1_555
O2 Mg1 1_555 1_555
O3 C3 1_555 1_555
O4 C3 1_555 1_555
O5 Mg2 1_555 1_555
N1 C2 1_555 1_555
C1 C2 1_555 1_555
C2 H2 1_555 1_555
C3 C5 1_555 1_555
C4 C1 1_555 1_555
C5 C11 1_555 1_555
C6 O2 1_555 1_555
C7 C6 1_555 1_555
C8 C4 1_555 1_555
C9 C7 1_555 1_555
C10 N1 1_555 1_555
C11 C9 1_555 1_555
C12 C5 1_555 1_555
C13 C7 1_555 1_555
H1 C1 1_555 1_555
H3 C8 1_555 1_555
H4 C13 1_555 1_555
H5 C11 1_555 1_555
H6 C9 1_555 1_555
H7 C12 1_555 1_555
H8 C10 1_555 1_555
C14 H9 1_555 1_555
H10 C14 1_555 1_555
H11 C14 1_555 1_555
C15 C14 1_555 1_555
N2 C15 1_555 1_555
O1D N1D 1_555 1_555
N1D C2D 1_555 1_555
C1D C2D 1_555 1_555
C2D H2D 1_555 1_555
C4D C4 1_555 1_555
C8D C4D 1_555 1_555
C10D N1D 1_555 1_555
H1D C1D 1_555 1_555
H3D C8D 1_555 1_555
H8D C10D 1_555 1_555
O2A Mg1 1_555 1_555
O3A C3A 1_555 1_555
O4A C3A 1_555 1_555
O5A C6A 1_555 1_555
C3A C5A 1_555 1_555
C5A C11A 1_555 1_555
C6A O2A 1_555 1_555
C7A C6A 1_555 1_555
C9A C7A 1_555 1_555
C11A C9A 1_555 1_555
C12A C5A 1_555 1_555
C13A C7A 1_555 1_555
H4A C13A 1_555 1_555
H5A C11A 1_555 1_555
H6A C9A 1_555 1_555
H7A C12A 1_555 1_555
Mg1D O1D 1_555 1_555
Mg1D_2 O3 1_555 1_555
Mg1D_3 O3A 1_555 1_555
Mg2A O5A 1_555 1_555
Mg2B O1D 1_555 1_555
Mg2B_2 O4A 1_555 1_555
Mg2C O4 1_555 1_555
O1A Mg1 1_555 1_555
O1F Mg2 1_555 1_555
O3D Mg1 1_555 1_555
O3E Mg1 1_555 1_555
O4C Mg2 1_555 1_555
O4E Mg2 1_555 1_555
O5F Mg2 1_555 1_555
O5 C6 1_555 1_555
C8 C10 1_555 1_555
C12 C13 1_555 1_555
C1D C4D 1_555 1_555
C8D C10D 1_555 1_555
C12A C13A 1_555 1_555
Mg2A O1A 1_555 1_555

#END
