
#######################################################################
#
#                 Cambridge Crystallographic Data Centre
#                                CCDC 
#
#######################################################################
#
# If this CIF has been generated from an entry in the Cambridge 
# Structural Database, then it will include bibliographic, chemical, 
# crystal, experimental, refinement or atomic coordinate data resulting 
# from the CCDC's data processing and validation procedures.
#
#######################################################################

data_LADKEJ
_chemical_formula_moiety         '(C48 H36 Cd4 N4 O28 2-)n'
_symmetry_cell_setting           triclinic
_symmetry_space_group_name_H-M   'P -1'
_symmetry_Int_Tables_number      2
_space_group_name_Hall           '-P 1'
loop_
_symmetry_equiv_pos_site_id
_symmetry_equiv_pos_as_xyz
1 x,y,z
2 -x,-y,-z
_cell_length_a                   9.3037(14)
_cell_length_b                   9.5728(15)
_cell_length_c                   18.669(3)
_cell_angle_alpha                82.061(3)
_cell_angle_beta                 79.153(3)
_cell_angle_gamma                72.695(3)
_cell_volume                     1553.09
loop_
_atom_site_label
_atom_site_type_symbol
_atom_site_fract_x
_atom_site_fract_y
_atom_site_fract_z
Cd1 Cd 0.20750(5) 0.82020(5) 0.10807(2)
Cd2 Cd 0.10107(6) 0.76459(5) 0.43271(2)
C1 C 0.1497(7) 0.1543(6) 0.3075(3)
C2 C 0.1858(7) 0.1709(6) 0.2305(3)
C3 C 0.2031(7) 0.3038(6) 0.1965(3)
H1 H 0.236(6) 0.311(6) 0.139(3)
C4 C 0.1857(7) 0.4224(6) 0.2362(3)
C5 C 0.1540(7) 0.4051(6) 0.3131(3)
C6 C 0.1336(7) 0.2729(6) 0.3481(3)
C7 C 0.1396(8) 0.5303(7) 0.3585(3)
C8 C 0.1989(7) 0.5666(7) 0.1950(4)
C9 C 0.1291(8) 0.0113(7) 0.3480(3)
C10 C 0.1985(8) 0.0492(6) 0.1840(3)
C11 C 0.0883(8) 0.2559(7) 0.4305(3)
C12 C 0.9454(9) 0.4589(9) 0.0192(6)
H2 H 0.951(7) 0.381(7) -0.007(4)
H3 H 1.001(9) 0.428(9) 0.063(4)
C13 C 0.7794(8) 0.5451(8) 0.0313(4)
C14 C 0.5675(8) 0.7621(7) 0.0334(4)
H4 H 0.5326 0.8630 0.0223
C15 C 0.7235(8) 0.6961(8) 0.0148(4)
H5 H 0.7886 0.7517 -0.0081
C16 C 0.5212(8) 0.5475(7) 0.0788(4)
H6 H 0.4530 0.4944 0.1007
C17 C 0.6724(8) 0.4711(8) 0.0620(4)
H7 H 0.7027 0.3694 0.0714
C18 C -0.0715(8) 0.9933(7) 0.0272(4)
N1 N 0.4656(6) 0.6937(6) 0.0655(3)
O1 O 0.2270(5) 0.8556(5) 0.5066(2)
H8 H 0.2275 0.9399 0.4910
O2 O -0.1988(5) 1.0670(5) 0.0095(2)
O3 O 0.0216(5) 0.6368(4) 0.3593(2)
O4 O 0.2433(5) 0.5210(5) 0.3943(2)
O5 O -0.0347(6) 0.3450(5) 0.4556(2)
O6 O 0.1529(5) 0.5988(4) 0.1341(2)
O7 O 0.2559(6) 0.6454(5) 0.2217(2)
O8 O 0.0014(5) 0.0113(4) 0.3862(2)
O9 O 0.2403(5) -0.1007(5) 0.3437(2)
O10 O 0.0998(5) -0.0181(5) 0.1985(2)
O11 O 0.3051(5) 0.0236(5) 0.1312(2)
O12 O -0.0513(5) 0.9092(5) 0.0837(3)
O13 O 0.1669(6) 0.1570(5) 0.4685(2)
C12A C 1.0546(9) 0.5411(9) -0.0192(6)
H2A H 1.049(7) 0.619(7) 0.007(4)
H3A H 0.999(9) 0.572(9) -0.063(4)
C13A C 1.2206(8) 0.4549(8) -0.0313(4)
C14A C 1.4325(8) 0.2379(7) -0.0334(4)
H4A H 1.4674 0.1370 -0.0223
C15A C 1.2765(8) 0.3039(8) -0.0148(4)
H5A H 1.2114 0.2483 0.0081
C16A C 1.4788(8) 0.4525(7) -0.0788(4)
H6A H 1.5470 0.5056 -0.1007
C17A C 1.3276(8) 0.5289(8) -0.0620(4)
H7A H 1.2973 0.6306 -0.0714
N1A N 1.5344(6) 0.3063(6) -0.0655(3)
C18A C 0.0715(8) 1.0067(7) -0.0272(4)
O12A O 0.0513(5) 1.0908(5) -0.0837(3)
O2A O 0.1988(5) 0.9330(5) -0.0095(2)
Cd1A Cd -0.20750(5) 0.17980(5) 0.89193(2)
Cd2A Cd -0.10107(6) 0.23541(5) 0.56729(2)
C1A C -0.1497(7) 0.8457(6) 0.6925(3)
C2A C -0.1858(7) 0.8291(6) 0.7695(3)
C3A C -0.2031(7) 0.6962(6) 0.8035(3)
H1A H -0.236(6) 0.689(6) 0.861(3)
C4A C -0.1857(7) 0.5776(6) 0.7638(3)
C5A C -0.1540(7) 0.5949(6) 0.6869(3)
C6A C -0.1336(7) 0.7271(6) 0.6519(3)
C7A C -0.1396(8) 0.4697(7) 0.6415(3)
C8A C -0.1989(7) 0.4334(7) 0.8050(4)
C9A C -0.1291(8) 0.9887(7) 0.6520(3)
C10A C -0.1985(8) 0.9508(6) 0.8160(3)
C11A C -0.0883(8) 0.7441(7) 0.5695(3)
O1A O -0.2270(5) 0.1444(5) 0.4934(2)
H8A H -0.2275 0.0601 0.5090
O3A O -0.0216(5) 0.3632(4) 0.6407(2)
O4A O -0.2433(5) 0.4790(5) 0.6057(2)
O5A O 0.0347(6) 0.6550(5) 0.5444(2)
O6A O -0.1529(5) 0.4012(4) 0.8659(2)
O7A O -0.2559(6) 0.3546(5) 0.7783(2)
O8A O -0.0014(5) 0.9887(4) 0.6138(2)
O9A O -0.2403(5) 1.1007(5) 0.6563(2)
O10A O -0.0998(5) 1.0181(5) 0.8015(2)
O11A O -0.3051(5) 0.9764(5) 0.8688(2)
O13A O -0.1669(6) 0.8430(5) 0.5315(2)
Cd1_2 Cd 0.20750(5) -0.17980(5) 0.10807(2)
Cd1A_2 Cd -0.20750(5) 1.17980(5) -0.10807(2)
Cd1A_3 Cd -0.20750(5) 1.17980(5) 0.89193(2)
Cd1A_4 Cd 1.79250(5) 0.17980(5) -0.10807(2)
Cd2_2 Cd 0.10107(6) -0.23541(5) 0.43271(2)
Cd2A_2 Cd -0.10107(6) 1.23541(5) 0.56729(2)
N1A_2 N -0.4656(6) 0.3063(6) 0.9345(3)
O2_2 O -0.1988(5) 0.0670(5) 1.0095(2)
O8_2 O 0.0014(5) 1.0113(4) 0.3862(2)
O8A_2 O -0.0014(5) -0.0113(4) 0.6138(2)
O9_2 O 0.2403(5) 0.8993(5) 0.3437(2)
O9A_2 O -0.2403(5) 0.1007(5) 0.6563(2)
O10_2 O 0.0998(5) 0.9819(5) 0.1985(2)
O10A_2 O -0.0998(5) 0.0181(5) 0.8015(2)
O11_2 O 0.3051(5) 1.0236(5) 0.1312(2)
O11A_2 O -0.3051(5) -0.0236(5) 0.8688(2)
O12A_2 O 0.0513(5) 0.0908(5) 0.9163(3)
C19 C 0.7883(9) 0.6888(8) 0.1896(4)
H9 H 0.8724 0.7057 0.1578
C20 C 0.7959(8) 0.5566(9) 0.2270(4)
H10 H 0.8859 0.4812 0.2199
C21 C 0.6728(8) 0.5303(8) 0.2757(4)
C22 C 0.5412(8) 0.6431(8) 0.2844(4)
H11 H 0.4569 0.6294 0.3172
C23 C 0.5341(8) 0.7752(8) 0.2450(4)
H12 H 0.4441 0.8511 0.2500
C24 C 0.6797(9) 0.3819(8) 0.3150(5)
H13 H 0.6370 0.3925 0.3662
H14 H 0.7852 0.3238 0.3125
C25 C 0.5919(9) 0.3019(7) 0.2819(5)
H15 H 0.4836 0.3503 0.2921
H16 H 0.6223 0.3058 0.2292
C26 C 0.6229(8) 0.1445(8) 0.3133(4)
C27 C 0.5256(9) 0.0983(10) 0.3708(5)
H17 H 0.4348 0.1638 0.3897
C28 C 0.5646(13) -0.0456(12) 0.3999(5)
H18 H 0.4988 -0.0789 0.4376
C29 C 0.7541(9) 0.0429(8) 0.2866(4)
H19 H 0.8194 0.0705 0.2467
C30 C 0.7890(11) -0.0948(10) 0.3170(6)
H20 H 0.8787 -0.1619 0.2982
N2 N 0.6562(7) 0.7958(6) 0.1992(3)
H21 H 0.6502 0.8801 0.1751
N3 N 0.6985(11) -0.1377(8) 0.3735(5)
H22 H 0.7256 -0.2259 0.3937
O14 O 0.5843(6) 1.0776(6) 0.1354(3)
H23 H 0.501(4) 1.072(7) 0.123(3)
H24 H 0.640(10) 1.077(11) 0.093(3)
O15 O 0.7173(6) -0.4054(5) 0.4521(3)
loop_
_geom_bond_atom_site_label_1
_geom_bond_atom_site_label_2
_geom_bond_site_symmetry_1
_geom_bond_site_symmetry_2
Cd1 N1 1_555 1_555
Cd2 O1 1_555 1_555
C1 C2 1_555 1_555
C2 C3 1_555 1_555
C3 H1 1_555 1_555
C4 C3 1_555 1_555
C5 C4 1_555 1_555
C6 C1 1_555 1_555
C7 C5 1_555 1_555
C8 C4 1_555 1_555
C9 C1 1_555 1_555
C10 C2 1_555 1_555
C11 C6 1_555 1_555
C12 H2 1_555 1_555
H3 C12 1_555 1_555
C13 C12 1_555 1_555
C14 H4 1_555 1_555
C15 C13 1_555 1_555
H5 C15 1_555 1_555
C16 H6 1_555 1_555
C17 C13 1_555 1_555
H7 C17 1_555 1_555
C18 O2 1_555 1_555
N1 C14 1_555 1_555
O1 H8 1_555 1_555
O2 Cd1A_2 1_555 1_555
O3 Cd2 1_555 1_555
O4 Cd2 1_555 1_555
O5 C11 1_555 1_555
O6 Cd1 1_555 1_555
O7 Cd1 1_555 1_555
O8 C9 1_555 1_555
O9 C9 1_555 1_555
O10 C10 1_555 1_555
O11 C10 1_555 1_555
O12 Cd1 1_555 1_555
O13 C11 1_555 1_555
C19 H9 1_555 1_555
C20 C19 1_555 1_555
H10 C20 1_555 1_555
C21 C20 1_555 1_555
C22 C21 1_555 1_555
H11 C22 1_555 1_555
C23 C22 1_555 1_555
H12 C23 1_555 1_555
C24 C21 1_555 1_555
H13 C24 1_555 1_555
H14 C24 1_555 1_555
C25 C24 1_555 1_555
H15 C25 1_555 1_555
H16 C25 1_555 1_555
C26 C25 1_555 1_555
C27 C26 1_555 1_555
H17 C27 1_555 1_555
C28 C27 1_555 1_555
H18 C28 1_555 1_555
C29 C26 1_555 1_555
H19 C29 1_555 1_555
C30 C29 1_555 1_555
H20 C30 1_555 1_555
N2 C19 1_555 1_555
H21 N2 1_555 1_555
N3 C28 1_555 1_555
H22 N3 1_555 1_555
O14 H23 1_555 1_555
H24 O14 1_555 1_555
C12A C12 1_555 1_555
H2A C12A 1_555 1_555
H3A C12A 1_555 1_555
C13A C12A 1_555 1_555
C14A H4A 1_555 1_555
C15A C13A 1_555 1_555
H5A C15A 1_555 1_555
C16A H6A 1_555 1_555
C17A C13A 1_555 1_555
H7A C17A 1_555 1_555
N1A C14A 1_555 1_555
C18A C18 1_555 1_555
O12A C18A 1_555 1_555
O2A Cd1 1_555 1_555
Cd1A O6A 1_555 1_555
Cd2A O5 1_555 1_555
C1A C2A 1_555 1_555
C2A C3A 1_555 1_555
C3A H1A 1_555 1_555
C4A C3A 1_555 1_555
C5A C4A 1_555 1_555
C6A C1A 1_555 1_555
C7A C5A 1_555 1_555
C8A C4A 1_555 1_555
C9A C1A 1_555 1_555
C10A C2A 1_555 1_555
C11A C6A 1_555 1_555
O1A Cd2A 1_555 1_555
H8A O1A 1_555 1_555
O3A Cd2A 1_555 1_555
O4A Cd2A 1_555 1_555
O5A Cd2 1_555 1_555
O6A C8A 1_555 1_555
O7A Cd1A 1_555 1_555
O8A C9A 1_555 1_555
O9A C9A 1_555 1_555
O10A C10A 1_555 1_555
O11A C10A 1_555 1_555
O13A Cd2 1_555 1_555
Cd1_2 O10 1_555 1_555
Cd1A_2 O12A 1_555 1_555
Cd1A_3 O10A 1_555 1_555
Cd1A_4 N1A 1_555 1_555
Cd2_2 O8 1_555 1_555
Cd2A_2 O8A 1_555 1_555
N1A_2 Cd1A 1_555 1_555
O2_2 Cd1A 1_555 1_555
O8_2 Cd2 1_555 1_555
O8A_2 Cd2A 1_555 1_555
O9_2 Cd2 1_555 1_555
O9A_2 Cd2A 1_555 1_555
O10_2 Cd1 1_555 1_555
O10A_2 Cd1A 1_555 1_555
O11_2 Cd1 1_555 1_555
O11A_2 Cd1A 1_555 1_555
O12A_2 Cd1A 1_555 1_555
C5 C6 1_555 1_555
C7 O3 1_555 1_555
C7 O4 1_555 1_555
C8 O6 1_555 1_555
C8 O7 1_555 1_555
C14 C15 1_555 1_555
C16 C17 1_555 1_555
C16 N1 1_555 1_555
C18 O12 1_555 1_555
O9 Cd2_2 1_555 1_555
O11 Cd1_2 1_555 1_555
O13 Cd2A 1_555 1_555
C23 N2 1_555 1_555
C30 N3 1_555 1_555
C14A C15A 1_555 1_555
C16A C17A 1_555 1_555
C16A N1A 1_555 1_555
C18A O2A 1_555 1_555
C5A C6A 1_555 1_555
C7A O3A 1_555 1_555
C7A O4A 1_555 1_555
C8A O7A 1_555 1_555
C11A O5A 1_555 1_555
C11A O13A 1_555 1_555
O9A Cd2A_2 1_555 1_555
O11A Cd1A_3 1_555 1_555

#END
