
#######################################################################
#
#                 Cambridge Crystallographic Data Centre
#                                CCDC 
#
#######################################################################
#
# If this CIF has been generated from an entry in the Cambridge 
# Structural Database, then it will include bibliographic, chemical, 
# crystal, experimental, refinement or atomic coordinate data resulting 
# from the CCDC's data processing and validation procedures.
#
#######################################################################

data_ZERNAN
_chemical_formula_moiety         '(C39 H35 N3 O19 Y2)n'
_symmetry_cell_setting           triclinic
_symmetry_space_group_name_H-M   'P -1'
_symmetry_Int_Tables_number      2
_space_group_name_Hall           '-P 1'
loop_
_symmetry_equiv_pos_site_id
_symmetry_equiv_pos_as_xyz
1 x,y,z
2 -x,-y,-z
_cell_length_a                   12.725(19)
_cell_length_b                   13.57(2)
_cell_length_c                   14.12(2)
_cell_angle_alpha                66.224(14)
_cell_angle_beta                 67.182(15)
_cell_angle_gamma                77.113(14)
_cell_volume                     2050.23
loop_
_atom_site_label
_atom_site_type_symbol
_atom_site_fract_x
_atom_site_fract_y
_atom_site_fract_z
Y1 Y 0.92862(5) 0.38187(5) 0.51132(6)
Y2 Y 0.93186(5) 0.32077(5) 0.16515(5)
O1 O 0.7795(4) 0.3591(4) 0.4720(4)
O2 O 0.8005(4) 0.3590(4) 0.3091(4)
O3 O 0.1081(4) 0.4539(4) 0.4388(4)
O4 O 0.2424(4) 0.5634(4) 0.3652(4)
O5 O 0.9293(4) 0.5313(4) 0.3544(4)
O6 O 0.9917(4) 0.6766(4) 0.3491(4)
O7 O 0.8571(4) 0.4674(4) 0.0504(4)
O8 O 0.8882(4) 0.6397(4) -0.0232(4)
O9 O 0.8790(4) 0.1394(4) 0.2648(4)
O10 O 0.7591(4) 0.2476(4) 0.1872(4)
O11 O 0.9745(4) -0.2873(4) 0.5964(4)
O12 O 0.9534(4) -0.2288(4) 0.7295(4)
O13 O 0.8690(4) 0.2112(4) 0.6325(4)
H1 H 0.9125 0.2462 0.6382
H2 H 0.8528 0.1673 0.6125
O14 O 0.9985(4) 0.4693(4) 0.1707(4)
H3 H 0.9778 0.4879 0.2265
H4 H 0.9575 0.4686 0.1358
O15 O 0.9777(5) 0.2380(5) 0.0314(5)
H5 H 0.9503 0.1897 0.0257
H6 H 1.0221 0.2782 0.0286
N1 N 0.4301(5) 0.3710(5) 0.5704(5)
N2 N 0.8123(6) 0.8809(5) 0.1437(6)
N3 N 0.8143(6) 0.0677(5) 0.5695(5)
C1 C 0.7415(6) 0.3622(5) 0.4022(6)
C2 C 0.6134(5) 0.3665(5) 0.4353(6)
C3 C 0.5431(5) 0.3702(6) 0.5370(6)
H7 H 0.5764 0.3723 0.5842
C4 C 0.3840(6) 0.3698(6) 0.5010(6)
H8 H 0.3049 0.3698 0.5247
C5 C 0.4452(5) 0.3687(6) 0.3958(6)
C6 C 0.5625(6) 0.3680(5) 0.3632(6)
H9 H 0.6077 0.3685 0.2931
C7 C 0.3922(5) 0.3581(5) 0.3248(6)
C8 C 0.4527(6) 0.2964(6) 0.2599(6)
H10 H 0.5251 0.2653 0.2619
C9 C 0.4096(6) 0.2791(7) 0.1923(6)
H11 H 0.4523 0.2362 0.1507
C10 C 0.3048(6) 0.3249(6) 0.1868(6)
H12 H 0.2751 0.3134 0.1418
C11 C 0.2428(6) 0.3885(6) 0.2482(6)
H13 H 0.1716 0.4206 0.2433
C12 C 0.2840(5) 0.4060(6) 0.3171(5)
C13 C 0.2100(6) 0.4769(6) 0.3772(6)
C14 C 0.9356(6) 0.6315(6) 0.3246(6)
C15 C 0.8689(6) 0.7032(6) 0.2497(6)
C16 C 0.8713(6) 0.8144(6) 0.2080(6)
H14 H 0.9167 0.8443 0.2259
C17 C 0.7483(6) 0.8348(7) 0.1198(7)
H15 H 0.7060 0.8804 0.0755
C18 C 0.7395(6) 0.7248(6) 0.1554(6)
C19 C 0.8021(5) 0.6571(6) 0.2229(6)
H16 H 0.7993 0.5826 0.2495
C20 C 0.6623(6) 0.6768(6) 0.1315(6)
C21 C 0.5466(6) 0.7076(8) 0.1665(6)
H17 H 0.5200 0.7617 0.1967
C22 C 0.4708(7) 0.6566(8) 0.1560(7)
H18 H 0.3932 0.6781 0.1782
C23 C 0.5073(7) 0.5763(9) 0.1139(7)
H19 H 0.4551 0.5445 0.1060
C24 C 0.6223(6) 0.5419(7) 0.0827(6)
H20 H 0.6474 0.4840 0.0579
C25 C 0.7001(6) 0.5949(6) 0.0890(6)
C26 C 0.8250(6) 0.5641(7) 0.0359(6)
C27 C 0.7841(6) 0.1569(6) 0.2501(6)
C28 C 0.7054(6) 0.0694(6) 0.3027(6)
C29 C 0.6372(6) 0.0690(6) 0.2460(6)
H21 H 0.6433 0.1225 0.1778
C30 C 0.5626(6) -0.0067(7) 0.2871(7)
H22 H 0.5157 -0.0035 0.2490
C31 C 0.5564(7) -0.0902(7) 0.3878(8)
H23 H 0.5073 -0.1443 0.4157
C32 C 0.6236(6) -0.0918(7) 0.4454(7)
H24 H 0.6195 -0.1469 0.5123
C33 C 0.6984(6) -0.0102(6) 0.4032(6)
C34 C 0.7634(6) -0.0162(6) 0.4746(6)
C35 C 0.7628(6) 0.0694(6) 0.5029(6)
H25 H 0.7233 0.1338 0.4731
C36 C 0.8701(6) -0.0250(6) 0.6108(7)
H26 H 0.9081 -0.0278 0.6565
C37 C 0.8757(6) -0.1180(6) 0.5905(6)
C38 C 0.8218(6) -0.1123(6) 0.5199(6)
H27 H 0.8248 -0.1725 0.5030
C39 C 0.9402(5) -0.2179(6) 0.6415(6)
Y1_2 Y -0.07138(5) 0.38187(5) 0.51132(6)
Y1A Y 0.07138(5) 0.61813(5) 0.48868(6)
Y1A_2 Y 1.07138(5) -0.38187(5) 0.48868(6)
Y1A_3 Y 1.07138(5) 0.61813(5) 0.48868(6)
Y2A Y 1.06814(5) -0.32077(5) 0.83485(5)
Y2A_2 Y 1.06814(5) 0.67923(5) -0.16515(5)
O3_2 O 1.1081(4) 0.4539(4) 0.4388(4)
O3A O 0.8919(4) 0.5461(4) 0.5612(4)
O4A O 0.7576(4) 0.4366(4) 0.6348(4)
O6A O 1.0083(4) 0.3234(4) 0.6509(4)
O8A O 1.1118(4) 0.3603(4) 0.0232(4)
O11A O 1.0255(4) 0.2873(4) 0.4036(4)
O12A O 1.0466(4) 0.2288(4) 0.2705(4)
O16 O 0.8894(6) 0.0855(5) 0.0118(6)
H28 H 0.8659 0.0231 0.0519
H29 H 0.8780 0.0387 0.0788
O17 O 0.9586(7) 0.0306(6) 0.7866(7)
H30 H 1.0068 -0.0200 0.7714
H31 H 0.9324 0.0835 0.7415
O18 O 0.750(3) 0.902(3) 0.8724(15)
H32 H 0.8028 0.8680 0.8353
H33 H 0.8078 0.9376 0.8486
O19 O 0.773(2) 0.334(2) 0.941(2)
H34 H 0.7737 0.3087 1.0067
H35 H 0.7944 0.3679 0.9688
loop_
_geom_bond_atom_site_label_1
_geom_bond_atom_site_label_2
_geom_bond_site_symmetry_1
_geom_bond_site_symmetry_2
Y1 O1 1_555 1_555
Y2 O2 1_555 1_555
O1 C1 1_555 1_555
O2 C1 1_555 1_555
O3 C13 1_555 1_555
O4 C13 1_555 1_555
O5 Y1 1_555 1_555
O6 C14 1_555 1_555
O7 Y2 1_555 1_555
O8 C26 1_555 1_555
O9 Y2 1_555 1_555
O10 Y2 1_555 1_555
O11 C39 1_555 1_555
O12 C39 1_555 1_555
O13 Y1 1_555 1_555
H1 O13 1_555 1_555
H2 O13 1_555 1_555
O14 Y2 1_555 1_555
H3 O14 1_555 1_555
H4 O14 1_555 1_555
O15 Y2 1_555 1_555
H5 O15 1_555 1_555
H6 O15 1_555 1_555
N1 C3 1_555 1_555
N2 C16 1_555 1_555
N3 C35 1_555 1_555
C1 C2 1_555 1_555
C2 C3 1_555 1_555
C3 H7 1_555 1_555
C4 N1 1_555 1_555
H8 C4 1_555 1_555
C5 C4 1_555 1_555
C6 C2 1_555 1_555
H9 C6 1_555 1_555
C7 C5 1_555 1_555
C8 C7 1_555 1_555
H10 C8 1_555 1_555
C9 C8 1_555 1_555
H11 C9 1_555 1_555
C10 C9 1_555 1_555
H12 C10 1_555 1_555
C11 C10 1_555 1_555
H13 C11 1_555 1_555
C12 C7 1_555 1_555
C13 C12 1_555 1_555
C14 O5 1_555 1_555
C15 C14 1_555 1_555
C16 C15 1_555 1_555
H14 C16 1_555 1_555
C17 N2 1_555 1_555
H15 C17 1_555 1_555
C18 C17 1_555 1_555
C19 C15 1_555 1_555
H16 C19 1_555 1_555
C20 C18 1_555 1_555
C21 C20 1_555 1_555
H17 C21 1_555 1_555
C22 C21 1_555 1_555
H18 C22 1_555 1_555
C23 C22 1_555 1_555
H19 C23 1_555 1_555
C24 C23 1_555 1_555
H20 C24 1_555 1_555
C25 C20 1_555 1_555
C26 O7 1_555 1_555
C27 O9 1_555 1_555
C28 C27 1_555 1_555
C29 C28 1_555 1_555
H21 C29 1_555 1_555
C30 C29 1_555 1_555
H22 C30 1_555 1_555
C31 C30 1_555 1_555
H23 C31 1_555 1_555
C32 C31 1_555 1_555
H24 C32 1_555 1_555
C33 C28 1_555 1_555
C34 C33 1_555 1_555
C35 C34 1_555 1_555
H25 C35 1_555 1_555
C36 N3 1_555 1_555
H26 C36 1_555 1_555
C37 C36 1_555 1_555
C38 C34 1_555 1_555
H27 C38 1_555 1_555
C39 C37 1_555 1_555
O16 H28 1_555 1_555
H29 O16 1_555 1_555
O17 H30 1_555 1_555
H31 O17 1_555 1_555
O18 H32 1_555 1_555
H33 O18 1_555 1_555
O19 H34 1_555 1_555
H35 O19 1_555 1_555
Y1_2 O3 1_555 1_555
Y1A O3 1_555 1_555
Y1A_2 O11 1_555 1_555
Y1A_3 O6 1_555 1_555
Y2A O12 1_555 1_555
Y2A_2 O8 1_555 1_555
O3_2 Y1 1_555 1_555
O3A Y1 1_555 1_555
O4A Y1 1_555 1_555
O6A Y1 1_555 1_555
O8A Y2 1_555 1_555
O11A Y1 1_555 1_555
O12A Y2 1_555 1_555
O4 Y1A 1_555 1_555
O10 C27 1_555 1_555
C5 C6 1_555 1_555
C11 C12 1_555 1_555
C18 C19 1_555 1_555
C24 C25 1_555 1_555
C25 C26 1_555 1_555
C32 C33 1_555 1_555
C37 C38 1_555 1_555
Y1A_3 O3_2 1_555 1_555
Y1A_3 O3A 1_555 1_555

#END
