
#######################################################################
#
#                 Cambridge Crystallographic Data Centre
#                                CCDC 
#
#######################################################################
#
# If this CIF has been generated from an entry in the Cambridge 
# Structural Database, then it will include bibliographic, chemical, 
# crystal, experimental, refinement or atomic coordinate data resulting 
# from the CCDC's data processing and validation procedures.
#
#######################################################################

data_LUSYEF
_chemical_formula_moiety         '(C26 H16 Cu2 O10)n'
_symmetry_cell_setting           rhombohedral
_symmetry_space_group_name_H-M   'R -3 m'
_symmetry_Int_Tables_number      166
_space_group_name_Hall           '-R 3 2"'
loop_
_symmetry_equiv_pos_site_id
_symmetry_equiv_pos_as_xyz
1 x,y,z
2 -y,x-y,z
3 -x+y,-x,z
4 y,x,-z
5 x-y,-y,-z
6 -x,-x+y,-z
7 2/3+x,1/3+y,1/3+z
8 2/3-y,1/3+x-y,1/3+z
9 2/3-x+y,1/3-x,1/3+z
10 2/3+y,1/3+x,1/3-z
11 2/3+x-y,1/3-y,1/3-z
12 2/3-x,1/3-x+y,1/3-z
13 1/3+x,2/3+y,2/3+z
14 1/3-y,2/3+x-y,2/3+z
15 1/3-x+y,2/3-x,2/3+z
16 1/3+y,2/3+x,2/3-z
17 1/3+x-y,2/3-y,2/3-z
18 1/3-x,2/3-x+y,2/3-z
19 -x,-y,-z
20 y,-x+y,-z
21 x-y,x,-z
22 -y,-x,z
23 -x+y,y,z
24 x,x-y,z
25 1/3-x,2/3-y,2/3-z
26 1/3+y,2/3-x+y,2/3-z
27 1/3+x-y,2/3+x,2/3-z
28 1/3-y,2/3-x,2/3+z
29 1/3-x+y,2/3+y,2/3+z
30 1/3+x,2/3+x-y,2/3+z
31 2/3-x,1/3-y,1/3-z
32 2/3+y,1/3-x+y,1/3-z
33 2/3+x-y,1/3+x,1/3-z
34 2/3-y,1/3-x,1/3+z
35 2/3-x+y,1/3+y,1/3+z
36 2/3+x,1/3+x-y,1/3+z
_cell_length_a                   18.4284(17)
_cell_length_b                   18.4284(17)
_cell_length_c                   40.081(3)
_cell_angle_alpha                90
_cell_angle_beta                 90
_cell_angle_gamma                120
_cell_volume                     11788.1
loop_
_atom_site_label
_atom_site_type_symbol
_atom_site_fract_x
_atom_site_fract_y
_atom_site_fract_z
_atom_site_U_iso_or_equiv
_atom_site_thermal_displace_type
Cu1 Cu 0.04881(5) 0.52441(3) 0.02667(2) 0.0609 Uani
O1 O 0.1319(5) 0.5659(2) 0.06878(18) 0.1270 Uani
C1 C -0.1772(3) 0.6457(6) 0.1514(2) 0.0712 Uani
O2 O -0.0276(3) 0.5612(3) 0.04305(10) 0.0798 Uani
O3 O -0.1085(2) 0.5200(3) -0.00193(9) 0.0812 Uani
C2 C -0.1567(4) 0.6865(7) 0.1216(2) 0.0990 Uani
C3 C -0.1254(4) 0.6196(4) 0.07318(15) 0.0788 Uani
H1 H -0.0755 0.6320 0.0837 0.0950 Uiso
C4 C -0.1142(5) 0.7715(9) 0.1208(4) 0.2554 Uani
H2 H -0.0998 0.8004 0.1007 0.3080 Uiso
C5 C -0.0922(5) 0.8155(9) 0.1521(4) 0.3563 Uani
H3 H -0.0631 0.8738 0.1522 0.4260 Uiso
C6 C -0.2205(3) 0.5591(5) 0.02741(18) 0.0689 Uani
H4 H -0.2340 0.5320 0.0069 0.0830 Uiso
C7 C -0.1450(3) 0.5786(4) 0.04223(13) 0.0661 Uani
C8 C -0.2203(5) 0.5593(10) 0.1521(3) 0.1822 Uani
H5 H -0.2353 0.5295 0.1322 0.2190 Uiso
C9 C -0.1791(3) 0.6418(6) 0.0882(2) 0.0848 Uani
C10 C -0.0903(3) 0.5504(4) 0.02686(13) 0.0637 Uani
C1J C -0.1562(7) 0.6876(6) 0.1819(2) 0.0712 Uani
O2J O 0.0779(4) 0.7721(3) 0.29028(10) 0.0798 Uani
O3J O 0.0382(4) 0.8133(3) 0.33526(9) 0.0812 Uani
C2J C -0.1765(8) 0.6468(7) 0.2117(2) 0.0990 Uani
C3J C -0.0783(6) 0.7137(4) 0.26015(15) 0.0788 Uani
H1J H -0.0408 0.7013 0.2496 0.0950 Uiso
C4J C -0.2190(10) 0.5618(9) 0.2125(4) 0.2554 Uani
H2J H -0.2335 0.5329 0.2326 0.3080 Uiso
C5J C -0.2410(10) 0.5178(9) 0.1812(4) 0.3563 Uani
H3J H -0.2702 0.4595 0.1811 0.4260 Uiso
C6J C -0.1129(6) 0.7742(5) 0.30592(18) 0.0689 Uani
H4J H -0.0993 0.8013 0.3264 0.0830 Uiso
C7J C -0.0569(5) 0.7547(4) 0.29110(13) 0.0661 Uani
C8J C -0.1129(11) 0.7740(10) 0.1812(3) 0.1822 Uani
H5J H -0.0981 0.8038 0.2011 0.2190 Uiso
C9J C -0.1542(7) 0.6915(6) 0.2451(2) 0.0848 Uani
C10J C 0.0260(5) 0.7829(4) 0.30647(13) 0.0637 Uani
O2V O -0.4112(4) 0.5612(3) 0.04305(10) 0.0798 Uani
O3V O -0.3715(4) 0.5200(3) -0.00193(9) 0.0812 Uani
C3V C -0.2550(6) 0.6196(4) 0.07318(15) 0.0788 Uani
H1V H -0.2925 0.6320 0.0837 0.0950 Uiso
C7V C -0.2764(5) 0.5786(4) 0.04223(13) 0.0661 Uani
C10V C -0.3593(5) 0.5504(4) 0.02686(13) 0.0637 Uani
O2DA O -0.3057(3) 0.7721(3) 0.29028(10) 0.0798 Uani
O3DA O -0.2248(2) 0.8133(3) 0.33526(9) 0.0812 Uani
C3DA C -0.2079(4) 0.7137(4) 0.26015(15) 0.0788 Uani
H1DA H -0.2578 0.7013 0.2496 0.0950 Uiso
C7DA C -0.1883(3) 0.7547(4) 0.29110(13) 0.0661 Uani
C10DA C -0.2430(3) 0.7829(4) 0.30647(13) 0.0637 Uani
Cu1A Cu -0.52441(3) 0.52440(6) 0.02667(2) 0.0609 Uani
O1A O -0.5659(2) 0.5660(5) 0.06878(18) 0.1270 Uani
Cu1D Cu -0.47560(6) 0.47559(3) -0.02667(2) 0.0609 Uani
Cu1E Cu -0.04881(5) 0.47560(6) -0.02667(2) 0.0609 Uani
Cu1F Cu -0.28452(5) 0.85774(3) 0.36000(2) 0.0609 Uani
Cu1G Cu 0.14226(3) 0.85773(6) 0.36000(2) 0.0609 Uani
Cu1J Cu 0.19107(6) 0.80892(3) 0.30666(2) 0.0609 Uani
Cu1K Cu -0.38214(5) 0.80893(6) 0.30666(2) 0.0609 Uani
O2A O -0.5612(3) 0.4112(4) 0.04305(10) 0.0798 Uani
O2W O -0.0276(3) 0.4112(4) 0.04305(10) 0.0798 Uani
O3D O -0.6285(4) 0.4800(3) 0.00193(9) 0.0812 Uani
O3E O 0.1085(2) 0.6285(4) 0.00193(9) 0.0812 Uani
O3R O 0.1085(2) 0.4800(3) 0.00193(9) 0.0812 Uani
O3S O -0.4800(3) 0.6285(4) 0.00193(9) 0.0812 Uani
loop_
_atom_site_aniso_label
_atom_site_aniso_U_11
_atom_site_aniso_U_22
_atom_site_aniso_U_33
_atom_site_aniso_U_23
_atom_site_aniso_U_13
_atom_site_aniso_U_12
Cu1 0.0580(6) 0.0794(6) 0.0382(5) -0.0054(2) -0.0107(4) 0.0290(3)
O1 0.132(6) 0.153(5) 0.089(5) -0.030(2) -0.060(5) 0.066(3)
C1 0.076(4) 0.079(6) 0.059(5) -0.021(4) -0.011(2) 0.039(3)
O2 0.083(3) 0.107(3) 0.058(2) -0.017(2) -0.011(2) 0.054(2)
O3 0.076(3) 0.123(3) 0.057(2) -0.021(2) -0.014(2) 0.059(3)
C2 0.130(7) 0.106(8) 0.053(5) -0.022(5) -0.011(3) 0.053(4)
C3 0.076(4) 0.094(4) 0.067(4) -0.015(3) -0.013(3) 0.043(4)
C4 0.46(3) 0.103(11) 0.085(10) -0.020(9) -0.010(4) 0.052(5)
C5 0.70(5) 0.089(10) 0.077(9) -0.037(8) -0.019(4) 0.045(5)
C6 0.080(4) 0.084(6) 0.044(4) -0.009(4) -0.005(2) 0.042(3)
C7 0.068(3) 0.077(4) 0.049(3) -0.003(3) -0.009(3) 0.033(3)
C8 0.300(17) 0.136(12) 0.056(7) -0.025(8) -0.012(4) 0.068(6)
C9 0.103(5) 0.096(7) 0.053(5) -0.014(5) -0.007(2) 0.048(3)
C10 0.047(3) 0.096(4) 0.047(3) 0.000(3) -0.004(2) 0.035(3)
C1J 0.077 0.079 0.059 -0.021 -0.01 0.04
O2J 0.082 0.107 0.058 -0.017 -0.006 0.053
O3J 0.081 0.123 0.057 -0.021 -0.007 0.064
C2J 0.13 0.106 0.053 -0.022 -0.011 0.053
C3J 0.084 0.094 0.067 -0.015 -0.002 0.051
C4J 0.459 0.103 0.085 -0.02 -0.01 0.051
C5J 0.699 0.089 0.077 -0.037 -0.018 0.044
C6J 0.08 0.084 0.044 -0.009 -0.004 0.042
C7J 0.079 0.077 0.049 -0.003 0.006 0.044
C8J 0.3 0.136 0.056 -0.025 -0.013 0.068
C9J 0.103 0.096 0.053 -0.014 -0.007 0.048
C10J 0.073 0.096 0.047 0 0.004 0.061
O2V 0.082 0.107 0.058 -0.017 -0.006 0.053
O3V 0.081 0.123 0.057 -0.021 -0.007 0.064
C3V 0.084 0.094 0.067 -0.015 -0.002 0.051
C7V 0.079 0.077 0.049 -0.003 0.006 0.044
C10V 0.073 0.096 0.047 0 0.004 0.061
O2DA 0.083 0.107 0.058 -0.017 -0.011 0.054
O3DA 0.076 0.123 0.057 -0.021 -0.014 0.059
C3DA 0.076 0.094 0.067 -0.015 -0.013 0.043
C7DA 0.068 0.077 0.049 -0.003 -0.009 0.033
C10DA 0.047 0.096 0.047 0 -0.004 0.035
Cu1A 0.0794 0.0794 0.0382 -0.0053 0.0054 0.0504
O1A 0.153 0.153 0.089 -0.03 0.03 0.087
Cu1D 0.0794 0.0794 0.0382 -0.0054 0.0053 0.0504
Cu1E 0.058 0.0794 0.0382 -0.0053 -0.0107 0.029
Cu1F 0.058 0.0794 0.0382 -0.0054 -0.0107 0.029
Cu1G 0.0794 0.0794 0.0382 -0.0053 0.0054 0.0504
Cu1J 0.0794 0.0794 0.0382 -0.0054 0.0053 0.0504
Cu1K 0.058 0.0794 0.0382 -0.0053 -0.0107 0.029
O2A 0.107 0.082 0.058 0.006 0.017 0.053
O2W 0.083 0.082 0.058 0.006 -0.011 0.029
O3D 0.081 0.123 0.057 -0.021 -0.007 0.064
O3E 0.076 0.081 0.057 0.007 -0.014 0.017
O3R 0.076 0.123 0.057 -0.021 -0.014 0.059
O3S 0.123 0.081 0.057 0.007 0.021 0.064
loop_
_geom_bond_atom_site_label_1
_geom_bond_atom_site_label_2
_geom_bond_site_symmetry_1
_geom_bond_site_symmetry_2
Cu1 O1 1_555 1_555
C1 C2 1_555 1_555
O2 Cu1 1_555 1_555
O3 C10 1_555 1_555
C2 C4 1_555 1_555
C3 H1 1_555 1_555
C4 H2 1_555 1_555
C5 C4 1_555 1_555
H3 C5 1_555 1_555
C6 H4 1_555 1_555
C7 C3 1_555 1_555
C8 C1 1_555 1_555
H5 C8 1_555 1_555
C9 C2 1_555 1_555
C10 O2 1_555 1_555
C1J C1 1_555 1_555
O2J C10J 1_555 1_555
O3J C10J 1_555 1_555
C2J C1J 1_555 1_555
C3J H1J 1_555 1_555
C4J C2J 1_555 1_555
H2J C4J 1_555 1_555
C5J C8 1_555 1_555
H3J C5J 1_555 1_555
C6J H4J 1_555 1_555
C7J C3J 1_555 1_555
C8J C5 1_555 1_555
H5J C8J 1_555 1_555
C9J C2J 1_555 1_555
C10J C7J 1_555 1_555
O2V C10V 1_555 1_555
O3V C10V 1_555 1_555
C3V C9 1_555 1_555
H1V C3V 1_555 1_555
C7V C6 1_555 1_555
C10V C7V 1_555 1_555
O2DA C10DA 1_555 1_555
O3DA C10DA 1_555 1_555
C3DA C9J 1_555 1_555
H1DA C3DA 1_555 1_555
C7DA C6J 1_555 1_555
C10DA C7DA 1_555 1_555
Cu1A O2V 1_555 1_555
O1A Cu1A 1_555 1_555
Cu1D O3V 1_555 1_555
Cu1E Cu1 1_555 1_555
Cu1F O3DA 1_555 1_555
Cu1G O3J 1_555 1_555
Cu1J O2J 1_555 1_555
Cu1K O2DA 1_555 1_555
O2A Cu1A 1_555 1_555
O2W Cu1 1_555 1_555
O3D Cu1A 1_555 1_555
O3E Cu1 1_555 1_555
O3R Cu1 1_555 1_555
O3S Cu1A 1_555 1_555
O3 Cu1E 1_555 1_555
C3 C9 1_555 1_555
C6 C7 1_555 1_555
C7 C10 1_555 1_555
C1J C8J 1_555 1_555
C3J C9J 1_555 1_555
C4J C5J 1_555 1_555
C6J C7J 1_555 1_555
C3V C7V 1_555 1_555
C3DA C7DA 1_555 1_555
Cu1A Cu1D 1_555 1_555
Cu1F Cu1K 1_555 1_555
Cu1G Cu1J 1_555 1_555

#END
