
#######################################################################
#
#                 Cambridge Crystallographic Data Centre
#                                CCDC 
#
#######################################################################
#
# If this CIF has been generated from an entry in the Cambridge 
# Structural Database, then it will include bibliographic, chemical, 
# crystal, experimental, refinement or atomic coordinate data resulting 
# from the CCDC's data processing and validation procedures.
#
#######################################################################

data_KELJAN
_chemical_formula_moiety         'C6 H6 Cu7 N13 O8'
_symmetry_cell_setting           cubic
_symmetry_space_group_name_H-M   'F d -3 c'
_symmetry_Int_Tables_number      228
_space_group_name_Hall           '-F 4ud 2vw 3'
loop_
_symmetry_equiv_pos_site_id
_symmetry_equiv_pos_as_xyz
1 x,y,z
2 z,x,y
3 y,z,x
4 3/4+y,1/4+x,-z
5 1/4+y,-x,3/4+z
6 -y,3/4+x,1/4+z
7 3/4+x,1/4+z,-y
8 -x,3/4+z,1/4+y
9 1/4+x,-z,3/4+y
10 3/4+z,1/4+y,-x
11 1/4+z,-y,3/4+x
12 -z,3/4+y,1/4+x
13 x,1/2+y,1/2+z
14 1/4-x,1/4-y,z
15 z,1/2+x,1/2+y
16 1/4-z,1/4-x,y
17 y,1/2+z,1/2+x
18 1/4-y,1/4-z,x
19 1/4+y,1/2-x,1/4+z
20 -y,1/4+x,3/4+z
21 -x,1/4+z,3/4+y
22 1/4+x,1/2-z,1/4+y
23 1/4+z,1/2-y,1/4+x
24 -z,1/4+y,3/4+x
25 1/2+x,y,1/2+z
26 x,1/4-y,1/4-z
27 1/2+z,x,1/2+y
28 z,1/4-x,1/4-y
29 1/2+y,z,1/2+x
30 y,1/4-z,1/4-x
31 1/4+y,1/4+x,1/2-z
32 3/4+y,-x,1/4+z
33 1/4+x,1/4+z,1/2-y
34 3/4+x,-z,1/4+y
35 1/4+z,1/4+y,1/2-x
36 3/4+z,-y,1/4+x
37 1/2+x,1/2+y,z
38 1/4-x,y,1/4-z
39 1/2+z,1/2+x,y
40 1/4-z,x,1/4-y
41 1/2+y,1/2+z,x
42 1/4-y,z,1/4-x
43 1/4+y,3/4+x,-z
44 1/2-y,1/4+x,1/4+z
45 1/4+x,3/4+z,-y
46 1/2-x,1/4+z,1/4+y
47 1/4+z,3/4+y,-x
48 1/2-z,1/4+y,1/4+x
49 1/4-x,3/4-y,1/2+z
50 3/4-x,1/2+y,1/4-z
51 1/2+x,1/4-y,3/4-z
52 1/2+z,1/4-x,3/4-y
53 1/4-z,3/4-x,1/2+y
54 3/4-z,1/2+x,1/4-y
55 3/4-y,1/2+z,1/4-x
56 1/2+y,1/4-z,3/4-x
57 1/4-y,3/4-z,1/2+x
58 1/2-y,1/2-x,1/2-z
59 1/2-x,1/2-z,1/2-y
60 1/2-z,1/2-y,1/2-x
61 3/4-x,y,3/4-z
62 1/2+x,3/4-y,1/4-z
63 1/2+z,3/4-x,1/4-y
64 3/4-z,x,3/4-y
65 3/4-y,z,3/4-x
66 1/2+y,3/4-z,1/4-x
67 3/4+y,3/4+x,1/2-z
68 1/2-y,-x,-z
69 3/4+x,3/4+z,1/2-y
70 1/2-x,-z,-y
71 3/4+z,3/4+y,1/2-x
72 1/2-z,-y,-x
73 3/4-x,3/4-y,z
74 1/4-x,1/2+y,3/4-z
75 3/4-z,3/4-x,y
76 1/4-z,1/2+x,3/4-y
77 1/4-y,1/2+z,3/4-x
78 3/4-y,3/4-z,x
79 -y,1/2-x,-z
80 1/2-y,3/4+x,3/4+z
81 1/2-x,3/4+z,3/4+y
82 -x,1/2-z,-y
83 1/2-z,3/4+y,3/4+x
84 -z,1/2-y,-x
85 3/4-x,1/4-y,1/2+z
86 x,3/4-y,3/4-z
87 z,3/4-x,3/4-y
88 3/4-z,1/4-x,1/2+y
89 y,3/4-z,3/4-x
90 3/4-y,1/4-z,1/2+x
91 -y,-x,1/2-z
92 3/4+y,1/2-x,3/4+z
93 -x,-z,1/2-y
94 3/4+x,1/2-z,3/4+y
95 3/4+z,1/2-y,3/4+x
96 -z,-y,1/2-x
97 -x,-y,-z
98 -z,-x,-y
99 -y,-z,-x
100 1/4-y,3/4-x,z
101 3/4-y,x,1/4-z
102 y,1/4-x,3/4-z
103 1/4-x,3/4-z,y
104 x,1/4-z,3/4-y
105 3/4-x,z,1/4-y
106 1/4-z,3/4-y,x
107 3/4-z,y,1/4-x
108 z,1/4-y,3/4-x
109 -x,1/2-y,1/2-z
110 3/4+x,3/4+y,-z
111 -z,1/2-x,1/2-y
112 3/4+z,3/4+x,-y
113 -y,1/2-z,1/2-x
114 3/4+y,3/4+z,-x
115 3/4-y,1/2+x,3/4-z
116 y,3/4-x,1/4-z
117 x,3/4-z,1/4-y
118 3/4-x,1/2+z,3/4-y
119 3/4-z,1/2+y,3/4-x
120 z,3/4-y,1/4-x
121 1/2-x,-y,1/2-z
122 -x,3/4+y,3/4+z
123 1/2-z,-x,1/2-y
124 -z,3/4+x,3/4+y
125 1/2-y,-z,1/2-x
126 -y,3/4+z,3/4+x
127 3/4-y,3/4-x,1/2+z
128 1/4-y,x,3/4-z
129 3/4-x,3/4-z,1/2+y
130 1/4-x,z,3/4-y
131 3/4-z,3/4-y,1/2+x
132 1/4-z,y,3/4-x
133 1/2-x,1/2-y,-z
134 3/4+x,-y,3/4+z
135 1/2-z,1/2-x,-y
136 3/4+z,-x,3/4+y
137 1/2-y,1/2-z,-x
138 3/4+y,-z,3/4+x
139 3/4-y,1/4-x,z
140 1/2+y,3/4-x,3/4-z
141 3/4-x,1/4-z,y
142 1/2+x,3/4-z,3/4-y
143 3/4-z,1/4-y,x
144 1/2+z,3/4-y,3/4-x
145 3/4+x,1/4+y,1/2-z
146 1/4+x,1/2-y,3/4+z
147 1/2-x,3/4+y,1/4+z
148 1/2-z,3/4+x,1/4+y
149 3/4+z,1/4+x,1/2-y
150 1/4+z,1/2-x,3/4+y
151 1/4+y,1/2-z,3/4+x
152 1/2-y,3/4+z,1/4+x
153 3/4+y,1/4+z,1/2-x
154 1/2+y,1/2+x,1/2+z
155 1/2+x,1/2+z,1/2+y
156 1/2+z,1/2+y,1/2+x
157 1/4+x,-y,1/4+z
158 1/2-x,1/4+y,3/4+z
159 1/2-z,1/4+x,3/4+y
160 1/4+z,-x,1/4+y
161 1/4+y,-z,1/4+x
162 1/2-y,1/4+z,3/4+x
163 1/4-y,1/4-x,1/2+z
164 1/2+y,x,z
165 1/4-x,1/4-z,1/2+y
166 1/2+x,z,y
167 1/4-z,1/4-y,1/2+x
168 1/2+z,y,x
169 1/4+x,1/4+y,-z
170 3/4+x,1/2-y,1/4+z
171 1/4+z,1/4+x,-y
172 3/4+z,1/2-x,1/4+y
173 3/4+y,1/2-z,1/4+x
174 1/4+y,1/4+z,-x
175 y,1/2+x,z
176 1/2+y,1/4-x,1/4-z
177 1/2+x,1/4-z,1/4-y
178 x,1/2+z,y
179 1/2+z,1/4-y,1/4-x
180 z,1/2+y,x
181 1/4+x,3/4+y,1/2-z
182 -x,1/4+y,1/4+z
183 -z,1/4+x,1/4+y
184 1/4+z,3/4+x,1/2-y
185 -y,1/4+z,1/4+x
186 1/4+y,3/4+z,1/2-x
187 y,x,1/2+z
188 1/4-y,1/2+x,1/4-z
189 x,z,1/2+y
190 1/4-x,1/2+z,1/4-y
191 1/4-z,1/2+y,1/4-x
192 z,y,1/2+x
_cell_length_a                   24.7233(4)
_cell_length_b                   24.7233(4)
_cell_length_c                   24.7233(4)
_cell_angle_alpha                90
_cell_angle_beta                 90
_cell_angle_gamma                90
_cell_volume                     15111.9
loop_
_atom_site_label
_atom_site_type_symbol
_atom_site_fract_x
_atom_site_fract_y
_atom_site_fract_z
_atom_site_U_iso_or_equiv
_atom_site_thermal_displace_type
Cu1 Cu 0.806401(10) 1.0000 0.056401(10) 0.0303 Uani
N1 N 0.77097(9) 0.93643(9) 0.08907(9) 0.0336 Uani
C1 C 0.78235(10) 0.90698(10) 0.13235(10) 0.0299 Uani
H1 H 0.8101 0.9155 0.1575 0.0240 Uiso
N2 N 0.7500 0.86372(7) 0.13628(7) 0.0272 Uani
O1 O 0.73882(13) 1.01118(13) 0.01118(13) 0.0262 Uani
O2 O 0.8484(3) 0.9499(3) 0.0041(3) 0.0640 Uani
Cu1QB Cu 0.693599(10) 0.943599(10) 0.0000 0.0303 Uani
Cu1C Cu 0.7500 1.056401(10) -0.056401(10) 0.0303 Uani
Cu1VC Cu 0.7500 0.806401(10) 0.193599(10) 0.0303 Uani
Cu1SC Cu 0.943599(10) 1.193599(10) 0.0000 0.0303 Uani
Cu1ZF Cu 0.943599(10) 1.056401(10) 0.2500 0.0303 Uani
Cu1TC Cu 1.0000 0.943599(10) 0.193599(10) 0.0303 Uani
N1QB N 0.72903(9) 0.91093(9) 0.06357(9) 0.0336 Uani
N1IA N 0.83907(9) 1.06357(9) 0.02097(9) 0.0336 Uani
N1LB N 0.81357(9) 1.08907(9) -0.02097(9) 0.0336 Uani
N1ZF N 0.91093(9) 1.02097(9) 0.18643(9) 0.0336 Uani
N1KD N 0.93643(9) 0.97903(9) 0.16093(9) 0.0336 Uani
N1VB N 0.66093(9) 0.97903(9) -0.06357(9) 0.0336 Uani
N1C N 0.68643(9) 1.02097(9) -0.08907(9) 0.0336 Uani
C1QB C 0.71765(10) 0.86765(10) 0.09302(10) 0.0299 Uani
C1IA C 0.88235(10) 1.09302(10) 0.03235(10) 0.0299 Uani
C1LB C 0.84302(10) 1.13235(10) -0.03235(10) 0.0299 Uani
C1ZF C 0.86765(10) 1.03235(10) 0.15698(10) 0.0299 Uani
C1KD C 0.90698(10) 0.96765(10) 0.11765(10) 0.0299 Uani
H1QB H 0.6899 0.8425 0.0845 0.0240 Uiso
H1IA H 0.9075 1.0845 0.0601 0.0240 Uiso
H1LB H 0.8345 1.1575 -0.0601 0.0240 Uiso
H1ZF H 0.8425 1.0601 0.1655 0.0240 Uiso
H1KD H 0.9155 0.9399 0.0925 0.0240 Uiso
N2IA N 0.88628(7) 1.13628(7) 0.0000 0.0272 Uani
N2ZF N 0.86372(7) 1.0000 0.11372(7) 0.0272 Uani
N2UE N 0.63628(7) 0.88628(7) 0.0000 0.0272 Uani
N2AF N 0.7500 1.11372(7) -0.11372(7) 0.0272 Uani
O1C O 0.76118(13) 0.98882(13) -0.01118(13) 0.0262 Uani
O2IA O 0.7541(3) 1.0501(3) 0.0984(3) 0.0640 Uani
O2QB O 0.6516(3) 0.9959(3) 0.0501(3) 0.0640 Uani
O2VB O 0.7459(3) 0.9016(3) -0.0501(3) 0.0640 Uani
O2LB O 0.8001(3) 1.0041(3) -0.0984(3) 0.0640 Uani
O2C O 0.6999(3) 1.0984(3) -0.0041(3) 0.0640 Uani
loop_
_atom_site_aniso_label
_atom_site_aniso_U_11
_atom_site_aniso_U_22
_atom_site_aniso_U_33
_atom_site_aniso_U_23
_atom_site_aniso_U_13
_atom_site_aniso_U_12
Cu1 0.02907(19) 0.0327(2) 0.02907(19) 0.02159(14) -0.02346(16) -0.02159(14)
N1 0.0332(11) 0.0358(11) 0.0319(11) 0.0258(9) -0.0187(9) -0.0176(9)
C1 0.0289(11) 0.0345(12) 0.0262(11) 0.0194(9) -0.0084(9) -0.0021(10)
N2 0.0235(12) 0.0291(9) 0.0291(9) 0.0211(11) 0.0037(8) 0.0037(8)
O1 0.0262(13) 0.0262(13) 0.0262(13) 0.0191(15) -0.0191(15) -0.0191(15)
O2 0.075(5) 0.051(4) 0.066(4) -0.037(3) 0.054(4) 0.000(3)
Cu1QB 0.02907 0.02907 0.0327 0.02159 -0.02159 -0.02346
Cu1C 0.0327 0.02907 0.02907 0.02346 -0.02159 -0.02159
Cu1VC 0.0327 0.02907 0.02907 0.02346 0.02159 0.02159
Cu1SC 0.02907 0.02907 0.0327 -0.02159 0.02159 -0.02346
Cu1ZF 0.02907 0.02907 0.0327 -0.02159 -0.02159 0.02346
Cu1TC 0.0327 0.02907 0.02907 -0.02346 -0.02159 0.02159
N1QB 0.0332 0.0319 0.0358 0.0258 -0.0176 -0.0187
N1IA 0.0319 0.0358 0.0332 0.0176 -0.0187 -0.0258
N1LB 0.0358 0.0319 0.0332 0.0187 -0.0176 -0.0258
N1ZF 0.0319 0.0332 0.0358 -0.0176 -0.0258 0.0187
N1KD 0.0358 0.0332 0.0319 -0.0187 -0.0258 0.0176
N1VB 0.0319 0.0332 0.0358 0.0176 -0.0258 -0.0187
N1C 0.0358 0.0332 0.0319 0.0187 -0.0258 -0.0176
C1QB 0.0289 0.0262 0.0345 0.0194 -0.0021 -0.0084
C1IA 0.0262 0.0345 0.0289 0.0021 -0.0084 -0.0194
C1LB 0.0345 0.0262 0.0289 0.0084 -0.0021 -0.0194
C1ZF 0.0262 0.0289 0.0345 -0.0021 -0.0194 0.0084
C1KD 0.0345 0.0289 0.0262 -0.0084 -0.0194 0.0021
N2IA 0.0291 0.0291 0.0235 -0.0037 0.0037 -0.0211
N2ZF 0.0291 0.0235 0.0291 0.0037 -0.0211 -0.0037
N2UE 0.0291 0.0291 0.0235 0.0037 -0.0037 -0.0211
N2AF 0.0235 0.0291 0.0291 0.0211 -0.0037 -0.0037
O1C 0.0262 0.0262 0.0262 0.0191 -0.0191 -0.0191
O2IA 0.066 0.051 0.075 0 0.054 0.037
O2QB 0.075 0.066 0.051 -0.037 0 0.054
O2VB 0.066 0.075 0.051 0 0.037 0.054
O2LB 0.051 0.066 0.075 -0.054 0 0.037
O2C 0.051 0.075 0.066 -0.054 0.037 0
loop_
_geom_bond_atom_site_label_1
_geom_bond_atom_site_label_2
_geom_bond_site_symmetry_1
_geom_bond_site_symmetry_2
Cu1 N1 1_555 1_555
N1 C1 1_555 1_555
C1 H1 1_555 1_555
N2 C1 1_555 1_555
O1 Cu1 1_555 1_555
O2 Cu1 1_555 1_555
Cu1QB O1 1_555 1_555
Cu1C O1 1_555 1_555
Cu1VC N2 1_555 1_555
Cu1SC N2IA 1_555 1_555
Cu1ZF N1ZF 1_555 1_555
Cu1TC N1KD 1_555 1_555
N1QB N1 1_555 1_555
N1IA Cu1 1_555 1_555
N1LB Cu1C 1_555 1_555
N1ZF N1KD 1_555 1_555
N1KD C1KD 1_555 1_555
N1VB Cu1QB 1_555 1_555
N1C Cu1C 1_555 1_555
C1QB N2 1_555 1_555
C1IA N1IA 1_555 1_555
C1LB N1LB 1_555 1_555
C1ZF N1ZF 1_555 1_555
C1KD H1KD 1_555 1_555
H1QB C1QB 1_555 1_555
H1IA C1IA 1_555 1_555
H1LB C1LB 1_555 1_555
H1ZF C1ZF 1_555 1_555
N2IA C1IA 1_555 1_555
N2ZF Cu1 1_555 1_555
N2UE Cu1QB 1_555 1_555
N2AF Cu1C 1_555 1_555
O1C Cu1 1_555 1_555
O2IA Cu1 1_555 1_555
O2QB Cu1QB 1_555 1_555
O2VB Cu1QB 1_555 1_555
O2LB Cu1C 1_555 1_555
O2C Cu1C 1_555 1_555
O1 O1C 1_555 1_555
Cu1QB N1QB 1_555 1_555
Cu1QB O1C 1_555 1_555
Cu1C O1C 1_555 1_555
N1QB C1QB 1_555 1_555
N1IA N1LB 1_555 1_555
N1VB N1C 1_555 1_555
C1LB N2IA 1_555 1_555
C1ZF N2ZF 1_555 1_555
C1KD N2ZF 1_555 1_555

#END
