
#######################################################################
#
#                 Cambridge Crystallographic Data Centre
#                                CCDC 
#
#######################################################################
#
# If this CIF has been generated from an entry in the Cambridge 
# Structural Database, then it will include bibliographic, chemical, 
# crystal, experimental, refinement or atomic coordinate data resulting 
# from the CCDC's data processing and validation procedures.
#
#######################################################################

data_KELJIV
_chemical_formula_moiety         '(C6 H6 Cl1 Cu5 N9 1+)n'
_symmetry_cell_setting           orthorhombic
_symmetry_space_group_name_H-M   'P n m a'
_symmetry_Int_Tables_number      62
_space_group_name_Hall           '-P 2ac 2n'
loop_
_symmetry_equiv_pos_site_id
_symmetry_equiv_pos_as_xyz
1 x,y,z
2 1/2-x,-y,1/2+z
3 -x,1/2+y,-z
4 1/2+x,1/2-y,1/2-z
5 -x,-y,-z
6 1/2+x,y,1/2-z
7 x,1/2-y,z
8 1/2-x,1/2+y,1/2+z
_cell_length_a                   11.6389(6)
_cell_length_b                   9.9663(5)
_cell_length_c                   12.3013(6)
_cell_angle_alpha                90
_cell_angle_beta                 90
_cell_angle_gamma                90
_cell_volume                     1426.91
loop_
_atom_site_label
_atom_site_type_symbol
_atom_site_fract_x
_atom_site_fract_y
_atom_site_fract_z
_atom_site_U_iso_or_equiv
_atom_site_thermal_displace_type
Cu3 Cu 0.99755(13) -0.2500 0.52952(16) 0.1184 Uani
Cu4 Cu 0.95523(7) -0.2500 0.78117(8) 0.0274 Uani
Cl1 Cl 0.85434(14) -0.2500 0.44180(13) 0.0225 Uani
N4 N 1.1252(7) -0.2500 0.6239(7) 0.0820 Uani
N5 N 1.1090(6) -0.2500 0.7329(6) 0.0317 Uani
N6 N 1.2949(5) -0.2500 0.7033(5) 0.0203 Uani
C3 C 1.2382(7) -0.2500 0.6076(7) 0.0587 Uani
H3 H 1.2741 -0.2500 0.5382 0.0700 Uiso
C4 C 1.2106(6) -0.2500 0.7768(5) 0.0207 Uani
H4 H 1.2235 -0.2500 0.8530 0.0250 Uiso
Cu4E Cu 1.45523(7) -0.2500 0.71883(8) 0.0274 Uani
N6E N 0.7949(5) -0.2500 0.7967(5) 0.0203 Uani
Cu1 Cu 1.0000 0.0000 0.5000 0.0535 Uani
Cu2 Cu 1.08120(5) 0.08367(7) 0.75287(6) 0.0276 Uani
N1 N 0.8937(3) 0.0358(5) 0.6101(4) 0.0309 Uani
N2 N 0.9262(3) 0.0720(4) 0.7127(3) 0.0183 Uani
N3 N 0.7360(3) 0.0716(4) 0.7056(3) 0.0192 Uani
C1 C 0.7801(4) 0.0367(5) 0.6092(4) 0.0277 Uani
H1 H 0.7350 0.0151 0.5473 0.0330 Uiso
C2 C 0.8305(4) 0.0905(4) 0.7675(4) 0.0170 Uani
H2 H 0.8281 0.1144 0.8423 0.0210 Uiso
Cu2D Cu 0.91880(5) -0.08367(7) 0.24713(6) 0.0276 Uani
Cu2E Cu 0.58120(5) 0.08367(7) 0.74713(6) 0.0276 Uani
Cu2A Cu 1.41880(5) -0.08367(7) 0.25287(6) 0.0276 Uani
N1D N 1.1063(3) -0.0358(5) 0.3899(4) 0.0309 Uani
N2D N 1.0738(3) -0.0720(4) 0.2873(3) 0.0183 Uani
N3D N 1.2640(3) -0.0716(4) 0.2944(3) 0.0192 Uani
N3E N 1.2360(3) 0.0716(4) 0.7944(3) 0.0192 Uani
N3A N 0.7640(3) -0.0716(4) 0.2056(3) 0.0192 Uani
C1D C 1.2199(4) -0.0367(5) 0.3908(4) 0.0277 Uani
H1D H 1.2650 -0.0151 0.4527 0.0330 Uiso
C2D C 1.1695(4) -0.0905(4) 0.2325(4) 0.0170 Uani
H2D H 1.1719 -0.1144 0.1577 0.0210 Uiso
loop_
_atom_site_aniso_label
_atom_site_aniso_U_11
_atom_site_aniso_U_22
_atom_site_aniso_U_33
_atom_site_aniso_U_23
_atom_site_aniso_U_13
_atom_site_aniso_U_12
Cu3 0.0325(8) 0.272(4) 0.0507(10) 0.000 -0.0059(6) 0.000
Cu4 0.0137(4) 0.0337(5) 0.0348(5) 0.000 0.0057(3) 0.000
Cl1 0.0223(7) 0.0222(7) 0.0231(7) 0.000 0.0014(6) 0.000
N4 0.016(3) 0.204(14) 0.026(4) 0.000 -0.011(3) 0.000
N5 0.013(3) 0.049(4) 0.033(3) 0.000 0.004(2) 0.000
N6 0.015(3) 0.023(3) 0.023(3) 0.000 -0.007(2) 0.000
C3 0.015(3) 0.138(10) 0.023(4) 0.000 0.001(3) 0.000
C4 0.021(3) 0.019(3) 0.022(3) 0.000 -0.001(2) 0.000
Cu4E 0.0137 0.0337 0.0348 0 -0.0057 0
N6E 0.015 0.023 0.023 0 0.007 0
Cu1 0.029(4) 0.127(12) 0.0046(19) 0.000(4) 0.0035(18) 0.055(5)
Cu2 0.0066(3) 0.0331(4) 0.0431(4) -0.0111(3) -0.0064(2) 0.0027(2)
N1 0.0107(17) 0.057(3) 0.025(2) -0.015(2) -0.0015(16) -0.0034(18)
N2 0.0096(17) 0.0218(18) 0.0234(19) -0.0053(14) 0.0006(14) 0.0005(13)
N3 0.0101(16) 0.0223(18) 0.0253(18) -0.0024(14) -0.0010(15) 0.0005(13)
C1 0.012(2) 0.041(3) 0.030(2) -0.011(2) -0.0029(17) -0.0019(18)
C2 0.011(2) 0.019(2) 0.021(2) 0.0025(15) 0.0014(15) 0.0024(15)
Cu2D 0.0066 0.0331 0.0431 -0.0111 -0.0064 0.0027
Cu2E 0.0066 0.0331 0.0431 0.0111 0.0064 0.0027
Cu2A 0.0066 0.0331 0.0431 0.0111 0.0064 0.0027
N1D 0.0107 0.057 0.025 -0.015 -0.0015 -0.0034
N2D 0.0096 0.0218 0.0234 -0.0053 0.0006 0.0005
N3D 0.0101 0.0223 0.0253 -0.0024 -0.001 0.0005
N3E 0.0101 0.0223 0.0253 0.0024 0.001 0.0005
N3A 0.0101 0.0223 0.0253 0.0024 0.001 0.0005
C1D 0.012 0.041 0.03 -0.011 -0.0029 -0.0019
C2D 0.011 0.019 0.021 0.0025 0.0014 0.0024
loop_
_geom_bond_atom_site_label_1
_geom_bond_atom_site_label_2
_geom_bond_site_symmetry_1
_geom_bond_site_symmetry_2
Cu1 N1 1_555 1_555
Cu2 N2 1_555 1_555
Cu3 Cl1 1_555 1_555
Cu4 N5 1_555 1_555
N1 N2 1_555 1_555
N2 C2 1_555 1_555
N3 C1 1_555 1_555
N4 Cu3 1_555 1_555
N5 N4 1_555 1_555
N6 C3 1_555 1_555
C1 N1 1_555 1_555
H1 C1 1_555 1_555
C2 N3 1_555 1_555
H2 C2 1_555 1_555
C3 N4 1_555 1_555
H3 C3 1_555 1_555
C4 N5 1_555 1_555
H4 C4 1_555 1_555
Cu2D N2D 1_555 1_555
Cu2E N3 1_555 1_555
Cu2A N3D 1_555 1_555
Cu4E N6 1_555 1_555
N1D Cu1 1_555 1_555
N2D N1D 1_555 1_555
N3D C1D 1_555 1_555
N3E Cu2 1_555 1_555
N3A Cu2D 1_555 1_555
N6E Cu4 1_555 1_555
C1D N1D 1_555 1_555
H1D C1D 1_555 1_555
C2D N2D 1_555 1_555
H2D C2D 1_555 1_555
N6 C4 1_555 1_555
N3D C2D 1_555 1_555

#END
