
#######################################################################
#
#                 Cambridge Crystallographic Data Centre
#                                CCDC 
#
#######################################################################
#
# If this CIF has been generated from an entry in the Cambridge 
# Structural Database, then it will include bibliographic, chemical, 
# crystal, experimental, refinement or atomic coordinate data resulting 
# from the CCDC's data processing and validation procedures.
#
#######################################################################

data_LATBUG
_chemical_formula_moiety         '(C132 H84 Fe6 N6 O32)n'
_symmetry_cell_setting           cubic
_symmetry_space_group_name_H-M   'P m -3 n'
_symmetry_Int_Tables_number      223
_space_group_name_Hall           '-P 4n 2 3'
loop_
_symmetry_equiv_pos_site_id
_symmetry_equiv_pos_as_xyz
1 x,y,z
2 1/2-y,1/2+x,1/2+z
3 -x,-y,z
4 1/2+y,1/2-x,1/2+z
5 1/2+x,1/2-z,1/2+y
6 x,-y,-z
7 1/2+x,1/2+z,1/2-y
8 1/2+z,1/2+y,1/2-x
9 -x,y,-z
10 1/2-z,1/2+y,1/2+x
11 z,x,y
12 y,z,x
13 -y,-z,x
14 z,-x,-y
15 -y,z,-x
16 -z,-x,y
17 -z,x,-y
18 y,-z,-x
19 1/2+y,1/2+x,1/2-z
20 1/2-y,1/2-x,1/2-z
21 1/2-x,1/2+z,1/2+y
22 1/2-x,1/2-z,1/2-y
23 1/2+z,1/2-y,1/2+x
24 1/2-z,1/2-y,1/2-x
25 -x,-y,-z
26 1/2+y,1/2-x,1/2-z
27 x,y,-z
28 1/2-y,1/2+x,1/2-z
29 1/2-x,1/2+z,1/2-y
30 -x,y,z
31 1/2-x,1/2-z,1/2+y
32 1/2-z,1/2-y,1/2+x
33 x,-y,z
34 1/2+z,1/2-y,1/2-x
35 -z,-x,-y
36 -y,-z,-x
37 y,z,-x
38 -z,x,y
39 y,-z,x
40 z,x,-y
41 z,-x,y
42 -y,z,x
43 1/2-y,1/2-x,1/2+z
44 1/2+y,1/2+x,1/2+z
45 1/2+x,1/2-z,1/2-y
46 1/2+x,1/2+z,1/2+y
47 1/2-z,1/2+y,1/2-x
48 1/2+z,1/2+y,1/2+x
_cell_length_a                   36.1226(7)
_cell_length_b                   36.1226(7)
_cell_length_c                   36.1226(7)
_cell_angle_alpha                90
_cell_angle_beta                 90
_cell_angle_gamma                90
_cell_volume                     47134.3
loop_
_atom_site_label
_atom_site_type_symbol
_atom_site_fract_x
_atom_site_fract_y
_atom_site_fract_z
_atom_site_U_iso_or_equiv
_atom_site_thermal_displace_type
Fe1 Fe 0.28746(4) 0.21254(4) 0.2500 0.0280 Uani
O1 O 0.2500 0.2500 0.2500 0.0290 Uani
O2 O 0.28804(19) 0.2064(2) 0.1952(3) 0.0387 Uani
O3 O 0.32753(18) 0.17247(18) 0.2500 0.0487 Uani
O4 O 0.2531(2) 0.2506(2) 0.16977(18) 0.0407 Uani
C1 C 0.2860(4) 0.1657(4) 0.1311(4) 0.0700 Uani
H1 H 0.2969 0.1557 0.1528 0.0840 Uiso
C2 C 0.2560(4) 0.2151(3) 0.1004(4) 0.0593 Uani
H2 H 0.2457 0.2392 0.1006 0.0710 Uiso
C3 C 0.2710(6) 0.0805(5) 0.0000 0.0893 Uani
C4 C 0.2860(5) 0.1460(4) 0.0998(5) 0.1037 Uani
H3 H 0.2969 0.1221 0.0997 0.1230 Uiso
C5 C 0.2716(4) 0.1375(4) 0.0323(3) 0.0827 Uani
C6 C 0.2702(4) 0.1597(4) 0.0670(4) 0.0710 Uani
C7 C 0.2701(3) 0.2006(4) 0.1318(4) 0.0477 Uani
C8 C 0.2722(8) 0.0407(6) 0.0000 0.1070 Uani
C9 C 0.2712(4) 0.1001(4) 0.0333(3) 0.0910 Uani
H4 H 0.2710 0.0874 0.0563 0.1090 Uiso
C10 C 0.2565(4) 0.1946(5) 0.0676(4) 0.0757 Uani
H5 H 0.2470 0.2052 0.0455 0.0910 Uiso
C11 C 0.2709(4) 0.2205(4) 0.1689(4) 0.0383 Uani
N1 N 0.2717(5) 0.1576(4) 0.0000 0.0853 Uani
C12 C 0.2531(9) 0.0198(7) -0.0273(8) 0.1063 Uani
H6 H 0.2398 0.0325 -0.0462 0.1280 Uiso
O2Z O 0.28804(19) 0.2064(2) -0.1952(3) 0.0387 Uani
O4Z O 0.2531(2) 0.2506(2) -0.16977(18) 0.0407 Uani
C1Z C 0.2860(4) 0.1657(4) -0.1311(4) 0.0700 Uani
H1Z H 0.2969 0.1557 -0.1528 0.0840 Uiso
C2Z C 0.2560(4) 0.2151(3) -0.1004(4) 0.0593 Uani
H2Z H 0.2457 0.2392 -0.1006 0.0710 Uiso
C4Z C 0.2860(5) 0.1460(4) -0.0998(5) 0.1037 Uani
H3Z H 0.2969 0.1221 -0.0997 0.1230 Uiso
C5Z C 0.2716(4) 0.1375(4) -0.0323(3) 0.0827 Uani
C6Z C 0.2702(4) 0.1597(4) -0.0670(4) 0.0710 Uani
C7Z C 0.2701(3) 0.2006(4) -0.1318(4) 0.0477 Uani
C9Z C 0.2712(4) 0.1001(4) -0.0333(3) 0.0910 Uani
H4Z H 0.2710 0.0874 -0.0563 0.1090 Uiso
C10Z C 0.2565(4) 0.1946(5) -0.0676(4) 0.0757 Uani
H5Z H 0.2470 0.2052 -0.0455 0.0910 Uiso
C11Z C 0.2709(4) 0.2205(4) -0.1689(4) 0.0383 Uani
C12Z C 0.2531(9) 0.0198(7) 0.0273(8) 0.1063 Uani
H6Z H 0.2398 0.0325 0.0462 0.1280 Uiso
O2FA O 0.28804(19) -0.2064(2) 0.1952(3) 0.0387 Uani
O4FA O 0.2531(2) -0.2506(2) 0.16977(18) 0.0407 Uani
C1FA C 0.2860(4) -0.1657(4) 0.1311(4) 0.0700 Uani
H1FA H 0.2969 -0.1557 0.1528 0.0840 Uiso
C2FA C 0.2560(4) -0.2151(3) 0.1004(4) 0.0593 Uani
H2FA H 0.2457 -0.2392 0.1006 0.0710 Uiso
C3E C 0.2710(6) -0.0805(5) 0.0000 0.0893 Uani
C4FA C 0.2860(5) -0.1460(4) 0.0998(5) 0.1037 Uani
H3FA H 0.2969 -0.1221 0.0997 0.1230 Uiso
C5FA C 0.2716(4) -0.1375(4) 0.0323(3) 0.0827 Uani
C6FA C 0.2702(4) -0.1597(4) 0.0670(4) 0.0710 Uani
C7FA C 0.2701(3) -0.2006(4) 0.1318(4) 0.0477 Uani
C8E C 0.2722(8) -0.0407(6) 0.0000 0.1070 Uani
C9FA C 0.2712(4) -0.1001(4) 0.0333(3) 0.0910 Uani
H4FA H 0.2710 -0.0874 0.0563 0.1090 Uiso
C10FA C 0.2565(4) -0.1946(5) 0.0676(4) 0.0757 Uani
H5FA H 0.2470 -0.2052 0.0455 0.0910 Uiso
C11FA C 0.2709(4) -0.2205(4) 0.1689(4) 0.0383 Uani
N1E N 0.2717(5) -0.1576(4) 0.0000 0.0853 Uani
C12FA C 0.2531(9) -0.0198(7) -0.0273(8) 0.1063 Uani
H6FA H 0.2398 -0.0325 -0.0462 0.1280 Uiso
O2E O 0.28804(19) -0.2064(2) -0.1952(3) 0.0387 Uani
O4E O 0.2531(2) -0.2506(2) -0.16977(18) 0.0407 Uani
C1E C 0.2860(4) -0.1657(4) -0.1311(4) 0.0700 Uani
H1E H 0.2969 -0.1557 -0.1528 0.0840 Uiso
C2E C 0.2560(4) -0.2151(3) -0.1004(4) 0.0593 Uani
H2E H 0.2457 -0.2392 -0.1006 0.0710 Uiso
C4E C 0.2860(5) -0.1460(4) -0.0998(5) 0.1037 Uani
H3E H 0.2969 -0.1221 -0.0997 0.1230 Uiso
C5E C 0.2716(4) -0.1375(4) -0.0323(3) 0.0827 Uani
C6E C 0.2702(4) -0.1597(4) -0.0670(4) 0.0710 Uani
C7E C 0.2701(3) -0.2006(4) -0.1318(4) 0.0477 Uani
C9E C 0.2712(4) -0.1001(4) -0.0333(3) 0.0910 Uani
H4E H 0.2710 -0.0874 -0.0563 0.1090 Uiso
C10E C 0.2565(4) -0.1946(5) -0.0676(4) 0.0757 Uani
H5E H 0.2470 -0.2052 -0.0455 0.0910 Uiso
C11E C 0.2709(4) -0.2205(4) -0.1689(4) 0.0383 Uani
C12E C 0.2531(9) -0.0198(7) 0.0273(8) 0.1063 Uani
H6E H 0.2398 -0.0325 0.0462 0.1280 Uiso
Fe1J Fe 0.2500 0.28746(4) 0.21254(4) 0.0280 Uani
O2J O 0.1952(3) 0.28804(19) 0.2064(2) 0.0387 Uani
O3J O 0.2500 0.32753(18) 0.17247(18) 0.0487 Uani
O4J O 0.16977(18) 0.2531(2) 0.2506(2) 0.0407 Uani
C1J C 0.1311(4) 0.2860(4) 0.1657(4) 0.0700 Uani
H1J H 0.1528 0.2969 0.1557 0.0840 Uiso
C2J C 0.1004(4) 0.2560(4) 0.2151(3) 0.0593 Uani
H2J H 0.1006 0.2457 0.2392 0.0710 Uiso
C3J C -0.0000 0.2710(6) 0.0805(5) 0.0893 Uani
C4J C 0.0998(5) 0.2860(5) 0.1460(4) 0.1037 Uani
H3J H 0.0997 0.2969 0.1221 0.1230 Uiso
C5J C 0.0323(3) 0.2716(4) 0.1375(4) 0.0827 Uani
C6J C 0.0670(4) 0.2702(4) 0.1597(4) 0.0710 Uani
C7J C 0.1318(4) 0.2701(3) 0.2006(4) 0.0477 Uani
C8J C 0.0000 0.2722(8) 0.0407(6) 0.1070 Uani
C9J C 0.0333(3) 0.2712(4) 0.1001(4) 0.0910 Uani
H4J H 0.0563 0.2710 0.0874 0.1090 Uiso
C10J C 0.0676(4) 0.2565(4) 0.1946(5) 0.0757 Uani
H5J H 0.0455 0.2470 0.2052 0.0910 Uiso
C11J C 0.1689(4) 0.2709(4) 0.2205(4) 0.0383 Uani
N1J N -0.0000 0.2717(5) 0.1576(4) 0.0853 Uani
C12J C -0.0273(8) 0.2531(9) 0.0198(7) 0.1063 Uani
H6J H -0.0462 0.2398 0.0325 0.1280 Uiso
O2KA O -0.1952(3) 0.28804(19) 0.2064(2) 0.0387 Uani
O4KA O -0.16977(18) 0.2531(2) 0.2506(2) 0.0407 Uani
C1KA C -0.1311(4) 0.2860(4) 0.1657(4) 0.0700 Uani
H1KA H -0.1528 0.2969 0.1557 0.0840 Uiso
C2KA C -0.1004(4) 0.2560(4) 0.2151(3) 0.0593 Uani
H2KA H -0.1006 0.2457 0.2392 0.0710 Uiso
C4KA C -0.0998(5) 0.2860(5) 0.1460(4) 0.1037 Uani
H3KA H -0.0997 0.2969 0.1221 0.1230 Uiso
C5KA C -0.0323(3) 0.2716(4) 0.1375(4) 0.0827 Uani
C6KA C -0.0670(4) 0.2702(4) 0.1597(4) 0.0710 Uani
C7KA C -0.1318(4) 0.2701(3) 0.2006(4) 0.0477 Uani
C9KA C -0.0333(3) 0.2712(4) 0.1001(4) 0.0910 Uani
H4KA H -0.0563 0.2710 0.0874 0.1090 Uiso
C10KA C -0.0676(4) 0.2565(4) 0.1946(5) 0.0757 Uani
H5KA H -0.0455 0.2470 0.2052 0.0910 Uiso
C11KA C -0.1689(4) 0.2709(4) 0.2205(4) 0.0383 Uani
C12KA C 0.0273(8) 0.2531(9) 0.0198(7) 0.1063 Uani
H6KA H 0.0462 0.2398 0.0325 0.1280 Uiso
O2MA O 0.1952(3) 0.28804(19) -0.2064(2) 0.0387 Uani
O4MA O 0.16977(18) 0.2531(2) -0.2506(2) 0.0407 Uani
C1MA C 0.1311(4) 0.2860(4) -0.1657(4) 0.0700 Uani
H1MA H 0.1528 0.2969 -0.1557 0.0840 Uiso
C2MA C 0.1004(4) 0.2560(4) -0.2151(3) 0.0593 Uani
H2MA H 0.1006 0.2457 -0.2392 0.0710 Uiso
C3P C -0.0000 0.2710(6) -0.0805(5) 0.0893 Uani
C4MA C 0.0998(5) 0.2860(5) -0.1460(4) 0.1037 Uani
H3MA H 0.0997 0.2969 -0.1221 0.1230 Uiso
C5MA C 0.0323(3) 0.2716(4) -0.1375(4) 0.0827 Uani
C6MA C 0.0670(4) 0.2702(4) -0.1597(4) 0.0710 Uani
C7MA C 0.1318(4) 0.2701(3) -0.2006(4) 0.0477 Uani
C8P C 0.0000 0.2722(8) -0.0407(6) 0.1070 Uani
C9MA C 0.0333(3) 0.2712(4) -0.1001(4) 0.0910 Uani
H4MA H 0.0563 0.2710 -0.0874 0.1090 Uiso
C10MA C 0.0676(4) 0.2565(4) -0.1946(5) 0.0757 Uani
H5MA H 0.0455 0.2470 -0.2052 0.0910 Uiso
C11MA C 0.1689(4) 0.2709(4) -0.2205(4) 0.0383 Uani
N1P N 0.0000 0.2717(5) -0.1576(4) 0.0853 Uani
C12MA C -0.0273(8) 0.2531(9) -0.0198(7) 0.1063 Uani
H6MA H -0.0462 0.2398 -0.0325 0.1280 Uiso
O2P O -0.1952(3) 0.28804(19) -0.2064(2) 0.0387 Uani
O4P O -0.16977(18) 0.2531(2) -0.2506(2) 0.0407 Uani
C1P C -0.1311(4) 0.2860(4) -0.1657(4) 0.0700 Uani
H1P H -0.1528 0.2969 -0.1557 0.0840 Uiso
C2P C -0.1004(4) 0.2560(4) -0.2151(3) 0.0593 Uani
H2P H -0.1006 0.2457 -0.2392 0.0710 Uiso
C4P C -0.0998(5) 0.2860(5) -0.1460(4) 0.1037 Uani
H3P H -0.0997 0.2969 -0.1221 0.1230 Uiso
C5P C -0.0323(3) 0.2716(4) -0.1375(4) 0.0827 Uani
C6P C -0.0670(4) 0.2702(4) -0.1597(4) 0.0710 Uani
C7P C -0.1318(4) 0.2701(3) -0.2006(4) 0.0477 Uani
C9P C -0.0333(3) 0.2712(4) -0.1001(4) 0.0910 Uani
H4P H -0.0563 0.2710 -0.0874 0.1090 Uiso
C10P C -0.0676(4) 0.2565(4) -0.1946(5) 0.0757 Uani
H5P H -0.0455 0.2470 -0.2052 0.0910 Uiso
C11P C -0.1689(4) 0.2709(4) -0.2205(4) 0.0383 Uani
C12P C 0.0273(8) 0.2531(9) -0.0198(7) 0.1063 Uani
H6P H 0.0462 0.2398 -0.0325 0.1280 Uiso
Fe1K Fe 0.21254(4) 0.2500 0.28746(4) 0.0280 Uani
O2K O 0.2064(2) 0.1952(3) 0.28804(19) 0.0387 Uani
O3K O 0.17247(18) 0.2500 0.32753(18) 0.0487 Uani
O4K O 0.2506(2) 0.16977(18) 0.2531(2) 0.0407 Uani
C1K C 0.1657(4) 0.1311(4) 0.2860(4) 0.0700 Uani
H1K H 0.1557 0.1528 0.2969 0.0840 Uiso
C2K C 0.2151(3) 0.1004(4) 0.2560(4) 0.0593 Uani
H2K H 0.2392 0.1006 0.2457 0.0710 Uiso
C3K C 0.0805(5) -0.0000 0.2710(6) 0.0893 Uani
C4K C 0.1460(4) 0.0998(5) 0.2860(5) 0.1037 Uani
H3K H 0.1221 0.0997 0.2969 0.1230 Uiso
C5K C 0.1375(4) 0.0323(3) 0.2716(4) 0.0827 Uani
C6K C 0.1597(4) 0.0670(4) 0.2702(4) 0.0710 Uani
C7K C 0.2006(4) 0.1318(4) 0.2701(3) 0.0477 Uani
C8K C 0.0407(6) 0.0000 0.2722(8) 0.1070 Uani
C9K C 0.1001(4) 0.0333(3) 0.2712(4) 0.0910 Uani
H4K H 0.0874 0.0563 0.2710 0.1090 Uiso
C10K C 0.1946(5) 0.0676(4) 0.2565(4) 0.0757 Uani
H5K H 0.2052 0.0455 0.2470 0.0910 Uiso
C11K C 0.2205(4) 0.1689(4) 0.2709(4) 0.0383 Uani
N1K N 0.1576(4) 0.0000 0.2717(5) 0.0853 Uani
C12K C 0.0198(7) -0.0273(8) 0.2531(9) 0.1063 Uani
H6K H 0.0325 -0.0462 0.2398 0.1280 Uiso
O2LA O 0.2064(2) -0.1952(3) 0.28804(19) 0.0387 Uani
O4LA O 0.2506(2) -0.16977(18) 0.2531(2) 0.0407 Uani
C1LA C 0.1657(4) -0.1311(4) 0.2860(4) 0.0700 Uani
H1LA H 0.1557 -0.1528 0.2969 0.0840 Uiso
C2LA C 0.2151(3) -0.1004(4) 0.2560(4) 0.0593 Uani
H2LA H 0.2392 -0.1006 0.2457 0.0710 Uiso
C4LA C 0.1460(4) -0.0998(5) 0.2860(5) 0.1037 Uani
H3LA H 0.1221 -0.0997 0.2969 0.1230 Uiso
C5LA C 0.1375(4) -0.0323(3) 0.2716(4) 0.0827 Uani
C6LA C 0.1597(4) -0.0670(4) 0.2702(4) 0.0710 Uani
C7LA C 0.2006(4) -0.1318(4) 0.2701(3) 0.0477 Uani
C9LA C 0.1001(4) -0.0333(3) 0.2712(4) 0.0910 Uani
H4LA H 0.0874 -0.0563 0.2710 0.1090 Uiso
C10LA C 0.1946(5) -0.0676(4) 0.2565(4) 0.0757 Uani
H5LA H 0.2052 -0.0455 0.2470 0.0910 Uiso
C11LA C 0.2205(4) -0.1689(4) 0.2709(4) 0.0383 Uani
C12LA C 0.0198(7) 0.0273(8) 0.2531(9) 0.1063 Uani
H6LA H 0.0325 0.0462 0.2398 0.1280 Uiso
O2OA O -0.2064(2) 0.1952(3) 0.28804(19) 0.0387 Uani
O4OA O -0.2506(2) 0.16977(18) 0.2531(2) 0.0407 Uani
C1OA C -0.1657(4) 0.1311(4) 0.2860(4) 0.0700 Uani
H1OA H -0.1557 0.1528 0.2969 0.0840 Uiso
C2OA C -0.2151(3) 0.1004(4) 0.2560(4) 0.0593 Uani
H2OA H -0.2392 0.1006 0.2457 0.0710 Uiso
C3L C -0.0805(5) -0.0000 0.2710(6) 0.0893 Uani
C4OA C -0.1460(4) 0.0998(5) 0.2860(5) 0.1037 Uani
H3OA H -0.1221 0.0997 0.2969 0.1230 Uiso
C5OA C -0.1375(4) 0.0323(3) 0.2716(4) 0.0827 Uani
C6OA C -0.1597(4) 0.0670(4) 0.2702(4) 0.0710 Uani
C7OA C -0.2006(4) 0.1318(4) 0.2701(3) 0.0477 Uani
C8L C -0.0407(6) 0.0000 0.2722(8) 0.1070 Uani
C9OA C -0.1001(4) 0.0333(3) 0.2712(4) 0.0910 Uani
H4OA H -0.0874 0.0563 0.2710 0.1090 Uiso
C10OA C -0.1946(5) 0.0676(4) 0.2565(4) 0.0757 Uani
H5OA H -0.2052 0.0455 0.2470 0.0910 Uiso
C11OA C -0.2205(4) 0.1689(4) 0.2709(4) 0.0383 Uani
N1L N -0.1576(4) 0.0000 0.2717(5) 0.0853 Uani
C12OA C -0.0198(7) -0.0273(8) 0.2531(9) 0.1063 Uani
H6OA H -0.0325 -0.0462 0.2398 0.1280 Uiso
O2L O -0.2064(2) -0.1952(3) 0.28804(19) 0.0387 Uani
O4L O -0.2506(2) -0.16977(18) 0.2531(2) 0.0407 Uani
C1L C -0.1657(4) -0.1311(4) 0.2860(4) 0.0700 Uani
H1L H -0.1557 -0.1528 0.2969 0.0840 Uiso
C2L C -0.2151(3) -0.1004(4) 0.2560(4) 0.0593 Uani
H2L H -0.2392 -0.1006 0.2457 0.0710 Uiso
C4L C -0.1460(4) -0.0998(5) 0.2860(5) 0.1037 Uani
H3L H -0.1221 -0.0997 0.2969 0.1230 Uiso
C5L C -0.1375(4) -0.0323(3) 0.2716(4) 0.0827 Uani
C6L C -0.1597(4) -0.0670(4) 0.2702(4) 0.0710 Uani
C7L C -0.2006(4) -0.1318(4) 0.2701(3) 0.0477 Uani
C9L C -0.1001(4) -0.0333(3) 0.2712(4) 0.0910 Uani
H4L H -0.0874 -0.0563 0.2710 0.1090 Uiso
C10L C -0.1946(5) -0.0676(4) 0.2565(4) 0.0757 Uani
H5L H -0.2052 -0.0455 0.2470 0.0910 Uiso
C11L C -0.2205(4) -0.1689(4) 0.2709(4) 0.0383 Uani
C12L C -0.0198(7) 0.0273(8) 0.2531(9) 0.1063 Uani
H6L H -0.0325 0.0462 0.2398 0.1280 Uiso
Fe1AA Fe 0.28746(4) -0.21254(4) 0.2500 0.0280 Uani
O3AA O 0.32753(18) -0.17247(18) 0.2500 0.0487 Uani
Fe1DA Fe 0.21254(4) 0.2500 -0.28746(4) 0.0280 Uani
O3DA O 0.17247(18) 0.2500 -0.32753(18) 0.0487 Uani
Fe1GA Fe -0.2500 0.28746(4) 0.21254(4) 0.0280 Uani
O3GA O -0.2500 0.32753(18) 0.17247(18) 0.0487 Uani
O1AA O 0.2500 -0.2500 0.2500 0.0290 Uani
Fe1A Fe 0.28746(4) -0.21254(4) -0.2500 0.0280 Uani
Fe1B Fe -0.28746(4) -0.21254(4) 0.2500 0.0280 Uani
Fe1D Fe -0.21254(4) 0.2500 -0.28746(4) 0.0280 Uani
Fe1F Fe -0.21254(4) -0.2500 0.28746(4) 0.0280 Uani
Fe1I Fe 0.2500 -0.28746(4) -0.21254(4) 0.0280 Uani
Fe1P Fe -0.2500 0.28746(4) -0.21254(4) 0.0280 Uani
Fe1Y Fe -0.28746(4) 0.21254(4) 0.2500 0.0280 Uani
Fe1Z Fe 0.28746(4) 0.21254(4) -0.2500 0.0280 Uani
Fe1BA Fe 0.21254(4) -0.2500 0.28746(4) 0.0280 Uani
Fe1EA Fe 0.2500 0.28746(4) -0.21254(4) 0.0280 Uani
Fe1NA Fe 0.2500 -0.28746(4) 0.21254(4) 0.0280 Uani
Fe1OA Fe -0.21254(4) 0.2500 0.28746(4) 0.0280 Uani
O1Y O -0.2500 0.2500 0.2500 0.0290 Uani
O1Z O 0.2500 0.2500 -0.2500 0.0290 Uani
O2S O 0.2936(2) 0.21196(19) 0.3048(3) 0.0387 Uani
O2U O 0.21196(19) 0.3048(3) 0.2936(2) 0.0387 Uani
O2W O 0.3048(3) 0.2936(2) 0.21196(19) 0.0387 Uani
O2AA O 0.2936(2) -0.21196(19) 0.3048(3) 0.0387 Uani
O2DA O 0.21196(19) 0.3048(3) -0.2936(2) 0.0387 Uani
O2GA O -0.3048(3) 0.2936(2) 0.21196(19) 0.0387 Uani
O2JA O 0.2064(2) 0.1952(3) -0.28804(19) 0.0387 Uani
O4S O 0.2494(2) 0.2469(2) 0.33023(18) 0.0407 Uani
O4U O 0.2469(2) 0.33023(18) 0.2494(2) 0.0407 Uani
O4W O 0.33023(18) 0.2494(2) 0.2469(2) 0.0407 Uani
O4CA O -0.2531(2) 0.2506(2) 0.16977(18) 0.0407 Uani
O4PA O 0.2494(2) 0.2469(2) -0.33023(18) 0.0407 Uani
O4RA O -0.2469(2) 0.33023(18) 0.2494(2) 0.0407 Uani
O4TA O 0.33023(18) -0.2494(2) 0.2469(2) 0.0407 Uani
loop_
_atom_site_aniso_label
_atom_site_aniso_U_11
_atom_site_aniso_U_22
_atom_site_aniso_U_33
_atom_site_aniso_U_23
_atom_site_aniso_U_13
_atom_site_aniso_U_12
Fe1 0.027(2) 0.027(2) 0.030(2) -0.0028(7) -0.0028(7) -0.0031(10)
O1 0.029(5) 0.029(5) 0.029(5) -0.008(4) -0.008(4) -0.008(4)
O2 0.046(6) 0.035(5) 0.035(6) -0.002(4) -0.010(4) 0.011(4)
O3 0.045(5) 0.045(5) 0.056(7) -0.001(4) -0.001(4) 0.009(5)
O4 0.067(6) 0.035(5) 0.020(5) -0.010(4) -0.009(4) 0.002(5)
C1 0.148(13) 0.037(11) 0.025(10) -0.018(8) -0.022(7) 0.015(9)
C2 0.108(11) 0.043(9) 0.027(10) 0.016(10) -0.021(8) 0.012(6)
C3 0.19(2) 0.011(15) 0.067(19) 0.000 0.000 -0.001(11)
C4 0.25(2) 0.031(9) 0.030(10) -0.002(10) -0.013(10) 0.050(9)
C5 0.181(15) 0.038(12) 0.029(12) 0.013(10) 0.014(8) 0.010(8)
C6 0.169(13) 0.009(10) 0.035(12) -0.007(9) 0.004(9) 0.001(8)
C7 0.072(9) 0.024(10) 0.047(13) -0.016(9) 0.005(8) 0.004(7)
C8 0.25(3) 0.051(17) 0.020(11) 0.000 0.000 0.025(17)
C9 0.229(17) 0.011(9) 0.033(9) 0.002(8) 0.004(9) 0.008(8)
C10 0.157(14) 0.055(13) 0.015(11) -0.004(9) -0.022(7) 0.018(9)
C11 0.052(9) 0.025(9) 0.038(11) -0.006(9) 0.022(8) -0.004(8)
N1 0.165(16) 0.040(10) 0.051(13) 0.000 0.000 0.016(9)
C12 0.117(17) 0.098(16) 0.104(16) 0.002(9) -0.012(9) 0.003(9)
O2Z 0.046 0.035 0.035 0.002 0.01 0.011
O4Z 0.067 0.035 0.02 0.01 0.009 0.002
C1Z 0.148 0.037 0.025 0.018 0.022 0.015
C2Z 0.108 0.043 0.027 -0.016 0.021 0.012
C4Z 0.25 0.031 0.03 0.002 0.013 0.05
C5Z 0.181 0.038 0.029 -0.013 -0.014 0.01
C6Z 0.169 0.009 0.035 0.007 -0.004 0.001
C7Z 0.072 0.024 0.047 0.016 -0.005 0.004
C9Z 0.229 0.011 0.033 -0.002 -0.004 0.008
C10Z 0.157 0.055 0.015 0.004 0.022 0.018
C11Z 0.052 0.025 0.038 0.006 -0.022 -0.004
C12Z 0.117 0.098 0.104 -0.002 0.012 0.003
O2FA 0.046 0.035 0.035 0.002 -0.01 -0.011
O4FA 0.067 0.035 0.02 0.01 -0.009 -0.002
C1FA 0.148 0.037 0.025 0.018 -0.022 -0.015
C2FA 0.108 0.043 0.027 -0.016 -0.021 -0.012
C3E 0.19 0.011 0.067 0 0 0.001
C4FA 0.25 0.031 0.03 0.002 -0.013 -0.05
C5FA 0.181 0.038 0.029 -0.013 0.014 -0.01
C6FA 0.169 0.009 0.035 0.007 0.004 -0.001
C7FA 0.072 0.024 0.047 0.016 0.005 -0.004
C8E 0.25 0.051 0.02 0 0 -0.025
C9FA 0.229 0.011 0.033 -0.002 0.004 -0.008
C10FA 0.157 0.055 0.015 0.004 -0.022 -0.018
C11FA 0.052 0.025 0.038 0.006 0.022 0.004
N1E 0.165 0.04 0.051 0 0 -0.016
C12FA 0.117 0.098 0.104 -0.002 -0.012 -0.003
O2E 0.046 0.035 0.035 -0.002 0.01 -0.011
O4E 0.067 0.035 0.02 -0.01 0.009 -0.002
C1E 0.148 0.037 0.025 -0.018 0.022 -0.015
C2E 0.108 0.043 0.027 0.016 0.021 -0.012
C4E 0.25 0.031 0.03 -0.002 0.013 -0.05
C5E 0.181 0.038 0.029 0.013 -0.014 -0.01
C6E 0.169 0.009 0.035 -0.007 -0.004 -0.001
C7E 0.072 0.024 0.047 -0.016 -0.005 -0.004
C9E 0.229 0.011 0.033 0.002 -0.004 -0.008
C10E 0.157 0.055 0.015 -0.004 0.022 -0.018
C11E 0.052 0.025 0.038 -0.006 -0.022 0.004
C12E 0.117 0.098 0.104 0.002 0.012 -0.003
Fe1J 0.03 0.027 0.027 -0.0031 -0.0028 -0.0028
O2J 0.035 0.046 0.035 0.011 -0.002 -0.01
O3J 0.056 0.045 0.045 0.009 -0.001 -0.001
O4J 0.02 0.067 0.035 0.002 -0.01 -0.009
C1J 0.025 0.148 0.037 0.015 -0.018 -0.022
C2J 0.027 0.108 0.043 0.012 0.016 -0.021
C3J 0.067 0.19 0.011 -0.001 0 0
C4J 0.03 0.25 0.031 0.05 -0.002 -0.013
C5J 0.029 0.181 0.038 0.01 0.013 0.014
C6J 0.035 0.169 0.009 0.001 -0.007 0.004
C7J 0.047 0.072 0.024 0.004 -0.016 0.005
C8J 0.02 0.25 0.051 0.025 0 0
C9J 0.033 0.229 0.011 0.008 0.002 0.004
C10J 0.015 0.157 0.055 0.018 -0.004 -0.022
C11J 0.038 0.052 0.025 -0.004 -0.006 0.022
N1J 0.051 0.165 0.04 0.016 0 0
C12J 0.104 0.117 0.098 0.003 0.002 -0.012
O2KA 0.035 0.046 0.035 0.011 0.002 0.01
O4KA 0.02 0.067 0.035 0.002 0.01 0.009
C1KA 0.025 0.148 0.037 0.015 0.018 0.022
C2KA 0.027 0.108 0.043 0.012 -0.016 0.021
C4KA 0.03 0.25 0.031 0.05 0.002 0.013
C5KA 0.029 0.181 0.038 0.01 -0.013 -0.014
C6KA 0.035 0.169 0.009 0.001 0.007 -0.004
C7KA 0.047 0.072 0.024 0.004 0.016 -0.005
C9KA 0.033 0.229 0.011 0.008 -0.002 -0.004
C10KA 0.015 0.157 0.055 0.018 0.004 0.022
C11KA 0.038 0.052 0.025 -0.004 0.006 -0.022
C12KA 0.104 0.117 0.098 0.003 -0.002 0.012
O2MA 0.035 0.046 0.035 -0.011 0.002 -0.01
O4MA 0.02 0.067 0.035 -0.002 0.01 -0.009
C1MA 0.025 0.148 0.037 -0.015 0.018 -0.022
C2MA 0.027 0.108 0.043 -0.012 -0.016 -0.021
C3P 0.067 0.19 0.011 0.001 0 0
C4MA 0.03 0.25 0.031 -0.05 0.002 -0.013
C5MA 0.029 0.181 0.038 -0.01 -0.013 0.014
C6MA 0.035 0.169 0.009 -0.001 0.007 0.004
C7MA 0.047 0.072 0.024 -0.004 0.016 0.005
C8P 0.02 0.25 0.051 -0.025 0 0
C9MA 0.033 0.229 0.011 -0.008 -0.002 0.004
C10MA 0.015 0.157 0.055 -0.018 0.004 -0.022
C11MA 0.038 0.052 0.025 0.004 0.006 0.022
N1P 0.051 0.165 0.04 -0.016 0 0
C12MA 0.104 0.117 0.098 -0.003 -0.002 -0.012
O2P 0.035 0.046 0.035 -0.011 -0.002 0.01
O4P 0.02 0.067 0.035 -0.002 -0.01 0.009
C1P 0.025 0.148 0.037 -0.015 -0.018 0.022
C2P 0.027 0.108 0.043 -0.012 0.016 0.021
C4P 0.03 0.25 0.031 -0.05 -0.002 0.013
C5P 0.029 0.181 0.038 -0.01 0.013 -0.014
C6P 0.035 0.169 0.009 -0.001 -0.007 -0.004
C7P 0.047 0.072 0.024 -0.004 -0.016 -0.005
C9P 0.033 0.229 0.011 -0.008 0.002 -0.004
C10P 0.015 0.157 0.055 -0.018 -0.004 0.022
C11P 0.038 0.052 0.025 0.004 -0.006 -0.022
C12P 0.104 0.117 0.098 -0.003 0.002 0.012
Fe1K 0.027 0.03 0.027 -0.0028 -0.0031 -0.0028
O2K 0.035 0.035 0.046 -0.01 0.011 -0.002
O3K 0.045 0.056 0.045 -0.001 0.009 -0.001
O4K 0.035 0.02 0.067 -0.009 0.002 -0.01
C1K 0.037 0.025 0.148 -0.022 0.015 -0.018
C2K 0.043 0.027 0.108 -0.021 0.012 0.016
C3K 0.011 0.067 0.19 0 -0.001 0
C4K 0.031 0.03 0.25 -0.013 0.05 -0.002
C5K 0.038 0.029 0.181 0.014 0.01 0.013
C6K 0.009 0.035 0.169 0.004 0.001 -0.007
C7K 0.024 0.047 0.072 0.005 0.004 -0.016
C8K 0.051 0.02 0.25 0 0.025 0
C9K 0.011 0.033 0.229 0.004 0.008 0.002
C10K 0.055 0.015 0.157 -0.022 0.018 -0.004
C11K 0.025 0.038 0.052 0.022 -0.004 -0.006
N1K 0.04 0.051 0.165 0 0.016 0
C12K 0.098 0.104 0.117 -0.012 0.003 0.002
O2LA 0.035 0.035 0.046 0.01 0.011 0.002
O4LA 0.035 0.02 0.067 0.009 0.002 0.01
C1LA 0.037 0.025 0.148 0.022 0.015 0.018
C2LA 0.043 0.027 0.108 0.021 0.012 -0.016
C4LA 0.031 0.03 0.25 0.013 0.05 0.002
C5LA 0.038 0.029 0.181 -0.014 0.01 -0.013
C6LA 0.009 0.035 0.169 -0.004 0.001 0.007
C7LA 0.024 0.047 0.072 -0.005 0.004 0.016
C9LA 0.011 0.033 0.229 -0.004 0.008 -0.002
C10LA 0.055 0.015 0.157 0.022 0.018 0.004
C11LA 0.025 0.038 0.052 -0.022 -0.004 0.006
C12LA 0.098 0.104 0.117 0.012 0.003 -0.002
O2OA 0.035 0.035 0.046 -0.01 -0.011 0.002
O4OA 0.035 0.02 0.067 -0.009 -0.002 0.01
C1OA 0.037 0.025 0.148 -0.022 -0.015 0.018
C2OA 0.043 0.027 0.108 -0.021 -0.012 -0.016
C3L 0.011 0.067 0.19 0 0.001 0
C4OA 0.031 0.03 0.25 -0.013 -0.05 0.002
C5OA 0.038 0.029 0.181 0.014 -0.01 -0.013
C6OA 0.009 0.035 0.169 0.004 -0.001 0.007
C7OA 0.024 0.047 0.072 0.005 -0.004 0.016
C8L 0.051 0.02 0.25 0 -0.025 0
C9OA 0.011 0.033 0.229 0.004 -0.008 -0.002
C10OA 0.055 0.015 0.157 -0.022 -0.018 0.004
C11OA 0.025 0.038 0.052 0.022 0.004 0.006
N1L 0.04 0.051 0.165 0 -0.016 0
C12OA 0.098 0.104 0.117 -0.012 -0.003 -0.002
O2L 0.035 0.035 0.046 0.01 -0.011 -0.002
O4L 0.035 0.02 0.067 0.009 -0.002 -0.01
C1L 0.037 0.025 0.148 0.022 -0.015 -0.018
C2L 0.043 0.027 0.108 0.021 -0.012 0.016
C4L 0.031 0.03 0.25 0.013 -0.05 -0.002
C5L 0.038 0.029 0.181 -0.014 -0.01 0.013
C6L 0.009 0.035 0.169 -0.004 -0.001 -0.007
C7L 0.024 0.047 0.072 -0.005 -0.004 -0.016
C9L 0.011 0.033 0.229 -0.004 -0.008 0.002
C10L 0.055 0.015 0.157 0.022 -0.018 -0.004
C11L 0.025 0.038 0.052 -0.022 0.004 -0.006
C12L 0.098 0.104 0.117 0.012 -0.003 0.002
Fe1AA 0.027 0.027 0.03 0.0028 -0.0028 0.0031
O3AA 0.045 0.045 0.056 0.001 -0.001 -0.009
Fe1DA 0.027 0.03 0.027 0.0028 0.0031 -0.0028
O3DA 0.045 0.056 0.045 0.001 -0.009 -0.001
Fe1GA 0.03 0.027 0.027 -0.0031 0.0028 0.0028
O3GA 0.056 0.045 0.045 0.009 0.001 0.001
O1AA 0.029 0.029 0.029 0.008 -0.008 0.008
Fe1A 0.027 0.027 0.03 -0.0028 0.0028 0.0031
Fe1B 0.027 0.027 0.03 0.0028 0.0028 -0.0031
Fe1D 0.027 0.03 0.027 0.0028 -0.0031 0.0028
Fe1F 0.027 0.03 0.027 0.0028 0.0031 -0.0028
Fe1I 0.03 0.027 0.027 -0.0031 0.0028 0.0028
Fe1P 0.03 0.027 0.027 0.0031 -0.0028 0.0028
Fe1Y 0.027 0.027 0.03 -0.0028 0.0028 0.0031
Fe1Z 0.027 0.027 0.03 0.0028 0.0028 -0.0031
Fe1BA 0.027 0.03 0.027 0.0028 -0.0031 0.0028
Fe1EA 0.03 0.027 0.027 0.0031 0.0028 -0.0028
Fe1NA 0.03 0.027 0.027 0.0031 -0.0028 0.0028
Fe1OA 0.027 0.03 0.027 -0.0028 0.0031 0.0028
O1Y 0.029 0.029 0.029 -0.008 0.008 0.008
O1Z 0.029 0.029 0.029 0.008 0.008 -0.008
O2S 0.035 0.046 0.035 -0.01 -0.002 0.011
O2U 0.046 0.035 0.035 -0.002 0.011 -0.01
O2W 0.035 0.035 0.046 0.011 -0.01 -0.002
O2AA 0.035 0.046 0.035 0.01 -0.002 -0.011
O2DA 0.046 0.035 0.035 0.002 -0.011 -0.01
O2GA 0.035 0.035 0.046 0.011 0.01 0.002
O2JA 0.035 0.035 0.046 0.01 -0.011 -0.002
O4S 0.035 0.067 0.02 -0.009 -0.01 0.002
O4U 0.067 0.02 0.035 -0.01 0.002 -0.009
O4W 0.02 0.035 0.067 0.002 -0.009 -0.01
O4CA 0.067 0.035 0.02 -0.01 0.009 -0.002
O4PA 0.035 0.067 0.02 0.009 0.01 0.002
O4RA 0.067 0.02 0.035 -0.01 -0.002 0.009
O4TA 0.02 0.035 0.067 -0.002 -0.009 0.01
loop_
_geom_bond_atom_site_label_1
_geom_bond_atom_site_label_2
_geom_bond_site_symmetry_1
_geom_bond_site_symmetry_2
Fe1 O1 1_555 1_555
O1 Fe1J 1_555 1_555
O2 Fe1 1_555 1_555
O3 Fe1 1_555 1_555
O4 C11 1_555 1_555
C1 H1 1_555 1_555
C2 H2 1_555 1_555
C3 C8 1_555 1_555
C4 C1 1_555 1_555
H3 C4 1_555 1_555
C5 C6 1_555 1_555
C6 C4 1_555 1_555
C7 C1 1_555 1_555
C8 C12 1_555 1_555
C9 C3 1_555 1_555
H4 C9 1_555 1_555
C10 C2 1_555 1_555
H5 C10 1_555 1_555
C11 O2 1_555 1_555
N1 C5 1_555 1_555
C12 H6 1_555 1_555
O2Z C11Z 1_555 1_555
O4Z C11Z 1_555 1_555
C1Z H1Z 1_555 1_555
C2Z H2Z 1_555 1_555
C4Z C1Z 1_555 1_555
H3Z C4Z 1_555 1_555
C5Z N1 1_555 1_555
C6Z C4Z 1_555 1_555
C7Z C1Z 1_555 1_555
C9Z C3 1_555 1_555
H4Z C9Z 1_555 1_555
C10Z C2Z 1_555 1_555
H5Z C10Z 1_555 1_555
C11Z C7Z 1_555 1_555
C12Z C8 1_555 1_555
H6Z C12Z 1_555 1_555
O2FA C11FA 1_555 1_555
O4FA C11FA 1_555 1_555
C1FA H1FA 1_555 1_555
C2FA H2FA 1_555 1_555
C3E C8E 1_555 1_555
C4FA C1FA 1_555 1_555
H3FA C4FA 1_555 1_555
C5FA C6FA 1_555 1_555
C6FA C4FA 1_555 1_555
C7FA C1FA 1_555 1_555
C8E C12FA 1_555 1_555
C9FA C3E 1_555 1_555
H4FA C9FA 1_555 1_555
C10FA C2FA 1_555 1_555
H5FA C10FA 1_555 1_555
C11FA C7FA 1_555 1_555
N1E C5FA 1_555 1_555
C12FA C12 1_555 1_555
H6FA C12FA 1_555 1_555
O2E C11E 1_555 1_555
O4E C11E 1_555 1_555
C1E H1E 1_555 1_555
C2E H2E 1_555 1_555
C4E C1E 1_555 1_555
H3E C4E 1_555 1_555
C5E N1E 1_555 1_555
C6E C4E 1_555 1_555
C7E C1E 1_555 1_555
C9E C3E 1_555 1_555
H4E C9E 1_555 1_555
C10E C2E 1_555 1_555
H5E C10E 1_555 1_555
C11E C7E 1_555 1_555
C12E C12Z 1_555 1_555
H6E C12E 1_555 1_555
Fe1J O4 1_555 1_555
O2J Fe1J 1_555 1_555
O3J Fe1J 1_555 1_555
O4J C11J 1_555 1_555
C1J H1J 1_555 1_555
C2J H2J 1_555 1_555
C3J C8J 1_555 1_555
C4J C1J 1_555 1_555
H3J C4J 1_555 1_555
C5J C6J 1_555 1_555
C6J C4J 1_555 1_555
C7J C1J 1_555 1_555
C8J C12J 1_555 1_555
C9J C3J 1_555 1_555
H4J C9J 1_555 1_555
C10J C2J 1_555 1_555
H5J C10J 1_555 1_555
C11J O2J 1_555 1_555
N1J C5J 1_555 1_555
C12J H6J 1_555 1_555
O2KA C11KA 1_555 1_555
O4KA C11KA 1_555 1_555
C1KA H1KA 1_555 1_555
C2KA H2KA 1_555 1_555
C4KA C1KA 1_555 1_555
H3KA C4KA 1_555 1_555
C5KA N1J 1_555 1_555
C6KA C4KA 1_555 1_555
C7KA C1KA 1_555 1_555
C9KA C3J 1_555 1_555
H4KA C9KA 1_555 1_555
C10KA C2KA 1_555 1_555
H5KA C10KA 1_555 1_555
C11KA C7KA 1_555 1_555
C12KA C8J 1_555 1_555
H6KA C12KA 1_555 1_555
O2MA C11MA 1_555 1_555
O4MA C11MA 1_555 1_555
C1MA H1MA 1_555 1_555
C2MA H2MA 1_555 1_555
C3P C8P 1_555 1_555
C4MA C1MA 1_555 1_555
H3MA C4MA 1_555 1_555
C5MA C6MA 1_555 1_555
C6MA C4MA 1_555 1_555
C7MA C1MA 1_555 1_555
C8P C12MA 1_555 1_555
C9MA C3P 1_555 1_555
H4MA C9MA 1_555 1_555
C10MA C2MA 1_555 1_555
H5MA C10MA 1_555 1_555
C11MA C7MA 1_555 1_555
N1P C5MA 1_555 1_555
C12MA C12J 1_555 1_555
H6MA C12MA 1_555 1_555
O2P C11P 1_555 1_555
O4P C11P 1_555 1_555
C1P H1P 1_555 1_555
C2P H2P 1_555 1_555
C4P C1P 1_555 1_555
H3P C4P 1_555 1_555
C5P N1P 1_555 1_555
C6P C4P 1_555 1_555
C7P C1P 1_555 1_555
C9P C3P 1_555 1_555
H4P C9P 1_555 1_555
C10P C2P 1_555 1_555
H5P C10P 1_555 1_555
C11P C7P 1_555 1_555
C12P C12KA 1_555 1_555
H6P C12P 1_555 1_555
Fe1K O1 1_555 1_555
O2K Fe1K 1_555 1_555
O3K Fe1K 1_555 1_555
O4K Fe1 1_555 1_555
C1K H1K 1_555 1_555
C2K H2K 1_555 1_555
C3K C8K 1_555 1_555
C4K C1K 1_555 1_555
H3K C4K 1_555 1_555
C5K C6K 1_555 1_555
C6K C4K 1_555 1_555
C7K C1K 1_555 1_555
C8K C12K 1_555 1_555
C9K C3K 1_555 1_555
H4K C9K 1_555 1_555
C10K C2K 1_555 1_555
H5K C10K 1_555 1_555
C11K O2K 1_555 1_555
N1K C5K 1_555 1_555
C12K H6K 1_555 1_555
O2LA C11LA 1_555 1_555
O4LA C11LA 1_555 1_555
C1LA H1LA 1_555 1_555
C2LA H2LA 1_555 1_555
C4LA C1LA 1_555 1_555
H3LA C4LA 1_555 1_555
C5LA N1K 1_555 1_555
C6LA C4LA 1_555 1_555
C7LA C1LA 1_555 1_555
C9LA C3K 1_555 1_555
H4LA C9LA 1_555 1_555
C10LA C2LA 1_555 1_555
H5LA C10LA 1_555 1_555
C11LA C7LA 1_555 1_555
C12LA C8K 1_555 1_555
H6LA C12LA 1_555 1_555
O2OA C11OA 1_555 1_555
O4OA C11OA 1_555 1_555
C1OA H1OA 1_555 1_555
C2OA H2OA 1_555 1_555
C3L C8L 1_555 1_555
C4OA C1OA 1_555 1_555
H3OA C4OA 1_555 1_555
C5OA C6OA 1_555 1_555
C6OA C4OA 1_555 1_555
C7OA C1OA 1_555 1_555
C8L C12OA 1_555 1_555
C9OA C3L 1_555 1_555
H4OA C9OA 1_555 1_555
C10OA C2OA 1_555 1_555
H5OA C10OA 1_555 1_555
C11OA C7OA 1_555 1_555
N1L C5OA 1_555 1_555
C12OA C12K 1_555 1_555
H6OA C12OA 1_555 1_555
O2L C11L 1_555 1_555
O4L C11L 1_555 1_555
C1L H1L 1_555 1_555
C2L H2L 1_555 1_555
C4L C1L 1_555 1_555
H3L C4L 1_555 1_555
C5L N1L 1_555 1_555
C6L C4L 1_555 1_555
C7L C1L 1_555 1_555
C9L C3L 1_555 1_555
H4L C9L 1_555 1_555
C10L C2L 1_555 1_555
H5L C10L 1_555 1_555
C11L C7L 1_555 1_555
C12L C12LA 1_555 1_555
H6L C12L 1_555 1_555
Fe1AA O2FA 1_555 1_555
O3AA Fe1AA 1_555 1_555
Fe1DA O4MA 1_555 1_555
O3DA Fe1DA 1_555 1_555
Fe1GA O2KA 1_555 1_555
O3GA Fe1GA 1_555 1_555
O1AA Fe1AA 1_555 1_555
Fe1A O2E 1_555 1_555
Fe1B O4L 1_555 1_555
Fe1D O4P 1_555 1_555
Fe1F O2L 1_555 1_555
Fe1I O4E 1_555 1_555
Fe1P O2P 1_555 1_555
Fe1Y O4OA 1_555 1_555
Fe1Z O2Z 1_555 1_555
Fe1BA O2LA 1_555 1_555
Fe1EA O4Z 1_555 1_555
Fe1NA O4FA 1_555 1_555
Fe1OA O4KA 1_555 1_555
O1Y Fe1GA 1_555 1_555
O1Z Fe1DA 1_555 1_555
O2S Fe1 1_555 1_555
O2U Fe1K 1_555 1_555
O2W Fe1J 1_555 1_555
O2AA Fe1AA 1_555 1_555
O2DA Fe1DA 1_555 1_555
O2GA Fe1GA 1_555 1_555
O2JA Fe1DA 1_555 1_555
O4S Fe1K 1_555 1_555
O4U Fe1J 1_555 1_555
O4W Fe1 1_555 1_555
O4CA Fe1GA 1_555 1_555
O4PA Fe1DA 1_555 1_555
O4RA Fe1GA 1_555 1_555
O4TA Fe1AA 1_555 1_555
C2 C7 1_555 1_555
C5 C9 1_555 1_555
C6 C10 1_555 1_555
C7 C11 1_555 1_555
C2Z C7Z 1_555 1_555
C5Z C6Z 1_555 1_555
C5Z C9Z 1_555 1_555
C6Z C10Z 1_555 1_555
C2FA C7FA 1_555 1_555
C5FA C9FA 1_555 1_555
C6FA C10FA 1_555 1_555
C8E C12E 1_555 1_555
C2E C7E 1_555 1_555
C5E C6E 1_555 1_555
C5E C9E 1_555 1_555
C6E C10E 1_555 1_555
O4J Fe1K 1_555 1_555
C2J C7J 1_555 1_555
C5J C9J 1_555 1_555
C6J C10J 1_555 1_555
C7J C11J 1_555 1_555
C2KA C7KA 1_555 1_555
C5KA C6KA 1_555 1_555
C5KA C9KA 1_555 1_555
C6KA C10KA 1_555 1_555
O2MA Fe1EA 1_555 1_555
C2MA C7MA 1_555 1_555
C5MA C9MA 1_555 1_555
C6MA C10MA 1_555 1_555
C8P C12P 1_555 1_555
C2P C7P 1_555 1_555
C5P C6P 1_555 1_555
C5P C9P 1_555 1_555
C6P C10P 1_555 1_555
O4K C11K 1_555 1_555
C2K C7K 1_555 1_555
C5K C9K 1_555 1_555
C6K C10K 1_555 1_555
C7K C11K 1_555 1_555
O4LA Fe1AA 1_555 1_555
C2LA C7LA 1_555 1_555
C5LA C6LA 1_555 1_555
C5LA C9LA 1_555 1_555
C6LA C10LA 1_555 1_555
O2OA Fe1OA 1_555 1_555
C2OA C7OA 1_555 1_555
C5OA C9OA 1_555 1_555
C6OA C10OA 1_555 1_555
C8L C12L 1_555 1_555
C2L C7L 1_555 1_555
C5L C6L 1_555 1_555
C5L C9L 1_555 1_555
C6L C10L 1_555 1_555
O1AA Fe1BA 1_555 1_555
O1AA Fe1NA 1_555 1_555
Fe1Y O1Y 1_555 1_555
Fe1Z O1Z 1_555 1_555
Fe1EA O1Z 1_555 1_555
Fe1OA O1Y 1_555 1_555

#END
