
#######################################################################
#
#                 Cambridge Crystallographic Data Centre
#                                CCDC 
#
#######################################################################
#
# If this CIF has been generated from an entry in the Cambridge 
# Structural Database, then it will include bibliographic, chemical, 
# crystal, experimental, refinement or atomic coordinate data resulting 
# from the CCDC's data processing and validation procedures.
#
#######################################################################

data_LATCAN
_chemical_formula_moiety         '(C132 H84 Cr6 N6 O32)n'
_symmetry_cell_setting           cubic
_symmetry_space_group_name_H-M   'P m -3 n'
_symmetry_Int_Tables_number      223
_space_group_name_Hall           '-P 4n 2 3'
loop_
_symmetry_equiv_pos_site_id
_symmetry_equiv_pos_as_xyz
1 x,y,z
2 -x,-y,z
3 -x,y,-z
4 x,-y,-z
5 z,x,y
6 z,-x,-y
7 -z,-x,y
8 -z,x,-y
9 y,z,x
10 -y,z,-x
11 y,-z,-x
12 -y,-z,x
13 1/2+y,1/2+x,1/2-z
14 1/2-y,1/2-x,1/2-z
15 1/2+y,1/2-x,1/2+z
16 1/2-y,1/2+x,1/2+z
17 1/2+x,1/2+z,1/2-y
18 1/2-x,1/2+z,1/2+y
19 1/2-x,1/2-z,1/2-y
20 1/2+x,1/2-z,1/2+y
21 1/2+z,1/2+y,1/2-x
22 1/2+z,1/2-y,1/2+x
23 1/2-z,1/2+y,1/2+x
24 1/2-z,1/2-y,1/2-x
25 -x,-y,-z
26 x,y,-z
27 x,-y,z
28 -x,y,z
29 -z,-x,-y
30 -z,x,y
31 z,x,-y
32 z,-x,y
33 -y,-z,-x
34 y,-z,x
35 -y,z,x
36 y,z,-x
37 1/2-y,1/2-x,1/2+z
38 1/2+y,1/2+x,1/2+z
39 1/2-y,1/2+x,1/2-z
40 1/2+y,1/2-x,1/2-z
41 1/2-x,1/2-z,1/2+y
42 1/2+x,1/2-z,1/2-y
43 1/2+x,1/2+z,1/2+y
44 1/2-x,1/2+z,1/2-y
45 1/2-z,1/2-y,1/2+x
46 1/2-z,1/2+y,1/2-x
47 1/2+z,1/2-y,1/2-x
48 1/2+z,1/2+y,1/2+x
_cell_length_a                   35.7948(12)
_cell_length_b                   35.7948(12)
_cell_length_c                   35.7948(12)
_cell_angle_alpha                90
_cell_angle_beta                 90
_cell_angle_gamma                90
_cell_volume                     45862.7
loop_
_atom_site_label
_atom_site_type_symbol
_atom_site_fract_x
_atom_site_fract_y
_atom_site_fract_z
_atom_site_U_iso_or_equiv
_atom_site_thermal_displace_type
Cr1 Cr 0.7500 0.71250(2) 0.21250(2) 0.0668 Uani
O1 O 0.7500 0.7500 0.2500 0.0662 Uani
O2 O 0.75210(9) 0.67087(8) 0.24855(8) 0.0808 Uani
O3 O 0.7500 0.67061(9) 0.17061(9) 0.0858 Uani
O4 O 0.78780(8) 0.69532(8) 0.29317(8) 0.0803 Uani
C1 C 0.76978(12) 0.66936(11) 0.27883(11) 0.0763 Uani
N1 N 0.7652(3) 0.5000 0.34202(17) 0.1460 Uani
C2 C 0.76878(17) 0.63354(13) 0.29909(13) 0.0940 Uani
C3 C 0.7542(2) 0.60163(14) 0.28343(14) 0.1067 Uani
H1 H 0.7446 0.6023 0.2587 0.1280 Uiso
C4 C 0.7834(3) 0.63185(15) 0.33524(16) 0.1317 Uani
H2 H 0.7943 0.6534 0.3462 0.1580 Uiso
C5 C 0.7532(2) 0.56873(14) 0.30326(15) 0.1230 Uani
H3 H 0.7433 0.5468 0.2920 0.1470 Uiso
C6 C 0.7665(3) 0.56726(14) 0.33936(15) 0.1403 Uani
C7 C 0.7648(3) 0.53226(14) 0.36124(16) 0.1570 Uani
C8 C 0.7820(3) 0.59946(16) 0.35470(18) 0.1670 Uani
H4 H 0.7919 0.5987 0.3793 0.2000 Uiso
C9 C 0.7616(6) 0.5000 0.4199(2) 0.1960 Uani
C10 C 0.7626(4) 0.53310(15) 0.39952(16) 0.1930 Uani
H5 H 0.7617 0.5564 0.4122 0.2320 Uiso
C11 C 0.7606(7) 0.5000 0.4612(2) 0.2233 Uani
C12 C 0.774(4) 0.5284(5) 0.4813(6) 0.2883 Uani
H6 H 0.7841 0.5494 0.4685 0.3470 Uiso
O2Y O 0.75210(9) 0.67087(8) 0.75145(8) 0.0808 Uani
O4Y O 0.78780(8) 0.69532(8) 0.70683(8) 0.0803 Uani
C1Y C 0.76978(12) 0.66936(11) 0.72117(11) 0.0763 Uani
N1C N 0.7652(3) 0.5000 0.65798(17) 0.1460 Uani
C2Y C 0.76878(17) 0.63354(13) 0.70091(13) 0.0940 Uani
C3Y C 0.7542(2) 0.60163(14) 0.71657(14) 0.1067 Uani
H1Y H 0.7446 0.6023 0.7413 0.1280 Uiso
C4Y C 0.7834(3) 0.63185(15) 0.66476(16) 0.1317 Uani
H2Y H 0.7943 0.6534 0.6538 0.1580 Uiso
C5Y C 0.7532(2) 0.56873(14) 0.69674(15) 0.1230 Uani
H3Y H 0.7433 0.5468 0.7080 0.1470 Uiso
C6Y C 0.7665(3) 0.56726(14) 0.66064(15) 0.1403 Uani
C7Y C 0.7648(3) 0.53226(14) 0.63876(16) 0.1570 Uani
C8Y C 0.7820(3) 0.59946(16) 0.64530(18) 0.1670 Uani
H4Y H 0.7919 0.5987 0.6207 0.2000 Uiso
C9C C 0.7616(6) 0.5000 0.5801(2) 0.1960 Uani
C10Y C 0.7626(4) 0.53310(15) 0.60048(16) 0.1930 Uani
H5Y H 0.7617 0.5564 0.5878 0.2320 Uiso
C11C C 0.7606(7) 0.5000 0.5388(2) 0.2233 Uani
C12Y C 0.774(4) 0.5284(5) 0.5187(6) 0.2883 Uani
H6Y H 0.7841 0.5494 0.5315 0.3470 Uiso
O2Z O 0.75210(9) 0.32913(8) 0.24855(8) 0.0808 Uani
O4Z O 0.78780(8) 0.30468(8) 0.29317(8) 0.0803 Uani
C1Z C 0.76978(12) 0.33064(11) 0.27883(11) 0.0763 Uani
C2Z C 0.76878(17) 0.36646(13) 0.29909(13) 0.0940 Uani
C3Z C 0.7542(2) 0.39837(14) 0.28343(14) 0.1067 Uani
H1Z H 0.7446 0.3977 0.2587 0.1280 Uiso
C4Z C 0.7834(3) 0.36815(15) 0.33524(16) 0.1317 Uani
H2Z H 0.7943 0.3466 0.3462 0.1580 Uiso
C5Z C 0.7532(2) 0.43127(14) 0.30326(15) 0.1230 Uani
H3Z H 0.7433 0.4532 0.2920 0.1470 Uiso
C6Z C 0.7665(3) 0.43274(14) 0.33936(15) 0.1403 Uani
C7Z C 0.7648(3) 0.46774(14) 0.36124(16) 0.1570 Uani
C8Z C 0.7820(3) 0.40054(16) 0.35470(18) 0.1670 Uani
H4Z H 0.7919 0.4013 0.3793 0.2000 Uiso
C10Z C 0.7626(4) 0.46690(15) 0.39952(16) 0.1930 Uani
H5Z H 0.7617 0.4436 0.4122 0.2320 Uiso
C12Z C 0.774(4) 0.4716(5) 0.4813(6) 0.2883 Uani
H6Z H 0.7841 0.4506 0.4685 0.3470 Uiso
O2C O 0.75210(9) 0.32913(8) 0.75145(8) 0.0808 Uani
O4C O 0.78780(8) 0.30468(8) 0.70683(8) 0.0803 Uani
C1C C 0.76978(12) 0.33064(11) 0.72117(11) 0.0763 Uani
C2C C 0.76878(17) 0.36646(13) 0.70091(13) 0.0940 Uani
C3C C 0.7542(2) 0.39837(14) 0.71657(14) 0.1067 Uani
H1C H 0.7446 0.3977 0.7413 0.1280 Uiso
C4C C 0.7834(3) 0.36815(15) 0.66476(16) 0.1317 Uani
H2C H 0.7943 0.3466 0.6538 0.1580 Uiso
C5C C 0.7532(2) 0.43127(14) 0.69674(15) 0.1230 Uani
H3C H 0.7433 0.4532 0.7080 0.1470 Uiso
C6C C 0.7665(3) 0.43274(14) 0.66064(15) 0.1403 Uani
C7C C 0.7648(3) 0.46774(14) 0.63876(16) 0.1570 Uani
C8C C 0.7820(3) 0.40054(16) 0.64530(18) 0.1670 Uani
H4C H 0.7919 0.4013 0.6207 0.2000 Uiso
C10C C 0.7626(4) 0.46690(15) 0.60048(16) 0.1930 Uani
H5C H 0.7617 0.4436 0.5878 0.2320 Uiso
C12C C 0.774(4) 0.4716(5) 0.5187(6) 0.2883 Uani
H6C H 0.7841 0.4506 0.5315 0.3470 Uiso
O2F O 0.75145(8) 0.24790(9) 0.67087(8) 0.0808 Uani
O4F O 0.70683(8) 0.21220(8) 0.69532(8) 0.0803 Uani
C1F C 0.72117(11) 0.23022(12) 0.66936(11) 0.0763 Uani
N1F N 0.65798(17) 0.2348(3) 0.5000 0.1460 Uani
C2F C 0.70091(13) 0.23122(17) 0.63354(13) 0.0940 Uani
C3F C 0.71657(14) 0.2458(2) 0.60163(14) 0.1067 Uani
H1F H 0.7413 0.2554 0.6023 0.1280 Uiso
C4F C 0.66476(16) 0.2166(3) 0.63185(15) 0.1317 Uani
H2F H 0.6538 0.2057 0.6534 0.1580 Uiso
C5F C 0.69674(15) 0.2468(2) 0.56873(14) 0.1230 Uani
H3F H 0.7080 0.2567 0.5468 0.1470 Uiso
C6F C 0.66064(15) 0.2335(3) 0.56726(14) 0.1403 Uani
C7F C 0.63876(16) 0.2352(3) 0.53226(14) 0.1570 Uani
C8F C 0.64530(18) 0.2180(3) 0.59946(16) 0.1670 Uani
H4F H 0.6207 0.2081 0.5987 0.2000 Uiso
C9F C 0.5801(2) 0.2384(6) 0.5000 0.1960 Uani
C10F C 0.60048(16) 0.2374(4) 0.53310(15) 0.1930 Uani
H5F H 0.5878 0.2383 0.5564 0.2320 Uiso
C11F C 0.5388(2) 0.2394(7) 0.5000 0.2233 Uani
C12F C 0.5187(6) 0.226(4) 0.5284(5) 0.2883 Uani
H6F H 0.5315 0.2159 0.5494 0.3470 Uiso
O2EA O 0.24855(8) 0.24790(9) 0.67087(8) 0.0808 Uani
O4EA O 0.29317(8) 0.21220(8) 0.69532(8) 0.0803 Uani
C1EA C 0.27883(11) 0.23022(12) 0.66936(11) 0.0763 Uani
N1E N 0.34202(17) 0.2348(3) 0.5000 0.1460 Uani
C2EA C 0.29909(13) 0.23122(17) 0.63354(13) 0.0940 Uani
C3EA C 0.28343(14) 0.2458(2) 0.60163(14) 0.1067 Uani
H1EA H 0.2587 0.2554 0.6023 0.1280 Uiso
C4EA C 0.33524(16) 0.2166(3) 0.63185(15) 0.1317 Uani
H2EA H 0.3462 0.2057 0.6534 0.1580 Uiso
C5EA C 0.30326(15) 0.2468(2) 0.56873(14) 0.1230 Uani
H3EA H 0.2920 0.2567 0.5468 0.1470 Uiso
C6EA C 0.33936(15) 0.2335(3) 0.56726(14) 0.1403 Uani
C7EA C 0.36124(16) 0.2352(3) 0.53226(14) 0.1570 Uani
C8EA C 0.35470(18) 0.2180(3) 0.59946(16) 0.1670 Uani
H4EA H 0.3793 0.2081 0.5987 0.2000 Uiso
C9E C 0.4199(2) 0.2384(6) 0.5000 0.1960 Uani
C10EA C 0.39952(16) 0.2374(4) 0.53310(15) 0.1930 Uani
H5EA H 0.4122 0.2383 0.5564 0.2320 Uiso
C11E C 0.4612(2) 0.2394(7) 0.5000 0.2233 Uani
C12EA C 0.4813(6) 0.226(4) 0.5284(5) 0.2883 Uani
H6EA H 0.4685 0.2159 0.5494 0.3470 Uiso
O2BA O 0.75145(8) 0.24790(9) 0.32913(8) 0.0808 Uani
O4BA O 0.70683(8) 0.21220(8) 0.30468(8) 0.0803 Uani
C1BA C 0.72117(11) 0.23022(12) 0.33064(11) 0.0763 Uani
C2BA C 0.70091(13) 0.23122(17) 0.36646(13) 0.0940 Uani
C3BA C 0.71657(14) 0.2458(2) 0.39837(14) 0.1067 Uani
H1BA H 0.7413 0.2554 0.3977 0.1280 Uiso
C4BA C 0.66476(16) 0.2166(3) 0.36815(15) 0.1317 Uani
H2BA H 0.6538 0.2057 0.3466 0.1580 Uiso
C5BA C 0.69674(15) 0.2468(2) 0.43127(14) 0.1230 Uani
H3BA H 0.7080 0.2567 0.4532 0.1470 Uiso
C6BA C 0.66064(15) 0.2335(3) 0.43274(14) 0.1403 Uani
C7BA C 0.63876(16) 0.2352(3) 0.46774(14) 0.1570 Uani
C8BA C 0.64530(18) 0.2180(3) 0.40054(16) 0.1670 Uani
H4BA H 0.6207 0.2081 0.4013 0.2000 Uiso
C10BA C 0.60048(16) 0.2374(4) 0.46690(15) 0.1930 Uani
H5BA H 0.5878 0.2383 0.4436 0.2320 Uiso
C12BA C 0.5187(6) 0.226(4) 0.4716(5) 0.2883 Uani
H6BA H 0.5315 0.2159 0.4506 0.3470 Uiso
O2E O 0.24855(8) 0.24790(9) 0.32913(8) 0.0808 Uani
O4E O 0.29317(8) 0.21220(8) 0.30468(8) 0.0803 Uani
C1E C 0.27883(11) 0.23022(12) 0.33064(11) 0.0763 Uani
C2E C 0.29909(13) 0.23122(17) 0.36646(13) 0.0940 Uani
C3E C 0.28343(14) 0.2458(2) 0.39837(14) 0.1067 Uani
H1E H 0.2587 0.2554 0.3977 0.1280 Uiso
C4E C 0.33524(16) 0.2166(3) 0.36815(15) 0.1317 Uani
H2E H 0.3462 0.2057 0.3466 0.1580 Uiso
C5E C 0.30326(15) 0.2468(2) 0.43127(14) 0.1230 Uani
H3E H 0.2920 0.2567 0.4532 0.1470 Uiso
C6E C 0.33936(15) 0.2335(3) 0.43274(14) 0.1403 Uani
C7E C 0.36124(16) 0.2352(3) 0.46774(14) 0.1570 Uani
C8E C 0.35470(18) 0.2180(3) 0.40054(16) 0.1670 Uani
H4E H 0.3793 0.2081 0.4013 0.2000 Uiso
C10E C 0.39952(16) 0.2374(4) 0.46690(15) 0.1930 Uani
H5E H 0.4122 0.2383 0.4436 0.2320 Uiso
C12E C 0.4813(6) 0.226(4) 0.4716(5) 0.2883 Uani
H6E H 0.4685 0.2159 0.4506 0.3470 Uiso
Cr1G Cr 0.78750(2) 0.7500 0.28750(2) 0.0668 Uani
O2G O 0.75145(8) 0.75210(9) 0.32913(8) 0.0808 Uani
O3G O 0.82939(9) 0.7500 0.32939(9) 0.0858 Uani
O4G O 0.70683(8) 0.78780(8) 0.30468(8) 0.0803 Uani
C1G C 0.72117(11) 0.76978(12) 0.33064(11) 0.0763 Uani
N1G N 0.65798(17) 0.7652(3) 0.5000 0.1460 Uani
C2G C 0.70091(13) 0.76878(17) 0.36646(13) 0.0940 Uani
C3G C 0.71657(14) 0.7542(2) 0.39837(14) 0.1067 Uani
H1G H 0.7413 0.7446 0.3977 0.1280 Uiso
C4G C 0.66476(16) 0.7834(3) 0.36815(15) 0.1317 Uani
H2G H 0.6538 0.7943 0.3466 0.1580 Uiso
C5G C 0.69674(15) 0.7532(2) 0.43127(14) 0.1230 Uani
H3G H 0.7080 0.7433 0.4532 0.1470 Uiso
C6G C 0.66064(15) 0.7665(3) 0.43274(14) 0.1403 Uani
C7G C 0.63876(16) 0.7648(3) 0.46774(14) 0.1570 Uani
C8G C 0.64530(18) 0.7820(3) 0.40054(16) 0.1670 Uani
H4G H 0.6207 0.7919 0.4013 0.2000 Uiso
C9G C 0.5801(2) 0.7616(6) 0.5000 0.1960 Uani
C10G C 0.60048(16) 0.7626(4) 0.46690(15) 0.1930 Uani
H5G H 0.5878 0.7617 0.4436 0.2320 Uiso
C11G C 0.5388(2) 0.7606(7) 0.5000 0.2233 Uani
C12G C 0.5187(6) 0.774(4) 0.4716(5) 0.2883 Uani
H6G H 0.5315 0.7841 0.4506 0.3470 Uiso
O2DA O 0.24855(8) 0.75210(9) 0.32913(8) 0.0808 Uani
O4DA O 0.29317(8) 0.78780(8) 0.30468(8) 0.0803 Uani
C1DA C 0.27883(11) 0.76978(12) 0.33064(11) 0.0763 Uani
N1D N 0.34202(17) 0.7652(3) 0.5000 0.1460 Uani
C2DA C 0.29909(13) 0.76878(17) 0.36646(13) 0.0940 Uani
C3DA C 0.28343(14) 0.7542(2) 0.39837(14) 0.1067 Uani
H1DA H 0.2587 0.7446 0.3977 0.1280 Uiso
C4DA C 0.33524(16) 0.7834(3) 0.36815(15) 0.1317 Uani
H2DA H 0.3462 0.7943 0.3466 0.1580 Uiso
C5DA C 0.30326(15) 0.7532(2) 0.43127(14) 0.1230 Uani
H3DA H 0.2920 0.7433 0.4532 0.1470 Uiso
C6DA C 0.33936(15) 0.7665(3) 0.43274(14) 0.1403 Uani
C7DA C 0.36124(16) 0.7648(3) 0.46774(14) 0.1570 Uani
C8DA C 0.35470(18) 0.7820(3) 0.40054(16) 0.1670 Uani
H4DA H 0.3793 0.7919 0.4013 0.2000 Uiso
C9D C 0.4199(2) 0.7616(6) 0.5000 0.1960 Uani
C10DA C 0.39952(16) 0.7626(4) 0.46690(15) 0.1930 Uani
H5DA H 0.4122 0.7617 0.4436 0.2320 Uiso
C11D C 0.4612(2) 0.7606(7) 0.5000 0.2233 Uani
C12DA C 0.4813(6) 0.774(4) 0.4716(5) 0.2883 Uani
H6DA H 0.4685 0.7841 0.4506 0.3470 Uiso
O2CA O 0.75145(8) 0.75210(9) 0.67087(8) 0.0808 Uani
O4CA O 0.70683(8) 0.78780(8) 0.69532(8) 0.0803 Uani
C1CA C 0.72117(11) 0.76978(12) 0.66936(11) 0.0763 Uani
C2CA C 0.70091(13) 0.76878(17) 0.63354(13) 0.0940 Uani
C3CA C 0.71657(14) 0.7542(2) 0.60163(14) 0.1067 Uani
H1CA H 0.7413 0.7446 0.6023 0.1280 Uiso
C4CA C 0.66476(16) 0.7834(3) 0.63185(15) 0.1317 Uani
H2CA H 0.6538 0.7943 0.6534 0.1580 Uiso
C5CA C 0.69674(15) 0.7532(2) 0.56873(14) 0.1230 Uani
H3CA H 0.7080 0.7433 0.5468 0.1470 Uiso
C6CA C 0.66064(15) 0.7665(3) 0.56726(14) 0.1403 Uani
C7CA C 0.63876(16) 0.7648(3) 0.53226(14) 0.1570 Uani
C8CA C 0.64530(18) 0.7820(3) 0.59946(16) 0.1670 Uani
H4CA H 0.6207 0.7919 0.5987 0.2000 Uiso
C10CA C 0.60048(16) 0.7626(4) 0.53310(15) 0.1930 Uani
H5CA H 0.5878 0.7617 0.5564 0.2320 Uiso
C12CA C 0.5187(6) 0.774(4) 0.5284(5) 0.2883 Uani
H6CA H 0.5315 0.7841 0.5494 0.3470 Uiso
O2D O 0.24855(8) 0.75210(9) 0.67087(8) 0.0808 Uani
O4D O 0.29317(8) 0.78780(8) 0.69532(8) 0.0803 Uani
C1D C 0.27883(11) 0.76978(12) 0.66936(11) 0.0763 Uani
C2D C 0.29909(13) 0.76878(17) 0.63354(13) 0.0940 Uani
C3D C 0.28343(14) 0.7542(2) 0.60163(14) 0.1067 Uani
H1D H 0.2587 0.7446 0.6023 0.1280 Uiso
C4D C 0.33524(16) 0.7834(3) 0.63185(15) 0.1317 Uani
H2D H 0.3462 0.7943 0.6534 0.1580 Uiso
C5D C 0.30326(15) 0.7532(2) 0.56873(14) 0.1230 Uani
H3D H 0.2920 0.7433 0.5468 0.1470 Uiso
C6D C 0.33936(15) 0.7665(3) 0.56726(14) 0.1403 Uani
C7D C 0.36124(16) 0.7648(3) 0.53226(14) 0.1570 Uani
C8D C 0.35470(18) 0.7820(3) 0.59946(16) 0.1670 Uani
H4D H 0.3793 0.7919 0.5987 0.2000 Uiso
C10D C 0.39952(16) 0.7626(4) 0.53310(15) 0.1930 Uani
H5D H 0.4122 0.7617 0.5564 0.2320 Uiso
C12D C 0.4813(6) 0.774(4) 0.5284(5) 0.2883 Uani
H6D H 0.4685 0.7841 0.5494 0.3470 Uiso
Cr1J Cr 0.71250(2) 0.78750(2) 0.2500 0.0668 Uani
O3J O 0.67061(9) 0.82939(9) 0.2500 0.0858 Uani
Cr1Y Cr 0.7500 0.71250(2) 0.78750(2) 0.0668 Uani
O3Y O 0.7500 0.67061(9) 0.82939(9) 0.0858 Uani
Cr1Z Cr 0.7500 0.28750(2) 0.21250(2) 0.0668 Uani
O3Z O 0.7500 0.32939(9) 0.17061(9) 0.0858 Uani
Cr1BA Cr 0.78750(2) 0.2500 0.28750(2) 0.0668 Uani
O3BA O 0.82939(9) 0.2500 0.32939(9) 0.0858 Uani
O1Y O 0.7500 0.7500 0.7500 0.0662 Uani
Cr1C Cr 0.7500 0.28750(2) 0.78750(2) 0.0668 Uani
Cr1D Cr 0.21250(2) 0.7500 0.71250(2) 0.0668 Uani
Cr1E Cr 0.21250(2) 0.2500 0.28750(2) 0.0668 Uani
Cr1F Cr 0.78750(2) 0.2500 0.71250(2) 0.0668 Uani
Cr1H Cr 0.71250(2) 0.21250(2) 0.7500 0.0668 Uani
Cr1I Cr 0.28750(2) 0.21250(2) 0.2500 0.0668 Uani
Cr1K Cr 0.28750(2) 0.78750(2) 0.7500 0.0668 Uani
Cr1CA Cr 0.78750(2) 0.7500 0.71250(2) 0.0668 Uani
Cr1DA Cr 0.21250(2) 0.7500 0.28750(2) 0.0668 Uani
Cr1EA Cr 0.21250(2) 0.2500 0.71250(2) 0.0668 Uani
Cr1FA Cr 0.28750(2) 0.78750(2) 0.2500 0.0668 Uani
Cr1GA Cr 0.71250(2) 0.78750(2) 0.7500 0.0668 Uani
Cr1HA Cr 0.28750(2) 0.21250(2) 0.7500 0.0668 Uani
Cr1IA Cr 0.71250(2) 0.21250(2) 0.2500 0.0668 Uani
O1Z O 0.7500 0.2500 0.2500 0.0662 Uani
O2J O 0.67087(8) 0.75145(8) 0.24790(9) 0.0808 Uani
O2M O 0.82913(8) 0.74790(9) 0.25145(8) 0.0808 Uani
O2Q O 0.74790(9) 0.74855(8) 0.17087(8) 0.0808 Uani
O2U O 0.74855(8) 0.82913(8) 0.25210(9) 0.0808 Uani
O2LA O 0.82913(8) 0.25210(9) 0.25145(8) 0.0808 Uani
O2NA O 0.74790(9) 0.25145(8) 0.17087(8) 0.0808 Uani
O2QA O 0.74790(9) 0.74855(8) 0.82913(8) 0.0808 Uani
O4J O 0.69532(8) 0.70683(8) 0.21220(8) 0.0803 Uani
O4M O 0.80468(8) 0.71220(8) 0.20683(8) 0.0803 Uani
O4Q O 0.71220(8) 0.79317(8) 0.19532(8) 0.0803 Uani
O4U O 0.79317(8) 0.80468(8) 0.28780(8) 0.0803 Uani
O4GA O 0.69532(8) 0.70683(8) 0.78780(8) 0.0803 Uani
O4IA O 0.69532(8) 0.29317(8) 0.21220(8) 0.0803 Uani
O4JA O 0.80468(8) 0.71220(8) 0.79317(8) 0.0803 Uani
O4LA O 0.80468(8) 0.28780(8) 0.20683(8) 0.0803 Uani
O4UA O 0.79317(8) 0.19532(8) 0.28780(8) 0.0803 Uani
loop_
_atom_site_aniso_label
_atom_site_aniso_U_11
_atom_site_aniso_U_22
_atom_site_aniso_U_33
_atom_site_aniso_U_23
_atom_site_aniso_U_13
_atom_site_aniso_U_12
Cr1 0.0675(6) 0.0665(5) 0.0665(5) 0.0055(3) 0.0044(2) -0.0044(2)
O1 0.0662(13) 0.0662(13) 0.0662(13) 0.0050(12) 0.0050(12) -0.0050(12)
O2 0.0998(19) 0.0674(15) 0.0752(17) 0.0102(11) 0.0043(13) -0.0047(12)
O3 0.090(2) 0.0837(15) 0.0837(15) 0.0043(18) 0.0014(13) -0.0014(13)
O4 0.0912(18) 0.0684(16) 0.0814(17) 0.0108(12) -0.0037(12) -0.0015(12)
C1 0.090(3) 0.066(2) 0.073(2) 0.0067(16) 0.0093(19) 0.0045(18)
N1 0.304(12) 0.063(3) 0.071(3) 0.000 -0.014(5) 0.000
C2 0.137(4) 0.069(2) 0.076(2) 0.0010(18) 0.008(2) 0.004(2)
C3 0.171(5) 0.075(3) 0.074(3) 0.0041(19) -0.004(3) -0.005(3)
C4 0.240(8) 0.072(3) 0.083(3) 0.006(2) -0.028(4) -0.006(3)
C5 0.223(7) 0.066(3) 0.080(3) 0.002(2) -0.003(3) -0.011(3)
C6 0.280(10) 0.067(3) 0.074(3) -0.002(2) -0.004(4) 0.004(4)
C7 0.334(12) 0.060(3) 0.077(3) 0.002(2) -0.006(4) 0.002(4)
C8 0.345(13) 0.072(3) 0.084(3) 0.007(2) -0.046(5) -0.006(4)
C9 0.45(3) 0.061(4) 0.077(5) 0.000 -0.002(8) 0.000
C10 0.448(17) 0.057(3) 0.074(3) -0.003(2) -0.013(6) 0.001(5)
C11 0.54(3) 0.055(4) 0.075(5) 0.000 -0.003(9) 0.000
C12 0.73(15) 0.066(7) 0.069(6) 0.002(5) -0.02(2) -0.03(2)
O2Y 0.0998 0.0674 0.0752 -0.0102 -0.0043 -0.0047
O4Y 0.0912 0.0684 0.0814 -0.0108 0.0037 -0.0015
C1Y 0.09 0.066 0.073 -0.0067 -0.0093 0.0045
N1C 0.304 0.063 0.071 0 0.014 0
C2Y 0.137 0.069 0.076 -0.001 -0.008 0.004
C3Y 0.171 0.075 0.074 -0.0041 0.004 -0.005
C4Y 0.24 0.072 0.083 -0.006 0.028 -0.006
C5Y 0.223 0.066 0.08 -0.002 0.003 -0.011
C6Y 0.28 0.067 0.074 0.002 0.004 0.004
C7Y 0.334 0.06 0.077 -0.002 0.006 0.002
C8Y 0.345 0.072 0.084 -0.007 0.046 -0.006
C9C 0.45 0.061 0.077 0 0.002 0
C10Y 0.448 0.057 0.074 0.003 0.013 0.001
C11C 0.54 0.055 0.075 0 0.003 0
C12Y 0.73 0.066 0.069 -0.002 0.02 -0.03
O2Z 0.0998 0.0674 0.0752 -0.0102 0.0043 0.0047
O4Z 0.0912 0.0684 0.0814 -0.0108 -0.0037 0.0015
C1Z 0.09 0.066 0.073 -0.0067 0.0093 -0.0045
C2Z 0.137 0.069 0.076 -0.001 0.008 -0.004
C3Z 0.171 0.075 0.074 -0.0041 -0.004 0.005
C4Z 0.24 0.072 0.083 -0.006 -0.028 0.006
C5Z 0.223 0.066 0.08 -0.002 -0.003 0.011
C6Z 0.28 0.067 0.074 0.002 -0.004 -0.004
C7Z 0.334 0.06 0.077 -0.002 -0.006 -0.002
C8Z 0.345 0.072 0.084 -0.007 -0.046 0.006
C10Z 0.448 0.057 0.074 0.003 -0.013 -0.001
C12Z 0.73 0.066 0.069 -0.002 -0.02 0.03
O2C 0.0998 0.0674 0.0752 0.0102 -0.0043 0.0047
O4C 0.0912 0.0684 0.0814 0.0108 0.0037 0.0015
C1C 0.09 0.066 0.073 0.0067 -0.0093 -0.0045
C2C 0.137 0.069 0.076 0.001 -0.008 -0.004
C3C 0.171 0.075 0.074 0.0041 0.004 0.005
C4C 0.24 0.072 0.083 0.006 0.028 0.006
C5C 0.223 0.066 0.08 0.002 0.003 0.011
C6C 0.28 0.067 0.074 -0.002 0.004 -0.004
C7C 0.334 0.06 0.077 0.002 0.006 -0.002
C8C 0.345 0.072 0.084 0.007 0.046 0.006
C10C 0.448 0.057 0.074 -0.003 0.013 -0.001
C12C 0.73 0.066 0.069 0.002 0.02 0.03
O2F 0.0752 0.0998 0.0674 0.0047 -0.0102 0.0043
O4F 0.0814 0.0912 0.0684 0.0015 -0.0108 -0.0037
C1F 0.073 0.09 0.066 -0.0045 -0.0067 0.0093
N1F 0.071 0.304 0.063 0 0 -0.014
C2F 0.076 0.137 0.069 -0.004 -0.001 0.008
C3F 0.074 0.171 0.075 0.005 -0.0041 -0.004
C4F 0.083 0.24 0.072 0.006 -0.006 -0.028
C5F 0.08 0.223 0.066 0.011 -0.002 -0.003
C6F 0.074 0.28 0.067 -0.004 0.002 -0.004
C7F 0.077 0.334 0.06 -0.002 -0.002 -0.006
C8F 0.084 0.345 0.072 0.006 -0.007 -0.046
C9F 0.077 0.45 0.061 0 0 -0.002
C10F 0.074 0.448 0.057 -0.001 0.003 -0.013
C11F 0.075 0.54 0.055 0 0 -0.003
C12F 0.069 0.73 0.066 0.03 -0.002 -0.02
O2EA 0.0752 0.0998 0.0674 0.0047 0.0102 -0.0043
O4EA 0.0814 0.0912 0.0684 0.0015 0.0108 0.0037
C1EA 0.073 0.09 0.066 -0.0045 0.0067 -0.0093
N1E 0.071 0.304 0.063 0 0 0.014
C2EA 0.076 0.137 0.069 -0.004 0.001 -0.008
C3EA 0.074 0.171 0.075 0.005 0.0041 0.004
C4EA 0.083 0.24 0.072 0.006 0.006 0.028
C5EA 0.08 0.223 0.066 0.011 0.002 0.003
C6EA 0.074 0.28 0.067 -0.004 -0.002 0.004
C7EA 0.077 0.334 0.06 -0.002 0.002 0.006
C8EA 0.084 0.345 0.072 0.006 0.007 0.046
C9E 0.077 0.45 0.061 0 0 0.002
C10EA 0.074 0.448 0.057 -0.001 -0.003 0.013
C11E 0.075 0.54 0.055 0 0 0.003
C12EA 0.069 0.73 0.066 0.03 0.002 0.02
O2BA 0.0752 0.0998 0.0674 -0.0047 0.0102 0.0043
O4BA 0.0814 0.0912 0.0684 -0.0015 0.0108 -0.0037
C1BA 0.073 0.09 0.066 0.0045 0.0067 0.0093
C2BA 0.076 0.137 0.069 0.004 0.001 0.008
C3BA 0.074 0.171 0.075 -0.005 0.0041 -0.004
C4BA 0.083 0.24 0.072 -0.006 0.006 -0.028
C5BA 0.08 0.223 0.066 -0.011 0.002 -0.003
C6BA 0.074 0.28 0.067 0.004 -0.002 -0.004
C7BA 0.077 0.334 0.06 0.002 0.002 -0.006
C8BA 0.084 0.345 0.072 -0.006 0.007 -0.046
C10BA 0.074 0.448 0.057 0.001 -0.003 -0.013
C12BA 0.069 0.73 0.066 -0.03 0.002 -0.02
O2E 0.0752 0.0998 0.0674 -0.0047 -0.0102 -0.0043
O4E 0.0814 0.0912 0.0684 -0.0015 -0.0108 0.0037
C1E 0.073 0.09 0.066 0.0045 -0.0067 -0.0093
C2E 0.076 0.137 0.069 0.004 -0.001 -0.008
C3E 0.074 0.171 0.075 -0.005 -0.0041 0.004
C4E 0.083 0.24 0.072 -0.006 -0.006 0.028
C5E 0.08 0.223 0.066 -0.011 -0.002 0.003
C6E 0.074 0.28 0.067 0.004 0.002 0.004
C7E 0.077 0.334 0.06 0.002 -0.002 0.006
C8E 0.084 0.345 0.072 -0.006 -0.007 0.046
C10E 0.074 0.448 0.057 0.001 0.003 0.013
C12E 0.069 0.73 0.066 -0.03 -0.002 0.02
Cr1G 0.0665 0.0675 0.0665 0.0044 0.0055 -0.0044
O2G 0.0752 0.0998 0.0674 0.0047 0.0102 -0.0043
O3G 0.0837 0.09 0.0837 0.0014 0.0043 -0.0014
O4G 0.0814 0.0912 0.0684 0.0015 0.0108 0.0037
C1G 0.073 0.09 0.066 -0.0045 0.0067 -0.0093
N1G 0.071 0.304 0.063 0 0 0.014
C2G 0.076 0.137 0.069 -0.004 0.001 -0.008
C3G 0.074 0.171 0.075 0.005 0.0041 0.004
C4G 0.083 0.24 0.072 0.006 0.006 0.028
C5G 0.08 0.223 0.066 0.011 0.002 0.003
C6G 0.074 0.28 0.067 -0.004 -0.002 0.004
C7G 0.077 0.334 0.06 -0.002 0.002 0.006
C8G 0.084 0.345 0.072 0.006 0.007 0.046
C9G 0.077 0.45 0.061 0 0 0.002
C10G 0.074 0.448 0.057 -0.001 -0.003 0.013
C11G 0.075 0.54 0.055 0 0 0.003
C12G 0.069 0.73 0.066 0.03 0.002 0.02
O2DA 0.0752 0.0998 0.0674 0.0047 -0.0102 0.0043
O4DA 0.0814 0.0912 0.0684 0.0015 -0.0108 -0.0037
C1DA 0.073 0.09 0.066 -0.0045 -0.0067 0.0093
N1D 0.071 0.304 0.063 0 0 -0.014
C2DA 0.076 0.137 0.069 -0.004 -0.001 0.008
C3DA 0.074 0.171 0.075 0.005 -0.0041 -0.004
C4DA 0.083 0.24 0.072 0.006 -0.006 -0.028
C5DA 0.08 0.223 0.066 0.011 -0.002 -0.003
C6DA 0.074 0.28 0.067 -0.004 0.002 -0.004
C7DA 0.077 0.334 0.06 -0.002 -0.002 -0.006
C8DA 0.084 0.345 0.072 0.006 -0.007 -0.046
C9D 0.077 0.45 0.061 0 0 -0.002
C10DA 0.074 0.448 0.057 -0.001 0.003 -0.013
C11D 0.075 0.54 0.055 0 0 -0.003
C12DA 0.069 0.73 0.066 0.03 -0.002 -0.02
O2CA 0.0752 0.0998 0.0674 -0.0047 -0.0102 -0.0043
O4CA 0.0814 0.0912 0.0684 -0.0015 -0.0108 0.0037
C1CA 0.073 0.09 0.066 0.0045 -0.0067 -0.0093
C2CA 0.076 0.137 0.069 0.004 -0.001 -0.008
C3CA 0.074 0.171 0.075 -0.005 -0.0041 0.004
C4CA 0.083 0.24 0.072 -0.006 -0.006 0.028
C5CA 0.08 0.223 0.066 -0.011 -0.002 0.003
C6CA 0.074 0.28 0.067 0.004 0.002 0.004
C7CA 0.077 0.334 0.06 0.002 -0.002 0.006
C8CA 0.084 0.345 0.072 -0.006 -0.007 0.046
C10CA 0.074 0.448 0.057 0.001 0.003 0.013
C12CA 0.069 0.73 0.066 -0.03 -0.002 0.02
O2D 0.0752 0.0998 0.0674 -0.0047 0.0102 0.0043
O4D 0.0814 0.0912 0.0684 -0.0015 0.0108 -0.0037
C1D 0.073 0.09 0.066 0.0045 0.0067 0.0093
C2D 0.076 0.137 0.069 0.004 0.001 0.008
C3D 0.074 0.171 0.075 -0.005 0.0041 -0.004
C4D 0.083 0.24 0.072 -0.006 0.006 -0.028
C5D 0.08 0.223 0.066 -0.011 0.002 -0.003
C6D 0.074 0.28 0.067 0.004 -0.002 -0.004
C7D 0.077 0.334 0.06 0.002 0.002 -0.006
C8D 0.084 0.345 0.072 -0.006 0.007 -0.046
C10D 0.074 0.448 0.057 0.001 -0.003 -0.013
C12D 0.069 0.73 0.066 -0.03 0.002 -0.02
Cr1J 0.0665 0.0665 0.0675 0.0044 0.0044 -0.0055
O3J 0.0837 0.0837 0.09 0.0014 0.0014 -0.0043
Cr1Y 0.0675 0.0665 0.0665 -0.0055 -0.0044 -0.0044
O3Y 0.09 0.0837 0.0837 -0.0043 -0.0014 -0.0014
Cr1Z 0.0675 0.0665 0.0665 -0.0055 0.0044 0.0044
O3Z 0.09 0.0837 0.0837 -0.0043 0.0014 0.0014
Cr1BA 0.0665 0.0675 0.0665 -0.0044 0.0055 0.0044
O3BA 0.0837 0.09 0.0837 -0.0014 0.0043 0.0014
O1Y 0.0662 0.0662 0.0662 -0.005 -0.005 -0.005
Cr1C 0.0675 0.0665 0.0665 0.0055 -0.0044 0.0044
Cr1D 0.0665 0.0675 0.0665 -0.0044 0.0055 0.0044
Cr1E 0.0665 0.0675 0.0665 -0.0044 -0.0055 -0.0044
Cr1F 0.0665 0.0675 0.0665 0.0044 -0.0055 0.0044
Cr1H 0.0665 0.0665 0.0675 0.0044 -0.0044 0.0055
Cr1I 0.0665 0.0665 0.0675 -0.0044 -0.0044 -0.0055
Cr1K 0.0665 0.0665 0.0675 -0.0044 0.0044 0.0055
Cr1CA 0.0665 0.0675 0.0665 -0.0044 -0.0055 -0.0044
Cr1DA 0.0665 0.0675 0.0665 0.0044 -0.0055 0.0044
Cr1EA 0.0665 0.0675 0.0665 0.0044 0.0055 -0.0044
Cr1FA 0.0665 0.0665 0.0675 0.0044 -0.0044 0.0055
Cr1GA 0.0665 0.0665 0.0675 -0.0044 -0.0044 -0.0055
Cr1HA 0.0665 0.0665 0.0675 0.0044 0.0044 -0.0055
Cr1IA 0.0665 0.0665 0.0675 -0.0044 0.0044 0.0055
O1Z 0.0662 0.0662 0.0662 -0.005 0.005 0.005
O2J 0.0674 0.0752 0.0998 0.0043 0.0047 -0.0102
O2M 0.0674 0.0998 0.0752 0.0043 0.0102 -0.0047
O2Q 0.0998 0.0752 0.0674 0.0102 0.0047 -0.0043
O2U 0.0752 0.0674 0.0998 0.0047 0.0043 -0.0102
O2LA 0.0674 0.0998 0.0752 -0.0043 0.0102 0.0047
O2NA 0.0998 0.0752 0.0674 -0.0102 0.0047 0.0043
O2QA 0.0998 0.0752 0.0674 -0.0102 -0.0047 -0.0043
O4J 0.0684 0.0814 0.0912 -0.0037 0.0015 -0.0108
O4M 0.0684 0.0912 0.0814 -0.0037 0.0108 -0.0015
O4Q 0.0912 0.0814 0.0684 0.0108 0.0015 0.0037
O4U 0.0814 0.0684 0.0912 0.0015 -0.0037 -0.0108
O4GA 0.0684 0.0814 0.0912 0.0037 -0.0015 -0.0108
O4IA 0.0684 0.0814 0.0912 0.0037 0.0015 0.0108
O4JA 0.0684 0.0912 0.0814 0.0037 -0.0108 -0.0015
O4LA 0.0684 0.0912 0.0814 0.0037 0.0108 0.0015
O4UA 0.0814 0.0684 0.0912 -0.0015 -0.0037 0.0108
loop_
_geom_bond_atom_site_label_1
_geom_bond_atom_site_label_2
_geom_bond_site_symmetry_1
_geom_bond_site_symmetry_2
Cr1 O1 1_555 1_555
O1 Cr1G 1_555 1_555
O2 Cr1 1_555 1_555
O3 Cr1 1_555 1_555
O4 C1 1_555 1_555
C1 O2 1_555 1_555
N1 C7 1_555 1_555
C2 C1 1_555 1_555
C3 C2 1_555 1_555
H1 C3 1_555 1_555
C4 C2 1_555 1_555
H2 C4 1_555 1_555
C5 C3 1_555 1_555
H3 C5 1_555 1_555
C6 C5 1_555 1_555
C7 C6 1_555 1_555
C8 C4 1_555 1_555
H4 C8 1_555 1_555
C9 C10 1_555 1_555
C10 C7 1_555 1_555
H5 C10 1_555 1_555
C11 C9 1_555 1_555
C12 C11 1_555 1_555
H6 C12 1_555 1_555
O2Y C1Y 1_555 1_555
O4Y C1Y 1_555 1_555
C1Y C2Y 1_555 1_555
N1C C7Y 1_555 1_555
C2Y C3Y 1_555 1_555
C3Y H1Y 1_555 1_555
C4Y C2Y 1_555 1_555
H2Y C4Y 1_555 1_555
C5Y C3Y 1_555 1_555
H3Y C5Y 1_555 1_555
C6Y C5Y 1_555 1_555
C7Y C6Y 1_555 1_555
C8Y C4Y 1_555 1_555
H4Y C8Y 1_555 1_555
C9C C10Y 1_555 1_555
C10Y C7Y 1_555 1_555
H5Y C10Y 1_555 1_555
C11C C9C 1_555 1_555
C12Y C12 1_555 1_555
H6Y C12Y 1_555 1_555
O2Z C1Z 1_555 1_555
O4Z C1Z 1_555 1_555
C1Z C2Z 1_555 1_555
C2Z C3Z 1_555 1_555
C3Z H1Z 1_555 1_555
C4Z C2Z 1_555 1_555
H2Z C4Z 1_555 1_555
C5Z C3Z 1_555 1_555
H3Z C5Z 1_555 1_555
C6Z C5Z 1_555 1_555
C7Z N1 1_555 1_555
C8Z C4Z 1_555 1_555
H4Z C8Z 1_555 1_555
C10Z C9 1_555 1_555
H5Z C10Z 1_555 1_555
C12Z C11 1_555 1_555
H6Z C12Z 1_555 1_555
O2C C1C 1_555 1_555
O4C C1C 1_555 1_555
C1C C2C 1_555 1_555
C2C C3C 1_555 1_555
C3C H1C 1_555 1_555
C4C C2C 1_555 1_555
H2C C4C 1_555 1_555
C5C C3C 1_555 1_555
H3C C5C 1_555 1_555
C6C C5C 1_555 1_555
C7C N1C 1_555 1_555
C8C C4C 1_555 1_555
H4C C8C 1_555 1_555
C10C C9C 1_555 1_555
H5C C10C 1_555 1_555
C12C C11C 1_555 1_555
H6C C12C 1_555 1_555
O2F C1F 1_555 1_555
O4F C1F 1_555 1_555
C1F C2F 1_555 1_555
N1F C7F 1_555 1_555
C2F C3F 1_555 1_555
C3F H1F 1_555 1_555
C4F C2F 1_555 1_555
H2F C4F 1_555 1_555
C5F C3F 1_555 1_555
H3F C5F 1_555 1_555
C6F C5F 1_555 1_555
C7F C6F 1_555 1_555
C8F C4F 1_555 1_555
H4F C8F 1_555 1_555
C9F C10F 1_555 1_555
C10F C7F 1_555 1_555
H5F C10F 1_555 1_555
C11F C9F 1_555 1_555
C12F C11F 1_555 1_555
H6F C12F 1_555 1_555
O2EA C1EA 1_555 1_555
O4EA C1EA 1_555 1_555
C1EA C2EA 1_555 1_555
N1E C7EA 1_555 1_555
C2EA C3EA 1_555 1_555
C3EA H1EA 1_555 1_555
C4EA C2EA 1_555 1_555
H2EA C4EA 1_555 1_555
C5EA C3EA 1_555 1_555
H3EA C5EA 1_555 1_555
C6EA C5EA 1_555 1_555
C7EA C6EA 1_555 1_555
C8EA C4EA 1_555 1_555
H4EA C8EA 1_555 1_555
C9E C10EA 1_555 1_555
C10EA C7EA 1_555 1_555
H5EA C10EA 1_555 1_555
C11E C9E 1_555 1_555
C12EA C12F 1_555 1_555
H6EA C12EA 1_555 1_555
O2BA C1BA 1_555 1_555
O4BA C1BA 1_555 1_555
C1BA C2BA 1_555 1_555
C2BA C3BA 1_555 1_555
C3BA H1BA 1_555 1_555
C4BA C2BA 1_555 1_555
H2BA C4BA 1_555 1_555
C5BA C3BA 1_555 1_555
H3BA C5BA 1_555 1_555
C6BA C5BA 1_555 1_555
C7BA N1F 1_555 1_555
C8BA C4BA 1_555 1_555
H4BA C8BA 1_555 1_555
C10BA C9F 1_555 1_555
H5BA C10BA 1_555 1_555
C12BA C11F 1_555 1_555
H6BA C12BA 1_555 1_555
O2E C1E 1_555 1_555
O4E C1E 1_555 1_555
C1E C2E 1_555 1_555
C2E C3E 1_555 1_555
C3E H1E 1_555 1_555
C4E C2E 1_555 1_555
H2E C4E 1_555 1_555
C5E C3E 1_555 1_555
H3E C5E 1_555 1_555
C6E C5E 1_555 1_555
C7E N1E 1_555 1_555
C8E C4E 1_555 1_555
H4E C8E 1_555 1_555
C10E C9E 1_555 1_555
H5E C10E 1_555 1_555
C12E C11E 1_555 1_555
H6E C12E 1_555 1_555
Cr1G O4 1_555 1_555
O2G Cr1G 1_555 1_555
O3G Cr1G 1_555 1_555
O4G C1G 1_555 1_555
C1G O2G 1_555 1_555
N1G C7G 1_555 1_555
C2G C1G 1_555 1_555
C3G C2G 1_555 1_555
H1G C3G 1_555 1_555
C4G C2G 1_555 1_555
H2G C4G 1_555 1_555
C5G C3G 1_555 1_555
H3G C5G 1_555 1_555
C6G C5G 1_555 1_555
C7G C6G 1_555 1_555
C8G C4G 1_555 1_555
H4G C8G 1_555 1_555
C9G C10G 1_555 1_555
C10G C7G 1_555 1_555
H5G C10G 1_555 1_555
C11G C9G 1_555 1_555
C12G C11G 1_555 1_555
H6G C12G 1_555 1_555
O2DA C1DA 1_555 1_555
O4DA C1DA 1_555 1_555
C1DA C2DA 1_555 1_555
N1D C7DA 1_555 1_555
C2DA C3DA 1_555 1_555
C3DA H1DA 1_555 1_555
C4DA C2DA 1_555 1_555
H2DA C4DA 1_555 1_555
C5DA C3DA 1_555 1_555
H3DA C5DA 1_555 1_555
C6DA C5DA 1_555 1_555
C7DA C6DA 1_555 1_555
C8DA C4DA 1_555 1_555
H4DA C8DA 1_555 1_555
C9D C10DA 1_555 1_555
C10DA C7DA 1_555 1_555
H5DA C10DA 1_555 1_555
C11D C9D 1_555 1_555
C12DA C12G 1_555 1_555
H6DA C12DA 1_555 1_555
O2CA C1CA 1_555 1_555
O4CA C1CA 1_555 1_555
C1CA C2CA 1_555 1_555
C2CA C3CA 1_555 1_555
C3CA H1CA 1_555 1_555
C4CA C2CA 1_555 1_555
H2CA C4CA 1_555 1_555
C5CA C3CA 1_555 1_555
H3CA C5CA 1_555 1_555
C6CA C5CA 1_555 1_555
C7CA N1G 1_555 1_555
C8CA C4CA 1_555 1_555
H4CA C8CA 1_555 1_555
C10CA C9G 1_555 1_555
H5CA C10CA 1_555 1_555
C12CA C11G 1_555 1_555
H6CA C12CA 1_555 1_555
O2D C1D 1_555 1_555
O4D C1D 1_555 1_555
C1D C2D 1_555 1_555
C2D C3D 1_555 1_555
C3D H1D 1_555 1_555
C4D C2D 1_555 1_555
H2D C4D 1_555 1_555
C5D C3D 1_555 1_555
H3D C5D 1_555 1_555
C6D C5D 1_555 1_555
C7D N1D 1_555 1_555
C8D C4D 1_555 1_555
H4D C8D 1_555 1_555
C10D C9D 1_555 1_555
H5D C10D 1_555 1_555
C12D C11D 1_555 1_555
H6D C12D 1_555 1_555
Cr1J O1 1_555 1_555
O3J Cr1J 1_555 1_555
Cr1Y O2Y 1_555 1_555
O3Y Cr1Y 1_555 1_555
Cr1Z O2Z 1_555 1_555
O3Z Cr1Z 1_555 1_555
Cr1BA O4Z 1_555 1_555
O3BA Cr1BA 1_555 1_555
O1Y Cr1Y 1_555 1_555
Cr1C O2C 1_555 1_555
Cr1D O2D 1_555 1_555
Cr1E O2E 1_555 1_555
Cr1F O4C 1_555 1_555
Cr1H O4F 1_555 1_555
Cr1I O4E 1_555 1_555
Cr1K O4D 1_555 1_555
Cr1CA O4Y 1_555 1_555
Cr1DA O2DA 1_555 1_555
Cr1EA O2EA 1_555 1_555
Cr1FA O4DA 1_555 1_555
Cr1GA O4CA 1_555 1_555
Cr1HA O4EA 1_555 1_555
Cr1IA O4BA 1_555 1_555
O1Z Cr1Z 1_555 1_555
O2J Cr1J 1_555 1_555
O2M Cr1G 1_555 1_555
O2Q Cr1 1_555 1_555
O2U Cr1J 1_555 1_555
O2LA Cr1BA 1_555 1_555
O2NA Cr1Z 1_555 1_555
O2QA Cr1Y 1_555 1_555
O4J Cr1 1_555 1_555
O4M Cr1 1_555 1_555
O4Q Cr1J 1_555 1_555
O4U Cr1G 1_555 1_555
O4GA Cr1Y 1_555 1_555
O4IA Cr1Z 1_555 1_555
O4JA Cr1Y 1_555 1_555
O4LA Cr1Z 1_555 1_555
O4UA Cr1BA 1_555 1_555
C6 C8 1_555 1_555
C6Y C8Y 1_555 1_555
C11C C12Y 1_555 1_555
C6Z C7Z 1_555 1_555
C6Z C8Z 1_555 1_555
C7Z C10Z 1_555 1_555
C12Z C12C 1_555 1_555
C6C C7C 1_555 1_555
C6C C8C 1_555 1_555
C7C C10C 1_555 1_555
O2F Cr1F 1_555 1_555
C6F C8F 1_555 1_555
C6EA C8EA 1_555 1_555
C11E C12EA 1_555 1_555
O2BA Cr1BA 1_555 1_555
C6BA C7BA 1_555 1_555
C6BA C8BA 1_555 1_555
C7BA C10BA 1_555 1_555
C12BA C12E 1_555 1_555
C6E C7E 1_555 1_555
C6E C8E 1_555 1_555
C7E C10E 1_555 1_555
O4G Cr1J 1_555 1_555
C6G C8G 1_555 1_555
C6DA C8DA 1_555 1_555
C11D C12DA 1_555 1_555
O2CA Cr1CA 1_555 1_555
C6CA C7CA 1_555 1_555
C6CA C8CA 1_555 1_555
C7CA C10CA 1_555 1_555
C12CA C12D 1_555 1_555
C6D C7D 1_555 1_555
C6D C8D 1_555 1_555
C7D C10D 1_555 1_555
Cr1BA O1Z 1_555 1_555
O1Y Cr1CA 1_555 1_555
O1Y Cr1GA 1_555 1_555
Cr1IA O1Z 1_555 1_555

#END
