
#######################################################################
#
#                 Cambridge Crystallographic Data Centre
#                                CCDC 
#
#######################################################################
#
# If this CIF has been generated from an entry in the Cambridge 
# Structural Database, then it will include bibliographic, chemical, 
# crystal, experimental, refinement or atomic coordinate data resulting 
# from the CCDC's data processing and validation procedures.
#
#######################################################################

data_AWEWOP
_chemical_formula_moiety         'C54 H17 Cu8 N3 O26'
_symmetry_cell_setting           monoclinic
_symmetry_space_group_name_H-M   'C 2/m'
_symmetry_Int_Tables_number      12
_space_group_name_Hall           '-C 2y'
loop_
_symmetry_equiv_pos_site_id
_symmetry_equiv_pos_as_xyz
1 x,y,z
2 -x,y,-z
3 1/2+x,1/2+y,z
4 1/2-x,1/2+y,-z
5 -x,-y,-z
6 x,-y,z
7 1/2-x,1/2-y,-z
8 1/2+x,1/2-y,z
_cell_length_a                   23.941(5)
_cell_length_b                   18.794(4)
_cell_length_c                   19.897(4)
_cell_angle_alpha                90
_cell_angle_beta                 124.96(3)
_cell_angle_gamma                90
_cell_volume                     7337.12
loop_
_atom_site_label
_atom_site_type_symbol
_atom_site_fract_x
_atom_site_fract_y
_atom_site_fract_z
_atom_site_U_iso_or_equiv
_atom_site_thermal_displace_type
Cu1 Cu 1.06717(9) 0.5000 1.04234(10) 0.0424 Uani
Cu2 Cu 0.71663(6) 0.71518(6) 0.52459(7) 0.0450 Uani
C1 C 0.8591(6) 0.7277(6) 0.6357(7) 0.0535 Uani
N1 N 1.1098(6) 0.7249(5) 0.8057(7) 0.0682 Uani
O1 O 1.0493(3) 0.5710(3) 0.9631(4) 0.0412 Uani
C2 C 0.9270(6) 0.7104(6) 0.7152(7) 0.0618 Uani
O2 O 0.9368(4) 0.5715(3) 0.8881(4) 0.0486 Uani
C3 C 0.9287(5) 0.6657(5) 0.7746(6) 0.0435 Uani
H1 H 0.8875 0.6487 0.7652 0.0520 Uiso
O3 O 0.8062(3) 0.7017(4) 0.6273(4) 0.0501 Uani
C4 C 0.9914(6) 0.6473(6) 0.8465(6) 0.0567 Uani
O4 O 0.8605(4) 0.7608(4) 0.5826(4) 0.0592 Uani
C5 C 0.9934(7) 0.5947(6) 0.9061(7) 0.0557 Uani
O5 O 1.0902(7) 0.6785(8) 0.6857(9) 0.1729 Uani
C6 C 1.0504(6) 0.6707(7) 0.8566(7) 0.0796 Uani
H2 H 1.0929 0.6599 0.9064 0.0950 Uiso
O6 O 1.1606(7) 0.7887(7) 0.9259(8) 0.1643 Uani
C7 C 1.0502(7) 0.7085(7) 0.7983(8) 0.0756 Uani
C8 C 0.9880(7) 0.7303(7) 0.7267(8) 0.0942 Uani
H3 H 0.9876 0.7582 0.6867 0.1130 Uiso
C9 C 1.1261(9) 0.7138(12) 0.7522(13) 0.1330 Uani
C10 C 1.1934(7) 0.7411(7) 0.7814(10) 0.0969 Uani
C11 C 1.2335(9) 0.7396(9) 0.7502(9) 0.1483 Uani
H4 H 1.2194 0.7152 0.7010 0.1780 Uiso
C12 C 1.2955(9) 0.7765(11) 0.7968(11) 0.1667 Uani
H5 H 1.3235 0.7776 0.7773 0.2000 Uiso
C13 C 1.3184(8) 0.8118(10) 0.8699(10) 0.1541 Uani
H6 H 1.3615 0.8348 0.9010 0.1850 Uiso
C14 C 1.2746(8) 0.8115(9) 0.8952(9) 0.1455 Uani
H7 H 1.2882 0.8371 0.9435 0.1750 Uiso
C15 C 1.2113(7) 0.7755(8) 0.8534(9) 0.0979 Uani
C16 C 1.1601(8) 0.7679(11) 0.8683(12) 0.1229 Uani
C17 C 0.7324(5) 0.8665(6) 0.5513(6) 0.0489 Uani
N2 N 0.6046(7) 1.0000 0.6369(8) 0.0619 Uani
O7 O 0.7095(3) 0.8090(3) 0.5614(4) 0.0526 Uani
C18 C 0.7348(7) 1.0000 0.5565(8) 0.0529 Uani
H8 H 0.7625 1.0000 0.5365 0.0630 Uiso
O8 O 0.7645(3) 0.8690(3) 0.5174(4) 0.0505 Uani
C19 C 0.7134(6) 0.9351(6) 0.5719(6) 0.0543 Uani
C20 C 0.6738(5) 0.9344(6) 0.5998(6) 0.0584 Uani
H9 H 0.6613 0.8905 0.6112 0.0700 Uiso
C21 C 0.6508(8) 1.0000 0.6121(9) 0.0576 Uani
C22 C 0.5452(10) 1.0000 0.6936(14) 0.0808 Uani
C23 C 0.4627(12) 1.0000 0.7189(14) 0.0884 Uani
C24 C 0.6092(11) 0.9763(12) 0.7032(12) 0.0860 Uiso
C25 C 0.5289(12) 0.9754(9) 0.7469(13) 0.1010 Uiso
C26 C 0.4186(12) 1.0337(12) 0.6475(15) 0.0948 Uani
C27 C 0.4443(12) 1.0586(12) 0.6044(15) 0.0670 Uani
C28 C 0.5045(13) 1.0374(11) 0.6246(13) 0.0657 Uani
C29 C 0.5456(11) 1.0428(11) 0.5919(13) 0.0706 Uani
O9 O 0.6571(5) 0.6640(5) 0.5614(5) 0.1070 Uiso
O10 O 1.1760(6) 0.5000 1.0937(8) 0.1039 Uani
C17E C 0.7324(5) 1.1335(6) 0.5513(6) 0.0489 Uani
O7E O 0.7095(3) 1.1910(3) 0.5614(4) 0.0526 Uani
O8E O 0.7645(3) 1.1310(3) 0.5174(4) 0.0505 Uani
C19E C 0.7134(6) 1.0649(6) 0.5719(6) 0.0543 Uani
C20E C 0.6738(5) 1.0656(6) 0.5998(6) 0.0584 Uani
H9E H 0.6613 1.1095 0.6112 0.0700 Uiso
C24E C 0.6092(11) 1.0237(12) 0.7032(12) 0.0860 Uiso
C25E C 0.5289(12) 1.0246(9) 0.7469(13) 0.1010 Uiso
C26E C 0.4186(12) 0.9663(12) 0.6475(15) 0.0948 Uani
C27E C 0.4443(12) 0.9414(12) 0.6044(15) 0.0670 Uani
C28E C 0.5045(13) 0.9626(11) 0.6246(13) 0.0657 Uani
C29E C 0.5456(11) 0.9572(11) 0.5919(13) 0.0706 Uani
Cu2A Cu 1.28337(6) 0.71518(6) 1.47541(7) 0.0450 Uani
C1A C 1.1409(6) 0.7277(6) 1.3643(7) 0.0535 Uani
N1A N 0.8902(6) 0.7249(5) 1.1943(7) 0.0682 Uani
O1A O 0.9507(3) 0.5710(3) 1.0369(4) 0.0412 Uani
C2A C 1.0730(6) 0.7104(6) 1.2848(7) 0.0618 Uani
O2A O 1.0632(4) 0.5715(3) 1.1119(4) 0.0486 Uani
C3A C 1.0713(5) 0.6657(5) 1.2254(6) 0.0435 Uani
H1A H 1.1125 0.6487 1.2348 0.0520 Uiso
O3A O 1.1938(3) 0.7017(4) 1.3727(4) 0.0501 Uani
C4A C 1.0086(6) 0.6473(6) 1.1535(6) 0.0567 Uani
O4A O 1.1395(4) 0.7608(4) 1.4174(4) 0.0592 Uani
C5A C 1.0066(7) 0.5947(6) 1.0939(7) 0.0557 Uani
O5A O 0.9098(7) 0.6785(8) 1.3143(9) 0.1729 Uani
C6A C 0.9496(6) 0.6707(7) 1.1434(7) 0.0796 Uani
H2A H 0.9071 0.6599 1.0936 0.0950 Uiso
O6A O 0.8394(7) 0.7887(7) 1.0741(8) 0.1643 Uani
C7A C 0.9498(7) 0.7085(7) 1.2017(8) 0.0756 Uani
C8A C 1.0120(7) 0.7303(7) 1.2733(8) 0.0942 Uani
H3A H 1.0124 0.7582 1.3133 0.1130 Uiso
C9A C 0.8739(9) 0.7138(12) 1.2478(13) 0.1330 Uani
C10A C 0.8066(7) 0.7411(7) 1.2186(10) 0.0969 Uani
C11A C 0.7665(9) 0.7396(9) 1.2498(9) 0.1483 Uani
H4A H 0.7806 0.7152 1.2990 0.1780 Uiso
C12A C 0.7045(9) 0.7765(11) 1.2032(11) 0.1667 Uani
H5A H 0.6765 0.7776 1.2227 0.2000 Uiso
C13A C 0.6816(8) 0.8118(10) 1.1301(10) 0.1541 Uani
H6A H 0.6385 0.8348 1.0990 0.1850 Uiso
C14A C 0.7254(8) 0.8115(9) 1.1048(9) 0.1455 Uani
H7A H 0.7118 0.8371 1.0565 0.1750 Uiso
C15A C 0.7887(7) 0.7755(8) 1.1466(9) 0.0979 Uani
C16A C 0.8399(8) 0.7679(11) 1.1317(12) 0.1229 Uani
O9A O 1.3429(5) 0.6640(5) 1.4386(5) 0.1070 Uiso
Cu1A Cu 0.93283(9) 0.5000 0.95766(10) 0.0424 Uani
Cu2C Cu 0.78337(6) 1.21518(6) 0.47541(7) 0.0450 Uani
Cu2E Cu 0.71663(6) 1.28482(6) 0.52459(7) 0.0450 Uani
Cu2F Cu 0.78337(6) 0.78482(6) 0.47541(7) 0.0450 Uani
Cu2G Cu 1.21663(6) 0.78482(6) 1.52459(7) 0.0450 Uani
O1E O 1.0493(3) 0.4290(3) 0.9631(4) 0.0412 Uani
O2D O 1.0632(4) 0.4285(3) 1.1119(4) 0.0486 Uani
O4F O 0.6395(4) 0.7392(4) 0.4174(4) 0.0592 Uani
O4G O 1.3605(4) 0.7392(4) 1.5826(4) 0.0592 Uani
O7A O 1.2905(3) 0.8090(3) 1.4386(4) 0.0526 Uani
O8F O 0.7355(3) 0.6310(3) 0.4826(4) 0.0505 Uani
O8G O 1.2645(3) 0.6310(3) 1.5174(4) 0.0505 Uani
loop_
_atom_site_aniso_label
_atom_site_aniso_U_11
_atom_site_aniso_U_22
_atom_site_aniso_U_33
_atom_site_aniso_U_23
_atom_site_aniso_U_13
_atom_site_aniso_U_12
Cu1 0.0481(12) 0.0443(12) 0.0339(11) 0.000 0.0230(10) 0.000
Cu2 0.0489 0.0342 0.0415 0.0092 0.0198 0.0046
C1 0.055(9) 0.040(8) 0.058(9) -0.002(6) 0.028(8) 0.020(6)
N1 0.090(9) 0.064(7) 0.056(7) 0.009(6) 0.045(8) -0.008(6)
O1 0.041(4) 0.054(4) 0.015(3) 0.020(3) 0.008(3) 0.020(3)
C2 0.065(9) 0.057(8) 0.059(8) 0.014(7) 0.033(8) 0.007(7)
O2 0.041(5) 0.057(5) 0.045(5) 0.008(4) 0.023(4) 0.002(4)
C3 0.044(7) 0.042(7) 0.044(7) -0.004(6) 0.025(7) -0.005(5)
O3 0.039(5) 0.059(5) 0.035(4) 0.022(4) 0.011(4) 0.015(4)
C4 0.036(8) 0.073(9) 0.043(8) 0.014(6) 0.012(7) 0.007(6)
O4 0.075(6) 0.067(6) 0.044(5) 0.037(4) 0.039(5) 0.033(4)
C5 0.074(10) 0.059(9) 0.041(8) -0.003(7) 0.037(8) 0.003(8)
O5 0.134(12) 0.215(15) 0.149(12) -0.048(11) 0.069(10) -0.063(10)
C6 0.039(8) 0.112(11) 0.053(8) 0.023(8) 0.006(7) -0.014(7)
O6 0.193(14) 0.173(13) 0.125(11) -0.031(9) 0.090(11) -0.036(10)
C7 0.059(9) 0.087(10) 0.075(10) 0.038(8) 0.035(9) -0.014(8)
C8 0.078(11) 0.095(12) 0.079(11) 0.027(8) 0.027(10) -0.008(8)
C9 0.082(14) 0.17(2) 0.112(16) 0.031(15) 0.035(14) -0.014(13)
C10 0.111(14) 0.064(10) 0.134(15) -0.006(10) 0.081(13) -0.029(9)
C11 0.135(17) 0.20(2) 0.128(15) -0.011(13) 0.086(15) -0.046(14)
C12 0.157(11) 0.187(12) 0.177(11) -0.005(9) 0.108(9) -0.025(8)
C13 0.122(15) 0.23(2) 0.128(16) -0.042(14) 0.082(14) -0.084(14)
C14 0.148(19) 0.152(18) 0.136(16) -0.032(13) 0.081(16) -0.024(14)
C15 0.093(13) 0.082(12) 0.095(13) 0.007(10) 0.040(11) -0.022(9)
C16 0.075(12) 0.182(19) 0.126(16) -0.038(15) 0.066(13) -0.054(12)
C17 0.044 0.058 0.034 0 0.016 -0.001
N2 0.059 0.062 0.047 0 0.02 0
O7 0.071 0.03 0.071 0.003 0.049 -0.006
C18 0.05 0.051 0.043 0 0.018 0
O8 0.062 0.03 0.046 0.001 0.023 -0.001
C19 0.06 0.042 0.059 -0.003 0.033 0.002
C20 0.051 0.05 0.064 0.005 0.027 -0.001
C21 0.057 0.069 0.047 0 0.03 0
C22 0.092 0.079 0.122 0 0.091 0
C23 0.108 0.079 0.118 0 0.088 0
C26 0.049 0.08 0.11 -0.05 0.019 -0.005
C27 0.053 0.082 0.075 0.018 0.042 0.029
C28 0.08 0.064 0.045 -0.008 0.031 -0.003
C29 0.07 0.082 0.055 0.005 0.033 -0.001
O10 0.063(7) 0.064(7) 0.124(8) 0.000 0.018(6) 0.000
C17E 0.044 0.058 0.034 0 0.016 0.001
O7E 0.071 0.03 0.071 -0.003 0.049 0.006
O8E 0.062 0.03 0.046 -0.001 0.023 0.001
C19E 0.06 0.042 0.059 0.003 0.033 -0.002
C20E 0.051 0.05 0.064 -0.005 0.027 0.001
C26E 0.049 0.08 0.11 0.05 0.019 0.005
C27E 0.053 0.082 0.075 -0.018 0.042 -0.029
C28E 0.08 0.064 0.045 0.008 0.031 0.003
C29E 0.07 0.082 0.055 -0.005 0.033 0.001
Cu2A 0.0489 0.0342 0.0415 -0.0092 0.0198 -0.0046
C1A 0.055 0.04 0.058 0.002 0.028 -0.02
N1A 0.09 0.064 0.056 -0.009 0.045 0.008
O1A 0.041 0.054 0.015 -0.02 0.008 -0.02
C2A 0.065 0.057 0.059 -0.014 0.033 -0.007
O2A 0.041 0.057 0.045 -0.008 0.023 -0.002
C3A 0.044 0.042 0.044 0.004 0.025 0.005
O3A 0.039 0.059 0.035 -0.022 0.011 -0.015
C4A 0.036 0.073 0.043 -0.014 0.012 -0.007
O4A 0.075 0.067 0.044 -0.037 0.039 -0.033
C5A 0.074 0.059 0.041 0.003 0.037 -0.003
O5A 0.134 0.215 0.149 0.048 0.069 0.063
C6A 0.039 0.112 0.053 -0.023 0.006 0.014
O6A 0.193 0.173 0.125 0.031 0.09 0.036
C7A 0.059 0.087 0.075 -0.038 0.035 0.014
C8A 0.078 0.095 0.079 -0.027 0.027 0.008
C9A 0.082 0.17 0.112 -0.031 0.035 0.014
C10A 0.111 0.064 0.134 0.006 0.081 0.029
C11A 0.135 0.2 0.128 0.011 0.086 0.046
C12A 0.157 0.187 0.177 0.005 0.108 0.025
C13A 0.122 0.23 0.128 0.042 0.082 0.084
C14A 0.148 0.152 0.136 0.032 0.081 0.024
C15A 0.093 0.082 0.095 -0.007 0.04 0.022
C16A 0.075 0.182 0.126 0.038 0.066 0.054
Cu1A 0.0481 0.0443 0.0339 0 0.023 0
Cu2C 0.0489 0.0342 0.0415 -0.0092 0.0198 -0.0046
Cu2E 0.0489 0.0342 0.0415 -0.0092 0.0198 -0.0046
Cu2F 0.0489 0.0342 0.0415 0.0092 0.0198 0.0046
Cu2G 0.0489 0.0342 0.0415 -0.0092 0.0198 -0.0046
O1E 0.041 0.054 0.015 -0.02 0.008 -0.02
O2D 0.041 0.057 0.045 0.008 0.023 0.002
O4F 0.075 0.067 0.044 0.037 0.039 0.033
O4G 0.075 0.067 0.044 -0.037 0.039 -0.033
O7A 0.071 0.03 0.071 -0.003 0.049 0.006
O8F 0.062 0.03 0.046 0.001 0.023 -0.001
O8G 0.062 0.03 0.046 -0.001 0.023 0.001
loop_
_geom_bond_atom_site_label_1
_geom_bond_atom_site_label_2
_geom_bond_site_symmetry_1
_geom_bond_site_symmetry_2
Cu1 O1 1_555 1_555
Cu2 O3 1_555 1_555
C1 C2 1_555 1_555
N1 C7 1_555 1_555
O1 C5 1_555 1_555
C2 C3 1_555 1_555
O2 C5 1_555 1_555
C3 H1 1_555 1_555
O3 C1 1_555 1_555
C4 C3 1_555 1_555
O4 C1 1_555 1_555
C5 C4 1_555 1_555
O5 C9 1_555 1_555
C6 C4 1_555 1_555
H2 C6 1_555 1_555
O6 C16 1_555 1_555
C7 C6 1_555 1_555
C8 C2 1_555 1_555
H3 C8 1_555 1_555
C9 N1 1_555 1_555
C10 C9 1_555 1_555
C11 C10 1_555 1_555
H4 C11 1_555 1_555
C12 C11 1_555 1_555
H5 C12 1_555 1_555
C13 C12 1_555 1_555
H6 C13 1_555 1_555
C14 C13 1_555 1_555
H7 C14 1_555 1_555
C15 C10 1_555 1_555
C16 N1 1_555 1_555
C17 O7 1_555 1_555
N2 C21 1_555 1_555
O7 Cu2 1_555 1_555
C18 H8 1_555 1_555
O8 C17 1_555 1_555
C19 C17 1_555 1_555
C20 C19 1_555 1_555
H9 C20 1_555 1_555
C21 C20 1_555 1_555
C22 C24 1_555 1_555
C23 C25 1_555 1_555
C24 N2 1_555 1_555
C25 C22 1_555 1_555
C26 C23 1_555 1_555
C27 C26 1_555 1_555
C28 C22 1_555 1_555
C29 N2 1_555 1_555
O9 Cu2 1_555 1_555
O10 Cu1 1_555 1_555
C17E O7E 1_555 1_555
O7E Cu2E 1_555 1_555
O8E C17E 1_555 1_555
C19E C18 1_555 1_555
C20E C21 1_555 1_555
H9E C20E 1_555 1_555
C24E N2 1_555 1_555
C25E C22 1_555 1_555
C26E C23 1_555 1_555
C27E C26E 1_555 1_555
C28E C22 1_555 1_555
C29E N2 1_555 1_555
Cu2A O3A 1_555 1_555
C1A C2A 1_555 1_555
N1A C7A 1_555 1_555
O1A C5A 1_555 1_555
C2A C3A 1_555 1_555
O2A Cu1 1_555 1_555
C3A H1A 1_555 1_555
O3A C1A 1_555 1_555
C4A C3A 1_555 1_555
O4A C1A 1_555 1_555
C5A O2A 1_555 1_555
O5A C9A 1_555 1_555
C6A C4A 1_555 1_555
H2A C6A 1_555 1_555
O6A C16A 1_555 1_555
C7A C6A 1_555 1_555
C8A C2A 1_555 1_555
H3A C8A 1_555 1_555
C9A N1A 1_555 1_555
C10A C9A 1_555 1_555
C11A C10A 1_555 1_555
H4A C11A 1_555 1_555
C12A C11A 1_555 1_555
H5A C12A 1_555 1_555
C13A C12A 1_555 1_555
H6A C13A 1_555 1_555
C14A C13A 1_555 1_555
H7A C14A 1_555 1_555
C15A C10A 1_555 1_555
C16A N1A 1_555 1_555
O9A Cu2A 1_555 1_555
Cu1A O2 1_555 1_555
Cu2C O8E 1_555 1_555
Cu2F O4 1_555 1_555
Cu2G O4A 1_555 1_555
O1E Cu1 1_555 1_555
O2D Cu1 1_555 1_555
O4F Cu2 1_555 1_555
O4G Cu2A 1_555 1_555
O7A Cu2A 1_555 1_555
O8F Cu2 1_555 1_555
O8G Cu2A 1_555 1_555
C7 C8 1_555 1_555
C14 C15 1_555 1_555
C15 C16 1_555 1_555
C18 C19 1_555 1_555
O8 Cu2F 1_555 1_555
C22 C24E 1_555 1_555
C23 C25E 1_555 1_555
C24 C24E 1_555 1_555
C25 C25E 1_555 1_555
C26 C26E 1_555 1_555
C27 C28 1_555 1_555
C28 C29 1_555 1_555
C28 C28E 1_555 1_555
C29 C29E 1_555 1_555
C17E C19E 1_555 1_555
C19E C20E 1_555 1_555
C27E C28E 1_555 1_555
C28E C29E 1_555 1_555
O1A Cu1A 1_555 1_555
C4A C5A 1_555 1_555
C7A C8A 1_555 1_555
C14A C15A 1_555 1_555
C15A C16A 1_555 1_555

#END
