
#######################################################################
#
#                 Cambridge Crystallographic Data Centre
#                                CCDC 
#
#######################################################################
#
# If this CIF has been generated from an entry in the Cambridge 
# Structural Database, then it will include bibliographic, chemical, 
# crystal, experimental, refinement or atomic coordinate data resulting 
# from the CCDC's data processing and validation procedures.
#
#######################################################################

data_LAGBUS
_chemical_formula_moiety         '(C54 H27 Ag3 F9 Fe1 N6 O15 S3)n'
_symmetry_cell_setting           trigonal
_symmetry_space_group_name_H-M   'P -3'
_symmetry_Int_Tables_number      147
_space_group_name_Hall           '-P 3'
loop_
_symmetry_equiv_pos_site_id
_symmetry_equiv_pos_as_xyz
1 x,y,z
2 -y,x-y,z
3 -x+y,-x,z
4 -x,-y,-z
5 y,-x+y,-z
6 x-y,x,-z
_cell_length_a                   15.2169(10)
_cell_length_b                   15.2169(10)
_cell_length_c                   16.738(2)
_cell_angle_alpha                90
_cell_angle_beta                 90
_cell_angle_gamma                120
_cell_volume                     3356.5
loop_
_atom_site_label
_atom_site_type_symbol
_atom_site_fract_x
_atom_site_fract_y
_atom_site_fract_z
C1 C 0.8723(4) 0.4904(4) 0.6300(3)
C2 C 0.9160(5) 0.4919(5) 0.7030(4)
H1 H 0.9801 0.5463 0.7144
C3 C 0.8671(5) 0.4140(5) 0.7614(3)
C4 C 0.9209(5) 0.4110(5) 0.8337(4)
C5 C 0.8636(6) 0.3497(6) 0.8958(5)
H2 H 0.7933 0.3127 0.8915
C6 C 1.0273(6) 0.4642(8) 0.8394(5)
H3 H 1.0661 0.5036 0.7967
C7 C 0.9108(7) 0.3431(7) 0.9649(5)
H4 H 0.8729 0.3024 1.0074
C8 C 1.0744(6) 0.4586(7) 0.9070(5)
H5 H 1.1447 0.4946 0.9112
C9 C 1.0154(6) 0.3984(6) 0.9686(4)
C10 C 1.0643(7) 0.3909(7) 1.0412(5)
C11 C 0.9328(5) 0.5588(5) 0.5637(4)
C12 C 0.8936(5) 0.5369(6) 0.4879(4)
H6 H 0.8301 0.4802 0.4795
C13 C 1.0267(6) 0.6458(6) 0.5771(4)
H7 H 1.0518 0.6633 0.6289
C14 C 0.9470(6) 0.5976(6) 0.4233(4)
H8 H 0.9198 0.5821 0.3721
C15 C 1.0824(7) 0.7059(8) 0.5136(5)
H9 H 1.1465 0.7620 0.5217
C16 C 1.0406(6) 0.6809(6) 0.4370(4)
C17 C 1.0969(6) 0.7456(6) 0.3709(4)
N1 N 1.1429(5) 0.7951(6) 0.3178(4)
N2 N 1.1024(6) 0.3870(7) 1.0984(4)
O1 O 0.7795(3) 0.4296(3) 0.6132(2)
O2 O 0.7756(3) 0.3426(3) 0.7547(2)
C18 C 1.2110(9) 1.1246(13) 0.1731(9)
O3 O 1.3920(14) 1.1578(14) 0.1397(8)
O4 O 1.3102(16) 1.0546(9) 0.2512(10)
O5 O 1.3740(15) 1.2291(9) 0.2586(9)
F1 F 1.1678(14) 1.0418(11) 0.1276(10)
F2 F 1.1477(14) 1.1098(12) 0.2330(8)
F3 F 1.2161(13) 1.2006(11) 0.1294(9)
S1 S 1.3318(4) 1.1432(2) 0.20748(19)
Fe1 Fe 0.6667 0.3333 0.68260(7)
Ag1 Ag 1.24088(8) 0.87393(6) 0.22159(5)
C1A C 0.5096(4) 0.3819(6) 0.6300(3)
C1B C 0.6181(6) 0.1277(4) 0.6300(3)
C2A C 0.5081(5) 0.4241(7) 0.7030(4)
C2B C 0.5759(7) 0.0840(5) 0.7030(4)
H1A H 0.4537 0.4338 0.7144
H1B H 0.5662 0.0199 0.7144
C3A C 0.5860(5) 0.4531(7) 0.7614(3)
C3B C 0.5469(7) 0.1329(5) 0.7614(3)
C4A C 0.5890(5) 0.5099(7) 0.8337(4)
C4B C 0.4901(7) 0.0791(5) 0.8337(4)
C5A C 0.6503(6) 0.5139(8) 0.8958(5)
C5B C 0.4861(8) 0.1364(6) 0.8958(5)
H2A H 0.6873 0.4806 0.8915
H2B H 0.5194 0.2067 0.8915
C6A C 0.5358(8) 0.5631(10) 0.8394(5)
C6B C 0.4369(10) -0.0273(6) 0.8394(5)
H3A H 0.4964 0.5625 0.7967
H3B H 0.4375 -0.0661 0.7967
C7A C 0.6569(7) 0.5677(10) 0.9649(5)
C7B C 0.4323(10) 0.0892(7) 0.9649(5)
H4A H 0.6976 0.5705 1.0074
H4B H 0.4295 0.1271 1.0074
C8A C 0.5414(7) 0.6158(9) 0.9070(5)
C8B C 0.3842(9) -0.0744(6) 0.9070(5)
H5A H 0.5054 0.6501 0.9112
H5B H 0.3499 -0.1447 0.9112
C9A C 0.6016(6) 0.6170(8) 0.9686(4)
C9B C 0.3830(8) -0.0154(6) 0.9686(4)
C10A C 0.6091(7) 0.6734(10) 1.0412(5)
C10B C 0.3266(10) -0.0643(7) 1.0412(5)
C11A C 0.4412(5) 0.3740(7) 0.5637(4)
C11B C 0.6260(7) 0.0672(5) 0.5637(4)
C12A C 0.4631(6) 0.3567(8) 0.4879(4)
C12B C 0.6433(8) 0.1064(5) 0.4879(4)
H6A H 0.5198 0.3499 0.4795
H6B H 0.6501 0.1699 0.4795
C13A C 0.3542(6) 0.3809(8) 0.5771(4)
C13B C 0.6191(8) -0.0267(6) 0.5771(4)
H7A H 0.3367 0.3885 0.6289
H7B H 0.6115 -0.0518 0.6289
C14A C 0.4024(6) 0.3494(8) 0.4233(4)
C14B C 0.6506(8) 0.0530(6) 0.4233(4)
H8A H 0.4179 0.3377 0.3721
H8B H 0.6623 0.0802 0.3721
C15A C 0.2941(8) 0.3765(11) 0.5136(5)
C15B C 0.6235(11) -0.0824(7) 0.5136(5)
H9A H 0.2380 0.3845 0.5217
H9B H 0.6155 -0.1465 0.5217
C16A C 0.3191(6) 0.3597(8) 0.4370(4)
C16B C 0.6403(8) -0.0406(6) 0.4370(4)
C17A C 0.2544(6) 0.3513(8) 0.3709(4)
C17B C 0.6487(8) -0.0969(6) 0.3709(4)
N1A N 0.2049(6) 0.3478(8) 0.3178(4)
N1B N 0.6522(8) -0.1429(5) 0.3178(4)
N2A N 0.6130(7) 0.7154(9) 1.0984(4)
N2B N 0.2846(9) -0.1024(6) 1.0984(4)
N2_2 N 0.1024(6) 0.3870(7) 0.0984(4)
N2A_2 N 0.6130(7) -0.2846(9) 0.0984(4)
N2B_2 N 1.2846(9) 0.8976(6) 0.0984(4)
O1A O 0.5704(3) 0.3499(4) 0.6132(2)
O1B O 0.6501(4) 0.2205(3) 0.6132(2)
O2A O 0.6574(3) 0.4330(4) 0.7547(2)
O2B O 0.5670(4) 0.2244(3) 0.7547(2)
C18A C -0.1246(13) 0.0864(16) 0.1731(9)
C18B C 0.9136(16) -0.2110(9) 0.1731(9)
O3A O -0.1578(14) 0.2342(20) 0.1397(8)
O3B O 0.7658(20) -0.3920(14) 0.1397(8)
O4A O -0.0546(9) 0.2556(18) 0.2512(10)
O4B O 0.7444(18) -0.3102(16) 0.2512(10)
O5A O -0.2291(9) 0.1449(17) 0.2586(9)
O5B O 0.8551(17) -0.3740(15) 0.2586(9)
F1A F -0.0418(11) 0.1260(18) 0.1276(10)
F1B F 0.8740(18) -0.1678(14) 0.1276(10)
F2A F -0.1098(12) 0.0379(18) 0.2330(8)
F2B F 0.9621(18) -0.1477(14) 0.2330(8)
F3A F -0.2006(11) 0.0155(17) 0.1294(9)
F3B F 0.9845(17) -0.2161(13) 0.1294(9)
S1A S -0.1432(2) 0.1886(4) 0.20748(19)
S1B S 0.8114(4) -0.3318(4) 0.20748(19)
Ag1A Ag 0.12607(6) 0.36695(10) 0.22159(5)
Ag1B Ag 0.63305(10) -0.24088(8) 0.22159(5)
Ag1_2 Ag 0.24088(8) -0.12607(6) 1.22159(5)
Ag1A_2 Ag 1.12607(6) 0.36695(10) 1.22159(5)
Ag1B_2 Ag 0.63305(10) 0.75912(8) 1.22159(5)
loop_
_geom_bond_atom_site_label_1
_geom_bond_atom_site_label_2
_geom_bond_site_symmetry_1
_geom_bond_site_symmetry_2
C1 C2 1_555 1_555
C2 H1 1_555 1_555
C3 C2 1_555 1_555
C4 C3 1_555 1_555
C5 C4 1_555 1_555
H2 C5 1_555 1_555
C6 C4 1_555 1_555
H3 C6 1_555 1_555
C7 C5 1_555 1_555
H4 C7 1_555 1_555
C8 C6 1_555 1_555
H5 C8 1_555 1_555
C9 C7 1_555 1_555
C10 C9 1_555 1_555
C11 C1 1_555 1_555
C12 C11 1_555 1_555
H6 C12 1_555 1_555
C13 C11 1_555 1_555
H7 C13 1_555 1_555
C14 C12 1_555 1_555
H8 C14 1_555 1_555
C15 C13 1_555 1_555
H9 C15 1_555 1_555
C16 C14 1_555 1_555
C17 C16 1_555 1_555
N1 C17 1_555 1_555
N2 C10 1_555 1_555
O1 C1 1_555 1_555
O2 C3 1_555 1_555
C18 F1 1_555 1_555
O3 S1 1_555 1_555
O4 S1 1_555 1_555
O5 S1 1_555 1_555
F2 C18 1_555 1_555
F3 C18 1_555 1_555
S1 C18 1_555 1_555
Fe1 O1 1_555 1_555
Ag1 N1 1_555 1_555
C1A C2A 1_555 1_555
C1B C2B 1_555 1_555
C2A H1A 1_555 1_555
C2B H1B 1_555 1_555
C3A C2A 1_555 1_555
C3B C2B 1_555 1_555
C4A C3A 1_555 1_555
C4B C3B 1_555 1_555
C5A C4A 1_555 1_555
C5B C4B 1_555 1_555
H2A C5A 1_555 1_555
H2B C5B 1_555 1_555
C6A C4A 1_555 1_555
C6B C4B 1_555 1_555
H3A C6A 1_555 1_555
H3B C6B 1_555 1_555
C7A C5A 1_555 1_555
C7B C5B 1_555 1_555
H4A C7A 1_555 1_555
H4B C7B 1_555 1_555
C8A C6A 1_555 1_555
C8B C6B 1_555 1_555
H5A C8A 1_555 1_555
H5B C8B 1_555 1_555
C9A C7A 1_555 1_555
C9B C7B 1_555 1_555
C10A C9A 1_555 1_555
C10B C9B 1_555 1_555
C11A C1A 1_555 1_555
C11B C1B 1_555 1_555
C12A C11A 1_555 1_555
C12B C11B 1_555 1_555
H6A C12A 1_555 1_555
H6B C12B 1_555 1_555
C13A C11A 1_555 1_555
C13B C11B 1_555 1_555
H7A C13A 1_555 1_555
H7B C13B 1_555 1_555
C14A C12A 1_555 1_555
C14B C12B 1_555 1_555
H8A C14A 1_555 1_555
H8B C14B 1_555 1_555
C15A C13A 1_555 1_555
C15B C13B 1_555 1_555
H9A C15A 1_555 1_555
H9B C15B 1_555 1_555
C16A C14A 1_555 1_555
C16B C14B 1_555 1_555
C17A C16A 1_555 1_555
C17B C16B 1_555 1_555
N1A C17A 1_555 1_555
N1B C17B 1_555 1_555
N2A C10A 1_555 1_555
N2B C10B 1_555 1_555
N2_2 Ag1A 1_555 1_555
N2A_2 Ag1B 1_555 1_555
N2B_2 Ag1 1_555 1_555
O1A Fe1 1_555 1_555
O1B Fe1 1_555 1_555
O2A Fe1 1_555 1_555
O2B Fe1 1_555 1_555
C18A F1A 1_555 1_555
C18B F1B 1_555 1_555
O3A S1A 1_555 1_555
O3B S1B 1_555 1_555
O4A S1A 1_555 1_555
O4B S1B 1_555 1_555
O5A S1A 1_555 1_555
O5B S1B 1_555 1_555
F2A C18A 1_555 1_555
F2B C18B 1_555 1_555
F3A C18A 1_555 1_555
F3B C18B 1_555 1_555
S1A C18A 1_555 1_555
S1B C18B 1_555 1_555
Ag1A N1A 1_555 1_555
Ag1B N1B 1_555 1_555
Ag1_2 N2B 1_555 1_555
Ag1A_2 N2 1_555 1_555
Ag1B_2 N2A 1_555 1_555
C8 C9 1_555 1_555
C15 C16 1_555 1_555
O2 Fe1 1_555 1_555
O4 Ag1 1_555 1_555
C1A O1A 1_555 1_555
C1B O1B 1_555 1_555
C3A O2A 1_555 1_555
C3B O2B 1_555 1_555
C8A C9A 1_555 1_555
C8B C9B 1_555 1_555
C15A C16A 1_555 1_555
C15B C16B 1_555 1_555
O4A Ag1A 1_555 1_555
O4B Ag1B 1_555 1_555

#END
