
#######################################################################
#
#                 Cambridge Crystallographic Data Centre
#                                CCDC 
#
#######################################################################
#
# If this CIF has been generated from an entry in the Cambridge 
# Structural Database, then it will include bibliographic, chemical, 
# crystal, experimental, refinement or atomic coordinate data resulting 
# from the CCDC's data processing and validation procedures.
#
#######################################################################

data_LAGCAZ
_chemical_formula_moiety         '(C51 H27 Ag3 Fe1 N6 O6 3+)n'
_symmetry_cell_setting           trigonal
_symmetry_space_group_name_H-M   'P -3'
_symmetry_Int_Tables_number      147
_space_group_name_Hall           '-P 3'
loop_
_symmetry_equiv_pos_site_id
_symmetry_equiv_pos_as_xyz
1 x,y,z
2 -y,x-y,z
3 -x+y,-x,z
4 -x,-y,-z
5 y,-x+y,-z
6 x-y,x,-z
_cell_length_a                   14.6201(7)
_cell_length_b                   14.6201(7)
_cell_length_c                   17.0459(16)
_cell_angle_alpha                90
_cell_angle_beta                 90
_cell_angle_gamma                120
_cell_volume                     3155.38
loop_
_atom_site_label
_atom_site_type_symbol
_atom_site_fract_x
_atom_site_fract_y
_atom_site_fract_z
C1 C 0.3765(4) 0.5008(4) 0.1386(3)
C2 C 0.4271(5) 0.4974(5) 0.2067(3)
H1 H 0.4447 0.4447 0.2123
C3 C 0.4525(4) 0.5719(5) 0.2676(3)
C4 C 0.5121(5) 0.5741(5) 0.3370(3)
C5 C 0.5667(5) 0.5172(6) 0.3435(3)
H2 H 0.5629 0.4726 0.3031
C6 C 0.5139(5) 0.6342(6) 0.4005(3)
H3 H 0.4742 0.6678 0.3986
C7 C 0.6259(6) 0.5278(6) 0.4101(4)
H4 H 0.6627 0.4913 0.4141
C8 C 0.5736(6) 0.6453(6) 0.4668(4)
H5 H 0.5756 0.6875 0.5084
C9 C 0.6299(5) 0.5926(6) 0.4699(3)
C10 C 0.6942(6) 0.6098(7) 0.5384(4)
C11 C 0.3691(4) 0.4338(5) 0.0699(3)
C12 C 0.3667(7) 0.3377(6) 0.0793(4)
H6 H 0.3713 0.3133 0.1288
C13 C 0.3627(4) 0.4700(5) -0.0043(3)
H7 H 0.3634 0.5337 -0.0097
C14 C 0.3571(7) 0.2794(6) 0.0115(4)
H8 H 0.3548 0.2149 0.0156
C15 C 0.3553(5) 0.4116(5) -0.0692(3)
H9 H 0.3532 0.4364 -0.1190
C16 C 0.3511(5) 0.3169(5) -0.0602(3)
C17 C 0.3419(6) 0.2544(6) -0.1309(4)
N1 N 0.7421(5) 0.6258(6) 0.5956(3)
N2 N 0.3343(5) 0.2082(5) -0.1837(4)
O1 O 0.4271(3) 0.6430(3) 0.2667(2)
O2 O 0.3404(3) 0.5617(3) 0.1267(2)
Fe1 Fe 0.3333 0.6667 0.19615(7)
Ag1 Ag 0.83881(7) 0.69259(7) 0.69784(4)
C1A C 0.4992(4) 0.8757(6) 0.1386(3)
C1B C 0.1243(6) 0.6235(4) 0.1386(3)
C2A C 0.5026(5) 0.9297(7) 0.2067(3)
C2B C 0.0703(7) 0.5729(5) 0.2067(3)
H1A H 0.5553 1.0000 0.2123
H1B H -0.0000 0.5553 0.2123
C3A C 0.4281(5) 0.8806(6) 0.2676(3)
C3B C 0.1194(6) 0.5475(4) 0.2676(3)
C4A C 0.4259(5) 0.9380(7) 0.3370(3)
C4B C 0.0620(7) 0.4879(5) 0.3370(3)
C5A C 0.4828(6) 1.0495(8) 0.3435(3)
C5B C -0.0495(8) 0.4333(5) 0.3435(3)
H2A H 0.5274 1.0903 0.3031
H2B H -0.0903 0.4371 0.3031
C6A C 0.3658(6) 0.8797(8) 0.4005(3)
C6B C 0.1203(8) 0.4861(5) 0.4005(3)
H3A H 0.3322 0.8064 0.3986
H3B H 0.1936 0.5258 0.3986
C7A C 0.4722(6) 1.0981(8) 0.4101(4)
C7B C -0.0981(8) 0.3741(6) 0.4101(4)
H4A H 0.5087 1.1714 0.4141
H4B H -0.1714 0.3373 0.4141
C8A C 0.3547(6) 0.9283(8) 0.4668(4)
C8B C 0.0717(8) 0.4264(6) 0.4668(4)
H5A H 0.3125 0.8881 0.5084
H5B H 0.1119 0.4244 0.5084
C9A C 0.4074(6) 1.0373(8) 0.4699(3)
C9B C -0.0373(8) 0.3701(5) 0.4699(3)
C10A C 0.3902(7) 1.0844(9) 0.5384(4)
C10B C -0.0844(9) 0.3058(6) 0.5384(4)
C11A C 0.5662(5) 0.9353(6) 0.0699(3)
C11B C 0.0647(6) 0.6309(4) 0.0699(3)
C12A C 0.6623(6) 1.0290(9) 0.0793(4)
C12B C -0.0290(9) 0.6333(7) 0.0793(4)
H6A H 0.6867 1.0580 0.1288
H6B H -0.0580 0.6287 0.1288
C13A C 0.5300(5) 0.8927(6) -0.0043(3)
C13B C 0.1073(6) 0.6373(4) -0.0043(3)
H7A H 0.4663 0.8297 -0.0097
H7B H 0.1703 0.6366 -0.0097
C14A C 0.7206(6) 1.0777(9) 0.0115(4)
C14B C -0.0777(9) 0.6429(7) 0.0115(4)
H8A H 0.7851 1.1399 0.0156
H8B H -0.1399 0.6452 0.0156
C15A C 0.5884(5) 0.9437(7) -0.0692(3)
C15B C 0.0563(7) 0.6447(5) -0.0692(3)
H9A H 0.5636 0.9168 -0.1190
H9B H 0.0832 0.6468 -0.1190
C16A C 0.6831(5) 1.0342(7) -0.0602(3)
C16B C -0.0342(7) 0.6489(5) -0.0602(3)
C17A C 0.7456(6) 1.0875(8) -0.1309(4)
C17B C -0.0875(8) 0.6581(6) -0.1309(4)
N1A N 0.3742(6) 1.1163(8) 0.5956(3)
N1B N -0.1163(8) 0.2579(5) 0.5956(3)
N2A N 0.7918(5) 1.1261(7) -0.1837(4)
N2B N -0.1261(7) 0.6657(5) -0.1837(4)
N2B_2 N 0.8739(7) 0.6657(5) 0.8163(4)
N2_2 N 0.3343(5) 1.2082(5) 0.8163(4)
N2A_2 N -0.2082(5) 0.1261(7) 0.8163(4)
O1A O 0.3570(3) 0.7841(4) 0.2667(2)
O1B O 0.2159(4) 0.5729(3) 0.2667(2)
O2A O 0.4383(3) 0.7787(4) 0.1267(2)
O2B O 0.2213(4) 0.6596(3) 0.1267(2)
Ag1A Ag 0.30741(7) 1.14622(10) 0.69784(4)
Ag1B Ag -0.14622(10) 0.16119(7) 0.69784(4)
Ag1A_2 Ag 0.30741(7) 0.14622(10) -0.30216(4)
Ag1B_2 Ag 0.85378(10) 1.16119(7) -0.30216(4)
Ag1_2 Ag -0.16119(7) 0.69259(7) -0.30216(4)
loop_
_geom_bond_atom_site_label_1
_geom_bond_atom_site_label_2
_geom_bond_site_symmetry_1
_geom_bond_site_symmetry_2
C1 C2 1_555 1_555
C2 H1 1_555 1_555
C3 C2 1_555 1_555
C4 C3 1_555 1_555
C5 C4 1_555 1_555
H2 C5 1_555 1_555
C6 C4 1_555 1_555
H3 C6 1_555 1_555
C7 C5 1_555 1_555
H4 C7 1_555 1_555
C8 C6 1_555 1_555
H5 C8 1_555 1_555
C9 C7 1_555 1_555
C10 C9 1_555 1_555
C11 C1 1_555 1_555
C12 C11 1_555 1_555
H6 C12 1_555 1_555
C13 C11 1_555 1_555
H7 C13 1_555 1_555
C14 C12 1_555 1_555
H8 C14 1_555 1_555
C15 C13 1_555 1_555
H9 C15 1_555 1_555
C16 C14 1_555 1_555
C17 C16 1_555 1_555
N1 C10 1_555 1_555
N2 C17 1_555 1_555
O1 C3 1_555 1_555
O2 C1 1_555 1_555
Fe1 O1 1_555 1_555
Ag1 N1 1_555 1_555
C1A C2A 1_555 1_555
C1B C2B 1_555 1_555
C2A H1A 1_555 1_555
C2B H1B 1_555 1_555
C3A C2A 1_555 1_555
C3B C2B 1_555 1_555
C4A C3A 1_555 1_555
C4B C3B 1_555 1_555
C5A C4A 1_555 1_555
C5B C4B 1_555 1_555
H2A C5A 1_555 1_555
H2B C5B 1_555 1_555
C6A C4A 1_555 1_555
C6B C4B 1_555 1_555
H3A C6A 1_555 1_555
H3B C6B 1_555 1_555
C7A C5A 1_555 1_555
C7B C5B 1_555 1_555
H4A C7A 1_555 1_555
H4B C7B 1_555 1_555
C8A C6A 1_555 1_555
C8B C6B 1_555 1_555
H5A C8A 1_555 1_555
H5B C8B 1_555 1_555
C9A C7A 1_555 1_555
C9B C7B 1_555 1_555
C10A C9A 1_555 1_555
C10B C9B 1_555 1_555
C11A C1A 1_555 1_555
C11B C1B 1_555 1_555
C12A C11A 1_555 1_555
C12B C11B 1_555 1_555
H6A C12A 1_555 1_555
H6B C12B 1_555 1_555
C13A C11A 1_555 1_555
C13B C11B 1_555 1_555
H7A C13A 1_555 1_555
H7B C13B 1_555 1_555
C14A C12A 1_555 1_555
C14B C12B 1_555 1_555
H8A C14A 1_555 1_555
H8B C14B 1_555 1_555
C15A C13A 1_555 1_555
C15B C13B 1_555 1_555
H9A C15A 1_555 1_555
H9B C15B 1_555 1_555
C16A C14A 1_555 1_555
C16B C14B 1_555 1_555
C17A C16A 1_555 1_555
C17B C16B 1_555 1_555
N1A C10A 1_555 1_555
N1B C10B 1_555 1_555
N2A C17A 1_555 1_555
N2B C17B 1_555 1_555
N2B_2 Ag1 1_555 1_555
N2_2 Ag1A 1_555 1_555
N2A_2 Ag1B 1_555 1_555
O1A Fe1 1_555 1_555
O1B Fe1 1_555 1_555
O2A Fe1 1_555 1_555
O2B Fe1 1_555 1_555
Ag1A N1A 1_555 1_555
Ag1B N1B 1_555 1_555
Ag1A_2 N2 1_555 1_555
Ag1B_2 N2A 1_555 1_555
Ag1_2 N2B 1_555 1_555
C8 C9 1_555 1_555
C15 C16 1_555 1_555
O2 Fe1 1_555 1_555
C1A O2A 1_555 1_555
C1B O2B 1_555 1_555
C3A O1A 1_555 1_555
C3B O1B 1_555 1_555
C8A C9A 1_555 1_555
C8B C9B 1_555 1_555
C15A C16A 1_555 1_555
C15B C16B 1_555 1_555

#END
