
#######################################################################
#
#                 Cambridge Crystallographic Data Centre
#                                CCDC 
#
#######################################################################
#
# If this CIF has been generated from an entry in the Cambridge 
# Structural Database, then it will include bibliographic, chemical, 
# crystal, experimental, refinement or atomic coordinate data resulting 
# from the CCDC's data processing and validation procedures.
#
#######################################################################

data_LAGCUT
_chemical_formula_moiety         '(C51 H27 Ag3 N6 O6 Zn1 2+)n'
_symmetry_cell_setting           trigonal
_symmetry_space_group_name_H-M   'P -3'
_symmetry_Int_Tables_number      147
_space_group_name_Hall           '-P 3'
loop_
_symmetry_equiv_pos_site_id
_symmetry_equiv_pos_as_xyz
1 x,y,z
2 -y,x-y,z
3 -x+y,-x,z
4 -x,-y,-z
5 y,-x+y,-z
6 x-y,x,-z
_cell_length_a                   15.649(6)
_cell_length_b                   15.649(6)
_cell_length_c                   16.472(8)
_cell_angle_alpha                90
_cell_angle_beta                 90
_cell_angle_gamma                120
_cell_volume                     3493.41
loop_
_atom_site_label
_atom_site_type_symbol
_atom_site_fract_x
_atom_site_fract_y
_atom_site_fract_z
C1 C 0.5213(6) 0.1347(6) 0.6237(4)
C2 C 0.5215(7) 0.0938(6) 0.7023(4)
H1 H 0.4688 0.0320 0.7156
C3 C 0.5950(6) 0.1410(6) 0.7583(4)
C4 C 0.5986(7) 0.0857(6) 0.8313(4)
C5 C 0.6489(6) 0.1394(7) 0.9009(4)
H2 H 0.6812 0.2080 0.9007
C6 C 0.6499(7) 0.0876(7) 0.9715(5)
H3 H 0.6811 0.1222 1.0185
C7 C 0.6061(7) -0.0105(7) 0.9703(5)
C8 C 0.5621(10) -0.0619(8) 0.9032(6)
H4 H 0.5353 -0.1300 0.9020
C9 C 0.5571(8) -0.0133(7) 0.8370(5)
H5 H 0.5227 -0.0509 0.7921
C10 C 0.6053(7) -0.0577(8) 1.0446(5)
C11 C 0.4450(7) 0.0630(7) 0.5604(5)
C12 C 0.4523(8) 0.1018(7) 0.4842(5)
H6 H 0.4989 0.1674 0.4744
C13 C 0.3915(8) 0.0448(7) 0.4222(5)
H7 H 0.3997 0.0706 0.3701
C14 C 0.3198(8) -0.0492(7) 0.4376(5)
C15 C 0.3143(10) -0.0861(8) 0.5122(7)
H8 H 0.2672 -0.1514 0.5228
C16 C 0.3784(8) -0.0279(8) 0.5750(6)
H9 H 0.3729 -0.0545 0.6265
C17 C 0.2523(8) -0.1050(8) 0.3755(6)
N1 N 0.2020(7) -0.1525(6) 0.3231(5)
N2 N 0.6023(7) -0.1041(7) 1.1010(5)
O1 O 0.5763(4) 0.2181(4) 0.6019(3)
O2 O 0.6668(4) 0.2288(4) 0.7544(3)
Zn1 Zn 0.6667 0.3333 0.67645(7)
Ag1 Ag 0.40766(6) 0.13715(6) 0.76786(4)
C1A C 0.8653(6) 0.3866(8) 0.6237(4)
C1B C 0.6134(8) 0.4787(6) 0.6237(4)
C2A C 0.9062(6) 0.4277(9) 0.7023(4)
C2B C 0.5723(9) 0.4785(7) 0.7023(4)
H1A H 0.9680 0.4368 0.7156
H1B H 0.5632 0.5312 0.7156
C3A C 0.8590(6) 0.4540(8) 0.7583(4)
C3B C 0.5460(8) 0.4050(6) 0.7583(4)
C4A C 0.9143(6) 0.5129(9) 0.8313(4)
C4B C 0.4871(9) 0.4014(7) 0.8313(4)
C5A C 0.8606(7) 0.5095(9) 0.9009(4)
C5B C 0.4905(9) 0.3511(6) 0.9009(4)
H2A H 0.7920 0.4732 0.9007
H2B H 0.5268 0.3188 0.9007
C6A C 0.9124(7) 0.5623(10) 0.9715(5)
C6B C 0.4377(10) 0.3501(7) 0.9715(5)
H3A H 0.8778 0.5589 1.0185
H3B H 0.4411 0.3189 1.0185
C7A C 1.0105(7) 0.6166(10) 0.9703(5)
C7B C 0.3834(10) 0.3939(7) 0.9703(5)
C8A C 1.0619(8) 0.6240(13) 0.9032(6)
C8B C 0.3760(13) 0.4379(10) 0.9032(6)
H4A H 1.1300 0.6653 0.9020
H4B H 0.3347 0.4647 0.9020
C9A C 1.0133(7) 0.5704(11) 0.8370(5)
C9B C 0.4296(11) 0.4429(8) 0.8370(5)
H5A H 1.0509 0.5736 0.7921
H5B H 0.4264 0.4773 0.7921
C10A C 1.0577(8) 0.6630(11) 1.0446(5)
C10B C 0.3370(11) 0.3947(7) 1.0446(5)
C11A C 0.9370(7) 0.3820(10) 0.5604(5)
C11B C 0.6180(10) 0.5550(7) 0.5604(5)
C12A C 0.8982(7) 0.3505(11) 0.4842(5)
C12B C 0.6495(11) 0.5477(8) 0.4842(5)
H6A H 0.8326 0.3315 0.4744
H6B H 0.6685 0.5011 0.4744
C13A C 0.9552(7) 0.3467(11) 0.4222(5)
C13B C 0.6533(11) 0.6085(8) 0.4222(5)
H7A H 0.9294 0.3291 0.3701
H7B H 0.6709 0.6003 0.3701
C14A C 1.0492(7) 0.3690(11) 0.4376(5)
C14B C 0.6310(11) 0.6802(8) 0.4376(5)
C15A C 1.0861(8) 0.4004(13) 0.5122(7)
C15B C 0.5996(13) 0.6857(10) 0.5122(7)
H8A H 1.1514 0.4186 0.5228
H8B H 0.5814 0.7328 0.5228
C16A C 1.0279(8) 0.4063(11) 0.5750(6)
C16B C 0.5937(11) 0.6216(8) 0.5750(6)
H9A H 1.0545 0.4274 0.6265
H9B H 0.5726 0.6271 0.6265
C17A C 1.1050(8) 0.3573(11) 0.3755(6)
C17B C 0.6427(11) 0.7477(8) 0.3755(6)
N1A N 1.1525(6) 0.3545(9) 0.3231(5)
N1B N 0.6455(9) 0.7980(7) 0.3231(5)
N1E N 0.3545(9) 0.2020(7) 0.6769(5)
N1C N 0.7980(7) 0.1525(6) 0.6769(5)
N1D N 0.8475(6) 0.6455(9) 0.6769(5)
N2A N 1.1041(7) 0.7064(10) 1.1010(5)
N2B N 0.2936(10) 0.3977(7) 1.1010(5)
N2C N 0.3977(7) 0.1041(7) 0.8990(5)
N2D N 0.8959(7) 0.2936(10) 0.8990(5)
N2E N 0.7064(10) 0.6023(7) 0.8990(5)
O1A O 0.7819(4) 0.3582(6) 0.6019(3)
O1B O 0.6418(6) 0.4237(4) 0.6019(3)
O2A O 0.7712(4) 0.4380(6) 0.7544(3)
O2B O 0.5620(6) 0.3332(4) 0.7544(3)
Ag1A Ag 0.86285(6) 0.27051(8) 0.76786(4)
Ag1B Ag 0.72949(8) 0.59234(6) 0.76786(4)
Ag1D Ag 0.13715(6) -0.27051(8) 0.23214(4)
Ag1C Ag 0.59234(6) -0.13715(6) 1.23214(4)
Ag1E Ag 1.27051(8) 0.40766(6) 0.23214(4)
Ag1D_2 Ag 1.13715(6) 0.72949(8) 1.23214(4)
Ag1C_2 Ag 0.59234(6) 0.86285(6) 0.23214(4)
Ag1E_2 Ag 0.27051(8) 0.40766(6) 1.23214(4)
loop_
_geom_bond_atom_site_label_1
_geom_bond_atom_site_label_2
_geom_bond_site_symmetry_1
_geom_bond_site_symmetry_2
C1 C2 1_555 1_555
C2 H1 1_555 1_555
C3 C2 1_555 1_555
C4 C3 1_555 1_555
C5 C4 1_555 1_555
H2 C5 1_555 1_555
C6 C5 1_555 1_555
H3 C6 1_555 1_555
C7 C6 1_555 1_555
C8 C7 1_555 1_555
H4 C8 1_555 1_555
C9 C4 1_555 1_555
H5 C9 1_555 1_555
C10 C7 1_555 1_555
C11 C1 1_555 1_555
C12 C11 1_555 1_555
H6 C12 1_555 1_555
C13 C12 1_555 1_555
H7 C13 1_555 1_555
C14 C13 1_555 1_555
C15 C14 1_555 1_555
H8 C15 1_555 1_555
C16 C11 1_555 1_555
H9 C16 1_555 1_555
C17 C14 1_555 1_555
N1 C17 1_555 1_555
N2 C10 1_555 1_555
O1 C1 1_555 1_555
O2 C3 1_555 1_555
Zn1 O1 1_555 1_555
Ag1 C2 1_555 1_555
C1A C2A 1_555 1_555
C1B C2B 1_555 1_555
C2A H1A 1_555 1_555
C2B H1B 1_555 1_555
C3A C2A 1_555 1_555
C3B C2B 1_555 1_555
C4A C3A 1_555 1_555
C4B C3B 1_555 1_555
C5A C4A 1_555 1_555
C5B C4B 1_555 1_555
H2A C5A 1_555 1_555
H2B C5B 1_555 1_555
C6A C5A 1_555 1_555
C6B C5B 1_555 1_555
H3A C6A 1_555 1_555
H3B C6B 1_555 1_555
C7A C6A 1_555 1_555
C7B C6B 1_555 1_555
C8A C7A 1_555 1_555
C8B C7B 1_555 1_555
H4A C8A 1_555 1_555
H4B C8B 1_555 1_555
C9A C4A 1_555 1_555
C9B C4B 1_555 1_555
H5A C9A 1_555 1_555
H5B C9B 1_555 1_555
C10A C7A 1_555 1_555
C10B C7B 1_555 1_555
C11A C1A 1_555 1_555
C11B C1B 1_555 1_555
C12A C11A 1_555 1_555
C12B C11B 1_555 1_555
H6A C12A 1_555 1_555
H6B C12B 1_555 1_555
C13A C12A 1_555 1_555
C13B C12B 1_555 1_555
H7A C13A 1_555 1_555
H7B C13B 1_555 1_555
C14A C13A 1_555 1_555
C14B C13B 1_555 1_555
C15A C14A 1_555 1_555
C15B C14B 1_555 1_555
H8A C15A 1_555 1_555
H8B C15B 1_555 1_555
C16A C11A 1_555 1_555
C16B C11B 1_555 1_555
H9A C16A 1_555 1_555
H9B C16B 1_555 1_555
C17A C14A 1_555 1_555
C17B C14B 1_555 1_555
N1A C17A 1_555 1_555
N1B C17B 1_555 1_555
N1E Ag1 1_555 1_555
N1C Ag1A 1_555 1_555
N1D Ag1B 1_555 1_555
N2A C10A 1_555 1_555
N2B C10B 1_555 1_555
N2C Ag1 1_555 1_555
N2D Ag1A 1_555 1_555
N2E Ag1B 1_555 1_555
O1A Zn1 1_555 1_555
O1B Zn1 1_555 1_555
O2A Zn1 1_555 1_555
O2B Zn1 1_555 1_555
Ag1A C2A 1_555 1_555
Ag1B C2B 1_555 1_555
Ag1D N1 1_555 1_555
Ag1C N2 1_555 1_555
Ag1E N1A 1_555 1_555
Ag1D_2 N2A 1_555 1_555
Ag1C_2 N1B 1_555 1_555
Ag1E_2 N2B 1_555 1_555
C8 C9 1_555 1_555
C15 C16 1_555 1_555
O2 Zn1 1_555 1_555
C1A O1A 1_555 1_555
C1B O1B 1_555 1_555
C3A O2A 1_555 1_555
C3B O2B 1_555 1_555
C8A C9A 1_555 1_555
C8B C9B 1_555 1_555
C15A C16A 1_555 1_555
C15B C16B 1_555 1_555

#END
