
#######################################################################
#
#                 Cambridge Crystallographic Data Centre
#                                CCDC 
#
#######################################################################
#
# If this CIF has been generated from an entry in the Cambridge 
# Structural Database, then it will include bibliographic, chemical, 
# crystal, experimental, refinement or atomic coordinate data resulting 
# from the CCDC's data processing and validation procedures.
#
#######################################################################

data_HIQNAY
_chemical_formula_moiety         '(C58 H48 N6 O20 Zn4)n'
_symmetry_cell_setting           monoclinic
_symmetry_space_group_name_H-M   'P 21/c'
_symmetry_Int_Tables_number      14
_space_group_name_Hall           '-P 2ybc'
loop_
_symmetry_equiv_pos_site_id
_symmetry_equiv_pos_as_xyz
1 x,y,z
2 -x,1/2+y,1/2-z
3 -x,-y,-z
4 x,1/2-y,1/2+z
_cell_length_a                   20.504(4)
_cell_length_b                   9.5776(17)
_cell_length_c                   19.444(4)
_cell_angle_alpha                90
_cell_angle_beta                 103.735(3)
_cell_angle_gamma                90
_cell_volume                     3709.21
loop_
_atom_site_label
_atom_site_type_symbol
_atom_site_fract_x
_atom_site_fract_y
_atom_site_fract_z
Zn1 Zn 0.59911(3) 0.91573(6) 0.78959(3)
Zn2 Zn 0.71863(5) 0.86299(10) 0.92754(5)
N1 N 0.5579(2) 0.9438(4) 0.6843(2)
C1 C 0.5129(2) 0.9894(5) 0.5387(2)
C2 C 0.5258(3) 1.0980(5) 0.5861(3)
H1 H 0.5183 1.1893 0.5698
C3 C 0.5494(3) 1.0732(5) 0.6571(3)
H2 H 0.5600 1.1490 0.6876
C4 C 0.5205(3) 0.8552(6) 0.5678(3)
H3 H 0.5086 0.7775 0.5388
C5 C 0.5451(3) 0.8387(5) 0.6384(3)
H4 H 0.5537 0.7484 0.6558
C6 C 1.3880(3) 0.3484(6) 1.1587(4)
C7 C 0.7639(6) 0.6568(10) 0.5633(4)
C8 C 0.7477(3) 0.8325(8) 0.7958(3)
C9 C 0.7608(3) 0.7382(6) 0.6814(3)
H5 H 0.7143 0.7369 0.6663
C10 C 0.7911(3) 0.7811(7) 0.7501(3)
C11 C 0.7988(4) 0.6983(8) 0.6362(3)
C12 C 0.8994(4) 0.7343(10) 0.7284(4)
C13 C 0.8681(4) 0.6997(9) 0.6589(4)
H6 H 0.8941 0.6772 0.6272
C14 C 0.8592(3) 0.7738(9) 0.7741(3)
H7 H 0.8790 0.7951 0.8211
C15 C 1.3711(3) 0.6026(5) 1.1378(3)
H8 H 1.3874 0.6187 1.1860
C16 C 1.3503(3) 0.7126(5) 1.0919(3)
C17 C 1.3285(3) 0.6903(5) 1.0202(3)
H9 H 1.3138 0.7658 0.9905
C18 C 1.3673(3) 0.4696(5) 1.1114(4)
C19 C 1.3515(4) 0.8584(5) 1.1178(3)
C20 C 1.3477(3) 0.4471(5) 1.0378(4)
H10 H 1.3482 0.3568 1.0203
C21 C 1.3279(3) 0.5566(6) 0.9908(3)
N2 N 1.3105(3) 0.5313(6) 0.9190(3)
H11 H 1.3136 0.4468 0.9052
O1 O 1.3852(3) 0.8863(4) 1.1776(2)
O2 O 0.6924(2) 0.8792(6) 0.7661(2)
O3 O 1.3779(3) 0.2255(4) 1.1316(3)
O4 O 0.7720(2) 0.8247(7) 0.8621(2)
O5 O 1.4125(3) 0.3641(5) 1.2212(4)
O6 O 0.7039(4) 0.6542(8) 0.5445(3)
O7 O 1.3161(3) 0.9476(4) 1.0773(2)
O8 O 0.8014(5) 0.6397(12) 0.5202(4)
N3 N 0.9680(3) 0.7215(12) 0.7498(4)
H12 H 0.9896 0.6826 0.7221
C22 C 1.2157(3) 0.6700(7) 0.8537(4)
C23 C 1.2881(3) 0.6323(9) 0.8667(4)
H13 H 1.2968 0.5987 0.8226
H14 H 1.3145 0.7163 0.8798
C24 C 1.0023(5) 0.7694(15) 0.8143(9)
H15 H 0.9864 0.7234 0.8516
H16 H 0.9954 0.8691 0.8177
C25 C 1.1666(4) 0.5716(10) 0.8531(8)
H17 H 1.1798 0.4802 0.8653
C26 C 1.1947(4) 0.8049(10) 0.8368(8)
H18 H 1.2258 0.8738 0.8335
C27 C 1.0979(4) 0.6016(10) 0.8353(9)
H19 H 1.0662 0.5310 0.8322
C28 C 1.0788(4) 0.7378(9) 0.8227(9)
C29 C 1.1273(2) 0.8377(4) 0.8247(3)
H20 H 1.1143 0.9306 0.8177
O9 O 0.4986(2) 0.9286(4) 0.8116(3)
H21 H 0.4813 1.0075 0.7978
H22 H 0.5021 0.9197 0.8558
N1B N 0.4421(2) 1.0562(4) 0.3157(2)
C1B C 0.4871(2) 1.0106(5) 0.4613(2)
C2B C 0.4742(3) 0.9020(5) 0.4139(3)
H1B H 0.4817 0.8107 0.4302
C3B C 0.4506(3) 0.9268(5) 0.3429(3)
H2B H 0.4400 0.8510 0.3124
C4B C 0.4795(3) 1.1448(6) 0.4322(3)
H3B H 0.4914 1.2225 0.4612
C5B C 0.4549(3) 1.1613(5) 0.3616(3)
H4B H 0.4463 1.2516 0.3442
Zn1B Zn 0.40089(3) 1.08427(6) 0.21041(3)
Zn2B Zn 0.28137(5) 1.13701(10) 0.07246(5)
C6B C -0.3880(3) 1.6516(6) -0.1587(4)
C7B C 0.2361(6) 1.3432(10) 0.4367(4)
C8B C 0.2523(3) 1.1675(8) 0.2042(3)
C9B C 0.2392(3) 1.2618(6) 0.3186(3)
H5B H 0.2857 1.2631 0.3337
C10B C 0.2089(3) 1.2189(7) 0.2499(3)
C11B C 0.2012(4) 1.3017(8) 0.3638(3)
C12B C 0.1006(4) 1.2657(10) 0.2716(4)
C13B C 0.1319(4) 1.3003(9) 0.3411(4)
H6B H 0.1059 1.3228 0.3728
C14B C 0.1408(3) 1.2262(9) 0.2259(3)
H7B H 0.1210 1.2049 0.1789
C15B C -0.3711(3) 1.3974(5) -0.1378(3)
H8B H -0.3874 1.3813 -0.1860
C16B C -0.3503(3) 1.2874(5) -0.0919(3)
C17B C -0.3285(3) 1.3097(5) -0.0202(3)
H9B H -0.3138 1.2342 0.0095
C18B C -0.3673(3) 1.5304(5) -0.1114(4)
C19B C -0.3515(4) 1.1416(5) -0.1178(3)
C20B C -0.3477(3) 1.5529(5) -0.0378(4)
H10B H -0.3482 1.6432 -0.0203
C21B C -0.3279(3) 1.4434(6) 0.0092(3)
N2B N -0.3105(3) 1.4687(6) 0.0810(3)
H11B H -0.3136 1.5532 0.0948
O1B O -0.3852(3) 1.1137(4) -0.1776(2)
O2B O 0.3076(2) 1.1208(6) 0.2339(2)
O3B O -0.3779(3) 1.7745(4) -0.1316(3)
O4B O 0.2280(2) 1.1753(7) 0.1379(2)
O5B O -0.4125(3) 1.6359(5) -0.2212(4)
O6B O 0.2961(4) 1.3458(8) 0.4555(3)
O7B O -0.3161(3) 1.0524(4) -0.0773(2)
O8B O 0.1986(5) 1.3603(12) 0.4798(4)
N3B N 0.0320(3) 1.2785(12) 0.2502(4)
H12B H 0.0104 1.3174 0.2779
C22B C -0.2157(3) 1.3300(7) 0.1463(4)
C23B C -0.2881(3) 1.3677(9) 0.1333(4)
H13B H -0.2968 1.4013 0.1774
H14B H -0.3145 1.2837 0.1202
C24B C -0.0023(5) 1.2306(15) 0.1857(9)
H15B H 0.0136 1.2766 0.1484
H16B H 0.0046 1.1309 0.1823
C25B C -0.1666(4) 1.4284(10) 0.1469(8)
H17B H -0.1798 1.5198 0.1347
C26B C -0.1947(4) 1.1951(10) 0.1632(8)
H18B H -0.2258 1.1262 0.1665
C27B C -0.0979(4) 1.3984(10) 0.1647(9)
H19B H -0.0662 1.4690 0.1678
C28B C -0.0788(4) 1.2622(9) 0.1773(9)
C29B C -0.1273(2) 1.1623(4) 0.1753(3)
H20B H -0.1143 1.0694 0.1823
O9B O 0.5014(2) 1.0714(4) 0.1884(3)
H21B H 0.5187 0.9925 0.2022
H22B H 0.4979 1.0803 0.1442
Zn1_2 Zn -0.40089(3) 0.91573(6) -0.21041(3)
Zn1_3 Zn -0.40089(3) 1.91573(6) -0.21041(3)
Zn1B_2 Zn 1.40089(3) 0.08427(6) 1.21041(3)
Zn1B_3 Zn 1.40089(3) 1.08427(6) 1.21041(3)
Zn2_2 Zn -0.28137(5) 0.86299(10) -0.07246(5)
Zn2_3 Zn -0.28137(5) 1.86299(10) -0.07246(5)
Zn2A Zn 0.28137(5) 1.36299(10) 0.57246(5)
Zn2B_2 Zn 1.28137(5) 0.13701(10) 1.07246(5)
Zn2B_3 Zn 1.28137(5) 1.13701(10) 1.07246(5)
Zn2C Zn 0.71863(5) 0.63701(10) 0.42754(5)
O1_2 O 0.3852(3) 0.8863(4) 0.1776(2)
O1B_2 O 0.6148(3) 1.1137(4) 0.8224(2)
O3_2 O 0.3779(3) 1.2255(4) 0.1316(3)
O3B_2 O 0.6221(3) 0.7745(4) 0.8684(3)
O6A O 0.2961(4) 1.1542(8) -0.0445(3)
O6C O 0.7039(4) 0.8458(8) 1.0445(3)
O7_2 O 0.3161(3) 0.9476(4) 0.0773(2)
O7B_2 O 0.6839(3) 1.0524(4) 0.9227(2)
O8A O 0.1986(5) 1.1397(12) -0.0202(4)
O8C O 0.8014(5) 0.8603(12) 1.0202(4)
O10 O 0.8149(9) 1.1757(19) 0.9336(10)
H23 H 0.7982 1.2298 0.8944
H24 H 0.8579 1.1634 0.9263
O10B O 0.1851(9) 0.8243(19) 0.0664(10)
H23B H 0.2018 0.7702 0.1056
H24B H 0.1421 0.8366 0.0737
loop_
_geom_bond_atom_site_label_1
_geom_bond_atom_site_label_2
_geom_bond_site_symmetry_1
_geom_bond_site_symmetry_2
Zn1 N1 1_555 1_555
Zn2 O4 1_555 1_555
N1 C3 1_555 1_555
C1 C2 1_555 1_555
C2 H1 1_555 1_555
C3 C2 1_555 1_555
H2 C3 1_555 1_555
C4 C1 1_555 1_555
H3 C4 1_555 1_555
C5 N1 1_555 1_555
H4 C5 1_555 1_555
C6 C18 1_555 1_555
C7 C11 1_555 1_555
C8 C10 1_555 1_555
C9 H5 1_555 1_555
C10 C9 1_555 1_555
C11 C9 1_555 1_555
C12 C13 1_555 1_555
C13 C11 1_555 1_555
H6 C13 1_555 1_555
C14 C10 1_555 1_555
H7 C14 1_555 1_555
C15 H8 1_555 1_555
C16 C15 1_555 1_555
C17 C16 1_555 1_555
H9 C17 1_555 1_555
C18 C15 1_555 1_555
C19 C16 1_555 1_555
C20 C18 1_555 1_555
H10 C20 1_555 1_555
C21 C17 1_555 1_555
N2 C21 1_555 1_555
H11 N2 1_555 1_555
O1 C19 1_555 1_555
O2 Zn1 1_555 1_555
O3 C6 1_555 1_555
O4 C8 1_555 1_555
O5 C6 1_555 1_555
O6 C7 1_555 1_555
O7 C19 1_555 1_555
O8 C7 1_555 1_555
N3 C12 1_555 1_555
H12 N3 1_555 1_555
C22 C23 1_555 1_555
C23 N2 1_555 1_555
H13 C23 1_555 1_555
H14 C23 1_555 1_555
C24 N3 1_555 1_555
H15 C24 1_555 1_555
H16 C24 1_555 1_555
C25 C22 1_555 1_555
H17 C25 1_555 1_555
C26 C22 1_555 1_555
H18 C26 1_555 1_555
C27 C25 1_555 1_555
H19 C27 1_555 1_555
C28 C24 1_555 1_555
C29 C26 1_555 1_555
H20 C29 1_555 1_555
O9 Zn1 1_555 1_555
H21 O9 1_555 1_555
H22 O9 1_555 1_555
O10 H23 1_555 1_555
H24 O10 1_555 1_555
N1B C3B 1_555 1_555
C1B C1 1_555 1_555
C2B C1B 1_555 1_555
H1B C2B 1_555 1_555
C3B C2B 1_555 1_555
H2B C3B 1_555 1_555
C4B C1B 1_555 1_555
H3B C4B 1_555 1_555
C5B N1B 1_555 1_555
H4B C5B 1_555 1_555
Zn1B N1B 1_555 1_555
Zn2B O4B 1_555 1_555
C6B C18B 1_555 1_555
C7B C11B 1_555 1_555
C8B C10B 1_555 1_555
C9B H5B 1_555 1_555
C10B C9B 1_555 1_555
C11B C9B 1_555 1_555
C12B C13B 1_555 1_555
C13B C11B 1_555 1_555
H6B C13B 1_555 1_555
C14B C10B 1_555 1_555
H7B C14B 1_555 1_555
C15B H8B 1_555 1_555
C16B C15B 1_555 1_555
C17B C16B 1_555 1_555
H9B C17B 1_555 1_555
C18B C15B 1_555 1_555
C19B C16B 1_555 1_555
C20B C18B 1_555 1_555
H10B C20B 1_555 1_555
C21B C17B 1_555 1_555
N2B C21B 1_555 1_555
H11B N2B 1_555 1_555
O1B C19B 1_555 1_555
O2B Zn1B 1_555 1_555
O3B C6B 1_555 1_555
O4B C8B 1_555 1_555
O5B C6B 1_555 1_555
O6B C7B 1_555 1_555
O7B C19B 1_555 1_555
O8B C7B 1_555 1_555
N3B C12B 1_555 1_555
H12B N3B 1_555 1_555
C22B C23B 1_555 1_555
C23B N2B 1_555 1_555
H13B C23B 1_555 1_555
H14B C23B 1_555 1_555
C24B N3B 1_555 1_555
H15B C24B 1_555 1_555
H16B C24B 1_555 1_555
C25B C22B 1_555 1_555
H17B C25B 1_555 1_555
C26B C22B 1_555 1_555
H18B C26B 1_555 1_555
C27B C25B 1_555 1_555
H19B C27B 1_555 1_555
C28B C24B 1_555 1_555
C29B C26B 1_555 1_555
H20B C29B 1_555 1_555
O9B Zn1B 1_555 1_555
H21B O9B 1_555 1_555
H22B O9B 1_555 1_555
Zn1_2 O1B 1_555 1_555
Zn1_3 O3B 1_555 1_555
Zn1B_2 O3 1_555 1_555
Zn1B_3 O1 1_555 1_555
Zn2_2 O7B 1_555 1_555
Zn2_3 O3B 1_555 1_555
Zn2A O6B 1_555 1_555
Zn2B_2 O3 1_555 1_555
Zn2B_3 O7 1_555 1_555
Zn2C O6 1_555 1_555
O1_2 Zn1B 1_555 1_555
O1B_2 Zn1 1_555 1_555
O3_2 Zn1B 1_555 1_555
O3B_2 Zn1 1_555 1_555
O6A Zn2B 1_555 1_555
O6C Zn2 1_555 1_555
O7_2 Zn2B 1_555 1_555
O7B_2 Zn2 1_555 1_555
O8A Zn2B 1_555 1_555
O8C Zn2 1_555 1_555
O10B H23B 1_555 1_555
H24B O10B 1_555 1_555
Zn2 O3B_2 1_555 1_555
C4 C5 1_555 1_555
C8 O2 1_555 1_555
C12 C14 1_555 1_555
C20 C21 1_555 1_555
O8 Zn2C 1_555 1_555
C27 C28 1_555 1_555
C28 C29 1_555 1_555
C4B C5B 1_555 1_555
Zn2B O3_2 1_555 1_555
C8B O2B 1_555 1_555
C12B C14B 1_555 1_555
C20B C21B 1_555 1_555
O8B Zn2A 1_555 1_555
C27B C28B 1_555 1_555
C28B C29B 1_555 1_555

#END
