
#######################################################################
#
#                 Cambridge Crystallographic Data Centre
#                                CCDC 
#
#######################################################################
#
# If this CIF has been generated from an entry in the Cambridge 
# Structural Database, then it will include bibliographic, chemical, 
# crystal, experimental, refinement or atomic coordinate data resulting 
# from the CCDC's data processing and validation procedures.
#
#######################################################################

data_QUFGED
_chemical_formula_moiety         '(C4 H2 Al3 Mg1 N4 O17 P4 1-)n'
_symmetry_cell_setting           orthorhombic
_symmetry_space_group_name_H-M   'P b c m'
_symmetry_Int_Tables_number      57
_space_group_name_Hall           '-P 2c 2b'
loop_
_symmetry_equiv_pos_site_id
_symmetry_equiv_pos_as_xyz
1 x,y,z
2 -x,-y,1/2+z
3 -x,1/2+y,1/2-z
4 x,1/2-y,-z
5 -x,-y,-z
6 x,y,1/2-z
7 x,1/2-y,1/2+z
8 -x,1/2+y,z
_cell_length_a                   9.2769(8)
_cell_length_b                   14.7984(13)
_cell_length_c                   14.6106(12)
_cell_angle_alpha                90
_cell_angle_beta                 90
_cell_angle_gamma                90
_cell_volume                     2005.79
loop_
_atom_site_label
_atom_site_type_symbol
_atom_site_fract_x
_atom_site_fract_y
_atom_site_fract_z
N1 N 0.2130(12) -0.0840(8) 0.0054(7)
N2 N 0.3752(26) -0.2425(14) -0.0481(17)
C1 C 0.3689(18) -0.0966(13) -0.0138(13)
C2 C 0.4356(19) -0.1743(12) 0.0271(14)
N2C N 0.3752(26) -0.2575(14) 0.0481(17)
C2C C 0.4356(19) -0.3257(12) -0.0271(14)
C1C C 0.3689(18) -0.4034(13) 0.0138(13)
N1C N 0.2130(12) -0.4160(8) -0.0054(7)
P1 P -0.1235(3) 0.3430(2) 0.2500
P2 P -0.3180(3) -0.0279(2) 0.2500
P3 P 0.1482(3) 0.13343(15) 0.1031(2)
Al1 Al 0.1426(3) 0.3470(2) 0.1150(2)
Al2 Al -0.0985(4) 0.1356(2) 0.2500
Mg1 Mg -0.3323(4) 0.5204(2) 0.2500
O2 O -0.1744(10) 0.2444(5) 0.2500
O3 O -0.2529(11) 0.4018(6) 0.2500
O4 O -0.0333(8) 0.3592(4) 0.1638(5)
O5 O -0.2441(13) 0.0616(7) 0.2500
O6 O -0.4735(11) -0.0138(8) 0.2500
O7 O -0.2721(9) -0.0783(6) 0.1663(6)
O8 O 0.2562(9) 0.0668(5) 0.1397(5)
O9 O 0.1270(10) 0.1149(5) 0.0007(4)
O10 O 0.0026(8) 0.1206(4) 0.1490(5)
O11 O 0.1983(7) 0.2308(4) 0.1167(5)
O6G O -0.5265(11) 0.4862(8) 0.2500
Mg1G Mg -0.6677(4) 0.0204(2) 0.2500
O7G O 0.2721(9) 0.4217(6) 0.1663(6)
O7E O -0.2721(9) -0.0783(6) 0.3337(6)
O10E O 0.0026(8) 0.1206(4) 0.3510(5)
O4E O -0.0333(8) 0.3592(4) 0.3362(5)
O8B O -0.2562(9) 0.5668(5) 0.3603(5)
Al1F Al 0.1426(3) 0.1530(2) 0.6150(2)
Al1G Al -0.1426(3) -0.1530(2) 0.1150(2)
Al1B Al -0.1426(3) -0.1530(2) 0.3850(2)
P3E P 0.1482(3) 0.13343(15) 0.3969(2)
Al1E Al 0.1426(3) 0.3470(2) 0.3850(2)
O7B O 0.2721(9) 0.4217(6) 0.3337(6)
O8G O -0.2562(9) 0.5668(5) 0.1397(5)
O9C O 0.1270(10) 0.3851(5) -0.0007(4)
O9F O 0.1270(10) 0.3851(5) 0.5007(4)
O8E O 0.2562(9) 0.0668(5) 0.3603(5)
O9E O 0.1270(10) 0.1149(5) 0.4993(4)
O11E O 0.1983(7) 0.2308(4) 0.3833(5)
Al1C Al 0.1426(3) 0.1530(2) -0.1150(2)
Mg1G_2 Mg 0.3323(4) 0.0204(2) 0.2500
O1 O -0.4981(46) 0.2552(38) 0.2500
loop_
_geom_bond_atom_site_label_1
_geom_bond_atom_site_label_2
_geom_bond_site_symmetry_1
_geom_bond_site_symmetry_2
N1 C1 1_555 1_555
N2 C2 1_555 1_555
C1 C2 1_555 1_555
C2 N2C 1_555 1_555
P1 O2 1_555 1_555
P2 O5 1_555 1_555
P3 O8 1_555 1_555
Al1 O4 1_555 1_555
Al2 O2 1_555 1_555
Mg1 O3 1_555 1_555
O3 P1 1_555 1_555
O4 P1 1_555 1_555
O5 Al2 1_555 1_555
O6 P2 1_555 1_555
O7 P2 1_555 1_555
O8 Mg1G_2 1_555 1_555
O9 P3 1_555 1_555
O10 P3 1_555 1_555
O11 P3 1_555 1_555
N2C N2 1_555 1_555
C2C N2 1_555 1_555
C1C C2C 1_555 1_555
N1C C1C 1_555 1_555
O6G Mg1 1_555 1_555
Mg1G O6 1_555 1_555
O7G Al1 1_555 1_555
O7E P2 1_555 1_555
O10E Al2 1_555 1_555
O4E P1 1_555 1_555
O8B Mg1 1_555 1_555
Al1F O9E 1_555 1_555
Al1G O7 1_555 1_555
Al1B O7E 1_555 1_555
P3E O10E 1_555 1_555
Al1E O4E 1_555 1_555
O7B Al1E 1_555 1_555
O8G Mg1 1_555 1_555
O9C Al1 1_555 1_555
O9F Al1E 1_555 1_555
O8E P3E 1_555 1_555
O9E P3E 1_555 1_555
O11E P3E 1_555 1_555
Al1C O9 1_555 1_555
Mg1G_2 O8E 1_555 1_555
Al1 O11 1_555 1_555
Al2 O10 1_555 1_555
N2C C2C 1_555 1_555
Al1E O11E 1_555 1_555

#END
