
#######################################################################
#
#                 Cambridge Crystallographic Data Centre
#                                CCDC 
#
#######################################################################
#
# If this CIF has been generated from an entry in the Cambridge 
# Structural Database, then it will include bibliographic, chemical, 
# crystal, experimental, refinement or atomic coordinate data resulting 
# from the CCDC's data processing and validation procedures.
#
#######################################################################

data_LAPNIC
_chemical_formula_moiety         '(C18 H20 In1 N3 O9)n'
_symmetry_cell_setting           orthorhombic
_symmetry_space_group_name_H-M   'F d d d'
_symmetry_Int_Tables_number      70
_space_group_name_Hall           '-F 2uv 2vw'
loop_
_symmetry_equiv_pos_site_id
_symmetry_equiv_pos_as_xyz
1 x,y,z
2 1/4-x,1/4-y,z
3 x,1/4-y,1/4-z
4 1/4-x,y,1/4-z
5 x,1/2+y,1/2+z
6 1/4-x,3/4-y,1/2+z
7 x,3/4-y,3/4-z
8 1/4-x,1/2+y,3/4-z
9 1/2+x,y,1/2+z
10 3/4-x,1/4-y,1/2+z
11 1/2+x,1/4-y,3/4-z
12 3/4-x,y,3/4-z
13 1/2+x,1/2+y,z
14 3/4-x,3/4-y,z
15 1/2+x,3/4-y,1/4-z
16 3/4-x,1/2+y,1/4-z
17 -x,-y,-z
18 3/4+x,3/4+y,-z
19 -x,3/4+y,3/4+z
20 3/4+x,-y,3/4+z
21 -x,1/2-y,1/2-z
22 3/4+x,1/4+y,1/2-z
23 -x,1/4+y,1/4+z
24 3/4+x,1/2-y,1/4+z
25 1/2-x,-y,1/2-z
26 1/4+x,3/4+y,1/2-z
27 1/2-x,3/4+y,1/4+z
28 1/4+x,-y,1/4+z
29 1/2-x,1/2-y,-z
30 1/4+x,1/4+y,-z
31 1/2-x,1/4+y,3/4+z
32 1/4+x,1/2-y,3/4+z
_cell_length_a                   15.4336(7)
_cell_length_b                   27.6137(12)
_cell_length_c                   30.6740(14)
_cell_angle_alpha                90
_cell_angle_beta                 90
_cell_angle_gamma                90
_cell_volume                     13072.6
loop_
_atom_site_label
_atom_site_type_symbol
_atom_site_fract_x
_atom_site_fract_y
_atom_site_fract_z
O6 O 0.8250(19) 0.5385(10) 0.0847(10)
N3 N 0.6250 0.4202(18) 0.1250
H11 H 0.6661 0.4005 0.1150
C13 C 0.586(2) 0.4387(13) 0.0844(9)
H12 H 0.5686 0.4119 0.0664
H13 H 0.5361 0.4580 0.0913
H14 H 0.6275 0.4580 0.0690
H11C H 0.5839 0.4005 0.1350
C13C C 0.664(2) 0.4387(13) 0.1656(9)
H12C H 0.6814 0.4119 0.1836
H13C H 0.7139 0.4580 0.1587
H14C H 0.6225 0.4580 0.1810
In1 In 0.8750 0.3750 0.07418(2)
O1 O 0.8592(5) 0.4313(3) 0.1266(2)
O2 O 0.9917(5) 0.4102(3) 0.1105(2)
O3 O 1.0149(4) 0.5854(3) 0.2901(2)
O4 O 1.1486(4) 0.5677(3) 0.2740(2)
C1 C 0.9389(7) 0.4346(4) 0.1334(3)
C2 C 0.9725(6) 0.4666(3) 0.1688(2)
C3 C 1.0576(6) 0.4616(5) 0.1828(5)
H1 H 1.0928 0.4377 0.1708
C4 C 1.0902(5) 0.4923(5) 0.2148(5)
C5 C 1.0377(5) 0.5280(3) 0.2327(2)
C6 C 0.9525(6) 0.5330(5) 0.2187(5)
H2 H 0.9173 0.5569 0.2306
C7 C 0.9199(5) 0.5023(5) 0.1867(5)
H3 H 0.8629 0.5056 0.1773
C8 C 1.0685(6) 0.5616(4) 0.2675(3)
N1 N 1.179(2) 0.4864(13) 0.2280(12)
H4 H 1.2109 0.4643 0.2161
H5 H 1.2011 0.5049 0.2477
O1M O 0.8908(5) 0.3187(3) 0.1266(2)
O2M O 0.7583(5) 0.3398(3) 0.1105(2)
O3M O 0.7351(4) 0.1646(3) 0.2901(2)
O4M O 0.6014(4) 0.1823(3) 0.2740(2)
C1M C 0.8111(7) 0.3154(4) 0.1334(3)
C2M C 0.7775(6) 0.2834(3) 0.1688(2)
C3M C 0.6924(6) 0.2884(5) 0.1828(5)
H1M H 0.6572 0.3123 0.1708
C4M C 0.6598(5) 0.2577(5) 0.2148(5)
C5M C 0.7123(5) 0.2220(3) 0.2327(2)
C6M C 0.7975(6) 0.2170(5) 0.2187(5)
H2M H 0.8327 0.1931 0.2306
C7M C 0.8301(5) 0.2477(5) 0.1867(5)
H3M H 0.8871 0.2444 0.1773
C8M C 0.6815(6) 0.1884(4) 0.2675(3)
N1M N 0.571(2) 0.2636(13) 0.2280(12)
H4M H 0.5391 0.2857 0.2161
H5M H 0.5489 0.2451 0.2477
In1V In 1.1250 0.6250 0.32418(2)
In1W In 0.6250 0.1250 0.32418(2)
O3R O 0.9851(4) 0.3354(3) 0.0401(2)
O3S O 0.7649(4) 0.4146(3) 0.0401(2)
O4R O 0.8514(4) 0.3177(3) 0.0240(2)
O4S O 0.8986(4) 0.4323(3) 0.0240(2)
loop_
_geom_bond_atom_site_label_1
_geom_bond_atom_site_label_2
_geom_bond_site_symmetry_1
_geom_bond_site_symmetry_2
In1 O1 1_555 1_555
O1 C1 1_555 1_555
O2 In1 1_555 1_555
O3 C8 1_555 1_555
O4 C8 1_555 1_555
C1 O2 1_555 1_555
C2 C1 1_555 1_555
C3 C2 1_555 1_555
H1 C3 1_555 1_555
C4 C3 1_555 1_555
C5 C4 1_555 1_555
C6 C5 1_555 1_555
H2 C6 1_555 1_555
C7 C2 1_555 1_555
H3 C7 1_555 1_555
C8 C5 1_555 1_555
N1 C4 1_555 1_555
H4 N1 1_555 1_555
H5 N1 1_555 1_555
N3 H11 1_555 1_555
C13 N3 1_555 1_555
H12 C13 1_555 1_555
H13 C13 1_555 1_555
H14 C13 1_555 1_555
O1M In1 1_555 1_555
O2M In1 1_555 1_555
O3M C8M 1_555 1_555
O4M C8M 1_555 1_555
C1M O1M 1_555 1_555
C2M C1M 1_555 1_555
C3M C2M 1_555 1_555
H1M C3M 1_555 1_555
C4M C3M 1_555 1_555
C5M C4M 1_555 1_555
C6M C5M 1_555 1_555
H2M C6M 1_555 1_555
C7M C2M 1_555 1_555
H3M C7M 1_555 1_555
C8M C5M 1_555 1_555
N1M C4M 1_555 1_555
H4M N1M 1_555 1_555
H5M N1M 1_555 1_555
In1V O3 1_555 1_555
In1W O3M 1_555 1_555
O3R In1 1_555 1_555
O3S In1 1_555 1_555
O4R In1 1_555 1_555
O4S In1 1_555 1_555
H11C N3 1_555 1_555
C13C N3 1_555 1_555
H12C C13C 1_555 1_555
H13C C13C 1_555 1_555
H14C C13C 1_555 1_555
O4 In1V 1_555 1_555
C6 C7 1_555 1_555
O2M C1M 1_555 1_555
O4M In1W 1_555 1_555
C6M C7M 1_555 1_555

#END
