
#######################################################################
#
#                 Cambridge Crystallographic Data Centre
#                                CCDC 
#
#######################################################################
#
# If this CIF has been generated from an entry in the Cambridge 
# Structural Database, then it will include bibliographic, chemical, 
# crystal, experimental, refinement or atomic coordinate data resulting 
# from the CCDC's data processing and validation procedures.
#
#######################################################################

data_IBAQEJ
_chemical_formula_moiety         'C128 H56 F20 N15 O16 Zn11'
_symmetry_cell_setting           orthorhombic
_symmetry_space_group_name_H-M   'P m m m'
_symmetry_Int_Tables_number      47
_space_group_name_Hall           '-P 2 2'
loop_
_symmetry_equiv_pos_site_id
_symmetry_equiv_pos_as_xyz
1 x,y,z
2 -x,-y,z
3 -x,y,-z
4 x,-y,-z
5 -x,-y,-z
6 x,y,-z
7 x,-y,z
8 -x,y,z
_cell_length_a                   16.598(2)
_cell_length_b                   16.643(2)
_cell_length_c                   22.494(3)
_cell_angle_alpha                90
_cell_angle_beta                 90
_cell_angle_gamma                90
_cell_volume                     6213.75
loop_
_atom_site_label
_atom_site_type_symbol
_atom_site_fract_x
_atom_site_fract_y
_atom_site_fract_z
Zn1 Zn 0.0000 0.5000 -0.43470(7)
Zn2 Zn -0.5000 -0.0000 -0.5000
O1 O -0.0825(3) 0.4152(3) -0.4509(3)
O2 O -0.5000 -0.0000 -0.6091(13)
N1 N -0.5000 0.1140(7) -0.5000
N2 N -0.3794(7) -0.0000 -0.5000
C1 C -0.1062(6) 0.3933(6) -0.5000
C2 C -0.1714(6) 0.3274(6) -0.5000
C3 C -0.2026(5) 0.2990(4) -0.4483(4)
H1 H -0.1841 0.3200 -0.4114
C4 C -0.2592(5) 0.2416(4) -0.4490(4)
H2 H -0.2794 0.2223 -0.4122
C5 C -0.2888(5) 0.2098(5) -0.5000
C6 C -0.3527(5) 0.1497(5) -0.5000
C7 C -0.3290(5) 0.0657(5) -0.5000
C8 C -0.2482(6) 0.0405(5) -0.5000
H3 H -0.2021 0.0743 -0.5000
C9 C -0.4317(5) 0.1731(5) -0.5000
C10 C -0.4587(6) 0.2525(6) -0.5000
H4 H -0.4253 0.2989 -0.5000
Zn3 Zn 0.0000 0.5000 0.0000
N3 N -0.0000 0.5000 -0.3436(7)
N4 N -0.0515(19) 0.4380(19) -0.0682(5)
C11 C 0.0577(13) 0.4630(17) -0.3141(10)
H5 H 0.1106 0.4574 -0.3296
C12 C 0.0369(19) 0.4338(14) -0.2604(10)
H6 H 0.0452 0.3816 -0.2445
C13 C -0.0000 0.5000 -0.2346(16)
C14 C -0.0000 0.5000 -0.1675(15)
C15 C -0.038(2) 0.448(2) -0.1270(5)
C16 C -0.097(3) 0.404(3) -0.1600(8)
H7 H -0.1049 0.4058 -0.2019
C17 C -0.140(3) 0.361(3) -0.1204(9)
H8 H -0.1827 0.3246 -0.1296
C18 C -0.111(3) 0.380(3) -0.0609(6)
C19 C -0.121(4) 0.364(4) 0.0000
C20 C -0.186(2) 0.3004(19) 0.0000
C21 C -0.2636(16) 0.334(2) 0.0000
C22 C -0.3319(19) 0.2832(16) 0.0000
C23 C -0.3227(18) 0.1992(16) 0.0000
C24 C -0.2450(14) 0.166(2) 0.0000
C25 C -0.177(2) 0.2158(18) 0.0000
F1 F -0.2733(19) 0.413(2) 0.0000
F2 F -0.406(2) 0.3159(18) 0.0000
F3 F -0.3877(18) 0.1514(18) 0.0000
F4 F -0.2361(18) 0.086(2) 0.0000
F5 F -0.103(2) 0.184(2) 0.0000
Zn1B Zn 0.0000 0.5000 -0.56530(7)
Zn1B_2 Zn 0.0000 -0.5000 -0.56530(7)
Zn1_2 Zn 0.0000 -0.5000 -0.43470(7)
Zn1_3 Zn -1.0000 -0.5000 -0.43470(7)
Zn1B_3 Zn -1.0000 -0.5000 -0.56530(7)
Zn1B_4 Zn -1.0000 0.5000 -0.56530(7)
Zn1_4 Zn -1.0000 0.5000 -0.43470(7)
Zn1B_5 Zn -0.0000 0.5000 0.43470(7)
O1E O -0.0825(3) 0.4152(3) -0.5491(3)
O1C O -0.0825(3) -0.4152(3) -0.5491(3)
O1F O -0.0825(3) -0.4152(3) -0.4509(3)
O1A O -0.9175(3) -0.4152(3) -0.4509(3)
O1D O -0.9175(3) -0.4152(3) -0.5491(3)
O1B O -0.9175(3) 0.4152(3) -0.5491(3)
O1G O -0.9175(3) 0.4152(3) -0.4509(3)
O1G_2 O 0.0825(3) 0.4152(3) -0.4509(3)
O1A_2 O 0.0825(3) 0.5848(3) -0.4509(3)
O1F_2 O -0.0825(3) 0.5848(3) -0.4509(3)
O1B_2 O 0.0825(3) 0.4152(3) -0.5491(3)
O1D_2 O 0.0825(3) 0.5848(3) -0.5491(3)
O1C_2 O -0.0825(3) 0.5848(3) -0.5491(3)
O2B O -0.5000 -0.0000 -0.3909(13)
N1A N -0.5000 -0.1140(7) -0.5000
N2A N -0.6206(7) -0.0000 -0.5000
C1C C -0.1062(6) -0.3933(6) -0.5000
C1A C -0.8938(6) -0.3933(6) -0.5000
C1B C -0.8938(6) 0.3933(6) -0.5000
C2C C -0.1714(6) -0.3274(6) -0.5000
C2A C -0.8286(6) -0.3274(6) -0.5000
C2B C -0.8286(6) 0.3274(6) -0.5000
C3E C -0.2026(5) 0.2990(4) -0.5517(4)
C3C C -0.2026(5) -0.2990(4) -0.5517(4)
C3F C -0.2026(5) -0.2990(4) -0.4483(4)
C3A C -0.7974(5) -0.2990(4) -0.4483(4)
C3D C -0.7974(5) -0.2990(4) -0.5517(4)
C3B C -0.7974(5) 0.2990(4) -0.5517(4)
C3G C -0.7974(5) 0.2990(4) -0.4483(4)
H1E H -0.1841 0.3200 -0.5886
H1F H -0.1841 -0.3200 -0.4114
H1C H -0.1841 -0.3200 -0.5886
H1D H -0.8159 -0.3200 -0.5886
H1A H -0.8159 -0.3200 -0.4114
H1G H -0.8159 0.3200 -0.4114
H1B H -0.8159 0.3200 -0.5886
C4E C -0.2592(5) 0.2416(4) -0.5510(4)
C4C C -0.2592(5) -0.2416(4) -0.5510(4)
C4F C -0.2592(5) -0.2416(4) -0.4490(4)
C4A C -0.7408(5) -0.2416(4) -0.4490(4)
C4D C -0.7408(5) -0.2416(4) -0.5510(4)
C4B C -0.7408(5) 0.2416(4) -0.5510(4)
C4G C -0.7408(5) 0.2416(4) -0.4490(4)
H2E H -0.2794 0.2223 -0.5878
H2F H -0.2794 -0.2223 -0.4122
H2C H -0.2794 -0.2223 -0.5878
H2D H -0.7206 -0.2223 -0.5878
H2A H -0.7206 -0.2223 -0.4122
H2G H -0.7206 0.2223 -0.4122
H2B H -0.7206 0.2223 -0.5878
C5C C -0.2888(5) -0.2098(5) -0.5000
C5A C -0.7112(5) -0.2098(5) -0.5000
C5B C -0.7112(5) 0.2098(5) -0.5000
C6C C -0.3527(5) -0.1497(5) -0.5000
C6A C -0.6473(5) -0.1497(5) -0.5000
C6B C -0.6473(5) 0.1497(5) -0.5000
C7C C -0.3290(5) -0.0657(5) -0.5000
C7A C -0.6710(5) -0.0657(5) -0.5000
C7B C -0.6710(5) 0.0657(5) -0.5000
C8B C -0.7518(6) 0.0405(5) -0.5000
C8A C -0.7518(6) -0.0405(5) -0.5000
C8C C -0.2482(6) -0.0405(5) -0.5000
H3B H -0.7979 0.0743 -0.5000
H3A H -0.7979 -0.0743 -0.5000
H3C H -0.2021 -0.0743 -0.5000
C9C C -0.4317(5) -0.1731(5) -0.5000
C9A C -0.5683(5) -0.1731(5) -0.5000
C9B C -0.5683(5) 0.1731(5) -0.5000
C10B C -0.5413(6) 0.2525(6) -0.5000
C10A C -0.5413(6) -0.2525(6) -0.5000
C10C C -0.4587(6) -0.2525(6) -0.5000
H4B H -0.5747 0.2989 -0.5000
H4A H -0.5747 -0.2989 -0.5000
H4C H -0.4253 -0.2989 -0.5000
N3B N 0.0000 0.5000 0.3436(7)
N3B_2 N 0.0000 0.5000 -0.6564(7)
N4F N -0.0515(19) 0.5620(19) -0.0682(5)
N4A N 0.0515(19) 0.5620(19) -0.0682(5)
N4G N 0.0515(19) 0.4380(19) -0.0682(5)
N4B N 0.0515(19) 0.4380(19) 0.0682(5)
N4C N -0.0515(19) 0.5620(19) 0.0682(5)
N4D N 0.0515(19) 0.5620(19) 0.0682(5)
N4E N -0.0515(19) 0.4380(19) 0.0682(5)
C11A C -0.0577(13) 0.5370(17) -0.3141(10)
C11F C 0.0577(13) 0.5370(17) -0.3141(10)
C11G C -0.0577(13) 0.4630(17) -0.3141(10)
C11B C -0.0577(13) 0.4630(17) 0.3141(10)
C11D C -0.0577(13) 0.5370(17) 0.3141(10)
C11C C 0.0577(13) 0.5370(17) 0.3141(10)
C11E C 0.0577(13) 0.4630(17) 0.3141(10)
H5F H 0.1106 0.5426 -0.3296
H5G H -0.1106 0.4574 -0.3296
H5A H -0.1106 0.5426 -0.3296
H5D H -0.1106 0.5426 0.3296
H5E H 0.1106 0.4574 0.3296
H5C H 0.1106 0.5426 0.3296
H5B H -0.1106 0.4574 0.3296
C12A C -0.0369(19) 0.5662(14) -0.2604(10)
C12F C 0.0369(19) 0.5662(14) -0.2604(10)
C12G C -0.0369(19) 0.4338(14) -0.2604(10)
C12B C -0.0369(19) 0.4338(14) 0.2604(10)
C12D C -0.0369(19) 0.5662(14) 0.2604(10)
C12C C 0.0369(19) 0.5662(14) 0.2604(10)
C12E C 0.0369(19) 0.4338(14) 0.2604(10)
H6F H 0.0452 0.6184 -0.2445
H6G H -0.0452 0.3816 -0.2445
H6D H -0.0452 0.6184 0.2445
H6E H 0.0452 0.3816 0.2445
H6B H -0.0452 0.3816 0.2445
H6C H 0.0452 0.6184 0.2445
H6A H -0.0452 0.6184 -0.2445
C13B C -0.0000 0.5000 0.2346(16)
C14B C -0.0000 0.5000 0.1675(15)
C15F C -0.038(2) 0.552(2) -0.1270(5)
C15A C 0.038(2) 0.552(2) -0.1270(5)
C15G C 0.038(2) 0.448(2) -0.1270(5)
C15B C 0.038(2) 0.448(2) 0.1270(5)
C15C C -0.038(2) 0.552(2) 0.1270(5)
C15E C -0.038(2) 0.448(2) 0.1270(5)
C15D C 0.038(2) 0.552(2) 0.1270(5)
C16F C -0.097(3) 0.596(3) -0.1600(8)
C16A C 0.097(3) 0.596(3) -0.1600(8)
C16G C 0.097(3) 0.404(3) -0.1600(8)
C16C C -0.097(3) 0.596(3) 0.1600(8)
C16D C 0.097(3) 0.596(3) 0.1600(8)
C16E C -0.097(3) 0.404(3) 0.1600(8)
C16B C 0.097(3) 0.404(3) 0.1600(8)
H7G H 0.1049 0.4058 -0.2019
H7E H -0.1049 0.4058 0.2019
H7D H 0.1049 0.5942 0.2019
H7C H -0.1049 0.5942 0.2019
H7B H 0.1049 0.4058 0.2019
H7A H 0.1049 0.5942 -0.2019
H7F H -0.1049 0.5942 -0.2019
C17F C -0.140(3) 0.639(3) -0.1204(9)
C17A C 0.140(3) 0.639(3) -0.1204(9)
C17G C 0.140(3) 0.361(3) -0.1204(9)
C17C C -0.140(3) 0.639(3) 0.1204(9)
C17D C 0.140(3) 0.639(3) 0.1204(9)
C17E C -0.140(3) 0.361(3) 0.1204(9)
C17B C 0.140(3) 0.361(3) 0.1204(9)
H8G H 0.1827 0.3246 -0.1296
H8E H -0.1827 0.3246 0.1296
H8D H 0.1827 0.6754 0.1296
H8C H -0.1827 0.6754 0.1296
H8B H 0.1827 0.3246 0.1296
H8A H 0.1827 0.6754 -0.1296
H8F H -0.1827 0.6754 -0.1296
C18F C -0.111(3) 0.620(3) -0.0609(6)
C18A C 0.111(3) 0.620(3) -0.0609(6)
C18G C 0.111(3) 0.380(3) -0.0609(6)
C18B C 0.111(3) 0.380(3) 0.0609(6)
C18C C -0.111(3) 0.620(3) 0.0609(6)
C18D C 0.111(3) 0.620(3) 0.0609(6)
C18E C -0.111(3) 0.380(3) 0.0609(6)
C19B C 0.121(4) 0.364(4) 0.0000
C19A C 0.121(4) 0.636(4) 0.0000
C19C C -0.121(4) 0.636(4) 0.0000
C20A C 0.186(2) 0.6996(19) 0.0000
C20C C -0.186(2) 0.6996(19) 0.0000
C20B C 0.186(2) 0.3004(19) 0.0000
C21A C 0.2636(16) 0.666(2) 0.0000
C21C C -0.2636(16) 0.666(2) 0.0000
C21B C 0.2636(16) 0.334(2) 0.0000
C22A C 0.3319(19) 0.7168(16) 0.0000
C22C C -0.3319(19) 0.7168(16) 0.0000
C22B C 0.3319(19) 0.2832(16) 0.0000
C23A C 0.3227(18) 0.8008(16) 0.0000
C23C C -0.3227(18) 0.8008(16) 0.0000
C23B C 0.3227(18) 0.1992(16) 0.0000
C24A C 0.2450(14) 0.834(2) 0.0000
C24C C -0.2450(14) 0.834(2) 0.0000
C24B C 0.2450(14) 0.166(2) 0.0000
C25A C 0.177(2) 0.7842(18) 0.0000
C25C C -0.177(2) 0.7842(18) 0.0000
C25B C 0.177(2) 0.2158(18) 0.0000
F1A F 0.2733(19) 0.587(2) 0.0000
F1C F -0.2733(19) 0.587(2) 0.0000
F1B F 0.2733(19) 0.413(2) 0.0000
F2A F 0.406(2) 0.6841(18) 0.0000
F2C F -0.406(2) 0.6841(18) 0.0000
F2B F 0.406(2) 0.3159(18) 0.0000
F3A F 0.3877(18) 0.8486(18) 0.0000
F3C F -0.3877(18) 0.8486(18) 0.0000
F3B F 0.3877(18) 0.1514(18) 0.0000
F4A F 0.2361(18) 0.914(2) 0.0000
F4C F -0.2361(18) 0.914(2) 0.0000
F4B F 0.2361(18) 0.086(2) 0.0000
F5A F 0.103(2) 0.816(2) 0.0000
F5C F -0.103(2) 0.816(2) 0.0000
F5B F 0.103(2) 0.184(2) 0.0000
loop_
_geom_bond_atom_site_label_1
_geom_bond_atom_site_label_2
_geom_bond_site_symmetry_1
_geom_bond_site_symmetry_2
Zn1 O1 1_555 1_555
Zn2 O2 1_555 1_555
O1 C1 1_555 1_555
N1 Zn2 1_555 1_555
N2 Zn2 1_555 1_555
C1 C2 1_555 1_555
C2 C3 1_555 1_555
C3 H1 1_555 1_555
C4 C3 1_555 1_555
H2 C4 1_555 1_555
C5 C4 1_555 1_555
C6 C5 1_555 1_555
C7 N2 1_555 1_555
C8 C7 1_555 1_555
H3 C8 1_555 1_555
C9 N1 1_555 1_555
C10 C9 1_555 1_555
H4 C10 1_555 1_555
Zn3 N4 1_555 1_555
N3 Zn1 1_555 1_555
N4 C15 1_555 1_555
C11 N3 1_555 1_555
H5 C11 1_555 1_555
C12 C11 1_555 1_555
H6 C12 1_555 1_555
C13 C12 1_555 1_555
C14 C13 1_555 1_555
C15 C14 1_555 1_555
C16 C15 1_555 1_555
H7 C16 1_555 1_555
C17 C16 1_555 1_555
H8 C17 1_555 1_555
C18 N4 1_555 1_555
C19 C18 1_555 1_555
C20 C19 1_555 1_555
C21 C20 1_555 1_555
C22 C21 1_555 1_555
C23 C22 1_555 1_555
C24 C23 1_555 1_555
C25 C20 1_555 1_555
F1 C21 1_555 1_555
F2 C22 1_555 1_555
F3 C23 1_555 1_555
F4 C24 1_555 1_555
F5 C25 1_555 1_555
Zn1B O1E 1_555 1_555
Zn1B_2 O1C 1_555 1_555
Zn1_2 O1F 1_555 1_555
Zn1_3 O1A 1_555 1_555
Zn1B_3 O1D 1_555 1_555
Zn1B_4 O1B 1_555 1_555
Zn1_4 O1G 1_555 1_555
Zn1B_5 N3B 1_555 1_555
O1E C1 1_555 1_555
O1C C1C 1_555 1_555
O1F C1C 1_555 1_555
O1A C1A 1_555 1_555
O1D C1A 1_555 1_555
O1B C1B 1_555 1_555
O1G C1B 1_555 1_555
O1G_2 Zn1 1_555 1_555
O1A_2 Zn1 1_555 1_555
O1F_2 Zn1 1_555 1_555
O1B_2 Zn1B 1_555 1_555
O1D_2 Zn1B 1_555 1_555
O1C_2 Zn1B 1_555 1_555
O2B Zn2 1_555 1_555
N1A Zn2 1_555 1_555
N2A Zn2 1_555 1_555
C1C C2C 1_555 1_555
C1A C2A 1_555 1_555
C1B C2B 1_555 1_555
C2C C3C 1_555 1_555
C2A C3A 1_555 1_555
C2B C3B 1_555 1_555
C3E C2 1_555 1_555
C3C H1C 1_555 1_555
C3F C2C 1_555 1_555
C3A H1A 1_555 1_555
C3D C2A 1_555 1_555
C3B H1B 1_555 1_555
C3G C2B 1_555 1_555
H1E C3E 1_555 1_555
H1F C3F 1_555 1_555
H1D C3D 1_555 1_555
H1G C3G 1_555 1_555
C4E C5 1_555 1_555
C4C C3C 1_555 1_555
C4F C3F 1_555 1_555
C4A C3A 1_555 1_555
C4D C3D 1_555 1_555
C4B C3B 1_555 1_555
C4G C3G 1_555 1_555
H2E C4E 1_555 1_555
H2F C4F 1_555 1_555
H2C C4C 1_555 1_555
H2D C4D 1_555 1_555
H2A C4A 1_555 1_555
H2G C4G 1_555 1_555
H2B C4B 1_555 1_555
C5C C4C 1_555 1_555
C5A C4A 1_555 1_555
C5B C4B 1_555 1_555
C6C C5C 1_555 1_555
C6A C5A 1_555 1_555
C6B C5B 1_555 1_555
C7C N2 1_555 1_555
C7A N2A 1_555 1_555
C7B N2A 1_555 1_555
C8B C7B 1_555 1_555
C8A C7A 1_555 1_555
C8C C8 1_555 1_555
H3B C8B 1_555 1_555
H3A C8A 1_555 1_555
H3C C8C 1_555 1_555
C9C N1A 1_555 1_555
C9A N1A 1_555 1_555
C9B N1 1_555 1_555
C10B C10 1_555 1_555
C10A C9A 1_555 1_555
C10C C9C 1_555 1_555
H4B C10B 1_555 1_555
H4A C10A 1_555 1_555
H4C C10C 1_555 1_555
N3B C11B 1_555 1_555
N3B_2 Zn1B 1_555 1_555
N4F Zn3 1_555 1_555
N4A Zn3 1_555 1_555
N4G Zn3 1_555 1_555
N4B Zn3 1_555 1_555
N4C Zn3 1_555 1_555
N4D Zn3 1_555 1_555
N4E Zn3 1_555 1_555
C11A N3 1_555 1_555
C11F N3 1_555 1_555
C11G N3 1_555 1_555
C11B C11D 1_555 1_555
C11D N3B 1_555 1_555
C11C N3B 1_555 1_555
C11E N3B 1_555 1_555
H5F C11F 1_555 1_555
H5G C11G 1_555 1_555
H5A C11A 1_555 1_555
H5D C11D 1_555 1_555
H5E C11E 1_555 1_555
H5C C11C 1_555 1_555
H5B C11B 1_555 1_555
C12A C13 1_555 1_555
C12F C13 1_555 1_555
C12G C12 1_555 1_555
C12B C11B 1_555 1_555
C12D C11D 1_555 1_555
C12C C11C 1_555 1_555
C12E C11E 1_555 1_555
H6F C12F 1_555 1_555
H6G C12G 1_555 1_555
H6D C12D 1_555 1_555
H6E C12E 1_555 1_555
H6B C12B 1_555 1_555
H6C C12C 1_555 1_555
H6A C12A 1_555 1_555
C13B C12B 1_555 1_555
C14B C13B 1_555 1_555
C15F C14 1_555 1_555
C15A C14 1_555 1_555
C15G C14 1_555 1_555
C15B N4B 1_555 1_555
C15C N4C 1_555 1_555
C15E N4E 1_555 1_555
C15D N4D 1_555 1_555
C16F C15F 1_555 1_555
C16A C15A 1_555 1_555
C16G C15G 1_555 1_555
C16C C15C 1_555 1_555
C16D C15D 1_555 1_555
C16E C15E 1_555 1_555
C16B C15B 1_555 1_555
H7G C16G 1_555 1_555
H7E C16E 1_555 1_555
H7D C16D 1_555 1_555
H7C C16C 1_555 1_555
H7B C16B 1_555 1_555
H7A C16A 1_555 1_555
H7F C16F 1_555 1_555
C17F C16F 1_555 1_555
C17A C16A 1_555 1_555
C17G C16G 1_555 1_555
C17C C16C 1_555 1_555
C17D C16D 1_555 1_555
C17E C16E 1_555 1_555
C17B C16B 1_555 1_555
H8G C17G 1_555 1_555
H8E C17E 1_555 1_555
H8D C17D 1_555 1_555
H8C C17C 1_555 1_555
H8B C17B 1_555 1_555
H8A C17A 1_555 1_555
H8F C17F 1_555 1_555
C18F N4F 1_555 1_555
C18A N4A 1_555 1_555
C18G N4G 1_555 1_555
C18B N4B 1_555 1_555
C18C N4C 1_555 1_555
C18D N4D 1_555 1_555
C18E C19 1_555 1_555
C19B C18G 1_555 1_555
C19A C18A 1_555 1_555
C19C C18F 1_555 1_555
C20A C19A 1_555 1_555
C20C C19C 1_555 1_555
C20B C19B 1_555 1_555
C21A C20A 1_555 1_555
C21C C20C 1_555 1_555
C21B C20B 1_555 1_555
C22A C21A 1_555 1_555
C22C C21C 1_555 1_555
C22B C21B 1_555 1_555
C23A C22A 1_555 1_555
C23C C22C 1_555 1_555
C23B C22B 1_555 1_555
C24A C23A 1_555 1_555
C24C C23C 1_555 1_555
C24B C23B 1_555 1_555
C25A C20A 1_555 1_555
C25C C20C 1_555 1_555
C25B C20B 1_555 1_555
F1A C21A 1_555 1_555
F1C C21C 1_555 1_555
F1B C21B 1_555 1_555
F2A C22A 1_555 1_555
F2C C22C 1_555 1_555
F2B C22B 1_555 1_555
F3A C23A 1_555 1_555
F3C C23C 1_555 1_555
F3B C23B 1_555 1_555
F4A C24A 1_555 1_555
F4C C24C 1_555 1_555
F4B C24B 1_555 1_555
F5A C25A 1_555 1_555
F5C C25C 1_555 1_555
F5B C25B 1_555 1_555
C6 C7 1_555 1_555
C6 C9 1_555 1_555
N4 N4G 1_555 1_555
C11 C11F 1_555 1_555
C13 C12G 1_555 1_555
C15 C15F 1_555 1_555
C15 C15G 1_555 1_555
C17 C18 1_555 1_555
C24 C25 1_555 1_555
C3E C4E 1_555 1_555
C4F C5C 1_555 1_555
C4D C5A 1_555 1_555
C4G C5B 1_555 1_555
C6C C7C 1_555 1_555
C6C C9C 1_555 1_555
C6A C7A 1_555 1_555
C6A C9A 1_555 1_555
C6B C7B 1_555 1_555
C6B C9B 1_555 1_555
C7C C8C 1_555 1_555
C8B C8A 1_555 1_555
C9B C10B 1_555 1_555
C10A C10C 1_555 1_555
N4F N4A 1_555 1_555
N4F C15F 1_555 1_555
N4A C15A 1_555 1_555
N4G C15G 1_555 1_555
N4B N4E 1_555 1_555
N4C N4D 1_555 1_555
N4E C18E 1_555 1_555
C11A C11G 1_555 1_555
C11A C12A 1_555 1_555
C11F C12F 1_555 1_555
C11G C12G 1_555 1_555
C11C C11E 1_555 1_555
C12A C12F 1_555 1_555
C12B C12E 1_555 1_555
C12D C12C 1_555 1_555
C12D C13B 1_555 1_555
C12C C13B 1_555 1_555
C12E C13B 1_555 1_555
C14B C15B 1_555 1_555
C14B C15C 1_555 1_555
C14B C15E 1_555 1_555
C14B C15D 1_555 1_555
C15F C15A 1_555 1_555
C15A C15G 1_555 1_555
C15B C15E 1_555 1_555
C15B C15D 1_555 1_555
C15C C15E 1_555 1_555
C15C C15D 1_555 1_555
C17F C18F 1_555 1_555
C17A C18A 1_555 1_555
C17G C18G 1_555 1_555
C17C C18C 1_555 1_555
C17D C18D 1_555 1_555
C17E C18E 1_555 1_555
C17B C18B 1_555 1_555
C18B C19B 1_555 1_555
C18C C19C 1_555 1_555
C18D C19A 1_555 1_555
C24A C25A 1_555 1_555
C24C C25C 1_555 1_555
C24B C25B 1_555 1_555

#END
