
#######################################################################
#
#                 Cambridge Crystallographic Data Centre
#                                CCDC 
#
#######################################################################
#
# If this CIF has been generated from an entry in the Cambridge 
# Structural Database, then it will include bibliographic, chemical, 
# crystal, experimental, refinement or atomic coordinate data resulting 
# from the CCDC's data processing and validation procedures.
#
#######################################################################

data_POXHUG
_chemical_formula_moiety         '(C28 H20 Ag2 Eu2 N4 O18)n'
_symmetry_cell_setting           monoclinic
_symmetry_space_group_name_H-M   'P 21/c'
_symmetry_Int_Tables_number      14
_space_group_name_Hall           '-P 2ybc'
loop_
_symmetry_equiv_pos_site_id
_symmetry_equiv_pos_as_xyz
1 x,y,z
2 -x,1/2+y,1/2-z
3 -x,-y,-z
4 x,1/2-y,1/2+z
_cell_length_a                   9.7109(2)
_cell_length_b                   22.3358(5)
_cell_length_c                   9.1581(2)
_cell_angle_alpha                90
_cell_angle_beta                 117.4850(10)
_cell_angle_gamma                90
_cell_volume                     1762.2
loop_
_atom_site_label
_atom_site_type_symbol
_atom_site_fract_x
_atom_site_fract_y
_atom_site_fract_z
Ag1 Ag 0.32030(4) 0.147838(16) 0.98345(5)
Eu1 Eu -0.35660(2) -0.008620(8) 0.382100(19)
C1 C -0.2429(5) 0.02711(17) 0.7804(4)
C2 C -0.1172(4) 0.06361(17) 0.9152(4)
C3 C -0.1345(5) 0.08322(18) 1.0486(4)
H1 H -0.2218 0.0725 1.0596
C4 C -0.0219(5) 0.1186(2) 1.1650(5)
H2 H -0.0309 0.1316 1.2567
C5 C 0.1038(5) 0.1345(2) 1.1438(5)
H3 H 0.1784 0.1593 1.2218
C6 C 0.0150(5) 0.08011(18) 0.9053(5)
H4 H 0.0288 0.0658 0.8177
C7 C 0.4366(5) 0.27437(18) 0.9791(4)
H5 H 0.3605 0.2824 1.0111
C8 C 0.5179(4) 0.32207(17) 0.9601(4)
C9 C 0.6323(5) 0.3100(2) 0.9140(5)
H6 H 0.6889 0.3409 0.8991
C10 C 0.6602(6) 0.2512(2) 0.8907(6)
H7 H 0.7383 0.2419 0.8625
C11 C 0.5728(6) 0.2066(2) 0.9090(5)
H8 H 0.5914 0.1673 0.8896
C12 C 0.4788(4) 0.38373(17) 0.9922(4)
C13 C -0.0083(4) 0.03436(18) 0.4919(4)
C14 C 0.4801(4) 0.03300(18) 1.0032(4)
N1 N 0.1251(4) 0.11597(16) 1.0162(4)
N2 N 0.4616(4) 0.21723(15) 0.9538(4)
O1 O -0.2101(3) 0.00277(12) 0.6761(3)
O2 O -0.3701(3) 0.02572(13) 0.7824(3)
O3 O 0.3891(3) 0.38922(12) 1.0547(3)
O4 O 0.5380(3) 0.42751(12) 0.9542(3)
O5 O 0.3837(3) 0.05607(12) 0.8683(3)
O6 O 0.5416(3) 0.05916(11) 1.1383(3)
O7 O -0.1424(3) 0.05567(12) 0.4215(3)
O8 O 0.1163(3) 0.06382(12) 0.5499(3)
Ag1B Ag 0.67970(4) -0.147838(16) 1.01655(5)
Ag1B_2 Ag -1.32030(4) -0.147838(16) 0.01655(5)
Ag1A Ag -0.32030(4) -0.352162(16) 0.51655(5)
Eu1B Eu -0.64340(2) 0.008620(8) 0.617900(19)
Eu1A Eu 0.35660(2) 0.491380(8) 1.117900(19)
Eu1C Eu 0.64340(2) 0.508620(8) 0.882100(19)
Eu1B_2 Eu 0.35660(2) 0.008620(8) 0.617900(19)
Eu1_2 Eu 0.64340(2) -0.008620(8) 1.382100(19)
C1B C -0.7571(5) -0.02711(17) 0.2196(4)
C2B C -0.8828(4) -0.06361(17) 0.0848(4)
C3B C -0.8655(5) -0.08322(18) -0.0486(4)
H1B H -0.7782 -0.0725 -0.0596
C4B C -0.9781(5) -0.1186(2) -0.1650(5)
H2B H -0.9691 -0.1316 -0.2567
C5B C -1.1038(5) -0.1345(2) -0.1438(5)
H3B H -1.1784 -0.1593 -0.2218
C6B C -1.0150(5) -0.08011(18) 0.0947(5)
H4B H -1.0288 -0.0658 0.1823
C7A C -0.4366(5) -0.22563(18) 0.5209(4)
H5A H -0.3605 -0.2176 0.4889
C8A C -0.5179(4) -0.17793(17) 0.5399(4)
C9A C -0.6323(5) -0.1900(2) 0.5860(5)
H6A H -0.6889 -0.1591 0.6009
C10A C -0.6602(6) -0.2488(2) 0.6093(6)
H7A H -0.7383 -0.2581 0.6375
C11A C -0.5728(6) -0.2934(2) 0.5910(5)
H8A H -0.5914 -0.3327 0.6104
C12A C -0.4788(4) -0.11627(17) 0.5078(4)
C13B C 0.0083(4) -0.03436(18) 0.5081(4)
C14B C 0.5199(4) -0.03300(18) 0.9968(4)
N1B N -1.1251(4) -0.11597(16) -0.0162(4)
N1B_2 N 0.8749(4) -0.11597(16) 0.9838(4)
N2A N -0.4616(4) -0.28277(15) 0.5462(4)
N2B N 0.5384(4) -0.21723(15) 1.0462(4)
O1B O -0.7899(3) -0.00277(12) 0.3239(3)
O2B O -0.6299(3) -0.02572(13) 0.2176(3)
O3A O -0.3891(3) -0.11078(12) 0.4453(3)
O3C O -0.6109(3) 0.11078(12) 0.5547(3)
O4A O -0.5380(3) -0.07249(12) 0.5458(3)
O4C O -0.4620(3) 0.07249(12) 0.4542(3)
O5B O 0.6163(3) -0.05607(12) 1.1317(3)
O5B_2 O -0.3837(3) -0.05607(12) 0.1317(3)
O5_2 O -0.6163(3) 0.05607(12) 0.8683(3)
O6B O 0.4584(3) -0.05916(11) 0.8617(3)
O6_2 O -0.4584(3) 0.05916(11) 0.1383(3)
O6B_2 O -0.5416(3) -0.05916(11) 0.8617(3)
O7B O 0.1424(3) -0.05567(12) 0.5785(3)
O7B_2 O -0.8576(3) -0.05567(12) 0.5785(3)
O8B O -0.1163(3) -0.06382(12) 0.4501(3)
O8_2 O -0.8837(3) 0.06382(12) 0.5499(3)
O9 O 0.1128(5) 0.19551(19) 0.5604(5)
H9 H 0.1351 0.1605 0.5992
H10 H 0.0499 0.2090 0.5914
O10 O 0.9882(7) 0.2672(2) 0.2806(6)
H11 H 0.9682 0.2362 0.2215
H12 H 1.0165 0.2548 0.3778
loop_
_geom_bond_atom_site_label_1
_geom_bond_atom_site_label_2
_geom_bond_site_symmetry_1
_geom_bond_site_symmetry_2
Ag1 N1 1_555 1_555
Eu1 O1 1_555 1_555
C1 C2 1_555 1_555
C2 C3 1_555 1_555
C3 H1 1_555 1_555
C4 C3 1_555 1_555
H2 C4 1_555 1_555
C5 C4 1_555 1_555
H3 C5 1_555 1_555
C6 C2 1_555 1_555
H4 C6 1_555 1_555
C7 H5 1_555 1_555
C8 C7 1_555 1_555
C9 C8 1_555 1_555
H6 C9 1_555 1_555
C10 C9 1_555 1_555
H7 C10 1_555 1_555
C11 C10 1_555 1_555
H8 C11 1_555 1_555
C12 C8 1_555 1_555
C13 O7 1_555 1_555
C14 O5 1_555 1_555
N1 C5 1_555 1_555
N2 Ag1 1_555 1_555
O1 C1 1_555 1_555
O2 C1 1_555 1_555
O3 C12 1_555 1_555
O4 C12 1_555 1_555
O5 Ag1 1_555 1_555
O6 C14 1_555 1_555
O7 Eu1 1_555 1_555
O8 C13 1_555 1_555
O9 H9 1_555 1_555
H10 O9 1_555 1_555
O10 H11 1_555 1_555
H12 O10 1_555 1_555
Ag1B N1B_2 1_555 1_555
Ag1B_2 N1B 1_555 1_555
Ag1A N2A 1_555 1_555
Eu1B O2 1_555 1_555
Eu1A O3 1_555 1_555
Eu1C O4 1_555 1_555
Eu1B_2 O5 1_555 1_555
Eu1_2 O6 1_555 1_555
C1B C2B 1_555 1_555
C2B C3B 1_555 1_555
C3B H1B 1_555 1_555
C4B C3B 1_555 1_555
H2B C4B 1_555 1_555
C5B C4B 1_555 1_555
H3B C5B 1_555 1_555
C6B C2B 1_555 1_555
H4B C6B 1_555 1_555
C7A H5A 1_555 1_555
C8A C7A 1_555 1_555
C9A C8A 1_555 1_555
H6A C9A 1_555 1_555
C10A C9A 1_555 1_555
H7A C10A 1_555 1_555
C11A C10A 1_555 1_555
H8A C11A 1_555 1_555
C12A C8A 1_555 1_555
C13B C13 1_555 1_555
C14B C14 1_555 1_555
N1B C5B 1_555 1_555
N2A C7A 1_555 1_555
N2B Ag1B 1_555 1_555
O1B Eu1B 1_555 1_555
O2B Eu1 1_555 1_555
O3A Eu1 1_555 1_555
O3C Eu1B 1_555 1_555
O4A Eu1B 1_555 1_555
O4C Eu1 1_555 1_555
O5B Ag1B 1_555 1_555
O5B_2 Eu1 1_555 1_555
O5_2 Eu1B 1_555 1_555
O6B Eu1B_2 1_555 1_555
O6_2 Eu1 1_555 1_555
O6B_2 Eu1B 1_555 1_555
O7B Eu1B_2 1_555 1_555
O7B_2 Eu1B 1_555 1_555
O8B Eu1 1_555 1_555
O8_2 Eu1B 1_555 1_555
C6 N1 1_555 1_555
C7 N2 1_555 1_555
C11 N2 1_555 1_555
O8 Eu1B_2 1_555 1_555
Eu1_2 O5B 1_555 1_555
C1B O1B 1_555 1_555
C1B O2B 1_555 1_555
C6B N1B 1_555 1_555
C11A N2A 1_555 1_555
C12A O3A 1_555 1_555
C12A O4A 1_555 1_555
C13B O7B 1_555 1_555
C13B O8B 1_555 1_555
C14B O5B 1_555 1_555
C14B O6B 1_555 1_555

#END
