
#######################################################################
#
#                 Cambridge Crystallographic Data Centre
#                                CCDC 
#
#######################################################################
#
# If this CIF has been generated from an entry in the Cambridge 
# Structural Database, then it will include bibliographic, chemical, 
# crystal, experimental, refinement or atomic coordinate data resulting 
# from the CCDC's data processing and validation procedures.
#
#######################################################################

data_JAVSUV
_chemical_formula_moiety         '(C5 H3 Al3 F1 N2 O12 P3 1-)n'
_symmetry_cell_setting           triclinic
_symmetry_space_group_name_H-M   'P -1'
_symmetry_Int_Tables_number      2
_space_group_name_Hall           '-P 1'
loop_
_symmetry_equiv_pos_site_id
_symmetry_equiv_pos_as_xyz
1 x,y,z
2 -x,-y,-z
_cell_length_a                   9.0897(9)
_cell_length_b                   9.2075(9)
_cell_length_c                   9.2914(9)
_cell_angle_alpha                76.546(2)
_cell_angle_beta                 87.299(2)
_cell_angle_gamma                89.411(2)
_cell_volume                     755.448
loop_
_atom_site_label
_atom_site_type_symbol
_atom_site_fract_x
_atom_site_fract_y
_atom_site_fract_z
N1 N 0.3860(4) -0.0578(4) 0.2005(4)
C1 C 0.2599(6) -0.1183(6) 0.0279(6)
H1 H 0.1886 -0.1217 -0.0428
N2 N 0.3813(4) -0.2120(4) 0.0612(4)
C2 C 0.4360(4) 0.0175(5) 0.3104(5)
C3 C 0.4529(5) -0.1731(5) 0.1642(5)
H2 H 0.5394 -0.2201 0.2066
C4 C 0.2649(6) -0.0209(6) 0.1179(6)
H3 H 0.1973 0.0575 0.1223
C5 C 0.4220(7) -0.3365(8) -0.0072(7)
P1 P 0.31307(6) -0.38131(6) 0.59715(6)
P2 P -0.11726(6) -0.37208(6) 0.82308(6)
P3 P 0.14609(6) 0.16829(6) 0.64572(6)
Al1 Al 0.06552(7) -0.13236(7) 0.58746(7)
Al2 Al -0.33965(8) -0.37442(8) 0.57431(7)
Al3 Al 0.11894(8) -0.60880(8) 0.84198(8)
F1 F 0.10575(15) 0.01415(15) 0.41624(15)
O1 O 0.23836(19) -0.23205(19) 0.57013(19)
O2 O -0.00152(18) -0.25550(19) 0.76241(18)
O3 O 0.15159(19) -0.00112(18) 0.68785(18)
O4 O -0.25286(18) -0.3571(2) 0.73030(18)
O5 O 0.03237(19) 0.23351(18) 0.53359(18)
O6 O -0.05459(19) -0.52952(19) 0.8372(2)
O7 O 0.1180(2) 0.22281(19) 0.78965(18)
O8 O 0.2497(2) -0.48973(19) 0.73636(19)
O9 O 0.47539(18) -0.3609(2) 0.6230(2)
O10 O 0.3031(2) -0.4521(2) 0.46377(19)
O11 O 0.29997(18) 0.23046(19) 0.58094(19)
O12 O -0.17457(19) -0.3557(2) 0.97658(18)
P3A P -0.14609(6) -0.16829(6) 0.35428(6)
Al1A Al -0.06552(7) 0.13236(7) 0.41254(7)
Al2_2 Al 0.66035(8) -0.37442(8) 0.57431(7)
Al2A Al 0.33965(8) -0.62558(8) 0.42569(7)
Al2A_2 Al 0.33965(8) 0.37442(8) 0.42569(7)
Al3_2 Al 0.11894(8) 0.39120(8) 0.84198(8)
Al3A Al -0.11894(8) -0.39120(8) 1.15802(8)
F1A F -0.10575(15) -0.01415(15) 0.58376(15)
O5A O -0.03237(19) -0.23351(18) 0.46641(18)
O7_2 O 0.1180(2) -0.77719(19) 0.78965(18)
O9_2 O -0.52461(18) -0.3609(2) 0.6230(2)
O10A O -0.3031(2) -0.5479(2) 0.53623(19)
O11A O -0.29997(18) -0.23046(19) 0.41906(19)
O12A O 0.17457(19) -0.6443(2) 1.02342(18)
loop_
_geom_bond_atom_site_label_1
_geom_bond_atom_site_label_2
_geom_bond_site_symmetry_1
_geom_bond_site_symmetry_2
P1 O1 1_555 1_555
P2 O2 1_555 1_555
P3 O3 1_555 1_555
Al1 F1 1_555 1_555
Al2 O4 1_555 1_555
Al3 O6 1_555 1_555
F1 Al1A 1_555 1_555
O1 Al1 1_555 1_555
O2 Al1 1_555 1_555
O3 Al1 1_555 1_555
O4 P2 1_555 1_555
O5 P3 1_555 1_555
O6 P2 1_555 1_555
O7 P3 1_555 1_555
O8 P1 1_555 1_555
O9 P1 1_555 1_555
O10 P1 1_555 1_555
O11 P3 1_555 1_555
O12 P2 1_555 1_555
N1 C2 1_555 1_555
C1 H1 1_555 1_555
N2 C1 1_555 1_555
C3 N1 1_555 1_555
H2 C3 1_555 1_555
C4 N1 1_555 1_555
H3 C4 1_555 1_555
C5 N2 1_555 1_555
P3A O5A 1_555 1_555
Al1A O5 1_555 1_555
Al2_2 O9 1_555 1_555
Al2A O10 1_555 1_555
Al2A_2 O11 1_555 1_555
Al3_2 O7 1_555 1_555
Al3A O12 1_555 1_555
F1A Al1 1_555 1_555
O5A Al1 1_555 1_555
O7_2 Al3 1_555 1_555
O9_2 Al2 1_555 1_555
O10A Al2 1_555 1_555
O11A Al2 1_555 1_555
O12A Al3 1_555 1_555
Al3 O8 1_555 1_555
C1 C4 1_555 1_555
N2 C3 1_555 1_555
P3A O11A 1_555 1_555
Al1A F1A 1_555 1_555

#END
