
#######################################################################
#
#                 Cambridge Crystallographic Data Centre
#                                CCDC 
#
#######################################################################
#
# If this CIF has been generated from an entry in the Cambridge 
# Structural Database, then it will include bibliographic, chemical, 
# crystal, experimental, refinement or atomic coordinate data resulting 
# from the CCDC's data processing and validation procedures.
#
#######################################################################

data_JAVTEG
_chemical_formula_moiety         '(C6 H14 Al4 N2 O20 P5 1-)n'
_symmetry_cell_setting           triclinic
_symmetry_space_group_name_H-M   'P -1'
_symmetry_Int_Tables_number      2
_space_group_name_Hall           '-P 1'
loop_
_symmetry_equiv_pos_site_id
_symmetry_equiv_pos_as_xyz
1 x,y,z
2 -x,-y,-z
_cell_length_a                   9.162(5)
_cell_length_b                   9.291(5)
_cell_length_c                   16.504(5)
_cell_angle_alpha                75.038(5)
_cell_angle_beta                 75.244(5)
_cell_angle_gamma                83.867(5)
_cell_volume                     1311.23
loop_
_atom_site_label
_atom_site_type_symbol
_atom_site_fract_x
_atom_site_fract_y
_atom_site_fract_z
C10 C -0.291(2) 0.826(2) 0.8720(17)
N5 N -0.3061(18) 0.8852(16) 0.7886(12)
C11 C -0.423(2) 0.823(2) 0.7721(18)
C12 C -0.415(2) 0.633(3) 0.9968(15)
N6 N -0.3977(18) 0.7321(18) 0.9116(14)
C13 C -0.476(2) 0.719(2) 0.8521(17)
C14 C -0.196(3) 0.995(3) 0.724(3)
C15 C -0.078(2) 0.916(2) 0.6702(15)
P1 P 0.66579(16) 0.81787(17) 0.47416(11)
P2 P 0.31216(16) 0.58007(17) 0.69359(11)
P3 P 0.13504(17) 0.66364(17) 0.46786(11)
P4 P 0.0217(2) 0.7366(2) 0.99889(12)
P5 P 0.14661(17) 0.5475(2) 0.22546(11)
Al1 Al 0.31406(19) 0.8494(2) 0.53419(13)
Al2 Al -0.10484(19) 0.6112(2) 0.37486(12)
Al3 Al 0.66642(19) 0.5546(2) 0.63477(13)
Al4 Al 0.0702(2) 0.5486(2) 0.85970(14)
O1 O 0.4988(4) 0.8399(5) 0.4749(3)
O2 O 0.0183(5) 0.7112(5) 0.4166(3)
O3 O 0.0713(5) 0.5634(5) 0.5549(3)
O4 O 0.1922(5) 0.8035(5) 0.4804(3)
O5 O 0.7321(4) 0.9704(5) 0.4551(3)
O6 O 0.4784(5) 0.5333(5) 0.6876(3)
O7 O 0.0740(5) 0.4384(5) 0.1934(3)
O8 O 0.7423(5) 0.7383(5) 0.4041(3)
O9 O 0.6843(5) 0.7279(5) 0.5640(3)
O10 O 0.2369(5) 0.4692(5) 0.6687(4)
O11 O 0.2434(5) 0.5878(5) 0.7876(3)
O12 O 0.2733(5) 0.5848(5) 0.4191(3)
O13 O 0.0261(5) 0.6444(5) 0.2715(3)
O14 O 0.3009(5) 0.7377(5) 0.6374(3)
O15 O 0.2516(5) 0.6472(6) 0.1490(3)
O16 O 0.0289(5) 0.6861(6) 0.9170(3)
O17 O -0.0787(5) 0.6294(6) 1.0750(3)
O18 O 0.2370(5) 0.4524(6) 0.2870(3)
O19 O 0.1809(6) 0.7327(6) 1.0110(4)
O20 O -0.0521(8) 0.8903(7) 0.9878(4)
Al1A Al 0.68594(19) 1.1506(2) 0.46581(13)
Al2A Al 0.10484(19) 0.3888(2) 0.62514(12)
Al2_2 Al 0.89516(19) 0.6112(2) 0.37486(12)
Al3A Al 0.33358(19) 0.4454(2) 0.36523(13)
Al4A Al -0.0702(2) 0.4514(2) 0.14030(14)
Al4A_2 Al -0.0702(2) 0.4514(2) 1.14030(14)
O3A O -0.0713(5) 0.4366(5) 0.4451(3)
O5A O 0.2679(4) 1.0296(5) 0.5449(3)
O7A O -0.0740(5) 0.5616(5) 0.8066(3)
O8_2 O -0.2577(5) 0.7383(5) 0.4041(3)
O10A O -0.2369(5) 0.5308(5) 0.3313(4)
O12A O 0.7267(5) 0.4152(5) 0.5809(3)
O17A O 0.0787(5) 0.3706(6) 0.9250(3)
O18A O 0.7630(5) 0.5476(6) 0.7130(3)
loop_
_geom_bond_atom_site_label_1
_geom_bond_atom_site_label_2
_geom_bond_site_symmetry_1
_geom_bond_site_symmetry_2
P1 O1 1_555 1_555
P2 O6 1_555 1_555
P3 O2 1_555 1_555
P4 O16 1_555 1_555
P5 O7 1_555 1_555
Al1 O1 1_555 1_555
Al2 O2 1_555 1_555
Al3 O6 1_555 1_555
Al4 O11 1_555 1_555
O3 P3 1_555 1_555
O4 P3 1_555 1_555
O5 P1 1_555 1_555
O7 Al4A 1_555 1_555
O8 P1 1_555 1_555
O9 P1 1_555 1_555
O10 P2 1_555 1_555
O11 P2 1_555 1_555
O12 P3 1_555 1_555
O13 P5 1_555 1_555
O14 P2 1_555 1_555
O15 P5 1_555 1_555
O16 Al4 1_555 1_555
O17 P4 1_555 1_555
O18 P5 1_555 1_555
O19 P4 1_555 1_555
O20 P4 1_555 1_555
C10 N5 1_555 1_555
N5 C11 1_555 1_555
C11 C13 1_555 1_555
C12 N6 1_555 1_555
N6 C10 1_555 1_555
C13 N6 1_555 1_555
C14 N5 1_555 1_555
C15 C14 1_555 1_555
Al1A O5 1_555 1_555
Al2A O3 1_555 1_555
Al2_2 O8 1_555 1_555
Al3A O12 1_555 1_555
Al4A_2 O17 1_555 1_555
O3A Al2 1_555 1_555
O5A Al1 1_555 1_555
O7A Al4 1_555 1_555
O8_2 Al2 1_555 1_555
O10A Al2 1_555 1_555
O12A Al3 1_555 1_555
O17A Al4 1_555 1_555
O18A Al3 1_555 1_555
Al1 O4 1_555 1_555
Al1 O14 1_555 1_555
Al2 O13 1_555 1_555
Al3 O9 1_555 1_555
O10 Al2A 1_555 1_555
O18 Al3A 1_555 1_555

#END
