
#######################################################################
#
#                 Cambridge Crystallographic Data Centre
#                                CCDC 
#
#######################################################################
#
# If this CIF has been generated from an entry in the Cambridge 
# Structural Database, then it will include bibliographic, chemical, 
# crystal, experimental, refinement or atomic coordinate data resulting 
# from the CCDC's data processing and validation procedures.
#
#######################################################################

data_PIGXAF
_chemical_formula_moiety         '(C11 H10 Cd3 N1 O20 1-)n'
_symmetry_cell_setting           cubic
_symmetry_space_group_name_H-M   'I -4 3 d'
_symmetry_Int_Tables_number      220
_space_group_name_Hall           'I -4bd 2c 3'
loop_
_symmetry_equiv_pos_site_id
_symmetry_equiv_pos_as_xyz
1 x,y,z
2 1/2-x,-y,1/2+z
3 -x,1/2+y,1/2-z
4 1/2+x,1/2-y,-z
5 z,x,y
6 1/2+z,1/2-x,-y
7 1/2-z,-x,1/2+y
8 -z,1/2+x,1/2-y
9 y,z,x
10 -y,1/2+z,1/2-x
11 1/2+y,1/2-z,-x
12 1/2-y,-z,1/2+x
13 1/4+y,1/4+x,1/4+z
14 1/4-y,3/4-x,3/4+z
15 3/4+y,1/4-x,3/4-z
16 3/4-y,3/4+x,1/4-z
17 1/4+x,1/4+z,1/4+y
18 3/4-x,3/4+z,1/4-y
19 1/4-x,3/4-z,3/4+y
20 3/4+x,1/4-z,3/4-y
21 1/4+z,1/4+y,1/4+x
22 3/4+z,1/4-y,3/4-x
23 3/4-z,3/4+y,1/4-x
24 1/4-z,3/4-y,3/4+x
25 1/2+x,1/2+y,1/2+z
26 -x,1/2-y,z
27 1/2-x,y,-z
28 x,-y,1/2-z
29 1/2+z,1/2+x,1/2+y
30 z,-x,1/2-y
31 -z,1/2-x,y
32 1/2-z,x,-y
33 1/2+y,1/2+z,1/2+x
34 1/2-y,z,-x
35 y,-z,1/2-x
36 -y,1/2-z,x
37 3/4+y,3/4+x,3/4+z
38 3/4-y,1/4-x,1/4+z
39 1/4+y,3/4-x,1/4-z
40 1/4-y,1/4+x,3/4-z
41 3/4+x,3/4+z,3/4+y
42 1/4-x,1/4+z,3/4-y
43 3/4-x,1/4-z,1/4+y
44 1/4+x,3/4-z,1/4-y
45 3/4+z,3/4+y,3/4+x
46 1/4+z,3/4-y,1/4-x
47 1/4-z,1/4+y,3/4-x
48 3/4-z,1/4-y,1/4+x
_cell_length_a                   18.518(2)
_cell_length_b                   18.518(2)
_cell_length_c                   18.518(2)
_cell_angle_alpha                90
_cell_angle_beta                 90
_cell_angle_gamma                90
_cell_volume                     6350.12
loop_
_atom_site_label
_atom_site_type_symbol
_atom_site_fract_x
_atom_site_fract_y
_atom_site_fract_z
C2 C 0.7330(19) 0.2670(19) 0.7670(19)
O1 O 0.7981(12) 0.2313(15) 0.7550(15)
O1F O 0.7450(15) 0.2019(12) 0.7313(15)
O1I O 0.7687(15) 0.2550(15) 0.7019(12)
O2 O 0.8335(7) 0.1665(7) 0.6665(7)
Cd1 Cd 1.0000 0.2500 0.3750
Cd2 Cd 1.0000 0.25000(3) 0.5824
O3 O 0.9418(2) 0.2088(3) 0.4833(2)
O4 O 0.8968(4) 0.1777(5) 0.3512(3)
O5 O 0.8006(4) 0.1195(5) 0.3965(3)
O6 O 0.8454(2) 0.1539(3) 0.5309(2)
C3 C 0.8840(3) 0.1732(3) 0.4787(3)
C4 C 0.8585(4) 0.1552(5) 0.4023(4)
Cd2N Cd 1.00000(3) 0.2500 0.1676
Cd2I Cd 0.75000(3) 0.0824 0.5000
Cd2T Cd 0.8324 0.50000(3) 0.2500
Cd2K Cd 1.25000(3) 0.4176 0.5000
Cd2V Cd 1.1676 0.00000(3) 0.2500
O3N O 0.9588(3) 0.3082(2) 0.2667(2)
O3Y O 1.0582(2) 0.2912(3) 0.4833(2)
O3MA O 1.0412(3) 0.1918(2) 0.2667(2)
O3I O 0.7912(3) -0.0167(2) 0.5582(2)
O3FA O 0.7088(3) -0.0167(2) 0.4418(2)
O4N O 0.9277(5) 0.3532(4) 0.3988(3)
O4Y O 1.1032(4) 0.3223(5) 0.3512(3)
O4MA O 1.0723(5) 0.1468(4) 0.3988(3)
O5N O 0.8695(5) 0.4494(4) 0.3535(3)
O5Y O 1.1994(4) 0.3805(5) 0.3965(3)
O5MA O 1.1305(5) 0.0506(4) 0.3535(3)
O5F O 1.1035(3) 0.1994(4) 0.6195(5)
O5BA O 0.8965(3) 0.3006(4) 0.6195(5)
O5Z O 0.6994(4) 0.1195(5) 0.6035(3)
O6N O 0.9039(3) 0.4046(2) 0.2191(2)
O6Y O 1.1546(2) 0.3461(3) 0.5309(2)
O6MA O 1.0961(3) 0.0954(2) 0.2191(2)
O6F O 0.9691(2) 0.1546(2) 0.6539(3)
O6BA O 1.0309(2) 0.3454(2) 0.6539(3)
O6Z O 0.6546(2) 0.1539(3) 0.4691(2)
C3N C 0.9232(3) 0.3660(3) 0.2713(3)
C3Y C 1.1160(3) 0.3268(3) 0.4787(3)
C3MA C 1.0768(3) 0.1340(3) 0.2713(3)
C4N C 0.9052(5) 0.3915(4) 0.3477(4)
C4Y C 1.1415(4) 0.3448(5) 0.4023(4)
C4MA C 1.0948(5) 0.1085(4) 0.3477(4)
C1 C 0.747(4) 0.338(3) 0.5801(10)
N1 N 0.7500 0.333(3) 0.5000
C1Z C 0.753(4) 0.338(3) 0.4199(10)
loop_
_geom_bond_atom_site_label_1
_geom_bond_atom_site_label_2
_geom_bond_site_symmetry_1
_geom_bond_site_symmetry_2
C1 N1 1_555 1_555
N1 C1Z 1_555 1_555
C2 O1 1_555 1_555
O1 O1F 1_555 1_555
Cd1 O3 1_555 1_555
Cd2 O3 1_555 1_555
O3 C3 1_555 1_555
O4 Cd1 1_555 1_555
O5 C4 1_555 1_555
O6 C3 1_555 1_555
C3 C4 1_555 1_555
C4 O4 1_555 1_555
O1F C2 1_555 1_555
O1I C2 1_555 1_555
Cd2N O3N 1_555 1_555
Cd2I O5 1_555 1_555
Cd2T O5N 1_555 1_555
Cd2K O5Y 1_555 1_555
Cd2V O5MA 1_555 1_555
O3N Cd1 1_555 1_555
O3Y Cd1 1_555 1_555
O3MA Cd1 1_555 1_555
O3I Cd2I 1_555 1_555
O3FA Cd2I 1_555 1_555
O4N Cd1 1_555 1_555
O4Y Cd1 1_555 1_555
O4MA Cd1 1_555 1_555
O5N C4N 1_555 1_555
O5Y C4Y 1_555 1_555
O5MA C4MA 1_555 1_555
O5F Cd2 1_555 1_555
O5BA Cd2 1_555 1_555
O5Z Cd2I 1_555 1_555
O6N Cd2T 1_555 1_555
O6Y Cd2K 1_555 1_555
O6MA Cd2V 1_555 1_555
O6F Cd2 1_555 1_555
O6BA Cd2 1_555 1_555
O6Z Cd2I 1_555 1_555
C3N O3N 1_555 1_555
C3Y O3Y 1_555 1_555
C3MA O3MA 1_555 1_555
C4N O4N 1_555 1_555
C4Y O4Y 1_555 1_555
C4MA O4MA 1_555 1_555
O1 O1I 1_555 1_555
Cd2 O3Y 1_555 1_555
O6 Cd2I 1_555 1_555
O1F O1I 1_555 1_555
Cd2N O3MA 1_555 1_555
O6N C3N 1_555 1_555
O6Y C3Y 1_555 1_555
O6MA C3MA 1_555 1_555
C3N C4N 1_555 1_555
C3Y C4Y 1_555 1_555
C3MA C4MA 1_555 1_555

#END
