
#######################################################################
#
#                 Cambridge Crystallographic Data Centre
#                                CCDC 
#
#######################################################################
#
# If this CIF has been generated from an entry in the Cambridge 
# Structural Database, then it will include bibliographic, chemical, 
# crystal, experimental, refinement or atomic coordinate data resulting 
# from the CCDC's data processing and validation procedures.
#
#######################################################################

data_CEJVET
_chemical_formula_moiety         '(C8 H32 Ce4 N4 O36 S8)n'
_symmetry_cell_setting           monoclinic
_symmetry_space_group_name_H-M   'P 21/c'
_symmetry_Int_Tables_number      14
_space_group_name_Hall           '-P 2ybc'
loop_
_symmetry_equiv_pos_site_id
_symmetry_equiv_pos_as_xyz
1 x,y,z
2 -x,1/2+y,1/2-z
3 -x,-y,-z
4 x,1/2-y,1/2+z
_cell_length_a                   16.673(2)
_cell_length_b                   9.5861(13)
_cell_length_c                   22.518(3)
_cell_angle_alpha                90
_cell_angle_beta                 103.956(2)
_cell_angle_gamma                90
_cell_volume                     3492.79
loop_
_atom_site_label
_atom_site_type_symbol
_atom_site_fract_x
_atom_site_fract_y
_atom_site_fract_z
Ce1 Ce 1.073997(17) 0.27212(3) 1.182243(13)
Ce2 Ce 1.236810(17) 0.76501(3) 1.045630(13)
Ce3 Ce 1.332260(18) 0.20132(3) 1.129750(13)
Ce4 Ce 1.467390(17) 0.24150(3) 1.415520(13)
S1 S 1.15950(8) 0.03367(12) 1.10531(6)
S2 S 1.41057(7) 0.83510(12) 1.17018(6)
S3 S 1.01109(8) 0.03416(13) 1.25951(6)
S4 S 1.18159(8) 0.50797(12) 1.11420(6)
S5 S 1.37232(7) 0.47437(12) 1.01547(6)
S6 S 1.37821(8) 0.98881(13) 0.99786(6)
S7 S 0.91322(8) 0.25056(12) 1.07294(6)
S8 S 1.29804(8) 0.29115(13) 1.28031(6)
O1 O 1.0591(2) 0.0184(4) 1.21277(16)
O2 O 0.9854(2) 0.3393(3) 1.07647(16)
O3 O 1.1412(2) 0.5640(4) 1.05371(16)
O4 O 1.4055(3) 0.7560(4) 1.22376(19)
O5 O 0.9284(2) 0.1703(4) 1.13047(16)
O6 O 1.4961(2) 0.8788(4) 1.17227(17)
O7 O 1.4524(2) 0.0569(4) 1.33103(18)
O8 O 1.3856(2) 0.7492(4) 1.11384(19)
O9 O 1.2111(2) 0.0625(4) 1.06072(17)
O10 O 0.8364(2) 0.3338(4) 1.06471(17)
O11 O 1.1622(2) -0.1184(3) 1.11515(17)
O12 O 1.0085(2) 0.1871(4) 1.26966(17)
O13 O 1.3769(2) 0.4156(4) 0.95619(18)
O14 O 1.2986(2) 0.9144(4) 0.98314(17)
O15 O 0.8979(2) 0.1560(4) 1.01964(16)
O16 O 1.3067(3) 0.5775(5) 1.00494(19)
O17 O 1.3552(3) 0.9545(4) 1.1638(2)
O18 O 1.3370(2) 0.2041(4) 1.24053(16)
O19 O 1.3968(2) 0.4352(4) 1.18049(18)
O20 O 1.3288(2) 0.2416(4) 1.34341(18)
O21 O 1.1994(2) 0.1078(4) 1.16220(16)
O22 O 1.2523(2) 0.6017(4) 1.13895(17)
O23 O 1.0758(2) 0.0850(4) 1.08541(18)
O24 O 1.4858(2) 0.1712(4) 1.1721(2)
O25 O 1.2075(2) 0.2760(4) 1.26304(18)
O26 O 1.0493(3) -0.0402(4) 1.31593(18)
O27 O 1.3857(2) 1.0694(4) 0.94533(18)
O28 O 1.1248(3) 0.5047(5) 1.15427(18)
O29 O 0.9277(2) -0.0255(4) 1.23753(18)
O30 O 1.2088(3) 0.3641(4) 1.1085(2)
O31 O 1.4499(3) 0.5357(5) 1.0459(2)
O32 O 1.3218(3) 0.4352(4) 1.2747(2)
O33 O 1.3874(4) 1.0694(7) 1.0518(3)
O34 O 1.4426(3) 0.8779(6) 1.0064(3)
O35 O 1.3495(4) 0.3638(6) 1.0520(3)
O36 O 1.5220(9) 0.2258(14) 1.5360(7)
Ce1A Ce 0.926003(17) -0.22788(3) 1.317757(13)
Ce2B Ce 0.763190(17) 0.23499(3) 0.954370(13)
Ce2_2 Ce 1.236810(17) -0.23499(3) 1.045630(13)
Ce3_2 Ce 1.332260(18) 1.20132(3) 1.129750(13)
Ce4A Ce 1.532610(17) 0.74150(3) 1.084480(13)
Ce4C Ce 1.467390(17) 0.25850(3) 0.915520(13)
Ce4C_2 Ce 1.467390(17) 1.25850(3) 0.915520(13)
O6A O 1.5039(2) 0.3788(4) 1.32773(17)
O8A O 1.6144(2) 0.2492(4) 1.38616(19)
O10B O 1.1636(2) 0.6662(4) 0.93529(17)
O11_2 O 1.1622(2) 0.8816(3) 1.11515(17)
O13C O 1.3769(2) 0.0844(4) 1.45619(18)
O15B O 1.1021(2) 0.8440(4) 0.98036(16)
O17_2 O 1.3552(3) -0.0455(4) 1.1638(2)
O26A O 0.9507(3) 0.4598(4) 1.18407(18)
O27C O 1.3857(2) 0.4306(4) 1.44533(18)
O29A O 1.0723(2) 0.4745(4) 1.26247(18)
O31A O 1.5501(3) 0.0357(5) 1.4541(2)
O33_2 O 1.3874(4) 0.0694(7) 1.0518(3)
O34A O 1.5574(3) 0.3779(6) 1.4936(3)
C1 C 0.9457(4) 0.6617(7) 0.0482(3)
H1 H 0.9612 0.6378 0.0106
H2 H 0.9742 0.5980 0.0797
C2 C 0.8490(4) 0.8501(6) 0.1012(3)
H3 H 0.8238 0.9129 0.0682
H4 H 0.8308 0.8777 0.1372
C3 C 0.9733(4) 0.8049(7) 0.0658(3)
H5 H 1.0330 0.8055 0.0798
H6 H 0.9584 0.8642 0.0299
C4 C 0.8204(4) 0.7054(8) 0.0839(4)
H7 H 0.8323 0.6479 0.1205
H8 H 0.7609 0.7065 0.0679
N1 N 0.8579(4) 0.6428(7) 0.0392(3)
H9 H 0.8329 0.6775 0.0022
H10 H 0.8475 0.5506 0.0383
N2 N 0.9380(4) 0.8635(6) 0.1136(3)
H11 H 0.9608 0.8204 0.1492
H12 H 0.9515 0.9544 0.1181
C5 C 0.8131(5) 0.2961(7) 0.2417(3)
H13 H 0.8621 0.2994 0.2258
H14 H 0.8305 0.3010 0.2860
C6 C 0.7344(5) 0.1561(6) 0.1569(3)
H15 H 0.7020 0.0713 0.1477
H16 H 0.7788 0.1516 0.1360
C7 C 0.7592(4) 0.4184(7) 0.2183(3)
H17 H 0.7904 0.5040 0.2286
H18 H 0.7129 0.4209 0.2374
C8 C 0.6806(5) 0.2796(8) 0.1341(3)
H19 H 0.6603 0.2737 0.0900
H20 H 0.6334 0.2798 0.1522
N3 N 0.7277(4) 0.4079(6) 0.1501(3)
H21 H 0.6952 0.4817 0.1362
H22 H 0.7705 0.4088 0.1323
N4 N 0.7700(5) 0.1652(7) 0.2239(3)
H23 H 0.7291 0.1565 0.2435
H24 H 0.8054 0.0940 0.2357
loop_
_geom_bond_atom_site_label_1
_geom_bond_atom_site_label_2
_geom_bond_site_symmetry_1
_geom_bond_site_symmetry_2
Ce1 O1 1_555 1_555
Ce2 O3 1_555 1_555
Ce3 O9 1_555 1_555
Ce4 O7 1_555 1_555
S1 O9 1_555 1_555
S2 O4 1_555 1_555
S3 O1 1_555 1_555
S4 O3 1_555 1_555
S5 O13 1_555 1_555
S6 O14 1_555 1_555
S7 O2 1_555 1_555
S8 O18 1_555 1_555
O2 Ce1 1_555 1_555
O5 Ce1 1_555 1_555
O6 S2 1_555 1_555
O8 Ce2 1_555 1_555
O10 S7 1_555 1_555
O11 S1 1_555 1_555
O12 Ce1 1_555 1_555
O13 Ce4C 1_555 1_555
O14 Ce2 1_555 1_555
O15 S7 1_555 1_555
O16 Ce2 1_555 1_555
O17 S2 1_555 1_555
O18 Ce3 1_555 1_555
O19 Ce3 1_555 1_555
O20 Ce4 1_555 1_555
O21 Ce1 1_555 1_555
O22 Ce2 1_555 1_555
O23 S1 1_555 1_555
O24 Ce3 1_555 1_555
O25 Ce1 1_555 1_555
O26 S3 1_555 1_555
O27 S6 1_555 1_555
O28 Ce1 1_555 1_555
O29 S3 1_555 1_555
O30 Ce3 1_555 1_555
O31 S5 1_555 1_555
O32 S8 1_555 1_555
O33 S6 1_555 1_555
O34 S6 1_555 1_555
O35 Ce3 1_555 1_555
O36 Ce4 1_555 1_555
C1 H1 1_555 1_555
H2 C1 1_555 1_555
C2 H3 1_555 1_555
H4 C2 1_555 1_555
C3 C1 1_555 1_555
H5 C3 1_555 1_555
H6 C3 1_555 1_555
C4 C2 1_555 1_555
H7 C4 1_555 1_555
H8 C4 1_555 1_555
N1 C1 1_555 1_555
H9 N1 1_555 1_555
H10 N1 1_555 1_555
N2 C2 1_555 1_555
H11 N2 1_555 1_555
H12 N2 1_555 1_555
C5 H13 1_555 1_555
H14 C5 1_555 1_555
C6 H15 1_555 1_555
H16 C6 1_555 1_555
C7 C5 1_555 1_555
H17 C7 1_555 1_555
H18 C7 1_555 1_555
C8 C6 1_555 1_555
H19 C8 1_555 1_555
H20 C8 1_555 1_555
N3 C7 1_555 1_555
H21 N3 1_555 1_555
H22 N3 1_555 1_555
N4 C5 1_555 1_555
H23 N4 1_555 1_555
H24 N4 1_555 1_555
Ce1A O26 1_555 1_555
Ce2B O10 1_555 1_555
Ce2_2 O11 1_555 1_555
Ce3_2 O17 1_555 1_555
Ce4A O6 1_555 1_555
Ce4C_2 O27 1_555 1_555
O6A Ce4 1_555 1_555
O8A Ce4 1_555 1_555
O10B Ce2 1_555 1_555
O11_2 Ce2 1_555 1_555
O13C Ce4 1_555 1_555
O15B Ce2 1_555 1_555
O17_2 Ce3 1_555 1_555
O26A Ce1 1_555 1_555
O27C Ce4 1_555 1_555
O29A Ce1 1_555 1_555
O31A Ce4 1_555 1_555
O33_2 Ce3 1_555 1_555
O34A Ce4 1_555 1_555
Ce3 O21 1_555 1_555
S1 O21 1_555 1_555
S2 O8 1_555 1_555
S3 O12 1_555 1_555
S4 O22 1_555 1_555
S4 O28 1_555 1_555
S4 O30 1_555 1_555
S5 O16 1_555 1_555
S5 O35 1_555 1_555
S7 O5 1_555 1_555
S8 O20 1_555 1_555
S8 O25 1_555 1_555
O8 Ce4A 1_555 1_555
O15 Ce2B 1_555 1_555
O29 Ce1A 1_555 1_555
O31 Ce4A 1_555 1_555
O33 Ce3_2 1_555 1_555
O34 Ce4A 1_555 1_555
C3 N2 1_555 1_555
C4 N1 1_555 1_555
C6 N4 1_555 1_555
C8 N3 1_555 1_555

#END
