
#######################################################################
#
#                 Cambridge Crystallographic Data Centre
#                                CCDC 
#
#######################################################################
#
# If this CIF has been generated from an entry in the Cambridge 
# Structural Database, then it will include bibliographic, chemical, 
# crystal, experimental, refinement or atomic coordinate data resulting 
# from the CCDC's data processing and validation procedures.
#
#######################################################################

data_OSUPID
_chemical_formula_moiety         'C36 H32 Er8 O24 S8'
_symmetry_cell_setting           monoclinic
_symmetry_space_group_name_H-M   'C 2/c'
_symmetry_Int_Tables_number      15
_space_group_name_Hall           '-C 2yc'
loop_
_symmetry_equiv_pos_site_id
_symmetry_equiv_pos_as_xyz
1 x,y,z
2 -x,y,1/2-z
3 1/2+x,1/2+y,z
4 1/2-x,1/2+y,1/2-z
5 -x,-y,-z
6 x,-y,1/2+z
7 1/2-x,1/2-y,-z
8 1/2+x,1/2-y,1/2+z
_cell_length_a                   26.3205(9)
_cell_length_b                   12.2748(3)
_cell_length_c                   19.6085(7)
_cell_angle_alpha                90
_cell_angle_beta                 122.972(3)
_cell_angle_gamma                90
_cell_volume                     5314.74
loop_
_atom_site_label
_atom_site_type_symbol
_atom_site_fract_x
_atom_site_fract_y
_atom_site_fract_z
Er1 Er -0.000637(11) 0.52458(2) 0.125988(15)
O1 O 0.06098(19) 0.4230(4) 0.1030(3)
O2 O 0.04844(19) 0.3725(4) -0.0121(2)
O3 O 0.40078(18) 0.0597(4) 0.2512(2)
O4 O 0.42225(19) 0.1438(4) 0.3621(2)
O5 O -0.0099(2) 0.6748(3) 0.1873(2)
O6 O 0.0121(2) 1.3796(4) 0.2049(3)
O7 O -0.0968(2) 0.5130(4) 0.1106(3)
H1 H -0.1151 0.5611 0.1209
H2 H -0.0796 0.4840 0.1575
O8 O -0.06799(19) 0.3961(4) 0.0181(3)
H3 H -0.0587 0.3438 -0.0016
H4 H -0.0813 0.4325 -0.0253
S1 S 0.1809(3) 0.3531(7) 0.2168(4)
S2 S 0.3120(3) 0.2534(7) 0.3099(4)
S3 S 0.0056(5) 0.9043(7) 0.1759(5)
S4 S 0.0101(8) 1.1574(11) 0.1843(9)
C1 C 0.0774(3) 0.3767(5) 0.0621(4)
C2 C 0.3858(3) 0.1237(5) 0.2873(4)
C3 C 0.1369(3) 0.3240(6) 0.1093(4)
C4 C 0.1679(6) 0.2596(11) 0.0874(10)
C5 C 0.2272(3) 0.2281(7) 0.1475(5)
C6 C 0.2386(3) 0.2742(7) 0.2218(5)
C7 C 0.3264(3) 0.1718(6) 0.2471(4)
C8 C 0.2790(7) 0.1684(14) 0.1680(10)
C9 C 0.1441(7) 0.2225(14) 0.0059(9)
H5 H 0.1223 0.1557 -0.0032
H6 H 0.1768 0.2102 -0.0014
H7 H 0.1173 0.2766 -0.0320
C10 C 0.2782(9) 0.1083(18) 0.1059(11)
H8 H 0.2953 0.1516 0.0824
H9 H 0.2372 0.0896 0.0646
H10 H 0.3016 0.0430 0.1285
C11 C 0.0000 0.7217(6) 0.2500
C12 C -0.0000 1.3332(8) 0.2500
C13 C -0.0000 0.8416(6) 0.2500
C14 C -0.0061(17) 0.917(3) 0.2984(17)
C15 C -0.004(10) 1.029(14) 0.286(13)
C16 C 0.003(9) 1.028(12) 0.219(13)
C17 C 0.0000 1.2132(7) 0.2500
C18 C -0.004(3) 1.140(4) 0.302(3)
C19 C -0.0126(6) 0.8855(11) 0.3677(8)
H11 H -0.0119 0.8074 0.3715
H12 H -0.0505 0.9124 0.3570
H13 H 0.0199 0.9154 0.4180
C20 C -0.0125(7) 1.1585(11) 0.3720(8)
H14 H 0.0210 1.1271 0.4207
H15 H -0.0496 1.1263 0.3608
H16 H -0.0136 1.2356 0.3793
O5A O 0.0099(2) 0.6748(3) 0.3127(2)
O6A O -0.0121(2) 1.3796(4) 0.2951(3)
S3A S -0.0056(5) 0.9043(7) 0.3241(5)
S4A S -0.0101(8) 1.1574(11) 0.3157(9)
C14A C 0.0061(17) 0.917(3) 0.2016(17)
C15A C 0.004(10) 1.029(14) 0.214(13)
C16A C -0.003(9) 1.028(12) 0.281(13)
C18A C 0.004(3) 1.140(4) 0.198(3)
C19A C 0.0126(6) 0.8855(11) 0.1323(8)
H11A H 0.0119 0.8074 0.1285
H12A H 0.0505 0.9124 0.1430
H13A H -0.0199 0.9154 0.0820
C20A C 0.0125(7) 1.1585(11) 0.1280(8)
H14A H -0.0210 1.1271 0.0793
H15A H 0.0496 1.1263 0.1392
H16A H 0.0136 1.2356 0.1207
Er1A Er 0.000637(11) 0.52458(2) 0.374012(15)
O1A O -0.06098(19) 0.4230(4) 0.3970(3)
O2A O -0.04844(19) 0.3725(4) 0.5121(2)
O3A O -0.40078(18) 0.0597(4) 0.2488(2)
O4A O -0.42225(19) 0.1438(4) 0.1379(2)
O7A O 0.0968(2) 0.5130(4) 0.3894(3)
H1A H 0.1151 0.5611 0.3791
H2A H 0.0796 0.4840 0.3425
O8A O 0.06799(19) 0.3961(4) 0.4819(3)
H3A H 0.0587 0.3438 0.5016
H4A H 0.0813 0.4325 0.5253
S1A S -0.1809(3) 0.3531(7) 0.2832(4)
S2A S -0.3120(3) 0.2534(7) 0.1901(4)
C1A C -0.0774(3) 0.3767(5) 0.4379(4)
C2A C -0.3858(3) 0.1237(5) 0.2127(4)
C3A C -0.1369(3) 0.3240(6) 0.3907(4)
C4A C -0.1679(6) 0.2596(11) 0.4126(10)
C5A C -0.2272(3) 0.2281(7) 0.3525(5)
C6A C -0.2386(3) 0.2742(7) 0.2782(5)
C7A C -0.3264(3) 0.1718(6) 0.2529(4)
C8A C -0.2790(7) 0.1684(14) 0.3320(10)
C9A C -0.1441(7) 0.2225(14) 0.4941(9)
H5A H -0.1223 0.1557 0.5032
H6A H -0.1768 0.2102 0.5014
H7A H -0.1173 0.2766 0.5320
C10A C -0.2782(9) 0.1083(18) 0.3941(11)
H8A H -0.2953 0.1516 0.4176
H9A H -0.2372 0.0896 0.4354
H10A H -0.3016 0.0430 0.3715
Er1_2 Er -0.000637(11) 1.52458(2) 0.125988(15)
Er1A_2 Er 0.000637(11) 1.52458(2) 0.374012(15)
Er1B Er -0.500637(11) 0.02458(2) 0.125988(15)
Er1C Er 0.500637(11) 0.02458(2) 0.374012(15)
Er1D Er 0.000637(11) 0.47542(2) -0.125988(15)
Er1E Er -0.000637(11) 0.47542(2) 0.625988(15)
O2D O -0.04844(19) 0.6275(4) 0.0121(2)
O2E O 0.04844(19) 0.6275(4) 0.4879(2)
O3B O -0.09922(18) 0.5597(4) 0.2512(2)
O3C O 0.09922(18) 0.5597(4) 0.2488(2)
O4B O -0.07775(19) 0.6438(4) 0.3621(2)
O4C O 0.07775(19) 0.6438(4) 0.1379(2)
O6_2 O 0.0121(2) 0.3796(4) 0.2049(3)
O6A_2 O -0.0121(2) 0.3796(4) 0.2951(3)
loop_
_geom_bond_atom_site_label_1
_geom_bond_atom_site_label_2
_geom_bond_site_symmetry_1
_geom_bond_site_symmetry_2
Er1 O1 1_555 1_555
O1 C1 1_555 1_555
O2 C1 1_555 1_555
O3 C2 1_555 1_555
O4 C2 1_555 1_555
O5 Er1 1_555 1_555
O6 C12 1_555 1_555
O7 Er1 1_555 1_555
H1 O7 1_555 1_555
H2 O7 1_555 1_555
O8 Er1 1_555 1_555
H3 O8 1_555 1_555
H4 O8 1_555 1_555
S1 C3 1_555 1_555
S2 C6 1_555 1_555
S3 C13 1_555 1_555
S4 C16 1_555 1_555
C1 C3 1_555 1_555
C2 C7 1_555 1_555
C3 C4 1_555 1_555
C4 C5 1_555 1_555
C5 C6 1_555 1_555
C6 S1 1_555 1_555
C7 S2 1_555 1_555
C8 C5 1_555 1_555
C9 C4 1_555 1_555
H5 C9 1_555 1_555
H6 C9 1_555 1_555
H7 C9 1_555 1_555
C10 C8 1_555 1_555
H8 C10 1_555 1_555
H9 C10 1_555 1_555
H10 C10 1_555 1_555
C11 O5 1_555 1_555
C12 C17 1_555 1_555
C13 C11 1_555 1_555
C14 C13 1_555 1_555
C15 C14 1_555 1_555
C16 S3 1_555 1_555
C17 S4 1_555 1_555
C18 C15 1_555 1_555
C19 C14 1_555 1_555
H11 C19 1_555 1_555
H12 C19 1_555 1_555
H13 C19 1_555 1_555
C20 C18 1_555 1_555
H14 C20 1_555 1_555
H15 C20 1_555 1_555
H16 C20 1_555 1_555
O5A C11 1_555 1_555
O6A C12 1_555 1_555
S3A C13 1_555 1_555
S4A C15 1_555 1_555
C14A C13 1_555 1_555
C15A S3 1_555 1_555
C16A C14 1_555 1_555
C18A C16 1_555 1_555
C19A S3 1_555 1_555
H11A C19A 1_555 1_555
H12A C19A 1_555 1_555
H13A C19A 1_555 1_555
C20A S4 1_555 1_555
H14A C20A 1_555 1_555
H15A C20A 1_555 1_555
H16A C20A 1_555 1_555
Er1A O5A 1_555 1_555
O1A Er1A 1_555 1_555
O2A C1A 1_555 1_555
O3A C2A 1_555 1_555
O4A C2A 1_555 1_555
O7A Er1A 1_555 1_555
H1A O7A 1_555 1_555
H2A O7A 1_555 1_555
O8A Er1A 1_555 1_555
H3A O8A 1_555 1_555
H4A O8A 1_555 1_555
S1A C3A 1_555 1_555
S2A C6A 1_555 1_555
C1A O1A 1_555 1_555
C2A C7A 1_555 1_555
C3A C1A 1_555 1_555
C4A C3A 1_555 1_555
C5A C4A 1_555 1_555
C6A S1A 1_555 1_555
C7A S2A 1_555 1_555
C8A C5A 1_555 1_555
C9A C4A 1_555 1_555
H5A C9A 1_555 1_555
H6A C9A 1_555 1_555
H7A C9A 1_555 1_555
C10A C8A 1_555 1_555
H8A C10A 1_555 1_555
H9A C10A 1_555 1_555
H10A C10A 1_555 1_555
Er1_2 O6 1_555 1_555
Er1A_2 O6A 1_555 1_555
Er1B O3A 1_555 1_555
Er1C O3 1_555 1_555
Er1D O2 1_555 1_555
Er1E O2A 1_555 1_555
O2D Er1 1_555 1_555
O2E Er1A 1_555 1_555
O3B Er1A 1_555 1_555
O3C Er1 1_555 1_555
O4B Er1A 1_555 1_555
O4C Er1 1_555 1_555
O6_2 Er1 1_555 1_555
O6A_2 Er1A 1_555 1_555
O4 Er1C 1_555 1_555
S4 C15A 1_555 1_555
C7 C8 1_555 1_555
C15 C16 1_555 1_555
C15 S3A 1_555 1_555
C15 C15A 1_555 1_555
C16 C14A 1_555 1_555
C16 C16A 1_555 1_555
C17 C18 1_555 1_555
C17 S4A 1_555 1_555
C17 C18A 1_555 1_555
C18 C16A 1_555 1_555
C19 S3A 1_555 1_555
C20 S4A 1_555 1_555
S3A C16A 1_555 1_555
S4A C16A 1_555 1_555
C14A C15A 1_555 1_555
C14A C19A 1_555 1_555
C15A C16A 1_555 1_555
C15A C18A 1_555 1_555
C18A C20A 1_555 1_555
O4A Er1B 1_555 1_555
C5A C6A 1_555 1_555
C7A C8A 1_555 1_555

#END
