
#######################################################################
#
#                 Cambridge Crystallographic Data Centre
#                                CCDC 
#
#######################################################################
#
# If this CIF has been generated from an entry in the Cambridge 
# Structural Database, then it will include bibliographic, chemical, 
# crystal, experimental, refinement or atomic coordinate data resulting 
# from the CCDC's data processing and validation procedures.
#
#######################################################################

data_OSUPUP
_chemical_formula_moiety         'C41 H43 N1 O23 S8 Tb8'
_symmetry_cell_setting           monoclinic
_symmetry_space_group_name_H-M   'C 2/c'
_symmetry_Int_Tables_number      15
_space_group_name_Hall           '-C 2yc'
loop_
_symmetry_equiv_pos_site_id
_symmetry_equiv_pos_as_xyz
1 x,y,z
2 -x,y,1/2-z
3 1/2+x,1/2+y,z
4 1/2-x,1/2+y,1/2-z
5 -x,-y,-z
6 x,-y,1/2+z
7 1/2-x,1/2-y,-z
8 1/2+x,1/2-y,1/2+z
_cell_length_a                   25.935(3)
_cell_length_b                   12.3434(4)
_cell_length_c                   22.869(2)
_cell_angle_alpha                90
_cell_angle_beta                 133.605(18)
_cell_angle_gamma                90
_cell_volume                     5301.2
loop_
_atom_site_label
_atom_site_type_symbol
_atom_site_fract_x
_atom_site_fract_y
_atom_site_fract_z
N1 N 0.5740(5) 0.6965(7) 0.6117(5)
O9 O 0.5705(4) 0.6539(6) 0.5132(4)
C21 C 0.5300(6) 0.6042(9) 0.5953(6)
H17 H 0.5444 0.5806 0.6452
H18 H 0.5373 0.5444 0.5741
C22 C 0.4541(6) 0.6341(10) 0.5366(7)
H19 H 0.4485 0.7029 0.5512
H20 H 0.4276 0.5800 0.5367
H21 H 0.4368 0.6390 0.4837
C23 C 0.6036(6) 0.7699(9) 0.6809(7)
H22 H 0.5681 0.7791 0.6836
H23 H 0.6124 0.8405 0.6706
C24 C 0.6718(7) 0.7291(9) 0.7616(7)
H24 H 0.6646 0.6568 0.7704
H25 H 0.6850 0.7757 0.8038
H26 H 0.7090 0.7289 0.7619
C25 C 0.5895(6) 0.7127(9) 0.5678(7)
H27 H 0.6167 0.7732 0.5796
Tb1 Tb 0.877579(18) 0.27606(3) 0.12472(2)
S1 S 0.9195(2) 0.6524(3) 0.1686(2)
S2 S 0.9196(2) 0.9054(3) 0.1729(2)
S3 S 0.8993(2) 0.3954(3) 0.3629(2)
S4 S 0.86513(19) 0.4994(3) 0.4582(2)
O1 O 0.8088(2) 0.3967(4) 0.1370(3)
O2 O 0.9010(2) 0.3133(4) 0.2476(3)
O3 O 0.7085(2) 0.6748(4) 0.3976(3)
O4 O 0.8117(2) 0.6142(4) 0.5134(3)
O5 O 0.9498(2) 0.4270(4) 0.1852(3)
O6 O 0.9404(3) 1.1279(4) 0.2018(3)
O7 O 0.9632(3) 0.2649(4) 0.1143(3)
H1 H 0.9482 0.2214 0.0765
H2 H 1.0025 0.2418 0.1587
O8 O 0.8354(2) 0.1503(4) 0.0154(3)
H3 H 0.8594 0.1314 0.0045
H4 H 0.7913 0.1451 -0.0266
C1 C 0.8477(3) 0.3753(5) 0.2107(4)
C2 C 0.8308(4) 0.4222(6) 0.2552(4)
C3 C 0.8489(8) 0.4635(11) 0.3732(8)
C4 C 0.7877(9) 0.5063(12) 0.3030(10)
C5 C 0.7806(4) 0.5689(6) 0.3935(4)
C6 C 0.7652(4) 0.6230(6) 0.4377(4)
C7 C 1.0000 0.4728(7) 0.2500
C8 C 1.0000 0.5935(7) 0.2500
C9 C 0.9569(7) 0.7780(9) 0.2101(10)
C10 C 1.0280(7) 0.7765(10) 0.2786(11)
C11 C 0.7171(8) 0.5201(11) 0.1511(9)
H5 H 0.7265 0.5073 0.1178
H6 H 0.7106 0.5963 0.1524
H7 H 0.6748 0.4819 0.1293
C12 C 0.6734(8) 0.6103(11) 0.2474(8)
H8 H 0.6502 0.6209 0.2663
H9 H 0.6457 0.5614 0.2024
H10 H 0.6776 0.6786 0.2310
C13 C 1.1283(7) 0.6388(10) 0.3791(8)
H11 H 1.1319 0.6298 0.4235
H12 H 1.1599 0.6955 0.3914
H13 H 1.1412 0.5723 0.3701
C14 C 1.1313(7) 0.9112(10) 0.3781(8)
H14 H 1.1427 0.9831 0.3739
H15 H 1.1616 0.8599 0.3825
H16 H 1.1383 0.9066 0.4251
C15 C 0.7798(7) 0.4799(11) 0.2364(9)
C16 C 0.7482(8) 0.5621(11) 0.3161(8)
C17 C 1.0000 1.0814(7) 0.2500
C18 C 1.0529(7) 0.6681(9) 0.3039(8)
C19 C 1.0539(7) 0.8859(10) 0.3029(8)
C20 C 1.0000 0.9618(7) 0.2500
S1A S 1.0805(2) 0.6524(3) 0.3314(2)
S2A S 1.0804(2) 0.9054(3) 0.3271(2)
O5A O 1.0502(2) 0.4270(4) 0.3148(3)
O6A O 1.0596(3) 1.1279(4) 0.2982(3)
C9A C 1.0431(7) 0.7780(9) 0.2899(10)
C10A C 0.9720(7) 0.7765(10) 0.2214(11)
C13A C 0.8717(7) 0.6388(10) 0.1209(8)
H11A H 0.8681 0.6298 0.0765
H12A H 0.8401 0.6955 0.1086
H13A H 0.8588 0.5723 0.1299
C14A C 0.8687(7) 0.9112(10) 0.1219(8)
H14A H 0.8573 0.9831 0.1261
H15A H 0.8384 0.8599 0.1175
H16A H 0.8617 0.9066 0.0749
C18A C 0.9471(7) 0.6681(9) 0.1961(8)
C19A C 0.9461(7) 0.8859(10) 0.1971(8)
Tb1A Tb 1.122421(18) 0.27606(3) 0.37528(2)
S3A S 1.1007(2) 0.3954(3) 0.1371(2)
S4A S 1.13487(19) 0.4994(3) 0.0418(2)
O1A O 1.1912(2) 0.3967(4) 0.3630(3)
O2A O 1.0990(2) 0.3133(4) 0.2524(3)
O3A O 1.2915(2) 0.6748(4) 0.1024(3)
O4A O 1.1883(2) 0.6142(4) -0.0134(3)
O7A O 1.0368(3) 0.2649(4) 0.3857(3)
H1A H 1.0518 0.2214 0.4235
H2A H 0.9975 0.2418 0.3413
O8A O 1.1646(2) 0.1503(4) 0.4846(3)
H3A H 1.1406 0.1314 0.4955
H4A H 1.2087 0.1451 0.5266
C1A C 1.1523(3) 0.3753(5) 0.2893(4)
C2A C 1.1692(4) 0.4222(6) 0.2448(4)
C3A C 1.1511(8) 0.4635(11) 0.1268(8)
C4A C 1.2123(9) 0.5063(12) 0.1970(10)
C5A C 1.2194(4) 0.5689(6) 0.1065(4)
C6A C 1.2348(4) 0.6230(6) 0.0623(4)
C11A C 1.2829(8) 0.5201(11) 0.3489(9)
H5A H 1.2735 0.5073 0.3822
H6A H 1.2894 0.5963 0.3476
H7A H 1.3252 0.4819 0.3707
C12A C 1.3266(8) 0.6103(11) 0.2526(8)
H8A H 1.3498 0.6209 0.2337
H9A H 1.3543 0.5614 0.2976
H10A H 1.3224 0.6786 0.2690
C15A C 1.2202(7) 0.4799(11) 0.2636(9)
C16A C 1.2518(8) 0.5621(11) 0.1839(8)
Tb1_2 Tb 0.877579(18) 1.27606(3) 0.12472(2)
Tb1A_2 Tb 1.122421(18) 1.27606(3) 0.37528(2)
Tb1B Tb 1.377579(18) 0.77606(3) 0.12472(2)
Tb1C Tb 0.622421(18) 0.77606(3) 0.37528(2)
Tb1D Tb 1.122421(18) 0.72394(3) -0.12472(2)
Tb1E Tb 0.877579(18) 0.72394(3) 0.62472(2)
O3B O 1.2085(2) 0.1748(4) 0.3976(3)
O3C O 0.7915(2) 0.1748(4) 0.1024(3)
O4D O 1.1883(2) 0.3858(4) 0.4866(3)
O4E O 0.8117(2) 0.3858(4) 0.0134(3)
O6_2 O 0.9404(3) 0.1279(4) 0.2018(3)
O6A_2 O 1.0596(3) 0.1279(4) 0.2982(3)
loop_
_geom_bond_atom_site_label_1
_geom_bond_atom_site_label_2
_geom_bond_site_symmetry_1
_geom_bond_site_symmetry_2
Tb1 O1 1_555 1_555
S1 C8 1_555 1_555
S2 C9 1_555 1_555
S3 C2 1_555 1_555
S4 C3 1_555 1_555
O1 C1 1_555 1_555
O2 Tb1 1_555 1_555
O3 C6 1_555 1_555
O4 C6 1_555 1_555
O5 Tb1 1_555 1_555
O6 C17 1_555 1_555
O7 Tb1 1_555 1_555
H1 O7 1_555 1_555
H2 O7 1_555 1_555
O8 Tb1 1_555 1_555
H3 O8 1_555 1_555
H4 O8 1_555 1_555
C1 O2 1_555 1_555
C2 C1 1_555 1_555
C3 S3 1_555 1_555
C4 C3 1_555 1_555
C5 S4 1_555 1_555
C6 C5 1_555 1_555
C7 O5 1_555 1_555
C8 C7 1_555 1_555
C9 S1 1_555 1_555
C10 C9 1_555 1_555
C11 H5 1_555 1_555
H6 C11 1_555 1_555
H7 C11 1_555 1_555
C12 H8 1_555 1_555
H9 C12 1_555 1_555
H10 C12 1_555 1_555
C13 H11 1_555 1_555
H12 C13 1_555 1_555
H13 C13 1_555 1_555
C14 H14 1_555 1_555
H15 C14 1_555 1_555
H16 C14 1_555 1_555
C15 C2 1_555 1_555
C16 C4 1_555 1_555
C17 C20 1_555 1_555
C18 C8 1_555 1_555
C19 C10 1_555 1_555
C20 S2 1_555 1_555
N1 C21 1_555 1_555
O9 C25 1_555 1_555
C21 H17 1_555 1_555
H18 C21 1_555 1_555
C22 C21 1_555 1_555
H19 C22 1_555 1_555
H20 C22 1_555 1_555
H21 C22 1_555 1_555
C23 N1 1_555 1_555
H22 C23 1_555 1_555
H23 C23 1_555 1_555
C24 C23 1_555 1_555
H24 C24 1_555 1_555
H25 C24 1_555 1_555
H26 C24 1_555 1_555
C25 N1 1_555 1_555
H27 C25 1_555 1_555
S1A C8 1_555 1_555
S2A C10 1_555 1_555
O5A C7 1_555 1_555
O6A C17 1_555 1_555
C9A C9 1_555 1_555
C10A S1 1_555 1_555
C13A S1 1_555 1_555
H11A C13A 1_555 1_555
H12A C13A 1_555 1_555
H13A C13A 1_555 1_555
C14A S2 1_555 1_555
H14A C14A 1_555 1_555
H15A C14A 1_555 1_555
H16A C14A 1_555 1_555
C18A S1 1_555 1_555
C19A S2 1_555 1_555
Tb1A O5A 1_555 1_555
S3A C2A 1_555 1_555
S4A C3A 1_555 1_555
O1A Tb1A 1_555 1_555
O2A Tb1A 1_555 1_555
O3A C6A 1_555 1_555
O4A C6A 1_555 1_555
O7A Tb1A 1_555 1_555
H1A O7A 1_555 1_555
H2A O7A 1_555 1_555
O8A Tb1A 1_555 1_555
H3A O8A 1_555 1_555
H4A O8A 1_555 1_555
C1A O1A 1_555 1_555
C2A C1A 1_555 1_555
C3A S3A 1_555 1_555
C4A C3A 1_555 1_555
C5A S4A 1_555 1_555
C6A C5A 1_555 1_555
C11A H5A 1_555 1_555
H6A C11A 1_555 1_555
H7A C11A 1_555 1_555
C12A H8A 1_555 1_555
H9A C12A 1_555 1_555
H10A C12A 1_555 1_555
C15A C2A 1_555 1_555
C16A C4A 1_555 1_555
Tb1_2 O6 1_555 1_555
Tb1A_2 O6A 1_555 1_555
Tb1B O3A 1_555 1_555
Tb1C O3 1_555 1_555
Tb1D O4A 1_555 1_555
Tb1E O4 1_555 1_555
O3B Tb1A 1_555 1_555
O3C Tb1 1_555 1_555
O4D Tb1A 1_555 1_555
O4E Tb1 1_555 1_555
O6_2 Tb1 1_555 1_555
O6A_2 Tb1A 1_555 1_555
S2 C10A 1_555 1_555
C4 C15 1_555 1_555
C5 C16 1_555 1_555
C8 C18A 1_555 1_555
C9 C18A 1_555 1_555
C9 C19A 1_555 1_555
C10 C18 1_555 1_555
C10 S1A 1_555 1_555
C10 C10A 1_555 1_555
C11 C15 1_555 1_555
C12 C16 1_555 1_555
C13 C18 1_555 1_555
C13 S1A 1_555 1_555
C14 C19 1_555 1_555
C14 S2A 1_555 1_555
C18 S1A 1_555 1_555
C18 C9A 1_555 1_555
C19 C20 1_555 1_555
C19 S2A 1_555 1_555
C19 C9A 1_555 1_555
C20 S2A 1_555 1_555
C20 C19A 1_555 1_555
S1A C9A 1_555 1_555
S2A C9A 1_555 1_555
C9A C10A 1_555 1_555
C10A C18A 1_555 1_555
C10A C19A 1_555 1_555
C13A C18A 1_555 1_555
C14A C19A 1_555 1_555
O2A C1A 1_555 1_555
C4A C15A 1_555 1_555
C5A C16A 1_555 1_555
C11A C15A 1_555 1_555
C12A C16A 1_555 1_555

#END
