
#######################################################################
#
#                 Cambridge Crystallographic Data Centre
#                                CCDC 
#
#######################################################################
#
# If this CIF has been generated from an entry in the Cambridge 
# Structural Database, then it will include bibliographic, chemical, 
# crystal, experimental, refinement or atomic coordinate data resulting 
# from the CCDC's data processing and validation procedures.
#
#######################################################################

data_HOCDOU
_chemical_formula_moiety         '(C12 H20 Mn5 N6 O29 P2 2-)n'
_symmetry_cell_setting           triclinic
_symmetry_space_group_name_H-M   'P -1'
_symmetry_Int_Tables_number      2
_space_group_name_Hall           '-P 1'
loop_
_symmetry_equiv_pos_site_id
_symmetry_equiv_pos_as_xyz
1 x,y,z
2 -x,-y,-z
_cell_length_a                   9.7205(6)
_cell_length_b                   9.7468(6)
_cell_length_c                   10.8926(5)
_cell_angle_alpha                83.989(4)
_cell_angle_beta                 75.467(5)
_cell_angle_gamma                78.545(5)
_cell_volume                     977.447
loop_
_atom_site_label
_atom_site_type_symbol
_atom_site_fract_x
_atom_site_fract_y
_atom_site_fract_z
Mn1 Mn 0.5000 0.0000 1.0000
Mn2 Mn 0.36465(5) 0.25534(5) 0.52307(5)
Mn3 Mn 0.24086(5) 0.55013(5) 0.28165(5)
P1 P 0.47556(9) -0.02251(8) 0.69689(8)
H1 H 0.593(3) 0.0421(16) 0.6686(7)
O1 O 0.4174(3) -0.0237(3) 0.8398(2)
O2 O 0.3679(2) 0.0608(2) 0.6254(2)
O3 O 0.5276(3) -0.1717(2) 0.6539(2)
O4 O 0.7021(2) 0.0461(2) 0.8782(2)
O5 O 0.8004(2) 0.2221(2) 0.7697(2)
O6 O 0.4571(2) 0.2323(2) 0.9679(2)
O7 O 0.5654(2) 0.4039(2) 0.8580(2)
O8 O 0.0299(2) 0.5540(3) 0.2417(2)
O9 O -0.2046(2) 0.6386(3) 0.3111(2)
O10 O 0.0802(2) 0.6259(2) 0.4553(2)
O11 O -0.1545(2) 0.7089(2) 0.5247(2)
O12 O 0.3755(2) 0.4724(2) 0.4186(2)
O13 O 0.4643(2) 0.6651(2) 0.4237(2)
O14 O 0.3056(3) 0.3448(2) 0.2029(2)
H2 H 0.3523 0.2809 0.2436
H3 H 0.3404 0.3288 0.1253
C1 C 0.6998(3) 0.1731(3) 0.8432(3)
C2 C 0.5608(4) 0.2792(3) 0.8937(3)
C3 C -0.0765(3) 0.6107(3) 0.3219(3)
C4 C -0.0472(3) 0.6511(3) 0.4452(3)
C5 C 0.4536(3) 0.5411(3) 0.4547(3)
O12A O 0.6245(2) 0.5276(2) 0.5814(2)
O13A O 0.5357(2) 0.3349(2) 0.5763(2)
C5A C 0.5464(3) 0.4589(3) 0.5453(3)
Mn2A Mn -0.36465(5) 0.74466(5) 0.47693(5)
Mn3A Mn -0.24086(5) 0.44987(5) 0.71835(5)
P1A P -0.47556(9) 1.02251(8) 0.30311(8)
H1A H -0.593(3) 0.9579(16) 0.3314(7)
O1A O -0.4174(3) 1.0237(3) 0.1602(2)
O2A O -0.3679(2) 0.9392(2) 0.3746(2)
O3A O -0.5276(3) 1.1717(2) 0.3461(2)
O8A O -0.0299(2) 0.4460(3) 0.7583(2)
O9A O 0.2046(2) 0.3614(3) 0.6889(2)
O10A O -0.0802(2) 0.3741(2) 0.5447(2)
O11A O 0.1545(2) 0.2911(2) 0.4753(2)
O14A O -0.3056(3) 0.6552(2) 0.7971(2)
H2A H -0.3523 0.7191 0.7564
H3A H -0.3404 0.6712 0.8747
C3A C 0.0765(3) 0.3893(3) 0.6781(3)
C4A C 0.0472(3) 0.3489(3) 0.5548(3)
O4A O 0.2979(2) -0.0461(2) 1.1218(2)
O5A O 0.1996(2) -0.2221(2) 1.2303(2)
O6A O 0.5429(2) -0.2323(2) 1.0321(2)
O7A O 0.4346(2) -0.4039(2) 1.1420(2)
C1A C 0.3002(3) -0.1731(3) 1.1568(3)
C2A C 0.4392(4) -0.2792(3) 1.1063(3)
Mn1_2 Mn -0.5000 1.0000 0.0000
Mn2_2 Mn -0.63535(5) 1.25534(5) 0.52307(5)
Mn2A_2 Mn 0.63535(5) -0.25534(5) 0.47693(5)
Mn2A_3 Mn 0.63535(5) 0.74466(5) 0.47693(5)
Mn3_2 Mn 0.24086(5) -0.44987(5) 1.28165(5)
Mn3A_2 Mn 0.75914(5) 0.44987(5) 0.71835(5)
O1A_2 O 0.5826(3) 0.0237(3) 1.1602(2)
O3_2 O -0.4724(3) 0.8283(2) 0.6539(2)
O3A_2 O 0.4724(3) 0.1717(2) 0.3461(2)
O5_2 O -0.1996(2) 0.2221(2) 0.7697(2)
O5A_2 O 0.1996(2) 0.7779(2) 0.2303(2)
O7_2 O -0.4346(2) 0.4039(2) 0.8580(2)
O7A_2 O 0.4346(2) 0.5961(2) 0.1420(2)
O12A_2 O -0.3755(2) 0.5276(2) 0.5814(2)
O13_2 O -0.5357(2) 0.6651(2) 0.4237(2)
O15 O 0.1399(4) 0.1712(5) 0.9369(4)
H4 H 0.1496 0.2526 0.9484
H5 H 0.2035 0.1488 0.8548
N1 N 0.9253(3) -0.0261(3) 0.2926(3)
H6 H 0.9965 -0.0750 0.2423
H7 H 0.8406 -0.0474 0.3085
N2 N 0.8354(4) 0.1583(4) 0.4202(3)
H8 H 0.8482 0.2299 0.4530
H9 H 0.7508 0.1368 0.4359
N3 N 1.0750(3) 0.1137(4) 0.3212(4)
H10 H 1.1463 0.0649 0.2708
H11 H 1.0885 0.1839 0.3557
C6 C 0.9459(4) 0.0812(4) 0.3454(4)
N4 N 0.2951(9) -0.4228(12) 0.8127(9)
N5 N 0.0503(7) -0.3575(7) 0.8947(6)
N6 N 0.1854(6) -0.2191(5) 0.9238(4)
H12 H 0.2563 -0.1742 0.8996
H13 H 0.1066 -0.1819 0.9741
C7 C 0.1970(6) -0.3384(5) 0.8857(5)
loop_
_geom_bond_atom_site_label_1
_geom_bond_atom_site_label_2
_geom_bond_site_symmetry_1
_geom_bond_site_symmetry_2
Mn1 O1 1_555 1_555
Mn2 O2 1_555 1_555
Mn3 O8 1_555 1_555
P1 H1 1_555 1_555
O1 P1 1_555 1_555
O2 P1 1_555 1_555
O3 P1 1_555 1_555
O4 Mn1 1_555 1_555
O5 C1 1_555 1_555
O6 Mn1 1_555 1_555
O7 C2 1_555 1_555
O8 C3 1_555 1_555
O9 C3 1_555 1_555
O10 Mn3 1_555 1_555
O11 C4 1_555 1_555
O12 Mn2 1_555 1_555
O13 C5 1_555 1_555
O14 Mn3 1_555 1_555
H2 O14 1_555 1_555
H3 O14 1_555 1_555
C1 O4 1_555 1_555
C2 O6 1_555 1_555
C3 C4 1_555 1_555
C4 O10 1_555 1_555
C5 O12 1_555 1_555
O15 H4 1_555 1_555
H5 O15 1_555 1_555
N1 H6 1_555 1_555
H7 N1 1_555 1_555
N2 H8 1_555 1_555
H9 N2 1_555 1_555
N3 H10 1_555 1_555
H11 N3 1_555 1_555
C6 N1 1_555 1_555
N4 C7 1_555 1_555
N5 C7 1_555 1_555
N6 H12 1_555 1_555
H13 N6 1_555 1_555
C7 N6 1_555 1_555
O12A C5A 1_555 1_555
O13A Mn2 1_555 1_555
C5A C5 1_555 1_555
Mn2A O9 1_555 1_555
Mn3A O8A 1_555 1_555
P1A H1A 1_555 1_555
O1A P1A 1_555 1_555
O2A Mn2A 1_555 1_555
O3A P1A 1_555 1_555
O8A C3A 1_555 1_555
O9A Mn2 1_555 1_555
O10A Mn3A 1_555 1_555
O11A Mn2 1_555 1_555
O14A Mn3A 1_555 1_555
H2A O14A 1_555 1_555
H3A O14A 1_555 1_555
C3A O9A 1_555 1_555
C4A O10A 1_555 1_555
O4A Mn1 1_555 1_555
O5A C1A 1_555 1_555
O6A Mn1 1_555 1_555
O7A C2A 1_555 1_555
C1A O4A 1_555 1_555
C2A O6A 1_555 1_555
Mn1_2 O1A 1_555 1_555
Mn2_2 O3A 1_555 1_555
Mn2A_2 O3 1_555 1_555
Mn2A_3 O13 1_555 1_555
Mn3_2 O5A 1_555 1_555
Mn3A_2 O5 1_555 1_555
O1A_2 Mn1 1_555 1_555
O3_2 Mn2A 1_555 1_555
O3A_2 Mn2 1_555 1_555
O5_2 Mn3A 1_555 1_555
O5A_2 Mn3 1_555 1_555
O7_2 Mn3A 1_555 1_555
O7A_2 Mn3 1_555 1_555
O12A_2 Mn2A 1_555 1_555
O13_2 Mn2A 1_555 1_555
Mn3 O12 1_555 1_555
O7 Mn3A_2 1_555 1_555
O11 Mn2A 1_555 1_555
C1 C2 1_555 1_555
N2 C6 1_555 1_555
N3 C6 1_555 1_555
O12A Mn2A_3 1_555 1_555
O12A Mn3A_2 1_555 1_555
O13A C5A 1_555 1_555
Mn3A O12A_2 1_555 1_555
P1A O2A 1_555 1_555
O11A C4A 1_555 1_555
C3A C4A 1_555 1_555
O7A Mn3_2 1_555 1_555
C1A C2A 1_555 1_555

#END
