
#######################################################################
#
#                 Cambridge Crystallographic Data Centre
#                                CCDC 
#
#######################################################################
#
# If this CIF has been generated from an entry in the Cambridge 
# Structural Database, then it will include bibliographic, chemical, 
# crystal, experimental, refinement or atomic coordinate data resulting 
# from the CCDC's data processing and validation procedures.
#
#######################################################################

data_NIRKAB
_chemical_formula_moiety         'C8 H2 Al82 N3 O244 P48'
_symmetry_cell_setting           rhombohedral
_symmetry_space_group_name_H-M   'R -3'
_symmetry_Int_Tables_number      148
_space_group_name_Hall           '-R 3'
loop_
_symmetry_equiv_pos_site_id
_symmetry_equiv_pos_as_xyz
1 x,y,z
2 -y,x-y,z
3 -x+y,-x,z
4 2/3+x,1/3+y,1/3+z
5 2/3-y,1/3+x-y,1/3+z
6 2/3-x+y,1/3-x,1/3+z
7 1/3+x,2/3+y,2/3+z
8 1/3-y,2/3+x-y,2/3+z
9 1/3-x+y,2/3-x,2/3+z
10 -x,-y,-z
11 y,-x+y,-z
12 x-y,x,-z
13 1/3-x,2/3-y,2/3-z
14 1/3+y,2/3-x+y,2/3-z
15 1/3+x-y,2/3+x,2/3-z
16 2/3-x,1/3-y,1/3-z
17 2/3+y,1/3-x+y,1/3-z
18 2/3+x-y,1/3+x,1/3-z
_cell_length_a                   13.736(3)
_cell_length_b                   13.736(3)
_cell_length_c                   15.170(2)
_cell_angle_alpha                90
_cell_angle_beta                 90
_cell_angle_gamma                120.00
_cell_volume                     2478.77
loop_
_atom_site_label
_atom_site_type_symbol
_atom_site_fract_x
_atom_site_fract_y
_atom_site_fract_z
C2 C 0.870(4) 0.961(5) 0.646(3)
N1 N 0.856(6) 1.145(6) 0.652(5)
C3 C 0.891(7) 1.050(7) 0.651(5)
C4 C 0.871(4) 0.898(5) 0.647(3)
C2B C 1.091(6) 1.130(4) 0.646(3)
C2A C 1.039(5) 0.909(6) 0.646(3)
N1O N 0.811(6) 1.188(6) 0.681(5)
N1A N 0.855(6) 0.711(8) 0.652(5)
C3A C 0.950(7) 0.841(10) 0.651(5)
C3O C 0.776(7) 1.283(7) 0.682(5)
C4B C 1.027(6) 1.129(4) 0.647(3)
O5 O 0.0000 0.0000 0.0000
Al1 Al -0.00313(10) 0.22868(10) 0.10029(8)
P1 P 0.22862(9) 0.23197(9) 0.10520(7)
O1 O 0.1234(3) 0.2400(3) 0.1282(2)
O2 O 0.3251(3) 0.3137(3) 0.1672(2)
O3 O 0.2020(3) 0.1096(3) 0.1195(3)
O4 O 0.2652(3) 0.2692(3) 0.0087(2)
Al1P Al -0.10465(10) 0.56514(14) 0.23304(8)
Al1A Al -0.22868(10) -0.23181(14) 0.10029(8)
Al1K Al -0.23181(14) -0.00313(10) -0.10029(8)
Al1Q Al 0.43486(14) 0.33020(10) 0.23304(8)
Al1O Al -0.33020(10) 0.10465(10) 0.23304(8)
Al1G Al 0.10465(10) 0.43486(14) -0.23304(8)
Al1B Al 0.23181(14) 0.00313(10) 0.10029(8)
Al1J Al 0.22868(10) 0.23181(14) -0.10029(8)
Al1E Al -0.10152(14) 0.33646(10) 0.43362(8)
Al1B_2 Al 0.23181(14) 1.00313(10) 0.10029(8)
Al1Q_2 Al -0.56514(14) 0.33020(10) 0.23304(8)
Al1C Al -0.33646(10) 0.56201(10) 0.43362(8)
Al1Q_3 Al -0.56514(14) -0.66980(10) 0.23304(8)
Al1I Al 0.00313(10) -0.22868(10) -0.10029(8)
Al1F Al -0.66980(10) -0.10465(10) -0.23304(8)
Al1O_2 Al 0.66980(10) 0.10465(10) 0.23304(8)
Al1D Al 0.43799(10) 0.10152(14) 0.43362(8)
Al1H Al 0.56514(14) 0.66980(10) -0.23304(8)
Al1L Al 0.33646(10) 0.43799(10) -0.43362(8)
Al1L_2 Al 0.33646(10) 0.43799(10) 0.56638(8)
Al1A_2 Al -0.22868(10) 0.76819(14) 0.10029(8)
Al1N Al 0.10152(14) 0.66354(10) 0.56638(8)
Al1P_2 Al -0.10465(10) -0.43486(14) 0.23304(8)
Al1H_2 Al -0.43486(14) -0.33020(10) -0.23304(8)
Al1A_3 Al 0.77132(10) 0.76819(14) 0.10029(8)
Al1B_3 Al -0.76819(14) 0.00313(10) 0.10029(8)
Al1M Al -0.43799(10) -0.10152(14) 0.56638(8)
Al1I_2 Al 0.00313(10) 0.77132(10) -0.10029(8)
Al1E_2 Al -0.10152(14) 0.33646(10) -0.56638(8)
Al1F_2 Al 0.33020(10) -0.10465(10) -0.23304(8)
Al1P_3 Al 0.89535(10) 0.56514(14) 0.23304(8)
Al1C_2 Al 0.66354(10) 0.56201(10) 0.43362(8)
Al1D_2 Al -0.56201(10) 0.10152(14) 0.43362(8)
Al1F_3 Al 0.33020(10) 0.89535(10) -0.23304(8)
Al1N_2 Al 0.10152(14) 0.66354(10) -0.43362(8)
Al1C_3 Al -0.33646(10) -0.43799(10) 0.43362(8)
Al1M_2 Al -0.43799(10) -0.10152(14) -0.43362(8)
Al1G_2 Al 0.10465(10) 0.43486(14) 0.76696(8)
Al1O_3 Al 0.66980(10) 1.10465(10) 0.23304(8)
Al1_2 Al -0.00313(10) 1.22868(10) 0.10029(8)
Al1J_2 Al 0.22868(10) 1.23181(14) -0.10029(8)
Al1_3 Al -1.00313(10) 0.22868(10) 0.10029(8)
Al1M_3 Al -0.43799(10) 0.89848(14) 0.56638(8)
Al1_4 Al -1.00313(10) -0.77132(10) 0.10029(8)
Al1O_4 Al -0.33020(10) -0.89535(10) 0.23304(8)
Al1D_3 Al -0.56201(10) -0.89848(14) 0.43362(8)
Al1G_3 Al 0.10465(10) -0.56514(14) -0.23304(8)
Al1Q_4 Al 0.43486(14) 1.33020(10) 0.23304(8)
Al1D_4 Al 0.43799(10) 1.10152(14) 0.43362(8)
Al1J_3 Al -0.77132(10) 0.23181(14) -0.10029(8)
Al1L_3 Al -0.66354(10) 0.43799(10) 0.56638(8)
Al1H_3 Al -0.43486(14) 0.66980(10) 0.76696(8)
Al1B_4 Al -0.76819(14) -0.99687(10) 0.10029(8)
Al1J_4 Al -0.77132(10) -0.76819(14) -0.10029(8)
Al1L_4 Al -0.66354(10) -0.56201(10) 0.56638(8)
Al1N_3 Al 0.10152(14) -0.33646(10) -0.43362(8)
Al1I_3 Al -0.99687(10) -0.22868(10) -0.10029(8)
Al1G_4 Al -0.89535(10) -0.56514(14) -0.23304(8)
Al1N_4 Al -0.89848(14) -0.33646(10) -0.43362(8)
Al1D_5 Al -0.56201(10) 0.10152(14) -0.56638(8)
Al1A_4 Al 0.77132(10) -0.23181(14) 0.10029(8)
Al1_5 Al 0.99687(10) 0.22868(10) 0.10029(8)
Al1K_2 Al 0.76819(14) -0.00313(10) -0.10029(8)
Al1E_3 Al 0.89848(14) 0.33646(10) 0.43362(8)
Al1M_4 Al 0.56201(10) -0.10152(14) 0.56638(8)
Al1N_5 Al 0.10152(14) -0.33646(10) 0.56638(8)
Al1F_4 Al 0.33020(10) -0.10465(10) 0.76696(8)
Al1I_4 Al 1.00313(10) 0.77132(10) -0.10029(8)
Al1K_3 Al 0.76819(14) 0.99687(10) -0.10029(8)
Al1M_5 Al 0.56201(10) 0.89848(14) -0.43362(8)
Al1C_4 Al 0.66354(10) 0.56201(10) -0.56638(8)
Al1D_6 Al 0.43799(10) 0.10152(14) -0.56638(8)
Al1Q_5 Al 0.43486(14) 0.33020(10) -0.76696(8)
Al1M_6 Al 0.56201(10) 0.89848(14) 0.56638(8)
Al1H_4 Al 0.56514(14) 0.66980(10) 0.76696(8)
Al1J_5 Al 0.22868(10) 0.23181(14) 0.89971(8)
Al1O_5 Al -0.33020(10) 1.10465(10) 0.23304(8)
Al1K_4 Al -0.23181(14) 0.99687(10) -0.10029(8)
Al1H_5 Al -0.43486(14) 0.66980(10) -0.23304(8)
Al1F_5 Al 0.33020(10) 0.89535(10) 0.76696(8)
Al1I_5 Al 0.00313(10) 0.77132(10) 0.89971(8)
P1P P -0.10136(9) 0.33668(13) 0.22813(7)
P1A P -0.23197(9) -0.00335(13) 0.10520(7)
P1K P -0.00335(13) 0.22862(9) -0.10520(7)
P1B P 0.00335(13) 0.77138(9) 0.10520(7)
P1Q P -0.33668(13) 0.56195(9) 0.22813(7)
P1C P -0.10471(9) 0.56530(9) 0.43853(7)
P1Q_2 P -0.33668(13) -0.43805(9) 0.22813(7)
P1B_2 P 0.00335(13) -0.22862(9) 0.10520(7)
P1I P -0.22862(9) -0.23197(9) -0.10520(7)
P1F P -0.43805(9) -0.10136(9) -0.22813(7)
P1Q_3 P 0.66332(13) 0.56195(9) 0.22813(7)
P1O P 0.43805(9) 0.10136(9) 0.22813(7)
P1D P 0.43470(9) 0.32998(13) 0.43853(7)
P1O_2 P -0.56195(9) 0.10136(9) 0.22813(7)
P1E P -0.32998(13) 0.10471(9) 0.43853(7)
P1G P 0.10136(9) 0.66332(13) -0.22813(7)
P1H P 0.33668(13) 0.43805(9) -0.22813(7)
P1L P 0.10471(9) 0.43470(9) -0.43853(7)
P1J P 0.23197(9) 0.00335(13) -0.10520(7)
P1L_2 P 0.10471(9) 0.43470(9) 0.56147(7)
P1O_3 P 0.43805(9) 1.10136(9) 0.22813(7)
P1_2 P 0.22862(9) 1.23197(9) 0.10520(7)
P1J_2 P 0.23197(9) 1.00335(13) -0.10520(7)
P1_3 P -0.77138(9) 0.23197(9) 0.10520(7)
P1D_2 P -0.56530(9) 0.32998(13) 0.43853(7)
P1M P -0.43470(9) 0.67002(13) 0.56147(7)
P1_4 P -0.77138(9) -0.76803(9) 0.10520(7)
P1O_4 P -0.56195(9) -0.89864(9) 0.22813(7)
P1D_3 P -0.56530(9) -0.67002(13) 0.43853(7)
P1G_2 P 0.10136(9) -0.33668(13) -0.22813(7)
P1J_3 P -0.76803(9) 0.00335(13) -0.10520(7)
P1G_3 P -0.89864(9) -0.33668(13) -0.22813(7)
P1N P -0.67002(13) -0.10471(9) -0.43853(7)
P1A_2 P 0.76803(9) -0.00335(13) 0.10520(7)
P1P_2 P 0.89864(9) 0.33668(13) 0.22813(7)
P1E_2 P 0.67002(13) 0.10471(9) 0.43853(7)
P1N_2 P 0.32998(13) -0.10471(9) 0.56147(7)
P1I_2 P 0.77138(9) 0.76803(9) -0.10520(7)
P1F_2 P 0.56195(9) 0.89864(9) -0.22813(7)
P1M_2 P 0.56530(9) 0.67002(13) -0.43853(7)
P1D_4 P 0.43470(9) 0.32998(13) -0.56147(7)
P1M_3 P 0.56530(9) 0.67002(13) 0.56147(7)
P1H_2 P 0.33668(13) 0.43805(9) 0.77187(7)
P1A_3 P -0.23197(9) 0.99665(13) 0.10520(7)
P1I_3 P -0.22862(9) 0.76803(9) -0.10520(7)
P1N_3 P 0.32998(13) 0.89529(9) 0.56147(7)
P1G_4 P 0.10136(9) 0.66332(13) 0.77187(7)
O1P O -0.0933(3) 0.4499(4) 0.2051(2)
O1A O -0.2400(3) -0.1166(4) 0.1282(2)
O1K O -0.1166(4) 0.1234(3) -0.1282(2)
O1B O 0.1166(4) 0.8766(3) 0.1282(2)
O1Q O -0.4499(4) 0.4567(3) 0.2051(2)
O1C O -0.2099(3) 0.5733(3) 0.4615(2)
O1Q_2 O -0.4499(4) -0.5433(3) 0.2051(2)
O1B_2 O 0.1166(4) -0.1234(3) 0.1282(2)
O1I O -0.1234(3) -0.2400(3) -0.1282(2)
O1F O -0.5433(3) -0.0933(3) -0.2051(2)
O1Q_3 O 0.5501(4) 0.4567(3) 0.2051(2)
O1O O 0.5433(3) 0.0933(3) 0.2051(2)
O1D O 0.4267(3) 0.2167(4) 0.4615(2)
O1O_2 O -0.4567(3) 0.0933(3) 0.2051(2)
O1E O -0.2167(4) 0.2099(3) 0.4615(2)
O1G O 0.0933(3) 0.5501(4) -0.2051(2)
O1H O 0.4499(4) 0.5433(3) -0.2051(2)
O1L O 0.2099(3) 0.4267(3) -0.4615(2)
O1J O 0.2400(3) 0.1166(4) -0.1282(2)
O1L_2 O 0.2099(3) 0.4267(3) 0.5385(2)
O1O_3 O 0.5433(3) 1.0933(3) 0.2051(2)
O1_2 O 0.1234(3) 1.2400(3) 0.1282(2)
O1J_2 O 0.2400(3) 1.1166(4) -0.1282(2)
O1_3 O -0.8766(3) 0.2400(3) 0.1282(2)
O1D_2 O -0.5733(3) 0.2167(4) 0.4615(2)
O1M O -0.4267(3) 0.7833(4) 0.5385(2)
O1_4 O -0.8766(3) -0.7600(3) 0.1282(2)
O1O_4 O -0.4567(3) -0.9067(3) 0.2051(2)
O1D_3 O -0.5733(3) -0.7833(4) 0.4615(2)
O1G_2 O 0.0933(3) -0.4499(4) -0.2051(2)
O1J_3 O -0.7600(3) 0.1166(4) -0.1282(2)
O1G_3 O -0.9067(3) -0.4499(4) -0.2051(2)
O1N O -0.7833(4) -0.2099(3) -0.4615(2)
O1A_2 O 0.7600(3) -0.1166(4) 0.1282(2)
O1P_2 O 0.9067(3) 0.4499(4) 0.2051(2)
O1E_2 O 0.7833(4) 0.2099(3) 0.4615(2)
O1N_2 O 0.2167(4) -0.2099(3) 0.5385(2)
O1I_2 O 0.8766(3) 0.7600(3) -0.1282(2)
O1F_2 O 0.4567(3) 0.9067(3) -0.2051(2)
O1M_2 O 0.5733(3) 0.7833(4) -0.4615(2)
O1D_4 O 0.4267(3) 0.2167(4) -0.5385(2)
O1M_3 O 0.5733(3) 0.7833(4) 0.5385(2)
O1H_2 O 0.4499(4) 0.5433(3) 0.7949(2)
O1A_3 O -0.2400(3) 0.8834(4) 0.1282(2)
O1I_3 O -0.1234(3) 0.7600(3) -0.1282(2)
O1N_3 O 0.2167(4) 0.7901(3) 0.5385(2)
O1G_4 O 0.0933(3) 0.5501(4) 0.7949(2)
O1P_3 O -0.0933(3) -0.5501(4) 0.2051(2)
O1H_3 O -0.5501(4) -0.4567(3) -0.2051(2)
O1A_4 O 0.7600(3) 0.8834(4) 0.1282(2)
O1B_3 O -0.8834(4) -0.1234(3) 0.1282(2)
O1M_4 O -0.4267(3) -0.2167(4) 0.5385(2)
O1E_3 O -0.2167(4) 0.2099(3) -0.5385(2)
O1F_3 O 0.4567(3) -0.0933(3) -0.2051(2)
O1C_2 O 0.7901(3) 0.5733(3) 0.4615(2)
O1N_4 O 0.2167(4) 0.7901(3) -0.4615(2)
O1C_3 O -0.2099(3) -0.4267(3) 0.4615(2)
O1M_5 O -0.4267(3) -0.2167(4) -0.4615(2)
O2P O -0.0196(3) 0.3219(4) 0.1661(2)
O2A O -0.3137(3) 0.0114(4) 0.1672(2)
O2K O 0.0114(4) 0.3251(3) -0.1672(2)
O2B O -0.0114(4) 0.6749(3) 0.1672(2)
O2Q O -0.3219(4) 0.6584(3) 0.1661(2)
O2C O -0.0082(3) 0.6470(3) 0.5005(2)
O2Q_2 O -0.3219(4) -0.3416(3) 0.1661(2)
O2B_2 O -0.0114(4) -0.3251(3) 0.1672(2)
O2I O -0.3251(3) -0.3137(3) -0.1672(2)
O2F O -0.3416(3) -0.0196(3) -0.1661(2)
O2Q_3 O 0.6781(4) 0.6584(3) 0.1661(2)
O2O O 0.3416(3) 0.0196(3) 0.1661(2)
O2D O 0.3530(3) 0.3447(4) 0.5005(2)
O2O_2 O -0.6584(3) 0.0196(3) 0.1661(2)
O2E O -0.3447(4) 0.0082(3) 0.5005(2)
O2G O 0.0196(3) 0.6781(4) -0.1661(2)
O2H O 0.3219(4) 0.3416(3) -0.1661(2)
O2L O 0.0082(3) 0.3530(3) -0.5005(2)
O2J O 0.3137(3) -0.0114(4) -0.1672(2)
O2L_2 O 0.0082(3) 0.3530(3) 0.4995(2)
O2O_3 O 0.3416(3) 1.0196(3) 0.1661(2)
O2_2 O 0.3251(3) 1.3137(3) 0.1672(2)
O2J_2 O 0.3137(3) 0.9886(4) -0.1672(2)
O2_3 O -0.6749(3) 0.3137(3) 0.1672(2)
O2D_2 O -0.6470(3) 0.3447(4) 0.5005(2)
O2M O -0.3530(3) 0.6553(4) 0.4995(2)
O2_4 O -0.6749(3) -0.6863(3) 0.1672(2)
O2O_4 O -0.6584(3) -0.9804(3) 0.1661(2)
O2D_3 O -0.6470(3) -0.6553(4) 0.5005(2)
O2G_2 O 0.0196(3) -0.3219(4) -0.1661(2)
O2J_3 O -0.6863(3) -0.0114(4) -0.1672(2)
O2G_3 O -0.9804(3) -0.3219(4) -0.1661(2)
O2N O -0.6553(4) -0.0082(3) -0.5005(2)
O2A_2 O 0.6863(3) 0.0114(4) 0.1672(2)
O2P_2 O 0.9804(3) 0.3219(4) 0.1661(2)
O2E_2 O 0.6553(4) 0.0082(3) 0.5005(2)
O2N_2 O 0.3447(4) -0.0082(3) 0.4995(2)
O2I_2 O 0.6749(3) 0.6863(3) -0.1672(2)
O2F_2 O 0.6584(3) 0.9804(3) -0.1661(2)
O2M_2 O 0.6470(3) 0.6553(4) -0.5005(2)
O2D_4 O 0.3530(3) 0.3447(4) -0.4995(2)
O2M_3 O 0.6470(3) 0.6553(4) 0.4995(2)
O2H_2 O 0.3219(4) 0.3416(3) 0.8339(2)
O2A_3 O -0.3137(3) 1.0114(4) 0.1672(2)
O2I_3 O -0.3251(3) 0.6863(3) -0.1672(2)
O2N_3 O 0.3447(4) 0.9918(3) 0.4995(2)
O2G_4 O 0.0196(3) 0.6781(4) 0.8339(2)
O2B_3 O 0.9886(4) 0.6749(3) 0.1672(2)
O2N_4 O -0.6553(4) -0.0082(3) 0.4995(2)
O2C_2 O -0.0082(3) 0.6470(3) -0.4995(2)
O2M_4 O -0.3530(3) -0.3447(4) 0.4995(2)
O2E_3 O -0.3447(4) 0.0082(3) -0.4995(2)
O2K_2 O 0.0114(4) 0.3251(3) 0.8328(2)
O2A_4 O 0.6863(3) 1.0114(4) 0.1672(2)
O2P_3 O -0.0196(3) 1.3219(4) 0.1661(2)
O2H_3 O 0.3219(4) 1.3416(3) -0.1661(2)
O2P_4 O -1.0196(3) 0.3219(4) 0.1661(2)
O2E_4 O -0.3447(4) 1.0082(3) 0.5005(2)
O2P_5 O -1.0196(3) -0.6781(4) 0.1661(2)
O2A_5 O -0.3137(3) -0.9886(4) 0.1672(2)
O2N_5 O -0.6553(4) -1.0082(3) 0.4995(2)
O2K_3 O 0.0114(4) -0.6749(3) -0.1672(2)
O3P O -0.2237(3) 0.2409(4) 0.2138(3)
O3A O -0.1096(3) 0.0924(4) 0.1195(3)
O3K O 0.0924(4) 0.2020(3) -0.1195(3)
O3B O -0.0924(4) 0.7980(3) 0.1195(3)
O3Q O -0.2409(4) 0.5353(3) 0.2138(3)
O3C O -0.1313(3) 0.4429(3) 0.4528(3)
O3Q_2 O -0.2409(4) -0.4647(3) 0.2138(3)
O3B_2 O -0.0924(4) -0.2020(3) 0.1195(3)
O3I O -0.2020(3) -0.1096(3) -0.1195(3)
O3F O -0.4647(3) -0.2237(3) -0.2138(3)
O3Q_3 O 0.7591(4) 0.5353(3) 0.2138(3)
O3O O 0.4647(3) 0.2237(3) 0.2138(3)
O3D O 0.5571(3) 0.4257(4) 0.4528(3)
O3O_2 O -0.5353(3) 0.2237(3) 0.2138(3)
O3E O -0.4257(4) 0.1313(3) 0.4528(3)
O3G O 0.2237(3) 0.7591(4) -0.2138(3)
O3H O 0.2409(4) 0.4647(3) -0.2138(3)
O3L O 0.1313(3) 0.5571(3) -0.4528(3)
O3J O 0.1096(3) -0.0924(4) -0.1195(3)
O3L_2 O 0.1313(3) 0.5571(3) 0.5472(3)
O3O_3 O 0.4647(3) 1.2237(3) 0.2138(3)
O3_2 O 0.2020(3) 1.1096(3) 0.1195(3)
O3J_2 O 0.1096(3) 0.9076(4) -0.1195(3)
O3_3 O -0.7980(3) 0.1096(3) 0.1195(3)
O3D_2 O -0.4429(3) 0.4257(4) 0.4528(3)
O3M O -0.5571(3) 0.5743(4) 0.5472(3)
O3_4 O -0.7980(3) -0.8904(3) 0.1195(3)
O3O_4 O -0.5353(3) -0.7763(3) 0.2138(3)
O3D_3 O -0.4429(3) -0.5743(4) 0.4528(3)
O3G_2 O 0.2237(3) -0.2409(4) -0.2138(3)
O3J_3 O -0.8904(3) -0.0924(4) -0.1195(3)
O3G_3 O -0.7763(3) -0.2409(4) -0.2138(3)
O3N O -0.5743(4) -0.1313(3) -0.4528(3)
O3A_2 O 0.8904(3) 0.0924(4) 0.1195(3)
O3P_2 O 0.7763(3) 0.2409(4) 0.2138(3)
O3E_2 O 0.5743(4) 0.1313(3) 0.4528(3)
O3N_2 O 0.4257(4) -0.1313(3) 0.5472(3)
O3I_2 O 0.7980(3) 0.8904(3) -0.1195(3)
O3F_2 O 0.5353(3) 0.7763(3) -0.2138(3)
O3M_2 O 0.4429(3) 0.5743(4) -0.4528(3)
O3D_4 O 0.5571(3) 0.4257(4) -0.5472(3)
O3M_3 O 0.4429(3) 0.5743(4) 0.5472(3)
O3H_2 O 0.2409(4) 0.4647(3) 0.7862(3)
O3A_3 O -0.1096(3) 1.0924(4) 0.1195(3)
O3I_3 O -0.2020(3) 0.8904(3) -0.1195(3)
O3N_3 O 0.4257(4) 0.8687(3) 0.5472(3)
O3G_4 O 0.2237(3) 0.7591(4) 0.7862(3)
O3B_3 O 0.9076(4) 0.7980(3) 0.1195(3)
O3N_4 O -0.5743(4) -0.1313(3) 0.5472(3)
O3C_2 O -0.1313(3) 0.4429(3) -0.5472(3)
O3P_3 O 0.7763(3) 1.2409(4) 0.2138(3)
O3K_2 O 0.0924(4) 1.2020(3) -0.1195(3)
O3A_4 O -1.1096(3) 0.0924(4) 0.1195(3)
O3N_5 O -0.5743(4) 0.8687(3) 0.5472(3)
O3A_5 O -1.1096(3) -0.9076(4) 0.1195(3)
O3P_4 O -0.2237(3) -0.7591(4) 0.2138(3)
O3E_3 O -0.4257(4) -0.8687(3) 0.4528(3)
O3H_3 O 0.2409(4) -0.5353(3) -0.2138(3)
O4P O -0.0641(3) 0.3373(4) 0.3246(2)
O4A O -0.2692(3) -0.0040(4) 0.0087(2)
O4K O -0.0040(4) 0.2652(3) -0.0087(2)
O4B O 0.0040(4) 0.7348(3) 0.0087(2)
O4Q O -0.3373(4) 0.5985(3) 0.3246(2)
O4C O -0.0681(3) 0.6025(3) 0.3420(2)
O4Q_2 O -0.3373(4) -0.4015(3) 0.3246(2)
O4B_2 O 0.0040(4) -0.2652(3) 0.0087(2)
O4I O -0.2652(3) -0.2692(3) -0.0087(2)
O4F O -0.4015(3) -0.0641(3) -0.3246(2)
O4Q_3 O 0.6627(4) 0.5985(3) 0.3246(2)
O4O O 0.4015(3) 0.0641(3) 0.3246(2)
O4D O 0.3975(3) 0.3293(4) 0.3420(2)
O4O_2 O -0.5985(3) 0.0641(3) 0.3246(2)
O4E O -0.3293(4) 0.0681(3) 0.3420(2)
O4G O 0.0641(3) 0.6627(4) -0.3246(2)
O4H O 0.3373(4) 0.4015(3) -0.3246(2)
O4L O 0.0681(3) 0.3975(3) -0.3420(2)
O4J O 0.2692(3) 0.0040(4) -0.0087(2)
O4L_2 O 0.0681(3) 0.3975(3) 0.6580(2)
O4O_3 O 0.4015(3) 1.0641(3) 0.3246(2)
O4_2 O 0.2652(3) 1.2692(3) 0.0087(2)
O4J_2 O 0.2692(3) 1.0040(4) -0.0087(2)
O4_3 O -0.7348(3) 0.2692(3) 0.0087(2)
O4D_2 O -0.6025(3) 0.3293(4) 0.3420(2)
O4M O -0.3975(3) 0.6707(4) 0.6580(2)
O4_4 O -0.7348(3) -0.7308(3) 0.0087(2)
O4O_4 O -0.5985(3) -0.9359(3) 0.3246(2)
O4D_3 O -0.6025(3) -0.6707(4) 0.3420(2)
O4G_2 O 0.0641(3) -0.3373(4) -0.3246(2)
O4J_3 O -0.7308(3) 0.0040(4) -0.0087(2)
O4G_3 O -0.9359(3) -0.3373(4) -0.3246(2)
O4N O -0.6707(4) -0.0681(3) -0.3420(2)
O4A_2 O 0.7308(3) -0.0040(4) 0.0087(2)
O4P_2 O 0.9359(3) 0.3373(4) 0.3246(2)
O4E_2 O 0.6707(4) 0.0681(3) 0.3420(2)
O4N_2 O 0.3293(4) -0.0681(3) 0.6580(2)
O4I_2 O 0.7348(3) 0.7308(3) -0.0087(2)
O4F_2 O 0.5985(3) 0.9359(3) -0.3246(2)
O4M_2 O 0.6025(3) 0.6707(4) -0.3420(2)
O4D_4 O 0.3975(3) 0.3293(4) -0.6580(2)
O4M_3 O 0.6025(3) 0.6707(4) 0.6580(2)
O4H_2 O 0.3373(4) 0.4015(3) 0.6754(2)
O4A_3 O -0.2692(3) 0.9960(4) 0.0087(2)
O4I_3 O -0.2652(3) 0.7308(3) -0.0087(2)
O4N_3 O 0.3293(4) 0.9319(3) 0.6580(2)
O4G_4 O 0.0641(3) 0.6627(4) 0.6754(2)
O4C_2 O -0.0681(3) -0.3975(3) 0.3420(2)
O4M_4 O -0.3975(3) -0.3293(4) -0.3420(2)
O4F_3 O -0.4015(3) -0.0641(3) 0.6754(2)
O4P_3 O -0.0641(3) 0.3373(4) -0.6754(2)
O4N_4 O 0.3293(4) -0.0681(3) -0.3420(2)
O4C_3 O 0.9319(3) 0.6025(3) 0.3420(2)
O4N_5 O 0.3293(4) 0.9319(3) -0.3420(2)
O4E_3 O 0.6707(4) 1.0681(3) 0.3420(2)
O4K_2 O -0.0040(4) 1.2652(3) -0.0087(2)
O4K_3 O -1.0040(4) 0.2652(3) -0.0087(2)
O4F_4 O -0.4015(3) 0.9359(3) 0.6754(2)
O4K_4 O -1.0040(4) -0.7348(3) -0.0087(2)
O4E_4 O -0.3293(4) -0.9319(3) 0.3420(2)
O4L_3 O 0.0681(3) -0.6025(3) -0.3420(2)
loop_
_geom_bond_atom_site_label_1
_geom_bond_atom_site_label_2
_geom_bond_site_symmetry_1
_geom_bond_site_symmetry_2
Al1 O1 1_555 1_555
P1 O1 1_555 1_555
O2 P1 1_555 1_555
O3 P1 1_555 1_555
O4 P1 1_555 1_555
C2 C3 1_555 1_555
N1 C3 1_555 1_555
C3 C4B 1_555 1_555
C4 C2 1_555 1_555
Al1P O1P 1_555 1_555
Al1A O1A 1_555 1_555
Al1K O1K 1_555 1_555
Al1Q O2 1_555 1_555
Al1O O1O_2 1_555 1_555
Al1G O1G 1_555 1_555
Al1B O3 1_555 1_555
Al1J O4 1_555 1_555
Al1E O1E 1_555 1_555
Al1B_2 O1B 1_555 1_555
Al1Q_2 O1Q 1_555 1_555
Al1C O1C 1_555 1_555
Al1Q_3 O1Q_2 1_555 1_555
Al1I O1I 1_555 1_555
Al1F O1F 1_555 1_555
Al1O_2 O1O 1_555 1_555
Al1D O1D 1_555 1_555
Al1H O1H 1_555 1_555
Al1L O1L 1_555 1_555
Al1L_2 O1L_2 1_555 1_555
Al1A_2 O1A_3 1_555 1_555
Al1N O1N_3 1_555 1_555
Al1P_2 O1P_3 1_555 1_555
Al1H_2 O1H_3 1_555 1_555
Al1A_3 O1A_4 1_555 1_555
Al1B_3 O1B_3 1_555 1_555
Al1M O1M_4 1_555 1_555
Al1I_2 O1I_3 1_555 1_555
Al1E_2 O1E_3 1_555 1_555
Al1F_2 O1F_3 1_555 1_555
Al1P_3 O1P_2 1_555 1_555
Al1C_2 O1C_2 1_555 1_555
Al1D_2 O1D_2 1_555 1_555
Al1F_3 O1F_2 1_555 1_555
Al1N_2 O1N_4 1_555 1_555
Al1C_3 O1C_3 1_555 1_555
Al1M_2 O1M_5 1_555 1_555
Al1G_2 O1G_4 1_555 1_555
Al1O_3 O1O_3 1_555 1_555
Al1_2 O1_2 1_555 1_555
Al1J_2 O1J_2 1_555 1_555
Al1_3 O1_3 1_555 1_555
Al1M_3 O1M 1_555 1_555
Al1_4 O1_4 1_555 1_555
Al1O_4 O1O_4 1_555 1_555
Al1D_3 O1D_3 1_555 1_555
Al1G_3 O1G_2 1_555 1_555
Al1Q_4 O2_2 1_555 1_555
Al1D_4 O2N_3 1_555 1_555
Al1J_3 O1J_3 1_555 1_555
Al1L_3 O2D_2 1_555 1_555
Al1H_3 O4M 1_555 1_555
Al1B_4 O2O_4 1_555 1_555
Al1J_4 O4_4 1_555 1_555
Al1L_4 O2D_3 1_555 1_555
Al1N_3 O4G_2 1_555 1_555
Al1I_3 O2G_3 1_555 1_555
Al1G_4 O1G_3 1_555 1_555
Al1N_4 O1N 1_555 1_555
Al1D_5 O2N 1_555 1_555
Al1A_4 O1A_2 1_555 1_555
Al1_5 O2P_2 1_555 1_555
Al1K_2 O4A_2 1_555 1_555
Al1E_3 O1E_2 1_555 1_555
Al1M_4 O2E_2 1_555 1_555
Al1N_5 O1N_2 1_555 1_555
Al1F_4 O4N_2 1_555 1_555
Al1I_4 O1I_2 1_555 1_555
Al1K_3 O2F_2 1_555 1_555
Al1M_5 O1M_2 1_555 1_555
Al1C_4 O2M_2 1_555 1_555
Al1D_6 O1D_4 1_555 1_555
Al1Q_5 O4D_4 1_555 1_555
Al1M_6 O1M_3 1_555 1_555
Al1H_4 O1H_2 1_555 1_555
Al1J_5 O2H_2 1_555 1_555
Al1O_5 O2A_3 1_555 1_555
Al1K_4 O3I_3 1_555 1_555
Al1H_5 O2I_3 1_555 1_555
Al1F_5 O3G_4 1_555 1_555
Al1I_5 O2G_4 1_555 1_555
P1P O1P 1_555 1_555
P1A O1A 1_555 1_555
P1K O1K 1_555 1_555
P1B O1B 1_555 1_555
P1Q O1Q 1_555 1_555
P1C O1C 1_555 1_555
P1Q_2 O1Q_2 1_555 1_555
P1B_2 O1B_2 1_555 1_555
P1I O1I 1_555 1_555
P1F O1F 1_555 1_555
P1Q_3 O1Q_3 1_555 1_555
P1O O1O 1_555 1_555
P1D O1D 1_555 1_555
P1O_2 O1O_2 1_555 1_555
P1E O1E 1_555 1_555
P1G O1G 1_555 1_555
P1H O1H 1_555 1_555
P1L O1L 1_555 1_555
P1J O1J 1_555 1_555
P1L_2 O1L_2 1_555 1_555
P1O_3 O1O_3 1_555 1_555
P1_2 O1_2 1_555 1_555
P1J_2 O1J_2 1_555 1_555
P1_3 O1_3 1_555 1_555
P1D_2 O1D_2 1_555 1_555
P1M O1M 1_555 1_555
P1_4 O1_4 1_555 1_555
P1O_4 O1O_4 1_555 1_555
P1D_3 O1D_3 1_555 1_555
P1G_2 O1G_2 1_555 1_555
P1J_3 O1J_3 1_555 1_555
P1G_3 O1G_3 1_555 1_555
P1N O1N 1_555 1_555
P1A_2 O1A_2 1_555 1_555
P1P_2 O1P_2 1_555 1_555
P1E_2 O1E_2 1_555 1_555
P1N_2 O1N_2 1_555 1_555
P1I_2 O1I_2 1_555 1_555
P1F_2 O1F_2 1_555 1_555
P1M_2 O1M_2 1_555 1_555
P1D_4 O1D_4 1_555 1_555
P1M_3 O1M_3 1_555 1_555
P1H_2 O1H_2 1_555 1_555
P1A_3 O1A_3 1_555 1_555
P1I_3 O1I_3 1_555 1_555
P1N_3 O1N_3 1_555 1_555
P1G_4 O1G_4 1_555 1_555
O1B_2 Al1B 1_555 1_555
O1Q_3 Al1Q 1_555 1_555
O1J Al1J 1_555 1_555
O2P Al1 1_555 1_555
O2A Al1O 1_555 1_555
O2K Al1G 1_555 1_555
O2B Al1P 1_555 1_555
O2Q Al1A_2 1_555 1_555
O2C Al1N 1_555 1_555
O2Q_2 Al1A 1_555 1_555
O2B_2 Al1P_2 1_555 1_555
O2I Al1H_2 1_555 1_555
O2F Al1K 1_555 1_555
O2Q_3 Al1A_3 1_555 1_555
O2O Al1B 1_555 1_555
O2D Al1L_2 1_555 1_555
O2O_2 Al1B_3 1_555 1_555
O2E Al1M 1_555 1_555
O2G Al1I_2 1_555 1_555
O2H Al1J 1_555 1_555
O2L Al1E_2 1_555 1_555
O2J Al1F_2 1_555 1_555
O2L_2 Al1E 1_555 1_555
O2O_3 Al1B_2 1_555 1_555
O2_2 P1_2 1_555 1_555
O2J_2 Al1F_3 1_555 1_555
O2_3 Al1Q_2 1_555 1_555
O2D_2 P1D_2 1_555 1_555
O2M Al1C 1_555 1_555
O2_4 Al1Q_3 1_555 1_555
O2O_4 P1O_4 1_555 1_555
O2D_3 P1D_3 1_555 1_555
O2G_2 Al1I 1_555 1_555
O2J_3 Al1F 1_555 1_555
O2G_3 P1G_3 1_555 1_555
O2N P1N 1_555 1_555
O2A_2 Al1O_2 1_555 1_555
O2P_2 P1P_2 1_555 1_555
O2E_2 P1E_2 1_555 1_555
O2N_2 Al1D 1_555 1_555
O2I_2 Al1H 1_555 1_555
O2F_2 P1F_2 1_555 1_555
O2M_2 P1M_2 1_555 1_555
O2D_4 Al1L 1_555 1_555
O2M_3 Al1C_2 1_555 1_555
O2H_2 P1H_2 1_555 1_555
O2A_3 P1A_3 1_555 1_555
O2I_3 P1I_3 1_555 1_555
O2N_3 P1N_3 1_555 1_555
O2G_4 P1G_4 1_555 1_555
O2B_3 Al1P_3 1_555 1_555
O2N_4 Al1D_2 1_555 1_555
O2C_2 Al1N_2 1_555 1_555
O2M_4 Al1C_3 1_555 1_555
O2E_3 Al1M_2 1_555 1_555
O2K_2 Al1G_2 1_555 1_555
O2A_4 Al1O_3 1_555 1_555
O2P_3 Al1_2 1_555 1_555
O2H_3 Al1J_2 1_555 1_555
O2P_4 Al1_3 1_555 1_555
O2E_4 Al1M_3 1_555 1_555
O2P_5 Al1_4 1_555 1_555
O2A_5 Al1O_4 1_555 1_555
O2N_5 Al1D_3 1_555 1_555
O2K_3 Al1G_3 1_555 1_555
O3P Al1O 1_555 1_555
O3A Al1 1_555 1_555
O3K Al1J 1_555 1_555
O3B Al1A_2 1_555 1_555
O3Q Al1P 1_555 1_555
O3C Al1E 1_555 1_555
O3Q_2 Al1P_2 1_555 1_555
O3B_2 Al1A 1_555 1_555
O3I Al1K 1_555 1_555
O3F Al1H_2 1_555 1_555
O3Q_3 Al1P_3 1_555 1_555
O3O Al1Q 1_555 1_555
O3D Al1C_2 1_555 1_555
O3O_2 Al1Q_2 1_555 1_555
O3E Al1D_2 1_555 1_555
O3G Al1F_3 1_555 1_555
O3H Al1G 1_555 1_555
O3L Al1N_2 1_555 1_555
O3J Al1I 1_555 1_555
O3L_2 Al1N 1_555 1_555
O3O_3 Al1Q_4 1_555 1_555
O3_2 Al1B_2 1_555 1_555
O3J_2 Al1I_2 1_555 1_555
O3_3 Al1B_3 1_555 1_555
O3D_2 Al1C 1_555 1_555
O3M Al1L_3 1_555 1_555
O3_4 Al1B_4 1_555 1_555
O3O_4 Al1Q_3 1_555 1_555
O3D_3 Al1C_3 1_555 1_555
O3G_2 Al1F_2 1_555 1_555
O3J_3 Al1I_3 1_555 1_555
O3G_3 Al1F 1_555 1_555
O3N Al1M_2 1_555 1_555
O3A_2 Al1_5 1_555 1_555
O3P_2 Al1O_2 1_555 1_555
O3E_2 Al1D 1_555 1_555
O3N_2 Al1M_4 1_555 1_555
O3I_2 Al1K_3 1_555 1_555
O3F_2 Al1H 1_555 1_555
O3M_2 Al1L 1_555 1_555
O3D_4 Al1C_4 1_555 1_555
O3M_3 Al1L_2 1_555 1_555
O3H_2 Al1G_2 1_555 1_555
O3A_3 Al1_2 1_555 1_555
O3I_3 P1I_3 1_555 1_555
O3N_3 Al1M_6 1_555 1_555
O3G_4 P1G_4 1_555 1_555
O3B_3 Al1A_3 1_555 1_555
O3N_4 Al1M 1_555 1_555
O3C_2 Al1E_2 1_555 1_555
O3P_3 Al1O_3 1_555 1_555
O3K_2 Al1J_2 1_555 1_555
O3A_4 Al1_3 1_555 1_555
O3N_5 Al1M_3 1_555 1_555
O3A_5 Al1_4 1_555 1_555
O3P_4 Al1O_4 1_555 1_555
O3E_3 Al1D_3 1_555 1_555
O3H_3 Al1G_3 1_555 1_555
O4P Al1E 1_555 1_555
O4A Al1K 1_555 1_555
O4K Al1 1_555 1_555
O4B Al1I_2 1_555 1_555
O4Q Al1C 1_555 1_555
O4C Al1P 1_555 1_555
O4Q_2 Al1C_3 1_555 1_555
O4B_2 Al1I 1_555 1_555
O4I Al1A 1_555 1_555
O4F Al1M_2 1_555 1_555
O4Q_3 Al1C_2 1_555 1_555
O4O Al1D 1_555 1_555
O4D Al1Q 1_555 1_555
O4O_2 Al1D_2 1_555 1_555
O4E Al1O 1_555 1_555
O4G Al1N_2 1_555 1_555
O4H Al1L 1_555 1_555
O4L Al1G 1_555 1_555
O4J Al1B 1_555 1_555
O4L_2 Al1G_2 1_555 1_555
O4O_3 Al1D_4 1_555 1_555
O4_2 Al1J_2 1_555 1_555
O4J_2 Al1B_2 1_555 1_555
O4_3 Al1J_3 1_555 1_555
O4D_2 Al1Q_2 1_555 1_555
O4M P1M 1_555 1_555
O4_4 P1_4 1_555 1_555
O4O_4 Al1D_3 1_555 1_555
O4D_3 Al1Q_3 1_555 1_555
O4G_2 P1G_2 1_555 1_555
O4J_3 Al1B_3 1_555 1_555
O4G_3 Al1N_4 1_555 1_555
O4N Al1F 1_555 1_555
O4A_2 P1A_2 1_555 1_555
O4P_2 Al1E_3 1_555 1_555
O4E_2 Al1O_2 1_555 1_555
O4N_2 P1N_2 1_555 1_555
O4I_2 Al1A_3 1_555 1_555
O4F_2 Al1M_5 1_555 1_555
O4M_2 Al1H 1_555 1_555
O4D_4 P1D_4 1_555 1_555
O4M_3 Al1H_4 1_555 1_555
O4H_2 Al1L_2 1_555 1_555
O4A_3 Al1K_4 1_555 1_555
O4I_3 Al1A_2 1_555 1_555
O4N_3 Al1F_5 1_555 1_555
O4G_4 Al1N 1_555 1_555
O4C_2 Al1P_2 1_555 1_555
O4M_4 Al1H_2 1_555 1_555
O4F_3 Al1M 1_555 1_555
O4P_3 Al1E_2 1_555 1_555
O4N_4 Al1F_2 1_555 1_555
O4C_3 Al1P_3 1_555 1_555
O4N_5 Al1F_3 1_555 1_555
O4E_3 Al1O_3 1_555 1_555
O4K_2 Al1_2 1_555 1_555
O4K_3 Al1_3 1_555 1_555
O4F_4 Al1M_3 1_555 1_555
O4K_4 Al1_4 1_555 1_555
O4E_4 Al1O_4 1_555 1_555
O4L_3 Al1G_3 1_555 1_555
C2B C4B 1_555 1_555
C2A C3A 1_555 1_555
N1O N1 1_555 1_555
N1A C3A 1_555 1_555
C3A C4 1_555 1_555
C3O N1O 1_555 1_555
P1P O2P 1_555 1_555
P1P O3P 1_555 1_555
P1P O4P 1_555 1_555
P1A O2A 1_555 1_555
P1A O3A 1_555 1_555
P1A O4A 1_555 1_555
P1K O2K 1_555 1_555
P1K O3K 1_555 1_555
P1K O4K 1_555 1_555
P1B O2B 1_555 1_555
P1B O3B 1_555 1_555
P1B O4B 1_555 1_555
P1Q O2Q 1_555 1_555
P1Q O3Q 1_555 1_555
P1Q O4Q 1_555 1_555
P1C O2C 1_555 1_555
P1C O3C 1_555 1_555
P1C O4C 1_555 1_555
P1Q_2 O2Q_2 1_555 1_555
P1Q_2 O3Q_2 1_555 1_555
P1Q_2 O4Q_2 1_555 1_555
P1B_2 O2B_2 1_555 1_555
P1B_2 O3B_2 1_555 1_555
P1B_2 O4B_2 1_555 1_555
P1I O2I 1_555 1_555
P1I O3I 1_555 1_555
P1I O4I 1_555 1_555
P1F O2F 1_555 1_555
P1F O3F 1_555 1_555
P1F O4F 1_555 1_555
P1Q_3 O2Q_3 1_555 1_555
P1Q_3 O3Q_3 1_555 1_555
P1Q_3 O4Q_3 1_555 1_555
P1O O2O 1_555 1_555
P1O O3O 1_555 1_555
P1O O4O 1_555 1_555
P1D O2D 1_555 1_555
P1D O3D 1_555 1_555
P1D O4D 1_555 1_555
P1O_2 O2O_2 1_555 1_555
P1O_2 O3O_2 1_555 1_555
P1O_2 O4O_2 1_555 1_555
P1E O2E 1_555 1_555
P1E O3E 1_555 1_555
P1E O4E 1_555 1_555
P1G O2G 1_555 1_555
P1G O3G 1_555 1_555
P1G O4G 1_555 1_555
P1H O2H 1_555 1_555
P1H O3H 1_555 1_555
P1H O4H 1_555 1_555
P1L O2L 1_555 1_555
P1L O3L 1_555 1_555
P1L O4L 1_555 1_555
P1J O2J 1_555 1_555
P1J O3J 1_555 1_555
P1J O4J 1_555 1_555
P1L_2 O2L_2 1_555 1_555
P1L_2 O3L_2 1_555 1_555
P1L_2 O4L_2 1_555 1_555
P1O_3 O2O_3 1_555 1_555
P1O_3 O3O_3 1_555 1_555
P1O_3 O4O_3 1_555 1_555
P1_2 O3_2 1_555 1_555
P1_2 O4_2 1_555 1_555
P1J_2 O2J_2 1_555 1_555
P1J_2 O3J_2 1_555 1_555
P1J_2 O4J_2 1_555 1_555
P1_3 O2_3 1_555 1_555
P1_3 O3_3 1_555 1_555
P1_3 O4_3 1_555 1_555
P1D_2 O3D_2 1_555 1_555
P1D_2 O4D_2 1_555 1_555
P1M O2M 1_555 1_555
P1M O3M 1_555 1_555
P1_4 O2_4 1_555 1_555
P1_4 O3_4 1_555 1_555
P1O_4 O3O_4 1_555 1_555
P1O_4 O4O_4 1_555 1_555
P1D_3 O3D_3 1_555 1_555
P1D_3 O4D_3 1_555 1_555
P1G_2 O2G_2 1_555 1_555
P1G_2 O3G_2 1_555 1_555
P1J_3 O2J_3 1_555 1_555
P1J_3 O3J_3 1_555 1_555
P1J_3 O4J_3 1_555 1_555
P1G_3 O3G_3 1_555 1_555
P1G_3 O4G_3 1_555 1_555
P1N O3N 1_555 1_555
P1N O4N 1_555 1_555
P1A_2 O2A_2 1_555 1_555
P1A_2 O3A_2 1_555 1_555
P1P_2 O3P_2 1_555 1_555
P1P_2 O4P_2 1_555 1_555
P1E_2 O3E_2 1_555 1_555
P1E_2 O4E_2 1_555 1_555
P1N_2 O2N_2 1_555 1_555
P1N_2 O3N_2 1_555 1_555
P1I_2 O2I_2 1_555 1_555
P1I_2 O3I_2 1_555 1_555
P1I_2 O4I_2 1_555 1_555
P1F_2 O3F_2 1_555 1_555
P1F_2 O4F_2 1_555 1_555
P1M_2 O3M_2 1_555 1_555
P1M_2 O4M_2 1_555 1_555
P1D_4 O2D_4 1_555 1_555
P1D_4 O3D_4 1_555 1_555
P1M_3 O2M_3 1_555 1_555
P1M_3 O3M_3 1_555 1_555
P1M_3 O4M_3 1_555 1_555
P1H_2 O3H_2 1_555 1_555
P1H_2 O4H_2 1_555 1_555
P1A_3 O3A_3 1_555 1_555
P1A_3 O4A_3 1_555 1_555
P1I_3 O4I_3 1_555 1_555
P1N_3 O3N_3 1_555 1_555
P1N_3 O4N_3 1_555 1_555
P1G_4 O4G_4 1_555 1_555

#END
