
#######################################################################
#
#                 Cambridge Crystallographic Data Centre
#                                CCDC 
#
#######################################################################
#
# If this CIF has been generated from an entry in the Cambridge 
# Structural Database, then it will include bibliographic, chemical, 
# crystal, experimental, refinement or atomic coordinate data resulting 
# from the CCDC's data processing and validation procedures.
#
#######################################################################

data_QUTDAM
_chemical_formula_moiety         'C22 H10 Cu8 N4 O16'
_symmetry_cell_setting           rhombohedral
_symmetry_space_group_name_H-M   'R -3 m'
_symmetry_Int_Tables_number      166
_space_group_name_Hall           '-R 3 2"'
loop_
_symmetry_equiv_pos_site_id
_symmetry_equiv_pos_as_xyz
1 x,y,z
2 -y,x-y,z
3 -x+y,-x,z
4 x-y,-y,-z
5 -x,-x+y,-z
6 y,x,-z
7 2/3+x,1/3+y,1/3+z
8 2/3-y,1/3+x-y,1/3+z
9 2/3-x+y,1/3-x,1/3+z
10 2/3+x-y,1/3-y,1/3-z
11 2/3-x,1/3-x+y,1/3-z
12 2/3+y,1/3+x,1/3-z
13 1/3+x,2/3+y,2/3+z
14 1/3-y,2/3+x-y,2/3+z
15 1/3-x+y,2/3-x,2/3+z
16 1/3+x-y,2/3-y,2/3-z
17 1/3-x,2/3-x+y,2/3-z
18 1/3+y,2/3+x,2/3-z
19 -x,-y,-z
20 y,-x+y,-z
21 x-y,x,-z
22 -x+y,y,z
23 x,x-y,z
24 -y,-x,z
25 1/3-x,2/3-y,2/3-z
26 1/3+y,2/3-x+y,2/3-z
27 1/3+x-y,2/3+x,2/3-z
28 1/3-x+y,2/3+y,2/3+z
29 1/3+x,2/3+x-y,2/3+z
30 1/3-y,2/3-x,2/3+z
31 2/3-x,1/3-y,1/3-z
32 2/3+y,1/3-x+y,1/3-z
33 2/3+x-y,1/3+x,1/3-z
34 2/3-x+y,1/3+y,1/3+z
35 2/3+x,1/3+x-y,1/3+z
36 2/3-y,1/3-x,1/3+z
_cell_length_a                   18.7088(9)
_cell_length_b                   18.7088(9)
_cell_length_c                   38.2664(14)
_cell_angle_alpha                90
_cell_angle_beta                 90
_cell_angle_gamma                120
_cell_volume                     11599.5
loop_
_atom_site_label
_atom_site_type_symbol
_atom_site_fract_x
_atom_site_fract_y
_atom_site_fract_z
_atom_site_U_iso_or_equiv
_atom_site_thermal_displace_type
Cu1 Cu 0.80990(2) 0.61980(2) 0.69524(2) 0.0342 Uani
O1 O 0.70509(8) 0.55621(8) 0.67042(3) 0.0542 Uani
O2 O 0.74402(8) 0.63523(8) 0.62252(3) 0.0554 Uani
C1 C 0.55723(9) 0.44277(9) 0.63948(6) 0.0482 Uani
H1 H 0.5672 0.4328 0.6623 0.0580 Uiso
C2 C 0.69401(11) 0.57354(10) 0.63991(4) 0.0447 Uani
C3 C 0.61420(12) 0.51456(11) 0.62250(4) 0.0495 Uani
C4 C 0.52753(11) 0.47247(11) 0.57097(7) 0.0641 Uani
C5 C 0.59878(13) 0.52920(12) 0.58829(5) 0.0610 Uani
H2 H 0.6367 0.5775 0.5770 0.0730 Uiso
C6 C 0.51311(14) 0.48689(14) 0.53407(8) 0.0777 Uani
C7 C 0.5412(4) 0.5639(4) 0.52205(14) 0.0942 Uani
H3 H 0.5585 0.6151 0.5340 0.1130 Uiso
O3 O 0.77648(10) 0.5530(2) 0.74367(7) 0.1165 Uani
N1 N 0.5774(3) 0.5296(4) 0.51215(13) 0.0954 Uani
O1E O 0.55621(8) 0.70509(8) 0.32958(3) 0.0542 Uani
O2E O 0.63523(8) 0.74402(8) 0.37748(3) 0.0554 Uani
C1E C 0.44277(9) 0.55723(9) 0.36052(6) 0.0482 Uani
H1E H 0.4328 0.5672 0.3377 0.0580 Uiso
C2E C 0.57354(10) 0.69401(11) 0.36009(4) 0.0447 Uani
C3E C 0.51456(11) 0.61420(12) 0.37750(4) 0.0495 Uani
C4E C 0.47247(11) 0.52753(11) 0.42903(7) 0.0641 Uani
C5E C 0.52920(12) 0.59878(13) 0.41171(5) 0.0610 Uani
H2E H 0.5775 0.6367 0.4230 0.0730 Uiso
C6E C 0.48689(14) 0.51311(14) 0.46593(8) 0.0777 Uani
C7E C 0.5639(4) 0.5412(4) 0.47795(14) 0.0942 Uani
H3E H 0.6151 0.5585 0.4660 0.1130 Uiso
N1E N 0.5296(4) 0.5774(3) 0.48785(13) 0.0954 Uani
O1R O 0.29491(8) 0.44379(8) 0.32958(3) 0.0542 Uani
O2R O 0.25598(8) 0.36477(8) 0.37748(3) 0.0554 Uani
C2R C 0.30599(11) 0.42646(10) 0.36009(4) 0.0447 Uani
C3R C 0.38580(12) 0.48544(11) 0.37750(4) 0.0495 Uani
C5R C 0.40122(13) 0.47080(12) 0.41171(5) 0.0610 Uani
H2R H 0.3633 0.4225 0.4230 0.0730 Uiso
C7R C 0.4588(4) 0.4361(4) 0.47795(14) 0.0942 Uani
H3R H 0.4415 0.3849 0.4660 0.1130 Uiso
N1R N 0.4226(3) 0.4704(4) 0.48785(13) 0.0954 Uani
O1W O 0.44379(8) 0.29491(8) 0.67042(3) 0.0542 Uani
O2W O 0.36477(8) 0.25598(8) 0.62252(3) 0.0554 Uani
C2W C 0.42646(10) 0.30599(11) 0.63991(4) 0.0447 Uani
C3W C 0.48544(11) 0.38580(12) 0.62250(4) 0.0495 Uani
C5W C 0.47080(12) 0.40122(13) 0.58829(5) 0.0610 Uani
H2W H 0.4225 0.3633 0.5770 0.0730 Uiso
C7W C 0.4361(4) 0.4588(4) 0.52205(14) 0.0942 Uani
H3W H 0.3849 0.4415 0.5340 0.1130 Uiso
N1W N 0.4704(4) 0.4226(3) 0.51215(13) 0.0954 Uani
Cu1A Cu 0.38020(2) 0.19010(3) 0.69524(2) 0.0342 Uani
O3A O 0.4470(2) 0.22348(22) 0.74367(7) 0.1165 Uani
Cu1C Cu 0.19010(3) 0.38020(2) 0.30476(2) 0.0342 Uani
Cu1E Cu 0.61980(2) 0.80990(2) 0.30476(2) 0.0342 Uani
Cu1I Cu 0.85677(3) 0.71353(2) 0.63809(2) 0.0342 Uani
Cu1K Cu 0.28647(2) 0.14323(2) 0.63809(2) 0.0342 Uani
Cu1L Cu 0.14323(2) 0.28647(2) 0.36191(2) 0.0342 Uani
Cu1M Cu 0.71353(2) 0.85677(3) 0.36191(2) 0.0342 Uani
O1A O 0.44379(8) 0.14888(11) 0.67042(3) 0.0542 Uani
O1U O 0.85112(11) 0.55621(8) 0.67042(3) 0.0542 Uani
O2I O 0.77546(11) 0.69810(8) 0.71081(3) 0.0554 Uani
O2K O 0.30190(8) 0.07735(8) 0.71081(3) 0.0554 Uani
O2DA O 0.92265(8) 0.69810(8) 0.71081(3) 0.0554 Uani
O2EA O 0.30190(8) 0.22454(11) 0.71081(3) 0.0554 Uani
loop_
_atom_site_aniso_label
_atom_site_aniso_U_11
_atom_site_aniso_U_22
_atom_site_aniso_U_33
_atom_site_aniso_U_23
_atom_site_aniso_U_13
_atom_site_aniso_U_12
Cu1 0.04359(16) 0.02505(16) 0.02770(16) 0.00137(9) 0.00069(4) 0.01253(8)
O1 0.0485(8) 0.0478(7) 0.0448(7) 0.0028(5) -0.0084(5) 0.0080(6)
O2 0.0498(8) 0.0443(7) 0.0492(6) 0.0035(6) -0.0100(6) 0.0063(6)
C1 0.0449(10) 0.0449(10) 0.0423(12) 0.0037(6) -0.0037(6) 0.0130(12)
C2 0.0467(10) 0.0328(9) 0.0427(8) -0.0010(7) -0.0025(7) 0.0109(8)
C3 0.0471(11) 0.0440(10) 0.0436(9) 0.0016(7) -0.0071(7) 0.0125(8)
C4 0.0567(12) 0.0567(12) 0.0487(15) 0.0124(7) -0.0124(7) 0.0058(14)
C5 0.0547(12) 0.0459(11) 0.0519(10) 0.0120(8) -0.0079(9) 0.0022(9)
C6 0.0650(13) 0.0650(13) 0.0523(16) 0.0187(10) -0.0187(10) -0.0055(17)
C7 0.104(5) 0.062(3) 0.064(3) 0.015(2) -0.026(3) 0.002(3)
O3 0.1190(17) 0.138(3) 0.0989(18) 0.086(2) 0.0428(10) 0.0691(15)
N1 0.061(3) 0.099(4) 0.065(3) 0.033(3) -0.019(2) -0.006(3)
O1E 0.0478 0.0485 0.0448 0.0084 -0.0028 0.008
O2E 0.0443 0.0498 0.0492 0.01 -0.0035 0.0063
C1E 0.0449 0.0449 0.0423 0.0037 -0.0037 0.013
C2E 0.0328 0.0467 0.0427 0.0025 0.001 0.0109
C3E 0.044 0.0471 0.0436 0.0071 -0.0016 0.0125
C4E 0.0567 0.0567 0.0487 0.0124 -0.0124 0.0058
C5E 0.0459 0.0547 0.0519 0.0079 -0.012 0.0022
C6E 0.065 0.065 0.0523 0.0187 -0.0187 -0.0055
C7E 0.062 0.104 0.064 0.026 -0.015 0.002
N1E 0.099 0.061 0.065 0.019 -0.033 -0.006
O1R 0.0485 0.0478 0.0448 0.0028 -0.0084 0.008
O2R 0.0498 0.0443 0.0492 0.0035 -0.01 0.0063
C2R 0.0467 0.0328 0.0427 -0.001 -0.0025 0.0109
C3R 0.0471 0.044 0.0436 0.0016 -0.0071 0.0125
C5R 0.0547 0.0459 0.0519 0.012 -0.0079 0.0022
C7R 0.104 0.062 0.064 0.015 -0.026 0.002
N1R 0.061 0.099 0.065 0.033 -0.019 -0.006
O1W 0.0478 0.0485 0.0448 0.0084 -0.0028 0.008
O2W 0.0443 0.0498 0.0492 0.01 -0.0035 0.0063
C2W 0.0328 0.0467 0.0427 0.0025 0.001 0.0109
C3W 0.044 0.0471 0.0436 0.0071 -0.0016 0.0125
C5W 0.0459 0.0547 0.0519 0.0079 -0.012 0.0022
C7W 0.062 0.104 0.064 0.026 -0.015 0.002
N1W 0.099 0.061 0.065 0.019 -0.033 -0.006
Cu1A 0.02505 0.04358 0.0277 -0.00068 -0.00137 0.01252
O3A 0.138 0.1188 0.0989 -0.0432 -0.086 0.0689
Cu1C 0.04358 0.02505 0.0277 0.00137 0.00068 0.01252
Cu1E 0.02505 0.04359 0.0277 -0.00069 -0.00137 0.01253
Cu1I 0.04358 0.02505 0.0277 0.00137 0.00068 0.01252
Cu1K 0.02505 0.04359 0.0277 -0.00069 -0.00137 0.01253
Cu1L 0.04359 0.02505 0.0277 0.00137 0.00069 0.01253
Cu1M 0.02505 0.04358 0.0277 -0.00068 -0.00137 0.01252
O1A 0.0478 0.0803 0.0448 -0.0112 -0.0028 0.0398
O1U 0.0803 0.0478 0.0448 0.0028 0.0112 0.0398
O2I 0.0815 0.0443 0.0492 0.0035 0.0135 0.038
O2K 0.0443 0.0498 0.0492 0.01 -0.0035 0.0063
O2DA 0.0498 0.0443 0.0492 0.0035 -0.01 0.0063
O2EA 0.0443 0.0815 0.0492 -0.0135 -0.0035 0.038
loop_
_geom_bond_atom_site_label_1
_geom_bond_atom_site_label_2
_geom_bond_site_symmetry_1
_geom_bond_site_symmetry_2
Cu1 O1 1_555 1_555
O1 C2 1_555 1_555
O2 C2 1_555 1_555
C1 H1 1_555 1_555
C2 C3 1_555 1_555
C3 C1 1_555 1_555
C4 C5 1_555 1_555
C5 C3 1_555 1_555
H2 C5 1_555 1_555
C6 C4 1_555 1_555
C7 C6 1_555 1_555
H3 C7 1_555 1_555
O3 Cu1 1_555 1_555
N1 C6 1_555 1_555
O1E C2E 1_555 1_555
O2E C2E 1_555 1_555
C1E H1E 1_555 1_555
C2E C3E 1_555 1_555
C3E C1E 1_555 1_555
C4E C5E 1_555 1_555
C5E C3E 1_555 1_555
H2E C5E 1_555 1_555
C6E C4E 1_555 1_555
C7E N1 1_555 1_555
H3E C7E 1_555 1_555
N1E C7 1_555 1_555
O1R C2R 1_555 1_555
O2R C2R 1_555 1_555
C2R C3R 1_555 1_555
C3R C1E 1_555 1_555
C5R C4E 1_555 1_555
H2R C5R 1_555 1_555
C7R C6E 1_555 1_555
H3R C7R 1_555 1_555
N1R C6E 1_555 1_555
O1W C2W 1_555 1_555
O2W C2W 1_555 1_555
C2W C3W 1_555 1_555
C3W C1 1_555 1_555
C5W C4 1_555 1_555
H2W C5W 1_555 1_555
C7W C6 1_555 1_555
H3W C7W 1_555 1_555
N1W C6 1_555 1_555
Cu1A O1W 1_555 1_555
O3A Cu1A 1_555 1_555
Cu1C O1R 1_555 1_555
Cu1E O1E 1_555 1_555
Cu1I O2 1_555 1_555
Cu1K O2W 1_555 1_555
Cu1L O2R 1_555 1_555
Cu1M O2E 1_555 1_555
O1A Cu1A 1_555 1_555
O1U Cu1 1_555 1_555
O2I Cu1 1_555 1_555
O2K Cu1A 1_555 1_555
O2DA Cu1 1_555 1_555
O2EA Cu1A 1_555 1_555
C7 N1 1_555 1_555
C6E C7E 1_555 1_555
C6E N1E 1_555 1_555
C7E N1E 1_555 1_555
C3R C5R 1_555 1_555
C7R N1R 1_555 1_555
C7R N1W 1_555 1_555
N1R C7W 1_555 1_555
C3W C5W 1_555 1_555
C7W N1W 1_555 1_555

#END
