
#######################################################################
#
#                 Cambridge Crystallographic Data Centre
#                                CCDC 
#
#######################################################################
#
# If this CIF has been generated from an entry in the Cambridge 
# Structural Database, then it will include bibliographic, chemical, 
# crystal, experimental, refinement or atomic coordinate data resulting 
# from the CCDC's data processing and validation procedures.
#
#######################################################################

data_OTIJAE
_chemical_formula_moiety         '(C32 H24 Cr4 Mn3 N2 O48 4-)n'
_symmetry_cell_setting           rhombohedral
_symmetry_space_group_name_H-M   'R 3 c'
_symmetry_Int_Tables_number      161
_space_group_name_Hall           'R 3 -2"c'
loop_
_symmetry_equiv_pos_site_id
_symmetry_equiv_pos_as_xyz
1 x,y,z
2 -y,x-y,z
3 -x+y,-x,z
4 -y,-x,1/2+z
5 -x+y,y,1/2+z
6 x,x-y,1/2+z
7 2/3+x,1/3+y,1/3+z
8 2/3-y,1/3+x-y,1/3+z
9 2/3-x+y,1/3-x,1/3+z
10 2/3-y,1/3-x,5/6+z
11 2/3-x+y,1/3+y,5/6+z
12 2/3+x,1/3+x-y,5/6+z
13 1/3+x,2/3+y,2/3+z
14 1/3-y,2/3+x-y,2/3+z
15 1/3-x+y,2/3-x,2/3+z
16 1/3-y,2/3-x,1/6+z
17 1/3-x+y,2/3+y,1/6+z
18 1/3+x,2/3+x-y,1/6+z
_cell_length_a                   26.3296(16)
_cell_length_b                   26.3296(16)
_cell_length_c                   23.314(3)
_cell_angle_alpha                90
_cell_angle_beta                 90
_cell_angle_gamma                120
_cell_volume                     13997
loop_
_atom_site_label
_atom_site_type_symbol
_atom_site_fract_x
_atom_site_fract_y
_atom_site_fract_z
_atom_site_U_iso_or_equiv
_atom_site_thermal_displace_type
N1 N 0.4844(3) 0.2701(3) 0.9654(4) 0.1107 Uani
C9 C 0.5396(5) 0.2724(9) 0.9807(8) 0.2167 Uani
H1 H 0.5699 0.2980 0.9547 0.3260 Uiso
H2 H 0.5345 0.2337 0.9782 0.3260 Uiso
H3 H 0.5504 0.2868 1.0192 0.3260 Uiso
C10 C 0.4675(6) 0.2480(7) 0.9068(6) 0.1493 Uani
H4 H 0.4976 0.2737 0.8806 0.2240 Uiso
H5 H 0.4313 0.2465 0.8972 0.2240 Uiso
H6 H 0.4625 0.2094 0.9042 0.2240 Uiso
C11 C 0.4352(5) 0.2267(5) 1.0065(6) 0.1434 Uani
H7 H 0.4312 0.1886 1.0031 0.2160 Uiso
H8 H 0.3988 0.2245 0.9964 0.2160 Uiso
H9 H 0.4452 0.2403 1.0453 0.2160 Uiso
C12 C 0.4867(8) 0.3259(6) 0.9710(8) 0.1876 Uani
H10 H 0.5162 0.3540 0.9458 0.2820 Uiso
H11 H 0.4960 0.3393 1.0099 0.2820 Uiso
H12 H 0.4492 0.3213 0.9609 0.2820 Uiso
N2 N 0.5033(4) 0.9490(6) 0.0334(4) 0.1548 Uani
C13 C 0.4614(5) 0.9552(6) -0.0007(5) 0.1426 Uani
H13 H 0.4780 0.9708 -0.0376 0.2140 Uiso
H14 H 0.4513 0.9814 0.0181 0.2140 Uiso
H15 H 0.4268 0.9176 -0.0055 0.2140 Uiso
C14 C 0.5459(11) 1.0119(11) 0.0491(11) 0.3244 Uani
H16 H 0.5679 1.0326 0.0157 0.4890 Uiso
H17 H 0.5722 1.0129 0.0782 0.4890 Uiso
H18 H 0.5246 1.0301 0.0633 0.4890 Uiso
C15 C 0.5301(12) 0.9225(14) -0.0005(8) 0.3311 Uani
H19 H 0.5456 0.9444 -0.0353 0.4990 Uiso
H20 H 0.5012 0.8828 -0.0097 0.4990 Uiso
H21 H 0.5613 0.9227 0.0210 0.4990 Uiso
C16 C 0.4779(8) 0.9248(12) 0.0920(7) 0.2774 Uani
H22 H 0.4435 0.8869 0.0878 0.4160 Uiso
H23 H 0.4677 0.9509 0.1108 0.4160 Uiso
H24 H 0.5065 0.9212 0.1145 0.4160 Uiso
Cr1 Cr 0.6667 0.3333 0.31186(7) 0.0632 Uani
Cr2 Cr 0.35819(4) 0.00745(4) 0.33737(4) 0.0656 Uani
Mn1 Mn 0.59854(4) 0.09557(4) 0.32759(4) 0.0681 Uani
O1 O 0.67420(19) 0.27334(18) 0.26663(18) 0.0743 Uani
O2 O 0.61543(18) 0.26560(17) 0.36023(19) 0.0719 Uani
O3 O 0.6516(2) 0.17993(18) 0.2746(2) 0.0786 Uani
O4 O 0.5916(2) 0.1726(2) 0.37304(19) 0.0804 Uani
C1 C 0.6496(3) 0.2232(3) 0.2915(3) 0.0649 Uani
C2 C 0.6162(3) 0.2186(3) 0.3464(3) 0.0628 Uani
O5 O 0.5196(2) 0.0996(2) 0.2792(2) 0.0811 Uani
O6 O 0.51768(19) 0.04805(18) 0.38222(19) 0.0721 Uani
O7 O 0.42268(19) 0.0566(2) 0.28422(16) 0.0707 Uani
O8 O 0.4238(2) 0.02106(19) 0.38842(18) 0.0718 Uani
C3 C 0.4725(3) 0.0691(3) 0.3032(3) 0.0654 Uani
C4 C 0.4730(3) 0.0441(2) 0.3635(3) 0.0580 Uani
O9 O 0.29964(19) -0.0110(2) 0.2768(2) 0.0749 Uani
O10 O 0.3542(2) -0.06467(19) 0.3091(2) 0.0762 Uani
O11 O 0.3175(2) -0.1292(2) 0.2385(2) 0.0826 Uani
O12 O 0.2610(2) -0.0715(3) 0.2018(3) 0.0971 Uani
C5 C 0.3237(3) -0.0858(3) 0.2653(3) 0.0670 Uani
C6 C 0.2911(3) -0.0538(3) 0.2449(3) 0.0711 Uani
O13 O 0.35381(19) 0.07648(19) 0.3648(2) 0.0731 Uani
O14 O 0.29729(19) -0.03300(19) 0.3960(2) 0.0738 Uani
O15 O 0.3039(2) 0.10006(19) 0.4236(2) 0.0787 Uani
O16 O 0.2426(2) -0.0149(2) 0.4571(2) 0.0881 Uani
C7 C 0.3150(3) 0.0646(3) 0.4018(3) 0.0646 Uani
C8 C 0.2819(3) 0.0004(3) 0.4216(3) 0.0658 Uani
Cr2A Cr 0.99255(4) 0.35074(6) 0.33737(4) 0.0656 Uani
Mn1A Mn 0.90443(4) 0.50297(6) 0.32759(4) 0.0681 Uani
O1A O 0.72666(18) 0.40086(26) 0.26663(18) 0.0743 Uani
O2A O 0.73440(17) 0.34983(25) 0.36023(19) 0.0719 Uani
O3A O 0.82007(18) 0.47167(27) 0.2746(2) 0.0786 Uani
O4A O 0.8274(2) 0.4190(3) 0.37304(19) 0.0804 Uani
C1A C 0.7768(3) 0.4264(4) 0.2915(3) 0.0649 Uani
C2A C 0.7814(3) 0.3976(4) 0.3464(3) 0.0628 Uani
O5A O 0.9004(2) 0.4200(3) 0.2792(2) 0.0811 Uani
O6A O 0.95195(18) 0.46963(26) 0.38222(19) 0.0721 Uani
O7A O 0.9434(2) 0.36608(28) 0.28422(16) 0.0707 Uani
O8A O 0.97894(19) 0.40274(28) 0.38842(18) 0.0718 Uani
C3A C 0.9309(3) 0.4034(4) 0.3032(3) 0.0654 Uani
C4A C 0.9559(2) 0.4289(4) 0.3635(3) 0.0580 Uani
O9A O 1.0110(2) 0.31064(28) 0.2768(2) 0.0749 Uani
O10A O 1.06467(19) 0.41887(28) 0.3091(2) 0.0762 Uani
O11A O 1.1292(2) 0.4467(3) 0.2385(2) 0.0826 Uani
O12A O 1.0715(3) 0.3325(4) 0.2018(3) 0.0971 Uani
C5A C 1.0858(3) 0.4095(4) 0.2653(3) 0.0670 Uani
C6A C 1.0538(3) 0.3449(4) 0.2449(3) 0.0711 Uani
O13A O 0.92352(19) 0.27733(27) 0.3648(2) 0.0731 Uani
O14A O 1.03300(19) 0.33029(27) 0.3960(2) 0.0738 Uani
O15A O 0.89994(19) 0.20384(28) 0.4236(2) 0.0787 Uani
O16A O 1.0149(2) 0.2575(3) 0.4571(2) 0.0881 Uani
C7A C 0.9354(3) 0.2504(4) 0.4018(3) 0.0646 Uani
C8A C 0.9996(3) 0.2815(4) 0.4216(3) 0.0658 Uani
Cr2B Cr 0.64926(6) 0.64181(4) 0.33737(4) 0.0656 Uani
Mn1B Mn 0.49703(6) 0.40146(4) 0.32759(4) 0.0681 Uani
O1B O 0.59914(26) 0.32580(19) 0.26663(18) 0.0743 Uani
O2B O 0.65017(25) 0.38457(18) 0.36023(19) 0.0719 Uani
O3B O 0.52833(27) 0.3484(2) 0.2746(2) 0.0786 Uani
O4B O 0.5810(3) 0.4084(2) 0.37304(19) 0.0804 Uani
C1B C 0.5736(4) 0.3504(3) 0.2915(3) 0.0649 Uani
C2B C 0.6024(4) 0.3838(3) 0.3464(3) 0.0628 Uani
O5B O 0.5800(3) 0.4804(2) 0.2792(2) 0.0811 Uani
O6B O 0.53037(26) 0.48232(19) 0.38222(19) 0.0721 Uani
O7B O 0.63392(28) 0.57732(19) 0.28422(16) 0.0707 Uani
O8B O 0.59726(28) 0.5762(2) 0.38842(18) 0.0718 Uani
C3B C 0.5966(4) 0.5275(3) 0.3032(3) 0.0654 Uani
C4B C 0.5711(4) 0.5270(3) 0.3635(3) 0.0580 Uani
O9B O 0.68936(28) 0.70036(19) 0.2768(2) 0.0749 Uani
O10B O 0.58113(28) 0.6458(2) 0.3091(2) 0.0762 Uani
O11B O 0.5533(3) 0.6825(2) 0.2385(2) 0.0826 Uani
O12B O 0.6675(4) 0.7390(2) 0.2018(3) 0.0971 Uani
C5B C 0.5905(4) 0.6763(3) 0.2653(3) 0.0670 Uani
C6B C 0.6551(4) 0.7089(3) 0.2449(3) 0.0711 Uani
O13B O 0.72267(27) 0.64619(19) 0.3648(2) 0.0731 Uani
O14B O 0.66971(27) 0.70271(19) 0.3960(2) 0.0738 Uani
O15B O 0.79616(28) 0.6961(2) 0.4236(2) 0.0787 Uani
O16B O 0.7425(3) 0.7574(2) 0.4571(2) 0.0881 Uani
C7B C 0.7496(4) 0.6850(3) 0.4018(3) 0.0646 Uani
C8B C 0.7185(4) 0.7181(3) 0.4216(3) 0.0658 Uani
Mn1I Mn 0.57110(4) 0.73479(4) 0.16092(4) 0.0681 Uani
Mn1J Mn 1.16370(6) 0.42890(4) 0.16092(4) 0.0681 Uani
Mn1K Mn 0.26521(4) -0.16370(6) 0.16092(4) 0.0681 Uani
Mn1O Mn 0.23776(4) 0.06813(4) 0.49426(4) 0.0681 Uani
Mn1P Mn 0.83036(6) 0.76224(4) 0.49426(4) 0.0681 Uani
Mn1Q Mn 0.93187(4) 0.16964(6) 0.49426(4) 0.0681 Uani
O11O O 0.4625(2) 0.3492(2) 0.4052(2) 0.0826 Uani
O11P O 0.8866(3) 0.5375(2) 0.4052(2) 0.0826 Uani
O11Q O 0.6508(2) 0.1134(3) 0.4052(2) 0.0826 Uani
O12O O 0.4048(3) 0.4057(2) 0.3685(3) 0.0971 Uani
O12P O 1.0008(4) 0.5952(3) 0.3685(3) 0.0971 Uani
O12Q O 0.5943(2) -0.0008(4) 0.3685(3) 0.0971 Uani
O15I O 0.56661(19) 0.0294(2) 0.2569(2) 0.0787 Uani
O15J O 0.46283(28) 0.43339(19) 0.2569(2) 0.0787 Uani
O15K O 0.9706(2) 0.53717(28) 0.2569(2) 0.0787 Uani
O16I O 0.6816(2) 0.0907(2) 0.2904(2) 0.0881 Uani
O16J O 0.4092(3) 0.3184(2) 0.2904(2) 0.0881 Uani
O16K O 0.9093(2) 0.5908(3) 0.2904(2) 0.0881 Uani
loop_
_atom_site_aniso_label
_atom_site_aniso_U_11
_atom_site_aniso_U_22
_atom_site_aniso_U_33
_atom_site_aniso_U_23
_atom_site_aniso_U_13
_atom_site_aniso_U_12
N1 0.086(5) 0.094(5) 0.148(7) 0.015(4) 0.018(4) 0.042(4)
C9 0.087(7) 0.32(2) 0.226(15) 0.129(16) 0.027(8) 0.089(11)
C10 0.154(10) 0.159(11) 0.156(9) -0.014(9) -0.013(9) 0.094(9)
C11 0.147(9) 0.111(7) 0.173(9) 0.064(7) 0.092(8) 0.065(7)
C12 0.200(15) 0.098(8) 0.244(17) 0.050(9) 0.086(13) 0.059(9)
N2 0.106(6) 0.252(13) 0.115(6) 0.045(7) 0.001(5) 0.096(8)
C13 0.111(8) 0.197(12) 0.129(7) 0.027(8) -0.018(6) 0.084(8)
C14 0.28(3) 0.24(2) 0.28(3) 0.00(2) -0.17(2) 0.00(2)
C15 0.40(3) 0.62(6) 0.22(2) 0.21(3) 0.15(2) 0.44(4)
C16 0.150(13) 0.45(3) 0.183(14) 0.191(19) 0.030(11) 0.113(18)
Cr1 0.0476(5) 0.0476(5) 0.0943(11) 0.000 0.000 0.0238(3)
Cr2 0.0613(6) 0.0665(6) 0.0760(6) -0.0028(5) -0.0018(4) 0.0373(5)
Mn1 0.0617(5) 0.0566(5) 0.0887(6) -0.0032(4) -0.0003(4) 0.0315(5)
O1 0.064(2) 0.063(3) 0.095(3) 0.005(2) 0.017(2) 0.031(2)
O2 0.060(2) 0.052(2) 0.103(3) -0.004(2) 0.016(2) 0.0275(19)
O3 0.078(3) 0.060(3) 0.105(3) -0.003(2) 0.017(2) 0.040(2)
O4 0.096(3) 0.066(3) 0.088(3) 0.008(2) 0.020(2) 0.047(3)
C1 0.056(3) 0.053(4) 0.088(4) -0.002(3) 0.004(3) 0.029(3)
C2 0.058(3) 0.055(4) 0.079(4) -0.004(3) -0.002(3) 0.031(3)
O5 0.075(3) 0.104(3) 0.078(3) 0.010(2) 0.010(2) 0.055(3)
O6 0.068(3) 0.068(3) 0.083(2) 0.010(2) -0.008(2) 0.036(2)
O7 0.068(3) 0.092(3) 0.064(2) 0.004(2) -0.005(2) 0.049(2)
O8 0.074(3) 0.073(3) 0.070(2) 0.001(2) -0.008(2) 0.038(2)
C3 0.073(4) 0.064(3) 0.071(4) -0.004(3) 0.003(3) 0.043(3)
C4 0.054(4) 0.047(3) 0.070(3) 0.003(3) -0.001(3) 0.023(3)
O9 0.070(3) 0.079(3) 0.090(3) -0.003(2) -0.010(2) 0.048(2)
O10 0.082(3) 0.075(3) 0.090(3) -0.010(2) -0.013(2) 0.053(2)
O11 0.092(3) 0.067(3) 0.097(3) -0.014(2) -0.008(3) 0.046(2)
O12 0.071(3) 0.113(4) 0.110(4) -0.022(3) -0.025(3) 0.048(3)
C5 0.052(3) 0.064(4) 0.085(4) 0.006(3) 0.005(3) 0.029(3)
C6 0.045(3) 0.075(4) 0.088(4) -0.004(4) -0.004(3) 0.026(3)
O13 0.073(3) 0.065(2) 0.086(3) 0.004(2) 0.004(2) 0.038(2)
O14 0.063(2) 0.067(3) 0.096(3) -0.001(2) 0.005(2) 0.036(2)
O15 0.086(3) 0.074(3) 0.092(3) 0.000(2) 0.002(2) 0.052(3)
O16 0.063(3) 0.082(3) 0.111(3) -0.002(3) 0.015(3) 0.030(2)
C7 0.059(3) 0.072(4) 0.071(4) 0.007(3) 0.006(3) 0.039(3)
C8 0.051(3) 0.067(4) 0.080(4) -0.009(3) -0.006(3) 0.030(3)
Cr2A 0.0665 0.0532 0.076 0.001 0.0028 0.0292
Mn1A 0.0566 0.0553 0.0887 0.0029 0.0032 0.0251
O1A 0.063 0.065 0.095 0.012 -0.005 0.032
O2A 0.052 0.057 0.103 0.02 0.004 0.0245
O3A 0.06 0.058 0.105 0.02 0.003 0.02
O4A 0.066 0.068 0.088 0.012 -0.008 0.019
C1A 0.053 0.051 0.088 0.006 0.002 0.024
C2A 0.055 0.051 0.079 0.002 0.004 0.024
O5A 0.104 0.069 0.078 0 -0.01 0.049
O6A 0.068 0.064 0.083 -0.018 -0.01 0.032
O7A 0.092 0.062 0.064 -0.009 -0.004 0.043
O8A 0.073 0.071 0.07 -0.009 -0.001 0.035
C3A 0.064 0.051 0.071 0.007 0.004 0.021
C4A 0.047 0.055 0.07 -0.004 -0.003 0.024
O9A 0.079 0.053 0.09 -0.007 0.003 0.031
O10A 0.075 0.051 0.09 -0.003 0.01 0.022
O11A 0.067 0.067 0.097 0.006 0.014 0.021
O12A 0.113 0.088 0.11 -0.003 0.022 0.065
C5A 0.064 0.058 0.085 -0.001 -0.006 0.035
C6A 0.075 0.068 0.088 0 0.004 0.049
O13A 0.065 0.062 0.086 0 -0.004 0.027
O14A 0.067 0.058 0.096 0.006 0.001 0.031
O15A 0.074 0.056 0.092 0.002 0 0.022
O16A 0.082 0.085 0.111 0.017 0.002 0.052
C7A 0.072 0.053 0.071 -0.001 -0.007 0.033
C8A 0.067 0.058 0.08 0.003 0.009 0.037
Cr2B 0.0532 0.0613 0.076 0.0018 -0.001 0.024
Mn1B 0.0553 0.0617 0.0887 0.0003 -0.0029 0.0302
O1B 0.065 0.064 0.095 -0.017 -0.012 0.033
O2B 0.057 0.06 0.103 -0.016 -0.02 0.0325
O3B 0.058 0.078 0.105 -0.017 -0.02 0.038
O4B 0.068 0.096 0.088 -0.02 -0.012 0.049
C1B 0.051 0.056 0.088 -0.004 -0.006 0.027
C2B 0.051 0.058 0.079 0.002 -0.002 0.027
O5B 0.069 0.075 0.078 -0.01 0 0.02
O6B 0.064 0.068 0.083 0.008 0.018 0.032
O7B 0.062 0.068 0.064 0.005 0.009 0.019
O8B 0.071 0.074 0.07 0.008 0.009 0.036
C3B 0.051 0.073 0.071 -0.003 -0.007 0.03
C4B 0.055 0.054 0.07 0.001 0.004 0.031
O9B 0.053 0.07 0.09 0.01 0.007 0.022
O10B 0.051 0.082 0.09 0.013 0.003 0.029
O11B 0.067 0.092 0.097 0.008 -0.006 0.046
O12B 0.088 0.071 0.11 0.025 0.003 0.023
C5B 0.058 0.052 0.085 -0.005 0.001 0.023
C6B 0.068 0.045 0.088 0.004 0 0.019
O13B 0.062 0.073 0.086 -0.004 0 0.035
O14B 0.058 0.063 0.096 -0.005 -0.006 0.027
O15B 0.056 0.086 0.092 -0.002 -0.002 0.034
O16B 0.085 0.063 0.111 -0.015 -0.017 0.033
C7B 0.053 0.059 0.071 -0.006 0.001 0.02
C8B 0.058 0.051 0.08 0.006 -0.003 0.021
Mn1I 0.0566 0.0617 0.0887 0.0003 0.0032 0.0315
Mn1J 0.0553 0.0566 0.0887 -0.0032 -0.0029 0.0251
Mn1K 0.0617 0.0553 0.0887 0.0029 -0.0003 0.0302
Mn1O 0.0566 0.0617 0.0887 0.0003 0.0032 0.0315
Mn1P 0.0553 0.0566 0.0887 -0.0032 -0.0029 0.0251
Mn1Q 0.0617 0.0553 0.0887 0.0029 -0.0003 0.0302
O11O 0.067 0.092 0.097 0.008 0.014 0.046
O11P 0.067 0.067 0.097 -0.014 -0.006 0.021
O11Q 0.092 0.067 0.097 0.006 -0.008 0.046
O12O 0.113 0.071 0.11 0.025 0.022 0.048
O12P 0.088 0.113 0.11 -0.022 0.003 0.065
O12Q 0.071 0.088 0.11 -0.003 -0.025 0.023
O15I 0.074 0.086 0.092 -0.002 0 0.052
O15J 0.056 0.074 0.092 0 -0.002 0.022
O15K 0.086 0.056 0.092 0.002 0.002 0.034
O16I 0.082 0.063 0.111 -0.015 0.002 0.03
O16J 0.085 0.082 0.111 -0.002 -0.017 0.052
O16K 0.063 0.085 0.111 0.017 0.015 0.033
loop_
_geom_bond_atom_site_label_1
_geom_bond_atom_site_label_2
_geom_bond_site_symmetry_1
_geom_bond_site_symmetry_2
Cr1 O1 1_555 1_555
Cr2 O7 1_555 1_555
Mn1 O3 1_555 1_555
O1 C1 1_555 1_555
O2 Cr1 1_555 1_555
O3 C1 1_555 1_555
O4 Mn1 1_555 1_555
C1 C2 1_555 1_555
C2 O2 1_555 1_555
O5 Mn1 1_555 1_555
O6 Mn1 1_555 1_555
O7 C3 1_555 1_555
O8 Cr2 1_555 1_555
C3 O5 1_555 1_555
C4 O6 1_555 1_555
O9 Cr2 1_555 1_555
O10 Cr2 1_555 1_555
O11 C5 1_555 1_555
O12 C6 1_555 1_555
C5 O10 1_555 1_555
C6 O9 1_555 1_555
O13 Cr2 1_555 1_555
O14 Cr2 1_555 1_555
O15 C7 1_555 1_555
O16 C8 1_555 1_555
C7 O13 1_555 1_555
C8 O14 1_555 1_555
N1 C9 1_555 1_555
C9 H1 1_555 1_555
H2 C9 1_555 1_555
H3 C9 1_555 1_555
C10 N1 1_555 1_555
H4 C10 1_555 1_555
H5 C10 1_555 1_555
H6 C10 1_555 1_555
C11 N1 1_555 1_555
H7 C11 1_555 1_555
H8 C11 1_555 1_555
H9 C11 1_555 1_555
C12 N1 1_555 1_555
H10 C12 1_555 1_555
H11 C12 1_555 1_555
H12 C12 1_555 1_555
N2 C13 1_555 1_555
C13 H13 1_555 1_555
H14 C13 1_555 1_555
H15 C13 1_555 1_555
C14 N2 1_555 1_555
H16 C14 1_555 1_555
H17 C14 1_555 1_555
H18 C14 1_555 1_555
C15 N2 1_555 1_555
H19 C15 1_555 1_555
H20 C15 1_555 1_555
H21 C15 1_555 1_555
C16 N2 1_555 1_555
H22 C16 1_555 1_555
H23 C16 1_555 1_555
H24 C16 1_555 1_555
Cr2A O7A 1_555 1_555
Mn1A O3A 1_555 1_555
O1A Cr1 1_555 1_555
O2A Cr1 1_555 1_555
O3A C1A 1_555 1_555
O4A Mn1A 1_555 1_555
C1A O1A 1_555 1_555
C2A O2A 1_555 1_555
O5A Mn1A 1_555 1_555
O6A Mn1A 1_555 1_555
O7A C3A 1_555 1_555
O8A Cr2A 1_555 1_555
C3A O5A 1_555 1_555
C4A O6A 1_555 1_555
O9A Cr2A 1_555 1_555
O10A Cr2A 1_555 1_555
O11A C5A 1_555 1_555
O12A C6A 1_555 1_555
C5A O10A 1_555 1_555
C6A O9A 1_555 1_555
O13A Cr2A 1_555 1_555
O14A Cr2A 1_555 1_555
O15A C7A 1_555 1_555
O16A C8A 1_555 1_555
C7A O13A 1_555 1_555
C8A O14A 1_555 1_555
Cr2B O7B 1_555 1_555
Mn1B O3B 1_555 1_555
O1B Cr1 1_555 1_555
O2B Cr1 1_555 1_555
O3B C1B 1_555 1_555
O4B Mn1B 1_555 1_555
C1B O1B 1_555 1_555
C2B O2B 1_555 1_555
O5B Mn1B 1_555 1_555
O6B Mn1B 1_555 1_555
O7B C3B 1_555 1_555
O8B Cr2B 1_555 1_555
C3B O5B 1_555 1_555
C4B O6B 1_555 1_555
O9B Cr2B 1_555 1_555
O10B Cr2B 1_555 1_555
O11B C5B 1_555 1_555
O12B C6B 1_555 1_555
C5B O10B 1_555 1_555
C6B O9B 1_555 1_555
O13B Cr2B 1_555 1_555
O14B Cr2B 1_555 1_555
O15B C7B 1_555 1_555
O16B C8B 1_555 1_555
C7B O13B 1_555 1_555
C8B O14B 1_555 1_555
Mn1I O11B 1_555 1_555
Mn1J O11A 1_555 1_555
Mn1K O11 1_555 1_555
Mn1O O15 1_555 1_555
Mn1P O15B 1_555 1_555
Mn1Q O15A 1_555 1_555
O11O Mn1B 1_555 1_555
O11P Mn1A 1_555 1_555
O11Q Mn1 1_555 1_555
O12O Mn1B 1_555 1_555
O12P Mn1A 1_555 1_555
O12Q Mn1 1_555 1_555
O15I Mn1 1_555 1_555
O15J Mn1B 1_555 1_555
O15K Mn1A 1_555 1_555
O16I Mn1 1_555 1_555
O16J Mn1B 1_555 1_555
O16K Mn1A 1_555 1_555
O4 C2 1_555 1_555
O8 C4 1_555 1_555
C3 C4 1_555 1_555
O12 Mn1K 1_555 1_555
C5 C6 1_555 1_555
O16 Mn1O 1_555 1_555
C7 C8 1_555 1_555
O4A C2A 1_555 1_555
C1A C2A 1_555 1_555
O8A C4A 1_555 1_555
C3A C4A 1_555 1_555
O12A Mn1J 1_555 1_555
C5A C6A 1_555 1_555
O16A Mn1Q 1_555 1_555
C7A C8A 1_555 1_555
O4B C2B 1_555 1_555
C1B C2B 1_555 1_555
O8B C4B 1_555 1_555
C3B C4B 1_555 1_555
O12B Mn1I 1_555 1_555
C5B C6B 1_555 1_555
O16B Mn1P 1_555 1_555
C7B C8B 1_555 1_555

#END
