
#######################################################################
#
#                 Cambridge Crystallographic Data Centre
#                                CCDC 
#
#######################################################################
#
# If this CIF has been generated from an entry in the Cambridge 
# Structural Database, then it will include bibliographic, chemical, 
# crystal, experimental, refinement or atomic coordinate data resulting 
# from the CCDC's data processing and validation procedures.
#
#######################################################################

data_QIYDIN
_chemical_formula_moiety         '(C132 H72 Cu6 O30)n'
_symmetry_cell_setting           cubic
_symmetry_space_group_name_H-M   'P m 3'
_symmetry_Int_Tables_number      200
_space_group_name_Hall           '-P 2 2 3'
loop_
_symmetry_equiv_pos_site_id
_symmetry_equiv_pos_as_xyz
1 x,y,z
2 -x,-y,z
3 -x,y,-z
4 x,-y,-z
5 z,x,y
6 z,-x,-y
7 -z,-x,y
8 -z,x,-y
9 y,z,x
10 -y,z,-x
11 y,-z,-x
12 -y,-z,x
13 -x,-y,-z
14 x,y,-z
15 x,-y,z
16 -x,y,z
17 -z,-x,-y
18 -z,x,y
19 z,x,-y
20 z,-x,y
21 -y,-z,-x
22 y,-z,x
23 -y,z,x
24 y,z,-x
_cell_length_a                   34.346(4)
_cell_length_b                   34.346(4)
_cell_length_c                   34.346(4)
_cell_angle_alpha                90
_cell_angle_beta                 90
_cell_angle_gamma                90
_cell_volume                     40516.2
loop_
_atom_site_label
_atom_site_type_symbol
_atom_site_fract_x
_atom_site_fract_y
_atom_site_fract_z
Cu1 Cu 0.16637(3) 0.0000 0.5000
Cu2 Cu 0.24283(3) 0.0000 0.5000
O1 O 0.17049(8) 0.03998(6) 0.54090(6)
O2 O 0.23861(9) 0.03964(7) 0.54050(7)
O3 O 0.10040(14) 0.0000 0.5000
O4 O 0.30638(15) 0.0000 0.5000
C1 C 0.20387(18) 0.05097(13) 0.55199(12)
C2 C 0.20568(14) 0.07750(9) 0.58768(8)
C3 C 0.24096(10) 0.08684(12) 0.60517(12)
H1 H 0.2643 0.0766 0.5952
C4 C 0.24172(11) 0.11127(13) 0.63743(12)
H2 H 0.2656 0.1176 0.6493
C5 C 0.20719(16) 0.12638(10) 0.65218(9)
C6 C 0.17191(11) 0.11705(11) 0.63469(12)
H3 H 0.1486 0.1273 0.6447
C7 C 0.17116(9) 0.09261(11) 0.60243(12)
H4 H 0.1473 0.0863 0.5906
C8 C 0.20644(16) 0.15185(18) 0.6895(2)
C9 C 0.21218(19) 0.17238(19) 0.71603(17)
C10 C 0.21466(19) 0.19457(17) 0.74747(18)
C11 C 0.1902(2) 0.2240(2) 0.75464(18)
H5 H 0.1683 0.2263 0.7384
O1G O 0.45910(6) 0.17049(8) 0.96002(6)
O2G O 0.45950(7) 0.23861(9) 0.96036(7)
C1G C 0.44801(12) 0.20387(18) 0.94903(13)
C2G C 0.41232(8) 0.20568(14) 0.92250(9)
C3G C 0.39483(12) 0.24096(10) 0.91316(12)
H1G H 0.4048 0.2643 0.9234
C4G C 0.36257(12) 0.24172(11) 0.88873(13)
H2G H 0.3507 0.2656 0.8824
C5G C 0.34782(9) 0.20719(16) 0.87362(10)
C6G C 0.36531(12) 0.17191(11) 0.88295(11)
H3G H 0.3553 0.1486 0.8727
C7G C 0.39757(12) 0.17116(9) 0.90739(11)
H4G H 0.4094 0.1473 0.9137
C8G C 0.3105(2) 0.20644(16) 0.84815(18)
C9G C 0.28397(17) 0.21218(19) 0.82762(19)
C10G C 0.25253(18) 0.21466(19) 0.80543(17)
C11G C 0.24536(18) 0.1902(2) 0.7760(2)
H5G H 0.2616 0.1683 0.7737
O1J O 0.03998(6) 0.45910(6) 0.82951(8)
O2J O 0.03964(7) 0.45950(7) 0.76139(9)
C1J C 0.05097(13) 0.44801(12) 0.79613(18)
C2J C 0.07750(9) 0.41232(8) 0.79432(14)
C3J C 0.08684(12) 0.39483(12) 0.75904(10)
H1J H 0.0766 0.4048 0.7357
C4J C 0.11127(13) 0.36257(12) 0.75828(11)
H2J H 0.1176 0.3507 0.7344
C5J C 0.12638(10) 0.34782(9) 0.79281(16)
C6J C 0.11705(11) 0.36531(12) 0.82809(11)
H3J H 0.1273 0.3553 0.8514
C7J C 0.09261(11) 0.39757(12) 0.82884(9)
H4J H 0.0863 0.4094 0.8527
C8J C 0.15185(18) 0.3105(2) 0.79356(16)
C9J C 0.17238(19) 0.28397(17) 0.78782(19)
C10J C 0.19457(17) 0.25253(18) 0.78534(19)
C11J C 0.2240(2) 0.24536(18) 0.8098(2)
H5J H 0.2263 0.2616 0.8317
O1M O 0.17049(8) 0.03998(6) 0.45910(6)
O2M O 0.23861(9) 0.03964(7) 0.45950(7)
C1M C 0.20387(18) 0.05097(13) 0.44801(12)
C2M C 0.20568(14) 0.07750(9) 0.41232(8)
C3M C 0.24096(10) 0.08684(12) 0.39483(12)
H1M H 0.2643 0.0766 0.4048
C4M C 0.24172(11) 0.11127(13) 0.36257(12)
H2M H 0.2656 0.1176 0.3507
C5M C 0.20719(16) 0.12638(10) 0.34782(9)
C6M C 0.17191(11) 0.11705(11) 0.36531(12)
H3M H 0.1486 0.1273 0.3553
C7M C 0.17116(9) 0.09261(11) 0.39757(12)
H4M H 0.1473 0.0863 0.4094
C8M C 0.20644(16) 0.15185(18) 0.3105(2)
C9M C 0.21218(19) 0.17238(19) 0.28397(17)
C10M C 0.21466(19) 0.19457(17) 0.25253(18)
C11M C 0.1902(2) 0.2240(2) 0.24536(18)
H5M H 0.1683 0.2263 0.2616
O1Q O 0.45910(6) 0.17049(8) 0.03998(6)
O2Q O 0.45950(7) 0.23861(9) 0.03964(7)
C1Q C 0.44801(12) 0.20387(18) 0.05097(13)
C2Q C 0.41232(8) 0.20568(14) 0.07750(9)
C3Q C 0.39483(12) 0.24096(10) 0.08684(12)
H1Q H 0.4048 0.2643 0.0766
C4Q C 0.36257(12) 0.24172(11) 0.11127(13)
H2Q H 0.3507 0.2656 0.1176
C5Q C 0.34782(9) 0.20719(16) 0.12638(10)
C6Q C 0.36531(12) 0.17191(11) 0.11705(11)
H3Q H 0.3553 0.1486 0.1273
C7Q C 0.39757(12) 0.17116(9) 0.09261(11)
H4Q H 0.4094 0.1473 0.0863
C8Q C 0.3105(2) 0.20644(16) 0.15185(18)
C9Q C 0.28397(17) 0.21218(19) 0.17238(19)
C10Q C 0.25253(18) 0.21466(19) 0.19457(17)
C11Q C 0.24536(18) 0.1902(2) 0.2240(2)
H5Q H 0.2616 0.1683 0.2263
O1U O 0.03998(6) 0.45910(6) 0.17049(8)
O2U O 0.03964(7) 0.45950(7) 0.23861(9)
C1U C 0.05097(13) 0.44801(12) 0.20387(18)
C2U C 0.07750(9) 0.41232(8) 0.20568(14)
C3U C 0.08684(12) 0.39483(12) 0.24096(10)
H1U H 0.0766 0.4048 0.2643
C4U C 0.11127(13) 0.36257(12) 0.24172(11)
H2U H 0.1176 0.3507 0.2656
C5U C 0.12638(10) 0.34782(9) 0.20719(16)
C6U C 0.11705(11) 0.36531(12) 0.17191(11)
H3U H 0.1273 0.3553 0.1486
C7U C 0.09261(11) 0.39757(12) 0.17116(9)
H4U H 0.0863 0.4094 0.1473
C8U C 0.15185(18) 0.3105(2) 0.20644(16)
C9U C 0.17238(19) 0.28397(17) 0.21218(19)
C10U C 0.19457(17) 0.25253(18) 0.21466(19)
C11U C 0.2240(2) 0.24536(18) 0.1902(2)
H5U H 0.2263 0.2616 0.1683
O1N O 0.17049(8) -0.03998(6) 0.54090(6)
O2N O 0.23861(9) -0.03964(7) 0.54050(7)
C1N C 0.20387(18) -0.05097(13) 0.55199(12)
C2N C 0.20568(14) -0.07750(9) 0.58768(8)
C3N C 0.24096(10) -0.08684(12) 0.60517(12)
H1N H 0.2643 -0.0766 0.5952
C4N C 0.24172(11) -0.11127(13) 0.63743(12)
H2N H 0.2656 -0.1176 0.6493
C5N C 0.20719(16) -0.12638(10) 0.65218(9)
C6N C 0.17191(11) -0.11705(11) 0.63469(12)
H3N H 0.1486 -0.1273 0.6447
C7N C 0.17116(9) -0.09261(11) 0.60243(12)
H4N H 0.1473 -0.0863 0.5906
C8N C 0.20644(16) -0.15185(18) 0.6895(2)
C9N C 0.21218(19) -0.17238(19) 0.71603(17)
C10N C 0.21466(19) -0.19457(17) 0.74747(18)
C11N C 0.1902(2) -0.2240(2) 0.75464(18)
H5N H 0.1683 -0.2263 0.7384
O1P O 0.45910(6) -0.17049(8) 0.96002(6)
O2P O 0.45950(7) -0.23861(9) 0.96036(7)
C1P C 0.44801(12) -0.20387(18) 0.94903(13)
C2P C 0.41232(8) -0.20568(14) 0.92250(9)
C3P C 0.39483(12) -0.24096(10) 0.91316(12)
H1P H 0.4048 -0.2643 0.9234
C4P C 0.36257(12) -0.24172(11) 0.88873(13)
H2P H 0.3507 -0.2656 0.8824
C5P C 0.34782(9) -0.20719(16) 0.87362(10)
C6P C 0.36531(12) -0.17191(11) 0.88295(11)
H3P H 0.3553 -0.1486 0.8727
C7P C 0.39757(12) -0.17116(9) 0.90739(11)
H4P H 0.4094 -0.1473 0.9137
C8P C 0.3105(2) -0.20644(16) 0.84815(18)
C9P C 0.28397(17) -0.21218(19) 0.82762(19)
C10P C 0.25253(18) -0.21466(19) 0.80543(17)
C11P C 0.24536(18) -0.1902(2) 0.7760(2)
H5P H 0.2616 -0.1683 0.7737
O1W O 0.03998(6) -0.45910(6) 0.82951(8)
O2W O 0.03964(7) -0.45950(7) 0.76139(9)
C1W C 0.05097(13) -0.44801(12) 0.79613(18)
C2W C 0.07750(9) -0.41232(8) 0.79432(14)
C3W C 0.08684(12) -0.39483(12) 0.75904(10)
H1W H 0.0766 -0.4048 0.7357
C4W C 0.11127(13) -0.36257(12) 0.75828(11)
H2W H 0.1176 -0.3507 0.7344
C5W C 0.12638(10) -0.34782(9) 0.79281(16)
C6W C 0.11705(11) -0.36531(12) 0.82809(11)
H3W H 0.1273 -0.3553 0.8514
C7W C 0.09261(11) -0.39757(12) 0.82884(9)
H4W H 0.0863 -0.4094 0.8527
C8W C 0.15185(18) -0.3105(2) 0.79356(16)
C9W C 0.17238(19) -0.28397(17) 0.78782(19)
C10W C 0.19457(17) -0.25253(18) 0.78534(19)
C11W C 0.2240(2) -0.24536(18) 0.8098(2)
H5W H 0.2263 -0.2616 0.8317
O1C O 0.17049(8) -0.03998(6) 0.45910(6)
O2C O 0.23861(9) -0.03964(7) 0.45950(7)
C1C C 0.20387(18) -0.05097(13) 0.44801(12)
C2C C 0.20568(14) -0.07750(9) 0.41232(8)
C3C C 0.24096(10) -0.08684(12) 0.39483(12)
H1C H 0.2643 -0.0766 0.4048
C4C C 0.24172(11) -0.11127(13) 0.36257(12)
H2C H 0.2656 -0.1176 0.3507
C5C C 0.20719(16) -0.12638(10) 0.34782(9)
C6C C 0.17191(11) -0.11705(11) 0.36531(12)
H3C H 0.1486 -0.1273 0.3553
C7C C 0.17116(9) -0.09261(11) 0.39757(12)
H4C H 0.1473 -0.0863 0.4094
C8C C 0.20644(16) -0.15185(18) 0.3105(2)
C9C C 0.21218(19) -0.17238(19) 0.28397(17)
C10C C 0.21466(19) -0.19457(17) 0.25253(18)
C11C C 0.1902(2) -0.2240(2) 0.24536(18)
H5C H 0.1683 -0.2263 0.2616
O1F O 0.45910(6) -0.17049(8) 0.03998(6)
O2F O 0.45950(7) -0.23861(9) 0.03964(7)
C1F C 0.44801(12) -0.20387(18) 0.05097(13)
C2F C 0.41232(8) -0.20568(14) 0.07750(9)
C3F C 0.39483(12) -0.24096(10) 0.08684(12)
H1F H 0.4048 -0.2643 0.0766
C4F C 0.36257(12) -0.24172(11) 0.11127(13)
H2F H 0.3507 -0.2656 0.1176
C5F C 0.34782(9) -0.20719(16) 0.12638(10)
C6F C 0.36531(12) -0.17191(11) 0.11705(11)
H3F H 0.3553 -0.1486 0.1273
C7F C 0.39757(12) -0.17116(9) 0.09261(11)
H4F H 0.4094 -0.1473 0.0863
C8F C 0.3105(2) -0.20644(16) 0.15185(18)
C9F C 0.28397(17) -0.21218(19) 0.17238(19)
C10F C 0.25253(18) -0.21466(19) 0.19457(17)
C11F C 0.24536(18) -0.1902(2) 0.2240(2)
H5F H 0.2616 -0.1683 0.2263
O1H O 0.03998(6) -0.45910(6) 0.17049(8)
O2H O 0.03964(7) -0.45950(7) 0.23861(9)
C1H C 0.05097(13) -0.44801(12) 0.20387(18)
C2H C 0.07750(9) -0.41232(8) 0.20568(14)
C3H C 0.08684(12) -0.39483(12) 0.24096(10)
H1H H 0.0766 -0.4048 0.2643
C4H C 0.11127(13) -0.36257(12) 0.24172(11)
H2H H 0.1176 -0.3507 0.2656
C5H C 0.12638(10) -0.34782(9) 0.20719(16)
C6H C 0.11705(11) -0.36531(12) 0.17191(11)
H3H H 0.1273 -0.3553 0.1486
C7H C 0.09261(11) -0.39757(12) 0.17116(9)
H4H H 0.0863 -0.4094 0.1473
C8H C 0.15185(18) -0.3105(2) 0.20644(16)
C9H C 0.17238(19) -0.28397(17) 0.21218(19)
C10H C 0.19457(17) -0.25253(18) 0.21466(19)
C11H C 0.2240(2) -0.24536(18) 0.1902(2)
H5H H 0.2263 -0.2616 0.1683
Cu1D Cu 0.5000 0.16637(3) 1.0000
Cu2D Cu 0.5000 0.24283(3) 1.0000
O3D O 0.5000 0.10040(14) 1.0000
O4D O 0.5000 0.30638(15) 1.0000
Cu1I Cu 0.0000 0.5000 0.83363(3)
Cu2I Cu 0.0000 0.5000 0.75717(3)
O3I O 0.0000 0.5000 0.89960(14)
O4I O 0.0000 0.5000 0.69362(15)
Cu1D_2 Cu 0.5000 0.16637(3) 0.0000
Cu1E Cu 0.5000 -0.16637(3) 0.0000
Cu1E_2 Cu 0.5000 -0.16637(3) 1.0000
Cu1H Cu 0.0000 -0.5000 0.16637(3)
Cu1H_2 Cu 0.0000 0.5000 0.16637(3)
Cu1I_2 Cu 0.0000 -0.5000 0.83363(3)
Cu2D_2 Cu 0.5000 0.24283(3) 0.0000
Cu2E Cu 0.5000 -0.24283(3) 0.0000
Cu2E_2 Cu 0.5000 -0.24283(3) 1.0000
Cu2H Cu 0.0000 -0.5000 0.24283(3)
Cu2H_2 Cu 0.0000 0.5000 0.24283(3)
Cu2I_2 Cu 0.0000 -0.5000 0.75717(3)
O1D O 0.54090(6) 0.17049(8) 1.03998(6)
O1I O -0.03998(6) 0.54090(6) 0.82951(8)
O1Q_2 O 0.45910(6) 0.17049(8) 1.03998(6)
O1R O 0.54090(6) 0.17049(8) 0.96002(6)
O1T O -0.03998(6) 0.45910(6) 0.82951(8)
O1W_2 O 0.03998(6) 0.54090(6) 0.82951(8)
O2D O 0.54050(7) 0.23861(9) 1.03964(7)
O2I O -0.03964(7) 0.54050(7) 0.76139(9)
O2Q_2 O 0.45950(7) 0.23861(9) 1.03964(7)
O2R O 0.54050(7) 0.23861(9) 0.96036(7)
O2T O -0.03964(7) 0.45950(7) 0.76139(9)
O2W_2 O 0.03964(7) 0.54050(7) 0.76139(9)
loop_
_geom_bond_atom_site_label_1
_geom_bond_atom_site_label_2
_geom_bond_site_symmetry_1
_geom_bond_site_symmetry_2
Cu1 Cu2 1_555 1_555
Cu2 O2 1_555 1_555
O1 Cu1 1_555 1_555
O2 C1 1_555 1_555
O3 Cu1 1_555 1_555
O4 Cu2 1_555 1_555
C1 O1 1_555 1_555
C2 C1 1_555 1_555
C3 C2 1_555 1_555
H1 C3 1_555 1_555
C4 C3 1_555 1_555
H2 C4 1_555 1_555
C5 C4 1_555 1_555
C6 C5 1_555 1_555
H3 C6 1_555 1_555
C7 C2 1_555 1_555
H4 C7 1_555 1_555
C8 C5 1_555 1_555
C9 C8 1_555 1_555
C10 C9 1_555 1_555
C11 C10 1_555 1_555
H5 C11 1_555 1_555
O1G C1G 1_555 1_555
O2G C1G 1_555 1_555
C1G C2G 1_555 1_555
C2G C3G 1_555 1_555
C3G H1G 1_555 1_555
C4G C3G 1_555 1_555
H2G C4G 1_555 1_555
C5G C4G 1_555 1_555
C6G C5G 1_555 1_555
H3G C6G 1_555 1_555
C7G C2G 1_555 1_555
H4G C7G 1_555 1_555
C8G C5G 1_555 1_555
C9G C8G 1_555 1_555
C10G C9G 1_555 1_555
C11G C10 1_555 1_555
H5G C11G 1_555 1_555
O1J C1J 1_555 1_555
O2J C1J 1_555 1_555
C1J C2J 1_555 1_555
C2J C3J 1_555 1_555
C3J H1J 1_555 1_555
C4J C3J 1_555 1_555
H2J C4J 1_555 1_555
C5J C4J 1_555 1_555
C6J C5J 1_555 1_555
H3J C6J 1_555 1_555
C7J C2J 1_555 1_555
H4J C7J 1_555 1_555
C8J C5J 1_555 1_555
C9J C8J 1_555 1_555
C10J C11 1_555 1_555
C11J C10G 1_555 1_555
H5J C11J 1_555 1_555
O1M Cu1 1_555 1_555
O2M Cu2 1_555 1_555
C1M O1M 1_555 1_555
C2M C1M 1_555 1_555
C3M C2M 1_555 1_555
H1M C3M 1_555 1_555
C4M C3M 1_555 1_555
H2M C4M 1_555 1_555
C5M C4M 1_555 1_555
C6M C5M 1_555 1_555
H3M C6M 1_555 1_555
C7M C2M 1_555 1_555
H4M C7M 1_555 1_555
C8M C5M 1_555 1_555
C9M C8M 1_555 1_555
C10M C9M 1_555 1_555
C11M C10M 1_555 1_555
H5M C11M 1_555 1_555
O1Q C1Q 1_555 1_555
O2Q C1Q 1_555 1_555
C1Q C2Q 1_555 1_555
C2Q C3Q 1_555 1_555
C3Q H1Q 1_555 1_555
C4Q C3Q 1_555 1_555
H2Q C4Q 1_555 1_555
C5Q C4Q 1_555 1_555
C6Q C5Q 1_555 1_555
H3Q C6Q 1_555 1_555
C7Q C2Q 1_555 1_555
H4Q C7Q 1_555 1_555
C8Q C5Q 1_555 1_555
C9Q C8Q 1_555 1_555
C10Q C9Q 1_555 1_555
C11Q C10M 1_555 1_555
H5Q C11Q 1_555 1_555
O1U C1U 1_555 1_555
O2U C1U 1_555 1_555
C1U C2U 1_555 1_555
C2U C3U 1_555 1_555
C3U H1U 1_555 1_555
C4U C3U 1_555 1_555
H2U C4U 1_555 1_555
C5U C4U 1_555 1_555
C6U C5U 1_555 1_555
H3U C6U 1_555 1_555
C7U C2U 1_555 1_555
H4U C7U 1_555 1_555
C8U C5U 1_555 1_555
C9U C8U 1_555 1_555
C10U C11M 1_555 1_555
C11U C10Q 1_555 1_555
H5U C11U 1_555 1_555
O1N Cu1 1_555 1_555
O2N Cu2 1_555 1_555
C1N O1N 1_555 1_555
C2N C1N 1_555 1_555
C3N C2N 1_555 1_555
H1N C3N 1_555 1_555
C4N C3N 1_555 1_555
H2N C4N 1_555 1_555
C5N C4N 1_555 1_555
C6N C5N 1_555 1_555
H3N C6N 1_555 1_555
C7N C2N 1_555 1_555
H4N C7N 1_555 1_555
C8N C5N 1_555 1_555
C9N C8N 1_555 1_555
C10N C9N 1_555 1_555
C11N C10N 1_555 1_555
H5N C11N 1_555 1_555
O1P C1P 1_555 1_555
O2P C1P 1_555 1_555
C1P C2P 1_555 1_555
C2P C3P 1_555 1_555
C3P H1P 1_555 1_555
C4P C3P 1_555 1_555
H2P C4P 1_555 1_555
C5P C4P 1_555 1_555
C6P C5P 1_555 1_555
H3P C6P 1_555 1_555
C7P C2P 1_555 1_555
H4P C7P 1_555 1_555
C8P C5P 1_555 1_555
C9P C8P 1_555 1_555
C10P C9P 1_555 1_555
C11P C10N 1_555 1_555
H5P C11P 1_555 1_555
O1W C1W 1_555 1_555
O2W C1W 1_555 1_555
C1W C2W 1_555 1_555
C2W C3W 1_555 1_555
C3W H1W 1_555 1_555
C4W C3W 1_555 1_555
H2W C4W 1_555 1_555
C5W C4W 1_555 1_555
C6W C5W 1_555 1_555
H3W C6W 1_555 1_555
C7W C2W 1_555 1_555
H4W C7W 1_555 1_555
C8W C5W 1_555 1_555
C9W C8W 1_555 1_555
C10W C11N 1_555 1_555
C11W C10P 1_555 1_555
H5W C11W 1_555 1_555
O1C Cu1 1_555 1_555
O2C Cu2 1_555 1_555
C1C O1C 1_555 1_555
C2C C1C 1_555 1_555
C3C C2C 1_555 1_555
H1C C3C 1_555 1_555
C4C C3C 1_555 1_555
H2C C4C 1_555 1_555
C5C C4C 1_555 1_555
C6C C5C 1_555 1_555
H3C C6C 1_555 1_555
C7C C2C 1_555 1_555
H4C C7C 1_555 1_555
C8C C5C 1_555 1_555
C9C C8C 1_555 1_555
C10C C9C 1_555 1_555
C11C C10C 1_555 1_555
H5C C11C 1_555 1_555
O1F C1F 1_555 1_555
O2F C1F 1_555 1_555
C1F C2F 1_555 1_555
C2F C3F 1_555 1_555
C3F H1F 1_555 1_555
C4F C3F 1_555 1_555
H2F C4F 1_555 1_555
C5F C4F 1_555 1_555
C6F C5F 1_555 1_555
H3F C6F 1_555 1_555
C7F C2F 1_555 1_555
H4F C7F 1_555 1_555
C8F C5F 1_555 1_555
C9F C8F 1_555 1_555
C10F C9F 1_555 1_555
C11F C10C 1_555 1_555
H5F C11F 1_555 1_555
O1H C1H 1_555 1_555
O2H C1H 1_555 1_555
C1H C2H 1_555 1_555
C2H C3H 1_555 1_555
C3H H1H 1_555 1_555
C4H C3H 1_555 1_555
H2H C4H 1_555 1_555
C5H C4H 1_555 1_555
C6H C5H 1_555 1_555
H3H C6H 1_555 1_555
C7H C2H 1_555 1_555
H4H C7H 1_555 1_555
C8H C5H 1_555 1_555
C9H C8H 1_555 1_555
C10H C11C 1_555 1_555
C11H C10F 1_555 1_555
H5H C11H 1_555 1_555
Cu1D O1G 1_555 1_555
Cu2D O2G 1_555 1_555
O3D Cu1D 1_555 1_555
O4D Cu2D 1_555 1_555
Cu1I O1J 1_555 1_555
Cu2I O2J 1_555 1_555
O3I Cu1I 1_555 1_555
O4I Cu2I 1_555 1_555
Cu1D_2 O1Q 1_555 1_555
Cu1E O1F 1_555 1_555
Cu1E_2 O1P 1_555 1_555
Cu1H O1H 1_555 1_555
Cu1H_2 O1U 1_555 1_555
Cu1I_2 O1W 1_555 1_555
Cu2D_2 O2Q 1_555 1_555
Cu2E O2F 1_555 1_555
Cu2E_2 O2P 1_555 1_555
Cu2H O2H 1_555 1_555
Cu2H_2 O2U 1_555 1_555
Cu2I_2 O2W 1_555 1_555
O1D Cu1D 1_555 1_555
O1I Cu1I 1_555 1_555
O1Q_2 Cu1D 1_555 1_555
O1R Cu1D 1_555 1_555
O1T Cu1I 1_555 1_555
O1W_2 Cu1I 1_555 1_555
O2D Cu2D 1_555 1_555
O2I Cu2I 1_555 1_555
O2Q_2 Cu2D 1_555 1_555
O2R Cu2D 1_555 1_555
O2T Cu2I 1_555 1_555
O2W_2 Cu2I 1_555 1_555
C6 C7 1_555 1_555
C6G C7G 1_555 1_555
C10G C11G 1_555 1_555
C6J C7J 1_555 1_555
C9J C10J 1_555 1_555
C10J C11J 1_555 1_555
O2M C1M 1_555 1_555
C6M C7M 1_555 1_555
C6Q C7Q 1_555 1_555
C10Q C11Q 1_555 1_555
C6U C7U 1_555 1_555
C9U C10U 1_555 1_555
C10U C11U 1_555 1_555
O2N C1N 1_555 1_555
C6N C7N 1_555 1_555
C6P C7P 1_555 1_555
C10P C11P 1_555 1_555
C6W C7W 1_555 1_555
C9W C10W 1_555 1_555
C10W C11W 1_555 1_555
O2C C1C 1_555 1_555
C6C C7C 1_555 1_555
C6F C7F 1_555 1_555
C10F C11F 1_555 1_555
C6H C7H 1_555 1_555
C9H C10H 1_555 1_555
C10H C11H 1_555 1_555
Cu1D Cu2D 1_555 1_555
Cu1I Cu2I 1_555 1_555
Cu1D_2 Cu2D_2 1_555 1_555
Cu1E Cu2E 1_555 1_555
Cu1E_2 Cu2E_2 1_555 1_555
Cu1H Cu2H 1_555 1_555
Cu1H_2 Cu2H_2 1_555 1_555
Cu1I_2 Cu2I_2 1_555 1_555

#END
