
#######################################################################
#
#                 Cambridge Crystallographic Data Centre
#                                CCDC 
#
#######################################################################
#
# If this CIF has been generated from an entry in the Cambridge 
# Structural Database, then it will include bibliographic, chemical, 
# crystal, experimental, refinement or atomic coordinate data resulting 
# from the CCDC's data processing and validation procedures.
#
#######################################################################

data_GATSAY
_chemical_formula_moiety         '(C50 H66 B20 N6 O16 Zn4)n'
_symmetry_cell_setting           triclinic
_symmetry_space_group_name_H-M   'P -1'
_symmetry_Int_Tables_number      2
_space_group_name_Hall           '-P 1'
loop_
_symmetry_equiv_pos_site_id
_symmetry_equiv_pos_as_xyz
1 x,y,z
2 -x,-y,-z
_cell_length_a                   12.0317(10)
_cell_length_b                   13.8465(10)
_cell_length_c                   15.5341(9)
_cell_angle_alpha                110.362(6)
_cell_angle_beta                 109.511(7)
_cell_angle_gamma                92.299(7)
_cell_volume                     2250.83
loop_
_atom_site_label
_atom_site_type_symbol
_atom_site_fract_x
_atom_site_fract_y
_atom_site_fract_z
Zn1 Zn 0.52586(6) 0.30812(5) 0.35129(5)
O1 O 0.3064(4) 0.6426(3) 0.6179(3)
C1 C 0.3715(11) 0.7163(9) 0.0052(8)
Zn2 Zn 0.43872(6) 0.56061(5) 0.42985(5)
C2 C 0.3012(8) 0.6535(6) 0.0432(5)
B1 B 0.2356(13) 0.6380(11) -0.0774(10)
H1 H 0.2237 0.5655 -0.1434
B2 B 0.2743(11) 0.7587(11) -0.0742(10)
H2 H 0.2918 0.7677 -0.1376
B3 B 0.3610(12) 0.8441(11) 0.0402(13)
H3 H 0.4315 0.9092 0.0547
B4 B 0.3815(16) 0.7766(16) 0.1214(13)
H4 H 0.4645 0.7973 0.1893
B5 B 0.1535(9) 0.6421(7) -0.0086(7)
H5 H 0.0885 0.5720 -0.0247
O2 O 0.4484(4) 0.4070(3) 0.4228(3)
B6 B 0.1277(9) 0.7160(8) -0.0840(8)
H6 H 0.0433 0.6988 -0.1499
B7 B 0.2047(12) 0.8385(11) -0.0174(14)
H7 H 0.1714 0.9030 -0.0413
B8 B 0.2679(11) 0.8576(11) 0.1119(13)
H8 H 0.2733 0.9326 0.1733
B9 B 0.2393(11) 0.7287(11) 0.1161(8)
H9 H 0.2296 0.7184 0.1817
B10 B 0.1267(10) 0.7687(8) 0.0288(9)
H10 H 0.0405 0.7858 0.0386
C3 C 0.4889(8) 0.6822(8) -0.0038(6)
H11 H 0.4709 0.6055 -0.0450
O3 O 0.5762(6) 0.6986(7) 0.0904(5)
H12 H 0.6441 0.7199 0.0932
C4 C 0.5391(9) 0.7383(7) -0.0545(7)
C5 C 0.6290(11) 0.8241(9) -0.0038(7)
H13 H 0.6657 0.8461 0.0660
C6 C 0.6675(11) 0.8785(10) -0.0479(8)
H14 H 0.7221 0.9429 -0.0103
C7 C 0.6247(9) 0.8372(8) -0.1507(8)
H15 H 0.6507 0.8734 -0.1844
N1 N 0.5481(5) 0.7481(4) -0.2016(4)
C8 C 0.5045(7) 0.7013(5) -0.1551(5)
H16 H 0.4464 0.6391 -0.1937
C9 C 0.3467(9) 0.5553(8) 0.0558(6)
H17 H 0.4359 0.5743 0.0883
O4 O 0.3210(9) 0.4778(7) -0.0403(6)
H18 H 0.3725 0.4386 -0.0371
C10 C 0.3044(8) 0.5135(7) 0.1181(6)
C11 C 0.2155(9) 0.4312(8) 0.0788(6)
H19 H 0.1753 0.4007 0.0090
C12 C 0.1812(8) 0.3900(8) 0.1352(6)
H20 H 0.1170 0.3325 0.1063
C13 C 0.2430(6) 0.4349(5) 0.2362(5)
H21 H 0.2206 0.4065 0.2768
N2 N 0.3319(4) 0.5157(4) 0.2790(4)
C14 C 0.3614(6) 0.5543(6) 0.2210(5)
H22 H 0.4246 0.6127 0.2510
O5 O 0.2764(4) 0.5467(3) 0.4601(3)
C15 C 0.2423(6) 0.5760(5) 0.5292(5)
C16 C 0.1164(5) 0.5376(5) 0.5150(5)
C17 C 0.0779(6) 0.5729(5) 0.5940(5)
H23 H 0.1298 0.6219 0.6569
C18 C 0.0408(6) 0.4664(5) 0.4222(5)
H24 H 0.0691 0.4441 0.3694
O6 O 0.5155(5) 0.1845(3) 0.3846(3)
C19 C 0.5254(5) 0.1932(4) 0.4699(5)
O7 O 0.5507(4) 0.2783(3) 0.5434(3)
C20 C 0.5133(5) 0.0939(4) 0.4867(5)
C21 C 0.5323(7) 0.0948(5) 0.5789(5)
H25 H 0.5541 0.1598 0.6338
C22 C 0.5200(7) 0.0022(5) 0.5934(5)
H26 H 0.5343 0.0041 0.6580
O8 O 0.5865(4) 0.5621(4) 0.3812(4)
C23 C 0.6803(7) 0.6244(6) 0.4224(6)
H27 H 0.7033 0.6639 0.4912
N3 N 0.7522(6) 0.6418(6) 0.3799(5)
C24 C 0.8702(9) 0.7118(9) 0.4408(8)
H28 H 0.9343 0.6704 0.4398
H29 H 0.8750 0.7466 0.5090
H30 H 0.8792 0.7645 0.4137
C25 C 0.7236(10) 0.5811(10) 0.2778(7)
H31 H 0.7299 0.6276 0.2437
H32 H 0.6416 0.5419 0.2487
H33 H 0.7796 0.5322 0.2706
O5A O -0.2764(4) 0.4533(3) 0.5399(3)
C15A C -0.2423(6) 0.4240(5) 0.4708(5)
C16A C -0.1164(5) 0.4624(5) 0.4850(5)
C17A C -0.0779(6) 0.4271(5) 0.4060(5)
H23A H -0.1298 0.3781 0.3431
C18A C -0.0408(6) 0.5336(5) 0.5778(5)
H24A H -0.0691 0.5559 0.6306
O1A O -0.3064(4) 0.3574(3) 0.3821(3)
O6A O 0.4845(5) -0.1845(3) 0.6154(3)
C19A C 0.4746(5) -0.1932(4) 0.5301(5)
O7A O 0.4493(4) -0.2783(3) 0.4566(3)
C20A C 0.4867(5) -0.0939(4) 0.5133(5)
C21A C 0.4677(7) -0.0948(5) 0.4211(5)
H25A H 0.4459 -0.1598 0.3662
C22A C 0.4800(7) -0.0022(5) 0.4066(5)
H26A H 0.4657 -0.0041 0.3420
Zn1A Zn -0.52586(6) 0.69188(5) 0.64871(5)
C1A C -0.3715(11) 0.2837(9) 0.9948(8)
Zn2A Zn -0.43872(6) 0.43939(5) 0.57015(5)
C2A C -0.3012(8) 0.3465(6) 0.9568(5)
B1A B -0.2356(13) 0.3620(11) 1.0774(10)
H1A H -0.2237 0.4345 1.1434
B2A B -0.2743(11) 0.2413(11) 1.0742(10)
H2A H -0.2918 0.2323 1.1376
B3A B -0.3610(12) 0.1559(11) 0.9598(13)
H3A H -0.4315 0.0908 0.9453
B4A B -0.3815(16) 0.2234(16) 0.8786(13)
H4A H -0.4645 0.2027 0.8107
B5A B -0.1535(9) 0.3579(7) 1.0086(7)
H5A H -0.0885 0.4280 1.0247
O2A O -0.4484(4) 0.5930(3) 0.5772(3)
B6A B -0.1277(9) 0.2840(8) 1.0840(8)
H6A H -0.0433 0.3012 1.1499
B7A B -0.2047(12) 0.1615(11) 1.0174(14)
H7A H -0.1714 0.0970 1.0413
B8A B -0.2679(11) 0.1424(11) 0.8881(13)
H8A H -0.2733 0.0674 0.8267
B9A B -0.2393(11) 0.2713(11) 0.8839(8)
H9A H -0.2296 0.2816 0.8183
B10A B -0.1267(10) 0.2313(8) 0.9712(9)
H10A H -0.0405 0.2142 0.9614
C3A C -0.4889(8) 0.3178(8) 1.0038(6)
H11A H -0.4709 0.3945 1.0450
O3A O -0.5762(6) 0.3014(7) 0.9096(5)
H12A H -0.6441 0.2801 0.9068
C4A C -0.5391(9) 0.2617(7) 1.0545(7)
C5A C -0.6290(11) 0.1759(9) 1.0038(7)
H13A H -0.6657 0.1539 0.9340
C6A C -0.6675(11) 0.1215(10) 1.0479(8)
H14A H -0.7221 0.0571 1.0103
C7A C -0.6247(9) 0.1628(8) 1.1507(8)
H15A H -0.6507 0.1266 1.1844
N1A N -0.5481(5) 0.2519(4) 1.2016(4)
C8A C -0.5045(7) 0.2987(5) 1.1551(5)
H16A H -0.4464 0.3609 1.1937
C9A C -0.3467(9) 0.4447(8) 0.9442(6)
H17A H -0.4359 0.4257 0.9117
O4A O -0.3210(9) 0.5222(7) 1.0403(6)
H18A H -0.3725 0.5614 1.0371
C10A C -0.3044(8) 0.4865(7) 0.8819(6)
C11A C -0.2155(9) 0.5688(8) 0.9212(6)
H19A H -0.1753 0.5993 0.9910
C12A C -0.1812(8) 0.6100(8) 0.8648(6)
H20A H -0.1170 0.6675 0.8937
C13A C -0.2430(6) 0.5651(5) 0.7638(5)
H21A H -0.2206 0.5935 0.7232
N2A N -0.3319(4) 0.4843(4) 0.7210(4)
C14A C -0.3614(6) 0.4457(6) 0.7790(5)
H22A H -0.4246 0.3873 0.7490
O8A O -0.5865(4) 0.4379(4) 0.6188(4)
C23A C -0.6803(7) 0.3756(6) 0.5776(6)
H27A H -0.7033 0.3361 0.5088
N3A N -0.7522(6) 0.3582(6) 0.6201(5)
C24A C -0.8702(9) 0.2882(9) 0.5592(8)
H28A H -0.9343 0.3296 0.5602
H29A H -0.8750 0.2534 0.4910
H30A H -0.8792 0.2355 0.5863
C25A C -0.7236(10) 0.4189(10) 0.7222(7)
H31A H -0.7299 0.3724 0.7563
H32A H -0.6416 0.4581 0.7513
H33A H -0.7796 0.4678 0.7294
Zn1_2 Zn -0.47414(6) 0.30812(5) 0.35129(5)
Zn1_3 Zn -0.47414(6) 0.30812(5) 1.35129(5)
Zn1A_2 Zn 0.47414(6) -0.30812(5) 0.64871(5)
Zn1A_3 Zn 0.47414(6) 0.69188(5) -0.35129(5)
Zn1A_4 Zn 0.47414(6) 0.69188(5) 0.64871(5)
O1_2 O -0.6936(4) 0.6426(3) 0.6179(3)
O1A_2 O 0.6936(4) 0.3574(3) 0.3821(3)
Zn2_2 Zn -0.56128(6) 0.56061(5) 0.42985(5)
Zn2_3 Zn 0.43872(6) -0.43939(5) 0.42985(5)
Zn2A_2 Zn 0.56128(6) 0.43939(5) 0.57015(5)
O2_2 O -0.5516(4) 0.4070(3) 0.4228(3)
O2A_2 O 0.5516(4) 0.5930(3) 0.5772(3)
N1_2 N -0.4519(5) 0.7481(4) 0.7984(4)
N1A_2 N 0.4519(5) 0.2519(4) 0.2016(4)
O6A_2 O -0.5155(5) 0.8155(3) 0.6154(3)
O7_2 O -0.4493(4) 0.2783(3) 0.5434(3)
O7A_2 O 0.4493(4) 0.7217(3) 0.4566(3)
loop_
_geom_bond_atom_site_label_1
_geom_bond_atom_site_label_2
_geom_bond_site_symmetry_1
_geom_bond_site_symmetry_2
Zn1 O2 1_555 1_555
O1 C15 1_555 1_555
C1 C2 1_555 1_555
Zn2 O2 1_555 1_555
C2 B1 1_555 1_555
B1 C1 1_555 1_555
H1 B1 1_555 1_555
B2 C1 1_555 1_555
H2 B2 1_555 1_555
B3 C1 1_555 1_555
H3 B3 1_555 1_555
B4 C1 1_555 1_555
H4 B4 1_555 1_555
B5 C2 1_555 1_555
H5 B5 1_555 1_555
O2 Zn2A_2 1_555 1_555
B6 B1 1_555 1_555
H6 B6 1_555 1_555
B7 B2 1_555 1_555
H7 B7 1_555 1_555
B8 B3 1_555 1_555
H8 B8 1_555 1_555
B9 C2 1_555 1_555
H9 B9 1_555 1_555
B10 B5 1_555 1_555
H10 B10 1_555 1_555
C3 C1 1_555 1_555
H11 C3 1_555 1_555
O3 C3 1_555 1_555
H12 O3 1_555 1_555
C4 C3 1_555 1_555
C5 C4 1_555 1_555
H13 C5 1_555 1_555
C6 C5 1_555 1_555
H14 C6 1_555 1_555
C7 C6 1_555 1_555
H15 C7 1_555 1_555
N1 C7 1_555 1_555
C8 C4 1_555 1_555
H16 C8 1_555 1_555
C9 C2 1_555 1_555
H17 C9 1_555 1_555
O4 C9 1_555 1_555
H18 O4 1_555 1_555
C10 C9 1_555 1_555
C11 C10 1_555 1_555
H19 C11 1_555 1_555
C12 C11 1_555 1_555
H20 C12 1_555 1_555
C13 C12 1_555 1_555
H21 C13 1_555 1_555
N2 Zn2 1_555 1_555
C14 C10 1_555 1_555
H22 C14 1_555 1_555
O5 Zn2 1_555 1_555
C15 O5 1_555 1_555
C16 C15 1_555 1_555
C17 C16 1_555 1_555
H23 C17 1_555 1_555
C18 C16 1_555 1_555
H24 C18 1_555 1_555
O6 Zn1 1_555 1_555
C19 O6 1_555 1_555
O7 C19 1_555 1_555
C20 C19 1_555 1_555
C21 C20 1_555 1_555
H25 C21 1_555 1_555
C22 C21 1_555 1_555
H26 C22 1_555 1_555
O8 Zn2 1_555 1_555
C23 O8 1_555 1_555
H27 C23 1_555 1_555
N3 C23 1_555 1_555
C24 N3 1_555 1_555
H28 C24 1_555 1_555
H29 C24 1_555 1_555
H30 C24 1_555 1_555
C25 N3 1_555 1_555
H31 C25 1_555 1_555
H32 C25 1_555 1_555
H33 C25 1_555 1_555
O5A C15A 1_555 1_555
C15A C16A 1_555 1_555
C16A C17A 1_555 1_555
C17A C18 1_555 1_555
H23A C17A 1_555 1_555
C18A C17 1_555 1_555
H24A C18A 1_555 1_555
O1A C15A 1_555 1_555
O6A C19A 1_555 1_555
C19A O7A 1_555 1_555
O7A Zn2_3 1_555 1_555
C20A C22 1_555 1_555
C21A C20A 1_555 1_555
H25A C21A 1_555 1_555
C22A C20 1_555 1_555
H26A C22A 1_555 1_555
Zn1A O2A 1_555 1_555
C1A C2A 1_555 1_555
Zn2A O5A 1_555 1_555
C2A B1A 1_555 1_555
B1A C1A 1_555 1_555
H1A B1A 1_555 1_555
B2A C1A 1_555 1_555
H2A B2A 1_555 1_555
B3A C1A 1_555 1_555
H3A B3A 1_555 1_555
B4A C1A 1_555 1_555
H4A B4A 1_555 1_555
B5A C2A 1_555 1_555
H5A B5A 1_555 1_555
O2A Zn2A 1_555 1_555
B6A B1A 1_555 1_555
H6A B6A 1_555 1_555
B7A B2A 1_555 1_555
H7A B7A 1_555 1_555
B8A B3A 1_555 1_555
H8A B8A 1_555 1_555
B9A C2A 1_555 1_555
H9A B9A 1_555 1_555
B10A B5A 1_555 1_555
H10A B10A 1_555 1_555
C3A C1A 1_555 1_555
H11A C3A 1_555 1_555
O3A C3A 1_555 1_555
H12A O3A 1_555 1_555
C4A C3A 1_555 1_555
C5A C4A 1_555 1_555
H13A C5A 1_555 1_555
C6A C5A 1_555 1_555
H14A C6A 1_555 1_555
C7A C6A 1_555 1_555
H15A C7A 1_555 1_555
N1A C7A 1_555 1_555
C8A C4A 1_555 1_555
H16A C8A 1_555 1_555
C9A C2A 1_555 1_555
H17A C9A 1_555 1_555
O4A C9A 1_555 1_555
H18A O4A 1_555 1_555
C10A C9A 1_555 1_555
C11A C10A 1_555 1_555
H19A C11A 1_555 1_555
C12A C11A 1_555 1_555
H20A C12A 1_555 1_555
C13A C12A 1_555 1_555
H21A C13A 1_555 1_555
N2A Zn2A 1_555 1_555
C14A C10A 1_555 1_555
H22A C14A 1_555 1_555
O8A Zn2A 1_555 1_555
C23A O8A 1_555 1_555
H27A C23A 1_555 1_555
N3A C23A 1_555 1_555
C24A N3A 1_555 1_555
H28A C24A 1_555 1_555
H29A C24A 1_555 1_555
H30A C24A 1_555 1_555
C25A N3A 1_555 1_555
H31A C25A 1_555 1_555
H32A C25A 1_555 1_555
H33A C25A 1_555 1_555
Zn1_2 O1A 1_555 1_555
Zn1_3 N1A 1_555 1_555
Zn1A_2 O6A 1_555 1_555
Zn1A_3 N1 1_555 1_555
Zn1A_4 O1 1_555 1_555
O1_2 Zn1A 1_555 1_555
O1A_2 Zn1 1_555 1_555
Zn2_2 O2A 1_555 1_555
Zn2A_2 O7 1_555 1_555
O2_2 Zn2A 1_555 1_555
O2A_2 Zn2 1_555 1_555
N1_2 Zn1A 1_555 1_555
N1A_2 Zn1 1_555 1_555
O6A_2 Zn1A 1_555 1_555
O7_2 Zn2A 1_555 1_555
O7A_2 Zn2 1_555 1_555
C2 B4 1_555 1_555
B1 B2 1_555 1_555
B1 B5 1_555 1_555
B2 B3 1_555 1_555
B2 B6 1_555 1_555
B3 B4 1_555 1_555
B3 B7 1_555 1_555
B4 B8 1_555 1_555
B4 B9 1_555 1_555
B5 B6 1_555 1_555
B5 B9 1_555 1_555
B6 B7 1_555 1_555
B6 B10 1_555 1_555
B7 B8 1_555 1_555
B7 B10 1_555 1_555
B8 B9 1_555 1_555
B8 B10 1_555 1_555
B9 B10 1_555 1_555
N1 C8 1_555 1_555
C13 N2 1_555 1_555
N2 C14 1_555 1_555
C16A C18A 1_555 1_555
C19A C20A 1_555 1_555
C21A C22A 1_555 1_555
C2A B4A 1_555 1_555
B1A B2A 1_555 1_555
B1A B5A 1_555 1_555
B2A B3A 1_555 1_555
B2A B6A 1_555 1_555
B3A B4A 1_555 1_555
B3A B7A 1_555 1_555
B4A B8A 1_555 1_555
B4A B9A 1_555 1_555
B5A B6A 1_555 1_555
B5A B9A 1_555 1_555
B6A B7A 1_555 1_555
B6A B10A 1_555 1_555
B7A B8A 1_555 1_555
B7A B10A 1_555 1_555
B8A B9A 1_555 1_555
B8A B10A 1_555 1_555
B9A B10A 1_555 1_555
N1A C8A 1_555 1_555
C13A N2A 1_555 1_555
N2A C14A 1_555 1_555
Zn1_2 O2_2 1_555 1_555
Zn1A_4 O2A_2 1_555 1_555
Zn2_2 O2_2 1_555 1_555
Zn2A_2 O2A_2 1_555 1_555

#END
