
#######################################################################
#
#                 Cambridge Crystallographic Data Centre
#                                CCDC 
#
#######################################################################
#
# If this CIF has been generated from an entry in the Cambridge 
# Structural Database, then it will include bibliographic, chemical, 
# crystal, experimental, refinement or atomic coordinate data resulting 
# from the CCDC's data processing and validation procedures.
#
#######################################################################

data_OLUGUZ
_chemical_formula_moiety         '(C10 H5 Cu1 N3 O4)n'
_symmetry_cell_setting           orthorhombic
_symmetry_space_group_name_H-M   'P b c n'
_symmetry_Int_Tables_number      60
_space_group_name_Hall           '-P 2n 2ab'
loop_
_symmetry_equiv_pos_site_id
_symmetry_equiv_pos_as_xyz
1 x,y,z
2 1/2-x,1/2-y,1/2+z
3 1/2+x,1/2-y,-z
4 -x,y,1/2-z
5 -x,-y,-z
6 1/2+x,1/2+y,1/2-z
7 1/2-x,1/2+y,z
8 x,-y,1/2+z
_cell_length_a                   12.1311(5)
_cell_length_b                   14.5924(7)
_cell_length_c                   20.4168(10)
_cell_angle_alpha                90
_cell_angle_beta                 90
_cell_angle_gamma                90
_cell_volume                     3614.22
loop_
_atom_site_label
_atom_site_type_symbol
_atom_site_fract_x
_atom_site_fract_y
_atom_site_fract_z
_atom_site_U_iso_or_equiv
_atom_site_thermal_displace_type
Cu1 Cu 0.42810(4) 0.36459(3) 0.19988(2) 0.0154 Uani
O1 O 0.5285(2) 0.27149(19) 0.16361(13) 0.0305 Uani
O2 O 0.9712(2) -0.04346(19) 0.16265(13) 0.0290 Uani
O3 O 0.8565(3) -0.03726(19) 0.24795(12) 0.0312 Uani
O4 O 0.6474(2) 0.26909(19) 0.24791(12) 0.0315 Uani
N1 N 0.7059(3) 0.1311(3) -0.11788(17) 0.0463 Uani
N2 N 0.8212(3) 0.1319(2) -0.11590(15) 0.0269 Uani
N3 N 0.7611(3) 0.1259(2) -0.01491(16) 0.0269 Uani
C1 C 0.7575(3) 0.1220(2) 0.05530(19) 0.0244 Uani
C2 C 0.8242(3) 0.0590(3) 0.08906(18) 0.0277 Uani
H1 H 0.8714 0.0205 0.0660 0.0330 Uiso
C3 C 0.7508(3) 0.1163(3) 0.1907(2) 0.0292 Uani
H2 H 0.7499 0.1154 0.2363 0.0350 Uiso
C4 C 0.6874(4) 0.1793(3) 0.08885(18) 0.0293 Uani
H3 H 0.6415 0.2191 0.0660 0.0350 Uiso
C5 C 0.6129(3) 0.2449(2) 0.19221(18) 0.0208 Uani
C6 C 0.8870(3) -0.0147(3) 0.19198(17) 0.0220 Uani
C7 C 0.6852(3) 0.1778(3) 0.15627(18) 0.0260 Uani
C8 C 0.8195(3) 0.0547(3) 0.15512(19) 0.0253 Uani
C9 C 0.8503(4) 0.1272(3) -0.05468(19) 0.0319 Uani
H4 H 0.9229 0.1249 -0.0402 0.0380 Uiso
C10 C 0.6733(4) 0.1294(3) -0.0572(2) 0.0450 Uani
H5 H 0.5999 0.1303 -0.0441 0.0540 Uiso
Cu1B Cu 0.92810(4) 0.13541(3) -0.19988(2) 0.0154 Uani
Cu1C Cu 0.57190(4) 0.36459(3) 0.30012(2) 0.0154 Uani
Cu1E Cu 0.92810(4) -0.13541(3) 0.30012(2) 0.0154 Uani
Cu1F Cu 1.07190(4) -0.13541(3) 0.19988(2) 0.0154 Uani
O2F O 0.5288(2) 0.45654(19) 0.16265(13) 0.0290 Uani
O3E O 0.3565(3) 0.46274(19) 0.25205(12) 0.0312 Uani
O4C O 0.3526(2) 0.26909(19) 0.25209(12) 0.0315 Uani
N2B N 0.3212(3) 0.3681(2) 0.11590(15) 0.0269 Uani
loop_
_atom_site_aniso_label
_atom_site_aniso_U_11
_atom_site_aniso_U_22
_atom_site_aniso_U_33
_atom_site_aniso_U_23
_atom_site_aniso_U_13
_atom_site_aniso_U_12
Cu1 0.0146(3) 0.0140(3) 0.0175(3) -0.0002(2) 0.0001(2) 0.0003(2)
O1 0.0317(17) 0.0326(17) 0.0271(14) -0.0056(12) 0.0006(13) 0.0159(14)
O2 0.0310(17) 0.0260(16) 0.0300(15) 0.0077(12) 0.0074(13) 0.0144(13)
O3 0.0366(18) 0.0330(17) 0.0240(14) 0.0067(12) 0.0045(13) 0.0165(14)
O4 0.0329(17) 0.0379(18) 0.0236(14) -0.0069(12) -0.0041(13) 0.0152(14)
N1 0.026 0.095 0.0179 0.0058 0.0005 0.027
N2 0.0258 0.042 0.0128 0.0019 0.0034 0.0103
N3 0.0248 0.043 0.013 0.001 0.0026 0.019
C1 0.020(2) 0.040(2) 0.0133(19) 0.0012(14) 0.0072(15) 0.0117(19)
C2 0.031(2) 0.028(2) 0.0242(19) 0.0025(16) 0.0045(18) 0.0171(18)
C3 0.028(2) 0.043(3) 0.0166(19) -0.0030(15) 0.0080(16) 0.018(2)
C4 0.035(2) 0.025(2) 0.028(2) 0.0078(18) 0.0036(19) 0.014(2)
C5 0.022(2) 0.0125(19) 0.028(2) 0.0015(16) 0.0115(17) 0.0068(15)
C6 0.022(2) 0.023(2) 0.0210(19) -0.0027(16) 0.0010(16) 0.0028(16)
C7 0.032(2) 0.019(2) 0.027(2) -0.0040(16) 0.0097(18) 0.0129(19)
C8 0.028(2) 0.018(2) 0.030(2) 0.0025(16) 0.0033(18) 0.0120(17)
C9 0.025 0.054 0.0167 -0.0026 0.0077 0.011
C10 0.024 0.093 0.018 0.003 -0.004 0.024
Cu1B 0.0146 0.014 0.0175 -0.0002 -0.0001 -0.0003
Cu1C 0.0146 0.014 0.0175 0.0002 0.0001 -0.0003
Cu1E 0.0146 0.014 0.0175 0.0002 -0.0001 0.0003
Cu1F 0.0146 0.014 0.0175 -0.0002 -0.0001 -0.0003
O2F 0.031 0.026 0.03 0.0077 -0.0074 -0.0144
O3E 0.0366 0.033 0.024 -0.0067 -0.0045 0.0165
O4C 0.0329 0.0379 0.0236 0.0069 -0.0041 -0.0152
N2B 0.0258 0.042 0.0128 0.0019 -0.0034 -0.0103
loop_
_geom_bond_atom_site_label_1
_geom_bond_atom_site_label_2
_geom_bond_site_symmetry_1
_geom_bond_site_symmetry_2
Cu1 O1 1_555 1_555
O1 C5 1_555 1_555
O2 C6 1_555 1_555
O3 C6 1_555 1_555
O4 C5 1_555 1_555
N1 N2 1_555 1_555
N2 C9 1_555 1_555
N3 C1 1_555 1_555
C1 C2 1_555 1_555
C2 H1 1_555 1_555
C3 H2 1_555 1_555
C4 C1 1_555 1_555
H3 C4 1_555 1_555
C5 C7 1_555 1_555
C6 C8 1_555 1_555
C7 C3 1_555 1_555
C8 C2 1_555 1_555
C9 N3 1_555 1_555
H4 C9 1_555 1_555
C10 N1 1_555 1_555
H5 C10 1_555 1_555
Cu1B N2 1_555 1_555
Cu1C Cu1 1_555 1_555
Cu1E O3 1_555 1_555
Cu1F O2 1_555 1_555
O2F Cu1 1_555 1_555
O3E Cu1 1_555 1_555
O4C Cu1 1_555 1_555
N2B Cu1 1_555 1_555
O4 Cu1C 1_555 1_555
N3 C10 1_555 1_555
C3 C8 1_555 1_555
C4 C7 1_555 1_555
Cu1E Cu1F 1_555 1_555

#END
