
#######################################################################
#
#                 Cambridge Crystallographic Data Centre
#                                CCDC 
#
#######################################################################
#
# If this CIF has been generated from an entry in the Cambridge 
# Structural Database, then it will include bibliographic, chemical, 
# crystal, experimental, refinement or atomic coordinate data resulting 
# from the CCDC's data processing and validation procedures.
#
#######################################################################

data_WENKOR
_chemical_formula_moiety         '(C45 H36 Gd2 O27 S3)n'
_symmetry_cell_setting           triclinic
_symmetry_space_group_name_H-M   'P -1'
_symmetry_Int_Tables_number      2
_space_group_name_Hall           '-P 1'
loop_
_symmetry_equiv_pos_site_id
_symmetry_equiv_pos_as_xyz
1 x,y,z
2 -x,-y,-z
_cell_length_a                   9.2654(19)
_cell_length_b                   15.642(3)
_cell_length_c                   22.287(4)
_cell_angle_alpha                102.15(3)
_cell_angle_beta                 101.48(3)
_cell_angle_gamma                104.44(3)
_cell_volume                     2948.05
loop_
_atom_site_label
_atom_site_type_symbol
_atom_site_fract_x
_atom_site_fract_y
_atom_site_fract_z
Gd1 Gd 0.48586(5) 0.13989(3) 0.19774(2)
Gd2 Gd 0.96946(5) 0.08785(3) 0.14350(2)
C1 C 0.8292(12) 0.1235(7) 0.2763(5)
C2 C 0.9113(11) 0.1245(7) 0.3417(4)
C3 C 1.0714(11) 0.1493(8) 0.3613(5)
H1 H 1.1291 0.1661 0.3337
C4 C 1.1457(13) 0.1492(9) 0.4212(6)
H2 H 1.2531 0.1666 0.4335
C5 C 1.0638(13) 0.1238(8) 0.4638(5)
C6 C 0.9041(13) 0.1012(7) 0.4442(5)
C7 C 0.8262(12) 0.1013(7) 0.3849(5)
H3 H 0.7189 0.0863 0.3734
C8 C 1.2889(17) 0.1487(12) 0.5470(7)
H4 H 1.3333 0.2084 0.5422
H5 H 1.3269 0.1049 0.5230
H6 H 1.3170 0.1503 0.5912
C9 C 0.7850(13) 0.1049(8) 0.5991(5)
C10 C 0.9251(13) 0.1198(8) 0.6389(5)
H7 H 1.0143 0.1542 0.6317
C11 C 0.9341(12) 0.0830(8) 0.6905(5)
H8 H 1.0298 0.0913 0.7177
C12 C 0.8000(11) 0.0340(7) 0.7014(4)
C13 C 0.6598(12) 0.0203(9) 0.6609(5)
H9 H 0.5699 -0.0129 0.6682
C14 C 0.6514(13) 0.0555(9) 0.6094(5)
H10 H 0.5561 0.0459 0.5816
C15 C 0.8111(11) -0.0042(6) 0.7588(5)
C16 C 0.7915(11) 0.2566(7) 0.1445(5)
C17 C 0.8239(10) 0.3506(7) 0.1328(5)
C18 C 0.9422(12) 0.3760(7) 0.1029(5)
H11 H 0.9962 0.3356 0.0906
C19 C 0.9771(12) 0.4615(7) 0.0920(5)
H12 H 1.0547 0.4791 0.0722
C20 C 0.8962(13) 0.5207(7) 0.1106(5)
C21 C 0.7790(14) 0.4960(8) 0.1395(6)
H13 H 0.7257 0.5366 0.1523
C22 C 0.7433(13) 0.4089(8) 0.1488(6)
H14 H 0.6619 0.3902 0.1664
C23 C 0.7287(14) 0.6682(7) 0.0186(5)
C24 C 0.7814(12) 0.7296(7) -0.0127(5)
H15 H 0.8776 0.7362 -0.0208
C25 C 0.6921(10) 0.7824(7) -0.0324(5)
C26 C 0.5518(11) 0.7737(8) -0.0187(5)
H16 H 0.4914 0.8090 -0.0322
C27 C 0.4992(12) 0.7125(9) 0.0153(5)
H17 H 0.4055 0.7082 0.0254
C28 C 0.5861(14) 0.6590(9) 0.0335(5)
C29 C 0.7498(11) 0.8454(7) -0.0700(4)
C30 C 0.3964(17) 0.5780(12) 0.0762(7)
H18 H 0.3189 0.5582 0.0363
H19 H 0.3894 0.6338 0.1017
H20 H 0.3803 0.5314 0.0983
C31 C 0.2943(11) -0.7269(7) 0.2112(5)
C32 C 0.2463(10) -0.6438(6) 0.2285(5)
C33 C 0.3261(11) -0.5628(6) 0.2170(5)
H21 H 0.4065 -0.5623 0.1977
C34 C 0.2865(12) -0.4849(6) 0.2341(5)
C35 C 0.1658(12) -0.4836(7) 0.2631(5)
C36 C 0.0868(12) -0.5626(8) 0.2746(6)
H22 H 0.0061 -0.5627 0.2936
C37 C 0.1276(11) -0.6428(8) 0.2577(5)
H23 H 0.0747 -0.6959 0.2662
C38 C 0.0179(17) -0.3927(10) 0.3078(8)
H24 H 0.0337 -0.4170 0.3438
H25 H -0.0823 -0.4264 0.2794
H26 H 0.0242 -0.3292 0.3220
C39 C 0.5541(12) -0.2524(7) 0.2381(5)
C40 C 0.6729(12) -0.2359(7) 0.2087(6)
H27 H 0.7391 -0.2718 0.2086
C41 C 0.6922(11) -0.1655(7) 0.1796(6)
H28 H 0.7725 -0.1534 0.1604
C42 C 0.5919(11) -0.1132(6) 0.1792(5)
C43 C 0.4762(13) -0.1298(8) 0.2092(6)
H29 H 0.4101 -0.0938 0.2092
C44 C 0.4558(14) -0.1992(8) 0.2394(7)
H30 H 0.3778 -0.2096 0.2600
C45 C 0.6113(10) -0.0376(6) 0.1463(4)
O1 O 0.9104(8) 0.1391(5) 0.2384(3)
O2 O 0.6850(8) 0.1102(5) 0.2648(3)
O3 O 1.1243(10) 0.1226(7) 0.5243(4)
O4 O 0.8179(10) 0.0733(6) 0.4862(4)
O5 O 0.8916(11) 0.2366(6) 0.5482(4)
O6 O 0.6179(12) 0.1445(9) 0.5053(5)
O7 O 0.9396(8) -0.0013(5) 0.7899(3)
O8 O 0.6851(8) -0.0374(5) 0.7707(4)
O9 O 0.8678(8) 0.2065(5) 0.1268(3)
O10 O 0.6908(8) 0.2370(5) 0.1744(4)
O11 O 1.0862(11) 0.6505(6) 0.0827(5)
O12 O 0.9121(10) 0.6964(5) 0.1441(4)
O13 O 0.8098(11) 0.6055(6) 0.0316(4)
O14 O 0.5058(7) -0.0003(4) 0.1387(3)
O15 O 0.7296(8) -0.0170(5) 0.1276(4)
O16 O 0.8819(8) 0.8543(6) -0.0766(4)
O17 O 0.6576(9) 0.8852(5) -0.0954(3)
O18 O 0.6369(10) -0.3914(6) 0.2632(6)
O19 O 0.3643(8) -0.4046(5) 0.2209(4)
O20 O 0.5525(11) 0.2357(7) 0.3067(4)
H31 H 0.4792 0.2579 0.2986
H32 H 0.5194 0.1792 0.3044
O21 O 0.9977(9) -0.0495(5) 0.0764(4)
H33 H 0.9892 -0.0741 0.0382
H34 H 1.0493 -0.0698 0.1047
O22 O 0.4238(8) -0.7188(5) 0.1991(4)
O23 O 0.8171(11) 0.0529(6) 0.0289(4)
H35 H 0.7484 0.0766 0.0408
H36 H 0.7699 -0.0035 0.0075
O24 O 0.5464(11) 0.5938(7) 0.0649(4)
O25 O 0.2091(8) -0.8054(5) 0.2099(4)
O26 O 0.1348(10) -0.4009(5) 0.2750(5)
O27 O 0.4979(12) -0.3182(6) 0.3316(4)
S1 S 0.7745(4) 0.1507(3) 0.53249(15)
S2 S 0.9399(4) 0.6303(2) 0.09723(16)
S3 S 0.5246(4) -0.3443(2) 0.27131(16)
Gd1A Gd 0.51414(5) -0.13989(3) 0.80226(2)
Gd1A_2 Gd 0.51414(5) 0.86011(3) -0.19774(2)
Gd1_2 Gd 0.48586(5) -0.86011(3) 0.19774(2)
Gd2A Gd 1.03054(5) -0.08785(3) 0.85650(2)
Gd2A_2 Gd 1.03054(5) 0.91215(3) -0.14350(2)
Gd2_2 Gd -0.03054(5) -0.91215(3) 0.14350(2)
O7A O 1.0604(8) 0.0013(5) 0.2101(3)
O8A O 0.3149(8) 0.0374(5) 0.2293(4)
O16A O 1.1181(8) 0.1457(6) 0.0766(4)
O17A O 0.3424(9) 0.1148(5) 0.0954(3)
O22_2 O 0.4238(8) 0.2812(5) 0.1991(4)
O25_2 O 0.2091(8) 0.1946(5) 0.2099(4)
O25_3 O 1.2091(8) 0.1946(5) 0.2099(4)
loop_
_geom_bond_atom_site_label_1
_geom_bond_atom_site_label_2
_geom_bond_site_symmetry_1
_geom_bond_site_symmetry_2
Gd1 O2 1_555 1_555
Gd2 O1 1_555 1_555
C1 C2 1_555 1_555
C2 C3 1_555 1_555
C3 H1 1_555 1_555
C4 C3 1_555 1_555
H2 C4 1_555 1_555
C5 C4 1_555 1_555
C6 C5 1_555 1_555
C7 C2 1_555 1_555
H3 C7 1_555 1_555
C8 H4 1_555 1_555
H5 C8 1_555 1_555
H6 C8 1_555 1_555
C9 C10 1_555 1_555
C10 H7 1_555 1_555
C11 C10 1_555 1_555
H8 C11 1_555 1_555
C12 C11 1_555 1_555
C13 C12 1_555 1_555
H9 C13 1_555 1_555
C14 C9 1_555 1_555
H10 C14 1_555 1_555
C15 C12 1_555 1_555
C16 C17 1_555 1_555
C17 C18 1_555 1_555
C18 H11 1_555 1_555
C19 C18 1_555 1_555
H12 C19 1_555 1_555
C20 C19 1_555 1_555
C21 C20 1_555 1_555
H13 C21 1_555 1_555
C22 C17 1_555 1_555
H14 C22 1_555 1_555
C23 C24 1_555 1_555
C24 H15 1_555 1_555
C25 C24 1_555 1_555
C26 C25 1_555 1_555
H16 C26 1_555 1_555
C27 C26 1_555 1_555
H17 C27 1_555 1_555
C28 C23 1_555 1_555
C29 C25 1_555 1_555
C30 H18 1_555 1_555
H19 C30 1_555 1_555
H20 C30 1_555 1_555
C31 C32 1_555 1_555
C32 C33 1_555 1_555
C33 H21 1_555 1_555
C34 C33 1_555 1_555
C35 C34 1_555 1_555
C36 C35 1_555 1_555
H22 C36 1_555 1_555
C37 C32 1_555 1_555
H23 C37 1_555 1_555
C38 H24 1_555 1_555
H25 C38 1_555 1_555
H26 C38 1_555 1_555
C39 C40 1_555 1_555
C40 H27 1_555 1_555
C41 C40 1_555 1_555
H28 C41 1_555 1_555
C42 C41 1_555 1_555
C43 C42 1_555 1_555
H29 C43 1_555 1_555
C44 C39 1_555 1_555
H30 C44 1_555 1_555
C45 C42 1_555 1_555
O1 C1 1_555 1_555
O2 C1 1_555 1_555
O3 C5 1_555 1_555
O4 C6 1_555 1_555
O5 S1 1_555 1_555
O6 S1 1_555 1_555
O7 C15 1_555 1_555
O8 C15 1_555 1_555
O9 Gd2 1_555 1_555
O10 Gd1 1_555 1_555
O11 S2 1_555 1_555
O12 S2 1_555 1_555
O13 C23 1_555 1_555
O14 Gd1 1_555 1_555
O15 Gd2 1_555 1_555
O16 C29 1_555 1_555
O17 C29 1_555 1_555
O18 S3 1_555 1_555
O19 C34 1_555 1_555
O20 Gd1 1_555 1_555
H31 O20 1_555 1_555
H32 O20 1_555 1_555
O21 Gd2 1_555 1_555
H33 O21 1_555 1_555
H34 O21 1_555 1_555
O22 C31 1_555 1_555
O23 Gd2 1_555 1_555
H35 O23 1_555 1_555
H36 O23 1_555 1_555
O24 C28 1_555 1_555
O25 C31 1_555 1_555
O26 C35 1_555 1_555
O27 S3 1_555 1_555
S1 C9 1_555 1_555
S2 C20 1_555 1_555
S3 C39 1_555 1_555
Gd1A O8 1_555 1_555
Gd1A_2 O17 1_555 1_555
Gd1_2 O22 1_555 1_555
Gd2A O7 1_555 1_555
Gd2A_2 O16 1_555 1_555
Gd2_2 O25 1_555 1_555
O7A Gd2 1_555 1_555
O8A Gd1 1_555 1_555
O16A Gd2 1_555 1_555
O17A Gd1 1_555 1_555
O22_2 Gd1 1_555 1_555
O25_2 Gd1 1_555 1_555
O25_3 Gd2 1_555 1_555
C6 C7 1_555 1_555
C8 O3 1_555 1_555
C13 C14 1_555 1_555
C16 O9 1_555 1_555
C16 O10 1_555 1_555
C21 C22 1_555 1_555
C27 C28 1_555 1_555
C30 O24 1_555 1_555
C36 C37 1_555 1_555
C38 O26 1_555 1_555
C43 C44 1_555 1_555
C45 O14 1_555 1_555
C45 O15 1_555 1_555
O4 S1 1_555 1_555
O13 S2 1_555 1_555
O19 S3 1_555 1_555
O25 Gd1_2 1_555 1_555

#END
