
#######################################################################
#
#                 Cambridge Crystallographic Data Centre
#                                CCDC 
#
#######################################################################
#
# If this CIF has been generated from an entry in the Cambridge 
# Structural Database, then it will include bibliographic, chemical, 
# crystal, experimental, refinement or atomic coordinate data resulting 
# from the CCDC's data processing and validation procedures.
#
#######################################################################

data_BUNLAZ
_chemical_formula_moiety         '(C54 H58 O25 Zr3)n'
_symmetry_cell_setting           hexagonal
_symmetry_space_group_name_H-M   'P 6/m m m'
_symmetry_Int_Tables_number      191
_space_group_name_Hall           '-P 6 2'
loop_
_symmetry_equiv_pos_site_id
_symmetry_equiv_pos_as_xyz
1 x,y,z
2 -y,x-y,z
3 -x+y,-x,z
4 -x,-y,z
5 y,-x+y,z
6 x-y,x,z
7 y,x,-z
8 x-y,-y,-z
9 -x,-x+y,-z
10 -y,-x,-z
11 -x+y,y,-z
12 x,x-y,-z
13 -x,-y,-z
14 y,-x+y,-z
15 x-y,x,-z
16 x,y,-z
17 -y,x-y,-z
18 -x+y,-x,-z
19 -y,-x,z
20 -x+y,y,z
21 x,x-y,z
22 y,x,z
23 x-y,-y,z
24 -x,-x+y,z
_cell_length_a                   50.72(3)
_cell_length_b                   50.72(3)
_cell_length_c                   15.502(7)
_cell_angle_alpha                90
_cell_angle_beta                 90
_cell_angle_gamma                120
_cell_volume                     34536.4
loop_
_atom_site_label
_atom_site_type_symbol
_atom_site_fract_x
_atom_site_fract_y
_atom_site_fract_z
_atom_site_U_iso_or_equiv
_atom_site_thermal_displace_type
Zr1 Zr 0.46539 0.000 0.11538 0.0327 Uiso
Zr2 Zr 0.52742 0.05484 0.000 0.0327 Uiso
O1 O 0.47277 0.000 0.25262 0.0702 Uiso
O2 O 0.51512 0.03024 0.12322 0.0702 Uiso
O3 O 0.47787 0.02895 0.000 0.0702 Uiso
O4 O 0.42212 0.000 0.0988 0.0702 Uiso
O5 O 0.510473 0.074937 0.093081 0.0702 Uiso
O6 O 0.47 0.042201 0.166051 0.0702 Uiso
C1 C 0.4897 0.06984 0.14833 0.0930 Uiso
C2 C 0.487868 0.09579 0.193341 0.0930 Uiso
C3 C 0.459685 0.092412 0.21417 0.0930 Uiso
C4 C 0.458024 0.11594 0.254979 0.0930 Uiso
C5 C 0.484167 0.143091 0.275725 0.0930 Uiso
C6 C 0.512729 0.146223 0.254131 0.0930 Uiso
C7 C 0.51439 0.122695 0.213322 0.0930 Uiso
C8 C 0.481655 0.1679 0.319471 0.0930 Uiso
C9 C 0.455054 0.161333 0.362742 0.0930 Uiso
C10 C 0.45271 0.184477 0.403552 0.0930 Uiso
C11 C 0.476944 0.214202 0.401161 0.0930 Uiso
C12 C 0.503569 0.220755 0.357822 0.0930 Uiso
C13 C 0.505913 0.197611 0.317012 0.0930 Uiso
C14 C 0.47882 0.23941 0.456452 0.0930 Uiso
H1 H 0.440605 0.073056 0.199795 0.1116 Uiso
H2 H 0.437749 0.11351 0.269964 0.1116 Uiso
H3 H 0.531937 0.165491 0.268238 0.1116 Uiso
H4 H 0.534665 0.125125 0.198337 0.1116 Uiso
H5 H 0.436009 0.138007 0.364673 0.1116 Uiso
H6 H 0.43356 0.179722 0.434659 0.1116 Uiso
H7 H 0.521029 0.242125 0.356028 0.1116 Uiso
H8 H 0.52505 0.202335 0.285882 0.1116 Uiso
O5K O 0.510473 0.435536 0.906919 0.0702 Uiso
O6K O 0.47 0.427799 0.833949 0.0702 Uiso
C1K C 0.4897 0.41986 0.85167 0.0930 Uiso
C2K C 0.487868 0.392078 0.806659 0.0930 Uiso
C3K C 0.459685 0.367273 0.78583 0.0930 Uiso
C4K C 0.458024 0.342084 0.745021 0.0930 Uiso
C5K C 0.484167 0.341076 0.724275 0.0930 Uiso
C6K C 0.512729 0.366506 0.745869 0.0930 Uiso
C7K C 0.51439 0.391695 0.786678 0.0930 Uiso
C8K C 0.481655 0.313755 0.680529 0.0930 Uiso
C9K C 0.455054 0.293721 0.637258 0.0930 Uiso
C10K C 0.45271 0.268233 0.596448 0.0930 Uiso
C11K C 0.476944 0.262742 0.598839 0.0930 Uiso
C12K C 0.503569 0.282814 0.642178 0.0930 Uiso
C13K C 0.505913 0.308302 0.682988 0.0930 Uiso
C14K C 0.47882 0.23941 0.543548 0.0930 Uiso
H1K H 0.440605 0.367549 0.800205 0.1116 Uiso
H2K H 0.437749 0.324239 0.730036 0.1116 Uiso
H3K H 0.531937 0.366446 0.731762 0.1116 Uiso
H4K H 0.534665 0.409540 0.801663 0.1116 Uiso
H5K H 0.436009 0.298002 0.635327 0.1116 Uiso
H6K H 0.43356 0.253838 0.565341 0.1116 Uiso
H7K H 0.521029 0.278904 0.643972 0.1116 Uiso
H8K H 0.52505 0.322715 0.714118 0.1116 Uiso
O5O O 0.510473 0.074937 0.906919 0.0702 Uiso
O6O O 0.47 0.042201 0.833949 0.0702 Uiso
C1O C 0.4897 0.06984 0.85167 0.0930 Uiso
C2O C 0.487868 0.09579 0.806659 0.0930 Uiso
C3O C 0.459685 0.092412 0.78583 0.0930 Uiso
C4O C 0.458024 0.11594 0.745021 0.0930 Uiso
C5O C 0.484167 0.143091 0.724275 0.0930 Uiso
C6O C 0.512729 0.146223 0.745869 0.0930 Uiso
C7O C 0.51439 0.122695 0.786678 0.0930 Uiso
C8O C 0.481655 0.1679 0.680529 0.0930 Uiso
C9O C 0.455054 0.161333 0.637258 0.0930 Uiso
C10O C 0.45271 0.184477 0.596448 0.0930 Uiso
C11O C 0.476944 0.214202 0.598839 0.0930 Uiso
C12O C 0.503569 0.220755 0.642178 0.0930 Uiso
C13O C 0.505913 0.197611 0.682988 0.0930 Uiso
H1O H 0.440605 0.073056 0.800205 0.1116 Uiso
H2O H 0.437749 0.11351 0.730036 0.1116 Uiso
H3O H 0.531937 0.165491 0.731762 0.1116 Uiso
H4O H 0.534665 0.125125 0.801663 0.1116 Uiso
H5O H 0.436009 0.138007 0.635327 0.1116 Uiso
H6O H 0.43356 0.179722 0.565341 0.1116 Uiso
H7O H 0.521029 0.242125 0.643972 0.1116 Uiso
H8O H 0.52505 0.202335 0.714118 0.1116 Uiso
O5T O 0.510473 0.435536 0.093081 0.0702 Uiso
O6T O 0.47 0.427799 0.166051 0.0702 Uiso
C1T C 0.4897 0.41986 0.14833 0.0930 Uiso
C2T C 0.487868 0.392078 0.193341 0.0930 Uiso
C3T C 0.459685 0.367273 0.21417 0.0930 Uiso
C4T C 0.458024 0.342084 0.254979 0.0930 Uiso
C5T C 0.484167 0.341076 0.275725 0.0930 Uiso
C6T C 0.512729 0.366506 0.254131 0.0930 Uiso
C7T C 0.51439 0.391695 0.213322 0.0930 Uiso
C8T C 0.481655 0.313755 0.319471 0.0930 Uiso
C9T C 0.455054 0.293721 0.362742 0.0930 Uiso
C10T C 0.45271 0.268233 0.403552 0.0930 Uiso
C11T C 0.476944 0.262742 0.401161 0.0930 Uiso
C12T C 0.503569 0.282814 0.357822 0.0930 Uiso
C13T C 0.505913 0.308302 0.317012 0.0930 Uiso
H1T H 0.440605 0.367549 0.199795 0.1116 Uiso
H2T H 0.437749 0.324239 0.269964 0.1116 Uiso
H3T H 0.531937 0.366446 0.268238 0.1116 Uiso
H4T H 0.534665 0.409540 0.198337 0.1116 Uiso
H5T H 0.436009 0.298002 0.364673 0.1116 Uiso
H6T H 0.43356 0.253838 0.434659 0.1116 Uiso
H7T H 0.521029 0.278904 0.356028 0.1116 Uiso
H8T H 0.52505 0.322715 0.285882 0.1116 Uiso
Zr1C Zr 0.53461 0.000 0.11538 0.0327 Uiso
O1C O 0.52723 0.000 0.25262 0.0702 Uiso
O4C O 0.57788 0.000 0.0988 0.0702 Uiso
O2C O 0.48488 -0.03024 0.12322 0.0702 Uiso
O3G O 0.44892 -0.02895 0.000 0.0702 Uiso
Zr1E Zr 0.46539 0.46539 0.11538 0.0327 Uiso
Zr1G Zr 0.46539 0.000 -0.11538 0.0327 Uiso
Zr1G_2 Zr 0.46539 0.000 0.88462 0.0327 Uiso
Zr1K Zr 0.46539 0.46539 0.88462 0.0327 Uiso
Zr2_2 Zr 0.52742 0.05484 1.000 0.0327 Uiso
Zr2B Zr 0.52742 0.47258 0.000 0.0327 Uiso
Zr2B_2 Zr 0.52742 0.47258 1.000 0.0327 Uiso
Zr2C Zr 0.47258 -0.05484 0.000 0.0327 Uiso
O2J O 0.51512 0.03024 -0.12322 0.0702 Uiso
O3C O 0.52213 -0.02895 0.000 0.0702 Uiso
O3J O 0.55108 0.02895 0.000 0.0702 Uiso
O5J O 0.564464 0.074937 -0.093081 0.0702 Uiso
O5O_2 O 0.510473 0.074937 -0.093081 0.0702 Uiso
O5S O 0.564464 0.074937 0.093081 0.0702 Uiso
O6C O 0.53 -0.042201 0.166051 0.0702 Uiso
O6S O 0.572201 0.042201 0.166051 0.0702 Uiso
O6V O 0.427799 -0.042201 0.166051 0.0702 Uiso
O7 O 0.369 -0.66198 0.09098 0.0944 Uiso
O8 O 0.000 0.06 0.68521 0.0944 Uiso
O9 O 0.18105 0.87395 0.59685 0.0944 Uiso
O10 O 0.61287 0.5791 1.59547 0.0944 Uiso
O11 O 1.26931 0.88363 2.40448 0.0944 Uiso
O12 O 0.7596 0.41562 -0.60285 0.0944 Uiso
O13 O 0.7727 0.61299 1.18203 0.0944 Uiso
O14 O 0.12468 0.03218 1.09641 0.0944 Uiso
O15 O 1.08156 0.35819 -0.10475 0.0944 Uiso
loop_
_geom_bond_atom_site_label_1
_geom_bond_atom_site_label_2
_geom_bond_site_symmetry_1
_geom_bond_site_symmetry_2
Zr1 O1 1_555 1_555
Zr2 O2 1_555 1_555
O2 Zr1 1_555 1_555
O3 Zr1 1_555 1_555
O4 Zr1 1_555 1_555
O5 Zr2 1_555 1_555
O6 Zr1 1_555 1_555
C1 O5 1_555 1_555
C2 C1 1_555 1_555
C3 C2 1_555 1_555
C4 C3 1_555 1_555
C5 C4 1_555 1_555
C6 C5 1_555 1_555
C7 C2 1_555 1_555
C8 C5 1_555 1_555
C9 C8 1_555 1_555
C10 C9 1_555 1_555
C11 C10 1_555 1_555
C12 C11 1_555 1_555
C13 C8 1_555 1_555
C14 C11 1_555 1_555
H1 C3 1_555 1_555
H2 C4 1_555 1_555
H3 C6 1_555 1_555
H4 C7 1_555 1_555
H5 C9 1_555 1_555
H6 C10 1_555 1_555
H7 C12 1_555 1_555
H8 C13 1_555 1_555
O5K C1K 1_555 1_555
O6K C1K 1_555 1_555
C1K C2K 1_555 1_555
C2K C3K 1_555 1_555
C3K C4K 1_555 1_555
C4K C5K 1_555 1_555
C5K C6K 1_555 1_555
C6K C7K 1_555 1_555
C7K C2K 1_555 1_555
C8K C5K 1_555 1_555
C9K C8K 1_555 1_555
C10K C9K 1_555 1_555
C11K C10K 1_555 1_555
C12K C11K 1_555 1_555
C13K C8K 1_555 1_555
C14K C14 1_555 1_555
H1K C3K 1_555 1_555
H2K C4K 1_555 1_555
H3K C6K 1_555 1_555
H4K C7K 1_555 1_555
H5K C9K 1_555 1_555
H6K C10K 1_555 1_555
H7K C12K 1_555 1_555
H8K C13K 1_555 1_555
O5O C1O 1_555 1_555
O6O C1O 1_555 1_555
C1O C2O 1_555 1_555
C2O C3O 1_555 1_555
C3O C4O 1_555 1_555
C4O C5O 1_555 1_555
C5O C6O 1_555 1_555
C6O C7O 1_555 1_555
C7O C2O 1_555 1_555
C8O C5O 1_555 1_555
C9O C8O 1_555 1_555
C10O C9O 1_555 1_555
C11O C14K 1_555 1_555
C12O C11O 1_555 1_555
C13O C8O 1_555 1_555
H1O C3O 1_555 1_555
H2O C4O 1_555 1_555
H3O C6O 1_555 1_555
H4O C7O 1_555 1_555
H5O C9O 1_555 1_555
H6O C10O 1_555 1_555
H7O C12O 1_555 1_555
H8O C13O 1_555 1_555
O5T C1T 1_555 1_555
O6T C1T 1_555 1_555
C1T C2T 1_555 1_555
C2T C3T 1_555 1_555
C3T C4T 1_555 1_555
C4T C5T 1_555 1_555
C5T C6T 1_555 1_555
C6T C7T 1_555 1_555
C7T C2T 1_555 1_555
C8T C5T 1_555 1_555
C9T C8T 1_555 1_555
C10T C9T 1_555 1_555
C11T C14 1_555 1_555
C12T C11T 1_555 1_555
C13T C8T 1_555 1_555
H1T C3T 1_555 1_555
H2T C4T 1_555 1_555
H3T C6T 1_555 1_555
H4T C7T 1_555 1_555
H5T C9T 1_555 1_555
H6T C10T 1_555 1_555
H7T C12T 1_555 1_555
H8T C13T 1_555 1_555
Zr1C O2 1_555 1_555
O1C Zr1C 1_555 1_555
O4C Zr1C 1_555 1_555
O2C Zr1 1_555 1_555
O3G Zr1 1_555 1_555
Zr1E O6T 1_555 1_555
Zr1G O3 1_555 1_555
Zr1G_2 O6O 1_555 1_555
Zr1K O6K 1_555 1_555
Zr2_2 O5O 1_555 1_555
Zr2B O5T 1_555 1_555
Zr2B_2 O5K 1_555 1_555
Zr2C O2C 1_555 1_555
O2J Zr2 1_555 1_555
O3C Zr1C 1_555 1_555
O3J Zr2 1_555 1_555
O5J Zr2 1_555 1_555
O5O_2 Zr2 1_555 1_555
O5S Zr2 1_555 1_555
O6C Zr1C 1_555 1_555
O6S Zr1C 1_555 1_555
O6V Zr1 1_555 1_555
Zr2 O3 1_555 1_555
O6 C1 1_555 1_555
C6 C7 1_555 1_555
C12 C13 1_555 1_555
C11K C14K 1_555 1_555
C12K C13K 1_555 1_555
C10O C11O 1_555 1_555
C12O C13O 1_555 1_555
C10T C11T 1_555 1_555
C12T C13T 1_555 1_555
Zr1C O2C 1_555 1_555
Zr1C O3J 1_555 1_555
O3G Zr1G 1_555 1_555
O3G Zr2C 1_555 1_555
Zr1G O2J 1_555 1_555
Zr2C O3C 1_555 1_555

#END
