
#######################################################################
#
#                 Cambridge Crystallographic Data Centre
#                                CCDC 
#
#######################################################################
#
# If this CIF has been generated from an entry in the Cambridge 
# Structural Database, then it will include bibliographic, chemical, 
# crystal, experimental, refinement or atomic coordinate data resulting 
# from the CCDC's data processing and validation procedures.
#
#######################################################################

data_FUWFIO
_chemical_formula_moiety         '(C30 H25 Cd3 N25 O3)n'
_symmetry_cell_setting           orthorhombic
_symmetry_space_group_name_H-M   'P n n a'
_symmetry_Int_Tables_number      52
_space_group_name_Hall           '-P 2a 2bc'
loop_
_symmetry_equiv_pos_site_id
_symmetry_equiv_pos_as_xyz
1 x,y,z
2 1/2-x,-y,z
3 x,1/2-y,1/2-z
4 1/2-x,1/2+y,1/2-z
5 -x,-y,-z
6 1/2+x,y,-z
7 -x,1/2+y,1/2+z
8 1/2+x,1/2-y,1/2+z
_cell_length_a                   14.044(3)
_cell_length_b                   20.297(4)
_cell_length_c                   23.635(5)
_cell_angle_alpha                90
_cell_angle_beta                 90
_cell_angle_gamma                90
_cell_volume                     6737.18
loop_
_atom_site_label
_atom_site_type_symbol
_atom_site_fract_x
_atom_site_fract_y
_atom_site_fract_z
N1 N 0.4796(5) 0.7040(4) 1.0832(3)
C1 C 0.5646(8) 0.6832(6) 1.0805(5)
H1 H 0.5923 0.6708 1.1147
C2 C 0.4410(8) 0.7206(7) 1.0333(5)
H2 H 0.3793 0.7372 1.0328
Cd1 Cd 0.89999(5) 0.73070(4) 0.83136(3)
Cd2 Cd 0.65567(7) 0.7500 0.7500
O1 O 0.8155(8) 0.7500 0.7500
N2 N 0.8870(6) 0.8427(4) 0.8565(3)
N3 N 0.8814(8) 0.8639(5) 0.9071(4)
N4 N 0.8749(7) 0.9287(5) 0.9041(4)
N5 N 0.8846(5) 0.8910(4) 0.8181(3)
N6 N 0.8553(6) 1.1433(4) 0.7886(3)
N7 N 0.7504(6) 0.7023(4) 0.8719(3)
N8 N 0.6675(6) 0.7072(4) 0.8432(3)
N9 N 0.5938(5) 0.7039(4) 0.8782(3)
N10 N 0.7294(5) 0.6938(5) 0.9263(3)
N11 N 1.0392(6) 0.7525(4) 0.7793(3)
N12 N 1.1275(6) 0.7494(5) 0.7973(4)
N13 N 1.4861(7) 0.7500 0.7500
O2 O 0.9208(6) 0.6209(4) 0.8012(3)
C3 C 0.8811(7) 0.9448(5) 0.8499(4)
C4 C 0.8742(7) 1.0129(5) 0.8287(4)
C5 C 0.8654(8) 1.0653(5) 0.8658(4)
H3 H 0.8655 1.0581 0.9046
C6 C 0.8712(10) 1.0285(6) 0.7700(5)
H4 H 0.8732 0.9954 0.7428
C7 C 0.8564(9) 1.1295(6) 0.8443(4)
H5 H 0.8509 1.1642 0.8698
C8 C 0.8654(10) 1.0916(6) 0.7547(4)
H6 H 0.8688 1.1004 0.7162
C9 C 0.6340(6) 0.6964(5) 0.9305(3)
C10 C 0.5807(5) 0.6947(4) 0.9821(3)
C11 C 0.4879(7) 0.7143(6) 0.9835(4)
H7 H 0.4564 0.7234 0.9498
C12 C 0.6221(8) 0.6766(6) 1.0319(4)
H8 H 0.6842 0.6609 1.0337
C13 C 1.1804(9) 0.7500 0.7500
C14 C 1.2839(10) 0.7500 0.7500
C15 C 1.4370(8) 0.7644(5) 0.7969(5)
H9 H 1.4701 0.7747 0.8298
C16 C 1.3406(10) 0.7644(7) 0.7980(6)
H10 H 1.3101 0.7743 0.8319
N11B N 1.0392(6) 0.7475(4) 0.7207(3)
N12B N 1.1275(6) 0.7506(5) 0.7027(4)
C15B C 1.4370(8) 0.7356(5) 0.7031(5)
H9B H 1.4701 0.7253 0.6702
C16B C 1.3406(10) 0.7356(7) 0.7020(6)
H10B H 1.3101 0.7257 0.6681
N1A N 1.0204(5) 1.2960(4) 1.0832(3)
C1A C 0.9354(8) 1.3168(6) 1.0805(5)
H1A H 0.9077 1.3292 1.1147
C2A C 1.0590(8) 1.2794(7) 1.0333(5)
H2A H 1.1207 1.2628 1.0328
Cd1A Cd 0.60001(5) 1.26930(4) 0.83136(3)
N2A N 0.6130(6) 1.1573(4) 0.8565(3)
N3A N 0.6186(8) 1.1361(5) 0.9071(4)
N4A N 0.6251(7) 1.0713(5) 0.9041(4)
N5A N 0.6154(5) 1.1090(4) 0.8181(3)
N6A N 0.6447(6) 0.8567(4) 0.7886(3)
N7A N 0.7496(6) 1.2977(4) 0.8719(3)
N8A N 0.8325(6) 1.2928(4) 0.8432(3)
N9A N 0.9062(5) 1.2961(4) 0.8782(3)
N10A N 0.7706(5) 1.3062(5) 0.9263(3)
O2A O 0.5792(6) 1.3791(4) 0.8012(3)
C3A C 0.6189(7) 1.0552(5) 0.8499(4)
C4A C 0.6258(7) 0.9871(5) 0.8287(4)
C5A C 0.6346(8) 0.9347(5) 0.8658(4)
H3A H 0.6345 0.9419 0.9046
C6A C 0.6288(10) 0.9715(6) 0.7700(5)
H4A H 0.6268 1.0046 0.7428
C7A C 0.6436(9) 0.8705(6) 0.8443(4)
H5A H 0.6491 0.8358 0.8698
C8A C 0.6346(10) 0.9084(6) 0.7547(4)
H6A H 0.6312 0.8996 0.7162
C9A C 0.8660(6) 1.3036(5) 0.9305(3)
C10A C 0.9193(5) 1.3053(4) 0.9821(3)
C11A C 1.0121(7) 1.2857(6) 0.9835(4)
H7A H 1.0436 1.2766 0.9498
C12A C 0.8779(8) 1.3234(6) 1.0319(4)
H8A H 0.8158 1.3391 1.0337
N1D N 0.5204(5) 1.2960(4) 0.9168(3)
N1E N 0.9796(5) 0.7040(4) 0.9168(3)
Cd1B Cd 0.89999(5) 0.76930(4) 0.66864(3)
Cd1D Cd 1.10001(5) 1.26930(4) 1.16864(3)
Cd1E Cd 0.39999(5) 0.73070(4) 1.16864(3)
Cd2_2 Cd 1.65567(7) 0.7500 0.7500
Cd2A Cd 0.84433(7) 1.2500 0.7500
O1A O 0.6845(8) 1.2500 0.7500
N6C N 0.6447(6) 0.6433(4) 0.7114(3)
N8B N 0.6675(6) 0.7928(4) 0.6568(3)
N11A N 0.4608(6) 1.2475(4) 0.7793(3)
N13_2 N 0.4861(7) 0.7500 0.7500
loop_
_geom_bond_atom_site_label_1
_geom_bond_atom_site_label_2
_geom_bond_site_symmetry_1
_geom_bond_site_symmetry_2
N1 C1 1_555 1_555
C1 H1 1_555 1_555
C2 N1 1_555 1_555
H2 C2 1_555 1_555
Cd1 O1 1_555 1_555
Cd2 O1 1_555 1_555
O1 Cd1B 1_555 1_555
N2 Cd1 1_555 1_555
N3 N2 1_555 1_555
N4 N3 1_555 1_555
N5 N2 1_555 1_555
N6 C7 1_555 1_555
N7 Cd1 1_555 1_555
N8 Cd2 1_555 1_555
N9 N8 1_555 1_555
N10 N7 1_555 1_555
N11 Cd1 1_555 1_555
N12 N11 1_555 1_555
N13 C15 1_555 1_555
O2 Cd1 1_555 1_555
C3 N4 1_555 1_555
C4 C3 1_555 1_555
C5 C4 1_555 1_555
H3 C5 1_555 1_555
C6 C4 1_555 1_555
H4 C6 1_555 1_555
C7 C5 1_555 1_555
H5 C7 1_555 1_555
C8 N6 1_555 1_555
H6 C8 1_555 1_555
C9 N9 1_555 1_555
C10 C9 1_555 1_555
C11 C2 1_555 1_555
H7 C11 1_555 1_555
C12 C1 1_555 1_555
H8 C12 1_555 1_555
C13 N12 1_555 1_555
C14 C13 1_555 1_555
C15 H9 1_555 1_555
C16 C14 1_555 1_555
H10 C16 1_555 1_555
N11B N11 1_555 1_555
N12B C13 1_555 1_555
C15B N13 1_555 1_555
H9B C15B 1_555 1_555
C16B C14 1_555 1_555
H10B C16B 1_555 1_555
N1A C1A 1_555 1_555
C1A H1A 1_555 1_555
C2A N1A 1_555 1_555
H2A C2A 1_555 1_555
Cd1A N2A 1_555 1_555
N2A N3A 1_555 1_555
N3A N4A 1_555 1_555
N4A C3A 1_555 1_555
N5A N2A 1_555 1_555
N6A Cd2 1_555 1_555
N7A Cd1A 1_555 1_555
N8A N7A 1_555 1_555
N9A N8A 1_555 1_555
N10A N7A 1_555 1_555
O2A Cd1A 1_555 1_555
C3A N5A 1_555 1_555
C4A C3A 1_555 1_555
C5A C4A 1_555 1_555
H3A C5A 1_555 1_555
C6A C4A 1_555 1_555
H4A C6A 1_555 1_555
C7A N6A 1_555 1_555
H5A C7A 1_555 1_555
C8A N6A 1_555 1_555
H6A C8A 1_555 1_555
C9A N9A 1_555 1_555
C10A C9A 1_555 1_555
C11A C2A 1_555 1_555
H7A C11A 1_555 1_555
C12A C1A 1_555 1_555
H8A C12A 1_555 1_555
N1D Cd1A 1_555 1_555
N1E Cd1 1_555 1_555
Cd1B N11B 1_555 1_555
Cd1D N1A 1_555 1_555
Cd1E N1 1_555 1_555
Cd2_2 N13 1_555 1_555
Cd2A N6 1_555 1_555
O1A Cd1A 1_555 1_555
N6C Cd2 1_555 1_555
N8B Cd2 1_555 1_555
N11A Cd1A 1_555 1_555
N13_2 Cd2 1_555 1_555
N5 C3 1_555 1_555
N7 N8 1_555 1_555
N10 C9 1_555 1_555
C6 C8 1_555 1_555
C10 C11 1_555 1_555
C10 C12 1_555 1_555
C15 C16 1_555 1_555
N11B N12B 1_555 1_555
C15B C16B 1_555 1_555
N8A Cd2A 1_555 1_555
N10A C9A 1_555 1_555
C5A C7A 1_555 1_555
C6A C8A 1_555 1_555
C10A C11A 1_555 1_555
C10A C12A 1_555 1_555
Cd2A O1A 1_555 1_555

#END
