
#######################################################################
#
#                 Cambridge Crystallographic Data Centre
#                                CCDC 
#
#######################################################################
#
# If this CIF has been generated from an entry in the Cambridge 
# Structural Database, then it will include bibliographic, chemical, 
# crystal, experimental, refinement or atomic coordinate data resulting 
# from the CCDC's data processing and validation procedures.
#
#######################################################################

data_GIMHAM
_chemical_formula_moiety         '(C11 H11 Ag1 F6 N3 P1 S1)n'
_symmetry_cell_setting           orthorhombic
_symmetry_space_group_name_H-M   'P n a 21'
_symmetry_Int_Tables_number      33
_space_group_name_Hall           'P 2c -2n'
loop_
_symmetry_equiv_pos_site_id
_symmetry_equiv_pos_as_xyz
1 x,y,z
2 -x,-y,1/2+z
3 1/2-x,1/2+y,1/2+z
4 1/2+x,1/2-y,z
_cell_length_a                   13.939(5)
_cell_length_b                   8.334(5)
_cell_length_c                   12.856(5)
_cell_angle_alpha                90
_cell_angle_beta                 90
_cell_angle_gamma                90
_cell_volume                     1493.45
loop_
_atom_site_label
_atom_site_type_symbol
_atom_site_fract_x
_atom_site_fract_y
_atom_site_fract_z
_atom_site_U_iso_or_equiv
_atom_site_thermal_displace_type
C1 C 0.23649(6) 0.88237(9) 0.16620(8) 0.0207 Uani
H1 H 0.1940 0.9332 0.1212 0.0250 Uiso
C2 C 0.33424(6) 0.91393(10) 0.15736(7) 0.0202 Uani
H2 H 0.3557 0.9856 0.1070 0.0240 Uiso
C3 C 0.36326(5) 0.74186(9) 0.29245(6) 0.0174 Uani
H3 H 0.4057 0.6910 0.3374 0.0210 Uiso
C4 C 0.26513(4) 0.71148(8) 0.30182(6) 0.0153 Uani
N1 N 0.20209(4) 0.78094(8) 0.23759(6) 0.0181 Uani
N2 N 0.39777(4) 0.84251(8) 0.22030(5) 0.0176 Uani
C5 C 0.22685(6) 0.60564(9) 0.38702(6) 0.0183 Uani
H4 H 0.1943 0.6725 0.4377 0.0220 Uiso
H5 H 0.2806 0.5547 0.4218 0.0220 Uiso
C6 C 0.22649(7) 0.30813(11) 0.28183(7) 0.0225 Uani
H6 H 0.1900 0.2278 0.2442 0.0270 Uiso
H7 H 0.2673 0.3640 0.2326 0.0270 Uiso
C7 C 0.28700(6) 0.22858(9) 0.36334(6) 0.0187 Uani
C8 C 0.38034(6) 0.28022(10) 0.38258(7) 0.0204 Uani
H8 H 0.4094 0.3549 0.3390 0.0240 Uiso
C9 C 0.42954(5) 0.21843(10) 0.46807(7) 0.0193 Uani
H9 H 0.4914 0.2550 0.4810 0.0230 Uiso
C10 C 0.30417(6) 0.05187(10) 0.50966(7) 0.0219 Uani
H10 H 0.2790 -0.0294 0.5511 0.0260 Uiso
C11 C 0.24934(6) 0.10842(9) 0.42730(8) 0.0212 Uani
H11 H 0.1885 0.0670 0.4149 0.0250 Uiso
N3 N 0.39187(5) 0.10906(7) 0.53232(6) 0.0187 Uani
S1 S 0.144502(12) 0.45084(2) 0.343831(16) 0.0172 Uani
Ag1 Ag 0.056383(3) 0.603689(6) 0.202470(7) 0.0195 Uani
N2C N -0.10223(4) 0.65749(8) 0.22030(5) 0.0176 Uani
N3B N 0.10813(5) 0.60906(7) 0.03232(6) 0.0187 Uani
Ag1C Ag 0.556383(3) 0.896311(6) 0.202470(7) 0.0195 Uani
Ag1B Ag 0.443617(3) 0.103689(6) 0.702470(7) 0.0195 Uani
F1 F 0.50336(9) 0.50007(11) 0.63413(8) 0.0446 Uani
F2 F 0.52548(7) 0.56096(10) 0.46358(6) 0.0336 Uani
F3 F 0.39844(5) 0.66526(10) 0.55147(7) 0.0330 Uani
F4 F 0.49991(7) 0.76482(11) 0.67336(7) 0.0369 Uani
F5 F 0.52166(5) 0.82405(8) 0.50237(7) 0.0309 Uani
F6 F 0.62661(5) 0.66152(13) 0.58508(8) 0.0413 Uani
P1 P 0.512340(15) 0.66176(2) 0.568999(18) 0.0182 Uani
loop_
_atom_site_aniso_label
_atom_site_aniso_U_11
_atom_site_aniso_U_22
_atom_site_aniso_U_33
_atom_site_aniso_U_23
_atom_site_aniso_U_13
_atom_site_aniso_U_12
C1 0.0145(2) 0.0215(3) 0.0262(3) 0.0078(2) -0.0057(2) -0.00234(18)
C2 0.0160(2) 0.0222(3) 0.0223(3) 0.0071(2) -0.0035(2) -0.00440(19)
C3 0.01151(19) 0.0229(2) 0.0177(2) 0.0041(2) -0.00207(17) -0.00089(17)
C4 0.01145(18) 0.0190(2) 0.0154(2) 0.00160(18) -0.00081(16) -0.00114(16)
N1 0.01169(17) 0.0201(2) 0.0226(3) 0.00403(19) -0.00276(17) -0.00083(14)
N2 0.01191(16) 0.0219(2) 0.0191(3) 0.00336(17) -0.00114(15) -0.00240(14)
C5 0.0161(2) 0.0238(3) 0.0151(2) 0.0025(2) 0.00044(19) -0.00322(19)
C6 0.0233(3) 0.0278(3) 0.0163(3) 0.0002(2) -0.0022(2) 0.0048(2)
C7 0.0191(2) 0.0211(2) 0.0160(2) 0.0006(2) -0.0007(2) 0.00252(19)
C8 0.0172(2) 0.0241(3) 0.0199(3) 0.0042(2) 0.0025(2) 0.0014(2)
C9 0.0144(2) 0.0227(3) 0.0209(3) 0.0021(2) 0.0015(2) 0.00118(19)
C10 0.0218(3) 0.0207(3) 0.0232(3) 0.0050(2) -0.0048(2) -0.0046(2)
C11 0.0199(3) 0.0214(3) 0.0223(3) 0.0013(2) -0.0052(2) -0.00303(19)
N3 0.0172(2) 0.0192(2) 0.0196(2) 0.00222(18) -0.00185(19) 0.00028(16)
S1 0.01312(5) 0.02074(6) 0.01783(6) 0.00430(5) 0.00066(5) -0.00171(4)
Ag1 0.01066(1) 0.02678(2) 0.02112(2) 0.00234(2) 0.00075(2) 0.00180(1)
N2C 0.01191 0.0219 0.0191 -0.00336 -0.00114 0.0024
N3B 0.0172 0.0192 0.0196 0.00222 0.00185 -0.00028
Ag1C 0.01066 0.02678 0.02112 -0.00234 0.00075 -0.0018
Ag1B 0.01066 0.02678 0.02112 0.00234 -0.00075 -0.0018
F1 0.0675(6) 0.0311(3) 0.0353(4) 0.0156(3) -0.0004(4) 0.0053(3)
F2 0.0452(4) 0.0311(3) 0.0245(3) -0.0074(2) -0.0022(3) 0.0042(3)
F3 0.0164(2) 0.0485(4) 0.0342(3) 0.0078(3) -0.0024(2) -0.0073(2)
F4 0.0383(4) 0.0453(4) 0.0270(3) -0.0137(3) -0.0043(3) 0.0091(3)
F5 0.0273(3) 0.0230(2) 0.0425(4) 0.0097(2) 0.0050(3) -0.00076(19)
F6 0.0186(2) 0.0611(5) 0.0443(5) -0.0056(4) -0.0090(3) 0.0116(3)
P1 0.01681(7) 0.01915(7) 0.01874(8) -0.00025(6) -0.00267(6) 0.00120(5)
loop_
_geom_bond_atom_site_label_1
_geom_bond_atom_site_label_2
_geom_bond_site_symmetry_1
_geom_bond_site_symmetry_2
C1 H1 1_555 1_555
C2 C1 1_555 1_555
H2 C2 1_555 1_555
C3 H3 1_555 1_555
C4 C3 1_555 1_555
N1 C1 1_555 1_555
N2 C2 1_555 1_555
C5 C4 1_555 1_555
H4 C5 1_555 1_555
H5 C5 1_555 1_555
C6 H6 1_555 1_555
H7 C6 1_555 1_555
C7 C6 1_555 1_555
C8 C7 1_555 1_555
H8 C8 1_555 1_555
C9 C8 1_555 1_555
H9 C9 1_555 1_555
C10 H10 1_555 1_555
C11 C7 1_555 1_555
H11 C11 1_555 1_555
N3 C9 1_555 1_555
S1 C5 1_555 1_555
Ag1 N1 1_555 1_555
F1 P1 1_555 1_555
F2 P1 1_555 1_555
F3 P1 1_555 1_555
F4 P1 1_555 1_555
F5 P1 1_555 1_555
F6 P1 1_555 1_555
N2C Ag1 1_555 1_555
N3B Ag1 1_555 1_555
Ag1C N2 1_555 1_555
Ag1B N3 1_555 1_555
C3 N2 1_555 1_555
C4 N1 1_555 1_555
C6 S1 1_555 1_555
C10 C11 1_555 1_555
C10 N3 1_555 1_555
S1 Ag1 1_555 1_555

#END
