
#######################################################################
#
#                 Cambridge Crystallographic Data Centre
#                                CCDC 
#
#######################################################################
#
# If this CIF has been generated from an entry in the Cambridge 
# Structural Database, then it will include bibliographic, chemical, 
# crystal, experimental, refinement or atomic coordinate data resulting 
# from the CCDC's data processing and validation procedures.
#
#######################################################################

data_DUWROE
_chemical_formula_moiety         '(C18 H36 Mg4 N3 O29 P3)n'
_symmetry_cell_setting           monoclinic
_symmetry_space_group_name_H-M   'C 2/c'
_symmetry_Int_Tables_number      15
_space_group_name_Hall           '-C 2yc'
loop_
_symmetry_equiv_pos_site_id
_symmetry_equiv_pos_as_xyz
1 x,y,z
2 -x,y,1/2-z
3 1/2+x,1/2+y,z
4 1/2-x,1/2+y,1/2-z
5 -x,-y,-z
6 x,-y,1/2+z
7 1/2-x,1/2-y,-z
8 1/2+x,1/2-y,1/2+z
_cell_length_a                   15.1014(2)
_cell_length_b                   10.96857(17)
_cell_length_c                   22.3338(4)
_cell_angle_alpha                90
_cell_angle_beta                 103.0993(15)
_cell_angle_gamma                90
_cell_volume                     3603.12
loop_
_atom_site_label
_atom_site_type_symbol
_atom_site_fract_x
_atom_site_fract_y
_atom_site_fract_z
Mg1 Mg 0.48037(5) 0.52588(7) 0.56888(3)
Mg2 Mg 0.35481(5) -0.02081(7) 0.62141(3)
P1 P 0.38217(4) 0.26051(5) 0.57263(3)
P2 P 0.5000 -0.09715(8) 0.7500
O1 O 0.45352(12) 0.35575(16) 0.59081(8)
O2 O 0.39567(13) 0.15167(17) 0.61322(10)
O3 O 0.28861(14) 0.3205(2) 0.57308(10)
H1 H 0.2480 0.2833 0.5495
O4 O 0.37244(14) 0.2218(2) 0.50333(9)
H2 H 0.4213 0.2310 0.4938
O5 O 0.44018(14) -0.02183(18) 0.70376(9)
O6 O 0.44789(18) -0.1829(2) 0.78617(12)
H3 H 0.4348 -0.2466 0.7670
O7 O 0.49868(12) 0.71672(16) 0.55183(8)
O8 O 0.44511(12) 0.89928(16) 0.57289(8)
O9 O 0.38947(12) 0.60680(16) 0.61245(9)
O10 O 0.32852(12) 0.78565(16) 0.62815(8)
O11 O 0.58832(11) 0.49040(16) 0.52357(7)
O12 O 0.74054(11) 0.48181(18) 0.54412(8)
O13 O 0.59438(11) 0.52987(16) 0.64161(8)
O14 O 0.74560(11) 0.51379(18) 0.66293(8)
C1 C 0.44854(15) 0.7868(2) 0.57483(10)
C2 C 0.38303(15) 0.7204(2) 0.60843(11)
C3 C 0.66698(16) 0.4941(2) 0.55839(11)
C4 C 0.66945(16) 0.5152(2) 0.62757(11)
O5A O 0.55982(14) -0.02183(18) 0.79624(9)
O6A O 0.55211(18) -0.1829(2) 0.71383(12)
H3A H 0.5652 -0.2466 0.7330
Mg1A Mg 0.51963(5) 0.52588(7) 0.93112(3)
Mg2A Mg 0.64519(5) -0.02081(7) 0.87859(3)
P1A P 0.61783(4) 0.26051(5) 0.92737(3)
O1A O 0.54648(12) 0.35575(16) 0.90919(8)
O2A O 0.60433(13) 0.15167(17) 0.88678(10)
O3A O 0.71139(14) 0.3205(2) 0.92692(10)
H1A H 0.7520 0.2833 0.9505
O4A O 0.62756(14) 0.2218(2) 0.99667(9)
H2A H 0.5787 0.2310 1.0062
O7A O 0.50132(12) 0.71672(16) 0.94817(8)
O8A O 0.55489(12) 0.89928(16) 0.92711(8)
O9A O 0.61053(12) 0.60680(16) 0.88755(9)
O10A O 0.67148(12) 0.78565(16) 0.87185(8)
O11A O 0.41168(11) 0.49040(16) 0.97643(7)
O12A O 0.25946(11) 0.48181(18) 0.95588(8)
O13A O 0.40562(11) 0.52987(16) 0.85839(8)
O14A O 0.25440(11) 0.51379(18) 0.83707(8)
C1A C 0.55146(15) 0.7868(2) 0.92517(10)
C2A C 0.61697(15) 0.7204(2) 0.89157(11)
C3A C 0.33302(16) 0.4941(2) 0.94161(11)
C4A C 0.33055(16) 0.5152(2) 0.87243(11)
Mg1D Mg 0.51963(5) 0.47412(7) 0.43112(3)
Mg1E Mg 0.48037(5) 0.47412(7) 1.06888(3)
Mg2_2 Mg 0.35481(5) 0.97919(7) 0.62141(3)
Mg2A_2 Mg 0.64519(5) 0.97919(7) 0.87859(3)
Mg2B Mg 0.85481(5) 0.47919(7) 0.62141(3)
Mg2C Mg 0.14519(5) 0.47919(7) 0.87859(3)
O8_2 O 0.44511(12) -0.10072(16) 0.57289(8)
O8A_2 O 0.55489(12) -0.10072(16) 0.92711(8)
O10_2 O 0.32852(12) -0.21435(16) 0.62815(8)
O10A_2 O 0.67148(12) -0.21435(16) 0.87185(8)
O11D O 0.41168(11) 0.50960(16) 0.47643(7)
O11E O 0.58832(11) 0.50960(16) 1.02357(7)
O12B O 0.24054(11) -0.01819(18) 0.54412(8)
O12C O 0.75946(11) -0.01819(18) 0.95588(8)
O14B O 0.24560(11) 0.01379(18) 0.66293(8)
O14C O 0.75440(11) 0.01379(18) 0.83707(8)
O15 O 0.3672(4) -0.3842(4) 0.73882(16)
C5 C 0.7022(4) -0.0190(4) 0.66687(18)
H4 H 0.7257 -0.0078 0.7102
H5 H 0.7444 -0.0665 0.6503
H6 H 0.6449 -0.0607 0.6601
C6 C 0.6633(2) 0.0846(4) 0.56855(15)
H7 H 0.6066 0.0415 0.5577
H8 H 0.7096 0.0388 0.5553
H9 H 0.6569 0.1630 0.5489
C7 C 0.62038(18) 0.1751(3) 0.65745(13)
H10 H 0.5660 0.1263 0.6545
H11 H 0.6044 0.2444 0.6302
C8 C 0.65164(17) 0.2211(3) 0.72284(13)
H12 H 0.7058 0.2707 0.7263
H13 H 0.6668 0.1525 0.7507
C9 C 0.57713(18) 0.2963(2) 0.74056(13)
H14 H 0.6024 0.3407 0.7781
H15 H 0.5546 0.3556 0.7085
N1 N 0.68946(15) 0.1009(2) 0.63624(10)
H16 H 0.7475 0.1447 0.6465
N2 N 0.5000 0.2199(3) 0.7500
H17 H 0.5189 0.1722 0.7826
H17A H 0.4811 0.1722 0.7174
C5A C 0.2978(4) -0.0190(4) 0.83313(18)
H4A H 0.2743 -0.0078 0.7898
H5A H 0.2556 -0.0665 0.8497
H6A H 0.3551 -0.0607 0.8399
C6A C 0.3367(2) 0.0846(4) 0.93145(15)
H7A H 0.3934 0.0415 0.9423
H8A H 0.2904 0.0388 0.9447
H9A H 0.3431 0.1630 0.9511
C7A C 0.37962(18) 0.1751(3) 0.84255(13)
H10A H 0.4340 0.1263 0.8455
H11A H 0.3956 0.2444 0.8698
C8A C 0.34836(17) 0.2211(3) 0.77716(13)
H12A H 0.2942 0.2707 0.7737
H13A H 0.3332 0.1525 0.7493
C9A C 0.42287(18) 0.2963(2) 0.75944(13)
H14A H 0.3976 0.3407 0.7219
H15A H 0.4454 0.3556 0.7915
N1A N 0.31054(15) 0.1009(2) 0.86376(10)
H16A H 0.2525 0.1447 0.8535
loop_
_geom_bond_atom_site_label_1
_geom_bond_atom_site_label_2
_geom_bond_site_symmetry_1
_geom_bond_site_symmetry_2
Mg1 O1 1_555 1_555
Mg2 O2 1_555 1_555
P1 O1 1_555 1_555
P2 O5 1_555 1_555
O2 P1 1_555 1_555
O3 P1 1_555 1_555
H1 O3 1_555 1_555
O4 P1 1_555 1_555
H2 O4 1_555 1_555
O5 Mg2 1_555 1_555
O6 P2 1_555 1_555
H3 O6 1_555 1_555
O7 Mg1 1_555 1_555
O8 C1 1_555 1_555
O9 Mg1 1_555 1_555
O10 C2 1_555 1_555
O11 Mg1 1_555 1_555
O12 C3 1_555 1_555
O13 Mg1 1_555 1_555
O14 C4 1_555 1_555
C1 O7 1_555 1_555
C2 O9 1_555 1_555
C3 O11 1_555 1_555
C4 O13 1_555 1_555
C5 H4 1_555 1_555
H5 C5 1_555 1_555
H6 C5 1_555 1_555
C6 H7 1_555 1_555
H8 C6 1_555 1_555
H9 C6 1_555 1_555
C7 H10 1_555 1_555
H11 C7 1_555 1_555
C8 C7 1_555 1_555
H12 C8 1_555 1_555
H13 C8 1_555 1_555
C9 C8 1_555 1_555
H14 C9 1_555 1_555
H15 C9 1_555 1_555
N1 C5 1_555 1_555
H16 N1 1_555 1_555
N2 C9 1_555 1_555
H17 N2 1_555 1_555
O5A P2 1_555 1_555
O6A P2 1_555 1_555
H3A O6A 1_555 1_555
Mg1A O1A 1_555 1_555
Mg2A O5A 1_555 1_555
P1A O1A 1_555 1_555
O2A Mg2A 1_555 1_555
O3A P1A 1_555 1_555
H1A O3A 1_555 1_555
O4A P1A 1_555 1_555
H2A O4A 1_555 1_555
O7A Mg1A 1_555 1_555
O8A C1A 1_555 1_555
O9A Mg1A 1_555 1_555
O10A C2A 1_555 1_555
O11A Mg1A 1_555 1_555
O12A C3A 1_555 1_555
O13A Mg1A 1_555 1_555
O14A C4A 1_555 1_555
C1A O7A 1_555 1_555
C2A O9A 1_555 1_555
C3A O11A 1_555 1_555
C4A O13A 1_555 1_555
Mg1D O11 1_555 1_555
Mg1E O11A 1_555 1_555
Mg2_2 O8 1_555 1_555
Mg2A_2 O8A 1_555 1_555
Mg2B O12 1_555 1_555
Mg2C O12A 1_555 1_555
O8_2 Mg2 1_555 1_555
O8A_2 Mg2A 1_555 1_555
O10_2 Mg2 1_555 1_555
O10A_2 Mg2A 1_555 1_555
O11D Mg1 1_555 1_555
O11E Mg1A 1_555 1_555
O12B Mg2 1_555 1_555
O12C Mg2A 1_555 1_555
O14B Mg2 1_555 1_555
O14C Mg2A 1_555 1_555
H17A N2 1_555 1_555
C5A H4A 1_555 1_555
H5A C5A 1_555 1_555
H6A C5A 1_555 1_555
C6A H7A 1_555 1_555
H8A C6A 1_555 1_555
H9A C6A 1_555 1_555
C7A H10A 1_555 1_555
H11A C7A 1_555 1_555
C8A C7A 1_555 1_555
H12A C8A 1_555 1_555
H13A C8A 1_555 1_555
C9A N2 1_555 1_555
H14A C9A 1_555 1_555
H15A C9A 1_555 1_555
N1A C5A 1_555 1_555
H16A N1A 1_555 1_555
O10 Mg2_2 1_555 1_555
O14 Mg2B 1_555 1_555
C1 C2 1_555 1_555
C3 C4 1_555 1_555
C6 N1 1_555 1_555
C7 N1 1_555 1_555
P1A O2A 1_555 1_555
O10A Mg2A_2 1_555 1_555
O14A Mg2C 1_555 1_555
C1A C2A 1_555 1_555
C3A C4A 1_555 1_555
Mg1D O11D 1_555 1_555
Mg1E O11E 1_555 1_555
C6A N1A 1_555 1_555
C7A N1A 1_555 1_555
C8A C9A 1_555 1_555

#END
