
#######################################################################
#
#                 Cambridge Crystallographic Data Centre
#                                CCDC 
#
#######################################################################
#
# If this CIF has been generated from an entry in the Cambridge 
# Structural Database, then it will include bibliographic, chemical, 
# crystal, experimental, refinement or atomic coordinate data resulting 
# from the CCDC's data processing and validation procedures.
#
#######################################################################

data_DUWRAQ
_chemical_formula_moiety         '(C10 H20 Mg4 N2 O22 P2)n'
_symmetry_cell_setting           triclinic
_symmetry_space_group_name_H-M   'P -1'
_symmetry_Int_Tables_number      2
_space_group_name_Hall           '-P 1'
loop_
_symmetry_equiv_pos_site_id
_symmetry_equiv_pos_as_xyz
1 x,y,z
2 -x,-y,-z
_cell_length_a                   7.6627(3)
_cell_length_b                   7.8432(3)
_cell_length_c                   9.7695(3)
_cell_angle_alpha                72.092(3)
_cell_angle_beta                 83.275(3)
_cell_angle_gamma                84.998(3)
_cell_volume                     554.043
loop_
_atom_site_label
_atom_site_type_symbol
_atom_site_fract_x
_atom_site_fract_y
_atom_site_fract_z
Mg1 Mg 0.37231(10) 0.01672(10) 0.73755(8)
Mg2 Mg 0.30514(10) 0.71166(10) 0.37331(8)
P1 P 0.41507(7) 0.28097(7) 0.40778(6)
O1 O 0.4899(2) 0.1951(2) 0.55436(17)
O2 O 0.4168(2) 0.4821(2) 0.36079(18)
O3 O 0.5093(2) 0.2049(2) 0.29263(18)
O4 O 0.2147(2) 0.2331(2) 0.4301(2)
H1 H 0.2046 0.1491 0.3987
O5 O 0.1306(2) -0.0704(2) 0.70125(19)
O6 O -0.1442(2) 0.0387(2) 0.6569(2)
O7 O 0.1892(2) 0.2197(2) 0.7690(2)
O8 O -0.0766(2) 0.3394(2) 0.7074(2)
O9 O 0.5576(2) 0.1356(2) 0.82543(18)
O10 O 0.6583(2) 0.1227(3) 1.03469(18)
O11 O 0.1692(2) 0.6431(3) 0.5824(2)
H2 H 0.0743 0.5913 0.5830
H3 H 0.1414 0.7381 0.6084
C1 C 0.0059(3) 0.0447(3) 0.6922(3)
C2 C 0.0421(3) 0.2179(3) 0.7267(3)
C3 C 0.5645(3) 0.0752(3) 0.9606(2)
O9A O 0.4424(2) -0.1356(2) 1.17457(18)
O10A O 0.3417(2) -0.1227(3) 0.96531(18)
C3A C 0.4355(3) -0.0752(3) 1.0394(2)
Mg1A Mg -0.37231(10) 0.98328(10) 0.26245(8)
Mg2A Mg -0.30514(10) 0.28834(10) 0.62669(8)
P1A P -0.41507(7) 0.71903(7) 0.59222(6)
O1A O -0.4899(2) 0.8049(2) 0.44564(17)
O2A O -0.4168(2) 0.5179(2) 0.63921(18)
O3A O -0.5093(2) 0.7951(2) 0.70737(18)
O4A O -0.2147(2) 0.7669(2) 0.5699(2)
H1A H -0.2046 0.8509 0.6013
O5A O -0.1306(2) 1.0704(2) 0.29875(19)
O6A O 0.1442(2) 0.9613(2) 0.3431(2)
O7A O -0.1892(2) 0.7803(2) 0.2310(2)
O8A O 0.0766(2) 0.6606(2) 0.2926(2)
O11A O -0.1692(2) 0.3569(3) 0.4176(2)
H2A H -0.0743 0.4087 0.4170
H3A H -0.1414 0.2619 0.3916
C1A C -0.0059(3) 0.9553(3) 0.3078(3)
C2A C -0.0421(3) 0.7821(3) 0.2733(3)
Mg1_2 Mg -0.62769(10) 1.01672(10) 0.73755(8)
Mg1A_2 Mg 0.62769(10) -0.01672(10) 0.26245(8)
Mg1A_3 Mg 0.62769(10) -0.01672(10) 1.26245(8)
Mg2_2 Mg -0.69486(10) 0.71166(10) 0.37331(8)
Mg2_3 Mg 0.30514(10) -0.28834(10) 1.37331(8)
Mg2A_2 Mg 0.69486(10) 0.28834(10) 0.62669(8)
O1_2 O -0.5101(2) 0.1951(2) 0.55436(17)
O1A_2 O 0.5101(2) 0.8049(2) 0.44564(17)
O3_2 O -0.4907(2) 1.2049(2) 0.29263(18)
O3A_2 O 0.4907(2) -0.2049(2) 0.70737(18)
O9_2 O -0.4424(2) 0.1356(2) 0.82543(18)
O9A_2 O -0.5576(2) 0.8644(2) 0.17457(18)
O9A_3 O 0.4424(2) 0.8644(2) 0.17457(18)
O10_2 O -0.3417(2) 1.1227(3) 0.03469(18)
N1 N -0.3216(3) -0.4746(3) 1.1294(2)
H4 H -0.4337 -0.4339 1.1332
H5 H -0.2610 -0.4229 1.1767
H6 H -0.3153 -0.5930 1.1701
C4 C -0.0509(5) -0.4191(5) 0.9596(4)
H7 H -0.0099 -0.3922 0.8578
H8 H -0.0246 -0.3188 0.9907
C5 C -0.2460(4) -0.4309(5) 0.9752(3)
H9 H -0.2748 -0.5226 0.9352
H10 H -0.2991 -0.3173 0.9203
N1A N 0.3216(3) -0.5254(3) 0.8706(2)
H4A H 0.4337 -0.5661 0.8668
H5A H 0.2610 -0.5771 0.8233
H6A H 0.3153 -0.4070 0.8299
C4A C 0.0509(5) -0.5809(5) 1.0404(4)
H7A H 0.0099 -0.6078 1.1422
H8A H 0.0246 -0.6812 1.0093
C5A C 0.2460(4) -0.5691(5) 1.0248(3)
H9A H 0.2748 -0.4774 1.0648
H10A H 0.2991 -0.6827 1.0797
loop_
_geom_bond_atom_site_label_1
_geom_bond_atom_site_label_2
_geom_bond_site_symmetry_1
_geom_bond_site_symmetry_2
Mg1 O1 1_555 1_555
Mg2 O2 1_555 1_555
P1 O1 1_555 1_555
O1 Mg2A_2 1_555 1_555
O2 P1 1_555 1_555
O3 P1 1_555 1_555
O4 P1 1_555 1_555
H1 O4 1_555 1_555
O5 Mg1 1_555 1_555
O6 C1 1_555 1_555
O7 Mg1 1_555 1_555
O8 C2 1_555 1_555
O9 Mg1 1_555 1_555
O10 C3 1_555 1_555
O11 Mg2 1_555 1_555
H2 O11 1_555 1_555
H3 O11 1_555 1_555
C1 O5 1_555 1_555
C2 O7 1_555 1_555
C3 O9 1_555 1_555
N1 H4 1_555 1_555
H5 N1 1_555 1_555
H6 N1 1_555 1_555
C4 H7 1_555 1_555
H8 C4 1_555 1_555
C5 N1 1_555 1_555
H9 C5 1_555 1_555
H10 C5 1_555 1_555
O9A C3A 1_555 1_555
O10A Mg1 1_555 1_555
C3A C3 1_555 1_555
Mg1A O1A 1_555 1_555
Mg2A O6 1_555 1_555
P1A O1A 1_555 1_555
O1A Mg2_2 1_555 1_555
O2A Mg2A 1_555 1_555
O3A P1A 1_555 1_555
O4A P1A 1_555 1_555
H1A O4A 1_555 1_555
O5A Mg1A 1_555 1_555
O6A Mg2 1_555 1_555
O7A Mg1A 1_555 1_555
O8A Mg2 1_555 1_555
O11A Mg2A 1_555 1_555
H2A O11A 1_555 1_555
H3A O11A 1_555 1_555
C1A O5A 1_555 1_555
C2A O7A 1_555 1_555
Mg1_2 O3A 1_555 1_555
Mg1A_2 O3 1_555 1_555
Mg1A_3 O10 1_555 1_555
Mg2_2 O9A_2 1_555 1_555
Mg2_3 O9A 1_555 1_555
Mg2A_2 O9 1_555 1_555
O1_2 Mg2A 1_555 1_555
O1A_2 Mg2 1_555 1_555
O3_2 Mg1A 1_555 1_555
O3A_2 Mg1 1_555 1_555
O9_2 Mg2A 1_555 1_555
O9A_2 Mg1A 1_555 1_555
O9A_3 Mg2 1_555 1_555
O10_2 Mg1A 1_555 1_555
N1A H4A 1_555 1_555
H5A N1A 1_555 1_555
H6A N1A 1_555 1_555
C4A C4 1_555 1_555
H7A C4A 1_555 1_555
H8A C4A 1_555 1_555
C5A N1A 1_555 1_555
H9A C5A 1_555 1_555
H10A C5A 1_555 1_555
O8 Mg2A 1_555 1_555
C1 C2 1_555 1_555
C4 C5 1_555 1_555
O9A Mg1A_3 1_555 1_555
O10A C3A 1_555 1_555
P1A O2A 1_555 1_555
O6A C1A 1_555 1_555
O8A C2A 1_555 1_555
C1A C2A 1_555 1_555
C4A C5A 1_555 1_555

#END
