
#######################################################################
#
#                 Cambridge Crystallographic Data Centre
#                                CCDC 
#
#######################################################################
#
# If this CIF has been generated from an entry in the Cambridge 
# Structural Database, then it will include bibliographic, chemical, 
# crystal, experimental, refinement or atomic coordinate data resulting 
# from the CCDC's data processing and validation procedures.
#
#######################################################################

data_DUWRUK
_chemical_formula_moiety         '(C16 H33 Mg4 N4 O30 P3)n'
_symmetry_cell_setting           triclinic
_symmetry_space_group_name_H-M   'P 1'
_symmetry_Int_Tables_number      1
_space_group_name_Hall           'P 1'
loop_
_symmetry_equiv_pos_site_id
_symmetry_equiv_pos_as_xyz
1 x,y,z
_cell_length_a                   7.7738(3)
_cell_length_b                   9.4840(3)
_cell_length_c                   11.9243(5)
_cell_angle_alpha                78.102(3)
_cell_angle_beta                 78.574(4)
_cell_angle_gamma                86.183(3)
_cell_volume                     842.9
loop_
_atom_site_label
_atom_site_type_symbol
_atom_site_fract_x
_atom_site_fract_y
_atom_site_fract_z
Mg1 Mg 0.9966(2) 0.58361(19) 0.18645(15)
Mg2 Mg 0.3151(2) 0.4764(2) -0.00331(15)
Mg3 Mg 0.1255(2) 0.0262(2) 0.39627(15)
Mg4 Mg 0.2159(2) 0.0451(2) 0.77128(15)
P1 P 0.61886(16) 0.50132(15) 0.15414(11)
P2 P 0.43332(17) 0.14659(15) 0.49998(12)
P3 P -0.05459(16) -0.11586(16) 0.67153(12)
O1 O 0.5202(5) 0.5270(5) 0.0549(4)
O2 O 0.8025(5) 0.5513(5) 0.1141(4)
O3 O 0.5295(5) 0.5944(5) 0.2480(4)
H1 H 0.4234 0.5819 0.2638
O4 O 0.6097(7) 0.3419(5) 0.2175(4)
H2 H 0.5466 0.3357 0.2821
O5 O 0.3588(5) 0.0473(5) 0.4394(4)
O6 O 0.3298(6) 0.1530(5) 0.6180(4)
O7 O 0.4735(6) 0.2953(5) 0.4262(4)
O8 O 0.6221(6) 0.0735(5) 0.5218(4)
H3 H 0.6945 0.1366 0.5093
O9 O 0.0321(6) -0.1054(5) 0.5471(4)
O10 O -0.0119(5) 0.0016(5) 0.7275(4)
O11 O -0.2604(5) -0.1251(5) 0.6882(4)
H4 H -0.3019 -0.0460 0.6628
O12 O -0.0049(6) -0.2650(5) 0.7421(4)
H5 H -0.0946 -0.3061 0.7785
O13 O 0.8790(5) 0.7712(4) 0.2359(4)
O14 O 0.9273(5) 0.9542(5) 0.3163(4)
O15 O 1.1880(5) 0.6549(5) 0.2657(4)
O16 O 1.2530(5) 0.8474(4) 0.3279(3)
O17 O 0.1603(5) 0.4057(4) 0.1580(3)
O18 O 0.1995(5) 0.1729(5) 0.2357(4)
O19 O -0.0832(5) 0.4341(5) 0.3430(4)
O20 O -0.0394(5) 0.2036(5) 0.4245(4)
O21 O 0.3505(5) -0.1493(4) 0.7526(3)
O22 O 0.3913(5) -0.3749(5) 0.8416(3)
O23 O 0.1270(5) -0.1012(5) 0.9440(4)
O24 O 0.1572(5) -0.3343(5) 1.0264(3)
O25 O 0.0778(5) 0.2177(5) 0.8367(4)
O26 O 0.1182(5) 0.3997(5) 0.9224(4)
O27 O 0.3987(5) 0.1178(5) 0.8549(4)
O28 O 0.4407(5) 0.2953(5) 0.9423(4)
C1 C 0.9686(7) 0.8411(6) 0.2810(5)
C2 C 1.1537(7) 0.7756(6) 0.2930(4)
C3 C 0.1308(7) 0.2935(7) 0.2374(5)
C4 C -0.0125(7) 0.3132(6) 0.3455(5)
C5 C 0.3222(7) -0.2522(6) 0.8364(5)
C6 C 0.1886(7) -0.2248(6) 0.9460(5)
C7 C 0.1650(7) 0.2884(7) 0.8828(5)
C8 C 0.3521(7) 0.2274(6) 0.8940(4)
Mg1_2 Mg -0.0034(2) -0.41639(19) 1.18645(15)
Mg1_3 Mg -0.0034(2) 0.58361(19) 0.18645(15)
Mg2_2 Mg 0.3151(2) -0.5236(2) 0.99669(15)
Mg2_3 Mg 0.3151(2) 0.4764(2) 0.99669(15)
Mg3_2 Mg 1.1255(2) 1.0262(2) 0.39627(15)
O14_2 O -0.0727(5) -0.0458(5) 0.3163(4)
O16_2 O 0.2530(5) -0.1526(4) 0.3279(3)
O17_2 O 1.1603(5) 0.4057(4) 0.1580(3)
O19_2 O 0.9168(5) 0.4341(5) 0.3430(4)
O22_2 O 0.3913(5) 0.6251(5) -0.1584(3)
O24_2 O 0.1572(5) 0.6657(5) 0.0264(3)
O24_3 O 1.1572(5) 0.6657(5) 0.0264(3)
O26_2 O 0.1182(5) 0.3997(5) -0.0776(4)
O28_2 O 0.4407(5) 0.2953(5) -0.0577(4)
O29 O 0.8167(19) 0.2979(11) -0.3126(12)
H6 H 0.7959 0.3212 -0.2460
H7 H 0.9044 0.3437 -0.3552
O30 O -0.1944(6) -0.4828(6) 0.8520(4)
H8 H -0.2880 -0.4639 0.8976
H9 H -0.1237 -0.5319 0.8918
N1 N 0.5982(10) 0.7301(8) -0.5222(6)
H10 H 0.6523 0.8119 -0.5283
H11 H 0.5933 0.7189 -0.5938
N2 N 0.4321(14) 0.4774(9) -0.3788(7)
H12 H 0.4370 0.4875 -0.3069
H13 H 0.3783 0.3957 -0.3735
C9 C 0.4170(8) 0.7381(7) -0.4533(5)
H14 H 0.4225 0.7585 -0.3777
H15 H 0.3513 0.8164 -0.4934
C10 C 0.3278(10) 0.6050(10) -0.4374(7)
H16 H 0.3127 0.5891 -0.5126
H17 H 0.2123 0.6117 -0.3895
C11 C 0.6993(10) 0.6066(9) -0.4641(7)
H18 H 0.8149 0.5995 -0.5119
H19 H 0.7144 0.6239 -0.3893
C12 C 0.6094(9) 0.4708(7) -0.4464(5)
H20 H 0.6039 0.4492 -0.5216
H21 H 0.6760 0.3935 -0.4060
N3 N 0.7365(7) 0.0640(9) -0.0549(6)
H22 H 0.6527 0.1247 -0.0787
H23 H 0.8315 0.0759 -0.1112
N4 N 0.5753(6) -0.0844(6) 0.1694(4)
H24 H 0.6634 -0.1443 0.1870
H25 H 0.4843 -0.1023 0.2282
C13 C 0.6780(10) -0.0840(10) -0.0357(6)
H26 H 0.7736 -0.1508 -0.0182
H27 H 0.6453 -0.1008 -0.1061
C14 C 0.5264(9) -0.1104(8) 0.0618(6)
H28 H 0.4898 -0.2090 0.0738
H29 H 0.4288 -0.0467 0.0431
C15 C 0.7791(9) 0.1001(8) 0.0542(8)
H30 H 0.8823 0.0446 0.0735
H31 H 0.8053 0.2015 0.0400
C16 C 0.6294(8) 0.0675(8) 0.1541(6)
H32 H 0.5311 0.1329 0.1398
H33 H 0.6636 0.0816 0.2248
loop_
_geom_bond_atom_site_label_1
_geom_bond_atom_site_label_2
_geom_bond_site_symmetry_1
_geom_bond_site_symmetry_2
Mg1 O2 1_555 1_555
Mg2 O1 1_555 1_555
Mg3 O5 1_555 1_555
Mg4 O6 1_555 1_555
P1 O1 1_555 1_555
P2 O5 1_555 1_555
P3 O9 1_555 1_555
O2 P1 1_555 1_555
O3 P1 1_555 1_555
H1 O3 1_555 1_555
O4 P1 1_555 1_555
H2 O4 1_555 1_555
O6 P2 1_555 1_555
O7 P2 1_555 1_555
O8 P2 1_555 1_555
H3 O8 1_555 1_555
O9 Mg3 1_555 1_555
O10 Mg4 1_555 1_555
O11 P3 1_555 1_555
H4 O11 1_555 1_555
O12 P3 1_555 1_555
H5 O12 1_555 1_555
O13 Mg1 1_555 1_555
O14 C1 1_555 1_555
O15 Mg1 1_555 1_555
O16 C2 1_555 1_555
O17 Mg2 1_555 1_555
O18 Mg3 1_555 1_555
O19 C4 1_555 1_555
O20 Mg3 1_555 1_555
O21 Mg4 1_555 1_555
O22 C5 1_555 1_555
O23 Mg4 1_555 1_555
O24 C6 1_555 1_555
O25 Mg4 1_555 1_555
O26 C7 1_555 1_555
O27 Mg4 1_555 1_555
O28 C8 1_555 1_555
C1 O13 1_555 1_555
C2 O15 1_555 1_555
C3 O17 1_555 1_555
C4 O20 1_555 1_555
C5 O21 1_555 1_555
C6 O23 1_555 1_555
C7 O25 1_555 1_555
C8 O27 1_555 1_555
O29 H6 1_555 1_555
H7 O29 1_555 1_555
O30 H8 1_555 1_555
H9 O30 1_555 1_555
N1 H10 1_555 1_555
H11 N1 1_555 1_555
N2 H12 1_555 1_555
H13 N2 1_555 1_555
C9 N1 1_555 1_555
H14 C9 1_555 1_555
H15 C9 1_555 1_555
C10 N2 1_555 1_555
H16 C10 1_555 1_555
H17 C10 1_555 1_555
C11 N1 1_555 1_555
H18 C11 1_555 1_555
H19 C11 1_555 1_555
C12 N2 1_555 1_555
H20 C12 1_555 1_555
H21 C12 1_555 1_555
N3 H22 1_555 1_555
H23 N3 1_555 1_555
N4 H24 1_555 1_555
H25 N4 1_555 1_555
C13 N3 1_555 1_555
H26 C13 1_555 1_555
H27 C13 1_555 1_555
C14 N4 1_555 1_555
H28 C14 1_555 1_555
H29 C14 1_555 1_555
C15 N3 1_555 1_555
H30 C15 1_555 1_555
H31 C15 1_555 1_555
C16 N4 1_555 1_555
H32 C16 1_555 1_555
H33 C16 1_555 1_555
Mg1_2 O24 1_555 1_555
Mg1_3 O17 1_555 1_555
Mg2_2 O22 1_555 1_555
Mg2_3 O26 1_555 1_555
Mg3_2 O14 1_555 1_555
O14_2 Mg3 1_555 1_555
O16_2 Mg3 1_555 1_555
O17_2 Mg1 1_555 1_555
O19_2 Mg1 1_555 1_555
O22_2 Mg2 1_555 1_555
O24_2 Mg2 1_555 1_555
O24_3 Mg1 1_555 1_555
O26_2 Mg2 1_555 1_555
O28_2 Mg2 1_555 1_555
P3 O10 1_555 1_555
O16 Mg3_2 1_555 1_555
O18 C3 1_555 1_555
O19 Mg1_3 1_555 1_555
O24 Mg2_2 1_555 1_555
O28 Mg2_3 1_555 1_555
C1 C2 1_555 1_555
C3 C4 1_555 1_555
C5 C6 1_555 1_555
C7 C8 1_555 1_555
C9 C10 1_555 1_555
C11 C12 1_555 1_555
C13 C14 1_555 1_555
C15 C16 1_555 1_555
Mg1_3 O24_2 1_555 1_555

#END
