
#######################################################################
#
#                 Cambridge Crystallographic Data Centre
#                                CCDC 
#
#######################################################################
#
# If this CIF has been generated from an entry in the Cambridge 
# Structural Database, then it will include bibliographic, chemical, 
# crystal, experimental, refinement or atomic coordinate data resulting 
# from the CCDC's data processing and validation procedures.
#
#######################################################################

data_DUWSAR
_chemical_formula_moiety         '(C14 H34 Mg4 N3 O36 P4 3-)n'
_symmetry_cell_setting           triclinic
_symmetry_space_group_name_H-M   'P -1'
_symmetry_Int_Tables_number      2
_space_group_name_Hall           '-P 1'
loop_
_symmetry_equiv_pos_site_id
_symmetry_equiv_pos_as_xyz
1 x,y,z
2 -x,-y,-z
_cell_length_a                   9.3254(2)
_cell_length_b                   9.4280(3)
_cell_length_c                   14.3060(4)
_cell_angle_alpha                96.449(2)
_cell_angle_beta                 103.879(2)
_cell_angle_gamma                104.350(2)
_cell_volume                     1163.07
loop_
_atom_site_label
_atom_site_type_symbol
_atom_site_fract_x
_atom_site_fract_y
_atom_site_fract_z
Mg1 Mg 0.20695(8) 0.48237(8) 0.89214(5)
Mg2 Mg 0.16084(8) 0.29821(7) 0.53675(5)
P1 P 0.33949(6) 0.59343(6) 0.71123(3)
P2 P 0.38416(7) 0.14903(6) 0.43207(4)
O1 O 0.25911(19) 0.59703(18) 0.79062(11)
O2 O 0.31249(19) 0.44102(18) 0.65459(12)
O3 O 0.51454(19) 0.66767(19) 0.75113(13)
O4 O 0.27001(18) 0.69471(18) 0.64198(11)
H1 H 0.3318 0.7304 0.6127
O5 O 0.3398(2) 0.26533(19) 0.48894(13)
O6 O 0.3302(3) 0.1485(3) 0.32177(14)
H2 H 0.3917 0.2147 0.3071
O7 O 0.2926(2) -0.0098(2) 0.44178(18)
H3 H 0.3525 -0.0499 0.4725
O8 O 0.5564(2) 0.1715(2) 0.46475(15)
O9 O 0.05086(19) 0.60278(19) 0.91350(12)
O10 O -0.11317(19) 0.62010(19) 1.00228(12)
O11 O 0.39429(18) 0.62770(18) 1.00460(11)
O12 O 0.63122(17) 0.63904(17) 1.09309(11)
O13 O -0.00395(18) 0.12868(17) 0.42257(11)
O14 O -0.12577(17) -0.11447(16) 0.39272(11)
O15 O 0.12749(17) 0.44567(17) 0.44259(11)
O16 O 0.01410(17) 0.62725(17) 0.42108(11)
O17 O 0.0529(2) 0.3117(2) 0.78648(12)
H4 H -0.0227 0.2477 0.7940
H5 H 0.0312 0.3205 0.7274
C1 C -0.0182(2) 0.5655(2) 0.97538(15)
C2 C 0.5064(2) 0.5775(2) 1.02772(14)
C3 C -0.0378(2) 0.0046(2) 0.44620(14)
C4 C 0.0411(2) 0.5224(2) 0.46020(14)
O9A O -0.05086(19) 0.39722(19) 1.08650(12)
O10A O 0.11317(19) 0.37990(19) 0.99772(12)
C1A C 0.0182(2) 0.4345(2) 1.02462(15)
O11A O 0.60571(18) 0.37230(18) 0.99540(11)
O12A O 0.36878(17) 0.36096(17) 0.90691(11)
C2A C 0.4936(2) 0.4225(2) 0.97228(14)
O13A O 0.00395(18) -0.12868(17) 0.57743(11)
O14A O 0.12577(17) 0.11447(16) 0.60728(11)
C3A C 0.0378(2) -0.0046(2) 0.55380(14)
O15A O -0.12749(17) 0.55433(17) 0.55741(11)
O16A O -0.01410(17) 0.37275(17) 0.57892(11)
C4A C -0.0411(2) 0.4776(2) 0.53980(14)
Mg1A Mg -0.20695(8) -0.48237(8) 0.10786(5)
Mg2A Mg -0.16084(8) -0.29821(7) 0.46325(5)
P1A P -0.33949(6) -0.59343(6) 0.28877(3)
P2A P -0.38416(7) -0.14903(6) 0.56793(4)
O1A O -0.25911(19) -0.59703(18) 0.20938(11)
O2A O -0.31249(19) -0.44102(18) 0.34541(12)
O3A O -0.51454(19) -0.66767(19) 0.24887(13)
O4A O -0.27001(18) -0.69471(18) 0.35802(11)
H1A H -0.3318 -0.7304 0.3873
O5A O -0.3398(2) -0.26533(19) 0.51106(13)
O6A O -0.3302(3) -0.1485(3) 0.67823(14)
H2A H -0.3917 -0.2147 0.6929
O7A O -0.2926(2) 0.0098(2) 0.55822(18)
H3A H -0.3525 0.0499 0.5275
O8A O -0.5564(2) -0.1715(2) 0.53525(15)
O17A O -0.0529(2) -0.3117(2) 0.21352(12)
H4A H 0.0227 -0.2477 0.2060
H5A H -0.0312 -0.3205 0.2726
Mg1A_2 Mg -0.20695(8) 0.51763(8) 1.10786(5)
Mg1A_3 Mg 0.79305(8) 0.51763(8) 1.10786(5)
Mg2A_2 Mg -0.16084(8) 0.70179(7) 0.46325(5)
O9A_2 O -0.05086(19) -0.60278(19) 0.08650(12)
O10_2 O -0.11317(19) -0.37990(19) 0.00228(12)
O11A_2 O -0.39429(18) -0.62770(18) -0.00460(11)
O12_2 O -0.36878(17) -0.36096(17) 0.09309(11)
O15A_2 O -0.12749(17) -0.44567(17) 0.55741(11)
O16_2 O 0.01410(17) -0.37275(17) 0.42108(11)
O18 O 0.1631(3) -0.0907(2) 0.17567(18)
H6 H 0.1432 -0.0489 0.1259
H7 H 0.1904 -0.0169 0.2277
O19 O 0.2315(10) 0.1589(5) 1.0806(6)
N1 N 0.6254(2) 0.4529(2) 0.63152(15)
H8 H 0.6837 0.4897 0.5940
H9 H 0.5400 0.3854 0.5943
H10 H 0.6004 0.5263 0.6627
N2 N 0.3742(2) 0.1318(2) 0.77014(13)
H11 H 0.3792 0.2074 0.8153
H12 H 0.2791 0.1022 0.7300
N3 N 0.0697(3) -0.2061(3) 0.76699(18)
H13 H -0.0317 -0.2226 0.7445
H14 H 0.1125 -0.1938 0.7181
H15 H 0.0894 -0.2836 0.7923
C5 C 0.7125(3) 0.3818(3) 0.70432(19)
H16 H 0.8064 0.4552 0.7441
H17 H 0.7412 0.3030 0.6702
C6 C 0.6177(3) 0.3181(3) 0.76954(17)
H18 H 0.6824 0.2884 0.8231
H19 H 0.5778 0.3937 0.7971
C7 C 0.4855(3) 0.1853(3) 0.71290(17)
H20 H 0.4310 0.2116 0.6537
H21 H 0.5262 0.1049 0.6937
C8 C 0.4043(3) 0.0071(3) 0.8192(2)
H22 H 0.5121 0.0342 0.8560
H23 H 0.3846 -0.0800 0.7698
C9 C 0.3066(4) -0.0314(3) 0.8873(2)
H24 H 0.3291 -0.1158 0.9143
H25 H 0.3379 0.0519 0.9413
C10 C 0.1354(4) -0.0682(3) 0.8449(3)
H26 H 0.1113 0.0151 0.8171
H27 H 0.0863 -0.0817 0.8971
loop_
_geom_bond_atom_site_label_1
_geom_bond_atom_site_label_2
_geom_bond_site_symmetry_1
_geom_bond_site_symmetry_2
Mg1 O1 1_555 1_555
Mg2 O2 1_555 1_555
P1 O1 1_555 1_555
P2 O5 1_555 1_555
O2 P1 1_555 1_555
O3 P1 1_555 1_555
O4 P1 1_555 1_555
H1 O4 1_555 1_555
O5 Mg2 1_555 1_555
O6 P2 1_555 1_555
H2 O6 1_555 1_555
O7 P2 1_555 1_555
H3 O7 1_555 1_555
O8 P2 1_555 1_555
O9 Mg1 1_555 1_555
O10 C1 1_555 1_555
O11 Mg1 1_555 1_555
O12 C2 1_555 1_555
O13 Mg2 1_555 1_555
O14 C3 1_555 1_555
O15 Mg2 1_555 1_555
O16 C4 1_555 1_555
O17 Mg1 1_555 1_555
H4 O17 1_555 1_555
H5 O17 1_555 1_555
C1 O9 1_555 1_555
C2 O11 1_555 1_555
C3 O13 1_555 1_555
C4 O15 1_555 1_555
O18 H6 1_555 1_555
H7 O18 1_555 1_555
N1 H8 1_555 1_555
H9 N1 1_555 1_555
H10 N1 1_555 1_555
N2 H11 1_555 1_555
H12 N2 1_555 1_555
N3 H13 1_555 1_555
H14 N3 1_555 1_555
H15 N3 1_555 1_555
C5 N1 1_555 1_555
H16 C5 1_555 1_555
H17 C5 1_555 1_555
C6 C5 1_555 1_555
H18 C6 1_555 1_555
H19 C6 1_555 1_555
C7 N2 1_555 1_555
H20 C7 1_555 1_555
H21 C7 1_555 1_555
C8 N2 1_555 1_555
H22 C8 1_555 1_555
H23 C8 1_555 1_555
C9 C8 1_555 1_555
H24 C9 1_555 1_555
H25 C9 1_555 1_555
C10 N3 1_555 1_555
H26 C10 1_555 1_555
H27 C10 1_555 1_555
O9A C1A 1_555 1_555
O10A Mg1 1_555 1_555
C1A C1 1_555 1_555
O11A C2A 1_555 1_555
O12A Mg1 1_555 1_555
C2A C2 1_555 1_555
O13A C3A 1_555 1_555
O14A Mg2 1_555 1_555
C3A C3 1_555 1_555
O15A C4A 1_555 1_555
O16A Mg2 1_555 1_555
C4A C4 1_555 1_555
Mg1A O1A 1_555 1_555
Mg2A O14 1_555 1_555
P1A O1A 1_555 1_555
P2A O5A 1_555 1_555
O2A Mg2A 1_555 1_555
O3A P1A 1_555 1_555
O4A P1A 1_555 1_555
H1A O4A 1_555 1_555
O5A Mg2A 1_555 1_555
O6A P2A 1_555 1_555
H2A O6A 1_555 1_555
O7A P2A 1_555 1_555
H3A O7A 1_555 1_555
O8A P2A 1_555 1_555
O17A Mg1A 1_555 1_555
H4A O17A 1_555 1_555
H5A O17A 1_555 1_555
Mg1A_2 O10 1_555 1_555
Mg1A_3 O12 1_555 1_555
Mg2A_2 O16 1_555 1_555
O9A_2 Mg1A 1_555 1_555
O10_2 Mg1A 1_555 1_555
O11A_2 Mg1A 1_555 1_555
O12_2 Mg1A 1_555 1_555
O15A_2 Mg2A 1_555 1_555
O16_2 Mg2A 1_555 1_555
C6 C7 1_555 1_555
C9 C10 1_555 1_555
O9A Mg1A_2 1_555 1_555
O10A C1A 1_555 1_555
O11A Mg1A_3 1_555 1_555
O12A C2A 1_555 1_555
O13A Mg2A 1_555 1_555
O14A C3A 1_555 1_555
O15A Mg2A_2 1_555 1_555
O16A C4A 1_555 1_555
P1A O2A 1_555 1_555

#END
