
#######################################################################
#
#                 Cambridge Crystallographic Data Centre
#                                CCDC 
#
#######################################################################
#
# If this CIF has been generated from an entry in the Cambridge 
# Structural Database, then it will include bibliographic, chemical, 
# crystal, experimental, refinement or atomic coordinate data resulting 
# from the CCDC's data processing and validation procedures.
#
#######################################################################

data_DUWTAS
_chemical_formula_moiety         '(C6 H6 Mg2 N2 O14 P2 2-)n'
_symmetry_cell_setting           monoclinic
_symmetry_space_group_name_H-M   'P 21/n'
_symmetry_Int_Tables_number      14
_space_group_name_Hall           '-P 2yn'
loop_
_symmetry_equiv_pos_site_id
_symmetry_equiv_pos_as_xyz
1 x,y,z
2 1/2-x,1/2+y,1/2-z
3 -x,-y,-z
4 1/2+x,1/2-y,1/2+z
_cell_length_a                   5.4134(2)
_cell_length_b                   15.2590(6)
_cell_length_c                   9.0176(4)
_cell_angle_alpha                90
_cell_angle_beta                 94.704(4)
_cell_angle_gamma                90
_cell_volume                     742.372
loop_
_atom_site_label
_atom_site_type_symbol
_atom_site_fract_x
_atom_site_fract_y
_atom_site_fract_z
C2 C 0.359(2) 1.0629(6) 0.5032(15)
C3 C 0.4059(19) 0.9891(6) 0.4633(9)
N1 N 0.3546(11) 1.1521(4) 0.4655(10)
C2B C 0.641(2) 0.9371(6) 0.4968(15)
C3B C 0.5941(19) 1.0109(6) 0.5367(9)
N1B N 0.6454(11) 0.8479(4) 0.5345(10)
Mg1 Mg 0.17920(18) 0.67327(7) 0.49178(11)
P1 P 0.14944(14) 0.81834(5) 0.76618(9)
O1 O 0.1125(4) 0.78509(15) 0.6065(2)
O2 O -0.0516(4) 0.78660(15) 0.8608(3)
O3 O 0.4090(4) 0.79556(16) 0.8310(3)
O4 O 0.1332(4) 0.92252(15) 0.7568(3)
H1 H 0.0159 0.9396 0.8010
O5 O 0.2398(4) 0.54410(14) 0.4084(3)
O6 O 0.0821(4) 0.40806(14) 0.4014(3)
O7 O 0.4550(4) 0.64639(16) 0.6694(3)
H2 H 0.5939 0.6296 0.6423
H3 H 0.4877 0.6912 0.7236
C1 C 0.0932(5) 0.4859(2) 0.4449(3)
O5B O -0.2398(4) 0.45590(14) 0.5916(3)
O6B O -0.0821(4) 0.59194(14) 0.5986(3)
C1B C -0.0932(5) 0.5141(2) 0.5551(3)
Mg1B Mg -0.17920(18) 0.32673(7) 0.50822(11)
P1B P -0.14944(14) 0.18166(5) 0.23382(9)
O1B O -0.1125(4) 0.21491(15) 0.3935(2)
O2B O 0.0516(4) 0.21340(15) 0.1392(3)
O3B O -0.4090(4) 0.20444(16) 0.1690(3)
O4B O -0.1332(4) 0.07748(15) 0.2432(3)
H1B H -0.0159 0.0604 0.1990
O7B O -0.4550(4) 0.35361(16) 0.3306(3)
H2B H -0.5939 0.3704 0.3577
H3B H -0.4877 0.3088 0.2764
Mg1A Mg -0.67920(18) 0.17327(7) 0.00822(11)
Mg1A_2 Mg 0.32080(18) 0.17327(7) 0.00822(11)
Mg1C Mg -0.32080(18) 0.82673(7) 0.99178(11)
Mg1C_2 Mg 0.67920(18) 0.82673(7) 0.99178(11)
O2A O -0.4484(4) 0.28660(15) 0.6392(3)
O2C O 0.4484(4) 0.71340(15) 0.3608(3)
O3A O 0.0910(4) 0.29556(16) 0.6690(3)
O3C O -0.0910(4) 0.70444(16) 0.3310(3)
loop_
_geom_bond_atom_site_label_1
_geom_bond_atom_site_label_2
_geom_bond_site_symmetry_1
_geom_bond_site_symmetry_2
Mg1 O1 1_555 1_555
P1 O1 1_555 1_555
O2 P1 1_555 1_555
O3 P1 1_555 1_555
O4 P1 1_555 1_555
H1 O4 1_555 1_555
O5 Mg1 1_555 1_555
O6 C1 1_555 1_555
O7 Mg1 1_555 1_555
H2 O7 1_555 1_555
H3 O7 1_555 1_555
C1 O5 1_555 1_555
C2 C3 1_555 1_555
C3 C2B 1_555 1_555
N1 C2 1_555 1_555
O5B C1B 1_555 1_555
O6B Mg1 1_555 1_555
C1B C1 1_555 1_555
Mg1B O6 1_555 1_555
P1B O1B 1_555 1_555
O1B Mg1B 1_555 1_555
O2B P1B 1_555 1_555
O3B P1B 1_555 1_555
O4B P1B 1_555 1_555
H1B O4B 1_555 1_555
O7B Mg1B 1_555 1_555
H2B O7B 1_555 1_555
H3B O7B 1_555 1_555
Mg1A O3B 1_555 1_555
Mg1A_2 O2B 1_555 1_555
Mg1C O2 1_555 1_555
Mg1C_2 O3 1_555 1_555
O2A Mg1B 1_555 1_555
O2C Mg1 1_555 1_555
O3A Mg1B 1_555 1_555
O3C Mg1 1_555 1_555
C2B C3B 1_555 1_555
C3B C2 1_555 1_555
N1B C2B 1_555 1_555
C3 C3B 1_555 1_555
O5B Mg1B 1_555 1_555
O6B C1B 1_555 1_555

#END
