
#######################################################################
#
#                 Cambridge Crystallographic Data Centre
#                                CCDC 
#
#######################################################################
#
# If this CIF has been generated from an entry in the Cambridge 
# Structural Database, then it will include bibliographic, chemical, 
# crystal, experimental, refinement or atomic coordinate data resulting 
# from the CCDC's data processing and validation procedures.
#
#######################################################################

data_CIWZIT
_chemical_formula_moiety         '(C76 H122 N32 Ni4 O17 W2)n'
_symmetry_cell_setting           monoclinic
_symmetry_space_group_name_H-M   'P 21/n'
_symmetry_Int_Tables_number      14
_space_group_name_Hall           '-P 2yn'
loop_
_symmetry_equiv_pos_site_id
_symmetry_equiv_pos_as_xyz
1 x,y,z
2 1/2-x,1/2+y,1/2-z
3 -x,-y,-z
4 1/2+x,1/2-y,1/2+z
_cell_length_a                   26.2457(15)
_cell_length_b                   13.9671(8)
_cell_length_c                   29.8116(17)
_cell_angle_alpha                90
_cell_angle_beta                 95.3110(10)
_cell_angle_gamma                90
_cell_volume                     10881.3
loop_
_atom_site_label
_atom_site_type_symbol
_atom_site_fract_x
_atom_site_fract_y
_atom_site_fract_z
_atom_site_U_iso_or_equiv
_atom_site_thermal_displace_type
W1 W 0.321518(10) 0.539231(19) 0.157138(8) 0.0283 Uani
W2 W 0.178159(10) 0.84240(2) -0.151983(9) 0.0334 Uani
Ni1 Ni 0.49901(4) 0.62811(7) 0.24625(4) 0.0473 Uani
Ni2 Ni 0.26628(4) 0.88426(6) 0.21005(3) 0.0390 Uani
Ni3 Ni 0.26218(4) 0.66557(7) -0.00813(3) 0.0436 Uani
Ni4 Ni 0.26689(4) 0.66626(7) -0.27665(4) 0.0501 Uani
N1 N 0.4221(2) 0.6297(5) 0.2174(3) 0.0566 Uani
N2 N 0.2981(3) 0.7666(4) 0.1785(2) 0.0470 Uani
N3 N 0.2885(3) 0.6375(5) 0.0583(2) 0.0513 Uani
N4 N 0.4170(4) 0.5221(13) 0.0941(4) 0.1538 Uani
N5 N 0.3897(3) 0.3589(5) 0.2049(3) 0.0766 Uani
N6 N 0.2815(5) 0.3467(6) 0.0996(3) 0.1024 Uani
N7 N 0.1949(3) 0.5446(7) 0.1438(3) 0.0763 Uani
N8 N 0.5092(3) 0.7631(5) 0.2323(3) 0.0606 Uani
N9 N 0.5253(3) 0.6223(7) 0.1821(3) 0.0680 Uani
N10 N 0.4897(3) 0.4869(6) 0.2569(4) 0.0850 Uani
H1 H 0.4568 0.4735 0.2464 0.1020 Uiso
N11 N 0.4811(3) 0.6899(10) 0.3050(3) 0.0869 Uani
N12 N 0.0749(2) 0.8786(5) -0.2226(2) 0.0526 Uani
N13 N 0.2311(3) 0.9380(4) 0.1552(2) 0.0461 Uani
N14 N 0.2011(3) 0.8063(5) 0.2070(2) 0.0512 Uani
N15 N 0.3018(3) 0.8444(5) 0.2709(2) 0.0569 Uani
H2 H 0.2908 0.8860 0.2914 0.0690 Uiso
N16 N 0.3211(3) 0.9811(5) 0.1899(3) 0.0526 Uani
N17 N 0.2729(3) 0.4925(4) 0.2529(2) 0.0445 Uani
N18 N 0.3315(3) 0.6986(6) -0.0223(2) 0.0549 Uani
N19 N 0.2639(3) 0.8102(5) 0.0052(2) 0.0581 Uani
N20 N 0.1901(3) 0.6314(6) 0.0058(2) 0.0616 Uani
H3 H 0.1705 0.6374 -0.0209 0.0740 Uiso
N21 N 0.2901(4) 0.5317(5) -0.0226(2) 0.0617 Uani
N22 N 0.2326(3) 0.6982(5) -0.0744(2) 0.0499 Uani
N23 N 0.1987(4) 1.0001(6) -0.0701(3) 0.0913 Uani
N24 N 0.0831(4) 0.8315(9) -0.0872(3) 0.1018 Uani
N25 N 0.3036(3) 0.8804(7) -0.1441(3) 0.0789 Uani
N26 N 0.1247(4) 0.6282(6) -0.1692(3) 0.0819 Uani
N27 N 0.2213(3) 0.7717(5) -0.2472(2) 0.0538 Uani
N28 N 0.3284(4) 0.7383(7) -0.2620(4) 0.0917 Uani
N29 N 0.2737(5) 0.7470(8) -0.3380(4) 0.0919 Uani
N30 N 0.2822(5) 0.6168(8) -0.2156(4) 0.1007 Uani
N31 N 0.2036(4) 0.5911(9) -0.3011(5) 0.1087 Uani
H4 H 0.2165 0.5371 -0.3129 0.1310 Uiso
N32 N 0.1915(3) 1.0529(5) -0.1980(3) 0.0623 Uani
C1 C 0.3861(3) 0.6013(5) 0.1977(3) 0.0390 Uani
C2 C 0.3050(3) 0.6861(5) 0.1703(2) 0.0349 Uani
C3 C 0.3011(3) 0.6037(5) 0.0923(2) 0.0377 Uani
C4 C 0.3838(4) 0.5270(8) 0.1161(3) 0.0706 Uani
C5 C 0.3655(3) 0.4194(5) 0.1877(3) 0.0479 Uani
C6 C 0.2962(4) 0.4129(5) 0.1197(3) 0.0581 Uani
C7 C 0.2387(3) 0.5442(6) 0.1485(2) 0.0459 Uani
C8 C 0.2925(3) 0.5113(5) 0.2218(2) 0.0327 Uani
C9 C 0.5022(4) 0.8261(8) 0.2638(5) 0.0777 Uani
C10 C 0.5090(5) 0.9254(9) 0.2554(7) 0.1091 Uani
H5 H 0.5060 0.9734 0.2766 0.1310 Uiso
C11 C 0.5209(7) 0.9420(13) 0.2110(10) 0.1540 Uani
H6 H 0.5248 1.0057 0.2029 0.1850 Uiso
C12 C 0.5275(5) 0.8750(11) 0.1778(6) 0.1097 Uani
H7 H 0.5346 0.8916 0.1489 0.1320 Uiso
C13 C 0.5229(4) 0.7853(8) 0.1911(4) 0.0756 Uani
C14 C 0.5337(4) 0.7008(10) 0.1648(4) 0.0812 Uani
C15 C 0.5556(7) 0.7177(15) 0.1203(5) 0.1595 Uani
H8 H 0.5905 0.6964 0.1223 0.2400 Uiso
H9 H 0.5542 0.7849 0.1133 0.2400 Uiso
H10 H 0.5359 0.6828 0.0970 0.2400 Uiso
C16 C 0.5379(5) 0.5296(10) 0.1619(5) 0.0987 Uani
H11 H 0.5283 0.5323 0.1297 0.1190 Uiso
H12 H 0.5746 0.5200 0.1664 0.1190 Uiso
C17 C 0.5125(5) 0.4472(9) 0.1806(6) 0.1050 Uani
H13 H 0.5228 0.3904 0.1650 0.1260 Uiso
H14 H 0.4759 0.4547 0.1732 0.1260 Uiso
C18 C 0.5215(5) 0.4279(8) 0.2309(6) 0.1116 Uani
H15 H 0.5144 0.3610 0.2365 0.1340 Uiso
H16 H 0.5571 0.4398 0.2408 0.1340 Uiso
C19 C 0.4932(5) 0.4670(11) 0.3042(5) 0.1178 Uani
H17 H 0.5280 0.4788 0.3171 0.1410 Uiso
H18 H 0.4856 0.3999 0.3088 0.1410 Uiso
C20 C 0.4568(6) 0.5278(15) 0.3283(5) 0.1369 Uani
H19 H 0.4499 0.4938 0.3555 0.1630 Uiso
H20 H 0.4248 0.5306 0.3093 0.1630 Uiso
C21 C 0.4718(5) 0.6343(14) 0.3425(5) 0.1286 Uani
H21 H 0.4442 0.6629 0.3574 0.1560 Uiso
H22 H 0.5021 0.6335 0.3636 0.1560 Uiso
C22 C 0.4889(4) 0.7836(10) 0.3061(5) 0.0828 Uani
C23 C 0.4879(6) 0.8376(13) 0.3482(5) 0.1472 Uani
H23 H 0.4544 0.8336 0.3586 0.2210 Uiso
H24 H 0.4962 0.9034 0.3431 0.2210 Uiso
H25 H 0.5126 0.8111 0.3706 0.2210 Uiso
C24 C 0.1843(3) 0.9122(6) 0.1456(3) 0.0512 Uani
C25 C 0.1533(4) 0.9635(9) 0.1117(4) 0.0801 Uani
H26 H 0.1196 0.9460 0.1031 0.0960 Uiso
C26 C 0.1755(5) 1.0388(9) 0.0927(4) 0.0877 Uani
H27 H 0.1559 1.0739 0.0710 0.1050 Uiso
C27 C 0.2247(5) 1.0666(8) 0.1033(3) 0.0790 Uani
H28 H 0.2387 1.1190 0.0896 0.0950 Uiso
C28 C 0.2534(4) 1.0120(5) 0.1363(3) 0.0555 Uani
C29 C 0.3075(4) 1.0282(6) 0.1550(3) 0.0603 Uani
C30 C 0.3396(5) 1.0978(8) 0.1321(4) 0.0880 Uani
H29 H 0.3745 1.0761 0.1347 0.1320 Uiso
H30 H 0.3379 1.1594 0.1461 0.1320 Uiso
H31 H 0.3272 1.1026 0.1009 0.1320 Uiso
C31 C 0.3724(4) 0.9837(8) 0.2129(4) 0.0722 Uani
H32 H 0.3865 1.0475 0.2105 0.0870 Uiso
H33 H 0.3942 0.9396 0.1983 0.0870 Uiso
C32 C 0.3727(4) 0.9574(8) 0.2617(4) 0.0836 Uani
H34 H 0.3497 1.0008 0.2752 0.1010 Uiso
H35 H 0.4068 0.9695 0.2760 0.1010 Uiso
C33 C 0.3578(4) 0.8547(7) 0.2737(4) 0.0737 Uani
H36 H 0.3718 0.8100 0.2532 0.0880 Uiso
H37 H 0.3722 0.8396 0.3040 0.0880 Uiso
C34 C 0.2849(5) 0.7479(6) 0.2843(3) 0.0730 Uani
H38 H 0.2983 0.7004 0.2647 0.0880 Uiso
H39 H 0.2993 0.7347 0.3148 0.0880 Uiso
C35 C 0.2290(4) 0.7379(6) 0.2821(3) 0.0694 Uani
H40 H 0.2162 0.7934 0.2970 0.0840 Uiso
H41 H 0.2220 0.6826 0.3002 0.0840 Uiso
C36 C 0.1963(4) 0.7271(7) 0.2367(4) 0.0720 Uani
H42 H 0.2063 0.6689 0.2221 0.0870 Uiso
H43 H 0.1606 0.7205 0.2424 0.0870 Uiso
C37 C 0.1688(3) 0.8298(7) 0.1739(4) 0.0619 Uani
C38 C 0.1198(4) 0.7773(10) 0.1610(5) 0.1133 Uani
H44 H 0.1273 0.7129 0.1526 0.1700 Uiso
H45 H 0.1012 0.8092 0.1361 0.1700 Uiso
H46 H 0.0994 0.7763 0.1862 0.1700 Uiso
C39 C 0.3452(4) 0.7885(8) -0.0198(3) 0.0705 Uani
C40 C 0.3946(5) 0.8111(12) -0.0304(5) 0.1119 Uani
H47 H 0.4062 0.8741 -0.0294 0.1340 Uiso
C41 C 0.4245(6) 0.7405(18) -0.0420(6) 0.1463 Uani
H48 H 0.4572 0.7562 -0.0492 0.1740 Uiso
C42 C 0.4103(5) 0.6453(14) -0.0440(5) 0.1195 Uani
H49 H 0.4321 0.5973 -0.0524 0.1440 Uiso
C43 C 0.3615(4) 0.6264(8) -0.0328(3) 0.0699 Uani
C44 C 0.3361(5) 0.5312(8) -0.0310(3) 0.0775 Uani
C45 C 0.3670(7) 0.4422(10) -0.0388(6) 0.1448 Uani
H50 H 0.3442 0.3909 -0.0485 0.2180 Uiso
H51 H 0.3866 0.4245 -0.0113 0.2180 Uiso
H52 H 0.3897 0.4549 -0.0616 0.2180 Uiso
C46 C 0.2608(6) 0.4455(7) -0.0143(4) 0.1010 Uani
H53 H 0.2735 0.4188 0.0146 0.1210 Uiso
H54 H 0.2663 0.3983 -0.0373 0.1210 Uiso
C47 C 0.2043(6) 0.4633(9) -0.0143(4) 0.0967 Uani
H55 H 0.1881 0.4019 -0.0099 0.1160 Uiso
H56 H 0.1920 0.4853 -0.0442 0.1160 Uiso
C48 C 0.1847(5) 0.5325(9) 0.0190(4) 0.0914 Uani
H57 H 0.1489 0.5192 0.0219 0.1100 Uiso
H58 H 0.2034 0.5226 0.0483 0.1100 Uiso
C49 C 0.1709(4) 0.7045(9) 0.0354(4) 0.0797 Uani
H59 H 0.1359 0.6889 0.0405 0.0960 Uiso
H60 H 0.1911 0.7019 0.0643 0.0960 Uiso
C50 C 0.1723(5) 0.8019(9) 0.0182(4) 0.0889 Uani
H61 H 0.1464 0.8385 0.0318 0.1060 Uiso
H62 H 0.1622 0.7996 -0.0139 0.1060 Uiso
C51 C 0.2224(5) 0.8577(8) 0.0251(3) 0.0772 Uani
H63 H 0.2174 0.9208 0.0118 0.0930 Uiso
H64 H 0.2316 0.8659 0.0571 0.0930 Uiso
C52 C 0.3052(5) 0.8524(7) -0.0042(3) 0.0705 Uani
C53 C 0.3165(6) 0.9576(8) 0.0005(6) 0.1216 Uani
H65 H 0.2906 0.9879 0.0162 0.1830 Uiso
H66 H 0.3169 0.9857 -0.0289 0.1830 Uiso
H67 H 0.3493 0.9664 0.0171 0.1830 Uiso
C54 C 0.2133(3) 0.7469(5) -0.1015(2) 0.0399 Uani
C55 C 0.1923(4) 0.9443(6) -0.0976(3) 0.0570 Uani
C56 C 0.1165(3) 0.8368(7) -0.1094(3) 0.0567 Uani
C57 C 0.2603(3) 0.8669(6) -0.1469(3) 0.0496 Uani
C58 C 0.1442(3) 0.7021(6) -0.1644(3) 0.0515 Uani
C59 C 0.1108(3) 0.8674(5) -0.1979(2) 0.0373 Uani
C60 C 0.2063(3) 0.7947(5) -0.2140(3) 0.0414 Uani
C61 C 0.3505(5) 0.7201(10) -0.2239(5) 0.0968 Uani
C62 C 0.4000(6) 0.7672(11) -0.2087(6) 0.1123 Uani
H68 H 0.4166 0.7626 -0.1798 0.1350 Uiso
C63 C 0.4168(6) 0.8162(11) -0.2418(7) 0.1122 Uani
H69 H 0.4479 0.8468 -0.2343 0.1340 Uiso
C64 C 0.3962(6) 0.8314(11) -0.2875(6) 0.1127 Uani
H70 H 0.4118 0.8650 -0.3095 0.1350 Uiso
C65 C 0.3482(5) 0.7865(7) -0.2931(5) 0.0899 Uani
C66 C 0.3109(7) 0.7858(13) -0.3338(6) 0.1171 Uani
C67 C 0.3307(7) 0.8466(13) -0.3745(6) 0.1533 Uani
H71 H 0.3355 0.8046 -0.3993 0.2300 Uiso
H72 H 0.3625 0.8771 -0.3646 0.2300 Uiso
H73 H 0.3057 0.8945 -0.3841 0.2300 Uiso
C68 C 0.2322(8) 0.7385(18) -0.3730(6) 0.1567 Uani
H74 H 0.2111 0.7950 -0.3707 0.1890 Uiso
H75 H 0.2475 0.7441 -0.4013 0.1890 Uiso
C69 C 0.1990(9) 0.6620(16) -0.3778(8) 0.1700 Uani
H76 H 0.2179 0.6076 -0.3878 0.2040 Uiso
H77 H 0.1729 0.6773 -0.4019 0.2040 Uiso
C70 C 0.1717(7) 0.6298(13) -0.3369(6) 0.1338 Uani
H78 H 0.1539 0.6844 -0.3257 0.1610 Uiso
H79 H 0.1462 0.5823 -0.3469 0.1610 Uiso
C71 C 0.1731(6) 0.5565(11) -0.2676(6) 0.1134 Uani
H80 H 0.1473 0.5126 -0.2808 0.1360 Uiso
H81 H 0.1559 0.6093 -0.2541 0.1360 Uiso
C72 C 0.2084(7) 0.5055(10) -0.2321(7) 0.1413 Uani
H82 H 0.2275 0.4597 -0.2484 0.1710 Uiso
H83 H 0.1863 0.4682 -0.2145 0.1710 Uiso
C73 C 0.2501(6) 0.5565(11) -0.1959(6) 0.1195 Uani
H84 H 0.2321 0.5924 -0.1744 0.1440 Uiso
H85 H 0.2701 0.5074 -0.1794 0.1440 Uiso
C74 C 0.3253(5) 0.6551(9) -0.1926(5) 0.0889 Uani
C75 C 0.3384(8) 0.6392(13) -0.1467(5) 0.1645 Uani
H86 H 0.3433 0.6995 -0.1315 0.2470 Uiso
H87 H 0.3694 0.6026 -0.1428 0.2470 Uiso
H88 H 0.3114 0.6045 -0.1343 0.2470 Uiso
C76 C 0.1850(3) 0.9795(5) -0.1828(3) 0.0410 Uani
Ni1C Ni -0.00099(4) 0.87189(7) -0.25375(4) 0.0473 Uani
Ni2A Ni 0.23372(4) 0.38426(6) 0.28995(3) 0.0390 Uani
Ni4A Ni 0.23311(4) 1.16626(7) -0.22335(4) 0.0501 Uani
N12C N 0.5749(2) 0.6214(5) 0.2774(2) 0.0526 Uani
N17A N 0.2271(3) 0.9925(4) 0.2471(2) 0.0445 Uani
N32A N 0.3085(3) 0.5529(5) -0.3020(3) 0.0623 Uani
O1 O 0.0285(6) 0.2449(13) 0.8800(6) 0.2267 Uani
H89 H 0.0439 0.3076 0.8940 0.2740 Uiso
H90 H 0.0490 0.1918 0.8871 0.2740 Uiso
O2 O 0.4285(11) 0.890(4) 0.0893(8) 0.5768 Uani
H91 H 0.4417 0.9339 0.1086 0.6940 Uiso
H92 H 0.4114 0.9305 0.0670 0.6940 Uiso
O3 O 0.3930(11) 0.791(2) 0.1066(9) 0.1907 Uani
H93 H 0.3838 0.7438 0.0901 0.2330 Uiso
H94 H 0.3807 0.7837 0.1318 0.2330 Uiso
O4 O 0.4506(3) 0.1908(6) 0.2238(4) 0.1004 Uani
H95 H 0.4590 0.2396 0.2399 0.3000 Uiso
H96 H 0.4609 0.2000 0.1980 0.2700 Uiso
O5 O 0.4125(3) 0.9368(7) 0.8742(4) 0.1211 Uani
H97 H 0.3733 0.9349 0.8710 0.1450 Uiso
H98 H 0.4091 0.9764 0.8965 0.1450 Uiso
O6 O 0.5217(4) 0.8736(7) 0.6868(4) 0.1336 Uani
H99 H 0.5240 0.8303 0.6671 0.1600 Uiso
H100 H 0.5383 0.8549 0.7110 0.1600 Uiso
O7 O 0.2993(5) 0.2143(7) 0.0263(4) 0.1498 Uani
H101 H 0.3203 0.1702 0.0210 0.1800 Uiso
H102 H 0.3141 0.2509 0.0463 0.1800 Uiso
O8 O 0.0863(4) 0.5388(8) 0.1252(4) 0.1450 Uani
H103 H 0.1194 0.5426 0.1259 0.1740 Uiso
H104 H 0.0756 0.5715 0.1008 0.1740 Uiso
O9 O 0.2084(7) 0.1716(9) 0.9815(5) 0.2081 Uani
H105 H 0.2390 0.1919 0.9825 0.2500 Uiso
H106 H 0.2027 0.1382 0.9577 0.2500 Uiso
O10 O 0.1669(7) 0.3308(10) 0.0981(5) 0.2202 Uani
H107 H 0.1636 0.3038 0.1233 0.2640 Uiso
H108 H 0.1954 0.3602 0.1005 0.2640 Uiso
O11 O 0.5077(5) 0.8406(12) 0.8595(5) 0.2079 Uani
H109 H 0.4802 0.8731 0.8567 0.2490 Uiso
H110 H 0.5020 0.7904 0.8745 0.2490 Uiso
O12 O 0.0947(7) 0.566(2) 0.9190(8) 0.3864 Uani
H111 H 0.1169 0.5325 0.9346 0.4610 Uiso
H112 H 0.0819 0.6051 0.9367 0.4610 Uiso
O13 O 0.4407(8) 0.0576(13) 0.9460(7) 0.1347 Uani
H113 H 0.4564 0.0326 0.9710 0.1620 Uiso
H114 H 0.4616 0.0627 0.9276 0.1620 Uiso
O14 O 0.4973(6) 0.5343(18) 0.0422(5) 0.2906 Uani
H115 H 0.4716 0.5308 0.0576 0.3470 Uiso
H116 H 0.5020 0.5930 0.0364 0.3470 Uiso
O15 O 0.6463(9) 0.614(3) 0.1938(10) 0.4953 Uani
H117 H 0.6392 0.6687 0.1828 0.5940 Uiso
H118 H 0.6434 0.6163 0.2220 0.5940 Uiso
O16 O 0.0991(15) 0.110(2) 0.8847(14) 0.6804 Uani
H119 H 0.1088 0.0868 0.8605 0.8160 Uiso
H120 H 0.1138 0.0782 0.9066 0.8160 Uiso
O17 O 0.5577(9) 0.7037(13) 0.9156(8) 0.3083 Uani
H121 H 0.5699 0.7048 0.9430 0.3710 Uiso
H122 H 0.5728 0.6591 0.9025 0.3710 Uiso
loop_
_atom_site_aniso_label
_atom_site_aniso_U_11
_atom_site_aniso_U_22
_atom_site_aniso_U_33
_atom_site_aniso_U_23
_atom_site_aniso_U_13
_atom_site_aniso_U_12
W1 0.03123(16) 0.02873(15) 0.02488(14) -0.00069(10) 0.00158(10) 0.00360(11)
W2 0.03310(17) 0.03343(17) 0.03318(16) 0.00505(11) 0.00068(12) -0.00061(11)
Ni1 0.0322(5) 0.0426(6) 0.0655(7) -0.0016(5) -0.0047(5) -0.0013(4)
Ni2 0.0515(6) 0.0313(5) 0.0346(5) -0.0005(4) 0.0060(4) 0.0084(4)
Ni3 0.0564(6) 0.0464(6) 0.0279(5) 0.0059(4) 0.0035(4) 0.0071(5)
Ni4 0.0499(6) 0.0361(5) 0.0653(7) -0.0097(5) 0.0113(5) 0.0028(4)
N1 0.032(4) 0.051(4) 0.085(5) -0.009(4) -0.005(4) 0.003(3)
N2 0.058(4) 0.033(3) 0.050(4) -0.003(3) 0.005(3) 0.014(3)
N3 0.065(5) 0.059(4) 0.029(3) 0.006(3) 0.000(3) 0.003(3)
N4 0.080(7) 0.31(2) 0.078(7) 0.024(9) 0.043(6) 0.071(10)
N5 0.068(5) 0.048(5) 0.113(7) 0.021(4) 0.004(5) 0.019(4)
N6 0.162(10) 0.054(5) 0.082(6) -0.018(5) -0.038(7) 0.000(6)
N7 0.040(5) 0.139(8) 0.049(4) 0.000(5) -0.001(3) -0.001(5)
N8 0.041(4) 0.054(4) 0.083(6) -0.007(4) -0.014(4) 0.003(3)
N9 0.043(4) 0.089(6) 0.070(5) -0.006(5) -0.005(4) 0.004(4)
N10 0.065(6) 0.059(5) 0.127(9) 0.013(5) -0.012(5) -0.004(4)
N11 0.035(4) 0.167(10) 0.058(5) -0.013(6) 0.001(4) -0.005(5)
N12 0.034(4) 0.059(4) 0.064(5) 0.006(3) 0.000(3) 0.002(3)
N13 0.059(4) 0.042(4) 0.039(3) -0.004(3) 0.013(3) 0.010(3)
N14 0.048(4) 0.043(4) 0.065(5) -0.014(3) 0.018(4) -0.005(3)
N15 0.065(5) 0.055(4) 0.050(4) -0.012(3) 0.001(4) 0.016(4)
N16 0.053(4) 0.046(4) 0.061(5) -0.014(3) 0.017(4) 0.000(3)
N17 0.057(4) 0.035(3) 0.042(4) 0.008(3) 0.007(3) -0.008(3)
N18 0.053(4) 0.071(5) 0.041(4) 0.016(3) 0.006(3) 0.011(4)
N19 0.085(6) 0.047(4) 0.042(4) -0.001(3) 0.005(4) 0.010(4)
N20 0.067(5) 0.070(5) 0.048(4) -0.001(4) 0.006(4) -0.005(4)
N21 0.093(6) 0.058(5) 0.032(4) 0.001(3) -0.006(4) 0.025(4)
N22 0.063(4) 0.051(4) 0.035(3) 0.007(3) 0.000(3) 0.008(3)
N23 0.152(10) 0.061(5) 0.061(5) -0.018(4) 0.011(6) -0.019(6)
N24 0.063(6) 0.183(12) 0.062(6) -0.003(6) 0.019(5) 0.006(6)
N25 0.053(5) 0.087(6) 0.096(7) 0.015(5) 0.003(4) -0.004(4)
N26 0.101(7) 0.049(5) 0.096(7) 0.006(4) 0.010(5) -0.023(5)
N27 0.068(5) 0.043(4) 0.053(4) 0.005(3) 0.020(4) 0.015(3)
N28 0.076(6) 0.074(6) 0.125(9) -0.026(6) 0.008(7) -0.001(5)
N29 0.092(8) 0.080(7) 0.106(8) 0.007(6) 0.022(7) 0.013(6)
N30 0.111(9) 0.099(8) 0.094(8) 0.002(6) 0.020(7) 0.018(7)
N31 0.089(8) 0.104(8) 0.133(10) -0.035(8) 0.009(8) -0.012(7)
N32 0.061(5) 0.047(4) 0.077(5) 0.019(4) -0.004(4) -0.006(4)
C1 0.029(4) 0.031(4) 0.057(5) -0.002(3) 0.004(3) 0.001(3)
C2 0.034(4) 0.036(4) 0.035(4) 0.006(3) 0.004(3) 0.003(3)
C3 0.045(4) 0.040(4) 0.029(4) -0.001(3) 0.008(3) 0.000(3)
C4 0.052(5) 0.117(9) 0.044(5) 0.013(5) 0.011(4) 0.031(5)
C5 0.042(4) 0.034(4) 0.066(5) 0.003(4) -0.004(4) 0.002(4)
C6 0.090(7) 0.028(4) 0.052(5) -0.008(4) -0.017(5) 0.007(4)
C7 0.041(5) 0.067(5) 0.029(4) 0.000(3) -0.001(3) -0.008(4)
C8 0.042(4) 0.028(3) 0.028(4) 0.003(3) 0.002(3) -0.003(3)
C9 0.044(5) 0.067(7) 0.116(10) -0.034(7) -0.025(6) 0.010(5)
C10 0.069(8) 0.058(8) 0.194(17) -0.029(9) -0.021(10) 0.006(6)
C11 0.090(12) 0.085(12) 0.28(3) 0.045(16) -0.021(16) -0.017(9)
C12 0.080(9) 0.084(9) 0.160(15) 0.048(10) -0.016(9) -0.010(8)
C13 0.047(5) 0.080(8) 0.097(8) 0.027(6) -0.008(5) -0.008(5)
C14 0.061(7) 0.097(9) 0.085(8) 0.009(7) 0.003(6) -0.003(6)
C15 0.166(17) 0.23(2) 0.086(10) 0.030(12) 0.031(11) -0.041(15)
C16 0.071(8) 0.117(11) 0.106(10) -0.050(8) -0.003(7) 0.006(7)
C17 0.062(7) 0.083(9) 0.165(14) -0.047(9) -0.016(8) 0.008(6)
C18 0.084(8) 0.042(6) 0.199(16) -0.017(8) -0.039(10) 0.011(6)
C19 0.069(8) 0.150(14) 0.133(12) 0.075(11) 0.002(8) -0.019(8)
C20 0.080(10) 0.22(2) 0.110(12) 0.078(13) 0.005(9) -0.034(12)
C21 0.076(9) 0.24(2) 0.070(8) 0.027(11) 0.008(7) -0.040(11)
C22 0.037(5) 0.100(9) 0.107(10) -0.058(8) -0.017(5) 0.018(5)
C23 0.091(10) 0.202(18) 0.142(14) -0.097(13) -0.025(9) 0.048(10)
C24 0.047(5) 0.058(5) 0.049(5) -0.016(4) 0.007(4) 0.013(4)
C25 0.063(7) 0.110(9) 0.066(7) -0.024(6) -0.001(5) 0.019(6)
C26 0.104(10) 0.100(9) 0.058(6) 0.017(6) 0.001(6) 0.042(8)
C27 0.113(10) 0.073(7) 0.052(6) 0.016(5) 0.013(6) 0.028(7)
C28 0.089(7) 0.032(4) 0.049(5) 0.004(3) 0.025(5) 0.022(4)
C29 0.076(7) 0.047(5) 0.062(6) -0.006(4) 0.029(5) 0.005(5)
C30 0.113(9) 0.065(7) 0.093(8) 0.011(6) 0.047(7) -0.012(6)
C31 0.054(6) 0.075(7) 0.089(8) -0.026(6) 0.014(5) -0.005(5)
C32 0.054(6) 0.100(9) 0.095(9) -0.041(7) -0.003(6) 0.006(6)
C33 0.069(7) 0.078(7) 0.070(6) -0.019(5) -0.015(5) 0.028(5)
C34 0.114(9) 0.049(5) 0.058(6) 0.020(4) 0.019(6) 0.021(5)
C35 0.117(9) 0.037(5) 0.060(6) 0.015(4) 0.039(6) 0.002(5)
C36 0.082(7) 0.048(5) 0.092(8) -0.006(5) 0.040(6) -0.003(5)
C37 0.038(5) 0.069(6) 0.080(7) -0.037(5) 0.013(5) 0.000(4)
C38 0.060(7) 0.113(10) 0.168(14) -0.031(10) 0.016(8) -0.022(7)
C39 0.070(7) 0.082(7) 0.060(6) 0.025(5) 0.008(5) -0.010(6)
C40 0.077(9) 0.135(12) 0.124(12) 0.040(10) 0.011(8) -0.022(9)
C41 0.056(9) 0.22(2) 0.169(17) 0.012(16) 0.043(9) 0.000(12)
C42 0.068(9) 0.167(16) 0.128(13) 0.025(12) 0.033(8) 0.022(10)
C43 0.074(7) 0.094(8) 0.043(5) 0.008(5) 0.012(5) 0.022(6)
C44 0.081(8) 0.097(9) 0.052(6) -0.016(5) -0.007(5) 0.047(7)
C45 0.172(16) 0.109(11) 0.150(14) -0.015(10) -0.004(12) 0.086(11)
C46 0.177(15) 0.043(6) 0.079(8) -0.006(5) -0.009(9) 0.001(7)
C47 0.132(12) 0.082(8) 0.074(8) -0.006(6) -0.001(8) -0.034(8)
C48 0.102(9) 0.101(9) 0.071(7) 0.018(7) 0.007(7) -0.034(7)
C49 0.070(7) 0.105(9) 0.066(7) -0.003(6) 0.016(5) 0.000(6)
C50 0.085(8) 0.106(9) 0.075(7) -0.022(7) 0.004(6) 0.032(7)
C51 0.104(9) 0.078(7) 0.050(6) -0.006(5) 0.009(6) 0.027(6)
C52 0.094(8) 0.051(5) 0.063(6) 0.011(4) -0.011(6) -0.007(5)
C53 0.120(12) 0.064(8) 0.178(16) 0.005(8) -0.001(11) -0.014(7)
C54 0.048(4) 0.043(4) 0.029(4) 0.007(3) 0.005(3) -0.004(3)
C55 0.076(6) 0.046(5) 0.048(5) 0.001(4) 0.001(4) -0.001(4)
C56 0.039(5) 0.092(7) 0.040(4) 0.003(4) 0.009(4) -0.003(4)
C57 0.029(4) 0.056(5) 0.062(5) 0.009(4) -0.005(4) -0.003(4)
C58 0.061(5) 0.042(5) 0.051(5) 0.009(4) 0.002(4) -0.006(4)
C59 0.028(4) 0.035(4) 0.048(4) 0.005(3) -0.002(3) 0.001(3)
C60 0.050(5) 0.028(4) 0.047(5) 0.006(3) 0.008(4) 0.000(3)
C61 0.088(9) 0.097(10) 0.104(10) -0.034(8) 0.002(8) 0.049(8)
C62 0.087(10) 0.114(12) 0.132(13) -0.023(10) -0.010(9) 0.034(9)
C63 0.087(10) 0.108(11) 0.140(14) -0.025(10) 0.002(10) 0.013(8)
C64 0.092(10) 0.108(11) 0.139(14) -0.019(9) 0.016(10) 0.014(8)
C65 0.094(9) 0.042(5) 0.146(12) -0.009(6) 0.077(9) -0.002(6)
C66 0.092(11) 0.117(13) 0.143(15) -0.030(11) 0.015(11) 0.027(10)
C67 0.157(16) 0.161(17) 0.150(16) 0.026(13) 0.057(14) 0.019(13)
C68 0.130(15) 0.23(2) 0.106(12) -0.072(15) -0.011(11) 0.057(16)
C69 0.16(2) 0.17(2) 0.18(2) -0.024(17) 0.015(18) 0.023(15)
C70 0.131(14) 0.146(15) 0.121(14) -0.022(11) -0.007(12) 0.013(12)
C71 0.103(11) 0.091(10) 0.151(14) -0.019(9) 0.038(11) -0.014(9)
C72 0.152(15) 0.060(8) 0.23(2) -0.017(11) 0.115(16) -0.028(9)
C73 0.131(13) 0.093(10) 0.141(14) 0.001(9) 0.047(11) -0.005(9)
C74 0.095(9) 0.077(8) 0.094(9) -0.023(7) 0.005(8) 0.034(7)
C75 0.22(2) 0.163(16) 0.104(12) -0.004(11) -0.020(12) 0.123(15)
C76 0.035(4) 0.044(4) 0.043(4) 0.003(3) -0.002(3) -0.003(3)
Ni1C 0.0322 0.0426 0.0655 0.0016 -0.0047 0.0013
Ni2A 0.0515 0.0313 0.0346 0.0005 0.006 -0.0084
Ni4A 0.0499 0.0361 0.0653 0.0097 0.0113 -0.0028
N12C 0.034 0.059 0.064 -0.006 0 -0.002
N17A 0.057 0.035 0.042 -0.008 0.007 0.008
N32A 0.061 0.047 0.077 -0.019 -0.004 0.006
O1 0.197(15) 0.28(2) 0.202(15) -0.039(14) 0.012(12) 0.047(14)
O2 0.31(3) 1.21(11) 0.18(2) -0.18(4) -0.14(2) 0.41(5)
O3 0.19(3) 0.25(3) 0.14(2) -0.01(2) 0.058(19) -0.16(3)
O4 0.078(5) 0.062(5) 0.160(9) 0.008(5) 0.004(6) 0.008(4)
O5 0.070(5) 0.138(8) 0.154(9) 0.027(7) 0.003(5) -0.007(5)
O6 0.120(8) 0.121(8) 0.160(10) -0.022(7) 0.014(7) 0.011(6)
O7 0.234(13) 0.085(7) 0.128(8) -0.023(6) 0.004(8) 0.025(7)
O8 0.079(6) 0.181(11) 0.169(10) 0.022(8) -0.021(6) -0.027(6)
O9 0.32(2) 0.126(10) 0.176(13) -0.087(9) 0.011(13) -0.015(11)
O10 0.272(19) 0.200(14) 0.180(14) 0.037(11) -0.025(13) -0.085(13)
O11 0.136(10) 0.292(19) 0.199(14) 0.055(13) 0.033(10) 0.075(11)
O12 0.24(2) 0.56(4) 0.38(3) 0.35(3) 0.14(2) 0.16(2)
O13 0.18(2) 0.114(14) 0.120(15) -0.039(12) 0.067(15) -0.065(14)
O14 0.148(12) 0.57(4) 0.153(13) 0.016(17) 0.010(10) 0.114(18)
O15 0.23(3) 0.93(8) 0.31(3) 0.01(4) -0.06(2) -0.04(4)
O16 0.66(6) 0.52(5) 0.75(7) -0.39(5) -0.53(6) 0.46(5)
O17 0.38(3) 0.180(16) 0.34(3) -0.029(16) -0.10(2) 0.095(18)
loop_
_geom_bond_atom_site_label_1
_geom_bond_atom_site_label_2
_geom_bond_site_symmetry_1
_geom_bond_site_symmetry_2
W1 C1 1_555 1_555
W2 C54 1_555 1_555
Ni1 N1 1_555 1_555
Ni2 N2 1_555 1_555
Ni3 N3 1_555 1_555
Ni4 N27 1_555 1_555
N1 C1 1_555 1_555
N2 C2 1_555 1_555
N3 C3 1_555 1_555
N4 C4 1_555 1_555
N5 C5 1_555 1_555
N6 C6 1_555 1_555
N7 C7 1_555 1_555
N8 Ni1 1_555 1_555
N9 Ni1 1_555 1_555
N10 Ni1 1_555 1_555
H1 N10 1_555 1_555
N11 Ni1 1_555 1_555
N12 C59 1_555 1_555
N13 Ni2 1_555 1_555
N14 Ni2 1_555 1_555
N15 Ni2 1_555 1_555
H2 N15 1_555 1_555
N16 Ni2 1_555 1_555
N17 C8 1_555 1_555
N18 Ni3 1_555 1_555
N19 Ni3 1_555 1_555
N20 Ni3 1_555 1_555
H3 N20 1_555 1_555
N21 Ni3 1_555 1_555
N22 Ni3 1_555 1_555
N23 C55 1_555 1_555
N24 C56 1_555 1_555
N25 C57 1_555 1_555
N26 C58 1_555 1_555
N27 C60 1_555 1_555
N28 Ni4 1_555 1_555
N29 Ni4 1_555 1_555
N30 Ni4 1_555 1_555
N31 Ni4 1_555 1_555
H4 N31 1_555 1_555
N32 C76 1_555 1_555
C2 W1 1_555 1_555
C3 W1 1_555 1_555
C4 W1 1_555 1_555
C5 W1 1_555 1_555
C6 W1 1_555 1_555
C7 W1 1_555 1_555
C8 W1 1_555 1_555
C9 N8 1_555 1_555
C10 C9 1_555 1_555
H5 C10 1_555 1_555
C11 C10 1_555 1_555
H6 C11 1_555 1_555
C12 C11 1_555 1_555
H7 C12 1_555 1_555
C13 N8 1_555 1_555
C14 N9 1_555 1_555
C15 C14 1_555 1_555
H8 C15 1_555 1_555
H9 C15 1_555 1_555
H10 C15 1_555 1_555
C16 N9 1_555 1_555
H11 C16 1_555 1_555
H12 C16 1_555 1_555
C17 C16 1_555 1_555
H13 C17 1_555 1_555
H14 C17 1_555 1_555
C18 N10 1_555 1_555
H15 C18 1_555 1_555
H16 C18 1_555 1_555
C19 N10 1_555 1_555
H17 C19 1_555 1_555
H18 C19 1_555 1_555
C20 C19 1_555 1_555
H19 C20 1_555 1_555
H20 C20 1_555 1_555
C21 N11 1_555 1_555
H21 C21 1_555 1_555
H22 C21 1_555 1_555
C22 N11 1_555 1_555
C23 C22 1_555 1_555
H23 C23 1_555 1_555
H24 C23 1_555 1_555
H25 C23 1_555 1_555
C24 N13 1_555 1_555
C25 C24 1_555 1_555
H26 C25 1_555 1_555
C26 C25 1_555 1_555
H27 C26 1_555 1_555
C27 C26 1_555 1_555
H28 C27 1_555 1_555
C28 N13 1_555 1_555
C29 N16 1_555 1_555
C30 C29 1_555 1_555
H29 C30 1_555 1_555
H30 C30 1_555 1_555
H31 C30 1_555 1_555
C31 N16 1_555 1_555
H32 C31 1_555 1_555
H33 C31 1_555 1_555
C32 C31 1_555 1_555
H34 C32 1_555 1_555
H35 C32 1_555 1_555
C33 N15 1_555 1_555
H36 C33 1_555 1_555
H37 C33 1_555 1_555
C34 N15 1_555 1_555
H38 C34 1_555 1_555
H39 C34 1_555 1_555
C35 C34 1_555 1_555
H40 C35 1_555 1_555
H41 C35 1_555 1_555
C36 N14 1_555 1_555
H42 C36 1_555 1_555
H43 C36 1_555 1_555
C37 N14 1_555 1_555
C38 C37 1_555 1_555
H44 C38 1_555 1_555
H45 C38 1_555 1_555
H46 C38 1_555 1_555
C39 N18 1_555 1_555
C40 C39 1_555 1_555
H47 C40 1_555 1_555
C41 C40 1_555 1_555
H48 C41 1_555 1_555
C42 C41 1_555 1_555
H49 C42 1_555 1_555
C43 N18 1_555 1_555
C44 N21 1_555 1_555
C45 C44 1_555 1_555
H50 C45 1_555 1_555
H51 C45 1_555 1_555
H52 C45 1_555 1_555
C46 N21 1_555 1_555
H53 C46 1_555 1_555
H54 C46 1_555 1_555
C47 C46 1_555 1_555
H55 C47 1_555 1_555
H56 C47 1_555 1_555
C48 N20 1_555 1_555
H57 C48 1_555 1_555
H58 C48 1_555 1_555
C49 N20 1_555 1_555
H59 C49 1_555 1_555
H60 C49 1_555 1_555
C50 C49 1_555 1_555
H61 C50 1_555 1_555
H62 C50 1_555 1_555
C51 N19 1_555 1_555
H63 C51 1_555 1_555
H64 C51 1_555 1_555
C52 N19 1_555 1_555
C53 C52 1_555 1_555
H65 C53 1_555 1_555
H66 C53 1_555 1_555
H67 C53 1_555 1_555
C54 N22 1_555 1_555
C55 W2 1_555 1_555
C56 W2 1_555 1_555
C57 W2 1_555 1_555
C58 W2 1_555 1_555
C59 W2 1_555 1_555
C60 W2 1_555 1_555
C61 N28 1_555 1_555
C62 C61 1_555 1_555
H68 C62 1_555 1_555
C63 C62 1_555 1_555
H69 C63 1_555 1_555
C64 C63 1_555 1_555
H70 C64 1_555 1_555
C65 N28 1_555 1_555
C66 N29 1_555 1_555
C67 C66 1_555 1_555
H71 C67 1_555 1_555
H72 C67 1_555 1_555
H73 C67 1_555 1_555
C68 N29 1_555 1_555
H74 C68 1_555 1_555
H75 C68 1_555 1_555
C69 C68 1_555 1_555
H76 C69 1_555 1_555
H77 C69 1_555 1_555
C70 N31 1_555 1_555
H78 C70 1_555 1_555
H79 C70 1_555 1_555
C71 N31 1_555 1_555
H80 C71 1_555 1_555
H81 C71 1_555 1_555
C72 C71 1_555 1_555
H82 C72 1_555 1_555
H83 C72 1_555 1_555
C73 N30 1_555 1_555
H84 C73 1_555 1_555
H85 C73 1_555 1_555
C74 N30 1_555 1_555
C75 C74 1_555 1_555
H86 C75 1_555 1_555
H87 C75 1_555 1_555
H88 C75 1_555 1_555
C76 W2 1_555 1_555
O1 H89 1_555 1_555
H90 O1 1_555 1_555
O2 H91 1_555 1_555
H92 O2 1_555 1_555
O3 H93 1_555 1_555
H94 O3 1_555 1_555
O4 H95 1_555 1_555
H96 O4 1_555 1_555
O5 H97 1_555 1_555
H98 O5 1_555 1_555
O6 H99 1_555 1_555
H100 O6 1_555 1_555
O7 H101 1_555 1_555
H102 O7 1_555 1_555
O8 H103 1_555 1_555
H104 O8 1_555 1_555
O9 H105 1_555 1_555
H106 O9 1_555 1_555
O10 H107 1_555 1_555
H108 O10 1_555 1_555
O11 H109 1_555 1_555
H110 O11 1_555 1_555
O12 H111 1_555 1_555
H112 O12 1_555 1_555
O13 H113 1_555 1_555
H114 O13 1_555 1_555
O14 H115 1_555 1_555
H116 O14 1_555 1_555
O15 H117 1_555 1_555
H118 O15 1_555 1_555
O16 H119 1_555 1_555
H120 O16 1_555 1_555
O17 H121 1_555 1_555
H122 O17 1_555 1_555
Ni1C N12 1_555 1_555
Ni2A N17 1_555 1_555
Ni4A N32 1_555 1_555
N12C Ni1 1_555 1_555
N17A Ni2 1_555 1_555
N32A Ni4 1_555 1_555
C9 C22 1_555 1_555
C12 C13 1_555 1_555
C13 C14 1_555 1_555
C17 C18 1_555 1_555
C20 C21 1_555 1_555
C24 C37 1_555 1_555
C27 C28 1_555 1_555
C28 C29 1_555 1_555
C32 C33 1_555 1_555
C35 C36 1_555 1_555
C39 C52 1_555 1_555
C42 C43 1_555 1_555
C43 C44 1_555 1_555
C47 C48 1_555 1_555
C50 C51 1_555 1_555
C61 C74 1_555 1_555
C64 C65 1_555 1_555
C65 C66 1_555 1_555
C69 C70 1_555 1_555
C72 C73 1_555 1_555

#END
