
#######################################################################
#
#                 Cambridge Crystallographic Data Centre
#                                CCDC 
#
#######################################################################
#
# If this CIF has been generated from an entry in the Cambridge 
# Structural Database, then it will include bibliographic, chemical, 
# crystal, experimental, refinement or atomic coordinate data resulting 
# from the CCDC's data processing and validation procedures.
#
#######################################################################

data_CIWZEP
_chemical_formula_moiety         '(C78 H117 Mo2 N33 Ni4 O13)n'
_symmetry_cell_setting           monoclinic
_symmetry_space_group_name_H-M   'P 21/n'
_symmetry_Int_Tables_number      14
_space_group_name_Hall           '-P 2yn'
loop_
_symmetry_equiv_pos_site_id
_symmetry_equiv_pos_as_xyz
1 x,y,z
2 1/2-x,1/2+y,1/2-z
3 -x,-y,-z
4 1/2+x,1/2-y,1/2+z
_cell_length_a                   26.11(5)
_cell_length_b                   13.91(3)
_cell_length_c                   29.55(6)
_cell_angle_alpha                90
_cell_angle_beta                 94.27(4)
_cell_angle_gamma                90
_cell_volume                     10702.5
loop_
_atom_site_label
_atom_site_type_symbol
_atom_site_fract_x
_atom_site_fract_y
_atom_site_fract_z
_atom_site_U_iso_or_equiv
_atom_site_thermal_displace_type
Mo1 Mo 0.68058(2) 0.53804(5) 0.84463(2) 0.0338 Uani
Mo2 Mo 0.82432(3) 0.84383(5) 1.15316(2) 0.0404 Uani
Ni1 Ni 0.74271(5) 0.66507(8) 1.00892(3) 0.0526 Uani
Ni2 Ni 0.76317(4) 0.38159(7) 0.71001(3) 0.0457 Uani
Ni3 Ni 0.50109(4) 0.62845(8) 0.75850(4) 0.0536 Uani
Ni4 Ni 0.73190(5) 0.66653(8) 1.27532(4) 0.0581 Uani
N1 N 0.7169(3) 0.6375(5) 0.9429(2) 0.0565 Uani
N2 N 0.7253(3) 0.4895(5) 0.7473(2) 0.0477 Uani
N3 N 0.5783(3) 0.6314(5) 0.7885(3) 0.0589 Uani
N4 N 0.8084(3) 0.5412(7) 0.8556(3) 0.0801 Uani
N5 N 0.7205(4) 0.3448(7) 0.9020(3) 0.1004 Uani
N6 N 0.5869(4) 0.5195(10) 0.9107(3) 0.1184 Uani
N7 N 0.6089(3) 0.3594(6) 0.7986(3) 0.0802 Uani
N8 N 0.7052(3) 0.7649(5) 0.8222(2) 0.0499 Uani
N9 N 0.6727(3) 0.6965(7) 1.0227(2) 0.0642 Uani
N10 N 0.7407(4) 0.8085(6) 0.9959(2) 0.0621 Uani
N11 N 0.8144(3) 0.6311(6) 0.9964(3) 0.0741 Uani
H1 H 0.8331 0.6371 1.0235 0.0890 Uiso
N12 N 0.7154(4) 0.5298(6) 1.0231(2) 0.0700 Uani
N13 N 0.7278(3) 0.4348(6) 0.6552(2) 0.0584 Uani
N14 N 0.6980(3) 0.3026(5) 0.7082(3) 0.0596 Uani
N15 N 0.8020(3) 0.3426(6) 0.7704(3) 0.0658 Uani
H2 H 0.7912 0.3835 0.7917 0.0790 Uiso
N16 N 0.8176(3) 0.4800(6) 0.6890(3) 0.0650 Uani
N17 N 0.4903(3) 0.7648(6) 0.7704(3) 0.0655 Uani
N18 N 0.4740(3) 0.6258(7) 0.8220(3) 0.0708 Uani
N19 N 0.5108(4) 0.4867(7) 0.7500(4) 0.0895 Uani
H3 H 0.5433 0.4737 0.7615 0.1070 Uiso
N20 N 0.5203(3) 0.6878(10) 0.7009(4) 0.0943 Uani
N21 N 0.7719(3) 0.6979(6) 1.0751(2) 0.0587 Uani
N22 N 0.7778(3) 0.7713(5) 1.2466(3) 0.0603 Uani
N23 N 0.8035(4) 1.0009(7) 1.0706(3) 0.0988 Uani
N24 N 0.9210(4) 0.8316(9) 1.0901(3) 0.1011 Uani
N25 N 0.6989(3) 0.8830(7) 1.1418(4) 0.0920 Uani
N26 N 0.8776(4) 0.6290(6) 1.1725(3) 0.0840 Uani
N27 N 0.8097(3) 1.0526(6) 1.2005(3) 0.0696 Uani
N28 N 0.6715(5) 0.7371(9) 1.2605(7) 0.1216 Uani
N29 N 0.7210(6) 0.7488(9) 1.3361(5) 0.1090 Uani
N30 N 0.7945(5) 0.5924(9) 1.3015(5) 0.1143 Uani
H4 H 0.7812 0.5399 1.3148 0.1370 Uiso
N31 N 0.7177(5) 0.6178(9) 1.2155(4) 0.1129 Uani
N32 N 0.3912(3) 0.6305(6) 0.7010(3) 0.0693 Uani
C1 C 0.7035(3) 0.6037(6) 0.9089(3) 0.0467 Uani
C2 C 0.7068(3) 0.5096(5) 0.7792(3) 0.0367 Uani
C3 C 0.6149(3) 0.6014(6) 0.8069(3) 0.0451 Uani
C4 C 0.7637(3) 0.5411(6) 0.8512(3) 0.0477 Uani
C5 C 0.7069(4) 0.4120(7) 0.8819(3) 0.0586 Uani
C6 C 0.6183(4) 0.5259(8) 0.8878(3) 0.0711 Uani
C7 C 0.6345(3) 0.4189(6) 0.8159(3) 0.0535 Uani
C8 C 0.6971(3) 0.6861(6) 0.8298(2) 0.0379 Uani
C9 C 0.7001(5) 0.8502(7) 1.0060(4) 0.0751 Uani
C10 C 0.6895(6) 0.9563(8) 1.0025(5) 0.1233 Uani
H5 H 0.7205 0.9897 0.9967 0.1850 Uiso
H6 H 0.6772 0.9789 1.0304 0.1850 Uiso
H7 H 0.6639 0.9680 0.9780 0.1850 Uiso
C11 C 0.6593(5) 0.7862(9) 1.0212(4) 0.0772 Uani
C12 C 0.6086(7) 0.8092(14) 1.0283(6) 0.1300 Uani
H8 H 0.5972 0.8725 1.0261 0.1560 Uiso
C13 C 0.5779(6) 0.742(2) 1.0381(7) 0.1577 Uani
H9 H 0.5447 0.7582 1.0447 0.1890 Uiso
C14 C 0.5922(6) 0.6443(16) 1.0392(6) 0.1356 Uani
H10 H 0.5691 0.5956 1.0447 0.1630 Uiso
C15 C 0.6418(5) 0.6256(10) 1.0318(4) 0.0824 Uani
C16 C 0.6670(5) 0.5310(10) 1.0303(3) 0.0880 Uani
C17 C 0.6360(6) 0.4408(10) 1.0365(5) 0.1421 Uani
H11 H 0.6530 0.4017 1.0598 0.2130 Uiso
H12 H 0.6328 0.4054 1.0085 0.2130 Uiso
H13 H 0.6024 0.4578 1.0451 0.2130 Uiso
C18 C 0.7466(7) 0.4458(8) 1.0140(4) 0.1106 Uani
H14 H 0.7355 0.4214 0.9841 0.1330 Uiso
H15 H 0.7398 0.3962 1.0358 0.1330 Uiso
C19 C 0.8032(6) 0.4629(10) 1.0159(4) 0.1095 Uani
H16 H 0.8145 0.4841 1.0462 0.1310 Uiso
H17 H 0.8201 0.4021 1.0107 0.1310 Uiso
C20 C 0.8209(6) 0.5343(9) 0.9830(4) 0.1028 Uani
H18 H 0.8570 0.5232 0.9791 0.1230 Uiso
H19 H 0.8021 0.5243 0.9538 0.1230 Uiso
C21 C 0.8351(5) 0.7058(10) 0.9660(4) 0.0907 Uani
H20 H 0.8706 0.6905 0.9613 0.1090 Uiso
H21 H 0.8157 0.7039 0.9368 0.1090 Uiso
C22 C 0.8327(5) 0.8004(10) 0.9842(4) 0.0995 Uani
H22 H 0.8593 0.8383 0.9714 0.1190 Uiso
H23 H 0.8415 0.7963 1.0166 0.1190 Uiso
C23 C 0.7820(5) 0.8565(8) 0.9770(4) 0.0840 Uani
H24 H 0.7863 0.9195 0.9907 0.1010 Uiso
H25 H 0.7737 0.8654 0.9447 0.1010 Uiso
C24 C 0.4655(4) 0.7058(11) 0.8377(5) 0.0881 Uani
C25 C 0.4464(7) 0.7224(18) 0.8836(6) 0.1996 Uani
H26 H 0.4096 0.7172 0.8816 0.3000 Uiso
H27 H 0.4563 0.7854 0.8941 0.3000 Uiso
H28 H 0.4609 0.6751 0.9044 0.3000 Uiso
C26 C 0.4764(4) 0.7880(9) 0.8106(5) 0.0769 Uani
C27 C 0.4716(6) 0.8794(13) 0.8229(7) 0.1172 Uani
H29 H 0.4630 0.8960 0.8518 0.1410 Uiso
C28 C 0.4792(7) 0.9432(16) 0.7931(10) 0.1531 Uani
H30 H 0.4762 1.0070 0.8019 0.1830 Uiso
C29 C 0.4919(5) 0.9268(11) 0.7480(8) 0.1283 Uani
H31 H 0.4951 0.9755 0.7269 0.1530 Uiso
C30 C 0.4993(4) 0.8245(9) 0.7383(6) 0.0940 Uani
C31 C 0.5127(4) 0.7787(13) 0.6978(5) 0.0903 Uani
C32 C 0.5148(6) 0.8326(14) 0.6533(5) 0.1646 Uani
H32 H 0.5392 0.8020 0.6351 0.2470 Uiso
H33 H 0.5252 0.8978 0.6593 0.2470 Uiso
H34 H 0.4815 0.8319 0.6372 0.2470 Uiso
C33 C 0.5306(6) 0.6246(17) 0.6606(5) 0.1411 Uani
H35 H 0.5585 0.6513 0.6447 0.1680 Uiso
H36 H 0.5002 0.6218 0.6396 0.1680 Uiso
C34 C 0.5451(7) 0.5214(19) 0.6781(6) 0.1592 Uani
H37 H 0.5525 0.4834 0.6518 0.1910 Uiso
H38 H 0.5769 0.5269 0.6970 0.1910 Uiso
C35 C 0.5100(6) 0.4658(12) 0.7034(7) 0.1384 Uani
H39 H 0.4754 0.4762 0.6900 0.1660 Uiso
H40 H 0.5179 0.3982 0.6999 0.1660 Uiso
C36 C 0.4781(5) 0.4280(9) 0.7750(6) 0.1033 Uani
H41 H 0.4850 0.3607 0.7692 0.1240 Uiso
H42 H 0.4425 0.4409 0.7652 0.1240 Uiso
C37 C 0.4871(5) 0.4480(11) 0.8236(7) 0.1188 Uani
H43 H 0.5238 0.4558 0.8303 0.1420 Uiso
H44 H 0.4768 0.3916 0.8400 0.1420 Uiso
C38 C 0.4608(6) 0.5344(11) 0.8428(5) 0.1181 Uani
H45 H 0.4239 0.5253 0.8386 0.1420 Uiso
H46 H 0.4700 0.5378 0.8751 0.1420 Uiso
C39 C 0.6644(4) 0.3269(9) 0.6735(4) 0.0771 Uani
C40 C 0.6161(5) 0.2692(10) 0.6640(6) 0.1228 Uani
H47 H 0.6133 0.2226 0.6877 0.1840 Uiso
H48 H 0.6172 0.2370 0.6354 0.1840 Uiso
H49 H 0.5869 0.3114 0.6630 0.1840 Uiso
C41 C 0.6811(4) 0.4066(7) 0.6467(3) 0.0592 Uani
C42 C 0.6487(5) 0.4579(11) 0.6122(4) 0.0912 Uani
H50 H 0.6148 0.4412 0.6040 0.1090 Uiso
C43 C 0.6728(8) 0.5317(13) 0.5934(4) 0.1151 Uani
H51 H 0.6539 0.5651 0.5706 0.1380 Uiso
C44 C 0.7217(7) 0.5632(10) 0.6038(4) 0.0999 Uani
H52 H 0.7353 0.6168 0.5902 0.1200 Uiso
C45 C 0.7491(5) 0.5092(6) 0.6360(3) 0.0677 Uani
C46 C 0.8031(6) 0.5265(8) 0.6549(4) 0.0797 Uani
C47 C 0.8348(6) 0.5959(9) 0.6309(5) 0.1293 Uani
H53 H 0.8433 0.6499 0.6502 0.1940 Uiso
H54 H 0.8159 0.6177 0.6037 0.1940 Uiso
H55 H 0.8659 0.5650 0.6231 0.1940 Uiso
C48 C 0.8688(4) 0.4836(9) 0.7117(5) 0.0966 Uani
H56 H 0.8825 0.5479 0.7090 0.1160 Uiso
H57 H 0.8910 0.4397 0.6967 0.1160 Uiso
C49 C 0.8693(5) 0.4576(9) 0.7603(4) 0.0928 Uani
H58 H 0.8771 0.5021 0.7833 0.1110 Uiso
C50 C 0.8566(4) 0.3568(9) 0.7701(4) 0.0878 Uani
H59 H 0.8700 0.3155 0.7473 0.1050 Uiso
H60 H 0.8730 0.3388 0.7994 0.1050 Uiso
C51 C 0.7854(5) 0.2459(7) 0.7834(3) 0.0851 Uani
H61 H 0.8001 0.2317 0.8138 0.1020 Uiso
H62 H 0.7987 0.1991 0.7629 0.1020 Uiso
C52 C 0.7271(5) 0.2353(7) 0.7823(4) 0.0830 Uani
H63 H 0.7204 0.1803 0.8012 0.1000 Uiso
H64 H 0.7144 0.2913 0.7975 0.1000 Uiso
C53 C 0.6941(4) 0.2235(7) 0.7388(4) 0.0766 Uani
H65 H 0.7039 0.1649 0.7239 0.0920 Uiso
H66 H 0.6585 0.2167 0.7458 0.0920 Uiso
C54 C 0.7909(3) 0.7488(6) 1.1028(3) 0.0487 Uani
C55 C 0.7943(3) 0.7969(6) 1.2139(3) 0.0475 Uani
C56 C 0.8115(4) 0.9452(7) 1.0994(3) 0.0662 Uani
C57 C 0.8869(4) 0.8378(7) 1.1126(3) 0.0619 Uani
C58 C 0.8586(4) 0.7034(7) 1.1671(3) 0.0586 Uani
C59 C 0.7420(4) 0.8694(7) 1.1452(3) 0.0619 Uani
C60 C 0.8171(3) 0.9795(6) 1.1841(3) 0.0500 Uani
C61 C 0.4263(3) 0.6195(6) 0.7263(3) 0.0396 Uani
C62 C 0.6781(7) 0.6538(12) 1.1919(6) 0.1092 Uani
C63 C 0.6689(8) 0.6356(14) 1.1452(7) 0.1849 Uani
H67 H 0.6450 0.6820 1.1321 0.2740 Uiso
H68 H 0.6549 0.5722 1.1409 0.2740 Uiso
H69 H 0.7006 0.6401 1.1308 0.2740 Uiso
C64 C 0.6491(7) 0.7186(12) 1.2199(7) 0.1093 Uani
C65 C 0.6002(7) 0.7673(15) 1.2015(8) 0.1421 Uani
H70 H 0.5860 0.7650 1.1717 0.1700 Uiso
C66 C 0.5800(8) 0.8177(15) 1.2386(10) 0.1599 Uani
H71 H 0.5481 0.8453 1.2310 0.1920 Uiso
C67 C 0.5988(6) 0.8350(11) 1.2856(8) 0.1301 Uani
H72 H 0.5826 0.8685 1.3077 0.1580 Uiso
C68 C 0.6476(6) 0.7889(11) 1.2899(8) 0.1124 Uani
C69 C 0.6839(8) 0.7873(13) 1.3308(8) 0.1344 Uani
C70 C 0.6617(7) 0.8491(12) 1.3686(6) 0.1513 Uani
H73 H 0.6552 0.8089 1.3939 0.2270 Uiso
H74 H 0.6301 0.8786 1.3569 0.2270 Uiso
H75 H 0.6859 0.8982 1.3782 0.2270 Uiso
C71 C 0.7639(7) 0.7408(16) 1.3751(7) 0.1531 Uani
H76 H 0.7845 0.7989 1.3759 0.1820 Uiso
H77 H 0.7482 0.7362 1.4038 0.1820 Uiso
C72 C 0.7960(9) 0.6609(19) 1.3706(13) 0.2404 Uani
H78 H 0.7734 0.6063 1.3735 0.2890 Uiso
H79 H 0.8185 0.6615 1.3983 0.2890 Uiso
C73 C 0.8304(8) 0.6301(15) 1.3350(7) 0.1581 Uani
H80 H 0.8491 0.6841 1.3235 0.1890 Uiso
H81 H 0.8547 0.5814 1.3464 0.1890 Uiso
C74 C 0.8283(6) 0.5547(12) 1.2715(8) 0.1438 Uani
H82 H 0.8511 0.5072 1.2862 0.1710 Uiso
H83 H 0.8486 0.6049 1.2587 0.1710 Uiso
C75 C 0.7918(9) 0.5099(15) 1.2360(8) 0.1569 Uani
H84 H 0.8132 0.4708 1.2178 0.1890 Uiso
H85 H 0.7717 0.4650 1.2525 0.1890 Uiso
C76 C 0.7555(8) 0.5554(13) 1.2039(8) 0.1666 Uani
H86 H 0.7756 0.5899 1.1829 0.2020 Uiso
H87 H 0.7382 0.5040 1.1867 0.2020 Uiso
Mo2C Mo 0.32432(3) 0.65617(5) 0.65316(2) 0.0404 Uani
Ni2A Ni 0.73683(4) 0.88159(7) 0.78999(3) 0.0457 Uani
Ni4A Ni 0.76810(5) 1.16653(8) 1.22468(4) 0.0581 Uani
N8A N 0.7948(3) 0.2649(5) 0.6778(2) 0.0499 Uani
N27A N 0.6903(3) 0.5526(6) 1.2995(3) 0.0696 Uani
N32C N 0.8912(3) 0.8695(6) 1.2010(3) 0.0693 Uani
O1 O 0.5495(4) 0.1885(6) 0.7801(5) 0.1573 Uani
H88 H 0.5456 0.1868 0.8084 0.1890 Uiso
H89 H 0.5715 0.2344 0.7904 0.1890 Uiso
O2 O 0.7048(7) 0.2132(8) 0.9742(4) 0.2206 Uani
H90 H 0.7235 0.1652 0.9686 0.2650 Uiso
H91 H 0.6863 0.2262 0.9501 0.2650 Uiso
O3 O 0.5912(4) 0.9438(9) 0.1205(4) 0.1581 Uani
H92 H 0.6235 0.9441 0.1268 0.1900 Uiso
H93 H 0.5846 0.9835 0.0990 0.1900 Uiso
O4 O 0.5179(5) 0.1253(10) 0.6849(8) 0.2554 Uani
H94 H 0.5402 0.0972 0.6701 0.3060 Uiso
H95 H 0.4994 0.1597 0.6664 0.3060 Uiso
O5 O 0.7965(7) 0.1665(10) 0.0177(5) 0.2361 Uani
H96 H 0.8149 0.2007 0.0345 0.2810 Uiso
H97 H 0.7856 0.1319 0.0387 0.2810 Uiso
O6 O 0.9165(4) 0.5306(10) 0.8743(5) 0.2002 Uani
H98 H 0.8888 0.5649 0.8683 0.2400 Uiso
H99 H 0.9043 0.4708 0.8859 0.2400 Uiso
O7 O 0.5062(6) 0.501(3) 0.9596(5) 0.5694 Uani
H100 H 0.5348 0.4987 0.9477 0.6820 Uiso
H101 H 0.4970 0.5593 0.9605 0.6820 Uiso
O8 O 0.8361(8) 0.3221(15) 0.9047(8) 0.3174 Uani
H102 H 0.8446 0.2632 0.9041 0.3780 Uiso
H103 H 0.8056 0.3250 0.9130 0.3780 Uiso
O9 O 0.4943(6) 0.8460(15) 0.1314(7) 0.2817 Uani
H104 H 0.4679 0.8411 0.1128 0.3370 Uiso
H105 H 0.5157 0.8822 0.1193 0.3370 Uiso
O10 O 0.9075(8) 0.581(2) 0.0802(9) 0.4638 Uani
H106 H 0.9388 0.5654 0.0859 0.5560 Uiso
H107 H 0.8960 0.5995 0.1050 0.5560 Uiso
O11 O 0.5643(13) 0.0635(17) 0.0495(10) 0.4767 Uani
H108 H 0.5458 0.0882 0.0710 0.5720 Uiso
H109 H 0.5449 0.0503 0.0261 0.5720 Uiso
O12 O 0.4350(10) 0.7115(16) 0.0858(9) 0.3761 Uani
H110 H 0.4589 0.7045 0.0637 0.4500 Uiso
H111 H 0.4200 0.6588 0.0909 0.4500 Uiso
O13 O 0.8884(10) 0.237(2) 0.9642(13) 0.4596 Uani
H112 H 0.9116 0.2638 0.9815 0.5480 Uiso
H113 H 0.8682 0.2080 0.9809 0.5480 Uiso
N33 N 0.5620(12) 0.933(2) 0.9131(10) 0.3205 Uani
C77 C 0.6036(7) 0.7787(14) 0.8991(6) 0.1508 Uani
H114 H 0.5853 0.7519 0.8726 0.2260 Uiso
H115 H 0.6017 0.7353 0.9241 0.2260 Uiso
H116 H 0.6389 0.7885 0.8932 0.2260 Uiso
C78 C 0.5833(9) 0.859(2) 0.9087(7) 0.1666 Uani
loop_
_atom_site_aniso_label
_atom_site_aniso_U_11
_atom_site_aniso_U_22
_atom_site_aniso_U_33
_atom_site_aniso_U_23
_atom_site_aniso_U_13
_atom_site_aniso_U_12
Mo1 0.0407(4) 0.0348(4) 0.0262(3) 0.0006(3) 0.0047(3) -0.0024(3)
Mo2 0.0453(4) 0.0401(4) 0.0356(4) -0.0052(3) 0.0020(3) 0.0013(3)
Ni1 0.0738(8) 0.0548(7) 0.0294(6) -0.0062(5) 0.0049(5) -0.0081(6)
Ni2 0.0641(7) 0.0381(6) 0.0358(6) -0.0018(4) 0.0089(5) 0.0092(5)
Ni3 0.0421(6) 0.0532(7) 0.0647(8) 0.0035(6) -0.0019(5) 0.0017(5)
Ni4 0.0609(8) 0.0440(7) 0.0704(8) 0.0109(6) 0.0120(6) -0.0032(5)
N1 0.083(5) 0.059(5) 0.028(4) -0.012(3) 0.007(4) -0.004(4)
N2 0.064(5) 0.048(4) 0.032(4) -0.005(3) 0.009(3) 0.000(3)
N3 0.051(5) 0.052(5) 0.073(5) 0.003(4) 0.000(4) 0.000(4)
N4 0.051(5) 0.129(8) 0.060(5) -0.002(5) 0.003(4) 0.004(5)
N5 0.154(10) 0.069(6) 0.072(6) 0.020(5) -0.033(6) 0.008(6)
N6 0.085(7) 0.203(13) 0.073(7) -0.010(7) 0.045(6) -0.038(7)
N7 0.081(6) 0.052(5) 0.105(7) -0.014(5) -0.011(5) -0.016(4)
N8 0.071(5) 0.036(4) 0.044(4) 0.000(3) 0.012(3) -0.010(3)
N9 0.076(6) 0.081(6) 0.036(4) -0.014(4) 0.007(4) -0.009(5)
N10 0.091(6) 0.057(5) 0.037(4) -0.006(4) -0.003(4) -0.004(5)
N11 0.087(6) 0.087(7) 0.049(5) 0.006(5) 0.009(4) 0.004(5)
N12 0.107(7) 0.064(6) 0.038(4) 0.008(4) -0.002(4) -0.019(5)
N13 0.074(6) 0.059(5) 0.043(4) -0.010(4) 0.010(4) 0.021(4)
N14 0.068(5) 0.053(5) 0.060(5) -0.018(4) 0.019(4) -0.001(4)
N15 0.076(6) 0.066(5) 0.056(5) -0.012(4) 0.008(4) 0.018(4)
N16 0.083(6) 0.053(5) 0.063(5) -0.013(4) 0.032(5) 0.001(4)
N17 0.044(5) 0.063(5) 0.086(6) 0.005(5) -0.019(4) -0.002(4)
N18 0.052(5) 0.086(7) 0.075(6) 0.017(5) 0.008(4) -0.009(5)
N19 0.086(7) 0.080(7) 0.098(8) -0.021(6) -0.023(6) 0.013(6)
N20 0.038(5) 0.159(11) 0.085(7) 0.022(8) -0.001(4) -0.014(6)
N21 0.070(5) 0.065(5) 0.042(4) -0.004(4) 0.010(4) -0.005(4)
N22 0.080(5) 0.047(4) 0.056(5) -0.007(4) 0.019(4) -0.015(4)
N23 0.148(10) 0.073(6) 0.076(7) 0.016(6) 0.013(6) 0.016(6)
N24 0.067(6) 0.172(11) 0.066(6) 0.007(6) 0.016(5) -0.001(6)
N25 0.051(6) 0.116(8) 0.108(8) -0.016(6) -0.001(5) 0.011(5)
N26 0.099(7) 0.061(6) 0.091(7) -0.007(5) 0.000(5) 0.025(5)
N27 0.074(6) 0.051(5) 0.083(6) -0.018(4) 0.000(4) 0.007(4)
N28 0.092(9) 0.093(9) 0.183(15) 0.041(10) 0.032(10) -0.007(7)
N29 0.116(10) 0.082(8) 0.131(11) 0.017(7) 0.023(9) -0.017(7)
N30 0.114(10) 0.102(9) 0.127(10) 0.024(8) 0.010(9) -0.009(8)
N31 0.117(10) 0.105(9) 0.117(10) 0.013(8) 0.011(8) -0.008(8)
N32 0.063(5) 0.071(6) 0.073(6) 0.007(4) 0.000(5) 0.010(4)
C1 0.047(5) 0.051(5) 0.044(5) 0.003(4) 0.016(4) 0.003(4)
C2 0.042(4) 0.034(4) 0.034(4) -0.005(3) 0.003(3) 0.005(3)
C3 0.038(5) 0.044(5) 0.054(5) 0.003(4) 0.009(4) -0.002(4)
C4 0.045(5) 0.063(6) 0.035(4) 0.001(4) 0.002(4) 0.001(4)
C5 0.078(7) 0.049(5) 0.046(5) 0.010(4) -0.014(5) 0.004(5)
C6 0.060(6) 0.100(8) 0.053(6) -0.006(6) 0.002(5) -0.012(6)
C7 0.055(5) 0.044(5) 0.062(6) 0.003(5) 0.008(4) 0.000(4)
C8 0.042(4) 0.047(5) 0.025(4) -0.004(4) 0.004(3) 0.000(4)
C9 0.108(9) 0.057(7) 0.059(7) -0.007(5) -0.002(6) 0.004(6)
C10 0.157(13) 0.062(8) 0.147(14) -0.002(8) -0.014(11) 0.025(8)
C11 0.081(8) 0.090(9) 0.062(7) -0.019(6) 0.014(6) 0.009(7)
C12 0.089(12) 0.142(15) 0.158(16) -0.037(12) 0.003(11) 0.013(11)
C13 0.063(10) 0.21(2) 0.20(2) -0.065(19) 0.009(11) -0.004(13)
C14 0.086(12) 0.184(19) 0.138(14) -0.032(13) 0.017(10) -0.047(12)
C15 0.082(9) 0.102(10) 0.066(7) -0.016(7) 0.024(6) -0.032(7)
C16 0.101(10) 0.119(11) 0.042(6) -0.004(6) -0.009(6) -0.055(9)
C17 0.177(15) 0.109(11) 0.141(14) 0.004(10) 0.016(11) -0.088(11)
C18 0.190(16) 0.057(7) 0.080(9) 0.019(6) -0.022(10) 0.018(9)
C19 0.144(13) 0.114(11) 0.072(9) 0.014(8) 0.018(9) 0.047(10)
C20 0.136(11) 0.107(10) 0.067(8) -0.008(7) 0.019(7) 0.044(9)
C21 0.094(9) 0.115(10) 0.065(7) -0.009(7) 0.019(6) -0.019(8)
C22 0.098(10) 0.119(11) 0.081(9) 0.020(8) 0.004(7) -0.035(9)
C23 0.112(10) 0.078(8) 0.063(7) 0.019(6) 0.013(6) -0.025(7)
C24 0.062(7) 0.105(10) 0.096(10) -0.024(8) -0.002(6) 0.017(7)
C25 0.161(17) 0.34(3) 0.106(13) -0.062(16) 0.065(12) 0.037(18)
C26 0.057(7) 0.070(8) 0.101(10) -0.025(7) -0.013(6) 0.018(6)
C27 0.091(11) 0.113(13) 0.145(16) -0.023(12) -0.009(10) 0.025(10)
C28 0.097(13) 0.121(17) 0.24(3) -0.021(18) 0.003(16) 0.026(11)
C29 0.079(10) 0.069(10) 0.23(2) 0.046(12) -0.035(12) -0.004(7)
C30 0.065(8) 0.079(9) 0.133(13) 0.053(9) -0.027(8) -0.006(6)
C31 0.043(6) 0.134(12) 0.092(10) 0.057(10) -0.008(6) -0.015(7)
C32 0.098(11) 0.27(2) 0.121(13) 0.118(14) -0.023(9) -0.050(12)
C33 0.079(10) 0.27(2) 0.075(10) -0.025(13) 0.010(7) 0.010(12)
C34 0.093(12) 0.27(3) 0.112(14) -0.058(16) -0.010(10) 0.057(15)
C35 0.087(11) 0.145(15) 0.181(19) -0.079(13) -0.004(12) 0.031(10)
C36 0.089(9) 0.072(8) 0.145(14) 0.004(9) -0.018(9) -0.015(7)
C37 0.088(10) 0.097(11) 0.170(16) 0.060(11) 0.000(10) -0.001(8)
C38 0.106(11) 0.141(14) 0.108(11) 0.051(10) 0.013(9) -0.019(10)
C39 0.049(6) 0.091(8) 0.093(9) -0.056(7) 0.017(6) 0.000(6)
C40 0.076(9) 0.119(11) 0.171(15) -0.037(10) -0.006(9) -0.018(8)
C41 0.074(7) 0.065(6) 0.039(5) -0.017(5) 0.007(5) 0.024(6)
C42 0.087(9) 0.116(11) 0.069(8) -0.032(8) -0.004(7) 0.027(8)
C43 0.162(16) 0.137(14) 0.048(7) 0.011(8) 0.019(9) 0.077(13)
C44 0.149(13) 0.086(9) 0.066(8) 0.018(7) 0.017(8) 0.048(10)
C45 0.131(10) 0.039(5) 0.037(5) 0.005(4) 0.033(6) 0.030(6)
C46 0.125(11) 0.061(7) 0.059(7) 0.006(6) 0.047(7) 0.014(7)
C47 0.190(15) 0.073(8) 0.140(13) 0.004(8) 0.113(12) -0.013(9)
C48 0.066(8) 0.092(9) 0.133(12) -0.044(8) 0.016(7) -0.010(6)
C49 0.113(10) 0.087(9) 0.079(9) -0.039(7) 0.012(7) -0.006(7)
C50 0.068(8) 0.120(11) 0.073(8) -0.019(7) -0.010(6) 0.033(7)
C51 0.155(12) 0.054(6) 0.048(6) 0.021(5) 0.018(7) 0.028(7)
C52 0.142(11) 0.053(6) 0.060(7) 0.017(5) 0.047(7) 0.001(7)
C53 0.092(8) 0.053(6) 0.089(8) -0.014(6) 0.035(7) -0.015(5)
C54 0.066(6) 0.045(5) 0.036(5) -0.005(4) 0.010(4) 0.009(4)
C55 0.053(5) 0.038(5) 0.052(5) -0.009(4) 0.008(4) -0.006(4)
C56 0.096(8) 0.054(6) 0.049(6) 0.001(5) 0.009(5) 0.007(5)
C57 0.054(6) 0.093(8) 0.039(5) 0.003(5) 0.006(4) -0.002(5)
C58 0.066(6) 0.049(6) 0.062(6) -0.002(5) 0.012(5) 0.004(5)
C59 0.048(6) 0.072(7) 0.065(6) -0.029(5) -0.001(5) -0.001(5)
C60 0.054(5) 0.048(5) 0.047(5) 0.003(4) -0.002(4) 0.005(4)
C61 0.032(4) 0.046(5) 0.040(4) 0.000(4) -0.002(4) 0.000(4)
C62 0.110(12) 0.086(10) 0.127(14) 0.044(10) -0.021(11) -0.045(9)
C63 0.22(2) 0.21(2) 0.122(15) -0.016(14) -0.005(14) -0.123(17)
C64 0.104(13) 0.094(11) 0.130(14) 0.045(11) 0.009(11) -0.058(10)
C65 0.103(13) 0.156(17) 0.162(18) 0.034(14) -0.025(12) -0.036(12)
C66 0.146(18) 0.143(18) 0.19(2) 0.031(17) 0.008(18) -0.001(13)
C67 0.102(12) 0.103(12) 0.19(2) 0.027(12) 0.042(12) 0.001(9)
C68 0.082(10) 0.081(9) 0.181(17) 0.037(10) 0.056(12) -0.006(8)
C69 0.100(14) 0.108(14) 0.20(2) 0.036(14) 0.043(16) -0.006(11)
C70 0.156(16) 0.144(15) 0.163(17) -0.010(12) 0.073(14) 0.002(12)
C71 0.132(16) 0.18(2) 0.149(16) 0.037(15) 0.022(13) -0.020(14)
C72 0.124(19) 0.17(2) 0.43(5) 0.04(3) 0.04(3) -0.019(16)
C73 0.134(16) 0.18(2) 0.156(18) 0.040(15) -0.018(15) -0.020(15)
C74 0.094(11) 0.106(12) 0.24(2) 0.065(14) 0.069(14) 0.055(10)
C75 0.154(19) 0.145(18) 0.18(2) 0.009(15) 0.067(16) -0.010(15)
C76 0.163(18) 0.101(13) 0.25(3) 0.053(14) 0.110(19) 0.028(12)
Mo2C 0.0453 0.0401 0.0356 0.0052 0.002 -0.0013
Ni2A 0.0641 0.0381 0.0358 0.0018 0.0089 -0.0092
Ni4A 0.0609 0.044 0.0704 -0.0109 0.012 0.0032
N8A 0.071 0.036 0.044 0 0.012 0.01
N27A 0.074 0.051 0.083 0.018 0 -0.007
N32C 0.063 0.071 0.073 -0.007 0 -0.01
O1 0.113(8) 0.075(6) 0.286(15) -0.013(8) 0.029(9) -0.031(5)
O2 0.42(2) 0.104(9) 0.143(11) 0.026(8) 0.055(13) -0.003(11)
O3 0.096(7) 0.206(12) 0.168(10) -0.052(9) -0.018(7) 0.027(7)
O4 0.140(11) 0.167(13) 0.47(3) 0.060(15) 0.094(15) -0.008(9)
O5 0.37(2) 0.161(12) 0.171(13) 0.084(10) -0.021(14) -0.046(13)
O6 0.116(9) 0.203(14) 0.280(18) -0.002(12) 0.005(10) 0.041(9)
O7 0.171(14) 1.44(10) 0.101(11) -0.03(2) 0.036(10) -0.35(3)
O8 0.28(2) 0.31(2) 0.36(3) -0.12(2) 0.01(2) 0.068(19)
O9 0.170(14) 0.39(3) 0.29(2) -0.075(19) 0.049(14) -0.019(15)
O10 0.214(19) 0.79(6) 0.39(3) -0.42(4) 0.04(2) -0.04(3)
O11 0.76(6) 0.31(3) 0.40(3) 0.14(2) 0.31(4) 0.32(4)
O12 0.43(3) 0.25(2) 0.43(4) 0.12(2) -0.09(3) -0.12(2)
O13 0.30(3) 0.42(4) 0.64(6) -0.02(4) -0.09(4) -0.03(3)
N33 0.39(4) 0.28(3) 0.27(3) -0.15(2) -0.12(3) 0.18(3)
C77 0.157(16) 0.167(17) 0.130(14) -0.043(13) 0.021(11) 0.060(13)
C78 0.18(2) 0.19(2) 0.124(16) -0.034(16) -0.027(14) 0.053(17)
loop_
_geom_bond_atom_site_label_1
_geom_bond_atom_site_label_2
_geom_bond_site_symmetry_1
_geom_bond_site_symmetry_2
Mo1 C1 1_555 1_555
Mo2 C54 1_555 1_555
Ni1 N1 1_555 1_555
Ni2 N2 1_555 1_555
Ni3 N3 1_555 1_555
Ni4 N22 1_555 1_555
N1 C1 1_555 1_555
N2 C2 1_555 1_555
N3 C3 1_555 1_555
N4 C4 1_555 1_555
N5 C5 1_555 1_555
N6 C6 1_555 1_555
N7 C7 1_555 1_555
N8 C8 1_555 1_555
N9 Ni1 1_555 1_555
N10 Ni1 1_555 1_555
N11 Ni1 1_555 1_555
H1 N11 1_555 1_555
N12 Ni1 1_555 1_555
N13 Ni2 1_555 1_555
N14 Ni2 1_555 1_555
N15 Ni2 1_555 1_555
H2 N15 1_555 1_555
N16 Ni2 1_555 1_555
N17 Ni3 1_555 1_555
N18 Ni3 1_555 1_555
N19 Ni3 1_555 1_555
H3 N19 1_555 1_555
N20 Ni3 1_555 1_555
N21 Ni1 1_555 1_555
N22 C55 1_555 1_555
N23 C56 1_555 1_555
N24 C57 1_555 1_555
N25 C59 1_555 1_555
N26 C58 1_555 1_555
N27 C60 1_555 1_555
N28 Ni4 1_555 1_555
N29 Ni4 1_555 1_555
N30 Ni4 1_555 1_555
H4 N30 1_555 1_555
N31 Ni4 1_555 1_555
N32 C61 1_555 1_555
C2 Mo1 1_555 1_555
C3 Mo1 1_555 1_555
C4 Mo1 1_555 1_555
C5 Mo1 1_555 1_555
C6 Mo1 1_555 1_555
C7 Mo1 1_555 1_555
C8 Mo1 1_555 1_555
C9 N10 1_555 1_555
C10 C9 1_555 1_555
H5 C10 1_555 1_555
H6 C10 1_555 1_555
H7 C10 1_555 1_555
C11 N9 1_555 1_555
C12 C11 1_555 1_555
H8 C12 1_555 1_555
C13 C12 1_555 1_555
H9 C13 1_555 1_555
C14 C13 1_555 1_555
H10 C14 1_555 1_555
C15 N9 1_555 1_555
C16 N12 1_555 1_555
C17 C16 1_555 1_555
H11 C17 1_555 1_555
H12 C17 1_555 1_555
H13 C17 1_555 1_555
C18 N12 1_555 1_555
H14 C18 1_555 1_555
H15 C18 1_555 1_555
C19 C18 1_555 1_555
H16 C19 1_555 1_555
H17 C19 1_555 1_555
C20 N11 1_555 1_555
H18 C20 1_555 1_555
H19 C20 1_555 1_555
C21 N11 1_555 1_555
H20 C21 1_555 1_555
H21 C21 1_555 1_555
C22 C21 1_555 1_555
H22 C22 1_555 1_555
H23 C22 1_555 1_555
C23 N10 1_555 1_555
H24 C23 1_555 1_555
H25 C23 1_555 1_555
C24 N18 1_555 1_555
C25 C24 1_555 1_555
H26 C25 1_555 1_555
H27 C25 1_555 1_555
H28 C25 1_555 1_555
C26 N17 1_555 1_555
C27 C26 1_555 1_555
H29 C27 1_555 1_555
C28 C27 1_555 1_555
H30 C28 1_555 1_555
C29 C28 1_555 1_555
H31 C29 1_555 1_555
C30 N17 1_555 1_555
C31 N20 1_555 1_555
C32 C31 1_555 1_555
H32 C32 1_555 1_555
H33 C32 1_555 1_555
H34 C32 1_555 1_555
C33 N20 1_555 1_555
H35 C33 1_555 1_555
H36 C33 1_555 1_555
C34 C33 1_555 1_555
H37 C34 1_555 1_555
H38 C34 1_555 1_555
C35 N19 1_555 1_555
H39 C35 1_555 1_555
H40 C35 1_555 1_555
C36 N19 1_555 1_555
H41 C36 1_555 1_555
H42 C36 1_555 1_555
C37 C36 1_555 1_555
H43 C37 1_555 1_555
H44 C37 1_555 1_555
C38 N18 1_555 1_555
H45 C38 1_555 1_555
H46 C38 1_555 1_555
C39 N14 1_555 1_555
C40 C39 1_555 1_555
H47 C40 1_555 1_555
H48 C40 1_555 1_555
H49 C40 1_555 1_555
C41 N13 1_555 1_555
C42 C41 1_555 1_555
H50 C42 1_555 1_555
C43 C42 1_555 1_555
H51 C43 1_555 1_555
C44 C43 1_555 1_555
H52 C44 1_555 1_555
C45 N13 1_555 1_555
C46 N16 1_555 1_555
C47 C46 1_555 1_555
H53 C47 1_555 1_555
H54 C47 1_555 1_555
H55 C47 1_555 1_555
C48 N16 1_555 1_555
H56 C48 1_555 1_555
H57 C48 1_555 1_555
C49 C48 1_555 1_555
H58 C49 1_555 1_555
C50 N15 1_555 1_555
H59 C50 1_555 1_555
H60 C50 1_555 1_555
C51 N15 1_555 1_555
H61 C51 1_555 1_555
H62 C51 1_555 1_555
C52 C51 1_555 1_555
H63 C52 1_555 1_555
H64 C52 1_555 1_555
C53 N14 1_555 1_555
H65 C53 1_555 1_555
H66 C53 1_555 1_555
C54 N21 1_555 1_555
C55 Mo2 1_555 1_555
C56 Mo2 1_555 1_555
C57 Mo2 1_555 1_555
C58 Mo2 1_555 1_555
C59 Mo2 1_555 1_555
C60 Mo2 1_555 1_555
C61 Ni3 1_555 1_555
C62 N31 1_555 1_555
C63 C62 1_555 1_555
H67 C63 1_555 1_555
H68 C63 1_555 1_555
H69 C63 1_555 1_555
C64 N28 1_555 1_555
C65 C64 1_555 1_555
H70 C65 1_555 1_555
C66 C65 1_555 1_555
H71 C66 1_555 1_555
C67 C66 1_555 1_555
H72 C67 1_555 1_555
C68 N28 1_555 1_555
C69 N29 1_555 1_555
C70 C69 1_555 1_555
H73 C70 1_555 1_555
H74 C70 1_555 1_555
H75 C70 1_555 1_555
C71 N29 1_555 1_555
H76 C71 1_555 1_555
H77 C71 1_555 1_555
C72 C71 1_555 1_555
H78 C72 1_555 1_555
H79 C72 1_555 1_555
C73 N30 1_555 1_555
H80 C73 1_555 1_555
H81 C73 1_555 1_555
C74 N30 1_555 1_555
H82 C74 1_555 1_555
H83 C74 1_555 1_555
C75 C74 1_555 1_555
H84 C75 1_555 1_555
H85 C75 1_555 1_555
C76 N31 1_555 1_555
H86 C76 1_555 1_555
H87 C76 1_555 1_555
O1 H88 1_555 1_555
H89 O1 1_555 1_555
O2 H90 1_555 1_555
H91 O2 1_555 1_555
O3 H92 1_555 1_555
H93 O3 1_555 1_555
O4 H94 1_555 1_555
H95 O4 1_555 1_555
O5 H96 1_555 1_555
H97 O5 1_555 1_555
O6 H98 1_555 1_555
H99 O6 1_555 1_555
O7 H100 1_555 1_555
H101 O7 1_555 1_555
O8 H102 1_555 1_555
H103 O8 1_555 1_555
O9 H104 1_555 1_555
H105 O9 1_555 1_555
O10 H106 1_555 1_555
H107 O10 1_555 1_555
O11 H108 1_555 1_555
H109 O11 1_555 1_555
O12 H110 1_555 1_555
H111 O12 1_555 1_555
O13 H112 1_555 1_555
H113 O13 1_555 1_555
N33 C78 1_555 1_555
C77 H114 1_555 1_555
H115 C77 1_555 1_555
H116 C77 1_555 1_555
C78 C77 1_555 1_555
Mo2C N32 1_555 1_555
Ni2A N8 1_555 1_555
Ni4A N27 1_555 1_555
N8A Ni2 1_555 1_555
N27A Ni4 1_555 1_555
N32C Mo2 1_555 1_555
C9 C11 1_555 1_555
C14 C15 1_555 1_555
C15 C16 1_555 1_555
C19 C20 1_555 1_555
C22 C23 1_555 1_555
C24 C26 1_555 1_555
C29 C30 1_555 1_555
C30 C31 1_555 1_555
C34 C35 1_555 1_555
C37 C38 1_555 1_555
C39 C41 1_555 1_555
C44 C45 1_555 1_555
C45 C46 1_555 1_555
C49 C50 1_555 1_555
C52 C53 1_555 1_555
C62 C64 1_555 1_555
C67 C68 1_555 1_555
C68 C69 1_555 1_555
C72 C73 1_555 1_555
C75 C76 1_555 1_555

#END
