
#######################################################################
#
#                 Cambridge Crystallographic Data Centre
#                                CCDC 
#
#######################################################################
#
# If this CIF has been generated from an entry in the Cambridge 
# Structural Database, then it will include bibliographic, chemical, 
# crystal, experimental, refinement or atomic coordinate data resulting 
# from the CCDC's data processing and validation procedures.
#
#######################################################################

data_DAFHOJ
_chemical_formula_moiety         '(C38 H27 Mn3 N2 O16 1-)n'
_symmetry_cell_setting           monoclinic
_symmetry_space_group_name_H-M   'P 21/c'
_symmetry_Int_Tables_number      14
_space_group_name_Hall           '-P 2ybc'
loop_
_symmetry_equiv_pos_site_id
_symmetry_equiv_pos_as_xyz
1 x,y,z
2 -x,1/2+y,1/2-z
3 -x,-y,-z
4 x,1/2-y,1/2+z
_cell_length_a                   13.092(3)
_cell_length_b                   14.490(3)
_cell_length_c                   12.640(3)
_cell_angle_alpha                90
_cell_angle_beta                 116.85(3)
_cell_angle_gamma                90
_cell_volume                     2139.34
loop_
_atom_site_label
_atom_site_type_symbol
_atom_site_fract_x
_atom_site_fract_y
_atom_site_fract_z
Mn1 Mn -0.0000 0.5000 0.0000
Mn2 Mn 0.27135(5) 0.44289(4) 0.24477(6)
O1 O -0.0285(3) 0.0569(2) 0.3283(3)
O2 O -0.1816(3) 0.0010(2) 0.1717(3)
O3 O 0.1928(3) 0.3047(2) 0.2548(3)
O4 O 0.1164(2) 0.3817(2) 0.0869(3)
O5 O 0.1442(3) 0.5735(2) 0.0055(3)
O6 O 0.3079(3) 0.5609(2) 0.1722(3)
O7 O 0.5839(3) 0.8351(2) 0.2554(3)
O8 O 0.5740(3) 0.9109(2) 0.0993(3)
C1 C -0.0642(4) 0.1059(3) 0.1350(4)
C2 C 0.0140(4) 0.1776(3) 0.1779(4)
H1 H 0.0554 0.1865 0.2592
C3 C 0.0314(4) 0.2367(3) 0.0998(4)
C4 C -0.0282(4) 0.2230(3) -0.0220(5)
H2 H -0.0174 0.2624 -0.0743
C5 C -0.1048(5) 0.1486(4) -0.0644(5)
H3 H -0.1444 0.1376 -0.1455
C6 C -0.1217(5) 0.0917(4) 0.0136(5)
H4 H -0.1728 0.0426 -0.0159
C7 C -0.0912(4) 0.0490(3) 0.2192(4)
C8 C 0.1180(4) 0.3126(3) 0.1504(4)
C9 C 0.2934(4) 0.6747(3) 0.0303(4)
C10 C 0.3919(4) 0.7229(3) 0.1076(4)
H5 H 0.4290 0.7070 0.1875
C11 C 0.4345(4) 0.7945(3) 0.0653(4)
C12 C 0.3799(4) 0.8161(3) -0.0560(4)
H6 H 0.4089 0.8629 -0.0850
C13 C 0.2834(4) 0.7682(3) -0.1325(5)
H7 H 0.2480 0.7821 -0.2130
C14 C 0.2395(4) 0.6989(3) -0.0884(4)
H8 H 0.1728 0.6685 -0.1395
C15 C 0.2437(4) 0.5977(3) 0.0719(4)
C16 C 0.5377(4) 0.8491(3) 0.1469(4)
Mn1A Mn 0.0000 -0.0000 0.5000
Mn1A_2 Mn 0.0000 1.0000 -0.5000
Mn2B Mn -0.27135(5) 0.55711(4) -0.24477(6)
Mn2A Mn 0.72865(5) 0.94289(4) 0.25523(6)
Mn2C Mn -0.72865(5) 0.05711(4) -0.25523(6)
Mn2A_2 Mn -0.27135(5) -0.05711(4) 0.25523(6)
Mn2C_2 Mn 0.27135(5) 1.05711(4) -0.25523(6)
O1C O -0.0285(3) 0.4431(2) -0.1717(3)
O1A O 0.0285(3) 0.5569(2) 0.1717(3)
O1B O 0.0285(3) 0.9431(2) -0.3283(3)
O2C O -0.1816(3) 0.4990(2) -0.3283(3)
O2A O 0.1816(3) 0.5010(2) 0.3283(3)
O2B O 0.1816(3) 0.9990(2) -0.1717(3)
O3B O -0.1928(3) 0.6953(2) -0.2548(3)
O4B O -0.1164(2) 0.6183(2) -0.0869(3)
O5B O -0.1442(3) 0.4265(2) -0.0055(3)
O6B O -0.3079(3) 0.4391(2) -0.1722(3)
O7B O -0.5839(3) 0.1649(2) -0.2554(3)
O7A O 0.4161(3) 0.3351(2) 0.2446(3)
O7C O -0.4161(3) 0.6649(2) -0.2446(3)
O8B O -0.5740(3) 0.0891(2) -0.0993(3)
O8A O 0.4260(3) 0.4109(2) 0.4007(3)
O8C O -0.4260(3) 0.5891(2) -0.4007(3)
C1B C 0.0642(4) 0.8941(3) -0.1350(4)
C2B C -0.0140(4) 0.8224(3) -0.1779(4)
H1B H -0.0554 0.8135 -0.2592
C3B C -0.0314(4) 0.7633(3) -0.0998(4)
C4B C 0.0282(4) 0.7770(3) 0.0220(5)
H2B H 0.0174 0.7376 0.0743
C5B C 0.1048(5) 0.8514(4) 0.0644(5)
H3B H 0.1444 0.8624 0.1455
C6B C 0.1217(5) 0.9083(4) -0.0136(5)
H4B H 0.1728 0.9574 0.0159
C7B C 0.0912(4) 0.9510(3) -0.2192(4)
C8B C -0.1180(4) 0.6874(3) -0.1504(4)
C9B C -0.2934(4) 0.3253(3) -0.0303(4)
C10B C -0.3919(4) 0.2771(3) -0.1076(4)
H5B H -0.4290 0.2930 -0.1875
C11B C -0.4345(4) 0.2055(3) -0.0653(4)
C12B C -0.3799(4) 0.1839(3) 0.0560(4)
H6B H -0.4089 0.1371 0.0850
C13B C -0.2834(4) 0.2318(3) 0.1325(5)
H7B H -0.2480 0.2179 0.2130
C14B C -0.2395(4) 0.3011(3) 0.0884(4)
H8B H -0.1728 0.3315 0.1395
C15B C -0.2437(4) 0.4023(3) -0.0719(4)
C16B C -0.5377(4) 0.1509(3) -0.1469(4)
C17 C 0.3069(5) 0.3768(4) 0.7214(5)
H9 H 0.2694 0.3283 0.7374
C18 C 0.4003(6) 0.5049(4) 0.7380(6)
H10 H 0.4370 0.5608 0.7676
C19 C 0.3895(4) 0.4611(4) 0.6377(5)
H11 H 0.4178 0.4808 0.5860
C20 C 0.2927(6) 0.3159(4) 0.5341(6)
H12 H 0.2514 0.2670 0.5490
H13 H 0.3587 0.2909 0.5298
H14 H 0.2440 0.3454 0.4603
C21 C 0.3290(13) 0.4739(6) 0.8882(9)
H15 H 0.3920 0.5128 0.9403
H16 H 0.2598 0.5105 0.8606
C22 C 0.3196(12) 0.4010(5) 0.9557(8)
H17 H 0.3092 0.4252 1.0209
H18 H 0.3881 0.3644 0.9856
H19 H 0.2551 0.3633 0.9070
N1 N 0.3290(4) 0.3827(3) 0.6291(4)
N2 N 0.3471(5) 0.4510(4) 0.7860(5)
loop_
_geom_bond_atom_site_label_1
_geom_bond_atom_site_label_2
_geom_bond_site_symmetry_1
_geom_bond_site_symmetry_2
Mn1 O4 1_555 1_555
Mn2 O3 1_555 1_555
O1 C7 1_555 1_555
O2 C7 1_555 1_555
O3 C8 1_555 1_555
O4 Mn2 1_555 1_555
O5 Mn1 1_555 1_555
O6 Mn2 1_555 1_555
O7 C16 1_555 1_555
O8 C16 1_555 1_555
C1 C2 1_555 1_555
C2 H1 1_555 1_555
C3 C2 1_555 1_555
C4 C3 1_555 1_555
H2 C4 1_555 1_555
C5 C4 1_555 1_555
H3 C5 1_555 1_555
C6 C1 1_555 1_555
H4 C6 1_555 1_555
C7 C1 1_555 1_555
C8 O4 1_555 1_555
C9 C10 1_555 1_555
C10 H5 1_555 1_555
C11 C10 1_555 1_555
C12 C11 1_555 1_555
H6 C12 1_555 1_555
C13 C12 1_555 1_555
H7 C13 1_555 1_555
C14 C9 1_555 1_555
H8 C14 1_555 1_555
C15 O5 1_555 1_555
C16 C11 1_555 1_555
C17 H9 1_555 1_555
C18 H10 1_555 1_555
C19 C18 1_555 1_555
H11 C19 1_555 1_555
C20 H12 1_555 1_555
H13 C20 1_555 1_555
H14 C20 1_555 1_555
C21 H15 1_555 1_555
H16 C21 1_555 1_555
C22 C21 1_555 1_555
H17 C22 1_555 1_555
H18 C22 1_555 1_555
H19 C22 1_555 1_555
N1 C17 1_555 1_555
N2 C17 1_555 1_555
Mn1A O1 1_555 1_555
Mn1A_2 O1B 1_555 1_555
Mn2B O2C 1_555 1_555
Mn2A O7 1_555 1_555
Mn2C O7B 1_555 1_555
Mn2A_2 O2 1_555 1_555
Mn2C_2 O2B 1_555 1_555
O1C Mn1 1_555 1_555
O1A Mn1 1_555 1_555
O1B C7B 1_555 1_555
O2A Mn2 1_555 1_555
O2B C7B 1_555 1_555
O3B Mn2B 1_555 1_555
O4B Mn1 1_555 1_555
O5B Mn1 1_555 1_555
O6B Mn2B 1_555 1_555
O7B C16B 1_555 1_555
O7A Mn2 1_555 1_555
O7C Mn2B 1_555 1_555
O8B Mn2C 1_555 1_555
O8A Mn2 1_555 1_555
O8C Mn2B 1_555 1_555
C1B C2B 1_555 1_555
C2B H1B 1_555 1_555
C3B C2B 1_555 1_555
C4B C3B 1_555 1_555
H2B C4B 1_555 1_555
C5B C4B 1_555 1_555
H3B C5B 1_555 1_555
C6B C1B 1_555 1_555
H4B C6B 1_555 1_555
C7B C1B 1_555 1_555
C8B O3B 1_555 1_555
C9B C10B 1_555 1_555
C10B H5B 1_555 1_555
C11B C10B 1_555 1_555
C12B C11B 1_555 1_555
H6B C12B 1_555 1_555
C13B C12B 1_555 1_555
H7B C13B 1_555 1_555
C14B C9B 1_555 1_555
H8B C14B 1_555 1_555
C15B O5B 1_555 1_555
C16B O8B 1_555 1_555
O6 C15 1_555 1_555
O8 Mn2A 1_555 1_555
C3 C8 1_555 1_555
C5 C6 1_555 1_555
C9 C15 1_555 1_555
C13 C14 1_555 1_555
C18 N2 1_555 1_555
C19 N1 1_555 1_555
C20 N1 1_555 1_555
C21 N2 1_555 1_555
Mn2B O4B 1_555 1_555
O4B C8B 1_555 1_555
O6B C15B 1_555 1_555
C3B C8B 1_555 1_555
C5B C6B 1_555 1_555
C9B C15B 1_555 1_555
C11B C16B 1_555 1_555
C13B C14B 1_555 1_555

#END
