
#######################################################################
#
#                 Cambridge Crystallographic Data Centre
#                                CCDC 
#
#######################################################################
#
# If this CIF has been generated from an entry in the Cambridge 
# Structural Database, then it will include bibliographic, chemical, 
# crystal, experimental, refinement or atomic coordinate data resulting 
# from the CCDC's data processing and validation procedures.
#
#######################################################################

data_DAFHID
_chemical_formula_moiety         '(C38 H27 N2 Ni3 O16 1-)n'
_symmetry_cell_setting           orthorhombic
_symmetry_space_group_name_H-M   'P b c a'
_symmetry_Int_Tables_number      61
_space_group_name_Hall           '-P 2ac 2ab'
loop_
_symmetry_equiv_pos_site_id
_symmetry_equiv_pos_as_xyz
1 x,y,z
2 1/2-x,-y,1/2+z
3 -x,1/2+y,1/2-z
4 1/2+x,1/2-y,-z
5 -x,-y,-z
6 1/2+x,y,1/2-z
7 x,1/2-y,1/2+z
8 1/2-x,1/2+y,z
_cell_length_a                   15.4912(6)
_cell_length_b                   11.6687(5)
_cell_length_c                   23.7502(9)
_cell_angle_alpha                90
_cell_angle_beta                 90
_cell_angle_gamma                90
_cell_volume                     4293.14
loop_
_atom_site_label
_atom_site_type_symbol
_atom_site_fract_x
_atom_site_fract_y
_atom_site_fract_z
Ni1 Ni 0.0000 0.5000 0.0000
Ni2 Ni 0.046976(19) 0.35733(3) 0.123107(12)
O1 O 0.15795(11) 0.28741(14) 0.08386(7)
O2 O 0.09892(10) 0.44945(13) 0.05684(6)
O3 O 0.44279(9) 0.15831(13) 0.00153(6)
O4 O 0.46705(11) 0.24271(14) -0.08198(6)
O5 O -0.13573(11) 0.90019(15) 0.30551(7)
O6 O -0.04714(11) 0.75446(14) 0.30710(6)
O7 O -0.07311(10) 0.55096(14) 0.06680(6)
O8 O -0.03919(11) 0.47185(14) 0.15059(6)
C1 C 0.23919(15) 0.3999(2) 0.01992(9)
C2 C 0.30005(15) 0.3142(2) 0.01263(9)
H1 H 0.2918 0.2435 0.0299
C3 C 0.37295(15) 0.3320(2) -0.01998(10)
C4 C 0.38650(17) 0.4414(2) -0.04224(12)
H2 H 0.4355 0.4558 -0.0637
C5 C 0.32794(17) 0.5281(2) -0.03268(13)
H3 H 0.3391 0.6013 -0.0462
C6 C 0.25214(15) 0.5069(2) -0.00286(11)
H4 H 0.2110 0.5642 0.0016
C7 C 0.16141(15) 0.3762(2) 0.05426(10)
C8 C 0.43357(15) 0.2351(2) -0.03399(10)
C9 C -0.13657(16) 0.7727(2) 0.22684(10)
C10 C -0.09919(16) 0.6768(2) 0.20173(10)
H5 H -0.0575 0.6354 0.2212
C11 C -0.12315(15) 0.6423(2) 0.14821(9)
C12 C -0.18702(16) 0.7018(2) 0.12097(11)
H6 H -0.2037 0.6790 0.0851
C13 C -0.22717(17) 0.7951(2) 0.14569(11)
H7 H -0.2711 0.8335 0.1269
C14 C -0.20131(17) 0.8306(2) 0.19877(10)
H8 H -0.2276 0.8936 0.2155
C15 C -0.10644(15) 0.8121(2) 0.28359(9)
C16 C -0.07498(15) 0.5463(2) 0.11937(11)
Ni1C Ni 0.5000 0.0000 0.0000
Ni1C_2 Ni -0.5000 1.0000 0.0000
Ni2D Ni -0.046976(19) 0.64267(3) -0.123107(12)
Ni2C Ni 0.546976(19) 0.14267(3) -0.123107(12)
Ni2B Ni -0.046976(19) 0.85733(3) 0.376893(12)
Ni2G Ni -0.546976(19) 0.85733(3) 0.123107(12)
Ni2F Ni 0.046976(19) 0.14267(3) -0.376893(12)
O1D O -0.15795(11) 0.71259(14) -0.08386(7)
O2D O -0.09892(10) 0.55055(13) -0.05684(6)
O3D O -0.44279(9) 0.84169(13) -0.00153(6)
O3C O -0.05721(9) 0.34169(13) -0.00153(6)
O3G O 0.05721(9) 0.65831(13) 0.00153(6)
O4D O -0.46705(11) 0.75729(14) 0.08198(6)
O4C O -0.03295(11) 0.25729(14) 0.08198(6)
O4G O 0.03295(11) 0.74271(14) -0.08198(6)
O5D O 0.13573(11) 0.09981(15) -0.30551(7)
O5B O 0.13573(11) 0.40019(15) 0.19449(7)
O5F O -0.13573(11) 0.59981(15) -0.19449(7)
O6D O 0.04714(11) 0.24554(14) -0.30710(6)
O6B O 0.04714(11) 0.25446(14) 0.19290(6)
O6F O -0.04714(11) 0.74554(14) -0.19290(6)
O7D O 0.07311(10) 0.44904(14) -0.06680(6)
O8D O 0.03919(11) 0.52815(14) -0.15059(6)
C1D C -0.23919(15) 0.6001(2) -0.01992(9)
C2D C -0.30005(15) 0.6858(2) -0.01263(9)
H1D H -0.2918 0.7565 -0.0299
C3D C -0.37295(15) 0.6680(2) 0.01998(10)
C4D C -0.38650(17) 0.5586(2) 0.04224(12)
H2D H -0.4355 0.5442 0.0637
C5D C -0.32794(17) 0.4719(2) 0.03268(13)
H3D H -0.3391 0.3987 0.0462
C6D C -0.25214(15) 0.4931(2) 0.00286(11)
H4D H -0.2110 0.4358 -0.0016
C7D C -0.16141(15) 0.6238(2) -0.05426(10)
C8D C -0.43357(15) 0.7649(2) 0.03399(10)
C9D C 0.13657(16) 0.2273(2) -0.22684(10)
C10D C 0.09919(16) 0.3232(2) -0.20173(10)
H5D H 0.0575 0.3646 -0.2212
C11D C 0.12315(15) 0.3577(2) -0.14821(9)
C12D C 0.18702(16) 0.2982(2) -0.12097(11)
H6D H 0.2037 0.3210 -0.0851
C13D C 0.22717(17) 0.2049(2) -0.14569(11)
H7D H 0.2711 0.1665 -0.1269
C14D C 0.20131(17) 0.1694(2) -0.19877(10)
H8D H 0.2276 0.1064 -0.2155
C15D C 0.10644(15) 0.1879(2) -0.28359(9)
C16D C 0.07498(15) 0.4537(2) -0.11937(11)
C17 C -0.10551(19) 0.3138(2) 0.26368(14)
H9 H -0.0923 0.3586 0.2309
N1 N -0.12198(16) 0.2017(2) 0.26300(12)
C18 C -0.1248(2) 0.1292(3) 0.21362(15)
H10 H -0.1146 0.1747 0.1806
H11 H -0.1806 0.0937 0.2110
H12 H -0.0812 0.0711 0.2165
C19 C -0.1141(3) 0.1667(4) 0.3253(2)
H13 H -0.1204 0.0922 0.3386
N2 N -0.0862(3) 0.3501(4) 0.32464(18)
C20 C -0.0971(3) 0.2563(4) 0.3573(2)
H14 H -0.0933 0.2551 0.3964
C21 C -0.0690(4) 0.4660(5) 0.3449(3)
H15 H -0.0347 0.5084 0.3178
H16 H -0.0385 0.4641 0.3805
C22 C -0.1624(5) 0.5234(7) 0.3523(4)
H17 H -0.1578 0.5896 0.3761
H18 H -0.2011 0.4691 0.3691
H19 H -0.1842 0.5460 0.3161
loop_
_geom_bond_atom_site_label_1
_geom_bond_atom_site_label_2
_geom_bond_site_symmetry_1
_geom_bond_site_symmetry_2
Ni1 O2 1_555 1_555
Ni2 O1 1_555 1_555
O1 C7 1_555 1_555
O2 Ni2 1_555 1_555
O3 C8 1_555 1_555
O4 C8 1_555 1_555
O5 C15 1_555 1_555
O6 C15 1_555 1_555
O7 Ni1 1_555 1_555
O8 Ni2 1_555 1_555
C1 C2 1_555 1_555
C2 H1 1_555 1_555
C3 C2 1_555 1_555
C4 C3 1_555 1_555
H2 C4 1_555 1_555
C5 C4 1_555 1_555
H3 C5 1_555 1_555
C6 C1 1_555 1_555
H4 C6 1_555 1_555
C7 O2 1_555 1_555
C8 C3 1_555 1_555
C9 C10 1_555 1_555
C10 H5 1_555 1_555
C11 C10 1_555 1_555
C12 C11 1_555 1_555
H6 C12 1_555 1_555
C13 C12 1_555 1_555
H7 C13 1_555 1_555
C14 C9 1_555 1_555
H8 C14 1_555 1_555
C15 C9 1_555 1_555
C16 O7 1_555 1_555
C17 H9 1_555 1_555
N1 C17 1_555 1_555
C18 N1 1_555 1_555
H10 C18 1_555 1_555
H11 C18 1_555 1_555
H12 C18 1_555 1_555
C19 N1 1_555 1_555
H13 C19 1_555 1_555
N2 C17 1_555 1_555
C20 C19 1_555 1_555
H14 C20 1_555 1_555
C21 N2 1_555 1_555
H15 C21 1_555 1_555
H16 C21 1_555 1_555
C22 C21 1_555 1_555
H17 C22 1_555 1_555
H18 C22 1_555 1_555
H19 C22 1_555 1_555
Ni1C O3 1_555 1_555
Ni1C_2 O3D 1_555 1_555
Ni2D O1D 1_555 1_555
Ni2C O4 1_555 1_555
Ni2B O5 1_555 1_555
Ni2G O4D 1_555 1_555
Ni2F O5D 1_555 1_555
O1D C7D 1_555 1_555
O2D Ni1 1_555 1_555
O3D C8D 1_555 1_555
O3C Ni1 1_555 1_555
O3G Ni1 1_555 1_555
O4D C8D 1_555 1_555
O4C Ni2 1_555 1_555
O4G Ni2D 1_555 1_555
O5D C15D 1_555 1_555
O5B Ni2 1_555 1_555
O5F Ni2D 1_555 1_555
O6D Ni2F 1_555 1_555
O6B Ni2 1_555 1_555
O6F Ni2D 1_555 1_555
O7D Ni1 1_555 1_555
O8D Ni2D 1_555 1_555
C1D C2D 1_555 1_555
C2D H1D 1_555 1_555
C3D C2D 1_555 1_555
C4D C3D 1_555 1_555
H2D C4D 1_555 1_555
C5D C4D 1_555 1_555
H3D C5D 1_555 1_555
C6D C1D 1_555 1_555
H4D C6D 1_555 1_555
C7D O2D 1_555 1_555
C8D C3D 1_555 1_555
C9D C10D 1_555 1_555
C10D H5D 1_555 1_555
C11D C10D 1_555 1_555
C12D C11D 1_555 1_555
H6D C12D 1_555 1_555
C13D C12D 1_555 1_555
H7D C13D 1_555 1_555
C14D C9D 1_555 1_555
H8D C14D 1_555 1_555
C15D O6D 1_555 1_555
C16D O7D 1_555 1_555
O6 Ni2B 1_555 1_555
O8 C16 1_555 1_555
C1 C7 1_555 1_555
C5 C6 1_555 1_555
C11 C16 1_555 1_555
C13 C14 1_555 1_555
N2 C20 1_555 1_555
Ni2D O2D 1_555 1_555
O8D C16D 1_555 1_555
C1D C7D 1_555 1_555
C5D C6D 1_555 1_555
C9D C15D 1_555 1_555
C11D C16D 1_555 1_555
C13D C14D 1_555 1_555

#END
