
#######################################################################
#
#                 Cambridge Crystallographic Data Centre
#                                CCDC 
#
#######################################################################
#
# If this CIF has been generated from an entry in the Cambridge 
# Structural Database, then it will include bibliographic, chemical, 
# crystal, experimental, refinement or atomic coordinate data resulting 
# from the CCDC's data processing and validation procedures.
#
#######################################################################

data_MAPFIS
_chemical_formula_moiety         '(C62 H59 N1 O26 Ti4)n'
_symmetry_cell_setting           monoclinic
_symmetry_space_group_name_H-M   'P 21/n'
_symmetry_Int_Tables_number      14
_space_group_name_Hall           '-P 2yn'
loop_
_symmetry_equiv_pos_site_id
_symmetry_equiv_pos_as_xyz
1 x,y,z
2 1/2-x,1/2+y,1/2-z
3 -x,-y,-z
4 1/2+x,1/2-y,1/2+z
_cell_length_a                   16.137(3)
_cell_length_b                   10.762(2)
_cell_length_c                   20.368(4)
_cell_angle_alpha                90
_cell_angle_beta                 111.65(3)
_cell_angle_gamma                90
_cell_volume                     3287.7
loop_
_atom_site_label
_atom_site_type_symbol
_atom_site_fract_x
_atom_site_fract_y
_atom_site_fract_z
Ti1 Ti 0.5382(2) 0.6402(2) 0.2117(1)
Ti2 Ti 0.4596(2) 0.4215(2) 0.2862(1)
O1 O 0.4938(6) 0.7983(7) 0.1900(5)
O2 O 0.5631(6) 0.4685(6) 0.2538(5)
O3 O 0.4828(6) 0.5810(7) 0.1232(5)
O4 O 0.4298(6) 0.5877(7) 0.2371(4)
O5 O 0.5848(6) 0.6993(7) 0.3222(4)
O6 O 0.6476(6) 0.6650(7) 0.2119(5)
O7 O 0.4017(6) 0.3670(8) 0.1751(5)
O8 O 0.1467(6) 0.9046(7) 0.2053(5)
O9 O 0.4971(6) 1.2619(6) 0.3050(4)
O10 O 0.5210(6) 0.4991(7) 0.3717(4)
C1 C 0.6374(10) 0.3978(11) 0.2635(8)
C2 C 0.6992(9) 0.3759(11) 0.3294(8)
C3 C 0.7728(10) 0.2980(12) 0.3385(8)
C4 C 0.7201(10) 0.7392(11) 0.2196(8)
C5 C 0.7820(10) 0.7599(12) 0.2854(9)
C6 C 0.6450(9) 0.3370(12) 0.2061(8)
C7 C 0.2151(10) 0.8225(11) 0.2127(8)
C8 C 0.2775(11) 0.8002(11) 0.2785(8)
C9 C 0.3499(9) 0.7211(11) 0.2878(8)
C10 C 0.3572(10) 0.6638(11) 0.2297(8)
C11 C 0.2925(10) 0.6832(12) 0.1635(8)
C12 C 0.2227(10) 0.7638(12) 0.1548(8)
C13 C 0.4961(9) 0.9114(11) 0.2213(7)
C14 C 0.4173(11) 0.9673(11) 0.2160(7)
C15 C 0.4162(9) 1.0844(11) 0.2458(7)
C16 C 0.4985(10) 1.1464(12) 0.2791(8)
C17 C 0.5765(10) 1.0881(11) 0.2859(7)
C18 C 0.5780(11) 0.9718(12) 0.2576(8)
C19 C 0.4911(10) 0.5440(11) 0.0612(8)
C20 C 0.5763(10) 0.5339(12) 0.0573(8)
C21 C 0.4168(11) 0.5073(11) 0.0053(9)
C22 C 0.5133(9) 0.4995(11) 0.4345(8)
C23 C 0.5130(9) 0.6092(13) 0.4693(8)
C24 C 0.4950(9) 0.3863(12) 0.4642(8)
H1 H 0.6927(9) 0.4127(11) 0.3685(8)
H2 H 0.8162(10) 0.2861(12) 0.3831(8)
H3 H 0.7758(10) 0.7228(12) 0.3245(9)
H4 H 0.6012(9) 0.3475(12) 0.1615(8)
H5 H 0.2717(11) 0.8380(11) 0.3176(8)
H6 H 0.3925(9) 0.7075(11) 0.3326(8)
H7 H 0.2960(10) 0.6416(12) 0.1246(8)
H8 H 0.1807(10) 0.7786(12) 0.1098(8)
H9 H 0.3637(11) 0.9266(11) 0.1923(7)
H10 H 0.3629(9) 1.1204(11) 0.2436(7)
H11 H 0.6303(10) 1.1281(11) 0.3103(7)
H12 H 0.6318(11) 0.9341(12) 0.2623(8)
H13 H 0.6271(10) 0.5545(12) 0.0960(8)
H14 H 0.3613(11) 0.5100(11) 0.0093(9)
H15 H 0.5183(9) 0.6836(13) 0.4479(8)
H16 H 0.4886(9) 0.3115(12) 0.4399(8)
C4A C 0.7799(10) 0.2392(11) 0.2804(8)
C3A C 0.7272(10) 0.7980(12) 0.1615(8)
C6A C 0.8550(9) 0.8370(12) 0.2939(8)
C5A C 0.7180(10) 0.2599(12) 0.2146(9)
C21B C 0.5832(11) 0.4927(11) -0.0053(9)
C20B C 0.4237(10) 0.4661(12) -0.0573(8)
C24B C 0.5050(9) 0.6137(12) 0.5358(8)
C23B C 0.4870(9) 0.3908(13) 0.5307(8)
Ti1A Ti -0.0382(2) 0.1402(2) 0.2883(1)
O4A O 0.0702(6) 0.0877(7) 0.2629(4)
O8A O 0.3533(6) 0.4046(7) 0.2947(5)
C7A C 0.2849(10) 0.3225(11) 0.2873(8)
C8A C 0.2225(11) 0.3002(11) 0.2215(8)
C9A C 0.1501(9) 0.2211(11) 0.2122(8)
C10A C 0.1428(10) 0.1638(11) 0.2703(8)
C11A C 0.2075(10) 0.1832(12) 0.3365(8)
C12A C 0.2773(10) 0.2638(12) 0.3452(8)
H5A H 0.2283(11) 0.3380(11) 0.1824(8)
H6A H 0.1075(9) 0.2075(11) 0.1674(8)
H7A H 0.2040(10) 0.1416(12) 0.3754(8)
H8A H 0.3193(10) 0.2786(12) 0.3902(8)
Ti1_2 Ti 0.5382(2) -0.3598(2) 0.2117(1)
O1_2 O 0.4938(6) -0.2017(7) 0.1900(5)
O9_2 O 0.4971(6) 0.2619(6) 0.3050(4)
C13_2 C 0.4961(9) -0.0886(11) 0.2213(7)
C14_2 C 0.4173(11) -0.0327(11) 0.2160(7)
C15_2 C 0.4162(9) 0.0844(11) 0.2458(7)
C16_2 C 0.4985(10) 0.1464(12) 0.2791(8)
C17_2 C 0.5765(10) 0.0881(11) 0.2859(7)
C18_2 C 0.5780(11) -0.0282(12) 0.2576(8)
H9_2 H 0.3637(11) -0.0734(11) 0.1923(7)
H10_2 H 0.3629(9) 0.1204(11) 0.2436(7)
H11_2 H 0.6303(10) 0.1281(11) 0.3103(7)
H12_2 H 0.6318(11) -0.0659(12) 0.2623(8)
Ti2A Ti 0.0404(2) -0.0785(2) 0.2138(1)
Ti2A_2 Ti 0.0404(2) 0.9215(2) 0.2138(1)
Ti2_2 Ti 0.4596(2) 1.4215(2) 0.2862(1)
O6A O 0.8524(6) 0.1650(7) 0.2881(5)
C2A C 0.8008(9) 0.8759(11) 0.1706(8)
H2A H 0.6838(10) 0.7861(12) 0.1169(8)
C1A C 0.8626(10) 0.8978(11) 0.2365(8)
H4A H 0.8988(9) 0.8475(12) 0.3385(8)
H3A H 0.7242(10) 0.2228(12) 0.1755(9)
C19B C 0.5089(10) 0.4560(11) -0.0612(8)
H14B H 0.6387(11) 0.4900(11) -0.0093(9)
H13B H 0.3729(10) 0.4455(12) -0.0960(8)
C22B C 0.4867(9) 0.5005(11) 0.5655(8)
H16B H 0.5114(9) 0.6885(12) 0.5601(8)
H15B H 0.4817(9) 0.3164(13) 0.5521(8)
O2_2 O 0.5631(6) 1.4685(6) 0.2538(5)
O4_2 O 0.4298(6) 1.5877(7) 0.2371(4)
O7_2 O 0.4017(6) 1.3670(8) 0.1751(5)
O8A_2 O 0.3533(6) 1.4046(7) 0.2947(5)
O10_2 O 0.5210(6) 1.4991(7) 0.3717(4)
Ti1A_2 Ti 0.9618(2) 0.1402(2) 0.2883(1)
H1A H 0.8073(9) 0.9127(11) 0.1315(8)
O2A O 0.9369(6) 0.9685(6) 0.2462(5)
O3B O 0.5172(6) 0.4190(7) -0.1232(5)
O10B O 0.4790(6) 0.5009(7) 0.6283(4)
Ti1A_3 Ti 0.9618(2) 1.1402(2) 0.2883(1)
Ti2A_3 Ti 1.0404(2) 0.9215(2) 0.2138(1)
Ti1B Ti 0.4618(2) 0.3598(2) -0.2117(1)
Ti2B Ti 0.5404(2) 0.5785(2) 0.7138(1)
O2B O 0.4369(6) 0.5315(6) 0.7462(5)
O4B O 0.5702(6) 0.4123(7) 0.7629(4)
O7B O 0.5983(6) 0.6330(8) 0.8249(5)
O8C O 0.6467(6) 0.5954(7) 0.7053(5)
O9B O 0.5029(6) 0.7381(6) 0.6950(4)
O11 O 0.1634(9) 0.5222(11) -0.0130(8)
C27 C 0.0748(20) 0.5125(15) -0.0109(20)
C28 C 0.0790(16) 0.4883(18) 0.0538(17)
C29 C 0.0016(27) 0.5252(15) -0.0641(11)
H17 H 0.1334(16) 0.4805(18) 0.0912(17)
H18 H 0.0020(27) 0.5430(15) -0.1086(11)
C29B C -0.0016(27) 0.4748(15) 0.0641(11)
C28B C -0.0790(16) 0.5117(18) -0.0538(17)
C27B C -0.0748(20) 0.4875(15) 0.0109(20)
H18B H -0.0020(27) 0.4570(15) 0.1086(11)
H17B H -0.1334(16) 0.5195(18) -0.0912(17)
O11B O -0.1634(9) 0.4778(11) 0.0130(8)
C25 C 0.2291(15) 0.1785(23) 0.0374(13)
C26 C 0.2296(14) 0.0473(16) 0.0558(13)
N1 N 0.2286(18) 0.2843(19) 0.0206(15)
O12 O 0.3955(7) 0.8427(8) 0.0449(5)
C30 C 0.4485(11) 0.9184(12) 0.0227(10)
C31 C 0.5358(13) 0.9408(15) 0.0639(9)
C32 C 0.4134(13) 0.9729(18) -0.0423(10)
H19 H 0.5619(13) 0.8988(15) 0.1065(9)
H20 H 0.340(12) 0.980(15) -0.0732(85)
C32B C 0.5866(13) 1.0271(18) 0.0423(10)
C31B C 0.4642(13) 1.0592(15) -0.0639(9)
C30B C 0.5515(11) 1.0816(12) -0.0227(10)
H20B H 0.660(12) 1.020(15) 0.0732(85)
H19B H 0.4381(13) 1.1012(15) -0.1065(9)
O12B O 0.6045(7) 1.1573(8) -0.0449(5)
O13 O 0.7267(7) 0.7619(10) 0.4410(6)
O14 O 0.4470(11) 0.1979(15) 0.0997(10)
loop_
_geom_bond_atom_site_label_1
_geom_bond_atom_site_label_2
_geom_bond_site_symmetry_1
_geom_bond_site_symmetry_2
Ti1 O1 1_555 1_555
Ti2 O2 1_555 1_555
O1 C13 1_555 1_555
O2 Ti1 1_555 1_555
O3 Ti1 1_555 1_555
O4 Ti1 1_555 1_555
O5 Ti1 1_555 1_555
O6 Ti1 1_555 1_555
O7 Ti2 1_555 1_555
O8 C7 1_555 1_555
O9 C16 1_555 1_555
O10 Ti2 1_555 1_555
C1 O2 1_555 1_555
C2 C1 1_555 1_555
C3 C2 1_555 1_555
C4 O6 1_555 1_555
C5 C4 1_555 1_555
C6 C1 1_555 1_555
C7 C8 1_555 1_555
C8 C9 1_555 1_555
C9 C10 1_555 1_555
C10 O4 1_555 1_555
C11 C10 1_555 1_555
C12 C7 1_555 1_555
C13 C14 1_555 1_555
C14 C15 1_555 1_555
C15 C16 1_555 1_555
C16 C17 1_555 1_555
C17 C18 1_555 1_555
C18 C13 1_555 1_555
C19 O3 1_555 1_555
C20 C19 1_555 1_555
C21 C19 1_555 1_555
C22 O10 1_555 1_555
C23 C22 1_555 1_555
C24 C22 1_555 1_555
O11 C27 1_555 1_555
C25 C26 1_555 1_555
C27 C28 1_555 1_555
O12 C30 1_555 1_555
C28 H17 1_555 1_555
C29 C27 1_555 1_555
C30 C31 1_555 1_555
C31 H19 1_555 1_555
C32 C30 1_555 1_555
N1 C25 1_555 1_555
H1 C2 1_555 1_555
H2 C3 1_555 1_555
H3 C5 1_555 1_555
H4 C6 1_555 1_555
H5 C8 1_555 1_555
H6 C9 1_555 1_555
H7 C11 1_555 1_555
H8 C12 1_555 1_555
H9 C14 1_555 1_555
H10 C15 1_555 1_555
H11 C17 1_555 1_555
H12 C18 1_555 1_555
H13 C20 1_555 1_555
H14 C21 1_555 1_555
H15 C23 1_555 1_555
H16 C24 1_555 1_555
H18 C29 1_555 1_555
H20 C32 1_555 1_555
C4A C3 1_555 1_555
C3A C4 1_555 1_555
C6A C5 1_555 1_555
C5A C6 1_555 1_555
C21B C20 1_555 1_555
C20B C21 1_555 1_555
C24B C23 1_555 1_555
C23B C24 1_555 1_555
C29B C28 1_555 1_555
C28B C29 1_555 1_555
C32B C31 1_555 1_555
C31B C32 1_555 1_555
Ti1A O4A 1_555 1_555
O4A C10A 1_555 1_555
O8A Ti2 1_555 1_555
C7A O8A 1_555 1_555
C8A C7A 1_555 1_555
C9A C8A 1_555 1_555
C10A C9A 1_555 1_555
C11A C10A 1_555 1_555
C12A C7A 1_555 1_555
H5A C8A 1_555 1_555
H6A C9A 1_555 1_555
H7A C11A 1_555 1_555
H8A C12A 1_555 1_555
Ti1_2 O1_2 1_555 1_555
O1_2 C13_2 1_555 1_555
O9_2 Ti2 1_555 1_555
C13_2 C14_2 1_555 1_555
C14_2 C15_2 1_555 1_555
C15_2 C16_2 1_555 1_555
C16_2 O9_2 1_555 1_555
C17_2 C16_2 1_555 1_555
C18_2 C13_2 1_555 1_555
H9_2 C14_2 1_555 1_555
H10_2 C15_2 1_555 1_555
H11_2 C17_2 1_555 1_555
H12_2 C18_2 1_555 1_555
Ti2A O4A 1_555 1_555
Ti2A_2 O8 1_555 1_555
Ti2_2 O9 1_555 1_555
O6A C4A 1_555 1_555
C2A C3A 1_555 1_555
H2A C3A 1_555 1_555
C1A C6A 1_555 1_555
H4A C6A 1_555 1_555
H3A C5A 1_555 1_555
C19B C21B 1_555 1_555
H14B C21B 1_555 1_555
H13B C20B 1_555 1_555
C22B C24B 1_555 1_555
H16B C24B 1_555 1_555
H15B C23B 1_555 1_555
C27B C29B 1_555 1_555
H18B C29B 1_555 1_555
H17B C28B 1_555 1_555
C30B C32B 1_555 1_555
H20B C32B 1_555 1_555
H19B C31B 1_555 1_555
O2_2 Ti2_2 1_555 1_555
O4_2 Ti2_2 1_555 1_555
O7_2 Ti2_2 1_555 1_555
O8A_2 Ti2_2 1_555 1_555
O10_2 Ti2_2 1_555 1_555
Ti1A_2 O6A 1_555 1_555
H1A C2A 1_555 1_555
O2A C1A 1_555 1_555
O3B C19B 1_555 1_555
O10B C22B 1_555 1_555
O11B C27B 1_555 1_555
O12B C30B 1_555 1_555
Ti1A_3 O2A 1_555 1_555
Ti2A_3 O2A 1_555 1_555
Ti1B O3B 1_555 1_555
Ti2B O10B 1_555 1_555
O2B Ti2B 1_555 1_555
O4B Ti2B 1_555 1_555
O7B Ti2B 1_555 1_555
O8C Ti2B 1_555 1_555
O9B Ti2B 1_555 1_555
Ti2 O4 1_555 1_555
C11 C12 1_555 1_555
C4A C5A 1_555 1_555
C20B C19B 1_555 1_555
C23B C22B 1_555 1_555
C28B C27B 1_555 1_555
C31B C30B 1_555 1_555
C11A C12A 1_555 1_555
C17_2 C18_2 1_555 1_555
C2A C1A 1_555 1_555

#END
