
#######################################################################
#
#                 Cambridge Crystallographic Data Centre
#                                CCDC 
#
#######################################################################
#
# If this CIF has been generated from an entry in the Cambridge 
# Structural Database, then it will include bibliographic, chemical, 
# crystal, experimental, refinement or atomic coordinate data resulting 
# from the CCDC's data processing and validation procedures.
#
#######################################################################

data_NIXGIM
_chemical_formula_moiety         '(C231 H251 Cd4 N13 O37)n'
_symmetry_cell_setting           monoclinic
_symmetry_space_group_name_H-M   'P 21'
_symmetry_Int_Tables_number      4
_space_group_name_Hall           'P 2yb'
loop_
_symmetry_equiv_pos_site_id
_symmetry_equiv_pos_as_xyz
1 x,y,z
2 -x,1/2+y,-z
_cell_length_a                   19.5995(9)
_cell_length_b                   28.7424(12)
_cell_length_c                   20.4414(9)
_cell_angle_alpha                90
_cell_angle_beta                 91.627(3)
_cell_angle_gamma                90
_cell_volume                     11510.7
loop_
_atom_site_label
_atom_site_type_symbol
_atom_site_fract_x
_atom_site_fract_y
_atom_site_fract_z
Cd1 Cd 0.86022(7) 0.17935(5) 0.76594(7)
Cd2 Cd 1.34748(7) -0.10181(5) 0.75043(6)
Cd3 Cd 1.27285(7) -0.35408(5) 0.34697(6)
Cd4 Cd 1.21578(7) -0.06917(6) 0.86079(7)
O1 O 1.2475(6) 0.2590(5) 0.8942(6)
H1 H 1.2606 0.2396 0.9225
O2 O 1.3416(6) 0.2449(4) 0.8002(7)
O3 O 1.3741(7) 0.1704(5) 0.8978(6)
H2 H 1.3663 0.1894 0.8672
O4 O 1.3018(7) 0.1921(4) 1.0025(5)
O5 O 0.9628(6) 0.2156(4) 0.7533(8)
O6 O 0.9403(8) 0.1939(5) 0.8599(8)
O7 O 1.3258(8) -0.0408(5) 0.8246(6)
O8 O 1.4038(8) -0.0238(4) 0.7526(7)
O9 O 1.7356(7) -0.1800(5) 0.6367(8)
H3 H 1.7489 -0.1622 0.6070
O10 O 1.8321(8) -0.1639(6) 0.7409(11)
O11 O 1.8624(7) -0.0966(5) 0.6432(10)
H4 H 1.8460 -0.1133 0.6726
O12 O 1.7828(10) -0.1167(8) 0.5290(15)
O13 O 1.4291(6) -0.1136(4) 0.6648(6)
O14 O 1.4524(6) -0.1382(4) 0.7669(6)
O15 O 1.8371(7) 0.1177(4) 0.6971(6)
O16 O 1.9115(8) 0.1002(5) 0.7717(9)
O17 O 1.3444(9) -0.4280(6) 0.7347(7)
H5 H 1.3096 -0.4240 0.7571
O18 O 1.2276(8) -0.4138(5) 0.8108(7)
O19 O 1.3302(7) -0.3480(6) 0.8562(6)
H6 H 1.3679 -0.3515 0.8382
O20 O 1.4507(6) -0.3718(4) 0.8036(6)
O21 O 1.3551(9) -0.3722(5) 0.4356(6)
O22 O 1.2444(9) -0.3834(4) 0.4463(6)
O23 O 1.2934(6) -0.1312(4) 0.8431(6)
O24 O 1.2028(9) -0.1508(5) 0.8980(7)
O25 O 1.1401(6) 0.0064(5) 1.2442(6)
H7 H 1.1751 0.0007 1.2674
O26 O 1.2500(7) -0.0086(5) 1.3261(6)
O27 O 1.1502(7) -0.0768(4) 1.3703(6)
H8 H 1.1136 -0.0715 1.3493
O28 O 1.0312(7) -0.0523(5) 1.3048(6)
O29 O 1.2409(8) -0.0422(4) 0.9592(6)
O30 O 1.1315(7) -0.0579(4) 0.9444(6)
O31 O 1.1952(6) -0.2929(4) 1.3310(6)
O32 O 1.2866(7) -0.2734(4) 1.3875(6)
N1 N 0.7841(8) 0.1514(6) 0.8431(7)
N2 N 0.8049(8) 0.2418(6) 0.8191(7)
N3 N 1.2924(6) -0.1597(5) 0.6891(6)
N4 N 1.2721(5) -0.0724(6) 0.6750(6)
N5 N 1.3426(6) -0.3297(6) 0.2648(8)
N6 N 1.3174(7) -0.4168(5) 0.2945(7)
N7 N 1.1489(6) -0.0903(8) 0.7707(7)
N8 N 1.1702(7) -0.0051(5) 0.8063(8)
C1 C 1.2455(12) 0.2329(8) 0.7274(11)
C2 C 1.2095(11) 0.2746(8) 0.7552(10)
H9 H 1.1820 0.2906 0.7206
H10 H 1.2430 0.2970 0.7741
C3 C 1.1620(9) 0.2553(7) 0.8099(10)
C4 C 1.0954(8) 0.2439(6) 0.7883(9)
H11 H 1.0808 0.2491 0.7442
C5 C 1.0515(9) 0.2248(6) 0.8330(8)
C6 C 1.0710(10) 0.2237(5) 0.9004(8)
H12 H 1.0380 0.2166 0.9321
C7 C 1.1380(9) 0.2330(6) 0.9205(10)
C8 C 1.1594(11) 0.2236(7) 0.9896(8)
H13 H 1.1210 0.2298 1.0187
H14 H 1.1978 0.2442 1.0027
C9 C 1.1815(9) 0.1728(5) 0.9959(8)
C10 C 1.1309(12) 0.1384(6) 0.9944(9)
H15 H 1.0845 0.1481 0.9944
C11 C 1.1443(12) 0.0905(5) 0.9930(10)
H16 H 1.1099 0.0672 0.9927
C12 C 1.2138(12) 0.0809(8) 0.9921(9)
H17 H 1.2252 0.0488 0.9901
C13 C 1.2696(10) 0.1113(5) 0.9938(8)
C14 C 1.3397(11) 0.0969(7) 0.9835(10)
H18 H 1.3708 0.1213 1.0011
H19 H 1.3489 0.0681 1.0088
C15 C 1.3547(10) 0.0888(7) 0.9184(9)
C16 C 1.3520(10) 0.0440(7) 0.8915(9)
H20 H 1.3387 0.0186 0.9181
C17 C 1.3688(9) 0.0357(7) 0.8254(9)
C18 C 1.3877(9) 0.0728(7) 0.7861(10)
H21 H 1.4015 0.0671 0.7427
C19 C 1.3866(9) 0.1195(6) 0.8100(9)
C20 C 1.4041(9) 0.1579(7) 0.7638(8)
H22 H 1.4330 0.1454 0.7289
H23 H 1.4304 0.1822 0.7877
C21 C 1.3387(11) 0.1796(10) 0.7325(8)
C22 C 1.3045(16) 0.1558(7) 0.6788(11)
H24 H 1.3251 0.1284 0.6622
C23 C 1.2440(12) 0.1704(9) 0.6503(10)
H25 H 1.2219 0.1545 0.6150
C24 C 1.2181(13) 0.2109(8) 0.6778(12)
H26 H 1.1772 0.2233 0.6589
C25 C 1.1838(12) 0.2489(6) 0.8741(9)
C26 C 1.3060(13) 0.2193(8) 0.7512(9)
C27 C 1.3696(10) 0.1259(7) 0.8740(9)
C28 C 1.2479(10) 0.1576(6) 0.9979(10)
C29 C 0.9763(12) 0.2093(7) 0.8174(11)
C30 C 1.3727(12) -0.0119(7) 0.7967(12)
C31 C 1.3769(11) 0.2824(7) 0.7754(10)
H27 H 1.3472 0.3004 0.7447
H28 H 1.4174 0.2717 0.7519
C32 C 1.3989(11) 0.3129(7) 0.8353(10)
H29 H 1.3584 0.3205 0.8610
H30 H 1.4312 0.2952 0.8638
C33 C 1.4331(12) 0.3584(7) 0.8135(10)
H31 H 1.3988 0.3802 0.7947
H32 H 1.4678 0.3520 0.7804
C34 C 1.4673(14) 0.3791(9) 0.8770(12)
H33 H 1.4904 0.4083 0.8664
H34 H 1.5007 0.3569 0.8951
H35 H 1.4323 0.3851 0.9092
C35 C 1.3183(11) 0.1998(8) 1.0681(11)
H36 H 1.3295 0.1701 1.0905
H37 H 1.2798 0.2147 1.0904
C36 C 1.3803(11) 0.2319(7) 1.0685(11)
H38 H 1.4183 0.2167 1.0458
H39 H 1.3956 0.2384 1.1142
C37 C 1.3610(11) 0.2773(7) 1.0338(11)
H40 H 1.3227 0.2924 1.0562
H41 H 1.3462 0.2708 0.9880
C38 C 1.4248(16) 0.3103(10) 1.0352(12)
H42 H 1.4127 0.3398 1.0138
H43 H 1.4620 0.2955 1.0119
H44 H 1.4395 0.3162 1.0807
C39 C 1.7386(12) -0.1518(9) 0.8050(15)
C40 C 1.7034(11) -0.1889(7) 0.7748(14)
H45 H 1.6769 -0.2053 0.8082
H46 H 1.7372 -0.2112 0.7579
C41 C 1.6523(8) -0.1741(5) 0.7155(12)
C42 C 1.5877(9) -0.1639(6) 0.7362(9)
H47 H 1.5760 -0.1688 0.7804
C43 C 1.5390(10) -0.1459(6) 0.6903(9)
C44 C 1.5576(9) -0.1431(6) 0.6265(9)
H48 H 1.5240 -0.1360 0.5936
C45 C 1.6244(8) -0.1505(6) 0.6089(10)
C46 C 1.6460(10) -0.1451(7) 0.5374(13)
H49 H 1.6827 -0.1675 0.5277
H50 H 1.6067 -0.1511 0.5071
C47 C 1.6709(11) -0.0964(8) 0.5291(10)
C48 C 1.6260(10) -0.0588(8) 0.5280(9)
H51 H 1.5783 -0.0646 0.5291
C49 C 1.6497(13) -0.0109(6) 0.5252(9)
H52 H 1.6188 0.0144 0.5202
C50 C 1.7208(13) -0.0039(9) 0.5304(9)
H53 H 1.7364 0.0273 0.5312
C51 C 1.7698(15) -0.0383(6) 0.5343(15)
C52 C 1.8370(14) -0.0275(9) 0.5342(19)
H54 H 1.8454 0.0009 0.5083
H55 H 1.8644 -0.0534 0.5169
C53 C 1.8554(10) -0.0181(7) 0.6200(12)
C54 C 1.8560(10) 0.0301(6) 0.6370(13)
H56 H 1.8444 0.0541 0.6067
C55 C 1.8750(10) 0.0386(8) 0.7016(12)
C56 C 1.8925(9) 0.0030(6) 0.7444(13)
H57 H 1.9098 0.0109 0.7869
C57 C 1.8861(12) -0.0438(7) 0.7281(18)
C58 C 1.9054(12) -0.0818(8) 0.7710(19)
H58 H 1.9301 -0.1060 0.7467
H59 H 1.9353 -0.0706 0.8075
C59 C 1.8439(13) -0.0999(9) 0.7952(18)
C60 C 1.8100(14) -0.0758(10) 0.8418(14)
H60 H 1.8321 -0.0481 0.8567
C61 C 1.7485(16) -0.0852(8) 0.8709(13)
H61 H 1.7331 -0.0653 0.9045
C62 C 1.7090(13) -0.1230(9) 0.8519(11)
H62 H 1.6654 -0.1290 0.8692
C63 C 1.6725(12) -0.1680(6) 0.6533(11)
C64 C 1.8012(13) -0.1385(9) 0.7804(16)
C65 C 1.8671(13) -0.0538(8) 0.6636(17)
C66 C 1.7389(11) -0.0830(6) 0.5295(12)
C67 C 1.4719(11) -0.1306(6) 0.7089(10)
C68 C 1.8734(11) 0.0863(7) 0.7237(11)
C69 C 1.880(2) -0.2507(13) 0.6800(19)
H63 H 1.8766 -0.2316 0.6397
H64 H 1.8328 -0.2555 0.6956
C70 C 1.912(2) -0.2982(11) 0.664(2)
H65 H 1.8799 -0.3167 0.6377
H66 H 1.9229 -0.3147 0.7054
H67 H 1.9540 -0.2933 0.6404
C71 C 1.8097(14) -0.1334(9) 0.465(2)
H68 H 1.8212 -0.1061 0.4377
H69 H 1.7737 -0.1513 0.4413
C72 C 1.8735(11) -0.1640(9) 0.4746(19)
H70 H 1.9125 -0.1489 0.4534
H71 H 1.8849 -0.1666 0.5219
C73 C 1.2868(15) 0.0240(10) 1.3675(16)
H72 H 1.3230 0.0397 1.3430
H73 H 1.3081 0.0079 1.4057
C74 C 1.1671(14) -0.3918(9) 0.7141(10)
C75 C 1.2024(12) -0.4338(8) 0.6790(11)
H74 H 1.1683 -0.4483 0.6487
H75 H 1.2148 -0.4573 0.7127
C76 C 1.2685(15) -0.4226(7) 0.6390(9)
C77 C 1.2579(15) -0.4119(7) 0.5733(8)
H76 H 1.2145 -0.4152 0.5519
C78 C 1.3124(11) -0.3965(6) 0.5422(9)
C79 C 1.3772(10) -0.3911(6) 0.5709(9)
H77 H 1.4146 -0.3804 0.5465
C80 C 1.3847(14) -0.4025(6) 0.6378(10)
C81 C 1.4564(13) -0.3965(7) 0.6685(12)
H78 H 1.4632 -0.4193 0.7044
H79 H 1.4908 -0.4028 0.6351
C82 C 1.4665(11) -0.3484(6) 0.6947(8)
C83 C 1.4776(13) -0.3116(6) 0.6509(9)
H80 H 1.4852 -0.3177 0.6060
C84 C 1.4772(16) -0.2657(6) 0.6743(13)
H81 H 1.4829 -0.2404 0.6452
C85 C 1.4684(12) -0.2579(8) 0.7401(12)
H82 H 1.4703 -0.2268 0.7557
C86 C 1.4575(10) -0.2914(8) 0.7820(10)
C87 C 1.4420(10) -0.2816(8) 0.8533(8)
H83 H 1.4722 -0.2565 0.8703
H84 H 1.4506 -0.3099 0.8799
C88 C 1.3670(9) -0.2668(8) 0.8585(7)
C89 C 1.3473(11) -0.2200(6) 0.8624(8)
H85 H 1.3798 -0.1956 0.8601
C90 C 1.2784(10) -0.2108(7) 0.8697(8)
C91 C 1.2286(11) -0.2444(6) 0.8752(9)
H86 H 1.1826 -0.2361 0.8828
C92 C 1.2475(9) -0.2905(7) 0.8695(8)
C93 C 1.1972(11) -0.3317(7) 0.8734(9)
H87 H 1.2214 -0.3595 0.8907
H88 H 1.1603 -0.3239 0.9037
C94 C 1.1686(10) -0.3414(8) 0.8103(12)
C95 C 1.1230(10) -0.3138(8) 0.7723(10)
H89 H 1.1054 -0.2873 0.7939
C96 C 1.1007(14) -0.3196(11) 0.7092(12)
H90 H 1.0710 -0.2987 0.6864
C97 C 1.1257(13) -0.3584(11) 0.6834(14)
H91 H 1.1138 -0.3639 0.6387
C98 C 1.3303(12) -0.4163(6) 0.6730(10)
C99 C 1.1879(11) -0.3826(8) 0.7780(9)
C100 C 1.3159(9) -0.3006(6) 0.8613(8)
C101 C 1.4613(11) -0.3364(7) 0.7588(8)
C102 C 1.2998(16) -0.3817(6) 0.4705(9)
C103 C 1.2612(13) -0.1586(8) 0.8689(10)
C104 C 1.3120(10) -0.0282(7) 1.2314(10)
C105 C 1.2784(10) 0.0132(7) 1.1933(8)
H92 H 1.2662 0.0378 1.2248
H93 H 1.3118 0.0264 1.1631
C106 C 1.2160(9) -0.0011(6) 1.1552(9)
C107 C 1.2266(8) -0.0162(5) 1.0900(8)
H94 H 1.2712 -0.0183 1.0731
C108 C 1.1692(8) -0.0279(5) 1.0518(9)
C109 C 1.1061(9) -0.0282(5) 1.0771(8)
H95 H 1.0679 -0.0367 1.0501
C110 C 1.0965(9) -0.0164(5) 1.1417(8)
C111 C 1.0239(10) -0.0255(6) 1.1709(10)
H96 H 1.0166 -0.0036 1.2074
H97 H 0.9882 -0.0195 1.1367
C112 C 1.0170(9) -0.0727(6) 1.1945(8)
C113 C 1.0026(9) -0.1076(6) 1.1469(9)
H98 H 0.9939 -0.0999 1.1023
C114 C 1.0015(10) -0.1538(7) 1.1686(11)
H99 H 0.9923 -0.1779 1.1378
C115 C 1.0138(8) -0.1655(7) 1.2348(9)
H100 H 1.0146 -0.1973 1.2475
C116 C 1.0242(9) -0.1322(6) 1.2802(7)
C117 C 1.0390(9) -0.1467(8) 1.3481(10)
H101 H 1.0118 -0.1747 1.3581
H102 H 1.0257 -0.1216 1.3783
C118 C 1.1165(9) -0.1577(6) 1.3588(8)
C119 C 1.1371(8) -0.2030(6) 1.3555(8)
H103 H 1.1047 -0.2271 1.3474
C120 C 1.2052(11) -0.2136(6) 1.3638(8)
C121 C 1.2537(11) -0.1791(7) 1.3777(7)
H104 H 1.2999 -0.1874 1.3865
C122 C 1.2344(9) -0.1320(6) 1.3786(8)
C123 C 1.2859(10) -0.0969(7) 1.3909(8)
H105 H 1.3236 -0.1103 1.4180
H106 H 1.2659 -0.0708 1.4156
C124 C 1.3138(9) -0.0786(6) 1.3270(10)
C125 C 1.3575(10) -0.1078(8) 1.2920(12)
H107 H 1.3740 -0.1354 1.3126
C126 C 1.3775(11) -0.0982(10) 1.2291(11)
H108 H 1.4052 -0.1197 1.2066
C127 C 1.3564(10) -0.0555(8) 1.1976(10)
H109 H 1.3723 -0.0468 1.1559
C128 C 1.1530(9) -0.0039(5) 1.1781(9)
C129 C 1.2948(10) -0.0385(7) 1.2935(9)
C130 C 1.1644(8) -0.1234(6) 1.3685(7)
C131 C 1.0244(8) -0.0872(6) 1.2584(8)
C132 C 1.1842(13) -0.0440(6) 0.9819(10)
C133 C 1.2332(11) -0.2632(7) 1.3619(9)
C134 C 0.7705(10) 0.1051(7) 0.8549(9)
H110 H 0.7900 0.0827 0.8268
C135 C 0.7328(11) 0.0900(7) 0.9020(9)
C136 C 0.7038(11) 0.1239(7) 0.9478(9)
C137 C 0.7160(10) 0.1709(7) 0.9342(8)
C138 C 0.6861(11) 0.2074(7) 0.9755(9)
H111 H 0.6589 0.2000 1.0118
C139 C 0.6992(10) 0.2506(7) 0.9596(9)
H112 H 0.6775 0.2744 0.9839
C140 C 0.7409(11) 0.2643(7) 0.9115(9)
C141 C 0.7527(11) 0.3109(7) 0.8953(9)
C142 C 0.7916(11) 0.3226(7) 0.8436(9)
C143 C 0.8175(11) 0.2866(7) 0.8083(9)
H113 H 0.8467 0.2941 0.7735
C144 C 0.7686(11) 0.2338(7) 0.8711(9)
C145 C 0.7520(10) 0.1825(7) 0.8822(9)
C146 C 0.7295(12) 0.0374(7) 0.9065(10)
H114 H 0.7002 0.0285 0.9425
H115 H 0.7755 0.0250 0.9147
H116 H 0.7107 0.0247 0.8653
C147 C 0.6478(13) 0.1120(9) 0.9960(10)
H117 H 0.6450 0.0782 1.0011
H118 H 0.6039 0.1239 0.9791
H119 H 0.6587 0.1263 1.0386
C148 C 0.7260(9) 0.3490(7) 0.9369(8)
H120 H 0.6995 0.3355 0.9722
H121 H 0.6967 0.3695 0.9101
H122 H 0.7643 0.3669 0.9558
C149 C 0.8115(11) 0.3743(7) 0.8190(9)
H123 H 0.8398 0.3720 0.7804
H124 H 0.8370 0.3906 0.8541
H125 H 0.7698 0.3917 0.8078
C150 C 1.3039(6) -0.2077(7) 0.6976(7)
H126 H 1.3304 -0.2177 0.7347
C151 C 1.2786(6) -0.2412(6) 0.6545(8)
C152 C 1.2388(7) -0.2265(8) 0.5987(7)
C153 C 1.2266(6) -0.1793(8) 0.5894(7)
C154 C 1.1891(7) -0.1558(8) 0.5382(7)
H127 H 1.1694 -0.1750 0.5049
C155 C 1.1790(7) -0.1122(7) 0.5317(8)
H128 H 1.1522 -0.1015 0.4953
C156 C 1.2050(6) -0.0804(8) 0.5751(8)
C157 C 1.1943(7) -0.0303(7) 0.5686(7)
C158 C 1.2235(7) -0.0054(8) 0.6160(8)
C159 C 1.2590(8) -0.0235(7) 0.6646(8)
H129 H 1.2781 -0.0026 0.6961
C160 C 1.2438(6) -0.0969(7) 0.6298(7)
C161 C 1.2542(6) -0.1470(9) 0.6359(8)
C162 C 1.2892(12) -0.2913(8) 0.6711(9)
H130 H 1.2897 -0.2951 0.7188
H131 H 1.3328 -0.3018 0.6541
H132 H 1.2520 -0.3098 0.6514
C163 C 1.2145(10) -0.2646(9) 0.5509(11)
H133 H 1.2005 -0.2921 0.5755
H134 H 1.2518 -0.2730 0.5222
H135 H 1.1757 -0.2531 0.5243
C164 C 1.1526(15) -0.0135(8) 0.5109(10)
H136 H 1.1041 -0.0143 0.5212
H137 H 1.1606 -0.0336 0.4732
H138 H 1.1658 0.0185 0.5004
C165 C 1.2156(15) 0.0486(8) 0.6136(9)
H139 H 1.2239 0.0615 0.6574
H140 H 1.1692 0.0565 0.5982
H141 H 1.2486 0.0616 0.5835
C166 C 1.3585(10) -0.2810(7) 0.2479(11)
H142 H 1.3393 -0.2563 0.2723
C167 C 1.3992(10) -0.2713(8) 0.1993(10)
C168 C 1.4278(9) -0.2988(12) 0.1620(10)
C169 C 1.4141(10) -0.3491(11) 0.1761(9)
C170 C 1.4518(10) -0.3880(10) 0.1441(9)
H143 H 1.4831 -0.3813 0.1108
C171 C 1.4413(10) -0.4321(9) 0.1623(10)
H144 H 1.4642 -0.4563 0.1403
C172 C 1.3983(10) -0.4435(7) 0.2120(8)
C173 C 1.3862(8) -0.4888(9) 0.2283(8)
C174 C 1.3368(11) -0.4987(7) 0.2788(9)
C175 C 1.3061(9) -0.4618(7) 0.3077(10)
H145 H 1.2738 -0.4686 0.3401
C176 C 1.3657(10) -0.4111(6) 0.2444(9)
C177 C 1.3745(9) -0.3595(8) 0.2304(11)
C178 C 1.4004(11) -0.2194(9) 0.1908(12)
H146 H 1.4357 -0.2060 0.2200
H147 H 1.3558 -0.2064 0.2015
H148 H 1.4105 -0.2119 0.1453
C179 C 1.4693(9) -0.2871(7) 0.1015(11)
H149 H 1.4482 -0.2607 0.0783
H150 H 1.4699 -0.3142 0.0723
H151 H 1.5161 -0.2791 0.1152
C180 C 1.4225(11) -0.5297(8) 0.1991(9)
H152 H 1.4626 -0.5376 0.2266
H153 H 1.4369 -0.5217 0.1550
H154 H 1.3915 -0.5564 0.1967
C181 C 1.3213(10) -0.5461(6) 0.3008(9)
H155 H 1.3079 -0.5653 0.2630
H156 H 1.2837 -0.5450 0.3315
H157 H 1.3618 -0.5595 0.3228
C182 C 1.1361(8) -0.1366(9) 0.7499(8)
H158 H 1.1589 -0.1609 0.7732
C183 C 1.0956(9) -0.1482(8) 0.7013(10)
C184 C 1.0630(10) -0.1158(14) 0.6670(10)
C185 C 1.0726(8) -0.0644(8) 0.6854(8)
C186 C 1.0393(8) -0.0268(10) 0.6515(9)
H159 H 1.0093 -0.0331 0.6154
C187 C 1.0505(8) 0.0187(12) 0.6709(9)
H160 H 1.0274 0.0428 0.6475
C188 C 1.0969(7) 0.0316(14) 0.7265(8)
C189 C 1.1102(8) 0.0736(6) 0.7469(9)
C190 C 1.1546(7) 0.0772(7) 0.7985(8)
C191 C 1.1820(9) 0.0370(13) 0.8257(10)
H161 H 1.2126 0.0407 0.8623
C192 C 1.1298(8) -0.0091(8) 0.7591(8)
C193 C 1.1142(9) -0.0588(11) 0.7345(10)
C194 C 1.0880(10) -0.2002(9) 0.6829(12)
H162 H 1.1320 -0.2122 0.6688
H163 H 1.0539 -0.2036 0.6472
H164 H 1.0734 -0.2178 0.7211
C195 C 1.0148(13) -0.1256(9) 0.6049(11)
H165 H 0.9885 -0.1541 0.6120
H166 H 1.0426 -0.1293 0.5662
H167 H 0.9834 -0.0993 0.5982
C196 C 1.0772(11) 0.1136(8) 0.7155(8)
H168 H 1.1107 0.1309 0.6903
H169 H 1.0585 0.1340 0.7489
H170 H 1.0401 0.1029 0.6860
C197 C 1.1765(11) 0.1264(6) 0.8238(11)
H171 H 1.2143 0.1232 0.8560
H172 H 1.1378 0.1415 0.8444
H173 H 1.1914 0.1453 0.7870
C198 C 1.878(2) -0.1974(15) 0.7789(17)
H174 H 1.9080 -0.1797 0.8101
H175 H 1.8503 -0.2191 0.8044
C199 C 1.9226(15) -0.2248(11) 0.7328(19)
H176 H 1.9501 -0.2477 0.7584
H177 H 1.9544 -0.2033 0.7113
C200 C 1.5169(11) -0.3890(9) 0.8311(11)
H178 H 1.5479 -0.3628 0.8423
H179 H 1.5395 -0.4098 0.7998
C201 C 1.4967(11) -0.4151(8) 0.8919(12)
H180 H 1.4759 -0.3930 0.9226
H181 H 1.5384 -0.4279 0.9137
C202 C 1.4469(14) -0.4547(7) 0.8785(11)
H182 H 1.4032 -0.4417 0.8614
H183 H 1.4379 -0.4709 0.9201
C203 C 1.474(2) -0.4904(10) 0.8289(14)
H184 H 1.4396 -0.5149 0.8217
H185 H 1.5163 -0.5042 0.8461
H186 H 1.4822 -0.4747 0.7873
C204 C 0.9809(14) -0.0034(8) 1.3901(11)
H187 H 1.0123 -0.0178 1.4230
H188 H 0.9382 0.0051 1.4119
C205 C 0.9653(12) -0.0379(8) 1.3344(10)
H189 H 0.9416 -0.0656 1.3517
H190 H 0.9351 -0.0232 1.3008
C206 C 1.2330(14) 0.0593(9) 1.3897(14)
H191 H 1.2150 0.0773 1.3517
H192 H 1.1946 0.0429 1.4099
C207 C 1.2678(14) 0.0920(9) 1.4394(14)
H193 H 1.2824 0.0738 1.4784
H194 H 1.3091 0.1053 1.4200
C208 C 1.2227(15) 0.1310(9) 1.4605(15)
H195 H 1.2476 0.1505 1.4923
H196 H 1.1820 0.1181 1.4807
H197 H 1.2089 0.1497 1.4223
C209 C 1.1930(13) -0.4511(7) 0.8458(13)
H198 H 1.1577 -0.4647 0.8159
H199 H 1.1692 -0.4371 0.8830
C210 C 1.0143(15) 0.0408(9) 1.3613(14)
H200 H 1.0342 0.0546 1.4019
H201 H 1.0537 0.0264 1.3398
C211 C 1.263(3) -0.5229(13) 0.818(2)
H202 H 1.2225 -0.5378 0.7962
H203 H 1.2856 -0.5039 0.7844
C212 C 1.239(2) -0.4909(10) 0.8723(17)
H204 H 1.2789 -0.4774 0.8958
H205 H 1.2128 -0.5094 0.9041
C213 C 1.006(2) 0.0848(12) 1.3197(18)
H206 H 1.0493 0.1023 1.3211
H207 H 0.9698 0.1042 1.3370
H208 H 0.9948 0.0762 1.2743
C214 C 1.312(2) -0.5606(13) 0.842(3)
H209 H 1.3215 -0.5820 0.8063
H210 H 1.2911 -0.5778 0.8779
H211 H 1.3544 -0.5462 0.8582
C215 C 1.8639(12) -0.2129(9) 0.446(2)
H212 H 1.8430 -0.2107 0.4016
H213 H 1.8325 -0.2308 0.4737
C216 C 1.9331(13) -0.2385(10) 0.443(2)
H214 H 1.9278 -0.2665 0.4162
H215 H 1.9484 -0.2473 0.4876
H216 H 1.9670 -0.2179 0.4240
Cd1_2 Cd 1.86022(7) 0.17935(5) 0.76594(7)
Cd1A Cd 1.13978(7) -0.32065(5) 1.23406(7)
Cd3_2 Cd 1.27285(7) -0.35408(5) 1.34697(6)
Cd3A Cd 1.72715(7) 0.14592(5) 0.65303(6)
O15_2 O 0.8371(7) 0.1177(4) 0.6971(6)
O15A O 1.1629(7) -0.3823(4) 0.3029(6)
O16_2 O 0.9115(8) 0.1002(5) 0.7717(9)
O31_2 O 1.1952(6) -0.2929(4) 0.3310(6)
O31A O 0.8048(6) 0.2071(4) 0.6690(6)
O32_2 O 1.2866(7) -0.2734(4) 0.3875(6)
O33 O 1.4028(9) -0.0166(6) 1.0470(9)
N9 N 1.4504(10) -0.0619(7) 0.9699(11)
C217 C 1.4381(14) -0.0980(9) 0.9240(12)
H217 H 1.4798 -0.1040 0.8999
H218 H 1.4014 -0.0886 0.8932
H219 H 1.4246 -0.1263 0.9469
C218 C 1.5224(11) -0.0445(9) 0.9827(14)
H220 H 1.5525 -0.0576 0.9499
H221 H 1.5382 -0.0542 1.0265
H222 H 1.5230 -0.0105 0.9798
C219 C 1.3950(14) -0.0492(8) 1.0059(12)
H223 H 1.3523 -0.0645 1.0000
O34 O 1.1584(18) 0.2161(10) 1.1510(12)
N10 N 1.084(2) 0.1499(12) 1.1589(14)
C220 C 1.022(2) 0.1233(14) 1.1434(18)
H224 H 1.0299 0.0906 1.1550
H225 H 1.0115 0.1257 1.0964
H226 H 0.9844 0.1356 1.1682
C221 C 1.146(2) 0.1231(14) 1.1668(18)
H227 H 1.1348 0.0901 1.1717
H228 H 1.1718 0.1338 1.2058
H229 H 1.1740 0.1272 1.1281
C222 C 1.100(2) 0.1982(13) 1.1474(18)
H230 H 1.0628 0.2182 1.1360
O35 O 0.9650(14) 0.2722(9) 0.1439(13)
N11 N 0.9328(16) 0.2944(10) 0.0405(15)
C223 C 0.9223(19) 0.2489(11) 0.0096(19)
H231 H 0.9044 0.2532 -0.0353
H232 H 0.8896 0.2309 0.0346
H233 H 0.9659 0.2322 0.0087
C224 C 0.909(2) 0.3288(13) -0.0043(17)
H234 H 0.8936 0.3139 -0.0451
H235 H 0.9467 0.3503 -0.0134
H236 H 0.8716 0.3460 0.0147
C225 C 0.957(2) 0.3023(13) 0.1037(15)
H237 H 0.9683 0.3333 0.1160
O36 O 0.3739(12) 0.0750(10) 0.5775(14)
N12 N 0.4669(14) 0.0315(11) 0.6168(17)
C226 C 0.4943(18) -0.0090(13) 0.645(2)
H238 H 0.5437 -0.0052 0.6521
H239 H 0.4855 -0.0354 0.6157
H240 H 0.4730 -0.0148 0.6871
C227 C 0.5115(17) 0.0720(12) 0.620(2)
H241 H 0.5583 0.0620 0.6304
H242 H 0.4960 0.0933 0.6538
H243 H 0.5101 0.0879 0.5774
C228 C 0.4001(16) 0.0397(13) 0.600(2)
H244 H 0.3698 0.0145 0.6070
O37 O 1.3831(16) 0.0921(12) 1.2894(19)
N13 N 1.3521(19) 0.1693(14) 1.308(2)
C229 C 1.333(2) 0.1686(16) 1.237(3)
H245 H 1.3127 0.1986 1.2242
H246 H 1.2998 0.1437 1.2281
H247 H 1.3738 0.1631 1.2113
C230 C 1.383(2) 0.1303(18) 1.334(3)
H248 H 1.4017 0.1289 1.3767
C231 C 1.345(2) 0.2152(16) 1.365(2)
H249 H 1.3238 0.2422 1.3428
H250 H 1.3900 0.2235 1.3822
H251 H 1.3159 0.2051 1.4005
loop_
_geom_bond_atom_site_label_1
_geom_bond_atom_site_label_2
_geom_bond_site_symmetry_1
_geom_bond_site_symmetry_2
Cd1 O5 1_555 1_555
Cd2 O7 1_555 1_555
Cd3 O21 1_555 1_555
Cd4 O7 1_555 1_555
O1 H1 1_555 1_555
O2 C26 1_555 1_555
O3 H2 1_555 1_555
O4 C28 1_555 1_555
O5 C29 1_555 1_555
O6 Cd1 1_555 1_555
O7 C30 1_555 1_555
O8 Cd2 1_555 1_555
O9 H3 1_555 1_555
O10 C64 1_555 1_555
O11 H4 1_555 1_555
O12 C66 1_555 1_555
O13 Cd2 1_555 1_555
O14 Cd2 1_555 1_555
O15 C68 1_555 1_555
O16 C68 1_555 1_555
O17 H5 1_555 1_555
O18 C99 1_555 1_555
O19 H6 1_555 1_555
O20 C101 1_555 1_555
O21 C102 1_555 1_555
O22 Cd3 1_555 1_555
O23 Cd2 1_555 1_555
O24 Cd4 1_555 1_555
O25 H7 1_555 1_555
O26 C73 1_555 1_555
O27 H8 1_555 1_555
O28 C131 1_555 1_555
O29 Cd4 1_555 1_555
O30 Cd4 1_555 1_555
O31 C133 1_555 1_555
O32 C133 1_555 1_555
N1 Cd1 1_555 1_555
N2 Cd1 1_555 1_555
N3 Cd2 1_555 1_555
N4 Cd2 1_555 1_555
N5 Cd3 1_555 1_555
N6 Cd3 1_555 1_555
N7 Cd4 1_555 1_555
N8 Cd4 1_555 1_555
C1 C2 1_555 1_555
C2 H9 1_555 1_555
H10 C2 1_555 1_555
C3 C2 1_555 1_555
C4 C3 1_555 1_555
H11 C4 1_555 1_555
C5 C4 1_555 1_555
C6 C5 1_555 1_555
H12 C6 1_555 1_555
C7 C6 1_555 1_555
C8 C7 1_555 1_555
H13 C8 1_555 1_555
H14 C8 1_555 1_555
C9 C8 1_555 1_555
C10 C9 1_555 1_555
H15 C10 1_555 1_555
C11 C10 1_555 1_555
H16 C11 1_555 1_555
C12 C11 1_555 1_555
H17 C12 1_555 1_555
C13 C12 1_555 1_555
C14 C13 1_555 1_555
H18 C14 1_555 1_555
H19 C14 1_555 1_555
C15 C14 1_555 1_555
C16 C15 1_555 1_555
H20 C16 1_555 1_555
C17 C16 1_555 1_555
C18 C17 1_555 1_555
H21 C18 1_555 1_555
C19 C18 1_555 1_555
C20 C19 1_555 1_555
H22 C20 1_555 1_555
H23 C20 1_555 1_555
C21 C20 1_555 1_555
C22 C21 1_555 1_555
H24 C22 1_555 1_555
C23 C22 1_555 1_555
H25 C23 1_555 1_555
C24 C1 1_555 1_555
H26 C24 1_555 1_555
C25 O1 1_555 1_555
C26 C1 1_555 1_555
C27 O3 1_555 1_555
C28 C9 1_555 1_555
C29 O6 1_555 1_555
C30 O8 1_555 1_555
C31 O2 1_555 1_555
H27 C31 1_555 1_555
H28 C31 1_555 1_555
C32 C31 1_555 1_555
H29 C32 1_555 1_555
H30 C32 1_555 1_555
C33 C32 1_555 1_555
H31 C33 1_555 1_555
H32 C33 1_555 1_555
C34 C33 1_555 1_555
H33 C34 1_555 1_555
H34 C34 1_555 1_555
H35 C34 1_555 1_555
C35 O4 1_555 1_555
H36 C35 1_555 1_555
H37 C35 1_555 1_555
C36 C35 1_555 1_555
H38 C36 1_555 1_555
H39 C36 1_555 1_555
C37 C36 1_555 1_555
H40 C37 1_555 1_555
H41 C37 1_555 1_555
C38 C37 1_555 1_555
H42 C38 1_555 1_555
H43 C38 1_555 1_555
H44 C38 1_555 1_555
C39 C40 1_555 1_555
C40 H45 1_555 1_555
H46 C40 1_555 1_555
C41 C40 1_555 1_555
C42 C41 1_555 1_555
H47 C42 1_555 1_555
C43 C42 1_555 1_555
C44 C43 1_555 1_555
H48 C44 1_555 1_555
C45 C44 1_555 1_555
C46 C45 1_555 1_555
H49 C46 1_555 1_555
H50 C46 1_555 1_555
C47 C46 1_555 1_555
C48 C47 1_555 1_555
H51 C48 1_555 1_555
C49 C48 1_555 1_555
H52 C49 1_555 1_555
C50 C49 1_555 1_555
H53 C50 1_555 1_555
C51 C50 1_555 1_555
C52 C51 1_555 1_555
H54 C52 1_555 1_555
H55 C52 1_555 1_555
C53 C52 1_555 1_555
C54 C53 1_555 1_555
H56 C54 1_555 1_555
C55 C54 1_555 1_555
C56 C55 1_555 1_555
H57 C56 1_555 1_555
C57 C56 1_555 1_555
C58 C57 1_555 1_555
H58 C58 1_555 1_555
H59 C58 1_555 1_555
C59 C58 1_555 1_555
C60 C59 1_555 1_555
H60 C60 1_555 1_555
C61 C60 1_555 1_555
H61 C61 1_555 1_555
C62 C39 1_555 1_555
H62 C62 1_555 1_555
C63 O9 1_555 1_555
C64 C39 1_555 1_555
C65 O11 1_555 1_555
C66 C47 1_555 1_555
C67 O13 1_555 1_555
C68 C55 1_555 1_555
C69 H63 1_555 1_555
H64 C69 1_555 1_555
C70 C69 1_555 1_555
H65 C70 1_555 1_555
H66 C70 1_555 1_555
H67 C70 1_555 1_555
C71 O12 1_555 1_555
H68 C71 1_555 1_555
H69 C71 1_555 1_555
C72 C71 1_555 1_555
H70 C72 1_555 1_555
H71 C72 1_555 1_555
C73 H72 1_555 1_555
H73 C73 1_555 1_555
C74 C75 1_555 1_555
C75 H74 1_555 1_555
H75 C75 1_555 1_555
C76 C75 1_555 1_555
C77 C76 1_555 1_555
H76 C77 1_555 1_555
C78 C77 1_555 1_555
C79 C78 1_555 1_555
H77 C79 1_555 1_555
C80 C79 1_555 1_555
C81 C80 1_555 1_555
H78 C81 1_555 1_555
H79 C81 1_555 1_555
C82 C81 1_555 1_555
C83 C82 1_555 1_555
H80 C83 1_555 1_555
C84 C83 1_555 1_555
H81 C84 1_555 1_555
C85 C84 1_555 1_555
H82 C85 1_555 1_555
C86 C85 1_555 1_555
C87 C86 1_555 1_555
H83 C87 1_555 1_555
H84 C87 1_555 1_555
C88 C87 1_555 1_555
C89 C88 1_555 1_555
H85 C89 1_555 1_555
C90 C89 1_555 1_555
C91 C90 1_555 1_555
H86 C91 1_555 1_555
C92 C91 1_555 1_555
C93 C92 1_555 1_555
H87 C93 1_555 1_555
H88 C93 1_555 1_555
C94 C93 1_555 1_555
C95 C94 1_555 1_555
H89 C95 1_555 1_555
C96 C95 1_555 1_555
H90 C96 1_555 1_555
C97 C74 1_555 1_555
H91 C97 1_555 1_555
C98 O17 1_555 1_555
C99 C74 1_555 1_555
C100 O19 1_555 1_555
C101 C82 1_555 1_555
C102 O22 1_555 1_555
C103 O23 1_555 1_555
C104 C105 1_555 1_555
C105 H92 1_555 1_555
H93 C105 1_555 1_555
C106 C105 1_555 1_555
C107 C106 1_555 1_555
H94 C107 1_555 1_555
C108 C107 1_555 1_555
C109 C108 1_555 1_555
H95 C109 1_555 1_555
C110 C109 1_555 1_555
C111 C110 1_555 1_555
H96 C111 1_555 1_555
H97 C111 1_555 1_555
C112 C111 1_555 1_555
C113 C112 1_555 1_555
H98 C113 1_555 1_555
C114 C113 1_555 1_555
H99 C114 1_555 1_555
C115 C114 1_555 1_555
H100 C115 1_555 1_555
C116 C115 1_555 1_555
C117 C116 1_555 1_555
H101 C117 1_555 1_555
H102 C117 1_555 1_555
C118 C117 1_555 1_555
C119 C118 1_555 1_555
H103 C119 1_555 1_555
C120 C119 1_555 1_555
C121 C120 1_555 1_555
H104 C121 1_555 1_555
C122 C121 1_555 1_555
C123 C122 1_555 1_555
H105 C123 1_555 1_555
H106 C123 1_555 1_555
C124 C123 1_555 1_555
C125 C124 1_555 1_555
H107 C125 1_555 1_555
C126 C125 1_555 1_555
H108 C126 1_555 1_555
C127 C104 1_555 1_555
H109 C127 1_555 1_555
C128 O25 1_555 1_555
C129 O26 1_555 1_555
C130 O27 1_555 1_555
C131 C112 1_555 1_555
C132 O29 1_555 1_555
C133 C120 1_555 1_555
C134 N1 1_555 1_555
H110 C134 1_555 1_555
C135 C134 1_555 1_555
C136 C135 1_555 1_555
C137 C136 1_555 1_555
C138 C137 1_555 1_555
H111 C138 1_555 1_555
C139 C138 1_555 1_555
H112 C139 1_555 1_555
C140 C139 1_555 1_555
C141 C140 1_555 1_555
C142 C141 1_555 1_555
C143 N2 1_555 1_555
H113 C143 1_555 1_555
C144 N2 1_555 1_555
C145 N1 1_555 1_555
C146 C135 1_555 1_555
H114 C146 1_555 1_555
H115 C146 1_555 1_555
H116 C146 1_555 1_555
C147 C136 1_555 1_555
H117 C147 1_555 1_555
H118 C147 1_555 1_555
H119 C147 1_555 1_555
C148 C141 1_555 1_555
H120 C148 1_555 1_555
H121 C148 1_555 1_555
H122 C148 1_555 1_555
C149 C142 1_555 1_555
H123 C149 1_555 1_555
H124 C149 1_555 1_555
H125 C149 1_555 1_555
C150 N3 1_555 1_555
H126 C150 1_555 1_555
C151 C150 1_555 1_555
C152 C151 1_555 1_555
C153 C152 1_555 1_555
C154 C153 1_555 1_555
H127 C154 1_555 1_555
C155 C154 1_555 1_555
H128 C155 1_555 1_555
C156 C155 1_555 1_555
C157 C156 1_555 1_555
C158 C157 1_555 1_555
C159 N4 1_555 1_555
H129 C159 1_555 1_555
C160 N4 1_555 1_555
C161 N3 1_555 1_555
C162 C151 1_555 1_555
H130 C162 1_555 1_555
H131 C162 1_555 1_555
H132 C162 1_555 1_555
C163 C152 1_555 1_555
H133 C163 1_555 1_555
H134 C163 1_555 1_555
H135 C163 1_555 1_555
C164 C157 1_555 1_555
H136 C164 1_555 1_555
H137 C164 1_555 1_555
H138 C164 1_555 1_555
C165 C158 1_555 1_555
H139 C165 1_555 1_555
H140 C165 1_555 1_555
H141 C165 1_555 1_555
C166 N5 1_555 1_555
H142 C166 1_555 1_555
C167 C166 1_555 1_555
C168 C167 1_555 1_555
C169 C168 1_555 1_555
C170 C169 1_555 1_555
H143 C170 1_555 1_555
C171 C170 1_555 1_555
H144 C171 1_555 1_555
C172 C171 1_555 1_555
C173 C172 1_555 1_555
C174 C173 1_555 1_555
C175 N6 1_555 1_555
H145 C175 1_555 1_555
C176 N6 1_555 1_555
C177 N5 1_555 1_555
C178 C167 1_555 1_555
H146 C178 1_555 1_555
H147 C178 1_555 1_555
H148 C178 1_555 1_555
C179 C168 1_555 1_555
H149 C179 1_555 1_555
H150 C179 1_555 1_555
H151 C179 1_555 1_555
C180 C173 1_555 1_555
H152 C180 1_555 1_555
H153 C180 1_555 1_555
H154 C180 1_555 1_555
C181 C174 1_555 1_555
H155 C181 1_555 1_555
H156 C181 1_555 1_555
H157 C181 1_555 1_555
C182 N7 1_555 1_555
H158 C182 1_555 1_555
C183 C182 1_555 1_555
C184 C183 1_555 1_555
C185 C184 1_555 1_555
C186 C185 1_555 1_555
H159 C186 1_555 1_555
C187 C186 1_555 1_555
H160 C187 1_555 1_555
C188 C187 1_555 1_555
C189 C188 1_555 1_555
C190 C189 1_555 1_555
C191 N8 1_555 1_555
H161 C191 1_555 1_555
C192 N8 1_555 1_555
C193 N7 1_555 1_555
C194 C183 1_555 1_555
H162 C194 1_555 1_555
H163 C194 1_555 1_555
H164 C194 1_555 1_555
C195 C184 1_555 1_555
H165 C195 1_555 1_555
H166 C195 1_555 1_555
H167 C195 1_555 1_555
C196 C189 1_555 1_555
H168 C196 1_555 1_555
H169 C196 1_555 1_555
H170 C196 1_555 1_555
C197 C190 1_555 1_555
H171 C197 1_555 1_555
H172 C197 1_555 1_555
H173 C197 1_555 1_555
C198 O10 1_555 1_555
H174 C198 1_555 1_555
H175 C198 1_555 1_555
C199 C69 1_555 1_555
H176 C199 1_555 1_555
H177 C199 1_555 1_555
C200 O20 1_555 1_555
H178 C200 1_555 1_555
H179 C200 1_555 1_555
C201 C200 1_555 1_555
H180 C201 1_555 1_555
H181 C201 1_555 1_555
C202 C201 1_555 1_555
H182 C202 1_555 1_555
H183 C202 1_555 1_555
C203 C202 1_555 1_555
H184 C203 1_555 1_555
H185 C203 1_555 1_555
H186 C203 1_555 1_555
C204 H187 1_555 1_555
H188 C204 1_555 1_555
C205 O28 1_555 1_555
H189 C205 1_555 1_555
H190 C205 1_555 1_555
C206 C73 1_555 1_555
H191 C206 1_555 1_555
H192 C206 1_555 1_555
C207 C206 1_555 1_555
H193 C207 1_555 1_555
H194 C207 1_555 1_555
C208 C207 1_555 1_555
H195 C208 1_555 1_555
H196 C208 1_555 1_555
H197 C208 1_555 1_555
C209 O18 1_555 1_555
H198 C209 1_555 1_555
H199 C209 1_555 1_555
C210 C204 1_555 1_555
H200 C210 1_555 1_555
H201 C210 1_555 1_555
C211 H202 1_555 1_555
H203 C211 1_555 1_555
C212 C209 1_555 1_555
H204 C212 1_555 1_555
H205 C212 1_555 1_555
C213 C210 1_555 1_555
H206 C213 1_555 1_555
H207 C213 1_555 1_555
H208 C213 1_555 1_555
C214 C211 1_555 1_555
H209 C214 1_555 1_555
H210 C214 1_555 1_555
H211 C214 1_555 1_555
C215 C72 1_555 1_555
H212 C215 1_555 1_555
H213 C215 1_555 1_555
C216 C215 1_555 1_555
H214 C216 1_555 1_555
H215 C216 1_555 1_555
H216 C216 1_555 1_555
O33 C219 1_555 1_555
N9 C217 1_555 1_555
C217 H217 1_555 1_555
H218 C217 1_555 1_555
H219 C217 1_555 1_555
C218 N9 1_555 1_555
H220 C218 1_555 1_555
H221 C218 1_555 1_555
H222 C218 1_555 1_555
C219 N9 1_555 1_555
H223 C219 1_555 1_555
O34 C222 1_555 1_555
N10 C220 1_555 1_555
C220 H224 1_555 1_555
H225 C220 1_555 1_555
H226 C220 1_555 1_555
C221 N10 1_555 1_555
H227 C221 1_555 1_555
H228 C221 1_555 1_555
H229 C221 1_555 1_555
C222 N10 1_555 1_555
H230 C222 1_555 1_555
O35 C225 1_555 1_555
N11 C223 1_555 1_555
C223 H231 1_555 1_555
H232 C223 1_555 1_555
H233 C223 1_555 1_555
C224 N11 1_555 1_555
H234 C224 1_555 1_555
H235 C224 1_555 1_555
H236 C224 1_555 1_555
C225 N11 1_555 1_555
H237 C225 1_555 1_555
O36 C228 1_555 1_555
N12 C226 1_555 1_555
C226 H238 1_555 1_555
H239 C226 1_555 1_555
H240 C226 1_555 1_555
C227 N12 1_555 1_555
H241 C227 1_555 1_555
H242 C227 1_555 1_555
H243 C227 1_555 1_555
C228 N12 1_555 1_555
H244 C228 1_555 1_555
O37 C230 1_555 1_555
N13 C229 1_555 1_555
C229 H245 1_555 1_555
H246 C229 1_555 1_555
H247 C229 1_555 1_555
C230 N13 1_555 1_555
H248 C230 1_555 1_555
C231 N13 1_555 1_555
H249 C231 1_555 1_555
H250 C231 1_555 1_555
H251 C231 1_555 1_555
Cd1_2 O15 1_555 1_555
Cd1A O31 1_555 1_555
Cd3_2 O31 1_555 1_555
Cd3A O15 1_555 1_555
O15_2 Cd1 1_555 1_555
O15A Cd3 1_555 1_555
O16_2 Cd1 1_555 1_555
O31_2 Cd3 1_555 1_555
O31A Cd1 1_555 1_555
O32_2 Cd3 1_555 1_555
Cd4 O23 1_555 1_555
O14 C67 1_555 1_555
O16 Cd1_2 1_555 1_555
O24 C103 1_555 1_555
O30 C132 1_555 1_555
O32 Cd3_2 1_555 1_555
C3 C25 1_555 1_555
C5 C29 1_555 1_555
C7 C25 1_555 1_555
C13 C28 1_555 1_555
C15 C27 1_555 1_555
C17 C30 1_555 1_555
C19 C27 1_555 1_555
C21 C26 1_555 1_555
C23 C24 1_555 1_555
C41 C63 1_555 1_555
C43 C67 1_555 1_555
C45 C63 1_555 1_555
C51 C66 1_555 1_555
C53 C65 1_555 1_555
C57 C65 1_555 1_555
C59 C64 1_555 1_555
C61 C62 1_555 1_555
C76 C98 1_555 1_555
C78 C102 1_555 1_555
C80 C98 1_555 1_555
C86 C101 1_555 1_555
C88 C100 1_555 1_555
C90 C103 1_555 1_555
C92 C100 1_555 1_555
C94 C99 1_555 1_555
C96 C97 1_555 1_555
C104 C129 1_555 1_555
C106 C128 1_555 1_555
C108 C132 1_555 1_555
C110 C128 1_555 1_555
C116 C131 1_555 1_555
C118 C130 1_555 1_555
C122 C130 1_555 1_555
C124 C129 1_555 1_555
C126 C127 1_555 1_555
C137 C145 1_555 1_555
C140 C144 1_555 1_555
C142 C143 1_555 1_555
C144 C145 1_555 1_555
C153 C161 1_555 1_555
C156 C160 1_555 1_555
C158 C159 1_555 1_555
C160 C161 1_555 1_555
C169 C177 1_555 1_555
C172 C176 1_555 1_555
C174 C175 1_555 1_555
C176 C177 1_555 1_555
C185 C193 1_555 1_555
C188 C192 1_555 1_555
C190 C191 1_555 1_555
C192 C193 1_555 1_555
C198 C199 1_555 1_555
C204 C205 1_555 1_555
C211 C212 1_555 1_555

#END
