
#######################################################################
#
#                 Cambridge Crystallographic Data Centre
#                                CCDC 
#
#######################################################################
#
# If this CIF has been generated from an entry in the Cambridge 
# Structural Database, then it will include bibliographic, chemical, 
# crystal, experimental, refinement or atomic coordinate data resulting 
# from the CCDC's data processing and validation procedures.
#
#######################################################################

data_FODYUT
_chemical_formula_moiety         '(C20 H68 N8 O48 P12 Zn8)n'
_symmetry_cell_setting           orthorhombic
_symmetry_space_group_name_H-M   'P c a 21'
_symmetry_Int_Tables_number      29
_space_group_name_Hall           'P 2c -2ac'
loop_
_symmetry_equiv_pos_site_id
_symmetry_equiv_pos_as_xyz
1 x,y,z
2 -x,-y,1/2+z
3 1/2-x,y,1/2+z
4 1/2+x,-y,z
_cell_length_a                   14.6595(9)
_cell_length_b                   14.5575(10)
_cell_length_c                   28.114(2)
_cell_angle_alpha                90
_cell_angle_beta                 90
_cell_angle_gamma                90
_cell_volume                     5999.69
loop_
_atom_site_label
_atom_site_type_symbol
_atom_site_fract_x
_atom_site_fract_y
_atom_site_fract_z
Zn1 Zn 0.53194(4) 1.02257(5) 0.03437(2)
Zn2 Zn 0.48421(4) 1.38625(5) 0.08520(2)
Zn3 Zn 0.45438(4) 1.51868(5) -0.10646(2)
Zn4 Zn 0.59111(3) 1.14623(4) -0.16438(2)
Zn5 Zn 0.40005(4) 1.00855(5) 0.15009(2)
Zn6 Zn 0.49597(3) 0.88809(5) -0.15557(2)
Zn7 Zn 0.38527(4) 0.64972(4) 0.09104(2)
Zn8 Zn 0.41299(4) 1.49594(5) 0.27892(2)
P1 P 0.46870(8) 0.84777(9) 0.08804(6)
P2 P 0.43591(9) 1.50717(11) 0.17335(5)
P3 P 0.50738(8) 1.34111(10) -0.16065(5)
P4 P 0.44476(9) 1.52128(11) 0.00386(5)
P5 P 0.55263(8) 1.00755(11) -0.24347(5)
P6 P 0.52870(10) 1.02242(11) -0.07381(5)
P7 P 0.53970(8) 0.67975(10) -0.16327(6)
P8 P 0.43479(8) 1.18209(9) 0.08813(6)
P9 P 0.28351(8) 1.47281(10) -0.17134(5)
P10 P 0.72290(8) 0.98027(11) 0.08246(5)
P11 P 0.69180(9) 1.44737(11) 0.10321(6)
P12 P 0.78596(18) 1.0457(2) -0.15680(11)
O1 O 0.6373(2) 1.0363(3) 0.07555(14)
O2 O 0.4765(2) 0.9039(3) 0.13382(15)
O3 O 0.3688(2) 1.5032(3) 0.21461(14)
O4 O 0.5910(2) 1.2799(3) -0.16042(17)
O5 O 0.5841(2) 1.0328(3) -0.02845(15)
O6 O 0.4646(3) 0.9089(3) 0.04433(15)
O7 O 0.5400(3) 1.1059(3) -0.22461(15)
O8 O 0.5028(2) 1.4060(3) -0.20383(15)
O9 O 0.3884(2) 0.7820(3) 0.08846(19)
O10 O 0.3416(2) 1.5388(3) -0.14302(14)
O11 O 0.6226(2) 1.0018(3) -0.28225(14)
O12 O 0.4979(3) 1.3946(3) -0.11498(14)
O13 O 0.3987(2) 1.5238(3) -0.04382(14)
O14 O 0.4392(3) 1.1309(3) 0.13476(15)
O15 O 0.5544(3) 0.9313(3) -0.09795(16)
O16 O 0.4363(3) 1.5973(3) 0.14780(17)
O17 O 0.4165(3) 1.4351(4) 0.03070(18)
O18 O 0.5303(3) 0.6223(3) -0.11863(15)
O19 O 0.4738(2) 0.7600(3) -0.16453(16)
O20 O 0.3398(2) 1.2340(3) 0.08472(19)
H1 H 0.300(3) 1.189(3) 0.086(3)
O21 O 0.5562(2) 0.7864(3) 0.08536(19)
H2 H 0.607(3) 0.821(4) 0.089(3)
O22 O 0.5057(2) 1.2569(3) 0.08486(18)
O23 O 0.4258(3) 1.0161(3) -0.05703(17)
O24 O 0.2805(2) 1.3782(3) -0.14801(18)
O25 O 0.4584(2) 0.9795(3) -0.26581(18)
O26 O 0.7533(3) 1.3682(3) 0.0916(2)
O27 O 0.4237(2) 1.2740(3) -0.16641(17)
H3 H 0.371(2) 1.300(4) -0.158(2)
O28 O 0.5767(2) 0.9427(3) -0.20297(15)
O29 O 0.7383(3) 1.5397(3) 0.0869(2)
H4 H 0.795(2) 1.538(5) 0.097(2)
O30 O 0.5496(3) 1.5145(4) -0.00722(17)
H5 H 0.588(4) 1.492(5) 0.0147(19)
O31 O 0.7816(2) 1.0202(3) 0.12103(14)
O32 O 0.7045(2) 0.8791(3) 0.0919(2)
O33 O 0.5289(3) 0.6226(3) -0.20856(14)
O34 O 0.4170(3) 1.4277(3) 0.14002(19)
O35 O 0.5378(3) 1.1022(4) -0.10649(17)
O36 O 0.5312(3) 1.4959(4) 0.19779(17)
H6 H 0.583(3) 1.484(5) 0.182(2)
O37 O 0.6040(2) 1.4438(3) 0.07446(15)
O38 O 0.4401(3) 1.1157(3) 0.04644(15)
O39 O 0.7775(3) 0.9848(4) 0.03342(14)
O40 O 0.6740(3) 1.4546(4) 0.15607(17)
O41 O 0.3297(2) 1.4607(3) -0.22257(13)
H7 H 0.3894(15) 1.455(4) -0.220(2)
O42 O 0.6371(2) 0.7251(3) -0.16206(18)
H8 H 0.686(3) 0.689(4) -0.156(3)
O43 O 0.1908(2) 1.5129(3) -0.18005(14)
O44 O 0.4292(4) 1.6079(4) 0.03154(19)
O45 O 0.7505(3) 0.9544(3) -0.1692(2)
O46 O 0.7213(2) 1.1245(4) -0.1657(2)
O47 O 0.8745(5) 1.0626(6) -0.1405(3)
O49 O 0.8212(5) 1.0717(6) -0.2239(3)
Zn3_2 Zn 0.45438(4) 0.51868(5) -0.10646(2)
Zn5A Zn 0.59995(4) 0.99145(5) -0.34991(2)
Zn5C Zn 0.90005(4) 0.99145(5) 0.15009(2)
Zn6C Zn 0.99597(3) 1.11191(5) -0.15557(2)
Zn7_2 Zn 0.38527(4) 1.64972(4) 0.09104(2)
Zn7C Zn 0.88527(4) 1.35028(4) 0.09104(2)
Zn8A Zn 0.58701(4) 1.50406(5) -0.22108(2)
Zn8A_2 Zn 0.58701(4) 0.50406(5) -0.22108(2)
Zn8B Zn 0.08701(4) 1.49594(5) -0.22108(2)
O8A O 0.4972(2) 1.5940(3) 0.29617(15)
O11A O 0.3774(2) 0.9982(3) 0.21775(14)
O16_2 O 0.4363(3) 0.5973(3) 0.14780(17)
O18_2 O 0.5303(3) 1.6223(3) -0.11863(15)
O26C O 0.2533(3) 0.6318(3) 0.0916(2)
O31C O 0.2816(2) 0.9798(3) 0.12103(14)
O33A O 0.4711(3) 1.3774(3) 0.29144(14)
O43B O 0.3092(2) 1.5129(3) 0.31995(14)
O44_2 O 0.4292(4) 0.6079(4) 0.03154(19)
O47C O 0.3745(5) 0.9374(6) -0.1405(3)
C1 C 0.1942(4) 0.1412(4) 0.2170(3)
H9 H 0.1915 0.0858 0.2355
H10 H 0.2216 0.1259 0.1870
C2 C 0.2550(4) 0.2079(4) 0.2421(2)
H11 H 0.3021 0.1734 0.2578
H12 H 0.2197 0.2375 0.2664
C3 C 0.3001(4) 0.2812(4) 0.2130(2)
H13 H 0.3449 0.3113 0.2325
H14 H 0.3318 0.2524 0.1872
N1 N 0.2383(3) 0.3522(4) 0.19318(19)
H15 H 0.2707 0.3884 0.1735
H16 H 0.2181 0.3876 0.2172
C4 C 0.1576(3) 0.3159(4) 0.16664(19)
H17 H 0.1779 0.2701 0.1444
H18 H 0.1304 0.3650 0.1488
C5 C 0.0859(4) 0.2740(4) 0.1992(2)
H19 H 0.0874 0.3055 0.2292
H20 H 0.0268 0.2838 0.1855
N2 N 0.0986(3) 0.1731(3) 0.20794(16)
H21 H 0.0641 0.1572 0.2331
H22 H 0.0769 0.1425 0.1825
N3 N 0.7031(5) 0.8557(5) -0.0481(3)
H23 H 0.6705 0.8956 -0.0657
H24 H 0.7273 0.8873 -0.0236
C6 C 0.6372(6) 0.7827(8) -0.0278(3)
H25 H 0.5961 0.8132 -0.0065
H26 H 0.6015 0.7592 -0.0537
C7 C 0.6768(6) 0.7039(6) -0.0025(3)
H27 H 0.7162 0.7275 0.0219
H28 H 0.6279 0.6721 0.0132
C8 C 0.7270(5) 0.6381(5) -0.0290(3)
H29 H 0.6902 0.6198 -0.0556
H30 H 0.7351 0.5849 -0.0093
N4 N 0.8177(4) 0.6649(4) -0.0475(2)
H31 H 0.8220 0.6426 -0.0773
H32 H 0.8597 0.6350 -0.0299
C9 C 0.8458(4) 0.7627(5) -0.0493(2)
H33 H 0.9052 0.7672 -0.0635
H34 H 0.8497 0.7866 -0.0176
C10 C 0.7788(5) 0.8198(5) -0.0778(3)
H35 H 0.8106 0.8704 -0.0921
H36 H 0.7540 0.7828 -0.1029
C11 C 0.2040(5) 0.7021(7) 0.2603(3)
H37 H 0.2120 0.6548 0.2838
H38 H 0.1936 0.7587 0.2770
H39 H 0.0826 0.6615 0.2539
H40 H 0.1395 0.6337 0.2145
N6 N 0.1255(4) 0.6814(5) 0.2335(2)
C13 C 0.0836(4) 0.7509(6) 0.2039(3)
H41 H 0.0494 0.7909 0.2243
H42 H 0.0405 0.7207 0.1835
C15 C 0.1426(5) 0.8095(7) 0.1734(3)
H45 H 0.1583 0.7740 0.1458
H46 H 0.1058 0.8599 0.1625
N7 N 0.2246(6) 0.8472(7) 0.1916(3)
H49 H 0.2113 0.8738 0.2196
H50 H 0.2419 0.8924 0.1717
C17 C 0.3028(4) 0.7887(6) 0.1990(3)
H53 H 0.3521 0.8262 0.2103
H54 H 0.3209 0.7642 0.1688
C19 C 0.2914(4) 0.7110(6) 0.2324(3)
H57 H 0.3406 0.7138 0.2549
H58 H 0.2991 0.6554 0.2145
C21 C 0.3108(5) 0.6475(5) 0.4505(3)
H61 H 0.2756 0.6267 0.4772
H62 H 0.3447 0.5964 0.4380
N9 N 0.2472(8) 0.6885(10) 0.4114(4)
H65 H 0.2805 0.7249 0.3923
H66 H 0.2251 0.6422 0.3936
C23 C 0.1686(8) 0.7431(9) 0.4310(6)
H69 H 0.1316 0.7636 0.4048
H70 H 0.1317 0.7033 0.4502
C25 C 0.1953(10) 0.8251(10) 0.4602(5)
H73 H 0.2274 0.8659 0.4392
H74 H 0.1397 0.8557 0.4687
N11 N 0.2503(8) 0.8187(9) 0.5041(4)
H77 H 0.2112 0.8077 0.5281
H78 H 0.2742 0.8748 0.5092
C27 C 0.3257(9) 0.7521(10) 0.5090(4)
H81 H 0.3025 0.6991 0.5253
H82 H 0.3714 0.7791 0.5291
C29 C 0.3716(9) 0.7199(9) 0.4647(5)
H85 H 0.3747 0.7676 0.4412
H86 H 0.4319 0.6971 0.4710
loop_
_geom_bond_atom_site_label_1
_geom_bond_atom_site_label_2
_geom_bond_site_symmetry_1
_geom_bond_site_symmetry_2
Zn1 O1 1_555 1_555
Zn2 O17 1_555 1_555
Zn3 O10 1_555 1_555
Zn4 O4 1_555 1_555
Zn5 O2 1_555 1_555
Zn6 O15 1_555 1_555
Zn7 O9 1_555 1_555
Zn8 O3 1_555 1_555
P1 O2 1_555 1_555
P2 O3 1_555 1_555
P3 O4 1_555 1_555
P4 O13 1_555 1_555
P5 O7 1_555 1_555
P6 O5 1_555 1_555
P7 O18 1_555 1_555
P8 O14 1_555 1_555
P9 O10 1_555 1_555
P10 O1 1_555 1_555
P11 O26 1_555 1_555
P12 O45 1_555 1_555
O5 Zn1 1_555 1_555
O6 Zn1 1_555 1_555
O7 Zn4 1_555 1_555
O8 P3 1_555 1_555
O9 P1 1_555 1_555
O11 P5 1_555 1_555
O12 Zn3 1_555 1_555
O13 Zn3 1_555 1_555
O14 Zn5 1_555 1_555
O15 P6 1_555 1_555
O16 P2 1_555 1_555
O17 P4 1_555 1_555
O18 Zn3_2 1_555 1_555
O19 Zn6 1_555 1_555
O20 P8 1_555 1_555
H1 O20 1_555 1_555
O21 P1 1_555 1_555
H2 O21 1_555 1_555
O22 Zn2 1_555 1_555
O23 P6 1_555 1_555
O24 P9 1_555 1_555
O25 P5 1_555 1_555
O26 Zn7C 1_555 1_555
O27 P3 1_555 1_555
H3 O27 1_555 1_555
O28 Zn6 1_555 1_555
O29 P11 1_555 1_555
H4 O29 1_555 1_555
O30 P4 1_555 1_555
H5 O30 1_555 1_555
O31 P10 1_555 1_555
O32 P10 1_555 1_555
O33 P7 1_555 1_555
O34 Zn2 1_555 1_555
O35 Zn4 1_555 1_555
O36 P2 1_555 1_555
H6 O36 1_555 1_555
O37 Zn2 1_555 1_555
O38 Zn1 1_555 1_555
O39 P10 1_555 1_555
O40 P11 1_555 1_555
O41 P9 1_555 1_555
H7 O41 1_555 1_555
O42 P7 1_555 1_555
H8 O42 1_555 1_555
O43 P9 1_555 1_555
O44 P4 1_555 1_555
O46 Zn4 1_555 1_555
O47 P12 1_555 1_555
O49 P12 1_555 1_555
C1 H9 1_555 1_555
H10 C1 1_555 1_555
C2 C1 1_555 1_555
H11 C2 1_555 1_555
H12 C2 1_555 1_555
C3 C2 1_555 1_555
H13 C3 1_555 1_555
H14 C3 1_555 1_555
N1 C3 1_555 1_555
H15 N1 1_555 1_555
H16 N1 1_555 1_555
C4 N1 1_555 1_555
H17 C4 1_555 1_555
H18 C4 1_555 1_555
C5 C4 1_555 1_555
H19 C5 1_555 1_555
H20 C5 1_555 1_555
N2 C1 1_555 1_555
H21 N2 1_555 1_555
H22 N2 1_555 1_555
N3 H23 1_555 1_555
H24 N3 1_555 1_555
C6 N3 1_555 1_555
H25 C6 1_555 1_555
H26 C6 1_555 1_555
C7 C6 1_555 1_555
H27 C7 1_555 1_555
H28 C7 1_555 1_555
C8 C7 1_555 1_555
H29 C8 1_555 1_555
H30 C8 1_555 1_555
N4 C8 1_555 1_555
H31 N4 1_555 1_555
H32 N4 1_555 1_555
C9 N4 1_555 1_555
H33 C9 1_555 1_555
H34 C9 1_555 1_555
C10 N3 1_555 1_555
H35 C10 1_555 1_555
H36 C10 1_555 1_555
C11 H37 1_555 1_555
H38 C11 1_555 1_555
H39 N6 1_555 1_555
H40 N6 1_555 1_555
N6 C11 1_555 1_555
C13 N6 1_555 1_555
H41 C13 1_555 1_555
H42 C13 1_555 1_555
C15 C13 1_555 1_555
H45 C15 1_555 1_555
H46 C15 1_555 1_555
N7 C15 1_555 1_555
H49 N7 1_555 1_555
H50 N7 1_555 1_555
C17 N7 1_555 1_555
H53 C17 1_555 1_555
H54 C17 1_555 1_555
C19 C11 1_555 1_555
H57 C19 1_555 1_555
H58 C19 1_555 1_555
C21 H61 1_555 1_555
H62 C21 1_555 1_555
N9 C21 1_555 1_555
H65 N9 1_555 1_555
H66 N9 1_555 1_555
C23 N9 1_555 1_555
H69 C23 1_555 1_555
H70 C23 1_555 1_555
C25 C23 1_555 1_555
H73 C25 1_555 1_555
H74 C25 1_555 1_555
N11 C25 1_555 1_555
H77 N11 1_555 1_555
H78 N11 1_555 1_555
C27 N11 1_555 1_555
H81 C27 1_555 1_555
H82 C27 1_555 1_555
C29 C21 1_555 1_555
H85 C29 1_555 1_555
H86 C29 1_555 1_555
Zn5A O11 1_555 1_555
Zn5C O31 1_555 1_555
Zn6C O47 1_555 1_555
Zn7_2 O16 1_555 1_555
Zn8A O8 1_555 1_555
Zn8A_2 O33 1_555 1_555
Zn8B O43 1_555 1_555
O8A Zn8 1_555 1_555
O11A Zn5 1_555 1_555
O16_2 Zn7 1_555 1_555
O18_2 Zn3 1_555 1_555
O26C Zn7 1_555 1_555
O31C Zn5 1_555 1_555
O33A Zn8 1_555 1_555
O43B Zn8 1_555 1_555
O44_2 Zn7 1_555 1_555
O47C Zn6 1_555 1_555
P1 O6 1_555 1_555
P2 O34 1_555 1_555
P3 O12 1_555 1_555
P5 O28 1_555 1_555
P6 O35 1_555 1_555
P7 O19 1_555 1_555
P8 O22 1_555 1_555
P8 O38 1_555 1_555
P11 O37 1_555 1_555
P12 O46 1_555 1_555
O44 Zn7_2 1_555 1_555
C5 N2 1_555 1_555
C9 C10 1_555 1_555
C17 C19 1_555 1_555
C27 C29 1_555 1_555

#END
