
#######################################################################
#
#                 Cambridge Crystallographic Data Centre
#                                CCDC 
#
#######################################################################
#
# If this CIF has been generated from an entry in the Cambridge 
# Structural Database, then it will include bibliographic, chemical, 
# crystal, experimental, refinement or atomic coordinate data resulting 
# from the CCDC's data processing and validation procedures.
#
#######################################################################

data_RAXDAX
_chemical_formula_moiety         '(C36 H40 N10 O11 Zn2)n'
_symmetry_cell_setting           monoclinic
_symmetry_space_group_name_H-M   'P 21/n'
_symmetry_Int_Tables_number      14
_space_group_name_Hall           '-P 2yn'
loop_
_symmetry_equiv_pos_site_id
_symmetry_equiv_pos_as_xyz
1 x,y,z
2 1/2-x,1/2+y,1/2-z
3 -x,-y,-z
4 1/2+x,1/2-y,1/2+z
_cell_length_a                   9.267(4)
_cell_length_b                   13.257(6)
_cell_length_c                   16.324(7)
_cell_angle_alpha                90
_cell_angle_beta                 94.975(9)
_cell_angle_gamma                90
_cell_volume                     1997.89
loop_
_atom_site_label
_atom_site_type_symbol
_atom_site_fract_x
_atom_site_fract_y
_atom_site_fract_z
Zn1 Zn 0.26910(6) 0.84477(4) 0.18324(3)
O1 O 0.1214(4) 0.8475(3) 0.0911(2)
O2 O -0.2825(4) 0.7477(3) -0.2284(2)
N1 N 0.5195(5) 0.6966(3) 0.0291(3)
N2 N 0.4286(4) 0.7892(3) 0.1197(2)
C1 C -0.0875(5) 0.8336(3) -0.0399(3)
H1 H 0.0016 0.8026 -0.0441
C2 C -0.1106(5) 0.8888(3) 0.0297(3)
C3 C -0.1739(5) 0.7627(4) -0.1773(3)
O3 O -0.0519(4) 0.7272(3) -0.1863(2)
C4 C 0.0024(5) 0.8929(4) 0.1010(3)
N3 N -0.4884(4) 0.9745(3) -0.0305(2)
C5 C -0.1960(5) 0.8242(3) -0.1035(3)
C6 C -0.2392(5) 0.9364(4) 0.0351(3)
H2 H -0.2540 0.9745 0.0815
C7 C -0.3273(5) 0.8716(4) -0.0976(3)
H3 H -0.4008 0.8654 -0.1398
C8 C -0.3492(5) 0.9285(4) -0.0286(3)
C9 C 0.6235(5) 0.7041(4) 0.0914(3)
H4 H 0.7158 0.6760 0.0959
O4 O -0.0220(4) 0.9353(4) 0.1638(2)
C10 C 0.4042(5) 0.7473(4) 0.0465(3)
H5 H 0.3187 0.7528 0.0125
C11 C 0.5644(6) 0.7590(4) 0.1424(4)
H6 H 0.6122 0.7773 0.1926
C12 C 0.5377(7) 0.6332(4) -0.0424(4)
H7 H 0.6402 0.6239 -0.0480
H8 H 0.4956 0.6669 -0.0915
N4 N 0.3063(4) 0.9706(3) 0.2501(2)
C13 C 0.4653(7) 0.5296(5) -0.0347(4)
H9 H 0.3637 0.5392 -0.0269
H10 H 0.4713 0.4923 -0.0854
N5 N 0.4095(5) 1.0561(3) 0.3516(2)
C14 C 0.2686(5) 1.0701(4) 0.3552(3)
H11 H 0.2220 1.1088 0.3925
C15 C 0.5161(6) 1.0973(4) 0.4129(3)
H12 H 0.5070 1.1701 0.4140
H13 H 0.6126 1.0810 0.3982
C16 C 0.4319(6) 0.9966(4) 0.2892(3)
H14 H 0.5223 0.9759 0.2748
C17 C 0.2107(6) 1.0160(4) 0.2933(3)
H15 H 0.1112 1.0101 0.2810
C18 C 0.4957(6) 1.0552(4) 0.4971(3)
H16 H 0.5689 1.0840 0.5363
H17 H 0.4019 1.0765 0.5129
Zn1B Zn -1.26910(6) 1.15523(4) -0.18324(3)
Zn1A Zn -0.76910(6) 1.34477(4) 0.31676(3)
Zn1B_2 Zn 0.73090(6) 0.15523(4) -0.18324(3)
Zn1B_3 Zn 0.73090(6) 1.15523(4) 0.81676(3)
Zn1C Zn -0.23090(6) 0.65523(4) -0.31676(3)
O1B O -1.1214(4) 1.1525(3) -0.0911(2)
O2B O -0.7175(4) 1.2523(3) 0.2284(2)
O2A O -1.2175(4) 1.2477(3) -0.2716(2)
O2C O 0.2175(4) 0.7523(3) 0.2716(2)
N1B N 0.4805(5) 0.3034(3) -0.0291(3)
N2B N 0.5714(4) 0.2108(3) -0.1197(2)
N2B_2 N -1.4286(4) 1.2108(3) -0.1197(2)
C1B C -0.9125(5) 1.1664(3) 0.0399(3)
H1B H -1.0016 1.1974 0.0441
C2B C -0.8894(5) 1.1112(3) -0.0297(3)
C3B C -0.8261(5) 1.2373(4) 0.1773(3)
O3B O -0.9481(4) 1.2728(3) 0.1863(2)
C4B C -1.0024(5) 1.1071(4) -0.1010(3)
N3B N -0.5116(4) 1.0255(3) 0.0305(2)
C5B C -0.8040(5) 1.1758(3) 0.1035(3)
C6B C -0.7608(5) 1.0636(4) -0.0351(3)
H2B H -0.7460 1.0255 -0.0815
C7B C -0.6727(5) 1.1284(4) 0.0976(3)
H3B H -0.5992 1.1346 0.1398
C8B C -0.6508(5) 1.0715(4) 0.0286(3)
C9B C 0.3765(5) 0.2959(4) -0.0914(3)
H4B H 0.2842 0.3240 -0.0959
O4B O -0.9780(4) 1.0647(4) -0.1638(2)
C10B C 0.5958(5) 0.2527(4) -0.0465(3)
H5B H 0.6813 0.2472 -0.0125
C11B C 0.4356(6) 0.2410(4) -0.1424(4)
H6B H 0.3878 0.2227 -0.1926
C12B C 0.4623(7) 0.3668(4) 0.0424(4)
H7B H 0.3598 0.3761 0.0480
H8B H 0.5044 0.3331 0.0915
N4B N 0.6937(4) 1.0294(3) 0.7499(2)
N4B_2 N -1.3063(4) 1.0294(3) -0.2501(2)
C13B C 0.5347(7) 0.4704(5) 0.0347(4)
H9B H 0.6363 0.4608 0.0269
H10B H 0.5287 0.5077 0.0854
N5B N 0.5905(5) 0.9439(3) 0.6484(2)
C14B C 0.7314(5) 0.9299(4) 0.6448(3)
H11B H 0.7780 0.8912 0.6075
C15B C 0.4839(6) 0.9027(4) 0.5871(3)
H12B H 0.4930 0.8299 0.5860
H13B H 0.3874 0.9190 0.6018
C16B C 0.5681(6) 1.0034(4) 0.7108(3)
H14B H 0.4777 1.0241 0.7252
C17B C 0.7893(6) 0.9840(4) 0.7067(3)
H15B H 0.8888 0.9899 0.7190
C18B C 0.5043(6) 0.9448(4) 0.5029(3)
H16B H 0.4311 0.9160 0.4637
H17B H 0.5981 0.9235 0.4871
O5 O -0.2266(6) 0.9847(8) 0.2673(4)
O6 O 0.2273(7) 0.7123(10) -0.1333(4)
O7 O -0.6134(11) 0.7955(11) -0.2390(6)
loop_
_geom_bond_atom_site_label_1
_geom_bond_atom_site_label_2
_geom_bond_site_symmetry_1
_geom_bond_site_symmetry_2
Zn1 O1 1_555 1_555
O1 C4 1_555 1_555
O2 C3 1_555 1_555
N1 C9 1_555 1_555
N2 Zn1 1_555 1_555
C1 H1 1_555 1_555
C2 C1 1_555 1_555
C3 O3 1_555 1_555
C4 C2 1_555 1_555
N3 C8 1_555 1_555
C5 C1 1_555 1_555
C6 C2 1_555 1_555
H2 C6 1_555 1_555
C7 C5 1_555 1_555
H3 C7 1_555 1_555
C8 C6 1_555 1_555
C9 H4 1_555 1_555
O4 C4 1_555 1_555
C10 N1 1_555 1_555
H5 C10 1_555 1_555
C11 N2 1_555 1_555
H6 C11 1_555 1_555
C12 N1 1_555 1_555
H7 C12 1_555 1_555
H8 C12 1_555 1_555
N4 Zn1 1_555 1_555
C13 C12 1_555 1_555
H9 C13 1_555 1_555
H10 C13 1_555 1_555
N5 C14 1_555 1_555
C14 H11 1_555 1_555
C15 N5 1_555 1_555
H12 C15 1_555 1_555
H13 C15 1_555 1_555
C16 N4 1_555 1_555
H14 C16 1_555 1_555
C17 N4 1_555 1_555
H15 C17 1_555 1_555
C18 C15 1_555 1_555
H16 C18 1_555 1_555
H17 C18 1_555 1_555
Zn1B O1B 1_555 1_555
Zn1A O2B 1_555 1_555
Zn1B_2 N2B 1_555 1_555
Zn1B_3 N4B 1_555 1_555
Zn1C O2 1_555 1_555
O1B C4B 1_555 1_555
O2B C3B 1_555 1_555
O2A Zn1B 1_555 1_555
O2C Zn1 1_555 1_555
N1B C9B 1_555 1_555
N2B C10B 1_555 1_555
N2B_2 Zn1B 1_555 1_555
C1B H1B 1_555 1_555
C2B C1B 1_555 1_555
C3B O3B 1_555 1_555
C4B C2B 1_555 1_555
N3B N3 1_555 1_555
C5B C1B 1_555 1_555
C6B C2B 1_555 1_555
H2B C6B 1_555 1_555
C7B C5B 1_555 1_555
H3B C7B 1_555 1_555
C8B N3B 1_555 1_555
C9B H4B 1_555 1_555
O4B C4B 1_555 1_555
C10B N1B 1_555 1_555
H5B C10B 1_555 1_555
C11B N2B 1_555 1_555
H6B C11B 1_555 1_555
C12B N1B 1_555 1_555
H7B C12B 1_555 1_555
H8B C12B 1_555 1_555
N4B C16B 1_555 1_555
N4B_2 Zn1B 1_555 1_555
C13B C13 1_555 1_555
H9B C13B 1_555 1_555
H10B C13B 1_555 1_555
N5B C14B 1_555 1_555
C14B H11B 1_555 1_555
C15B N5B 1_555 1_555
H12B C15B 1_555 1_555
H13B C15B 1_555 1_555
C16B N5B 1_555 1_555
H14B C16B 1_555 1_555
C17B N4B 1_555 1_555
H15B C17B 1_555 1_555
C18B C18 1_555 1_555
H16B C18B 1_555 1_555
H17B C18B 1_555 1_555
N2 C10 1_555 1_555
C3 C5 1_555 1_555
C7 C8 1_555 1_555
C9 C11 1_555 1_555
N5 C16 1_555 1_555
C14 C17 1_555 1_555
C3B C5B 1_555 1_555
C6B C8B 1_555 1_555
C7B C8B 1_555 1_555
C9B C11B 1_555 1_555
C12B C13B 1_555 1_555
C14B C17B 1_555 1_555
C15B C18B 1_555 1_555

#END
