
#######################################################################
#
#                 Cambridge Crystallographic Data Centre
#                                CCDC 
#
#######################################################################
#
# If this CIF has been generated from an entry in the Cambridge 
# Structural Database, then it will include bibliographic, chemical, 
# crystal, experimental, refinement or atomic coordinate data resulting 
# from the CCDC's data processing and validation procedures.
#
#######################################################################

data_DUWGEJ
_chemical_formula_moiety         '(C43 H45 Cd3 N4 O27 1-)n'
_symmetry_cell_setting           monoclinic
_symmetry_space_group_name_H-M   'P 21/c'
_symmetry_Int_Tables_number      14
_space_group_name_Hall           '-P 2ybc'
loop_
_symmetry_equiv_pos_site_id
_symmetry_equiv_pos_as_xyz
1 x,y,z
2 -x,1/2+y,1/2-z
3 -x,-y,-z
4 x,1/2-y,1/2+z
_cell_length_a                   18.3148(5)
_cell_length_b                   9.4506(3)
_cell_length_c                   19.0993(5)
_cell_angle_alpha                90
_cell_angle_beta                 106.091(3)
_cell_angle_gamma                90
_cell_volume                     3176.31
loop_
_atom_site_label
_atom_site_type_symbol
_atom_site_fract_x
_atom_site_fract_y
_atom_site_fract_z
Cd1 Cd 0.284661(6) 0.558527(13) 0.444551(7)
Cd2 Cd 0.5000 0.5000 0.5000
C1 C 0.38004(13) 0.0863(2) 0.09308(12)
C2 C 0.37959(12) 0.1515(2) 0.16475(11)
C3 C 0.31130(12) 0.1968(3) 0.17503(12)
C4 C 0.30833(11) 0.2588(3) 0.23933(12)
C5 C 0.37517(10) 0.2766(2) 0.29588(11)
C6 C 0.44361(12) 0.2298(3) 0.28643(13)
C7 C 0.44600(12) 0.1685(3) 0.22102(13)
C8 C 0.37394(12) 0.3454(2) 0.36714(12)
C9 C 0.39483(11) 0.7701(2) 0.48272(13)
C10 C 0.44883(11) 0.8888(2) 0.49195(13)
C11 C 0.44818(12) 0.9990(2) 0.54148(14)
C12 C 0.49936(13) 1.1096(2) 0.54875(14)
H1 H 0.4989 1.1830 0.5811
C13 C 0.02430(14) 0.3932(4) 0.46275(18)
H2 H 0.0409 0.3213 0.4376
C14 C 0.04346(14) 0.6230(3) 0.51924(18)
C15 C 0.06726(13) 0.5133(3) 0.48135(16)
C16 C 0.14167(14) 0.5274(4) 0.46053(17)
C17 C 0.1937(3) 0.8622(6) 0.2148(3)
H3 H 0.1705 0.8602 0.2541
H4 H 0.1586 0.8266 0.1713
H5 H 0.2072 0.9578 0.2067
C18 C 0.3073(3) 0.7624(6) 0.1820(2)
H6 H 0.3504 0.7023 0.2015
H7 H 0.3245 0.8549 0.1731
H8 H 0.2765 0.7231 0.1372
C19 C 0.27893(18) 0.6989(4) 0.29291(16)
H9 H 0.3214 0.6406 0.3015
O1 O 0.44388(10) 0.0460(2) 0.08779(9)
O2 O 0.31834(11) 0.0734(2) 0.04595(9)
O3 O 0.51618(14) 0.1272(4) 0.21771(16)
H10 H 0.5129 0.0918 0.1778
O4 O 0.23926(14) 0.3053(4) 0.24430(15)
H11 H 0.2444 0.3433 0.2840
O5 O 0.31091(9) 0.39410(19) 0.36955(9)
O6 O 0.43353(10) 0.34829(18) 0.41667(9)
O7 O 0.40476(8) 0.66037(15) 0.44812(9)
O8 O 0.33763(8) 0.77862(18) 0.50729(11)
O9 O 0.39793(11) 1.0023(2) 0.58279(12)
H12 H 0.3676 0.9370 0.5708
O10 O 0.17904(10) 0.6382(2) 0.47807(13)
O11 O 0.16367(10) 0.4300(3) 0.42796(12)
O12 O 0.08233(13) 0.7433(3) 0.53670(18)
H13 H 0.1210 0.7397 0.5231
O13 O 0.24378(11) 0.6977(3) 0.33924(11)
N1 N 0.26315(19) 0.7727(4) 0.23360(16)
C9B C 0.60517(11) 1.2299(2) 0.51728(13)
C10B C 0.55117(11) 1.1112(2) 0.50805(13)
C11B C 0.55182(12) 1.0010(2) 0.45852(14)
C12B C 0.50064(13) 0.8904(2) 0.45125(14)
H1B H 0.5011 0.8170 0.4189
O7B O 0.59524(8) 1.33963(15) 0.55188(9)
O8B O 0.66237(8) 1.22138(18) 0.49271(11)
O9B O 0.60207(11) 0.9977(2) 0.41721(12)
H12B H 0.6324 1.0630 0.4292
C13B C -0.02430(14) 0.6068(4) 0.53725(18)
H2B H -0.0409 0.6787 0.5624
C14B C -0.04346(14) 0.3770(3) 0.48076(18)
C15B C -0.06726(13) 0.4867(3) 0.51865(16)
C16B C -0.14167(14) 0.4726(4) 0.53947(17)
O10B O -0.17904(10) 0.3618(2) 0.52193(13)
O11B O -0.16367(10) 0.5700(3) 0.57204(12)
O12B O -0.08233(13) 0.2567(3) 0.46330(18)
H13B H -0.1210 0.2603 0.4769
Cd1B Cd -0.284661(6) 0.441473(13) 0.555449(7)
C1B C -0.38004(13) 0.9137(2) 0.90692(12)
C2B C -0.37959(12) 0.8485(2) 0.83525(11)
C3B C -0.31130(12) 0.8032(3) 0.82497(12)
C4B C -0.30833(11) 0.7412(3) 0.76067(12)
C5B C -0.37517(10) 0.7234(2) 0.70412(11)
C6B C -0.44361(12) 0.7702(3) 0.71357(13)
C7B C -0.44600(12) 0.8315(3) 0.77898(13)
C8B C -0.37394(12) 0.6546(2) 0.63286(12)
C17B C -0.1937(3) 0.1378(6) 0.7852(3)
H3B H -0.1705 0.1398 0.7459
H4B H -0.1586 0.1734 0.8287
H5B H -0.2072 0.0422 0.7933
C18B C -0.3073(3) 0.2376(6) 0.8180(2)
H6B H -0.3504 0.2977 0.7985
H7B H -0.3245 0.1451 0.8269
H8B H -0.2765 0.2769 0.8628
C19B C -0.27893(18) 0.3011(4) 0.70709(16)
H9B H -0.3214 0.3594 0.6985
O1B O -0.44388(10) 0.9540(2) 0.91221(9)
O2B O -0.31834(11) 0.9266(2) 0.95405(9)
O3B O -0.51618(14) 0.8728(4) 0.78229(16)
H10B H -0.5129 0.9082 0.8222
O4B O -0.23926(14) 0.6947(4) 0.75570(15)
H11B H -0.2444 0.6567 0.7160
O5B O -0.31091(9) 0.60590(19) 0.63045(9)
O6B O -0.43353(10) 0.65171(18) 0.58333(9)
O13B O -0.24378(11) 0.3023(3) 0.66076(11)
N1B N -0.26315(19) 0.2273(4) 0.76640(16)
Cd1A Cd -0.284661(6) 1.058527(13) 1.055449(7)
Cd1B_2 Cd 0.715339(6) 1.441473(13) 0.555449(7)
Cd1C Cd 0.284661(6) -0.058527(13) -0.055449(7)
Cd2_2 Cd -0.5000 0.5000 0.5000
Cd2_3 Cd 0.5000 1.5000 0.5000
Cd2A Cd -0.5000 1.0000 1.0000
Cd2A_2 Cd 0.5000 0.0000 0.0000
O1A O 0.55612(10) 0.5460(2) 0.41221(9)
O1C O 0.44388(10) 0.4540(2) 0.58779(9)
O2A O -0.31834(11) 0.5734(2) 0.45405(9)
O2C O 0.31834(11) 0.4266(2) 0.54595(9)
O6B_2 O 0.56647(10) 0.65171(18) 0.58333(9)
O7B_2 O -0.40476(8) 0.33963(15) 0.55188(9)
O7B_3 O 0.59524(8) 0.33963(15) 0.55188(9)
O8B_2 O -0.33763(8) 0.22138(18) 0.49271(11)
C20 C 0.0402(7) 0.889(2) 0.3478(7)
H14 H 0.0677 0.8176 0.3771
C21 C -0.0728(8) 0.9520(18) 0.2771(9)
H15 H -0.0463 1.0403 0.2794
H16 H -0.1161 0.9647 0.2954
H17 H -0.0893 0.9202 0.2275
C22 C -0.0606(5) 0.7109(11) 0.3220(7)
H18 H -0.0218 0.6405 0.3384
H19 H -0.0916 0.6865 0.2742
H20 H -0.0915 0.7152 0.3551
O14 O 0.0771(4) 0.9874(9) 0.3487(5)
N2 N -0.0244(4) 0.8516(10) 0.3193(6)
C23 C 0.2037(3) 1.0777(8) 0.5082(4)
H21 H 0.1527 1.0519 0.5072
H22 H 0.2147 1.1705 0.5288
H23 H 0.2386 1.0108 0.5372
C24 C 0.2577(4) 1.0863(5) 0.4102(4)
H24 H 0.2381 1.0681 0.3590
H25 H 0.2965 1.0185 0.4314
H26 H 0.2788 1.1800 0.4174
N3 N 0.2109(4) 1.0776(19) 0.4368(4)
H27 H 0.1877 0.9966 0.4182
H28 H 0.1788 1.1468 0.4150
loop_
_geom_bond_atom_site_label_1
_geom_bond_atom_site_label_2
_geom_bond_site_symmetry_1
_geom_bond_site_symmetry_2
Cd1 O5 1_555 1_555
Cd2 O6 1_555 1_555
C1 C2 1_555 1_555
C2 C3 1_555 1_555
C3 C4 1_555 1_555
C4 C5 1_555 1_555
C5 C6 1_555 1_555
C6 C7 1_555 1_555
C7 C2 1_555 1_555
C8 C5 1_555 1_555
C9 C10 1_555 1_555
C10 C11 1_555 1_555
C11 C12 1_555 1_555
C12 H1 1_555 1_555
C13 H2 1_555 1_555
C14 C15 1_555 1_555
C15 C13 1_555 1_555
C16 C15 1_555 1_555
C17 H3 1_555 1_555
H4 C17 1_555 1_555
H5 C17 1_555 1_555
C18 H6 1_555 1_555
H7 C18 1_555 1_555
H8 C18 1_555 1_555
C19 H9 1_555 1_555
O1 C1 1_555 1_555
O2 C1 1_555 1_555
O3 C7 1_555 1_555
H10 O3 1_555 1_555
O4 C4 1_555 1_555
H11 O4 1_555 1_555
O5 C8 1_555 1_555
O6 C8 1_555 1_555
O7 Cd1 1_555 1_555
O8 Cd1 1_555 1_555
O9 C11 1_555 1_555
H12 O9 1_555 1_555
O10 Cd1 1_555 1_555
O11 Cd1 1_555 1_555
O12 C14 1_555 1_555
H13 O12 1_555 1_555
O13 Cd1 1_555 1_555
N1 C17 1_555 1_555
C20 H14 1_555 1_555
C21 H15 1_555 1_555
H16 C21 1_555 1_555
H17 C21 1_555 1_555
C22 H18 1_555 1_555
H19 C22 1_555 1_555
H20 C22 1_555 1_555
O14 C20 1_555 1_555
N2 C20 1_555 1_555
C23 H21 1_555 1_555
H22 C23 1_555 1_555
H23 C23 1_555 1_555
C24 H24 1_555 1_555
H25 C24 1_555 1_555
H26 C24 1_555 1_555
N3 C23 1_555 1_555
H27 N3 1_555 1_555
H28 N3 1_555 1_555
C9B C10B 1_555 1_555
C10B C12 1_555 1_555
C11B C10B 1_555 1_555
C12B C10 1_555 1_555
H1B C12B 1_555 1_555
O7B C9B 1_555 1_555
O8B C9B 1_555 1_555
O9B C11B 1_555 1_555
H12B O9B 1_555 1_555
C13B C14 1_555 1_555
H2B C13B 1_555 1_555
C14B C13 1_555 1_555
C15B C13B 1_555 1_555
C16B C15B 1_555 1_555
O10B C16B 1_555 1_555
O11B C16B 1_555 1_555
O12B C14B 1_555 1_555
H13B O12B 1_555 1_555
Cd1B O10B 1_555 1_555
C1B C2B 1_555 1_555
C2B C3B 1_555 1_555
C3B C4B 1_555 1_555
C4B C5B 1_555 1_555
C5B C6B 1_555 1_555
C6B C7B 1_555 1_555
C7B C2B 1_555 1_555
C8B C5B 1_555 1_555
C17B H3B 1_555 1_555
H4B C17B 1_555 1_555
H5B C17B 1_555 1_555
C18B H6B 1_555 1_555
H7B C18B 1_555 1_555
H8B C18B 1_555 1_555
C19B H9B 1_555 1_555
O1B C1B 1_555 1_555
O2B C1B 1_555 1_555
O3B C7B 1_555 1_555
H10B O3B 1_555 1_555
O4B C4B 1_555 1_555
H11B O4B 1_555 1_555
O5B Cd1B 1_555 1_555
O6B C8B 1_555 1_555
O13B Cd1B 1_555 1_555
N1B C17B 1_555 1_555
Cd1A O2B 1_555 1_555
Cd1B_2 O7B 1_555 1_555
Cd1C O2 1_555 1_555
Cd2_2 O6B 1_555 1_555
Cd2_3 O7B 1_555 1_555
Cd2A O1B 1_555 1_555
Cd2A_2 O1 1_555 1_555
O1A Cd2 1_555 1_555
O1C Cd2 1_555 1_555
O2A Cd1B 1_555 1_555
O2C Cd1 1_555 1_555
O6B_2 Cd2 1_555 1_555
O7B_2 Cd1B 1_555 1_555
O7B_3 Cd2 1_555 1_555
O8B_2 Cd1B 1_555 1_555
Cd2 O7 1_555 1_555
C9 O7 1_555 1_555
C9 O8 1_555 1_555
C16 O10 1_555 1_555
C16 O11 1_555 1_555
C18 N1 1_555 1_555
C19 O13 1_555 1_555
C19 N1 1_555 1_555
C21 N2 1_555 1_555
C22 N2 1_555 1_555
C24 N3 1_555 1_555
C11B C12B 1_555 1_555
O8B Cd1B_2 1_555 1_555
C14B C15B 1_555 1_555
O11B Cd1B 1_555 1_555
C8B O5B 1_555 1_555
C18B N1B 1_555 1_555
C19B O13B 1_555 1_555
C19B N1B 1_555 1_555
Cd2_2 O7B_2 1_555 1_555

#END
