
#######################################################################
#
#                 Cambridge Crystallographic Data Centre
#                                CCDC 
#
#######################################################################
#
# If this CIF has been generated from an entry in the Cambridge 
# Structural Database, then it will include bibliographic, chemical, 
# crystal, experimental, refinement or atomic coordinate data resulting 
# from the CCDC's data processing and validation procedures.
#
#######################################################################

data_IQABEJ
_chemical_formula_moiety         '(C20 H24 Co5 N6 O22 S2)n'
_symmetry_cell_setting           triclinic
_symmetry_space_group_name_H-M   'P -1'
_symmetry_Int_Tables_number      2
_space_group_name_Hall           '-P 1'
loop_
_symmetry_equiv_pos_site_id
_symmetry_equiv_pos_as_xyz
1 x,y,z
2 -x,-y,-z
_cell_length_a                   9.481(3)
_cell_length_b                   15.126(5)
_cell_length_c                   15.232(5)
_cell_angle_alpha                64.815(5)
_cell_angle_beta                 78.717(5)
_cell_angle_gamma                78.977(4)
_cell_volume                     1924.16
loop_
_atom_site_label
_atom_site_type_symbol
_atom_site_fract_x
_atom_site_fract_y
_atom_site_fract_z
Co1 Co 0.08969(12) 0.39744(8) 0.00843(8)
Co2 Co 0.59289(12) 0.00726(8) 0.39888(8)
Co3 Co -0.19985(13) 0.42110(9) 0.18581(8)
Co4 Co 0.29800(13) 0.18547(9) 0.41906(8)
Co5 Co 0.24375(15) 0.09128(10) -0.09250(9)
S1 S -0.0405(2) 0.43360(16) -0.19987(16)
S2 S 0.4641(2) -0.20230(16) 0.43538(16)
O1 O 0.0882(8) 0.2585(5) 0.0056(5)
O2 O 0.0337(7) 0.1534(5) -0.0466(5)
O3 O 0.0335(7) 0.3659(5) -0.2429(5)
O4 O 0.0551(7) 0.4547(5) -0.1474(5)
O5 O -0.1104(8) 0.5217(5) -0.2678(5)
O6 O -0.6114(7) 0.4849(5) -0.1456(5)
O7 O -0.6863(7) 0.3573(5) -0.0122(5)
O8 O 0.5459(7) -0.0463(5) 0.1539(5)
O9 O 0.5948(7) 0.0037(5) 0.2621(5)
O10 O 0.5567(7) -0.1471(4) 0.4565(5)
O11 O 0.5414(8) -0.2446(5) 0.3679(5)
O12 O 0.3928(8) -0.2714(5) 0.5225(5)
O13 O -0.1073(7) -0.1460(5) 0.4875(5)
O14 O -0.1819(6) -0.0124(5) 0.3594(4)
O15 O -0.1225(6) 0.4541(4) 0.0408(4)
H1 H -0.1908 0.4450 0.0055
O16 O -0.2594(8) 0.4291(5) 0.3248(5)
H2 H -0.1832 0.4262 0.3479
H3 H -0.3056 0.3811 0.3633
O17 O 0.3476(10) 0.1463(7) -0.0216(7)
H4 H 0.4025 0.1872 -0.0640
H5 H 0.2850 0.1749 0.0089
O18 O 0.2049(14) -0.0400(7) 0.0282(8)
H6 H 0.2697 -0.0559 0.0656
H7 H 0.2075 -0.0851 0.0085
O19 O 0.1363(11) 0.0358(7) -0.1611(7)
H8 H 0.0897 -0.0120 -0.1184
H9 H 0.1983 0.0134 -0.1990
O20 O 0.2516(9) 0.2188(6) -0.2130(6)
H10 H 0.2401 0.2086 -0.2618
H11 H 0.1842 0.2615 -0.2047
O21 O 0.3777(6) 0.0396(4) 0.4536(4)
H12 H 0.3108 0.0028 0.4450
O22 O 0.2398(8) 0.3266(5) 0.4268(5)
H13 H 0.1790 0.3613 0.3872
H14 H 0.3152 0.3554 0.4115
N1 N 0.1084(8) 0.3319(6) 0.1568(5)
N2 N -0.0132(8) 0.3270(5) 0.2245(5)
N3 N 0.1729(8) 0.2391(6) 0.3041(5)
N4 N 0.4887(8) 0.2238(5) 0.3262(5)
N5 N 0.6068(8) 0.1559(5) 0.3321(5)
N6 N 0.6752(8) 0.3055(5) 0.2388(5)
C1 C 0.0314(9) 0.2717(7) 0.3097(6)
H15 H -0.0297 0.2566 0.3686
C2 C 0.2153(10) 0.2780(7) 0.2073(6)
H16 H 0.3099 0.2681 0.1789
C3 C 0.7163(10) 0.2075(7) 0.2790(6)
H17 H 0.8111 0.1789 0.2707
C4 C 0.5315(10) 0.3106(7) 0.2709(7)
H18 H 0.4697 0.3694 0.2555
C5 C -0.1464(10) 0.2790(6) -0.0356(6)
C6 C -0.1779(10) 0.3703(6) -0.1094(6)
C7 C -0.3213(10) 0.4122(7) -0.1224(7)
H19 H -0.3411 0.4723 -0.1742
C8 C -0.4343(10) 0.3632(7) -0.0571(7)
C9 C -0.4039(11) 0.2727(7) 0.0194(7)
H20 H -0.4787 0.2402 0.0638
C10 C -0.2616(11) 0.2316(7) 0.0289(7)
H21 H -0.2419 0.1707 0.0796
C11 C 0.0033(10) 0.2260(6) -0.0265(6)
C12 C -0.5902(10) 0.4066(7) -0.0735(6)
C13 C 0.3591(9) -0.0394(7) 0.2793(6)
C14 C 0.3255(10) -0.1127(7) 0.3726(6)
C15 C 0.1816(9) -0.1222(7) 0.4132(7)
H22 H 0.1603 -0.1723 0.4742
C16 C 0.0695(10) -0.0587(7) 0.3647(6)
C17 C 0.1016(11) 0.0159(7) 0.2740(7)
H23 H 0.0274 0.0595 0.2407
C18 C 0.2455(11) 0.0251(7) 0.2330(7)
H24 H 0.2661 0.0763 0.1725
C19 C 0.5123(9) -0.0262(6) 0.2293(6)
C20 C -0.0857(10) -0.0736(7) 0.4079(7)
Co1_2 Co -0.91031(12) 0.39744(8) 0.00843(8)
Co1A Co -0.08969(12) 0.60256(8) -0.00843(8)
Co2_2 Co -0.40711(12) 0.00726(8) 0.39888(8)
Co2A Co 0.40711(12) -0.00726(8) 0.60112(8)
Co3_2 Co 0.80015(13) 0.42110(9) 0.18581(8)
Co3A Co -0.80015(13) 0.57890(9) -0.18581(8)
Co3A_2 Co 0.19985(13) 0.57890(9) -0.18581(8)
Co4A Co -0.29800(13) -0.18547(9) 0.58094(8)
Co4A_2 Co 0.70200(13) -0.18547(9) 0.58094(8)
Co5A Co 0.75625(15) -0.09128(10) 0.09250(9)
O4A O -0.0551(7) 0.5453(5) 0.1474(5)
O6A O -0.3886(7) 0.5151(5) 0.1456(5)
O7_2 O 0.3137(7) 0.3573(5) -0.0122(5)
O8A O 0.4541(7) 0.0463(5) -0.1539(5)
O10A O 0.4433(7) 0.1471(4) 0.5435(5)
O13A O 0.1073(7) 0.1460(5) 0.5125(5)
O14_2 O 0.8181(6) -0.0124(5) 0.3594(4)
O15A O 0.1225(6) 0.5459(4) -0.0408(4)
O21A O 0.6223(6) -0.0396(4) 0.5464(4)
N6_2 N -0.3248(8) 0.3055(5) 0.2388(5)
loop_
_geom_bond_atom_site_label_1
_geom_bond_atom_site_label_2
_geom_bond_site_symmetry_1
_geom_bond_site_symmetry_2
Co1 O1 1_555 1_555
Co2 O9 1_555 1_555
Co3 O15 1_555 1_555
Co4 O21 1_555 1_555
Co5 O2 1_555 1_555
S1 O3 1_555 1_555
S2 O10 1_555 1_555
O1 C11 1_555 1_555
O2 C11 1_555 1_555
O4 Co1 1_555 1_555
O5 S1 1_555 1_555
O6 C12 1_555 1_555
O7 C12 1_555 1_555
O8 C19 1_555 1_555
O9 C19 1_555 1_555
O10 Co2 1_555 1_555
O11 S2 1_555 1_555
O12 S2 1_555 1_555
O13 C20 1_555 1_555
O14 C20 1_555 1_555
O15 Co1 1_555 1_555
H1 O15 1_555 1_555
O16 Co3 1_555 1_555
H2 O16 1_555 1_555
H3 O16 1_555 1_555
O17 Co5 1_555 1_555
H4 O17 1_555 1_555
H5 O17 1_555 1_555
O18 Co5 1_555 1_555
H6 O18 1_555 1_555
H7 O18 1_555 1_555
O19 Co5 1_555 1_555
H8 O19 1_555 1_555
H9 O19 1_555 1_555
O20 Co5 1_555 1_555
H10 O20 1_555 1_555
H11 O20 1_555 1_555
O21 Co2 1_555 1_555
H12 O21 1_555 1_555
O22 Co4 1_555 1_555
H13 O22 1_555 1_555
H14 O22 1_555 1_555
N1 Co1 1_555 1_555
N2 Co3 1_555 1_555
N3 Co4 1_555 1_555
N4 Co4 1_555 1_555
N5 Co2 1_555 1_555
N6 C3 1_555 1_555
C1 N2 1_555 1_555
H15 C1 1_555 1_555
C2 N1 1_555 1_555
H16 C2 1_555 1_555
C3 N5 1_555 1_555
H17 C3 1_555 1_555
C4 N4 1_555 1_555
H18 C4 1_555 1_555
C5 C6 1_555 1_555
C6 S1 1_555 1_555
C7 C6 1_555 1_555
H19 C7 1_555 1_555
C8 C7 1_555 1_555
C9 C8 1_555 1_555
H20 C9 1_555 1_555
C10 C5 1_555 1_555
H21 C10 1_555 1_555
C11 C5 1_555 1_555
C12 C8 1_555 1_555
C13 C14 1_555 1_555
C14 S2 1_555 1_555
C15 C14 1_555 1_555
H22 C15 1_555 1_555
C16 C15 1_555 1_555
C17 C16 1_555 1_555
H23 C17 1_555 1_555
C18 C13 1_555 1_555
H24 C18 1_555 1_555
C19 C13 1_555 1_555
C20 C16 1_555 1_555
Co1_2 O7 1_555 1_555
Co1A O15 1_555 1_555
Co2_2 O14 1_555 1_555
Co2A O21 1_555 1_555
Co3_2 N6 1_555 1_555
Co3A O6 1_555 1_555
Co3A_2 O4 1_555 1_555
Co4A O13 1_555 1_555
Co4A_2 O10 1_555 1_555
Co5A O8 1_555 1_555
O4A Co3 1_555 1_555
O6A Co3 1_555 1_555
O7_2 Co1 1_555 1_555
O8A Co5 1_555 1_555
O10A Co4 1_555 1_555
O13A Co4 1_555 1_555
O14_2 Co2 1_555 1_555
O15A Co1 1_555 1_555
O21A Co2 1_555 1_555
N6_2 Co3 1_555 1_555
S1 O4 1_555 1_555
N1 N2 1_555 1_555
N3 C1 1_555 1_555
N3 C2 1_555 1_555
N4 N5 1_555 1_555
N6 C4 1_555 1_555
C9 C10 1_555 1_555
C17 C18 1_555 1_555
Co1A O4A 1_555 1_555
Co1A O15A 1_555 1_555
Co2A O10A 1_555 1_555
Co2A O21A 1_555 1_555
Co3A_2 O15A 1_555 1_555
Co4A_2 O21A 1_555 1_555

#END
