
#######################################################################
#
#                 Cambridge Crystallographic Data Centre
#                                CCDC 
#
#######################################################################
#
# If this CIF has been generated from an entry in the Cambridge 
# Structural Database, then it will include bibliographic, chemical, 
# crystal, experimental, refinement or atomic coordinate data resulting 
# from the CCDC's data processing and validation procedures.
#
#######################################################################

data_RORLIV
_chemical_formula_moiety         '(C8 H12 Cd1 Cl1 N6 P1)n'
_symmetry_cell_setting           monoclinic
_symmetry_space_group_name_H-M   'P 21/n'
_symmetry_Int_Tables_number      14
_space_group_name_Hall           '-P 2yn'
loop_
_symmetry_equiv_pos_site_id
_symmetry_equiv_pos_as_xyz
1 x,y,z
2 1/2-x,1/2+y,1/2-z
3 -x,-y,-z
4 1/2+x,1/2-y,1/2+z
_cell_length_a                   8.8694(18)
_cell_length_b                   17.827(4)
_cell_length_c                   9.4062(19)
_cell_angle_alpha                90
_cell_angle_beta                 107.25(3)
_cell_angle_gamma                90
_cell_volume                     1420.36
loop_
_atom_site_label
_atom_site_type_symbol
_atom_site_fract_x
_atom_site_fract_y
_atom_site_fract_z
Cd1 Cd 0.42282(3) 0.572939(11) 0.84954(2)
Cl1 Cl 0.69792(9) 0.51416(4) 0.98770(9)
N1 N 0.4563(4) 0.66832(15) 1.0229(3)
N2 N 0.4936(4) 0.77058(17) 1.2007(3)
N3 N 0.6778(4) 0.87420(17) 1.2280(3)
N4 N 0.3774(4) 0.48435(17) 0.6608(3)
N5 N 0.3352(5) 0.3817(2) 0.4878(4)
N6 N 0.4582(4) 0.35308(16) 0.2967(3)
C1 C 0.4790(4) 0.71707(17) 1.1038(3)
C2 C 0.5937(4) 0.82407(17) 1.2103(3)
C3 C 0.3672(4) 0.43761(19) 0.5788(4)
C4 C 0.4049(4) 0.36966(17) 0.3878(4)
Cd1B Cd 0.57718(3) 0.427061(11) 0.15046(2)
Cd1B_2 Cd 0.57718(3) 0.427061(11) 1.15046(2)
Cd1C Cd 0.92282(3) 0.927061(11) 1.34954(2)
Cl1B Cl 0.30208(9) 0.48584(4) 1.01230(9)
N3C N 0.1778(4) 0.62580(17) 0.7280(3)
N6B N 0.5418(4) 0.64692(16) 0.7033(3)
P1 P 0.55686(10) 0.86634(5) 0.74252(9)
C5 C 0.5409(5) 0.8529(2) 0.5514(4)
H1 H 0.5424 0.8002 0.5309
H2 H 0.6280 0.8770 0.5291
H3 H 0.4436 0.8743 0.4910
C6 C 0.5765(5) 0.9627(2) 0.7882(5)
H4 H 0.4857 0.9894 0.7282
H5 H 0.6698 0.9821 0.7695
H6 H 0.5845 0.9691 0.8915
C7 C 0.3857(4) 0.8306(2) 0.7769(4)
H7 H 0.3916 0.8391 0.8793
H8 H 0.3777 0.7778 0.7565
H9 H 0.2944 0.8556 0.7138
C8 C 0.7255(4) 0.8171(3) 0.8537(4)
H10 H 0.7389 0.8271 0.9570
H11 H 0.8176 0.8335 0.8286
H12 H 0.7110 0.7643 0.8353
loop_
_geom_bond_atom_site_label_1
_geom_bond_atom_site_label_2
_geom_bond_site_symmetry_1
_geom_bond_site_symmetry_2
Cd1 Cl1 1_555 1_555
Cl1 Cd1B_2 1_555 1_555
N1 Cd1 1_555 1_555
N2 C1 1_555 1_555
N3 C2 1_555 1_555
N4 Cd1 1_555 1_555
N5 C3 1_555 1_555
N6 C4 1_555 1_555
C1 N1 1_555 1_555
C2 N2 1_555 1_555
C3 N4 1_555 1_555
C4 N5 1_555 1_555
P1 C5 1_555 1_555
C5 H1 1_555 1_555
H2 C5 1_555 1_555
H3 C5 1_555 1_555
C6 P1 1_555 1_555
H4 C6 1_555 1_555
H5 C6 1_555 1_555
H6 C6 1_555 1_555
C7 P1 1_555 1_555
H7 C7 1_555 1_555
H8 C7 1_555 1_555
H9 C7 1_555 1_555
C8 P1 1_555 1_555
H10 C8 1_555 1_555
H11 C8 1_555 1_555
H12 C8 1_555 1_555
Cd1B N6 1_555 1_555
Cd1B_2 Cl1B 1_555 1_555
Cd1C N3 1_555 1_555
Cl1B Cd1 1_555 1_555
N3C Cd1 1_555 1_555
N6B Cd1 1_555 1_555

#END
