
#######################################################################
#
#                 Cambridge Crystallographic Data Centre
#                                CCDC 
#
#######################################################################
#
# If this CIF has been generated from an entry in the Cambridge 
# Structural Database, then it will include bibliographic, chemical, 
# crystal, experimental, refinement or atomic coordinate data resulting 
# from the CCDC's data processing and validation procedures.
#
#######################################################################

data_KECRAL10
_chemical_formula_moiety         'C16 Cd11 N17 O4'
_symmetry_cell_setting           orthorhombic
_symmetry_space_group_name_H-M   'A m m 2'
_symmetry_Int_Tables_number      38
_space_group_name_Hall           'A 2 -2'
loop_
_symmetry_equiv_pos_site_id
_symmetry_equiv_pos_as_xyz
1 x,y,z
2 x,1/2+y,1/2+z
3 -x,y,z
4 -x,1/2+y,1/2+z
5 x,-y,z
6 x,1/2-y,1/2+z
7 -x,-y,z
8 -x,1/2-y,1/2+z
_cell_length_a                   8.695(1)
_cell_length_b                   8.548(1)
_cell_length_c                   21.092(4)
_cell_angle_alpha                90
_cell_angle_beta                 90
_cell_angle_gamma                90
_cell_volume                     1567.66
loop_
_atom_site_label
_atom_site_type_symbol
_atom_site_fract_x
_atom_site_fract_y
_atom_site_fract_z
Cd1 Cd 0.0000 0.0000 0.0000
Cd2 Cd 0.5000 0.0000 -0.1648(1)
Cd3 Cd 0.5000 0.0000 0.1675(1)
C1 C 0.2942(6) 0.0000 -0.1074(4)
N1 N 0.1895(6) 0.0000 -0.0748(4)
C2 C 0.1729(7) -0.0000 0.0742(5)
N2 N 0.2745(7) 0.0000 0.1082(5)
C3 C 0.5000 -0.2060(7) -0.2249(5)
N3 N 0.5000 0.1962(7) 0.2382(4)
O1 O 0.0000 -0.2724(6) 0.0038(7)
N1B N -0.1895(6) 0.0000 -0.0748(4)
C2B C -0.1729(7) -0.0000 0.0742(5)
O1D O -0.0000 0.2724(6) 0.0038(7)
C1B C 0.7058(6) 0.0000 -0.1074(4)
C3D C 0.5000 0.2060(7) -0.2249(5)
N2B N 0.7255(7) 0.0000 0.1082(5)
N3D N 0.5000 -0.1962(7) 0.2382(4)
N3A N 0.5000 -0.3038(7) -0.2618(4)
C3A C 0.5000 0.2940(7) 0.2751(5)
C1B_2 C -0.2942(6) 0.0000 -0.1074(4)
N2B_2 N -0.2745(7) 0.0000 0.1082(5)
N1B_2 N 0.8105(6) 0.0000 -0.0748(4)
N3E N 0.5000 0.3038(7) -0.2618(4)
C2B_2 C 0.8271(7) -0.0000 0.0742(5)
C3E C 0.5000 -0.2940(7) 0.2751(5)
Cd3A Cd 0.5000 -0.5000 -0.3325(1)
Cd2A Cd 0.5000 0.5000 0.3352(1)
Cd3A_2 Cd 0.5000 0.5000 -0.3325(1)
Cd2A_2 Cd 0.5000 -0.5000 0.3352(1)
N2A N 0.2745(7) -0.5000 -0.3918(5)
N2C N 0.7255(7) -0.5000 -0.3918(5)
N3E_2 N 0.5000 -0.6962(7) -0.2618(4)
C1A C 0.2942(6) 0.5000 0.3926(4)
C1C C 0.7058(6) 0.5000 0.3926(4)
C3E_2 C 0.5000 0.7060(7) 0.2751(5)
C2A C 0.1729(7) -0.5000 -0.4258(5)
C2C C 0.8271(7) -0.5000 -0.4258(5)
N1A N 0.1895(6) 0.5000 0.4252(4)
N1C N 0.8105(6) 0.5000 0.4252(4)
Cd1A Cd 0.0000 -0.5000 -0.5000
Cd1A_2 Cd 1.0000 -0.5000 -0.5000
Cd1A_3 Cd 0.0000 0.5000 0.5000
Cd1A_4 Cd 1.0000 0.5000 0.5000
N1A_2 N 0.1895(6) -0.5000 -0.5748(4)
N1C_2 N -0.1895(6) -0.5000 -0.5748(4)
C2C_2 C -0.1729(7) -0.5000 -0.4258(5)
O1A O 0.0000 -0.7724(6) -0.4962(7)
O1E O 0.0000 -0.2276(6) -0.4962(7)
loop_
_geom_bond_atom_site_label_1
_geom_bond_atom_site_label_2
_geom_bond_site_symmetry_1
_geom_bond_site_symmetry_2
Cd1 N1 1_555 1_555
Cd2 C1 1_555 1_555
Cd3 N2 1_555 1_555
C1 N1 1_555 1_555
C2 Cd1 1_555 1_555
N2 C2 1_555 1_555
C3 Cd2 1_555 1_555
N3 Cd3 1_555 1_555
O1 Cd1 1_555 1_555
N1B Cd1 1_555 1_555
C2B Cd1 1_555 1_555
O1D Cd1 1_555 1_555
C1B Cd2 1_555 1_555
C3D Cd2 1_555 1_555
N2B Cd3 1_555 1_555
N3D Cd3 1_555 1_555
N3A C3 1_555 1_555
C3A N3 1_555 1_555
C1B_2 N1B 1_555 1_555
N2B_2 C2B 1_555 1_555
N1B_2 C1B 1_555 1_555
N3E C3D 1_555 1_555
C2B_2 N2B 1_555 1_555
C3E N3D 1_555 1_555
Cd3A N3A 1_555 1_555
Cd2A C3A 1_555 1_555
Cd3A_2 N3E 1_555 1_555
Cd2A_2 C3E 1_555 1_555
N2A Cd3A 1_555 1_555
N2C Cd3A 1_555 1_555
N3E_2 Cd3A 1_555 1_555
C1A Cd2A 1_555 1_555
C1C Cd2A 1_555 1_555
C3E_2 Cd2A 1_555 1_555
C2A N2A 1_555 1_555
C2C N2C 1_555 1_555
N1A C1A 1_555 1_555
N1C C1C 1_555 1_555
Cd1A C2A 1_555 1_555
Cd1A_2 C2C 1_555 1_555
Cd1A_3 N1A 1_555 1_555
Cd1A_4 N1C 1_555 1_555
N1A_2 Cd1A 1_555 1_555
N1C_2 Cd1A 1_555 1_555
C2C_2 Cd1A 1_555 1_555
O1A Cd1A 1_555 1_555
O1E Cd1A 1_555 1_555

#END
