
#######################################################################
#
#                 Cambridge Crystallographic Data Centre
#                                CCDC 
#
#######################################################################
#
# If this CIF has been generated from an entry in the Cambridge 
# Structural Database, then it will include bibliographic, chemical, 
# crystal, experimental, refinement or atomic coordinate data resulting 
# from the CCDC's data processing and validation procedures.
#
#######################################################################

data_OHAGAH
_chemical_formula_moiety         '(C14 H9 Cu1 N1 O5)n'
_symmetry_cell_setting           orthorhombic
_symmetry_space_group_name_H-M   'P b c n'
_symmetry_Int_Tables_number      60
_space_group_name_Hall           '-P 2n 2ab'
loop_
_symmetry_equiv_pos_site_id
_symmetry_equiv_pos_as_xyz
1 x,y,z
2 1/2+x,1/2-y,-z
3 -x,y,1/2-z
4 1/2-x,1/2-y,1/2+z
5 -x,-y,-z
6 1/2-x,1/2+y,z
7 x,-y,1/2+z
8 1/2+x,1/2+y,1/2-z
_cell_length_a                   12.9805(7)
_cell_length_b                   14.1040(9)
_cell_length_c                   25.6051(13)
_cell_angle_alpha                90
_cell_angle_beta                 90
_cell_angle_gamma                90
_cell_volume                     4687.7
loop_
_atom_site_label
_atom_site_type_symbol
_atom_site_fract_x
_atom_site_fract_y
_atom_site_fract_z
_atom_site_U_iso_or_equiv
_atom_site_thermal_displace_type
Cu1 Cu 0.93817(3) 0.82863(3) 0.208669(17) 0.0118 Uani
O1 O 0.8626(2) 0.7280(2) 0.24515(9) 0.0271 Uani
O2 O 0.9603(2) 0.73576(19) 0.31621(10) 0.0271 Uani
O3 O 0.7193(3) 0.5971(3) 0.45269(12) 0.0614 Uani
O4 O 0.6421(2) 0.4234(2) 0.24702(9) 0.0262 Uani
O5 O 0.5317(2) 0.4286(2) 0.31449(10) 0.0294 Uani
N1 N 0.6430(2) 0.6713(2) 0.63530(11) 0.0198 Uani
C1 C 0.7437(4) 0.6652(4) 0.62932(17) 0.0387 Uani
H1 H 0.7862 0.6634 0.6595 0.0470 Uiso
C2 C 0.5877(4) 0.6722(5) 0.5918(2) 0.0630 Uani
H2 H 0.5148 0.6735 0.5951 0.0760 Uiso
C3 C 0.8856(3) 0.7062(3) 0.29075(15) 0.0297 Uani
C4 C 0.8121(3) 0.6412(3) 0.31876(14) 0.0320 Uani
C5 C 0.8078(4) 0.6483(4) 0.37334(15) 0.0451 Uani
H3 H 0.8531 0.6894 0.3916 0.0540 Uiso
C6 C 0.7348(4) 0.5930(4) 0.40057(17) 0.0447 Uani
C7 C 0.6714(4) 0.5299(4) 0.37226(17) 0.0457 Uani
H4 H 0.6221 0.4921 0.3901 0.0550 Uiso
C8 C 0.6809(3) 0.5229(3) 0.31905(15) 0.0313 Uani
C9 C 0.7501(3) 0.5791(3) 0.29107(15) 0.0325 Uani
H5 H 0.7545 0.5749 0.2541 0.0390 Uiso
C10 C 0.6136(3) 0.4521(3) 0.29099(15) 0.0302 Uani
C11 C 0.7804(4) 0.6592(4) 0.48259(18) 0.0477 Uani
H6 H 0.7818 0.7228 0.4663 0.0570 Uiso
H7 H 0.8519 0.6351 0.4848 0.0570 Uiso
C12 C 0.7330(4) 0.6648(3) 0.53678(17) 0.0357 Uani
C13 C 0.6278(5) 0.6713(5) 0.54279(19) 0.0607 Uani
H8 H 0.5840 0.6751 0.5131 0.0730 Uiso
C14 C 0.7898(4) 0.6614(4) 0.58021(18) 0.0470 Uani
H9 H 0.8626 0.6563 0.5776 0.0560 Uiso
Cu1B Cu 1.06183(3) 0.82863(3) 0.291331(17) 0.0118 Uani
Cu1C Cu 0.56183(3) 0.67137(3) 0.708669(17) 0.0118 Uani
Cu1E Cu 0.56183(3) 0.32863(3) 0.208669(17) 0.0118 Uani
Cu1G Cu 0.43817(3) 0.32863(3) 0.291331(17) 0.0118 Uani
O2B O 1.0397(2) 0.73576(19) 0.18379(10) 0.0271 Uani
O4E O 0.8579(2) 0.9234(2) 0.24702(9) 0.0262 Uani
O5G O 1.0317(2) 0.9286(2) 0.18551(10) 0.0294 Uani
N1C N 0.8570(2) 0.8287(2) 0.13530(11) 0.0198 Uani
loop_
_atom_site_aniso_label
_atom_site_aniso_U_11
_atom_site_aniso_U_22
_atom_site_aniso_U_33
_atom_site_aniso_U_23
_atom_site_aniso_U_13
_atom_site_aniso_U_12
Cu1 0.0126(3) 0.0142(3) 0.0085(3) 0.00046(17) -0.00056(17) 0.00038(18)
O1 0.0314(14) 0.0387(16) 0.0113(12) 0.0039(11) 0.0012(10) -0.0191(13)
O2 0.034 0.0304 0.0168 0.0025 -0.0027 -0.0215
O3 0.087(3) 0.078(3) 0.0191(16) -0.0083(16) 0.0136(17) -0.054(2)
O4 0.0317 0.0344 0.0126 -0.0077 0.004 -0.0185
O5 0.0348 0.0352 0.0181 -0.005 0.0092 -0.0207
N1 0.0205 0.0335 0.0055 0.0004 0.0042 0.0016
C1 0.034(2) 0.065(3) 0.017(2) 0.001(2) 0.0068(17) 0.001(2)
C2 0.033(2) 0.123(6) 0.033(3) -0.003(3) 0.006(2) 0.001(3)
C3 0.037(2) 0.035(2) 0.017(2) -0.0048(16) 0.0080(16) -0.0143(19)
C4 0.047(2) 0.043(2) 0.0061(17) -0.0043(15) 0.0090(16) -0.030(2)
C5 0.050(3) 0.077(3) 0.0082(18) -0.007(2) 0.0016(18) -0.043(3)
C6 0.061(3) 0.053(3) 0.020(2) -0.005(2) 0.009(2) -0.043(3)
C7 0.057(3) 0.057(3) 0.023(2) -0.002(2) 0.011(2) -0.040(3)
C8 0.042(2) 0.033(2) 0.0190(19) -0.0052(16) 0.0037(17) -0.019(2)
C9 0.041(2) 0.043(2) 0.0135(19) -0.0021(17) 0.0009(16) -0.019(2)
C10 0.041 0.033 0.0165 0.0032 -0.0047 -0.0192
C11 0.043(3) 0.080(4) 0.020(2) -0.012(2) 0.0057(19) -0.019(3)
C12 0.044(2) 0.041(2) 0.022(2) -0.0065(17) 0.0061(18) -0.012(2)
C13 0.061(3) 0.104(5) 0.017(2) -0.002(2) -0.013(2) 0.010(3)
C14 0.030(2) 0.090(4) 0.021(2) -0.005(2) 0.0059(17) -0.008(2)
Cu1B 0.0126 0.0142 0.0085 -0.00046 -0.00056 -0.00038
Cu1C 0.0126 0.0142 0.0085 -0.00046 0.00056 0.00038
Cu1E 0.0126 0.0142 0.0085 0.00046 0.00056 -0.00038
Cu1G 0.0126 0.0142 0.0085 -0.00046 0.00056 0.00038
O2B 0.034 0.0304 0.0168 -0.0025 -0.0027 0.0215
O4E 0.0317 0.0344 0.0126 -0.0077 -0.004 0.0185
O5G 0.0348 0.0352 0.0181 0.005 -0.0092 -0.0207
N1C 0.0205 0.0335 0.0055 -0.0004 -0.0042 0.0016
loop_
_geom_bond_atom_site_label_1
_geom_bond_atom_site_label_2
_geom_bond_site_symmetry_1
_geom_bond_site_symmetry_2
Cu1 O1 1_555 1_555
O1 C3 1_555 1_555
O2 C3 1_555 1_555
O3 C6 1_555 1_555
O4 C10 1_555 1_555
O5 C10 1_555 1_555
N1 C1 1_555 1_555
C1 H1 1_555 1_555
C2 N1 1_555 1_555
H2 C2 1_555 1_555
C3 C4 1_555 1_555
C4 C5 1_555 1_555
C5 H3 1_555 1_555
C6 C5 1_555 1_555
C7 C6 1_555 1_555
H4 C7 1_555 1_555
C8 C7 1_555 1_555
C9 C4 1_555 1_555
H5 C9 1_555 1_555
C10 C8 1_555 1_555
C11 O3 1_555 1_555
H6 C11 1_555 1_555
H7 C11 1_555 1_555
C12 C11 1_555 1_555
C13 C2 1_555 1_555
H8 C13 1_555 1_555
C14 C1 1_555 1_555
H9 C14 1_555 1_555
Cu1B Cu1 1_555 1_555
Cu1C N1 1_555 1_555
Cu1E O4 1_555 1_555
Cu1G O5 1_555 1_555
O2B Cu1 1_555 1_555
O4E Cu1 1_555 1_555
O5G Cu1 1_555 1_555
N1C Cu1 1_555 1_555
O2 Cu1B 1_555 1_555
C8 C9 1_555 1_555
C12 C13 1_555 1_555
C12 C14 1_555 1_555
Cu1E Cu1G 1_555 1_555

#END
