
#######################################################################
#
#                 Cambridge Crystallographic Data Centre
#                                CCDC 
#
#######################################################################
#
# If this CIF has been generated from an entry in the Cambridge 
# Structural Database, then it will include bibliographic, chemical, 
# crystal, experimental, refinement or atomic coordinate data resulting 
# from the CCDC's data processing and validation procedures.
#
#######################################################################

data_RUBYUK
_chemical_formula_moiety         'C18 O6 Zr2'
_symmetry_cell_setting           tetragonal
_symmetry_space_group_name_H-M   'I -4'
_symmetry_Int_Tables_number      82
_space_group_name_Hall           'I -4'
loop_
_symmetry_equiv_pos_site_id
_symmetry_equiv_pos_as_xyz
1 x,y,z
2 -x,-y,z
3 y,-x,-z
4 -y,x,-z
5 1/2+x,1/2+y,1/2+z
6 1/2-x,1/2-y,1/2+z
7 1/2+y,1/2-x,1/2-z
8 1/2-y,1/2+x,1/2-z
_cell_length_a                   23.239(4)
_cell_length_b                   23.239(4)
_cell_length_c                   32.854(13)
_cell_angle_alpha                90
_cell_angle_beta                 90
_cell_angle_gamma                90
_cell_volume                     17742.8
loop_
_atom_site_label
_atom_site_type_symbol
_atom_site_fract_x
_atom_site_fract_y
_atom_site_fract_z
_atom_site_U_iso_or_equiv
_atom_site_thermal_displace_type
Zr1 Zr 0.42538(4) 0.42542(4) 0.00000(8) 0.0826 Uani
Zr2 Zr 0.5000 0.5000 0.07473(4) 0.0801 Uani
O1 O 0.4960(5) 0.4292(5) 0.0350(3) 0.0860 Uiso
O2 O 0.4216(5) 0.4965(6) 0.0402(3) 0.1020 Uiso
O3 O 0.3929(6) 0.3843(6) -0.0528(4) 0.1260 Uiso
O4 O 0.1097(6) 0.1023(6) -0.4365(4) 0.1120 Uiso
O5 O 0.0663(6) 0.0580(6) -0.3935(3) 0.1110 Uiso
O6 O 0.4514(6) 0.4399(6) -0.1113(4) 0.1350 Uiso
C1 C 0.2350(7) 0.2460(6) -0.1737(7) 0.1890 Uiso
C2 C 0.2710(8) 0.2750(8) -0.1469(4) 0.1620 Uiso
C3 C 0.3050(7) 0.3202(8) -0.1607(7) 0.1970 Uiso
C4 C 0.3028(8) 0.3364(7) -0.2014(8) 0.2370 Uiso
C5 C 0.2668(10) 0.3075(10) -0.2282(4) 0.2280 Uiso
C6 C 0.2328(7) 0.2623(9) -0.2144(6) 0.1970 Uiso
C7 C 0.2260(7) 0.2273(8) -0.2869(8) 0.2110 Uiso
C8 C 0.2037(9) 0.1925(10) -0.3175(5) 0.2200 Uiso
C9 C 0.1556(10) 0.1587(7) -0.3099(6) 0.1830 Uiso
C10 C 0.1297(7) 0.1596(7) -0.2718(8) 0.2280 Uiso
C11 C 0.1520(9) 0.1944(9) -0.2412(5) 0.2130 Uiso
C12 C 0.2001(9) 0.2282(7) -0.2487(6) 0.1900 Uiso
C13 C 0.3366(15) 0.3398(15) -0.1241(10) 0.2380 Uiso
C14 C 0.3749(14) 0.3826(14) -0.1344(10) 0.2060 Uiso
C15 C 0.1143(14) 0.1289(14) -0.3383(10) 0.2350 Uiso
C16 C 0.1280(11) 0.1381(12) -0.3815(8) 0.1700 Uiso
C17 C 0.0824(9) 0.1045(9) -0.4078(7) 0.1210 Uiso
C18 C 0.4001(8) 0.4177(9) -0.0961(6) 0.1100 Uiso
loop_
_atom_site_aniso_label
_atom_site_aniso_U_11
_atom_site_aniso_U_22
_atom_site_aniso_U_33
_atom_site_aniso_U_23
_atom_site_aniso_U_13
_atom_site_aniso_U_12
Zr1 0.0757(8) 0.0741(8) 0.0981(8) 0.0001(18) 0.0035(18) -0.0296(5)
Zr2 0.101(3) 0.092(3) 0.0474(8) 0.000 0.000 -0.010(3)
loop_
_geom_bond_atom_site_label_1
_geom_bond_atom_site_label_2
_geom_bond_site_symmetry_1
_geom_bond_site_symmetry_2
O3 C18 1_555 1_555
O4 C17 1_555 1_555
O5 C17 1_555 1_555
O6 C18 1_555 1_555
C1 C2 1_555 1_555
C2 C3 1_555 1_555
C3 C4 1_555 1_555
C4 C5 1_555 1_555
C5 C6 1_555 1_555
C6 C1 1_555 1_555
C7 C8 1_555 1_555
C8 C9 1_555 1_555
C9 C10 1_555 1_555
C10 C11 1_555 1_555
C11 C12 1_555 1_555
C12 C6 1_555 1_555
C13 C3 1_555 1_555
C14 C13 1_555 1_555
C15 C9 1_555 1_555
C16 C15 1_555 1_555
C17 C16 1_555 1_555
C18 C14 1_555 1_555
C7 C12 1_555 1_555

#END
