
#######################################################################
#
#                 Cambridge Crystallographic Data Centre
#                                CCDC 
#
#######################################################################
#
# If this CIF has been generated from an entry in the Cambridge 
# Structural Database, then it will include bibliographic, chemical, 
# crystal, experimental, refinement or atomic coordinate data resulting 
# from the CCDC's data processing and validation procedures.
#
#######################################################################

data_EJIQIZ
_chemical_formula_moiety         '(C51 H28 N3 O13 Zn3 1-)n'
_symmetry_cell_setting           trigonal
_symmetry_space_group_name_H-M   'P -3'
_symmetry_Int_Tables_number      147
_space_group_name_Hall           '-P 3'
loop_
_symmetry_equiv_pos_site_id
_symmetry_equiv_pos_as_xyz
1 x,y,z
2 -y,x-y,z
3 -x+y,-x,z
4 -x,-y,-z
5 y,-x+y,-z
6 x-y,x,-z
_cell_length_a                   13.0500(2)
_cell_length_b                   13.0500(2)
_cell_length_c                   16.2992(7)
_cell_angle_alpha                90
_cell_angle_beta                 90
_cell_angle_gamma                120
_cell_volume                     2403.91
loop_
_atom_site_label
_atom_site_type_symbol
_atom_site_fract_x
_atom_site_fract_y
_atom_site_fract_z
Zn1 Zn 0.62473(7) 0.15379(7) 0.17710(5)
O1 O 0.4778(4) 0.1100(4) 0.0937(3)
O2 O 0.4805(5) 0.2803(5) 0.0734(3)
O3 O 0.4296(4) 0.2328(4) -0.7404(3)
O4 O 0.5311(4) 0.1365(4) -0.7212(3)
O5 O 0.6667 0.3333 0.1804(5)
N1 N 0.4160(5) 0.0268(5) -0.1565(3)
C1 C 0.4689(7) 0.1827(7) 0.0507(4)
C2 C 0.4413(6) 0.1577(6) -0.0409(4)
C3 C 0.4294(7) 0.2349(7) -0.0918(4)
H1 H 0.4307 0.3015 -0.0702
C4 C 0.4153(7) 0.2132(6) -0.1765(4)
C5 C 0.4052(7) 0.2901(7) -0.2323(4)
H2 H 0.4031 0.3559 -0.2126
C6 C 0.3982(8) 0.2699(7) -0.3148(4)
H3 H 0.3901 0.3212 -0.3502
C7 C 0.4032(6) 0.1726(6) -0.3470(4)
C8 C 0.4103(6) 0.0921(6) -0.2939(4)
H4 H 0.4140 0.0278 -0.3151
C9 C 0.4120(6) 0.1085(6) -0.2076(4)
C10 C 0.4286(6) 0.0524(6) -0.0757(4)
H5 H 0.4290 -0.0031 -0.0402
C11 C 0.4117(7) 0.1639(6) -0.4373(4)
C12 C 0.3450(7) 0.1921(7) -0.4895(4)
H6 H 0.2894 0.2093 -0.4679
C13 C 0.3612(6) 0.1945(6) -0.5729(4)
H7 H 0.3166 0.2138 -0.6074
C14 C 0.4440(6) 0.1682(6) -0.6063(4)
C15 C 0.5092(6) 0.1397(6) -0.5541(4)
H8 H 0.5656 0.1234 -0.5757
C16 C 0.4922(7) 0.1349(6) -0.4718(4)
H9 H 0.5346 0.1121 -0.4378
C17 C 0.4695(6) 0.1789(6) -0.6970(4)
Zn1A Zn 0.84621(7) 0.47094(10) 0.17710(5)
O1A O 0.8900(4) 0.3678(6) 0.0937(3)
O2A O 0.7197(5) 0.2002(7) 0.0734(3)
O3A O 0.7672(4) 0.1968(6) -0.7404(3)
O4A O 0.8635(4) 0.3946(6) -0.7212(3)
N1A N 0.9732(5) 0.3892(7) -0.1565(3)
C1A C 0.8173(7) 0.2862(10) 0.0507(4)
C2A C 0.8423(6) 0.2836(8) -0.0409(4)
C3A C 0.7651(7) 0.1945(10) -0.0918(4)
H1A H 0.6985 0.1292 -0.0702
C4A C 0.7868(6) 0.2021(9) -0.1765(4)
C5A C 0.7099(7) 0.1151(10) -0.2323(4)
H2A H 0.6441 0.0472 -0.2126
C6A C 0.7301(7) 0.1283(11) -0.3148(4)
H3A H 0.6788 0.0689 -0.3502
C7A C 0.8274(6) 0.2306(8) -0.3470(4)
C8A C 0.9079(6) 0.3182(8) -0.2939(4)
H4A H 0.9722 0.3862 -0.3151
C9A C 0.8915(6) 0.3035(8) -0.2076(4)
C10A C 0.9476(6) 0.3762(8) -0.0757(4)
H5A H 1.0031 0.4321 -0.0402
C11A C 0.8361(6) 0.2478(9) -0.4373(4)
C12A C 0.8079(7) 0.1529(10) -0.4895(4)
H6A H 0.7907 0.0801 -0.4679
C13A C 0.8055(6) 0.1667(8) -0.5729(4)
H7A H 0.7862 0.1028 -0.6074
C14A C 0.8318(6) 0.2758(8) -0.6063(4)
C15A C 0.8603(6) 0.3695(8) -0.5541(4)
H8A H 0.8766 0.4422 -0.5757
C16A C 0.8651(6) 0.3573(9) -0.4718(4)
H9A H 0.8879 0.4225 -0.4378
C17A C 0.8211(6) 0.2906(8) -0.6970(4)
Zn1B Zn 0.52906(10) 0.37527(7) 0.17710(5)
O1B O 0.6322(6) 0.5222(4) 0.0937(3)
O2B O 0.7998(7) 0.5195(5) 0.0734(3)
O3B O 0.8032(6) 0.5704(4) -0.7404(3)
O4B O 0.6054(6) 0.4689(4) -0.7212(3)
N1B N 0.6108(7) 0.5840(5) -0.1565(3)
C1B C 0.7138(10) 0.5311(7) 0.0507(4)
C2B C 0.7164(8) 0.5587(6) -0.0409(4)
C3B C 0.8055(10) 0.5706(7) -0.0918(4)
H1B H 0.8708 0.5693 -0.0702
C4B C 0.7979(9) 0.5847(7) -0.1765(4)
C5B C 0.8849(10) 0.5948(7) -0.2323(4)
H2B H 0.9528 0.5969 -0.2126
C6B C 0.8717(11) 0.6018(8) -0.3148(4)
H3B H 0.9311 0.6099 -0.3502
C7B C 0.7694(8) 0.5968(6) -0.3470(4)
C8B C 0.6818(8) 0.5897(6) -0.2939(4)
H4B H 0.6138 0.5860 -0.3151
C9B C 0.6965(8) 0.5880(6) -0.2076(4)
C10B C 0.6238(8) 0.5714(6) -0.0757(4)
H5B H 0.5679 0.5710 -0.0402
C11B C 0.7522(9) 0.5883(7) -0.4373(4)
C12B C 0.8471(10) 0.6550(7) -0.4895(4)
H6B H 0.9199 0.7106 -0.4679
C13B C 0.8333(8) 0.6388(6) -0.5729(4)
H7B H 0.8972 0.6834 -0.6074
C14B C 0.7242(8) 0.5560(6) -0.6063(4)
C15B C 0.6305(8) 0.4908(6) -0.5541(4)
H8B H 0.5578 0.4344 -0.5757
C16B C 0.6427(9) 0.5078(7) -0.4718(4)
H9B H 0.5775 0.4654 -0.4378
C17B C 0.7094(8) 0.5305(6) -0.6970(4)
Zn1_2 Zn 0.62473(7) 0.15379(7) -0.82290(5)
Zn1A_2 Zn 0.84621(7) 0.47094(10) -0.82290(5)
Zn1B_2 Zn 0.52906(10) 0.37527(7) -0.82290(5)
Zn1C Zn 0.37527(7) -0.15379(7) -0.17710(5)
Zn1D Zn 1.15379(7) 0.52906(10) -0.17710(5)
Zn1E Zn 0.47094(10) 0.62473(7) -0.17710(5)
O3_2 O 0.4296(4) 0.2328(4) 0.2596(3)
O3A_2 O 0.7672(4) 0.1968(6) 0.2596(3)
O3B_2 O 0.8032(6) 0.5704(4) 0.2596(3)
O4_2 O 0.5311(4) 0.1365(4) 0.2788(3)
O4A_2 O 0.8635(4) 0.3946(6) 0.2788(3)
O4B_2 O 0.6054(6) 0.4689(4) 0.2788(3)
N1C N 0.5840(5) -0.0268(5) 0.1565(3)
N1D N 1.0268(5) 0.6108(7) 0.1565(3)
N1E N 0.3892(7) 0.4160(5) 0.1565(3)
loop_
_geom_bond_atom_site_label_1
_geom_bond_atom_site_label_2
_geom_bond_site_symmetry_1
_geom_bond_site_symmetry_2
Zn1 O1 1_555 1_555
O1 C1 1_555 1_555
O2 C1 1_555 1_555
O3 C17 1_555 1_555
O4 C17 1_555 1_555
O5 Zn1 1_555 1_555
N1 C9 1_555 1_555
C1 C2 1_555 1_555
C2 C3 1_555 1_555
C3 H1 1_555 1_555
C4 C3 1_555 1_555
C5 C4 1_555 1_555
H2 C5 1_555 1_555
C6 C5 1_555 1_555
H3 C6 1_555 1_555
C7 C6 1_555 1_555
C8 C7 1_555 1_555
H4 C8 1_555 1_555
C9 C4 1_555 1_555
C10 N1 1_555 1_555
H5 C10 1_555 1_555
C11 C7 1_555 1_555
C12 C11 1_555 1_555
H6 C12 1_555 1_555
C13 C12 1_555 1_555
H7 C13 1_555 1_555
C14 C13 1_555 1_555
C15 C14 1_555 1_555
H8 C15 1_555 1_555
C16 C11 1_555 1_555
H9 C16 1_555 1_555
C17 C14 1_555 1_555
Zn1A O5 1_555 1_555
O1A Zn1A 1_555 1_555
O2A Zn1 1_555 1_555
O3A C17A 1_555 1_555
O4A C17A 1_555 1_555
N1A C9A 1_555 1_555
C1A O1A 1_555 1_555
C2A C1A 1_555 1_555
C3A C2A 1_555 1_555
H1A C3A 1_555 1_555
C4A C3A 1_555 1_555
C5A C4A 1_555 1_555
H2A C5A 1_555 1_555
C6A C5A 1_555 1_555
H3A C6A 1_555 1_555
C7A C6A 1_555 1_555
C8A C7A 1_555 1_555
H4A C8A 1_555 1_555
C9A C4A 1_555 1_555
C10A N1A 1_555 1_555
H5A C10A 1_555 1_555
C11A C7A 1_555 1_555
C12A C11A 1_555 1_555
H6A C12A 1_555 1_555
C13A C12A 1_555 1_555
H7A C13A 1_555 1_555
C14A C13A 1_555 1_555
C15A C14A 1_555 1_555
H8A C15A 1_555 1_555
C16A C11A 1_555 1_555
H9A C16A 1_555 1_555
C17A C14A 1_555 1_555
Zn1B O2 1_555 1_555
O1B Zn1B 1_555 1_555
O2B Zn1A 1_555 1_555
O3B C17B 1_555 1_555
O4B C17B 1_555 1_555
N1B C9B 1_555 1_555
C1B O1B 1_555 1_555
C2B C1B 1_555 1_555
C3B C2B 1_555 1_555
H1B C3B 1_555 1_555
C4B C3B 1_555 1_555
C5B C4B 1_555 1_555
H2B C5B 1_555 1_555
C6B C5B 1_555 1_555
H3B C6B 1_555 1_555
C7B C6B 1_555 1_555
C8B C7B 1_555 1_555
H4B C8B 1_555 1_555
C9B C4B 1_555 1_555
C10B N1B 1_555 1_555
H5B C10B 1_555 1_555
C11B C7B 1_555 1_555
C12B C11B 1_555 1_555
H6B C12B 1_555 1_555
C13B C12B 1_555 1_555
H7B C13B 1_555 1_555
C14B C13B 1_555 1_555
C15B C14B 1_555 1_555
H8B C15B 1_555 1_555
C16B C11B 1_555 1_555
H9B C16B 1_555 1_555
C17B C14B 1_555 1_555
Zn1_2 O4 1_555 1_555
Zn1A_2 O4A 1_555 1_555
Zn1B_2 O3 1_555 1_555
Zn1C N1 1_555 1_555
Zn1D N1A 1_555 1_555
Zn1E N1B 1_555 1_555
O3_2 Zn1B 1_555 1_555
O3A_2 Zn1 1_555 1_555
O3B_2 Zn1A 1_555 1_555
O4_2 Zn1 1_555 1_555
O4A_2 Zn1A 1_555 1_555
O4B_2 Zn1B 1_555 1_555
N1C Zn1 1_555 1_555
N1D Zn1A 1_555 1_555
N1E Zn1B 1_555 1_555
O5 Zn1B 1_555 1_555
C2 C10 1_555 1_555
C8 C9 1_555 1_555
C15 C16 1_555 1_555
O2A C1A 1_555 1_555
O3A Zn1_2 1_555 1_555
C2A C10A 1_555 1_555
C8A C9A 1_555 1_555
C15A C16A 1_555 1_555
O2B C1B 1_555 1_555
O3B Zn1A_2 1_555 1_555
O4B Zn1B_2 1_555 1_555
C2B C10B 1_555 1_555
C8B C9B 1_555 1_555
C15B C16B 1_555 1_555

#END
