
#######################################################################
#
#                 Cambridge Crystallographic Data Centre
#                                CCDC 
#
#######################################################################
#
# If this CIF has been generated from an entry in the Cambridge 
# Structural Database, then it will include bibliographic, chemical, 
# crystal, experimental, refinement or atomic coordinate data resulting 
# from the CCDC's data processing and validation procedures.
#
#######################################################################

data_BUGSOM
_chemical_formula_moiety         '(C7 H21 N1 O10 P1 Tb1)n'
_symmetry_cell_setting           monoclinic
_symmetry_space_group_name_H-M   'P 21/c'
_symmetry_Int_Tables_number      14
_space_group_name_Hall           '-P 2ybc'
loop_
_symmetry_equiv_pos_site_id
_symmetry_equiv_pos_as_xyz
1 x,y,z
2 -x,1/2+y,1/2-z
3 -x,-y,-z
4 x,1/2-y,1/2+z
_cell_length_a                   5.5294(7)
_cell_length_b                   13.3523(17)
_cell_length_c                   20.642(3)
_cell_angle_alpha                90
_cell_angle_beta                 95.378(3)
_cell_angle_gamma                90
_cell_volume                     1517.29
loop_
_atom_site_label
_atom_site_type_symbol
_atom_site_fract_x
_atom_site_fract_y
_atom_site_fract_z
C1 C 1.3078(11) 0.4623(5) 0.6672(3)
H1 H 1.1649 0.4198 0.6633
H2 H 1.2594 0.5271 0.6829
C2 C 1.5291(14) 0.3078(5) 0.7012(3)
H3 H 1.3774 0.2714 0.7016
H4 H 1.5856 0.3011 0.6583
C3 C 1.7217(14) 0.2644(6) 0.7536(3)
H5 H 1.8752 0.2987 0.7512
H6 H 1.7465 0.1939 0.7451
C4 C 1.6385(12) 0.2770(5) 0.8221(3)
H7 H 1.4846 0.2415 0.8246
C5 C 1.6004(14) 0.3906(5) 0.8349(3)
H8 H 1.5483 0.4002 0.8780
H9 H 1.7519 0.4264 0.8324
C6 C 1.4031(13) 0.4318(5) 0.7825(3)
H10 H 1.3747 0.5023 0.7902
H11 H 1.2515 0.3961 0.7849
C7 C 1.8296(11) 0.2358(5) 0.8749(3)
Tb1 Tb 1.12765(5) 0.36733(2) 0.472180(14)
N1 N 1.4905(10) 0.4178(4) 0.7166(3)
O1 O 1.4592(8) 0.3770(3) 0.5556(2)
O2 O 1.1776(8) 0.5186(3) 0.5457(2)
O3 O 1.6240(8) 0.5498(3) 0.59086(19)
O4 O 1.9980(8) 0.1808(4) 0.8591(2)
O5 O 1.8022(8) 0.2512(4) 0.9326(2)
O6 O 0.929(16) 0.317(7) 0.565(4)
H12 H 0.8138 0.2770 0.5529
H13 H 0.8725 0.3681 0.5823
O7 O 1.346(17) 0.216(7) 0.465(5)
H14 H 1.2795 0.1809 0.4346
H15 H 1.3471 0.1847 0.5006
P1 P 1.4101(3) 0.47912(12) 0.58605(7)
Tb1B Tb 0.87235(5) 0.63267(2) 0.527820(14)
Tb1B_2 Tb 1.87235(5) 0.63267(2) 0.527820(14)
Tb1C Tb 2.12765(5) 0.13267(2) 0.972180(14)
O2B O 0.8224(8) 0.4814(3) 0.4543(2)
O3B O 1.3760(8) 0.4502(3) 0.40914(19)
O4C O 0.9980(8) 0.3192(4) 0.3591(2)
O5C O 0.8022(8) 0.2488(4) 0.4326(2)
O8 O 0.177(2) 0.0740(8) 0.7596(5)
H16 H 0.1906 0.0703 0.8009
H17 H 0.2915 0.1100 0.7474
O9 O -0.023(3) 0.3905(13) 0.1205(8)
H18 H -0.0780 0.4488 0.1117
H19 H 0.1126 0.3950 0.1434
O10 O 0.256(4) 0.4778(12) 0.9865(8)
H20 H 0.3064 0.5374 0.9933
H21 H 0.1544 0.4765 0.9531
loop_
_geom_bond_atom_site_label_1
_geom_bond_atom_site_label_2
_geom_bond_site_symmetry_1
_geom_bond_site_symmetry_2
C1 H1 1_555 1_555
H2 C1 1_555 1_555
C2 H3 1_555 1_555
H4 C2 1_555 1_555
C3 C2 1_555 1_555
H5 C3 1_555 1_555
H6 C3 1_555 1_555
C4 C3 1_555 1_555
H7 C4 1_555 1_555
C5 C4 1_555 1_555
H8 C5 1_555 1_555
H9 C5 1_555 1_555
C6 C5 1_555 1_555
H10 C6 1_555 1_555
H11 C6 1_555 1_555
C7 C4 1_555 1_555
Tb1 O1 1_555 1_555
N1 C1 1_555 1_555
O1 P1 1_555 1_555
O2 Tb1 1_555 1_555
O3 P1 1_555 1_555
O4 C7 1_555 1_555
O5 C7 1_555 1_555
O6 Tb1 1_555 1_555
H12 O6 1_555 1_555
H13 O6 1_555 1_555
O7 Tb1 1_555 1_555
H14 O7 1_555 1_555
H15 O7 1_555 1_555
O8 H16 1_555 1_555
H17 O8 1_555 1_555
O9 H18 1_555 1_555
H19 O9 1_555 1_555
O10 H20 1_555 1_555
H21 O10 1_555 1_555
P1 C1 1_555 1_555
Tb1B O2 1_555 1_555
Tb1B_2 O3 1_555 1_555
Tb1C O4 1_555 1_555
O2B Tb1 1_555 1_555
O3B Tb1 1_555 1_555
O4C Tb1 1_555 1_555
O5C Tb1 1_555 1_555
C2 N1 1_555 1_555
C6 N1 1_555 1_555
O2 P1 1_555 1_555
O5 Tb1C 1_555 1_555
Tb1B O2B 1_555 1_555

#END
