
#######################################################################
#
#                 Cambridge Crystallographic Data Centre
#                                CCDC 
#
#######################################################################
#
# If this CIF has been generated from an entry in the Cambridge 
# Structural Database, then it will include bibliographic, chemical, 
# crystal, experimental, refinement or atomic coordinate data resulting 
# from the CCDC's data processing and validation procedures.
#
#######################################################################

data_POVXII
_chemical_formula_moiety         '(C14 H21 Mn3 N1 O12)n'
_symmetry_cell_setting           orthorhombic
_symmetry_space_group_name_H-M   'P n m a'
_symmetry_Int_Tables_number      62
_space_group_name_Hall           '-P 2ac 2n'
loop_
_symmetry_equiv_pos_site_id
_symmetry_equiv_pos_as_xyz
1 x,y,z
2 1/2-x,-y,1/2+z
3 -x,1/2+y,-z
4 1/2+x,1/2-y,1/2-z
5 -x,-y,-z
6 1/2+x,y,1/2-z
7 x,1/2-y,z
8 1/2-x,1/2+y,1/2+z
_cell_length_a                   10.788(2)
_cell_length_b                   12.702(2)
_cell_length_c                   15.784(3)
_cell_angle_alpha                90
_cell_angle_beta                 90
_cell_angle_gamma                90
_cell_volume                     2162.87
loop_
_atom_site_label
_atom_site_type_symbol
_atom_site_fract_x
_atom_site_fract_y
_atom_site_fract_z
_atom_site_U_iso_or_equiv
_atom_site_thermal_displace_type
C1 C 0.0434(2) -0.2500 0.52400(16) 0.0182 Uani
C2 C 0.0952(4) -0.2500 0.61193(18) 0.0379 Uani
C3 C -0.0836(3) -0.2500 0.15380(16) 0.0257 Uani
C4 C -0.1704(3) -0.2500 0.07838(19) 0.0501 Uani
C5 C -0.25158(19) -0.43705(16) 0.41216(13) 0.0272 Uani
C6 C -0.3797(2) -0.4798(2) 0.3975(2) 0.0538 Uani
H7 H -0.3764 -0.5568 0.3952 0.0810 Uiso
H8 H -0.4120 -0.4525 0.3438 0.0810 Uiso
H9 H -0.4341 -0.4578 0.4440 0.0810 Uiso
C7 C 0.1231(2) -0.45301(16) 0.32804(12) 0.0288 Uani
C8 C 0.2484(3) -0.4984(2) 0.3079(2) 0.0599 Uani
H10 H 0.2951 -0.5086 0.3605 0.0900 Uiso
H11 H 0.2937 -0.4500 0.2708 0.0900 Uiso
H12 H 0.2381 -0.5663 0.2792 0.0900 Uiso
Mn1 Mn -0.04447(3) -0.2500 0.36248(2) 0.0155 Uani
Mn2 Mn -0.31414(3) -0.2500 0.28278(2) 0.0169 Uani
Mn3 Mn -0.0000 -0.0000 0.5000 0.0194 Uani
O1 O -0.12887(17) -0.2500 0.22865(11) 0.0240 Uani
O2 O -0.21410(12) -0.35767(11) 0.36928(8) 0.0230 Uani
O3 O 0.04932(16) -0.50827(11) 0.36813(9) 0.0339 Uani
O4 O -0.19026(14) -0.48174(14) 0.46782(11) 0.0398 Uani
O5 O 0.09918(13) -0.35776(11) 0.30605(8) 0.0238 Uani
O6 O 0.02920(18) -0.2500 0.13844(12) 0.0278 Uani
O7 O 0.02185(16) -0.16621(11) 0.48508(8) 0.0298 Uani
C5F C -0.25158(19) -0.06295(16) 0.41216(13) 0.0272 Uani
C6F C -0.3797(2) -0.0202(2) 0.3975(2) 0.0538 Uani
H7F H -0.3764 0.0568 0.3952 0.0810 Uiso
H8F H -0.4120 -0.0475 0.3438 0.0810 Uiso
H9F H -0.4341 -0.0422 0.4440 0.0810 Uiso
C7F C 0.1231(2) -0.04699(16) 0.32804(12) 0.0288 Uani
C8F C 0.2484(3) -0.0016(2) 0.3079(2) 0.0599 Uani
H10F H 0.2951 0.0086 0.3605 0.0900 Uiso
H11F H 0.2937 -0.0500 0.2708 0.0900 Uiso
H12F H 0.2381 0.0663 0.2792 0.0900 Uiso
Mn2C Mn 0.18586(3) -0.2500 0.21722(2) 0.0169 Uani
Mn3B Mn -0.0000 -0.5000 0.5000 0.0194 Uani
O2F O -0.21410(12) -0.14233(11) 0.36928(8) 0.0230 Uani
O3B O -0.04932(16) -0.00827(11) 0.63187(9) 0.0339 Uani
O3F O 0.04932(16) 0.00827(11) 0.36813(9) 0.0339 Uani
O4B O 0.19026(14) 0.01826(14) 0.53218(11) 0.0398 Uani
O4F O -0.19026(14) -0.01826(14) 0.46782(11) 0.0398 Uani
O5F O 0.09918(13) -0.14224(11) 0.30605(8) 0.0238 Uani
O5E O -0.40082(13) -0.35776(11) 0.19395(8) 0.0238 Uani
O5C O -0.40082(13) -0.14224(11) 0.19395(8) 0.0238 Uani
O6C O -0.47080(18) -0.2500 0.36156(12) 0.0278 Uani
O7F O 0.02185(16) -0.33379(11) 0.48508(8) 0.0298 Uani
O7D O -0.02185(16) 0.16621(11) 0.51492(8) 0.0298 Uani
C9 C 0.2874(9) 0.2500 0.4265(4) 0.1470 Uani
C10 C 0.4023(8) 0.2500 0.3853(4) 0.0900 Uani
N1 N 0.4963(7) 0.2500 0.3513(6) 0.1390 Uani
loop_
_atom_site_aniso_label
_atom_site_aniso_U_11
_atom_site_aniso_U_22
_atom_site_aniso_U_33
_atom_site_aniso_U_23
_atom_site_aniso_U_13
_atom_site_aniso_U_12
C1 0.0192 0.0175 0.0179 0 0.0009 0
C2 0.058 0.0354 0.0204 0 -0.013 0
C3 0.0185 0.0415 0.0171 0 0.0001 0
C4 0.02 0.112 0.0184 0 -0.0016 0
C5 0.0236 0.0285 0.0294 0.007 0.0011 -0.0004
C6 0.0403 0.0498 0.0714 0.0315 -0.0143 -0.0168
C7 0.0395 0.026 0.021 0.0034 0.006 0.0076
C8 0.0626 0.0505 0.0665 0.0269 0.0263 0.0311
Mn1 0.01396 0.01953 0.0129 0 -0.00045 0
Mn2 0.01382 0.0227 0.01407 0 -0.00219 0
Mn3 0.0275(2) 0.01335(19) 0.01746(18) -0.00320(14) -0.00011(16) 0.00050(15)
O1 0.0155 0.0415 0.0151 0 -0.0006 0
O2 0.0209 0.0251 0.023 0.007 -0.0021 0.0001
O3 0.0579 0.0222 0.0217 0.0007 0.0092 -0.0053
O4 0.0292 0.0476 0.0425 0.0265 -0.0036 -0.0014
O5 0.025 0.0227 0.0236 0.0059 0.0069 0.0047
O6 0.0162 0.0497 0.0175 0 0.0011 0
O7 0.0547 0.0147 0.0199 -0.0003 -0.0035 0.0052
C5F 0.0236 0.0285 0.0294 -0.007 0.0011 0.0004
C6F 0.0403 0.0498 0.0714 -0.0315 -0.0143 0.0168
C7F 0.0395 0.026 0.021 -0.0034 0.006 -0.0076
C8F 0.0626 0.0505 0.0665 -0.0269 0.0263 -0.0311
Mn2C 0.01382 0.0227 0.01407 0 0.00219 0
Mn3B 0.0275 0.01335 0.01746 0.0032 -0.00011 -0.0005
O2F 0.0209 0.0251 0.023 -0.007 -0.0021 -0.0001
O3B 0.0579(11) 0.0222(7) 0.0217(7) -0.0007(6) 0.0092(7) 0.0053(7)
O3F 0.0579 0.0222 0.0217 -0.0007 0.0092 0.0053
O4B 0.0292(9) 0.0476(10) 0.0425(9) -0.0265(8) -0.0036(7) 0.0014(7)
O4F 0.0292 0.0476 0.0425 -0.0265 -0.0036 0.0014
O5F 0.025 0.0227 0.0236 -0.0059 0.0069 -0.0047
O5E 0.025 0.0227 0.0236 -0.0059 -0.0069 0.0047
O5C 0.025 0.0227 0.0236 0.0059 -0.0069 -0.0047
O6C 0.0162 0.0497 0.0175 0 -0.0011 0
O7F 0.0547 0.0147 0.0199 0.0003 -0.0035 -0.0052
O7D 0.0547(10) 0.0147(7) 0.0199(7) -0.0003(5) -0.0035(6) 0.0052(6)
C9 0.278(12) 0.061(4) 0.102(5) 0.000 0.108(7) 0.000
C10 0.148(7) 0.053(3) 0.069(4) 0.000 -0.019(4) 0.000
N1 0.114(6) 0.129(6) 0.174(8) 0.000 -0.032(5) 0.000
loop_
_geom_bond_atom_site_label_1
_geom_bond_atom_site_label_2
_geom_bond_site_symmetry_1
_geom_bond_site_symmetry_2
C1 C2 1_555 1_555
C3 C4 1_555 1_555
C5 C6 1_555 1_555
C6 H7 1_555 1_555
H8 C6 1_555 1_555
H9 C6 1_555 1_555
C7 C8 1_555 1_555
C8 H10 1_555 1_555
H11 C8 1_555 1_555
H12 C8 1_555 1_555
Mn1 O1 1_555 1_555
Mn2 O1 1_555 1_555
Mn3 O7 1_555 1_555
O1 C3 1_555 1_555
O2 C5 1_555 1_555
O3 C7 1_555 1_555
O4 C5 1_555 1_555
O5 C7 1_555 1_555
O6 C3 1_555 1_555
O7 C1 1_555 1_555
C9 C10 1_555 1_555
C10 N1 1_555 1_555
C5F C6F 1_555 1_555
C6F H7F 1_555 1_555
H8F C6F 1_555 1_555
H9F C6F 1_555 1_555
C7F C8F 1_555 1_555
C8F H10F 1_555 1_555
H11F C8F 1_555 1_555
H12F C8F 1_555 1_555
Mn2C O5 1_555 1_555
Mn3B O3 1_555 1_555
O2F Mn1 1_555 1_555
O3B Mn3 1_555 1_555
O3F Mn3 1_555 1_555
O4B Mn3 1_555 1_555
O4F Mn3 1_555 1_555
O5F Mn1 1_555 1_555
O5E Mn2 1_555 1_555
O5C Mn2 1_555 1_555
O6C Mn2 1_555 1_555
O7F C1 1_555 1_555
O7D Mn3 1_555 1_555
Mn1 O2 1_555 1_555
Mn1 O5 1_555 1_555
Mn1 O7 1_555 1_555
Mn1 O7F 1_555 1_555
Mn2 O2 1_555 1_555
Mn2 O2F 1_555 1_555
O4 Mn3B 1_555 1_555
O6 Mn2C 1_555 1_555
C5F O2F 1_555 1_555
C5F O4F 1_555 1_555
C7F O3F 1_555 1_555
C7F O5F 1_555 1_555
Mn2C O5F 1_555 1_555
Mn3B O7F 1_555 1_555

#END
