
#######################################################################
#
#                 Cambridge Crystallographic Data Centre
#                                CCDC 
#
#######################################################################
#
# If this CIF has been generated from an entry in the Cambridge 
# Structural Database, then it will include bibliographic, chemical, 
# crystal, experimental, refinement or atomic coordinate data resulting 
# from the CCDC's data processing and validation procedures.
#
#######################################################################

data_ETEPID
_chemical_formula_moiety         'C96 H100 Cl2 N56 O41 Rb5 2-'
_symmetry_cell_setting           tetragonal
_symmetry_space_group_name_H-M   'I 41'
_symmetry_Int_Tables_number      80
_space_group_name_Hall           'I 4bw'
loop_
_symmetry_equiv_pos_site_id
_symmetry_equiv_pos_as_xyz
1 x,y,z
2 -x,-y,z
3 -y,1/2+x,1/4+z
4 y,1/2-x,1/4+z
5 1/2+x,1/2+y,1/2+z
6 1/2-x,1/2-y,1/2+z
7 1/2-y,x,3/4+z
8 1/2+y,-x,3/4+z
_cell_length_a                   27.994(4)
_cell_length_b                   27.994(4)
_cell_length_c                   19.391(6)
_cell_angle_alpha                90
_cell_angle_beta                 90
_cell_angle_gamma                90
_cell_volume                     15196
loop_
_atom_site_label
_atom_site_type_symbol
_atom_site_fract_x
_atom_site_fract_y
_atom_site_fract_z
_atom_site_U_iso_or_equiv
_atom_site_thermal_displace_type
O2 O 0.8605(5) 0.0367(4) 0.9851(7) 0.2843 Uani
O4 O 0.9907(4) -0.0299(7) 0.9941(5) 0.1630 Uani
Rb1 Rb 0.93829(3) 0.03498(2) 0.88724(5) 0.0846 Uani
C1 C 1.05719(16) 0.08778(19) 0.8086(4) 0.0627 Uani
C2 C 1.09031(18) 0.16073(18) 0.7806(4) 0.0750 Uani
H1 H 1.0710 0.1902 0.7758 0.0900 Uiso
C3 C 1.08733(17) 0.13078(17) 0.7163(4) 0.0670 Uani
H2 H 1.0663 0.1454 0.6811 0.0800 Uiso
C4 C 1.16730(19) 0.15521(19) 0.7328(4) 0.0757 Uani
C5 C 1.04892(18) 0.05064(18) 0.6964(3) 0.0573 Uani
H3 H 1.0313 0.0669 0.6596 0.0690 Uiso
H4 H 1.0261 0.0313 0.7227 0.0690 Uiso
C6 C 1.1488(2) 0.11265(19) 0.6244(4) 0.0750 Uani
H5 H 1.1243 0.1239 0.5921 0.0900 Uiso
H6 H 1.1793 0.1271 0.6109 0.0900 Uiso
C7 C 1.08810(16) -0.02844(17) 0.6800(3) 0.0463 Uani
C8 C 1.11118(17) 0.0322(2) 0.6064(3) 0.0590 Uani
H7 H 1.0901 0.0461 0.5706 0.0710 Uiso
C9 C 1.13361(19) -0.0155(2) 0.5813(3) 0.0610 Uani
H8 H 1.1206 -0.0253 0.5360 0.0730 Uiso
C10 C 1.19369(18) 0.0412(2) 0.5983(3) 0.0563 Uani
C11 C 1.12834(18) -0.09870(19) 0.6313(3) 0.0637 Uani
H9 H 1.1208 -0.1098 0.5846 0.0760 Uiso
H10 H 1.1069 -0.1152 0.6634 0.0760 Uiso
C12 C 1.21861(19) -0.0346(2) 0.5399(3) 0.0593 Uani
H11 H 1.2026 -0.0494 0.5003 0.0710 Uiso
H12 H 1.2442 -0.0142 0.5221 0.0710 Uiso
C13 C 1.18801(19) -0.13449(18) 0.7070(4) 0.0607 Uani
C14 C 1.2148(2) -0.11599(19) 0.5963(3) 0.0640 Uani
H13 H 1.2038 -0.1328 0.5543 0.0770 Uiso
C15 C 1.25391(18) -0.14434(18) 0.6362(4) 0.0667 Uani
H14 H 1.2616 -0.1747 0.6125 0.0800 Uiso
C16 C 1.28538(18) -0.07051(19) 0.6027(3) 0.0527 Uani
C17 C 1.2517(2) -0.1862(2) 0.7495(4) 0.0787 Uani
H15 H 1.2652 -0.2132 0.7240 0.0950 Uiso
H16 H 1.2249 -0.1984 0.7769 0.0950 Uiso
C18 C 1.34171(19) -0.1253(2) 0.6576(3) 0.0653 Uani
H17 H 1.3653 -0.1046 0.6353 0.0780 Uiso
H18 H 1.3479 -0.1581 0.6424 0.0780 Uiso
C19 C 1.2810(2) -0.1662(2) 0.8653(4) 0.0780 Uani
C20 C 1.3376(2) -0.1626(2) 0.7741(4) 0.0790 Uani
H19 H 1.3505 -0.1927 0.7549 0.0950 Uiso
C21 C 1.3616(2) -0.1494(3) 0.8421(5) 0.0927 Uani
H20 H 1.3896 -0.1699 0.8518 0.1110 Uiso
C22 C 1.37180(18) -0.0869(2) 0.7649(3) 0.0583 Uani
C23 C 1.3337(3) -0.1596(5) 0.9662(7) 0.1397 Uani
H21 H 1.3641 -0.1763 0.9731 0.1680 Uiso
H22 H 1.3084 -0.1784 0.9884 0.1680 Uiso
C24 C 1.40912(19) -0.0742(3) 0.8778(4) 0.0900 Uani
H23 H 1.4344 -0.0963 0.8920 0.1080 Uiso
H24 H 1.4241 -0.0479 0.8523 0.1080 Uiso
C25 C 1.2989(4) -0.0913(6) 1.0413(6) 0.1500 Uani
C26 C 1.3765(3) -0.0791(5) 0.9997(5) 0.1233 Uani
H25 H 1.4051 -0.0972 1.0143 0.1480 Uiso
C27 C 1.3646(3) -0.0427(5) 1.0540(5) 0.1363 Uani
H26 H 1.3858 -0.0445 1.0949 0.1630 Uiso
C28 C 1.38398(19) -0.0091(5) 0.9462(3) 0.0933 Uani
C29 C 1.2903(4) -0.0304(4) 1.1262(4) 0.2333 Uani
H27 H 1.2642 -0.0507 1.1425 0.2800 Uiso
H28 H 1.3129 -0.0265 1.1644 0.2800 Uiso
C30 C 1.3745(2) 0.0524(7) 1.0410(5) 0.1803 Uani
H29 H 1.3936 0.0520 1.0834 0.2170 Uiso
H30 H 1.3915 0.0720 1.0071 0.2170 Uiso
C31 C 1.2220(5) 0.0255(8) 1.0947(5) 0.1493 Uani
C32 C 1.2963(3) 0.0643(7) 1.1115(4) 0.1750 Uani
H31 H 1.3138 0.0663 1.1558 0.2110 Uiso
C33 C 1.2593(3) 0.1031(6) 1.1099(5) 0.1587 Uani
H32 H 1.2552 0.1193 1.1549 0.1900 Uiso
C34 C 1.3207(3) 0.1175(7) 1.0289(7) 0.1443 Uani
C35 C 1.1691(2) 0.0976(4) 1.0909(4) 0.1503 Uani
H33 H 1.1446 0.0733 1.0995 0.1810 Uiso
H34 H 1.1686 0.1196 1.1302 0.1810 Uiso
C36 C 1.2573(3) 0.1804(6) 1.0410(7) 0.1810 Uani
H35 H 1.2818 0.2007 1.0197 0.2170 Uiso
H36 H 1.2483 0.1950 1.0850 0.2170 Uiso
C37 C 1.1161(2) 0.1126(4) 0.9898(4) 0.0877 Uani
C38 C 1.1674(2) 0.1748(4) 1.0169(5) 0.1250 Uani
H37 H 1.1600 0.1953 1.0570 0.1500 Uiso
C39 C 1.1370(2) 0.1863(3) 0.9566(5) 0.1050 Uani
H38 H 1.1193 0.2165 0.9635 0.1260 Uiso
C40 C 1.2178(2) 0.1930(3) 0.9304(8) 0.1197 Uani
C41 C 1.06227(16) 0.1453(2) 0.9050(4) 0.0743 Uani
H39 H 1.0482 0.1773 0.9048 0.0890 Uiso
H40 H 1.0391 0.1235 0.9259 0.0890 Uiso
C42 C 1.1601(2) 0.2096(2) 0.8343(7) 0.1077 Uani
H41 H 1.1363 0.2351 0.8388 0.1290 Uiso
H42 H 1.1891 0.2235 0.8141 0.1290 Uiso
N1 N 1.07115(14) 0.13038(15) 0.8336(3) 0.0647 Uani
N2 N 1.06908(14) 0.08519(16) 0.7404(3) 0.0667 Uani
N3 N 1.14171(16) 0.17249(16) 0.7887(3) 0.0747 Uani
N4 N 1.13653(15) 0.12868(15) 0.6937(3) 0.0690 Uani
N5 N 1.08470(13) 0.01891(16) 0.6653(2) 0.0563 Uani
N6 N 1.11972(14) -0.04820(14) 0.6353(2) 0.0513 Uani
N7 N 1.15263(14) 0.06314(15) 0.6191(3) 0.0610 Uani
N8 N 1.18395(14) -0.00472(15) 0.5771(2) 0.0500 Uani
N9 N 1.17738(15) -0.11132(14) 0.6475(3) 0.0587 Uani
N10 N 1.23384(15) -0.15285(15) 0.7017(3) 0.0580 Uani
N11 N 1.23900(16) -0.07086(17) 0.5807(3) 0.0697 Uani
N12 N 1.29506(15) -0.11147(16) 0.6350(3) 0.0633 Uani
N13 N 1.28778(16) -0.16796(18) 0.7961(3) 0.0733 Uani
N14 N 1.32390(19) -0.1559(3) 0.8932(4) 0.1050 Uani
N15 N 1.34814(16) -0.12270(16) 0.7309(3) 0.0640 Uani
N16 N 1.37521(15) -0.0992(2) 0.8324(3) 0.0737 Uani
N17 N 1.3361(2) -0.1105(4) 0.9993(3) 0.1193 Uani
N18 N 1.3146(2) -0.0547(4) 1.0694(3) 0.1343 Uani
N19 N 1.38631(19) -0.0558(3) 0.9370(3) 0.0887 Uani
N20 N 1.3709(2) 0.0019(4) 1.0138(4) 0.1220 Uani
N21 N 1.2711(2) 0.0163(4) 1.1079(4) 0.1543 Uani
N22 N 1.2174(3) 0.0727(6) 1.0904(5) 0.1637 Uani
N23 N 1.3298(3) 0.0740(6) 1.0554(4) 0.1443 Uani
N24 N 1.2772(2) 0.1358(5) 1.0540(5) 0.1537 Uani
N25 N 1.15491(19) 0.1243(3) 1.0297(4) 0.1207 Uani
N26 N 1.10453(16) 0.1459(2) 0.9460(4) 0.0807 Uani
N27 N 1.2155(2) 0.1794(3) 0.9961(6) 0.1203 Uani
N28 N 1.17127(17) 0.1904(2) 0.9025(5) 0.0993 Uani
O5 O 1.03548(12) 0.05645(12) 0.8410(2) 0.0614 Uani
O6 O 1.06593(11) -0.04927(12) 0.72643(19) 0.0517 Uani
O7 O 1.16235(14) -0.13737(15) 0.7582(2) 0.0717 Uani
O8 O 1.24539(13) -0.17380(19) 0.8980(3) 0.0923 Uani
O9 O 1.26123(19) -0.1140(4) 1.0558(3) 0.1600 Uani
O10 O 1.1915(2) -0.0020(5) 1.0944(3) 0.1703 Uani
O11 O 1.09732(17) 0.0721(2) 0.9947(3) 0.0997 Uani
O12 O 1.20884(13) 0.16362(13) 0.7209(3) 0.0797 Uani
O13 O 1.23441(12) 0.05982(14) 0.5970(2) 0.0677 Uani
O14 O 1.31421(13) -0.03754(13) 0.5926(2) 0.0630 Uani
O15 O 1.38627(13) -0.05022(13) 0.7370(2) 0.0583 Uani
O16 O 1.39164(14) 0.0255(2) 0.9030(3) 0.0897 Uani
O17 O 1.34468(19) 0.1392(3) 0.9864(4) 0.1283 Uani
O18 O 1.25319(15) 0.20219(19) 0.8990(4) 0.1167 Uani
C43 C 0.8067(2) 0.0157(2) 0.8210(4) 0.0820 Uani
C44 C 0.7608(3) 0.0344(3) 0.8203(5) 0.0983 Uani
H43 H 0.7552 0.0670 0.8118 0.1180 Uiso
C45 C 0.7234(2) 0.0031(3) 0.8327(6) 0.1103 Uani
H44 H 0.6923 0.0158 0.8324 0.1330 Uiso
C46 C 0.7278(2) -0.0425(2) 0.8446(5) 0.0913 Uani
C47 C 0.7720(3) -0.0603(3) 0.8423(7) 0.1433 Uani
H45 H 0.7763 -0.0933 0.8492 0.1720 Uiso
C48 C 0.8123(3) -0.0315(3) 0.8299(7) 0.1227 Uani
H46 H 0.8429 -0.0452 0.8280 0.1470 Uiso
O19 O 0.84703(15) 0.04436(17) 0.8166(3) 0.1010 Uani
H47 H 0.8445 0.0706 0.7865 0.1210 Uiso
O20 O 0.6906(2) -0.0745(2) 0.8533(4) 0.1290 Uani
H48 H 0.6648 -0.0604 0.8480 0.1940 Uiso
O2A O 1.1395(5) -0.0367(4) 0.9851(7) 0.2843 Uani
O4A O 1.0093(4) 0.0299(7) 0.9941(5) 0.1630 Uani
Rb1A Rb 1.06171(3) -0.03498(2) 0.88724(5) 0.0846 Uani
Rb1F Rb 1.46502(2) -0.06171(3) 0.63724(5) 0.0846 Uani
Rb1C Rb 1.03498(2) 0.56171(3) 1.13724(5) 0.0846 Uani
Rb1B Rb 0.96502(2) 0.43829(3) 1.13724(5) 0.0846 Uani
C1C C 1.08778(19) 0.44281(16) 1.0586(4) 0.0627 Uani
C2C C 1.16073(18) 0.40969(18) 1.0306(4) 0.0750 Uani
H1C H 1.1902 0.4290 1.0258 0.0900 Uiso
C3C C 1.13078(17) 0.41267(17) 0.9663(4) 0.0670 Uani
H2C H 1.1454 0.4337 0.9311 0.0800 Uiso
C4C C 1.15521(19) 0.33270(19) 0.9828(4) 0.0757 Uani
C5C C 1.05064(18) 0.45108(18) 0.9464(3) 0.0573 Uani
H3C H 1.0669 0.4687 0.9096 0.0690 Uiso
H4C H 1.0313 0.4739 0.9727 0.0690 Uiso
C6C C 1.11265(19) 0.3512(2) 0.8744(4) 0.0750 Uani
H5C H 1.1239 0.3757 0.8421 0.0900 Uiso
H6C H 1.1271 0.3207 0.8609 0.0900 Uiso
C7C C 0.97156(17) 0.41190(16) 0.9300(3) 0.0463 Uani
C8C C 1.0322(2) 0.38882(17) 0.8564(3) 0.0590 Uani
H7C H 1.0461 0.4099 0.8206 0.0710 Uiso
C9C C 0.9845(2) 0.36639(19) 0.8313(3) 0.0610 Uani
H8C H 0.9747 0.3794 0.7860 0.0730 Uiso
C10C C 1.0412(2) 0.30631(18) 0.8483(3) 0.0563 Uani
C11C C 0.90130(19) 0.37166(18) 0.8813(3) 0.0637 Uani
H9C H 0.8902 0.3792 0.8346 0.0760 Uiso
H10C H 0.8848 0.3931 0.9134 0.0760 Uiso
C12C C 0.9654(2) 0.28139(19) 0.7899(3) 0.0593 Uani
H11C H 0.9506 0.2974 0.7503 0.0710 Uiso
H12C H 0.9858 0.2558 0.7721 0.0710 Uiso
C13C C 0.86551(18) 0.31199(19) 0.9570(4) 0.0607 Uani
C14C C 0.88401(19) 0.2852(2) 0.8463(3) 0.0640 Uani
H13C H 0.8672 0.2962 0.8043 0.0770 Uiso
C15C C 0.85566(18) 0.24609(18) 0.8862(4) 0.0667 Uani
H14C H 0.8253 0.2384 0.8625 0.0800 Uiso
C16C C 0.92949(19) 0.21462(18) 0.8527(3) 0.0527 Uani
C17C C 0.8138(2) 0.2483(2) 0.9995(4) 0.0787 Uani
H15C H 0.7868 0.2348 0.9740 0.0950 Uiso
H16C H 0.8016 0.2751 1.0269 0.0950 Uiso
C18C C 0.8747(2) 0.15829(19) 0.9076(3) 0.0653 Uani
H17C H 0.8954 0.1347 0.8853 0.0780 Uiso
H18C H 0.8419 0.1521 0.8924 0.0780 Uiso
C19C C 0.8338(2) 0.2190(2) 1.1153(4) 0.0780 Uani
C20C C 0.8374(2) 0.1624(2) 1.0241(4) 0.0790 Uani
H19C H 0.8073 0.1495 1.0049 0.0950 Uiso
C21C C 0.8506(3) 0.1384(2) 1.0921(5) 0.0927 Uani
H20C H 0.8301 0.1104 1.1018 0.1110 Uiso
C22C C 0.9131(2) 0.12820(18) 1.0149(3) 0.0583 Uani
C23C C 0.8404(5) 0.1663(3) 1.2162(7) 0.1397 Uani
H21C H 0.8237 0.1359 1.2231 0.1680 Uiso
H22C H 0.8216 0.1916 1.2384 0.1680 Uiso
C24C C 0.9258(3) 0.09088(19) 1.1278(4) 0.0900 Uani
H23C H 0.9037 0.0656 1.1420 0.1080 Uiso
H24C H 0.9521 0.0759 1.1023 0.1080 Uiso
C25C C 0.9087(6) 0.2011(4) 1.2913(6) 0.1500 Uani
C26C C 0.9209(5) 0.1235(3) 1.2497(5) 0.1233 Uani
H25C H 0.9028 0.0949 1.2643 0.1480 Uiso
C27C C 0.9573(5) 0.1354(3) 1.3040(5) 0.1363 Uani
H26C H 0.9555 0.1142 1.3449 0.1630 Uiso
C28C C 0.9909(5) 0.11602(19) 1.1962(3) 0.0933 Uani
C29C C 0.9696(4) 0.2097(4) 1.3762(4) 0.2333 Uani
H27C H 0.9493 0.2358 1.3925 0.2800 Uiso
H28C H 0.9735 0.1871 1.4144 0.2800 Uiso
C30C C 1.0524(7) 0.1255(2) 1.2910(5) 0.1803 Uani
H29C H 1.0520 0.1064 1.3334 0.2170 Uiso
H30C H 1.0720 0.1085 1.2571 0.2170 Uiso
C31C C 1.0255(8) 0.2780(5) 1.3447(5) 0.1493 Uani
C32C C 1.0643(7) 0.2037(3) 1.3615(4) 0.1750 Uani
H31C H 1.0663 0.1862 1.4058 0.2110 Uiso
C33C C 1.1031(6) 0.2407(3) 1.3599(5) 0.1587 Uani
H32C H 1.1193 0.2448 1.4049 0.1900 Uiso
C34C C 1.1175(7) 0.1793(3) 1.2789(7) 0.1443 Uani
C35C C 1.0976(4) 0.3309(2) 1.3409(4) 0.1503 Uani
H33C H 1.0733 0.3554 1.3495 0.1810 Uiso
H34C H 1.1196 0.3314 1.3802 0.1810 Uiso
C36C C 1.1804(6) 0.2427(3) 1.2910(7) 0.1810 Uani
H35C H 1.2007 0.2182 1.2697 0.2170 Uiso
H36C H 1.1950 0.2517 1.3350 0.2170 Uiso
C37C C 1.1126(4) 0.3839(2) 1.2398(4) 0.0877 Uani
C38C C 1.1748(4) 0.3326(2) 1.2669(5) 0.1250 Uani
H37C H 1.1953 0.3400 1.3070 0.1500 Uiso
C39C C 1.1863(3) 0.3630(2) 1.2066(5) 0.1050 Uani
H38C H 1.2165 0.3807 1.2135 0.1260 Uiso
C40C C 1.1930(3) 0.2822(2) 1.1804(8) 0.1197 Uani
C41C C 1.1453(2) 0.43773(16) 1.1550(4) 0.0743 Uani
H39C H 1.1773 0.4518 1.1548 0.0890 Uiso
H40C H 1.1235 0.4609 1.1759 0.0890 Uiso
C42C C 1.2096(2) 0.3399(2) 1.0843(7) 0.1077 Uani
H41C H 1.2351 0.3637 1.0888 0.1290 Uiso
H42C H 1.2235 0.3109 1.0641 0.1290 Uiso
N1C N 1.13038(15) 0.42885(14) 1.0836(3) 0.0647 Uani
N2C N 1.08519(16) 0.43092(14) 0.9904(3) 0.0667 Uani
N3C N 1.17249(16) 0.35829(16) 1.0387(3) 0.0747 Uani
N4C N 1.12868(15) 0.36347(15) 0.9437(3) 0.0690 Uani
N5C N 1.01891(16) 0.41530(13) 0.9153(2) 0.0563 Uani
N6C N 0.95180(14) 0.38028(14) 0.8853(2) 0.0513 Uani
N7C N 1.06314(15) 0.34737(14) 0.8691(3) 0.0610 Uani
N8C N 0.99528(15) 0.31605(14) 0.8271(2) 0.0500 Uani
N9C N 0.88868(14) 0.32262(15) 0.8975(3) 0.0587 Uani
N10C N 0.84715(15) 0.26616(15) 0.9517(3) 0.0580 Uani
N11C N 0.92914(17) 0.26100(16) 0.8307(3) 0.0697 Uani
N12C N 0.88853(16) 0.20494(15) 0.8850(3) 0.0633 Uani
N13C N 0.83204(18) 0.21222(16) 1.0461(3) 0.0733 Uani
N14C N 0.8441(3) 0.17610(19) 1.1432(4) 0.1050 Uani
N15C N 0.87730(16) 0.15186(16) 0.9809(3) 0.0640 Uani
N16C N 0.9008(2) 0.12479(15) 1.0824(3) 0.0737 Uani
N17C N 0.8895(4) 0.1639(2) 1.2493(3) 0.1193 Uani
N18C N 0.9453(4) 0.1854(2) 1.3194(3) 0.1343 Uani
N19C N 0.9442(3) 0.11369(19) 1.1870(3) 0.0887 Uani
N20C N 1.0019(4) 0.1291(2) 1.2638(4) 0.1220 Uani
N21C N 1.0163(4) 0.2289(2) 1.3579(4) 0.1543 Uani
N22C N 1.0727(6) 0.2826(3) 1.3404(5) 0.1637 Uani
N23C N 1.0740(6) 0.1702(3) 1.3054(4) 0.1443 Uani
N24C N 1.1358(5) 0.2228(2) 1.3040(5) 0.1537 Uani
N25C N 1.1243(3) 0.34509(19) 1.2797(4) 0.1207 Uani
N26C N 1.1459(2) 0.39547(16) 1.1960(4) 0.0807 Uani
N27C N 1.1794(3) 0.2845(2) 1.2461(6) 0.1203 Uani
N28C N 1.1904(2) 0.32873(17) 1.1525(5) 0.0993 Uani
O5C O 1.05645(12) 0.46452(12) 1.0910(2) 0.0614 Uani
O5A O 0.96452(12) -0.05645(12) 0.8410(2) 0.0614 Uani
O6C O 0.95073(12) 0.43407(11) 0.97643(19) 0.0517 Uani
O6A O 0.93407(11) 0.04927(12) 0.72643(19) 0.0517 Uani
O7C O 0.86263(15) 0.33765(14) 1.0082(2) 0.0717 Uani
O8C O 0.82620(19) 0.25461(13) 1.1480(3) 0.0923 Uani
O9C O 0.8860(4) 0.23877(19) 1.3058(3) 0.1600 Uani
O10C O 0.9980(5) 0.3085(2) 1.3444(3) 0.1703 Uani
O11C O 1.0721(2) 0.40268(17) 1.2447(3) 0.0997 Uani
O12C O 1.16362(13) 0.29116(13) 0.9709(3) 0.0797 Uani
O13C O 1.05982(14) 0.26559(12) 0.8470(2) 0.0677 Uani
O14C O 0.96246(13) 0.18579(13) 0.8426(2) 0.0630 Uani
O15C O 0.94978(13) 0.11373(13) 0.9870(2) 0.0583 Uani
O15B O 1.05022(13) -0.11373(13) 0.9870(2) 0.0583 Uani
O16C O 1.0255(2) 0.10836(14) 1.1530(3) 0.0897 Uani
O17C O 1.1392(3) 0.15532(19) 1.2364(4) 0.1283 Uani
O18C O 1.20219(19) 0.24681(15) 1.1490(4) 0.1167 Uani
C43A C 1.1933(2) -0.0157(2) 0.8210(4) 0.0820 Uani
C44A C 1.2392(3) -0.0344(3) 0.8203(5) 0.0983 Uani
H43A H 1.2448 -0.0670 0.8118 0.1180 Uiso
C45A C 1.2766(2) -0.0031(3) 0.8327(6) 0.1103 Uani
H44A H 1.3077 -0.0158 0.8324 0.1330 Uiso
C46A C 1.2722(2) 0.0425(2) 0.8446(5) 0.0913 Uani
C47A C 1.2280(3) 0.0603(3) 0.8423(7) 0.1433 Uani
H45A H 1.2237 0.0933 0.8492 0.1720 Uiso
C48A C 1.1877(3) 0.0315(3) 0.8299(7) 0.1227 Uani
H46A H 1.1571 0.0452 0.8280 0.1470 Uiso
O19A O 1.15297(15) -0.04436(17) 0.8166(3) 0.1010 Uani
H47A H 1.1555 -0.0706 0.7865 0.1210 Uiso
O20A O 1.3094(2) 0.0745(2) 0.8533(4) 0.1290 Uani
H48A H 1.3352 0.0604 0.8480 0.1940 Uiso
O3 O 0.9744(6) -0.1041(4) 0.4923(5) 0.1403 Uani
Cl1 Cl 1.0000 -0.0000 0.5436(4) 0.1687 Uani
Cl2 Cl 0.9807(7) 0.1789(5) 0.5864(7) 0.1847 Uani
O1 O 0.97365(12) 0.14170(13) 0.7190(2) 0.0653 Uani
loop_
_atom_site_aniso_label
_atom_site_aniso_U_11
_atom_site_aniso_U_22
_atom_site_aniso_U_33
_atom_site_aniso_U_23
_atom_site_aniso_U_13
_atom_site_aniso_U_12
O2 0.329(14) 0.235(10) 0.289(12) -0.162(10) 0.208(12) -0.228(11)
O4 0.062(7) 0.38(3) 0.047(5) 0.050(9) -0.006(5) -0.029(9)
Rb1 0.0509(3) 0.0959(5) 0.1069(5) -0.0506(4) -0.0034(3) 0.0115(3)
C1 0.019 0.044 0.125 -0.006 -0.002 -0.001
C2 0.027 0.033 0.165 -0.003 0.008 0.006
C3 0.033 0.034 0.134 0.015 0.001 0.008
C4 0.033 0.039 0.155 0.01 0.022 0.002
C5 0.038 0.046 0.088 -0.006 -0.001 -0.008
C6 0.054 0.047 0.124 0.017 0.038 -0.004
C7 0.028 0.048 0.063 -0.013 -0.002 -0.006
C8 0.035 0.072 0.07 0.008 -0.009 -0.01
C9 0.057 0.084 0.042 -0.007 0.001 -0.023
C10 0.037 0.062 0.07 0.012 0.003 -0.01
C11 0.047 0.058 0.086 -0.029 0.011 -0.018
C12 0.049 0.07 0.059 -0.016 0.014 -0.016
C13 0.047 0.034 0.101 -0.016 0.026 -0.011
C14 0.063 0.054 0.075 -0.029 0.027 -0.02
C15 0.047 0.043 0.11 -0.032 0.033 -0.019
C16 0.05 0.05 0.058 -0.015 0.018 -0.01
C17 0.057 0.054 0.125 -0.011 0.046 -0.015
C18 0.043 0.063 0.09 -0.005 0.03 -0.012
C19 0.044 0.08 0.11 0.057 0.013 -0.003
C20 0.05 0.064 0.123 0.024 0.019 0.014
C21 0.037 0.094 0.147 0.067 0.041 0.017
C22 0.038 0.07 0.067 0.014 0.03 0.016
C23 0.06 0.181 0.178 0.119 0.013 -0.003
C24 0.029 0.151 0.09 0.044 0.008 -0.003
C25 0.083 0.261 0.106 0.073 -0.063 -0.064
C26 0.051 0.242 0.077 0.077 0 0.01
C27 0.055 0.279 0.075 0.067 0.008 -0.004
C28 0.025 0.207 0.048 0.027 -0.009 -0.009
C29 0.072 0.52 0.108 0.136 -0.025 0.001
C30 0.026 0.44 0.075 -0.056 -0.007 -0.009
C31 0.079 0.32 0.049 -0.016 -0.002 -0.018
C32 0.045 0.43 0.05 -0.055 -0.008 0.008
C33 0.049 0.357 0.07 -0.062 -0.007 -0.005
C34 0.045 0.284 0.104 -0.109 -0.014 -0.019
C35 0.039 0.321 0.091 -0.064 0.002 0.005
C36 0.049 0.281 0.213 -0.179 0.033 -0.059
C37 0.03 0.127 0.106 -0.036 0.014 -0.022
C38 0.026 0.191 0.158 -0.12 0.012 -0.026
C39 0.043 0.092 0.18 -0.089 0.03 -0.013
C40 0.038 0.095 0.226 -0.084 0.026 -0.013
C41 0.022 0.055 0.146 -0.033 0.006 0.002
C42 0.041 0.04 0.242 -0.034 0.015 0
N1 0.037 0.04 0.117 -0.02 0.011 -0.0024
N2 0.029 0.052 0.119 -0.006 0.009 -0.0083
N3 0.04 0.039 0.145 0.002 -0.003 -0.012
N4 0.038 0.037 0.132 0.005 0.008 -0.0053
N5 0.029 0.057 0.083 0.003 0.005 -0.0098
N6 0.044 0.047 0.063 -0.012 0.007 -0.0058
N7 0.036 0.053 0.094 0.016 0.005 -0.0065
N8 0.043 0.055 0.052 -0.004 -0.0007 -0.0127
N9 0.046 0.041 0.089 -0.006 0.017 -0.0065
N10 0.048 0.04 0.086 -0.001 0.021 -0.0038
N11 0.052 0.054 0.103 -0.014 0.023 -0.022
N12 0.038 0.058 0.094 -0.016 0.026 -0.009
N13 0.04 0.066 0.114 0.039 0.025 0.004
N14 0.055 0.14 0.12 0.09 0.014 -0.003
N15 0.049 0.046 0.097 0.01 0.025 -0.002
N16 0.037 0.092 0.092 0.024 0.008 -0.005
N17 0.034 0.248 0.076 0.083 0 -0.009
N18 0.047 0.312 0.044 0.055 0.005 0.01
N19 0.048 0.152 0.066 0.028 -0.004 -0.01
N20 0.05 0.254 0.062 -0.011 -0.003 -0.006
N21 0.04 0.346 0.077 -0.033 0.007 -0.026
N22 0.031 0.359 0.101 -0.059 0.011 -0.044
N23 0.061 0.3 0.072 -0.027 -0.008 0.012
N24 0.043 0.296 0.122 -0.116 0.003 -0.013
N25 0.035 0.2 0.127 -0.088 0.007 -0.005
N26 0.04 0.059 0.143 -0.038 -0.018 0.009
N27 0.041 0.164 0.156 -0.095 0.011 -0.004
N28 0.033 0.084 0.181 -0.066 0.007 -0.007
O5 0.041 0.0423 0.101 -0.011 0.0044 -0.0032
O6 0.0359 0.0541 0.065 -0.0027 0.0142 -0.0101
O7 0.05 0.079 0.086 0.002 0.031 -0.0092
O8 0.046 0.119 0.112 0.063 0.017 -0.01
O9 0.063 0.332 0.085 0.099 -0.002 -0.012
O10 0.058 0.377 0.076 0.019 -0.013 -0.009
O11 0.055 0.128 0.116 -0.007 -0.007 0.011
O12 0.036 0.043 0.16 0.007 0.006 -0.0029
O13 0.042 0.064 0.097 -0.002 0.007 -0.0171
O14 0.052 0.06 0.077 -0.0079 0.0188 -0.0186
O15 0.055 0.053 0.067 0.0051 0.0108 0.0043
O16 0.044 0.148 0.077 0.004 -0.004 -0.021
O17 0.045 0.218 0.122 -0.076 0.017 -0.01
O18 0.035 0.109 0.206 -0.026 0.003 -0.013
C43 0.044(3) 0.072(4) 0.130(6) 0.023(4) 0.001(3) -0.007(3)
C44 0.067(4) 0.076(4) 0.152(7) 0.034(5) 0.007(4) 0.005(4)
C45 0.044(4) 0.093(6) 0.194(10) -0.016(6) 0.034(5) -0.006(3)
C46 0.067(4) 0.061(4) 0.146(7) -0.017(4) 0.050(4) -0.015(3)
C47 0.091(6) 0.069(5) 0.270(14) -0.011(6) 0.079(8) -0.006(4)
C48 0.071(5) 0.063(5) 0.234(11) -0.026(6) 0.040(6) 0.000(4)
O19 0.052(2) 0.082(3) 0.169(5) 0.049(3) -0.011(3) -0.010(2)
O20 0.100(4) 0.110(4) 0.177(6) -0.078(4) 0.051(4) -0.045(3)
O2A 0.329 0.235 0.289 0.162 -0.208 -0.228
O4A 0.062 0.38 0.047 -0.05 0.006 -0.029
Rb1A 0.0509 0.0959 0.1069 0.0506 0.0034 0.0115
Rb1F 0.0959 0.0509 0.1069 -0.0034 0.0506 -0.0115
Rb1C 0.0959 0.0509 0.1069 0.0034 -0.0506 -0.0115
Rb1B 0.0959 0.0509 0.1069 -0.0034 0.0506 -0.0115
C1C 0.044 0.019 0.125 0.002 -0.006 0.001
C2C 0.033 0.027 0.165 -0.008 -0.003 -0.006
C3C 0.034 0.033 0.134 -0.001 0.015 -0.008
C4C 0.039 0.033 0.155 -0.022 0.01 -0.002
C5C 0.046 0.038 0.088 0.001 -0.006 0.008
C6C 0.047 0.054 0.124 -0.038 0.017 0.004
C7C 0.048 0.028 0.063 0.002 -0.013 0.006
C8C 0.072 0.035 0.07 0.009 0.008 0.01
C9C 0.084 0.057 0.042 -0.001 -0.007 0.023
C10C 0.062 0.037 0.07 -0.003 0.012 0.01
C11C 0.058 0.047 0.086 -0.011 -0.029 0.018
C12C 0.07 0.049 0.059 -0.014 -0.016 0.016
C13C 0.034 0.047 0.101 -0.026 -0.016 0.011
C14C 0.054 0.063 0.075 -0.027 -0.029 0.02
C15C 0.043 0.047 0.11 -0.033 -0.032 0.019
C16C 0.05 0.05 0.058 -0.018 -0.015 0.01
C17C 0.054 0.057 0.125 -0.046 -0.011 0.015
C18C 0.063 0.043 0.09 -0.03 -0.005 0.012
C19C 0.08 0.044 0.11 -0.013 0.057 0.003
C20C 0.064 0.05 0.123 -0.019 0.024 -0.014
C21C 0.094 0.037 0.147 -0.041 0.067 -0.017
C22C 0.07 0.038 0.067 -0.03 0.014 -0.016
C23C 0.181 0.06 0.178 -0.013 0.119 0.003
C24C 0.151 0.029 0.09 -0.008 0.044 0.003
C25C 0.261 0.083 0.106 0.063 0.073 0.064
C26C 0.242 0.051 0.077 0 0.077 -0.01
C27C 0.279 0.055 0.075 -0.008 0.067 0.004
C28C 0.207 0.025 0.048 0.009 0.027 0.009
C29C 0.52 0.072 0.108 0.025 0.136 -0.001
C30C 0.44 0.026 0.075 0.007 -0.056 0.009
C31C 0.32 0.079 0.049 0.002 -0.016 0.018
C32C 0.43 0.045 0.05 0.008 -0.055 -0.008
C33C 0.357 0.049 0.07 0.007 -0.062 0.005
C34C 0.284 0.045 0.104 0.014 -0.109 0.019
C35C 0.321 0.039 0.091 -0.002 -0.064 -0.005
C36C 0.281 0.049 0.213 -0.033 -0.179 0.059
C37C 0.127 0.03 0.106 -0.014 -0.036 0.022
C38C 0.191 0.026 0.158 -0.012 -0.12 0.026
C39C 0.092 0.043 0.18 -0.03 -0.089 0.013
C40C 0.095 0.038 0.226 -0.026 -0.084 0.013
C41C 0.055 0.022 0.146 -0.006 -0.033 -0.002
C42C 0.04 0.041 0.242 -0.015 -0.034 0
N1C 0.04 0.037 0.117 -0.011 -0.02 0.0024
N2C 0.052 0.029 0.119 -0.009 -0.006 0.0083
N3C 0.039 0.04 0.145 0.003 0.002 0.012
N4C 0.037 0.038 0.132 -0.008 0.005 0.0053
N5C 0.057 0.029 0.083 -0.005 0.003 0.0098
N6C 0.047 0.044 0.063 -0.007 -0.012 0.0058
N7C 0.053 0.036 0.094 -0.005 0.016 0.0065
N8C 0.055 0.043 0.052 0.0007 -0.004 0.0127
N9C 0.041 0.046 0.089 -0.017 -0.006 0.0065
N10C 0.04 0.048 0.086 -0.021 -0.001 0.0038
N11C 0.054 0.052 0.103 -0.023 -0.014 0.022
N12C 0.058 0.038 0.094 -0.026 -0.016 0.009
N13C 0.066 0.04 0.114 -0.025 0.039 -0.004
N14C 0.14 0.055 0.12 -0.014 0.09 0.003
N15C 0.046 0.049 0.097 -0.025 0.01 0.002
N16C 0.092 0.037 0.092 -0.008 0.024 0.005
N17C 0.248 0.034 0.076 0 0.083 0.009
N18C 0.312 0.047 0.044 -0.005 0.055 -0.01
N19C 0.152 0.048 0.066 0.004 0.028 0.01
N20C 0.254 0.05 0.062 0.003 -0.011 0.006
N21C 0.346 0.04 0.077 -0.007 -0.033 0.026
N22C 0.359 0.031 0.101 -0.011 -0.059 0.044
N23C 0.3 0.061 0.072 0.008 -0.027 -0.012
N24C 0.296 0.043 0.122 -0.003 -0.116 0.013
N25C 0.2 0.035 0.127 -0.007 -0.088 0.005
N26C 0.059 0.04 0.143 0.018 -0.038 -0.009
N27C 0.164 0.041 0.156 -0.011 -0.095 0.004
N28C 0.084 0.033 0.181 -0.007 -0.066 0.007
O5C 0.0423 0.041 0.101 -0.0044 -0.011 0.0032
O5A 0.0410(18) 0.0423(19) 0.101(3) 0.011(2) -0.0044(19) -0.0032(16)
O6C 0.0541 0.0359 0.065 -0.0142 -0.0027 0.0101
O6A 0.0359(17) 0.0541(19) 0.065(2) 0.0027(17) -0.0142(16) -0.0101(15)
O7C 0.079 0.05 0.086 -0.031 0.002 0.0092
O8C 0.119 0.046 0.112 -0.017 0.063 0.01
O9C 0.332 0.063 0.085 0.002 0.099 0.012
O10C 0.377 0.058 0.076 0.013 0.019 0.009
O11C 0.128 0.055 0.116 0.007 -0.007 -0.011
O12C 0.043 0.036 0.16 -0.006 0.007 0.0029
O13C 0.064 0.042 0.097 -0.007 -0.002 0.0171
O14C 0.06 0.052 0.077 -0.0188 -0.0079 0.0186
O15C 0.053 0.055 0.067 -0.0108 0.0051 -0.0043
O15B 0.053 0.055 0.067 0.0108 -0.0051 -0.0043
O16C 0.148 0.044 0.077 0.004 0.004 0.021
O17C 0.218 0.045 0.122 -0.017 -0.076 0.01
O18C 0.109 0.035 0.206 -0.003 -0.026 0.013
C43A 0.044 0.072 0.13 -0.023 -0.001 -0.007
C44A 0.067 0.076 0.152 -0.034 -0.007 0.005
C45A 0.044 0.093 0.194 0.016 -0.034 -0.006
C46A 0.067 0.061 0.146 0.017 -0.05 -0.015
C47A 0.091 0.069 0.27 0.011 -0.079 -0.006
C48A 0.071 0.063 0.234 0.026 -0.04 0
O19A 0.052 0.082 0.169 -0.049 0.011 -0.01
O20A 0.1 0.11 0.177 0.078 -0.051 -0.045
O3 0.242(16) 0.119(9) 0.060(6) -0.044(6) -0.008(8) 0.064(9)
Cl1 0.122(5) 0.284(12) 0.100(5) 0.000 0.000 -0.091(7)
Cl2 0.291(19) 0.122(8) 0.141(9) 0.061(8) 0.052(11) 0.000(10)
O1 0.045(2) 0.064(2) 0.087(3) -0.012(2) -0.0036(18) -0.0046(17)
loop_
_geom_bond_atom_site_label_1
_geom_bond_atom_site_label_2
_geom_bond_site_symmetry_1
_geom_bond_site_symmetry_2
O2 Rb1 1_555 1_555
O4 Rb1 1_555 1_555
Rb1 O5 1_555 1_555
C1 N1 1_555 1_555
C2 H1 1_555 1_555
C3 C2 1_555 1_555
H2 C3 1_555 1_555
C4 N3 1_555 1_555
C5 H3 1_555 1_555
H4 C5 1_555 1_555
C6 H5 1_555 1_555
H6 C6 1_555 1_555
C7 N5 1_555 1_555
C8 H7 1_555 1_555
C9 C8 1_555 1_555
H8 C9 1_555 1_555
C10 N7 1_555 1_555
C11 H9 1_555 1_555
H10 C11 1_555 1_555
C12 H11 1_555 1_555
H12 C12 1_555 1_555
C13 N9 1_555 1_555
C14 H13 1_555 1_555
C15 C14 1_555 1_555
H14 C15 1_555 1_555
C16 N11 1_555 1_555
C17 H15 1_555 1_555
H16 C17 1_555 1_555
C18 H17 1_555 1_555
H18 C18 1_555 1_555
C19 N13 1_555 1_555
C20 H19 1_555 1_555
C21 C20 1_555 1_555
H20 C21 1_555 1_555
C22 N15 1_555 1_555
C23 H21 1_555 1_555
H22 C23 1_555 1_555
C24 H23 1_555 1_555
H24 C24 1_555 1_555
C25 N17 1_555 1_555
C26 H25 1_555 1_555
C27 C26 1_555 1_555
H26 C27 1_555 1_555
C28 N19 1_555 1_555
C29 H27 1_555 1_555
H28 C29 1_555 1_555
C30 H29 1_555 1_555
H30 C30 1_555 1_555
C31 N21 1_555 1_555
C32 H31 1_555 1_555
C33 C32 1_555 1_555
H32 C33 1_555 1_555
C34 N23 1_555 1_555
C35 H33 1_555 1_555
H34 C35 1_555 1_555
C36 H35 1_555 1_555
H36 C36 1_555 1_555
C37 N25 1_555 1_555
C38 H37 1_555 1_555
C39 C38 1_555 1_555
H38 C39 1_555 1_555
C40 N27 1_555 1_555
C41 H39 1_555 1_555
H40 C41 1_555 1_555
C42 H41 1_555 1_555
H42 C42 1_555 1_555
N1 C2 1_555 1_555
N2 C1 1_555 1_555
N3 C2 1_555 1_555
N4 C3 1_555 1_555
N5 C5 1_555 1_555
N6 C7 1_555 1_555
N7 C6 1_555 1_555
N8 C9 1_555 1_555
N9 C11 1_555 1_555
N10 C13 1_555 1_555
N11 C12 1_555 1_555
N12 C15 1_555 1_555
N13 C17 1_555 1_555
N14 C19 1_555 1_555
N15 C18 1_555 1_555
N16 C21 1_555 1_555
N17 C23 1_555 1_555
N18 C25 1_555 1_555
N19 C24 1_555 1_555
N20 C27 1_555 1_555
N21 C29 1_555 1_555
N22 C31 1_555 1_555
N23 C30 1_555 1_555
N24 C33 1_555 1_555
N25 C35 1_555 1_555
N26 C37 1_555 1_555
N27 C36 1_555 1_555
N28 C39 1_555 1_555
O5 C1 1_555 1_555
O6 C7 1_555 1_555
O7 C13 1_555 1_555
O8 C19 1_555 1_555
O9 C25 1_555 1_555
O10 C31 1_555 1_555
O11 C37 1_555 1_555
O12 C4 1_555 1_555
O13 C10 1_555 1_555
O14 C16 1_555 1_555
O15 C22 1_555 1_555
O16 C28 1_555 1_555
O17 C34 1_555 1_555
O18 C40 1_555 1_555
C43 C44 1_555 1_555
C44 H43 1_555 1_555
C45 C44 1_555 1_555
H44 C45 1_555 1_555
C46 C45 1_555 1_555
C47 C46 1_555 1_555
H45 C47 1_555 1_555
C48 C43 1_555 1_555
H46 C48 1_555 1_555
O19 Rb1 1_555 1_555
H47 O19 1_555 1_555
O20 C46 1_555 1_555
H48 O20 1_555 1_555
O2A Rb1A 1_555 1_555
O4A O4 1_555 1_555
Rb1A O4 1_555 1_555
Rb1F O15 1_555 1_555
Rb1C O5C 1_555 1_555
Rb1B O5C 1_555 1_555
C1C N1C 1_555 1_555
C2C H1C 1_555 1_555
C3C C2C 1_555 1_555
H2C C3C 1_555 1_555
C4C N3C 1_555 1_555
C5C H3C 1_555 1_555
H4C C5C 1_555 1_555
C6C H5C 1_555 1_555
H6C C6C 1_555 1_555
C7C N5C 1_555 1_555
C8C H7C 1_555 1_555
C9C C8C 1_555 1_555
H8C C9C 1_555 1_555
C10C N7C 1_555 1_555
C11C H9C 1_555 1_555
H10C C11C 1_555 1_555
C12C H11C 1_555 1_555
H12C C12C 1_555 1_555
C13C N9C 1_555 1_555
C14C H13C 1_555 1_555
C15C C14C 1_555 1_555
H14C C15C 1_555 1_555
C16C N11C 1_555 1_555
C17C H15C 1_555 1_555
H16C C17C 1_555 1_555
C18C H17C 1_555 1_555
H18C C18C 1_555 1_555
C19C N13C 1_555 1_555
C20C H19C 1_555 1_555
C21C C20C 1_555 1_555
H20C C21C 1_555 1_555
C22C N15C 1_555 1_555
C23C H21C 1_555 1_555
H22C C23C 1_555 1_555
C24C H23C 1_555 1_555
H24C C24C 1_555 1_555
C25C N17C 1_555 1_555
C26C H25C 1_555 1_555
C27C C26C 1_555 1_555
H26C C27C 1_555 1_555
C28C N19C 1_555 1_555
C29C H27C 1_555 1_555
H28C C29C 1_555 1_555
C30C H29C 1_555 1_555
H30C C30C 1_555 1_555
C31C N21C 1_555 1_555
C32C H31C 1_555 1_555
C33C C32C 1_555 1_555
H32C C33C 1_555 1_555
C34C N23C 1_555 1_555
C35C H33C 1_555 1_555
H34C C35C 1_555 1_555
C36C H35C 1_555 1_555
H36C C36C 1_555 1_555
C37C N25C 1_555 1_555
C38C H37C 1_555 1_555
C39C C38C 1_555 1_555
H38C C39C 1_555 1_555
C40C N27C 1_555 1_555
C41C H39C 1_555 1_555
H40C C41C 1_555 1_555
C42C H41C 1_555 1_555
H42C C42C 1_555 1_555
N1C C2C 1_555 1_555
N2C C1C 1_555 1_555
N3C C2C 1_555 1_555
N4C C3C 1_555 1_555
N5C C5C 1_555 1_555
N6C C7C 1_555 1_555
N7C C6C 1_555 1_555
N8C C9C 1_555 1_555
N9C C11C 1_555 1_555
N10C C13C 1_555 1_555
N11C C12C 1_555 1_555
N12C C15C 1_555 1_555
N13C C17C 1_555 1_555
N14C C19C 1_555 1_555
N15C C18C 1_555 1_555
N16C C21C 1_555 1_555
N17C C23C 1_555 1_555
N18C C25C 1_555 1_555
N19C C24C 1_555 1_555
N20C C27C 1_555 1_555
N21C C29C 1_555 1_555
N22C C31C 1_555 1_555
N23C C30C 1_555 1_555
N24C C33C 1_555 1_555
N25C C35C 1_555 1_555
N26C C37C 1_555 1_555
N27C C36C 1_555 1_555
N28C C39C 1_555 1_555
O5C C1C 1_555 1_555
O5A Rb1 1_555 1_555
O6C Rb1B 1_555 1_555
O6A Rb1 1_555 1_555
O7C C13C 1_555 1_555
O8C C19C 1_555 1_555
O9C C25C 1_555 1_555
O10C C31C 1_555 1_555
O11C C37C 1_555 1_555
O12C C4C 1_555 1_555
O13C C10C 1_555 1_555
O14C C16C 1_555 1_555
O15C Rb1 1_555 1_555
O15B Rb1A 1_555 1_555
O16C C28C 1_555 1_555
O17C C34C 1_555 1_555
O18C C40C 1_555 1_555
C43A C44A 1_555 1_555
C44A H43A 1_555 1_555
C45A C44A 1_555 1_555
H44A C45A 1_555 1_555
C46A C45A 1_555 1_555
C47A C46A 1_555 1_555
H45A C47A 1_555 1_555
C48A C43A 1_555 1_555
H46A C48A 1_555 1_555
O19A Rb1A 1_555 1_555
H47A O19A 1_555 1_555
O20A C46A 1_555 1_555
H48A O20A 1_555 1_555
Rb1 O4A 1_555 1_555
C3 N2 1_555 1_555
C4 N4 1_555 1_555
C5 N2 1_555 1_555
C6 N4 1_555 1_555
C8 N5 1_555 1_555
C8 N7 1_555 1_555
C9 N6 1_555 1_555
C10 N8 1_555 1_555
C11 N6 1_555 1_555
C12 N8 1_555 1_555
C14 N9 1_555 1_555
C14 N11 1_555 1_555
C15 N10 1_555 1_555
C16 N12 1_555 1_555
C17 N10 1_555 1_555
C18 N12 1_555 1_555
C20 N13 1_555 1_555
C20 N15 1_555 1_555
C21 N14 1_555 1_555
C22 N16 1_555 1_555
C23 N14 1_555 1_555
C24 N16 1_555 1_555
C26 N17 1_555 1_555
C26 N19 1_555 1_555
C27 N18 1_555 1_555
C28 N20 1_555 1_555
C29 N18 1_555 1_555
C30 N20 1_555 1_555
C32 N21 1_555 1_555
C32 N23 1_555 1_555
C33 N22 1_555 1_555
C34 N24 1_555 1_555
C35 N22 1_555 1_555
C36 N24 1_555 1_555
C38 N25 1_555 1_555
C38 N27 1_555 1_555
C39 N26 1_555 1_555
C40 N28 1_555 1_555
C41 N1 1_555 1_555
C41 N26 1_555 1_555
C42 N3 1_555 1_555
C42 N28 1_555 1_555
O5 Rb1A 1_555 1_555
O6 Rb1A 1_555 1_555
C43 O19 1_555 1_555
C47 C48 1_555 1_555
O4A Rb1A 1_555 1_555
Rb1A O5A 1_555 1_555
C3C N2C 1_555 1_555
C4C N4C 1_555 1_555
C5C N2C 1_555 1_555
C6C N4C 1_555 1_555
C7C O6C 1_555 1_555
C8C N5C 1_555 1_555
C8C N7C 1_555 1_555
C9C N6C 1_555 1_555
C10C N8C 1_555 1_555
C11C N6C 1_555 1_555
C12C N8C 1_555 1_555
C14C N9C 1_555 1_555
C14C N11C 1_555 1_555
C15C N10C 1_555 1_555
C16C N12C 1_555 1_555
C17C N10C 1_555 1_555
C18C N12C 1_555 1_555
C20C N13C 1_555 1_555
C20C N15C 1_555 1_555
C21C N14C 1_555 1_555
C22C N16C 1_555 1_555
C22C O15C 1_555 1_555
C23C N14C 1_555 1_555
C24C N16C 1_555 1_555
C26C N17C 1_555 1_555
C26C N19C 1_555 1_555
C27C N18C 1_555 1_555
C28C N20C 1_555 1_555
C29C N18C 1_555 1_555
C30C N20C 1_555 1_555
C32C N21C 1_555 1_555
C32C N23C 1_555 1_555
C33C N22C 1_555 1_555
C34C N24C 1_555 1_555
C35C N22C 1_555 1_555
C36C N24C 1_555 1_555
C38C N25C 1_555 1_555
C38C N27C 1_555 1_555
C39C N26C 1_555 1_555
C40C N28C 1_555 1_555
C41C N1C 1_555 1_555
C41C N26C 1_555 1_555
C42C N3C 1_555 1_555
C42C N28C 1_555 1_555
C43A O19A 1_555 1_555
C47A C48A 1_555 1_555

#END
