
#######################################################################
#
#                 Cambridge Crystallographic Data Centre
#                                CCDC 
#
#######################################################################
#
# If this CIF has been generated from an entry in the Cambridge 
# Structural Database, then it will include bibliographic, chemical, 
# crystal, experimental, refinement or atomic coordinate data resulting 
# from the CCDC's data processing and validation procedures.
#
#######################################################################

data_HAFQOW
_chemical_formula_moiety         '(C22 H14 Al2 N1 O10 S2)n'
_symmetry_cell_setting           monoclinic
_symmetry_space_group_name_H-M   'P 21/n'
_symmetry_Int_Tables_number      14
_space_group_name_Hall           '-P 2yn'
loop_
_symmetry_equiv_pos_site_id
_symmetry_equiv_pos_as_xyz
1 x,y,z
2 1/2-x,1/2+y,1/2-z
3 -x,-y,-z
4 1/2+x,1/2-y,1/2+z
_cell_length_a                   13.8911(7)
_cell_length_b                   15.954(1)
_cell_length_c                   6.6018(2)
_cell_angle_alpha                90
_cell_angle_beta                 91.699(4)
_cell_angle_gamma                90
_cell_volume                     1462.44
loop_
_atom_site_label
_atom_site_type_symbol
_atom_site_fract_x
_atom_site_fract_y
_atom_site_fract_z
Al1 Al 0.00000 0.00000 0.00000
Al2 Al 0.00000 0.00000 -0.5
O1 O 0.058113 0.006887 -0.243577
H1 H 0.114831 0.019597 -0.23813
O2 O -0.096013 0.077386 -0.085630
O3 O -0.401749 0.418172 -0.101213
C1 C -0.376235 0.389998 -0.269296
C2 C -0.30695 0.318434 -0.265817
C3 C -0.275118 0.285627 -0.444944
H2 H -0.295232 0.309231 -0.567791
C4 C -0.119689 0.107126 -0.256134
C5 C -0.182061 0.183322 -0.259311
C6 C -0.21318 0.217632 -0.441918
H3 H -0.192529 0.194968 -0.562648
O4 O -0.093960 0.079264 -0.424217
O5 O -0.403805 0.417296 -0.440254
C7 C -0.275111 0.284938 -0.083210
H4 H -0.295187 0.308104 0.037520
C8 C -0.213169 0.216944 -0.079881
H5 H -0.192479 0.193841 0.042966
Al1A Al -0.50000 0.50000 -0.50000
Al1A_2 Al 0.50000 -0.50000 0.50000
Al2A Al -0.50000 0.50000 0.0
Al2_2 Al 0.00000 -0.00000 0.5
Al2A_2 Al 0.50000 -0.50000 0.0
O1B O -0.058113 -0.006887 0.243577
O1B_2 O -0.058113 -0.006887 -0.756423
H1B H -0.114831 -0.019597 0.23813
H1B_2 H -0.114831 -0.019597 -0.76187
O2B O 0.096013 -0.077386 0.085630
O3B O 0.401749 -0.418172 0.101213
O3A O -0.098251 -0.081828 -0.398787
O3C O 0.098251 0.081828 -0.601213
C1B C 0.376235 -0.389998 0.269296
C2B C 0.30695 -0.318434 0.265817
C3B C 0.275118 -0.285627 0.444944
H2B H 0.295232 -0.309231 0.567791
C4B C 0.119689 -0.107126 0.256134
C5B C 0.182061 -0.183322 0.259311
C6B C 0.21318 -0.217632 0.441918
H3B H 0.192529 -0.194968 0.562648
O4B O 0.093960 -0.079264 0.424217
O4B_2 O 0.093960 -0.079264 -0.575783
O5B O 0.403805 -0.417296 0.440254
O5A O -0.096195 -0.082704 -0.059746
O5C O 0.096195 0.082704 0.059746
C7B C 0.275111 -0.284938 0.083210
H4B H 0.295187 -0.308104 -0.037520
C8B C 0.213169 -0.216944 0.079881
H5B H 0.192479 -0.193841 -0.042966
S1 S 0.152819 0.550592 0.804712
S2 S 0.17044 0.474897 0.432538
N1 N 0.192248 0.46945 0.678536
C9 C 0.080233 0.59636 0.616204
C10 C 0.091192 0.559733 0.42694
C11 C 0.043059 0.592854 0.257344
C12 C -0.017561 0.660222 0.280946
C13 C -0.029808 0.695409 0.470814
C14 C 0.019231 0.664605 0.638293
H6 H 0.051659 0.568436 0.12436
H7 H -0.055354 0.678066 0.154921
H8 H -0.075990 0.739612 0.487456
H9 H 0.014348 0.690463 0.764468
loop_
_geom_bond_atom_site_label_1
_geom_bond_atom_site_label_2
_geom_bond_site_symmetry_1
_geom_bond_site_symmetry_2
Al1 O1 1_555 1_555
Al2 O1 1_555 1_555
O1 H1 1_555 1_555
O2 Al1 1_555 1_555
O3 C1 1_555 1_555
C1 C2 1_555 1_555
C2 C3 1_555 1_555
C3 H2 1_555 1_555
C4 O2 1_555 1_555
C5 C4 1_555 1_555
C6 C3 1_555 1_555
H3 C6 1_555 1_555
O4 Al2 1_555 1_555
O5 C1 1_555 1_555
C7 C2 1_555 1_555
H4 C7 1_555 1_555
C8 C5 1_555 1_555
H5 C8 1_555 1_555
S1 N1 1_555 1_555
S2 N1 1_555 1_555
C9 S1 1_555 1_555
C10 S2 1_555 1_555
C11 C10 1_555 1_555
C12 C11 1_555 1_555
C13 C12 1_555 1_555
C14 C9 1_555 1_555
H6 C11 1_555 1_555
H7 C12 1_555 1_555
H8 C13 1_555 1_555
H9 C14 1_555 1_555
Al1A O5 1_555 1_555
Al1A_2 O5B 1_555 1_555
Al2A O3 1_555 1_555
Al2_2 O1B 1_555 1_555
Al2A_2 O3B 1_555 1_555
O1B Al1 1_555 1_555
O1B_2 Al2 1_555 1_555
H1B O1B 1_555 1_555
H1B_2 O1B_2 1_555 1_555
O2B Al1 1_555 1_555
O3B C1B 1_555 1_555
O3A Al2 1_555 1_555
O3C Al2 1_555 1_555
C1B C2B 1_555 1_555
C2B C3B 1_555 1_555
C3B H2B 1_555 1_555
C4B O2B 1_555 1_555
C5B C4B 1_555 1_555
C6B C3B 1_555 1_555
H3B C6B 1_555 1_555
O4B Al2_2 1_555 1_555
O4B_2 Al2 1_555 1_555
O5B C1B 1_555 1_555
O5A Al1 1_555 1_555
O5C Al1 1_555 1_555
C7B C2B 1_555 1_555
H4B C7B 1_555 1_555
C8B C5B 1_555 1_555
H5B C8B 1_555 1_555
C4 O4 1_555 1_555
C5 C6 1_555 1_555
C7 C8 1_555 1_555
C9 C10 1_555 1_555
C13 C14 1_555 1_555
C4B O4B 1_555 1_555
C5B C6B 1_555 1_555
C7B C8B 1_555 1_555

#END
