
#######################################################################
#
#                 Cambridge Crystallographic Data Centre
#                                CCDC 
#
#######################################################################
#
# If this CIF has been generated from an entry in the Cambridge 
# Structural Database, then it will include bibliographic, chemical, 
# crystal, experimental, refinement or atomic coordinate data resulting 
# from the CCDC's data processing and validation procedures.
#
#######################################################################

data_CEKRUH
_chemical_formula_moiety         '(C168 H216 Br12 Fe3 Mn6 N33 O24)n'
_symmetry_cell_setting           trigonal
_symmetry_space_group_name_H-M   'P 32'
_symmetry_Int_Tables_number      145
_space_group_name_Hall           'P 32'
loop_
_symmetry_equiv_pos_site_id
_symmetry_equiv_pos_as_xyz
1 x,y,z
2 -y,x-y,2/3+z
3 -x+y,-x,1/3+z
_cell_length_a                   28.5554(2)
_cell_length_b                   28.5554(2)
_cell_length_c                   19.2155(2)
_cell_angle_alpha                90
_cell_angle_beta                 90
_cell_angle_gamma                120
_cell_volume                     13569.3
loop_
_atom_site_label
_atom_site_type_symbol
_atom_site_fract_x
_atom_site_fract_y
_atom_site_fract_z
Mn1 Mn 1.02029(2) 0.76417(2) 1.08077(3)
Mn2 Mn 0.73421(2) 0.75516(2) 0.85156(3)
Mn3 Mn 0.68669(2) 0.59049(2) 1.18345(3)
Mn4 Mn 1.35425(2) 0.92626(2) 1.18016(3)
Mn5 Mn 0.91019(2) 0.59804(2) 0.74600(3)
Mn6 Mn 1.07104(2) 0.64635(2) 1.40932(3)
Fe1 Fe 0.82273(2) 0.64379(2) 0.96550(3)
Fe2 Fe 0.48742(2) 0.51027(2) 1.29513(2)
Fe3 Fe 1.15719(2) 0.84669(2) 1.29836(3)
Br1 Br 1.099854(17) 1.026792(15) 1.238704(18)
Br2 Br 1.214662(16) 0.672391(18) 1.030752(19)
Br3 Br 0.923071(16) 1.023201(15) 0.710301(18)
Br4 Br 0.447756(16) 0.661951(18) 0.891176(19)
Br5 Br 0.767437(17) 0.407662(17) 1.02765(2)
Br6 Br 0.883076(16) 0.875473(16) 1.23211(2)
Br7 Br 1.432590(16) 0.740260(17) 1.02755(2)
Br8 Br 1.54574(2) 1.214140(16) 1.22649(2)
Br9 Br 0.643100(17) 0.409160(17) 0.88945(2)
Br10 Br 1.006300(15) 0.885530(16) 0.704990(19)
Br11 Br 1.256860(16) 0.565790(17) 1.55617(2)
Br12 Br 0.78634(2) 0.45012(2) 1.36597(2)
N1 N 0.97852(12) 0.77141(12) 1.16167(15)
N2 N 1.00295(12) 0.68976(12) 1.11185(14)
N3 N 0.78410(11) 0.76467(12) 0.77133(14)
N4 N 0.67853(12) 0.67983(12) 0.82094(14)
N5 N 0.64530(12) 0.54149(12) 1.10259(15)
N6 N 0.66928(12) 0.64747(12) 1.15276(15)
N7 N 1.31235(12) 0.87658(12) 1.09953(14)
N8 N 1.33619(12) 0.98273(12) 1.14889(14)
N9 N 0.90096(12) 0.54791(12) 0.82607(15)
N10 N 0.98507(13) 0.65369(12) 0.77723(15)
N11 N 1.12034(13) 0.68679(12) 1.48986(14)
N12 N 1.01479(12) 0.66500(13) 1.43975(14)
N13 N 0.93949(12) 0.72441(12) 1.01933(15)
N14 N 0.77838(12) 0.71787(12) 0.91296(15)
N15 N 0.70927(14) 0.55477(13) 0.91854(17)
N16 N 0.85193(13) 0.55808(13) 1.01185(16)
N17 N 0.76350(12) 0.63219(13) 1.10635(15)
N18 N 0.87419(12) 0.63874(12) 0.82450(15)
N19 N 0.60545(12) 0.54874(12) 1.24450(15)
N20 N 1.43078(12) 0.96725(12) 1.10238(14)
N21 N 0.37286(14) 0.48461(13) 1.33982(16)
N22 N 1.02952(13) 0.56925(13) 1.48689(15)
N23 N 0.94766(12) 0.55478(13) 0.68399(15)
N24 N 0.51546(13) 0.62426(13) 1.24669(15)
N25 N 1.04375(13) 0.82121(14) 1.34708(17)
N26 N 1.11479(12) 0.72792(12) 1.34850(15)
N27 N 1.27372(12) 0.88495(13) 1.24217(14)
N28 N 1.18497(13) 0.96172(13) 1.25444(16)
N29 N 1.20886(12) 0.90228(12) 1.43995(15)
N30 N 1.09712(12) 0.79901(12) 1.15794(15)
O1 O 1.04408(10) 0.83616(9) 1.05466(12)
O2 O 1.06243(10) 0.76014(9) 1.00698(12)
O3 O 0.78100(9) 0.82583(10) 0.88133(12)
O4 O 0.68699(10) 0.74974(10) 0.92437(12)
O5 O 0.71081(10) 0.54286(10) 1.21032(12)
O6 O 0.72791(10) 0.63627(10) 1.25780(12)
O7 O 1.37761(10) 0.87814(10) 1.20723(12)
O8 O 1.39718(10) 0.97335(10) 1.25273(11)
O9 O 0.83924(10) 0.55074(10) 0.71709(12)
O10 O 0.91489(10) 0.64564(10) 0.67413(12)
O11 O 1.11796(10) 0.62181(11) 1.38085(12)
O12 O 1.02478(10) 0.60534(11) 1.33521(11)
C1 C 0.89613(15) 0.69719(15) 0.99843(17)
C2 C 0.79775(14) 0.69350(14) 0.93306(17)
C3 C 0.75201(15) 0.58743(15) 0.93527(18)
C4 C 0.84067(14) 0.58978(15) 0.99578(18)
C5 C 0.78840(15) 0.63885(15) 1.05628(18)
C6 C 0.85461(15) 0.64274(14) 0.87477(18)
C7 C 0.56161(15) 0.53199(14) 1.26396(17)
C8 C 1.45554(14) 0.97316(14) 1.05243(17)
C9 C 0.41579(15) 0.49490(15) 1.32449(17)
C10 C 1.02485(14) 0.54551(15) 1.53779(17)
C11 C 0.97277(14) 0.53627(15) 0.66234(17)
C12 C 0.50417(14) 0.58191(15) 1.26382(18)
C13 C 1.08694(15) 0.83187(15) 1.33026(18)
C14 C 1.13313(14) 0.77171(14) 1.32918(17)
C15 C 1.23013(14) 0.86786(15) 1.26367(17)
C16 C 1.17424(15) 0.91860(14) 1.26958(18)
C17 C 1.18917(14) 0.87903(14) 1.38965(18)
C18 C 1.12181(14) 0.81740(15) 1.20776(17)
C19 C 1.05920(14) 0.87654(14) 1.09941(18)
C20 C 1.09973(14) 0.92853(14) 1.07951(18)
H1 H 1.1184 0.9333 1.0368
C21 C 1.11280(14) 0.97271(15) 1.12103(18)
H2 H 1.1404 1.0077 1.1073
C22 C 1.08494(15) 0.96546(14) 1.18379(18)
C23 C 1.04699(15) 0.91554(14) 1.20612(18)
H3 H 1.0292 0.9114 1.2494
C24 C 1.03408(15) 0.86973(14) 1.16478(18)
C25 C 0.99211(15) 0.81784(15) 1.18885(18)
H4 H 0.9724 0.8177 1.2288
C26 C 0.93051(15) 0.72381(14) 1.19109(19)
H5 H 0.9008 0.7103 1.1566
H6 H 0.9186 0.7352 1.2329
C27 C 0.94019(15) 0.67723(14) 1.21121(18)
C28 C 0.95120(14) 0.65282(15) 1.14614(18)
H7 H 0.9512 0.6194 1.1596
H8 H 0.9214 0.6427 1.1124
C29 C 1.03770(14) 0.67388(15) 1.10465(18)
H9 H 1.0309 0.6422 1.1293
C30 C 1.08607(14) 0.69974(14) 1.06262(18)
C31 C 1.12145(15) 0.67893(14) 1.06630(18)
H10 H 1.1148 0.6509 1.0984
C32 C 1.16571(15) 0.69940(15) 1.02320(19)
C33 C 1.17524(15) 0.73863(15) 0.97418(18)
H11 H 1.2056 0.7516 0.9440
C34 C 1.14037(15) 0.75874(15) 0.96948(18)
H12 H 1.1468 0.7855 0.9355
C35 C 1.09536(15) 0.74041(14) 1.01401(17)
C36 C 0.88699(15) 0.63318(15) 1.2428(2)
H13 H 0.8895 0.6007 1.2515
H14 H 0.8573 0.6245 1.2103
H15 H 0.8802 0.6462 1.2867
C37 C 0.98676(15) 0.69625(15) 1.26296(18)
H16 H 1.0191 0.7273 1.2436
H17 H 0.9942 0.6668 1.2719
H18 H 0.9769 0.7068 1.3066
C38 C 0.80839(14) 0.86773(14) 0.83869(18)
C39 C 0.82247(14) 0.91985(15) 0.86422(18)
H19 H 0.8091 0.9233 0.9080
C40 C 0.85554(14) 0.96543(15) 0.82570(18)
H20 H 0.8646 1.0002 0.8426
C41 C 0.87552(15) 0.96014(15) 0.76203(18)
C42 C 0.86178(14) 0.91042(15) 0.73632(19)
H21 H 0.8755 0.9076 0.6925
C43 C 0.82748(14) 0.86321(14) 0.77390(18)
C44 C 0.81726(14) 0.81161(15) 0.74601(18)
H22 H 0.8368 0.8126 0.7055
C45 C 0.78581(15) 0.71819(15) 0.74100(18)
H23 H 0.8031 0.7054 0.7748
H24 H 0.8088 0.7304 0.6988
C46 C 0.73035(15) 0.67074(14) 0.72135(18)
C47 C 0.69534(15) 0.64487(14) 0.78560(18)
H25 H 0.6626 0.6109 0.7716
H26 H 0.7158 0.6354 0.8189
C48 C 0.62773(15) 0.66128(14) 0.82956(17)
H27 H 0.6037 0.6274 0.8087
C49 C 0.60395(14) 0.68745(14) 0.86833(17)
C50 C 0.54756(14) 0.66668(15) 0.86296(18)
H28 H 0.5266 0.6376 0.8321
C51 C 0.52321(15) 0.68851(15) 0.90242(18)
C52 C 0.55253(15) 0.73018(16) 0.94864(18)
H29 H 0.5349 0.7448 0.9755
C53 C 0.60748(15) 0.75056(15) 0.95563(18)
H30 H 0.6274 0.7788 0.9880
C54 C 0.63407(15) 0.73008(15) 0.91545(18)
C55 C 0.74055(16) 0.62764(15) 0.6877(2)
H31 H 0.7623 0.6425 0.6455
H32 H 0.7059 0.5958 0.6756
H33 H 0.7599 0.6172 0.7206
C56 C 0.70103(15) 0.68903(15) 0.67047(19)
H34 H 0.6952 0.7166 0.6928
H35 H 0.6661 0.6579 0.6576
H36 H 0.7231 0.7043 0.6286
C57 C 0.72610(14) 0.51733(14) 1.16610(18)
C58 C 0.76685(15) 0.50551(15) 1.1861(2)
H37 H 0.7854 0.5191 1.2289
C59 C 0.77987(15) 0.47485(15) 1.1445(2)
H38 H 0.8077 0.4677 1.1580
C60 C 0.75221(16) 0.45420(15) 1.0825(2)
C61 C 0.71392(16) 0.46581(15) 1.05934(19)
H39 H 0.6962 0.4518 1.0162
C62 C 0.70108(15) 0.49881(15) 1.10028(18)
C63 C 0.65889(15) 0.50843(15) 1.07531(19)
H40 H 0.6394 0.4888 1.0353
C64 C 0.59734(14) 0.54116(15) 1.07298(18)
H41 H 0.5675 0.5248 1.1073
H42 H 0.5856 0.5180 1.0309
C65 C 0.60723(15) 0.59713(15) 1.05349(19)
C66 C 0.61730(15) 0.63265(15) 1.11785(19)
H43 H 0.6174 0.6661 1.1038
H44 H 0.5873 0.6131 1.1513
C67 C 0.70328(15) 0.69799(15) 1.16157(19)
H45 H 0.6955 0.7229 1.1390
C68 C 0.75220(15) 0.72050(15) 1.20257(19)
C69 C 0.78826(15) 0.77649(15) 1.19778(18)
H46 H 0.7819 0.7978 1.1653
C70 C 0.83275(15) 0.80006(15) 1.24036(19)
C71 C 0.84262(15) 0.76978(15) 1.28911(19)
H47 H 0.8736 0.7867 1.3182
C72 C 0.80707(15) 0.71524(15) 1.29466(18)
H48 H 0.8134 0.6948 1.3285
C73 C 0.76157(15) 0.68921(14) 1.25117(18)
C74 C 0.55335(15) 0.58785(16) 1.0216(2)
H49 H 0.5456 0.5666 0.9788
H50 H 0.5564 0.6228 1.0108
H51 H 0.5239 0.5683 1.0550
C75 C 0.65364(15) 0.62550(16) 1.00130(19)
H52 H 0.6865 0.6279 1.0207
H53 H 0.6600 0.6620 0.9919
H54 H 0.6441 0.6048 0.9579
C76 C 1.39275(15) 0.85241(14) 1.16396(17)
C77 C 1.43207(15) 0.83910(15) 1.18509(19)
H55 H 1.4500 0.8521 1.2284
C78 C 1.44464(16) 0.80779(16) 1.1442(2)
H56 H 1.4718 0.7999 1.1587
C79 C 1.41796(16) 0.78747(16) 1.08135(19)
C80 C 1.38082(15) 0.80016(15) 1.05798(19)
H57 H 1.3633 0.7866 1.0146
C81 C 1.36843(15) 0.83364(15) 1.09849(18)
C82 C 1.32622(15) 0.84382(14) 1.07290(17)
H58 H 1.3070 0.8243 1.0327
C83 C 1.26406(15) 0.87575(15) 1.07025(18)
H59 H 1.2345 0.8597 1.1050
H60 H 1.2520 0.8522 1.0286
C84 C 1.27380(15) 0.93168(14) 1.05000(18)
C85 C 1.28435(15) 0.96712(14) 1.11396(18)
H61 H 1.2840 1.0003 1.0999
H62 H 1.2545 0.9475 1.1477
C86 C 1.37015(16) 1.03342(15) 1.15557(17)
H63 H 1.3625 1.0577 1.1310
C87 C 1.41902(16) 1.05700(15) 1.19705(18)
C88 C 1.45338(17) 1.11321(16) 1.19263(19)
H64 H 1.4459 1.1340 1.1606
C89 C 1.49815(17) 1.13793(15) 1.23531(18)
C90 C 1.50898(16) 1.10844(16) 1.28296(19)
H65 H 1.5398 1.1261 1.3123
C91 C 1.47519(16) 1.05350(15) 1.28814(19)
H66 H 1.4828 1.0336 1.3215
C92 C 1.42958(16) 1.02604(15) 1.24510(17)
C93 C 1.22025(16) 0.92216(15) 1.0177(2)
H67 H 1.2124 0.9001 0.9756
H68 H 1.2235 0.9570 1.0057
H69 H 1.1908 0.9033 1.0513
C94 C 1.32027(16) 0.95965(15) 0.99800(18)
H70 H 1.3533 0.9629 1.0182
H71 H 1.3261 0.9957 0.9873
H72 H 1.3112 0.9382 0.9552
C95 C 0.79755(15) 0.52342(15) 0.75897(18)
C96 C 0.74541(15) 0.50957(15) 0.7350(2)
H73 H 0.7415 0.5234 0.6918
C97 C 0.70027(15) 0.47623(15) 0.7736(2)
H74 H 0.6653 0.4665 0.7566
C98 C 0.70597(15) 0.45685(16) 0.83767(19)
C99 C 0.75584(15) 0.47061(16) 0.8632(2)
H75 H 0.7590 0.4571 0.9071
C100 C 0.80260(15) 0.50482(15) 0.82468(19)
C101 C 0.85408(15) 0.51511(15) 0.85207(18)
H76 H 0.8533 0.4960 0.8929
C102 C 0.94743(15) 0.54603(15) 0.85641(19)
H77 H 0.9605 0.5291 0.8224
H78 H 0.9351 0.5228 0.8983
C103 C 0.99467(15) 0.60164(15) 0.87656(18)
C104 C 1.02067(15) 0.63732(15) 0.81218(19)
H79 H 1.0545 0.6702 0.8264
H80 H 1.0304 0.6173 0.7786
C105 C 1.00326(16) 0.70473(15) 0.76957(19)
H81 H 1.0364 0.7287 0.7920
C106 C 0.97790(15) 0.72875(15) 0.73002(18)
C107 C 1.00005(15) 0.78497(15) 0.73528(18)
H82 H 1.0293 0.8056 0.7660
C108 C 0.97875(14) 0.80973(15) 0.69520(18)
C109 C 0.93717(15) 0.78068(15) 0.64769(18)
H83 H 0.9236 0.7987 0.6197
C110 C 0.91616(15) 0.72596(15) 0.64173(18)
H84 H 0.8879 0.7062 0.6092
C111 C 0.93553(15) 0.69837(15) 0.68269(18)
C112 C 1.03798(16) 0.59165(15) 0.9095(2)
H85 H 1.0699 0.6264 0.9212
H86 H 1.0482 0.5722 0.8764
H87 H 1.0235 0.5700 0.9519
C113 C 0.97654(17) 0.63059(16) 0.9274(2)
H88 H 0.9484 0.6358 0.9055
H89 H 1.0075 0.6658 0.9396
H90 H 0.9620 0.6087 0.9695
C114 C 1.14475(15) 0.60757(15) 1.42361(17)
C115 C 1.15739(16) 0.56789(15) 1.40130(19)
H91 H 1.1432 0.5497 1.3584
C116 C 1.18954(16) 0.55523(15) 1.4402(2)
H92 H 1.1978 0.5287 1.4242
C117 C 1.21023(16) 0.58156(15) 1.50350(19)
C118 C 1.19738(15) 0.61870(15) 1.52850(18)
H93 H 1.2113 0.6358 1.5721
C119 C 1.16343(15) 0.63155(15) 1.48934(18)
C120 C 1.15367(15) 0.67311(15) 1.51611(17)
H94 H 1.1733 0.6921 1.5564
C121 C 1.12160(15) 0.73482(15) 1.52041(18)
H95 H 1.1390 0.7651 1.4869
H96 H 1.1443 0.7455 1.5629
C122 C 1.06564(15) 0.72635(16) 1.53956(18)
C123 C 1.03075(15) 0.71680(16) 1.47488(18)
H97 H 0.9977 0.7176 1.4886
H98 H 1.0510 0.7467 1.4416
C124 C 0.96387(16) 0.63198(16) 1.43075(17)
H99 H 0.9393 0.6409 1.4521
C125 C 0.94100(15) 0.58235(16) 1.39083(17)
C126 C 0.88491(17) 0.54649(16) 1.39627(19)
H100 H 0.8636 0.5540 1.4274
C127 C 0.86140(17) 0.50039(17) 1.35586(19)
C128 C 0.89128(17) 0.48963(17) 1.30843(19)
H101 H 0.8741 0.4578 1.2807
C129 C 0.94567(16) 0.52490(17) 1.30154(19)
H102 H 0.9658 0.5178 1.2681
C130 C 0.97217(16) 0.57160(16) 1.34351(18)
C131 C 1.07555(16) 0.77934(17) 1.57256(19)
H103 H 1.0409 0.7757 1.5869
H104 H 1.0931 0.8087 1.5387
H105 H 1.0989 0.7874 1.6134
C132 C 1.03673(16) 0.67912(17) 1.59065(18)
H106 H 1.0015 0.6748 1.6032
H107 H 1.0588 0.6865 1.6327
H108 H 1.0314 0.6458 1.5688
Mn2A Mn 1.24484(2) 0.97905(3) 1.51823(3)
Fe2A Fe 1.48973(2) 0.97715(3) 0.96180(2)
Fe2B Fe 1.02285(3) 0.51258(2) 1.62846(2)
Fe2B_2 Fe 1.02285(3) 0.51258(2) 0.62846(2)
N29B N 0.69342(17) 0.79114(12) 0.77328(15)
C8B C 0.51762(20) 0.54446(14) 1.38576(17)
C10A C 0.45449(15) 0.47934(21) 1.20446(17)
C11A C 0.46373(15) 0.43650(21) 1.32901(17)
N31 N 0.12784(12) 0.06207(12) 0.62581(14)
C133 C 0.16574(16) 0.11578(15) 0.59154(18)
H109 H 0.1445 0.1329 0.5771
H110 H 0.1924 0.1397 0.6266
C134 C 0.19605(16) 0.11273(18) 0.5290(2)
H111 H 0.2150 0.0933 0.5415
H112 H 0.2224 0.1494 0.5137
H113 H 0.1705 0.0936 0.4912
C135 C 0.08779(15) 0.02158(15) 0.57475(18)
H114 H 0.0663 -0.0134 0.5991
H115 H 0.1082 0.0160 0.5372
C136 C 0.04864(16) 0.03709(16) 0.5413(2)
H116 H 0.0238 0.0366 0.5768
H117 H 0.0280 0.0111 0.5046
H118 H 0.0692 0.0734 0.5213
C137 C 0.09986(16) 0.07550(15) 0.68266(19)
H119 H 0.0815 0.0935 0.6612
H120 H 0.1277 0.1017 0.7148
C138 C 0.05863(16) 0.02762(16) 0.7249(2)
H121 H 0.0297 0.0021 0.6941
H122 H 0.0433 0.0403 0.7609
H123 H 0.0763 0.0095 0.7468
C139 C 0.15916(15) 0.03630(15) 0.65659(18)
H124 H 0.1327 -0.0003 0.6735
H125 H 0.1802 0.0320 0.6188
C140 C 0.19750(16) 0.06697(16) 0.71568(19)
H126 H 0.2202 0.1050 0.7025
H127 H 0.2205 0.0513 0.7253
H128 H 0.1766 0.0644 0.7574
N32 N 0.26965(13) 0.53903(12) 0.96713(17)
C141 C 0.29432(18) 0.50671(17) 0.9369(2)
H129 H 0.3313 0.5325 0.9203
H130 H 0.2978 0.4852 0.9749
C142 C 0.2635(2) 0.46911(18) 0.8781(2)
H131 H 0.2261 0.4448 0.8926
H132 H 0.2805 0.4478 0.8656
H133 H 0.2638 0.4902 0.8377
C143 C 0.21566(17) 0.50212(17) 1.0021(2)
H134 H 0.1996 0.5243 1.0166
H135 H 0.1911 0.4758 0.9671
C144 C 0.2176(2) 0.47103(19) 1.0648(2)
H136 H 0.2353 0.4504 1.0520
H137 H 0.1807 0.4461 1.0807
H138 H 0.2380 0.4964 1.1022
C145 C 0.31077(15) 0.57710(15) 1.01934(19)
H139 H 0.3460 0.5982 0.9955
H140 H 0.3152 0.5553 1.0561
C146 C 0.29670(17) 0.61627(16) 1.0537(2)
H141 H 0.2977 0.6418 1.0189
H142 H 0.3230 0.6361 1.0905
H143 H 0.2604 0.5962 1.0738
C147 C 0.25907(16) 0.56909(17) 0.9115(2)
H144 H 0.2423 0.5886 0.9332
H145 H 0.2324 0.5424 0.8785
C148 C 0.30819(17) 0.60946(17) 0.8704(2)
H146 H 0.3334 0.6384 0.9014
H147 H 0.2968 0.6250 0.8331
H148 H 0.3262 0.5911 0.8501
N33 N 0.79437(12) 0.39916(13) 0.63344(17)
C149 C 0.83111(17) 0.38128(19) 0.6676(2)
H149 H 0.8085 0.3433 0.6829
H150 H 0.8565 0.3820 0.6319
C150 C 0.86379(18) 0.4143(2) 0.7292(2)
H151 H 0.8827 0.4528 0.7168
H152 H 0.8902 0.4035 0.7420
H153 H 0.8396 0.4081 0.7686
C151 C 0.82696(17) 0.45535(16) 0.6022(2)
H154 H 0.8014 0.4670 0.5863
H155 H 0.8494 0.4805 0.6395
C152 C 0.86317(18) 0.4612(2) 0.5427(2)
H156 H 0.8897 0.4512 0.5579
H157 H 0.8820 0.4989 0.5267
H158 H 0.8415 0.4375 0.5045
C153 C 0.76275(18) 0.35766(16) 0.5787(2)
H159 H 0.7433 0.3217 0.6012
H160 H 0.7886 0.3568 0.5450
C154 C 0.72210(19) 0.36666(17) 0.5388(2)
H161 H 0.6939 0.3635 0.5706
H162 H 0.7057 0.3394 0.5020
H163 H 0.7405 0.4028 0.5180
C155 C 0.75782(17) 0.40286(17) 0.6867(2)
H164 H 0.7367 0.4174 0.6637
H165 H 0.7806 0.4292 0.7227
C156 C 0.71843(18) 0.35005(18) 0.7227(2)
H166 H 0.6920 0.3253 0.6888
H167 H 0.6996 0.3574 0.7601
H168 H 0.7384 0.3335 0.7424
O13 O 0.39637(14) 0.26493(15) 0.20949(14)
H169 H 0.3858 0.2711 0.2474
C157 C 0.4176(2) 0.2312(2) 0.2210(2)
H170 H 0.4529 0.2463 0.1982
H171 H 0.3930 0.1953 0.2018
H172 H 0.4218 0.2282 0.2711
O14 O 0.06908(15) 0.47235(13) 0.04961(14)
H173 H 0.0593 0.4560 0.0114
C158 C 0.0955(2) 0.52763(19) 0.0379(2)
H174 H 0.0698 0.5407 0.0433
H175 H 0.1103 0.5353 -0.0093
H176 H 0.1249 0.5459 0.0717
O15 O 0.06857(14) 0.60305(12) 0.20738(13)
H177 H 0.0584 0.6094 0.2455
C159 C 0.0813(2) 0.56177(19) 0.2166(2)
H178 H 0.1178 0.5740 0.1989
H179 H 0.0553 0.5294 0.1911
H180 H 0.0798 0.5532 0.2662
O16 O 0.93312(12) 0.75213(14) 0.37350(16)
H181 H 0.9650 0.7763 0.3650
C160 C 0.9221(2) 0.7539(2) 0.4419(2)
H182 H 0.9555 0.7678 0.4691
H183 H 0.8959 0.7175 0.4580
H184 H 0.9071 0.7779 0.4481
O17 O 0.83329(14) 0.75953(15) 0.56136(18)
H185 H 0.8226 0.7821 0.5636
C161 C 0.8031(2) 0.7212(2) 0.5172(3)
H186 H 0.8121 0.6923 0.5195
H187 H 0.8098 0.7362 0.4699
H188 H 0.7649 0.7066 0.5290
O18 O 0.59917(13) 0.51428(16) 0.89226(17)
H189 H 0.6315 0.5234 0.9005
C162 C 0.5879(2) 0.5003(2) 0.8235(3)
H190 H 0.5631 0.5119 0.8061
H191 H 0.5711 0.4610 0.8188
H192 H 0.6216 0.5179 0.7966
O19 O 0.74067(13) 0.93222(14) 0.21183(14)
H193 H 0.7321 0.9400 0.2501
C163 C 0.76555(19) 0.90165(18) 0.2234(2)
H194 H 0.7954 0.9125 0.1903
H195 H 0.7391 0.8632 0.2170
H196 H 0.7797 0.9077 0.2710
O20 O 0.72994(13) 0.79546(11) 0.05454(14)
H197 H 0.7170 0.7781 0.0175
C164 C 0.74508(19) 0.85016(16) 0.0442(2)
H198 H 0.7170 0.8568 0.0631
H199 H 0.7493 0.8583 -0.0058
H200 H 0.7794 0.8734 0.0680
O21 O 0.40780(13) 0.13947(12) 0.05186(14)
H201 H 0.3943 0.1227 0.0146
C165 C 0.4261(2) 0.1942(2) 0.0420(2)
H202 H 0.3971 0.2018 0.0532
H203 H 0.4371 0.2038 -0.0066
H204 H 0.4572 0.2156 0.0725
O22 O 0.90713(14) 0.50068(14) 0.03837(17)
H205 H 0.8863 0.5133 0.0351
C166 C 0.9475(2) 0.5311(2) 0.0821(3)
H206 H 0.9641 0.5692 0.0683
H207 H 0.9747 0.5198 0.0804
H208 H 0.9333 0.5267 0.1295
O23 O 0.57700(19) 0.84014(18) 0.03192(17)
H209 H 0.5569 0.8534 0.0254
C167 C 0.5795(4) 0.8315(3) 0.1024(4)
H210 H 0.6157 0.8380 0.1140
H211 H 0.5525 0.7940 0.1139
H212 H 0.5720 0.8562 0.1290
O24 O 0.57694(15) 0.73526(13) 0.22038(16)
H213 H 0.5596 0.7013 0.2221
C168 C 0.6178(4) 0.7509(4) 0.1790(4)
H214 H 0.6403 0.7904 0.1808
H215 H 0.6049 0.7396 0.1313
H216 H 0.6393 0.7345 0.1935
loop_
_geom_bond_atom_site_label_1
_geom_bond_atom_site_label_2
_geom_bond_site_symmetry_1
_geom_bond_site_symmetry_2
Mn1 N1 1_555 1_555
Mn2 N3 1_555 1_555
Mn3 N5 1_555 1_555
Mn4 N7 1_555 1_555
Mn5 N9 1_555 1_555
Mn6 N11 1_555 1_555
Fe1 C1 1_555 1_555
Fe2 C7 1_555 1_555
Fe3 C13 1_555 1_555
Br1 C22 1_555 1_555
Br2 C32 1_555 1_555
Br3 C41 1_555 1_555
Br4 C51 1_555 1_555
Br5 C60 1_555 1_555
Br6 C70 1_555 1_555
Br7 C79 1_555 1_555
Br8 C89 1_555 1_555
Br9 C98 1_555 1_555
Br10 C108 1_555 1_555
Br11 C117 1_555 1_555
Br12 C127 1_555 1_555
N1 C25 1_555 1_555
N2 Mn1 1_555 1_555
N3 C44 1_555 1_555
N4 Mn2 1_555 1_555
N5 C63 1_555 1_555
N6 Mn3 1_555 1_555
N7 C82 1_555 1_555
N8 Mn4 1_555 1_555
N9 C101 1_555 1_555
N10 Mn5 1_555 1_555
N11 C120 1_555 1_555
N12 Mn6 1_555 1_555
N13 Mn1 1_555 1_555
N14 Mn2 1_555 1_555
N15 C3 1_555 1_555
N16 C4 1_555 1_555
N17 Mn3 1_555 1_555
N18 Mn5 1_555 1_555
N19 Mn3 1_555 1_555
N20 Mn4 1_555 1_555
N21 C9 1_555 1_555
N22 Mn6 1_555 1_555
N23 Mn5 1_555 1_555
N24 C12 1_555 1_555
N25 C13 1_555 1_555
N26 Mn6 1_555 1_555
N27 Mn4 1_555 1_555
N28 C16 1_555 1_555
N29 C17 1_555 1_555
N30 Mn1 1_555 1_555
O1 Mn1 1_555 1_555
O2 Mn1 1_555 1_555
O3 Mn2 1_555 1_555
O4 Mn2 1_555 1_555
O5 Mn3 1_555 1_555
O6 Mn3 1_555 1_555
O7 Mn4 1_555 1_555
O8 Mn4 1_555 1_555
O9 Mn5 1_555 1_555
O10 Mn5 1_555 1_555
O11 Mn6 1_555 1_555
O12 Mn6 1_555 1_555
C1 N13 1_555 1_555
C2 Fe1 1_555 1_555
C3 Fe1 1_555 1_555
C4 Fe1 1_555 1_555
C5 Fe1 1_555 1_555
C6 Fe1 1_555 1_555
C7 N19 1_555 1_555
C8 N20 1_555 1_555
C9 Fe2 1_555 1_555
C10 N22 1_555 1_555
C11 N23 1_555 1_555
C12 Fe2 1_555 1_555
C14 Fe3 1_555 1_555
C15 Fe3 1_555 1_555
C16 Fe3 1_555 1_555
C17 Fe3 1_555 1_555
C18 Fe3 1_555 1_555
C19 O1 1_555 1_555
C20 C19 1_555 1_555
H1 C20 1_555 1_555
C21 C20 1_555 1_555
H2 C21 1_555 1_555
C22 C21 1_555 1_555
C23 C22 1_555 1_555
H3 C23 1_555 1_555
C24 C19 1_555 1_555
C25 C24 1_555 1_555
H4 C25 1_555 1_555
C26 N1 1_555 1_555
H5 C26 1_555 1_555
H6 C26 1_555 1_555
C27 C26 1_555 1_555
C28 N2 1_555 1_555
H7 C28 1_555 1_555
H8 C28 1_555 1_555
C29 N2 1_555 1_555
H9 C29 1_555 1_555
C30 C29 1_555 1_555
C31 C30 1_555 1_555
H10 C31 1_555 1_555
C32 C31 1_555 1_555
C33 C32 1_555 1_555
H11 C33 1_555 1_555
C34 C33 1_555 1_555
H12 C34 1_555 1_555
C35 O2 1_555 1_555
C36 C27 1_555 1_555
H13 C36 1_555 1_555
H14 C36 1_555 1_555
H15 C36 1_555 1_555
C37 C27 1_555 1_555
H16 C37 1_555 1_555
H17 C37 1_555 1_555
H18 C37 1_555 1_555
C38 O3 1_555 1_555
C39 C38 1_555 1_555
H19 C39 1_555 1_555
C40 C39 1_555 1_555
H20 C40 1_555 1_555
C41 C40 1_555 1_555
C42 C41 1_555 1_555
H21 C42 1_555 1_555
C43 C38 1_555 1_555
C44 C43 1_555 1_555
H22 C44 1_555 1_555
C45 N3 1_555 1_555
H23 C45 1_555 1_555
H24 C45 1_555 1_555
C46 C45 1_555 1_555
C47 N4 1_555 1_555
H25 C47 1_555 1_555
H26 C47 1_555 1_555
C48 N4 1_555 1_555
H27 C48 1_555 1_555
C49 C48 1_555 1_555
C50 C49 1_555 1_555
H28 C50 1_555 1_555
C51 C50 1_555 1_555
C52 C51 1_555 1_555
H29 C52 1_555 1_555
C53 C52 1_555 1_555
H30 C53 1_555 1_555
C54 O4 1_555 1_555
C55 C46 1_555 1_555
H31 C55 1_555 1_555
H32 C55 1_555 1_555
H33 C55 1_555 1_555
C56 C46 1_555 1_555
H34 C56 1_555 1_555
H35 C56 1_555 1_555
H36 C56 1_555 1_555
C57 O5 1_555 1_555
C58 C57 1_555 1_555
H37 C58 1_555 1_555
C59 C58 1_555 1_555
H38 C59 1_555 1_555
C60 C59 1_555 1_555
C61 C60 1_555 1_555
H39 C61 1_555 1_555
C62 C57 1_555 1_555
C63 C62 1_555 1_555
H40 C63 1_555 1_555
C64 N5 1_555 1_555
H41 C64 1_555 1_555
H42 C64 1_555 1_555
C65 C64 1_555 1_555
C66 N6 1_555 1_555
H43 C66 1_555 1_555
H44 C66 1_555 1_555
C67 N6 1_555 1_555
H45 C67 1_555 1_555
C68 C67 1_555 1_555
C69 C68 1_555 1_555
H46 C69 1_555 1_555
C70 C69 1_555 1_555
C71 C70 1_555 1_555
H47 C71 1_555 1_555
C72 C71 1_555 1_555
H48 C72 1_555 1_555
C73 O6 1_555 1_555
C74 C65 1_555 1_555
H49 C74 1_555 1_555
H50 C74 1_555 1_555
H51 C74 1_555 1_555
C75 C65 1_555 1_555
H52 C75 1_555 1_555
H53 C75 1_555 1_555
H54 C75 1_555 1_555
C76 O7 1_555 1_555
C77 C76 1_555 1_555
H55 C77 1_555 1_555
C78 C77 1_555 1_555
H56 C78 1_555 1_555
C79 C78 1_555 1_555
C80 C79 1_555 1_555
H57 C80 1_555 1_555
C81 C76 1_555 1_555
C82 C81 1_555 1_555
H58 C82 1_555 1_555
C83 N7 1_555 1_555
H59 C83 1_555 1_555
H60 C83 1_555 1_555
C84 C83 1_555 1_555
C85 N8 1_555 1_555
H61 C85 1_555 1_555
H62 C85 1_555 1_555
C86 N8 1_555 1_555
H63 C86 1_555 1_555
C87 C86 1_555 1_555
C88 C87 1_555 1_555
H64 C88 1_555 1_555
C89 C88 1_555 1_555
C90 C89 1_555 1_555
H65 C90 1_555 1_555
C91 C90 1_555 1_555
H66 C91 1_555 1_555
C92 O8 1_555 1_555
C93 C84 1_555 1_555
H67 C93 1_555 1_555
H68 C93 1_555 1_555
H69 C93 1_555 1_555
C94 C84 1_555 1_555
H70 C94 1_555 1_555
H71 C94 1_555 1_555
H72 C94 1_555 1_555
C95 O9 1_555 1_555
C96 C95 1_555 1_555
H73 C96 1_555 1_555
C97 C96 1_555 1_555
H74 C97 1_555 1_555
C98 C97 1_555 1_555
C99 C98 1_555 1_555
H75 C99 1_555 1_555
C100 C95 1_555 1_555
C101 C100 1_555 1_555
H76 C101 1_555 1_555
C102 N9 1_555 1_555
H77 C102 1_555 1_555
H78 C102 1_555 1_555
C103 C102 1_555 1_555
C104 N10 1_555 1_555
H79 C104 1_555 1_555
H80 C104 1_555 1_555
C105 N10 1_555 1_555
H81 C105 1_555 1_555
C106 C105 1_555 1_555
C107 C106 1_555 1_555
H82 C107 1_555 1_555
C108 C107 1_555 1_555
C109 C108 1_555 1_555
H83 C109 1_555 1_555
C110 C109 1_555 1_555
H84 C110 1_555 1_555
C111 O10 1_555 1_555
C112 C103 1_555 1_555
H85 C112 1_555 1_555
H86 C112 1_555 1_555
H87 C112 1_555 1_555
C113 C103 1_555 1_555
H88 C113 1_555 1_555
H89 C113 1_555 1_555
H90 C113 1_555 1_555
C114 O11 1_555 1_555
C115 C114 1_555 1_555
H91 C115 1_555 1_555
C116 C115 1_555 1_555
H92 C116 1_555 1_555
C117 C116 1_555 1_555
C118 C117 1_555 1_555
H93 C118 1_555 1_555
C119 C114 1_555 1_555
C120 C119 1_555 1_555
H94 C120 1_555 1_555
C121 N11 1_555 1_555
H95 C121 1_555 1_555
H96 C121 1_555 1_555
C122 C121 1_555 1_555
C123 N12 1_555 1_555
H97 C123 1_555 1_555
H98 C123 1_555 1_555
C124 N12 1_555 1_555
H99 C124 1_555 1_555
C125 C124 1_555 1_555
C126 C125 1_555 1_555
H100 C126 1_555 1_555
C127 C126 1_555 1_555
C128 C127 1_555 1_555
H101 C128 1_555 1_555
C129 C128 1_555 1_555
H102 C129 1_555 1_555
C130 O12 1_555 1_555
C131 C122 1_555 1_555
H103 C131 1_555 1_555
H104 C131 1_555 1_555
H105 C131 1_555 1_555
C132 C122 1_555 1_555
H106 C132 1_555 1_555
H107 C132 1_555 1_555
H108 C132 1_555 1_555
N31 C133 1_555 1_555
C133 H109 1_555 1_555
H110 C133 1_555 1_555
C134 C133 1_555 1_555
H111 C134 1_555 1_555
H112 C134 1_555 1_555
H113 C134 1_555 1_555
C135 N31 1_555 1_555
H114 C135 1_555 1_555
H115 C135 1_555 1_555
C136 C135 1_555 1_555
H116 C136 1_555 1_555
H117 C136 1_555 1_555
H118 C136 1_555 1_555
C137 N31 1_555 1_555
H119 C137 1_555 1_555
H120 C137 1_555 1_555
C138 C137 1_555 1_555
H121 C138 1_555 1_555
H122 C138 1_555 1_555
H123 C138 1_555 1_555
C139 N31 1_555 1_555
H124 C139 1_555 1_555
H125 C139 1_555 1_555
C140 C139 1_555 1_555
H126 C140 1_555 1_555
H127 C140 1_555 1_555
H128 C140 1_555 1_555
N32 C141 1_555 1_555
C141 H129 1_555 1_555
H130 C141 1_555 1_555
C142 C141 1_555 1_555
H131 C142 1_555 1_555
H132 C142 1_555 1_555
H133 C142 1_555 1_555
C143 N32 1_555 1_555
H134 C143 1_555 1_555
H135 C143 1_555 1_555
C144 C143 1_555 1_555
H136 C144 1_555 1_555
H137 C144 1_555 1_555
H138 C144 1_555 1_555
C145 N32 1_555 1_555
H139 C145 1_555 1_555
H140 C145 1_555 1_555
C146 C145 1_555 1_555
H141 C146 1_555 1_555
H142 C146 1_555 1_555
H143 C146 1_555 1_555
C147 N32 1_555 1_555
H144 C147 1_555 1_555
H145 C147 1_555 1_555
C148 C147 1_555 1_555
H146 C148 1_555 1_555
H147 C148 1_555 1_555
H148 C148 1_555 1_555
N33 C149 1_555 1_555
C149 H149 1_555 1_555
H150 C149 1_555 1_555
C150 C149 1_555 1_555
H151 C150 1_555 1_555
H152 C150 1_555 1_555
H153 C150 1_555 1_555
C151 N33 1_555 1_555
H154 C151 1_555 1_555
H155 C151 1_555 1_555
C152 C151 1_555 1_555
H156 C152 1_555 1_555
H157 C152 1_555 1_555
H158 C152 1_555 1_555
C153 N33 1_555 1_555
H159 C153 1_555 1_555
H160 C153 1_555 1_555
C154 C153 1_555 1_555
H161 C154 1_555 1_555
H162 C154 1_555 1_555
H163 C154 1_555 1_555
C155 N33 1_555 1_555
H164 C155 1_555 1_555
H165 C155 1_555 1_555
C156 C155 1_555 1_555
H166 C156 1_555 1_555
H167 C156 1_555 1_555
H168 C156 1_555 1_555
O13 H169 1_555 1_555
C157 O13 1_555 1_555
H170 C157 1_555 1_555
H171 C157 1_555 1_555
H172 C157 1_555 1_555
O14 H173 1_555 1_555
C158 O14 1_555 1_555
H174 C158 1_555 1_555
H175 C158 1_555 1_555
H176 C158 1_555 1_555
O15 H177 1_555 1_555
C159 O15 1_555 1_555
H178 C159 1_555 1_555
H179 C159 1_555 1_555
H180 C159 1_555 1_555
O16 H181 1_555 1_555
C160 O16 1_555 1_555
H182 C160 1_555 1_555
H183 C160 1_555 1_555
H184 C160 1_555 1_555
O17 H185 1_555 1_555
C161 O17 1_555 1_555
H186 C161 1_555 1_555
H187 C161 1_555 1_555
H188 C161 1_555 1_555
O18 H189 1_555 1_555
C162 O18 1_555 1_555
H190 C162 1_555 1_555
H191 C162 1_555 1_555
H192 C162 1_555 1_555
O19 H193 1_555 1_555
C163 O19 1_555 1_555
H194 C163 1_555 1_555
H195 C163 1_555 1_555
H196 C163 1_555 1_555
O20 H197 1_555 1_555
C164 O20 1_555 1_555
H198 C164 1_555 1_555
H199 C164 1_555 1_555
H200 C164 1_555 1_555
O21 H201 1_555 1_555
C165 O21 1_555 1_555
H202 C165 1_555 1_555
H203 C165 1_555 1_555
H204 C165 1_555 1_555
O22 H205 1_555 1_555
C166 O22 1_555 1_555
H206 C166 1_555 1_555
H207 C166 1_555 1_555
H208 C166 1_555 1_555
O23 H209 1_555 1_555
C167 O23 1_555 1_555
H210 C167 1_555 1_555
H211 C167 1_555 1_555
H212 C167 1_555 1_555
O24 H213 1_555 1_555
C168 O24 1_555 1_555
H214 C168 1_555 1_555
H215 C168 1_555 1_555
H216 C168 1_555 1_555
Mn2A N29 1_555 1_555
Fe2A C8 1_555 1_555
Fe2B C10 1_555 1_555
Fe2B_2 C11 1_555 1_555
N29B Mn2 1_555 1_555
C8B Fe2 1_555 1_555
C10A Fe2 1_555 1_555
C11A Fe2 1_555 1_555
N14 C2 1_555 1_555
N17 C5 1_555 1_555
N18 C6 1_555 1_555
N26 C14 1_555 1_555
N27 C15 1_555 1_555
N30 C18 1_555 1_555
C23 C24 1_555 1_555
C27 C28 1_555 1_555
C30 C35 1_555 1_555
C34 C35 1_555 1_555
C42 C43 1_555 1_555
C46 C47 1_555 1_555
C49 C54 1_555 1_555
C53 C54 1_555 1_555
C61 C62 1_555 1_555
C65 C66 1_555 1_555
C68 C73 1_555 1_555
C72 C73 1_555 1_555
C80 C81 1_555 1_555
C84 C85 1_555 1_555
C87 C92 1_555 1_555
C91 C92 1_555 1_555
C99 C100 1_555 1_555
C103 C104 1_555 1_555
C106 C111 1_555 1_555
C110 C111 1_555 1_555
C118 C119 1_555 1_555
C122 C123 1_555 1_555
C125 C130 1_555 1_555
C129 C130 1_555 1_555

#END
