
#######################################################################
#
#                 Cambridge Crystallographic Data Centre
#                                CCDC 
#
#######################################################################
#
# If this CIF has been generated from an entry in the Cambridge 
# Structural Database, then it will include bibliographic, chemical, 
# crystal, experimental, refinement or atomic coordinate data resulting 
# from the CCDC's data processing and validation procedures.
#
#######################################################################

data_EBINUA
_chemical_formula_moiety         '(C16 H28 Cl1 Cu1 N12 O6 1+)n'
_symmetry_cell_setting           orthorhombic
_symmetry_space_group_name_H-M   'F d d d'
_symmetry_Int_Tables_number      70
_space_group_name_Hall           '-F 2uv 2vw'
loop_
_symmetry_equiv_pos_site_id
_symmetry_equiv_pos_as_xyz
1 x,y,z
2 1/4-x,3/4-y,1/2+z
3 x,1/2+y,1/2+z
4 1/4-x,1/4-y,z
5 1/2+x,y,1/2+z
6 3/4-x,3/4-y,z
7 1/2+x,1/2+y,z
8 3/4-x,1/4-y,1/2+z
9 x,3/4-y,3/4-z
10 3/4-x,y,3/4-z
11 x,1/4-y,1/4-z
12 3/4-x,1/2+y,1/4-z
13 1/2+x,3/4-y,1/4-z
14 1/4-x,y,1/4-z
15 1/2+x,1/4-y,3/4-z
16 1/4-x,1/2+y,3/4-z
17 -x,-y,-z
18 3/4+x,1/4+y,1/2-z
19 -x,1/2-y,1/2-z
20 3/4+x,3/4+y,-z
21 1/2-x,-y,1/2-z
22 1/4+x,1/4+y,-z
23 1/2-x,1/2-y,-z
24 1/4+x,3/4+y,1/2-z
25 -x,1/4+y,1/4+z
26 1/4+x,-y,1/4+z
27 -x,3/4+y,3/4+z
28 1/4+x,1/2-y,3/4+z
29 1/2-x,1/4+y,3/4+z
30 3/4+x,-y,3/4+z
31 1/2-x,3/4+y,1/4+z
32 3/4+x,1/2-y,1/4+z
_cell_length_a                   13.143(2)
_cell_length_b                   17.513(3)
_cell_length_c                   25.348(4)
_cell_angle_alpha                90
_cell_angle_beta                 90
_cell_angle_gamma                90
_cell_volume                     5834.43
loop_
_atom_site_label
_atom_site_type_symbol
_atom_site_fract_x
_atom_site_fract_y
_atom_site_fract_z
_atom_site_U_iso_or_equiv
_atom_site_thermal_displace_type
Cu1 Cu 0.6250 0.1250 0.1250 0.0290 Uani
O1 O 0.6250 -0.0127(2) 0.1250 0.0459 Uani
N1 N 0.8308(2) 0.16668(18) 0.24523(11) 0.0407 Uani
N2 N 0.8686(3) 0.0989(2) 0.2303(2) 0.0650 Uani
N3 N 0.7331(2) 0.12908(15) 0.18110(11) 0.0349 Uani
C1 C 0.9567(3) 0.2680(3) 0.26480(18) 0.0557 Uani
H1 H 0.9217 0.3037 0.2412 0.0670 Uiso
H2 H 0.9848 0.2978 0.2941 0.0670 Uiso
C2 C 0.8790(3) 0.2122(3) 0.28675(16) 0.0530 Uani
H3 H 0.9126 0.1779 0.3119 0.0640 Uiso
H4 H 0.8264 0.2407 0.3059 0.0640 Uiso
C3 C 0.8081(3) 0.0790(2) 0.1913(2) 0.0603 Uani
H5 H 0.8167 0.0335 0.1721 0.0730 Uiso
C4 C 0.7503(2) 0.1839(2) 0.21615(13) 0.0360 Uani
H6 H 0.7111 0.2284 0.2198 0.0430 Uiso
H7 H 0.567(3) -0.041(3) 0.1305(19) 0.0720 Uiso
H7M H 0.683(3) -0.041(3) 0.1195(19) 0.0720 Uiso
C1R C 1.0433(3) 0.2320(3) 0.23520(18) 0.0557 Uani
H1R H 1.0783 0.1963 0.2588 0.0670 Uiso
H2R H 1.0152 0.2022 0.2059 0.0670 Uiso
C2R C 1.1210(3) 0.2878(3) 0.21325(16) 0.0530 Uani
N1R N 1.1692(2) 0.33332(18) 0.25477(11) 0.0407 Uani
N2R N 1.1314(3) 0.4011(2) 0.2697(2) 0.0650 Uani
C3R C 1.1919(3) 0.4210(2) 0.3087(2) 0.0603 Uani
N3R N 1.2669(2) 0.37092(15) 0.31890(11) 0.0349 Uani
C4R C 1.2497(2) 0.3161(2) 0.28385(13) 0.0360 Uani
H6R H 1.2889 0.2716 0.2802 0.0430 Uiso
H5R H 1.1833 0.4665 0.3279 0.0730 Uiso
H3R H 1.0874 0.3221 0.1881 0.0640 Uiso
H4R H 1.1736 0.2593 0.1941 0.0640 Uiso
O1C O 0.6250 0.2627(2) 0.1250 0.0459 Uani
H7C H 0.683(3) 0.291(3) 0.1305(19) 0.0720 Uiso
H7J H 0.567(3) 0.291(3) 0.1195(19) 0.0720 Uiso
N1C N 0.4192(2) 0.08332(18) 0.24523(11) 0.0407 Uani
N2C N 0.3814(3) 0.1511(2) 0.2303(2) 0.0650 Uani
N3C N 0.5169(2) 0.12092(15) 0.18110(11) 0.0349 Uani
C1C C 0.2933(3) -0.0180(3) 0.26480(18) 0.0557 Uani
H1C H 0.3283 -0.0537 0.2412 0.0670 Uiso
H2C H 0.2652 -0.0478 0.2941 0.0670 Uiso
C2C C 0.3710(3) 0.0378(3) 0.28675(16) 0.0530 Uani
H3C H 0.3374 0.0721 0.3119 0.0640 Uiso
H4C H 0.4236 0.0093 0.3059 0.0640 Uiso
C3C C 0.4419(3) 0.1710(2) 0.1913(2) 0.0603 Uani
H5C H 0.4333 0.2165 0.1721 0.0730 Uiso
C4C C 0.4997(2) 0.0661(2) 0.21615(13) 0.0360 Uani
H6C H 0.5389 0.0216 0.2198 0.0430 Uiso
C1W C 0.2067(3) 0.0180(3) 0.23520(18) 0.0557 Uani
H1W H 0.1717 0.0537 0.2588 0.0670 Uiso
H2W H 0.2348 0.0478 0.2059 0.0670 Uiso
C2W C 0.1290(3) -0.0378(3) 0.21325(16) 0.0530 Uani
N1W N 0.0808(2) -0.08332(18) 0.25477(11) 0.0407 Uani
N2W N 0.1186(3) -0.1511(2) 0.2697(2) 0.0650 Uani
C3W C 0.0581(3) -0.1710(2) 0.3087(2) 0.0603 Uani
N3W N -0.0169(2) -0.12092(15) 0.31890(11) 0.0349 Uani
C4W C 0.0003(2) -0.0661(2) 0.28385(13) 0.0360 Uani
H6W H -0.0389 -0.0216 0.2802 0.0430 Uiso
H5W H 0.0667 -0.2165 0.3279 0.0730 Uiso
H3W H 0.1626 -0.0721 0.1881 0.0640 Uiso
H4W H 0.0764 -0.0093 0.1941 0.0640 Uiso
N3J N 0.7331(2) 0.12092(15) 0.06890(11) 0.0349 Uani
N3M N 0.5169(2) 0.12908(15) 0.06890(11) 0.0349 Uani
Cu1R Cu 1.3750 0.3750 0.3750 0.0290 Uani
Cu1W Cu -0.1250 -0.1250 0.3750 0.0290 Uani
Cl1 Cl 0.3750 -0.1250 0.11810(5) 0.0474 Uani
O2 O 0.4347(6) -0.0782(4) 0.1501(2) 0.0867 Uani
O4 O 0.3197(9) -0.0477(5) 0.1248(4) 0.0723 Uani
O2E O 0.3153(6) -0.1718(4) 0.1501(2) 0.0867 Uani
O4E O 0.4303(9) -0.2023(5) 0.1248(4) 0.0723 Uani
loop_
_atom_site_aniso_label
_atom_site_aniso_U_11
_atom_site_aniso_U_22
_atom_site_aniso_U_33
_atom_site_aniso_U_23
_atom_site_aniso_U_13
_atom_site_aniso_U_12
Cu1 0.0184(4) 0.0340(5) 0.0347(5) 0.000 0.000 0.000
O1 0.0294(19) 0.0314(19) 0.077(3) 0.000 0.0043(17) 0.000
N1 0.0350(17) 0.0445(17) 0.0427(17) 0.0033(13) -0.0085(13) -0.0085(14)
N2 0.052(2) 0.045(2) 0.098(3) -0.003(2) -0.040(2) 0.0062(16)
N3 0.0255(14) 0.0364(15) 0.0427(16) -0.0023(12) -0.0059(12) 0.0002(10)
C1 0.049(2) 0.062(3) 0.056(2) -0.013(2) -0.0108(19) -0.015(2)
C2 0.049(2) 0.070(3) 0.040(2) -0.0023(19) -0.0080(17) -0.0188(19)
C3 0.051(2) 0.040(2) 0.090(3) -0.018(2) -0.032(2) 0.0118(18)
C4 0.0295(17) 0.0412(18) 0.0374(17) 0.0037(14) -0.0009(14) -0.0018(14)
C1R 0.049 0.062 0.056 -0.013 -0.0108 -0.015
C2R 0.049 0.07 0.04 -0.0023 -0.008 -0.0188
N1R 0.035 0.0445 0.0427 0.0033 -0.0085 -0.0085
N2R 0.052 0.045 0.098 -0.003 -0.04 0.0062
C3R 0.051 0.04 0.09 -0.018 -0.032 0.0118
N3R 0.0255 0.0364 0.0427 -0.0023 -0.0059 0.0002
C4R 0.0295 0.0412 0.0374 0.0037 -0.0009 -0.0018
O1C 0.0294 0.0314 0.077 0 -0.0043 0
N1C 0.035 0.0445 0.0427 -0.0033 0.0085 -0.0085
N2C 0.052 0.045 0.098 0.003 0.04 0.0062
N3C 0.0255 0.0364 0.0427 0.0023 0.0059 0.0002
C1C 0.049 0.062 0.056 0.013 0.0108 -0.015
C2C 0.049 0.07 0.04 0.0023 0.008 -0.0188
C3C 0.051 0.04 0.09 0.018 0.032 0.0118
C4C 0.0295 0.0412 0.0374 -0.0037 0.0009 -0.0018
C1W 0.049 0.062 0.056 0.013 0.0108 -0.015
C2W 0.049 0.07 0.04 0.0023 0.008 -0.0188
N1W 0.035 0.0445 0.0427 -0.0033 0.0085 -0.0085
N2W 0.052 0.045 0.098 0.003 0.04 0.0062
C3W 0.051 0.04 0.09 0.018 0.032 0.0118
N3W 0.0255 0.0364 0.0427 0.0023 0.0059 0.0002
C4W 0.0295 0.0412 0.0374 -0.0037 0.0009 -0.0018
N3J 0.0255 0.0364 0.0427 -0.0023 0.0059 -0.0002
N3M 0.0255 0.0364 0.0427 0.0023 -0.0059 -0.0002
Cu1R 0.0184 0.034 0.0347 0 0 0
Cu1W 0.0184 0.034 0.0347 0 0 0
Cl1 0.0409(8) 0.0564(9) 0.0450(7) 0.000 0.000 -0.0189(6)
O2 0.092(5) 0.101(5) 0.067(3) -0.013(3) 0.000(3) -0.065(4)
O4 0.084(8) 0.044(5) 0.089(7) 0.011(5) 0.050(6) 0.017(5)
O2E 0.092 0.101 0.067 0.013 0 -0.065
O4E 0.084 0.044 0.089 -0.011 -0.05 0.017
loop_
_geom_bond_atom_site_label_1
_geom_bond_atom_site_label_2
_geom_bond_site_symmetry_1
_geom_bond_site_symmetry_2
Cu1 O1 1_555 1_555
O1 H7 1_555 1_555
N1 N2 1_555 1_555
N2 C3 1_555 1_555
N3 Cu1 1_555 1_555
C1 H1 1_555 1_555
H2 C1 1_555 1_555
C2 N1 1_555 1_555
H3 C2 1_555 1_555
H4 C2 1_555 1_555
C3 N3 1_555 1_555
H5 C3 1_555 1_555
C4 N1 1_555 1_555
H6 C4 1_555 1_555
Cl1 O2 1_555 1_555
O4 Cl1 1_555 1_555
H7M O1 1_555 1_555
C1R C1 1_555 1_555
H1R C1R 1_555 1_555
H2R C1R 1_555 1_555
C2R C1R 1_555 1_555
N1R C2R 1_555 1_555
N2R N1R 1_555 1_555
C3R N2R 1_555 1_555
N3R C3R 1_555 1_555
C4R N1R 1_555 1_555
H6R C4R 1_555 1_555
H5R C3R 1_555 1_555
H3R C2R 1_555 1_555
H4R C2R 1_555 1_555
O2E Cl1 1_555 1_555
O4E Cl1 1_555 1_555
O1C Cu1 1_555 1_555
H7C O1C 1_555 1_555
H7J O1C 1_555 1_555
N1C N2C 1_555 1_555
N2C C3C 1_555 1_555
N3C Cu1 1_555 1_555
C1C H1C 1_555 1_555
H2C C1C 1_555 1_555
C2C N1C 1_555 1_555
H3C C2C 1_555 1_555
H4C C2C 1_555 1_555
C3C N3C 1_555 1_555
H5C C3C 1_555 1_555
C4C N1C 1_555 1_555
H6C C4C 1_555 1_555
C1W C1C 1_555 1_555
H1W C1W 1_555 1_555
H2W C1W 1_555 1_555
C2W C1W 1_555 1_555
N1W C2W 1_555 1_555
N2W N1W 1_555 1_555
C3W N2W 1_555 1_555
N3W C3W 1_555 1_555
C4W N1W 1_555 1_555
H6W C4W 1_555 1_555
H5W C3W 1_555 1_555
H3W C2W 1_555 1_555
H4W C2W 1_555 1_555
N3J Cu1 1_555 1_555
N3M Cu1 1_555 1_555
Cu1R N3R 1_555 1_555
Cu1W N3W 1_555 1_555
N3 C4 1_555 1_555
C1 C2 1_555 1_555
N3R C4R 1_555 1_555
N3C C4C 1_555 1_555
C1C C2C 1_555 1_555
N3W C4W 1_555 1_555

#END
