
#######################################################################
#
#                 Cambridge Crystallographic Data Centre
#                                CCDC 
#
#######################################################################
#
# If this CIF has been generated from an entry in the Cambridge 
# Structural Database, then it will include bibliographic, chemical, 
# crystal, experimental, refinement or atomic coordinate data resulting 
# from the CCDC's data processing and validation procedures.
#
#######################################################################

data_OLOGAY
_chemical_formula_moiety         'C82 H74 N3 O30 Zn10'
_symmetry_cell_setting           cubic
_symmetry_space_group_name_H-M   'I 2 3'
_symmetry_Int_Tables_number      197
_space_group_name_Hall           'I 2 2 3'
loop_
_symmetry_equiv_pos_site_id
_symmetry_equiv_pos_as_xyz
1 x,y,z
2 -x,-y,z
3 -x,y,-z
4 x,-y,-z
5 z,x,y
6 z,-x,-y
7 -z,-x,y
8 -z,x,-y
9 y,z,x
10 -y,z,-x
11 y,-z,-x
12 -y,-z,x
13 1/2+x,1/2+y,1/2+z
14 1/2-x,1/2-y,1/2+z
15 1/2-x,1/2+y,1/2-z
16 1/2+x,1/2-y,1/2-z
17 1/2+z,1/2+x,1/2+y
18 1/2+z,1/2-x,1/2-y
19 1/2-z,1/2-x,1/2+y
20 1/2-z,1/2+x,1/2-y
21 1/2+y,1/2+z,1/2+x
22 1/2-y,1/2+z,1/2-x
23 1/2+y,1/2-z,1/2-x
24 1/2-y,1/2-z,1/2+x
_cell_length_a                   19.2919(14)
_cell_length_b                   19.2919(14)
_cell_length_c                   19.2919(14)
_cell_angle_alpha                90
_cell_angle_beta                 90
_cell_angle_gamma                90
_cell_volume                     7180.01
loop_
_atom_site_label
_atom_site_type_symbol
_atom_site_fract_x
_atom_site_fract_y
_atom_site_fract_z
O4 O 0.8851(11) 0.3853(12) 0.8829(12)
H6 H 0.8961 0.4265 0.8939
H7 H 0.8697 0.3642 0.9184
O5 O 0.7475(17) 0.1534(16) 0.7959(15)
H8 H 0.7740 0.1185 0.8001
H9 H 0.7112 0.1473 0.8201
O6 O 0.7484(15) 0.1840(16) 0.6814(13)
H10 H 0.7286 0.1536 0.6564
H11 H 0.7267 0.2222 0.6782
O7 O 0.3281(14) 0.5063(15) 0.2493(15)
H12 H 0.3553 0.4859 0.2774
H13 H 0.3478 0.5105 0.2101
O8 O 0.2750(7) 0.4305(6) 1.0030(7)
H14 H 0.2463 0.4589 0.9854
H15 H 0.3122 0.4306 0.9794
O9 O 0.1708(8) 0.9765(7) 0.3892(8)
H16 H 0.1464 0.9654 0.4241
H17 H 0.2096 0.9924 0.4028
O10 O 0.1895(8) 0.9193(8) 0.1892(7)
H18 H 0.1854 0.9546 0.1631
H19 H 0.2291 0.9010 0.1829
C1 C -0.0000 0.8175(3) 1.0000
C2 C -0.0000 0.7398(3) 1.0000
C3 C 0.0537(11) 0.6931(8) 1.0010(11)
H1 H 0.1000 0.7113 1.0019
C4 C 0.0454(8) 0.6207(10) 1.0011(9)
H2 H 0.0843 0.5897 1.0011
C5 C -0.0202(6) 0.5987(6) 0.9982(6)
C6 C 0.0741(6) 0.6418(6) 1.0024(6)
H3 H 0.1204 0.6237 1.0033
C7 C -0.0661(10) 0.7138(9) 0.9994(11)
H4 H 0.1050 0.7448 1.0007
C8 C -0.0325(4) 0.5206(4) 0.9944(5)
N1 N -0.0325(4) 0.5206(4) 0.9944(5)
H5 H 0.0034 0.4915 0.9877
O1 O 0.0000 1.0000 1.0000
O2 O 0.03611(13) 0.84689(12) 0.95852(13)
O3 O -0.0858(4) 0.5000 1.0000
Zn1 Zn 0.05881(2) 0.94119(2) 0.94119(2)
C1A C 0.0000 0.1825(3) 1.0000
C1I C 0.1825(3) 1.0000 1.0000
C1H C 0.8175(3) 1.0000 1.0000
C1D C -0.0000 1.0000 0.8175(3)
C1E C 0.0000 1.0000 0.1825(3)
C2A C 0.0000 0.2602(3) 1.0000
C2I C 0.2602(3) 1.0000 1.0000
C2H C 0.7398(3) 1.0000 1.0000
C2D C -0.0000 1.0000 0.7398(3)
C2E C 0.0000 1.0000 0.2602(3)
C3B C -0.0537(11) 0.6931(8) 0.9990(11)
C3C C 0.0537(11) 0.3069(8) 0.9990(11)
C3A C -0.0537(11) 0.3069(8) 1.0010(11)
C3I C 0.3069(8) 1.0010(11) 0.9463(11)
C3K C 0.3069(8) 0.9990(11) 1.0537(11)
C3H C 0.6931(8) 1.0010(11) 1.0537(11)
C3J C 0.6931(8) 0.9990(11) 0.9463(11)
C3F C -0.0010(11) 0.9463(11) 0.6931(8)
C3D C 0.0010(11) 1.0537(11) 0.6931(8)
C3G C -0.0010(11) 1.0537(11) 0.3069(8)
C3E C 0.0010(11) 0.9463(11) 0.3069(8)
H1B H -0.1000 0.7113 0.9981
H1C H 0.1000 0.2887 0.9981
H1A H -0.1000 0.2887 1.0019
H1I H 0.2887 1.0019 0.9000
H1K H 0.2887 0.9981 1.1000
H1H H 0.7113 1.0019 1.1000
H1J H 0.7113 0.9981 0.9000
H1F H -0.0019 0.9000 0.7113
H1D H 0.0019 1.1000 0.7113
H1G H -0.0019 1.1000 0.2887
H1E H 0.0019 0.9000 0.2887
C4B C -0.0454(8) 0.6207(10) 0.9989(9)
C4C C 0.0454(8) 0.3793(10) 0.9989(9)
C4A C -0.0454(8) 0.3793(10) 1.0011(9)
C4I C 0.3793(10) 1.0011(9) 0.9546(8)
C4K C 0.3793(10) 0.9989(9) 1.0454(8)
C4H C 0.6207(10) 1.0011(9) 1.0454(8)
C4J C 0.6207(10) 0.9989(9) 0.9546(8)
C4F C -0.0011(9) 0.9546(8) 0.6207(10)
C4D C 0.0011(9) 1.0454(8) 0.6207(10)
C4G C -0.0011(9) 1.0454(8) 0.3793(10)
C4E C 0.0011(9) 0.9546(8) 0.3793(10)
H2B H -0.0843 0.5897 0.9989
H2A H -0.0843 0.4103 1.0011
H2C H 0.0843 0.4103 0.9989
H2I H 0.4103 1.0011 0.9157
H2K H 0.4103 0.9989 1.0843
H2J H 0.5897 0.9989 0.9157
H2H H 0.5897 1.0011 1.0843
H2F H -0.0011 0.9157 0.5897
H2D H 0.0011 1.0843 0.5897
H2E H 0.0011 0.9157 0.4103
H2G H -0.0011 1.0843 0.4103
C5B C 0.0202(6) 0.5987(6) 1.0018(6)
C5C C -0.0202(6) 0.4013(6) 1.0018(6)
C5A C 0.0202(6) 0.4013(6) 0.9982(6)
C5I C 0.4013(6) 0.9982(6) 1.0202(6)
C5K C 0.4013(6) 1.0018(6) 0.9798(6)
C5H C 0.5987(6) 0.9982(6) 0.9798(6)
C5J C 0.5987(6) 1.0018(6) 1.0202(6)
C5F C 0.0018(6) 1.0202(6) 0.5987(6)
C5D C -0.0018(6) 0.9798(6) 0.5987(6)
C5G C 0.0018(6) 0.9798(6) 0.4013(6)
C5E C -0.0018(6) 1.0202(6) 0.4013(6)
C6B C -0.0741(6) 0.6418(6) 0.9976(6)
C6A C -0.0741(6) 0.3582(6) 1.0024(6)
C6C C 0.0741(6) 0.3582(6) 0.9976(6)
C6I C 0.3582(6) 1.0024(6) 0.9259(6)
C6K C 0.3582(6) 0.9976(6) 1.0741(6)
C6J C 0.6418(6) 0.9976(6) 0.9259(6)
C6H C 0.6418(6) 1.0024(6) 1.0741(6)
C6F C -0.0024(6) 0.9259(6) 0.6418(6)
C6D C 0.0024(6) 1.0741(6) 0.6418(6)
C6E C 0.0024(6) 0.9259(6) 0.3582(6)
C6G C -0.0024(6) 1.0741(6) 0.3582(6)
H3B H -0.1204 0.6237 0.9967
H3A H -0.1204 0.3763 1.0033
H3C H 0.1204 0.3763 0.9967
H3I H 0.3763 1.0033 0.8796
H3K H 0.3763 0.9967 1.1204
H3J H 0.6237 0.9967 0.8796
H3H H 0.6237 1.0033 1.1204
H3F H -0.0033 0.8796 0.6237
H3D H 0.0033 1.1204 0.6237
H3E H 0.0033 0.8796 0.3763
H3G H -0.0033 1.1204 0.3763
C7B C 0.0661(10) 0.7138(9) 1.0006(11)
C7C C -0.0661(10) 0.2862(9) 1.0006(11)
C7A C 0.0661(10) 0.2862(9) 0.9994(11)
C7I C 0.2862(9) 0.9994(11) 1.0661(10)
C7K C 0.2862(9) 1.0006(11) 0.9339(10)
C7H C 0.7138(9) 0.9994(11) 0.9339(10)
C7J C 0.7138(9) 1.0006(11) 1.0661(10)
C7F C 0.0006(11) 1.0661(10) 0.7138(9)
C7D C -0.0006(11) 0.9339(10) 0.7138(9)
C7G C 0.0006(11) 0.9339(10) 0.2862(9)
C7E C -0.0006(11) 1.0661(10) 0.2862(9)
H4B H -0.1050 0.7448 0.9993
H4A H -0.1050 0.2552 1.0007
H4C H 0.1050 0.2552 0.9993
H4K H 0.2552 0.9993 1.1050
H4I H 0.2552 1.0007 0.8950
H4J H 0.7448 0.9993 0.8950
H4H H 0.7448 1.0007 1.1050
H4D H 0.0007 1.1050 0.7448
H4F H -0.0007 0.8950 0.7448
H4E H 0.0007 0.8950 0.2552
H4G H -0.0007 1.1050 0.2552
C8A C 0.0325(4) 0.4794(4) 0.9944(5)
C8B C 0.0325(4) 0.5206(4) 1.0056(5)
C8C C -0.0325(4) 0.4794(4) 1.0056(5)
C8I C 0.4794(4) 0.9944(5) 1.0325(4)
C8K C 0.4794(4) 1.0056(5) 0.9675(4)
C8J C 0.5206(4) 1.0056(5) 1.0325(4)
C8F C 0.0056(5) 1.0325(4) 0.5206(4)
C8D C -0.0056(5) 0.9675(4) 0.5206(4)
C8E C -0.0056(5) 1.0325(4) 0.4794(4)
N1H N 0.5206(4) 0.9944(5) 0.9675(4)
N1G N 0.0056(5) 0.9675(4) 0.4794(4)
H5A H -0.0034 0.5085 0.9877
H5B H -0.0034 0.4915 1.0123
H5C H 0.0034 0.5085 1.0123
H5I H 0.5085 0.9877 0.9966
H5H H 0.4915 0.9877 1.0034
H5K H 0.5085 1.0123 1.0034
H5J H 0.4915 1.0123 0.9966
H5F H 0.0123 0.9966 0.4915
H5G H 0.0123 1.0034 0.5085
H5D H -0.0123 1.0034 0.4915
H5E H -0.0123 0.9966 0.5085
O2B O -0.03611(13) 0.84689(12) 1.04148(13)
O2I O 0.15311(12) 0.95852(13) 0.96389(13)
O2F O 0.04148(13) 0.96389(13) 0.84689(12)
O2C O 0.03611(13) 0.15311(12) 1.04148(13)
O2A O -0.03611(13) 0.15311(12) 0.95852(13)
O2K O 0.15311(12) 1.04148(13) 1.03611(13)
O2H O 0.84689(12) 0.95852(13) 1.03611(13)
O2J O 0.84689(12) 1.04148(13) 0.96389(13)
O2D O -0.04148(13) 1.03611(13) 0.84689(12)
O2G O 0.04148(13) 1.03611(13) 0.15311(12)
O2E O -0.04148(13) 0.96389(13) 0.15311(12)
O2E_2 O -0.04148(13) 0.96389(13) 1.15311(12)
O2H_2 O -0.15311(12) 0.95852(13) 1.03611(13)
O2A_2 O -0.03611(13) 1.15311(12) 0.95852(13)
O2J_2 O -0.15311(12) 1.04148(13) 0.96389(13)
O3A O 0.0858(4) 0.5000 1.0000
O3I O 0.5000 1.0000 1.0858(4)
O3H O 0.5000 1.0000 0.9142(4)
O3E O -0.0000 1.0858(4) 0.5000
O3D O -0.0000 0.9142(4) 0.5000
Zn1A Zn -0.05881(2) 1.05881(2) 0.94119(2)
Zn1B Zn -0.05881(2) 0.94119(2) 1.05881(2)
Zn1C Zn 0.05881(2) 1.05881(2) 1.05881(2)
Zn1C_2 Zn 0.05881(2) 0.05881(2) 1.05881(2)
Zn1A_2 Zn -0.05881(2) 0.05881(2) 0.94119(2)
Zn1B_2 Zn 0.94119(2) 0.94119(2) 1.05881(2)
Zn1A_3 Zn 0.94119(2) 1.05881(2) 0.94119(2)
Zn1C_3 Zn 0.05881(2) 1.05881(2) 0.05881(2)
Zn1B_3 Zn -0.05881(2) 0.94119(2) 0.05881(2)
loop_
_geom_bond_atom_site_label_1
_geom_bond_atom_site_label_2
_geom_bond_site_symmetry_1
_geom_bond_site_symmetry_2
C1 C2 1_555 1_555
C2 C3 1_555 1_555
C3 H1 1_555 1_555
H1 H4 1_555 1_555
C4 C3 1_555 1_555
H2 C4 1_555 1_555
C5 C4 1_555 1_555
C6 C3 1_555 1_555
H3 C6 1_555 1_555
C7 C2 1_555 1_555
H4 C7B 1_555 1_555
C8 C5 1_555 1_555
N1 C5 1_555 1_555
H5 C8 1_555 1_555
O1 Zn1 1_555 1_555
O2 C1 1_555 1_555
O3 C8 1_555 1_555
O4 H6 1_555 1_555
H7 O4 1_555 1_555
O5 H8 1_555 1_555
H9 O5 1_555 1_555
O6 H10 1_555 1_555
H11 O6 1_555 1_555
O7 H12 1_555 1_555
H13 O7 1_555 1_555
O8 H14 1_555 1_555
H15 O8 1_555 1_555
O9 H16 1_555 1_555
H17 O9 1_555 1_555
O10 H18 1_555 1_555
H19 O10 1_555 1_555
Zn1 O2 1_555 1_555
C1A C2A 1_555 1_555
C1I C2I 1_555 1_555
C1H C2H 1_555 1_555
C1D C2D 1_555 1_555
C1E C2E 1_555 1_555
C2A C3C 1_555 1_555
C2I C3I 1_555 1_555
C2H C3H 1_555 1_555
C2D C3F 1_555 1_555
C2E C3G 1_555 1_555
C3B C2 1_555 1_555
C3C H1C 1_555 1_555
C3A C2A 1_555 1_555
C3I H1I 1_555 1_555
C3K C2I 1_555 1_555
C3H H1H 1_555 1_555
C3J C2H 1_555 1_555
C3F H1F 1_555 1_555
C3D C2D 1_555 1_555
C3G H1G 1_555 1_555
C3E C2E 1_555 1_555
H1B C7 1_555 1_555
H1C C7A 1_555 1_555
H1A C3A 1_555 1_555
H1I C7K 1_555 1_555
H1K C3K 1_555 1_555
H1H C7J 1_555 1_555
H1J C3J 1_555 1_555
H1F C7D 1_555 1_555
H1D C3D 1_555 1_555
H1G C7E 1_555 1_555
H1E C3E 1_555 1_555
C4B C4 1_555 1_555
C4C C3C 1_555 1_555
C4A C3A 1_555 1_555
C4I C3I 1_555 1_555
C4K C3K 1_555 1_555
C4H C3H 1_555 1_555
C4J C3J 1_555 1_555
C4F C3F 1_555 1_555
C4D C3D 1_555 1_555
C4G C3G 1_555 1_555
C4E C3E 1_555 1_555
H2B C5 1_555 1_555
H2A C4A 1_555 1_555
H2C C4C 1_555 1_555
H2I C4I 1_555 1_555
H2K C4K 1_555 1_555
H2J C4J 1_555 1_555
H2H C4H 1_555 1_555
H2F C4F 1_555 1_555
H2D C4D 1_555 1_555
H2E C4E 1_555 1_555
H2G C4G 1_555 1_555
C5B C4 1_555 1_555
C5C C4C 1_555 1_555
C5A C4C 1_555 1_555
C5I C4I 1_555 1_555
C5K C4I 1_555 1_555
C5H C4H 1_555 1_555
C5J C4H 1_555 1_555
C5F C4F 1_555 1_555
C5D C4F 1_555 1_555
C5G C4G 1_555 1_555
C5E C4G 1_555 1_555
C6B C5 1_555 1_555
C6A C3A 1_555 1_555
C6C C3C 1_555 1_555
C6I C3I 1_555 1_555
C6K C3K 1_555 1_555
C6J C3J 1_555 1_555
C6H C3H 1_555 1_555
C6F C3F 1_555 1_555
C6D C3D 1_555 1_555
C6E C3E 1_555 1_555
C6G C3G 1_555 1_555
H3B C6B 1_555 1_555
H3A C6A 1_555 1_555
H3C C6C 1_555 1_555
H3I C6I 1_555 1_555
H3K C6K 1_555 1_555
H3J C6J 1_555 1_555
H3H C6H 1_555 1_555
H3F C6F 1_555 1_555
H3D C6D 1_555 1_555
H3E C6E 1_555 1_555
H3G C6G 1_555 1_555
C7B C2 1_555 1_555
C7C C2A 1_555 1_555
C7A C2A 1_555 1_555
C7I C2I 1_555 1_555
C7K C2I 1_555 1_555
C7H C2H 1_555 1_555
C7J C2H 1_555 1_555
C7F C2D 1_555 1_555
C7D C2D 1_555 1_555
C7G C2E 1_555 1_555
C7E C2E 1_555 1_555
H4B C7 1_555 1_555
H4A H1A 1_555 1_555
H4C H1C 1_555 1_555
H4K H1K 1_555 1_555
H4I H1I 1_555 1_555
H4J H1J 1_555 1_555
H4H H1H 1_555 1_555
H4D H1D 1_555 1_555
H4F H1F 1_555 1_555
H4E H1E 1_555 1_555
H4G H1G 1_555 1_555
C8A C8 1_555 1_555
C8B C8 1_555 1_555
C8C C8 1_555 1_555
C8I C5I 1_555 1_555
C8K C5K 1_555 1_555
C8J C5J 1_555 1_555
C8F C5F 1_555 1_555
C8D C5D 1_555 1_555
C8E C5E 1_555 1_555
N1H C5H 1_555 1_555
N1G C5G 1_555 1_555
H5A C8 1_555 1_555
H5B C8 1_555 1_555
H5C C8 1_555 1_555
H5I C8I 1_555 1_555
H5H C8I 1_555 1_555
H5K C8I 1_555 1_555
H5J C8I 1_555 1_555
H5F C8F 1_555 1_555
H5G C8F 1_555 1_555
H5D C8F 1_555 1_555
H5E C8F 1_555 1_555
O2B C1 1_555 1_555
O2I Zn1 1_555 1_555
O2F Zn1 1_555 1_555
O2C C1A 1_555 1_555
O2A C1A 1_555 1_555
O2K C1I 1_555 1_555
O2H C1H 1_555 1_555
O2J C1H 1_555 1_555
O2D C1D 1_555 1_555
O2G C1E 1_555 1_555
O2E C1E 1_555 1_555
O2E_2 Zn1B 1_555 1_555
O2H_2 Zn1B 1_555 1_555
O2A_2 Zn1A 1_555 1_555
O2J_2 Zn1A 1_555 1_555
O3A C8A 1_555 1_555
O3I C8I 1_555 1_555
O3H C8K 1_555 1_555
O3E C8F 1_555 1_555
O3D C8D 1_555 1_555
Zn1A O1 1_555 1_555
Zn1B O1 1_555 1_555
Zn1C O1 1_555 1_555
Zn1C_2 O2C 1_555 1_555
Zn1A_2 O2A 1_555 1_555
Zn1B_2 O2H 1_555 1_555
Zn1A_3 O2J 1_555 1_555
Zn1C_3 O2G 1_555 1_555
Zn1B_3 O2E 1_555 1_555
C3 C7B 1_555 1_555
H1 C7B 1_555 1_555
C4 C6 1_555 1_555
H2 C6 1_555 1_555
H2 C5B 1_555 1_555
C5 C4B 1_555 1_555
C5 C5B 1_555 1_555
C6 C5B 1_555 1_555
C6 C7B 1_555 1_555
C7 C3B 1_555 1_555
C7 C6B 1_555 1_555
N1 H5 1_555 1_555
N1 O3 1_555 1_555
N1 C8A 1_555 1_555
N1 C8B 1_555 1_555
N1 C8C 1_555 1_555
N1 H5A 1_555 1_555
N1 H5B 1_555 1_555
N1 H5C 1_555 1_555
H5 C8A 1_555 1_555
H5 C8B 1_555 1_555
H5 C8C 1_555 1_555
H5 H5A 1_555 1_555
H5 H5B 1_555 1_555
H5 H5C 1_555 1_555
O3 C8C 1_555 1_555
C1I O2I 1_555 1_555
C1D O2F 1_555 1_555
C3B H1B 1_555 1_555
C3B C4B 1_555 1_555
C3B C6B 1_555 1_555
C3C C7A 1_555 1_555
C3A C7C 1_555 1_555
C3I C7K 1_555 1_555
C3K C7I 1_555 1_555
C3H C7J 1_555 1_555
C3J C7H 1_555 1_555
C3F C7D 1_555 1_555
C3D C7F 1_555 1_555
C3G C7E 1_555 1_555
C3E C7G 1_555 1_555
H1B H4B 1_555 1_555
H1A C7C 1_555 1_555
H1K C7I 1_555 1_555
H1J C7H 1_555 1_555
H1D C7F 1_555 1_555
H1E C7G 1_555 1_555
C4B H2B 1_555 1_555
C4B C5B 1_555 1_555
C4B C6B 1_555 1_555
C4C C4A 1_555 1_555
C4C C6C 1_555 1_555
C4A C5C 1_555 1_555
C4A C5A 1_555 1_555
C4A C6A 1_555 1_555
C4I C4K 1_555 1_555
C4I C6I 1_555 1_555
C4K C5I 1_555 1_555
C4K C5K 1_555 1_555
C4K C6K 1_555 1_555
C4H C4J 1_555 1_555
C4H C6H 1_555 1_555
C4J C5H 1_555 1_555
C4J C5J 1_555 1_555
C4J C6J 1_555 1_555
C4F C4D 1_555 1_555
C4F C6F 1_555 1_555
C4D C5F 1_555 1_555
C4D C5D 1_555 1_555
C4D C6D 1_555 1_555
C4G C4E 1_555 1_555
C4G C6G 1_555 1_555
C4E C5G 1_555 1_555
C4E C5E 1_555 1_555
C4E C6E 1_555 1_555
H2B C6B 1_555 1_555
H2A C5C 1_555 1_555
H2A C6A 1_555 1_555
H2C C5A 1_555 1_555
H2C C6C 1_555 1_555
H2I C5K 1_555 1_555
H2I C6I 1_555 1_555
H2K C5I 1_555 1_555
H2K C6K 1_555 1_555
H2J C5H 1_555 1_555
H2J C6J 1_555 1_555
H2H C5J 1_555 1_555
H2H C6H 1_555 1_555
H2F C5D 1_555 1_555
H2F C6F 1_555 1_555
H2D C5F 1_555 1_555
H2D C6D 1_555 1_555
H2E C5G 1_555 1_555
H2E C6E 1_555 1_555
H2G C5E 1_555 1_555
H2G C6G 1_555 1_555
C5B C8B 1_555 1_555
C5C C5A 1_555 1_555
C5C C6A 1_555 1_555
C5C C8C 1_555 1_555
C5A C6C 1_555 1_555
C5A C8A 1_555 1_555
C5I C5K 1_555 1_555
C5I C6K 1_555 1_555
C5K C6I 1_555 1_555
C5H C5J 1_555 1_555
C5H C6J 1_555 1_555
C5J C6H 1_555 1_555
C5F C5D 1_555 1_555
C5F C6D 1_555 1_555
C5D C6F 1_555 1_555
C5G C5E 1_555 1_555
C5G C6E 1_555 1_555
C5E C6G 1_555 1_555
C6A C7C 1_555 1_555
C6C C7A 1_555 1_555
C6I C7K 1_555 1_555
C6K C7I 1_555 1_555
C6J C7H 1_555 1_555
C6H C7J 1_555 1_555
C6F C7D 1_555 1_555
C6D C7F 1_555 1_555
C6E C7G 1_555 1_555
C6G C7E 1_555 1_555
C7C H4A 1_555 1_555
C7A H4C 1_555 1_555
C7I H4K 1_555 1_555
C7K H4I 1_555 1_555
C7H H4J 1_555 1_555
C7J H4H 1_555 1_555
C7F H4D 1_555 1_555
C7D H4F 1_555 1_555
C7G H4E 1_555 1_555
C7E H4G 1_555 1_555
C8A C8B 1_555 1_555
C8A C8C 1_555 1_555
C8A H5A 1_555 1_555
C8A H5B 1_555 1_555
C8A H5C 1_555 1_555
C8B C8C 1_555 1_555
C8B H5A 1_555 1_555
C8B H5B 1_555 1_555
C8B H5C 1_555 1_555
C8B O3A 1_555 1_555
C8C H5A 1_555 1_555
C8C H5B 1_555 1_555
C8C H5C 1_555 1_555
C8I C8K 1_555 1_555
C8I C8J 1_555 1_555
C8I N1H 1_555 1_555
C8K C8J 1_555 1_555
C8K N1H 1_555 1_555
C8K H5I 1_555 1_555
C8K H5H 1_555 1_555
C8K H5K 1_555 1_555
C8K H5J 1_555 1_555
C8J N1H 1_555 1_555
C8J H5I 1_555 1_555
C8J H5H 1_555 1_555
C8J H5K 1_555 1_555
C8J H5J 1_555 1_555
C8J O3I 1_555 1_555
C8F C8D 1_555 1_555
C8F C8E 1_555 1_555
C8F N1G 1_555 1_555
C8D C8E 1_555 1_555
C8D N1G 1_555 1_555
C8D H5F 1_555 1_555
C8D H5G 1_555 1_555
C8D H5D 1_555 1_555
C8D H5E 1_555 1_555
C8E N1G 1_555 1_555
C8E H5F 1_555 1_555
C8E H5G 1_555 1_555
C8E H5D 1_555 1_555
C8E H5E 1_555 1_555
C8E O3E 1_555 1_555
N1H H5I 1_555 1_555
N1H H5H 1_555 1_555
N1H H5K 1_555 1_555
N1H H5J 1_555 1_555
N1H O3H 1_555 1_555
N1G H5F 1_555 1_555
N1G H5G 1_555 1_555
N1G H5D 1_555 1_555
N1G H5E 1_555 1_555
N1G O3D 1_555 1_555
H5A H5B 1_555 1_555
H5A H5C 1_555 1_555
H5B H5C 1_555 1_555
H5I H5H 1_555 1_555
H5I H5K 1_555 1_555
H5I H5J 1_555 1_555
H5H H5K 1_555 1_555
H5H H5J 1_555 1_555
H5K H5J 1_555 1_555
H5F H5G 1_555 1_555
H5F H5D 1_555 1_555
H5F H5E 1_555 1_555
H5G H5D 1_555 1_555
H5G H5E 1_555 1_555
H5D H5E 1_555 1_555
O2B Zn1B 1_555 1_555
O2K Zn1C 1_555 1_555
O2D Zn1A 1_555 1_555

#END
