
#######################################################################
#
#                 Cambridge Crystallographic Data Centre
#                                CCDC 
#
#######################################################################
#
# If this CIF has been generated from an entry in the Cambridge 
# Structural Database, then it will include bibliographic, chemical, 
# crystal, experimental, refinement or atomic coordinate data resulting 
# from the CCDC's data processing and validation procedures.
#
#######################################################################

data_RISBIG
_chemical_formula_moiety         '(C37 H28 N4 O4 Zn1)n'
_symmetry_cell_setting           orthorhombic
_symmetry_space_group_name_H-M   'P b c a'
_symmetry_Int_Tables_number      61
_space_group_name_Hall           '-P 2ac 2ab'
loop_
_symmetry_equiv_pos_site_id
_symmetry_equiv_pos_as_xyz
1 x,y,z
2 1/2-x,-y,1/2+z
3 -x,1/2+y,1/2-z
4 1/2+x,1/2-y,-z
5 -x,-y,-z
6 1/2+x,y,1/2-z
7 x,1/2-y,1/2+z
8 1/2-x,1/2+y,z
_cell_length_a                   12.0822(8)
_cell_length_b                   23.6760(16)
_cell_length_c                   29.4806(19)
_cell_angle_alpha                90
_cell_angle_beta                 90
_cell_angle_gamma                90
_cell_volume                     8433.17
loop_
_atom_site_label
_atom_site_type_symbol
_atom_site_fract_x
_atom_site_fract_y
_atom_site_fract_z
_atom_site_U_iso_or_equiv
_atom_site_thermal_displace_type
O1 O -0.5933(4) 0.23691(19) -0.01922(18) 0.0683 Uani
O2 O -0.3003(4) 0.18787(19) -0.01563(16) 0.0657 Uani
C1 C -0.5404(6) 0.2195(3) 0.0129(3) 0.0656 Uani
N1 N 0.5867(4) -0.12845(19) 0.44100(15) 0.0463 Uani
C2 C 0.6507(6) -0.1388(3) 0.4063(2) 0.0780 Uani
H1 H 0.6988 -0.1694 0.4081 0.0940 Uiso
C3 C 0.5172(6) -0.0863(3) 0.4365(2) 0.0707 Uani
H2 H 0.4697 -0.0783 0.4605 0.0850 Uiso
Zn1 Zn -0.09673(6) 0.17757(3) -0.00116(2) 0.0479 Uani
N2 N 0.0401(4) 0.1535(2) 0.03721(15) 0.0490 Uani
O3 O -0.2133(4) 0.1409(2) 0.03776(14) 0.0667 Uani
C4 C 0.5794(4) -0.0262(2) 0.32104(18) 0.0450 Uani
N3 N 0.5908(4) 0.0856(2) 0.20976(17) 0.0617 Uani
C5 C -0.3022(5) 0.1581(3) 0.0193(2) 0.0533 Uani
C6 C 0.5802(4) -0.0627(2) 0.36193(18) 0.0437 Uani
C7 C 0.3865(5) 0.1630(3) 0.13963(18) 0.0490 Uani
H3 H 0.3756 0.1996 0.1291 0.0590 Uiso
C8 C 0.5855(4) 0.0472(3) 0.24664(19) 0.0500 Uani
C9 C 0.8739(5) 0.1837(3) 0.1829(2) 0.0573 Uani
C10 C 0.2168(4) 0.1324(2) 0.09716(18) 0.0443 Uani
C11 C 0.3120(4) 0.1211(3) 0.12781(18) 0.0467 Uani
C12 C 0.6896(5) 0.1169(3) 0.20156(19) 0.0527 Uani
C13 C 0.4959(4) 0.0976(3) 0.18271(19) 0.0513 Uani
C14 C 0.2181(5) 0.1769(3) 0.06670(19) 0.0500 Uani
H4 H 0.2786 0.2012 0.0657 0.0600 Uiso
C15 C 0.1302(5) 0.1854(3) 0.0379(2) 0.0540 Uani
H5 H 0.1342 0.2155 0.0176 0.0650 Uiso
C16 C 0.6695(5) -0.0249(3) 0.2919(2) 0.0533 Uani
H6 H 0.7289 -0.0489 0.2972 0.0640 Uiso
C17 C 0.4940(5) 0.0454(3) 0.2746(2) 0.0563 Uani
H7 H 0.4338 0.0687 0.2687 0.0680 Uiso
C18 C 0.4217(5) 0.0558(3) 0.1717(2) 0.0643 Uani
H8 H 0.4324 0.0194 0.1827 0.0770 Uiso
C19 C 0.4913(5) 0.0092(2) 0.3112(2) 0.0533 Uani
H9 H 0.4290 0.0085 0.3297 0.0640 Uiso
C20 C 0.4764(5) 0.1514(3) 0.16669(18) 0.0503 Uani
H10 H 0.5250 0.1804 0.1743 0.0610 Uiso
C21 C 0.1226(5) 0.0992(3) 0.0967(2) 0.0623 Uani
H11 H 0.1164 0.0691 0.1167 0.0750 Uiso
C22 C 0.8369(5) 0.1757(3) 0.2270(2) 0.0597 Uani
H12 H 0.8748 0.1929 0.2507 0.0720 Uiso
C23 C 0.6729(5) 0.0113(3) 0.2553(2) 0.0580 Uani
H13 H 0.7345 0.0115 0.2364 0.0690 Uiso
C24 C 0.3314(5) 0.0675(3) 0.1446(2) 0.0607 Uani
H14 H 0.2823 0.0386 0.1375 0.0730 Uiso
C25 C -0.4102(5) 0.1417(3) 0.0410(2) 0.0653 Uani
H15 H -0.4095 0.1013 0.0465 0.0780 Uiso
H16 H -0.4156 0.1603 0.0702 0.0780 Uiso
C26 C 0.9722(5) 0.2188(3) 0.1725(2) 0.0637 Uani
C27 C 0.8184(5) 0.1561(3) 0.1489(2) 0.0677 Uani
H17 H 0.8425 0.1602 0.1191 0.0820 Uiso
C28 C 0.7453(5) 0.1430(3) 0.2365(2) 0.0580 Uani
H18 H 0.7215 0.1386 0.2663 0.0700 Uiso
C29 C -0.5112(5) 0.1561(3) 0.0137(3) 0.0683 Uani
H19 H -0.5738 0.1353 0.0259 0.0820 Uiso
H20 H -0.4999 0.1434 -0.0173 0.0820 Uiso
C30 C 0.5105(6) -0.0534(3) 0.3984(2) 0.0730 Uani
H21 H 0.4586 -0.0244 0.3971 0.0870 Uiso
C31 C 0.0381(5) 0.1104(3) 0.0669(2) 0.0627 Uani
H22 H -0.0237 0.0870 0.0672 0.0750 Uiso
C32 C 0.6510(6) -0.1070(3) 0.3672(2) 0.0783 Uani
H23 H 0.7002 -0.1160 0.3440 0.0940 Uiso
C33 C 0.7287(5) 0.1229(3) 0.1576(2) 0.0633 Uani
H24 H 0.6935 0.1042 0.1339 0.0760 Uiso
N4 N 1.1575(7) 0.2863(4) 0.1525(3) 0.1093 Uani
C34 C 1.0743(8) 0.2800(4) 0.1239(3) 0.1003 Uani
H25 H 1.0779 0.2990 0.0963 0.1210 Uiso
C35 C 0.9829(6) 0.2472(3) 0.1322(3) 0.0817 Uani
H26 H 0.9277 0.2442 0.1103 0.0980 Uiso
C36 C 1.1481(7) 0.2577(4) 0.1909(3) 0.1083 Uani
H27 H 1.2057 0.2604 0.2117 0.1300 Uiso
C37 C 1.0590(6) 0.2241(4) 0.2021(3) 0.0897 Uani
H28 H 1.0577 0.2052 0.2297 0.1080 Uiso
O4 O -0.5109(4) 0.24903(19) 0.04231(17) 0.0729 Uani
O1C O -0.0933(4) 0.26309(19) 0.01922(18) 0.0683 Uani
N1A N -0.0867(4) 0.12845(19) -0.05900(15) 0.0463 Uani
Zn1A Zn 0.59673(6) -0.17757(3) 0.49884(2) 0.0479 Uani
Zn1C Zn -0.59673(6) 0.32243(3) 0.00116(2) 0.0479 Uani
O4C O -0.0109(4) 0.25097(19) -0.04231(17) 0.0729 Uani
loop_
_atom_site_aniso_label
_atom_site_aniso_U_11
_atom_site_aniso_U_22
_atom_site_aniso_U_33
_atom_site_aniso_U_23
_atom_site_aniso_U_13
_atom_site_aniso_U_12
O1 0.0563 0.06 0.0886 0.0027 0.0097 -0.0052
O2 0.063(3) 0.069(3) 0.065(3) 0.011(2) 0.016(2) 0.013(2)
C1 0.0552 0.0604 0.0811 0.0025 0.0123 -0.0064
N1 0.048(3) 0.046(3) 0.045(3) 0.004(2) 0.008(2) 0.007(2)
C2 0.084(5) 0.090(5) 0.060(4) 0.023(4) 0.024(4) 0.048(4)
C3 0.069(4) 0.083(5) 0.060(4) 0.022(4) 0.029(3) 0.027(4)
Zn1 0.0473(4) 0.0555(4) 0.0409(4) -0.0015(3) -0.0105(3) 0.0061(3)
N2 0.046(3) 0.055(3) 0.046(3) 0.008(2) -0.012(2) 0.001(2)
O3 0.053(3) 0.090(3) 0.057(3) 0.004(2) -0.008(2) 0.003(2)
C4 0.043(3) 0.052(3) 0.040(3) 0.002(2) -0.003(2) 0.001(3)
N3 0.040(3) 0.091(4) 0.054(3) 0.029(3) -0.014(2) -0.011(3)
C5 0.056(4) 0.055(4) 0.049(3) -0.009(3) 0.001(3) 0.004(3)
C6 0.043(3) 0.048(3) 0.040(3) 0.002(2) 0.000(2) 0.003(3)
C7 0.042(3) 0.063(4) 0.042(3) 0.012(3) -0.004(2) -0.002(3)
C8 0.038(3) 0.066(4) 0.046(3) 0.013(3) -0.012(3) -0.004(3)
C9 0.043(3) 0.076(4) 0.053(4) 0.017(3) -0.001(3) -0.005(3)
C10 0.035(3) 0.055(3) 0.043(3) 0.007(3) -0.004(2) -0.001(3)
C11 0.035(3) 0.064(4) 0.041(3) 0.013(3) -0.001(2) -0.004(3)
C12 0.036(3) 0.076(4) 0.046(3) 0.019(3) -0.007(3) -0.001(3)
C13 0.034(3) 0.075(4) 0.045(3) 0.013(3) -0.009(2) -0.004(3)
C14 0.035(3) 0.061(4) 0.054(3) 0.012(3) -0.006(3) -0.006(3)
C15 0.049(3) 0.060(4) 0.053(4) 0.020(3) -0.009(3) -0.003(3)
C16 0.044(3) 0.063(4) 0.053(3) 0.011(3) -0.006(3) 0.007(3)
C17 0.041(3) 0.069(4) 0.059(4) 0.018(3) -0.006(3) 0.005(3)
C18 0.056(4) 0.067(4) 0.070(4) 0.024(3) -0.022(3) -0.003(3)
C19 0.045(3) 0.064(4) 0.051(3) 0.009(3) 0.002(3) 0.006(3)
C20 0.041(3) 0.067(4) 0.043(3) 0.008(3) -0.003(3) -0.012(3)
C21 0.045(3) 0.071(4) 0.071(4) 0.035(3) -0.016(3) -0.012(3)
C22 0.049(4) 0.083(5) 0.047(3) 0.011(3) -0.008(3) -0.006(3)
C23 0.040(3) 0.082(4) 0.052(3) 0.012(3) 0.000(3) -0.005(3)
C24 0.052(4) 0.065(4) 0.065(4) 0.018(3) -0.022(3) -0.013(3)
C25 0.065(4) 0.065(4) 0.066(4) 0.007(3) 0.014(3) 0.003(3)
C26 0.054(4) 0.077(4) 0.060(4) 0.014(3) 0.003(3) -0.002(3)
C27 0.050(4) 0.112(6) 0.041(3) 0.015(4) 0.006(3) -0.006(4)
C28 0.045(3) 0.086(5) 0.043(3) 0.016(3) -0.002(3) -0.006(3)
C29 0.049(4) 0.058(4) 0.098(5) 0.007(4) 0.009(4) 0.004(3)
C30 0.065(4) 0.083(5) 0.071(4) 0.025(4) 0.021(4) 0.033(4)
C31 0.049(4) 0.065(4) 0.074(4) 0.020(3) -0.017(3) -0.011(3)
C32 0.080(5) 0.104(6) 0.051(4) 0.022(4) 0.026(4) 0.045(4)
C33 0.047(4) 0.098(5) 0.045(3) 0.008(3) -0.004(3) -0.007(4)
N4 0.095(6) 0.130(7) 0.103(6) 0.016(5) 0.014(5) -0.039(5)
C34 0.094(7) 0.120(7) 0.087(6) 0.026(5) 0.017(5) -0.021(6)
C35 0.074(5) 0.103(6) 0.068(5) 0.021(4) 0.012(4) -0.015(4)
C36 0.077(6) 0.146(9) 0.102(7) 0.018(6) -0.009(5) -0.037(6)
C37 0.064(5) 0.116(7) 0.089(6) 0.024(5) -0.009(4) -0.021(5)
O4 0.0701 0.0642 0.0843 0.0016 0.0209 -0.0047
O1C 0.0563 0.06 0.0886 0.0027 -0.0097 0.0052
N1A 0.048 0.046 0.045 -0.004 -0.008 0.007
Zn1A 0.0473 0.0555 0.0409 0.0015 0.0105 0.0061
Zn1C 0.0473 0.0555 0.0409 -0.0015 0.0105 -0.0061
O4C 0.0701 0.0642 0.0843 0.0016 -0.0209 0.0047
loop_
_geom_bond_atom_site_label_1
_geom_bond_atom_site_label_2
_geom_bond_site_symmetry_1
_geom_bond_site_symmetry_2
O1 C1 1_555 1_555
O2 Zn1 1_555 1_555
C1 C29 1_555 1_555
N1 C2 1_555 1_555
C2 H1 1_555 1_555
C3 N1 1_555 1_555
H2 C3 1_555 1_555
Zn1 N2 1_555 1_555
N2 C15 1_555 1_555
O3 Zn1 1_555 1_555
C4 C6 1_555 1_555
N3 C8 1_555 1_555
C5 O2 1_555 1_555
C6 C30 1_555 1_555
C7 H3 1_555 1_555
C8 C17 1_555 1_555
C9 C22 1_555 1_555
C10 C11 1_555 1_555
C11 C7 1_555 1_555
C12 N3 1_555 1_555
C13 N3 1_555 1_555
C14 C10 1_555 1_555
H4 C14 1_555 1_555
C15 C14 1_555 1_555
H5 C15 1_555 1_555
C16 C4 1_555 1_555
H6 C16 1_555 1_555
C17 H7 1_555 1_555
C18 C13 1_555 1_555
H8 C18 1_555 1_555
C19 C4 1_555 1_555
H9 C19 1_555 1_555
C20 C7 1_555 1_555
H10 C20 1_555 1_555
C21 C10 1_555 1_555
H11 C21 1_555 1_555
C22 H12 1_555 1_555
C23 C8 1_555 1_555
H13 C23 1_555 1_555
C24 C11 1_555 1_555
H14 C24 1_555 1_555
C25 C5 1_555 1_555
H15 C25 1_555 1_555
H16 C25 1_555 1_555
C26 C9 1_555 1_555
C27 C9 1_555 1_555
H17 C27 1_555 1_555
C28 C12 1_555 1_555
H18 C28 1_555 1_555
C29 C25 1_555 1_555
H19 C29 1_555 1_555
H20 C29 1_555 1_555
C30 C3 1_555 1_555
H21 C30 1_555 1_555
C31 N2 1_555 1_555
H22 C31 1_555 1_555
C32 C2 1_555 1_555
H23 C32 1_555 1_555
C33 C12 1_555 1_555
H24 C33 1_555 1_555
N4 C34 1_555 1_555
C34 H25 1_555 1_555
C35 C26 1_555 1_555
H26 C35 1_555 1_555
C36 N4 1_555 1_555
H27 C36 1_555 1_555
C37 C26 1_555 1_555
H28 C37 1_555 1_555
O4 C1 1_555 1_555
O1C Zn1 1_555 1_555
N1A Zn1 1_555 1_555
Zn1A N1 1_555 1_555
Zn1C O1 1_555 1_555
O4C Zn1 1_555 1_555
O3 C5 1_555 1_555
C6 C32 1_555 1_555
C13 C20 1_555 1_555
C16 C23 1_555 1_555
C17 C19 1_555 1_555
C18 C24 1_555 1_555
C21 C31 1_555 1_555
C22 C28 1_555 1_555
C27 C33 1_555 1_555
C34 C35 1_555 1_555
C36 C37 1_555 1_555
O4 Zn1C 1_555 1_555

#END
