
#######################################################################
#
#                 Cambridge Crystallographic Data Centre
#                                CCDC 
#
#######################################################################
#
# If this CIF has been generated from an entry in the Cambridge 
# Structural Database, then it will include bibliographic, chemical, 
# crystal, experimental, refinement or atomic coordinate data resulting 
# from the CCDC's data processing and validation procedures.
#
#######################################################################

data_OJONOQ
_chemical_formula_moiety         '(C6 H24 Er2 O24)n'
_symmetry_cell_setting           rhombohedral
_symmetry_space_group_name_H-M   'R -3'
_symmetry_Int_Tables_number      148
_space_group_name_Hall           '-R 3'
loop_
_symmetry_equiv_pos_site_id
_symmetry_equiv_pos_as_xyz
1 x,y,z
2 -y,x-y,z
3 -x+y,-x,z
4 2/3+x,1/3+y,1/3+z
5 2/3-y,1/3+x-y,1/3+z
6 2/3-x+y,1/3-x,1/3+z
7 1/3+x,2/3+y,2/3+z
8 1/3-y,2/3+x-y,2/3+z
9 1/3-x+y,2/3-x,2/3+z
10 -x,-y,-z
11 y,-x+y,-z
12 x-y,x,-z
13 1/3-x,2/3-y,2/3-z
14 1/3+y,2/3-x+y,2/3-z
15 1/3+x-y,2/3+x,2/3-z
16 2/3-x,1/3-y,1/3-z
17 2/3+y,1/3-x+y,1/3-z
18 2/3+x-y,1/3+x,1/3-z
_cell_length_a                   30.8690(10)
_cell_length_b                   30.8690(10)
_cell_length_c                   7.2307(2)
_cell_angle_alpha                90
_cell_angle_beta                 90
_cell_angle_gamma                120
_cell_volume                     5967
loop_
_atom_site_label
_atom_site_type_symbol
_atom_site_fract_x
_atom_site_fract_y
_atom_site_fract_z
_atom_site_U_iso_or_equiv
_atom_site_thermal_displace_type
Er1 Er 0.220822(11) 0.110153(11) 0.32744(4) 0.0243 Uani
O1 O 0.16010(17) 0.05263(18) 0.5517(7) 0.0270 Uani
O2 O 0.21246(17) 0.02556(17) 0.3412(7) 0.0266 Uani
O3 O 0.28281(17) 0.10711(17) 0.1256(7) 0.0266 Uani
O4 O 0.36036(17) 0.14583(17) 0.0051(7) 0.0270 Uani
O5 O 0.11962(17) -0.02414(17) 0.6750(7) 0.0258 Uani
O6 O 0.17184(17) -0.05126(18) 0.4625(7) 0.0268 Uani
O7 O 0.27101(18) 0.11114(19) 0.5877(7) 0.0304 Uani
O8 O 0.1668(2) 0.0562(2) 0.0882(7) 0.0341 Uani
O9 O 0.2238(2) 0.16297(19) 0.0734(7) 0.0337 Uani
C1 C 0.3265(2) 0.1434(2) 0.1070(9) 0.0209 Uani
C2 C 0.1506(2) 0.0086(2) 0.5688(9) 0.0229 Uani
C3 C 0.1813(2) -0.0070(2) 0.4453(9) 0.0208 Uani
C1O C 0.3402(2) 0.1899(2) 0.2263(9) 0.0209 Uani
O3O O 0.38386(17) 0.22622(17) 0.2077(7) 0.0266 Uani
O4O O 0.30631(17) 0.18750(17) 0.3282(7) 0.0270 Uani
O1K O 0.10747(25) 0.16010(17) 0.4483(7) 0.0270 Uani
O2K O 0.18690(24) 0.21246(17) 0.6588(7) 0.0266 Uani
O5K O 0.14376(24) 0.11962(17) 0.3250(7) 0.0258 Uani
O6K O 0.22310(25) 0.17184(17) 0.5375(7) 0.0268 Uani
C2K C 0.1420(3) 0.1506(2) 0.4312(9) 0.0229 Uani
C3K C 0.1883(3) 0.1813(2) 0.5547(9) 0.0208 Uani
Er1K Er 0.110669(16) 0.220822(11) 0.67256(4) 0.0243 Uani
O7K O 0.15987(26) 0.27101(18) 0.4123(7) 0.0304 Uani
O8K O 0.1106(3) 0.1668(2) 0.9118(7) 0.0341 Uani
O9K O 0.06083(28) 0.2238(2) 0.9266(7) 0.0337 Uani
Er1O Er 0.445845(11) 0.223180(11) 0.00589(4) 0.0243 Uani
Er1J Er 0.110153(11) -0.110669(16) 0.67256(4) 0.0243 Uani
O3K O 0.17570(24) 0.28281(17) 0.8744(7) 0.0266 Uani
O4H O 0.11880(24) 0.30631(17) 0.6718(7) 0.0270 Uani
O5A O 0.02414(17) 0.14376(24) 0.6750(7) 0.0258 Uani
O6A O 0.05126(18) 0.22310(25) 0.4625(7) 0.0268 Uani
O10 O 0.2427(2) 0.0336(2) 0.8398(8) 0.0388 Uani
O11 O 0.3653(2) 0.1266(2) 0.5184(8) 0.0380 Uani
O12 O 0.0357(2) 0.1219(3) 0.1773(9) 0.0533 Uani
O13 O 0.2839(2) 0.2855(2) 0.7399(10) 0.0517 Uani
O14 O 0.3622(3) 0.0566(2) -0.0091(10) 0.0557 Uani
O15 O 0.0549(6) 0.0331(6) 0.251(6) 0.3324 Uani
loop_
_atom_site_aniso_label
_atom_site_aniso_U_11
_atom_site_aniso_U_22
_atom_site_aniso_U_33
_atom_site_aniso_U_23
_atom_site_aniso_U_13
_atom_site_aniso_U_12
Er1 0.02322(19) 0.01970(18) 0.0304(2) 0.00135(11) 0.00324(12) 0.01096(13)
O1 0.028 0.016 0.037 0.004 0.01 0.011
O2 0.024 0.02 0.037 0.0056 0.009 0.012
O3 0.022(2) 0.017(2) 0.037(3) -0.0018(19) 0.005(2) 0.0069(19)
O4 0.022(2) 0.019(2) 0.038(3) -0.002(2) 0.009(2) 0.0087(19)
O5 0.024 0.02 0.032 0.0051 0.009 0.01
O6 0.026 0.018 0.039 0.004 0.009 0.013
O7 0.025(2) 0.029(3) 0.034(3) 0.007(2) -0.004(2) 0.011(2)
O8 0.040(3) 0.030(3) 0.033(3) -0.004(2) -0.006(2) 0.018(2)
O9 0.037(3) 0.031(3) 0.037(3) 0.015(2) 0.008(2) 0.020(2)
C1 0.020(3) 0.017(3) 0.028(3) 0.002(3) 0.000(3) 0.011(3)
C2 0.022 0.021 0.026 -0.001 0.001 0.011
C3 0.022 0.016 0.025 -0.001 0 0.01
C1O 0.02 0.017 0.028 0.002 0 0.011
O3O 0.022 0.017 0.037 -0.0018 0.005 0.0069
O4O 0.022 0.019 0.038 -0.002 0.009 0.0087
O1K 0.022(2) 0.028(2) 0.037(3) -0.010(2) -0.006(2) 0.017(2)
O2K 0.020(2) 0.024(2) 0.037(3) -0.009(2) -0.0034(19) 0.012(2)
O5K 0.024(2) 0.024(2) 0.032(3) -0.009(2) -0.0039(19) 0.014(2)
O6K 0.018(2) 0.026(2) 0.039(3) -0.009(2) -0.005(2) 0.013(2)
C2K 0.021(3) 0.022(3) 0.026(3) -0.001(3) -0.002(2) 0.011(3)
C3K 0.018(3) 0.022(3) 0.025(3) 0.000(3) -0.001(2) 0.012(3)
Er1K 0.021 0.02322 0.0304 -0.00324 -0.00189 0.01226
O7K 0.032 0.025 0.034 0.004 0.011 0.014
O8K 0.034 0.04 0.033 0.006 0.002 0.022
O9K 0.028 0.037 0.037 -0.008 0.007 0.017
Er1O 0.02322 0.0197 0.0304 0.00135 0.00324 0.01096
Er1J 0.0197 0.021 0.0304 0.00189 -0.00135 0.00874
O3K 0.0252 0.022 0.037 -0.005 -0.0068 0.0151
O4H 0.0236 0.022 0.038 -0.009 -0.011 0.0133
O5A 0.02 0.024 0.032 0.0039 -0.0051 0.01
O6A 0.018 0.018 0.039 0.005 -0.004 0.005
O10 0.039(3) 0.030(3) 0.039(3) -0.001(2) -0.004(2) 0.011(2)
O11 0.029(3) 0.047(3) 0.034(3) -0.004(2) -0.004(2) 0.016(3)
O12 0.036(3) 0.081(5) 0.044(4) -0.009(3) -0.009(3) 0.030(3)
O13 0.030(3) 0.045(4) 0.071(4) -0.011(3) 0.001(3) 0.012(3)
O14 0.067(4) 0.031(3) 0.071(5) 0.007(3) 0.020(4) 0.026(3)
O15 0.111(12) 0.096(12) 0.76(6) -0.07(2) -0.13(2) 0.029(9)
loop_
_geom_bond_atom_site_label_1
_geom_bond_atom_site_label_2
_geom_bond_site_symmetry_1
_geom_bond_site_symmetry_2
Er1 O1 1_555 1_555
O1 C2 1_555 1_555
O2 Er1 1_555 1_555
O3 Er1 1_555 1_555
O4 C1 1_555 1_555
O5 C2 1_555 1_555
O6 C3 1_555 1_555
O7 Er1 1_555 1_555
O8 Er1 1_555 1_555
O9 Er1 1_555 1_555
C1 O3 1_555 1_555
C2 C3 1_555 1_555
C3 O2 1_555 1_555
C1O C1 1_555 1_555
O3O C1O 1_555 1_555
O4O Er1 1_555 1_555
O1K C2K 1_555 1_555
O2K C3K 1_555 1_555
O5K Er1 1_555 1_555
O6K Er1 1_555 1_555
C2K O5K 1_555 1_555
C3K O6K 1_555 1_555
Er1K O1K 1_555 1_555
O7K Er1K 1_555 1_555
O8K Er1K 1_555 1_555
O9K Er1K 1_555 1_555
Er1O O4 1_555 1_555
Er1J O5 1_555 1_555
O3K Er1K 1_555 1_555
O4H Er1K 1_555 1_555
O5A Er1K 1_555 1_555
O6A Er1K 1_555 1_555
O6 Er1J 1_555 1_555
C1O O4O 1_555 1_555
O3O Er1O 1_555 1_555
O2K Er1K 1_555 1_555
C2K C3K 1_555 1_555

#END
