
#######################################################################
#
#                 Cambridge Crystallographic Data Centre
#                                CCDC 
#
#######################################################################
#
# If this CIF has been generated from an entry in the Cambridge 
# Structural Database, then it will include bibliographic, chemical, 
# crystal, experimental, refinement or atomic coordinate data resulting 
# from the CCDC's data processing and validation procedures.
#
#######################################################################

data_IXEJOL
_chemical_formula_moiety         '(C50 H102 Co17 Mo16 N10 Na1 O149 P24 1-)n'
_symmetry_cell_setting           monoclinic
_symmetry_space_group_name_H-M   'P 21/n'
_symmetry_Int_Tables_number      14
_space_group_name_Hall           '-P 2yn'
loop_
_symmetry_equiv_pos_site_id
_symmetry_equiv_pos_as_xyz
1 x,y,z
2 1/2-x,1/2+y,1/2-z
3 -x,-y,-z
4 1/2+x,1/2-y,1/2+z
_cell_length_a                   15.6825(15)
_cell_length_b                   39.503(4)
_cell_length_c                   17.2763(17)
_cell_angle_alpha                90
_cell_angle_beta                 93.791(2)
_cell_angle_gamma                90
_cell_volume                     10679.3
loop_
_atom_site_label
_atom_site_type_symbol
_atom_site_fract_x
_atom_site_fract_y
_atom_site_fract_z
Mo1 Mo 0.79250(11) 0.58429(4) 0.97951(11)
Mo2 Mo 0.83229(12) 0.62991(5) 1.08517(13)
O1 O 0.7444(9) 0.6288(3) 1.0014(9)
O2 O 0.6961(9) 0.5796(3) 0.8917(9)
O3 O 0.8541(9) 0.5815(4) 1.0805(9)
O4 O 0.8031(10) 0.5320(4) 0.9669(8)
O5 O 0.6862(9) 0.5679(4) 1.0472(8)
O6 O 0.8690(10) 0.5933(4) 0.9183(10)
O7 O 0.7136(9) 0.6091(3) 1.1571(9)
O8 O 0.8848(10) 0.6293(4) 1.1946(11)
O9 O 0.9171(10) 0.6469(4) 1.0449(11)
O10 O 0.7820(9) 0.6760(4) 1.1150(11)
Co1 Co 0.64095(19) 0.65730(7) 0.9713(2)
P1 P 0.6440(3) 0.60042(13) 0.8322(3)
Co2 Co 0.88027(18) 0.54585(8) 1.16409(18)
P2 P 0.8509(3) 0.50114(12) 0.9993(3)
P3 P 0.6861(4) 0.57171(15) 1.1350(4)
Mo3 Mo 0.65877(13) 0.63032(5) 1.27394(13)
P4 P 0.8693(4) 0.61428(19) 1.2743(4)
P5 P 0.6938(4) 0.68736(14) 1.1394(5)
O11 O 0.6043(9) 0.6316(4) 0.8697(10)
O12 O 0.5488(13) 0.6209(4) 1.0227(12)
O13 O 0.6233(9) 0.6744(4) 1.0847(10)
O14 O 0.5431(11) 0.6881(4) 0.9294(11)
N1 N 0.2270(12) 0.8067(4) 1.4238(13)
O15 O 0.5794(11) 0.5781(4) 0.7902(11)
O16 O 0.7055(12) 0.6143(5) 0.7713(10)
O17 O 0.8743(8) 0.5047(3) 1.0878(9)
O18 O 0.7440(11) 0.5432(5) 1.1780(10)
O19 O 0.9291(11) 0.5052(4) 1.2333(10)
O20 O 0.8612(12) 0.5751(5) 1.2677(11)
O21 O 1.0118(10) 0.5541(5) 1.1480(13)
O22 O 0.7933(10) 0.4712(4) 0.9822(9)
O23 O 0.9341(10) 0.4961(4) 0.9584(11)
O24 O 0.5918(9) 0.5672(4) 1.1514(9)
O25 O 0.7866(10) 0.6285(4) 1.3053(10)
Mo4 Mo 0.53600(11) 0.58621(5) 1.25648(11)
O26 O 0.6545(10) 0.5828(4) 1.2988(9)
O27 O 0.5542(8) 0.6306(3) 1.2093(9)
O28 O 0.6858(10) 0.6765(4) 1.2244(11)
O29 O 0.6330(13) 0.6473(5) 1.3561(12)
O30 O 0.9429(14) 0.6224(7) 1.3317(13)
O31 O 0.6889(14) 0.7272(4) 1.1368(16)
Co3 Co 0.48335(19) 0.65662(7) 0.8465(2)
Co4 Co 0.5046(2) 0.65829(7) 1.1182(2)
P6 P 0.4963(4) 0.71258(14) 0.9834(4)
Mo5 Mo 0.46323(11) 0.57830(5) 0.72573(11)
H1 H 0.7279 0.5984 0.7500
Co5 Co 0.87795(19) 0.46583(8) 1.17013(18)
Co6 Co 0.7497(2) 0.54654(10) 1.3092(2)
P7 P 0.9276(4) 0.50537(17) 1.3232(4)
H2 H 1.0414 0.5666 1.1796
H3 H 1.0349 0.5450 1.1100
Mo6 Mo 0.79235(11) 0.41869(4) 0.99732(11)
O32 O 0.5234(9) 0.5349(4) 1.2704(10)
O33 O 0.4279(9) 0.5814(4) 1.1829(10)
O34 O 0.4833(11) 0.5969(5) 1.3335(10)
H4 H 0.9480 0.6430 1.3358
H5 H 0.6498 0.7331 1.1059
O35 O 0.4440(9) 0.6250(3) 0.7593(9)
O36 O 0.4190(12) 0.6215(4) 0.9250(11)
O37 O 0.3596(10) 0.6809(4) 0.8734(11)
N2 N 0.5314(12) 0.6903(4) 0.7639(12)
O38 O 0.3879(9) 0.6337(4) 1.1015(10)
O39 O 0.4458(10) 0.6897(4) 1.0334(11)
N3 N 0.4599(13) 0.6934(5) 1.2010(13)
O40 O 0.4346(10) 0.7354(3) 0.9314(10)
O41 O 0.5546(10) 0.7371(4) 1.0296(11)
O42 O 0.4737(11) 0.5264(4) 0.7244(10)
Mo7 Mo 0.33502(12) 0.61974(5) 0.70052(12)
O43 O 0.4201(11) 0.5680(4) 0.8383(8)
O44 O 0.3428(9) 0.5705(3) 0.6932(8)
O45 O 0.5061(11) 0.5838(5) 0.6400(10)
O46 O 0.8500(9) 0.4259(4) 1.0981(9)
O47 O 0.7419(10) 0.4778(5) 1.1846(10)
O48 O 1.0044(11) 0.4532(5) 1.1494(13)
O49 O 0.8444(12) 0.4394(4) 1.2689(11)
O50 O 0.8326(9) 0.5067(4) 1.3416(10)
O51 O 0.6590(9) 0.5054(4) 1.3202(10)
O52 O 0.7654(14) 0.5595(7) 1.4250(17)
O53 O 0.9791(12) 0.4768(5) 1.3607(11)
O54 O 0.9739(10) 0.5376(5) 1.3560(11)
Mo8 Mo 0.83685(12) 0.37753(5) 1.11124(12)
O55 O 0.7540(9) 0.3726(3) 1.0242(9)
O56 O 0.7049(9) 0.4194(3) 0.9059(8)
O57 O 0.6774(10) 0.4317(3) 1.0569(9)
O58 O 0.8739(11) 0.4105(4) 0.9418(10)
P8 P 0.5619(3) 0.50466(14) 1.3151(3)
P9 P 0.3546(4) 0.60323(13) 1.1456(3)
Co7 Co 0.34786(19) 0.65816(7) 0.9920(2)
P10 P 0.3645(4) 0.59143(15) 0.8824(4)
P11 P 0.2838(4) 0.68386(14) 0.8146(5)
C1 C 0.5739(17) 0.6804(6) 0.7056(19)
C2 C 0.536(2) 0.7245(7) 0.776(2)
C3 C 0.4168(17) 0.6841(6) 1.2626(15)
C4 C 0.459(2) 0.7273(7) 1.188(2)
H6 H 0.4014 0.7234 0.9050
H7 H 0.5895 0.7265 1.0574
O59 O 0.3028(10) 0.6664(4) 0.7380(9)
O60 O 0.2906(10) 0.6062(4) 0.8265(9)
O61 O 0.3574(11) 0.6327(4) 0.6123(11)
O62 O 0.2048(9) 0.6149(4) 0.6690(9)
Co8 Co 0.25270(18) 0.53346(8) 0.68283(18)
H8 H 1.0156 0.4440 1.1068
H9 H 1.0444 0.4574 1.1837
P12 P 0.8690(4) 0.40319(18) 1.2935(4)
H10 H 0.7385 0.5488 1.4584
H11 H 0.7987 0.5756 1.4391
H12 H 0.9577 0.4586 1.3469
H13 H 0.9504 0.5545 1.3369
O63 O 0.7943(10) 0.3319(4) 1.1495(11)
O64 O 0.8935(10) 0.3833(4) 1.2216(11)
O65 O 0.9254(11) 0.3613(4) 1.0776(11)
O66 O 0.5292(11) 0.5037(5) 1.3985(9)
O67 O 0.3045(12) 0.6175(4) 1.2116(11)
N4 N 0.7633(13) 0.8059(5) 0.5390(14)
O68 O 0.2657(15) 0.7213(4) 0.7994(13)
C5 C 0.623(2) 0.7010(7) 0.6635(19)
H14 H 0.5701 0.6576 0.6916
H15 H 0.5078 0.7337 0.8165
C6 C 0.579(2) 0.7455(7) 0.7316(17)
H16 H 0.4161 0.6612 1.2749
C7 C 0.3763(17) 0.7044(6) 1.3060(19)
C8 C 0.4159(18) 0.7514(7) 1.2302(15)
H17 H 0.4901 0.7352 1.1470
N5 N 0.2450(12) 0.5434(6) 0.5625(12)
O69 O 0.9446(10) 0.4028(7) 1.3537(11)
H18 H 0.5517 0.5190 1.4245
H19 H 0.2649 0.6292 1.1933
H20 H 0.3069 0.7300 0.7804
C9 C 0.6271(16) 0.7351(6) 0.6745(18)
H21 H 0.6557 0.6913 0.6260
H22 H 0.5746 0.7686 0.7407
C10 C 0.3714(16) 0.7386(6) 1.2907(16)
H23 H 0.3500 0.6958 1.3484
H24 H 0.4170 0.7744 1.2187
C11 C 0.3193(17) 0.5463(7) 0.5271(16)
C12 C 0.1746(18) 0.5345(11) 0.5185(18)
H25 H 0.9615 0.4222 1.3617
C13 C 0.6730(18) 0.7596(7) 0.6281(19)
C14 C 0.3252(14) 0.7621(6) 1.3388(14)
H26 H 0.3690 0.5526 0.5559
C15 C 0.322(2) 0.5400(10) 0.4471(18)
C16 C 0.1757(19) 0.5273(13) 0.4395(17)
H27 H 0.1229 0.5330 0.5418
C17 C 0.664(2) 0.7944(8) 0.6399(19)
C18 C 0.726(2) 0.7479(7) 0.574(2)
C19 C 0.3356(19) 0.7968(7) 1.334(2)
C20 C 0.2637(19) 0.7510(6) 1.386(2)
C21 C 0.2537(14) 0.5289(8) 0.4026(17)
H28 H 0.3730 0.5436 0.4239
H29 H 0.1254 0.5214 0.4111
C22 C 0.709(2) 0.8160(7) 0.5896(19)
H30 H 0.6311 0.8031 0.6781
C23 C 0.7671(16) 0.7725(6) 0.526(2)
H31 H 0.7347 0.7248 0.5680
C24 C 0.2874(19) 0.8180(6) 1.3799(18)
H32 H 0.3739 0.8060 1.3011
C25 C 0.2169(18) 0.7741(6) 1.428(2)
H33 H 0.2531 0.7279 1.3901
H34 H 0.6994 0.8392 0.5929
H35 H 0.7974 0.7647 0.4856
H36 H 0.2984 0.8411 1.3794
H37 H 0.1768 0.7657 1.4602
Mo1B Mo 0.20750(11) 0.41571(4) 1.02049(11)
Mo2B Mo 0.16771(12) 0.37009(5) 0.91483(13)
O1B O 0.2556(9) 0.3712(3) 0.9986(9)
O2B O 0.3039(9) 0.4204(3) 1.1083(9)
O3B O 0.1459(9) 0.4185(4) 0.9195(9)
O4B O 0.1969(10) 0.4680(4) 1.0331(8)
O5B O 0.3138(9) 0.4321(4) 0.9528(8)
O6B O 0.1310(10) 0.4067(4) 1.0817(10)
O7B O 0.2864(9) 0.3909(3) 0.8429(9)
O8B O 0.1152(10) 0.3707(4) 0.8054(11)
O9B O 0.0829(10) 0.3531(4) 0.9551(11)
O10B O 0.2180(9) 0.3240(4) 0.8850(11)
P1B P 0.3560(3) 0.39958(13) 1.1678(3)
P2B P 0.1491(3) 0.49886(12) 1.0007(3)
P3B P 0.3139(4) 0.42829(15) 0.8650(4)
Mo3B Mo 0.34123(13) 0.36968(5) 0.72606(13)
P4B P 0.1307(4) 0.38572(19) 0.7257(4)
P5B P 0.3062(4) 0.31264(14) 0.8606(5)
O11B O 0.3957(9) 0.3684(4) 1.1303(10)
O13B O 0.3767(9) 0.3256(4) 0.9153(10)
O14B O 0.4569(11) 0.3119(4) 1.0706(11)
O15B O 0.4206(11) 0.4219(4) 1.2098(11)
O16B O 0.2945(12) 0.3857(5) 1.2287(10)
O17B O 0.1257(8) 0.4953(3) 0.9122(9)
O18B O 0.2560(11) 0.4568(5) 0.8220(10)
O20B O 0.1388(12) 0.4249(5) 0.7323(11)
O22B O 0.2067(10) 0.5288(4) 1.0178(9)
O23B O 0.0659(10) 0.5039(4) 1.0416(11)
O24B O 0.4082(9) 0.4328(4) 0.8486(9)
O25B O 0.2134(10) 0.3715(4) 0.6947(10)
Mo4B Mo 0.46400(11) 0.41379(5) 0.74352(11)
O26B O 0.3455(10) 0.4172(4) 0.7012(9)
O27B O 0.4458(8) 0.3694(3) 0.7907(9)
O28B O 0.3142(10) 0.3235(4) 0.7756(11)
O29B O 0.3670(13) 0.3527(5) 0.6439(12)
O30B O 0.0571(14) 0.3776(7) 0.6683(13)
O31B O 0.3111(14) 0.2728(4) 0.8632(16)
P6B P 0.5037(4) 0.28742(14) 1.0166(4)
Mo5B Mo 0.53677(11) 0.42170(5) 1.27427(11)
H1B H 0.2721 0.4016 1.2500
Mo6B Mo 0.20765(11) 0.58131(4) 1.00268(11)
O32B O 0.4766(9) 0.4651(4) 0.7296(10)
O33B O 0.5721(9) 0.4186(4) 0.8171(10)
O34B O 0.5167(11) 0.4031(5) 0.6665(10)
H4B H 0.0520 0.3570 0.6642
H5B H 0.3502 0.2669 0.8941
O35B O 0.5560(9) 0.3750(3) 1.2407(9)
O36B O 0.5810(12) 0.3785(4) 1.0750(11)
O37B O 0.6404(10) 0.3191(4) 1.1266(11)
O38B O 0.6121(9) 0.3663(4) 0.8985(10)
O39B O 0.5542(10) 0.3103(4) 0.9666(11)
O40B O 0.5654(10) 0.2646(3) 1.0686(10)
O41B O 0.4454(10) 0.2629(4) 0.9704(11)
O42B O 0.5263(11) 0.4736(4) 1.2756(10)
Mo7B Mo 0.66498(12) 0.38026(5) 1.29948(12)
O43B O 0.5799(11) 0.4320(4) 1.1617(8)
O44B O 0.6572(9) 0.4295(3) 1.3068(8)
O45B O 0.4939(11) 0.4162(5) 1.3600(10)
O46B O 0.1500(9) 0.5741(4) 0.9019(9)
O49B O 0.1556(12) 0.5606(4) 0.7311(11)
O51B O 0.3410(9) 0.4946(4) 0.6798(10)
Mo8B Mo 0.16315(12) 0.62247(5) 0.88876(12)
O55B O 0.2460(9) 0.6274(3) 0.9758(9)
O56B O 0.2951(9) 0.5806(3) 1.0941(8)
O57B O 0.3226(10) 0.5683(3) 0.9431(9)
O58B O 0.1261(11) 0.5895(4) 1.0582(10)
P8B P 0.4381(3) 0.49534(14) 0.6849(3)
P9B P 0.6454(4) 0.39677(13) 0.8544(3)
P10B P 0.6355(4) 0.40857(15) 1.1176(4)
P11B P 0.7162(4) 0.31614(14) 1.1854(5)
H6B H 0.5986 0.2766 1.0950
H7B H 0.4105 0.2735 0.9426
O59B O 0.6972(10) 0.3336(4) 1.2620(9)
O60B O 0.7094(10) 0.3938(4) 1.1735(9)
O61B O 0.6426(11) 0.3673(4) 1.3877(11)
O62B O 0.7952(9) 0.3851(4) 1.3310(9)
P12B P 0.1310(4) 0.59681(18) 0.7065(4)
O63B O 0.2057(10) 0.6681(4) 0.8505(11)
O64B O 0.1065(10) 0.6167(4) 0.7784(11)
O65B O 0.0746(11) 0.6387(4) 0.9224(11)
O66B O 0.4708(11) 0.4963(5) 0.6015(9)
O67B O 0.6955(12) 0.3825(4) 0.7884(11)
O68B O 0.7343(15) 0.2787(4) 1.2006(13)
O69B O 0.0554(10) 0.5972(7) 0.6463(11)
H18B H 0.4483 0.4810 0.5755
H19B H 0.7351 0.3708 0.8067
H20B H 0.6931 0.2700 1.2196
H25B H 0.0385 0.5778 0.6383
Co1B Co 0.35905(19) 0.34270(7) 1.0287(2)
Co2B Co 0.11973(18) 0.45415(8) 0.83591(18)
O12B O 0.4512(13) 0.3791(4) 0.9773(12)
N1B N 0.7730(12) 0.1933(4) 0.5762(13)
O19B O 0.0709(11) 0.4948(4) 0.7667(10)
O21B O -0.0118(10) 0.4459(5) 0.8520(13)
Co3B Co 0.51665(19) 0.34338(7) 1.1535(2)
Co4B Co 0.4954(2) 0.34171(7) 0.8818(2)
Co5B Co 0.12205(19) 0.53417(8) 0.82987(18)
Co6B Co 0.2503(2) 0.45346(10) 0.6908(2)
P7B P 0.0724(4) 0.49463(17) 0.6768(4)
H2B H -0.0414 0.4334 0.8204
H3B H -0.0349 0.4550 0.8900
N2B N 0.4686(12) 0.3097(4) 1.2361(12)
N3B N 0.5401(13) 0.3066(5) 0.7990(13)
O47B O 0.2581(10) 0.5222(5) 0.8154(10)
O48B O -0.0044(11) 0.5468(5) 0.8506(13)
O50B O 0.1674(9) 0.4933(4) 0.6584(10)
O52B O 0.2346(14) 0.4405(7) 0.5750(17)
O53B O 0.0209(12) 0.5232(5) 0.6393(11)
O54B O 0.0261(10) 0.4624(5) 0.6440(11)
Co7B Co 0.65214(19) 0.34184(7) 1.0080(2)
C1B C 0.4261(17) 0.3196(6) 1.2944(19)
C2B C 0.464(2) 0.2755(7) 1.224(2)
C3B C 0.5832(17) 0.3159(6) 0.7374(15)
C4B C 0.541(2) 0.2727(7) 0.812(2)
Co8B Co 0.74730(18) 0.46654(8) 1.31717(18)
H8B H -0.0156 0.5560 0.8932
H9B H -0.0444 0.5426 0.8163
H10B H 0.2615 0.4512 0.5416
H11B H 0.2013 0.4244 0.5609
H12B H 0.0423 0.5414 0.6531
H13B H 0.0496 0.4455 0.6631
N4B N 0.2367(13) 0.1941(5) 1.4610(14)
C5B C 0.377(2) 0.2990(7) 1.3365(19)
H14B H 0.4299 0.3424 1.3084
H15B H 0.4922 0.2663 1.1835
C6B C 0.421(2) 0.2545(7) 1.2684(17)
H16B H 0.5839 0.3388 0.7251
C7B C 0.6237(17) 0.2956(6) 0.6940(19)
C8B C 0.5841(18) 0.2486(7) 0.7698(15)
H17B H 0.5099 0.2648 0.8530
N5B N 0.7550(12) 0.4566(6) 1.4375(12)
C9B C 0.3729(16) 0.2649(6) 1.3255(18)
H21B H 0.3443 0.3087 1.3740
H22B H 0.4254 0.2314 1.2593
C10B C 0.6286(16) 0.2614(6) 0.7093(16)
H23B H 0.6500 0.3042 0.6516
H24B H 0.5830 0.2256 0.7813
C11B C 0.6807(17) 0.4537(7) 1.4729(16)
C12B C 0.8254(18) 0.4655(11) 1.4815(18)
C13B C 0.3270(18) 0.2404(7) 1.3719(19)
C14B C 0.6748(14) 0.2379(6) 0.6612(14)
H26B H 0.6310 0.4474 1.4441
C15B C 0.678(2) 0.4600(10) 1.5529(18)
C16B C 0.8243(19) 0.4727(13) 1.5605(17)
H27B H 0.8771 0.4670 1.4582
C17B C 0.336(2) 0.2056(8) 1.3601(19)
C18B C 0.274(2) 0.2521(7) 1.426(2)
C19B C 0.6644(19) 0.2032(7) 0.666(2)
C20B C 0.7363(19) 0.2490(6) 0.614(2)
C21B C 0.7463(14) 0.4711(8) 1.5974(17)
H28B H 0.6270 0.4564 1.5761
H29B H 0.8746 0.4786 1.5889
C22B C 0.291(2) 0.1840(7) 1.4104(19)
H30B H 0.3689 0.1969 1.3219
C23B C 0.2329(16) 0.2275(6) 1.474(2)
H31B H 0.2653 0.2752 1.4320
C24B C 0.7126(19) 0.1820(6) 0.6201(18)
H32B H 0.6261 0.1940 0.6989
C25B C 0.7831(18) 0.2259(6) 0.572(2)
H33B H 0.7469 0.2721 0.6099
H34B H 0.3006 0.1608 1.4071
H35B H 0.2026 0.2353 1.5144
H36B H 0.7016 0.1589 0.6206
H37B H 0.8232 0.2343 0.5398
Co1A Co 0.85905(19) 0.15730(7) 0.5287(2)
Co1C Co 0.14095(19) 0.84270(7) 1.4713(2)
N1A N 0.2730(12) 0.3067(4) 1.0762(13)
N1C N 0.7270(12) 0.6933(4) 0.9238(13)
Co7A Co 0.15214(19) 0.15816(7) 1.5080(2)
Co7C Co 0.84786(19) 0.84184(7) 0.4920(2)
N4A N 0.7367(13) 0.3059(5) 0.9610(14)
N4C N 0.2633(13) 0.6941(5) 1.0390(14)
O70 O 0.583(3) 0.5473(14) 1.500(3)
H38 H 0.6020 0.5437 1.4563
H39 H 0.5712 0.5674 1.5140
O70B O 0.417(3) 0.4527(14) 0.500(3)
H38B H 0.3980 0.4563 0.5437
H39B H 0.4288 0.4326 0.4860
Na1 Na 0.797(3) 0.0023(9) 0.6895(19)
Co9 Co 1.0000 -0.0000 0.5000
O71 O 1.0568(15) 0.0022(4) 0.6088(10)
H40 H 1.0271 0.0068 0.6468
H41 H 1.1102 -0.0013 0.6164
O72 O 1.0288(19) 0.0484(6) 0.4746(14)
H42 H 0.9924 0.0641 0.4789
H43 H 1.0778 0.0530 0.4590
O73 O 0.878(2) 0.0105(8) 0.530(2)
H44 H 0.8685 0.0141 0.5773
H45 H 0.8370 0.0115 0.4953
O71B O 0.9432(15) -0.0022(4) 0.3912(10)
H40B H 0.9729 -0.0068 0.3532
H41B H 0.8898 0.0013 0.3836
O72B O 0.9712(19) -0.0484(6) 0.5254(14)
H42B H 1.0076 -0.0641 0.5211
H43B H 0.9222 -0.0530 0.5410
O73B O 1.122(2) -0.0105(8) 0.470(2)
H44B H 1.1315 -0.0141 0.4227
H45B H 1.1630 -0.0115 0.5047
O74 O 0.814(3) 0.7114(10) 0.329(2)
H46 H 0.8532 0.7230 0.3102
H47 H 0.7684 0.7211 0.3418
O75 O 0.574(3) 0.0509(11) 0.987(2)
H48 H 0.5641 0.0712 1.0000
H49 H 0.5517 0.0345 1.0098
O76 O 0.429(3) 0.8676(13) 0.276(3)
H50 H 0.4650 0.8818 0.2606
H51 H 0.3789 0.8741 0.2851
loop_
_geom_bond_atom_site_label_1
_geom_bond_atom_site_label_2
_geom_bond_site_symmetry_1
_geom_bond_site_symmetry_2
Mo1 Mo2 1_555 1_555
Mo2 O1 1_555 1_555
O1 Mo1 1_555 1_555
O2 Mo1 1_555 1_555
O3 Mo1 1_555 1_555
O4 Mo1 1_555 1_555
O5 Mo1 1_555 1_555
O6 Mo1 1_555 1_555
O7 Mo2 1_555 1_555
O8 Mo2 1_555 1_555
O9 Mo2 1_555 1_555
O10 Mo2 1_555 1_555
Co1 O1 1_555 1_555
P1 O2 1_555 1_555
Co2 O3 1_555 1_555
P2 O4 1_555 1_555
P3 O5 1_555 1_555
Mo3 O7 1_555 1_555
P4 O8 1_555 1_555
P5 O10 1_555 1_555
O11 Co1 1_555 1_555
O12 Co1 1_555 1_555
O13 Co1 1_555 1_555
O14 Co1 1_555 1_555
N1 C24 1_555 1_555
O15 P1 1_555 1_555
O16 P1 1_555 1_555
O17 Co2 1_555 1_555
O18 Co2 1_555 1_555
O19 Co2 1_555 1_555
O20 Co2 1_555 1_555
O21 Co2 1_555 1_555
O22 P2 1_555 1_555
O23 P2 1_555 1_555
O24 P3 1_555 1_555
O25 Mo3 1_555 1_555
Mo4 Mo3 1_555 1_555
O26 Mo3 1_555 1_555
O27 Mo3 1_555 1_555
O28 Mo3 1_555 1_555
O29 Mo3 1_555 1_555
O30 P4 1_555 1_555
O31 P5 1_555 1_555
Co3 O11 1_555 1_555
Co4 O12 1_555 1_555
P6 O14 1_555 1_555
Mo5 O15 1_555 1_555
H1 O16 1_555 1_555
Co5 O17 1_555 1_555
Co6 O18 1_555 1_555
P7 O19 1_555 1_555
H2 O21 1_555 1_555
H3 O21 1_555 1_555
Mo6 O22 1_555 1_555
O32 Mo4 1_555 1_555
O33 Mo4 1_555 1_555
O34 Mo4 1_555 1_555
H4 O30 1_555 1_555
H5 O31 1_555 1_555
O35 Co3 1_555 1_555
O36 Co3 1_555 1_555
O37 Co3 1_555 1_555
N2 Co3 1_555 1_555
O38 Co4 1_555 1_555
O39 Co4 1_555 1_555
N3 Co4 1_555 1_555
O40 P6 1_555 1_555
O41 P6 1_555 1_555
O42 Mo5 1_555 1_555
Mo7 Mo5 1_555 1_555
O43 Mo5 1_555 1_555
O44 Mo5 1_555 1_555
O45 Mo5 1_555 1_555
O46 Co5 1_555 1_555
O47 Co5 1_555 1_555
O48 Co5 1_555 1_555
O49 Co5 1_555 1_555
O50 Co6 1_555 1_555
O51 Co6 1_555 1_555
O52 Co6 1_555 1_555
O53 P7 1_555 1_555
O54 P7 1_555 1_555
Mo8 Mo6 1_555 1_555
O55 Mo6 1_555 1_555
O56 Mo6 1_555 1_555
O57 Mo6 1_555 1_555
O58 Mo6 1_555 1_555
P8 O32 1_555 1_555
P9 O33 1_555 1_555
Co7 O36 1_555 1_555
P10 O36 1_555 1_555
P11 O37 1_555 1_555
C1 N2 1_555 1_555
C2 N2 1_555 1_555
C3 N3 1_555 1_555
C4 N3 1_555 1_555
H6 O40 1_555 1_555
H7 O41 1_555 1_555
O59 Mo7 1_555 1_555
O60 Mo7 1_555 1_555
O61 Mo7 1_555 1_555
O62 Mo7 1_555 1_555
Co8 O44 1_555 1_555
H8 O48 1_555 1_555
H9 O48 1_555 1_555
P12 O49 1_555 1_555
H10 O52 1_555 1_555
H11 O52 1_555 1_555
H12 O53 1_555 1_555
H13 O54 1_555 1_555
O63 Mo8 1_555 1_555
O64 Mo8 1_555 1_555
O65 Mo8 1_555 1_555
O66 P8 1_555 1_555
O67 P9 1_555 1_555
N4 C22 1_555 1_555
O68 P11 1_555 1_555
C5 C1 1_555 1_555
H14 C1 1_555 1_555
H15 C2 1_555 1_555
C6 C2 1_555 1_555
H16 C3 1_555 1_555
C7 C3 1_555 1_555
C8 C4 1_555 1_555
H17 C4 1_555 1_555
N5 Co8 1_555 1_555
O69 P12 1_555 1_555
H18 O66 1_555 1_555
H19 O67 1_555 1_555
H20 O68 1_555 1_555
C9 C5 1_555 1_555
H21 C5 1_555 1_555
H22 C6 1_555 1_555
C10 C7 1_555 1_555
H23 C7 1_555 1_555
H24 C8 1_555 1_555
C11 N5 1_555 1_555
C12 N5 1_555 1_555
H25 O69 1_555 1_555
C13 C9 1_555 1_555
C14 C10 1_555 1_555
H26 C11 1_555 1_555
C15 C11 1_555 1_555
C16 C12 1_555 1_555
H27 C12 1_555 1_555
C17 C13 1_555 1_555
C18 C13 1_555 1_555
C19 C14 1_555 1_555
C20 C14 1_555 1_555
C21 C15 1_555 1_555
H28 C15 1_555 1_555
H29 C16 1_555 1_555
C22 C17 1_555 1_555
H30 C17 1_555 1_555
C23 N4 1_555 1_555
H31 C18 1_555 1_555
C24 C19 1_555 1_555
H32 C19 1_555 1_555
C25 N1 1_555 1_555
H33 C20 1_555 1_555
H34 C22 1_555 1_555
H35 C23 1_555 1_555
H36 C24 1_555 1_555
H37 C25 1_555 1_555
O70 H38 1_555 1_555
H39 O70 1_555 1_555
Co9 O71 1_555 1_555
O71 H40 1_555 1_555
H41 O71 1_555 1_555
O72 Co9 1_555 1_555
H42 O72 1_555 1_555
H43 O72 1_555 1_555
O73 Co9 1_555 1_555
H44 O73 1_555 1_555
H45 O73 1_555 1_555
O74 H46 1_555 1_555
H47 O74 1_555 1_555
O75 H48 1_555 1_555
H49 O75 1_555 1_555
O76 H50 1_555 1_555
H51 O76 1_555 1_555
Mo1B Mo2B 1_555 1_555
Mo2B O1B 1_555 1_555
O1B Mo1B 1_555 1_555
O2B Mo1B 1_555 1_555
O3B Mo1B 1_555 1_555
O4B Mo1B 1_555 1_555
O5B Mo1B 1_555 1_555
O6B Mo1B 1_555 1_555
O7B Mo2B 1_555 1_555
O8B Mo2B 1_555 1_555
O9B Mo2B 1_555 1_555
O10B Mo2B 1_555 1_555
P1B O2B 1_555 1_555
P2B O4B 1_555 1_555
P3B O5B 1_555 1_555
Mo3B O7B 1_555 1_555
P4B O8B 1_555 1_555
P5B O10B 1_555 1_555
O11B P1B 1_555 1_555
O13B P5B 1_555 1_555
O14B P6B 1_555 1_555
O15B P1B 1_555 1_555
O16B P1B 1_555 1_555
O17B P2B 1_555 1_555
O18B P3B 1_555 1_555
O20B P4B 1_555 1_555
O22B P2B 1_555 1_555
O23B P2B 1_555 1_555
O24B P3B 1_555 1_555
O25B Mo3B 1_555 1_555
Mo4B Mo3B 1_555 1_555
O26B Mo3B 1_555 1_555
O27B Mo3B 1_555 1_555
O28B Mo3B 1_555 1_555
O29B Mo3B 1_555 1_555
O30B P4B 1_555 1_555
O31B P5B 1_555 1_555
P6B O39B 1_555 1_555
Mo5B O15B 1_555 1_555
H1B O16B 1_555 1_555
Mo6B O22B 1_555 1_555
O32B Mo4B 1_555 1_555
O33B Mo4B 1_555 1_555
O34B Mo4B 1_555 1_555
H4B O30B 1_555 1_555
H5B O31B 1_555 1_555
O35B Mo5B 1_555 1_555
O36B P10B 1_555 1_555
O37B P11B 1_555 1_555
O38B P9B 1_555 1_555
O39B Co4B 1_555 1_555
O40B P6B 1_555 1_555
O41B P6B 1_555 1_555
O42B P8 1_555 1_555
Mo7B Mo5B 1_555 1_555
O43B Mo5B 1_555 1_555
O44B Mo5B 1_555 1_555
O45B Mo5B 1_555 1_555
O46B Mo6B 1_555 1_555
O49B Co8 1_555 1_555
O51B Co8 1_555 1_555
Mo8B O60 1_555 1_555
O55B Co7 1_555 1_555
O56B P9 1_555 1_555
O57B P10 1_555 1_555
O58B Mo6B 1_555 1_555
P8B O42 1_555 1_555
P9B O56 1_555 1_555
P10B O57 1_555 1_555
P11B O63 1_555 1_555
H6B O40B 1_555 1_555
H7B O41B 1_555 1_555
O59B Mo7B 1_555 1_555
O60B Mo8 1_555 1_555
O61B Mo7B 1_555 1_555
O62B P12 1_555 1_555
P12B O62 1_555 1_555
O63B P11 1_555 1_555
O64B Mo8B 1_555 1_555
O65B Mo8B 1_555 1_555
O66B P8B 1_555 1_555
O67B P9B 1_555 1_555
O68B P11B 1_555 1_555
O69B P12B 1_555 1_555
H18B O66B 1_555 1_555
H19B O67B 1_555 1_555
H20B O68B 1_555 1_555
H25B O69B 1_555 1_555
Co1B O1B 1_555 1_555
Co2B O3B 1_555 1_555
O12B Co1B 1_555 1_555
N1B C24B 1_555 1_555
O19B Co2B 1_555 1_555
O21B Co2B 1_555 1_555
Co3B O11B 1_555 1_555
Co4B O13B 1_555 1_555
Co5B O17B 1_555 1_555
Co6B O18B 1_555 1_555
P7B O19B 1_555 1_555
H2B O21B 1_555 1_555
H3B O21B 1_555 1_555
N2B Co3B 1_555 1_555
N3B Co4B 1_555 1_555
O47B Co8 1_555 1_555
O48B Co5B 1_555 1_555
O50B Co8 1_555 1_555
O52B Co6B 1_555 1_555
O53B P7B 1_555 1_555
O54B P7B 1_555 1_555
Co7B O55 1_555 1_555
C1B N2B 1_555 1_555
C2B N2B 1_555 1_555
C3B N3B 1_555 1_555
C4B N3B 1_555 1_555
Co8B O47 1_555 1_555
H8B O48B 1_555 1_555
H9B O48B 1_555 1_555
H10B O52B 1_555 1_555
H11B O52B 1_555 1_555
H12B O53B 1_555 1_555
H13B O54B 1_555 1_555
N4B C22B 1_555 1_555
C5B C1B 1_555 1_555
H14B C1B 1_555 1_555
H15B C2B 1_555 1_555
C6B C2B 1_555 1_555
H16B C3B 1_555 1_555
C7B C3B 1_555 1_555
C8B C4B 1_555 1_555
H17B C4B 1_555 1_555
N5B Co8B 1_555 1_555
C9B C5B 1_555 1_555
H21B C5B 1_555 1_555
H22B C6B 1_555 1_555
C10B C7B 1_555 1_555
H23B C7B 1_555 1_555
H24B C8B 1_555 1_555
C11B N5B 1_555 1_555
C12B N5B 1_555 1_555
C13B C9B 1_555 1_555
C14B C10B 1_555 1_555
H26B C11B 1_555 1_555
C15B C11B 1_555 1_555
C16B C12B 1_555 1_555
H27B C12B 1_555 1_555
C17B C13B 1_555 1_555
C18B C13B 1_555 1_555
C19B C14B 1_555 1_555
C20B C14B 1_555 1_555
C21B C15B 1_555 1_555
H28B C15B 1_555 1_555
H29B C16B 1_555 1_555
C22B C17B 1_555 1_555
H30B C17B 1_555 1_555
C23B N4B 1_555 1_555
H31B C18B 1_555 1_555
C24B C19B 1_555 1_555
H32B C19B 1_555 1_555
C25B N1B 1_555 1_555
H33B C20B 1_555 1_555
H34B C22B 1_555 1_555
H35B C23B 1_555 1_555
H36B C24B 1_555 1_555
H37B C25B 1_555 1_555
Co1A N1B 1_555 1_555
Co1C N1 1_555 1_555
N1A Co1B 1_555 1_555
N1C Co1 1_555 1_555
Co7A N4B 1_555 1_555
Co7C N4 1_555 1_555
N4A Co7B 1_555 1_555
N4C Co7 1_555 1_555
O70B H38B 1_555 1_555
H39B O70B 1_555 1_555
O71B Co9 1_555 1_555
H40B O71B 1_555 1_555
H41B O71B 1_555 1_555
O72B Co9 1_555 1_555
H42B O72B 1_555 1_555
H43B O72B 1_555 1_555
O73B Co9 1_555 1_555
H44B O73B 1_555 1_555
H45B O73B 1_555 1_555
Mo2 O3 1_555 1_555
O7 P3 1_555 1_555
P1 O11 1_555 1_555
P2 O17 1_555 1_555
P3 O18 1_555 1_555
P4 O20 1_555 1_555
P4 O25 1_555 1_555
P5 O13 1_555 1_555
P5 O28 1_555 1_555
O13 Co4 1_555 1_555
O14 Co3 1_555 1_555
O19 Co5 1_555 1_555
O20 Co6 1_555 1_555
O24 Mo4 1_555 1_555
Mo4 O26 1_555 1_555
Mo4 O27 1_555 1_555
O26 Co6 1_555 1_555
O27 Co4 1_555 1_555
P6 O39 1_555 1_555
Mo5 O35 1_555 1_555
P7 O50 1_555 1_555
Mo6 O46 1_555 1_555
O35 Mo7 1_555 1_555
O37 Co7 1_555 1_555
O38 P9 1_555 1_555
O38 Co7 1_555 1_555
O39 Co7 1_555 1_555
Mo7 O44 1_555 1_555
O43 P10 1_555 1_555
O46 Mo8 1_555 1_555
O49 Co8B 1_555 1_555
O50 Co8B 1_555 1_555
O51 P8 1_555 1_555
O51 Co8B 1_555 1_555
Mo8 O55 1_555 1_555
P10 O60 1_555 1_555
P11 O59 1_555 1_555
P12 O64 1_555 1_555
C6 C9 1_555 1_555
C8 C10 1_555 1_555
C16 C21 1_555 1_555
C18 C23 1_555 1_555
C20 C25 1_555 1_555
Mo2B O3B 1_555 1_555
O7B P3B 1_555 1_555
P4B O25B 1_555 1_555
P5B O28B 1_555 1_555
O11B Co1B 1_555 1_555
O13B Co1B 1_555 1_555
O14B Co1B 1_555 1_555
O14B Co3B 1_555 1_555
O17B Co2B 1_555 1_555
O18B Co2B 1_555 1_555
O20B Co2B 1_555 1_555
O20B Co6B 1_555 1_555
O24B Mo4B 1_555 1_555
Mo4B O26B 1_555 1_555
Mo4B O27B 1_555 1_555
O26B Co6B 1_555 1_555
O27B Co4B 1_555 1_555
Mo5B O42B 1_555 1_555
Mo6B Mo8B 1_555 1_555
Mo6B O55B 1_555 1_555
Mo6B O56B 1_555 1_555
Mo6B O57B 1_555 1_555
O32B P8B 1_555 1_555
O33B P9B 1_555 1_555
O35B Mo7B 1_555 1_555
O35B Co3B 1_555 1_555
O36B Co3B 1_555 1_555
O36B Co7B 1_555 1_555
O37B Co3B 1_555 1_555
O37B Co7B 1_555 1_555
O38B Co4B 1_555 1_555
O38B Co7B 1_555 1_555
O39B Co7B 1_555 1_555
Mo7B O44B 1_555 1_555
Mo7B O60B 1_555 1_555
Mo7B O62B 1_555 1_555
O43B P10B 1_555 1_555
O44B Co8B 1_555 1_555
O46B Mo8B 1_555 1_555
O46B Co5B 1_555 1_555
O49B P12B 1_555 1_555
O49B Co5B 1_555 1_555
O51B P8B 1_555 1_555
O51B Co6B 1_555 1_555
Mo8B O55B 1_555 1_555
Mo8B O63B 1_555 1_555
P10B O60B 1_555 1_555
P11B O59B 1_555 1_555
P12B O64B 1_555 1_555
O12B Co4B 1_555 1_555
O19B Co5B 1_555 1_555
Co5B O47B 1_555 1_555
Co6B O50B 1_555 1_555
P7B O50B 1_555 1_555
C6B C9B 1_555 1_555
C8B C10B 1_555 1_555
C16B C21B 1_555 1_555
C18B C23B 1_555 1_555
C20B C25B 1_555 1_555

#END
