
#######################################################################
#
#                 Cambridge Crystallographic Data Centre
#                                CCDC 
#
#######################################################################
#
# If this CIF has been generated from an entry in the Cambridge 
# Structural Database, then it will include bibliographic, chemical, 
# crystal, experimental, refinement or atomic coordinate data resulting 
# from the CCDC's data processing and validation procedures.
#
#######################################################################

data_BERGAI01
_chemical_formula_moiety         '(C12 H10 N8 O4 Zn2)n'
_symmetry_cell_setting           tetragonal
_symmetry_space_group_name_H-M   'P 4/n n c'
_symmetry_Int_Tables_number      126
_space_group_name_Hall           '-P 4a 2bc'
loop_
_symmetry_equiv_pos_site_id
_symmetry_equiv_pos_as_xyz
1 x,y,z
2 1/2-x,1/2-y,z
3 1/2-y,x,z
4 y,1/2-x,z
5 1/2-x,y,1/2-z
6 x,1/2-y,1/2-z
7 y,x,1/2-z
8 1/2-y,1/2-x,1/2-z
9 -x,-y,-z
10 1/2+x,1/2+y,-z
11 1/2+y,-x,-z
12 -y,1/2+x,-z
13 1/2+x,-y,1/2+z
14 -x,1/2+y,1/2+z
15 -y,-x,1/2+z
16 1/2+y,1/2+x,1/2+z
_cell_length_a                   12.6724(4)
_cell_length_b                   12.6724(4)
_cell_length_c                   25.2868(16)
_cell_angle_alpha                90
_cell_angle_beta                 90
_cell_angle_gamma                90
_cell_volume                     4060.8
loop_
_atom_site_label
_atom_site_type_symbol
_atom_site_fract_x
_atom_site_fract_y
_atom_site_fract_z
_atom_site_U_iso_or_equiv
_atom_site_thermal_displace_type
C1 C -0.1077(3) 0.0707(3) 0.33891(13) 0.0478 Uani
C2 C -0.1818(3) 0.0725(3) 0.29283(12) 0.0473 Uani
C3 C -0.1431(3) 0.0739(4) 0.24227(14) 0.0693 Uani
H1 H -0.0706 0.0752 0.2366 0.0830 Uiso
C4 C -0.2889(3) 0.0734(4) 0.30028(13) 0.0710 Uani
H2 H -0.3160 0.0736 0.3345 0.0850 Uiso
C5 C 0.2307(2) -0.0402(2) 0.49868(10) 0.0366 Uani
H3 H 0.2699 -0.0601 0.5281 0.0440 Uiso
C6 C 0.1894(2) 0.0043(2) 0.42108(10) 0.0311 Uani
N1 N 0.10060(18) 0.00113(19) 0.44871(8) 0.0294 Uani
N2 N 0.12891(18) -0.02708(18) 0.49977(8) 0.0305 Uani
N3 N 0.27391(18) -0.0222(2) 0.45103(9) 0.0343 Uani
N4 N 0.1954(2) 0.0312(3) 0.36992(10) 0.0586 Uani
H4 H 0.1392 0.0479 0.3528 0.0700 Uiso
H5 H 0.2556 0.0317 0.3542 0.0700 Uiso
O1 O -0.1474(2) 0.0515(2) 0.38390(9) 0.0647 Uani
O2 O -0.01259(19) 0.08842(19) 0.33259(10) 0.0561 Uani
Zn1 Zn -0.03850(2) 0.06949(3) 0.437520(11) 0.0269 Uani
C1D C -0.3923(3) 0.0707(3) 0.16109(13) 0.0478 Uani
C2D C -0.3182(3) 0.0725(3) 0.20717(12) 0.0473 Uani
C3D C -0.3569(3) 0.0739(4) 0.25773(14) 0.0693 Uani
H1D H -0.4294 0.0752 0.2634 0.0830 Uiso
C4D C -0.2111(3) 0.0734(4) 0.19972(13) 0.0710 Uani
H2D H -0.1840 0.0736 0.1655 0.0850 Uiso
O1D O -0.3526(2) 0.0515(2) 0.11610(9) 0.0647 Uani
O2D O -0.48741(19) 0.08842(19) 0.16741(10) 0.0561 Uani
C5B C 0.5402(2) 0.2307(2) 0.49868(10) 0.0366 Uani
H3B H 0.5601 0.2699 0.5281 0.0440 Uiso
C6B C 0.4957(2) 0.1894(2) 0.42108(10) 0.0311 Uani
N1B N 0.49887(19) 0.10060(18) 0.44871(8) 0.0294 Uani
N2B N 0.52708(18) 0.12891(18) 0.49977(8) 0.0305 Uani
N3B N 0.5222(2) 0.27391(18) 0.45103(9) 0.0343 Uani
N4B N 0.4688(3) 0.1954(2) 0.36992(10) 0.0586 Uani
H4B H 0.4521 0.1392 0.3528 0.0700 Uiso
H5B H 0.4683 0.2556 0.3542 0.0700 Uiso
Zn1B Zn 0.43051(3) -0.03850(2) 0.437520(11) 0.0269 Uani
N2H N -0.12891(18) 0.02708(18) 0.50023(8) 0.0305 Uani
N2J N 0.47292(18) -0.12891(18) 0.50023(8) 0.0305 Uani
N3C N -0.0222(2) 0.22609(18) 0.45103(9) 0.0343 Uani
O1B O 0.4485(2) -0.1474(2) 0.38390(9) 0.0647 Uani
Zn1A Zn 0.53850(2) 0.43051(3) 0.437520(11) 0.0269 Uani
Zn1D Zn -0.46150(2) 0.06949(3) 0.062480(11) 0.0269 Uani
Zn1H Zn 0.03850(2) -0.06949(3) 0.562480(11) 0.0269 Uani
Zn1J Zn 0.56949(3) 0.03850(2) 0.562480(11) 0.0269 Uani
loop_
_atom_site_aniso_label
_atom_site_aniso_U_11
_atom_site_aniso_U_22
_atom_site_aniso_U_33
_atom_site_aniso_U_23
_atom_site_aniso_U_13
_atom_site_aniso_U_12
C1 0.059(2) 0.0468(19) 0.0375(19) -0.0027(14) -0.0219(17) 0.0020(16)
C2 0.0414(18) 0.072(2) 0.0285(16) -0.0006(15) -0.0120(14) 0.0008(15)
C3 0.0360(18) 0.136(4) 0.0359(19) 0.005(2) -0.0075(15) -0.005(2)
C4 0.048(2) 0.143(4) 0.0221(15) -0.003(2) -0.0041(15) 0.001(2)
C5 0.0306(16) 0.0566(18) 0.0225(14) 0.0098(13) -0.0037(12) -0.0007(13)
C6 0.0311(15) 0.0381(15) 0.0241(13) 0.0034(12) -0.0016(11) 0.0033(12)
N1 0.0308(12) 0.0357(13) 0.0217(11) 0.0042(10) -0.0012(9) 0.0019(10)
N2 0.0309(13) 0.0400(13) 0.0206(11) 0.0069(9) -0.0025(10) -0.0001(10)
N3 0.0284(13) 0.0490(15) 0.0254(11) 0.0058(11) 0.0000(10) 0.0011(10)
N4 0.0359(15) 0.112(3) 0.0280(13) 0.0225(15) 0.0029(11) 0.0159(16)
O1 0.0721(18) 0.091(2) 0.0309(13) 0.0048(12) -0.0216(12) -0.0105(14)
O2 0.0455(14) 0.0621(15) 0.0606(16) -0.0093(12) -0.0265(12) 0.0072(12)
Zn1 0.0300(2) 0.0318(2) 0.0190(2) 0.00237(12) -0.00194(12) 0.00184(13)
C1D 0.059 0.0468 0.0375 0.0027 -0.0219 -0.002
C2D 0.0414 0.072 0.0285 0.0006 -0.012 -0.0008
C3D 0.036 0.136 0.0359 -0.005 -0.0075 0.005
C4D 0.048 0.143 0.0221 0.003 -0.0041 -0.001
O1D 0.0721 0.091 0.0309 -0.0048 -0.0216 0.0105
O2D 0.0455 0.0621 0.0606 0.0093 -0.0265 -0.0072
C5B 0.0566 0.0306 0.0225 -0.0037 -0.0098 0.0007
C6B 0.0381 0.0311 0.0241 -0.0016 -0.0034 -0.0033
N1B 0.0357 0.0308 0.0217 -0.0012 -0.0042 -0.0019
N2B 0.04 0.0309 0.0206 -0.0025 -0.0069 0.0001
N3B 0.049 0.0284 0.0254 0 -0.0058 -0.0011
N4B 0.112 0.0359 0.028 0.0029 -0.0225 -0.0159
Zn1B 0.0318 0.03 0.019 -0.00194 -0.00237 -0.00184
N2H 0.0309 0.04 0.0206 0.0069 -0.0025 -0.0001
N2J 0.04 0.0309 0.0206 -0.0025 -0.0069 0.0001
N3C 0.049 0.0284 0.0254 0 0.0058 -0.0011
O1B 0.091 0.0721 0.0309 -0.0216 -0.0048 0.0105
Zn1A 0.03 0.0318 0.019 -0.00237 0.00194 0.00184
Zn1D 0.03 0.0318 0.019 -0.00237 -0.00194 -0.00184
Zn1H 0.03 0.0318 0.019 0.00237 -0.00194 0.00184
Zn1J 0.0318 0.03 0.019 -0.00194 -0.00237 -0.00184
loop_
_geom_bond_atom_site_label_1
_geom_bond_atom_site_label_2
_geom_bond_site_symmetry_1
_geom_bond_site_symmetry_2
C1 C2 1_555 1_555
C2 C3 1_555 1_555
C3 H1 1_555 1_555
C4 C2 1_555 1_555
H2 C4 1_555 1_555
C5 H3 1_555 1_555
C6 N1 1_555 1_555
N1 N2 1_555 1_555
N2 C5 1_555 1_555
N3 C5 1_555 1_555
N4 C6 1_555 1_555
H4 N4 1_555 1_555
H5 N4 1_555 1_555
O1 C1 1_555 1_555
O2 C1 1_555 1_555
Zn1 N1 1_555 1_555
C1D C2D 1_555 1_555
C2D C3D 1_555 1_555
C3D C4 1_555 1_555
H1D C3D 1_555 1_555
C4D C3 1_555 1_555
H2D C4D 1_555 1_555
O1D C1D 1_555 1_555
O2D C1D 1_555 1_555
C5B H3B 1_555 1_555
C6B N1B 1_555 1_555
N1B N2B 1_555 1_555
N2B C5B 1_555 1_555
N3B C5B 1_555 1_555
N4B C6B 1_555 1_555
H4B N4B 1_555 1_555
H5B N4B 1_555 1_555
Zn1B N3 1_555 1_555
N2H Zn1 1_555 1_555
N2J Zn1B 1_555 1_555
N3C Zn1 1_555 1_555
O1B Zn1B 1_555 1_555
Zn1A N3B 1_555 1_555
Zn1D O1D 1_555 1_555
Zn1H N2 1_555 1_555
Zn1J N2B 1_555 1_555
C6 N3 1_555 1_555
O1 Zn1 1_555 1_555
C2D C4D 1_555 1_555
C6B N3B 1_555 1_555
N1B Zn1B 1_555 1_555

#END
