
#######################################################################
#
#                 Cambridge Crystallographic Data Centre
#                                CCDC 
#
#######################################################################
#
# If this CIF has been generated from an entry in the Cambridge 
# Structural Database, then it will include bibliographic, chemical, 
# crystal, experimental, refinement or atomic coordinate data resulting 
# from the CCDC's data processing and validation procedures.
#
#######################################################################

data_OCIZIL
_chemical_formula_moiety         '(C64 H44 N8 O10 Zn2)n'
_symmetry_cell_setting           orthorhombic
_symmetry_space_group_name_H-M   'P 21 21 2'
_symmetry_Int_Tables_number      18
_space_group_name_Hall           'P 2 2ab'
loop_
_symmetry_equiv_pos_site_id
_symmetry_equiv_pos_as_xyz
1 x,y,z
2 -x,-y,z
3 1/2-x,1/2+y,-z
4 1/2+x,1/2-y,-z
_cell_length_a                   18.167(4)
_cell_length_b                   26.668(5)
_cell_length_c                   12.453(3)
_cell_angle_alpha                90
_cell_angle_beta                 90
_cell_angle_gamma                90
_cell_volume                     6033.2
loop_
_atom_site_label
_atom_site_type_symbol
_atom_site_fract_x
_atom_site_fract_y
_atom_site_fract_z
_atom_site_U_iso_or_equiv
_atom_site_thermal_displace_type
Zn1 Zn 0.54009(4) 0.26960(3) 0.41939(6) 0.0352 Uani
Zn2 Zn 1.25649(4) 0.53572(3) 1.11658(6) 0.0356 Uani
C1 C 1.2588(4) 0.4496(3) 0.9520(6) 0.0623 Uani
H1 H 1.3102 0.4512 0.9391 0.0750 Uiso
C2 C 1.2125(4) 0.4147(3) 0.9086(7) 0.0637 Uani
H2 H 1.2251 0.3885 0.8605 0.0760 Uiso
C3 C 1.1526(4) 0.4656(3) 1.0138(6) 0.0527 Uani
H3 H 1.1140 0.4808 1.0536 0.0630 Uiso
C4 C 1.0749(4) 0.4017(4) 0.9236(9) 0.0857 Uani
C5 C 1.0704(4) 0.3573(3) 0.8772(7) 0.0617 Uani
H4 H 1.1138 0.3387 0.8622 0.0740 Uiso
C6 C 1.0022(4) 0.3381(3) 0.8505(8) 0.0683 Uani
H5 H 1.0002 0.3057 0.8189 0.0820 Uiso
C7 C 0.9381(3) 0.3627(3) 0.8669(5) 0.0443 Uani
C8 C 0.9446(4) 0.4073(3) 0.9229(9) 0.0857 Uani
H6 H 0.9014 0.4253 0.9419 0.1030 Uiso
C9 C 1.0114(4) 0.4261(4) 0.9513(9) 0.0857 Uani
H7 H 1.0140 0.4566 0.9908 0.1030 Uiso
C10 C 0.8639(4) 0.3460(3) 0.8319(6) 0.0447 Uani
C11 C 0.8579(4) 0.3081(3) 0.7582(7) 0.0570 Uani
H8 H 0.8999 0.2890 0.7382 0.0680 Uiso
C12 C 0.7889(4) 0.2978(3) 0.7124(7) 0.0620 Uani
H9 H 0.7854 0.2726 0.6587 0.0740 Uiso
C13 C 0.7280(4) 0.3223(3) 0.7422(6) 0.0480 Uani
C14 C 0.7337(5) 0.3572(4) 0.8207(8) 0.0987 Uani
H10 H 0.6910 0.3740 0.8461 0.1180 Uiso
C15 C 0.8009(4) 0.3683(5) 0.8634(8) 0.0987 Uani
H11 H 0.8034 0.3930 0.9182 0.1180 Uiso
C16 C 0.6512(3) 0.2971(2) 0.5866(5) 0.0367 Uani
H12 H 0.6911 0.2863 0.5430 0.0440 Uiso
C17 C 0.5425(5) 0.3167(4) 0.6408(6) 0.0880 Uani
H13 H 0.4906 0.3205 0.6429 0.1060 Uiso
C18 C 0.5894(4) 0.3291(4) 0.7200(7) 0.0850 Uani
H14 H 0.5771 0.3452 0.7857 0.1020 Uiso
C19 C 0.4022(3) 0.3180(2) 0.4038(6) 0.0390 Uani
C20 C 0.3326(3) 0.3276(3) 0.3398(5) 0.0367 Uani
C21 C 0.3348(4) 0.3304(3) 0.2287(5) 0.0423 Uani
H15 H 0.3806 0.3308 0.1920 0.0510 Uiso
C22 C 0.2697(4) 0.3324(3) 0.1719(6) 0.0483 Uani
H16 H 0.2704 0.3360 0.0961 0.0580 Uiso
C23 C 0.2032(4) 0.3293(2) 0.2259(6) 0.0440 Uani
C24 C 0.2001(4) 0.3277(2) 0.3349(6) 0.0447 Uani
H17 H 0.1541 0.3266 0.3710 0.0540 Uiso
C25 C 0.2656(3) 0.3275(2) 0.3924(6) 0.0400 Uani
H18 H 0.2644 0.3274 0.4687 0.0480 Uiso
C26 C 0.0769(4) 0.3507(3) 0.1867(6) 0.0503 Uani
C27 C 0.0104(4) 0.3282(3) 0.1563(6) 0.0490 Uani
H19 H 0.0098 0.2948 0.1296 0.0590 Uiso
C28 C -0.0538(4) 0.3548(3) 0.1655(6) 0.0520 Uani
H20 H -0.0989 0.3399 0.1436 0.0630 Uiso
C29 C -0.0540(4) 0.4037(2) 0.2066(6) 0.0450 Uani
C30 C 0.0119(4) 0.4242(3) 0.2392(6) 0.0427 Uani
H21 H 0.0122 0.4573 0.2673 0.0510 Uiso
C31 C 0.0772(4) 0.3985(3) 0.2324(6) 0.0433 Uani
H22 H 0.1216 0.4129 0.2583 0.0520 Uiso
C32 C -0.1228(4) 0.4357(3) 0.2031(7) 0.0477 Uani
C33 C 1.1118(4) 0.0683(3) -0.0141(5) 0.0377 Uani
C34 C 1.0558(3) 0.1097(2) 0.0022(5) 0.0353 Uani
C35 C 1.0724(4) 0.1587(3) -0.0209(6) 0.0470 Uani
H23 H 1.1205 0.1669 -0.0451 0.0560 Uiso
C36 C 1.0205(4) 0.1967(3) -0.0098(5) 0.0453 Uani
H24 H 1.0326 0.2304 -0.0274 0.0540 Uiso
C37 C 0.9505(4) 0.1845(3) 0.0276(5) 0.0420 Uani
C38 C 0.9334(3) 0.1355(2) 0.0520(6) 0.0423 Uani
H25 H 0.8861 0.1271 0.0791 0.0510 Uiso
C39 C 0.9863(4) 0.0982(3) 0.0364(5) 0.0413 Uani
H26 H 0.9738 0.0642 0.0499 0.0500 Uiso
C40 C 0.8435(3) 0.2232(2) 0.1030(5) 0.0387 Uani
C41 C 0.8517(4) 0.2069(3) 0.2055(6) 0.0557 Uani
H27 H 0.8977 0.1937 0.2284 0.0670 Uiso
C42 C 0.7938(4) 0.2095(3) 0.2764(6) 0.0510 Uani
H28 H 0.7999 0.1973 0.3475 0.0610 Uiso
C43 C 0.7258(3) 0.2298(2) 0.2455(5) 0.0370 Uani
C44 C 0.7195(4) 0.2466(2) 0.1430(5) 0.0427 Uani
H29 H 0.6738 0.2605 0.1208 0.0510 Uiso
C45 C 0.7770(4) 0.2444(2) 0.0687(5) 0.0420 Uani
H30 H 0.7712 0.2568 -0.0024 0.0510 Uiso
C46 C 0.6635(3) 0.2340(3) 0.3255(6) 0.0420 Uani
C47 C -0.2231(4) 0.0184(2) 0.6675(5) 0.0410 Uani
H31 H -0.2719 0.0127 0.6429 0.0490 Uiso
C48 C -0.1699(4) 0.0426(3) 0.6143(5) 0.0440 Uani
H32 H -0.1739 0.0565 0.5443 0.0520 Uiso
C49 C -0.1264(3) 0.0191(2) 0.7704(5) 0.0337 Uani
H33 H -0.0942 0.0142 0.8296 0.0410 Uiso
C50 C -0.0374(4) 0.0636(2) 0.6552(5) 0.0377 Uani
C51 C 0.0047(4) 0.0829(2) 0.7353(6) 0.0383 Uani
H34 H -0.0151 0.0858 0.8057 0.0460 Uiso
C52 C 0.0767(4) 0.0985(2) 0.7149(5) 0.0360 Uani
H35 H 0.1059 0.1116 0.7717 0.0440 Uiso
C53 C 0.1061(3) 0.0951(2) 0.6121(6) 0.0377 Uani
C54 C 0.0598(4) 0.0765(3) 0.5312(6) 0.0450 Uani
H36 H 0.0782 0.0743 0.4600 0.0540 Uiso
C55 C -0.0099(4) 0.0616(3) 0.5507(5) 0.0427 Uani
H37 H -0.0401 0.0498 0.4937 0.0510 Uiso
C56 C 0.1833(4) 0.1101(2) 0.5908(6) 0.0437 Uani
C57 C 0.2202(4) 0.1437(3) 0.6565(6) 0.0433 Uani
H38 H 0.1957 0.1571 0.7174 0.0520 Uiso
C58 C 0.2928(4) 0.1584(3) 0.6352(7) 0.0503 Uani
H39 H 0.3174 0.1814 0.6811 0.0610 Uiso
C59 C 0.3282(4) 0.1386(3) 0.5455(6) 0.0483 Uani
C60 C 0.2940(4) 0.1046(3) 0.4824(7) 0.0550 Uani
H40 H 0.3192 0.0906 0.4227 0.0660 Uiso
C61 C 0.2220(4) 0.0901(3) 0.5046(6) 0.0540 Uani
H41 H 0.1988 0.0659 0.4599 0.0650 Uiso
C62 C 0.4590(4) 0.1263(3) 0.4891(9) 0.0770 Uani
H42 H 0.4603 0.0907 0.4873 0.0930 Uiso
C63 C 0.5134(4) 0.1566(3) 0.4635(8) 0.0730 Uani
H43 H 0.5615 0.1462 0.4435 0.0870 Uiso
C64 C 0.4225(4) 0.2023(3) 0.5070(6) 0.0503 Uani
H44 H 0.3926 0.2304 0.5236 0.0600 Uiso
N1 N 1.2217(3) 0.4809(2) 1.0149(5) 0.0423 Uani
N2 N 1.1442(3) 0.4255(2) 0.9488(5) 0.0480 Uani
N3 N 0.6587(3) 0.3141(2) 0.6878(4) 0.0393 Uani
N4 N 0.5825(3) 0.2974(2) 0.5557(4) 0.0383 Uani
N5 N -0.1941(3) 0.00306(18) 0.7650(4) 0.0343 Uani
N6 N -0.1089(3) 0.04391(18) 0.6785(4) 0.0337 Uani
N7 N 0.4012(3) 0.15488(19) 0.5183(5) 0.0463 Uani
N8 N 0.4901(3) 0.2054(2) 0.4701(5) 0.0413 Uani
O1 O 0.4582(3) 0.30398(17) 0.3504(4) 0.0450 Uani
O2 O 0.3995(3) 0.3220(2) 0.5051(4) 0.0540 Uani
O3 O 0.1409(3) 0.3249(2) 0.1606(4) 0.0607 Uani
O4 O -0.1746(2) 0.41943(17) 0.1422(4) 0.0490 Uani
O5 O -0.1227(3) 0.47619(19) 0.2451(5) 0.0633 Uani
O6 O 1.1732(2) 0.08307(17) -0.0545(4) 0.0447 Uani
O7 O 1.0972(3) 0.02463(18) 0.0073(5) 0.0637 Uani
O8 O 0.9011(3) 0.22365(17) 0.0294(4) 0.0497 Uani
O9 O 0.6077(2) 0.26011(18) 0.2976(4) 0.0457 Uani
O10 O 0.6695(3) 0.2130(2) 0.4120(4) 0.0597 Uani
Zn2C Zn -0.24351(4) -0.03572(3) 0.88342(6) 0.0356 Uani
Zn2A Zn -0.25649(4) 0.46428(3) 0.11658(6) 0.0356 Uani
Zn2B Zn 1.24351(4) 0.03572(3) -0.11658(6) 0.0356 Uani
N5C N 1.3059(3) 0.49694(18) 1.2350(4) 0.0343 Uani
O4A O 1.1746(2) 0.58057(17) 1.1422(4) 0.0490 Uani
O6B O 1.3268(2) 0.58307(17) 1.0545(4) 0.0447 Uani
loop_
_atom_site_aniso_label
_atom_site_aniso_U_11
_atom_site_aniso_U_22
_atom_site_aniso_U_33
_atom_site_aniso_U_23
_atom_site_aniso_U_13
_atom_site_aniso_U_12
Zn1 0.022 0.0464 0.0373 -0.0019 -0.0001 -0.0007
Zn2 0.0229 0.0396 0.0444 0.0045 -0.0019 -0.0006
C1 0.024 0.08 0.083 -0.022 0.005 -0.004
C2 0.031 0.081 0.079 -0.047 0.002 -0.004
C3 0.027 0.065 0.066 0.004 -0.004 -0.004
C4 0.031 0.09 0.136 -0.081 -0.004 -0.001
C5 0.039 0.064 0.082 -0.016 -0.004 0.001
C6 0.037 0.069 0.099 -0.036 -0.017 0.01
C7 0.031 0.063 0.039 -0.021 -0.006 -0.004
C8 0.031 0.09 0.136 -0.081 -0.004 -0.001
C9 0.031 0.09 0.136 -0.081 -0.004 -0.001
C10 0.032 0.058 0.044 -0.018 -0.003 -0.006
C11 0.04 0.044 0.087 -0.022 -0.012 0.003
C12 0.047 0.051 0.088 -0.03 -0.027 0.017
C13 0.038 0.062 0.044 -0.012 -0.009 -0.01
C14 0.031 0.174 0.091 -0.067 -0.012 0.013
C15 0.032 0.175 0.089 -0.077 -0.011 -0.002
C16 0.036 0.037 0.037 0.005 -0.001 0
C17 0.033 0.191 0.04 -0.025 0.005 -0.018
C18 0.033 0.177 0.045 -0.038 0.01 -0.006
C19 0.029 0.035 0.053 0.009 -0.002 -0.006
C20 0.029 0.044 0.037 0 0.003 0.01
C21 0.039 0.05 0.038 0.009 0.005 0.008
C22 0.038 0.067 0.04 0 -0.004 0.016
C23 0.035 0.039 0.058 -0.007 -0.013 0.015
C24 0.029 0.046 0.059 0.013 0.012 0.005
C25 0.036 0.03 0.054 0.014 -0.001 0.003
C26 0.036 0.064 0.051 -0.005 -0.011 0.022
C27 0.04 0.047 0.06 -0.02 -0.012 0.015
C28 0.026 0.055 0.075 -0.005 -0.009 0.001
C29 0.034 0.032 0.069 -0.005 -0.007 0.001
C30 0.028 0.037 0.063 -0.005 -0.002 0.001
C31 0.035 0.051 0.044 -0.012 -0.015 0.006
C32 0.028 0.037 0.078 0.002 0.012 0.004
C33 0.034 0.05 0.029 -0.009 0.001 0
C34 0.035 0.035 0.036 -0.003 -0.004 0.004
C35 0.031 0.058 0.052 -0.005 0.011 0.002
C36 0.053 0.04 0.043 -0.003 0.007 0.008
C37 0.03 0.051 0.045 -0.009 0.006 0.017
C38 0.023 0.05 0.054 -0.004 0.01 -0.003
C39 0.042 0.037 0.045 -0.007 0.004 -0.012
C40 0.021 0.05 0.045 -0.003 0.012 0.005
C41 0.036 0.08 0.051 0 -0.001 0.012
C42 0.035 0.083 0.035 0.005 -0.001 0.011
C43 0.024 0.047 0.04 -0.021 -0.003 0
C44 0.036 0.055 0.037 -0.012 -0.004 0.002
C45 0.045 0.043 0.038 -0.002 0.003 0.009
C46 0.023 0.055 0.048 -0.009 -0.002 -0.006
C47 0.038 0.042 0.043 0.007 -0.008 -0.005
C48 0.043 0.059 0.03 0.007 -0.012 -0.002
C49 0.028 0.031 0.042 0.003 -0.001 0.01
C50 0.031 0.031 0.051 0.011 0.001 -0.007
C51 0.036 0.042 0.037 -0.004 0 0.002
C52 0.038 0.034 0.036 -0.005 0.005 0.001
C53 0.035 0.031 0.047 0 0.006 -0.005
C54 0.046 0.05 0.039 0 0.016 -0.005
C55 0.038 0.063 0.027 -0.009 0.006 -0.016
C56 0.045 0.033 0.053 0.003 0.017 0
C57 0.035 0.044 0.051 0.008 0.012 -0.001
C58 0.041 0.043 0.067 0.005 0.007 -0.007
C59 0.035 0.044 0.066 0.008 0.014 0.003
C60 0.044 0.045 0.076 -0.001 0.02 -0.01
C61 0.049 0.054 0.059 -0.005 0.015 -0.015
C62 0.042 0.036 0.153 0.026 0.012 0.017
C63 0.036 0.053 0.13 0.011 0.012 0.005
C64 0.037 0.054 0.06 0.002 0.008 0.005
N1 0.031 0.047 0.049 -0.007 -0.003 -0.002
N2 0.033 0.061 0.05 -0.023 -0.003 -0.002
N3 0.027 0.06 0.031 -0.01 -0.007 -0.003
N4 0.022 0.061 0.032 -0.002 0.003 -0.005
N5 0.029 0.025 0.049 0.012 -0.001 0.001
N6 0.039 0.029 0.033 0.011 0.006 0.001
N7 0.04 0.031 0.068 0.011 0.013 -0.007
N8 0.028 0.045 0.051 0 0.005 -0.002
O1 0.032 0.052 0.051 0.002 -0.005 0.006
O2 0.038 0.074 0.05 0.002 -0.001 0.007
O3 0.036 0.077 0.069 -0.033 -0.02 0.017
O4 0.025 0.051 0.071 -0.002 0 0.001
O5 0.032 0.047 0.111 -0.02 -0.002 0.012
O6 0.034 0.044 0.056 -0.01 0.003 0.001
O7 0.046 0.046 0.099 0.001 0.013 0.006
O8 0.045 0.052 0.052 0.007 0.02 0.012
O9 0.02 0.057 0.06 -0.002 0.005 0.004
O10 0.033 0.103 0.043 0.005 0.002 0.01
Zn2C 0.0229 0.0396 0.0444 0.0045 0.0019 0.0006
Zn2A 0.0229 0.0396 0.0444 -0.0045 0.0019 -0.0006
Zn2B 0.0229 0.0396 0.0444 -0.0045 -0.0019 0.0006
N5C 0.029 0.025 0.049 0.012 0.001 -0.001
O4A 0.025 0.051 0.071 0.002 0 0.001
O6B 0.034 0.044 0.056 0.01 0.003 -0.001
loop_
_geom_bond_atom_site_label_1
_geom_bond_atom_site_label_2
_geom_bond_site_symmetry_1
_geom_bond_site_symmetry_2
Zn1 N4 1_555 1_555
Zn2 N1 1_555 1_555
C1 H1 1_555 1_555
C2 C1 1_555 1_555
H2 C2 1_555 1_555
C3 H3 1_555 1_555
C4 C5 1_555 1_555
C5 H4 1_555 1_555
C6 C5 1_555 1_555
H5 C6 1_555 1_555
C7 C6 1_555 1_555
C8 C7 1_555 1_555
H6 C8 1_555 1_555
C9 C4 1_555 1_555
H7 C9 1_555 1_555
C10 C7 1_555 1_555
C11 C10 1_555 1_555
H8 C11 1_555 1_555
C12 C11 1_555 1_555
H9 C12 1_555 1_555
C13 C12 1_555 1_555
C14 C13 1_555 1_555
H10 C14 1_555 1_555
C15 C10 1_555 1_555
H11 C15 1_555 1_555
C16 H12 1_555 1_555
C17 H13 1_555 1_555
C18 C17 1_555 1_555
H14 C18 1_555 1_555
C19 C20 1_555 1_555
C20 C21 1_555 1_555
C21 H15 1_555 1_555
C22 C21 1_555 1_555
H16 C22 1_555 1_555
C23 C22 1_555 1_555
C24 C23 1_555 1_555
H17 C24 1_555 1_555
C25 C20 1_555 1_555
H18 C25 1_555 1_555
C26 C27 1_555 1_555
C27 H19 1_555 1_555
C28 C27 1_555 1_555
H20 C28 1_555 1_555
C29 C28 1_555 1_555
C30 C29 1_555 1_555
H21 C30 1_555 1_555
C31 C26 1_555 1_555
H22 C31 1_555 1_555
C32 C29 1_555 1_555
C33 C34 1_555 1_555
C34 C35 1_555 1_555
C35 H23 1_555 1_555
C36 C35 1_555 1_555
H24 C36 1_555 1_555
C37 C36 1_555 1_555
C38 C37 1_555 1_555
H25 C38 1_555 1_555
C39 C34 1_555 1_555
H26 C39 1_555 1_555
C40 C41 1_555 1_555
C41 H27 1_555 1_555
C42 C41 1_555 1_555
H28 C42 1_555 1_555
C43 C42 1_555 1_555
C44 C43 1_555 1_555
H29 C44 1_555 1_555
C45 C40 1_555 1_555
H30 C45 1_555 1_555
C46 C43 1_555 1_555
C47 H31 1_555 1_555
C48 C47 1_555 1_555
H32 C48 1_555 1_555
C49 H33 1_555 1_555
C50 C51 1_555 1_555
C51 H34 1_555 1_555
C52 C51 1_555 1_555
H35 C52 1_555 1_555
C53 C52 1_555 1_555
C54 C53 1_555 1_555
H36 C54 1_555 1_555
C55 C50 1_555 1_555
H37 C55 1_555 1_555
C56 C53 1_555 1_555
C57 C56 1_555 1_555
H38 C57 1_555 1_555
C58 C57 1_555 1_555
H39 C58 1_555 1_555
C59 C58 1_555 1_555
C60 C59 1_555 1_555
H40 C60 1_555 1_555
C61 C56 1_555 1_555
H41 C61 1_555 1_555
C62 H42 1_555 1_555
C63 C62 1_555 1_555
H43 C63 1_555 1_555
C64 H44 1_555 1_555
N1 C1 1_555 1_555
N2 C2 1_555 1_555
N3 C13 1_555 1_555
N4 C16 1_555 1_555
N5 C47 1_555 1_555
N6 C48 1_555 1_555
N7 C59 1_555 1_555
N8 Zn1 1_555 1_555
O1 Zn1 1_555 1_555
O2 C19 1_555 1_555
O3 C23 1_555 1_555
O4 C32 1_555 1_555
O5 C32 1_555 1_555
O6 C33 1_555 1_555
O7 C33 1_555 1_555
O8 C37 1_555 1_555
O9 Zn1 1_555 1_555
O10 C46 1_555 1_555
Zn2C N5 1_555 1_555
Zn2A O4 1_555 1_555
Zn2B O6 1_555 1_555
N5C Zn2 1_555 1_555
O4A Zn2 1_555 1_555
O6B Zn2 1_555 1_555
C3 N1 1_555 1_555
C3 N2 1_555 1_555
C4 N2 1_555 1_555
C8 C9 1_555 1_555
C14 C15 1_555 1_555
C16 N3 1_555 1_555
C17 N4 1_555 1_555
C18 N3 1_555 1_555
C19 O1 1_555 1_555
C24 C25 1_555 1_555
C26 O3 1_555 1_555
C30 C31 1_555 1_555
C38 C39 1_555 1_555
C40 O8 1_555 1_555
C44 C45 1_555 1_555
C46 O9 1_555 1_555
C49 N5 1_555 1_555
C49 N6 1_555 1_555
C50 N6 1_555 1_555
C54 C55 1_555 1_555
C60 C61 1_555 1_555
C62 N7 1_555 1_555
C63 N8 1_555 1_555
C64 N7 1_555 1_555
C64 N8 1_555 1_555

#END
