
#######################################################################
#
#                 Cambridge Crystallographic Data Centre
#                                CCDC 
#
#######################################################################
#
# If this CIF has been generated from an entry in the Cambridge 
# Structural Database, then it will include bibliographic, chemical, 
# crystal, experimental, refinement or atomic coordinate data resulting 
# from the CCDC's data processing and validation procedures.
#
#######################################################################

data_TETZEZ
_chemical_formula_moiety         '(C276 H180 N26 O70 Zn22)n'
_symmetry_cell_setting           triclinic
_symmetry_space_group_name_H-M   'P -1'
_symmetry_Int_Tables_number      2
_space_group_name_Hall           '-P 1'
loop_
_symmetry_equiv_pos_site_id
_symmetry_equiv_pos_as_xyz
1 x,y,z
2 -x,-y,-z
_cell_length_a                   22.6778(8)
_cell_length_b                   24.1597(15)
_cell_length_c                   25.3477(16)
_cell_angle_alpha                66.5806(10)
_cell_angle_beta                 81.0540(10)
_cell_angle_gamma                88.0370(12)
_cell_volume                     12582.8
loop_
_atom_site_label
_atom_site_type_symbol
_atom_site_fract_x
_atom_site_fract_y
_atom_site_fract_z
Zn5 Zn 0.11957(5) 0.84891(5) 0.28937(5)
Zn6 Zn 0.97358(6) 0.81259(6) 0.32409(5)
N9 N 0.3907(4) 0.8912(5) 0.2695(4)
H5 H 0.3989 0.9090 0.2910
N10 N 0.2078(3) 0.8650(3) 0.2784(3)
N11 N 0.7160(5) 0.8571(6) 0.2795(5)
H6 H 0.7061 0.8333 0.2642
N12 N 0.8874(4) 0.8350(5) 0.3104(5)
O5 O 0.4324(4) 0.8511(6) 0.2008(5)
O6 O 0.6855(8) 0.9296(9) 0.3101(8)
O23 O 0.0917(3) 0.7705(3) 0.3483(3)
O24 O 0.1362(3) 0.7491(3) 0.2765(3)
O25 O 0.0578(3) 0.2514(3) 0.5758(3)
O26 O 0.0346(3) 0.2786(3) 0.6491(3)
O27 O 0.0897(3) 0.8972(3) 0.3344(2)
O28 O -0.0055(2) 0.8747(3) 0.3495(2)
O29 O 0.0954(3) 0.8889(3) 0.2138(2)
O30 O 0.0062(3) 0.8422(3) 0.2398(3)
C37 C 0.4379(6) 0.8754(7) 0.2371(7)
C38 C 0.6733(8) 0.8891(9) 0.2924(8)
C39 C 0.4992(7) 0.8789(9) 0.2517(8)
C40 C 0.5085(9) 0.9014(10) 0.2924(10)
H31 H 0.4769 0.9175 0.3093
C41 C 0.5648(9) 0.8999(11) 0.3080(11)
H32 H 0.5710 0.9150 0.3353
C42 C 0.6119(7) 0.8759(9) 0.2827(9)
C43 C 0.6027(9) 0.8533(12) 0.2420(10)
H33 H 0.6343 0.8372 0.2251
C44 C 0.5464(9) 0.8548(11) 0.2264(9)
H34 H 0.5402 0.8397 0.1992
C45 C 0.2319(4) 0.8856(4) 0.3121(4)
H35 H 0.2055 0.8941 0.3397
C46 C 0.2894(4) 0.8954(4) 0.3106(4)
H36 H 0.3026 0.9114 0.3347
C47 C 0.3300(5) 0.8800(5) 0.2697(5)
C48 C 0.3074(5) 0.8592(5) 0.2333(5)
H37 H 0.3329 0.8506 0.2052
C49 C 0.2470(4) 0.8514(5) 0.2390(4)
H38 H 0.2321 0.8362 0.2151
C50 C 0.8518(8) 0.8643(9) 0.3353(9)
H39 H 0.8662 0.8815 0.3580
C51 C 0.7921(8) 0.8695(9) 0.3274(9)
H40 H 0.7650 0.8826 0.3511
C52 C 0.7731(6) 0.8562(8) 0.2868(7)
C53 C 0.8126(8) 0.8317(9) 0.2529(9)
H41 H 0.8012 0.8244 0.2225
C54 C 0.8696(7) 0.8193(9) 0.2681(9)
H42 H 0.8962 0.8001 0.2495
C111 C 0.1124(4) 0.7313(5) 0.3280(5)
C112 C 0.1068(4) 0.6671(4) 0.3669(4)
C113 C 0.0959(4) 0.6500(4) 0.4258(4)
H75 H 0.0926 0.6801 0.4402
C114 C 0.0896(4) 0.5901(4) 0.4657(4)
H76 H 0.0813 0.5802 0.5056
C115 C 0.0965(4) 0.5431(5) 0.4422(4)
C116 C 0.1097(4) 0.5610(4) 0.3838(4)
H77 H 0.1154 0.5320 0.3681
C117 C 0.1149(4) 0.6229(4) 0.3460(4)
H78 H 0.1240 0.6337 0.3061
C118 C 0.0515(4) 0.2940(5) 0.5951(5)
C119 C 0.0650(4) 0.3580(4) 0.5552(5)
C120 C 0.0891(5) 0.3739(5) 0.4987(5)
H79 H 0.1006 0.3443 0.4847
C121 C 0.0966(5) 0.4346(5) 0.4618(5)
H80 H 0.1081 0.4445 0.4222
C122 C 0.0880(4) 0.4804(5) 0.4806(5)
C123 C 0.0675(4) 0.4604(5) 0.5388(5)
H81 H 0.0611 0.4892 0.5548
C124 C 0.0552(4) 0.3986(5) 0.5772(4)
H82 H 0.0406 0.3877 0.6165
C125 C 0.0381(4) 0.8998(4) 0.3570(4)
C126 C 0.0263(4) 0.9325(4) 0.3968(4)
C127 C 0.0728(4) 0.9533(4) 0.4143(4)
H83 H 0.1120 0.9490 0.3994
C128 C 0.0614(4) 0.9807(4) 0.4543(4)
H84 H 0.0934 0.9954 0.4643
C129 C 0.0060(4) 0.9863(4) 0.4784(4)
C130 C -0.0410(4) 0.9639(4) 0.4634(4)
H85 H -0.0800 0.9683 0.4787
C131 C -0.0300(4) 0.9348(4) 0.4255(4)
H86 H -0.0618 0.9162 0.4193
C132 C 0.0460(4) 0.8790(5) 0.2025(4)
C133 C 0.0323(5) 0.9129(5) 0.1436(4)
C134 C 0.0733(5) 0.9513(5) 0.1017(4)
H87 H 0.1105 0.9565 0.1104
C135 C 0.0602(5) 0.9836(5) 0.0448(4)
H88 H 0.0903 1.0073 0.0161
C136 C 0.0061(5) 0.9812(5) 0.0308(4)
C137 C -0.0314(5) 0.9385(6) 0.0686(5)
H89 H -0.0649 0.9281 0.0571
C138 C -0.0210(5) 0.9076(5) 0.1279(4)
H90 H -0.0514 0.8836 0.1559
Zn5A Zn -0.11957(5) 1.15109(5) 0.71063(5)
Zn5A_2 Zn -0.11957(5) 1.15109(5) -0.28937(5)
Zn5A_3 Zn 0.88043(5) 0.15109(5) 0.71063(5)
Zn6A Zn 0.02642(6) 0.18741(6) 0.67591(5)
Zn6_2 Zn -0.02642(6) 0.81259(6) 0.32409(5)
Zn6A_2 Zn 0.02642(6) 1.18741(6) 0.67591(5)
Zn6A_3 Zn 0.02642(6) 1.18741(6) -0.32409(5)
Zn6A_4 Zn -0.97358(6) 1.18741(6) 0.67591(5)
N9A N -0.3907(4) 1.1088(5) 0.7305(4)
H5A H -0.3989 1.0910 0.7090
N10A N -0.2078(3) 1.1350(3) 0.7216(3)
N11A N -0.7160(5) 1.1429(6) 0.7205(5)
H6A H -0.7061 1.1667 0.7358
N12A N -0.8874(4) 1.1650(5) 0.6896(5)
N12A_2 N 0.1126(4) 0.1650(5) 0.6896(5)
O5A O -0.4324(4) 1.1489(6) 0.7992(5)
O6A O -0.6855(8) 1.0704(9) 0.6899(8)
O23A O 0.9083(3) 0.2295(3) 0.6517(3)
O23A_2 O -0.0917(3) 1.2295(3) 0.6517(3)
O24A O 0.8638(3) 0.2509(3) 0.7235(3)
O25A O 0.9422(3) 0.7486(3) 0.4242(3)
O26A O 0.9654(3) 0.7214(3) 0.3509(3)
O27A O -0.0897(3) 1.1028(3) 0.6656(2)
O28A O 0.0055(2) 1.1253(3) 0.6505(2)
O28_2 O 0.9945(2) 0.8747(3) 0.3495(2)
O28A_2 O 0.0055(2) 0.1253(3) 0.6505(2)
O29A O -0.0954(3) 1.1111(3) -0.2138(2)
O29A_2 O -0.0954(3) 1.1111(3) 0.7862(2)
O30A O -0.0062(3) 1.1578(3) -0.2398(3)
O30_2 O 1.0062(3) 0.8422(3) 0.2398(3)
O30A_2 O -0.0062(3) 0.1578(3) 0.7602(3)
C37A C -0.4379(6) 1.1246(7) 0.7629(7)
C38A C -0.6733(8) 1.1109(9) 0.7076(8)
C39A C -0.4992(7) 1.1211(9) 0.7483(8)
C40A C -0.5085(9) 1.0986(10) 0.7076(10)
H31A H -0.4769 1.0825 0.6907
C41A C -0.5648(9) 1.1001(11) 0.6920(11)
H32A H -0.5710 1.0850 0.6647
C42A C -0.6119(7) 1.1241(9) 0.7173(9)
C43A C -0.6027(9) 1.1467(12) 0.7580(10)
H33A H -0.6343 1.1628 0.7749
C44A C -0.5464(9) 1.1452(11) 0.7736(9)
H34A H -0.5402 1.1603 0.8008
C45A C -0.2319(4) 1.1144(4) 0.6879(4)
H35A H -0.2055 1.1059 0.6603
C46A C -0.2894(4) 1.1046(4) 0.6894(4)
H36A H -0.3026 1.0886 0.6653
C47A C -0.3300(5) 1.1200(5) 0.7303(5)
C48A C -0.3074(5) 1.1408(5) 0.7667(5)
H37A H -0.3329 1.1494 0.7948
C49A C -0.2470(4) 1.1486(5) 0.7610(4)
H38A H -0.2321 1.1638 0.7849
C50A C -0.8518(8) 1.1357(9) 0.6647(9)
H39A H -0.8662 1.1185 0.6420
C51A C -0.7921(8) 1.1305(9) 0.6726(9)
H40A H -0.7650 1.1174 0.6489
C52A C -0.7731(6) 1.1438(8) 0.7132(7)
C53A C -0.8126(8) 1.1683(9) 0.7471(9)
H41A H -0.8012 1.1756 0.7775
C54A C -0.8696(7) 1.1807(9) 0.7319(9)
H42A H -0.8962 1.1999 0.7505
C111A C 0.8876(4) 0.2687(5) 0.6720(5)
C112A C 0.8932(4) 0.3329(4) 0.6331(4)
C113A C 0.9041(4) 0.3500(4) 0.5742(4)
H75A H 0.9074 0.3199 0.5598
C114A C 0.9104(4) 0.4099(4) 0.5343(4)
H76A H 0.9187 0.4198 0.4944
C115A C 0.9035(4) 0.4569(5) 0.5578(4)
C116A C 0.8903(4) 0.4390(4) 0.6162(4)
H77A H 0.8846 0.4680 0.6319
C117A C 0.8851(4) 0.3771(4) 0.6540(4)
H78A H 0.8760 0.3663 0.6939
C118A C 0.9485(4) 0.7060(5) 0.4049(5)
C119A C 0.9350(4) 0.6420(4) 0.4448(5)
C120A C 0.9109(5) 0.6261(5) 0.5013(5)
H79A H 0.8994 0.6557 0.5153
C121A C 0.9034(5) 0.5654(5) 0.5382(5)
H80A H 0.8919 0.5555 0.5778
C122A C 0.9120(4) 0.5196(5) 0.5194(5)
C123A C 0.9325(4) 0.5396(5) 0.4612(5)
H81A H 0.9389 0.5108 0.4452
C124A C 0.9448(4) 0.6014(5) 0.4228(4)
H82A H 0.9594 0.6123 0.3835
C125A C -0.0381(4) 1.1002(4) 0.6430(4)
C126A C -0.0263(4) 1.0675(4) 0.6032(4)
C127A C -0.0728(4) 1.0467(4) 0.5857(4)
H83A H -0.1120 1.0510 0.6006
C128A C -0.0614(4) 1.0193(4) 0.5457(4)
H84A H -0.0934 1.0046 0.5357
C129A C -0.0060(4) 1.0137(4) 0.5216(4)
C130A C 0.0410(4) 1.0361(4) 0.5366(4)
H85A H 0.0800 1.0317 0.5213
C131A C 0.0300(4) 1.0652(4) 0.5745(4)
H86A H 0.0618 1.0838 0.5807
C132A C -0.0460(4) 1.1210(5) -0.2025(4)
C133A C -0.0323(5) 1.0871(5) -0.1436(4)
C134A C -0.0733(5) 1.0487(5) -0.1017(4)
H87A H -0.1105 1.0435 -0.1104
C135A C -0.0602(5) 1.0164(5) -0.0448(4)
H88A H -0.0903 0.9927 -0.0161
C136A C -0.0061(5) 1.0188(5) -0.0308(4)
C137A C 0.0314(5) 1.0615(6) -0.0686(5)
H89A H 0.0649 1.0719 -0.0571
C138A C 0.0210(5) 1.0924(5) -0.1279(4)
H90A H 0.0514 1.1164 -0.1559
Zn1 Zn 0.22584(5) -0.16353(5) 0.49362(5)
Zn2 Zn -0.61937(5) -0.13799(6) 0.45902(5)
Zn3 Zn 0.28555(6) 0.50152(6) 0.10257(6)
Zn4 Zn 0.43870(5) -0.47108(6) 0.08272(5)
N1 N -0.0425(3) -0.2267(3) 0.5216(3)
H1 H -0.0521 -0.2304 0.4917
N2 N 0.1399(3) -0.1881(3) 0.5065(3)
N3 N -0.3577(4) -0.1994(5) 0.5044(4)
H2 H -0.3346 -0.1682 0.4848
N4 N -0.5318(3) -0.1602(4) 0.4706(4)
N5 N 0.0292(5) 0.5802(6) 0.0598(5)
H3 H 0.0127 0.5942 0.0847
N6 N 0.2021(4) 0.5315(5) 0.0840(5)
N7 N -0.2935(4) 0.5929(5) 0.0298(4)
H4 H -0.2778 0.6002 -0.0056
N8 N -0.4763(4) 0.5548(4) 0.0656(4)
O1 O -0.0789(3) -0.2399(4) 0.6155(3)
O2 O -0.3615(3) -0.2933(5) 0.5654(4)
O3 O 0.0192(5) 0.5716(7) -0.0248(5)
O4 O -0.2776(5) 0.5858(7) 0.1185(5)
O7 O 0.2459(3) -0.0865(3) 0.4278(3)
O8 O 0.2007(3) -0.0587(3) 0.4952(3)
O9 O 0.2795(3) 0.4209(3) 0.1606(3)
O10 O 0.2564(3) 0.3950(3) 0.0905(3)
O11 O -0.6221(3) -0.0496(3) 0.4415(3)
O12 O -0.5958(3) -0.0631(3) 0.3594(3)
O13 O -0.5759(3) 0.4427(3) 0.1115(3)
O14 O -0.5502(3) 0.4545(3) 0.1878(3)
O15 O 0.2587(3) -0.2179(3) 0.4558(3)
O16 O 0.3561(3) -0.1934(3) 0.4278(3)
O17 O 0.3039(3) -0.4499(3) 0.1453(3)
O18 O 0.3980(3) -0.4218(3) 0.1191(3)
O19 O 0.2487(3) -0.1965(3) 0.5696(2)
O20 O 0.3486(3) -0.1763(3) 0.5428(3)
O21 O 0.3251(3) -0.4701(3) 1.0231(3)
O22 O 0.4210(3) -0.4403(3) 1.0043(3)
C1 C -0.0885(4) -0.2343(5) 0.5685(5)
C2 C -0.3319(5) -0.2432(6) 0.5333(6)
C3 C -0.1482(4) -0.2402(5) 0.5543(5)
C4 C -0.1692(4) -0.2023(5) 0.5058(5)
H7 H -0.1429 -0.1739 0.4765
C5 C -0.2292(5) -0.2039(5) 0.4979(5)
H8 H -0.2415 -0.1788 0.4631
C6 C -0.2707(4) -0.2447(5) 0.5442(5)
C7 C -0.2480(4) -0.2876(5) 0.5942(5)
H9 H -0.2732 -0.3179 0.6227
C8 C -0.1908(4) -0.2839(5) 0.6000(5)
H10 H -0.1777 -0.3099 0.6341
C9 C 0.1171(4) -0.2047(4) 0.4708(4)
H11 H 0.1433 -0.2082 0.4403
C10 C 0.0587(4) -0.2172(4) 0.4743(4)
H12 H 0.0459 -0.2281 0.4465
C11 C 0.0179(4) -0.2136(4) 0.5201(4)
C12 C 0.0386(4) -0.1949(5) 0.5595(4)
H13 H 0.0133 -0.1909 0.5903
C13 C 0.1000(4) -0.1826(5) 0.5497(4)
H14 H 0.1148 -0.1696 0.5751
C14 C -0.4895(6) -0.1180(6) 0.4478(6)
H15 H -0.4982 -0.0794 0.4229
C15 C -0.4302(5) -0.1306(6) 0.4608(6)
H16 H -0.4007 -0.1001 0.4458
C16 C -0.4169(5) -0.1895(6) 0.4964(5)
C17 C -0.4580(5) -0.2324(6) 0.5129(5)
H17 H -0.4488 -0.2726 0.5323
C18 C -0.5175(5) -0.2164(6) 0.5004(5)
H18 H -0.5470 -0.2467 0.5138
C19 C -0.0001(7) 0.5782(9) 0.0231(9)
C20 C -0.2573(6) 0.5927(7) 0.0655(7)
C21 C -0.0668(7) 0.5860(10) 0.0280(8)
C22 C -0.0993(7) 0.6077(9) -0.0179(8)
H19 H -0.0797 0.6210 -0.0561
C23 C -0.1612(7) 0.6094(9) -0.0069(8)
H20 H -0.1829 0.6239 -0.0377
C24 C -0.1906(7) 0.5895(10) 0.0500(8)
C25 C -0.1581(9) 0.5678(11) 0.0960(9)
H21 H -0.1778 0.5544 0.1341
C26 C -0.0962(8) 0.5660(10) 0.0850(9)
H22 H -0.0745 0.5515 0.1158
C27 C 0.1683(6) 0.5493(7) 0.1179(6)
H23 H 0.1836 0.5542 0.1478
C28 C 0.1046(6) 0.5629(7) 0.1117(7)
H24 H 0.0781 0.5721 0.1387
C29 C 0.0884(6) 0.5605(8) 0.0623(7)
C30 C 0.1228(6) 0.5403(7) 0.0311(6)
H25 H 0.1103 0.5353 0.0001
C31 C 0.1816(6) 0.5250(7) 0.0441(6)
H26 H 0.2063 0.5091 0.0211
C32 C -0.4460(5) 0.5598(5) 0.1062(5)
H27 H -0.4686 0.5564 0.1413
C33 C -0.3854(5) 0.5692(5) 0.1005(5)
H28 H -0.3660 0.5672 0.1309
C34 C -0.3562(5) 0.5820(6) 0.0443(6)
C35 C -0.3855(5) 0.5843(5) -0.0002(5)
H29 H -0.3653 0.5938 -0.0377
C36 C -0.4463(4) 0.5719(5) 0.0136(5)
H30 H -0.4671 0.5762 -0.0166
C55 C 0.2235(4) -0.0432(5) 0.4434(5)
C56 C 0.2298(4) 0.0169(4) 0.4013(5)
C57 C 0.2134(4) 0.0638(5) 0.4171(5)
H43 H 0.1986 0.0561 0.4558
C58 C 0.2186(4) 0.1220(5) 0.3764(5)
H44 H 0.2084 0.1530 0.3889
C59 C 0.2384(4) 0.1375(5) 0.3171(5)
C60 C 0.2539(4) 0.0902(5) 0.3004(5)
H45 H 0.2680 0.0973 0.2617
C61 C 0.2480(4) 0.0320(5) 0.3428(5)
H46 H 0.2571 0.0006 0.3307
C62 C 0.2653(5) 0.3803(5) 0.1412(5)
C63 C 0.2577(4) 0.3171(5) 0.1892(5)
C64 C 0.2694(4) 0.3042(5) 0.2421(5)
H47 H 0.2827 0.3349 0.2512
C65 C 0.2625(4) 0.2449(5) 0.2851(5)
H48 H 0.2703 0.2373 0.3223
C66 C 0.2445(5) 0.1990(5) 0.2730(5)
C67 C 0.2339(5) 0.2145(5) 0.2166(5)
H49 H 0.2214 0.1843 0.2064
C68 C 0.2412(5) 0.2740(5) 0.1740(5)
H50 H 0.2346 0.2829 0.1362
C69 C -0.6076(4) -0.0278(5) 0.3853(5)
C70 C -0.5998(4) 0.0375(5) 0.3533(5)
C71 C -0.6170(4) 0.0753(5) 0.3828(5)
H51 H -0.6333 0.0592 0.4220
C72 C -0.6088(4) 0.1395(5) 0.3510(5)
H52 H -0.6180 0.1651 0.3703
C73 C -0.5883(4) 0.1623(5) 0.2945(5)
C74 C -0.5718(5) 0.1213(5) 0.2665(5)
H53 H -0.5559 0.1370 0.2272
C75 C -0.5785(4) 0.0625(5) 0.2947(5)
H54 H -0.5687 0.0376 0.2747
C76 C -0.5647(5) 0.4199(5) 0.1630(5)
C77 C -0.5706(4) 0.3545(5) 0.1989(5)
C78 C -0.5637(4) 0.3288(5) 0.2557(5)
H55 H -0.5539 0.3531 0.2740
C79 C -0.5708(4) 0.2679(5) 0.2866(5)
H56 H -0.5681 0.2521 0.3261
C80 C -0.5820(4) 0.2280(5) 0.2608(5)
C81 C -0.5873(4) 0.2552(5) 0.2010(5)
H57 H -0.5942 0.2309 0.1818
C82 C -0.5825(4) 0.3169(5) 0.1708(5)
H58 H -0.5870 0.3338 0.1317
C83 C 0.3096(4) -0.2226(4) 0.4289(4)
C84 C 0.3144(4) -0.2576(4) 0.3933(4)
C85 C 0.2653(4) -0.2798(4) 0.3825(4)
H59 H 0.2276 -0.2757 0.4009
C86 C 0.2708(4) -0.3081(4) 0.3449(4)
H60 H 0.2363 -0.3231 0.3391
C87 C 0.3243(4) -0.3156(4) 0.3151(4)
C88 C 0.3741(4) -0.2901(5) 0.3246(5)
H61 H 0.4116 -0.2909 0.3041
C89 C 0.3674(4) -0.2632(5) 0.3652(5)
H62 H 0.4014 -0.2488 0.3727
C90 C 0.3491(5) -0.4212(5) 0.1475(5)
C91 C 0.3399(5) -0.3966(5) 0.1911(5)
C92 C 0.3858(5) -0.3769(5) 0.2051(5)
H63 H 0.4238 -0.3817 0.1877
C93 C 0.3816(5) -0.3491(6) 0.2443(5)
H64 H 0.4165 -0.3349 0.2502
C94 C 0.3300(5) -0.3420(5) 0.2736(5)
C95 C 0.2837(5) -0.3658(5) 0.2598(5)
H65 H 0.2459 -0.3639 0.2794
C96 C 0.2859(5) -0.3915(5) 0.2214(5)
H66 H 0.2510 -0.4058 0.2154
C97 C 0.3012(5) -0.1985(5) 0.5784(4)
C98 C 0.3137(4) -0.2370(5) 0.6375(4)
C99 C 0.2687(5) -0.2570(5) 0.6841(4)
H67 H 0.2297 -0.2457 0.6788
C100 C 0.2806(5) -0.2939(5) 0.7391(4)
H68 H 0.2488 -0.3062 0.7696
C101 C 0.3371(5) -0.3133(5) 0.7512(4)
C102 C 0.3831(5) -0.2899(6) 0.7071(5)
H69 H 0.4222 -0.2980 0.7142
C103 C 0.3716(5) -0.2524(5) 0.6491(4)
H70 H 0.4035 -0.2382 0.6188
C104 C 0.3727(5) -0.4451(5) 0.9888(4)
C105 C 0.3640(5) -0.4127(5) 0.9261(4)
C106 C 0.3115(5) -0.4171(5) 0.9082(5)
H71 H 0.2801 -0.4402 0.9355
C107 C 0.3033(5) -0.3884(5) 0.8508(5)
H72 H 0.2685 -0.3952 0.8388
C108 C 0.3482(5) -0.3492(5) 0.8113(4)
C109 C 0.4024(5) -0.3457(5) 0.8294(4)
H73 H 0.4336 -0.3206 0.8036
C110 C 0.4092(5) -0.3813(5) 0.8880(4)
H74 H 0.4463 -0.3824 0.8996
Zn1_2 Zn 1.22584(5) -0.16353(5) 0.49362(5)
Zn1_3 Zn -0.77416(5) -0.16353(5) 0.49362(5)
Zn1_4 Zn 0.22584(5) -1.16353(5) 0.49362(5)
Zn2_2 Zn 0.38063(5) -0.13799(6) 0.45902(5)
Zn2_3 Zn 0.38063(5) -1.13799(6) 0.45902(5)
Zn3_2 Zn 0.28555(6) -0.49848(6) 0.10257(6)
Zn3_3 Zn 0.28555(6) -0.49848(6) 1.10257(6)
Zn3_4 Zn -0.71445(6) -0.49848(6) 0.10257(6)
Zn3_5 Zn -0.71445(6) -0.49848(6) 1.10257(6)
Zn3_6 Zn 1.28555(6) -0.49848(6) 0.10257(6)
Zn4_2 Zn 0.43870(5) -0.47108(6) 1.08272(5)
Zn4_3 Zn -0.56130(5) 0.52892(6) 0.08272(5)
Zn4_4 Zn -0.56130(5) -0.47108(6) 0.08272(5)
Zn4_5 Zn -0.56130(5) -0.47108(6) 1.08272(5)
N1_2 N 0.9575(3) -0.2267(3) 0.5216(3)
H1_2 H 0.9479 -0.2304 0.4917
N2_2 N 1.1399(3) -0.1881(3) 0.5065(3)
N3_2 N 0.6423(4) -0.1994(5) 0.5044(4)
H2_2 H 0.6654 -0.1682 0.4848
N4_2 N 0.4682(3) -0.1602(4) 0.4706(4)
N5_2 N 1.0292(5) -0.4198(6) 0.0598(5)
H3_2 H 1.0127 -0.4058 0.0847
N6_2 N 1.2021(4) -0.4685(5) 0.0840(5)
N6_3 N 0.2021(4) -0.4685(5) 0.0840(5)
N7_2 N 0.7065(4) -0.4071(5) 0.0298(4)
H4_2 H 0.7222 -0.3998 -0.0056
N8_2 N 0.5237(4) -0.4452(4) 0.0656(4)
N8_3 N 0.5237(4) -0.4452(4) 1.0656(4)
O1_2 O 0.9211(3) -0.2399(4) 0.6155(3)
O2_2 O 0.6385(3) -0.2933(5) 0.5654(4)
O3_2 O 1.0192(5) -0.4284(7) -0.0248(5)
O4_2 O 0.7224(5) -0.4142(7) 0.1185(5)
O7_2 O 0.2459(3) -1.0865(3) 0.4278(3)
O7_3 O 1.2459(3) -0.0865(3) 0.4278(3)
O8_2 O 0.2007(3) -1.0587(3) 0.4952(3)
O9_2 O 0.2795(3) -0.5791(3) 0.1606(3)
O10_2 O 0.2564(3) -0.6050(3) 0.0905(3)
O11_2 O 0.3779(3) -1.0496(3) 0.4415(3)
O11_3 O 0.3779(3) -0.0496(3) 0.4415(3)
O12_2 O 0.4042(3) -1.0631(3) 0.3594(3)
O13_2 O 0.4241(3) -0.5573(3) 0.1115(3)
O13_3 O 0.4241(3) -0.5573(3) 1.1115(3)
O14_2 O 0.4498(3) -0.5455(3) 0.1878(3)
O15_2 O -0.7413(3) -0.2179(3) 0.4558(3)
O15_3 O 1.2587(3) -0.2179(3) 0.4558(3)
O16_2 O -0.6439(3) -0.1934(3) 0.4278(3)
O17_2 O -0.6961(3) -0.4499(3) 0.1453(3)
O17_3 O 0.3039(3) 0.5501(3) 0.1453(3)
O18_2 O -0.6020(3) -0.4218(3) 0.1191(3)
O18_3 O 0.3980(3) -0.4218(3) 1.1191(3)
O19_2 O -0.7513(3) -0.1965(3) 0.5696(2)
O19_3 O 1.2487(3) -0.1965(3) 0.5696(2)
O20_2 O -0.6514(3) -0.1763(3) 0.5428(3)
O21_2 O -0.6749(3) -0.4701(3) 1.0231(3)
O21_3 O 0.3251(3) 0.5299(3) 0.0231(3)
O21_4 O 0.3251(3) -0.4701(3) 0.0231(3)
O22_2 O -0.5790(3) -0.4403(3) 1.0043(3)
O22_3 O 0.4210(3) -0.4403(3) 0.0043(3)
C1_2 C 0.9115(4) -0.2343(5) 0.5685(5)
C2_2 C 0.6681(5) -0.2432(6) 0.5333(6)
C3_2 C 0.8518(4) -0.2402(5) 0.5543(5)
C4_2 C 0.8308(4) -0.2023(5) 0.5058(5)
H7_2 H 0.8571 -0.1739 0.4765
C5_2 C 0.7708(5) -0.2039(5) 0.4979(5)
H8_2 H 0.7585 -0.1788 0.4631
C6_2 C 0.7293(4) -0.2447(5) 0.5442(5)
C7_2 C 0.7520(4) -0.2876(5) 0.5942(5)
H9_2 H 0.7268 -0.3179 0.6227
C8_2 C 0.8092(4) -0.2839(5) 0.6000(5)
H10_2 H 0.8223 -0.3099 0.6341
C9_2 C 1.1171(4) -0.2047(4) 0.4708(4)
H11_2 H 1.1433 -0.2082 0.4403
C10_2 C 1.0587(4) -0.2172(4) 0.4743(4)
H12_2 H 1.0459 -0.2281 0.4465
C11_2 C 1.0179(4) -0.2136(4) 0.5201(4)
C12_2 C 1.0386(4) -0.1949(5) 0.5595(4)
H13_2 H 1.0133 -0.1909 0.5903
C13_2 C 1.1000(4) -0.1826(5) 0.5497(4)
H14_2 H 1.1148 -0.1696 0.5751
C14_2 C 0.5105(6) -0.1180(6) 0.4478(6)
H15_2 H 0.5018 -0.0794 0.4229
C15_2 C 0.5698(5) -0.1306(6) 0.4608(6)
H16_2 H 0.5993 -0.1001 0.4458
C16_2 C 0.5831(5) -0.1895(6) 0.4964(5)
C17_2 C 0.5420(5) -0.2324(6) 0.5129(5)
H17_2 H 0.5512 -0.2726 0.5323
C18_2 C 0.4825(5) -0.2164(6) 0.5004(5)
H18_2 H 0.4530 -0.2467 0.5138
C19_2 C 0.9999(7) -0.4218(9) 0.0231(9)
C20_2 C 0.7427(6) -0.4073(7) 0.0655(7)
C21_2 C 0.9332(7) -0.4140(10) 0.0280(8)
C22_2 C 0.9007(7) -0.3923(9) -0.0179(8)
H19_2 H 0.9203 -0.3790 -0.0561
C23_2 C 0.8388(7) -0.3906(9) -0.0069(8)
H20_2 H 0.8171 -0.3761 -0.0377
C24_2 C 0.8094(7) -0.4105(10) 0.0500(8)
C25_2 C 0.8419(9) -0.4322(11) 0.0960(9)
H21_2 H 0.8222 -0.4456 0.1341
C26_2 C 0.9038(8) -0.4340(10) 0.0850(9)
H22_2 H 0.9255 -0.4485 0.1158
C27_2 C 1.1683(6) -0.4507(7) 0.1179(6)
H23_2 H 1.1836 -0.4458 0.1478
C28_2 C 1.1046(6) -0.4371(7) 0.1117(7)
H24_2 H 1.0781 -0.4279 0.1387
C29_2 C 1.0884(6) -0.4395(8) 0.0623(7)
C30_2 C 1.1228(6) -0.4597(7) 0.0311(6)
H25_2 H 1.1103 -0.4647 0.0001
C31_2 C 1.1816(6) -0.4750(7) 0.0441(6)
H26_2 H 1.2063 -0.4909 0.0211
C32_2 C 0.5540(5) -0.4402(5) 0.1062(5)
H27_2 H 0.5314 -0.4436 0.1413
C33_2 C 0.6146(5) -0.4308(5) 0.1005(5)
H28_2 H 0.6340 -0.4328 0.1309
C34_2 C 0.6438(5) -0.4180(6) 0.0443(6)
C35_2 C 0.6145(5) -0.4157(5) -0.0002(5)
H29_2 H 0.6347 -0.4062 -0.0377
C36_2 C 0.5537(4) -0.4281(5) 0.0136(5)
H30_2 H 0.5329 -0.4238 -0.0166
C55_2 C 0.2235(4) -1.0432(5) 0.4434(5)
C56_2 C 0.2298(4) -0.9831(4) 0.4013(5)
C57_2 C 0.2134(4) -0.9362(5) 0.4171(5)
H43_2 H 0.1986 -0.9439 0.4558
C58_2 C 0.2186(4) -0.8780(5) 0.3764(5)
H44_2 H 0.2084 -0.8470 0.3889
C59_2 C 0.2384(4) -0.8625(5) 0.3171(5)
C60_2 C 0.2539(4) -0.9098(5) 0.3004(5)
H45_2 H 0.2680 -0.9027 0.2617
C61_2 C 0.2480(4) -0.9680(5) 0.3428(5)
H46_2 H 0.2571 -0.9994 0.3307
C62_2 C 0.2653(5) -0.6197(5) 0.1412(5)
C63_2 C 0.2577(4) -0.6829(5) 0.1892(5)
C64_2 C 0.2694(4) -0.6958(5) 0.2421(5)
H47_2 H 0.2827 -0.6651 0.2512
C65_2 C 0.2625(4) -0.7551(5) 0.2851(5)
H48_2 H 0.2703 -0.7627 0.3223
C66_2 C 0.2445(5) -0.8010(5) 0.2730(5)
C67_2 C 0.2339(5) -0.7855(5) 0.2166(5)
H49_2 H 0.2214 -0.8157 0.2064
C68_2 C 0.2412(5) -0.7260(5) 0.1740(5)
H50_2 H 0.2346 -0.7171 0.1362
C69_2 C 0.3924(4) -1.0278(5) 0.3853(5)
C70_2 C 0.4002(4) -0.9625(5) 0.3533(5)
C71_2 C 0.3830(4) -0.9247(5) 0.3828(5)
H51_2 H 0.3667 -0.9408 0.4220
C72_2 C 0.3912(4) -0.8605(5) 0.3510(5)
H52_2 H 0.3820 -0.8349 0.3703
C73_2 C 0.4117(4) -0.8377(5) 0.2945(5)
C74_2 C 0.4282(5) -0.8787(5) 0.2665(5)
H53_2 H 0.4441 -0.8630 0.2272
C75_2 C 0.4215(4) -0.9375(5) 0.2947(5)
H54_2 H 0.4313 -0.9624 0.2747
C76_2 C 0.4353(5) -0.5801(5) 0.1630(5)
C77_2 C 0.4294(4) -0.6455(5) 0.1989(5)
C78_2 C 0.4363(4) -0.6712(5) 0.2557(5)
H55_2 H 0.4461 -0.6469 0.2740
C79_2 C 0.4292(4) -0.7321(5) 0.2866(5)
H56_2 H 0.4319 -0.7479 0.3261
C80_2 C 0.4180(4) -0.7720(5) 0.2608(5)
C81_2 C 0.4127(4) -0.7448(5) 0.2010(5)
H57_2 H 0.4058 -0.7691 0.1818
C82_2 C 0.4175(4) -0.6831(5) 0.1708(5)
H58_2 H 0.4130 -0.6662 0.1317
C83_2 C -0.6904(4) -0.2226(4) 0.4289(4)
C84_2 C -0.6856(4) -0.2576(4) 0.3933(4)
C85_2 C -0.7347(4) -0.2798(4) 0.3825(4)
H59_2 H -0.7724 -0.2757 0.4009
C86_2 C -0.7292(4) -0.3081(4) 0.3449(4)
H60_2 H -0.7637 -0.3231 0.3391
C87_2 C -0.6757(4) -0.3156(4) 0.3151(4)
C88_2 C -0.6259(4) -0.2901(5) 0.3246(5)
H61_2 H -0.5884 -0.2909 0.3041
C89_2 C -0.6326(4) -0.2632(5) 0.3652(5)
H62_2 H -0.5986 -0.2488 0.3727
C90_2 C -0.6509(5) -0.4212(5) 0.1475(5)
C91_2 C -0.6601(5) -0.3966(5) 0.1911(5)
C92_2 C -0.6142(5) -0.3769(5) 0.2051(5)
H63_2 H -0.5762 -0.3817 0.1877
C93_2 C -0.6184(5) -0.3491(6) 0.2443(5)
H64_2 H -0.5835 -0.3349 0.2502
C94_2 C -0.6700(5) -0.3420(5) 0.2736(5)
C95_2 C -0.7163(5) -0.3658(5) 0.2598(5)
H65_2 H -0.7541 -0.3639 0.2794
C96_2 C -0.7141(5) -0.3915(5) 0.2214(5)
H66_2 H -0.7490 -0.4058 0.2154
C97_2 C -0.6988(5) -0.1985(5) 0.5784(4)
C98_2 C -0.6863(4) -0.2370(5) 0.6375(4)
C99_2 C -0.7313(5) -0.2570(5) 0.6841(4)
H67_2 H -0.7703 -0.2457 0.6788
C100_2 C -0.7194(5) -0.2939(5) 0.7391(4)
H68_2 H -0.7512 -0.3062 0.7696
C101_2 C -0.6629(5) -0.3133(5) 0.7512(4)
C102_2 C -0.6169(5) -0.2899(6) 0.7071(5)
H69_2 H -0.5778 -0.2980 0.7142
C103_2 C -0.6284(5) -0.2524(5) 0.6491(4)
H70_2 H -0.5965 -0.2382 0.6188
C104_2 C -0.6273(5) -0.4451(5) 0.9888(4)
C105_2 C -0.6360(5) -0.4127(5) 0.9261(4)
C106_2 C -0.6885(5) -0.4171(5) 0.9082(5)
H71_2 H -0.7199 -0.4402 0.9355
C107_2 C -0.6967(5) -0.3884(5) 0.8508(5)
H72_2 H -0.7315 -0.3952 0.8388
C108_2 C -0.6518(5) -0.3492(5) 0.8113(4)
C109_2 C -0.5976(5) -0.3457(5) 0.8294(4)
H73_2 H -0.5664 -0.3206 0.8036
C110_2 C -0.5908(5) -0.3813(5) 0.8880(4)
H74_2 H -0.5537 -0.3824 0.8996
loop_
_geom_bond_atom_site_label_1
_geom_bond_atom_site_label_2
_geom_bond_site_symmetry_1
_geom_bond_site_symmetry_2
Zn1 N2 1_555 1_555
Zn2 N4 1_555 1_555
Zn3 N6 1_555 1_555
Zn4 O18 1_555 1_555
Zn5 N10 1_555 1_555
Zn6 N12 1_555 1_555
N1 H1 1_555 1_555
N2 C9 1_555 1_555
N3 H2 1_555 1_555
N4 C14 1_555 1_555
N5 H3 1_555 1_555
N6 C27 1_555 1_555
N7 H4 1_555 1_555
N8 C32 1_555 1_555
N9 H5 1_555 1_555
N10 C45 1_555 1_555
N11 H6 1_555 1_555
N12 C50 1_555 1_555
O1 C1 1_555 1_555
O2 C2 1_555 1_555
O3 C19 1_555 1_555
O4 C20 1_555 1_555
O5 C37 1_555 1_555
O6 C38 1_555 1_555
O7 Zn1 1_555 1_555
O8 C55 1_555 1_555
O9 Zn3 1_555 1_555
O10 C62 1_555 1_555
O11 Zn2 1_555 1_555
O12 C69 1_555 1_555
O13 C76 1_555 1_555
O14 C76 1_555 1_555
O15 Zn1 1_555 1_555
O16 C83 1_555 1_555
O17 C90 1_555 1_555
O18 C90 1_555 1_555
O19 Zn1 1_555 1_555
O20 C97 1_555 1_555
O21 C104 1_555 1_555
O22 C104 1_555 1_555
O23 Zn5 1_555 1_555
O24 C111 1_555 1_555
O25 C118 1_555 1_555
O26 C118 1_555 1_555
O27 Zn5 1_555 1_555
O28 C125 1_555 1_555
O29 Zn5 1_555 1_555
O30 C132 1_555 1_555
C1 N1 1_555 1_555
C2 N3 1_555 1_555
C3 C1 1_555 1_555
C4 C3 1_555 1_555
H7 C4 1_555 1_555
C5 C4 1_555 1_555
H8 C5 1_555 1_555
C6 C2 1_555 1_555
C7 C6 1_555 1_555
H9 C7 1_555 1_555
C8 C3 1_555 1_555
H10 C8 1_555 1_555
C9 H11 1_555 1_555
C10 C9 1_555 1_555
H12 C10 1_555 1_555
C11 N1 1_555 1_555
C12 C11 1_555 1_555
H13 C12 1_555 1_555
C13 N2 1_555 1_555
H14 C13 1_555 1_555
C14 H15 1_555 1_555
C15 C14 1_555 1_555
H16 C15 1_555 1_555
C16 N3 1_555 1_555
C17 C16 1_555 1_555
H17 C17 1_555 1_555
C18 N4 1_555 1_555
H18 C18 1_555 1_555
C19 N5 1_555 1_555
C20 N7 1_555 1_555
C21 C19 1_555 1_555
C22 C21 1_555 1_555
H19 C22 1_555 1_555
C23 C22 1_555 1_555
H20 C23 1_555 1_555
C24 C20 1_555 1_555
C25 C24 1_555 1_555
H21 C25 1_555 1_555
C26 C21 1_555 1_555
H22 C26 1_555 1_555
C27 H23 1_555 1_555
C28 C27 1_555 1_555
H24 C28 1_555 1_555
C29 N5 1_555 1_555
C30 C29 1_555 1_555
H25 C30 1_555 1_555
C31 N6 1_555 1_555
H26 C31 1_555 1_555
C32 H27 1_555 1_555
C33 C32 1_555 1_555
H28 C33 1_555 1_555
C34 N7 1_555 1_555
C35 C34 1_555 1_555
H29 C35 1_555 1_555
C36 N8 1_555 1_555
H30 C36 1_555 1_555
C37 N9 1_555 1_555
C38 N11 1_555 1_555
C39 C37 1_555 1_555
C40 C39 1_555 1_555
H31 C40 1_555 1_555
C41 C40 1_555 1_555
H32 C41 1_555 1_555
C42 C38 1_555 1_555
C43 C42 1_555 1_555
H33 C43 1_555 1_555
C44 C39 1_555 1_555
H34 C44 1_555 1_555
C45 H35 1_555 1_555
C46 C45 1_555 1_555
H36 C46 1_555 1_555
C47 N9 1_555 1_555
C48 C47 1_555 1_555
H37 C48 1_555 1_555
C49 N10 1_555 1_555
H38 C49 1_555 1_555
C50 H39 1_555 1_555
C51 C50 1_555 1_555
H40 C51 1_555 1_555
C52 N11 1_555 1_555
C53 C52 1_555 1_555
H41 C53 1_555 1_555
C54 N12 1_555 1_555
H42 C54 1_555 1_555
C55 O7 1_555 1_555
C56 C55 1_555 1_555
C57 C56 1_555 1_555
H43 C57 1_555 1_555
C58 C57 1_555 1_555
H44 C58 1_555 1_555
C59 C58 1_555 1_555
C60 C59 1_555 1_555
H45 C60 1_555 1_555
C61 C56 1_555 1_555
H46 C61 1_555 1_555
C62 O9 1_555 1_555
C63 C62 1_555 1_555
C64 C63 1_555 1_555
H47 C64 1_555 1_555
C65 C64 1_555 1_555
H48 C65 1_555 1_555
C66 C59 1_555 1_555
C67 C66 1_555 1_555
H49 C67 1_555 1_555
C68 C63 1_555 1_555
H50 C68 1_555 1_555
C69 O11 1_555 1_555
C70 C69 1_555 1_555
C71 C70 1_555 1_555
H51 C71 1_555 1_555
C72 C71 1_555 1_555
H52 C72 1_555 1_555
C73 C72 1_555 1_555
C74 C73 1_555 1_555
H53 C74 1_555 1_555
C75 C70 1_555 1_555
H54 C75 1_555 1_555
C76 C77 1_555 1_555
C77 C78 1_555 1_555
C78 H55 1_555 1_555
C79 C78 1_555 1_555
H56 C79 1_555 1_555
C80 C73 1_555 1_555
C81 C80 1_555 1_555
H57 C81 1_555 1_555
C82 C77 1_555 1_555
H58 C82 1_555 1_555
C83 O15 1_555 1_555
C84 C83 1_555 1_555
C85 C84 1_555 1_555
H59 C85 1_555 1_555
C86 C85 1_555 1_555
H60 C86 1_555 1_555
C87 C86 1_555 1_555
C88 C87 1_555 1_555
H61 C88 1_555 1_555
C89 C84 1_555 1_555
H62 C89 1_555 1_555
C90 C91 1_555 1_555
C91 C92 1_555 1_555
C92 H63 1_555 1_555
C93 C92 1_555 1_555
H64 C93 1_555 1_555
C94 C87 1_555 1_555
C95 C94 1_555 1_555
H65 C95 1_555 1_555
C96 C91 1_555 1_555
H66 C96 1_555 1_555
C97 O19 1_555 1_555
C98 C97 1_555 1_555
C99 C98 1_555 1_555
H67 C99 1_555 1_555
C100 C99 1_555 1_555
H68 C100 1_555 1_555
C101 C100 1_555 1_555
C102 C101 1_555 1_555
H69 C102 1_555 1_555
C103 C98 1_555 1_555
H70 C103 1_555 1_555
C104 C105 1_555 1_555
C105 C106 1_555 1_555
C106 H71 1_555 1_555
C107 C106 1_555 1_555
H72 C107 1_555 1_555
C108 C101 1_555 1_555
C109 C108 1_555 1_555
H73 C109 1_555 1_555
C110 C105 1_555 1_555
H74 C110 1_555 1_555
C111 O23 1_555 1_555
C112 C111 1_555 1_555
C113 C112 1_555 1_555
H75 C113 1_555 1_555
C114 C113 1_555 1_555
H76 C114 1_555 1_555
C115 C114 1_555 1_555
C116 C115 1_555 1_555
H77 C116 1_555 1_555
C117 C112 1_555 1_555
H78 C117 1_555 1_555
C118 C119 1_555 1_555
C119 C120 1_555 1_555
C120 H79 1_555 1_555
C121 C120 1_555 1_555
H80 C121 1_555 1_555
C122 C115 1_555 1_555
C123 C122 1_555 1_555
H81 C123 1_555 1_555
C124 C119 1_555 1_555
H82 C124 1_555 1_555
C125 O27 1_555 1_555
C126 C125 1_555 1_555
C127 C126 1_555 1_555
H83 C127 1_555 1_555
C128 C127 1_555 1_555
H84 C128 1_555 1_555
C129 C128 1_555 1_555
C130 C129 1_555 1_555
H85 C130 1_555 1_555
C131 C126 1_555 1_555
H86 C131 1_555 1_555
C132 O29 1_555 1_555
C133 C132 1_555 1_555
C134 C133 1_555 1_555
H87 C134 1_555 1_555
C135 C134 1_555 1_555
H88 C135 1_555 1_555
C136 C135 1_555 1_555
C137 C136 1_555 1_555
H89 C137 1_555 1_555
C138 C133 1_555 1_555
H90 C138 1_555 1_555
Zn1_2 N2_2 1_555 1_555
Zn1_3 O15_2 1_555 1_555
Zn1_4 O7_2 1_555 1_555
Zn2_2 O16 1_555 1_555
Zn2_3 O11_2 1_555 1_555
Zn3_2 O17 1_555 1_555
Zn3_3 O21 1_555 1_555
Zn3_4 O17_2 1_555 1_555
Zn3_5 O21_2 1_555 1_555
Zn3_6 N6_2 1_555 1_555
Zn4_2 O22 1_555 1_555
Zn4_3 N8 1_555 1_555
Zn4_4 O18_2 1_555 1_555
Zn4_5 O22_2 1_555 1_555
Zn5A N10A 1_555 1_555
Zn5A_2 O29A 1_555 1_555
Zn5A_3 O23A 1_555 1_555
Zn6A O26 1_555 1_555
Zn6_2 O28 1_555 1_555
Zn6A_2 O28A 1_555 1_555
Zn6A_3 O30A 1_555 1_555
Zn6A_4 N12A 1_555 1_555
N1_2 H1_2 1_555 1_555
N2_2 C9_2 1_555 1_555
N3_2 H2_2 1_555 1_555
N4_2 Zn2_2 1_555 1_555
N5_2 H3_2 1_555 1_555
N6_2 C27_2 1_555 1_555
N6_3 Zn3_2 1_555 1_555
N7_2 H4_2 1_555 1_555
N8_2 Zn4 1_555 1_555
N8_3 Zn4_2 1_555 1_555
N9A H5A 1_555 1_555
N10A C45A 1_555 1_555
N11A H6A 1_555 1_555
N12A C50A 1_555 1_555
N12A_2 Zn6A 1_555 1_555
O1_2 C1_2 1_555 1_555
O2_2 C2_2 1_555 1_555
O3_2 C19_2 1_555 1_555
O4_2 C20_2 1_555 1_555
O5A C37A 1_555 1_555
O6A C38A 1_555 1_555
O7_2 C55_2 1_555 1_555
O7_3 Zn1_2 1_555 1_555
O8_2 C55_2 1_555 1_555
O9_2 Zn3_2 1_555 1_555
O10_2 C62_2 1_555 1_555
O11_2 C69_2 1_555 1_555
O11_3 Zn2_2 1_555 1_555
O12_2 C69_2 1_555 1_555
O13_2 Zn4 1_555 1_555
O13_3 Zn4_2 1_555 1_555
O14_2 C76_2 1_555 1_555
O15_2 C83_2 1_555 1_555
O15_3 Zn1_2 1_555 1_555
O16_2 Zn2 1_555 1_555
O17_2 C90_2 1_555 1_555
O17_3 Zn3 1_555 1_555
O18_2 C90_2 1_555 1_555
O18_3 Zn4_2 1_555 1_555
O19_2 Zn1_3 1_555 1_555
O19_3 Zn1_2 1_555 1_555
O20_2 Zn2 1_555 1_555
O21_2 C104_2 1_555 1_555
O21_3 Zn3 1_555 1_555
O21_4 Zn3_2 1_555 1_555
O22_2 C104_2 1_555 1_555
O22_3 Zn4 1_555 1_555
O23A C111A 1_555 1_555
O23A_2 Zn5A 1_555 1_555
O24A C111A 1_555 1_555
O25A C118A 1_555 1_555
O26A Zn6 1_555 1_555
O27A Zn5A 1_555 1_555
O28A C125A 1_555 1_555
O28_2 Zn6 1_555 1_555
O28A_2 Zn6A 1_555 1_555
O29A C132A 1_555 1_555
O29A_2 Zn5A 1_555 1_555
O30A C132A 1_555 1_555
O30_2 Zn6 1_555 1_555
O30A_2 Zn6A 1_555 1_555
C1_2 N1_2 1_555 1_555
C2_2 N3_2 1_555 1_555
C3_2 C1_2 1_555 1_555
C4_2 C3_2 1_555 1_555
H7_2 C4_2 1_555 1_555
C5_2 C4_2 1_555 1_555
H8_2 C5_2 1_555 1_555
C6_2 C2_2 1_555 1_555
C7_2 C6_2 1_555 1_555
H9_2 C7_2 1_555 1_555
C8_2 C3_2 1_555 1_555
H10_2 C8_2 1_555 1_555
C9_2 H11_2 1_555 1_555
C10_2 C9_2 1_555 1_555
H12_2 C10_2 1_555 1_555
C11_2 N1_2 1_555 1_555
C12_2 C11_2 1_555 1_555
H13_2 C12_2 1_555 1_555
C13_2 N2_2 1_555 1_555
H14_2 C13_2 1_555 1_555
C14_2 N4_2 1_555 1_555
H15_2 C14_2 1_555 1_555
C15_2 C14_2 1_555 1_555
H16_2 C15_2 1_555 1_555
C16_2 N3_2 1_555 1_555
C17_2 C16_2 1_555 1_555
H17_2 C17_2 1_555 1_555
C18_2 N4_2 1_555 1_555
H18_2 C18_2 1_555 1_555
C19_2 N5_2 1_555 1_555
C20_2 N7_2 1_555 1_555
C21_2 C19_2 1_555 1_555
C22_2 C21_2 1_555 1_555
H19_2 C22_2 1_555 1_555
C23_2 C22_2 1_555 1_555
H20_2 C23_2 1_555 1_555
C24_2 C20_2 1_555 1_555
C25_2 C24_2 1_555 1_555
H21_2 C25_2 1_555 1_555
C26_2 C21_2 1_555 1_555
H22_2 C26_2 1_555 1_555
C27_2 H23_2 1_555 1_555
C28_2 C27_2 1_555 1_555
H24_2 C28_2 1_555 1_555
C29_2 N5_2 1_555 1_555
C30_2 C29_2 1_555 1_555
H25_2 C30_2 1_555 1_555
C31_2 N6_2 1_555 1_555
H26_2 C31_2 1_555 1_555
C32_2 N8_2 1_555 1_555
H27_2 C32_2 1_555 1_555
C33_2 C32_2 1_555 1_555
H28_2 C33_2 1_555 1_555
C34_2 N7_2 1_555 1_555
C35_2 C34_2 1_555 1_555
H29_2 C35_2 1_555 1_555
C36_2 N8_2 1_555 1_555
H30_2 C36_2 1_555 1_555
C37A N9A 1_555 1_555
C38A N11A 1_555 1_555
C39A C37A 1_555 1_555
C40A C39A 1_555 1_555
H31A C40A 1_555 1_555
C41A C40A 1_555 1_555
H32A C41A 1_555 1_555
C42A C38A 1_555 1_555
C43A C42A 1_555 1_555
H33A C43A 1_555 1_555
C44A C39A 1_555 1_555
H34A C44A 1_555 1_555
C45A H35A 1_555 1_555
C46A C45A 1_555 1_555
H36A C46A 1_555 1_555
C47A N9A 1_555 1_555
C48A C47A 1_555 1_555
H37A C48A 1_555 1_555
C49A N10A 1_555 1_555
H38A C49A 1_555 1_555
C50A H39A 1_555 1_555
C51A C50A 1_555 1_555
H40A C51A 1_555 1_555
C52A N11A 1_555 1_555
C53A C52A 1_555 1_555
H41A C53A 1_555 1_555
C54A N12A 1_555 1_555
H42A C54A 1_555 1_555
C55_2 C56_2 1_555 1_555
C56_2 C57_2 1_555 1_555
C57_2 H43_2 1_555 1_555
C58_2 C57_2 1_555 1_555
H44_2 C58_2 1_555 1_555
C59_2 C58_2 1_555 1_555
C60_2 C59_2 1_555 1_555
H45_2 C60_2 1_555 1_555
C61_2 C56_2 1_555 1_555
H46_2 C61_2 1_555 1_555
C62_2 O9_2 1_555 1_555
C63_2 C62_2 1_555 1_555
C64_2 C63_2 1_555 1_555
H47_2 C64_2 1_555 1_555
C65_2 C64_2 1_555 1_555
H48_2 C65_2 1_555 1_555
C66_2 C59_2 1_555 1_555
C67_2 C66_2 1_555 1_555
H49_2 C67_2 1_555 1_555
C68_2 C63_2 1_555 1_555
H50_2 C68_2 1_555 1_555
C69_2 C70_2 1_555 1_555
C70_2 C71_2 1_555 1_555
C71_2 H51_2 1_555 1_555
C72_2 C71_2 1_555 1_555
H52_2 C72_2 1_555 1_555
C73_2 C72_2 1_555 1_555
C74_2 C73_2 1_555 1_555
H53_2 C74_2 1_555 1_555
C75_2 C70_2 1_555 1_555
H54_2 C75_2 1_555 1_555
C76_2 O13_2 1_555 1_555
C77_2 C76_2 1_555 1_555
C78_2 C77_2 1_555 1_555
H55_2 C78_2 1_555 1_555
C79_2 C78_2 1_555 1_555
H56_2 C79_2 1_555 1_555
C80_2 C73_2 1_555 1_555
C81_2 C80_2 1_555 1_555
H57_2 C81_2 1_555 1_555
C82_2 C77_2 1_555 1_555
H58_2 C82_2 1_555 1_555
C83_2 O16_2 1_555 1_555
C84_2 C83_2 1_555 1_555
C85_2 C84_2 1_555 1_555
H59_2 C85_2 1_555 1_555
C86_2 C85_2 1_555 1_555
H60_2 C86_2 1_555 1_555
C87_2 C86_2 1_555 1_555
C88_2 C87_2 1_555 1_555
H61_2 C88_2 1_555 1_555
C89_2 C84_2 1_555 1_555
H62_2 C89_2 1_555 1_555
C90_2 C91_2 1_555 1_555
C91_2 C92_2 1_555 1_555
C92_2 H63_2 1_555 1_555
C93_2 C92_2 1_555 1_555
H64_2 C93_2 1_555 1_555
C94_2 C87_2 1_555 1_555
C95_2 C94_2 1_555 1_555
H65_2 C95_2 1_555 1_555
C96_2 C91_2 1_555 1_555
H66_2 C96_2 1_555 1_555
C97_2 O19_2 1_555 1_555
C98_2 C97_2 1_555 1_555
C99_2 C98_2 1_555 1_555
H67_2 C99_2 1_555 1_555
C100_2 C99_2 1_555 1_555
H68_2 C100_2 1_555 1_555
C101_2 C100_2 1_555 1_555
C102_2 C101_2 1_555 1_555
H69_2 C102_2 1_555 1_555
C103_2 C98_2 1_555 1_555
H70_2 C103_2 1_555 1_555
C104_2 C105_2 1_555 1_555
C105_2 C106_2 1_555 1_555
C106_2 H71_2 1_555 1_555
C107_2 C106_2 1_555 1_555
H72_2 C107_2 1_555 1_555
C108_2 C101_2 1_555 1_555
C109_2 C108_2 1_555 1_555
H73_2 C109_2 1_555 1_555
C110_2 C105_2 1_555 1_555
H74_2 C110_2 1_555 1_555
C111A C112A 1_555 1_555
C112A C113A 1_555 1_555
C113A H75A 1_555 1_555
C114A C113A 1_555 1_555
H76A C114A 1_555 1_555
C115A C114A 1_555 1_555
C116A C115A 1_555 1_555
H77A C116A 1_555 1_555
C117A C112A 1_555 1_555
H78A C117A 1_555 1_555
C118A O26A 1_555 1_555
C119A C118A 1_555 1_555
C120A C119A 1_555 1_555
H79A C120A 1_555 1_555
C121A C120A 1_555 1_555
H80A C121A 1_555 1_555
C122A C115A 1_555 1_555
C123A C122A 1_555 1_555
H81A C123A 1_555 1_555
C124A C119A 1_555 1_555
H82A C124A 1_555 1_555
C125A O27A 1_555 1_555
C126A C125A 1_555 1_555
C127A C126A 1_555 1_555
H83A C127A 1_555 1_555
C128A C127A 1_555 1_555
H84A C128A 1_555 1_555
C129A C129 1_555 1_555
C130A C129A 1_555 1_555
H85A C130A 1_555 1_555
C131A C126A 1_555 1_555
H86A C131A 1_555 1_555
C132A C133A 1_555 1_555
C133A C134A 1_555 1_555
C134A H87A 1_555 1_555
C135A C134A 1_555 1_555
H88A C135A 1_555 1_555
C136A C136 1_555 1_555
C137A C136A 1_555 1_555
H89A C137A 1_555 1_555
C138A C133A 1_555 1_555
H90A C138A 1_555 1_555
O13 Zn4_3 1_555 1_555
O20 Zn2_2 1_555 1_555
O30 Zn6_2 1_555 1_555
C5 C6 1_555 1_555
C7 C8 1_555 1_555
C10 C11 1_555 1_555
C12 C13 1_555 1_555
C15 C16 1_555 1_555
C17 C18 1_555 1_555
C23 C24 1_555 1_555
C25 C26 1_555 1_555
C28 C29 1_555 1_555
C30 C31 1_555 1_555
C33 C34 1_555 1_555
C35 C36 1_555 1_555
C41 C42 1_555 1_555
C43 C44 1_555 1_555
C46 C47 1_555 1_555
C48 C49 1_555 1_555
C51 C52 1_555 1_555
C53 C54 1_555 1_555
C60 C61 1_555 1_555
C65 C66 1_555 1_555
C67 C68 1_555 1_555
C74 C75 1_555 1_555
C79 C80 1_555 1_555
C81 C82 1_555 1_555
C88 C89 1_555 1_555
C93 C94 1_555 1_555
C95 C96 1_555 1_555
C102 C103 1_555 1_555
C107 C108 1_555 1_555
C109 C110 1_555 1_555
C116 C117 1_555 1_555
C121 C122 1_555 1_555
C123 C124 1_555 1_555
C130 C131 1_555 1_555
C137 C138 1_555 1_555
O20_2 C97_2 1_555 1_555
C5_2 C6_2 1_555 1_555
C7_2 C8_2 1_555 1_555
C10_2 C11_2 1_555 1_555
C12_2 C13_2 1_555 1_555
C15_2 C16_2 1_555 1_555
C17_2 C18_2 1_555 1_555
C23_2 C24_2 1_555 1_555
C25_2 C26_2 1_555 1_555
C28_2 C29_2 1_555 1_555
C30_2 C31_2 1_555 1_555
C33_2 C34_2 1_555 1_555
C35_2 C36_2 1_555 1_555
C41A C42A 1_555 1_555
C43A C44A 1_555 1_555
C46A C47A 1_555 1_555
C48A C49A 1_555 1_555
C51A C52A 1_555 1_555
C53A C54A 1_555 1_555
C60_2 C61_2 1_555 1_555
C65_2 C66_2 1_555 1_555
C67_2 C68_2 1_555 1_555
C74_2 C75_2 1_555 1_555
C79_2 C80_2 1_555 1_555
C81_2 C82_2 1_555 1_555
C88_2 C89_2 1_555 1_555
C93_2 C94_2 1_555 1_555
C95_2 C96_2 1_555 1_555
C102_2 C103_2 1_555 1_555
C107_2 C108_2 1_555 1_555
C109_2 C110_2 1_555 1_555
C116A C117A 1_555 1_555
C121A C122A 1_555 1_555
C123A C124A 1_555 1_555
C128A C129A 1_555 1_555
C130A C131A 1_555 1_555
C135A C136A 1_555 1_555
C137A C138A 1_555 1_555

#END
