
#######################################################################
#
#                 Cambridge Crystallographic Data Centre
#                                CCDC 
#
#######################################################################
#
# If this CIF has been generated from an entry in the Cambridge 
# Structural Database, then it will include bibliographic, chemical, 
# crystal, experimental, refinement or atomic coordinate data resulting 
# from the CCDC's data processing and validation procedures.
#
#######################################################################

data_RAPBOZ
_chemical_formula_moiety         '(C8 H20 Al4 N2 O27 P4 2-)n'
_symmetry_cell_setting           orthorhombic
_symmetry_space_group_name_H-M   'P c c m'
_symmetry_Int_Tables_number      49
_space_group_name_Hall           '-P 2 2c'
loop_
_symmetry_equiv_pos_site_id
_symmetry_equiv_pos_as_xyz
1 x,y,z
2 -x,-y,z
3 x,-y,1/2-z
4 -x,y,1/2-z
5 -x,-y,-z
6 x,y,-z
7 -x,y,1/2+z
8 x,-y,1/2+z
_cell_length_a                   9.992(1)
_cell_length_b                   11.644(1)
_cell_length_c                   12.231(1)
_cell_angle_alpha                90
_cell_angle_beta                 90
_cell_angle_gamma                90
_cell_volume                     1423.04
loop_
_atom_site_label
_atom_site_type_symbol
_atom_site_fract_x
_atom_site_fract_y
_atom_site_fract_z
Al1 Al 0.0453(3) 0.2751(2) 0.0000
Al2 Al -0.2309(3) 0.0000 0.2500
P1 P 0.2742(2) 0.0881(2) 0.0000
P2 P 0.0000 0.1977(2) 0.2500
O1 O 0.2125(7) 0.2068(5) 0.0000
O2 O 0.0308(4) 0.2751(3) 0.1521(4)
O3 O -0.0704(7) 0.1470(6) 0.0000
O4 O 0.1466(7) 0.4216(5) 0.0000
O5 O -0.1124(7) 0.3863(5) 0.0000
O6 O -0.1200(4) 0.1220(4) 0.2223(4)
O7 O 0.2385(5) 0.0195(4) 0.1003(4)
O8 O -0.3880(4) 0.1123(4) 0.2416(4)
O9 O 0.4313(7) 0.1093(6) 0.0000
C1 C 0.0749(9) 0.5102(8) 0.0000
C2 C -0.5000 0.0659(7) 0.2500
O2E O 0.0308(4) 0.2751(3) -0.1521(4)
O6B O -0.1200(4) -0.1220(4) 0.2777(4)
O7A O -0.2385(5) -0.0195(4) 0.1003(4)
O7C O -0.2385(5) 0.0195(4) 0.3997(4)
O8B O -0.3880(4) -0.1123(4) 0.2584(4)
O7E O 0.2385(5) 0.0195(4) -0.1003(4)
O2C O -0.0308(4) 0.2751(3) 0.3479(4)
O6C O 0.1200(4) 0.1220(4) 0.2777(4)
C1A C -0.0749(9) 0.4898(8) 0.0000
Al2A Al 0.2309(3) 0.0000 0.2500
O5A O 0.1124(7) 0.6137(5) 0.0000
C2A C -0.5000 -0.0659(7) 0.2500
O8C O -0.6120(4) 0.1123(4) 0.2584(4)
P2A P 0.0000 -0.1977(2) 0.2500
P1A P -0.2742(2) -0.0881(2) 0.0000
Al2D Al 0.2309(3) 0.0000 -0.2500
Al1C Al -0.0453(3) 0.2751(2) 0.5000
O4A O -0.1466(7) 0.5784(5) 0.0000
O6A O 0.1200(4) -0.1220(4) 0.2223(4)
O7B O 0.2385(5) -0.0195(4) 0.3997(4)
O8A O 0.3880(4) -0.1123(4) 0.2416(4)
O8C_2 O 0.3880(4) 0.1123(4) 0.2584(4)
Al1A Al -0.0453(3) 0.7249(2) 0.0000
O8A_2 O -0.6120(4) -0.1123(4) 0.2416(4)
Al2A_2 Al -0.7691(3) 0.0000 0.2500
O2A O -0.0308(4) -0.2751(3) 0.1521(4)
O2B O 0.0308(4) -0.2751(3) 0.3479(4)
O1A O -0.2125(7) -0.2068(5) 0.0000
O7D O -0.2385(5) -0.0195(4) -0.1003(4)
O9A O -0.4313(7) -0.1093(6) 0.0000
O1A_2 O -0.2125(7) 0.7932(5) 0.0000
O2A_2 O -0.0308(4) 0.7249(3) 0.1521(4)
O2D O -0.0308(4) 0.7249(3) -0.1521(4)
O3A O 0.0704(7) 0.8530(6) 0.0000
Al2E Al -0.2309(3) 0.0000 -0.2500
Al1A_2 Al -0.0453(3) -0.2751(2) 0.0000
Al1B Al 0.0453(3) -0.2751(2) 0.5000
O10 O 0.0738(24) 0.5000 0.2500
N1 N -0.3473(32) 0.3551(16) 0.2970(34)
C3 C -0.4815(61) 0.3778(39) 0.3546(45)
C4 C -0.3271(38) 0.3572(33) 0.1723(39)
C4C C -0.6729(38) 0.3572(33) 0.3277(39)
C3C C -0.5185(61) 0.3778(39) 0.1454(45)
N1C N -0.6527(32) 0.3551(16) 0.2030(34)
loop_
_geom_bond_atom_site_label_1
_geom_bond_atom_site_label_2
_geom_bond_site_symmetry_1
_geom_bond_site_symmetry_2
Al1 O1 1_555 1_555
Al2 O6 1_555 1_555
P1 O1 1_555 1_555
P2 O2 1_555 1_555
O2 Al1 1_555 1_555
O3 Al1 1_555 1_555
O4 Al1 1_555 1_555
O5 Al1 1_555 1_555
O6 P2 1_555 1_555
O7 P1 1_555 1_555
O8 Al2 1_555 1_555
O9 P1 1_555 1_555
C1 O4 1_555 1_555
C2 O8 1_555 1_555
N1 C3 1_555 1_555
C3 C4C 1_555 1_555
C4 N1 1_555 1_555
O2E Al1 1_555 1_555
O6B Al2 1_555 1_555
O7A Al2 1_555 1_555
O7C Al2 1_555 1_555
O8B Al2 1_555 1_555
O7E P1 1_555 1_555
O2C P2 1_555 1_555
O6C P2 1_555 1_555
C1A O5 1_555 1_555
Al2A O7 1_555 1_555
O5A C1 1_555 1_555
C2A C2 1_555 1_555
O8C C2 1_555 1_555
C4C N1C 1_555 1_555
C3C C4 1_555 1_555
P2A O6B 1_555 1_555
P1A O7A 1_555 1_555
Al2D O7E 1_555 1_555
Al1C O2C 1_555 1_555
O4A C1A 1_555 1_555
O6A Al2A 1_555 1_555
O7B Al2A 1_555 1_555
O8A Al2A 1_555 1_555
O8C_2 Al2A 1_555 1_555
Al1A O5A 1_555 1_555
O8A_2 C2A 1_555 1_555
Al2A_2 O8C 1_555 1_555
N1C C3C 1_555 1_555
O2A P2A 1_555 1_555
O2B P2A 1_555 1_555
O1A P1A 1_555 1_555
O7D P1A 1_555 1_555
O9A P1A 1_555 1_555
O1A_2 Al1A 1_555 1_555
O2A_2 Al1A 1_555 1_555
O2D Al1A 1_555 1_555
O3A Al1A 1_555 1_555
Al2E O7D 1_555 1_555
Al1A_2 O2A 1_555 1_555
Al1B O2B 1_555 1_555
C1 C1A 1_555 1_555
O8B C2A 1_555 1_555
O6C Al2A 1_555 1_555
P2A O6A 1_555 1_555
O4A Al1A 1_555 1_555
O8A_2 Al2A_2 1_555 1_555
O1A Al1A_2 1_555 1_555

#END
