
#######################################################################
#
#                 Cambridge Crystallographic Data Centre
#                                CCDC 
#
#######################################################################
#
# If this CIF has been generated from an entry in the Cambridge 
# Structural Database, then it will include bibliographic, chemical, 
# crystal, experimental, refinement or atomic coordinate data resulting 
# from the CCDC's data processing and validation procedures.
#
#######################################################################

data_DITYOW
_chemical_formula_moiety         '(C6 H11 B1 Cu1 F4 N8 O6)n'
_symmetry_cell_setting           tetragonal
_symmetry_space_group_name_H-M   'I 41/a'
_symmetry_Int_Tables_number      88
_space_group_name_Hall           '-I 4ad'
loop_
_symmetry_equiv_pos_site_id
_symmetry_equiv_pos_as_xyz
1 x,y,z
2 1/2-x,-y,1/2+z
3 3/4-y,1/4+x,1/4+z
4 3/4+y,3/4-x,3/4+z
5 1/2+x,1/2+y,1/2+z
6 -x,1/2-y,z
7 1/4-y,3/4+x,3/4+z
8 1/4+y,1/4-x,1/4+z
9 -x,-y,-z
10 1/2+x,y,1/2-z
11 1/4+y,3/4-x,3/4-z
12 1/4-y,1/4+x,1/4-z
13 1/2-x,1/2-y,1/2-z
14 x,1/2+y,-z
15 3/4+y,1/4-x,1/4-z
16 3/4-y,3/4+x,3/4-z
_cell_length_a                   24.074(4)
_cell_length_b                   24.074(4)
_cell_length_c                   5.1021(16)
_cell_angle_alpha                90
_cell_angle_beta                 90
_cell_angle_gamma                90
_cell_volume                     2956.96
loop_
_atom_site_label
_atom_site_type_symbol
_atom_site_fract_x
_atom_site_fract_y
_atom_site_fract_z
_atom_site_U_iso_or_equiv
_atom_site_thermal_displace_type
Cu1 Cu 0.5000 0.0000 0.0000 0.0439 Uani
C1 C 0.56737(14) -0.08841(12) -0.1224(6) 0.0506 Uani
O1 O 0.51884(9) -0.06985(8) -0.1813(5) 0.0538 Uani
N1 N 0.64082(12) -0.16023(12) -0.2238(5) 0.0535 Uani
C2 C 0.58720(13) -0.13529(14) -0.3106(7) 0.0556 Uani
H1 H 0.5591 -0.1641 -0.3183 0.0670 Uiso
H2 H 0.5916 -0.1202 -0.4856 0.0670 Uiso
N2 N 0.69011(13) -0.14564(13) -0.3344(6) 0.0784 Uani
O2 O 0.59718(12) -0.07204(12) 0.0571(5) 0.0840 Uani
N3 N 0.72908(13) -0.17117(14) -0.2060(6) 0.0808 Uani
N4 N 0.70637(10) -0.20252(11) -0.0065(5) 0.0472 Uani
C3 C 0.65123(13) -0.19448(13) -0.0240(6) 0.0497 Uani
H3 H 0.6246 -0.2102 0.0854 0.0600 Uiso
C1H C 0.43263(14) 0.08841(12) 0.1224(6) 0.0506 Uani
O1H O 0.48116(9) 0.06985(8) 0.1813(5) 0.0538 Uani
N1H N 0.35918(12) 0.16023(12) 0.2238(5) 0.0535 Uani
C2H C 0.41280(13) 0.13529(14) 0.3106(7) 0.0556 Uani
H1H H 0.4409 0.1641 0.3183 0.0670 Uiso
H2H H 0.4084 0.1202 0.4856 0.0670 Uiso
N2H N 0.30989(13) 0.14564(13) 0.3344(6) 0.0784 Uani
O2H O 0.40282(12) 0.07204(12) -0.0571(5) 0.0840 Uani
N3H N 0.27092(13) 0.17117(14) 0.2060(6) 0.0808 Uani
N4H N 0.29363(10) 0.20252(11) 0.0065(5) 0.0472 Uani
C3H C 0.34877(13) 0.19448(13) 0.0240(6) 0.0497 Uani
H3H H 0.3754 0.2102 -0.0854 0.0600 Uiso
Cu1B Cu 0.7500 -0.2500 0.2500 0.0439 Uani
Cu1F Cu 0.2500 0.2500 -0.2500 0.0439 Uani
N4C N 0.54748(11) 0.04363(10) -0.2565(5) 0.0472 Uani
N4K N 0.45252(11) -0.04363(10) 0.2565(5) 0.0472 Uani
F1 F 0.52881(14) -0.21254(15) -0.7300(7) 0.1507 Uani
B1 B 0.5000 -0.2500 -0.8750 0.0553 Uani
F1E F 0.47119(14) -0.28746(15) -0.7300(7) 0.1507 Uani
F1K F 0.46254(15) -0.22119(14) -1.0200(7) 0.1507 Uani
F1N F 0.53746(15) -0.27881(14) -1.0200(7) 0.1507 Uani
O3 O 0.7126(6) -0.0543(5) 0.138(3) 0.1123 Uani
O4 O 0.7012(8) -0.0150(9) 0.295(4) 0.1607 Uani
loop_
_atom_site_aniso_label
_atom_site_aniso_U_11
_atom_site_aniso_U_22
_atom_site_aniso_U_33
_atom_site_aniso_U_23
_atom_site_aniso_U_13
_atom_site_aniso_U_12
Cu1 0.0437(3) 0.0374(3) 0.0506(3) 0.0001(2) 0.0038(2) 0.0022(2)
C1 0.0659(19) 0.0386(15) 0.0473(17) 0.0003(14) 0.0062(16) 0.0059(15)
O1 0.0552(12) 0.0413(11) 0.0649(13) -0.0004(10) 0.0089(11) 0.0072(10)
N1 0.0555(15) 0.0591(15) 0.0458(14) 0.0025(13) 0.0052(12) 0.0100(14)
C2 0.0555(18) 0.0586(18) 0.0526(17) -0.0025(17) -0.0058(16) 0.0187(16)
N2 0.0685(18) 0.091(2) 0.0757(18) 0.0397(17) 0.0174(17) 0.0221(17)
O2 0.0921(18) 0.0879(17) 0.0720(15) -0.0334(14) -0.0193(15) 0.0236(16)
N3 0.0513(16) 0.102(2) 0.089(2) 0.0409(18) 0.0242(16) 0.0206(17)
N4 0.0395(12) 0.0485(14) 0.0535(15) 0.0081(12) 0.0035(12) 0.0012(12)
C3 0.0486(17) 0.0494(17) 0.0512(18) 0.0015(15) 0.0011(15) 0.0013(15)
C1H 0.0659 0.0386 0.0473 0.0003 0.0062 0.0059
O1H 0.0552 0.0413 0.0649 -0.0004 0.0089 0.0072
N1H 0.0555 0.0591 0.0458 0.0025 0.0052 0.01
C2H 0.0555 0.0586 0.0526 -0.0025 -0.0058 0.0187
N2H 0.0685 0.091 0.0757 0.0397 0.0174 0.0221
O2H 0.0921 0.0879 0.072 -0.0334 -0.0193 0.0236
N3H 0.0513 0.102 0.089 0.0409 0.0242 0.0206
N4H 0.0395 0.0485 0.0535 0.0081 0.0035 0.0012
C3H 0.0486 0.0494 0.0512 0.0015 0.0011 0.0013
Cu1B 0.0374 0.0437 0.0506 0.0038 -0.0001 -0.0022
Cu1F 0.0374 0.0437 0.0506 0.0038 -0.0001 -0.0022
N4C 0.0485 0.0395 0.0535 -0.0035 0.0081 -0.0012
N4K 0.0485 0.0395 0.0535 -0.0035 0.0081 -0.0012
F1 0.120(2) 0.162(3) 0.170(3) -0.073(2) -0.032(2) -0.014(2)
B1 0.041(2) 0.041(2) 0.084(5) 0.000 0.000 0.000
F1E 0.12 0.162 0.17 0.073 0.032 -0.014
F1K 0.162 0.12 0.17 0.032 -0.073 0.014
F1N 0.162 0.12 0.17 -0.032 0.073 0.014
O3 0.119(6) 0.108(6) 0.110(6) -0.010(5) 0.010(5) -0.009(5)
O4 0.160(7) 0.158(7) 0.164(7) -0.001(5) -0.009(6) -0.002(6)
loop_
_geom_bond_atom_site_label_1
_geom_bond_atom_site_label_2
_geom_bond_site_symmetry_1
_geom_bond_site_symmetry_2
Cu1 O1 1_555 1_555
C1 O1 1_555 1_555
N1 C2 1_555 1_555
C2 C1 1_555 1_555
H1 C2 1_555 1_555
H2 C2 1_555 1_555
N2 N1 1_555 1_555
O2 C1 1_555 1_555
N3 N2 1_555 1_555
N4 N3 1_555 1_555
C3 N1 1_555 1_555
H3 C3 1_555 1_555
F1 B1 1_555 1_555
B1 F1E 1_555 1_555
C1H O1H 1_555 1_555
O1H Cu1 1_555 1_555
N1H C2H 1_555 1_555
C2H C1H 1_555 1_555
H1H C2H 1_555 1_555
H2H C2H 1_555 1_555
N2H N1H 1_555 1_555
O2H C1H 1_555 1_555
N3H N2H 1_555 1_555
N4H N3H 1_555 1_555
C3H N1H 1_555 1_555
H3H C3H 1_555 1_555
Cu1B N4 1_555 1_555
Cu1F N4H 1_555 1_555
N4C Cu1 1_555 1_555
N4K Cu1 1_555 1_555
F1K B1 1_555 1_555
F1N B1 1_555 1_555
N4 C3 1_555 1_555
N4H C3H 1_555 1_555

#END
