
#######################################################################
#
#                 Cambridge Crystallographic Data Centre
#                                CCDC 
#
#######################################################################
#
# If this CIF has been generated from an entry in the Cambridge 
# Structural Database, then it will include bibliographic, chemical, 
# crystal, experimental, refinement or atomic coordinate data resulting 
# from the CCDC's data processing and validation procedures.
#
#######################################################################

data_AVIVEG
_chemical_formula_moiety         '(C24 H16 Ag1 B1 F4 N4 S1)n'
_symmetry_cell_setting           tetragonal
_symmetry_space_group_name_H-M   'I 41/a m d'
_symmetry_Int_Tables_number      141
_space_group_name_Hall           '-I 4bd 2'
loop_
_symmetry_equiv_pos_site_id
_symmetry_equiv_pos_as_xyz
1 x,y,z
2 1/4+y,3/4+x,1/4-z
3 1/4+y,1/4-x,3/4+z
4 1/4-y,3/4+x,1/4+z
5 1/2+x,1/2+y,1/2+z
6 3/4+y,1/4+x,3/4-z
7 3/4+y,3/4-x,1/4+z
8 3/4-y,1/4+x,3/4+z
9 -x,1/2-y,z
10 x,-y,-z
11 -x,1/2+y,-z
12 1/4-y,1/4-x,3/4-z
13 1/2-x,-y,1/2+z
14 1/2+x,1/2-y,1/2-z
15 1/2-x,y,1/2-z
16 3/4-y,3/4-x,1/4-z
17 -x,-y,-z
18 3/4-y,1/4-x,3/4+z
19 3/4-y,3/4+x,1/4-z
20 3/4+y,1/4-x,3/4-z
21 1/2-x,1/2-y,1/2-z
22 1/4-y,3/4-x,1/4+z
23 1/4-y,1/4+x,3/4-z
24 1/4+y,3/4-x,1/4-z
25 x,1/2+y,-z
26 -x,y,z
27 x,1/2-y,z
28 3/4+y,3/4+x,1/4+z
29 1/2+x,y,1/2-z
30 1/2-x,1/2+y,1/2+z
31 1/2+x,-y,1/2+z
32 1/4+y,1/4+x,3/4+z
_cell_length_a                   22.636(5)
_cell_length_b                   22.636(5)
_cell_length_c                   35.393(5)
_cell_angle_alpha                90
_cell_angle_beta                 90
_cell_angle_gamma                90
_cell_volume                     18135
loop_
_atom_site_label
_atom_site_type_symbol
_atom_site_fract_x
_atom_site_fract_y
_atom_site_fract_z
_atom_site_U_iso_or_equiv
_atom_site_thermal_displace_type
Ag1 Ag 0.336713(10) 0.086713(10) 0.6250 0.0354 Uani
N1 N 0.23512(12) 0.09194(13) 0.64049(8) 0.0527 Uani
C1 C 0.21733(15) 0.12485(18) 0.66954(10) 0.0637 Uani
H1 H 0.2455 0.1473 0.6822 0.0760 Uiso
C2 C 0.16035(15) 0.12773(19) 0.68193(10) 0.0600 Uani
H2 H 0.1505 0.1517 0.7023 0.0720 Uiso
C3 C 0.11730(13) 0.09469(14) 0.66391(8) 0.0389 Uani
C4 C 0.13478(14) 0.06016(16) 0.63380(9) 0.0449 Uani
H3 H 0.1074 0.0374 0.6208 0.0540 Uiso
C5 C 0.19411(14) 0.05989(17) 0.62317(9) 0.0498 Uani
H4 H 0.2055 0.0361 0.6030 0.0600 Uiso
C6 C 0.05478(13) 0.09583(13) 0.67599(8) 0.0373 Uani
S1 S 0.0000 0.09223(5) 0.64206(3) 0.0414 Uani
C7 C 0.03144(12) 0.10007(13) 0.71144(8) 0.0348 Uani
C8 C 0.06519(13) 0.09951(13) 0.74734(8) 0.0353 Uani
C9 C 0.08324(17) 0.04764(16) 0.76305(10) 0.0600 Uani
H5 H 0.0766 0.0121 0.7506 0.0720 Uiso
C10 C 0.11162(17) 0.04834(16) 0.79782(10) 0.0613 Uani
H6 H 0.1228 0.0123 0.8082 0.0740 Uiso
N2 N 0.12380(11) 0.09621(11) 0.81705(7) 0.0374 Uani
C11 C 0.10759(18) 0.14606(15) 0.80130(10) 0.0633 Uani
H7 H 0.1165 0.1812 0.8137 0.0760 Uiso
C12 C 0.07782(19) 0.14906(16) 0.76719(11) 0.0710 Uani
H8 H 0.0663 0.1857 0.7578 0.0850 Uiso
C6Y C -0.05478(13) 0.09583(13) 0.67599(8) 0.0373 Uani
C3Y C -0.11730(13) 0.09469(14) 0.66391(8) 0.0389 Uani
C2Y C -0.16035(15) 0.12773(19) 0.68193(10) 0.0600 Uani
C1Y C -0.21733(15) 0.12485(18) 0.66954(10) 0.0637 Uani
N1Y N -0.23512(12) 0.09194(13) 0.64049(8) 0.0527 Uani
C5Y C -0.19411(14) 0.05989(17) 0.62317(9) 0.0498 Uani
C4Y C -0.13478(14) 0.06016(16) 0.63380(9) 0.0449 Uani
H3Y H -0.1074 0.0374 0.6208 0.0540 Uiso
H4Y H -0.2055 0.0361 0.6030 0.0600 Uiso
H1Y H -0.2455 0.1473 0.6822 0.0760 Uiso
H2Y H -0.1505 0.1517 0.7023 0.0720 Uiso
C7Y C -0.03144(12) 0.10007(13) 0.71144(8) 0.0348 Uani
C8Y C -0.06519(13) 0.09951(13) 0.74734(8) 0.0353 Uani
C9Y C -0.08324(17) 0.04764(16) 0.76305(10) 0.0600 Uani
H5Y H -0.0766 0.0121 0.7506 0.0720 Uiso
C10Y C -0.11162(17) 0.04834(16) 0.79782(10) 0.0613 Uani
H6Y H -0.1228 0.0123 0.8082 0.0740 Uiso
N2Y N -0.12380(11) 0.09621(11) 0.81705(7) 0.0374 Uani
C11Y C -0.10759(18) 0.14606(15) 0.80130(10) 0.0633 Uani
H7Y H -0.1165 0.1812 0.8137 0.0760 Uiso
C12Y C -0.07782(19) 0.14906(16) 0.76719(11) 0.0710 Uani
H8Y H -0.0663 0.1857 0.7578 0.0850 Uiso
N1A N 0.34194(13) -0.01488(12) 0.60951(8) 0.0527 Uani
Ag1Y Ag -0.336713(10) 0.086713(10) 0.6250 0.0354 Uani
N2B N 0.34621(11) 0.12620(11) 0.56705(7) 0.0374 Uani
N2N N 0.37620(11) 0.09621(11) 0.68295(7) 0.0374 Uani
Ag1C Ag 0.163287(10) 0.086713(10) 0.8750 0.0354 Uani
Ag1AA Ag -0.163287(10) 0.086713(10) 0.8750 0.0354 Uani
B1 B 0.2500 0.2500 0.7500 0.1677 Uani
F1 F 0.2500 0.1920(3) 0.7500 0.1523 Uani
F2 F 0.2203(5) 0.2500 0.7863(3) 0.1973 Uani
F1Z F 0.2500 0.3080(3) 0.7500 0.1523 Uani
F2T F 0.2797(5) 0.2500 0.7137(3) 0.1973 Uani
loop_
_atom_site_aniso_label
_atom_site_aniso_U_11
_atom_site_aniso_U_22
_atom_site_aniso_U_33
_atom_site_aniso_U_23
_atom_site_aniso_U_13
_atom_site_aniso_U_12
Ag1 0.03757(15) 0.03757(15) 0.03093(19) 0.00016(10) -0.00016(10) 0.00120(15)
N1 0.0331(15) 0.075(2) 0.0500(16) -0.0214(15) 0.0065(13) -0.0060(15)
C1 0.034(2) 0.094(3) 0.063(2) -0.034(2) 0.0057(17) -0.014(2)
C2 0.040(2) 0.084(3) 0.056(2) -0.032(2) 0.0106(17) -0.007(2)
C3 0.0292(16) 0.053(2) 0.0345(16) -0.0048(15) 0.0005(13) -0.0039(15)
C4 0.0296(17) 0.060(2) 0.045(2) -0.0119(16) 0.0023(14) -0.0012(17)
C5 0.0394(19) 0.066(2) 0.0439(18) -0.0178(18) 0.0052(16) -0.0032(17)
C6 0.0302(16) 0.0477(19) 0.0339(16) -0.0014(14) -0.0032(13) 0.0031(14)
S1 0.0280(6) 0.0596(8) 0.0367(6) -0.0016(6) 0.000 0.000
C7 0.0282(15) 0.0404(18) 0.0359(16) -0.0014(13) -0.0009(13) -0.0004(13)
C8 0.0278(14) 0.0446(19) 0.0334(16) 0.0001(13) -0.0008(12) -0.0005(14)
C9 0.082(3) 0.046(2) 0.052(2) -0.0083(17) -0.025(2) 0.001(2)
C10 0.087(3) 0.048(2) 0.049(2) 0.0036(17) -0.027(2) 0.013(2)
N2 0.0374(15) 0.0444(16) 0.0304(13) -0.0007(11) -0.0031(11) 0.0033(12)
C11 0.099(3) 0.043(2) 0.048(2) -0.0040(17) -0.031(2) 0.011(2)
C12 0.110(3) 0.046(2) 0.057(2) -0.0052(18) -0.045(2) 0.022(2)
C6Y 0.0302 0.0477 0.0339 -0.0014 0.0032 -0.0031
C3Y 0.0292 0.053 0.0345 -0.0048 -0.0005 0.0039
C2Y 0.04 0.084 0.056 -0.032 -0.0106 0.007
C1Y 0.034 0.094 0.063 -0.034 -0.0057 0.014
N1Y 0.0331 0.075 0.05 -0.0214 -0.0065 0.006
C5Y 0.0394 0.066 0.0439 -0.0178 -0.0052 0.0032
C4Y 0.0296 0.06 0.045 -0.0119 -0.0023 0.0012
C7Y 0.0282 0.0404 0.0359 -0.0014 0.0009 0.0004
C8Y 0.0278 0.0446 0.0334 0.0001 0.0008 0.0005
C9Y 0.082 0.046 0.052 -0.0083 0.025 -0.001
C10Y 0.087 0.048 0.049 0.0036 0.027 -0.013
N2Y 0.0374 0.0444 0.0304 -0.0007 0.0031 -0.0033
C11Y 0.099 0.043 0.048 -0.004 0.031 -0.011
C12Y 0.11 0.046 0.057 -0.0052 0.045 -0.022
N1A 0.075 0.0331 0.05 -0.0065 0.0214 -0.006
Ag1Y 0.03757 0.03757 0.03093 0.00016 0.00016 -0.0012
N2B 0.0444 0.0374 0.0304 0.0031 -0.0007 -0.0033
N2N 0.0374 0.0444 0.0304 0.0007 -0.0031 -0.0033
Ag1C 0.03757 0.03757 0.03093 -0.00016 -0.00016 -0.0012
Ag1AA 0.03757 0.03757 0.03093 -0.00016 0.00016 0.0012
B1 0.25(3) 0.22(3) 0.033(7) 0.000 -0.021(11) 0.000
F1 0.297(11) 0.058(4) 0.102(5) 0.000 -0.088(6) 0.000
F2 0.202(10) 0.148(8) 0.242(12) 0.000 0.037(9) 0.000
F1Z 0.297 0.058 0.102 0 -0.088 0
F2T 0.202 0.148 0.242 0 0.037 0
loop_
_geom_bond_atom_site_label_1
_geom_bond_atom_site_label_2
_geom_bond_site_symmetry_1
_geom_bond_site_symmetry_2
B1 F1 1_555 1_555
F2 B1 1_555 1_555
Ag1 N1 1_555 1_555
N1 C1 1_555 1_555
C1 H1 1_555 1_555
C2 C1 1_555 1_555
H2 C2 1_555 1_555
C3 C2 1_555 1_555
C4 C3 1_555 1_555
H3 C4 1_555 1_555
C5 N1 1_555 1_555
H4 C5 1_555 1_555
C6 C3 1_555 1_555
S1 C6 1_555 1_555
C7 C6 1_555 1_555
C8 C7 1_555 1_555
C9 C8 1_555 1_555
H5 C9 1_555 1_555
C10 C9 1_555 1_555
H6 C10 1_555 1_555
N2 C10 1_555 1_555
C11 N2 1_555 1_555
H7 C11 1_555 1_555
C12 C8 1_555 1_555
H8 C12 1_555 1_555
F1Z B1 1_555 1_555
F2T B1 1_555 1_555
C6Y S1 1_555 1_555
C3Y C6Y 1_555 1_555
C2Y C3Y 1_555 1_555
C1Y C2Y 1_555 1_555
N1Y C1Y 1_555 1_555
C5Y N1Y 1_555 1_555
C4Y C3Y 1_555 1_555
H3Y C4Y 1_555 1_555
H4Y C5Y 1_555 1_555
H1Y C1Y 1_555 1_555
H2Y C2Y 1_555 1_555
C7Y C7 1_555 1_555
C8Y C7Y 1_555 1_555
C9Y C8Y 1_555 1_555
H5Y C9Y 1_555 1_555
C10Y C9Y 1_555 1_555
H6Y C10Y 1_555 1_555
N2Y C10Y 1_555 1_555
C11Y N2Y 1_555 1_555
H7Y C11Y 1_555 1_555
C12Y C8Y 1_555 1_555
H8Y C12Y 1_555 1_555
N1A Ag1 1_555 1_555
Ag1Y N1Y 1_555 1_555
N2B Ag1 1_555 1_555
N2N Ag1 1_555 1_555
Ag1C N2 1_555 1_555
Ag1AA N2Y 1_555 1_555
C4 C5 1_555 1_555
C11 C12 1_555 1_555
C6Y C7Y 1_555 1_555
C5Y C4Y 1_555 1_555
C11Y C12Y 1_555 1_555

#END
