
#######################################################################
#
#                 Cambridge Crystallographic Data Centre
#                                CCDC 
#
#######################################################################
#
# If this CIF has been generated from an entry in the Cambridge 
# Structural Database, then it will include bibliographic, chemical, 
# crystal, experimental, refinement or atomic coordinate data resulting 
# from the CCDC's data processing and validation procedures.
#
#######################################################################

data_JOVXEZ
_chemical_formula_moiety         '(C22 H22 Cl2 Cu2 N4 O15)n'
_symmetry_cell_setting           monoclinic
_symmetry_space_group_name_H-M   'C 2/c'
_symmetry_Int_Tables_number      15
_space_group_name_Hall           '-C 2yc'
loop_
_symmetry_equiv_pos_site_id
_symmetry_equiv_pos_as_xyz
1 x,y,z
2 -x,y,1/2-z
3 1/2+x,1/2+y,z
4 1/2-x,1/2+y,1/2-z
5 -x,-y,-z
6 x,-y,1/2+z
7 1/2-x,1/2-y,-z
8 1/2+x,1/2-y,1/2+z
_cell_length_a                   18.299(2)
_cell_length_b                   12.4511(14)
_cell_length_c                   15.604(3)
_cell_angle_alpha                90
_cell_angle_beta                 120.1750(10)
_cell_angle_gamma                90
_cell_volume                     3073.5
loop_
_atom_site_label
_atom_site_type_symbol
_atom_site_fract_x
_atom_site_fract_y
_atom_site_fract_z
_atom_site_U_iso_or_equiv
_atom_site_thermal_displace_type
Cu1 Cu 0.26206(4) 0.22654(11) 0.17175(5) 0.0931 Uani
N1 N 0.1697(4) 0.2379(7) 0.2037(4) 0.0930 Uani
N2 N 0.3462(3) 0.1480(7) 0.2939(4) 0.0885 Uani
C1 C 0.4674(4) 0.0309(8) 0.4572(4) 0.0876 Uani
C2 C 0.0347(4) 0.2588(9) 0.2397(5) 0.0975 Uani
C3 C 0.1165(5) 0.2864(10) 0.3095(6) 0.1186 Uani
H1 H 0.1280 0.3104 0.3715 0.1420 Uiso
C4 C 0.4890(4) 0.1019(12) 0.4046(6) 0.1461 Uani
H2 H 0.5456 0.1123 0.4239 0.1760 Uiso
C5 C 0.3257(4) 0.0831(10) 0.3440(6) 0.1221 Uani
H3 H 0.2690 0.0782 0.3257 0.1460 Uiso
C6 C 0.0234(5) 0.2221(11) 0.1507(6) 0.1238 Uani
H4 H -0.0306 0.2050 0.0997 0.1490 Uiso
C7 C 0.1812(5) 0.2792(9) 0.2895(6) 0.1027 Uani
H5 H 0.2346 0.3035 0.3366 0.1240 Uiso
C8 C 0.4279(4) 0.1561(11) 0.3251(6) 0.1315 Uani
H6 H 0.4446 0.2015 0.2907 0.1580 Uiso
C9 C 0.0911(5) 0.2106(11) 0.1363(6) 0.1265 Uani
H7 H 0.0815 0.1822 0.0764 0.1520 Uiso
C10 C 0.3831(4) 0.0211(9) 0.4227(6) 0.1193 Uani
H8 H 0.3640 -0.0276 0.4522 0.1430 Uiso
O1 O 0.1652(3) 0.2939(6) -0.1117(3) 0.0950 Uani
O2 O 0.1797(3) 0.2828(6) 0.0379(4) 0.1031 Uani
C11 C 0.2043(4) 0.2717(8) -0.0223(5) 0.0910 Uani
O3 O 0.3238(4) 0.3899(7) 0.2333(6) 0.1314 Uani
Cl1 Cl 0.17369(19) -0.0227(3) 0.0053(3) 0.1337 Uani
O4 O 0.2099(7) 0.0234(12) 0.1020(8) 0.2117 Uani
O5 O 0.1584(9) -0.1245(14) 0.0169(9) 0.2968 Uani
O6 O 0.1010(11) 0.0238(16) -0.0563(11) 0.3178 Uani
O7 O 0.2292(16) -0.0118(18) -0.020(2) 0.3843 Uani
N1A N -0.1697(4) 0.2379(7) 0.2963(4) 0.0930 Uani
C2A C -0.0347(4) 0.2588(9) 0.2603(5) 0.0975 Uani
C3A C -0.1165(5) 0.2864(10) 0.1905(6) 0.1186 Uani
H1A H -0.1280 0.3104 0.1285 0.1420 Uiso
C6A C -0.0234(5) 0.2221(11) 0.3493(6) 0.1238 Uani
H4A H 0.0306 0.2050 0.4003 0.1490 Uiso
C7A C -0.1812(5) 0.2792(9) 0.2105(6) 0.1027 Uani
H5A H -0.2346 0.3035 0.1634 0.1240 Uiso
C9A C -0.0911(5) 0.2106(11) 0.3637(6) 0.1265 Uani
H7A H -0.0815 0.1822 0.4236 0.1520 Uiso
N2D N 0.6538(3) -0.1480(7) 0.7061(4) 0.0885 Uani
C1D C 0.5326(4) -0.0309(8) 0.5428(4) 0.0876 Uani
C4D C 0.5110(4) -0.1019(12) 0.5954(6) 0.1461 Uani
H2D H 0.4544 -0.1123 0.5761 0.1760 Uiso
C5D C 0.6743(4) -0.0831(10) 0.6560(6) 0.1221 Uani
H3D H 0.7310 -0.0782 0.6743 0.1460 Uiso
C8D C 0.5721(4) -0.1561(11) 0.6749(6) 0.1315 Uani
H6D H 0.5554 -0.2015 0.7093 0.1580 Uiso
C10D C 0.6169(4) -0.0211(9) 0.5773(6) 0.1193 Uani
H8D H 0.6360 0.0276 0.5478 0.1430 Uiso
O2F O 0.3203(3) 0.2172(6) -0.0379(4) 0.1031 Uani
C11F C 0.2957(4) 0.2283(8) 0.0223(5) 0.0910 Uani
O1F O 0.3348(3) 0.2061(6) 0.1117(3) 0.0950 Uani
Cu1A Cu -0.26206(4) 0.22654(11) 0.32825(5) 0.0931 Uani
O3A O -0.3238(4) 0.3899(7) 0.2667(6) 0.1314 Uani
Cl1A Cl -0.17369(19) -0.0227(3) 0.4947(3) 0.1337 Uani
O4A O -0.2099(7) 0.0234(12) 0.3980(8) 0.2117 Uani
O5A O -0.1584(9) -0.1245(14) 0.4831(9) 0.2968 Uani
O6A O -0.1010(11) 0.0238(16) 0.5563(11) 0.3178 Uani
O7A O -0.2292(16) -0.0118(18) 0.520(2) 0.3843 Uani
Cu1D Cu 0.73794(4) -0.22654(11) 0.82825(5) 0.0931 Uani
Cu1F Cu 0.23794(4) 0.27346(11) -0.17175(5) 0.0931 Uani
N2A N -0.3462(3) 0.1480(7) 0.2061(4) 0.0885 Uani
O1G O -0.3348(3) 0.2061(6) 0.3883(3) 0.0950 Uani
O2A O -0.1797(3) 0.2828(6) 0.4621(4) 0.1031 Uani
O8 O 0.0356(16) -0.112(2) 0.0937(16) 0.3342 Uani
loop_
_atom_site_aniso_label
_atom_site_aniso_U_11
_atom_site_aniso_U_22
_atom_site_aniso_U_33
_atom_site_aniso_U_23
_atom_site_aniso_U_13
_atom_site_aniso_U_12
Cu1 0.0333(5) 0.2081(14) 0.0375(5) 0.0326(5) 0.0176(4) 0.0032(5)
N1 0.037(3) 0.203(7) 0.038(3) 0.016(3) 0.018(2) -0.006(3)
N2 0.033(2) 0.188(7) 0.039(2) 0.024(3) 0.014(2) -0.010(3)
C1 0.038(3) 0.176(8) 0.037(3) 0.024(4) 0.010(2) -0.021(4)
C2 0.040(3) 0.215(10) 0.036(3) 0.008(4) 0.018(3) 0.005(4)
C3 0.047(4) 0.253(12) 0.051(4) -0.030(6) 0.021(3) -0.011(5)
C4 0.032(3) 0.310(15) 0.070(5) 0.088(7) 0.006(3) -0.022(6)
C5 0.035(3) 0.246(12) 0.083(5) 0.064(7) 0.028(4) 0.001(5)
C6 0.051(4) 0.286(14) 0.045(4) -0.035(6) 0.032(3) -0.043(6)
C7 0.038(3) 0.208(10) 0.052(4) -0.011(5) 0.015(3) -0.011(4)
C8 0.040(4) 0.266(13) 0.063(4) 0.073(7) 0.007(3) -0.017(5)
C9 0.049(4) 0.290(14) 0.048(4) -0.022(6) 0.030(3) -0.037(6)
C10 0.041(3) 0.219(11) 0.090(5) 0.086(7) 0.027(4) 0.006(5)
O1 0.035 0.209 0.043 0.043 0.021 0.018
O2 0.035(2) 0.236(7) 0.044(2) 0.036(3) 0.024(2) 0.016(3)
C11 0.033(3) 0.197(8) 0.046(3) 0.031(4) 0.022(3) 0.003(4)
O3 0.072(4) 0.191(7) 0.115(5) 0.041(5) 0.035(4) -0.002(4)
Cl1 0.0894 0.179 0.119 0.034 0.0421 0.0145
O4 0.164 0.306 0.107 -0.035 0.025 -0.039
O5 0.209 0.301 0.145 0.084 -0.086 -0.102
O6 0.239 0.39 0.151 -0.018 -0.031 0.175
O7 0.45 0.42 0.55 -0.19 0.45 -0.16
N1A 0.037 0.203 0.038 -0.016 0.018 0.006
C2A 0.04 0.215 0.036 -0.008 0.018 -0.005
C3A 0.047 0.253 0.051 0.03 0.021 0.011
C6A 0.051 0.286 0.045 0.035 0.032 0.043
C7A 0.038 0.208 0.052 0.011 0.015 0.011
C9A 0.049 0.29 0.048 0.022 0.03 0.037
N2D 0.033 0.188 0.039 0.024 0.014 -0.01
C1D 0.038 0.176 0.037 0.024 0.01 -0.021
C4D 0.032 0.31 0.07 0.088 0.006 -0.022
C5D 0.035 0.246 0.083 0.064 0.028 0.001
C8D 0.04 0.266 0.063 0.073 0.007 -0.017
C10D 0.041 0.219 0.09 0.086 0.027 0.006
O2F 0.035 0.236 0.044 0.036 0.024 0.016
C11F 0.033 0.197 0.046 0.031 0.022 0.003
O1F 0.035 0.209 0.043 0.043 0.021 0.018
Cu1A 0.0333 0.2081 0.0375 -0.0326 0.0176 -0.0032
O3A 0.072 0.191 0.115 -0.041 0.035 0.002
Cl1A 0.0894 0.179 0.119 -0.034 0.0421 -0.0145
O4A 0.164 0.306 0.107 0.035 0.025 0.039
O5A 0.209 0.301 0.145 -0.084 -0.086 0.102
O6A 0.239 0.39 0.151 0.018 -0.031 -0.175
O7A 0.45 0.42 0.55 0.19 0.45 0.16
Cu1D 0.0333 0.2081 0.0375 0.0326 0.0176 0.0032
Cu1F 0.0333 0.2081 0.0375 0.0326 0.0176 0.0032
N2A 0.033 0.188 0.039 -0.024 0.014 0.01
O1G 0.035 0.209 0.043 -0.043 0.021 -0.018
O2A 0.035 0.236 0.044 -0.036 0.024 -0.016
O8 0.35(2) 0.40(3) 0.233(19) 0.03(2) 0.132(18) -0.05(2)
loop_
_geom_bond_atom_site_label_1
_geom_bond_atom_site_label_2
_geom_bond_site_symmetry_1
_geom_bond_site_symmetry_2
Cu1 N1 1_555 1_555
N1 C7 1_555 1_555
N2 Cu1 1_555 1_555
C1 C4 1_555 1_555
C2 C3 1_555 1_555
C3 H1 1_555 1_555
C4 H2 1_555 1_555
C5 N2 1_555 1_555
H3 C5 1_555 1_555
C6 C2 1_555 1_555
H4 C6 1_555 1_555
C7 C3 1_555 1_555
H5 C7 1_555 1_555
C8 N2 1_555 1_555
H6 C8 1_555 1_555
C9 N1 1_555 1_555
H7 C9 1_555 1_555
C10 C1 1_555 1_555
H8 C10 1_555 1_555
O1 C11 1_555 1_555
O2 Cu1 1_555 1_555
C11 O2 1_555 1_555
O3 Cu1 1_555 1_555
Cl1 O4 1_555 1_555
O4 Cu1 1_555 1_555
O5 Cl1 1_555 1_555
O6 Cl1 1_555 1_555
O7 Cl1 1_555 1_555
N1A C7A 1_555 1_555
C2A C2 1_555 1_555
C3A C2A 1_555 1_555
H1A C3A 1_555 1_555
C6A C2A 1_555 1_555
H4A C6A 1_555 1_555
C7A C3A 1_555 1_555
H5A C7A 1_555 1_555
C9A N1A 1_555 1_555
H7A C9A 1_555 1_555
N2D C5D 1_555 1_555
C1D C1 1_555 1_555
C4D C1D 1_555 1_555
H2D C4D 1_555 1_555
C5D H3D 1_555 1_555
C8D N2D 1_555 1_555
H6D C8D 1_555 1_555
C10D C1D 1_555 1_555
H8D C10D 1_555 1_555
O2F C11F 1_555 1_555
C11F C11 1_555 1_555
O1F Cu1 1_555 1_555
Cu1A N1A 1_555 1_555
O3A Cu1A 1_555 1_555
Cl1A O4A 1_555 1_555
O4A Cu1A 1_555 1_555
O5A Cl1A 1_555 1_555
O6A Cl1A 1_555 1_555
O7A Cl1A 1_555 1_555
Cu1D N2D 1_555 1_555
Cu1F O1 1_555 1_555
N2A Cu1A 1_555 1_555
O1G Cu1A 1_555 1_555
O2A Cu1A 1_555 1_555
C4 C8 1_555 1_555
C5 C10 1_555 1_555
C6 C9 1_555 1_555
C6A C9A 1_555 1_555
C4D C8D 1_555 1_555
C5D C10D 1_555 1_555
O2F Cu1F 1_555 1_555
C11F O1F 1_555 1_555

#END
