
#######################################################################
#
#                 Cambridge Crystallographic Data Centre
#                                CCDC 
#
#######################################################################
#
# If this CIF has been generated from an entry in the Cambridge 
# Structural Database, then it will include bibliographic, chemical, 
# crystal, experimental, refinement or atomic coordinate data resulting 
# from the CCDC's data processing and validation procedures.
#
#######################################################################

data_BIVTAE
_chemical_formula_moiety         '(C16 H20 N6 Nd2 O21)n'
_symmetry_cell_setting           triclinic
_symmetry_space_group_name_H-M   'P -1'
_symmetry_Int_Tables_number      2
_space_group_name_Hall           '-P 1'
loop_
_symmetry_equiv_pos_site_id
_symmetry_equiv_pos_as_xyz
1 x,y,z
2 -x,-y,-z
_cell_length_a                   8.076(3)
_cell_length_b                   12.545(4)
_cell_length_c                   15.713(3)
_cell_angle_alpha                71.896(18)
_cell_angle_beta                 82.14(2)
_cell_angle_gamma                75.62(3)
_cell_volume                     1462.65
loop_
_atom_site_label
_atom_site_type_symbol
_atom_site_fract_x
_atom_site_fract_y
_atom_site_fract_z
Nd1 Nd 0.02523(8) 0.17911(6) 0.86469(4)
Nd2 Nd 0.64533(8) 0.37214(5) 0.61446(4)
O1 O -0.4499(12) 0.4499(7) 0.7461(5)
O2 O 0.5259(11) -0.4228(7) 0.5413(6)
O3 O 0.3344(11) 0.3913(7) 0.6421(5)
O4 O 0.5549(10) 0.2108(7) 0.7352(6)
O5 O 0.0991(12) 0.1072(8) 0.7297(6)
O6 O 0.1184(11) 0.3329(7) 0.7358(6)
O7 O -0.2041(12) 0.0790(8) 0.8569(6)
O8 O -0.2169(11) 0.3290(7) 0.8021(5)
C1 C -0.705(3) 0.8497(12) 0.8540(10)
H1 H -0.7743 0.8898 0.8030
H2 H -0.6000 0.8779 0.8423
N1 N 0.169(2) 0.2639(19) 0.9912(11)
O9 O 0.8342(12) 0.4145(8) 0.4711(6)
O10 O 0.8626(11) 0.4771(8) 0.6294(6)
O11 O 0.4035(12) -0.2428(7) 0.4759(6)
O12 O -0.8574(12) 0.9823(7) 0.9296(5)
O13 O -0.8182(12) 0.7957(8) 1.0064(6)
O14 O -0.1073(12) 0.2224(7) 0.6417(6)
N2 N -0.6615(16) 0.7242(10) 0.8629(7)
N3 N 0.4060(16) -0.1709(10) 0.6244(7)
O15 O 0.3437(11) 0.1553(8) 0.8318(6)
C2 C 0.4648(16) -0.3206(11) 0.5423(8)
N4 N -0.5181(15) 0.5520(9) 0.8798(7)
O16 O 0.1739(16) 0.1590(11) 1.0069(7)
C3 C 0.0264(19) 0.1447(10) 0.6585(9)
C4 C -0.8019(18) 0.8772(11) 0.9379(8)
N5 N 0.254(2) 0.0028(12) 0.6008(8)
O17 O 0.094(2) 0.3368(11) 0.9202(8)
C5 C 0.4004(18) 0.2196(10) 0.7633(8)
C6 C -0.3466(17) 0.4079(11) 0.8046(7)
C7 C 0.508(2) -0.1000(14) 0.6241(11)
H3 H 0.6253 -0.1216 0.6310
C8 C -0.5065(19) 0.6592(12) 0.8678(9)
H4 H -0.4056 0.6841 0.8635
C9 C 0.103(3) 0.1006(18) 0.5811(11)
H5 H 0.1368 0.1632 0.5332
H6 H 0.0157 0.0765 0.5594
C10 C 0.2718(16) 0.3241(11) 0.7091(8)
O18 O 0.226(3) 0.3043(18) 1.0385(11)
C11 C 0.461(2) -0.2946(11) 0.6313(9)
H7 H 0.5746 -0.3233 0.6538
H8 H 0.3838 -0.3355 0.6745
C12 C -0.776(2) 0.6570(17) 0.8690(12)
H9 H -0.8936 0.6820 0.8657
C13 C -0.372(2) 0.4542(13) 0.8847(10)
H10 H -0.3878 0.3930 0.9387
H11 H -0.2685 0.4779 0.8894
C14 C -0.686(2) 0.5487(15) 0.8807(11)
H12 H -0.7293 0.4841 0.8880
C15 C 0.250(2) -0.1051(16) 0.6075(9)
H13 H 0.1541 -0.1302 0.6015
C16 C 0.412(3) 0.0064(14) 0.6123(13)
H14 H 0.4496 0.0709 0.6122
Nd1_2 Nd -0.97477(8) 1.17911(6) 0.86469(4)
Nd1A Nd -1.02523(8) 0.82089(6) 1.13531(4)
Nd2_2 Nd -0.35467(8) 0.37214(5) 0.61446(4)
Nd2_3 Nd 0.64533(8) -0.62786(5) 0.61446(4)
Nd2A Nd 0.35467(8) -0.37214(5) 0.38554(4)
O1_2 O 0.5501(12) 0.4499(7) 0.7461(5)
O2_2 O 0.5259(11) 0.5772(7) 0.5413(6)
O2A O 0.4741(11) 0.4228(7) 0.4587(6)
O11A O 0.5965(12) 0.2428(7) 0.5241(6)
O12_2 O 0.1426(12) -0.0177(7) 0.9296(5)
O13A O -0.1818(12) 0.2043(8) 0.9936(6)
O14_2 O 0.8927(12) 0.2224(7) 0.6417(6)
N6 N 0.928(2) 0.6876(19) 0.6891(15)
O19 O 0.914(3) 0.7254(15) 0.6130(12)
O20 O 0.816(2) 0.6848(16) 0.7458(10)
O21 O 1.071(3) 0.632(4) 0.709(2)
loop_
_geom_bond_atom_site_label_1
_geom_bond_atom_site_label_2
_geom_bond_site_symmetry_1
_geom_bond_site_symmetry_2
Nd1 O5 1_555 1_555
Nd2 O3 1_555 1_555
O1 C6 1_555 1_555
O2 C2 1_555 1_555
O3 C10 1_555 1_555
O4 Nd2 1_555 1_555
O5 C3 1_555 1_555
O6 Nd1 1_555 1_555
O7 Nd1 1_555 1_555
O8 Nd1 1_555 1_555
C1 H1 1_555 1_555
H2 C1 1_555 1_555
N1 O16 1_555 1_555
O9 Nd2 1_555 1_555
O10 Nd2 1_555 1_555
O11 C2 1_555 1_555
O12 C4 1_555 1_555
O13 C4 1_555 1_555
O14 C3 1_555 1_555
N2 C1 1_555 1_555
N3 C7 1_555 1_555
O15 Nd1 1_555 1_555
C2 C11 1_555 1_555
N4 C8 1_555 1_555
O16 Nd1 1_555 1_555
C3 C9 1_555 1_555
C4 C1 1_555 1_555
N5 C9 1_555 1_555
O17 Nd1 1_555 1_555
C5 O4 1_555 1_555
C6 O8 1_555 1_555
C7 H3 1_555 1_555
C8 N2 1_555 1_555
H4 C8 1_555 1_555
C9 H5 1_555 1_555
H6 C9 1_555 1_555
C10 O6 1_555 1_555
O18 N1 1_555 1_555
C11 N3 1_555 1_555
H7 C11 1_555 1_555
H8 C11 1_555 1_555
C12 N2 1_555 1_555
H9 C12 1_555 1_555
C13 N4 1_555 1_555
H10 C13 1_555 1_555
H11 C13 1_555 1_555
C14 N4 1_555 1_555
H12 C14 1_555 1_555
C15 N3 1_555 1_555
H13 C15 1_555 1_555
C16 N5 1_555 1_555
H14 C16 1_555 1_555
N6 O19 1_555 1_555
O20 N6 1_555 1_555
O21 N6 1_555 1_555
Nd1_2 O12 1_555 1_555
Nd1A O13 1_555 1_555
Nd2_2 O1 1_555 1_555
Nd2_3 O2 1_555 1_555
Nd2A O2 1_555 1_555
O1_2 Nd2 1_555 1_555
O2_2 Nd2 1_555 1_555
O2A Nd2 1_555 1_555
O11A Nd2 1_555 1_555
O12_2 Nd1 1_555 1_555
O13A Nd1 1_555 1_555
O14_2 Nd2 1_555 1_555
N1 O17 1_555 1_555
O11 Nd2A 1_555 1_555
O14 Nd2_2 1_555 1_555
O15 C5 1_555 1_555
N5 C15 1_555 1_555
C5 C10 1_555 1_555
C6 C13 1_555 1_555
C7 C16 1_555 1_555
C12 C14 1_555 1_555

#END
