
#######################################################################
#
#                 Cambridge Crystallographic Data Centre
#                                CCDC 
#
#######################################################################
#
# If this CIF has been generated from an entry in the Cambridge 
# Structural Database, then it will include bibliographic, chemical, 
# crystal, experimental, refinement or atomic coordinate data resulting 
# from the CCDC's data processing and validation procedures.
#
#######################################################################

data_WUWRAI
_chemical_formula_moiety         '(C114 H104 Cl1 N48 O8 Zn3 5+)n'
_symmetry_cell_setting           cubic
_symmetry_space_group_name_H-M   'I a -3 d'
_symmetry_Int_Tables_number      230
_space_group_name_Hall           '-I 4bd 2c 3'
loop_
_symmetry_equiv_pos_site_id
_symmetry_equiv_pos_as_xyz
1 x,y,z
2 1/2-x,-y,1/2+z
3 -x,1/2+y,1/2-z
4 1/2+x,1/2-y,-z
5 z,x,y
6 1/2+z,1/2-x,-y
7 1/2-z,-x,1/2+y
8 -z,1/2+x,1/2-y
9 y,z,x
10 -y,1/2+z,1/2-x
11 1/2+y,1/2-z,-x
12 1/2-y,-z,1/2+x
13 3/4+y,1/4+x,1/4-z
14 3/4-y,3/4-x,3/4-z
15 1/4+y,1/4-x,3/4+z
16 1/4-y,3/4+x,1/4+z
17 3/4+x,1/4+z,1/4-y
18 1/4-x,3/4+z,1/4+y
19 3/4-x,3/4-z,3/4-y
20 1/4+x,1/4-z,3/4+y
21 3/4+z,1/4+y,1/4-x
22 1/4+z,1/4-y,3/4+x
23 1/4-z,3/4+y,1/4+x
24 3/4-z,3/4-y,3/4-x
25 1/2+x,1/2+y,1/2+z
26 -x,1/2-y,z
27 1/2-x,y,-z
28 x,-y,1/2-z
29 1/2+z,1/2+x,1/2+y
30 z,-x,1/2-y
31 -z,1/2-x,y
32 1/2-z,x,-y
33 1/2+y,1/2+z,1/2+x
34 1/2-y,z,-x
35 y,-z,1/2-x
36 -y,1/2-z,x
37 1/4+y,3/4+x,3/4-z
38 1/4-y,1/4-x,1/4-z
39 3/4+y,3/4-x,1/4+z
40 3/4-y,1/4+x,3/4+z
41 1/4+x,3/4+z,3/4-y
42 3/4-x,1/4+z,3/4+y
43 1/4-x,1/4-z,1/4-y
44 3/4+x,3/4-z,1/4+y
45 1/4+z,3/4+y,3/4-x
46 3/4+z,3/4-y,1/4+x
47 3/4-z,1/4+y,3/4+x
48 1/4-z,1/4-y,1/4-x
49 -x,-y,-z
50 1/2+x,y,1/2-z
51 x,1/2-y,1/2+z
52 1/2-x,1/2+y,z
53 -z,-x,-y
54 1/2-z,1/2+x,y
55 1/2+z,x,1/2-y
56 z,1/2-x,1/2+y
57 -y,-z,-x
58 y,1/2-z,1/2+x
59 1/2-y,1/2+z,x
60 1/2+y,z,1/2-x
61 1/4-y,3/4-x,3/4+z
62 1/4+y,1/4+x,1/4+z
63 3/4-y,3/4+x,1/4-z
64 3/4+y,1/4-x,3/4-z
65 1/4-x,3/4-z,3/4+y
66 3/4+x,1/4-z,3/4-y
67 1/4+x,1/4+z,1/4+y
68 3/4-x,3/4+z,1/4-y
69 1/4-z,3/4-y,3/4+x
70 3/4-z,3/4+y,1/4-x
71 3/4+z,1/4-y,3/4-x
72 1/4+z,1/4+y,1/4+x
73 1/2-x,1/2-y,1/2-z
74 x,1/2+y,-z
75 1/2+x,-y,z
76 -x,y,1/2+z
77 1/2-z,1/2-x,1/2-y
78 -z,x,1/2+y
79 z,1/2+x,-y
80 1/2+z,-x,y
81 1/2-y,1/2-z,1/2-x
82 1/2+y,-z,x
83 -y,z,1/2+x
84 y,1/2+z,-x
85 3/4-y,1/4-x,1/4+z
86 3/4+y,3/4+x,3/4+z
87 1/4-y,1/4+x,3/4-z
88 1/4+y,3/4-x,1/4-z
89 3/4-x,1/4-z,1/4+y
90 1/4+x,3/4-z,1/4-y
91 3/4+x,3/4+z,3/4+y
92 1/4-x,1/4+z,3/4-y
93 3/4-z,1/4-y,1/4+x
94 1/4-z,1/4+y,3/4-x
95 1/4+z,3/4-y,1/4-x
96 3/4+z,3/4+y,3/4+x
_cell_length_a                   31.5108(6)
_cell_length_b                   31.5108(6)
_cell_length_c                   31.5108(6)
_cell_angle_alpha                90
_cell_angle_beta                 90
_cell_angle_gamma                90
_cell_volume                     31288
loop_
_atom_site_label
_atom_site_type_symbol
_atom_site_fract_x
_atom_site_fract_y
_atom_site_fract_z
_atom_site_U_iso_or_equiv
_atom_site_thermal_displace_type
Zn1 Zn -0.0000 0.7500 0.1250 0.0326 Uani
C1 C 0.12215(11) 0.72800(11) 0.07898(11) 0.0400 Uani
H1 H 0.1493 0.7151 0.0810 0.0480 Uiso
C2 C 0.09212(11) 0.73009(11) 0.10970(12) 0.0417 Uani
H2 H 0.0950 0.7187 0.1375 0.0500 Uiso
C3 C 0.06649(10) 0.76227(10) 0.05550(11) 0.0313 Uani
C4 C -0.01856(11) 0.81763(11) 0.00942(11) 0.0369 Uani
C5 C -0.01497(12) 0.80960(12) -0.03364(11) 0.0437 Uani
H3 H 0.0073 0.7922 -0.0441 0.0520 Uiso
C6 C -0.04404(13) 0.82717(13) -0.06106(13) 0.0547 Uani
H4 H -0.0420 0.8217 -0.0906 0.0650 Uiso
C7 C -0.07658(14) 0.85295(14) -0.04555(15) 0.0627 Uani
H5 H -0.0963 0.8653 -0.0647 0.0750 Uiso
C8 C -0.08020(13) 0.86059(13) -0.00281(14) 0.0583 Uani
H6 H -0.1025 0.8780 0.0076 0.0700 Uiso
C9 C -0.05116(12) 0.84279(12) 0.02509(13) 0.0490 Uani
H7 H -0.0536 0.8478 0.0547 0.0590 Uiso
C10 C 0.1250 0.75303(10) 0.00303(10) 0.0371 Uani
H8 H 0.1467 0.7307 -0.0007 0.0440 Uiso
N1 N 0.10534(8) 0.74834(8) 0.04428(8) 0.0335 Uani
N2 N 0.05694(8) 0.75105(9) 0.09496(8) 0.0334 Uani
N3 N 0.04203(9) 0.78287(8) 0.02491(9) 0.0337 Uani
N4 N 0.00884(9) 0.79972(8) 0.04050(9) 0.0355 Uani
Zn1Q Zn 0.2500 0.8750 0.0000 0.0326 Uani
Zn1V Zn 0.1250 0.5000 0.2500 0.0326 Uani
Zn1T Zn -0.1250 1.0000 0.2500 0.0326 Uani
Zn1R Zn -0.2500 0.6250 0.0000 0.0326 Uani
Zn1D Zn 0.1250 1.0000 -0.2500 0.0326 Uani
Zn1F Zn 0.3750 1.0000 0.2500 0.0326 Uani
C1Q C 0.12785(11) 0.82898(11) -0.02200(11) 0.0400 Uani
C1IC C -0.02200(11) 0.62785(11) 0.17102(11) 0.0400 Uani
C1ZB C 0.07898(11) 0.62215(11) 0.27200(11) 0.0400 Uani
C1JB C 0.02200(11) 0.87215(11) 0.17102(11) 0.0400 Uani
C1ZA C -0.07898(11) 0.87785(11) 0.27200(11) 0.0400 Uani
C1Y C -0.12215(11) 0.77200(11) 0.07898(11) 0.0400 Uani
C1QA C -0.12785(11) 0.67102(11) -0.02200(11) 0.0400 Uani
C1DB C 0.27200(11) 0.92102(11) -0.12215(11) 0.0400 Uani
C1PB C 0.17102(11) 1.02200(11) -0.12785(11) 0.0400 Uani
C1CC C 0.22800(11) 0.92102(11) 0.12215(11) 0.0400 Uani
C1PC C 0.32898(11) 1.02200(11) 0.12785(11) 0.0400 Uani
H1Q H 0.1007 0.8310 -0.0349 0.0480 Uiso
H1IC H -0.0349 0.6007 0.1690 0.0480 Uiso
H1ZB H 0.0810 0.6493 0.2849 0.0480 Uiso
H1JB H 0.0349 0.8993 0.1690 0.0480 Uiso
H1ZA H -0.0810 0.8507 0.2849 0.0480 Uiso
H1Y H -0.1493 0.7849 0.0810 0.0480 Uiso
H1QA H -0.1007 0.6690 -0.0349 0.0480 Uiso
H1DB H 0.2849 0.9190 -0.1493 0.0480 Uiso
H1PB H 0.1690 1.0349 -0.1007 0.0480 Uiso
H1CC H 0.2151 0.9190 0.1493 0.0480 Uiso
H1PC H 0.3310 1.0349 0.1007 0.0480 Uiso
C2Q C 0.15788(11) 0.85970(12) -0.01991(11) 0.0417 Uani
C2IC C -0.01991(11) 0.65788(11) 0.14030(12) 0.0417 Uani
C2ZB C 0.10970(12) 0.59212(11) 0.26991(11) 0.0417 Uani
C2JB C 0.01991(11) 0.84212(11) 0.14030(12) 0.0417 Uani
C2ZA C -0.10970(12) 0.90788(11) 0.26991(11) 0.0417 Uani
C2Y C -0.09212(11) 0.76991(11) 0.10970(12) 0.0417 Uani
C2QA C -0.15788(11) 0.64030(12) -0.01991(11) 0.0417 Uani
C2DB C 0.26991(11) 0.89030(12) -0.09212(11) 0.0417 Uani
C2PB C 0.14030(12) 1.01991(11) -0.15788(11) 0.0417 Uani
C2CC C 0.23009(11) 0.89030(12) 0.09212(11) 0.0417 Uani
C2PC C 0.35970(12) 1.01991(11) 0.15788(11) 0.0417 Uani
H2Q H 0.1550 0.8875 -0.0313 0.0500 Uiso
H2IC H -0.0313 0.6550 0.1125 0.0500 Uiso
H2ZB H 0.1375 0.5950 0.2813 0.0500 Uiso
H2JB H 0.0313 0.8450 0.1125 0.0500 Uiso
H2ZA H -0.1375 0.9050 0.2813 0.0500 Uiso
H2Y H -0.0950 0.7813 0.1375 0.0500 Uiso
H2QA H -0.1550 0.6125 -0.0313 0.0500 Uiso
H2DB H 0.2813 0.8625 -0.0950 0.0500 Uiso
H2PB H 0.1125 1.0313 -0.1550 0.0500 Uiso
H2CC H 0.2187 0.8625 0.0950 0.0500 Uiso
H2PC H 0.3875 1.0313 0.1550 0.0500 Uiso
C3Q C 0.18351(10) 0.80550(11) 0.01227(10) 0.0313 Uani
C3IC C 0.01227(10) 0.68351(10) 0.19450(11) 0.0313 Uani
C3ZB C 0.05550(11) 0.56649(10) 0.23773(10) 0.0313 Uani
C3JB C -0.01227(10) 0.81649(10) 0.19450(11) 0.0313 Uani
C3ZA C -0.05550(11) 0.93351(10) 0.23773(10) 0.0313 Uani
C3Y C -0.06649(10) 0.73773(10) 0.05550(11) 0.0313 Uani
C3QA C -0.18351(10) 0.69450(11) 0.01227(10) 0.0313 Uani
C3DB C 0.23773(10) 0.94450(11) -0.06649(10) 0.0313 Uani
C3PB C 0.19450(11) 0.98773(10) -0.18351(10) 0.0313 Uani
C3CC C 0.26227(10) 0.94450(11) 0.06649(10) 0.0313 Uani
C3PC C 0.30550(11) 0.98773(10) 0.18351(10) 0.0313 Uani
C4Q C 0.26856(11) 0.75942(11) 0.06763(11) 0.0369 Uani
C4IC C 0.06763(11) 0.76856(11) 0.24058(11) 0.0369 Uani
C4ZB C 0.00942(11) 0.48144(11) 0.18237(11) 0.0369 Uani
C4JB C -0.06763(11) 0.73144(11) 0.24058(11) 0.0369 Uani
C4ZA C -0.00942(11) 1.01856(11) 0.18237(11) 0.0369 Uani
C4Y C 0.01856(11) 0.68237(11) 0.00942(11) 0.0369 Uani
C4QA C -0.26856(11) 0.74058(11) 0.06763(11) 0.0369 Uani
C4DB C 0.18237(11) 0.99058(11) 0.01856(11) 0.0369 Uani
C4PB C 0.24058(11) 0.93237(11) -0.26856(11) 0.0369 Uani
C4CC C 0.31763(11) 0.99058(11) -0.01856(11) 0.0369 Uani
C4PC C 0.25942(11) 0.93237(11) 0.26856(11) 0.0369 Uani
C5Q C 0.26497(12) 0.71636(11) 0.05960(12) 0.0437 Uani
C5IC C 0.05960(12) 0.76497(12) 0.28364(11) 0.0437 Uani
C5ZB C -0.03364(11) 0.48503(12) 0.19040(12) 0.0437 Uani
C5JB C -0.05960(12) 0.73503(12) 0.28364(11) 0.0437 Uani
C5ZA C 0.03364(11) 1.01497(12) 0.19040(12) 0.0437 Uani
C5Y C 0.01497(12) 0.69040(12) -0.03364(11) 0.0437 Uani
C5QA C -0.26497(12) 0.78364(11) 0.05960(12) 0.0437 Uani
C5DB C 0.19040(12) 1.03364(11) 0.01497(12) 0.0437 Uani
C5PB C 0.28364(11) 0.94040(12) -0.26497(12) 0.0437 Uani
C5CC C 0.30960(12) 1.03364(11) -0.01497(12) 0.0437 Uani
C5PC C 0.21636(11) 0.94040(12) 0.26497(12) 0.0437 Uani
H3Q H 0.2427 0.7059 0.0422 0.0520 Uiso
H3IC H 0.0422 0.7427 0.2941 0.0520 Uiso
H3ZB H -0.0441 0.5073 0.2078 0.0520 Uiso
H3JB H -0.0422 0.7573 0.2941 0.0520 Uiso
H3ZA H 0.0441 0.9927 0.2078 0.0520 Uiso
H3Y H -0.0073 0.7078 -0.0441 0.0520 Uiso
H3QA H -0.2427 0.7941 0.0422 0.0520 Uiso
H3DB H 0.2078 1.0441 -0.0073 0.0520 Uiso
H3PB H 0.2941 0.9578 -0.2427 0.0520 Uiso
H3CC H 0.2922 1.0441 0.0073 0.0520 Uiso
H3PC H 0.2059 0.9578 0.2427 0.0520 Uiso
C6Q C 0.29404(13) 0.68894(13) 0.07717(13) 0.0547 Uani
C6IC C 0.07717(13) 0.79404(13) 0.31106(13) 0.0547 Uani
C6ZB C -0.06106(13) 0.45596(13) 0.17283(13) 0.0547 Uani
C6JB C -0.07717(13) 0.70596(13) 0.31106(13) 0.0547 Uani
C6ZA C 0.06106(13) 1.04404(13) 0.17283(13) 0.0547 Uani
C6Y C 0.04404(13) 0.67283(13) -0.06106(13) 0.0547 Uani
C6QA C -0.29404(13) 0.81106(13) 0.07717(13) 0.0547 Uani
C6DB C 0.17283(13) 1.06106(13) 0.04404(13) 0.0547 Uani
C6PB C 0.31106(13) 0.92283(13) -0.29404(13) 0.0547 Uani
C6CC C 0.32717(13) 1.06106(13) -0.04404(13) 0.0547 Uani
C6PC C 0.18894(13) 0.92283(13) 0.29404(13) 0.0547 Uani
H4Q H 0.2920 0.6594 0.0717 0.0650 Uiso
H4IC H 0.0717 0.7920 0.3406 0.0650 Uiso
H4ZB H -0.0906 0.4580 0.1783 0.0650 Uiso
H4JB H -0.0717 0.7080 0.3406 0.0650 Uiso
H4ZA H 0.0906 1.0420 0.1783 0.0650 Uiso
H4Y H 0.0420 0.6783 -0.0906 0.0650 Uiso
H4QA H -0.2920 0.8406 0.0717 0.0650 Uiso
H4DB H 0.1783 1.0906 0.0420 0.0650 Uiso
H4PB H 0.3406 0.9283 -0.2920 0.0650 Uiso
H4CC H 0.3217 1.0906 -0.0420 0.0650 Uiso
H4PC H 0.1594 0.9283 0.2920 0.0650 Uiso
C7Q C 0.32658(14) 0.70445(15) 0.10295(14) 0.0627 Uani
C7IC C 0.10295(14) 0.82658(14) 0.29555(15) 0.0627 Uani
C7ZB C -0.04555(15) 0.42342(14) 0.14705(14) 0.0627 Uani
C7JB C -0.10295(14) 0.67342(14) 0.29555(15) 0.0627 Uani
C7ZA C 0.04555(15) 1.07658(14) 0.14705(14) 0.0627 Uani
C7Y C 0.07658(14) 0.64705(14) -0.04555(15) 0.0627 Uani
C7QA C -0.32658(14) 0.79555(15) 0.10295(14) 0.0627 Uani
C7DB C 0.14705(14) 1.04555(15) 0.07658(14) 0.0627 Uani
C7PB C 0.29555(15) 0.89705(14) -0.32658(14) 0.0627 Uani
C7CC C 0.35295(14) 1.04555(15) -0.07658(14) 0.0627 Uani
C7PC C 0.20445(15) 0.89705(14) 0.32658(14) 0.0627 Uani
H5Q H 0.3463 0.6853 0.1153 0.0750 Uiso
H5IC H 0.1153 0.8463 0.3147 0.0750 Uiso
H5ZB H -0.0647 0.4037 0.1347 0.0750 Uiso
H5JB H -0.1153 0.6537 0.3147 0.0750 Uiso
H5ZA H 0.0647 1.0963 0.1347 0.0750 Uiso
H5Y H 0.0963 0.6347 -0.0647 0.0750 Uiso
H5QA H -0.3463 0.8147 0.1153 0.0750 Uiso
H5DB H 0.1347 1.0647 0.0963 0.0750 Uiso
H5PB H 0.3147 0.8847 -0.3463 0.0750 Uiso
H5CC H 0.3653 1.0647 -0.0963 0.0750 Uiso
H5PC H 0.1853 0.8847 0.3463 0.0750 Uiso
C8Q C 0.33020(13) 0.74719(14) 0.11059(13) 0.0583 Uani
C8IC C 0.11059(13) 0.83020(13) 0.25281(14) 0.0583 Uani
C8ZB C -0.00281(14) 0.41980(13) 0.13941(13) 0.0583 Uani
C8JB C -0.11059(13) 0.66980(13) 0.25281(14) 0.0583 Uani
C8ZA C 0.00281(14) 1.08020(13) 0.13941(13) 0.0583 Uani
C8Y C 0.08020(13) 0.63941(13) -0.00281(14) 0.0583 Uani
C8QA C -0.33020(13) 0.75281(14) 0.11059(13) 0.0583 Uani
C8DB C 0.13941(13) 1.00281(14) 0.08020(13) 0.0583 Uani
C8PB C 0.25281(14) 0.88941(13) -0.33020(13) 0.0583 Uani
C8CC C 0.36059(13) 1.00281(14) -0.08020(13) 0.0583 Uani
C8PC C 0.24719(14) 0.88941(13) 0.33020(13) 0.0583 Uani
H6Q H 0.3525 0.7576 0.1280 0.0700 Uiso
H6IC H 0.1280 0.8525 0.2424 0.0700 Uiso
H6ZB H 0.0076 0.3975 0.1220 0.0700 Uiso
H6JB H -0.1280 0.6475 0.2424 0.0700 Uiso
H6ZA H -0.0076 1.1025 0.1220 0.0700 Uiso
H6Y H 0.1025 0.6220 0.0076 0.0700 Uiso
H6QA H -0.3525 0.7424 0.1280 0.0700 Uiso
H6DB H 0.1220 0.9924 0.1025 0.0700 Uiso
H6PB H 0.2424 0.8720 -0.3525 0.0700 Uiso
H6CC H 0.3780 0.9924 -0.1025 0.0700 Uiso
H6PC H 0.2576 0.8720 0.3525 0.0700 Uiso
C9Q C 0.30116(12) 0.77509(13) 0.09279(12) 0.0490 Uani
C9IC C 0.09279(12) 0.80116(12) 0.22491(13) 0.0490 Uani
C9ZB C 0.02509(13) 0.44884(12) 0.15721(12) 0.0490 Uani
C9JB C -0.09279(12) 0.69884(12) 0.22491(13) 0.0490 Uani
C9ZA C -0.02509(13) 1.05116(12) 0.15721(12) 0.0490 Uani
C9Y C 0.05116(12) 0.65721(12) 0.02509(13) 0.0490 Uani
C9QA C -0.30116(12) 0.72491(13) 0.09279(12) 0.0490 Uani
C9DB C 0.15721(12) 0.97491(13) 0.05116(12) 0.0490 Uani
C9PB C 0.22491(13) 0.90721(12) -0.30116(12) 0.0490 Uani
C9CC C 0.34279(12) 0.97491(13) -0.05116(12) 0.0490 Uani
C9PC C 0.27509(13) 0.90721(12) 0.30116(12) 0.0490 Uani
H7Q H 0.3036 0.8047 0.0978 0.0590 Uiso
H7IC H 0.0978 0.8036 0.1953 0.0590 Uiso
H7ZB H 0.0547 0.4464 0.1522 0.0590 Uiso
H7JB H -0.0978 0.6964 0.1953 0.0590 Uiso
H7ZA H -0.0547 1.0536 0.1522 0.0590 Uiso
H7Y H 0.0536 0.6522 0.0547 0.0590 Uiso
H7QA H -0.3036 0.6953 0.0978 0.0590 Uiso
H7DB H 0.1522 0.9453 0.0536 0.0590 Uiso
H7PB H 0.1953 0.9022 -0.3036 0.0590 Uiso
H7CC H 0.3478 0.9453 -0.0536 0.0590 Uiso
H7PC H 0.3047 0.9022 0.3036 0.0590 Uiso
C10ZB C 0.00303(10) 0.6250 0.24697(10) 0.0371 Uani
C10ZA C -0.00303(10) 0.8750 0.24697(10) 0.0371 Uani
C10Y C -0.1250 0.74697(10) 0.00303(10) 0.0371 Uani
C10DB C 0.24697(10) 0.99697(10) -0.1250 0.0371 Uani
C10CC C 0.25303(10) 0.99697(10) 0.1250 0.0371 Uani
H8Q H 0.1033 0.7493 -0.0193 0.0440 Uiso
H8IC H -0.0193 0.6033 0.2507 0.0440 Uiso
H8ZB H -0.0007 0.6467 0.2693 0.0440 Uiso
H8JB H 0.0193 0.8967 0.2507 0.0440 Uiso
H8ZA H 0.0007 0.8533 0.2693 0.0440 Uiso
H8Y H -0.1467 0.7693 -0.0007 0.0440 Uiso
H8QA H -0.1033 0.7507 -0.0193 0.0440 Uiso
H8DB H 0.2693 1.0007 -0.1467 0.0440 Uiso
H8PB H 0.2507 1.0193 -0.1033 0.0440 Uiso
H8CC H 0.2307 1.0007 0.1467 0.0440 Uiso
H8PC H 0.2493 1.0193 0.1033 0.0440 Uiso
N1Q N 0.14466(8) 0.79428(8) -0.00166(8) 0.0335 Uani
N1IC N -0.00166(8) 0.64466(8) 0.20572(8) 0.0335 Uani
N1ZB N 0.04428(8) 0.60534(8) 0.25166(8) 0.0335 Uani
N1JB N 0.00166(8) 0.85534(8) 0.20572(8) 0.0335 Uani
N1ZA N -0.04428(8) 0.89466(8) 0.25166(8) 0.0335 Uani
N1Y N -0.10534(8) 0.75166(8) 0.04428(8) 0.0335 Uani
N1QA N -0.14466(8) 0.70572(8) -0.00166(8) 0.0335 Uani
N1DB N 0.25166(8) 0.95572(8) -0.10534(8) 0.0335 Uani
N1PB N 0.20572(8) 1.00166(8) -0.14466(8) 0.0335 Uani
N1CC N 0.24834(8) 0.95572(8) 0.10534(8) 0.0335 Uani
N1PC N 0.29428(8) 1.00166(8) 0.14466(8) 0.0335 Uani
N2Q N 0.19306(8) 0.84496(8) 0.00105(9) 0.0334 Uani
N2IC N 0.00105(9) 0.69306(8) 0.15504(8) 0.0334 Uani
N2ZB N 0.09496(8) 0.55694(8) 0.24895(9) 0.0334 Uani
N2JB N -0.00105(9) 0.80694(8) 0.15504(8) 0.0334 Uani
N2ZA N -0.09496(8) 0.94306(8) 0.24895(9) 0.0334 Uani
N2Y N -0.05694(8) 0.74895(9) 0.09496(8) 0.0334 Uani
N2QA N -0.19306(8) 0.65504(8) 0.00105(9) 0.0334 Uani
N2DB N 0.24895(9) 0.90504(8) -0.05694(8) 0.0334 Uani
N2PB N 0.15504(8) 0.99895(9) -0.19306(8) 0.0334 Uani
N2CC N 0.25105(9) 0.90504(8) 0.05694(8) 0.0334 Uani
N2PC N 0.34496(8) 0.99895(9) 0.19306(8) 0.0334 Uani
N2NA N 0.30694(8) 0.84496(8) -0.00105(9) 0.0334 Uani
N2V N 0.15504(8) 0.50105(9) 0.30694(8) 0.0334 Uani
N2UA N 0.15504(8) 0.49895(9) 0.19306(8) 0.0334 Uani
N2CB N 0.09496(8) 0.44306(8) 0.25105(9) 0.0334 Uani
N3Q N 0.20797(9) 0.77491(9) 0.03287(8) 0.0337 Uani
N3IC N 0.03287(8) 0.70797(9) 0.22509(9) 0.0337 Uani
N3ZB N 0.02491(9) 0.54203(9) 0.21713(8) 0.0337 Uani
N3JB N -0.03287(8) 0.79203(9) 0.22509(9) 0.0337 Uani
N3ZA N -0.02491(9) 0.95797(9) 0.21713(8) 0.0337 Uani
N3Y N -0.04203(9) 0.71713(8) 0.02491(9) 0.0337 Uani
N3QA N -0.20797(9) 0.72509(9) 0.03287(8) 0.0337 Uani
N3DB N 0.21713(8) 0.97509(9) -0.04203(9) 0.0337 Uani
N3PB N 0.22509(9) 0.96713(8) -0.20797(9) 0.0337 Uani
N3CC N 0.28287(8) 0.97509(9) 0.04203(9) 0.0337 Uani
N3PC N 0.27491(9) 0.96713(8) 0.20797(9) 0.0337 Uani
N4Q N 0.24116(9) 0.79050(9) 0.04972(8) 0.0355 Uani
N4IC N 0.04972(8) 0.74116(9) 0.20950(9) 0.0355 Uani
N4ZB N 0.04050(9) 0.50884(9) 0.20028(8) 0.0355 Uani
N4JB N -0.04972(8) 0.75884(9) 0.20950(9) 0.0355 Uani
N4ZA N -0.04050(9) 0.99116(9) 0.20028(8) 0.0355 Uani
N4Y N -0.00884(9) 0.70028(8) 0.04050(9) 0.0355 Uani
N4QA N -0.24116(9) 0.70950(9) 0.04972(8) 0.0355 Uani
N4DB N 0.20028(8) 0.95950(9) -0.00884(9) 0.0355 Uani
N4PB N 0.20950(9) 0.95028(8) -0.24116(9) 0.0355 Uani
N4CC N 0.29972(8) 0.95950(9) 0.00884(9) 0.0355 Uani
N4PC N 0.29050(9) 0.95028(8) 0.24116(9) 0.0355 Uani
Cl1 Cl 0.18597(4) 0.6250 0.06403(4) 0.0634 Uani
O1 O 0.22313(10) 0.59913(9) 0.06520(10) 0.0790 Uani
O2 O 0.14939(10) 0.59810(10) 0.06483(11) 0.0860 Uani
O1UA O 0.18480(10) 0.65087(9) 0.02687(10) 0.0790 Uani
O2UA O 0.18517(11) 0.65190(10) 0.10061(10) 0.0860 Uani
O3 O 0.0281(3) 1.0281(3) 0.0281(3) 0.3300 Uani
O4 O 0.0589(3) 0.8998(3) 0.0464(3) 0.2653 Uani
O5 O 0.0116(7) 0.9546(4) 0.0872(3) 0.4487 Uani
O6 O 0.1250 0.84709(17) 0.09709(17) 0.2540 Uani
loop_
_atom_site_aniso_label
_atom_site_aniso_U_11
_atom_site_aniso_U_22
_atom_site_aniso_U_33
_atom_site_aniso_U_23
_atom_site_aniso_U_13
_atom_site_aniso_U_12
Zn1 0.0317(3) 0.0317(3) 0.0344(5) 0.000 0.000 0.000
C1 0.034(2) 0.040(2) 0.046(2) 0.0059(18) -0.0020(18) 0.0035(17)
C2 0.040(2) 0.044(2) 0.041(2) 0.0066(18) -0.0005(18) 0.0018(18)
C3 0.0315(19) 0.0244(17) 0.038(2) -0.0018(15) 0.0002(16) -0.0029(14)
C4 0.0355(19) 0.0342(19) 0.041(2) 0.0086(16) 0.0059(16) -0.0002(16)
C5 0.043(2) 0.045(2) 0.043(2) -0.0007(18) -0.0009(18) 0.0057(18)
C6 0.059(3) 0.056(3) 0.049(2) 0.003(2) -0.002(2) 0.009(2)
C7 0.051(3) 0.064(3) 0.073(3) 0.025(3) -0.006(2) 0.006(2)
C8 0.048(3) 0.063(3) 0.064(3) 0.016(2) 0.011(2) 0.016(2)
C9 0.046(2) 0.053(2) 0.048(2) 0.008(2) 0.0103(19) 0.0088(19)
C10 0.034(3) 0.0387(17) 0.0387(17) -0.008(2) 0.0043(17) -0.0043(17)
N1 0.0317(15) 0.0300(15) 0.0387(17) -0.0015(13) 0.0043(13) -0.0022(13)
N2 0.0328(15) 0.0319(15) 0.0356(16) 0.0010(13) 0.0021(13) 0.0003(13)
N3 0.0326(16) 0.0305(16) 0.0379(16) 0.0002(13) 0.0023(13) -0.0042(13)
N4 0.0334(16) 0.0307(16) 0.0425(17) 0.0026(13) 0.0022(14) 0.0014(13)
Zn1Q 0.0317 0.0344 0.0317 0 0 0
Zn1V 0.0344 0.0317 0.0317 0 0 0
Zn1T 0.0344 0.0317 0.0317 0 0 0
Zn1R 0.0317 0.0344 0.0317 0 0 0
Zn1D 0.0344 0.0317 0.0317 0 0 0
Zn1F 0.0344 0.0317 0.0317 0 0 0
C1Q 0.034 0.046 0.04 0.0059 -0.0035 0.002
C1IC 0.04 0.034 0.046 -0.002 -0.0059 -0.0035
C1ZB 0.046 0.034 0.04 -0.0035 -0.0059 -0.002
C1JB 0.04 0.034 0.046 0.002 0.0059 -0.0035
C1ZA 0.046 0.034 0.04 0.0035 0.0059 -0.002
C1Y 0.034 0.04 0.046 -0.0059 0.002 0.0035
C1QA 0.034 0.046 0.04 -0.0059 0.0035 0.002
C1DB 0.04 0.046 0.034 -0.002 0.0035 0.0059
C1PB 0.046 0.04 0.034 -0.0035 0.002 0.0059
C1CC 0.04 0.046 0.034 0.002 0.0035 -0.0059
C1PC 0.046 0.04 0.034 0.0035 0.002 -0.0059
C2Q 0.04 0.041 0.044 0.0066 -0.0018 0.0005
C2IC 0.044 0.04 0.041 -0.0005 -0.0066 -0.0018
C2ZB 0.041 0.04 0.044 -0.0018 -0.0066 -0.0005
C2JB 0.044 0.04 0.041 0.0005 0.0066 -0.0018
C2ZA 0.041 0.04 0.044 0.0018 0.0066 -0.0005
C2Y 0.04 0.044 0.041 -0.0066 0.0005 0.0018
C2QA 0.04 0.041 0.044 -0.0066 0.0018 0.0005
C2DB 0.044 0.041 0.04 -0.0005 0.0018 0.0066
C2PB 0.041 0.044 0.04 -0.0018 0.0005 0.0066
C2CC 0.044 0.041 0.04 0.0005 0.0018 -0.0066
C2PC 0.041 0.044 0.04 0.0018 0.0005 -0.0066
C3Q 0.0315 0.038 0.0244 -0.0018 0.0029 -0.0002
C3IC 0.0244 0.0315 0.038 0.0002 0.0018 0.0029
C3ZB 0.038 0.0315 0.0244 0.0029 0.0018 0.0002
C3JB 0.0244 0.0315 0.038 -0.0002 -0.0018 0.0029
C3ZA 0.038 0.0315 0.0244 -0.0029 -0.0018 0.0002
C3Y 0.0315 0.0244 0.038 0.0018 -0.0002 -0.0029
C3QA 0.0315 0.038 0.0244 0.0018 -0.0029 -0.0002
C3DB 0.0244 0.038 0.0315 0.0002 -0.0029 -0.0018
C3PB 0.038 0.0244 0.0315 0.0029 -0.0002 -0.0018
C3CC 0.0244 0.038 0.0315 -0.0002 -0.0029 0.0018
C3PC 0.038 0.0244 0.0315 -0.0029 -0.0002 0.0018
C4Q 0.0355 0.041 0.0342 0.0086 0.0002 -0.0059
C4IC 0.0342 0.0355 0.041 0.0059 -0.0086 0.0002
C4ZB 0.041 0.0355 0.0342 0.0002 -0.0086 0.0059
C4JB 0.0342 0.0355 0.041 -0.0059 0.0086 0.0002
C4ZA 0.041 0.0355 0.0342 -0.0002 0.0086 0.0059
C4Y 0.0355 0.0342 0.041 -0.0086 -0.0059 -0.0002
C4QA 0.0355 0.041 0.0342 -0.0086 -0.0002 -0.0059
C4DB 0.0342 0.041 0.0355 0.0059 -0.0002 0.0086
C4PB 0.041 0.0342 0.0355 0.0002 -0.0059 0.0086
C4CC 0.0342 0.041 0.0355 -0.0059 -0.0002 -0.0086
C4PC 0.041 0.0342 0.0355 -0.0002 -0.0059 -0.0086
C5Q 0.043 0.043 0.045 -0.0007 -0.0057 0.0009
C5IC 0.045 0.043 0.043 -0.0009 0.0007 -0.0057
C5ZB 0.043 0.043 0.045 -0.0057 0.0007 -0.0009
C5JB 0.045 0.043 0.043 0.0009 -0.0007 -0.0057
C5ZA 0.043 0.043 0.045 0.0057 -0.0007 -0.0009
C5Y 0.043 0.045 0.043 0.0007 0.0009 0.0057
C5QA 0.043 0.043 0.045 0.0007 0.0057 0.0009
C5DB 0.045 0.043 0.043 -0.0009 0.0057 -0.0007
C5PB 0.043 0.045 0.043 -0.0057 0.0009 -0.0007
C5CC 0.045 0.043 0.043 0.0009 0.0057 0.0007
C5PC 0.043 0.045 0.043 0.0057 0.0009 0.0007
C6Q 0.059 0.049 0.056 0.003 -0.009 0.002
C6IC 0.056 0.059 0.049 -0.002 -0.003 -0.009
C6ZB 0.049 0.059 0.056 -0.009 -0.003 -0.002
C6JB 0.056 0.059 0.049 0.002 0.003 -0.009
C6ZA 0.049 0.059 0.056 0.009 0.003 -0.002
C6Y 0.059 0.056 0.049 -0.003 0.002 0.009
C6QA 0.059 0.049 0.056 -0.003 0.009 0.002
C6DB 0.056 0.049 0.059 -0.002 0.009 0.003
C6PB 0.049 0.056 0.059 -0.009 0.002 0.003
C6CC 0.056 0.049 0.059 0.002 0.009 -0.003
C6PC 0.049 0.056 0.059 0.009 0.002 -0.003
C7Q 0.051 0.073 0.064 0.025 -0.006 0.006
C7IC 0.064 0.051 0.073 -0.006 -0.025 -0.006
C7ZB 0.073 0.051 0.064 -0.006 -0.025 -0.006
C7JB 0.064 0.051 0.073 0.006 0.025 -0.006
C7ZA 0.073 0.051 0.064 0.006 0.025 -0.006
C7Y 0.051 0.064 0.073 -0.025 0.006 0.006
C7QA 0.051 0.073 0.064 -0.025 0.006 0.006
C7DB 0.064 0.073 0.051 -0.006 0.006 0.025
C7PB 0.073 0.064 0.051 -0.006 0.006 0.025
C7CC 0.064 0.073 0.051 0.006 0.006 -0.025
C7PC 0.073 0.064 0.051 0.006 0.006 -0.025
C8Q 0.048 0.064 0.063 0.016 -0.016 -0.011
C8IC 0.063 0.048 0.064 0.011 -0.016 -0.016
C8ZB 0.064 0.048 0.063 -0.016 -0.016 0.011
C8JB 0.063 0.048 0.064 -0.011 0.016 -0.016
C8ZA 0.064 0.048 0.063 0.016 0.016 0.011
C8Y 0.048 0.063 0.064 -0.016 -0.011 0.016
C8QA 0.048 0.064 0.063 -0.016 0.016 -0.011
C8DB 0.063 0.064 0.048 0.011 0.016 0.016
C8PB 0.064 0.063 0.048 -0.016 -0.011 0.016
C8CC 0.063 0.064 0.048 -0.011 0.016 -0.016
C8PC 0.064 0.063 0.048 0.016 -0.011 -0.016
C9Q 0.046 0.048 0.053 0.008 -0.0088 -0.0103
C9IC 0.053 0.046 0.048 0.0103 -0.008 -0.0088
C9ZB 0.048 0.046 0.053 -0.0088 -0.008 0.0103
C9JB 0.053 0.046 0.048 -0.0103 0.008 -0.0088
C9ZA 0.048 0.046 0.053 0.0088 0.008 0.0103
C9Y 0.046 0.053 0.048 -0.008 -0.0103 0.0088
C9QA 0.046 0.048 0.053 -0.008 0.0088 -0.0103
C9DB 0.053 0.048 0.046 0.0103 0.0088 0.008
C9PB 0.048 0.053 0.046 -0.0088 -0.0103 0.008
C9CC 0.053 0.048 0.046 -0.0103 0.0088 -0.008
C9PC 0.048 0.053 0.046 0.0088 -0.0103 -0.008
C10ZB 0.0387 0.034 0.0387 0.0043 0.008 0.0043
C10ZA 0.0387 0.034 0.0387 -0.0043 -0.008 0.0043
C10Y 0.034 0.0387 0.0387 0.008 -0.0043 -0.0043
C10DB 0.0387 0.0387 0.034 0.0043 -0.0043 -0.008
C10CC 0.0387 0.0387 0.034 -0.0043 -0.0043 0.008
N1Q 0.0317 0.0387 0.03 -0.0015 0.0022 -0.0043
N1IC 0.03 0.0317 0.0387 0.0043 0.0015 0.0022
N1ZB 0.0387 0.0317 0.03 0.0022 0.0015 0.0043
N1JB 0.03 0.0317 0.0387 -0.0043 -0.0015 0.0022
N1ZA 0.0387 0.0317 0.03 -0.0022 -0.0015 0.0043
N1Y 0.0317 0.03 0.0387 0.0015 -0.0043 -0.0022
N1QA 0.0317 0.0387 0.03 0.0015 -0.0022 -0.0043
N1DB 0.03 0.0387 0.0317 0.0043 -0.0022 -0.0015
N1PB 0.0387 0.03 0.0317 0.0022 -0.0043 -0.0015
N1CC 0.03 0.0387 0.0317 -0.0043 -0.0022 0.0015
N1PC 0.0387 0.03 0.0317 -0.0022 -0.0043 0.0015
N2Q 0.0328 0.0356 0.0319 0.001 -0.0003 -0.0021
N2IC 0.0319 0.0328 0.0356 0.0021 -0.001 -0.0003
N2ZB 0.0356 0.0328 0.0319 -0.0003 -0.001 0.0021
N2JB 0.0319 0.0328 0.0356 -0.0021 0.001 -0.0003
N2ZA 0.0356 0.0328 0.0319 0.0003 0.001 0.0021
N2Y 0.0328 0.0319 0.0356 -0.001 -0.0021 0.0003
N2QA 0.0328 0.0356 0.0319 -0.001 0.0003 -0.0021
N2DB 0.0319 0.0356 0.0328 0.0021 0.0003 0.001
N2PB 0.0356 0.0319 0.0328 -0.0003 -0.0021 0.001
N2CC 0.0319 0.0356 0.0328 -0.0021 0.0003 -0.001
N2PC 0.0356 0.0319 0.0328 0.0003 -0.0021 -0.001
N2NA 0.0328 0.0356 0.0319 -0.001 -0.0003 0.0021
N2V 0.0356 0.0319 0.0328 0.0003 -0.0021 -0.001
N2UA 0.0356 0.0319 0.0328 0.0003 0.0021 0.001
N2CB 0.0356 0.0328 0.0319 -0.0003 0.001 -0.0021
N3Q 0.0326 0.0379 0.0305 0.0002 0.0042 -0.0023
N3IC 0.0305 0.0326 0.0379 0.0023 -0.0002 0.0042
N3ZB 0.0379 0.0326 0.0305 0.0042 -0.0002 0.0023
N3JB 0.0305 0.0326 0.0379 -0.0023 0.0002 0.0042
N3ZA 0.0379 0.0326 0.0305 -0.0042 0.0002 0.0023
N3Y 0.0326 0.0305 0.0379 -0.0002 -0.0023 -0.0042
N3QA 0.0326 0.0379 0.0305 -0.0002 -0.0042 -0.0023
N3DB 0.0305 0.0379 0.0326 0.0023 -0.0042 0.0002
N3PB 0.0379 0.0305 0.0326 0.0042 -0.0023 0.0002
N3CC 0.0305 0.0379 0.0326 -0.0023 -0.0042 -0.0002
N3PC 0.0379 0.0305 0.0326 -0.0042 -0.0023 -0.0002
N4Q 0.0334 0.0425 0.0307 0.0026 -0.0014 -0.0022
N4IC 0.0307 0.0334 0.0425 0.0022 -0.0026 -0.0014
N4ZB 0.0425 0.0334 0.0307 -0.0014 -0.0026 0.0022
N4JB 0.0307 0.0334 0.0425 -0.0022 0.0026 -0.0014
N4ZA 0.0425 0.0334 0.0307 0.0014 0.0026 0.0022
N4Y 0.0334 0.0307 0.0425 -0.0026 -0.0022 0.0014
N4QA 0.0334 0.0425 0.0307 -0.0026 0.0014 -0.0022
N4DB 0.0307 0.0425 0.0334 0.0022 0.0014 0.0026
N4PB 0.0425 0.0307 0.0334 -0.0014 -0.0022 0.0026
N4CC 0.0307 0.0425 0.0334 -0.0022 0.0014 -0.0026
N4PC 0.0425 0.0307 0.0334 0.0014 -0.0022 -0.0026
Cl1 0.0714(7) 0.0475(9) 0.0714(7) 0.0017(5) -0.0299(9) 0.0017(5)
O1 0.073(2) 0.064(2) 0.100(3) -0.0188(18) -0.036(2) 0.0169(17)
O2 0.076(2) 0.071(2) 0.111(3) 0.039(2) -0.037(2) -0.0186(18)
O1UA 0.1 0.064 0.073 0.0169 -0.036 -0.0188
O2UA 0.111 0.071 0.076 -0.0186 -0.037 0.039
O3 0.330(9) 0.330(9) 0.330(9) -0.062(8) -0.062(8) -0.062(8)
O4 0.278(10) 0.291(11) 0.227(8) -0.077(8) 0.088(7) -0.184(9)
O5 0.72(3) 0.422(17) 0.204(10) -0.024(10) -0.117(14) 0.326(19)
O6 0.176(8) 0.293(8) 0.293(8) -0.155(10) 0.164(8) -0.164(8)
loop_
_geom_bond_atom_site_label_1
_geom_bond_atom_site_label_2
_geom_bond_site_symmetry_1
_geom_bond_site_symmetry_2
Zn1 N2 1_555 1_555
C1 H1 1_555 1_555
C2 C1 1_555 1_555
H2 C2 1_555 1_555
C3 N1 1_555 1_555
C4 C5 1_555 1_555
C5 H3 1_555 1_555
C6 C5 1_555 1_555
H4 C6 1_555 1_555
C7 C6 1_555 1_555
H5 C7 1_555 1_555
C8 C7 1_555 1_555
H6 C8 1_555 1_555
C9 C4 1_555 1_555
H7 C9 1_555 1_555
C10 H8 1_555 1_555
N1 C1 1_555 1_555
N2 C2 1_555 1_555
N3 C3 1_555 1_555
N4 C4 1_555 1_555
Cl1 O1 1_555 1_555
O2 Cl1 1_555 1_555
Zn1Q N2Q 1_555 1_555
Zn1V N2ZB 1_555 1_555
Zn1T N2ZA 1_555 1_555
Zn1R N2QA 1_555 1_555
Zn1D N2PB 1_555 1_555
Zn1F N2PC 1_555 1_555
C1Q H1Q 1_555 1_555
C1IC H1IC 1_555 1_555
C1ZB H1ZB 1_555 1_555
C1JB H1JB 1_555 1_555
C1ZA H1ZA 1_555 1_555
C1Y H1Y 1_555 1_555
C1QA H1QA 1_555 1_555
C1DB H1DB 1_555 1_555
C1PB H1PB 1_555 1_555
C1CC H1CC 1_555 1_555
C1PC H1PC 1_555 1_555
C2Q C1Q 1_555 1_555
C2IC C1IC 1_555 1_555
C2ZB C1ZB 1_555 1_555
C2JB C1JB 1_555 1_555
C2ZA C1ZA 1_555 1_555
C2Y C1Y 1_555 1_555
C2QA C1QA 1_555 1_555
C2DB C1DB 1_555 1_555
C2PB C1PB 1_555 1_555
C2CC C1CC 1_555 1_555
C2PC C1PC 1_555 1_555
H2Q C2Q 1_555 1_555
H2IC C2IC 1_555 1_555
H2ZB C2ZB 1_555 1_555
H2JB C2JB 1_555 1_555
H2ZA C2ZA 1_555 1_555
H2Y C2Y 1_555 1_555
H2QA C2QA 1_555 1_555
H2DB C2DB 1_555 1_555
H2PB C2PB 1_555 1_555
H2CC C2CC 1_555 1_555
H2PC C2PC 1_555 1_555
C3Q N1Q 1_555 1_555
C3IC N1IC 1_555 1_555
C3ZB N1ZB 1_555 1_555
C3JB N1JB 1_555 1_555
C3ZA N1ZA 1_555 1_555
C3Y N1Y 1_555 1_555
C3QA N1QA 1_555 1_555
C3DB N1DB 1_555 1_555
C3PB N1PB 1_555 1_555
C3CC N1CC 1_555 1_555
C3PC N1PC 1_555 1_555
C4Q C5Q 1_555 1_555
C4IC C5IC 1_555 1_555
C4ZB C5ZB 1_555 1_555
C4JB C5JB 1_555 1_555
C4ZA C5ZA 1_555 1_555
C4Y C5Y 1_555 1_555
C4QA C5QA 1_555 1_555
C4DB C5DB 1_555 1_555
C4PB C5PB 1_555 1_555
C4CC C5CC 1_555 1_555
C4PC C5PC 1_555 1_555
C5Q H3Q 1_555 1_555
C5IC H3IC 1_555 1_555
C5ZB H3ZB 1_555 1_555
C5JB H3JB 1_555 1_555
C5ZA H3ZA 1_555 1_555
C5Y H3Y 1_555 1_555
C5QA H3QA 1_555 1_555
C5DB H3DB 1_555 1_555
C5PB H3PB 1_555 1_555
C5CC H3CC 1_555 1_555
C5PC H3PC 1_555 1_555
C6Q C5Q 1_555 1_555
C6IC C5IC 1_555 1_555
C6ZB C5ZB 1_555 1_555
C6JB C5JB 1_555 1_555
C6ZA C5ZA 1_555 1_555
C6Y C5Y 1_555 1_555
C6QA C5QA 1_555 1_555
C6DB C5DB 1_555 1_555
C6PB C5PB 1_555 1_555
C6CC C5CC 1_555 1_555
C6PC C5PC 1_555 1_555
H4Q C6Q 1_555 1_555
H4IC C6IC 1_555 1_555
H4ZB C6ZB 1_555 1_555
H4JB C6JB 1_555 1_555
H4ZA C6ZA 1_555 1_555
H4Y C6Y 1_555 1_555
H4QA C6QA 1_555 1_555
H4DB C6DB 1_555 1_555
H4PB C6PB 1_555 1_555
H4CC C6CC 1_555 1_555
H4PC C6PC 1_555 1_555
C7Q C6Q 1_555 1_555
C7IC C6IC 1_555 1_555
C7ZB C6ZB 1_555 1_555
C7JB C6JB 1_555 1_555
C7ZA C6ZA 1_555 1_555
C7Y C6Y 1_555 1_555
C7QA C6QA 1_555 1_555
C7DB C6DB 1_555 1_555
C7PB C6PB 1_555 1_555
C7CC C6CC 1_555 1_555
C7PC C6PC 1_555 1_555
H5Q C7Q 1_555 1_555
H5IC C7IC 1_555 1_555
H5ZB C7ZB 1_555 1_555
H5JB C7JB 1_555 1_555
H5ZA C7ZA 1_555 1_555
H5Y C7Y 1_555 1_555
H5QA C7QA 1_555 1_555
H5DB C7DB 1_555 1_555
H5PB C7PB 1_555 1_555
H5CC C7CC 1_555 1_555
H5PC C7PC 1_555 1_555
C8Q C7Q 1_555 1_555
C8IC C7IC 1_555 1_555
C8ZB C7ZB 1_555 1_555
C8JB C7JB 1_555 1_555
C8ZA C7ZA 1_555 1_555
C8Y C7Y 1_555 1_555
C8QA C7QA 1_555 1_555
C8DB C7DB 1_555 1_555
C8PB C7PB 1_555 1_555
C8CC C7CC 1_555 1_555
C8PC C7PC 1_555 1_555
H6Q C8Q 1_555 1_555
H6IC C8IC 1_555 1_555
H6ZB C8ZB 1_555 1_555
H6JB C8JB 1_555 1_555
H6ZA C8ZA 1_555 1_555
H6Y C8Y 1_555 1_555
H6QA C8QA 1_555 1_555
H6DB C8DB 1_555 1_555
H6PB C8PB 1_555 1_555
H6CC C8CC 1_555 1_555
H6PC C8PC 1_555 1_555
C9Q C4Q 1_555 1_555
C9IC C4IC 1_555 1_555
C9ZB C4ZB 1_555 1_555
C9JB C4JB 1_555 1_555
C9ZA C4ZA 1_555 1_555
C9Y C4Y 1_555 1_555
C9QA C4QA 1_555 1_555
C9DB C4DB 1_555 1_555
C9PB C4PB 1_555 1_555
C9CC C4CC 1_555 1_555
C9PC C4PC 1_555 1_555
H7Q C9Q 1_555 1_555
H7IC C9IC 1_555 1_555
H7ZB C9ZB 1_555 1_555
H7JB C9JB 1_555 1_555
H7ZA C9ZA 1_555 1_555
H7Y C9Y 1_555 1_555
H7QA C9QA 1_555 1_555
H7DB C9DB 1_555 1_555
H7PB C9PB 1_555 1_555
H7CC C9CC 1_555 1_555
H7PC C9PC 1_555 1_555
C10ZB H8IC 1_555 1_555
C10ZA H8JB 1_555 1_555
C10Y H8Y 1_555 1_555
C10DB H8DB 1_555 1_555
C10CC H8CC 1_555 1_555
H8Q C10 1_555 1_555
H8ZB C10ZB 1_555 1_555
H8ZA C10ZA 1_555 1_555
H8QA C10Y 1_555 1_555
H8PB C10DB 1_555 1_555
H8PC C10CC 1_555 1_555
N1Q C10 1_555 1_555
N1IC C1IC 1_555 1_555
N1ZB C1ZB 1_555 1_555
N1JB C1JB 1_555 1_555
N1ZA C1ZA 1_555 1_555
N1Y C1Y 1_555 1_555
N1QA C1QA 1_555 1_555
N1DB C1DB 1_555 1_555
N1PB C1PB 1_555 1_555
N1CC C1CC 1_555 1_555
N1PC C1PC 1_555 1_555
N2Q C2Q 1_555 1_555
N2IC Zn1 1_555 1_555
N2ZB C2ZB 1_555 1_555
N2JB Zn1 1_555 1_555
N2ZA C2ZA 1_555 1_555
N2Y Zn1 1_555 1_555
N2QA C2QA 1_555 1_555
N2DB Zn1Q 1_555 1_555
N2PB C2PB 1_555 1_555
N2CC Zn1Q 1_555 1_555
N2PC C2PC 1_555 1_555
N2NA Zn1Q 1_555 1_555
N2V Zn1V 1_555 1_555
N2UA Zn1V 1_555 1_555
N2CB Zn1V 1_555 1_555
N3Q C3Q 1_555 1_555
N3IC C3IC 1_555 1_555
N3ZB C3ZB 1_555 1_555
N3JB C3JB 1_555 1_555
N3ZA C3ZA 1_555 1_555
N3Y C3Y 1_555 1_555
N3QA C3QA 1_555 1_555
N3DB C3DB 1_555 1_555
N3PB C3PB 1_555 1_555
N3CC C3CC 1_555 1_555
N3PC C3PC 1_555 1_555
N4Q C4Q 1_555 1_555
N4IC C4IC 1_555 1_555
N4ZB C4ZB 1_555 1_555
N4JB C4JB 1_555 1_555
N4ZA C4ZA 1_555 1_555
N4Y C4Y 1_555 1_555
N4QA C4QA 1_555 1_555
N4DB C4DB 1_555 1_555
N4PB C4PB 1_555 1_555
N4CC C4CC 1_555 1_555
N4PC C4PC 1_555 1_555
O1UA Cl1 1_555 1_555
O2UA Cl1 1_555 1_555
C3 N2 1_555 1_555
C8 C9 1_555 1_555
C10 N1 1_555 1_555
N3 N4 1_555 1_555
C1Q N1Q 1_555 1_555
C2IC N2IC 1_555 1_555
C2JB N2JB 1_555 1_555
C2Y N2Y 1_555 1_555
C2DB N2DB 1_555 1_555
C2CC N2CC 1_555 1_555
C3Q N2Q 1_555 1_555
C3IC N2IC 1_555 1_555
C3ZB N2ZB 1_555 1_555
C3JB N2JB 1_555 1_555
C3ZA N2ZA 1_555 1_555
C3Y N2Y 1_555 1_555
C3QA N2QA 1_555 1_555
C3DB N2DB 1_555 1_555
C3PB N2PB 1_555 1_555
C3CC N2CC 1_555 1_555
C3PC N2PC 1_555 1_555
C8Q C9Q 1_555 1_555
C8IC C9IC 1_555 1_555
C8ZB C9ZB 1_555 1_555
C8JB C9JB 1_555 1_555
C8ZA C9ZA 1_555 1_555
C8Y C9Y 1_555 1_555
C8QA C9QA 1_555 1_555
C8DB C9DB 1_555 1_555
C8PB C9PB 1_555 1_555
C8CC C9CC 1_555 1_555
C8PC C9PC 1_555 1_555
C10ZB N1IC 1_555 1_555
C10ZB N1ZB 1_555 1_555
C10ZA N1JB 1_555 1_555
C10ZA N1ZA 1_555 1_555
C10Y N1Y 1_555 1_555
C10Y N1QA 1_555 1_555
C10DB N1DB 1_555 1_555
C10DB N1PB 1_555 1_555
C10CC N1CC 1_555 1_555
C10CC N1PC 1_555 1_555
N3Q N4Q 1_555 1_555
N3IC N4IC 1_555 1_555
N3ZB N4ZB 1_555 1_555
N3JB N4JB 1_555 1_555
N3ZA N4ZA 1_555 1_555
N3Y N4Y 1_555 1_555
N3QA N4QA 1_555 1_555
N3DB N4DB 1_555 1_555
N3PB N4PB 1_555 1_555
N3CC N4CC 1_555 1_555
N3PC N4PC 1_555 1_555

#END
