
#######################################################################
#
#                 Cambridge Crystallographic Data Centre
#                                CCDC 
#
#######################################################################
#
# If this CIF has been generated from an entry in the Cambridge 
# Structural Database, then it will include bibliographic, chemical, 
# crystal, experimental, refinement or atomic coordinate data resulting 
# from the CCDC's data processing and validation procedures.
#
#######################################################################

data_EBOJOV
_chemical_formula_moiety         'C24 H12 Eu25 O76'
_symmetry_cell_setting           monoclinic
_symmetry_space_group_name_H-M   'C 2/m'
_symmetry_Int_Tables_number      12
_space_group_name_Hall           '-C 2y'
loop_
_symmetry_equiv_pos_site_id
_symmetry_equiv_pos_as_xyz
1 x,y,z
2 -x,y,-z
3 1/2+x,1/2+y,z
4 1/2-x,1/2+y,-z
5 -x,-y,-z
6 x,-y,z
7 1/2-x,1/2-y,-z
8 1/2+x,1/2-y,z
_cell_length_a                   25.953(1)
_cell_length_b                   11.015(1)
_cell_length_c                   13.246(1)
_cell_angle_alpha                90
_cell_angle_beta                 119.16(2)
_cell_angle_gamma                90
_cell_volume                     3306.75
loop_
_atom_site_label
_atom_site_type_symbol
_atom_site_fract_x
_atom_site_fract_y
_atom_site_fract_z
O20 O 0.0000 0.5000 0.5000
O21 O 0.309(2) 0.295(6) -0.468(5)
O22 O 0.278(3) 0.0000 -0.558(7)
O23 O 0.216(3) 0.0000 -0.248(7)
O24 O 0.291(2) 0.273(5) 0.098(4)
O25 O 0.192(2) 0.729(5) 0.647(5)
Eu1 Eu 0.5000 0.2408(8) 0.0000
O1 O 0.426(2) 0.137(3) -0.182(3)
O2 O 0.434(2) 0.139(3) 0.070(3)
O3 O 0.407(2) 0.368(3) -0.076(3)
O4 O 0.511(1) 0.351(3) 0.170(4)
O5 O 0.5000 0.5000 0.0000
O6 O 0.5000 0.0000 0.0000
Eu2 Eu 0.4937(4) 0.0000 -0.2072(9)
Eu3 Eu 0.3848(5) 0.0000 -0.0978(9)
Eu4 Eu 0.4212(4) 0.5000 0.0829(9)
Eu5 Eu 0.4064(4) 0.5000 -0.2266(9)
O7 O 0.404(3) 0.0000 -0.390(5)
O8 O 0.467(2) -0.180(3) -0.361(4)
O9 O 0.567(1) 0.0000 -0.257(4)
O10 O 0.316(3) 0.0000 -0.314(4)
O11 O 0.318(2) 0.186(5) -0.155(5)
O12 O 0.362(3) -0.0000 0.073(2)
O13 O 0.399(2) 0.370(5) 0.203(3)
O14 O 0.313(1) 0.5000 -0.015(7)
O15 O 0.490(3) 0.5000 0.322(4)
O16 O 0.312(2) 0.5000 -0.389(6)
O17 O 0.405(2) 0.340(5) -0.364(4)
C1 C 0.436(3) -0.288(4) -0.411(6)
C2 C 0.406(2) 0.317(2) 0.295(2)
C3 C 0.256(1) 0.5000 -0.056(2)
C4 C 0.447(2) -0.366(6) -0.496(3)
O18 O 0.434(3) 0.226(3) 0.320(5)
C5 C 0.401(3) 0.376(5) 0.385(2)
O19 O 0.235(3) 0.5000 0.013(6)
C6 C 0.221(1) 0.5000 -0.174(2)
C7 C 0.163(1) 0.5000 -0.231(3)
C8 C 0.122(1) 0.5000 -0.184(2)
O1A O 0.574(2) 0.137(3) 0.182(3)
O2A O 0.566(2) 0.139(3) -0.070(3)
O3A O 0.593(2) 0.368(3) 0.076(3)
O4A O 0.489(1) 0.351(3) -0.170(4)
Eu2A Eu 0.5063(4) -0.0000 0.2072(9)
Eu5A Eu 0.5936(4) 0.5000 0.2266(9)
Eu4A Eu 0.5788(4) 0.5000 -0.0829(9)
Eu1D Eu 0.5000 0.7592(8) 0.0000
Eu3A Eu 0.6152(5) -0.0000 0.0978(9)
Eu1D_2 Eu 0.5000 -0.2408(8) 0.0000
O2D O 0.566(2) -0.139(3) -0.070(3)
O1E O 0.426(2) -0.137(3) -0.182(3)
O8E O 0.467(2) 0.180(3) -0.361(4)
O2E O 0.434(2) -0.139(3) 0.070(3)
O11E O 0.318(2) -0.186(5) -0.155(5)
O7A O 0.596(3) -0.0000 0.390(5)
O1D O 0.574(2) -0.137(3) 0.182(3)
O8D O 0.533(2) 0.180(3) 0.361(4)
O8A O 0.533(2) -0.180(3) 0.361(4)
O9A O 0.433(1) -0.0000 0.257(4)
O3E O 0.407(2) 0.632(3) -0.076(3)
O4E O 0.511(1) 0.649(3) 0.170(4)
O13E O 0.399(2) 0.630(5) 0.203(3)
O4D O 0.489(1) 0.649(3) -0.170(4)
O17E O 0.405(2) 0.660(5) -0.364(4)
O16A O 0.688(2) 0.5000 0.389(6)
O3D O 0.593(2) 0.632(3) 0.076(3)
O17A O 0.595(2) 0.340(5) 0.364(4)
O17D O 0.595(2) 0.660(5) 0.364(4)
O13A O 0.601(2) 0.370(5) -0.203(3)
O14A O 0.687(1) 0.5000 0.015(7)
O15A O 0.510(3) 0.5000 -0.322(4)
O13D O 0.601(2) 0.630(5) -0.203(3)
O10A O 0.684(3) -0.0000 0.314(4)
O11A O 0.682(2) 0.186(5) 0.155(5)
O11D O 0.682(2) -0.186(5) 0.155(5)
O12A O 0.638(3) 0.0000 -0.073(2)
O3D_2 O 0.593(2) -0.368(3) 0.076(3)
O4D_2 O 0.489(1) -0.351(3) -0.170(4)
O3E_2 O 0.407(2) -0.368(3) -0.076(3)
O4E_2 O 0.511(1) -0.351(3) 0.170(4)
O5_2 O 0.5000 -0.5000 0.0000
C1E C 0.436(3) 0.288(4) -0.411(6)
C2A C 0.594(2) 0.317(2) -0.295(2)
C3A C 0.744(1) 0.5000 0.056(2)
Eu4A_2 Eu 0.5788(4) -0.5000 -0.0829(9)
Eu5A_2 Eu 0.5936(4) -0.5000 0.2266(9)
Eu5_2 Eu 0.4064(4) -0.5000 -0.2266(9)
Eu4_2 Eu 0.4212(4) -0.5000 0.0829(9)
O17E_2 O 0.405(2) -0.340(5) -0.364(4)
C4E C 0.447(2) 0.366(6) -0.496(3)
O18A O 0.566(3) 0.226(3) -0.320(5)
C5A C 0.599(3) 0.376(5) -0.385(2)
O19A O 0.765(3) 0.5000 -0.013(6)
C6A C 0.779(1) 0.5000 0.174(2)
C5E C 0.401(3) -0.376(5) -0.615(2)
C5_2 C 0.401(3) 0.376(5) -0.615(2)
C4E_2 C 0.447(2) 0.366(6) 0.504(3)
C4D C 0.553(2) 0.366(6) -0.504(3)
C7A C 0.837(1) 0.5000 0.231(3)
C2E C 0.406(2) -0.317(2) -0.705(2)
C2_2 C 0.406(2) 0.317(2) -0.705(2)
C1E_2 C 0.436(3) 0.288(4) 0.589(6)
C1D C 0.564(3) 0.288(4) -0.589(6)
C8A C 0.878(1) 0.5000 0.184(2)
O13E_2 O 0.399(2) -0.370(5) -0.797(3)
O18E O 0.434(3) -0.226(3) -0.680(5)
O13_2 O 0.399(2) 0.370(5) -0.797(3)
O18_2 O 0.434(3) 0.226(3) -0.680(5)
O8E_2 O 0.467(2) 0.180(3) 0.639(4)
O17_2 O 0.405(2) 0.340(5) 0.636(4)
O9B O 0.067(1) 0.5000 -0.257(4)
O12C O 0.138(3) 0.5000 -0.073(2)
O8D_2 O 0.533(2) 0.180(3) -0.639(4)
O17A_2 O 0.595(2) 0.340(5) -0.636(4)
O9C O 0.933(1) 0.5000 0.257(4)
O12B O 0.862(3) 0.5000 0.073(2)
Eu4_3 Eu 0.4212(4) -0.5000 -0.9171(9)
Eu4_4 Eu 0.4212(4) 0.5000 -0.9171(9)
Eu2_2 Eu 0.4937(4) -0.0000 0.7928(9)
Eu5_3 Eu 0.4064(4) 0.5000 0.7734(9)
Eu2B Eu -0.0063(4) 0.5000 -0.2072(9)
Eu3C Eu 0.1152(5) 0.5000 0.0978(9)
Eu2A_2 Eu 0.5063(4) 0.0000 -0.7928(9)
Eu5A_3 Eu 0.5936(4) 0.5000 -0.7734(9)
Eu2C Eu 1.0063(4) 0.5000 0.2072(9)
Eu3B Eu 0.8848(5) 0.5000 -0.0978(9)
loop_
_geom_bond_atom_site_label_1
_geom_bond_atom_site_label_2
_geom_bond_site_symmetry_1
_geom_bond_site_symmetry_2
Eu1 O1 1_555 1_555
O1 Eu2 1_555 1_555
O2 Eu1 1_555 1_555
O3 Eu1 1_555 1_555
O4 Eu1 1_555 1_555
O5 Eu1 1_555 1_555
O6 Eu1 1_555 1_555
Eu2 O6 1_555 1_555
Eu3 O1 1_555 1_555
Eu4 O3 1_555 1_555
Eu5 O3 1_555 1_555
O7 Eu2 1_555 1_555
O8 Eu2 1_555 1_555
O9 Eu2 1_555 1_555
O10 Eu3 1_555 1_555
O11 Eu3 1_555 1_555
O12 Eu3 1_555 1_555
O13 Eu4 1_555 1_555
O14 Eu4 1_555 1_555
O15 Eu4 1_555 1_555
O16 Eu5 1_555 1_555
O17 Eu5 1_555 1_555
C1 O8 1_555 1_555
C2 O13 1_555 1_555
C3 O14 1_555 1_555
C4 C1 1_555 1_555
O18 C2 1_555 1_555
C5 C2 1_555 1_555
O19 C3 1_555 1_555
C6 C3 1_555 1_555
C7 C6 1_555 1_555
C8 C7 1_555 1_555
O1A Eu1 1_555 1_555
O2A Eu1 1_555 1_555
O3A Eu1 1_555 1_555
O4A Eu1 1_555 1_555
Eu2A O2 1_555 1_555
Eu5A O4 1_555 1_555
Eu4A O5 1_555 1_555
Eu1D O5 1_555 1_555
Eu3A O6 1_555 1_555
Eu1D_2 O6 1_555 1_555
O2D Eu2 1_555 1_555
O1E Eu2 1_555 1_555
O8E Eu2 1_555 1_555
O2E Eu3 1_555 1_555
O11E Eu3 1_555 1_555
O7A Eu2A 1_555 1_555
O1D Eu2A 1_555 1_555
O8D Eu2A 1_555 1_555
O8A Eu2A 1_555 1_555
O9A Eu2A 1_555 1_555
O3E Eu4 1_555 1_555
O4E Eu4 1_555 1_555
O13E Eu4 1_555 1_555
O4D Eu5 1_555 1_555
O17E Eu5 1_555 1_555
O16A Eu5A 1_555 1_555
O3D Eu5A 1_555 1_555
O17A Eu5A 1_555 1_555
O17D Eu5A 1_555 1_555
O13A Eu4A 1_555 1_555
O14A Eu4A 1_555 1_555
O15A Eu4A 1_555 1_555
O13D Eu4A 1_555 1_555
O10A Eu3A 1_555 1_555
O11A Eu3A 1_555 1_555
O11D Eu3A 1_555 1_555
O12A Eu3A 1_555 1_555
O3D_2 Eu1D_2 1_555 1_555
O4D_2 Eu1D_2 1_555 1_555
O3E_2 Eu1D_2 1_555 1_555
O4E_2 Eu1D_2 1_555 1_555
O5_2 Eu1D_2 1_555 1_555
C1E O17 1_555 1_555
C2A O13A 1_555 1_555
C3A O14A 1_555 1_555
Eu4A_2 O3D_2 1_555 1_555
Eu5A_2 O3D_2 1_555 1_555
Eu5_2 O4D_2 1_555 1_555
Eu4_2 O3E_2 1_555 1_555
O17E_2 C1 1_555 1_555
C4E C1E 1_555 1_555
O18A C2A 1_555 1_555
C5A C2A 1_555 1_555
O19A C3A 1_555 1_555
C6A C3A 1_555 1_555
C5E C4 1_555 1_555
C5_2 C4E 1_555 1_555
C4E_2 C5 1_555 1_555
C4D C5A 1_555 1_555
C7A C6A 1_555 1_555
C2E C5E 1_555 1_555
C2_2 C5_2 1_555 1_555
C1E_2 C4E_2 1_555 1_555
C1D C4D 1_555 1_555
C8A C7A 1_555 1_555
O13E_2 C2E 1_555 1_555
O18E C2E 1_555 1_555
O13_2 C2_2 1_555 1_555
O18_2 C2_2 1_555 1_555
O8E_2 C1E_2 1_555 1_555
O17_2 C1E_2 1_555 1_555
O9B C8 1_555 1_555
O12C C8 1_555 1_555
O8D_2 C1D 1_555 1_555
O17A_2 C1D 1_555 1_555
O9C C8A 1_555 1_555
O12B C8A 1_555 1_555
Eu4_3 O13E_2 1_555 1_555
Eu4_4 O13_2 1_555 1_555
Eu2_2 O8E_2 1_555 1_555
Eu5_3 O17_2 1_555 1_555
Eu2B O9B 1_555 1_555
Eu3C O12C 1_555 1_555
Eu2A_2 O8D_2 1_555 1_555
Eu5A_3 O17A_2 1_555 1_555
Eu2C O9C 1_555 1_555
Eu3B O12B 1_555 1_555
O2 Eu3 1_555 1_555
O4 Eu4 1_555 1_555
O5 Eu4 1_555 1_555
O5 Eu5 1_555 1_555
O5 Eu5A 1_555 1_555
O6 Eu3 1_555 1_555
O6 Eu2A 1_555 1_555
Eu2 O2A 1_555 1_555
Eu3 O1E 1_555 1_555
Eu5 O4A 1_555 1_555
Eu5 O3E 1_555 1_555
O1A Eu2A 1_555 1_555
O1A Eu3A 1_555 1_555
O2A Eu3A 1_555 1_555
O3A Eu5A 1_555 1_555
O3A Eu4A 1_555 1_555
O4A Eu4A 1_555 1_555
Eu2A O2E 1_555 1_555
Eu5A O4E 1_555 1_555
Eu4A O4D 1_555 1_555
Eu4A O3D 1_555 1_555
Eu1D O3E 1_555 1_555
Eu1D O4E 1_555 1_555
Eu1D O4D 1_555 1_555
Eu1D O3D 1_555 1_555
Eu3A O2D 1_555 1_555
Eu3A O1D 1_555 1_555
Eu1D_2 O2D 1_555 1_555
Eu1D_2 O1E 1_555 1_555
Eu1D_2 O2E 1_555 1_555
Eu1D_2 O1D 1_555 1_555
O8E C1E 1_555 1_555
O4D_2 Eu4A_2 1_555 1_555
O3E_2 Eu5_2 1_555 1_555
O4E_2 Eu5A_2 1_555 1_555
O4E_2 Eu4_2 1_555 1_555
O5_2 Eu4A_2 1_555 1_555
O5_2 Eu5A_2 1_555 1_555
O5_2 Eu5_2 1_555 1_555
O5_2 Eu4_2 1_555 1_555
Eu5_2 O17E_2 1_555 1_555

#END
