
#######################################################################
#
#                 Cambridge Crystallographic Data Centre
#                                CCDC 
#
#######################################################################
#
# If this CIF has been generated from an entry in the Cambridge 
# Structural Database, then it will include bibliographic, chemical, 
# crystal, experimental, refinement or atomic coordinate data resulting 
# from the CCDC's data processing and validation procedures.
#
#######################################################################

data_OJICUG
_chemical_formula_moiety         '(C24 H18 O16 Sc3 1+)n'
_symmetry_cell_setting           hexagonal
_symmetry_space_group_name_H-M   'P 63/m m c'
_symmetry_Int_Tables_number      194
_space_group_name_Hall           '-P 6c 2c'
loop_
_symmetry_equiv_pos_site_id
_symmetry_equiv_pos_as_xyz
1 x,y,z
2 x-y,x,1/2+z
3 -y,x-y,z
4 -x,-y,1/2+z
5 -x+y,-x,z
6 y,-x+y,1/2+z
7 -y,-x,1/2-z
8 x-y,-y,-z
9 x,x-y,1/2-z
10 y,x,-z
11 -x+y,y,1/2-z
12 -x,-x+y,-z
13 -x,-y,-z
14 -x+y,-x,1/2-z
15 y,-x+y,-z
16 x,y,1/2-z
17 x-y,x,-z
18 -y,x-y,1/2-z
19 y,x,1/2+z
20 -x+y,y,z
21 -x,-x+y,1/2+z
22 -y,-x,z
23 x-y,-y,1/2+z
24 x,x-y,z
_cell_length_a                   14.056(1)
_cell_length_b                   14.056(1)
_cell_length_c                   18.099(3)
_cell_angle_alpha                90
_cell_angle_beta                 90
_cell_angle_gamma                120
_cell_volume                     3096.77
loop_
_atom_site_label
_atom_site_type_symbol
_atom_site_fract_x
_atom_site_fract_y
_atom_site_fract_z
Sc1 Sc 0.25014(3) 0.74986(3) 0.2500
O1 O 0.3333 0.6667 0.2500
O2 O 0.16380(14) 0.83620(14) 0.2500
O3 O 0.34937(14) 0.85867(14) 0.16659(9)
C1 C 0.44181(13) 0.8836(3) 0.13882(18)
C2 C 0.5717(2) 0.9724(2) 0.03362(14)
H1 H 0.6209 0.9538 0.0567
C3 C 0.47231(15) 0.9446(3) 0.06706(19)
H2 H 0.1409(14) 0.8591(14) 0.2135(17)
Sc1B Sc 0.25014(3) 0.50028(4) 0.2500
Sc1D Sc 0.49972(4) 0.74986(3) 0.2500
Sc1A Sc 0.50028(4) 0.25014(3) 0.7500
Sc1A_2 Sc 0.50028(4) 1.25014(3) -0.2500
Sc1A_3 Sc 0.50028(4) 1.25014(3) 0.7500
Sc1C Sc 0.74986(3) 1.25014(3) -0.2500
Sc1C_2 Sc 0.74986(3) 1.25014(3) 0.7500
Sc1E Sc 0.74986(3) 0.49972(4) 0.7500
O2B O 0.16380(14) 0.32760(20) 0.2500
O2D O 0.67240(20) 0.83620(14) 0.2500
O3G O 0.49070(20) 1.14133(14) -0.16659(9)
O3L O 0.65063(14) 1.14133(14) -0.16659(9)
O3S O 0.50930(20) 0.85867(14) 0.16659(9)
O3H O 0.34937(14) 0.49070(20) 0.33341(9)
O3A O 0.49070(20) 0.34937(14) 0.66659(9)
O3T O 0.65063(14) 0.50930(20) 0.66659(9)
O3M O 0.50930(20) 0.65063(14) 0.33341(9)
O3J O 0.50930(20) 0.85867(14) 0.33341(9)
O3C O 0.65063(14) 1.14133(14) 0.66659(9)
O3V O 0.49070(20) 1.14133(14) 0.66659(9)
O3O O 0.34937(14) 0.85867(14) 0.33341(9)
O3F O 0.14133(14) 0.65063(14) 0.33341(9)
O3B O 0.14133(14) 0.49070(20) 0.16659(9)
O3D O 0.50930(20) 0.65063(14) 0.16659(9)
O3U O 0.14133(14) 0.65063(14) 0.16659(9)
O3W O 0.34937(14) 0.49070(20) 0.16659(9)
O3Q O 0.14133(14) 0.49070(20) 0.33341(9)
C1G C 0.55821(33) 1.1164(3) -0.13882(18)
C1H C 0.44181(13) 0.55821(33) 0.36118(18)
C1A C 0.55821(33) 0.44181(13) 0.63882(18)
C1J C 0.44179(33) 0.8836(3) 0.36118(18)
C1C C 0.55819(13) 1.1164(3) 0.63882(18)
C2G C 0.5993(3) 1.0276(2) -0.03362(14)
C2L C 0.4283(2) 1.0276(2) -0.03362(14)
C2S C 0.4007(3) 0.9724(2) 0.03362(14)
C2H C 0.5717(2) 0.5993(3) 0.46638(14)
C2A C 0.5993(3) 0.5717(2) 0.53362(14)
C2T C 0.4283(2) 0.4007(3) 0.53362(14)
C2M C 0.4007(3) 0.4283(2) 0.46638(14)
C2J C 0.4007(3) 0.9724(2) 0.46638(14)
C2C C 0.4283(2) 1.0276(2) 0.53362(14)
C2V C 0.5993(3) 1.0276(2) 0.53362(14)
C2O C 0.5717(2) 0.9724(2) 0.46638(14)
H1G H 0.6671 1.0462 -0.0567
H1L H 0.3791 1.0462 -0.0567
H1S H 0.3329 0.9538 0.0567
H1H H 0.6209 0.6671 0.4433
H1A H 0.6671 0.6209 0.5567
H1T H 0.3791 0.3329 0.5567
H1M H 0.3329 0.3791 0.4433
H1J H 0.3329 0.9538 0.4433
H1C H 0.3791 1.0462 0.5567
H1V H 0.6671 1.0462 0.5567
H1O H 0.6209 0.9538 0.4433
C3G C 0.52771(34) 1.0554(3) -0.06706(19)
C3H C 0.47231(15) 0.52771(34) 0.43294(19)
C3A C 0.52771(34) 0.47231(15) 0.56706(19)
C3J C 0.47229(34) 0.9446(3) 0.43294(19)
C3C C 0.52769(15) 1.0554(3) 0.56706(19)
H2F H 0.1409(14) 0.8591(14) 0.2865(17)
H2B H 0.1409(14) 0.2818(20) 0.2135(17)
H2H H 0.1409(14) 0.2818(20) 0.2865(17)
H2D H 0.7182(20) 0.8591(14) 0.2135(17)
H2J H 0.7182(20) 0.8591(14) 0.2865(17)
loop_
_geom_bond_atom_site_label_1
_geom_bond_atom_site_label_2
_geom_bond_site_symmetry_1
_geom_bond_site_symmetry_2
Sc1 O1 1_555 1_555
O1 Sc1B 1_555 1_555
O2 Sc1 1_555 1_555
O3 Sc1 1_555 1_555
C1 O3 1_555 1_555
C2 H1 1_555 1_555
C3 C1 1_555 1_555
H2 O2 1_555 1_555
Sc1B O2B 1_555 1_555
Sc1D O1 1_555 1_555
Sc1A O3A 1_555 1_555
Sc1A_2 O3G 1_555 1_555
Sc1A_3 O3V 1_555 1_555
Sc1C O3L 1_555 1_555
Sc1C_2 O3C 1_555 1_555
Sc1E O3T 1_555 1_555
O2B H2B 1_555 1_555
O2D Sc1D 1_555 1_555
O3G C1G 1_555 1_555
O3L C1G 1_555 1_555
O3S C1 1_555 1_555
O3H Sc1B 1_555 1_555
O3A C1A 1_555 1_555
O3T C1A 1_555 1_555
O3M Sc1D 1_555 1_555
O3J Sc1D 1_555 1_555
O3C C1C 1_555 1_555
O3V C1C 1_555 1_555
O3O Sc1 1_555 1_555
O3F Sc1 1_555 1_555
O3B Sc1B 1_555 1_555
O3D Sc1D 1_555 1_555
O3U Sc1 1_555 1_555
O3W Sc1B 1_555 1_555
O3Q Sc1B 1_555 1_555
C1G C3G 1_555 1_555
C1H O3H 1_555 1_555
C1A C3A 1_555 1_555
C1J O3J 1_555 1_555
C1C C3C 1_555 1_555
C2G C2 1_555 1_555
C2L C2S 1_555 1_555
C2S C3 1_555 1_555
C2H C2A 1_555 1_555
C2A H1A 1_555 1_555
C2T C2M 1_555 1_555
C2M H1M 1_555 1_555
C2J C2C 1_555 1_555
C2C H1C 1_555 1_555
C2V C2O 1_555 1_555
C2O H1O 1_555 1_555
H1G C2G 1_555 1_555
H1L C2L 1_555 1_555
H1S C2S 1_555 1_555
H1H C2H 1_555 1_555
H1T C2T 1_555 1_555
H1J C2J 1_555 1_555
H1V C2V 1_555 1_555
C3G C2G 1_555 1_555
C3H C1H 1_555 1_555
C3A C2A 1_555 1_555
C3J C1J 1_555 1_555
C3C C2C 1_555 1_555
H2F O2 1_555 1_555
H2H O2B 1_555 1_555
H2D O2D 1_555 1_555
H2J O2D 1_555 1_555
C2 C3 1_555 1_555
Sc1D O3S 1_555 1_555
O3M C1H 1_555 1_555
O3O C1J 1_555 1_555
C2L C3G 1_555 1_555
C2H C3H 1_555 1_555
C2T C3A 1_555 1_555
C2M C3H 1_555 1_555
C2J C3J 1_555 1_555
C2V C3C 1_555 1_555
C2O C3J 1_555 1_555

#END
