
#######################################################################
#
#                 Cambridge Crystallographic Data Centre
#                                CCDC 
#
#######################################################################
#
# If this CIF has been generated from an entry in the Cambridge 
# Structural Database, then it will include bibliographic, chemical, 
# crystal, experimental, refinement or atomic coordinate data resulting 
# from the CCDC's data processing and validation procedures.
#
#######################################################################

data_KOXGIP
_chemical_formula_moiety         '(C41 H40 Ag1 N7 O8)n'
_symmetry_cell_setting           monoclinic
_symmetry_space_group_name_H-M   'C 2/c'
_symmetry_Int_Tables_number      15
_space_group_name_Hall           '-C 2yc'
loop_
_symmetry_equiv_pos_site_id
_symmetry_equiv_pos_as_xyz
1 x,y,z
2 -x,y,1/2-z
3 1/2+x,1/2+y,z
4 1/2-x,1/2+y,1/2-z
5 -x,-y,-z
6 x,-y,1/2+z
7 1/2-x,1/2-y,-z
8 1/2+x,1/2-y,1/2+z
_cell_length_a                   17.098(5)
_cell_length_b                   26.435(9)
_cell_length_c                   12.838(3)
_cell_angle_alpha                90
_cell_angle_beta                 129.166(4)
_cell_angle_gamma                90
_cell_volume                     4498.86
loop_
_atom_site_label
_atom_site_type_symbol
_atom_site_fract_x
_atom_site_fract_y
_atom_site_fract_z
Ag1 Ag 0.5000 0.03243(4) 0.7500
O1 O 0.1794(4) -0.1821(2) 0.4082(5)
O2 O 0.0165(4) -0.2381(2) 0.0802(5)
N1 N 0.3582(5) -0.0141(2) 0.6052(7)
N2 N 0.0107(5) -0.4121(3) -0.1034(7)
C1 C 0.3532(7) -0.0495(3) 0.5273(9)
H1 H 0.4090 -0.0542 0.5315
C2 C 0.2681(7) -0.0800(3) 0.4392(8)
H2 H 0.2683 -0.1043 0.3870
C3 C 0.1852(6) -0.0737(3) 0.4307(8)
C4 C 0.1901(6) -0.0356(4) 0.5092(9)
H3 H 0.1341 -0.0289 0.5034
C5 C 0.2756(7) -0.0079(4) 0.5942(9)
H4 H 0.2767 0.0166 0.6472
C6 C 0.0000 -0.0776(4) 0.2500
H5 H 0.0000 -0.0424 0.2500
C7 C 0.0909(6) -0.1027(3) 0.3347(8)
C8 C 0.0900(6) -0.1554(3) 0.3315(8)
C9 C 0.0000 -0.1827(4) 0.2500
C10 C 0.0000 -0.2395(4) 0.2500
C11 C 0.0089(6) -0.2648(3) 0.1632(7)
C12 C 0.1166(7) -0.2367(4) 0.1202(9)
H6 H 0.1630 -0.2234 0.2096
H7 H 0.1165 -0.2155 0.0594
H8 H 0.1368 -0.2703 0.1181
C13 C 0.2188(6) -0.1909(4) 0.5433(9)
H9 H 0.2346 -0.1592 0.5890
H10 H 0.2788 -0.2111 0.5889
H11 H 0.1694 -0.2085 0.5429
C14 C 0.0755(6) -0.4188(4) 0.0282(8)
H12 H 0.1203 -0.4458 0.0624
C15 C 0.0788(6) -0.3882(3) 0.1141(8)
H13 H 0.1273 -0.3940 0.2059
C16 C 0.0129(6) -0.3484(3) 0.0717(8)
C17 C -0.0531(6) -0.3399(4) -0.0689(8)
H14 H -0.0970 -0.3124 -0.1054
C18 C -0.0514(7) -0.3723(4) -0.1500(9)
H15 H -0.0956 -0.3666 -0.2422
C19 C 0.0079(5) -0.3179(3) 0.1633(7)
C20 C 0.0000 -0.3416(4) 0.2500
H16 H 0.0000 -0.3768 0.2500
O1A O -0.1794(4) -0.1821(2) 0.0918(5)
O2A O -0.0165(4) -0.2381(2) 0.4198(5)
N1A N -0.3582(5) -0.0141(2) -0.1052(7)
N2A N -0.0107(5) -0.4121(3) 0.6034(7)
C1A C -0.3532(7) -0.0495(3) -0.0273(9)
H1A H -0.4090 -0.0542 -0.0315
C2A C -0.2681(7) -0.0800(3) 0.0608(8)
H2A H -0.2683 -0.1043 0.1130
C3A C -0.1852(6) -0.0737(3) 0.0693(8)
C4A C -0.1901(6) -0.0356(4) -0.0092(9)
H3A H -0.1341 -0.0289 -0.0034
C5A C -0.2756(7) -0.0079(4) -0.0942(9)
H4A H -0.2767 0.0166 -0.1472
C7A C -0.0909(6) -0.1027(3) 0.1653(8)
C8A C -0.0900(6) -0.1554(3) 0.1685(8)
C11A C -0.0089(6) -0.2648(3) 0.3368(7)
C12A C -0.1166(7) -0.2367(4) 0.3798(9)
H6A H -0.1630 -0.2234 0.2904
H7A H -0.1165 -0.2155 0.4406
H8A H -0.1368 -0.2703 0.3819
C13A C -0.2188(6) -0.1909(4) -0.0433(9)
H9A H -0.2346 -0.1592 -0.0890
H10A H -0.2788 -0.2111 -0.0889
H11A H -0.1694 -0.2085 -0.0429
C14A C -0.0755(6) -0.4188(4) 0.4718(8)
H12A H -0.1203 -0.4458 0.4376
C15A C -0.0788(6) -0.3882(3) 0.3859(8)
H13A H -0.1273 -0.3940 0.2941
C16A C -0.0129(6) -0.3484(3) 0.4283(8)
C17A C 0.0531(6) -0.3399(4) 0.5689(8)
H14A H 0.0970 -0.3124 0.6054
C18A C 0.0514(7) -0.3723(4) 0.6500(9)
H15A H 0.0956 -0.3666 0.7422
C19A C -0.0079(5) -0.3179(3) 0.3367(7)
Ag1_2 Ag -0.5000 0.03243(4) -0.2500
Ag1B Ag -0.0000 -0.46757(4) -0.2500
Ag1B_2 Ag 0.0000 -0.46757(4) 0.7500
N1A_2 N 0.6418(5) -0.0141(2) 0.8948(7)
N2B N 0.5107(5) 0.0879(3) 0.8966(7)
N2C N 0.4893(5) 0.0879(3) 0.6034(7)
N3 N 0.089(2) -0.1353(12) 0.621(3)
O3 O 0.047(2) -0.0956(11) 0.619(3)
O4 O 0.151(4) -0.1588(19) 0.730(5)
O5 O 0.070(5) -0.152(2) 0.515(5)
O6 O -0.2634(18) -0.1527(9) 0.490(2)
N4 N -0.2011(17) -0.1102(8) 0.400(2)
C21 C -0.1973(16) -0.1341(8) 0.498(2)
H17 H -0.1338 -0.1359 0.5817
C22 C -0.297(2) -0.1044(19) 0.262(2)
H18 H -0.3124 -0.1351 0.2126
H19 H -0.2919 -0.0769 0.2180
H20 H -0.3506 -0.0973 0.2660
C23 C -0.102(2) -0.0920(13) 0.448(3)
H21 H -0.0555 -0.0915 0.5444
H22 H -0.1083 -0.0585 0.4144
H23 H -0.0762 -0.1142 0.4162
N5 N 0.084(3) -0.0530(19) 0.751(5)
C24 C 0.137(3) -0.0795(19) 0.757(5)
C25 C 0.175(3) -0.123(2) 0.725(5)
H24 H 0.2371 -0.1143 0.7437
H25 H 0.1257 -0.1323 0.6324
H26 H 0.1867 -0.1519 0.7802
loop_
_geom_bond_atom_site_label_1
_geom_bond_atom_site_label_2
_geom_bond_site_symmetry_1
_geom_bond_site_symmetry_2
Ag1 N1 1_555 1_555
O1 C8 1_555 1_555
O2 C11 1_555 1_555
N1 C1 1_555 1_555
N2 C14 1_555 1_555
C1 H1 1_555 1_555
C2 C1 1_555 1_555
H2 C2 1_555 1_555
C3 C2 1_555 1_555
C4 C3 1_555 1_555
H3 C4 1_555 1_555
C5 N1 1_555 1_555
H4 C5 1_555 1_555
C6 H5 1_555 1_555
C7 C3 1_555 1_555
C8 C7 1_555 1_555
C9 C8 1_555 1_555
C10 C9 1_555 1_555
C11 C10 1_555 1_555
C12 O2 1_555 1_555
H6 C12 1_555 1_555
H7 C12 1_555 1_555
H8 C12 1_555 1_555
C13 O1 1_555 1_555
H9 C13 1_555 1_555
H10 C13 1_555 1_555
H11 C13 1_555 1_555
C14 H12 1_555 1_555
C15 C14 1_555 1_555
H13 C15 1_555 1_555
C16 C15 1_555 1_555
C17 C16 1_555 1_555
H14 C17 1_555 1_555
C18 N2 1_555 1_555
H15 C18 1_555 1_555
C19 C11 1_555 1_555
C20 C19 1_555 1_555
H16 C20 1_555 1_555
N3 O3 1_555 1_555
O4 N3 1_555 1_555
O5 N3 1_555 1_555
O6 C21 1_555 1_555
N4 C21 1_555 1_555
C21 H17 1_555 1_555
C22 N4 1_555 1_555
H18 C22 1_555 1_555
H19 C22 1_555 1_555
H20 C22 1_555 1_555
C23 N4 1_555 1_555
H21 C23 1_555 1_555
H22 C23 1_555 1_555
H23 C23 1_555 1_555
N5 C24 1_555 1_555
C24 C25 1_555 1_555
C25 H24 1_555 1_555
H25 C25 1_555 1_555
H26 C25 1_555 1_555
O1A C8A 1_555 1_555
O2A C11A 1_555 1_555
N1A C1A 1_555 1_555
N2A C14A 1_555 1_555
C1A H1A 1_555 1_555
C2A C1A 1_555 1_555
H2A C2A 1_555 1_555
C3A C2A 1_555 1_555
C4A C3A 1_555 1_555
H3A C4A 1_555 1_555
C5A N1A 1_555 1_555
H4A C5A 1_555 1_555
C7A C6 1_555 1_555
C8A C9 1_555 1_555
C11A C10 1_555 1_555
C12A O2A 1_555 1_555
H6A C12A 1_555 1_555
H7A C12A 1_555 1_555
H8A C12A 1_555 1_555
C13A O1A 1_555 1_555
H9A C13A 1_555 1_555
H10A C13A 1_555 1_555
H11A C13A 1_555 1_555
C14A H12A 1_555 1_555
C15A C14A 1_555 1_555
H13A C15A 1_555 1_555
C16A C15A 1_555 1_555
C17A C16A 1_555 1_555
H14A C17A 1_555 1_555
C18A N2A 1_555 1_555
H15A C18A 1_555 1_555
C19A C20 1_555 1_555
Ag1_2 N1A 1_555 1_555
Ag1B N2 1_555 1_555
Ag1B_2 N2A 1_555 1_555
N1A_2 Ag1 1_555 1_555
N2B Ag1 1_555 1_555
N2C Ag1 1_555 1_555
C4 C5 1_555 1_555
C6 C7 1_555 1_555
C16 C19 1_555 1_555
C17 C18 1_555 1_555
C3A C7A 1_555 1_555
C4A C5A 1_555 1_555
C7A C8A 1_555 1_555
C11A C19A 1_555 1_555
C16A C19A 1_555 1_555
C17A C18A 1_555 1_555

#END
