
#######################################################################
#
#                 Cambridge Crystallographic Data Centre
#                                CCDC 
#
#######################################################################
#
# If this CIF has been generated from an entry in the Cambridge 
# Structural Database, then it will include bibliographic, chemical, 
# crystal, experimental, refinement or atomic coordinate data resulting 
# from the CCDC's data processing and validation procedures.
#
#######################################################################

data_REZXOK
_chemical_formula_moiety         '(C51 H53 Fe3 N3 O23)n'
_symmetry_cell_setting           hexagonal
_symmetry_space_group_name_H-M   'P -6 2 c'
_symmetry_Int_Tables_number      190
_space_group_name_Hall           'P -6c -2c'
loop_
_symmetry_equiv_pos_site_id
_symmetry_equiv_pos_as_xyz
1 x,y,z
2 -x+y,-x,1/2-z
3 y,x,1/2+z
4 -y,x-y,z
5 x-y,-y,-z
6 x,y,1/2-z
7 -x,-x+y,1/2+z
8 -x+y,-x,z
9 y,x,-z
10 -y,x-y,1/2-z
11 x-y,-y,1/2+z
12 -x,-x+y,-z
_cell_length_a                   18.7529(10)
_cell_length_b                   18.7529(10)
_cell_length_c                   18.7425(10)
_cell_angle_alpha                90
_cell_angle_beta                 90
_cell_angle_gamma                120
_cell_volume                     5708.15
loop_
_atom_site_label
_atom_site_type_symbol
_atom_site_fract_x
_atom_site_fract_y
_atom_site_fract_z
_atom_site_U_iso_or_equiv
_atom_site_thermal_displace_type
Fe1 Fe 0.7345 0.2759 0.2500 0.0000 Uiso
O1 O 0.6667 0.3333 0.2500 0.0000 Uiso
O2 O 0.8161 0.3671 0.1806 0.0000 Uiso
O3 O 0.8190 0.2383 0.2500 0.0000 Uiso
O4 O 0.7874 0.4608 0.1734 0.0000 Uiso
C1 C 0.8227 0.4281 0.1509 0.0000 Uiso
C2 C 0.9003 0.4785 0.1041 0.0000 Uiso
C3 C 0.9770 0.5202 0.1338 0.0000 Uiso
C4 C 1.0483 0.5479 0.0866 0.0000 Uiso
C5 C 1.0398 0.5621 0.0146 0.0000 Uiso
C6 C 0.8905 0.4757 0.0315 0.0000 Uiso
Fe1C Fe 0.7241 0.4586 0.2500 0.0000 Uiso
Fe1A Fe 0.5414 0.2655 0.2500 0.0000 Uiso
Fe1F Fe 1.2655 0.5414 -0.2500 0.0000 Uiso
Fe1B Fe 1.2759 0.7345 -0.2500 0.0000 Uiso
Fe1F_2 Fe 1.2655 0.5414 0.7500 0.0000 Uiso
Fe1B_2 Fe 1.2759 0.7345 0.7500 0.0000 Uiso
Fe1B_3 Fe 0.2759 -0.2655 -0.2500 0.0000 Uiso
Fe1D Fe 0.4586 -0.2759 -0.2500 0.0000 Uiso
O2K O 1.1839 0.5510 -0.1806 0.0000 Uiso
O2E O 0.8161 0.3671 0.3194 0.0000 Uiso
O2F O 1.1839 0.5510 0.6806 0.0000 Uiso
O2G O 0.5510 0.1839 0.1806 0.0000 Uiso
O2H O 0.3671 -0.1839 -0.1806 0.0000 Uiso
O2C O 0.6329 0.4490 0.1806 0.0000 Uiso
O2I O 0.6329 0.4490 0.3194 0.0000 Uiso
O2A O 0.5510 0.1839 0.3194 0.0000 Uiso
O3C O 0.7617 0.5807 0.2500 0.0000 Uiso
O3A O 0.4193 0.1810 0.2500 0.0000 Uiso
O4K O 1.2126 0.6734 -0.1734 0.0000 Uiso
O4E O 0.7874 0.4608 0.3266 0.0000 Uiso
O4F O 1.2126 0.6734 0.6734 0.0000 Uiso
O4G O 0.6734 0.2126 0.1734 0.0000 Uiso
O4H O 0.4608 -0.2126 -0.1734 0.0000 Uiso
O4A O 0.6734 0.2126 0.3266 0.0000 Uiso
O4C O 0.5392 0.3266 0.1734 0.0000 Uiso
O4I O 0.5392 0.3266 0.3266 0.0000 Uiso
C1K C 1.1773 0.6054 -0.1509 0.0000 Uiso
C1E C 0.8227 0.4281 0.3491 0.0000 Uiso
C1F C 1.1773 0.6054 0.6509 0.0000 Uiso
C1G C 0.6054 0.1773 0.1509 0.0000 Uiso
C1H C 0.4281 -0.1773 -0.1509 0.0000 Uiso
C2K C 1.0997 0.5782 -0.1041 0.0000 Uiso
C2E C 0.9003 0.4785 0.3959 0.0000 Uiso
C2F C 1.0997 0.5782 0.6041 0.0000 Uiso
C2G C 0.5782 0.0997 0.1041 0.0000 Uiso
C2H C 0.4785 -0.0997 -0.1041 0.0000 Uiso
C3K C 1.0230 0.5432 -0.1338 0.0000 Uiso
C3E C 0.9770 0.5202 0.3662 0.0000 Uiso
C3F C 1.0230 0.5432 0.6338 0.0000 Uiso
C3G C 0.5432 0.0230 0.1338 0.0000 Uiso
C3H C 0.5202 -0.0230 -0.1338 0.0000 Uiso
C4K C 0.9517 0.4996 -0.0866 0.0000 Uiso
C4E C 1.0483 0.5479 0.4134 0.0000 Uiso
C4F C 0.9517 0.4996 0.5866 0.0000 Uiso
C4G C 0.4996 -0.0483 0.0866 0.0000 Uiso
C4H C 0.5479 0.0483 -0.0866 0.0000 Uiso
C5K C 0.9602 0.5223 -0.0146 0.0000 Uiso
C5E C 1.0398 0.5621 0.4854 0.0000 Uiso
C5F C 0.9602 0.5223 0.5146 0.0000 Uiso
C5G C 0.5223 -0.0398 0.0146 0.0000 Uiso
C5H C 0.5621 0.0398 -0.0146 0.0000 Uiso
C6K C 1.1095 0.5852 -0.0315 0.0000 Uiso
C6E C 0.8905 0.4757 0.4685 0.0000 Uiso
C6F C 1.1095 0.5852 0.5315 0.0000 Uiso
C6G C 0.5852 0.1095 0.0315 0.0000 Uiso
C6H C 0.4757 -0.1095 -0.0315 0.0000 Uiso
C7 C -0.2438 0.0324 -0.1331 0.0000 Uiso
C8 C -0.2943 0.1446 -0.0970 0.0000 Uiso
C9 C -0.2058 0.0884 -0.0751 0.0000 Uiso
C10 C -0.3035 0.1158 -0.1660 0.0000 Uiso
C11 C -0.2796 0.0589 -0.1858 0.0000 Uiso
N1 N -0.2582 0.1169 -0.0461 0.0000 Uiso
C12 C -0.2366 -0.0781 -0.0833 0.0000 Uiso
C13 C -0.1618 -0.0800 -0.0828 0.0000 Uiso
C14 C -0.2336 -0.2165 -0.1302 0.0000 Uiso
C15 C -0.3033 -0.2077 -0.1480 0.0000 Uiso
N2 N -0.1566 -0.1401 -0.1260 0.0000 Uiso
C16 C -0.2927 -0.1258 -0.1372 0.0000 Uiso
N3 N -0.5798 0.0033 -0.2500 0.0000 Uiso
C17 C -0.5727 0.0502 -0.1871 0.0000 Uiso
C18 C -0.6311 0.0781 -0.1861 0.0000 Uiso
C19 C -0.6284 0.1218 -0.2500 0.0000 Uiso
C17E C -0.5727 0.0502 -0.3129 0.0000 Uiso
C18E C -0.6311 0.0781 -0.3139 0.0000 Uiso
O5 O 0.9545 -0.1499 0.2500 0.0000 Uiso
O6 O 0.6666 0.3333 0.1133 0.0000 Uiso
O7 O 0.7969 0.2418 0.1043 0.0000 Uiso
O8 O 0.6729 0.0924 0.2500 0.0000 Uiso
O9 O 0.9454 0.3578 0.0817 0.0000 Uiso
O10 O 0.6667 0.3333 -0.0199 0.0000 Uiso
O11 O 0.0000 0.0000 -0.1375 0.0000 Uiso
loop_
_geom_bond_atom_site_label_1
_geom_bond_atom_site_label_2
_geom_bond_site_symmetry_1
_geom_bond_site_symmetry_2
Fe1 O1 1_555 1_555
O1 Fe1C 1_555 1_555
O2 Fe1 1_555 1_555
O3 Fe1 1_555 1_555
O4 C1 1_555 1_555
C1 O2 1_555 1_555
C2 C1 1_555 1_555
C3 C2 1_555 1_555
C4 C3 1_555 1_555
C5 C4 1_555 1_555
C6 C2 1_555 1_555
C7 C9 1_555 1_555
C8 C10 1_555 1_555
C9 N1 1_555 1_555
C10 C11 1_555 1_555
C11 C7 1_555 1_555
N1 C8 1_555 1_555
C12 C13 1_555 1_555
C13 N2 1_555 1_555
C14 C15 1_555 1_555
C15 C16 1_555 1_555
N2 C14 1_555 1_555
C16 C12 1_555 1_555
N3 C17 1_555 1_555
C17 C18 1_555 1_555
C18 C19 1_555 1_555
C19 C18E 1_555 1_555
Fe1C O4 1_555 1_555
Fe1A O1 1_555 1_555
Fe1F O2K 1_555 1_555
Fe1B O4K 1_555 1_555
Fe1F_2 O2F 1_555 1_555
Fe1B_2 O4F 1_555 1_555
Fe1B_3 O2H 1_555 1_555
Fe1D O4H 1_555 1_555
O2K C1K 1_555 1_555
O2E Fe1 1_555 1_555
O2F C1F 1_555 1_555
O2G Fe1A 1_555 1_555
O2H C1H 1_555 1_555
O2C Fe1C 1_555 1_555
O2I Fe1C 1_555 1_555
O2A Fe1A 1_555 1_555
O3C Fe1C 1_555 1_555
O3A Fe1A 1_555 1_555
O4K C1K 1_555 1_555
O4E Fe1C 1_555 1_555
O4F C1F 1_555 1_555
O4G Fe1 1_555 1_555
O4H C1H 1_555 1_555
O4A Fe1 1_555 1_555
O4C Fe1A 1_555 1_555
O4I Fe1A 1_555 1_555
C1K C2K 1_555 1_555
C1E O2E 1_555 1_555
C1F C2F 1_555 1_555
C1G O2G 1_555 1_555
C1H C2H 1_555 1_555
C2K C3K 1_555 1_555
C2E C1E 1_555 1_555
C2F C3F 1_555 1_555
C2G C1G 1_555 1_555
C2H C3H 1_555 1_555
C3K C4K 1_555 1_555
C3E C2E 1_555 1_555
C3F C4F 1_555 1_555
C3G C2G 1_555 1_555
C3H C4H 1_555 1_555
C4K C5K 1_555 1_555
C4E C3E 1_555 1_555
C4F C5F 1_555 1_555
C4G C3G 1_555 1_555
C4H C5H 1_555 1_555
C5K C5 1_555 1_555
C5E C4E 1_555 1_555
C5F C5E 1_555 1_555
C5G C4G 1_555 1_555
C5H C5G 1_555 1_555
C6K C5 1_555 1_555
C6E C2E 1_555 1_555
C6F C2F 1_555 1_555
C6G C2G 1_555 1_555
C6H C2H 1_555 1_555
C17E N3 1_555 1_555
C18E C17E 1_555 1_555
C6 C5K 1_555 1_555
O4E C1E 1_555 1_555
O4G C1G 1_555 1_555
C2K C6K 1_555 1_555
C5E C6F 1_555 1_555
C5F C6E 1_555 1_555
C5G C6H 1_555 1_555
C5H C6G 1_555 1_555

#END
