
#######################################################################
#
#                 Cambridge Crystallographic Data Centre
#                                CCDC 
#
#######################################################################
#
# If this CIF has been generated from an entry in the Cambridge 
# Structural Database, then it will include bibliographic, chemical, 
# crystal, experimental, refinement or atomic coordinate data resulting 
# from the CCDC's data processing and validation procedures.
#
#######################################################################

data_REZXEA
_chemical_formula_moiety         '(C27 H30 Cr3 O19 1+)n'
_symmetry_cell_setting           hexagonal
_symmetry_space_group_name_H-M   'P 63/m m c'
_symmetry_Int_Tables_number      194
_space_group_name_Hall           '-P 6c 2c'
loop_
_symmetry_equiv_pos_site_id
_symmetry_equiv_pos_as_xyz
1 x,y,z
2 x-y,x,1/2+z
3 -y,-x,1/2-z
4 -y,x-y,z
5 x-y,-y,-z
6 -x,-y,1/2+z
7 x,x-y,1/2-z
8 -x+y,-x,z
9 y,x,-z
10 y,-x+y,1/2+z
11 -x+y,y,1/2-z
12 -x,-x+y,-z
13 -x,-y,-z
14 -x+y,-x,1/2-z
15 y,x,1/2+z
16 y,-x+y,-z
17 -x+y,y,z
18 x,y,1/2-z
19 -x,-x+y,1/2+z
20 x-y,x,-z
21 -y,-x,z
22 -y,x-y,1/2-z
23 x-y,-y,1/2+z
24 x,x-y,z
_cell_length_a                   15.6261(10)
_cell_length_b                   15.6261(10)
_cell_length_c                   15.9604(10)
_cell_angle_alpha                90
_cell_angle_beta                 90
_cell_angle_gamma                120
_cell_volume                     3375.01
loop_
_atom_site_label
_atom_site_type_symbol
_atom_site_fract_x
_atom_site_fract_y
_atom_site_fract_z
O2 O 0.6666 0.3333 0.1641
C2 C 0.6666 0.3333 0.0809
O3 O 0.8620 0.5513 0.2500
C3 C 0.9646 0.6105 0.2500
Cr1 Cr 0.7352 0.4704 0.7500
O4 O 0.6667 0.3333 0.7500
O5 O 0.6553 0.4845 0.8414
O6 O 0.8105 0.6209 0.7500
C4 C 0.5757 0.4243 0.8786
C5 C 0.5425 0.4575 0.9483
C6 C 0.4414 0.4075 0.9652
Cr1B Cr 0.5296 0.2648 0.7500
Cr1F Cr 0.7352 0.2648 0.7500
Cr1H Cr 0.4704 0.7352 1.2500
Cr1D Cr 0.2648 0.5296 1.2500
Cr1A Cr 1.2648 0.7352 0.2500
Cr1D_2 Cr 1.2648 0.5296 0.2500
Cr1A_2 Cr 1.2648 0.7352 1.2500
Cr1D_3 Cr 1.2648 0.5296 1.2500
O5T O 0.5155 0.3447 0.8414
O5H O 0.4845 0.6553 1.1586
O5L O 0.3447 0.5155 1.1586
O5J O 0.8292 0.4845 0.6586
O5M O 0.8292 0.3447 0.6586
O5A O 1.1708 0.6553 0.3414
O5V O 1.1708 0.5155 0.3414
O5P O 0.8292 0.4845 0.8414
O5G O 0.8292 0.3447 0.8414
O5S O 1.1708 0.6553 1.1586
O5D O 1.1708 0.5155 1.1586
O5Q O 0.6553 0.4845 0.6586
O5B O 0.5155 0.3447 0.6586
O5C O 0.5155 0.1708 0.8414
O5U O 0.5155 0.1708 0.6586
O5F O 0.6553 0.1708 0.6586
O5W O 0.6553 0.1708 0.8414
O6B O 0.3791 0.1895 0.7500
O6G O 0.8104 0.1895 0.7500
C4H C 0.4243 0.5757 1.1214
C4J C 0.8486 0.4243 0.6214
C4A C 1.1514 0.5757 0.3786
C4G C 0.8486 0.4243 0.8786
C4D C 1.1514 0.5757 1.1214
C5H C 0.4575 0.5425 1.0517
C5J C 0.9150 0.4575 0.5517
C5A C 1.0850 0.5425 0.4483
C5G C 0.9150 0.4575 0.9483
C5D C 1.0850 0.5425 1.0517
C6H C 0.4075 0.4414 1.0348
C6L C 0.5586 0.5925 1.0348
C6T C 0.5925 0.5586 0.9652
C6J C 0.9661 0.4075 0.5348
C6A C 1.0339 0.4414 0.4652
C6V C 1.0339 0.5925 0.4652
C6M C 0.9661 0.5586 0.5348
C6P C 0.9661 0.4075 0.9652
C6S C 1.0339 0.4414 1.0348
C6D C 1.0339 0.5925 1.0348
C6G C 0.9661 0.5586 0.9652
O1 O 0.2668 0.1333 1.0049
C1 C 0.3330 0.1665 1.0767
loop_
_geom_bond_atom_site_label_1
_geom_bond_atom_site_label_2
_geom_bond_site_symmetry_1
_geom_bond_site_symmetry_2
O1 C1 1_555 1_555
O2 C2 1_555 1_555
O3 C3 1_555 1_555
Cr1 O4 1_555 1_555
O4 Cr1B 1_555 1_555
O5 Cr1 1_555 1_555
O6 Cr1 1_555 1_555
C4 O5 1_555 1_555
C5 C4 1_555 1_555
C6 C5 1_555 1_555
Cr1B O5T 1_555 1_555
Cr1F O4 1_555 1_555
Cr1H O5H 1_555 1_555
Cr1D O5L 1_555 1_555
Cr1A O5A 1_555 1_555
Cr1D_2 O5V 1_555 1_555
Cr1A_2 O5S 1_555 1_555
Cr1D_3 O5D 1_555 1_555
O5T C4 1_555 1_555
O5H C4H 1_555 1_555
O5L C4H 1_555 1_555
O5J Cr1 1_555 1_555
O5M Cr1F 1_555 1_555
O5A C4A 1_555 1_555
O5V C4A 1_555 1_555
O5P Cr1 1_555 1_555
O5G Cr1F 1_555 1_555
O5S C4D 1_555 1_555
O5D C4D 1_555 1_555
O5Q Cr1 1_555 1_555
O5B Cr1B 1_555 1_555
O5C Cr1B 1_555 1_555
O5U Cr1B 1_555 1_555
O5F Cr1F 1_555 1_555
O5W Cr1F 1_555 1_555
O6B Cr1B 1_555 1_555
O6G Cr1F 1_555 1_555
C4H C5H 1_555 1_555
C4J O5J 1_555 1_555
C4A C5A 1_555 1_555
C4G O5P 1_555 1_555
C4D C5D 1_555 1_555
C5H C6H 1_555 1_555
C5J C4J 1_555 1_555
C5A C6A 1_555 1_555
C5G C4G 1_555 1_555
C5D C6S 1_555 1_555
C6H C6 1_555 1_555
C6L C5H 1_555 1_555
C6T C5 1_555 1_555
C6J C5J 1_555 1_555
C6A C6J 1_555 1_555
C6V C5A 1_555 1_555
C6M C5J 1_555 1_555
C6P C5G 1_555 1_555
C6S C6P 1_555 1_555
C6D C5D 1_555 1_555
C6G C5G 1_555 1_555
O5M C4J 1_555 1_555
O5G C4G 1_555 1_555
C6L C6T 1_555 1_555
C6V C6M 1_555 1_555
C6D C6G 1_555 1_555

#END
