
#######################################################################
#
#                 Cambridge Crystallographic Data Centre
#                                CCDC 
#
#######################################################################
#
# If this CIF has been generated from an entry in the Cambridge 
# Structural Database, then it will include bibliographic, chemical, 
# crystal, experimental, refinement or atomic coordinate data resulting 
# from the CCDC's data processing and validation procedures.
#
#######################################################################

data_CICSOW01
_chemical_formula_moiety         '(C24 H24 Cl2 Fe2 N36 O8 2+)n'
_symmetry_cell_setting           rhombohedral
_symmetry_space_group_name_H-M   'R -3'
_symmetry_Int_Tables_number      148
_space_group_name_Hall           '-R 3'
loop_
_symmetry_equiv_pos_site_id
_symmetry_equiv_pos_as_xyz
1 x,y,z
2 1/3+x,2/3+y,2/3+z
3 2/3+x,1/3+y,1/3+z
4 -y,x-y,z
5 2/3-y,1/3+x-y,1/3+z
6 -x+y,-x,z
7 2/3-x+y,1/3-x,1/3+z
8 1/3-y,2/3+x-y,2/3+z
9 1/3-x+y,2/3-x,2/3+z
10 -x,-y,-z
11 2/3-x,1/3-y,1/3-z
12 1/3-x,2/3-y,2/3-z
13 y,-x+y,-z
14 1/3+y,2/3-x+y,2/3-z
15 x-y,x,-z
16 1/3+x-y,2/3+x,2/3-z
17 2/3+y,1/3-x+y,1/3-z
18 2/3+x-y,1/3+x,1/3-z
_cell_length_a                   10.938
_cell_length_b                   10.938
_cell_length_c                   34.555
_cell_angle_alpha                90
_cell_angle_beta                 90
_cell_angle_gamma                120
_cell_volume                     3580.28
loop_
_atom_site_label
_atom_site_type_symbol
_atom_site_fract_x
_atom_site_fract_y
_atom_site_fract_z
Fe1 Fe 0.0000 0.0000 0.0000
N1 N 0.1862(3) 0.0839(3) 0.03549(9)
N2 N 0.2102(4) 0.1757(4) 0.0664(1)
C1 C 0.2493(4) 0.0124(4) 0.0426(1)
C2 C 0.2866(5) 0.1543(4) 0.0911(1)
N3 N 0.3142(3) 0.0544(3) 0.07730(9)
H1 H 0.255(5) -0.057(5) 0.028(1)
H2 H 0.326(5) 0.202(5) 0.115(1)
N4 N 0.3735(3) -0.0117(3) 0.09713(9)
C3 C 0.5019(5) 0.0006(5) 0.0914(1)
C4 C 0.3065(4) -0.1139(4) 0.1238(1)
N5 N 0.5149(4) -0.0882(4) 0.1135(1)
H3 H 0.566(5) 0.067(5) 0.076(1)
N6 N 0.3880(3) -0.1626(3) 0.13368(9)
H4 H 0.212(5) -0.141(5) 0.132(1)
Fe2 Fe 0.3334 -0.3334 0.1666
N1C N -0.0839(3) 0.1023(4) 0.03549(9)
N1E N -0.1023(4) -0.1862(3) 0.03549(9)
N1I N -0.1862(3) -0.0839(3) -0.03549(9)
N1L N 0.0839(3) -0.1023(4) -0.03549(9)
N1N N 0.1023(4) 0.1862(3) -0.03549(9)
N2C N -0.1757(4) 0.0345(6) 0.0664(1)
C1C C -0.0124(4) 0.2369(6) 0.0426(1)
C1E C -0.2369(6) -0.2493(4) 0.0426(1)
N2E N -0.0345(6) -0.2102(4) 0.0664(1)
N2I N -0.2102(4) -0.1757(4) -0.0664(1)
C1I C -0.2493(4) -0.0124(4) -0.0426(1)
C2C C -0.1543(4) 0.1323(6) 0.0911(1)
N3C N -0.0544(3) 0.2598(4) 0.07730(9)
H1C H 0.057(5) 0.312(7) 0.028(1)
N3E N -0.2598(4) -0.3142(3) 0.07730(9)
H1E H -0.312(7) -0.255(5) 0.028(1)
C2E C -0.1323(6) -0.2866(5) 0.0911(1)
C2I C -0.2866(5) -0.1543(4) -0.0911(1)
N3I N -0.3142(3) -0.0544(3) -0.07730(9)
H1I H -0.255(5) 0.057(5) -0.028(1)
H2C H -0.202(5) 0.124(7) 0.115(1)
N4C N 0.0117(3) 0.3852(4) 0.09713(9)
N4E N -0.3852(4) -0.3735(3) 0.09713(9)
H2E H -0.124(7) -0.326(5) 0.115(1)
H2I H -0.326(5) -0.202(5) -0.115(1)
N4I N -0.3735(3) 0.0117(3) -0.09713(9)
C3C C -0.0006(5) 0.5013(7) 0.0914(1)
C4C C 0.1139(4) 0.4204(6) 0.1238(1)
C4E C -0.4204(6) -0.3065(4) 0.1238(1)
C3E C -0.5013(7) -0.5019(5) 0.0914(1)
C3I C -0.5019(5) -0.0006(5) -0.0914(1)
C4I C -0.3065(4) 0.1139(4) -0.1238(1)
N5C N 0.0882(4) 0.6031(6) 0.1135(1)
H3C H -0.067(5) 0.499(7) 0.076(1)
N6C N 0.1626(3) 0.5506(4) 0.13368(9)
H4C H 0.141(5) 0.353(7) 0.132(1)
N6E N -0.5506(4) -0.3880(3) 0.13368(9)
H4E H -0.353(7) -0.212(5) 0.132(1)
N5E N -0.6031(6) -0.5149(4) 0.1135(1)
H3E H -0.499(7) -0.566(5) 0.076(1)
N5I N -0.5149(4) 0.0882(4) -0.1135(1)
H3I H -0.566(5) -0.067(5) -0.076(1)
N6I N -0.3880(3) 0.1626(3) -0.13368(9)
H4I H -0.212(5) 0.141(5) -0.132(1)
Fe2_2 Fe 0.3334 0.6666 0.1666
Fe2_3 Fe -0.6666 -0.3334 0.1666
Fe2A Fe -0.3333 0.3333 -0.1667
N6J N -0.7213(3) -0.5041(3) 0.19965(9)
N6Q N -0.7827(4) -0.2787(3) 0.19965(9)
N6_2 N -0.6120(3) -0.1626(3) 0.13368(9)
N6C_2 N -0.8374(3) -0.4494(4) 0.13368(9)
N6P N -0.4959(3) -0.2173(4) 0.19965(9)
C4J C -0.6398(4) -0.5528(4) 0.2095(1)
N5J N -0.8482(4) -0.5785(4) 0.2198(1)
C4Q C -0.9129(6) -0.3602(4) 0.2095(1)
N5Q N -0.7302(6) -0.1518(4) 0.2198(1)
N4J N -0.7068(3) -0.6550(3) 0.23620(9)
H4J H -0.545(5) -0.526(5) 0.201(1)
C3J C -0.8352(5) -0.6673(5) 0.2419(1)
N4Q N -0.9481(4) -0.2932(3) 0.23620(9)
H4Q H -0.980(7) -0.455(5) 0.201(1)
C3Q C -0.8320(7) -0.1648(5) 0.2419(1)
N3J N -0.6475(3) -0.7211(3) 0.25603(9)
H3J H -0.899(5) -0.734(5) 0.257(1)
N3Q N -1.0735(4) -0.3525(3) 0.25603(9)
H3Q H -0.834(7) -0.101(5) 0.257(1)
C1J C -0.5826(4) -0.6791(4) 0.2907(1)
C2J C -0.6199(5) -0.8210(4) 0.2422(1)
C1Q C -1.0964(6) -0.4174(4) 0.2907(1)
C2Q C -1.2010(6) -0.3801(5) 0.2422(1)
N1J N -0.5195(3) -0.7506(3) 0.29784(9)
H1J H -0.588(5) -0.610(5) 0.305(1)
N2J N -0.5435(4) -0.8424(4) 0.2669(1)
H2J H -0.659(5) -0.869(5) 0.218(1)
H1Q H -1.021(7) -0.412(5) 0.305(1)
N1Q N -1.2310(4) -0.4805(3) 0.29784(9)
H2Q H -1.209(7) -0.341(5) 0.218(1)
N2Q N -1.2988(6) -0.4565(4) 0.2669(1)
Fe1B Fe -0.3333 -0.6667 0.3333
Fe1B_2 Fe -1.3333 -0.6667 0.3333
Cl1 Cl 0.6667 0.3333 0.15258(6)
O1 O 0.7782(9) 0.324(1) 0.1658(2)
O2 O 0.6667 0.3333 0.1114(2)
O1C O 0.676(1) 0.4542(13) 0.1658(2)
O1E O 0.5458(13) 0.2218(9) 0.1658(2)
Cl2 Cl 0.6667 0.3333 0.00192(6)
O3 O 0.6667 0.3333 -0.0385(2)
O4 O 0.6899(6) 0.2247(5) 0.0157(2)
O4C O 0.7753(5) 0.4652(8) 0.0157(2)
O4E O 0.5348(8) 0.3101(6) 0.0157(2)
loop_
_geom_bond_atom_site_label_1
_geom_bond_atom_site_label_2
_geom_bond_site_symmetry_1
_geom_bond_site_symmetry_2
Fe1 N1 1_555 1_555
N1 N2 1_555 1_555
N2 C2 1_555 1_555
C1 N1 1_555 1_555
C2 N3 1_555 1_555
N3 C1 1_555 1_555
H1 C1 1_555 1_555
H2 C2 1_555 1_555
N4 N3 1_555 1_555
C3 N4 1_555 1_555
C4 N4 1_555 1_555
N5 C3 1_555 1_555
H3 C3 1_555 1_555
N6 C4 1_555 1_555
H4 C4 1_555 1_555
Fe2 N6 1_555 1_555
Cl1 O1 1_555 1_555
O2 Cl1 1_555 1_555
Cl2 O3 1_555 1_555
O4 Cl2 1_555 1_555
N1C Fe1 1_555 1_555
N1E Fe1 1_555 1_555
N1I Fe1 1_555 1_555
N1L Fe1 1_555 1_555
N1N Fe1 1_555 1_555
N2C N1C 1_555 1_555
C1C N1C 1_555 1_555
C1E N1E 1_555 1_555
N2E N1E 1_555 1_555
N2I N1I 1_555 1_555
C1I N1I 1_555 1_555
C2C N2C 1_555 1_555
N3C C1C 1_555 1_555
H1C C1C 1_555 1_555
N3E C1E 1_555 1_555
H1E C1E 1_555 1_555
C2E N2E 1_555 1_555
C2I N2I 1_555 1_555
N3I C1I 1_555 1_555
H1I C1I 1_555 1_555
H2C C2C 1_555 1_555
N4C N3C 1_555 1_555
N4E N3E 1_555 1_555
H2E C2E 1_555 1_555
H2I C2I 1_555 1_555
N4I N3I 1_555 1_555
C3C N4C 1_555 1_555
C4C N4C 1_555 1_555
C4E N4E 1_555 1_555
C3E N4E 1_555 1_555
C3I N4I 1_555 1_555
C4I N4I 1_555 1_555
N5C C3C 1_555 1_555
H3C C3C 1_555 1_555
N6C C4C 1_555 1_555
H4C C4C 1_555 1_555
N6E C4E 1_555 1_555
H4E C4E 1_555 1_555
N5E C3E 1_555 1_555
H3E C3E 1_555 1_555
N5I C3I 1_555 1_555
H3I C3I 1_555 1_555
N6I C4I 1_555 1_555
H4I C4I 1_555 1_555
Fe2_2 N6C 1_555 1_555
Fe2_3 N6E 1_555 1_555
Fe2A N6I 1_555 1_555
N6J Fe2_3 1_555 1_555
N6Q Fe2_3 1_555 1_555
N6_2 Fe2_3 1_555 1_555
N6C_2 Fe2_3 1_555 1_555
N6P Fe2_3 1_555 1_555
C4J N6J 1_555 1_555
N5J N6J 1_555 1_555
C4Q N6Q 1_555 1_555
N5Q N6Q 1_555 1_555
N4J C4J 1_555 1_555
H4J C4J 1_555 1_555
C3J N5J 1_555 1_555
N4Q C4Q 1_555 1_555
H4Q C4Q 1_555 1_555
C3Q N5Q 1_555 1_555
N3J N4J 1_555 1_555
H3J C3J 1_555 1_555
N3Q N4Q 1_555 1_555
H3Q C3Q 1_555 1_555
C1J N3J 1_555 1_555
C2J N3J 1_555 1_555
C1Q N3Q 1_555 1_555
C2Q N3Q 1_555 1_555
N1J C1J 1_555 1_555
H1J C1J 1_555 1_555
N2J C2J 1_555 1_555
H2J C2J 1_555 1_555
H1Q C1Q 1_555 1_555
N1Q C1Q 1_555 1_555
H2Q C2Q 1_555 1_555
N2Q C2Q 1_555 1_555
Fe1B N1J 1_555 1_555
Fe1B_2 N1Q 1_555 1_555
O1C Cl1 1_555 1_555
O1E Cl1 1_555 1_555
O4C Cl2 1_555 1_555
O4E Cl2 1_555 1_555
N5 N6 1_555 1_555
C2C N3C 1_555 1_555
N3E C2E 1_555 1_555
C2I N3I 1_555 1_555
N5C N6C 1_555 1_555
N6E N5E 1_555 1_555
N5I N6I 1_555 1_555
N4J C3J 1_555 1_555
N4Q C3Q 1_555 1_555
N1J N2J 1_555 1_555
N1Q N2Q 1_555 1_555

#END
