
#######################################################################
#
#                 Cambridge Crystallographic Data Centre
#                                CCDC 
#
#######################################################################
#
# If this CIF has been generated from an entry in the Cambridge 
# Structural Database, then it will include bibliographic, chemical, 
# crystal, experimental, refinement or atomic coordinate data resulting 
# from the CCDC's data processing and validation procedures.
#
#######################################################################

data_CICSOW02
_chemical_formula_moiety         '(C24 H24 Cl2 Fe2 N36 O8 2+)n'
_symmetry_cell_setting           rhombohedral
_symmetry_space_group_name_H-M   'R -3'
_symmetry_Int_Tables_number      148
_space_group_name_Hall           '-R 3'
loop_
_symmetry_equiv_pos_site_id
_symmetry_equiv_pos_as_xyz
1 x,y,z
2 1/3+x,2/3+y,2/3+z
3 2/3+x,1/3+y,1/3+z
4 -y,x-y,z
5 2/3-y,1/3+x-y,1/3+z
6 -x+y,-x,z
7 2/3-x+y,1/3-x,1/3+z
8 1/3-y,2/3+x-y,2/3+z
9 1/3-x+y,2/3-x,2/3+z
10 -x,-y,-z
11 2/3-x,1/3-y,1/3-z
12 1/3-x,2/3-y,2/3-z
13 y,-x+y,-z
14 1/3+y,2/3-x+y,2/3-z
15 x-y,x,-z
16 1/3+x-y,2/3+x,2/3-z
17 2/3+y,1/3-x+y,1/3-z
18 2/3+x-y,1/3+x,1/3-z
_cell_length_a                   10.971
_cell_length_b                   10.971
_cell_length_c                   35.517
_cell_angle_alpha                90
_cell_angle_beta                 90
_cell_angle_gamma                120
_cell_volume                     3702.2
loop_
_atom_site_label
_atom_site_type_symbol
_atom_site_fract_x
_atom_site_fract_y
_atom_site_fract_z
Fe1 Fe 0.0000 0.0000 0.0000
N1 N 0.1867(3) 0.0841(3) 0.03465(8)
N2 N 0.2097(4) 0.1752(3) 0.06453(9)
C1 C 0.2489(4) 0.0132(4) 0.0419(1)
C2 C 0.2849(4) 0.1545(4) 0.0887(1)
N3 N 0.3137(3) 0.0553(3) 0.07556(8)
H1 H 0.252(5) -0.056(5) 0.026(1)
H2 H 0.320(5) 0.200(5) 0.112(1)
N4 N 0.3747(3) -0.0082(3) 0.09484(9)
C3 C 0.5032(4) 0.0056(5) 0.0891(1)
C4 C 0.3129(4) -0.1046(4) 0.1220(1)
N5 N 0.5201(3) -0.0766(4) 0.1117(1)
H3 H 0.570(5) 0.064(6) 0.070(2)
N6 N 0.3976(3) -0.1478(3) 0.13245(9)
H4 H 0.221(5) -0.134(5) 0.128(1)
Fe2 Fe 0.3334 -0.3334 0.1666
N1C N -0.0841(3) 0.1026(4) 0.03465(8)
N1E N -0.1026(4) -0.1867(3) 0.03465(8)
N1I N -0.1867(3) -0.0841(3) -0.03465(8)
N1L N 0.0841(3) -0.1026(4) -0.03465(8)
N1N N 0.1026(4) 0.1867(3) -0.03465(8)
N2C N -0.1752(3) 0.0345(5) 0.06453(9)
C1C C -0.0132(4) 0.2357(6) 0.0419(1)
C1E C -0.2357(6) -0.2489(4) 0.0419(1)
N2E N -0.0345(5) -0.2097(4) 0.06453(9)
N2I N -0.2097(4) -0.1752(3) -0.06453(9)
C1I C -0.2489(4) -0.0132(4) -0.0419(1)
C2C C -0.1545(4) 0.1304(6) 0.0887(1)
N3C N -0.0553(3) 0.2584(4) 0.07556(8)
H1C H 0.056(5) 0.308(7) 0.026(1)
N3E N -0.2584(4) -0.3137(3) 0.07556(8)
H1E H -0.308(7) -0.252(5) 0.026(1)
C2E C -0.1304(6) -0.2849(4) 0.0887(1)
C2I C -0.2849(4) -0.1545(4) -0.0887(1)
N3I N -0.3137(3) -0.0553(3) -0.07556(8)
H1I H -0.252(5) 0.056(5) -0.026(1)
H2C H -0.200(5) 0.120(7) 0.112(1)
N4C N 0.0082(3) 0.3829(4) 0.09484(9)
N4E N -0.3829(4) -0.3747(3) 0.09484(9)
H2E H -0.120(7) -0.320(5) 0.112(1)
H2I H -0.320(5) -0.200(5) -0.112(1)
N4I N -0.3747(3) 0.0082(3) -0.09484(9)
C3C C -0.0056(5) 0.4976(6) 0.0891(1)
C4C C 0.1046(4) 0.4175(6) 0.1220(1)
C4E C -0.4175(6) -0.3129(4) 0.1220(1)
C3E C -0.4976(6) -0.5032(4) 0.0891(1)
C3I C -0.5032(4) -0.0056(5) -0.0891(1)
C4I C -0.3129(4) 0.1046(4) -0.1220(1)
N5C N 0.0766(4) 0.5967(5) 0.1117(1)
H3C H -0.064(6) 0.506(8) 0.070(2)
N6C N 0.1478(3) 0.5454(4) 0.13245(9)
H4C H 0.134(5) 0.355(7) 0.128(1)
N6E N -0.5454(4) -0.3976(3) 0.13245(9)
H4E H -0.355(7) -0.221(5) 0.128(1)
N5E N -0.5967(5) -0.5201(3) 0.1117(1)
H3E H -0.506(8) -0.570(5) 0.070(2)
N5I N -0.5201(3) 0.0766(4) -0.1117(1)
H3I H -0.570(5) -0.064(6) -0.070(2)
N6I N -0.3976(3) 0.1478(3) -0.13245(9)
H4I H -0.221(5) 0.134(5) -0.128(1)
Fe2_2 Fe 0.3334 0.6666 0.1666
Fe2_3 Fe -0.6666 -0.3334 0.1666
Fe2A Fe -0.3333 0.3333 -0.1667
N6J N -0.7309(3) -0.5189(3) 0.20088(9)
N6Q N -0.7879(4) -0.2691(3) 0.20088(9)
N6P N -0.4811(3) -0.2121(4) 0.20088(9)
N6C_2 N -0.8522(3) -0.4546(4) 0.13245(9)
N6_2 N -0.6024(3) -0.1478(3) 0.13245(9)
C4Q C -0.9158(6) -0.3538(4) 0.2113(1)
N5Q N -0.7366(5) -0.1466(3) 0.2216(1)
N5P N -0.4099(4) -0.2634(5) 0.2216(1)
C4P C -0.4379(4) -0.0842(6) 0.2113(1)
N4Q N -0.9504(4) -0.2920(3) 0.23849(9)
H4Q H -0.978(7) -0.446(5) 0.205(1)
C3Q C -0.8357(6) -0.1635(4) 0.2442(1)
C3P C -0.3277(5) -0.1643(6) 0.2442(1)
N4P N -0.3415(3) -0.0496(4) 0.23849(9)
H4P H -0.467(5) -0.022(7) 0.205(1)
N3Q N -1.0749(4) -0.3530(3) 0.25777(8)
H3Q H -0.827(8) -0.097(5) 0.263(2)
H3P H -0.269(6) -0.173(8) 0.263(2)
N3P N -0.2780(3) 0.0749(4) 0.25777(8)
C1Q C -1.0976(6) -0.4178(4) 0.2914(1)
C2Q C -1.2029(6) -0.3818(4) 0.2446(1)
C1P C -0.3201(4) 0.0976(6) 0.2914(1)
C2P C -0.1788(4) 0.2029(6) 0.2446(1)
N1Q N -1.2307(4) -0.4800(3) 0.29868(8)
H1Q H -1.025(7) -0.415(5) 0.307(1)
N2Q N -1.2988(5) -0.4570(4) 0.26880(9)
H2Q H -1.213(7) -0.347(5) 0.221(1)
N1P N -0.2492(3) 0.2307(4) 0.29868(8)
H1P H -0.389(5) 0.025(7) 0.307(1)
H2P H -0.133(5) 0.213(7) 0.221(1)
N2P N -0.1581(3) 0.2988(5) 0.26880(9)
Fe1B Fe -1.3333 -0.6667 0.3333
Fe1B_2 Fe -0.3333 0.3333 0.3333
Cl1 Cl 0.6667 0.3333 0.15528(7)
O1 O 0.773(1) 0.316(1) 0.1670(2)
O2 O 0.6667 0.3333 0.1154(2)
O1C O 0.684(1) 0.457(1) 0.1670(2)
O1E O 0.543(1) 0.227(1) 0.1670(2)
Cl2 Cl 0.6667 0.3333 0.00201(6)
O3 O 0.6667 0.3333 -0.0352(4)
O4 O 0.5369(6) 0.3081(8) 0.0141(3)
O4C O 0.6919(8) 0.2288(10) 0.0141(3)
O4E O 0.7712(10) 0.4631(6) 0.0141(3)
loop_
_geom_bond_atom_site_label_1
_geom_bond_atom_site_label_2
_geom_bond_site_symmetry_1
_geom_bond_site_symmetry_2
Fe1 N1 1_555 1_555
N1 N2 1_555 1_555
N2 C2 1_555 1_555
C1 N1 1_555 1_555
C2 N3 1_555 1_555
N3 C1 1_555 1_555
H1 C1 1_555 1_555
H2 C2 1_555 1_555
N4 N3 1_555 1_555
C3 N4 1_555 1_555
C4 N4 1_555 1_555
N5 C3 1_555 1_555
H3 C3 1_555 1_555
N6 C4 1_555 1_555
H4 C4 1_555 1_555
Fe2 N6 1_555 1_555
Cl1 O1 1_555 1_555
O2 Cl1 1_555 1_555
Cl2 O3 1_555 1_555
O4 Cl2 1_555 1_555
N1C Fe1 1_555 1_555
N1E Fe1 1_555 1_555
N1I Fe1 1_555 1_555
N1L Fe1 1_555 1_555
N1N Fe1 1_555 1_555
N2C N1C 1_555 1_555
C1C N1C 1_555 1_555
C1E N1E 1_555 1_555
N2E N1E 1_555 1_555
N2I N1I 1_555 1_555
C1I N1I 1_555 1_555
C2C N2C 1_555 1_555
N3C C1C 1_555 1_555
H1C C1C 1_555 1_555
N3E C1E 1_555 1_555
H1E C1E 1_555 1_555
C2E N2E 1_555 1_555
C2I N2I 1_555 1_555
N3I C1I 1_555 1_555
H1I C1I 1_555 1_555
H2C C2C 1_555 1_555
N4C N3C 1_555 1_555
N4E N3E 1_555 1_555
H2E C2E 1_555 1_555
H2I C2I 1_555 1_555
N4I N3I 1_555 1_555
C3C N4C 1_555 1_555
C4C N4C 1_555 1_555
C4E N4E 1_555 1_555
C3E N4E 1_555 1_555
C3I N4I 1_555 1_555
C4I N4I 1_555 1_555
N5C C3C 1_555 1_555
H3C C3C 1_555 1_555
N6C C4C 1_555 1_555
H4C C4C 1_555 1_555
N6E C4E 1_555 1_555
H4E C4E 1_555 1_555
N5E C3E 1_555 1_555
H3E C3E 1_555 1_555
N5I C3I 1_555 1_555
H3I C3I 1_555 1_555
N6I C4I 1_555 1_555
H4I C4I 1_555 1_555
Fe2_2 N6C 1_555 1_555
Fe2_3 N6E 1_555 1_555
Fe2A N6I 1_555 1_555
N6J Fe2_3 1_555 1_555
N6Q Fe2_3 1_555 1_555
N6P Fe2_3 1_555 1_555
N6C_2 Fe2_3 1_555 1_555
N6_2 Fe2_3 1_555 1_555
C4Q N6Q 1_555 1_555
N5Q N6Q 1_555 1_555
N5P N6P 1_555 1_555
C4P N6P 1_555 1_555
N4Q C4Q 1_555 1_555
H4Q C4Q 1_555 1_555
C3Q N5Q 1_555 1_555
C3P N5P 1_555 1_555
N4P C4P 1_555 1_555
H4P C4P 1_555 1_555
N3Q N4Q 1_555 1_555
H3Q C3Q 1_555 1_555
H3P C3P 1_555 1_555
N3P N4P 1_555 1_555
C1Q N3Q 1_555 1_555
C2Q N3Q 1_555 1_555
C1P N3P 1_555 1_555
C2P N3P 1_555 1_555
N1Q C1Q 1_555 1_555
H1Q C1Q 1_555 1_555
N2Q C2Q 1_555 1_555
H2Q C2Q 1_555 1_555
N1P C1P 1_555 1_555
H1P C1P 1_555 1_555
H2P C2P 1_555 1_555
N2P C2P 1_555 1_555
Fe1B N1Q 1_555 1_555
Fe1B_2 N1P 1_555 1_555
O1C Cl1 1_555 1_555
O1E Cl1 1_555 1_555
O4C Cl2 1_555 1_555
O4E Cl2 1_555 1_555
N5 N6 1_555 1_555
C2C N3C 1_555 1_555
N3E C2E 1_555 1_555
C2I N3I 1_555 1_555
N5C N6C 1_555 1_555
N6E N5E 1_555 1_555
N5I N6I 1_555 1_555
N4Q C3Q 1_555 1_555
C3P N4P 1_555 1_555
N1Q N2Q 1_555 1_555
N1P N2P 1_555 1_555

#END
