
#######################################################################
#
#                 Cambridge Crystallographic Data Centre
#                                CCDC 
#
#######################################################################
#
# If this CIF has been generated from an entry in the Cambridge 
# Structural Database, then it will include bibliographic, chemical, 
# crystal, experimental, refinement or atomic coordinate data resulting 
# from the CCDC's data processing and validation procedures.
#
#######################################################################

data_KUGCOF
_chemical_formula_moiety         '(C4 Cd1 Cu4 N4 O12 S4 2-)n'
_symmetry_cell_setting           orthorhombic
_symmetry_space_group_name_H-M   'P b a n'
_symmetry_Int_Tables_number      50
_space_group_name_Hall           '-P 2ab 2b'
loop_
_symmetry_equiv_pos_site_id
_symmetry_equiv_pos_as_xyz
1 x,y,z
2 1/2-x,1/2-y,z
3 x,1/2-y,-z
4 1/2-x,y,-z
5 -x,-y,-z
6 1/2+x,1/2+y,-z
7 -x,1/2+y,z
8 1/2+x,-y,z
_cell_length_a                   10.318(5)
_cell_length_b                   10.981(5)
_cell_length_c                   7.066(3)
_cell_angle_alpha                90
_cell_angle_beta                 90
_cell_angle_gamma                90
_cell_volume                     800.592
loop_
_atom_site_label
_atom_site_type_symbol
_atom_site_fract_x
_atom_site_fract_y
_atom_site_fract_z
C1 C 0.2512(10) -0.3196(6) -0.1747(11)
N1 N 0.1689(10) -0.3570(9) 0.0077(19)
C1A C 0.2488(10) -0.1804(6) -0.1747(11)
C1B C 0.2512(10) -0.1804(6) 0.1747(11)
C1C C 0.2488(10) -0.3196(6) 0.1747(11)
N1A N 0.3311(10) -0.1430(9) 0.0077(19)
N1C N 0.3311(10) -0.3570(9) -0.0077(19)
N1B N 0.1689(10) -0.1430(9) -0.0077(19)
Cd1 Cd 0.2500 0.2500 0.0000
Cu1 Cu -0.09834(8) -0.10849(7) -0.38541(10)
S1 S 0.09606(14) 0.11115(13) -0.30972(19)
O1 O 0.0544(4) 0.2314(4) -0.2225(6)
O2 O 0.2290(4) 0.0916(4) -0.2201(6)
O3 O 0.0098(5) 0.0146(4) -0.2272(5)
Cu1E Cu 0.40166(8) 0.39151(7) -0.61459(10)
Cu1F Cu 0.09834(8) 0.39151(7) 0.61459(10)
Cu1G Cu 0.40166(8) 0.10849(7) 0.61459(10)
Cu1F_2 Cu 0.09834(8) 0.39151(7) -0.38541(10)
Cu1G_2 Cu 0.40166(8) 0.10849(7) -0.38541(10)
Cu1D Cu 0.09834(8) 0.10849(7) -0.61459(10)
Cu1A Cu 0.59834(8) 0.60849(7) -0.38541(10)
Cu1D_2 Cu 0.09834(8) 0.10849(7) 0.38541(10)
Cu1E_2 Cu 0.40166(8) 0.39151(7) 0.38541(10)
Cu1B Cu -0.09834(8) 0.60849(7) 0.38541(10)
Cu1C Cu 0.59834(8) -0.10849(7) 0.38541(10)
S1A S 0.40394(14) 0.38885(13) -0.30972(19)
S1B S 0.09606(14) 0.38885(13) 0.30972(19)
S1C S 0.40394(14) 0.11115(13) 0.30972(19)
S1D S -0.09606(14) -0.11115(13) -0.69028(19)
S1E S 0.59606(14) 0.61115(13) -0.69028(19)
S1F S -0.09606(14) 0.61115(13) 0.69028(19)
S1G S 0.59606(14) -0.11115(13) 0.69028(19)
O1A O 0.4456(4) 0.2686(4) -0.2225(6)
O1B O 0.0544(4) 0.2686(4) 0.2225(6)
O1C O 0.4456(4) 0.2314(4) 0.2225(6)
O1F O -0.0544(4) -0.2686(4) -0.2225(6)
O1G O 0.5544(4) 0.7686(4) -0.2225(6)
O1D O -0.0544(4) 0.7686(4) 0.2225(6)
O1E O 0.5544(4) -0.2686(4) 0.2225(6)
O2A O 0.2710(4) 0.4084(4) -0.2201(6)
O2B O 0.2290(4) 0.4084(4) 0.2201(6)
O2C O 0.2710(4) 0.0916(4) 0.2201(6)
O2G O -0.2710(4) -0.0916(4) -0.2201(6)
O2F O 0.7710(4) 0.5916(4) -0.2201(6)
O2E O -0.2710(4) 0.5916(4) 0.2201(6)
O2D O 0.7710(4) -0.0916(4) 0.2201(6)
O3A O 0.4902(5) 0.4854(4) -0.2272(5)
O3B O 0.0098(5) 0.4854(4) 0.2272(5)
O3C O 0.4902(5) 0.0146(4) 0.2272(5)
loop_
_geom_bond_atom_site_label_1
_geom_bond_atom_site_label_2
_geom_bond_site_symmetry_1
_geom_bond_site_symmetry_2
Cd1 O1 1_555 1_555
Cu1 O3 1_555 1_555
S1 O1 1_555 1_555
O1 Cu1F_2 1_555 1_555
O2 Cd1 1_555 1_555
O3 S1 1_555 1_555
C1 N1 1_555 1_555
N1 C1C 1_555 1_555
Cu1E S1A 1_555 1_555
Cu1F S1B 1_555 1_555
Cu1G S1C 1_555 1_555
Cu1F_2 O2A 1_555 1_555
Cu1G_2 O2 1_555 1_555
Cu1D S1 1_555 1_555
Cu1A S1E 1_555 1_555
Cu1D_2 O1B 1_555 1_555
Cu1E_2 O1C 1_555 1_555
Cu1B S1F 1_555 1_555
Cu1C S1G 1_555 1_555
S1A O1A 1_555 1_555
S1B O1B 1_555 1_555
S1C O1C 1_555 1_555
S1D Cu1 1_555 1_555
O1A Cd1 1_555 1_555
O1B Cd1 1_555 1_555
O1C Cd1 1_555 1_555
O1F Cu1 1_555 1_555
O1G Cu1A 1_555 1_555
O1D Cu1B 1_555 1_555
O1E Cu1C 1_555 1_555
O2A Cd1 1_555 1_555
O2B Cd1 1_555 1_555
O2C Cd1 1_555 1_555
O2G Cu1 1_555 1_555
O2F Cu1A 1_555 1_555
O2E Cu1B 1_555 1_555
O2D Cu1C 1_555 1_555
O3A Cu1A 1_555 1_555
O3B Cu1B 1_555 1_555
O3C Cu1C 1_555 1_555
C1A C1 1_555 1_555
C1B C1C 1_555 1_555
C1C N1C 1_555 1_555
N1A C1A 1_555 1_555
N1C C1 1_555 1_555
N1B C1A 1_555 1_555
S1 O2 1_555 1_555
N1 N1C 1_555 1_555
Cu1G_2 O1A 1_555 1_555
Cu1D_2 O2C 1_555 1_555
Cu1E_2 O2B 1_555 1_555
S1A O2A 1_555 1_555
S1A O3A 1_555 1_555
S1B O2B 1_555 1_555
S1B O3B 1_555 1_555
S1C O2C 1_555 1_555
S1C O3C 1_555 1_555
C1B N1A 1_555 1_555
C1B N1B 1_555 1_555
N1A N1B 1_555 1_555

#END
