
#######################################################################
#
#                 Cambridge Crystallographic Data Centre
#                                CCDC 
#
#######################################################################
#
# If this CIF has been generated from an entry in the Cambridge 
# Structural Database, then it will include bibliographic, chemical, 
# crystal, experimental, refinement or atomic coordinate data resulting 
# from the CCDC's data processing and validation procedures.
#
#######################################################################

data_CUCTAX
_chemical_formula_moiety         '(C60 H46 N6 O18 Zn3)n'
_symmetry_cell_setting           monoclinic
_symmetry_space_group_name_H-M   'C 2/c'
_symmetry_Int_Tables_number      15
_space_group_name_Hall           '-C 2yc'
loop_
_symmetry_equiv_pos_site_id
_symmetry_equiv_pos_as_xyz
1 x,y,z
2 -x,y,1/2-z
3 1/2+x,1/2+y,z
4 1/2-x,1/2+y,1/2-z
5 -x,-y,-z
6 x,-y,1/2+z
7 1/2-x,1/2-y,-z
8 1/2+x,1/2-y,1/2+z
_cell_length_a                   28.654(3)
_cell_length_b                   15.0332(16)
_cell_length_c                   16.5899(18)
_cell_angle_alpha                90
_cell_angle_beta                 119.904(2)
_cell_angle_gamma                90
_cell_volume                     6194.84
loop_
_atom_site_label
_atom_site_type_symbol
_atom_site_fract_x
_atom_site_fract_y
_atom_site_fract_z
Zn1 Zn 0.36124(3) 0.19766(5) 0.68724(5)
Zn2 Zn 0.5000 0.28606(6) 0.2500
N1 N 0.29134(19) 0.1279(3) 0.6242(3)
N2 N 0.4125(2) 0.1278(3) 0.8008(4)
N3 N 0.05958(19) -0.1286(3) 0.3381(3)
O1 O 0.4817(3) 0.2720(5) 0.3843(5)
O2 O 0.4472(2) 0.2001(4) 0.2553(5)
O3 O 0.1513(2) 0.1788(3) 0.2996(4)
O4 O 0.1871(3) 0.2149(4) 0.2138(5)
O5 O 0.28033(16) 0.0970(3) 0.3877(3)
O6 O 0.3802(2) 0.2079(3) 0.5880(3)
O7 O 0.3845(2) 0.0616(3) 0.5781(3)
C1 C 0.4469(4) 0.2198(6) 0.3271(8)
C2 C 0.4033(3) 0.1855(4) 0.3432(6)
C3 C 0.3555(3) 0.1591(5) 0.2695(5)
H1 H 0.3509 0.1605 0.2099
C4 C 0.3135(3) 0.1302(5) 0.2822(5)
H2 H 0.2804 0.1155 0.2312
C5 C 0.3213(2) 0.1235(4) 0.3707(4)
C6 C 0.3692(2) 0.1487(4) 0.4466(4)
C7 C 0.4090(3) 0.1834(4) 0.4308(5)
H3 H 0.4403 0.2057 0.4807
C8 C 0.3790(2) 0.1366(4) 0.5445(4)
C9 C 0.2432(3) 0.0353(4) 0.3240(5)
C10 C 0.2583(4) -0.0530(5) 0.3282(6)
H4 H 0.2930 -0.0702 0.3724
C11 C 0.2239(5) -0.1139(5) 0.2699(8)
H5 H 0.2351 -0.1722 0.2708
C12 C 0.1691(4) -0.0871(6) 0.2053(7)
H6 H 0.1440 -0.1292 0.1669
C13 C 0.1541(3) 0.0006(5) 0.2009(5)
H7 H 0.1191 0.0181 0.1585
C14 C 0.1915(2) 0.0634(4) 0.2601(4)
C15 C 0.1760(2) 0.1592(4) 0.2568(4)
C16 C 0.2927(3) 0.0382(4) 0.6185(5)
H8 H 0.3257 0.0094 0.6518
C17 C 0.2475(3) -0.0119(4) 0.5654(5)
H9 H 0.2502 -0.0734 0.5636
C18 C 0.1979(2) 0.0290(4) 0.5146(4)
C19 C 0.1960(2) 0.1216(4) 0.5206(4)
H10 H 0.1633 0.1515 0.4877
C20 C 0.2427(3) 0.1681(4) 0.5755(4)
H11 H 0.2408 0.2296 0.5794
C21 C 0.1492(2) -0.0244(4) 0.4538(4)
C22 C 0.1391(4) -0.1067(6) 0.4847(6)
H12 H 0.1625 -0.1276 0.5444
C23 C 0.0938(3) -0.1552(6) 0.4241(6)
H13 H 0.0871 -0.2086 0.4446
C24 C 0.0678(3) -0.0512(6) 0.3099(6)
H14 H 0.0433 -0.0323 0.2500
C25 C 0.1123(3) 0.0045(6) 0.3662(6)
H15 H 0.1164 0.0593 0.3443
C26 C 0.4500(3) 0.0734(6) 0.8020(5)
H16 H 0.4526 0.0696 0.7484
C27 C 0.4847(3) 0.0228(6) 0.8776(5)
H17 H 0.5098 -0.0137 0.8742
C28 C 0.4821(2) 0.0266(4) 0.9587(4)
C29 C 0.4431(4) 0.0828(6) 0.9569(6)
H18 H 0.4393 0.0876 1.0092
C30 C 0.4095(4) 0.1323(6) 0.8772(6)
H19 H 0.3840 0.1698 0.8784
N2D N 0.5875(2) -0.1278(3) 1.1992(4)
C26D C 0.5500(3) -0.0734(6) 1.1980(5)
H16D H 0.5474 -0.0696 1.2516
C27D C 0.5153(3) -0.0228(6) 1.1224(5)
H17D H 0.4902 0.0137 1.1258
C28D C 0.5179(2) -0.0266(4) 1.0413(4)
C29D C 0.5569(4) -0.0828(6) 1.0431(6)
H18D H 0.5607 -0.0876 0.9908
C30D C 0.5905(4) -0.1323(6) 1.1228(6)
H19D H 0.6160 -0.1698 1.1216
Zn1A Zn 0.63876(3) 0.19766(5) -0.18724(5)
N1A N 0.70866(19) 0.1279(3) -0.1242(3)
N3A N 0.94042(19) -0.1286(3) 0.1619(3)
O1A O 0.5183(3) 0.2720(5) 0.1157(5)
O2A O 0.5528(2) 0.2001(4) 0.2447(5)
O3A O 0.8487(2) 0.1788(3) 0.2004(4)
O4A O 0.8129(3) 0.2149(4) 0.2862(5)
O5A O 0.71967(16) 0.0970(3) 0.1123(3)
O6A O 0.6198(2) 0.2079(3) -0.0880(3)
O7A O 0.6155(2) 0.0616(3) -0.0781(3)
C1A C 0.5531(4) 0.2198(6) 0.1729(8)
C2A C 0.5967(3) 0.1855(4) 0.1568(6)
C3A C 0.6445(3) 0.1591(5) 0.2305(5)
H1A H 0.6491 0.1605 0.2901
C4A C 0.6865(3) 0.1302(5) 0.2178(5)
H2A H 0.7196 0.1155 0.2688
C5A C 0.6787(2) 0.1235(4) 0.1293(4)
C6A C 0.6308(2) 0.1487(4) 0.0534(4)
C7A C 0.5910(3) 0.1834(4) 0.0692(5)
H3A H 0.5597 0.2057 0.0193
C8A C 0.6210(2) 0.1366(4) -0.0445(4)
C9A C 0.7568(3) 0.0353(4) 0.1760(5)
C10A C 0.7417(4) -0.0530(5) 0.1718(6)
H4A H 0.7070 -0.0702 0.1276
C11A C 0.7761(5) -0.1139(5) 0.2301(8)
H5A H 0.7649 -0.1722 0.2292
C12A C 0.8309(4) -0.0871(6) 0.2947(7)
H6A H 0.8560 -0.1292 0.3331
C13A C 0.8459(3) 0.0006(5) 0.2991(5)
H7A H 0.8809 0.0181 0.3415
C14A C 0.8085(2) 0.0634(4) 0.2399(4)
C15A C 0.8240(2) 0.1592(4) 0.2432(4)
C16A C 0.7073(3) 0.0382(4) -0.1185(5)
H8A H 0.6743 0.0094 -0.1518
C17A C 0.7525(3) -0.0119(4) -0.0654(5)
H9A H 0.7498 -0.0734 -0.0636
C18A C 0.8021(2) 0.0290(4) -0.0146(4)
C19A C 0.8040(2) 0.1216(4) -0.0206(4)
H10A H 0.8367 0.1515 0.0123
C20A C 0.7573(3) 0.1681(4) -0.0755(4)
H11A H 0.7592 0.2296 -0.0794
C21A C 0.8508(2) -0.0244(4) 0.0462(4)
C22A C 0.8609(4) -0.1067(6) 0.0153(6)
H12A H 0.8375 -0.1276 -0.0444
C23A C 0.9062(3) -0.1552(6) 0.0759(6)
H13A H 0.9129 -0.2086 0.0554
C24A C 0.9322(3) -0.0512(6) 0.1901(6)
H14A H 0.9567 -0.0323 0.2500
C25A C 0.8877(3) 0.0045(6) 0.1338(6)
H15A H 0.8836 0.0593 0.1557
Zn1D Zn 0.63876(3) -0.19766(5) 1.31276(5)
Zn1F Zn 0.13876(3) 0.30234(5) 0.31276(5)
Zn1G Zn 0.86124(3) 0.30234(5) 0.18724(5)
Zn2B Zn 0.0000 -0.21394(6) 0.2500
Zn2B_2 Zn 1.0000 -0.21394(6) 0.2500
N2A N 0.5875(2) 0.1278(3) -0.3008(4)
N3B N 0.55958(19) 0.3714(3) 0.3381(3)
N3C N 0.44042(19) 0.3714(3) 0.1619(3)
O3F O 0.3487(2) 0.3212(3) 0.7004(4)
O3G O 0.6513(2) 0.3212(3) -0.2004(4)
O8 O 0.3726(4) 0.1236(7) 0.0688(6)
O9 O 0.4956(6) 0.4090(10) 0.5187(11)
O10 O 0.4863(9) 0.3191(16) 0.6639(15)
O11 O 0.2258(14) 0.731(3) 0.517(3)
loop_
_geom_bond_atom_site_label_1
_geom_bond_atom_site_label_2
_geom_bond_site_symmetry_1
_geom_bond_site_symmetry_2
Zn1 N1 1_555 1_555
Zn2 O1 1_555 1_555
N1 C16 1_555 1_555
N2 Zn1 1_555 1_555
N3 C23 1_555 1_555
O1 C1 1_555 1_555
O2 Zn2 1_555 1_555
O3 C15 1_555 1_555
O4 C15 1_555 1_555
O5 C5 1_555 1_555
O6 Zn1 1_555 1_555
O7 C8 1_555 1_555
C1 O2 1_555 1_555
C2 C1 1_555 1_555
C3 C2 1_555 1_555
H1 C3 1_555 1_555
C4 C3 1_555 1_555
H2 C4 1_555 1_555
C5 C4 1_555 1_555
C6 C5 1_555 1_555
C7 C2 1_555 1_555
H3 C7 1_555 1_555
C8 O6 1_555 1_555
C9 O5 1_555 1_555
C10 C9 1_555 1_555
H4 C10 1_555 1_555
C11 C10 1_555 1_555
H5 C11 1_555 1_555
C12 C11 1_555 1_555
H6 C12 1_555 1_555
C13 C12 1_555 1_555
H7 C13 1_555 1_555
C14 C9 1_555 1_555
C15 C14 1_555 1_555
C16 H8 1_555 1_555
C17 C16 1_555 1_555
H9 C17 1_555 1_555
C18 C17 1_555 1_555
C19 C18 1_555 1_555
H10 C19 1_555 1_555
C20 N1 1_555 1_555
H11 C20 1_555 1_555
C21 C18 1_555 1_555
C22 C21 1_555 1_555
H12 C22 1_555 1_555
C23 C22 1_555 1_555
H13 C23 1_555 1_555
C24 N3 1_555 1_555
H14 C24 1_555 1_555
C25 C21 1_555 1_555
H15 C25 1_555 1_555
C26 N2 1_555 1_555
H16 C26 1_555 1_555
C27 C26 1_555 1_555
H17 C27 1_555 1_555
C28 C27 1_555 1_555
C29 C28 1_555 1_555
H18 C29 1_555 1_555
C30 N2 1_555 1_555
H19 C30 1_555 1_555
N2D C26D 1_555 1_555
C26D H16D 1_555 1_555
C27D C26D 1_555 1_555
H17D C27D 1_555 1_555
C28D C28 1_555 1_555
C29D C28D 1_555 1_555
H18D C29D 1_555 1_555
C30D N2D 1_555 1_555
H19D C30D 1_555 1_555
Zn1A N1A 1_555 1_555
N1A C16A 1_555 1_555
N3A C23A 1_555 1_555
O1A Zn2 1_555 1_555
O2A Zn2 1_555 1_555
O3A C15A 1_555 1_555
O4A C15A 1_555 1_555
O5A C5A 1_555 1_555
O6A Zn1A 1_555 1_555
O7A C8A 1_555 1_555
C1A O1A 1_555 1_555
C2A C1A 1_555 1_555
C3A C2A 1_555 1_555
H1A C3A 1_555 1_555
C4A C3A 1_555 1_555
H2A C4A 1_555 1_555
C5A C4A 1_555 1_555
C6A C5A 1_555 1_555
C7A C2A 1_555 1_555
H3A C7A 1_555 1_555
C8A O6A 1_555 1_555
C9A O5A 1_555 1_555
C10A C9A 1_555 1_555
H4A C10A 1_555 1_555
C11A C10A 1_555 1_555
H5A C11A 1_555 1_555
C12A C11A 1_555 1_555
H6A C12A 1_555 1_555
C13A C12A 1_555 1_555
H7A C13A 1_555 1_555
C14A C9A 1_555 1_555
C15A C14A 1_555 1_555
C16A H8A 1_555 1_555
C17A C16A 1_555 1_555
H9A C17A 1_555 1_555
C18A C17A 1_555 1_555
C19A C18A 1_555 1_555
H10A C19A 1_555 1_555
C20A N1A 1_555 1_555
H11A C20A 1_555 1_555
C21A C18A 1_555 1_555
C22A C21A 1_555 1_555
H12A C22A 1_555 1_555
C23A C22A 1_555 1_555
H13A C23A 1_555 1_555
C24A N3A 1_555 1_555
H14A C24A 1_555 1_555
C25A C21A 1_555 1_555
H15A C25A 1_555 1_555
Zn1D N2D 1_555 1_555
Zn1F O3 1_555 1_555
Zn1G O3A 1_555 1_555
Zn2B N3 1_555 1_555
Zn2B_2 N3A 1_555 1_555
N2A Zn1A 1_555 1_555
N3B Zn2 1_555 1_555
N3C Zn2 1_555 1_555
O3F Zn1 1_555 1_555
O3G Zn1A 1_555 1_555
C6 C7 1_555 1_555
C6 C8 1_555 1_555
C13 C14 1_555 1_555
C19 C20 1_555 1_555
C24 C25 1_555 1_555
C29 C30 1_555 1_555
C27D C28D 1_555 1_555
C29D C30D 1_555 1_555
O2A C1A 1_555 1_555
C6A C7A 1_555 1_555
C6A C8A 1_555 1_555
C13A C14A 1_555 1_555
C19A C20A 1_555 1_555
C24A C25A 1_555 1_555

#END
