
#######################################################################
#
#                 Cambridge Crystallographic Data Centre
#                                CCDC 
#
#######################################################################
#
# If this CIF has been generated from an entry in the Cambridge 
# Structural Database, then it will include bibliographic, chemical, 
# crystal, experimental, refinement or atomic coordinate data resulting 
# from the CCDC's data processing and validation procedures.
#
#######################################################################

data_KEGYAX
_chemical_formula_moiety         '(C12 H17 Ag3 O16)n'
_symmetry_cell_setting           triclinic
_symmetry_space_group_name_H-M   'P -1'
_symmetry_Int_Tables_number      2
_space_group_name_Hall           '-P 1'
loop_
_symmetry_equiv_pos_site_id
_symmetry_equiv_pos_as_xyz
1 x,y,z
2 -x,-y,-z
_cell_length_a                   6.3632(5)
_cell_length_b                   9.4906(7)
_cell_length_c                   15.1002(11)
_cell_angle_alpha                96.5750(10)
_cell_angle_beta                 93.0940(10)
_cell_angle_gamma                100.2210(10)
_cell_volume                     888.958
loop_
_atom_site_label
_atom_site_type_symbol
_atom_site_fract_x
_atom_site_fract_y
_atom_site_fract_z
Ag1 Ag 0.37523(8) 0.86020(6) 0.01251(3)
Ag2 Ag -0.13808(10) 1.41315(6) -0.57397(4)
Ag3 Ag 0.55490(9) 1.40954(6) -0.41613(5)
O1 O 0.1661(7) 0.9478(5) -0.0860(3)
O2 O 0.3535(6) 1.1598(4) -0.1100(3)
O3 O -0.1505(7) 1.1907(5) -0.1468(3)
O4 O -0.0695(8) 1.3754(4) -0.2250(3)
H1 H -0.178(12) 1.399(13) -0.201(8)
O5 O -0.1215(7) 1.2607(4) -0.4764(3)
O6 O 0.1607(7) 1.3750(5) -0.3866(3)
O7 O -0.4058(7) 1.1793(4) -0.3327(3)
O8 O -0.5698(6) 0.9744(4) -0.4073(3)
H2 H -0.549(14) 0.890(4) -0.423(6)
O9 O -0.4348(7) 0.7379(4) -0.4479(3)
O10 O -0.2493(7) 0.6237(4) -0.3601(3)
O11 O -0.4452(6) 0.8849(5) -0.2362(3)
O12 O -0.2454(7) 0.8818(5) -0.1144(3)
H3 H -0.114(4) 0.885(10) -0.100(6)
C1 C 0.1166(8) 1.0254(5) -0.2298(3)
H4 H 0.2302 0.9968 -0.2653
C2 C 0.0820(8) 1.1667(5) -0.2640(3)
H5 H 0.2224 1.2306 -0.2578
C3 C 0.0144(8) 1.1352(5) -0.3651(3)
H6 H 0.1326 1.0942 -0.3901
C4 C -0.1810(8) 1.0146(5) -0.3913(3)
H7 H -0.1858 0.9934 -0.4565
C5 C -0.1341(8) 0.8772(5) -0.3547(3)
H8 H -0.0005 0.8633 -0.3809
C6 C -0.0722(8) 0.8961(5) -0.2534(3)
H9 H -0.0143 0.8103 -0.2421
C7 C 0.2162(8) 1.0473(6) -0.1345(3)
C8 C -0.0617(9) 1.2429(6) -0.2070(3)
C9 C 0.0139(8) 1.2688(5) -0.4119(3)
C10 C -0.3935(8) 1.0632(5) -0.3716(3)
C11 C -0.2877(8) 0.7368(5) -0.3889(4)
C12 C -0.2688(9) 0.8923(5) -0.2004(3)
O13 O 0.1711(9) 0.6328(6) -0.0672(4)
H10 H 0.170(14) 0.638(9) -0.1230(14)
H11 H 0.223(19) 0.560(8) -0.055(5)
O14 O -0.2583(10) 1.3658(6) -0.7459(4)
H12 H -0.352(10) 1.291(6) -0.743(8)
H13 H -0.319(11) 1.433(6) -0.761(6)
Ag1A Ag 0.62477(8) 1.13980(6) -0.01251(3)
Ag1A_2 Ag -0.37523(8) 1.13980(6) -0.01251(3)
Ag2A Ag 0.13808(10) 1.58685(6) -0.42603(4)
Ag3A Ag -0.55490(9) 0.59046(6) -0.58387(5)
Ag3_2 Ag -0.44510(9) 0.40954(6) -0.41613(5)
O2A O 0.6465(6) 0.8402(4) 0.1100(3)
O3A O 0.1505(7) 0.8093(5) 0.1468(3)
O6A O -0.1607(7) 1.6250(5) -0.6134(3)
O9A O 0.4348(7) 1.2621(4) -0.5521(3)
O10_2 O 0.7507(7) 1.6237(4) -0.3601(3)
O15 O 0.2435(6) 0.3938(4) 0.0115(3)
H14 H 0.3092 0.3339 -0.0162
H15 H 0.1207 0.3550 0.0247
O16 O 0.4464(6) 0.5588(4) 0.1700(3)
H16 H 0.4180 0.5098 0.1187
H17 H 0.5140 0.6386 0.1580
loop_
_geom_bond_atom_site_label_1
_geom_bond_atom_site_label_2
_geom_bond_site_symmetry_1
_geom_bond_site_symmetry_2
Ag1 O1 1_555 1_555
Ag2 O5 1_555 1_555
Ag3 O6 1_555 1_555
O1 C7 1_555 1_555
O2 C7 1_555 1_555
O3 C8 1_555 1_555
O4 H1 1_555 1_555
O5 C9 1_555 1_555
O6 C9 1_555 1_555
O7 C10 1_555 1_555
O8 H2 1_555 1_555
O9 C11 1_555 1_555
O10 C11 1_555 1_555
O11 C12 1_555 1_555
O12 H3 1_555 1_555
C1 H4 1_555 1_555
C2 C1 1_555 1_555
H5 C2 1_555 1_555
C3 C2 1_555 1_555
H6 C3 1_555 1_555
C4 C3 1_555 1_555
H7 C4 1_555 1_555
C5 C4 1_555 1_555
H8 C5 1_555 1_555
C6 C1 1_555 1_555
H9 C6 1_555 1_555
C7 C1 1_555 1_555
C8 O4 1_555 1_555
C9 C3 1_555 1_555
C10 O8 1_555 1_555
C11 C5 1_555 1_555
C12 O12 1_555 1_555
O13 Ag1 1_555 1_555
H10 O13 1_555 1_555
H11 O13 1_555 1_555
O14 Ag2 1_555 1_555
H12 O14 1_555 1_555
H13 O14 1_555 1_555
O15 H14 1_555 1_555
H15 O15 1_555 1_555
O16 H16 1_555 1_555
H17 O16 1_555 1_555
Ag1A Ag1 1_555 1_555
Ag1A_2 O3 1_555 1_555
Ag2A Ag2 1_555 1_555
Ag3A O9 1_555 1_555
Ag3_2 O10 1_555 1_555
O2A Ag1 1_555 1_555
O3A Ag1 1_555 1_555
O6A Ag2 1_555 1_555
O9A Ag3 1_555 1_555
O10_2 Ag3 1_555 1_555
O2 Ag1A 1_555 1_555
O6 Ag2A 1_555 1_555
C2 C8 1_555 1_555
C4 C10 1_555 1_555
C5 C6 1_555 1_555
C6 C12 1_555 1_555

#END
