
#######################################################################
#
#                 Cambridge Crystallographic Data Centre
#                                CCDC 
#
#######################################################################
#
# If this CIF has been generated from an entry in the Cambridge 
# Structural Database, then it will include bibliographic, chemical, 
# crystal, experimental, refinement or atomic coordinate data resulting 
# from the CCDC's data processing and validation procedures.
#
#######################################################################

data_RESSAK
_chemical_formula_moiety         '(C36 H36 N4 Ni2 O15 S1)n'
_symmetry_cell_setting           monoclinic
_symmetry_space_group_name_H-M   'C 2'
_symmetry_Int_Tables_number      5
_space_group_name_Hall           'C 2y'
loop_
_symmetry_equiv_pos_site_id
_symmetry_equiv_pos_as_xyz
1 x,y,z
2 -x,y,-z
3 1/2+x,1/2+y,z
4 1/2-x,1/2+y,-z
_cell_length_a                   25.122(7)
_cell_length_b                   8.253(2)
_cell_length_c                   11.259(3)
_cell_angle_alpha                90
_cell_angle_beta                 108.145(8)
_cell_angle_gamma                90
_cell_volume                     2218.27
loop_
_atom_site_label
_atom_site_type_symbol
_atom_site_fract_x
_atom_site_fract_y
_atom_site_fract_z
Ni1 Ni 0.31378(2) 0.54981(6) 0.07006(5)
C1 C 0.35173(19) 0.1877(6) -0.0604(4)
C2 C 0.40087(19) 0.2772(6) -0.0010(4)
C3 C 0.4427(2) 0.2852(6) -0.0599(5)
C4 C 0.4368(2) 0.1978(7) -0.1699(5)
H1 H 0.4647 0.2023 -0.2082
C5 C 0.3907(2) 0.1073(6) -0.2199(4)
H2 H 0.3870 0.0498 -0.2931
C6 C 0.3486(2) 0.0979(6) -0.1644(5)
H3 H 0.3181 0.0300 -0.1981
C7 C 0.30331(19) 0.1867(6) -0.0078(4)
C8 C 0.4116(2) 0.3600(6) 0.1250(5)
C9 C 0.2667(2) 0.5035(6) -0.2118(5)
H4 H 0.2356 0.4630 -0.1932
C10 C 0.2672(2) 0.4974(6) -0.3321(5)
H5 H 0.2364 0.4567 -0.3943
C11 C 0.31379(18) 0.5518(9) -0.3625(4)
C12 C 0.3580(2) 0.6177(7) -0.2659(5)
H6 H 0.3896 0.6584 -0.2822
C13 C 0.3542(2) 0.6217(6) -0.1463(4)
H7 H 0.3839 0.6646 -0.0824
C14 C 0.3465(2) 0.6484(7) -0.6602(4)
H8 H 0.3673 0.7248 -0.6875
C15 C 0.3460(2) 0.6570(7) -0.5350(5)
H9 H 0.3648 0.7394 -0.4822
C16 C 0.3165(2) 0.5382(8) -0.4927(4)
C17 C 0.2887(2) 0.4263(7) -0.5739(5)
H10 H 0.2678 0.3479 -0.5490
C18 C 0.2911(2) 0.4267(6) -0.6959(4)
H11 H 0.2723 0.3457 -0.7503
N1 N 0.30928(17) 0.5659(6) -0.1186(3)
N2 N 0.31942(15) 0.5397(7) -0.7384(3)
O1 O 0.29581(15) 0.3036(4) 0.0536(3)
O2 O 0.27123(12) 0.0693(4) -0.0377(3)
O3 O 0.39911(14) 0.5057(4) 0.1285(3)
O4 O 0.43433(15) 0.2733(4) 0.2173(4)
O5 O 0.32848(15) 0.7950(4) 0.0845(3)
H12 H 0.3288 0.8321 0.0143
H13 H 0.3587 0.8127 0.1376
S1 S 0.5000 0.4199(2) 0.0000
Ni1_2 Ni 0.31378(2) 0.54981(6) 1.07006(5)
Ni1_3 Ni 0.31378(2) 0.54981(6) -0.92994(5)
Ni1C Ni 0.18622(2) 0.04981(6) -0.07006(5)
Ni1A Ni 0.68622(2) 0.54981(6) -0.07006(5)
Ni1B Ni 0.81378(2) 0.04981(6) 0.07006(5)
C1A C 0.64827(19) 0.1877(6) 0.0604(4)
C2A C 0.59913(19) 0.2772(6) 0.0010(4)
C3A C 0.5573(2) 0.2852(6) 0.0599(5)
C4A C 0.5632(2) 0.1978(7) 0.1699(5)
H1A H 0.5353 0.2023 0.2082
C5A C 0.6093(2) 0.1073(6) 0.2199(4)
H2A H 0.6130 0.0498 0.2931
C6A C 0.6514(2) 0.0979(6) 0.1644(5)
H3A H 0.6819 0.0300 0.1981
C7A C 0.69669(19) 0.1867(6) 0.0078(4)
C8A C 0.5884(2) 0.3600(6) -0.1250(5)
C9_2 C 0.2667(2) 0.5035(6) 0.7882(5)
H4_2 H 0.2356 0.4630 0.8068
C10_2 C 0.2672(2) 0.4974(6) 0.6679(5)
H5_2 H 0.2364 0.4567 0.6057
C11_2 C 0.31379(18) 0.5518(9) 0.6375(4)
C12_2 C 0.3580(2) 0.6177(7) 0.7341(5)
H6_2 H 0.3896 0.6584 0.7178
C13_2 C 0.3542(2) 0.6217(6) 0.8537(4)
H7_2 H 0.3839 0.6646 0.9176
C14_2 C 0.3465(2) 0.6484(7) 0.3398(4)
H8_2 H 0.3673 0.7248 0.3125
C15_2 C 0.3460(2) 0.6570(7) 0.4650(5)
H9_2 H 0.3648 0.7394 0.5178
C16_2 C 0.3165(2) 0.5382(8) 0.5073(4)
C17_2 C 0.2887(2) 0.4263(7) 0.4261(5)
H10_2 H 0.2678 0.3479 0.4510
C18_2 C 0.2911(2) 0.4267(6) 0.3041(4)
H11_2 H 0.2723 0.3457 0.2497
N1_2 N 0.30928(17) 0.5659(6) 0.8814(3)
N2_2 N 0.31942(15) 0.5397(7) 0.2616(3)
N2_3 N 0.31942(15) 0.5397(7) 1.2616(3)
O1A O 0.70419(15) 0.3036(4) -0.0536(3)
O1_2 O 0.29581(15) 0.3036(4) 1.0536(3)
O2A O 0.72877(12) 0.0693(4) 0.0377(3)
O2C O 0.22877(12) 0.5693(4) 0.0377(3)
O2C_2 O 0.22877(12) 0.5693(4) 1.0377(3)
O3A O 0.60089(14) 0.5057(4) -0.1285(3)
O3_2 O 0.39911(14) 0.5057(4) 1.1285(3)
O4A O 0.56567(15) 0.2733(4) -0.2173(4)
O5_2 O 0.32848(15) 0.7950(4) 1.0845(3)
H12_2 H 0.3288 0.8321 1.0143
H13_2 H 0.3587 0.8127 1.1376
O6 O 0.4311(3) 0.9429(7) 0.1875(6)
H14 H 0.4309 1.0064 0.2468
H15 H 0.4467 0.9897 0.1397
O7 O 0.5000 0.8491(8) 1.0000
H16 H 0.4818 0.8734 1.0496
H16A H 0.5182 0.8734 0.9504
O8 O 0.4306(3) 0.2446(9) 0.4689(7)
H18 H 0.4041 0.2437 0.5010
H19 H 0.4256 0.1691 0.4152
O9 O 0.4466(3) 0.9515(9) 0.5317(7)
H20 H 0.4181 1.0113 0.5008
H21 H 0.4725 0.9832 0.5034
O10 O 0.5096(3) 0.5741(11) 0.3544(6)
H22 H 0.4919 0.6567 0.3170
H23 H 0.5353 0.6042 0.4197
loop_
_geom_bond_atom_site_label_1
_geom_bond_atom_site_label_2
_geom_bond_site_symmetry_1
_geom_bond_site_symmetry_2
Ni1 N1 1_555 1_555
C1 C2 1_555 1_555
C2 C3 1_555 1_555
C3 C4 1_555 1_555
C4 H1 1_555 1_555
C5 C4 1_555 1_555
H2 C5 1_555 1_555
C6 C1 1_555 1_555
H3 C6 1_555 1_555
C7 C1 1_555 1_555
C8 C2 1_555 1_555
C9 H4 1_555 1_555
C10 C9 1_555 1_555
H5 C10 1_555 1_555
C11 C10 1_555 1_555
C12 C11 1_555 1_555
H6 C12 1_555 1_555
C13 C12 1_555 1_555
H7 C13 1_555 1_555
C14 H8 1_555 1_555
C15 C14 1_555 1_555
H9 C15 1_555 1_555
C16 C11 1_555 1_555
C17 C16 1_555 1_555
H10 C17 1_555 1_555
C18 C17 1_555 1_555
H11 C18 1_555 1_555
N1 C9 1_555 1_555
N2 C14 1_555 1_555
O1 Ni1 1_555 1_555
O2 C7 1_555 1_555
O3 Ni1 1_555 1_555
O4 C8 1_555 1_555
O5 Ni1 1_555 1_555
H12 O5 1_555 1_555
H13 O5 1_555 1_555
O6 H14 1_555 1_555
H15 O6 1_555 1_555
O7 H16 1_555 1_555
O8 H18 1_555 1_555
H19 O8 1_555 1_555
O9 H20 1_555 1_555
H21 O9 1_555 1_555
O10 H22 1_555 1_555
H23 O10 1_555 1_555
S1 C3 1_555 1_555
Ni1_2 N1_2 1_555 1_555
Ni1_3 N2 1_555 1_555
Ni1C O2 1_555 1_555
Ni1A O1A 1_555 1_555
Ni1B O2A 1_555 1_555
C1A C2A 1_555 1_555
C2A C3A 1_555 1_555
C3A S1 1_555 1_555
C4A C3A 1_555 1_555
H1A C4A 1_555 1_555
C5A C4A 1_555 1_555
H2A C5A 1_555 1_555
C6A C1A 1_555 1_555
H3A C6A 1_555 1_555
C7A C1A 1_555 1_555
C8A C2A 1_555 1_555
C9_2 H4_2 1_555 1_555
C10_2 C9_2 1_555 1_555
H5_2 C10_2 1_555 1_555
C11_2 C10_2 1_555 1_555
C12_2 C11_2 1_555 1_555
H6_2 C12_2 1_555 1_555
C13_2 C12_2 1_555 1_555
H7_2 C13_2 1_555 1_555
C14_2 H8_2 1_555 1_555
C15_2 C14_2 1_555 1_555
H9_2 C15_2 1_555 1_555
C16_2 C11_2 1_555 1_555
C17_2 C16_2 1_555 1_555
H10_2 C17_2 1_555 1_555
C18_2 C17_2 1_555 1_555
H11_2 C18_2 1_555 1_555
N1_2 C9_2 1_555 1_555
N2_2 Ni1 1_555 1_555
N2_3 Ni1_2 1_555 1_555
O1A C7A 1_555 1_555
O1_2 Ni1_2 1_555 1_555
O2A C7A 1_555 1_555
O2C Ni1 1_555 1_555
O2C_2 Ni1_2 1_555 1_555
O3A Ni1A 1_555 1_555
O3_2 Ni1_2 1_555 1_555
O4A C8A 1_555 1_555
O5_2 Ni1_2 1_555 1_555
H12_2 O5_2 1_555 1_555
H13_2 O5_2 1_555 1_555
H16A O7 1_555 1_555
C5 C6 1_555 1_555
C7 O1 1_555 1_555
C8 O3 1_555 1_555
C13 N1 1_555 1_555
C15 C16 1_555 1_555
C18 N2 1_555 1_555
C5A C6A 1_555 1_555
C8A O3A 1_555 1_555
C13_2 N1_2 1_555 1_555
C14_2 N2_2 1_555 1_555
C15_2 C16_2 1_555 1_555
C18_2 N2_2 1_555 1_555

#END
