
#######################################################################
#
#                 Cambridge Crystallographic Data Centre
#                                CCDC 
#
#######################################################################
#
# If this CIF has been generated from an entry in the Cambridge 
# Structural Database, then it will include bibliographic, chemical, 
# crystal, experimental, refinement or atomic coordinate data resulting 
# from the CCDC's data processing and validation procedures.
#
#######################################################################

data_WEMNAF
_chemical_formula_moiety         '(C28 H38 N18 O18 S2 Zn3)n'
_symmetry_cell_setting           triclinic
_symmetry_space_group_name_H-M   'P -1'
_symmetry_Int_Tables_number      2
_space_group_name_Hall           '-P 1'
loop_
_symmetry_equiv_pos_site_id
_symmetry_equiv_pos_as_xyz
1 x,y,z
2 -x,-y,-z
_cell_length_a                   8.9100(4)
_cell_length_b                   12.0070(5)
_cell_length_c                   12.5260(5)
_cell_angle_alpha                77.708(4)
_cell_angle_beta                 76.629(4)
_cell_angle_gamma                76.378(4)
_cell_volume                     1249.15
loop_
_atom_site_label
_atom_site_type_symbol
_atom_site_fract_x
_atom_site_fract_y
_atom_site_fract_z
Zn1 Zn -0.28638(6) -0.74675(4) 1.09607(4)
Zn2 Zn 0.0000 -1.0000 1.0000
S1 S 0.05323(13) -0.79980(10) 1.14001(9)
C1 C 0.0017(5) -0.4901(4) 0.6092(3)
C2 C 0.0870(5) -0.5897(4) 0.5654(3)
C3 C -0.0831(5) -0.3995(3) 0.5431(3)
C4 C 0.0018(5) -0.4813(4) 0.7281(3)
H1 H -0.0204 -0.4001 0.7359
H2 H 0.1053 -0.5160 0.7451
C5 C -0.1083(6) -0.5946(4) 0.9102(4)
H3 H -0.0232 -0.6047 0.9449
C6 C -0.3269(6) -0.5967(5) 0.8745(4)
H4 H -0.4272 -0.6112 0.8822
C7 C 0.1870(5) -0.6845(4) 0.6345(4)
H5 H 0.2337 -0.6493 0.6783
H6 H 0.2716 -0.7264 0.5852
C8 C 0.1193(6) -0.8278(4) 0.8058(4)
H7 H 0.1989 -0.8235 0.8406
C9 C -0.0723(8) -0.8724(5) 0.7694(5)
H8 H -0.1572 -0.9074 0.7755
C10 C -0.1698(5) -0.2883(4) 0.5869(4)
H9 H -0.1099 -0.2709 0.6348
H10 H -0.1765 -0.2246 0.5247
C11 C -0.3942(5) -0.2758(4) 0.7513(4)
H11 H -0.3444 -0.2542 0.7991
C12 C -0.5595(6) -0.3218(5) 0.6812(4)
H12 H -0.6529 -0.3385 0.6734
C13 C -0.3853(5) -0.8974(4) 1.0282(3)
C14 C -0.4281(5) -0.9996(4) 1.0035(4)
H13 H -0.3504 -1.0652 0.9925
N1 N -0.2420(5) -0.6328(3) 0.9564(3)
N2 N -0.1161(4) -0.5403(3) 0.8077(3)
N3 N -0.2564(6) -0.5398(4) 0.7838(4)
N4 N 0.0159(4) -0.8963(3) 0.8470(3)
N5 N 0.0944(4) -0.7666(3) 0.7092(3)
N6 N -0.0284(6) -0.7943(4) 0.6827(4)
N7 N -0.5418(4) -0.2907(3) 0.7747(3)
N8 N -0.3286(4) -0.2962(3) 0.6495(3)
N9 N -0.4337(5) -0.3262(4) 0.6028(3)
O1 O -0.1183(4) -0.7607(4) 1.1797(3)
O2 O 0.0732(4) -0.8686(3) 1.0526(2)
O3 O 0.1251(4) -0.6989(3) 1.0955(3)
O4 O 0.1217(5) -0.8686(4) 1.2337(3)
O5 O -0.2486(4) -0.9086(3) 1.0526(3)
O6 O -0.4786(4) -0.8028(3) 1.0287(3)
Zn1A Zn 0.28638(6) -0.25325(4) -0.09607(4)
Zn1A_2 Zn -0.71362(6) -0.25325(4) 0.90393(4)
Zn1_2 Zn 0.71362(6) -0.74675(4) 0.09607(4)
Zn1A_3 Zn -0.71362(6) -1.25325(4) 0.90393(4)
Zn1A_4 Zn 0.28638(6) -1.25325(4) 0.90393(4)
Zn2_2 Zn 0.0000 0.0000 0.0000
Zn2_3 Zn -1.0000 -1.0000 1.0000
S1A S -0.05323(13) -1.20020(10) 0.85999(9)
C1A C -0.0017(5) -0.5099(4) 0.3908(3)
C2A C -0.0870(5) -0.4103(4) 0.4346(3)
C3A C 0.0831(5) -0.6005(3) 0.4569(3)
C4A C -0.0018(5) -0.5187(4) 0.2719(3)
H1A H 0.0204 -0.5999 0.2641
H2A H -0.1053 -0.4840 0.2549
C5A C 0.1083(6) -0.4054(4) 0.0898(4)
H3A H 0.0232 -0.3953 0.0551
C6A C 0.3269(6) -0.4033(5) 0.1255(4)
H4A H 0.4272 -0.3888 0.1178
C7A C -0.1870(5) -0.3155(4) 0.3655(4)
H5A H -0.2337 -0.3507 0.3217
H6A H -0.2716 -0.2736 0.4148
C8A C -0.1193(6) -0.1722(4) 0.1942(4)
H7A H -0.1989 -0.1765 0.1594
C9A C 0.0723(8) -0.1276(5) 0.2306(5)
H8A H 0.1572 -0.0926 0.2245
C10A C 0.1698(5) -0.7117(4) 0.4131(4)
H9A H 0.1099 -0.7291 0.3652
H10A H 0.1765 -0.7754 0.4753
C11A C 0.3942(5) -0.7242(4) 0.2487(4)
H11A H 0.3444 -0.7458 0.2009
C12A C 0.5595(6) -0.6782(5) 0.3188(4)
H12A H 0.6529 -0.6615 0.3266
C13A C -0.6147(5) -1.1026(4) 0.9718(3)
C14A C -0.5719(5) -1.0004(4) 0.9965(4)
H13A H -0.6496 -0.9348 1.0075
N1A N 0.2420(5) -0.3672(3) 0.0436(3)
N2A N 0.1161(4) -0.4597(3) 0.1923(3)
N3A N 0.2564(6) -0.4602(4) 0.2162(4)
N4A N -0.0159(4) -0.1037(3) 0.1530(3)
N4A_2 N -0.0159(4) -1.1037(3) 1.1530(3)
N5A N -0.0944(4) -0.2334(3) 0.2908(3)
N6A N 0.0284(6) -0.2057(4) 0.3173(4)
N7A N 0.5418(4) -0.7093(3) 0.2253(3)
N7A_2 N -0.4582(4) -0.7093(3) 1.2253(3)
N7_2 N 0.4582(4) -0.2907(3) -0.2253(3)
N8A N 0.3286(4) -0.7038(3) 0.3505(3)
N9A N 0.4337(5) -0.6738(4) 0.3972(3)
O1A O 0.1183(4) -1.2393(4) 0.8203(3)
O1A_2 O 0.1183(4) -0.2393(4) -0.1797(3)
O2A O -0.0732(4) -1.1314(3) 0.9474(2)
O3A O -0.1251(4) -1.3011(3) 0.9045(3)
O4A O -0.1217(5) -1.1314(4) 0.7663(3)
O5A O -0.7514(4) -1.0914(3) 0.9474(3)
O5A_2 O 0.2486(4) -1.0914(3) 0.9474(3)
O5A_3 O 0.2486(4) -0.0914(3) -0.0526(3)
O6A O -0.5214(4) -1.1972(3) 0.9713(3)
O7 O -0.2949(6) -0.3587(5) 0.1256(4)
O8 O -0.5179(9) -0.2161(8) 0.2634(7)
O9 O 0.1063(10) -0.0758(9) -0.4323(6)
O10 O -0.7522(14) -0.2848(11) 0.4711(9)
O11 O -0.6095(18) -0.0032(10) 0.3176(14)
O12 O -0.3526(16) -0.0315(10) 0.4281(13)
loop_
_geom_bond_atom_site_label_1
_geom_bond_atom_site_label_2
_geom_bond_site_symmetry_1
_geom_bond_site_symmetry_2
Zn1 N1 1_555 1_555
Zn2 N4 1_555 1_555
S1 O1 1_555 1_555
C1 C2 1_555 1_555
C2 C7 1_555 1_555
C3 C1 1_555 1_555
C4 C1 1_555 1_555
H1 C4 1_555 1_555
H2 C4 1_555 1_555
C5 H3 1_555 1_555
C6 H4 1_555 1_555
C7 H5 1_555 1_555
H6 C7 1_555 1_555
C8 H7 1_555 1_555
C9 H8 1_555 1_555
C10 C3 1_555 1_555
H9 C10 1_555 1_555
H10 C10 1_555 1_555
C11 H11 1_555 1_555
C12 H12 1_555 1_555
C13 C14 1_555 1_555
C14 H13 1_555 1_555
N1 C5 1_555 1_555
N2 C4 1_555 1_555
N3 C6 1_555 1_555
N4 C8 1_555 1_555
N5 C7 1_555 1_555
N6 C9 1_555 1_555
N7 C11 1_555 1_555
N8 C10 1_555 1_555
N9 C12 1_555 1_555
O1 Zn1 1_555 1_555
O2 Zn2 1_555 1_555
O3 S1 1_555 1_555
O4 S1 1_555 1_555
O5 Zn1 1_555 1_555
O6 C13 1_555 1_555
Zn1A N1A 1_555 1_555
Zn1A_2 N7 1_555 1_555
Zn1_2 N7A 1_555 1_555
Zn1A_3 O5A 1_555 1_555
Zn1A_4 O1A 1_555 1_555
Zn2_2 N4A 1_555 1_555
Zn2_3 O5A 1_555 1_555
S1A O1A 1_555 1_555
C1A C2A 1_555 1_555
C2A C3 1_555 1_555
C3A C2 1_555 1_555
C4A C1A 1_555 1_555
H1A C4A 1_555 1_555
H2A C4A 1_555 1_555
C5A H3A 1_555 1_555
C6A H4A 1_555 1_555
C7A C2A 1_555 1_555
H5A C7A 1_555 1_555
H6A C7A 1_555 1_555
C8A H7A 1_555 1_555
C9A H8A 1_555 1_555
C10A C3A 1_555 1_555
H9A C10A 1_555 1_555
H10A C10A 1_555 1_555
C11A H11A 1_555 1_555
C12A H12A 1_555 1_555
C13A C14A 1_555 1_555
C14A C14 1_555 1_555
H13A C14A 1_555 1_555
N1A C5A 1_555 1_555
N2A C4A 1_555 1_555
N3A C6A 1_555 1_555
N4A C8A 1_555 1_555
N4A_2 Zn2 1_555 1_555
N5A C7A 1_555 1_555
N6A C9A 1_555 1_555
N7A C11A 1_555 1_555
N7A_2 Zn1 1_555 1_555
N7_2 Zn1A 1_555 1_555
N8A C10A 1_555 1_555
N9A C12A 1_555 1_555
O1A_2 Zn1A 1_555 1_555
O2A Zn2 1_555 1_555
O3A S1A 1_555 1_555
O4A S1A 1_555 1_555
O5A C13A 1_555 1_555
O5A_2 Zn2 1_555 1_555
O5A_3 Zn1A 1_555 1_555
O6A C13A 1_555 1_555
Zn2 O5 1_555 1_555
S1 O2 1_555 1_555
C5 N2 1_555 1_555
C6 N1 1_555 1_555
C8 N5 1_555 1_555
C9 N4 1_555 1_555
C11 N8 1_555 1_555
C12 N7 1_555 1_555
C13 O5 1_555 1_555
N2 N3 1_555 1_555
N5 N6 1_555 1_555
N8 N9 1_555 1_555
Zn1A_4 O5A_2 1_555 1_555
Zn2_2 O5A_3 1_555 1_555
S1A O2A 1_555 1_555
C1A C3A 1_555 1_555
C5A N2A 1_555 1_555
C6A N1A 1_555 1_555
C8A N5A 1_555 1_555
C9A N4A 1_555 1_555
C11A N8A 1_555 1_555
C12A N7A 1_555 1_555
N2A N3A 1_555 1_555
N5A N6A 1_555 1_555
N8A N9A 1_555 1_555

#END
