
#######################################################################
#
#                 Cambridge Crystallographic Data Centre
#                                CCDC 
#
#######################################################################
#
# If this CIF has been generated from an entry in the Cambridge 
# Structural Database, then it will include bibliographic, chemical, 
# crystal, experimental, refinement or atomic coordinate data resulting 
# from the CCDC's data processing and validation procedures.
#
#######################################################################

data_OYODEM
_chemical_formula_moiety         '(C38 H40 B2 N12 O4 Zn2)n'
_symmetry_cell_setting           tetragonal
_symmetry_space_group_name_H-M   'I -4'
_symmetry_Int_Tables_number      82
_space_group_name_Hall           'I -4'
loop_
_symmetry_equiv_pos_site_id
_symmetry_equiv_pos_as_xyz
1 x,y,z
2 y,-x,-z
3 -x,-y,z
4 -y,x,-z
5 1/2+x,1/2+y,1/2+z
6 1/2+y,1/2-x,1/2-z
7 1/2-x,1/2-y,1/2+z
8 1/2-y,1/2+x,1/2-z
_cell_length_a                   18.8569(4)
_cell_length_b                   18.8569(4)
_cell_length_c                   16.0871(7)
_cell_angle_alpha                90
_cell_angle_beta                 90
_cell_angle_gamma                90
_cell_volume                     5720.29
loop_
_atom_site_label
_atom_site_type_symbol
_atom_site_fract_x
_atom_site_fract_y
_atom_site_fract_z
_atom_site_U_iso_or_equiv
_atom_site_thermal_displace_type
Zn1 Zn 0.84303(5) 0.11558(5) 0.22564(6) 0.0551 Uani
O1 O 0.9333(3) 0.0856(3) 0.2695(4) 0.0637 Uani
N1 N 0.8609(4) 0.2016(4) -0.0131(4) 0.0613 Uani
N2 N 1.0212(3) 0.2017(4) -0.2021(4) 0.0607 Uani
N3 N 0.8599(4) 0.1674(4) 0.1190(4) 0.0643 Uani
C1 C 1.0318(4) 0.0237(4) 0.3840(4) 0.0470 Uani
C2 C 1.0318(4) 0.0960(4) 0.3557(5) 0.0490 Uani
N4 N 0.9123(4) 0.2183(4) -0.1533(4) 0.0613 Uani
C3 C 0.9201(6) 0.2290(6) 0.0251(7) 0.0933 Uani
H1 H 0.9556 0.2575 0.0000 0.1120 Uiso
C4 C 0.8265(5) 0.1649(5) 0.0477(6) 0.0643 Uani
C5 C 1.0890(5) 0.1375(5) 0.3714(6) 0.0680 Uani
H2 H 1.0883 0.1859 0.3549 0.0820 Uiso
C6 C 0.7800(6) 0.3222(6) -0.0750(7) 0.0977 Uani
H3 H 0.7982 0.3287 -0.0205 0.1170 Uiso
N5 N 0.7920(4) 0.2650(4) -0.1238(4) 0.0613 Uani
N6 N 0.7213(4) 0.3382(4) -0.1916(4) 0.0620 Uani
C7 C 1.0947(4) -0.0029(4) 0.4251(5) 0.0527 Uani
H4 H 1.0964 -0.0509 0.4429 0.0630 Uiso
O2 O 0.9607(4) 0.1894(4) 0.3142(5) 0.1020 Uani
C8 C 0.9661(5) 0.1731(5) -0.1639(5) 0.0567 Uani
C9 C 1.1478(6) 0.1107(6) 0.4108(7) 0.0900 Uani
H5 H 1.1877 0.1405 0.4200 0.1080 Uiso
C10 C 0.9707(5) 0.1265(5) 0.3117(5) 0.0550 Uani
C11 C 1.1502(4) 0.0393(5) 0.4381(6) 0.0673 Uani
H6 H 1.1911 0.0217 0.4655 0.0810 Uiso
C12 C 0.9181(5) 0.2076(5) 0.1054(6) 0.0757 Uani
H7 H 0.9527 0.2191 0.1462 0.0910 Uiso
H8 H 1.0262 0.3053 -0.2424 0.0910 Uiso
C13 C 0.7562(5) 0.1338(7) 0.0300(7) 0.1063 Uani
H9 H 0.7384 0.1097 0.0798 0.1600 Uiso
H10 H 0.7604 0.0995 -0.0156 0.1600 Uiso
H11 H 0.7232 0.1715 0.0140 0.1600 Uiso
C14 C 0.9632(5) 0.0988(5) -0.1342(7) 0.0833 Uani
H12 H 0.9178 0.0904 -0.1062 0.1250 Uiso
H13 H 0.9676 0.0665 -0.1816 0.1250 Uiso
H14 H 1.0021 0.0903 -0.0951 0.1250 Uiso
C15 C 0.7379(6) 0.3689(6) -0.1163(6) 0.0913 Uani
H15 H 0.7228 0.4141 -0.0970 0.1100 Uiso
C16 C 1.0000(5) 0.2714(6) -0.2177(7) 0.0770 Uani
C17 C 0.9342(5) 0.2812(6) -0.1876(6) 0.0730 Uani
H16 H 0.9077 0.3240 -0.1897 0.0880 Uiso
C18 C 0.7547(5) 0.2763(5) -0.1928(6) 0.0647 Uani
B1 B 0.8422(6) 0.2036(7) -0.1052(7) 0.0637 Uani
C19 C 0.7567(9) 0.2279(6) -0.2631(8) 0.1657 Uani
H17 H 0.7252 0.2455 -0.3070 0.2480 Uiso
H18 H 0.7409 0.1808 -0.2452 0.2480 Uiso
H19 H 0.8053 0.2249 -0.2844 0.2480 Uiso
H20 H 0.811(4) 0.166(4) -0.134(5) 0.0600 Uiso
Zn1B Zn 1.15697(5) -0.11558(5) 0.22564(6) 0.0551 Uani
Zn1A Zn 1.11558(5) 0.15697(5) -0.22564(6) 0.0551 Uani
Zn1F Zn 0.65697(5) 0.38442(5) -0.27436(6) 0.0551 Uani
Zn1C Zn 0.88442(5) -0.15697(5) -0.22564(6) 0.0551 Uani
Zn1E Zn 0.61558(5) -0.34303(5) 0.27436(6) 0.0551 Uani
O1B O 1.0667(3) -0.0856(3) 0.2695(4) 0.0637 Uani
N1C N 0.7984(4) -0.1391(4) 0.0131(4) 0.0613 Uani
N2C N 0.7983(4) 0.0212(3) 0.2021(4) 0.0607 Uani
N2A N 1.2017(4) -0.0212(3) 0.2021(4) 0.0607 Uani
N3C N 0.8326(4) -0.1401(4) -0.1190(4) 0.0643 Uani
N3B N 1.1401(4) -0.1674(4) 0.1190(4) 0.0643 Uani
C1B C 0.9682(4) -0.0237(4) 0.3840(4) 0.0470 Uani
C2B C 0.9682(4) -0.0960(4) 0.3557(5) 0.0490 Uani
N4C N 0.7817(4) -0.0877(4) 0.1533(4) 0.0613 Uani
C3C C 0.7710(6) -0.0799(6) -0.0251(7) 0.0933 Uani
H1C H 0.7425 -0.0444 0.0000 0.1120 Uiso
C4C C 0.8351(5) -0.1735(5) -0.0477(6) 0.0643 Uani
C5B C 0.9110(5) -0.1375(5) 0.3714(6) 0.0680 Uani
H2B H 0.9117 -0.1859 0.3549 0.0820 Uiso
C6C C 0.6778(6) -0.2200(6) 0.0750(7) 0.0977 Uani
H3C H 0.6713 -0.2018 0.0205 0.1170 Uiso
N5C N 0.7350(4) -0.2080(4) 0.1238(4) 0.0613 Uani
N6C N 0.6618(4) -0.2787(4) 0.1916(4) 0.0620 Uani
N6F N 0.7787(4) 0.1618(4) 0.3084(4) 0.0620 Uani
N6D N 1.2213(4) -0.1618(4) 0.3084(4) 0.0620 Uani
C7B C 0.9053(4) 0.0029(4) 0.4251(5) 0.0527 Uani
H4B H 0.9036 0.0509 0.4429 0.0630 Uiso
O2B O 1.0393(4) -0.1894(4) 0.3142(5) 0.1020 Uani
C8C C 0.8269(5) -0.0339(5) 0.1639(5) 0.0567 Uani
C9B C 0.8522(6) -0.1107(6) 0.4108(7) 0.0900 Uani
H5B H 0.8123 -0.1405 0.4200 0.1080 Uiso
C10B C 1.0293(5) -0.1265(5) 0.3117(5) 0.0550 Uani
C11B C 0.8498(4) -0.0393(5) 0.4381(6) 0.0673 Uani
H6B H 0.8089 -0.0217 0.4655 0.0810 Uiso
C12C C 0.7924(5) -0.0819(5) -0.1054(6) 0.0757 Uani
H7C H 0.7809 -0.0473 -0.1462 0.0910 Uiso
H8C H 0.6947 0.0262 0.2424 0.0910 Uiso
C13C C 0.8662(7) -0.2438(5) -0.0300(7) 0.1063 Uani
H9C H 0.8903 -0.2616 -0.0798 0.1600 Uiso
H10C H 0.9005 -0.2396 0.0156 0.1600 Uiso
H11C H 0.8285 -0.2768 -0.0140 0.1600 Uiso
C14C C 0.9012(5) -0.0368(5) 0.1342(7) 0.0833 Uani
H12C H 0.9096 -0.0822 0.1062 0.1250 Uiso
H13C H 0.9335 -0.0324 0.1816 0.1250 Uiso
H14C H 0.9097 0.0021 0.0951 0.1250 Uiso
C15C C 0.6311(6) -0.2621(6) 0.1163(6) 0.0913 Uani
H15C H 0.5859 -0.2772 0.0970 0.1100 Uiso
C16C C 0.7286(6) 0.0000(5) 0.2177(7) 0.0770 Uani
C17C C 0.7188(6) -0.0658(5) 0.1876(6) 0.0730 Uani
H16C H 0.6760 -0.0923 0.1897 0.0880 Uiso
C18C C 0.7237(5) -0.2453(5) 0.1928(6) 0.0647 Uani
B1C B 0.7964(7) -0.1578(6) 0.1052(7) 0.0637 Uani
C19C C 0.7721(6) -0.2433(9) 0.2631(8) 0.1657 Uani
H17C H 0.7545 -0.2748 0.3070 0.2480 Uiso
H18C H 0.8192 -0.2591 0.2452 0.2480 Uiso
H19C H 0.7751 -0.1947 0.2844 0.2480 Uiso
H20C H 0.834(4) -0.189(4) 0.134(5) 0.0600 Uiso
loop_
_atom_site_aniso_label
_atom_site_aniso_U_11
_atom_site_aniso_U_22
_atom_site_aniso_U_33
_atom_site_aniso_U_23
_atom_site_aniso_U_13
_atom_site_aniso_U_12
Zn1 0.0631(7) 0.0581(7) 0.0441(5) 0.0027(6) 0.0027(5) 0.0070(6)
O1 0.070(4) 0.067(4) 0.054(3) -0.003(4) -0.010(4) 0.007(3)
N1 0.069(5) 0.065(5) 0.050(4) 0.009(4) 0.002(4) 0.006(4)
N2 0.065 0.052 0.065 0.014 -0.001 -0.008
N3 0.070(5) 0.072(5) 0.051(4) 0.001(4) 0.007(4) 0.012(4)
C1 0.043(5) 0.059(6) 0.039(4) -0.012(4) 0.006(4) -0.008(4)
C2 0.057(6) 0.047(5) 0.043(5) 0.002(4) 0.005(4) -0.002(4)
N4 0.079 0.057 0.048 0.008 0.008 0.022
C3 0.094(8) 0.116(9) 0.070(7) 0.020(7) -0.014(7) -0.042(7)
C4 0.073(7) 0.066(6) 0.054(6) 0.016(5) 0.000(6) 0.020(5)
C5 0.058(6) 0.066(6) 0.080(7) 0.011(6) -0.008(6) -0.012(5)
C6 0.119 0.103 0.071 -0.012 -0.037 0.052
N5 0.074 0.065 0.045 -0.009 -0.008 0.021
N6 0.072 0.061 0.053 0.001 -0.007 0.013
C7 0.044(5) 0.058(5) 0.056(5) 0.007(5) 0.007(5) -0.002(5)
O2 0.124(6) 0.057(4) 0.125(6) 0.011(5) -0.041(5) 0.006(4)
C8 0.067 0.052 0.051 0.013 0 0.006
C9 0.070(7) 0.095(9) 0.105(9) -0.021(7) 0.023(7) -0.036(7)
C10 0.073(6) 0.045(5) 0.047(5) 0.006(5) 0.005(5) 0.002(5)
C11 0.035(5) 0.077(7) 0.090(7) -0.014(6) -0.012(5) 0.009(5)
C12 0.088(8) 0.087(7) 0.052(6) 0.004(6) -0.003(6) -0.023(6)
C13 0.070(7) 0.166(12) 0.083(8) 0.011(8) 0.005(7) -0.050(8)
C14 0.087 0.078 0.085 0.038 0.011 -0.002
C15 0.119 0.088 0.067 -0.027 -0.022 0.041
C16 0.092 0.056 0.083 0.022 0.016 0.009
C17 0.096 0.049 0.074 0.013 0.027 0.009
C18 0.078 0.067 0.049 -0.003 -0.003 0.011
B1 0.073(8) 0.071(8) 0.047(6) 0.006(6) 0.001(6) 0.013(7)
C19 0.292 0.104 0.101 -0.055 -0.088 0.098
Zn1B 0.0631 0.0581 0.0441 -0.0027 -0.0027 0.007
Zn1A 0.0581 0.0631 0.0441 0.0027 -0.0027 -0.007
Zn1F 0.0631 0.0581 0.0441 -0.0027 -0.0027 0.007
Zn1C 0.0581 0.0631 0.0441 -0.0027 0.0027 -0.007
Zn1E 0.0581 0.0631 0.0441 0.0027 -0.0027 -0.007
O1B 0.07 0.067 0.054 0.003 0.01 0.007
N1C 0.065 0.069 0.05 -0.002 0.009 -0.006
N2C 0.052 0.065 0.065 0.001 0.014 0.008
N2A 0.052 0.065 0.065 -0.001 -0.014 0.008
N3C 0.072 0.07 0.051 -0.007 0.001 -0.012
N3B 0.07 0.072 0.051 -0.001 -0.007 0.012
C1B 0.043 0.059 0.039 0.012 -0.006 -0.008
C2B 0.057 0.047 0.043 -0.002 -0.005 -0.002
N4C 0.057 0.079 0.048 -0.008 0.008 -0.022
C3C 0.116 0.094 0.07 0.014 0.02 0.042
C4C 0.066 0.073 0.054 0 0.016 -0.02
C5B 0.058 0.066 0.08 -0.011 0.008 -0.012
C6C 0.103 0.119 0.071 0.037 -0.012 -0.052
N5C 0.065 0.074 0.045 0.008 -0.009 -0.021
N6C 0.061 0.072 0.053 0.007 0.001 -0.013
N6F 0.072 0.061 0.053 -0.001 0.007 0.013
N6D 0.072 0.061 0.053 0.001 -0.007 0.013
C7B 0.044 0.058 0.056 -0.007 -0.007 -0.002
O2B 0.124 0.057 0.125 -0.011 0.041 0.006
C8C 0.052 0.067 0.051 0 0.013 -0.006
C9B 0.07 0.095 0.105 0.021 -0.023 -0.036
C10B 0.073 0.045 0.047 -0.006 -0.005 0.002
C11B 0.035 0.077 0.09 0.014 0.012 0.009
C12C 0.087 0.088 0.052 0.003 0.004 0.023
C13C 0.166 0.07 0.083 -0.005 0.011 0.05
C14C 0.078 0.087 0.085 -0.011 0.038 0.002
C15C 0.088 0.119 0.067 0.022 -0.027 -0.041
C16C 0.056 0.092 0.083 -0.016 0.022 -0.009
C17C 0.049 0.096 0.074 -0.027 0.013 -0.009
C18C 0.067 0.078 0.049 0.003 -0.003 -0.011
B1C 0.071 0.073 0.047 -0.001 0.006 -0.013
C19C 0.104 0.292 0.101 0.088 -0.055 -0.098
loop_
_geom_bond_atom_site_label_1
_geom_bond_atom_site_label_2
_geom_bond_site_symmetry_1
_geom_bond_site_symmetry_2
Zn1 O1 1_555 1_555
O1 C10 1_555 1_555
N1 C3 1_555 1_555
N2 C8 1_555 1_555
N3 Zn1 1_555 1_555
C1 C2 1_555 1_555
C2 C5 1_555 1_555
N4 C8 1_555 1_555
C3 H1 1_555 1_555
C4 N1 1_555 1_555
C5 H2 1_555 1_555
C6 H3 1_555 1_555
N5 C6 1_555 1_555
N6 C15 1_555 1_555
C7 C1 1_555 1_555
H4 C7 1_555 1_555
O2 C10 1_555 1_555
C8 C14 1_555 1_555
C9 C5 1_555 1_555
H5 C9 1_555 1_555
C10 C2 1_555 1_555
C11 C7 1_555 1_555
H6 C11 1_555 1_555
C12 N3 1_555 1_555
H7 C12 1_555 1_555
H8 C16 1_555 1_555
C13 C4 1_555 1_555
H9 C13 1_555 1_555
H10 C13 1_555 1_555
H11 C13 1_555 1_555
C14 H12 1_555 1_555
H13 C14 1_555 1_555
H14 C14 1_555 1_555
C15 C6 1_555 1_555
H15 C15 1_555 1_555
C16 N2 1_555 1_555
C17 N4 1_555 1_555
H16 C17 1_555 1_555
C18 N5 1_555 1_555
B1 N1 1_555 1_555
C19 C18 1_555 1_555
H17 C19 1_555 1_555
H18 C19 1_555 1_555
H19 C19 1_555 1_555
H20 B1 1_555 1_555
Zn1B O1B 1_555 1_555
Zn1A N2 1_555 1_555
Zn1F N6 1_555 1_555
Zn1C N3C 1_555 1_555
Zn1E N6C 1_555 1_555
O1B C10B 1_555 1_555
N1C C3C 1_555 1_555
N2C Zn1 1_555 1_555
N2A Zn1B 1_555 1_555
N3C C4C 1_555 1_555
N3B Zn1B 1_555 1_555
C1B C1 1_555 1_555
C2B C1B 1_555 1_555
N4C C8C 1_555 1_555
C3C H1C 1_555 1_555
C4C N1C 1_555 1_555
C5B C2B 1_555 1_555
H2B C5B 1_555 1_555
C6C H3C 1_555 1_555
N5C C6C 1_555 1_555
N6C C15C 1_555 1_555
N6F Zn1 1_555 1_555
N6D Zn1B 1_555 1_555
C7B C1B 1_555 1_555
H4B C7B 1_555 1_555
O2B C10B 1_555 1_555
C8C N2C 1_555 1_555
C9B C5B 1_555 1_555
H5B C9B 1_555 1_555
C10B C2B 1_555 1_555
C11B C7B 1_555 1_555
H6B C11B 1_555 1_555
C12C N3C 1_555 1_555
H7C C12C 1_555 1_555
H8C C16C 1_555 1_555
C13C C4C 1_555 1_555
H9C C13C 1_555 1_555
H10C C13C 1_555 1_555
H11C C13C 1_555 1_555
C14C C8C 1_555 1_555
H12C C14C 1_555 1_555
H13C C14C 1_555 1_555
H14C C14C 1_555 1_555
C15C C6C 1_555 1_555
H15C C15C 1_555 1_555
C16C N2C 1_555 1_555
C17C N4C 1_555 1_555
H16C C17C 1_555 1_555
C18C N5C 1_555 1_555
B1C N1C 1_555 1_555
C19C C18C 1_555 1_555
H17C C19C 1_555 1_555
H18C C19C 1_555 1_555
H19C C19C 1_555 1_555
H20C B1C 1_555 1_555
N3 C4 1_555 1_555
N4 B1 1_555 1_555
C3 C12 1_555 1_555
N5 B1 1_555 1_555
N6 C18 1_555 1_555
C9 C11 1_555 1_555
C16 C17 1_555 1_555
N4C B1C 1_555 1_555
C3C C12C 1_555 1_555
N5C B1C 1_555 1_555
N6C C18C 1_555 1_555
C9B C11B 1_555 1_555
C16C C17C 1_555 1_555

#END
