
#######################################################################
#
#                 Cambridge Crystallographic Data Centre
#                                CCDC 
#
#######################################################################
#
# If this CIF has been generated from an entry in the Cambridge 
# Structural Database, then it will include bibliographic, chemical, 
# crystal, experimental, refinement or atomic coordinate data resulting 
# from the CCDC's data processing and validation procedures.
#
#######################################################################

data_OYODAI
_chemical_formula_moiety         '(C38 H40 B2 N12 O5 Zn2)n'
_symmetry_cell_setting           rhombohedral
_symmetry_space_group_name_H-M   'R -3 c'
_symmetry_Int_Tables_number      167
_space_group_name_Hall           '-R 3 2"c'
loop_
_symmetry_equiv_pos_site_id
_symmetry_equiv_pos_as_xyz
1 x,y,z
2 -y,x-y,z
3 -x+y,-x,z
4 y,x,1/2-z
5 -x,-x+y,1/2-z
6 x-y,-y,1/2-z
7 2/3+x,1/3+y,1/3+z
8 2/3-y,1/3+x-y,1/3+z
9 2/3-x+y,1/3-x,1/3+z
10 2/3+y,1/3+x,5/6-z
11 2/3-x,1/3-x+y,5/6-z
12 2/3+x-y,1/3-y,5/6-z
13 1/3+x,2/3+y,2/3+z
14 1/3-y,2/3+x-y,2/3+z
15 1/3-x+y,2/3-x,2/3+z
16 1/3+y,2/3+x,1/6-z
17 1/3-x,2/3-x+y,1/6-z
18 1/3+x-y,2/3-y,1/6-z
19 -x,-y,-z
20 y,-x+y,-z
21 x-y,x,-z
22 -y,-x,1/2+z
23 x,x-y,1/2+z
24 -x+y,y,1/2+z
25 1/3-x,2/3-y,2/3-z
26 1/3+y,2/3-x+y,2/3-z
27 1/3+x-y,2/3+x,2/3-z
28 1/3-y,2/3-x,1/6+z
29 1/3+x,2/3+x-y,1/6+z
30 1/3-x+y,2/3+y,1/6+z
31 2/3-x,1/3-y,1/3-z
32 2/3+y,1/3-x+y,1/3-z
33 2/3+x-y,1/3+x,1/3-z
34 2/3-y,1/3-x,5/6+z
35 2/3+x,1/3+x-y,5/6+z
36 2/3-x+y,1/3+y,5/6+z
_cell_length_a                   27.2749(18)
_cell_length_b                   27.2749(18)
_cell_length_c                   87.561(5)
_cell_angle_alpha                90
_cell_angle_beta                 90
_cell_angle_gamma                120
_cell_volume                     56411.5
loop_
_atom_site_label
_atom_site_type_symbol
_atom_site_fract_x
_atom_site_fract_y
_atom_site_fract_z
_atom_site_U_iso_or_equiv
_atom_site_thermal_displace_type
Zn1 Zn 0.01260(2) 0.200552(19) 0.093218(5) 0.0827 Uani
Zn2 Zn 0.355920(18) 0.362572(19) 0.136864(5) 0.0811 Uani
O1 O 0.00032(10) 0.25272(9) 0.08014(3) 0.0763 Uani
O2 O -0.01941(16) 0.60474(16) 0.03322(4) 0.1089 Uani
O3 O -0.03520(14) 0.17993(12) 0.06398(4) 0.1012 Uani
O4 O -0.1049(2) 0.56242(19) 0.04243(6) 0.1574 Uani
O5 O -0.0745(2) 0.35086(17) 0.02497(5) 0.1488 Uani
N1 N 0.08899(14) 0.28420(12) 0.13343(4) 0.0871 Uani
N2 N 0.03520(14) 0.23567(15) 0.11413(4) 0.0903 Uani
N3 N 0.18689(13) 0.31830(12) 0.14264(4) 0.0886 Uani
N4 N 0.15614(16) 0.19420(14) 0.08003(3) 0.0863 Uani
N5 N 0.27415(15) 0.33156(16) 0.14105(4) 0.0976 Uani
N6 N 0.07551(19) 0.19184(18) 0.08415(3) 0.1073 Uani
N7 N 0.1943(3) 0.0617(3) 0.09753(5) 0.1637 Uani
N8 N 0.29140(15) 0.24734(14) 0.04664(3) 0.0876 Uani
N9 N 0.24544(18) 0.20670(17) 0.06800(4) 0.1014 Uani
N10 N 0.21520(19) 0.15257(19) 0.09205(4) 0.1091 Uani
N11 N 0.11766(15) 0.32290(13) 0.15984(3) 0.0894 Uani
N12 N 0.07331(16) 0.32572(16) 0.18078(4) 0.0998 Uani
C1 C -0.02269(15) 0.22958(14) 0.06754(4) 0.0756 Uani
C2 C 0.07907(17) 0.28071(18) 0.11902(5) 0.0859 Uani
C3 C -0.03763(13) 0.26277(14) 0.05677(4) 0.0735 Uani
C4 C 0.2435(2) 0.3551(2) 0.14170(5) 0.0999 Uani
C5 C -0.06941(15) 0.23762(15) 0.04398(4) 0.0792 Uani
H1 H -0.0826 0.1994 0.0422 0.0960 Uiso
C6 C -0.01837(15) 0.31968(15) 0.05934(5) 0.0793 Uani
H2 H 0.0032 0.3372 0.0680 0.0950 Uiso
C7 C 0.12029(19) 0.19363(18) 0.09066(4) 0.0851 Uani
C8 C 0.11611(18) 0.32292(19) 0.10759(5) 0.0951 Uani
H3 H 0.1468 0.3545 0.1127 0.1430 Uiso
H4 H 0.0946 0.3357 0.1019 0.1430 Uiso
H5 H 0.1309 0.3059 0.1008 0.1430 Uiso
C9 C 0.10211(19) 0.29306(19) 0.18392(5) 0.0928 Uani
H6 H 0.1016 0.2758 0.1931 0.1110 Uiso
C10 C 0.08573(17) 0.34014(19) 0.16669(5) 0.0933 Uani
C11 C 0.2339(2) 0.26958(17) 0.14111(5) 0.0980 Uani
H7 H 0.2429 0.2409 0.1408 0.1180 Uiso
C12 C 0.04189(19) 0.2331(2) 0.14009(5) 0.1069 Uani
H8 H 0.0350 0.2244 0.1504 0.1280 Uiso
C13 C -0.0306(2) 0.34995(16) 0.04937(5) 0.0974 Uani
H9 H -0.0178 0.3881 0.0512 0.1170 Uiso
C14 C -0.08222(17) 0.26715(17) 0.03374(5) 0.0900 Uani
H10 H -0.1038 0.2493 0.0251 0.1080 Uiso
C15 C 0.26786(18) 0.41639(16) 0.14306(5) 0.0960 Uani
H11 H 0.3083 0.4346 0.1421 0.1440 Uiso
H12 H 0.2582 0.4252 0.1528 0.1440 Uiso
H13 H 0.2531 0.4296 0.1351 0.1440 Uiso
C16 C 0.1308(2) 0.1945(2) 0.10735(4) 0.1040 Uani
H14 H 0.1003 0.1945 0.1128 0.1550 Uiso
H15 H 0.1657 0.2280 0.1099 0.1550 Uiso
H16 H 0.1330 0.1617 0.1101 0.1550 Uiso
C17 C 0.0615(3) 0.3713(3) 0.15873(6) 0.1257 Uani
H17 H 0.0400 0.3797 0.1658 0.1890 Uiso
H18 H 0.0373 0.3483 0.1506 0.1890 Uiso
H19 H 0.0916 0.4059 0.1546 0.1890 Uiso
C18 C 0.1861(2) 0.1000(2) 0.09012(6) 0.1602 Uani
C19 C 0.01102(18) 0.20190(19) 0.12843(5) 0.1034 Uani
H20 H -0.0201 0.1655 0.1290 0.1240 Uiso
C20 C -0.0249(3) 0.4508(3) 0.02227(9) 0.1490 Uani
H21 H 0.0029 0.4498 0.0164 0.1790 Uiso
C21 C 0.2742(5) 0.3099(3) 0.06394(7) 0.2097 Uani
H22 H 0.2949 0.3381 0.0563 0.3140 Uiso
H23 H 0.2931 0.3225 0.0736 0.3140 Uiso
H24 H 0.2366 0.3042 0.0647 0.3140 Uiso
C22 C -0.1070(5) 0.4065(3) 0.03773(10) 0.1791 Uani
H25 H -0.1341 0.3731 0.0423 0.2150 Uiso
C23 C -0.0245(3) 0.5061(2) 0.02562(8) 0.1331 Uani
H26 H 0.0027 0.5397 0.0212 0.1600 Uiso
C24 C -0.0613(3) 0.5634(3) 0.03698(7) 0.1181 Uani
C25 C 0.2582(2) 0.1610(2) 0.10257(6) 0.1156 Uani
H27 H 0.2841 0.1945 0.1074 0.1380 Uiso
C26 C -0.0640(3) 0.5059(3) 0.03513(7) 0.1184 Uani
C27 C -0.0672(3) 0.4047(3) 0.02830(8) 0.1266 Uani
C28 C 0.2507(3) 0.1684(2) 0.05930(6) 0.1310 Uani
H28 H 0.2377 0.1308 0.0620 0.1570 Uiso
C29 C 0.2532(2) 0.1124(3) 0.10398(8) 0.1439 Uani
H29 H 0.2810 0.1067 0.1083 0.1730 Uiso
C30 C 0.2775(3) 0.1931(2) 0.04633(6) 0.1231 Uani
H30 H 0.2852 0.1753 0.0384 0.1470 Uiso
C31 C 0.0820(2) 0.1899(2) 0.06840(4) 0.1010 Uani
H31 H 0.0568 0.1879 0.0610 0.1210 Uiso
C32 C 0.1307(2) 0.1913(2) 0.06600(4) 0.0969 Uani
H32 H 0.1455 0.1905 0.0565 0.1160 Uiso
C33 C -0.0629(2) 0.32335(19) 0.03628(5) 0.0980 Uani
C34 C 0.2712(2) 0.2549(2) 0.05952(5) 0.1051 Uani
C35 C 0.12939(18) 0.0729(2) 0.08132(5) 0.1024 Uani
H33 H 0.1255 0.1019 0.0762 0.1540 Uiso
H34 H 0.0986 0.0532 0.0884 0.1540 Uiso
H35 H 0.1288 0.0467 0.0739 0.1540 Uiso
C36 C 0.1283(2) 0.29280(19) 0.17149(5) 0.0973 Uani
H36 H 0.1504 0.2758 0.1704 0.1160 Uiso
C37 C 0.1830(2) 0.26334(18) 0.14165(5) 0.1036 Uani
H37 H 0.1493 0.2288 0.1414 0.1240 Uiso
C38 C -0.1083(4) 0.4578(3) 0.04075(8) 0.1620 Uani
H38 H -0.1375 0.4579 0.0462 0.1940 Uiso
B1 B 0.1371(2) 0.3291(3) 0.14339(6) 0.0991 Uani
B2 B 0.2155(3) 0.1997(3) 0.08346(5) 0.1014 Uani
Zn1B Zn 0.187952(28) -0.01260(2) 0.093218(5) 0.0827 Uani
Zn2P Zn -0.022587(18) 0.673319(26) 0.029803(5) 0.0811 Uani
Zn2Q Zn 0.326681(26) 0.304095(19) 0.029803(5) 0.0811 Uani
Zn2EA Zn 0.029239(19) 0.339985(26) 0.196469(5) 0.0811 Uani
O2P O 0.35274(16) 0.29082(23) 0.13345(4) 0.1089 Uani
N7A N -0.0617(3) 0.1326(4) 0.09753(5) 0.1637 Uani
N8Q N 0.37739(21) 0.41933(14) 0.12003(3) 0.0876 Uani
N12FA N 0.41426(23) 0.40664(16) 0.15255(4) 0.0998 Uani
loop_
_atom_site_aniso_label
_atom_site_aniso_U_11
_atom_site_aniso_U_22
_atom_site_aniso_U_33
_atom_site_aniso_U_23
_atom_site_aniso_U_13
_atom_site_aniso_U_12
Zn1 0.1093(4) 0.0873(3) 0.0656(3) -0.01844(19) -0.0199(2) 0.0598(3)
Zn2 0.0788(3) 0.0822(3) 0.0727(4) -0.00767(19) -0.00520(19) 0.0331(2)
O1 0.0762(14) 0.0654(13) 0.0799(16) -0.0067(11) -0.0141(12) 0.0299(11)
O2 0.105(2) 0.103(2) 0.124(3) 0.0011(19) -0.0195(19) 0.056(2)
O3 0.125(2) 0.0803(17) 0.108(2) -0.0160(14) -0.0350(17) 0.0587(16)
O4 0.167(4) 0.133(3) 0.179(4) 0.029(3) 0.042(3) 0.080(3)
O5 0.215(4) 0.120(3) 0.129(3) -0.005(2) -0.066(3) 0.097(3)
N1 0.099(2) 0.0728(18) 0.067(2) -0.0078(14) -0.0196(15) 0.0260(16)
N2 0.093(2) 0.096(2) 0.091(2) -0.0288(18) -0.0114(17) 0.054(2)
N3 0.0724(19) 0.0675(17) 0.099(2) 0.0114(15) 0.0037(15) 0.0148(15)
N4 0.139(3) 0.108(2) 0.0549(17) -0.0078(14) -0.0034(17) 0.094(2)
N5 0.085(2) 0.106(3) 0.086(2) 0.0096(18) 0.0092(17) 0.036(2)
N6 0.166(4) 0.156(3) 0.0565(18) -0.0221(18) -0.0195(19) 0.123(3)
N7 0.264(7) 0.228(6) 0.119(3) 0.094(4) 0.102(4) 0.213(6)
N8 0.110(2) 0.096(2) 0.0684(19) 0.0024(15) 0.0027(16) 0.0601(19)
N9 0.136(3) 0.125(3) 0.067(2) 0.0074(19) 0.0040(19) 0.083(3)
N10 0.132(3) 0.133(3) 0.086(2) 0.001(2) 0.006(2) 0.084(3)
N11 0.117(2) 0.0793(19) 0.0714(19) -0.0050(15) 0.0167(17) 0.0488(18)
N12 0.106(2) 0.100(2) 0.082(2) -0.0097(18) 0.0034(18) 0.043(2)
C1 0.077(2) 0.0597(19) 0.088(3) -0.0052(17) -0.0119(18) 0.0327(16)
C2 0.083(2) 0.104(3) 0.071(2) -0.007(2) 0.0031(19) 0.047(2)
C3 0.0618(18) 0.0625(19) 0.083(2) 0.0015(16) -0.0078(16) 0.0212(15)
C4 0.109(3) 0.119(3) 0.069(2) -0.014(2) 0.007(2) 0.055(3)
C5 0.075(2) 0.066(2) 0.085(2) -0.0058(18) -0.0120(18) 0.0265(17)
C6 0.073(2) 0.071(2) 0.091(3) -0.0062(18) -0.0125(17) 0.0338(17)
C7 0.125(3) 0.105(3) 0.058(2) -0.0029(18) 0.000(2) 0.082(3)
C8 0.095(3) 0.105(3) 0.096(3) 0.033(2) 0.028(2) 0.058(2)
C9 0.117(3) 0.115(3) 0.073(2) 0.004(2) -0.011(2) 0.078(3)
C10 0.081(2) 0.107(3) 0.076(3) -0.014(2) -0.012(2) 0.035(2)
C11 0.113(3) 0.073(2) 0.106(3) -0.015(2) -0.014(2) 0.045(2)
C12 0.102(3) 0.104(3) 0.070(3) 0.001(2) 0.001(2) 0.018(2)
C13 0.120(3) 0.070(2) 0.099(3) -0.014(2) -0.043(3) 0.045(2)
C14 0.080(2) 0.087(3) 0.086(3) -0.011(2) -0.022(2) 0.029(2)
C15 0.088(2) 0.071(2) 0.101(3) -0.019(2) 0.012(2) 0.0188(19)
C16 0.154(4) 0.152(4) 0.056(2) -0.017(2) -0.010(2) 0.114(3)
C17 0.155(5) 0.143(4) 0.113(4) -0.015(3) -0.050(3) 0.100(4)
C18 0.133(4) 0.108(4) 0.098(3) -0.069(3) 0.062(3) -0.046(3)
C19 0.079(2) 0.095(3) 0.085(3) -0.015(2) 0.017(2) 0.005(2)
C20 0.136(5) 0.124(5) 0.187(6) -0.001(4) -0.039(4) 0.065(4)
C21 0.404(14) 0.119(4) 0.093(4) -0.020(3) 0.030(6) 0.121(7)
C22 0.279(11) 0.116(5) 0.156(7) 0.002(4) -0.047(7) 0.109(6)
C23 0.126(4) 0.110(4) 0.158(5) 0.013(3) -0.020(4) 0.055(3)
C24 0.126(4) 0.139(5) 0.113(4) 0.007(3) -0.003(3) 0.084(4)
C25 0.127(4) 0.107(4) 0.092(3) -0.004(3) -0.030(3) 0.043(3)
C26 0.129(4) 0.128(4) 0.106(4) 0.009(3) -0.019(3) 0.070(4)
C27 0.160(5) 0.109(4) 0.121(4) 0.010(3) -0.028(4) 0.075(4)
C28 0.196(5) 0.127(4) 0.129(4) 0.043(3) 0.077(4) 0.125(4)
C29 0.087(3) 0.115(4) 0.229(7) -0.064(4) -0.090(4) 0.050(3)
C30 0.191(5) 0.112(3) 0.112(4) 0.039(3) 0.069(3) 0.110(4)
C31 0.139(4) 0.139(4) 0.067(2) -0.006(2) -0.004(2) 0.101(3)
C32 0.146(4) 0.115(3) 0.052(2) -0.0029(19) -0.003(2) 0.082(3)
C33 0.111(3) 0.092(3) 0.098(3) -0.001(2) -0.025(2) 0.056(2)
C34 0.145(4) 0.113(3) 0.062(2) -0.019(2) -0.004(2) 0.068(3)
C35 0.095(3) 0.107(3) 0.090(3) 0.011(2) -0.026(2) 0.039(2)
C36 0.119(3) 0.100(3) 0.084(3) -0.011(2) -0.011(2) 0.063(3)
C37 0.100(3) 0.079(3) 0.104(3) -0.013(2) 0.004(2) 0.024(2)
C38 0.212(7) 0.123(5) 0.158(6) 0.041(4) 0.013(5) 0.089(5)
B1 0.081(3) 0.134(4) 0.076(3) -0.033(3) -0.015(2) 0.049(3)
B2 0.156(5) 0.137(4) 0.055(2) 0.010(3) 0.009(3) 0.106(4)
Zn1B 0.077 0.1093 0.0656 0.0199 0.00146 0.0495
Zn2P 0.0788 0.0948 0.0727 0.00247 -0.0052 0.0457
Zn2Q 0.0948 0.0822 0.0727 -0.00767 -0.00247 0.0491
Zn2EA 0.0822 0.0948 0.0727 0.00247 0.00767 0.0491
O2P 0.105 0.096 0.124 -0.0206 -0.0195 0.049
N7A 0.228 0.066 0.119 0.008 -0.094 0.015
N8Q 0.0858 0.096 0.0684 0.0024 -0.0003 0.0359
N12FA 0.12 0.106 0.082 -0.0034 -0.0131 0.063
loop_
_geom_bond_atom_site_label_1
_geom_bond_atom_site_label_2
_geom_bond_site_symmetry_1
_geom_bond_site_symmetry_2
Zn1 O1 1_555 1_555
Zn2 N5 1_555 1_555
O1 C1 1_555 1_555
O2 C24 1_555 1_555
O3 C1 1_555 1_555
O4 C24 1_555 1_555
O5 C27 1_555 1_555
N1 C2 1_555 1_555
N2 Zn1 1_555 1_555
N3 C4 1_555 1_555
N4 C7 1_555 1_555
N5 C4 1_555 1_555
N6 Zn1 1_555 1_555
N7 C18 1_555 1_555
N8 C30 1_555 1_555
N9 C28 1_555 1_555
N10 C18 1_555 1_555
N11 C10 1_555 1_555
N12 C9 1_555 1_555
C1 C3 1_555 1_555
C2 N2 1_555 1_555
C3 C5 1_555 1_555
C4 C15 1_555 1_555
C5 H1 1_555 1_555
C6 C3 1_555 1_555
H2 C6 1_555 1_555
C7 N6 1_555 1_555
C8 C2 1_555 1_555
H3 C8 1_555 1_555
H4 C8 1_555 1_555
H5 C8 1_555 1_555
C9 H6 1_555 1_555
C10 N12 1_555 1_555
C11 N5 1_555 1_555
H7 C11 1_555 1_555
C12 N1 1_555 1_555
H8 C12 1_555 1_555
C13 C6 1_555 1_555
H9 C13 1_555 1_555
C14 C5 1_555 1_555
H10 C14 1_555 1_555
C15 H11 1_555 1_555
H12 C15 1_555 1_555
H13 C15 1_555 1_555
C16 C7 1_555 1_555
H14 C16 1_555 1_555
H15 C16 1_555 1_555
H16 C16 1_555 1_555
C17 C10 1_555 1_555
H17 C17 1_555 1_555
H18 C17 1_555 1_555
H19 C17 1_555 1_555
C18 C35 1_555 1_555
C19 N2 1_555 1_555
H20 C19 1_555 1_555
C20 H21 1_555 1_555
C21 H22 1_555 1_555
H23 C21 1_555 1_555
H24 C21 1_555 1_555
C22 H25 1_555 1_555
C23 C20 1_555 1_555
H26 C23 1_555 1_555
C24 C26 1_555 1_555
C25 N10 1_555 1_555
H27 C25 1_555 1_555
C26 C23 1_555 1_555
C27 C20 1_555 1_555
C28 H28 1_555 1_555
C29 N7 1_555 1_555
H29 C29 1_555 1_555
C30 C28 1_555 1_555
H30 C30 1_555 1_555
C31 N6 1_555 1_555
H31 C31 1_555 1_555
C32 N4 1_555 1_555
H32 C32 1_555 1_555
C33 O5 1_555 1_555
C34 N8 1_555 1_555
C35 H33 1_555 1_555
H34 C35 1_555 1_555
H35 C35 1_555 1_555
C36 N11 1_555 1_555
H36 C36 1_555 1_555
C37 N3 1_555 1_555
H37 C37 1_555 1_555
C38 C22 1_555 1_555
H38 C38 1_555 1_555
B1 N1 1_555 1_555
B2 N4 1_555 1_555
Zn1B N7 1_555 1_555
Zn2P O2 1_555 1_555
Zn2Q N8 1_555 1_555
Zn2EA N12 1_555 1_555
O2P Zn2 1_555 1_555
N7A Zn1 1_555 1_555
N8Q Zn2 1_555 1_555
N12FA Zn2 1_555 1_555
N3 B1 1_555 1_555
N9 C34 1_555 1_555
N9 B2 1_555 1_555
N10 B2 1_555 1_555
N11 B1 1_555 1_555
C9 C36 1_555 1_555
C11 C37 1_555 1_555
C12 C19 1_555 1_555
C13 C33 1_555 1_555
C14 C33 1_555 1_555
C21 C34 1_555 1_555
C22 C27 1_555 1_555
C25 C29 1_555 1_555
C26 C38 1_555 1_555
C31 C32 1_555 1_555

#END
