
#######################################################################
#
#                 Cambridge Crystallographic Data Centre
#                                CCDC 
#
#######################################################################
#
# If this CIF has been generated from an entry in the Cambridge 
# Structural Database, then it will include bibliographic, chemical, 
# crystal, experimental, refinement or atomic coordinate data resulting 
# from the CCDC's data processing and validation procedures.
#
#######################################################################

data_OQUFAJ01
_chemical_formula_moiety         '(C32 H20 F12 O16 Zr3)n'
_symmetry_cell_setting           tetragonal
_symmetry_space_group_name_H-M   'P 42/m m c'
_symmetry_Int_Tables_number      131
_space_group_name_Hall           '-P 4c 2'
loop_
_symmetry_equiv_pos_site_id
_symmetry_equiv_pos_as_xyz
1 x,y,z
2 -y,x,1/2+z
3 -x,-y,z
4 y,-x,1/2+z
5 x,-y,-z
6 -x,y,-z
7 y,x,1/2-z
8 -y,-x,1/2-z
9 -x,-y,-z
10 y,-x,1/2-z
11 x,y,-z
12 -y,x,1/2-z
13 -x,y,z
14 x,-y,z
15 -y,-x,1/2+z
16 y,x,1/2+z
_cell_length_a                   24.4118(2)
_cell_length_b                   24.4118(2)
_cell_length_c                   14.6499(4)
_cell_angle_alpha                90
_cell_angle_beta                 90
_cell_angle_gamma                90
_cell_volume                     8730.4
loop_
_atom_site_label
_atom_site_type_symbol
_atom_site_fract_x
_atom_site_fract_y
_atom_site_fract_z
Zr1 Zr 0.0000 0.39972(3) 0.0000
Zr2 Zr 0.07219(3) 0.5000 0.12021(5)
F1 F 0.2971(6) 0.3276(7) 0.3209(14)
F2 F 0.2489(9) 0.2867(7) 0.4247(11)
F3 F 0.2316(8) 0.3706(6) 0.3905(14)
O1 O 0.05508(15) 0.35270(14) 0.0902(3)
O2 O 0.1017(2) 0.41649(17) 0.1677(4)
O3 O 0.0733(3) 0.4503(3) 0.0000
O4 O -0.0000 0.4515(2) 0.1205(6)
O5 O 0.1616(3) 0.5000 0.1124(6)
O6 O 0.0714(4) 0.5000 0.2677(6)
C1 C 0.2046(4) 0.2471(3) 0.2347(7)
C2 C 0.2031(4) 0.2991(4) 0.2742(7)
C3 C 0.1663(4) 0.3365(4) 0.2454(8)
H1 H 0.1654 0.3715 0.2735
C4 C 0.1305(3) 0.3251(3) 0.1770(6)
C5 C 0.1293(3) 0.2733(3) 0.1410(6)
H2 H 0.1024 0.2638 0.0968
C6 C 0.1665(3) 0.2356(3) 0.1686(7)
H3 H 0.1663 0.2003 0.1414
C7 C 0.0923(3) 0.3680(2) 0.1422(5)
C8 C 0.2457(7) 0.3227(6) 0.3545(13)
F1F F 0.3276(7) 0.2971(6) 0.1791(14)
F2F F 0.2867(7) 0.2489(9) 0.0753(11)
F3F F 0.3706(6) 0.2316(8) 0.1095(14)
O1F O 0.35270(14) 0.05508(15) 0.4098(3)
O2F O 0.41649(17) 0.1017(2) 0.3323(4)
C1F C 0.2471(3) 0.2046(4) 0.2653(7)
C2F C 0.2991(4) 0.2031(4) 0.2258(7)
C3F C 0.3365(4) 0.1663(4) 0.2546(8)
H1F H 0.3715 0.1654 0.2265
C4F C 0.3251(3) 0.1305(3) 0.3230(6)
C5F C 0.2733(3) 0.1293(3) 0.3590(6)
H2F H 0.2638 0.1024 0.4032
C6F C 0.2356(3) 0.1665(3) 0.3314(7)
H3F H 0.2003 0.1663 0.3586
C7F C 0.3680(2) 0.0923(3) 0.3578(5)
C8F C 0.3227(6) 0.2457(7) 0.1455(13)
Zr2B Zr -0.07219(3) 0.5000 0.12021(5)
O3B O -0.0733(3) 0.5497(3) 0.0000
O4B O -0.0000 0.5485(2) 0.1205(6)
O5B O -0.1616(3) 0.5000 0.1124(6)
O6B O -0.0714(4) 0.5000 0.2677(6)
F1L F -0.2971(6) 0.3276(7) 0.3209(14)
F2L F -0.2489(9) 0.2867(7) 0.4247(11)
F3L F -0.2316(8) 0.3706(6) 0.3905(14)
O1L O -0.05508(15) 0.35270(14) 0.0902(3)
O2L O -0.1017(2) 0.41649(17) 0.1677(4)
C1L C -0.2046(4) 0.2471(3) 0.2347(7)
C2L C -0.2031(4) 0.2991(4) 0.2742(7)
C3L C -0.1663(4) 0.3365(4) 0.2454(8)
H1L H -0.1654 0.3715 0.2735
C4L C -0.1305(3) 0.3251(3) 0.1770(6)
C5L C -0.1293(3) 0.2733(3) 0.1410(6)
H2L H -0.1024 0.2638 0.0968
C6L C -0.1665(3) 0.2356(3) 0.1686(7)
H3L H -0.1663 0.2003 0.1414
C7L C -0.0923(3) 0.3680(2) 0.1422(5)
C8L C -0.2457(7) 0.3227(6) 0.3545(13)
F1K F -0.3276(7) 0.2971(6) 0.1791(14)
F2K F -0.2867(7) 0.2489(9) 0.0753(11)
F3K F -0.3706(6) 0.2316(8) 0.1095(14)
O1K O -0.35270(14) 0.05508(15) 0.4098(3)
O2K O -0.41649(17) 0.1017(2) 0.3323(4)
C1K C -0.2471(3) 0.2046(4) 0.2653(7)
C2K C -0.2991(4) 0.2031(4) 0.2258(7)
C3K C -0.3365(4) 0.1663(4) 0.2546(8)
H1K H -0.3715 0.1654 0.2265
C4K C -0.3251(3) 0.1305(3) 0.3230(6)
C5K C -0.2733(3) 0.1293(3) 0.3590(6)
H2K H -0.2638 0.1024 0.4032
C6K C -0.2356(3) 0.1665(3) 0.3314(7)
H3K H -0.2003 0.1663 0.3586
C7K C -0.3680(2) 0.0923(3) 0.3578(5)
C8K C -0.3227(6) 0.2457(7) 0.1455(13)
Zr1A Zr -0.39972(3) 0.0000 0.5000
Zr1B Zr 0.0000 0.60028(3) 0.0000
Zr1C Zr 0.39972(3) 0.0000 0.5000
Zr2D Zr 0.07219(3) 0.5000 -0.12021(5)
Zr2E Zr -0.07219(3) 0.5000 -0.12021(5)
Zr2F Zr -0.5000 0.07219(3) 0.37979(5)
Zr2F_2 Zr 0.5000 0.07219(3) 0.37979(5)
O1E O -0.05508(15) 0.35270(14) -0.0902(3)
O1J O 0.05508(15) 0.35270(14) -0.0902(3)
O2B O -0.1017(2) 0.58351(17) 0.1677(4)
O2M O 0.1017(2) 0.58351(17) 0.1677(4)
O3D O 0.0733(3) 0.5497(3) 0.0000
O3E O -0.0733(3) 0.4503(3) 0.0000
O4E O -0.0000 0.4515(2) -0.1205(6)
loop_
_geom_bond_atom_site_label_1
_geom_bond_atom_site_label_2
_geom_bond_site_symmetry_1
_geom_bond_site_symmetry_2
Zr1 O1 1_555 1_555
Zr2 O2 1_555 1_555
F1 C8 1_555 1_555
F2 C8 1_555 1_555
F3 C8 1_555 1_555
O1 C7 1_555 1_555
O2 C7 1_555 1_555
O3 Zr1 1_555 1_555
O4 Zr1 1_555 1_555
O5 Zr2 1_555 1_555
O6 Zr2 1_555 1_555
C1 C2 1_555 1_555
C2 C3 1_555 1_555
C3 H1 1_555 1_555
C4 C3 1_555 1_555
C5 C4 1_555 1_555
H2 C5 1_555 1_555
C6 C1 1_555 1_555
H3 C6 1_555 1_555
C7 C4 1_555 1_555
C8 C2 1_555 1_555
F1F C8F 1_555 1_555
F2F C8F 1_555 1_555
F3F C8F 1_555 1_555
O1F C7F 1_555 1_555
O2F C7F 1_555 1_555
C1F C1 1_555 1_555
C2F C1F 1_555 1_555
C3F C2F 1_555 1_555
H1F C3F 1_555 1_555
C4F C3F 1_555 1_555
C5F C4F 1_555 1_555
H2F C5F 1_555 1_555
C6F C1F 1_555 1_555
H3F C6F 1_555 1_555
C7F C4F 1_555 1_555
C8F C2F 1_555 1_555
Zr2B O4 1_555 1_555
O3B Zr2B 1_555 1_555
O4B Zr2 1_555 1_555
O5B Zr2B 1_555 1_555
O6B Zr2B 1_555 1_555
F1L C8L 1_555 1_555
F2L C8L 1_555 1_555
F3L C8L 1_555 1_555
O1L Zr1 1_555 1_555
O2L Zr2B 1_555 1_555
C1L C2L 1_555 1_555
C2L C3L 1_555 1_555
C3L H1L 1_555 1_555
C4L C3L 1_555 1_555
C5L C4L 1_555 1_555
H2L C5L 1_555 1_555
C6L C1L 1_555 1_555
H3L C6L 1_555 1_555
C7L O1L 1_555 1_555
C8L C2L 1_555 1_555
F1K C8K 1_555 1_555
F2K C8K 1_555 1_555
F3K C8K 1_555 1_555
O1K C7K 1_555 1_555
O2K C7K 1_555 1_555
C1K C1L 1_555 1_555
C2K C1K 1_555 1_555
C3K C2K 1_555 1_555
H1K C3K 1_555 1_555
C4K C3K 1_555 1_555
C5K C4K 1_555 1_555
H2K C5K 1_555 1_555
C6K C1K 1_555 1_555
H3K C6K 1_555 1_555
C7K C4K 1_555 1_555
C8K C2K 1_555 1_555
Zr1A O1K 1_555 1_555
Zr1B O3B 1_555 1_555
Zr1C O1F 1_555 1_555
Zr2D O3 1_555 1_555
Zr2E O3B 1_555 1_555
Zr2F O2K 1_555 1_555
Zr2F_2 O2F 1_555 1_555
O1E Zr1 1_555 1_555
O1J Zr1 1_555 1_555
O2B Zr2B 1_555 1_555
O2M Zr2 1_555 1_555
O3D Zr2 1_555 1_555
O3E Zr1 1_555 1_555
O4E Zr1 1_555 1_555
Zr2 O3 1_555 1_555
Zr2 O4 1_555 1_555
C5 C6 1_555 1_555
C5F C6F 1_555 1_555
Zr2B O4B 1_555 1_555
Zr2B O3E 1_555 1_555
O4B Zr1B 1_555 1_555
O2L C7L 1_555 1_555
C4L C7L 1_555 1_555
C5L C6L 1_555 1_555
C5K C6K 1_555 1_555
Zr1B O3D 1_555 1_555
Zr2D O3D 1_555 1_555
Zr2D O4E 1_555 1_555
Zr2E O3E 1_555 1_555
Zr2E O4E 1_555 1_555

#END
