
#######################################################################
#
#                 Cambridge Crystallographic Data Centre
#                                CCDC 
#
#######################################################################
#
# If this CIF has been generated from an entry in the Cambridge 
# Structural Database, then it will include bibliographic, chemical, 
# crystal, experimental, refinement or atomic coordinate data resulting 
# from the CCDC's data processing and validation procedures.
#
#######################################################################

data_OQUFAJ
_chemical_formula_moiety         '(C32 H20 F12 O16 Zr3)n'
_symmetry_cell_setting           tetragonal
_symmetry_space_group_name_H-M   'P 42/m m c'
_symmetry_Int_Tables_number      131
_space_group_name_Hall           '-P 4c 2'
loop_
_symmetry_equiv_pos_site_id
_symmetry_equiv_pos_as_xyz
1 x,y,z
2 -y,x,1/2+z
3 -x,-y,z
4 y,-x,1/2+z
5 x,-y,-z
6 -x,y,-z
7 y,x,1/2-z
8 -y,-x,1/2-z
9 -x,-y,-z
10 y,-x,1/2-z
11 x,y,-z
12 -y,x,1/2-z
13 -x,y,z
14 x,-y,z
15 -y,-x,1/2+z
16 y,x,1/2+z
_cell_length_a                   24.2603(3)
_cell_length_b                   24.2603(3)
_cell_length_c                   15.1465(6)
_cell_angle_alpha                90
_cell_angle_beta                 90
_cell_angle_gamma                90
_cell_volume                     8914.66
loop_
_atom_site_label
_atom_site_type_symbol
_atom_site_fract_x
_atom_site_fract_y
_atom_site_fract_z
Zr1 Zr 0.5000 0.10058(4) 0.0000
Zr2 Zr 0.42719(4) -0.0000 0.11608(7)
O1 O 0.4449(2) 0.14881(19) 0.0859(4)
O2 O 0.3970(3) 0.0831(2) 0.1615(5)
O3 O 0.4261(4) 0.0501(4) 0.0000
O4 O 0.5000 0.0485(3) 0.1144(8)
O5 O 0.3369(3) 0.0000 0.1113(8)
O6 O 0.4293(6) 0.0000 0.2601(8)
C1 C 0.2972(5) 0.2556(5) 0.2337(12)
C2 C 0.3344(6) 0.2666(5) 0.1693(10)
H1 H 0.3338 0.3019 0.1423
C3 C 0.3732(5) 0.2288(4) 0.1411(11)
H2 H 0.4017 0.2395 0.1017
C4 C 0.3699(4) 0.1756(4) 0.1711(9)
C5 C 0.3334(5) 0.1646(5) 0.2369(10)
H3 H 0.3331 0.1286 0.2617
C6 C 0.2958(6) 0.2039(6) 0.2704(11)
C7 C 0.4068(4) 0.1335(3) 0.1389(7)
C8 C 0.2474(11) 0.1767(10) 0.3545(19)
F1 F 0.2677(14) 0.1267(10) 0.370(2)
F2 F 0.2541(14) 0.2133(13) 0.4191(15)
F3 F 0.1999(9) 0.1778(14) 0.311(2)
O1F O 0.14881(19) 0.4449(2) 0.4141(4)
O2F O 0.0831(2) 0.3970(3) 0.3385(5)
C1F C 0.2556(5) 0.2972(5) 0.2663(12)
C2F C 0.2666(5) 0.3344(6) 0.3307(10)
H1F H 0.3019 0.3338 0.3577
C3F C 0.2288(4) 0.3732(5) 0.3589(11)
H2F H 0.2395 0.4017 0.3983
C4F C 0.1756(4) 0.3699(4) 0.3289(9)
C5F C 0.1646(5) 0.3334(5) 0.2631(10)
H3F H 0.1286 0.3331 0.2383
C6F C 0.2039(6) 0.2958(6) 0.2296(11)
C7F C 0.1335(3) 0.4068(4) 0.3611(7)
C8F C 0.1767(10) 0.2474(11) 0.1455(19)
F1F F 0.1267(10) 0.2677(14) 0.130(2)
F2F F 0.2133(13) 0.2541(14) 0.0809(15)
F3F F 0.1778(14) 0.1999(9) 0.189(2)
Zr2B Zr 0.57281(4) -0.0000 0.11608(7)
O3B O 0.5739(4) -0.0501(4) 0.0000
O4B O 0.5000 -0.0485(3) 0.1144(8)
O5B O 0.6631(3) 0.0000 0.1113(8)
O6B O 0.5707(6) 0.0000 0.2601(8)
O1L O 0.5551(2) 0.14881(19) 0.0859(4)
O2L O 0.6030(3) 0.0831(2) 0.1615(5)
C1L C 0.7028(5) 0.2556(5) 0.2337(12)
C2L C 0.6656(6) 0.2666(5) 0.1693(10)
H1L H 0.6662 0.3019 0.1423
C3L C 0.6268(5) 0.2288(4) 0.1411(11)
H2L H 0.5983 0.2395 0.1017
C4L C 0.6301(4) 0.1756(4) 0.1711(9)
C5L C 0.6666(5) 0.1646(5) 0.2369(10)
H3L H 0.6669 0.1286 0.2617
C6L C 0.7042(6) 0.2039(6) 0.2704(11)
C7L C 0.5932(4) 0.1335(3) 0.1389(7)
C8L C 0.7526(11) 0.1767(10) 0.3545(19)
F1L F 0.7323(14) 0.1267(10) 0.370(2)
F2L F 0.7459(14) 0.2133(13) 0.4191(15)
F3L F 0.8001(9) 0.1778(14) 0.311(2)
O1K O 0.85119(19) 0.4449(2) 0.4141(4)
O2K O 0.9169(2) 0.3970(3) 0.3385(5)
C1K C 0.7444(5) 0.2972(5) 0.2663(12)
C2K C 0.7334(5) 0.3344(6) 0.3307(10)
H1K H 0.6981 0.3338 0.3577
C3K C 0.7712(4) 0.3732(5) 0.3589(11)
H2K H 0.7605 0.4017 0.3983
C4K C 0.8244(4) 0.3699(4) 0.3289(9)
C5K C 0.8354(5) 0.3334(5) 0.2631(10)
H3K H 0.8714 0.3331 0.2383
C6K C 0.7961(6) 0.2958(6) 0.2296(11)
C7K C 0.8665(3) 0.4068(4) 0.3611(7)
C8K C 0.8233(10) 0.2474(11) 0.1455(19)
F1K F 0.8733(10) 0.2677(14) 0.130(2)
F2K F 0.7867(13) 0.2541(14) 0.0809(15)
F3K F 0.8222(14) 0.1999(9) 0.189(2)
Zr1A Zr 0.89942(4) 0.5000 0.5000
Zr1B Zr 0.5000 -0.10058(4) 0.0000
Zr1C Zr 0.10058(4) 0.5000 0.5000
Zr2D Zr 0.42719(4) 0.0000 -0.11608(7)
Zr2E Zr 0.57281(4) 0.0000 -0.11608(7)
Zr2F Zr -0.0000 0.42719(4) 0.38392(7)
Zr2F_2 Zr 1.0000 0.42719(4) 0.38392(7)
O1E O 0.5551(2) 0.14881(19) -0.0859(4)
O1J O 0.4449(2) 0.14881(19) -0.0859(4)
O2B O 0.6030(3) -0.0831(2) 0.1615(5)
O2M O 0.3970(3) -0.0831(2) 0.1615(5)
O3D O 0.4261(4) -0.0501(4) 0.0000
O3E O 0.5739(4) 0.0501(4) 0.0000
O4E O 0.5000 0.0485(3) -0.1144(8)
loop_
_geom_bond_atom_site_label_1
_geom_bond_atom_site_label_2
_geom_bond_site_symmetry_1
_geom_bond_site_symmetry_2
Zr1 O1 1_555 1_555
Zr2 O2 1_555 1_555
O1 C7 1_555 1_555
O2 C7 1_555 1_555
O3 Zr1 1_555 1_555
O4 Zr1 1_555 1_555
O5 Zr2 1_555 1_555
O6 Zr2 1_555 1_555
C1 C2 1_555 1_555
C2 H1 1_555 1_555
C3 C2 1_555 1_555
H2 C3 1_555 1_555
C4 C3 1_555 1_555
C5 C4 1_555 1_555
H3 C5 1_555 1_555
C6 C1 1_555 1_555
C7 C4 1_555 1_555
C8 C6 1_555 1_555
F1 C8 1_555 1_555
F2 C8 1_555 1_555
F3 C8 1_555 1_555
O1F C7F 1_555 1_555
O2F C7F 1_555 1_555
C1F C1 1_555 1_555
C2F C1F 1_555 1_555
H1F C2F 1_555 1_555
C3F C2F 1_555 1_555
H2F C3F 1_555 1_555
C4F C3F 1_555 1_555
C5F C4F 1_555 1_555
H3F C5F 1_555 1_555
C6F C1F 1_555 1_555
C7F C4F 1_555 1_555
C8F C6F 1_555 1_555
F1F C8F 1_555 1_555
F2F C8F 1_555 1_555
F3F C8F 1_555 1_555
Zr2B O4 1_555 1_555
O3B Zr2B 1_555 1_555
O4B Zr2 1_555 1_555
O5B Zr2B 1_555 1_555
O6B Zr2B 1_555 1_555
O1L Zr1 1_555 1_555
O2L Zr2B 1_555 1_555
C1L C2L 1_555 1_555
C2L H1L 1_555 1_555
C3L C2L 1_555 1_555
H2L C3L 1_555 1_555
C4L C3L 1_555 1_555
C5L C4L 1_555 1_555
H3L C5L 1_555 1_555
C6L C1L 1_555 1_555
C7L O1L 1_555 1_555
C8L C6L 1_555 1_555
F1L C8L 1_555 1_555
F2L C8L 1_555 1_555
F3L C8L 1_555 1_555
O1K C7K 1_555 1_555
O2K C7K 1_555 1_555
C1K C1L 1_555 1_555
C2K C1K 1_555 1_555
H1K C2K 1_555 1_555
C3K C2K 1_555 1_555
H2K C3K 1_555 1_555
C4K C3K 1_555 1_555
C5K C4K 1_555 1_555
H3K C5K 1_555 1_555
C6K C1K 1_555 1_555
C7K C4K 1_555 1_555
C8K C6K 1_555 1_555
F1K C8K 1_555 1_555
F2K C8K 1_555 1_555
F3K C8K 1_555 1_555
Zr1A O1K 1_555 1_555
Zr1B O3B 1_555 1_555
Zr1C O1F 1_555 1_555
Zr2D O3 1_555 1_555
Zr2E O3B 1_555 1_555
Zr2F O2F 1_555 1_555
Zr2F_2 O2K 1_555 1_555
O1E Zr1 1_555 1_555
O1J Zr1 1_555 1_555
O2B Zr2B 1_555 1_555
O2M Zr2 1_555 1_555
O3D Zr2 1_555 1_555
O3E Zr1 1_555 1_555
O4E Zr1 1_555 1_555
Zr2 O3 1_555 1_555
Zr2 O4 1_555 1_555
C5 C6 1_555 1_555
C5F C6F 1_555 1_555
Zr2B O4B 1_555 1_555
Zr2B O3E 1_555 1_555
O4B Zr1B 1_555 1_555
O2L C7L 1_555 1_555
C4L C7L 1_555 1_555
C5L C6L 1_555 1_555
C5K C6K 1_555 1_555
Zr1B O3D 1_555 1_555
Zr2D O3D 1_555 1_555
Zr2D O4E 1_555 1_555
Zr2E O3E 1_555 1_555
Zr2E O4E 1_555 1_555

#END
