
#######################################################################
#
#                 Cambridge Crystallographic Data Centre
#                                CCDC 
#
#######################################################################
#
# If this CIF has been generated from an entry in the Cambridge 
# Structural Database, then it will include bibliographic, chemical, 
# crystal, experimental, refinement or atomic coordinate data resulting 
# from the CCDC's data processing and validation procedures.
#
#######################################################################

data_OQUFAJ04
_chemical_formula_moiety         '(C32 H20 F12 O16 Zr3)n'
_symmetry_cell_setting           tetragonal
_symmetry_space_group_name_H-M   'P 42/m m c'
_symmetry_Int_Tables_number      131
_space_group_name_Hall           '-P 4c 2'
loop_
_symmetry_equiv_pos_site_id
_symmetry_equiv_pos_as_xyz
1 x,y,z
2 -y,x,1/2+z
3 -x,-y,z
4 y,-x,1/2+z
5 x,-y,-z
6 -x,y,-z
7 y,x,1/2-z
8 -y,-x,1/2-z
9 -x,-y,-z
10 y,-x,1/2-z
11 x,y,-z
12 -y,x,1/2-z
13 -x,y,z
14 x,-y,z
15 -y,-x,1/2+z
16 y,x,1/2+z
_cell_length_a                   24.3936(9)
_cell_length_b                   24.3936(9)
_cell_length_c                   14.571(3)
_cell_angle_alpha                90
_cell_angle_beta                 90
_cell_angle_gamma                90
_cell_volume                     8670.44
loop_
_atom_site_label
_atom_site_type_symbol
_atom_site_fract_x
_atom_site_fract_y
_atom_site_fract_z
Zr1 Zr 0.5000 0.09986(4) 0.0000
Zr2 Zr 0.42764(3) 0.0000 0.12182(9)
F1 F 0.2913(10) 0.3387(9) 0.0715(16)
F2 F 0.3494(11) 0.3669(8) 0.1844(16)
F3 F 0.3820(10) 0.3272(9) 0.0529(15)
O1 O 0.4458(2) 0.1463(2) 0.0923(6)
O2 O 0.3978(3) 0.0831(3) 0.1693(7)
O3 O 0.3362(4) 0.0000 0.1131(8)
O4 O 0.4308(5) 0.0000 0.2722(10)
O5 O 0.4286(5) 0.0498(4) 0.0000
O6 O 0.5000 0.0479(4) 0.1196(9)
C1 C 0.2960(3) 0.2537(4) 0.2370(8)
C2 C 0.3351(5) 0.2650(5) 0.1699(8)
C3 C 0.3725(5) 0.2265(5) 0.1401(10)
H1 H 0.3989 0.2350 0.0944
C4 C 0.3698(5) 0.1738(5) 0.1805(11)
C5 C 0.3321(5) 0.1614(6) 0.2464(10)
H2 H 0.3310 0.1258 0.2728
C6 C 0.2951(5) 0.2014(6) 0.2745(10)
H3 H 0.2688 0.1928 0.3203
C7 C 0.4076(4) 0.1326(3) 0.1386(8)
C8 C 0.3406(6) 0.3197(6) 0.1234(10)
F1F F 0.3387(9) 0.2913(10) 0.4285(16)
F2F F 0.3669(8) 0.3494(11) 0.3156(16)
F3F F 0.3272(9) 0.3820(10) 0.4471(15)
O1F O 0.1463(2) 0.4458(2) 0.4077(6)
O2F O 0.0831(3) 0.3978(3) 0.3307(7)
C1F C 0.2537(4) 0.2960(3) 0.2630(8)
C2F C 0.2650(5) 0.3351(5) 0.3301(8)
C3F C 0.2265(5) 0.3725(5) 0.3599(10)
H1F H 0.2350 0.3989 0.4056
C4F C 0.1738(5) 0.3698(5) 0.3195(11)
C5F C 0.1614(6) 0.3321(5) 0.2536(10)
H2F H 0.1258 0.3310 0.2272
C6F C 0.2014(6) 0.2951(5) 0.2255(10)
H3F H 0.1928 0.2688 0.1797
C7F C 0.1326(3) 0.4076(4) 0.3614(8)
C8F C 0.3197(6) 0.3406(6) 0.3766(10)
Zr2B Zr 0.57236(3) 0.0000 0.12182(9)
O3B O 0.6638(4) 0.0000 0.1131(8)
O4B O 0.5692(5) 0.0000 0.2722(10)
O5B O 0.5714(5) -0.0498(4) 0.0000
O6B O 0.5000 -0.0479(4) 0.1196(9)
F1L F 0.7087(10) 0.3387(9) 0.0715(16)
F2L F 0.6506(11) 0.3669(8) 0.1844(16)
F3L F 0.6180(10) 0.3272(9) 0.0529(15)
O1L O 0.5542(2) 0.1463(2) 0.0923(6)
O2L O 0.6022(3) 0.0831(3) 0.1693(7)
C1L C 0.7040(3) 0.2537(4) 0.2370(8)
C2L C 0.6649(5) 0.2650(5) 0.1699(8)
C3L C 0.6275(5) 0.2265(5) 0.1401(10)
H1L H 0.6011 0.2350 0.0944
C4L C 0.6302(5) 0.1738(5) 0.1805(11)
C5L C 0.6679(5) 0.1614(6) 0.2464(10)
H2L H 0.6690 0.1258 0.2728
C6L C 0.7049(5) 0.2014(6) 0.2745(10)
H3L H 0.7312 0.1928 0.3203
C7L C 0.5924(4) 0.1326(3) 0.1386(8)
C8L C 0.6594(6) 0.3197(6) 0.1234(10)
F1K F 0.6613(9) 0.2913(10) 0.4285(16)
F2K F 0.6331(8) 0.3494(11) 0.3156(16)
F3K F 0.6728(9) 0.3820(10) 0.4471(15)
O1K O 0.8537(2) 0.4458(2) 0.4077(6)
O2K O 0.9169(3) 0.3978(3) 0.3307(7)
C1K C 0.7463(4) 0.2960(3) 0.2630(8)
C2K C 0.7350(5) 0.3351(5) 0.3301(8)
C3K C 0.7735(5) 0.3725(5) 0.3599(10)
H1K H 0.7650 0.3989 0.4056
C4K C 0.8262(5) 0.3698(5) 0.3195(11)
C5K C 0.8386(6) 0.3321(5) 0.2536(10)
H2K H 0.8742 0.3310 0.2272
C6K C 0.7986(6) 0.2951(5) 0.2255(10)
H3K H 0.8072 0.2688 0.1797
C7K C 0.8674(3) 0.4076(4) 0.3614(8)
C8K C 0.6803(6) 0.3406(6) 0.3766(10)
Zr1A Zr 0.90014(4) 0.5000 0.5000
Zr1B Zr 0.5000 -0.09986(4) 0.0000
Zr1C Zr 0.09986(4) 0.5000 0.5000
Zr2D Zr 0.42764(3) -0.0000 -0.12182(9)
Zr2E Zr 0.57236(3) -0.0000 -0.12182(9)
Zr2F Zr -0.0000 0.42764(3) 0.37818(9)
Zr2F_2 Zr 1.0000 0.42764(3) 0.37818(9)
O1E O 0.5542(2) 0.1463(2) -0.0923(6)
O1J O 0.4458(2) 0.1463(2) -0.0923(6)
O2B O 0.6022(3) -0.0831(3) 0.1693(7)
O2M O 0.3978(3) -0.0831(3) 0.1693(7)
O5D O 0.4286(5) -0.0498(4) 0.0000
O5E O 0.5714(5) 0.0498(4) 0.0000
O6E O 0.5000 0.0479(4) -0.1196(9)
loop_
_geom_bond_atom_site_label_1
_geom_bond_atom_site_label_2
_geom_bond_site_symmetry_1
_geom_bond_site_symmetry_2
Zr1 O1 1_555 1_555
Zr2 O2 1_555 1_555
F1 C8 1_555 1_555
F2 C8 1_555 1_555
F3 C8 1_555 1_555
O1 C7 1_555 1_555
O2 C7 1_555 1_555
O3 Zr2 1_555 1_555
O4 Zr2 1_555 1_555
O5 Zr1 1_555 1_555
O6 Zr1 1_555 1_555
C1 C2 1_555 1_555
C2 C3 1_555 1_555
C3 H1 1_555 1_555
C4 C3 1_555 1_555
C5 C4 1_555 1_555
H2 C5 1_555 1_555
C6 C1 1_555 1_555
H3 C6 1_555 1_555
C7 C4 1_555 1_555
C8 C2 1_555 1_555
F1F C8F 1_555 1_555
F2F C8F 1_555 1_555
F3F C8F 1_555 1_555
O1F C7F 1_555 1_555
O2F C7F 1_555 1_555
C1F C1 1_555 1_555
C2F C1F 1_555 1_555
C3F C2F 1_555 1_555
H1F C3F 1_555 1_555
C4F C3F 1_555 1_555
C5F C4F 1_555 1_555
H2F C5F 1_555 1_555
C6F C1F 1_555 1_555
H3F C6F 1_555 1_555
C7F C4F 1_555 1_555
C8F C2F 1_555 1_555
Zr2B O6 1_555 1_555
O3B Zr2B 1_555 1_555
O4B Zr2B 1_555 1_555
O5B Zr2B 1_555 1_555
O6B Zr2 1_555 1_555
F1L C8L 1_555 1_555
F2L C8L 1_555 1_555
F3L C8L 1_555 1_555
O1L Zr1 1_555 1_555
O2L Zr2B 1_555 1_555
C1L C2L 1_555 1_555
C2L C3L 1_555 1_555
C3L H1L 1_555 1_555
C4L C3L 1_555 1_555
C5L C4L 1_555 1_555
H2L C5L 1_555 1_555
C6L C1L 1_555 1_555
H3L C6L 1_555 1_555
C7L O1L 1_555 1_555
C8L C2L 1_555 1_555
F1K C8K 1_555 1_555
F2K C8K 1_555 1_555
F3K C8K 1_555 1_555
O1K C7K 1_555 1_555
O2K C7K 1_555 1_555
C1K C1L 1_555 1_555
C2K C1K 1_555 1_555
C3K C2K 1_555 1_555
H1K C3K 1_555 1_555
C4K C3K 1_555 1_555
C5K C4K 1_555 1_555
H2K C5K 1_555 1_555
C6K C1K 1_555 1_555
H3K C6K 1_555 1_555
C7K C4K 1_555 1_555
C8K C2K 1_555 1_555
Zr1A O1K 1_555 1_555
Zr1B O5B 1_555 1_555
Zr1C O1F 1_555 1_555
Zr2D O5 1_555 1_555
Zr2E O5B 1_555 1_555
Zr2F O2F 1_555 1_555
Zr2F_2 O2K 1_555 1_555
O1E Zr1 1_555 1_555
O1J Zr1 1_555 1_555
O2B Zr2B 1_555 1_555
O2M Zr2 1_555 1_555
O5D Zr2 1_555 1_555
O5E Zr1 1_555 1_555
O6E Zr1 1_555 1_555
Zr2 O5 1_555 1_555
Zr2 O6 1_555 1_555
C5 C6 1_555 1_555
C5F C6F 1_555 1_555
Zr2B O6B 1_555 1_555
Zr2B O5E 1_555 1_555
O6B Zr1B 1_555 1_555
O2L C7L 1_555 1_555
C4L C7L 1_555 1_555
C5L C6L 1_555 1_555
C5K C6K 1_555 1_555
Zr1B O5D 1_555 1_555
Zr2D O5D 1_555 1_555
Zr2D O6E 1_555 1_555
Zr2E O5E 1_555 1_555
Zr2E O6E 1_555 1_555

#END
