
#######################################################################
#
#                 Cambridge Crystallographic Data Centre
#                                CCDC 
#
#######################################################################
#
# If this CIF has been generated from an entry in the Cambridge 
# Structural Database, then it will include bibliographic, chemical, 
# crystal, experimental, refinement or atomic coordinate data resulting 
# from the CCDC's data processing and validation procedures.
#
#######################################################################

data_OPUDOT
_chemical_formula_moiety         'C20 H8 N1 O37 P8 Zn5'
_symmetry_cell_setting           triclinic
_symmetry_space_group_name_H-M   'P -1'
_symmetry_Int_Tables_number      2
_space_group_name_Hall           '-P 1'
loop_
_symmetry_equiv_pos_site_id
_symmetry_equiv_pos_as_xyz
1 x,y,z
2 -x,-y,-z
_cell_length_a                   10.230(8)
_cell_length_b                   11.059(8)
_cell_length_c                   13.818(10)
_cell_angle_alpha                69.01(3)
_cell_angle_beta                 78.31(3)
_cell_angle_gamma                72.15(2)
_cell_volume                     1381.69
loop_
_atom_site_label
_atom_site_type_symbol
_atom_site_fract_x
_atom_site_fract_y
_atom_site_fract_z
O27 O -0.4067(9) -0.1465(9) -0.3936(7)
O28 O 0.3811(15) 0.1645(17) -0.4146(12)
N1 N -0.4075(9) 0.3399(8) -0.4046(8)
C1 C -0.529(4) 0.459(2) -0.446(5)
C2 C -0.578(3) 0.593(5) -0.428(2)
C1A C -0.471(4) 0.541(2) -0.554(5)
Zn1 Zn -1.07854(6) -0.85094(6) 0.08523(5)
Zn2 Zn -0.92250(6) -0.64761(6) -0.08570(5)
Zn3 Zn -0.61747(7) -0.98554(6) 0.17298(5)
Zn4 Zn -0.62031(7) -0.48503(6) 0.17448(5)
Zn5 Zn -0.97864(16) -1.27584(15) 0.49037(13)
P1 P -0.77701(14) -0.96896(13) -0.01835(11)
P2 P -0.77704(14) -0.46902(13) -0.01854(11)
P3 P -0.84351(15) -1.02119(15) 0.38131(12)
P4 P -0.84346(15) -0.51429(15) 0.38395(12)
O1 O -0.8994(4) -0.8481(4) -0.0138(3)
O2 O -1.1788(4) -0.9055(4) 0.0021(3)
O3 O -0.6686(5) -0.9954(5) 0.0498(4)
O4 O -0.4159(4) -0.9730(4) 0.1707(4)
O5 O -0.4895(4) -1.1854(4) 0.1975(4)
O6 O -0.7210(4) -0.6905(4) -0.1747(4)
O7 O -0.8206(4) -0.5942(4) -0.0030(3)
O8 O -1.1002(4) -0.6509(4) 0.0144(3)
O9 O -0.6700(5) -0.4944(5) 0.0508(4)
O10 O -0.4179(4) -0.4715(4) 0.1691(4)
O11 O -1.2807(4) -0.8084(4) 0.1739(3)
O12 O -0.4922(4) -0.6831(4) 0.1972(3)
O13 O -0.7203(5) -1.0555(5) 0.3070(4)
O14 O -0.8324(5) -0.9106(5) 0.4211(4)
O15 O -0.8662(5) -1.1416(4) 0.4715(3)
O16 O -0.9852(5) -0.8399(4) 0.2200(4)
O17 O -1.0340(4) -1.0369(4) 0.1884(3)
O18 O -1.0607(5) -1.1567(4) 0.3538(4)
O19 O -0.7191(5) -0.5499(4) 0.3099(3)
O20 O -0.8334(5) -1.4043(5) 0.4222(4)
O21 O -1.1327(5) -1.3642(4) 0.5255(3)
O22 O -0.9818(5) -0.3397(4) 0.2177(4)
O23 O -0.9694(4) -0.4605(4) -0.1898(3)
O24 O -0.9438(5) -1.3433(4) 0.6465(3)
O25 O -0.6835(5) -0.7888(4) 0.1542(4)
O26 O -0.6830(5) -0.2863(4) 0.1537(4)
C3 C -0.6948(6) -0.9197(6) -0.1526(5)
H1 H -0.7638 -0.8971 -0.2005
C4 C -0.3615(6) -1.2010(5) 0.1766(4)
C5 C -0.6925(6) -0.4222(5) -0.1514(5)
H2 H -0.7606 -0.3997 -0.1999
C6 C -1.3642(6) -0.6990(6) 0.1758(4)
C7 C -0.9998(6) -0.9487(6) 0.3143(5)
H3 H -1.0768 -0.9156 0.3612
C8 C -1.0341(6) -1.0540(5) 0.2837(5)
C9 C -0.9984(6) -0.4476(6) 0.3129(4)
H4 H -1.0773 -0.4131 0.3578
C10 C -0.9696(6) -0.4454(5) -0.2841(4)
P1A P -1.22299(14) -1.03104(13) 0.01835(11)
P2A P -1.22296(14) -0.53098(13) 0.01854(11)
P4_2 P -0.84346(15) -1.51429(15) 0.38395(12)
P4A P -1.15654(15) -1.48571(15) 0.61605(12)
O2A O -0.8212(4) -1.0945(4) -0.0021(3)
O4A O -0.5841(4) -1.0270(4) -0.1707(4)
O6A O -0.2790(4) -1.3095(4) 0.1747(4)
O8A O -0.8998(4) -0.3491(4) -0.0144(3)
O10A O -0.5821(4) -0.5285(4) -0.1691(4)
O12_2 O -1.4922(4) -0.6831(4) 0.1972(3)
O20_2 O -0.8334(5) -0.4043(5) 0.4222(4)
O21A O -0.8673(5) -0.6358(4) 0.4745(3)
O24_2 O -0.9438(5) -0.3433(4) -0.3535(3)
C3A C -0.3052(6) -1.0803(6) 0.1526(5)
C4A C -0.6385(6) -0.7990(5) -0.1766(4)
C5A C -0.3075(6) -0.5778(5) 0.1514(5)
C5A_2 C -1.3075(6) -0.5778(5) 0.1514(5)
C6_2 C -0.3642(6) -0.6990(6) 0.1758(4)
C6A C -0.6358(6) -0.3010(6) -0.1758(4)
C9A C -1.0016(6) -0.5524(6) -0.3129(4)
C10_2 C -0.9696(6) -1.4454(5) 0.7159(4)
C10A C -1.0304(6) -0.5546(5) 0.2841(4)
loop_
_geom_bond_atom_site_label_1
_geom_bond_atom_site_label_2
_geom_bond_site_symmetry_1
_geom_bond_site_symmetry_2
Zn1 O1 1_555 1_555
Zn2 O1 1_555 1_555
Zn3 O3 1_555 1_555
Zn4 O9 1_555 1_555
Zn5 O15 1_555 1_555
P1 O1 1_555 1_555
P2 O7 1_555 1_555
P3 O13 1_555 1_555
P4 O19 1_555 1_555
O2 Zn1 1_555 1_555
O3 P1 1_555 1_555
O4 Zn3 1_555 1_555
O5 Zn3 1_555 1_555
O6 Zn2 1_555 1_555
O7 Zn2 1_555 1_555
O8 Zn1 1_555 1_555
O9 P2 1_555 1_555
O10 Zn4 1_555 1_555
O11 Zn1 1_555 1_555
O12 Zn4 1_555 1_555
O13 Zn3 1_555 1_555
O14 P3 1_555 1_555
O15 P3 1_555 1_555
O16 C7 1_555 1_555
O17 Zn1 1_555 1_555
O18 Zn5 1_555 1_555
O19 Zn4 1_555 1_555
O20 Zn5 1_555 1_555
O21 Zn5 1_555 1_555
O22 C9 1_555 1_555
O23 Zn2 1_555 1_555
O24 Zn5 1_555 1_555
O25 Zn3 1_555 1_555
O26 Zn4 1_555 1_555
N1 C1 1_555 1_555
C1 C2 1_555 1_555
C3 P1 1_555 1_555
H1 C3 1_555 1_555
C4 O5 1_555 1_555
C5 P2 1_555 1_555
H2 C5 1_555 1_555
C6 O11 1_555 1_555
C7 P3 1_555 1_555
H3 C7 1_555 1_555
C8 O17 1_555 1_555
C9 P4 1_555 1_555
H4 C9 1_555 1_555
C10 O23 1_555 1_555
P1A O2 1_555 1_555
P2A O8 1_555 1_555
P4_2 O20 1_555 1_555
P4A O21 1_555 1_555
O2A P1 1_555 1_555
O4A C3 1_555 1_555
O6A C4 1_555 1_555
O8A P2 1_555 1_555
O10A C5 1_555 1_555
O12_2 C6 1_555 1_555
O20_2 P4 1_555 1_555
O21A P4 1_555 1_555
O24_2 C10 1_555 1_555
C1A C1 1_555 1_555
C3A O4 1_555 1_555
C4A O6 1_555 1_555
C5A O10 1_555 1_555
C5A_2 C6 1_555 1_555
C6_2 O12 1_555 1_555
C6A C5 1_555 1_555
C9A C10 1_555 1_555
C10_2 O24 1_555 1_555
C10A C9 1_555 1_555
Zn2 O8 1_555 1_555
O18 C8 1_555 1_555
C3 C4A 1_555 1_555
C4 C3A 1_555 1_555
C7 C8 1_555 1_555
P2A C5A_2 1_555 1_555
C5A C6_2 1_555 1_555

#END
