
#######################################################################
#
#                 Cambridge Crystallographic Data Centre
#                                CCDC 
#
#######################################################################
#
# If this CIF has been generated from an entry in the Cambridge 
# Structural Database, then it will include bibliographic, chemical, 
# crystal, experimental, refinement or atomic coordinate data resulting 
# from the CCDC's data processing and validation procedures.
#
#######################################################################

data_AZAFIS
_chemical_formula_moiety         '(C26 H20 Br4 Ca2 N2 O12)n'
_symmetry_cell_setting           triclinic
_symmetry_space_group_name_H-M   'P -1'
_symmetry_Int_Tables_number      2
_space_group_name_Hall           '-P 1'
loop_
_symmetry_equiv_pos_site_id
_symmetry_equiv_pos_as_xyz
1 x,y,z
2 -x,-y,-z
_cell_length_a                   7.7834(4)
_cell_length_b                   10.1301(5)
_cell_length_c                   10.3277(8)
_cell_angle_alpha                103.873(5)
_cell_angle_beta                 91.797(5)
_cell_angle_gamma                90.935(4)
_cell_volume                     789.923
loop_
_atom_site_label
_atom_site_type_symbol
_atom_site_fract_x
_atom_site_fract_y
_atom_site_fract_z
Br1 Br 0.00374(7) 0.21483(4) 0.09376(5)
O1 O 0.0107(3) 0.4873(3) 0.3542(2)
O2 O 0.2692(3) 0.5465(3) 0.3064(3)
C1 C -0.0029(5) 0.3828(4) 0.0436(4)
C2 C 0.0578(4) 0.5006(3) 0.1299(3)
C3 C 0.1165(4) 0.5108(3) 0.2729(3)
C4 C -0.0604(5) 0.3808(4) -0.0853(4)
H1 H -0.1008 0.2998 -0.1420
Br2 Br 0.17285(5) -0.01353(4) 0.29075(5)
C5 C 0.4371(4) 0.1228(3) 0.4776(4)
O3 O 0.4844(3) 0.3470(2) 0.4514(3)
C6 C 0.4218(4) -0.1221(3) 0.4356(4)
H2 H 0.3681 -0.2039 0.3913
O4 O 0.2189(3) 0.2843(2) 0.4819(3)
C7 C 0.3744(4) 0.2604(3) 0.4672(4)
C8 C 0.3610(4) -0.0012(3) 0.4149(4)
O5 O 0.1298(4) 0.7564(3) 0.5784(4)
O6 O 0.3784(4) 0.4979(3) 0.7420(3)
Ca1 Ca 0.25016(8) 0.53263(7) 0.54032(7)
H3 H 0.035(7) 0.764(5) 0.574(6)
H4 H 0.350(6) 0.435(5) 0.772(5)
H5 H 0.486(6) 0.489(5) 0.734(5)
H6 H 0.164(7) 0.821(4) 0.550(5)
Br1A Br -0.00374(7) 0.78517(4) -0.09376(5)
O1A O -0.0107(3) 0.5127(3) -0.3542(2)
O2A O -0.2692(3) 0.4535(3) -0.3064(3)
C1A C 0.0029(5) 0.6172(4) -0.0436(4)
C2A C -0.0578(4) 0.4994(3) -0.1299(3)
C3A C -0.1165(4) 0.4892(3) -0.2729(3)
C4A C 0.0604(5) 0.6192(4) 0.0853(4)
H1A H 0.1008 0.7002 0.1420
Br2A Br 0.82715(5) 0.01353(4) 0.70925(5)
C5A C 0.5629(4) -0.1228(3) 0.5224(4)
O3A O 0.5156(3) -0.3470(2) 0.5486(3)
C6A C 0.5782(4) 0.1221(3) 0.5644(4)
H2A H 0.6319 0.2039 0.6087
O4A O 0.7811(3) -0.2843(2) 0.5181(3)
C7A C 0.6256(4) -0.2604(3) 0.5328(4)
C8A C 0.6390(4) 0.0012(3) 0.5851(4)
O5A O -0.1298(4) 0.2436(3) -0.5784(4)
O6A O -0.3784(4) 0.5021(3) -0.7420(3)
Ca1A Ca -0.25016(8) 0.46737(7) -0.54032(7)
H3A H -0.035(7) 0.236(5) -0.574(6)
H4A H -0.350(6) 0.565(5) -0.772(5)
H5A H -0.486(6) 0.511(5) -0.734(5)
H6A H -0.164(7) 0.179(4) -0.550(5)
O1_2 O 0.0107(3) 0.4873(3) -0.6458(2)
O1A_2 O -0.0107(3) 0.5127(3) 0.6458(2)
O3_2 O -0.5156(3) 0.3470(2) -0.5486(3)
O3A_2 O -0.4844(3) 0.6530(2) -0.4514(3)
O3A_3 O 0.5156(3) 0.6530(2) 0.5486(3)
O4A_2 O -0.2189(3) 0.7157(2) -0.4819(3)
Ca1_2 Ca 0.25016(8) -0.46737(7) 0.54032(7)
Ca1_3 Ca 0.25016(8) 0.53263(7) -0.45968(7)
Ca1A_2 Ca -0.25016(8) 0.46737(7) 0.45968(7)
Ca1A_3 Ca 0.74984(8) -0.53263(7) 0.45968(7)
Ca1A_4 Ca 0.74984(8) 0.46737(7) 0.45968(7)
C9 C 0.4691(5) 0.0561(4) -0.0297(5)
C10 C 0.3087(6) 0.1397(5) -0.1931(5)
H7 H 0.2350 0.1203 -0.2683
N1 N 0.3560(5) 0.2680(4) -0.1428(4)
C11 C 0.3611(6) 0.0322(5) -0.1419(5)
H8 H 0.3237 -0.0560 -0.1828
C12 C 0.4571(7) 0.2897(5) -0.0339(6)
H9 H 0.4915 0.3790 0.0056
C13 C 0.5151(7) 0.1896(5) 0.0253(6)
H10 H 0.5854 0.2125 0.1023
C9A C 0.5309(5) -0.0561(4) 0.0297(5)
C10A C 0.6913(6) -0.1397(5) 0.1931(5)
H7A H 0.7650 -0.1203 0.2683
N1A N 0.6440(5) -0.2680(4) 0.1428(4)
C11A C 0.6389(6) -0.0322(5) 0.1419(5)
H8A H 0.6763 0.0560 0.1828
C12A C 0.5429(7) -0.2897(5) 0.0339(6)
H9A H 0.5085 -0.3790 -0.0056
C13A C 0.4849(7) -0.1896(5) -0.0253(6)
H10A H 0.4146 -0.2125 -0.1023
loop_
_geom_bond_atom_site_label_1
_geom_bond_atom_site_label_2
_geom_bond_site_symmetry_1
_geom_bond_site_symmetry_2
Br1 C1 1_555 1_555
O1 C3 1_555 1_555
O2 C3 1_555 1_555
C1 C2 1_555 1_555
C2 C3 1_555 1_555
C4 C1 1_555 1_555
H1 C4 1_555 1_555
Br2 C8 1_555 1_555
C5 C7 1_555 1_555
O3 C7 1_555 1_555
C6 H2 1_555 1_555
O4 C7 1_555 1_555
C8 C5 1_555 1_555
O5 Ca1 1_555 1_555
O6 Ca1 1_555 1_555
Ca1 O1 1_555 1_555
H3 O5 1_555 1_555
H4 O6 1_555 1_555
H5 O6 1_555 1_555
H6 O5 1_555 1_555
C9 C11 1_555 1_555
C10 H7 1_555 1_555
N1 C10 1_555 1_555
C11 C10 1_555 1_555
H8 C11 1_555 1_555
C12 N1 1_555 1_555
H9 C12 1_555 1_555
C13 C9 1_555 1_555
H10 C13 1_555 1_555
Br1A C1A 1_555 1_555
O1A C3A 1_555 1_555
O2A C3A 1_555 1_555
C1A C2A 1_555 1_555
C2A C4 1_555 1_555
C3A C2A 1_555 1_555
C4A C2 1_555 1_555
H1A C4A 1_555 1_555
Br2A C8A 1_555 1_555
C5A C6 1_555 1_555
O3A C7A 1_555 1_555
C6A C5 1_555 1_555
H2A C6A 1_555 1_555
O4A C7A 1_555 1_555
C7A C5A 1_555 1_555
C8A C5A 1_555 1_555
O5A Ca1A 1_555 1_555
O6A Ca1A 1_555 1_555
Ca1A O1A 1_555 1_555
H3A O5A 1_555 1_555
H4A O6A 1_555 1_555
H5A O6A 1_555 1_555
H6A O5A 1_555 1_555
O1_2 Ca1A 1_555 1_555
O1A_2 Ca1 1_555 1_555
O3_2 Ca1A 1_555 1_555
O3A_2 Ca1A 1_555 1_555
O3A_3 Ca1 1_555 1_555
O4A_2 Ca1A 1_555 1_555
Ca1_2 O3A 1_555 1_555
Ca1_3 O1A 1_555 1_555
Ca1A_2 O1 1_555 1_555
Ca1A_3 O3A 1_555 1_555
Ca1A_4 O3 1_555 1_555
C9A C9 1_555 1_555
C10A H7A 1_555 1_555
N1A C10A 1_555 1_555
C11A C9A 1_555 1_555
H8A C11A 1_555 1_555
C12A N1A 1_555 1_555
H9A C12A 1_555 1_555
C13A C9A 1_555 1_555
H10A C13A 1_555 1_555
O2 Ca1 1_555 1_555
O3 Ca1 1_555 1_555
C6 C8 1_555 1_555
O4 Ca1 1_555 1_555
C12 C13 1_555 1_555
O2A Ca1A 1_555 1_555
C1A C4A 1_555 1_555
C6A C8A 1_555 1_555
O4A Ca1A_3 1_555 1_555
O1_2 Ca1_3 1_555 1_555
O1A_2 Ca1A_2 1_555 1_555
O3A_3 Ca1A_4 1_555 1_555
C10A C11A 1_555 1_555
C12A C13A 1_555 1_555

#END
