
#######################################################################
#
#                 Cambridge Crystallographic Data Centre
#                                CCDC 
#
#######################################################################
#
# If this CIF has been generated from an entry in the Cambridge 
# Structural Database, then it will include bibliographic, chemical, 
# crystal, experimental, refinement or atomic coordinate data resulting 
# from the CCDC's data processing and validation procedures.
#
#######################################################################

data_IROVAO
_chemical_formula_moiety         '(C4 H8 O30 P8 U5 3-)n'
_symmetry_cell_setting           triclinic
_symmetry_space_group_name_H-M   'P -1'
_symmetry_Int_Tables_number      2
_space_group_name_Hall           '-P 1'
loop_
_symmetry_equiv_pos_site_id
_symmetry_equiv_pos_as_xyz
1 x,y,z
2 -x,-y,-z
_cell_length_a                   9.4617(12)
_cell_length_b                   11.2772(14)
_cell_length_c                   11.3489(12)
_cell_angle_alpha                79.254(4)
_cell_angle_beta                 65.726(4)
_cell_angle_gamma                80.143(4)
_cell_volume                     1078.47
loop_
_atom_site_label
_atom_site_type_symbol
_atom_site_fract_x
_atom_site_fract_y
_atom_site_fract_z
U1 U 0.69850(4) 0.44431(3) 0.04771(4)
U2 U 0.27962(4) 0.96850(3) 0.02627(4)
P1 P 0.6346(3) 0.6190(2) -0.2404(3)
P2 P 0.5521(3) 0.7508(2) -0.0157(3)
P3 P 0.0119(3) 1.2063(2) -0.0432(3)
O1 O 0.3806(8) 0.7377(6) 0.0089(7)
O2 O 0.6221(8) 0.6532(6) 0.0604(7)
O3 O 0.2037(9) 1.5094(7) -0.1816(7)
P4 P 0.0836(3) 1.4605(2) -0.2135(3)
O4 O 0.5445(8) 0.8804(6) 0.0151(7)
O5 O -0.0844(8) 1.4996(6) -0.1265(7)
O6 O 0.6100(9) 0.5167(6) -0.1245(7)
O7 O 0.3400(10) 0.9732(7) -0.1447(8)
O8 O -0.1199(9) 1.2862(6) 0.0459(7)
O9 O 0.1256(9) 1.1457(7) 0.0203(7)
O10 O 0.2278(9) 0.9674(7) 0.1970(8)
O11 O 0.4749(9) 0.6457(7) -0.2506(7)
O12 O -0.0539(9) 1.1137(7) -0.0816(8)
O13 O 0.7669(9) 0.5940(7) -0.3668(8)
O14 O 0.1111(9) 1.5043(7) -0.3549(8)
C1 C 0.6709(12) 0.7480(9) -0.1870(10)
H1 H 0.7802 0.7422 -0.2018
H2 H 0.6461 0.8224 -0.2366
C2 C 0.1151(13) 1.2993(10) -0.1967(11)
H3 H 0.2258 1.2774 -0.2181
H4 H 0.0923 1.2738 -0.2635
U3 U 1.0000 0.5000 -0.5000
O15 O 1.0630(10) 0.6453(8) -0.5811(8)
U1A U -0.69850(4) 1.55569(3) -0.04771(4)
U2A U -0.27962(4) 1.03150(3) -0.02627(4)
P1A P -0.6346(3) 1.3810(2) 0.2404(3)
P2A P -0.5521(3) 1.2492(2) 0.0157(3)
P3A P -0.0119(3) 0.7937(2) 0.0432(3)
O1A O -0.3806(8) 1.2623(6) -0.0089(7)
O2A O -0.6221(8) 1.3468(6) -0.0604(7)
O3A O -0.2037(9) 0.4906(7) 0.1816(7)
P4A P -0.0836(3) 0.5395(2) 0.2135(3)
O4A O -0.5445(8) 1.1196(6) -0.0151(7)
O5A O 0.0844(8) 0.5004(6) 0.1265(7)
O6A O -0.6100(9) 1.4833(6) 0.1245(7)
O7A O -0.3400(10) 1.0268(7) 0.1447(8)
O8A O 0.1199(9) 0.7138(6) -0.0459(7)
O9A O -0.1256(9) 0.8543(7) -0.0203(7)
O10A O -0.2278(9) 1.0326(7) -0.1970(8)
O11A O -0.4749(9) 1.3543(7) 0.2506(7)
O12A O 0.0539(9) 0.8863(7) 0.0816(8)
O13A O -0.7669(9) 1.4060(7) 0.3668(8)
O14A O -0.1111(9) 0.4957(7) 0.3549(8)
C1A C -0.6709(12) 1.2520(9) 0.1870(10)
H1A H -0.7802 1.2578 0.2018
H2A H -0.6461 1.1776 0.2366
C2A C -0.1151(13) 0.7007(10) 0.1967(11)
H3A H -0.2258 0.7226 0.2181
H4A H -0.0923 0.7262 0.2635
O15A O 0.9370(10) 0.3547(8) -0.4189(8)
U1_2 U -0.30150(4) 0.44431(3) 0.04771(4)
U1_3 U -0.30150(4) 1.44431(3) 0.04771(4)
U1A_2 U 0.30150(4) 0.55569(3) -0.04771(4)
U1A_3 U 0.30150(4) 1.55569(3) -0.04771(4)
U2_2 U -0.72038(4) 0.96850(3) 0.02627(4)
U2A_2 U 0.72038(4) 1.03150(3) -0.02627(4)
O1_2 O -0.6194(8) 1.7377(6) 0.0089(7)
O1A_2 O 0.6194(8) 0.2623(6) -0.0089(7)
O3_2 O -0.7963(9) 1.5094(7) -0.1816(7)
O3A_2 O 0.7963(9) 0.4906(7) 0.1816(7)
O4_2 O -0.4555(8) 0.8804(6) 0.0151(7)
O4A_2 O 0.4555(8) 1.1196(6) -0.0151(7)
O5_2 O 0.9156(8) 0.4996(6) -0.1265(7)
O5A_2 O -0.9156(8) 1.5004(6) 0.1265(7)
O6_2 O -0.3900(9) 1.5167(6) -0.1245(7)
O6A_2 O 0.3900(9) 0.4833(6) 0.1245(7)
O8_2 O 0.8801(9) 0.2862(6) 0.0459(7)
O8A_2 O -0.8801(9) 1.7138(6) -0.0459(7)
O11_2 O -0.5251(9) 1.6457(7) -0.2506(7)
O11A_2 O 0.5251(9) 0.3543(7) 0.2506(7)
O13A_2 O 1.2331(9) 0.4060(7) -0.6332(8)
O14_2 O 1.1111(9) 0.5043(7) -0.3549(8)
O14A_2 O 0.8889(9) 0.4957(7) -0.6451(8)
U3_2 U -1.0000 1.5000 0.5000
U3_3 U 0.0000 0.5000 0.5000
U3_4 U 0.0000 1.5000 -0.5000
loop_
_geom_bond_atom_site_label_1
_geom_bond_atom_site_label_2
_geom_bond_site_symmetry_1
_geom_bond_site_symmetry_2
U1 O2 1_555 1_555
U2 O1 1_555 1_555
P1 O6 1_555 1_555
P2 O1 1_555 1_555
P3 O8 1_555 1_555
O1 U1A_2 1_555 1_555
O2 P2 1_555 1_555
O3 P4 1_555 1_555
P4 O5 1_555 1_555
O4 U2 1_555 1_555
O5 U1_3 1_555 1_555
O6 U1 1_555 1_555
O7 U2 1_555 1_555
O8 U1_3 1_555 1_555
O9 U2 1_555 1_555
O10 U2 1_555 1_555
O11 P1 1_555 1_555
O12 P3 1_555 1_555
O13 P1 1_555 1_555
O14 P4 1_555 1_555
C1 P1 1_555 1_555
H1 C1 1_555 1_555
H2 C1 1_555 1_555
C2 P3 1_555 1_555
H3 C2 1_555 1_555
H4 C2 1_555 1_555
U3 O13 1_555 1_555
O15 U3 1_555 1_555
U1A O2A 1_555 1_555
U2A O12 1_555 1_555
P1A O6A 1_555 1_555
P2A O1A 1_555 1_555
P3A O8A 1_555 1_555
O1A U2A 1_555 1_555
O2A P2A 1_555 1_555
O3A P4A 1_555 1_555
P4A O5A 1_555 1_555
O4A U2A 1_555 1_555
O5A U1A_2 1_555 1_555
O6A U1A 1_555 1_555
O7A U2A 1_555 1_555
O8A U1A_2 1_555 1_555
O9A U2A 1_555 1_555
O10A U2A 1_555 1_555
O11A P1A 1_555 1_555
O12A U2 1_555 1_555
O13A P1A 1_555 1_555
O14A P4A 1_555 1_555
C1A P1A 1_555 1_555
H1A C1A 1_555 1_555
H2A C1A 1_555 1_555
C2A P3A 1_555 1_555
H3A C2A 1_555 1_555
H4A C2A 1_555 1_555
O15A U3 1_555 1_555
U1_2 O3A 1_555 1_555
U1_3 O1A 1_555 1_555
U1A_2 O6 1_555 1_555
U1A_3 O3 1_555 1_555
U2_2 O4A 1_555 1_555
U2A_2 O4 1_555 1_555
O1_2 U1A 1_555 1_555
O1A_2 U1 1_555 1_555
O3_2 U1A 1_555 1_555
O3A_2 U1 1_555 1_555
O4_2 U2A 1_555 1_555
O4A_2 U2 1_555 1_555
O5_2 U1 1_555 1_555
O5A_2 U1A 1_555 1_555
O6_2 U1A 1_555 1_555
O6A_2 U1 1_555 1_555
O8_2 U1 1_555 1_555
O8A_2 U1A 1_555 1_555
O11_2 U1A 1_555 1_555
O11A_2 U1 1_555 1_555
O13A_2 U3 1_555 1_555
O14_2 U3 1_555 1_555
O14A_2 U3 1_555 1_555
U3_2 O13A 1_555 1_555
U3_3 O14A 1_555 1_555
U3_4 O14 1_555 1_555
P2 O4 1_555 1_555
P2 C1 1_555 1_555
P3 O9 1_555 1_555
P4 C2 1_555 1_555
O11 U1A_2 1_555 1_555
P2A O4A 1_555 1_555
P2A C1A 1_555 1_555
P3A O9A 1_555 1_555
P3A O12A 1_555 1_555
P4A C2A 1_555 1_555
O6A U1_3 1_555 1_555
O11A U1_3 1_555 1_555
U1_3 O6_2 1_555 1_555
U1A_2 O6A_2 1_555 1_555
U2_2 O4_2 1_555 1_555
U2A_2 O4A_2 1_555 1_555

#END
