
#######################################################################
#
#                 Cambridge Crystallographic Data Centre
#                                CCDC 
#
#######################################################################
#
# If this CIF has been generated from an entry in the Cambridge 
# Structural Database, then it will include bibliographic, chemical, 
# crystal, experimental, refinement or atomic coordinate data resulting 
# from the CCDC's data processing and validation procedures.
#
#######################################################################

data_LACYIA
_chemical_formula_moiety         '(C156 H98 N12 Na6 O64 Pr2 Zn3 6-)n'
_symmetry_cell_setting           trigonal
_symmetry_space_group_name_H-M   'P 3 2 1'
_symmetry_Int_Tables_number      150
_space_group_name_Hall           'P 3 2"'
loop_
_symmetry_equiv_pos_site_id
_symmetry_equiv_pos_as_xyz
1 x,y,z
2 -y,x-y,z
3 -x+y,-x,z
4 y,x,-z
5 x-y,-y,-z
6 -x,-x+y,-z
_cell_length_a                   23.4820(8)
_cell_length_b                   23.4820(8)
_cell_length_c                   16.3180(5)
_cell_angle_alpha                90
_cell_angle_beta                 90
_cell_angle_gamma                120
_cell_volume                     7792.34
loop_
_atom_site_label
_atom_site_type_symbol
_atom_site_fract_x
_atom_site_fract_y
_atom_site_fract_z
O12 O 0.51532(19) 0.52995(18) 1.0889(2)
H16 H 0.4889 0.5440 1.0938
H17 H 0.4914 0.4891 1.0820
Pr1 Pr 0.6667 0.3333 1.03450(2)
Zn1 Zn 0.63129(2) 0.63129(2) 0.5000
Na1 Na 0.51045(7) 0.37255(6) 1.00301(8)
O1 O 0.54178(17) 0.54178(17) 0.5000
H1 H 0.5417 0.5014 0.5045
O2 O 0.76382(10) 0.45435(11) 0.07162(13)
O3 O 0.64635(11) 0.40030(12) 0.94429(15)
O4 O 0.67177(11) 0.41461(11) 0.14203(14)
O5 O 0.88844(12) 0.57012(13) 0.89887(17)
O6 O 0.57534(16) 0.42793(18) 0.89489(16)
O7 O 0.9622(3) 0.6864(3) 0.3106(3)
O8 O 0.96978(14) 0.63934(18) 0.1988(2)
O9 O 0.9092(3) 0.6119(3) 0.7678(4)
H2 H 0.9692 0.6618 0.7871
N1 N 0.69653(14) 0.59674(14) 0.51126(16)
N2 N 0.64872(13) 0.63940(13) 0.37512(15)
C1 C 0.76552(16) 0.51118(15) 0.19261(19)
C2 C 0.68340(16) 0.61737(16) 0.3310(2)
C3 C 0.7315(2) 0.45665(14) 0.13084(17)
C4 C 0.6793(2) 0.6280(2) 0.2459(2)
H3 H 0.6989 0.6168 0.2025
C5 C 0.72769(17) 0.52269(17) 0.2499(2)
H4 H 0.6812 0.4958 0.2500
C6 C 0.71236(17) 0.57666(17) 0.5832(2)
C7 C 0.68474(17) 0.48675(17) 0.8480(2)
C8 C 0.71881(17) 0.58942(16) 0.36596(19)
C9 C 0.7509(2) 0.50864(15) 0.86405(19)
H5 H 0.7627 0.4900 0.9080
C10 C 0.71601(16) 0.56071(17) 0.73235(19)
C11 C 0.66794(17) 0.51331(17) 0.78269(19)
H6 H 0.6229 0.4989 0.7722
C12 C 0.72320(16) 0.57864(17) 0.4490(2)
C13 C 0.75854(17) 0.57354(17) 0.3066(2)
C14 C 0.78197(18) 0.58311(18) 0.75029(19)
H7 H 0.8154 0.6163 0.7172
C15 C 0.75416(19) 0.54417(19) 0.4821(2)
H8 H 0.7758 0.5259 0.4518
C16 C 0.69562(17) 0.58737(18) 0.6617(2)
C17 C 0.83277(17) 0.54860(18) 0.1955(2)
H9 H 0.8585 0.5409 0.1570
C18 C 0.64194(19) 0.6574(2) 0.2382(2)
H10 H 0.6308 0.6707 0.1886
C19 C 0.74684(19) 0.54248(19) 0.5644(2)
H11 H 0.7618 0.5223 0.6026
C20 C 0.82475(17) 0.60884(19) 0.3104(2)
H12 H 0.8453 0.6416 0.3515
C21 C 0.63189(17) 0.43456(18) 0.9000(2)
C22 C 0.9371(2) 0.6403(2) 0.2584(3)
C23 C 0.79917(17) 0.55730(19) 0.8162(2)
C24 C 0.86386(18) 0.59781(19) 0.2542(2)
C25 C 0.62289(17) 0.66429(17) 0.3190(2)
C26 C 0.87009(19) 0.5838(2) 0.8373(3)
O10 O 0.5821(2) 0.4562(2) 1.0942(3)
H13 H 0.6086 0.4438 1.1078
H14 H 0.5754 0.4813 1.1239
O11 O 0.43383(15) 0.39323(15) 1.06586(17)
H15 H 0.4111 0.3737 1.1073
H1C H 0.5014 0.5417 0.4955
O2C O 0.45435(11) 0.76382(10) 0.92838(13)
O3C O 0.40030(12) 0.64635(11) 0.05571(15)
O4C O 0.41461(11) 0.67177(11) 0.85797(14)
O5C O 0.57012(13) 0.88844(12) 0.10113(17)
O6C O 0.42793(18) 0.57534(16) 0.10511(16)
O7C O 0.6864(3) 0.9622(3) 0.6894(3)
O8C O 0.63934(18) 0.96978(14) 0.8012(2)
O9C O 0.6119(3) 0.9092(3) 0.2322(4)
H2C H 0.6618 0.9692 0.2129
N1C N 0.59674(14) 0.69653(14) 0.48874(16)
N2C N 0.63940(13) 0.64872(13) 0.62488(15)
C1C C 0.51118(15) 0.76552(16) 0.80739(19)
C2C C 0.61737(16) 0.68340(16) 0.6690(2)
C3C C 0.45665(14) 0.7315(2) 0.86916(17)
C4C C 0.6280(2) 0.6793(2) 0.7541(2)
H3C H 0.6168 0.6989 0.7975
C5C C 0.52269(17) 0.72769(17) 0.7501(2)
H4C H 0.4958 0.6812 0.7500
C6C C 0.57666(17) 0.71236(17) 0.4168(2)
C7C C 0.48675(17) 0.68474(17) 0.1520(2)
C8C C 0.58942(16) 0.71881(17) 0.63404(19)
C9C C 0.50864(15) 0.7509(2) 0.13595(19)
H5C H 0.4900 0.7627 0.0920
C10C C 0.56071(17) 0.71601(16) 0.26765(19)
C11C C 0.51331(17) 0.66794(17) 0.21731(19)
H6C H 0.4989 0.6229 0.2278
C12C C 0.57864(17) 0.72320(16) 0.5510(2)
C13C C 0.57354(17) 0.75854(17) 0.6934(2)
C14C C 0.58311(18) 0.78197(18) 0.24971(19)
H7C H 0.6163 0.8154 0.2828
C15C C 0.54417(19) 0.75416(19) 0.5179(2)
H8C H 0.5259 0.7758 0.5482
C16C C 0.58737(18) 0.69562(17) 0.3383(2)
C17C C 0.54860(18) 0.83277(17) 0.8045(2)
H9C H 0.5409 0.8585 0.8430
C18C C 0.6574(2) 0.64194(19) 0.7618(2)
H10C H 0.6707 0.6308 0.8114
C19C C 0.54248(19) 0.74684(19) 0.4356(2)
H11C H 0.5223 0.7618 0.3974
C20C C 0.60884(19) 0.82475(17) 0.6896(2)
H12C H 0.6416 0.8453 0.6485
C21C C 0.43456(18) 0.63189(17) 0.1000(2)
C22C C 0.6403(2) 0.9371(2) 0.7416(3)
C23C C 0.55730(19) 0.79917(17) 0.1838(2)
C24C C 0.59781(19) 0.86386(18) 0.7458(2)
C25C C 0.66429(17) 0.62289(17) 0.6810(2)
C26C C 0.5838(2) 0.87009(19) 0.1627(3)
Zn1A Zn 0.36871(2) 0.00000(3) 0.5000
Na1A Na 0.62745(6) 0.13790(9) 1.00301(8)
O1A O 0.45822(17) 0.00000(24) 0.5000
H1A H 0.4986 0.0403 0.5045
O2A O 0.54565(11) 0.30947(15) 0.07162(13)
O3A O 0.59970(12) 0.24605(16) 0.94429(15)
O4A O 0.58539(11) 0.25716(16) 0.14203(14)
O5A O 0.42988(13) 0.31832(18) 0.89887(17)
O6A O 0.57207(18) 0.14741(24) 0.89489(16)
O7A O 0.3136(3) 0.2758(4) 0.3106(3)
O8A O 0.36066(18) 0.33044(23) 0.1988(2)
O9A O 0.3881(3) 0.2973(4) 0.7678(4)
H2A H 0.3382 0.3074 0.7871
N1A N 0.40326(14) 0.09979(20) 0.51126(16)
N2A N 0.36060(13) 0.00932(18) 0.37512(15)
C1A C 0.48882(15) 0.25434(22) 0.19261(19)
C2A C 0.38263(16) 0.06603(23) 0.3310(2)
C3A C 0.54335(14) 0.27485(24) 0.13084(17)
C4A C 0.3720(2) 0.0513(3) 0.2459(2)
H3A H 0.3832 0.0821 0.2025
C5A C 0.47731(17) 0.20500(24) 0.2499(2)
H4A H 0.5042 0.1854 0.2500
C6A C 0.42334(17) 0.13570(24) 0.5832(2)
C7A C 0.51325(17) 0.19799(24) 0.8480(2)
C8A C 0.41058(16) 0.12939(23) 0.36596(19)
C9A C 0.49136(15) 0.24226(25) 0.86405(19)
H5A H 0.5100 0.2727 0.9080
C10A C 0.43929(17) 0.15530(23) 0.73235(19)
C11A C 0.48669(17) 0.15463(24) 0.78269(19)
H6A H 0.5011 0.1240 0.7722
C12A C 0.42136(17) 0.14456(23) 0.4490(2)
C13A C 0.42646(17) 0.18500(24) 0.3066(2)
C14A C 0.41689(18) 0.19886(25) 0.75029(19)
H7A H 0.3837 0.1991 0.7172
C15A C 0.45583(19) 0.20999(27) 0.4821(2)
H8A H 0.4741 0.2499 0.4518
C16A C 0.41263(18) 0.10825(25) 0.6617(2)
C17A C 0.45140(18) 0.28417(25) 0.1955(2)
H9A H 0.4591 0.3176 0.1570
C18A C 0.3426(2) -0.01546(28) 0.2382(2)
H10A H 0.3293 -0.0399 0.1886
C19A C 0.45752(19) 0.20436(27) 0.5644(2)
H11A H 0.4777 0.2395 0.6026
C20A C 0.39116(19) 0.21591(25) 0.3104(2)
H12A H 0.3584 0.2037 0.3515
C21A C 0.56544(18) 0.19733(25) 0.9000(2)
C22A C 0.3597(2) 0.2968(3) 0.2584(3)
C23A C 0.44270(19) 0.24187(25) 0.8162(2)
C24A C 0.40219(19) 0.26605(26) 0.2542(2)
C25A C 0.33571(17) -0.04140(24) 0.3190(2)
C26A C 0.4162(2) 0.28629(28) 0.8373(3)
O10A O 0.5438(2) 0.1259(3) 1.0942(3)
H13A H 0.5562 0.1648 1.1078
H14A H 0.5187 0.0941 1.1239
O11A O 0.60677(15) 0.04060(21) 1.06586(17)
H15A H 0.6263 0.0374 1.1073
H1E H 0.4583 -0.0403 0.4955
O2E O 0.23618(10) -0.30947(15) 0.92838(13)
O3E O 0.35365(11) -0.24605(16) 0.05571(15)
O4E O 0.32823(11) -0.25716(16) 0.85797(14)
O5E O 0.11156(12) -0.31832(18) 0.10113(17)
O6E O 0.42466(16) -0.14741(24) 0.10511(16)
O7E O 0.0378(3) -0.2758(4) 0.6894(3)
O8E O 0.03022(14) -0.33044(23) 0.8012(2)
O9E O 0.0908(3) -0.2973(4) 0.2322(4)
H2E H 0.0308 -0.3074 0.2129
N1E N 0.30347(14) -0.09979(20) 0.48874(16)
N2E N 0.35128(13) -0.00932(18) 0.62488(15)
C1E C 0.23448(16) -0.25434(22) 0.80739(19)
C2E C 0.31660(16) -0.06603(23) 0.6690(2)
C3E C 0.2685(2) -0.27485(24) 0.86916(17)
C4E C 0.3207(2) -0.0513(3) 0.7541(2)
H3E H 0.3011 -0.0821 0.7975
C5E C 0.27231(17) -0.20500(24) 0.7501(2)
H4E H 0.3188 -0.1854 0.7500
C6E C 0.28764(17) -0.13570(24) 0.4168(2)
C7E C 0.31526(17) -0.19799(24) 0.1520(2)
C8E C 0.28119(17) -0.12939(23) 0.63404(19)
C9E C 0.2491(2) -0.24226(25) 0.13595(19)
H5E H 0.2373 -0.2727 0.0920
C10E C 0.28399(16) -0.15530(23) 0.26765(19)
C11E C 0.33206(17) -0.15463(24) 0.21731(19)
H6E H 0.3771 -0.1240 0.2278
C12E C 0.27680(16) -0.14456(23) 0.5510(2)
C13E C 0.24146(17) -0.18500(24) 0.6934(2)
C14E C 0.21803(18) -0.19886(25) 0.24971(19)
H7E H 0.1846 -0.1991 0.2828
C15E C 0.24584(19) -0.20999(27) 0.5179(2)
H8E H 0.2242 -0.2499 0.5482
C16E C 0.30438(17) -0.10825(25) 0.3383(2)
C17E C 0.16723(17) -0.28417(25) 0.8045(2)
H9E H 0.1415 -0.3176 0.8430
C18E C 0.35806(19) 0.01546(28) 0.7618(2)
H10E H 0.3692 0.0399 0.8114
C19E C 0.25316(19) -0.20436(27) 0.4356(2)
H11E H 0.2382 -0.2395 0.3974
C20E C 0.17525(17) -0.21591(25) 0.6896(2)
H12E H 0.1547 -0.2037 0.6485
C21E C 0.36811(17) -0.19733(25) 0.1000(2)
C22E C 0.0629(2) -0.2968(3) 0.7416(3)
C23E C 0.20083(17) -0.24187(25) 0.1838(2)
C24E C 0.13614(18) -0.26605(26) 0.7458(2)
C25E C 0.37711(17) 0.04140(24) 0.6810(2)
C26E C 0.12991(19) -0.28629(28) 0.1627(3)
Na1B Na 0.86210(9) 0.48955(7) 1.00301(8)
O10B O 0.8741(3) 0.4179(2) 1.0942(3)
H13B H 0.8352 0.3914 1.1078
H14B H 0.9059 0.4246 1.1239
O11B O 0.95940(21) 0.56617(15) 1.06586(17)
H15B H 0.9626 0.5889 1.1073
Pr1C Pr 0.3333 0.6667 -0.03450(2)
Na1C Na 0.37255(6) 0.51045(7) -0.00301(8)
O10C O 0.4562(2) 0.5821(2) -0.0942(3)
H13C H 0.4438 0.6086 -0.1078
H14C H 0.4813 0.5754 -0.1239
O11C O 0.39323(15) 0.43383(15) -0.06586(17)
H15C H 0.3737 0.4111 -0.1073
Zn1B Zn 1.00000(3) 0.36871(2) 1.5000
Na1B_2 Na 0.86210(9) 0.48955(7) 2.00301(8)
O1B O 1.00000(24) 0.45822(17) 1.5000
H1B H 0.9597 0.4583 1.5045
O2B O 0.69053(15) 0.23618(10) 1.07162(13)
O3B O 0.75395(16) 0.35365(11) 1.94429(15)
O4B O 0.74284(16) 0.32823(11) 1.14203(14)
O5B O 0.68168(18) 0.11156(12) 1.89887(17)
O6B O 0.85259(24) 0.42466(16) 1.89489(16)
O7B O 0.7242(4) 0.0378(3) 1.3106(3)
O8B O 0.66956(23) 0.03022(14) 1.1988(2)
O9B O 0.7027(4) 0.0908(3) 1.7678(4)
H2B H 0.6926 0.0308 1.7871
N1B N 0.90021(20) 0.30347(14) 1.51126(16)
N2B N 0.99068(18) 0.35128(13) 1.37512(15)
C1B C 0.74566(22) 0.23448(16) 1.19261(19)
C2B C 0.93397(23) 0.31660(16) 1.3310(2)
C3B C 0.72515(24) 0.2685(2) 1.13084(17)
C4B C 0.9487(3) 0.3207(2) 1.2459(2)
H3B H 0.9179 0.3011 1.2025
C5B C 0.79500(24) 0.27231(17) 1.2499(2)
H4B H 0.8146 0.3188 1.2500
C6B C 0.86430(24) 0.28764(17) 1.5832(2)
C7B C 0.80201(24) 0.31526(17) 1.8480(2)
C8B C 0.87061(23) 0.28119(17) 1.36596(19)
C9B C 0.75774(25) 0.2491(2) 1.86405(19)
H5B H 0.7273 0.2373 1.9080
C10B C 0.84470(23) 0.28399(16) 1.73235(19)
C11B C 0.84537(24) 0.33206(17) 1.78269(19)
H6B H 0.8760 0.3771 1.7722
C12B C 0.85544(23) 0.27680(16) 1.4490(2)
C13B C 0.81500(24) 0.24146(17) 1.3066(2)
C14B C 0.80114(25) 0.21803(18) 1.75029(19)
H7B H 0.8009 0.1846 1.7172
C15B C 0.79001(27) 0.24584(19) 1.4821(2)
H8B H 0.7501 0.2242 1.4518
C16B C 0.89175(25) 0.30438(17) 1.6617(2)
C17B C 0.71583(25) 0.16723(17) 1.1955(2)
H9B H 0.6824 0.1415 1.1570
C18B C 1.01546(28) 0.35806(19) 1.2382(2)
H10B H 1.0399 0.3692 1.1886
C19B C 0.79564(27) 0.25316(19) 1.5644(2)
H11B H 0.7605 0.2382 1.6026
C20B C 0.78409(25) 0.17525(17) 1.3104(2)
H12B H 0.7963 0.1547 1.3515
C21B C 0.80267(25) 0.36811(17) 1.9000(2)
C22B C 0.7032(3) 0.0629(2) 1.2584(3)
C23B C 0.75813(25) 0.20083(17) 1.8162(2)
C24B C 0.73395(26) 0.13614(18) 1.2542(2)
C25B C 1.04140(24) 0.37711(17) 1.3190(2)
C26B C 0.71371(28) 0.12991(19) 1.8373(3)
O10B_2 O 0.8741(3) 0.4179(2) 2.0942(3)
H13B_2 H 0.8352 0.3914 2.1078
H14B_2 H 0.9059 0.4246 2.1239
O11B_2 O 0.95940(21) 0.56617(15) 2.06586(17)
H15B_2 H 0.9626 0.5889 2.1073
H1D H 1.0403 0.4986 1.4955
O2D O 1.30947(15) 0.54565(11) 1.92838(13)
O3D O 1.24605(16) 0.59970(12) 1.05571(15)
O4D O 1.25716(16) 0.58539(11) 1.85797(14)
O5D O 1.31832(18) 0.42988(13) 1.10113(17)
O6D O 1.14741(24) 0.57207(18) 1.10511(16)
O7D O 1.2758(4) 0.3136(3) 1.6894(3)
O8D O 1.33044(23) 0.36066(18) 1.8012(2)
O9D O 1.2973(4) 0.3881(3) 1.2322(4)
H2D H 1.3074 0.3382 1.2129
N1D N 1.09979(20) 0.40326(14) 1.48874(16)
N2D N 1.00932(18) 0.36060(13) 1.62488(15)
C1D C 1.25434(22) 0.48882(15) 1.80739(19)
C2D C 1.06603(23) 0.38263(16) 1.6690(2)
C3D C 1.27485(24) 0.54335(14) 1.86916(17)
C4D C 1.0513(3) 0.3720(2) 1.7541(2)
H3D H 1.0821 0.3832 1.7975
C5D C 1.20500(24) 0.47731(17) 1.7501(2)
H4D H 1.1854 0.5042 1.7500
C6D C 1.13570(24) 0.42334(17) 1.4168(2)
C7D C 1.19799(24) 0.51325(17) 1.1520(2)
C8D C 1.12939(23) 0.41058(16) 1.63404(19)
C9D C 1.24226(25) 0.49136(15) 1.13595(19)
H5D H 1.2727 0.5100 1.0920
C10D C 1.15530(23) 0.43929(17) 1.26765(19)
C11D C 1.15463(24) 0.48669(17) 1.21731(19)
H6D H 1.1240 0.5011 1.2278
C12D C 1.14456(23) 0.42136(17) 1.5510(2)
C13D C 1.18500(24) 0.42646(17) 1.6934(2)
C14D C 1.19886(25) 0.41689(18) 1.24971(19)
H7D H 1.1991 0.3837 1.2828
C15D C 1.20999(27) 0.45583(19) 1.5179(2)
H8D H 1.2499 0.4741 1.5482
C16D C 1.10825(25) 0.41263(18) 1.3383(2)
C17D C 1.28417(25) 0.45140(18) 1.8045(2)
H9D H 1.3176 0.4591 1.8430
C18D C 0.98454(28) 0.3426(2) 1.7618(2)
H10D H 0.9601 0.3293 1.8114
C19D C 1.20436(27) 0.45752(19) 1.4356(2)
H11D H 1.2395 0.4777 1.3974
C20D C 1.21591(25) 0.39116(19) 1.6896(2)
H12D H 1.2037 0.3584 1.6485
C21D C 1.19733(25) 0.56544(18) 1.1000(2)
C22D C 1.2968(3) 0.3597(2) 1.7416(3)
C23D C 1.24187(25) 0.44270(19) 1.1838(2)
C24D C 1.26605(26) 0.40219(19) 1.7458(2)
C25D C 0.95860(24) 0.33571(17) 1.6810(2)
C26D C 1.28629(28) 0.4162(2) 1.1627(3)
Na1B_3 Na 0.86210(9) 0.48955(7) 0.00301(8)
O10B_3 O 0.8741(3) 0.4179(2) 0.0942(3)
H13B_3 H 0.8352 0.3914 0.1078
H14B_3 H 0.9059 0.4246 0.1239
O11B_3 O 0.95940(21) 0.56617(15) 0.06586(17)
H15B_3 H 0.9626 0.5889 0.1073
Pr1_2 Pr 0.6667 0.3333 0.03450(2)
Pr1_3 Pr 0.6667 0.3333 2.03450(2)
Pr1C_2 Pr 0.3333 -0.3333 -0.03450(2)
Pr1C_3 Pr 0.3333 -0.3333 0.96550(2)
Pr1C_4 Pr 0.3333 0.6667 0.96550(2)
Pr1C_5 Pr 1.3333 0.6667 0.96550(2)
Pr1C_6 Pr 1.3333 0.6667 1.96550(2)
Na1_2 Na 0.51045(7) 0.37255(6) 0.00301(8)
Na1A_2 Na 0.62745(6) 0.13790(9) 2.00301(8)
Na1C_2 Na 1.37255(6) 0.51045(7) 0.99699(8)
Na1C_3 Na 1.37255(6) 0.51045(7) 1.99699(8)
Na1D Na 0.13790(9) -0.37255(6) -0.00301(8)
Na1D_2 Na 0.13790(9) -0.37255(6) 0.99699(8)
Na1D_3 Na 1.13790(9) 0.62745(6) 0.99699(8)
Na1E Na 0.48955(7) -0.13790(9) -0.00301(8)
Na1E_2 Na 0.48955(7) 0.86210(9) -0.00301(8)
Na1E_3 Na 0.48955(7) 0.86210(9) 0.99699(8)
O2_2 O 0.76382(10) 0.45435(11) 1.07162(13)
O2_3 O 0.76382(10) 0.45435(11) 2.07162(13)
O2A_2 O 0.54565(11) 0.30947(15) 1.07162(13)
O2C_2 O 0.45435(11) 0.76382(10) -0.07162(13)
O2D_2 O 0.30947(15) 0.54565(11) -0.07162(13)
O2E_2 O 0.23618(10) 0.69053(15) -0.07162(13)
O3B_2 O 0.75395(16) 0.35365(11) 0.94429(15)
O3D_2 O 0.24605(16) 0.59970(12) 0.05571(15)
O3E_2 O 0.35365(11) 0.75395(16) 0.05571(15)
O4_2 O 0.67177(11) 0.41461(11) 1.14203(14)
O4A_2 O 0.58539(11) 0.25716(16) 1.14203(14)
O4C_2 O 0.41461(11) 0.67177(11) -0.14203(14)
O4D_2 O 0.25716(16) 0.58539(11) -0.14203(14)
O4E_2 O 0.32823(11) 0.74284(16) -0.14203(14)
O5_2 O 0.88844(12) 0.57012(13) -0.10113(17)
O5_3 O 0.88844(12) 0.57012(13) 1.89887(17)
O5B_2 O 0.68168(18) 0.11156(12) 0.89887(17)
O5D_2 O 0.31832(18) 0.42988(13) 0.10113(17)
O6B_2 O 0.85259(24) 0.42466(16) -0.10511(16)
O6B_3 O 0.85259(24) 0.42466(16) 0.89489(16)
loop_
_geom_bond_atom_site_label_1
_geom_bond_atom_site_label_2
_geom_bond_site_symmetry_1
_geom_bond_site_symmetry_2
Pr1 O3 1_555 1_555
Zn1 O1 1_555 1_555
Na1 O6 1_555 1_555
O1 H1 1_555 1_555
O2 C3 1_555 1_555
O3 C21 1_555 1_555
O4 C3 1_555 1_555
O5 C26 1_555 1_555
O6 C21 1_555 1_555
O7 C22 1_555 1_555
O8 C22 1_555 1_555
O9 H2 1_555 1_555
N1 Zn1 1_555 1_555
N2 Zn1 1_555 1_555
C1 C3 1_555 1_555
C2 N2 1_555 1_555
C4 C2 1_555 1_555
H3 C4 1_555 1_555
C5 C1 1_555 1_555
H4 C5 1_555 1_555
C6 N1 1_555 1_555
C7 C9 1_555 1_555
C8 C2 1_555 1_555
C9 H5 1_555 1_555
C10 C11 1_555 1_555
C11 C7 1_555 1_555
H6 C11 1_555 1_555
C12 N1 1_555 1_555
C13 C5 1_555 1_555
C14 C10 1_555 1_555
H7 C14 1_555 1_555
C15 C12 1_555 1_555
H8 C15 1_555 1_555
C16 C6 1_555 1_555
C17 C1 1_555 1_555
H9 C17 1_555 1_555
C18 C4 1_555 1_555
H10 C18 1_555 1_555
C19 C6 1_555 1_555
H11 C19 1_555 1_555
C20 C13 1_555 1_555
H12 C20 1_555 1_555
C21 C7 1_555 1_555
C22 C24 1_555 1_555
C23 C9 1_555 1_555
C24 C17 1_555 1_555
C25 N2 1_555 1_555
C26 O9 1_555 1_555
O10 Na1 1_555 1_555
H13 O10 1_555 1_555
H14 O10 1_555 1_555
O11 Na1 1_555 1_555
H15 O11 1_555 1_555
O12 H16 1_555 1_555
H17 O12 1_555 1_555
H1C O1 1_555 1_555
O2C C3C 1_555 1_555
O3C C21C 1_555 1_555
O4C C3C 1_555 1_555
O5C C26C 1_555 1_555
O6C C21C 1_555 1_555
O7C C22C 1_555 1_555
O8C C22C 1_555 1_555
O9C H2C 1_555 1_555
N1C Zn1 1_555 1_555
N2C Zn1 1_555 1_555
C1C C3C 1_555 1_555
C2C N2C 1_555 1_555
C4C C2C 1_555 1_555
H3C C4C 1_555 1_555
C5C C1C 1_555 1_555
H4C C5C 1_555 1_555
C6C N1C 1_555 1_555
C7C C9C 1_555 1_555
C8C C2C 1_555 1_555
C9C H5C 1_555 1_555
C10C C11C 1_555 1_555
C11C C7C 1_555 1_555
H6C C11C 1_555 1_555
C12C N1C 1_555 1_555
C13C C5C 1_555 1_555
C14C C10C 1_555 1_555
H7C C14C 1_555 1_555
C15C C12C 1_555 1_555
H8C C15C 1_555 1_555
C16C C25 1_555 1_555
C17C C1C 1_555 1_555
H9C C17C 1_555 1_555
C18C C4C 1_555 1_555
H10C C18C 1_555 1_555
C19C C6C 1_555 1_555
H11C C19C 1_555 1_555
C20C C13C 1_555 1_555
H12C C20C 1_555 1_555
C21C C7C 1_555 1_555
C22C C24C 1_555 1_555
C23C C9C 1_555 1_555
C24C C17C 1_555 1_555
C25C C16 1_555 1_555
C26C O9C 1_555 1_555
Zn1A O1A 1_555 1_555
Na1A O6A 1_555 1_555
O1A H1A 1_555 1_555
O2A C3A 1_555 1_555
O3A Pr1 1_555 1_555
O4A C3A 1_555 1_555
O5A Na1 1_555 1_555
O6A C21A 1_555 1_555
O7A C22A 1_555 1_555
O8A C22A 1_555 1_555
O9A H2A 1_555 1_555
N1A Zn1A 1_555 1_555
N2A Zn1A 1_555 1_555
C1A C3A 1_555 1_555
C2A N2A 1_555 1_555
C4A C2A 1_555 1_555
H3A C4A 1_555 1_555
C5A C1A 1_555 1_555
H4A C5A 1_555 1_555
C6A N1A 1_555 1_555
C7A C9A 1_555 1_555
C8A C2A 1_555 1_555
C9A H5A 1_555 1_555
C10A C11A 1_555 1_555
C11A C7A 1_555 1_555
H6A C11A 1_555 1_555
C12A N1A 1_555 1_555
C13A C5A 1_555 1_555
C14A C10A 1_555 1_555
H7A C14A 1_555 1_555
C15A C12A 1_555 1_555
H8A C15A 1_555 1_555
C16A C6A 1_555 1_555
C17A C1A 1_555 1_555
H9A C17A 1_555 1_555
C18A C4A 1_555 1_555
H10A C18A 1_555 1_555
C19A C6A 1_555 1_555
H11A C19A 1_555 1_555
C20A C13A 1_555 1_555
H12A C20A 1_555 1_555
C21A O3A 1_555 1_555
C22A C24A 1_555 1_555
C23A C9A 1_555 1_555
C24A C17A 1_555 1_555
C25A N2A 1_555 1_555
C26A O5A 1_555 1_555
O10A Na1A 1_555 1_555
H13A O10A 1_555 1_555
H14A O10A 1_555 1_555
O11A Na1A 1_555 1_555
H15A O11A 1_555 1_555
H1E O1A 1_555 1_555
O2E C3E 1_555 1_555
O3E C21E 1_555 1_555
O4E C3E 1_555 1_555
O5E C26E 1_555 1_555
O6E C21E 1_555 1_555
O7E C22E 1_555 1_555
O8E C22E 1_555 1_555
O9E H2E 1_555 1_555
N1E Zn1A 1_555 1_555
N2E Zn1A 1_555 1_555
C1E C3E 1_555 1_555
C2E N2E 1_555 1_555
C4E C2E 1_555 1_555
H3E C4E 1_555 1_555
C5E C1E 1_555 1_555
H4E C5E 1_555 1_555
C6E N1E 1_555 1_555
C7E C9E 1_555 1_555
C8E C2E 1_555 1_555
C9E H5E 1_555 1_555
C10E C11E 1_555 1_555
C11E C7E 1_555 1_555
H6E C11E 1_555 1_555
C12E N1E 1_555 1_555
C13E C5E 1_555 1_555
C14E C10E 1_555 1_555
H7E C14E 1_555 1_555
C15E C12E 1_555 1_555
H8E C15E 1_555 1_555
C16E C25A 1_555 1_555
C17E C1E 1_555 1_555
H9E C17E 1_555 1_555
C18E C4E 1_555 1_555
H10E C18E 1_555 1_555
C19E C6E 1_555 1_555
H11E C19E 1_555 1_555
C20E C13E 1_555 1_555
H12E C20E 1_555 1_555
C21E C7E 1_555 1_555
C22E C24E 1_555 1_555
C23E C9E 1_555 1_555
C24E C17E 1_555 1_555
C25E C16A 1_555 1_555
C26E O9E 1_555 1_555
Na1B O5 1_555 1_555
O10B Na1B 1_555 1_555
H13B O10B 1_555 1_555
H14B O10B 1_555 1_555
O11B Na1B 1_555 1_555
H15B O11B 1_555 1_555
Pr1C O3C 1_555 1_555
Na1C O6C 1_555 1_555
O10C Na1C 1_555 1_555
H13C O10C 1_555 1_555
H14C O10C 1_555 1_555
O11C Na1C 1_555 1_555
H15C O11C 1_555 1_555
Zn1B O1B 1_555 1_555
Na1B_2 O6B 1_555 1_555
O1B H1B 1_555 1_555
O2B Pr1 1_555 1_555
O3B C21B 1_555 1_555
O4B Pr1 1_555 1_555
O5B C26B 1_555 1_555
O6B C21B 1_555 1_555
O7B C22B 1_555 1_555
O8B C22B 1_555 1_555
O9B H2B 1_555 1_555
N1B Zn1B 1_555 1_555
N2B Zn1B 1_555 1_555
C1B C3B 1_555 1_555
C2B N2B 1_555 1_555
C3B O2B 1_555 1_555
C4B C2B 1_555 1_555
H3B C4B 1_555 1_555
C5B C1B 1_555 1_555
H4B C5B 1_555 1_555
C6B N1B 1_555 1_555
C7B C9B 1_555 1_555
C8B C2B 1_555 1_555
C9B H5B 1_555 1_555
C10B C11B 1_555 1_555
C11B C7B 1_555 1_555
H6B C11B 1_555 1_555
C12B N1B 1_555 1_555
C13B C5B 1_555 1_555
C14B C10B 1_555 1_555
H7B C14B 1_555 1_555
C15B C12B 1_555 1_555
H8B C15B 1_555 1_555
C16B C6B 1_555 1_555
C17B C1B 1_555 1_555
H9B C17B 1_555 1_555
C18B C4B 1_555 1_555
H10B C18B 1_555 1_555
C19B C6B 1_555 1_555
H11B C19B 1_555 1_555
C20B C13B 1_555 1_555
H12B C20B 1_555 1_555
C21B C7B 1_555 1_555
C22B C24B 1_555 1_555
C23B C9B 1_555 1_555
C24B C17B 1_555 1_555
C25B N2B 1_555 1_555
C26B O9B 1_555 1_555
O10B_2 Na1B_2 1_555 1_555
H13B_2 O10B_2 1_555 1_555
H14B_2 O10B_2 1_555 1_555
O11B_2 Na1B_2 1_555 1_555
H15B_2 O11B_2 1_555 1_555
H1D O1B 1_555 1_555
O2D C3D 1_555 1_555
O3D C21D 1_555 1_555
O4D C3D 1_555 1_555
O5D C26D 1_555 1_555
O6D C21D 1_555 1_555
O7D C22D 1_555 1_555
O8D C22D 1_555 1_555
O9D H2D 1_555 1_555
N1D Zn1B 1_555 1_555
N2D Zn1B 1_555 1_555
C1D C3D 1_555 1_555
C2D N2D 1_555 1_555
C4D C2D 1_555 1_555
H3D C4D 1_555 1_555
C5D C1D 1_555 1_555
H4D C5D 1_555 1_555
C6D N1D 1_555 1_555
C7D C9D 1_555 1_555
C8D C2D 1_555 1_555
C9D H5D 1_555 1_555
C10D C11D 1_555 1_555
C11D C7D 1_555 1_555
H6D C11D 1_555 1_555
C12D N1D 1_555 1_555
C13D C5D 1_555 1_555
C14D C10D 1_555 1_555
H7D C14D 1_555 1_555
C15D C12D 1_555 1_555
H8D C15D 1_555 1_555
C16D C25B 1_555 1_555
C17D C1D 1_555 1_555
H9D C17D 1_555 1_555
C18D C4D 1_555 1_555
H10D C18D 1_555 1_555
C19D C6D 1_555 1_555
H11D C19D 1_555 1_555
C20D C13D 1_555 1_555
H12D C20D 1_555 1_555
C21D C7D 1_555 1_555
C22D C24D 1_555 1_555
C23D C9D 1_555 1_555
C24D C17D 1_555 1_555
C25D C16B 1_555 1_555
C26D O9D 1_555 1_555
Na1B_3 O2 1_555 1_555
O10B_3 Na1B_3 1_555 1_555
H13B_3 O10B_3 1_555 1_555
H14B_3 O10B_3 1_555 1_555
O11B_3 Na1B_3 1_555 1_555
H15B_3 O11B_3 1_555 1_555
Pr1_2 O2 1_555 1_555
Pr1_3 O3B 1_555 1_555
Pr1C_2 O3E 1_555 1_555
Pr1C_3 O2E 1_555 1_555
Pr1C_4 O2C 1_555 1_555
Pr1C_5 O3D 1_555 1_555
Pr1C_6 O2D 1_555 1_555
Na1_2 O2A 1_555 1_555
Na1A_2 O5B 1_555 1_555
Na1C_2 O5D 1_555 1_555
Na1C_3 O2D 1_555 1_555
Na1D O5E 1_555 1_555
Na1D_2 O2E 1_555 1_555
Na1D_3 O6D 1_555 1_555
Na1E O6E 1_555 1_555
Na1E_2 O5C 1_555 1_555
Na1E_3 O2C 1_555 1_555
O2_2 Pr1 1_555 1_555
O2_3 Na1B_2 1_555 1_555
O2A_2 Pr1 1_555 1_555
O2C_2 Pr1C 1_555 1_555
O2D_2 Pr1C 1_555 1_555
O2E_2 Pr1C 1_555 1_555
O3B_2 Pr1 1_555 1_555
O3D_2 Pr1C 1_555 1_555
O3E_2 Pr1C 1_555 1_555
O4_2 Pr1 1_555 1_555
O4A_2 Pr1 1_555 1_555
O4C_2 Pr1C 1_555 1_555
O4D_2 Pr1C 1_555 1_555
O4E_2 Pr1C 1_555 1_555
O5_2 Na1B_3 1_555 1_555
O5_3 Na1B_2 1_555 1_555
O5B_2 Na1A 1_555 1_555
O5D_2 Na1C 1_555 1_555
O6B_2 Na1B_3 1_555 1_555
O6B_3 Na1B 1_555 1_555
Na1 O2A_2 1_555 1_555
O4 Pr1_2 1_555 1_555
C8 C12 1_555 1_555
C8 C13 1_555 1_555
C10 C16 1_555 1_555
C14 C23 1_555 1_555
C15 C19 1_555 1_555
C18 C25 1_555 1_555
C20 C24 1_555 1_555
C23 C26 1_555 1_555
O4C Pr1C_4 1_555 1_555
N2C C25C 1_555 1_555
C6C C16C 1_555 1_555
C8C C12C 1_555 1_555
C8C C13C 1_555 1_555
C10C C16C 1_555 1_555
C14C C23C 1_555 1_555
C15C C19C 1_555 1_555
C18C C25C 1_555 1_555
C20C C24C 1_555 1_555
C23C C26C 1_555 1_555
Na1A O2B 1_555 1_555
O2A Pr1_2 1_555 1_555
O4A Pr1_2 1_555 1_555
O9A C26A 1_555 1_555
C7A C21A 1_555 1_555
C8A C12A 1_555 1_555
C8A C13A 1_555 1_555
C10A C16A 1_555 1_555
C14A C23A 1_555 1_555
C15A C19A 1_555 1_555
C18A C25A 1_555 1_555
C20A C24A 1_555 1_555
C23A C26A 1_555 1_555
O4E Pr1C_3 1_555 1_555
N2E C25E 1_555 1_555
C6E C16E 1_555 1_555
C8E C12E 1_555 1_555
C8E C13E 1_555 1_555
C10E C16E 1_555 1_555
C14E C23E 1_555 1_555
C15E C19E 1_555 1_555
C18E C25E 1_555 1_555
C20E C24E 1_555 1_555
C23E C26E 1_555 1_555
Na1B O2_2 1_555 1_555
Na1C O2D_2 1_555 1_555
O4B C3B 1_555 1_555
C8B C12B 1_555 1_555
C8B C13B 1_555 1_555
C10B C16B 1_555 1_555
C14B C23B 1_555 1_555
C15B C19B 1_555 1_555
C18B C25B 1_555 1_555
C20B C24B 1_555 1_555
C23B C26B 1_555 1_555
O4D Pr1C_6 1_555 1_555
N2D C25D 1_555 1_555
C6D C16D 1_555 1_555
C8D C12D 1_555 1_555
C8D C13D 1_555 1_555
C10D C16D 1_555 1_555
C14D C23D 1_555 1_555
C15D C19D 1_555 1_555
C18D C25D 1_555 1_555
C20D C24D 1_555 1_555
C23D C26D 1_555 1_555
Pr1_3 O2_3 1_555 1_555
Na1E_2 O2C_2 1_555 1_555

#END
