
#######################################################################
#
#                 Cambridge Crystallographic Data Centre
#                                CCDC 
#
#######################################################################
#
# If this CIF has been generated from an entry in the Cambridge 
# Structural Database, then it will include bibliographic, chemical, 
# crystal, experimental, refinement or atomic coordinate data resulting 
# from the CCDC's data processing and validation procedures.
#
#######################################################################

data_LACYOG
_chemical_formula_moiety         'C162 H89 In19 N13 Na16 O102 Zn4'
_symmetry_cell_setting           tetragonal
_symmetry_space_group_name_H-M   'P 4/m b m'
_symmetry_Int_Tables_number      127
_space_group_name_Hall           '-P 4 2ab'
loop_
_symmetry_equiv_pos_site_id
_symmetry_equiv_pos_as_xyz
1 x,y,z
2 -x,-y,z
3 -y,x,z
4 y,-x,z
5 1/2-x,1/2+y,-z
6 1/2+x,1/2-y,-z
7 1/2+y,1/2+x,-z
8 1/2-y,1/2-x,-z
9 -x,-y,-z
10 x,y,-z
11 y,-x,-z
12 -y,x,-z
13 1/2+x,1/2-y,z
14 1/2-x,1/2+y,z
15 1/2-y,1/2-x,z
16 1/2+y,1/2+x,z
_cell_length_a                   30.142(2)
_cell_length_b                   30.142(2)
_cell_length_c                   16.4696(14)
_cell_angle_alpha                90
_cell_angle_beta                 90
_cell_angle_gamma                90
_cell_volume                     14963.3
loop_
_atom_site_label
_atom_site_type_symbol
_atom_site_fract_x
_atom_site_fract_y
_atom_site_fract_z
O12 O 0.35694(18) 0.20972(17) 0.5000
N5 N 0.3050(2) 0.3335(2) 0.5000
O13 O 0.36601(16) 0.28989(16) 0.5000
C25 C 0.3484(3) 0.3261(3) 0.5000
H15 H 0.3674 0.3513 0.5000
C26 C 0.2853(3) 0.3778(2) 0.5000
C27 C 0.2758(3) 0.2961(3) 0.5000
In1 In 0.47637(2) 0.25719(2) 0.38406(2)
Zn1 Zn 0.22694(5) 0.27306(5) 0.0000
O1 O 0.1776(3) 0.3224(3) 0.0000
H1 H 0.1664 0.3336 0.0500
O2 O 0.45737(13) 0.27844(13) 0.5000
H2 H 0.4297 0.2820 0.5000
O3 O 0.31324(10) 0.46944(9) 0.39779(18)
O4 O 0.27085(10) 0.47218(9) 0.2905(2)
O5 O 0.42909(10) 0.29697(9) 0.32285(19)
O6 O 0.44016(10) 0.36018(10) 0.39265(19)
N1 N 0.28382(16) 0.31228(16) 0.0000
N2 N 0.23476(12) 0.26524(12) 0.1227(3)
C1 C 0.37763(13) 0.35533(13) 0.3056(2)
C2 C 0.31646(13) 0.34760(13) 0.2124(2)
C3 C 0.35499(13) 0.33174(13) 0.2460(2)
H3 H 0.3665 0.3041 0.2281
C4 C 0.25975(15) 0.29098(14) 0.1736(3)
C5 C 0.30302(13) 0.33093(13) 0.0671(3)
C6 C 0.29205(14) 0.32227(14) 0.1469(3)
C7 C 0.32133(14) 0.41151(13) 0.2994(3)
C8 C 0.36026(14) 0.39538(14) 0.3325(3)
H4 H 0.3751 0.4117 0.3737
C9 C 0.30121(15) 0.45350(14) 0.3302(3)
C10 C 0.29985(14) 0.38829(14) 0.2387(3)
H5 H 0.2737 0.4001 0.2148
C11 C 0.41891(14) 0.33689(14) 0.3439(3)
C12 C 0.24839(15) 0.28233(16) 0.2568(3)
H6 H 0.2609 0.2963 0.3033
C13 C 0.33546(15) 0.36339(15) 0.0408(3)
H7 H 0.3534 0.3814 0.0750
O7 O 0.52540(11) 0.21150(11) 0.4320(2)
C14 C 0.5382(2) 0.1992(3) 0.5000
H8 H 0.5610 0.1774 0.5000
O8 O 0.46367(10) 0.20349(10) 0.2970(2)
O9 O 0.41955(12) 0.20144(10) 0.4019(2)
N3 N 0.5000 0.0000 0.1238(4)
N4 N 0.45172(16) 0.04828(16) 0.0000
C15 C 0.41826(15) 0.08174(15) 0.2112(4)
C16 C 0.43561(15) 0.12096(14) 0.2419(3)
H9 H 0.4624 0.1327 0.2205
C17 C 0.43278(14) 0.06722(14) 0.0661(4)
C18 C 0.47429(15) 0.02571(15) 0.1740(4)
C19 C 0.44300(14) 0.05700(14) 0.1466(4)
C20 C 0.41329(15) 0.14322(15) 0.3047(3)
C21 C 0.43263(16) 0.18467(16) 0.3372(3)
C22 C 0.40087(15) 0.09913(15) 0.0417(4)
H10 H 0.3830 0.1170 0.0762
C23 C 0.48415(15) 0.01585(15) 0.2558(4)
H11 H 0.4709 0.0291 0.3022
C24 C 0.37519(16) 0.12481(16) 0.3367(4)
H12 H 0.3613 0.1387 0.3818
O10 O 0.5599(3) 0.0599(3) 0.0000
H13 H 0.5711 0.0711 -0.0500
Zn2 Zn 0.50927(4) 0.00927(4) 0.0000
Na1 Na 0.49144(7) 0.35309(8) 0.5000
O11 O 0.5245(3) 0.4209(2) 0.5000
H14 H 0.5157 0.4427 0.5383
H1G H 0.1664 0.3336 -0.0500
O3I O 0.31324(10) 0.46944(9) -0.39779(18)
O4I O 0.27085(10) 0.47218(9) -0.2905(2)
O5I O 0.42909(10) 0.29697(9) -0.32285(19)
O6I O 0.44016(10) 0.36018(10) -0.39265(19)
N2G N 0.23476(12) 0.26524(12) -0.1227(3)
C1I C 0.37763(13) 0.35533(13) -0.3056(2)
C2I C 0.31646(13) 0.34760(13) -0.2124(2)
C3I C 0.35499(13) 0.33174(13) -0.2460(2)
H3I H 0.3665 0.3041 -0.2281
C4I C 0.25975(15) 0.29098(14) -0.1736(3)
C5I C 0.30302(13) 0.33093(13) -0.0671(3)
C6I C 0.29205(14) 0.32227(14) -0.1469(3)
C7I C 0.32133(14) 0.41151(13) -0.2994(3)
C8I C 0.36026(14) 0.39538(14) -0.3325(3)
H4I H 0.3751 0.4117 -0.3737
C9I C 0.30121(15) 0.45350(14) -0.3302(3)
C10I C 0.29985(14) 0.38829(14) -0.2387(3)
H5I H 0.2737 0.4001 -0.2148
C11I C 0.41891(14) 0.33689(14) -0.3439(3)
C12I C 0.24839(15) 0.28233(16) -0.2568(3)
H6I H 0.2609 0.2963 -0.3033
C13I C 0.33546(15) 0.36339(15) -0.0408(3)
H7I H 0.3534 0.3814 -0.0750
O3N O 0.03056(9) 0.18676(10) 0.39779(18)
O4N O 0.02782(9) 0.22915(10) 0.2905(2)
O5N O 0.20303(9) 0.07091(10) 0.32285(19)
O6N O 0.13982(10) 0.05984(10) 0.39265(19)
N1G N 0.18772(16) 0.21618(16) 0.0000
C1N C 0.14467(13) 0.12237(13) 0.3056(2)
C2N C 0.15240(13) 0.18354(13) 0.2124(2)
C3N C 0.16826(13) 0.14501(13) 0.2460(2)
H3N H 0.1959 0.1335 0.2281
C4N C 0.20902(14) 0.24025(15) 0.1736(3)
C5N C 0.16907(13) 0.19698(13) 0.0671(3)
C6N C 0.17773(14) 0.20795(14) 0.1469(3)
C7N C 0.08849(13) 0.17867(14) 0.2994(3)
C8N C 0.10462(14) 0.13974(14) 0.3325(3)
H4N H 0.0883 0.1249 0.3737
C9N C 0.04650(14) 0.19879(15) 0.3302(3)
C10N C 0.11171(14) 0.20015(14) 0.2387(3)
H5N H 0.0999 0.2263 0.2148
C11N C 0.16311(14) 0.08109(14) 0.3439(3)
C12N C 0.21767(16) 0.25161(15) 0.2568(3)
H6N H 0.2037 0.2391 0.3033
C13N C 0.13661(15) 0.16454(15) 0.0408(3)
H7N H 0.1186 0.1466 0.0750
O3G O 0.03056(9) 0.18676(10) -0.39779(18)
O4G O 0.02782(9) 0.22915(10) -0.2905(2)
O5G O 0.20303(9) 0.07091(10) -0.32285(19)
O6G O 0.13982(10) 0.05984(10) -0.39265(19)
C1G C 0.14467(13) 0.12237(13) -0.3056(2)
C2G C 0.15240(13) 0.18354(13) -0.2124(2)
C3G C 0.16826(13) 0.14501(13) -0.2460(2)
H3G H 0.1959 0.1335 -0.2281
C4G C 0.20902(14) 0.24025(15) -0.1736(3)
C5G C 0.16907(13) 0.19698(13) -0.0671(3)
C6G C 0.17773(14) 0.20795(14) -0.1469(3)
C7G C 0.08849(13) 0.17867(14) -0.2994(3)
C8G C 0.10462(14) 0.13974(14) -0.3325(3)
H4G H 0.0883 0.1249 -0.3737
C9G C 0.04650(14) 0.19879(15) -0.3302(3)
C10G C 0.11171(14) 0.20015(14) -0.2387(3)
H5G H 0.0999 0.2263 -0.2148
C11G C 0.16311(14) 0.08109(14) -0.3439(3)
C12G C 0.21767(16) 0.25161(15) -0.2568(3)
H6G H 0.2037 0.2391 -0.3033
C13G C 0.13661(15) 0.16454(15) -0.0408(3)
H7G H 0.1186 0.1466 -0.0750
O7I O 0.52540(11) 0.21150(11) 0.5680(2)
O8A O 0.53633(10) -0.20349(10) 0.2970(2)
O9A O 0.58045(12) -0.20144(10) 0.4019(2)
N4A N 0.54828(16) -0.04828(16) 0.0000
C15A C 0.58174(15) -0.08174(15) 0.2112(4)
C16A C 0.56439(15) -0.12096(14) 0.2419(3)
H9A H 0.5376 -0.1327 0.2205
C17A C 0.56722(14) -0.06722(14) 0.0661(4)
C18A C 0.52571(15) -0.02571(15) 0.1740(4)
C19A C 0.55700(14) -0.05700(14) 0.1466(4)
C20A C 0.58671(15) -0.14322(15) 0.3047(3)
C21A C 0.56737(16) -0.18467(16) 0.3372(3)
C22A C 0.59913(15) -0.09913(15) 0.0417(4)
H10A H 0.6170 -0.1170 0.0762
C23A C 0.51585(15) -0.01585(15) 0.2558(4)
H11A H 0.5291 -0.0291 0.3022
C24A C 0.62481(16) -0.12481(16) 0.3367(4)
H12A H 0.6387 -0.1387 0.3818
O8F O 0.70349(10) -0.03633(10) -0.2970(2)
O9F O 0.70144(10) -0.08045(12) -0.4019(2)
N3F N 0.5000 0.0000 -0.1238(4)
C15F C 0.58174(15) -0.08174(15) -0.2112(4)
C16F C 0.62096(14) -0.06439(15) -0.2419(3)
H9F H 0.6327 -0.0376 -0.2205
C17F C 0.56722(14) -0.06722(14) -0.0661(4)
C18F C 0.52571(15) -0.02571(15) -0.1740(4)
C19F C 0.55700(14) -0.05700(14) -0.1466(4)
C20F C 0.64322(15) -0.08671(15) -0.3047(3)
C21F C 0.68467(16) -0.06737(16) -0.3372(3)
C22F C 0.59913(15) -0.09913(15) -0.0417(4)
H10F H 0.6170 -0.1170 -0.0762
C23F C 0.51585(15) -0.01585(15) -0.2558(4)
H11F H 0.5291 -0.0291 -0.3022
C24F C 0.62481(16) -0.12481(16) -0.3367(4)
H12F H 0.6387 -0.1387 -0.3818
O8G O 0.29651(10) 0.03633(10) -0.2970(2)
O9G O 0.29856(10) 0.08045(12) -0.4019(2)
C15G C 0.41826(15) 0.08174(15) -0.2112(4)
C16G C 0.37904(14) 0.06439(15) -0.2419(3)
H9G H 0.3673 0.0376 -0.2205
C17G C 0.43278(14) 0.06722(14) -0.0661(4)
C18G C 0.47429(15) 0.02571(15) -0.1740(4)
C19G C 0.44300(14) 0.05700(14) -0.1466(4)
C20G C 0.35678(15) 0.08671(15) -0.3047(3)
C21G C 0.31533(16) 0.06737(16) -0.3372(3)
C22G C 0.40087(15) 0.09913(15) -0.0417(4)
H10G H 0.3830 0.1170 -0.0762
C23G C 0.48415(15) 0.01585(15) -0.2558(4)
H11G H 0.4709 0.0291 -0.3022
C24G C 0.37519(16) 0.12481(16) -0.3367(4)
H12G H 0.3613 0.1387 -0.3818
O8H O 0.53633(10) -0.20349(10) -0.2970(2)
O9H O 0.58045(12) -0.20144(10) -0.4019(2)
C16H C 0.56439(15) -0.12096(14) -0.2419(3)
H9H H 0.5376 -0.1327 -0.2205
C20H C 0.58671(15) -0.14322(15) -0.3047(3)
C21H C 0.56737(16) -0.18467(16) -0.3372(3)
O8I O 0.46367(10) 0.20349(10) -0.2970(2)
O9I O 0.41955(12) 0.20144(10) -0.4019(2)
C16I C 0.43561(15) 0.12096(14) -0.2419(3)
H9I H 0.4624 0.1327 -0.2205
C20I C 0.41329(15) 0.14322(15) -0.3047(3)
C21I C 0.43263(16) 0.18467(16) -0.3372(3)
O8N O 0.29651(10) 0.03633(10) 0.2970(2)
O9N O 0.29856(10) 0.08045(12) 0.4019(2)
C16N C 0.37904(14) 0.06439(15) 0.2419(3)
H9N H 0.3673 0.0376 0.2205
C20N C 0.35678(15) 0.08671(15) 0.3047(3)
C21N C 0.31533(16) 0.06737(16) 0.3372(3)
O8O O 0.70349(10) -0.03633(10) 0.2970(2)
O9O O 0.70144(10) -0.08045(12) 0.4019(2)
C16O C 0.62096(14) -0.06439(15) 0.2419(3)
H9O H 0.6327 -0.0376 0.2205
C20O C 0.64322(15) -0.08671(15) 0.3047(3)
C21O C 0.68467(16) -0.06737(16) 0.3372(3)
H13F H 0.5711 0.0711 0.0500
H14I H 0.5157 0.4427 0.4617
In1A In 0.52363(2) -0.25719(2) 0.38406(2)
Zn1A Zn 0.77306(5) -0.27306(5) 0.0000
O1A O 0.8224(3) -0.3224(3) 0.0000
H1A H 0.8336 -0.3336 0.0500
O2A O 0.54263(13) -0.27844(13) 0.5000
H2A H 0.5703 -0.2820 0.5000
O3A O 0.68676(10) -0.46944(9) 0.39779(18)
O4A O 0.72915(10) -0.47218(9) 0.2905(2)
O5A O 0.57091(10) -0.29697(9) 0.32285(19)
O6A O 0.55984(10) -0.36018(10) 0.39265(19)
N1A N 0.71618(16) -0.31228(16) 0.0000
N2A N 0.76524(12) -0.26524(12) 0.1227(3)
C1A C 0.62237(13) -0.35533(13) 0.3056(2)
C2A C 0.68354(13) -0.34760(13) 0.2124(2)
C3A C 0.64501(13) -0.33174(13) 0.2460(2)
H3A H 0.6335 -0.3041 0.2281
C4A C 0.74025(15) -0.29098(14) 0.1736(3)
C5A C 0.69698(13) -0.33093(13) 0.0671(3)
C6A C 0.70795(14) -0.32227(14) 0.1469(3)
C7A C 0.67867(14) -0.41151(13) 0.2994(3)
C8A C 0.63974(14) -0.39538(14) 0.3325(3)
H4A H 0.6249 -0.4117 0.3737
C9A C 0.69879(15) -0.45350(14) 0.3302(3)
C10A C 0.70015(14) -0.38829(14) 0.2387(3)
H5A H 0.7263 -0.4001 0.2148
C11A C 0.58109(14) -0.33689(14) 0.3439(3)
C12A C 0.75161(15) -0.28233(16) 0.2568(3)
H6A H 0.7391 -0.2963 0.3033
C13A C 0.66454(15) -0.36339(15) 0.0408(3)
H7A H 0.6466 -0.3814 0.0750
O7A O 0.47460(11) -0.21150(11) 0.4320(2)
C14A C 0.4618(2) -0.1992(3) 0.5000
H8A H 0.4390 -0.1774 0.5000
O10A O 0.4401(3) -0.0599(3) 0.0000
H13A H 0.4289 -0.0711 -0.0500
Zn2A Zn 0.49073(4) -0.00927(4) 0.0000
Na1A Na 0.50856(7) -0.35309(8) 0.5000
O11A O 0.4755(3) -0.4209(2) 0.5000
H14A H 0.4843 -0.4427 0.5383
H1F H 0.8336 -0.3336 -0.0500
O3H O 0.68676(10) -0.46944(9) -0.39779(18)
O4H O 0.72915(10) -0.47218(9) -0.2905(2)
O5H O 0.57091(10) -0.29697(9) -0.32285(19)
O6H O 0.55984(10) -0.36018(10) -0.39265(19)
N2F N 0.76524(12) -0.26524(12) -0.1227(3)
C1H C 0.62237(13) -0.35533(13) -0.3056(2)
C2H C 0.68354(13) -0.34760(13) -0.2124(2)
C3H C 0.64501(13) -0.33174(13) -0.2460(2)
H3H H 0.6335 -0.3041 -0.2281
C4H C 0.74025(15) -0.29098(14) -0.1736(3)
C5H C 0.69698(13) -0.33093(13) -0.0671(3)
C6H C 0.70795(14) -0.32227(14) -0.1469(3)
C7H C 0.67867(14) -0.41151(13) -0.2994(3)
C8H C 0.63974(14) -0.39538(14) -0.3325(3)
H4H H 0.6249 -0.4117 -0.3737
C9H C 0.69879(15) -0.45350(14) -0.3302(3)
C10H C 0.70015(14) -0.38829(14) -0.2387(3)
H5H H 0.7263 -0.4001 -0.2148
C11H C 0.58109(14) -0.33689(14) -0.3439(3)
C12H C 0.75161(15) -0.28233(16) -0.2568(3)
H6H H 0.7391 -0.2963 -0.3033
C13H C 0.66454(15) -0.36339(15) -0.0408(3)
H7H H 0.6466 -0.3814 -0.0750
O3O O 0.96944(9) -0.18676(10) 0.39779(18)
O4O O 0.97218(9) -0.22915(10) 0.2905(2)
O5O O 0.79697(9) -0.07091(10) 0.32285(19)
O6O O 0.86018(10) -0.05984(10) 0.39265(19)
N1F N 0.81228(16) -0.21618(16) 0.0000
C1O C 0.85533(13) -0.12237(13) 0.3056(2)
C2O C 0.84760(13) -0.18354(13) 0.2124(2)
C3O C 0.83174(13) -0.14501(13) 0.2460(2)
H3O H 0.8041 -0.1335 0.2281
C4O C 0.79098(14) -0.24025(15) 0.1736(3)
C5O C 0.83093(13) -0.19698(13) 0.0671(3)
C6O C 0.82227(14) -0.20795(14) 0.1469(3)
C7O C 0.91151(13) -0.17867(14) 0.2994(3)
C8O C 0.89538(14) -0.13974(14) 0.3325(3)
H4O H 0.9117 -0.1249 0.3737
C9O C 0.95350(14) -0.19879(15) 0.3302(3)
C10O C 0.88829(14) -0.20015(14) 0.2387(3)
H5O H 0.9001 -0.2263 0.2148
C11O C 0.83689(14) -0.08109(14) 0.3439(3)
C12O C 0.78233(16) -0.25161(15) 0.2568(3)
H6O H 0.7963 -0.2391 0.3033
C13O C 0.86339(15) -0.16454(15) 0.0408(3)
H7O H 0.8814 -0.1466 0.0750
O3F O 0.96944(9) -0.18676(10) -0.39779(18)
O4F O 0.97218(9) -0.22915(10) -0.2905(2)
O5F O 0.79697(9) -0.07091(10) -0.32285(19)
O6F O 0.86018(10) -0.05984(10) -0.39265(19)
C1F C 0.85533(13) -0.12237(13) -0.3056(2)
C2F C 0.84760(13) -0.18354(13) -0.2124(2)
C3F C 0.83174(13) -0.14501(13) -0.2460(2)
H3F H 0.8041 -0.1335 -0.2281
C4F C 0.79098(14) -0.24025(15) -0.1736(3)
C5F C 0.83093(13) -0.19698(13) -0.0671(3)
C6F C 0.82227(14) -0.20795(14) -0.1469(3)
C7F C 0.91151(13) -0.17867(14) -0.2994(3)
C8F C 0.89538(14) -0.13974(14) -0.3325(3)
H4F H 0.9117 -0.1249 -0.3737
C9F C 0.95350(14) -0.19879(15) -0.3302(3)
C10F C 0.88829(14) -0.20015(14) -0.2387(3)
H5F H 0.9001 -0.2263 -0.2148
C11F C 0.83689(14) -0.08109(14) -0.3439(3)
C12F C 0.78233(16) -0.25161(15) -0.2568(3)
H6F H 0.7963 -0.2391 -0.3033
C13F C 0.86339(15) -0.16454(15) -0.0408(3)
H7F H 0.8814 -0.1466 -0.0750
O7H O 0.47460(11) -0.21150(11) 0.5680(2)
H13G H 0.4289 -0.0711 0.0500
H14H H 0.4843 -0.4427 0.4617
In1H In 0.52363(2) -0.25719(2) -0.38406(2)
In1I In 0.47637(2) 0.25719(2) -0.38406(2)
In1I_2 In 0.47637(2) 0.25719(2) 0.61594(2)
In1C In 0.25719(2) 0.52363(2) 0.38406(2)
O2C O 0.27844(13) 0.54263(13) 0.5000
H2C H 0.2820 0.5703 0.5000
O7C O 0.21150(11) 0.47460(11) 0.4320(2)
C14C C 0.1992(3) 0.4618(2) 0.5000
H8C H 0.1774 0.4390 0.5000
Na1C Na 0.35309(8) 0.50856(7) 0.5000
O11C O 0.4209(2) 0.4755(3) 0.5000
H14C H 0.4427 0.4843 0.5383
O7J O 0.21150(11) 0.47460(11) 0.5680(2)
H14J H 0.4427 0.4843 0.4617
In1J In 0.25719(2) 0.52363(2) -0.38406(2)
In1L In -0.02363(2) 0.24281(2) 0.38406(2)
In1B In 0.74281(2) -0.52363(2) 0.38406(2)
In1D In 1.02363(2) -0.24281(2) -0.38406(2)
In1E In -0.02363(2) 0.24281(2) -0.38406(2)
In1F In 0.75719(2) -0.02363(2) -0.38406(2)
In1G In 0.24281(2) 0.02363(2) -0.38406(2)
In1H_2 In 0.52363(2) -0.25719(2) 0.61594(2)
In1J_2 In 0.25719(2) 0.52363(2) 0.61594(2)
In1K In 0.74281(2) -0.52363(2) -0.38406(2)
In1M In 1.02363(2) -0.24281(2) 0.38406(2)
In1N In 0.24281(2) 0.02363(2) 0.38406(2)
In1O In 0.75719(2) -0.02363(2) 0.38406(2)
O2_2 O 0.45737(13) 0.27844(13) -0.5000
O2A_2 O 0.54263(13) -0.27844(13) -0.5000
O2C_2 O 0.27844(13) 0.54263(13) -0.5000
O2E O -0.04263(13) 0.22156(13) 0.5000
O3B O 0.53056(9) 0.31324(10) 0.39779(18)
O3C O 0.46944(9) -0.31324(10) 0.39779(18)
O3I_2 O 0.31324(10) 0.46944(9) 0.60221(18)
O3J O 0.46944(9) -0.31324(10) -0.39779(18)
O3J_2 O 0.46944(9) -0.31324(10) 0.60221(18)
O3K O 0.53056(9) 0.31324(10) -0.39779(18)
O3K_2 O 0.53056(9) 0.31324(10) 0.60221(18)
O4B O 0.52782(9) 0.27085(10) 0.2905(2)
O4C O 0.47218(9) -0.27085(10) 0.2905(2)
O4J O 0.47218(9) -0.27085(10) -0.2905(2)
O4K O 0.52782(9) 0.27085(10) -0.2905(2)
O4K_2 O 0.52782(9) 0.27085(10) 0.7095(2)
O5C O 0.29697(9) 0.57091(10) 0.32285(19)
O5I_2 O 0.42909(10) 0.29697(9) 0.67715(19)
O5J O 0.29697(9) 0.57091(10) -0.32285(19)
O5L O -0.07091(10) 0.20303(9) 0.32285(19)
O6C O 0.36018(10) 0.55984(10) 0.39265(19)
O6H_2 O 0.55984(10) -0.36018(10) 0.60735(19)
O6I_2 O 0.44016(10) 0.36018(10) 0.60735(19)
O6J O 0.36018(10) 0.55984(10) 0.60735(19)
O7H_2 O 0.47460(11) -0.21150(11) -0.4320(2)
O7I_2 O 0.52540(11) 0.21150(11) -0.4320(2)
O7J_2 O 0.21150(11) 0.47460(11) -0.4320(2)
O7L O 0.02540(11) 0.28850(11) 0.4320(2)
O8C O 0.20349(10) 0.53633(10) 0.2970(2)
O8I_2 O 0.46367(10) 0.20349(10) 0.7030(2)
O8J O 0.20349(10) 0.53633(10) -0.2970(2)
O8L O -0.03633(10) 0.29651(10) 0.2970(2)
O9C O 0.20144(10) 0.58045(12) 0.4019(2)
O9I_2 O 0.41955(12) 0.20144(10) 0.5981(2)
O9J O 0.20144(10) 0.58045(12) -0.4019(2)
O9L O -0.08045(12) 0.29856(10) 0.4019(2)
Na1_2 Na 0.49144(7) 0.35309(8) -0.5000
Na1A_2 Na 0.50856(7) -0.35309(8) -0.5000
Na1B Na 0.64691(8) -0.50856(7) -0.5000
Na1B_2 Na 0.64691(8) -0.50856(7) 0.5000
Na1C_2 Na 0.35309(8) 0.50856(7) -0.5000
Na1D Na 1.00856(7) -0.14691(8) -0.5000
Na1D_2 Na 1.00856(7) -0.14691(8) 0.5000
Na1E Na -0.00856(7) 0.14691(8) -0.5000
Na1E_2 Na -0.00856(7) 0.14691(8) 0.5000
Na1F Na 0.85309(8) -0.00856(7) -0.5000
Na1F_2 Na 0.85309(8) -0.00856(7) 0.5000
Na1G Na 0.14691(8) 0.00856(7) -0.5000
Na1G_2 Na 0.14691(8) 0.00856(7) 0.5000
loop_
_geom_bond_atom_site_label_1
_geom_bond_atom_site_label_2
_geom_bond_site_symmetry_1
_geom_bond_site_symmetry_2
In1 O2 1_555 1_555
Zn1 O1 1_555 1_555
O1 H1 1_555 1_555
O2 H2 1_555 1_555
O3 C9 1_555 1_555
O4 C9 1_555 1_555
O5 In1 1_555 1_555
O6 C11 1_555 1_555
N1 Zn1 1_555 1_555
N2 Zn1 1_555 1_555
C1 C3 1_555 1_555
C2 C3 1_555 1_555
C3 H3 1_555 1_555
C4 N2 1_555 1_555
C5 N1 1_555 1_555
C6 C2 1_555 1_555
C7 C8 1_555 1_555
C8 C1 1_555 1_555
H4 C8 1_555 1_555
C9 C7 1_555 1_555
C10 C2 1_555 1_555
H5 C10 1_555 1_555
C11 O5 1_555 1_555
C12 C4 1_555 1_555
H6 C12 1_555 1_555
C13 C5 1_555 1_555
H7 C13 1_555 1_555
O7 In1 1_555 1_555
C14 O7 1_555 1_555
H8 C14 1_555 1_555
O8 In1 1_555 1_555
O9 In1 1_555 1_555
N3 C18 1_555 1_555
N4 C17 1_555 1_555
C15 C16 1_555 1_555
C16 H9 1_555 1_555
C17 C19 1_555 1_555
C18 C19 1_555 1_555
C19 C15 1_555 1_555
C20 C16 1_555 1_555
C21 O8 1_555 1_555
C22 C17 1_555 1_555
H10 C22 1_555 1_555
C23 C18 1_555 1_555
H11 C23 1_555 1_555
C24 C20 1_555 1_555
H12 C24 1_555 1_555
O10 H13 1_555 1_555
Zn2 N3 1_555 1_555
Na1 O2 1_555 1_555
O11 Na1 1_555 1_555
H14 O11 1_555 1_555
N5 C25 1_555 1_555
O13 C25 1_555 1_555
C25 H15 1_555 1_555
C26 N5 1_555 1_555
C27 N5 1_555 1_555
H1G O1 1_555 1_555
O3I C9I 1_555 1_555
O4I C9I 1_555 1_555
O5I C11I 1_555 1_555
O6I C11I 1_555 1_555
N2G Zn1 1_555 1_555
C1I C3I 1_555 1_555
C2I C3I 1_555 1_555
C3I H3I 1_555 1_555
C4I N2G 1_555 1_555
C5I N1 1_555 1_555
C6I C2I 1_555 1_555
C7I C8I 1_555 1_555
C8I C1I 1_555 1_555
H4I C8I 1_555 1_555
C9I C7I 1_555 1_555
C10I C2I 1_555 1_555
H5I C10I 1_555 1_555
C11I C1I 1_555 1_555
C12I C4I 1_555 1_555
H6I C12I 1_555 1_555
C13I C13 1_555 1_555
H7I C13I 1_555 1_555
O3N C9N 1_555 1_555
O4N C9N 1_555 1_555
O5N C11N 1_555 1_555
O6N C11N 1_555 1_555
N1G Zn1 1_555 1_555
C1N C3N 1_555 1_555
C2N C3N 1_555 1_555
C3N H3N 1_555 1_555
C4N N2 1_555 1_555
C5N N1G 1_555 1_555
C6N C2N 1_555 1_555
C7N C8N 1_555 1_555
C8N C1N 1_555 1_555
H4N C8N 1_555 1_555
C9N C7N 1_555 1_555
C10N C2N 1_555 1_555
H5N C10N 1_555 1_555
C11N C1N 1_555 1_555
C12N C12 1_555 1_555
H6N C12N 1_555 1_555
C13N C5N 1_555 1_555
H7N C13N 1_555 1_555
O3G C9G 1_555 1_555
O4G C9G 1_555 1_555
O5G C11G 1_555 1_555
O6G C11G 1_555 1_555
C1G C3G 1_555 1_555
C2G C3G 1_555 1_555
C3G H3G 1_555 1_555
C4G N2G 1_555 1_555
C5G N1G 1_555 1_555
C6G C2G 1_555 1_555
C7G C8G 1_555 1_555
C8G C1G 1_555 1_555
H4G C8G 1_555 1_555
C9G C7G 1_555 1_555
C10G C2G 1_555 1_555
H5G C10G 1_555 1_555
C11G C1G 1_555 1_555
C12G C12I 1_555 1_555
H6G C12G 1_555 1_555
C13G C13N 1_555 1_555
H7G C13G 1_555 1_555
O7I C14 1_555 1_555
O8A C21A 1_555 1_555
O9A C21A 1_555 1_555
N4A Zn2 1_555 1_555
C15A C16A 1_555 1_555
C16A H9A 1_555 1_555
C17A N4A 1_555 1_555
C18A N3 1_555 1_555
C19A C15A 1_555 1_555
C20A C16A 1_555 1_555
C21A C20A 1_555 1_555
C22A C17A 1_555 1_555
H10A C22A 1_555 1_555
C23A C23 1_555 1_555
H11A C23A 1_555 1_555
C24A C20A 1_555 1_555
H12A C24A 1_555 1_555
O8F C21F 1_555 1_555
O9F C21F 1_555 1_555
N3F Zn2 1_555 1_555
C15F C16F 1_555 1_555
C16F H9F 1_555 1_555
C17F N4A 1_555 1_555
C18F N3F 1_555 1_555
C19F C15F 1_555 1_555
C20F C16F 1_555 1_555
C21F C20F 1_555 1_555
C22F C22A 1_555 1_555
H10F C22F 1_555 1_555
C23F C18F 1_555 1_555
H11F C23F 1_555 1_555
C24F C20F 1_555 1_555
H12F C24F 1_555 1_555
O8G C21G 1_555 1_555
O9G C21G 1_555 1_555
C15G C16G 1_555 1_555
C16G H9G 1_555 1_555
C17G N4 1_555 1_555
C18G N3F 1_555 1_555
C19G C15G 1_555 1_555
C20G C16G 1_555 1_555
C21G C20G 1_555 1_555
C22G C22 1_555 1_555
H10G C22G 1_555 1_555
C23G C23F 1_555 1_555
H11G C23G 1_555 1_555
C24G C20G 1_555 1_555
H12G C24G 1_555 1_555
O8H C21H 1_555 1_555
O9H C21H 1_555 1_555
C16H C15F 1_555 1_555
H9H C16H 1_555 1_555
C20H C24F 1_555 1_555
C21H C20H 1_555 1_555
O8I C21I 1_555 1_555
O9I C21I 1_555 1_555
C16I C15G 1_555 1_555
H9I C16I 1_555 1_555
C20I C24G 1_555 1_555
C21I C20I 1_555 1_555
O8N C21N 1_555 1_555
O9N C21N 1_555 1_555
C16N C15 1_555 1_555
H9N C16N 1_555 1_555
C20N C24 1_555 1_555
C21N C20N 1_555 1_555
O8O C21O 1_555 1_555
O9O C21O 1_555 1_555
C16O C15A 1_555 1_555
H9O C16O 1_555 1_555
C20O C24A 1_555 1_555
C21O C20O 1_555 1_555
H13F O10 1_555 1_555
H14I O11 1_555 1_555
In1A O8A 1_555 1_555
Zn1A O1A 1_555 1_555
O1A H1A 1_555 1_555
O2A In1A 1_555 1_555
H2A O2A 1_555 1_555
O3A C9A 1_555 1_555
O4A C9A 1_555 1_555
O5A In1A 1_555 1_555
O6A C11A 1_555 1_555
N1A Zn1A 1_555 1_555
N2A Zn1A 1_555 1_555
C1A C3A 1_555 1_555
C2A C3A 1_555 1_555
C3A H3A 1_555 1_555
C4A N2A 1_555 1_555
C5A N1A 1_555 1_555
C6A C2A 1_555 1_555
C7A C8A 1_555 1_555
C8A C1A 1_555 1_555
H4A C8A 1_555 1_555
C9A C7A 1_555 1_555
C10A C2A 1_555 1_555
H5A C10A 1_555 1_555
C11A O5A 1_555 1_555
C12A C4A 1_555 1_555
H6A C12A 1_555 1_555
C13A C5A 1_555 1_555
H7A C13A 1_555 1_555
O7A In1A 1_555 1_555
C14A O7A 1_555 1_555
H8A C14A 1_555 1_555
O10A H13A 1_555 1_555
Zn2A N3 1_555 1_555
Na1A O2A 1_555 1_555
O11A Na1A 1_555 1_555
H14A O11A 1_555 1_555
H1F O1A 1_555 1_555
O3H C9H 1_555 1_555
O4H C9H 1_555 1_555
O5H C11H 1_555 1_555
O6H C11H 1_555 1_555
N2F Zn1A 1_555 1_555
C1H C3H 1_555 1_555
C2H C3H 1_555 1_555
C3H H3H 1_555 1_555
C4H N2F 1_555 1_555
C5H N1A 1_555 1_555
C6H C2H 1_555 1_555
C7H C8H 1_555 1_555
C8H C1H 1_555 1_555
H4H C8H 1_555 1_555
C9H C7H 1_555 1_555
C10H C2H 1_555 1_555
H5H C10H 1_555 1_555
C11H C1H 1_555 1_555
C12H C4H 1_555 1_555
H6H C12H 1_555 1_555
C13H C13A 1_555 1_555
H7H C13H 1_555 1_555
O3O C9O 1_555 1_555
O4O C9O 1_555 1_555
O5O C11O 1_555 1_555
O6O C11O 1_555 1_555
N1F Zn1A 1_555 1_555
C1O C3O 1_555 1_555
C2O C3O 1_555 1_555
C3O H3O 1_555 1_555
C4O N2A 1_555 1_555
C5O N1F 1_555 1_555
C6O C2O 1_555 1_555
C7O C8O 1_555 1_555
C8O C1O 1_555 1_555
H4O C8O 1_555 1_555
C9O C7O 1_555 1_555
C10O C2O 1_555 1_555
H5O C10O 1_555 1_555
C11O C1O 1_555 1_555
C12O C12A 1_555 1_555
H6O C12O 1_555 1_555
C13O C5O 1_555 1_555
H7O C13O 1_555 1_555
O3F C9F 1_555 1_555
O4F C9F 1_555 1_555
O5F C11F 1_555 1_555
O6F C11F 1_555 1_555
C1F C3F 1_555 1_555
C2F C3F 1_555 1_555
C3F H3F 1_555 1_555
C4F N2F 1_555 1_555
C5F N1F 1_555 1_555
C6F C2F 1_555 1_555
C7F C8F 1_555 1_555
C8F C1F 1_555 1_555
H4F C8F 1_555 1_555
C9F C7F 1_555 1_555
C10F C2F 1_555 1_555
H5F C10F 1_555 1_555
C11F C1F 1_555 1_555
C12F C12H 1_555 1_555
H6F C12F 1_555 1_555
C13F C13O 1_555 1_555
H7F C13F 1_555 1_555
O7H C14A 1_555 1_555
H13G O10A 1_555 1_555
H14H O11A 1_555 1_555
In1H O8H 1_555 1_555
In1I O5I 1_555 1_555
In1I_2 O2 1_555 1_555
In1C O3 1_555 1_555
O2C In1C 1_555 1_555
H2C O2C 1_555 1_555
O7C In1C 1_555 1_555
C14C O7C 1_555 1_555
H8C C14C 1_555 1_555
Na1C O3 1_555 1_555
O11C Na1C 1_555 1_555
H14C O11C 1_555 1_555
O7J C14C 1_555 1_555
H14J O11C 1_555 1_555
In1J O3I 1_555 1_555
In1L O3N 1_555 1_555
In1B O3A 1_555 1_555
In1D O3F 1_555 1_555
In1E O3G 1_555 1_555
In1F O8F 1_555 1_555
In1G O5G 1_555 1_555
In1H_2 O2A 1_555 1_555
In1J_2 O2C 1_555 1_555
In1K O3H 1_555 1_555
In1M O3O 1_555 1_555
In1N O5N 1_555 1_555
In1O O8O 1_555 1_555
O2_2 In1I 1_555 1_555
O2A_2 In1H 1_555 1_555
O2C_2 In1J 1_555 1_555
O2E In1L 1_555 1_555
O3B In1 1_555 1_555
O3C In1A 1_555 1_555
O3I_2 Na1C 1_555 1_555
O3J In1H 1_555 1_555
O3J_2 Na1A 1_555 1_555
O3K In1I 1_555 1_555
O3K_2 Na1 1_555 1_555
O4B In1 1_555 1_555
O4C In1A 1_555 1_555
O4J In1H 1_555 1_555
O4K In1I 1_555 1_555
O4K_2 In1I_2 1_555 1_555
O5C In1C 1_555 1_555
O5I_2 In1I_2 1_555 1_555
O5J In1J 1_555 1_555
O5L In1L 1_555 1_555
O6C Na1C 1_555 1_555
O6H_2 Na1A 1_555 1_555
O6I_2 Na1 1_555 1_555
O6J Na1C 1_555 1_555
O7H_2 In1H 1_555 1_555
O7I_2 In1I 1_555 1_555
O7J_2 In1J 1_555 1_555
O7L In1L 1_555 1_555
O8C In1C 1_555 1_555
O8I_2 In1I_2 1_555 1_555
O8J In1J 1_555 1_555
O8L In1L 1_555 1_555
O9C In1C 1_555 1_555
O9I_2 In1I_2 1_555 1_555
O9J In1J 1_555 1_555
O9L In1L 1_555 1_555
Na1_2 O6I 1_555 1_555
Na1A_2 O6H 1_555 1_555
Na1B O3H 1_555 1_555
Na1B_2 O3A 1_555 1_555
Na1C_2 O3I 1_555 1_555
Na1D O3F 1_555 1_555
Na1D_2 O3O 1_555 1_555
Na1E O3G 1_555 1_555
Na1E_2 O3N 1_555 1_555
Na1F O6F 1_555 1_555
Na1F_2 O6O 1_555 1_555
Na1G O6G 1_555 1_555
Na1G_2 O6N 1_555 1_555
O4 In1C 1_555 1_555
O6 Na1 1_555 1_555
C1 C11 1_555 1_555
C4 C6 1_555 1_555
C5 C6 1_555 1_555
C7 C10 1_555 1_555
O9 C21 1_555 1_555
N4 Zn2 1_555 1_555
N4 Zn2A 1_555 1_555
C20 C21 1_555 1_555
O10 Zn2 1_555 1_555
Zn2 Zn2A 1_555 1_555
Na1 O3B 1_555 1_555
O4I In1J 1_555 1_555
C4I C6I 1_555 1_555
C5I C6I 1_555 1_555
C5I C13I 1_555 1_555
C7I C10I 1_555 1_555
O4N In1L 1_555 1_555
C4N C6N 1_555 1_555
C4N C12N 1_555 1_555
C5N C6N 1_555 1_555
C7N C10N 1_555 1_555
O4G In1E 1_555 1_555
C4G C6G 1_555 1_555
C4G C12G 1_555 1_555
C5G C6G 1_555 1_555
C5G C13G 1_555 1_555
C7G C10G 1_555 1_555
O7I In1I_2 1_555 1_555
O9A In1A 1_555 1_555
N4A Zn2A 1_555 1_555
C17A C19A 1_555 1_555
C18A C19A 1_555 1_555
C18A C23A 1_555 1_555
O9F In1F 1_555 1_555
N3F Zn2A 1_555 1_555
C17F C19F 1_555 1_555
C17F C22F 1_555 1_555
C18F C19F 1_555 1_555
O8G In1G 1_555 1_555
O9G In1G 1_555 1_555
C17G C19G 1_555 1_555
C17G C22G 1_555 1_555
C18G C19G 1_555 1_555
C18G C23G 1_555 1_555
O9H In1H 1_555 1_555
C16H C20H 1_555 1_555
O8I In1I 1_555 1_555
O9I In1I 1_555 1_555
C16I C20I 1_555 1_555
O8N In1N 1_555 1_555
O9N In1N 1_555 1_555
C16N C20N 1_555 1_555
O9O In1O 1_555 1_555
C16O C20O 1_555 1_555
O4A In1B 1_555 1_555
O6A Na1A 1_555 1_555
C1A C11A 1_555 1_555
C4A C6A 1_555 1_555
C5A C6A 1_555 1_555
C7A C10A 1_555 1_555
O10A Zn2A 1_555 1_555
Na1A O3C 1_555 1_555
O4H In1K 1_555 1_555
O5H In1H 1_555 1_555
C4H C6H 1_555 1_555
C5H C6H 1_555 1_555
C5H C13H 1_555 1_555
C7H C10H 1_555 1_555
O4O In1M 1_555 1_555
O5O In1O 1_555 1_555
C4O C6O 1_555 1_555
C4O C12O 1_555 1_555
C5O C6O 1_555 1_555
C7O C10O 1_555 1_555
O4F In1D 1_555 1_555
O5F In1F 1_555 1_555
C4F C6F 1_555 1_555
C4F C12F 1_555 1_555
C5F C6F 1_555 1_555
C5F C13F 1_555 1_555
C7F C10F 1_555 1_555
O7H In1H_2 1_555 1_555
In1I_2 O3K_2 1_555 1_555
O2C Na1C 1_555 1_555
O7J In1J_2 1_555 1_555
In1H_2 O3J_2 1_555 1_555
In1J_2 O3I_2 1_555 1_555
O2_2 Na1_2 1_555 1_555
O2A_2 Na1A_2 1_555 1_555
O2C_2 Na1C_2 1_555 1_555
O2E Na1E_2 1_555 1_555
O3J Na1A_2 1_555 1_555
O3K Na1_2 1_555 1_555

#END
