
#######################################################################
#
#                 Cambridge Crystallographic Data Centre
#                                CCDC 
#
#######################################################################
#
# If this CIF has been generated from an entry in the Cambridge 
# Structural Database, then it will include bibliographic, chemical, 
# crystal, experimental, refinement or atomic coordinate data resulting 
# from the CCDC's data processing and validation procedures.
#
#######################################################################

data_LACYUM
_chemical_formula_moiety         'C160 H76 Fe40 N12 O107 Zn4'
_symmetry_cell_setting           monoclinic
_symmetry_space_group_name_H-M   'P 2/m'
_symmetry_Int_Tables_number      10
_space_group_name_Hall           '-P 2y'
loop_
_symmetry_equiv_pos_site_id
_symmetry_equiv_pos_as_xyz
1 x,y,z
2 -x,y,-z
3 -x,-y,-z
4 x,-y,z
_cell_length_a                   20.0414(19)
_cell_length_b                   16.2590(16)
_cell_length_c                   23.996(2)
_cell_angle_alpha                90
_cell_angle_beta                 114.529(4)
_cell_angle_gamma                90
_cell_volume                     7113.5
loop_
_atom_site_label
_atom_site_type_symbol
_atom_site_fract_x
_atom_site_fract_y
_atom_site_fract_z
Zn1 Zn -0.00777(14) 0.0000 0.48414(5)
Zn2 Zn 0.72477(10) 1.0000 0.98412(10)
Fe1 Fe 0.41779(4) 0.5000 0.66020(4)
Fe2 Fe 0.25770(5) 0.5000 0.33989(4)
Fe3 Fe 0.36050(3) 0.60368(4) 0.74549(3)
Fe4 Fe 0.11507(3) 0.39633(4) 0.25451(3)
N1 N -0.0000 0.1258(2) 0.5000
N2 N 0.1023(2) 0.0000 0.5003(2)
N3 N 0.7883(2) 1.0000 1.0772(2)
N4 N 0.6948(2) 1.0000 0.8903(2)
N5 N 0.74174(17) 0.87542(19) 0.98327(15)
O1 O 0.31239(15) 0.33844(16) 0.66273(14)
O2 O 0.1538(2) 0.5000 0.28550(16)
O3 O 0.3681(2) 0.5000 0.71425(17)
O4 O 0.14971(17) 0.33856(17) 0.33762(14)
O5 O 0.80710(18) 0.6659(2) 0.76302(15)
O6 O 0.45559(17) 0.6661(2) 0.76293(14)
O7 O 0.4668(2) 0.5000 0.6002(2)
O8 O 0.3661(2) 0.5000 0.3998(2)
H1 H 0.3849 0.4575 0.4294
O9 O 1.03871(17) 0.7019(2) 1.21956(16)
O10 O 0.68097(18) 0.7017(2) 1.21947(16)
O11 O 0.74881(18) 0.5942(2) 1.25657(17)
O12 O 0.4082(2) 0.5693(2) 0.83512(15)
O13 O 1.00776(17) 0.5941(2) 1.25641(18)
O14 O 0.0742(2) 0.4308(2) 0.16497(16)
C1 C 0.14309(19) 0.0682(2) 0.49997(17)
C2 C 0.05477(19) 0.1752(2) 0.49987(18)
C3 C 0.12097(19) 0.1492(2) 0.50023(17)
C4 C 0.17212(19) 0.2164(2) 0.49976(19)
C5 C 0.22093(19) 0.2500(2) 0.55500(19)
H2 H 0.2247 0.2275 0.5927
C6 C 0.16607(19) 0.2499(2) 0.44513(19)
H3 H 0.1324 0.2271 0.4075
C7 C 0.6620(2) 0.7829(2) 0.82458(18)
C8 C 0.6768(2) 0.9317(2) 0.85349(19)
C9 C 0.8075(2) 0.9322(3) 1.1146(2)
C10 C 0.2647(2) 0.3175(2) 0.5546(2)
C11 C 0.5923(2) 0.7502(2) 0.80467(18)
H4 H 0.5581 0.7722 0.8188
C12 C 0.2093(2) 0.3175(2) 0.44464(19)
C13 C 0.7976(2) 0.8506(2) 1.09471(19)
C14 C 0.2593(2) 0.3492(2) 0.5001(2)
H5 H 0.2903 0.3935 0.5001
C15 C 0.7166(2) 0.8249(2) 0.93358(19)
C16 C 0.7678(2) 0.8242(2) 1.0348(2)
C17 C 0.8220(2) 0.7852(2) 1.14394(19)
C18 C 0.2120(2) 0.0420(2) 0.4999(2)
H6 H 0.2501 0.0767 0.4998
C19 C 0.6866(2) 0.8511(3) 0.87330(19)
C20 C 0.7124(2) 0.7501(2) 0.80485(18)
H7 H 0.7605 0.7722 0.8189
C21 C 0.5726(2) 0.6841(3) 0.76344(19)
C22 C 0.6911(2) 0.6836(3) 0.76362(19)
C23 C 0.7742(2) 0.7559(3) 1.1660(2)
H8 H 0.7261 0.7781 1.1514
C24 C 0.7577(2) 0.7397(2) 1.0159(2)
H9 H 0.7699 0.6928 1.0418
C25 C 0.8923(2) 0.7559(3) 1.1661(2)
H10 H 0.9257 0.7783 1.1514
C26 C 0.7271(2) 0.7397(3) 0.9535(2)
H11 H 0.7149 0.6925 0.9278
C27 C 0.7388(3) 0.6610(3) 1.2302(2)
C28 C 0.6218(2) 0.6509(3) 0.74394(19)
H12 H 0.6082 0.6052 0.7168
C29 C 0.9154(2) 0.6941(3) 1.2097(2)
C30 C 0.0334(2) 0.2588(2) 0.4995(2)
H13 H 0.0611 0.3058 0.4988
C31 C 0.8393(3) 0.9587(3) 1.17892(19)
H14 H 0.8566 0.9240 1.2139
C32 C 0.4229(4) 0.5000 0.8605(3)
H15 H 0.4481 0.5000 0.9038
C33 C 0.6447(3) 0.9585(3) 0.7900(2)
H16 H 0.6270 0.9239 0.7549
C34 C 0.7951(2) 0.6938(3) 1.2098(2)
C35 C 0.7441(3) 0.6413(3) 0.7442(2)
C36 C 0.9912(3) 0.6617(3) 1.2303(2)
C37 C 0.3149(2) 0.3585(3) 0.6140(2)
C38 C 0.4995(3) 0.6408(3) 0.7438(2)
C39 C 0.0639(4) 0.5000 0.1393(4)
H17 H 0.0466 0.5000 0.0960
C40 C 0.2006(3) 0.3583(3) 0.3858(2)
C41 C 0.8659(3) 0.6623(3) 1.2304(2)
H18 H 0.8803 0.6184 1.2591
O15 O 0.6184(5) 1.0000 0.9824(4)
H19 H 0.5943 0.9494 0.9815
O16 O 0.5015(3) 0.5672(4) 0.7185(3)
O17 O 0.3701(3) 0.3986(3) 0.6159(2)
O18 O 0.7166(3) 0.5663(4) 0.7179(3)
O19 O -0.0582(4) 0.0000 0.3836(4)
H20 H -0.0692 -0.0506 0.3618
O20 O 0.2535(3) 0.3984(3) 0.3837(2)
N2A N -0.1023(2) -0.0000 0.4997(2)
O1A O -0.31239(15) 0.33844(16) 0.33727(14)
O4A O -0.14971(17) 0.33856(17) 0.66238(14)
C1A C -0.14309(19) 0.0682(2) 0.50003(17)
C2A C -0.05477(19) 0.1752(2) 0.50013(18)
C3A C -0.12097(19) 0.1492(2) 0.49977(17)
C4A C -0.17212(19) 0.2164(2) 0.50024(19)
C5A C -0.22093(19) 0.2500(2) 0.44500(19)
H2A H -0.2247 0.2275 0.4073
C6A C -0.16607(19) 0.2499(2) 0.55487(19)
H3A H -0.1324 0.2271 0.5925
C10A C -0.2647(2) 0.3175(2) 0.4454(2)
C12A C -0.2093(2) 0.3175(2) 0.55536(19)
C14A C -0.2593(2) 0.3492(2) 0.4999(2)
H5A H -0.2903 0.3935 0.4999
C18A C -0.2120(2) 0.0420(2) 0.5001(2)
H6A H -0.2501 0.0767 0.5002
C30A C -0.0334(2) 0.2588(2) 0.5005(2)
H13A H -0.0611 0.3058 0.5012
C37A C -0.3149(2) 0.3585(3) 0.3860(2)
C40A C -0.2006(3) 0.3583(3) 0.6142(2)
O17A O -0.3701(3) 0.3986(3) 0.3841(2)
O20A O -0.2535(3) 0.3984(3) 0.6163(2)
N1B N -0.0000 -0.1258(2) 0.5000
O1C O 0.31239(15) -0.33844(16) 0.66273(14)
O4C O 0.14971(17) -0.33856(17) 0.33762(14)
C1C C 0.14309(19) -0.0682(2) 0.49997(17)
C2C C 0.05477(19) -0.1752(2) 0.49987(18)
C3C C 0.12097(19) -0.1492(2) 0.50023(17)
C4C C 0.17212(19) -0.2164(2) 0.49976(19)
C5C C 0.22093(19) -0.2500(2) 0.55500(19)
H2C H 0.2247 -0.2275 0.5927
C6C C 0.16607(19) -0.2499(2) 0.44513(19)
H3C H 0.1324 -0.2271 0.4075
C10C C 0.2647(2) -0.3175(2) 0.5546(2)
C12C C 0.2093(2) -0.3175(2) 0.44464(19)
C14C C 0.2593(2) -0.3492(2) 0.5001(2)
H5C H 0.2903 -0.3935 0.5001
C18C C 0.2120(2) -0.0420(2) 0.4999(2)
H6C H 0.2501 -0.0767 0.4998
C30C C 0.0334(2) -0.2588(2) 0.4995(2)
H13C H 0.0611 -0.3058 0.4988
C37C C 0.3149(2) -0.3585(3) 0.6140(2)
C40C C 0.2006(3) -0.3583(3) 0.3858(2)
O17C O 0.3701(3) -0.3986(3) 0.6159(2)
O20C O 0.2535(3) -0.3984(3) 0.3837(2)
O1B O -0.31239(15) -0.33844(16) 0.33727(14)
O4B O -0.14971(17) -0.33856(17) 0.66238(14)
C1B C -0.14309(19) -0.0682(2) 0.50003(17)
C2B C -0.05477(19) -0.1752(2) 0.50013(18)
C3B C -0.12097(19) -0.1492(2) 0.49977(17)
C4B C -0.17212(19) -0.2164(2) 0.50024(19)
C5B C -0.22093(19) -0.2500(2) 0.44500(19)
H2B H -0.2247 -0.2275 0.4073
C6B C -0.16607(19) -0.2499(2) 0.55487(19)
H3B H -0.1324 -0.2271 0.5925
C10B C -0.2647(2) -0.3175(2) 0.4454(2)
C12B C -0.2093(2) -0.3175(2) 0.55536(19)
C14B C -0.2593(2) -0.3492(2) 0.4999(2)
H5B H -0.2903 -0.3935 0.4999
C18B C -0.2120(2) -0.0420(2) 0.5001(2)
H6B H -0.2501 -0.0767 0.5002
C30B C -0.0334(2) -0.2588(2) 0.5005(2)
H13B H -0.0611 -0.3058 0.5012
C37B C -0.3149(2) -0.3585(3) 0.3860(2)
C40B C -0.2006(3) -0.3583(3) 0.6142(2)
O17B O -0.3701(3) -0.3986(3) 0.3841(2)
O20B O -0.2535(3) -0.3984(3) 0.6163(2)
N5C N 0.74174(17) 1.12458(19) 0.98327(15)
O5C O 0.80710(18) 1.3341(2) 0.76302(15)
O6C O 0.45559(17) 1.3339(2) 0.76293(14)
O9C O 1.03871(17) 1.2981(2) 1.21956(16)
O10C O 0.68097(18) 1.2983(2) 1.21947(16)
O11C O 0.74881(18) 1.4058(2) 1.25657(17)
O13C O 1.00776(17) 1.4059(2) 1.25641(18)
C7C C 0.6620(2) 1.2171(2) 0.82458(18)
C8C C 0.6768(2) 1.0683(2) 0.85349(19)
C9C C 0.8075(2) 1.0678(3) 1.1146(2)
C11C C 0.5923(2) 1.2498(2) 0.80467(18)
H4C H 0.5581 1.2278 0.8188
C13C C 0.7976(2) 1.1494(2) 1.09471(19)
C15C C 0.7166(2) 1.1751(2) 0.93358(19)
C16C C 0.7678(2) 1.1758(2) 1.0348(2)
C17C C 0.8220(2) 1.2148(2) 1.14394(19)
C19C C 0.6866(2) 1.1489(3) 0.87330(19)
C20C C 0.7124(2) 1.2499(2) 0.80485(18)
H7C H 0.7605 1.2278 0.8189
C21C C 0.5726(2) 1.3159(3) 0.76344(19)
C22C C 0.6911(2) 1.3164(3) 0.76362(19)
C23C C 0.7742(2) 1.2441(3) 1.1660(2)
H8C H 0.7261 1.2219 1.1514
C24C C 0.7577(2) 1.2603(2) 1.0159(2)
H9C H 0.7699 1.3072 1.0418
C25C C 0.8923(2) 1.2441(3) 1.1661(2)
H10C H 0.9257 1.2217 1.1514
C26C C 0.7271(2) 1.2603(3) 0.9535(2)
H11C H 0.7149 1.3075 0.9278
C27C C 0.7388(3) 1.3390(3) 1.2302(2)
C28C C 0.6218(2) 1.3491(3) 0.74394(19)
H12C H 0.6082 1.3948 0.7168
C29C C 0.9154(2) 1.3059(3) 1.2097(2)
C31C C 0.8393(3) 1.0413(3) 1.17892(19)
H14C H 0.8566 1.0760 1.2139
C33C C 0.6447(3) 1.0415(3) 0.7900(2)
H16C H 0.6270 1.0761 0.7549
C34C C 0.7951(2) 1.3062(3) 1.2098(2)
C35C C 0.7441(3) 1.3587(3) 0.7442(2)
C36C C 0.9912(3) 1.3383(3) 1.2303(2)
C38C C 0.4995(3) 1.3592(3) 0.7438(2)
C41C C 0.8659(3) 1.3377(3) 1.2304(2)
H18C H 0.8803 1.3816 1.2591
O16C O 0.5015(3) 1.4328(4) 0.7185(3)
O18C O 0.7166(3) 1.4337(4) 0.7179(3)
H1C H 0.3849 0.5425 0.4294
O12C O 0.4082(2) 0.4307(2) 0.83512(15)
O14C O 0.0742(2) 0.5692(2) 0.16497(16)
H19C H 0.5943 1.0506 0.9815
H20C H -0.0692 0.0506 0.3618
Zn1A Zn 0.00777(14) 0.0000 0.51586(5)
Zn2A Zn -0.72477(10) 1.0000 0.01588(10)
Fe1A Fe -0.41779(4) 0.5000 0.33980(4)
Fe2A Fe -0.25770(5) 0.5000 0.66011(4)
Fe3A Fe -0.36050(3) 0.60368(4) 0.25451(3)
Fe4A Fe -0.11507(3) 0.39633(4) 0.74549(3)
N3A N -0.7883(2) 1.0000 -0.0772(2)
N4A N -0.6948(2) 1.0000 0.1097(2)
N5A N -0.74174(17) 0.87542(19) 0.01673(15)
O2A O -0.1538(2) 0.5000 0.71450(16)
O3A O -0.3681(2) 0.5000 0.28575(17)
O5A O -0.80710(18) 0.6659(2) 0.23698(15)
O6A O -0.45559(17) 0.6661(2) 0.23707(14)
O7A O -0.4668(2) 0.5000 0.3998(2)
O8A O -0.3661(2) 0.5000 0.6002(2)
H1A H -0.3849 0.4575 0.5706
O9A O -1.03871(17) 0.7019(2) -0.21956(16)
O10A O -0.68097(18) 0.7017(2) -0.21947(16)
O11A O -0.74881(18) 0.5942(2) -0.25657(17)
O12A O -0.4082(2) 0.5693(2) 0.16488(15)
O13A O -1.00776(17) 0.5941(2) -0.25641(18)
O14A O -0.0742(2) 0.4308(2) 0.83503(16)
C7A C -0.6620(2) 0.7829(2) 0.17542(18)
C8A C -0.6768(2) 0.9317(2) 0.14651(19)
C9A C -0.8075(2) 0.9322(3) -0.1146(2)
C11A C -0.5923(2) 0.7502(2) 0.19533(18)
H4A H -0.5581 0.7722 0.1812
C13A C -0.7976(2) 0.8506(2) -0.09471(19)
C15A C -0.7166(2) 0.8249(2) 0.06642(19)
C16A C -0.7678(2) 0.8242(2) -0.0348(2)
C17A C -0.8220(2) 0.7852(2) -0.14394(19)
C19A C -0.6866(2) 0.8511(3) 0.12670(19)
C20A C -0.7124(2) 0.7501(2) 0.19515(18)
H7A H -0.7605 0.7722 0.1811
C21A C -0.5726(2) 0.6841(3) 0.23656(19)
C22A C -0.6911(2) 0.6836(3) 0.23638(19)
C23A C -0.7742(2) 0.7559(3) -0.1660(2)
H8A H -0.7261 0.7781 -0.1514
C24A C -0.7577(2) 0.7397(2) -0.0159(2)
H9A H -0.7699 0.6928 -0.0418
C25A C -0.8923(2) 0.7559(3) -0.1661(2)
H10A H -0.9257 0.7783 -0.1514
C26A C -0.7271(2) 0.7397(3) 0.0465(2)
H11A H -0.7149 0.6925 0.0722
C27A C -0.7388(3) 0.6610(3) -0.2302(2)
C28A C -0.6218(2) 0.6509(3) 0.25606(19)
H12A H -0.6082 0.6052 0.2832
C29A C -0.9154(2) 0.6941(3) -0.2097(2)
C31A C -0.8393(3) 0.9587(3) -0.17892(19)
H14A H -0.8566 0.9240 -0.2139
C32A C -0.4229(4) 0.5000 0.1395(3)
H15A H -0.4481 0.5000 0.0962
C33A C -0.6447(3) 0.9585(3) 0.2100(2)
H16A H -0.6270 0.9239 0.2451
C34A C -0.7951(2) 0.6938(3) -0.2098(2)
C35A C -0.7441(3) 0.6413(3) 0.2558(2)
C36A C -0.9912(3) 0.6617(3) -0.2303(2)
C38A C -0.4995(3) 0.6408(3) 0.2562(2)
C39A C -0.0639(4) 0.5000 0.8607(4)
H17A H -0.0466 0.5000 0.9040
C41A C -0.8659(3) 0.6623(3) -0.2304(2)
H18A H -0.8803 0.6184 -0.2591
O15A O -0.6184(5) 1.0000 0.0176(4)
H19A H -0.5943 0.9494 0.0185
O16A O -0.5015(3) 0.5672(4) 0.2815(3)
O18A O -0.7166(3) 0.5663(4) 0.2821(3)
O19A O 0.0582(4) -0.0000 0.6164(4)
H20A H 0.0692 -0.0506 0.6382
N5B N -0.74174(17) 1.12458(19) 0.01673(15)
O5B O -0.80710(18) 1.3341(2) 0.23698(15)
O6B O -0.45559(17) 1.3339(2) 0.23707(14)
O9B O -1.03871(17) 1.2981(2) -0.21956(16)
O10B O -0.68097(18) 1.2983(2) -0.21947(16)
O11B O -0.74881(18) 1.4058(2) -0.25657(17)
O13B O -1.00776(17) 1.4059(2) -0.25641(18)
C7B C -0.6620(2) 1.2171(2) 0.17542(18)
C8B C -0.6768(2) 1.0683(2) 0.14651(19)
C9B C -0.8075(2) 1.0678(3) -0.1146(2)
C11B C -0.5923(2) 1.2498(2) 0.19533(18)
H4B H -0.5581 1.2278 0.1812
C13B C -0.7976(2) 1.1494(2) -0.09471(19)
C15B C -0.7166(2) 1.1751(2) 0.06642(19)
C16B C -0.7678(2) 1.1758(2) -0.0348(2)
C17B C -0.8220(2) 1.2148(2) -0.14394(19)
C19B C -0.6866(2) 1.1489(3) 0.12670(19)
C20B C -0.7124(2) 1.2499(2) 0.19515(18)
H7B H -0.7605 1.2278 0.1811
C21B C -0.5726(2) 1.3159(3) 0.23656(19)
C22B C -0.6911(2) 1.3164(3) 0.23638(19)
C23B C -0.7742(2) 1.2441(3) -0.1660(2)
H8B H -0.7261 1.2219 -0.1514
C24B C -0.7577(2) 1.2603(2) -0.0159(2)
H9B H -0.7699 1.3072 -0.0418
C25B C -0.8923(2) 1.2441(3) -0.1661(2)
H10B H -0.9257 1.2217 -0.1514
C26B C -0.7271(2) 1.2603(3) 0.0465(2)
H11B H -0.7149 1.3075 0.0722
C27B C -0.7388(3) 1.3390(3) -0.2302(2)
C28B C -0.6218(2) 1.3491(3) 0.25606(19)
H12B H -0.6082 1.3948 0.2832
C29B C -0.9154(2) 1.3059(3) -0.2097(2)
C31B C -0.8393(3) 1.0413(3) -0.17892(19)
H14B H -0.8566 1.0760 -0.2139
C33B C -0.6447(3) 1.0415(3) 0.2100(2)
H16B H -0.6270 1.0761 0.2451
C34B C -0.7951(2) 1.3062(3) -0.2098(2)
C35B C -0.7441(3) 1.3587(3) 0.2558(2)
C36B C -0.9912(3) 1.3383(3) -0.2303(2)
C38B C -0.4995(3) 1.3592(3) 0.2562(2)
C41B C -0.8659(3) 1.3377(3) -0.2304(2)
H18B H -0.8803 1.3816 -0.2591
O16B O -0.5015(3) 1.4328(4) 0.2815(3)
O18B O -0.7166(3) 1.4337(4) 0.2821(3)
H1B H -0.3849 0.5425 0.5706
O12B O -0.4082(2) 0.4307(2) 0.16488(15)
O14B O -0.0742(2) 0.5692(2) 0.83503(16)
H19B H -0.5943 1.0506 0.0185
H20B H 0.0692 0.0506 0.6382
Fe4B Fe -0.11507(3) -0.39633(4) 0.74549(3)
Fe4C Fe 0.11507(3) -0.39633(4) 0.25451(3)
Fe3C Fe 0.36050(3) 0.39632(4) 0.74549(3)
Fe3A_2 Fe 0.63950(3) 0.60368(4) 1.25451(3)
Fe1_2 Fe 0.41779(4) -0.5000 0.66020(4)
Fe1_3 Fe 0.41779(4) 1.5000 0.66020(4)
Fe1A_2 Fe -0.41779(4) -0.5000 0.33980(4)
Fe1A_3 Fe -0.41779(4) 1.5000 0.33980(4)
Fe2_2 Fe -0.74230(5) 0.5000 0.33989(4)
Fe2_3 Fe -0.74230(5) 1.5000 0.33989(4)
Fe2_4 Fe 0.25770(5) -0.5000 0.33989(4)
Fe2A_2 Fe -0.25770(5) -0.5000 0.66011(4)
Fe2A_3 Fe 0.74230(5) 0.5000 0.66011(4)
Fe2A_4 Fe 0.74230(5) 1.5000 0.66011(4)
Fe3_2 Fe -0.63950(3) 0.60368(4) -0.25451(3)
Fe3_3 Fe 0.36050(3) -0.39632(4) 0.74549(3)
Fe3A_3 Fe -0.36050(3) -0.39632(4) 0.25451(3)
Fe3B Fe -0.36050(3) 0.39632(4) 0.25451(3)
Fe3B_2 Fe -0.36050(3) 1.39632(4) 0.25451(3)
Fe3B_3 Fe 0.63950(3) 1.39632(4) 1.25451(3)
Fe3C_2 Fe -0.63950(3) 1.39632(4) -0.25451(3)
Fe3C_3 Fe 0.36050(3) 1.39632(4) 0.74549(3)
Fe4_2 Fe -0.88493(3) 1.39633(4) 0.25451(3)
Fe4_3 Fe 1.11507(3) 1.39633(4) 1.25451(3)
Fe4A_2 Fe -1.11507(3) 1.39633(4) -0.25451(3)
Fe4A_3 Fe 0.88493(3) 1.39633(4) 0.74549(3)
Fe4B_2 Fe -1.11507(3) 0.60367(4) -0.25451(3)
Fe4B_3 Fe -0.11507(3) 0.60367(4) 0.74549(3)
Fe4B_4 Fe 0.88493(3) 0.60367(4) 0.74549(3)
Fe4C_2 Fe -0.88493(3) 0.60367(4) 0.25451(3)
Fe4C_3 Fe 0.11507(3) 0.60367(4) 0.25451(3)
Fe4C_4 Fe 1.11507(3) 0.60367(4) 1.25451(3)
O1B_2 O -0.31239(15) 0.66156(16) 0.33727(14)
O1B_3 O 0.68761(15) 0.66156(16) 1.33727(14)
O1C_2 O 0.31239(15) 0.66156(16) 0.66273(14)
O2_2 O 0.1538(2) -0.5000 0.28550(16)
O2A_2 O -0.1538(2) -0.5000 0.71450(16)
O3A_2 O 0.6319(2) 0.5000 1.28575(17)
O5_2 O -0.19290(18) -0.3341(2) 0.76302(15)
O5A_2 O 0.19290(18) -0.3341(2) 0.23698(15)
O5B_2 O 0.19290(18) 0.3341(2) 0.23698(15)
O5C_2 O -0.19290(18) 0.3341(2) 0.76302(15)
O6A_2 O 0.54441(17) 0.6661(2) 1.23707(14)
O6C_2 O 0.45559(17) 0.3339(2) 0.76293(14)
O9_2 O 0.03871(17) -0.2981(2) 0.21956(16)
O9A_2 O -0.03871(17) -0.2981(2) 0.78044(16)
O9B_2 O -0.03871(17) 0.2981(2) 0.78044(16)
O9C_2 O 0.03871(17) 0.2981(2) 0.21956(16)
O10_2 O -0.31903(18) 0.7017(2) 0.21947(16)
O10A_2 O 0.31903(18) 0.7017(2) 0.78053(16)
O10B_2 O 0.31903(18) 0.2983(2) 0.78053(16)
O11_2 O -0.25119(18) 0.5942(2) 0.25657(17)
O11A_2 O 0.25119(18) 0.5942(2) 0.74343(17)
O11B_2 O 0.25119(18) 0.4058(2) 0.74343(17)
O12A_2 O 0.5918(2) 0.5693(2) 1.16488(15)
O13_2 O 0.00776(17) -0.4059(2) 0.25641(18)
O13A_2 O -0.00776(17) -0.4059(2) 0.74359(18)
O13B_2 O -0.00776(17) 0.4059(2) 0.74359(18)
O13C_2 O 0.00776(17) 0.4059(2) 0.25641(18)
O14B_2 O -0.0742(2) -0.4308(2) 0.83503(16)
O14C_2 O 0.0742(2) -0.4308(2) 0.16497(16)
O16B_2 O -0.5015(3) 0.4328(4) 0.2815(3)
O16C_2 O 0.5015(3) 0.4328(4) 0.7185(3)
O17B_2 O -0.3701(3) 0.6014(3) 0.3841(2)
O17C_2 O 0.3701(3) 0.6014(3) 0.6159(2)
O18_2 O -0.2834(3) 0.5663(4) 0.7179(3)
O18A_2 O 0.2834(3) 0.5663(4) 0.2821(3)
O18B_2 O 0.2834(3) 0.4337(4) 0.2821(3)
O18C_2 O -0.2834(3) 0.4337(4) 0.7179(3)
O20B_2 O -0.2535(3) 0.6016(3) 0.6163(2)
O20C_2 O 0.2535(3) 0.6016(3) 0.3837(2)
loop_
_geom_bond_atom_site_label_1
_geom_bond_atom_site_label_2
_geom_bond_site_symmetry_1
_geom_bond_site_symmetry_2
Zn1 N1 1_555 1_555
Zn2 N3 1_555 1_555
Fe1 O3 1_555 1_555
Fe2 O2 1_555 1_555
Fe3 O3 1_555 1_555
Fe4 O2 1_555 1_555
N1 C2 1_555 1_555
N2 Zn1 1_555 1_555
N3 C9 1_555 1_555
N4 Zn2 1_555 1_555
N5 Zn2 1_555 1_555
O1 C37 1_555 1_555
O2 Fe4C_3 1_555 1_555
O3 Fe3C 1_555 1_555
O4 Fe4 1_555 1_555
O5 C35 1_555 1_555
O6 Fe3 1_555 1_555
O7 Fe1 1_555 1_555
O8 Fe2 1_555 1_555
H1 O8 1_555 1_555
O9 C36 1_555 1_555
O10 C27 1_555 1_555
O11 C27 1_555 1_555
O12 Fe3 1_555 1_555
O13 C36 1_555 1_555
O14 Fe4 1_555 1_555
C1 N2 1_555 1_555
C2 C3 1_555 1_555
C3 C1 1_555 1_555
C4 C3 1_555 1_555
C5 C4 1_555 1_555
H2 C5 1_555 1_555
C6 C4 1_555 1_555
H3 C6 1_555 1_555
C7 C11 1_555 1_555
C8 N4 1_555 1_555
C9 C13 1_555 1_555
C10 C5 1_555 1_555
C11 H4 1_555 1_555
C12 C6 1_555 1_555
C13 C16 1_555 1_555
C14 C10 1_555 1_555
H5 C14 1_555 1_555
C15 N5 1_555 1_555
C16 N5 1_555 1_555
C17 C13 1_555 1_555
C18 C1 1_555 1_555
H6 C18 1_555 1_555
C19 C7 1_555 1_555
C20 C7 1_555 1_555
H7 C20 1_555 1_555
C21 C11 1_555 1_555
C22 C20 1_555 1_555
C23 C17 1_555 1_555
H8 C23 1_555 1_555
C24 C16 1_555 1_555
H9 C24 1_555 1_555
C25 C17 1_555 1_555
H10 C25 1_555 1_555
C26 C15 1_555 1_555
H11 C26 1_555 1_555
C27 C34 1_555 1_555
C28 C21 1_555 1_555
H12 C28 1_555 1_555
C29 C25 1_555 1_555
C30 C2 1_555 1_555
H13 C30 1_555 1_555
C31 C9 1_555 1_555
H14 C31 1_555 1_555
C32 O12 1_555 1_555
H15 C32 1_555 1_555
C33 C8 1_555 1_555
H16 C33 1_555 1_555
C34 C23 1_555 1_555
C35 C22 1_555 1_555
C36 C29 1_555 1_555
C37 C10 1_555 1_555
C38 O6 1_555 1_555
C39 O14 1_555 1_555
H17 C39 1_555 1_555
C40 O4 1_555 1_555
C41 C29 1_555 1_555
H18 C41 1_555 1_555
O15 Zn2 1_555 1_555
H19 O15 1_555 1_555
O16 Fe1 1_555 1_555
O17 Fe1 1_555 1_555
O18 C35 1_555 1_555
O19 Zn1 1_555 1_555
H20 O19 1_555 1_555
O20 Fe2 1_555 1_555
N2A Zn1 1_555 1_555
O1A C37A 1_555 1_555
O4A C40A 1_555 1_555
C1A N2A 1_555 1_555
C2A N1 1_555 1_555
C3A C1A 1_555 1_555
C4A C3A 1_555 1_555
C5A C4A 1_555 1_555
H2A C5A 1_555 1_555
C6A C4A 1_555 1_555
H3A C6A 1_555 1_555
C10A C5A 1_555 1_555
C12A C6A 1_555 1_555
C14A C10A 1_555 1_555
H5A C14A 1_555 1_555
C18A C1A 1_555 1_555
H6A C18A 1_555 1_555
C30A C30 1_555 1_555
H13A C30A 1_555 1_555
C37A C10A 1_555 1_555
C40A C12A 1_555 1_555
O17A C37A 1_555 1_555
O20A C40A 1_555 1_555
N1B Zn1 1_555 1_555
O1C C37C 1_555 1_555
O4C C40C 1_555 1_555
C1C N2 1_555 1_555
C2C N1B 1_555 1_555
C3C C1C 1_555 1_555
C4C C3C 1_555 1_555
C5C C4C 1_555 1_555
H2C C5C 1_555 1_555
C6C C4C 1_555 1_555
H3C C6C 1_555 1_555
C10C C5C 1_555 1_555
C12C C6C 1_555 1_555
C14C C10C 1_555 1_555
H5C C14C 1_555 1_555
C18C C18 1_555 1_555
H6C C18C 1_555 1_555
C30C C2C 1_555 1_555
H13C C30C 1_555 1_555
C37C C10C 1_555 1_555
C40C C12C 1_555 1_555
O17C C37C 1_555 1_555
O20C C40C 1_555 1_555
O1B C37B 1_555 1_555
O4B C40B 1_555 1_555
C1B N2A 1_555 1_555
C2B N1B 1_555 1_555
C3B C1B 1_555 1_555
C4B C3B 1_555 1_555
C5B C4B 1_555 1_555
H2B C5B 1_555 1_555
C6B C4B 1_555 1_555
H3B C6B 1_555 1_555
C10B C5B 1_555 1_555
C12B C6B 1_555 1_555
C14B C10B 1_555 1_555
H5B C14B 1_555 1_555
C18B C18A 1_555 1_555
H6B C18B 1_555 1_555
C30B C30C 1_555 1_555
H13B C30B 1_555 1_555
C37B C10B 1_555 1_555
C40B C12B 1_555 1_555
O17B C37B 1_555 1_555
O20B C40B 1_555 1_555
N5C Zn2 1_555 1_555
O5C C35C 1_555 1_555
O6C C38C 1_555 1_555
O9C C36C 1_555 1_555
O10C C27C 1_555 1_555
O11C C27C 1_555 1_555
O13C C36C 1_555 1_555
C7C C11C 1_555 1_555
C8C N4 1_555 1_555
C9C N3 1_555 1_555
C11C H4C 1_555 1_555
C13C C9C 1_555 1_555
C15C N5C 1_555 1_555
C16C N5C 1_555 1_555
C17C C13C 1_555 1_555
C19C C7C 1_555 1_555
C20C C7C 1_555 1_555
H7C C20C 1_555 1_555
C21C C11C 1_555 1_555
C22C C20C 1_555 1_555
C23C C17C 1_555 1_555
H8C C23C 1_555 1_555
C24C C16C 1_555 1_555
H9C C24C 1_555 1_555
C25C C17C 1_555 1_555
H10C C25C 1_555 1_555
C26C C15C 1_555 1_555
H11C C26C 1_555 1_555
C27C C34C 1_555 1_555
C28C C21C 1_555 1_555
H12C C28C 1_555 1_555
C29C C25C 1_555 1_555
C31C C31 1_555 1_555
H14C C31C 1_555 1_555
C33C C33 1_555 1_555
H16C C33C 1_555 1_555
C34C C23C 1_555 1_555
C35C C22C 1_555 1_555
C36C C29C 1_555 1_555
C38C C21C 1_555 1_555
C41C C29C 1_555 1_555
H18C C41C 1_555 1_555
O16C C38C 1_555 1_555
O18C C35C 1_555 1_555
H1C O8 1_555 1_555
O12C C32 1_555 1_555
O14C C39 1_555 1_555
H19C O15 1_555 1_555
H20C O19 1_555 1_555
Zn1A Zn1 1_555 1_555
Zn2A N3A 1_555 1_555
Fe1A O17A 1_555 1_555
Fe2A O20A 1_555 1_555
Fe3A O3A 1_555 1_555
Fe4A O4A 1_555 1_555
N3A C9A 1_555 1_555
N4A Zn2A 1_555 1_555
N5A Zn2A 1_555 1_555
O2A Fe2A 1_555 1_555
O3A Fe1A 1_555 1_555
O5A C35A 1_555 1_555
O6A Fe3A 1_555 1_555
O7A Fe1A 1_555 1_555
O8A Fe2A 1_555 1_555
H1A O8A 1_555 1_555
O9A C36A 1_555 1_555
O10A C27A 1_555 1_555
O11A C27A 1_555 1_555
O12A Fe3A 1_555 1_555
O13A C36A 1_555 1_555
O14A Fe4A 1_555 1_555
C7A C11A 1_555 1_555
C8A N4A 1_555 1_555
C9A C13A 1_555 1_555
C11A H4A 1_555 1_555
C13A C16A 1_555 1_555
C15A N5A 1_555 1_555
C16A N5A 1_555 1_555
C17A C13A 1_555 1_555
C19A C7A 1_555 1_555
C20A C7A 1_555 1_555
H7A C20A 1_555 1_555
C21A C11A 1_555 1_555
C22A C20A 1_555 1_555
C23A C17A 1_555 1_555
H8A C23A 1_555 1_555
C24A C16A 1_555 1_555
H9A C24A 1_555 1_555
C25A C17A 1_555 1_555
H10A C25A 1_555 1_555
C26A C15A 1_555 1_555
H11A C26A 1_555 1_555
C27A C34A 1_555 1_555
C28A C21A 1_555 1_555
H12A C28A 1_555 1_555
C29A C25A 1_555 1_555
C31A C9A 1_555 1_555
H14A C31A 1_555 1_555
C32A O12A 1_555 1_555
H15A C32A 1_555 1_555
C33A C8A 1_555 1_555
H16A C33A 1_555 1_555
C34A C23A 1_555 1_555
C35A C22A 1_555 1_555
C36A C29A 1_555 1_555
C38A O6A 1_555 1_555
C39A O14A 1_555 1_555
H17A C39A 1_555 1_555
C41A C29A 1_555 1_555
H18A C41A 1_555 1_555
O15A Zn2A 1_555 1_555
H19A O15A 1_555 1_555
O16A Fe1A 1_555 1_555
O18A C35A 1_555 1_555
O19A Zn1A 1_555 1_555
H20A O19A 1_555 1_555
N5B Zn2A 1_555 1_555
O5B C35B 1_555 1_555
O6B C38B 1_555 1_555
O9B C36B 1_555 1_555
O10B C27B 1_555 1_555
O11B C27B 1_555 1_555
O13B C36B 1_555 1_555
C7B C11B 1_555 1_555
C8B N4A 1_555 1_555
C9B N3A 1_555 1_555
C11B H4B 1_555 1_555
C13B C9B 1_555 1_555
C15B N5B 1_555 1_555
C16B N5B 1_555 1_555
C17B C13B 1_555 1_555
C19B C7B 1_555 1_555
C20B C7B 1_555 1_555
H7B C20B 1_555 1_555
C21B C11B 1_555 1_555
C22B C20B 1_555 1_555
C23B C17B 1_555 1_555
H8B C23B 1_555 1_555
C24B C16B 1_555 1_555
H9B C24B 1_555 1_555
C25B C17B 1_555 1_555
H10B C25B 1_555 1_555
C26B C15B 1_555 1_555
H11B C26B 1_555 1_555
C27B C34B 1_555 1_555
C28B C21B 1_555 1_555
H12B C28B 1_555 1_555
C29B C25B 1_555 1_555
C31B C31A 1_555 1_555
H14B C31B 1_555 1_555
C33B C33A 1_555 1_555
H16B C33B 1_555 1_555
C34B C23B 1_555 1_555
C35B C22B 1_555 1_555
C36B C29B 1_555 1_555
C38B C21B 1_555 1_555
C41B C29B 1_555 1_555
H18B C41B 1_555 1_555
O16B C38B 1_555 1_555
O18B C35B 1_555 1_555
H1B O8A 1_555 1_555
O12B C32A 1_555 1_555
O14B C39A 1_555 1_555
H19B O15A 1_555 1_555
H20B O19A 1_555 1_555
Fe4B O4B 1_555 1_555
Fe4C O4C 1_555 1_555
Fe3C O1 1_555 1_555
Fe3A_2 O10 1_555 1_555
Fe1_2 O17C 1_555 1_555
Fe1_3 O16C 1_555 1_555
Fe1A_2 O17B 1_555 1_555
Fe1A_3 O16B 1_555 1_555
Fe2_2 O18A 1_555 1_555
Fe2_3 O18B 1_555 1_555
Fe2_4 O20C 1_555 1_555
Fe2A_2 O20B 1_555 1_555
Fe2A_3 O18 1_555 1_555
Fe2A_4 O18C 1_555 1_555
Fe3_2 O10A 1_555 1_555
Fe3_3 O1C 1_555 1_555
Fe3A_3 O1B 1_555 1_555
Fe3B O1A 1_555 1_555
Fe3B_2 O6B 1_555 1_555
Fe3B_3 O10C 1_555 1_555
Fe3C_2 O10B 1_555 1_555
Fe3C_3 O6C 1_555 1_555
Fe4_2 O5B 1_555 1_555
Fe4_3 O9C 1_555 1_555
Fe4A_2 O9B 1_555 1_555
Fe4A_3 O5C 1_555 1_555
Fe4B_2 O9A 1_555 1_555
Fe4B_3 O2A 1_555 1_555
Fe4B_4 O5 1_555 1_555
Fe4C_2 O5A 1_555 1_555
Fe4C_3 O14C 1_555 1_555
Fe4C_4 O9 1_555 1_555
O1B_2 Fe3A 1_555 1_555
O1B_3 Fe3A_2 1_555 1_555
O1C_2 Fe3 1_555 1_555
O2_2 Fe4C 1_555 1_555
O2A_2 Fe4B 1_555 1_555
O3A_2 Fe3A_2 1_555 1_555
O5_2 Fe4B 1_555 1_555
O5A_2 Fe4C 1_555 1_555
O5B_2 Fe4 1_555 1_555
O5C_2 Fe4A 1_555 1_555
O6A_2 Fe3A_2 1_555 1_555
O6C_2 Fe3C 1_555 1_555
O9_2 Fe4C 1_555 1_555
O9A_2 Fe4B 1_555 1_555
O9B_2 Fe4A 1_555 1_555
O9C_2 Fe4 1_555 1_555
O10_2 Fe3A 1_555 1_555
O10A_2 Fe3 1_555 1_555
O10B_2 Fe3C 1_555 1_555
O11_2 Fe3A 1_555 1_555
O11A_2 Fe3 1_555 1_555
O11B_2 Fe3C 1_555 1_555
O12A_2 Fe3A_2 1_555 1_555
O13_2 Fe4C 1_555 1_555
O13A_2 Fe4B 1_555 1_555
O13B_2 Fe4A 1_555 1_555
O13C_2 Fe4 1_555 1_555
O14B_2 Fe4B 1_555 1_555
O14C_2 Fe4C 1_555 1_555
O16B_2 Fe1A 1_555 1_555
O16C_2 Fe1 1_555 1_555
O17B_2 Fe1A 1_555 1_555
O17C_2 Fe1 1_555 1_555
O18_2 Fe2A 1_555 1_555
O18A_2 Fe2 1_555 1_555
O18B_2 Fe2 1_555 1_555
O18C_2 Fe2A 1_555 1_555
O20B_2 Fe2A 1_555 1_555
O20C_2 Fe2 1_555 1_555
N1 Zn1A 1_555 1_555
N2 Zn1A 1_555 1_555
O11 Fe3A_2 1_555 1_555
O13 Fe4C_4 1_555 1_555
C8 C19 1_555 1_555
C12 C14 1_555 1_555
C12 C40 1_555 1_555
C15 C19 1_555 1_555
C21 C38 1_555 1_555
C22 C28 1_555 1_555
C24 C26 1_555 1_555
C34 C41 1_555 1_555
C37 O17 1_555 1_555
C38 O16 1_555 1_555
C40 O20 1_555 1_555
N2A Zn1A 1_555 1_555
C2A C3A 1_555 1_555
C2A C30A 1_555 1_555
C12A C14A 1_555 1_555
N1B Zn1A 1_555 1_555
C1C C18C 1_555 1_555
C2C C3C 1_555 1_555
C12C C14C 1_555 1_555
C1B C18B 1_555 1_555
C2B C3B 1_555 1_555
C2B C30B 1_555 1_555
C12B C14B 1_555 1_555
O11C Fe3B_3 1_555 1_555
O13C Fe4_3 1_555 1_555
C8C C19C 1_555 1_555
C8C C33C 1_555 1_555
C9C C31C 1_555 1_555
C13C C16C 1_555 1_555
C15C C19C 1_555 1_555
C22C C28C 1_555 1_555
C24C C26C 1_555 1_555
C34C C41C 1_555 1_555
O12C Fe3C 1_555 1_555
Fe4A O2A 1_555 1_555
O3A Fe3B 1_555 1_555
O11A Fe3_2 1_555 1_555
O13A Fe4B_2 1_555 1_555
C8A C19A 1_555 1_555
C15A C19A 1_555 1_555
C21A C38A 1_555 1_555
C22A C28A 1_555 1_555
C24A C26A 1_555 1_555
C34A C41A 1_555 1_555
C38A O16A 1_555 1_555
O11B Fe3C_2 1_555 1_555
O13B Fe4A_2 1_555 1_555
C8B C19B 1_555 1_555
C8B C33B 1_555 1_555
C9B C31B 1_555 1_555
C13B C16B 1_555 1_555
C15B C19B 1_555 1_555
C22B C28B 1_555 1_555
C24B C26B 1_555 1_555
C34B C41B 1_555 1_555
O12B Fe3B 1_555 1_555
O14B Fe4B_3 1_555 1_555
Fe2_4 O2_2 1_555 1_555
Fe2A_2 O2A_2 1_555 1_555

#END
