
#######################################################################
#
#                 Cambridge Crystallographic Data Centre
#                                CCDC 
#
#######################################################################
#
# If this CIF has been generated from an entry in the Cambridge 
# Structural Database, then it will include bibliographic, chemical, 
# crystal, experimental, refinement or atomic coordinate data resulting 
# from the CCDC's data processing and validation procedures.
#
#######################################################################

data_LACZEX
_chemical_formula_moiety         '(C52 H22 Co1 N4 Na4 O17)n'
_symmetry_cell_setting           orthorhombic
_symmetry_space_group_name_H-M   'I m m a'
_symmetry_Int_Tables_number      74
_space_group_name_Hall           '-I 2b 2'
loop_
_symmetry_equiv_pos_site_id
_symmetry_equiv_pos_as_xyz
1 x,y,z
2 -x,1/2-y,z
3 -x,1/2+y,-z
4 x,-y,-z
5 1/2+x,1/2+y,1/2+z
6 1/2-x,-y,1/2+z
7 1/2-x,y,1/2-z
8 1/2+x,1/2-y,1/2-z
9 -x,-y,-z
10 x,1/2+y,-z
11 x,1/2-y,z
12 -x,y,z
13 1/2-x,1/2-y,1/2-z
14 1/2+x,y,1/2-z
15 1/2+x,-y,1/2+z
16 1/2-x,1/2+y,1/2+z
_cell_length_a                   28.691(4)
_cell_length_b                   29.061(3)
_cell_length_c                   12.4918(13)
_cell_angle_alpha                90
_cell_angle_beta                 90
_cell_angle_gamma                90
_cell_volume                     10415.5
loop_
_atom_site_label
_atom_site_type_symbol
_atom_site_fract_x
_atom_site_fract_y
_atom_site_fract_z
Co1 Co 0.5000 0.2500 0.61796(3)
Na1 Na 0.80072(3) 0.5000 0.5000
Na2 Na 0.7500 0.54295(3) 0.7500
N1 N 0.5000 0.31795(6) 0.62002(13)
N2 N 0.56891(6) 0.2500 0.61572(13)
O1 O 0.69617(6) 0.49070(6) 0.81062(10)
O2 O 0.74503(5) 0.44708(5) 0.44129(11)
O3 O 0.65472(7) 0.44146(6) 0.90130(10)
O4 O 0.69651(7) 0.40637(6) 0.34515(11)
O5 O 0.5000 0.2500 0.4338(4)
H1 H 0.5000 0.2783 0.3958
C1 C 0.66367(6) 0.42836(6) 0.71470(13)
C2 C 0.62114(5) 0.36951(5) 0.62046(12)
C3 C 0.68921(6) 0.43755(6) 0.62350(12)
H2 H 0.7124 0.4609 0.6245
C4 C 0.68126(6) 0.41316(6) 0.53169(14)
C5 C 0.53792(5) 0.34678(5) 0.61942(12)
C6 C 0.59800(5) 0.28754(5) 0.61641(12)
C7 C 0.58420(5) 0.33290(5) 0.61844(11)
C8 C 0.62989(6) 0.39408(6) 0.71296(13)
H3 H 0.6126 0.3875 0.7760
C9 C 0.64689(6) 0.37907(6) 0.52918(13)
H4 H 0.6412 0.3625 0.4650
C10 C 0.64588(6) 0.27310(6) 0.61814(15)
H5 H 0.6725 0.2925 0.6191
C11 C 0.52343(6) 0.39367(6) 0.62003(15)
H6 H 0.5431 0.4199 0.6204
C12 C 0.67219(7) 0.45531(8) 0.81713(16)
C13 C 0.70940(8) 0.42301(7) 0.43197(15)
H1A H 0.5000 0.2217 0.3958
N1A N 0.5000 0.18205(6) 0.62002(13)
O1J O 0.69617(6) 0.00930(6) 0.81062(10)
O2J O 0.74503(5) 0.05292(5) 0.44129(11)
O3J O 0.65472(7) 0.05854(6) 0.90130(10)
O4J O 0.69651(7) 0.09363(6) 0.34515(11)
C1J C 0.66367(6) 0.07164(6) 0.71470(13)
C2J C 0.62114(5) 0.13049(5) 0.62046(12)
C3J C 0.68921(6) 0.06245(6) 0.62350(12)
H2J H 0.7124 0.0391 0.6245
C4J C 0.68126(6) 0.08684(6) 0.53169(14)
C5J C 0.53792(5) 0.15322(5) 0.61942(12)
C6J C 0.59800(5) 0.21246(5) 0.61641(12)
C7J C 0.58420(5) 0.16710(5) 0.61844(11)
C8J C 0.62989(6) 0.10592(6) 0.71296(13)
H3J H 0.6126 0.1125 0.7760
C9J C 0.64689(6) 0.12093(6) 0.52918(13)
H4J H 0.6412 0.1375 0.4650
C10J C 0.64588(6) 0.22690(6) 0.61814(15)
H5J H 0.6725 0.2075 0.6191
C11J C 0.52343(6) 0.10633(6) 0.62003(15)
H6J H 0.5431 0.0801 0.6204
C12J C 0.67219(7) 0.04469(8) 0.81713(16)
C13J C 0.70940(8) 0.07699(7) 0.43197(15)
N2A N 0.43109(6) 0.2500 0.61572(13)
O1K O 0.30383(6) 0.49070(6) 0.81062(10)
O2K O 0.25497(5) 0.44708(5) 0.44129(11)
O3K O 0.34528(7) 0.44146(6) 0.90130(10)
O4K O 0.30349(7) 0.40637(6) 0.34515(11)
C1K C 0.33633(6) 0.42836(6) 0.71470(13)
C2K C 0.37886(5) 0.36951(5) 0.62046(12)
C3K C 0.31079(6) 0.43755(6) 0.62350(12)
H2K H 0.2876 0.4609 0.6245
C4K C 0.31874(6) 0.41316(6) 0.53169(14)
C5K C 0.46208(5) 0.34678(5) 0.61942(12)
C6K C 0.40200(5) 0.28754(5) 0.61641(12)
C7K C 0.41580(5) 0.33290(5) 0.61844(11)
C8K C 0.37011(6) 0.39408(6) 0.71296(13)
H3K H 0.3874 0.3875 0.7760
C9K C 0.35311(6) 0.37907(6) 0.52918(13)
H4K H 0.3588 0.3625 0.4650
C10K C 0.35412(6) 0.27310(6) 0.61814(15)
H5K H 0.3275 0.2925 0.6191
C11K C 0.47657(6) 0.39367(6) 0.62003(15)
H6K H 0.4569 0.4199 0.6204
C12K C 0.32781(7) 0.45531(8) 0.81713(16)
C13K C 0.29060(8) 0.42301(7) 0.43197(15)
O1A O 0.30383(6) 0.00930(6) 0.81062(10)
O2A O 0.25497(5) 0.05292(5) 0.44129(11)
O3A O 0.34528(7) 0.05854(6) 0.90130(10)
O4A O 0.30349(7) 0.09363(6) 0.34515(11)
C1A C 0.33633(6) 0.07164(6) 0.71470(13)
C2A C 0.37886(5) 0.13049(5) 0.62046(12)
C3A C 0.31079(6) 0.06245(6) 0.62350(12)
H2A H 0.2876 0.0391 0.6245
C4A C 0.31874(6) 0.08684(6) 0.53169(14)
C5A C 0.46208(5) 0.15322(5) 0.61942(12)
C6A C 0.40200(5) 0.21246(5) 0.61641(12)
C7A C 0.41580(5) 0.16710(5) 0.61844(11)
C8A C 0.37011(6) 0.10592(6) 0.71296(13)
H3A H 0.3874 0.1125 0.7760
C9A C 0.35311(6) 0.12093(6) 0.52918(13)
H4A H 0.3588 0.1375 0.4650
C10A C 0.35412(6) 0.22690(6) 0.61814(15)
H5A H 0.3275 0.2075 0.6191
C11A C 0.47657(6) 0.10633(6) 0.62003(15)
H6A H 0.4569 0.0801 0.6204
C12A C 0.32781(7) 0.04469(8) 0.81713(16)
C13A C 0.29060(8) 0.07699(7) 0.43197(15)
Na2J Na 0.7500 -0.04295(3) 0.7500
Na1H Na 0.19928(3) 0.5000 0.5000
Na1A Na 0.19928(3) -0.0000 0.5000
Na1D Na 0.30072(3) -0.0000 1.0000
Na1E Na 0.69928(3) 0.5000 1.0000
Na1I Na 0.80072(3) -0.0000 0.5000
Na1L Na 0.69928(3) -0.0000 1.0000
Na1M Na 0.30072(3) 0.5000 1.0000
Na2A Na 0.2500 -0.04295(3) 0.7500
Na2B Na 0.2500 0.04295(3) 0.2500
Na2C Na 0.7500 0.45705(3) 0.2500
Na2H Na 0.2500 0.45705(3) 0.2500
Na2I Na 0.7500 0.04295(3) 0.2500
Na2K Na 0.2500 0.54295(3) 0.7500
O1E O 0.80383(6) 0.50930(6) 0.31062(10)
O1F O 0.80383(6) 0.49070(6) 0.68938(10)
O1L O 0.80383(6) 0.00930(6) 0.68938(10)
O1M O 0.19617(6) 0.49070(6) 0.68938(10)
O1N O 0.19617(6) 0.50930(6) 0.31062(10)
O2C O 0.74503(5) 0.55292(5) 0.55871(11)
O2E O 0.75497(5) 0.55292(5) 0.94129(11)
O2H O 0.25497(5) 0.55292(5) 0.55871(11)
O2I O 0.74503(5) -0.05292(5) 0.55871(11)
O2O O 0.75497(5) -0.05292(5) 0.94129(11)
O3E O 0.84528(7) 0.55854(6) 0.40130(10)
O3F O 0.84528(7) 0.44146(6) 0.59870(10)
O3M O 0.15472(7) 0.44146(6) 0.59870(10)
O3N O 0.15472(7) 0.55854(6) 0.40130(10)
O4C O 0.69651(7) 0.59363(6) 0.65485(11)
O4E O 0.80349(7) 0.59363(6) 0.84515(11)
O4I O 0.69651(7) -0.09363(6) 0.65485(11)
O4O O 0.80349(7) -0.09363(6) 0.84515(11)
loop_
_geom_bond_atom_site_label_1
_geom_bond_atom_site_label_2
_geom_bond_site_symmetry_1
_geom_bond_site_symmetry_2
Co1 N1 1_555 1_555
Na1 O2 1_555 1_555
Na2 O1 1_555 1_555
N1 C5 1_555 1_555
N2 Co1 1_555 1_555
O1 C12 1_555 1_555
O2 C13 1_555 1_555
O3 C12 1_555 1_555
O4 C13 1_555 1_555
O5 Co1 1_555 1_555
H1 O5 1_555 1_555
C1 C3 1_555 1_555
C2 C7 1_555 1_555
C3 H2 1_555 1_555
C4 C3 1_555 1_555
C5 C7 1_555 1_555
C6 N2 1_555 1_555
C7 C6 1_555 1_555
C8 C1 1_555 1_555
H3 C8 1_555 1_555
C9 C2 1_555 1_555
H4 C9 1_555 1_555
C10 C6 1_555 1_555
H5 C10 1_555 1_555
C11 C5 1_555 1_555
H6 C11 1_555 1_555
C12 C1 1_555 1_555
C13 C4 1_555 1_555
H1A O5 1_555 1_555
N1A Co1 1_555 1_555
O1J C12J 1_555 1_555
O2J C13J 1_555 1_555
O3J C12J 1_555 1_555
O4J C13J 1_555 1_555
C1J C3J 1_555 1_555
C2J C7J 1_555 1_555
C3J H2J 1_555 1_555
C4J C3J 1_555 1_555
C5J N1A 1_555 1_555
C6J N2 1_555 1_555
C7J C5J 1_555 1_555
C8J C1J 1_555 1_555
H3J C8J 1_555 1_555
C9J C2J 1_555 1_555
H4J C9J 1_555 1_555
C10J C10 1_555 1_555
H5J C10J 1_555 1_555
C11J C5J 1_555 1_555
H6J C11J 1_555 1_555
C12J C1J 1_555 1_555
C13J C4J 1_555 1_555
N2A Co1 1_555 1_555
O1K C12K 1_555 1_555
O2K C13K 1_555 1_555
O3K C12K 1_555 1_555
O4K C13K 1_555 1_555
C1K C3K 1_555 1_555
C2K C7K 1_555 1_555
C3K H2K 1_555 1_555
C4K C3K 1_555 1_555
C5K N1 1_555 1_555
C6K N2A 1_555 1_555
C7K C5K 1_555 1_555
C8K C1K 1_555 1_555
H3K C8K 1_555 1_555
C9K C2K 1_555 1_555
H4K C9K 1_555 1_555
C10K C6K 1_555 1_555
H5K C10K 1_555 1_555
C11K C11 1_555 1_555
H6K C11K 1_555 1_555
C12K C1K 1_555 1_555
C13K C4K 1_555 1_555
O1A C12A 1_555 1_555
O2A C13A 1_555 1_555
O3A C12A 1_555 1_555
O4A C13A 1_555 1_555
C1A C3A 1_555 1_555
C2A C7A 1_555 1_555
C3A H2A 1_555 1_555
C4A C3A 1_555 1_555
C5A N1A 1_555 1_555
C6A N2A 1_555 1_555
C7A C5A 1_555 1_555
C8A C1A 1_555 1_555
H3A C8A 1_555 1_555
C9A C2A 1_555 1_555
H4A C9A 1_555 1_555
C10A C10K 1_555 1_555
H5A C10A 1_555 1_555
C11A C11J 1_555 1_555
H6A C11A 1_555 1_555
C12A C1A 1_555 1_555
C13A C4A 1_555 1_555
Na2J O1J 1_555 1_555
Na1H O2K 1_555 1_555
Na1A O2A 1_555 1_555
Na1D O1A 1_555 1_555
Na1E O1 1_555 1_555
Na1I O2J 1_555 1_555
Na1L O1J 1_555 1_555
Na1M O1K 1_555 1_555
Na2A O1A 1_555 1_555
Na2B O2A 1_555 1_555
Na2C O2 1_555 1_555
Na2H O2K 1_555 1_555
Na2I O2J 1_555 1_555
Na2K O1K 1_555 1_555
O1E Na1 1_555 1_555
O1F Na1 1_555 1_555
O1L Na2J 1_555 1_555
O1M Na1H 1_555 1_555
O1N Na1H 1_555 1_555
O2C Na1 1_555 1_555
O2E Na2 1_555 1_555
O2H Na1H 1_555 1_555
O2I Na2J 1_555 1_555
O2O Na2J 1_555 1_555
O3E Na1 1_555 1_555
O3F Na1 1_555 1_555
O3M Na1H 1_555 1_555
O3N Na1H 1_555 1_555
O4C Na2 1_555 1_555
O4E Na2 1_555 1_555
O4I Na2J 1_555 1_555
O4O Na2J 1_555 1_555
Na2 O1F 1_555 1_555
Na2 O2C 1_555 1_555
O3 Na1E 1_555 1_555
O4 Na2C 1_555 1_555
C2 C8 1_555 1_555
C4 C9 1_555 1_555
O3J Na1L 1_555 1_555
O4J Na2I 1_555 1_555
C2J C8J 1_555 1_555
C4J C9J 1_555 1_555
C6J C7J 1_555 1_555
C6J C10J 1_555 1_555
O3K Na1M 1_555 1_555
O4K Na2H 1_555 1_555
C2K C8K 1_555 1_555
C4K C9K 1_555 1_555
C5K C11K 1_555 1_555
C6K C7K 1_555 1_555
O3A Na1D 1_555 1_555
O4A Na2B 1_555 1_555
C2A C8A 1_555 1_555
C4A C9A 1_555 1_555
C5A C11A 1_555 1_555
C6A C7A 1_555 1_555
C6A C10A 1_555 1_555
Na1E O2E 1_555 1_555
Na1I O1L 1_555 1_555
Na1I O2I 1_555 1_555
Na1L O2O 1_555 1_555
Na2C O1E 1_555 1_555
Na2H O1N 1_555 1_555
Na2K O1M 1_555 1_555
Na2K O2H 1_555 1_555

#END
