
#######################################################################
#
#                 Cambridge Crystallographic Data Centre
#                                CCDC 
#
#######################################################################
#
# If this CIF has been generated from an entry in the Cambridge 
# Structural Database, then it will include bibliographic, chemical, 
# crystal, experimental, refinement or atomic coordinate data resulting 
# from the CCDC's data processing and validation procedures.
#
#######################################################################

data_LACZAT
_chemical_formula_moiety         'C162 H74 Mn36 N12 O110 Zn6'
_symmetry_cell_setting           orthorhombic
_symmetry_space_group_name_H-M   'C m m m'
_symmetry_Int_Tables_number      65
_space_group_name_Hall           '-C 2 2'
loop_
_symmetry_equiv_pos_site_id
_symmetry_equiv_pos_as_xyz
1 x,y,z
2 -x,-y,z
3 -x,y,-z
4 x,-y,-z
5 1/2+x,1/2+y,z
6 1/2-x,1/2-y,z
7 1/2-x,1/2+y,-z
8 1/2+x,1/2-y,-z
9 -x,-y,-z
10 x,y,-z
11 x,-y,z
12 -x,y,z
13 1/2-x,1/2-y,-z
14 1/2+x,1/2+y,-z
15 1/2+x,1/2-y,z
16 1/2-x,1/2+y,z
_cell_length_a                   19.959(3)
_cell_length_b                   46.019(6)
_cell_length_c                   16.271(2)
_cell_angle_alpha                90
_cell_angle_beta                 90
_cell_angle_gamma                90
_cell_volume                     14944.8
loop_
_atom_site_label
_atom_site_type_symbol
_atom_site_fract_x
_atom_site_fract_y
_atom_site_fract_z
Mn1 Mn 0.34677(4) 0.57963(2) 1.0000
Mn2 Mn 0.23948(3) 0.61869(2) 0.88749(4)
Zn1 Zn 0.0000 0.50780(3) 0.5000
Zn2 Zn 0.52301(6) 0.74181(2) 0.5000
O1 O 0.24537(17) 0.59666(8) 1.0000
O2 O 0.44384(18) 0.55806(8) 1.0000
O3 O 0.31522(14) 0.55219(6) 0.90033(19)
O4 O 0.24155(14) 0.57698(6) 0.82539(18)
O5 O 0.62521(15) 0.88046(7) 0.8890(2)
O6 O 0.32208(16) 0.63446(7) 0.8159(3)
O7 O 0.37868(18) 0.61190(8) 0.9123(2)
O8 O 0.67782(16) 0.85613(8) 0.7939(3)
O9 O 0.6331(5) 0.7422(2) 0.5000
H1 H 0.6573 0.7244 0.5000
O10 O -0.0000 0.5538(2) 0.5000
O11 O 0.2454(3) 0.66305(12) 0.9389(5)
N1 N 0.0000 0.5000 0.6257(3)
N2 N 0.1027(3) 0.5000 0.5000
N3 N 0.5000 0.69808(14) 0.5000
N4 N 0.5000 0.78639(12) 0.5000
N5 N 0.5000 0.74216(9) 0.6247(3)
C1 C 0.0552(3) 0.5000 0.6761(3)
C2 C 0.1435(3) 0.5000 0.5683(4)
C3 C 0.1221(3) 0.5000 0.6489(3)
C4 C 0.1740(3) 0.5000 0.7159(3)
C5 C 0.5000 0.80361(11) 0.5681(4)
C6 C 0.2692(3) 0.5000 0.8414(3)
H2 H 0.3016 0.5000 0.8841
C7 C 0.24598(18) 0.52637(8) 0.8108(2)
C8 C 0.2120(3) 0.5000 0.5422(3)
H3 H 0.2503 0.5000 0.5768
C9 C 0.44002(19) 0.65637(8) 0.7465(3)
H4 H 0.3987 0.6628 0.7240
C10 C 0.5000 0.76546(12) 0.6747(4)
C11 C 0.19899(18) 0.52614(9) 0.7462(2)
H5 H 0.1842 0.5440 0.7231
C12 C 0.44004(18) 0.63662(8) 0.8113(3)
C13 C 0.5000 0.66669(11) 0.7144(4)
C14 C 0.5000 0.79458(13) 0.6472(4)
C15 C 0.5000 0.71789(12) 0.6755(4)
C16 C 0.5000 0.64973(11) 0.5411(4)
H6 H 0.5000 0.6330 0.5751
C17 C 0.5000 0.81709(12) 0.7144(4)
C18 C 0.5000 0.68868(12) 0.6502(4)
C19 C 0.5000 0.67933(11) 0.5695(4)
C20 C 0.5000 0.62674(11) 0.8432(4)
H7 H 0.5000 0.6131 0.8871
C21 C 0.5000 0.72686(14) 0.7602(4)
H8 H 0.5000 0.7146 0.8071
C22 C 0.55958(19) 0.85068(9) 0.7983(3)
C23 C 0.2697(2) 0.55423(9) 0.8479(3)
C24 C 0.5000 0.57084(19) 1.0000
H9 H 0.5000 0.5915 1.0000
C25 C 0.55944(19) 0.82909(9) 0.7419(3)
H10 H 0.6008 0.8221 0.7209
C26 C 0.5000 0.86243(13) 0.8287(4)
H11 H 0.5000 0.8777 0.8682
C27 C 0.5000 0.83448(11) 0.5400(4)
H12 H 0.5000 0.8512 0.5743
C28 C 0.0340(3) 0.5000 0.7604(3)
H13 H 0.0623 0.5000 0.8073
C29 C 0.3752(2) 0.62657(9) 0.8492(3)
C30 C 0.5000 0.75658(14) 0.7599(4)
H14 H 0.5000 0.7690 0.8066
C31 C 0.6253(2) 0.86317(10) 0.8308(4)
C32 C 0.2495(8) 0.6718(4) 1.0000
H15 H 0.2588 0.6921 1.0000
H16 H 0.0000 0.5641 0.5506
O2B O 0.55616(18) 0.55806(8) 1.0000
O3A O -0.31522(14) 0.44781(6) 0.90033(19)
O4A O -0.24155(14) 0.42302(6) 0.82539(18)
N2A N -0.1027(3) 0.5000 0.5000
C1A C -0.0552(3) 0.5000 0.6761(3)
C2A C -0.1435(3) 0.5000 0.5683(4)
C3A C -0.1221(3) 0.5000 0.6489(3)
C4A C -0.1740(3) 0.5000 0.7159(3)
C6A C -0.2692(3) 0.5000 0.8414(3)
H2A H -0.3016 0.5000 0.8841
C7A C -0.24598(18) 0.47363(8) 0.8108(2)
C8A C -0.2120(3) 0.5000 0.5422(3)
H3A H -0.2503 0.5000 0.5768
C11A C -0.19899(18) 0.47386(9) 0.7462(2)
H5A H -0.1842 0.4560 0.7231
C23A C -0.2697(2) 0.44577(9) 0.8479(3)
C28A C -0.0340(3) 0.5000 0.7604(3)
H13A H -0.0623 0.5000 0.8073
O3C O 0.31522(14) 0.44781(6) 0.09967(19)
O4C O 0.24155(14) 0.42302(6) 0.17461(18)
N1B N 0.0000 0.5000 0.3743(3)
C1C C 0.0552(3) 0.5000 0.3239(3)
C2C C 0.1435(3) 0.5000 0.4317(4)
C3C C 0.1221(3) 0.5000 0.3511(3)
C4C C 0.1740(3) 0.5000 0.2841(3)
C6C C 0.2692(3) 0.5000 0.1586(3)
H2C H 0.3016 0.5000 0.1159
C7C C 0.24598(18) 0.47363(8) 0.1892(2)
C8C C 0.2120(3) 0.5000 0.4578(3)
H3C H 0.2503 0.5000 0.4232
C11C C 0.19899(18) 0.47386(9) 0.2538(2)
H5C H 0.1842 0.4560 0.2769
C23C C 0.2697(2) 0.44577(9) 0.1521(3)
C28C C 0.0340(3) 0.5000 0.2396(3)
H13C H 0.0623 0.5000 0.1927
O3I O 0.31522(14) 0.55219(6) 0.09967(19)
O4I O 0.24155(14) 0.57698(6) 0.17461(18)
C7I C 0.24598(18) 0.52637(8) 0.1892(2)
C11I C 0.19899(18) 0.52614(9) 0.2538(2)
H5I H 0.1842 0.5440 0.2769
C23I C 0.2697(2) 0.55423(9) 0.1521(3)
O3J O 0.31522(14) 0.44781(6) 0.90033(19)
O4J O 0.24155(14) 0.42302(6) 0.82539(18)
C7J C 0.24598(18) 0.47363(8) 0.8108(2)
C11J C 0.19899(18) 0.47386(9) 0.7462(2)
H5J H 0.1842 0.4560 0.7231
C23J C 0.2697(2) 0.44577(9) 0.8479(3)
O3K O -0.31522(14) 0.55219(6) 0.90033(19)
O4K O -0.24155(14) 0.57698(6) 0.82539(18)
C7K C -0.24598(18) 0.52637(8) 0.8108(2)
C11K C -0.19899(18) 0.52614(9) 0.7462(2)
H5K H -0.1842 0.5440 0.7231
C23K C -0.2697(2) 0.55423(9) 0.8479(3)
O3B O -0.31522(14) 0.55219(6) 0.09967(19)
O4B O -0.24155(14) 0.57698(6) 0.17461(18)
C1B C -0.0552(3) 0.5000 0.3239(3)
C2B C -0.1435(3) 0.5000 0.4317(4)
C3B C -0.1221(3) 0.5000 0.3511(3)
C4B C -0.1740(3) 0.5000 0.2841(3)
C6B C -0.2692(3) 0.5000 0.1586(3)
H2B H -0.3016 0.5000 0.1159
C7B C -0.24598(18) 0.52637(8) 0.1892(2)
C8B C -0.2120(3) 0.5000 0.4578(3)
H3B H -0.2503 0.5000 0.4232
C11B C -0.19899(18) 0.52614(9) 0.2538(2)
H5B H -0.1842 0.5440 0.2769
C23B C -0.2697(2) 0.55423(9) 0.1521(3)
C28B C -0.0340(3) 0.5000 0.2396(3)
H13B H -0.0623 0.5000 0.1927
O3H O -0.31522(14) 0.44781(6) 0.09967(19)
O4H O -0.24155(14) 0.42302(6) 0.17461(18)
C7H C -0.24598(18) 0.47363(8) 0.1892(2)
C11H C -0.19899(18) 0.47386(9) 0.2538(2)
H5H H -0.1842 0.4560 0.2769
C23H C -0.2697(2) 0.44577(9) 0.1521(3)
O5B O 0.37479(15) 0.88046(7) 0.1110(2)
O6B O 0.67792(16) 0.63446(7) 0.1841(3)
O7B O 0.62132(18) 0.61190(8) 0.0877(2)
O8B O 0.32218(16) 0.85613(8) 0.2061(3)
N5B N 0.5000 0.74216(9) 0.3753(3)
C5B C 0.5000 0.80361(11) 0.4319(4)
C9B C 0.55998(19) 0.65637(8) 0.2535(3)
H4B H 0.6013 0.6628 0.2760
C10B C 0.5000 0.76546(12) 0.3253(4)
C12B C 0.55996(18) 0.63662(8) 0.1887(3)
C13B C 0.5000 0.66669(11) 0.2856(4)
C14B C 0.5000 0.79458(13) 0.3528(4)
C15B C 0.5000 0.71789(12) 0.3245(4)
C16B C 0.5000 0.64973(11) 0.4589(4)
H6B H 0.5000 0.6330 0.4249
C17B C 0.5000 0.81709(12) 0.2856(4)
C18B C 0.5000 0.68868(12) 0.3498(4)
C19B C 0.5000 0.67933(11) 0.4305(4)
C20B C 0.5000 0.62674(11) 0.1568(4)
H7B H 0.5000 0.6131 0.1129
C21B C 0.5000 0.72686(14) 0.2398(4)
H8B H 0.5000 0.7146 0.1929
C22B C 0.44042(19) 0.85068(9) 0.2017(3)
C25B C 0.44056(19) 0.82909(9) 0.2581(3)
H10B H 0.3992 0.8221 0.2791
C26B C 0.5000 0.86243(13) 0.1713(4)
H11B H 0.5000 0.8777 0.1318
C27B C 0.5000 0.83448(11) 0.4600(4)
H12B H 0.5000 0.8512 0.4257
C29B C 0.6248(2) 0.62657(9) 0.1508(3)
C30B C 0.5000 0.75658(14) 0.2401(4)
H14B H 0.5000 0.7690 0.1934
C31B C 0.3747(2) 0.86317(10) 0.1692(4)
O5I O 0.62521(15) 0.88046(7) 0.1110(2)
O6I O 0.32208(16) 0.63446(7) 0.1841(3)
O7I O 0.37868(18) 0.61190(8) 0.0877(2)
O8I O 0.67782(16) 0.85613(8) 0.2061(3)
C9I C 0.44002(19) 0.65637(8) 0.2535(3)
H4I H 0.3987 0.6628 0.2760
C12I C 0.44004(18) 0.63662(8) 0.1887(3)
C22I C 0.55958(19) 0.85068(9) 0.2017(3)
C25I C 0.55944(19) 0.82909(9) 0.2581(3)
H10I H 0.6008 0.8221 0.2791
C29I C 0.3752(2) 0.62657(9) 0.1508(3)
C31I C 0.6253(2) 0.86317(10) 0.1692(4)
O5K O 0.37479(15) 0.88046(7) 0.8890(2)
O6K O 0.67792(16) 0.63446(7) 0.8159(3)
O7K O 0.62132(18) 0.61190(8) 0.9123(2)
O8K O 0.32218(16) 0.85613(8) 0.7939(3)
C9K C 0.55998(19) 0.65637(8) 0.7465(3)
H4K H 0.6013 0.6628 0.7240
C12K C 0.55996(18) 0.63662(8) 0.8113(3)
C22K C 0.44042(19) 0.85068(9) 0.7983(3)
C25K C 0.44056(19) 0.82909(9) 0.7419(3)
H10K H 0.3992 0.8221 0.7209
C29K C 0.6248(2) 0.62657(9) 0.8492(3)
C31K C 0.3747(2) 0.86317(10) 0.8308(4)
H16B H 0.0000 0.5641 0.4494
O11I O 0.2454(3) 0.66305(12) 1.0611(5)
Mn1A Mn -0.34677(4) 0.42037(2) 1.0000
Mn2A Mn -0.23948(3) 0.38131(2) 0.88749(4)
Zn1A Zn -0.0000 0.49220(3) 0.5000
O1A O -0.24537(17) 0.40334(8) 1.0000
O10A O 0.0000 0.4462(2) 0.5000
O11A O -0.2454(3) 0.33695(12) 0.9389(5)
C32A C -0.2495(8) 0.3282(4) 1.0000
H15A H -0.2588 0.3079 1.0000
H16A H 0.0000 0.4359 0.5506
H16C H -0.0000 0.4359 0.4494
O11H O -0.2454(3) 0.33695(12) 1.0611(5)
Mn2B Mn -0.23948(3) 0.61869(2) 0.11251(4)
Mn2C Mn 0.23948(3) 0.38131(2) 0.11251(4)
Zn2C Zn 0.52301(6) 0.25819(2) 0.5000
O5C O 0.62521(15) 0.11954(7) 0.1110(2)
O6C O 0.32208(16) 0.36554(7) 0.1841(3)
O7C O 0.37868(18) 0.38810(8) 0.0877(2)
O8C O 0.67782(16) 0.14387(8) 0.2061(3)
O9C O 0.6331(5) 0.2578(2) 0.5000
H1C H 0.6573 0.2756 0.5000
N3A N 0.5000 0.30192(14) 0.5000
N4A N 0.5000 0.21361(12) 0.5000
N5C N 0.5000 0.25784(9) 0.3753(3)
C5C C 0.5000 0.19639(11) 0.4319(4)
C9C C 0.44002(19) 0.34363(8) 0.2535(3)
H4C H 0.3987 0.3372 0.2760
C10C C 0.5000 0.23454(12) 0.3253(4)
C12C C 0.44004(18) 0.36338(8) 0.1887(3)
C13C C 0.5000 0.33331(11) 0.2856(4)
C14C C 0.5000 0.20542(13) 0.3528(4)
C15C C 0.5000 0.28211(12) 0.3245(4)
C16C C 0.5000 0.35027(11) 0.4589(4)
H6C H 0.5000 0.3670 0.4249
C17C C 0.5000 0.18291(12) 0.2856(4)
C18C C 0.5000 0.31132(12) 0.3498(4)
C19C C 0.5000 0.32067(11) 0.4305(4)
C20C C 0.5000 0.37326(11) 0.1568(4)
H7C H 0.5000 0.3869 0.1129
C21C C 0.5000 0.27314(14) 0.2398(4)
H8C H 0.5000 0.2854 0.1929
C22C C 0.55958(19) 0.14932(9) 0.2017(3)
C25C C 0.55944(19) 0.17091(9) 0.2581(3)
H10C H 0.6008 0.1779 0.2791
C26C C 0.5000 0.13757(13) 0.1713(4)
H11C H 0.5000 0.1223 0.1318
C27C C 0.5000 0.16552(11) 0.4600(4)
H12C H 0.5000 0.1488 0.4257
C29C C 0.3752(2) 0.37343(9) 0.1508(3)
C30C C 0.5000 0.24342(14) 0.2401(4)
H14C H 0.5000 0.2310 0.1934
C31C C 0.6253(2) 0.13683(10) 0.1692(4)
O5A O 0.37479(15) 0.11954(7) 0.8890(2)
O6A O 0.67792(16) 0.36554(7) 0.8159(3)
O7A O 0.62132(18) 0.38810(8) 0.9123(2)
O8A O 0.32218(16) 0.14387(8) 0.7939(3)
N5A N 0.5000 0.25784(9) 0.6247(3)
C5A C 0.5000 0.19639(11) 0.5681(4)
C9A C 0.55998(19) 0.34363(8) 0.7465(3)
H4A H 0.6013 0.3372 0.7240
C10A C 0.5000 0.23454(12) 0.6747(4)
C12A C 0.55996(18) 0.36338(8) 0.8113(3)
C13A C 0.5000 0.33331(11) 0.7144(4)
C14A C 0.5000 0.20542(13) 0.6472(4)
C15A C 0.5000 0.28211(12) 0.6755(4)
C16A C 0.5000 0.35027(11) 0.5411(4)
H6A H 0.5000 0.3670 0.5751
C17A C 0.5000 0.18291(12) 0.7144(4)
C18A C 0.5000 0.31132(12) 0.6502(4)
C19A C 0.5000 0.32067(11) 0.5695(4)
C20A C 0.5000 0.37326(11) 0.8432(4)
H7A H 0.5000 0.3869 0.8871
C21A C 0.5000 0.27314(14) 0.7602(4)
H8A H 0.5000 0.2854 0.8071
C22A C 0.44042(19) 0.14932(9) 0.7983(3)
C25A C 0.44056(19) 0.17091(9) 0.7419(3)
H10A H 0.3992 0.1779 0.7209
C26A C 0.5000 0.13757(13) 0.8287(4)
H11A H 0.5000 0.1223 0.8682
C27A C 0.5000 0.16552(11) 0.5400(4)
H12A H 0.5000 0.1488 0.5743
C29A C 0.6248(2) 0.37343(9) 0.8492(3)
C30A C 0.5000 0.24342(14) 0.7599(4)
H14A H 0.5000 0.2310 0.8066
C31A C 0.3747(2) 0.13683(10) 0.8308(4)
O5J O 0.62521(15) 0.11954(7) 0.8890(2)
O6J O 0.32208(16) 0.36554(7) 0.8159(3)
O7J O 0.37868(18) 0.38810(8) 0.9123(2)
O8J O 0.67782(16) 0.14387(8) 0.7939(3)
C9J C 0.44002(19) 0.34363(8) 0.7465(3)
H4J H 0.3987 0.3372 0.7240
C12J C 0.44004(18) 0.36338(8) 0.8113(3)
C22J C 0.55958(19) 0.14932(9) 0.7983(3)
C25J C 0.55944(19) 0.17091(9) 0.7419(3)
H10J H 0.6008 0.1779 0.7209
C29J C 0.3752(2) 0.37343(9) 0.8492(3)
C31J C 0.6253(2) 0.13683(10) 0.8308(4)
O5H O 0.37479(15) 0.11954(7) 0.1110(2)
O6H O 0.67792(16) 0.36554(7) 0.1841(3)
O7H O 0.62132(18) 0.38810(8) 0.0877(2)
O8H O 0.32218(16) 0.14387(8) 0.2061(3)
C9H C 0.55998(19) 0.34363(8) 0.2535(3)
H4H H 0.6013 0.3372 0.2760
C12H C 0.55996(18) 0.36338(8) 0.1887(3)
C22H C 0.44042(19) 0.14932(9) 0.2017(3)
C25H C 0.44056(19) 0.17091(9) 0.2581(3)
H10H H 0.3992 0.1779 0.2791
C29H C 0.6248(2) 0.37343(9) 0.1508(3)
C31H C 0.3747(2) 0.13683(10) 0.1692(4)
Mn2H Mn -0.23948(3) 0.38131(2) 0.11251(4)
Mn2I Mn 0.23948(3) 0.61869(2) 0.11251(4)
Mn1C Mn 0.34677(4) 0.42037(2) 1.0000
Mn2J Mn 0.23948(3) 0.38131(2) 0.88749(4)
O1C O 0.24537(17) 0.40334(8) 1.0000
O2C O 0.44384(18) 0.44194(8) 1.0000
O11J O 0.2454(3) 0.33695(12) 0.9389(5)
C24A C 0.5000 0.42916(19) 1.0000
H9A H 0.5000 0.4085 1.0000
C32C C 0.2495(8) 0.3282(4) 1.0000
H15C H 0.2588 0.3079 1.0000
O2A O 0.55616(18) 0.44194(8) 1.0000
O11C O 0.2454(3) 0.33695(12) 1.0611(5)
Mn1B Mn -0.34677(4) 0.57963(2) 1.0000
Mn2K Mn -0.23948(3) 0.61869(2) 0.88749(4)
O1B O -0.24537(17) 0.59666(8) 1.0000
O11K O -0.2454(3) 0.66305(12) 0.9389(5)
C32B C -0.2495(8) 0.6718(4) 1.0000
H15B H -0.2588 0.6921 1.0000
O11B O -0.2454(3) 0.66305(12) 1.0611(5)
Zn2B Zn 0.47699(6) 0.74181(2) 0.5000
O9B O 0.3669(5) 0.7422(2) 0.5000
H1B H 0.3427 0.7244 0.5000
Zn2A Zn 0.47699(6) 0.25819(2) 0.5000
O9A O 0.3669(5) 0.2578(2) 0.5000
H1A H 0.3427 0.2756 0.5000
Mn1_2 Mn 0.34677(4) 0.57963(2) 0.0000
Mn1A_2 Mn -0.34677(4) 0.42037(2) 0.0000
Mn1A_3 Mn 0.65323(4) 0.42037(2) 0.0000
Mn1A_4 Mn 0.65323(4) 0.42037(2) 1.0000
Mn1B_2 Mn -0.34677(4) 0.57963(2) 0.0000
Mn1B_3 Mn 0.65323(4) 0.57963(2) 0.0000
Mn1B_4 Mn 0.65323(4) 0.57963(2) 1.0000
Mn1C_2 Mn 0.34677(4) 0.42037(2) 0.0000
Mn2A_2 Mn 0.76052(3) 0.38131(2) 0.88749(4)
Mn2B_2 Mn -0.23948(3) 0.61869(2) 1.11251(4)
Mn2B_3 Mn 0.76052(3) 0.61869(2) 0.11251(4)
Mn2C_2 Mn 0.23948(3) 0.38131(2) 1.11251(4)
Mn2D Mn 0.73948(3) 0.11869(2) 0.88749(4)
Mn2E Mn 0.26052(3) 0.88131(2) 0.88749(4)
Mn2F Mn 0.26052(3) 0.11869(2) 0.11251(4)
Mn2G Mn 0.73948(3) 0.88131(2) 0.11251(4)
Mn2H_2 Mn -0.23948(3) 0.38131(2) 1.11251(4)
Mn2H_3 Mn 0.76052(3) 0.38131(2) 0.11251(4)
Mn2I_2 Mn 0.23948(3) 0.61869(2) 1.11251(4)
Mn2K_2 Mn 0.76052(3) 0.61869(2) 0.88749(4)
Mn2L Mn 0.26052(3) 0.88131(2) 0.11251(4)
Mn2M Mn 0.73948(3) 0.11869(2) 0.11251(4)
Mn2N Mn 0.73948(3) 0.88131(2) 0.88749(4)
Mn2O Mn 0.26052(3) 0.11869(2) 0.88749(4)
O1_2 O 0.24537(17) 0.59666(8) 0.0000
O1A_2 O -0.24537(17) 0.40334(8) 0.0000
O1B_2 O -0.24537(17) 0.59666(8) 0.0000
O1C_2 O 0.24537(17) 0.40334(8) 0.0000
O2A_2 O -0.44384(18) 0.44194(8) 1.0000
O2B_2 O -0.44384(18) 0.55806(8) 1.0000
O3B_2 O -0.31522(14) 0.55219(6) 1.09967(19)
O3C_2 O 0.31522(14) 0.44781(6) 1.09967(19)
O3H_2 O -0.31522(14) 0.44781(6) 1.09967(19)
O3I_2 O 0.31522(14) 0.55219(6) 1.09967(19)
O5D O 0.12521(15) 0.38046(7) 0.8890(2)
O5E O -0.12521(15) 0.61954(7) 0.8890(2)
O5F O -0.12521(15) 0.38046(7) 0.1110(2)
O5G O 0.12521(15) 0.61954(7) 0.1110(2)
O5L O -0.12521(15) 0.61954(7) 0.1110(2)
O5M O 0.12521(15) 0.38046(7) 0.1110(2)
O5N O 0.12521(15) 0.61954(7) 0.8890(2)
O5O O -0.12521(15) 0.38046(7) 0.8890(2)
O6A_2 O -0.32208(16) 0.36554(7) 0.8159(3)
O6B_2 O -0.32208(16) 0.63446(7) 0.1841(3)
O6H_2 O -0.32208(16) 0.36554(7) 0.1841(3)
O6K_2 O -0.32208(16) 0.63446(7) 0.8159(3)
O7A_2 O -0.37868(18) 0.38810(8) 0.9123(2)
O7B_2 O -0.37868(18) 0.61190(8) 1.0877(2)
O7C_2 O 0.37868(18) 0.38810(8) 1.0877(2)
O7H_2 O -0.37868(18) 0.38810(8) 1.0877(2)
O7I_2 O 0.37868(18) 0.61190(8) 1.0877(2)
O7K_2 O -0.37868(18) 0.61190(8) 0.9123(2)
O8D O 0.17782(16) 0.35613(8) 0.7939(3)
O8E O -0.17782(16) 0.64387(8) 0.7939(3)
O8F O -0.17782(16) 0.35613(8) 0.2061(3)
O8G O 0.17782(16) 0.64387(8) 0.2061(3)
O8L O -0.17782(16) 0.64387(8) 0.2061(3)
O8M O 0.17782(16) 0.35613(8) 0.2061(3)
O8N O 0.17782(16) 0.64387(8) 0.7939(3)
O8O O -0.17782(16) 0.35613(8) 0.7939(3)
O11B_2 O -0.2454(3) 0.66305(12) 0.0611(5)
O11C_2 O 0.2454(3) 0.33695(12) 0.0611(5)
O11H_2 O -0.2454(3) 0.33695(12) 0.0611(5)
O11I_2 O 0.2454(3) 0.66305(12) 0.0611(5)
loop_
_geom_bond_atom_site_label_1
_geom_bond_atom_site_label_2
_geom_bond_site_symmetry_1
_geom_bond_site_symmetry_2
Mn1 O1 1_555 1_555
Mn2 O1 1_555 1_555
Zn1 O10 1_555 1_555
Zn2 O9 1_555 1_555
O1 Mn2I_2 1_555 1_555
O2 Mn1 1_555 1_555
O3 Mn1 1_555 1_555
O4 Mn2 1_555 1_555
O5 C31 1_555 1_555
O6 Mn2 1_555 1_555
O7 Mn1 1_555 1_555
O8 C31 1_555 1_555
O9 H1 1_555 1_555
O10 H16 1_555 1_555
O11 Mn2 1_555 1_555
N1 Zn1 1_555 1_555
N2 Zn1 1_555 1_555
N3 Zn2 1_555 1_555
N4 Zn2 1_555 1_555
N5 Zn2 1_555 1_555
C1 N1 1_555 1_555
C2 N2 1_555 1_555
C3 C1 1_555 1_555
C4 C3 1_555 1_555
C5 N4 1_555 1_555
C6 H2 1_555 1_555
C7 C6 1_555 1_555
C8 C2 1_555 1_555
H3 C8 1_555 1_555
C9 H4 1_555 1_555
C10 N5 1_555 1_555
C11 C4 1_555 1_555
H5 C11 1_555 1_555
C12 C9 1_555 1_555
C13 C9 1_555 1_555
C14 C5 1_555 1_555
C15 N5 1_555 1_555
C16 H6 1_555 1_555
C17 C14 1_555 1_555
C18 C13 1_555 1_555
C19 N3 1_555 1_555
C20 C12 1_555 1_555
H7 C20 1_555 1_555
C21 C15 1_555 1_555
H8 C21 1_555 1_555
C22 C25 1_555 1_555
C23 O3 1_555 1_555
C24 O2 1_555 1_555
H9 C24 1_555 1_555
C25 C17 1_555 1_555
H10 C25 1_555 1_555
C26 C22 1_555 1_555
H11 C26 1_555 1_555
C27 C5 1_555 1_555
H12 C27 1_555 1_555
C28 C1 1_555 1_555
H13 C28 1_555 1_555
C29 O6 1_555 1_555
C30 C10 1_555 1_555
H14 C30 1_555 1_555
C31 C22 1_555 1_555
C32 O11 1_555 1_555
H15 C32 1_555 1_555
O2B C24 1_555 1_555
O3A C23A 1_555 1_555
O4A C23A 1_555 1_555
N2A Zn1 1_555 1_555
C1A N1 1_555 1_555
C2A N2A 1_555 1_555
C3A C1A 1_555 1_555
C4A C3A 1_555 1_555
C6A H2A 1_555 1_555
C7A C6A 1_555 1_555
C8A C2A 1_555 1_555
H3A C8A 1_555 1_555
C11A C4A 1_555 1_555
H5A C11A 1_555 1_555
C23A C7A 1_555 1_555
C28A C28 1_555 1_555
H13A C28A 1_555 1_555
O3C C23C 1_555 1_555
O4C C23C 1_555 1_555
N1B Zn1 1_555 1_555
C1C N1B 1_555 1_555
C2C N2 1_555 1_555
C3C C1C 1_555 1_555
C4C C3C 1_555 1_555
C6C H2C 1_555 1_555
C7C C6C 1_555 1_555
C8C C8 1_555 1_555
H3C C8C 1_555 1_555
C11C C4C 1_555 1_555
H5C C11C 1_555 1_555
C23C C7C 1_555 1_555
C28C C1C 1_555 1_555
H13C C28C 1_555 1_555
O3I C23I 1_555 1_555
O4I C23I 1_555 1_555
C7I C6C 1_555 1_555
C11I C4C 1_555 1_555
H5I C11I 1_555 1_555
C23I C7I 1_555 1_555
O3J C23J 1_555 1_555
O4J C23J 1_555 1_555
C7J C6 1_555 1_555
C11J C4 1_555 1_555
H5J C11J 1_555 1_555
C23J C7J 1_555 1_555
O3K C23K 1_555 1_555
O4K C23K 1_555 1_555
C7K C6A 1_555 1_555
C11K C4A 1_555 1_555
H5K C11K 1_555 1_555
C23K C7K 1_555 1_555
O3B C23B 1_555 1_555
O4B C23B 1_555 1_555
C1B N1B 1_555 1_555
C2B N2A 1_555 1_555
C3B C1B 1_555 1_555
C4B C3B 1_555 1_555
C6B H2B 1_555 1_555
C7B C6B 1_555 1_555
C8B C8A 1_555 1_555
H3B C8B 1_555 1_555
C11B C4B 1_555 1_555
H5B C11B 1_555 1_555
C23B C7B 1_555 1_555
C28B C28C 1_555 1_555
H13B C28B 1_555 1_555
O3H C23H 1_555 1_555
O4H C23H 1_555 1_555
C7H C6B 1_555 1_555
C11H C4B 1_555 1_555
H5H C11H 1_555 1_555
C23H C7H 1_555 1_555
O5B C31B 1_555 1_555
O6B C29B 1_555 1_555
O7B C29B 1_555 1_555
O8B C31B 1_555 1_555
N5B Zn2 1_555 1_555
C5B N4 1_555 1_555
C9B H4B 1_555 1_555
C10B N5B 1_555 1_555
C12B C9B 1_555 1_555
C13B C9B 1_555 1_555
C14B C5B 1_555 1_555
C15B N5B 1_555 1_555
C16B C16 1_555 1_555
H6B C16B 1_555 1_555
C17B C14B 1_555 1_555
C18B C13B 1_555 1_555
C19B N3 1_555 1_555
C20B C12B 1_555 1_555
H7B C20B 1_555 1_555
C21B C15B 1_555 1_555
H8B C21B 1_555 1_555
C22B C25B 1_555 1_555
C25B C17B 1_555 1_555
H10B C25B 1_555 1_555
C26B C22B 1_555 1_555
H11B C26B 1_555 1_555
C27B C27 1_555 1_555
H12B C27B 1_555 1_555
C29B C12B 1_555 1_555
C30B C10B 1_555 1_555
H14B C30B 1_555 1_555
C31B C22B 1_555 1_555
O5I C31I 1_555 1_555
O6I C29I 1_555 1_555
O7I C29I 1_555 1_555
O8I C31I 1_555 1_555
C9I C13B 1_555 1_555
H4I C9I 1_555 1_555
C12I C20B 1_555 1_555
C22I C26B 1_555 1_555
C25I C17B 1_555 1_555
H10I C25I 1_555 1_555
C29I C12I 1_555 1_555
C31I C22I 1_555 1_555
O5K C31K 1_555 1_555
O6K C29K 1_555 1_555
O7K C29K 1_555 1_555
O8K C31K 1_555 1_555
C9K C13 1_555 1_555
H4K C9K 1_555 1_555
C12K C20 1_555 1_555
C22K C26 1_555 1_555
C25K C17 1_555 1_555
H10K C25K 1_555 1_555
C29K C12K 1_555 1_555
C31K C22K 1_555 1_555
H16B O10 1_555 1_555
O11I C32 1_555 1_555
Mn1A O3A 1_555 1_555
Mn2A O4A 1_555 1_555
Zn1A Zn1 1_555 1_555
O1A Mn1A 1_555 1_555
O10A Zn1A 1_555 1_555
O11A Mn2A 1_555 1_555
C32A O11A 1_555 1_555
H15A C32A 1_555 1_555
H16A O10A 1_555 1_555
H16C O10A 1_555 1_555
O11H C32A 1_555 1_555
Mn2B O4B 1_555 1_555
Mn2C O4C 1_555 1_555
Zn2C O9C 1_555 1_555
O5C C31C 1_555 1_555
O6C Mn2C 1_555 1_555
O7C C29C 1_555 1_555
O8C C31C 1_555 1_555
O9C H1C 1_555 1_555
N3A Zn2C 1_555 1_555
N4A Zn2C 1_555 1_555
N5C Zn2C 1_555 1_555
C5C N4A 1_555 1_555
C9C H4C 1_555 1_555
C10C N5C 1_555 1_555
C12C C9C 1_555 1_555
C13C C9C 1_555 1_555
C14C C5C 1_555 1_555
C15C N5C 1_555 1_555
C16C H6C 1_555 1_555
C17C C14C 1_555 1_555
C18C C13C 1_555 1_555
C19C N3A 1_555 1_555
C20C C12C 1_555 1_555
H7C C20C 1_555 1_555
C21C C15C 1_555 1_555
H8C C21C 1_555 1_555
C22C C25C 1_555 1_555
C25C C17C 1_555 1_555
H10C C25C 1_555 1_555
C26C C22C 1_555 1_555
H11C C26C 1_555 1_555
C27C C5C 1_555 1_555
H12C C27C 1_555 1_555
C29C O6C 1_555 1_555
C30C C10C 1_555 1_555
H14C C30C 1_555 1_555
C31C C22C 1_555 1_555
O5A C31A 1_555 1_555
O6A C29A 1_555 1_555
O7A C29A 1_555 1_555
O8A C31A 1_555 1_555
N5A Zn2C 1_555 1_555
C5A N4A 1_555 1_555
C9A H4A 1_555 1_555
C10A N5A 1_555 1_555
C12A C9A 1_555 1_555
C13A C9A 1_555 1_555
C14A C5A 1_555 1_555
C15A N5A 1_555 1_555
C16A C16C 1_555 1_555
H6A C16A 1_555 1_555
C17A C14A 1_555 1_555
C18A C13A 1_555 1_555
C19A N3A 1_555 1_555
C20A C12A 1_555 1_555
H7A C20A 1_555 1_555
C21A C15A 1_555 1_555
H8A C21A 1_555 1_555
C22A C25A 1_555 1_555
C25A C17A 1_555 1_555
H10A C25A 1_555 1_555
C26A C22A 1_555 1_555
H11A C26A 1_555 1_555
C27A C27C 1_555 1_555
H12A C27A 1_555 1_555
C29A C12A 1_555 1_555
C30A C10A 1_555 1_555
H14A C30A 1_555 1_555
C31A C22A 1_555 1_555
O5J C31J 1_555 1_555
O6J C29J 1_555 1_555
O7J C29J 1_555 1_555
O8J C31J 1_555 1_555
C9J C13A 1_555 1_555
H4J C9J 1_555 1_555
C12J C20A 1_555 1_555
C22J C26A 1_555 1_555
C25J C17A 1_555 1_555
H10J C25J 1_555 1_555
C29J C12J 1_555 1_555
C31J C22J 1_555 1_555
O5H C31H 1_555 1_555
O6H C29H 1_555 1_555
O7H C29H 1_555 1_555
O8H C31H 1_555 1_555
C9H C13C 1_555 1_555
H4H C9H 1_555 1_555
C12H C20C 1_555 1_555
C22H C26C 1_555 1_555
C25H C17C 1_555 1_555
H10H C25H 1_555 1_555
C29H C12H 1_555 1_555
C31H C22H 1_555 1_555
Mn2H O4H 1_555 1_555
Mn2I O4I 1_555 1_555
Mn1C O3J 1_555 1_555
Mn2J O4J 1_555 1_555
O1C Mn1C 1_555 1_555
O2C Mn1C 1_555 1_555
O11J Mn2J 1_555 1_555
C24A O2C 1_555 1_555
H9A C24A 1_555 1_555
C32C O11J 1_555 1_555
H15C C32C 1_555 1_555
O2A C24A 1_555 1_555
O11C C32C 1_555 1_555
Mn1B O3K 1_555 1_555
Mn2K O4K 1_555 1_555
O1B Mn1B 1_555 1_555
O11K Mn2K 1_555 1_555
C32B O11K 1_555 1_555
H15B C32B 1_555 1_555
O11B C32B 1_555 1_555
Zn2B Zn2 1_555 1_555
O9B Zn2B 1_555 1_555
H1B O9B 1_555 1_555
Zn2A Zn2C 1_555 1_555
O9A Zn2A 1_555 1_555
H1A O9A 1_555 1_555
Mn1_2 O3I 1_555 1_555
Mn1A_2 O3H 1_555 1_555
Mn1A_3 O7H 1_555 1_555
Mn1A_4 O7A 1_555 1_555
Mn1B_2 O3B 1_555 1_555
Mn1B_3 O7B 1_555 1_555
Mn1B_4 O2B 1_555 1_555
Mn1C_2 O3C 1_555 1_555
Mn2A_2 O6A 1_555 1_555
Mn2B_2 O1B 1_555 1_555
Mn2B_3 O6B 1_555 1_555
Mn2C_2 O1C 1_555 1_555
Mn2D O5J 1_555 1_555
Mn2E O5K 1_555 1_555
Mn2F O5H 1_555 1_555
Mn2G O5I 1_555 1_555
Mn2H_2 O1A 1_555 1_555
Mn2H_3 O6H 1_555 1_555
Mn2I_2 O11I 1_555 1_555
Mn2K_2 O6K 1_555 1_555
Mn2L O5B 1_555 1_555
Mn2M O5C 1_555 1_555
Mn2N O5 1_555 1_555
Mn2O O5A 1_555 1_555
O1_2 Mn2I 1_555 1_555
O1A_2 Mn2H 1_555 1_555
O1B_2 Mn2B 1_555 1_555
O1C_2 Mn2C 1_555 1_555
O2A_2 Mn1A 1_555 1_555
O2B_2 Mn1B 1_555 1_555
O3B_2 Mn1B 1_555 1_555
O3C_2 Mn1C 1_555 1_555
O3H_2 Mn1A 1_555 1_555
O3I_2 Mn1 1_555 1_555
O5D Mn2J 1_555 1_555
O5E Mn2K 1_555 1_555
O5F Mn2H 1_555 1_555
O5G Mn2I 1_555 1_555
O5L Mn2B 1_555 1_555
O5M Mn2C 1_555 1_555
O5N Mn2 1_555 1_555
O5O Mn2A 1_555 1_555
O6A_2 Mn2A 1_555 1_555
O6B_2 Mn2B 1_555 1_555
O6H_2 Mn2H 1_555 1_555
O6K_2 Mn2K 1_555 1_555
O7A_2 Mn1A 1_555 1_555
O7B_2 Mn1B 1_555 1_555
O7C_2 Mn1C 1_555 1_555
O7H_2 Mn1A 1_555 1_555
O7I_2 Mn1 1_555 1_555
O7K_2 Mn1B 1_555 1_555
O8D Mn2J 1_555 1_555
O8E Mn2K 1_555 1_555
O8F Mn2H 1_555 1_555
O8G Mn2I 1_555 1_555
O8L Mn2B 1_555 1_555
O8M Mn2C 1_555 1_555
O8N Mn2 1_555 1_555
O8O Mn2A 1_555 1_555
O11B_2 Mn2B 1_555 1_555
O11C_2 Mn2C 1_555 1_555
O11H_2 Mn2H 1_555 1_555
O11I_2 Mn2I 1_555 1_555
O4 C23 1_555 1_555
O7 C29 1_555 1_555
O8 Mn2N 1_555 1_555
N1 Zn1A 1_555 1_555
N2 Zn1A 1_555 1_555
N3 Zn2B 1_555 1_555
N4 Zn2B 1_555 1_555
N5 Zn2B 1_555 1_555
C2 C3 1_555 1_555
C7 C11 1_555 1_555
C7 C23 1_555 1_555
C10 C14 1_555 1_555
C12 C29 1_555 1_555
C15 C18 1_555 1_555
C16 C19 1_555 1_555
C18 C19 1_555 1_555
C21 C30 1_555 1_555
N2A Zn1A 1_555 1_555
C1A C28A 1_555 1_555
C2A C3A 1_555 1_555
C7A C11A 1_555 1_555
N1B Zn1A 1_555 1_555
C2C C3C 1_555 1_555
C2C C8C 1_555 1_555
C7C C11C 1_555 1_555
C7I C11I 1_555 1_555
C7J C11J 1_555 1_555
C7K C11K 1_555 1_555
C1B C28B 1_555 1_555
C2B C3B 1_555 1_555
C2B C8B 1_555 1_555
C7B C11B 1_555 1_555
C7H C11H 1_555 1_555
O8B Mn2L 1_555 1_555
N5B Zn2B 1_555 1_555
C5B C27B 1_555 1_555
C10B C14B 1_555 1_555
C15B C18B 1_555 1_555
C16B C19B 1_555 1_555
C18B C19B 1_555 1_555
C21B C30B 1_555 1_555
O6I Mn2I 1_555 1_555
O7I Mn1_2 1_555 1_555
O8I Mn2G 1_555 1_555
C9I C12I 1_555 1_555
C22I C25I 1_555 1_555
O7K Mn1B_4 1_555 1_555
O8K Mn2E 1_555 1_555
C9K C12K 1_555 1_555
C22K C25K 1_555 1_555
Mn2A O1A 1_555 1_555
O11H Mn2H_2 1_555 1_555
O7C Mn1C_2 1_555 1_555
O8C Mn2M 1_555 1_555
N3A Zn2A 1_555 1_555
N4A Zn2A 1_555 1_555
N5C Zn2A 1_555 1_555
C10C C14C 1_555 1_555
C12C C29C 1_555 1_555
C15C C18C 1_555 1_555
C16C C19C 1_555 1_555
C18C C19C 1_555 1_555
C21C C30C 1_555 1_555
O8A Mn2O 1_555 1_555
N5A Zn2A 1_555 1_555
C5A C27A 1_555 1_555
C10A C14A 1_555 1_555
C15A C18A 1_555 1_555
C16A C19A 1_555 1_555
C18A C19A 1_555 1_555
C21A C30A 1_555 1_555
O6J Mn2J 1_555 1_555
O7J Mn1C 1_555 1_555
O8J Mn2D 1_555 1_555
C9J C12J 1_555 1_555
C22J C25J 1_555 1_555
O8H Mn2F 1_555 1_555
C9H C12H 1_555 1_555
C22H C25H 1_555 1_555
Mn2J O1C 1_555 1_555
O2A Mn1A_4 1_555 1_555
O11C Mn2C_2 1_555 1_555
Mn2K O1B 1_555 1_555
O11B Mn2B_2 1_555 1_555
Mn1_2 O1_2 1_555 1_555
Mn1A_2 O1A_2 1_555 1_555
Mn1B_2 O1B_2 1_555 1_555
Mn1C_2 O1C_2 1_555 1_555

#END
