
#######################################################################
#
#                 Cambridge Crystallographic Data Centre
#                                CCDC 
#
#######################################################################
#
# If this CIF has been generated from an entry in the Cambridge 
# Structural Database, then it will include bibliographic, chemical, 
# crystal, experimental, refinement or atomic coordinate data resulting 
# from the CCDC's data processing and validation procedures.
#
#######################################################################

data_WAJDUJ
_chemical_formula_moiety         'C168 H120 Cu16 F20 Ge5 N36'
_symmetry_cell_setting           cubic
_symmetry_space_group_name_H-M   'P m -3'
_symmetry_Int_Tables_number      200
_space_group_name_Hall           '-P 2 2 3'
loop_
_symmetry_equiv_pos_site_id
_symmetry_equiv_pos_as_xyz
1 x,y,z
2 z,x,y
3 y,z,x
4 -y,-z,x
5 z,-x,-y
6 -y,z,-x
7 -z,-x,y
8 -z,x,-y
9 y,-z,-x
10 -x,-y,z
11 x,-y,-z
12 -x,y,-z
13 -x,-y,-z
14 -z,-x,-y
15 -y,-z,-x
16 y,z,-x
17 -z,x,y
18 y,-z,x
19 z,x,-y
20 z,-x,y
21 -y,z,x
22 x,y,-z
23 -x,y,z
24 x,-y,z
_cell_length_a                   21.2111(8)
_cell_length_b                   21.2111(8)
_cell_length_c                   21.2111(8)
_cell_angle_alpha                90
_cell_angle_beta                 90
_cell_angle_gamma                90
_cell_volume                     9543.1
loop_
_atom_site_label
_atom_site_type_symbol
_atom_site_fract_x
_atom_site_fract_y
_atom_site_fract_z
Cu1 Cu 0.5000 0.68779(11) 0.0000
Ge1 Ge 0.5000 0.5000 0.0000
F1 F 0.5000 0.5818(4) 0.0000
F2 F 0.5555(6) 0.5000 0.0572(4)
N1 N 0.5667(2) 0.6953(3) 0.0645(2)
C1 C 0.5835(3) 0.7562(2) 0.0820(3)
H1 H 0.5658 0.7913 0.0605
C2 C 0.6260(3) 0.7657(2) 0.1310(3)
H2 H 0.6374 0.8073 0.1430
C3 C 0.6518(3) 0.7143(3) 0.1624(2)
C4 C 0.6351(3) 0.6534(2) 0.1449(3)
H3 H 0.6527 0.6183 0.1664
C5 C 0.5925(3) 0.6439(2) 0.0959(3)
H4 H 0.5811 0.6023 0.0840
C6 C 0.6933(4) 0.7250(4) 0.2164(4)
C7 C 0.7441(5) 0.6816(4) 0.2293(4)
H5 H 0.7488 0.6446 0.2045
N1G N 0.9355(2) 0.5667(2) 0.3047(3)
C1G C 0.9180(3) 0.5835(3) 0.2438(2)
H1G H 0.9395 0.5658 0.2087
C2G C 0.8690(3) 0.6260(3) 0.2343(2)
H2G H 0.8570 0.6374 0.1927
C3G C 0.8376(2) 0.6518(3) 0.2857(3)
C4G C 0.8551(3) 0.6351(3) 0.3466(2)
H3G H 0.8336 0.6527 0.3817
C5G C 0.9041(3) 0.5925(3) 0.3561(2)
H4G H 0.9160 0.5811 0.3977
C6G C 0.7836(4) 0.6933(4) 0.2750(4)
C7G C 0.7707(4) 0.7441(5) 0.3184(4)
H5G H 0.7955 0.7488 0.3554
N1H N 0.6953(3) 0.9355(2) 0.4333(2)
C1H C 0.7562(2) 0.9180(3) 0.4165(3)
H1H H 0.7913 0.9395 0.4342
C2H C 0.7657(2) 0.8690(3) 0.3740(3)
H2H H 0.8073 0.8570 0.3626
C3H C 0.7143(3) 0.8376(2) 0.3482(3)
C4H C 0.6534(2) 0.8551(3) 0.3649(3)
H3H H 0.6183 0.8336 0.3473
C5H C 0.6439(2) 0.9041(3) 0.4075(3)
H4H H 0.6023 0.9160 0.4189
C6H C 0.7250(4) 0.7836(4) 0.3067(4)
C7H C 0.6816(4) 0.7707(4) 0.2559(5)
H5H H 0.6446 0.7955 0.2512
Cu1D Cu 1.0000 0.5000 0.31221(11)
Ge1A Ge 1.0000 0.5000 0.5000
F1D F 1.0000 0.5000 0.4182(4)
F2G F 0.9428(4) 0.5555(6) 0.5000
Cu1B Cu 0.68779(11) 1.0000 0.5000
Ge1B Ge 0.5000 1.0000 0.5000
F1B F 0.5818(4) 1.0000 0.5000
F2H F 0.5000 0.9428(4) 0.4445(6)
Cu1I Cu 0.5000 0.31221(11) 0.0000
F1I F 0.5000 0.4182(4) 0.0000
F2I F 0.4445(6) 0.5000 0.0572(4)
N1I N 0.4333(2) 0.3047(3) 0.0645(2)
C1I C 0.4165(3) 0.2438(2) 0.0820(3)
H1I H 0.4342 0.2087 0.0605
C2I C 0.3740(3) 0.2343(2) 0.1310(3)
H2I H 0.3626 0.1927 0.1430
C3I C 0.3482(3) 0.2857(3) 0.1624(2)
C4I C 0.3649(3) 0.3466(2) 0.1449(3)
H3I H 0.3473 0.3817 0.1664
C5I C 0.4075(3) 0.3561(2) 0.0959(3)
H4I H 0.4189 0.3977 0.0840
C6I C 0.3067(4) 0.2750(4) 0.2164(4)
C7I C 0.2559(5) 0.3184(4) 0.2293(4)
H5I H 0.2512 0.3554 0.2045
N1D N 0.0645(2) 0.4333(2) 0.3047(3)
C1D C 0.0820(3) 0.4165(3) 0.2438(2)
H1D H 0.0605 0.4342 0.2087
C2D C 0.1310(3) 0.3740(3) 0.2343(2)
H2D H 0.1430 0.3626 0.1927
C3D C 0.1624(2) 0.3482(3) 0.2857(3)
C4D C 0.1449(3) 0.3649(3) 0.3466(2)
H3D H 0.1664 0.3473 0.3817
C5D C 0.0959(3) 0.4075(3) 0.3561(2)
H4D H 0.0840 0.4189 0.3977
C6D C 0.2164(4) 0.3067(4) 0.2750(4)
C7D C 0.2293(4) 0.2559(5) 0.3184(4)
H5D H 0.2045 0.2512 0.3554
N1E N 0.3047(3) 0.0645(2) 0.4333(2)
C1E C 0.2438(2) 0.0820(3) 0.4165(3)
H1E H 0.2087 0.0605 0.4342
C2E C 0.2343(2) 0.1310(3) 0.3740(3)
H2E H 0.1927 0.1430 0.3626
C3E C 0.2857(3) 0.1624(2) 0.3482(3)
C4E C 0.3466(2) 0.1449(3) 0.3649(3)
H3E H 0.3817 0.1664 0.3473
C5E C 0.3561(2) 0.0959(3) 0.4075(3)
H4E H 0.3977 0.0840 0.4189
C6E C 0.2750(4) 0.2164(4) 0.3067(4)
C7E C 0.3184(4) 0.2293(4) 0.2559(5)
H5E H 0.3554 0.2045 0.2512
F2K F 0.4445(6) 0.5000 -0.0572(4)
N1L N 0.4333(2) 0.3047(3) -0.0645(2)
C1L C 0.4165(3) 0.2438(2) -0.0820(3)
H1L H 0.4342 0.2087 -0.0605
C2L C 0.3740(3) 0.2343(2) -0.1310(3)
H2L H 0.3626 0.1927 -0.1430
C3L C 0.3482(3) 0.2857(3) -0.1624(2)
C4L C 0.3649(3) 0.3466(2) -0.1449(3)
H3L H 0.3473 0.3817 -0.1664
C5L C 0.4075(3) 0.3561(2) -0.0959(3)
H4L H 0.4189 0.3977 -0.0840
C6L C 0.3067(4) 0.2750(4) -0.2164(4)
C7L C 0.2559(5) 0.3184(4) -0.2293(4)
H5L H 0.2512 0.3554 -0.2045
N1S N 0.0645(2) 0.4333(2) -0.3047(3)
C1S C 0.0820(3) 0.4165(3) -0.2438(2)
H1S H 0.0605 0.4342 -0.2087
C2S C 0.1310(3) 0.3740(3) -0.2343(2)
H2S H 0.1430 0.3626 -0.1927
C3S C 0.1624(2) 0.3482(3) -0.2857(3)
C4S C 0.1449(3) 0.3649(3) -0.3466(2)
H3S H 0.1664 0.3473 -0.3817
C5S C 0.0959(3) 0.4075(3) -0.3561(2)
H4S H 0.0840 0.4189 -0.3977
C6S C 0.2164(4) 0.3067(4) -0.2750(4)
C7S C 0.2293(4) 0.2559(5) -0.3184(4)
H5S H 0.2045 0.2512 -0.3554
N1T N 0.3047(3) 0.0645(2) -0.4333(2)
C1T C 0.2438(2) 0.0820(3) -0.4165(3)
H1T H 0.2087 0.0605 -0.4342
C2T C 0.2343(2) 0.1310(3) -0.3740(3)
H2T H 0.1927 0.1430 -0.3626
C3T C 0.2857(3) 0.1624(2) -0.3482(3)
C4T C 0.3466(2) 0.1449(3) -0.3649(3)
H3T H 0.3817 0.1664 -0.3473
C5T C 0.3561(2) 0.0959(3) -0.4075(3)
H4T H 0.3977 0.0840 -0.4189
C6T C 0.2750(4) 0.2164(4) -0.3067(4)
C7T C 0.3184(4) 0.2293(4) -0.2559(5)
H5T H 0.3554 0.2045 -0.2512
F2E F 0.5000 1.0572(4) 0.4445(6)
N1O N 0.6953(3) 1.0645(2) 0.4333(2)
C1O C 0.7562(2) 1.0820(3) 0.4165(3)
H1O H 0.7913 1.0605 0.4342
C2O C 0.7657(2) 1.1310(3) 0.3740(3)
H2O H 0.8073 1.1430 0.3626
C3O C 0.7143(3) 1.1624(2) 0.3482(3)
C4O C 0.6534(2) 1.1449(3) 0.3649(3)
H3O H 0.6183 1.1664 0.3473
C5O C 0.6439(2) 1.0959(3) 0.4075(3)
H4O H 0.6023 1.0840 0.4189
C6O C 0.7250(4) 1.2164(4) 0.3067(4)
C7O C 0.6816(4) 1.2293(4) 0.2559(5)
H5O H 0.6446 1.2045 0.2512
N1W N 0.5667(2) 1.3047(3) 0.0645(2)
C1W C 0.5835(3) 1.2438(2) 0.0820(3)
H1W H 0.5658 1.2087 0.0605
C2W C 0.6260(3) 1.2343(2) 0.1310(3)
H2W H 0.6374 1.1927 0.1430
C3W C 0.6518(3) 1.2857(3) 0.1624(2)
C4W C 0.6351(3) 1.3466(2) 0.1449(3)
H3W H 0.6527 1.3817 0.1664
C5W C 0.5925(3) 1.3561(2) 0.0959(3)
H4W H 0.5811 1.3977 0.0840
C6W C 0.6933(4) 1.2750(4) 0.2164(4)
C7W C 0.7441(5) 1.3184(4) 0.2293(4)
H5W H 0.7488 1.3554 0.2045
N1M N 0.9355(2) 1.4333(2) 0.3047(3)
C1M C 0.9180(3) 1.4165(3) 0.2438(2)
H1M H 0.9395 1.4342 0.2087
C2M C 0.8690(3) 1.3740(3) 0.2343(2)
H2M H 0.8570 1.3626 0.1927
C3M C 0.8376(2) 1.3482(3) 0.2857(3)
C4M C 0.8551(3) 1.3649(3) 0.3466(2)
H3M H 0.8336 1.3473 0.3817
C5M C 0.9041(3) 1.4075(3) 0.3561(2)
H4M H 0.9160 1.4189 0.3977
C6M C 0.7836(4) 1.3067(4) 0.2750(4)
C7M C 0.7707(4) 1.2559(5) 0.3184(4)
H5M H 0.7955 1.2512 0.3554
Cu1A Cu 1.0000 0.5000 -0.31221(11)
F1A F 1.0000 0.5000 -0.4182(4)
N1P N 0.9355(2) 0.5667(2) -0.3047(3)
C1P C 0.9180(3) 0.5835(3) -0.2438(2)
H1P H 0.9395 0.5658 -0.2087
C2P C 0.8690(3) 0.6260(3) -0.2343(2)
H2P H 0.8570 0.6374 -0.1927
C3P C 0.8376(2) 0.6518(3) -0.2857(3)
C4P C 0.8551(3) 0.6351(3) -0.3466(2)
H3P H 0.8336 0.6527 -0.3817
C5P C 0.9041(3) 0.5925(3) -0.3561(2)
H4P H 0.9160 0.5811 -0.3977
C6P C 0.7836(4) 0.6933(4) -0.2750(4)
C7P C 0.7707(4) 0.7441(5) -0.3184(4)
H5P H 0.7955 0.7488 -0.3554
N1Q N 0.6953(3) 0.9355(2) -0.4333(2)
C1Q C 0.7562(2) 0.9180(3) -0.4165(3)
H1Q H 0.7913 0.9395 -0.4342
C2Q C 0.7657(2) 0.8690(3) -0.3740(3)
H2Q H 0.8073 0.8570 -0.3626
C3Q C 0.7143(3) 0.8376(2) -0.3482(3)
C4Q C 0.6534(2) 0.8551(3) -0.3649(3)
H3Q H 0.6183 0.8336 -0.3473
C5Q C 0.6439(2) 0.9041(3) -0.4075(3)
H4Q H 0.6023 0.9160 -0.4189
C6Q C 0.7250(4) 0.7836(4) -0.3067(4)
C7Q C 0.6816(4) 0.7707(4) -0.2559(5)
H5Q H 0.6446 0.7955 -0.2512
N1U N 0.5667(2) 0.6953(3) -0.0645(2)
C1U C 0.5835(3) 0.7562(2) -0.0820(3)
H1U H 0.5658 0.7913 -0.0605
C2U C 0.6260(3) 0.7657(2) -0.1310(3)
H2U H 0.6374 0.8073 -0.1430
C3U C 0.6518(3) 0.7143(3) -0.1624(2)
C4U C 0.6351(3) 0.6534(2) -0.1449(3)
H3U H 0.6527 0.6183 -0.1664
C5U C 0.5925(3) 0.6439(2) -0.0959(3)
H4U H 0.5811 0.6023 -0.0840
C6U C 0.6933(4) 0.7250(4) -0.2164(4)
C7U C 0.7441(5) 0.6816(4) -0.2293(4)
H5U H 0.7488 0.6446 -0.2045
Cu1B_2 Cu 0.68779(11) 1.0000 -0.5000
F1B_2 F 0.5818(4) 1.0000 -0.5000
F2A F 1.0572(4) 0.5555(6) 0.5000
N1R N 1.0645(2) 0.5667(2) 0.3047(3)
C1R C 1.0820(3) 0.5835(3) 0.2438(2)
H1R H 1.0605 0.5658 0.2087
C2R C 1.1310(3) 0.6260(3) 0.2343(2)
H2R H 1.1430 0.6374 0.1927
C3R C 1.1624(2) 0.6518(3) 0.2857(3)
C4R C 1.1449(3) 0.6351(3) 0.3466(2)
H3R H 1.1664 0.6527 0.3817
C5R C 1.0959(3) 0.5925(3) 0.3561(2)
H4R H 1.0840 0.5811 0.3977
C6R C 1.2164(4) 0.6933(4) 0.2750(4)
C7R C 1.2293(4) 0.7441(5) 0.3184(4)
H5R H 1.2045 0.7488 0.3554
N1N N 1.3047(3) 0.9355(2) 0.4333(2)
C1N C 1.2438(2) 0.9180(3) 0.4165(3)
H1N H 1.2087 0.9395 0.4342
C2N C 1.2343(2) 0.8690(3) 0.3740(3)
H2N H 1.1927 0.8570 0.3626
C3N C 1.2857(3) 0.8376(2) 0.3482(3)
C4N C 1.3466(2) 0.8551(3) 0.3649(3)
H3N H 1.3817 0.8336 0.3473
C5N C 1.3561(2) 0.9041(3) 0.4075(3)
H4N H 1.3977 0.9160 0.4189
C6N C 1.2750(4) 0.7836(4) 0.3067(4)
C7N C 1.3184(4) 0.7707(4) 0.2559(5)
H5N H 1.3554 0.7955 0.2512
N1V N 1.4333(2) 0.6953(3) 0.0645(2)
C1V C 1.4165(3) 0.7562(2) 0.0820(3)
H1V H 1.4342 0.7913 0.0605
C2V C 1.3740(3) 0.7657(2) 0.1310(3)
H2V H 1.3626 0.8073 0.1430
C3V C 1.3482(3) 0.7143(3) 0.1624(2)
C4V C 1.3649(3) 0.6534(2) 0.1449(3)
H3V H 1.3473 0.6183 0.1664
C5V C 1.4075(3) 0.6439(2) 0.0959(3)
H4V H 1.4189 0.6023 0.0840
C6V C 1.3067(4) 0.7250(4) 0.2164(4)
C7V C 1.2559(5) 0.6816(4) 0.2293(4)
H5V H 1.2512 0.6446 0.2045
F2J F 0.5555(6) 0.5000 -0.0572(4)
N1A N 1.0645(2) 0.5667(2) -0.3047(3)
C1A C 1.0820(3) 0.5835(3) -0.2438(2)
H1A H 1.0605 0.5658 -0.2087
C2A C 1.1310(3) 0.6260(3) -0.2343(2)
H2A H 1.1430 0.6374 -0.1927
C3A C 1.1624(2) 0.6518(3) -0.2857(3)
C4A C 1.1449(3) 0.6351(3) -0.3466(2)
H3A H 1.1664 0.6527 -0.3817
C5A C 1.0959(3) 0.5925(3) -0.3561(2)
H4A H 1.0840 0.5811 -0.3977
C6A C 1.2164(4) 0.6933(4) -0.2750(4)
C7A C 1.2293(4) 0.7441(5) -0.3184(4)
H5A H 1.2045 0.7488 -0.3554
N1C N 1.3047(3) 0.9355(2) -0.4333(2)
C1C C 1.2438(2) 0.9180(3) -0.4165(3)
H1C H 1.2087 0.9395 -0.4342
C2C C 1.2343(2) 0.8690(3) -0.3740(3)
H2C H 1.1927 0.8570 -0.3626
C3C C 1.2857(3) 0.8376(2) -0.3482(3)
C4C C 1.3466(2) 0.8551(3) -0.3649(3)
H3C H 1.3817 0.8336 -0.3473
C5C C 1.3561(2) 0.9041(3) -0.4075(3)
H4C H 1.3977 0.9160 -0.4189
C6C C 1.2750(4) 0.7836(4) -0.3067(4)
C7C C 1.3184(4) 0.7707(4) -0.2559(5)
H5C H 1.3554 0.7955 -0.2512
N1K N 1.4333(2) 0.6953(3) -0.0645(2)
C1K C 1.4165(3) 0.7562(2) -0.0820(3)
H1K H 1.4342 0.7913 -0.0605
C2K C 1.3740(3) 0.7657(2) -0.1310(3)
H2K H 1.3626 0.8073 -0.1430
C3K C 1.3482(3) 0.7143(3) -0.1624(2)
C4K C 1.3649(3) 0.6534(2) -0.1449(3)
H3K H 1.3473 0.6183 -0.1664
C5K C 1.4075(3) 0.6439(2) -0.0959(3)
H4K H 1.4189 0.6023 -0.0840
C6K C 1.3067(4) 0.7250(4) -0.2164(4)
C7K C 1.2559(5) 0.6816(4) -0.2293(4)
H5K H 1.2512 0.6446 -0.2045
N1B N 0.6953(3) 1.0645(2) -0.4333(2)
C1B C 0.7562(2) 1.0820(3) -0.4165(3)
H1B H 0.7913 1.0605 -0.4342
C2B C 0.7657(2) 1.1310(3) -0.3740(3)
H2B H 0.8073 1.1430 -0.3626
C3B C 0.7143(3) 1.1624(2) -0.3482(3)
C4B C 0.6534(2) 1.1449(3) -0.3649(3)
H3B H 0.6183 1.1664 -0.3473
C5B C 0.6439(2) 1.0959(3) -0.4075(3)
H4B H 0.6023 1.0840 -0.4189
C6B C 0.7250(4) 1.2164(4) -0.3067(4)
C7B C 0.6816(4) 1.2293(4) -0.2559(5)
H5B H 0.6446 1.2045 -0.2512
N1J N 0.5667(2) 1.3047(3) -0.0645(2)
C1J C 0.5835(3) 1.2438(2) -0.0820(3)
H1J H 0.5658 1.2087 -0.0605
C2J C 0.6260(3) 1.2343(2) -0.1310(3)
H2J H 0.6374 1.1927 -0.1430
C3J C 0.6518(3) 1.2857(3) -0.1624(2)
C4J C 0.6351(3) 1.3466(2) -0.1449(3)
H3J H 0.6527 1.3817 -0.1664
C5J C 0.5925(3) 1.3561(2) -0.0959(3)
H4J H 0.5811 1.3977 -0.0840
C6J C 0.6933(4) 1.2750(4) -0.2164(4)
C7J C 0.7441(5) 1.3184(4) -0.2293(4)
H5J H 0.7488 1.3554 -0.2045
N1F N 0.9355(2) 1.4333(2) -0.3047(3)
C1F C 0.9180(3) 1.4165(3) -0.2438(2)
H1F H 0.9395 1.4342 -0.2087
C2F C 0.8690(3) 1.3740(3) -0.2343(2)
H2F H 0.8570 1.3626 -0.1927
C3F C 0.8376(2) 1.3482(3) -0.2857(3)
C4F C 0.8551(3) 1.3649(3) -0.3466(2)
H3F H 0.8336 1.3473 -0.3817
C5F C 0.9041(3) 1.4075(3) -0.3561(2)
H4F H 0.9160 1.4189 -0.3977
C6F C 0.7836(4) 1.3067(4) -0.2750(4)
C7F C 0.7707(4) 1.2559(5) -0.3184(4)
H5F H 0.7955 1.2512 -0.3554
F2D F 1.0572(4) 0.4445(6) 0.5000
F2F F 0.9428(4) 0.4445(6) 0.5000
F2B F 0.5000 1.0572(4) 0.5555(6)
F2C F 0.5000 0.9428(4) 0.5555(6)
Cu1_2 Cu 1.5000 0.68779(11) 0.0000
Cu1A_2 Cu 0.0000 0.5000 -0.31221(11)
Cu1A_3 Cu 1.0000 1.5000 -0.31221(11)
Cu1C Cu 0.31221(11) 0.0000 -0.5000
Cu1C_2 Cu 0.31221(11) 0.0000 0.5000
Cu1C_3 Cu 1.31221(11) 1.0000 -0.5000
Cu1C_4 Cu 1.31221(11) 1.0000 0.5000
Cu1D_2 Cu 0.0000 0.5000 0.31221(11)
Cu1D_3 Cu 1.0000 1.5000 0.31221(11)
Cu1I_2 Cu 0.5000 1.31221(11) 0.0000
Ge1A_2 Ge 1.0000 0.5000 -0.5000
Ge1B_2 Ge 0.5000 1.0000 -0.5000
F1A_2 F 1.0000 0.5000 0.5818(4)
F1C F 0.4182(4) 1.0000 0.5000
N1B_2 N 0.6953(3) 1.0645(2) 0.5667(2)
N1D_2 N 1.0645(2) 0.4333(2) 0.3047(3)
N1F_2 N 0.9355(2) 0.4333(2) -0.3047(3)
N1H_2 N 0.6953(3) 0.9355(2) -0.5667(2)
N1J_2 N 0.5667(2) 0.3047(3) -0.0645(2)
N1K_2 N 0.4333(2) 0.6953(3) -0.0645(2)
N1M_2 N 0.9355(2) 0.4333(2) 0.3047(3)
N1O_2 N 0.6953(3) 1.0645(2) -0.5667(2)
N1Q_2 N 0.6953(3) 0.9355(2) 0.5667(2)
N1S_2 N 1.0645(2) 0.4333(2) -0.3047(3)
N1V_2 N 0.4333(2) 0.6953(3) 0.0645(2)
N1W_2 N 0.5667(2) 0.3047(3) 0.0645(2)
loop_
_geom_bond_atom_site_label_1
_geom_bond_atom_site_label_2
_geom_bond_site_symmetry_1
_geom_bond_site_symmetry_2
Cu1 F1 1_555 1_555
Ge1 F1 1_555 1_555
F2 Ge1 1_555 1_555
N1 Cu1 1_555 1_555
C1 N1 1_555 1_555
H1 C1 1_555 1_555
C2 C1 1_555 1_555
H2 C2 1_555 1_555
C3 C2 1_555 1_555
C4 C3 1_555 1_555
H3 C4 1_555 1_555
C5 N1 1_555 1_555
H4 C5 1_555 1_555
C6 C3 1_555 1_555
C7 C6 1_555 1_555
H5 C7 1_555 1_555
N1G C1G 1_555 1_555
C1G H1G 1_555 1_555
C2G C1G 1_555 1_555
H2G C2G 1_555 1_555
C3G C2G 1_555 1_555
C4G C3G 1_555 1_555
H3G C4G 1_555 1_555
C5G N1G 1_555 1_555
H4G C5G 1_555 1_555
C6G C7 1_555 1_555
C7G C6G 1_555 1_555
H5G C7G 1_555 1_555
N1H C1H 1_555 1_555
C1H H1H 1_555 1_555
C2H C1H 1_555 1_555
H2H C2H 1_555 1_555
C3H C2H 1_555 1_555
C4H C3H 1_555 1_555
H3H C4H 1_555 1_555
C5H N1H 1_555 1_555
H4H C5H 1_555 1_555
C6H C7G 1_555 1_555
C7H C6 1_555 1_555
H5H C7H 1_555 1_555
Cu1D N1G 1_555 1_555
Ge1A F1D 1_555 1_555
F1D Cu1D 1_555 1_555
F2G Ge1A 1_555 1_555
Cu1B N1H 1_555 1_555
Ge1B F1B 1_555 1_555
F1B Cu1B 1_555 1_555
F2H Ge1B 1_555 1_555
Cu1I F1I 1_555 1_555
F1I Ge1 1_555 1_555
F2I Ge1 1_555 1_555
N1I Cu1I 1_555 1_555
C1I N1I 1_555 1_555
H1I C1I 1_555 1_555
C2I C1I 1_555 1_555
H2I C2I 1_555 1_555
C3I C2I 1_555 1_555
C4I C3I 1_555 1_555
H3I C4I 1_555 1_555
C5I N1I 1_555 1_555
H4I C5I 1_555 1_555
C6I C3I 1_555 1_555
C7I C6I 1_555 1_555
H5I C7I 1_555 1_555
N1D C1D 1_555 1_555
C1D H1D 1_555 1_555
C2D C1D 1_555 1_555
H2D C2D 1_555 1_555
C3D C2D 1_555 1_555
C4D C3D 1_555 1_555
H3D C4D 1_555 1_555
C5D N1D 1_555 1_555
H4D C5D 1_555 1_555
C6D C7I 1_555 1_555
C7D C6D 1_555 1_555
H5D C7D 1_555 1_555
N1E C1E 1_555 1_555
C1E H1E 1_555 1_555
C2E C1E 1_555 1_555
H2E C2E 1_555 1_555
C3E C2E 1_555 1_555
C4E C3E 1_555 1_555
H3E C4E 1_555 1_555
C5E N1E 1_555 1_555
H4E C5E 1_555 1_555
C6E C7D 1_555 1_555
C7E C6I 1_555 1_555
H5E C7E 1_555 1_555
F2K Ge1 1_555 1_555
N1L Cu1I 1_555 1_555
C1L N1L 1_555 1_555
H1L C1L 1_555 1_555
C2L C1L 1_555 1_555
H2L C2L 1_555 1_555
C3L C2L 1_555 1_555
C4L C3L 1_555 1_555
H3L C4L 1_555 1_555
C5L N1L 1_555 1_555
H4L C5L 1_555 1_555
C6L C3L 1_555 1_555
C7L C6L 1_555 1_555
H5L C7L 1_555 1_555
N1S C1S 1_555 1_555
C1S H1S 1_555 1_555
C2S C1S 1_555 1_555
H2S C2S 1_555 1_555
C3S C2S 1_555 1_555
C4S C3S 1_555 1_555
H3S C4S 1_555 1_555
C5S N1S 1_555 1_555
H4S C5S 1_555 1_555
C6S C7L 1_555 1_555
C7S C6S 1_555 1_555
H5S C7S 1_555 1_555
N1T C1T 1_555 1_555
C1T H1T 1_555 1_555
C2T C1T 1_555 1_555
H2T C2T 1_555 1_555
C3T C2T 1_555 1_555
C4T C3T 1_555 1_555
H3T C4T 1_555 1_555
C5T N1T 1_555 1_555
H4T C5T 1_555 1_555
C6T C7S 1_555 1_555
C7T C6L 1_555 1_555
H5T C7T 1_555 1_555
F2E Ge1B 1_555 1_555
N1O Cu1B 1_555 1_555
C1O N1O 1_555 1_555
H1O C1O 1_555 1_555
C2O C1O 1_555 1_555
H2O C2O 1_555 1_555
C3O C2O 1_555 1_555
C4O C3O 1_555 1_555
H3O C4O 1_555 1_555
C5O N1O 1_555 1_555
H4O C5O 1_555 1_555
C6O C3O 1_555 1_555
C7O C6O 1_555 1_555
H5O C7O 1_555 1_555
N1W C1W 1_555 1_555
C1W H1W 1_555 1_555
C2W C1W 1_555 1_555
H2W C2W 1_555 1_555
C3W C2W 1_555 1_555
C4W C3W 1_555 1_555
H3W C4W 1_555 1_555
C5W N1W 1_555 1_555
H4W C5W 1_555 1_555
C6W C7O 1_555 1_555
C7W C6W 1_555 1_555
H5W C7W 1_555 1_555
N1M C1M 1_555 1_555
C1M H1M 1_555 1_555
C2M C1M 1_555 1_555
H2M C2M 1_555 1_555
C3M C2M 1_555 1_555
C4M C3M 1_555 1_555
H3M C4M 1_555 1_555
C5M N1M 1_555 1_555
H4M C5M 1_555 1_555
C6M C7W 1_555 1_555
C7M C6O 1_555 1_555
H5M C7M 1_555 1_555
Cu1A F1A 1_555 1_555
F1A Ge1A_2 1_555 1_555
N1P Cu1A 1_555 1_555
C1P N1P 1_555 1_555
H1P C1P 1_555 1_555
C2P C1P 1_555 1_555
H2P C2P 1_555 1_555
C3P C2P 1_555 1_555
C4P C3P 1_555 1_555
H3P C4P 1_555 1_555
C5P N1P 1_555 1_555
H4P C5P 1_555 1_555
C6P C3P 1_555 1_555
C7P C6P 1_555 1_555
H5P C7P 1_555 1_555
N1Q C1Q 1_555 1_555
C1Q H1Q 1_555 1_555
C2Q C1Q 1_555 1_555
H2Q C2Q 1_555 1_555
C3Q C2Q 1_555 1_555
C4Q C3Q 1_555 1_555
H3Q C4Q 1_555 1_555
C5Q N1Q 1_555 1_555
H4Q C5Q 1_555 1_555
C6Q C7P 1_555 1_555
C7Q C6Q 1_555 1_555
H5Q C7Q 1_555 1_555
N1U Cu1 1_555 1_555
C1U N1U 1_555 1_555
H1U C1U 1_555 1_555
C2U C1U 1_555 1_555
H2U C2U 1_555 1_555
C3U C2U 1_555 1_555
C4U C3U 1_555 1_555
H3U C4U 1_555 1_555
C5U N1U 1_555 1_555
H4U C5U 1_555 1_555
C6U C7Q 1_555 1_555
C7U C6P 1_555 1_555
H5U C7U 1_555 1_555
Cu1B_2 N1Q 1_555 1_555
F1B_2 Cu1B_2 1_555 1_555
F2A Ge1A 1_555 1_555
N1R Cu1D 1_555 1_555
C1R N1R 1_555 1_555
H1R C1R 1_555 1_555
C2R C1R 1_555 1_555
H2R C2R 1_555 1_555
C3R C2R 1_555 1_555
C4R C3R 1_555 1_555
H3R C4R 1_555 1_555
C5R N1R 1_555 1_555
H4R C5R 1_555 1_555
C6R C3R 1_555 1_555
C7R C6R 1_555 1_555
H5R C7R 1_555 1_555
N1N C1N 1_555 1_555
C1N H1N 1_555 1_555
C2N C1N 1_555 1_555
H2N C2N 1_555 1_555
C3N C2N 1_555 1_555
C4N C3N 1_555 1_555
H3N C4N 1_555 1_555
C5N N1N 1_555 1_555
H4N C5N 1_555 1_555
C6N C7R 1_555 1_555
C7N C6N 1_555 1_555
H5N C7N 1_555 1_555
N1V C1V 1_555 1_555
C1V H1V 1_555 1_555
C2V C1V 1_555 1_555
H2V C2V 1_555 1_555
C3V C2V 1_555 1_555
C4V C3V 1_555 1_555
H3V C4V 1_555 1_555
C5V N1V 1_555 1_555
H4V C5V 1_555 1_555
C6V C7N 1_555 1_555
C7V C6R 1_555 1_555
H5V C7V 1_555 1_555
F2J Ge1 1_555 1_555
N1A Cu1A 1_555 1_555
C1A N1A 1_555 1_555
H1A C1A 1_555 1_555
C2A C1A 1_555 1_555
H2A C2A 1_555 1_555
C3A C2A 1_555 1_555
C4A C3A 1_555 1_555
H3A C4A 1_555 1_555
C5A N1A 1_555 1_555
H4A C5A 1_555 1_555
C6A C3A 1_555 1_555
C7A C6A 1_555 1_555
H5A C7A 1_555 1_555
N1C C1C 1_555 1_555
C1C H1C 1_555 1_555
C2C C1C 1_555 1_555
H2C C2C 1_555 1_555
C3C C2C 1_555 1_555
C4C C3C 1_555 1_555
H3C C4C 1_555 1_555
C5C N1C 1_555 1_555
H4C C5C 1_555 1_555
C6C C7A 1_555 1_555
C7C C6C 1_555 1_555
H5C C7C 1_555 1_555
N1K C1K 1_555 1_555
C1K H1K 1_555 1_555
C2K C1K 1_555 1_555
H2K C2K 1_555 1_555
C3K C2K 1_555 1_555
C4K C3K 1_555 1_555
H3K C4K 1_555 1_555
C5K N1K 1_555 1_555
H4K C5K 1_555 1_555
C6K C7C 1_555 1_555
C7K C6A 1_555 1_555
H5K C7K 1_555 1_555
N1B Cu1B_2 1_555 1_555
C1B N1B 1_555 1_555
H1B C1B 1_555 1_555
C2B C1B 1_555 1_555
H2B C2B 1_555 1_555
C3B C2B 1_555 1_555
C4B C3B 1_555 1_555
H3B C4B 1_555 1_555
C5B N1B 1_555 1_555
H4B C5B 1_555 1_555
C6B C3B 1_555 1_555
C7B C6B 1_555 1_555
H5B C7B 1_555 1_555
N1J C1J 1_555 1_555
C1J H1J 1_555 1_555
C2J C1J 1_555 1_555
H2J C2J 1_555 1_555
C3J C2J 1_555 1_555
C4J C3J 1_555 1_555
H3J C4J 1_555 1_555
C5J N1J 1_555 1_555
H4J C5J 1_555 1_555
C6J C7B 1_555 1_555
C7J C6J 1_555 1_555
H5J C7J 1_555 1_555
N1F C1F 1_555 1_555
C1F H1F 1_555 1_555
C2F C1F 1_555 1_555
H2F C2F 1_555 1_555
C3F C2F 1_555 1_555
C4F C3F 1_555 1_555
H3F C4F 1_555 1_555
C5F N1F 1_555 1_555
H4F C5F 1_555 1_555
C6F C7J 1_555 1_555
C7F C6B 1_555 1_555
H5F C7F 1_555 1_555
F2D Ge1A 1_555 1_555
F2F Ge1A 1_555 1_555
F2B Ge1B 1_555 1_555
F2C Ge1B 1_555 1_555
Cu1_2 N1V 1_555 1_555
Cu1A_2 N1S 1_555 1_555
Cu1A_3 N1F 1_555 1_555
Cu1C N1T 1_555 1_555
Cu1C_2 N1E 1_555 1_555
Cu1C_3 N1C 1_555 1_555
Cu1C_4 N1N 1_555 1_555
Cu1D_2 N1D 1_555 1_555
Cu1D_3 N1M 1_555 1_555
Cu1I_2 N1W 1_555 1_555
Ge1B_2 F1B_2 1_555 1_555
F1A_2 Ge1A 1_555 1_555
F1C Ge1B 1_555 1_555
N1B_2 Cu1B 1_555 1_555
N1D_2 Cu1D 1_555 1_555
N1F_2 Cu1A 1_555 1_555
N1H_2 Cu1B_2 1_555 1_555
N1J_2 Cu1I 1_555 1_555
N1K_2 Cu1 1_555 1_555
N1M_2 Cu1D 1_555 1_555
N1O_2 Cu1B_2 1_555 1_555
N1Q_2 Cu1B 1_555 1_555
N1S_2 Cu1A 1_555 1_555
N1V_2 Cu1 1_555 1_555
N1W_2 Cu1I 1_555 1_555
C4 C5 1_555 1_555
C3G C6G 1_555 1_555
C4G C5G 1_555 1_555
C3H C6H 1_555 1_555
C4H C5H 1_555 1_555
C6H C7H 1_555 1_555
C4I C5I 1_555 1_555
C3D C6D 1_555 1_555
C4D C5D 1_555 1_555
C3E C6E 1_555 1_555
C4E C5E 1_555 1_555
C6E C7E 1_555 1_555
C4L C5L 1_555 1_555
C3S C6S 1_555 1_555
C4S C5S 1_555 1_555
C3T C6T 1_555 1_555
C4T C5T 1_555 1_555
C6T C7T 1_555 1_555
C4O C5O 1_555 1_555
C3W C6W 1_555 1_555
C4W C5W 1_555 1_555
C3M C6M 1_555 1_555
C4M C5M 1_555 1_555
C6M C7M 1_555 1_555
C4P C5P 1_555 1_555
C3Q C6Q 1_555 1_555
C4Q C5Q 1_555 1_555
C3U C6U 1_555 1_555
C4U C5U 1_555 1_555
C6U C7U 1_555 1_555
C4R C5R 1_555 1_555
C3N C6N 1_555 1_555
C4N C5N 1_555 1_555
C3V C6V 1_555 1_555
C4V C5V 1_555 1_555
C6V C7V 1_555 1_555
C4A C5A 1_555 1_555
C3C C6C 1_555 1_555
C4C C5C 1_555 1_555
N1K Cu1_2 1_555 1_555
C3K C6K 1_555 1_555
C4K C5K 1_555 1_555
C6K C7K 1_555 1_555
C4B C5B 1_555 1_555
N1J Cu1I_2 1_555 1_555
C3J C6J 1_555 1_555
C4J C5J 1_555 1_555
C3F C6F 1_555 1_555
C4F C5F 1_555 1_555
C6F C7F 1_555 1_555

#END
