
#######################################################################
#
#                 Cambridge Crystallographic Data Centre
#                                CCDC 
#
#######################################################################
#
# If this CIF has been generated from an entry in the Cambridge 
# Structural Database, then it will include bibliographic, chemical, 
# crystal, experimental, refinement or atomic coordinate data resulting 
# from the CCDC's data processing and validation procedures.
#
#######################################################################

data_IXISOZ02
_chemical_formula_moiety         '(C38 H29 Cl2 Eu2 N2 O16 1-)n'
_symmetry_cell_setting           monoclinic
_symmetry_space_group_name_H-M   'P 21/n'
_symmetry_Int_Tables_number      14
_space_group_name_Hall           '-P 2yn'
loop_
_symmetry_equiv_pos_site_id
_symmetry_equiv_pos_as_xyz
1 x,y,z
2 1/2-x,1/2+y,1/2-z
3 -x,-y,-z
4 1/2+x,1/2-y,1/2+z
_cell_length_a                   13.0533(4)
_cell_length_b                   13.1471(3)
_cell_length_c                   14.0537(4)
_cell_angle_alpha                90
_cell_angle_beta                 104.088(3)
_cell_angle_gamma                90
_cell_volume                     2339.26
loop_
_atom_site_label
_atom_site_type_symbol
_atom_site_fract_x
_atom_site_fract_y
_atom_site_fract_z
Eu1 Eu 0.59068(3) 0.05284(2) 0.91193(2)
Cl1 Cl 0.80191(13) 0.13799(12) 0.92281(13)
O1 O 0.4632(4) -0.0699(4) 0.8332(4)
O2 O 0.3499(4) -0.1124(4) 0.9245(4)
O3 O 0.2033(4) -0.4072(4) 0.4728(4)
O4 O 0.0688(4) -0.4140(4) 0.5418(4)
C1 C 0.3214(6) -0.1795(5) 0.7643(5)
C2 C 0.3443(6) -0.1785(6) 0.6728(5)
H1 H 0.3947(6) -0.1339(6) 0.6603(5)
C3 C 0.2922(6) -0.2436(6) 0.6008(5)
H2 H 0.3102(6) -0.2449(6) 0.5407(5)
C4 C 0.2131(6) -0.3076(5) 0.6162(5)
C5 C 0.1877(6) -0.3061(6) 0.7063(5)
H3 H 0.1338(6) -0.3475(6) 0.7171(5)
C6 C 0.2425(6) -0.2428(6) 0.7806(5)
H4 H 0.2262(6) -0.2429(6) 0.8414(5)
C7 C 0.3843(6) -0.1151(5) 0.8475(5)
C8 C 0.1598(6) -0.3797(5) 0.5394(5)
O5 O 0.5573(5) 0.2475(4) 0.9137(4)
O6 O 0.7098(5) 0.3293(5) 0.9756(5)
C9 C 0.5522(7) 0.4159(6) 0.9767(6)
C10 C 0.6091(8) 0.4918(7) 1.0379(7)
H5 H 0.6816(8) 0.4857(7) 1.0633(7)
C11 C 0.4442(7) 0.4249(7) 0.9407(7)
H6 H 0.4072(7) 0.3737(7) 0.9012(7)
C12 C 0.6068(7) 0.3214(6) 0.9518(6)
O7 O 0.6415(4) -0.0134(4) 0.7607(4)
O8 O 0.5272(4) 0.1113(4) 0.7444(4)
C13 C 0.5351(6) 0.0203(6) 0.5996(5)
C14 C 0.5795(7) -0.0557(6) 0.5583(6)
H7 H 0.6334(7) -0.0944(6) 0.5971(6)
C15 C 0.4549(7) 0.0766(7) 0.5421(6)
H8 H 0.4235(7) 0.1286(7) 0.5698(6)
C16 C 0.5704(6) 0.0417(6) 0.7081(5)
O5B O 0.4427(5) 0.7525(4) 1.0863(4)
O6B O 0.2902(5) 0.6707(5) 1.0244(5)
C9B C 0.4478(7) 0.5841(6) 1.0233(6)
C10B C 0.3909(8) 0.5082(7) 0.9621(7)
H5B H 0.3184(8) 0.5143(7) 0.9367(7)
C11B C 0.5558(7) 0.5751(7) 1.0593(7)
H6B H 0.5928(7) 0.6263(7) 1.0988(7)
C12B C 0.3932(7) 0.6786(6) 1.0482(6)
O7B O 0.3585(4) 0.0134(4) 0.2393(4)
O8B O 0.4728(4) -0.1113(4) 0.2556(4)
C13B C 0.4649(6) -0.0203(6) 0.4004(5)
C14B C 0.4205(7) 0.0557(6) 0.4417(6)
H7B H 0.3666(7) 0.0944(6) 0.4029(6)
C15B C 0.5451(7) -0.0766(7) 0.4579(6)
H8B H 0.5765(7) -0.1286(7) 0.4302(6)
C16B C 0.4296(6) -0.0417(6) 0.2919(5)
Eu1B Eu 0.40932(3) -0.05284(2) 0.08807(2)
Cl1B Cl 0.19809(13) -0.13799(12) 0.07719(13)
O1B O 0.5368(4) 0.0699(4) 0.1668(4)
O2B O 0.6501(4) 0.1124(4) 0.0755(4)
O3B O 0.7967(4) 0.4072(4) 0.5272(4)
O4B O 0.9312(4) 0.4140(4) 0.4582(4)
C1B C 0.6786(6) 0.1795(5) 0.2357(5)
C2B C 0.6557(6) 0.1785(6) 0.3272(5)
H1B H 0.6053(6) 0.1339(6) 0.3397(5)
C3B C 0.7078(6) 0.2436(6) 0.3992(5)
H2B H 0.6898(6) 0.2449(6) 0.4593(5)
C4B C 0.7869(6) 0.3076(5) 0.3838(5)
C5B C 0.8123(6) 0.3061(6) 0.2937(5)
H3B H 0.8662(6) 0.3475(6) 0.2829(5)
C6B C 0.7575(6) 0.2428(6) 0.2194(5)
H4B H 0.7738(6) 0.2429(6) 0.1586(5)
C7B C 0.6157(6) 0.1151(5) 0.1525(5)
C8B C 0.8402(6) 0.3797(5) 0.4606(5)
Eu1_2 Eu 0.59068(3) 0.05284(2) -0.08807(2)
Eu1A Eu -0.09068(3) -0.44716(2) 0.58807(2)
Eu1A_2 Eu 0.90932(3) 0.55284(2) 0.58807(2)
Eu1B_2 Eu 0.40932(3) -0.05284(2) 1.08807(2)
Eu1B_3 Eu 0.40932(3) 0.94716(2) 1.08807(2)
Eu1C Eu 0.09068(3) -0.55284(2) 0.41193(2)
Eu1C_2 Eu 1.09068(3) 0.44716(2) 0.41193(2)
O2_2 O 0.3499(4) -0.1124(4) -0.0755(4)
O2B_2 O 0.6501(4) 0.1124(4) 1.0755(4)
O3A O 0.2967(4) 0.0928(4) 0.0272(4)
O3C O 0.7033(4) -0.0928(4) 0.9728(4)
O4A O 0.4312(4) 0.0860(4) -0.0418(4)
O4A_2 O 0.4312(4) 0.0860(4) 0.9582(4)
O4C O 0.5688(4) -0.0860(4) 0.0418(4)
O4C_2 O 0.5688(4) -0.0860(4) 1.0418(4)
O5B_2 O 0.4427(5) -0.2475(4) 0.0863(4)
N1 N 0.9367(10) 0.0782(12) 0.7383(9)
N2 N 0.9576(10) -0.0620(9) 0.8211(11)
C17 C 0.8899(10) -0.0003(12) 0.7676(11)
H9 H 0.8171(10) -0.0103(12) 0.7519(11)
C18 C 1.0433(13) 0.0623(15) 0.7751(12)
H10 H 1.0976(13) 0.1043(15) 0.7664(12)
C19 C 1.0539(11) -0.0225(13) 0.8242(13)
H11 H 1.1179(11) -0.0515(13) 0.8566(13)
C20 C 0.873(2) 0.177(2) 0.6784(13)
H12 H 0.923(2) 0.225(2) 0.6647(13)
H13 H 0.827(2) 0.154(2) 0.6179(13)
H14 H 0.832(2) 0.209(2) 0.7179(13)
C21 C 0.939(2) -0.1541(16) 0.893(3)
H15 H 1.001(2) -0.1722(16) 0.944(3)
H16 H 0.878(2) -0.1439(16) 0.921(3)
C22 C 0.918(5) -0.220(4) 0.809(3)
H17 H 0.903(5) -0.287(4) 0.827(3)
H18 H 0.859(5) -0.194(4) 0.760(3)
H19 H 0.979(5) -0.222(4) 0.782(3)
loop_
_geom_bond_atom_site_label_1
_geom_bond_atom_site_label_2
_geom_bond_site_symmetry_1
_geom_bond_site_symmetry_2
Eu1 Cl1 1_555 1_555
O1 Eu1 1_555 1_555
O2 C7 1_555 1_555
O3 C8 1_555 1_555
O4 C8 1_555 1_555
C1 C2 1_555 1_555
C2 H1 1_555 1_555
C3 C2 1_555 1_555
H2 C3 1_555 1_555
C4 C3 1_555 1_555
C5 C4 1_555 1_555
H3 C5 1_555 1_555
C6 C1 1_555 1_555
H4 C6 1_555 1_555
C7 O1 1_555 1_555
C8 C4 1_555 1_555
O5 Eu1 1_555 1_555
O6 C12 1_555 1_555
C9 C10 1_555 1_555
C10 H5 1_555 1_555
C11 C9 1_555 1_555
H6 C11 1_555 1_555
C12 O5 1_555 1_555
O7 Eu1 1_555 1_555
O8 Eu1 1_555 1_555
C13 C14 1_555 1_555
C14 H7 1_555 1_555
C15 C13 1_555 1_555
H8 C15 1_555 1_555
C16 O7 1_555 1_555
N1 C17 1_555 1_555
N2 C17 1_555 1_555
C17 H9 1_555 1_555
C18 N1 1_555 1_555
H10 C18 1_555 1_555
C19 N2 1_555 1_555
H11 C19 1_555 1_555
C20 N1 1_555 1_555
H12 C20 1_555 1_555
H13 C20 1_555 1_555
H14 C20 1_555 1_555
C21 N2 1_555 1_555
H15 C21 1_555 1_555
H16 C21 1_555 1_555
C22 C21 1_555 1_555
H17 C22 1_555 1_555
H18 C22 1_555 1_555
H19 C22 1_555 1_555
O5B C12B 1_555 1_555
O6B C12B 1_555 1_555
C9B C10B 1_555 1_555
C10B C11 1_555 1_555
H5B C10B 1_555 1_555
C11B C10 1_555 1_555
H6B C11B 1_555 1_555
C12B C9B 1_555 1_555
O7B C16B 1_555 1_555
O8B C16B 1_555 1_555
C13B C14B 1_555 1_555
C14B C15 1_555 1_555
H7B C14B 1_555 1_555
C15B C14 1_555 1_555
H8B C15B 1_555 1_555
C16B C13B 1_555 1_555
Eu1B O7B 1_555 1_555
Cl1B Eu1B 1_555 1_555
O1B Eu1B 1_555 1_555
O2B C7B 1_555 1_555
O3B C8B 1_555 1_555
O4B C8B 1_555 1_555
C1B C2B 1_555 1_555
C2B H1B 1_555 1_555
C3B C2B 1_555 1_555
H2B C3B 1_555 1_555
C4B C3B 1_555 1_555
C5B C4B 1_555 1_555
H3B C5B 1_555 1_555
C6B C1B 1_555 1_555
H4B C6B 1_555 1_555
C7B O1B 1_555 1_555
C8B C4B 1_555 1_555
Eu1_2 O2B 1_555 1_555
Eu1A O4 1_555 1_555
Eu1A_2 O3B 1_555 1_555
Eu1B_2 O2 1_555 1_555
Eu1B_3 O5B 1_555 1_555
Eu1C O3 1_555 1_555
Eu1C_2 O4B 1_555 1_555
O2_2 Eu1B 1_555 1_555
O2B_2 Eu1 1_555 1_555
O3A Eu1B 1_555 1_555
O3C Eu1 1_555 1_555
O4A Eu1B 1_555 1_555
O4A_2 Eu1 1_555 1_555
O4C Eu1B 1_555 1_555
O4C_2 Eu1 1_555 1_555
O5B_2 Eu1B 1_555 1_555
O4 Eu1C 1_555 1_555
C1 C7 1_555 1_555
C5 C6 1_555 1_555
C9 C12 1_555 1_555
O8 C16 1_555 1_555
C13 C16 1_555 1_555
C18 C19 1_555 1_555
C9B C11B 1_555 1_555
O8B Eu1B 1_555 1_555
C13B C15B 1_555 1_555
O4B Eu1A_2 1_555 1_555
C1B C7B 1_555 1_555
C5B C6B 1_555 1_555
Eu1_2 O4A 1_555 1_555
Eu1_2 O4C 1_555 1_555
Eu1B_2 O4A_2 1_555 1_555
Eu1B_2 O4C_2 1_555 1_555

#END
