
#######################################################################
#
#                 Cambridge Crystallographic Data Centre
#                                CCDC 
#
#######################################################################
#
# If this CIF has been generated from an entry in the Cambridge 
# Structural Database, then it will include bibliographic, chemical, 
# crystal, experimental, refinement or atomic coordinate data resulting 
# from the CCDC's data processing and validation procedures.
#
#######################################################################

data_IXITOA02
_chemical_formula_moiety         '(C55 H37 Cl2 Eu4 N2 O24 1-)n'
_symmetry_cell_setting           monoclinic
_symmetry_space_group_name_H-M   'P 21/c'
_symmetry_Int_Tables_number      14
_space_group_name_Hall           '-P 2ybc'
loop_
_symmetry_equiv_pos_site_id
_symmetry_equiv_pos_as_xyz
1 x,y,z
2 -x,1/2+y,1/2-z
3 -x,-y,-z
4 x,1/2-y,1/2+z
_cell_length_a                   12.0317(3)
_cell_length_b                   19.5150(5)
_cell_length_c                   17.2834(4)
_cell_angle_alpha                90
_cell_angle_beta                 122.332(2)
_cell_angle_gamma                90
_cell_volume                     3428.96
loop_
_atom_site_label
_atom_site_type_symbol
_atom_site_fract_x
_atom_site_fract_y
_atom_site_fract_z
Eu1 Eu -0.264560(19) -0.269856(10) 0.556537(13)
Eu2 Eu -0.314462(19) -0.232526(10) 0.765883(13)
Cl1 Cl -0.23555(11) -0.19151(5) 0.42863(6)
O1 O -0.5541(3) -0.68823(17) 0.5745(2)
O2 O -0.5429(3) -0.67292(17) 0.7051(2)
O3 O -0.2879(4) -0.34870(15) 0.7439(2)
O4 O -0.2512(3) -0.37153(15) 0.6338(2)
O5 O -1.0375(3) -0.2490(2) 0.1699(2)
O6 O -1.1376(3) -0.26419(16) 0.2434(2)
O7 O -0.5421(3) -0.2732(2) 0.6570(2)
O8 O -0.4321(3) -0.26067(16) 0.5903(2)
O9 O -0.1644(4) -0.34742(18) 0.5103(2)
O10 O -0.1757(3) -0.34556(17) 0.3783(2)
O11 O -0.3575(3) -0.13175(16) 0.6757(2)
O12 O -0.3001(3) -0.15433(16) 0.5753(2)
C1 C -0.4639(5) -0.5848(2) 0.6540(3)
C2 C -0.4658(6) -0.5366(3) 0.7122(4)
H1 H -0.5051 -0.5471 0.7446
C3 C -0.4098(6) -0.4729(3) 0.7217(4)
H2 H -0.4110 -0.4407 0.7610
C4 C -0.3514(5) -0.4566(2) 0.6735(3)
C5 C -0.3507(5) -0.5044(2) 0.6153(3)
H3 H -0.3121 -0.4936 0.5824
C6 C -0.4066(5) -0.5683(2) 0.6050(3)
H4 H -0.4057 -0.6002 0.5654
C7 C -0.5259(4) -0.6534(2) 0.6438(3)
C8 C -0.2924(5) -0.3870(2) 0.6842(3)
C9 C -0.9047(4) -0.2673(2) 0.3299(3)
C10 C -0.8932(5) -0.3017(3) 0.4035(3)
H5 H -0.9663 -0.3231 0.3978
C11 C -0.7736(5) -0.3045(3) 0.4856(3)
H6 H -0.7665 -0.3278 0.5350
C12 C -0.6646(4) -0.2726(2) 0.4946(3)
C13 C -0.6750(4) -0.2400(3) 0.4204(3)
H7 H -0.6013 -0.2196 0.4258
C14 C -0.7941(4) -0.2373(3) 0.3385(3)
H8 H -0.8004 -0.2154 0.2885
C15 C -1.0345(4) -0.2599(2) 0.2421(3)
C16 C -0.5391(4) -0.2698(2) 0.5864(3)
C17 C -0.0685(5) -0.4384(2) 0.4773(3)
C18 C -0.0502(6) -0.4714(3) 0.4152(4)
H9 H -0.0840 -0.4524 0.3574
C19 C -0.0177(6) -0.4673(3) 0.5630(4)
H10 H -0.0292 -0.4454 0.6061
C20 C -0.1423(4) -0.3721(2) 0.4535(3)
C21 C -0.4284(4) -0.0564(2) 0.5513(3)
C22 C -0.4708(5) -0.0524(2) 0.4600(3)
H11 H -0.4507 -0.0874 0.4330
C23 C -0.4564(5) -0.0037(2) 0.5919(3)
H12 H -0.4267 -0.0059 0.6538
C24 C -0.3542(5) -0.1190(2) 0.6061(3)
O9B O 0.1644(4) -0.65258(18) 0.4897(2)
O10B O 0.1757(3) -0.65444(17) 0.6217(2)
C17B C 0.0685(5) -0.5616(2) 0.5227(3)
C18B C 0.0502(6) -0.5286(3) 0.5848(4)
H9B H 0.0840 -0.5476 0.6426
C19B C 0.0177(6) -0.5327(3) 0.4370(4)
H10B H 0.0292 -0.5546 0.3939
C20B C 0.1423(4) -0.6279(2) 0.5465(3)
O11B O -0.6425(3) 0.13175(16) 0.3243(2)
O12B O -0.6999(3) 0.15433(16) 0.4247(2)
C21B C -0.5716(4) 0.0564(2) 0.4487(3)
C22B C -0.5292(5) 0.0524(2) 0.5400(3)
H11B H -0.5493 0.0874 0.5670
C23B C -0.5436(5) 0.0037(2) 0.4081(3)
H12B H -0.5733 0.0059 0.3462
C24B C -0.6458(5) 0.1190(2) 0.3939(3)
Eu1B Eu -0.735440(19) -0.730144(10) 0.443463(13)
Eu2B Eu -0.685538(19) -0.767474(10) 0.234117(13)
Cl1B Cl -0.76445(11) -0.80849(5) 0.57137(6)
O1B O -0.4459(3) -0.31177(17) 0.4255(2)
O2B O -0.4571(3) -0.32708(17) 0.2949(2)
O3B O -0.7121(4) -0.65130(15) 0.2561(2)
O4B O -0.7488(3) -0.62847(15) 0.3662(2)
O5B O 0.0375(3) -0.7510(2) 0.8301(2)
O6B O 0.1376(3) -0.73581(16) 0.7566(2)
O7B O -0.4579(3) -0.7268(2) 0.3430(2)
O8B O -0.5679(3) -0.73933(16) 0.4097(2)
C1B C -0.5361(5) -0.4152(2) 0.3460(3)
C2B C -0.5342(6) -0.4634(3) 0.2878(4)
H1B H -0.4949 -0.4529 0.2554
C3B C -0.5902(6) -0.5271(3) 0.2783(4)
H2B H -0.5890 -0.5593 0.2390
C4B C -0.6486(5) -0.5434(2) 0.3265(3)
C5B C -0.6493(5) -0.4956(2) 0.3847(3)
H3B H -0.6879 -0.5064 0.4176
C6B C -0.5934(5) -0.4317(2) 0.3950(3)
H4B H -0.5943 -0.3998 0.4346
C7B C -0.4741(4) -0.3466(2) 0.3562(3)
C8B C -0.7076(5) -0.6130(2) 0.3158(3)
C9B C -0.0953(4) -0.7327(2) 0.6701(3)
C10B C -0.1068(5) -0.6983(3) 0.5965(3)
H5B H -0.0337 -0.6769 0.6022
C11B C -0.2264(5) -0.6955(3) 0.5144(3)
H6B H -0.2335 -0.6722 0.4650
C12B C -0.3354(4) -0.7274(2) 0.5054(3)
C13B C -0.3250(4) -0.7600(3) 0.5796(3)
H7B H -0.3987 -0.7804 0.5742
C14B C -0.2059(4) -0.7627(3) 0.6615(3)
H8B H -0.1996 -0.7846 0.7115
C15B C 0.0345(4) -0.7401(2) 0.7579(3)
C16B C -0.4609(4) -0.7302(2) 0.4136(3)
Eu1A Eu 0.264560(19) -0.769856(10) 0.943463(13)
Eu1B_2 Eu -0.735440(19) 0.269856(10) 0.443463(13)
Eu1B_3 Eu 0.264560(19) -0.730144(10) 0.443463(13)
Eu1C Eu -1.264560(19) -0.230144(10) 0.056537(13)
Eu2A Eu -0.685538(19) -0.732526(10) 0.734117(13)
Eu2A_2 Eu 0.314462(19) -0.732526(10) 0.734117(13)
Eu2B_2 Eu -0.685538(19) 0.232526(10) 0.234117(13)
Eu2C Eu -1.314462(19) -0.267474(10) 0.265883(13)
Eu2C_2 Eu -0.314462(19) -0.267474(10) 0.265883(13)
Cl1A Cl -0.76445(11) -0.69151(5) 0.07137(6)
Cl1C Cl -0.23555(11) -0.30849(5) 0.92863(6)
O2A O -0.4571(3) -0.17292(17) 0.7949(2)
O2C O -0.5429(3) -0.82708(17) 0.2051(2)
O5A O -0.9625(3) -0.7490(2) 0.3301(2)
O5C O -0.0375(3) -0.2510(2) 0.6699(2)
O6A O -0.8624(3) -0.76419(16) 0.2566(2)
O6C O -0.1376(3) -0.23581(16) 0.7434(2)
O9B_2 O -0.8356(4) -0.65258(18) 0.4897(2)
O10A O -0.8243(3) -0.84556(17) 0.1217(2)
O10C O -0.1757(3) -0.15444(17) 0.8783(2)
O11B_2 O -0.6425(3) -0.86825(16) 0.3243(2)
O12B_2 O -0.6999(3) -0.84567(16) 0.4247(2)
N1 N -0.8156(7) -0.1518(3) 0.5659(5)
N2 N -0.8818(5) -0.0997(3) 0.4406(4)
C25 C -0.9177(7) -0.1380(4) 0.4860(7)
H13 H -1.0030 -0.1529 0.4642
C26 C -0.7513(6) -0.0892(4) 0.4966(5)
H14 H -0.6989 -0.0635 0.4828
C27 C -0.7108(7) -0.1214(4) 0.5739(5)
H15 H -0.6252 -0.1227 0.6247
C28 C -0.8111(11) -0.1938(6) 0.6395(7)
H16 H -0.8975 -0.2107 0.6188
H17 H -0.7805 -0.1660 0.6931
H18 H -0.7522 -0.2317 0.6541
C29 C -0.9863(17) 0.0401(9) 0.3793(11)
H19 H -0.9794 0.0865 0.3638
H20 H -0.9225 0.0323 0.4430
H21 H -1.0730 0.0323 0.3671
C30 C -0.9631(14) -0.0042(8) 0.3273(10)
H22 H -0.8774 0.0062 0.3375
H23 H -1.0280 0.0044 0.2632
C31 C -0.9667(11) -0.0764(6) 0.3454(7)
H24 H -0.9434 -0.1022 0.3081
H25 H -1.0567 -0.0882 0.3248
loop_
_geom_bond_atom_site_label_1
_geom_bond_atom_site_label_2
_geom_bond_site_symmetry_1
_geom_bond_site_symmetry_2
Eu1 Cl1 1_555 1_555
Eu2 O3 1_555 1_555
Cl1 Eu2C_2 1_555 1_555
O1 C7 1_555 1_555
O2 C7 1_555 1_555
O3 C8 1_555 1_555
O4 Eu1 1_555 1_555
O5 C15 1_555 1_555
O6 C15 1_555 1_555
O7 Eu2 1_555 1_555
O8 Eu1 1_555 1_555
O9 Eu1 1_555 1_555
O10 C20 1_555 1_555
O11 Eu2 1_555 1_555
O12 Eu1 1_555 1_555
C1 C2 1_555 1_555
C2 H1 1_555 1_555
C3 C2 1_555 1_555
H2 C3 1_555 1_555
C4 C3 1_555 1_555
C5 C4 1_555 1_555
H3 C5 1_555 1_555
C6 C1 1_555 1_555
H4 C6 1_555 1_555
C7 C1 1_555 1_555
C8 O4 1_555 1_555
C9 C10 1_555 1_555
C10 H5 1_555 1_555
C11 C10 1_555 1_555
H6 C11 1_555 1_555
C12 C11 1_555 1_555
C13 C12 1_555 1_555
H7 C13 1_555 1_555
C14 C9 1_555 1_555
H8 C14 1_555 1_555
C15 C9 1_555 1_555
C16 O7 1_555 1_555
C17 C18 1_555 1_555
C18 H9 1_555 1_555
C19 C17 1_555 1_555
H10 C19 1_555 1_555
C20 O9 1_555 1_555
C21 C22 1_555 1_555
C22 H11 1_555 1_555
C23 C21 1_555 1_555
H12 C23 1_555 1_555
C24 O11 1_555 1_555
N1 C25 1_555 1_555
N2 C25 1_555 1_555
C25 H13 1_555 1_555
C26 N2 1_555 1_555
H14 C26 1_555 1_555
C27 N1 1_555 1_555
H15 C27 1_555 1_555
C28 N1 1_555 1_555
H16 C28 1_555 1_555
H17 C28 1_555 1_555
H18 C28 1_555 1_555
C29 H19 1_555 1_555
H20 C29 1_555 1_555
H21 C29 1_555 1_555
C30 C29 1_555 1_555
H22 C30 1_555 1_555
H23 C30 1_555 1_555
C31 N2 1_555 1_555
H24 C31 1_555 1_555
H25 C31 1_555 1_555
O9B C20B 1_555 1_555
O10B C20B 1_555 1_555
C17B C18B 1_555 1_555
C18B C19 1_555 1_555
H9B C18B 1_555 1_555
C19B C18 1_555 1_555
H10B C19B 1_555 1_555
C20B C17B 1_555 1_555
O11B C24B 1_555 1_555
O12B C24B 1_555 1_555
C21B C22B 1_555 1_555
C22B C23 1_555 1_555
H11B C22B 1_555 1_555
C23B C22 1_555 1_555
H12B C23B 1_555 1_555
C24B C21B 1_555 1_555
Eu1B O1 1_555 1_555
Eu2B O3B 1_555 1_555
Cl1B Eu1B 1_555 1_555
O1B Eu1 1_555 1_555
O2B C7B 1_555 1_555
O3B C8B 1_555 1_555
O4B Eu1B 1_555 1_555
O5B C15B 1_555 1_555
O6B C15B 1_555 1_555
O7B Eu2B 1_555 1_555
O8B Eu1B 1_555 1_555
C1B C2B 1_555 1_555
C2B H1B 1_555 1_555
C3B C2B 1_555 1_555
H2B C3B 1_555 1_555
C4B C3B 1_555 1_555
C5B C4B 1_555 1_555
H3B C5B 1_555 1_555
C6B C1B 1_555 1_555
H4B C6B 1_555 1_555
C7B O1B 1_555 1_555
C8B O4B 1_555 1_555
C9B C10B 1_555 1_555
C10B H5B 1_555 1_555
C11B C10B 1_555 1_555
H6B C11B 1_555 1_555
C12B C11B 1_555 1_555
C13B C12B 1_555 1_555
H7B C13B 1_555 1_555
C14B C9B 1_555 1_555
H8B C14B 1_555 1_555
C15B C9B 1_555 1_555
C16B O7B 1_555 1_555
Eu1A O5B 1_555 1_555
Eu1B_2 O12B 1_555 1_555
Eu1B_3 O9B 1_555 1_555
Eu1C O5 1_555 1_555
Eu2A O2 1_555 1_555
Eu2A_2 O10B 1_555 1_555
Eu2B_2 O11B 1_555 1_555
Eu2C O6 1_555 1_555
Eu2C_2 O10 1_555 1_555
Cl1A Eu2B 1_555 1_555
Cl1C Eu2 1_555 1_555
O2A Eu2 1_555 1_555
O2C Eu2B 1_555 1_555
O5A Eu1B 1_555 1_555
O5C Eu1 1_555 1_555
O6A Eu1B 1_555 1_555
O6C Eu1 1_555 1_555
O9B_2 Eu1B 1_555 1_555
O10A Eu2B 1_555 1_555
O10C Eu2 1_555 1_555
O11B_2 Eu2B 1_555 1_555
O12B_2 Eu1B 1_555 1_555
Eu2 O8 1_555 1_555
Eu2 O6C 1_555 1_555
O6 Eu1C 1_555 1_555
O8 C16 1_555 1_555
O12 C24 1_555 1_555
C4 C8 1_555 1_555
C5 C6 1_555 1_555
C12 C16 1_555 1_555
C13 C14 1_555 1_555
C17 C20 1_555 1_555
C21 C24 1_555 1_555
C26 C27 1_555 1_555
C30 C31 1_555 1_555
C17B C19B 1_555 1_555
C21B C23B 1_555 1_555
Eu2B O8B 1_555 1_555
Eu2B O6A 1_555 1_555
Cl1B Eu2A 1_555 1_555
O2B Eu2C_2 1_555 1_555
O6B Eu1A 1_555 1_555
O6B Eu2A_2 1_555 1_555
O8B C16B 1_555 1_555
C1B C7B 1_555 1_555
C4B C8B 1_555 1_555
C5B C6B 1_555 1_555
C12B C16B 1_555 1_555
C13B C14B 1_555 1_555

#END
