
#######################################################################
#
#                 Cambridge Crystallographic Data Centre
#                                CCDC 
#
#######################################################################
#
# If this CIF has been generated from an entry in the Cambridge 
# Structural Database, then it will include bibliographic, chemical, 
# crystal, experimental, refinement or atomic coordinate data resulting 
# from the CCDC's data processing and validation procedures.
#
#######################################################################

data_IXITIU02
_chemical_formula_moiety         '(C56 H39 Cl2 Eu4 N2 O24 1-)n'
_symmetry_cell_setting           monoclinic
_symmetry_space_group_name_H-M   'C 2/c'
_symmetry_Int_Tables_number      15
_space_group_name_Hall           '-C 2yc'
loop_
_symmetry_equiv_pos_site_id
_symmetry_equiv_pos_as_xyz
1 x,y,z
2 -x,y,1/2-z
3 1/2+x,1/2+y,z
4 1/2-x,1/2+y,1/2-z
5 -x,-y,-z
6 x,-y,1/2+z
7 1/2-x,1/2-y,-z
8 1/2+x,1/2-y,1/2+z
_cell_length_a                   19.1758(6)
_cell_length_b                   10.9867(3)
_cell_length_c                   33.4105(12)
_cell_angle_alpha                90
_cell_angle_beta                 103.273(3)
_cell_angle_gamma                90
_cell_volume                     6850.85
loop_
_atom_site_label
_atom_site_type_symbol
_atom_site_fract_x
_atom_site_fract_y
_atom_site_fract_z
Eu1 Eu 0.013013(17) 0.18479(3) 0.186682(9)
Eu2 Eu 0.003489(16) 0.05911(3) 0.055764(9)
Cl1 Cl -0.07806(8) 0.08659(17) 0.11528(5)
O1 O 0.0318(3) 0.3367(4) 0.13901(15)
O2 O 0.0563(3) 0.2376(4) 0.08591(15)
O3 O 0.0188(2) 0.8708(4) 0.01979(14)
O4 O 0.0722(3) 0.7683(4) -0.02134(14)
C1 C 0.0541(4) 0.4528(6) 0.08284(19)
C2 C 0.0333(5) 0.5609(7) 0.0970(2)
H1 H 0.0196 0.5635 0.1219
C3 C 0.0329(4) 0.6672(7) 0.0740(2)
H2 H 0.0159 0.7393 0.0829
C4 C 0.0570(3) 0.6661(6) 0.0387(2)
C5 C 0.0808(4) 0.5570(7) 0.0254(2)
H3 H 0.0984 0.5556 0.0017
C6 C 0.0783(4) 0.4511(6) 0.0471(2)
H4 H 0.0931 0.3781 0.0376
C7 C 0.0473(4) 0.3337(6) 0.1044(2)
C8 C 0.0511(3) 0.7751(6) 0.0111(2)
O5 O 0.0960(3) 0.0737(5) 0.16113(15)
O6 O 0.0791(3) -0.0522(5) 0.10800(14)
O7 O 0.3811(3) -0.2800(5) 0.26413(15)
O8 O 0.4014(3) -0.3230(5) 0.20280(16)
C9 C 0.1715(3) -0.0973(6) 0.16647(19)
C10 C 0.1983(4) -0.1912(7) 0.1463(2)
H5 H 0.1743 -0.2140 0.1200
C11 C 0.2603(4) -0.2503(6) 0.1654(2)
H6 H 0.2794 -0.3101 0.1514
C12 C 0.2940(4) -0.2215(6) 0.2051(2)
C13 C 0.2651(4) -0.1320(7) 0.2260(2)
H7 H 0.2868 -0.1141 0.2532
C14 C 0.2045(4) -0.0701(7) 0.2065(2)
H8 H 0.1857 -0.0096 0.2204
C15 C 0.1099(3) -0.0200(6) 0.14394(19)
C16 C 0.3639(3) -0.2797(6) 0.2257(2)
O9 O -0.0037(4) 0.3734(5) 0.21641(17)
O10 O 0.0180(3) 1.0002(4) 0.22042(18)
C17 C 0.0000 0.5611(9) 0.2500
C18 C 0.0283(4) 0.6235(6) 0.2217(2)
H9 H 0.0470 0.5810 0.2024
C19 C 0.0290(4) 0.7501(7) 0.2218(3)
H10 H 0.0489 0.7923 0.2031
C20 C -0.0000 0.8127(9) 0.2500
C21 C -0.0000 0.4246(9) 0.2500
C22 C 0.0000 0.9491(9) 0.2500
O11 O -0.1068(2) -0.0303(5) 0.02806(14)
O12 O -0.1161(2) -0.0789(5) -0.03776(14)
C23 C -0.1951(3) -0.1712(7) -0.0023(2)
C24 C -0.2247(4) -0.1689(7) 0.0320(2)
H11 H -0.2077 -0.1147 0.0534
C25 C -0.2204(3) -0.2514(7) -0.0338(2)
H12 H -0.2004 -0.2520 -0.0566
C26 C -0.1344(3) -0.0870(6) -0.0040(2)
O9A O 0.0037(4) 0.3734(5) 0.28359(17)
O10A O -0.0180(3) 1.0002(4) 0.27958(18)
C18A C -0.0283(4) 0.6235(6) 0.2783(2)
H9A H -0.0470 0.5810 0.2976
C19A C -0.0290(4) 0.7501(7) 0.2782(3)
H10A H -0.0489 0.7923 0.2969
O11F O -0.3932(2) -0.4697(5) -0.02806(14)
O12F O -0.3839(2) -0.4211(5) 0.03776(14)
C23F C -0.3049(3) -0.3288(7) 0.0023(2)
C24F C -0.2753(4) -0.3311(7) -0.0320(2)
H11F H -0.2923 -0.3853 -0.0534
C25F C -0.2796(3) -0.2486(7) 0.0338(2)
H12F H -0.2996 -0.2480 0.0566
C26F C -0.3656(3) -0.4130(6) 0.0040(2)
Eu1A Eu -0.013013(17) 0.18479(3) 0.313318(9)
Eu2A Eu -0.003489(16) 0.05911(3) 0.444236(9)
Cl1A Cl 0.07806(8) 0.08659(17) 0.38472(5)
O1A O -0.0318(3) 0.3367(4) 0.36099(15)
O2A O -0.0563(3) 0.2376(4) 0.41409(15)
O3A O -0.0188(2) 0.8708(4) 0.48021(14)
O4A O -0.0722(3) 0.7683(4) 0.52134(14)
C1A C -0.0541(4) 0.4528(6) 0.41716(19)
C2A C -0.0333(5) 0.5609(7) 0.4030(2)
H1A H -0.0196 0.5635 0.3781
C3A C -0.0329(4) 0.6672(7) 0.4260(2)
H2A H -0.0159 0.7393 0.4171
C4A C -0.0570(3) 0.6661(6) 0.4613(2)
C5A C -0.0808(4) 0.5570(7) 0.4746(2)
H3A H -0.0984 0.5556 0.4983
C6A C -0.0783(4) 0.4511(6) 0.4529(2)
H4A H -0.0931 0.3781 0.4624
C7A C -0.0473(4) 0.3337(6) 0.3956(2)
C8A C -0.0511(3) 0.7751(6) 0.4889(2)
O5A O -0.0960(3) 0.0737(5) 0.33887(15)
O6A O -0.0791(3) -0.0522(5) 0.39200(14)
O7A O -0.3811(3) -0.2800(5) 0.23587(15)
O8A O -0.4014(3) -0.3230(5) 0.29720(16)
C9A C -0.1715(3) -0.0973(6) 0.33353(19)
C10A C -0.1983(4) -0.1912(7) 0.3537(2)
H5A H -0.1743 -0.2140 0.3800
C11A C -0.2603(4) -0.2503(6) 0.3346(2)
H6A H -0.2794 -0.3101 0.3486
C12A C -0.2940(4) -0.2215(6) 0.2949(2)
C13A C -0.2651(4) -0.1320(7) 0.2740(2)
H7A H -0.2868 -0.1141 0.2468
C14A C -0.2045(4) -0.0701(7) 0.2935(2)
H8A H -0.1857 -0.0096 0.2796
C15A C -0.1099(3) -0.0200(6) 0.35606(19)
C16A C -0.3639(3) -0.2797(6) 0.2743(2)
Eu1_2 Eu 0.013013(17) 1.18479(3) 0.186682(9)
Eu1A_2 Eu -0.013013(17) 1.18479(3) 0.313318(9)
Eu1B Eu -0.486987(17) -0.31521(3) 0.186682(9)
Eu1B_2 Eu 0.513013(17) -0.31521(3) 0.186682(9)
Eu1C Eu -0.513013(17) -0.31521(3) 0.313318(9)
Eu1C_2 Eu 0.486987(17) -0.31521(3) 0.313318(9)
Eu2_2 Eu 0.003489(16) 1.05911(3) 0.055764(9)
Eu2A_2 Eu -0.003489(16) 1.05911(3) 0.444236(9)
Eu2B Eu -0.496511(16) -0.44089(3) 0.055764(9)
Eu2D Eu -0.003489(16) -0.05911(3) -0.055764(9)
Eu2D_2 Eu -0.003489(16) 0.94089(3) -0.055764(9)
Eu2E Eu 0.003489(16) 0.94089(3) 0.555764(9)
Eu2F Eu -0.503489(16) -0.55911(3) -0.055764(9)
O3_2 O 0.0188(2) -0.1292(4) 0.01979(14)
O3A_2 O -0.0188(2) -0.1292(4) 0.48021(14)
O3D O -0.0188(2) 0.1292(4) -0.01979(14)
O3E O 0.0188(2) 0.1292(4) 0.51979(14)
O4D O -0.0722(3) 0.2317(4) 0.02134(14)
O4E O 0.0722(3) 0.2317(4) 0.47866(14)
O7B O -0.1189(3) 0.2200(5) 0.26413(15)
O7C O 0.1189(3) 0.2200(5) 0.23587(15)
O8B O -0.0986(3) 0.1770(5) 0.20280(16)
O8C O 0.0986(3) 0.1770(5) 0.29720(16)
O10_2 O 0.0180(3) 0.0002(4) 0.22042(18)
O10A_2 O -0.0180(3) 0.0002(4) 0.27958(18)
O11A O 0.1068(2) -0.0303(5) 0.47194(14)
O12D O 0.1161(2) 0.0789(5) 0.03776(14)
O12E O -0.1161(2) 0.0789(5) 0.46224(14)
N1 N -0.2949(4) 0.0828(7) -0.0801(2)
N2 N -0.3093(4) -0.0444(7) -0.1298(2)
C27 C -0.2644(5) -0.0051(8) -0.0969(3)
H13 H -0.2182 -0.0346 -0.0868
C28 C -0.3624(5) 0.1012(10) -0.1038(4)
H14 H -0.3954 0.1584 -0.0991
C29 C -0.3717(5) 0.0229(11) -0.1342(4)
H15 H -0.4129 0.0142 -0.1551
C30 C -0.2615(7) 0.1535(12) -0.0437(4)
H16 H -0.2143 0.1226 -0.0324
H17 H -0.2899 0.1471 -0.0236
H18 H -0.2584 0.2373 -0.0513
C31 C -0.2952(7) -0.1435(10) -0.1564(3)
H19 H -0.2442 -0.1599 -0.1501
H20 H -0.3092 -0.1174 -0.1848
C32 C -0.3345(6) -0.2595(10) -0.1515(3)
H21 H -0.3856 -0.2454 -0.1606
H22 H -0.3246 -0.2808 -0.1225
C33 C -0.3136(7) -0.3655(12) -0.1754(4)
H23 H -0.3461 -0.4328 -0.1747
H24 H -0.3193 -0.3414 -0.2039
C34 C -0.2379(8) -0.4085(14) -0.1591(5)
H25 H -0.2277 -0.4745 -0.1757
H26 H -0.2323 -0.4359 -0.1312
H27 H -0.2053 -0.3427 -0.1598
loop_
_geom_bond_atom_site_label_1
_geom_bond_atom_site_label_2
_geom_bond_site_symmetry_1
_geom_bond_site_symmetry_2
Eu1 Cl1 1_555 1_555
Eu2 Cl1 1_555 1_555
O1 Eu1 1_555 1_555
O2 Eu2 1_555 1_555
O3 C8 1_555 1_555
O4 C8 1_555 1_555
C1 C2 1_555 1_555
C2 H1 1_555 1_555
C3 C2 1_555 1_555
H2 C3 1_555 1_555
C4 C3 1_555 1_555
C5 C4 1_555 1_555
H3 C5 1_555 1_555
C6 C1 1_555 1_555
H4 C6 1_555 1_555
C7 O1 1_555 1_555
C8 C4 1_555 1_555
O5 Eu1 1_555 1_555
O6 Eu2 1_555 1_555
O7 C16 1_555 1_555
O8 C16 1_555 1_555
C9 C10 1_555 1_555
C10 H5 1_555 1_555
C11 C10 1_555 1_555
H6 C11 1_555 1_555
C12 C11 1_555 1_555
C13 C12 1_555 1_555
H7 C13 1_555 1_555
C14 C9 1_555 1_555
H8 C14 1_555 1_555
C15 O5 1_555 1_555
C16 C12 1_555 1_555
O9 Eu1 1_555 1_555
O10 C22 1_555 1_555
C17 C18 1_555 1_555
C18 H9 1_555 1_555
C19 C18 1_555 1_555
H10 C19 1_555 1_555
C20 C19 1_555 1_555
C21 O9 1_555 1_555
C22 C20 1_555 1_555
O11 Eu2 1_555 1_555
O12 C26 1_555 1_555
C23 C24 1_555 1_555
C24 H11 1_555 1_555
C25 C23 1_555 1_555
H12 C25 1_555 1_555
C26 O11 1_555 1_555
N1 C27 1_555 1_555
N2 C27 1_555 1_555
C27 H13 1_555 1_555
C28 N1 1_555 1_555
H14 C28 1_555 1_555
C29 N2 1_555 1_555
H15 C29 1_555 1_555
C30 N1 1_555 1_555
H16 C30 1_555 1_555
H17 C30 1_555 1_555
H18 C30 1_555 1_555
C31 N2 1_555 1_555
H19 C31 1_555 1_555
H20 C31 1_555 1_555
C32 C31 1_555 1_555
H21 C32 1_555 1_555
H22 C32 1_555 1_555
C33 C32 1_555 1_555
H23 C33 1_555 1_555
H24 C33 1_555 1_555
C34 C33 1_555 1_555
H25 C34 1_555 1_555
H26 C34 1_555 1_555
H27 C34 1_555 1_555
O9A C21 1_555 1_555
O10A C22 1_555 1_555
C18A C17 1_555 1_555
H9A C18A 1_555 1_555
C19A C20 1_555 1_555
H10A C19A 1_555 1_555
O11F C26F 1_555 1_555
O12F C26F 1_555 1_555
C23F C24F 1_555 1_555
C24F C25 1_555 1_555
H11F C24F 1_555 1_555
C25F C24 1_555 1_555
H12F C25F 1_555 1_555
C26F C23F 1_555 1_555
Eu1A O9A 1_555 1_555
Eu2A Cl1A 1_555 1_555
Cl1A Eu1A 1_555 1_555
O1A Eu1A 1_555 1_555
O2A Eu2A 1_555 1_555
O3A C8A 1_555 1_555
O4A C8A 1_555 1_555
C1A C2A 1_555 1_555
C2A H1A 1_555 1_555
C3A C2A 1_555 1_555
H2A C3A 1_555 1_555
C4A C3A 1_555 1_555
C5A C4A 1_555 1_555
H3A C5A 1_555 1_555
C6A C1A 1_555 1_555
H4A C6A 1_555 1_555
C7A O1A 1_555 1_555
C8A C4A 1_555 1_555
O5A Eu1A 1_555 1_555
O6A Eu2A 1_555 1_555
O7A C16A 1_555 1_555
O8A C16A 1_555 1_555
C9A C10A 1_555 1_555
C10A H5A 1_555 1_555
C11A C10A 1_555 1_555
H6A C11A 1_555 1_555
C12A C11A 1_555 1_555
C13A C12A 1_555 1_555
H7A C13A 1_555 1_555
C14A C9A 1_555 1_555
H8A C14A 1_555 1_555
C15A O5A 1_555 1_555
C16A C12A 1_555 1_555
Eu1_2 O10 1_555 1_555
Eu1A_2 O10A 1_555 1_555
Eu1B O7A 1_555 1_555
Eu1B_2 O8 1_555 1_555
Eu1C O8A 1_555 1_555
Eu1C_2 O7 1_555 1_555
Eu2_2 O3 1_555 1_555
Eu2A_2 O3A 1_555 1_555
Eu2B O12F 1_555 1_555
Eu2D O12 1_555 1_555
Eu2D_2 O3 1_555 1_555
Eu2E O3A 1_555 1_555
Eu2F O11F 1_555 1_555
O3_2 Eu2 1_555 1_555
O3A_2 Eu2A 1_555 1_555
O3D Eu2 1_555 1_555
O3E Eu2A 1_555 1_555
O4D Eu2 1_555 1_555
O4E Eu2A 1_555 1_555
O7B Eu1A 1_555 1_555
O7C Eu1 1_555 1_555
O8B Eu1 1_555 1_555
O8C Eu1A 1_555 1_555
O10_2 Eu1 1_555 1_555
O10A_2 Eu1A 1_555 1_555
O11A Eu2A 1_555 1_555
O12D Eu2 1_555 1_555
O12E Eu2A 1_555 1_555
O2 C7 1_555 1_555
O4 Eu2D_2 1_555 1_555
C1 C7 1_555 1_555
C5 C6 1_555 1_555
O6 C15 1_555 1_555
C9 C15 1_555 1_555
C13 C14 1_555 1_555
C17 C21 1_555 1_555
C23 C26 1_555 1_555
C28 C29 1_555 1_555
C18A C19A 1_555 1_555
C23F C25F 1_555 1_555
O2A C7A 1_555 1_555
O4A Eu2E 1_555 1_555
C1A C7A 1_555 1_555
C5A C6A 1_555 1_555
O6A C15A 1_555 1_555
C9A C15A 1_555 1_555
C13A C14A 1_555 1_555
Eu2D O3_2 1_555 1_555
Eu2D O3D 1_555 1_555

#END
