
#######################################################################
#
#                 Cambridge Crystallographic Data Centre
#                                CCDC 
#
#######################################################################
#
# If this CIF has been generated from an entry in the Cambridge 
# Structural Database, then it will include bibliographic, chemical, 
# crystal, experimental, refinement or atomic coordinate data resulting 
# from the CCDC's data processing and validation procedures.
#
#######################################################################

data_OTIBUQ
_chemical_formula_moiety         '(C48 H29 Al2 N4 O12)n'
_symmetry_cell_setting           orthorhombic
_symmetry_space_group_name_H-M   'C m m m'
_symmetry_Int_Tables_number      65
_space_group_name_Hall           '-C 2 2'
loop_
_symmetry_equiv_pos_site_id
_symmetry_equiv_pos_as_xyz
1 x,y,z
2 -x,-y,z
3 -x,y,-z
4 x,-y,-z
5 1/2+x,1/2+y,z
6 1/2-x,1/2-y,z
7 1/2-x,1/2+y,-z
8 1/2+x,1/2-y,-z
9 -x,-y,-z
10 x,y,-z
11 x,-y,z
12 -x,y,z
13 1/2-x,1/2-y,-z
14 1/2+x,1/2+y,-z
15 1/2+x,1/2-y,z
16 1/2-x,1/2+y,z
_cell_length_a                   31.978(3)
_cell_length_b                   6.5812(4)
_cell_length_c                   16.862(2)
_cell_angle_alpha                90
_cell_angle_beta                 90
_cell_angle_gamma                90
_cell_volume                     3548.67
loop_
_atom_site_label
_atom_site_type_symbol
_atom_site_fract_x
_atom_site_fract_y
_atom_site_fract_z
O3 O 0.000 0.403(16) 0.631(4)
O3A O 0.000 0.597(16) 0.631(4)
Al1 Al 0.7500 0.2500 1
O1 O 0.7795(4) 0.1588(8) 0.9182(7)
O2 O 0.7251(15) 0.000 1
C1 C 0.8062(3) 0.000 0.8675(5)
H1 H 0.6938(15) 0.000 1
C2 C 0.8328(3) 0.000 0.8171(5)
C3 C 0.8479(2) 0.1804(6) 0.7884(5)
C4 C 0.87823(18) 0.1804(6) 0.7309(3)
H2 H 0.8369(2) 0.3120(6) 0.8094(5)
C5 C 0.89338(16) 0.000 0.7022(3)
H3 H 0.88929(18) 0.3120(6) 0.7100(3)
C6 C 0.92369(17) 0.000 0.6447(3)
C7 C 0.9666(3) 0.000 0.6714(3)
C8 C 0.90959(18) 0.000 0.5633(6)
N1 N 1 0.000 0.6255(4)
C9 C 0.9794(2) 0.000 0.7458(9)
N2 N 0.9338(2) 0.000 0.5000
C10 C 0.8704(5) 0.000 0.5391(4)
H4 H 1 0.000 0.5662(4)
H5 H 0.9610(2) 0.000 0.7938(9)
H6 H 0.8451(5) 0.000 0.5740(4)
O1A O 1.2205(4) -0.1588(8) 0.9182(7)
C1A C 1.1938(3) 0.000 0.8675(5)
C2A C 1.1672(3) 0.000 0.8171(5)
C3A C 1.1521(2) -0.1804(6) 0.7884(5)
C4A C 1.12177(18) -0.1804(6) 0.7309(3)
H2A H 1.1631(2) -0.3120(6) 0.8094(5)
C5A C 1.10662(16) 0.000 0.7022(3)
H3A H 1.11071(18) -0.3120(6) 0.7100(3)
C6A C 1.07631(17) 0.000 0.6447(3)
C7A C 1.0334(3) 0.000 0.6714(3)
C8A C 1.09041(18) 0.000 0.5633(6)
C9A C 1.0206(2) 0.000 0.7458(9)
N2A N 1.0662(2) 0.000 0.5000
C10A C 1.1296(5) 0.000 0.5391(4)
H5A H 1.0390(2) 0.000 0.7938(9)
H6A H 1.1549(5) 0.000 0.5740(4)
O1B O 1.2205(4) 0.1588(8) 0.0818(7)
C1B C 1.1938(3) 0.000 0.1325(5)
C2B C 1.1672(3) 0.000 0.1829(5)
C3B C 1.1521(2) 0.1804(6) 0.2116(5)
C4B C 1.12177(18) 0.1804(6) 0.2691(3)
H2B H 1.1631(2) 0.3120(6) 0.1906(5)
C5B C 1.10662(16) 0.000 0.2978(3)
H3B H 1.11071(18) 0.3120(6) 0.2900(3)
C6B C 1.07631(17) 0.000 0.3553(3)
C7B C 1.0334(3) 0.000 0.3286(3)
C8B C 1.09041(18) 0.000 0.4367(6)
N1B N 1 0.000 0.3745(4)
C9B C 1.0206(2) 0.000 0.2542(9)
C10B C 1.1296(5) 0.000 0.4609(4)
H4B H 1 0.000 0.4338(4)
H5B H 1.0390(2) 0.000 0.2062(9)
H6B H 1.1549(5) 0.000 0.4260(4)
O1C O 0.7795(4) -0.1588(8) 0.0818(7)
C1C C 0.8062(3) 0.000 0.1325(5)
C2C C 0.8328(3) 0.000 0.1829(5)
C3C C 0.8479(2) -0.1804(6) 0.2116(5)
C4C C 0.87823(18) -0.1804(6) 0.2691(3)
H2C H 0.8369(2) -0.3120(6) 0.1906(5)
C5C C 0.89338(16) 0.000 0.2978(3)
H3C H 0.88929(18) -0.3120(6) 0.2900(3)
C6C C 0.92369(17) 0.000 0.3553(3)
C7C C 0.9666(3) 0.000 0.3286(3)
C8C C 0.90959(18) 0.000 0.4367(6)
C9C C 0.9794(2) 0.000 0.2542(9)
C10C C 0.8704(5) 0.000 0.4609(4)
H5C H 0.9610(2) 0.000 0.2062(9)
H6C H 0.8451(5) 0.000 0.4260(4)
O1H O 1.2205(4) -0.1588(8) 0.0818(7)
C3H C 1.1521(2) -0.1804(6) 0.2116(5)
C4H C 1.12177(18) -0.1804(6) 0.2691(3)
H2H H 1.1631(2) -0.3120(6) 0.1906(5)
H3H H 1.11071(18) -0.3120(6) 0.2900(3)
O1I O 0.7795(4) 0.1588(8) 0.0818(7)
C3I C 0.8479(2) 0.1804(6) 0.2116(5)
C4I C 0.87823(18) 0.1804(6) 0.2691(3)
H2I H 0.8369(2) 0.3120(6) 0.1906(5)
H3I H 0.88929(18) 0.3120(6) 0.2900(3)
O1J O 0.7795(4) -0.1588(8) 0.9182(7)
C3J C 0.8479(2) -0.1804(6) 0.7884(5)
C4J C 0.87823(18) -0.1804(6) 0.7309(3)
H2J H 0.8369(2) -0.3120(6) 0.8094(5)
H3J H 0.88929(18) -0.3120(6) 0.7100(3)
O1K O 1.2205(4) 0.1588(8) 0.9182(7)
C3K C 1.1521(2) 0.1804(6) 0.7884(5)
C4K C 1.12177(18) 0.1804(6) 0.7309(3)
H2K H 1.1631(2) 0.3120(6) 0.8094(5)
H3K H 1.11071(18) 0.3120(6) 0.7100(3)
Al1A Al 1.2500 -0.2500 1
O2A O 1.2749(15) 0.000 1
H1A H 1.3062(15) 0.000 1
Al1_2 Al 0.7500 0.2500 0
Al1A_2 Al 1.2500 -0.2500 0
Al1B Al 1.2500 0.2500 0
Al1B_2 Al 1.2500 0.2500 1
Al1C Al 0.7500 -0.2500 0
Al1C_2 Al 0.7500 -0.2500 1
O1H_2 O 1.2205(4) -0.1588(8) 1.0818(7)
O1I_2 O 0.7795(4) 0.1588(8) 1.0818(7)
O1D O 1.2795(4) -0.3412(8) 0.9182(7)
O1E O 0.7205(4) 0.3412(8) 0.9182(7)
O1L O 0.7205(4) 0.3412(8) 1.0818(7)
O1M O 1.2795(4) -0.3412(8) 1.0818(7)
O2D O 1.2251(15) -0.500 1
O2E O 0.7749(15) 0.500 1
loop_
_geom_bond_atom_site_label_1
_geom_bond_atom_site_label_2
_geom_bond_site_symmetry_1
_geom_bond_site_symmetry_2
Al1 O1 1_555 1_555
O1 C1 1_555 1_555
O2 Al1 1_555 1_555
C1 C2 1_555 1_555
H1 O2 1_555 1_555
C2 C3 1_555 1_555
C3 C4 1_555 1_555
C4 C5 1_555 1_555
H2 C3 1_555 1_555
C5 C6 1_555 1_555
H3 C4 1_555 1_555
C6 C7 1_555 1_555
C7 N1 1_555 1_555
C8 C6 1_555 1_555
N1 H4 1_555 1_555
C9 C7 1_555 1_555
N2 C8 1_555 1_555
C10 C8 1_555 1_555
H5 C9 1_555 1_555
H6 C10 1_555 1_555
O3 O3A 1_555 1_555
O1A C1A 1_555 1_555
C1A C2A 1_555 1_555
C2A C3A 1_555 1_555
C3A C4A 1_555 1_555
C4A C5A 1_555 1_555
H2A C3A 1_555 1_555
C5A C6A 1_555 1_555
H3A C4A 1_555 1_555
C6A C7A 1_555 1_555
C7A N1 1_555 1_555
C8A C6A 1_555 1_555
C9A C9 1_555 1_555
N2A C8A 1_555 1_555
C10A C8A 1_555 1_555
H5A C9A 1_555 1_555
H6A C10A 1_555 1_555
O1B C1B 1_555 1_555
C1B C2B 1_555 1_555
C2B C3B 1_555 1_555
C3B C4B 1_555 1_555
C4B C5B 1_555 1_555
H2B C3B 1_555 1_555
C5B C6B 1_555 1_555
H3B C4B 1_555 1_555
C6B C7B 1_555 1_555
C7B N1B 1_555 1_555
C8B N2A 1_555 1_555
N1B H4B 1_555 1_555
C9B C7B 1_555 1_555
C10B C10A 1_555 1_555
H5B C9B 1_555 1_555
H6B C10B 1_555 1_555
O1C C1C 1_555 1_555
C1C C2C 1_555 1_555
C2C C3C 1_555 1_555
C3C C4C 1_555 1_555
C4C C5C 1_555 1_555
H2C C3C 1_555 1_555
C5C C6C 1_555 1_555
H3C C4C 1_555 1_555
C6C C7C 1_555 1_555
C7C N1B 1_555 1_555
C8C N2 1_555 1_555
C9C C9B 1_555 1_555
C10C C10 1_555 1_555
H5C C9C 1_555 1_555
H6C C10C 1_555 1_555
O1H C1B 1_555 1_555
C3H C2B 1_555 1_555
C4H C5B 1_555 1_555
H2H C3H 1_555 1_555
H3H C4H 1_555 1_555
O1I C1C 1_555 1_555
C3I C2C 1_555 1_555
C4I C5C 1_555 1_555
H2I C3I 1_555 1_555
H3I C4I 1_555 1_555
O1J C1 1_555 1_555
C3J C2 1_555 1_555
C4J C5 1_555 1_555
H2J C3J 1_555 1_555
H3J C4J 1_555 1_555
O1K C1A 1_555 1_555
C3K C2A 1_555 1_555
C4K C5A 1_555 1_555
H2K C3K 1_555 1_555
H3K C4K 1_555 1_555
Al1A O1A 1_555 1_555
O2A Al1A 1_555 1_555
H1A O2A 1_555 1_555
Al1_2 O1I 1_555 1_555
Al1A_2 O1H 1_555 1_555
Al1B O1B 1_555 1_555
Al1B_2 O1K 1_555 1_555
Al1C O1C 1_555 1_555
Al1C_2 O2 1_555 1_555
O1H_2 Al1A 1_555 1_555
O1I_2 Al1 1_555 1_555
O1D Al1A 1_555 1_555
O1E Al1 1_555 1_555
O1L Al1 1_555 1_555
O1M Al1A 1_555 1_555
O2D Al1A 1_555 1_555
O2E Al1 1_555 1_555
C7A C9A 1_555 1_555
C6B C8B 1_555 1_555
C8B C10B 1_555 1_555
C6C C8C 1_555 1_555
C7C C9C 1_555 1_555
C8C C10C 1_555 1_555
C3H C4H 1_555 1_555
C3I C4I 1_555 1_555
O1J Al1C_2 1_555 1_555
C3J C4J 1_555 1_555
C3K C4K 1_555 1_555
O2A Al1B_2 1_555 1_555

#END
