
#######################################################################
#
#                 Cambridge Crystallographic Data Centre
#                                CCDC 
#
#######################################################################
#
# If this CIF has been generated from an entry in the Cambridge 
# Structural Database, then it will include bibliographic, chemical, 
# crystal, experimental, refinement or atomic coordinate data resulting 
# from the CCDC's data processing and validation procedures.
#
#######################################################################

data_QUTYOU
_chemical_formula_moiety         'C113 H102 O45 S9 Zn9 2+'
_symmetry_cell_setting           trigonal
_symmetry_space_group_name_H-M   'P -3 c 1'
_symmetry_Int_Tables_number      165
_space_group_name_Hall           '-P 3 2"c'
loop_
_symmetry_equiv_pos_site_id
_symmetry_equiv_pos_as_xyz
1 x,y,z
2 -y,x-y,z
3 -x+y,-x,z
4 y,x,1/2-z
5 x-y,-y,1/2-z
6 -x,-x+y,1/2-z
7 -x,-y,-z
8 y,-x+y,-z
9 x-y,x,-z
10 -y,-x,1/2+z
11 -x+y,y,1/2+z
12 x,x-y,1/2+z
_cell_length_a                   33.3586(18)
_cell_length_b                   33.3586(18)
_cell_length_c                   67.839(5)
_cell_angle_alpha                90
_cell_angle_beta                 90
_cell_angle_gamma                120
_cell_volume                     65377.1
loop_
_atom_site_label
_atom_site_type_symbol
_atom_site_fract_x
_atom_site_fract_y
_atom_site_fract_z
_atom_site_U_iso_or_equiv
_atom_site_thermal_displace_type
Zn9 Zn 0.0000 0.0000 0.5000 0.1010 Uani
C98 C 0.0357(11) 0.0903(8) 0.4501(4) 0.2296 Uani
H67 H 0.0157 0.0606 0.4442 0.3440 Uiso
H68 H 0.0310 0.1134 0.4438 0.3440 Uiso
H69 H 0.0674 0.0980 0.4484 0.3440 Uiso
C99 C 0.0619(12) 0.1468(9) 0.4860(4) 0.2296 Uani
H70 H 0.0557 0.1456 0.4998 0.3440 Uiso
H71 H 0.0936 0.1554 0.4839 0.3440 Uiso
H72 H 0.0559 0.1692 0.4798 0.3440 Uiso
O31 O 0.0406(6) 0.0575(4) 0.48261(19) 0.1482 Uani
S5 S 0.02350(28) 0.08840(19) 0.47481(9) 0.1510 Uani
C98B C 0.0546(14) -0.0357(11) 0.4501(4) 0.2296 Uani
C98A C -0.0903(8) -0.0546(14) 0.4501(4) 0.2296 Uani
C98F C -0.0357(11) -0.0903(8) 0.5499(4) 0.2296 Uani
C98H C -0.0546(14) 0.0357(11) 0.5499(4) 0.2296 Uani
C98G C 0.0903(8) 0.0546(14) 0.5499(4) 0.2296 Uani
H67B H 0.0449 -0.0157 0.4442 0.3440 Uiso
H67A H -0.0606 -0.0449 0.4442 0.3440 Uiso
H67F H -0.0157 -0.0606 0.5558 0.3440 Uiso
H67H H -0.0449 0.0157 0.5558 0.3440 Uiso
H67G H 0.0606 0.0449 0.5558 0.3440 Uiso
H68B H 0.0824 -0.0310 0.4438 0.3440 Uiso
H68A H -0.1134 -0.0824 0.4438 0.3440 Uiso
H68F H -0.0310 -0.1134 0.5562 0.3440 Uiso
H68H H -0.0824 0.0310 0.5562 0.3440 Uiso
H68G H 0.1134 0.0824 0.5562 0.3440 Uiso
H69B H 0.0306 -0.0674 0.4484 0.3440 Uiso
H69A H -0.0980 -0.0306 0.4484 0.3440 Uiso
H69F H -0.0674 -0.0980 0.5516 0.3440 Uiso
H69H H -0.0306 0.0674 0.5516 0.3440 Uiso
H69G H 0.0980 0.0306 0.5516 0.3440 Uiso
C99B C 0.0849(15) -0.0619(12) 0.4860(4) 0.2296 Uani
C99A C -0.1468(9) -0.0849(15) 0.4860(4) 0.2296 Uani
C99F C -0.0619(12) -0.1468(9) 0.5140(4) 0.2296 Uani
C99H C -0.0849(15) 0.0619(12) 0.5140(4) 0.2296 Uani
C99G C 0.1468(9) 0.0849(15) 0.5140(4) 0.2296 Uani
H70B H 0.0899 -0.0557 0.4998 0.3440 Uiso
H70A H -0.1456 -0.0899 0.4998 0.3440 Uiso
H70F H -0.0557 -0.1456 0.5002 0.3440 Uiso
H70H H -0.0899 0.0557 0.5002 0.3440 Uiso
H70G H 0.1456 0.0899 0.5002 0.3440 Uiso
H71B H 0.0618 -0.0936 0.4839 0.3440 Uiso
H71A H -0.1554 -0.0618 0.4839 0.3440 Uiso
H71F H -0.0936 -0.1554 0.5161 0.3440 Uiso
H71H H -0.0618 0.0936 0.5161 0.3440 Uiso
H71G H 0.1554 0.0618 0.5161 0.3440 Uiso
H72B H 0.1133 -0.0559 0.4798 0.3440 Uiso
H72A H -0.1692 -0.1133 0.4798 0.3440 Uiso
H72F H -0.0559 -0.1692 0.5202 0.3440 Uiso
H72H H -0.1133 0.0559 0.5202 0.3440 Uiso
H72G H 0.1692 0.1133 0.5202 0.3440 Uiso
O31A O -0.0575(4) -0.0169(7) 0.48261(19) 0.1482 Uani
O31B O 0.0169(7) -0.0406(6) 0.48261(19) 0.1482 Uani
O31F O -0.0406(6) -0.0575(4) 0.51739(19) 0.1482 Uani
O31G O 0.0575(4) 0.0169(7) 0.51739(19) 0.1482 Uani
O31H O -0.0169(7) 0.0406(6) 0.51739(19) 0.1482 Uani
S5B S 0.06490(34) -0.02350(28) 0.47481(9) 0.1510 Uani
S5A S -0.08840(19) -0.06490(34) 0.47481(9) 0.1510 Uani
S5F S -0.02350(28) -0.08840(19) 0.52519(9) 0.1510 Uani
S5H S -0.06490(34) 0.02350(28) 0.52519(9) 0.1510 Uani
S5G S 0.08840(19) 0.06490(34) 0.52519(9) 0.1510 Uani
Zn1 Zn -0.28573(4) -0.11009(6) -0.062767(16) 0.0651 Uani
Zn2 Zn -0.33085(4) -0.16717(6) -0.022590(17) 0.0658 Uani
Zn3 Zn -0.39230(4) -0.16211(6) -0.056875(17) 0.0698 Uani
Zn4 Zn -0.32854(5) -0.07069(7) -0.032107(18) 0.0716 Uani
Zn5 Zn -0.28680(4) -0.11709(6) 0.227439(16) 0.0712 Uani
Zn6 Zn -0.33107(5) -0.17283(8) 0.187359(18) 0.0838 Uani
Zn7 Zn -0.39506(5) -0.16993(9) 0.22122(2) 0.1054 Uani
Zn8 Zn -0.33176(5) -0.07895(8) 0.196485(19) 0.0896 Uani
C1 C -0.3254(4) -0.1089(6) 0.00975(18) 0.0754 Uani
C2 C -0.3290(5) -0.1163(7) 0.15553(18) 0.0852 Uani
C3 C -0.3268(3) -0.1033(4) 0.03142(7) 0.0946 Uani
C4 C -0.3324(3) -0.0670(4) 0.03814(10) 0.1109 Uani
H1 H -0.3367 -0.0484 0.0292 0.1330 Uiso
C5 C -0.3317(4) -0.0586(5) 0.05825(11) 0.1444 Uani
H2 H -0.3355 -0.0344 0.0627 0.1720 Uiso
C6 C -0.3253(4) -0.0865(5) 0.07164(7) 0.1122 Uani
C7 C -0.3197(3) -0.1228(4) 0.06492(10) 0.1013 Uani
C8 C -0.3204(3) -0.1311(4) 0.04481(11) 0.0831 Uani
H3 H -0.3167 -0.1554 0.0403 0.0990 Uiso
C9 C -0.3291(4) -0.0892(6) 0.09384(8) 0.1367 Uani
C10 C -0.3361(4) -0.0619(5) 0.10731(13) 0.1458 Uani
H4 H -0.3407 -0.0382 0.1029 0.1720 Uiso
C11 C -0.3364(4) -0.0703(5) 0.12740(11) 0.1067 Uani
H5 H -0.3411 -0.0520 0.1364 0.1270 Uiso
C12 C -0.3296(3) -0.1059(5) 0.13402(8) 0.0900 Uani
C13 C -0.3225(3) -0.1331(4) 0.12055(12) 0.0958 Uani
H6 H -0.3179 -0.1569 0.1250 0.1150 Uiso
C14 C -0.3223(3) -0.1248(4) 0.10046(11) 0.1298 Uani
C15 C -0.3156(7) -0.1533(9) 0.08203(13) 0.1371 Uani
H7 H -0.2857 -0.1515 0.0822 0.1650 Uiso
H8 H -0.3401 -0.1854 0.0815 0.1650 Uiso
C16 C -0.3508(4) -0.1528(6) -0.09588(15) 0.0749 Uani
C17 C -0.3478(5) -0.1948(7) -0.23982(18) 0.0961 Uani
C18 C -0.3574(4) -0.1632(6) -0.11714(16) 0.0866 Uani
C19 C -0.4054(6) -0.1949(10) -0.1242(2) 0.1842 Uani
H9 H -0.4302 -0.2043 -0.1156 0.2210 Uiso
C20 C -0.4135(4) -0.2106(8) -0.14380(19) 0.1444 Uani
H10 H -0.4424 -0.2347 -0.1476 0.1710 Uiso
C21 C -0.3784(5) -0.1901(8) -0.15709(16) 0.1159 Uani
C22 C -0.3762(5) -0.1939(9) -0.17839(16) 0.1237 Uani
C23 C -0.4144(5) -0.2240(10) -0.1906(2) 0.2074 Uani
H11 H -0.4435 -0.2453 -0.1858 0.2510 Uiso
C24 C -0.4028(6) -0.2176(10) -0.21136(19) 0.1823 Uani
H12 H -0.4263 -0.2283 -0.2207 0.2180 Uiso
C25 C -0.3560(5) -0.1955(8) -0.21748(17) 0.1057 Uani
C26 C -0.3213(5) -0.1707(8) -0.20474(15) 0.1179 Uani
H13 H -0.2911 -0.1533 -0.2094 0.1410 Uiso
C27 C -0.3306(4) -0.1710(6) -0.18442(16) 0.0926 Uani
C28 C -0.2987(4) -0.1437(6) -0.16713(13) 0.1010 Uani
H14 H -0.2748 -0.1518 -0.1651 0.1210 Uiso
H15 H -0.2843 -0.1106 -0.1692 0.1210 Uiso
C29 C -0.3322(4) -0.1592(6) -0.14998(15) 0.0841 Uani
C30 C -0.3217(4) -0.1465(6) -0.13054(15) 0.0816 Uani
H16 H -0.2913 -0.1271 -0.1266 0.0980 Uiso
C31 C -0.4231(5) -0.2460(7) -0.03110(19) 0.0837 Uani
C32 C -0.6808(7) -0.5673(11) -0.0380(3) 0.1422 Uani
C33 C -0.4585(4) -0.2965(6) -0.02910(19) 0.0803 Uani
C34 C -0.4618(5) -0.3213(7) -0.0103(2) 0.1138 Uani
H17 H -0.4406 -0.3061 -0.0002 0.1370 Uiso
C35 C -0.4943(5) -0.3642(8) -0.0081(2) 0.1340 Uani
H18 H -0.4980 -0.3790 0.0039 0.1610 Uiso
C36 C -0.5235(4) -0.3878(8) -0.0237(2) 0.1378 Uani
C37 C -0.5641(6) -0.4373(10) -0.0238(3) 0.1711 Uani
C38 C -0.5789(5) -0.4729(9) -0.0091(3) 0.1527 Uani
H19 H -0.5657 -0.4688 0.0034 0.1820 Uiso
C39 C -0.6138(6) -0.5122(8) -0.0156(2) 0.1309 Uani
H20 H -0.6230 -0.5381 -0.0077 0.1570 Uiso
C40 C -0.6395(4) -0.5190(8) -0.0340(3) 0.1453 Uani
C41 C -0.6234(6) -0.4832(11) -0.0476(3) 0.2031 Uani
H21 H -0.6397 -0.4873 -0.0592 0.2430 Uiso
C42 C -0.5855(5) -0.4435(9) -0.0442(2) 0.1449 Uani
C43 C -0.5610(6) -0.3951(11) -0.0565(3) 0.1951 Uani
H22 H -0.5487 -0.3984 -0.0690 0.2310 Uiso
H23 H -0.5824 -0.3840 -0.0590 0.2310 Uiso
C44 C -0.5207(7) -0.3619(11) -0.0418(3) 0.1991 Uani
C45 C -0.4891(5) -0.3196(9) -0.0444(2) 0.1463 Uani
H24 H -0.4867 -0.3047 -0.0563 0.1730 Uiso
C46 C -0.2560(4) -0.1702(6) -0.0421(2) 0.0783 Uani
C47 C 0.0275(5) -0.1973(6) -0.0481(2) 0.1047 Uani
C48 C -0.2152(5) -0.1807(7) -0.0416(2) 0.0932 Uani
C49 C -0.2127(5) -0.2046(7) -0.0240(2) 0.0892 Uani
H25 H -0.2350 -0.2127 -0.0143 0.1070 Uiso
C50 C -0.1789(4) -0.2153(6) -0.02148(19) 0.0889 Uani
H26 H -0.1786 -0.2323 -0.0107 0.1070 Uiso
C51 C -0.1436(4) -0.1991(6) -0.03613(19) 0.0714 Uani
C52 C -0.1030(4) -0.2038(6) -0.03650(19) 0.0848 Uani
C53 C -0.0842(6) -0.2234(8) -0.0234(2) 0.1209 Uani
H27 H -0.1008 -0.2383 -0.0121 0.1450 Uiso
C54 C -0.0424(5) -0.2210(8) -0.0268(2) 0.1318 Uani
H28 H -0.0307 -0.2335 -0.0177 0.1580 Uiso
C55 C -0.0174(5) -0.1995(6) -0.04413(18) 0.0951 Uani
C56 C -0.0371(4) -0.1834(6) -0.0583(2) 0.0999 Uani
H29 H -0.0228 -0.1725 -0.0704 0.1200 Uiso
C57 C -0.0777(5) -0.1842(6) -0.05403(17) 0.0911 Uani
C58 C -0.1067(5) -0.1680(7) -0.06760(19) 0.1251 Uani
H30 H -0.0891 -0.1353 -0.0708 0.1500 Uiso
H31 H -0.1177 -0.1860 -0.0796 0.1500 Uiso
C59 C -0.1451(5) -0.1788(8) -0.0534(2) 0.1002 Uani
C60 C -0.1819(5) -0.1698(8) -0.05652(19) 0.0972 Uani
H32 H -0.1841 -0.1569 -0.0683 0.1160 Uiso
C61 C -0.4127(8) -0.2609(11) 0.1981(3) 0.1896 Uani
C62 C -0.6836(7) -0.5635(15) 0.2055(3) 0.2363 Uani
C63 C -0.4507(5) -0.3055(7) 0.19837(19) 0.1873 Uani
C64 C -0.4403(4) -0.3308(7) 0.1851(2) 0.1978 Uani
H33 H -0.4134 -0.3160 0.1776 0.2350 Uiso
C65 C -0.4700(5) -0.3782(8) 0.1832(2) 0.2960 Uani
H34 H -0.4631 -0.3952 0.1743 0.3570 Uiso
C66 C -0.5102(5) -0.4003(9) 0.1944(3) 0.1896 Uani
C67 C -0.5206(4) -0.3750(8) 0.2077(2) 0.2531 Uani
C68 C -0.4909(5) -0.3276(7) 0.2096(2) 0.2033 Uani
H35 H -0.4978 -0.3106 0.2185 0.2460 Uiso
C69 C -0.5491(4) -0.4466(9) 0.1979(3) 0.2964 Uani
C70 C -0.5627(5) -0.4859(9) 0.1864(3) 0.2556 Uani
H36 H -0.5426 -0.4864 0.1771 0.3060 Uiso
C71 C -0.6064(5) -0.5244(9) 0.1889(3) 0.2960 Uani
H37 H -0.6155 -0.5507 0.1812 0.3570 Uiso
C72 C -0.6365(4) -0.5238(8) 0.2029(2) 0.2056 Uani
C73 C -0.6229(5) -0.4845(8) 0.2144(2) 0.2101 Uani
H38 H -0.6431 -0.4841 0.2238 0.2520 Uiso
C74 C -0.5793(6) -0.4461(9) 0.2119(3) 0.2509 Uani
C75 C -0.5655(9) -0.4027(16) 0.2224(4) 0.3056 Uani
H39 H -0.5571 -0.4032 0.2361 0.3640 Uiso
H40 H -0.5879 -0.3923 0.2214 0.3640 Uiso
C76 C -0.2470(5) -0.1676(7) 0.20542(19) 0.0926 Uani
C77 C 0.0284(6) -0.2020(9) 0.21108(18) 0.1453 Uani
C78 C -0.2082(5) -0.1749(7) 0.20311(19) 0.0996 Uani
C79 C -0.1941(5) -0.1790(7) 0.18358(18) 0.0971 Uani
H41 H -0.2102 -0.1770 0.1728 0.1160 Uiso
C80 C -0.1576(5) -0.1859(7) 0.18053(16) 0.0864 Uani
H42 H -0.1506 -0.1908 0.1678 0.1040 Uiso
C81 C -0.1295(4) -0.1859(6) 0.19696(13) 0.0709 Uani
C82 C -0.0893(4) -0.1893(6) 0.19754(15) 0.0666 Uani
C83 C -0.0617(4) -0.1918(6) 0.18241(15) 0.0714 Uani
H43 H -0.0679 -0.1893 0.1692 0.0860 Uiso
C84 C -0.0273(4) -0.1976(6) 0.18732(15) 0.0820 Uani
H44 H -0.0103 -0.2011 0.1773 0.0990 Uiso
C85 C -0.0139(4) -0.1989(6) 0.20750(15) 0.0892 Uani
C86 C -0.0379(4) -0.1923(6) 0.22257(17) 0.0729 Uani
H45 H -0.0293 -0.1909 0.2357 0.0880 Uiso
C87 C -0.0763(5) -0.1879(7) 0.21687(15) 0.0800 Uani
C88 C -0.1088(4) -0.1827(6) 0.23129(16) 0.0807 Uani
H46 H -0.0926 -0.1548 0.2392 0.0970 Uiso
H47 H -0.1247 -0.2094 0.2399 0.0970 Uiso
C89 C -0.1430(4) -0.1796(6) 0.21584(15) 0.0694 Uani
C90 C -0.1796(4) -0.1734(6) 0.21927(16) 0.0712 Uani
H48 H -0.1861 -0.1681 0.2320 0.0860 Uiso
C91 C -0.2687(12) 0.0242(19) -0.0717(6) 0.4033 Uani
H49 H -0.2482 0.0244 -0.0817 0.5990 Uiso
H50 H -0.2589 0.0194 -0.0590 0.5990 Uiso
H51 H -0.2682 0.0532 -0.0717 0.5990 Uiso
C92 C -0.3739(9) -0.0425(13) -0.0709(4) 0.2399 Uani
H52 H -0.3914 -0.0679 -0.0797 0.3600 Uiso
H53 H -0.3844 -0.0205 -0.0720 0.3600 Uiso
H54 H -0.3782 -0.0539 -0.0576 0.3600 Uiso
C93 C -0.2526(9) 0.0870(13) -0.0170(4) 0.2399 Uani
H55 H -0.2218 0.0924 -0.0189 0.3600 Uiso
H56 H -0.2526 0.1065 -0.0066 0.3600 Uiso
H57 H -0.2634 0.0938 -0.0290 0.3600 Uiso
C94 C -0.3505(9) 0.0007(13) -0.0053(4) 0.2399 Uani
H58 H -0.3641 -0.0315 -0.0020 0.3600 Uiso
H59 H -0.3655 0.0041 -0.0167 0.3600 Uiso
H60 H -0.3542 0.0169 0.0056 0.3600 Uiso
C95 C -0.2744(9) 0.0390(15) 0.1639(5) 0.3222 Uani
H61 H -0.2574 0.0228 0.1636 0.4810 Uiso
H62 H -0.2571 0.0673 0.1711 0.4810 Uiso
H63 H -0.2794 0.0458 0.1507 0.4810 Uiso
C96 C -0.3369(13) 0.0479(16) 0.1712(5) 0.3222 Uani
H64 H -0.3660 0.0397 0.1772 0.4810 Uiso
H65 H -0.3387 0.0522 0.1573 0.4810 Uiso
H66 H -0.3130 0.0761 0.1769 0.4810 Uiso
O1 O -0.3337(2) -0.1281(4) -0.04278(9) 0.0691 Uani
O2 O -0.3360(2) -0.1348(4) 0.20801(9) 0.0787 Uani
O3 O -0.3264(3) -0.0797(4) -0.00168(11) 0.0819 Uani
O4 O -0.3224(3) -0.1441(4) 0.00469(10) 0.0858 Uani
O5 O -0.3295(4) -0.0862(6) 0.16690(13) 0.1142 Uani
O6 O -0.3293(3) -0.1519(4) 0.16008(12) 0.0947 Uani
O7 O -0.3867(3) -0.2268(4) -0.01985(14) 0.0948 Uani
O8 O -0.4252(4) -0.2272(6) -0.04706(14) 0.1248 Uani
O9 O -0.4339(4) -0.1409(6) -0.05423(15) 0.1423 Uani
O10 O -0.3989(4) -0.0927(6) -0.02852(16) 0.1366 Uani
O11 O -0.2809(3) -0.1791(4) -0.02726(12) 0.0829 Uani
O12 O -0.2565(3) -0.1498(4) -0.05773(13) 0.0872 Uani
O13 O -0.2297(3) -0.0492(4) -0.06344(12) 0.0938 Uani
O14 O -0.2518(4) -0.0410(6) -0.03421(16) 0.1527 Uani
O15 O -0.3103(3) -0.1294(4) -0.09015(10) 0.0826 Uani
O16 O -0.3864(3) -0.1693(4) -0.08478(11) 0.0893 Uani
O17 O -0.3075(3) -0.1340(4) 0.25465(10) 0.0872 Uani
O18 O -0.3830(3) -0.1653(5) 0.24922(13) 0.1219 Uani
O19 O -0.2540(3) -0.1535(4) 0.22195(12) 0.0901 Uani
O20 O -0.2726(3) -0.1715(4) 0.19068(12) 0.0974 Uani
O21 O -0.2344(3) -0.0520(4) 0.22681(13) 0.0902 Uani
O22 O -0.2589(5) -0.0407(7) 0.19845(18) 0.1996 Uani
O23 O -0.4195(6) -0.2367(9) 0.2123(3) 0.2191 Uani
O24 O -0.3793(4) -0.2374(6) 0.18733(19) 0.1478 Uani
O25 O -0.4372(6) -0.1481(9) 0.2183(2) 0.2200 Uani
O26 O -0.3985(7) -0.0956(11) 0.1960(3) 0.2562 Uani
O27 O -0.3256(4) -0.0597(6) -0.06377(13) 0.1271 Uani
O28 O -0.3127(5) -0.0062(6) -0.02821(14) 0.1500 Uani
O29 O -0.3230(11) -0.0153(14) 0.1938(4) 0.3233 Uani
S1 S -0.3232(3) -0.0193(4) -0.07626(11) 0.2053 Uani
S2 S -0.2930(3) 0.0232(4) -0.01007(12) 0.2030 Uani
S3 S -0.3249(6) 0.0063(8) 0.1748(2) 0.3372 Uani
C17K C -0.3478(5) -0.1530(9) 0.26018(18) 0.0961 Uani
C32A C -0.4327(11) -0.1135(13) -0.0380(3) 0.1422 Uani
C47B C -0.2248(8) -0.0275(5) -0.0481(2) 0.1047 Uani
C62A C -0.4365(15) -0.1201(17) 0.2055(3) 0.2363 Uani
C77B C -0.2304(11) -0.0284(6) 0.21108(18) 0.1453 Uani
O9B O -0.7070(7) -0.5661(4) -0.05423(15) 0.1423 Uani
O10B O -0.6938(7) -0.6011(4) -0.02852(16) 0.1366 Uani
O13A O 0.0492(4) -0.1805(5) -0.06344(12) 0.0938 Uani
O14A O 0.0410(6) -0.2108(7) -0.03421(16) 0.1527 Uani
O17K O -0.3075(3) -0.1735(5) -0.24535(10) 0.0872 Uani
O18K O -0.3830(3) -0.2177(6) -0.25078(13) 0.1219 Uani
O21A O 0.0520(4) -0.1824(5) 0.22681(13) 0.0902 Uani
O22A O 0.0407(7) -0.2182(9) 0.19845(18) 0.1996 Uani
O25B O -0.7109(11) -0.5628(6) 0.2183(2) 0.2200 Uani
O26B O -0.6971(13) -0.6015(7) 0.1960(3) 0.2562 Uani
loop_
_atom_site_aniso_label
_atom_site_aniso_U_11
_atom_site_aniso_U_22
_atom_site_aniso_U_33
_atom_site_aniso_U_23
_atom_site_aniso_U_13
_atom_site_aniso_U_12
Zn9 0.0730(15) 0.0730(15) 0.157(4) 0.000 0.000 0.0365(7)
C98 0.274 0.22 0.25 -0.006 0.034 0.165
C99 0.274 0.22 0.25 -0.006 0.034 0.165
O31 0.108 0.134 0.226 0.006 -0.003 0.078
S5 0.159 0.125 0.169 0.002 0.003 0.071
C98B 0.164 0.274 0.25 -0.034 -0.04 0.109
C98A 0.22 0.164 0.25 0.04 0.006 0.055
C98F 0.274 0.22 0.25 -0.006 0.034 0.165
C98H 0.164 0.274 0.25 -0.034 -0.04 0.109
C98G 0.22(2) 0.164(15) 0.25(2) 0.040(14) 0.006(15) 0.055(14)
C99B 0.164 0.274 0.25 -0.034 -0.04 0.109
C99A 0.22 0.164 0.25 0.04 0.006 0.055
C99F 0.274 0.22 0.25 -0.006 0.034 0.165
C99H 0.164 0.274 0.25 -0.034 -0.04 0.109
C99G 0.22(2) 0.164(15) 0.25(2) 0.040(14) 0.006(15) 0.055(14)
O31A 0.134 0.086 0.226 -0.009 -0.006 0.056
O31B 0.086 0.108 0.226 0.003 0.009 0.03
O31F 0.108 0.134 0.226 0.006 -0.003 0.078
O31G 0.134(9) 0.086(7) 0.226(13) -0.009(8) -0.006(9) 0.056(7)
O31H 0.086 0.108 0.226 0.003 0.009 0.03
S5B 0.142 0.159 0.169 -0.003 -0.001 0.088
S5A 0.125 0.142 0.169 0.001 -0.002 0.054
S5F 0.159 0.125 0.169 0.002 0.003 0.071
S5H 0.142 0.159 0.169 -0.003 -0.001 0.088
S5G 0.125(4) 0.142(5) 0.169(5) 0.001(4) -0.002(4) 0.054(4)
Zn1 0.0528 0.0807 0.0469 -0.006 0.0006 0.0223
Zn2 0.0508 0.0805 0.0537 -0.0032 -0.0035 0.0236
Zn3 0.0515 0.0947 0.0542 -0.0047 0.0002 0.0297
Zn4 0.0738 0.0835 0.054 -0.0031 -0.0013 0.0367
Zn5 0.0618 0.0981 0.0466 0.003 -0.0065 0.0346
Zn6 0.0692 0.1155 0.052 -0.0016 -0.007 0.0351
Zn7 0.0757 0.1523 0.0624 0.0049 -0.0003 0.0377
Zn8 0.0838 0.1261 0.0566 0.0046 -0.002 0.0508
C1 0.071 0.073 0.085 -0.019 -0.026 0.038
C2 0.092 0.119 0.053 0.016 -0.002 0.059
C3 0.114 0.11 0.037 -0.026 -0.015 0.039
C4 0.109 0.146 0.058 0.02 0.016 0.049
C5 0.27 0.089 0.052 0.006 0.026 0.073
C6 0.158 0.095 0.066 0.035 -0.006 0.05
C7 0.12 0.11 0.052 -0.024 -0.006 0.041
C8 0.08 0.1 0.044 -0.004 -0.008 0.026
C9 0.158 0.178 0.026 0 0.003 0.048
C10 0.24 0.177 0.048 -0.013 -0.033 0.125
C11 0.14 0.134 0.064 -0.013 -0.018 0.082
C12 0.086 0.116 0.042 -0.021 -0.007 0.031
C13 0.093 0.138 0.034 0.025 0 0.041
C14 0.068 0.126 0.156 0.06 -0.025 0.019
C15 0.216 0.223 0.014 -0.015 -0.015 0.141
C16 0.066 0.075 0.054 -0.005 -0.02 0.013
C17 0.069 0.127 0.067 -0.014 -0.006 0.03
C18 0.069 0.108 0.057 -0.024 -0.025 0.025
C19 0.088 0.36 0.074 -0.029 0.004 0.089
C20 0.053 0.213 0.076 -0.041 -0.016 -0.002
C21 0.124 0.156 0.049 0.009 0.031 0.056
C22 0.069 0.188 0.047 0 -0.011 0.014
C23 0.076 0.366 0.061 -0.057 -0.001 0.021
C24 0.099 0.321 0.047 -0.05 -0.018 0.045
C25 0.106 0.124 0.061 -0.01 0.017 0.038
C26 0.085 0.145 0.039 -0.027 -0.004 -0.006
C27 0.063 0.108 0.051 -0.018 -0.014 0.001
C28 0.057 0.175 0.035 0.014 0.027 0.031
C29 0.063 0.108 0.043 -0.013 -0.001 0.014
C30 0.08 0.089 0.058 -0.005 -0.001 0.029
C31 0.089 0.084 0.071 0.033 0.024 0.038
C32 0.138 0.108 0.136 0.013 0.003 0.028
C33 0.062 0.06 0.105 0.008 -0.012 0.02
C34 0.082 0.133 0.104 0.026 -0.011 0.037
C35 0.083 0.081 0.146 0.052 -0.025 -0.028
C36 0.056 0.118 0.124 0.036 -0.052 -0.043
C37 0.106 0.148 0.184 0.02 -0.075 0.007
C38 0.089 0.069 0.186 0.068 -0.019 -0.046
C39 0.114 0.097 0.142 0.057 -0.04 0.023
C40 0.047 0.092 0.196 0.087 -0.03 -0.041
C41 0.09 0.154 0.22 0.078 -0.062 -0.048
C42 0.091 0.129 0.128 0.02 -0.068 -0.01
C43 0.153 0.103 0.168 0.045 -0.066 -0.057
C44 0.179 0.149 0.132 0.068 -0.086 -0.021
C45 0.066 0.096 0.151 0.011 -0.05 -0.054
C46 0.068 0.055 0.103 -0.026 -0.014 0.024
C47 0.096 0.193 0.09 0.029 0.001 0.121
C48 0.101 0.083 0.089 -0.015 -0.041 0.041
C49 0.083 0.055 0.109 -0.018 0.006 0.019
C50 0.055 0.115 0.108 0.025 0.02 0.051
C51 0.046 0.072 0.101 0.007 0.02 0.033
C52 0.066 0.087 0.093 0.026 0.017 0.032
C53 0.109 0.098 0.12 0.049 0.031 0.025
C54 0.098 0.2 0.11 0.063 0.033 0.084
C55 0.128 0.142 0.076 0.023 -0.001 0.113
C56 0.059 0.156 0.097 0.014 0.014 0.063
C57 0.11 0.123 0.064 0.006 0.016 0.076
C58 0.097 0.241 0.094 -0.014 0.018 0.127
C59 0.093 0.107 0.094 -0.007 -0.025 0.045
C60 0.089 0.108 0.069 0.007 0.011 0.03
C61 0.158 0.18 0.15 -0.044 0.014 0.024
C62 0.162 0.212 0.133 -0.031 0.079 -0.058
C63 0.124 0.164 0.17 -0.077 -0.022 -0.006
C64 0.16 0.12 0.22 -0.009 0.051 0
C65 0.166 0.176 0.32 -0.119 0.091 -0.084
C66 0.158 0.18 0.15 -0.044 0.014 0.024
C67 0.16 0.27 0.146 -0.045 0.075 -0.03
C68 0.103 0.247 0.23 -0.009 0.071 0.065
C69 0.122 0.242 0.34 -0.15 0.11 -0.048
C70 0.15 0.17 0.26 -0.081 0.089 -0.06
C71 0.166 0.176 0.32 -0.119 0.091 -0.084
C72 0.12 0.14 0.21 -0.035 0.046 -0.045
C73 0.19 0.17 0.137 -0.029 0.042 -0.01
C74 0.177 0.167 0.25 -0.088 0.032 -0.033
C75 0.22 0.15 0.33 -0.1 0.12 -0.07
C76 0.127 0.118 0.059 -0.005 -0.012 0.081
C77 0.129 0.289 0.024 -0.007 0.011 0.109
C78 0.108 0.123 0.084 -0.034 -0.005 0.07
C79 0.1 0.125 0.066 0.013 0.001 0.056
C80 0.104 0.112 0.054 -0.007 0.013 0.062
C81 0.101 0.096 0.03 -0.017 -0.019 0.06
C82 0.077 0.06 0.053 0.017 -0.014 0.027
C83 0.077 0.131 0.041 0.009 -0.01 0.078
C84 0.095 0.101 0.046 0 0.005 0.046
C85 0.074 0.175 0.041 -0.007 -0.008 0.079
C86 0.074 0.078 0.064 -0.001 0.002 0.036
C87 0.103 0.085 0.044 -0.019 -0.018 0.041
C88 0.056 0.109 0.07 -0.014 0.01 0.036
C89 0.055 0.09 0.055 0 -0.015 0.03
C90 0.099 0.074 0.059 -0.017 -0.027 0.057
C91 0.27 0.35 0.45 -0.12 -0.12 0.05
C92 0.226 0.314 0.205 0.006 0.068 0.154
C93 0.226 0.314 0.205 0.006 0.068 0.154
C94 0.226 0.314 0.205 0.006 0.068 0.154
C95 0.36 0.39 0.26 -0.022 0.006 0.22
C96 0.36 0.39 0.26 -0.022 0.006 0.22
O1 0.063 0.089 0.046 -0.009 0 0.031
O2 0.068 0.106 0.048 0.011 0.003 0.033
O3 0.089 0.078 0.067 -0.006 -0.007 0.033
O4 0.105 0.116 0.048 0.003 -0.003 0.064
O5 0.128 0.137 0.068 -0.013 -0.009 0.059
O6 0.093 0.112 0.08 0 -0.004 0.052
O7 0.075 0.078 0.115 0.008 -0.016 0.026
O8 0.116 0.097 0.101 0.004 -0.026 0.008
O9 0.124 0.198 0.099 -0.041 -0.034 0.076
O10 0.104 0.206 0.123 -0.054 -0.02 0.095
O11 0.081 0.103 0.082 0.009 0.022 0.059
O12 0.083 0.105 0.083 0.009 0.016 0.054
O13 0.086 0.086 0.076 -0.015 -0.005 0.018
O14 0.09 0.153 0.118 -0.041 -0.001 -0.012
O15 0.082 0.107 0.061 -0.014 0.002 0.049
O16 0.071 0.098 0.076 -0.001 0.011 0.025
O17 0.092 0.105 0.055 0.008 -0.002 0.042
O18 0.095 0.179 0.083 -0.006 -0.005 0.062
O19 0.086 0.111 0.073 -0.005 -0.019 0.049
O20 0.074 0.136 0.071 -0.013 -0.002 0.044
O21 0.076 0.081 0.088 -0.008 0.009 0.02
O22 0.178 0.194 0.096 0.027 -0.001 -0.005
O23 0.21 0.142 0.236 -0.001 0.073 0.036
O24 0.14 0.101 0.146 -0.017 -0.014 0.018
O25 0.219 0.37 0.144 0.074 0.027 0.202
O26 0.188 0.44 0.198 0.106 0.026 0.2
O27 0.201 0.123 0.076 0.024 0.008 0.095
O28 0.248 0.126 0.086 -0.05 -0.052 0.101
O29 0.48 0.28 0.29 0.028 -0.01 0.25
S1 0.195 0.222 0.176 0.023 -0.008 0.087
S2 0.228 0.174 0.213 0.015 -0.024 0.105
S3 0.404 0.41 0.297 0.087 0.048 0.278
C17K 0.069 0.136 0.067 0.008 -0.006 0.039
C32A 0.108 0.19 0.136 -0.01 -0.013 0.08
C47B 0.047 0.096 0.09 -0.001 0.028 -0.025
C62A 0.212 0.49 0.133 0.11 0.031 0.27
C77B 0.2 0.129 0.024 -0.011 -0.018 0.02
O9B 0.17 0.124 0.099 0.034 -0.007 0.048
O10B 0.12 0.104 0.123 0.02 -0.034 0.009
O13A 0.086 0.136 0.076 0.01 0.015 0.068
O14A 0.153 0.267 0.118 0.04 0.041 0.165
O17K 0.092 0.113 0.055 -0.01 -0.002 0.05
O18K 0.095 0.15 0.083 0.001 -0.005 0.033
O21A 0.081 0.117 0.088 0.017 0.008 0.061
O22A 0.194 0.382 0.096 -0.028 -0.027 0.199
O25B 0.185 0.219 0.144 -0.027 0.047 0.017
O26B 0.228 0.188 0.198 -0.026 0.08 -0.012
loop_
_geom_bond_atom_site_label_1
_geom_bond_atom_site_label_2
_geom_bond_site_symmetry_1
_geom_bond_site_symmetry_2
Zn1 O1 1_555 1_555
Zn2 O1 1_555 1_555
Zn3 O1 1_555 1_555
Zn4 O1 1_555 1_555
Zn5 O2 1_555 1_555
Zn6 O2 1_555 1_555
Zn7 O2 1_555 1_555
Zn8 O2 1_555 1_555
C1 C3 1_555 1_555
C2 C12 1_555 1_555
C3 C4 1_555 1_555
C4 H1 1_555 1_555
C5 C4 1_555 1_555
H2 C5 1_555 1_555
C6 C5 1_555 1_555
C7 C6 1_555 1_555
C8 C3 1_555 1_555
H3 C8 1_555 1_555
C9 C6 1_555 1_555
C10 C9 1_555 1_555
H4 C10 1_555 1_555
C11 C10 1_555 1_555
H5 C11 1_555 1_555
C12 C11 1_555 1_555
C13 C12 1_555 1_555
H6 C13 1_555 1_555
C14 C9 1_555 1_555
C15 C7 1_555 1_555
H7 C15 1_555 1_555
H8 C15 1_555 1_555
C16 C18 1_555 1_555
C17 C25 1_555 1_555
C18 C19 1_555 1_555
C19 H9 1_555 1_555
C20 C19 1_555 1_555
H10 C20 1_555 1_555
C21 C20 1_555 1_555
C22 C21 1_555 1_555
C23 C22 1_555 1_555
H11 C23 1_555 1_555
C24 C23 1_555 1_555
H12 C24 1_555 1_555
C25 C24 1_555 1_555
C26 C25 1_555 1_555
H13 C26 1_555 1_555
C27 C22 1_555 1_555
C28 C27 1_555 1_555
H14 C28 1_555 1_555
H15 C28 1_555 1_555
C29 C21 1_555 1_555
C30 C18 1_555 1_555
H16 C30 1_555 1_555
C31 C33 1_555 1_555
C32 C40 1_555 1_555
C33 C34 1_555 1_555
C34 H17 1_555 1_555
C35 C34 1_555 1_555
H18 C35 1_555 1_555
C36 C35 1_555 1_555
C37 C36 1_555 1_555
C38 C37 1_555 1_555
H19 C38 1_555 1_555
C39 C38 1_555 1_555
H20 C39 1_555 1_555
C40 C39 1_555 1_555
C41 C40 1_555 1_555
H21 C41 1_555 1_555
C42 C37 1_555 1_555
C43 C42 1_555 1_555
H22 C43 1_555 1_555
H23 C43 1_555 1_555
C44 C36 1_555 1_555
C45 C33 1_555 1_555
H24 C45 1_555 1_555
C46 C48 1_555 1_555
C47 C55 1_555 1_555
C48 C49 1_555 1_555
C49 H25 1_555 1_555
C50 C49 1_555 1_555
H26 C50 1_555 1_555
C51 C50 1_555 1_555
C52 C51 1_555 1_555
C53 C52 1_555 1_555
H27 C53 1_555 1_555
C54 C53 1_555 1_555
H28 C54 1_555 1_555
C55 C54 1_555 1_555
C56 C55 1_555 1_555
H29 C56 1_555 1_555
C57 C52 1_555 1_555
C58 C57 1_555 1_555
H30 C58 1_555 1_555
H31 C58 1_555 1_555
C59 C51 1_555 1_555
C60 C48 1_555 1_555
H32 C60 1_555 1_555
C61 C63 1_555 1_555
C62 C72 1_555 1_555
C63 C64 1_555 1_555
C64 H33 1_555 1_555
C65 C64 1_555 1_555
H34 C65 1_555 1_555
C66 C65 1_555 1_555
C67 C66 1_555 1_555
C68 C63 1_555 1_555
H35 C68 1_555 1_555
C69 C66 1_555 1_555
C70 C69 1_555 1_555
H36 C70 1_555 1_555
C71 C70 1_555 1_555
H37 C71 1_555 1_555
C72 C71 1_555 1_555
C73 C72 1_555 1_555
H38 C73 1_555 1_555
C74 C69 1_555 1_555
C75 C67 1_555 1_555
H39 C75 1_555 1_555
H40 C75 1_555 1_555
C76 C78 1_555 1_555
C77 C85 1_555 1_555
C78 C79 1_555 1_555
C79 H41 1_555 1_555
C80 C79 1_555 1_555
H42 C80 1_555 1_555
C81 C80 1_555 1_555
C82 C81 1_555 1_555
C83 C82 1_555 1_555
H43 C83 1_555 1_555
C84 C83 1_555 1_555
H44 C84 1_555 1_555
C85 C84 1_555 1_555
C86 C85 1_555 1_555
H45 C86 1_555 1_555
C87 C82 1_555 1_555
C88 C87 1_555 1_555
H46 C88 1_555 1_555
H47 C88 1_555 1_555
C89 C81 1_555 1_555
C90 C78 1_555 1_555
H48 C90 1_555 1_555
C91 H49 1_555 1_555
H50 C91 1_555 1_555
H51 C91 1_555 1_555
C92 H52 1_555 1_555
H53 C92 1_555 1_555
H54 C92 1_555 1_555
C93 H55 1_555 1_555
H56 C93 1_555 1_555
H57 C93 1_555 1_555
C94 H58 1_555 1_555
H59 C94 1_555 1_555
H60 C94 1_555 1_555
C95 H61 1_555 1_555
H62 C95 1_555 1_555
H63 C95 1_555 1_555
C96 H64 1_555 1_555
H65 C96 1_555 1_555
H66 C96 1_555 1_555
O3 Zn4 1_555 1_555
O4 Zn2 1_555 1_555
O5 Zn8 1_555 1_555
O6 Zn6 1_555 1_555
O7 Zn2 1_555 1_555
O8 Zn3 1_555 1_555
O9 Zn3 1_555 1_555
O10 Zn4 1_555 1_555
O11 Zn2 1_555 1_555
O12 Zn1 1_555 1_555
O13 Zn1 1_555 1_555
O14 Zn4 1_555 1_555
O15 Zn1 1_555 1_555
O16 Zn3 1_555 1_555
O17 Zn5 1_555 1_555
O18 Zn7 1_555 1_555
O19 Zn5 1_555 1_555
O20 Zn6 1_555 1_555
O21 Zn5 1_555 1_555
O22 Zn8 1_555 1_555
O23 Zn7 1_555 1_555
O24 Zn6 1_555 1_555
O25 Zn7 1_555 1_555
O26 Zn8 1_555 1_555
O27 Zn4 1_555 1_555
O28 Zn4 1_555 1_555
O29 Zn8 1_555 1_555
S1 C91 1_555 1_555
S2 C93 1_555 1_555
S3 C95 1_555 1_555
Zn9 O31 1_555 1_555
C98 H67 1_555 1_555
H68 C98 1_555 1_555
H69 C98 1_555 1_555
C99 H70 1_555 1_555
H71 C99 1_555 1_555
H72 C99 1_555 1_555
O31 S5 1_555 1_555
S5 C98 1_555 1_555
C17K O17 1_555 1_555
C32A O9 1_555 1_555
C47B O13 1_555 1_555
C62A O25 1_555 1_555
C77B O21 1_555 1_555
O9B C32 1_555 1_555
O10B C32 1_555 1_555
O13A C47 1_555 1_555
O14A C47 1_555 1_555
O17K C17 1_555 1_555
O18K C17 1_555 1_555
O21A C77 1_555 1_555
O22A C77 1_555 1_555
O25B C62 1_555 1_555
O26B C62 1_555 1_555
C98B H67B 1_555 1_555
C98A H67A 1_555 1_555
C98F H67F 1_555 1_555
C98H H67H 1_555 1_555
C98G H67G 1_555 1_555
H68B C98B 1_555 1_555
H68A C98A 1_555 1_555
H68F C98F 1_555 1_555
H68H C98H 1_555 1_555
H68G C98G 1_555 1_555
H69B C98B 1_555 1_555
H69A C98A 1_555 1_555
H69F C98F 1_555 1_555
H69H C98H 1_555 1_555
H69G C98G 1_555 1_555
C99B H70B 1_555 1_555
C99A H70A 1_555 1_555
C99F H70F 1_555 1_555
C99H H70H 1_555 1_555
C99G H70G 1_555 1_555
H71B C99B 1_555 1_555
H71A C99A 1_555 1_555
H71F C99F 1_555 1_555
H71H C99H 1_555 1_555
H71G C99G 1_555 1_555
H72B C99B 1_555 1_555
H72A C99A 1_555 1_555
H72F C99F 1_555 1_555
H72H C99H 1_555 1_555
H72G C99G 1_555 1_555
O31A Zn9 1_555 1_555
O31B Zn9 1_555 1_555
O31F Zn9 1_555 1_555
O31G Zn9 1_555 1_555
O31H Zn9 1_555 1_555
S5B C98B 1_555 1_555
S5A C98A 1_555 1_555
S5F C98F 1_555 1_555
S5H C98H 1_555 1_555
S5G C98G 1_555 1_555
C1 O3 1_555 1_555
C1 O4 1_555 1_555
C2 O5 1_555 1_555
C2 O6 1_555 1_555
C7 C8 1_555 1_555
C13 C14 1_555 1_555
C14 C15 1_555 1_555
C16 O15 1_555 1_555
C16 O16 1_555 1_555
C26 C27 1_555 1_555
C28 C29 1_555 1_555
C29 C30 1_555 1_555
C31 O7 1_555 1_555
C31 O8 1_555 1_555
C41 C42 1_555 1_555
C43 C44 1_555 1_555
C44 C45 1_555 1_555
C46 O11 1_555 1_555
C46 O12 1_555 1_555
C56 C57 1_555 1_555
C58 C59 1_555 1_555
C59 C60 1_555 1_555
C61 O23 1_555 1_555
C61 O24 1_555 1_555
C67 C68 1_555 1_555
C73 C74 1_555 1_555
C74 C75 1_555 1_555
C76 O19 1_555 1_555
C76 O20 1_555 1_555
C86 C87 1_555 1_555
C88 C89 1_555 1_555
C89 C90 1_555 1_555
C92 S1 1_555 1_555
C94 S2 1_555 1_555
C96 S3 1_555 1_555
O10 C32A 1_555 1_555
O14 C47B 1_555 1_555
O18 C17K 1_555 1_555
O22 C77B 1_555 1_555
O26 C62A 1_555 1_555
O27 S1 1_555 1_555
O28 S2 1_555 1_555
O29 S3 1_555 1_555
C99 S5 1_555 1_555
C99B S5B 1_555 1_555
C99A S5A 1_555 1_555
C99F S5F 1_555 1_555
C99H S5H 1_555 1_555
C99G S5G 1_555 1_555
O31A S5A 1_555 1_555
O31B S5B 1_555 1_555
O31F S5F 1_555 1_555
O31G S5G 1_555 1_555
O31H S5H 1_555 1_555

#END
