
#######################################################################
#
#                 Cambridge Crystallographic Data Centre
#                                CCDC 
#
#######################################################################
#
# If this CIF has been generated from an entry in the Cambridge 
# Structural Database, then it will include bibliographic, chemical, 
# crystal, experimental, refinement or atomic coordinate data resulting 
# from the CCDC's data processing and validation procedures.
#
#######################################################################

data_FILGUE
_chemical_formula_moiety         '(C33 H24 N3 Na2 O18 Zn3 1-)n'
_symmetry_cell_setting           trigonal
_symmetry_space_group_name_H-M   'P -3'
_symmetry_Int_Tables_number      147
_space_group_name_Hall           '-P 3'
loop_
_symmetry_equiv_pos_site_id
_symmetry_equiv_pos_as_xyz
1 x,y,z
2 -y,x-y,z
3 -x+y,-x,z
4 -x,-y,-z
5 y,-x+y,-z
6 x-y,x,-z
_cell_length_a                   14.700(2)
_cell_length_b                   14.700(2)
_cell_length_c                   13.252(3)
_cell_angle_alpha                90
_cell_angle_beta                 90
_cell_angle_gamma                120
_cell_volume                     2479.97
loop_
_atom_site_label
_atom_site_type_symbol
_atom_site_fract_x
_atom_site_fract_y
_atom_site_fract_z
C1 C 0.6455(6) 0.1111(7) 0.1086(7)
C2 C 0.6411(4) 0.0859(5) -0.0031(5)
C3 C 0.6252(4) -0.0089(5) -0.0360(4)
H1 H 0.6220 -0.0574 0.0110
C4 C 0.6135(4) -0.0350(4) -0.1370(4)
H2 H 0.6037 -0.0999 -0.1572
C5 C 0.6165(4) 0.0350(4) -0.2082(4)
C6 C 0.6322(5) 0.1322(4) -0.1750(5)
H3 H 0.6335 0.1803 -0.2214
C7 C 0.6241(4) -0.0704(4) -0.3469(4)
H4 H 0.6833 -0.0631 -0.3079
H5 H 0.6467 -0.0549 -0.4167
C8 C 0.6162(4) 0.0909(4) -0.3846(4)
H6 H 0.6412 0.0767 -0.4471
H7 H 0.6716 0.1576 -0.3589
C9 C 0.5370(4) -0.1831(4) -0.3406(4)
C10 C 0.5225(4) 0.1017(4) -0.4077(4)
C11 C 0.6456(5) 0.1565(5) -0.0749(5)
H8 H 0.6582 0.2223 -0.0543
N1 N 0.5978(3) 0.0082(3) -0.3113(3)
O1 O 0.5378(3) 0.1834(3) -0.4483(3)
O2 O 0.4312(3) 0.0246(3) -0.3889(3)
O3 O 0.5643(3) -0.2503(3) -0.3542(3)
O4 O 0.4450(3) -0.2040(2) -0.3221(2)
O5 O 0.6212(4) 0.0436(4) 0.1697(3)
O6 O 0.6759(4) 0.2069(5) 0.1277(4)
Zn1 Zn 0.60035(5) 0.09588(4) 0.30275(4)
Na1 Na 0.6667 0.3333 0.2004(2)
Na2 Na 0.6667 0.3333 -0.5270(2)
C1A C 0.8889(7) 0.5344(9) 0.1086(7)
C2A C 0.9141(5) 0.5552(6) -0.0031(5)
C3A C 1.0089(5) 0.6341(6) -0.0360(4)
H1A H 1.0574 0.6794 0.0110
C4A C 1.0350(4) 0.6485(6) -0.1370(4)
H2A H 1.0999 0.7036 -0.1572
C5A C 0.9650(4) 0.5815(6) -0.2082(4)
C6A C 0.8678(4) 0.5000(6) -0.1750(5)
H3A H 0.8197 0.4532 -0.2214
C7A C 1.0704(4) 0.6945(6) -0.3469(4)
H4A H 1.0631 0.7464 -0.3079
H5A H 1.0549 0.7016 -0.4167
C8A C 0.9091(4) 0.5253(6) -0.3846(4)
H6A H 0.9233 0.5645 -0.4471
H7A H 0.8424 0.5140 -0.3589
C9A C 1.1831(4) 0.7201(6) -0.3406(4)
C10A C 0.8983(4) 0.4208(6) -0.4077(4)
C11A C 0.8435(5) 0.4891(7) -0.0749(5)
H8A H 0.7777 0.4359 -0.0543
N1A N 0.9918(3) 0.5896(4) -0.3113(3)
O1A O 0.8166(3) 0.3544(4) -0.4483(3)
O2A O 0.9754(3) 0.4066(4) -0.3889(3)
O3A O 1.2503(3) 0.8146(4) -0.3542(3)
O4A O 1.2040(2) 0.6490(4) -0.3221(2)
O5A O 0.9564(4) 0.5776(6) 0.1697(3)
O6A O 0.7931(5) 0.4690(6) 0.1277(4)
Zn1A Zn 0.90412(4) 0.50447(6) 0.30275(4)
C1B C 0.4656(9) 0.3545(6) 0.1086(7)
C2B C 0.4448(6) 0.3589(4) -0.0031(5)
C3B C 0.3659(6) 0.3748(4) -0.0360(4)
H1B H 0.3206 0.3780 0.0110
C4B C 0.3515(6) 0.3865(4) -0.1370(4)
H2B H 0.2964 0.3963 -0.1572
C5B C 0.4185(6) 0.3835(4) -0.2082(4)
C6B C 0.5000(6) 0.3678(5) -0.1750(5)
H3B H 0.5468 0.3665 -0.2214
C7B C 0.3055(6) 0.3759(4) -0.3469(4)
H4B H 0.2536 0.3167 -0.3079
H5B H 0.2984 0.3533 -0.4167
C8B C 0.4747(6) 0.3838(4) -0.3846(4)
H6B H 0.4355 0.3588 -0.4471
H7B H 0.4860 0.3284 -0.3589
C9B C 0.2799(6) 0.4630(4) -0.3406(4)
C10B C 0.5792(6) 0.4775(4) -0.4077(4)
C11B C 0.5109(7) 0.3544(5) -0.0749(5)
H8B H 0.5641 0.3418 -0.0543
N1B N 0.4104(4) 0.4022(3) -0.3113(3)
O1B O 0.6456(4) 0.4622(3) -0.4483(3)
O2B O 0.5934(4) 0.5688(3) -0.3889(3)
O3B O 0.1854(4) 0.4357(3) -0.3542(3)
O4B O 0.3510(4) 0.5550(3) -0.3221(2)
O5B O 0.4224(6) 0.3788(4) 0.1697(3)
O6B O 0.5310(6) 0.3241(4) 0.1277(4)
Zn1B Zn 0.49553(6) 0.39965(5) 0.30275(4)
N1C N 0.4022(3) -0.0082(3) 0.3113(3)
N1D N 1.0082(3) 0.4104(4) 0.3113(3)
N1E N 0.5896(4) 0.5978(3) 0.3113(3)
O2C O 0.5688(3) -0.0246(3) 0.3889(3)
O2D O 1.0246(3) 0.5934(4) 0.3889(3)
O2E O 0.4066(4) 0.4312(3) 0.3889(3)
O3C O 0.4357(3) 0.2503(3) 0.3542(3)
O3D O 0.7497(3) 0.1854(4) 0.3542(3)
O3E O 0.8146(4) 0.5643(3) 0.3542(3)
O4C O 0.5550(3) 0.2040(2) -0.6779(2)
O4C_2 O 0.5550(3) 0.2040(2) 0.3221(2)
O4D O 0.7960(2) 0.3510(4) -0.6779(2)
O4D_2 O 0.7960(2) 0.3510(4) 0.3221(2)
O4E O 0.6490(4) 0.4450(3) -0.6779(2)
O4E_2 O 0.6490(4) 0.4450(3) 0.3221(2)
Zn1C Zn 0.39965(5) -0.09588(4) -0.30275(4)
Zn1C_2 Zn 1.39965(5) 0.90412(4) -0.30275(4)
Zn1D Zn 0.09588(4) 0.49553(6) -0.30275(4)
Zn1D_2 Zn 1.09588(4) 0.49553(6) -0.30275(4)
Zn1E Zn 0.50447(6) -0.39965(5) -0.30275(4)
Zn1E_2 Zn 0.50447(6) 0.60035(5) -0.30275(4)
Na1C Na 0.3333 -0.3333 -0.2004(2)
Na1C_2 Na 0.3333 0.6667 -0.2004(2)
Na1C_3 Na 1.3333 0.6667 -0.2004(2)
Na2C Na 0.3333 -0.3333 -0.4730(2)
Na2C_2 Na 0.3333 0.6667 -0.4730(2)
Na2C_3 Na 1.3333 0.6667 -0.4730(2)
loop_
_geom_bond_atom_site_label_1
_geom_bond_atom_site_label_2
_geom_bond_site_symmetry_1
_geom_bond_site_symmetry_2
C1 C2 1_555 1_555
C2 C3 1_555 1_555
C3 H1 1_555 1_555
C4 C3 1_555 1_555
H2 C4 1_555 1_555
C5 C4 1_555 1_555
C6 C5 1_555 1_555
H3 C6 1_555 1_555
C7 H4 1_555 1_555
H5 C7 1_555 1_555
C8 H6 1_555 1_555
H7 C8 1_555 1_555
C9 C7 1_555 1_555
C10 C8 1_555 1_555
C11 C2 1_555 1_555
H8 C11 1_555 1_555
N1 C5 1_555 1_555
O1 C10 1_555 1_555
O2 C10 1_555 1_555
O3 C9 1_555 1_555
O4 C9 1_555 1_555
O5 C1 1_555 1_555
O6 C1 1_555 1_555
Zn1 O5 1_555 1_555
Na1 O6 1_555 1_555
Na2 O1 1_555 1_555
C1A C2A 1_555 1_555
C2A C3A 1_555 1_555
C3A H1A 1_555 1_555
C4A C3A 1_555 1_555
H2A C4A 1_555 1_555
C5A C4A 1_555 1_555
C6A C5A 1_555 1_555
H3A C6A 1_555 1_555
C7A H4A 1_555 1_555
H5A C7A 1_555 1_555
C8A H6A 1_555 1_555
H7A C8A 1_555 1_555
C9A C7A 1_555 1_555
C10A C8A 1_555 1_555
C11A C2A 1_555 1_555
H8A C11A 1_555 1_555
N1A C5A 1_555 1_555
O1A Na2 1_555 1_555
O2A C10A 1_555 1_555
O3A C9A 1_555 1_555
O4A C9A 1_555 1_555
O5A C1A 1_555 1_555
O6A Na1 1_555 1_555
Zn1A O5A 1_555 1_555
C1B C2B 1_555 1_555
C2B C3B 1_555 1_555
C3B H1B 1_555 1_555
C4B C3B 1_555 1_555
H2B C4B 1_555 1_555
C5B C4B 1_555 1_555
C6B C5B 1_555 1_555
H3B C6B 1_555 1_555
C7B H4B 1_555 1_555
H5B C7B 1_555 1_555
C8B H6B 1_555 1_555
H7B C8B 1_555 1_555
C9B C7B 1_555 1_555
C10B C8B 1_555 1_555
C11B C2B 1_555 1_555
H8B C11B 1_555 1_555
N1B C5B 1_555 1_555
O1B Na2 1_555 1_555
O2B C10B 1_555 1_555
O3B C9B 1_555 1_555
O4B C9B 1_555 1_555
O5B C1B 1_555 1_555
O6B Na1 1_555 1_555
Zn1B O5B 1_555 1_555
N1C Zn1 1_555 1_555
N1D Zn1A 1_555 1_555
N1E Zn1B 1_555 1_555
O2C Zn1 1_555 1_555
O2D Zn1A 1_555 1_555
O2E Zn1B 1_555 1_555
O3C Zn1B 1_555 1_555
O3D Zn1 1_555 1_555
O3E Zn1A 1_555 1_555
O4C Na2 1_555 1_555
O4C_2 Zn1 1_555 1_555
O4D Na2 1_555 1_555
O4D_2 Na1 1_555 1_555
O4E Na2 1_555 1_555
O4E_2 Na1 1_555 1_555
Zn1C N1 1_555 1_555
Zn1C_2 O3A 1_555 1_555
Zn1D O3B 1_555 1_555
Zn1D_2 N1A 1_555 1_555
Zn1E O3 1_555 1_555
Zn1E_2 N1B 1_555 1_555
Na1C O4 1_555 1_555
Na1C_2 O4B 1_555 1_555
Na1C_3 O4A 1_555 1_555
Na2C O4 1_555 1_555
Na2C_2 O4B 1_555 1_555
Na2C_3 O4A 1_555 1_555
C6 C11 1_555 1_555
C7 N1 1_555 1_555
C8 N1 1_555 1_555
O2 Zn1C 1_555 1_555
O4 Zn1C 1_555 1_555
Na1 O4C_2 1_555 1_555
C1A O6A 1_555 1_555
C6A C11A 1_555 1_555
C7A N1A 1_555 1_555
C8A N1A 1_555 1_555
C10A O1A 1_555 1_555
O2A Zn1D_2 1_555 1_555
O4A Zn1D_2 1_555 1_555
Zn1A O4D_2 1_555 1_555
C1B O6B 1_555 1_555
C6B C11B 1_555 1_555
C7B N1B 1_555 1_555
C8B N1B 1_555 1_555
C10B O1B 1_555 1_555
O2B Zn1E_2 1_555 1_555
O4B Zn1E_2 1_555 1_555
Zn1B O4E_2 1_555 1_555

#END
