
#######################################################################
#
#                 Cambridge Crystallographic Data Centre
#                                CCDC 
#
#######################################################################
#
# If this CIF has been generated from an entry in the Cambridge 
# Structural Database, then it will include bibliographic, chemical, 
# crystal, experimental, refinement or atomic coordinate data resulting 
# from the CCDC's data processing and validation procedures.
#
#######################################################################

data_AQOSEG
_chemical_formula_moiety         'C40 H32 Cu10 N30 O44 Si1 W12'
_symmetry_cell_setting           tetragonal
_symmetry_space_group_name_H-M   'I 41/a'
_symmetry_Int_Tables_number      88
_space_group_name_Hall           '-I 4ad'
loop_
_symmetry_equiv_pos_site_id
_symmetry_equiv_pos_as_xyz
1 x,y,z
2 3/4-y,1/4+x,1/4+z
3 1/2-x,-y,1/2+z
4 3/4+y,3/4-x,3/4+z
5 1/2+x,1/2+y,1/2+z
6 1/4-y,3/4+x,3/4+z
7 -x,1/2-y,z
8 1/4+y,1/4-x,1/4+z
9 -x,-y,-z
10 1/4+y,3/4-x,3/4-z
11 1/2+x,y,1/2-z
12 1/4-y,1/4+x,1/4-z
13 1/2-x,1/2-y,1/2-z
14 3/4+y,1/4-x,1/4-z
15 x,1/2+y,-z
16 3/4-y,3/4+x,3/4-z
_cell_length_a                   35.1044(7)
_cell_length_b                   35.1044(7)
_cell_length_c                   11.7352(4)
_cell_angle_alpha                90
_cell_angle_beta                 90
_cell_angle_gamma                90
_cell_volume                     14461.5
loop_
_atom_site_label
_atom_site_type_symbol
_atom_site_fract_x
_atom_site_fract_y
_atom_site_fract_z
_atom_site_U_iso_or_equiv
_atom_site_thermal_displace_type
C1 C 0.8803(6) 0.6031(6) -0.001(2) 0.0233 Uani
C2 C 0.8947(6) 0.6047(6) -0.113(2) 0.0297 Uani
H1 H 0.8848 0.5886 -0.1691 0.0350 Uiso
C3 C 0.9238(6) 0.6303(6) -0.141(2) 0.0317 Uani
H2 H 0.9334 0.6322 -0.2142 0.0380 Uiso
C4 C 0.9381(6) 0.6535(6) -0.049(2) 0.0300 Uani
H3 H 0.9580 0.6705 -0.0619 0.0360 Uiso
C5 C 0.9219(6) 0.6503(6) 0.059(2) 0.0297 Uani
C6 C 0.8934(6) 0.6247(5) 0.085(2) 0.0240 Uani
H4 H 0.8838 0.6225 0.1582 0.0290 Uiso
C7 C 0.9451(6) 0.7130(6) 0.138(3) 0.0383 Uani
H5 H 0.9436 0.7272 0.0717 0.0480 Uiso
C8 C 0.9416(6) 0.6679(6) 0.257(2) 0.0287 Uani
H6 H 0.9372 0.6442 0.2896 0.0340 Uiso
C9 C 0.8184(5) 0.5717(6) -0.039(2) 0.0233 Uani
H7 H 0.8138 0.5824 -0.1105 0.0280 Uiso
C10 C 0.8452(6) 0.5571(6) 0.120(2) 0.0267 Uani
H8 H 0.8623 0.5568 0.1810 0.0320 Uiso
C11 C 0.8383(7) 0.6643(6) 0.666(2) 0.0290 Uani
C12 C 0.8362(6) 0.6295(6) 0.6064(19) 0.0243 Uani
H9 H 0.8573 0.6194 0.5691 0.0290 Uiso
C13 C 0.8026(6) 0.6117(6) 0.606(2) 0.0240 Uani
C14 C 0.7720(7) 0.6261(6) 0.661(2) 0.0310 Uani
H10 H 0.7485 0.6142 0.6547 0.0370 Uiso
C15 C 0.7758(7) 0.6593(6) 0.727(2) 0.0303 Uani
H11 H 0.7564 0.6672 0.7758 0.0370 Uiso
C16 C 0.8096(7) 0.6801(6) 0.718(2) 0.0317 Uani
H12 H 0.8115 0.7045 0.7480 0.0380 Uiso
C17 C 0.8893(7) 0.7090(6) 0.729(2) 0.0333 Uani
H13 H 0.8790 0.7135 0.8008 0.0400 Uiso
C18 C 0.8964(6) 0.6887(6) 0.559(2) 0.0273 Uani
H14 H 0.8919 0.6754 0.4922 0.0330 Uiso
C19 C 0.8091(6) 0.5697(5) 0.435(2) 0.0217 Uani
H15 H 0.8227 0.5865 0.3895 0.0260 Uiso
C20 C 0.7803(7) 0.5446(6) 0.573(2) 0.0353 Uani
H16 H 0.7703 0.5404 0.6457 0.0420 Uiso
Cu1 Cu 0.96905(8) 0.70842(8) 0.4726(3) 0.0446 Uani
Cu2 Cu 0.78627(7) 0.51152(7) 0.2441(2) 0.0242 Uani
N1 N 0.9361(4) 0.6758(5) 0.1454(16) 0.0197 Uani
N2 N 0.9538(5) 0.6974(5) 0.3118(18) 0.0290 Uani
N3 N 0.9562(5) 0.7266(5) 0.235(2) 0.0370 Uani
N4 N 0.8494(5) 0.5781(4) 0.0212(16) 0.0190 Uani
N5 N 0.8131(5) 0.5375(4) 0.1151(17) 0.0260 Uani
N6 N 0.7945(4) 0.5479(5) 0.0143(16) 0.0207 Uani
N7 N 0.7985(5) 0.5773(4) 0.5429(16) 0.0203 Uani
N8 N 0.7981(4) 0.5363(5) 0.4036(16) 0.0230 Uani
N9 N 0.7784(4) 0.5203(5) 0.4925(17) 0.0210 Uani
N10 N 0.8744(5) 0.6859(5) 0.6512(17) 0.0270 Uani
N11 N 0.9251(5) 0.7121(5) 0.5732(19) 0.0323 Uani
N12 N 0.9215(6) 0.7248(7) 0.688(2) 0.0517 Uani
O1 O 0.8649(5) 0.5353(5) 0.6581(18) 0.0550 Uani
O2 O 0.9377(5) 0.5256(5) 0.7412(17) 0.0533 Uani
O3 O 0.9277(5) 0.5722(5) 0.5664(17) 0.0510 Uani
O4 O 0.9841(5) 0.5474(5) 0.9185(17) 0.0553 Uani
O5 O 0.9890(5) 0.5794(6) 0.7008(18) 0.0600 Uani
O6 O 1.0437(5) 0.5327(5) 0.7744(18) 0.0527 Uani
O7 O 0.9665(5) 0.6411(4) 0.5768(19) 0.0527 Uani
O8 O 1.0288(6) 0.6005(6) 0.5266(19) 0.0723 Uani
O9 O 0.8993(4) 0.3936(4) 0.5775(16) 0.0350 Uani
O10 O 0.9624(5) 0.4251(6) 0.6879(19) 0.0680 Uani
O11 O 0.9073(6) 0.4709(5) 0.6158(18) 0.0643 Uani
O12 O 0.9145(6) 0.4454(5) 0.4074(18) 0.0600 Uani
O13 O 0.8815(5) 0.4878(5) 0.2369(17) 0.0487 Uani
O14 O 0.8978(6) 0.5170(5) 0.4450(18) 0.0583 Uani
O15 O 0.9388(5) 0.5380(5) 0.2704(19) 0.0610 Uani
O16 O 0.9700(5) 0.5924(6) 0.3940(17) 0.0593 Uani
O17 O 0.9802(4) 0.5940(4) 0.1637(15) 0.0347 Uani
O18 O 0.9934(5) 0.4797(5) 0.8039(19) 0.0557 Uani
O19 O 0.9543(6) 0.4885(6) 0.502(2) 0.0113 Uani
O20 O 0.9772(6) 0.5280(6) 0.578(2) 0.0130 Uani
O21 O 0.9843(6) 0.5051(6) 0.369(2) 0.0120 Uani
O22 O 0.9938(6) 0.4558(6) 0.537(2) 0.0120 Uani
Si1 Si 1.0000 0.5000 0.5000 0.0018 Uani
W1 W 0.90828(2) 0.52448(2) 0.60469(8) 0.0212 Uani
W2 W 0.98892(3) 0.53219(3) 0.78363(8) 0.0243 Uani
W3 W 0.97711(3) 0.59556(2) 0.55319(9) 0.0232 Uani
W4 W 0.93220(3) 0.42842(2) 0.55370(8) 0.0232 Uani
W5 W 0.91958(2) 0.49095(2) 0.32236(9) 0.0265 Uani
W6 W 0.98660(2) 0.56313(3) 0.26960(9) 0.0270 Uani
O19H O 1.0457(6) 0.5115(6) 0.498(2) 0.0113 Uani
O20H O 1.0228(6) 0.4720(6) 0.422(2) 0.0130 Uani
O21H O 1.0157(6) 0.4949(6) 0.631(2) 0.0120 Uani
O22H O 1.0062(6) 0.5442(6) 0.463(2) 0.0120 Uani
C1H C 1.1197(6) 0.3969(6) 1.001(2) 0.0233 Uani
C2H C 1.1053(6) 0.3953(6) 1.113(2) 0.0297 Uani
H1H H 1.1152 0.4114 1.1691 0.0350 Uiso
C3H C 1.0762(6) 0.3697(6) 1.141(2) 0.0317 Uani
H2H H 1.0666 0.3678 1.2142 0.0380 Uiso
C4H C 1.0619(6) 0.3465(6) 1.049(2) 0.0300 Uani
H3H H 1.0420 0.3295 1.0619 0.0360 Uiso
C5H C 1.0781(6) 0.3497(6) 0.941(2) 0.0297 Uani
C6H C 1.1066(6) 0.3753(5) 0.915(2) 0.0240 Uani
H4H H 1.1162 0.3775 0.8418 0.0290 Uiso
C7H C 1.0549(6) 0.2870(6) 0.862(3) 0.0383 Uani
H5H H 1.0564 0.2728 0.9283 0.0480 Uiso
C8H C 1.0584(6) 0.3321(6) 0.743(2) 0.0287 Uani
H6H H 1.0628 0.3558 0.7104 0.0340 Uiso
C9H C 1.1816(5) 0.4283(6) 1.039(2) 0.0233 Uani
H7H H 1.1862 0.4176 1.1105 0.0280 Uiso
C10H C 1.1548(6) 0.4429(6) 0.880(2) 0.0267 Uani
H8H H 1.1377 0.4432 0.8190 0.0320 Uiso
C11H C 1.1617(7) 0.3357(6) 0.334(2) 0.0290 Uani
C12H C 1.1638(6) 0.3705(6) 0.3936(19) 0.0243 Uani
H9H H 1.1427 0.3806 0.4309 0.0290 Uiso
C13H C 1.1974(6) 0.3883(6) 0.394(2) 0.0240 Uani
C14H C 1.2280(7) 0.3739(6) 0.339(2) 0.0310 Uani
H10H H 1.2515 0.3858 0.3453 0.0370 Uiso
C15H C 1.2242(7) 0.3407(6) 0.273(2) 0.0303 Uani
H11H H 1.2436 0.3328 0.2242 0.0370 Uiso
C16H C 1.1904(7) 0.3199(6) 0.282(2) 0.0317 Uani
H12H H 1.1885 0.2955 0.2520 0.0380 Uiso
C17H C 1.1107(7) 0.2910(6) 0.271(2) 0.0333 Uani
H13H H 1.1210 0.2865 0.1992 0.0400 Uiso
C18H C 1.1036(6) 0.3113(6) 0.441(2) 0.0273 Uani
H14H H 1.1081 0.3246 0.5078 0.0330 Uiso
C19H C 1.1909(6) 0.4303(5) 0.565(2) 0.0217 Uani
H15H H 1.1773 0.4135 0.6105 0.0260 Uiso
C20H C 1.2197(7) 0.4554(6) 0.427(2) 0.0353 Uani
H16H H 1.2297 0.4596 0.3543 0.0420 Uiso
Cu1H Cu 1.03095(8) 0.29158(8) 0.5274(3) 0.0446 Uani
Cu2H Cu 1.21373(7) 0.48848(7) 0.7559(2) 0.0242 Uani
N1H N 1.0639(4) 0.3242(5) 0.8546(16) 0.0197 Uani
N2H N 1.0462(5) 0.3026(5) 0.6882(18) 0.0290 Uani
N3H N 1.0438(5) 0.2734(5) 0.765(2) 0.0370 Uani
N4H N 1.1506(5) 0.4219(4) 0.9788(16) 0.0190 Uani
N5H N 1.1869(5) 0.4625(4) 0.8849(17) 0.0260 Uani
N6H N 1.2055(4) 0.4521(5) 0.9857(16) 0.0207 Uani
N7H N 1.2015(5) 0.4227(4) 0.4571(16) 0.0203 Uani
N8H N 1.2019(4) 0.4637(5) 0.5964(16) 0.0230 Uani
N9H N 1.2216(4) 0.4797(5) 0.5075(17) 0.0210 Uani
N10H N 1.1256(5) 0.3141(5) 0.3488(17) 0.0270 Uani
N11H N 1.0749(5) 0.2879(5) 0.4268(19) 0.0323 Uani
N12H N 1.0785(6) 0.2752(7) 0.312(2) 0.0517 Uani
O1H O 1.1351(5) 0.4647(5) 0.3419(18) 0.0550 Uani
O2H O 1.0623(5) 0.4744(5) 0.2588(17) 0.0533 Uani
O3H O 1.0723(5) 0.4278(5) 0.4336(17) 0.0510 Uani
O4H O 1.0159(5) 0.4526(5) 0.0815(17) 0.0553 Uani
O5H O 1.0110(5) 0.4206(6) 0.2992(18) 0.0600 Uani
O6H O 0.9563(5) 0.4673(5) 0.2256(18) 0.0527 Uani
O7H O 1.0335(5) 0.3589(4) 0.4232(19) 0.0527 Uani
O8H O 0.9712(6) 0.3995(6) 0.4734(19) 0.0723 Uani
O9H O 1.1007(4) 0.6064(4) 0.4225(16) 0.0350 Uani
O10H O 1.0376(5) 0.5749(6) 0.3121(19) 0.0680 Uani
O11H O 1.0927(6) 0.5291(5) 0.3842(18) 0.0643 Uani
O12H O 1.0855(6) 0.5546(5) 0.5926(18) 0.0600 Uani
O13H O 1.1185(5) 0.5122(5) 0.7631(17) 0.0487 Uani
O14H O 1.1022(6) 0.4830(5) 0.5550(18) 0.0583 Uani
O15H O 1.0612(5) 0.4620(5) 0.7296(19) 0.0610 Uani
O16H O 1.0300(5) 0.4076(6) 0.6060(17) 0.0593 Uani
O17H O 1.0198(4) 0.4060(4) 0.8363(15) 0.0347 Uani
O18H O 1.0066(5) 0.5203(5) 0.1961(19) 0.0557 Uani
W1H W 1.09172(2) 0.47552(2) 0.39531(8) 0.0212 Uani
W2H W 1.01108(3) 0.46781(3) 0.21637(8) 0.0243 Uani
W3H W 1.02289(3) 0.40444(2) 0.44681(9) 0.0232 Uani
W4H W 1.06780(3) 0.57158(2) 0.44630(8) 0.0232 Uani
W5H W 1.08042(2) 0.50905(2) 0.67764(9) 0.0265 Uani
W6H W 1.01340(2) 0.43687(3) 0.73040(9) 0.0270 Uani
Cu1A Cu 1.04158(8) 0.21905(8) 0.7226(3) 0.0446 Uani
Cu1I Cu 0.95842(8) 0.78095(8) 0.2774(3) 0.0446 Uani
Cu2E Cu 0.73848(7) 0.53627(7) -0.0059(2) 0.0242 Uani
Cu2G Cu 0.76152(7) 0.46373(7) 0.4941(2) 0.0242 Uani
Cu2M Cu 1.26152(7) 0.46373(7) 1.0059(2) 0.0242 Uani
Cu2O Cu 1.23848(7) 0.53627(7) 0.5059(2) 0.0242 Uani
N3G N 0.9766(5) 0.2938(5) 0.485(2) 0.0370 Uani
N3O N 1.0234(5) 0.7062(5) 0.515(2) 0.0370 Uani
N6G N 0.7979(5) 0.4555(4) 0.2643(16) 0.0207 Uani
N6O N 1.2021(5) 0.5445(4) 0.7357(16) 0.0207 Uani
N9E N 0.7297(5) 0.5284(4) 0.2425(17) 0.0210 Uani
N9M N 1.2703(5) 0.4716(4) 0.7575(17) 0.0210 Uani
loop_
_atom_site_aniso_label
_atom_site_aniso_U_11
_atom_site_aniso_U_22
_atom_site_aniso_U_33
_atom_site_aniso_U_23
_atom_site_aniso_U_13
_atom_site_aniso_U_12
C1 0.024(7) 0.026(7) 0.020(8) -0.015(7) 0.007(7) -0.003(6)
C2 0.032(8) 0.034(8) 0.023(9) 0.001(7) 0.010(7) -0.001(7)
C3 0.028(7) 0.039(8) 0.028(9) -0.006(8) 0.015(7) 0.003(7)
C4 0.027(7) 0.030(7) 0.033(9) -0.011(7) 0.019(7) -0.003(6)
C5 0.029(7) 0.031(7) 0.029(9) -0.012(7) 0.015(7) -0.003(6)
C6 0.025(6) 0.028(6) 0.019(7) -0.015(6) 0.010(6) -0.004(5)
C7 0.024(12) 0.021(12) 0.07(2) 0.014(14) 0.030(14) 0.003(9)
C8 0.028(11) 0.032(12) 0.026(16) -0.010(12) -0.007(11) -0.010(9)
C9 0.026(8) 0.027(8) 0.017(9) 0.001(7) -0.002(7) -0.002(7)
C10 0.018(8) 0.036(9) 0.026(10) -0.011(8) -0.006(8) -0.005(7)
C11 0.045(8) 0.025(7) 0.017(8) -0.007(7) -0.002(7) -0.004(7)
C12 0.038(8) 0.028(7) 0.007(8) 0.001(7) 0.002(7) -0.004(6)
C13 0.032(6) 0.031(6) 0.009(7) 0.002(6) 0.001(6) -0.003(5)
C14 0.045(8) 0.037(7) 0.011(8) 0.001(7) -0.004(7) -0.006(7)
C15 0.050(8) 0.033(8) 0.008(8) -0.007(7) 0.003(7) -0.003(7)
C16 0.055(9) 0.026(7) 0.014(8) -0.014(7) -0.003(8) -0.007(7)
C17 0.046(9) 0.026(8) 0.028(10) -0.009(8) -0.005(8) -0.011(7)
C18 0.046(14) 0.018(11) 0.018(14) -0.007(10) -0.013(12) 0.004(10)
C19 0.026(8) 0.021(8) 0.018(9) 0.004(7) -0.005(7) -0.015(7)
C20 0.051(15) 0.025(12) 0.030(17) -0.001(12) -0.006(13) 0.007(10)
Cu1 0.0325(16) 0.0342(16) 0.067(3) -0.0097(18) -0.0193(18) 0.0024(12)
Cu2 0.0325(15) 0.0316(14) 0.0084(16) 0.0012(13) 0.0018(13) 0.0036(12)
N1 0.015(7) 0.027(7) 0.017(8) 0.006(7) 0.006(7) -0.004(6)
N2 0.030(7) 0.023(7) 0.034(9) -0.006(7) 0.001(7) -0.012(6)
N3 0.039(12) 0.029(11) 0.043(16) -0.005(11) -0.008(11) -0.006(9)
N4 0.028(7) 0.016(7) 0.013(8) 0.000(6) -0.004(7) -0.002(6)
N5 0.033(10) 0.014(8) 0.031(13) 0.001(9) -0.002(10) 0.002(7)
N6 0.013(8) 0.033(10) 0.016(11) 0.014(9) -0.008(8) -0.008(7)
N7 0.039(10) 0.012(8) 0.010(11) -0.002(8) 0.011(9) 0.004(7)
N8 0.004(7) 0.043(11) 0.022(12) 0.011(10) 0.000(8) -0.002(7)
N9 0.021(4) 0.021(4) 0.021(4) 0.0001(10) 0.0001(10) -0.0002(10)
N10 0.039(8) 0.023(7) 0.019(8) 0.002(7) -0.008(7) 0.002(6)
N11 0.025(7) 0.028(7) 0.044(10) 0.000(7) -0.020(7) 0.011(6)
N12 0.043(13) 0.084(18) 0.028(15) -0.002(14) -0.024(12) 0.007(12)
O1 0.054(5) 0.056(5) 0.055(5) 0.001(2) 0.001(2) 0.001(2)
O2 0.049(8) 0.062(8) 0.049(9) 0.015(7) -0.016(7) -0.032(7)
O3 0.058(8) 0.048(8) 0.047(9) 0.028(7) -0.010(7) -0.023(7)
O4 0.073(11) 0.058(10) 0.035(11) -0.017(9) 0.003(10) -0.035(9)
O5 0.059(8) 0.070(9) 0.051(9) 0.018(8) -0.014(8) -0.020(7)
O6 0.044(8) 0.033(7) 0.081(10) 0.003(7) 0.010(8) 0.006(6)
O7 0.046(9) 0.027(8) 0.085(14) -0.004(9) 0.005(10) 0.004(7)
O8 0.060(9) 0.099(10) 0.058(10) -0.001(8) -0.008(8) 0.005(8)
O9 0.019(8) 0.043(9) 0.043(12) -0.015(9) 0.006(8) -0.015(6)
O10 0.051(8) 0.094(10) 0.059(10) -0.019(8) 0.004(8) 0.012(7)
O11 0.097(10) 0.048(8) 0.048(10) 0.008(8) -0.011(8) 0.015(7)
O12 0.090(10) 0.045(8) 0.045(9) -0.009(7) 0.002(8) 0.010(7)
O13 0.040(10) 0.055(11) 0.051(14) -0.004(10) -0.020(10) 0.006(8)
O14 0.088(9) 0.047(8) 0.040(9) 0.002(7) -0.004(8) -0.002(7)
O15 0.048(8) 0.057(8) 0.078(10) -0.013(8) 0.023(8) 0.008(7)
O16 0.045(8) 0.097(10) 0.036(9) -0.003(8) -0.007(7) 0.008(7)
O17 0.035(4) 0.036(4) 0.033(4) 0.002(2) 0.000(2) 0.002(2)
O18 0.041(7) 0.044(8) 0.082(10) -0.003(8) 0.026(8) 0.004(6)
O19 0.011(4) 0.011(4) 0.012(4) 0.001(3) 0.002(3) -0.001(3)
O20 0.013(6) 0.013(6) 0.013(6) -0.001(6) 0.001(6) 0.000(5)
O21 0.012(4) 0.012(4) 0.012(4) -0.0002(10) 0.0002(10) 0.0001(10)
O22 0.012(4) 0.012(4) 0.012(4) 0.0001(10) -0.0003(10) 0.0001(10)
Si1 0.0027(15) 0.0015(15) 0.0012(16) -0.0003(10) -0.0005(10) -0.0001(10)
W1 0.0229(4) 0.0281(5) 0.0126(6) -0.0010(4) 0.0028(4) 0.0064(3)
W2 0.0321(5) 0.0309(5) 0.0100(6) -0.0074(4) 0.0033(4) -0.0019(4)
W3 0.0327(5) 0.0195(4) 0.0173(6) -0.0039(4) -0.0003(4) 0.0079(3)
W4 0.0315(5) 0.0284(5) 0.0097(5) 0.0010(4) -0.0009(4) -0.0131(4)
W5 0.0279(5) 0.0267(5) 0.0249(6) -0.0013(4) -0.0183(5) 0.0007(4)
W6 0.0245(5) 0.0342(5) 0.0224(6) 0.0189(5) -0.0003(4) 0.0031(4)
O19H 0.011 0.011 0.012 0.001 0.002 -0.001
O20H 0.013 0.013 0.013 -0.001 0.001 0
O21H 0.012 0.012 0.012 -0.0002 0.0002 0.0001
O22H 0.012 0.012 0.012 0.0001 -0.0003 0.0001
C1H 0.024 0.026 0.02 -0.015 0.007 -0.003
C2H 0.032 0.034 0.023 0.001 0.01 -0.001
C3H 0.028 0.039 0.028 -0.006 0.015 0.003
C4H 0.027 0.03 0.033 -0.011 0.019 -0.003
C5H 0.029 0.031 0.029 -0.012 0.015 -0.003
C6H 0.025 0.028 0.019 -0.015 0.01 -0.004
C7H 0.024 0.021 0.07 0.014 0.03 0.003
C8H 0.028 0.032 0.026 -0.01 -0.007 -0.01
C9H 0.026 0.027 0.017 0.001 -0.002 -0.002
C10H 0.018 0.036 0.026 -0.011 -0.006 -0.005
C11H 0.045 0.025 0.017 -0.007 -0.002 -0.004
C12H 0.038 0.028 0.007 0.001 0.002 -0.004
C13H 0.032 0.031 0.009 0.002 0.001 -0.003
C14H 0.045 0.037 0.011 0.001 -0.004 -0.006
C15H 0.05 0.033 0.008 -0.007 0.003 -0.003
C16H 0.055 0.026 0.014 -0.014 -0.003 -0.007
C17H 0.046 0.026 0.028 -0.009 -0.005 -0.011
C18H 0.046 0.018 0.018 -0.007 -0.013 0.004
C19H 0.026 0.021 0.018 0.004 -0.005 -0.015
C20H 0.051 0.025 0.03 -0.001 -0.006 0.007
Cu1H 0.0325 0.0342 0.067 -0.0097 -0.0193 0.0024
Cu2H 0.0325 0.0316 0.0084 0.0012 0.0018 0.0036
N1H 0.015 0.027 0.017 0.006 0.006 -0.004
N2H 0.03 0.023 0.034 -0.006 0.001 -0.012
N3H 0.039 0.029 0.043 -0.005 -0.008 -0.006
N4H 0.028 0.016 0.013 0 -0.004 -0.002
N5H 0.033 0.014 0.031 0.001 -0.002 0.002
N6H 0.013 0.033 0.016 0.014 -0.008 -0.008
N7H 0.039 0.012 0.01 -0.002 0.011 0.004
N8H 0.004 0.043 0.022 0.011 0 -0.002
N9H 0.021 0.021 0.021 0.0001 0.0001 -0.0002
N10H 0.039 0.023 0.019 0.002 -0.008 0.002
N11H 0.025 0.028 0.044 0 -0.02 0.011
N12H 0.043 0.084 0.028 -0.002 -0.024 0.007
O1H 0.054 0.056 0.055 0.001 0.001 0.001
O2H 0.049 0.062 0.049 0.015 -0.016 -0.032
O3H 0.058 0.048 0.047 0.028 -0.01 -0.023
O4H 0.073 0.058 0.035 -0.017 0.003 -0.035
O5H 0.059 0.07 0.051 0.018 -0.014 -0.02
O6H 0.044 0.033 0.081 0.003 0.01 0.006
O7H 0.046 0.027 0.085 -0.004 0.005 0.004
O8H 0.06 0.099 0.058 -0.001 -0.008 0.005
O9H 0.019 0.043 0.043 -0.015 0.006 -0.015
O10H 0.051 0.094 0.059 -0.019 0.004 0.012
O11H 0.097 0.048 0.048 0.008 -0.011 0.015
O12H 0.09 0.045 0.045 -0.009 0.002 0.01
O13H 0.04 0.055 0.051 -0.004 -0.02 0.006
O14H 0.088 0.047 0.04 0.002 -0.004 -0.002
O15H 0.048 0.057 0.078 -0.013 0.023 0.008
O16H 0.045 0.097 0.036 -0.003 -0.007 0.008
O17H 0.035 0.036 0.033 0.002 0 0.002
O18H 0.041 0.044 0.082 -0.003 0.026 0.004
W1H 0.0229 0.0281 0.0126 -0.001 0.0028 0.0064
W2H 0.0321 0.0309 0.01 -0.0074 0.0033 -0.0019
W3H 0.0327 0.0195 0.0173 -0.0039 -0.0003 0.0079
W4H 0.0315 0.0284 0.0097 0.001 -0.0009 -0.0131
W5H 0.0279 0.0267 0.0249 -0.0013 -0.0183 0.0007
W6H 0.0245 0.0342 0.0224 0.0189 -0.0003 0.0031
Cu1A 0.0342 0.0325 0.067 -0.0193 0.0097 -0.0024
Cu1I 0.0342 0.0325 0.067 -0.0193 0.0097 -0.0024
Cu2E 0.0316 0.0325 0.0084 0.0018 -0.0012 -0.0036
Cu2G 0.0316 0.0325 0.0084 -0.0018 0.0012 -0.0036
Cu2M 0.0316 0.0325 0.0084 0.0018 -0.0012 -0.0036
Cu2O 0.0316 0.0325 0.0084 -0.0018 0.0012 -0.0036
N3G 0.029 0.039 0.043 0.008 -0.005 0.006
N3O 0.029 0.039 0.043 0.008 -0.005 0.006
N6G 0.033 0.013 0.016 0.008 0.014 0.008
N6O 0.033 0.013 0.016 0.008 0.014 0.008
N9E 0.021 0.021 0.021 0.0001 -0.0001 0.0002
N9M 0.021 0.021 0.021 0.0001 -0.0001 0.0002
loop_
_geom_bond_atom_site_label_1
_geom_bond_atom_site_label_2
_geom_bond_site_symmetry_1
_geom_bond_site_symmetry_2
C1 C2 1_555 1_555
C2 H1 1_555 1_555
C3 C2 1_555 1_555
H2 C3 1_555 1_555
C4 C3 1_555 1_555
H3 C4 1_555 1_555
C5 C4 1_555 1_555
C6 C1 1_555 1_555
H4 C6 1_555 1_555
C7 H5 1_555 1_555
C8 H6 1_555 1_555
C9 H7 1_555 1_555
C10 H8 1_555 1_555
C11 C12 1_555 1_555
C12 H9 1_555 1_555
C13 C12 1_555 1_555
C14 C13 1_555 1_555
H10 C14 1_555 1_555
C15 C14 1_555 1_555
H11 C15 1_555 1_555
C16 C11 1_555 1_555
H12 C16 1_555 1_555
C17 H13 1_555 1_555
C18 H14 1_555 1_555
C19 H15 1_555 1_555
C20 H16 1_555 1_555
Cu1 N2 1_555 1_555
Cu2 N5 1_555 1_555
N1 C5 1_555 1_555
N2 C8 1_555 1_555
N3 C7 1_555 1_555
N4 C1 1_555 1_555
N5 C10 1_555 1_555
N6 C9 1_555 1_555
N7 C13 1_555 1_555
N8 C19 1_555 1_555
N9 C20 1_555 1_555
N10 C11 1_555 1_555
N11 C18 1_555 1_555
N12 C17 1_555 1_555
O1 W1 1_555 1_555
O2 W1 1_555 1_555
O3 W1 1_555 1_555
O4 W2 1_555 1_555
O5 W2 1_555 1_555
O6 W2 1_555 1_555
O7 Cu1 1_555 1_555
O8 W3 1_555 1_555
O9 W4 1_555 1_555
O10 W4 1_555 1_555
O11 W1 1_555 1_555
O12 W4 1_555 1_555
O13 W5 1_555 1_555
O14 W1 1_555 1_555
O15 W5 1_555 1_555
O16 W3 1_555 1_555
O17 W6 1_555 1_555
O18 W2 1_555 1_555
O19 Si1 1_555 1_555
O20 Si1 1_555 1_555
O21 Si1 1_555 1_555
O22 Si1 1_555 1_555
Si1 O19H 1_555 1_555
W1 O19 1_555 1_555
W2 O2 1_555 1_555
W3 O3 1_555 1_555
W4 O11 1_555 1_555
W5 O12 1_555 1_555
W6 O15 1_555 1_555
O19H W1H 1_555 1_555
O20H Si1 1_555 1_555
O21H Si1 1_555 1_555
O22H Si1 1_555 1_555
C1H C2H 1_555 1_555
C2H H1H 1_555 1_555
C3H C2H 1_555 1_555
H2H C3H 1_555 1_555
C4H C3H 1_555 1_555
H3H C4H 1_555 1_555
C5H C4H 1_555 1_555
C6H C1H 1_555 1_555
H4H C6H 1_555 1_555
C7H H5H 1_555 1_555
C8H H6H 1_555 1_555
C9H H7H 1_555 1_555
C10H H8H 1_555 1_555
C11H C12H 1_555 1_555
C12H H9H 1_555 1_555
C13H C12H 1_555 1_555
C14H C13H 1_555 1_555
H10H C14H 1_555 1_555
C15H C14H 1_555 1_555
H11H C15H 1_555 1_555
C16H C11H 1_555 1_555
H12H C16H 1_555 1_555
C17H H13H 1_555 1_555
C18H H14H 1_555 1_555
C19H H15H 1_555 1_555
C20H H16H 1_555 1_555
Cu1H N2H 1_555 1_555
Cu2H N5H 1_555 1_555
N1H C5H 1_555 1_555
N2H C8H 1_555 1_555
N3H C7H 1_555 1_555
N4H C1H 1_555 1_555
N5H C10H 1_555 1_555
N6H C9H 1_555 1_555
N7H C13H 1_555 1_555
N8H C19H 1_555 1_555
N9H C20H 1_555 1_555
N10H C11H 1_555 1_555
N11H C18H 1_555 1_555
N12H C17H 1_555 1_555
O1H W1H 1_555 1_555
O2H W1H 1_555 1_555
O3H W1H 1_555 1_555
O4H W2H 1_555 1_555
O5H W2H 1_555 1_555
O6H W5 1_555 1_555
O7H Cu1H 1_555 1_555
O8H W4 1_555 1_555
O9H W4H 1_555 1_555
O10H W6 1_555 1_555
O11H W1H 1_555 1_555
O12H W4H 1_555 1_555
O13H W5H 1_555 1_555
O14H W1H 1_555 1_555
O15H W5H 1_555 1_555
O16H W3H 1_555 1_555
O17H W6H 1_555 1_555
O18H W6 1_555 1_555
W1H O20H 1_555 1_555
W2H O21 1_555 1_555
W3H O22 1_555 1_555
W4H O8 1_555 1_555
W5H O6 1_555 1_555
W6H O10 1_555 1_555
Cu1A N3H 1_555 1_555
Cu1I N3 1_555 1_555
Cu2E N6 1_555 1_555
Cu2G N9 1_555 1_555
Cu2M N6H 1_555 1_555
Cu2O N9H 1_555 1_555
N3G Cu1H 1_555 1_555
N3O Cu1 1_555 1_555
N6G Cu2 1_555 1_555
N6O Cu2H 1_555 1_555
N9E Cu2 1_555 1_555
N9M Cu2H 1_555 1_555
C5 C6 1_555 1_555
C7 N1 1_555 1_555
C8 N1 1_555 1_555
C9 N4 1_555 1_555
C10 N4 1_555 1_555
C15 C16 1_555 1_555
C17 N10 1_555 1_555
C18 N10 1_555 1_555
C19 N7 1_555 1_555
C20 N7 1_555 1_555
Cu1 N11 1_555 1_555
Cu2 N8 1_555 1_555
N2 N3 1_555 1_555
N5 N6 1_555 1_555
N8 N9 1_555 1_555
N11 N12 1_555 1_555
O5 W3 1_555 1_555
O7 W3 1_555 1_555
O14 W5 1_555 1_555
O16 W6 1_555 1_555
O18 W6H 1_555 1_555
O19 W4 1_555 1_555
O19 W5 1_555 1_555
O20 W1 1_555 1_555
O20 W2 1_555 1_555
O20 W3 1_555 1_555
O21 W5 1_555 1_555
O21 W6 1_555 1_555
O22 W4 1_555 1_555
O22 W6H 1_555 1_555
W2 O21H 1_555 1_555
W3 O22H 1_555 1_555
W6 O22H 1_555 1_555
O19H W4H 1_555 1_555
O19H W5H 1_555 1_555
O20H W2H 1_555 1_555
O20H W3H 1_555 1_555
O21H W5H 1_555 1_555
O21H W6H 1_555 1_555
O22H W4H 1_555 1_555
C5H C6H 1_555 1_555
C7H N1H 1_555 1_555
C8H N1H 1_555 1_555
C9H N4H 1_555 1_555
C10H N4H 1_555 1_555
C15H C16H 1_555 1_555
C17H N10H 1_555 1_555
C18H N10H 1_555 1_555
C19H N7H 1_555 1_555
C20H N7H 1_555 1_555
Cu1H N11H 1_555 1_555
Cu2H N8H 1_555 1_555
N2H N3H 1_555 1_555
N5H N6H 1_555 1_555
N8H N9H 1_555 1_555
N11H N12H 1_555 1_555
O2H W2H 1_555 1_555
O3H W3H 1_555 1_555
O5H W3H 1_555 1_555
O6H W2H 1_555 1_555
O7H W3H 1_555 1_555
O8H W3H 1_555 1_555
O10H W4H 1_555 1_555
O11H W4H 1_555 1_555
O12H W5H 1_555 1_555
O14H W5H 1_555 1_555
O15H W6H 1_555 1_555
O16H W6H 1_555 1_555
O18H W2H 1_555 1_555

#END
