
#######################################################################
#
#                 Cambridge Crystallographic Data Centre
#                                CCDC 
#
#######################################################################
#
# If this CIF has been generated from an entry in the Cambridge 
# Structural Database, then it will include bibliographic, chemical, 
# crystal, experimental, refinement or atomic coordinate data resulting 
# from the CCDC's data processing and validation procedures.
#
#######################################################################

data_PARPII
_chemical_formula_moiety         '(C12 H9 Al1 O6)n'
_symmetry_cell_setting           monoclinic
_symmetry_space_group_name_H-M   'C 2/c'
_symmetry_Int_Tables_number      15
_space_group_name_Hall           '-C 2yc'
loop_
_symmetry_equiv_pos_site_id
_symmetry_equiv_pos_as_xyz
1 x,y,z
2 -x,y,1/2-z
3 1/2+x,1/2+y,z
4 1/2-x,1/2+y,1/2-z
5 -x,-y,-z
6 x,-y,1/2+z
7 1/2-x,1/2-y,-z
8 1/2+x,1/2-y,1/2+z
_cell_length_a                   24.598(2)
_cell_length_b                   7.5305(6)
_cell_length_c                   6.5472(5)
_cell_angle_alpha                90
_cell_angle_beta                 106.863(8)
_cell_angle_gamma                90
_cell_volume                     1160.62
loop_
_atom_site_label
_atom_site_type_symbol
_atom_site_fract_x
_atom_site_fract_y
_atom_site_fract_z
Al1 Al 0.0000 0.0000 0.0000
O1 O 0.0000 -0.099(1) -0.2500
O2 O -0.0465(3) 0.175(1) -0.154(1)
O3 O -0.0678(4) 0.1382(9) -0.484(1)
C1 C -0.1442(3) 0.231(2) -0.357(2)
C2 C -0.1835(3) 0.188(2) -0.568(1)
C3 C -0.2803(4) 0.182(2) -0.790(2)
C4 C -0.0870(4) 0.176(2) -0.328(2)
C5 C -0.242(4) 0.203(2) -0.580(2)
C6 C -0.1610(3) 0.294(2) -0.193(2)
Al1A Al -0.0000 0.0000 -0.5000
Al1B Al -0.5000 0.5000 -1.0000
Al1C Al -0.5000 0.5000 -0.5000
O1D O 0.0000 0.099(1) 0.2500
O2F O -0.4535(3) 0.325(1) -0.846(1)
O2D O 0.0465(3) -0.175(1) 0.154(1)
O3F O -0.4322(4) 0.3618(9) -0.516(1)
O3A O 0.0678(4) 0.1382(9) -0.016(1)
O3E O -0.0678(4) -0.1382(9) 0.016(1)
C1F C -0.3558(3) 0.269(2) -0.643(2)
C2F C -0.3165(3) 0.312(2) -0.432(1)
C3F C -0.2197(4) 0.318(2) -0.210(2)
C4F C -0.4130(4) 0.324(2) -0.672(2)
C5F C -0.258(4) 0.297(2) -0.420(2)
C6F C -0.3390(3) 0.206(2) -0.807(2)
O4 O 0.0000 -0.458(1) 0.7500
loop_
_geom_bond_atom_site_label_1
_geom_bond_atom_site_label_2
_geom_bond_site_symmetry_1
_geom_bond_site_symmetry_2
Al1 O1 1_555 1_555
O1 Al1A 1_555 1_555
O2 Al1 1_555 1_555
O3 C4 1_555 1_555
C1 C2 1_555 1_555
C2 C5 1_555 1_555
C3 C5 1_555 1_555
C4 O2 1_555 1_555
C5 C5F 1_555 1_555
C6 C1 1_555 1_555
Al1A O3 1_555 1_555
Al1B O2F 1_555 1_555
Al1C O3F 1_555 1_555
O1D Al1 1_555 1_555
O2F C4F 1_555 1_555
O2D Al1 1_555 1_555
O3F C4F 1_555 1_555
O3A Al1 1_555 1_555
O3E Al1 1_555 1_555
C1F C2F 1_555 1_555
C2F C5F 1_555 1_555
C3F C6 1_555 1_555
C4F C1F 1_555 1_555
C5F C3F 1_555 1_555
C6F C3 1_555 1_555
C1 C4 1_555 1_555
C1F C6F 1_555 1_555

#END
