
#######################################################################
#
#                 Cambridge Crystallographic Data Centre
#                                CCDC 
#
#######################################################################
#
# If this CIF has been generated from an entry in the Cambridge 
# Structural Database, then it will include bibliographic, chemical, 
# crystal, experimental, refinement or atomic coordinate data resulting 
# from the CCDC's data processing and validation procedures.
#
#######################################################################

data_HALQUJ
_chemical_formula_moiety         '(C48 H50 Cu2 N12 O7 S3)n'
_symmetry_cell_setting           monoclinic
_symmetry_space_group_name_H-M   'P 21/c'
_symmetry_Int_Tables_number      14
_space_group_name_Hall           '-P 2ybc'
loop_
_symmetry_equiv_pos_site_id
_symmetry_equiv_pos_as_xyz
1 x,y,z
2 -x,1/2+y,1/2-z
3 -x,-y,-z
4 x,1/2-y,1/2+z
_cell_length_a                   17.8729(6)
_cell_length_b                   8.7298(3)
_cell_length_c                   22.7524(9)
_cell_angle_alpha                90
_cell_angle_beta                 96.072(4)
_cell_angle_gamma                90
_cell_volume                     3530.07
loop_
_atom_site_label
_atom_site_type_symbol
_atom_site_fract_x
_atom_site_fract_y
_atom_site_fract_z
Cu1 Cu 0.56745(4) 0.03755(9) 0.75520(3)
N1 N 0.6330(3) -0.0350(5) 0.68880(19)
N2 N 0.7501(2) -0.2445(5) 0.51665(18)
H1 H 0.7029 -0.2264 0.5078
N3 N 0.6493(2) -0.4851(5) 0.32595(18)
N4 N 0.9257(4) -0.1447(9) 0.6858(3)
N5 N 0.9364(3) -0.5015(6) 0.4166(2)
N6 N 0.4984(3) 0.3550(5) 0.7423(2)
C1 C 0.6890(3) 0.0535(7) 0.6737(3)
H2 H 0.6934 0.1519 0.6894
C2 C 0.7408(3) 0.0068(7) 0.6360(3)
H3 H 0.7793 0.0717 0.6271
C3 C 0.7338(3) -0.1375(6) 0.6121(2)
C4 C 0.6754(3) -0.2304(6) 0.6266(2)
H4 H 0.6689 -0.3279 0.6105
C5 C 0.6271(3) -0.1754(6) 0.6655(2)
H5 H 0.5889 -0.2391 0.6758
C6 C 0.7855(3) -0.1963(6) 0.5700(2)
C7 C 0.8602(3) -0.2070(6) 0.5826(2)
C8 C 0.9130(3) -0.2603(6) 0.5376(2)
H6 H 0.9481 -0.3361 0.5566
C9 C 0.8650(3) -0.3372(6) 0.4867(2)
C10 C 0.7897(3) -0.3214(6) 0.4773(2)
C11 C 0.7091(3) -0.3986(7) 0.3206(2)
H7 H 0.7196 -0.3722 0.2827
C12 C 0.7572(3) -0.3450(6) 0.3680(2)
H8 H 0.7986 -0.2848 0.3619
C13 C 0.7420(3) -0.3832(6) 0.4249(2)
C14 C 0.6798(3) -0.4747(6) 0.4314(2)
H9 H 0.6678 -0.5015 0.4689
C15 C 0.6360(3) -0.5254(6) 0.3815(2)
H10 H 0.5956 -0.5899 0.3861
C16 C 0.8954(3) -0.1708(8) 0.6402(3)
C17 C 0.9031(3) -0.4295(6) 0.4473(2)
C18 C 0.9581(3) -0.1254(6) 0.5171(2)
C19 C 0.9245(3) -0.0169(7) 0.4788(3)
H11 H 0.8741 -0.0270 0.4644
C20 C 0.9662(3) 0.1086(6) 0.4615(3)
H12 H 0.9432 0.1811 0.4356
C21 C 0.5276(3) 0.2369(6) 0.7478(2)
N1B N 1.3670(3) 0.0350(5) 0.31120(19)
N2B N 1.2499(2) 0.2445(5) 0.48335(18)
H1B H 1.2971 0.2264 0.4922
N3B N 1.3507(2) 0.4851(5) 0.67405(18)
N4B N 1.0743(4) 0.1447(9) 0.3142(3)
N5B N 1.0636(3) 0.5015(6) 0.5834(2)
C1B C 1.3110(3) -0.0535(7) 0.3263(3)
H2B H 1.3066 -0.1519 0.3106
C2B C 1.2592(3) -0.0068(7) 0.3640(3)
H3B H 1.2207 -0.0717 0.3729
C3B C 1.2662(3) 0.1375(6) 0.3879(2)
C4B C 1.3246(3) 0.2304(6) 0.3734(2)
H4B H 1.3311 0.3279 0.3895
C5B C 1.3729(3) 0.1754(6) 0.3345(2)
H5B H 1.4111 0.2391 0.3242
C6B C 1.2145(3) 0.1963(6) 0.4300(2)
C7B C 1.1398(3) 0.2070(6) 0.4174(2)
C8B C 1.0870(3) 0.2603(6) 0.4624(2)
H6B H 1.0519 0.3361 0.4434
C9B C 1.1350(3) 0.3372(6) 0.5133(2)
C10B C 1.2103(3) 0.3214(6) 0.5227(2)
C11B C 1.2909(3) 0.3986(7) 0.6794(2)
H7B H 1.2804 0.3722 0.7173
C12B C 1.2428(3) 0.3450(6) 0.6320(2)
H8B H 1.2014 0.2848 0.6381
C13B C 1.2580(3) 0.3832(6) 0.5751(2)
C14B C 1.3202(3) 0.4747(6) 0.5686(2)
H9B H 1.3322 0.5015 0.5311
C15B C 1.3640(3) 0.5254(6) 0.6185(2)
H10B H 1.4044 0.5899 0.6139
C16B C 1.1046(3) 0.1708(8) 0.3598(3)
C17B C 1.0969(3) 0.4295(6) 0.5527(2)
C18B C 1.0419(3) 0.1254(6) 0.4829(2)
C19B C 1.0755(3) 0.0169(7) 0.5212(3)
H11B H 1.1259 0.0270 0.5356
C20B C 1.0338(3) -0.1086(6) 0.5385(3)
H12B H 1.0568 -0.1811 0.5644
Cu1B Cu 1.43255(4) -0.03755(9) 0.24480(3)
N6B N 1.5016(3) -0.3550(5) 0.2577(2)
C21B C 1.4724(3) -0.2369(6) 0.2522(2)
Cu1A Cu 0.43255(4) 0.53755(9) 0.74480(3)
Cu1A_2 Cu 1.43255(4) 0.53755(9) 0.74480(3)
Cu1C Cu 0.56745(4) -0.53755(9) 0.25520(3)
Cu1C_2 Cu 1.56745(4) -0.53755(9) 0.25520(3)
N3A N 1.3507(2) 0.0149(5) 0.17405(18)
N3C N 0.6493(2) -0.0149(5) 0.82595(18)
N6A N 0.5016(3) -0.1450(5) 0.7577(2)
N6C N 1.4984(3) 0.1450(5) 0.2423(2)
O1 O 0.3960(3) 0.1433(8) 0.5160(2)
C22 C 0.4310(7) -0.0429(14) 0.6117(5)
H13 H 0.3898 -0.0548 0.6351
H14 H 0.4777 -0.0557 0.6362
H15 H 0.4273 -0.1186 0.5809
C23 C 0.5287(8) 0.1413(19) 0.5701(7)
H16 H 0.5389 0.2276 0.5460
H17 H 0.5417 0.0485 0.5510
H18 H 0.5579 0.1496 0.6079
S1 S 0.42789(14) 0.1380(3) 0.58056(11)
O2 O 0.1809(3) 0.6414(6) 0.33775(19)
C26 C 0.0454(5) 0.5537(17) 0.2978(4)
H25 H 0.0670 0.4743 0.2758
H26 H 0.0374 0.6435 0.2736
H27 H -0.0018 0.5193 0.3096
C27 C 0.0610(8) 0.7763(17) 0.3758(6)
H28 H 0.0512 0.8335 0.3398
H29 H 0.0930 0.8350 0.4040
H30 H 0.0143 0.7550 0.3916
S3 S 0.10708(9) 0.59760(19) 0.36096(7)
O3 O 0.8200(5) 0.2486(9) 0.3118(4)
C29 C 0.7121(4) 0.0465(10) 0.2738(3)
H34 H 0.6873 -0.0501 0.2771
H35 H 0.7292 0.0547 0.2353
H36 H 0.6776 0.1283 0.2792
C30 C 0.7614(3) 0.0679(7) 0.3880(2)
H37 H 0.8004 0.1036 0.4170
H38 H 0.7450 -0.0318 0.3990
H39 H 0.7197 0.1378 0.3857
S4 S 0.79112(9) 0.05874(19) 0.32909(7)
O4 O 0.5708(6) 0.4614(12) 0.6329(5)
O5 O 0.5151(5) 0.6216(13) 0.5438(4)
H40 H 0.555(4) 0.571(16) 0.542(8)
H41 H 0.483(6) 0.573(17) 0.522(7)
O6 O 0.2904(4) 0.8602(9) 0.4988(3)
O8 O 0.3065(3) 0.6145(6) 0.4226(2)
H42 H 0.274(3) 0.636(11) 0.394(3)
H43 H 0.284(4) 0.556(9) 0.444(3)
loop_
_geom_bond_atom_site_label_1
_geom_bond_atom_site_label_2
_geom_bond_site_symmetry_1
_geom_bond_site_symmetry_2
Cu1 N1 1_555 1_555
N1 C1 1_555 1_555
N2 H1 1_555 1_555
N3 C11 1_555 1_555
N4 C16 1_555 1_555
N5 C17 1_555 1_555
N6 C21 1_555 1_555
C1 H2 1_555 1_555
C2 C1 1_555 1_555
H3 C2 1_555 1_555
C3 C2 1_555 1_555
C4 C3 1_555 1_555
H4 C4 1_555 1_555
C5 N1 1_555 1_555
H5 C5 1_555 1_555
C6 N2 1_555 1_555
C7 C6 1_555 1_555
C8 C7 1_555 1_555
H6 C8 1_555 1_555
C9 C8 1_555 1_555
C10 N2 1_555 1_555
C11 H7 1_555 1_555
C12 C11 1_555 1_555
H8 C12 1_555 1_555
C13 C10 1_555 1_555
C14 C13 1_555 1_555
H9 C14 1_555 1_555
C15 N3 1_555 1_555
H10 C15 1_555 1_555
C16 C7 1_555 1_555
C17 C9 1_555 1_555
C18 C8 1_555 1_555
C19 C18 1_555 1_555
H11 C19 1_555 1_555
C20 C19 1_555 1_555
H12 C20 1_555 1_555
C21 Cu1 1_555 1_555
O1 S1 1_555 1_555
C22 H13 1_555 1_555
H14 C22 1_555 1_555
H15 C22 1_555 1_555
C23 H16 1_555 1_555
H17 C23 1_555 1_555
H18 C23 1_555 1_555
S1 C22 1_555 1_555
O2 S3 1_555 1_555
C26 H25 1_555 1_555
H26 C26 1_555 1_555
H27 C26 1_555 1_555
C27 H28 1_555 1_555
H29 C27 1_555 1_555
H30 C27 1_555 1_555
S3 C26 1_555 1_555
O3 S4 1_555 1_555
C29 H34 1_555 1_555
H35 C29 1_555 1_555
H36 C29 1_555 1_555
C30 H37 1_555 1_555
H38 C30 1_555 1_555
H39 C30 1_555 1_555
S4 C29 1_555 1_555
O5 H40 1_555 1_555
H41 O5 1_555 1_555
O8 H42 1_555 1_555
H43 O8 1_555 1_555
N1B C1B 1_555 1_555
N2B H1B 1_555 1_555
N3B C11B 1_555 1_555
N4B C16B 1_555 1_555
N5B C17B 1_555 1_555
C1B H2B 1_555 1_555
C2B C1B 1_555 1_555
H3B C2B 1_555 1_555
C3B C2B 1_555 1_555
C4B C3B 1_555 1_555
H4B C4B 1_555 1_555
C5B N1B 1_555 1_555
H5B C5B 1_555 1_555
C6B N2B 1_555 1_555
C7B C6B 1_555 1_555
C8B C7B 1_555 1_555
H6B C8B 1_555 1_555
C9B C8B 1_555 1_555
C10B N2B 1_555 1_555
C11B H7B 1_555 1_555
C12B C11B 1_555 1_555
H8B C12B 1_555 1_555
C13B C10B 1_555 1_555
C14B C13B 1_555 1_555
H9B C14B 1_555 1_555
C15B N3B 1_555 1_555
H10B C15B 1_555 1_555
C16B C7B 1_555 1_555
C17B C9B 1_555 1_555
C18B C20 1_555 1_555
C19B C18B 1_555 1_555
H11B C19B 1_555 1_555
C20B C18 1_555 1_555
H12B C20B 1_555 1_555
Cu1B N1B 1_555 1_555
N6B C21B 1_555 1_555
C21B Cu1B 1_555 1_555
Cu1A N6 1_555 1_555
Cu1A_2 N3B 1_555 1_555
Cu1C N3 1_555 1_555
Cu1C_2 N6B 1_555 1_555
N3A Cu1B 1_555 1_555
N3C Cu1 1_555 1_555
N6A Cu1 1_555 1_555
N6C Cu1B 1_555 1_555
C3 C6 1_555 1_555
C4 C5 1_555 1_555
C9 C10 1_555 1_555
C12 C13 1_555 1_555
C14 C15 1_555 1_555
C23 S1 1_555 1_555
C27 S3 1_555 1_555
C30 S4 1_555 1_555
C3B C6B 1_555 1_555
C4B C5B 1_555 1_555
C8B C18B 1_555 1_555
C9B C10B 1_555 1_555
C12B C13B 1_555 1_555
C14B C15B 1_555 1_555
C19B C20B 1_555 1_555

#END
