
#######################################################################
#
#                 Cambridge Crystallographic Data Centre
#                                CCDC 
#
#######################################################################
#
# If this CIF has been generated from an entry in the Cambridge 
# Structural Database, then it will include bibliographic, chemical, 
# crystal, experimental, refinement or atomic coordinate data resulting 
# from the CCDC's data processing and validation procedures.
#
#######################################################################

data_LUMYUP
_chemical_formula_moiety         '(C18 H20 Cu4 N19 O1 1-)n'
_symmetry_cell_setting           monoclinic
_symmetry_space_group_name_H-M   'C 2/c'
_symmetry_Int_Tables_number      15
_space_group_name_Hall           '-C 2yc'
loop_
_symmetry_equiv_pos_site_id
_symmetry_equiv_pos_as_xyz
1 x,y,z
2 -x,y,1/2-z
3 1/2+x,1/2+y,z
4 1/2-x,1/2+y,1/2-z
5 -x,-y,-z
6 x,-y,1/2+z
7 1/2-x,1/2-y,-z
8 1/2+x,1/2-y,1/2+z
_cell_length_a                   24.225(5)
_cell_length_b                   9.6254(19)
_cell_length_c                   16.370(3)
_cell_angle_alpha                90
_cell_angle_beta                 118.54(3)
_cell_angle_gamma                90
_cell_volume                     3353.24
loop_
_atom_site_label
_atom_site_type_symbol
_atom_site_fract_x
_atom_site_fract_y
_atom_site_fract_z
_atom_site_U_iso_or_equiv
_atom_site_thermal_displace_type
Cu1 Cu 0.04177(3) 0.38001(6) 0.37793(4) 0.0207 Uani
Cu2 Cu 0.04178(3) 0.18003(6) 0.03391(4) 0.0211 Uani
N1 N 0.13637(18) 0.0155(4) 0.5255(3) 0.0227 Uani
N2 N 0.07839(18) 0.0027(4) 0.5174(3) 0.0210 Uani
N3 N 0.04587(18) 0.1161(4) 0.4808(3) 0.0171 Uani
N4 N 0.08105(18) 0.2062(4) 0.4632(3) 0.0189 Uani
N5 N 0.14096(19) 0.2142(4) 0.2440(3) 0.0203 Uani
N6 N 0.08322(18) 0.2375(4) 0.1744(3) 0.0203 Uani
N7 N 0.04843(18) 0.2956(4) 0.2062(3) 0.0186 Uani
N8 N 0.08235(18) 0.3099(4) 0.2987(3) 0.0184 Uani
N9 N 0.0406(2) 0.4388(6) -0.0749(3) 0.0368 Uani
C1 C 0.2513(2) 0.3018(5) 0.4226(3) 0.0191 Uani
H1 H 0.2521 0.3366 0.3701 0.0230 Uiso
C2 C 0.1946(2) 0.2544(5) 0.4143(3) 0.0172 Uani
C3 C 0.1928(2) 0.2010(5) 0.4928(3) 0.0185 Uani
C4 C 0.1363(2) 0.1417(5) 0.4914(3) 0.0159 Uani
C5 C 0.1389(2) 0.2581(5) 0.3201(3) 0.0166 Uani
C6 C 0.0394(2) 0.3361(5) -0.0421(3) 0.0177 Uani
N1F N 0.36363(18) 0.4845(4) 0.4745(3) 0.0227 Uani
N2F N 0.42161(18) 0.4973(4) 0.4826(3) 0.0210 Uani
N3F N 0.45413(18) 0.3839(4) 0.5192(3) 0.0171 Uani
N4F N 0.41895(18) 0.2938(4) 0.5368(3) 0.0189 Uani
N5F N 0.35904(19) 0.2858(4) 0.7560(3) 0.0203 Uani
N6F N 0.41678(18) 0.2625(4) 0.8256(3) 0.0203 Uani
N7F N 0.45157(18) 0.2044(4) 0.7938(3) 0.0186 Uani
N8F N 0.41765(18) 0.1901(4) 0.7013(3) 0.0184 Uani
C1F C 0.2487(2) 0.1982(5) 0.5774(3) 0.0191 Uani
H1F H 0.2479 0.1634 0.6299 0.0230 Uiso
C2F C 0.3054(2) 0.2456(5) 0.5857(3) 0.0172 Uani
C3F C 0.3072(2) 0.2990(5) 0.5072(3) 0.0185 Uani
C4F C 0.3637(2) 0.3583(5) 0.5086(3) 0.0159 Uani
C5F C 0.3611(2) 0.2419(5) 0.6799(3) 0.0166 Uani
Cu1A Cu -0.04177(3) 0.38001(6) 0.12207(4) 0.0207 Uani
Cu2A Cu -0.04178(3) 0.18003(6) 0.46609(4) 0.0211 Uani
N9A N -0.0406(2) 0.4388(6) 0.5749(3) 0.0368 Uani
C6A C -0.0394(2) 0.3361(5) 0.5421(3) 0.0177 Uani
Cu1D Cu -0.04177(3) 0.61999(6) 0.62207(4) 0.0207 Uani
Cu1E Cu 0.04177(3) 0.61999(6) -0.12207(4) 0.0207 Uani
Cu1F Cu 0.45823(3) 0.11999(6) 0.62207(4) 0.0207 Uani
Cu1G Cu 0.54177(3) 0.11999(6) 0.87793(4) 0.0207 Uani
Cu2C Cu 0.45822(3) 0.68003(6) 0.46609(4) 0.0211 Uani
Cu2E Cu 0.04178(3) -0.18003(6) 0.53391(4) 0.0211 Uani
Cu2F Cu 0.45822(3) 0.31997(6) 0.96609(4) 0.0211 Uani
Cu2G Cu 0.54178(3) 0.31997(6) 0.53391(4) 0.0211 Uani
N2D N -0.07839(18) -0.0027(4) 0.4826(3) 0.0210 Uani
N2E N 0.07839(18) -0.0027(4) 0.0174(3) 0.0210 Uani
N3A N -0.04587(18) 0.1161(4) 0.0192(3) 0.0171 Uani
N4A N -0.08105(18) 0.2062(4) 0.0368(3) 0.0189 Uani
N6A N -0.08322(18) 0.2375(4) 0.3256(3) 0.0203 Uani
N7A N -0.04843(18) 0.2956(4) 0.2938(3) 0.0186 Uani
N8A N -0.08235(18) 0.3099(4) 0.2013(3) 0.0184 Uani
N9D N -0.0406(2) 0.5612(6) 0.0749(3) 0.0368 Uani
N9E N 0.0406(2) 0.5612(6) 0.4251(3) 0.0368 Uani
O1 O 0.2820(3) 0.3196(8) 0.8429(5) 0.0858 Uani
N10 N 0.1588(3) 0.2687(7) 0.7893(5) 0.0659 Uani
H2 H 0.2009 0.2752 0.8103 0.0790 Uiso
C7 C 0.1424(7) 0.4287(12) 0.6582(8) 0.1065 Uani
H3 H 0.1332 0.5045 0.6879 0.1600 Uiso
H4 H 0.1196 0.4407 0.5920 0.1600 Uiso
H5 H 0.1867 0.4269 0.6782 0.1600 Uiso
C8 C 0.1249(7) 0.3057(17) 0.6819(10) 0.1271 Uani
H6 H 0.1328 0.2309 0.6490 0.1520 Uiso
H7 H 0.0799 0.3086 0.6598 0.1520 Uiso
C9 C 0.1842(6) 0.3649(14) 0.9446(9) 0.1072 Uani
H8 H 0.1815 0.2731 0.9654 0.1600 Uiso
H9 H 0.1692 0.4313 0.9732 0.1600 Uiso
H10 H 0.2272 0.3852 0.9616 0.1600 Uiso
C10 C 0.1425(6) 0.3732(15) 0.8348(10) 0.1148 Uani
H11 H 0.0986 0.3634 0.8184 0.1380 Uiso
H12 H 0.1479 0.4637 0.8135 0.1380 Uiso
C11 C 0.0734(6) 0.1003(13) 0.7610(10) 0.1145 Uani
H13 H 0.0585 0.1757 0.7836 0.1710 Uiso
H14 H 0.0693 0.0147 0.7877 0.1710 Uiso
H15 H 0.0489 0.0955 0.6945 0.1710 Uiso
C12 C 0.1443(6) 0.1249(11) 0.7889(11) 0.1073 Uani
H16 H 0.1705 0.0865 0.8503 0.1290 Uiso
H17 H 0.1540 0.0761 0.7455 0.1290 Uiso
loop_
_atom_site_aniso_label
_atom_site_aniso_U_11
_atom_site_aniso_U_22
_atom_site_aniso_U_33
_atom_site_aniso_U_23
_atom_site_aniso_U_13
_atom_site_aniso_U_12
Cu1 0.0196(4) 0.0198(4) 0.0222(4) -0.0025(2) 0.0096(3) 0.0000(2)
Cu2 0.0215(4) 0.0207(4) 0.0238(4) 0.0003(2) 0.0131(3) 0.0015(2)
N1 0.0135(19) 0.023(2) 0.034(2) 0.0062(18) 0.0132(18) 0.0007(16)
N2 0.0131(19) 0.024(2) 0.028(2) 0.0022(17) 0.0115(17) -0.0012(17)
N3 0.0126(19) 0.019(2) 0.020(2) 0.0039(15) 0.0080(16) 0.0002(15)
N4 0.0140(19) 0.022(2) 0.023(2) 0.0015(16) 0.0108(16) -0.0033(16)
N5 0.0148(19) 0.028(2) 0.017(2) 0.0018(17) 0.0067(16) 0.0028(17)
N6 0.0132(19) 0.030(2) 0.0170(19) -0.0020(17) 0.0067(16) -0.0009(17)
N7 0.0134(19) 0.027(2) 0.015(2) -0.0021(16) 0.0064(16) 0.0003(17)
N8 0.0146(19) 0.024(2) 0.0155(19) -0.0017(16) 0.0063(16) -0.0026(16)
N9 0.030(3) 0.046(3) 0.034(3) -0.007(2) 0.015(2) -0.001(2)
C1 0.013(2) 0.026(3) 0.019(2) 0.0041(19) 0.0081(19) 0.0003(19)
C2 0.012(2) 0.022(2) 0.015(2) -0.0008(18) 0.0044(17) -0.0001(18)
C3 0.016(2) 0.020(2) 0.021(2) 0.0025(18) 0.010(2) 0.0000(19)
C4 0.012(2) 0.020(2) 0.015(2) 0.0024(18) 0.0058(18) -0.0017(18)
C5 0.012(2) 0.020(2) 0.017(2) 0.0020(18) 0.0064(18) 0.0001(18)
C6 0.024(3) 0.011(2) 0.021(2) 0.0079(18) 0.013(2) 0.0013(18)
N1F 0.0135 0.023 0.034 0.0062 0.0132 0.0007
N2F 0.0131 0.024 0.028 0.0022 0.0115 -0.0012
N3F 0.0126 0.019 0.02 0.0039 0.008 0.0002
N4F 0.014 0.022 0.023 0.0015 0.0108 -0.0033
N5F 0.0148 0.028 0.017 0.0018 0.0067 0.0028
N6F 0.0132 0.03 0.017 -0.002 0.0067 -0.0009
N7F 0.0134 0.027 0.015 -0.0021 0.0064 0.0003
N8F 0.0146 0.024 0.0155 -0.0017 0.0063 -0.0026
C1F 0.013 0.026 0.019 0.0041 0.0081 0.0003
C2F 0.012 0.022 0.015 -0.0008 0.0044 -0.0001
C3F 0.016 0.02 0.021 0.0025 0.01 0
C4F 0.012 0.02 0.015 0.0024 0.0058 -0.0017
C5F 0.012 0.02 0.017 0.002 0.0064 0.0001
Cu1A 0.0196 0.0198 0.0222 0.0025 0.0096 0
Cu2A 0.0215 0.0207 0.0238 -0.0003 0.0131 -0.0015
N9A 0.03 0.046 0.034 0.007 0.015 0.001
C6A 0.024 0.011 0.021 -0.0079 0.013 -0.0013
Cu1D 0.0196 0.0198 0.0222 -0.0025 0.0096 0
Cu1E 0.0196 0.0198 0.0222 0.0025 0.0096 0
Cu1F 0.0196 0.0198 0.0222 -0.0025 0.0096 0
Cu1G 0.0196 0.0198 0.0222 0.0025 0.0096 0
Cu2C 0.0215 0.0207 0.0238 -0.0003 0.0131 -0.0015
Cu2E 0.0215 0.0207 0.0238 -0.0003 0.0131 -0.0015
Cu2F 0.0215 0.0207 0.0238 0.0003 0.0131 0.0015
Cu2G 0.0215 0.0207 0.0238 -0.0003 0.0131 -0.0015
N2D 0.0131 0.024 0.028 0.0022 0.0115 -0.0012
N2E 0.0131 0.024 0.028 -0.0022 0.0115 0.0012
N3A 0.0126 0.019 0.02 -0.0039 0.008 -0.0002
N4A 0.014 0.022 0.023 -0.0015 0.0108 0.0033
N6A 0.0132 0.03 0.017 0.002 0.0067 0.0009
N7A 0.0134 0.027 0.015 0.0021 0.0064 -0.0003
N8A 0.0146 0.024 0.0155 0.0017 0.0063 0.0026
N9D 0.03 0.046 0.034 -0.007 0.015 -0.001
N9E 0.03 0.046 0.034 0.007 0.015 0.001
O1 0.055(3) 0.130(5) 0.091(4) -0.057(4) 0.050(3) -0.035(3)
N10 0.052(4) 0.052(4) 0.089(5) -0.013(4) 0.030(4) 0.003(3)
C7 0.143(8) 0.088(6) 0.071(6) -0.008(5) 0.037(5) 0.013(6)
C8 0.124(8) 0.139(8) 0.104(7) -0.001(6) 0.043(6) -0.017(7)
C9 0.105(7) 0.126(7) 0.111(6) 0.001(6) 0.068(5) 0.014(6)
C10 0.106(7) 0.123(8) 0.126(7) -0.029(6) 0.064(6) 0.017(6)
C11 0.087(6) 0.096(7) 0.149(8) -0.005(6) 0.047(6) -0.012(5)
C12 0.093(6) 0.073(6) 0.146(8) -0.009(6) 0.049(6) -0.008(5)
loop_
_geom_bond_atom_site_label_1
_geom_bond_atom_site_label_2
_geom_bond_site_symmetry_1
_geom_bond_site_symmetry_2
Cu1 N4 1_555 1_555
Cu2 N6 1_555 1_555
N1 N2 1_555 1_555
N2 N3 1_555 1_555
N3 N4 1_555 1_555
N4 C4 1_555 1_555
N5 N6 1_555 1_555
N6 N7 1_555 1_555
N7 N8 1_555 1_555
N8 Cu1 1_555 1_555
N9 C6 1_555 1_555
C1 H1 1_555 1_555
C2 C1 1_555 1_555
C3 C2 1_555 1_555
C4 N1 1_555 1_555
C5 N5 1_555 1_555
C6 Cu2 1_555 1_555
N10 H2 1_555 1_555
C7 H3 1_555 1_555
H4 C7 1_555 1_555
H5 C7 1_555 1_555
C8 N10 1_555 1_555
H6 C8 1_555 1_555
H7 C8 1_555 1_555
C9 H8 1_555 1_555
H9 C9 1_555 1_555
H10 C9 1_555 1_555
C10 N10 1_555 1_555
H11 C10 1_555 1_555
H12 C10 1_555 1_555
C11 H13 1_555 1_555
H14 C11 1_555 1_555
H15 C11 1_555 1_555
C12 N10 1_555 1_555
H16 C12 1_555 1_555
H17 C12 1_555 1_555
N1F N2F 1_555 1_555
N2F N3F 1_555 1_555
N3F N4F 1_555 1_555
N4F C4F 1_555 1_555
N5F N6F 1_555 1_555
N6F N7F 1_555 1_555
N7F N8F 1_555 1_555
N8F C5F 1_555 1_555
C1F C3 1_555 1_555
H1F C1F 1_555 1_555
C2F C1F 1_555 1_555
C3F C1 1_555 1_555
C4F N1F 1_555 1_555
C5F N5F 1_555 1_555
Cu1A N7 1_555 1_555
Cu2A N3 1_555 1_555
N9A C6A 1_555 1_555
C6A Cu2A 1_555 1_555
Cu1D N9A 1_555 1_555
Cu1E N9 1_555 1_555
Cu1F N4F 1_555 1_555
Cu1G N7F 1_555 1_555
Cu2C N2F 1_555 1_555
Cu2E N2 1_555 1_555
Cu2F N6F 1_555 1_555
Cu2G N3F 1_555 1_555
N2D Cu2A 1_555 1_555
N2E Cu2 1_555 1_555
N3A Cu2 1_555 1_555
N4A Cu1A 1_555 1_555
N6A Cu2A 1_555 1_555
N7A Cu1 1_555 1_555
N8A Cu1A 1_555 1_555
N9D Cu1A 1_555 1_555
N9E Cu1 1_555 1_555
N8 C5 1_555 1_555
C2 C5 1_555 1_555
C3 C4 1_555 1_555
C7 C8 1_555 1_555
C9 C10 1_555 1_555
C11 C12 1_555 1_555
N8F Cu1F 1_555 1_555
C2F C3F 1_555 1_555
C2F C5F 1_555 1_555
C3F C4F 1_555 1_555
N3A N4A 1_555 1_555
N6A N7A 1_555 1_555
N7A N8A 1_555 1_555

#END
