
#######################################################################
#
#                 Cambridge Crystallographic Data Centre
#                                CCDC 
#
#######################################################################
#
# If this CIF has been generated from an entry in the Cambridge 
# Structural Database, then it will include bibliographic, chemical, 
# crystal, experimental, refinement or atomic coordinate data resulting 
# from the CCDC's data processing and validation procedures.
#
#######################################################################

data_LUMYEZ
_chemical_formula_moiety         '(C12 H9 Cu4 N18 O3 1-)n'
_symmetry_cell_setting           monoclinic
_symmetry_space_group_name_H-M   'C 2/c'
_symmetry_Int_Tables_number      15
_space_group_name_Hall           '-C 2yc'
loop_
_symmetry_equiv_pos_site_id
_symmetry_equiv_pos_as_xyz
1 x,y,z
2 -x,y,1/2-z
3 1/2+x,1/2+y,z
4 1/2-x,1/2+y,1/2-z
5 -x,-y,-z
6 x,-y,1/2+z
7 1/2-x,1/2-y,-z
8 1/2+x,1/2-y,1/2+z
_cell_length_a                   24.258(5)
_cell_length_b                   9.4877(19)
_cell_length_c                   16.473(3)
_cell_angle_alpha                90
_cell_angle_beta                 118.79(3)
_cell_angle_gamma                90
_cell_volume                     3322.66
loop_
_atom_site_label
_atom_site_type_symbol
_atom_site_fract_x
_atom_site_fract_y
_atom_site_fract_z
_atom_site_U_iso_or_equiv
_atom_site_thermal_displace_type
Cu1 Cu 0.04272(3) 0.17662(6) 0.03882(4) 0.0242 Uani
Cu2 Cu 0.04255(3) 0.38483(6) 0.37785(4) 0.0251 Uani
N1 N 0.13703(19) 0.0186(5) 0.5300(3) 0.0302 Uani
N2 N 0.07927(18) 0.0066(5) 0.5216(3) 0.0257 Uani
N3 N 0.04633(18) 0.1198(4) 0.4829(3) 0.0219 Uani
N4 N 0.08149(18) 0.2100(4) 0.4640(3) 0.0233 Uani
N5 N 0.08264(18) 0.3183(4) 0.2988(3) 0.0222 Uani
N6 N 0.04816(18) 0.3015(5) 0.2069(3) 0.0228 Uani
N7 N 0.08206(19) 0.2366(5) 0.1764(3) 0.0261 Uani
N8 N 0.13992(18) 0.2109(5) 0.2476(3) 0.0277 Uani
N9 N 0.0440(2) 0.4345(6) -0.0712(4) 0.0457 Uani
C1 C 0.2509(2) 0.3028(6) 0.4230(3) 0.0253 Uani
H1 H 0.2514 0.3390 0.3709 0.0300 Uiso
C2 C 0.1937(2) 0.2566(5) 0.4147(3) 0.0229 Uani
C3 C 0.1928(2) 0.2031(5) 0.4938(3) 0.0238 Uani
C4 C 0.1367(2) 0.1450(5) 0.4934(3) 0.0222 Uani
C5 C 0.1379(2) 0.2608(5) 0.3216(3) 0.0225 Uani
C6 C 0.0436(3) 0.3319(5) -0.0363(4) 0.0264 Uani
N1F N 0.36297(19) 0.4814(5) 0.4700(3) 0.0302 Uani
N2F N 0.42073(18) 0.4934(5) 0.4784(3) 0.0257 Uani
N3F N 0.45367(18) 0.3802(4) 0.5171(3) 0.0219 Uani
N4F N 0.41851(18) 0.2900(4) 0.5360(3) 0.0233 Uani
N5F N 0.41736(18) 0.1817(4) 0.7012(3) 0.0222 Uani
N6F N 0.45184(18) 0.1985(5) 0.7931(3) 0.0228 Uani
N7F N 0.41794(19) 0.2634(5) 0.8236(3) 0.0261 Uani
N8F N 0.36008(18) 0.2891(5) 0.7524(3) 0.0277 Uani
C1F C 0.2491(2) 0.1972(6) 0.5770(3) 0.0253 Uani
H1F H 0.2486 0.1610 0.6291 0.0300 Uiso
C2F C 0.3063(2) 0.2434(5) 0.5853(3) 0.0229 Uani
C3F C 0.3072(2) 0.2969(5) 0.5062(3) 0.0238 Uani
C4F C 0.3633(2) 0.3550(5) 0.5066(3) 0.0222 Uani
C5F C 0.3621(2) 0.2392(5) 0.6784(3) 0.0225 Uani
Cu1A Cu -0.04272(3) 0.17662(6) 0.46118(4) 0.0242 Uani
Cu2A Cu -0.04255(3) 0.38483(6) 0.12215(4) 0.0251 Uani
N9A N -0.0440(2) 0.4345(6) 0.5712(4) 0.0457 Uani
C6A C -0.0436(3) 0.3319(5) 0.5363(4) 0.0264 Uani
Cu1C Cu 0.45728(3) 0.67662(6) 0.46118(4) 0.0242 Uani
Cu1E Cu 0.04272(3) -0.17662(6) 0.53882(4) 0.0242 Uani
Cu1F Cu 0.45728(3) 0.32338(6) 0.96118(4) 0.0242 Uani
Cu1G Cu 0.54272(3) 0.32338(6) 0.53882(4) 0.0242 Uani
Cu2D Cu -0.04255(3) 0.61517(6) 0.62215(4) 0.0251 Uani
Cu2E Cu 0.04255(3) 0.61517(6) -0.12215(4) 0.0251 Uani
Cu2F Cu 0.45745(3) 0.11517(6) 0.62215(4) 0.0251 Uani
Cu2G Cu 0.54255(3) 0.11517(6) 0.87785(4) 0.0251 Uani
N2D N -0.07927(18) -0.0066(5) 0.4784(3) 0.0257 Uani
N2E N 0.07927(18) -0.0066(5) 0.0216(3) 0.0257 Uani
N3A N -0.04633(18) 0.1198(4) 0.0171(3) 0.0219 Uani
N4A N -0.08149(18) 0.2100(4) 0.0360(3) 0.0233 Uani
N5A N -0.08264(18) 0.3183(4) 0.2012(3) 0.0222 Uani
N6A N -0.04816(18) 0.3015(5) 0.2931(3) 0.0228 Uani
N7A N -0.08206(19) 0.2366(5) 0.3236(3) 0.0261 Uani
N9D N -0.0440(2) 0.5655(6) 0.0712(4) 0.0457 Uani
N9E N 0.0440(2) 0.5655(6) 0.4288(4) 0.0457 Uani
O1 O 0.2311(7) 0.8759(16) 0.6898(11) 0.1949 Uani
O2 O 0.3816(13) 0.916(3) 0.8489(19) 0.3286 Uani
O3 O 0.412(2) 0.687(5) 0.736(3) 0.3302 Uani
loop_
_atom_site_aniso_label
_atom_site_aniso_U_11
_atom_site_aniso_U_22
_atom_site_aniso_U_33
_atom_site_aniso_U_23
_atom_site_aniso_U_13
_atom_site_aniso_U_12
Cu1 0.0225(4) 0.0254(4) 0.0273(4) -0.0004(2) 0.0141(3) 0.0013(2)
Cu2 0.0241(4) 0.0243(4) 0.0257(4) -0.0037(2) 0.0111(3) -0.0010(2)
N1 0.0164(19) 0.035(2) 0.040(2) 0.012(2) 0.0141(18) 0.0016(18)
N2 0.0156(18) 0.028(2) 0.033(2) 0.0061(18) 0.0113(17) -0.0015(17)
N3 0.0149(18) 0.024(2) 0.028(2) 0.0026(16) 0.0112(16) -0.0018(16)
N4 0.0144(18) 0.028(2) 0.028(2) 0.0019(17) 0.0106(16) -0.0036(16)
N5 0.0154(18) 0.031(2) 0.0171(19) -0.0003(16) 0.0054(16) -0.0015(16)
N6 0.0151(19) 0.033(2) 0.017(2) -0.0018(16) 0.0051(16) 0.0013(17)
N7 0.0168(19) 0.039(2) 0.020(2) -0.0013(18) 0.0069(16) 0.0039(18)
N8 0.0130(19) 0.043(3) 0.022(2) 0.0006(18) 0.0044(16) 0.0043(18)
N9 0.040(3) 0.054(3) 0.046(3) -0.004(3) 0.023(2) 0.001(3)
C1 0.016(2) 0.039(3) 0.021(2) 0.006(2) 0.009(2) -0.003(2)
C2 0.013(2) 0.033(3) 0.020(2) 0.0019(19) 0.0059(18) -0.0024(19)
C3 0.013(2) 0.030(3) 0.027(3) 0.003(2) 0.0085(19) -0.0023(19)
C4 0.014(2) 0.029(2) 0.021(2) 0.0031(19) 0.0064(18) -0.0040(19)
C5 0.015(2) 0.031(3) 0.020(2) 0.0022(19) 0.0073(18) -0.0031(19)
C6 0.035(3) 0.017(2) 0.030(3) 0.011(2) 0.018(2) 0.001(2)
N1F 0.0164 0.035 0.04 0.012 0.0141 0.0016
N2F 0.0156 0.028 0.033 0.0061 0.0113 -0.0015
N3F 0.0149 0.024 0.028 0.0026 0.0112 -0.0018
N4F 0.0144 0.028 0.028 0.0019 0.0106 -0.0036
N5F 0.0154 0.031 0.0171 -0.0003 0.0054 -0.0015
N6F 0.0151 0.033 0.017 -0.0018 0.0051 0.0013
N7F 0.0168 0.039 0.02 -0.0013 0.0069 0.0039
N8F 0.013 0.043 0.022 0.0006 0.0044 0.0043
C1F 0.016 0.039 0.021 0.006 0.009 -0.003
C2F 0.013 0.033 0.02 0.0019 0.0059 -0.0024
C3F 0.013 0.03 0.027 0.003 0.0085 -0.0023
C4F 0.014 0.029 0.021 0.0031 0.0064 -0.004
C5F 0.015 0.031 0.02 0.0022 0.0073 -0.0031
Cu1A 0.0225 0.0254 0.0273 0.0004 0.0141 -0.0013
Cu2A 0.0241 0.0243 0.0257 0.0037 0.0111 0.001
N9A 0.04 0.054 0.046 0.004 0.023 -0.001
C6A 0.035 0.017 0.03 -0.011 0.018 -0.001
Cu1C 0.0225 0.0254 0.0273 0.0004 0.0141 -0.0013
Cu1E 0.0225 0.0254 0.0273 0.0004 0.0141 -0.0013
Cu1F 0.0225 0.0254 0.0273 -0.0004 0.0141 0.0013
Cu1G 0.0225 0.0254 0.0273 0.0004 0.0141 -0.0013
Cu2D 0.0241 0.0243 0.0257 -0.0037 0.0111 -0.001
Cu2E 0.0241 0.0243 0.0257 0.0037 0.0111 0.001
Cu2F 0.0241 0.0243 0.0257 -0.0037 0.0111 -0.001
Cu2G 0.0241 0.0243 0.0257 0.0037 0.0111 0.001
N2D 0.0156 0.028 0.033 0.0061 0.0113 -0.0015
N2E 0.0156 0.028 0.033 -0.0061 0.0113 0.0015
N3A 0.0149 0.024 0.028 -0.0026 0.0112 0.0018
N4A 0.0144 0.028 0.028 -0.0019 0.0106 0.0036
N5A 0.0154 0.031 0.0171 0.0003 0.0054 0.0015
N6A 0.0151 0.033 0.017 0.0018 0.0051 -0.0013
N7A 0.0168 0.039 0.02 0.0013 0.0069 -0.0039
N9D 0.04 0.054 0.046 -0.004 0.023 0.001
N9E 0.04 0.054 0.046 0.004 0.023 -0.001
O1 0.175(8) 0.214(9) 0.204(9) 0.059(7) 0.098(7) 0.006(7)
O2 0.326(14) 0.325(15) 0.327(14) 0.023(9) 0.151(10) -0.021(9)
O3 0.33(3) 0.34(3) 0.32(3) -0.004(10) 0.156(15) -0.015(10)
loop_
_geom_bond_atom_site_label_1
_geom_bond_atom_site_label_2
_geom_bond_site_symmetry_1
_geom_bond_site_symmetry_2
Cu1 N7 1_555 1_555
Cu2 N4 1_555 1_555
N1 N2 1_555 1_555
N2 N3 1_555 1_555
N3 N4 1_555 1_555
N4 C4 1_555 1_555
N5 Cu2 1_555 1_555
N6 N5 1_555 1_555
N7 N6 1_555 1_555
N8 N7 1_555 1_555
N9 C6 1_555 1_555
C1 H1 1_555 1_555
C2 C1 1_555 1_555
C3 C2 1_555 1_555
C4 N1 1_555 1_555
C5 N5 1_555 1_555
C6 Cu1 1_555 1_555
N1F N2F 1_555 1_555
N2F N3F 1_555 1_555
N3F N4F 1_555 1_555
N4F C4F 1_555 1_555
N5F N6F 1_555 1_555
N6F N7F 1_555 1_555
N7F N8F 1_555 1_555
N8F C5F 1_555 1_555
C1F C3 1_555 1_555
H1F C1F 1_555 1_555
C2F C1F 1_555 1_555
C3F C1 1_555 1_555
C4F N1F 1_555 1_555
C5F N5F 1_555 1_555
Cu1A N3 1_555 1_555
Cu2A N6 1_555 1_555
N9A C6A 1_555 1_555
C6A Cu1A 1_555 1_555
Cu1C N2F 1_555 1_555
Cu1E N2 1_555 1_555
Cu1F N7F 1_555 1_555
Cu1G N3F 1_555 1_555
Cu2D N9A 1_555 1_555
Cu2E N9 1_555 1_555
Cu2F N4F 1_555 1_555
Cu2G N6F 1_555 1_555
N2D Cu1A 1_555 1_555
N2E Cu1 1_555 1_555
N3A Cu1 1_555 1_555
N4A Cu2A 1_555 1_555
N5A Cu2A 1_555 1_555
N6A Cu2 1_555 1_555
N7A Cu1A 1_555 1_555
N9D Cu2A 1_555 1_555
N9E Cu2 1_555 1_555
N8 C5 1_555 1_555
C2 C5 1_555 1_555
C3 C4 1_555 1_555
N5F Cu2F 1_555 1_555
C2F C3F 1_555 1_555
C2F C5F 1_555 1_555
C3F C4F 1_555 1_555
N3A N4A 1_555 1_555
N5A N6A 1_555 1_555
N6A N7A 1_555 1_555

#END
