
#######################################################################
#
#                 Cambridge Crystallographic Data Centre
#                                CCDC 
#
#######################################################################
#
# If this CIF has been generated from an entry in the Cambridge 
# Structural Database, then it will include bibliographic, chemical, 
# crystal, experimental, refinement or atomic coordinate data resulting 
# from the CCDC's data processing and validation procedures.
#
#######################################################################

data_LUMYOJ
_chemical_formula_moiety         '(C12 H8 Cu4 N18 O3)n'
_symmetry_cell_setting           monoclinic
_symmetry_space_group_name_H-M   'C 2/c'
_symmetry_Int_Tables_number      15
_space_group_name_Hall           '-C 2yc'
loop_
_symmetry_equiv_pos_site_id
_symmetry_equiv_pos_as_xyz
1 x,y,z
2 -x,y,1/2-z
3 1/2+x,1/2+y,z
4 1/2-x,1/2+y,1/2-z
5 -x,-y,-z
6 x,-y,1/2+z
7 1/2-x,1/2-y,-z
8 1/2+x,1/2-y,1/2+z
_cell_length_a                   24.338(5)
_cell_length_b                   9.4877(19)
_cell_length_c                   16.502(3)
_cell_angle_alpha                90
_cell_angle_beta                 119.89(3)
_cell_angle_gamma                90
_cell_volume                     3303.64
loop_
_atom_site_label
_atom_site_type_symbol
_atom_site_fract_x
_atom_site_fract_y
_atom_site_fract_z
_atom_site_U_iso_or_equiv
_atom_site_thermal_displace_type
Cu1 Cu 1.042716(13) 0.82361(3) 0.03963(2) 0.0289 Uani
Cu2 Cu 0.957200(13) 0.61493(3) 0.12225(2) 0.0299 Uani
N1 N 0.86306(9) 0.9823(2) -0.02937(15) 0.0334 Uani
N2 N 0.92087(9) 0.9935(2) -0.02155(14) 0.0304 Uani
N3 N 0.95359(8) 0.8789(2) 0.01690(14) 0.0260 Uani
N4 N 0.91801(8) 0.7897(2) 0.03613(14) 0.0263 Uani
N5 N 0.91764(9) 0.6822(2) 0.20098(13) 0.0261 Uani
N6 N 0.95187(9) 0.6989(2) 0.29279(13) 0.0275 Uani
N7 N 0.91779(9) 0.7645(2) 0.32342(14) 0.0308 Uani
N8 N 0.86000(9) 0.7913(3) 0.25217(14) 0.0316 Uani
C1 C 1.04375(12) 0.6686(3) -0.03586(17) 0.0310 Uani
C2 C 0.74918(10) 0.6979(3) 0.07708(17) 0.0305 Uani
H1 H 0.7492 0.6625 0.1296 0.0370 Uiso
C3 C 0.80603(10) 0.7438(3) 0.08491(16) 0.0272 Uani
C4 C 0.80715(10) 0.7963(3) 0.00681(16) 0.0273 Uani
C5 C 0.86330(10) 0.8555(3) 0.00706(16) 0.0270 Uani
C6 C 0.86185(10) 0.7401(3) 0.17876(16) 0.0268 Uani
N9 N 1.04457(12) 0.5666(3) -0.07067(18) 0.0504 Uani
N1F N 0.63694(9) 0.5177(2) 0.02937(15) 0.0334 Uani
N2F N 0.57913(9) 0.5065(2) 0.02155(14) 0.0304 Uani
N3F N 0.54641(8) 0.6211(2) -0.01690(14) 0.0260 Uani
N4F N 0.58199(8) 0.7103(2) -0.03613(14) 0.0263 Uani
N5F N 0.58236(9) 0.8178(2) -0.20098(13) 0.0261 Uani
N6F N 0.54813(9) 0.8011(2) -0.29279(13) 0.0275 Uani
N7F N 0.58221(9) 0.7355(2) -0.32342(14) 0.0308 Uani
N8F N 0.64000(9) 0.7087(3) -0.25217(14) 0.0316 Uani
C2F C 0.75082(10) 0.8021(3) -0.07708(17) 0.0305 Uani
H1F H 0.7508 0.8375 -0.1296 0.0370 Uiso
C3F C 0.69397(10) 0.7562(3) -0.08491(16) 0.0272 Uani
C4F C 0.69285(10) 0.7037(3) -0.00681(16) 0.0273 Uani
C5F C 0.63670(10) 0.6445(3) -0.00706(16) 0.0270 Uani
C6F C 0.63815(10) 0.7599(3) -0.17876(16) 0.0268 Uani
Cu1A Cu 0.957284(13) 0.82361(3) 0.46037(2) 0.0289 Uani
Cu2A Cu 1.042800(13) 0.61493(3) 0.37775(2) 0.0299 Uani
C1A C 0.95625(12) 0.6686(3) 0.53586(17) 0.0310 Uani
N9A N 0.95543(12) 0.5666(3) 0.57067(18) 0.0504 Uani
Cu1B Cu 0.542716(13) 0.32361(3) 0.03963(2) 0.0289 Uani
Cu1D Cu 0.957284(13) 1.17639(3) -0.03963(2) 0.0289 Uani
Cu1F Cu 0.457284(13) 0.67639(3) -0.03963(2) 0.0289 Uani
Cu1G Cu 0.542716(13) 0.67639(3) -0.46037(2) 0.0289 Uani
Cu2D Cu 1.042800(13) 0.38507(3) -0.12225(2) 0.0299 Uani
Cu2E Cu 0.957200(13) 0.38507(3) 0.62225(2) 0.0299 Uani
Cu2F Cu 0.542800(13) 0.88507(3) -0.12225(2) 0.0299 Uani
Cu2G Cu 0.457200(13) 0.88507(3) -0.37775(2) 0.0299 Uani
N2D N 1.07913(9) 1.0065(2) 0.02155(14) 0.0304 Uani
N2E N 0.92087(9) 1.0065(2) 0.47845(14) 0.0304 Uani
N3A N 1.04641(8) 0.8789(2) 0.48310(14) 0.0260 Uani
N4A N 1.08199(8) 0.7897(2) 0.46387(14) 0.0263 Uani
N5A N 1.08236(9) 0.6822(2) 0.29902(13) 0.0261 Uani
N6A N 1.04813(9) 0.6989(2) 0.20721(13) 0.0275 Uani
N7A N 1.08221(9) 0.7645(2) 0.17658(14) 0.0308 Uani
N9D N 0.95543(12) 0.4334(3) 0.07067(18) 0.0504 Uani
N9E N 1.04457(12) 0.4334(3) 0.42933(18) 0.0504 Uani
O1 O 0.7649(4) 0.1242(10) 0.8086(6) 0.2958 Uani
H2 H 0.7860 0.0545 0.8419 0.4440 Uiso
H3 H 0.7871 0.1983 0.8189 0.4440 Uiso
O2 O 0.6206(6) 0.0888(15) 0.6620(9) 0.0912 Uani
O3 O 1.0000 0.902(4) 0.7500 0.4212 Uani
loop_
_atom_site_aniso_label
_atom_site_aniso_U_11
_atom_site_aniso_U_22
_atom_site_aniso_U_33
_atom_site_aniso_U_23
_atom_site_aniso_U_13
_atom_site_aniso_U_12
Cu1 0.02449(12) 0.03190(16) 0.03136(13) 0.00049(11) 0.01477(10) -0.00188(11)
Cu2 0.02625(13) 0.03109(16) 0.02978(13) -0.00367(11) 0.01203(10) -0.00132(11)
N1 0.0175(6) 0.0386(9) 0.0417(8) 0.0091(8) 0.0130(6) -0.0006(7)
N2 0.0192(6) 0.0324(8) 0.0385(8) 0.0078(7) 0.0136(6) -0.0016(7)
N3 0.0161(6) 0.0304(9) 0.0316(8) 0.0048(7) 0.0119(5) -0.0013(6)
N4 0.0163(6) 0.0322(8) 0.0288(7) 0.0024(7) 0.0100(5) -0.0033(7)
N5 0.0182(6) 0.0340(9) 0.0229(7) -0.0005(7) 0.0078(5) -0.0017(7)
N6 0.0191(7) 0.0383(9) 0.0225(7) -0.0018(7) 0.0084(5) 0.0008(7)
N7 0.0189(7) 0.0442(10) 0.0257(7) -0.0022(8) 0.0083(5) 0.0035(8)
N8 0.0184(7) 0.0454(10) 0.0275(7) -0.0014(8) 0.0088(6) 0.0030(7)
C1 0.0364(10) 0.0249(11) 0.0353(10) -0.0102(9) 0.0205(8) -0.0009(9)
C2 0.0194(8) 0.0415(12) 0.0295(9) 0.0060(9) 0.0113(6) -0.0029(9)
C3 0.0172(7) 0.0354(10) 0.0263(7) 0.0020(8) 0.0089(6) -0.0034(8)
C4 0.0171(7) 0.0361(10) 0.0280(8) 0.0022(8) 0.0106(6) -0.0024(8)
C5 0.0171(6) 0.0360(9) 0.0274(8) 0.0040(8) 0.0108(6) -0.0030(7)
C6 0.0178(7) 0.0355(10) 0.0245(7) 0.0019(8) 0.0086(6) -0.0017(8)
N9 0.0446 0.0584 0.048 0.0034 0.0229 -0.0019
N1F 0.0175 0.0386 0.0417 0.0091 0.013 -0.0006
N2F 0.0192 0.0324 0.0385 0.0078 0.0136 -0.0016
N3F 0.0161 0.0304 0.0316 0.0048 0.0119 -0.0013
N4F 0.0163 0.0322 0.0288 0.0024 0.01 -0.0033
N5F 0.0182 0.034 0.0229 -0.0005 0.0078 -0.0017
N6F 0.0191 0.0383 0.0225 -0.0018 0.0084 0.0008
N7F 0.0189 0.0442 0.0257 -0.0022 0.0083 0.0035
N8F 0.0184 0.0454 0.0275 -0.0014 0.0088 0.003
C2F 0.0194 0.0415 0.0295 0.006 0.0113 -0.0029
C3F 0.0172 0.0354 0.0263 0.002 0.0089 -0.0034
C4F 0.0171 0.0361 0.028 0.0022 0.0106 -0.0024
C5F 0.0171 0.036 0.0274 0.004 0.0108 -0.003
C6F 0.0178 0.0355 0.0245 0.0019 0.0086 -0.0017
Cu1A 0.02449 0.0319 0.03136 -0.00049 0.01477 0.00188
Cu2A 0.02625 0.03109 0.02978 0.00367 0.01203 0.00132
C1A 0.0364 0.0249 0.0353 0.0102 0.0205 0.0009
N9A 0.0446 0.0584 0.048 -0.0034 0.0229 0.0019
Cu1B 0.02449 0.0319 0.03136 0.00049 0.01477 -0.00188
Cu1D 0.02449 0.0319 0.03136 0.00049 0.01477 -0.00188
Cu1F 0.02449 0.0319 0.03136 0.00049 0.01477 -0.00188
Cu1G 0.02449 0.0319 0.03136 -0.00049 0.01477 0.00188
Cu2D 0.02625 0.03109 0.02978 -0.00367 0.01203 -0.00132
Cu2E 0.02625 0.03109 0.02978 0.00367 0.01203 0.00132
Cu2F 0.02625 0.03109 0.02978 -0.00367 0.01203 -0.00132
Cu2G 0.02625 0.03109 0.02978 0.00367 0.01203 0.00132
N2D 0.0192 0.0324 0.0385 0.0078 0.0136 -0.0016
N2E 0.0192 0.0324 0.0385 -0.0078 0.0136 0.0016
N3A 0.0161 0.0304 0.0316 -0.0048 0.0119 0.0013
N4A 0.0163 0.0322 0.0288 -0.0024 0.01 0.0033
N5A 0.0182 0.034 0.0229 0.0005 0.0078 0.0017
N6A 0.0191 0.0383 0.0225 0.0018 0.0084 -0.0008
N7A 0.0189 0.0442 0.0257 0.0022 0.0083 -0.0035
N9D 0.0446 0.0584 0.048 0.0034 0.0229 -0.0019
N9E 0.0446 0.0584 0.048 -0.0034 0.0229 0.0019
O1 0.294(3) 0.296(3) 0.296(3) 0.022(3) 0.146(2) -0.008(3)
O2 0.087(3) 0.091(3) 0.093(3) 0.011(3) 0.043(2) -0.009(3)
O3 0.423(4) 0.422(4) 0.420(4) 0.000 0.211(2) 0.000
loop_
_geom_bond_atom_site_label_1
_geom_bond_atom_site_label_2
_geom_bond_site_symmetry_1
_geom_bond_site_symmetry_2
Cu1 N3 1_555 1_555
Cu2 N4 1_555 1_555
N1 N2 1_555 1_555
N2 N3 1_555 1_555
N3 N4 1_555 1_555
N4 C5 1_555 1_555
N5 Cu2 1_555 1_555
N6 N5 1_555 1_555
N7 N6 1_555 1_555
N8 N7 1_555 1_555
C1 Cu1 1_555 1_555
C2 H1 1_555 1_555
C3 C2 1_555 1_555
C4 C3 1_555 1_555
C5 N1 1_555 1_555
C6 N5 1_555 1_555
N9 C1 1_555 1_555
O1 H2 1_555 1_555
H3 O1 1_555 1_555
N1F N2F 1_555 1_555
N2F N3F 1_555 1_555
N3F N4F 1_555 1_555
N4F C5F 1_555 1_555
N5F N6F 1_555 1_555
N6F N7F 1_555 1_555
N7F N8F 1_555 1_555
N8F C6F 1_555 1_555
C2F C4 1_555 1_555
H1F C2F 1_555 1_555
C3F C2F 1_555 1_555
C4F C2 1_555 1_555
C5F N1F 1_555 1_555
C6F N5F 1_555 1_555
Cu1A N7 1_555 1_555
Cu2A N6 1_555 1_555
C1A Cu1A 1_555 1_555
N9A C1A 1_555 1_555
Cu1B N2F 1_555 1_555
Cu1D N2 1_555 1_555
Cu1F N3F 1_555 1_555
Cu1G N7F 1_555 1_555
Cu2D N9 1_555 1_555
Cu2E N9A 1_555 1_555
Cu2F N4F 1_555 1_555
Cu2G N6F 1_555 1_555
N2D Cu1 1_555 1_555
N2E Cu1A 1_555 1_555
N3A Cu1A 1_555 1_555
N4A Cu2A 1_555 1_555
N5A Cu2A 1_555 1_555
N6A Cu2 1_555 1_555
N7A Cu1 1_555 1_555
N9D Cu2 1_555 1_555
N9E Cu2A 1_555 1_555
N8 C6 1_555 1_555
C3 C6 1_555 1_555
C4 C5 1_555 1_555
N5F Cu2F 1_555 1_555
C3F C4F 1_555 1_555
C3F C6F 1_555 1_555
C4F C5F 1_555 1_555
N3A N4A 1_555 1_555
N5A N6A 1_555 1_555
N6A N7A 1_555 1_555

#END
