
#######################################################################
#
#                 Cambridge Crystallographic Data Centre
#                                CCDC 
#
#######################################################################
#
# If this CIF has been generated from an entry in the Cambridge 
# Structural Database, then it will include bibliographic, chemical, 
# crystal, experimental, refinement or atomic coordinate data resulting 
# from the CCDC's data processing and validation procedures.
#
#######################################################################

data_LUMYID
_chemical_formula_moiety         '(C12 H9 Cu4 N18 O3 1-)n'
_symmetry_cell_setting           monoclinic
_symmetry_space_group_name_H-M   'C 2/c'
_symmetry_Int_Tables_number      15
_space_group_name_Hall           '-C 2yc'
loop_
_symmetry_equiv_pos_site_id
_symmetry_equiv_pos_as_xyz
1 x,y,z
2 -x,y,1/2-z
3 1/2+x,1/2+y,z
4 1/2-x,1/2+y,1/2-z
5 -x,-y,-z
6 x,-y,1/2+z
7 1/2-x,1/2-y,-z
8 1/2+x,1/2-y,1/2+z
_cell_length_a                   24.321(5)
_cell_length_b                   9.4098(19)
_cell_length_c                   16.628(3)
_cell_angle_alpha                90
_cell_angle_beta                 119.24(3)
_cell_angle_gamma                90
_cell_volume                     3320.53
loop_
_atom_site_label
_atom_site_type_symbol
_atom_site_fract_x
_atom_site_fract_y
_atom_site_fract_z
_atom_site_U_iso_or_equiv
_atom_site_thermal_displace_type
O1 O 0.7717(12) 0.858(2) 0.3185(17) 0.3063 Uani
O2 O 0.915(2) 0.817(5) 0.739(3) 0.5926 Uani
Cu1 Cu 1.04273(3) 0.82357(6) 0.04115(4) 0.0253 Uani
Cu2 Cu 0.95723(3) 0.61430(6) 0.12254(4) 0.0257 Uani
N1 N 0.91824(19) 0.7907(5) 0.0373(3) 0.0236 Uani
N2 N 0.95358(19) 0.8803(4) 0.0172(3) 0.0228 Uani
N3 N 0.92015(19) 0.9927(5) -0.0236(3) 0.0265 Uani
N4 N 0.8624(2) 0.9815(5) -0.0325(3) 0.0317 Uani
N5 N 0.8605(2) 0.7907(5) 0.2511(3) 0.0296 Uani
N6 N 0.9180(2) 0.7638(5) 0.3222(3) 0.0288 Uani
N7 N 0.95211(19) 0.6974(5) 0.2926(3) 0.0241 Uani
N8 N 0.91769(19) 0.6812(4) 0.2009(3) 0.0238 Uani
N9 N 1.0449(3) 0.5661(6) -0.0694(4) 0.0474 Uani
C1 C 0.7493(2) 0.6964(6) 0.0764(3) 0.0249 Uani
H1 H 0.7491 0.6593 0.1281 0.0300 Uiso
C2 C 0.8064(2) 0.7438(5) 0.0845(3) 0.0211 Uani
C3 C 0.8068(2) 0.7970(6) 0.0061(3) 0.0240 Uani
C4 C 0.8628(2) 0.8557(6) 0.0060(3) 0.0230 Uani
C5 C 0.8623(2) 0.7401(5) 0.1776(3) 0.0227 Uani
C6 C 1.0452(3) 0.6683(5) -0.0326(4) 0.0267 Uani
N1F N 0.58176(19) 0.7093(5) -0.0373(3) 0.0236 Uani
N2F N 0.54642(19) 0.6197(4) -0.0172(3) 0.0228 Uani
N3F N 0.57985(19) 0.5073(5) 0.0236(3) 0.0265 Uani
N4F N 0.6376(2) 0.5185(5) 0.0325(3) 0.0317 Uani
N5F N 0.6395(2) 0.7093(5) -0.2511(3) 0.0296 Uani
N6F N 0.5820(2) 0.7362(5) -0.3222(3) 0.0288 Uani
N7F N 0.54789(19) 0.8026(5) -0.2926(3) 0.0241 Uani
N8F N 0.58231(19) 0.8188(4) -0.2009(3) 0.0238 Uani
C1F C 0.7507(2) 0.8036(6) -0.0764(3) 0.0249 Uani
H1F H 0.7509 0.8407 -0.1281 0.0300 Uiso
C2F C 0.6936(2) 0.7562(5) -0.0845(3) 0.0211 Uani
C3F C 0.6932(2) 0.7030(6) -0.0061(3) 0.0240 Uani
C4F C 0.6372(2) 0.6443(6) -0.0060(3) 0.0230 Uani
C5F C 0.6377(2) 0.7599(5) -0.1776(3) 0.0227 Uani
Cu1A Cu 0.95727(3) 0.82357(6) 0.45885(4) 0.0253 Uani
Cu2A Cu 1.04277(3) 0.61430(6) 0.37746(4) 0.0257 Uani
N9A N 0.9551(3) 0.5661(6) 0.5694(4) 0.0474 Uani
C6A C 0.9548(3) 0.6683(5) 0.5326(4) 0.0267 Uani
Cu1B Cu 0.54273(3) 0.32357(6) 0.04115(4) 0.0253 Uani
Cu1D Cu 0.95727(3) 1.17643(6) -0.04115(4) 0.0253 Uani
Cu1F Cu 0.45727(3) 0.67643(6) -0.04115(4) 0.0253 Uani
Cu1G Cu 0.54273(3) 0.67643(6) -0.45885(4) 0.0253 Uani
Cu2D Cu 1.04277(3) 0.38570(6) -0.12254(4) 0.0257 Uani
Cu2E Cu 0.95723(3) 0.38570(6) 0.62254(4) 0.0257 Uani
Cu2F Cu 0.54277(3) 0.88570(6) -0.12254(4) 0.0257 Uani
Cu2G Cu 0.45723(3) 0.88570(6) -0.37746(4) 0.0257 Uani
N1A N 1.08176(19) 0.7907(5) 0.4627(3) 0.0236 Uani
N2A N 1.04642(19) 0.8803(4) 0.4828(3) 0.0228 Uani
N3D N 1.07985(19) 1.0073(5) 0.0236(3) 0.0265 Uani
N3E N 0.92015(19) 1.0073(5) 0.4764(3) 0.0265 Uani
N6A N 1.0820(2) 0.7638(5) 0.1778(3) 0.0288 Uani
N7A N 1.04789(19) 0.6974(5) 0.2074(3) 0.0241 Uani
N8A N 1.08231(19) 0.6812(4) 0.2991(3) 0.0238 Uani
N9D N 0.9551(3) 0.4339(6) 0.0694(4) 0.0474 Uani
N9E N 1.0449(3) 0.4339(6) 0.4306(4) 0.0474 Uani
O3 O 0.8804(11) 0.583(2) 0.8486(15) 0.2731 Uani
loop_
_atom_site_aniso_label
_atom_site_aniso_U_11
_atom_site_aniso_U_22
_atom_site_aniso_U_33
_atom_site_aniso_U_23
_atom_site_aniso_U_13
_atom_site_aniso_U_12
O1 0.305(12) 0.310(12) 0.307(12) -0.016(5) 0.152(7) -0.002(5)
O2 0.59(3) 0.60(3) 0.59(3) -0.001(5) 0.290(16) 0.004(5)
Cu1 0.0228(4) 0.0269(4) 0.0282(4) 0.0005(2) 0.0140(3) -0.0016(2)
Cu2 0.0232(4) 0.0260(4) 0.0263(4) -0.0037(2) 0.0108(3) -0.0008(2)
N1 0.0139(19) 0.027(2) 0.030(2) 0.0032(17) 0.0109(17) -0.0032(16)
N2 0.015(2) 0.026(2) 0.028(2) 0.0024(16) 0.0110(17) -0.0005(16)
N3 0.0164(19) 0.028(2) 0.035(2) 0.0071(18) 0.0125(18) 0.0003(17)
N4 0.015(2) 0.037(2) 0.042(3) 0.014(2) 0.0130(19) 0.0025(18)
N5 0.014(2) 0.047(3) 0.023(2) -0.0022(19) 0.0052(17) 0.0045(19)
N6 0.019(2) 0.044(3) 0.023(2) -0.0016(19) 0.0099(18) 0.0022(19)
N7 0.016(2) 0.036(2) 0.018(2) -0.0013(17) 0.0064(17) 0.0001(17)
N8 0.0146(19) 0.034(2) 0.019(2) -0.0021(16) 0.0053(17) -0.0027(17)
N9 0.041(3) 0.051(3) 0.049(3) 0.002(2) 0.021(2) 0.001(2)
C1 0.016(2) 0.035(3) 0.023(2) 0.005(2) 0.009(2) -0.002(2)
C2 0.010(2) 0.031(2) 0.019(2) 0.0020(19) 0.0044(18) -0.0017(18)
C3 0.012(2) 0.031(2) 0.027(3) 0.002(2) 0.008(2) -0.0031(19)
C4 0.014(2) 0.029(2) 0.023(2) 0.002(2) 0.0066(19) -0.004(2)
C5 0.015(2) 0.031(2) 0.022(2) -0.0008(19) 0.009(2) -0.0036(19)
C6 0.034(3) 0.019(2) 0.032(3) -0.010(2) 0.020(2) -0.002(2)
N1F 0.0139 0.027 0.03 0.0032 0.0109 -0.0032
N2F 0.015 0.026 0.028 0.0024 0.011 -0.0005
N3F 0.0164 0.028 0.035 0.0071 0.0125 0.0003
N4F 0.015 0.037 0.042 0.014 0.013 0.0025
N5F 0.014 0.047 0.023 -0.0022 0.0052 0.0045
N6F 0.019 0.044 0.023 -0.0016 0.0099 0.0022
N7F 0.016 0.036 0.018 -0.0013 0.0064 0.0001
N8F 0.0146 0.034 0.019 -0.0021 0.0053 -0.0027
C1F 0.016 0.035 0.023 0.005 0.009 -0.002
C2F 0.01 0.031 0.019 0.002 0.0044 -0.0017
C3F 0.012 0.031 0.027 0.002 0.008 -0.0031
C4F 0.014 0.029 0.023 0.002 0.0066 -0.004
C5F 0.015 0.031 0.022 -0.0008 0.009 -0.0036
Cu1A 0.0228 0.0269 0.0282 -0.0005 0.014 0.0016
Cu2A 0.0232 0.026 0.0263 0.0037 0.0108 0.0008
N9A 0.041 0.051 0.049 -0.002 0.021 -0.001
C6A 0.034 0.019 0.032 0.01 0.02 0.002
Cu1B 0.0228 0.0269 0.0282 0.0005 0.014 -0.0016
Cu1D 0.0228 0.0269 0.0282 0.0005 0.014 -0.0016
Cu1F 0.0228 0.0269 0.0282 0.0005 0.014 -0.0016
Cu1G 0.0228 0.0269 0.0282 -0.0005 0.014 0.0016
Cu2D 0.0232 0.026 0.0263 -0.0037 0.0108 -0.0008
Cu2E 0.0232 0.026 0.0263 0.0037 0.0108 0.0008
Cu2F 0.0232 0.026 0.0263 -0.0037 0.0108 -0.0008
Cu2G 0.0232 0.026 0.0263 0.0037 0.0108 0.0008
N1A 0.0139 0.027 0.03 -0.0032 0.0109 0.0032
N2A 0.015 0.026 0.028 -0.0024 0.011 0.0005
N3D 0.0164 0.028 0.035 0.0071 0.0125 0.0003
N3E 0.0164 0.028 0.035 -0.0071 0.0125 -0.0003
N6A 0.019 0.044 0.023 0.0016 0.0099 -0.0022
N7A 0.016 0.036 0.018 0.0013 0.0064 -0.0001
N8A 0.0146 0.034 0.019 0.0021 0.0053 0.0027
N9D 0.041 0.051 0.049 0.002 0.021 0.001
N9E 0.041 0.051 0.049 -0.002 0.021 -0.001
O3 0.275(10) 0.274(10) 0.273(10) -0.008(5) 0.136(6) 0.006(5)
loop_
_geom_bond_atom_site_label_1
_geom_bond_atom_site_label_2
_geom_bond_site_symmetry_1
_geom_bond_site_symmetry_2
Cu1 N2 1_555 1_555
Cu2 N1 1_555 1_555
N1 N2 1_555 1_555
N2 N3 1_555 1_555
N3 N4 1_555 1_555
N4 C4 1_555 1_555
N5 N6 1_555 1_555
N6 N7 1_555 1_555
N7 N8 1_555 1_555
N8 Cu2 1_555 1_555
N9 C6 1_555 1_555
C1 H1 1_555 1_555
C2 C1 1_555 1_555
C3 C2 1_555 1_555
C4 N1 1_555 1_555
C5 N5 1_555 1_555
C6 Cu1 1_555 1_555
N1F N2F 1_555 1_555
N2F N3F 1_555 1_555
N3F N4F 1_555 1_555
N4F C4F 1_555 1_555
N5F N6F 1_555 1_555
N6F N7F 1_555 1_555
N7F N8F 1_555 1_555
N8F C5F 1_555 1_555
C1F C3 1_555 1_555
H1F C1F 1_555 1_555
C2F C1F 1_555 1_555
C3F C1 1_555 1_555
C4F N1F 1_555 1_555
C5F N5F 1_555 1_555
Cu1A N6 1_555 1_555
Cu2A N7 1_555 1_555
N9A C6A 1_555 1_555
C6A Cu1A 1_555 1_555
Cu1B N3F 1_555 1_555
Cu1D N3 1_555 1_555
Cu1F N2F 1_555 1_555
Cu1G N6F 1_555 1_555
Cu2D N9 1_555 1_555
Cu2E N9A 1_555 1_555
Cu2F N1F 1_555 1_555
Cu2G N7F 1_555 1_555
N1A Cu2A 1_555 1_555
N2A Cu1A 1_555 1_555
N3D Cu1 1_555 1_555
N3E Cu1A 1_555 1_555
N6A Cu1 1_555 1_555
N7A Cu2 1_555 1_555
N8A Cu2A 1_555 1_555
N9D Cu2 1_555 1_555
N9E Cu2A 1_555 1_555
N8 C5 1_555 1_555
C2 C5 1_555 1_555
C3 C4 1_555 1_555
N8F Cu2F 1_555 1_555
C2F C3F 1_555 1_555
C2F C5F 1_555 1_555
C3F C4F 1_555 1_555
N1A N2A 1_555 1_555
N6A N7A 1_555 1_555
N7A N8A 1_555 1_555

#END
