
#######################################################################
#
#                 Cambridge Crystallographic Data Centre
#                                CCDC 
#
#######################################################################
#
# If this CIF has been generated from an entry in the Cambridge 
# Structural Database, then it will include bibliographic, chemical, 
# crystal, experimental, refinement or atomic coordinate data resulting 
# from the CCDC's data processing and validation procedures.
#
#######################################################################

data_LUMZAW
_chemical_formula_moiety         '(C24 H36 Cu4 N20 O1)n'
_symmetry_cell_setting           monoclinic
_symmetry_space_group_name_H-M   'C c'
_symmetry_Int_Tables_number      9
_space_group_name_Hall           'C -2yc'
loop_
_symmetry_equiv_pos_site_id
_symmetry_equiv_pos_as_xyz
1 x,y,z
2 x,-y,1/2+z
3 1/2+x,1/2+y,z
4 1/2+x,1/2-y,1/2+z
_cell_length_a                   24.349(5)
_cell_length_b                   9.2334(18)
_cell_length_c                   16.959(3)
_cell_angle_alpha                90
_cell_angle_beta                 119.41(3)
_cell_angle_gamma                90
_cell_volume                     3321.43
loop_
_atom_site_label
_atom_site_type_symbol
_atom_site_fract_x
_atom_site_fract_y
_atom_site_fract_z
Cu1 Cu 0.15336(3) 0.67062(8) 0.32335(5)
Cu2 Cu 0.14800(3) 0.89651(8) 0.64849(5)
Cu3 Cu 0.06310(3) 0.68569(8) 0.72744(4)
Cu4 Cu 0.06379(3) 0.87942(8) 0.39709(4)
N1 N 0.1926(3) 0.7387(6) 0.4579(4)
N2 N 0.2493(3) 0.7163(6) 0.5289(4)
N3 N 0.1895(3) 0.8270(5) 0.5735(3)
N4 N 0.1558(3) 0.8065(6) 0.4837(4)
N5 N 0.1872(3) 0.7189(6) 0.7343(4)
N6 N 0.1545(3) 0.6298(6) 0.7595(3)
N7 N 0.1902(3) 0.5225(5) 0.8085(4)
N8 N 0.2490(3) 0.5397(6) 0.8197(4)
N9 N 0.4689(3) 0.8045(7) 1.0232(4)
N10 N 0.5258(3) 0.7664(6) 1.0933(4)
N11 N 0.5581(3) 0.6917(5) 1.0645(4)
N12 N 0.5241(3) 0.6791(5) 0.9732(3)
N13 N 0.5282(3) 0.8042(5) 0.8194(4)
N14 N 0.5636(3) 0.8900(5) 0.7993(4)
N15 N 0.5278(3) 1.0003(6) 0.7504(4)
N16 N 0.4705(3) 0.9886(6) 0.7393(4)
N17 N 0.0572(3) 1.1553(7) 0.2968(4)
N18 N 0.1523(3) 1.1790(7) 0.7425(5)
C1 C 0.2463(3) 0.7707(7) 0.5993(4)
C2 C 0.3018(3) 0.7714(6) 0.6926(4)
C3 C 0.3581(3) 0.8158(7) 0.7012(5)
H1 H 0.3583 0.8504 0.6499
C4 C 0.4144(3) 0.8124(6) 0.7813(4)
C5 C 0.4145(3) 0.7594(6) 0.8593(4)
C6 C 0.3567(3) 0.7183(7) 0.8520(4)
H2 H 0.3560 0.6887 0.9039
C7 C 0.2997(3) 0.7202(6) 0.7691(4)
C8 C 0.2448(3) 0.6610(6) 0.7731(4)
C9 C 0.4708(3) 0.7512(7) 0.9516(4)
C10 C 0.4709(3) 0.8677(7) 0.7824(4)
C11 C 0.0570(3) 1.0538(7) 0.3362(5)
C12 C 0.1513(3) 1.0776(8) 0.7023(5)
Cu1A Cu 0.15336(3) 0.32938(8) 0.82335(5)
Cu1A_2 Cu 0.15336(3) 1.32938(8) 0.82335(5)
Cu1C Cu 0.65336(3) 0.82938(8) 0.82335(5)
Cu2C Cu 0.64800(3) 0.60349(8) 1.14849(5)
Cu3A Cu 0.06310(3) 1.31431(8) 0.22744(4)
Cu3B Cu 0.56310(3) 1.18569(8) 0.72744(4)
Cu3C Cu 0.56310(3) 0.81431(8) 1.22744(4)
Cu4C Cu 0.56379(3) 0.62058(8) 0.89709(4)
N7A N 0.1902(3) 0.4775(5) 0.3085(4)
N10C N 0.0258(3) 0.7336(6) 0.5933(4)
N11C N 0.0581(3) 0.8083(5) 0.5645(4)
N12C N 0.0241(3) 0.8209(5) 0.4732(3)
N13C N 0.0282(3) 0.6958(5) 0.3194(4)
N14C N 0.0636(3) 0.6100(5) 0.2993(4)
N15B N 0.0278(3) 0.5003(6) 0.7504(4)
N17A N 0.0572(3) 0.8447(7) 0.7968(4)
N18A N 0.1523(3) 0.8210(7) 0.2425(5)
O1 O 0.3801(3) 0.0506(9) 0.5573(4)
H3 H 0.3974 0.0640 0.6230
H4 H 0.4003 0.1116 0.5419
N19 N 0.3483(3) 0.6438(7) 0.4667(4)
H5 H 0.3293 0.6891 0.4939
H6 H 0.3197 0.5859 0.4234
C13 C 0.4030(4) 0.5507(10) 0.5370(5)
H7 H 0.4177 0.4902 0.5037
C14 C 0.4598(5) 0.6371(11) 0.6066(7)
H8 H 0.4775 0.6913 0.5762
H9 H 0.4910 0.5718 0.6491
H10 H 0.4466 0.7024 0.6381
C15 C 0.3750(5) 0.4483(12) 0.5798(7)
H11 H 0.4032 0.3685 0.6080
H12 H 0.3350 0.4125 0.5336
H13 H 0.3693 0.5000 0.6244
C16 C 0.3717(5) 0.7604(11) 0.4216(7)
H14 H 0.4068 0.8172 0.4676
C17 C 0.3902(5) 0.6853(12) 0.3552(8)
H15 H 0.4229 0.6156 0.3878
H16 H 0.4051 0.7569 0.3292
H17 H 0.3540 0.6374 0.3080
C18 C 0.3130(5) 0.8575(12) 0.3648(8)
H18 H 0.2793 0.7992 0.3206
H19 H 0.3236 0.9314 0.3348
H20 H 0.2999 0.9018 0.4041
N20 N 0.1508(3) 0.2250(8) 0.5096(5)
H21 H 0.1269 0.1700 0.4607
H22 H 0.1537 0.1781 0.5580
C19 C 0.2167(4) 0.2323(10) 0.5207(5)
H23 H 0.2214 0.3307 0.5033
C20 C 0.2220(4) 0.1347(10) 0.4560(7)
H24 H 0.2184 0.0360 0.4707
H25 H 0.2622 0.1486 0.4593
H26 H 0.1889 0.1558 0.3957
C21 C 0.2657(6) 0.2170(14) 0.6203(7)
H27 H 0.3066 0.2398 0.6285
H28 H 0.2655 0.1194 0.6396
H29 H 0.2557 0.2823 0.6555
C22 C 0.1167(6) 0.3610(12) 0.4995(7)
H30 H 0.1077 0.4073 0.4424
C23 C 0.0493(6) 0.3157(15) 0.4946(10)
H31 H 0.0382 0.2186 0.4720
H32 H 0.0167 0.3810 0.4549
H33 H 0.0539 0.3212 0.5541
C24 C 0.1531(6) 0.4606(15) 0.5742(7)
H34 H 0.1505 0.4310 0.6265
H35 H 0.1365 0.5568 0.5571
H36 H 0.1964 0.4596 0.5882
loop_
_geom_bond_atom_site_label_1
_geom_bond_atom_site_label_2
_geom_bond_site_symmetry_1
_geom_bond_site_symmetry_2
Cu1 N1 1_555 1_555
Cu2 N3 1_555 1_555
Cu3 N6 1_555 1_555
Cu4 N4 1_555 1_555
N1 N2 1_555 1_555
N2 C1 1_555 1_555
N3 N4 1_555 1_555
N4 N1 1_555 1_555
N5 Cu2 1_555 1_555
N6 N5 1_555 1_555
N7 N6 1_555 1_555
N8 N7 1_555 1_555
N9 N10 1_555 1_555
N10 N11 1_555 1_555
N11 N12 1_555 1_555
N12 C9 1_555 1_555
N13 N14 1_555 1_555
N14 N15 1_555 1_555
N15 N16 1_555 1_555
N16 C10 1_555 1_555
N17 C11 1_555 1_555
N18 C12 1_555 1_555
C1 N3 1_555 1_555
C2 C1 1_555 1_555
C3 C2 1_555 1_555
H1 C3 1_555 1_555
C4 C3 1_555 1_555
C5 C4 1_555 1_555
C6 C5 1_555 1_555
H2 C6 1_555 1_555
C7 C2 1_555 1_555
C8 N5 1_555 1_555
C9 N9 1_555 1_555
C10 N13 1_555 1_555
C11 Cu4 1_555 1_555
C12 Cu2 1_555 1_555
O1 H3 1_555 1_555
H4 O1 1_555 1_555
N19 H5 1_555 1_555
H6 N19 1_555 1_555
C13 N19 1_555 1_555
H7 C13 1_555 1_555
C14 C13 1_555 1_555
H8 C14 1_555 1_555
H9 C14 1_555 1_555
H10 C14 1_555 1_555
C15 C13 1_555 1_555
H11 C15 1_555 1_555
H12 C15 1_555 1_555
H13 C15 1_555 1_555
C16 N19 1_555 1_555
H14 C16 1_555 1_555
C17 C16 1_555 1_555
H15 C17 1_555 1_555
H16 C17 1_555 1_555
H17 C17 1_555 1_555
C18 C16 1_555 1_555
H18 C18 1_555 1_555
H19 C18 1_555 1_555
H20 C18 1_555 1_555
N20 H21 1_555 1_555
H22 N20 1_555 1_555
C19 N20 1_555 1_555
H23 C19 1_555 1_555
C20 C19 1_555 1_555
H24 C20 1_555 1_555
H25 C20 1_555 1_555
H26 C20 1_555 1_555
C21 C19 1_555 1_555
H27 C21 1_555 1_555
H28 C21 1_555 1_555
H29 C21 1_555 1_555
C22 N20 1_555 1_555
H30 C22 1_555 1_555
C23 C22 1_555 1_555
H31 C23 1_555 1_555
H32 C23 1_555 1_555
H33 C23 1_555 1_555
C24 C22 1_555 1_555
H34 C24 1_555 1_555
H35 C24 1_555 1_555
H36 C24 1_555 1_555
Cu1A N7 1_555 1_555
Cu1A_2 N18 1_555 1_555
Cu1C N14 1_555 1_555
Cu2C N11 1_555 1_555
Cu3A N17 1_555 1_555
Cu3B N15 1_555 1_555
Cu3C N10 1_555 1_555
Cu4C N12 1_555 1_555
N7A Cu1 1_555 1_555
N10C Cu3 1_555 1_555
N11C Cu2 1_555 1_555
N12C Cu4 1_555 1_555
N13C Cu4 1_555 1_555
N14C Cu1 1_555 1_555
N15B Cu3 1_555 1_555
N17A Cu3 1_555 1_555
N18A Cu1 1_555 1_555
N8 C8 1_555 1_555
N13 Cu4C 1_555 1_555
C4 C10 1_555 1_555
C5 C9 1_555 1_555
C6 C7 1_555 1_555
C7 C8 1_555 1_555
N10C N11C 1_555 1_555
N11C N12C 1_555 1_555
N13C N14C 1_555 1_555

#END
