
#######################################################################
#
#                 Cambridge Crystallographic Data Centre
#                                CCDC 
#
#######################################################################
#
# If this CIF has been generated from an entry in the Cambridge 
# Structural Database, then it will include bibliographic, chemical, 
# crystal, experimental, refinement or atomic coordinate data resulting 
# from the CCDC's data processing and validation procedures.
#
#######################################################################

data_FORKUU
_chemical_formula_moiety         '(C48 H24 F6 I3 N8 O8 Si1 Zn1)n'
_symmetry_cell_setting           tetragonal
_symmetry_space_group_name_H-M   'P 4/m m m'
_symmetry_Int_Tables_number      123
_space_group_name_Hall           '-P 4 2'
loop_
_symmetry_equiv_pos_site_id
_symmetry_equiv_pos_as_xyz
1 x,y,z
2 -y,x,z
3 -x,-y,z
4 y,-x,z
5 x,-y,-z
6 -x,y,-z
7 y,x,-z
8 -y,-x,-z
9 -x,-y,-z
10 y,-x,-z
11 x,y,-z
12 -y,x,-z
13 -x,y,z
14 x,-y,z
15 -y,-x,z
16 y,x,z
_cell_length_a                   19.739(3)
_cell_length_b                   19.739(3)
_cell_length_c                   7.4768(15)
_cell_angle_alpha                90
_cell_angle_beta                 90
_cell_angle_gamma                90
_cell_volume                     2913.17
loop_
_atom_site_label
_atom_site_type_symbol
_atom_site_fract_x
_atom_site_fract_y
_atom_site_fract_z
I1 I 0.3577(2) 0.0000 -0.5000
I2 I 0.5000 0.0000 -0.5000
I1B I 0.6423(2) 0.0000 -0.5000
Zn1 Zn 0.0000 0.0000 0.0000
Si1 Si -0.0000 -0.0000 0.5000
F1 F -0.0000 0.0000 0.2715(6)
F2 F 0.05982(15) 0.05982(15) 0.5000
O1 O 0.3217(2) 0.1149(3) 0.0000
N1 N 0.1096(3) 0.0000 0.0000
N2 N 0.3226(3) 0.0000 0.0000
C1 C 0.1445(3) 0.0000 -0.1462(7)
H1 H 0.1205 0.0000 -0.2563
C2 C 0.2141(3) 0.0000 -0.1528(8)
H2 H 0.2369 0.0000 -0.2646
C3 C 0.2491(3) 0.0000 0.0000
C4 C 0.3546(3) 0.0625(4) 0.0000
C5 C 0.4297(3) 0.0628(4) 0.0000
C6 C 0.4643(3) 0.0000 0.0000
C7 C 0.4642(3) 0.1211(4) 0.0000
H3 H 0.4404 0.1629 0.0000
F2A F -0.05982(15) 0.05982(15) 0.5000
F2B F -0.05982(15) -0.05982(15) 0.5000
F2C F 0.05982(15) -0.05982(15) 0.5000
F1D F 0.0000 0.0000 0.7285(6)
O1B O 0.6783(2) -0.1149(3) 0.0000
N1B N 0.8904(3) 0.0000 0.0000
N2B N 0.6774(3) 0.0000 0.0000
C1B C 0.8555(3) 0.0000 -0.1462(7)
H1B H 0.8795 0.0000 -0.2563
C2B C 0.7859(3) 0.0000 -0.1528(8)
H2B H 0.7631 0.0000 -0.2646
C3B C 0.7509(3) 0.0000 0.0000
C4B C 0.6454(3) -0.0625(4) 0.0000
C5B C 0.5703(3) -0.0628(4) 0.0000
C6B C 0.5357(3) 0.0000 0.0000
C7B C 0.5358(3) -0.1211(4) 0.0000
H3B H 0.5596 -0.1629 0.0000
O1D O 0.3217(2) -0.1149(3) 0.0000
C1D C 0.1445(3) 0.0000 0.1462(7)
H1D H 0.1205 -0.0000 0.2563
C2D C 0.2141(3) 0.0000 0.1528(8)
H2D H 0.2369 -0.0000 0.2646
C4D C 0.3546(3) -0.0625(4) 0.0000
C5D C 0.4297(3) -0.0628(4) 0.0000
C7D C 0.4642(3) -0.1211(4) 0.0000
H3D H 0.4404 -0.1629 0.0000
O1E O 0.6783(2) 0.1149(3) 0.0000
C1E C 0.8555(3) 0.0000 0.1462(7)
H1E H 0.8795 -0.0000 0.2563
C2E C 0.7859(3) 0.0000 0.1528(8)
H2E H 0.7631 -0.0000 0.2646
C4E C 0.6454(3) 0.0625(4) 0.0000
C5E C 0.5703(3) 0.0628(4) 0.0000
C7E C 0.5358(3) 0.1211(4) 0.0000
H3E H 0.5596 0.1629 0.0000
O1A O -0.1149(3) -0.6783(2) 0.0000
N1A N 0.0000 -0.8904(3) 0.0000
N2A N 0.0000 -0.6774(3) 0.0000
C1A C -0.0000 -0.8555(3) -0.1462(7)
H1A H -0.0000 -0.8795 -0.2563
C2A C 0.0000 -0.7859(3) -0.1528(8)
H2A H -0.0000 -0.7631 -0.2646
C3A C 0.0000 -0.7509(3) 0.0000
C4A C -0.0625(4) -0.6454(3) 0.0000
C5A C -0.0628(4) -0.5703(3) 0.0000
C6A C 0.0000 -0.5357(3) 0.0000
C7A C -0.1211(4) -0.5358(3) 0.0000
H3A H -0.1629 -0.5596 0.0000
O1C O 0.1149(3) -0.3217(2) 0.0000
N1C N -0.0000 -0.1096(3) 0.0000
N2C N 0.0000 -0.3226(3) 0.0000
C1C C -0.0000 -0.1445(3) -0.1462(7)
H1C H -0.0000 -0.1205 -0.2563
C2C C 0.0000 -0.2141(3) -0.1528(8)
H2C H 0.0000 -0.2369 -0.2646
C3C C 0.0000 -0.2491(3) 0.0000
C4C C 0.0625(4) -0.3546(3) 0.0000
C5C C 0.0628(4) -0.4297(3) 0.0000
C6C C -0.0000 -0.4643(3) 0.0000
C7C C 0.1211(4) -0.4642(3) 0.0000
H3C H 0.1629 -0.4404 0.0000
O1F O 0.1149(3) -0.6783(2) 0.0000
C1F C 0.0000 -0.8555(3) 0.1462(7)
H1F H 0.0000 -0.8795 0.2563
C2F C 0.0000 -0.7859(3) 0.1528(8)
H2F H 0.0000 -0.7631 0.2646
C4F C 0.0625(4) -0.6454(3) 0.0000
C5F C 0.0628(4) -0.5703(3) 0.0000
C7F C 0.1211(4) -0.5358(3) 0.0000
H3F H 0.1629 -0.5596 0.0000
O1G O -0.1149(3) -0.3217(2) 0.0000
C1G C -0.0000 -0.1445(3) 0.1462(7)
H1G H -0.0000 -0.1205 0.2563
C2G C 0.0000 -0.2141(3) 0.1528(8)
H2G H 0.0000 -0.2369 0.2646
C4G C -0.0625(4) -0.3546(3) 0.0000
C5G C -0.0628(4) -0.4297(3) 0.0000
C7G C -0.1211(4) -0.4642(3) 0.0000
H3G H -0.1629 -0.4404 0.0000
Zn1_2 Zn 0.0000 -1.0000 0.0000
Zn1_3 Zn -0.0000 -0.0000 1.0000
Zn1_4 Zn 1.0000 0.0000 0.0000
F1D_2 F 0.0000 0.0000 -0.2715(6)
N1A_2 N 0.0000 0.1096(3) 0.0000
N1B_2 N -0.1096(3) 0.0000 0.0000
loop_
_geom_bond_atom_site_label_1
_geom_bond_atom_site_label_2
_geom_bond_site_symmetry_1
_geom_bond_site_symmetry_2
Zn1 F1 1_555 1_555
Si1 F1 1_555 1_555
F2 Si1 1_555 1_555
O1 C4 1_555 1_555
N1 Zn1 1_555 1_555
N2 C3 1_555 1_555
C1 N1 1_555 1_555
H1 C1 1_555 1_555
C2 C1 1_555 1_555
H2 C2 1_555 1_555
C3 C2 1_555 1_555
C4 N2 1_555 1_555
C5 C4 1_555 1_555
C6 C5 1_555 1_555
C7 C5 1_555 1_555
H3 C7 1_555 1_555
I1 I2 1_555 1_555
I2 I1B 1_555 1_555
F2A Si1 1_555 1_555
F2B Si1 1_555 1_555
F2C Si1 1_555 1_555
F1D Si1 1_555 1_555
O1B C4B 1_555 1_555
N1B C1B 1_555 1_555
N2B C3B 1_555 1_555
C1B H1B 1_555 1_555
C2B C1B 1_555 1_555
H2B C2B 1_555 1_555
C3B C2B 1_555 1_555
C4B N2B 1_555 1_555
C5B C4B 1_555 1_555
C6B C6 1_555 1_555
C7B C5B 1_555 1_555
H3B C7B 1_555 1_555
O1D C4D 1_555 1_555
C1D N1 1_555 1_555
H1D C1D 1_555 1_555
C2D C3 1_555 1_555
H2D C2D 1_555 1_555
C4D N2 1_555 1_555
C5D C6 1_555 1_555
C7D C7B 1_555 1_555
H3D C7D 1_555 1_555
O1E C4E 1_555 1_555
C1E N1B 1_555 1_555
H1E C1E 1_555 1_555
C2E C3B 1_555 1_555
H2E C2E 1_555 1_555
C4E N2B 1_555 1_555
C5E C6B 1_555 1_555
C7E C7 1_555 1_555
H3E C7E 1_555 1_555
O1A C4A 1_555 1_555
N1A C1A 1_555 1_555
N2A C3A 1_555 1_555
C1A H1A 1_555 1_555
C2A C1A 1_555 1_555
H2A C2A 1_555 1_555
C3A C2A 1_555 1_555
C4A N2A 1_555 1_555
C5A C4A 1_555 1_555
C6A C5A 1_555 1_555
C7A C5A 1_555 1_555
H3A C7A 1_555 1_555
O1C C4C 1_555 1_555
N1C Zn1 1_555 1_555
N2C C3C 1_555 1_555
C1C N1C 1_555 1_555
H1C C1C 1_555 1_555
C2C C1C 1_555 1_555
H2C C2C 1_555 1_555
C3C C2C 1_555 1_555
C4C N2C 1_555 1_555
C5C C4C 1_555 1_555
C6C C6A 1_555 1_555
C7C C5C 1_555 1_555
H3C C7C 1_555 1_555
O1F C4F 1_555 1_555
C1F N1A 1_555 1_555
H1F C1F 1_555 1_555
C2F C3A 1_555 1_555
H2F C2F 1_555 1_555
C4F N2A 1_555 1_555
C5F C6A 1_555 1_555
C7F C7C 1_555 1_555
H3F C7F 1_555 1_555
O1G C4G 1_555 1_555
C1G N1C 1_555 1_555
H1G C1G 1_555 1_555
C2G C3C 1_555 1_555
H2G C2G 1_555 1_555
C4G N2C 1_555 1_555
C5G C6C 1_555 1_555
C7G C7A 1_555 1_555
H3G C7G 1_555 1_555
Zn1_2 N1A 1_555 1_555
Zn1_3 F1D 1_555 1_555
Zn1_4 N1B 1_555 1_555
F1D_2 Zn1 1_555 1_555
N1A_2 Zn1 1_555 1_555
N1B_2 Zn1 1_555 1_555
C5B C6B 1_555 1_555
C1D C2D 1_555 1_555
C4D C5D 1_555 1_555
C5D C7D 1_555 1_555
C1E C2E 1_555 1_555
C4E C5E 1_555 1_555
C5E C7E 1_555 1_555
C5C C6C 1_555 1_555
C1F C2F 1_555 1_555
C4F C5F 1_555 1_555
C5F C7F 1_555 1_555
C1G C2G 1_555 1_555
C4G C5G 1_555 1_555
C5G C7G 1_555 1_555

#END
