
#######################################################################
#
#                 Cambridge Crystallographic Data Centre
#                                CCDC 
#
#######################################################################
#
# If this CIF has been generated from an entry in the Cambridge 
# Structural Database, then it will include bibliographic, chemical, 
# crystal, experimental, refinement or atomic coordinate data resulting 
# from the CCDC's data processing and validation procedures.
#
#######################################################################

data_ZIMJOW
_chemical_formula_moiety         '(C42 H43 Ce4 N7 O46)n'
_symmetry_cell_setting           triclinic
_symmetry_space_group_name_H-M   'P -1'
_symmetry_Int_Tables_number      2
_space_group_name_Hall           '-P 1'
loop_
_symmetry_equiv_pos_site_id
_symmetry_equiv_pos_as_xyz
1 x,y,z
2 -x,-y,-z
_cell_length_a                   11.7992(3)
_cell_length_b                   11.8606(4)
_cell_length_c                   13.6301(3)
_cell_angle_alpha                95.2630(10)
_cell_angle_beta                 108.5470(11)
_cell_angle_gamma                108.0810(10)
_cell_volume                     1680.28
loop_
_atom_site_label
_atom_site_type_symbol
_atom_site_fract_x
_atom_site_fract_y
_atom_site_fract_z
C1 C 0.2519(2) -0.1105(2) 0.28477(17)
C2 C 0.3719(2) -0.1204(2) 0.31769(18)
H1 H 0.3808 -0.1952 0.3063
C3 C 0.4778(2) -0.0152(2) 0.36816(19)
C4 C 0.4609(2) 0.0949(2) 0.38486(19)
H2 H 0.5310 0.1669 0.4160
C5 C 0.3370(2) 0.0950(2) 0.35400(17)
C6 C 0.1304(2) -0.2171(2) 0.22279(18)
C7 C 0.6088(2) -0.0234(3) 0.4079(2)
C8 C 0.3047(2) 0.2054(2) 0.37915(17)
C9 C -0.3410(2) -0.0960(2) 0.17821(17)
C10 C -0.4660(2) -0.0988(2) 0.14528(18)
H3 H -0.5337 -0.1699 0.1363
C11 C -0.4876(2) 0.0070(2) 0.12610(18)
C12 C -0.3847(2) 0.1118(2) 0.14071(18)
H4 H -0.3966 0.1844 0.1303
C13 C -0.2630(2) 0.1051(2) 0.17140(17)
C14 C -0.3040(2) -0.2022(2) 0.20807(17)
C15 C -0.6238(2) 0.0027(2) 0.08608(19)
C16 C -0.1437(2) 0.2110(2) 0.18637(18)
C17 C -0.0692(2) -0.0462(2) -0.02386(17)
C18 C -0.0417(2) 0.0396(2) 0.49147(17)
Ce1 Ce -0.001386(10) 0.002204(10) 0.250200(8)
N1 N 0.23471(17) -0.00610(17) 0.30441(14)
N2 N -0.24206(17) 0.00337(17) 0.18913(14)
O1 O 0.02854(15) -0.19405(15) 0.19360(14)
O2 O 0.13794(18) -0.31774(16) 0.20148(15)
O3 O 0.6977(2) 0.0818(2) 0.4675(3)
H5 H 0.7679 0.0746 0.4879
O4 O 0.62677(18) -0.11745(17) 0.40013(15)
O5 O 0.39296(16) 0.30621(15) 0.41945(14)
O6 O 0.18871(15) 0.18723(15) 0.36051(14)
O7 O -0.18645(15) -0.18515(15) 0.24028(14)
O8 O -0.38938(16) -0.29929(15) 0.20205(14)
O9 O -0.63057(17) 0.10799(18) 0.06757(17)
H6 H -0.7057 0.1025 0.0459
O10 O -0.71394(17) -0.08856(19) 0.07008(16)
O11 O -0.15311(17) 0.31238(16) 0.17891(16)
O12 O -0.04216(15) 0.19005(15) 0.20558(14)
O13 O -0.12415(15) -0.07717(15) 0.04003(12)
O14 O -0.11602(15) -0.08231(15) -0.12216(12)
O15 O -0.06959(17) 0.07092(16) 0.40481(13)
O16 O -0.07610(16) 0.06493(16) 0.56619(13)
Ce2 Ce -0.37253(6) -0.35864(6) 0.38765(5)
O17 O -0.1435(2) -0.3565(2) 0.3712(2)
H7 H -0.140(4) -0.310(4) 0.331(3)
H8 H -0.069(2) -0.346(4) 0.407(3)
C19 C -0.3161(2) -0.5472(2) 0.5909(2)
C20 C -0.1772(2) -0.4676(3) 0.6332(2)
H9 H -0.1309 -0.5033 0.6005
H10 H -0.1683 -0.3886 0.6157
O18 O -0.36759(19) -0.56417(19) 0.48718(15)
H11 H -0.4433 -0.6080 0.4667
O19 O -0.37202(18) -0.58897(19) 0.64630(16)
N3 N -0.1224(2) -0.4533(2) 0.7487(2)
H12 H -0.159(3) -0.419(3) 0.777(2)
H13 H -0.127(3) -0.517(2) 0.768(3)
O20 O -0.4860(2) -0.5878(2) 0.24127(18)
H14 H -0.476(4) -0.589(4) 0.1834(19)
H15 H -0.437(4) -0.620(4) 0.273(3)
C17A C 0.0692(2) 0.0462(2) 0.02386(17)
O13A O 0.12415(15) 0.07717(15) -0.04003(12)
O14A O 0.11602(15) 0.08231(15) 0.12216(12)
C18A C 0.0417(2) -0.0396(2) 0.50853(17)
O15A O 0.06959(17) -0.07092(16) 0.59519(13)
O16A O 0.07610(16) -0.06493(16) 0.43381(13)
C1A C -1.2519(2) -0.8895(2) 0.71523(17)
C2A C -1.3719(2) -0.8796(2) 0.68231(18)
H1A H -1.3808 -0.8048 0.6937
C3A C -1.4778(2) -0.9848(2) 0.63184(19)
C4A C -1.4609(2) -1.0949(2) 0.61514(19)
H2A H -1.5310 -1.1669 0.5840
C5A C -1.3370(2) -1.0950(2) 0.64600(17)
C6A C -1.1304(2) -0.7829(2) 0.77721(18)
C7A C -1.6088(2) -0.9766(3) 0.5921(2)
C8A C -1.3047(2) -1.2054(2) 0.62085(17)
C9A C -0.6590(2) -0.9040(2) 0.82179(17)
C10A C -0.5340(2) -0.9012(2) 0.85472(18)
H3A H -0.4663 -0.8301 0.8637
C11A C -0.5124(2) -1.0070(2) 0.87390(18)
C12A C -0.6153(2) -1.1118(2) 0.85929(18)
H4A H -0.6034 -1.1844 0.8697
C13A C -0.7370(2) -1.1051(2) 0.82860(17)
C14A C -0.6960(2) -0.7978(2) 0.79193(17)
C15A C -0.3762(2) -1.0027(2) 0.91392(19)
C16A C -0.8563(2) -1.2110(2) 0.81363(18)
Ce1A Ce -0.998614(10) -1.002204(10) 0.749800(8)
N1A N -1.23471(17) -0.99390(17) 0.69559(14)
N2A N -0.75794(17) -1.00337(17) 0.81087(14)
O1A O -1.02854(15) -0.80595(15) 0.80640(14)
O2A O -1.13794(18) -0.68226(16) 0.79852(15)
O3A O -1.6977(2) -1.0818(2) 0.5325(3)
H5A H -1.7679 -1.0746 0.5121
O4A O -1.62677(18) -0.88255(17) 0.59987(15)
O5A O -1.39296(16) -1.30621(15) 0.58055(14)
O6A O -1.18871(15) -1.18723(15) 0.63949(14)
O7A O -0.81355(15) -0.81485(15) 0.75972(14)
O8A O -0.61062(16) -0.70071(15) 0.79795(14)
O9A O -0.36943(17) -1.10799(18) 0.93243(17)
H6A H -0.2943 -1.1025 0.9541
O10A O -0.28606(17) -0.91144(19) 0.92992(16)
O11A O -0.84689(17) -1.31238(16) 0.82109(16)
O12A O -0.95784(15) -1.19005(15) 0.79442(14)
Ce2A Ce -0.62747(6) -0.64136(6) 0.61235(5)
O17A O -0.8565(2) -0.6435(2) 0.6288(2)
H7A H -0.860(4) -0.690(4) 0.669(3)
H8A H -0.931(2) -0.654(4) 0.593(3)
C19A C -0.6839(2) -0.4528(2) 0.4091(2)
C20A C -0.8228(2) -0.5324(3) 0.3668(2)
H9A H -0.8691 -0.4967 0.3995
H10A H -0.8317 -0.6114 0.3843
O18A O -0.63241(19) -0.43583(19) 0.51282(15)
H11A H -0.5567 -0.3920 0.5333
O19A O -0.62798(18) -0.41103(19) 0.35370(16)
N3A N -0.8776(2) -0.5467(2) 0.2513(2)
H12A H -0.841(3) -0.581(3) 0.223(2)
H13A H -0.873(3) -0.483(2) 0.232(3)
O20A O -0.5140(2) -0.4122(2) 0.75873(18)
H14A H -0.524(4) -0.411(4) 0.8166(19)
H15A H -0.563(4) -0.380(4) 0.727(3)
Ce1A_2 Ce 0.001386(10) -0.002204(10) -0.250200(8)
Ce1A_3 Ce 0.001386(10) -0.002204(10) 0.749800(8)
O4_2 O -0.37323(18) -0.11745(17) 0.40013(15)
O4A_2 O -0.62677(18) -0.88255(17) 0.59987(15)
O5_2 O -0.60704(16) -0.69379(15) 0.41945(14)
O5A_2 O -0.39296(16) -0.30621(15) 0.58055(14)
O13A_2 O -0.87585(15) -0.92283(15) 0.95997(12)
O14_2 O -1.11602(15) -1.08231(15) 0.87784(12)
O15A_2 O -0.93041(17) -1.07092(16) 0.59519(13)
O16_2 O -1.07610(16) -0.93507(16) 0.56619(13)
Ce2_2 Ce -1.37253(6) -1.35864(6) 0.38765(5)
Ce2_3 Ce 0.62747(6) -0.35864(6) 0.38765(5)
Ce2A_2 Ce -1.62747(6) -0.64136(6) 0.61235(5)
Ce2A_3 Ce 0.37253(6) 0.35864(6) 0.61235(5)
O21 O -0.0878(3) 0.3935(2) 0.01286(19)
H16 H -0.150(3) 0.369(4) 0.029(3)
H17 H -0.110(4) 0.352(4) -0.047(2)
O22 O -0.2398(3) 0.3915(3) 0.3287(2)
H18 H -0.200(4) 0.4677(18) 0.348(3)
H19 H -0.209(4) 0.375(3) 0.284(3)
O23 O -0.7521(2) 0.33311(18) 0.15837(17)
H20 H -0.6758(18) 0.354(3) 0.191(3)
H21 H -0.784(3) 0.2603(17) 0.152(3)
C21 C -0.6300(3) -0.4450(3) -0.0154(2)
C22 C -0.7499(3) -0.5443(3) -0.0894(2)
H22 H -0.7924 -0.5112 -0.1464
H23 H -0.7262 -0.6062 -0.1205
O24 O -0.5505(2) -0.3870(2) -0.04651(19)
O25 O -0.62058(18) -0.43032(19) 0.08312(15)
H24 H -0.5532 -0.3751 0.1194
N4 N -0.8413(2) -0.6020(2) -0.04065(19)
H25 H -0.809(3) -0.625(3) 0.0124(19)
H26 H -0.879(3) -0.558(3) -0.030(3)
O26 O 0.0815(6) -0.3149(4) 0.5251(4)
H27 H 0.120(9) -0.352(8) 0.569(6)
H28 H 0.096(11) -0.254(6) 0.572(6)
loop_
_geom_bond_atom_site_label_1
_geom_bond_atom_site_label_2
_geom_bond_site_symmetry_1
_geom_bond_site_symmetry_2
C1 C2 1_555 1_555
C2 H1 1_555 1_555
C3 C2 1_555 1_555
C4 C3 1_555 1_555
H2 C4 1_555 1_555
C5 C4 1_555 1_555
C6 C1 1_555 1_555
C7 C3 1_555 1_555
C8 C5 1_555 1_555
C9 C10 1_555 1_555
C10 H3 1_555 1_555
C11 C10 1_555 1_555
C12 C11 1_555 1_555
H4 C12 1_555 1_555
C13 C12 1_555 1_555
C14 C9 1_555 1_555
C15 C11 1_555 1_555
C16 C13 1_555 1_555
C17 O13 1_555 1_555
C18 O15 1_555 1_555
Ce1 N1 1_555 1_555
N1 C1 1_555 1_555
N2 C9 1_555 1_555
O1 C6 1_555 1_555
O2 C6 1_555 1_555
O3 C7 1_555 1_555
H5 O3 1_555 1_555
O4 C7 1_555 1_555
O5 C8 1_555 1_555
O6 C8 1_555 1_555
O7 C14 1_555 1_555
O8 C14 1_555 1_555
O9 C15 1_555 1_555
H6 O9 1_555 1_555
O10 C15 1_555 1_555
O11 C16 1_555 1_555
O12 C16 1_555 1_555
O13 Ce1 1_555 1_555
O14 C17 1_555 1_555
O15 Ce1 1_555 1_555
O16 C18 1_555 1_555
Ce2 O8 1_555 1_555
O17 Ce2 1_555 1_555
H7 O17 1_555 1_555
H8 O17 1_555 1_555
C19 C20 1_555 1_555
C20 H9 1_555 1_555
H10 C20 1_555 1_555
O18 Ce2 1_555 1_555
H11 O18 1_555 1_555
O19 C19 1_555 1_555
N3 C20 1_555 1_555
H12 N3 1_555 1_555
H13 N3 1_555 1_555
O20 Ce2 1_555 1_555
H14 O20 1_555 1_555
H15 O20 1_555 1_555
O21 H16 1_555 1_555
H17 O21 1_555 1_555
O22 H18 1_555 1_555
H19 O22 1_555 1_555
O23 H20 1_555 1_555
H21 O23 1_555 1_555
C21 C22 1_555 1_555
C22 H22 1_555 1_555
H23 C22 1_555 1_555
O24 C21 1_555 1_555
O25 C21 1_555 1_555
H24 O25 1_555 1_555
N4 C22 1_555 1_555
H25 N4 1_555 1_555
H26 N4 1_555 1_555
O26 H27 1_555 1_555
H28 O26 1_555 1_555
C17A C17 1_555 1_555
O13A C17A 1_555 1_555
O14A Ce1 1_555 1_555
C18A C18 1_555 1_555
O15A C18A 1_555 1_555
O16A Ce1 1_555 1_555
C1A C2A 1_555 1_555
C2A H1A 1_555 1_555
C3A C2A 1_555 1_555
C4A C3A 1_555 1_555
H2A C4A 1_555 1_555
C5A C4A 1_555 1_555
C6A C1A 1_555 1_555
C7A C3A 1_555 1_555
C8A C5A 1_555 1_555
C9A C10A 1_555 1_555
C10A H3A 1_555 1_555
C11A C10A 1_555 1_555
C12A C11A 1_555 1_555
H4A C12A 1_555 1_555
C13A C12A 1_555 1_555
C14A C9A 1_555 1_555
C15A C11A 1_555 1_555
C16A C13A 1_555 1_555
Ce1A N1A 1_555 1_555
N1A C1A 1_555 1_555
N2A C9A 1_555 1_555
O1A C6A 1_555 1_555
O2A C6A 1_555 1_555
O3A C7A 1_555 1_555
H5A O3A 1_555 1_555
O4A C7A 1_555 1_555
O5A C8A 1_555 1_555
O6A C8A 1_555 1_555
O7A C14A 1_555 1_555
O8A C14A 1_555 1_555
O9A C15A 1_555 1_555
H6A O9A 1_555 1_555
O10A C15A 1_555 1_555
O11A C16A 1_555 1_555
O12A C16A 1_555 1_555
Ce2A O19 1_555 1_555
O17A Ce2A 1_555 1_555
H7A O17A 1_555 1_555
H8A O17A 1_555 1_555
C19A C20A 1_555 1_555
C20A H9A 1_555 1_555
H10A C20A 1_555 1_555
O18A Ce2A 1_555 1_555
H11A O18A 1_555 1_555
O19A Ce2 1_555 1_555
N3A C20A 1_555 1_555
H12A N3A 1_555 1_555
H13A N3A 1_555 1_555
O20A Ce2A 1_555 1_555
H14A O20A 1_555 1_555
H15A O20A 1_555 1_555
Ce1A_2 O14 1_555 1_555
Ce1A_3 O16 1_555 1_555
O4_2 Ce2 1_555 1_555
O4A_2 Ce2A 1_555 1_555
O5_2 Ce2A 1_555 1_555
O5A_2 Ce2 1_555 1_555
O13A_2 Ce1A 1_555 1_555
O14_2 Ce1A 1_555 1_555
O15A_2 Ce1A 1_555 1_555
O16_2 Ce1A 1_555 1_555
Ce2_2 O5A 1_555 1_555
Ce2_3 O4 1_555 1_555
Ce2A_2 O4A 1_555 1_555
Ce2A_3 O5 1_555 1_555
C5 N1 1_555 1_555
C13 N2 1_555 1_555
Ce1 N2 1_555 1_555
Ce1 O1 1_555 1_555
Ce1 O6 1_555 1_555
Ce1 O7 1_555 1_555
Ce1 O12 1_555 1_555
C19 O18 1_555 1_555
C17A O14A 1_555 1_555
O13A Ce1A_2 1_555 1_555
C18A O16A 1_555 1_555
O15A Ce1A_3 1_555 1_555
C5A N1A 1_555 1_555
C13A N2A 1_555 1_555
Ce1A N2A 1_555 1_555
Ce1A O1A 1_555 1_555
Ce1A O6A 1_555 1_555
Ce1A O7A 1_555 1_555
Ce1A O12A 1_555 1_555
O8A Ce2A 1_555 1_555
C19A O18A 1_555 1_555
C19A O19A 1_555 1_555

#END
