
#######################################################################
#
#                 Cambridge Crystallographic Data Centre
#                                CCDC 
#
#######################################################################
#
# If this CIF has been generated from an entry in the Cambridge 
# Structural Database, then it will include bibliographic, chemical, 
# crystal, experimental, refinement or atomic coordinate data resulting 
# from the CCDC's data processing and validation procedures.
#
#######################################################################

data_HUVNAP
_chemical_formula_moiety         'C192 H162 Ba21 Fe10 N16 Na2 O71 2+'
_symmetry_cell_setting           orthorhombic
_symmetry_space_group_name_H-M   'F 2 2 2'
_symmetry_Int_Tables_number      22
_space_group_name_Hall           'F 2 2'
loop_
_symmetry_equiv_pos_site_id
_symmetry_equiv_pos_as_xyz
1 x,y,z
2 -x,-y,z
3 x,-y,-z
4 -x,y,-z
5 x,1/2+y,1/2+z
6 -x,1/2-y,1/2+z
7 x,1/2-y,1/2-z
8 -x,1/2+y,1/2-z
9 1/2+x,y,1/2+z
10 1/2-x,-y,1/2+z
11 1/2+x,-y,1/2-z
12 1/2-x,y,1/2-z
13 1/2+x,1/2+y,z
14 1/2-x,1/2-y,z
15 1/2+x,1/2-y,-z
16 1/2-x,1/2+y,-z
_cell_length_a                   31.955(3)
_cell_length_b                   65.386(2)
_cell_length_c                   12.9570(16)
_cell_angle_alpha                90
_cell_angle_beta                 90
_cell_angle_gamma                90
_cell_volume                     27072.5
loop_
_atom_site_label
_atom_site_type_symbol
_atom_site_fract_x
_atom_site_fract_y
_atom_site_fract_z
Na1 Na -0.2500 -0.2500 -0.1351(3)
Na2 Na -0.38736(14) -0.02124(5) -0.1410(3)
O16 O -0.3582(14) 0.0000 0.0000
Fe1 Fe -0.19632(2) -0.113947(15) 0.25108(8)
Fe2 Fe -0.44539(3) -0.138126(14) -0.00397(8)
Ba1 Ba -0.2500 -0.2500 0.2500
Ba2 Ba 0.0000 0.0000 0.5000
Ba3 Ba -0.4948(2) 0.00037(9) -0.33103(9)
C1 C -0.1048(3) -0.04102(14) 0.3061(9)
C2 C -0.1084(4) -0.04523(15) 0.1992(11)
H1 H -0.0948 -0.0368 0.1521
C3 C -0.1310(3) -0.06112(15) 0.1641(8)
C4 C -0.1473(2) -0.07609(12) 0.2286(7)
C5 C -0.1430(2) -0.07273(12) 0.3388(7)
C6 C -0.1192(3) -0.05690(13) 0.3714(7)
H2 H -0.1119 -0.0564 0.4408
C7 C -0.0795(5) -0.0229(3) 0.3382(15)
C8 C -0.1339(4) -0.0650(2) 0.0399(8)
H3 H -0.1206 -0.0539 0.0042
H4 H -0.1628 -0.0658 0.0197
H5 H -0.1201 -0.0776 0.0229
C9 C -0.1534(2) -0.08864(14) 0.4091(5)
H6 H -0.1456 -0.0864 0.4773
C10 C -0.1738(2) -0.12096(16) 0.4757(5)
C11 C -0.1806(3) -0.11269(17) 0.5826(5)
H7 H -0.2059 -0.1045 0.5846
H8 H -0.1572 -0.1041 0.6026
C12 C -0.1845(5) -0.1316(2) 0.6596(7)
H9 H -0.1583 -0.1391 0.6602
H10 H -0.1896 -0.1266 0.7289
C13 C -0.2180(3) -0.1451(3) 0.6293(8)
H11 H -0.2443 -0.1377 0.6301
H12 H -0.2201 -0.1563 0.6783
C14 C -0.2101(2) -0.15394(16) 0.5185(6)
H13 H -0.1837 -0.1613 0.5166
H14 H -0.2323 -0.1633 0.4996
C15 C -0.2090(2) -0.13618(15) 0.4449(6)
C16 C -0.1966(2) -0.16456(13) 0.1992(6)
C17 C -0.2022(2) -0.18526(12) 0.1710(7)
H15 H -0.2092 -0.1946 0.2223
C18 C -0.1980(3) -0.19216(12) 0.0729(7)
C19 C -0.1827(2) -0.17736(12) 0.0020(8)
H16 H -0.1776 -0.1818 -0.0650
C20 C -0.1746(2) -0.15682(13) 0.0228(6)
C21 C -0.18248(19) -0.15038(10) 0.1206(5)
C22 C -0.2018(2) -0.15923(13) 0.3031(5)
H17 H -0.2067 -0.1698 0.3498
C23 C -0.2039(3) -0.21281(18) 0.0398(9)
C24 C -0.1587(3) -0.14229(12) -0.0562(7)
H18 H -0.1563 -0.1289 -0.0265
H19 H -0.1777 -0.1419 -0.1135
H20 H -0.1317 -0.1467 -0.0798
C25 C -0.3470(2) -0.20898(13) 0.0398(7)
C26 C -0.3662(2) -0.19696(13) 0.1114(7)
H21 H -0.3644 -0.2002 0.1812
C27 C -0.3895(2) -0.17905(12) 0.0786(5)
C28 C -0.3940(2) -0.17636(11) -0.0272(5)
C29 C -0.3741(3) -0.18918(13) -0.1028(6)
C30 C -0.3536(4) -0.20570(15) -0.0632(7)
H22 H -0.3434 -0.2154 -0.1093
C31 C -0.3240(4) -0.22622(17) 0.0812(8)
C32 C -0.4070(2) -0.16664(12) 0.1559(7)
H23 H -0.4036 -0.1708 0.2240
C33 C -0.3833(4) -0.18668(15) -0.2096(8)
H24 H -0.3995 -0.1745 -0.2193
H25 H -0.3989 -0.1983 -0.2338
H26 H -0.3576 -0.1856 -0.2478
C34 C -0.4467(2) -0.13723(16) 0.2220(6)
C35 C -0.4360(2) -0.14332(17) 0.3294(6)
H27 H -0.4061 -0.1422 0.3400
H28 H -0.4442 -0.1574 0.3410
C36 C -0.4589(3) -0.12941(19) 0.4054(7)
H29 H -0.4519 -0.1331 0.4758
H30 H -0.4889 -0.1307 0.3966
C37 C -0.4439(4) -0.1060(2) 0.3816(8)
H31 H -0.4578 -0.0967 0.4289
H32 H -0.4140 -0.1048 0.3926
C38 C -0.4541(3) -0.10002(17) 0.2729(6)
H33 H -0.4440 -0.0863 0.2597
H34 H -0.4842 -0.1001 0.2633
C39 C -0.4339(2) -0.11481(14) 0.1970(5)
C40 C -0.4471(2) -0.08752(11) -0.0554(6)
C41 C -0.43632(19) -0.10210(11) -0.1350(5)
C42 C -0.43210(19) -0.09479(10) -0.2345(5)
C43 C -0.4422(3) -0.07501(11) -0.2576(6)
H35 H -0.4401 -0.0706 -0.3257
C44 C -0.4554(4) -0.06107(12) -0.1822(7)
C45 C -0.4568(2) -0.06790(12) -0.0813(6)
H36 H -0.4647 -0.0588 -0.0295
C46 C -0.4460(2) -0.09355(12) 0.0530(7)
H37 H -0.4499 -0.0833 0.1017
C47 C -0.4168(3) -0.10960(14) -0.3177(8)
H38 H -0.4111 -0.1227 -0.2871
H39 H -0.3916 -0.1043 -0.3484
H40 H -0.4379 -0.1111 -0.3698
C48 C -0.4727(3) -0.03998(17) -0.2140(9)
N1 N -0.42731(18) -0.14990(10) 0.1403(4)
N2 N -0.44014(18) -0.11181(11) 0.0873(4)
N3 N -0.20058(15) -0.14160(9) 0.3377(4)
N4 N -0.17184(19) -0.10535(12) 0.3923(5)
O1 O -0.5000 -0.14225(11) 0.0000
O2 O -0.2500 -0.10716(10) 0.2500
O3 O -0.4618(4) -0.0329(2) -0.3030(12)
O4 O -0.4784(3) -0.02700(16) -0.1505(8)
O5 O -0.41623(19) -0.16022(9) -0.0661(5)
O6 O -0.42823(17) -0.12107(8) -0.1147(4)
O7 O -0.16645(18) -0.09104(9) 0.1920(4)
O8 O -0.17692(15) -0.13099(8) 0.1421(4)
O9 O -0.0674(3) -0.01073(14) 0.2787(8)
O10 O -0.0731(3) -0.02138(18) 0.4323(10)
O11 O -0.3174(2) -0.22895(12) 0.1710(7)
O12 O -0.3104(3) -0.23988(14) -0.0007(9)
O13 O -0.2172(3) -0.22633(18) 0.0999(9)
O14 O -0.2102(5) -0.2170(2) -0.0619(12)
O15 O -0.5524(7) -0.0000 -0.5000
Fe2A Fe -0.55461(3) 0.138126(14) -0.00397(8)
Ba3A Ba -0.5052(2) -0.00037(9) -0.33103(9)
C25A C -0.6530(2) 0.20898(13) 0.0398(7)
C26A C -0.6338(2) 0.19696(13) 0.1114(7)
H21A H -0.6356 0.2002 0.1812
C27A C -0.6105(2) 0.17905(12) 0.0786(5)
C28A C -0.6060(2) 0.17636(11) -0.0272(5)
C29A C -0.6259(3) 0.18918(13) -0.1028(6)
C30A C -0.6464(4) 0.20570(15) -0.0632(7)
H22A H -0.6566 0.2154 -0.1093
C31A C -0.6760(4) 0.22622(17) 0.0812(8)
C32A C -0.5930(2) 0.16664(12) 0.1559(7)
H23A H -0.5964 0.1708 0.2240
C33A C -0.6167(4) 0.18668(15) -0.2096(8)
H24A H -0.6005 0.1745 -0.2193
H25A H -0.6011 0.1983 -0.2338
H26A H -0.6424 0.1856 -0.2478
C34A C -0.5533(2) 0.13723(16) 0.2220(6)
C35A C -0.5640(2) 0.14332(17) 0.3294(6)
H27A H -0.5939 0.1422 0.3400
H28A H -0.5558 0.1574 0.3410
C36A C -0.5411(3) 0.12941(19) 0.4054(7)
H29A H -0.5481 0.1331 0.4758
H30A H -0.5111 0.1307 0.3966
C37A C -0.5561(4) 0.1060(2) 0.3816(8)
H31A H -0.5422 0.0967 0.4289
H32A H -0.5860 0.1048 0.3926
C38A C -0.5459(3) 0.10002(17) 0.2729(6)
H33A H -0.5560 0.0863 0.2597
H34A H -0.5158 0.1001 0.2633
C39A C -0.5661(2) 0.11481(14) 0.1970(5)
C40A C -0.5529(2) 0.08752(11) -0.0554(6)
C41A C -0.56368(19) 0.10210(11) -0.1350(5)
C42A C -0.56790(19) 0.09479(10) -0.2345(5)
C43A C -0.5578(3) 0.07501(11) -0.2576(6)
H35A H -0.5599 0.0706 -0.3257
C44A C -0.5446(4) 0.06107(12) -0.1822(7)
C45A C -0.5432(2) 0.06790(12) -0.0813(6)
H36A H -0.5353 0.0588 -0.0295
C46A C -0.5540(2) 0.09355(12) 0.0530(7)
H37A H -0.5501 0.0833 0.1017
C47A C -0.5832(3) 0.10960(14) -0.3177(8)
H38A H -0.5889 0.1227 -0.2871
H39A H -0.6084 0.1043 -0.3484
H40A H -0.5621 0.1111 -0.3698
C48A C -0.5273(3) 0.03998(17) -0.2140(9)
N1A N -0.57269(18) 0.14990(10) 0.1403(4)
N2A N -0.55986(18) 0.11181(11) 0.0873(4)
O1A O -0.5000 0.14225(11) 0.0000
O3A O -0.5382(4) 0.0329(2) -0.3030(12)
O4A O -0.5216(3) 0.02700(16) -0.1505(8)
O5A O -0.58377(19) 0.16022(9) -0.0661(5)
O6A O -0.57177(17) 0.12107(8) -0.1147(4)
O11A O -0.6826(2) 0.22895(12) 0.1710(7)
O12A O -0.6896(3) 0.23988(14) -0.0007(9)
O15A O -0.4476(7) -0.0000 -0.5000
Fe2B Fe -0.44539(3) 0.138126(14) -0.99603(8)
Ba3B Ba -0.4948(2) -0.00037(9) -0.66897(9)
C25B C -0.3470(2) 0.20898(13) -1.0398(7)
C26B C -0.3662(2) 0.19696(13) -1.1114(7)
H21B H -0.3644 0.2002 -1.1812
C27B C -0.3895(2) 0.17905(12) -1.0786(5)
C28B C -0.3940(2) 0.17636(11) -0.9728(5)
C29B C -0.3741(3) 0.18918(13) -0.8972(6)
C30B C -0.3536(4) 0.20570(15) -0.9368(7)
H22B H -0.3434 0.2154 -0.8907
C31B C -0.3240(4) 0.22622(17) -1.0812(8)
C32B C -0.4070(2) 0.16664(12) -1.1559(7)
H23B H -0.4036 0.1708 -1.2240
C33B C -0.3833(4) 0.18668(15) -0.7904(8)
H24B H -0.3995 0.1745 -0.7807
H25B H -0.3989 0.1983 -0.7662
H26B H -0.3576 0.1856 -0.7522
C34B C -0.4467(2) 0.13723(16) -1.2220(6)
C35B C -0.4360(2) 0.14332(17) -1.3294(6)
H27B H -0.4061 0.1422 -1.3400
H28B H -0.4442 0.1574 -1.3410
C36B C -0.4589(3) 0.12941(19) -1.4054(7)
H29B H -0.4519 0.1331 -1.4758
H30B H -0.4889 0.1307 -1.3966
C37B C -0.4439(4) 0.1060(2) -1.3816(8)
H31B H -0.4578 0.0967 -1.4289
H32B H -0.4140 0.1048 -1.3926
C38B C -0.4541(3) 0.10002(17) -1.2729(6)
H33B H -0.4440 0.0863 -1.2597
H34B H -0.4842 0.1001 -1.2633
C39B C -0.4339(2) 0.11481(14) -1.1970(5)
C40B C -0.4471(2) 0.08752(11) -0.9446(6)
C41B C -0.43632(19) 0.10210(11) -0.8650(5)
C42B C -0.43210(19) 0.09479(10) -0.7655(5)
C43B C -0.4422(3) 0.07501(11) -0.7424(6)
H35B H -0.4401 0.0706 -0.6743
C44B C -0.4554(4) 0.06107(12) -0.8178(7)
C45B C -0.4568(2) 0.06790(12) -0.9187(6)
H36B H -0.4647 0.0588 -0.9705
C46B C -0.4460(2) 0.09355(12) -1.0530(7)
H37B H -0.4499 0.0833 -1.1017
C47B C -0.4168(3) 0.10960(14) -0.6823(8)
H38B H -0.4111 0.1227 -0.7129
H39B H -0.3916 0.1043 -0.6516
H40B H -0.4379 0.1111 -0.6302
C48B C -0.4727(3) 0.03998(17) -0.7860(9)
N1B N -0.42731(18) 0.14990(10) -1.1403(4)
N2B N -0.44014(18) 0.11181(11) -1.0873(4)
O3B O -0.4618(4) 0.0329(2) -0.6970(12)
O4B O -0.4784(3) 0.02700(16) -0.8495(8)
O5B O -0.41623(19) 0.16022(9) -0.9339(5)
O6B O -0.42823(17) 0.12107(8) -0.8853(4)
O11B O -0.3174(2) 0.22895(12) -1.1710(7)
O12B O -0.3104(3) 0.23988(14) -0.9993(9)
Fe2C Fe -0.55461(3) -0.138126(14) -0.99603(8)
Ba3C Ba -0.5052(2) 0.00037(9) -0.66897(9)
C25C C -0.6530(2) -0.20898(13) -1.0398(7)
C26C C -0.6338(2) -0.19696(13) -1.1114(7)
H21C H -0.6356 -0.2002 -1.1812
C27C C -0.6105(2) -0.17905(12) -1.0786(5)
C28C C -0.6060(2) -0.17636(11) -0.9728(5)
C29C C -0.6259(3) -0.18918(13) -0.8972(6)
C30C C -0.6464(4) -0.20570(15) -0.9368(7)
H22C H -0.6566 -0.2154 -0.8907
C31C C -0.6760(4) -0.22622(17) -1.0812(8)
C32C C -0.5930(2) -0.16664(12) -1.1559(7)
H23C H -0.5964 -0.1708 -1.2240
C33C C -0.6167(4) -0.18668(15) -0.7904(8)
H24C H -0.6005 -0.1745 -0.7807
H25C H -0.6011 -0.1983 -0.7662
H26C H -0.6424 -0.1856 -0.7522
C34C C -0.5533(2) -0.13723(16) -1.2220(6)
C35C C -0.5640(2) -0.14332(17) -1.3294(6)
H27C H -0.5939 -0.1422 -1.3400
H28C H -0.5558 -0.1574 -1.3410
C36C C -0.5411(3) -0.12941(19) -1.4054(7)
H29C H -0.5481 -0.1331 -1.4758
H30C H -0.5111 -0.1307 -1.3966
C37C C -0.5561(4) -0.1060(2) -1.3816(8)
H31C H -0.5422 -0.0967 -1.4289
H32C H -0.5860 -0.1048 -1.3926
C38C C -0.5459(3) -0.10002(17) -1.2729(6)
H33C H -0.5560 -0.0863 -1.2597
H34C H -0.5158 -0.1001 -1.2633
C39C C -0.5661(2) -0.11481(14) -1.1970(5)
C40C C -0.5529(2) -0.08752(11) -0.9446(6)
C41C C -0.56368(19) -0.10210(11) -0.8650(5)
C42C C -0.56790(19) -0.09479(10) -0.7655(5)
C43C C -0.5578(3) -0.07501(11) -0.7424(6)
H35C H -0.5599 -0.0706 -0.6743
C44C C -0.5446(4) -0.06107(12) -0.8178(7)
C45C C -0.5432(2) -0.06790(12) -0.9187(6)
H36C H -0.5353 -0.0588 -0.9705
C46C C -0.5540(2) -0.09355(12) -1.0530(7)
H37C H -0.5501 -0.0833 -1.1017
C47C C -0.5832(3) -0.10960(14) -0.6823(8)
H38C H -0.5889 -0.1227 -0.7129
H39C H -0.6084 -0.1043 -0.6516
H40C H -0.5621 -0.1111 -0.6302
C48C C -0.5273(3) -0.03998(17) -0.7860(9)
N1C N -0.57269(18) -0.14990(10) -1.1403(4)
N2C N -0.55986(18) -0.11181(11) -1.0873(4)
O3C O -0.5382(4) -0.0329(2) -0.6970(12)
O4C O -0.5216(3) -0.02700(16) -0.8495(8)
O5C O -0.58377(19) -0.16022(9) -0.9339(5)
O6C O -0.57177(17) -0.12107(8) -0.8853(4)
O11C O -0.6826(2) -0.22895(12) -1.1710(7)
O12C O -0.6896(3) -0.23988(14) -0.9993(9)
Fe1K Fe -0.30368(2) -0.113947(15) 0.24892(8)
C1K C -0.3952(3) -0.04102(14) 0.1939(9)
C2K C -0.3916(4) -0.04523(15) 0.3008(11)
H1K H -0.4052 -0.0368 0.3479
C3K C -0.3690(3) -0.06112(15) 0.3359(8)
C4K C -0.3527(2) -0.07609(12) 0.2714(7)
C5K C -0.3570(2) -0.07273(12) 0.1612(7)
C6K C -0.3808(3) -0.05690(13) 0.1286(7)
H2K H -0.3881 -0.0564 0.0592
C7K C -0.4205(5) -0.0229(3) 0.1618(15)
C8K C -0.3661(4) -0.0650(2) 0.4601(8)
H3K H -0.3794 -0.0539 0.4958
H4K H -0.3372 -0.0658 0.4803
H5K H -0.3799 -0.0776 0.4771
C9K C -0.3466(2) -0.08864(14) 0.0909(5)
H6K H -0.3544 -0.0864 0.0227
C10K C -0.3262(2) -0.12096(16) 0.0243(5)
C11K C -0.3194(3) -0.11269(17) -0.0826(5)
H7K H -0.2941 -0.1045 -0.0846
H8K H -0.3428 -0.1041 -0.1026
C12K C -0.3155(5) -0.1316(2) -0.1596(7)
H9K H -0.3417 -0.1391 -0.1602
H10K H -0.3104 -0.1266 -0.2289
C13K C -0.2820(3) -0.1451(3) -0.1293(8)
H11K H -0.2557 -0.1377 -0.1301
H12K H -0.2799 -0.1563 -0.1783
C14K C -0.2899(2) -0.15394(16) -0.0185(6)
H13K H -0.3163 -0.1613 -0.0166
H14K H -0.2677 -0.1633 0.0004
C15K C -0.2910(2) -0.13618(15) 0.0551(6)
C16K C -0.3034(2) -0.16456(13) 0.3008(6)
C17K C -0.2978(2) -0.18526(12) 0.3290(7)
H15K H -0.2908 -0.1946 0.2777
C18K C -0.3020(3) -0.19216(12) 0.4271(7)
C19K C -0.3173(2) -0.17736(12) 0.4980(8)
H16K H -0.3224 -0.1818 0.5650
C20K C -0.3254(2) -0.15682(13) 0.4772(6)
C21K C -0.31752(19) -0.15038(10) 0.3794(5)
C22K C -0.2982(2) -0.15923(13) 0.1969(5)
H17K H -0.2933 -0.1698 0.1502
C23K C -0.2961(3) -0.21281(18) 0.4602(9)
C24K C -0.3413(3) -0.14229(12) 0.5562(7)
H18K H -0.3437 -0.1289 0.5265
H19K H -0.3223 -0.1419 0.6135
H20K H -0.3683 -0.1467 0.5798
N3K N -0.29942(15) -0.14160(9) 0.1623(4)
N4K N -0.32816(19) -0.10535(12) 0.1077(5)
O7K O -0.33355(18) -0.09104(9) 0.3080(4)
O8K O -0.32308(15) -0.13099(8) 0.3579(4)
O9K O -0.4326(3) -0.01073(14) 0.2213(8)
O10K O -0.4269(3) -0.02138(18) 0.0677(10)
O13K O -0.2828(3) -0.22633(18) 0.4001(9)
O14K O -0.2898(5) -0.2170(2) 0.5619(12)
Fe1F Fe -0.19632(2) -0.386053(15) 0.24892(8)
C1F C -0.1048(3) -0.45898(14) 0.1939(9)
C2F C -0.1084(4) -0.45477(15) 0.3008(11)
H1F H -0.0948 -0.4632 0.3479
C3F C -0.1310(3) -0.43888(15) 0.3359(8)
C4F C -0.1473(2) -0.42391(12) 0.2714(7)
C5F C -0.1430(2) -0.42727(12) 0.1612(7)
C6F C -0.1192(3) -0.44310(13) 0.1286(7)
H2F H -0.1119 -0.4436 0.0592
C7F C -0.0795(5) -0.4771(3) 0.1618(15)
C8F C -0.1339(4) -0.4350(2) 0.4601(8)
H3F H -0.1206 -0.4461 0.4958
H4F H -0.1628 -0.4342 0.4803
H5F H -0.1201 -0.4224 0.4771
C9F C -0.1534(2) -0.41136(14) 0.0909(5)
H6F H -0.1456 -0.4136 0.0227
C10F C -0.1738(2) -0.37904(16) 0.0243(5)
C11F C -0.1806(3) -0.38731(17) -0.0826(5)
H7F H -0.2059 -0.3955 -0.0846
H8F H -0.1572 -0.3959 -0.1026
C12F C -0.1845(5) -0.3684(2) -0.1596(7)
H9F H -0.1583 -0.3609 -0.1602
H10F H -0.1896 -0.3734 -0.2289
C13F C -0.2180(3) -0.3549(3) -0.1293(8)
H11F H -0.2443 -0.3623 -0.1301
H12F H -0.2201 -0.3437 -0.1783
C14F C -0.2101(2) -0.34606(16) -0.0185(6)
H13F H -0.1837 -0.3387 -0.0166
H14F H -0.2323 -0.3367 0.0004
C15F C -0.2090(2) -0.36382(15) 0.0551(6)
C16F C -0.1966(2) -0.33544(13) 0.3008(6)
C17F C -0.2022(2) -0.31474(12) 0.3290(7)
H15F H -0.2092 -0.3054 0.2777
C18F C -0.1980(3) -0.30784(12) 0.4271(7)
C19F C -0.1827(2) -0.32264(12) 0.4980(8)
H16F H -0.1776 -0.3182 0.5650
C20F C -0.1746(2) -0.34318(13) 0.4772(6)
C21F C -0.18248(19) -0.34962(10) 0.3794(5)
C22F C -0.2018(2) -0.34077(13) 0.1969(5)
H17F H -0.2067 -0.3302 0.1502
C23F C -0.2039(3) -0.28719(18) 0.4602(9)
C24F C -0.1587(3) -0.35771(12) 0.5562(7)
H18F H -0.1563 -0.3711 0.5265
H19F H -0.1777 -0.3581 0.6135
H20F H -0.1317 -0.3533 0.5798
N3F N -0.20058(15) -0.35840(9) 0.1623(4)
N4F N -0.17184(19) -0.39465(12) 0.1077(5)
O7F O -0.16645(18) -0.40896(9) 0.3080(4)
O8F O -0.17692(15) -0.36901(8) 0.3579(4)
O9F O -0.0674(3) -0.48927(14) 0.2213(8)
O10F O -0.0731(3) -0.47862(18) 0.0677(10)
O13F O -0.2172(3) -0.27367(18) 0.4001(9)
O14F O -0.2102(5) -0.2830(2) 0.5619(12)
Fe1M Fe -0.30368(2) -0.386053(15) 0.25108(8)
C1M C -0.3952(3) -0.45898(14) 0.3061(9)
C2M C -0.3916(4) -0.45477(15) 0.1992(11)
H1M H -0.4052 -0.4632 0.1521
C3M C -0.3690(3) -0.43888(15) 0.1641(8)
C4M C -0.3527(2) -0.42391(12) 0.2286(7)
C5M C -0.3570(2) -0.42727(12) 0.3388(7)
C6M C -0.3808(3) -0.44310(13) 0.3714(7)
H2M H -0.3881 -0.4436 0.4408
C7M C -0.4205(5) -0.4771(3) 0.3382(15)
C8M C -0.3661(4) -0.4350(2) 0.0399(8)
H3M H -0.3794 -0.4461 0.0042
H4M H -0.3372 -0.4342 0.0197
H5M H -0.3799 -0.4224 0.0229
C9M C -0.3466(2) -0.41136(14) 0.4091(5)
H6M H -0.3544 -0.4136 0.4773
C10M C -0.3262(2) -0.37904(16) 0.4757(5)
C11M C -0.3194(3) -0.38731(17) 0.5826(5)
H7M H -0.2941 -0.3955 0.5846
H8M H -0.3428 -0.3959 0.6026
C12M C -0.3155(5) -0.3684(2) 0.6596(7)
H9M H -0.3417 -0.3609 0.6602
H10M H -0.3104 -0.3734 0.7289
C13M C -0.2820(3) -0.3549(3) 0.6293(8)
H11M H -0.2557 -0.3623 0.6301
H12M H -0.2799 -0.3437 0.6783
C14M C -0.2899(2) -0.34606(16) 0.5185(6)
H13M H -0.3163 -0.3387 0.5166
H14M H -0.2677 -0.3367 0.4996
C15M C -0.2910(2) -0.36382(15) 0.4449(6)
C16M C -0.3034(2) -0.33544(13) 0.1992(6)
C17M C -0.2978(2) -0.31474(12) 0.1710(7)
H15M H -0.2908 -0.3054 0.2223
C18M C -0.3020(3) -0.30784(12) 0.0729(7)
C19M C -0.3173(2) -0.32264(12) 0.0020(8)
H16M H -0.3224 -0.3182 -0.0650
C20M C -0.3254(2) -0.34318(13) 0.0228(6)
C21M C -0.31752(19) -0.34962(10) 0.1206(5)
C22M C -0.2982(2) -0.34077(13) 0.3031(5)
H17M H -0.2933 -0.3302 0.3498
C23M C -0.2961(3) -0.28719(18) 0.0398(9)
C24M C -0.3413(3) -0.35771(12) -0.0562(7)
H18M H -0.3437 -0.3711 -0.0265
H19M H -0.3223 -0.3581 -0.1135
H20M H -0.3683 -0.3533 -0.0798
N3M N -0.29942(15) -0.35840(9) 0.3377(4)
N4M N -0.32816(19) -0.39465(12) 0.3923(5)
O7M O -0.33355(18) -0.40896(9) 0.1920(4)
O8M O -0.32308(15) -0.36901(8) 0.1421(4)
O9M O -0.4326(3) -0.48927(14) 0.2787(8)
O10M O -0.4269(3) -0.47862(18) 0.4323(10)
O13M O -0.2828(3) -0.27367(18) 0.0999(9)
O14M O -0.2898(5) -0.2830(2) -0.0619(12)
Fe2B_2 Fe -0.44539(3) 0.138126(14) 0.00397(8)
Fe2C_2 Fe -0.55461(3) -0.138126(14) 0.00397(8)
Ba1A Ba -0.7500 0.2500 0.2500
Ba1B Ba -0.2500 0.2500 -1.2500
Ba1C Ba -0.7500 -0.2500 -1.2500
Ba2D Ba 0.0000 -0.5000 0.0000
Ba2H Ba -0.5000 -0.0000 -1.0000
Ba2H_2 Ba -0.5000 0.0000 0.0000
Ba2L Ba -0.5000 -0.5000 0.5000
Ba3B_2 Ba -0.4948(2) -0.00037(9) 0.33103(9)
Ba3C_2 Ba -0.5052(2) 0.00037(9) 0.33103(9)
Ba3D Ba -0.4948(2) -0.49963(9) 0.16897(9)
Ba3E Ba -0.5052(2) -0.50037(9) 0.16897(9)
Ba3H Ba 0.0052(2) 0.00037(9) 0.16897(9)
Ba3I Ba -0.0052(2) -0.00037(9) 0.16897(9)
Ba3N Ba 0.0052(2) -0.50037(9) 0.33103(9)
Ba3O Ba -0.0052(2) -0.49963(9) 0.33103(9)
O1_2 O -0.5000 -0.14225(11) -1.0000
O1A_2 O -0.5000 0.14225(11) -1.0000
O2F O -0.2500 -0.39284(10) 0.2500
O4H O 0.0216(3) -0.02700(16) 0.3495(8)
O4I O -0.0216(3) 0.02700(16) 0.3495(8)
O4J O 0.0216(3) 0.02700(16) 0.6505(8)
O4K O -0.0216(3) -0.02700(16) 0.6505(8)
O9H O -0.5674(3) -0.01073(14) -0.2213(8)
O9I O -0.4326(3) 0.01073(14) -0.2213(8)
O9J O -0.5674(3) 0.01073(14) -0.7787(8)
O9K_2 O -0.4326(3) -0.01073(14) -0.7787(8)
O10A O 0.0731(3) 0.02138(18) 0.4323(10)
O10B O -0.0731(3) 0.02138(18) 0.5677(10)
O10C O 0.0731(3) -0.02138(18) 0.5677(10)
O11F O -0.3174(2) -0.27105(12) 0.3290(7)
O11K O -0.1826(2) -0.22895(12) 0.3290(7)
O11M O -0.1826(2) -0.27105(12) 0.1710(7)
loop_
_geom_bond_atom_site_label_1
_geom_bond_atom_site_label_2
_geom_bond_site_symmetry_1
_geom_bond_site_symmetry_2
Fe1 N3 1_555 1_555
Fe2 N1 1_555 1_555
Ba1 O11 1_555 1_555
Ba2 O10 1_555 1_555
Ba3 O3 1_555 1_555
C1 C2 1_555 1_555
C2 H1 1_555 1_555
C3 C2 1_555 1_555
C4 C3 1_555 1_555
C5 C4 1_555 1_555
C6 C1 1_555 1_555
H2 C6 1_555 1_555
C7 C1 1_555 1_555
C8 C3 1_555 1_555
H3 C8 1_555 1_555
H4 C8 1_555 1_555
H5 C8 1_555 1_555
C9 C5 1_555 1_555
H6 C9 1_555 1_555
C10 C11 1_555 1_555
C11 H7 1_555 1_555
H8 C11 1_555 1_555
C12 C11 1_555 1_555
H9 C12 1_555 1_555
H10 C12 1_555 1_555
C13 C12 1_555 1_555
H11 C13 1_555 1_555
H12 C13 1_555 1_555
C14 C13 1_555 1_555
H13 C14 1_555 1_555
H14 C14 1_555 1_555
C15 C10 1_555 1_555
C16 C17 1_555 1_555
C17 H15 1_555 1_555
C18 C17 1_555 1_555
C19 C18 1_555 1_555
H16 C19 1_555 1_555
C20 C19 1_555 1_555
C21 C16 1_555 1_555
C22 C16 1_555 1_555
H17 C22 1_555 1_555
C23 C18 1_555 1_555
C24 C20 1_555 1_555
H18 C24 1_555 1_555
H19 C24 1_555 1_555
H20 C24 1_555 1_555
C25 C26 1_555 1_555
C26 H21 1_555 1_555
C27 C26 1_555 1_555
C28 C27 1_555 1_555
C29 C28 1_555 1_555
C30 C25 1_555 1_555
H22 C30 1_555 1_555
C31 C25 1_555 1_555
C32 C27 1_555 1_555
H23 C32 1_555 1_555
C33 C29 1_555 1_555
H24 C33 1_555 1_555
H25 C33 1_555 1_555
H26 C33 1_555 1_555
C34 C35 1_555 1_555
C35 H27 1_555 1_555
H28 C35 1_555 1_555
C36 C35 1_555 1_555
H29 C36 1_555 1_555
H30 C36 1_555 1_555
C37 C36 1_555 1_555
H31 C37 1_555 1_555
H32 C37 1_555 1_555
C38 C37 1_555 1_555
H33 C38 1_555 1_555
H34 C38 1_555 1_555
C39 C34 1_555 1_555
C40 C41 1_555 1_555
C41 C42 1_555 1_555
C42 C43 1_555 1_555
C43 H35 1_555 1_555
C44 C43 1_555 1_555
C45 C40 1_555 1_555
H36 C45 1_555 1_555
C46 C40 1_555 1_555
H37 C46 1_555 1_555
C47 C42 1_555 1_555
H38 C47 1_555 1_555
H39 C47 1_555 1_555
H40 C47 1_555 1_555
C48 C44 1_555 1_555
N1 C32 1_555 1_555
N2 Fe2 1_555 1_555
N3 C15 1_555 1_555
N4 Fe1 1_555 1_555
O1 Fe2 1_555 1_555
O2 Fe1 1_555 1_555
O3 C48 1_555 1_555
O4 Ba3 1_555 1_555
O5 Fe2 1_555 1_555
O6 Fe2 1_555 1_555
O7 Fe1 1_555 1_555
O8 Fe1 1_555 1_555
O9 C7 1_555 1_555
O10 C7 1_555 1_555
O11 C31 1_555 1_555
O12 C31 1_555 1_555
O13 Ba1 1_555 1_555
O14 C23 1_555 1_555
O15 Ba3 1_555 1_555
Fe2A N1A 1_555 1_555
Ba3A O3 1_555 1_555
C25A C26A 1_555 1_555
C26A H21A 1_555 1_555
C27A C26A 1_555 1_555
C28A C27A 1_555 1_555
C29A C28A 1_555 1_555
C30A C25A 1_555 1_555
H22A C30A 1_555 1_555
C31A C25A 1_555 1_555
C32A C27A 1_555 1_555
H23A C32A 1_555 1_555
C33A C29A 1_555 1_555
H24A C33A 1_555 1_555
H25A C33A 1_555 1_555
H26A C33A 1_555 1_555
C34A C35A 1_555 1_555
C35A H27A 1_555 1_555
H28A C35A 1_555 1_555
C36A C35A 1_555 1_555
H29A C36A 1_555 1_555
H30A C36A 1_555 1_555
C37A C36A 1_555 1_555
H31A C37A 1_555 1_555
H32A C37A 1_555 1_555
C38A C37A 1_555 1_555
H33A C38A 1_555 1_555
H34A C38A 1_555 1_555
C39A C34A 1_555 1_555
C40A C41A 1_555 1_555
C41A C42A 1_555 1_555
C42A C43A 1_555 1_555
C43A H35A 1_555 1_555
C44A C43A 1_555 1_555
C45A C40A 1_555 1_555
H36A C45A 1_555 1_555
C46A C40A 1_555 1_555
H37A C46A 1_555 1_555
C47A C42A 1_555 1_555
H38A C47A 1_555 1_555
H39A C47A 1_555 1_555
H40A C47A 1_555 1_555
C48A C44A 1_555 1_555
N1A C32A 1_555 1_555
N2A Fe2A 1_555 1_555
O1A Fe2A 1_555 1_555
O3A Ba3 1_555 1_555
O4A Ba3 1_555 1_555
O5A Fe2A 1_555 1_555
O6A Fe2A 1_555 1_555
O11A C31A 1_555 1_555
O12A C31A 1_555 1_555
O15A Ba3 1_555 1_555
Fe2B N1B 1_555 1_555
Ba3B O15 1_555 1_555
C25B C26B 1_555 1_555
C26B H21B 1_555 1_555
C27B C26B 1_555 1_555
C28B C27B 1_555 1_555
C29B C28B 1_555 1_555
C30B C25B 1_555 1_555
H22B C30B 1_555 1_555
C31B C25B 1_555 1_555
C32B C27B 1_555 1_555
H23B C32B 1_555 1_555
C33B C29B 1_555 1_555
H24B C33B 1_555 1_555
H25B C33B 1_555 1_555
H26B C33B 1_555 1_555
C34B C35B 1_555 1_555
C35B H27B 1_555 1_555
H28B C35B 1_555 1_555
C36B C35B 1_555 1_555
H29B C36B 1_555 1_555
H30B C36B 1_555 1_555
C37B C36B 1_555 1_555
H31B C37B 1_555 1_555
H32B C37B 1_555 1_555
C38B C37B 1_555 1_555
H33B C38B 1_555 1_555
H34B C38B 1_555 1_555
C39B C34B 1_555 1_555
C40B C41B 1_555 1_555
C41B C42B 1_555 1_555
C42B C43B 1_555 1_555
C43B H35B 1_555 1_555
C44B C43B 1_555 1_555
C45B C40B 1_555 1_555
H36B C45B 1_555 1_555
C46B C40B 1_555 1_555
H37B C46B 1_555 1_555
C47B C42B 1_555 1_555
H38B C47B 1_555 1_555
H39B C47B 1_555 1_555
H40B C47B 1_555 1_555
C48B C44B 1_555 1_555
N1B C32B 1_555 1_555
N2B Fe2B 1_555 1_555
O3B Ba3B 1_555 1_555
O4B Ba3B 1_555 1_555
O5B Fe2B 1_555 1_555
O6B Fe2B 1_555 1_555
O11B C31B 1_555 1_555
O12B C31B 1_555 1_555
Fe2C N1C 1_555 1_555
Ba3C O15 1_555 1_555
C25C C26C 1_555 1_555
C26C H21C 1_555 1_555
C27C C26C 1_555 1_555
C28C C27C 1_555 1_555
C29C C28C 1_555 1_555
C30C C25C 1_555 1_555
H22C C30C 1_555 1_555
C31C C25C 1_555 1_555
C32C C27C 1_555 1_555
H23C C32C 1_555 1_555
C33C C29C 1_555 1_555
H24C C33C 1_555 1_555
H25C C33C 1_555 1_555
H26C C33C 1_555 1_555
C34C C35C 1_555 1_555
C35C H27C 1_555 1_555
H28C C35C 1_555 1_555
C36C C35C 1_555 1_555
H29C C36C 1_555 1_555
H30C C36C 1_555 1_555
C37C C36C 1_555 1_555
H31C C37C 1_555 1_555
H32C C37C 1_555 1_555
C38C C37C 1_555 1_555
H33C C38C 1_555 1_555
H34C C38C 1_555 1_555
C39C C34C 1_555 1_555
C40C C41C 1_555 1_555
C41C C42C 1_555 1_555
C42C C43C 1_555 1_555
C43C H35C 1_555 1_555
C44C C43C 1_555 1_555
C45C C40C 1_555 1_555
H36C C45C 1_555 1_555
C46C C40C 1_555 1_555
H37C C46C 1_555 1_555
C47C C42C 1_555 1_555
H38C C47C 1_555 1_555
H39C C47C 1_555 1_555
H40C C47C 1_555 1_555
C48C C44C 1_555 1_555
N1C C32C 1_555 1_555
N2C Fe2C 1_555 1_555
O3C Ba3B 1_555 1_555
O4C Ba3B 1_555 1_555
O5C Fe2C 1_555 1_555
O6C Fe2C 1_555 1_555
O11C C31C 1_555 1_555
O12C C31C 1_555 1_555
Fe1K O2 1_555 1_555
C1K C2K 1_555 1_555
C2K H1K 1_555 1_555
C3K C2K 1_555 1_555
C4K C3K 1_555 1_555
C5K C4K 1_555 1_555
C6K C1K 1_555 1_555
H2K C6K 1_555 1_555
C7K C1K 1_555 1_555
C8K C3K 1_555 1_555
H3K C8K 1_555 1_555
H4K C8K 1_555 1_555
H5K C8K 1_555 1_555
C9K C5K 1_555 1_555
H6K C9K 1_555 1_555
C10K C11K 1_555 1_555
C11K H7K 1_555 1_555
H8K C11K 1_555 1_555
C12K C11K 1_555 1_555
H9K C12K 1_555 1_555
H10K C12K 1_555 1_555
C13K C12K 1_555 1_555
H11K C13K 1_555 1_555
H12K C13K 1_555 1_555
C14K C13K 1_555 1_555
H13K C14K 1_555 1_555
H14K C14K 1_555 1_555
C15K C10K 1_555 1_555
C16K C17K 1_555 1_555
C17K H15K 1_555 1_555
C18K C17K 1_555 1_555
C19K C18K 1_555 1_555
H16K C19K 1_555 1_555
C20K C19K 1_555 1_555
C21K C16K 1_555 1_555
C22K C16K 1_555 1_555
H17K C22K 1_555 1_555
C23K C18K 1_555 1_555
C24K C20K 1_555 1_555
H18K C24K 1_555 1_555
H19K C24K 1_555 1_555
H20K C24K 1_555 1_555
N3K Fe1K 1_555 1_555
N4K Fe1K 1_555 1_555
O7K Fe1K 1_555 1_555
O8K Fe1K 1_555 1_555
O9K C7K 1_555 1_555
O10K C7K 1_555 1_555
O13K Ba1 1_555 1_555
O14K C23K 1_555 1_555
Fe1F N3F 1_555 1_555
C1F C2F 1_555 1_555
C2F H1F 1_555 1_555
C3F C2F 1_555 1_555
C4F C3F 1_555 1_555
C5F C4F 1_555 1_555
C6F C1F 1_555 1_555
H2F C6F 1_555 1_555
C7F C1F 1_555 1_555
C8F C3F 1_555 1_555
H3F C8F 1_555 1_555
H4F C8F 1_555 1_555
H5F C8F 1_555 1_555
C9F C5F 1_555 1_555
H6F C9F 1_555 1_555
C10F C11F 1_555 1_555
C11F H7F 1_555 1_555
H8F C11F 1_555 1_555
C12F C11F 1_555 1_555
H9F C12F 1_555 1_555
H10F C12F 1_555 1_555
C13F C12F 1_555 1_555
H11F C13F 1_555 1_555
H12F C13F 1_555 1_555
C14F C13F 1_555 1_555
H13F C14F 1_555 1_555
H14F C14F 1_555 1_555
C15F C10F 1_555 1_555
C16F C17F 1_555 1_555
C17F H15F 1_555 1_555
C18F C17F 1_555 1_555
C19F C18F 1_555 1_555
H16F C19F 1_555 1_555
C20F C19F 1_555 1_555
C21F C16F 1_555 1_555
C22F C16F 1_555 1_555
H17F C22F 1_555 1_555
C23F C18F 1_555 1_555
C24F C20F 1_555 1_555
H18F C24F 1_555 1_555
H19F C24F 1_555 1_555
H20F C24F 1_555 1_555
N3F C15F 1_555 1_555
N4F Fe1F 1_555 1_555
O7F Fe1F 1_555 1_555
O8F Fe1F 1_555 1_555
O9F C7F 1_555 1_555
O10F C7F 1_555 1_555
O13F Ba1 1_555 1_555
O14F C23F 1_555 1_555
Fe1M N3M 1_555 1_555
C1M C2M 1_555 1_555
C2M H1M 1_555 1_555
C3M C2M 1_555 1_555
C4M C3M 1_555 1_555
C5M C4M 1_555 1_555
C6M C1M 1_555 1_555
H2M C6M 1_555 1_555
C7M C1M 1_555 1_555
C8M C3M 1_555 1_555
H3M C8M 1_555 1_555
H4M C8M 1_555 1_555
H5M C8M 1_555 1_555
C9M C5M 1_555 1_555
H6M C9M 1_555 1_555
C10M C11M 1_555 1_555
C11M H7M 1_555 1_555
H8M C11M 1_555 1_555
C12M C11M 1_555 1_555
H9M C12M 1_555 1_555
H10M C12M 1_555 1_555
C13M C12M 1_555 1_555
H11M C13M 1_555 1_555
H12M C13M 1_555 1_555
C14M C13M 1_555 1_555
H13M C14M 1_555 1_555
H14M C14M 1_555 1_555
C15M C10M 1_555 1_555
C16M C17M 1_555 1_555
C17M H15M 1_555 1_555
C18M C17M 1_555 1_555
C19M C18M 1_555 1_555
H16M C19M 1_555 1_555
C20M C19M 1_555 1_555
C21M C16M 1_555 1_555
C22M C16M 1_555 1_555
H17M C22M 1_555 1_555
C23M C18M 1_555 1_555
C24M C20M 1_555 1_555
H18M C24M 1_555 1_555
H19M C24M 1_555 1_555
H20M C24M 1_555 1_555
N3M C15M 1_555 1_555
N4M Fe1M 1_555 1_555
O7M Fe1M 1_555 1_555
O8M Fe1M 1_555 1_555
O9M C7M 1_555 1_555
O10M C7M 1_555 1_555
O13M Ba1 1_555 1_555
O14M C23M 1_555 1_555
Fe2B_2 O1A 1_555 1_555
Fe2C_2 O1 1_555 1_555
Ba1A O11A 1_555 1_555
Ba1B O11B 1_555 1_555
Ba1C O11C 1_555 1_555
Ba2D O10F 1_555 1_555
Ba2H O4B 1_555 1_555
Ba2H_2 O4 1_555 1_555
Ba2L O10M 1_555 1_555
Ba3B_2 O9K 1_555 1_555
Ba3C_2 O9K 1_555 1_555
Ba3D O9M 1_555 1_555
Ba3E O9M 1_555 1_555
Ba3H O9 1_555 1_555
Ba3I O9 1_555 1_555
Ba3N O9F 1_555 1_555
Ba3O O9F 1_555 1_555
O1_2 Fe2C 1_555 1_555
O1A_2 Fe2B 1_555 1_555
O2F Fe1F 1_555 1_555
O4H Ba2 1_555 1_555
O4I Ba2 1_555 1_555
O4J Ba2 1_555 1_555
O4K Ba2 1_555 1_555
O9H Ba3 1_555 1_555
O9I Ba3 1_555 1_555
O9J Ba3B 1_555 1_555
O9K_2 Ba3B 1_555 1_555
O10A Ba2 1_555 1_555
O10B Ba2 1_555 1_555
O10C Ba2 1_555 1_555
O11F Ba1 1_555 1_555
O11K Ba1 1_555 1_555
O11M Ba1 1_555 1_555
C4 O7 1_555 1_555
C5 C6 1_555 1_555
C9 N4 1_555 1_555
C10 N4 1_555 1_555
C14 C15 1_555 1_555
C20 C21 1_555 1_555
C21 O8 1_555 1_555
C22 N3 1_555 1_555
C23 O13 1_555 1_555
C28 O5 1_555 1_555
C29 C30 1_555 1_555
C34 N1 1_555 1_555
C38 C39 1_555 1_555
C39 N2 1_555 1_555
C41 O6 1_555 1_555
C44 C45 1_555 1_555
C46 N2 1_555 1_555
C48 O4 1_555 1_555
O4 Ba3A 1_555 1_555
O15 Ba3A 1_555 1_555
Ba3A O3A 1_555 1_555
Ba3A O4A 1_555 1_555
Ba3A O15A 1_555 1_555
Ba3A O9H 1_555 1_555
Ba3A O9I 1_555 1_555
C28A O5A 1_555 1_555
C29A C30A 1_555 1_555
C34A N1A 1_555 1_555
C38A C39A 1_555 1_555
C39A N2A 1_555 1_555
C41A O6A 1_555 1_555
C44A C45A 1_555 1_555
C46A N2A 1_555 1_555
C48A O3A 1_555 1_555
C48A O4A 1_555 1_555
O4A Ba2H_2 1_555 1_555
O15A Ba3B 1_555 1_555
O15A Ba3C 1_555 1_555
C28B O5B 1_555 1_555
C29B C30B 1_555 1_555
C34B N1B 1_555 1_555
C38B C39B 1_555 1_555
C39B N2B 1_555 1_555
C41B O6B 1_555 1_555
C44B C45B 1_555 1_555
C46B N2B 1_555 1_555
C48B O3B 1_555 1_555
C48B O4B 1_555 1_555
O3B Ba3C 1_555 1_555
O4B Ba3C 1_555 1_555
Ba3C O3C 1_555 1_555
Ba3C O4C 1_555 1_555
Ba3C O9J 1_555 1_555
Ba3C O9K_2 1_555 1_555
C28C O5C 1_555 1_555
C29C C30C 1_555 1_555
C34C N1C 1_555 1_555
C38C C39C 1_555 1_555
C39C N2C 1_555 1_555
C41C O6C 1_555 1_555
C44C C45C 1_555 1_555
C46C N2C 1_555 1_555
C48C O3C 1_555 1_555
C48C O4C 1_555 1_555
O4C Ba2H 1_555 1_555
C4K O7K 1_555 1_555
C5K C6K 1_555 1_555
C9K N4K 1_555 1_555
C10K N4K 1_555 1_555
C14K C15K 1_555 1_555
C15K N3K 1_555 1_555
C20K C21K 1_555 1_555
C21K O8K 1_555 1_555
C22K N3K 1_555 1_555
C23K O13K 1_555 1_555
O10K Ba2H_2 1_555 1_555
C4F O7F 1_555 1_555
C5F C6F 1_555 1_555
C9F N4F 1_555 1_555
C10F N4F 1_555 1_555
C14F C15F 1_555 1_555
C20F C21F 1_555 1_555
C21F O8F 1_555 1_555
C22F N3F 1_555 1_555
C23F O13F 1_555 1_555
Fe1M O2F 1_555 1_555
C4M O7M 1_555 1_555
C5M C6M 1_555 1_555
C9M N4M 1_555 1_555
C10M N4M 1_555 1_555
C14M C15M 1_555 1_555
C20M C21M 1_555 1_555
C21M O8M 1_555 1_555
C22M N3M 1_555 1_555
C23M O13M 1_555 1_555
Ba3H O4H 1_555 1_555
Ba3H O4I 1_555 1_555
Ba3I O4H 1_555 1_555
Ba3I O4I 1_555 1_555

#END
