
#######################################################################
#
#                 Cambridge Crystallographic Data Centre
#                                CCDC 
#
#######################################################################
#
# If this CIF has been generated from an entry in the Cambridge 
# Structural Database, then it will include bibliographic, chemical, 
# crystal, experimental, refinement or atomic coordinate data resulting 
# from the CCDC's data processing and validation procedures.
#
#######################################################################

data_EWUSUL
_chemical_formula_moiety         '(C40 H32 Cl2 Cu6 N8 O2 S6 W2)n'
_symmetry_cell_setting           orthorhombic
_symmetry_space_group_name_H-M   'F d d d'
_symmetry_Int_Tables_number      70
_space_group_name_Hall           '-F 2uv 2vw'
loop_
_symmetry_equiv_pos_site_id
_symmetry_equiv_pos_as_xyz
1 x,y,z
2 3/4-x,3/4-y,z
3 3/4-x,y,3/4-z
4 x,3/4-y,3/4-z
5 x,1/2+y,1/2+z
6 3/4-x,1/4-y,1/2+z
7 3/4-x,1/2+y,1/4-z
8 x,1/4-y,1/4-z
9 1/2+x,y,1/2+z
10 1/4-x,3/4-y,1/2+z
11 1/4-x,y,1/4-z
12 1/2+x,3/4-y,1/4-z
13 1/2+x,1/2+y,z
14 1/4-x,1/4-y,z
15 1/4-x,1/2+y,3/4-z
16 1/2+x,1/4-y,3/4-z
17 -x,-y,-z
18 1/4+x,1/4+y,-z
19 1/4+x,-y,1/4+z
20 -x,1/4+y,1/4+z
21 -x,1/2-y,1/2-z
22 1/4+x,3/4+y,1/2-z
23 1/4+x,1/2-y,3/4+z
24 -x,3/4+y,3/4+z
25 1/2-x,-y,1/2-z
26 3/4+x,1/4+y,1/2-z
27 3/4+x,-y,3/4+z
28 1/2-x,1/4+y,3/4+z
29 1/2-x,1/2-y,-z
30 3/4+x,3/4+y,-z
31 3/4+x,1/2-y,1/4+z
32 1/2-x,3/4+y,1/4+z
_cell_length_a                   25.569(4)
_cell_length_b                   29.638(4)
_cell_length_c                   58.594(9)
_cell_angle_alpha                90
_cell_angle_beta                 90
_cell_angle_gamma                90
_cell_volume                     44403.4
loop_
_atom_site_label
_atom_site_type_symbol
_atom_site_fract_x
_atom_site_fract_y
_atom_site_fract_z
_atom_site_U_iso_or_equiv
_atom_site_thermal_displace_type
W1 W 1.03549(2) 0.240000(18) 0.984440(12) 0.0812 Uani
Cu1 Cu 0.95446(7) 0.18483(5) 0.99246(4) 0.0929 Uani
Cu2 Cu 1.00437(10) 0.29226(7) 1.01875(4) 0.1142 Uani
Cu3 Cu 0.96774(7) 0.28729(5) 0.95897(3) 0.0826 Uani
N1 N 0.6094(4) 0.2011(4) 1.0313(2) 0.0840 Uani
N2 N 0.8778(4) 0.1907(4) 1.0001(2) 0.0823 Uani
N3 N 0.9663(5) 0.3173(4) 0.9281(2) 0.0967 Uani
N4 N 0.9679(4) 0.1153(3) 0.9940(3) 0.1013 Uani
O1 O 1.0990(4) 0.2241(4) 0.9790(2) 0.1197 Uani
S1 S 1.00937(19) 0.21598(14) 1.01884(8) 0.1067 Uani
S2 S 0.98148(14) 0.21096(11) 0.95796(7) 0.0841 Uani
S3 S 1.02868(15) 0.31582(12) 0.98371(7) 0.0879 Uani
Cl1 Cl 0.9543(3) 0.3336(2) 1.04385(10) 0.1713 Uani
C1 C 0.6482(7) 0.2164(6) 1.0438(3) 0.1073 Uani
H1 H 0.6388 0.2303 1.0574 0.1290 Uiso
C2 C 0.7003(6) 0.2146(7) 1.0393(3) 0.1053 Uani
H2 H 0.7245 0.2258 1.0497 0.1260 Uiso
C3 C 0.7169(5) 0.1950(4) 1.0183(3) 0.0827 Uani
C4 C 0.6760(6) 0.1803(7) 1.0045(4) 0.1273 Uani
H3 H 0.6837 0.1685 0.9902 0.1530 Uiso
C5 C 0.6249(6) 0.1826(6) 1.0114(3) 0.1100 Uani
H4 H 0.5995 0.1708 1.0017 0.1320 Uiso
C6 C 0.7711(5) 0.1934(4) 1.0119(3) 0.0790 Uani
C7 C 0.8095(9) 0.2053(8) 1.0274(4) 0.1430 Uani
H5 H 0.8012 0.2132 1.0423 0.1720 Uiso
C8 C 0.8636(10) 0.2050(8) 1.0193(4) 0.1430 Uani
H6 H 0.8892 0.2162 1.0290 0.1720 Uiso
C9 C 0.8399(7) 0.1771(6) 0.9867(3) 0.1030 Uani
H7 H 0.8494 0.1659 0.9724 0.1240 Uiso
C10 C 0.7879(7) 0.1778(6) 0.9917(3) 0.1030 Uani
H8 H 0.7639 0.1674 0.9810 0.1240 Uiso
C11 C 0.9605(8) 0.3602(9) 0.9273(4) 0.1473 Uani
H9 H 0.9568 0.3761 0.9409 0.1770 Uiso
C12 C 0.9596(8) 0.3855(9) 0.9053(4) 0.1473 Uani
H10 H 0.9561 0.4168 0.9055 0.1770 Uiso
C13 C 0.9635(8) 0.3649(9) 0.8857(4) 0.1473 Uani
C14 C 0.9674(8) 0.3199(8) 0.8885(4) 0.1473 Uani
H11 H 0.9667 0.3026 0.8752 0.1770 Uiso
C15 C 0.9724(9) 0.2959(9) 0.9091(4) 0.1473 Uani
H12 H 0.9799 0.2653 0.9091 0.1770 Uiso
C16 C 1.0127(8) 0.0998(5) 0.9871(6) 0.2013 Uani
H13 H 1.0364 0.1194 0.9803 0.2430 Uiso
C17 C 1.0264(7) 0.0547(6) 0.9897(5) 0.1580 Uani
H14 H 1.0596 0.0455 0.9852 0.1900 Uiso
C18 C 0.9930(5) 0.0237(4) 0.9984(3) 0.0897 Uani
C19 C 0.9458(5) 0.0416(4) 1.0049(3) 0.1040 Uani
H15 H 0.9204 0.0222 1.0107 0.1250 Uiso
C20 C 0.9345(6) 0.0858(5) 1.0032(3) 0.1130 Uani
H16 H 0.9025 0.0961 1.0086 0.1360 Uiso
W1BA W 0.46451(2) 0.260000(18) 1.015560(12) 0.0812 Uani
Cu1BA Cu 0.54554(7) 0.31517(5) 1.00754(4) 0.0929 Uani
Cu1P Cu 1.04554(7) -0.18483(5) 1.00754(4) 0.0929 Uani
Cu2BA Cu 0.49563(10) 0.20774(7) 0.98125(4) 0.1142 Uani
Cu3BA Cu 0.53226(7) 0.21271(5) 1.04103(3) 0.0826 Uani
Cu3C Cu 0.96774(7) 0.46271(5) 0.79103(3) 0.0826 Uani
N1BA N 0.8906(4) 0.2989(4) 0.9687(2) 0.0840 Uani
N2BA N 0.6222(4) 0.3093(4) 0.9999(2) 0.0823 Uani
N3C N 0.9663(5) 0.4327(4) 0.8219(2) 0.0967 Uani
N3BA N 0.5337(5) 0.1827(4) 1.0719(2) 0.0967 Uani
N4P N 1.0321(4) -0.1153(3) 1.0060(3) 0.1013 Uani
N4BA N 0.5321(4) 0.3847(3) 1.0060(3) 0.1013 Uani
O1BA O 0.4010(4) 0.2759(4) 1.0210(2) 0.1197 Uani
S1BA S 0.49063(19) 0.28402(14) 0.98116(8) 0.1067 Uani
S2BA S 0.51852(14) 0.28904(11) 1.04204(7) 0.0841 Uani
S3BA S 0.47132(15) 0.18418(12) 1.01629(7) 0.0879 Uani
Cl1BA Cl 0.5457(3) 0.1664(2) 0.95615(10) 0.1713 Uani
C1BA C 0.8518(7) 0.2836(6) 0.9562(3) 0.1073 Uani
H1BA H 0.8612 0.2697 0.9426 0.1290 Uiso
C2BA C 0.7997(6) 0.2854(7) 0.9607(3) 0.1053 Uani
H2BA H 0.7755 0.2742 0.9503 0.1260 Uiso
C3BA C 0.7831(5) 0.3050(4) 0.9817(3) 0.0827 Uani
C4BA C 0.8240(6) 0.3197(7) 0.9955(4) 0.1273 Uani
H3BA H 0.8163 0.3315 1.0098 0.1530 Uiso
C5BA C 0.8751(6) 0.3174(6) 0.9886(3) 0.1100 Uani
H4BA H 0.9005 0.3292 0.9983 0.1320 Uiso
C6BA C 0.7289(5) 0.3066(4) 0.9881(3) 0.0790 Uani
C7BA C 0.6905(9) 0.2947(8) 0.9726(4) 0.1430 Uani
H5BA H 0.6988 0.2868 0.9577 0.1720 Uiso
C8BA C 0.6364(10) 0.2950(8) 0.9807(4) 0.1430 Uani
H6BA H 0.6108 0.2838 0.9710 0.1720 Uiso
C9BA C 0.6601(7) 0.3229(6) 1.0133(3) 0.1030 Uani
H7BA H 0.6506 0.3341 1.0276 0.1240 Uiso
C10BA C 0.7121(7) 0.3222(6) 1.0083(3) 0.1030 Uani
H8BA H 0.7361 0.3326 1.0190 0.1240 Uiso
C11C C 0.9605(8) 0.3898(9) 0.8227(4) 0.1473 Uani
H9C H 0.9568 0.3739 0.8091 0.1770 Uiso
C12C C 0.9596(8) 0.3645(9) 0.8447(4) 0.1473 Uani
H10C H 0.9561 0.3332 0.8445 0.1770 Uiso
C13C C 0.9635(8) 0.3851(9) 0.8643(4) 0.1473 Uani
C14C C 0.9674(8) 0.4301(8) 0.8615(4) 0.1473 Uani
H11C H 0.9667 0.4474 0.8748 0.1770 Uiso
C15C C 0.9724(9) 0.4541(9) 0.8409(4) 0.1473 Uani
H12C H 0.9799 0.4847 0.8409 0.1770 Uiso
C16P C 0.9873(8) -0.0998(5) 1.0129(6) 0.2013 Uani
H13P H 0.9636 -0.1194 1.0197 0.2430 Uiso
C17P C 0.9736(7) -0.0547(6) 1.0103(5) 0.1580 Uani
H14P H 0.9404 -0.0455 1.0148 0.1900 Uiso
C18P C 1.0070(5) -0.0237(4) 1.0016(3) 0.0897 Uani
C19P C 1.0542(5) -0.0416(4) 0.9951(3) 0.1040 Uani
H15P H 1.0796 -0.0222 0.9893 0.1250 Uiso
C20P C 1.0655(6) -0.0858(5) 0.9968(3) 0.1130 Uani
H16P H 1.0975 -0.0961 0.9914 0.1360 Uiso
loop_
_atom_site_aniso_label
_atom_site_aniso_U_11
_atom_site_aniso_U_22
_atom_site_aniso_U_33
_atom_site_aniso_U_23
_atom_site_aniso_U_13
_atom_site_aniso_U_12
W1 0.0555(3) 0.0567(4) 0.1315(6) 0.0040(3) -0.0078(3) -0.0012(2)
Cu1 0.0669(10) 0.0517(9) 0.1600(18) 0.0171(10) 0.0030(10) 0.0005(7)
Cu2 0.1229(18) 0.0867(14) 0.1331(19) 0.0013(12) 0.0116(14) -0.0002(12)
Cu3 0.0810(11) 0.0618(9) 0.1051(13) 0.0136(9) 0.0049(9) 0.0065(8)
N1 0.067 0.07 0.115 0.021 -0.005 0.008
N2 0.073 0.063 0.111 0.004 0.01 0.006
N3 0.117(10) 0.056(6) 0.117(10) 0.007(6) 0.010(8) 0.016(6)
N4 0.066(7) 0.043(6) 0.195(14) 0.028(7) 0.029(8) 0.004(5)
O1 0.048(5) 0.103(8) 0.208(13) -0.013(8) -0.009(6) 0.010(5)
S1 0.110(3) 0.078(3) 0.132(4) 0.026(2) -0.021(3) -0.003(2)
S2 0.073(2) 0.0572(18) 0.122(3) -0.0024(18) -0.007(2) 0.0008(15)
S3 0.093(3) 0.0518(17) 0.119(3) 0.0002(18) 0.001(2) -0.0166(16)
Cl1 0.271(8) 0.133(4) 0.110(4) 0.000(3) 0.053(4) 0.083(5)
C1 0.092 0.135 0.095 -0.009 0.019 0.002
C2 0.08 0.147 0.089 -0.015 0.002 -0.001
C3 0.072 0.051 0.125 0.007 0.007 0.006
C4 0.062 0.141 0.179 -0.085 0.016 -0.003
C5 0.074 0.116 0.14 -0.057 0.002 0.008
C6 0.075 0.046 0.116 0.001 -0.014 0.009
C7 0.143 0.143 0.143 -0.0004 0.0001 -0.0001
C8 0.143 0.143 0.143 -0.0004 0 -0.0002
C9 0.103 0.103 0.103 0.0001 0 0.0001
C10 0.103 0.103 0.103 0.0001 -0.0001 0.0001
C11 0.148(3) 0.147(3) 0.147(3) 0.0001(7) 0.0002(8) 0.0001(8)
C12 0.148(3) 0.147(3) 0.147(3) 0.0001(6) 0.0001(7) 0.0001(7)
C13 0.148(3) 0.147(3) 0.147(3) 0.0001(6) 0.0001(7) 0.0001(7)
C14 0.148(3) 0.147(3) 0.147(3) 0.0001(6) 0.0000(7) 0.0001(7)
C15 0.148(3) 0.147(3) 0.147(3) 0.0001(7) 0.0000(8) 0.0001(8)
C16 0.114(14) 0.040(7) 0.45(4) 0.037(15) 0.14(2) 0.014(9)
C17 0.096(12) 0.068(10) 0.31(3) 0.058(15) 0.078(16) 0.023(9)
C18 0.052(7) 0.054(7) 0.163(15) 0.014(8) 0.010(8) 0.004(6)
C19 0.059(7) 0.048(7) 0.205(18) 0.020(9) 0.039(10) -0.009(6)
C20 0.073(9) 0.058(8) 0.208(19) 0.045(10) 0.039(11) 0.009(7)
W1BA 0.0555 0.0567 0.1315 0.004 -0.0078 -0.0012
Cu1BA 0.0669 0.0517 0.16 0.0171 0.003 0.0005
Cu1P 0.0669 0.0517 0.16 0.0171 0.003 0.0005
Cu2BA 0.1229 0.0867 0.1331 0.0013 0.0116 -0.0002
Cu3BA 0.081 0.0618 0.1051 0.0136 0.0049 0.0065
Cu3C 0.081 0.0618 0.1051 0.0136 -0.0049 -0.0065
N1BA 0.067(7) 0.070(7) 0.115(10) 0.021(7) -0.005(7) 0.008(6)
N2BA 0.073(7) 0.063(6) 0.111(9) 0.004(6) 0.010(7) 0.006(5)
N3C 0.117 0.056 0.117 0.007 -0.01 -0.016
N3BA 0.117 0.056 0.117 0.007 0.01 0.016
N4P 0.066 0.043 0.195 0.028 0.029 0.004
N4BA 0.066 0.043 0.195 0.028 0.029 0.004
O1BA 0.048 0.103 0.208 -0.013 -0.009 0.01
S1BA 0.11 0.078 0.132 0.026 -0.021 -0.003
S2BA 0.073 0.0572 0.122 -0.0024 -0.007 0.0008
S3BA 0.093 0.0518 0.119 0.0002 0.001 -0.0166
Cl1BA 0.271 0.133 0.11 0 0.053 0.083
C1BA 0.092(12) 0.135(15) 0.095(12) -0.009(10) 0.019(9) 0.002(10)
C2BA 0.080(10) 0.147(16) 0.089(11) -0.015(11) 0.002(8) -0.001(10)
C3BA 0.072(8) 0.051(7) 0.125(12) 0.007(7) 0.007(8) 0.006(6)
C4BA 0.062(9) 0.141(16) 0.179(18) -0.085(14) 0.016(10) -0.003(9)
C5BA 0.074(10) 0.116(13) 0.140(15) -0.057(11) 0.002(10) 0.008(9)
C6BA 0.075(8) 0.046(6) 0.116(12) 0.001(7) -0.014(8) 0.009(6)
C7BA 0.143(5) 0.143(5) 0.143(5) -0.0004(8) 0.0001(8) -0.0001(8)
C8BA 0.143(5) 0.143(5) 0.143(5) -0.0004(8) 0.0000(8) -0.0002(8)
C9BA 0.103(3) 0.103(3) 0.103(3) 0.0001(8) 0.0000(8) 0.0001(8)
C10BA 0.103(3) 0.103(3) 0.103(3) 0.0001(8) -0.0001(8) 0.0001(8)
C11C 0.148 0.147 0.147 0.0001 -0.0002 -0.0001
C12C 0.148 0.147 0.147 0.0001 -0.0001 -0.0001
C13C 0.148 0.147 0.147 0.0001 -0.0001 -0.0001
C14C 0.148 0.147 0.147 0.0001 0 -0.0001
C15C 0.148 0.147 0.147 0.0001 0 -0.0001
C16P 0.114 0.04 0.45 0.037 0.14 0.014
C17P 0.096 0.068 0.31 0.058 0.078 0.023
C18P 0.052 0.054 0.163 0.014 0.01 0.004
C19P 0.059 0.048 0.205 0.02 0.039 -0.009
C20P 0.073 0.058 0.208 0.045 0.039 0.009
loop_
_geom_bond_atom_site_label_1
_geom_bond_atom_site_label_2
_geom_bond_site_symmetry_1
_geom_bond_site_symmetry_2
W1 Cu1 1_555 1_555
Cu1 N2 1_555 1_555
Cu2 W1 1_555 1_555
Cu3 W1 1_555 1_555
N1 C1 1_555 1_555
N2 C8 1_555 1_555
N3 Cu3 1_555 1_555
N4 Cu1 1_555 1_555
O1 W1 1_555 1_555
S1 W1 1_555 1_555
S2 W1 1_555 1_555
S3 W1 1_555 1_555
Cl1 Cu2 1_555 1_555
C1 H1 1_555 1_555
C2 C1 1_555 1_555
H2 C2 1_555 1_555
C3 C2 1_555 1_555
C4 C3 1_555 1_555
H3 C4 1_555 1_555
C5 N1 1_555 1_555
H4 C5 1_555 1_555
C6 C3 1_555 1_555
C7 C6 1_555 1_555
H5 C7 1_555 1_555
C8 C7 1_555 1_555
H6 C8 1_555 1_555
C9 N2 1_555 1_555
H7 C9 1_555 1_555
C10 C6 1_555 1_555
H8 C10 1_555 1_555
C11 N3 1_555 1_555
H9 C11 1_555 1_555
C12 C11 1_555 1_555
H10 C12 1_555 1_555
C13 C12 1_555 1_555
C14 C13 1_555 1_555
H11 C14 1_555 1_555
C15 N3 1_555 1_555
H12 C15 1_555 1_555
C16 N4 1_555 1_555
H13 C16 1_555 1_555
C17 C16 1_555 1_555
H14 C17 1_555 1_555
C18 C17 1_555 1_555
C19 C18 1_555 1_555
H15 C19 1_555 1_555
C20 N4 1_555 1_555
H16 C20 1_555 1_555
W1BA Cu1BA 1_555 1_555
Cu1BA N2BA 1_555 1_555
Cu1P N4P 1_555 1_555
Cu2BA W1BA 1_555 1_555
Cu3BA N1 1_555 1_555
Cu3C N3C 1_555 1_555
N1BA Cu3 1_555 1_555
N2BA C8BA 1_555 1_555
N3C C11C 1_555 1_555
N3BA Cu3BA 1_555 1_555
N4P C16P 1_555 1_555
N4BA Cu1BA 1_555 1_555
O1BA W1BA 1_555 1_555
S1BA W1BA 1_555 1_555
S2BA W1BA 1_555 1_555
S3BA W1BA 1_555 1_555
Cl1BA Cu2BA 1_555 1_555
C1BA N1BA 1_555 1_555
H1BA C1BA 1_555 1_555
C2BA C1BA 1_555 1_555
H2BA C2BA 1_555 1_555
C3BA C2BA 1_555 1_555
C4BA C3BA 1_555 1_555
H3BA C4BA 1_555 1_555
C5BA N1BA 1_555 1_555
H4BA C5BA 1_555 1_555
C6BA C3BA 1_555 1_555
C7BA C6BA 1_555 1_555
H5BA C7BA 1_555 1_555
C8BA C7BA 1_555 1_555
H6BA C8BA 1_555 1_555
C9BA N2BA 1_555 1_555
H7BA C9BA 1_555 1_555
C10BA C6BA 1_555 1_555
H8BA C10BA 1_555 1_555
C11C H9C 1_555 1_555
C12C C11C 1_555 1_555
H10C C12C 1_555 1_555
C13C C13 1_555 1_555
C14C C13C 1_555 1_555
H11C C14C 1_555 1_555
C15C N3C 1_555 1_555
H12C C15C 1_555 1_555
C16P H13P 1_555 1_555
C17P C16P 1_555 1_555
H14P C17P 1_555 1_555
C18P C18 1_555 1_555
C19P C18P 1_555 1_555
H15P C19P 1_555 1_555
C20P N4P 1_555 1_555
H16P C20P 1_555 1_555
Cu1 S1 1_555 1_555
Cu1 S2 1_555 1_555
Cu2 S1 1_555 1_555
Cu2 S3 1_555 1_555
Cu3 S2 1_555 1_555
Cu3 S3 1_555 1_555
C4 C5 1_555 1_555
C9 C10 1_555 1_555
C14 C15 1_555 1_555
C19 C20 1_555 1_555
W1BA Cu3BA 1_555 1_555
Cu1BA S1BA 1_555 1_555
Cu1BA S2BA 1_555 1_555
Cu2BA S1BA 1_555 1_555
Cu2BA S3BA 1_555 1_555
Cu3BA S2BA 1_555 1_555
Cu3BA S3BA 1_555 1_555
C4BA C5BA 1_555 1_555
C9BA C10BA 1_555 1_555
C12C C13C 1_555 1_555
C14C C15C 1_555 1_555
C17P C18P 1_555 1_555
C19P C20P 1_555 1_555

#END
