
#######################################################################
#
#                 Cambridge Crystallographic Data Centre
#                                CCDC 
#
#######################################################################
#
# If this CIF has been generated from an entry in the Cambridge 
# Structural Database, then it will include bibliographic, chemical, 
# crystal, experimental, refinement or atomic coordinate data resulting 
# from the CCDC's data processing and validation procedures.
#
#######################################################################

data_JODFOZ
_chemical_formula_moiety         '(C31 H27 Co1 N3 O5)n'
_symmetry_cell_setting           monoclinic
_symmetry_space_group_name_H-M   'C c'
_symmetry_Int_Tables_number      9
_space_group_name_Hall           'C -2yc'
loop_
_symmetry_equiv_pos_site_id
_symmetry_equiv_pos_as_xyz
1 x,y,z
2 x,-y,1/2+z
3 1/2+x,1/2+y,z
4 1/2+x,1/2-y,1/2+z
_cell_length_a                   13.3374(10)
_cell_length_b                   24.979(2)
_cell_length_c                   8.5046(7)
_cell_angle_alpha                90
_cell_angle_beta                 99.119(4)
_cell_angle_gamma                90
_cell_volume                     2797.54
loop_
_atom_site_label
_atom_site_type_symbol
_atom_site_fract_x
_atom_site_fract_y
_atom_site_fract_z
_atom_site_U_iso_or_equiv
_atom_site_thermal_displace_type
C1 C -0.0190(5) -0.6552(4) -0.4754(9) 0.0498 Uani
C2 C 0.0328(5) -0.6839(3) -0.3304(8) 0.0465 Uani
C3 C 0.0770(6) -0.7342(3) -0.3389(10) 0.0554 Uani
H1 H 0.0762 -0.7515 -0.4373 0.0660 Uiso
C4 C 0.1235(6) -0.7588(4) -0.1942(11) 0.0651 Uani
H2 H 0.1534 -0.7927 -0.1975 0.0790 Uiso
C5 C 0.1253(6) -0.7337(4) -0.0500(11) 0.0578 Uani
C6 C 0.0819(6) -0.6845(4) -0.0451(10) 0.0584 Uani
H3 H 0.0824 -0.6672 0.0532 0.0700 Uiso
C7 C 0.0367(5) -0.6596(4) -0.1855(10) 0.0543 Uani
H4 H 0.0083 -0.6253 -0.1804 0.0650 Uiso
C8 C 0.1740(6) -0.7568(4) 0.1086(11) 0.0688 Uani
H5 H 0.1699 -0.7364 0.2001 0.0830 Uiso
C9 C 0.2193(7) -0.8008(4) 0.1282(12) 0.0689 Uani
H6 H 0.2261 -0.8211 0.0373 0.0830 Uiso
C10 C 0.2631(6) -0.8228(4) 0.2866(10) 0.0612 Uani
C11 C 0.2897(6) -0.8758(4) 0.2964(9) 0.0586 Uani
H7 H 0.2812 -0.8973 0.2046 0.0700 Uiso
C12 C 0.3294(5) -0.8973(3) 0.4438(8) 0.0515 Uani
H8 H 0.3461 -0.9339 0.4481 0.0620 Uiso
C13 C 0.3209(6) -0.8178(4) 0.5713(10) 0.0605 Uani
H9 H 0.3312 -0.7972 0.6651 0.0730 Uiso
C14 C 0.2799(7) -0.7928(4) 0.4249(11) 0.0704 Uani
H10 H 0.2642 -0.7561 0.4222 0.0850 Uiso
C15 C -0.2736(5) -0.5631(3) -0.6476(8) 0.0400 Uani
C16 C -0.3669(5) -0.5417(3) -0.5969(8) 0.0396 Uani
C17 C -0.3791(6) -0.4871(3) -0.5826(10) 0.0605 Uani
H11 H -0.3304 -0.4632 -0.6100 0.0730 Uiso
C18 C -0.4666(6) -0.4680(3) -0.5256(11) 0.0659 Uani
H12 H -0.4738 -0.4310 -0.5111 0.0790 Uiso
C19 C -0.5415(5) -0.5019(3) -0.4908(10) 0.0483 Uani
C20 C -0.5277(6) -0.5564(3) -0.5068(10) 0.0555 Uani
H13 H -0.5767 -0.5807 -0.4815 0.0660 Uiso
C21 C -0.4402(6) -0.5754(3) -0.5609(9) 0.0526 Uani
H14 H -0.4319 -0.6125 -0.5725 0.0630 Uiso
C22 C -0.6297(5) -0.4795(3) -0.4297(9) 0.0502 Uani
H15 H -0.6279 -0.4429 -0.4044 0.0600 Uiso
C23 C -0.7113(5) -0.5067(3) -0.4071(9) 0.0471 Uani
H16 H -0.7125 -0.5436 -0.4290 0.0560 Uiso
C24 C -0.8004(5) -0.4835(3) -0.3505(8) 0.0442 Uani
C25 C -0.7997(6) -0.4327(3) -0.2773(9) 0.0483 Uani
H17 H -0.7393 -0.4127 -0.2590 0.0580 Uiso
C26 C -0.8856(5) -0.4125(3) -0.2330(9) 0.0464 Uani
H18 H -0.8831 -0.3783 -0.1859 0.0560 Uiso
C27 C -0.9749(5) -0.4894(3) -0.3168(9) 0.0474 Uani
H19 H -1.0351 -0.5096 -0.3280 0.0570 Uiso
C28 C -0.8903(5) -0.5118(3) -0.3652(9) 0.0485 Uani
H20 H -0.8939 -0.5465 -0.4084 0.0580 Uiso
Co1 Co -0.10644(8) -0.59642(4) -0.70098(11) 0.0345 Uani
N1 N 0.3454(4) -0.8699(2) 0.5790(7) 0.0410 Uani
N2 N -0.9753(4) -0.4397(2) -0.2542(6) 0.0406 Uani
O1 O -0.2017(3) -0.53249(19) -0.6781(5) 0.0441 Uani
O2 O -0.2608(4) -0.61319(19) -0.6536(5) 0.0433 Uani
O3 O -0.0499(4) -0.6082(2) -0.4630(6) 0.0536 Uani
O4 O -0.0254(4) -0.6774(2) -0.6087(6) 0.0656 Uani
Co1A Co -1.10644(8) -0.40358(4) -0.20098(11) 0.0345 Uani
Co1C Co 0.39356(8) -0.90358(4) 0.79902(11) 0.0345 Uani
N1C N -0.1546(4) -0.6301(2) -0.9210(7) 0.0410 Uani
N2A N 0.0247(4) -0.5603(2) -0.7542(6) 0.0406 Uani
C29 C -0.7070(8) -0.3443(4) -0.816(2) 0.1090 Uani
H21 H -0.7624 -0.3550 -0.7675 0.1310 Uiso
C30 C -0.6241(8) -0.3202(5) -0.5503(18) 0.1144 Uani
H22 H -0.5592 -0.3327 -0.4947 0.1720 Uiso
H23 H -0.6784 -0.3410 -0.5168 0.1720 Uiso
H24 H -0.6327 -0.2827 -0.5255 0.1720 Uiso
C31 C -0.5359(8) -0.3097(5) -0.7833(16) 0.1113 Uani
H25 H -0.5124 -0.2757 -0.7362 0.1670 Uiso
H26 H -0.5515 -0.3059 -0.8981 0.1670 Uiso
H27 H -0.4832 -0.3365 -0.7569 0.1670 Uiso
N3 N -0.6271(6) -0.3263(4) -0.7212(14) 0.0949 Uani
O5 O -0.7172(6) -0.3486(4) -0.9613(14) 0.1286 Uani
loop_
_atom_site_aniso_label
_atom_site_aniso_U_11
_atom_site_aniso_U_22
_atom_site_aniso_U_33
_atom_site_aniso_U_23
_atom_site_aniso_U_13
_atom_site_aniso_U_12
C1 0.035(4) 0.072(6) 0.040(5) 0.012(4) -0.001(3) -0.009(4)
C2 0.035(4) 0.063(5) 0.042(4) 0.014(4) 0.008(3) 0.000(3)
C3 0.054(5) 0.058(5) 0.055(5) 0.009(4) 0.011(4) 0.001(4)
C4 0.055(5) 0.060(6) 0.081(6) 0.021(5) 0.013(5) 0.014(4)
C5 0.054(5) 0.061(5) 0.059(5) 0.009(4) 0.011(4) 0.000(4)
C6 0.045(4) 0.078(6) 0.048(5) 0.009(4) -0.006(4) 0.012(4)
C7 0.036(4) 0.068(6) 0.060(6) 0.003(4) 0.011(4) 0.009(4)
C8 0.054(5) 0.079(7) 0.073(7) 0.013(5) 0.009(4) 0.008(5)
C9 0.065(6) 0.069(6) 0.072(6) 0.005(5) 0.009(5) 0.000(5)
C10 0.043(4) 0.098(7) 0.040(5) 0.021(5) -0.001(4) -0.008(5)
C11 0.057(5) 0.085(7) 0.033(4) 0.006(4) 0.005(4) -0.008(4)
C12 0.038(4) 0.078(6) 0.039(4) 0.003(4) 0.008(3) -0.004(4)
C13 0.062(5) 0.060(6) 0.057(5) 0.008(4) 0.002(4) 0.009(4)
C14 0.074(6) 0.064(6) 0.074(7) 0.023(5) 0.014(5) 0.013(5)
C15 0.030(4) 0.056(5) 0.034(4) -0.001(3) 0.005(3) 0.006(3)
C16 0.029(3) 0.037(4) 0.054(4) 0.003(3) 0.010(3) 0.003(3)
C17 0.045(4) 0.052(5) 0.092(6) -0.003(4) 0.034(4) -0.004(4)
C18 0.043(5) 0.044(5) 0.118(7) -0.004(5) 0.035(5) 0.004(4)
C19 0.028(3) 0.055(5) 0.065(5) 0.000(4) 0.017(3) 0.001(3)
C20 0.040(4) 0.048(5) 0.083(6) 0.006(4) 0.024(4) 0.009(3)
C21 0.046(5) 0.048(4) 0.067(5) 0.004(4) 0.019(4) 0.007(3)
C22 0.041(4) 0.048(5) 0.066(5) -0.007(4) 0.022(4) 0.007(3)
C23 0.027(3) 0.053(5) 0.063(5) -0.012(4) 0.012(3) 0.003(3)
C24 0.033(4) 0.053(5) 0.049(4) -0.005(3) 0.014(3) 0.004(3)
C25 0.041(4) 0.050(5) 0.058(5) -0.010(4) 0.020(3) 0.000(3)
C26 0.032(4) 0.057(5) 0.052(4) -0.002(3) 0.012(3) -0.003(3)
C27 0.032(4) 0.050(4) 0.063(5) -0.007(4) 0.016(3) -0.001(3)
C28 0.036(4) 0.052(5) 0.059(5) -0.010(3) 0.012(3) -0.001(3)
Co1 0.0261(5) 0.0459(6) 0.0325(5) -0.0023(6) 0.0073(3) -0.0011(6)
N1 0.030(3) 0.046(4) 0.045(4) 0.000(3) 0.000(3) -0.001(3)
N2 0.031(3) 0.053(4) 0.039(3) 0.002(3) 0.009(3) 0.002(3)
O1 0.035(3) 0.046(3) 0.054(3) 0.005(2) 0.015(2) 0.000(2)
O2 0.039(3) 0.042(3) 0.053(3) 0.001(2) 0.020(2) 0.003(2)
O3 0.047(3) 0.061(4) 0.052(3) 0.014(3) 0.005(2) 0.002(3)
O4 0.074(4) 0.074(4) 0.044(3) 0.004(3) -0.005(3) -0.025(3)
Co1A 0.0261 0.0459 0.0325 0.0023 0.0073 0.0011
Co1C 0.0261 0.0459 0.0325 0.0023 0.0073 0.0011
N1C 0.03 0.046 0.045 0 0 0.001
N2A 0.031 0.053 0.039 -0.002 0.009 -0.002
C29 0.051(6) 0.061(7) 0.208(16) -0.038(9) -0.001(8) 0.002(5)
C30 0.066(7) 0.108(10) 0.168(13) -0.009(9) 0.015(8) -0.001(6)
C31 0.062(6) 0.094(9) 0.185(13) -0.020(9) 0.041(8) -0.020(6)
N3 0.050(5) 0.097(7) 0.139(9) -0.027(6) 0.019(6) -0.003(4)
O5 0.084(6) 0.109(7) 0.187(10) -0.067(7) 0.004(6) 0.002(5)
loop_
_geom_bond_atom_site_label_1
_geom_bond_atom_site_label_2
_geom_bond_site_symmetry_1
_geom_bond_site_symmetry_2
C1 C2 1_555 1_555
C2 C3 1_555 1_555
C3 H1 1_555 1_555
C4 C3 1_555 1_555
H2 C4 1_555 1_555
C5 C4 1_555 1_555
C6 C5 1_555 1_555
H3 C6 1_555 1_555
C7 C2 1_555 1_555
H4 C7 1_555 1_555
C8 C5 1_555 1_555
H5 C8 1_555 1_555
C9 C8 1_555 1_555
H6 C9 1_555 1_555
C10 C9 1_555 1_555
C11 C10 1_555 1_555
H7 C11 1_555 1_555
C12 C11 1_555 1_555
H8 C12 1_555 1_555
C13 H9 1_555 1_555
C14 C10 1_555 1_555
H10 C14 1_555 1_555
C15 C16 1_555 1_555
C16 C17 1_555 1_555
C17 H11 1_555 1_555
C18 C17 1_555 1_555
H12 C18 1_555 1_555
C19 C18 1_555 1_555
C20 C19 1_555 1_555
H13 C20 1_555 1_555
C21 C16 1_555 1_555
H14 C21 1_555 1_555
C22 C19 1_555 1_555
H15 C22 1_555 1_555
C23 C22 1_555 1_555
H16 C23 1_555 1_555
C24 C23 1_555 1_555
C25 C24 1_555 1_555
H17 C25 1_555 1_555
C26 C25 1_555 1_555
H18 C26 1_555 1_555
C27 H19 1_555 1_555
C28 C24 1_555 1_555
H20 C28 1_555 1_555
Co1 O1 1_555 1_555
N1 C12 1_555 1_555
N2 C26 1_555 1_555
O1 C15 1_555 1_555
O2 C15 1_555 1_555
O3 C1 1_555 1_555
O4 C1 1_555 1_555
C29 H21 1_555 1_555
C30 H22 1_555 1_555
H23 C30 1_555 1_555
H24 C30 1_555 1_555
C31 H25 1_555 1_555
H26 C31 1_555 1_555
H27 C31 1_555 1_555
N3 C29 1_555 1_555
O5 C29 1_555 1_555
Co1A N2 1_555 1_555
Co1C N1 1_555 1_555
N1C Co1 1_555 1_555
N2A Co1 1_555 1_555
C6 C7 1_555 1_555
C13 C14 1_555 1_555
C13 N1 1_555 1_555
C20 C21 1_555 1_555
C27 C28 1_555 1_555
C27 N2 1_555 1_555
Co1 O2 1_555 1_555
Co1 O3 1_555 1_555
Co1 O4 1_555 1_555
C30 N3 1_555 1_555
C31 N3 1_555 1_555

#END
