
#######################################################################
#
#                 Cambridge Crystallographic Data Centre
#                                CCDC 
#
#######################################################################
#
# If this CIF has been generated from an entry in the Cambridge 
# Structural Database, then it will include bibliographic, chemical, 
# crystal, experimental, refinement or atomic coordinate data resulting 
# from the CCDC's data processing and validation procedures.
#
#######################################################################

data_JODGIU
_chemical_formula_moiety         '(C24 H16 Co1 N2 O4)n'
_symmetry_cell_setting           tetragonal
_symmetry_space_group_name_H-M   'P 4 21 2'
_symmetry_Int_Tables_number      90
_space_group_name_Hall           'P 4ab 2ab'
loop_
_symmetry_equiv_pos_site_id
_symmetry_equiv_pos_as_xyz
1 x,y,z
2 -x,-y,z
3 1/2+x,1/2-y,-z
4 1/2-x,1/2+y,-z
5 -y,-x,-z
6 y,x,-z
7 1/2+y,1/2-x,z
8 1/2-y,1/2+x,z
_cell_length_a                   22.6250(7)
_cell_length_b                   22.6250(7)
_cell_length_c                   12.7634(5)
_cell_angle_alpha                90
_cell_angle_beta                 90
_cell_angle_gamma                90
_cell_volume                     6533.46
loop_
_atom_site_label
_atom_site_type_symbol
_atom_site_fract_x
_atom_site_fract_y
_atom_site_fract_z
_atom_site_U_iso_or_equiv
_atom_site_thermal_displace_type
C1 C -0.1592(4) 0.2733(4) 0.3352(8) 0.0517 Uani
C2 C -0.1026(4) 0.2776(4) 0.4028(9) 0.0650 Uani
C3 C -0.0565(4) 0.3081(4) 0.3639(9) 0.0750 Uani
H1 H -0.0581 0.3290 0.3003 0.0900 Uiso
C4 C -0.0041(4) 0.3061(4) 0.4290(9) 0.0617 Uani
H2 H 0.0292 0.3279 0.4077 0.0740 Uiso
C5 C -0.0006(4) 0.2757(4) 0.5153(8) 0.0613 Uani
C6 C -0.0501(4) 0.2455(4) 0.5535(7) 0.0520 Uani
H3 H -0.0488 0.2257 0.6183 0.0620 Uiso
C7 C -0.0992(4) 0.2455(4) 0.4958(10) 0.0800 Uani
H4 H -0.1321 0.2235 0.5182 0.0960 Uiso
C8 C 0.0580(3) 0.2731(3) 0.5760(8) 0.0487 Uani
C9 C 0.0588(4) 0.2680(4) 0.6872(8) 0.0657 Uani
H5 H 0.0239 0.2695 0.7270 0.0780 Uiso
C10 C 0.1131(3) 0.2609(3) 0.7332(8) 0.0653 Uani
H6 H 0.1142 0.2561 0.8063 0.0790 Uiso
C11 C 0.1627(4) 0.2660(4) 0.5769(8) 0.0567 Uani
H7 H 0.1981 0.2658 0.5384 0.0680 Uiso
C12 C 0.1106(3) 0.2722(3) 0.5229(8) 0.0590 Uani
H8 H 0.1111 0.2759 0.4495 0.0710 Uiso
C13 C 0.2818(4) 0.6385(4) 1.1816(9) 0.0393 Uani
C14 C 0.2863(4) 0.5780(4) 1.1269(9) 0.0450 Uani
C15 C 0.2931(4) 0.5767(4) 1.0213(9) 0.0653 Uani
H9 H 0.2971 0.6127 0.9852 0.0790 Uiso
C16 C 0.2944(4) 0.5228(4) 0.9628(8) 0.0703 Uani
H10 H 0.3034 0.5232 0.8909 0.0840 Uiso
C17 C 0.2827(3) 0.4726(4) 1.0113(9) 0.0530 Uani
C18 C 0.2772(4) 0.4727(4) 1.1265(8) 0.0643 Uani
H11 H 0.2738 0.4375 1.1651 0.0770 Uiso
C19 C 0.2774(3) 0.5256(4) 1.1728(7) 0.0557 Uani
H12 H 0.2704 0.5261 1.2454 0.0660 Uiso
C20 C 0.2772(4) 0.4163(4) 0.9571(8) 0.0610 Uani
C21 C 0.3047(3) 0.4065(4) 0.8634(8) 0.0517 Uani
H13 H 0.3312 0.4352 0.8383 0.0620 Uiso
C22 C 0.2957(4) 0.3570(4) 0.8045(8) 0.0637 Uani
H14 H 0.3147 0.3535 0.7393 0.0760 Uiso
C23 C 0.2342(4) 0.3210(4) 0.9320(9) 0.0620 Uani
H15 H 0.2086 0.2910 0.9553 0.0740 Uiso
C24 C 0.2423(3) 0.3719(3) 1.0003(9) 0.0520 Uani
H16 H 0.2256 0.3745 1.0675 0.0620 Uiso
Co1 Co 0.24340(4) 0.23656(4) 0.75248(12) 0.0421 Uani
N1 N 0.1660(3) 0.2603(3) 0.6808(6) 0.0447 Uani
N2 N 0.2605(3) 0.3133(3) 0.8374(6) 0.0517 Uani
O1 O -0.2041(2) 0.2468(2) 0.3779(5) 0.0557 Uani
O2 O -0.1597(2) 0.2920(2) 0.2419(5) 0.0597 Uani
O3 O 0.2828(2) 0.6843(2) 1.1276(5) 0.0473 Uani
O4 O 0.2748(3) 0.6384(2) 1.2765(5) 0.0663 Uani
Co1B Co -0.25660(4) 0.26344(4) 0.24752(12) 0.0421 Uani
Co1C Co 0.25660(4) 0.73656(4) 1.24752(12) 0.0421 Uani
O1B O 0.2959(2) 0.2532(2) 0.6221(5) 0.0557 Uani
O2B O 0.3403(2) 0.2080(2) 0.7581(5) 0.0597 Uani
O3C O 0.2172(2) 0.1843(2) 0.8724(5) 0.0473 Uani
O4C O 0.2252(3) 0.1384(2) 0.7235(5) 0.0663 Uani
loop_
_atom_site_aniso_label
_atom_site_aniso_U_11
_atom_site_aniso_U_22
_atom_site_aniso_U_33
_atom_site_aniso_U_23
_atom_site_aniso_U_13
_atom_site_aniso_U_12
C1 0.059(4) 0.043(4) 0.053(5) 0.006(4) -0.009(4) 0.012(4)
C2 0.066(8) 0.064(7) 0.065(10) 0.007(6) -0.030(7) 0.002(6)
C3 0.050(7) 0.068(7) 0.107(11) 0.032(6) -0.040(7) -0.022(5)
C4 0.033(6) 0.081(8) 0.071(10) 0.010(6) 0.015(6) -0.021(5)
C5 0.055(5) 0.072(8) 0.057(9) 0.008(7) -0.031(5) -0.006(5)
C6 0.051(5) 0.073(7) 0.032(7) 0.019(5) -0.014(5) -0.004(5)
C7 0.034(5) 0.120(10) 0.086(11) -0.013(10) 0.004(6) 0.006(6)
C8 0.048(4) 0.050(6) 0.048(6) 0.007(5) 0.000(4) 0.001(4)
C9 0.044(5) 0.115(8) 0.038(6) 0.030(6) -0.001(4) -0.013(6)
C10 0.052(5) 0.088(6) 0.056(7) 0.024(7) -0.004(5) 0.015(5)
C11 0.041(5) 0.081(7) 0.048(6) 0.023(6) -0.003(5) -0.001(5)
C12 0.044(5) 0.101(7) 0.032(7) 0.009(6) 0.002(4) 0.000(5)
C13 0.041(4) 0.036(4) 0.041(5) -0.004(4) 0.000(4) 0.004(4)
C14 0.059(6) 0.042(6) 0.034(9) 0.001(5) -0.002(6) 0.000(4)
C15 0.094(7) 0.035(6) 0.067(10) 0.012(7) -0.016(8) -0.010(5)
C16 0.089(7) 0.042(6) 0.080(12) 0.005(7) 0.017(6) -0.008(5)
C17 0.053(6) 0.042(7) 0.064(10) -0.007(7) -0.016(7) -0.007(4)
C18 0.112(8) 0.051(7) 0.030(9) 0.003(6) 0.020(7) -0.002(5)
C19 0.084(7) 0.049(6) 0.034(8) 0.001(6) -0.002(5) -0.016(5)
C20 0.077(7) 0.059(7) 0.047(8) 0.006(6) -0.002(6) 0.021(6)
C21 0.037(6) 0.066(7) 0.052(8) -0.020(6) 0.017(5) -0.015(4)
C22 0.094(7) 0.027(5) 0.070(10) -0.008(5) 0.030(6) -0.021(5)
C23 0.045(6) 0.069(7) 0.072(10) 0.020(7) 0.004(6) -0.003(5)
C24 0.066(6) 0.036(5) 0.054(8) 0.000(6) -0.003(7) -0.007(5)
Co1 0.0436(7) 0.0407(7) 0.0420(9) 0.0026(10) 0.0030(10) -0.0074(5)
N1 0.047(4) 0.045(4) 0.042(5) 0.012(4) 0.012(4) 0.001(4)
N2 0.082(6) 0.044(5) 0.029(7) -0.007(4) -0.007(5) 0.000(4)
O1 0.039(3) 0.077(4) 0.051(5) 0.004(4) -0.002(3) -0.004(3)
O2 0.056(3) 0.087(4) 0.036(5) 0.012(4) -0.010(4) 0.001(3)
O3 0.077(4) 0.037(3) 0.028(5) -0.004(3) 0.008(3) 0.012(3)
O4 0.110(5) 0.051(4) 0.038(6) -0.005(3) 0.020(4) 0.003(3)
Co1B 0.0436 0.0407 0.042 0.0026 -0.003 0.0074
Co1C 0.0436 0.0407 0.042 -0.0026 0.003 0.0074
O1B 0.039 0.077 0.051 0.004 0.002 0.004
O2B 0.056 0.087 0.036 0.012 0.01 -0.001
O3C 0.077 0.037 0.028 0.004 0.008 -0.012
O4C 0.11 0.051 0.038 0.005 0.02 -0.003
loop_
_geom_bond_atom_site_label_1
_geom_bond_atom_site_label_2
_geom_bond_site_symmetry_1
_geom_bond_site_symmetry_2
C1 C2 1_555 1_555
C2 C3 1_555 1_555
C3 H1 1_555 1_555
C4 C3 1_555 1_555
H2 C4 1_555 1_555
C5 C4 1_555 1_555
C6 C5 1_555 1_555
H3 C6 1_555 1_555
C7 C2 1_555 1_555
H4 C7 1_555 1_555
C8 C5 1_555 1_555
C9 C8 1_555 1_555
H5 C9 1_555 1_555
C10 C9 1_555 1_555
H6 C10 1_555 1_555
C11 H7 1_555 1_555
C12 C8 1_555 1_555
H8 C12 1_555 1_555
C13 C14 1_555 1_555
C14 C15 1_555 1_555
C15 H9 1_555 1_555
C16 C15 1_555 1_555
H10 C16 1_555 1_555
C17 C16 1_555 1_555
C18 C17 1_555 1_555
H11 C18 1_555 1_555
C19 C14 1_555 1_555
H12 C19 1_555 1_555
C20 C17 1_555 1_555
C21 C20 1_555 1_555
H13 C21 1_555 1_555
C22 C21 1_555 1_555
H14 C22 1_555 1_555
C23 H15 1_555 1_555
C24 C20 1_555 1_555
H16 C24 1_555 1_555
Co1 N1 1_555 1_555
N1 C10 1_555 1_555
N2 C22 1_555 1_555
O1 C1 1_555 1_555
O2 C1 1_555 1_555
O3 C13 1_555 1_555
O4 C13 1_555 1_555
Co1B O1 1_555 1_555
Co1C O3 1_555 1_555
O1B Co1 1_555 1_555
O2B Co1 1_555 1_555
O3C Co1 1_555 1_555
O4C Co1 1_555 1_555
C6 C7 1_555 1_555
C11 C12 1_555 1_555
C11 N1 1_555 1_555
C18 C19 1_555 1_555
C23 C24 1_555 1_555
C23 N2 1_555 1_555
Co1 N2 1_555 1_555
O2 Co1B 1_555 1_555
O4 Co1C 1_555 1_555

#END
