
#######################################################################
#
#                 Cambridge Crystallographic Data Centre
#                                CCDC 
#
#######################################################################
#
# If this CIF has been generated from an entry in the Cambridge 
# Structural Database, then it will include bibliographic, chemical, 
# crystal, experimental, refinement or atomic coordinate data resulting 
# from the CCDC's data processing and validation procedures.
#
#######################################################################

data_UVASAM01
_chemical_formula_moiety         '(C31 H27 N3 O5 Zn1)n'
_symmetry_cell_setting           monoclinic
_symmetry_space_group_name_H-M   'C c'
_symmetry_Int_Tables_number      9
_space_group_name_Hall           'C -2yc'
loop_
_symmetry_equiv_pos_site_id
_symmetry_equiv_pos_as_xyz
1 x,y,z
2 x,-y,1/2+z
3 1/2+x,1/2+y,z
4 1/2+x,1/2-y,1/2+z
_cell_length_a                   13.4836(11)
_cell_length_b                   24.964(2)
_cell_length_c                   8.3985(7)
_cell_angle_alpha                90
_cell_angle_beta                 98.878(3)
_cell_angle_gamma                90
_cell_volume                     2793.1
loop_
_atom_site_label
_atom_site_type_symbol
_atom_site_fract_x
_atom_site_fract_y
_atom_site_fract_z
_atom_site_U_iso_or_equiv
_atom_site_thermal_displace_type
Zn1 Zn 0.70009(5) 0.09117(2) 0.30357(7) 0.0186 Uani
O1 O 0.6055(3) 0.02981(18) 0.3472(5) 0.0263 Uani
O2 O 0.5413(3) 0.11045(19) 0.3428(5) 0.0310 Uani
O3 O 0.7617(4) 0.1191(2) 0.5146(6) 0.0312 Uani
O4 O 0.7958(4) 0.1911(2) 0.3788(6) 0.0453 Uani
N1 N -0.1739(4) -0.0525(2) 0.7467(6) 0.0218 Uani
N2 N 1.1590(4) 0.3724(2) 1.5839(6) 0.0206 Uani
C1 C 0.5323(5) 0.0612(3) 0.3667(8) 0.0215 Uani
C2 C 0.4395(5) 0.0398(3) 0.4183(8) 0.0253 Uani
C3 C 0.4289(5) -0.0146(3) 0.4472(10) 0.0418 Uani
H1 H 0.4799 -0.0392 0.4301 0.0500 Uiso
C4 C 0.3411(6) -0.0326(3) 0.5023(10) 0.0395 Uani
H2 H 0.3347 -0.0695 0.5267 0.0470 Uiso
C5 C 0.2644(6) 0.0022(3) 0.5215(9) 0.0345 Uani
C6 C 0.2775(5) 0.0569(3) 0.4907(9) 0.0367 Uani
H3 H 0.2263 0.0816 0.5058 0.0440 Uiso
C7 C 0.3635(5) 0.0750(3) 0.4390(9) 0.0352 Uani
H4 H 0.3706 0.1121 0.4174 0.0420 Uiso
C8 C 0.1738(6) -0.0177(3) 0.5798(9) 0.0375 Uani
H5 H 0.1740 -0.0545 0.6090 0.0450 Uiso
C9 C 0.0924(5) 0.0097(3) 0.5962(9) 0.0310 Uani
H6 H 0.0923 0.0467 0.5692 0.0370 Uiso
C10 C 0.0026(5) -0.0110(3) 0.6516(8) 0.0258 Uani
C11 C -0.0018(5) -0.0632(3) 0.7157(9) 0.0312 Uani
H7 H 0.0558 -0.0856 0.7277 0.0380 Uiso
C12 C -0.0894(5) -0.0813(3) 0.7606(8) 0.0271 Uani
H8 H -0.0901 -0.1164 0.8040 0.0320 Uiso
C13 C -0.1694(5) -0.0024(3) 0.6903(8) 0.0284 Uani
H9 H -0.2279 0.0193 0.6821 0.0340 Uiso
C14 C -0.0832(5) 0.0195(3) 0.6433(8) 0.0277 Uani
H10 H -0.0837 0.0554 0.6056 0.0330 Uiso
C15 C 0.7970(5) 0.1658(3) 0.5082(9) 0.0303 Uani
C16 C 0.8458(5) 0.1904(3) 0.6633(8) 0.0282 Uani
C17 C 0.8903(5) 0.2408(3) 0.6660(9) 0.0337 Uani
H11 H 0.8891 0.2600 0.5680 0.0410 Uiso
C18 C 0.9358(5) 0.2631(3) 0.8074(8) 0.0319 Uani
H12 H 0.9672 0.2971 0.8057 0.0380 Uiso
C19 C 0.9368(5) 0.2368(3) 0.9535(9) 0.0318 Uani
C20 C 0.8900(6) 0.1872(3) 0.9522(9) 0.0344 Uani
H13 H 0.8885 0.1690 1.0511 0.0410 Uiso
C21 C 0.8457(5) 0.1640(3) 0.8100(9) 0.0324 Uani
H14 H 0.8148 0.1298 0.8116 0.0390 Uiso
C22 C 0.9845(5) 0.2579(3) 1.1115(9) 0.0306 Uani
H15 H 0.9815 0.2365 1.2042 0.0370 Uiso
C23 C 1.0309(5) 0.3045(3) 1.1319(9) 0.0299 Uani
H16 H 1.0361 0.3252 1.0386 0.0350 Uiso
C24 C 1.0758(5) 0.3268(3) 1.2915(9) 0.0283 Uani
C25 C 1.1027(5) 0.3804(3) 1.3010(8) 0.0301 Uani
H17 H 1.0930 0.4025 1.2079 0.0360 Uiso
C26 C 1.1440(5) 0.4008(2) 1.4497(7) 0.0250 Uani
H18 H 1.1628 0.4375 1.4556 0.0300 Uiso
C27 C 1.1332(5) 0.3204(3) 1.5751(8) 0.0291 Uani
H19 H 1.1446 0.2992 1.6701 0.0350 Uiso
C28 C 1.0903(5) 0.2968(3) 1.4318(9) 0.0311 Uani
H20 H 1.0709 0.2602 1.4297 0.0370 Uiso
Zn1A Zn -0.29991(5) -0.09117(2) 0.80357(7) 0.0186 Uani
Zn1C Zn 1.20009(5) 0.40883(2) 1.80357(7) 0.0186 Uani
N1A N 0.8261(4) 0.0525(2) 0.2467(6) 0.0218 Uani
N2C N 0.6590(4) 0.1276(2) 0.0839(6) 0.0206 Uani
O5 O 0.5846(5) 0.3451(3) 0.0164(11) 0.0779 Uani
N3 N 0.6782(5) 0.3257(3) 0.2603(10) 0.0629 Uani
C29 C 0.5965(8) 0.3420(4) 0.1648(14) 0.0710 Uani
H21 H 0.5413 0.3525 0.2157 0.0850 Uiso
C30 C 0.7703(7) 0.3115(4) 0.1977(15) 0.0798 Uani
H22 H 0.7562 0.3092 0.0799 0.1200 Uiso
H23 H 0.7948 0.2768 0.2420 0.1200 Uiso
H24 H 0.8215 0.3390 0.2295 0.1200 Uiso
C31 C 0.6825(9) 0.3213(4) 0.4359(14) 0.0824 Uani
H25 H 0.6168 0.3303 0.4647 0.1240 Uiso
H26 H 0.7332 0.3461 0.4899 0.1240 Uiso
H27 H 0.7003 0.2845 0.4701 0.1240 Uiso
loop_
_atom_site_aniso_label
_atom_site_aniso_U_11
_atom_site_aniso_U_22
_atom_site_aniso_U_33
_atom_site_aniso_U_23
_atom_site_aniso_U_13
_atom_site_aniso_U_12
Zn1 0.0154(3) 0.0211(3) 0.0203(3) 0.0016(4) 0.0056(2) -0.0007(4)
O1 0.021(2) 0.024(3) 0.036(3) 0.007(2) 0.011(2) 0.0042(19)
O2 0.029(2) 0.027(3) 0.040(3) 0.001(2) 0.015(2) -0.002(2)
O3 0.022(2) 0.031(3) 0.041(3) -0.010(2) 0.006(2) -0.003(2)
O4 0.060(4) 0.036(3) 0.034(3) -0.003(2) -0.011(3) 0.000(3)
N1 0.018(3) 0.025(3) 0.024(3) -0.003(2) 0.008(2) -0.005(2)
N2 0.018(3) 0.029(3) 0.016(3) -0.002(2) 0.006(2) 0.001(2)
C1 0.012(3) 0.026(4) 0.027(3) 0.001(3) 0.005(3) -0.003(3)
C2 0.019(3) 0.029(4) 0.027(3) 0.001(3) 0.001(3) 0.002(3)
C3 0.026(4) 0.032(4) 0.072(6) 0.008(4) 0.022(4) 0.009(3)
C4 0.041(5) 0.017(4) 0.066(5) 0.006(3) 0.026(4) -0.007(3)
C5 0.030(4) 0.037(5) 0.040(4) 0.006(3) 0.016(4) -0.006(4)
C6 0.031(4) 0.027(4) 0.055(5) -0.007(3) 0.016(3) 0.000(3)
C7 0.034(4) 0.020(4) 0.055(5) -0.001(3) 0.018(4) -0.006(3)
C8 0.040(4) 0.031(4) 0.045(5) 0.002(3) 0.018(4) -0.010(3)
C9 0.029(4) 0.030(4) 0.034(4) -0.002(3) 0.005(3) -0.006(3)
C10 0.021(3) 0.024(4) 0.033(4) 0.001(3) 0.006(3) -0.008(3)
C11 0.020(4) 0.028(4) 0.048(5) -0.006(3) 0.013(3) 0.006(3)
C12 0.026(4) 0.022(4) 0.035(4) 0.006(3) 0.010(3) 0.007(3)
C13 0.023(3) 0.030(4) 0.032(4) 0.001(3) 0.004(3) -0.001(3)
C14 0.030(4) 0.027(4) 0.026(3) 0.000(3) 0.004(3) 0.003(3)
C15 0.025(4) 0.024(4) 0.040(4) -0.010(3) -0.001(3) 0.012(3)
C16 0.018(3) 0.037(4) 0.029(4) -0.005(3) 0.002(3) 0.000(3)
C17 0.038(4) 0.028(4) 0.037(4) -0.002(3) 0.012(3) -0.002(3)
C18 0.038(4) 0.024(4) 0.035(4) -0.006(3) 0.010(3) -0.006(3)
C19 0.026(4) 0.037(4) 0.034(4) -0.011(3) 0.010(3) -0.002(3)
C20 0.027(4) 0.055(5) 0.021(4) 0.000(3) 0.003(3) -0.008(4)
C21 0.029(4) 0.033(5) 0.035(4) 0.000(3) 0.004(3) -0.004(3)
C22 0.024(3) 0.042(4) 0.027(4) 0.003(3) 0.008(3) 0.007(3)
C23 0.022(3) 0.037(4) 0.031(4) -0.001(3) 0.005(3) -0.001(3)
C24 0.017(3) 0.040(5) 0.027(4) -0.008(3) 0.001(3) 0.002(3)
C25 0.028(4) 0.035(4) 0.027(3) 0.006(3) 0.003(3) 0.000(3)
C26 0.027(3) 0.022(3) 0.027(3) 0.001(3) 0.007(3) 0.002(3)
C27 0.036(4) 0.029(4) 0.021(3) 0.003(3) 0.000(3) -0.002(3)
C28 0.036(4) 0.022(4) 0.037(4) -0.003(3) 0.011(3) -0.003(3)
Zn1A 0.0154 0.0211 0.0203 -0.0016 0.0056 0.0007
Zn1C 0.0154 0.0211 0.0203 -0.0016 0.0056 0.0007
N1A 0.018 0.025 0.024 0.003 0.008 0.005
N2C 0.018 0.029 0.016 0.002 0.006 -0.001
O5 0.055(4) 0.055(4) 0.125(5) 0.019(4) 0.018(4) -0.001(3)
N3 0.050(4) 0.051(3) 0.088(5) 0.012(3) 0.012(3) 0.001(3)
C29 0.058(4) 0.063(4) 0.090(5) 0.004(4) 0.005(4) -0.003(4)
C30 0.056(5) 0.069(6) 0.117(7) 0.022(5) 0.022(5) 0.017(4)
C31 0.077(6) 0.062(6) 0.109(7) -0.007(5) 0.017(5) 0.006(5)
loop_
_geom_bond_atom_site_label_1
_geom_bond_atom_site_label_2
_geom_bond_site_symmetry_1
_geom_bond_site_symmetry_2
Zn1 O1 1_555 1_555
O1 C1 1_555 1_555
O2 Zn1 1_555 1_555
O3 Zn1 1_555 1_555
O4 C15 1_555 1_555
N1 C12 1_555 1_555
N2 C26 1_555 1_555
C1 O2 1_555 1_555
C2 C1 1_555 1_555
C3 C2 1_555 1_555
H1 C3 1_555 1_555
C4 C3 1_555 1_555
H2 C4 1_555 1_555
C5 C4 1_555 1_555
C6 C5 1_555 1_555
H3 C6 1_555 1_555
C7 C2 1_555 1_555
H4 C7 1_555 1_555
C8 C5 1_555 1_555
H5 C8 1_555 1_555
C9 C8 1_555 1_555
H6 C9 1_555 1_555
C10 C9 1_555 1_555
C11 C10 1_555 1_555
H7 C11 1_555 1_555
C12 C11 1_555 1_555
H8 C12 1_555 1_555
C13 N1 1_555 1_555
H9 C13 1_555 1_555
C14 C10 1_555 1_555
H10 C14 1_555 1_555
C15 O3 1_555 1_555
C16 C15 1_555 1_555
C17 C16 1_555 1_555
H11 C17 1_555 1_555
C18 C17 1_555 1_555
H12 C18 1_555 1_555
C19 C18 1_555 1_555
C20 C19 1_555 1_555
H13 C20 1_555 1_555
C21 C16 1_555 1_555
H14 C21 1_555 1_555
C22 C19 1_555 1_555
H15 C22 1_555 1_555
C23 C22 1_555 1_555
H16 C23 1_555 1_555
C24 C23 1_555 1_555
C25 C24 1_555 1_555
H17 C25 1_555 1_555
C26 C25 1_555 1_555
H18 C26 1_555 1_555
C27 N2 1_555 1_555
H19 C27 1_555 1_555
C28 C24 1_555 1_555
H20 C28 1_555 1_555
O5 C29 1_555 1_555
N3 C29 1_555 1_555
C29 H21 1_555 1_555
C30 N3 1_555 1_555
H22 C30 1_555 1_555
H23 C30 1_555 1_555
H24 C30 1_555 1_555
C31 N3 1_555 1_555
H25 C31 1_555 1_555
H26 C31 1_555 1_555
H27 C31 1_555 1_555
Zn1A N1 1_555 1_555
Zn1C N2 1_555 1_555
N1A Zn1 1_555 1_555
N2C Zn1 1_555 1_555
C6 C7 1_555 1_555
C13 C14 1_555 1_555
C20 C21 1_555 1_555
C27 C28 1_555 1_555

#END
