
#######################################################################
#
#                 Cambridge Crystallographic Data Centre
#                                CCDC 
#
#######################################################################
#
# If this CIF has been generated from an entry in the Cambridge 
# Structural Database, then it will include bibliographic, chemical, 
# crystal, experimental, refinement or atomic coordinate data resulting 
# from the CCDC's data processing and validation procedures.
#
#######################################################################

data_OCIMEV
_chemical_formula_moiety         '(C85 H81 B20 Co3 N5 O18)n'
_symmetry_cell_setting           triclinic
_symmetry_space_group_name_H-M   'P -1'
_symmetry_Int_Tables_number      2
_space_group_name_Hall           '-P 1'
loop_
_symmetry_equiv_pos_site_id
_symmetry_equiv_pos_as_xyz
1 x,y,z
2 -x,-y,-z
_cell_length_a                   15.0089(10)
_cell_length_b                   15.3987(12)
_cell_length_c                   15.5691(12)
_cell_angle_alpha                67.873(3)
_cell_angle_beta                 64.609(3)
_cell_angle_gamma                68.959(3)
_cell_volume                     2926.21
loop_
_atom_site_label
_atom_site_type_symbol
_atom_site_fract_x
_atom_site_fract_y
_atom_site_fract_z
C1 C 0.66637(14) 0.52342(13) 0.13609(14)
Co1 Co 0.25468(2) 0.92503(2) -0.02360(2)
B1 B 0.64147(16) 0.63903(15) 0.06644(16)
H1 H 0.5738 0.6732 0.0418
Co2 Co 0.0000 1.0000 0.0000
B2 B 0.74264(17) 0.55095(17) 0.01404(17)
H2 H 0.7420 0.5259 -0.0445
B3 B 0.79465(18) 0.47008(17) 0.10639(18)
H3 H 0.8286 0.3919 0.1083
B4 B 0.72377(19) 0.50856(16) 0.21660(18)
H4 H 0.7107 0.4557 0.2911
B5 B 0.62932(17) 0.61420(15) 0.19168(16)
H5 H 0.5540 0.6324 0.2493
B6 B 0.76046(17) 0.66685(17) -0.00908(17)
H6 H 0.7716 0.7202 -0.0832
B7 B 0.85634(18) 0.56207(19) 0.01488(19)
H7 H 0.9314 0.5455 -0.0438
B8 B 0.84424(18) 0.53485(18) 0.1412(2)
H8 H 0.9118 0.4996 0.1661
B9 B 0.74218(18) 0.62382(16) 0.19401(18)
H9 H 0.7419 0.6485 0.2532
C2 C 0.69349(14) 0.69726(13) 0.10177(14)
B10 B 0.82362(17) 0.65696(17) 0.06992(18)
H10 H 0.8766 0.7036 0.0477
C3 C 0.64877(15) 0.80677(13) 0.09694(15)
H11 H 0.7010 0.8431 0.0464
O1 O 0.62528(12) 0.82106(10) 0.18941(11)
H12 H 0.6450 0.8692 0.1811
C4 C 0.55466(14) 0.84416(12) 0.06724(15)
C5 C 0.46012(14) 0.83674(13) 0.13842(14)
H13 H 0.4525 0.8144 0.2064
C6 C 0.37711(14) 0.86226(13) 0.10922(14)
H14 H 0.3129 0.8560 0.1584
N1 N 0.38370(11) 0.89580(10) 0.01351(12)
C7 C 0.47440(14) 0.90787(13) -0.05438(14)
H15 H 0.4792 0.9344 -0.1216
C8 C 0.56148(14) 0.88347(13) -0.03120(15)
H16 H 0.6242 0.8934 -0.0814
C9 C 0.58585(16) 0.46523(14) 0.17095(17)
H17 H 0.5636 0.4442 0.2446
O2 O 0.4995(2) 0.5216(2) 0.1469(3)
H18 H 0.4490 0.4996 0.1884
C10 C 0.62638(16) 0.37360(14) 0.13629(16)
C11 C 0.61731(16) 0.37261(14) 0.05171(16)
H19 H 0.5892 0.4306 0.0115
C12 C 0.64946(16) 0.28638(14) 0.02618(15)
H20 H 0.6423 0.2873 -0.0319
N2 N 0.68994(13) 0.20209(11) 0.07908(12)
C13 C 0.69995(19) 0.20338(14) 0.16029(16)
H21 H 0.7300 0.1447 0.1983
C14 C 0.66840(19) 0.28663(15) 0.19132(17)
H22 H 0.6757 0.2838 0.2501
O3 O 0.18301(10) 0.83981(9) 0.10824(9)
C15 C 0.10582(13) 0.81473(11) 0.12029(12)
O4 O 0.04271(10) 0.86144(8) 0.07678(9)
C16 C 0.08975(14) 0.71873(12) 0.19084(13)
C17 C 0.01405(15) 0.68250(12) 0.19749(14)
H23 H -0.0307 0.7207 0.1615
C18 C 0.00328(16) 0.59073(13) 0.25645(15)
H24 H -0.0488 0.5666 0.2604
C19 C 0.06856(15) 0.53324(12) 0.31020(14)
C20 C 0.14107(16) 0.57252(13) 0.30715(15)
H25 H 0.1829 0.5363 0.3465
C21 C 0.15243(15) 0.66388(13) 0.24710(14)
H26 H 0.2031 0.6891 0.2443
C22 C 0.06799(15) 0.43000(12) 0.35961(14)
C23 C 0.05661(15) 0.37783(12) 0.30960(14)
H27 H 0.0413 0.4108 0.2505
C24 C 0.06743(14) 0.27818(12) 0.34538(13)
C25 C 0.08679(15) 0.23148(12) 0.43391(13)
H28 H 0.0938 0.1637 0.4590
C26 C 0.09611(15) 0.28184(12) 0.48644(13)
C27 C 0.08744(15) 0.38176(12) 0.44828(14)
H29 H 0.0948 0.4168 0.4828
C28 C 0.07001(14) 0.22211(12) 0.28435(13)
C29 C 0.00143(14) 0.25354(13) 0.23420(14)
H30 H -0.0510 0.3104 0.2416
C30 C 0.00933(14) 0.20217(12) 0.17349(13)
H31 H -0.0394 0.2222 0.1420
C31 C 0.08912(13) 0.12094(12) 0.15882(13)
C32 C 0.15753(14) 0.08887(12) 0.20886(13)
H32 H 0.2116 0.0335 0.1993
C33 C 0.14659(14) 0.13810(12) 0.27290(14)
H33 H 0.1915 0.1144 0.3092
C34 C 0.10471(13) 0.06838(11) 0.08710(12)
O5 O 0.02699(10) 0.05857(9) 0.08369(9)
O6 O 0.19627(10) 0.03887(9) 0.03741(10)
C35 C 0.12152(15) 0.22621(12) 0.57728(13)
C36 C 0.07580(15) 0.15004(13) 0.64202(13)
H34 H 0.0245 0.1386 0.6302
C37 C 0.10429(14) 0.09076(12) 0.72357(13)
H35 H 0.0722 0.0396 0.7672
C38 C 0.18028(14) 0.10686(12) 0.74082(13)
C39 C 0.22609(16) 0.18326(13) 0.67692(14)
H36 H 0.2778 0.1944 0.6885
C40 C 0.19623(16) 0.24270(13) 0.59671(14)
H37 H 0.2267 0.2952 0.5544
C41 C 0.21196(14) 0.04063(12) 0.82621(13)
O7 O 0.15347(9) -0.01222(8) 0.89536(9)
O8 O 0.29733(10) 0.03210(9) 0.82994(9)
C1A C -0.66637(14) 0.47658(13) -0.13609(14)
Co1A Co -0.25468(2) 0.07497(2) 0.02360(2)
B1A B -0.64147(16) 0.36097(15) -0.06644(16)
H1A H -0.5738 0.3268 -0.0418
B2A B -0.74264(17) 0.44905(17) -0.01404(17)
H2A H -0.7420 0.4741 0.0445
B3A B -0.79465(18) 0.52992(17) -0.10639(18)
H3A H -0.8286 0.6081 -0.1083
B4A B -0.72377(19) 0.49144(16) -0.21660(18)
H4A H -0.7107 0.5443 -0.2911
B5A B -0.62932(17) 0.38580(15) -0.19168(16)
H5A H -0.5540 0.3676 -0.2493
B6A B -0.76046(17) 0.33315(17) 0.00908(17)
H6A H -0.7716 0.2798 0.0832
B7A B -0.85634(18) 0.43793(19) -0.01488(19)
H7A H -0.9314 0.4545 0.0438
B8A B -0.84424(18) 0.46515(18) -0.1412(2)
H8A H -0.9118 0.5004 -0.1661
B9A B -0.74218(18) 0.37618(16) -0.19401(18)
H9A H -0.7419 0.3515 -0.2532
C2A C -0.69349(14) 0.30274(13) -0.10177(14)
B10A B -0.82362(17) 0.34304(17) -0.06992(18)
H10A H -0.8766 0.2964 -0.0477
C3A C -0.64877(15) 0.19323(13) -0.09694(15)
H11A H -0.7010 0.1569 -0.0464
O1A O -0.62528(12) 0.17894(10) -0.18941(11)
H12A H -0.6450 0.1308 -0.1811
C4A C -0.55466(14) 0.15584(12) -0.06724(15)
C5A C -0.46012(14) 0.16326(13) -0.13842(14)
H13A H -0.4525 0.1856 -0.2064
C6A C -0.37711(14) 0.13774(13) -0.10922(14)
H14A H -0.3129 0.1440 -0.1584
N1A N -0.38370(11) 0.10420(10) -0.01351(12)
C7A C -0.47440(14) 0.09213(13) 0.05438(14)
H15A H -0.4792 0.0656 0.1216
C8A C -0.56148(14) 0.11653(13) 0.03120(15)
H16A H -0.6242 0.1066 0.0814
C9A C -0.58585(16) 0.53477(14) -0.17095(17)
H17A H -0.5636 0.5558 -0.2446
O2A O -0.4995(2) 0.4784(2) -0.1469(3)
H18A H -0.4490 0.5004 -0.1884
C10A C -0.62638(16) 0.62640(14) -0.13629(16)
C11A C -0.61731(16) 0.62739(14) -0.05171(16)
H19A H -0.5892 0.5694 -0.0115
C12A C -0.64946(16) 0.71362(14) -0.02618(15)
H20A H -0.6423 0.7127 0.0319
N2A N -0.68994(13) 0.79791(11) -0.07908(12)
C13A C -0.69995(19) 0.79662(14) -0.16029(16)
H21A H -0.7300 0.8553 -0.1983
C14A C -0.66840(19) 0.71337(15) -0.19132(17)
H22A H -0.6757 0.7162 -0.2501
O3A O -0.18301(10) 0.16019(9) -0.10824(9)
C15A C -0.10582(13) 0.18527(11) -0.12029(12)
O4A O -0.04271(10) 0.13856(8) -0.07678(9)
C16A C -0.08975(14) 0.28127(12) -0.19084(13)
C17A C -0.01405(15) 0.31750(12) -0.19749(14)
H23A H 0.0307 0.2793 -0.1615
C18A C -0.00328(16) 0.40927(13) -0.25645(15)
H24A H 0.0488 0.4334 -0.2604
C19A C -0.06856(15) 0.46676(12) -0.31020(14)
C20A C -0.14107(16) 0.42748(13) -0.30715(15)
H25A H -0.1829 0.4637 -0.3465
C21A C -0.15243(15) 0.33612(13) -0.24710(14)
H26A H -0.2031 0.3109 -0.2443
C22A C -0.06799(15) 0.57000(12) -0.35961(14)
C23A C -0.05661(15) 0.62217(12) -0.30960(14)
H27A H -0.0413 0.5892 -0.2505
C24A C -0.06743(14) 0.72182(12) -0.34538(13)
C25A C -0.08679(15) 0.76852(12) -0.43391(13)
H28A H -0.0938 0.8363 -0.4590
C26A C -0.09611(15) 0.71816(12) -0.48644(13)
C27A C -0.08744(15) 0.61824(12) -0.44828(14)
H29A H -0.0948 0.5832 -0.4828
C28A C -0.07001(14) 0.77789(12) -0.28435(13)
C29A C -0.00143(14) 0.74646(13) -0.23420(14)
H30A H 0.0510 0.6896 -0.2416
C30A C -0.00933(14) 0.79783(12) -0.17349(13)
H31A H 0.0394 0.7778 -0.1420
C31A C -0.08912(13) 0.87906(12) -0.15882(13)
C32A C -0.15753(14) 0.91113(12) -0.20886(13)
H32A H -0.2116 0.9665 -0.1993
C33A C -0.14659(14) 0.86190(12) -0.27290(14)
H33A H -0.1915 0.8856 -0.3092
C34A C -0.10471(13) 0.93162(11) -0.08710(12)
O5A O -0.02699(10) 0.94143(9) -0.08369(9)
O6A O -0.19627(10) 0.96113(9) -0.03741(10)
C35A C -0.12152(15) 0.77379(12) -0.57728(13)
C36A C -0.07580(15) 0.84996(13) -0.64202(13)
H34A H -0.0245 0.8614 -0.6302
C37A C -0.10429(14) 0.90924(12) -0.72357(13)
H35A H -0.0722 0.9604 -0.7672
C38A C -0.18028(14) 0.89314(12) -0.74082(13)
C39A C -0.22609(16) 0.81674(13) -0.67692(14)
H36A H -0.2778 0.8056 -0.6885
C40A C -0.19623(16) 0.75730(13) -0.59671(14)
H37A H -0.2267 0.7048 -0.5544
C41A C -0.21196(14) 0.95937(12) -0.82621(13)
O7A O -0.15347(9) 1.01222(8) -0.89536(9)
O8A O -0.29733(10) 0.96790(9) -0.82994(9)
Co1_2 Co -0.74532(2) 0.92503(2) -0.02360(2)
Co1_3 Co 0.25468(2) -0.07497(2) -0.02360(2)
Co1_4 Co 0.25468(2) -0.07497(2) 0.97640(2)
Co1A_2 Co -0.25468(2) 1.07497(2) -0.97640(2)
Co1A_3 Co -0.25468(2) 1.07497(2) 0.02360(2)
Co1A_4 Co 0.74532(2) 0.07497(2) 0.02360(2)
Co2_2 Co 0.0000 0.0000 0.0000
Co2_3 Co 0.0000 -0.0000 1.0000
Co2_4 Co 0.0000 1.0000 -1.0000
N2_2 N -0.31006(13) 0.20209(11) 0.07908(12)
N2A_2 N 0.31006(13) 0.79791(11) -0.07908(12)
O4A_2 O -0.04271(10) 1.13856(8) -0.07678(9)
O5_2 O 0.02699(10) 1.05857(9) 0.08369(9)
O6_2 O 0.19627(10) 1.03887(9) 0.03741(10)
O6A_2 O -0.19627(10) -0.03887(9) -0.03741(10)
O7_2 O 0.15347(9) 0.98778(8) -0.10464(9)
O7A_2 O -0.15347(9) 0.01222(8) 0.10464(9)
O7A_3 O -0.15347(9) 1.01222(8) 0.10464(9)
O8_2 O 0.29733(10) 1.03210(9) -0.17006(9)
O8A_2 O -0.29733(10) -0.03210(9) 0.17006(9)
O10 O 0.3607(3) 0.3799(3) 0.3230(3)
N3 N 0.3528(3) 0.3782(4) 0.2460(3)
O11 O 0.3803(3) 0.4401(4) 0.1654(4)
C42 C 0.3157(5) 0.3095(6) 0.2441(5)
H40 H 0.2622 0.2911 0.3079
H41 H 0.2855 0.3359 0.1913
C43 C 0.3929(5) 0.2309(8) 0.2272(7)
H42 H 0.4453 0.2519 0.1634
H43 H 0.3662 0.1852 0.2193
C44 C 0.4454(9) 0.1752(7) 0.3045(7)
H44 H 0.4629 0.2206 0.3216
H45 H 0.5074 0.1291 0.2776
H46 H 0.3995 0.1403 0.3637
loop_
_geom_bond_atom_site_label_1
_geom_bond_atom_site_label_2
_geom_bond_site_symmetry_1
_geom_bond_site_symmetry_2
C1 B1 1_555 1_555
Co1 N1 1_555 1_555
B1 H1 1_555 1_555
Co2 O4 1_555 1_555
B2 C1 1_555 1_555
H2 B2 1_555 1_555
B3 C1 1_555 1_555
H3 B3 1_555 1_555
B4 C1 1_555 1_555
H4 B4 1_555 1_555
B5 C1 1_555 1_555
H5 B5 1_555 1_555
B6 B1 1_555 1_555
H6 B6 1_555 1_555
B7 B2 1_555 1_555
H7 B7 1_555 1_555
B8 B3 1_555 1_555
H8 B8 1_555 1_555
B9 B4 1_555 1_555
H9 B9 1_555 1_555
C2 B1 1_555 1_555
B10 B6 1_555 1_555
H10 B10 1_555 1_555
C3 C2 1_555 1_555
H11 C3 1_555 1_555
O1 C3 1_555 1_555
H12 O1 1_555 1_555
C4 C3 1_555 1_555
C5 C4 1_555 1_555
H13 C5 1_555 1_555
C6 C5 1_555 1_555
H14 C6 1_555 1_555
N1 C6 1_555 1_555
C7 N1 1_555 1_555
H15 C7 1_555 1_555
C8 C4 1_555 1_555
H16 C8 1_555 1_555
C9 C1 1_555 1_555
H17 C9 1_555 1_555
O2 C9 1_555 1_555
H18 O2 1_555 1_555
C10 C9 1_555 1_555
C11 C10 1_555 1_555
H19 C11 1_555 1_555
C12 C11 1_555 1_555
H20 C12 1_555 1_555
N2 C12 1_555 1_555
C13 N2 1_555 1_555
H21 C13 1_555 1_555
C14 C10 1_555 1_555
H22 C14 1_555 1_555
O3 Co1 1_555 1_555
C15 O3 1_555 1_555
O4 C15 1_555 1_555
C16 C15 1_555 1_555
C17 C16 1_555 1_555
H23 C17 1_555 1_555
C18 C17 1_555 1_555
H24 C18 1_555 1_555
C19 C18 1_555 1_555
C20 C19 1_555 1_555
H25 C20 1_555 1_555
C21 C16 1_555 1_555
H26 C21 1_555 1_555
C22 C19 1_555 1_555
C23 C22 1_555 1_555
H27 C23 1_555 1_555
C24 C23 1_555 1_555
C25 C24 1_555 1_555
H28 C25 1_555 1_555
C26 C25 1_555 1_555
C27 C22 1_555 1_555
H29 C27 1_555 1_555
C28 C24 1_555 1_555
C29 C28 1_555 1_555
H30 C29 1_555 1_555
C30 C29 1_555 1_555
H31 C30 1_555 1_555
C31 C30 1_555 1_555
C32 C31 1_555 1_555
H32 C32 1_555 1_555
C33 C28 1_555 1_555
H33 C33 1_555 1_555
C34 C31 1_555 1_555
O5 C34 1_555 1_555
O6 C34 1_555 1_555
C35 C26 1_555 1_555
C36 C35 1_555 1_555
H34 C36 1_555 1_555
C37 C36 1_555 1_555
H35 C37 1_555 1_555
C38 C37 1_555 1_555
C39 C38 1_555 1_555
H36 C39 1_555 1_555
C40 C35 1_555 1_555
H37 C40 1_555 1_555
C41 C38 1_555 1_555
O7 C41 1_555 1_555
O8 C41 1_555 1_555
O10 N3 1_555 1_555
N3 O11 1_555 1_555
C42 N3 1_555 1_555
H40 C42 1_555 1_555
H41 C42 1_555 1_555
C43 C42 1_555 1_555
H42 C43 1_555 1_555
H43 C43 1_555 1_555
C44 C43 1_555 1_555
H44 C44 1_555 1_555
H45 C44 1_555 1_555
H46 C44 1_555 1_555
C1A B1A 1_555 1_555
Co1A N1A 1_555 1_555
B1A H1A 1_555 1_555
B2A C1A 1_555 1_555
H2A B2A 1_555 1_555
B3A C1A 1_555 1_555
H3A B3A 1_555 1_555
B4A C1A 1_555 1_555
H4A B4A 1_555 1_555
B5A C1A 1_555 1_555
H5A B5A 1_555 1_555
B6A B1A 1_555 1_555
H6A B6A 1_555 1_555
B7A B2A 1_555 1_555
H7A B7A 1_555 1_555
B8A B3A 1_555 1_555
H8A B8A 1_555 1_555
B9A B4A 1_555 1_555
H9A B9A 1_555 1_555
C2A B1A 1_555 1_555
B10A B6A 1_555 1_555
H10A B10A 1_555 1_555
C3A C2A 1_555 1_555
H11A C3A 1_555 1_555
O1A C3A 1_555 1_555
H12A O1A 1_555 1_555
C4A C3A 1_555 1_555
C5A C4A 1_555 1_555
H13A C5A 1_555 1_555
C6A C5A 1_555 1_555
H14A C6A 1_555 1_555
N1A C6A 1_555 1_555
C7A N1A 1_555 1_555
H15A C7A 1_555 1_555
C8A C4A 1_555 1_555
H16A C8A 1_555 1_555
C9A C1A 1_555 1_555
H17A C9A 1_555 1_555
O2A C9A 1_555 1_555
H18A O2A 1_555 1_555
C10A C9A 1_555 1_555
C11A C10A 1_555 1_555
H19A C11A 1_555 1_555
C12A C11A 1_555 1_555
H20A C12A 1_555 1_555
N2A C12A 1_555 1_555
C13A N2A 1_555 1_555
H21A C13A 1_555 1_555
C14A C10A 1_555 1_555
H22A C14A 1_555 1_555
O3A Co1A 1_555 1_555
C15A O3A 1_555 1_555
O4A C15A 1_555 1_555
C16A C15A 1_555 1_555
C17A C16A 1_555 1_555
H23A C17A 1_555 1_555
C18A C17A 1_555 1_555
H24A C18A 1_555 1_555
C19A C18A 1_555 1_555
C20A C19A 1_555 1_555
H25A C20A 1_555 1_555
C21A C16A 1_555 1_555
H26A C21A 1_555 1_555
C22A C19A 1_555 1_555
C23A C22A 1_555 1_555
H27A C23A 1_555 1_555
C24A C23A 1_555 1_555
C25A C24A 1_555 1_555
H28A C25A 1_555 1_555
C26A C25A 1_555 1_555
C27A C22A 1_555 1_555
H29A C27A 1_555 1_555
C28A C24A 1_555 1_555
C29A C28A 1_555 1_555
H30A C29A 1_555 1_555
C30A C29A 1_555 1_555
H31A C30A 1_555 1_555
C31A C30A 1_555 1_555
C32A C31A 1_555 1_555
H32A C32A 1_555 1_555
C33A C28A 1_555 1_555
H33A C33A 1_555 1_555
C34A C31A 1_555 1_555
O5A Co2 1_555 1_555
O6A C34A 1_555 1_555
C35A C26A 1_555 1_555
C36A C35A 1_555 1_555
H34A C36A 1_555 1_555
C37A C36A 1_555 1_555
H35A C37A 1_555 1_555
C38A C37A 1_555 1_555
C39A C38A 1_555 1_555
H36A C39A 1_555 1_555
C40A C35A 1_555 1_555
H37A C40A 1_555 1_555
C41A C38A 1_555 1_555
O7A C41A 1_555 1_555
O8A C41A 1_555 1_555
Co1_2 N2A 1_555 1_555
Co1_3 O6 1_555 1_555
Co1_4 O7 1_555 1_555
Co1A_2 O7A 1_555 1_555
Co1A_3 O6A 1_555 1_555
Co1A_4 N2 1_555 1_555
Co2_2 O5 1_555 1_555
Co2_3 O7 1_555 1_555
Co2_4 O7A 1_555 1_555
N2_2 Co1A 1_555 1_555
N2A_2 Co1 1_555 1_555
O4A_2 Co2 1_555 1_555
O5_2 Co2 1_555 1_555
O6_2 Co1 1_555 1_555
O6A_2 Co1A 1_555 1_555
O7_2 Co1 1_555 1_555
O7A_2 Co1A 1_555 1_555
O7A_3 Co2 1_555 1_555
O8_2 Co1 1_555 1_555
O8A_2 Co1A 1_555 1_555
B1 B2 1_555 1_555
B1 B5 1_555 1_555
Co2 O7_2 1_555 1_555
B2 B3 1_555 1_555
B2 B6 1_555 1_555
B3 B4 1_555 1_555
B3 B7 1_555 1_555
B4 B5 1_555 1_555
B4 B8 1_555 1_555
B5 B9 1_555 1_555
B5 C2 1_555 1_555
B6 B7 1_555 1_555
B6 C2 1_555 1_555
B7 B8 1_555 1_555
B7 B10 1_555 1_555
B8 B9 1_555 1_555
B8 B10 1_555 1_555
B9 C2 1_555 1_555
B9 B10 1_555 1_555
C2 B10 1_555 1_555
C7 C8 1_555 1_555
C13 C14 1_555 1_555
C20 C21 1_555 1_555
C26 C27 1_555 1_555
C32 C33 1_555 1_555
C39 C40 1_555 1_555
O8 Co1_4 1_555 1_555
B1A B2A 1_555 1_555
B1A B5A 1_555 1_555
B2A B3A 1_555 1_555
B2A B6A 1_555 1_555
B3A B4A 1_555 1_555
B3A B7A 1_555 1_555
B4A B5A 1_555 1_555
B4A B8A 1_555 1_555
B5A B9A 1_555 1_555
B5A C2A 1_555 1_555
B6A B7A 1_555 1_555
B6A C2A 1_555 1_555
B7A B8A 1_555 1_555
B7A B10A 1_555 1_555
B8A B9A 1_555 1_555
B8A B10A 1_555 1_555
B9A C2A 1_555 1_555
B9A B10A 1_555 1_555
C2A B10A 1_555 1_555
C7A C8A 1_555 1_555
C13A C14A 1_555 1_555
O4A Co2_2 1_555 1_555
C20A C21A 1_555 1_555
C26A C27A 1_555 1_555
C32A C33A 1_555 1_555
C34A O5A 1_555 1_555
C39A C40A 1_555 1_555
O8A Co1A_2 1_555 1_555
Co1A_3 O7A_3 1_555 1_555
Co2_2 O7A_2 1_555 1_555

#END
