
#######################################################################
#
#                 Cambridge Crystallographic Data Centre
#                                CCDC 
#
#######################################################################
#
# If this CIF has been generated from an entry in the Cambridge 
# Structural Database, then it will include bibliographic, chemical, 
# crystal, experimental, refinement or atomic coordinate data resulting 
# from the CCDC's data processing and validation procedures.
#
#######################################################################

data_LIQJEC
_chemical_formula_moiety         '(C92 H72 I12 N24 O5 Zn6)n'
_symmetry_cell_setting           monoclinic
_symmetry_space_group_name_H-M   'C c'
_symmetry_Int_Tables_number      9
_space_group_name_Hall           'C -2yc'
loop_
_symmetry_equiv_pos_site_id
_symmetry_equiv_pos_as_xyz
1 x,y,z
2 x,-y,1/2+z
3 1/2+x,1/2+y,z
4 1/2+x,1/2-y,1/2+z
_cell_length_a                   35.209(5)
_cell_length_b                   14.870(2)
_cell_length_c                   30.659(5)
_cell_angle_alpha                90
_cell_angle_beta                 101.402(2)
_cell_angle_gamma                90
_cell_volume                     15735
loop_
_atom_site_label
_atom_site_type_symbol
_atom_site_fract_x
_atom_site_fract_y
_atom_site_fract_z
_atom_site_U_iso_or_equiv
_atom_site_thermal_displace_type
I1 I 0.34282(13) -0.6641(2) 0.75273(13) 0.1220 Uani
Zn1 Zn 0.38896(19) -0.6426(3) 0.8273(2) 0.0874 Uani
I2 I 0.44986(12) -0.7327(2) 0.85063(13) 0.1144 Uani
N1 N 0.3990(8) -0.5030(16) 0.8326(9) 0.0778 Uani
C1 C 0.4279(9) -0.4686(15) 0.8635(10) 0.0788 Uani
H1 H 0.4414 -0.5069 0.8861 0.0950 Uiso
C2 C 0.4385(8) -0.3792(15) 0.8632(11) 0.0697 Uani
H2 H 0.4628 -0.3584 0.8792 0.0840 Uiso
C3 C 0.4122(8) -0.3221(13) 0.8388(10) 0.0650 Uani
C4 C 0.3815(9) -0.3550(15) 0.8073(10) 0.0724 Uani
H3 H 0.3643 -0.3158 0.7884 0.0870 Uiso
C5 C 0.3771(8) -0.4464(15) 0.8045(10) 0.0766 Uani
H4 H 0.3575 -0.4707 0.7817 0.0920 Uiso
C6 C 0.4190(9) -0.2236(13) 0.8351(10) 0.0629 Uani
N2 N 0.4495(9) -0.1868(14) 0.8636(9) 0.0675 Uani
C7 C 0.4541(10) -0.0993(14) 0.8589(10) 0.0717 Uani
N3 N 0.4368(8) -0.0489(16) 0.8250(8) 0.0681 Uani
C8 C 0.4040(10) -0.0895(14) 0.8044(11) 0.0696 Uani
N4 N 0.3944(7) -0.1763(14) 0.8046(8) 0.0628 Uani
N5 N 0.5472(8) 0.0317(16) 0.9475(10) 0.0860 Uani
C9 C 0.5255(9) 0.0756(19) 0.9112(14) 0.0963 Uani
H5 H 0.5336 0.1313 0.9009 0.1150 Uiso
C10 C 0.4918(9) 0.0350(16) 0.8908(13) 0.0946 Uani
H6 H 0.4713 0.0716 0.8758 0.1140 Uiso
C11 C 0.4864(10) -0.0569(16) 0.8912(12) 0.0800 Uani
C12 C 0.5151(10) -0.104(2) 0.9218(12) 0.0884 Uani
H7 H 0.5147 -0.1681 0.9225 0.1060 Uiso
C13 C 0.5434(10) -0.0584(18) 0.9504(12) 0.0854 Uani
H8 H 0.5607 -0.0906 0.9727 0.1030 Uiso
N6 N 0.3371(7) 0.0545(15) 0.6984(9) 0.0812 Uani
C14 C 0.3295(9) -0.0283(16) 0.7108(10) 0.1005 Uani
H9 H 0.3074 -0.0563 0.6933 0.1210 Uiso
C15 C 0.3492(8) -0.0783(18) 0.7451(10) 0.0903 Uani
H10 H 0.3420 -0.1373 0.7520 0.1080 Uiso
C16 C 0.3807(8) -0.0336(14) 0.7686(9) 0.0718 Uani
C17 C 0.3878(9) 0.0527(15) 0.7562(9) 0.0740 Uani
H11 H 0.4088 0.0844 0.7740 0.0890 Uiso
C18 C 0.3668(9) 0.0958(19) 0.7200(9) 0.0787 Uani
H12 H 0.3739 0.1537 0.7113 0.0940 Uiso
I3 I 0.56809(14) 0.0945(4) 1.06387(15) 0.1883 Uani
Zn2 Zn 0.59098(17) 0.0985(3) 0.9918(2) 0.1201 Uani
I4 I 0.60839(16) 0.2389(2) 0.9549(2) 0.2190 Uani
I5 I 0.23778(10) 0.1547(2) 0.68856(11) 0.0957 Uani
Zn3 Zn 0.29451(14) 0.1264(3) 0.65153(14) 0.0689 Uani
I6 I 0.33106(11) 0.23973(18) 0.61435(10) 0.0953 Uani
N7 N 0.2789(7) 0.0217(18) 0.6027(9) 0.0723 Uani
C19 C 0.3085(9) -0.0071(19) 0.5854(10) 0.0806 Uani
H13 H 0.3321 0.0259 0.5902 0.0970 Uiso
C20 C 0.3049(11) -0.0844(19) 0.5607(11) 0.0828 Uani
H14 H 0.3263 -0.1057 0.5491 0.0990 Uiso
C21 C 0.2704(11) -0.1317(18) 0.5524(12) 0.0689 Uani
C22 C 0.2431(11) -0.112(2) 0.5795(12) 0.0698 Uani
H15 H 0.2215 -0.1499 0.5801 0.0840 Uiso
C23 C 0.2496(8) -0.0356(17) 0.6048(11) 0.0637 Uani
H16 H 0.2328 -0.0223 0.6247 0.0760 Uiso
C24 C 0.2659(8) -0.2152(17) 0.5254(10) 0.0629 Uani
N8 N 0.2886(8) -0.2187(17) 0.4957(9) 0.0702 Uani
C25 C 0.2835(9) -0.294(2) 0.4699(11) 0.0741 Uani
N9 N 0.2550(8) -0.3513(18) 0.4711(10) 0.0775 Uani
C26 C 0.2309(8) -0.336(2) 0.4985(11) 0.0684 Uani
N10 N 0.2355(7) -0.2665(16) 0.5288(8) 0.0601 Uani
N11 N 0.3571(10) -0.333(2) 0.3751(10) 0.0952 Uani
C27 C 0.3236(10) -0.374(3) 0.3755(12) 0.1075 Uani
H17 H 0.3182 -0.4251 0.3563 0.1290 Uiso
C28 C 0.2954(9) -0.354(2) 0.3997(11) 0.1060 Uani
H18 H 0.2691 -0.3718 0.3912 0.1270 Uiso
C29 C 0.3095(9) -0.305(2) 0.4377(10) 0.0896 Uani
C30 C 0.3435(10) -0.258(2) 0.4415(12) 0.0992 Uani
H19 H 0.3509 -0.2114 0.4628 0.1190 Uiso
C31 C 0.3661(10) -0.284(3) 0.4119(11) 0.1006 Uani
H20 H 0.3922 -0.2638 0.4187 0.1210 Uiso
N12 N 0.1378(8) -0.5110(16) 0.4924(8) 0.0763 Uani
C32 C 0.1521(9) -0.4706(18) 0.5312(8) 0.0783 Uani
H21 H 0.1418 -0.4849 0.5568 0.0940 Uiso
C33 C 0.1818(9) -0.4086(18) 0.5346(9) 0.0704 Uani
H22 H 0.1904 -0.3753 0.5611 0.0850 Uiso
C34 C 0.1976(9) -0.3975(19) 0.4992(10) 0.0724 Uani
C35 C 0.1832(9) -0.436(2) 0.4583(8) 0.0822 Uani
H23 H 0.1945 -0.4247 0.4331 0.0980 Uiso
C36 C 0.1518(9) -0.492(2) 0.4558(9) 0.0846 Uani
H24 H 0.1399 -0.5170 0.4280 0.1010 Uiso
Zn1A Zn 0.38896(19) -0.3574(3) 0.3273(2) 0.0874 Uani
Zn2C Zn 0.09098(17) -0.5985(3) 0.4918(2) 0.1201 Uani
N11A N 0.3571(10) -0.667(2) 0.8751(10) 0.0952 Uani
N12C N 0.6378(8) 0.0110(16) 0.9924(8) 0.0763 Uani
I7 I -0.01973(14) 0.7316(2) 0.25520(16) 0.1357 Uani
Zn4 Zn 0.04280(19) 0.6442(3) 0.2798(2) 0.0873 Uani
I8 I 0.08795(14) 0.6656(2) 0.35522(12) 0.1275 Uani
N13 N 0.0306(8) 0.5079(15) 0.2721(10) 0.0787 Uani
C37 C 0.0566(9) 0.4521(15) 0.2949(12) 0.0873 Uani
H25 H 0.0806 0.4749 0.3109 0.1050 Uiso
C38 C 0.0492(9) 0.3617(15) 0.2956(12) 0.0811 Uani
H26 H 0.0679 0.3243 0.3136 0.0970 Uiso
C39 C 0.0165(9) 0.3220(14) 0.2719(11) 0.0708 Uani
C40 C -0.0054(9) 0.3801(18) 0.2431(12) 0.0826 Uani
H27 H -0.0237 0.3566 0.2188 0.0990 Uiso
C41 C -0.0017(9) 0.4738(17) 0.2482(11) 0.0805 Uani
H28 H -0.0222 0.5123 0.2346 0.0970 Uiso
C42 C 0.0096(9) 0.2227(14) 0.2696(10) 0.0646 Uani
N14 N 0.0335(7) 0.1786(14) 0.3010(8) 0.0607 Uani
C43 C 0.0263(9) 0.0928(14) 0.3063(9) 0.0529 Uani
N15 N -0.0031(7) 0.0506(15) 0.2796(8) 0.0540 Uani
C44 C -0.0253(8) 0.1000(16) 0.2485(10) 0.0599 Uani
N16 N -0.0193(8) 0.1887(16) 0.2396(9) 0.0622 Uani
N17 N 0.1002(7) -0.0591(13) 0.4088(7) 0.0677 Uani
C45 C 0.0684(7) -0.0923(18) 0.3833(8) 0.0690 Uani
H29 H 0.0627 -0.1537 0.3875 0.0830 Uiso
C46 C 0.0428(8) -0.0462(15) 0.3512(9) 0.0684 Uani
H30 H 0.0207 -0.0753 0.3342 0.0820 Uiso
C47 C 0.0500(8) 0.0431(14) 0.3447(8) 0.0651 Uani
C48 C 0.0839(10) 0.076(2) 0.3715(11) 0.0883 Uani
H31 H 0.0904 0.1366 0.3675 0.1060 Uiso
C49 C 0.1085(9) 0.0274(15) 0.4028(10) 0.0866 Uani
H32 H 0.1310 0.0546 0.4199 0.1040 Uiso
N18 N -0.1195(9) -0.0359(18) 0.1647(9) 0.0855 Uani
C50 C -0.1067(9) 0.0451(18) 0.1550(10) 0.0895 Uani
H33 H -0.1176 0.0703 0.1268 0.1080 Uiso
C51 C -0.0788(9) 0.0946(17) 0.1827(10) 0.0796 Uani
H34 H -0.0743 0.1560 0.1768 0.0960 Uiso
C52 C -0.0581(9) 0.0520(16) 0.2189(10) 0.0673 Uani
C53 C -0.0665(9) -0.0356(16) 0.2270(8) 0.0724 Uani
H35 H -0.0532 -0.0666 0.2526 0.0870 Uiso
C54 C -0.0949(9) -0.0766(17) 0.1965(10) 0.0841 Uani
H36 H -0.0971 -0.1401 0.1985 0.1010 Uiso
I9 I -0.17939(15) -0.2398(2) 0.15932(14) 0.1468 Uani
Zn5 Zn -0.15947(18) -0.1012(3) 0.11956(19) 0.0977 Uani
I10 I -0.13773(14) -0.1012(3) 0.04650(15) 0.1450 Uani
I11 I 0.10167(10) -0.23946(18) 0.49500(10) 0.0925 Uani
Zn6 Zn 0.13820(14) -0.1254(3) 0.45737(14) 0.0681 Uani
I12 I 0.19496(10) -0.1526(2) 0.41946(10) 0.0957 Uani
N19 N 0.1495(7) -0.0188(18) 0.4998(7) 0.0658 Uani
C55 C 0.1820(9) 0.029(2) 0.5030(10) 0.0603 Uani
H37 H 0.2018 0.0112 0.4878 0.0730 Uiso
C56 C 0.1862(10) 0.109(2) 0.5299(11) 0.0616 Uani
H38 H 0.2071 0.1486 0.5284 0.0740 Uiso
C57 C 0.1626(9) 0.1297(18) 0.5562(10) 0.0570 Uani
C58 C 0.1355(9) 0.0666(16) 0.5611(9) 0.0693 Uani
H39 H 0.1188 0.0757 0.5816 0.0830 Uiso
C59 C 0.1328(9) -0.0099(18) 0.5358(8) 0.0711 Uani
H40 H 0.1186 -0.0593 0.5439 0.0860 Uiso
C60 C 0.1663(9) 0.2102(17) 0.5859(9) 0.0574 Uani
N20 N 0.1936(7) 0.2702(17) 0.5824(8) 0.0575 Uani
C61 C 0.1981(8) 0.339(2) 0.6086(12) 0.0675 Uani
N21 N 0.1775(9) 0.3529(19) 0.6401(10) 0.0680 Uani
C62 C 0.1484(8) 0.298(2) 0.6399(9) 0.0653 Uani
N22 N 0.1413(8) 0.2231(17) 0.6147(8) 0.0617 Uani
N23 N 0.2957(7) 0.5133(16) 0.6081(8) 0.0824 Uani
C63 C 0.2790(7) 0.5073(16) 0.6428(9) 0.0998 Uani
H41 H 0.2892 0.5428 0.6682 0.1200 Uiso
C64 C 0.2480(7) 0.4536(18) 0.6445(9) 0.0923 Uani
H42 H 0.2374 0.4533 0.6707 0.1110 Uiso
C65 C 0.2319(8) 0.4000(18) 0.6093(9) 0.0743 Uani
C66 C 0.2482(9) 0.4084(19) 0.5726(9) 0.0764 Uani
H43 H 0.2371 0.3777 0.5459 0.0920 Uiso
C67 C 0.2811(8) 0.4622(18) 0.5739(8) 0.0815 Uani
H44 H 0.2934 0.4616 0.5490 0.0980 Uiso
N24 N 0.0753(7) 0.3395(19) 0.7307(9) 0.0789 Uani
C68 C 0.0639(9) 0.282(2) 0.6974(9) 0.0744 Uani
H45 H 0.0410 0.2470 0.6955 0.0890 Uiso
C69 C 0.0867(9) 0.274(2) 0.6657(9) 0.0722 Uani
H46 H 0.0773 0.2419 0.6389 0.0860 Uiso
C70 C 0.1230(8) 0.312(2) 0.6728(9) 0.0725 Uani
C71 C 0.1318(9) 0.373(2) 0.7067(10) 0.0880 Uani
H47 H 0.1518 0.4163 0.7068 0.1050 Uiso
C72 C 0.1114(9) 0.372(3) 0.7408(9) 0.0925 Uani
H48 H 0.1224 0.3925 0.7699 0.1110 Uiso
Zn4A Zn 0.04280(19) 0.3558(3) 0.7798(2) 0.0873 Uani
Zn5C Zn 0.34053(18) 0.6012(3) 0.61956(19) 0.0977 Uani
N23C N -0.2043(7) -0.0133(16) 0.1081(8) 0.0824 Uani
N24A N 0.0753(7) 0.6605(19) 0.2307(9) 0.0789 Uani
C73 C 0.2745(10) 0.281(2) 0.4578(11) 0.1404 Uani
O1 O 0.2574(9) 0.279(2) 0.4109(11) 0.1387 Uani
O2 O 0.2774(10) 0.377(2) 0.4683(11) 0.1433 Uani
O3 O 0.3142(10) 0.252(2) 0.4610(11) 0.1398 Uani
C74 C 0.3385(12) 0.298(3) 0.4343(14) 0.1449 Uani
H49 H 0.3652 0.2721 0.4391 0.1740 Uiso
C75 C 0.3384(12) 0.394(3) 0.4528(18) 0.1422 Uani
H50 H 0.3480 0.3924 0.4854 0.1710 Uiso
H51 H 0.3563 0.4317 0.4395 0.1710 Uiso
C76 C 0.2984(12) 0.435(3) 0.4428(15) 0.1437 Uani
H52 H 0.2988 0.4988 0.4531 0.1720 Uiso
C77 C 0.2739(17) 0.424(3) 0.3959(14) 0.1419 Uani
H53 H 0.2835 0.4654 0.3753 0.1710 Uiso
H54 H 0.2467 0.4396 0.3962 0.1710 Uiso
C78 C 0.2757(13) 0.327(3) 0.3792(11) 0.1420 Uani
C79 C 0.3155(13) 0.279(4) 0.3872(13) 0.1444 Uani
H55 H 0.3117 0.2139 0.3830 0.1730 Uiso
H56 H 0.3305 0.3011 0.3651 0.1730 Uiso
C80 C 0.2460(12) 0.323(4) 0.3347(17) 0.1399 Uani
H57 H 0.2541 0.3654 0.3129 0.1680 Uiso
C81 C 0.2044(13) 0.343(3) 0.338(2) 0.1390 Uani
H58 H 0.2022 0.3677 0.3682 0.1670 Uiso
C82 C 0.1823(13) 0.257(3) 0.328(2) 0.1428 Uani
C83 C 0.2118(15) 0.182(3) 0.330(2) 0.1410 Uani
H59 H 0.2018 0.1340 0.3084 0.1690 Uiso
H60 H 0.2181 0.1564 0.3600 0.1690 Uiso
C84 C 0.2477(16) 0.226(4) 0.318(3) 0.1399 Uani
H61 H 0.2464 0.2251 0.2851 0.1680 Uiso
H62 H 0.2717 0.1955 0.3327 0.1680 Uiso
O4 O 0.1497(12) 0.245(4) 0.335(2) 0.1698 Uani
C85 C 0.1815(14) 0.398(3) 0.2995(18) 0.1380 Uani
H63 H 0.1854 0.3683 0.2714 0.1660 Uiso
O5 O 0.1418(13) 0.390(5) 0.301(2) 0.1766 Uani
H64 H 0.1386 0.3986 0.3268 0.2650 Uiso
C86 C 0.1980(12) 0.492(3) 0.2997(14) 0.1267 Uani
C87 C 0.2247(13) 0.519(3) 0.2746(14) 0.1204 Uani
H65 H 0.2330 0.4741 0.2566 0.1440 Uiso
C88 C 0.2408(14) 0.604(3) 0.2725(15) 0.1180 Uani
H66 H 0.2591 0.6178 0.2546 0.1410 Uiso
C89 C 0.2271(14) 0.666(3) 0.2995(15) 0.1177 Uani
H67 H 0.2372 0.7253 0.2994 0.1410 Uiso
C90 C 0.2002(15) 0.651(3) 0.3265(16) 0.1157 Uani
H68 H 0.1912 0.6971 0.3436 0.1390 Uiso
C91 C 0.1880(14) 0.562(3) 0.3259(16) 0.1191 Uani
H69 H 0.1711 0.5470 0.3454 0.1430 Uiso
C92 C 0.2512(16) 0.228(4) 0.4863(17) 0.1645 Uani
H70 H 0.2251 0.2534 0.4829 0.2440 Uiso
H71 H 0.2643 0.2308 0.5176 0.2440 Uiso
H72 H 0.2493 0.1649 0.4765 0.2440 Uiso
loop_
_atom_site_aniso_label
_atom_site_aniso_U_11
_atom_site_aniso_U_22
_atom_site_aniso_U_33
_atom_site_aniso_U_23
_atom_site_aniso_U_13
_atom_site_aniso_U_12
I1 0.192(4) 0.068(2) 0.094(2) -0.0086(18) -0.001(3) -0.020(2)
Zn1 0.124(4) 0.032(3) 0.105(4) 0.011(2) 0.020(3) -0.005(3)
I2 0.151(3) 0.0463(17) 0.152(3) 0.0321(19) 0.045(3) 0.0311(18)
N1 0.079(12) 0.055(11) 0.089(13) -0.007(10) -0.009(10) -0.001(10)
C1 0.080(13) 0.053(12) 0.086(13) -0.001(11) -0.026(11) -0.001(11)
C2 0.077(12) 0.035(10) 0.080(12) 0.001(10) -0.026(11) 0.008(10)
C3 0.077(11) 0.032(9) 0.072(10) 0.003(9) -0.019(9) 0.001(9)
C4 0.075(12) 0.043(11) 0.081(12) 0.014(10) -0.029(11) -0.001(10)
C5 0.076(13) 0.050(11) 0.089(13) 0.013(11) -0.020(11) -0.005(10)
C6 0.075(10) 0.027(8) 0.071(10) -0.003(8) -0.024(9) 0.006(8)
N2 0.084(11) 0.025(9) 0.075(11) -0.003(9) -0.029(10) 0.007(9)
C7 0.090(11) 0.023(8) 0.082(11) -0.007(8) -0.032(9) 0.010(9)
N3 0.083(11) 0.022(9) 0.079(11) -0.011(9) -0.033(10) 0.018(9)
C8 0.086(11) 0.023(8) 0.078(10) -0.007(8) -0.037(9) 0.016(9)
N4 0.075(11) 0.024(8) 0.066(10) 0.003(8) -0.043(9) -0.002(9)
N5 0.092(12) 0.029(10) 0.105(13) -0.022(10) -0.058(11) 0.026(9)
C9 0.099(13) 0.030(11) 0.124(14) -0.019(11) -0.065(12) 0.020(10)
C10 0.097(13) 0.031(10) 0.121(14) -0.009(11) -0.063(11) 0.019(10)
C11 0.092(11) 0.021(9) 0.100(12) -0.007(9) -0.047(10) 0.011(9)
C12 0.101(13) 0.030(10) 0.108(14) -0.004(10) -0.043(12) 0.017(10)
C13 0.098(13) 0.027(10) 0.103(14) -0.013(10) -0.049(11) 0.020(10)
N6 0.082(12) 0.029(9) 0.103(13) -0.016(10) -0.054(11) 0.012(9)
C14 0.099(13) 0.048(11) 0.118(14) -0.002(11) -0.067(12) -0.003(11)
C15 0.097(13) 0.038(10) 0.103(13) -0.006(10) -0.060(11) 0.001(10)
C16 0.081(11) 0.027(9) 0.083(11) -0.021(9) -0.043(9) 0.021(9)
C17 0.081(12) 0.030(10) 0.084(12) -0.027(10) -0.049(11) 0.004(10)
C18 0.086(13) 0.027(10) 0.097(13) -0.021(10) -0.045(11) 0.011(10)
I3 0.141(3) 0.230(6) 0.152(4) -0.129(4) -0.073(3) 0.079(3)
Zn2 0.107(4) 0.059(3) 0.147(5) -0.048(3) -0.090(4) 0.035(3)
I4 0.218(5) 0.0442(18) 0.302(6) 0.005(3) -0.174(5) -0.021(2)
I5 0.104(2) 0.083(2) 0.083(2) -0.0096(16) -0.0230(17) 0.0403(18)
Zn3 0.089(3) 0.034(2) 0.064(3) -0.007(2) -0.033(3) 0.010(2)
I6 0.136(3) 0.0410(15) 0.089(2) 0.0013(15) -0.0262(19) -0.0089(17)
N7 0.073(12) 0.039(10) 0.087(12) -0.010(10) -0.028(11) 0.009(9)
C19 0.086(13) 0.053(11) 0.091(13) -0.016(10) -0.011(12) -0.009(10)
C20 0.091(13) 0.056(11) 0.089(13) -0.009(10) -0.012(11) -0.008(10)
C21 0.078(11) 0.037(9) 0.076(11) -0.007(9) -0.023(10) 0.001(9)
C22 0.064(12) 0.041(10) 0.088(13) -0.003(10) -0.025(11) 0.003(10)
C23 0.065(12) 0.035(10) 0.075(13) -0.009(10) -0.025(11) 0.015(9)
C24 0.074(11) 0.034(9) 0.064(10) -0.016(9) -0.027(9) 0.010(9)
N8 0.080(12) 0.038(9) 0.074(11) -0.020(9) -0.030(10) 0.016(9)
C25 0.085(12) 0.045(10) 0.075(11) -0.022(9) -0.026(10) 0.015(9)
N9 0.083(12) 0.054(10) 0.075(11) -0.013(10) -0.034(10) 0.021(10)
C26 0.080(11) 0.040(9) 0.065(10) -0.012(9) -0.035(9) 0.020(9)
N10 0.072(11) 0.032(9) 0.057(10) -0.016(8) -0.034(9) 0.008(9)
N11 0.117(16) 0.061(13) 0.102(14) -0.045(12) 0.008(14) 0.016(12)
C27 0.123(16) 0.083(14) 0.110(15) -0.053(13) 0.007(14) 0.016(13)
C28 0.115(15) 0.084(13) 0.107(14) -0.048(12) -0.007(13) 0.010(12)
C29 0.103(13) 0.058(11) 0.094(12) -0.038(10) -0.014(11) 0.015(10)
C30 0.120(15) 0.060(13) 0.108(14) -0.033(12) -0.001(13) 0.007(12)
C31 0.125(16) 0.062(13) 0.107(15) -0.030(12) 0.004(14) 0.006(13)
N12 0.108(14) 0.041(10) 0.060(11) 0.000(9) -0.032(11) -0.003(10)
C32 0.101(14) 0.042(11) 0.074(12) -0.005(10) -0.026(12) 0.011(10)
C33 0.091(14) 0.032(10) 0.073(12) -0.007(10) -0.021(11) 0.014(10)
C34 0.093(12) 0.037(9) 0.070(10) -0.016(9) -0.026(10) 0.010(9)
C35 0.099(14) 0.059(11) 0.075(12) -0.011(11) -0.016(11) -0.010(11)
C36 0.109(14) 0.056(11) 0.075(12) -0.012(11) -0.015(12) -0.008(11)
Zn1A 0.124 0.032 0.105 -0.011 0.02 0.005
Zn2C 0.107 0.059 0.147 0.048 -0.09 -0.035
N11A 0.117 0.061 0.102 0.045 0.008 -0.016
N12C 0.108 0.041 0.06 0 -0.032 0.003
I7 0.177(4) 0.0545(19) 0.199(4) 0.056(2) 0.094(3) 0.043(2)
Zn4 0.135(5) 0.035(3) 0.091(4) 0.004(2) 0.020(3) -0.007(3)
I8 0.216(4) 0.066(2) 0.094(3) -0.0215(18) 0.015(3) -0.047(3)
N13 0.102(14) 0.026(9) 0.100(13) 0.033(9) 0.000(11) -0.002(10)
C37 0.106(14) 0.036(10) 0.104(13) 0.026(11) -0.018(12) -0.007(11)
C38 0.097(14) 0.029(10) 0.099(13) 0.016(10) -0.025(12) 0.004(10)
C39 0.085(12) 0.025(9) 0.088(11) 0.002(9) -0.018(10) 0.011(9)
C40 0.099(14) 0.038(11) 0.097(13) 0.019(11) -0.014(12) 0.011(11)
C41 0.104(14) 0.031(10) 0.097(13) 0.025(10) -0.003(12) 0.017(11)
C42 0.073(10) 0.027(8) 0.081(10) 0.001(9) -0.016(9) 0.010(8)
N14 0.060(10) 0.029(9) 0.075(10) -0.002(9) -0.031(9) 0.014(8)
C43 0.062(10) 0.017(8) 0.064(9) -0.004(8) -0.026(8) -0.001(8)
N15 0.065(10) 0.020(8) 0.060(10) -0.002(8) -0.029(8) 0.005(8)
C44 0.065(10) 0.028(8) 0.070(10) 0.003(8) -0.027(8) 0.010(8)
N16 0.069(10) 0.030(9) 0.072(10) 0.004(9) -0.024(9) 0.016(9)
N17 0.091(12) 0.025(9) 0.065(11) 0.008(9) -0.038(10) 0.007(9)
C45 0.093(13) 0.024(10) 0.071(12) 0.017(9) -0.030(11) -0.004(10)
C46 0.089(12) 0.031(10) 0.067(11) 0.014(9) -0.029(10) -0.012(10)
C47 0.078(11) 0.022(8) 0.073(10) 0.003(8) -0.039(9) 0.003(8)
C48 0.104(13) 0.033(10) 0.095(12) 0.013(10) -0.060(11) -0.003(10)
C49 0.100(13) 0.034(10) 0.093(12) 0.011(10) -0.061(11) -0.001(10)
N18 0.108(14) 0.058(12) 0.072(12) -0.001(11) -0.027(11) 0.012(11)
C50 0.104(14) 0.059(12) 0.081(12) 0.002(11) -0.041(11) 0.010(11)
C51 0.088(13) 0.048(11) 0.074(12) -0.007(10) -0.054(10) 0.015(10)
C52 0.080(11) 0.035(9) 0.065(10) -0.006(9) -0.039(9) 0.006(9)
C53 0.087(13) 0.037(10) 0.070(12) 0.003(10) -0.041(10) 0.009(10)
C54 0.097(14) 0.048(12) 0.084(12) 0.001(11) -0.039(11) 0.014(11)
I9 0.187(4) 0.061(2) 0.151(3) 0.012(2) -0.067(3) -0.028(2)
Zn5 0.103(4) 0.057(3) 0.106(4) -0.019(3) -0.045(3) 0.004(3)
I10 0.129(3) 0.167(4) 0.123(3) -0.061(3) -0.014(2) -0.003(3)
I11 0.127(3) 0.0407(15) 0.091(2) 0.0055(15) -0.0243(18) -0.0101(16)
Zn6 0.094(3) 0.034(2) 0.057(3) -0.004(2) -0.032(2) 0.014(2)
I12 0.116(3) 0.081(2) 0.075(2) -0.0001(16) -0.0177(18) 0.0416(19)
N19 0.084(12) 0.049(11) 0.048(9) -0.011(9) -0.027(10) -0.009(9)
C55 0.068(12) 0.056(12) 0.045(10) -0.004(10) -0.018(10) -0.006(10)
C56 0.059(12) 0.061(11) 0.052(11) -0.005(10) -0.020(10) -0.002(10)
C57 0.064(10) 0.050(10) 0.046(9) -0.002(9) -0.016(9) -0.004(9)
C58 0.087(12) 0.060(11) 0.054(11) -0.002(9) -0.003(10) -0.010(10)
C59 0.095(13) 0.049(11) 0.057(11) -0.013(9) -0.015(11) -0.011(10)
C60 0.065(10) 0.055(10) 0.041(9) 0.006(9) -0.017(8) 0.003(9)
N20 0.065(10) 0.047(10) 0.049(10) -0.005(9) -0.017(9) -0.001(9)
C61 0.066(10) 0.053(10) 0.065(10) -0.004(9) -0.032(9) -0.006(9)
N21 0.073(11) 0.062(11) 0.056(10) -0.015(9) -0.019(10) -0.003(10)
C62 0.068(10) 0.066(10) 0.050(9) -0.010(9) -0.017(9) 0.005(9)
N22 0.065(11) 0.059(10) 0.048(10) -0.001(9) -0.021(9) 0.009(9)
N23 0.076(12) 0.064(12) 0.081(13) 0.006(11) -0.048(11) -0.022(10)
C63 0.094(13) 0.080(13) 0.097(14) -0.004(12) -0.050(12) -0.028(11)
C64 0.079(12) 0.078(12) 0.094(13) -0.012(11) -0.046(11) -0.026(11)
C65 0.064(11) 0.055(10) 0.081(11) -0.004(10) -0.041(10) -0.003(9)
C66 0.069(12) 0.053(12) 0.084(13) 0.004(11) -0.041(11) -0.017(10)
C67 0.074(13) 0.056(12) 0.090(13) 0.012(11) -0.043(11) -0.023(11)
N24 0.098(13) 0.057(12) 0.075(12) -0.011(10) 0.001(11) -0.004(11)
C68 0.098(14) 0.057(12) 0.064(12) -0.009(11) 0.006(11) -0.011(11)
C69 0.089(13) 0.059(12) 0.062(11) -0.019(10) -0.001(11) -0.009(11)
C70 0.082(11) 0.065(11) 0.061(10) -0.015(9) -0.009(9) 0.000(10)
C71 0.094(14) 0.087(13) 0.078(12) -0.027(11) 0.005(11) -0.009(12)
C72 0.108(14) 0.081(13) 0.080(13) -0.026(11) -0.002(12) -0.014(12)
Zn4A 0.135 0.035 0.091 -0.004 0.02 0.007
Zn5C 0.103 0.057 0.106 0.019 -0.045 -0.004
N23C 0.076 0.064 0.081 -0.006 -0.048 0.022
N24A 0.098 0.057 0.075 0.011 0.001 0.004
C73 0.159(15) 0.135(15) 0.120(14) -0.001(13) 0.010(13) -0.013(14)
O1 0.153(16) 0.133(15) 0.119(15) 0.006(14) 0.000(14) -0.018(14)
O2 0.163(15) 0.139(15) 0.124(14) -0.007(14) 0.019(14) -0.009(14)
O3 0.160(16) 0.131(16) 0.119(15) 0.001(14) 0.005(15) -0.011(15)
C74 0.156(16) 0.142(15) 0.126(15) -0.002(14) 0.002(14) -0.009(15)
C75 0.153(16) 0.139(16) 0.127(15) -0.004(14) 0.009(15) -0.009(15)
C76 0.156(13) 0.138(13) 0.132(12) -0.004(11) 0.016(11) -0.007(11)
C77 0.155(15) 0.135(15) 0.128(15) -0.004(14) 0.009(14) -0.008(14)
C78 0.153(14) 0.138(14) 0.124(13) 0.003(12) 0.001(13) -0.010(13)
C79 0.154(16) 0.144(16) 0.125(16) 0.000(15) 0.003(15) -0.009(15)
C80 0.149(15) 0.140(15) 0.119(14) 0.007(14) -0.002(14) -0.009(14)
C81 0.146(15) 0.138(15) 0.120(14) 0.008(14) -0.005(14) -0.007(14)
C82 0.150(17) 0.146(17) 0.121(16) 0.009(16) -0.001(16) -0.009(16)
C83 0.149(19) 0.144(18) 0.119(17) 0.005(17) 0.000(17) -0.014(17)
C84 0.149(18) 0.142(18) 0.117(17) 0.010(17) -0.002(17) -0.011(17)
O4 0.17(2) 0.17(2) 0.16(2) 0.02(2) 0.01(2) 0.02(2)
C85 0.137(15) 0.137(15) 0.126(15) 0.000(14) -0.008(14) -0.005(14)
O5 0.17(2) 0.18(2) 0.17(2) 0.00(2) 0.01(2) -0.01(2)
C86 0.123(14) 0.129(14) 0.116(14) -0.002(12) -0.006(12) 0.002(12)
C87 0.118(13) 0.125(14) 0.109(13) 0.002(11) 0.000(11) 0.003(11)
C88 0.113(15) 0.128(16) 0.099(15) 0.000(14) -0.013(14) 0.002(14)
C89 0.110(16) 0.127(16) 0.101(16) 0.003(14) -0.016(14) 0.006(14)
C90 0.111(13) 0.122(14) 0.105(14) 0.000(11) -0.001(11) 0.002(11)
C91 0.114(15) 0.122(16) 0.109(15) -0.006(14) -0.008(13) 0.003(14)
C92 0.17(2) 0.15(2) 0.16(2) 0.00(2) 0.00(2) -0.01(2)
loop_
_geom_bond_atom_site_label_1
_geom_bond_atom_site_label_2
_geom_bond_site_symmetry_1
_geom_bond_site_symmetry_2
I1 Zn1 1_555 1_555
Zn1 I2 1_555 1_555
N1 Zn1 1_555 1_555
C1 N1 1_555 1_555
H1 C1 1_555 1_555
C2 C1 1_555 1_555
H2 C2 1_555 1_555
C3 C2 1_555 1_555
C4 C3 1_555 1_555
H3 C4 1_555 1_555
C5 N1 1_555 1_555
H4 C5 1_555 1_555
C6 C3 1_555 1_555
N2 C6 1_555 1_555
C7 N2 1_555 1_555
N3 C7 1_555 1_555
C8 N3 1_555 1_555
N4 C6 1_555 1_555
N5 C9 1_555 1_555
C9 H5 1_555 1_555
C10 C9 1_555 1_555
H6 C10 1_555 1_555
C11 C7 1_555 1_555
C12 C11 1_555 1_555
H7 C12 1_555 1_555
C13 N5 1_555 1_555
H8 C13 1_555 1_555
N6 C14 1_555 1_555
C14 H9 1_555 1_555
C15 C14 1_555 1_555
H10 C15 1_555 1_555
C16 C8 1_555 1_555
C17 C16 1_555 1_555
H11 C17 1_555 1_555
C18 N6 1_555 1_555
H12 C18 1_555 1_555
I3 Zn2 1_555 1_555
Zn2 N5 1_555 1_555
I4 Zn2 1_555 1_555
I5 Zn3 1_555 1_555
Zn3 N6 1_555 1_555
I6 Zn3 1_555 1_555
N7 Zn3 1_555 1_555
C19 N7 1_555 1_555
H13 C19 1_555 1_555
C20 C19 1_555 1_555
H14 C20 1_555 1_555
C21 C20 1_555 1_555
C22 C21 1_555 1_555
H15 C22 1_555 1_555
C23 N7 1_555 1_555
H16 C23 1_555 1_555
C24 C21 1_555 1_555
N8 C24 1_555 1_555
C25 N8 1_555 1_555
N9 C25 1_555 1_555
C26 N9 1_555 1_555
N10 C24 1_555 1_555
N11 C27 1_555 1_555
C27 H17 1_555 1_555
C28 C27 1_555 1_555
H18 C28 1_555 1_555
C29 C25 1_555 1_555
C30 C29 1_555 1_555
H19 C30 1_555 1_555
C31 N11 1_555 1_555
H20 C31 1_555 1_555
N12 C32 1_555 1_555
C32 H21 1_555 1_555
C33 C32 1_555 1_555
H22 C33 1_555 1_555
C34 C26 1_555 1_555
C35 C34 1_555 1_555
H23 C35 1_555 1_555
C36 N12 1_555 1_555
H24 C36 1_555 1_555
I7 Zn4 1_555 1_555
Zn4 I8 1_555 1_555
N13 Zn4 1_555 1_555
C37 N13 1_555 1_555
H25 C37 1_555 1_555
C38 C37 1_555 1_555
H26 C38 1_555 1_555
C39 C38 1_555 1_555
C40 C39 1_555 1_555
H27 C40 1_555 1_555
C41 N13 1_555 1_555
H28 C41 1_555 1_555
C42 C39 1_555 1_555
N14 C42 1_555 1_555
C43 N14 1_555 1_555
N15 C43 1_555 1_555
C44 N15 1_555 1_555
N16 C42 1_555 1_555
N17 C45 1_555 1_555
C45 H29 1_555 1_555
C46 C45 1_555 1_555
H30 C46 1_555 1_555
C47 C43 1_555 1_555
C48 C47 1_555 1_555
H31 C48 1_555 1_555
C49 N17 1_555 1_555
H32 C49 1_555 1_555
N18 C50 1_555 1_555
C50 H33 1_555 1_555
C51 C50 1_555 1_555
H34 C51 1_555 1_555
C52 C44 1_555 1_555
C53 C52 1_555 1_555
H35 C53 1_555 1_555
C54 N18 1_555 1_555
H36 C54 1_555 1_555
I9 Zn5 1_555 1_555
Zn5 N18 1_555 1_555
I10 Zn5 1_555 1_555
I11 Zn6 1_555 1_555
Zn6 N17 1_555 1_555
I12 Zn6 1_555 1_555
N19 Zn6 1_555 1_555
C55 N19 1_555 1_555
H37 C55 1_555 1_555
C56 C55 1_555 1_555
H38 C56 1_555 1_555
C57 C56 1_555 1_555
C58 C57 1_555 1_555
H39 C58 1_555 1_555
C59 N19 1_555 1_555
H40 C59 1_555 1_555
C60 C57 1_555 1_555
N20 C60 1_555 1_555
C61 N20 1_555 1_555
N21 C61 1_555 1_555
C62 N21 1_555 1_555
N22 C60 1_555 1_555
N23 C63 1_555 1_555
C63 H41 1_555 1_555
C64 C63 1_555 1_555
H42 C64 1_555 1_555
C65 C61 1_555 1_555
C66 C65 1_555 1_555
H43 C66 1_555 1_555
C67 N23 1_555 1_555
H44 C67 1_555 1_555
N24 C68 1_555 1_555
C68 H45 1_555 1_555
C69 C68 1_555 1_555
H46 C69 1_555 1_555
C70 C62 1_555 1_555
C71 C70 1_555 1_555
H47 C71 1_555 1_555
C72 N24 1_555 1_555
H48 C72 1_555 1_555
C73 O1 1_555 1_555
O1 C78 1_555 1_555
O2 C73 1_555 1_555
O3 C73 1_555 1_555
C74 O3 1_555 1_555
H49 C74 1_555 1_555
C75 C74 1_555 1_555
H50 C75 1_555 1_555
H51 C75 1_555 1_555
C76 O2 1_555 1_555
H52 C76 1_555 1_555
C77 C76 1_555 1_555
H53 C77 1_555 1_555
H54 C77 1_555 1_555
C78 C77 1_555 1_555
C79 C74 1_555 1_555
H55 C79 1_555 1_555
H56 C79 1_555 1_555
C80 C78 1_555 1_555
H57 C80 1_555 1_555
C81 C80 1_555 1_555
H58 C81 1_555 1_555
C82 C81 1_555 1_555
C83 C82 1_555 1_555
H59 C83 1_555 1_555
H60 C83 1_555 1_555
C84 C80 1_555 1_555
H61 C84 1_555 1_555
H62 C84 1_555 1_555
O4 C82 1_555 1_555
C85 C81 1_555 1_555
H63 C85 1_555 1_555
O5 C85 1_555 1_555
H64 O5 1_555 1_555
C86 C85 1_555 1_555
C87 C86 1_555 1_555
H65 C87 1_555 1_555
C88 C87 1_555 1_555
H66 C88 1_555 1_555
C89 C88 1_555 1_555
H67 C89 1_555 1_555
C90 C89 1_555 1_555
H68 C90 1_555 1_555
C91 C86 1_555 1_555
H69 C91 1_555 1_555
C92 C73 1_555 1_555
H70 C92 1_555 1_555
H71 C92 1_555 1_555
H72 C92 1_555 1_555
Zn1A N11 1_555 1_555
Zn2C N12 1_555 1_555
N11A Zn1 1_555 1_555
N12C Zn2 1_555 1_555
Zn4A N24 1_555 1_555
Zn5C N23 1_555 1_555
N23C Zn5 1_555 1_555
N24A Zn4 1_555 1_555
C4 C5 1_555 1_555
C8 N4 1_555 1_555
C10 C11 1_555 1_555
C12 C13 1_555 1_555
C15 C16 1_555 1_555
C17 C18 1_555 1_555
C22 C23 1_555 1_555
C26 N10 1_555 1_555
C28 C29 1_555 1_555
C30 C31 1_555 1_555
C33 C34 1_555 1_555
C35 C36 1_555 1_555
C40 C41 1_555 1_555
C44 N16 1_555 1_555
C46 C47 1_555 1_555
C48 C49 1_555 1_555
C51 C52 1_555 1_555
C53 C54 1_555 1_555
C58 C59 1_555 1_555
C62 N22 1_555 1_555
C64 C65 1_555 1_555
C66 C67 1_555 1_555
C69 C70 1_555 1_555
C71 C72 1_555 1_555
C75 C76 1_555 1_555
C78 C79 1_555 1_555
C83 C84 1_555 1_555
C90 C91 1_555 1_555

#END
