
#######################################################################
#
#                 Cambridge Crystallographic Data Centre
#                                CCDC 
#
#######################################################################
#
# If this CIF has been generated from an entry in the Cambridge 
# Structural Database, then it will include bibliographic, chemical, 
# crystal, experimental, refinement or atomic coordinate data resulting 
# from the CCDC's data processing and validation procedures.
#
#######################################################################

data_HOZFIN
_chemical_formula_moiety         '(C58 H42 Li11 O43 1-)n'
_symmetry_cell_setting           trigonal
_symmetry_space_group_name_H-M   'P -3 1 c'
_symmetry_Int_Tables_number      163
_space_group_name_Hall           '-P 3 2c'
loop_
_symmetry_equiv_pos_site_id
_symmetry_equiv_pos_as_xyz
1 x,y,z
2 -y,x-y,z
3 -x+y,-x,z
4 -y,-x,1/2-z
5 -x+y,y,1/2-z
6 x,x-y,1/2-z
7 -x,-y,-z
8 y,-x+y,-z
9 x-y,x,-z
10 y,x,1/2+z
11 x-y,-y,1/2+z
12 -x,-x+y,1/2+z
_cell_length_a                   18.6108(7)
_cell_length_b                   18.6108(7)
_cell_length_c                   19.3734(7)
_cell_angle_alpha                90
_cell_angle_beta                 90
_cell_angle_gamma                120
_cell_volume                     5811.21
loop_
_atom_site_label
_atom_site_type_symbol
_atom_site_fract_x
_atom_site_fract_y
_atom_site_fract_z
O9 O 0.3333 0.6667 0.4817(5)
O10 O 0.1241(5) 0.2141(5) 0.3454(4)
C10 C 0.1483(7) 0.2941(7) 0.4432(6)
H5 H 0.1891 0.3273 0.4794
H6 H 0.1371 0.3321 0.4154
C11 C 0.0497(7) 0.1509(7) 0.3695(7)
H7 H 0.0575 0.1078 0.3927
H8 H 0.0096 0.1248 0.3313
C12 C 0.1836(8) 0.2555(8) 0.3984(7)
H9 H 0.2370 0.2983 0.3785
H10 H 0.1931 0.2156 0.4249
C13 C 0.0203(8) 0.1903(8) 0.4187(7)
H11 H 0.0101 0.2303 0.3929
H12 H -0.0338 0.1470 0.4372
O11 O 0.0727(5) 0.2326(5) 0.4752(5)
Li1 Li 0.1676(2) 0.5067(2) 0.14122(16)
Li2 Li 0.21786(18) 0.4357(4) 0.2500
Li3 Li 0.3333 0.6667 0.3464(6)
O1 O -0.10203(9) 0.34892(10) 0.56221(7)
O2 O 0.03250(10) 0.42767(13) 0.58573(8)
H1 H 0.0281(13) 0.4320(18) 0.6362(9)
C1 C -0.02972(13) 0.38985(13) 0.54400(10)
C2 C -0.00712(13) 0.40023(13) 0.46915(9)
C3 C -0.06899(14) 0.35869(17) 0.42070(11)
H2 H -0.1246 0.3230 0.4351
C4 C -0.04939(14) 0.36939(18) 0.35100(11)
H3 H -0.0922 0.3415 0.3179
C5 C 0.03220(13) 0.42042(14) 0.32865(10)
C6 C 0.09463(12) 0.46098(12) 0.37775(9)
C7 C 0.07450(12) 0.45119(12) 0.44784(9)
H4 H 0.1168 0.4795 0.4812
C8 C 0.04913(13) 0.43189(15) 0.25189(10)
O3 O -0.01308(11) 0.40551(17) 0.21347(8)
O4 O 0.12232(9) 0.46648(11) 0.23151(7)
C9 C 0.18580(11) 0.51524(12) 0.36142(8)
O5 O 0.21701(9) 0.59195(9) 0.36965(8)
O6 O 0.22604(9) 0.47975(9) 0.34665(7)
O7 O 0.15830(11) 0.3166(2) 0.2500
O8 O 0.3333 0.6667 0.2500
Li1A Li 0.4933(2) 0.6609(3) 0.14122(16)
Li2A Li 0.5643(4) 0.78216(44) 0.2500
O1A O 0.65108(10) 0.54905(13) 0.56221(7)
O2A O 0.57233(13) 0.60483(16) 0.58573(8)
H1A H 0.5680(18) 0.5961(22) 0.6362(9)
C1A C 0.61015(13) 0.58043(18) 0.54400(10)
C2A C 0.59977(13) 0.59265(18) 0.46915(9)
C3A C 0.64131(17) 0.57232(22) 0.42070(11)
H2A H 0.6770 0.5524 0.4351
C4A C 0.63061(18) 0.58122(23) 0.35100(11)
H3A H 0.6585 0.5663 0.3179
C5A C 0.57958(14) 0.61178(19) 0.32865(10)
C6A C 0.53902(12) 0.63365(17) 0.37775(9)
C7A C 0.54881(12) 0.62331(17) 0.44784(9)
H4A H 0.5205 0.6373 0.4812
C8A C 0.56811(15) 0.61724(20) 0.25189(10)
O3A O 0.59449(17) 0.58141(20) 0.21347(8)
O4A O 0.53352(11) 0.65584(14) 0.23151(7)
C9A C 0.48476(12) 0.67056(16) 0.36142(8)
O5A O 0.40805(9) 0.62506(13) 0.36965(8)
O6A O 0.52025(9) 0.74629(13) 0.34665(7)
O7A O 0.6834(2) 0.84170(23) 0.2500
Li1B Li 0.3391(3) 0.8324(2) 0.14122(16)
Li2B Li 0.21784(44) 0.78214(18) 0.2500
O1B O 0.45095(13) 1.10203(9) 0.56221(7)
O2B O 0.39517(16) 0.96750(10) 0.58573(8)
H1B H 0.4039(22) 0.9719(13) 0.6362(9)
C1B C 0.41957(18) 1.02972(13) 0.54400(10)
C2B C 0.40735(18) 1.00712(13) 0.46915(9)
C3B C 0.42768(22) 1.06899(14) 0.42070(11)
H2B H 0.4476 1.1246 0.4351
C4B C 0.41878(23) 1.04939(14) 0.35100(11)
H3B H 0.4337 1.0922 0.3179
C5B C 0.38822(19) 0.96780(13) 0.32865(10)
C6B C 0.36635(17) 0.90537(12) 0.37775(9)
C7B C 0.37669(17) 0.92550(12) 0.44784(9)
H4B H 0.3627 0.8832 0.4812
C8B C 0.38276(20) 0.95087(13) 0.25189(10)
O3B O 0.41859(20) 1.01308(11) 0.21347(8)
O4B O 0.34416(14) 0.87768(9) 0.23151(7)
C9B C 0.32944(16) 0.81420(11) 0.36142(8)
O5B O 0.37494(13) 0.78299(9) 0.36965(8)
O6B O 0.25371(13) 0.77396(9) 0.34665(7)
O7B O 0.15830(23) 0.84170(11) 0.2500
Li1C Li 0.4933(2) 0.8324(2) 0.35878(16)
Li3C Li 0.3333 0.6667 0.1536(6)
O1C O 0.65108(10) 1.10203(9) -0.06221(7)
O2C O 0.57233(13) 0.96750(10) -0.08573(8)
H1C H 0.5680(18) 0.9719(13) -0.1362(9)
C1C C 0.61015(13) 1.02972(13) -0.04400(10)
C2C C 0.59977(13) 1.00712(13) 0.03085(9)
C3C C 0.64131(17) 1.06899(14) 0.07930(11)
H2C H 0.6770 1.1246 0.0649
C4C C 0.63061(18) 1.04939(14) 0.14900(11)
H3C H 0.6585 1.0922 0.1821
C5C C 0.57958(14) 0.96780(13) 0.17135(10)
C6C C 0.53902(12) 0.90537(12) 0.12225(9)
C7C C 0.54881(12) 0.92550(12) 0.05216(9)
H4C H 0.5205 0.8832 0.0188
C8C C 0.56811(15) 0.95087(13) 0.24811(10)
O3C O 0.59449(17) 1.01308(11) 0.28653(8)
O4C O 0.53352(11) 0.87768(9) 0.26849(7)
C9C C 0.48476(12) 0.81420(11) 0.13858(8)
O5C O 0.40805(9) 0.78299(9) 0.13035(8)
O6C O 0.52025(9) 0.77396(9) 0.15335(7)
Li1D Li 0.3391(3) 0.5067(2) 0.35878(16)
O1D O 0.45095(13) 0.34892(10) -0.06221(7)
O2D O 0.39517(16) 0.42767(13) -0.08573(8)
H1D H 0.4039(22) 0.4320(18) -0.1362(9)
C1D C 0.41957(18) 0.38985(13) -0.04400(10)
C2D C 0.40735(18) 0.40023(13) 0.03085(9)
C3D C 0.42768(22) 0.35869(17) 0.07930(11)
H2D H 0.4476 0.3230 0.0649
C4D C 0.41878(23) 0.36939(18) 0.14900(11)
H3D H 0.4337 0.3415 0.1821
C5D C 0.38822(19) 0.42042(14) 0.17135(10)
C6D C 0.36635(17) 0.46098(12) 0.12225(9)
C7D C 0.37669(17) 0.45119(12) 0.05216(9)
H4D H 0.3627 0.4795 0.0188
C8D C 0.38276(20) 0.43189(15) 0.24811(10)
O3D O 0.41859(20) 0.40551(17) 0.28653(8)
O4D O 0.34416(14) 0.46648(11) 0.26849(7)
C9D C 0.32944(16) 0.51524(12) 0.13858(8)
O5D O 0.37494(13) 0.59195(9) 0.13035(8)
O6D O 0.25371(13) 0.47975(9) 0.15335(7)
Li1E Li 0.1676(2) 0.6609(3) 0.35878(16)
O1E O -0.10203(9) 0.54905(13) -0.06221(7)
O2E O 0.03250(10) 0.60483(16) -0.08573(8)
H1E H 0.0281(13) 0.5961(22) -0.1362(9)
C1E C -0.02972(13) 0.58043(18) -0.04400(10)
C2E C -0.00712(13) 0.59265(18) 0.03085(9)
C3E C -0.06899(14) 0.57232(22) 0.07930(11)
H2E H -0.1246 0.5524 0.0649
C4E C -0.04939(14) 0.58122(23) 0.14900(11)
H3E H -0.0922 0.5663 0.1821
C5E C 0.03220(13) 0.61178(19) 0.17135(10)
C6E C 0.09463(12) 0.63365(17) 0.12225(9)
C7E C 0.07450(12) 0.62331(17) 0.05216(9)
H4E H 0.1168 0.6373 0.0188
C8E C 0.04913(13) 0.61724(20) 0.24811(10)
O3E O -0.01308(11) 0.58141(20) 0.28653(8)
O4E O 0.12232(9) 0.65584(14) 0.26849(7)
C9E C 0.18580(11) 0.67056(16) 0.13858(8)
O5E O 0.21701(9) 0.62506(13) 0.13035(8)
O6E O 0.22604(9) 0.74629(13) 0.15335(7)
Li1F Li -0.1676(2) 0.4933(2) -0.14122(16)
Li1G Li 0.5067(2) 0.3391(3) -0.14122(16)
Li1H Li 0.6609(3) 1.1676(2) -0.14122(16)
Li1I Li 0.5067(2) 1.1676(2) 0.64122(16)
Li1J Li 0.6609(3) 0.4933(2) 0.64122(16)
Li1K Li -0.1676(2) 0.3391(3) 0.64122(16)
O1F O 0.10203(9) 0.65108(10) 0.43779(7)
O1G O 0.34892(10) 0.45095(13) 0.43779(7)
O1H O 0.54905(13) 0.89797(9) 0.43779(7)
O1I O 0.34892(10) 0.89797(9) 0.06221(7)
O1J O 0.54905(13) 0.65108(10) 0.06221(7)
O1K O 0.10203(9) 0.45095(13) 0.06221(7)
loop_
_geom_bond_atom_site_label_1
_geom_bond_atom_site_label_2
_geom_bond_site_symmetry_1
_geom_bond_site_symmetry_2
Li1 O4 1_555 1_555
Li2 O4 1_555 1_555
Li3 O5 1_555 1_555
O1 C1 1_555 1_555
O2 H1 1_555 1_555
C1 O2 1_555 1_555
C2 C1 1_555 1_555
C3 C2 1_555 1_555
H2 C3 1_555 1_555
C4 C3 1_555 1_555
H3 C4 1_555 1_555
C5 C4 1_555 1_555
C6 C5 1_555 1_555
C7 C2 1_555 1_555
H4 C7 1_555 1_555
C8 C5 1_555 1_555
O3 C8 1_555 1_555
O4 C8 1_555 1_555
C9 C6 1_555 1_555
O5 C9 1_555 1_555
O6 Li2 1_555 1_555
O7 Li2 1_555 1_555
O8 Li3 1_555 1_555
O10 C11 1_555 1_555
C10 H5 1_555 1_555
H6 C10 1_555 1_555
C11 H7 1_555 1_555
H8 C11 1_555 1_555
C12 O10 1_555 1_555
H9 C12 1_555 1_555
H10 C12 1_555 1_555
C13 C11 1_555 1_555
H11 C13 1_555 1_555
H12 C13 1_555 1_555
O11 C10 1_555 1_555
Li1A O4A 1_555 1_555
Li2A O4A 1_555 1_555
O1A C1A 1_555 1_555
O2A H1A 1_555 1_555
C1A O2A 1_555 1_555
C2A C1A 1_555 1_555
C3A C2A 1_555 1_555
H2A C3A 1_555 1_555
C4A C3A 1_555 1_555
H3A C4A 1_555 1_555
C5A C4A 1_555 1_555
C6A C5A 1_555 1_555
C7A C2A 1_555 1_555
H4A C7A 1_555 1_555
C8A C5A 1_555 1_555
O3A C8A 1_555 1_555
O4A C8A 1_555 1_555
C9A C6A 1_555 1_555
O5A Li3 1_555 1_555
O6A Li2A 1_555 1_555
O7A Li2A 1_555 1_555
Li1B O4B 1_555 1_555
Li2B O4B 1_555 1_555
O1B C1B 1_555 1_555
O2B H1B 1_555 1_555
C1B O2B 1_555 1_555
C2B C1B 1_555 1_555
C3B C2B 1_555 1_555
H2B C3B 1_555 1_555
C4B C3B 1_555 1_555
H3B C4B 1_555 1_555
C5B C4B 1_555 1_555
C6B C5B 1_555 1_555
C7B C2B 1_555 1_555
H4B C7B 1_555 1_555
C8B C5B 1_555 1_555
O3B C8B 1_555 1_555
O4B C8B 1_555 1_555
C9B C6B 1_555 1_555
O5B Li3 1_555 1_555
O6B Li2B 1_555 1_555
O7B Li2B 1_555 1_555
Li1C O6A 1_555 1_555
Li3C O8 1_555 1_555
O1C C1C 1_555 1_555
O2C H1C 1_555 1_555
C1C O2C 1_555 1_555
C2C C1C 1_555 1_555
C3C C2C 1_555 1_555
H2C C3C 1_555 1_555
C4C C3C 1_555 1_555
H3C C4C 1_555 1_555
C5C C4C 1_555 1_555
C6C C5C 1_555 1_555
C7C C2C 1_555 1_555
H4C C7C 1_555 1_555
C8C C5C 1_555 1_555
O3C C8C 1_555 1_555
O4C Li2A 1_555 1_555
C9C C6C 1_555 1_555
O5C Li1B 1_555 1_555
O6C Li1A 1_555 1_555
Li1D O6 1_555 1_555
O1D C1D 1_555 1_555
O2D H1D 1_555 1_555
C1D O2D 1_555 1_555
C2D C1D 1_555 1_555
C3D C2D 1_555 1_555
H2D C3D 1_555 1_555
C4D C3D 1_555 1_555
H3D C4D 1_555 1_555
C5D C4D 1_555 1_555
C6D C5D 1_555 1_555
C7D C2D 1_555 1_555
H4D C7D 1_555 1_555
C8D C5D 1_555 1_555
O3D C8D 1_555 1_555
O4D Li2 1_555 1_555
C9D C6D 1_555 1_555
O5D Li1A 1_555 1_555
O6D Li1 1_555 1_555
Li1E O5 1_555 1_555
O1E C1E 1_555 1_555
O2E H1E 1_555 1_555
C1E O2E 1_555 1_555
C2E C1E 1_555 1_555
C3E C2E 1_555 1_555
H2E C3E 1_555 1_555
C4E C3E 1_555 1_555
H3E C4E 1_555 1_555
C5E C4E 1_555 1_555
C6E C5E 1_555 1_555
C7E C2E 1_555 1_555
H4E C7E 1_555 1_555
C8E C5E 1_555 1_555
O3E C8E 1_555 1_555
O4E Li2B 1_555 1_555
C9E C6E 1_555 1_555
O5E Li1 1_555 1_555
O6E Li1B 1_555 1_555
Li1F O1E 1_555 1_555
Li1G O1D 1_555 1_555
Li1H O1C 1_555 1_555
Li1I O1B 1_555 1_555
Li1J O1A 1_555 1_555
Li1K O1 1_555 1_555
O1F Li1E 1_555 1_555
O1G Li1D 1_555 1_555
O1H Li1C 1_555 1_555
O1I Li1B 1_555 1_555
O1J Li1A 1_555 1_555
O1K Li1 1_555 1_555
Li2 O6D 1_555 1_555
C6 C7 1_555 1_555
C9 O6 1_555 1_555
C10 C12 1_555 1_555
C13 O11 1_555 1_555
Li2A O6C 1_555 1_555
C6A C7A 1_555 1_555
C9A O5A 1_555 1_555
C9A O6A 1_555 1_555
O5A Li1D 1_555 1_555
Li2B O6E 1_555 1_555
C6B C7B 1_555 1_555
C9B O5B 1_555 1_555
C9B O6B 1_555 1_555
O5B Li1C 1_555 1_555
O6B Li1E 1_555 1_555
Li1C O4C 1_555 1_555
Li3C O5C 1_555 1_555
Li3C O5D 1_555 1_555
Li3C O5E 1_555 1_555
C6C C7C 1_555 1_555
C8C O4C 1_555 1_555
C9C O5C 1_555 1_555
C9C O6C 1_555 1_555
Li1D O4D 1_555 1_555
C6D C7D 1_555 1_555
C8D O4D 1_555 1_555
C9D O5D 1_555 1_555
C9D O6D 1_555 1_555
Li1E O4E 1_555 1_555
C6E C7E 1_555 1_555
C8E O4E 1_555 1_555
C9E O5E 1_555 1_555
C9E O6E 1_555 1_555

#END
