
#######################################################################
#
#                 Cambridge Crystallographic Data Centre
#                                CCDC 
#
#######################################################################
#
# If this CIF has been generated from an entry in the Cambridge 
# Structural Database, then it will include bibliographic, chemical, 
# crystal, experimental, refinement or atomic coordinate data resulting 
# from the CCDC's data processing and validation procedures.
#
#######################################################################

data_HOZFEJ
_chemical_formula_moiety         '(C24 H19 Li1 N6 O7)n'
_symmetry_cell_setting           monoclinic
_symmetry_space_group_name_H-M   'P 21/c'
_symmetry_Int_Tables_number      14
_space_group_name_Hall           '-P 2ybc'
loop_
_symmetry_equiv_pos_site_id
_symmetry_equiv_pos_as_xyz
1 x,y,z
2 -x,1/2+y,1/2-z
3 -x,-y,-z
4 x,1/2-y,1/2+z
_cell_length_a                   4.9748(2)
_cell_length_b                   37.2189(12)
_cell_length_c                   16.0246(5)
_cell_angle_alpha                90
_cell_angle_beta                 92.582(1)
_cell_angle_gamma                90
_cell_volume                     2964.05
loop_
_atom_site_label
_atom_site_type_symbol
_atom_site_fract_x
_atom_site_fract_y
_atom_site_fract_z
Li1 Li -1.2012(9) 0.47669(12) -0.4856(3)
C1 C -0.7892(5) 0.30274(6) -0.22277(14)
N1 N -0.5838(4) 0.31275(6) -0.17273(13)
C2 C -0.4580(5) 0.28546(6) -0.13127(14)
N2 N -0.5139(4) 0.25034(6) -0.13856(12)
C3 C -0.7307(5) 0.24384(7) -0.18896(15)
N3 N -0.8807(4) 0.26849(5) -0.23080(12)
N4 N -0.9285(4) 0.32681(5) -0.27156(13)
H1 H -1.0934 0.3204 -0.2872
O1 O -0.8254(4) 0.47757(5) -0.45587(12)
O2 O -0.4271(4) 0.47672(5) -0.38792(12)
C4 C -0.6561(5) 0.46274(6) -0.40677(15)
C5 C -0.7204(5) 0.42714(6) -0.37002(16)
C6 C -0.5689(6) 0.41348(7) -0.30267(18)
H2 H -0.4203 0.4269 -0.2801
C7 C -0.6306(6) 0.38042(7) -0.26738(18)
H3 H -0.5255 0.3715 -0.2209
C8 C -0.8466(5) 0.36056(6) -0.30053(15)
C9 C -0.9969(5) 0.37404(7) -0.36921(17)
H4 H -1.1443 0.3606 -0.3924
C10 C -0.9331(6) 0.40681(7) -0.40370(18)
H5 H -1.0356 0.4155 -0.4509
N5 N -0.2544(4) 0.29738(6) -0.07872(13)
H6 H -0.2365 0.3209 -0.0781
O3 O 0.7041(4) 0.25683(5) 0.17621(11)
H7 H 0.8259 0.2460 0.2041
O4 O 0.6024(4) 0.20102(5) 0.13329(12)
C11 C 0.5587(5) 0.23341(7) 0.13177(15)
C12 C 0.3367(5) 0.24979(7) 0.07956(14)
C13 C 0.1544(5) 0.22785(7) 0.03473(15)
H8 H 0.1687 0.2025 0.0402
C14 C -0.0468(5) 0.24227(7) -0.01750(15)
H9 H -0.1692 0.2269 -0.0475
C15 C -0.0687(5) 0.27955(7) -0.02576(14)
C16 C 0.1115(5) 0.30185(7) 0.02055(16)
H10 H 0.0959 0.3272 0.0161
C17 C 0.3108(5) 0.28695(7) 0.07234(17)
H11 H 0.4315 0.3022 0.1034
N6 N -0.8212(5) 0.20972(6) -0.20371(14)
H12 H -0.9686 0.2089 -0.2361
O5 O -0.3448(4) 0.06148(5) -0.05504(13)
O6 O -0.6502(5) 0.04327(6) -0.15166(16)
H13 H -0.6077 0.0229 -0.1326
C18 C -0.5147(6) 0.06819(7) -0.10947(17)
C19 C -0.5901(6) 0.10537(7) -0.13425(17)
C20 C -0.7840(11) 0.11215(12) -0.1951(3)
H14 H -0.8731 0.0927 -0.2230
C21 C -0.8522(11) 0.14703(12) -0.2166(3)
H15 H -0.9879 0.1511 -0.2592
C22 C -0.7284(6) 0.17584(7) -0.17806(17)
C23 C -0.5415(8) 0.16925(8) -0.1153(3)
H16 H -0.4581 0.1887 -0.0859
C24 C -0.4723(8) 0.13424(8) -0.0941(3)
H17 H -0.3398 0.1302 -0.0505
Li1_2 Li -0.2012(9) 0.47669(12) -0.4856(3)
Li1B Li -0.7988(9) 0.52331(12) -0.5144(3)
Li1C Li -0.2012(9) 0.02331(12) 0.0144(3)
O1B O -1.1746(4) 0.52243(5) -0.54413(12)
O2_2 O -1.4271(4) 0.47672(5) -0.38792(12)
O5C O -1.3448(4) 0.43852(5) -0.55504(13)
O7 O -0.2160(7) 0.37599(8) -0.0532(2)
loop_
_geom_bond_atom_site_label_1
_geom_bond_atom_site_label_2
_geom_bond_site_symmetry_1
_geom_bond_site_symmetry_2
Li1 O1 1_555 1_555
C1 N1 1_555 1_555
N1 C2 1_555 1_555
C2 N2 1_555 1_555
N2 C3 1_555 1_555
C3 N3 1_555 1_555
N3 C1 1_555 1_555
N4 C1 1_555 1_555
H1 N4 1_555 1_555
O1 C4 1_555 1_555
O2 C4 1_555 1_555
C4 C5 1_555 1_555
C5 C6 1_555 1_555
C6 H2 1_555 1_555
C7 C6 1_555 1_555
H3 C7 1_555 1_555
C8 N4 1_555 1_555
C9 C8 1_555 1_555
H4 C9 1_555 1_555
C10 C5 1_555 1_555
H5 C10 1_555 1_555
N5 C2 1_555 1_555
H6 N5 1_555 1_555
O3 H7 1_555 1_555
O4 C11 1_555 1_555
C11 O3 1_555 1_555
C12 C11 1_555 1_555
C13 C12 1_555 1_555
H8 C13 1_555 1_555
C14 C13 1_555 1_555
H9 C14 1_555 1_555
C15 N5 1_555 1_555
C16 C15 1_555 1_555
H10 C16 1_555 1_555
C17 C12 1_555 1_555
H11 C17 1_555 1_555
N6 C3 1_555 1_555
H12 N6 1_555 1_555
O5 C18 1_555 1_555
O6 H13 1_555 1_555
C18 O6 1_555 1_555
C19 C18 1_555 1_555
C20 C19 1_555 1_555
H14 C20 1_555 1_555
C21 C20 1_555 1_555
H15 C21 1_555 1_555
C22 N6 1_555 1_555
C23 C22 1_555 1_555
H16 C23 1_555 1_555
C24 C19 1_555 1_555
H17 C24 1_555 1_555
Li1_2 O2 1_555 1_555
Li1B O1 1_555 1_555
Li1C O5 1_555 1_555
O1B Li1 1_555 1_555
O2_2 Li1 1_555 1_555
O5C Li1 1_555 1_555
C7 C8 1_555 1_555
C9 C10 1_555 1_555
C14 C15 1_555 1_555
C16 C17 1_555 1_555
C21 C22 1_555 1_555
C23 C24 1_555 1_555
Li1B O1B 1_555 1_555

#END
