
#######################################################################
#
#                 Cambridge Crystallographic Data Centre
#                                CCDC 
#
#######################################################################
#
# If this CIF has been generated from an entry in the Cambridge 
# Structural Database, then it will include bibliographic, chemical, 
# crystal, experimental, refinement or atomic coordinate data resulting 
# from the CCDC's data processing and validation procedures.
#
#######################################################################

data_UBIPAY
_chemical_formula_moiety         '(C30 H28 Mn2 N2 O13)n'
_symmetry_cell_setting           triclinic
_symmetry_space_group_name_H-M   'P -1'
_symmetry_Int_Tables_number      2
_space_group_name_Hall           '-P 1'
loop_
_symmetry_equiv_pos_site_id
_symmetry_equiv_pos_as_xyz
1 x,y,z
2 -x,-y,-z
_cell_length_a                   7.8494(4)
_cell_length_b                   9.9876(6)
_cell_length_c                   12.6067(9)
_cell_angle_alpha                104.131(6)
_cell_angle_beta                 91.094(5)
_cell_angle_gamma                111.882(6)
_cell_volume                     882.686
loop_
_atom_site_label
_atom_site_type_symbol
_atom_site_fract_x
_atom_site_fract_y
_atom_site_fract_z
Mn1 Mn 0.01807(17) 0.72108(13) 0.53563(10)
O1 O -0.1287(8) 0.5997(6) -0.3522(4)
O2 O -0.1967(7) 0.3999(6) -0.4929(4)
O3 O -0.7781(7) -0.0431(5) -0.4753(4)
O4 O -0.7630(8) -0.1144(6) -0.3267(4)
O5 O -0.1764(9) 0.8327(7) 0.5704(5)
H1 H -0.1894 0.9164 0.5476
H2 H -0.2397 0.8097 0.6347
N1 N -0.0817(9) 0.6587(8) 0.3550(5)
C1 C -0.2114(11) 0.4616(9) -0.3954(7)
C2 C -0.3328(10) 0.3684(8) -0.3299(6)
C3 C -0.4558(10) 0.2282(8) -0.3819(6)
H3 H -0.4653 0.1936 -0.4582
C4 C -0.5695(10) 0.1340(8) -0.3220(6)
C5 C -0.7120(11) -0.0171(9) -0.3797(7)
C6 C -0.5578(11) 0.1908(8) -0.2090(6)
H4 H -0.6282 0.1294 -0.1679
C7 C -0.4428(10) 0.3376(8) -0.1562(5)
C8 C -0.3299(11) 0.4252(9) -0.2171(6)
H5 H -0.2509 0.5234 -0.1822
C9 C -0.4746(11) 0.3993(9) -0.0371(6)
H6 H -0.4799 0.3291 0.0064
C10 C -0.3505(11) 0.5609(9) 0.0282(6)
H7 H -0.2682 0.6134 -0.0189
C11 C -0.0117(12) 0.7435(9) 0.2897(6)
H8 H 0.0933 0.8306 0.3176
C12 C -0.0860(11) 0.7107(9) 0.1801(6)
H9 H -0.0297 0.7736 0.1364
C13 C -0.2439(11) 0.5837(9) 0.1380(6)
C14 C -0.3125(12) 0.4917(9) 0.2043(6)
H10 H -0.4142 0.4017 0.1779
C15 C -0.2292(12) 0.5339(9) 0.3113(7)
H11 H -0.2798 0.4706 0.3557
Mn1A Mn -1.01807(17) 0.27892(13) 0.46437(10)
Mn1A_2 Mn -0.01807(17) 0.27892(13) -0.53563(10)
Mn1_2 Mn -0.98193(17) -0.27892(13) -0.46437(10)
Mn1_3 Mn 0.01807(17) 0.72108(13) -0.46437(10)
Mn1_4 Mn -0.98193(17) 0.72108(13) 0.53563(10)
Mn1A_3 Mn -0.01807(17) 1.27892(13) 0.46437(10)
Mn1A_4 Mn -1.01807(17) 0.27892(13) -0.53563(10)
O1A O -0.8713(8) 0.4003(6) 0.3522(4)
O1_2 O -0.1287(8) 0.5997(6) 0.6478(4)
O1A_2 O -0.8713(8) 0.4003(6) -0.6478(4)
O2A O -0.8033(7) 0.6001(6) 0.4929(4)
O2A_2 O 0.1967(7) 0.6001(6) 0.4929(4)
O2_2 O -1.1967(7) 0.3999(6) -0.4929(4)
O3A O -0.2219(7) 1.0431(5) 0.4753(4)
O3_2 O 0.2219(7) 0.9569(5) 0.5247(4)
O3A_2 O -1.2219(7) 0.0431(5) -0.5247(4)
O4A O -0.2370(8) 1.1144(6) 0.3267(4)
O4_2 O 0.2370(8) 0.8856(6) 0.6733(4)
O4A_2 O -1.2370(8) 0.1144(6) -0.6733(4)
O5A O -0.8236(9) 0.1673(7) -0.5704(5)
H1A H -0.8106 0.0836 -0.5476
H2A H -0.7603 0.1903 -0.6347
N1A N -0.9183(9) 0.3413(8) -0.3550(5)
C1A C -0.7886(11) 0.5384(9) 0.3954(7)
C2A C -0.6672(10) 0.6316(8) 0.3299(6)
C3A C -0.5442(10) 0.7718(8) 0.3819(6)
H3A H -0.5347 0.8064 0.4582
C4A C -0.4305(10) 0.8660(8) 0.3220(6)
C5A C -0.2880(11) 1.0171(9) 0.3797(7)
C6A C -0.4422(11) 0.8092(8) 0.2090(6)
H4A H -0.3718 0.8706 0.1679
C7A C -0.5572(10) 0.6624(8) 0.1562(5)
C8A C -0.6701(11) 0.5748(9) 0.2171(6)
H5A H -0.7491 0.4766 0.1822
C9A C -0.5254(11) 0.6007(9) 0.0371(6)
H6A H -0.5201 0.6709 -0.0064
C10A C -0.6495(11) 0.4391(9) -0.0282(6)
H7A H -0.7318 0.3866 0.0189
C11A C -0.9883(12) 0.2565(9) -0.2897(6)
H8A H -1.0933 0.1694 -0.3176
C12A C -0.9140(11) 0.2893(9) -0.1801(6)
H9A H -0.9703 0.2264 -0.1364
C13A C -0.7561(11) 0.4163(9) -0.1380(6)
C14A C -0.6875(12) 0.5083(9) -0.2043(6)
H10A H -0.5858 0.5983 -0.1779
C15A C -0.7708(12) 0.4661(9) -0.3113(7)
H11A H -0.7202 0.5294 -0.3557
O6 O 0.4291(13) 0.1706(10) -0.7208(7)
O7 O 0.046(3) 0.831(3) -0.136(2)
O8 O 0.279(5) 1.031(4) 0.047(3)
loop_
_geom_bond_atom_site_label_1
_geom_bond_atom_site_label_2
_geom_bond_site_symmetry_1
_geom_bond_site_symmetry_2
Mn1 O5 1_555 1_555
O1 C1 1_555 1_555
O2 C1 1_555 1_555
O3 C5 1_555 1_555
O4 C5 1_555 1_555
O5 H1 1_555 1_555
H2 O5 1_555 1_555
N1 Mn1 1_555 1_555
C1 C2 1_555 1_555
C2 C3 1_555 1_555
C3 H3 1_555 1_555
C4 C3 1_555 1_555
C5 C4 1_555 1_555
C6 C4 1_555 1_555
H4 C6 1_555 1_555
C7 C6 1_555 1_555
C8 C2 1_555 1_555
H5 C8 1_555 1_555
C9 C7 1_555 1_555
H6 C9 1_555 1_555
C10 C9 1_555 1_555
H7 C10 1_555 1_555
C11 N1 1_555 1_555
H8 C11 1_555 1_555
C12 C11 1_555 1_555
H9 C12 1_555 1_555
C13 C10 1_555 1_555
C14 C13 1_555 1_555
H10 C14 1_555 1_555
C15 N1 1_555 1_555
H11 C15 1_555 1_555
Mn1A O1A 1_555 1_555
Mn1A_2 O2 1_555 1_555
Mn1_2 O3 1_555 1_555
Mn1_3 O1 1_555 1_555
Mn1_4 O2A 1_555 1_555
Mn1A_3 O3A 1_555 1_555
Mn1A_4 O1A_2 1_555 1_555
O1A C1A 1_555 1_555
O1_2 Mn1 1_555 1_555
O2A C1A 1_555 1_555
O2A_2 Mn1 1_555 1_555
O2_2 Mn1A_4 1_555 1_555
O3A C5A 1_555 1_555
O3_2 Mn1 1_555 1_555
O3A_2 Mn1A_4 1_555 1_555
O4A Mn1A_3 1_555 1_555
O4_2 Mn1 1_555 1_555
O4A_2 Mn1A_4 1_555 1_555
O5A Mn1A_4 1_555 1_555
H1A O5A 1_555 1_555
H2A O5A 1_555 1_555
N1A Mn1A_4 1_555 1_555
C1A C2A 1_555 1_555
C2A C3A 1_555 1_555
C3A H3A 1_555 1_555
C4A C3A 1_555 1_555
C5A O4A 1_555 1_555
C6A C4A 1_555 1_555
H4A C6A 1_555 1_555
C7A C6A 1_555 1_555
C8A C2A 1_555 1_555
H5A C8A 1_555 1_555
C9A C10 1_555 1_555
H6A C9A 1_555 1_555
C10A C9 1_555 1_555
H7A C10A 1_555 1_555
C11A N1A 1_555 1_555
H8A C11A 1_555 1_555
C12A C11A 1_555 1_555
H9A C12A 1_555 1_555
C13A C10A 1_555 1_555
C14A C13A 1_555 1_555
H10A C14A 1_555 1_555
C15A N1A 1_555 1_555
H11A C15A 1_555 1_555
O4 Mn1_2 1_555 1_555
C7 C8 1_555 1_555
C12 C13 1_555 1_555
C14 C15 1_555 1_555
C4A C5A 1_555 1_555
C7A C8A 1_555 1_555
C7A C9A 1_555 1_555
C9A C10A 1_555 1_555
C12A C13A 1_555 1_555
C14A C15A 1_555 1_555

#END
