
#######################################################################
#
#                 Cambridge Crystallographic Data Centre
#                                CCDC 
#
#######################################################################
#
# If this CIF has been generated from an entry in the Cambridge 
# Structural Database, then it will include bibliographic, chemical, 
# crystal, experimental, refinement or atomic coordinate data resulting 
# from the CCDC's data processing and validation procedures.
#
#######################################################################

data_LOCZUA
_chemical_formula_moiety         '(C38 H29 N5 Ni4 O15)n'
_symmetry_cell_setting           monoclinic
_symmetry_space_group_name_H-M   'P 21/n'
_symmetry_Int_Tables_number      14
_space_group_name_Hall           '-P 2yn'
loop_
_symmetry_equiv_pos_site_id
_symmetry_equiv_pos_as_xyz
1 x,y,z
2 1/2-x,1/2+y,1/2-z
3 -x,-y,-z
4 1/2+x,1/2-y,1/2+z
_cell_length_a                   13.0294(11)
_cell_length_b                   18.5533(14)
_cell_length_c                   22.0018(17)
_cell_angle_alpha                90
_cell_angle_beta                 102.8369(16)
_cell_angle_gamma                90
_cell_volume                     5185.75
loop_
_atom_site_label
_atom_site_type_symbol
_atom_site_fract_x
_atom_site_fract_y
_atom_site_fract_z
C1 C 0.7951(8) 0.8588(6) 0.1945(6)
C2 C 0.7341(8) 0.9207(6) 0.2117(5)
C3 C 0.7763(8) 0.9656(7) 0.2600(5)
H1 H 0.8454 0.9591 0.2821
C4 C 0.7146(9) 1.0214(7) 0.2762(6)
H2 H 0.7434 1.0509 0.3098
C5 C 0.5798(9) 0.9913(7) 0.1966(6)
H3 H 0.5123 1.0005 0.1734
C6 C 0.6342(10) 0.9357(7) 0.1789(6)
H4 H 0.6036 0.9078 0.1445
C7 C 0.3377(10) 0.6667(9) 0.2009(7)
H5 H 0.3071 0.6548 0.2339
C8 C 0.4930(10) 0.6905(7) 0.1671(6)
C9 C 0.4307(11) 0.7014(10) 0.1087(7)
H6 H 0.4606 0.7107 0.0749
C10 C 0.6131(9) 0.6931(8) 0.1763(7)
O1 O 0.6649(8) 0.7005(7) 0.2303(5)
C11 C 0.4473(11) 0.6728(10) 0.2135(7)
H7 H 0.4875 0.6646 0.2534
C12 C 1.0471(8) 0.7034(7) 0.3418(5)
C13 C 1.1046(9) 0.7175(6) 0.4080(5)
C14 C 1.1884(12) 0.7668(9) 0.4190(6)
H8 H 1.208 0.7903 0.3859
C15 C 1.2411(11) 0.7799(8) 0.4793(6)
H9 H 1.2968 0.8125 0.486
C16 C 1.1421(12) 0.6988(9) 0.5168(6)
H10 H 1.1259 0.6741 0.5503
C17 C 1.0875(11) 0.6814(8) 0.4585(6)
H11 H 1.038 0.6444 0.4531
C18 C 1.1695(8) 0.5193(7) 0.2253(6)
C19 C 1.2477(8) 0.4580(6) 0.2454(5)
C20 C 1.2428(9) 0.4092(7) 0.2930(6)
H12 H 1.1905 0.4132 0.3154
C21 C 1.3167(10) 0.3549(7) 0.3061(6)
H13 H 1.3113 0.3217 0.3369
C22 C 1.4001(10) 0.3960(7) 0.2316(6)
H14 H 1.4536 0.3917 0.21
C23 C 1.3299(10) 0.4507(7) 0.2163(6)
H15 H 1.3376 0.4835 0.1857
C24 C 0.8846(8) 0.5775(6) 0.0937(5)
C25 C 0.8752(8) 0.5168(6) 0.0471(5)
C26 C 0.7954(9) 0.5175(7) -0.0059(5)
H16 H 0.7424 0.5519 -0.0102
C27 C 0.7935(9) 0.4675(7) -0.0524(6)
H17 H 0.7391 0.4695 -0.0879
C28 C 0.9386(8) 0.4111(6) 0.0061(5)
H18 H 0.9851 0.3724 0.0118
C29 C 0.9467(9) 0.4608(6) 0.0544(5)
H19 H 0.9989 0.4563 0.0907
C30 C 0.9924(9) 0.7676(6) 0.0746(5)
N1 N 0.6178(7) 1.0334(5) 0.2453(4)
O2 O 0.6476(6) 0.6852(5) 0.1292(4)
N2 N 1.2164(7) 0.7482(5) 0.5290(4)
N3 N 1.3959(7) 0.3475(5) 0.2769(4)
N4 N 0.8673(7) 0.4161(5) -0.0485(4)
O3 O 0.8753(5) 0.6900(4) 0.2056(3)
H20 H 0.8341 0.6967 0.2374
O4 O 1.0864(5) 0.6834(4) 0.2077(3)
H21 H 1.1505 0.6866 0.2408
O5 O 0.7469(6) 0.8187(4) 0.1497(4)
O6 O 0.8866(5) 0.8481(4) 0.2254(3)
N5 N 0.2747(7) 0.6766(5) 0.1461(5)
O7 O 1.0303(6) 0.7595(4) 0.3093(3)
O8 O 1.0233(6) 0.6406(4) 0.3245(3)
O9 O 1.1027(6) 0.5313(4) 0.2564(4)
O10 O 1.1828(6) 0.5511(4) 0.1780(4)
O11 O 0.8141(6) 0.6240(4) 0.0835(4)
O12 O 0.9674(5) 0.5784(4) 0.1373(3)
O13 O 0.9374(5) 0.7738(4) 0.1154(3)
O14 O 1.0592(7) 0.7187(4) 0.0748(4)
Ni1 Ni 0.79018(10) 0.72184(7) 0.12052(6)
Ni2 Ni 0.98847(9) 0.76794(7) 0.21375(6)
Ni3 Ni 0.98358(10) 0.61003(7) 0.23174(6)
Ni4 Ni 1.11872(10) 0.63827(8) 0.13145(6)
C31 C 0.9824(9) 0.8231(7) 0.0257(6)
C32 C 0.9102(11) 0.8792(8) 0.0205(7)
H22 H 0.8663 0.8819 0.0485
C33 C 1.0463(12) 0.8199(9) -0.0171(7)
H23 H 1.0944 0.7825 -0.0154
C34 C 0.9683(17) 0.9277(11) -0.0653(10)
C35 C 1.0375(18) 0.8728(11) -0.0625(9)
H24 H 1.0798 0.8705 -0.0913
C36 C 0.9026(15) 0.9307(10) -0.0250(10)
H25 H 0.853 0.9674 -0.0284
C37 C 0.3217(10) 0.6981(8) 0.1014(7)
H26 H 0.2796 0.7117 0.0632
O15 O 0.9596(13) 0.9833(9) -0.1082(7)
C38 C 1.035(2) 0.9910(13) -0.1455(11)
H27 H 1.1011 1.007 -0.1199
H28 H 1.0109 1.0259 -0.1777
H29 H 1.0455 0.9455 -0.1641
N1A N 0.8822(7) 0.5334(5) 0.2547(4)
N2C N 0.7164(7) 0.7518(5) 0.0290(4)
N3A N 1.1041(7) 0.8475(5) 0.2231(4)
N4B N 1.1327(7) 0.5839(5) 0.0485(4)
N5_2 N 1.2747(7) 0.6766(5) 0.1461(5)
Ni1C Ni 1.29018(10) 0.77816(7) 0.62052(6)
Ni2A Ni 1.51153(9) 0.26794(7) 0.28625(6)
Ni3A Ni 0.51642(10) 1.11003(7) 0.26826(6)
Ni4_2 Ni 0.11872(10) 0.63827(8) 0.13145(6)
Ni4B Ni 0.88128(10) 0.36173(8) -0.13145(6)
loop_
_geom_bond_atom_site_label_1
_geom_bond_atom_site_label_2
_geom_bond_site_symmetry_1
_geom_bond_site_symmetry_2
C1 C2 1_555 1_555
C2 C3 1_555 1_555
C3 H1 1_555 1_555
C4 C3 1_555 1_555
H2 C4 1_555 1_555
C5 H3 1_555 1_555
C6 C2 1_555 1_555
H4 C6 1_555 1_555
C7 H5 1_555 1_555
C8 C9 1_555 1_555
C9 H6 1_555 1_555
C10 C8 1_555 1_555
O1 C10 1_555 1_555
C11 C7 1_555 1_555
H7 C11 1_555 1_555
C12 C13 1_555 1_555
C13 C14 1_555 1_555
C14 H8 1_555 1_555
C15 C14 1_555 1_555
H9 C15 1_555 1_555
C16 H10 1_555 1_555
C17 C13 1_555 1_555
H11 C17 1_555 1_555
C18 C19 1_555 1_555
C19 C20 1_555 1_555
C20 H12 1_555 1_555
C21 C20 1_555 1_555
H13 C21 1_555 1_555
C22 H14 1_555 1_555
C23 C19 1_555 1_555
H15 C23 1_555 1_555
C24 C25 1_555 1_555
C25 C26 1_555 1_555
C26 H16 1_555 1_555
C27 C26 1_555 1_555
H17 C27 1_555 1_555
C28 H18 1_555 1_555
C29 C25 1_555 1_555
H19 C29 1_555 1_555
C30 O13 1_555 1_555
N1 C4 1_555 1_555
O2 C10 1_555 1_555
N2 C15 1_555 1_555
N3 C21 1_555 1_555
N4 C27 1_555 1_555
O3 H20 1_555 1_555
O4 H21 1_555 1_555
O5 C1 1_555 1_555
O6 C1 1_555 1_555
N5 C7 1_555 1_555
O7 C12 1_555 1_555
O8 C12 1_555 1_555
O9 C18 1_555 1_555
O10 C18 1_555 1_555
O11 C24 1_555 1_555
O12 C24 1_555 1_555
O13 Ni1 1_555 1_555
O14 C30 1_555 1_555
Ni1 O2 1_555 1_555
Ni2 O3 1_555 1_555
Ni3 O3 1_555 1_555
Ni4 O4 1_555 1_555
C31 C30 1_555 1_555
C32 C31 1_555 1_555
H22 C32 1_555 1_555
C33 C31 1_555 1_555
H23 C33 1_555 1_555
C34 C35 1_555 1_555
C35 C33 1_555 1_555
H24 C35 1_555 1_555
C36 C32 1_555 1_555
H25 C36 1_555 1_555
C37 C9 1_555 1_555
H26 C37 1_555 1_555
O15 C34 1_555 1_555
C38 O15 1_555 1_555
H27 C38 1_555 1_555
H28 C38 1_555 1_555
H29 C38 1_555 1_555
N1A Ni3 1_555 1_555
N2C Ni1 1_555 1_555
N3A Ni2 1_555 1_555
N4B Ni4 1_555 1_555
N5_2 Ni4 1_555 1_555
Ni1C N2 1_555 1_555
Ni2A N3 1_555 1_555
Ni3A N1 1_555 1_555
Ni4_2 N5 1_555 1_555
Ni4B N4 1_555 1_555
C5 C6 1_555 1_555
C5 N1 1_555 1_555
C8 C11 1_555 1_555
C16 C17 1_555 1_555
C16 N2 1_555 1_555
C22 C23 1_555 1_555
C22 N3 1_555 1_555
C28 C29 1_555 1_555
C28 N4 1_555 1_555
O3 Ni1 1_555 1_555
O4 Ni2 1_555 1_555
O4 Ni3 1_555 1_555
O5 Ni1 1_555 1_555
O6 Ni2 1_555 1_555
N5 C37 1_555 1_555
O7 Ni2 1_555 1_555
O8 Ni3 1_555 1_555
O9 Ni3 1_555 1_555
O10 Ni4 1_555 1_555
O11 Ni1 1_555 1_555
O12 Ni3 1_555 1_555
O12 Ni4 1_555 1_555
O13 Ni2 1_555 1_555
O14 Ni4 1_555 1_555
C34 C36 1_555 1_555

#END
