
#######################################################################
#
#                 Cambridge Crystallographic Data Centre
#                                CCDC 
#
#######################################################################
#
# If this CIF has been generated from an entry in the Cambridge 
# Structural Database, then it will include bibliographic, chemical, 
# crystal, experimental, refinement or atomic coordinate data resulting 
# from the CCDC's data processing and validation procedures.
#
#######################################################################

data_LODBAJ
_chemical_formula_moiety         '(C39 H31 N5 Ni4 O16)n'
_symmetry_cell_setting           monoclinic
_symmetry_space_group_name_H-M   'P 21/n'
_symmetry_Int_Tables_number      14
_space_group_name_Hall           '-P 2yn'
loop_
_symmetry_equiv_pos_site_id
_symmetry_equiv_pos_as_xyz
1 x,y,z
2 1/2-x,1/2+y,1/2-z
3 -x,-y,-z
4 1/2+x,1/2-y,1/2+z
_cell_length_a                   13.2430(6)
_cell_length_b                   18.2511(8)
_cell_length_c                   21.8973(10)
_cell_angle_alpha                90
_cell_angle_beta                 104.1740(10)
_cell_angle_gamma                90
_cell_volume                     5131.44
loop_
_atom_site_label
_atom_site_type_symbol
_atom_site_fract_x
_atom_site_fract_y
_atom_site_fract_z
C1 C 0.7805(4) 0.8554(3) 0.1949(2)
C2 C 0.7196(5) 0.9195(3) 0.2107(3)
C3 C 0.7636(5) 0.9719(4) 0.2539(3)
H1 H 0.8345 0.9703 0.2731
C4 C 0.7028(5) 1.0270(4) 0.2688(3)
H2 H 0.734 1.0615 0.2987
C5 C 0.5596(5) 0.9849(4) 0.1970(3)
H3 H 0.4901 0.9903 0.1757
C6 C 0.6153(5) 0.9276(4) 0.1808(4)
H4 H 0.583 0.8945 0.1499
C7 C 0.3191(5) 0.6949(4) 0.1831(3)
C8 C 0.4287(5) 0.6872(4) 0.1737(3)
C9 C 0.4450(6) 0.6636(7) 0.1183(4)
H5 H 0.3887 0.6512 0.0853
C10 C 0.5466(7) 0.6580(7) 0.1109(5)
H6 H 0.5549 0.6395 0.0728
C11 C 0.6118(6) 0.6973(6) 0.2075(4)
H7 H 0.669 0.7097 0.24
C12 C 0.5150(6) 0.7021(6) 0.2204(4)
H8 H 0.5088 0.7153 0.2604
C13 C 1.0470(4) 0.7118(3) 0.3427(2)
C14 C 1.0928(5) 0.7270(3) 0.4114(3)
C15 C 1.1106(7) 0.7983(4) 0.4316(3)
H9 H 1.091 0.8368 0.4033
C16 C 1.1576(7) 0.8124(4) 0.4938(3)
H10 H 1.168 0.8611 0.5065
C17 C 1.1683(6) 0.6917(4) 0.5173(3)
H11 H 1.1863 0.6543 0.5468
C18 C 1.1216(6) 0.6727(4) 0.4557(3)
H12 H 1.1099 0.6238 0.4444
C19 C 1.1813(5) 0.5295(3) 0.2263(3)
C20 C 1.2630(5) 0.4709(3) 0.2483(3)
C21 C 1.2546(5) 0.4168(4) 0.2917(3)
H13 H 1.1992 0.4172 0.3108
C22 C 1.3299(5) 0.3624(3) 0.3059(3)
H14 H 1.3232 0.3263 0.3347
C23 C 1.4196(5) 0.4112(3) 0.2387(3)
H15 H 1.4755 0.4095 0.22
C24 C 1.3485(5) 0.4676(4) 0.2223(3)
H16 H 1.3579 0.5032 0.1938
C25 C 0.8797(4) 0.5737(3) 0.0979(2)
C26 C 0.8759(4) 0.5128(3) 0.0499(3)
C27 C 0.7965(6) 0.5096(5) -0.0045(3)
H17 H 0.7402 0.5414 -0.0099
C28 C 0.8011(5) 0.4595(4) -0.0503(3)
H18 H 0.7477 0.459 -0.0869
C29 C 0.9497(5) 0.4095(4) 0.0104(3)
H19 H 1.0002 0.373 0.0169
C30 C 0.9517(5) 0.4596(3) 0.0586(3)
H20 H 1.0032 0.4571 0.096
C31 C 0.9546(4) 0.7657(3) 0.0680(3)
N1 N 0.6010(4) 1.0331(3) 0.2422(2)
N2 N 0.6314(4) 0.6769(3) 0.1533(3)
N3 N 1.1889(4) 0.7605(3) 0.5368(2)
N4 N 1.4119(4) 0.3592(2) 0.2802(2)
N5 N 0.8790(4) 0.4113(3) -0.0446(2)
O1 O 0.8737(3) 0.68938(18) 0.21158(16)
H21 H 0.8404 0.6952 0.2466
O2 O 1.0815(3) 0.69219(19) 0.20426(16)
H22 H 1.1477 0.6989 0.2356
O3 O 0.7290(3) 0.8107(2) 0.15589(18)
O4 O 0.8745(3) 0.8512(2) 0.22289(18)
O5 O 0.3074(4) 0.7019(4) 0.2376(2)
O6 O 0.2477(3) 0.6946(3) 0.1324(2)
O7 O 1.0268(3) 0.7677(2) 0.30810(18)
O8 O 1.0337(3) 0.6464(2) 0.32617(18)
O9 O 1.1150(3) 0.5393(2) 0.2570(2)
O10 O 1.1872(3) 0.5621(2) 0.1768(2)
O11 O 0.7977(3) 0.6097(2) 0.09417(18)
O12 O 0.9655(3) 0.5828(2) 0.13729(17)
O13 O 0.9096(3) 0.7658(2) 0.11297(17)
O14 O 1.0308(3) 0.7260(2) 0.06536(19)
Ni1 Ni 0.77179(5) 0.71198(4) 0.12845(3)
Ni2 Ni 0.98022(5) 0.77309(3) 0.21179(3)
Ni3 Ni 0.99317(5) 0.61343(3) 0.23385(3)
Ni4 Ni 1.10604(5) 0.64643(4) 0.12626(3)
C32 C 0.9141(5) 0.8181(4) 0.0139(3)
O15 O 0.9420(6) 0.9127(3) 0.0880(3)
C33 C 0.8824(6) 0.7934(5) -0.0487(3)
C34 C 0.8466(8) 0.8449(6) -0.0972(4)
H23 H 0.8288 0.8299 -0.139
C35 C 0.8383(9) 0.9165(6) -0.0825(5)
H24 H 0.8111 0.9494 -0.1147
C36 C 0.9074(7) 0.8927(4) 0.0263(4)
C37 C 0.8684(9) 0.9422(5) -0.0219(5)
H25 H 0.8629 0.9917 -0.0133
C38 C 0.8509(10) 0.6934(7) -0.1215(4)
H26 H 0.7804 0.7088 -0.1388
H27 H 0.8541 0.6408 -0.1212
H28 H 0.8947 0.7124 -0.1468
C39 C 0.9209(10) 0.9826(5) 0.1068(5)
H29 H 0.9481 1.0184 0.0829
H30 H 0.9532 0.9888 0.1508
H31 H 0.847 0.989 0.0998
O16 O 0.8858(5) 0.7203(3) -0.0584(2)
N1A N 0.8990(4) 0.5331(3) 0.2578(2)
N3C N 0.6889(4) 0.7395(3) 0.0368(2)
N4A N 1.0881(4) 0.8592(2) 0.2198(2)
N5B N 1.1210(4) 0.5887(3) 0.0446(2)
O6_2 O 1.2477(3) 0.6946(3) 0.1324(2)
Ni1C Ni 1.27179(5) 0.78802(4) 0.62845(3)
Ni2A Ni 1.51978(5) 0.27309(3) 0.28821(3)
Ni3A Ni 0.50683(5) 1.11343(3) 0.26615(3)
Ni4_2 Ni 0.10604(5) 0.64643(4) 0.12626(3)
Ni4B Ni 0.89396(5) 0.35357(4) -0.12626(3)
loop_
_geom_bond_atom_site_label_1
_geom_bond_atom_site_label_2
_geom_bond_site_symmetry_1
_geom_bond_site_symmetry_2
C1 C2 1_555 1_555
C2 C3 1_555 1_555
C3 H1 1_555 1_555
C4 C3 1_555 1_555
H2 C4 1_555 1_555
C5 H3 1_555 1_555
C6 C2 1_555 1_555
H4 C6 1_555 1_555
C7 C8 1_555 1_555
C8 C9 1_555 1_555
C9 H5 1_555 1_555
C10 C9 1_555 1_555
H6 C10 1_555 1_555
C11 H7 1_555 1_555
C12 C8 1_555 1_555
H8 C12 1_555 1_555
C13 C14 1_555 1_555
C14 C15 1_555 1_555
C15 H9 1_555 1_555
C16 C15 1_555 1_555
H10 C16 1_555 1_555
C17 H11 1_555 1_555
C18 C14 1_555 1_555
H12 C18 1_555 1_555
C19 C20 1_555 1_555
C20 C21 1_555 1_555
C21 H13 1_555 1_555
C22 C21 1_555 1_555
H14 C22 1_555 1_555
C23 H15 1_555 1_555
C24 C20 1_555 1_555
H16 C24 1_555 1_555
C25 C26 1_555 1_555
C26 C27 1_555 1_555
C27 H17 1_555 1_555
C28 C27 1_555 1_555
H18 C28 1_555 1_555
C29 H19 1_555 1_555
C30 C26 1_555 1_555
H20 C30 1_555 1_555
C31 O13 1_555 1_555
N1 C4 1_555 1_555
N2 C10 1_555 1_555
N3 C16 1_555 1_555
N4 C22 1_555 1_555
N5 C28 1_555 1_555
O1 H21 1_555 1_555
O2 H22 1_555 1_555
O3 C1 1_555 1_555
O4 C1 1_555 1_555
O5 C7 1_555 1_555
O6 C7 1_555 1_555
O7 C13 1_555 1_555
O8 C13 1_555 1_555
O9 C19 1_555 1_555
O10 C19 1_555 1_555
O11 C25 1_555 1_555
O12 C25 1_555 1_555
O13 Ni1 1_555 1_555
O14 C31 1_555 1_555
Ni1 N2 1_555 1_555
Ni2 O1 1_555 1_555
Ni3 O1 1_555 1_555
Ni4 O2 1_555 1_555
C32 C31 1_555 1_555
O15 C36 1_555 1_555
C33 C32 1_555 1_555
C34 C33 1_555 1_555
H23 C34 1_555 1_555
C35 C34 1_555 1_555
H24 C35 1_555 1_555
C36 C32 1_555 1_555
C37 C35 1_555 1_555
H25 C37 1_555 1_555
C38 H26 1_555 1_555
H27 C38 1_555 1_555
H28 C38 1_555 1_555
C39 O15 1_555 1_555
H29 C39 1_555 1_555
H30 C39 1_555 1_555
H31 C39 1_555 1_555
O16 C33 1_555 1_555
N1A Ni3 1_555 1_555
N3C Ni1 1_555 1_555
N4A Ni2 1_555 1_555
N5B Ni4 1_555 1_555
O6_2 Ni4 1_555 1_555
Ni1C N3 1_555 1_555
Ni2A N4 1_555 1_555
Ni3A N1 1_555 1_555
Ni4_2 O6 1_555 1_555
Ni4B N5 1_555 1_555
C5 C6 1_555 1_555
C5 N1 1_555 1_555
C11 C12 1_555 1_555
C11 N2 1_555 1_555
C17 C18 1_555 1_555
C17 N3 1_555 1_555
C23 C24 1_555 1_555
C23 N4 1_555 1_555
C29 C30 1_555 1_555
C29 N5 1_555 1_555
O1 Ni1 1_555 1_555
O2 Ni2 1_555 1_555
O2 Ni3 1_555 1_555
O3 Ni1 1_555 1_555
O4 Ni2 1_555 1_555
O7 Ni2 1_555 1_555
O8 Ni3 1_555 1_555
O9 Ni3 1_555 1_555
O10 Ni4 1_555 1_555
O11 Ni1 1_555 1_555
O12 Ni3 1_555 1_555
O12 Ni4 1_555 1_555
O13 Ni2 1_555 1_555
O14 Ni4 1_555 1_555
C36 C37 1_555 1_555
C38 O16 1_555 1_555

#END
