
#######################################################################
#
#                 Cambridge Crystallographic Data Centre
#                                CCDC 
#
#######################################################################
#
# If this CIF has been generated from an entry in the Cambridge 
# Structural Database, then it will include bibliographic, chemical, 
# crystal, experimental, refinement or atomic coordinate data resulting 
# from the CCDC's data processing and validation procedures.
#
#######################################################################

data_HABCIZ
_chemical_formula_moiety         '(C52 H30 N4 Na2 O21 Sm2 Zn1)n'
_symmetry_cell_setting           orthorhombic
_symmetry_space_group_name_H-M   'I m m a'
_symmetry_Int_Tables_number      74
_space_group_name_Hall           '-I 2b 2'
loop_
_symmetry_equiv_pos_site_id
_symmetry_equiv_pos_as_xyz
1 x,y,z
2 -x,1/2-y,z
3 -x,1/2+y,-z
4 x,-y,-z
5 1/2+x,1/2+y,1/2+z
6 1/2-x,-y,1/2+z
7 1/2-x,y,1/2-z
8 1/2+x,1/2-y,1/2-z
9 -x,-y,-z
10 x,1/2+y,-z
11 x,1/2-y,z
12 -x,y,z
13 1/2-x,1/2-y,1/2-z
14 1/2+x,y,1/2-z
15 1/2+x,-y,1/2+z
16 1/2-x,1/2+y,1/2+z
_cell_length_a                   27.108(4)
_cell_length_b                   29.418(3)
_cell_length_c                   12.9723(18)
_cell_angle_alpha                90
_cell_angle_beta                 90
_cell_angle_gamma                90
_cell_volume                     10344.9
loop_
_atom_site_label
_atom_site_type_symbol
_atom_site_fract_x
_atom_site_fract_y
_atom_site_fract_z
_atom_site_U_iso_or_equiv
_atom_site_thermal_displace_type
Sm1 Sm 0.82737(3) 0.5000 0.5000 0.0733 Uani
Zn1 Zn 0.5000 0.2500 0.4404(5) 0.0467 Uani
Na1 Na 0.7500 0.45972(16) 0.7500 0.0873 Uani
O1 O 0.6954(2) 0.48731(19) 0.1849(5) 0.0677 Uani
O2 O 0.7610(3) 0.4504(2) 0.5338(5) 0.1010 Uiso
O3 O 0.6436(3) 0.4400(2) 0.1168(6) 0.1040 Uiso
O4 O 0.7153(3) 0.4138(3) 0.6408(8) 0.1430 Uiso
O5 O 0.8817(4) 0.4488(3) 0.6017(7) 0.1860 Uiso
H1 H 0.8685 0.4221 0.6322 0.2230 Uiso
H2 H 0.9156 0.4560 0.6101 0.2230 Uiso
N1 N 0.5000 0.3195(3) 0.4083(7) 0.0463 Uani
N2 N 0.5756(3) 0.2500 0.4121(7) 0.0497 Uani
C1 C 0.5903(3) 0.3327(3) 0.4046(7) 0.0550 Uani
C2 C 0.6602(3) 0.3795(3) 0.4737(7) 0.0617 Uani
H3 H 0.6585 0.3633 0.5369 0.0740 Uiso
C3 C 0.6309(3) 0.3908(3) 0.3007(7) 0.0583 Uani
H4 H 0.6104 0.3826 0.2444 0.0700 Uiso
C4 C 0.6658(3) 0.4271(3) 0.2923(7) 0.0520 Uani
C5 C 0.6282(3) 0.3686(3) 0.3925(7) 0.0513 Uani
C6 C 0.6062(3) 0.2870(3) 0.4031(6) 0.0497 Uani
C7 C 0.6981(3) 0.4362(3) 0.3700(7) 0.0517 Uani
H5 H 0.7234 0.4581 0.3609 0.0620 Uiso
C8 C 0.6565(3) 0.2742(2) 0.3994(7) 0.0683 Uani
H6 H 0.6844 0.2938 0.3973 0.0820 Uiso
C9 C 0.5398(3) 0.3473(2) 0.4066(7) 0.0507 Uani
C10 C 0.6935(4) 0.4133(3) 0.4615(7) 0.0613 Uani
C11 C 0.5226(3) 0.3933(3) 0.4101(7) 0.0717 Uani
H7 H 0.5429 0.4196 0.4121 0.0860 Uiso
C12 C 0.6686(4) 0.4538(3) 0.1959(8) 0.0740 Uani
C13 C 0.7273(5) 0.4247(4) 0.5460(10) 0.1090 Uani
O6 O 0.5000 0.2500 0.610(2) 0.0960 Uiso
H8 H 0.5000 0.2220 0.6467 0.1150 Uiso
O1J O 0.6954(2) 0.01269(19) 0.1849(5) 0.0677 Uani
O2J O 0.7610(3) 0.0496(2) 0.5338(5) 0.1010 Uiso
O3J O 0.6436(3) 0.0600(2) 0.1168(6) 0.1040 Uiso
O4J O 0.7153(3) 0.0862(3) 0.6408(8) 0.1430 Uiso
N1A N 0.5000 0.1805(3) 0.4083(7) 0.0463 Uani
C1J C 0.5903(3) 0.1673(3) 0.4046(7) 0.0550 Uani
C2J C 0.6602(3) 0.1205(3) 0.4737(7) 0.0617 Uani
H3J H 0.6585 0.1367 0.5369 0.0740 Uiso
C3J C 0.6309(3) 0.1092(3) 0.3007(7) 0.0583 Uani
H4J H 0.6104 0.1174 0.2444 0.0700 Uiso
C4J C 0.6658(3) 0.0729(3) 0.2923(7) 0.0520 Uani
C5J C 0.6282(3) 0.1314(3) 0.3925(7) 0.0513 Uani
C6J C 0.6062(3) 0.2130(3) 0.4031(6) 0.0497 Uani
C7J C 0.6981(3) 0.0638(3) 0.3700(7) 0.0517 Uani
H5J H 0.7234 0.0419 0.3609 0.0620 Uiso
C8J C 0.6565(3) 0.2258(2) 0.3994(7) 0.0683 Uani
H6J H 0.6844 0.2062 0.3973 0.0820 Uiso
C9J C 0.5398(3) 0.1527(2) 0.4066(7) 0.0507 Uani
C10J C 0.6935(4) 0.0867(3) 0.4615(7) 0.0613 Uani
C11J C 0.5226(3) 0.1067(3) 0.4101(7) 0.0717 Uani
H7J H 0.5429 0.0804 0.4121 0.0860 Uiso
C12J C 0.6686(4) 0.0462(3) 0.1959(8) 0.0740 Uani
C13J C 0.7273(5) 0.0753(4) 0.5460(10) 0.1090 Uani
O1K O 0.3046(2) 0.48731(19) 0.1849(5) 0.0677 Uani
O2K O 0.2390(3) 0.4504(2) 0.5338(5) 0.1010 Uiso
O3K O 0.3564(3) 0.4400(2) 0.1168(6) 0.1040 Uiso
O4K O 0.2847(3) 0.4138(3) 0.6408(8) 0.1430 Uiso
N2A N 0.4244(3) 0.2500 0.4121(7) 0.0497 Uani
C1K C 0.4097(3) 0.3327(3) 0.4046(7) 0.0550 Uani
C2K C 0.3398(3) 0.3795(3) 0.4737(7) 0.0617 Uani
H3K H 0.3415 0.3633 0.5369 0.0740 Uiso
C3K C 0.3691(3) 0.3908(3) 0.3007(7) 0.0583 Uani
H4K H 0.3896 0.3826 0.2444 0.0700 Uiso
C4K C 0.3342(3) 0.4271(3) 0.2923(7) 0.0520 Uani
C5K C 0.3718(3) 0.3686(3) 0.3925(7) 0.0513 Uani
C6K C 0.3938(3) 0.2870(3) 0.4031(6) 0.0497 Uani
C7K C 0.3019(3) 0.4362(3) 0.3700(7) 0.0517 Uani
H5K H 0.2766 0.4581 0.3609 0.0620 Uiso
C8K C 0.3435(3) 0.2742(2) 0.3994(7) 0.0683 Uani
H6K H 0.3156 0.2938 0.3973 0.0820 Uiso
C9K C 0.4602(3) 0.3473(2) 0.4066(7) 0.0507 Uani
C10K C 0.3065(4) 0.4133(3) 0.4615(7) 0.0613 Uani
C11K C 0.4774(3) 0.3933(3) 0.4101(7) 0.0717 Uani
H7K H 0.4571 0.4196 0.4121 0.0860 Uiso
C12K C 0.3314(4) 0.4538(3) 0.1959(8) 0.0740 Uani
C13K C 0.2727(5) 0.4247(4) 0.5460(10) 0.1090 Uani
O1A O 0.3046(2) 0.01269(19) 0.1849(5) 0.0677 Uani
O2A O 0.2390(3) 0.0496(2) 0.5338(5) 0.1010 Uiso
O3A O 0.3564(3) 0.0600(2) 0.1168(6) 0.1040 Uiso
O4A O 0.2847(3) 0.0862(3) 0.6408(8) 0.1430 Uiso
C1A C 0.4097(3) 0.1673(3) 0.4046(7) 0.0550 Uani
C2A C 0.3398(3) 0.1205(3) 0.4737(7) 0.0617 Uani
H3A H 0.3415 0.1367 0.5369 0.0740 Uiso
C3A C 0.3691(3) 0.1092(3) 0.3007(7) 0.0583 Uani
H4A H 0.3896 0.1174 0.2444 0.0700 Uiso
C4A C 0.3342(3) 0.0729(3) 0.2923(7) 0.0520 Uani
C5A C 0.3718(3) 0.1314(3) 0.3925(7) 0.0513 Uani
C6A C 0.3938(3) 0.2130(3) 0.4031(6) 0.0497 Uani
C7A C 0.3019(3) 0.0638(3) 0.3700(7) 0.0517 Uani
H5A H 0.2766 0.0419 0.3609 0.0620 Uiso
C8A C 0.3435(3) 0.2258(2) 0.3994(7) 0.0683 Uani
H6A H 0.3156 0.2062 0.3973 0.0820 Uiso
C9A C 0.4602(3) 0.1527(2) 0.4066(7) 0.0507 Uani
C10A C 0.3065(4) 0.0867(3) 0.4615(7) 0.0613 Uani
C11A C 0.4774(3) 0.1067(3) 0.4101(7) 0.0717 Uani
H7A H 0.4571 0.0804 0.4121 0.0860 Uiso
C12A C 0.3314(4) 0.0462(3) 0.1959(8) 0.0740 Uani
C13A C 0.2727(5) 0.0753(4) 0.5460(10) 0.1090 Uani
H8A H 0.5000 0.2780 0.6467 0.1150 Uiso
Na1J Na 0.7500 0.04028(16) 0.7500 0.0873 Uani
Sm1H Sm 0.17263(3) 0.5000 0.5000 0.0733 Uani
O5K O 0.1183(4) 0.4488(3) 0.6017(7) 0.1860 Uiso
H1K H 0.1315 0.4221 0.6322 0.2230 Uiso
H2K H 0.0844 0.4560 0.6101 0.2230 Uiso
O5C O 0.8817(4) 0.5512(3) 0.3983(7) 0.1860 Uiso
H1C H 0.8685 0.5779 0.3678 0.2230 Uiso
H2C H 0.9156 0.5440 0.3899 0.2230 Uiso
O5H O 0.1183(4) 0.5512(3) 0.3983(7) 0.1860 Uiso
H1H H 0.1315 0.5779 0.3678 0.2230 Uiso
H2H H 0.0844 0.5440 0.3899 0.2230 Uiso
Sm1A Sm 0.17263(3) -0.0000 0.5000 0.0733 Uani
Sm1D Sm 0.32737(3) 0.0000 0.0000 0.0733 Uani
Sm1E Sm 0.67263(3) 0.5000 0.0000 0.0733 Uani
Sm1I Sm 0.82737(3) -0.0000 0.5000 0.0733 Uani
Sm1L Sm 0.67263(3) 0.0000 0.0000 0.0733 Uani
Sm1M Sm 0.32737(3) 0.5000 0.0000 0.0733 Uani
Na1A Na 0.2500 0.04028(16) 0.7500 0.0873 Uani
Na1B Na 0.2500 -0.04028(16) 0.2500 0.0873 Uani
Na1C Na 0.7500 0.54028(16) 0.2500 0.0873 Uani
Na1H Na 0.2500 0.54028(16) 0.2500 0.0873 Uani
Na1I Na 0.7500 -0.04028(16) 0.2500 0.0873 Uani
Na1K Na 0.2500 0.45972(16) 0.7500 0.0873 Uani
O1C O 0.6954(2) 0.51269(19) 0.8151(5) 0.0677 Uani
O1E O 0.8046(2) 0.51269(19) 0.6849(5) 0.0677 Uani
O1F O 0.8046(2) 0.48731(19) 0.3151(5) 0.0677 Uani
O1I O 0.6954(2) -0.01269(19) 0.8151(5) 0.0677 Uani
O1M O 0.1954(2) 0.48731(19) 0.3151(5) 0.0677 Uani
O1N O 0.1954(2) 0.51269(19) 0.6849(5) 0.0677 Uani
O1O O 0.8046(2) -0.01269(19) 0.6849(5) 0.0677 Uani
O2C O 0.7610(3) 0.5496(2) 0.4662(5) 0.1010 Uiso
O2F O 0.7390(3) 0.4504(2) 0.9662(5) 0.1010 Uiso
O2H O 0.2390(3) 0.5496(2) 0.4662(5) 0.1010 Uiso
O2L O 0.7390(3) 0.0496(2) 0.9662(5) 0.1010 Uiso
O3E O 0.8564(3) 0.5600(2) 0.6168(6) 0.1040 Uiso
O3F O 0.8564(3) 0.4400(2) 0.3832(6) 0.1040 Uiso
O3M O 0.1436(3) 0.4400(2) 0.3832(6) 0.1040 Uiso
O3N O 0.1436(3) 0.5600(2) 0.6168(6) 0.1040 Uiso
O4F O 0.7847(3) 0.4138(3) 0.8592(8) 0.1430 Uiso
O4L O 0.7847(3) 0.0862(3) 0.8592(8) 0.1430 Uiso
loop_
_atom_site_aniso_label
_atom_site_aniso_U_11
_atom_site_aniso_U_22
_atom_site_aniso_U_33
_atom_site_aniso_U_23
_atom_site_aniso_U_13
_atom_site_aniso_U_12
Sm1 0.0577(5) 0.0737(5) 0.0886(6) -0.0272(5) 0.000 0.000
Zn1 0.049(3) 0.037(3) 0.054(4) 0.000 0.000 0.000
Na1 0.090(4) 0.071(3) 0.101(5) 0.000 -0.006(4) 0.000
O1 0.061(4) 0.065(4) 0.077(5) 0.009(3) -0.013(3) -0.015(3)
N1 0.040(6) 0.053(6) 0.046(7) 0.003(5) 0.000 0.000
N2 0.056(7) 0.033(5) 0.060(8) 0.000 0.008(6) 0.000
C1 0.047(6) 0.043(5) 0.075(7) 0.000(5) 0.004(5) -0.011(5)
C2 0.070(7) 0.043(5) 0.072(9) 0.011(5) -0.014(6) -0.017(5)
C3 0.051(6) 0.058(6) 0.066(7) 0.011(5) -0.011(5) -0.005(5)
C4 0.051(6) 0.058(5) 0.047(6) 0.016(5) -0.009(5) -0.015(5)
C5 0.052(6) 0.044(5) 0.058(7) 0.011(5) -0.005(5) 0.004(4)
C6 0.051(6) 0.044(5) 0.054(6) -0.002(4) -0.004(5) 0.002(5)
C7 0.057(6) 0.050(5) 0.048(6) -0.002(5) -0.012(5) -0.020(4)
C8 0.046(6) 0.060(5) 0.099(9) -0.002(5) -0.010(5) -0.004(4)
C9 0.044(6) 0.028(5) 0.080(7) -0.002(4) -0.004(5) -0.009(4)
C10 0.076(7) 0.068(6) 0.040(7) -0.010(5) -0.011(5) -0.009(6)
C11 0.057(7) 0.049(5) 0.109(8) 0.014(5) 0.000(5) -0.001(4)
C12 0.086(8) 0.071(7) 0.065(8) -0.007(6) -0.015(7) -0.028(6)
C13 0.124(11) 0.108(9) 0.095(10) 0.019(7) -0.005(9) -0.060(9)
O1J 0.061 0.065 0.077 -0.009 -0.013 0.015
N1A 0.04 0.053 0.046 -0.003 0 0
C1J 0.047 0.043 0.075 0 0.004 0.011
C2J 0.07 0.043 0.072 -0.011 -0.014 0.017
C3J 0.051 0.058 0.066 -0.011 -0.011 0.005
C4J 0.051 0.058 0.047 -0.016 -0.009 0.015
C5J 0.052 0.044 0.058 -0.011 -0.005 -0.004
C6J 0.051 0.044 0.054 0.002 -0.004 -0.002
C7J 0.057 0.05 0.048 0.002 -0.012 0.02
C8J 0.046 0.06 0.099 0.002 -0.01 0.004
C9J 0.044 0.028 0.08 0.002 -0.004 0.009
C10J 0.076 0.068 0.04 0.01 -0.011 0.009
C11J 0.057 0.049 0.109 -0.014 0 0.001
C12J 0.086 0.071 0.065 0.007 -0.015 0.028
C13J 0.124 0.108 0.095 -0.019 -0.005 0.06
O1K 0.061 0.065 0.077 0.009 0.013 0.015
N2A 0.056 0.033 0.06 0 -0.008 0
C1K 0.047 0.043 0.075 0 -0.004 0.011
C2K 0.07 0.043 0.072 0.011 0.014 0.017
C3K 0.051 0.058 0.066 0.011 0.011 0.005
C4K 0.051 0.058 0.047 0.016 0.009 0.015
C5K 0.052 0.044 0.058 0.011 0.005 -0.004
C6K 0.051 0.044 0.054 -0.002 0.004 -0.002
C7K 0.057 0.05 0.048 -0.002 0.012 0.02
C8K 0.046 0.06 0.099 -0.002 0.01 0.004
C9K 0.044 0.028 0.08 -0.002 0.004 0.009
C10K 0.076 0.068 0.04 -0.01 0.011 0.009
C11K 0.057 0.049 0.109 0.014 0 0.001
C12K 0.086 0.071 0.065 -0.007 0.015 0.028
C13K 0.124 0.108 0.095 0.019 0.005 0.06
O1A 0.061 0.065 0.077 -0.009 0.013 -0.015
C1A 0.047 0.043 0.075 0 -0.004 -0.011
C2A 0.07 0.043 0.072 -0.011 0.014 -0.017
C3A 0.051 0.058 0.066 -0.011 0.011 -0.005
C4A 0.051 0.058 0.047 -0.016 0.009 -0.015
C5A 0.052 0.044 0.058 -0.011 0.005 0.004
C6A 0.051 0.044 0.054 0.002 0.004 0.002
C7A 0.057 0.05 0.048 0.002 0.012 -0.02
C8A 0.046 0.06 0.099 0.002 0.01 -0.004
C9A 0.044 0.028 0.08 0.002 0.004 -0.009
C10A 0.076 0.068 0.04 0.01 0.011 -0.009
C11A 0.057 0.049 0.109 -0.014 0 -0.001
C12A 0.086 0.071 0.065 0.007 0.015 -0.028
C13A 0.124 0.108 0.095 -0.019 0.005 -0.06
Na1J 0.09 0.071 0.101 0 -0.006 0
Sm1H 0.0577 0.0737 0.0886 -0.0272 0 0
Sm1A 0.0577 0.0737 0.0886 0.0272 0 0
Sm1D 0.0577 0.0737 0.0886 -0.0272 0 0
Sm1E 0.0577 0.0737 0.0886 0.0272 0 0
Sm1I 0.0577 0.0737 0.0886 0.0272 0 0
Sm1L 0.0577 0.0737 0.0886 -0.0272 0 0
Sm1M 0.0577 0.0737 0.0886 0.0272 0 0
Na1A 0.09 0.071 0.101 0 0.006 0
Na1B 0.09 0.071 0.101 0 -0.006 0
Na1C 0.09 0.071 0.101 0 0.006 0
Na1H 0.09 0.071 0.101 0 -0.006 0
Na1I 0.09 0.071 0.101 0 0.006 0
Na1K 0.09 0.071 0.101 0 0.006 0
O1C 0.061 0.065 0.077 0.009 0.013 0.015
O1E 0.061 0.065 0.077 -0.009 0.013 -0.015
O1F 0.061 0.065 0.077 -0.009 -0.013 0.015
O1I 0.061 0.065 0.077 -0.009 0.013 -0.015
O1M 0.061 0.065 0.077 -0.009 0.013 -0.015
O1N 0.061 0.065 0.077 -0.009 -0.013 0.015
O1O 0.061 0.065 0.077 0.009 0.013 0.015
loop_
_geom_bond_atom_site_label_1
_geom_bond_atom_site_label_2
_geom_bond_site_symmetry_1
_geom_bond_site_symmetry_2
Sm1 O2 1_555 1_555
Zn1 N1 1_555 1_555
Na1 O2 1_555 1_555
O1 C12 1_555 1_555
O2 C13 1_555 1_555
O3 C12 1_555 1_555
O4 Na1 1_555 1_555
O5 Sm1 1_555 1_555
H1 O5 1_555 1_555
H2 O5 1_555 1_555
N1 C9 1_555 1_555
N2 Zn1 1_555 1_555
C1 C5 1_555 1_555
C2 H3 1_555 1_555
C3 H4 1_555 1_555
C4 C3 1_555 1_555
C5 C2 1_555 1_555
C6 N2 1_555 1_555
C7 C4 1_555 1_555
H5 C7 1_555 1_555
C8 C6 1_555 1_555
H6 C8 1_555 1_555
C9 C1 1_555 1_555
C10 C2 1_555 1_555
C11 C9 1_555 1_555
H7 C11 1_555 1_555
C12 C4 1_555 1_555
C13 O4 1_555 1_555
O6 Zn1 1_555 1_555
H8 O6 1_555 1_555
O1J C12J 1_555 1_555
O2J C13J 1_555 1_555
O3J C12J 1_555 1_555
O4J C13J 1_555 1_555
N1A Zn1 1_555 1_555
C1J C5J 1_555 1_555
C2J H3J 1_555 1_555
C3J H4J 1_555 1_555
C4J C3J 1_555 1_555
C5J C2J 1_555 1_555
C6J N2 1_555 1_555
C7J C4J 1_555 1_555
H5J C7J 1_555 1_555
C8J C8 1_555 1_555
H6J C8J 1_555 1_555
C9J N1A 1_555 1_555
C10J C2J 1_555 1_555
C11J C9J 1_555 1_555
H7J C11J 1_555 1_555
C12J C4J 1_555 1_555
C13J C10J 1_555 1_555
O1K C12K 1_555 1_555
O2K C13K 1_555 1_555
O3K C12K 1_555 1_555
O4K C13K 1_555 1_555
N2A Zn1 1_555 1_555
C1K C5K 1_555 1_555
C2K H3K 1_555 1_555
C3K H4K 1_555 1_555
C4K C3K 1_555 1_555
C5K C2K 1_555 1_555
C6K N2A 1_555 1_555
C7K C4K 1_555 1_555
H5K C7K 1_555 1_555
C8K C6K 1_555 1_555
H6K C8K 1_555 1_555
C9K N1 1_555 1_555
C10K C2K 1_555 1_555
C11K C11 1_555 1_555
H7K C11K 1_555 1_555
C12K C4K 1_555 1_555
C13K C10K 1_555 1_555
O1A C12A 1_555 1_555
O2A C13A 1_555 1_555
O3A C12A 1_555 1_555
O4A C13A 1_555 1_555
C1A C5A 1_555 1_555
C2A H3A 1_555 1_555
C3A H4A 1_555 1_555
C4A C3A 1_555 1_555
C5A C2A 1_555 1_555
C6A N2A 1_555 1_555
C7A C4A 1_555 1_555
H5A C7A 1_555 1_555
C8A C8K 1_555 1_555
H6A C8A 1_555 1_555
C9A N1A 1_555 1_555
C10A C2A 1_555 1_555
C11A C11J 1_555 1_555
H7A C11A 1_555 1_555
C12A C4A 1_555 1_555
C13A C10A 1_555 1_555
H8A O6 1_555 1_555
Na1J O2J 1_555 1_555
Sm1H O2K 1_555 1_555
O5K Sm1H 1_555 1_555
H1K O5K 1_555 1_555
H2K O5K 1_555 1_555
O5C Sm1 1_555 1_555
H1C O5C 1_555 1_555
H2C O5C 1_555 1_555
O5H Sm1H 1_555 1_555
H1H O5H 1_555 1_555
H2H O5H 1_555 1_555
Sm1A O2A 1_555 1_555
Sm1D O1A 1_555 1_555
Sm1E O1 1_555 1_555
Sm1I O2J 1_555 1_555
Sm1L O1J 1_555 1_555
Sm1M O1K 1_555 1_555
Na1A O2A 1_555 1_555
Na1B O1A 1_555 1_555
Na1C O1 1_555 1_555
Na1H O1K 1_555 1_555
Na1I O1J 1_555 1_555
Na1K O2K 1_555 1_555
O1C Na1 1_555 1_555
O1E Sm1 1_555 1_555
O1F Sm1 1_555 1_555
O1I Na1J 1_555 1_555
O1M Sm1H 1_555 1_555
O1N Sm1H 1_555 1_555
O1O Na1J 1_555 1_555
O2C Sm1 1_555 1_555
O2F Na1 1_555 1_555
O2H Sm1H 1_555 1_555
O2L Na1J 1_555 1_555
O3E Sm1 1_555 1_555
O3F Sm1 1_555 1_555
O3M Sm1H 1_555 1_555
O3N Sm1H 1_555 1_555
O4F Na1 1_555 1_555
O4L Na1J 1_555 1_555
Na1 O1E 1_555 1_555
O3 Sm1E 1_555 1_555
C1 C6 1_555 1_555
C3 C5 1_555 1_555
C7 C10 1_555 1_555
C10 C13 1_555 1_555
O3J Sm1L 1_555 1_555
O4J Na1J 1_555 1_555
C1J C6J 1_555 1_555
C1J C9J 1_555 1_555
C3J C5J 1_555 1_555
C6J C8J 1_555 1_555
C7J C10J 1_555 1_555
O3K Sm1M 1_555 1_555
O4K Na1K 1_555 1_555
C1K C6K 1_555 1_555
C1K C9K 1_555 1_555
C3K C5K 1_555 1_555
C7K C10K 1_555 1_555
C9K C11K 1_555 1_555
O3A Sm1D 1_555 1_555
O4A Na1A 1_555 1_555
C1A C6A 1_555 1_555
C1A C9A 1_555 1_555
C3A C5A 1_555 1_555
C6A C8A 1_555 1_555
C7A C10A 1_555 1_555
C9A C11A 1_555 1_555
Sm1I O1O 1_555 1_555
Na1C O1F 1_555 1_555
Na1C O2C 1_555 1_555
Na1H O1M 1_555 1_555
Na1H O2H 1_555 1_555
Na1K O1N 1_555 1_555

#END
