
#######################################################################
#
#                 Cambridge Crystallographic Data Centre
#                                CCDC 
#
#######################################################################
#
# If this CIF has been generated from an entry in the Cambridge 
# Structural Database, then it will include bibliographic, chemical, 
# crystal, experimental, refinement or atomic coordinate data resulting 
# from the CCDC's data processing and validation procedures.
#
#######################################################################

data_HABCOF
_chemical_formula_moiety         '(C52 H30 Dy2 N4 Na2 O21 Zn1)n'
_symmetry_cell_setting           orthorhombic
_symmetry_space_group_name_H-M   'I m m a'
_symmetry_Int_Tables_number      74
_space_group_name_Hall           '-I 2b 2'
loop_
_symmetry_equiv_pos_site_id
_symmetry_equiv_pos_as_xyz
1 x,y,z
2 -x,1/2-y,z
3 -x,1/2+y,-z
4 x,-y,-z
5 1/2+x,1/2+y,1/2+z
6 1/2-x,-y,1/2+z
7 1/2-x,y,1/2-z
8 1/2+x,1/2-y,1/2-z
9 -x,-y,-z
10 x,1/2+y,-z
11 x,1/2-y,z
12 -x,y,z
13 1/2-x,1/2-y,1/2-z
14 1/2+x,y,1/2-z
15 1/2+x,-y,1/2+z
16 1/2-x,1/2+y,1/2+z
_cell_length_a                   27.1337(11)
_cell_length_b                   29.2422(14)
_cell_length_c                   13.0757(7)
_cell_angle_alpha                90
_cell_angle_beta                 90
_cell_angle_gamma                90
_cell_volume                     10374.9
loop_
_atom_site_label
_atom_site_type_symbol
_atom_site_fract_x
_atom_site_fract_y
_atom_site_fract_z
_atom_site_U_iso_or_equiv
_atom_site_thermal_displace_type
Dy1 Dy 0.82547(2) 0.5000 0.5000 0.0499 Uani
Zn1 Zn 0.5000 0.2500 0.3686(4) 0.0399 Uani
Na1 Na 0.7500 0.45799(18) 0.7500 0.0593 Uani
O1 O 0.6953(2) 0.4896(2) 0.1814(5) 0.0477 Uani
O2 O 0.7659(3) 0.4478(3) 0.5248(9) 0.0960 Uiso
O3 O 0.6486(4) 0.4363(3) 0.1088(8) 0.0790 Uiso
O4 O 0.7138(4) 0.4143(4) 0.6301(10) 0.0960 Uiso
O5 O 0.8769(4) 0.4527(4) 0.6095(8) 0.0940 Uiso
H1 H 0.8731 0.4540 0.6817 0.1130 Uiso
H2 H 0.9007 0.4328 0.5801 0.1130 Uiso
O6 O 0.5000 0.2500 0.212(3) 0.1650 Uiso
H3 H 0.5000 0.2775 0.1760 0.1980 Uiso
N1 N 0.5000 0.3197(3) 0.3988(9) 0.0380 Uani
N2 N 0.5763(3) 0.2500 0.4018(9) 0.0383 Uani
C1 C 0.5894(3) 0.3321(3) 0.3967(7) 0.0413 Uani
C2 C 0.6588(4) 0.3801(3) 0.4665(7) 0.0433 Uani
H4 H 0.6558 0.3635 0.5286 0.0520 Uiso
C3 C 0.6313(3) 0.3939(3) 0.2988(7) 0.0500 Uani
H5 H 0.6089 0.3877 0.2446 0.0600 Uiso
C4 C 0.6678(3) 0.4285(3) 0.2868(8) 0.0480 Uani
C5 C 0.6283(3) 0.3698(2) 0.3873(7) 0.0357 Uani
C6 C 0.6046(3) 0.2874(3) 0.3989(7) 0.0390 Uani
C7 C 0.6971(3) 0.4362(3) 0.3658(7) 0.0373 Uani
H6 H 0.7220 0.4586 0.3563 0.0450 Uiso
C8 C 0.6566(4) 0.2728(3) 0.3942(9) 0.0497 Uani
H7 H 0.6847 0.2922 0.3917 0.0600 Uiso
C9 C 0.5400(3) 0.3472(3) 0.3980(8) 0.0433 Uani
C10 C 0.6957(5) 0.4157(3) 0.4586(7) 0.0467 Uani
C11 C 0.5248(4) 0.3929(3) 0.4045(10) 0.0657 Uani
H8 H 0.5456 0.4190 0.4082 0.0790 Uiso
C12 C 0.6695(4) 0.4547(4) 0.1881(9) 0.0593 Uani
C13 C 0.7273(5) 0.4271(4) 0.5424(8) 0.0553 Uani
O1J O 0.6953(2) 0.0104(2) 0.1814(5) 0.0477 Uani
O2J O 0.7659(3) 0.0522(3) 0.5248(9) 0.0960 Uiso
O3J O 0.6486(4) 0.0637(3) 0.1088(8) 0.0790 Uiso
O4J O 0.7138(4) 0.0857(4) 0.6301(10) 0.0960 Uiso
N1A N 0.5000 0.1803(3) 0.3988(9) 0.0380 Uani
C1J C 0.5894(3) 0.1679(3) 0.3967(7) 0.0413 Uani
C2J C 0.6588(4) 0.1199(3) 0.4665(7) 0.0433 Uani
H4J H 0.6558 0.1365 0.5286 0.0520 Uiso
C3J C 0.6313(3) 0.1061(3) 0.2988(7) 0.0500 Uani
H5J H 0.6089 0.1123 0.2446 0.0600 Uiso
C4J C 0.6678(3) 0.0715(3) 0.2868(8) 0.0480 Uani
C5J C 0.6283(3) 0.1302(2) 0.3873(7) 0.0357 Uani
C6J C 0.6046(3) 0.2126(3) 0.3989(7) 0.0390 Uani
C7J C 0.6971(3) 0.0638(3) 0.3658(7) 0.0373 Uani
H6J H 0.7220 0.0414 0.3563 0.0450 Uiso
C8J C 0.6566(4) 0.2272(3) 0.3942(9) 0.0497 Uani
H7J H 0.6847 0.2078 0.3917 0.0600 Uiso
C9J C 0.5400(3) 0.1528(3) 0.3980(8) 0.0433 Uani
C10J C 0.6957(5) 0.0843(3) 0.4586(7) 0.0467 Uani
C11J C 0.5248(4) 0.1071(3) 0.4045(10) 0.0657 Uani
H8J H 0.5456 0.0810 0.4082 0.0790 Uiso
C12J C 0.6695(4) 0.0453(4) 0.1881(9) 0.0593 Uani
C13J C 0.7273(5) 0.0729(4) 0.5424(8) 0.0553 Uani
O1K O 0.3047(2) 0.4896(2) 0.1814(5) 0.0477 Uani
O2K O 0.2341(3) 0.4478(3) 0.5248(9) 0.0960 Uiso
O3K O 0.3514(4) 0.4363(3) 0.1088(8) 0.0790 Uiso
O4K O 0.2862(4) 0.4143(4) 0.6301(10) 0.0960 Uiso
N2A N 0.4237(3) 0.2500 0.4018(9) 0.0383 Uani
C1K C 0.4106(3) 0.3321(3) 0.3967(7) 0.0413 Uani
C2K C 0.3412(4) 0.3801(3) 0.4665(7) 0.0433 Uani
H4K H 0.3442 0.3635 0.5286 0.0520 Uiso
C3K C 0.3687(3) 0.3939(3) 0.2988(7) 0.0500 Uani
H5K H 0.3911 0.3877 0.2446 0.0600 Uiso
C4K C 0.3322(3) 0.4285(3) 0.2868(8) 0.0480 Uani
C5K C 0.3717(3) 0.3698(2) 0.3873(7) 0.0357 Uani
C6K C 0.3954(3) 0.2874(3) 0.3989(7) 0.0390 Uani
C7K C 0.3029(3) 0.4362(3) 0.3658(7) 0.0373 Uani
H6K H 0.2780 0.4586 0.3563 0.0450 Uiso
C8K C 0.3434(4) 0.2728(3) 0.3942(9) 0.0497 Uani
H7K H 0.3153 0.2922 0.3917 0.0600 Uiso
C9K C 0.4600(3) 0.3472(3) 0.3980(8) 0.0433 Uani
C10K C 0.3043(5) 0.4157(3) 0.4586(7) 0.0467 Uani
C11K C 0.4752(4) 0.3929(3) 0.4045(10) 0.0657 Uani
H8K H 0.4544 0.4190 0.4082 0.0790 Uiso
C12K C 0.3305(4) 0.4547(4) 0.1881(9) 0.0593 Uani
C13K C 0.2727(5) 0.4271(4) 0.5424(8) 0.0553 Uani
O1A O 0.3047(2) 0.0104(2) 0.1814(5) 0.0477 Uani
O2A O 0.2341(3) 0.0522(3) 0.5248(9) 0.0960 Uiso
O3A O 0.3514(4) 0.0637(3) 0.1088(8) 0.0790 Uiso
O4A O 0.2862(4) 0.0857(4) 0.6301(10) 0.0960 Uiso
C1A C 0.4106(3) 0.1679(3) 0.3967(7) 0.0413 Uani
C2A C 0.3412(4) 0.1199(3) 0.4665(7) 0.0433 Uani
H4A H 0.3442 0.1365 0.5286 0.0520 Uiso
C3A C 0.3687(3) 0.1061(3) 0.2988(7) 0.0500 Uani
H5A H 0.3911 0.1123 0.2446 0.0600 Uiso
C4A C 0.3322(3) 0.0715(3) 0.2868(8) 0.0480 Uani
C5A C 0.3717(3) 0.1302(2) 0.3873(7) 0.0357 Uani
C6A C 0.3954(3) 0.2126(3) 0.3989(7) 0.0390 Uani
C7A C 0.3029(3) 0.0638(3) 0.3658(7) 0.0373 Uani
H6A H 0.2780 0.0414 0.3563 0.0450 Uiso
C8A C 0.3434(4) 0.2272(3) 0.3942(9) 0.0497 Uani
H7A H 0.3153 0.2078 0.3917 0.0600 Uiso
C9A C 0.4600(3) 0.1528(3) 0.3980(8) 0.0433 Uani
C10A C 0.3043(5) 0.0843(3) 0.4586(7) 0.0467 Uani
C11A C 0.4752(4) 0.1071(3) 0.4045(10) 0.0657 Uani
H8A H 0.4544 0.0810 0.4082 0.0790 Uiso
C12A C 0.3305(4) 0.0453(4) 0.1881(9) 0.0593 Uani
C13A C 0.2727(5) 0.0729(4) 0.5424(8) 0.0553 Uani
H3A H 0.5000 0.2225 0.1760 0.1980 Uiso
Na1J Na 0.7500 0.04201(18) 0.7500 0.0593 Uani
Dy1H Dy 0.17453(2) 0.5000 0.5000 0.0499 Uani
O5K O 0.1231(4) 0.4527(4) 0.6095(8) 0.0940 Uiso
H1K H 0.1269 0.4540 0.6817 0.1130 Uiso
H2K H 0.0993 0.4328 0.5801 0.1130 Uiso
O5C O 0.8769(4) 0.5473(4) 0.3905(8) 0.0940 Uiso
H1C H 0.8731 0.5460 0.3183 0.1130 Uiso
H2C H 0.9007 0.5672 0.4199 0.1130 Uiso
O5H O 0.1231(4) 0.5473(4) 0.3905(8) 0.0940 Uiso
H1H H 0.1269 0.5460 0.3183 0.1130 Uiso
H2H H 0.0993 0.5672 0.4199 0.1130 Uiso
Dy1A Dy 0.17453(2) -0.0000 0.5000 0.0499 Uani
Dy1D Dy 0.32547(2) 0.0000 0.0000 0.0499 Uani
Dy1E Dy 0.67453(2) 0.5000 0.0000 0.0499 Uani
Dy1I Dy 0.82547(2) -0.0000 0.5000 0.0499 Uani
Dy1L Dy 0.67453(2) 0.0000 0.0000 0.0499 Uani
Dy1M Dy 0.32547(2) 0.5000 0.0000 0.0499 Uani
Na1A Na 0.2500 0.04201(18) 0.7500 0.0593 Uani
Na1B Na 0.2500 -0.04201(18) 0.2500 0.0593 Uani
Na1C Na 0.7500 0.54201(18) 0.2500 0.0593 Uani
Na1H Na 0.2500 0.54201(18) 0.2500 0.0593 Uani
Na1I Na 0.7500 -0.04201(18) 0.2500 0.0593 Uani
Na1K Na 0.2500 0.45799(18) 0.7500 0.0593 Uani
O1C O 0.6953(2) 0.5104(2) 0.8186(5) 0.0477 Uani
O1E O 0.8047(2) 0.5104(2) 0.6814(5) 0.0477 Uani
O1F O 0.8047(2) 0.4896(2) 0.3186(5) 0.0477 Uani
O1I O 0.6953(2) -0.0104(2) 0.8186(5) 0.0477 Uani
O1M O 0.1953(2) 0.4896(2) 0.3186(5) 0.0477 Uani
O1N O 0.1953(2) 0.5104(2) 0.6814(5) 0.0477 Uani
O1O O 0.8047(2) -0.0104(2) 0.6814(5) 0.0477 Uani
O2C O 0.7659(3) 0.5522(3) 0.4752(9) 0.0960 Uiso
O2F O 0.7341(3) 0.4478(3) 0.9752(9) 0.0960 Uiso
O2H O 0.2341(3) 0.5522(3) 0.4752(9) 0.0960 Uiso
O2L O 0.7341(3) 0.0522(3) 0.9752(9) 0.0960 Uiso
O3E O 0.8514(4) 0.5637(3) 0.6088(8) 0.0790 Uiso
O3F O 0.8514(4) 0.4363(3) 0.3912(8) 0.0790 Uiso
O3M O 0.1486(4) 0.4363(3) 0.3912(8) 0.0790 Uiso
O3N O 0.1486(4) 0.5637(3) 0.6088(8) 0.0790 Uiso
O4F O 0.7862(4) 0.4143(4) 0.8699(10) 0.0960 Uiso
O4L O 0.7862(4) 0.0857(4) 0.8699(10) 0.0960 Uiso
loop_
_atom_site_aniso_label
_atom_site_aniso_U_11
_atom_site_aniso_U_22
_atom_site_aniso_U_33
_atom_site_aniso_U_23
_atom_site_aniso_U_13
_atom_site_aniso_U_12
Dy1 0.0360(3) 0.0547(4) 0.0589(5) -0.0187(14) 0.000 0.000
Zn1 0.042(2) 0.0296(19) 0.048(3) 0.000 0.000 0.000
Na1 0.075(4) 0.043(3) 0.060(4) 0.000 -0.008(3) 0.000
O1 0.042(3) 0.040(7) 0.061(4) 0.021(3) 0.000(3) -0.011(3)
N1 0.029(5) 0.009(4) 0.076(8) 0.004(4) 0.000 0.000
N2 0.031(5) 0.034(5) 0.050(7) 0.000 0.000(5) 0.000
C1 0.052(5) 0.022(4) 0.050(6) 0.002(4) 0.008(5) -0.002(3)
C2 0.063(5) 0.018(4) 0.049(7) 0.008(3) 0.000(4) -0.002(3)
C3 0.050(6) 0.065(6) 0.035(5) 0.010(5) -0.007(4) -0.030(5)
C4 0.060(6) 0.034(5) 0.050(6) 0.011(4) -0.015(5) -0.025(4)
C5 0.044(5) 0.020(4) 0.043(5) -0.002(3) 0.005(4) -0.006(3)
C6 0.034(4) 0.037(4) 0.046(5) -0.001(4) 0.000(4) -0.009(3)
C7 0.030(4) 0.044(5) 0.038(6) 0.012(4) 0.001(4) -0.008(4)
C8 0.049(5) 0.033(4) 0.067(7) 0.006(5) 0.002(5) -0.003(4)
C9 0.044(5) 0.019(4) 0.067(7) 0.001(4) -0.003(5) -0.003(3)
C10 0.075(6) 0.028(5) 0.037(5) -0.001(3) 0.010(5) -0.010(5)
C11 0.056(5) 0.022(4) 0.119(10) -0.006(5) -0.008(6) 0.000(4)
C12 0.054(6) 0.077(7) 0.047(6) 0.027(6) -0.029(5) -0.042(5)
C13 0.059(10) 0.053(6) 0.054(7) 0.017(5) -0.022(7) -0.024(7)
O1J 0.042 0.04 0.061 -0.021 0 0.011
N1A 0.029 0.009 0.076 -0.004 0 0
C1J 0.052 0.022 0.05 -0.002 0.008 0.002
C2J 0.063 0.018 0.049 -0.008 0 0.002
C3J 0.05 0.065 0.035 -0.01 -0.007 0.03
C4J 0.06 0.034 0.05 -0.011 -0.015 0.025
C5J 0.044 0.02 0.043 0.002 0.005 0.006
C6J 0.034 0.037 0.046 0.001 0 0.009
C7J 0.03 0.044 0.038 -0.012 0.001 0.008
C8J 0.049 0.033 0.067 -0.006 0.002 0.003
C9J 0.044 0.019 0.067 -0.001 -0.003 0.003
C10J 0.075 0.028 0.037 0.001 0.01 0.01
C11J 0.056 0.022 0.119 0.006 -0.008 0
C12J 0.054 0.077 0.047 -0.027 -0.029 0.042
C13J 0.059 0.053 0.054 -0.017 -0.022 0.024
O1K 0.042 0.04 0.061 0.021 0 0.011
N2A 0.031 0.034 0.05 0 0 0
C1K 0.052 0.022 0.05 0.002 -0.008 0.002
C2K 0.063 0.018 0.049 0.008 0 0.002
C3K 0.05 0.065 0.035 0.01 0.007 0.03
C4K 0.06 0.034 0.05 0.011 0.015 0.025
C5K 0.044 0.02 0.043 -0.002 -0.005 0.006
C6K 0.034 0.037 0.046 -0.001 0 0.009
C7K 0.03 0.044 0.038 0.012 -0.001 0.008
C8K 0.049 0.033 0.067 0.006 -0.002 0.003
C9K 0.044 0.019 0.067 0.001 0.003 0.003
C10K 0.075 0.028 0.037 -0.001 -0.01 0.01
C11K 0.056 0.022 0.119 -0.006 0.008 0
C12K 0.054 0.077 0.047 0.027 0.029 0.042
C13K 0.059 0.053 0.054 0.017 0.022 0.024
O1A 0.042 0.04 0.061 -0.021 0 -0.011
C1A 0.052 0.022 0.05 -0.002 -0.008 -0.002
C2A 0.063 0.018 0.049 -0.008 0 -0.002
C3A 0.05 0.065 0.035 -0.01 0.007 -0.03
C4A 0.06 0.034 0.05 -0.011 0.015 -0.025
C5A 0.044 0.02 0.043 0.002 -0.005 -0.006
C6A 0.034 0.037 0.046 0.001 0 -0.009
C7A 0.03 0.044 0.038 -0.012 -0.001 -0.008
C8A 0.049 0.033 0.067 -0.006 -0.002 -0.003
C9A 0.044 0.019 0.067 -0.001 0.003 -0.003
C10A 0.075 0.028 0.037 0.001 -0.01 -0.01
C11A 0.056 0.022 0.119 0.006 0.008 0
C12A 0.054 0.077 0.047 -0.027 0.029 -0.042
C13A 0.059 0.053 0.054 -0.017 0.022 -0.024
Na1J 0.075 0.043 0.06 0 -0.008 0
Dy1H 0.036 0.0547 0.0589 -0.0187 0 0
Dy1A 0.036 0.0547 0.0589 0.0187 0 0
Dy1D 0.036 0.0547 0.0589 -0.0187 0 0
Dy1E 0.036 0.0547 0.0589 0.0187 0 0
Dy1I 0.036 0.0547 0.0589 0.0187 0 0
Dy1L 0.036 0.0547 0.0589 -0.0187 0 0
Dy1M 0.036 0.0547 0.0589 0.0187 0 0
Na1A 0.075 0.043 0.06 0 0.008 0
Na1B 0.075 0.043 0.06 0 -0.008 0
Na1C 0.075 0.043 0.06 0 0.008 0
Na1H 0.075 0.043 0.06 0 -0.008 0
Na1I 0.075 0.043 0.06 0 0.008 0
Na1K 0.075 0.043 0.06 0 0.008 0
O1C 0.042 0.04 0.061 0.021 0 0.011
O1E 0.042 0.04 0.061 -0.021 0 -0.011
O1F 0.042 0.04 0.061 -0.021 0 0.011
O1I 0.042 0.04 0.061 -0.021 0 -0.011
O1M 0.042 0.04 0.061 -0.021 0 -0.011
O1N 0.042 0.04 0.061 -0.021 0 0.011
O1O 0.042 0.04 0.061 0.021 0 0.011
loop_
_geom_bond_atom_site_label_1
_geom_bond_atom_site_label_2
_geom_bond_site_symmetry_1
_geom_bond_site_symmetry_2
Dy1 O2 1_555 1_555
Zn1 O6 1_555 1_555
Na1 O2 1_555 1_555
O1 C12 1_555 1_555
O2 C13 1_555 1_555
O3 C12 1_555 1_555
O4 Na1 1_555 1_555
O5 Dy1 1_555 1_555
H1 O5 1_555 1_555
H2 O5 1_555 1_555
O6 H3 1_555 1_555
N1 Zn1 1_555 1_555
N2 Zn1 1_555 1_555
C1 C5 1_555 1_555
C2 H4 1_555 1_555
C3 H5 1_555 1_555
C4 C3 1_555 1_555
C5 C2 1_555 1_555
C6 N2 1_555 1_555
C7 C4 1_555 1_555
H6 C7 1_555 1_555
C8 C6 1_555 1_555
H7 C8 1_555 1_555
C9 N1 1_555 1_555
C10 C2 1_555 1_555
C11 C9 1_555 1_555
H8 C11 1_555 1_555
C12 C4 1_555 1_555
C13 O4 1_555 1_555
O1J C12J 1_555 1_555
O2J C13J 1_555 1_555
O3J C12J 1_555 1_555
O4J C13J 1_555 1_555
N1A Zn1 1_555 1_555
C1J C5J 1_555 1_555
C2J H4J 1_555 1_555
C3J H5J 1_555 1_555
C4J C3J 1_555 1_555
C5J C2J 1_555 1_555
C6J N2 1_555 1_555
C7J C4J 1_555 1_555
H6J C7J 1_555 1_555
C8J C8 1_555 1_555
H7J C8J 1_555 1_555
C9J N1A 1_555 1_555
C10J C2J 1_555 1_555
C11J C9J 1_555 1_555
H8J C11J 1_555 1_555
C12J C4J 1_555 1_555
C13J C10J 1_555 1_555
O1K C12K 1_555 1_555
O2K C13K 1_555 1_555
O3K C12K 1_555 1_555
O4K C13K 1_555 1_555
N2A Zn1 1_555 1_555
C1K C5K 1_555 1_555
C2K H4K 1_555 1_555
C3K H5K 1_555 1_555
C4K C3K 1_555 1_555
C5K C2K 1_555 1_555
C6K N2A 1_555 1_555
C7K C4K 1_555 1_555
H6K C7K 1_555 1_555
C8K C6K 1_555 1_555
H7K C8K 1_555 1_555
C9K N1 1_555 1_555
C10K C2K 1_555 1_555
C11K C11 1_555 1_555
H8K C11K 1_555 1_555
C12K C4K 1_555 1_555
C13K C10K 1_555 1_555
O1A C12A 1_555 1_555
O2A C13A 1_555 1_555
O3A C12A 1_555 1_555
O4A C13A 1_555 1_555
C1A C5A 1_555 1_555
C2A H4A 1_555 1_555
C3A H5A 1_555 1_555
C4A C3A 1_555 1_555
C5A C2A 1_555 1_555
C6A N2A 1_555 1_555
C7A C4A 1_555 1_555
H6A C7A 1_555 1_555
C8A C8K 1_555 1_555
H7A C8A 1_555 1_555
C9A N1A 1_555 1_555
C10A C2A 1_555 1_555
C11A C11J 1_555 1_555
H8A C11A 1_555 1_555
C12A C4A 1_555 1_555
C13A C10A 1_555 1_555
H3A O6 1_555 1_555
Na1J O2J 1_555 1_555
Dy1H O2K 1_555 1_555
O5K Dy1H 1_555 1_555
H1K O5K 1_555 1_555
H2K O5K 1_555 1_555
O5C Dy1 1_555 1_555
H1C O5C 1_555 1_555
H2C O5C 1_555 1_555
O5H Dy1H 1_555 1_555
H1H O5H 1_555 1_555
H2H O5H 1_555 1_555
Dy1A O2A 1_555 1_555
Dy1D O1A 1_555 1_555
Dy1E O1 1_555 1_555
Dy1I O2J 1_555 1_555
Dy1L O1J 1_555 1_555
Dy1M O1K 1_555 1_555
Na1A O2A 1_555 1_555
Na1B O1A 1_555 1_555
Na1C O1 1_555 1_555
Na1H O1K 1_555 1_555
Na1I O1J 1_555 1_555
Na1K O2K 1_555 1_555
O1C Na1 1_555 1_555
O1E Dy1 1_555 1_555
O1F Dy1 1_555 1_555
O1I Na1J 1_555 1_555
O1M Dy1H 1_555 1_555
O1N Dy1H 1_555 1_555
O1O Na1J 1_555 1_555
O2C Dy1 1_555 1_555
O2F Na1 1_555 1_555
O2H Dy1H 1_555 1_555
O2L Na1J 1_555 1_555
O3E Dy1 1_555 1_555
O3F Dy1 1_555 1_555
O3M Dy1H 1_555 1_555
O3N Dy1H 1_555 1_555
O4F Na1 1_555 1_555
O4L Na1J 1_555 1_555
Na1 O1E 1_555 1_555
O3 Dy1E 1_555 1_555
C1 C6 1_555 1_555
C1 C9 1_555 1_555
C3 C5 1_555 1_555
C7 C10 1_555 1_555
C10 C13 1_555 1_555
O3J Dy1L 1_555 1_555
O4J Na1J 1_555 1_555
C1J C6J 1_555 1_555
C1J C9J 1_555 1_555
C3J C5J 1_555 1_555
C6J C8J 1_555 1_555
C7J C10J 1_555 1_555
O3K Dy1M 1_555 1_555
O4K Na1K 1_555 1_555
C1K C6K 1_555 1_555
C1K C9K 1_555 1_555
C3K C5K 1_555 1_555
C7K C10K 1_555 1_555
C9K C11K 1_555 1_555
O3A Dy1D 1_555 1_555
O4A Na1A 1_555 1_555
C1A C6A 1_555 1_555
C1A C9A 1_555 1_555
C3A C5A 1_555 1_555
C6A C8A 1_555 1_555
C7A C10A 1_555 1_555
C9A C11A 1_555 1_555
Dy1I O1O 1_555 1_555
Na1C O1F 1_555 1_555
Na1C O2C 1_555 1_555
Na1H O1M 1_555 1_555
Na1H O2H 1_555 1_555
Na1K O1N 1_555 1_555

#END
