
#######################################################################
#
#                 Cambridge Crystallographic Data Centre
#                                CCDC 
#
#######################################################################
#
# If this CIF has been generated from an entry in the Cambridge 
# Structural Database, then it will include bibliographic, chemical, 
# crystal, experimental, refinement or atomic coordinate data resulting 
# from the CCDC's data processing and validation procedures.
#
#######################################################################

data_HABCEV
_chemical_formula_moiety         '(C52 H30 Gd2 N4 Na2 O21 Zn1)n'
_symmetry_cell_setting           orthorhombic
_symmetry_space_group_name_H-M   'I m m a'
_symmetry_Int_Tables_number      74
_space_group_name_Hall           '-I 2b 2'
loop_
_symmetry_equiv_pos_site_id
_symmetry_equiv_pos_as_xyz
1 x,y,z
2 -x,1/2-y,z
3 -x,1/2+y,-z
4 x,-y,-z
5 1/2+x,1/2+y,1/2+z
6 1/2-x,-y,1/2+z
7 1/2-x,y,1/2-z
8 1/2+x,1/2-y,1/2-z
9 -x,-y,-z
10 x,1/2+y,-z
11 x,1/2-y,z
12 -x,y,z
13 1/2-x,1/2-y,1/2-z
14 1/2+x,y,1/2-z
15 1/2+x,-y,1/2+z
16 1/2-x,1/2+y,1/2+z
_cell_length_a                   27.6310(19)
_cell_length_b                   29.080(3)
_cell_length_c                   13.1360(10)
_cell_angle_alpha                90
_cell_angle_beta                 90
_cell_angle_gamma                90
_cell_volume                     10554.9
loop_
_atom_site_label
_atom_site_type_symbol
_atom_site_fract_x
_atom_site_fract_y
_atom_site_fract_z
_atom_site_U_iso_or_equiv
_atom_site_thermal_displace_type
Gd1 Gd 0.82260(2) 0.5000 0.5000 0.0361 Uani
Zn1 Zn 0.5000 0.2500 0.4290(3) 0.0351 Uani
Na1 Na 0.7500 0.45819(14) 0.7500 0.0397 Uani
O1 O 0.69711(18) 0.48711(17) 0.1832(4) 0.0371 Uiso
O2 O 0.7678(3) 0.4449(3) 0.5252(6) 0.0210 Uiso
O3 O 0.7111(2) 0.4145(2) 0.6351(5) 0.0642 Uiso
O4 O 0.6403(3) 0.4447(3) 0.1192(7) 0.0280 Uiso
O5 O 0.8784(3) 0.5478(3) 0.4049(6) 0.1110 Uiso
H1 H 0.8680 0.5767 0.3788 0.1330 Uiso
H2 H 0.9107 0.5378 0.3937 0.1330 Uiso
O6 O 0.5000 0.2500 0.6023(19) 0.1210 Uiso
H3 H 0.5000 0.2783 0.6384 0.1450 Uiso
N1 N 0.5738(2) 0.2500 0.4060(5) 0.0223 Uani
N2 N 0.5000 0.3191(3) 0.4008(5) 0.0277 Uani
C1 C 0.6026(2) 0.2879(2) 0.4030(5) 0.0293 Uani
C2 C 0.6648(2) 0.4282(2) 0.2870(5) 0.0317 Uani
C3 C 0.6560(3) 0.3803(3) 0.4708(5) 0.0377 Uani
H4 H 0.6522 0.3648 0.5340 0.0450 Uiso
C4 C 0.6263(2) 0.3699(3) 0.3865(5) 0.0317 Uani
C5 C 0.6530(2) 0.2731(2) 0.3969(5) 0.0357 Uani
H5 H 0.6807 0.2925 0.3935 0.0430 Uiso
C6 C 0.5874(2) 0.3334(2) 0.3971(5) 0.0280 Uani
C7 C 0.6709(2) 0.4529(3) 0.1898(6) 0.0413 Uani
C8 C 0.6312(2) 0.3940(2) 0.2979(4) 0.0317 Uani
H6 H 0.6107 0.3868 0.2422 0.0380 Uiso
C9 C 0.7230(3) 0.4274(3) 0.5472(5) 0.0417 Uani
C10 C 0.5404(2) 0.3471(2) 0.3953(5) 0.0290 Uani
C11 C 0.5236(2) 0.3952(2) 0.3951(6) 0.0433 Uani
H7 H 0.5437 0.4216 0.3949 0.0520 Uiso
C12 C 0.6961(2) 0.4372(2) 0.3683(5) 0.0297 Uani
H8 H 0.7210 0.4594 0.3606 0.0350 Uiso
C13 C 0.6915(2) 0.4145(2) 0.4576(5) 0.0333 Uani
O1J O 0.69711(18) 0.01289(17) 0.1832(4) 0.0371 Uiso
O2J O 0.7678(3) 0.0551(3) 0.5252(6) 0.0210 Uiso
O3J O 0.7111(2) 0.0855(2) 0.6351(5) 0.0642 Uiso
O4J O 0.6403(3) 0.0553(3) 0.1192(7) 0.0280 Uiso
N2A N 0.5000 0.1809(3) 0.4008(5) 0.0277 Uani
C1J C 0.6026(2) 0.2121(2) 0.4030(5) 0.0293 Uani
C2J C 0.6648(2) 0.0718(2) 0.2870(5) 0.0317 Uani
C3J C 0.6560(3) 0.1197(3) 0.4708(5) 0.0377 Uani
H4J H 0.6522 0.1352 0.5340 0.0450 Uiso
C4J C 0.6263(2) 0.1301(3) 0.3865(5) 0.0317 Uani
C5J C 0.6530(2) 0.2269(2) 0.3969(5) 0.0357 Uani
H5J H 0.6807 0.2075 0.3935 0.0430 Uiso
C6J C 0.5874(2) 0.1666(2) 0.3971(5) 0.0280 Uani
C7J C 0.6709(2) 0.0471(3) 0.1898(6) 0.0413 Uani
C8J C 0.6312(2) 0.1060(2) 0.2979(4) 0.0317 Uani
H6J H 0.6107 0.1132 0.2422 0.0380 Uiso
C9J C 0.7230(3) 0.0726(3) 0.5472(5) 0.0417 Uani
C10J C 0.5404(2) 0.1529(2) 0.3953(5) 0.0290 Uani
C11J C 0.5236(2) 0.1048(2) 0.3951(6) 0.0433 Uani
H7J H 0.5437 0.0784 0.3949 0.0520 Uiso
C12J C 0.6961(2) 0.0628(2) 0.3683(5) 0.0297 Uani
H8J H 0.7210 0.0406 0.3606 0.0350 Uiso
C13J C 0.6915(2) 0.0855(2) 0.4576(5) 0.0333 Uani
O1K O 0.30289(18) 0.48711(17) 0.1832(4) 0.0371 Uiso
O2K O 0.2322(3) 0.4449(3) 0.5252(6) 0.0210 Uiso
O3K O 0.2889(2) 0.4145(2) 0.6351(5) 0.0642 Uiso
O4K O 0.3597(3) 0.4447(3) 0.1192(7) 0.0280 Uiso
N1A N 0.4262(2) 0.2500 0.4060(5) 0.0223 Uani
C1K C 0.3974(2) 0.2879(2) 0.4030(5) 0.0293 Uani
C2K C 0.3352(2) 0.4282(2) 0.2870(5) 0.0317 Uani
C3K C 0.3440(3) 0.3803(3) 0.4708(5) 0.0377 Uani
H4K H 0.3478 0.3648 0.5340 0.0450 Uiso
C4K C 0.3737(2) 0.3699(3) 0.3865(5) 0.0317 Uani
C5K C 0.3470(2) 0.2731(2) 0.3969(5) 0.0357 Uani
H5K H 0.3193 0.2925 0.3935 0.0430 Uiso
C6K C 0.4126(2) 0.3334(2) 0.3971(5) 0.0280 Uani
C7K C 0.3291(2) 0.4529(3) 0.1898(6) 0.0413 Uani
C8K C 0.3688(2) 0.3940(2) 0.2979(4) 0.0317 Uani
H6K H 0.3893 0.3868 0.2422 0.0380 Uiso
C9K C 0.2770(3) 0.4274(3) 0.5472(5) 0.0417 Uani
C10K C 0.4596(2) 0.3471(2) 0.3953(5) 0.0290 Uani
C11K C 0.4764(2) 0.3952(2) 0.3951(6) 0.0433 Uani
H7K H 0.4563 0.4216 0.3949 0.0520 Uiso
C12K C 0.3039(2) 0.4372(2) 0.3683(5) 0.0297 Uani
H8K H 0.2790 0.4594 0.3606 0.0350 Uiso
C13K C 0.3085(2) 0.4145(2) 0.4576(5) 0.0333 Uani
O1A O 0.30289(18) 0.01289(17) 0.1832(4) 0.0371 Uiso
O2A O 0.2322(3) 0.0551(3) 0.5252(6) 0.0210 Uiso
O3A O 0.2889(2) 0.0855(2) 0.6351(5) 0.0642 Uiso
O4A O 0.3597(3) 0.0553(3) 0.1192(7) 0.0280 Uiso
C1A C 0.3974(2) 0.2121(2) 0.4030(5) 0.0293 Uani
C2A C 0.3352(2) 0.0718(2) 0.2870(5) 0.0317 Uani
C3A C 0.3440(3) 0.1197(3) 0.4708(5) 0.0377 Uani
H4A H 0.3478 0.1352 0.5340 0.0450 Uiso
C4A C 0.3737(2) 0.1301(3) 0.3865(5) 0.0317 Uani
C5A C 0.3470(2) 0.2269(2) 0.3969(5) 0.0357 Uani
H5A H 0.3193 0.2075 0.3935 0.0430 Uiso
C6A C 0.4126(2) 0.1666(2) 0.3971(5) 0.0280 Uani
C7A C 0.3291(2) 0.0471(3) 0.1898(6) 0.0413 Uani
C8A C 0.3688(2) 0.1060(2) 0.2979(4) 0.0317 Uani
H6A H 0.3893 0.1132 0.2422 0.0380 Uiso
C9A C 0.2770(3) 0.0726(3) 0.5472(5) 0.0417 Uani
C10A C 0.4596(2) 0.1529(2) 0.3953(5) 0.0290 Uani
C11A C 0.4764(2) 0.1048(2) 0.3951(6) 0.0433 Uani
H7A H 0.4563 0.0784 0.3949 0.0520 Uiso
C12A C 0.3039(2) 0.0628(2) 0.3683(5) 0.0297 Uani
H8A H 0.2790 0.0406 0.3606 0.0350 Uiso
C13A C 0.3085(2) 0.0855(2) 0.4576(5) 0.0333 Uani
H3A H 0.5000 0.2217 0.6384 0.1450 Uiso
Na1J Na 0.7500 0.04181(14) 0.7500 0.0397 Uani
Gd1H Gd 0.17740(2) 0.5000 0.5000 0.0361 Uani
O5K O 0.1216(3) 0.5478(3) 0.4049(6) 0.1110 Uiso
H1K H 0.1320 0.5767 0.3788 0.1330 Uiso
H2K H 0.0893 0.5378 0.3937 0.1330 Uiso
O5C O 0.8784(3) 0.4522(3) 0.5951(6) 0.1110 Uiso
H1C H 0.8680 0.4233 0.6212 0.1330 Uiso
H2C H 0.9107 0.4622 0.6063 0.1330 Uiso
O5H O 0.1216(3) 0.4522(3) 0.5951(6) 0.1110 Uiso
H1H H 0.1320 0.4233 0.6212 0.1330 Uiso
H2H H 0.0893 0.4622 0.6063 0.1330 Uiso
Gd1A Gd 0.17740(2) -0.0000 0.5000 0.0361 Uani
Gd1D Gd 0.32260(2) 0.0000 0.0000 0.0361 Uani
Gd1E Gd 0.67740(2) 0.5000 0.0000 0.0361 Uani
Gd1I Gd 0.82260(2) -0.0000 0.5000 0.0361 Uani
Gd1L Gd 0.67740(2) 0.0000 0.0000 0.0361 Uani
Gd1M Gd 0.32260(2) 0.5000 0.0000 0.0361 Uani
Na1A Na 0.2500 0.04181(14) 0.7500 0.0397 Uani
Na1B Na 0.2500 -0.04181(14) 0.2500 0.0397 Uani
Na1C Na 0.7500 0.54181(14) 0.2500 0.0397 Uani
Na1H Na 0.2500 0.54181(14) 0.2500 0.0397 Uani
Na1I Na 0.7500 -0.04181(14) 0.2500 0.0397 Uani
Na1K Na 0.2500 0.45819(14) 0.7500 0.0397 Uani
O1C O 0.69711(18) 0.51289(17) 0.8168(4) 0.0371 Uiso
O1E O 0.80289(18) 0.51289(17) 0.6832(4) 0.0371 Uiso
O1F O 0.80289(18) 0.48711(17) 0.3168(4) 0.0371 Uiso
O1I O 0.69711(18) -0.01289(17) 0.8168(4) 0.0371 Uiso
O1M O 0.19711(18) 0.48711(17) 0.3168(4) 0.0371 Uiso
O1N O 0.19711(18) 0.51289(17) 0.6832(4) 0.0371 Uiso
O1O O 0.80289(18) -0.01289(17) 0.6832(4) 0.0371 Uiso
O2C O 0.7678(3) 0.5551(3) 0.4748(6) 0.0210 Uiso
O2F O 0.7322(3) 0.4449(3) 0.9748(6) 0.0210 Uiso
O2H O 0.2322(3) 0.5551(3) 0.4748(6) 0.0210 Uiso
O2L O 0.7322(3) 0.0551(3) 0.9748(6) 0.0210 Uiso
O3F O 0.7889(2) 0.4145(2) 0.8649(5) 0.0642 Uiso
O3L O 0.7889(2) 0.0855(2) 0.8649(5) 0.0642 Uiso
O4E O 0.8597(3) 0.5553(3) 0.6192(7) 0.0280 Uiso
O4F O 0.8597(3) 0.4447(3) 0.3808(7) 0.0280 Uiso
O4M O 0.1403(3) 0.4447(3) 0.3808(7) 0.0280 Uiso
O4N O 0.1403(3) 0.5553(3) 0.6192(7) 0.0280 Uiso
loop_
_atom_site_aniso_label
_atom_site_aniso_U_11
_atom_site_aniso_U_22
_atom_site_aniso_U_33
_atom_site_aniso_U_23
_atom_site_aniso_U_13
_atom_site_aniso_U_12
Gd1 0.0278(3) 0.0415(3) 0.0390(3) -0.0171(2) 0.000 0.000
Zn1 0.0309(14) 0.0270(14) 0.0474(18) 0.000 0.000 0.000
Na1 0.051(2) 0.033(2) 0.035(2) 0.000 -0.0079(18) 0.000
N1 0.017(3) 0.019(4) 0.031(4) 0.000 -0.003(3) 0.000
N2 0.029(4) 0.029(5) 0.025(4) 0.004(3) 0.000 0.000
C1 0.025(3) 0.031(4) 0.032(4) 0.005(3) -0.004(3) -0.001(3)
C2 0.029(3) 0.035(4) 0.031(4) 0.002(3) -0.005(3) -0.009(3)
C3 0.037(4) 0.051(5) 0.025(3) -0.002(3) -0.005(3) -0.001(4)
C4 0.019(3) 0.040(4) 0.036(4) 0.007(3) -0.004(3) -0.014(3)
C5 0.024(3) 0.025(4) 0.058(5) 0.003(3) 0.001(3) 0.005(3)
C6 0.028(3) 0.023(4) 0.033(4) -0.001(3) -0.004(3) -0.003(3)
C7 0.037(4) 0.043(5) 0.044(4) 0.009(4) -0.014(3) -0.008(3)
C8 0.033(3) 0.045(4) 0.017(3) 0.001(3) 0.000(3) -0.003(3)
C9 0.052(4) 0.046(5) 0.027(4) 0.011(4) -0.004(4) -0.027(4)
C10 0.030(3) 0.022(4) 0.035(4) -0.001(3) 0.004(3) -0.012(3)
C11 0.041(4) 0.011(3) 0.078(6) 0.003(4) 0.000(4) 0.002(3)
C12 0.036(3) 0.026(4) 0.027(3) 0.004(3) -0.002(3) -0.011(3)
C13 0.037(4) 0.027(4) 0.036(4) 0.003(3) -0.013(3) -0.015(3)
N2A 0.029 0.029 0.025 -0.004 0 0
C1J 0.025 0.031 0.032 -0.005 -0.004 0.001
C2J 0.029 0.035 0.031 -0.002 -0.005 0.009
C3J 0.037 0.051 0.025 0.002 -0.005 0.001
C4J 0.019 0.04 0.036 -0.007 -0.004 0.014
C5J 0.024 0.025 0.058 -0.003 0.001 -0.005
C6J 0.028 0.023 0.033 0.001 -0.004 0.003
C7J 0.037 0.043 0.044 -0.009 -0.014 0.008
C8J 0.033 0.045 0.017 -0.001 0 0.003
C9J 0.052 0.046 0.027 -0.011 -0.004 0.027
C10J 0.03 0.022 0.035 0.001 0.004 0.012
C11J 0.041 0.011 0.078 -0.003 0 -0.002
C12J 0.036 0.026 0.027 -0.004 -0.002 0.011
C13J 0.037 0.027 0.036 -0.003 -0.013 0.015
N1A 0.017 0.019 0.031 0 0.003 0
C1K 0.025 0.031 0.032 0.005 0.004 0.001
C2K 0.029 0.035 0.031 0.002 0.005 0.009
C3K 0.037 0.051 0.025 -0.002 0.005 0.001
C4K 0.019 0.04 0.036 0.007 0.004 0.014
C5K 0.024 0.025 0.058 0.003 -0.001 -0.005
C6K 0.028 0.023 0.033 -0.001 0.004 0.003
C7K 0.037 0.043 0.044 0.009 0.014 0.008
C8K 0.033 0.045 0.017 0.001 0 0.003
C9K 0.052 0.046 0.027 0.011 0.004 0.027
C10K 0.03 0.022 0.035 -0.001 -0.004 0.012
C11K 0.041 0.011 0.078 0.003 0 -0.002
C12K 0.036 0.026 0.027 0.004 0.002 0.011
C13K 0.037 0.027 0.036 0.003 0.013 0.015
C1A 0.025 0.031 0.032 -0.005 0.004 -0.001
C2A 0.029 0.035 0.031 -0.002 0.005 -0.009
C3A 0.037 0.051 0.025 0.002 0.005 -0.001
C4A 0.019 0.04 0.036 -0.007 0.004 -0.014
C5A 0.024 0.025 0.058 -0.003 -0.001 0.005
C6A 0.028 0.023 0.033 0.001 0.004 -0.003
C7A 0.037 0.043 0.044 -0.009 0.014 -0.008
C8A 0.033 0.045 0.017 -0.001 0 -0.003
C9A 0.052 0.046 0.027 -0.011 0.004 -0.027
C10A 0.03 0.022 0.035 0.001 -0.004 -0.012
C11A 0.041 0.011 0.078 -0.003 0 0.002
C12A 0.036 0.026 0.027 -0.004 0.002 -0.011
C13A 0.037 0.027 0.036 -0.003 0.013 -0.015
Na1J 0.051 0.033 0.035 0 -0.0079 0
Gd1H 0.0278 0.0415 0.039 -0.0171 0 0
Gd1A 0.0278 0.0415 0.039 0.0171 0 0
Gd1D 0.0278 0.0415 0.039 -0.0171 0 0
Gd1E 0.0278 0.0415 0.039 0.0171 0 0
Gd1I 0.0278 0.0415 0.039 0.0171 0 0
Gd1L 0.0278 0.0415 0.039 -0.0171 0 0
Gd1M 0.0278 0.0415 0.039 0.0171 0 0
Na1A 0.051 0.033 0.035 0 0.0079 0
Na1B 0.051 0.033 0.035 0 -0.0079 0
Na1C 0.051 0.033 0.035 0 0.0079 0
Na1H 0.051 0.033 0.035 0 -0.0079 0
Na1I 0.051 0.033 0.035 0 0.0079 0
Na1K 0.051 0.033 0.035 0 0.0079 0
loop_
_geom_bond_atom_site_label_1
_geom_bond_atom_site_label_2
_geom_bond_site_symmetry_1
_geom_bond_site_symmetry_2
Gd1 O2 1_555 1_555
Zn1 O6 1_555 1_555
Na1 O2 1_555 1_555
O1 C7 1_555 1_555
O2 C9 1_555 1_555
O3 Na1 1_555 1_555
O4 C7 1_555 1_555
O5 Gd1 1_555 1_555
H1 O5 1_555 1_555
H2 O5 1_555 1_555
O6 H3 1_555 1_555
N1 Zn1 1_555 1_555
N2 Zn1 1_555 1_555
C1 N1 1_555 1_555
C2 C7 1_555 1_555
C3 H4 1_555 1_555
C4 C3 1_555 1_555
C5 C1 1_555 1_555
H5 C5 1_555 1_555
C6 C1 1_555 1_555
C8 C2 1_555 1_555
H6 C8 1_555 1_555
C9 O3 1_555 1_555
C10 N2 1_555 1_555
C11 C10 1_555 1_555
H7 C11 1_555 1_555
C12 C2 1_555 1_555
H8 C12 1_555 1_555
C13 C3 1_555 1_555
O1J C7J 1_555 1_555
O2J C9J 1_555 1_555
O3J C9J 1_555 1_555
O4J C7J 1_555 1_555
N2A Zn1 1_555 1_555
C1J N1 1_555 1_555
C2J C7J 1_555 1_555
C3J H4J 1_555 1_555
C4J C3J 1_555 1_555
C5J C5 1_555 1_555
H5J C5J 1_555 1_555
C6J C1J 1_555 1_555
C8J C2J 1_555 1_555
H6J C8J 1_555 1_555
C9J C13J 1_555 1_555
C10J N2A 1_555 1_555
C11J C10J 1_555 1_555
H7J C11J 1_555 1_555
C12J C2J 1_555 1_555
H8J C12J 1_555 1_555
C13J C3J 1_555 1_555
O1K C7K 1_555 1_555
O2K C9K 1_555 1_555
O3K C9K 1_555 1_555
O4K C7K 1_555 1_555
N1A Zn1 1_555 1_555
C1K N1A 1_555 1_555
C2K C7K 1_555 1_555
C3K H4K 1_555 1_555
C4K C3K 1_555 1_555
C5K C1K 1_555 1_555
H5K C5K 1_555 1_555
C6K C1K 1_555 1_555
C8K C2K 1_555 1_555
H6K C8K 1_555 1_555
C9K C13K 1_555 1_555
C10K N2 1_555 1_555
C11K C11 1_555 1_555
H7K C11K 1_555 1_555
C12K C2K 1_555 1_555
H8K C12K 1_555 1_555
C13K C3K 1_555 1_555
O1A C7A 1_555 1_555
O2A C9A 1_555 1_555
O3A C9A 1_555 1_555
O4A C7A 1_555 1_555
C1A N1A 1_555 1_555
C2A C7A 1_555 1_555
C3A H4A 1_555 1_555
C4A C3A 1_555 1_555
C5A C5K 1_555 1_555
H5A C5A 1_555 1_555
C6A C1A 1_555 1_555
C8A C2A 1_555 1_555
H6A C8A 1_555 1_555
C9A C13A 1_555 1_555
C10A N2A 1_555 1_555
C11A C11J 1_555 1_555
H7A C11A 1_555 1_555
C12A C2A 1_555 1_555
H8A C12A 1_555 1_555
C13A C3A 1_555 1_555
H3A O6 1_555 1_555
Na1J O2J 1_555 1_555
Gd1H O2K 1_555 1_555
O5K Gd1H 1_555 1_555
H1K O5K 1_555 1_555
H2K O5K 1_555 1_555
O5C Gd1 1_555 1_555
H1C O5C 1_555 1_555
H2C O5C 1_555 1_555
O5H Gd1H 1_555 1_555
H1H O5H 1_555 1_555
H2H O5H 1_555 1_555
Gd1A O2A 1_555 1_555
Gd1D O1A 1_555 1_555
Gd1E O1 1_555 1_555
Gd1I O2J 1_555 1_555
Gd1L O1J 1_555 1_555
Gd1M O1K 1_555 1_555
Na1A O2A 1_555 1_555
Na1B O1A 1_555 1_555
Na1C O1 1_555 1_555
Na1H O1K 1_555 1_555
Na1I O1J 1_555 1_555
Na1K O2K 1_555 1_555
O1C Na1 1_555 1_555
O1E Gd1 1_555 1_555
O1F Gd1 1_555 1_555
O1I Na1J 1_555 1_555
O1M Gd1H 1_555 1_555
O1N Gd1H 1_555 1_555
O1O Na1J 1_555 1_555
O2C Gd1 1_555 1_555
O2F Na1 1_555 1_555
O2H Gd1H 1_555 1_555
O2L Na1J 1_555 1_555
O3F Na1 1_555 1_555
O3L Na1J 1_555 1_555
O4E Gd1 1_555 1_555
O4F Gd1 1_555 1_555
O4M Gd1H 1_555 1_555
O4N Gd1H 1_555 1_555
Na1 O1E 1_555 1_555
O4 Gd1E 1_555 1_555
C4 C6 1_555 1_555
C4 C8 1_555 1_555
C6 C10 1_555 1_555
C9 C13 1_555 1_555
C12 C13 1_555 1_555
O3J Na1J 1_555 1_555
O4J Gd1L 1_555 1_555
C1J C5J 1_555 1_555
C4J C6J 1_555 1_555
C4J C8J 1_555 1_555
C6J C10J 1_555 1_555
C12J C13J 1_555 1_555
O3K Na1K 1_555 1_555
O4K Gd1M 1_555 1_555
C4K C6K 1_555 1_555
C4K C8K 1_555 1_555
C6K C10K 1_555 1_555
C10K C11K 1_555 1_555
C12K C13K 1_555 1_555
O3A Na1A 1_555 1_555
O4A Gd1D 1_555 1_555
C1A C5A 1_555 1_555
C4A C6A 1_555 1_555
C4A C8A 1_555 1_555
C6A C10A 1_555 1_555
C10A C11A 1_555 1_555
C12A C13A 1_555 1_555
Gd1I O1O 1_555 1_555
Na1C O1F 1_555 1_555
Na1C O2C 1_555 1_555
Na1H O1M 1_555 1_555
Na1H O2H 1_555 1_555
Na1K O1N 1_555 1_555

#END
