
#######################################################################
#
#                 Cambridge Crystallographic Data Centre
#                                CCDC 
#
#######################################################################
#
# If this CIF has been generated from an entry in the Cambridge 
# Structural Database, then it will include bibliographic, chemical, 
# crystal, experimental, refinement or atomic coordinate data resulting 
# from the CCDC's data processing and validation procedures.
#
#######################################################################

data_HABDAS
_chemical_formula_moiety         '(C52 H30 Eu2 N4 Na2 O21 Zn1)n'
_symmetry_cell_setting           orthorhombic
_symmetry_space_group_name_H-M   'I m m a'
_symmetry_Int_Tables_number      74
_space_group_name_Hall           '-I 2b 2'
loop_
_symmetry_equiv_pos_site_id
_symmetry_equiv_pos_as_xyz
1 x,y,z
2 -x,1/2-y,z
3 -x,1/2+y,-z
4 x,-y,-z
5 1/2+x,1/2+y,1/2+z
6 1/2-x,-y,1/2+z
7 1/2-x,y,1/2-z
8 1/2+x,1/2-y,1/2-z
9 -x,-y,-z
10 x,1/2+y,-z
11 x,1/2-y,z
12 -x,y,z
13 1/2-x,1/2-y,1/2-z
14 1/2+x,y,1/2-z
15 1/2+x,-y,1/2+z
16 1/2-x,1/2+y,1/2+z
_cell_length_a                   27.4347(11)
_cell_length_b                   28.9058(12)
_cell_length_c                   13.1157(7)
_cell_angle_alpha                90
_cell_angle_beta                 90
_cell_angle_gamma                90
_cell_volume                     10401
loop_
_atom_site_label
_atom_site_type_symbol
_atom_site_fract_x
_atom_site_fract_y
_atom_site_fract_z
_atom_site_U_iso_or_equiv
_atom_site_thermal_displace_type
Eu1 Eu 0.82764(2) 0.5000 0.5000 0.0604 Uani
Zn1 Zn 0.5000 0.2500 0.3893(6) 0.0460 Uani
Na1 Na 0.7500 0.4586(2) 0.7500 0.0970 Uani
O1 O 0.6941(2) 0.4891(2) 0.1842(5) 0.0503 Uani
O2 O 0.7646(4) 0.4495(4) 0.5253(8) 0.1200 Uiso
O3 O 0.6444(3) 0.4398(3) 0.1197(7) 0.0880 Uiso
O4 O 0.7188(3) 0.4149(3) 0.6319(7) 0.1010 Uiso
O5 O 0.8843(5) 0.4532(5) 0.5900(11) 0.0680 Uiso
H1 H 0.8837 0.4523 0.6624 0.0820 Uiso
H2 H 0.9076 0.4354 0.5536 0.0820 Uiso
O6 O 0.5000 0.2500 0.211(3) 0.1020 Uiso
H3 H 0.5000 0.2775 0.1758 0.1220 Uiso
N1 N 0.5000 0.3197(3) 0.4107(9) 0.0473 Uani
N2 N 0.5746(3) 0.2500 0.4173(8) 0.0370 Uani
C1 C 0.5887(3) 0.3334(3) 0.4078(7) 0.0447 Uani
C2 C 0.6586(3) 0.3817(3) 0.4750(5) 0.0407 Uani
H4 H 0.6558 0.3662 0.5385 0.0490 Uiso
C3 C 0.6299(3) 0.3931(3) 0.3063(8) 0.0427 Uani
H5 H 0.6077 0.3859 0.2531 0.0510 Uiso
C4 C 0.6660(3) 0.4280(3) 0.2907(6) 0.0380 Uani
C5 C 0.6271(3) 0.3701(3) 0.3954(8) 0.0443 Uani
C6 C 0.6046(3) 0.2887(3) 0.4115(7) 0.0410 Uani
C7 C 0.6977(3) 0.4394(3) 0.3708(7) 0.0453 Uani
H6 H 0.7214 0.4630 0.3625 0.0540 Uiso
C8 C 0.6555(3) 0.2741(3) 0.4069(7) 0.0500 Uani
H7 H 0.6832 0.2937 0.4043 0.0600 Uiso
C9 C 0.5407(3) 0.3481(3) 0.4097(9) 0.0530 Uani
C10 C 0.6938(4) 0.4156(3) 0.4627(7) 0.0443 Uani
C11 C 0.5245(3) 0.3955(3) 0.4099(10) 0.0763 Uani
H8 H 0.5448 0.4221 0.4100 0.0920 Uiso
C12 C 0.6691(3) 0.4543(3) 0.1944(7) 0.0500 Uani
C13 C 0.7287(6) 0.4282(5) 0.5436(8) 0.0970 Uani
O1J O 0.6941(2) 0.0109(2) 0.1842(5) 0.0503 Uani
O2J O 0.7646(4) 0.0505(4) 0.5253(8) 0.1200 Uiso
O3J O 0.6444(3) 0.0602(3) 0.1197(7) 0.0880 Uiso
O4J O 0.7188(3) 0.0851(3) 0.6319(7) 0.1010 Uiso
N1A N 0.5000 0.1803(3) 0.4107(9) 0.0473 Uani
C1J C 0.5887(3) 0.1666(3) 0.4078(7) 0.0447 Uani
C2J C 0.6586(3) 0.1183(3) 0.4750(5) 0.0407 Uani
H4J H 0.6558 0.1338 0.5385 0.0490 Uiso
C3J C 0.6299(3) 0.1069(3) 0.3063(8) 0.0427 Uani
H5J H 0.6077 0.1141 0.2531 0.0510 Uiso
C4J C 0.6660(3) 0.0720(3) 0.2907(6) 0.0380 Uani
C5J C 0.6271(3) 0.1299(3) 0.3954(8) 0.0443 Uani
C6J C 0.6046(3) 0.2113(3) 0.4115(7) 0.0410 Uani
C7J C 0.6977(3) 0.0606(3) 0.3708(7) 0.0453 Uani
H6J H 0.7214 0.0370 0.3625 0.0540 Uiso
C8J C 0.6555(3) 0.2259(3) 0.4069(7) 0.0500 Uani
H7J H 0.6832 0.2063 0.4043 0.0600 Uiso
C9J C 0.5407(3) 0.1519(3) 0.4097(9) 0.0530 Uani
C10J C 0.6938(4) 0.0844(3) 0.4627(7) 0.0443 Uani
C11J C 0.5245(3) 0.1045(3) 0.4099(10) 0.0763 Uani
H8J H 0.5448 0.0779 0.4100 0.0920 Uiso
C12J C 0.6691(3) 0.0457(3) 0.1944(7) 0.0500 Uani
C13J C 0.7287(6) 0.0718(5) 0.5436(8) 0.0970 Uani
O1K O 0.3059(2) 0.4891(2) 0.1842(5) 0.0503 Uani
O2K O 0.2354(4) 0.4495(4) 0.5253(8) 0.1200 Uiso
O3K O 0.3556(3) 0.4398(3) 0.1197(7) 0.0880 Uiso
O4K O 0.2812(3) 0.4149(3) 0.6319(7) 0.1010 Uiso
N2A N 0.4254(3) 0.2500 0.4173(8) 0.0370 Uani
C1K C 0.4113(3) 0.3334(3) 0.4078(7) 0.0447 Uani
C2K C 0.3414(3) 0.3817(3) 0.4750(5) 0.0407 Uani
H4K H 0.3442 0.3662 0.5385 0.0490 Uiso
C3K C 0.3701(3) 0.3931(3) 0.3063(8) 0.0427 Uani
H5K H 0.3923 0.3859 0.2531 0.0510 Uiso
C4K C 0.3340(3) 0.4280(3) 0.2907(6) 0.0380 Uani
C5K C 0.3729(3) 0.3701(3) 0.3954(8) 0.0443 Uani
C6K C 0.3954(3) 0.2887(3) 0.4115(7) 0.0410 Uani
C7K C 0.3023(3) 0.4394(3) 0.3708(7) 0.0453 Uani
H6K H 0.2786 0.4630 0.3625 0.0540 Uiso
C8K C 0.3445(3) 0.2741(3) 0.4069(7) 0.0500 Uani
H7K H 0.3168 0.2937 0.4043 0.0600 Uiso
C9K C 0.4593(3) 0.3481(3) 0.4097(9) 0.0530 Uani
C10K C 0.3062(4) 0.4156(3) 0.4627(7) 0.0443 Uani
C11K C 0.4755(3) 0.3955(3) 0.4099(10) 0.0763 Uani
H8K H 0.4552 0.4221 0.4100 0.0920 Uiso
C12K C 0.3309(3) 0.4543(3) 0.1944(7) 0.0500 Uani
C13K C 0.2713(6) 0.4282(5) 0.5436(8) 0.0970 Uani
O1A O 0.3059(2) 0.0109(2) 0.1842(5) 0.0503 Uani
O2A O 0.2354(4) 0.0505(4) 0.5253(8) 0.1200 Uiso
O3A O 0.3556(3) 0.0602(3) 0.1197(7) 0.0880 Uiso
O4A O 0.2812(3) 0.0851(3) 0.6319(7) 0.1010 Uiso
C1A C 0.4113(3) 0.1666(3) 0.4078(7) 0.0447 Uani
C2A C 0.3414(3) 0.1183(3) 0.4750(5) 0.0407 Uani
H4A H 0.3442 0.1338 0.5385 0.0490 Uiso
C3A C 0.3701(3) 0.1069(3) 0.3063(8) 0.0427 Uani
H5A H 0.3923 0.1141 0.2531 0.0510 Uiso
C4A C 0.3340(3) 0.0720(3) 0.2907(6) 0.0380 Uani
C5A C 0.3729(3) 0.1299(3) 0.3954(8) 0.0443 Uani
C6A C 0.3954(3) 0.2113(3) 0.4115(7) 0.0410 Uani
C7A C 0.3023(3) 0.0606(3) 0.3708(7) 0.0453 Uani
H6A H 0.2786 0.0370 0.3625 0.0540 Uiso
C8A C 0.3445(3) 0.2259(3) 0.4069(7) 0.0500 Uani
H7A H 0.3168 0.2063 0.4043 0.0600 Uiso
C9A C 0.4593(3) 0.1519(3) 0.4097(9) 0.0530 Uani
C10A C 0.3062(4) 0.0844(3) 0.4627(7) 0.0443 Uani
C11A C 0.4755(3) 0.1045(3) 0.4099(10) 0.0763 Uani
H8A H 0.4552 0.0779 0.4100 0.0920 Uiso
C12A C 0.3309(3) 0.0457(3) 0.1944(7) 0.0500 Uani
C13A C 0.2713(6) 0.0718(5) 0.5436(8) 0.0970 Uani
H3A H 0.5000 0.2225 0.1758 0.1220 Uiso
Na1J Na 0.7500 0.0414(2) 0.7500 0.0970 Uani
Eu1H Eu 0.17236(2) 0.5000 0.5000 0.0604 Uani
O5K O 0.1157(5) 0.4532(5) 0.5900(11) 0.0680 Uiso
H1K H 0.1163 0.4523 0.6624 0.0820 Uiso
H2K H 0.0924 0.4354 0.5536 0.0820 Uiso
O5C O 0.8843(5) 0.5468(5) 0.4100(11) 0.0680 Uiso
H1C H 0.8837 0.5477 0.3376 0.0820 Uiso
H2C H 0.9076 0.5646 0.4464 0.0820 Uiso
O5H O 0.1157(5) 0.5468(5) 0.4100(11) 0.0680 Uiso
H1H H 0.1163 0.5477 0.3376 0.0820 Uiso
H2H H 0.0924 0.5646 0.4464 0.0820 Uiso
Eu1A Eu 0.17236(2) -0.0000 0.5000 0.0604 Uani
Eu1D Eu 0.32764(2) 0.0000 0.0000 0.0604 Uani
Eu1E Eu 0.67236(2) 0.5000 0.0000 0.0604 Uani
Eu1I Eu 0.82764(2) -0.0000 0.5000 0.0604 Uani
Eu1L Eu 0.67236(2) 0.0000 0.0000 0.0604 Uani
Eu1M Eu 0.32764(2) 0.5000 0.0000 0.0604 Uani
Na1A Na 0.2500 0.0414(2) 0.7500 0.0970 Uani
Na1B Na 0.2500 -0.0414(2) 0.2500 0.0970 Uani
Na1C Na 0.7500 0.5414(2) 0.2500 0.0970 Uani
Na1H Na 0.2500 0.5414(2) 0.2500 0.0970 Uani
Na1I Na 0.7500 -0.0414(2) 0.2500 0.0970 Uani
Na1K Na 0.2500 0.4586(2) 0.7500 0.0970 Uani
O1C O 0.6941(2) 0.5109(2) 0.8158(5) 0.0503 Uani
O1E O 0.8059(2) 0.5109(2) 0.6842(5) 0.0503 Uani
O1F O 0.8059(2) 0.4891(2) 0.3158(5) 0.0503 Uani
O1I O 0.6941(2) -0.0109(2) 0.8158(5) 0.0503 Uani
O1M O 0.1941(2) 0.4891(2) 0.3158(5) 0.0503 Uani
O1N O 0.1941(2) 0.5109(2) 0.6842(5) 0.0503 Uani
O1O O 0.8059(2) -0.0109(2) 0.6842(5) 0.0503 Uani
O2C O 0.7646(4) 0.5505(4) 0.4747(8) 0.1200 Uiso
O2F O 0.7354(4) 0.4495(4) 0.9747(8) 0.1200 Uiso
O2H O 0.2354(4) 0.5505(4) 0.4747(8) 0.1200 Uiso
O2L O 0.7354(4) 0.0505(4) 0.9747(8) 0.1200 Uiso
O3E O 0.8556(3) 0.5602(3) 0.6197(7) 0.0880 Uiso
O3F O 0.8556(3) 0.4398(3) 0.3803(7) 0.0880 Uiso
O3M O 0.1444(3) 0.4398(3) 0.3803(7) 0.0880 Uiso
O3N O 0.1444(3) 0.5602(3) 0.6197(7) 0.0880 Uiso
O4F O 0.7812(3) 0.4149(3) 0.8681(7) 0.1010 Uiso
O4L O 0.7812(3) 0.0851(3) 0.8681(7) 0.1010 Uiso
loop_
_atom_site_aniso_label
_atom_site_aniso_U_11
_atom_site_aniso_U_22
_atom_site_aniso_U_33
_atom_site_aniso_U_23
_atom_site_aniso_U_13
_atom_site_aniso_U_12
Eu1 0.0343(5) 0.0544(6) 0.0924(8) -0.0364(4) 0.000 0.000
Zn1 0.023(3) 0.023(2) 0.092(6) 0.000 0.000 0.000
Na1 0.106(6) 0.072(4) 0.113(6) 0.000 -0.030(5) 0.000
O1 0.031(3) 0.052(4) 0.068(5) 0.012(3) -0.004(3) -0.013(3)
N1 0.028(5) 0.026(5) 0.088(9) 0.006(5) 0.000 0.000
N2 0.026(5) 0.024(5) 0.061(7) 0.000 -0.001(5) 0.000
C1 0.031(5) 0.037(5) 0.066(7) 0.011(4) -0.003(5) 0.000(4)
C2 0.050(5) 0.040(5) 0.032(4) 0.003(3) 0.008(3) -0.001(4)
C3 0.023(4) 0.030(5) 0.075(7) 0.007(5) -0.016(4) -0.005(3)
C4 0.029(5) 0.057(6) 0.028(5) 0.003(4) -0.014(4) -0.006(4)
C5 0.037(5) 0.031(5) 0.065(7) 0.009(5) 0.005(5) -0.002(4)
C6 0.024(4) 0.040(5) 0.059(6) 0.000(4) 0.011(4) -0.005(4)
C7 0.049(6) 0.037(5) 0.050(6) -0.006(4) 0.011(5) -0.016(4)
C8 0.032(5) 0.040(5) 0.078(7) 0.003(5) 0.005(5) 0.000(4)
C9 0.029(5) 0.018(4) 0.112(9) 0.003(5) 0.006(5) -0.005(4)
C10 0.057(6) 0.050(6) 0.026(5) -0.008(4) 0.001(5) -0.019(5)
C11 0.033(5) 0.020(5) 0.176(13) 0.026(6) -0.017(6) -0.002(4)
C12 0.050(6) 0.058(6) 0.042(6) 0.007(5) -0.034(5) -0.010(5)
C13 0.174(14) 0.098(10) 0.019(5) 0.015(6) -0.008(7) -0.096(10)
O1J 0.031 0.052 0.068 -0.012 -0.004 0.013
N1A 0.028 0.026 0.088 -0.006 0 0
C1J 0.031 0.037 0.066 -0.011 -0.003 0
C2J 0.05 0.04 0.032 -0.003 0.008 0.001
C3J 0.023 0.03 0.075 -0.007 -0.016 0.005
C4J 0.029 0.057 0.028 -0.003 -0.014 0.006
C5J 0.037 0.031 0.065 -0.009 0.005 0.002
C6J 0.024 0.04 0.059 0 0.011 0.005
C7J 0.049 0.037 0.05 0.006 0.011 0.016
C8J 0.032 0.04 0.078 -0.003 0.005 0
C9J 0.029 0.018 0.112 -0.003 0.006 0.005
C10J 0.057 0.05 0.026 0.008 0.001 0.019
C11J 0.033 0.02 0.176 -0.026 -0.017 0.002
C12J 0.05 0.058 0.042 -0.007 -0.034 0.01
C13J 0.174 0.098 0.019 -0.015 -0.008 0.096
O1K 0.031 0.052 0.068 0.012 0.004 0.013
N2A 0.026 0.024 0.061 0 0.001 0
C1K 0.031 0.037 0.066 0.011 0.003 0
C2K 0.05 0.04 0.032 0.003 -0.008 0.001
C3K 0.023 0.03 0.075 0.007 0.016 0.005
C4K 0.029 0.057 0.028 0.003 0.014 0.006
C5K 0.037 0.031 0.065 0.009 -0.005 0.002
C6K 0.024 0.04 0.059 0 -0.011 0.005
C7K 0.049 0.037 0.05 -0.006 -0.011 0.016
C8K 0.032 0.04 0.078 0.003 -0.005 0
C9K 0.029 0.018 0.112 0.003 -0.006 0.005
C10K 0.057 0.05 0.026 -0.008 -0.001 0.019
C11K 0.033 0.02 0.176 0.026 0.017 0.002
C12K 0.05 0.058 0.042 0.007 0.034 0.01
C13K 0.174 0.098 0.019 0.015 0.008 0.096
O1A 0.031 0.052 0.068 -0.012 0.004 -0.013
C1A 0.031 0.037 0.066 -0.011 0.003 0
C2A 0.05 0.04 0.032 -0.003 -0.008 -0.001
C3A 0.023 0.03 0.075 -0.007 0.016 -0.005
C4A 0.029 0.057 0.028 -0.003 0.014 -0.006
C5A 0.037 0.031 0.065 -0.009 -0.005 -0.002
C6A 0.024 0.04 0.059 0 -0.011 -0.005
C7A 0.049 0.037 0.05 0.006 -0.011 -0.016
C8A 0.032 0.04 0.078 -0.003 -0.005 0
C9A 0.029 0.018 0.112 -0.003 -0.006 -0.005
C10A 0.057 0.05 0.026 0.008 -0.001 -0.019
C11A 0.033 0.02 0.176 -0.026 0.017 -0.002
C12A 0.05 0.058 0.042 -0.007 0.034 -0.01
C13A 0.174 0.098 0.019 -0.015 0.008 -0.096
Na1J 0.106 0.072 0.113 0 -0.03 0
Eu1H 0.0343 0.0544 0.0924 -0.0364 0 0
Eu1A 0.0343 0.0544 0.0924 0.0364 0 0
Eu1D 0.0343 0.0544 0.0924 -0.0364 0 0
Eu1E 0.0343 0.0544 0.0924 0.0364 0 0
Eu1I 0.0343 0.0544 0.0924 0.0364 0 0
Eu1L 0.0343 0.0544 0.0924 -0.0364 0 0
Eu1M 0.0343 0.0544 0.0924 0.0364 0 0
Na1A 0.106 0.072 0.113 0 0.03 0
Na1B 0.106 0.072 0.113 0 -0.03 0
Na1C 0.106 0.072 0.113 0 0.03 0
Na1H 0.106 0.072 0.113 0 -0.03 0
Na1I 0.106 0.072 0.113 0 0.03 0
Na1K 0.106 0.072 0.113 0 0.03 0
O1C 0.031 0.052 0.068 0.012 0.004 0.013
O1E 0.031 0.052 0.068 -0.012 0.004 -0.013
O1F 0.031 0.052 0.068 -0.012 -0.004 0.013
O1I 0.031 0.052 0.068 -0.012 0.004 -0.013
O1M 0.031 0.052 0.068 -0.012 0.004 -0.013
O1N 0.031 0.052 0.068 -0.012 -0.004 0.013
O1O 0.031 0.052 0.068 0.012 0.004 0.013
loop_
_geom_bond_atom_site_label_1
_geom_bond_atom_site_label_2
_geom_bond_site_symmetry_1
_geom_bond_site_symmetry_2
Eu1 O2 1_555 1_555
Zn1 O6 1_555 1_555
Na1 O2 1_555 1_555
O1 C12 1_555 1_555
O2 C13 1_555 1_555
O3 C12 1_555 1_555
O4 Na1 1_555 1_555
O5 Eu1 1_555 1_555
H1 O5 1_555 1_555
H2 O5 1_555 1_555
O6 H3 1_555 1_555
N1 Zn1 1_555 1_555
N2 Zn1 1_555 1_555
C1 C5 1_555 1_555
C2 H4 1_555 1_555
C3 H5 1_555 1_555
C4 C3 1_555 1_555
C5 C2 1_555 1_555
C6 N2 1_555 1_555
C7 C4 1_555 1_555
H6 C7 1_555 1_555
C8 C6 1_555 1_555
H7 C8 1_555 1_555
C9 N1 1_555 1_555
C10 C2 1_555 1_555
C11 C9 1_555 1_555
H8 C11 1_555 1_555
C12 C4 1_555 1_555
C13 O4 1_555 1_555
O1J C12J 1_555 1_555
O2J C13J 1_555 1_555
O3J C12J 1_555 1_555
O4J C13J 1_555 1_555
N1A Zn1 1_555 1_555
C1J C5J 1_555 1_555
C2J H4J 1_555 1_555
C3J H5J 1_555 1_555
C4J C3J 1_555 1_555
C5J C2J 1_555 1_555
C6J N2 1_555 1_555
C7J C4J 1_555 1_555
H6J C7J 1_555 1_555
C8J C8 1_555 1_555
H7J C8J 1_555 1_555
C9J N1A 1_555 1_555
C10J C2J 1_555 1_555
C11J C9J 1_555 1_555
H8J C11J 1_555 1_555
C12J C4J 1_555 1_555
C13J C10J 1_555 1_555
O1K C12K 1_555 1_555
O2K C13K 1_555 1_555
O3K C12K 1_555 1_555
O4K C13K 1_555 1_555
N2A Zn1 1_555 1_555
C1K C5K 1_555 1_555
C2K H4K 1_555 1_555
C3K H5K 1_555 1_555
C4K C3K 1_555 1_555
C5K C2K 1_555 1_555
C6K N2A 1_555 1_555
C7K C4K 1_555 1_555
H6K C7K 1_555 1_555
C8K C6K 1_555 1_555
H7K C8K 1_555 1_555
C9K N1 1_555 1_555
C10K C2K 1_555 1_555
C11K C11 1_555 1_555
H8K C11K 1_555 1_555
C12K C4K 1_555 1_555
C13K C10K 1_555 1_555
O1A C12A 1_555 1_555
O2A C13A 1_555 1_555
O3A C12A 1_555 1_555
O4A C13A 1_555 1_555
C1A C5A 1_555 1_555
C2A H4A 1_555 1_555
C3A H5A 1_555 1_555
C4A C3A 1_555 1_555
C5A C2A 1_555 1_555
C6A N2A 1_555 1_555
C7A C4A 1_555 1_555
H6A C7A 1_555 1_555
C8A C8K 1_555 1_555
H7A C8A 1_555 1_555
C9A N1A 1_555 1_555
C10A C2A 1_555 1_555
C11A C11J 1_555 1_555
H8A C11A 1_555 1_555
C12A C4A 1_555 1_555
C13A C10A 1_555 1_555
H3A O6 1_555 1_555
Na1J O2J 1_555 1_555
Eu1H O2K 1_555 1_555
O5K Eu1H 1_555 1_555
H1K O5K 1_555 1_555
H2K O5K 1_555 1_555
O5C Eu1 1_555 1_555
H1C O5C 1_555 1_555
H2C O5C 1_555 1_555
O5H Eu1H 1_555 1_555
H1H O5H 1_555 1_555
H2H O5H 1_555 1_555
Eu1A O2A 1_555 1_555
Eu1D O1A 1_555 1_555
Eu1E O1 1_555 1_555
Eu1I O2J 1_555 1_555
Eu1L O1J 1_555 1_555
Eu1M O1K 1_555 1_555
Na1A O2A 1_555 1_555
Na1B O1A 1_555 1_555
Na1C O1 1_555 1_555
Na1H O1K 1_555 1_555
Na1I O1J 1_555 1_555
Na1K O2K 1_555 1_555
O1C Na1 1_555 1_555
O1E Eu1 1_555 1_555
O1F Eu1 1_555 1_555
O1I Na1J 1_555 1_555
O1M Eu1H 1_555 1_555
O1N Eu1H 1_555 1_555
O1O Na1J 1_555 1_555
O2C Eu1 1_555 1_555
O2F Na1 1_555 1_555
O2H Eu1H 1_555 1_555
O2L Na1J 1_555 1_555
O3E Eu1 1_555 1_555
O3F Eu1 1_555 1_555
O3M Eu1H 1_555 1_555
O3N Eu1H 1_555 1_555
O4F Na1 1_555 1_555
O4L Na1J 1_555 1_555
Na1 O1E 1_555 1_555
O3 Eu1E 1_555 1_555
C1 C6 1_555 1_555
C1 C9 1_555 1_555
C3 C5 1_555 1_555
C7 C10 1_555 1_555
C10 C13 1_555 1_555
O3J Eu1L 1_555 1_555
O4J Na1J 1_555 1_555
C1J C6J 1_555 1_555
C1J C9J 1_555 1_555
C3J C5J 1_555 1_555
C6J C8J 1_555 1_555
C7J C10J 1_555 1_555
O3K Eu1M 1_555 1_555
O4K Na1K 1_555 1_555
C1K C6K 1_555 1_555
C1K C9K 1_555 1_555
C3K C5K 1_555 1_555
C7K C10K 1_555 1_555
C9K C11K 1_555 1_555
O3A Eu1D 1_555 1_555
O4A Na1A 1_555 1_555
C1A C6A 1_555 1_555
C1A C9A 1_555 1_555
C3A C5A 1_555 1_555
C6A C8A 1_555 1_555
C7A C10A 1_555 1_555
C9A C11A 1_555 1_555
Eu1I O1O 1_555 1_555
Na1C O1F 1_555 1_555
Na1C O2C 1_555 1_555
Na1H O1M 1_555 1_555
Na1H O2H 1_555 1_555
Na1K O1N 1_555 1_555

#END
