
#######################################################################
#
#                 Cambridge Crystallographic Data Centre
#                                CCDC 
#
#######################################################################
#
# If this CIF has been generated from an entry in the Cambridge 
# Structural Database, then it will include bibliographic, chemical, 
# crystal, experimental, refinement or atomic coordinate data resulting 
# from the CCDC's data processing and validation procedures.
#
#######################################################################

data_TIGDOD
_chemical_formula_moiety         '(C16 H12 N2 O4 Zn1)n'
_symmetry_cell_setting           monoclinic
_symmetry_space_group_name_H-M   'C 2/c'
_symmetry_Int_Tables_number      15
_space_group_name_Hall           '-C 2yc'
loop_
_symmetry_equiv_pos_site_id
_symmetry_equiv_pos_as_xyz
1 x,y,z
2 1/2+x,1/2+y,z
3 -x,y,1/2-z
4 1/2-x,1/2+y,1/2-z
5 -x,-y,-z
6 1/2-x,1/2-y,-z
7 x,-y,1/2+z
8 1/2+x,1/2-y,1/2+z
_cell_length_a                   8.8488(8)
_cell_length_b                   21.5285(19)
_cell_length_c                   13.5042(11)
_cell_angle_alpha                90
_cell_angle_beta                 97.144(4)
_cell_angle_gamma                90
_cell_volume                     2552.6
loop_
_atom_site_label
_atom_site_type_symbol
_atom_site_fract_x
_atom_site_fract_y
_atom_site_fract_z
_atom_site_U_iso_or_equiv
_atom_site_thermal_displace_type
Zn1 Zn 0.0000 0.147618(6) 0.2500 0.0180 Uani
O1 O -0.10470(8) 0.20659(3) 0.15521(5) 0.0276 Uani
O2 O -0.21011(10) 0.12225(4) 0.07903(6) 0.0367 Uani
N1 N 0.14390(8) 0.09472(4) 0.18136(6) 0.0220 Uani
C1 C 0.28693(11) 0.11406(5) 0.17539(8) 0.0277 Uani
H1 H 0.3217 0.1509 0.2096 0.0330 Uiso
C2 C 0.38538(11) 0.08249(5) 0.12157(8) 0.0313 Uani
H2 H 0.4852 0.0980 0.1184 0.0380 Uiso
C3 C 0.33737(10) 0.02748(5) 0.07150(7) 0.0254 Uani
C4 C 0.19073(11) 0.00652(5) 0.08083(8) 0.0301 Uani
H3 H 0.1550 -0.0314 0.0504 0.0360 Uiso
C5 C 0.09708(11) 0.04145(5) 0.13489(8) 0.0280 Uani
H4 H -0.0035 0.0272 0.1392 0.0340 Uiso
C6 C 0.43108(11) -0.00836(5) 0.00942(8) 0.0300 Uani
H5 H 0.3902 -0.0460 -0.0191 0.0360 Uiso
C7 C -0.18907(11) 0.17920(4) 0.08416(7) 0.0239 Uani
C8 C -0.26287(11) 0.22001(5) 0.00310(7) 0.0272 Uani
H6 H -0.3330 0.2015 -0.0474 0.0330 Uiso
Zn1G Zn -0.5000 0.352382(6) -0.2500 0.0180 Uani
Zn1F Zn 1.0000 -0.147618(6) -0.2500 0.0180 Uani
O1E O -0.39530(8) 0.29341(3) -0.15521(5) 0.0276 Uani
O1B O 0.10470(8) 0.20659(3) 0.34479(5) 0.0276 Uani
O2E O -0.28989(10) 0.37775(4) -0.07903(6) 0.0367 Uani
N1D N 0.85610(8) -0.09472(4) -0.18136(6) 0.0220 Uani
N1B N -0.14390(8) 0.09472(4) 0.31864(6) 0.0220 Uani
C1D C 0.71307(11) -0.11406(5) -0.17539(8) 0.0277 Uani
H1D H 0.6783 -0.1509 -0.2096 0.0330 Uiso
C2D C 0.61462(11) -0.08249(5) -0.12157(8) 0.0313 Uani
H2D H 0.5148 -0.0980 -0.1184 0.0380 Uiso
C3D C 0.66263(10) -0.02748(5) -0.07150(7) 0.0254 Uani
C4D C 0.80927(11) -0.00652(5) -0.08083(8) 0.0301 Uani
H3D H 0.8450 0.0314 -0.0504 0.0360 Uiso
C5D C 0.90292(11) -0.04145(5) -0.13489(8) 0.0280 Uani
H4D H 1.0035 -0.0272 -0.1392 0.0340 Uiso
C6D C 0.56892(11) 0.00836(5) -0.00942(8) 0.0300 Uani
H5D H 0.6098 0.0460 0.0191 0.0360 Uiso
C7E C -0.31093(11) 0.32080(4) -0.08416(7) 0.0239 Uani
C8E C -0.23713(11) 0.27999(5) -0.00310(7) 0.0272 Uani
H6E H -0.1670 0.2985 0.0474 0.0330 Uiso
loop_
_atom_site_aniso_label
_atom_site_aniso_U_11
_atom_site_aniso_U_22
_atom_site_aniso_U_33
_atom_site_aniso_U_23
_atom_site_aniso_U_13
_atom_site_aniso_U_12
Zn1 0.01940(7) 0.01775(7) 0.01692(7) 0.000 0.00252(5) 0.000
O1 0.0334(3) 0.0235(3) 0.0233(3) 0.0022(2) -0.0070(3) 0.0000(3)
O2 0.0468(5) 0.0218(4) 0.0378(4) 0.0017(3) -0.0099(3) -0.0040(3)
N1 0.0205(3) 0.0232(4) 0.0229(3) -0.0043(3) 0.0045(3) -0.0019(3)
C1 0.0230(4) 0.0275(5) 0.0334(5) -0.0111(4) 0.0071(3) -0.0056(3)
C2 0.0229(4) 0.0340(5) 0.0383(5) -0.0129(4) 0.0094(4) -0.0071(4)
C3 0.0214(4) 0.0253(4) 0.0304(4) -0.0071(3) 0.0064(3) -0.0030(3)
C4 0.0263(4) 0.0266(5) 0.0391(5) -0.0122(4) 0.0112(4) -0.0059(4)
C5 0.0225(4) 0.0271(5) 0.0357(5) -0.0085(4) 0.0089(4) -0.0049(3)
C6 0.0255(4) 0.0291(5) 0.0365(5) -0.0130(4) 0.0079(4) -0.0036(4)
C7 0.0260(4) 0.0232(4) 0.0215(4) 0.0022(3) -0.0009(3) 0.0001(3)
C8 0.0302(4) 0.0272(5) 0.0218(4) 0.0002(3) -0.0068(3) -0.0003(4)
Zn1G 0.0194 0.01775 0.01692 0 0.00252 0
Zn1F 0.0194 0.01775 0.01692 0 0.00252 0
O1E 0.0334 0.0235 0.0233 0.0022 -0.007 0
O1B 0.0334 0.0235 0.0233 -0.0022 -0.007 0
O2E 0.0468 0.0218 0.0378 0.0017 -0.0099 -0.004
N1D 0.0205 0.0232 0.0229 -0.0043 0.0045 -0.0019
N1B 0.0205 0.0232 0.0229 0.0043 0.0045 0.0019
C1D 0.023 0.0275 0.0334 -0.0111 0.0071 -0.0056
C2D 0.0229 0.034 0.0383 -0.0129 0.0094 -0.0071
C3D 0.0214 0.0253 0.0304 -0.0071 0.0064 -0.003
C4D 0.0263 0.0266 0.0391 -0.0122 0.0112 -0.0059
C5D 0.0225 0.0271 0.0357 -0.0085 0.0089 -0.0049
C6D 0.0255 0.0291 0.0365 -0.013 0.0079 -0.0036
C7E 0.026 0.0232 0.0215 0.0022 -0.0009 0.0001
C8E 0.0302 0.0272 0.0218 0.0002 -0.0068 -0.0003
loop_
_geom_bond_atom_site_label_1
_geom_bond_atom_site_label_2
_geom_bond_site_symmetry_1
_geom_bond_site_symmetry_2
Zn1 O1 1_555 1_555
O1 C7 1_555 1_555
O2 C7 1_555 1_555
N1 Zn1 1_555 1_555
C1 N1 1_555 1_555
H1 C1 1_555 1_555
C2 C1 1_555 1_555
H2 C2 1_555 1_555
C3 C2 1_555 1_555
C4 C3 1_555 1_555
H3 C4 1_555 1_555
C5 N1 1_555 1_555
H4 C5 1_555 1_555
C6 C3 1_555 1_555
H5 C6 1_555 1_555
C7 C8 1_555 1_555
C8 H6 1_555 1_555
Zn1G O1E 1_555 1_555
Zn1F N1D 1_555 1_555
O1E C7E 1_555 1_555
O1B Zn1 1_555 1_555
O2E C7E 1_555 1_555
N1D C1D 1_555 1_555
N1B Zn1 1_555 1_555
C1D H1D 1_555 1_555
C2D C1D 1_555 1_555
H2D C2D 1_555 1_555
C3D C2D 1_555 1_555
C4D C3D 1_555 1_555
H3D C4D 1_555 1_555
C5D N1D 1_555 1_555
H4D C5D 1_555 1_555
C6D C6 1_555 1_555
H5D C6D 1_555 1_555
C7E C8E 1_555 1_555
C8E C8 1_555 1_555
H6E C8E 1_555 1_555
C4 C5 1_555 1_555
C3D C6D 1_555 1_555
C4D C5D 1_555 1_555

#END
