
#######################################################################
#
#                 Cambridge Crystallographic Data Centre
#                                CCDC 
#
#######################################################################
#
# If this CIF has been generated from an entry in the Cambridge 
# Structural Database, then it will include bibliographic, chemical, 
# crystal, experimental, refinement or atomic coordinate data resulting 
# from the CCDC's data processing and validation procedures.
#
#######################################################################

data_ITIPOS
_chemical_formula_moiety         '(C24 H53 Ca1 Cu6 N6 O34)n'
_symmetry_cell_setting           hexagonal
_symmetry_space_group_name_H-M   'P 63'
_symmetry_Int_Tables_number      173
_space_group_name_Hall           'P 6c'
loop_
_symmetry_equiv_pos_site_id
_symmetry_equiv_pos_as_xyz
1 x,y,z
2 -y,x-y,z
3 -x+y,-x,z
4 -x,-y,1/2+z
5 y,-x+y,1/2+z
6 x-y,x,1/2+z
_cell_length_a                   17.6943(10)
_cell_length_b                   17.6943(10)
_cell_length_c                   13.2921(8)
_cell_angle_alpha                90
_cell_angle_beta                 90
_cell_angle_gamma                120
_cell_volume                     3604.05
loop_
_atom_site_label
_atom_site_type_symbol
_atom_site_fract_x
_atom_site_fract_y
_atom_site_fract_z
Cu1 Cu 0.13309(4) 0.57526(4) 1.68047(4)
Cu2 Cu 0.13363(4) 0.58025(4) 1.43051(4)
Ca1 Ca 0.3333 0.6667 1.5563(2)
N1 N -0.0971(3) 0.5037(4) 1.2932(4)
N2 N 0.0993(3) 0.5059(4) 1.3150(5)
O1 O 0.17244(18) 0.63846(18) 1.5575(4)
H1 H 0.178(5) 0.685(3) 1.559(10)
O2 O -0.0151(3) 0.4336(3) 1.2005(4)
O3 O -0.3005(3) 0.5010(4) 1.2774(4)
O4 O 0.0146(3) 0.5706(3) 1.4117(3)
O5 O 0.2962(3) 0.4988(4) 1.3336(4)
O6 O 0.2367(3) 0.5611(3) 1.4255(4)
O7 O -0.2375(2) 0.4410(3) 1.1855(4)
C1 C 0.0226(4) 0.4824(4) 1.2782(5)
C2 C -0.0238(4) 0.5225(4) 1.3352(5)
C3 C 0.1624(4) 0.4848(4) 1.2729(5)
H2 H 0.1344 0.4203 1.2636
C4 C 0.2377(4) 0.5159(4) 1.3506(5)
C5 C 0.1990(4) 0.5313(4) 1.1711(4)
H3 H 0.1507 0.5159 1.1242
H4 H 0.2385 0.5129 1.1431
H5 H 0.2310 0.5946 1.1816
C6 C -0.2376(4) 0.4884(4) 1.2591(5)
C7 C -0.1130(4) 0.6359(4) 1.3088(5)
H6 H -0.0613 0.6664 1.3518
H7 H -0.1553 0.6540 1.3267
H8 H -0.0958 0.6504 1.2382
C8 C -0.1553(4) 0.5350(4) 1.3243(6)
H9 H -0.1712 0.5202 1.3967
Cu1A Cu 0.42474(4) 0.55783(6) 1.68047(4)
Cu2A Cu 0.41975(4) 0.55338(6) 1.43051(4)
N1A N 0.4963(4) 0.3992(5) 1.2932(4)
N2A N 0.4941(4) 0.5934(5) 1.3150(5)
O1A O 0.36154(18) 0.53398(25) 1.5575(4)
H1A H 0.315(3) 0.493(6) 1.559(10)
O2A O 0.5664(3) 0.5513(4) 1.2005(4)
O3A O 0.4990(4) 0.1985(5) 1.2774(4)
O4A O 0.4294(3) 0.4440(4) 1.4117(3)
O5A O 0.5012(4) 0.7974(5) 1.3336(4)
O6A O 0.4389(3) 0.6756(4) 1.4255(4)
O7A O 0.5590(3) 0.3215(4) 1.1855(4)
C1A C 0.5176(4) 0.5402(6) 1.2782(5)
C2A C 0.4775(4) 0.4537(6) 1.3352(5)
C3A C 0.5152(4) 0.6776(6) 1.2729(5)
H2A H 0.5797 0.7141 1.2636
C4A C 0.4841(4) 0.7218(6) 1.3506(5)
C5A C 0.4687(4) 0.6677(6) 1.1711(4)
H3A H 0.4841 0.6348 1.1242
H4A H 0.4871 0.7256 1.1431
H5A H 0.4054 0.6364 1.1816
C6A C 0.5116(4) 0.2740(6) 1.2591(5)
C7A C 0.3641(4) 0.2511(6) 1.3088(5)
H6A H 0.3336 0.2723 1.3518
H7A H 0.3460 0.1907 1.3267
H8A H 0.3496 0.2538 1.2382
C8A C 0.4650(4) 0.3097(6) 1.3243(6)
H9A H 0.4798 0.3086 1.3967
Cu1B Cu 0.44217(6) 0.86691(4) 1.68047(4)
Cu2B Cu 0.44662(6) 0.86637(4) 1.43051(4)
N1B N 0.6008(5) 1.0971(3) 1.2932(4)
N2B N 0.4066(5) 0.9007(3) 1.3150(5)
O1B O 0.46602(25) 0.82756(18) 1.5575(4)
H1B H 0.507(6) 0.822(5) 1.559(10)
O2B O 0.4487(4) 1.0151(3) 1.2005(4)
O3B O 0.8015(5) 1.3005(3) 1.2774(4)
O4B O 0.5560(4) 0.9854(3) 1.4117(3)
O5B O 0.2026(5) 0.7038(3) 1.3336(4)
O6B O 0.3244(4) 0.7633(3) 1.4255(4)
O7B O 0.6785(4) 1.2375(2) 1.1855(4)
C1B C 0.4598(6) 0.9774(4) 1.2782(5)
C2B C 0.5463(6) 1.0238(4) 1.3352(5)
C3B C 0.3224(6) 0.8376(4) 1.2729(5)
H2B H 0.2859 0.8656 1.2636
C4B C 0.2782(6) 0.7623(4) 1.3506(5)
C5B C 0.3323(6) 0.8010(4) 1.1711(4)
H3B H 0.3652 0.8493 1.1242
H4B H 0.2744 0.7615 1.1431
H5B H 0.3636 0.7690 1.1816
C6B C 0.7260(6) 1.2376(4) 1.2591(5)
C7B C 0.7489(6) 1.1130(4) 1.3088(5)
H6B H 0.7277 1.0613 1.3518
H7B H 0.8093 1.1553 1.3267
H8B H 0.7462 1.0958 1.2382
C8B C 0.6903(6) 1.1553(4) 1.3243(6)
H9B H 0.6914 1.1712 1.3967
Cu1C Cu -0.13309(4) 0.42474(4) 1.18047(4)
Cu1C_2 Cu 0.86691(4) 1.42474(4) 1.18047(4)
Cu1D Cu -0.42474(4) 0.44217(6) 1.18047(4)
Cu1D_2 Cu 0.57526(4) 0.44217(6) 1.18047(4)
Cu1E Cu 0.55783(6) 0.13309(4) 1.18047(4)
Cu1E_2 Cu 0.55783(6) 1.13309(4) 1.18047(4)
Ca1C Ca -0.3333 0.3333 1.0563(2)
Ca1C_2 Ca 0.6667 0.3333 1.0563(2)
Ca1C_3 Ca 0.6667 1.3333 1.0563(2)
N1C N 0.0971(3) 0.4963(4) 1.7932(4)
N1D N 0.5037(4) 0.6008(5) 1.7932(4)
N1E N 0.3992(5) 0.9029(3) 1.7932(4)
O2C O 0.0151(3) 0.5664(3) 1.7005(4)
O2D O 0.4336(3) 0.4487(4) 1.7005(4)
O2E O 0.5513(4) 0.9849(3) 1.7005(4)
O3C O 0.3005(3) 0.4990(4) 1.7774(4)
O3D O 0.5010(4) 0.8015(5) 1.7774(4)
O3E O 0.1985(5) 0.6995(3) 1.7774(4)
O7C O 0.2375(2) 0.5590(3) 1.6855(4)
O7D O 0.4410(3) 0.6785(4) 1.6855(4)
O7E O 0.3215(4) 0.7625(2) 1.6855(4)
O8 O 0.4199(2) 0.3712(3) 2.0599(6)
H10 H 0.384(6) 0.377(7) 2.108(5)
H11 H 0.406(6) 0.388(7) 1.999(4)
O9 O 0.3825(3) 0.1946(3) 2.0387(4)
H12 H 0.337(4) 0.160(4) 2.085(5)
H13 H 0.391(5) 0.252(3) 2.044(8)
O10 O 0.0300(2) 0.3475(3) 2.0596(5)
H14 H 0.008(5) 0.359(5) 2.003(5)
H15 H -0.014(4) 0.293(4) 2.088(5)
O11 O 0.3074(4) 0.3832(5) 1.9131(5)
H16 H 0.308(6) 0.427(5) 1.868(3)
H17 H 0.2933 0.4024 1.9778
O12 O 0.1733(3) 0.3233(3) 2.0560(7)
H18 H 0.127(4) 0.334(5) 2.067(6)
H19 H 0.173(6) 0.313(6) 1.988(3)
O13 O 0.2966(5) 0.3775(5) 2.2051(5)
H20 H 0.250(4) 0.361(5) 2.151(5)
H21 H 0.329(5) 0.440(3) 2.176(6)
O14 O 0.1736(5) 0.2804(5) 2.3650(5)
H22 H 0.186(6) 0.333(4) 2.320(5)
H23 H 0.154(6) 0.237(4) 2.307(5)
O15 O -0.0021(6) 0.2175(8) 2.3242(7)
H24 H 0.054(4) 0.251(5) 2.366(6)
H25 H -0.0227 0.2603 2.3365
O16 O 0.2364(5) 0.0627(5) 2.1300(6)
H26 H 0.221(6) 0.107(5) 2.156(5)
H27 H 0.2373 0.0353 2.1892
O17 O 0.1278(11) 0.1000(9) 2.3851(15)
H28 H 0.1560 0.1195 2.3184
H29 H 0.1553 0.0772 2.4366
O18 O 0.1258(10) 0.1390(10) 2.0530(19)
H30 H 0.1226 0.1599 2.1311
H31 H 0.1118 0.1741 2.0002
O19 O -0.0000 -0.0000 2.0147(17)
O20 O 0.0000 0.0000 2.229(3)
loop_
_geom_bond_atom_site_label_1
_geom_bond_atom_site_label_2
_geom_bond_site_symmetry_1
_geom_bond_site_symmetry_2
Cu1 O1 1_555 1_555
Cu2 N2 1_555 1_555
Ca1 O1 1_555 1_555
N1 C2 1_555 1_555
N2 C1 1_555 1_555
O1 Cu2 1_555 1_555
H1 O1 1_555 1_555
O2 C1 1_555 1_555
O3 C6 1_555 1_555
O4 Cu2 1_555 1_555
O5 C4 1_555 1_555
O6 Cu2 1_555 1_555
O7 C6 1_555 1_555
C1 C2 1_555 1_555
C2 O4 1_555 1_555
C3 N2 1_555 1_555
H2 C3 1_555 1_555
C4 O6 1_555 1_555
C5 C3 1_555 1_555
H3 C5 1_555 1_555
H4 C5 1_555 1_555
H5 C5 1_555 1_555
C6 C8 1_555 1_555
C7 H6 1_555 1_555
H7 C7 1_555 1_555
H8 C7 1_555 1_555
C8 N1 1_555 1_555
H9 C8 1_555 1_555
O8 H10 1_555 1_555
H11 O8 1_555 1_555
O9 H12 1_555 1_555
H13 O9 1_555 1_555
O10 H14 1_555 1_555
H15 O10 1_555 1_555
O11 H16 1_555 1_555
H17 O11 1_555 1_555
O12 H18 1_555 1_555
H19 O12 1_555 1_555
O13 H20 1_555 1_555
H21 O13 1_555 1_555
O14 H22 1_555 1_555
H23 O14 1_555 1_555
O15 H24 1_555 1_555
H25 O15 1_555 1_555
O16 H26 1_555 1_555
H27 O16 1_555 1_555
O17 H28 1_555 1_555
H29 O17 1_555 1_555
O18 H30 1_555 1_555
H31 O18 1_555 1_555
Cu1A O1A 1_555 1_555
Cu2A O5 1_555 1_555
N1A C2A 1_555 1_555
N2A Cu2A 1_555 1_555
O1A Ca1 1_555 1_555
H1A O1A 1_555 1_555
O2A C1A 1_555 1_555
O3A C6A 1_555 1_555
O4A Cu2A 1_555 1_555
O5A C4A 1_555 1_555
O6A Ca1 1_555 1_555
O7A C6A 1_555 1_555
C1A N2A 1_555 1_555
C2A O4A 1_555 1_555
C3A N2A 1_555 1_555
H2A C3A 1_555 1_555
C4A O6A 1_555 1_555
C5A C3A 1_555 1_555
H3A C5A 1_555 1_555
H4A C5A 1_555 1_555
H5A C5A 1_555 1_555
C6A C8A 1_555 1_555
C7A H6A 1_555 1_555
H7A C7A 1_555 1_555
H8A C7A 1_555 1_555
C8A N1A 1_555 1_555
H9A C8A 1_555 1_555
Cu1B O1B 1_555 1_555
Cu2B O5A 1_555 1_555
N1B C2B 1_555 1_555
N2B Cu2B 1_555 1_555
O1B Ca1 1_555 1_555
H1B O1B 1_555 1_555
O2B C1B 1_555 1_555
O3B C6B 1_555 1_555
O4B Cu2B 1_555 1_555
O5B Cu2 1_555 1_555
O6B Ca1 1_555 1_555
O7B C6B 1_555 1_555
C1B N2B 1_555 1_555
C2B O4B 1_555 1_555
C3B N2B 1_555 1_555
H2B C3B 1_555 1_555
C4B O5B 1_555 1_555
C5B C3B 1_555 1_555
H3B C5B 1_555 1_555
H4B C5B 1_555 1_555
H5B C5B 1_555 1_555
C6B C8B 1_555 1_555
C7B H6B 1_555 1_555
H7B C7B 1_555 1_555
H8B C7B 1_555 1_555
C8B N1B 1_555 1_555
H9B C8B 1_555 1_555
Cu1C N1 1_555 1_555
Cu1C_2 O3B 1_555 1_555
Cu1D O3 1_555 1_555
Cu1D_2 N1A 1_555 1_555
Cu1E O3A 1_555 1_555
Cu1E_2 N1B 1_555 1_555
Ca1C O7 1_555 1_555
Ca1C_2 O7A 1_555 1_555
Ca1C_3 O7B 1_555 1_555
N1C Cu1 1_555 1_555
N1D Cu1A 1_555 1_555
N1E Cu1B 1_555 1_555
O2C Cu1 1_555 1_555
O2D Cu1A 1_555 1_555
O2E Cu1B 1_555 1_555
O3C Cu1A 1_555 1_555
O3D Cu1B 1_555 1_555
O3E Cu1 1_555 1_555
O7C Cu1 1_555 1_555
O7D Ca1 1_555 1_555
O7E Ca1 1_555 1_555
Ca1 O6 1_555 1_555
Ca1 O7C 1_555 1_555
O2 Cu1C 1_555 1_555
O7 Cu1C 1_555 1_555
C3 C4 1_555 1_555
C7 C8 1_555 1_555
Cu1A O7D 1_555 1_555
Cu2A O1A 1_555 1_555
Cu2A O6A 1_555 1_555
O2A Cu1D_2 1_555 1_555
O7A Cu1D_2 1_555 1_555
C1A C2A 1_555 1_555
C3A C4A 1_555 1_555
C7A C8A 1_555 1_555
Cu1B O7E 1_555 1_555
Cu2B O1B 1_555 1_555
Cu2B O6B 1_555 1_555
O2B Cu1E_2 1_555 1_555
O6B C4B 1_555 1_555
O7B Cu1E_2 1_555 1_555
C1B C2B 1_555 1_555
C3B C4B 1_555 1_555
C7B C8B 1_555 1_555

#END
