
#######################################################################
#
#                 Cambridge Crystallographic Data Centre
#                                CCDC 
#
#######################################################################
#
# If this CIF has been generated from an entry in the Cambridge 
# Structural Database, then it will include bibliographic, chemical, 
# crystal, experimental, refinement or atomic coordinate data resulting 
# from the CCDC's data processing and validation procedures.
#
#######################################################################

data_VAKBIU
_chemical_formula_moiety         '(C21 H27 Mn1 N4 O5)n'
_symmetry_cell_setting           tetragonal
_symmetry_space_group_name_H-M   'I 41/a'
_symmetry_Int_Tables_number      88
_space_group_name_Hall           '-I 4ad'
loop_
_symmetry_equiv_pos_site_id
_symmetry_equiv_pos_as_xyz
1 x,y,z
2 1/2-x,-y,1/2+z
3 3/4-y,1/4+x,1/4+z
4 3/4+y,3/4-x,3/4+z
5 1/2+x,1/2+y,1/2+z
6 -x,1/2-y,z
7 1/4-y,3/4+x,3/4+z
8 1/4+y,1/4-x,1/4+z
9 -x,-y,-z
10 1/2+x,y,1/2-z
11 1/4+y,3/4-x,3/4-z
12 1/4-y,1/4+x,1/4-z
13 1/2-x,1/2-y,1/2-z
14 x,1/2+y,-z
15 3/4+y,1/4-x,1/4-z
16 3/4-y,3/4+x,3/4-z
_cell_length_a                   30.200(18)
_cell_length_b                   30.200(18)
_cell_length_c                   10.016(9)
_cell_angle_alpha                90
_cell_angle_beta                 90
_cell_angle_gamma                90
_cell_volume                     9134.99
loop_
_atom_site_label
_atom_site_type_symbol
_atom_site_fract_x
_atom_site_fract_y
_atom_site_fract_z
_atom_site_U_iso_or_equiv
_atom_site_thermal_displace_type
Mn1 Mn 0.481129(18) 0.952505(18) 0.97655(6) 0.0230 Uani
N1 N 0.49673(10) 0.90796(11) 0.8400(3) 0.0283 Uani
N2 N 0.53281(11) 0.88027(11) 0.8735(3) 0.0316 Uani
N3 N 0.65158(11) 0.81435(11) 1.1589(3) 0.0300 Uani
O1 O 0.35681(10) 1.00299(11) 0.7787(3) 0.0470 Uani
O2 O 0.43067(9) 0.96898(9) 0.8729(3) 0.0285 Uani
O3 O 0.53158(8) 0.92401(8) 1.0623(3) 0.0276 Uani
O4 O 0.47518(8) 0.99671(8) 1.1081(2) 0.0252 Uani
C1 C 0.31612(18) 1.0205(2) 0.7291(6) 0.0620 Uani
H1 H 0.3030 1.0401 0.7964 0.0930 Uiso
H2 H 0.2957 0.9962 0.7096 0.0930 Uiso
H3 H 0.3218 1.0374 0.6473 0.0930 Uiso
C2 C 0.37880(14) 0.97405(14) 0.6968(4) 0.0350 Uani
C3 C 0.36546(15) 0.96275(16) 0.5706(5) 0.0423 Uani
H4 H 0.3393 0.9755 0.5348 0.0510 Uiso
C4 C 0.38990(16) 0.93275(17) 0.4938(5) 0.0473 Uani
H5 H 0.3804 0.9253 0.4062 0.0570 Uiso
C5 C 0.42720(16) 0.91433(16) 0.5446(4) 0.0417 Uani
H6 H 0.4438 0.8940 0.4923 0.0500 Uiso
C6 C 0.44154(13) 0.92514(14) 0.6749(4) 0.0323 Uani
C7 C 0.41849(13) 0.95611(13) 0.7523(4) 0.0280 Uani
C8 C 0.47934(14) 0.90202(14) 0.7243(4) 0.0320 Uani
H7 H 0.4926 0.8806 0.6674 0.0380 Uiso
C9 C 0.54725(13) 0.89161(12) 0.9903(4) 0.0260 Uani
C10 C 0.58437(13) 0.86524(13) 1.0462(4) 0.0280 Uani
C11 C 0.59140(14) 0.82226(14) 1.0057(4) 0.0337 Uani
H8 H 0.5735 0.8094 0.9380 0.0400 Uiso
C12 C 0.62479(14) 0.79806(14) 1.0648(4) 0.0337 Uani
H9 H 0.6290 0.7683 1.0372 0.0400 Uiso
C13 C 0.64516(14) 0.85649(14) 1.1948(4) 0.0360 Uani
H10 H 0.6644 0.8689 1.2599 0.0430 Uiso
C14 C 0.61225(14) 0.88295(14) 1.1428(4) 0.0343 Uani
H11 H 0.6087 0.9126 1.1723 0.0410 Uiso
C15 C 0.47489(18) 0.98720(16) 1.2458(4) 0.0447 Uani
H12 H 0.4715 1.0148 1.2963 0.0670 Uiso
H13 H 0.5028 0.9729 1.2707 0.0670 Uiso
H14 H 0.4502 0.9673 1.2661 0.0670 Uiso
Mn1N Mn 0.702505(18) 0.768871(18) 1.27345(6) 0.0230 Uani
Mn1H Mn 0.518871(18) 1.047495(18) 1.02345(6) 0.0230 Uani
N3K N 0.43565(11) 0.90158(11) 1.0911(3) 0.0300 Uani
O4H O 0.52482(8) 1.00329(8) 0.8919(2) 0.0252 Uani
N4 N 0.6788(2) 1.0117(2) 0.7291(6) 0.0963 Uani
C16 C 0.6576(2) 0.99243(18) 0.8018(6) 0.0553 Uani
C17 C 0.63090(19) 0.96817(19) 0.8967(6) 0.0630 Uani
H15 H 0.6502 0.9533 0.9612 0.0940 Uiso
H16 H 0.6131 0.9460 0.8493 0.0940 Uiso
H17 H 0.6112 0.9887 0.9437 0.0940 Uiso
O5 O 0.5360(2) 0.8677(2) 0.4545(6) 0.1165 Uiso
C18 C 0.5584(6) 0.9066(4) 0.457(2) 0.1290 Uiso
H18 H 0.5356 0.9301 0.4622 0.1550 Uiso
H19 H 0.5723 0.9096 0.3676 0.1550 Uiso
C19 C 0.5920(6) 0.9181(6) 0.5522(17) 0.1140 Uiso
H20 H 0.5804 0.9138 0.6427 0.1710 Uiso
H21 H 0.6004 0.9492 0.5403 0.1710 Uiso
H22 H 0.6180 0.8992 0.5388 0.1710 Uiso
C20 C 0.5638(6) 0.8323(4) 0.479(2) 0.1380 Uiso
H23 H 0.5646 0.8243 0.5745 0.1660 Uiso
H24 H 0.5942 0.8378 0.4460 0.1660 Uiso
C21 C 0.5397(6) 0.7978(6) 0.3953(19) 0.1110 Uiso
H25 H 0.5076 0.8025 0.4021 0.1660 Uiso
H26 H 0.5470 0.7681 0.4283 0.1660 Uiso
H27 H 0.5488 0.8005 0.3018 0.1660 Uiso
loop_
_atom_site_aniso_label
_atom_site_aniso_U_11
_atom_site_aniso_U_22
_atom_site_aniso_U_33
_atom_site_aniso_U_23
_atom_site_aniso_U_13
_atom_site_aniso_U_12
Mn1 0.0223(3) 0.0214(3) 0.0252(3) 0.0004(2) -0.0022(2) 0.0006(2)
N1 0.0280(18) 0.0264(18) 0.0304(19) -0.0006(15) -0.0018(15) 0.0035(14)
N2 0.0294(19) 0.0304(19) 0.035(2) -0.0015(15) -0.0060(15) 0.0091(15)
N3 0.0279(18) 0.0270(18) 0.035(2) 0.0003(15) -0.0033(15) 0.0055(14)
O1 0.0344(17) 0.060(2) 0.0467(19) -0.0080(16) -0.0109(15) 0.0196(15)
O2 0.0274(15) 0.0318(15) 0.0262(15) 0.0001(12) -0.0060(12) 0.0036(12)
O3 0.0259(14) 0.0248(14) 0.0321(15) 0.0010(12) -0.0023(12) 0.0030(11)
O4 0.0277(15) 0.0235(14) 0.0244(14) 0.0007(11) 0.0017(11) -0.0005(11)
C1 0.049(3) 0.073(4) 0.064(4) -0.007(3) -0.019(3) 0.030(3)
C2 0.030(2) 0.039(2) 0.036(3) 0.002(2) -0.0047(19) 0.0020(19)
C3 0.036(3) 0.050(3) 0.041(3) 0.003(2) -0.014(2) 0.004(2)
C4 0.048(3) 0.059(3) 0.035(3) -0.004(2) -0.016(2) -0.002(2)
C5 0.043(3) 0.050(3) 0.032(2) -0.005(2) -0.007(2) 0.004(2)
C6 0.031(2) 0.035(2) 0.031(2) -0.0028(19) -0.0066(18) 0.0010(18)
C7 0.024(2) 0.032(2) 0.028(2) 0.0041(18) -0.0041(17) -0.0023(17)
C8 0.034(2) 0.030(2) 0.032(2) -0.0075(18) -0.0036(19) 0.0038(17)
C9 0.023(2) 0.022(2) 0.033(2) 0.0023(17) -0.0012(17) 0.0005(16)
C10 0.025(2) 0.031(2) 0.028(2) 0.0020(17) -0.0005(17) 0.0015(16)
C11 0.035(2) 0.030(2) 0.036(2) -0.0033(18) -0.0084(19) 0.0038(18)
C12 0.034(2) 0.027(2) 0.040(2) -0.0028(19) -0.0060(19) 0.0062(18)
C13 0.033(2) 0.036(2) 0.039(3) -0.004(2) -0.010(2) 0.0018(19)
C14 0.037(2) 0.025(2) 0.041(3) -0.0016(19) -0.006(2) 0.0066(18)
C15 0.064(3) 0.040(3) 0.030(3) 0.000(2) 0.005(2) -0.010(2)
Mn1N 0.0214 0.0223 0.0252 -0.0022 -0.0004 -0.0006
Mn1H 0.0223 0.0214 0.0252 0.0004 -0.0022 0.0006
N3K 0.027 0.0279 0.035 0.0033 0.0003 -0.0055
O4H 0.0277 0.0235 0.0244 0.0007 0.0017 -0.0005
N4 0.116(5) 0.098(5) 0.075(4) 0.033(4) -0.019(4) -0.033(4)
C16 0.065(4) 0.047(3) 0.054(3) 0.007(3) -0.018(3) -0.004(3)
C17 0.058(3) 0.064(4) 0.067(4) 0.006(3) 0.007(3) 0.008(3)
loop_
_geom_bond_atom_site_label_1
_geom_bond_atom_site_label_2
_geom_bond_site_symmetry_1
_geom_bond_site_symmetry_2
Mn1 N1 1_555 1_555
N1 N2 1_555 1_555
N2 C9 1_555 1_555
N3 C12 1_555 1_555
O1 C1 1_555 1_555
O2 Mn1 1_555 1_555
O3 Mn1 1_555 1_555
O4 Mn1 1_555 1_555
C1 H1 1_555 1_555
H2 C1 1_555 1_555
H3 C1 1_555 1_555
C2 O1 1_555 1_555
C3 C2 1_555 1_555
H4 C3 1_555 1_555
C4 C3 1_555 1_555
H5 C4 1_555 1_555
C5 C4 1_555 1_555
H6 C5 1_555 1_555
C6 C5 1_555 1_555
C7 O2 1_555 1_555
C8 N1 1_555 1_555
H7 C8 1_555 1_555
C9 O3 1_555 1_555
C10 C9 1_555 1_555
C11 C10 1_555 1_555
H8 C11 1_555 1_555
C12 C11 1_555 1_555
H9 C12 1_555 1_555
C13 N3 1_555 1_555
H10 C13 1_555 1_555
C14 C10 1_555 1_555
H11 C14 1_555 1_555
C15 O4 1_555 1_555
H12 C15 1_555 1_555
H13 C15 1_555 1_555
H14 C15 1_555 1_555
N4 C16 1_555 1_555
C16 C17 1_555 1_555
C17 H15 1_555 1_555
H16 C17 1_555 1_555
H17 C17 1_555 1_555
O5 C18 1_555 1_555
C18 H18 1_555 1_555
H19 C18 1_555 1_555
C19 C18 1_555 1_555
H20 C19 1_555 1_555
H21 C19 1_555 1_555
H22 C19 1_555 1_555
C20 O5 1_555 1_555
H23 C20 1_555 1_555
H24 C20 1_555 1_555
C21 C20 1_555 1_555
H25 C21 1_555 1_555
H26 C21 1_555 1_555
H27 C21 1_555 1_555
Mn1N N3 1_555 1_555
Mn1H O4 1_555 1_555
N3K Mn1 1_555 1_555
O4H Mn1 1_555 1_555
C2 C7 1_555 1_555
C6 C7 1_555 1_555
C6 C8 1_555 1_555
C13 C14 1_555 1_555
Mn1H O4H 1_555 1_555

#END
