
#######################################################################
#
#                 Cambridge Crystallographic Data Centre
#                                CCDC 
#
#######################################################################
#
# If this CIF has been generated from an entry in the Cambridge 
# Structural Database, then it will include bibliographic, chemical, 
# crystal, experimental, refinement or atomic coordinate data resulting 
# from the CCDC's data processing and validation procedures.
#
#######################################################################

data_MADVUJ
_chemical_formula_moiety         '(C18 H19 Cu1 I1 N1 S2)n'
_symmetry_cell_setting           orthorhombic
_symmetry_space_group_name_H-M   'P n m a'
_symmetry_Int_Tables_number      62
_space_group_name_Hall           '-P 2ac 2n'
loop_
_symmetry_equiv_pos_site_id
_symmetry_equiv_pos_as_xyz
1 x,y,z
2 1/2-x,1/2+y,1/2+z
3 x,1/2-y,z
4 1/2+x,y,1/2-z
5 -x,-y,-z
6 1/2+x,1/2-y,1/2-z
7 -x,1/2+y,-z
8 1/2-x,-y,1/2+z
_cell_length_a                   7.201(3)
_cell_length_b                   20.784(9)
_cell_length_c                   12.400(5)
_cell_angle_alpha                90
_cell_angle_beta                 90
_cell_angle_gamma                90
_cell_volume                     1855.85
loop_
_atom_site_label
_atom_site_type_symbol
_atom_site_fract_x
_atom_site_fract_y
_atom_site_fract_z
_atom_site_U_iso_or_equiv
_atom_site_thermal_displace_type
I1 I 0.12819(4) 0.2500 0.14065(2) 0.0162 Uani
Cu1 Cu -0.23648(8) 0.2500 0.16219(5) 0.0170 Uani
S1 S -0.3683(1) 0.16211(4) 0.07298(7) 0.0186 Uani
C1 C -0.3481(5) 0.0598(2) -0.1398(3) 0.0213 Uani
C2 C -0.4352(5) 0.0061(2) -0.1839(3) 0.0187 Uani
C3 C -0.4210(4) -0.0537(2) -0.1339(3) 0.0177 Uani
C4 C -0.3094(5) -0.0592(2) -0.0425(3) 0.0200 Uani
C5 C -0.2270(5) -0.0054(2) 0.0024(3) 0.0213 Uani
C6 C -0.2496(5) 0.0548(2) -0.0431(3) 0.0207 Uani
C7 C -0.1803(5) 0.1136(2) 0.0157(3) 0.0257 Uani
C8 C -0.4692(5) 0.1107(2) 0.1763(3) 0.0197 Uani
H1 H -0.3557 0.1001 -0.1757 0.0256 Uiso
H2 H -0.5049 0.0103 -0.2486 0.0225 Uiso
H3 H -0.2897 -0.1003 -0.0108 0.0237 Uiso
H4 H -0.1536 -0.0099 0.0656 0.0255 Uiso
H5 H -0.1010 0.1002 0.0726 0.0306 Uiso
H6 H -0.1123 0.1395 -0.0335 0.0306 Uiso
H7 H -0.3711 0.0946 0.2199 0.0238 Uiso
H8 H -0.5500 0.1362 0.2192 0.0238 Uiso
C8D C -0.5308(5) -0.1107(2) -0.1763(3) 0.0197 Uani
S1D S -0.6317(1) -0.16211(4) -0.07298(7) 0.0186 Uani
C7D C -0.8197(5) -0.1136(2) -0.0157(3) 0.0257 Uani
C6D C -0.7504(5) -0.0548(2) 0.0431(3) 0.0207 Uani
C1D C -0.6519(5) -0.0598(2) 0.1398(3) 0.0213 Uani
C2D C -0.5648(5) -0.0061(2) 0.1839(3) 0.0187 Uani
C3D C -0.5790(4) 0.0537(2) 0.1339(3) 0.0177 Uani
C4D C -0.6906(5) 0.0592(2) 0.0425(3) 0.0200 Uani
C5D C -0.7730(5) 0.0054(2) -0.0024(3) 0.0213 Uani
H4D H -0.8464 0.0099 -0.0656 0.0255 Uiso
H3D H -0.7103 0.1003 0.0108 0.0237 Uiso
H2D H -0.4951 -0.0103 0.2486 0.0225 Uiso
H1D H -0.6443 -0.1001 0.1757 0.0256 Uiso
H5D H -0.8990 -0.1002 -0.0726 0.0306 Uiso
H6D H -0.8877 -0.1395 0.0335 0.0306 Uiso
H7D H -0.6289 -0.0946 -0.2199 0.0238 Uiso
H8D H -0.4500 -0.1362 -0.2192 0.0238 Uiso
Cu1C Cu 0.26352(8) 0.2500 0.33781(5) 0.0170 Uani
I1C I -0.37181(4) 0.2500 0.35935(2) 0.0162 Uani
S1B S -0.3683(1) 0.33789(4) 0.07298(7) 0.0186 Uani
Cu1D Cu -0.76352(8) -0.2500 -0.16219(5) 0.0170 Uani
N1 N -0.185(2) 0.2500 -0.1645(10) 0.1657 Uani
C9 C -0.177(2) 0.2500 -0.2520(9) 0.1270 Uani
C10 C -0.183(3) 0.2500 -0.354(1) 0.2707 Uani
H9 H -0.2468 0.2873 -0.3788 0.3265 Uiso
H10 H -0.0604 0.2500 -0.3826 0.3265 Uiso
H11 H -0.2468 0.2127 -0.3788 0.3265 Uiso
loop_
_atom_site_aniso_label
_atom_site_aniso_U_11
_atom_site_aniso_U_22
_atom_site_aniso_U_33
_atom_site_aniso_U_23
_atom_site_aniso_U_13
_atom_site_aniso_U_12
I1 0.0133(2) 0.0158(2) 0.0195(2) 0.0000 -0.0001(1) 0.0000
Cu1 0.0159(3) 0.0133(3) 0.0218(3) 0.0000 0.0005(2) 0.0000
S1 0.0169(4) 0.0160(4) 0.0229(4) -0.0046(3) 0.0011(4) -0.0024(4)
C1 0.021(2) 0.018(2) 0.025(2) -0.003(1) 0.007(2) -0.002(1)
C2 0.018(2) 0.021(2) 0.017(2) -0.003(1) 0.004(1) -0.002(1)
C3 0.012(2) 0.019(2) 0.022(2) -0.005(1) 0.004(1) -0.001(1)
C4 0.014(2) 0.022(2) 0.024(2) -0.003(1) 0.002(1) 0.001(1)
C5 0.010(1) 0.030(2) 0.024(2) -0.007(1) 0.000(1) -0.001(1)
C6 0.014(2) 0.020(2) 0.028(2) -0.010(1) 0.008(1) -0.003(1)
C7 0.017(2) 0.026(2) 0.034(2) -0.012(2) 0.007(2) -0.005(1)
C8 0.018(2) 0.019(2) 0.022(2) -0.004(1) -0.001(1) -0.002(1)
C8D 0.018 0.019 0.022 -0.004 -0.001 -0.002
S1D 0.0169 0.016 0.0229 -0.0046 0.0011 -0.0024
C7D 0.017 0.026 0.034 -0.012 0.007 -0.005
C6D 0.014 0.02 0.028 -0.01 0.008 -0.003
C1D 0.021 0.018 0.025 -0.003 0.007 -0.002
C2D 0.018 0.021 0.017 -0.003 0.004 -0.002
C3D 0.012 0.019 0.022 -0.005 0.004 -0.001
C4D 0.014 0.022 0.024 -0.003 0.002 0.001
C5D 0.01 0.03 0.024 -0.007 0 -0.001
Cu1C 0.0159 0.0133 0.0218 0 -0.0005 0
I1C 0.0133 0.0158 0.0195 0 0.0001 0
S1B 0.0169 0.016 0.0229 0.0046 0.0011 0.0024
Cu1D 0.0159 0.0133 0.0218 0 0.0005 0
N1 0.18(1) 0.24(2) 0.077(8) 0.0000 0.000(8) 0.0000
C9 0.093(9) 0.24(2) 0.048(6) 0.0000 0.001(6) 0.0000
C10 0.11(1) 0.65(6) 0.052(8) 0.0000 -0.012(8) 0.0000
loop_
_geom_bond_atom_site_label_1
_geom_bond_atom_site_label_2
_geom_bond_site_symmetry_1
_geom_bond_site_symmetry_2
I1 Cu1 1_555 1_555
Cu1 S1 1_555 1_555
S1 C7 1_555 1_555
N1 C9 1_555 1_555
C1 C2 1_555 1_555
C2 C3 1_555 1_555
C3 C4 1_555 1_555
C4 C5 1_555 1_555
C5 C6 1_555 1_555
C6 C1 1_555 1_555
C7 C6 1_555 1_555
C8 S1 1_555 1_555
C9 C10 1_555 1_555
C10 H9 1_555 1_555
H1 C1 1_555 1_555
H2 C2 1_555 1_555
H3 C4 1_555 1_555
H4 C5 1_555 1_555
H5 C7 1_555 1_555
H6 C7 1_555 1_555
H7 C8 1_555 1_555
H8 C8 1_555 1_555
H10 C10 1_555 1_555
H11 C10 1_555 1_555
C8D C3 1_555 1_555
S1D C8D 1_555 1_555
C7D S1D 1_555 1_555
C6D C7D 1_555 1_555
C1D C6D 1_555 1_555
C2D C1D 1_555 1_555
C3D C8 1_555 1_555
C4D C3D 1_555 1_555
C5D C6D 1_555 1_555
H4D C5D 1_555 1_555
H3D C4D 1_555 1_555
H2D C2D 1_555 1_555
H1D C1D 1_555 1_555
H5D C7D 1_555 1_555
H6D C7D 1_555 1_555
H7D C8D 1_555 1_555
H8D C8D 1_555 1_555
Cu1C I1 1_555 1_555
I1C Cu1 1_555 1_555
S1B Cu1 1_555 1_555
Cu1D S1D 1_555 1_555
C2D C3D 1_555 1_555
C4D C5D 1_555 1_555

#END
