
#######################################################################
#
#                 Cambridge Crystallographic Data Centre
#                                CCDC 
#
#######################################################################
#
# If this CIF has been generated from an entry in the Cambridge 
# Structural Database, then it will include bibliographic, chemical, 
# crystal, experimental, refinement or atomic coordinate data resulting 
# from the CCDC's data processing and validation procedures.
#
#######################################################################

data_MADWAQ
_chemical_formula_moiety         '(C18 H19 Br1 Cu1 N1 S2)n'
_symmetry_cell_setting           orthorhombic
_symmetry_space_group_name_H-M   'P n m a'
_symmetry_Int_Tables_number      62
_space_group_name_Hall           '-P 2ac 2n'
loop_
_symmetry_equiv_pos_site_id
_symmetry_equiv_pos_as_xyz
1 x,y,z
2 1/2-x,1/2+y,1/2+z
3 x,1/2-y,z
4 1/2+x,y,1/2-z
5 -x,-y,-z
6 1/2+x,1/2-y,1/2-z
7 -x,1/2+y,-z
8 1/2-x,-y,1/2+z
_cell_length_a                   7.0820(6)
_cell_length_b                   20.724(2)
_cell_length_c                   12.357(1)
_cell_angle_alpha                90
_cell_angle_beta                 90
_cell_angle_gamma                90
_cell_volume                     1813.6
loop_
_atom_site_label
_atom_site_type_symbol
_atom_site_fract_x
_atom_site_fract_y
_atom_site_fract_z
_atom_site_U_iso_or_equiv
_atom_site_thermal_displace_type
Br1 Br 1.10504(4) 0.7500 0.65171(2) 0.0149 Uani
Cu1 Cu 0.75542(5) 0.7500 0.66734(2) 0.0148 Uani
S1 S 0.62276(6) 0.66318(2) 0.57594(4) 0.0159 Uani
C1 C 0.4393(3) 0.49182(9) 0.6870(2) 0.0169 Uani
C2 C 0.3552(3) 0.43699(9) 0.6426(2) 0.0182 Uani
C3 C 0.2533(3) 0.44146(9) 0.5459(2) 0.0173 Uani
C4 C 0.2273(3) 0.5019(1) 0.5002(2) 0.0179 Uani
C5 C 0.3074(3) 0.55656(9) 0.5453(2) 0.0170 Uani
C6 C 0.4212(3) 0.55184(9) 0.6369(2) 0.0152 Uani
C7 C 0.5286(3) 0.60943(9) 0.6794(2) 0.0184 Uani
C8 C 0.8146(3) 0.6177(1) 0.5130(2) 0.0210 Uani
H1 H 0.5103 0.4882 0.7523 0.0202 Uiso
H2 H 0.3673 0.3964 0.6785 0.0218 Uiso
H3 H 0.1523 0.5060 0.4360 0.0217 Uiso
H4 H 0.2849 0.5978 0.5135 0.0206 Uiso
H5 H 0.6318 0.5940 0.7215 0.0225 Uiso
H6 H 0.4464 0.6338 0.7243 0.0225 Uiso
H7 H 0.8782 0.6451 0.4631 0.0262 Uiso
H8 H 0.9012 0.6049 0.5681 0.0262 Uiso
C8D C 0.1854(3) 0.3823(1) 0.4870(2) 0.0210 Uani
S1D S 0.37724(6) 0.33682(2) 0.42406(4) 0.0159 Uani
C7D C 0.4714(3) 0.39057(9) 0.3206(2) 0.0184 Uani
C6D C 0.5788(3) 0.44816(9) 0.3631(2) 0.0152 Uani
C1D C 0.5607(3) 0.50818(9) 0.3130(2) 0.0169 Uani
C2D C 0.6448(3) 0.56301(9) 0.3574(2) 0.0182 Uani
C3D C 0.7467(3) 0.55854(9) 0.4541(2) 0.0173 Uani
C4D C 0.7727(3) 0.4981(1) 0.4998(2) 0.0179 Uani
C5D C 0.6926(3) 0.44344(9) 0.4547(2) 0.0170 Uani
H4D H 0.7151 0.4022 0.4865 0.0206 Uiso
H3D H 0.8477 0.4940 0.5640 0.0217 Uiso
H2D H 0.6327 0.6036 0.3215 0.0218 Uiso
H1D H 0.4897 0.5118 0.2477 0.0202 Uiso
H5D H 0.3682 0.4060 0.2785 0.0225 Uiso
H6D H 0.5536 0.3662 0.2757 0.0225 Uiso
H7D H 0.1218 0.3549 0.5369 0.0262 Uiso
H8D H 0.0988 0.3951 0.4319 0.0262 Uiso
Cu1C Cu 1.25542(5) 0.7500 0.83266(2) 0.0148 Uani
Br1C Br 0.60504(4) 0.7500 0.84829(2) 0.0149 Uani
S1B S 0.62276(6) 0.83682(2) 0.57594(4) 0.0159 Uani
Cu1D Cu 0.24458(5) 0.2500 0.33266(2) 0.0148 Uani
N1 N 0.7871(6) 0.7500 0.3298(3) 0.0593 Uani
C9 C 0.7863(5) 0.7500 0.2391(3) 0.0330 Uani
C10 C 0.7841(7) 0.7500 0.1227(4) 0.0733 Uani
H9 H 0.7193 0.7874 0.0967 0.0881 Uiso
H10 H 0.9089 0.7500 0.0947 0.0881 Uiso
H9B H 0.7193 0.7126 0.0967 0.0881 Uiso
loop_
_atom_site_aniso_label
_atom_site_aniso_U_11
_atom_site_aniso_U_22
_atom_site_aniso_U_33
_atom_site_aniso_U_23
_atom_site_aniso_U_13
_atom_site_aniso_U_12
Br1 0.0143(1) 0.0161(1) 0.0144(1) 0.0000 -0.00043(9) 0.0000
Cu1 0.0167(2) 0.0105(2) 0.0172(2) 0.0000 0.0003(1) 0.0000
S1 0.0157(2) 0.0126(2) 0.0195(2) -0.0042(2) 0.0008(2) -0.0019(2)
C1 0.0165(9) 0.0182(9) 0.0160(8) -0.0033(7) 0.0020(7) -0.0012(7)
C2 0.0184(9) 0.0148(9) 0.0213(9) -0.0025(7) 0.0063(7) -0.0016(7)
C3 0.0114(8) 0.0182(8) 0.0224(9) -0.0085(7) 0.0057(7) -0.0030(7)
C4 0.0098(8) 0.0226(9) 0.0212(8) -0.0052(7) -0.0004(7) 0.0004(7)
C5 0.0125(8) 0.0162(8) 0.0224(9) -0.0021(7) 0.0011(7) 0.0009(7)
C6 0.0120(8) 0.0148(8) 0.0188(8) -0.0055(7) 0.0044(6) -0.0010(6)
C7 0.0183(9) 0.0170(9) 0.0199(8) -0.0043(7) 0.0012(7) -0.0036(8)
C8 0.0153(9) 0.0207(9) 0.0271(10) -0.0102(8) 0.0043(7) -0.0046(8)
C8D 0.0153 0.0207 0.0271 -0.0102 0.0043 -0.0046
S1D 0.0157 0.0126 0.0195 -0.0042 0.0008 -0.0019
C7D 0.0183 0.017 0.0199 -0.0043 0.0012 -0.0036
C6D 0.012 0.0148 0.0188 -0.0055 0.0044 -0.001
C1D 0.0165 0.0182 0.016 -0.0033 0.002 -0.0012
C2D 0.0184 0.0148 0.0213 -0.0025 0.0063 -0.0016
C3D 0.0114 0.0182 0.0224 -0.0085 0.0057 -0.003
C4D 0.0098 0.0226 0.0212 -0.0052 -0.0004 0.0004
C5D 0.0125 0.0162 0.0224 -0.0021 0.0011 0.0009
Cu1C 0.0167 0.0105 0.0172 0 -0.0003 0
Br1C 0.0143 0.0161 0.0144 0 0.00043 0
S1B 0.0157 0.0126 0.0195 0.0042 0.0008 0.0019
Cu1D 0.0167 0.0105 0.0172 0 0.0003 0
N1 0.053(2) 0.094(3) 0.031(2) 0.0000 -0.001(2) 0.0000
C9 0.029(2) 0.039(2) 0.031(2) 0.0000 0.002(1) 0.0000
C10 0.045(3) 0.148(6) 0.027(2) 0.0000 0.004(2) 0.0000
loop_
_geom_bond_atom_site_label_1
_geom_bond_atom_site_label_2
_geom_bond_site_symmetry_1
_geom_bond_site_symmetry_2
Br1 Cu1 1_555 1_555
Cu1 S1 1_555 1_555
S1 C7 1_555 1_555
N1 C9 1_555 1_555
C1 C2 1_555 1_555
C2 C3 1_555 1_555
C3 C4 1_555 1_555
C4 C5 1_555 1_555
C5 C6 1_555 1_555
C6 C1 1_555 1_555
C7 C6 1_555 1_555
C8 S1 1_555 1_555
C9 C10 1_555 1_555
C10 H9 1_555 1_555
H1 C1 1_555 1_555
H2 C2 1_555 1_555
H3 C4 1_555 1_555
H4 C5 1_555 1_555
H5 C7 1_555 1_555
H6 C7 1_555 1_555
H7 C8 1_555 1_555
H8 C8 1_555 1_555
H10 C10 1_555 1_555
C8D C3 1_555 1_555
S1D C8D 1_555 1_555
C7D S1D 1_555 1_555
C6D C7D 1_555 1_555
C1D C6D 1_555 1_555
C2D C1D 1_555 1_555
C3D C8 1_555 1_555
C4D C3D 1_555 1_555
C5D C6D 1_555 1_555
H4D C5D 1_555 1_555
H3D C4D 1_555 1_555
H2D C2D 1_555 1_555
H1D C1D 1_555 1_555
H5D C7D 1_555 1_555
H6D C7D 1_555 1_555
H7D C8D 1_555 1_555
H8D C8D 1_555 1_555
H9B C10 1_555 1_555
Cu1C Br1 1_555 1_555
Br1C Cu1 1_555 1_555
S1B Cu1 1_555 1_555
Cu1D S1D 1_555 1_555
C2D C3D 1_555 1_555
C4D C5D 1_555 1_555

#END
