
#######################################################################
#
#                 Cambridge Crystallographic Data Centre
#                                CCDC 
#
#######################################################################
#
# If this CIF has been generated from an entry in the Cambridge 
# Structural Database, then it will include bibliographic, chemical, 
# crystal, experimental, refinement or atomic coordinate data resulting 
# from the CCDC's data processing and validation procedures.
#
#######################################################################

data_PODKOK
_chemical_formula_moiety         '(C96 H60 Cu6 N20 O30)n'
_symmetry_cell_setting           tetragonal
_symmetry_space_group_name_H-M   'I 4/m'
_symmetry_Int_Tables_number      87
_space_group_name_Hall           '-I 4'
loop_
_symmetry_equiv_pos_site_id
_symmetry_equiv_pos_as_xyz
1 x,y,z
2 -x,-y,z
3 -y,x,z
4 y,-x,z
5 1/2+x,1/2+y,1/2+z
6 1/2-x,1/2-y,1/2+z
7 1/2-y,1/2+x,1/2+z
8 1/2+y,1/2-x,1/2+z
9 -x,-y,-z
10 x,y,-z
11 y,-x,-z
12 -y,x,-z
13 1/2-x,1/2-y,1/2-z
14 1/2+x,1/2+y,1/2-z
15 1/2+y,1/2-x,1/2-z
16 1/2-y,1/2+x,1/2-z
_cell_length_a                   34.6853(6)
_cell_length_b                   34.6853(6)
_cell_length_c                   50.6917(13)
_cell_angle_alpha                90
_cell_angle_beta                 90
_cell_angle_gamma                90
_cell_volume                     60985.7
loop_
_atom_site_label
_atom_site_type_symbol
_atom_site_fract_x
_atom_site_fract_y
_atom_site_fract_z
_atom_site_U_iso_or_equiv
_atom_site_thermal_displace_type
Cu1 Cu 0.08862(3) 0.29021(2) 1.0000 0.0985 Uani
Cu2 Cu 0.06661(3) 0.21673(2) 1.0000 0.0929 Uani
Cu3 Cu 0.14372(2) 0.07323(2) 0.88719(2) 0.0879 Uani
Cu4 Cu 0.19229(2) 0.09868(2) 0.85052(2) 0.0932 Uani
O1 O 0.12320(10) 0.27085(10) 0.97240(6) 0.1157 Uani
O2 O 0.10530(9) 0.20849(8) 0.97254(5) 0.1003 Uani
O3 O 0.15598(9) 0.12162(8) 0.90469(6) 0.0999 Uani
O4 O 0.19217(9) 0.14605(9) 0.87146(6) 0.1060 Uani
O5 O 0.11173(17) 0.34774(13) 1.0000 0.1427 Uani
O6 O 0.04589(17) 0.15768(15) 1.0000 0.2000 Uani
O7 O 0.10613(11) 0.04895(15) 0.91680(7) 0.1637 Uani
O8 O 0.23068(12) 0.11976(11) 0.82105(8) 0.1413 Uani
O9 O -0.04839(10) 0.70114(9) 0.97322(6) 0.1140 Uani
O10 O -0.03144(10) 0.76391(9) 0.97260(6) 0.1093 Uani
O11 O 0.05114(8) 0.81014(9) 0.90263(6) 0.1007 Uani
O12 O 0.07762(9) 0.76842(8) 0.87424(6) 0.1060 Uani
O13 O 0.38385(9) 0.64543(10) 0.66719(6) 0.1111 Uani
O14 O 0.39938(9) 0.60518(8) 0.63406(6) 0.1020 Uani
O15 O 0.36090(8) 0.47161(8) 0.63595(6) 0.0969 Uani
O16 O 0.31535(9) 0.45237(8) 0.66528(6) 0.1002 Uani
N1 N 0.2106(2) 0.28651(14) 0.89563(13) 0.1930 Uani
N2 N 0.2445(3) 0.28469(19) 0.8843(2) 0.3613 Uani
N3 N 0.2543(3) 0.3199(2) 0.8782(2) 0.3063 Uani
N4 N 0.0600(3) 0.64098(15) 0.91948(13) 0.2357 Uani
N5 N 0.0527(4) 0.6132(2) 0.9353(2) 0.4310 Uani
N6 N 0.0722(5) 0.5839(2) 0.9288(2) 0.4957 Uani
N7 N 0.2247(4) 0.50343(18) 0.8675(2) 0.4387 Uani
N8 N 0.3110(3) 0.56239(15) 0.73124(13) 0.2670 Uani
N9 N 0.3140(5) 0.5945(2) 0.74353(19) 0.5143 Uani
N10 N 0.2983(4) 0.5921(2) 0.76588(18) 0.4037 Uani
C1 C 0.12229(14) 0.23736(13) 0.96400(8) 0.0913 Uani
C2 C 0.15005(14) 0.22865(14) 0.94042(9) 0.1017 Uani
C3 C 0.15240(13) 0.19255(13) 0.92977(9) 0.0960 Uani
H1 H 0.1387 0.1717 0.9375 0.1150 Uiso
C4 C 0.17508(13) 0.18647(13) 0.90744(9) 0.0970 Uani
C5 C 0.19431(16) 0.21598(16) 0.89634(12) 0.1287 Uani
H2 H 0.2087 0.2120 0.8806 0.1540 Uiso
C6 C 0.1931(2) 0.25306(16) 0.90816(13) 0.1490 Uani
C7 C 0.16990(17) 0.25893(15) 0.93015(11) 0.1247 Uani
H3 H 0.1679 0.2838 0.9379 0.1500 Uiso
C8 C 0.17343(13) 0.14790(12) 0.89288(9) 0.0900 Uani
C9 C 0.2001(3) 0.3212(2) 0.89759(16) 0.2110 Uani
H4 H 0.1779 0.3311 0.9063 0.2530 Uiso
C10 C 0.2282(3) 0.3416(2) 0.8842(2) 0.2333 Uani
C11 C 0.2243(4) 0.3855(2) 0.8793(2) 0.2977 Uani
C12 C 0.1924(4) 0.4050(3) 0.8816(3) 0.4407 Uani
H5 H 0.1696 0.3923 0.8872 0.5280 Uiso
C13 C 0.1914(4) 0.4425(3) 0.8765(2) 0.4303 Uani
H6 H 0.1672 0.4553 0.8769 0.5160 Uiso
C14 C 0.2227(4) 0.4630(2) 0.8706(2) 0.2943 Uani
C15 C 0.2552(4) 0.4445(3) 0.8693(3) 0.6110 Uani
H7 H 0.2780 0.4580 0.8647 0.7330 Uiso
C16 C 0.2569(4) 0.4038(3) 0.8748(3) 0.5113 Uani
H8 H 0.2809 0.3906 0.8752 0.6120 Uiso
C17 C -0.03087(15) 0.73004(14) 0.96508(8) 0.0957 Uani
C18 C 0.00017(17) 0.72112(13) 0.94494(9) 0.1103 Uani
C19 C 0.0134(2) 0.68420(17) 0.94084(12) 0.1687 Uani
H9 H 0.0025 0.6632 0.9502 0.2030 Uiso
C20 C 0.0439(3) 0.67776(17) 0.92226(13) 0.1753 Uani
C21 C 0.0571(2) 0.70807(15) 0.90662(12) 0.1487 Uani
H10 H 0.0763 0.7036 0.8936 0.1780 Uiso
C22 C 0.04244(15) 0.74414(14) 0.91000(9) 0.1047 Uani
C23 C 0.01552(14) 0.75102(14) 0.92968(9) 0.1057 Uani
H11 H 0.0073 0.7767 0.9329 0.1270 Uiso
C24 C 0.05649(13) 0.77770(13) 0.89348(9) 0.0950 Uani
C25 C 0.0873(4) 0.6301(2) 0.9038(2) 0.3137 Uani
H12 H 0.1000 0.6458 0.8912 0.3770 Uiso
C26 C 0.0947(5) 0.5920(3) 0.9085(2) 0.4053 Uani
C27 C 0.1328(4) 0.5697(2) 0.8986(2) 0.3713 Uani
C28 C 0.1405(5) 0.5754(3) 0.8748(2) 0.5297 Uani
H13 H 0.1269 0.5940 0.8647 0.6360 Uiso
C29 C 0.1683(5) 0.5545(4) 0.8643(3) 0.7627 Uani
H14 H 0.1751 0.5603 0.8466 0.9170 Uiso
C30 C 0.1884(4) 0.5253(2) 0.8762(2) 0.4183 Uani
C31 C 0.1793(5) 0.5196(4) 0.9013(3) 0.7783 Uani
H15 H 0.1922 0.5004 0.9113 0.9360 Uiso
C32 C 0.1501(5) 0.5426(4) 0.9129(2) 0.6213 Uani
H16 H 0.1430 0.5386 0.9307 0.7450 Uiso
C33 C 0.38415(12) 0.61337(13) 0.65527(9) 0.0907 Uani
C34 C 0.36505(14) 0.58056(13) 0.66970(9) 0.1007 Uani
C35 C 0.34967(19) 0.58608(15) 0.69355(11) 0.1387 Uani
H17 H 0.3520 0.6103 0.7021 0.1670 Uiso
C36 C 0.3295(2) 0.55490(17) 0.70603(12) 0.1500 Uani
C37 C 0.32694(17) 0.51921(15) 0.69445(11) 0.1313 Uani
H18 H 0.3146 0.4984 0.7032 0.1580 Uiso
C38 C 0.34298(13) 0.51448(13) 0.66953(9) 0.0970 Uani
C39 C 0.36263(12) 0.54447(13) 0.65760(8) 0.0917 Uani
H19 H 0.3746 0.5405 0.6410 0.1100 Uiso
C40 C 0.33828(13) 0.47527(12) 0.65482(9) 0.0903 Uani
C41 C 0.2722(4) 0.5434(2) 0.7956(2) 0.4310 Uani
C42 C 0.2539(5) 0.5106(3) 0.7947(2) 0.5597 Uani
H20 H 0.2515 0.4969 0.7785 0.6740 Uiso
C43 C 0.2382(5) 0.4962(3) 0.8177(3) 0.7020 Uani
H21 H 0.2264 0.4715 0.8175 0.8390 Uiso
C44 C 0.2392(4) 0.5164(2) 0.8404(2) 0.4647 Uani
C45 C 0.2555(6) 0.5505(3) 0.8397(2) 0.6787 Uani
H22 H 0.2572 0.5654 0.8553 0.8130 Uiso
C46 C 0.2702(6) 0.5649(2) 0.8167(2) 0.5790 Uani
H23 H 0.2791 0.5908 0.8161 0.6950 Uiso
C47 C 0.2957(3) 0.53902(19) 0.74736(17) 0.2377 Uani
H24 H 0.2900 0.5127 0.7439 0.2850 Uiso
C48 C 0.2890(4) 0.5573(2) 0.76987(19) 0.3013 Uani
Cu3A Cu -0.14372(2) 0.92677(2) 0.88719(2) 0.0879 Uani
Cu4A Cu -0.19229(2) 0.90132(2) 0.85052(2) 0.0932 Uani
O1A O -0.12320(10) 0.72915(10) 0.97240(6) 0.1157 Uani
O2A O -0.10530(9) 0.79151(8) 0.97254(5) 0.1003 Uani
O3A O -0.15598(9) 0.87838(8) 0.90469(6) 0.0999 Uani
O4A O -0.19217(9) 0.85395(9) 0.87146(6) 0.1060 Uani
O7A O -0.10613(11) 0.95105(15) 0.91680(7) 0.1637 Uani
O8A O -0.23068(12) 0.88024(11) 0.82105(8) 0.1413 Uani
O9A O 0.04839(10) 0.29886(9) 0.97322(6) 0.1140 Uani
O10A O 0.03144(10) 0.23609(9) 0.97260(6) 0.1093 Uani
O11A O -0.05114(8) 0.18986(9) 0.90263(6) 0.1007 Uani
O12A O -0.07762(9) 0.23158(8) 0.87424(6) 0.1060 Uani
O13A O -0.38385(9) 0.35457(10) 0.66719(6) 0.1111 Uani
O14A O -0.39938(9) 0.39482(8) 0.63406(6) 0.1020 Uani
O15A O -0.36090(8) 0.52839(8) 0.63595(6) 0.0969 Uani
O16A O -0.31535(9) 0.54763(8) 0.66528(6) 0.1002 Uani
N1A N -0.2106(2) 0.71349(14) 0.89563(13) 0.1930 Uani
N2A N -0.2445(3) 0.71531(19) 0.8843(2) 0.3613 Uani
N3A N -0.2543(3) 0.6801(2) 0.8782(2) 0.3063 Uani
N4A N -0.0600(3) 0.35902(15) 0.91948(13) 0.2357 Uani
N5A N -0.0527(4) 0.3868(2) 0.9353(2) 0.4310 Uani
N6A N -0.0722(5) 0.4161(2) 0.9288(2) 0.4957 Uani
N7A N -0.2247(4) 0.49657(18) 0.8675(2) 0.4387 Uani
N8A N -0.3110(3) 0.43761(15) 0.73124(13) 0.2670 Uani
N9A N -0.3140(5) 0.4055(2) 0.74353(19) 0.5143 Uani
N10A N -0.2983(4) 0.4079(2) 0.76588(18) 0.4037 Uani
C1A C -0.12229(14) 0.76264(13) 0.96400(8) 0.0913 Uani
C2A C -0.15005(14) 0.77135(14) 0.94042(9) 0.1017 Uani
C3A C -0.15240(13) 0.80745(13) 0.92977(9) 0.0960 Uani
H1A H -0.1387 0.8283 0.9375 0.1150 Uiso
C4A C -0.17508(13) 0.81353(13) 0.90744(9) 0.0970 Uani
C5A C -0.19431(16) 0.78402(16) 0.89634(12) 0.1287 Uani
H2A H -0.2087 0.7880 0.8806 0.1540 Uiso
C6A C -0.1931(2) 0.74694(16) 0.90816(13) 0.1490 Uani
C7A C -0.16990(17) 0.74107(15) 0.93015(11) 0.1247 Uani
H3A H -0.1679 0.7162 0.9379 0.1500 Uiso
C8A C -0.17343(13) 0.85210(12) 0.89288(9) 0.0900 Uani
C9A C -0.2001(3) 0.6788(2) 0.89759(16) 0.2110 Uani
H4A H -0.1779 0.6689 0.9063 0.2530 Uiso
C10A C -0.2282(3) 0.6584(2) 0.8842(2) 0.2333 Uani
C11A C -0.2243(4) 0.6145(2) 0.8793(2) 0.2977 Uani
C12A C -0.1924(4) 0.5950(3) 0.8816(3) 0.4407 Uani
H5A H -0.1696 0.6077 0.8872 0.5280 Uiso
C13A C -0.1914(4) 0.5575(3) 0.8765(2) 0.4303 Uani
H6A H -0.1672 0.5447 0.8769 0.5160 Uiso
C14A C -0.2227(4) 0.5370(2) 0.8706(2) 0.2943 Uani
C15A C -0.2552(4) 0.5555(3) 0.8693(3) 0.6110 Uani
H7A H -0.2780 0.5420 0.8647 0.7330 Uiso
C16A C -0.2569(4) 0.5962(3) 0.8748(3) 0.5113 Uani
H8A H -0.2809 0.6094 0.8752 0.6120 Uiso
C17A C 0.03087(15) 0.26996(14) 0.96508(8) 0.0957 Uani
C18A C -0.00017(17) 0.27888(13) 0.94494(9) 0.1103 Uani
C19A C -0.0134(2) 0.31580(17) 0.94084(12) 0.1687 Uani
H9A H -0.0025 0.3368 0.9502 0.2030 Uiso
C20A C -0.0439(3) 0.32224(17) 0.92226(13) 0.1753 Uani
C21A C -0.0571(2) 0.29193(15) 0.90662(12) 0.1487 Uani
H10A H -0.0763 0.2964 0.8936 0.1780 Uiso
C22A C -0.04244(15) 0.25586(14) 0.91000(9) 0.1047 Uani
C23A C -0.01552(14) 0.24898(14) 0.92968(9) 0.1057 Uani
H11A H -0.0073 0.2233 0.9329 0.1270 Uiso
C24A C -0.05649(13) 0.22230(13) 0.89348(9) 0.0950 Uani
C25A C -0.0873(4) 0.3699(2) 0.9038(2) 0.3137 Uani
H12A H -0.1000 0.3542 0.8912 0.3770 Uiso
C26A C -0.0947(5) 0.4080(3) 0.9085(2) 0.4053 Uani
C27A C -0.1328(4) 0.4303(2) 0.8986(2) 0.3713 Uani
C28A C -0.1405(5) 0.4246(3) 0.8748(2) 0.5297 Uani
H13A H -0.1269 0.4060 0.8647 0.6360 Uiso
C29A C -0.1683(5) 0.4455(4) 0.8643(3) 0.7627 Uani
H14A H -0.1751 0.4397 0.8466 0.9170 Uiso
C30A C -0.1884(4) 0.4747(2) 0.8762(2) 0.4183 Uani
C31A C -0.1793(5) 0.4804(4) 0.9013(3) 0.7783 Uani
H15A H -0.1922 0.4996 0.9113 0.9360 Uiso
C32A C -0.1501(5) 0.4574(4) 0.9129(2) 0.6213 Uani
H16A H -0.1430 0.4614 0.9307 0.7450 Uiso
C33A C -0.38415(12) 0.38663(13) 0.65527(9) 0.0907 Uani
C34A C -0.36505(14) 0.41944(13) 0.66970(9) 0.1007 Uani
C35A C -0.34967(19) 0.41392(15) 0.69355(11) 0.1387 Uani
H17A H -0.3520 0.3897 0.7021 0.1670 Uiso
C36A C -0.3295(2) 0.44510(17) 0.70603(12) 0.1500 Uani
C37A C -0.32694(17) 0.48079(15) 0.69445(11) 0.1313 Uani
H18A H -0.3146 0.5016 0.7032 0.1580 Uiso
C38A C -0.34298(13) 0.48552(13) 0.66953(9) 0.0970 Uani
C39A C -0.36263(12) 0.45553(13) 0.65760(8) 0.0917 Uani
H19A H -0.3746 0.4595 0.6410 0.1100 Uiso
C40A C -0.33828(13) 0.52473(12) 0.65482(9) 0.0903 Uani
C41A C -0.2722(4) 0.4566(2) 0.7956(2) 0.4310 Uani
C42A C -0.2539(5) 0.4894(3) 0.7947(2) 0.5597 Uani
H20A H -0.2515 0.5031 0.7785 0.6740 Uiso
C43A C -0.2382(5) 0.5038(3) 0.8177(3) 0.7020 Uani
H21A H -0.2264 0.5285 0.8175 0.8390 Uiso
C44A C -0.2392(4) 0.4836(2) 0.8404(2) 0.4647 Uani
C45A C -0.2555(6) 0.4495(3) 0.8397(2) 0.6787 Uani
H22A H -0.2572 0.4346 0.8553 0.8130 Uiso
C46A C -0.2702(6) 0.4351(2) 0.8167(2) 0.5790 Uani
H23A H -0.2791 0.4092 0.8161 0.6950 Uiso
C47A C -0.2957(3) 0.46098(19) 0.74736(17) 0.2377 Uani
H24A H -0.2900 0.4873 0.7439 0.2850 Uiso
C48A C -0.2890(4) 0.4427(2) 0.76987(19) 0.3013 Uani
Cu1A Cu -0.08862(3) 0.70979(2) 1.0000 0.0985 Uani
Cu2A Cu -0.06661(3) 0.78327(2) 1.0000 0.0929 Uani
Cu3B Cu -0.07323(2) 0.14372(2) 0.88719(2) 0.0879 Uani
Cu3C Cu 0.07323(2) 0.85628(2) 0.88719(2) 0.0879 Uani
Cu3L Cu 0.35628(2) 0.42677(2) 0.61281(2) 0.0879 Uani
Cu3M Cu -0.35628(2) 0.57323(2) 0.61281(2) 0.0879 Uani
Cu3N Cu -0.42677(2) 0.35628(2) 0.61281(2) 0.0879 Uani
Cu3O Cu 0.42677(2) 0.64372(2) 0.61281(2) 0.0879 Uani
Cu4B Cu -0.09868(2) 0.19229(2) 0.85052(2) 0.0932 Uani
Cu4C Cu 0.09868(2) 0.80771(2) 0.85052(2) 0.0932 Uani
Cu4L Cu 0.30771(2) 0.40132(2) 0.64948(2) 0.0932 Uani
Cu4M Cu -0.30771(2) 0.59868(2) 0.64948(2) 0.0932 Uani
Cu4N Cu -0.40132(2) 0.30771(2) 0.64948(2) 0.0932 Uani
Cu4O Cu 0.40132(2) 0.69229(2) 0.64948(2) 0.0932 Uani
O1I O 0.12320(10) 0.27085(10) 1.02760(6) 0.1157 Uani
O2I O 0.10530(9) 0.20849(8) 1.02746(5) 0.1003 Uani
O9H O 0.04839(10) 0.29886(9) 1.02678(6) 0.1140 Uani
O10H O 0.03144(10) 0.23609(9) 1.02740(6) 0.1093 Uani
O11B O 0.18986(9) 0.05114(8) 0.90263(6) 0.1007 Uani
O11C O -0.18986(9) 0.94886(8) 0.90263(6) 0.1007 Uani
O12B O 0.23158(8) 0.07762(9) 0.87424(6) 0.1060 Uani
O12C O -0.23158(8) 0.92238(9) 0.87424(6) 0.1060 Uani
O13N O 0.14543(10) 0.11615(9) 0.83281(6) 0.1111 Uani
O13O O -0.14543(10) 0.88385(9) 0.83281(6) 0.1111 Uani
O14N O 0.10518(8) 0.10062(9) 0.86594(6) 0.1020 Uani
O14O O -0.10518(8) 0.89938(9) 0.86594(6) 0.1020 Uani
O15L O 0.13910(8) 0.02839(8) 0.86405(6) 0.0969 Uani
O15M O -0.13910(8) 0.97161(8) 0.86405(6) 0.0969 Uani
O16L O 0.18465(9) 0.04763(8) 0.83472(6) 0.1002 Uani
O16M O -0.18465(9) 0.95237(8) 0.83472(6) 0.1002 Uani
loop_
_atom_site_aniso_label
_atom_site_aniso_U_11
_atom_site_aniso_U_22
_atom_site_aniso_U_33
_atom_site_aniso_U_23
_atom_site_aniso_U_13
_atom_site_aniso_U_12
Cu1 0.1317(7) 0.0822(6) 0.0817(5) 0.000 0.000 -0.0266(5)
Cu2 0.1226(7) 0.0812(5) 0.0749(5) 0.000 0.000 -0.0201(5)
Cu3 0.0892(4) 0.0885(4) 0.0861(4) 0.0217(3) 0.0111(3) 0.0059(3)
Cu4 0.0918(4) 0.0998(4) 0.0880(4) 0.0243(3) 0.0143(3) 0.0034(3)
O1 0.147(3) 0.090(2) 0.110(2) -0.0094(18) 0.020(2) -0.031(2)
O2 0.138(2) 0.0810(19) 0.0820(17) 0.0073(15) 0.0102(17) -0.0177(18)
O3 0.114(2) 0.094(2) 0.0918(19) 0.0207(16) 0.0211(16) -0.0024(17)
O4 0.108(2) 0.105(2) 0.105(2) 0.0271(17) 0.0256(18) 0.0040(18)
O5 0.180(5) 0.088(3) 0.160(4) 0.000 0.000 -0.037(3)
O6 0.126(4) 0.087(3) 0.387(11) 0.000 0.000 -0.014(3)
O7 0.128(3) 0.275(5) 0.088(2) 0.026(3) 0.0072(19) -0.077(3)
O8 0.158(3) 0.128(3) 0.138(3) 0.028(2) 0.045(2) -0.022(2)
O9 0.156(3) 0.090(2) 0.096(2) 0.0040(17) 0.0157(19) -0.024(2)
O10 0.144(3) 0.081(2) 0.103(2) -0.0024(17) 0.0148(19) -0.0199(19)
O11 0.107(2) 0.089(2) 0.106(2) -0.0049(17) 0.0277(17) -0.0053(17)
O12 0.124(2) 0.0880(19) 0.106(2) -0.0030(17) 0.0231(19) -0.0049(17)
O13 0.129(3) 0.112(2) 0.0923(19) -0.0141(18) 0.0346(18) -0.011(2)
O14 0.116(2) 0.096(2) 0.094(2) -0.0121(16) 0.0246(18) -0.0129(17)
O15 0.0946(19) 0.097(2) 0.099(2) 0.0140(16) 0.0262(17) -0.0031(16)
O16 0.106(2) 0.0937(19) 0.101(2) 0.0233(16) 0.0200(17) -0.0032(17)
N1 0.234(6) 0.076(3) 0.269(7) 0.010(3) 0.158(6) -0.001(3)
N2 0.365(11) 0.112(5) 0.607(18) 0.021(7) 0.379(13) 0.011(6)
N3 0.381(12) 0.093(4) 0.445(14) 0.030(6) 0.297(11) 0.019(6)
N4 0.423(11) 0.087(4) 0.197(6) 0.032(4) 0.190(7) 0.062(5)
N5 0.67(2) 0.157(6) 0.466(15) 0.155(8) 0.443(16) 0.198(10)
N6 0.85(3) 0.166(6) 0.471(16) 0.166(9) 0.530(19) 0.221(11)
N7 0.81(2) 0.095(4) 0.411(13) 0.048(6) 0.469(16) 0.037(8)
N8 0.514(13) 0.082(3) 0.205(6) -0.006(4) 0.250(8) -0.042(5)
N9 1.10(4) 0.136(6) 0.307(10) -0.060(6) 0.484(18) -0.174(11)
N10 0.79(3) 0.172(7) 0.249(9) -0.022(6) 0.336(13) -0.126(10)
C1 0.135(4) 0.071(3) 0.068(2) 0.012(2) 0.002(2) -0.031(3)
C2 0.120(4) 0.088(3) 0.097(3) 0.018(3) 0.017(3) -0.016(3)
C3 0.107(3) 0.083(3) 0.098(3) 0.012(2) 0.005(3) -0.013(3)
C4 0.100(3) 0.083(3) 0.108(3) 0.022(3) 0.020(3) -0.015(3)
C5 0.141(5) 0.102(4) 0.143(4) 0.012(3) 0.050(4) 0.017(3)
C6 0.185(6) 0.089(4) 0.173(6) 0.013(4) 0.083(5) -0.004(4)
C7 0.163(5) 0.089(3) 0.122(4) 0.007(3) 0.040(4) -0.006(3)
C8 0.091(3) 0.071(3) 0.108(3) 0.029(3) 0.020(3) 0.008(2)
C9 0.303(10) 0.098(5) 0.232(8) 0.033(5) 0.158(8) 0.045(6)
C10 0.308(11) 0.116(6) 0.276(10) 0.028(6) 0.197(10) 0.026(7)
C11 0.432(17) 0.137(7) 0.324(13) 0.028(7) 0.297(13) -0.005(9)
C12 0.66(3) 0.192(11) 0.47(2) 0.147(12) 0.46(2) 0.161(14)
C13 0.68(3) 0.141(8) 0.47(2) 0.141(10) 0.46(2) 0.108(12)
C14 0.468(18) 0.121(7) 0.294(12) 0.061(7) 0.270(13) 0.080(9)
C15 0.92(4) 0.123(8) 0.79(4) 0.069(13) 0.73(4) 0.065(15)
C16 0.73(3) 0.124(8) 0.68(3) 0.028(11) 0.59(3) 0.029(12)
C17 0.148(4) 0.077(3) 0.062(2) 0.003(2) 0.016(2) -0.031(3)
C18 0.166(5) 0.065(3) 0.100(3) -0.004(2) 0.023(3) -0.014(3)
C19 0.286(9) 0.096(4) 0.124(4) 0.011(3) 0.080(5) -0.003(5)
C20 0.286(9) 0.085(4) 0.155(5) 0.009(4) 0.102(6) 0.014(5)
C21 0.221(7) 0.085(4) 0.140(5) 0.004(3) 0.082(5) -0.005(4)
C22 0.129(4) 0.082(3) 0.103(3) -0.006(3) 0.035(3) -0.014(3)
C23 0.123(4) 0.088(3) 0.106(3) -0.008(3) 0.009(3) -0.014(3)
C24 0.098(3) 0.083(3) 0.104(3) -0.027(3) 0.035(3) -0.012(2)
C25 0.56(2) 0.085(5) 0.296(11) 0.034(6) 0.292(14) 0.073(8)
C26 0.75(3) 0.160(8) 0.306(13) 0.099(8) 0.373(18) 0.166(12)
C27 0.72(3) 0.112(6) 0.282(11) 0.075(6) 0.345(15) 0.167(10)
C28 0.96(4) 0.169(9) 0.46(2) 0.118(11) 0.57(3) 0.208(15)
C29 1.31(6) 0.188(11) 0.79(4) 0.264(18) 0.88(5) 0.28(2)
C30 0.75(3) 0.099(5) 0.406(16) 0.050(7) 0.47(2) 0.082(10)
C31 1.32(6) 0.205(12) 0.81(4) 0.140(18) 0.94(5) 0.20(2)
C32 1.02(4) 0.214(11) 0.63(3) 0.201(16) 0.69(3) 0.30(2)
C33 0.092(3) 0.093(3) 0.087(3) -0.022(3) 0.032(2) -0.017(2)
C34 0.128(4) 0.087(3) 0.087(3) -0.005(2) 0.038(3) -0.007(3)
C35 0.206(6) 0.094(3) 0.116(4) -0.007(3) 0.071(4) -0.005(4)
C36 0.212(7) 0.108(4) 0.130(4) -0.002(4) 0.090(5) -0.026(4)
C37 0.172(5) 0.088(4) 0.134(4) 0.004(3) 0.063(4) -0.011(3)
C38 0.109(3) 0.089(3) 0.093(3) 0.014(2) 0.029(3) 0.001(3)
C39 0.097(3) 0.106(3) 0.072(2) 0.011(2) 0.020(2) -0.002(3)
C40 0.093(3) 0.072(3) 0.106(3) 0.040(2) 0.027(3) 0.004(2)
C41 0.81(3) 0.076(4) 0.407(15) -0.008(7) 0.501(19) -0.023(9)
C42 1.05(4) 0.139(8) 0.49(2) 0.007(10) 0.64(3) -0.018(15)
C43 1.25(6) 0.166(9) 0.69(3) -0.020(14) 0.84(4) -0.010(18)
C44 0.84(3) 0.091(5) 0.463(18) 0.033(8) 0.54(2) 0.026(10)
C45 1.38(6) 0.136(8) 0.52(2) 0.068(11) 0.73(4) 0.071(18)
C46 1.22(5) 0.117(6) 0.400(17) -0.003(9) 0.60(3) 0.000(14)
C47 0.398(13) 0.106(4) 0.209(8) 0.006(5) 0.211(9) 0.000(6)
C48 0.55(2) 0.121(6) 0.233(9) -0.009(6) 0.276(12) -0.052(8)
Cu3A 0.0892 0.0885 0.0861 -0.0217 -0.0111 0.0059
Cu4A 0.0918 0.0998 0.088 -0.0243 -0.0143 0.0034
O1A 0.147 0.09 0.11 0.0094 -0.02 -0.031
O2A 0.138 0.081 0.082 -0.0073 -0.0102 -0.0177
O3A 0.114 0.094 0.0918 -0.0207 -0.0211 -0.0024
O4A 0.108 0.105 0.105 -0.0271 -0.0256 0.004
O7A 0.128 0.275 0.088 -0.026 -0.0072 -0.077
O8A 0.158 0.128 0.138 -0.028 -0.045 -0.022
O9A 0.156 0.09 0.096 -0.004 -0.0157 -0.024
O10A 0.144 0.081 0.103 0.0024 -0.0148 -0.0199
O11A 0.107 0.089 0.106 0.0049 -0.0277 -0.0053
O12A 0.124 0.088 0.106 0.003 -0.0231 -0.0049
O13A 0.129 0.112 0.0923 0.0141 -0.0346 -0.011
O14A 0.116 0.096 0.094 0.0121 -0.0246 -0.0129
O15A 0.0946 0.097 0.099 -0.014 -0.0262 -0.0031
O16A 0.106 0.0937 0.101 -0.0233 -0.02 -0.0032
N1A 0.234 0.076 0.269 -0.01 -0.158 -0.001
N2A 0.365 0.112 0.607 -0.021 -0.379 0.011
N3A 0.381 0.093 0.445 -0.03 -0.297 0.019
N4A 0.423 0.087 0.197 -0.032 -0.19 0.062
N5A 0.67 0.157 0.466 -0.155 -0.443 0.198
N6A 0.85 0.166 0.471 -0.166 -0.53 0.221
N7A 0.81 0.095 0.411 -0.048 -0.469 0.037
N8A 0.514 0.082 0.205 0.006 -0.25 -0.042
N9A 1.1 0.136 0.307 0.06 -0.484 -0.174
N10A 0.79 0.172 0.249 0.022 -0.336 -0.126
C1A 0.135 0.071 0.068 -0.012 -0.002 -0.031
C2A 0.12 0.088 0.097 -0.018 -0.017 -0.016
C3A 0.107 0.083 0.098 -0.012 -0.005 -0.013
C4A 0.1 0.083 0.108 -0.022 -0.02 -0.015
C5A 0.141 0.102 0.143 -0.012 -0.05 0.017
C6A 0.185 0.089 0.173 -0.013 -0.083 -0.004
C7A 0.163 0.089 0.122 -0.007 -0.04 -0.006
C8A 0.091 0.071 0.108 -0.029 -0.02 0.008
C9A 0.303 0.098 0.232 -0.033 -0.158 0.045
C10A 0.308 0.116 0.276 -0.028 -0.197 0.026
C11A 0.432 0.137 0.324 -0.028 -0.297 -0.005
C12A 0.66 0.192 0.47 -0.147 -0.46 0.161
C13A 0.68 0.141 0.47 -0.141 -0.46 0.108
C14A 0.468 0.121 0.294 -0.061 -0.27 0.08
C15A 0.92 0.123 0.79 -0.069 -0.73 0.065
C16A 0.73 0.124 0.68 -0.028 -0.59 0.029
C17A 0.148 0.077 0.062 -0.003 -0.016 -0.031
C18A 0.166 0.065 0.1 0.004 -0.023 -0.014
C19A 0.286 0.096 0.124 -0.011 -0.08 -0.003
C20A 0.286 0.085 0.155 -0.009 -0.102 0.014
C21A 0.221 0.085 0.14 -0.004 -0.082 -0.005
C22A 0.129 0.082 0.103 0.006 -0.035 -0.014
C23A 0.123 0.088 0.106 0.008 -0.009 -0.014
C24A 0.098 0.083 0.104 0.027 -0.035 -0.012
C25A 0.56 0.085 0.296 -0.034 -0.292 0.073
C26A 0.75 0.16 0.306 -0.099 -0.373 0.166
C27A 0.72 0.112 0.282 -0.075 -0.345 0.167
C28A 0.96 0.169 0.46 -0.118 -0.57 0.208
C29A 1.31 0.188 0.79 -0.264 -0.88 0.28
C30A 0.75 0.099 0.406 -0.05 -0.47 0.082
C31A 1.32 0.205 0.81 -0.14 -0.94 0.2
C32A 1.02 0.214 0.63 -0.201 -0.69 0.3
C33A 0.092 0.093 0.087 0.022 -0.032 -0.017
C34A 0.128 0.087 0.087 0.005 -0.038 -0.007
C35A 0.206 0.094 0.116 0.007 -0.071 -0.005
C36A 0.212 0.108 0.13 0.002 -0.09 -0.026
C37A 0.172 0.088 0.134 -0.004 -0.063 -0.011
C38A 0.109 0.089 0.093 -0.014 -0.029 0.001
C39A 0.097 0.106 0.072 -0.011 -0.02 -0.002
C40A 0.093 0.072 0.106 -0.04 -0.027 0.004
C41A 0.81 0.076 0.407 0.008 -0.501 -0.023
C42A 1.05 0.139 0.49 -0.007 -0.64 -0.018
C43A 1.25 0.166 0.69 0.02 -0.84 -0.01
C44A 0.84 0.091 0.463 -0.033 -0.54 0.026
C45A 1.38 0.136 0.52 -0.068 -0.73 0.071
C46A 1.22 0.117 0.4 0.003 -0.6 0
C47A 0.398 0.106 0.209 -0.006 -0.211 0
C48A 0.55 0.121 0.233 0.009 -0.276 -0.052
Cu1A 0.1317 0.0822 0.0817 0 0 -0.0266
Cu2A 0.1226 0.0812 0.0749 0 0 -0.0201
Cu3B 0.0885 0.0892 0.0861 0.0111 -0.0217 -0.0059
Cu3C 0.0885 0.0892 0.0861 -0.0111 0.0217 -0.0059
Cu3L 0.0892 0.0885 0.0861 0.0217 0.0111 0.0059
Cu3M 0.0892 0.0885 0.0861 -0.0217 -0.0111 0.0059
Cu3N 0.0885 0.0892 0.0861 0.0111 -0.0217 -0.0059
Cu3O 0.0885 0.0892 0.0861 -0.0111 0.0217 -0.0059
Cu4B 0.0998 0.0918 0.088 0.0143 -0.0243 -0.0034
Cu4C 0.0998 0.0918 0.088 -0.0143 0.0243 -0.0034
Cu4L 0.0918 0.0998 0.088 0.0243 0.0143 0.0034
Cu4M 0.0918 0.0998 0.088 -0.0243 -0.0143 0.0034
Cu4N 0.0998 0.0918 0.088 0.0143 -0.0243 -0.0034
Cu4O 0.0998 0.0918 0.088 -0.0143 0.0243 -0.0034
O1I 0.147 0.09 0.11 0.0094 -0.02 -0.031
O2I 0.138 0.081 0.082 -0.0073 -0.0102 -0.0177
O9H 0.156 0.09 0.096 0.004 0.0157 -0.024
O10H 0.144 0.081 0.103 -0.0024 0.0148 -0.0199
O11B 0.089 0.107 0.106 0.0277 0.0049 0.0053
O11C 0.089 0.107 0.106 -0.0277 -0.0049 0.0053
O12B 0.088 0.124 0.106 0.0231 0.003 0.0049
O12C 0.088 0.124 0.106 -0.0231 -0.003 0.0049
O13N 0.112 0.129 0.0923 0.0346 0.0141 0.011
O13O 0.112 0.129 0.0923 -0.0346 -0.0141 0.011
O14N 0.096 0.116 0.094 0.0246 0.0121 0.0129
O14O 0.096 0.116 0.094 -0.0246 -0.0121 0.0129
O15L 0.0946 0.097 0.099 0.014 0.0262 -0.0031
O15M 0.0946 0.097 0.099 -0.014 -0.0262 -0.0031
O16L 0.106 0.0937 0.101 0.0233 0.02 -0.0032
O16M 0.106 0.0937 0.101 -0.0233 -0.02 -0.0032
loop_
_geom_bond_atom_site_label_1
_geom_bond_atom_site_label_2
_geom_bond_site_symmetry_1
_geom_bond_site_symmetry_2
Cu1 Cu2 1_555 1_555
Cu2 O2 1_555 1_555
Cu3 Cu4 1_555 1_555
Cu4 O4 1_555 1_555
O1 Cu1 1_555 1_555
O2 C1 1_555 1_555
O3 Cu3 1_555 1_555
O4 C8 1_555 1_555
O5 Cu1 1_555 1_555
O6 Cu2 1_555 1_555
O7 Cu3 1_555 1_555
O8 Cu4 1_555 1_555
O9 C17 1_555 1_555
O10 C17 1_555 1_555
O11 C24 1_555 1_555
O12 C24 1_555 1_555
O13 C33 1_555 1_555
O14 C33 1_555 1_555
O15 C40 1_555 1_555
O16 C40 1_555 1_555
N1 N2 1_555 1_555
N2 N3 1_555 1_555
N3 C10 1_555 1_555
N4 N5 1_555 1_555
N5 N6 1_555 1_555
N6 C26 1_555 1_555
N7 C14 1_555 1_555
N8 N9 1_555 1_555
N9 N10 1_555 1_555
N10 C48 1_555 1_555
C1 O1 1_555 1_555
C2 C1 1_555 1_555
C3 C2 1_555 1_555
H1 C3 1_555 1_555
C4 C3 1_555 1_555
C5 C4 1_555 1_555
H2 C5 1_555 1_555
C6 N1 1_555 1_555
C7 C2 1_555 1_555
H3 C7 1_555 1_555
C8 O3 1_555 1_555
C9 N1 1_555 1_555
H4 C9 1_555 1_555
C10 C9 1_555 1_555
C11 C10 1_555 1_555
C12 C11 1_555 1_555
H5 C12 1_555 1_555
C13 C12 1_555 1_555
H6 C13 1_555 1_555
C14 C13 1_555 1_555
C15 C14 1_555 1_555
H7 C15 1_555 1_555
C16 C11 1_555 1_555
H8 C16 1_555 1_555
C17 C18 1_555 1_555
C18 C19 1_555 1_555
C19 H9 1_555 1_555
C20 N4 1_555 1_555
C21 C20 1_555 1_555
H10 C21 1_555 1_555
C22 C21 1_555 1_555
C23 C18 1_555 1_555
H11 C23 1_555 1_555
C24 C22 1_555 1_555
C25 N4 1_555 1_555
H12 C25 1_555 1_555
C26 C25 1_555 1_555
C27 C26 1_555 1_555
C28 C27 1_555 1_555
H13 C28 1_555 1_555
C29 C28 1_555 1_555
H14 C29 1_555 1_555
C30 N7 1_555 1_555
C31 C30 1_555 1_555
H15 C31 1_555 1_555
C32 C27 1_555 1_555
H16 C32 1_555 1_555
C33 C34 1_555 1_555
C34 C35 1_555 1_555
C35 H17 1_555 1_555
C36 N8 1_555 1_555
C37 C36 1_555 1_555
H18 C37 1_555 1_555
C38 C37 1_555 1_555
C39 C34 1_555 1_555
H19 C39 1_555 1_555
C40 C38 1_555 1_555
C41 C42 1_555 1_555
C42 H20 1_555 1_555
C43 C42 1_555 1_555
H21 C43 1_555 1_555
C44 N7 1_555 1_555
C45 C44 1_555 1_555
H22 C45 1_555 1_555
C46 C41 1_555 1_555
H23 C46 1_555 1_555
C47 N8 1_555 1_555
H24 C47 1_555 1_555
C48 C41 1_555 1_555
Cu3A Cu4A 1_555 1_555
Cu4A O4A 1_555 1_555
O1A C1A 1_555 1_555
O2A C1A 1_555 1_555
O3A Cu3A 1_555 1_555
O4A C8A 1_555 1_555
O7A Cu3A 1_555 1_555
O8A Cu4A 1_555 1_555
O9A Cu1 1_555 1_555
O10A Cu2 1_555 1_555
O11A C24A 1_555 1_555
O12A C24A 1_555 1_555
O13A C33A 1_555 1_555
O14A C33A 1_555 1_555
O15A C40A 1_555 1_555
O16A C40A 1_555 1_555
N1A N2A 1_555 1_555
N2A N3A 1_555 1_555
N3A C10A 1_555 1_555
N4A N5A 1_555 1_555
N5A N6A 1_555 1_555
N6A C26A 1_555 1_555
N7A C14A 1_555 1_555
N8A N9A 1_555 1_555
N9A N10A 1_555 1_555
N10A C48A 1_555 1_555
C1A C2A 1_555 1_555
C2A C3A 1_555 1_555
C3A H1A 1_555 1_555
C4A C3A 1_555 1_555
C5A C4A 1_555 1_555
H2A C5A 1_555 1_555
C6A N1A 1_555 1_555
C7A C2A 1_555 1_555
H3A C7A 1_555 1_555
C8A O3A 1_555 1_555
C9A N1A 1_555 1_555
H4A C9A 1_555 1_555
C10A C9A 1_555 1_555
C11A C10A 1_555 1_555
C12A C11A 1_555 1_555
H5A C12A 1_555 1_555
C13A C12A 1_555 1_555
H6A C13A 1_555 1_555
C14A C13A 1_555 1_555
C15A C14A 1_555 1_555
H7A C15A 1_555 1_555
C16A C11A 1_555 1_555
H8A C16A 1_555 1_555
C17A O9A 1_555 1_555
C18A C17A 1_555 1_555
C19A C18A 1_555 1_555
H9A C19A 1_555 1_555
C20A N4A 1_555 1_555
C21A C20A 1_555 1_555
H10A C21A 1_555 1_555
C22A C21A 1_555 1_555
C23A C18A 1_555 1_555
H11A C23A 1_555 1_555
C24A C22A 1_555 1_555
C25A N4A 1_555 1_555
H12A C25A 1_555 1_555
C26A C25A 1_555 1_555
C27A C26A 1_555 1_555
C28A C27A 1_555 1_555
H13A C28A 1_555 1_555
C29A C28A 1_555 1_555
H14A C29A 1_555 1_555
C30A N7A 1_555 1_555
C31A C30A 1_555 1_555
H15A C31A 1_555 1_555
C32A C27A 1_555 1_555
H16A C32A 1_555 1_555
C33A C34A 1_555 1_555
C34A C35A 1_555 1_555
C35A H17A 1_555 1_555
C36A N8A 1_555 1_555
C37A C36A 1_555 1_555
H18A C37A 1_555 1_555
C38A C37A 1_555 1_555
C39A C34A 1_555 1_555
H19A C39A 1_555 1_555
C40A C38A 1_555 1_555
C41A C42A 1_555 1_555
C42A H20A 1_555 1_555
C43A C42A 1_555 1_555
H21A C43A 1_555 1_555
C44A N7A 1_555 1_555
C45A C44A 1_555 1_555
H22A C45A 1_555 1_555
C46A C41A 1_555 1_555
H23A C46A 1_555 1_555
C47A N8A 1_555 1_555
H24A C47A 1_555 1_555
C48A C41A 1_555 1_555
Cu1A O9 1_555 1_555
Cu2A O10 1_555 1_555
Cu3B O11A 1_555 1_555
Cu3C O11 1_555 1_555
Cu3L O15 1_555 1_555
Cu3M O15A 1_555 1_555
Cu3N O14A 1_555 1_555
Cu3O O14 1_555 1_555
Cu4B O12A 1_555 1_555
Cu4C O12 1_555 1_555
Cu4L O16 1_555 1_555
Cu4M O16A 1_555 1_555
Cu4N O13A 1_555 1_555
Cu4O O13 1_555 1_555
O1I Cu1 1_555 1_555
O2I Cu2 1_555 1_555
O9H Cu1 1_555 1_555
O10H Cu2 1_555 1_555
O11B Cu3 1_555 1_555
O11C Cu3A 1_555 1_555
O12B Cu4 1_555 1_555
O12C Cu4A 1_555 1_555
O13N Cu4 1_555 1_555
O13O Cu4A 1_555 1_555
O14N Cu3 1_555 1_555
O14O Cu3A 1_555 1_555
O15L Cu3 1_555 1_555
O15M Cu3A 1_555 1_555
O16L Cu4 1_555 1_555
O16M Cu4A 1_555 1_555
C4 C8 1_555 1_555
C5 C6 1_555 1_555
C6 C7 1_555 1_555
C15 C16 1_555 1_555
C19 C20 1_555 1_555
C22 C23 1_555 1_555
C29 C30 1_555 1_555
C31 C32 1_555 1_555
C35 C36 1_555 1_555
C38 C39 1_555 1_555
C43 C44 1_555 1_555
C45 C46 1_555 1_555
C47 C48 1_555 1_555
O1A Cu1A 1_555 1_555
O2A Cu2A 1_555 1_555
O10A C17A 1_555 1_555
C4A C8A 1_555 1_555
C5A C6A 1_555 1_555
C6A C7A 1_555 1_555
C15A C16A 1_555 1_555
C19A C20A 1_555 1_555
C22A C23A 1_555 1_555
C29A C30A 1_555 1_555
C31A C32A 1_555 1_555
C35A C36A 1_555 1_555
C38A C39A 1_555 1_555
C43A C44A 1_555 1_555
C45A C46A 1_555 1_555
C47A C48A 1_555 1_555
Cu1A Cu2A 1_555 1_555
Cu3B Cu4B 1_555 1_555
Cu3C Cu4C 1_555 1_555
Cu3L Cu4L 1_555 1_555
Cu3M Cu4M 1_555 1_555
Cu3N Cu4N 1_555 1_555
Cu3O Cu4O 1_555 1_555

#END
