
#######################################################################
#
#                 Cambridge Crystallographic Data Centre
#                                CCDC 
#
#######################################################################
#
# If this CIF has been generated from an entry in the Cambridge 
# Structural Database, then it will include bibliographic, chemical, 
# crystal, experimental, refinement or atomic coordinate data resulting 
# from the CCDC's data processing and validation procedures.
#
#######################################################################

data_PODKUQ
_chemical_formula_moiety         '(C108 H66 Cu6 N18 O30)n'
_symmetry_cell_setting           tetragonal
_symmetry_space_group_name_H-M   'I 4/m'
_symmetry_Int_Tables_number      87
_space_group_name_Hall           '-I 4'
loop_
_symmetry_equiv_pos_site_id
_symmetry_equiv_pos_as_xyz
1 x,y,z
2 -y,x,z
3 -x,-y,z
4 y,-x,z
5 1/2+x,1/2+y,1/2+z
6 1/2-y,1/2+x,1/2+z
7 1/2-x,1/2-y,1/2+z
8 1/2+y,1/2-x,1/2+z
9 -x,-y,-z
10 y,-x,-z
11 x,y,-z
12 -y,x,-z
13 1/2-x,1/2-y,1/2-z
14 1/2+y,1/2-x,1/2-z
15 1/2+x,1/2+y,1/2-z
16 1/2-y,1/2+x,1/2-z
_cell_length_a                   36.7876(13)
_cell_length_b                   36.7876(13)
_cell_length_c                   54.618(2)
_cell_angle_alpha                90
_cell_angle_beta                 90
_cell_angle_gamma                90
_cell_volume                     73916
loop_
_atom_site_label
_atom_site_type_symbol
_atom_site_fract_x
_atom_site_fract_y
_atom_site_fract_z
_atom_site_U_iso_or_equiv
_atom_site_thermal_displace_type
Cu1 Cu 0.93769(2) 0.86085(2) 0.60397(2) 0.0621 Uani
Cu2 Cu 0.91632(2) 0.81393(2) 0.63811(2) 0.0650 Uani
Cu3 Cu 0.90057(2) 0.27039(2) 0.5000 0.0653 Uani
Cu4 Cu 0.92499(2) 0.20238(2) 0.5000 0.0625 Uani
O1 O 0.93808(7) 0.77876(6) 0.61600(4) 0.0738 Uani
O2 O 0.96138(7) 0.81927(7) 0.58915(4) 0.0753 Uani
O3 O 1.04343(7) 0.77815(7) 0.52528(4) 0.0816 Uani
O4 O 1.06237(7) 0.71968(7) 0.52473(4) 0.0824 Uani
O5 O 0.90037(8) 0.77430(9) 0.66472(5) 0.1140 Uani
O6 O 0.95531(13) 0.89843(8) 0.57673(5) 0.1525 Uani
O7 O 0.86906(7) 0.24976(8) 0.52536(4) 0.0815 Uani
O8 O 0.88894(7) 0.19236(7) 0.52504(4) 0.0696 Uani
O9 O 0.84692(7) 0.10786(7) 0.58854(4) 0.0726 Uani
O10 O 0.81142(7) 0.12893(6) 0.61912(4) 0.0741 Uani
O11 O 0.87502(13) 0.32335(11) 0.5000 0.1143 Uani
O12 O 0.94893(12) 0.14948(11) 0.5000 0.1493 Uani
O13 O 0.67585(7) 0.46403(7) 0.84751(4) 0.0772 Uani
O14 O 0.63281(7) 0.47988(6) 0.87442(5) 0.0736 Uani
O15 O 0.58984(7) 0.60448(6) 0.87628(4) 0.0732 Uani
O16 O 0.60283(7) 0.64347(7) 0.84539(4) 0.0763 Uani
N1 N 0.96700(17) 0.65746(11) 0.57966(9) 0.1593 Uani
N2 N 0.9848(2) 0.62892(16) 0.57302(16) 0.2910 Uani
N3 N 0.9667(3) 0.60122(15) 0.57993(18) 0.3133 Uani
N4 N 0.78968(13) 0.26100(10) 0.59906(8) 0.1287 Uani
N5 N 0.76185(17) 0.25713(13) 0.61384(12) 0.2160 Uani
N6 N 0.7546(2) 0.29008(14) 0.62128(13) 0.2463 Uani
N7 N 0.68050(15) 0.56897(11) 0.78819(8) 0.1487 Uani
N8 N 0.6800(2) 0.60203(14) 0.77852(10) 0.2237 Uani
N9 N 0.6987(2) 0.59906(15) 0.75798(11) 0.2540 Uani
C1 C 0.95689(10) 0.78722(11) 0.59739(7) 0.0697 Uani
C2 C 0.97359(11) 0.75663(11) 0.58323(7) 0.0773 Uani
C3 C 0.99854(10) 0.76395(11) 0.56413(7) 0.0747 Uani
H1 H 1.0041 0.7884 0.5600 0.0900 Uiso
C4 C 1.01475(11) 0.73629(10) 0.55154(7) 0.0757 Uani
C5 C 1.00499(15) 0.70118(12) 0.55577(8) 0.1137 Uani
H2 H 1.0155 0.6820 0.5465 0.1370 Uiso
C6 C 0.97886(16) 0.69370(12) 0.57429(10) 0.1200 Uani
C7 C 0.96399(13) 0.72144(12) 0.58797(8) 0.1047 Uani
H3 H 0.9471 0.7161 0.6006 0.1260 Uiso
C8 C 1.04250(12) 0.74605(12) 0.53272(7) 0.0747 Uani
C9 C 0.9400(2) 0.64806(15) 0.59184(13) 0.2037 Uani
H4 H 0.9238 0.6641 0.6000 0.2440 Uiso
C10 C 0.9375(3) 0.61182(18) 0.59170(15) 0.2593 Uani
C11 C 0.9071(3) 0.58691(16) 0.60048(16) 0.2693 Uani
C12 C 0.9077(3) 0.55247(19) 0.5994(2) 0.3673 Uani
H5 H 0.9266 0.5415 0.5901 0.4410 Uiso
C13 C 0.8830(4) 0.52993(19) 0.6107(2) 0.3847 Uani
H6 H 0.8856 0.5044 0.6090 0.4610 Uiso
C14 C 0.8553(3) 0.54320(17) 0.62397(17) 0.2953 Uani
C15 C 0.8510(3) 0.58116(19) 0.62288(18) 0.3540 Uani
H7 H 0.8302 0.5926 0.6297 0.4250 Uiso
C16 C 0.8780(3) 0.6016(2) 0.61145(19) 0.2987 Uani
H8 H 0.8757 0.6273 0.6114 0.3580 Uiso
C17 C 0.8271(3) 0.52017(16) 0.63657(16) 0.3087 Uani
C18 C 0.8179(3) 0.48559(16) 0.62780(16) 0.3057 Uani
H9 H 0.8274 0.4777 0.6125 0.3670 Uiso
C19 C 0.7960(3) 0.46326(16) 0.64057(16) 0.3080 Uani
C20 C 0.7782(3) 0.47794(17) 0.66110(17) 0.3397 Uani
H10 H 0.7647 0.4622 0.6715 0.4080 Uiso
C21 C 0.7797(3) 0.51359(16) 0.66645(15) 0.2683 Uani
C22 C 0.8087(3) 0.53473(16) 0.65554(15) 0.3003 Uani
H11 H 0.8146 0.5582 0.6616 0.3610 Uiso
C23 C 0.7898(3) 0.42608(16) 0.63385(19) 0.3313 Uani
C24 C 0.8064(3) 0.4116(2) 0.61513(16) 0.2970 Uani
H12 H 0.8201 0.4266 0.6045 0.3560 Uiso
C25 C 0.8042(3) 0.37347(18) 0.61033(17) 0.3310 Uani
H13 H 0.8217 0.3632 0.5995 0.3970 Uiso
C26 C 0.7805(3) 0.35233(17) 0.61952(14) 0.2233 Uani
C27 C 0.7563(4) 0.3698(2) 0.6336(2) 0.4213 Uani
H14 H 0.7344 0.3579 0.6381 0.5060 Uiso
C28 C 0.7624(4) 0.4035(2) 0.6415(2) 0.4097 Uani
H15 H 0.7462 0.4128 0.6535 0.4910 Uiso
C29 C 0.7790(2) 0.31343(13) 0.61310(13) 0.1923 Uani
C30 C 0.79941(18) 0.29602(14) 0.59787(11) 0.1530 Uani
H16 H 0.8178 0.3061 0.5877 0.1840 Uiso
C31 C 0.80760(13) 0.23076(11) 0.58667(9) 0.0990 Uani
C32 C 0.82654(12) 0.23719(11) 0.56544(7) 0.0877 Uani
H17 H 0.8264 0.2607 0.5582 0.1060 Uiso
C33 C 0.84546(10) 0.20975(10) 0.55488(6) 0.0667 Uani
C34 C 0.84528(10) 0.17534(11) 0.56502(6) 0.0707 Uani
H18 H 0.8585 0.1563 0.5574 0.0850 Uiso
C35 C 0.82565(10) 0.16843(10) 0.58665(6) 0.0650 Uani
C36 C 0.80700(12) 0.19646(12) 0.59728(7) 0.0883 Uani
H19 H 0.7936 0.1925 0.6119 0.1060 Uiso
C37 C 0.87001(11) 0.21720(11) 0.53326(6) 0.0667 Uani
C38 C 0.82829(10) 0.13244(10) 0.59893(7) 0.0653 Uani
C39 C 0.7612(3) 0.52672(15) 0.68981(14) 0.2620 Uani
C40 C 0.7533(3) 0.50395(15) 0.70844(14) 0.2470 Uani
H20 H 0.7607 0.4792 0.7077 0.2960 Uiso
C41 C 0.7344(2) 0.51658(16) 0.72869(13) 0.2287 Uani
H21 H 0.7255 0.4996 0.7403 0.2740 Uiso
C42 C 0.7284(3) 0.55180(16) 0.73233(13) 0.2337 Uani
C43 C 0.7331(3) 0.57651(17) 0.71198(15) 0.3007 Uani
H22 H 0.7241 0.6007 0.7127 0.3610 Uiso
C44 C 0.7517(3) 0.56359(18) 0.69100(14) 0.2850 Uani
H23 H 0.7577 0.5796 0.6780 0.3420 Uiso
C45 C 0.7085(2) 0.56517(15) 0.75419(12) 0.1863 Uani
C46 C 0.69600(17) 0.54602(13) 0.77307(10) 0.1480 Uani
H24 H 0.6979 0.5205 0.7752 0.1780 Uiso
C47 C 0.66239(14) 0.56158(13) 0.81071(8) 0.1037 Uani
C48 C 0.66542(12) 0.52790(12) 0.82143(7) 0.0907 Uani
H25 H 0.6793 0.5094 0.8138 0.1090 Uiso
C49 C 0.64805(10) 0.52103(10) 0.84354(7) 0.0680 Uani
C50 C 0.62725(10) 0.54832(11) 0.85466(7) 0.0697 Uani
H26 H 0.6149 0.5436 0.8696 0.0840 Uiso
C51 C 0.62476(11) 0.58210(11) 0.84382(7) 0.0750 Uani
C52 C 0.64186(13) 0.58951(12) 0.82122(7) 0.0977 Uani
H27 H 0.6395 0.6125 0.8135 0.1170 Uiso
C53 C 0.65258(10) 0.48621(10) 0.85599(7) 0.0660 Uani
C54 C 0.60426(10) 0.61361(12) 0.85603(7) 0.0690 Uani
Cu1A Cu 0.13915(2) 0.93769(2) 0.60397(2) 0.0621 Uani
Cu2A Cu 0.18607(2) 0.91632(2) 0.63811(2) 0.0650 Uani
O1A O 0.22124(6) 0.93808(7) 0.61600(4) 0.0738 Uani
O2A O 0.18073(7) 0.96138(7) 0.58915(4) 0.0753 Uani
O3A O 0.22185(7) 1.04343(7) 0.52528(4) 0.0816 Uani
O4A O 0.28032(7) 1.06237(7) 0.52473(4) 0.0824 Uani
O5A O 0.22570(9) 0.90037(8) 0.66472(5) 0.1140 Uani
O6A O 0.10157(8) 0.95531(13) 0.57673(5) 0.1525 Uani
O7A O 0.75024(8) 0.86906(7) 0.52536(4) 0.0815 Uani
O8A O 0.80764(7) 0.88894(7) 0.52504(4) 0.0696 Uani
O9A O 0.89214(7) 0.84692(7) 0.58854(4) 0.0726 Uani
O10A O 0.87107(6) 0.81142(7) 0.61912(4) 0.0741 Uani
O13A O 0.53597(7) 0.67585(7) 0.84751(4) 0.0772 Uani
O14A O 0.52012(6) 0.63281(7) 0.87442(5) 0.0736 Uani
O15A O 0.39552(6) 0.58984(7) 0.87628(4) 0.0732 Uani
O16A O 0.35653(7) 0.60283(7) 0.84539(4) 0.0763 Uani
N1A N 0.34254(11) 0.96700(17) 0.57966(9) 0.1593 Uani
N2A N 0.37108(16) 0.9848(2) 0.57302(16) 0.2910 Uani
N3A N 0.39878(15) 0.9667(3) 0.57993(18) 0.3133 Uani
N4A N 0.73900(10) 0.78968(13) 0.59906(8) 0.1287 Uani
N5A N 0.74287(13) 0.76185(17) 0.61384(12) 0.2160 Uani
N6A N 0.70992(14) 0.7546(2) 0.62128(13) 0.2463 Uani
N7A N 0.43103(11) 0.68050(15) 0.78819(8) 0.1487 Uani
N8A N 0.39797(14) 0.6800(2) 0.77852(10) 0.2237 Uani
N9A N 0.40094(15) 0.6987(2) 0.75798(11) 0.2540 Uani
C1A C 0.21278(11) 0.95689(10) 0.59739(7) 0.0697 Uani
C2A C 0.24337(11) 0.97359(11) 0.58323(7) 0.0773 Uani
C3A C 0.23605(11) 0.99854(10) 0.56413(7) 0.0747 Uani
H1A H 0.2116 1.0041 0.5600 0.0900 Uiso
C4A C 0.26371(10) 1.01475(11) 0.55154(7) 0.0757 Uani
C5A C 0.29882(12) 1.00499(15) 0.55577(8) 0.1137 Uani
H2A H 0.3180 1.0155 0.5465 0.1370 Uiso
C6A C 0.30630(12) 0.97886(16) 0.57429(10) 0.1200 Uani
C7A C 0.27856(12) 0.96399(13) 0.58797(8) 0.1047 Uani
H3A H 0.2839 0.9471 0.6006 0.1260 Uiso
C8A C 0.25395(12) 1.04250(12) 0.53272(7) 0.0747 Uani
C9A C 0.35194(15) 0.9400(2) 0.59184(13) 0.2037 Uani
H4A H 0.3359 0.9238 0.6000 0.2440 Uiso
C10A C 0.38818(18) 0.9375(3) 0.59170(15) 0.2593 Uani
C11A C 0.41309(16) 0.9071(3) 0.60048(16) 0.2693 Uani
C12A C 0.44753(19) 0.9077(3) 0.5994(2) 0.3673 Uani
H5A H 0.4585 0.9266 0.5901 0.4410 Uiso
C13A C 0.47007(19) 0.8830(4) 0.6107(2) 0.3847 Uani
H6A H 0.4956 0.8856 0.6090 0.4610 Uiso
C14A C 0.45680(17) 0.8553(3) 0.62397(17) 0.2953 Uani
C15A C 0.41884(19) 0.8510(3) 0.62288(18) 0.3540 Uani
H7A H 0.4074 0.8302 0.6297 0.4250 Uiso
C16A C 0.3984(2) 0.8780(3) 0.61145(19) 0.2987 Uani
H8A H 0.3727 0.8757 0.6114 0.3580 Uiso
C17A C 0.47983(16) 0.8271(3) 0.63657(16) 0.3087 Uani
C18A C 0.51441(16) 0.8179(3) 0.62780(16) 0.3057 Uani
H9A H 0.5223 0.8274 0.6125 0.3670 Uiso
C19A C 0.53674(16) 0.7960(3) 0.64057(16) 0.3080 Uani
C20A C 0.52206(17) 0.7782(3) 0.66110(17) 0.3397 Uani
H10A H 0.5378 0.7647 0.6715 0.4080 Uiso
C21A C 0.48641(16) 0.7797(3) 0.66645(15) 0.2683 Uani
C22A C 0.46527(16) 0.8087(3) 0.65554(15) 0.3003 Uani
H11A H 0.4418 0.8146 0.6616 0.3610 Uiso
C23A C 0.57392(16) 0.7898(3) 0.63385(19) 0.3313 Uani
C24A C 0.5884(2) 0.8064(3) 0.61513(16) 0.2970 Uani
H12A H 0.5734 0.8201 0.6045 0.3560 Uiso
C25A C 0.62653(18) 0.8042(3) 0.61033(17) 0.3310 Uani
H13A H 0.6368 0.8217 0.5995 0.3970 Uiso
C26A C 0.64767(17) 0.7805(3) 0.61952(14) 0.2233 Uani
C27A C 0.6302(2) 0.7563(4) 0.6336(2) 0.4213 Uani
H14A H 0.6421 0.7344 0.6381 0.5060 Uiso
C28A C 0.5965(2) 0.7624(4) 0.6415(2) 0.4097 Uani
H15A H 0.5872 0.7462 0.6535 0.4910 Uiso
C29A C 0.68657(13) 0.7790(2) 0.61310(13) 0.1923 Uani
C30A C 0.70398(14) 0.79941(18) 0.59787(11) 0.1530 Uani
H16A H 0.6939 0.8178 0.5877 0.1840 Uiso
C31A C 0.76924(11) 0.80760(13) 0.58667(9) 0.0990 Uani
C32A C 0.76281(11) 0.82654(12) 0.56544(7) 0.0877 Uani
H17A H 0.7393 0.8264 0.5582 0.1060 Uiso
C33A C 0.79025(10) 0.84546(10) 0.55488(6) 0.0667 Uani
C34A C 0.82466(11) 0.84528(10) 0.56502(6) 0.0707 Uani
H18A H 0.8437 0.8585 0.5574 0.0850 Uiso
C35A C 0.83157(10) 0.82565(10) 0.58665(6) 0.0650 Uani
C36A C 0.80354(12) 0.80700(12) 0.59728(7) 0.0883 Uani
H19A H 0.8075 0.7936 0.6119 0.1060 Uiso
C37A C 0.78280(11) 0.87001(11) 0.53326(6) 0.0667 Uani
C38A C 0.86756(10) 0.82829(10) 0.59893(7) 0.0653 Uani
C39A C 0.47328(15) 0.7612(3) 0.68981(14) 0.2620 Uani
C40A C 0.49605(15) 0.7533(3) 0.70844(14) 0.2470 Uani
H20A H 0.5208 0.7607 0.7077 0.2960 Uiso
C41A C 0.48342(16) 0.7344(2) 0.72869(13) 0.2287 Uani
H21A H 0.5004 0.7255 0.7403 0.2740 Uiso
C42A C 0.44820(16) 0.7284(3) 0.73233(13) 0.2337 Uani
C43A C 0.42349(17) 0.7331(3) 0.71198(15) 0.3007 Uani
H22A H 0.3993 0.7241 0.7127 0.3610 Uiso
C44A C 0.43641(18) 0.7517(3) 0.69100(14) 0.2850 Uani
H23A H 0.4204 0.7577 0.6780 0.3420 Uiso
C45A C 0.43483(15) 0.7085(2) 0.75419(12) 0.1863 Uani
C46A C 0.45398(13) 0.69600(17) 0.77307(10) 0.1480 Uani
H24A H 0.4795 0.6979 0.7752 0.1780 Uiso
C47A C 0.43842(13) 0.66239(14) 0.81071(8) 0.1037 Uani
C48A C 0.47210(12) 0.66542(12) 0.82143(7) 0.0907 Uani
H25A H 0.4906 0.6793 0.8138 0.1090 Uiso
C49A C 0.47897(10) 0.64805(10) 0.84354(7) 0.0680 Uani
C50A C 0.45168(11) 0.62725(10) 0.85466(7) 0.0697 Uani
H26A H 0.4564 0.6149 0.8696 0.0840 Uiso
C51A C 0.41790(11) 0.62476(11) 0.84382(7) 0.0750 Uani
C52A C 0.41049(12) 0.64186(13) 0.82122(7) 0.0977 Uani
H27A H 0.3875 0.6395 0.8135 0.1170 Uiso
C53A C 0.51379(10) 0.65258(10) 0.85599(7) 0.0660 Uani
C54A C 0.38639(12) 0.60426(10) 0.85603(7) 0.0690 Uani
Cu1C Cu 0.86085(2) 0.06231(2) 0.60397(2) 0.0621 Uani
Cu1L Cu 0.56231(2) 0.63915(2) 0.89603(2) 0.0621 Uani
Cu1M Cu 0.36085(2) 0.56231(2) 0.89603(2) 0.0621 Uani
Cu1O Cu 0.63915(2) 0.43769(2) 0.89603(2) 0.0621 Uani
Cu2C Cu 0.81393(2) 0.08368(2) 0.63811(2) 0.0650 Uani
Cu2L Cu 0.58368(2) 0.68607(2) 0.86189(2) 0.0650 Uani
Cu2M Cu 0.31393(2) 0.58368(2) 0.86189(2) 0.0650 Uani
Cu2O Cu 0.68607(2) 0.41632(2) 0.86189(2) 0.0650 Uani
Cu3A Cu 0.72961(2) 0.90057(2) 0.5000 0.0653 Uani
Cu3B Cu 1.09943(2) 0.72961(2) 0.5000 0.0653 Uani
Cu3C Cu 0.27039(2) 1.09943(2) 0.5000 0.0653 Uani
Cu4A Cu 0.79762(2) 0.92499(2) 0.5000 0.0625 Uani
Cu4B Cu 1.07501(2) 0.79762(2) 0.5000 0.0625 Uani
Cu4C Cu 0.20238(2) 1.07501(2) 0.5000 0.0625 Uani
O3B O 0.95657(7) 0.22185(7) 0.52528(4) 0.0816 Uani
O3H O 0.95657(7) 0.22185(7) 0.47472(4) 0.0816 Uani
O4B O 0.93763(7) 0.28032(7) 0.52473(4) 0.0824 Uani
O4H O 0.93763(7) 0.28032(7) 0.47527(4) 0.0824 Uani
O7J O 0.86906(7) 0.24976(8) 0.47464(4) 0.0815 Uani
O8J O 0.88894(7) 0.19236(7) 0.47496(4) 0.0696 Uani
O9B O 0.15308(7) 0.89214(7) 0.58854(4) 0.0726 Uani
O10B O 0.18858(7) 0.87107(6) 0.61912(4) 0.0741 Uani
O13M O 0.96403(7) 0.82415(7) 0.65249(4) 0.0772 Uani
O13N O 0.17585(7) 0.96403(7) 0.65249(4) 0.0772 Uani
O14M O 0.97988(6) 0.86719(7) 0.62558(5) 0.0736 Uani
O14N O 0.13281(7) 0.97988(6) 0.62558(5) 0.0736 Uani
O15L O 0.91016(7) 0.89552(6) 0.62372(4) 0.0732 Uani
O15M O 0.10448(6) 0.91016(7) 0.62372(4) 0.0732 Uani
O16L O 0.89717(7) 0.85653(7) 0.65461(4) 0.0763 Uani
O16M O 0.14347(7) 0.89717(7) 0.65461(4) 0.0763 Uani
loop_
_atom_site_aniso_label
_atom_site_aniso_U_11
_atom_site_aniso_U_22
_atom_site_aniso_U_33
_atom_site_aniso_U_23
_atom_site_aniso_U_13
_atom_site_aniso_U_12
Cu1 0.0628(3) 0.0671(4) 0.0564(3) 0.0094(3) 0.0161(3) 0.0078(3)
Cu2 0.0663(4) 0.0695(4) 0.0592(3) 0.0121(3) 0.0167(3) 0.0059(3)
Cu3 0.0867(5) 0.0590(5) 0.0501(4) 0.000 0.000 0.0124(4)
Cu4 0.0850(5) 0.0575(5) 0.0450(4) 0.000 0.000 0.0102(4)
O1 0.0833(18) 0.0657(16) 0.0725(16) 0.0079(13) 0.0199(15) 0.0059(13)
O2 0.0762(17) 0.0737(18) 0.0759(16) 0.0049(15) 0.0277(14) 0.0043(14)
O3 0.115(2) 0.0537(17) 0.0761(17) -0.0020(14) 0.0187(15) 0.0155(15)
O4 0.111(2) 0.0593(17) 0.0770(17) 0.0020(14) 0.0148(16) 0.0140(16)
O5 0.118(2) 0.131(3) 0.093(2) 0.0463(19) 0.0168(18) -0.016(2)
O6 0.295(5) 0.099(2) 0.0634(17) 0.0065(17) 0.036(2) -0.075(3)
O7 0.099(2) 0.079(2) 0.0664(16) -0.0028(15) 0.0117(14) 0.0218(16)
O8 0.0982(19) 0.0576(16) 0.0531(14) -0.0023(12) 0.0078(13) 0.0174(14)
O9 0.0883(18) 0.0715(17) 0.0581(14) -0.0186(13) 0.0234(13) -0.0026(14)
O10 0.0809(18) 0.0741(17) 0.0673(16) -0.0145(13) 0.0190(14) -0.0041(14)
O11 0.134(4) 0.078(3) 0.131(3) 0.000 0.000 0.021(3)
O12 0.090(3) 0.058(3) 0.300(7) 0.000 0.000 0.013(2)
O13 0.0865(18) 0.0760(17) 0.0690(15) -0.0137(14) 0.0262(14) -0.0012(15)
O14 0.0787(17) 0.0672(16) 0.0749(16) -0.0097(13) 0.0186(15) 0.0034(13)
O15 0.0834(18) 0.0752(17) 0.0609(15) 0.0056(13) 0.0246(14) 0.0141(14)
O16 0.0919(19) 0.0687(18) 0.0684(16) 0.0174(14) 0.0270(14) 0.0134(15)
N1 0.253(6) 0.054(3) 0.171(4) -0.004(3) 0.143(4) -0.009(3)
N2 0.392(10) 0.063(3) 0.418(11) -0.001(5) 0.297(9) -0.009(5)
N3 0.424(12) 0.073(4) 0.443(12) 0.005(5) 0.315(11) -0.011(5)
N4 0.190(4) 0.055(3) 0.141(3) -0.014(2) 0.091(3) -0.007(3)
N5 0.282(7) 0.086(3) 0.280(7) -0.028(4) 0.236(6) -0.018(4)
N6 0.334(8) 0.072(3) 0.333(8) -0.038(4) 0.255(7) -0.017(4)
N7 0.254(6) 0.062(3) 0.130(3) -0.004(3) 0.135(4) 0.007(3)
N8 0.409(10) 0.100(4) 0.162(4) 0.019(3) 0.202(6) 0.048(5)
N9 0.469(11) 0.099(4) 0.194(5) 0.026(4) 0.237(7) 0.042(5)
C1 0.062(2) 0.072(3) 0.075(3) 0.015(2) 0.018(2) 0.009(2)
C2 0.092(3) 0.064(3) 0.076(3) 0.004(2) 0.028(2) 0.004(2)
C3 0.073(3) 0.075(3) 0.076(3) 0.006(2) 0.006(2) -0.003(2)
C4 0.113(3) 0.050(2) 0.064(2) 0.000(2) 0.040(2) 0.012(2)
C5 0.166(5) 0.069(3) 0.106(3) -0.003(3) 0.080(4) 0.001(3)
C6 0.161(5) 0.057(3) 0.142(4) -0.001(3) 0.053(4) -0.001(3)
C7 0.139(4) 0.073(3) 0.102(3) 0.013(3) 0.059(3) 0.010(3)
C8 0.105(3) 0.062(3) 0.057(2) -0.008(2) 0.006(2) 0.019(3)
C9 0.350(10) 0.053(4) 0.208(7) -0.012(4) 0.190(8) -0.036(5)
C10 0.441(14) 0.086(5) 0.251(8) 0.003(5) 0.281(10) 0.004(6)
C11 0.468(14) 0.051(4) 0.289(9) -0.027(4) 0.302(10) -0.034(6)
C12 0.577(19) 0.083(5) 0.442(15) -0.078(7) 0.434(15) -0.090(8)
C13 0.61(2) 0.095(5) 0.449(15) -0.094(7) 0.446(16) -0.081(8)
C14 0.501(15) 0.070(4) 0.315(10) -0.039(5) 0.322(12) -0.044(6)
C15 0.571(19) 0.091(5) 0.400(13) -0.056(7) 0.394(15) -0.090(8)
C16 0.428(14) 0.106(5) 0.362(12) -0.038(7) 0.308(12) -0.073(7)
C17 0.553(16) 0.065(4) 0.308(9) -0.030(5) 0.371(11) -0.042(6)
C18 0.519(16) 0.072(4) 0.326(10) -0.042(5) 0.355(12) -0.055(6)
C19 0.510(15) 0.071(4) 0.343(10) -0.064(5) 0.380(12) -0.064(6)
C20 0.584(18) 0.076(4) 0.359(11) -0.059(6) 0.390(13) -0.065(7)
C21 0.466(14) 0.072(4) 0.267(9) -0.041(5) 0.268(10) -0.029(6)
C22 0.542(16) 0.076(4) 0.283(9) -0.008(5) 0.336(11) -0.048(6)
C23 0.550(17) 0.063(4) 0.381(12) -0.029(6) 0.410(13) -0.004(7)
C24 0.487(16) 0.118(6) 0.286(10) -0.058(6) 0.289(11) -0.069(8)
C25 0.581(19) 0.080(5) 0.332(11) -0.079(6) 0.367(13) -0.083(7)
C26 0.363(11) 0.088(5) 0.219(7) -0.018(5) 0.217(8) -0.033(6)
C27 0.58(2) 0.104(6) 0.58(2) -0.137(9) 0.504(18) -0.112(8)
C28 0.60(2) 0.086(5) 0.543(18) -0.096(8) 0.491(18) -0.070(8)
C29 0.293(8) 0.048(3) 0.236(7) -0.021(4) 0.212(7) -0.009(4)
C30 0.216(6) 0.067(4) 0.176(5) -0.010(3) 0.122(5) -0.019(4)
C31 0.131(4) 0.057(3) 0.109(3) -0.009(3) 0.054(3) 0.000(3)
C32 0.119(4) 0.062(3) 0.082(3) 0.003(2) 0.040(3) 0.009(2)
C33 0.088(3) 0.052(2) 0.060(2) -0.004(2) 0.009(2) 0.005(2)
C34 0.080(3) 0.072(3) 0.060(2) -0.017(2) 0.007(2) -0.001(2)
C35 0.078(3) 0.053(2) 0.064(2) -0.019(2) 0.017(2) -0.002(2)
C36 0.109(3) 0.073(3) 0.083(3) -0.013(2) 0.036(3) -0.012(3)
C37 0.107(3) 0.050(3) 0.043(2) 0.0025(19) -0.006(2) 0.020(2)
C38 0.072(3) 0.058(3) 0.066(2) -0.020(2) 0.008(2) -0.014(2)
C39 0.461(13) 0.059(4) 0.266(8) -0.034(4) 0.309(9) -0.015(5)
C40 0.420(12) 0.072(4) 0.249(8) -0.012(4) 0.273(9) -0.017(5)
C41 0.390(11) 0.066(4) 0.230(7) 0.010(4) 0.230(8) 0.009(5)
C42 0.410(12) 0.080(4) 0.211(7) 0.018(4) 0.249(8) 0.010(5)
C43 0.546(17) 0.085(4) 0.271(9) -0.026(5) 0.320(11) -0.004(7)
C44 0.532(16) 0.100(5) 0.223(7) -0.020(5) 0.293(10) -0.010(7)
C45 0.331(9) 0.069(4) 0.159(5) -0.007(4) 0.169(6) 0.011(5)
C46 0.234(7) 0.070(3) 0.140(4) 0.001(3) 0.126(5) 0.012(4)
C47 0.147(4) 0.080(3) 0.084(3) -0.009(3) 0.059(3) 0.016(3)
C48 0.118(4) 0.070(3) 0.084(3) -0.010(2) 0.048(3) 0.013(3)
C49 0.076(3) 0.058(3) 0.070(2) -0.005(2) 0.021(2) 0.007(2)
C50 0.072(3) 0.073(3) 0.064(2) 0.006(2) 0.012(2) -0.001(2)
C51 0.083(3) 0.078(3) 0.064(2) -0.004(2) 0.022(2) 0.006(2)
C52 0.138(4) 0.070(3) 0.085(3) 0.004(2) 0.048(3) 0.001(3)
C53 0.065(2) 0.064(3) 0.069(2) -0.027(2) 0.032(2) -0.006(2)
C54 0.054(2) 0.088(3) 0.065(3) -0.009(2) 0.018(2) 0.012(2)
Cu1A 0.0671 0.0628 0.0564 0.0161 -0.0094 -0.0078
Cu2A 0.0695 0.0663 0.0592 0.0167 -0.0121 -0.0059
O1A 0.0657 0.0833 0.0725 0.0199 -0.0079 -0.0059
O2A 0.0737 0.0762 0.0759 0.0277 -0.0049 -0.0043
O3A 0.0537 0.115 0.0761 0.0187 0.002 -0.0155
O4A 0.0593 0.111 0.077 0.0148 -0.002 -0.014
O5A 0.131 0.118 0.093 0.0168 -0.0463 0.016
O6A 0.099 0.295 0.0634 0.036 -0.0065 0.075
O7A 0.079 0.099 0.0664 0.0117 0.0028 -0.0218
O8A 0.0576 0.0982 0.0531 0.0078 0.0023 -0.0174
O9A 0.0715 0.0883 0.0581 0.0234 0.0186 0.0026
O10A 0.0741 0.0809 0.0673 0.019 0.0145 0.0041
O13A 0.076 0.0865 0.069 0.0262 0.0137 0.0012
O14A 0.0672 0.0787 0.0749 0.0186 0.0097 -0.0034
O15A 0.0752 0.0834 0.0609 0.0246 -0.0056 -0.0141
O16A 0.0687 0.0919 0.0684 0.027 -0.0174 -0.0134
N1A 0.054 0.253 0.171 0.143 0.004 0.009
N2A 0.063 0.392 0.418 0.297 0.001 0.009
N3A 0.073 0.424 0.443 0.315 -0.005 0.011
N4A 0.055 0.19 0.141 0.091 0.014 0.007
N5A 0.086 0.282 0.28 0.236 0.028 0.018
N6A 0.072 0.334 0.333 0.255 0.038 0.017
N7A 0.062 0.254 0.13 0.135 0.004 -0.007
N8A 0.1 0.409 0.162 0.202 -0.019 -0.048
N9A 0.099 0.469 0.194 0.237 -0.026 -0.042
C1A 0.072 0.062 0.075 0.018 -0.015 -0.009
C2A 0.064 0.092 0.076 0.028 -0.004 -0.004
C3A 0.075 0.073 0.076 0.006 -0.006 0.003
C4A 0.05 0.113 0.064 0.04 0 -0.012
C5A 0.069 0.166 0.106 0.08 0.003 -0.001
C6A 0.057 0.161 0.142 0.053 0.001 0.001
C7A 0.073 0.139 0.102 0.059 -0.013 -0.01
C8A 0.062 0.105 0.057 0.006 0.008 -0.019
C9A 0.053 0.35 0.208 0.19 0.012 0.036
C10A 0.086 0.441 0.251 0.281 -0.003 -0.004
C11A 0.051 0.468 0.289 0.302 0.027 0.034
C12A 0.083 0.577 0.442 0.434 0.078 0.09
C13A 0.095 0.61 0.449 0.446 0.094 0.081
C14A 0.07 0.501 0.315 0.322 0.039 0.044
C15A 0.091 0.571 0.4 0.394 0.056 0.09
C16A 0.106 0.428 0.362 0.308 0.038 0.073
C17A 0.065 0.553 0.308 0.371 0.03 0.042
C18A 0.072 0.519 0.326 0.355 0.042 0.055
C19A 0.071 0.51 0.343 0.38 0.064 0.064
C20A 0.076 0.584 0.359 0.39 0.059 0.065
C21A 0.072 0.466 0.267 0.268 0.041 0.029
C22A 0.076 0.542 0.283 0.336 0.008 0.048
C23A 0.063 0.55 0.381 0.41 0.029 0.004
C24A 0.118 0.487 0.286 0.289 0.058 0.069
C25A 0.08 0.581 0.332 0.367 0.079 0.083
C26A 0.088 0.363 0.219 0.217 0.018 0.033
C27A 0.104 0.58 0.58 0.504 0.137 0.112
C28A 0.086 0.6 0.543 0.491 0.096 0.07
C29A 0.048 0.293 0.236 0.212 0.021 0.009
C30A 0.067 0.216 0.176 0.122 0.01 0.019
C31A 0.057 0.131 0.109 0.054 0.009 0
C32A 0.062 0.119 0.082 0.04 -0.003 -0.009
C33A 0.052 0.088 0.06 0.009 0.004 -0.005
C34A 0.072 0.08 0.06 0.007 0.017 0.001
C35A 0.053 0.078 0.064 0.017 0.019 0.002
C36A 0.073 0.109 0.083 0.036 0.013 0.012
C37A 0.05 0.107 0.043 -0.006 -0.0025 -0.02
C38A 0.058 0.072 0.066 0.008 0.02 0.014
C39A 0.059 0.461 0.266 0.309 0.034 0.015
C40A 0.072 0.42 0.249 0.273 0.012 0.017
C41A 0.066 0.39 0.23 0.23 -0.01 -0.009
C42A 0.08 0.41 0.211 0.249 -0.018 -0.01
C43A 0.085 0.546 0.271 0.32 0.026 0.004
C44A 0.1 0.532 0.223 0.293 0.02 0.01
C45A 0.069 0.331 0.159 0.169 0.007 -0.011
C46A 0.07 0.234 0.14 0.126 -0.001 -0.012
C47A 0.08 0.147 0.084 0.059 0.009 -0.016
C48A 0.07 0.118 0.084 0.048 0.01 -0.013
C49A 0.058 0.076 0.07 0.021 0.005 -0.007
C50A 0.073 0.072 0.064 0.012 -0.006 0.001
C51A 0.078 0.083 0.064 0.022 0.004 -0.006
C52A 0.07 0.138 0.085 0.048 -0.004 -0.001
C53A 0.064 0.065 0.069 0.032 0.027 0.006
C54A 0.088 0.054 0.065 0.018 0.009 -0.012
Cu1C 0.0671 0.0628 0.0564 -0.0161 0.0094 -0.0078
Cu1L 0.0628 0.0671 0.0564 0.0094 0.0161 0.0078
Cu1M 0.0671 0.0628 0.0564 0.0161 -0.0094 -0.0078
Cu1O 0.0671 0.0628 0.0564 -0.0161 0.0094 -0.0078
Cu2C 0.0695 0.0663 0.0592 -0.0167 0.0121 -0.0059
Cu2L 0.0663 0.0695 0.0592 0.0121 0.0167 0.0059
Cu2M 0.0695 0.0663 0.0592 0.0167 -0.0121 -0.0059
Cu2O 0.0695 0.0663 0.0592 -0.0167 0.0121 -0.0059
Cu3A 0.059 0.0867 0.0501 0 0 -0.0124
Cu3B 0.0867 0.059 0.0501 0 0 0.0124
Cu3C 0.059 0.0867 0.0501 0 0 -0.0124
Cu4A 0.0575 0.085 0.045 0 0 -0.0102
Cu4B 0.085 0.0575 0.045 0 0 0.0102
Cu4C 0.0575 0.085 0.045 0 0 -0.0102
O3B 0.115 0.0537 0.0761 0.002 -0.0187 0.0155
O3H 0.115 0.0537 0.0761 -0.002 0.0187 0.0155
O4B 0.111 0.0593 0.077 -0.002 -0.0148 0.014
O4H 0.111 0.0593 0.077 0.002 0.0148 0.014
O7J 0.099 0.079 0.0664 0.0028 -0.0117 0.0218
O8J 0.0982 0.0576 0.0531 0.0023 -0.0078 0.0174
O9B 0.0883 0.0715 0.0581 0.0186 -0.0234 -0.0026
O10B 0.0809 0.0741 0.0673 0.0145 -0.019 -0.0041
O13M 0.076 0.0865 0.069 0.0262 0.0137 0.0012
O13N 0.0865 0.076 0.069 0.0137 -0.0262 -0.0012
O14M 0.0672 0.0787 0.0749 0.0186 0.0097 -0.0034
O14N 0.0787 0.0672 0.0749 0.0097 -0.0186 0.0034
O15L 0.0834 0.0752 0.0609 0.0056 0.0246 0.0141
O15M 0.0752 0.0834 0.0609 0.0246 -0.0056 -0.0141
O16L 0.0919 0.0687 0.0684 0.0174 0.027 0.0134
O16M 0.0687 0.0919 0.0684 0.027 -0.0174 -0.0134
loop_
_geom_bond_atom_site_label_1
_geom_bond_atom_site_label_2
_geom_bond_site_symmetry_1
_geom_bond_site_symmetry_2
Cu1 Cu2 1_555 1_555
Cu2 O1 1_555 1_555
Cu3 Cu4 1_555 1_555
Cu4 O8 1_555 1_555
O1 C1 1_555 1_555
O2 Cu1 1_555 1_555
O3 C8 1_555 1_555
O4 C8 1_555 1_555
O5 Cu2 1_555 1_555
O6 Cu1 1_555 1_555
O7 Cu3 1_555 1_555
O8 C37 1_555 1_555
O9 C38 1_555 1_555
O10 C38 1_555 1_555
O11 Cu3 1_555 1_555
O12 Cu4 1_555 1_555
O13 C53 1_555 1_555
O14 C53 1_555 1_555
O15 C54 1_555 1_555
O16 C54 1_555 1_555
N1 N2 1_555 1_555
N2 N3 1_555 1_555
N3 C10 1_555 1_555
N4 N5 1_555 1_555
N5 N6 1_555 1_555
N6 C29 1_555 1_555
N7 N8 1_555 1_555
N8 N9 1_555 1_555
N9 C45 1_555 1_555
C1 O2 1_555 1_555
C2 C1 1_555 1_555
C3 C2 1_555 1_555
H1 C3 1_555 1_555
C4 C3 1_555 1_555
C5 C4 1_555 1_555
H2 C5 1_555 1_555
C6 N1 1_555 1_555
C7 C2 1_555 1_555
H3 C7 1_555 1_555
C8 C4 1_555 1_555
C9 N1 1_555 1_555
H4 C9 1_555 1_555
C10 C9 1_555 1_555
C11 C10 1_555 1_555
C12 C11 1_555 1_555
H5 C12 1_555 1_555
C13 C12 1_555 1_555
H6 C13 1_555 1_555
C14 C13 1_555 1_555
C15 C14 1_555 1_555
H7 C15 1_555 1_555
C16 C11 1_555 1_555
H8 C16 1_555 1_555
C17 C14 1_555 1_555
C18 C17 1_555 1_555
H9 C18 1_555 1_555
C19 C18 1_555 1_555
C20 C19 1_555 1_555
H10 C20 1_555 1_555
C21 C20 1_555 1_555
C22 C17 1_555 1_555
H11 C22 1_555 1_555
C23 C19 1_555 1_555
C24 C23 1_555 1_555
H12 C24 1_555 1_555
C25 C24 1_555 1_555
H13 C25 1_555 1_555
C26 C25 1_555 1_555
C27 C26 1_555 1_555
H14 C27 1_555 1_555
C28 C23 1_555 1_555
H15 C28 1_555 1_555
C29 C26 1_555 1_555
C30 N4 1_555 1_555
H16 C30 1_555 1_555
C31 N4 1_555 1_555
C32 C31 1_555 1_555
H17 C32 1_555 1_555
C33 C32 1_555 1_555
C34 C33 1_555 1_555
H18 C34 1_555 1_555
C35 C34 1_555 1_555
C36 C31 1_555 1_555
H19 C36 1_555 1_555
C37 O7 1_555 1_555
C38 C35 1_555 1_555
C39 C21 1_555 1_555
C40 C39 1_555 1_555
H20 C40 1_555 1_555
C41 C40 1_555 1_555
H21 C41 1_555 1_555
C42 C41 1_555 1_555
C43 C42 1_555 1_555
H22 C43 1_555 1_555
C44 C39 1_555 1_555
H23 C44 1_555 1_555
C45 C42 1_555 1_555
C46 N7 1_555 1_555
H24 C46 1_555 1_555
C47 N7 1_555 1_555
C48 C47 1_555 1_555
H25 C48 1_555 1_555
C49 C48 1_555 1_555
C50 C49 1_555 1_555
H26 C50 1_555 1_555
C51 C50 1_555 1_555
C52 C47 1_555 1_555
H27 C52 1_555 1_555
C53 C49 1_555 1_555
C54 C51 1_555 1_555
Cu1A Cu2A 1_555 1_555
Cu2A O1A 1_555 1_555
O1A C1A 1_555 1_555
O2A Cu1A 1_555 1_555
O3A C8A 1_555 1_555
O4A C8A 1_555 1_555
O5A Cu2A 1_555 1_555
O6A Cu1A 1_555 1_555
O7A C37A 1_555 1_555
O8A C37A 1_555 1_555
O9A Cu1 1_555 1_555
O10A Cu2 1_555 1_555
O13A C53A 1_555 1_555
O14A C53A 1_555 1_555
O15A C54A 1_555 1_555
O16A C54A 1_555 1_555
N1A N2A 1_555 1_555
N2A N3A 1_555 1_555
N3A C10A 1_555 1_555
N4A N5A 1_555 1_555
N5A N6A 1_555 1_555
N6A C29A 1_555 1_555
N7A N8A 1_555 1_555
N8A N9A 1_555 1_555
N9A C45A 1_555 1_555
C1A O2A 1_555 1_555
C2A C1A 1_555 1_555
C3A C2A 1_555 1_555
H1A C3A 1_555 1_555
C4A C3A 1_555 1_555
C5A C4A 1_555 1_555
H2A C5A 1_555 1_555
C6A N1A 1_555 1_555
C7A C2A 1_555 1_555
H3A C7A 1_555 1_555
C8A C4A 1_555 1_555
C9A N1A 1_555 1_555
H4A C9A 1_555 1_555
C10A C9A 1_555 1_555
C11A C10A 1_555 1_555
C12A C11A 1_555 1_555
H5A C12A 1_555 1_555
C13A C12A 1_555 1_555
H6A C13A 1_555 1_555
C14A C13A 1_555 1_555
C15A C14A 1_555 1_555
H7A C15A 1_555 1_555
C16A C11A 1_555 1_555
H8A C16A 1_555 1_555
C17A C14A 1_555 1_555
C18A C17A 1_555 1_555
H9A C18A 1_555 1_555
C19A C18A 1_555 1_555
C20A C19A 1_555 1_555
H10A C20A 1_555 1_555
C21A C20A 1_555 1_555
C22A C17A 1_555 1_555
H11A C22A 1_555 1_555
C23A C19A 1_555 1_555
C24A C23A 1_555 1_555
H12A C24A 1_555 1_555
C25A C24A 1_555 1_555
H13A C25A 1_555 1_555
C26A C25A 1_555 1_555
C27A C26A 1_555 1_555
H14A C27A 1_555 1_555
C28A C23A 1_555 1_555
H15A C28A 1_555 1_555
C29A C26A 1_555 1_555
C30A N4A 1_555 1_555
H16A C30A 1_555 1_555
C31A N4A 1_555 1_555
C32A C31A 1_555 1_555
H17A C32A 1_555 1_555
C33A C32A 1_555 1_555
C34A C33A 1_555 1_555
H18A C34A 1_555 1_555
C35A C34A 1_555 1_555
C36A C31A 1_555 1_555
H19A C36A 1_555 1_555
C37A C33A 1_555 1_555
C38A O9A 1_555 1_555
C39A C21A 1_555 1_555
C40A C39A 1_555 1_555
H20A C40A 1_555 1_555
C41A C40A 1_555 1_555
H21A C41A 1_555 1_555
C42A C41A 1_555 1_555
C43A C42A 1_555 1_555
H22A C43A 1_555 1_555
C44A C39A 1_555 1_555
H23A C44A 1_555 1_555
C45A C42A 1_555 1_555
C46A N7A 1_555 1_555
H24A C46A 1_555 1_555
C47A N7A 1_555 1_555
C48A C47A 1_555 1_555
H25A C48A 1_555 1_555
C49A C48A 1_555 1_555
C50A C49A 1_555 1_555
H26A C50A 1_555 1_555
C51A C50A 1_555 1_555
C52A C47A 1_555 1_555
H27A C52A 1_555 1_555
C53A C49A 1_555 1_555
C54A C51A 1_555 1_555
Cu1C O9 1_555 1_555
Cu1L O15 1_555 1_555
Cu1M O15A 1_555 1_555
Cu1O O14 1_555 1_555
Cu2C O10 1_555 1_555
Cu2L O16 1_555 1_555
Cu2M O16A 1_555 1_555
Cu2O O13 1_555 1_555
Cu3A O7A 1_555 1_555
Cu3B O4 1_555 1_555
Cu3C O4A 1_555 1_555
Cu4A O8A 1_555 1_555
Cu4B O3 1_555 1_555
Cu4C O3A 1_555 1_555
O3B Cu4 1_555 1_555
O3H Cu4 1_555 1_555
O4B Cu3 1_555 1_555
O4H Cu3 1_555 1_555
O7J Cu3 1_555 1_555
O8J Cu4 1_555 1_555
O9B Cu1A 1_555 1_555
O10B Cu2A 1_555 1_555
O13M Cu2 1_555 1_555
O13N Cu2A 1_555 1_555
O14M Cu1 1_555 1_555
O14N Cu1A 1_555 1_555
O15L Cu1 1_555 1_555
O15M Cu1A 1_555 1_555
O16L Cu2 1_555 1_555
O16M Cu2A 1_555 1_555
C5 C6 1_555 1_555
C6 C7 1_555 1_555
C15 C16 1_555 1_555
C21 C22 1_555 1_555
C27 C28 1_555 1_555
C29 C30 1_555 1_555
C33 C37 1_555 1_555
C35 C36 1_555 1_555
C43 C44 1_555 1_555
C45 C46 1_555 1_555
C51 C52 1_555 1_555
O10A C38A 1_555 1_555
O13A Cu2L 1_555 1_555
O14A Cu1L 1_555 1_555
C5A C6A 1_555 1_555
C6A C7A 1_555 1_555
C15A C16A 1_555 1_555
C21A C22A 1_555 1_555
C27A C28A 1_555 1_555
C29A C30A 1_555 1_555
C35A C36A 1_555 1_555
C35A C38A 1_555 1_555
C43A C44A 1_555 1_555
C45A C46A 1_555 1_555
C51A C52A 1_555 1_555
Cu1C Cu2C 1_555 1_555
Cu1L Cu2L 1_555 1_555
Cu1M Cu2M 1_555 1_555
Cu1O Cu2O 1_555 1_555
Cu3A Cu4A 1_555 1_555
Cu3B Cu4B 1_555 1_555
Cu3C Cu4C 1_555 1_555

#END
