
#######################################################################
#
#                 Cambridge Crystallographic Data Centre
#                                CCDC 
#
#######################################################################
#
# If this CIF has been generated from an entry in the Cambridge 
# Structural Database, then it will include bibliographic, chemical, 
# crystal, experimental, refinement or atomic coordinate data resulting 
# from the CCDC's data processing and validation procedures.
#
#######################################################################

data_OFERUN07
_chemical_formula_moiety         '(C8 H10 N4 Zn1)n'
_symmetry_cell_setting           cubic
_symmetry_space_group_name_H-M   'I -4 3 m'
_symmetry_Int_Tables_number      217
_space_group_name_Hall           'I -4 2 3'
loop_
_symmetry_equiv_pos_site_id
_symmetry_equiv_pos_as_xyz
1 x,y,z
2 -x,-y,z
3 x,-y,-z
4 -x,y,-z
5 z,x,y
6 y,z,x
7 -z,-x,y
8 -y,z,-x
9 z,-x,-y
10 -y,-z,x
11 -z,x,-y
12 y,-z,-x
13 y,x,z
14 -y,-x,z
15 -y,x,-z
16 y,-x,-z
17 x,z,y
18 z,y,x
19 -x,-z,y
20 z,-y,-x
21 -x,z,-y
22 -z,-y,x
23 x,-z,-y
24 -z,y,-x
25 1/2+x,1/2+y,1/2+z
26 1/2-x,1/2-y,1/2+z
27 1/2+x,1/2-y,1/2-z
28 1/2-x,1/2+y,1/2-z
29 1/2+z,1/2+x,1/2+y
30 1/2+y,1/2+z,1/2+x
31 1/2-z,1/2-x,1/2+y
32 1/2-y,1/2+z,1/2-x
33 1/2+z,1/2-x,1/2-y
34 1/2-y,1/2-z,1/2+x
35 1/2-z,1/2+x,1/2-y
36 1/2+y,1/2-z,1/2-x
37 1/2+y,1/2+x,1/2+z
38 1/2-y,1/2-x,1/2+z
39 1/2-y,1/2+x,1/2-z
40 1/2+y,1/2-x,1/2-z
41 1/2+x,1/2+z,1/2+y
42 1/2+z,1/2+y,1/2+x
43 1/2-x,1/2-z,1/2+y
44 1/2+z,1/2-y,1/2-x
45 1/2-x,1/2+z,1/2-y
46 1/2-z,1/2-y,1/2+x
47 1/2+x,1/2-z,1/2-y
48 1/2-z,1/2+y,1/2-x
_cell_length_a                   16.9386(8)
_cell_length_b                   16.9386(8)
_cell_length_c                   16.9386(8)
_cell_angle_alpha                90
_cell_angle_beta                 90
_cell_angle_gamma                90
_cell_volume                     4859.96
loop_
_atom_site_label
_atom_site_type_symbol
_atom_site_fract_x
_atom_site_fract_y
_atom_site_fract_z
_atom_site_U_iso_or_equiv
_atom_site_thermal_displace_type
Zn1 Zn 0.750 0.500 0.000 0.0242 Uani
N1 N 0.68235(4) 0.58962(4) -0.03439(4) 0.0273 Uani
C1 C 0.68563(6) 0.62884(6) -0.10566(5) 0.0360 Uani
C2 C 0.62354(4) 0.62354(4) 0.00622(11) 0.0240 Uani
C3 C 0.59655(7) 0.59655(7) 0.08573(7) 0.0356 Uani
H1 H 0.727973 0.613966 -0.146776 0.0510 Uiso
H2 H 0.553694 0.553694 0.080861 0.1180 Uiso
H3 H 0.569183 0.638433 0.119870 0.0850 Uiso
N1L N 0.58962(4) 0.68235(4) -0.03439(4) 0.0273 Uani
C1L C 0.62884(6) 0.68563(6) -0.10566(5) 0.0360 Uani
H1L H 0.613966 0.727973 -0.146776 0.0510 Uiso
H3L H 0.638433 0.569183 0.119870 0.0850 Uiso
N1B N 0.68235(4) 0.41038(4) 0.03439(4) 0.0273 Uani
C1B C 0.68563(6) 0.37116(6) 0.10566(5) 0.0360 Uani
C2B C 0.62354(4) 0.37646(4) -0.00622(11) 0.0240 Uani
C3B C 0.59655(7) 0.40345(7) -0.08573(7) 0.0356 Uani
H1B H 0.727973 0.386034 0.146776 0.0510 Uiso
H2B H 0.553694 0.446306 -0.080861 0.1180 Uiso
H3B H 0.569183 0.361567 -0.119870 0.0850 Uiso
N1O N 0.58962(4) 0.31765(4) 0.03439(4) 0.0273 Uani
C1O C 0.62884(6) 0.31437(6) 0.10566(5) 0.0360 Uani
H1O H 0.613966 0.272027 0.146776 0.0510 Uiso
H3O H 0.638433 0.430817 -0.119870 0.0850 Uiso
Zn1L Zn 0.500 0.750 0.000 0.0242 Uani
Zn1M Zn 0.500 0.250 0.000 0.0242 Uani
N1PA N 0.81765(4) 0.53439(4) 0.08962(4) 0.0273 Uani
N1RA N 0.81765(4) 0.46561(4) -0.08962(4) 0.0273 Uani
loop_
_atom_site_aniso_label
_atom_site_aniso_U_11
_atom_site_aniso_U_22
_atom_site_aniso_U_33
_atom_site_aniso_U_23
_atom_site_aniso_U_13
_atom_site_aniso_U_12
Zn1 0.02358(16) 0.02457(13) 0.02456(13) 0 0 0
N1 0.0282(3) 0.0293(3) 0.0245(3) 0.0031(2) 0.0031(2) 0.0053(2)
C1 0.0398(5) 0.0411(5) 0.0270(4) 0.0087(3) 0.0114(3) 0.0120(4)
C2 0.0261(2) 0.0261(2) 0.0197(5) 0.0025(3) 0.0025(3) 0.0013(3)
C3 0.0411(4) 0.0411(4) 0.0247(5) 0.0074(4) 0.0074(4) 0.0085(5)
N1L 0.0293 0.0282 0.0245 0.0031 0.0031 0.0053
C1L 0.0411 0.0398 0.027 0.0114 0.0087 0.012
N1B 0.0282 0.0293 0.0245 0.0031 -0.0031 -0.0053
C1B 0.0398 0.0411 0.027 0.0087 -0.0114 -0.012
C2B 0.0261 0.0261 0.0197 0.0025 -0.0025 -0.0013
C3B 0.0411 0.0411 0.0247 0.0074 -0.0074 -0.0085
N1O 0.0293 0.0282 0.0245 0.0031 -0.0031 -0.0053
C1O 0.0411 0.0398 0.027 0.0114 -0.0087 -0.012
Zn1L 0.02457 0.02358 0.02456 0 0 0
Zn1M 0.02457 0.02358 0.02456 0 0 0
N1PA 0.0282 0.0245 0.0293 -0.0031 -0.0053 0.0031
N1RA 0.0282 0.0245 0.0293 -0.0031 0.0053 -0.0031
loop_
_geom_bond_atom_site_label_1
_geom_bond_atom_site_label_2
_geom_bond_site_symmetry_1
_geom_bond_site_symmetry_2
Zn1 N1 1_555 1_555
N1 C1 1_555 1_555
C1 H1 1_555 1_555
C2 N1 1_555 1_555
C3 C2 1_555 1_555
H2 C3 1_555 1_555
H3 C3 1_555 1_555
N1L C2 1_555 1_555
C1L C1 1_555 1_555
H1L C1L 1_555 1_555
H3L C3 1_555 1_555
N1B Zn1 1_555 1_555
C1B N1B 1_555 1_555
C2B N1B 1_555 1_555
C3B C2B 1_555 1_555
H1B C1B 1_555 1_555
H2B C3B 1_555 1_555
H3B C3B 1_555 1_555
N1O C2B 1_555 1_555
C1O C1B 1_555 1_555
H1O C1O 1_555 1_555
H3O C3B 1_555 1_555
Zn1L N1L 1_555 1_555
Zn1M N1O 1_555 1_555
N1PA Zn1 1_555 1_555
N1RA Zn1 1_555 1_555
N1L C1L 1_555 1_555
N1O C1O 1_555 1_555

#END
