
#######################################################################
#
#                 Cambridge Crystallographic Data Centre
#                                CCDC 
#
#######################################################################
#
# If this CIF has been generated from an entry in the Cambridge 
# Structural Database, then it will include bibliographic, chemical, 
# crystal, experimental, refinement or atomic coordinate data resulting 
# from the CCDC's data processing and validation procedures.
#
#######################################################################

data_REGMOH
_chemical_formula_moiety         '(C56 H80 N14 Ni2 O22)n'
_symmetry_cell_setting           monoclinic
_symmetry_space_group_name_H-M   'P 21/c'
_symmetry_Int_Tables_number      14
_space_group_name_Hall           '-P 2ybc'
loop_
_symmetry_equiv_pos_site_id
_symmetry_equiv_pos_as_xyz
1 x,y,z
2 -x,1/2+y,1/2-z
3 -x,-y,-z
4 x,1/2-y,1/2+z
_cell_length_a                   13.4995(19)
_cell_length_b                   12.4212(14)
_cell_length_c                   40.153(6)
_cell_angle_alpha                90
_cell_angle_beta                 108.438(6)
_cell_angle_gamma                90
_cell_volume                     6387.23
loop_
_atom_site_label
_atom_site_type_symbol
_atom_site_fract_x
_atom_site_fract_y
_atom_site_fract_z
Ni1 Ni 0.67903(3) 0.38792(3) 0.307516(10)
Ni2 Ni 0.87118(3) 0.09473(4) 0.577570(10)
O1 O 0.7799(2) 0.2361(2) 0.57835(6)
O2 O 0.6778(3) 0.3548(3) 0.54228(8)
O3 O 0.93874(17) -0.02921(18) 0.55275(5)
O4 O 0.91953(19) -0.09130(19) 0.49866(6)
O5 O 0.73725(16) 0.23072(17) 0.30377(5)
O6 O 0.79589(17) 0.08310(18) 0.33615(5)
O7 O 0.63273(18) 0.52211(18) 0.33543(6)
O8 O 0.5937(2) 0.5531(2) 0.38476(7)
N1 N 0.9440(2) 0.5837(2) 0.32250(7)
N2 N 0.8260(2) 0.4579(2) 0.31954(7)
N3 N 0.6436(2) 0.8334(2) 0.21220(8)
N4 N 0.4748(2) 0.8337(2) 0.20446(6)
N5 N 0.9665(2) 0.5550(2) 0.17419(7)
N6 N 0.9101(2) 0.4485(2) 0.12872(6)
N7 N 0.8235(2) 0.1384(2) 0.52767(6)
N8 N 0.70724(19) 0.3326(2) 0.35609(6)
N9 N 0.5382(2) 0.4779(2) 0.20318(6)
N10 N 0.6407(2) 0.4349(2) 0.25587(7)
N11 N 0.1666(2) 0.2659(2) 0.08674(8)
N12 N 0.0088(2) 0.3166(2) 0.08586(6)
N13 N 0.5816(2) 0.5718(3) 0.06042(7)
N14 N 0.7382(2) 0.5049(3) 0.06829(7)
C1 C 0.9552(2) 0.7158(2) 0.27806(8)
C2 C 0.8741(3) 0.7890(3) 0.26454(9)
C3 C 0.8352(3) 0.8058(3) 0.22821(9)
C4 C 0.8813(3) 0.7555(3) 0.20573(9)
C5 C 0.9676(3) 0.6895(3) 0.22000(9)
C6 C 1.0028(2) 0.6655(3) 0.25565(8)
C7 C 0.7384(3) 0.2778(4) 0.54875(9)
C8 C 0.9090(2) -0.0227(3) 0.51934(8)
C9 C 0.7620(2) 0.1755(3) 0.33215(8)
C10 C 0.6332(3) 0.4986(3) 0.36600(9)
C11 C 0.9907(3) 0.6865(3) 0.31623(9)
H5 H 1.0678 0.6802 0.3247
H6 H 0.9708 0.7446 0.3298
C12 C 0.8450(3) 0.5509(3) 0.30733(8)
H7 H 0.7944 0.5907 0.2898
C13 C 0.9180(3) 0.4301(3) 0.34444(9)
H8 H 0.9290 0.3665 0.3583
C14 C 0.9912(3) 0.5070(3) 0.34641(9)
H9 H 1.0614 0.5071 0.3615
C15 C 0.8271(3) 0.8479(3) 0.28907(12)
H10 H 0.8009 0.7954 0.3025
H11 H 0.7693 0.8934 0.2753
H12 H 0.8806 0.8929 0.3053
C16 C 0.7438(3) 0.8816(3) 0.21297(13)
H13 H 0.7552 0.9483 0.2272
H14 H 0.7406 0.9016 0.1888
C17 C 0.5524(3) 0.8831(3) 0.19756(8)
H15 H 0.5444 0.9466 0.1838
C18 C 0.5190(3) 0.7485(3) 0.22530(9)
H16 H 0.4827 0.6985 0.2351
C19 C 0.6226(3) 0.7464(3) 0.22990(11)
H17 H 0.6714 0.6946 0.2429
C20 C 0.8375(3) 0.7719(4) 0.16624(10)
H18 H 0.7612 0.7664 0.1588
H19 H 0.8656 0.7167 0.1543
H20 H 0.8575 0.8434 0.1602
C21 C 1.0250(3) 0.6436(3) 0.19614(10)
H21 H 1.0363 0.7015 0.1808
H22 H 1.0943 0.6168 0.2107
C22 C 0.9724(3) 0.5287(3) 0.14276(8)
H23 H 1.0165 0.5638 0.1318
C23 C 0.8620(3) 0.4210(3) 0.15304(9)
H24 H 0.8121 0.3651 0.1504
C24 C 0.8970(3) 0.4860(3) 0.18117(9)
H25 H 0.8772 0.4842 0.2019
C25 C 1.0887(3) 0.5848(3) 0.27029(12)
H26 H 1.1565 0.6194 0.2738
H27 H 1.0803 0.5247 0.2538
H28 H 1.0853 0.5578 0.2928
C26 C 0.7660(3) 0.2265(3) 0.51837(8)
C27 C 0.7368(3) 0.2644(3) 0.48439(9)
H29 H 0.6956 0.3277 0.4781
C28 C 0.7685(3) 0.2088(3) 0.45931(8)
C29 C 0.8256(3) 0.1142(3) 0.46973(8)
H30 H 0.8466 0.0731 0.4532
C30 C 0.8516(2) 0.0804(3) 0.50426(8)
C31 C 0.6835(3) 0.3913(3) 0.38028(8)
C32 C 0.7015(3) 0.3528(3) 0.41381(8)
H31 H 0.6851 0.3960 0.4309
C33 C 0.7438(3) 0.2505(3) 0.42274(8)
C34 C 0.7636(2) 0.1887(3) 0.39637(8)
H32 H 0.7895 0.1173 0.4011
C35 C 0.7450(2) 0.2332(2) 0.36337(8)
C36 C 0.4255(2) 0.4837(3) 0.13974(8)
C37 C 0.3647(3) 0.3919(3) 0.12823(9)
C38 C 0.3357(3) 0.3618(3) 0.09286(9)
C39 C 0.3745(3) 0.4203(3) 0.06947(9)
C40 C 0.4352(2) 0.5116(3) 0.08154(8)
C41 C 0.4620(3) 0.5445(3) 0.11668(8)
C42 C 0.4444(3) 0.5230(3) 0.17673(8)
H33 H 0.4508 0.6024 0.1769
H34 H 0.3825 0.5052 0.1838
C43 C 0.5485(3) 0.4723(3) 0.23733(8)
H35 H 0.4956 0.4928 0.2471
C44 C 0.6926(3) 0.4156(3) 0.23183(9)
H36 H 0.7615 0.3881 0.2372
C45 C 0.6292(3) 0.4422(3) 0.19922(9)
H37 H 0.6452 0.4370 0.1779
C46 C 0.3288(3) 0.3254(4) 0.15392(10)
H38 H 0.2615 0.3527 0.1548
H39 H 0.3806 0.3304 0.1773
H40 H 0.3211 0.2500 0.1463
C47 C 0.2675(3) 0.2642(3) 0.08005(12)
H41 H 0.2541 0.2570 0.0545
H42 H 0.3065 0.1995 0.0914
C48 C 0.0962(3) 0.3454(3) 0.08000(8)
H43 H 0.1077 0.4147 0.0719
C49 C 0.0247(3) 0.2134(3) 0.09718(11)
H44 H -0.0246 0.1704 0.1035
C50 C 0.1214(4) 0.1806(4) 0.09811(14)
H45 H 0.1518 0.1119 0.1052
C51 C 0.3535(3) 0.3808(4) 0.03220(10)
H46 H 0.2794 0.3906 0.0190
H47 H 0.3715 0.3043 0.0325
H48 H 0.3961 0.4220 0.0209
C52 C 0.4699(3) 0.5823(4) 0.05649(10)
H49 H 0.4286 0.5635 0.0321
H50 H 0.4549 0.6584 0.0605
C53 C 0.6409(3) 0.4834(3) 0.06639(9)
H51 H 0.6160 0.4134 0.0690
C54 C 0.7402(3) 0.6141(3) 0.06346(11)
H52 H 0.8002 0.6542 0.0636
C55 C 0.6446(3) 0.6562(4) 0.05848(11)
H53 H 0.6249 0.7297 0.0544
C56 C 0.5286(3) 0.6426(3) 0.12952(10)
H54 H 0.5828 0.6465 0.1181
H55 H 0.5615 0.6378 0.1550
H56 H 0.4849 0.7073 0.1238
Ni1A Ni 0.32097(3) 0.88792(3) 0.192484(10)
Ni2C Ni 0.87118(3) 0.40527(4) 0.077570(10)
Ni2C_2 Ni -0.12882(3) 0.40527(4) 0.077570(10)
N4A N 0.5252(2) 0.3337(2) 0.29554(6)
N6C N 0.9101(2) 0.0515(2) 0.62872(6)
N12C N 1.0088(2) 0.1834(2) 0.58586(6)
N14C N 0.7382(2) -0.0049(3) 0.56829(7)
O9 O 0.3413(3) 0.5875(2) 0.25338(8)
H1 H 0.311(3) 0.632(3) 0.2384(9)
H2 H 0.367(4) 0.619(3) 0.2725(8)
O10 O 0.2505(3) 0.6475(4) 0.36457(9)
H3 H 0.248(5) 0.679(4) 0.3833(10)
H4 H 0.276(5) 0.584(2) 0.3697(16)
O11 O 0.9923(3) 0.7607(3) 0.58228(11)
O12 O 0.8418(5) 0.6022(5) 0.57880(17)
O13 O 0.4117(6) 0.6612(6) 0.32782(16)
O14 O 0.9672(8) 0.6964(8) 0.4929(3)
O15 O 0.8611(15) 0.5091(16) 0.5012(5)
O17 O 0.6837(15) 0.5635(12) 0.6126(4)
O18 O 0.503(2) 0.545(3) 0.4359(6)
O20 O 0.4996(15) 0.6263(15) 0.5218(6)
O21 O 0.6438(9) 0.5626(9) 0.5609(3)
O23 O 0.524(2) 0.598(2) 0.5806(11)
O25 O 0.6812(15) 0.5567(15) 0.5043(6)
O26 O 0.9368(7) 0.4079(7) 0.4446(2)
loop_
_geom_bond_atom_site_label_1
_geom_bond_atom_site_label_2
_geom_bond_site_symmetry_1
_geom_bond_site_symmetry_2
Ni1 O5 1_555 1_555
Ni2 O1 1_555 1_555
O1 C7 1_555 1_555
O2 C7 1_555 1_555
O3 Ni2 1_555 1_555
O4 C8 1_555 1_555
O5 C9 1_555 1_555
O6 C9 1_555 1_555
O7 Ni1 1_555 1_555
O8 C10 1_555 1_555
O9 H1 1_555 1_555
H2 O9 1_555 1_555
O10 H3 1_555 1_555
H4 O10 1_555 1_555
N1 C11 1_555 1_555
N2 Ni1 1_555 1_555
N3 C16 1_555 1_555
N4 C17 1_555 1_555
N5 C21 1_555 1_555
N6 C22 1_555 1_555
N7 Ni2 1_555 1_555
N8 Ni1 1_555 1_555
N9 C42 1_555 1_555
N10 Ni1 1_555 1_555
N11 C47 1_555 1_555
N12 C48 1_555 1_555
N13 C52 1_555 1_555
N14 C53 1_555 1_555
C1 C2 1_555 1_555
C2 C3 1_555 1_555
C3 C4 1_555 1_555
C4 C5 1_555 1_555
C5 C6 1_555 1_555
C6 C1 1_555 1_555
C7 C26 1_555 1_555
C8 O3 1_555 1_555
C9 C35 1_555 1_555
C10 O7 1_555 1_555
C11 C1 1_555 1_555
H5 C11 1_555 1_555
H6 C11 1_555 1_555
C12 N1 1_555 1_555
H7 C12 1_555 1_555
C13 N2 1_555 1_555
H8 C13 1_555 1_555
C14 N1 1_555 1_555
H9 C14 1_555 1_555
C15 C2 1_555 1_555
H10 C15 1_555 1_555
H11 C15 1_555 1_555
H12 C15 1_555 1_555
C16 C3 1_555 1_555
H13 C16 1_555 1_555
H14 C16 1_555 1_555
C17 N3 1_555 1_555
H15 C17 1_555 1_555
C18 N4 1_555 1_555
H16 C18 1_555 1_555
C19 N3 1_555 1_555
H17 C19 1_555 1_555
C20 C4 1_555 1_555
H18 C20 1_555 1_555
H19 C20 1_555 1_555
H20 C20 1_555 1_555
C21 C5 1_555 1_555
H21 C21 1_555 1_555
H22 C21 1_555 1_555
C22 N5 1_555 1_555
H23 C22 1_555 1_555
C23 N6 1_555 1_555
H24 C23 1_555 1_555
C24 N5 1_555 1_555
H25 C24 1_555 1_555
C25 C6 1_555 1_555
H26 C25 1_555 1_555
H27 C25 1_555 1_555
H28 C25 1_555 1_555
C26 N7 1_555 1_555
C27 C26 1_555 1_555
H29 C27 1_555 1_555
C28 C27 1_555 1_555
C29 C28 1_555 1_555
H30 C29 1_555 1_555
C30 N7 1_555 1_555
C31 N8 1_555 1_555
C32 C31 1_555 1_555
H31 C32 1_555 1_555
C33 C28 1_555 1_555
C34 C33 1_555 1_555
H32 C34 1_555 1_555
C35 N8 1_555 1_555
C36 C37 1_555 1_555
C37 C38 1_555 1_555
C38 C39 1_555 1_555
C39 C40 1_555 1_555
C40 C41 1_555 1_555
C41 C36 1_555 1_555
C42 C36 1_555 1_555
H33 C42 1_555 1_555
H34 C42 1_555 1_555
C43 N9 1_555 1_555
H35 C43 1_555 1_555
C44 N10 1_555 1_555
H36 C44 1_555 1_555
C45 N9 1_555 1_555
H37 C45 1_555 1_555
C46 C37 1_555 1_555
H38 C46 1_555 1_555
H39 C46 1_555 1_555
H40 C46 1_555 1_555
C47 C38 1_555 1_555
H41 C47 1_555 1_555
H42 C47 1_555 1_555
C48 N11 1_555 1_555
H43 C48 1_555 1_555
C49 N12 1_555 1_555
H44 C49 1_555 1_555
C50 N11 1_555 1_555
H45 C50 1_555 1_555
C51 C39 1_555 1_555
H46 C51 1_555 1_555
H47 C51 1_555 1_555
H48 C51 1_555 1_555
C52 C40 1_555 1_555
H49 C52 1_555 1_555
H50 C52 1_555 1_555
C53 N13 1_555 1_555
H51 C53 1_555 1_555
C54 N14 1_555 1_555
H52 C54 1_555 1_555
C55 N13 1_555 1_555
H53 C55 1_555 1_555
C56 C41 1_555 1_555
H54 C56 1_555 1_555
H55 C56 1_555 1_555
H56 C56 1_555 1_555
Ni1A N4 1_555 1_555
Ni2C N6 1_555 1_555
Ni2C_2 N12 1_555 1_555
N4A Ni1 1_555 1_555
N6C Ni2 1_555 1_555
N12C Ni2 1_555 1_555
N14C Ni2 1_555 1_555
N2 C12 1_555 1_555
N10 C43 1_555 1_555
N14 Ni2C 1_555 1_555
C8 C30 1_555 1_555
C10 C31 1_555 1_555
C13 C14 1_555 1_555
C18 C19 1_555 1_555
C23 C24 1_555 1_555
C29 C30 1_555 1_555
C32 C33 1_555 1_555
C34 C35 1_555 1_555
C44 C45 1_555 1_555
C49 C50 1_555 1_555
C54 C55 1_555 1_555

#END
