
#######################################################################
#
#                 Cambridge Crystallographic Data Centre
#                                CCDC 
#
#######################################################################
#
# If this CIF has been generated from an entry in the Cambridge 
# Structural Database, then it will include bibliographic, chemical, 
# crystal, experimental, refinement or atomic coordinate data resulting 
# from the CCDC's data processing and validation procedures.
#
#######################################################################

data_LIWFIG
_chemical_formula_moiety         '(C4 H38 Fe8 N2 O62 P14 4-)n'
_symmetry_cell_setting           trigonal
_symmetry_space_group_name_H-M   'P -3'
_symmetry_Int_Tables_number      147
_space_group_name_Hall           '-P 3'
loop_
_symmetry_equiv_pos_site_id
_symmetry_equiv_pos_as_xyz
1 x,y,z
2 -y,x-y,z
3 -x+y,-x,z
4 -x,-y,-z
5 y,-x+y,-z
6 x-y,x,-z
_cell_length_a                   13.495(2)
_cell_length_b                   13.495(2)
_cell_length_c                   9.396(2)
_cell_angle_alpha                90
_cell_angle_beta                 90
_cell_angle_gamma                120
_cell_volume                     1481.9
loop_
_atom_site_label
_atom_site_type_symbol
_atom_site_fract_x
_atom_site_fract_y
_atom_site_fract_z
Fe1 Fe 0.1460(1) 0.4408(1) 0.9018(1)
Fe2 Fe 0.0000 0.0000 0.5000
Fe3 Fe 0.0000 0.0000 1.0000
P1 P 0.3333 0.6667 0.7140(2)
P2 P 0.3677(1) 0.4955(1) 1.0960(1)
P3 P 0.0362(1) 0.1898(1) 0.7410(1)
O1 O 0.2850(3) 0.4367(3) 0.9716(3)
O2 O 0.4560(3) 0.6202(4) 1.0625(3)
O3 O 0.4230(3) 0.4281(4) 1.1435(3)
O4 O 0.1175(3) 0.3178(3) 0.7580(3)
O5 O 0.0227(3) 0.1310(3) 0.8849(3)
O6 O 0.0745(3) 0.1421(3) 0.6221(4)
O7 O 0.0580(3) 0.3061(3) 1.0617(4)
O8 O 0.2272(3) 0.5570(3) 0.7664(3)
O9 O 0.3333 0.6667 0.5510(6)
O10 O 0.2990(3) 0.5019(3) 1.2283(3)
O11 O -0.0850(3) 0.1718(3) 0.6992(4)
O8A O 0.4430(3) 0.6702(4) 0.7664(3)
O8B O 0.3298(4) 0.7728(3) 0.7664(3)
Fe1A Fe -0.4408(1) -0.2948(1) 0.9018(1)
P1_2 P -0.6667 -0.3333 0.7140(2)
P2A P -0.4955(1) -0.1278(1) 1.0960(1)
P3A P -0.1898(1) -0.1536(1) 0.7410(1)
O1A O -0.4367(3) -0.1517(4) 0.9716(3)
O2A O -0.6202(4) -0.1642(5) 1.0625(3)
O3A O -0.4281(4) -0.0051(5) 1.1435(3)
O4A O -0.3178(3) -0.2003(4) 0.7580(3)
O5A O -0.1310(3) -0.1083(4) 0.8849(3)
O6A O -0.1421(3) -0.0676(4) 0.6221(4)
O7A O -0.3061(3) -0.2481(4) 1.0617(4)
O8A_2 O -0.5570(3) -0.3298(4) 0.7664(3)
O9_2 O -0.6667 -0.3333 0.5510(6)
O10A O -0.5019(3) -0.2029(4) 1.2283(3)
O11A O -0.1718(3) -0.2568(4) 0.6992(4)
O8B_2 O -0.6702(4) -0.2272(3) 0.7664(3)
O8_2 O -0.7728(3) -0.4430(3) 0.7664(3)
Fe1B Fe 0.2948(1) -0.1460(1) 0.9018(1)
P2B P 0.1278(1) -0.3677(1) 1.0960(1)
P3B P 0.1536(1) -0.0362(1) 0.7410(1)
O1B O 0.1517(4) -0.2850(3) 0.9716(3)
O2B O 0.1642(5) -0.4560(3) 1.0625(3)
O3B O 0.0051(5) -0.4230(3) 1.1435(3)
O4B O 0.2003(4) -0.1175(3) 0.7580(3)
O5B O 0.1083(4) -0.0227(3) 0.8849(3)
O6B O 0.0676(4) -0.0745(3) 0.6221(4)
O7B O 0.2481(4) -0.0580(3) 1.0617(4)
O10B O 0.2029(4) -0.2990(3) 1.2283(3)
O11B O 0.2568(4) 0.0850(3) 0.6992(4)
Fe1C Fe -0.1460(1) -0.4408(1) 0.0982(1)
P2C P -0.3677(1) -0.4955(1) -0.0960(1)
P3C P -0.0362(1) -0.1898(1) 0.2590(1)
O1C O -0.2850(3) -0.4367(3) 0.0284(3)
O2C O -0.4560(3) -0.6202(4) -0.0625(3)
O3C O -0.4230(3) -0.4281(4) -0.1435(3)
O4C O -0.1175(3) -0.3178(3) 0.2420(3)
O5C O -0.0227(3) -0.1310(3) 0.1151(3)
O6C O -0.0745(3) -0.1421(3) 0.3779(4)
O7C O -0.0580(3) -0.3061(3) -0.0617(4)
O10C O -0.2990(3) -0.5019(3) -0.2283(3)
O11C O 0.0850(3) -0.1718(3) 0.3008(4)
Fe1D Fe 0.4408(1) 0.2948(1) 0.0982(1)
P2D P 0.4955(1) 0.1278(1) -0.0960(1)
P3D P 0.1898(1) 0.1536(1) 0.2590(1)
O1D O 0.4367(3) 0.1517(4) 0.0284(3)
O2D O 0.6202(4) 0.1642(5) -0.0625(3)
O3D O 0.4281(4) 0.0051(5) -0.1435(3)
O4D O 0.3178(3) 0.2003(4) 0.2420(3)
O5D O 0.1310(3) 0.1083(4) 0.1151(3)
O6D O 0.1421(3) 0.0676(4) 0.3779(4)
O7D O 0.3061(3) 0.2481(4) -0.0617(4)
O10D O 0.5019(3) 0.2029(4) -0.2283(3)
O11D O 0.1718(3) 0.2568(4) 0.3008(4)
Fe1E Fe -0.2948(1) 0.1460(1) 0.0982(1)
P2E P -0.1278(1) 0.3677(1) -0.0960(1)
P3E P -0.1536(1) 0.0362(1) 0.2590(1)
O1E O -0.1517(4) 0.2850(3) 0.0284(3)
O2E O -0.1642(5) 0.4560(3) -0.0625(3)
O3E O -0.0051(5) 0.4230(3) -0.1435(3)
O4E O -0.2003(4) 0.1175(3) 0.2420(3)
O5E O -0.1083(4) 0.0227(3) 0.1151(3)
O6E O -0.0676(4) 0.0745(3) 0.3779(4)
O7E O -0.2481(4) 0.0580(3) -0.0617(4)
O10E O -0.2029(4) 0.2990(3) -0.2283(3)
O11E O -0.2568(4) -0.0850(3) 0.3008(4)
Fe1_2 Fe -0.8540(1) -0.5592(1) 0.9018(1)
Fe1_3 Fe 0.1460(1) -0.5592(1) 0.9018(1)
Fe1_4 Fe 0.1460(1) 0.4408(1) -0.0982(1)
Fe1A_2 Fe -0.4408(1) -0.2948(1) -0.0982(1)
Fe1A_3 Fe 0.5592(1) 0.7052(1) 0.9018(1)
Fe1B_2 Fe -0.7052(1) -0.1460(1) 0.9018(1)
Fe1B_3 Fe 0.2948(1) -0.1460(1) -0.0982(1)
Fe1B_4 Fe 0.2948(1) 0.8540(1) 0.9018(1)
Fe1C_2 Fe -0.1460(1) -0.4408(1) 1.0982(1)
Fe1C_3 Fe -0.1460(1) 0.5592(1) 0.0982(1)
Fe1D_2 Fe -0.5592(1) -0.7052(1) 0.0982(1)
Fe1D_3 Fe 0.4408(1) 0.2948(1) 1.0982(1)
Fe1E_2 Fe -0.2948(1) 0.1460(1) 1.0982(1)
Fe1E_3 Fe 0.7052(1) 0.1460(1) 0.0982(1)
Fe3_2 Fe 0.0000 0.0000 0.0000
O2_2 O -0.5440(3) -0.3798(4) 1.0625(3)
O2A_2 O 0.3798(4) -0.1642(5) 1.0625(3)
O2B_2 O 0.1642(5) 0.5440(3) 1.0625(3)
O2C_2 O 0.5440(3) 0.3798(4) -0.0625(3)
O2D_2 O -0.3798(4) 0.1642(5) -0.0625(3)
O2E_2 O -0.1642(5) -0.5440(3) -0.0625(3)
O3_2 O 0.4230(3) 0.4281(4) 0.1435(3)
O3A_2 O -0.4281(4) -0.0051(5) 0.1435(3)
O3B_2 O 0.0051(5) -0.4230(3) 0.1435(3)
O3C_2 O -0.4230(3) -0.4281(4) 0.8565(3)
O3D_2 O 0.4281(4) 0.0051(5) 0.8565(3)
O3E_2 O -0.0051(5) 0.4230(3) 0.8565(3)
O5C_2 O -0.0227(3) -0.1310(3) 1.1151(3)
O5D_2 O 0.1310(3) 0.1083(4) 1.1151(3)
O5E_2 O -0.1083(4) 0.0227(3) 1.1151(3)
O8B_3 O 0.3298(4) -0.2272(3) 0.7664(3)
O8C O -0.2272(3) -0.5570(3) 0.2336(3)
O8D O 0.5570(3) 0.3298(4) 0.2336(3)
O8E O -0.3298(4) 0.2272(3) 0.2336(3)
N1 N 0.2760(4) 0.4272(4) 0.5326(5)
C1 C 0.3600(5) 0.4036(5) 0.6043(6)
C2 C 0.4644(4) 0.4361(4) 0.5147(6)
N1C N 0.7240(4) 0.5728(4) 0.4674(5)
C1C C 0.6400(5) 0.5964(5) 0.3957(6)
C2C C 0.5356(4) 0.5639(4) 0.4853(6)
loop_
_geom_bond_atom_site_label_1
_geom_bond_atom_site_label_2
_geom_bond_site_symmetry_1
_geom_bond_site_symmetry_2
Fe1 O1 1_555 1_555
Fe2 O6 1_555 1_555
Fe3 O5 1_555 1_555
P1 O8 1_555 1_555
P2 O1 1_555 1_555
P3 O4 1_555 1_555
O2 P2 1_555 1_555
O3 P2 1_555 1_555
O4 Fe1 1_555 1_555
O5 P3 1_555 1_555
O6 P3 1_555 1_555
O7 Fe1 1_555 1_555
O8 Fe1 1_555 1_555
O9 P1 1_555 1_555
O10 P2 1_555 1_555
O11 P3 1_555 1_555
N1 C1 1_555 1_555
C1 C2 1_555 1_555
C2 C2C 1_555 1_555
O8A P1 1_555 1_555
O8B P1 1_555 1_555
Fe1A O1A 1_555 1_555
P1_2 O8A_2 1_555 1_555
P2A O1A 1_555 1_555
P3A O4A 1_555 1_555
O2A P2A 1_555 1_555
O3A P2A 1_555 1_555
O4A Fe1A 1_555 1_555
O5A Fe3 1_555 1_555
O6A Fe2 1_555 1_555
O7A Fe1A 1_555 1_555
O8A_2 Fe1A 1_555 1_555
O9_2 P1_2 1_555 1_555
O10A P2A 1_555 1_555
O11A P3A 1_555 1_555
O8B_2 P1_2 1_555 1_555
O8_2 P1_2 1_555 1_555
Fe1B O1B 1_555 1_555
P2B O1B 1_555 1_555
P3B O4B 1_555 1_555
O2B P2B 1_555 1_555
O3B P2B 1_555 1_555
O4B Fe1B 1_555 1_555
O5B Fe3 1_555 1_555
O6B Fe2 1_555 1_555
O7B Fe1B 1_555 1_555
O10B P2B 1_555 1_555
O11B P3B 1_555 1_555
Fe1C O1C 1_555 1_555
P2C O1C 1_555 1_555
P3C O4C 1_555 1_555
O2C P2C 1_555 1_555
O3C P2C 1_555 1_555
O4C Fe1C 1_555 1_555
O5C P3C 1_555 1_555
O6C Fe2 1_555 1_555
O7C Fe1C 1_555 1_555
O10C P2C 1_555 1_555
O11C P3C 1_555 1_555
Fe1D O1D 1_555 1_555
P2D O1D 1_555 1_555
P3D O4D 1_555 1_555
O2D P2D 1_555 1_555
O3D P2D 1_555 1_555
O4D Fe1D 1_555 1_555
O5D P3D 1_555 1_555
O6D Fe2 1_555 1_555
O7D Fe1D 1_555 1_555
O10D P2D 1_555 1_555
O11D P3D 1_555 1_555
Fe1E O1E 1_555 1_555
P2E O1E 1_555 1_555
P3E O4E 1_555 1_555
O2E P2E 1_555 1_555
O3E P2E 1_555 1_555
O4E Fe1E 1_555 1_555
O5E P3E 1_555 1_555
O6E Fe2 1_555 1_555
O7E Fe1E 1_555 1_555
O10E P2E 1_555 1_555
O11E P3E 1_555 1_555
Fe1_2 O8_2 1_555 1_555
Fe1_3 O2B 1_555 1_555
Fe1_4 O3E 1_555 1_555
Fe1A_2 O3C 1_555 1_555
Fe1A_3 O2 1_555 1_555
Fe1B_2 O2A 1_555 1_555
Fe1B_3 O3D 1_555 1_555
Fe1B_4 O8B 1_555 1_555
Fe1C_2 O3B 1_555 1_555
Fe1C_3 O2E 1_555 1_555
Fe1D_2 O2C 1_555 1_555
Fe1D_3 O3 1_555 1_555
Fe1E_2 O3A 1_555 1_555
Fe1E_3 O2D 1_555 1_555
Fe3_2 O5C 1_555 1_555
O2_2 Fe1A 1_555 1_555
O2A_2 Fe1B 1_555 1_555
O2B_2 Fe1 1_555 1_555
O2C_2 Fe1D 1_555 1_555
O2D_2 Fe1E 1_555 1_555
O2E_2 Fe1C 1_555 1_555
O3_2 Fe1D 1_555 1_555
O3A_2 Fe1E 1_555 1_555
O3B_2 Fe1C 1_555 1_555
O3C_2 Fe1A 1_555 1_555
O3D_2 Fe1B 1_555 1_555
O3E_2 Fe1 1_555 1_555
O5C_2 Fe3 1_555 1_555
O5D_2 Fe3 1_555 1_555
O5E_2 Fe3 1_555 1_555
O8B_3 Fe1B 1_555 1_555
O8C Fe1C 1_555 1_555
O8D Fe1D 1_555 1_555
O8E Fe1E 1_555 1_555
N1C C1C 1_555 1_555
C1C C2C 1_555 1_555
O8A Fe1A_3 1_555 1_555
P3A O5A 1_555 1_555
P3A O6A 1_555 1_555
O8B_2 Fe1B_2 1_555 1_555
P3B O5B 1_555 1_555
P3B O6B 1_555 1_555
P3C O6C 1_555 1_555
P3D O6D 1_555 1_555
O5D Fe3_2 1_555 1_555
P3E O6E 1_555 1_555
O5E Fe3_2 1_555 1_555

#END
