
#######################################################################
#
#                 Cambridge Crystallographic Data Centre
#                                CCDC 
#
#######################################################################
#
# If this CIF has been generated from an entry in the Cambridge 
# Structural Database, then it will include bibliographic, chemical, 
# crystal, experimental, refinement or atomic coordinate data resulting 
# from the CCDC's data processing and validation procedures.
#
#######################################################################

data_CURBOH
_chemical_formula_moiety         '(C78 H60 I6 N12 Zn3)n'
_symmetry_cell_setting           monoclinic
_symmetry_space_group_name_H-M   'C 2/c'
_symmetry_Int_Tables_number      15
_space_group_name_Hall           '-C 2yc'
loop_
_symmetry_equiv_pos_site_id
_symmetry_equiv_pos_as_xyz
1 x,y,z
2 -x,y,1/2-z
3 1/2+x,1/2+y,z
4 1/2-x,1/2+y,1/2-z
5 -x,-y,-z
6 x,-y,1/2+z
7 1/2-x,1/2-y,-z
8 1/2+x,1/2-y,1/2+z
_cell_length_a                   34.468(7)
_cell_length_b                   14.830(3)
_cell_length_c                   33.920(7)
_cell_angle_alpha                90
_cell_angle_beta                 106.45(3)
_cell_angle_gamma                90
_cell_volume                     16628.8
loop_
_atom_site_label
_atom_site_type_symbol
_atom_site_fract_x
_atom_site_fract_y
_atom_site_fract_z
_atom_site_U_iso_or_equiv
_atom_site_thermal_displace_type
C1 C 0.7174(9) 0.2122(18) 0.0637(9) 0.1010 Uani
H1 H 0.7066 0.2709 0.0568 0.1210 Uiso
C2 C 0.7079(8) 0.1658(17) 0.0940(8) 0.0964 Uani
H2 H 0.6911 0.1936 0.1083 0.1160 Uiso
C3 C 0.7223(7) 0.0764(17) 0.1052(8) 0.0854 Uani
H3 H 0.7139 0.0417 0.1249 0.1030 Uiso
C4 C 0.7489(9) 0.0448(19) 0.0854(10) 0.1168 Uani
H4 H 0.7614 -0.0120 0.0933 0.1370 Uiso
C5 C 0.7582(9) 0.092(2) 0.0547(9) 0.1026 Uani
H5 H 0.7760 0.0663 0.0409 0.1250 Uiso
C6 C 0.7414(9) 0.178(2) 0.0435(9) 0.0986 Uani
C7 C 0.7583(14) 0.211(3) 0.0090(12) 0.1685 Uani
H6 H 0.7787 0.1791 0.0007 0.2060 Uiso
C1F C 0.7826(9) 0.2878(18) -0.0637(9) 0.1010 Uani
H1F H 0.7934 0.2291 -0.0568 0.1210 Uiso
C2F C 0.7921(8) 0.3342(17) -0.0940(8) 0.0964 Uani
H2F H 0.8089 0.3064 -0.1083 0.1160 Uiso
C3F C 0.7777(7) 0.4236(17) -0.1052(8) 0.0854 Uani
H3F H 0.7861 0.4583 -0.1249 0.1030 Uiso
C4F C 0.7511(9) 0.4552(19) -0.0854(10) 0.1168 Uani
H4F H 0.7386 0.5120 -0.0933 0.1370 Uiso
C5F C 0.7418(9) 0.408(2) -0.0547(9) 0.1026 Uani
H5F H 0.7240 0.4337 -0.0409 0.1250 Uiso
C6F C 0.7586(9) 0.322(2) -0.0435(9) 0.0986 Uani
C7F C 0.7417(14) 0.289(3) -0.0090(12) 0.1685 Uani
H6F H 0.7213 0.3209 -0.0007 0.2060 Uiso
C8 C 0.5460(15) 0.868(2) -0.0599(11) 0.1983 Uani
H7 H 0.5445 0.9322 -0.0593 0.2380 Uiso
C9 C 0.5126(12) 0.818(3) -0.0637(12) 0.2058 Uani
H8 H 0.4876 0.8467 -0.0659 0.2450 Uiso
C10 C 0.5138(12) 0.722(3) -0.0647(12) 0.2047 Uani
H9 H 0.4899 0.6877 -0.0669 0.2450 Uiso
C11 C 0.5506(14) 0.678(3) -0.0623(15) 0.2055 Uani
H10 H 0.5517 0.6141 -0.0655 0.2490 Uiso
C12 C 0.5858(13) 0.731(3) -0.0549(17) 0.2560 Uani
H11 H 0.6116 0.7032 -0.0486 0.3120 Uiso
C13 C 0.5824(13) 0.826(3) -0.0570(15) 0.2517 Uani
C14 C 0.6237(16) 0.857(4) -0.0500(16) 0.2750 Uani
H12 H 0.6419 0.8102 -0.0375 0.3270 Uiso
C15 C 0.6413(15) 0.918(4) -0.0547(16) 0.2302 Uani
H13 H 0.6260 0.9684 -0.0501 0.2720 Uiso
C16 C 0.6763(10) 0.957(3) -0.0643(14) 0.1424 Uani
C17 C 0.6766(9) 1.032(3) -0.0874(15) 0.1707 Uani
H14 H 0.6516 1.0596 -0.1017 0.2070 Uiso
C18 C 0.7110(9) 1.068(2) -0.0903(13) 0.1615 Uani
H15 H 0.7105 1.1212 -0.1064 0.1890 Uiso
C19 C 0.7486(9) 1.028(2) -0.0693(11) 0.1212 Uani
H16 H 0.7732 1.0536 -0.0715 0.1480 Uiso
C20 C 0.7498(9) 0.956(2) -0.0475(10) 0.1397 Uani
H17 H 0.7746 0.9258 -0.0353 0.1650 Uiso
C21 C 0.7118(11) 0.924(2) -0.0422(12) 0.1601 Uani
H18 H 0.7123 0.8777 -0.0226 0.1910 Uiso
C22 C 0.4155(16) 0.937(3) -0.2533(16) 0.2110 Uani
H19 H 0.4285 0.8797 -0.2490 0.2500 Uiso
C23 C 0.4297(15) 1.006(3) -0.2249(16) 0.2316 Uani
H20 H 0.4551 1.0018 -0.2047 0.2760 Uiso
C24 C 0.4050(18) 1.084(3) -0.2272(17) 0.2378 Uani
H21 H 0.4121 1.1288 -0.2066 0.2840 Uiso
C25 C 0.3705(15) 1.092(3) -0.2599(17) 0.2115 Uani
H22 H 0.3526 1.1411 -0.2601 0.2560 Uiso
C26 C 0.3834(14) 0.950(2) -0.2871(14) 0.1797 Uani
C27 C 0.3616(13) 1.034(3) -0.2912(13) 0.1847 Uani
H23 H 0.3412 1.0474 -0.3159 0.2200 Uiso
C28 C 0.3637(15) 0.887(3) -0.3217(15) 0.1726 Uani
H24 H 0.3440 0.9114 -0.3446 0.2100 Uiso
C29 C 0.3705(15) 0.814(3) -0.3225(16) 0.1730 Uani
H25 H 0.3906 0.7958 -0.2983 0.2100 Uiso
C30 C 0.3565(13) 0.733(3) -0.3517(12) 0.1558 Uani
C31 C 0.3751(12) 0.654(3) -0.3484(13) 0.1774 Uani
H26 H 0.3971 0.6424 -0.3248 0.2150 Uiso
C32 C 0.3639(15) 0.586(3) -0.3784(15) 0.2017 Uani
H27 H 0.3788 0.5320 -0.3765 0.2420 Uiso
C33 C 0.3296(15) 0.603(3) -0.4111(15) 0.2060 Uani
H28 H 0.3190 0.5580 -0.4312 0.2490 Uiso
C34 C 0.3120(13) 0.685(3) -0.4132(14) 0.1954 Uani
H29 H 0.2930 0.7010 -0.4385 0.2370 Uiso
C35 C 0.3191(11) 0.745(3) -0.3827(14) 0.1626 Uani
H30 H 0.3008 0.7925 -0.3818 0.1940 Uiso
I1 I 0.86548(4) -0.06257(9) 0.50279(4) 0.0568 Uani
I2 I 0.89874(4) -0.23156(8) 0.40714(5) 0.0633 Uani
I3 I 0.73434(5) 0.73725(9) 0.29000(5) 0.0679 Uani
I4 I 0.62119(6) 0.67053(10) 0.19739(5) 0.0797 Uani
I5 I 0.68600(10) -0.19087(14) 0.06188(7) 0.1383 Uani
I6 I 0.56217(11) -0.1975(2) 0.07559(10) 0.2070 Uani
Zn1 Zn 0.88448(6) -0.08194(13) 0.43631(6) 0.0421 Uani
Zn2 Zn 0.67099(7) 0.64267(14) 0.26738(8) 0.0526 Uani
Zn3 Zn 0.62336(12) -0.11502(17) 0.07502(8) 0.1035 Uani
C36 C 0.8318(6) 0.0639(11) 0.3932(6) 0.0527 Uani
H31 H 0.8494 0.0990 0.4143 0.0630 Uiso
C37 C 0.8002(6) 0.1070(12) 0.3653(6) 0.0573 Uani
H32 H 0.7963 0.1698 0.3681 0.0690 Uiso
C38 C 0.7743(5) 0.0601(10) 0.3337(5) 0.0371 Uani
C39 C 0.7820(6) -0.0290(12) 0.3326(5) 0.0502 Uani
H33 H 0.7651 -0.0653 0.3115 0.0600 Uiso
C40 C 0.8137(6) -0.0681(12) 0.3613(6) 0.0552 Uani
H34 H 0.8183 -0.1309 0.3593 0.0660 Uiso
C41 C 0.7433(5) 0.1014(12) 0.3026(6) 0.0444 Uani
C42 C 0.6610(7) 0.4525(14) 0.2426(7) 0.0668 Uani
H35 H 0.6407 0.4778 0.2203 0.0800 Uiso
C43 C 0.6673(7) 0.3603(12) 0.2445(7) 0.0629 Uani
H36 H 0.6515 0.3235 0.2230 0.0750 Uiso
C44 C 0.6956(5) 0.3205(10) 0.2764(5) 0.0377 Uani
C45 C 0.7153(7) 0.3752(12) 0.3081(6) 0.0611 Uani
H37 H 0.7340 0.3509 0.3319 0.0730 Uiso
C46 C 0.7071(7) 0.4700(13) 0.3049(7) 0.0729 Uani
H38 H 0.7197 0.5081 0.3274 0.0870 Uiso
C47 C 0.7044(7) 0.2221(11) 0.2763(6) 0.0517 Uani
C48 C 0.6653(7) -0.0941(12) 0.1633(5) 0.0648 Uani
H39 H 0.6700 -0.1568 0.1613 0.0780 Uiso
C49 C 0.6843(6) -0.0483(13) 0.2010(6) 0.0598 Uani
H40 H 0.7045 -0.0779 0.2221 0.0720 Uiso
C50 C 0.6732(6) 0.0387(11) 0.2064(5) 0.0464 Uani
C51 C 0.6460(7) 0.0798(12) 0.1737(6) 0.0680 Uani
H41 H 0.6376 0.1400 0.1761 0.0810 Uiso
C52 C 0.6312(8) 0.0332(14) 0.1379(7) 0.0824 Uani
H42 H 0.6122 0.0630 0.1159 0.0990 Uiso
C53 C 0.6932(5) 0.0924(10) 0.2427(5) 0.0403 Uani
C54 C 0.6351(10) 0.0380(15) 0.0219(7) 0.0735 Uani
H43 H 0.6622 0.0170 0.0300 0.0900 Uiso
C55 C 0.6260(7) 0.1081(14) -0.0042(6) 0.0662 Uani
H44 H 0.6459 0.1336 -0.0154 0.0790 Uiso
C56 C 0.5859(8) 0.1430(12) -0.0146(6) 0.0646 Uani
C57 C 0.5568(7) 0.1027(13) 0.0003(6) 0.0680 Uani
H45 H 0.5294 0.1219 -0.0069 0.0820 Uiso
C58 C 0.5727(13) 0.0260(18) 0.0286(8) 0.1136 Uani
H46 H 0.5549 -0.0033 0.0414 0.1370 Uiso
C59 C 0.5746(6) 0.2215(11) -0.0422(6) 0.0440 Uani
C60 C 0.4507(8) 0.5097(17) -0.0921(8) 0.0876 Uani
H47 H 0.4406 0.5549 -0.1122 0.1050 Uiso
C61 C 0.4823(7) 0.4561(15) -0.0963(7) 0.0707 Uani
H48 H 0.4919 0.4601 -0.1199 0.0850 Uiso
C62 C 0.4992(5) 0.3963(11) -0.0646(5) 0.0434 Uani
C63 C 0.4843(6) 0.3931(14) -0.0317(6) 0.0571 Uani
H49 H 0.4964 0.3555 -0.0089 0.0690 Uiso
C64 C 0.4514(7) 0.4452(14) -0.0321(6) 0.0612 Uani
H50 H 0.4405 0.4403 -0.0095 0.0740 Uiso
C65 C 0.5335(5) 0.3389(11) -0.0659(5) 0.0388 Uani
C66 C 0.6625(7) 0.3071(19) -0.1482(9) 0.0833 Uani
H51 H 0.6894 0.2861 -0.1439 0.1010 Uiso
C67 C 0.6460(6) 0.2970(15) -0.1180(7) 0.0683 Uani
H52 H 0.6609 0.2739 -0.0920 0.0820 Uiso
C68 C 0.6040(6) 0.3228(14) -0.1264(8) 0.0630 Uani
C69 C 0.5863(7) 0.3612(18) -0.1611(8) 0.0813 Uani
H53 H 0.5602 0.3869 -0.1655 0.0970 Uiso
C70 C 0.6042(8) 0.365(3) -0.1899(9) 0.1330 Uani
H54 H 0.5881 0.3820 -0.2165 0.1600 Uiso
C71 C 0.5830(5) 0.3017(12) -0.0951(5) 0.0435 Uani
N1 N 0.8387(4) -0.0214(9) 0.3923(4) 0.0449 Uani
N2 N 0.6829(5) 0.5057(10) 0.2717(5) 0.0509 Uani
N3 N 0.6417(5) -0.0520(9) 0.1315(5) 0.0575 Uani
N4 N 0.7345(4) 0.1928(9) 0.3076(4) 0.0406 Uani
N5 N 0.6816(4) 0.1749(9) 0.2445(4) 0.0425 Uani
N6 N 0.7224(5) 0.0521(9) 0.2706(4) 0.0469 Uani
N7 N 0.6091(8) -0.0022(12) 0.0366(6) 0.0818 Uani
N8 N 0.4339(4) 0.5020(10) -0.0621(4) 0.0407 Uani
N9 N 0.6438(5) 0.3458(11) -0.1856(5) 0.0584 Uani
N10 N 0.5436(4) 0.2722(9) -0.0390(5) 0.0429 Uani
N11 N 0.5509(4) 0.3576(10) -0.0959(4) 0.0451 Uani
N12 N 0.5953(4) 0.2351(10) -0.0689(5) 0.0479 Uani
Zn1G Zn 0.38448(6) 0.58194(13) -0.06369(6) 0.0421 Uani
Zn2E Zn 0.67099(7) 0.35733(14) -0.23262(8) 0.0526 Uani
N8G N 0.9339(4) -0.0020(10) 0.4379(4) 0.0407 Uani
N9E N 0.6438(5) 0.6542(11) 0.3144(5) 0.0584 Uani
loop_
_atom_site_aniso_label
_atom_site_aniso_U_11
_atom_site_aniso_U_22
_atom_site_aniso_U_33
_atom_site_aniso_U_23
_atom_site_aniso_U_13
_atom_site_aniso_U_12
C1 0.097(18) 0.083(17) 0.098(19) 0.021(15) -0.013(15) -0.002(15)
C2 0.086(16) 0.087(17) 0.100(18) -0.025(15) 0.000(15) 0.006(14)
C3 0.073(15) 0.087(16) 0.094(17) -0.001(14) 0.020(13) 0.013(13)
C4 0.112(19) 0.11(2) 0.13(2) -0.022(17) 0.037(17) 0.022(16)
C5 0.107(18) 0.11(2) 0.093(18) -0.003(16) 0.032(15) 0.001(17)
C6 0.097(18) 0.108(19) 0.095(17) -0.013(16) 0.034(14) -0.026(15)
C7 0.18(3) 0.15(3) 0.13(3) -0.01(3) -0.03(3) -0.04(3)
C1F 0.097 0.083 0.098 0.021 -0.013 -0.002
C2F 0.086 0.087 0.1 -0.025 0 0.006
C3F 0.073 0.087 0.094 -0.001 0.02 0.013
C4F 0.112 0.11 0.13 -0.022 0.037 0.022
C5F 0.107 0.11 0.093 -0.003 0.032 0.001
C6F 0.097 0.108 0.095 -0.013 0.034 -0.026
C7F 0.18 0.15 0.13 -0.01 -0.03 -0.04
C8 0.20(3) 0.18(3) 0.21(3) -0.12(3) 0.05(3) -0.09(3)
C9 0.17(3) 0.21(3) 0.25(3) -0.09(3) 0.08(3) -0.06(3)
C10 0.14(3) 0.21(3) 0.26(3) -0.03(3) 0.05(3) -0.09(3)
C11 0.17(3) 0.20(3) 0.23(3) -0.03(3) 0.03(3) -0.10(3)
C12 0.24(3) 0.24(4) 0.24(3) -0.03(3) -0.01(3) -0.08(3)
C13 0.24(3) 0.21(3) 0.25(3) -0.06(3) -0.02(3) -0.12(3)
C14 0.25(3) 0.19(3) 0.30(3) -0.02(3) -0.06(3) -0.10(3)
C15 0.22(3) 0.13(3) 0.29(3) -0.02(3) -0.01(3) -0.07(2)
C16 0.12(2) 0.13(2) 0.21(3) -0.05(2) 0.10(2) -0.021(19)
C17 0.10(2) 0.17(3) 0.26(3) -0.04(3) 0.08(2) 0.00(2)
C18 0.074(17) 0.18(3) 0.24(3) -0.03(2) 0.06(2) -0.026(19)
C19 0.097(18) 0.12(2) 0.16(3) -0.02(2) 0.058(19) -0.030(19)
C20 0.16(2) 0.13(2) 0.14(2) -0.07(2) 0.06(2) -0.08(2)
C21 0.15(2) 0.16(3) 0.19(3) -0.07(2) 0.08(2) -0.05(2)
C22 0.25(4) 0.10(2) 0.28(4) -0.04(3) 0.07(3) -0.05(3)
C23 0.25(4) 0.14(3) 0.30(4) -0.03(3) 0.07(3) -0.05(3)
C24 0.26(4) 0.14(3) 0.29(4) -0.06(3) 0.04(3) -0.06(3)
C25 0.24(4) 0.10(2) 0.28(4) -0.02(3) 0.05(3) -0.04(3)
C26 0.22(3) 0.091(19) 0.26(3) -0.03(2) 0.12(3) -0.08(2)
C27 0.24(3) 0.10(2) 0.24(4) -0.06(2) 0.11(3) -0.05(2)
C28 0.23(3) 0.11(2) 0.23(3) -0.05(2) 0.15(2) -0.05(2)
C29 0.20(3) 0.13(3) 0.22(3) -0.04(3) 0.11(2) -0.02(3)
C30 0.17(2) 0.13(2) 0.18(3) -0.02(2) 0.07(2) -0.05(2)
C31 0.18(3) 0.15(3) 0.20(3) -0.02(3) 0.05(3) -0.09(2)
C32 0.19(3) 0.19(3) 0.22(4) 0.01(3) 0.05(3) -0.08(3)
C33 0.17(3) 0.22(3) 0.23(3) 0.00(3) 0.06(3) -0.07(3)
C34 0.16(3) 0.21(4) 0.22(3) -0.01(3) 0.06(3) -0.05(3)
C35 0.13(2) 0.18(3) 0.17(3) -0.04(2) 0.03(2) -0.08(2)
I1 0.0563(8) 0.0574(8) 0.0526(8) 0.0114(6) 0.0088(6) 0.0099(6)
I2 0.0656(9) 0.0333(7) 0.0817(10) -0.0019(6) 0.0059(8) 0.0027(6)
I3 0.0758(10) 0.0383(7) 0.0983(12) -0.0096(7) 0.0388(9) -0.0134(6)
I4 0.1051(13) 0.0514(9) 0.0713(11) 0.0162(7) 0.0064(9) 0.0166(8)
I5 0.248(3) 0.0625(12) 0.0942(15) 0.0214(11) 0.0321(17) 0.0646(16)
I6 0.215(3) 0.154(2) 0.162(3) 0.084(2) -0.093(2) -0.138(2)
Zn1 0.0399(11) 0.0336(11) 0.0450(12) 0.0031(9) -0.0008(9) 0.0009(9)
Zn2 0.0608(15) 0.0265(11) 0.0699(16) 0.0037(10) 0.0175(12) 0.0007(9)
Zn3 0.184(4) 0.0281(13) 0.0543(16) 0.0059(11) -0.0381(19) -0.0083(16)
C36 0.073(13) 0.016(8) 0.051(11) -0.001(8) -0.012(10) 0.000(8)
C37 0.074(14) 0.025(9) 0.055(12) -0.006(9) -0.011(10) 0.000(9)
C38 0.053(11) 0.024(8) 0.028(9) 0.010(7) 0.001(8) 0.000(7)
C39 0.054(11) 0.036(10) 0.040(10) -0.002(8) -0.020(9) -0.008(8)
C40 0.057(12) 0.028(9) 0.064(13) 0.001(9) -0.010(10) 0.003(8)
C41 0.039(10) 0.040(10) 0.053(11) -0.004(9) 0.011(9) -0.014(8)
C42 0.078(15) 0.053(13) 0.053(13) 0.005(10) -0.008(11) 0.007(11)
C43 0.077(15) 0.021(9) 0.076(15) 0.007(9) -0.002(12) 0.002(9)
C44 0.051(10) 0.018(8) 0.040(10) -0.008(7) 0.006(8) -0.008(7)
C45 0.088(16) 0.031(10) 0.056(13) -0.007(9) 0.007(11) 0.000(10)
C46 0.100(18) 0.034(11) 0.063(14) 0.000(10) -0.012(13) 0.008(11)
C47 0.083(15) 0.024(9) 0.045(11) 0.010(8) 0.013(11) 0.001(9)
C48 0.115(18) 0.024(9) 0.031(10) -0.004(8) -0.019(11) 0.005(10)
C49 0.075(14) 0.041(11) 0.041(11) 0.007(9) -0.020(10) 0.004(10)
C50 0.055(11) 0.028(9) 0.037(10) 0.006(7) -0.018(8) -0.018(8)
C51 0.083(15) 0.023(9) 0.063(13) 0.014(9) -0.036(11) -0.006(9)
C52 0.097(18) 0.049(13) 0.058(14) 0.002(11) -0.048(13) -0.007(12)
C53 0.052(11) 0.018(8) 0.049(11) 0.007(7) 0.011(9) -0.008(7)
C54 0.11(2) 0.030(11) 0.060(15) 0.003(10) -0.009(14) 0.011(13)
C55 0.087(16) 0.041(11) 0.062(14) 0.003(10) 0.007(12) 0.032(11)
C56 0.12(2) 0.019(9) 0.034(11) -0.001(8) -0.012(12) 0.010(11)
C57 0.078(15) 0.036(11) 0.059(13) 0.009(10) -0.031(11) -0.022(11)
C58 0.20(4) 0.061(17) 0.051(15) -0.003(13) -0.011(19) -0.07(2)
C59 0.048(11) 0.029(9) 0.045(11) 0.008(8) -0.003(9) -0.004(8)
C60 0.084(17) 0.085(18) 0.079(17) 0.043(14) -0.001(14) 0.061(15)
C61 0.082(16) 0.072(15) 0.060(14) 0.035(12) 0.023(12) 0.047(13)
C62 0.040(10) 0.036(9) 0.041(11) 0.012(8) -0.010(8) 0.002(8)
C63 0.062(13) 0.054(12) 0.042(12) 0.009(9) -0.007(10) 0.022(10)
C64 0.079(15) 0.051(12) 0.044(12) -0.002(10) 0.002(11) 0.000(11)
C65 0.036(9) 0.030(9) 0.040(10) 0.008(7) -0.006(8) -0.001(7)
C66 0.035(12) 0.11(2) 0.11(2) -0.002(17) 0.029(14) 0.018(13)
C67 0.056(13) 0.079(15) 0.069(15) 0.031(12) 0.016(12) 0.041(12)
C68 0.049(12) 0.054(13) 0.087(17) -0.019(12) 0.021(12) 0.001(10)
C69 0.053(13) 0.104(19) 0.086(18) 0.064(16) 0.018(13) 0.043(13)
C70 0.057(16) 0.27(5) 0.068(18) 0.04(2) 0.011(14) 0.10(2)
C71 0.041(10) 0.037(10) 0.041(10) 0.012(8) -0.007(8) -0.002(8)
N1 0.054(9) 0.034(8) 0.037(8) -0.012(6) -0.003(7) -0.010(7)
N2 0.047(9) 0.042(9) 0.060(10) 0.004(8) 0.009(8) -0.004(7)
N3 0.086(12) 0.012(7) 0.051(10) 0.002(6) -0.019(9) 0.001(7)
N4 0.042(8) 0.023(7) 0.046(9) 0.001(6) -0.005(7) 0.007(6)
N5 0.044(8) 0.030(8) 0.040(8) 0.013(6) -0.010(7) -0.002(6)
N6 0.076(11) 0.017(7) 0.039(8) -0.007(6) 0.002(8) -0.009(7)
N7 0.100(17) 0.034(10) 0.064(13) -0.008(9) -0.054(13) 0.015(11)
N8 0.036(8) 0.045(9) 0.036(8) 0.009(7) 0.002(7) 0.000(7)
N9 0.062(11) 0.043(9) 0.059(11) 0.021(8) -0.001(9) 0.021(8)
N10 0.045(9) 0.021(7) 0.050(9) 0.002(6) -0.007(7) -0.003(6)
N11 0.046(9) 0.042(8) 0.042(9) 0.008(7) 0.004(7) 0.019(7)
N12 0.037(8) 0.044(9) 0.045(9) -0.010(7) -0.017(7) 0.013(7)
Zn1G 0.0399 0.0336 0.045 -0.0031 -0.0008 -0.0009
Zn2E 0.0608 0.0265 0.0699 -0.0037 0.0175 -0.0007
N8G 0.036 0.045 0.036 -0.009 0.002 0
N9E 0.062 0.043 0.059 -0.021 -0.001 -0.021
loop_
_geom_bond_atom_site_label_1
_geom_bond_atom_site_label_2
_geom_bond_site_symmetry_1
_geom_bond_site_symmetry_2
C1 H1 1_555 1_555
C2 C1 1_555 1_555
H2 C2 1_555 1_555
C3 C2 1_555 1_555
H3 C3 1_555 1_555
C4 C3 1_555 1_555
H4 C4 1_555 1_555
C5 C4 1_555 1_555
H5 C5 1_555 1_555
C6 C1 1_555 1_555
C7 C6 1_555 1_555
H6 C7 1_555 1_555
C8 H7 1_555 1_555
C9 C8 1_555 1_555
H8 C9 1_555 1_555
C10 C9 1_555 1_555
H9 C10 1_555 1_555
C11 C10 1_555 1_555
H10 C11 1_555 1_555
C12 C11 1_555 1_555
H11 C12 1_555 1_555
C13 C8 1_555 1_555
C14 C13 1_555 1_555
H12 C14 1_555 1_555
C15 C14 1_555 1_555
H13 C15 1_555 1_555
C16 C15 1_555 1_555
C17 C16 1_555 1_555
H14 C17 1_555 1_555
C18 C17 1_555 1_555
H15 C18 1_555 1_555
C19 C18 1_555 1_555
H16 C19 1_555 1_555
C20 C19 1_555 1_555
H17 C20 1_555 1_555
C21 C16 1_555 1_555
H18 C21 1_555 1_555
C22 H19 1_555 1_555
C23 C22 1_555 1_555
H20 C23 1_555 1_555
C24 C23 1_555 1_555
H21 C24 1_555 1_555
C25 C24 1_555 1_555
H22 C25 1_555 1_555
C26 C22 1_555 1_555
C27 C25 1_555 1_555
H23 C27 1_555 1_555
C28 C26 1_555 1_555
H24 C28 1_555 1_555
C29 C28 1_555 1_555
H25 C29 1_555 1_555
C30 C29 1_555 1_555
C31 C30 1_555 1_555
H26 C31 1_555 1_555
C32 C31 1_555 1_555
H27 C32 1_555 1_555
C33 C32 1_555 1_555
H28 C33 1_555 1_555
C34 C33 1_555 1_555
H29 C34 1_555 1_555
C35 C30 1_555 1_555
H30 C35 1_555 1_555
I1 Zn1 1_555 1_555
I2 Zn1 1_555 1_555
I3 Zn2 1_555 1_555
I4 Zn2 1_555 1_555
I5 Zn3 1_555 1_555
I6 Zn3 1_555 1_555
Zn1 N1 1_555 1_555
Zn2 N2 1_555 1_555
Zn3 N3 1_555 1_555
C36 H31 1_555 1_555
C37 C36 1_555 1_555
H32 C37 1_555 1_555
C38 C37 1_555 1_555
C39 C38 1_555 1_555
H33 C39 1_555 1_555
C40 C39 1_555 1_555
H34 C40 1_555 1_555
C41 C38 1_555 1_555
C42 H35 1_555 1_555
C43 C42 1_555 1_555
H36 C43 1_555 1_555
C44 C43 1_555 1_555
C45 C44 1_555 1_555
H37 C45 1_555 1_555
C46 C45 1_555 1_555
H38 C46 1_555 1_555
C47 C44 1_555 1_555
C48 H39 1_555 1_555
C49 C48 1_555 1_555
H40 C49 1_555 1_555
C50 C49 1_555 1_555
C51 C50 1_555 1_555
H41 C51 1_555 1_555
C52 C51 1_555 1_555
H42 C52 1_555 1_555
C53 C50 1_555 1_555
C54 H43 1_555 1_555
C55 C54 1_555 1_555
H44 C55 1_555 1_555
C56 C55 1_555 1_555
C57 C56 1_555 1_555
H45 C57 1_555 1_555
C58 C57 1_555 1_555
H46 C58 1_555 1_555
C59 C56 1_555 1_555
C60 H47 1_555 1_555
C61 C60 1_555 1_555
H48 C61 1_555 1_555
C62 C61 1_555 1_555
C63 C62 1_555 1_555
H49 C63 1_555 1_555
C64 C63 1_555 1_555
H50 C64 1_555 1_555
C65 C62 1_555 1_555
C66 H51 1_555 1_555
C67 C66 1_555 1_555
H52 C67 1_555 1_555
C68 C67 1_555 1_555
C69 C68 1_555 1_555
H53 C69 1_555 1_555
C70 C69 1_555 1_555
H54 C70 1_555 1_555
C71 C68 1_555 1_555
N1 C36 1_555 1_555
N2 C42 1_555 1_555
N3 C48 1_555 1_555
N4 C41 1_555 1_555
N5 C47 1_555 1_555
N6 C41 1_555 1_555
N7 Zn3 1_555 1_555
N8 C60 1_555 1_555
N9 C66 1_555 1_555
N10 C59 1_555 1_555
N11 C65 1_555 1_555
N12 C59 1_555 1_555
C1F H1F 1_555 1_555
C2F C1F 1_555 1_555
H2F C2F 1_555 1_555
C3F C2F 1_555 1_555
H3F C3F 1_555 1_555
C4F C3F 1_555 1_555
H4F C4F 1_555 1_555
C5F C4F 1_555 1_555
H5F C5F 1_555 1_555
C6F C1F 1_555 1_555
C7F C7 1_555 1_555
H6F C7F 1_555 1_555
Zn1G N8 1_555 1_555
Zn2E N9 1_555 1_555
N8G Zn1 1_555 1_555
N9E Zn2 1_555 1_555
C5 C6 1_555 1_555
C12 C13 1_555 1_555
C20 C21 1_555 1_555
C26 C27 1_555 1_555
C34 C35 1_555 1_555
C40 N1 1_555 1_555
C46 N2 1_555 1_555
C47 N4 1_555 1_555
C52 N3 1_555 1_555
C53 N5 1_555 1_555
C53 N6 1_555 1_555
C54 N7 1_555 1_555
C58 N7 1_555 1_555
C64 N8 1_555 1_555
C65 N10 1_555 1_555
C70 N9 1_555 1_555
C71 N11 1_555 1_555
C71 N12 1_555 1_555
C5F C6F 1_555 1_555
C6F C7F 1_555 1_555

#END
