
#######################################################################
#
#                 Cambridge Crystallographic Data Centre
#                                CCDC 
#
#######################################################################
#
# If this CIF has been generated from an entry in the Cambridge 
# Structural Database, then it will include bibliographic, chemical, 
# crystal, experimental, refinement or atomic coordinate data resulting 
# from the CCDC's data processing and validation procedures.
#
#######################################################################

data_WORKOF
_chemical_formula_moiety         'C153 H72 N3 O76 Zn32'
_symmetry_cell_setting           triclinic
_symmetry_space_group_name_H-M   'P -1'
_symmetry_Int_Tables_number      2
_space_group_name_Hall           '-P 1'
loop_
_symmetry_equiv_pos_site_id
_symmetry_equiv_pos_as_xyz
1 x,y,z
2 -x,-y,-z
_cell_length_a                   19.118(4)
_cell_length_b                   23.024(5)
_cell_length_c                   30.075(6)
_cell_angle_alpha                90.07(3)
_cell_angle_beta                 97.36(3)
_cell_angle_gamma                90.09(3)
_cell_volume                     13129.1
loop_
_atom_site_label
_atom_site_type_symbol
_atom_site_fract_x
_atom_site_fract_y
_atom_site_fract_z
Zn1 Zn 0.88847(4) -0.16922(3) 0.10995(2)
Zn2 Zn 0.99396(4) -0.23744(3) 0.18433(2)
Zn3 Zn 0.98903(4) -0.10392(3) 0.18890(2)
Zn4 Zn 1.05955(4) -0.16265(3) 0.11266(2)
Zn5 Zn 1.01443(4) -0.22941(3) 0.60111(2)
Zn6 Zn 0.93010(3) -0.17097(3) 0.68021(2)
Zn7 Zn 1.00354(3) -0.09424(3) 0.61603(2)
Zn8 Zn 1.09601(3) -0.16544(3) 0.68938(2)
Zn9 Zn 0.50329(4) 0.25853(3) 0.68744(2)
Zn10 Zn 0.42270(3) 0.33467(3) 0.60608(2)
Zn11 Zn 0.58894(4) 0.33992(3) 0.62234(2)
Zn12 Zn 0.50322(3) 0.39722(3) 0.69040(2)
Zn13 Zn 0.38914(4) 0.32492(4) 0.17288(2)
Zn14 Zn 0.48831(4) 0.26939(3) 0.10539(2)
Zn15 Zn 0.56117(4) 0.33073(3) 0.19296(2)
Zn16 Zn 0.47987(4) 0.40163(3) 0.11433(2)
O1 O 0.9831(2) -0.16814(18) 0.14804(13)
O2 O 1.0107(2) -0.16658(16) 0.64814(11)
O3 O 0.5053(2) 0.33155(17) 0.65062(12)
O4 O 0.48092(19) 0.33053(17) 0.14738(12)
O5 O 0.9968(3) -0.1284(2) 0.25191(13)
O6 O 1.0039(3) -0.2252(2) 0.24924(14)
O7 O 0.9625(3) -0.1764(3) 0.54761(18)
O8 O 1.0024(3) -0.0863(2) 0.55160(14)
C1 C 0.9987(4) -0.1238(4) 0.3447(2)
H1 H 0.997 -0.0875 0.3296
C2 C 1.0001(4) -0.1815(3) 0.3198(2)
C3 C 0.9918(4) -0.2316(3) 0.34297(19)
H2 H 0.9914 -0.2666 0.3263
C4 C 0.9842(6) -0.2371(4) 0.3857(3)
H3 H 0.975 -0.2734 0.3987
C5 C 0.9824(4) -0.1833(4) 0.4572(2)
H4 H 0.9718 -0.2183 0.4717
C6 C 0.9897(4) -0.1317(3) 0.4804(2)
C7 C 0.9993(3) -0.0803(3) 0.4584(2)
H5 H 1.004 -0.0457 0.4757
C8 C 1.0023(4) -0.0760(3) 0.41500(19)
H6 H 1.0061 -0.0388 0.4019
C9 C 0.9999(4) -0.1278(3) 0.3871(2)
C10 C 0.9911(5) -0.1830(4) 0.4117(2)
C11 C 1.0010(4) -0.1768(3) 0.2698(2)
C12 C 0.9873(4) -0.1334(3) 0.5320(2)
O9 O 0.9221(2) -0.0493(2) 0.62839(17)
O10 O 0.8615(2) -0.10695(19) 0.66913(15)
O11 O 0.5915(2) 0.2213(2) 0.66785(16)
O12 O 0.6558(3) 0.2774(2) 0.62756(19)
C13 C 0.8306(4) 0.0405(4) 0.6332(3)
H7 H 0.871 0.0453 0.6181
C14 C 0.8189(3) -0.0124(3) 0.6534(2)
C15 C 0.7606(4) -0.0204(4) 0.6768(2)
H8 H 0.753 -0.0566 0.6906
C16 C 0.7150(4) 0.0251(3) 0.6793(2)
H9 H 0.6751 0.0198 0.6947
C17 C 0.6800(3) 0.1282(3) 0.6605(2)
H10 H 0.639 0.1234 0.675
C18 C 0.6910(3) 0.1807(3) 0.6422(2)
C19 C 0.7505(5) 0.1880(4) 0.6193(4)
H11 H 0.7587 0.2243 0.6059
C20 C 0.7971(5) 0.1421(3) 0.6163(3)
H12 H 0.838 0.1475 0.6019
C21 C 0.7834(4) 0.0868(3) 0.6349(3)
C22 C 0.7255(3) 0.0803(3) 0.6595(2)
C23 C 0.8704(3) -0.0598(3) 0.6498(2)
C24 C 0.6412(3) 0.2297(3) 0.6461(2)
O13 O 0.5643(3) 0.3489(2) 0.55695(13)
O14 O 0.4482(2) 0.3333(2) 0.54488(13)
O15 O 0.4261(3) 0.3104(2) 0.23962(13)
O16 O 0.5404(2) 0.3359(2) 0.25395(13)
C25 C 0.5764(4) 0.3602(4) 0.4658(2)
H13 H 0.6176 0.3681 0.4861
C26 C 0.5112(4) 0.3428(4) 0.4830(2)
C27 C 0.4552(5) 0.3259(4) 0.4521(3)
H14 H 0.4116 0.316 0.4623
C28 C 0.4071(5) 0.3025(6) 0.3748(2)
H15 H 0.3683 0.2826 0.3846
C29 C 0.4087(5) 0.3106(6) 0.3294(2)
H16 H 0.3665 0.3082 0.309
C30 C 0.4742(4) 0.3226(3) 0.3136(2)
C31 C 0.5289(4) 0.3432(3) 0.3455(2)
H17 H 0.5711 0.3563 0.3351
C32 C 0.5781(4) 0.3648(4) 0.4228(2)
H18 H 0.6183 0.3825 0.4129
C33 C 0.5250(4) 0.3454(4) 0.3908(2)
C34 C 0.4606(4) 0.3228(4) 0.4066(2)
C35 C 0.5101(4) 0.3418(3) 0.5315(2)
C36 C 0.4785(4) 0.3241(3) 0.2652(2)
O17 O 0.9161(3) -0.0458(2) 0.18031(19)
O18 O 0.8758(3) -0.0770(2) 0.11160(18)
O19 O 0.5776(3) 0.2292(3) 0.12074(15)
O20 O 0.6192(2) 0.2614(2) 0.19148(16)
C37 C 0.8153(4) 0.0387(3) 0.1773(3)
H19 H 0.8419 0.0306 0.2055
C38 C 0.8237(5) 0.0052(4) 0.1395(3)
C39 C 0.7822(6) 0.0161(4) 0.0969(3)
H20 H 0.7827 -0.0097 0.0723
C40 C 0.7422(7) 0.0652(5) 0.0936(3)
H21 H 0.7238 0.0788 0.0647
C41 C 0.6813(5) 0.1463(4) 0.1270(3)
H22 H 0.6576 0.1571 0.0985
C42 C 0.6722(5) 0.1780(3) 0.1641(2)
C43 C 0.7110(4) 0.1655(3) 0.2053(2)
H23 H 0.7063 0.1899 0.2303
C44 C 0.7548(4) 0.1200(3) 0.2107(3)
H24 H 0.7786 0.1105 0.2394
C45 C 0.7272(5) 0.0961(4) 0.1310(3)
C46 C 0.7648(4) 0.0863(3) 0.1724(3)
C47 C 0.8768(5) -0.0411(4) 0.1422(3)
C48 C 0.6189(4) 0.2242(3) 0.1578(2)
O21 O 1.0823(3) -0.2764(2) 0.17647(17)
O22 O 1.1272(3) -0.2267(2) 0.12307(18)
O23 O 1.4176(4) -0.5370(3) 0.12746(18)
O24 O 1.3822(6) -0.5851(4) 0.1833(3)
C49 C 1.1776(5) -0.3639(4) 0.1713(3)
H25 H 1.1415 -0.3674 0.1901
C50 C 1.1810(4) -0.3149(3) 0.1456(2)
C51 C 1.2303(5) -0.3076(4) 0.1174(4)
H26 H 1.2312 -0.2733 0.1
C52 C 1.2784(5) -0.3504(4) 0.1147(4)
H27 H 1.3135 -0.3451 0.0953
C53 C 1.3274(5) -0.4494(4) 0.1366(3)
H28 H 1.3598 -0.4468 0.1153
C54 C 1.3289(7) -0.4952(5) 0.1623(3)
C55 C 1.2755(8) -0.5057(6) 0.1909(4)
H29 H 1.275 -0.5398 0.2085
C56 C 1.2238(9) -0.4619(6) 0.1910(5)
H30 H 1.1844 -0.4694 0.2065
C57 C 1.2271(6) -0.4092(4) 0.1701(3)
C58 C 1.2785(4) -0.4030(4) 0.1396(3)
C59 C 1.1254(4) -0.2683(3) 0.1480(2)
C60 C 1.3806(7) -0.5458(5) 0.1581(3)
O25 O 0.9258(3) -0.2983(2) 0.17599(18)
O26 O 0.8830(3) -0.2637(2) 0.10884(15)
O27 O 0.5726(3) -0.5606(3) 0.12642(19)
O28 O 0.6284(2) -0.6055(2) 0.18776(14)
C61 C 0.8325(4) -0.3903(4) 0.1667(2)
H31 H 0.8688 -0.3884 0.1915
C62 C 0.8306(4) -0.3481(3) 0.1355(2)
C63 C 0.7763(5) -0.3472(4) 0.0971(3)
H32 H 0.7766 -0.3188 0.0742
C64 C 0.7226(6) -0.3905(4) 0.0952(3)
H33 H 0.6831 -0.3891 0.0726
C65 C 0.6760(4) -0.4811(4) 0.1270(2)
H34 H 0.6381 -0.4819 0.1032
C66 C 0.6791(4) -0.5221(3) 0.1590(2)
C67 C 0.7329(4) -0.5203(3) 0.1969(3)
H35 H 0.7334 -0.5473 0.2208
C68 C 0.7834(4) -0.4779(3) 0.1971(3)
H36 H 0.8205 -0.4774 0.2214
C69 C 0.7840(4) -0.4372(3) 0.1652(2)
C70 C 0.7288(4) -0.4360(3) 0.1278(2)
C71 C 0.8851(4) -0.3000(4) 0.1388(2)
C72 C 0.6233(3) -0.5647(3) 0.1574(2)
O29 O 1.0333(3) -0.1627(2) 0.04849(13)
O30 O 0.9166(3) -0.1639(2) 0.04559(15)
O31 O 1.0739(2) -0.1583(2) -0.24851(14)
O32 O 0.9557(2) -0.1635(2) -0.25488(13)
C73 C 1.0267(4) -0.1622(3) -0.0426(2)
H37 H 1.0706 -0.1667 -0.0243
C74 C 0.9667(3) -0.1592(3) -0.0227(2)
C75 C 0.9025(4) -0.1541(4) -0.0479(2)
H38 H 0.8609 -0.1509 -0.0338
C76 C 0.8984(4) -0.1536(4) -0.0944(2)
H39 H 0.8534 -0.153 -0.1118
C77 C 0.9558(4) -0.1543(4) -0.1613(2)
H40 H 0.9108 -0.1514 -0.1786
C78 C 1.0184(3) -0.1590(3) -0.1837(2)
C79 C 1.0870(3) -0.1651(3) -0.15437(18)
H41 H 1.1293 -0.1684 -0.1677
C80 C 1.0900(5) -0.1661(4) -0.1094(3)
H42 H 1.1341 -0.1715 -0.0914
C81 C 1.0257(4) -0.1590(3) -0.0880(2)
C82 C 0.9608(4) -0.1539(4) -0.1168(2)
C83 C 0.9716(3) -0.1620(3) 0.0281(2)
C84 C 1.0151(3) -0.1588(3) -0.2322(2)
O33 O 1.1158(2) -0.0918(2) 0.12423(16)
O34 O 1.0773(3) -0.0615(2) 0.18866(15)
O35 O 1.3796(7) 0.2369(5) 0.1614(2)
O36 O 1.4211(4) 0.2071(3) 0.09884(17)
C85 C 1.2031(4) 0.0039(3) 0.1226(3)
H43 H 1.1932 -0.016 0.0948
C86 C 1.1688(4) -0.0130(3) 0.1593(3)
C87 C 1.1745(7) 0.0292(5) 0.1996(3)
H44 H 1.1458 0.0238 0.2228
C88 C 1.2205(8) 0.0737(6) 0.2015(3)
H45 H 1.2268 0.098 0.2273
C89 C 1.3030(7) 0.1357(5) 0.1648(3)
H46 H 1.3125 0.1574 0.1918
C90 C 1.3288(6) 0.1529(4) 0.1271(3)
C91 C 1.3197(6) 0.1194(4) 0.0886(3)
H47 H 1.3417 0.1307 0.0634
C92 C 1.2789(6) 0.0695(4) 0.0863(3)
H48 H 1.2686 0.0484 0.0591
C93 C 1.2526(5) 0.0507(4) 0.1268(3)
C94 C 1.2618(7) 0.0851(5) 0.1632(3)
C95 C 1.1187(4) -0.0568(3) 0.15758(19)
C96 C 1.3860(8) 0.2013(5) 0.1312(3)
O37 O 1.0782(3) -0.2844(2) 0.6440(2)
O38 O 1.1565(2) -0.2333(2) 0.69062(16)
O39 O 1.4154(3) -0.5608(2) 0.67566(15)
O40 O 1.3689(2) -0.5927(2) 0.60846(16)
C97 C 1.1806(5) -0.3652(4) 0.6350(3)
H49 H 1.1406 -0.3624 0.6129
C98 C 1.1896(4) -0.3257(4) 0.6666(3)
C99 C 1.2460(4) -0.3304(3) 0.7022(2)
H50 H 1.2516 -0.3017 0.7251
C100 C 1.2913(3) -0.3750(3) 0.7038(2)
H51 H 1.3289 -0.3771 0.7276
C101 C 1.3290(3) -0.4668(3) 0.6716(2)
H52 H 1.3642 -0.4718 0.6966
C102 C 1.3229(3) -0.5062(3) 0.6371(2)
C103 C 1.2741(5) -0.4983(4) 0.5997(3)
H53 H 1.2718 -0.525 0.5754
C104 C 1.2285(6) -0.4515(5) 0.5975(4)
H54 H 1.1959 -0.4458 0.5712
C105 C 1.2295(5) -0.4134(4) 0.6324(3)
C106 C 1.2839(4) -0.4197(3) 0.6700(2)
C107 C 1.1363(4) -0.2768(3) 0.6661(3)
C108 C 1.3726(3) -0.5569(3) 0.6404(2)
O41 O 0.8766(3) -0.2420(2) 0.67041(17)
O42 O 0.9217(3) -0.2716(2) 0.60836(18)
O43 O 0.6423(3) -0.5877(2) 0.63647(16)
O44 O 0.5725(3) -0.5449(2) 0.6796(2)
C109 C 0.7968(4) -0.3431(3) 0.6691(3)
H55 H 0.7975 -0.3165 0.6933
C110 C 0.8384(4) -0.3298(3) 0.6362(3)
C111 C 0.8357(6) -0.3684(4) 0.5985(3)
H56 H 0.8599 -0.3586 0.5739
C112 C 0.7979(6) -0.4202(4) 0.5978(3)
H57 H 0.8017 -0.4486 0.5752
C113 C 0.7154(5) -0.4844(4) 0.6299(3)
H58 H 0.7203 -0.5128 0.6076
C114 C 0.6708(4) -0.4943(3) 0.6623(2)
C115 C 0.6655(7) -0.4520(5) 0.6951(4)
H59 H 0.6328 -0.4578 0.716
C116 C 0.7056(6) -0.4028(4) 0.6982(4)
H60 H 0.6995 -0.3751 0.7209
C117 C 0.7536(4) -0.3924(3) 0.6701(3)
C118 C 0.7548(5) -0.4293(4) 0.6308(3)
C119 C 0.8832(4) -0.2779(3) 0.6378(2)
C120 C 0.6265(4) -0.5452(4) 0.6597(3)
O45 O 1.0802(2) -0.0440(2) 0.63998(17)
O46 O 1.1593(2) -0.09880(18) 0.68198(13)
O47 O 1.4398(2) 0.2155(2) 0.63619(17)
O48 O 1.3529(2) 0.27250(19) 0.60520(14)
C121 C 1.1769(3) 0.0429(3) 0.6332(2)
H61 H 1.1304 0.0462 0.6178
C122 C 1.1960(3) -0.0065(3) 0.6585(2)
C123 C 1.2649(4) -0.0135(3) 0.6793(2)
H62 H 1.2779 -0.0482 0.6953
C124 C 1.3144(4) 0.0299(3) 0.6767(3)
H63 H 1.361 0.0253 0.6916
C125 C 1.3436(3) 0.1259(3) 0.6464(2)
H64 H 1.3913 0.1214 0.6591
C126 C 1.3245(3) 0.1759(3) 0.6235(2)
C127 C 1.2548(4) 0.1798(4) 0.6012(3)
H65 H 1.2407 0.2132 0.5839
C128 C 1.2088(4) 0.1370(4) 0.6044(3)
H66 H 1.1627 0.1404 0.5885
C129 C 1.2253(4) 0.0871(3) 0.6302(2)
C130 C 1.2960(3) 0.0810(3) 0.6519(2)
C131 C 1.1420(4) -0.0535(3) 0.6607(2)
C132 C 1.3764(3) 0.2239(3) 0.6229(2)
O49 O 0.5151(3) 0.3863(2) 0.75403(14)
O50 O 0.5563(3) 0.2958(2) 0.74660(13)
O51 O 0.4977(3) 0.2968(2) 1.04524(13)
O52 O 0.4759(3) 0.3921(2) 1.04972(14)
C133 C 0.5187(4) 0.3778(3) 0.8439(2)
H67 H 0.5125 0.415 0.8305
C134 C 0.5350(4) 0.3306(3) 0.8184(2)
C135 C 0.5523(5) 0.2734(4) 0.8400(2)
H68 H 0.5697 0.242 0.8241
C136 C 0.5422(6) 0.2687(4) 0.8826(3)
H69 H 0.5494 0.2315 0.8962
C137 C 0.5126(4) 0.3075(4) 0.9551(2)
H70 H 0.5185 0.2703 0.9687
C138 C 0.4953(4) 0.3546(3) 0.97943(19)
C139 C 0.4864(4) 0.4088(3) 0.96003(19)
H71 H 0.4755 0.4412 0.9774
C140 C 0.4930(4) 0.4155(3) 0.9164(2)
H72 H 0.4847 0.4528 0.9034
C141 C 0.5114(4) 0.3707(3) 0.8897(2)
C142 C 0.5213(4) 0.3150(3) 0.9099(2)
C143 C 0.5392(5) 0.3384(4) 0.7693(2)
C144 C 0.4886(4) 0.3471(3) 1.0283(2)
O53 O 0.8477(3) -0.1701(3) 0.17531(18)
N1 N 0.7660(6) -0.1247(6) 0.2097(4)
C145 C 0.7866(6) -0.1505(5) 0.1797(4)
C146 C 0.8171(7) -0.1018(7) 0.2490(4)
O54 O 1.1127(3) -0.1857(3) 0.5887(2)
C147 C 1.1297(10) -0.1860(7) 0.5457(6)
O55 O 0.4080(3) 0.2924(2) 0.71088(18)
N2 N 0.3585(4) 0.3054(3) 0.7749(3)
C148 C 0.3920(4) 0.2759(4) 0.7483(3)
C149 C 0.3389(5) 0.3741(5) 0.7629(4)
C150 C 0.3429(7) 0.2894(6) 0.8167(3)
O56 O 0.3420(4) 0.3462(7) 0.1043(2)
N3 N 0.2622(8) 0.4216(9) 0.0651(5)
C151 C 0.2872(11) 0.3804(14) 0.0957(8)
C152 C 0.302(2) 0.4416(10) 0.0350(6)
C153 C 0.1880(9) 0.4403(7) 0.0689(6)
O57 O 0.7826(3) -0.1753(3) 0.08088(18)
O58 O 1.0250(4) -0.2905(3) 0.55069(19)
O59 O 0.4975(4) 0.1840(2) 0.7278(2)
O60 O 0.2902(4) 0.3131(11) 0.1898(3)
Zn6_2 Zn 0.93010(3) -0.17097(3) -0.31979(2)
Zn8_2 Zn 1.09601(3) -0.16544(3) -0.31062(2)
Zn9_2 Zn 1.50329(4) 0.25853(3) 0.68744(2)
Zn10_2 Zn 1.42270(3) -0.66533(3) 0.60608(2)
Zn10_3 Zn 1.42270(3) 0.33467(3) 0.60608(2)
Zn11_2 Zn 0.58894(4) -0.66008(3) 0.62234(2)
Zn12_2 Zn 0.50322(3) -0.60278(3) 0.69040(2)
Zn12_3 Zn 1.50322(3) -0.60278(3) 0.69040(2)
Zn13_2 Zn 1.38914(4) -0.67508(4) 0.17288(2)
Zn13_3 Zn 1.38914(4) 0.32492(4) 0.17288(2)
Zn14_2 Zn 0.48831(4) 0.26939(3) 1.10539(2)
Zn14_3 Zn 1.48831(4) 0.26939(3) 0.10539(2)
Zn15_2 Zn 0.56117(4) -0.66927(3) 0.19296(2)
Zn16_2 Zn 0.47987(4) -0.59837(3) 0.11433(2)
Zn16_3 Zn 0.47987(4) 0.40163(3) 1.11433(2)
Zn16_4 Zn 1.47987(4) -0.59837(3) 0.11433(2)
O23_2 O 0.4176(4) 0.4630(3) 0.12746(18)
O24_2 O 0.3822(6) 0.4149(4) 0.1833(3)
O27_2 O 0.5726(3) 0.4394(3) 0.12642(19)
O28_2 O 0.6284(2) 0.3945(2) 0.18776(14)
O31_2 O 1.0739(2) -0.1583(2) 0.75149(14)
O32_2 O 0.9557(2) -0.1635(2) 0.74512(13)
O35_2 O 0.3796(7) 0.2369(5) 0.1614(2)
O36_2 O 0.4211(4) 0.2071(3) 0.09884(17)
O39_2 O 0.4154(3) 0.4392(2) 0.67566(15)
O40_2 O 0.3689(2) 0.4073(2) 0.60846(16)
O43_2 O 0.6423(3) 0.4123(2) 0.63647(16)
O44_2 O 0.5725(3) 0.4551(2) 0.6796(2)
O47_2 O 0.4398(2) 0.2155(2) 0.63619(17)
O48_2 O 0.3529(2) 0.27250(19) 0.60520(14)
O51_2 O 0.4977(3) 0.2968(2) 0.04524(13)
O52_2 O 0.4759(3) 0.3921(2) 0.04972(14)
loop_
_geom_bond_atom_site_label_1
_geom_bond_atom_site_label_2
_geom_bond_site_symmetry_1
_geom_bond_site_symmetry_2
Zn1 O1 1_555 1_555
Zn2 O1 1_555 1_555
Zn3 O1 1_555 1_555
Zn4 O1 1_555 1_555
Zn5 O2 1_555 1_555
Zn6 O2 1_555 1_555
Zn7 O2 1_555 1_555
Zn8 O2 1_555 1_555
Zn9 O3 1_555 1_555
Zn10 O3 1_555 1_555
Zn11 O3 1_555 1_555
Zn12 O3 1_555 1_555
Zn13 O4 1_555 1_555
Zn14 O4 1_555 1_555
Zn15 O4 1_555 1_555
Zn16 O4 1_555 1_555
O5 Zn3 1_555 1_555
O6 Zn2 1_555 1_555
O7 Zn5 1_555 1_555
O8 Zn7 1_555 1_555
C1 H1 1_555 1_555
C2 C1 1_555 1_555
C3 C2 1_555 1_555
H2 C3 1_555 1_555
C4 C3 1_555 1_555
H3 C4 1_555 1_555
C5 H4 1_555 1_555
C6 C5 1_555 1_555
C7 C6 1_555 1_555
H5 C7 1_555 1_555
C8 C7 1_555 1_555
H6 C8 1_555 1_555
C9 C1 1_555 1_555
C10 C4 1_555 1_555
C11 O5 1_555 1_555
C12 O7 1_555 1_555
O9 Zn7 1_555 1_555
O10 Zn6 1_555 1_555
O11 Zn9 1_555 1_555
O12 Zn11 1_555 1_555
C13 H7 1_555 1_555
C14 C13 1_555 1_555
C15 C14 1_555 1_555
H8 C15 1_555 1_555
C16 C15 1_555 1_555
H9 C16 1_555 1_555
C17 H10 1_555 1_555
C18 C17 1_555 1_555
C19 C18 1_555 1_555
H11 C19 1_555 1_555
C20 C19 1_555 1_555
H12 C20 1_555 1_555
C21 C13 1_555 1_555
C22 C16 1_555 1_555
C23 O9 1_555 1_555
C24 O11 1_555 1_555
O13 Zn11 1_555 1_555
O14 Zn10 1_555 1_555
O15 Zn13 1_555 1_555
O16 Zn15 1_555 1_555
C25 H13 1_555 1_555
C26 C25 1_555 1_555
C27 C26 1_555 1_555
H14 C27 1_555 1_555
C28 H15 1_555 1_555
C29 C28 1_555 1_555
H16 C29 1_555 1_555
C30 C29 1_555 1_555
C31 C30 1_555 1_555
H17 C31 1_555 1_555
C32 C25 1_555 1_555
H18 C32 1_555 1_555
C33 C31 1_555 1_555
C34 C27 1_555 1_555
C35 O13 1_555 1_555
C36 O15 1_555 1_555
O17 Zn3 1_555 1_555
O18 Zn1 1_555 1_555
O19 Zn14 1_555 1_555
O20 Zn15 1_555 1_555
C37 H19 1_555 1_555
C38 C37 1_555 1_555
C39 C38 1_555 1_555
H20 C39 1_555 1_555
C40 C39 1_555 1_555
H21 C40 1_555 1_555
C41 H22 1_555 1_555
C42 C41 1_555 1_555
C43 C42 1_555 1_555
H23 C43 1_555 1_555
C44 C43 1_555 1_555
H24 C44 1_555 1_555
C45 C40 1_555 1_555
C46 C37 1_555 1_555
C47 O17 1_555 1_555
C48 O19 1_555 1_555
O21 Zn2 1_555 1_555
O22 Zn4 1_555 1_555
O23 C60 1_555 1_555
O24 C60 1_555 1_555
C49 H25 1_555 1_555
C50 C49 1_555 1_555
C51 C50 1_555 1_555
H26 C51 1_555 1_555
C52 C51 1_555 1_555
H27 C52 1_555 1_555
C53 H28 1_555 1_555
C54 C53 1_555 1_555
C55 C54 1_555 1_555
H29 C55 1_555 1_555
C56 C55 1_555 1_555
H30 C56 1_555 1_555
C57 C49 1_555 1_555
C58 C52 1_555 1_555
C59 O21 1_555 1_555
C60 C54 1_555 1_555
O25 Zn2 1_555 1_555
O26 Zn1 1_555 1_555
O27 C72 1_555 1_555
O28 C72 1_555 1_555
C61 H31 1_555 1_555
C62 C61 1_555 1_555
C63 C62 1_555 1_555
H32 C63 1_555 1_555
C64 C63 1_555 1_555
H33 C64 1_555 1_555
C65 H34 1_555 1_555
C66 C65 1_555 1_555
C67 C66 1_555 1_555
H35 C67 1_555 1_555
C68 C67 1_555 1_555
H36 C68 1_555 1_555
C69 C61 1_555 1_555
C70 C64 1_555 1_555
C71 O25 1_555 1_555
C72 C66 1_555 1_555
O29 Zn4 1_555 1_555
O30 Zn1 1_555 1_555
O31 C84 1_555 1_555
O32 C84 1_555 1_555
C73 H37 1_555 1_555
C74 C73 1_555 1_555
C75 C74 1_555 1_555
H38 C75 1_555 1_555
C76 C75 1_555 1_555
H39 C76 1_555 1_555
C77 H40 1_555 1_555
C78 C77 1_555 1_555
C79 C78 1_555 1_555
H41 C79 1_555 1_555
C80 C79 1_555 1_555
H42 C80 1_555 1_555
C81 C73 1_555 1_555
C82 C76 1_555 1_555
C83 O29 1_555 1_555
C84 C78 1_555 1_555
O33 Zn4 1_555 1_555
O34 Zn3 1_555 1_555
O35 C96 1_555 1_555
O36 C96 1_555 1_555
C85 H43 1_555 1_555
C86 C85 1_555 1_555
C87 C86 1_555 1_555
H44 C87 1_555 1_555
C88 C87 1_555 1_555
H45 C88 1_555 1_555
C89 H46 1_555 1_555
C90 C89 1_555 1_555
C91 C90 1_555 1_555
H47 C91 1_555 1_555
C92 C91 1_555 1_555
H48 C92 1_555 1_555
C93 C85 1_555 1_555
C94 C88 1_555 1_555
C95 O33 1_555 1_555
C96 C90 1_555 1_555
O37 Zn5 1_555 1_555
O38 Zn8 1_555 1_555
O39 C108 1_555 1_555
O40 C108 1_555 1_555
C97 H49 1_555 1_555
C98 C97 1_555 1_555
C99 C98 1_555 1_555
H50 C99 1_555 1_555
C100 C99 1_555 1_555
H51 C100 1_555 1_555
C101 H52 1_555 1_555
C102 C101 1_555 1_555
C103 C102 1_555 1_555
H53 C103 1_555 1_555
C104 C103 1_555 1_555
H54 C104 1_555 1_555
C105 C97 1_555 1_555
C106 C100 1_555 1_555
C107 O37 1_555 1_555
C108 C102 1_555 1_555
O41 Zn6 1_555 1_555
O42 Zn5 1_555 1_555
O43 C120 1_555 1_555
O44 C120 1_555 1_555
C109 H55 1_555 1_555
C110 C109 1_555 1_555
C111 C110 1_555 1_555
H56 C111 1_555 1_555
C112 C111 1_555 1_555
H57 C112 1_555 1_555
C113 H58 1_555 1_555
C114 C113 1_555 1_555
C115 C114 1_555 1_555
H59 C115 1_555 1_555
C116 C115 1_555 1_555
H60 C116 1_555 1_555
C117 C109 1_555 1_555
C118 C112 1_555 1_555
C119 O41 1_555 1_555
C120 C114 1_555 1_555
O45 Zn7 1_555 1_555
O46 Zn8 1_555 1_555
O47 C132 1_555 1_555
O48 C132 1_555 1_555
C121 H61 1_555 1_555
C122 C121 1_555 1_555
C123 C122 1_555 1_555
H62 C123 1_555 1_555
C124 C123 1_555 1_555
H63 C124 1_555 1_555
C125 H64 1_555 1_555
C126 C125 1_555 1_555
C127 C126 1_555 1_555
H65 C127 1_555 1_555
C128 C127 1_555 1_555
H66 C128 1_555 1_555
C129 C121 1_555 1_555
C130 C124 1_555 1_555
C131 O45 1_555 1_555
C132 C126 1_555 1_555
O49 Zn12 1_555 1_555
O50 Zn9 1_555 1_555
O51 C144 1_555 1_555
O52 C144 1_555 1_555
C133 H67 1_555 1_555
C134 C133 1_555 1_555
C135 C134 1_555 1_555
H68 C135 1_555 1_555
C136 C135 1_555 1_555
H69 C136 1_555 1_555
C137 H70 1_555 1_555
C138 C137 1_555 1_555
C139 C138 1_555 1_555
H71 C139 1_555 1_555
C140 C139 1_555 1_555
H72 C140 1_555 1_555
C141 C133 1_555 1_555
C142 C136 1_555 1_555
C143 O49 1_555 1_555
C144 C138 1_555 1_555
O53 Zn1 1_555 1_555
N1 C145 1_555 1_555
C145 O53 1_555 1_555
C146 N1 1_555 1_555
O54 Zn5 1_555 1_555
C147 O54 1_555 1_555
O55 Zn9 1_555 1_555
N2 C148 1_555 1_555
C148 O55 1_555 1_555
C149 N2 1_555 1_555
C150 N2 1_555 1_555
O56 Zn13 1_555 1_555
N3 C151 1_555 1_555
C151 O56 1_555 1_555
C152 N3 1_555 1_555
C153 N3 1_555 1_555
O57 Zn1 1_555 1_555
O58 Zn5 1_555 1_555
O59 Zn9 1_555 1_555
O60 Zn13 1_555 1_555
Zn6_2 O32 1_555 1_555
Zn8_2 O31 1_555 1_555
Zn9_2 O47 1_555 1_555
Zn10_2 O40 1_555 1_555
Zn10_3 O48 1_555 1_555
Zn11_2 O43 1_555 1_555
Zn12_2 O44 1_555 1_555
Zn12_3 O39 1_555 1_555
Zn13_2 O24 1_555 1_555
Zn13_3 O35 1_555 1_555
Zn14_2 O51 1_555 1_555
Zn14_3 O36 1_555 1_555
Zn15_2 O28 1_555 1_555
Zn16_2 O27 1_555 1_555
Zn16_3 O52 1_555 1_555
Zn16_4 O23 1_555 1_555
O23_2 Zn16 1_555 1_555
O24_2 Zn13 1_555 1_555
O27_2 Zn16 1_555 1_555
O28_2 Zn15 1_555 1_555
O31_2 Zn8 1_555 1_555
O32_2 Zn6 1_555 1_555
O35_2 Zn13 1_555 1_555
O36_2 Zn14 1_555 1_555
O39_2 Zn12 1_555 1_555
O40_2 Zn10 1_555 1_555
O43_2 Zn11 1_555 1_555
O44_2 Zn12 1_555 1_555
O47_2 Zn9 1_555 1_555
O48_2 Zn10 1_555 1_555
O51_2 Zn14 1_555 1_555
O52_2 Zn16 1_555 1_555
O6 C11 1_555 1_555
O8 C12 1_555 1_555
C2 C11 1_555 1_555
C5 C10 1_555 1_555
C6 C12 1_555 1_555
C8 C9 1_555 1_555
C9 C10 1_555 1_555
O10 C23 1_555 1_555
O12 C24 1_555 1_555
C14 C23 1_555 1_555
C17 C22 1_555 1_555
C18 C24 1_555 1_555
C20 C21 1_555 1_555
C21 C22 1_555 1_555
O14 C35 1_555 1_555
O16 C36 1_555 1_555
C26 C35 1_555 1_555
C28 C34 1_555 1_555
C30 C36 1_555 1_555
C32 C33 1_555 1_555
C33 C34 1_555 1_555
O18 C47 1_555 1_555
O20 C48 1_555 1_555
C38 C47 1_555 1_555
C41 C45 1_555 1_555
C42 C48 1_555 1_555
C44 C46 1_555 1_555
C45 C46 1_555 1_555
O22 C59 1_555 1_555
C50 C59 1_555 1_555
C53 C58 1_555 1_555
C56 C57 1_555 1_555
C57 C58 1_555 1_555
O26 C71 1_555 1_555
C62 C71 1_555 1_555
C65 C70 1_555 1_555
C68 C69 1_555 1_555
C69 C70 1_555 1_555
O30 C83 1_555 1_555
C74 C83 1_555 1_555
C77 C82 1_555 1_555
C80 C81 1_555 1_555
C81 C82 1_555 1_555
O34 C95 1_555 1_555
C86 C95 1_555 1_555
C89 C94 1_555 1_555
C92 C93 1_555 1_555
C93 C94 1_555 1_555
O38 C107 1_555 1_555
C98 C107 1_555 1_555
C101 C106 1_555 1_555
C104 C105 1_555 1_555
C105 C106 1_555 1_555
O42 C119 1_555 1_555
C110 C119 1_555 1_555
C113 C118 1_555 1_555
C116 C117 1_555 1_555
C117 C118 1_555 1_555
O46 C131 1_555 1_555
C122 C131 1_555 1_555
C125 C130 1_555 1_555
C128 C129 1_555 1_555
C129 C130 1_555 1_555
O50 C143 1_555 1_555
C134 C143 1_555 1_555
C137 C142 1_555 1_555
C140 C141 1_555 1_555
C141 C142 1_555 1_555

#END
