
#######################################################################
#
#                 Cambridge Crystallographic Data Centre
#                                CCDC 
#
#######################################################################
#
# If this CIF has been generated from an entry in the Cambridge 
# Structural Database, then it will include bibliographic, chemical, 
# crystal, experimental, refinement or atomic coordinate data resulting 
# from the CCDC's data processing and validation procedures.
#
#######################################################################

data_WORKUL
_chemical_formula_moiety         '(C72 H44 O30 Zn8)n'
_symmetry_cell_setting           triclinic
_symmetry_space_group_name_H-M   'P -1'
_symmetry_Int_Tables_number      2
_space_group_name_Hall           '-P 1'
loop_
_symmetry_equiv_pos_site_id
_symmetry_equiv_pos_as_xyz
1 x,y,z
2 -x,-y,-z
_cell_length_a                   19.278(4)
_cell_length_b                   19.593(4)
_cell_length_c                   20.046(4)
_cell_angle_alpha                70.65(3)
_cell_angle_beta                 70.05(3)
_cell_angle_gamma                69.86(3)
_cell_volume                     6482.93
loop_
_atom_site_label
_atom_site_type_symbol
_atom_site_fract_x
_atom_site_fract_y
_atom_site_fract_z
Zn1 Zn 1.18755(6) 0.54172(5) 0.07652(6)
Zn2 Zn 1.20700(5) 0.39467(5) 0.20803(5)
Zn3 Zn 1.05795(6) 0.53071(5) 0.22475(6)
Zn4 Zn 1.21662(5) 0.54682(5) 0.22407(4)
Zn5 Zn 0.63617(7) 0.11752(5) 0.66458(6)
Zn6 Zn 0.77950(5) -0.02741(6) 0.65219(5)
Zn7 Zn 0.62542(5) -0.03748(5) 0.64227(4)
Zn8 Zn 0.64438(5) -0.03428(5) 0.78882(4)
O1 O 1.1689(3) 0.5037(3) 0.1837(3)
O2 O 0.6702(3) 0.0052(2) 0.6852(2)
O3 O 1.1269(4) 0.3429(3) 0.2628(3)
O4 O 1.0235(4) 0.4419(4) 0.2617(4)
O5 O 0.8278(5) 0.0495(7) 0.5787(5)
O6 O 0.7188(7) 0.1441(9) 0.5816(9)
C1 C 1.0078(4) 0.1893(3) 0.3726(4)
H1 H 1.0328 0.1376 0.3763
C2 C 1.0452(3) 0.2431(4) 0.3247(4)
H2 H 1.0957 0.2282 0.2957
C3 C 1.0087(4) 0.3187(4) 0.3193(4)
C4 C 0.9348(4) 0.3406(3) 0.3618(5)
H3 H 0.9098 0.3923 0.3581
C5 C 0.8974(3) 0.2868(3) 0.4097(4)
C6 C 0.9339(4) 0.2111(3) 0.4150(3)
C7 C 0.8965(5) 0.1573(4) 0.4629(4)
H4 H 0.9215 0.1056 0.4666
C8 C 0.8226(5) 0.1792(6) 0.5054(5)
C9 C 0.7861(5) 0.2548(6) 0.5000(6)
H5 H 0.7356 0.2698 0.529
C10 C 0.8235(4) 0.3086(5) 0.4521(6)
H6 H 0.7985 0.3604 0.4485
C11 C 1.0545(6) 0.3725(5) 0.2783(4)
C12 C 0.7872(10) 0.1181(8) 0.5587(7)
O7 O 1.2865(3) 0.6039(3) 0.1518(3)
O8 O 1.2603(4) 0.6000(4) 0.0506(3)
O9 O 1.6016(3) 0.8814(3) -0.1878(3)
O10 O 1.5583(3) 0.9013(3) -0.2838(3)
C13 C 1.4427(7) 0.7282(7) 0.0243(4)
H7 H 1.4722 0.7402 0.0462
C14 C 1.3935(6) 0.6850(6) 0.0662(5)
H8 H 1.3903 0.6658 0.1171
C15 C 1.3466(5) 0.6683(5) 0.0347(4)
C16 C 1.3550(5) 0.6918(5) -0.0385(4)
H9 H 1.3265 0.677 -0.0591
C17 C 1.4021(5) 0.7357(5) -0.0840(4)
C18 C 1.4497(5) 0.7552(5) -0.0527(4)
C19 C 1.4986(5) 0.7996(5) -0.0988(4)
H10 H 1.5289 0.8125 -0.0785
C20 C 1.5044(4) 0.8252(4) -0.1715(4)
C21 C 1.4587(5) 0.8070(5) -0.2031(4)
H11 H 1.462 0.8248 -0.254
C22 C 1.4111(6) 0.7644(5) -0.1594(5)
H12 H 1.3814 0.7528 -0.1814
C23 C 1.2934(6) 0.6221(5) 0.0815(5)
C24 C 1.5585(4) 0.8733(4) -0.2189(4)
O11 O 1.1442(4) 0.6131(4) 0.2861(3)
O12 O 1.0396(5) 0.5882(9) 0.2890(8)
O13 O 0.8070(4) 0.8945(5) 0.6019(4)
O14 O 0.7000(4) 0.8964(3) 0.5818(3)
C25 C 1.0207(6) 0.7455(6) 0.4347(6)
H13 H 1.0459 0.7628 0.4567
C26 C 1.0639(6) 0.7045(6) 0.3859(6)
H14 H 1.1178 0.6966 0.3711
C27 C 1.0277(5) 0.6730(6) 0.3567(5)
C28 C 0.9534(7) 0.6888(7) 0.3737(6)
H15 H 0.9306 0.6691 0.3516
C29 C 0.9036(6) 0.7345(6) 0.4241(6)
C30 C 0.9414(5) 0.7641(6) 0.4549(5)
C31 C 0.8952(5) 0.8086(6) 0.5018(5)
H16 H 0.9189 0.8299 0.5215
C32 C 0.8178(5) 0.8243(5) 0.5220(4)
C33 C 0.7803(5) 0.7969(6) 0.4887(6)
H17 H 0.7262 0.8113 0.4979
C34 C 0.8223(6) 0.7521(6) 0.4457(6)
H18 H 0.7974 0.7302 0.428
C35 C 1.0753(9) 0.6241(7) 0.3050(6)
C36 C 0.7707(6) 0.8772(5) 0.5709(5)
O15 O 1.2468(5) 0.4577(4) 0.0347(3)
O16 O 1.2581(3) 0.3532(3) 0.1239(3)
O17 O 1.5477(6) 0.1237(5) -0.2454(3)
O18 O 1.5664(3) 0.0267(3) -0.1499(3)
C37 C 1.3821(10) 0.3377(6) -0.1218(6)
H19 H 1.4007 0.3625 -0.1712
C38 C 1.3376(9) 0.3770(6) -0.0729(5)
H20 H 1.3229 0.4301 -0.0885
C39 C 1.3111(6) 0.3420(5) 0.0025(4)
C40 C 1.3316(5) 0.2652(5) 0.0250(4)
H21 H 1.3153 0.2417 0.0753
C41 C 1.3758(5) 0.2214(5) -0.0245(4)
C42 C 1.4016(6) 0.2576(5) -0.0997(5)
C43 C 1.4498(8) 0.2142(6) -0.1493(5)
H22 H 1.4643 0.2381 -0.1997
C44 C 1.4764(6) 0.1386(6) -0.1271(5)
C45 C 1.4487(5) 0.1026(5) -0.0529(5)
H23 H 1.4648 0.0495 -0.0375
C46 C 1.4000(5) 0.1423(4) -0.0035(5)
H24 H 1.3819 0.1167 0.0456
C47 C 1.2700(5) 0.3876(5) 0.0593(5)
C48 C 1.5338(7) 0.0934(6) -0.1780(5)
O19 O 1.2750(3) 0.4695(3) 0.2890(3)
O20 O 1.2778(3) 0.3623(3) 0.2684(3)
O21 O 1.5663(4) 0.1408(3) 0.6010(3)
O22 O 1.5655(3) 0.0357(3) 0.5786(3)
C49 C 1.3967(8) 0.3481(6) 0.4476(6)
H25 H 1.4041 0.3723 0.4777
C50 C 1.3547(8) 0.3904(5) 0.3976(6)
H26 H 1.3335 0.4427 0.3934
C51 C 1.3432(5) 0.3546(4) 0.3518(4)
C52 C 1.3744(5) 0.2784(5) 0.3606(4)
H27 H 1.366 0.2538 0.3315
C53 C 1.4172(4) 0.2368(4) 0.4097(4)
C54 C 1.4285(5) 0.2720(4) 0.4558(4)
C55 C 1.4726(5) 0.2284(5) 0.5058(4)
H28 H 1.4822 0.252 0.535
C56 C 1.5022(5) 0.1524(4) 0.5134(4)
C57 C 1.4918(5) 0.1181(4) 0.4695(4)
H29 H 1.5121 0.0655 0.4751
C58 C 1.4531(6) 0.1585(5) 0.4182(5)
H30 H 1.4496 0.1338 0.3864
C59 C 1.2961(5) 0.3982(5) 0.2991(4)
C60 C 1.5488(5) 0.1075(5) 0.5688(4)
O23 O 0.9963(4) 0.5967(4) 0.1607(4)
O24 O 1.0952(6) 0.6236(7) 0.0691(6)
O25 O 0.7291(3) 0.9191(3) -0.1684(3)
O26 O 0.8301(3) 0.9211(3) -0.2692(3)
C61 C 0.8445(7) 0.7496(7) 0.0406(5)
H31 H 0.7915 0.7626 0.0641
C62 C 0.8938(7) 0.6996(9) 0.0794(8)
H32 H 0.873 0.6759 0.1285
C63 C 0.9716(8) 0.6808(9) 0.0529(7)
C64 C 1.0025(7) 0.7174(7) -0.0192(7)
H33 H 1.0563 0.7085 -0.0385
C65 C 0.9519(6) 0.7686(7) -0.0635(5)
C66 C 0.8706(6) 0.7832(7) -0.0353(5)
C67 C 0.8269(6) 0.8265(6) -0.0807(5)
H34 H 0.773 0.8377 -0.0612
C68 C 0.8544(5) 0.8558(5) -0.1530(5)
C69 C 0.9373(6) 0.8408(6) -0.1846(5)
H35 H 0.9577 0.8615 -0.2348
C70 C 0.9833(7) 0.7977(8) -0.1413(8)
H36 H 1.0371 0.7858 -0.1613
C71 C 1.0268(9) 0.6288(8) 0.0986(9)
C72 C 0.8028(5) 0.9027(5) -0.1999(4)
O27 O 0.7128(8) 0.1011(4) 0.7365(7)
O28 O 0.6073(10) 0.2341(5) 0.6580(9)
O29 O 1.0924(13) 0.4970(11) 0.0665(12)
O30 O 1.1963(10) 0.5970(8) -0.0478(8)
Zn5_2 Zn 1.63617(7) 0.11752(5) -0.33542(6)
Zn5_3 Zn 1.63617(7) 0.11752(5) 0.66458(6)
Zn6_2 Zn 0.77950(5) 0.97259(6) -0.34781(5)
Zn6_3 Zn 0.77950(5) 0.97259(6) 0.65219(5)
Zn7_2 Zn 0.62542(5) 0.96252(5) 0.64227(4)
Zn7_3 Zn 1.62542(5) -0.03748(5) 0.64227(4)
Zn7_4 Zn 1.62542(5) 0.96252(5) -0.35773(4)
Zn8_2 Zn 0.64438(5) 0.96572(5) -0.21118(4)
Zn8_3 Zn 1.64438(5) -0.03428(5) -0.21118(4)
Zn8_4 Zn 1.64438(5) 0.96572(5) -0.21118(4)
O9_2 O 0.6016(3) -0.1186(3) 0.8122(3)
O10_2 O 0.5583(3) -0.0987(3) 0.7162(3)
O13_2 O 0.8070(4) -0.1055(5) 0.6019(4)
O14_2 O 0.7000(4) -0.1036(3) 0.5818(3)
O17_2 O 0.5477(6) 0.1237(5) 0.7546(3)
O18_2 O 0.5664(3) 0.0267(3) 0.8501(3)
O21_2 O 0.5663(4) 0.1408(3) 0.6010(3)
O22_2 O 0.5655(3) 0.0357(3) 0.5786(3)
O25_2 O 0.7291(3) -0.0809(3) 0.8316(3)
O26_2 O 0.8301(3) -0.0789(3) 0.7308(3)
loop_
_geom_bond_atom_site_label_1
_geom_bond_atom_site_label_2
_geom_bond_site_symmetry_1
_geom_bond_site_symmetry_2
Zn1 O1 1_555 1_555
Zn2 O1 1_555 1_555
Zn3 O1 1_555 1_555
Zn4 O1 1_555 1_555
Zn5 O2 1_555 1_555
Zn6 O2 1_555 1_555
Zn7 O2 1_555 1_555
Zn8 O2 1_555 1_555
O3 Zn2 1_555 1_555
O4 Zn3 1_555 1_555
O5 Zn6 1_555 1_555
O6 Zn5 1_555 1_555
C1 H1 1_555 1_555
C2 C1 1_555 1_555
H2 C2 1_555 1_555
C3 C2 1_555 1_555
C4 C3 1_555 1_555
H3 C4 1_555 1_555
C5 C4 1_555 1_555
C6 C1 1_555 1_555
C7 C6 1_555 1_555
H4 C7 1_555 1_555
C8 C7 1_555 1_555
C9 C8 1_555 1_555
H5 C9 1_555 1_555
C10 C5 1_555 1_555
H6 C10 1_555 1_555
C11 O3 1_555 1_555
C12 O5 1_555 1_555
O7 Zn4 1_555 1_555
O8 Zn1 1_555 1_555
O9 C24 1_555 1_555
O10 C24 1_555 1_555
C13 H7 1_555 1_555
C14 C13 1_555 1_555
H8 C14 1_555 1_555
C15 C14 1_555 1_555
C16 C15 1_555 1_555
H9 C16 1_555 1_555
C17 C16 1_555 1_555
C18 C13 1_555 1_555
C19 C18 1_555 1_555
H10 C19 1_555 1_555
C20 C19 1_555 1_555
C21 C20 1_555 1_555
H11 C21 1_555 1_555
C22 C17 1_555 1_555
H12 C22 1_555 1_555
C23 O7 1_555 1_555
C24 C20 1_555 1_555
O11 Zn4 1_555 1_555
O12 Zn3 1_555 1_555
O13 C36 1_555 1_555
O14 C36 1_555 1_555
C25 H13 1_555 1_555
C26 C25 1_555 1_555
H14 C26 1_555 1_555
C27 C26 1_555 1_555
C28 C27 1_555 1_555
H15 C28 1_555 1_555
C29 C28 1_555 1_555
C30 C25 1_555 1_555
C31 C30 1_555 1_555
H16 C31 1_555 1_555
C32 C31 1_555 1_555
C33 C32 1_555 1_555
H17 C33 1_555 1_555
C34 C29 1_555 1_555
H18 C34 1_555 1_555
C35 O11 1_555 1_555
C36 C32 1_555 1_555
O15 Zn1 1_555 1_555
O16 Zn2 1_555 1_555
O17 C48 1_555 1_555
O18 C48 1_555 1_555
C37 H19 1_555 1_555
C38 C37 1_555 1_555
H20 C38 1_555 1_555
C39 C38 1_555 1_555
C40 C39 1_555 1_555
H21 C40 1_555 1_555
C41 C40 1_555 1_555
C42 C37 1_555 1_555
C43 C42 1_555 1_555
H22 C43 1_555 1_555
C44 C43 1_555 1_555
C45 C44 1_555 1_555
H23 C45 1_555 1_555
C46 C41 1_555 1_555
H24 C46 1_555 1_555
C47 O15 1_555 1_555
C48 C44 1_555 1_555
O19 Zn4 1_555 1_555
O20 Zn2 1_555 1_555
O21 C60 1_555 1_555
O22 C60 1_555 1_555
C49 H25 1_555 1_555
C50 C49 1_555 1_555
H26 C50 1_555 1_555
C51 C50 1_555 1_555
C52 C51 1_555 1_555
H27 C52 1_555 1_555
C53 C52 1_555 1_555
C54 C49 1_555 1_555
C55 C54 1_555 1_555
H28 C55 1_555 1_555
C56 C55 1_555 1_555
C57 C56 1_555 1_555
H29 C57 1_555 1_555
C58 C53 1_555 1_555
H30 C58 1_555 1_555
C59 O19 1_555 1_555
C60 C56 1_555 1_555
O23 Zn3 1_555 1_555
O24 Zn1 1_555 1_555
O25 C72 1_555 1_555
O26 C72 1_555 1_555
C61 H31 1_555 1_555
C62 C61 1_555 1_555
H32 C62 1_555 1_555
C63 C62 1_555 1_555
C64 C63 1_555 1_555
H33 C64 1_555 1_555
C65 C64 1_555 1_555
C66 C61 1_555 1_555
C67 C66 1_555 1_555
H34 C67 1_555 1_555
C68 C67 1_555 1_555
C69 C68 1_555 1_555
H35 C69 1_555 1_555
C70 C65 1_555 1_555
H36 C70 1_555 1_555
C71 O23 1_555 1_555
C72 C68 1_555 1_555
O27 Zn5 1_555 1_555
O28 Zn5 1_555 1_555
O29 Zn1 1_555 1_555
O30 Zn1 1_555 1_555
Zn5_2 O17 1_555 1_555
Zn5_3 O21 1_555 1_555
Zn6_2 O26 1_555 1_555
Zn6_3 O13 1_555 1_555
Zn7_2 O14 1_555 1_555
Zn7_3 O22 1_555 1_555
Zn7_4 O10 1_555 1_555
Zn8_2 O25 1_555 1_555
Zn8_3 O18 1_555 1_555
Zn8_4 O9 1_555 1_555
O9_2 Zn8 1_555 1_555
O10_2 Zn7 1_555 1_555
O13_2 Zn6 1_555 1_555
O14_2 Zn7 1_555 1_555
O17_2 Zn5 1_555 1_555
O18_2 Zn8 1_555 1_555
O21_2 Zn5 1_555 1_555
O22_2 Zn7 1_555 1_555
O25_2 Zn8 1_555 1_555
O26_2 Zn6 1_555 1_555
O4 C11 1_555 1_555
O6 C12 1_555 1_555
C3 C11 1_555 1_555
C5 C6 1_555 1_555
C8 C12 1_555 1_555
C9 C10 1_555 1_555
O8 C23 1_555 1_555
C15 C23 1_555 1_555
C17 C18 1_555 1_555
C21 C22 1_555 1_555
O12 C35 1_555 1_555
C27 C35 1_555 1_555
C29 C30 1_555 1_555
C33 C34 1_555 1_555
O16 C47 1_555 1_555
C39 C47 1_555 1_555
C41 C42 1_555 1_555
C45 C46 1_555 1_555
O20 C59 1_555 1_555
C51 C59 1_555 1_555
C53 C54 1_555 1_555
C57 C58 1_555 1_555
O24 C71 1_555 1_555
C63 C71 1_555 1_555
C65 C66 1_555 1_555
C69 C70 1_555 1_555

#END
