
#######################################################################
#
#                 Cambridge Crystallographic Data Centre
#                                CCDC 
#
#######################################################################
#
# If this CIF has been generated from an entry in the Cambridge 
# Structural Database, then it will include bibliographic, chemical, 
# crystal, experimental, refinement or atomic coordinate data resulting 
# from the CCDC's data processing and validation procedures.
#
#######################################################################

data_WORLAS
_chemical_formula_moiety         '(C81 H59 N3 O30 Zn8)n'
_symmetry_cell_setting           triclinic
_symmetry_space_group_name_H-M   'P -1'
_symmetry_Int_Tables_number      2
_space_group_name_Hall           '-P 1'
loop_
_symmetry_equiv_pos_site_id
_symmetry_equiv_pos_as_xyz
1 x,y,z
2 -x,-y,-z
_cell_length_a                   17.9128(9)
_cell_length_b                   20.0002(9)
_cell_length_c                   20.8725(10)
_cell_angle_alpha                71.6450(10)
_cell_angle_beta                 70.3050(10)
_cell_angle_gamma                68.9810(10)
_cell_volume                     6409.72
loop_
_atom_site_label
_atom_site_type_symbol
_atom_site_fract_x
_atom_site_fract_y
_atom_site_fract_z
Zn1 Zn 0.13343(6) 0.15948(5) 0.11836(5)
Zn2 Zn 0.10895(6) 0.14140(5) -0.02352(5)
Zn3 Zn 0.13095(6) 0.28848(5) -0.01707(5)
Zn4 Zn 0.28048(6) 0.14835(5) -0.02233(5)
Zn5 Zn 0.54245(6) -0.27499(5) 0.54132(5)
Zn6 Zn 0.69367(6) -0.29236(5) 0.41061(5)
Zn7 Zn 0.72328(7) -0.27588(5) 0.54690(5)
Zn8 Zn 0.69018(6) -0.42072(5) 0.54067(5)
O1 O 0.1621(3) 0.1835(3) 0.0135(3)
O2 O 0.1074(5) 0.1351(5) 0.2285(5)
O3 O 0.0420(4) 0.1117(4) 0.1352(4)
O4 O 0.0539(4) 0.0709(3) 0.0414(4)
C1 C 0.0327(5) 0.0673(5) 0.1067(6)
C2 C -0.0119(5) 0.0126(5) 0.1543(5)
C3 C -0.0463(6) 0.0169(5) 0.2224(5)
H1 H -0.0412 0.0534 0.2394
C4 C -0.0901(6) -0.0347(6) 0.2677(5)
C5 C -0.1301(6) -0.0324(6) 0.3399(6)
H2 H -0.1276 0.0040 0.3586
C6 C -0.1713(7) -0.0822(6) 0.3810(6)
H3 H -0.1988 -0.0794 0.4281
C7 C -0.1738(6) -0.1386(5) 0.3547(5)
C8 C -0.1326(5) -0.1428(5) 0.2862(5)
H4 H -0.1327 -0.1815 0.2691
C9 C -0.0908(5) -0.0918(5) 0.2415(5)
C10 C -0.0515(5) -0.0947(5) 0.1699(5)
H5 H -0.0520 -0.1324 0.1517
C11 C -0.0133(5) -0.0422(5) 0.1283(5)
H6 H 0.0128 -0.0435 0.0807
C12 C -0.2234(7) -0.1908(6) 0.3994(7)
O5 O -0.2514(5) -0.1924(4) 0.4597(4)
O6 O -0.2328(4) -0.2315(3) 0.3674(3)
O7 O 0.0288(4) 0.2144(3) -0.0728(3)
O8 O 0.0599(4) 0.3165(3) -0.0810(4)
C13 C 0.0227(6) 0.2810(6) -0.0958(5)
C14 C -0.0372(6) 0.3302(5) -0.1407(5)
C15 C -0.0800(7) 0.2967(6) -0.1601(6)
H7 H -0.0738 0.2454 -0.1436
C16 C -0.1304(6) 0.3381(6) -0.2029(5)
H8 H -0.1601 0.3153 -0.2155
C17 C -0.1396(6) 0.4126(6) -0.2287(5)
C18 C -0.1874(6) 0.4552(6) -0.2754(5)
H9 H -0.2158 0.4335 -0.2907
C19 C -0.1935(7) 0.5281(7) -0.2993(5)
C20 C -0.1431(10) 0.5620(7) -0.2798(7)
H10 H -0.1428 0.6117 -0.3001
C21 C -0.0988(9) 0.5200(7) -0.2330(7)
H11 H -0.0702 0.5410 -0.2173
C22 C -0.0949(8) 0.4457(6) -0.2075(6)
C23 C -0.0435(7) 0.4019(6) -0.1628(6)
H12 H -0.0135 0.4230 -0.1485
C24 C -0.2426(8) 0.5736(8) -0.3548(7)
O9 O -0.2540(5) 0.5340(5) -0.3884(4)
O10 O -0.2575(6) 0.6409(5) -0.3664(4)
O11 O 0.2227(4) 0.3267(3) -0.0744(3)
O12 O 0.3335(3) 0.2259(3) -0.0732(3)
C25 C 0.2962(6) 0.2945(5) -0.0939(5)
C26 C 0.3534(6) 0.3399(6) -0.1444(5)
C27 C 0.3182(6) 0.4155(5) -0.1740(5)
H13 H 0.2604 0.4369 -0.1583
C28 C 0.3644(6) 0.4576(5) -0.2234(4)
C29 C 0.3287(6) 0.5317(5) -0.2478(5)
H14 H 0.2718 0.5543 -0.2297
C30 C 0.3778(6) 0.5705(5) -0.2983(6)
H15 H 0.3542 0.6215 -0.3145
C31 C 0.4615(6) 0.5396(5) -0.3279(5)
C32 C 0.4957(6) 0.4676(5) -0.3046(5)
H16 H 0.5517 0.4453 -0.3258
C33 C 0.4504(6) 0.4254(5) -0.2501(5)
C34 C 0.4835(6) 0.3506(5) -0.2221(6)
H17 H 0.5408 0.3293 -0.2395
C35 C 0.4407(6) 0.3076(6) -0.1731(6)
H18 H 0.4665 0.2571 -0.1572
C36 C 0.5157(7) 0.5834(5) -0.3836(5)
O13 O 0.4817(4) 0.6541(3) -0.3984(3)
O14 O 0.5875(4) 0.5512(3) -0.4114(3)
O15 O 0.0424(4) 0.2592(3) 0.1342(3)
O16 O 0.0673(3) 0.3532(3) 0.0444(3)
C37 C 0.0336(6) 0.3260(5) 0.1073(5)
C38 C -0.0229(5) 0.3777(5) 0.1539(5)
C39 C -0.0501(5) 0.3535(5) 0.2235(5)
H19 H -0.0339 0.3023 0.2433
C40 C -0.1016(6) 0.4021(4) 0.2674(4)
C41 C -0.1271(6) 0.3790(4) 0.3396(5)
H20 H -0.1091 0.3283 0.3603
C42 C -0.1771(6) 0.4269(4) 0.3816(5)
H21 H -0.1986 0.4093 0.4300
C43 C -0.1962(5) 0.5027(4) 0.3519(5)
C44 C -0.1713(5) 0.5273(4) 0.2825(4)
H22 H -0.1879 0.5785 0.2631
C45 C -0.1213(5) 0.4789(4) 0.2381(4)
C46 C -0.0905(6) 0.5019(4) 0.1671(5)
H23 H -0.1036 0.5531 0.1471
C47 C -0.0420(6) 0.4544(5) 0.1241(4)
H24 H -0.0217 0.4724 0.0756
C48 C -0.2414(6) 0.5560(5) 0.3970(5)
O17 O -0.2629(4) 0.5285(3) 0.4632(3)
O18 O -0.2575(3) 0.6236(3) 0.3688(3)
O19 O 0.2264(4) 0.0588(3) 0.1219(3)
O20 O 0.3431(4) 0.0725(3) 0.0385(3)
C49 C 0.3000(7) 0.0420(5) 0.1005(5)
C50 C 0.3544(6) -0.0155(5) 0.1449(4)
C51 C 0.3187(6) -0.0283(5) 0.2147(5)
H25 H 0.2620 -0.0046 0.2321
C52 C 0.3685(5) -0.0786(5) 0.2625(4)
C53 C 0.3340(7) -0.0940(7) 0.3374(5)
H26 H 0.2767 -0.0739 0.3564
C54 C 0.3823(6) -0.1360(6) 0.3792(5)
H27 H 0.3609 -0.1429 0.4284
C55 C 0.4658(6) -0.1704(5) 0.3506(5)
C56 C 0.4997(6) -0.1612(4) 0.2816(4)
H28 H 0.5560 -0.1862 0.2642
C57 C 0.4519(5) -0.1149(4) 0.2357(4)
C58 C 0.4859(5) -0.0975(4) 0.1606(4)
H29 H 0.5417 -0.1216 0.1409
C59 C 0.4388(6) -0.0476(5) 0.1187(4)
H30 H 0.4634 -0.0338 0.0703
C60 C 0.5213(6) -0.2151(5) 0.4010(5)
O21 O 0.4863(4) -0.2233(3) 0.4655(3)
O22 O 0.5953(4) -0.2411(3) 0.3737(3)
O23 O 0.6595(3) -0.3150(2) 0.5116(3)
O24 O 0.5091(4) -0.2053(3) 0.5988(4)
O25 O 0.6321(4) -0.2033(3) 0.6024(3)
C61 C 0.5538(8) -0.1859(5) 0.6203(5)
C62 C 0.5105(7) -0.1341(5) 0.6699(5)
C63 C 0.4294(7) -0.1223(5) 0.6973(5)
H31 H 0.4006 -0.1471 0.6863
C64 C 0.3848(7) -0.0728(5) 0.7432(5)
C65 C 0.3006(6) -0.0616(5) 0.7763(6)
H32 H 0.2704 -0.0869 0.7676
C66 C 0.2615(6) -0.0155(5) 0.8206(5)
H33 H 0.2042 -0.0083 0.8426
C67 C 0.3070(7) 0.0220(5) 0.8339(5)
C68 C 0.3916(7) 0.0105(5) 0.8070(5)
H34 H 0.4207 0.0332 0.8202
C69 C 0.4346(7) -0.0375(5) 0.7579(5)
C70 C 0.5146(7) -0.0498(6) 0.7266(6)
H35 H 0.5462 -0.0255 0.7349
C71 C 0.5531(7) -0.0985(6) 0.6815(6)
H36 H 0.6103 -0.1062 0.6589
C72 C 0.2633(7) 0.0727(5) 0.8847(5)
O26 O 0.1863(4) 0.0829(3) 0.9080(3)
O27 O 0.3093(4) 0.0975(3) 0.9005(3)
O28 O 0.2284(6) 0.2071(5) 0.1068(5)
N1 N 0.2942(8) 0.2399(6) 0.1622(7)
C73 C 0.2304(10) 0.2268(8) 0.1542(9)
H37 H 0.1810 0.2339 0.1904
C74 C 0.2982(8) 0.2624(7) 0.2212(7)
H38 H 0.2615 0.3121 0.2228
H39 H 0.3550 0.2616 0.2154
H40 H 0.2806 0.2283 0.2647
C75 C 0.3749(8) 0.2075(7) 0.1164(7)
H41 H 0.3809 0.1559 0.1202
H42 H 0.4199 0.2109 0.1309
H43 H 0.3773 0.2345 0.0679
O29 O 0.8127(6) -0.2454(5) 0.5759(5)
N2 N 0.8595(8) -0.1592(7) 0.5946(7)
C76 C 0.8057(9) -0.1805(8) 0.5791(8)
H44 H 0.7573 -0.1434 0.5695
C77 C 0.8419(8) -0.0837(7) 0.5995(7)
H45 H 0.8134 -0.0502 0.5639
H46 H 0.8938 -0.0730 0.5920
H47 H 0.8067 -0.0773 0.6458
C78 C 0.9266(8) -0.2189(7) 0.6188(7)
H48 H 0.9037 -0.2555 0.6567
H49 H 0.9575 -0.1994 0.6358
H50 H 0.9637 -0.2421 0.5801
O30 O 0.8357(6) -0.3509(5) 0.4869(5)
N3 N 0.9748(7) -0.3797(6) 0.4289(7)
C79 C 0.9068(9) -0.3504(8) 0.4824(8)
H51 H 0.9158 -0.3308 0.5143
C80 C 1.0605(8) -0.3772(7) 0.4316(7)
H52 H 1.0907 -0.3576 0.3846
H53 H 1.0929 -0.4270 0.4492
H54 H 1.0513 -0.3456 0.4627
C81 C 0.9533(8) -0.4154(7) 0.3869(7)
H55 H 0.9360 -0.4586 0.4172
H56 H 1.0017 -0.4303 0.3494
H57 H 0.9080 -0.3804 0.3668
Zn2_2 Zn 0.10895(6) 0.14140(5) 0.97648(5)
Zn4_2 Zn 0.28048(6) 0.14835(5) 0.97767(5)
Zn5_2 Zn 0.54245(6) 0.72501(5) -0.45868(5)
Zn6_2 Zn -0.30633(6) -0.29236(5) 0.41061(5)
Zn6_3 Zn -0.30633(6) 0.70764(5) 0.41061(5)
Zn7_2 Zn -0.27672(7) -0.27588(5) 0.54690(5)
Zn7_3 Zn -0.27672(7) 0.72412(5) -0.45310(5)
Zn8_2 Zn -0.30982(6) 0.57928(5) -0.45933(5)
Zn8_3 Zn -0.30982(6) 0.57928(5) 0.54067(5)
Zn8_4 Zn 0.69018(6) 0.57928(5) -0.45933(5)
O5_2 O 0.7486(5) -0.1924(4) 0.4597(4)
O6_2 O 0.7672(4) -0.2315(3) 0.3674(3)
O9_2 O 0.7460(5) -0.4660(5) 0.6116(4)
O10_2 O 0.7425(6) -0.3591(5) 0.6336(4)
O13_2 O 0.4817(4) -0.3459(3) 0.6016(3)
O14_2 O 0.5875(4) -0.4488(3) 0.5886(3)
O17_2 O 0.7371(4) -0.4715(3) 0.4632(3)
O18_2 O 0.7425(3) -0.3764(3) 0.3688(3)
O26_2 O 0.1863(4) 0.0829(3) -0.0920(3)
O27_2 O 0.3093(4) 0.0975(3) -0.0995(3)
loop_
_geom_bond_atom_site_label_1
_geom_bond_atom_site_label_2
_geom_bond_site_symmetry_1
_geom_bond_site_symmetry_2
Zn1 O1 1_555 1_555
Zn2 O1 1_555 1_555
Zn3 O1 1_555 1_555
Zn4 O1 1_555 1_555
Zn5 O21 1_555 1_555
Zn6 O22 1_555 1_555
Zn7 O23 1_555 1_555
Zn8 O23 1_555 1_555
O2 Zn1 1_555 1_555
O3 Zn1 1_555 1_555
O4 Zn2 1_555 1_555
C1 O3 1_555 1_555
C2 C1 1_555 1_555
C3 C2 1_555 1_555
H1 C3 1_555 1_555
C4 C3 1_555 1_555
C5 C4 1_555 1_555
H2 C5 1_555 1_555
C6 C5 1_555 1_555
H3 C6 1_555 1_555
C7 C6 1_555 1_555
C8 C7 1_555 1_555
H4 C8 1_555 1_555
C9 C4 1_555 1_555
C10 C9 1_555 1_555
H5 C10 1_555 1_555
C11 C2 1_555 1_555
H6 C11 1_555 1_555
C12 C7 1_555 1_555
O5 C12 1_555 1_555
O6 C12 1_555 1_555
O7 Zn2 1_555 1_555
O8 Zn3 1_555 1_555
C13 O7 1_555 1_555
C14 C13 1_555 1_555
C15 C14 1_555 1_555
H7 C15 1_555 1_555
C16 C15 1_555 1_555
H8 C16 1_555 1_555
C17 C16 1_555 1_555
C18 C17 1_555 1_555
H9 C18 1_555 1_555
C19 C18 1_555 1_555
C20 C19 1_555 1_555
H10 C20 1_555 1_555
C21 C20 1_555 1_555
H11 C21 1_555 1_555
C22 C17 1_555 1_555
C23 C14 1_555 1_555
H12 C23 1_555 1_555
C24 C19 1_555 1_555
O9 C24 1_555 1_555
O10 C24 1_555 1_555
O11 Zn3 1_555 1_555
O12 Zn4 1_555 1_555
C25 O11 1_555 1_555
C26 C25 1_555 1_555
C27 C26 1_555 1_555
H13 C27 1_555 1_555
C28 C27 1_555 1_555
C29 C28 1_555 1_555
H14 C29 1_555 1_555
C30 C29 1_555 1_555
H15 C30 1_555 1_555
C31 C30 1_555 1_555
C32 C31 1_555 1_555
H16 C32 1_555 1_555
C33 C28 1_555 1_555
C34 C33 1_555 1_555
H17 C34 1_555 1_555
C35 C26 1_555 1_555
H18 C35 1_555 1_555
C36 C31 1_555 1_555
O13 C36 1_555 1_555
O14 C36 1_555 1_555
O15 Zn1 1_555 1_555
O16 Zn3 1_555 1_555
C37 O15 1_555 1_555
C38 C37 1_555 1_555
C39 C38 1_555 1_555
H19 C39 1_555 1_555
C40 C39 1_555 1_555
C41 C40 1_555 1_555
H20 C41 1_555 1_555
C42 C41 1_555 1_555
H21 C42 1_555 1_555
C43 C42 1_555 1_555
C44 C43 1_555 1_555
H22 C44 1_555 1_555
C45 C40 1_555 1_555
C46 C45 1_555 1_555
H23 C46 1_555 1_555
C47 C38 1_555 1_555
H24 C47 1_555 1_555
C48 C43 1_555 1_555
O17 C48 1_555 1_555
O18 C48 1_555 1_555
O19 Zn1 1_555 1_555
O20 Zn4 1_555 1_555
C49 O19 1_555 1_555
C50 C49 1_555 1_555
C51 C50 1_555 1_555
H25 C51 1_555 1_555
C52 C51 1_555 1_555
C53 C52 1_555 1_555
H26 C53 1_555 1_555
C54 C53 1_555 1_555
H27 C54 1_555 1_555
C55 C54 1_555 1_555
C56 C55 1_555 1_555
H28 C56 1_555 1_555
C57 C52 1_555 1_555
C58 C57 1_555 1_555
H29 C58 1_555 1_555
C59 C50 1_555 1_555
H30 C59 1_555 1_555
C60 C55 1_555 1_555
O21 C60 1_555 1_555
O22 C60 1_555 1_555
O23 Zn5 1_555 1_555
O24 Zn5 1_555 1_555
O25 Zn7 1_555 1_555
C61 O24 1_555 1_555
C62 C61 1_555 1_555
C63 C62 1_555 1_555
H31 C63 1_555 1_555
C64 C63 1_555 1_555
C65 C64 1_555 1_555
H32 C65 1_555 1_555
C66 C65 1_555 1_555
H33 C66 1_555 1_555
C67 C66 1_555 1_555
C68 C67 1_555 1_555
H34 C68 1_555 1_555
C69 C64 1_555 1_555
C70 C69 1_555 1_555
H35 C70 1_555 1_555
C71 C62 1_555 1_555
H36 C71 1_555 1_555
C72 C67 1_555 1_555
O26 C72 1_555 1_555
O27 C72 1_555 1_555
O28 Zn1 1_555 1_555
N1 C73 1_555 1_555
C73 O28 1_555 1_555
H37 C73 1_555 1_555
C74 N1 1_555 1_555
H38 C74 1_555 1_555
H39 C74 1_555 1_555
H40 C74 1_555 1_555
C75 N1 1_555 1_555
H41 C75 1_555 1_555
H42 C75 1_555 1_555
H43 C75 1_555 1_555
O29 Zn7 1_555 1_555
N2 C76 1_555 1_555
C76 O29 1_555 1_555
H44 C76 1_555 1_555
C77 N2 1_555 1_555
H45 C77 1_555 1_555
H46 C77 1_555 1_555
H47 C77 1_555 1_555
C78 N2 1_555 1_555
H48 C78 1_555 1_555
H49 C78 1_555 1_555
H50 C78 1_555 1_555
O30 Zn7 1_555 1_555
N3 C79 1_555 1_555
C79 O30 1_555 1_555
H51 C79 1_555 1_555
C80 N3 1_555 1_555
H52 C80 1_555 1_555
H53 C80 1_555 1_555
H54 C80 1_555 1_555
C81 N3 1_555 1_555
H55 C81 1_555 1_555
H56 C81 1_555 1_555
H57 C81 1_555 1_555
Zn2_2 O26 1_555 1_555
Zn4_2 O27 1_555 1_555
Zn5_2 O13 1_555 1_555
Zn6_2 O6 1_555 1_555
Zn6_3 O18 1_555 1_555
Zn7_2 O5 1_555 1_555
Zn7_3 O10 1_555 1_555
Zn8_2 O9 1_555 1_555
Zn8_3 O17 1_555 1_555
Zn8_4 O14 1_555 1_555
O5_2 Zn7 1_555 1_555
O6_2 Zn6 1_555 1_555
O9_2 Zn8 1_555 1_555
O10_2 Zn7 1_555 1_555
O13_2 Zn5 1_555 1_555
O14_2 Zn8 1_555 1_555
O17_2 Zn8 1_555 1_555
O18_2 Zn6 1_555 1_555
O26_2 Zn2 1_555 1_555
O27_2 Zn4 1_555 1_555
Zn6 O23 1_555 1_555
O4 C1 1_555 1_555
C8 C9 1_555 1_555
C10 C11 1_555 1_555
O8 C13 1_555 1_555
C21 C22 1_555 1_555
C22 C23 1_555 1_555
O12 C25 1_555 1_555
C32 C33 1_555 1_555
C34 C35 1_555 1_555
O16 C37 1_555 1_555
C44 C45 1_555 1_555
C46 C47 1_555 1_555
O20 C49 1_555 1_555
C56 C57 1_555 1_555
C58 C59 1_555 1_555
O25 C61 1_555 1_555
C68 C69 1_555 1_555
C70 C71 1_555 1_555

#END
