
#######################################################################
#
#                 Cambridge Crystallographic Data Centre
#                                CCDC 
#
#######################################################################
#
# If this CIF has been generated from an entry in the Cambridge 
# Structural Database, then it will include bibliographic, chemical, 
# crystal, experimental, refinement or atomic coordinate data resulting 
# from the CCDC's data processing and validation procedures.
#
#######################################################################

data_WEHHUO
_chemical_formula_moiety         '(C41 H36 O24 Zn4)n'
_symmetry_cell_setting           orthorhombic
_symmetry_space_group_name_H-M   'P b c m'
_symmetry_Int_Tables_number      57
_space_group_name_Hall           '-P 2c 2b'
loop_
_symmetry_equiv_pos_site_id
_symmetry_equiv_pos_as_xyz
1 x,y,z
2 -x,-y,1/2+z
3 x,1/2-y,-z
4 -x,1/2+y,1/2-z
5 -x,-y,-z
6 x,y,1/2-z
7 -x,1/2+y,z
8 x,1/2-y,1/2+z
_cell_length_a                   12.5059(3)
_cell_length_b                   26.1708(6)
_cell_length_c                   26.2509(5)
_cell_angle_alpha                90
_cell_angle_beta                 90
_cell_angle_gamma                90
_cell_volume                     8591.64
loop_
_atom_site_label
_atom_site_type_symbol
_atom_site_fract_x
_atom_site_fract_y
_atom_site_fract_z
Zn1 Zn 0.48667(5) 0.19657(2) 0.2500
Zn2 Zn 0.65016(5) 0.27934(2) 0.2500
Zn3 Zn 0.58104(3) -0.006601(16) 0.541162(16)
C1 C 0.6701(4) 0.19460(16) 0.32229(15)
C2 C 0.6615(13) -0.1250(5) 0.6226(6)
H1 H 0.6769 -0.1417 0.6543
H2 H 0.7049 -0.1395 0.5961
H3 H 0.5873 -0.1296 0.6143
C3 C 0.9721(3) 0.23315(14) 0.45530(14)
H4 H 0.9228 0.2601 0.4459
H5 H 1.0164 0.2251 0.4260
C4 C 0.8340(3) 0.17055(15) 0.44144(15)
C5 C 0.8015(3) 0.19093(15) 0.39559(14)
H6 H 0.8378 0.2185 0.3815
C6 C 0.7140(3) 0.16989(16) 0.37061(15)
C7 C 0.6597(3) 0.12861(16) 0.39141(15)
H7 H 0.6003 0.1151 0.3749
C8 C 0.6943(3) 0.10764(15) 0.43690(15)
C9 C 0.7809(3) 0.12794(16) 0.46184(15)
H8 H 0.8043 0.1135 0.4922
C10 C 0.6307(4) 0.06499(16) 0.46153(16)
C11 C 0.6863(10) -0.0668(4) 0.6274(4)
H9 H 0.6462 -0.0570 0.6575
H10 H 0.7606 -0.0665 0.6380
O1 O 0.7560(4) 0.3356(2) 0.2500
O2 O 0.5897(3) 0.17263(14) 0.30284(13)
O3 O 0.3805(4) 0.1400(2) 0.2500
O4 O 0.7138(2) 0.23381(11) 0.30586(10)
O5 O 0.9147(2) 0.18888(12) 0.47165(11)
O6 O 0.6670(3) 0.04539(12) 0.50171(12)
O7 O 0.5451(3) 0.05285(12) 0.43992(13)
O8 O 0.6792(3) -0.02440(16) 0.59736(14)
C12 C 1.0415(4) 0.2500 0.5000
C13 C 1.1123(3) 0.20535(15) 0.51731(15)
H11 H 1.0683 0.1762 0.5263
H12 H 1.1603 0.1953 0.4901
O9 O 1.1719(2) 0.22193(11) 0.56042(12)
C14 C 1.3777(3) 0.12222(15) 0.57661(15)
C15 C 1.2877(3) 0.14721(15) 0.55624(16)
H13 H 1.2512 0.1333 0.5287
C16 C 1.2541(3) 0.19278(15) 0.57770(15)
C17 C 1.3099(4) 0.21406(16) 0.61906(16)
H14 H 1.2871 0.2447 0.6333
C18 C 1.4192(3) 0.07472(16) 0.55092(17)
C19 C 1.3983(3) 0.18940(16) 0.63847(15)
C20 C 1.4319(3) 0.14318(15) 0.61793(15)
H15 H 1.4905 0.1263 0.6318
C21 C 1.4608(4) 0.21557(17) 0.68081(16)
O10 O 1.3741(3) 0.06134(10) 0.51063(12)
O11 O 1.5441(3) 0.19386(12) 0.69576(11)
O12 O 1.4978(2) 0.05307(11) 0.57177(13)
O13 O 1.4239(3) 0.25706(14) 0.69632(14)
Zn1_2 Zn 1.48667(5) 0.19657(2) 0.2500
Zn1B Zn 1.48667(5) 0.30343(2) 0.7500
Zn1B_2 Zn 0.48667(5) 0.30343(2) 0.7500
Zn2_2 Zn 1.65016(5) 0.27934(2) 0.2500
Zn2B Zn 1.65016(5) 0.22066(2) 0.7500
Zn2B_2 Zn 0.65016(5) 0.22066(2) 0.7500
Zn3B Zn 0.58104(3) 0.506601(16) 0.458838(16)
Zn3_2 Zn 1.58104(3) -0.006601(16) 0.541162(16)
Zn3B_2 Zn 1.58104(3) 0.506601(16) 0.458838(16)
Zn3D Zn 0.41896(3) 0.006601(16) 0.458838(16)
Zn3D_2 Zn 1.41896(3) 0.006601(16) 0.458838(16)
Zn3F Zn 0.41896(3) 0.493399(16) 0.541162(16)
Zn3F_2 Zn 1.41896(3) 0.493399(16) 0.541162(16)
C1B C 0.6701(4) 0.30540(16) 0.67771(15)
C2B C 0.6615(13) 0.6250(5) 0.3774(6)
H1B H 0.6769 0.6417 0.3457
H2B H 0.7049 0.6395 0.4039
H3B H 0.5873 0.6296 0.3857
C3B C 0.9721(3) 0.26685(14) 0.54470(14)
H4B H 0.9228 0.2399 0.5541
H5B H 1.0164 0.2749 0.5740
C4B C 0.8340(3) 0.32945(15) 0.55856(15)
C5B C 0.8015(3) 0.30907(15) 0.60441(14)
H6B H 0.8378 0.2815 0.6185
C6B C 0.7140(3) 0.33011(16) 0.62939(15)
C7B C 0.6597(3) 0.37139(16) 0.60859(15)
H7B H 0.6003 0.3849 0.6251
C8B C 0.6943(3) 0.39236(15) 0.56310(15)
C9B C 0.7809(3) 0.37206(16) 0.53816(15)
H8B H 0.8043 0.3865 0.5078
C10B C 0.6307(4) 0.43501(16) 0.53847(16)
C11B C 0.6863(10) 0.5668(4) 0.3726(4)
H9B H 0.6462 0.5570 0.3425
H10B H 0.7606 0.5665 0.3620
O2B O 0.5897(3) 0.32737(14) 0.69716(13)
O2E O 0.5897(3) 0.17263(14) 0.19716(13)
O4B O 0.7138(2) 0.26619(11) 0.69414(10)
O4E O 0.7138(2) 0.23381(11) 0.19414(10)
O5B O 0.9147(2) 0.31112(12) 0.52835(11)
O6B O 0.6670(3) 0.45461(12) 0.49829(12)
O7B O 0.5451(3) 0.44715(12) 0.56008(13)
O7D O 0.4549(3) -0.05285(12) 0.56008(13)
O7F O 0.4549(3) 0.55285(12) 0.43992(13)
O8B O 0.6792(3) 0.52440(16) 0.40264(14)
C13B C 1.1123(3) 0.29465(15) 0.48269(15)
H11B H 1.0683 0.3238 0.4737
H12B H 1.1603 0.3047 0.5099
O9B O 1.1719(2) 0.27807(11) 0.43958(12)
C14B C 1.3777(3) 0.37778(15) 0.42339(15)
C15B C 1.2877(3) 0.35279(15) 0.44376(16)
H13B H 1.2512 0.3667 0.4713
C16B C 1.2541(3) 0.30722(15) 0.42230(15)
C17B C 1.3099(4) 0.28594(16) 0.38094(16)
H14B H 1.2871 0.2553 0.3667
C18B C 1.4192(3) 0.42528(16) 0.44908(17)
C19B C 1.3983(3) 0.31060(16) 0.36153(15)
C20B C 1.4319(3) 0.35682(15) 0.38207(15)
H15B H 1.4905 0.3737 0.3682
C21B C 1.4608(4) 0.28443(17) 0.31919(16)
O10B O 1.3741(3) 0.43866(10) 0.48937(12)
O10D O 0.6259(3) -0.06134(10) 0.48937(12)
O10F O 0.6259(3) 0.56134(10) 0.51063(12)
O11B O 1.5441(3) 0.30614(12) 0.30424(11)
O11B_2 O 0.5441(3) 0.30614(12) 0.30424(11)
O11G O 0.5441(3) 0.30614(12) 0.19576(11)
O12B O 1.4978(2) 0.44693(11) 0.42823(13)
O12_2 O 0.4978(2) 0.05307(11) 0.57177(13)
O12B_2 O 0.4978(2) 0.44693(11) 0.42823(13)
O13B O 1.4239(3) 0.24294(14) 0.30368(14)
O13B_2 O 0.4239(3) 0.24294(14) 0.30368(14)
O13G O 0.4239(3) 0.24294(14) 0.19632(14)
loop_
_geom_bond_atom_site_label_1
_geom_bond_atom_site_label_2
_geom_bond_site_symmetry_1
_geom_bond_site_symmetry_2
Zn1 O2 1_555 1_555
Zn2 O1 1_555 1_555
Zn3 O6 1_555 1_555
C1 C6 1_555 1_555
C2 H1 1_555 1_555
H2 C2 1_555 1_555
H3 C2 1_555 1_555
C3 H4 1_555 1_555
H5 C3 1_555 1_555
C4 C5 1_555 1_555
C5 H6 1_555 1_555
C6 C5 1_555 1_555
C7 C6 1_555 1_555
H7 C7 1_555 1_555
C8 C7 1_555 1_555
C9 C4 1_555 1_555
H8 C9 1_555 1_555
C10 C8 1_555 1_555
C11 C2 1_555 1_555
H9 C11 1_555 1_555
H10 C11 1_555 1_555
O2 C1 1_555 1_555
O3 Zn1 1_555 1_555
O4 Zn2 1_555 1_555
O5 C3 1_555 1_555
O6 C10 1_555 1_555
O7 C10 1_555 1_555
O8 Zn3 1_555 1_555
C12 C3 1_555 1_555
C13 C12 1_555 1_555
H11 C13 1_555 1_555
H12 C13 1_555 1_555
O9 C13 1_555 1_555
C14 C15 1_555 1_555
C15 H13 1_555 1_555
C16 O9 1_555 1_555
C17 C16 1_555 1_555
H14 C17 1_555 1_555
C18 C14 1_555 1_555
C19 C17 1_555 1_555
C20 C14 1_555 1_555
H15 C20 1_555 1_555
C21 C19 1_555 1_555
O10 C18 1_555 1_555
O11 C21 1_555 1_555
O12 C18 1_555 1_555
O13 C21 1_555 1_555
Zn1_2 O13B 1_555 1_555
Zn1B O13 1_555 1_555
Zn1B_2 O2B 1_555 1_555
Zn2_2 O11B 1_555 1_555
Zn2B O11 1_555 1_555
Zn2B_2 O4B 1_555 1_555
Zn3B O6B 1_555 1_555
Zn3_2 O12 1_555 1_555
Zn3B_2 O12B 1_555 1_555
Zn3D O7 1_555 1_555
Zn3D_2 O10 1_555 1_555
Zn3F O7B 1_555 1_555
Zn3F_2 O10B 1_555 1_555
C1B C6B 1_555 1_555
C2B H1B 1_555 1_555
H2B C2B 1_555 1_555
H3B C2B 1_555 1_555
C3B C12 1_555 1_555
H4B C3B 1_555 1_555
H5B C3B 1_555 1_555
C4B C5B 1_555 1_555
C5B H6B 1_555 1_555
C6B C5B 1_555 1_555
C7B C6B 1_555 1_555
H7B C7B 1_555 1_555
C8B C7B 1_555 1_555
C9B C4B 1_555 1_555
H8B C9B 1_555 1_555
C10B C8B 1_555 1_555
C11B C2B 1_555 1_555
H9B C11B 1_555 1_555
H10B C11B 1_555 1_555
O2B C1B 1_555 1_555
O2E Zn1 1_555 1_555
O4B C1B 1_555 1_555
O4E Zn2 1_555 1_555
O5B C3B 1_555 1_555
O6B C10B 1_555 1_555
O7B C10B 1_555 1_555
O7D Zn3 1_555 1_555
O7F Zn3B 1_555 1_555
O8B Zn3B 1_555 1_555
C13B C12 1_555 1_555
H11B C13B 1_555 1_555
H12B C13B 1_555 1_555
O9B C13B 1_555 1_555
C14B C15B 1_555 1_555
C15B H13B 1_555 1_555
C16B O9B 1_555 1_555
C17B C16B 1_555 1_555
H14B C17B 1_555 1_555
C18B C14B 1_555 1_555
C19B C17B 1_555 1_555
C20B C14B 1_555 1_555
H15B C20B 1_555 1_555
C21B C19B 1_555 1_555
O10B C18B 1_555 1_555
O10D Zn3 1_555 1_555
O10F Zn3B 1_555 1_555
O11B C21B 1_555 1_555
O11B_2 Zn2 1_555 1_555
O11G Zn2 1_555 1_555
O12B C18B 1_555 1_555
O12_2 Zn3 1_555 1_555
O12B_2 Zn3B 1_555 1_555
O13B C21B 1_555 1_555
O13B_2 Zn1 1_555 1_555
O13G Zn1 1_555 1_555
C1 O4 1_555 1_555
C4 O5 1_555 1_555
C8 C9 1_555 1_555
C11 O8 1_555 1_555
C15 C16 1_555 1_555
C19 C20 1_555 1_555
C4B O5B 1_555 1_555
C8B C9B 1_555 1_555
C11B O8B 1_555 1_555
C15B C16B 1_555 1_555
C19B C20B 1_555 1_555

#END
