
#######################################################################
#
#                 Cambridge Crystallographic Data Centre
#                                CCDC 
#
#######################################################################
#
# If this CIF has been generated from an entry in the Cambridge 
# Structural Database, then it will include bibliographic, chemical, 
# crystal, experimental, refinement or atomic coordinate data resulting 
# from the CCDC's data processing and validation procedures.
#
#######################################################################

data_WEHJUQ
_chemical_formula_moiety         'C222 H120 O194 Zn70'
_symmetry_cell_setting           tetragonal
_symmetry_space_group_name_H-M   'P -4 n 2'
_symmetry_Int_Tables_number      118
_space_group_name_Hall           'P -4 -2n'
loop_
_symmetry_equiv_pos_site_id
_symmetry_equiv_pos_as_xyz
1 x,y,z
2 -x,-y,z
3 1/2-y,1/2-x,1/2-z
4 1/2+y,1/2+x,1/2-z
5 1/2-x,1/2+y,1/2+z
6 1/2+x,1/2-y,1/2+z
7 -y,x,-z
8 y,-x,-z
_cell_length_a                   27.033(4)
_cell_length_b                   27.033(4)
_cell_length_c                   44.096(6)
_cell_angle_alpha                90
_cell_angle_beta                 90
_cell_angle_gamma                90
_cell_volume                     32224.6
loop_
_atom_site_label
_atom_site_type_symbol
_atom_site_fract_x
_atom_site_fract_y
_atom_site_fract_z
Zn1 Zn 0.26615(6) 0.40942(6) 0.83181(4)
Zn2 Zn 0.25239(6) 0.51212(6) 0.87784(3)
Zn3 Zn 0.28044(6) 0.42178(6) 0.67676(4)
Zn4 Zn 0.27591(6) 0.52904(5) 0.63490(3)
Zn5 Zn 0.02799(6) 0.26563(6) 1.06681(4)
Zn6 Zn -0.03583(7) 0.27822(6) 1.13318(4)
Zn7 Zn 0.49102(7) 0.23726(6) 0.86117(4)
Zn8 Zn 0.55488(6) 0.25575(6) 0.92519(4)
C1 C 0.2604(4) 0.7604(4) 0.7500
C2 C 0.2682(4) 0.7074(4) 0.7398(3)
H1 H 0.2471 0.7002 0.7226
H2 H 0.3023 0.7028 0.7336
C3 C 0.2620(5) 0.6311(7) 0.7596(4)
C4 C 0.2697(4) 0.6027(5) 0.7333(3)
H3 H 0.2752 0.6208 0.7157
C5 C 0.2704(4) 0.5545(5) 0.7298(3)
C6 C 0.2688(4) 0.5258(5) 0.7569(3)
H4 H 0.2705 0.4915 0.7558
C7 C 0.2647(4) 0.5487(5) 0.7850(3)
C8 C 0.2609(4) 0.5997(6) 0.7833(3)
H5 H 0.2568 0.6152 0.8020
C9 C 0.2647(5) 0.5185(7) 0.8118(4)
C10 C 0.2755(5) 0.5289(7) 0.6954(4)
C11 C 0.2946(5) 0.7745(5) 0.7738(3)
H6 H 0.2925 0.7494 0.7895
H7 H 0.3277 0.7727 0.7654
C12 C 0.3144(5) 0.8318(5) 0.8165(3)
C13 C 0.2946(5) 0.8741(5) 0.8298(3)
H8 H 0.2698 0.8919 0.8201
C14 C 0.3115(5) 0.8882(5) 0.8560(4)
C15 C 0.3395(6) 0.8530(5) 0.8727(3)
H9 H 0.3430 0.8556 0.8936
C16 C 0.3615(5) 0.8146(5) 0.8567(4)
C17 C 0.3464(5) 0.8010(5) 0.8282(3)
H10 H 0.3577 0.7729 0.8183
C18 C 0.4131(6) 0.7859(7) 0.8706(5)
C19 C 0.2905(8) 0.9303(7) 0.8766(6)
C20 C 0.5000 0.5000 1.0000
C21 C 0.4873(4) 0.4527(4) 0.9788(3)
H11 H 0.5152 0.4447 0.9658
H12 H 0.4796 0.4240 0.9911
C22 C 0.4359(5) 0.4358(5) 0.9408(3)
C23 C 0.4604(4) 0.3940(4) 0.9326(3)
H13 H 0.4881 0.3851 0.9439
C24 C 0.4471(5) 0.3646(5) 0.9091(3)
C25 C 0.4055(4) 0.3777(4) 0.8897(3)
H14 H 0.3978 0.3595 0.8725
C26 C 0.3785(5) 0.4175(5) 0.8980(3)
C27 C 0.3948(4) 0.4500(4) 0.9223(3)
H15 H 0.3787 0.4798 0.9257
C28 C 0.3314(7) 0.4260(7) 0.8772(5)
C29 C 0.4747(6) 0.3167(5) 0.9005(4)
C30 C -0.0000 0.5000 0.9687(3)
C31 C 0.0409(4) 0.4803(4) 0.9489(3)
H16 H 0.0541 0.5072 0.9368
H17 H 0.0673 0.4681 0.9617
C32 C 0.0618(5) 0.4187(5) 0.9090(3)
C33 C 0.0376(5) 0.3723(5) 0.8961(3)
H18 H 0.0061 0.3609 0.9008
C34 C 0.0702(5) 0.3502(5) 0.8763(3)
C35 C 0.1143(5) 0.3676(5) 0.8692(3)
H19 H 0.1333 0.3494 0.8556
C36 C 0.1337(5) 0.4099(5) 0.8802(3)
C37 C 0.1032(4) 0.4383(4) 0.9025(3)
H20 H 0.1137 0.4680 0.9110
C38 C 0.1790(6) 0.4346(5) 0.8737(3)
C39 C 0.0506(6) 0.3019(6) 0.8643(4)
C40 C -0.0181(4) 0.4565(4) 0.9856(3)
H21 H -0.0281 0.4304 0.9718
H22 H 0.0073 0.4438 0.9990
C41 C -0.0803(6) 0.4495(5) 1.0290(3)
C42 C -0.0531(5) 0.4070(5) 1.0398(3)
H23 H -0.0260 0.3938 1.0297
C43 C -0.1209(5) 0.4758(5) 1.0435(3)
H24 H -0.1353 0.5047 1.0361
C44 C -0.1351(5) 0.4519(5) 1.0699(3)
C45 C -0.1108(4) 0.4091(4) 1.0817(3)
H25 H -0.1227 0.3961 1.0998
C46 C -0.1763(6) 0.4752(7) 1.0822(4)
C47 C 0.5000 0.5000 0.5000
C48 C 0.4893(4) 0.4497(4) 0.5186(3)
H26 H 0.4791 0.4229 0.5053
H27 H 0.5178 0.4393 0.5304
C49 C 0.4344(5) 0.4361(5) 0.5600(3)
C50 C 0.4535(4) 0.3899(4) 0.5655(3)
H28 H 0.4784 0.3789 0.5526
C51 C 0.4394(4) 0.3594(4) 0.5877(3)
C52 C 0.4030(4) 0.3785(4) 0.6070(3)
H29 H 0.3925 0.3580 0.6227
C53 C 0.3814(4) 0.4237(5) 0.6052(3)
C54 C 0.3975(4) 0.4554(5) 0.5827(3)
H30 H 0.3858 0.4877 0.5816
C55 C 0.3431(5) 0.4464(6) 0.6254(3)
C56 C 0.4604(5) 0.3069(5) 0.5912(4)
C57 C -0.0728(5) 0.3863(5) 1.0690(3)
C58 C -0.0440(6) 0.3378(6) 1.0801(4)
O1 O 0.2695(3) 0.4731(4) 0.8076(2)
O2 O 0.2568(3) 0.5380(3) 0.8370(2)
O3 O 0.2820(3) 0.4832(4) 0.7008(2)
O4 O 0.2731(3) 0.5537(4) 0.6778(2)
O5 O 0.2576(3) 0.6771(4) 0.7624(2)
O6 O 0.2509(5) 0.5679(6) 0.9043(3)
O7 O 0.2757(4) 0.3547(5) 0.8054(3)
O8 O 0.2052(4) 0.4055(3) 0.8561(2)
O9 O 0.1959(3) 0.4723(3) 0.88437(18)
O10 O 0.3094(3) 0.4715(3) 0.88842(18)
O11 O 0.3181(4) 0.4049(4) 0.8592(3)
O12 O 0.4469(3) 0.4664(3) 0.9616(2)
O13 O 0.5086(4) 0.3100(3) 0.9193(2)
O14 O 0.4618(3) 0.2971(3) 0.8773(2)
O15 O 0.5759(4) 0.2491(4) 0.9707(3)
O16 O 0.4045(4) 0.7848(4) 0.8985(3)
O17 O 0.4400(4) 0.7675(4) 0.8552(2)
O18 O 0.4513(5) 0.2210(5) 0.8212(3)
O19 O -0.1842(3) 0.4640(3) 1.1104(2)
O20 O -0.2042(4) 0.5050(4) 1.0703(2)
O21 O -0.0609(3) 0.4750(3) 1.0030(2)
O22 O -0.0164(4) 0.3202(4) 1.0626(2)
O23 O -0.0593(4) 0.3295(4) 1.1056(3)
O24 O 0.2936(4) 0.9316(4) 0.9029(3)
O25 O 0.2771(4) 0.9638(4) 0.8578(2)
O26 O 0.0530(5) 0.2661(4) 1.0212(3)
O27 O -0.0754(5) 0.2730(5) 1.1727(3)
O28 O 0.4906(3) 0.2955(3) 0.5739(2)
O29 O 0.4468(3) 0.2850(3) 0.6146(2)
O30 O 0.2901(3) 0.8200(3) 0.7879(2)
O31 O 0.4475(3) 0.4675(3) 0.5385(2)
O32 O 0.3250(3) 0.4833(4) 0.6183(2)
O33 O 0.3324(3) 0.4166(3) 0.6470(2)
O34 O 0.2614(4) 0.5804(4) 0.6035(3)
O35 O 0.2867(5) 0.3653(5) 0.7033(3)
O36 O 0.0792(4) 0.2813(3) 0.8458(2)
O37 O 0.0087(3) 0.2864(4) 0.87263(18)
O38 O 0.0259(3) 0.4423(3) 0.92934(19)
Zn1C Zn -0.09058(6) 0.76615(6) 0.66819(4)
Zn1A Zn -0.26615(6) 0.59058(6) 0.83181(4)
Zn1A_2 Zn 0.73385(6) 0.59058(6) 0.83181(4)
Zn1F Zn 0.59058(6) 0.26615(6) 1.16819(4)
Zn1G Zn 0.40942(6) 0.73385(6) 1.16819(4)
Zn1B Zn 0.09058(6) 0.23385(6) 0.66819(4)
Zn1D Zn 0.23385(6) -0.09058(6) 1.33181(4)
Zn2C Zn 0.01212(6) 0.75239(6) 0.62216(3)
Zn2A Zn -0.25239(6) 0.48788(6) 0.87784(3)
Zn2A_2 Zn 0.74761(6) 0.48788(6) 0.87784(3)
Zn2F Zn 0.48788(6) 0.25239(6) 1.12216(3)
Zn2G Zn 0.51212(6) 0.74761(6) 1.12216(3)
Zn2B Zn -0.01212(6) 0.24761(6) 0.62216(3)
Zn2D Zn 0.24761(6) 0.01212(6) 1.37784(3)
Zn3C Zn -0.07822(6) 0.78044(6) 0.82324(4)
Zn3B Zn 0.07822(6) 0.21956(6) 0.82324(4)
Zn3F Zn 0.57822(6) 0.28044(6) 1.32324(4)
Zn3A Zn 0.71956(6) 0.57822(6) 0.67676(4)
Zn3F_2 Zn 0.57822(6) 0.28044(6) 0.32324(4)
Zn3G Zn 0.42178(6) 0.71956(6) 0.32324(4)
Zn3A_2 Zn -0.28044(6) 0.57822(6) 0.67676(4)
Zn3D Zn 0.21956(6) -0.07822(6) 1.17676(4)
Zn4C Zn 0.02904(5) 0.77591(6) 0.86510(3)
Zn4B Zn -0.02904(5) 0.22409(6) 0.86510(3)
Zn4F Zn 0.47096(5) 0.27591(6) 1.36510(3)
Zn4A Zn 0.72409(6) 0.47096(5) 0.63490(3)
Zn4F_2 Zn 0.47096(5) 0.27591(6) 0.36510(3)
Zn4G Zn 0.52904(5) 0.72409(6) 0.36510(3)
Zn4A_2 Zn -0.27591(6) 0.47096(5) 0.63490(3)
Zn4D Zn 0.22409(6) 0.02904(5) 1.13490(3)
Zn5A Zn -0.02799(6) 0.73437(6) 1.06681(4)
Zn5G Zn 0.26563(6) 0.97201(6) 0.93319(4)
Zn5D Zn 0.47201(6) 0.76563(6) 0.56681(4)
Zn5E Zn 0.52799(6) 0.23437(6) 0.56681(4)
Zn5C Zn 0.76563(6) 0.52799(6) 0.43319(4)
Zn5B Zn 0.23437(6) 0.47201(6) 0.43319(4)
Zn5C_2 Zn -0.23437(6) 0.52799(6) 0.43319(4)
Zn5B_2 Zn 0.23437(6) 0.47201(6) 1.43319(4)
Zn6A Zn 0.03583(7) 0.72178(6) 1.13318(4)
Zn6G Zn 0.27822(6) 1.03583(7) 0.86682(4)
Zn6D Zn 0.53583(7) 0.77822(6) 0.63318(4)
Zn6E Zn 0.46417(7) 0.22178(6) 0.63318(4)
Zn6C Zn 0.77822(6) 0.46417(7) 0.36682(4)
Zn6B Zn 0.22178(6) 0.53583(7) 0.36682(4)
Zn6C_2 Zn -0.22178(6) 0.46417(7) 0.36682(4)
Zn6B_2 Zn 0.22178(6) 0.53583(7) 1.36682(4)
Zn7A Zn 0.50898(7) 0.76274(6) 0.86117(4)
Zn7F Zn 0.76274(6) 0.49102(7) 1.13883(4)
Zn7G Zn 0.23726(6) 0.50898(7) 1.13883(4)
Zn7F_2 Zn -0.23726(6) 0.49102(7) 1.13883(4)
Zn7B Zn 0.26274(6) 1.00898(7) 0.63883(4)
Zn7D Zn 0.00898(7) 0.73726(6) 0.36117(4)
Zn7E Zn -0.00898(7) 0.26274(6) 0.36117(4)
Zn7E_2 Zn -0.00898(7) 0.26274(6) 1.36117(4)
Zn8A Zn 0.44512(6) 0.74425(6) 0.92519(4)
Zn8F Zn 0.74425(6) 0.55488(6) 1.07481(4)
Zn8G Zn 0.25575(6) 0.44512(6) 1.07481(4)
Zn8F_2 Zn -0.25575(6) 0.55488(6) 1.07481(4)
Zn8B Zn 0.24425(6) 0.94512(6) 0.57481(4)
Zn8D Zn -0.05488(6) 0.75575(6) 0.42519(4)
Zn8E Zn 0.05488(6) 0.24425(6) 0.42519(4)
Zn8E_2 Zn 0.05488(6) 0.24425(6) 1.42519(4)
C1D C 0.2396(4) 0.2604(4) 1.2500
C2C C 0.2074(4) 0.7682(4) 0.7602(3)
C2F C 0.2926(4) 0.2682(4) 1.2602(3)
C2D C 0.2318(4) 0.2074(4) 1.2398(3)
H1C H 0.2002 0.7471 0.7774
H1F H 0.2998 0.2471 1.2774
H1D H 0.2529 0.2002 1.2226
H2C H 0.2028 0.8023 0.7664
H2F H 0.2972 0.3023 1.2664
H2D H 0.1977 0.2028 1.2336
C3C C 0.1311(7) 0.7620(5) 0.7404(4)
C3F C 0.3689(7) 0.2620(5) 1.2404(4)
C3D C 0.2380(5) 0.1311(7) 1.2596(4)
C4C C 0.1027(5) 0.7697(4) 0.7667(3)
C4F C 0.3973(5) 0.2697(4) 1.2667(3)
C4D C 0.2303(4) 0.1027(5) 1.2333(3)
H3C H 0.1208 0.7752 0.7843
H3F H 0.3792 0.2752 1.2843
H3D H 0.2248 0.1208 1.2157
C5C C 0.0545(5) 0.7704(4) 0.7702(3)
C5F C 0.4455(5) 0.2704(4) 1.2702(3)
C5D C 0.2296(4) 0.0545(5) 1.2298(3)
C6C C 0.0258(5) 0.7688(4) 0.7431(3)
C6F C 0.4742(5) 0.2688(4) 1.2431(3)
C6D C 0.2312(4) 0.0258(5) 1.2569(3)
H4C H -0.0085 0.7705 0.7442
H4F H 0.5085 0.2705 1.2442
H4D H 0.2295 -0.0085 1.2558
C7C C 0.0487(5) 0.7647(4) 0.7150(3)
C7F C 0.4513(5) 0.2647(4) 1.2150(3)
C7D C 0.2353(4) 0.0487(5) 1.2850(3)
C8C C 0.0997(6) 0.7609(4) 0.7167(3)
C8F C 0.4003(6) 0.2609(4) 1.2167(3)
C8D C 0.2391(4) 0.0997(6) 1.2833(3)
H5C H 0.1152 0.7568 0.6980
H5F H 0.3848 0.2568 1.1980
H5D H 0.2432 0.1152 1.3020
C9C C 0.0185(7) 0.7647(5) 0.6882(4)
C9F C 0.4815(7) 0.2647(5) 1.1882(4)
C9D C 0.2353(5) 0.0185(7) 1.3118(4)
C10C C 0.0289(7) 0.7755(5) 0.8046(4)
C10F C 0.4711(7) 0.2755(5) 1.3046(4)
C10D C 0.2245(5) 0.0289(7) 1.1954(4)
C11C C 0.2745(5) 0.7946(5) 0.7262(3)
C11F C 0.2255(5) 0.2946(5) 1.2262(3)
C11D C 0.2054(5) 0.2745(5) 1.2738(3)
H6C H 0.2494 0.7925 0.7105
H6F H 0.2506 0.2925 1.2105
H6D H 0.2075 0.2494 1.2895
H7C H 0.2727 0.8277 0.7346
H7F H 0.2273 0.3277 1.2346
H7D H 0.1723 0.2727 1.2654
C12C C 0.3318(5) 0.8144(5) 0.6835(3)
C12F C 0.1682(5) 0.3144(5) 1.1835(3)
C12D C 0.1856(5) 0.3318(5) 1.3165(3)
C13C C 0.3741(5) 0.7946(5) 0.6702(3)
C13F C 0.1259(5) 0.2946(5) 1.1702(3)
C13D C 0.2054(5) 0.3741(5) 1.3298(3)
H8C H 0.3919 0.7698 0.6799
H8F H 0.1081 0.2698 1.1799
H8D H 0.2302 0.3919 1.3201
C14C C 0.3882(5) 0.8115(5) 0.6440(4)
C14F C 0.1118(5) 0.3115(5) 1.1440(4)
C14D C 0.1885(5) 0.3882(5) 1.3560(4)
C15C C 0.3530(5) 0.8395(6) 0.6273(3)
C15F C 0.1470(5) 0.3395(6) 1.1273(3)
C15D C 0.1605(6) 0.3530(5) 1.3727(3)
H9C H 0.3556 0.8430 0.6064
H9F H 0.1444 0.3430 1.1064
H9D H 0.1570 0.3556 1.3936
C16C C 0.3146(5) 0.8615(5) 0.6433(4)
C16F C 0.1854(5) 0.3615(5) 1.1433(4)
C16D C 0.1385(5) 0.3146(5) 1.3567(4)
C17C C 0.3010(5) 0.8464(5) 0.6718(3)
C17F C 0.1990(5) 0.3464(5) 1.1718(3)
C17D C 0.1536(5) 0.3010(5) 1.3282(3)
H10C H 0.2729 0.8577 0.6817
H10F H 0.2271 0.3577 1.1817
H10D H 0.1423 0.2729 1.3183
C18C C 0.2859(7) 0.9131(6) 0.6294(5)
C18F C 0.2141(7) 0.4131(6) 1.1294(5)
C18D C 0.0869(6) 0.2859(7) 1.3706(5)
C19C C 0.4303(7) 0.7905(8) 0.6234(6)
C19F C 0.0697(7) 0.2905(8) 1.1234(6)
C19D C 0.2095(8) 0.4303(7) 1.3766(6)
C21A C 0.5127(4) 0.5473(4) 0.9788(3)
C21F C 0.5473(4) 0.4873(4) 1.0212(3)
C21G C 0.4527(4) 0.5127(4) 1.0212(3)
H11A H 0.4848 0.5553 0.9658
H11F H 0.5553 0.5152 1.0342
H11G H 0.4447 0.4848 1.0342
H12A H 0.5204 0.5760 0.9911
H12F H 0.5760 0.4796 1.0089
H12G H 0.4240 0.5204 1.0089
C22A C 0.5641(5) 0.5642(5) 0.9408(3)
C22F C 0.5642(5) 0.4359(5) 1.0592(3)
C22G C 0.4358(5) 0.5641(5) 1.0592(3)
C23A C 0.5396(4) 0.6060(4) 0.9326(3)
C23F C 0.6060(4) 0.4604(4) 1.0674(3)
C23G C 0.3940(4) 0.5396(4) 1.0674(3)
H13A H 0.5119 0.6149 0.9439
H13F H 0.6149 0.4881 1.0561
H13G H 0.3851 0.5119 1.0561
C24A C 0.5529(5) 0.6354(5) 0.9091(3)
C24F C 0.6354(5) 0.4471(5) 1.0909(3)
C24G C 0.3646(5) 0.5529(5) 1.0909(3)
C25A C 0.5945(4) 0.6223(4) 0.8897(3)
C25F C 0.6223(4) 0.4055(4) 1.1103(3)
C25G C 0.3777(4) 0.5945(4) 1.1103(3)
H14A H 0.6022 0.6405 0.8725
H14F H 0.6405 0.3978 1.1275
H14G H 0.3595 0.6022 1.1275
C26A C 0.6215(5) 0.5825(5) 0.8980(3)
C26F C 0.5825(5) 0.3785(5) 1.1020(3)
C26G C 0.4175(5) 0.6215(5) 1.1020(3)
C27A C 0.6052(4) 0.5500(4) 0.9223(3)
C27F C 0.5500(4) 0.3948(4) 1.0777(3)
C27G C 0.4500(4) 0.6052(4) 1.0777(3)
H15A H 0.6213 0.5202 0.9257
H15F H 0.5202 0.3787 1.0743
H15G H 0.4798 0.6213 1.0743
C28A C 0.6686(7) 0.5740(7) 0.8772(5)
C28F C 0.5740(7) 0.3314(7) 1.1228(5)
C28G C 0.4260(7) 0.6686(7) 1.1228(5)
C29A C 0.5253(6) 0.6833(5) 0.9005(4)
C29F C 0.6833(5) 0.4747(6) 1.0995(4)
C29G C 0.3167(5) 0.5253(6) 1.0995(4)
C30B C 0.0000 0.5000 0.5313(3)
C31A C -0.0409(4) 0.5197(4) 0.9489(3)
C31B C 0.0197(4) 0.4591(4) 0.5511(3)
C31C C -0.0197(4) 0.5409(4) 0.5511(3)
H16A H -0.0541 0.4928 0.9368
H16B H -0.0072 0.4459 0.5632
H16C H 0.0072 0.5541 0.5632
H17A H -0.0673 0.5319 0.9617
H17B H 0.0319 0.4327 0.5383
H17C H -0.0319 0.5673 0.5383
C32A C -0.0618(5) 0.5813(5) 0.9090(3)
C32B C 0.0813(5) 0.4382(5) 0.5910(3)
C32C C -0.0813(5) 0.5618(5) 0.5910(3)
C33A C -0.0376(5) 0.6277(5) 0.8961(3)
C33B C 0.1277(5) 0.4624(5) 0.6039(3)
C33C C -0.1277(5) 0.5376(5) 0.6039(3)
H18A H -0.0061 0.6391 0.9008
H18B H 0.1391 0.4939 0.5992
H18C H -0.1391 0.5061 0.5992
C34A C -0.0702(5) 0.6498(5) 0.8763(3)
C34B C 0.1498(5) 0.4298(5) 0.6237(3)
C34C C -0.1498(5) 0.5702(5) 0.6237(3)
C35A C -0.1143(5) 0.6324(5) 0.8692(3)
C35B C 0.1324(5) 0.3857(5) 0.6308(3)
C35C C -0.1324(5) 0.6143(5) 0.6308(3)
H19A H -0.1333 0.6506 0.8556
H19B H 0.1506 0.3667 0.6444
H19C H -0.1506 0.6333 0.6444
C36A C -0.1337(5) 0.5901(5) 0.8802(3)
C36B C 0.0901(5) 0.3663(5) 0.6198(3)
C36C C -0.0901(5) 0.6337(5) 0.6198(3)
C37A C -0.1032(4) 0.5617(4) 0.9025(3)
C37B C 0.0617(4) 0.3968(4) 0.5975(3)
C37C C -0.0617(4) 0.6032(4) 0.5975(3)
H20A H -0.1137 0.5320 0.9110
H20B H 0.0320 0.3863 0.5890
H20C H -0.0320 0.6137 0.5890
C38A C -0.1790(6) 0.5654(5) 0.8737(3)
C38B C 0.0654(5) 0.3210(6) 0.6263(3)
C38C C -0.0654(5) 0.6790(6) 0.6263(3)
C39A C -0.0506(6) 0.6981(6) 0.8643(4)
C39B C 0.1981(6) 0.4494(6) 0.6357(4)
C39C C -0.1981(6) 0.5506(6) 0.6357(4)
C40A C 0.0181(4) 0.5435(4) 0.9856(3)
C40B C 0.0435(4) 0.5181(4) 0.5144(3)
C40C C -0.0435(4) 0.4819(4) 0.5144(3)
H21A H 0.0281 0.5696 0.9718
H21B H 0.0696 0.5281 0.5282
H21C H -0.0696 0.4719 0.5282
H22A H -0.0073 0.5562 0.9990
H22B H 0.0562 0.4927 0.5010
H22C H -0.0562 0.5073 0.5010
C41A C 0.0803(6) 0.5505(5) 1.0290(3)
C41B C 0.0505(5) 0.5803(6) 0.4710(3)
C41C C -0.0505(5) 0.4197(6) 0.4710(3)
C42A C 0.0531(5) 0.5930(5) 1.0398(3)
C42B C 0.0930(5) 0.5531(5) 0.4602(3)
C42C C -0.0930(5) 0.4469(5) 0.4602(3)
H23A H 0.0260 0.6062 1.0297
H23B H 0.1062 0.5260 0.4703
H23C H -0.1062 0.4740 0.4703
C43A C 0.1209(5) 0.5242(5) 1.0435(3)
C43B C 0.0242(5) 0.6209(5) 0.4565(3)
C43C C -0.0242(5) 0.3791(5) 0.4565(3)
H24A H 0.1353 0.4953 1.0361
H24B H -0.0047 0.6353 0.4639
H24C H 0.0047 0.3647 0.4639
C44A C 0.1351(5) 0.5481(5) 1.0699(3)
C44B C 0.0481(5) 0.6351(5) 0.4301(3)
C44C C -0.0481(5) 0.3649(5) 0.4301(3)
C45A C 0.1108(4) 0.5909(4) 1.0817(3)
C45B C 0.0909(4) 0.6108(4) 0.4183(3)
C45C C -0.0909(4) 0.3892(4) 0.4183(3)
H25A H 0.1227 0.6039 1.0998
H25B H 0.1039 0.6227 0.4002
H25C H -0.1039 0.3773 0.4002
C46A C 0.1763(6) 0.5248(7) 1.0822(4)
C46B C 0.0248(7) 0.6763(6) 0.4178(4)
C46C C -0.0248(7) 0.3237(6) 0.4178(4)
C48A C 0.5107(4) 0.5503(4) 0.5186(3)
C48F C 0.5503(4) 0.4893(4) 0.4814(3)
C48G C 0.4497(4) 0.5107(4) 0.4814(3)
H26A H 0.5209 0.5771 0.5053
H26F H 0.5771 0.4791 0.4947
H26G H 0.4229 0.5209 0.4947
H27A H 0.4822 0.5607 0.5304
H27F H 0.5607 0.5178 0.4696
H27G H 0.4393 0.4822 0.4696
C49A C 0.5656(5) 0.5639(5) 0.5600(3)
C49F C 0.5639(5) 0.4344(5) 0.4400(3)
C49G C 0.4361(5) 0.5656(5) 0.4400(3)
C50A C 0.5465(4) 0.6101(4) 0.5655(3)
C50F C 0.6101(4) 0.4535(4) 0.4345(3)
C50G C 0.3899(4) 0.5465(4) 0.4345(3)
H28A H 0.5216 0.6211 0.5526
H28F H 0.6211 0.4784 0.4474
H28G H 0.3789 0.5216 0.4474
C51A C 0.5606(4) 0.6406(4) 0.5877(3)
C51F C 0.6406(4) 0.4394(4) 0.4123(3)
C51G C 0.3594(4) 0.5606(4) 0.4123(3)
C52A C 0.5970(4) 0.6215(4) 0.6070(3)
C52F C 0.6215(4) 0.4030(4) 0.3930(3)
C52G C 0.3785(4) 0.5970(4) 0.3930(3)
H29A H 0.6075 0.6420 0.6227
H29F H 0.6420 0.3925 0.3773
H29G H 0.3580 0.6075 0.3773
C53A C 0.6186(4) 0.5763(5) 0.6052(3)
C53F C 0.5763(5) 0.3814(4) 0.3948(3)
C53G C 0.4237(5) 0.6186(4) 0.3948(3)
C54A C 0.6025(4) 0.5446(5) 0.5827(3)
C54F C 0.5446(5) 0.3975(4) 0.4173(3)
C54G C 0.4554(5) 0.6025(4) 0.4173(3)
H30A H 0.6142 0.5123 0.5816
H30F H 0.5123 0.3858 0.4184
H30G H 0.4877 0.6142 0.4184
C55A C 0.6569(5) 0.5536(6) 0.6254(3)
C55F C 0.5536(6) 0.3431(5) 0.3746(3)
C55G C 0.4464(6) 0.6569(5) 0.3746(3)
C56A C 0.5396(5) 0.6931(5) 0.5912(4)
C56F C 0.6931(5) 0.4604(5) 0.4088(4)
C56G C 0.3069(5) 0.5396(5) 0.4088(4)
C57A C 0.0728(5) 0.6137(5) 1.0690(3)
C57B C 0.1137(5) 0.5728(5) 0.4310(3)
C57C C -0.1137(5) 0.4272(5) 0.4310(3)
C58A C 0.0440(6) 0.6622(6) 1.0801(4)
C58B C 0.1622(6) 0.5440(6) 0.4199(4)
C58C C -0.1622(6) 0.4560(6) 0.4199(4)
O1C O -0.0269(4) 0.7695(3) 0.6924(2)
O1F O 0.5269(4) 0.2695(3) 1.1924(2)
O1D O 0.2305(3) -0.0269(4) 1.3076(2)
O1A O -0.2695(3) 0.5269(4) 0.8076(2)
O1A_2 O 0.7305(3) 0.5269(4) 0.8076(2)
O2C O 0.0380(3) 0.7568(3) 0.6630(2)
O2F O 0.4620(3) 0.2568(3) 1.1630(2)
O2D O 0.2432(3) 0.0380(3) 1.3370(2)
O2A O -0.2568(3) 0.4620(3) 0.8370(2)
O2A_2 O 0.7432(3) 0.4620(3) 0.8370(2)
O3C O -0.0168(4) 0.7820(3) 0.7992(2)
O3F O 0.5168(4) 0.2820(3) 1.2992(2)
O3D O 0.2180(3) -0.0168(4) 1.2008(2)
O3B O 0.0168(4) 0.2180(3) 0.7992(2)
O4C O 0.0537(4) 0.7731(3) 0.8222(2)
O4F O 0.4463(4) 0.2731(3) 1.3222(2)
O4D O 0.2269(3) 0.0537(4) 1.1778(2)
O4B O -0.0537(4) 0.2269(3) 0.8222(2)
O5C O 0.1771(4) 0.7576(3) 0.7376(2)
O5F O 0.3229(4) 0.2576(3) 1.2376(2)
O5D O 0.2424(3) 0.1771(4) 1.2624(2)
O6C O 0.0679(6) 0.7509(5) 0.5957(3)
O6A O -0.2509(5) 0.4321(6) 0.9043(3)
O6A_2 O 0.7491(5) 0.4321(6) 0.9043(3)
O7C O -0.1453(5) 0.7757(4) 0.6946(3)
O7A O -0.2757(4) 0.6453(5) 0.8054(3)
O7A_2 O 0.7243(4) 0.6453(5) 0.8054(3)
O8A O -0.2052(4) 0.5945(3) 0.8561(2)
O8B O 0.0945(3) 0.2948(4) 0.6439(2)
O8C O -0.0945(3) 0.7052(4) 0.6439(2)
O8A_2 O 0.7948(4) 0.5945(3) 0.8561(2)
O9A O -0.1959(3) 0.5277(3) 0.88437(18)
O9B O 0.0277(3) 0.3041(3) 0.61563(18)
O9C O -0.0277(3) 0.6959(3) 0.61563(18)
O9A_2 O 0.8041(3) 0.5277(3) 0.88437(18)
O10A O 0.6906(3) 0.5285(3) 0.88842(18)
O10F O 0.5285(3) 0.3094(3) 1.11158(18)
O10G O 0.4715(3) 0.6906(3) 1.11158(18)
O10C O -0.0285(3) 0.8094(3) 0.61158(18)
O10A_2 O -0.3094(3) 0.5285(3) 0.88842(18)
O11A O 0.6819(4) 0.5951(4) 0.8592(3)
O11F O 0.5951(4) 0.3181(4) 1.1408(3)
O11G O 0.4049(4) 0.6819(4) 1.1408(3)
O11C O -0.0951(4) 0.8181(4) 0.6408(3)
O11A_2 O -0.3181(4) 0.5951(4) 0.8592(3)
O12A O 0.5531(3) 0.5336(3) 0.9616(2)
O12F O 0.5336(3) 0.4469(3) 1.0384(2)
O12G O 0.4664(3) 0.5531(3) 1.0384(2)
O13A O 0.4914(4) 0.6900(3) 0.9193(2)
O13F O 0.6900(3) 0.5086(4) 1.0807(2)
O13G O 0.3100(3) 0.4914(4) 1.0807(2)
O14A O 0.5382(3) 0.7029(3) 0.8773(2)
O14F O 0.7029(3) 0.4618(3) 1.1227(2)
O14G O 0.2971(3) 0.5382(3) 1.1227(2)
O15A O 0.4241(4) 0.7509(4) 0.9707(3)
O15F O 0.7509(4) 0.5759(4) 1.0293(3)
O15G O 0.2491(4) 0.4241(4) 1.0293(3)
O16C O 0.2848(4) 0.9045(4) 0.6015(3)
O16F O 0.2152(4) 0.4045(4) 1.1015(3)
O16D O 0.0955(4) 0.2848(4) 1.3985(3)
O16A O 0.5955(4) 0.2152(4) 0.8985(3)
O16G O 0.7848(4) 0.5955(4) 1.1015(3)
O17C O 0.2675(4) 0.9400(4) 0.6448(2)
O17F O 0.2325(4) 0.4400(4) 1.1448(2)
O17D O 0.0600(4) 0.2675(4) 1.3552(2)
O17A O 0.5600(4) 0.2325(4) 0.8552(2)
O17G O 0.7675(4) 0.5600(4) 1.1448(2)
O18A O 0.5487(5) 0.7790(5) 0.8212(3)
O18F O 0.7790(5) 0.4513(5) 1.1788(3)
O18G O 0.2210(5) 0.5487(5) 1.1788(3)
O19A O 0.1842(3) 0.5360(3) 1.1104(2)
O19B O 0.0360(3) 0.6842(3) 0.3896(2)
O19C O -0.0360(3) 0.3158(3) 0.3896(2)
O19G O 0.4640(3) 0.1842(3) 0.8896(2)
O19F O 0.5360(3) 0.8158(3) 0.8896(2)
O19_2 O 0.8158(3) 0.4640(3) 1.1104(2)
O20A O 0.2042(4) 0.4950(4) 1.0703(2)
O20B O -0.0050(4) 0.7042(4) 0.4297(2)
O20C O 0.0050(4) 0.2958(4) 0.4297(2)
O20G O 0.5050(4) 0.2042(4) 0.9297(2)
O20F O 0.4950(4) 0.7958(4) 0.9297(2)
O20_2 O 0.7958(4) 0.5050(4) 1.0703(2)
O21A O 0.0609(3) 0.5250(3) 1.0030(2)
O21B O 0.0250(3) 0.5609(3) 0.4970(2)
O21C O -0.0250(3) 0.4391(3) 0.4970(2)
O22A O 0.0164(4) 0.6798(4) 1.0626(2)
O22B O 0.1798(4) 0.5164(4) 0.4374(2)
O22C O -0.1798(4) 0.4836(4) 0.4374(2)
O22G O 0.3202(4) 1.0164(4) 0.9374(2)
O22D O 0.5164(4) 0.8202(4) 0.5626(2)
O23A O 0.0593(4) 0.6705(4) 1.1056(3)
O23B O 0.1705(4) 0.5593(4) 0.3944(3)
O23C O -0.1705(4) 0.4407(4) 0.3944(3)
O23G O 0.3295(4) 1.0593(4) 0.8944(3)
O23D O 0.5593(4) 0.8295(4) 0.6056(3)
O24C O 0.4316(4) 0.7936(4) 0.5971(3)
O24F O 0.0684(4) 0.2936(4) 1.0971(3)
O24D O 0.2064(4) 0.4316(4) 1.4029(3)
O24G O -0.0684(4) 0.7064(4) 1.0971(3)
O25C O 0.4638(4) 0.7771(4) 0.6422(2)
O25F O 0.0362(4) 0.2771(4) 1.1422(2)
O25D O 0.2229(4) 0.4638(4) 1.3578(2)
O25G O -0.0362(4) 0.7229(4) 1.1422(2)
O26A O -0.0530(5) 0.7339(4) 1.0212(3)
O26G O 0.2661(4) 0.9470(5) 0.9788(3)
O26D O 0.4470(5) 0.7661(4) 0.5212(3)
O27A O 0.0754(5) 0.7270(5) 1.1727(3)
O27G O 0.2730(5) 1.0754(5) 0.8273(3)
O27D O 0.5754(5) 0.7730(5) 0.6727(3)
O28A O 0.5094(3) 0.7045(3) 0.5739(2)
O28F O 0.7045(3) 0.4906(3) 0.4261(2)
O28G O 0.2955(3) 0.5094(3) 0.4261(2)
O28E O -0.0094(3) 0.2045(3) 1.0739(2)
O28D O 0.0094(3) 0.7955(3) 1.0739(2)
O28B O 0.2045(3) 1.0094(3) 0.9261(2)
O29A O 0.5532(3) 0.7150(3) 0.6146(2)
O29F O 0.7150(3) 0.4468(3) 0.3854(2)
O29G O 0.2850(3) 0.5532(3) 0.3854(2)
O29E O -0.0532(3) 0.2150(3) 1.1146(2)
O29D O 0.0532(3) 0.7850(3) 1.1146(2)
O29B O 0.2150(3) 1.0532(3) 0.8854(2)
O30C O 0.3200(3) 0.7901(3) 0.7121(2)
O30F O 0.1800(3) 0.2901(3) 1.2121(2)
O30D O 0.2099(3) 0.3200(3) 1.2879(2)
O31A O 0.5525(3) 0.5325(3) 0.5385(2)
O31F O 0.5325(3) 0.4475(3) 0.4615(2)
O31G O 0.4675(3) 0.5525(3) 0.4615(2)
O32A O 0.6750(3) 0.5167(4) 0.6183(2)
O32F O 0.5167(4) 0.3250(3) 0.3817(2)
O32G O 0.4833(4) 0.6750(3) 0.3817(2)
O32C O -0.0167(4) 0.8250(3) 0.8817(2)
O32B O 0.0167(4) 0.1750(3) 0.8817(2)
O32F_2 O 0.5167(4) 0.3250(3) 1.3817(2)
O33A O 0.6676(3) 0.5834(3) 0.6470(2)
O33F O 0.5834(3) 0.3324(3) 0.3530(2)
O33G O 0.4166(3) 0.6676(3) 0.3530(2)
O33C O -0.0834(3) 0.8324(3) 0.8530(2)
O33B O 0.0834(3) 0.1676(3) 0.8530(2)
O33F_2 O 0.5834(3) 0.3324(3) 1.3530(2)
O34C O 0.0804(4) 0.7614(4) 0.8965(3)
O34B O -0.0804(4) 0.2386(4) 0.8965(3)
O34F O 0.4196(4) 0.2614(4) 1.3965(3)
O35C O -0.1347(5) 0.7867(5) 0.7967(3)
O35B O 0.1347(5) 0.2133(5) 0.7967(3)
O35F O 0.6347(5) 0.2867(5) 1.2967(3)
O36A O -0.0792(4) 0.7187(3) 0.8458(2)
O36B O 0.2187(3) 0.4208(4) 0.6542(2)
O36C O -0.2187(3) 0.5792(4) 0.6542(2)
O36E O 0.5792(4) 0.2187(3) 1.3458(2)
O37A O -0.0087(3) 0.7136(4) 0.87263(18)
O37B O 0.2136(4) 0.4913(3) 0.62737(18)
O37C O -0.2136(4) 0.5087(3) 0.62737(18)
O37E O 0.5087(3) 0.2136(4) 1.37263(18)
O38A O -0.0259(3) 0.5577(3) 0.92934(19)
O38B O 0.0577(3) 0.4741(3) 0.57066(19)
O38C O -0.0577(3) 0.5259(3) 0.57066(19)
loop_
_geom_bond_atom_site_label_1
_geom_bond_atom_site_label_2
_geom_bond_site_symmetry_1
_geom_bond_site_symmetry_2
Zn1 O1 1_555 1_555
Zn2 O2 1_555 1_555
Zn3 O3 1_555 1_555
Zn4 O4 1_555 1_555
Zn5 O22 1_555 1_555
Zn6 O23 1_555 1_555
Zn7 O14 1_555 1_555
Zn8 O13 1_555 1_555
C1 C2 1_555 1_555
C2 H1 1_555 1_555
H2 C2 1_555 1_555
C3 C4 1_555 1_555
C4 H3 1_555 1_555
C5 C4 1_555 1_555
C6 C5 1_555 1_555
H4 C6 1_555 1_555
C7 C6 1_555 1_555
C8 C3 1_555 1_555
H5 C8 1_555 1_555
C9 C7 1_555 1_555
C10 C5 1_555 1_555
C11 C1 1_555 1_555
H6 C11 1_555 1_555
H7 C11 1_555 1_555
C12 C13 1_555 1_555
C13 H8 1_555 1_555
C14 C13 1_555 1_555
C15 C14 1_555 1_555
H9 C15 1_555 1_555
C16 C15 1_555 1_555
C17 C12 1_555 1_555
H10 C17 1_555 1_555
C18 C16 1_555 1_555
C19 C14 1_555 1_555
C20 C21 1_555 1_555
C21 H11 1_555 1_555
H12 C21 1_555 1_555
C22 C23 1_555 1_555
C23 H13 1_555 1_555
C24 C23 1_555 1_555
C25 C24 1_555 1_555
H14 C25 1_555 1_555
C26 C25 1_555 1_555
C27 C22 1_555 1_555
H15 C27 1_555 1_555
C28 C26 1_555 1_555
C29 C24 1_555 1_555
C30 C31 1_555 1_555
C31 H16 1_555 1_555
H17 C31 1_555 1_555
C32 C33 1_555 1_555
C33 H18 1_555 1_555
C34 C33 1_555 1_555
C35 C34 1_555 1_555
H19 C35 1_555 1_555
C36 C35 1_555 1_555
C37 C32 1_555 1_555
H20 C37 1_555 1_555
C38 C36 1_555 1_555
C39 C34 1_555 1_555
C40 C30 1_555 1_555
H21 C40 1_555 1_555
H22 C40 1_555 1_555
C41 C42 1_555 1_555
C42 H23 1_555 1_555
C43 C41 1_555 1_555
H24 C43 1_555 1_555
C44 C43 1_555 1_555
C45 C44 1_555 1_555
H25 C45 1_555 1_555
C46 C44 1_555 1_555
C47 C48 1_555 1_555
C48 H26 1_555 1_555
H27 C48 1_555 1_555
C49 C50 1_555 1_555
C50 H28 1_555 1_555
C51 C50 1_555 1_555
C52 C51 1_555 1_555
H29 C52 1_555 1_555
C53 C52 1_555 1_555
C54 C49 1_555 1_555
H30 C54 1_555 1_555
C55 C53 1_555 1_555
C56 C51 1_555 1_555
C57 C42 1_555 1_555
C58 C57 1_555 1_555
O1 C9 1_555 1_555
O2 C9 1_555 1_555
O3 C10 1_555 1_555
O4 C10 1_555 1_555
O5 C2 1_555 1_555
O6 Zn2 1_555 1_555
O7 Zn1 1_555 1_555
O8 Zn1 1_555 1_555
O9 Zn2 1_555 1_555
O10 Zn2 1_555 1_555
O11 Zn1 1_555 1_555
O12 C21 1_555 1_555
O13 C29 1_555 1_555
O14 C29 1_555 1_555
O15 Zn8 1_555 1_555
O16 C18 1_555 1_555
O17 C18 1_555 1_555
O18 Zn7 1_555 1_555
O19 C46 1_555 1_555
O20 C46 1_555 1_555
O21 C40 1_555 1_555
O22 C58 1_555 1_555
O23 C58 1_555 1_555
O24 C19 1_555 1_555
O25 C19 1_555 1_555
O26 Zn5 1_555 1_555
O27 Zn6 1_555 1_555
O28 C56 1_555 1_555
O29 C56 1_555 1_555
O30 C11 1_555 1_555
O31 C48 1_555 1_555
O32 Zn4 1_555 1_555
O33 Zn3 1_555 1_555
O34 Zn4 1_555 1_555
O35 Zn3 1_555 1_555
O36 C39 1_555 1_555
O37 C39 1_555 1_555
O38 C31 1_555 1_555
Zn1C O1C 1_555 1_555
Zn1A O1A 1_555 1_555
Zn1A_2 O1A_2 1_555 1_555
Zn1F O1F 1_555 1_555
Zn1G O11G 1_555 1_555
Zn1B O8B 1_555 1_555
Zn1D O1D 1_555 1_555
Zn2C O2C 1_555 1_555
Zn2A O2A 1_555 1_555
Zn2A_2 O2A_2 1_555 1_555
Zn2F O2F 1_555 1_555
Zn2G O10G 1_555 1_555
Zn2B O9B 1_555 1_555
Zn2D O2D 1_555 1_555
Zn3C O3C 1_555 1_555
Zn3B O36 1_555 1_555
Zn3F O3F 1_555 1_555
Zn3A O33A 1_555 1_555
Zn3F_2 O33F 1_555 1_555
Zn3G O33G 1_555 1_555
Zn3A_2 O36C 1_555 1_555
Zn3D O3D 1_555 1_555
Zn4C O4C 1_555 1_555
Zn4B O37 1_555 1_555
Zn4F O4F 1_555 1_555
Zn4A O32A 1_555 1_555
Zn4F_2 O32F 1_555 1_555
Zn4G O32G 1_555 1_555
Zn4A_2 O37C 1_555 1_555
Zn4D O4D 1_555 1_555
Zn5A O22A 1_555 1_555
Zn5G O24 1_555 1_555
Zn5D O22D 1_555 1_555
Zn5E O28 1_555 1_555
Zn5C O28F 1_555 1_555
Zn5B O22B 1_555 1_555
Zn5C_2 O22C 1_555 1_555
Zn5B_2 O24D 1_555 1_555
Zn6A O23A 1_555 1_555
Zn6G O25 1_555 1_555
Zn6D O23D 1_555 1_555
Zn6E O29 1_555 1_555
Zn6C O29F 1_555 1_555
Zn6B O23B 1_555 1_555
Zn6C_2 O23C 1_555 1_555
Zn6B_2 O25D 1_555 1_555
Zn7A O17 1_555 1_555
Zn7F O14F 1_555 1_555
Zn7G O14G 1_555 1_555
Zn7F_2 O19 1_555 1_555
Zn7B O17C 1_555 1_555
Zn7D O19B 1_555 1_555
Zn7E O19C 1_555 1_555
Zn7E_2 O17D 1_555 1_555
Zn8A O16 1_555 1_555
Zn8F O13F 1_555 1_555
Zn8G O13G 1_555 1_555
Zn8F_2 O20 1_555 1_555
Zn8B O16C 1_555 1_555
Zn8D O20B 1_555 1_555
Zn8E O20C 1_555 1_555
Zn8E_2 O16D 1_555 1_555
C1D C2F 1_555 1_555
C2C C1 1_555 1_555
C2F H1F 1_555 1_555
C2D C1D 1_555 1_555
H1C C2C 1_555 1_555
H1D C2D 1_555 1_555
H2C C2C 1_555 1_555
H2F C2F 1_555 1_555
H2D C2D 1_555 1_555
C3C C4C 1_555 1_555
C3F C4F 1_555 1_555
C3D C4D 1_555 1_555
C4C H3C 1_555 1_555
C4F H3F 1_555 1_555
C4D H3D 1_555 1_555
C5C C4C 1_555 1_555
C5F C4F 1_555 1_555
C5D C4D 1_555 1_555
C6C C5C 1_555 1_555
C6F C5F 1_555 1_555
C6D C5D 1_555 1_555
H4C C6C 1_555 1_555
H4F C6F 1_555 1_555
H4D C6D 1_555 1_555
C7C C6C 1_555 1_555
C7F C6F 1_555 1_555
C7D C6D 1_555 1_555
C8C C3C 1_555 1_555
C8F C3F 1_555 1_555
C8D C3D 1_555 1_555
H5C C8C 1_555 1_555
H5F C8F 1_555 1_555
H5D C8D 1_555 1_555
C9C C7C 1_555 1_555
C9F C7F 1_555 1_555
C9D C7D 1_555 1_555
C10C C5C 1_555 1_555
C10F C5F 1_555 1_555
C10D C5D 1_555 1_555
C11C C1 1_555 1_555
C11F C1D 1_555 1_555
C11D C1D 1_555 1_555
H6C C11C 1_555 1_555
H6F C11F 1_555 1_555
H6D C11D 1_555 1_555
H7C C11C 1_555 1_555
H7F C11F 1_555 1_555
H7D C11D 1_555 1_555
C12C C13C 1_555 1_555
C12F C13F 1_555 1_555
C12D C13D 1_555 1_555
C13C H8C 1_555 1_555
C13F H8F 1_555 1_555
C13D H8D 1_555 1_555
C14C C13C 1_555 1_555
C14F C13F 1_555 1_555
C14D C13D 1_555 1_555
C15C C14C 1_555 1_555
C15F C14F 1_555 1_555
C15D C14D 1_555 1_555
H9C C15C 1_555 1_555
H9F C15F 1_555 1_555
H9D C15D 1_555 1_555
C16C C15C 1_555 1_555
C16F C15F 1_555 1_555
C16D C15D 1_555 1_555
C17C C12C 1_555 1_555
C17F C12F 1_555 1_555
C17D C12D 1_555 1_555
H10C C17C 1_555 1_555
H10F C17F 1_555 1_555
H10D C17D 1_555 1_555
C18C C16C 1_555 1_555
C18F C16F 1_555 1_555
C18D C16D 1_555 1_555
C19C C14C 1_555 1_555
C19F C14F 1_555 1_555
C19D C14D 1_555 1_555
C21A C20 1_555 1_555
C21F C20 1_555 1_555
C21G C20 1_555 1_555
H11A C21A 1_555 1_555
H11F C21F 1_555 1_555
H11G C21G 1_555 1_555
H12A C21A 1_555 1_555
H12F C21F 1_555 1_555
H12G C21G 1_555 1_555
C22A C23A 1_555 1_555
C22F C23F 1_555 1_555
C22G C23G 1_555 1_555
C23A H13A 1_555 1_555
C23F H13F 1_555 1_555
C23G H13G 1_555 1_555
C24A C23A 1_555 1_555
C24F C23F 1_555 1_555
C24G C23G 1_555 1_555
C25A C24A 1_555 1_555
C25F C24F 1_555 1_555
C25G C24G 1_555 1_555
H14A C25A 1_555 1_555
H14F C25F 1_555 1_555
H14G C25G 1_555 1_555
C26A C25A 1_555 1_555
C26F C25F 1_555 1_555
C26G C25G 1_555 1_555
C27A C22A 1_555 1_555
C27F C22F 1_555 1_555
C27G C22G 1_555 1_555
H15A C27A 1_555 1_555
H15F C27F 1_555 1_555
H15G C27G 1_555 1_555
C28A C26A 1_555 1_555
C28F C26F 1_555 1_555
C28G C26G 1_555 1_555
C29A C24A 1_555 1_555
C29F C24F 1_555 1_555
C29G C24G 1_555 1_555
C30B C31B 1_555 1_555
C31A C30 1_555 1_555
C31B H16B 1_555 1_555
C31C C30B 1_555 1_555
H16A C31A 1_555 1_555
H16C C31C 1_555 1_555
H17A C31A 1_555 1_555
H17B C31B 1_555 1_555
H17C C31C 1_555 1_555
C32A C33A 1_555 1_555
C32B C33B 1_555 1_555
C32C C33C 1_555 1_555
C33A H18A 1_555 1_555
C33B H18B 1_555 1_555
C33C H18C 1_555 1_555
C34A C33A 1_555 1_555
C34B C33B 1_555 1_555
C34C C33C 1_555 1_555
C35A C34A 1_555 1_555
C35B C34B 1_555 1_555
C35C C34C 1_555 1_555
H19A C35A 1_555 1_555
H19B C35B 1_555 1_555
H19C C35C 1_555 1_555
C36A C35A 1_555 1_555
C36B C35B 1_555 1_555
C36C C35C 1_555 1_555
C37A C32A 1_555 1_555
C37B C32B 1_555 1_555
C37C C32C 1_555 1_555
H20A C37A 1_555 1_555
H20B C37B 1_555 1_555
H20C C37C 1_555 1_555
C38A C36A 1_555 1_555
C38B C36B 1_555 1_555
C38C C36C 1_555 1_555
C39A C34A 1_555 1_555
C39B C34B 1_555 1_555
C39C C34C 1_555 1_555
C40A C30 1_555 1_555
C40B C30B 1_555 1_555
C40C C30B 1_555 1_555
H21A C40A 1_555 1_555
H21B C40B 1_555 1_555
H21C C40C 1_555 1_555
H22A C40A 1_555 1_555
H22B C40B 1_555 1_555
H22C C40C 1_555 1_555
C41A C42A 1_555 1_555
C41B C42B 1_555 1_555
C41C C42C 1_555 1_555
C42A H23A 1_555 1_555
C42B H23B 1_555 1_555
C42C H23C 1_555 1_555
C43A C41A 1_555 1_555
C43B C41B 1_555 1_555
C43C C41C 1_555 1_555
H24A C43A 1_555 1_555
H24B C43B 1_555 1_555
H24C C43C 1_555 1_555
C44A C43A 1_555 1_555
C44B C43B 1_555 1_555
C44C C43C 1_555 1_555
C45A C44A 1_555 1_555
C45B C44B 1_555 1_555
C45C C44C 1_555 1_555
H25A C45A 1_555 1_555
H25B C45B 1_555 1_555
H25C C45C 1_555 1_555
C46A C44A 1_555 1_555
C46B C44B 1_555 1_555
C46C C44C 1_555 1_555
C48A C47 1_555 1_555
C48F C47 1_555 1_555
C48G C47 1_555 1_555
H26A C48A 1_555 1_555
H26F C48F 1_555 1_555
H26G C48G 1_555 1_555
H27A C48A 1_555 1_555
H27F C48F 1_555 1_555
H27G C48G 1_555 1_555
C49A C50A 1_555 1_555
C49F C50F 1_555 1_555
C49G C50G 1_555 1_555
C50A H28A 1_555 1_555
C50F H28F 1_555 1_555
C50G H28G 1_555 1_555
C51A C50A 1_555 1_555
C51F C50F 1_555 1_555
C51G C50G 1_555 1_555
C52A C51A 1_555 1_555
C52F C51F 1_555 1_555
C52G C51G 1_555 1_555
H29A C52A 1_555 1_555
H29F C52F 1_555 1_555
H29G C52G 1_555 1_555
C53A C52A 1_555 1_555
C53F C52F 1_555 1_555
C53G C52G 1_555 1_555
C54A C49A 1_555 1_555
C54F C49F 1_555 1_555
C54G C49G 1_555 1_555
H30A C54A 1_555 1_555
H30F C54F 1_555 1_555
H30G C54G 1_555 1_555
C55A C53A 1_555 1_555
C55F C53F 1_555 1_555
C55G C53G 1_555 1_555
C56A C51A 1_555 1_555
C56F C51F 1_555 1_555
C56G C51G 1_555 1_555
C57A C42A 1_555 1_555
C57B C42B 1_555 1_555
C57C C42C 1_555 1_555
C58A C57A 1_555 1_555
C58B C57B 1_555 1_555
C58C C57C 1_555 1_555
O1C C9C 1_555 1_555
O1F C9F 1_555 1_555
O1D C9D 1_555 1_555
O2C C9C 1_555 1_555
O2F C9F 1_555 1_555
O2D C9D 1_555 1_555
O3C C10C 1_555 1_555
O3F C10F 1_555 1_555
O3D C10D 1_555 1_555
O3B Zn3B 1_555 1_555
O4C C10C 1_555 1_555
O4F C10F 1_555 1_555
O4D C10D 1_555 1_555
O4B Zn4B 1_555 1_555
O5C C2C 1_555 1_555
O5F C2F 1_555 1_555
O5D C2D 1_555 1_555
O6C Zn2C 1_555 1_555
O6A Zn2A 1_555 1_555
O6A_2 Zn2A_2 1_555 1_555
O7C Zn1C 1_555 1_555
O7A Zn1A 1_555 1_555
O7A_2 Zn1A_2 1_555 1_555
O8A Zn1A 1_555 1_555
O8B C38B 1_555 1_555
O8C Zn1C 1_555 1_555
O8A_2 Zn1A_2 1_555 1_555
O9A Zn2A 1_555 1_555
O9B C38B 1_555 1_555
O9C Zn2C 1_555 1_555
O9A_2 Zn2A_2 1_555 1_555
O10A Zn2A_2 1_555 1_555
O10F Zn2F 1_555 1_555
O10G C28G 1_555 1_555
O10C Zn2C 1_555 1_555
O10A_2 Zn2A 1_555 1_555
O11A Zn1A_2 1_555 1_555
O11F Zn1F 1_555 1_555
O11G C28G 1_555 1_555
O11C Zn1C 1_555 1_555
O11A_2 Zn1A 1_555 1_555
O12A C21A 1_555 1_555
O12F C21F 1_555 1_555
O12G C21G 1_555 1_555
O13A Zn8A 1_555 1_555
O13F C29F 1_555 1_555
O13G C29G 1_555 1_555
O14A Zn7A 1_555 1_555
O14F C29F 1_555 1_555
O14G C29G 1_555 1_555
O15A Zn8A 1_555 1_555
O15F Zn8F 1_555 1_555
O15G Zn8G 1_555 1_555
O16C C18C 1_555 1_555
O16F Zn8G 1_555 1_555
O16D C18D 1_555 1_555
O16A Zn8 1_555 1_555
O16G Zn8F 1_555 1_555
O17C C18C 1_555 1_555
O17F Zn7G 1_555 1_555
O17D C18D 1_555 1_555
O17A Zn7 1_555 1_555
O17G Zn7F 1_555 1_555
O18A Zn7A 1_555 1_555
O18F Zn7F 1_555 1_555
O18G Zn7G 1_555 1_555
O19A Zn7G 1_555 1_555
O19B C46B 1_555 1_555
O19C C46C 1_555 1_555
O19G Zn7 1_555 1_555
O19F Zn7A 1_555 1_555
O19_2 Zn7F 1_555 1_555
O20A Zn8G 1_555 1_555
O20B C46B 1_555 1_555
O20C C46C 1_555 1_555
O20G Zn8 1_555 1_555
O20F Zn8A 1_555 1_555
O20_2 Zn8F 1_555 1_555
O21A C40A 1_555 1_555
O21B C40B 1_555 1_555
O21C C40C 1_555 1_555
O22A C58A 1_555 1_555
O22B C58B 1_555 1_555
O22C C58C 1_555 1_555
O22G Zn5G 1_555 1_555
O23A C58A 1_555 1_555
O23B C58B 1_555 1_555
O23C C58C 1_555 1_555
O23G Zn6G 1_555 1_555
O24C Zn5D 1_555 1_555
O24F Zn5 1_555 1_555
O24D C19D 1_555 1_555
O24G Zn5A 1_555 1_555
O25C Zn6D 1_555 1_555
O25F Zn6 1_555 1_555
O25D C19D 1_555 1_555
O25G Zn6A 1_555 1_555
O26A Zn5A 1_555 1_555
O26G Zn5G 1_555 1_555
O26D Zn5D 1_555 1_555
O27A Zn6A 1_555 1_555
O27G Zn6G 1_555 1_555
O27D Zn6D 1_555 1_555
O28A Zn5D 1_555 1_555
O28F C56F 1_555 1_555
O28G Zn5B 1_555 1_555
O28E Zn5 1_555 1_555
O28D Zn5A 1_555 1_555
O28B Zn5G 1_555 1_555
O29A Zn6D 1_555 1_555
O29F C56F 1_555 1_555
O29G Zn6B 1_555 1_555
O29E Zn6 1_555 1_555
O29D Zn6A 1_555 1_555
O29B Zn6G 1_555 1_555
O30C C11C 1_555 1_555
O30F C11F 1_555 1_555
O30D C11D 1_555 1_555
O31A C48A 1_555 1_555
O31F C48F 1_555 1_555
O31G C48G 1_555 1_555
O32A C55A 1_555 1_555
O32F C55F 1_555 1_555
O32G C55G 1_555 1_555
O32C Zn4C 1_555 1_555
O32B Zn4B 1_555 1_555
O32F_2 Zn4F 1_555 1_555
O33A C55A 1_555 1_555
O33F C55F 1_555 1_555
O33G C55G 1_555 1_555
O33C Zn3C 1_555 1_555
O33B Zn3B 1_555 1_555
O33F_2 Zn3F 1_555 1_555
O34C Zn4C 1_555 1_555
O34B Zn4B 1_555 1_555
O34F Zn4F 1_555 1_555
O35C Zn3C 1_555 1_555
O35B Zn3B 1_555 1_555
O35F Zn3F 1_555 1_555
O36A Zn3C 1_555 1_555
O36B Zn3 1_555 1_555
O36C C39C 1_555 1_555
O36E Zn3F 1_555 1_555
O37A Zn4C 1_555 1_555
O37B Zn4 1_555 1_555
O37C C39C 1_555 1_555
O37E Zn4F 1_555 1_555
O38A C31A 1_555 1_555
O38B C31B 1_555 1_555
O38C C31C 1_555 1_555
C3 O5 1_555 1_555
C7 C8 1_555 1_555
C12 O30 1_555 1_555
C16 C17 1_555 1_555
C22 O12 1_555 1_555
C26 C27 1_555 1_555
C28 O10 1_555 1_555
C28 O11 1_555 1_555
C32 O38 1_555 1_555
C36 C37 1_555 1_555
C38 O8 1_555 1_555
C38 O9 1_555 1_555
C41 O21 1_555 1_555
C45 C57 1_555 1_555
C49 O31 1_555 1_555
C53 C54 1_555 1_555
C55 O32 1_555 1_555
C55 O33 1_555 1_555
C3C O5C 1_555 1_555
C3F O5F 1_555 1_555
C3D O5D 1_555 1_555
C7C C8C 1_555 1_555
C7F C8F 1_555 1_555
C7D C8D 1_555 1_555
C12C O30C 1_555 1_555
C12F O30F 1_555 1_555
C12D O30D 1_555 1_555
C16C C17C 1_555 1_555
C16F C17F 1_555 1_555
C16D C17D 1_555 1_555
C18F O16F 1_555 1_555
C18F O17F 1_555 1_555
C19C O24C 1_555 1_555
C19C O25C 1_555 1_555
C19F O24F 1_555 1_555
C19F O25F 1_555 1_555
C22A O12A 1_555 1_555
C22F O12F 1_555 1_555
C22G O12G 1_555 1_555
C26A C27A 1_555 1_555
C26F C27F 1_555 1_555
C26G C27G 1_555 1_555
C28A O10A 1_555 1_555
C28A O11A 1_555 1_555
C28F O10F 1_555 1_555
C28F O11F 1_555 1_555
C29A O13A 1_555 1_555
C29A O14A 1_555 1_555
C32A O38A 1_555 1_555
C32B O38B 1_555 1_555
C32C O38C 1_555 1_555
C36A C37A 1_555 1_555
C36B C37B 1_555 1_555
C36C C37C 1_555 1_555
C38A O8A 1_555 1_555
C38A O9A 1_555 1_555
C38C O8C 1_555 1_555
C38C O9C 1_555 1_555
C39A O36A 1_555 1_555
C39A O37A 1_555 1_555
C39B O36B 1_555 1_555
C39B O37B 1_555 1_555
C41A O21A 1_555 1_555
C41B O21B 1_555 1_555
C41C O21C 1_555 1_555
C45A C57A 1_555 1_555
C45B C57B 1_555 1_555
C45C C57C 1_555 1_555
C46A O19A 1_555 1_555
C46A O20A 1_555 1_555
C49A O31A 1_555 1_555
C49F O31F 1_555 1_555
C49G O31G 1_555 1_555
C53A C54A 1_555 1_555
C53F C54F 1_555 1_555
C53G C54G 1_555 1_555
C56A O28A 1_555 1_555
C56A O29A 1_555 1_555
C56G O28G 1_555 1_555
C56G O29G 1_555 1_555

#END
