
#######################################################################
#
#                 Cambridge Crystallographic Data Centre
#                                CCDC 
#
#######################################################################
#
# If this CIF has been generated from an entry in the Cambridge 
# Structural Database, then it will include bibliographic, chemical, 
# crystal, experimental, refinement or atomic coordinate data resulting 
# from the CCDC's data processing and validation procedures.
#
#######################################################################

data_WEHJAW
_chemical_formula_moiety         '(C37 H28 O24 Zn4)n'
_symmetry_cell_setting           tetragonal
_symmetry_space_group_name_H-M   'P 4/n c c'
_symmetry_Int_Tables_number      130
_space_group_name_Hall           '-P 4a 2ac'
loop_
_symmetry_equiv_pos_site_id
_symmetry_equiv_pos_as_xyz
1 x,y,z
2 1/2-x,1/2-y,z
3 1/2+x,-y,1/2-z
4 -x,1/2+y,1/2-z
5 -y,-x,1/2-z
6 1/2+y,1/2+x,1/2-z
7 y,1/2-x,z
8 1/2-y,x,z
9 -x,-y,-z
10 1/2+x,1/2+y,-z
11 1/2-x,y,1/2+z
12 x,1/2-y,1/2+z
13 y,x,1/2+z
14 1/2-y,1/2-x,1/2+z
15 -y,1/2+x,-z
16 1/2+y,-x,-z
_cell_length_a                   19.0396(17)
_cell_length_b                   19.0396(17)
_cell_length_c                   23.563(2)
_cell_angle_alpha                90
_cell_angle_beta                 90
_cell_angle_gamma                90
_cell_volume                     8541.74
loop_
_atom_site_label
_atom_site_type_symbol
_atom_site_fract_x
_atom_site_fract_y
_atom_site_fract_z
_atom_site_U_iso_or_equiv
_atom_site_thermal_displace_type
Zn1 Zn 0.47292(3) 0.45114(3) 0.703969(19) 0.0536 Uani
O1 O 0.78007(14) 0.33965(18) 0.56550(12) 0.0756 Uani
C1 C 0.7690(2) 0.3886(2) 0.60720(18) 0.0653 Uani
C2 C 0.7500 0.2500 0.5000 0.0557 Uani
C3 C 0.6994(2) 0.4536(2) 0.67363(17) 0.0640 Uani
O2 O 0.57611(16) 0.44257(18) 0.67802(13) 0.0767 Uani
C4 C 0.7034(2) 0.4066(2) 0.62810(17) 0.0660 Uani
H1 H 0.6628 0.3877 0.6122 0.0790 Uiso
C5 C 0.72181(19) 0.3092(2) 0.53751(16) 0.0573 Uani
H2 H 0.6980 0.3441 0.5145 0.0690 Uiso
H3 H 0.6887 0.2907 0.5650 0.0690 Uiso
C6 C 0.7602(2) 0.4811(3) 0.69742(18) 0.0673 Uani
H4 H 0.7572 0.5114 0.7283 0.0810 Uiso
C7 C 0.8293(2) 0.4171(3) 0.63044(17) 0.0690 Uani
H5 H 0.8730 0.4048 0.6157 0.0830 Uiso
C8 C 0.8254(2) 0.4636(2) 0.67524(18) 0.0687 Uani
O3 O 0.4277(2) 0.4051(2) 0.63830(16) 0.1090 Uani
C9 C 0.6282(2) 0.4692(2) 0.70094(17) 0.0613 Uani
O4 O 0.62959(16) 0.50913(18) 0.74284(12) 0.0780 Uani
C10 C 0.8924(3) 0.4884(3) 0.70296(18) 0.0680 Uani
O5 O 0.94839(17) 0.47332(19) 0.67855(15) 0.0840 Uani
O6 O 0.88604(17) 0.52290(18) 0.74847(13) 0.0853 Uani
Zn1A Zn 1.02708(3) 0.04886(3) 0.703969(19) 0.0536 Uani
Zn1D Zn 0.54886(3) 0.52708(3) 0.796031(19) 0.0536 Uani
Zn1E Zn 0.95114(3) -0.02708(3) 0.796031(19) 0.0536 Uani
Zn1B Zn 0.97292(3) 0.54886(3) 0.796031(19) 0.0536 Uani
Zn1C Zn 0.52708(3) -0.04886(3) 0.796031(19) 0.0536 Uani
Zn1F Zn 0.45114(3) 0.02708(3) 0.703969(19) 0.0536 Uani
Zn1G Zn 1.04886(3) 0.47292(3) 0.703969(19) 0.0536 Uani
Zn1H Zn 0.52708(3) 0.54886(3) 0.296031(19) 0.0536 Uani
Zn1I Zn 0.97292(3) -0.04886(3) 0.296031(19) 0.0536 Uani
Zn1J Zn 1.02708(3) 0.45114(3) 0.203969(19) 0.0536 Uani
Zn1K Zn 0.47292(3) 0.04886(3) 0.203969(19) 0.0536 Uani
Zn1L Zn 0.45114(3) 0.47292(3) 0.203969(19) 0.0536 Uani
Zn1M Zn 1.04886(3) 0.02708(3) 0.203969(19) 0.0536 Uani
Zn1N Zn 0.54886(3) -0.02708(3) 0.296031(19) 0.0536 Uani
Zn1O Zn 0.95114(3) 0.52708(3) 0.296031(19) 0.0536 Uani
O1A O 0.71993(14) 0.16035(18) 0.56550(12) 0.0756 Uani
O1N O 0.66035(18) 0.28007(14) 0.43450(12) 0.0756 Uani
O1O O 0.83965(18) 0.21993(14) 0.43450(12) 0.0756 Uani
C1A C 0.7310(2) 0.1114(2) 0.60720(18) 0.0653 Uani
C1N C 0.6114(2) 0.2690(2) 0.39280(18) 0.0653 Uani
C1O C 0.8886(2) 0.2310(2) 0.39280(18) 0.0653 Uani
C3A C 0.8006(2) 0.0464(2) 0.67363(17) 0.0640 Uani
C3N C 0.5464(2) 0.1994(2) 0.32637(17) 0.0640 Uani
C3O C 0.9536(2) 0.3006(2) 0.32637(17) 0.0640 Uani
O2A O 0.92389(16) 0.05743(18) 0.67802(13) 0.0767 Uani
O2N O 0.55743(18) 0.07611(16) 0.32198(13) 0.0767 Uani
O2O O 0.94257(18) 0.42389(16) 0.32198(13) 0.0767 Uani
O2E O 0.94257(18) 0.07611(16) 0.82198(13) 0.0767 Uani
O2D O 0.55743(18) 0.42389(16) 0.82198(13) 0.0767 Uani
C4A C 0.7966(2) 0.0934(2) 0.62810(17) 0.0660 Uani
C4N C 0.5934(2) 0.2034(2) 0.37190(17) 0.0660 Uani
C4O C 0.9066(2) 0.2966(2) 0.37190(17) 0.0660 Uani
H1A H 0.8372 0.1123 0.6122 0.0790 Uiso
H1N H 0.6123 0.1628 0.3878 0.0790 Uiso
H1O H 0.8877 0.3372 0.3878 0.0790 Uiso
C5A C 0.77819(19) 0.1908(2) 0.53751(16) 0.0573 Uani
C5N C 0.6908(2) 0.22181(19) 0.46249(16) 0.0573 Uani
C5O C 0.8092(2) 0.27819(19) 0.46249(16) 0.0573 Uani
H2A H 0.8020 0.1559 0.5145 0.0690 Uiso
H2N H 0.6559 0.1980 0.4855 0.0690 Uiso
H2O H 0.8441 0.3020 0.4855 0.0690 Uiso
H3A H 0.8113 0.2093 0.5650 0.0690 Uiso
H3N H 0.7093 0.1887 0.4350 0.0690 Uiso
H3O H 0.7907 0.3113 0.4350 0.0690 Uiso
C6A C 0.7398(2) 0.0189(3) 0.69742(18) 0.0673 Uani
C6N C 0.5189(3) 0.2602(2) 0.30258(18) 0.0673 Uani
C6O C 0.9811(3) 0.2398(2) 0.30258(18) 0.0673 Uani
H4A H 0.7428 -0.0114 0.7283 0.0810 Uiso
H4N H 0.4886 0.2572 0.2717 0.0810 Uiso
H4O H 1.0114 0.2428 0.2717 0.0810 Uiso
C7A C 0.6707(2) 0.0829(3) 0.63044(17) 0.0690 Uani
C7N C 0.5829(3) 0.3293(2) 0.36956(17) 0.0690 Uani
C7O C 0.9171(3) 0.1707(2) 0.36956(17) 0.0690 Uani
H5A H 0.6270 0.0952 0.6157 0.0830 Uiso
H5N H 0.5952 0.3730 0.3843 0.0830 Uiso
H5O H 0.9048 0.1270 0.3843 0.0830 Uiso
C8A C 0.6746(2) 0.0364(2) 0.67524(18) 0.0687 Uani
C8N C 0.5364(2) 0.3254(2) 0.32476(18) 0.0687 Uani
C8O C 0.9636(2) 0.1746(2) 0.32476(18) 0.0687 Uani
O3A O 1.0723(2) 0.0949(2) 0.63830(16) 0.1090 Uani
O3D O 0.5949(2) 0.5723(2) 0.86170(16) 0.1090 Uani
O3E O 0.9051(2) -0.0723(2) 0.86170(16) 0.1090 Uani
C9A C 0.8718(2) 0.0308(2) 0.70094(17) 0.0613 Uani
C9N C 0.5308(2) 0.1282(2) 0.29906(17) 0.0613 Uani
C9O C 0.9692(2) 0.3718(2) 0.29906(17) 0.0613 Uani
O4A O 0.87041(16) -0.00913(18) 0.74284(12) 0.0780 Uani
O4N O 0.49087(18) 0.12959(16) 0.25716(12) 0.0780 Uani
O4O O 1.00913(18) 0.37041(16) 0.25716(12) 0.0780 Uani
O4E O 1.00913(18) 0.12959(16) 0.75716(12) 0.0780 Uani
O4D O 0.49087(18) 0.37041(16) 0.75716(12) 0.0780 Uani
C10A C 0.6076(3) 0.0116(3) 0.70296(18) 0.0680 Uani
C10N C 0.5116(3) 0.3924(3) 0.29704(18) 0.0680 Uani
C10O C 0.9884(3) 0.1076(3) 0.29704(18) 0.0680 Uani
O5A O 0.55161(17) 0.02668(19) 0.67855(15) 0.0840 Uani
O5N O 0.52668(19) 0.44839(17) 0.32145(15) 0.0840 Uani
O5O O 0.97332(19) 0.05161(17) 0.32145(15) 0.0840 Uani
O5B O 0.44839(17) 0.52668(19) 0.82145(15) 0.0840 Uani
O5C O 1.05161(17) -0.02668(19) 0.82145(15) 0.0840 Uani
O5F O 0.47332(19) 0.55161(17) 0.67855(15) 0.0840 Uani
O5G O 1.02668(19) -0.05161(17) 0.67855(15) 0.0840 Uani
O6A O 0.61396(17) -0.02290(18) 0.74847(13) 0.0853 Uani
O6N O 0.47710(18) 0.38604(17) 0.25153(13) 0.0853 Uani
O6O O 1.02290(18) 0.11396(17) 0.25153(13) 0.0853 Uani
O6B O 0.38604(17) 0.47710(18) 0.75153(13) 0.0853 Uani
O6C O 1.11396(17) 0.02290(18) 0.75153(13) 0.0853 Uani
O6F O 0.52290(18) 0.61396(17) 0.74847(13) 0.0853 Uani
O6G O 0.97710(18) -0.11396(17) 0.74847(13) 0.0853 Uani
loop_
_atom_site_aniso_label
_atom_site_aniso_U_11
_atom_site_aniso_U_22
_atom_site_aniso_U_33
_atom_site_aniso_U_23
_atom_site_aniso_U_13
_atom_site_aniso_U_12
Zn1 0.0514(3) 0.0501(3) 0.0592(4) -0.00696(18) -0.00774(18) 0.0065(2)
O1 0.0457(16) 0.096(2) 0.085(2) -0.0395(17) 0.0009(14) -0.0020(15)
C1 0.053(3) 0.075(3) 0.068(2) -0.019(2) -0.0004(18) -0.004(2)
C2 0.054(3) 0.054(3) 0.059(4) 0.000 0.000 0.000
C3 0.051(2) 0.068(3) 0.073(3) -0.013(2) 0.0023(19) 0.004(2)
O2 0.0502(18) 0.091(2) 0.089(2) -0.0188(17) 0.0065(16) 0.0077(17)
C4 0.045(2) 0.080(3) 0.073(3) -0.013(2) -0.0018(18) -0.002(2)
C5 0.047(2) 0.068(3) 0.057(2) -0.0134(19) -0.0004(16) -0.0004(19)
C6 0.059(3) 0.073(3) 0.070(3) -0.011(2) 0.0016(19) -0.004(2)
C7 0.049(2) 0.082(3) 0.076(3) -0.018(2) 0.004(2) -0.004(2)
C8 0.053(3) 0.074(3) 0.079(3) -0.014(2) -0.003(2) -0.005(2)
O3 0.111(3) 0.124(3) 0.092(2) -0.039(2) -0.021(2) -0.006(3)
C9 0.047(2) 0.064(3) 0.073(3) -0.003(2) 0.0044(19) 0.009(2)
O4 0.065(2) 0.089(2) 0.0801(19) -0.0248(17) 0.0086(15) 0.0064(17)
C10 0.057(3) 0.072(3) 0.075(3) -0.004(2) -0.006(2) -0.010(2)
O5 0.056(2) 0.105(3) 0.091(2) -0.0160(19) 0.0008(17) -0.0172(18)
O6 0.078(2) 0.093(3) 0.085(2) -0.0257(18) -0.0061(17) -0.0184(18)
Zn1A 0.0514 0.0501 0.0592 0.00696 0.00774 0.0065
Zn1D 0.0501 0.0514 0.0592 -0.00774 -0.00696 0.0065
Zn1E 0.0501 0.0514 0.0592 0.00774 0.00696 0.0065
Zn1B 0.0514 0.0501 0.0592 -0.00696 0.00774 -0.0065
Zn1C 0.0514 0.0501 0.0592 0.00696 -0.00774 -0.0065
Zn1F 0.0501 0.0514 0.0592 0.00774 -0.00696 -0.0065
Zn1G 0.0501 0.0514 0.0592 -0.00774 0.00696 -0.0065
Zn1H 0.0514 0.0501 0.0592 -0.00696 -0.00774 0.0065
Zn1I 0.0514 0.0501 0.0592 0.00696 0.00774 0.0065
Zn1J 0.0514 0.0501 0.0592 -0.00696 0.00774 -0.0065
Zn1K 0.0514 0.0501 0.0592 0.00696 -0.00774 -0.0065
Zn1L 0.0501 0.0514 0.0592 -0.00774 -0.00696 0.0065
Zn1M 0.0501 0.0514 0.0592 0.00774 0.00696 0.0065
Zn1N 0.0501 0.0514 0.0592 0.00774 -0.00696 -0.0065
Zn1O 0.0501 0.0514 0.0592 -0.00774 0.00696 -0.0065
O1A 0.0457 0.096 0.085 0.0395 -0.0009 -0.002
O1N 0.096 0.0457 0.085 -0.0009 -0.0395 0.002
O1O 0.096 0.0457 0.085 0.0009 0.0395 0.002
C1A 0.053 0.075 0.068 0.019 0.0004 -0.004
C1N 0.075 0.053 0.068 0.0004 -0.019 0.004
C1O 0.075 0.053 0.068 -0.0004 0.019 0.004
C3A 0.051 0.068 0.073 0.013 -0.0023 0.004
C3N 0.068 0.051 0.073 -0.0023 -0.013 -0.004
C3O 0.068 0.051 0.073 0.0023 0.013 -0.004
O2A 0.0502 0.091 0.089 0.0188 -0.0065 0.0077
O2N 0.091 0.0502 0.089 -0.0065 -0.0188 -0.0077
O2O 0.091 0.0502 0.089 0.0065 0.0188 -0.0077
O2E 0.091 0.0502 0.089 -0.0065 0.0188 0.0077
O2D 0.091 0.0502 0.089 0.0065 -0.0188 0.0077
C4A 0.045 0.08 0.073 0.013 0.0018 -0.002
C4N 0.08 0.045 0.073 0.0018 -0.013 0.002
C4O 0.08 0.045 0.073 -0.0018 0.013 0.002
C5A 0.047 0.068 0.057 0.0134 0.0004 -0.0004
C5N 0.068 0.047 0.057 0.0004 -0.0134 0.0004
C5O 0.068 0.047 0.057 -0.0004 0.0134 0.0004
C6A 0.059 0.073 0.07 0.011 -0.0016 -0.004
C6N 0.073 0.059 0.07 -0.0016 -0.011 0.004
C6O 0.073 0.059 0.07 0.0016 0.011 0.004
C7A 0.049 0.082 0.076 0.018 -0.004 -0.004
C7N 0.082 0.049 0.076 -0.004 -0.018 0.004
C7O 0.082 0.049 0.076 0.004 0.018 0.004
C8A 0.053 0.074 0.079 0.014 0.003 -0.005
C8N 0.074 0.053 0.079 0.003 -0.014 0.005
C8O 0.074 0.053 0.079 -0.003 0.014 0.005
O3A 0.111 0.124 0.092 0.039 0.021 -0.006
O3D 0.124 0.111 0.092 -0.021 -0.039 -0.006
O3E 0.124 0.111 0.092 0.021 0.039 -0.006
C9A 0.047 0.064 0.073 0.003 -0.0044 0.009
C9N 0.064 0.047 0.073 -0.0044 -0.003 -0.009
C9O 0.064 0.047 0.073 0.0044 0.003 -0.009
O4A 0.065 0.089 0.0801 0.0248 -0.0086 0.0064
O4N 0.089 0.065 0.0801 -0.0086 -0.0248 -0.0064
O4O 0.089 0.065 0.0801 0.0086 0.0248 -0.0064
O4E 0.089 0.065 0.0801 -0.0086 0.0248 0.0064
O4D 0.089 0.065 0.0801 0.0086 -0.0248 0.0064
C10A 0.057 0.072 0.075 0.004 0.006 -0.01
C10N 0.072 0.057 0.075 0.006 -0.004 0.01
C10O 0.072 0.057 0.075 -0.006 0.004 0.01
O5A 0.056 0.105 0.091 0.016 -0.0008 -0.0172
O5N 0.105 0.056 0.091 -0.0008 -0.016 0.0172
O5O 0.105 0.056 0.091 0.0008 0.016 0.0172
O5B 0.056 0.105 0.091 -0.016 -0.0008 0.0172
O5C 0.056 0.105 0.091 0.016 0.0008 0.0172
O5F 0.105 0.056 0.091 -0.0008 -0.016 0.0172
O5G 0.105 0.056 0.091 0.0008 0.016 0.0172
O6A 0.078 0.093 0.085 0.0257 0.0061 -0.0184
O6N 0.093 0.078 0.085 0.0061 -0.0257 0.0184
O6O 0.093 0.078 0.085 -0.0061 0.0257 0.0184
O6B 0.078 0.093 0.085 -0.0257 0.0061 0.0184
O6C 0.078 0.093 0.085 0.0257 -0.0061 0.0184
O6F 0.093 0.078 0.085 0.0061 -0.0257 0.0184
O6G 0.093 0.078 0.085 -0.0061 0.0257 0.0184
loop_
_geom_bond_atom_site_label_1
_geom_bond_atom_site_label_2
_geom_bond_site_symmetry_1
_geom_bond_site_symmetry_2
Zn1 O2 1_555 1_555
O1 C1 1_555 1_555
C1 C4 1_555 1_555
C2 C5 1_555 1_555
C3 C4 1_555 1_555
O2 C9 1_555 1_555
C4 H1 1_555 1_555
C5 O1 1_555 1_555
H2 C5 1_555 1_555
H3 C5 1_555 1_555
C6 C3 1_555 1_555
H4 C6 1_555 1_555
C7 C1 1_555 1_555
H5 C7 1_555 1_555
C8 C6 1_555 1_555
O3 Zn1 1_555 1_555
C9 C3 1_555 1_555
O4 C9 1_555 1_555
C10 C8 1_555 1_555
O5 C10 1_555 1_555
O6 C10 1_555 1_555
Zn1A O2A 1_555 1_555
Zn1D O4 1_555 1_555
Zn1E O2E 1_555 1_555
Zn1B O6 1_555 1_555
Zn1C O6A 1_555 1_555
Zn1F O5A 1_555 1_555
Zn1G O5 1_555 1_555
Zn1H O5N 1_555 1_555
Zn1I O5O 1_555 1_555
Zn1J O4O 1_555 1_555
Zn1K O4N 1_555 1_555
Zn1L O6N 1_555 1_555
Zn1M O6O 1_555 1_555
Zn1N O2N 1_555 1_555
Zn1O O2O 1_555 1_555
O1A C1A 1_555 1_555
O1N C1N 1_555 1_555
O1O C1O 1_555 1_555
C1A C4A 1_555 1_555
C1N C4N 1_555 1_555
C1O C4O 1_555 1_555
C3A C4A 1_555 1_555
C3N C4N 1_555 1_555
C3O C4O 1_555 1_555
O2A C9A 1_555 1_555
O2N C9N 1_555 1_555
O2O C9O 1_555 1_555
O2D Zn1D 1_555 1_555
C4A H1A 1_555 1_555
C4N H1N 1_555 1_555
C4O H1O 1_555 1_555
C5A C2 1_555 1_555
C5N C2 1_555 1_555
C5O C2 1_555 1_555
H2A C5A 1_555 1_555
H2N C5N 1_555 1_555
H2O C5O 1_555 1_555
H3A C5A 1_555 1_555
H3N C5N 1_555 1_555
H3O C5O 1_555 1_555
C6A C3A 1_555 1_555
C6N C3N 1_555 1_555
C6O C3O 1_555 1_555
H4A C6A 1_555 1_555
H4N C6N 1_555 1_555
H4O C6O 1_555 1_555
C7A C1A 1_555 1_555
C7N C1N 1_555 1_555
C7O C1O 1_555 1_555
H5A C7A 1_555 1_555
H5N C7N 1_555 1_555
H5O C7O 1_555 1_555
C8A C6A 1_555 1_555
C8N C6N 1_555 1_555
C8O C6O 1_555 1_555
O3A Zn1A 1_555 1_555
O3D Zn1D 1_555 1_555
O3E Zn1E 1_555 1_555
C9A C3A 1_555 1_555
C9N C3N 1_555 1_555
C9O C3O 1_555 1_555
O4A Zn1E 1_555 1_555
O4N C9N 1_555 1_555
O4O C9O 1_555 1_555
O4E Zn1A 1_555 1_555
O4D Zn1 1_555 1_555
C10A C8A 1_555 1_555
C10N C8N 1_555 1_555
C10O C8O 1_555 1_555
O5A C10A 1_555 1_555
O5N C10N 1_555 1_555
O5O C10O 1_555 1_555
O5B Zn1D 1_555 1_555
O5C Zn1E 1_555 1_555
O5F Zn1 1_555 1_555
O5G Zn1A 1_555 1_555
O6A C10A 1_555 1_555
O6N C10N 1_555 1_555
O6O C10O 1_555 1_555
O6B Zn1 1_555 1_555
O6C Zn1A 1_555 1_555
O6F Zn1D 1_555 1_555
O6G Zn1E 1_555 1_555
C7 C8 1_555 1_555
O1A C5A 1_555 1_555
O1N C5N 1_555 1_555
O1O C5O 1_555 1_555
C7A C8A 1_555 1_555
C7N C8N 1_555 1_555
C7O C8O 1_555 1_555
C9A O4A 1_555 1_555

#END
