
#######################################################################
#
#                 Cambridge Crystallographic Data Centre
#                                CCDC 
#
#######################################################################
#
# If this CIF has been generated from an entry in the Cambridge 
# Structural Database, then it will include bibliographic, chemical, 
# crystal, experimental, refinement or atomic coordinate data resulting 
# from the CCDC's data processing and validation procedures.
#
#######################################################################

data_WEHJIE
_chemical_formula_moiety         '(C98 H102 N4 O50 Zn9)n'
_symmetry_cell_setting           orthorhombic
_symmetry_space_group_name_H-M   'P n a 21'
_symmetry_Int_Tables_number      33
_space_group_name_Hall           'P 2c -2n'
loop_
_symmetry_equiv_pos_site_id
_symmetry_equiv_pos_as_xyz
1 x,y,z
2 -x,-y,1/2+z
3 1/2-x,1/2+y,1/2+z
4 1/2+x,1/2-y,z
_cell_length_a                   30.4640(13)
_cell_length_b                   31.0040(13)
_cell_length_c                   18.9020(8)
_cell_angle_alpha                90
_cell_angle_beta                 90
_cell_angle_gamma                90
_cell_volume                     17853
loop_
_atom_site_label
_atom_site_type_symbol
_atom_site_fract_x
_atom_site_fract_y
_atom_site_fract_z
_atom_site_U_iso_or_equiv
_atom_site_thermal_displace_type
Zn1 Zn 0.96885(3) 0.47720(3) 0.22828(4) 0.0348 Uani
Zn2 Zn 1.05412(2) 0.49339(2) 0.15056(4) 0.0341 Uani
Zn3 Zn 0.99984(3) 0.03979(3) 0.75521(5) 0.0392 Uani
Zn4 Zn 1.20067(3) 0.26288(3) 0.65261(5) 0.0467 Uani
Zn5 Zn 0.99612(3) -0.04468(2) 0.67488(4) 0.0354 Uani
Zn6 Zn 1.20577(3) 0.35706(3) 0.74682(5) 0.0524 Uani
Zn7 Zn 1.29144(4) 0.71500(3) 0.69932(6) 0.0632 Uani
Zn8 Zn 1.25594(3) 0.81955(3) 0.67130(5) 0.0498 Uani
Zn9 Zn 1.29430(3) 0.32153(4) 0.66641(6) 0.0734 Uani
C1 C 1.0078(2) 0.0382(3) 0.5976(4) 0.0430 Uiso
C2 C 1.4172(3) 0.4886(3) 0.2351(4) 0.0520 Uiso
C3 C 1.0126(3) 0.0439(3) 0.3300(4) 0.0460 Uiso
C4 C 1.0070(2) 0.0633(2) 0.5302(4) 0.0379 Uiso
C5 C 1.0027(2) 0.1073(2) 0.5329(4) 0.0450 Uiso
H1 H 1.0005 0.1214 0.5762 0.0540 Uiso
C6 C 1.0015(2) 0.1302(2) 0.4701(4) 0.0462 Uiso
C7 C 1.0029(2) 0.1104(3) 0.4029(4) 0.0500 Uiso
H2 H 0.9987 0.1263 0.3617 0.0600 Uiso
C8 C 1.0108(2) 0.0663(2) 0.4005(4) 0.0377 Uiso
C9 C 1.0106(2) 0.0416(3) 0.4645(4) 0.0490 Uiso
H3 H 1.0127 0.0117 0.4630 0.0590 Uiso
C10 C 0.9923(3) 0.2012(2) 0.4127(4) 0.0450 Uiso
H4 H 0.9723 0.1898 0.3775 0.0540 Uiso
H5 H 1.0216 0.2018 0.3927 0.0540 Uiso
C11 C 0.9780(2) 0.2474(2) 0.4356(4) 0.0413 Uiso
C12 C 0.9801(3) 0.2752(3) 0.3712(4) 0.0500 Uiso
H6 H 0.9575 0.2672 0.3376 0.0600 Uiso
H7 H 0.9765 0.3053 0.3836 0.0600 Uiso
C13 C 1.0108(3) 0.2639(2) 0.4939(4) 0.0540 Uiso
H8 H 1.0113 0.2443 0.5339 0.0640 Uiso
H9 H 1.0403 0.2662 0.4749 0.0640 Uiso
C14 C 1.0194(3) 0.3273(3) 0.5650(4) 0.0510 Uiso
C15 C 1.0024(3) 0.3677(3) 0.5857(4) 0.0560 Uiso
H10 H 0.9754 0.3769 0.5683 0.0670 Uiso
C16 C 1.0261(3) 0.3943(2) 0.6326(4) 0.0490 Uiso
C17 C 1.0652(2) 0.3793(2) 0.6591(4) 0.0460 Uiso
H11 H 1.0806 0.3961 0.6914 0.0550 Uiso
C18 C 1.0822(2) 0.3393(2) 0.6386(4) 0.0470 Uiso
C19 C 1.0605(3) 0.3133(3) 0.5925(4) 0.0560 Uiso
H12 H 1.0723 0.2868 0.5791 0.0680 Uiso
C20 C 1.1248(2) 0.3247(2) 0.6659(4) 0.0480 Uiso
C21 C 1.0438(3) 0.2968(3) 0.2929(5) 0.0590 Uiso
C22 C 1.0814(3) 0.2807(3) 0.2657(5) 0.0700 Uiso
H13 H 1.0904 0.2527 0.2758 0.0840 Uiso
C23 C 1.1050(2) 0.3063(2) 0.2240(4) 0.0470 Uiso
C24 C 1.0904(3) 0.3467(3) 0.2078(4) 0.0500 Uiso
H14 H 1.1072 0.3643 0.1786 0.0610 Uiso
C25 C 1.0512(2) 0.3618(2) 0.2338(4) 0.0480 Uiso
C26 C 1.0263(3) 0.3355(3) 0.2751(4) 0.0540 Uiso
H15 H 0.9986 0.3437 0.2905 0.0640 Uiso
C27 C 1.1497(3) 0.2915(3) 0.1982(5) 0.0710 Uiso
C28 C 1.0348(3) 0.4071(3) 0.2148(4) 0.0550 Uiso
C29 C 1.0271(3) 0.5316(3) 0.5714(5) 0.0530 Uiso
C30 C 1.0056(3) 0.4362(2) 0.6552(4) 0.0500 Uiso
C31 C 1.0443(3) 0.5086(2) 0.3091(4) 0.0430 Uiso
C32 C 1.0637(2) 0.5214(2) 0.3795(4) 0.0385 Uiso
C33 C 1.0367(3) 0.5220(2) 0.4388(4) 0.0450 Uiso
H16 H 1.0072 0.5149 0.4351 0.0540 Uiso
C34 C 1.0552(3) 0.5339(2) 0.5057(4) 0.0430 Uiso
C35 C 1.0994(3) 0.5463(3) 0.5096(4) 0.0540 Uiso
H17 H 1.1112 0.5555 0.5524 0.0640 Uiso
C36 C 1.1254(2) 0.5448(2) 0.4500(4) 0.0364 Uiso
C37 C 1.1089(2) 0.5327(2) 0.3863(4) 0.0430 Uiso
H18 H 1.1271 0.5319 0.3469 0.0520 Uiso
C38 C 1.2021(2) 0.5476(2) 0.4098(4) 0.0365 Uiso
H19 H 1.1990 0.5660 0.3686 0.0440 Uiso
H20 H 1.1992 0.5178 0.3948 0.0440 Uiso
C39 C 1.2462(2) 0.5546(2) 0.4442(4) 0.0346 Uiso
C40 C 1.2839(2) 0.5445(2) 0.3874(4) 0.0393 Uiso
H21 H 1.2839 0.5661 0.3502 0.0470 Uiso
H22 H 1.3125 0.5444 0.4100 0.0470 Uiso
C41 C 1.2511(2) 0.5243(2) 0.5064(4) 0.0391 Uiso
H23 H 1.2284 0.5301 0.5410 0.0470 Uiso
H24 H 1.2481 0.4947 0.4905 0.0470 Uiso
C42 C 1.3066(3) 0.5045(2) 0.5957(4) 0.0450 Uiso
C43 C 1.3481(3) 0.5097(3) 0.6205(4) 0.0480 Uiso
H25 H 1.3651 0.5316 0.6010 0.0580 Uiso
C44 C 1.3668(2) 0.4845(2) 0.6730(4) 0.0412 Uiso
C45 C 1.3415(2) 0.4523(2) 0.7021(4) 0.0510 Uiso
H26 H 1.3535 0.4339 0.7359 0.0610 Uiso
C46 C 1.2964(2) 0.4472(2) 0.6801(4) 0.0480 Uiso
C47 C 1.2790(3) 0.4743(2) 0.6281(4) 0.0510 Uiso
H27 H 1.2496 0.4723 0.6152 0.0610 Uiso
C48 C 1.4126(3) 0.4900(3) 0.6971(4) 0.0500 Uiso
C49 C 1.2687(3) 0.4108(3) 0.7085(4) 0.0500 Uiso
C50 C 0.7721(3) 0.2476(3) 0.5626(5) 0.0640 Uiso
C51 C 0.8383(3) 0.2408(3) 0.4874(5) 0.0570 Uiso
H28 H 0.8543 0.2394 0.5291 0.0680 Uiso
C52 C 0.7940(3) 0.2469(2) 0.4902(4) 0.0470 Uiso
C53 C 0.7680(3) 0.2494(3) 0.4286(4) 0.0550 Uiso
H29 H 0.7383 0.2561 0.4312 0.0650 Uiso
C54 C 0.7887(3) 0.2416(3) 0.3623(5) 0.0570 Uiso
C55 C 0.7629(3) 0.2399(3) 0.2949(4) 0.0520 Uiso
C56 C 0.8357(3) 0.2344(3) 0.3586(5) 0.0640 Uiso
H30 H 0.8493 0.2284 0.3156 0.0770 Uiso
C57 C 0.8602(3) 0.2365(3) 0.4210(5) 0.0590 Uiso
C58 C 0.9332(2) 0.2486(2) 0.4664(4) 0.0500 Uiso
H31 H 0.9245 0.2781 0.4763 0.0600 Uiso
H32 H 0.9320 0.2322 0.5100 0.0600 Uiso
C59 C 1.3022(3) 0.4864(2) 0.3100(4) 0.0460 Uiso
C60 C 1.3446(2) 0.4998(2) 0.2987(4) 0.0440 Uiso
H33 H 1.3564 0.5231 0.3231 0.0520 Uiso
C61 C 1.3702(2) 0.4760(2) 0.2469(4) 0.0500 Uiso
C62 C 1.3539(3) 0.4396(3) 0.2147(5) 0.0620 Uiso
H34 H 1.3718 0.4236 0.1845 0.0750 Uiso
C63 C 1.3093(2) 0.4259(2) 0.2274(4) 0.0490 Uiso
C64 C 1.2860(3) 0.4493(3) 0.2774(4) 0.0600 Uiso
H35 H 1.2581 0.4398 0.2899 0.0720 Uiso
C65 C 1.2923(3) 0.3878(3) 0.1938(5) 0.0620 Uiso
C66 C 1.2546(3) 0.7567(3) 0.5682(5) 0.0580 Uiso
C67 C 1.2613(2) 0.7621(2) 0.4358(4) 0.0413 Uiso
H36 H 1.2650 0.7917 0.4403 0.0500 Uiso
C68 C 1.2613(3) 0.7433(3) 0.3702(4) 0.0460 Uiso
C69 C 1.2712(3) 0.7693(3) 0.3065(5) 0.0610 Uiso
C70 C 1.2588(2) 0.6993(2) 0.3638(4) 0.0470 Uiso
H37 H 1.2609 0.6863 0.3195 0.0560 Uiso
C71 C 1.2529(2) 0.6737(2) 0.4254(4) 0.0363 Uiso
C72 C 1.2505(2) 0.6919(2) 0.4912(4) 0.0500 Uiso
H38 H 1.2456 0.6752 0.5313 0.0600 Uiso
C73 C 1.2505(2) 0.6003(2) 0.4709(4) 0.0480 Uiso
H39 H 1.2268 0.6067 0.5035 0.0580 Uiso
H40 H 1.2782 0.6037 0.4958 0.0580 Uiso
C74 C 1.1328(8) 0.4340(8) 0.8096(14) 0.2520 Uiso
C75 C 1.1447(7) 0.4034(9) 0.8651(10) 0.2560 Uiso
C76 C 1.1479(9) 0.4208(11) 1.0432(11) 0.3640 Uiso
C77 C 1.1546(13) 0.3848(9) 0.9896(15) 0.4600 Uiso
C78 C 1.0559(7) 0.4027(10) 0.8810(13) 0.3190 Uiso
C79 C 1.3888(4) 0.3612(4) 0.5905(6) 0.1150 Uiso
H41 H 1.4123 0.3729 0.5628 0.1720 Uiso
H42 H 1.3930 0.3307 0.5960 0.1720 Uiso
H43 H 1.3886 0.3747 0.6363 0.1720 Uiso
C80 C 1.3449(4) 0.3698(4) 0.5532(6) 0.0930 Uiso
C81 C 1.0842(5) 0.4142(8) 0.9438(11) 0.3040 Uiso
C82 C 1.2954(4) 0.4050(4) 0.4677(6) 0.1030 Uiso
H44 H 1.2736 0.4031 0.5050 0.1230 Uiso
H45 H 1.2954 0.4343 0.4497 0.1230 Uiso
C83 C 1.2845(5) 0.3755(5) 0.4118(9) 0.1710 Uiso
H46 H 1.2561 0.3825 0.3931 0.2570 Uiso
H47 H 1.2841 0.3466 0.4300 0.2570 Uiso
H48 H 1.3061 0.3776 0.3749 0.2570 Uiso
C84 C 1.2327(7) 0.5062(6) 0.0920(11) 0.2500 Uiso
H49 H 1.2429 0.4771 0.1015 0.2990 Uiso
H50 H 1.2455 0.5159 0.0478 0.2990 Uiso
C85 C 1.1512(4) 0.4940(4) 0.1281(7) 0.1110 Uiso
C86 C 1.1610(4) 0.4649(4) 0.1884(7) 0.1250 Uiso
H51 H 1.1922 0.4632 0.1949 0.1870 Uiso
H52 H 1.1497 0.4366 0.1785 0.1870 Uiso
H53 H 1.1476 0.4760 0.2306 0.1870 Uiso
C87 C 1.2556(2) 0.7366(3) 0.4955(4) 0.0470 Uiso
C88 C 0.9571(10) -0.1183(9) 0.6184(16) 0.2650 Uiso
C89 C 0.9285(6) -0.1334(5) 0.6795(10) 0.2010 Uiso
H54 H 0.9432 -0.1275 0.7235 0.3010 Uiso
H55 H 0.9010 -0.1183 0.6784 0.3010 Uiso
H56 H 0.9233 -0.1638 0.6754 0.3010 Uiso
C90 C 0.9517(5) -0.1044(6) 0.4863(11) 0.2250 Uiso
H57 H 0.9516 -0.1259 0.4491 0.2700 Uiso
H58 H 0.9815 -0.0942 0.4936 0.2700 Uiso
C91 C 0.9213(7) -0.0682(6) 0.4696(14) 0.3190 Uiso
H59 H 0.9313 -0.0535 0.4278 0.4780 Uiso
H60 H 0.8923 -0.0793 0.4617 0.4780 Uiso
H61 H 0.9207 -0.0483 0.5085 0.4780 Uiso
C92 C 0.8994(7) -0.1558(6) 0.5289(15) 0.5500 Uiso
H62 H 0.8926 -0.1503 0.4796 0.6570 Uiso
H63 H 0.8724 -0.1553 0.5560 0.6570 Uiso
C93 C 0.9225(11) -0.1986(5) 0.537(2) 0.5000 Uiso
H64 H 0.9035 -0.2214 0.5212 0.7520 Uiso
H65 H 0.9489 -0.1986 0.5095 0.7520 Uiso
H66 H 0.9297 -0.2031 0.5861 0.7520 Uiso
C94 C 1.1760(5) 0.5330(5) 0.0215(7) 0.1520 Uiso
H67 H 1.1516 0.5211 -0.0049 0.1830 Uiso
H68 H 1.2019 0.5321 -0.0082 0.1830 Uiso
C95 C 1.3827(4) 0.4087(4) 0.4437(7) 0.1300 Uiso
H69 H 1.4095 0.3924 0.4513 0.1550 Uiso
H70 H 1.3746 0.4081 0.3941 0.1550 Uiso
C96 C 1.3845(6) 0.4472(6) 0.4694(10) 0.2040 Uiso
H71 H 1.4081 0.4627 0.4476 0.3070 Uiso
H72 H 1.3893 0.4457 0.5195 0.3070 Uiso
H73 H 1.3573 0.4618 0.4602 0.3070 Uiso
C97 C 1.2454(5) 0.5357(6) 0.1511(11) 0.2630 Uiso
H74 H 1.2763 0.5328 0.1604 0.3940 Uiso
H75 H 1.2292 0.5283 0.1928 0.3940 Uiso
H76 H 1.2391 0.5650 0.1380 0.3940 Uiso
C98 C 1.1660(9) 0.5796(6) 0.0431(15) 0.3580 Uiso
H77 H 1.1779 0.5989 0.0085 0.5380 Uiso
H78 H 1.1790 0.5854 0.0884 0.5380 Uiso
H79 H 1.1348 0.5835 0.0461 0.5380 Uiso
N1 N 0.9313(4) -0.1225(5) 0.5566(8) 0.1940 Uiso
N2 N 1.1299(5) 0.3992(8) 0.9242(8) 0.3750 Uiso
N3 N 1.3415(3) 0.3939(3) 0.4982(5) 0.1030 Uiso
N4 N 1.1836(5) 0.5072(4) 0.0879(7) 0.1600 Uiso
O1 O 1.00567(18) -0.00264(18) 0.5907(3) 0.0587 Uiso
O2 O 1.00871(16) 0.05899(16) 0.6535(3) 0.0534 Uiso
O3 O 0.9891(3) -0.0984(3) 0.6192(4) 0.0980 Uiso
O4 O 1.01092(17) 0.06711(17) 0.2770(3) 0.0526 Uiso
O5 O 1.0026(2) 0.0965(2) 0.8051(4) 0.0970 Uiso
O6 O 1.01273(17) 0.00175(17) 0.3330(3) 0.0502 Uiso
O7 O 1.3016(2) 0.6456(2) 0.6797(4) 0.1140 Uiso
O8 O 1.4385(2) 0.46181(19) 0.1954(3) 0.0741 Uiso
O9 O 1.11227(18) 0.50136(17) 0.1074(3) 0.0560 Uiso
O10 O 1.43333(18) 0.52117(17) 0.2638(3) 0.0582 Uiso
O11 O 0.91112(19) 0.46472(19) 0.2743(3) 0.0690 Uiso
O12 O 1.14078(16) 0.28905(16) 0.6450(3) 0.0545 Uiso
O13 O 1.3115(2) 0.3554(2) 0.5813(4) 0.0880 Uiso
O14 O 1.14374(18) 0.34806(18) 0.7125(3) 0.0639 Uiso
O15 O 1.3405(2) 0.3040(2) 0.7317(4) 0.1180 Uiso
O16 O 1.28783(19) 0.38017(19) 0.7370(3) 0.0722 Uiso
O17 O 1.1687(2) 0.1992(2) 0.6549(4) 0.1090 Uiso
O18 O 1.2288(2) 0.41485(18) 0.7077(3) 0.0703 Uiso
O19 O 1.1797(3) 0.3881(2) 0.8411(4) 0.1070 Uiso
O20 O 0.7949(2) 0.23989(19) 0.6150(3) 0.0714 Uiso
O21 O 0.7316(2) 0.25284(18) 0.5641(3) 0.0664 Uiso
O22 O 1.43270(18) 0.46132(17) 0.7288(3) 0.0634 Uiso
O23 O 1.43165(18) 0.52560(18) 0.6735(3) 0.0692 Uiso
O24 O 1.25405(18) 0.73152(19) 0.6196(3) 0.0656 Uiso
O25 O 1.25232(17) 0.79768(17) 0.5724(3) 0.0560 Uiso
O26 O 1.27752(18) 0.74838(18) 0.2484(3) 0.0635 Uiso
O27 O 1.27521(18) 0.81020(18) 0.3115(3) 0.0591 Uiso
O28 O 1.3156(2) 0.3619(2) 0.1587(4) 0.0990 Uiso
O29 O 1.25080(19) 0.38011(18) 0.1990(3) 0.0663 Uiso
O30 O 1.1553(2) 0.2479(2) 0.1947(4) 0.0860 Uiso
O31 O 1.18004(19) 0.31773(19) 0.1859(3) 0.0721 Uiso
O32 O 0.99884(16) 0.41861(15) 0.2418(3) 0.0488 Uiso
O33 O 1.05996(16) 0.42901(16) 0.1758(3) 0.0518 Uiso
O34 O 1.00395(18) 0.49959(17) 0.3106(3) 0.0534 Uiso
O35 O 1.06921(16) 0.50807(15) 0.2561(3) 0.0488 Uiso
O36 O 1.04763(18) 0.54009(17) 0.6290(3) 0.0608 Uiso
O37 O 0.98683(17) 0.52206(16) 0.5648(3) 0.0544 Uiso
O38 O 1.03392(19) 0.46060(19) 0.6897(3) 0.0714 Uiso
O39 O 0.96841(17) 0.44532(16) 0.6371(3) 0.0508 Uiso
O40 O 0.90400(18) 0.22935(18) 0.4125(3) 0.0606 Uiso
O41 O 1.29397(18) 0.53049(18) 0.5383(3) 0.0620 Uiso
O42 O 1.27408(18) 0.50377(17) 0.3598(3) 0.0559 Uiso
O43 O 1.16842(17) 0.55796(16) 0.4619(3) 0.0562 Uiso
O44 O 1.24883(17) 0.62909(17) 0.4118(3) 0.0559 Uiso
O45 O 1.0242(2) 0.2674(2) 0.3416(4) 0.0950 Uiso
O46 O 0.99469(18) 0.30608(18) 0.5153(3) 0.0651 Uiso
O47 O 0.99132(16) 0.17421(16) 0.4787(3) 0.0552 Uiso
O48 O 0.77292(17) 0.21183(17) 0.2496(3) 0.0579 Uiso
O49 O 0.7346(2) 0.2677(2) 0.2865(4) 0.0910 Uiso
O50 O 1.22979(16) 0.32517(15) 0.6563(3) 0.0541 Uiso
Zn1A Zn 1.03115(3) 0.52280(3) 0.72828(4) 0.0348 Uani
Zn2A Zn 0.94588(2) 0.50661(2) 0.65056(4) 0.0341 Uani
Zn3A Zn 1.00016(3) -0.03979(3) 0.25521(5) 0.0392 Uani
Zn3B Zn 1.50016(3) 0.53979(3) 0.25521(5) 0.0392 Uani
Zn3C Zn 1.49984(3) 0.46021(3) 0.75521(5) 0.0392 Uani
Zn4C Zn 0.70067(3) 0.23712(3) 0.65261(5) 0.0467 Uani
Zn4B Zn 1.29933(3) 0.76288(3) 0.15261(5) 0.0467 Uani
Zn5A Zn 1.00388(3) 0.04468(2) 0.17488(4) 0.0354 Uani
Zn5B Zn 1.50388(3) 0.45532(2) 0.17488(4) 0.0354 Uani
Zn5C Zn 1.49612(3) 0.54468(2) 0.67488(4) 0.0354 Uani
Zn6B Zn 1.29423(3) 0.85706(3) 0.24682(5) 0.0524 Uani
Zn7B Zn 1.20856(4) 0.21500(3) 0.19932(6) 0.0632 Uani
Zn7A Zn 0.70856(4) 0.28500(3) 0.19932(6) 0.0632 Uani
Zn8B Zn 1.24406(3) 0.31955(3) 0.17130(5) 0.0498 Uani
Zn8A Zn 0.74406(3) 0.18045(3) 0.17130(5) 0.0498 Uani
Zn9C Zn 0.79430(3) 0.17847(4) 0.66641(6) 0.0734 Uani
O4A O 0.98908(17) -0.06711(17) 0.7770(3) 0.0526 Uiso
O6A O 0.98727(17) -0.00175(17) 0.8330(3) 0.0502 Uiso
O8B O 1.0615(2) -0.03819(19) 0.6954(3) 0.0741 Uiso
O10B O 1.06667(18) 0.02117(17) 0.7638(3) 0.0582 Uiso
O20C O 1.2949(2) 0.26011(19) 0.6150(3) 0.0714 Uiso
O21C O 1.2316(2) 0.24716(18) 0.5641(3) 0.0664 Uiso
O22C O 0.93270(18) 0.03868(17) 0.7288(3) 0.0634 Uiso
O23C O 0.93165(18) -0.02560(18) 0.6735(3) 0.0692 Uiso
O26B O 1.22248(18) 0.24838(18) 0.7484(3) 0.0635 Uiso
O27B O 1.22479(18) 0.31020(18) 0.8115(3) 0.0591 Uiso
O29B O 1.24920(19) 0.88011(18) 0.6990(3) 0.0663 Uiso
O30B O 1.3447(2) 0.7479(2) 0.6947(4) 0.0860 Uiso
O31B O 1.31996(19) 0.81773(19) 0.6859(3) 0.0721 Uiso
O36A O 0.95237(18) 0.45991(17) 0.1290(3) 0.0608 Uiso
O37A O 1.01317(17) 0.47794(16) 0.0648(3) 0.0544 Uiso
O38A O 0.96608(19) 0.53940(19) 0.1897(3) 0.0714 Uiso
O39A O 1.03159(17) 0.55468(16) 0.1371(3) 0.0508 Uiso
O48A O 1.22708(17) 0.78817(17) 0.7496(3) 0.0579 Uiso
O49A O 1.2654(2) 0.7323(2) 0.7865(4) 0.0910 Uiso
loop_
_atom_site_aniso_label
_atom_site_aniso_U_11
_atom_site_aniso_U_22
_atom_site_aniso_U_33
_atom_site_aniso_U_23
_atom_site_aniso_U_13
_atom_site_aniso_U_12
Zn1 0.0309(5) 0.0398(5) 0.0336(5) 0.0079(4) -0.0020(4) -0.0018(4)
Zn2 0.0299(4) 0.0402(5) 0.0321(5) 0.0076(4) 0.0005(4) -0.0007(4)
Zn3 0.0505 0.0319 0.0351 0 -0.0091 -0.0004
Zn4 0.0468 0.0489 0.0443 0.0006 -0.0032 0.002
Zn5 0.0434 0.032 0.0308 -0.0016 -0.0087 0.0026
Zn6 0.0591 0.0407 0.0575 0.0097 -0.0095 -0.0069
Zn7 0.0713 0.0542 0.0642 0.0027 0.0017 -0.0078
Zn8 0.0576 0.046 0.0458 -0.0118 0.0025 0
Zn9 0.0676 0.0778 0.0749 0.0098 -0.0109 -0.001
Zn1A 0.0309 0.0398 0.0336 -0.0079 0.002 -0.0018
Zn2A 0.0299 0.0402 0.0321 -0.0076 -0.0005 -0.0007
Zn3A 0.0505 0.0319 0.0351 0 0.0091 -0.0004
Zn3B 0.0505 0.0319 0.0351 0 0.0091 0.0004
Zn3C 0.0505 0.0319 0.0351 0 -0.0091 0.0004
Zn4C 0.0468 0.0489 0.0443 -0.0006 -0.0032 -0.002
Zn4B 0.0468 0.0489 0.0443 0.0006 0.0032 -0.002
Zn5A 0.0434 0.032 0.0308 0.0016 0.0087 0.0026
Zn5B 0.0434 0.032 0.0308 -0.0016 0.0087 -0.0026
Zn5C 0.0434 0.032 0.0308 0.0016 -0.0087 -0.0026
Zn6B 0.0591 0.0407 0.0575 0.0097 0.0095 0.0069
Zn7B 0.0713(7) 0.0542(6) 0.0642(7) 0.0027(5) -0.0017(6) 0.0078(6)
Zn7A 0.0713 0.0542 0.0642 -0.0027 -0.0017 -0.0078
Zn8B 0.0576 0.046 0.0458 -0.0118 -0.0025 0
Zn8A 0.0576 0.046 0.0458 0.0118 -0.0025 0
Zn9C 0.0676 0.0778 0.0749 -0.0098 -0.0109 0.001
loop_
_geom_bond_atom_site_label_1
_geom_bond_atom_site_label_2
_geom_bond_site_symmetry_1
_geom_bond_site_symmetry_2
Zn1 O11 1_555 1_555
Zn2 O9 1_555 1_555
Zn3 O2 1_555 1_555
Zn4 O12 1_555 1_555
Zn5 O1 1_555 1_555
Zn6 O14 1_555 1_555
Zn7 O7 1_555 1_555
Zn8 O25 1_555 1_555
Zn9 O13 1_555 1_555
C1 C4 1_555 1_555
C2 C61 1_555 1_555
C3 C8 1_555 1_555
C4 C5 1_555 1_555
C5 H1 1_555 1_555
C6 C5 1_555 1_555
C7 C6 1_555 1_555
H2 C7 1_555 1_555
C8 C7 1_555 1_555
C9 C4 1_555 1_555
H3 C9 1_555 1_555
C10 H4 1_555 1_555
H5 C10 1_555 1_555
C11 C10 1_555 1_555
C12 C11 1_555 1_555
H6 C12 1_555 1_555
H7 C12 1_555 1_555
C13 C11 1_555 1_555
H8 C13 1_555 1_555
H9 C13 1_555 1_555
C14 C15 1_555 1_555
C15 H10 1_555 1_555
C16 C15 1_555 1_555
C17 C16 1_555 1_555
H11 C17 1_555 1_555
C18 C17 1_555 1_555
C19 C14 1_555 1_555
H12 C19 1_555 1_555
C20 C18 1_555 1_555
C21 C22 1_555 1_555
C22 H13 1_555 1_555
C23 C22 1_555 1_555
C24 C23 1_555 1_555
H14 C24 1_555 1_555
C25 C24 1_555 1_555
C26 C21 1_555 1_555
H15 C26 1_555 1_555
C27 C23 1_555 1_555
C28 C25 1_555 1_555
C29 C34 1_555 1_555
C30 C16 1_555 1_555
C31 C32 1_555 1_555
C32 C33 1_555 1_555
C33 H16 1_555 1_555
C34 C33 1_555 1_555
C35 C34 1_555 1_555
H17 C35 1_555 1_555
C36 C35 1_555 1_555
C37 C32 1_555 1_555
H18 C37 1_555 1_555
C38 H19 1_555 1_555
H20 C38 1_555 1_555
C39 C38 1_555 1_555
C40 C39 1_555 1_555
H21 C40 1_555 1_555
H22 C40 1_555 1_555
C41 C39 1_555 1_555
H23 C41 1_555 1_555
H24 C41 1_555 1_555
C42 C43 1_555 1_555
C43 H25 1_555 1_555
C44 C43 1_555 1_555
C45 C44 1_555 1_555
H26 C45 1_555 1_555
C46 C45 1_555 1_555
C47 C42 1_555 1_555
H27 C47 1_555 1_555
C48 C44 1_555 1_555
C49 C46 1_555 1_555
C50 C52 1_555 1_555
C51 H28 1_555 1_555
C52 C51 1_555 1_555
C53 C52 1_555 1_555
H29 C53 1_555 1_555
C54 C53 1_555 1_555
C55 C54 1_555 1_555
C56 C54 1_555 1_555
H30 C56 1_555 1_555
C57 C51 1_555 1_555
C58 C11 1_555 1_555
H31 C58 1_555 1_555
H32 C58 1_555 1_555
C59 C60 1_555 1_555
C60 H33 1_555 1_555
C61 C60 1_555 1_555
C62 C61 1_555 1_555
H34 C62 1_555 1_555
C63 C62 1_555 1_555
C64 C59 1_555 1_555
H35 C64 1_555 1_555
C65 C63 1_555 1_555
C66 C87 1_555 1_555
C67 H36 1_555 1_555
C68 C67 1_555 1_555
C69 C68 1_555 1_555
C70 C68 1_555 1_555
H37 C70 1_555 1_555
C71 C70 1_555 1_555
C72 C71 1_555 1_555
H38 C72 1_555 1_555
C73 C39 1_555 1_555
H39 C73 1_555 1_555
H40 C73 1_555 1_555
C74 C75 1_555 1_555
C75 N2 1_555 1_555
C76 C77 1_555 1_555
C77 N2 1_555 1_555
C78 C81 1_555 1_555
C79 H41 1_555 1_555
H42 C79 1_555 1_555
H43 C79 1_555 1_555
C80 C79 1_555 1_555
C81 N2 1_555 1_555
C82 H44 1_555 1_555
H45 C82 1_555 1_555
C83 C82 1_555 1_555
H46 C83 1_555 1_555
H47 C83 1_555 1_555
H48 C83 1_555 1_555
C84 H49 1_555 1_555
H50 C84 1_555 1_555
C85 C86 1_555 1_555
C86 H51 1_555 1_555
H52 C86 1_555 1_555
H53 C86 1_555 1_555
C87 C67 1_555 1_555
C88 C89 1_555 1_555
C89 H54 1_555 1_555
H55 C89 1_555 1_555
H56 C89 1_555 1_555
C90 H57 1_555 1_555
H58 C90 1_555 1_555
C91 C90 1_555 1_555
H59 C91 1_555 1_555
H60 C91 1_555 1_555
H61 C91 1_555 1_555
C92 H62 1_555 1_555
H63 C92 1_555 1_555
C93 C92 1_555 1_555
H64 C93 1_555 1_555
H65 C93 1_555 1_555
H66 C93 1_555 1_555
C94 H67 1_555 1_555
H68 C94 1_555 1_555
C95 H69 1_555 1_555
H70 C95 1_555 1_555
C96 C95 1_555 1_555
H71 C96 1_555 1_555
H72 C96 1_555 1_555
H73 C96 1_555 1_555
C97 C84 1_555 1_555
H74 C97 1_555 1_555
H75 C97 1_555 1_555
H76 C97 1_555 1_555
C98 C94 1_555 1_555
H77 C98 1_555 1_555
H78 C98 1_555 1_555
H79 C98 1_555 1_555
N1 C88 1_555 1_555
N3 C80 1_555 1_555
N4 C84 1_555 1_555
O1 C1 1_555 1_555
O2 C1 1_555 1_555
O3 Zn5 1_555 1_555
O4 C3 1_555 1_555
O5 Zn3 1_555 1_555
O6 C3 1_555 1_555
O8 C2 1_555 1_555
O9 C85 1_555 1_555
O10 C2 1_555 1_555
O12 C20 1_555 1_555
O13 C80 1_555 1_555
O14 C20 1_555 1_555
O15 Zn9 1_555 1_555
O16 Zn9 1_555 1_555
O17 Zn4 1_555 1_555
O18 Zn6 1_555 1_555
O19 Zn6 1_555 1_555
O20 C50 1_555 1_555
O21 C50 1_555 1_555
O22 C48 1_555 1_555
O23 C48 1_555 1_555
O24 Zn7 1_555 1_555
O25 C66 1_555 1_555
O26 C69 1_555 1_555
O27 C69 1_555 1_555
O28 C65 1_555 1_555
O29 C65 1_555 1_555
O30 C27 1_555 1_555
O31 C27 1_555 1_555
O32 Zn1 1_555 1_555
O33 Zn2 1_555 1_555
O34 Zn1 1_555 1_555
O35 Zn2 1_555 1_555
O36 C29 1_555 1_555
O37 C29 1_555 1_555
O38 C30 1_555 1_555
O39 C30 1_555 1_555
O40 C57 1_555 1_555
O41 C41 1_555 1_555
O42 C40 1_555 1_555
O43 C36 1_555 1_555
O44 C71 1_555 1_555
O45 C12 1_555 1_555
O46 C13 1_555 1_555
O47 C6 1_555 1_555
O48 C55 1_555 1_555
O49 C55 1_555 1_555
O50 Zn4 1_555 1_555
Zn1A O36 1_555 1_555
Zn2A O37 1_555 1_555
Zn3A O6 1_555 1_555
Zn3B O10 1_555 1_555
Zn3C O22 1_555 1_555
Zn4C O21 1_555 1_555
Zn4B O26 1_555 1_555
Zn5A O4 1_555 1_555
Zn5B O8 1_555 1_555
Zn5C O23 1_555 1_555
Zn6B O27 1_555 1_555
Zn7B O30 1_555 1_555
Zn7A O49 1_555 1_555
Zn8B O29 1_555 1_555
Zn8A O48 1_555 1_555
Zn9C O20 1_555 1_555
O4A Zn5 1_555 1_555
O6A Zn3 1_555 1_555
O8B Zn5 1_555 1_555
O10B Zn3 1_555 1_555
O20C Zn9 1_555 1_555
O21C Zn4 1_555 1_555
O22C Zn3 1_555 1_555
O23C Zn5 1_555 1_555
O26B Zn4 1_555 1_555
O27B Zn6 1_555 1_555
O29B Zn8 1_555 1_555
O30B Zn7 1_555 1_555
O31B Zn8 1_555 1_555
O36A Zn1 1_555 1_555
O37A Zn2 1_555 1_555
O38A Zn1 1_555 1_555
O39A Zn2 1_555 1_555
O48A Zn8 1_555 1_555
O49A Zn7 1_555 1_555
Zn6 O50 1_555 1_555
Zn9 O50 1_555 1_555
C8 C9 1_555 1_555
C10 O47 1_555 1_555
C14 O46 1_555 1_555
C18 C19 1_555 1_555
C21 O45 1_555 1_555
C25 C26 1_555 1_555
C28 O32 1_555 1_555
C28 O33 1_555 1_555
C31 O34 1_555 1_555
C31 O35 1_555 1_555
C36 C37 1_555 1_555
C38 O43 1_555 1_555
C42 O41 1_555 1_555
C46 C47 1_555 1_555
C49 O16 1_555 1_555
C49 O18 1_555 1_555
C56 C57 1_555 1_555
C58 O40 1_555 1_555
C59 O42 1_555 1_555
C63 C64 1_555 1_555
C66 O24 1_555 1_555
C72 C87 1_555 1_555
C73 O44 1_555 1_555
C75 O19 1_555 1_555
C82 N3 1_555 1_555
C85 N4 1_555 1_555
C88 O3 1_555 1_555
C90 N1 1_555 1_555
C92 N1 1_555 1_555
C94 N4 1_555 1_555
C95 N3 1_555 1_555
O31 Zn8B 1_555 1_555
O38 Zn1A 1_555 1_555
O39 Zn2A 1_555 1_555

#END
