
#######################################################################
#
#                 Cambridge Crystallographic Data Centre
#                                CCDC 
#
#######################################################################
#
# If this CIF has been generated from an entry in the Cambridge 
# Structural Database, then it will include bibliographic, chemical, 
# crystal, experimental, refinement or atomic coordinate data resulting 
# from the CCDC's data processing and validation procedures.
#
#######################################################################

data_IJEVIE
_chemical_formula_moiety         '(C108 H80 Cd11 N4 O62 2-)n'
_symmetry_cell_setting           triclinic
_symmetry_space_group_name_H-M   'P -1'
_symmetry_Int_Tables_number      2
_space_group_name_Hall           '-P 1'
loop_
_symmetry_equiv_pos_site_id
_symmetry_equiv_pos_as_xyz
1 x,y,z
2 -x,-y,-z
_cell_length_a                   10.143(3)
_cell_length_b                   16.127(5)
_cell_length_c                   22.937(7)
_cell_angle_alpha                79.015(7)
_cell_angle_beta                 84.963(9)
_cell_angle_gamma                77.484(9)
_cell_volume                     3591.43
loop_
_atom_site_label
_atom_site_type_symbol
_atom_site_fract_x
_atom_site_fract_y
_atom_site_fract_z
O31 O 0.9855(17) 0.2253(9) 0.2039(8)
O32 O 0.811(3) 0.8817(11) 0.0622(9)
Cd1 Cd 0.20449(8) 0.97191(5) 0.21140(3)
Cd2 Cd -0.86403(8) 1.44438(6) 0.19551(4)
Cd3 Cd 0.42404(8) 1.03628(5) 0.30690(3)
Cd4 Cd 0.49880(9) 0.68616(6) 0.23099(4)
Cd5 Cd 0.32378(8) 0.52314(5) 0.28797(3)
Cd6 Cd 0.5000 1.0000 0.5000
C1 C -0.0658(11) 1.0290(7) 0.1791(5)
C2 C -0.1977(10) 1.0644(7) 0.1504(4)
C3 C -0.2052(12) 1.1262(7) 0.0990(5)
H1 H -0.1296 1.1493 0.0851
C4 C -0.3227(11) 1.1544(7) 0.0678(5)
C5 C -0.4352(11) 1.1235(7) 0.0904(5)
H2 H -0.5141 1.1419 0.0697
C6 C -0.4348(10) 1.0647(7) 0.1440(5)
C7 C -0.3149(11) 1.0341(7) 0.1730(5)
H3 H -0.3121 0.9932 0.2077
C8 C -0.5595(12) 1.0320(8) 0.1672(5)
C9 C -0.5679(13) 1.4164(9) 0.1738(6)
C10 C -0.4377(11) 1.3980(7) 0.1385(5)
C11 C -0.4267(11) 1.3561(7) 0.0904(4)
H4 H -0.5016 1.3379 0.0806
C12 C -0.3059(11) 1.3406(7) 0.0564(4)
C13 C -0.1921(11) 1.3663(8) 0.0729(5)
H5 H -0.1103 1.3553 0.0512
C14 C -0.2017(11) 1.4083(7) 0.1220(5)
C15 C -0.3255(12) 1.4261(8) 0.1541(5)
H6 H -0.3336 1.4562 0.1854
C16 C -0.0799(12) 1.4276(8) 0.1425(5)
C17 C -0.2981(11) 1.2986(7) 0.0037(4)
C18 C -0.2775(11) 1.3456(7) -0.0533(5)
H7 H -0.2637 1.4015 -0.0565
C19 C -0.2766(11) 1.3135(6) -0.1045(4)
C20 C -0.2975(11) 1.2269(7) -0.0995(4)
C21 C -0.3143(12) 1.1798(7) -0.0416(5)
H8 H -0.3244 1.1230 -0.0377
C22 C -0.3164(11) 1.2140(7) 0.0089(4)
C23 C -0.2535(13) 1.3690(8) -0.1624(5)
C24 C -0.2866(12) 1.1786(7) -0.1509(5)
C25 C 0.2839(11) 0.8691(7) 0.3443(4)
C26 C 0.2443(11) 0.8121(7) 0.4005(4)
C27 C 0.2443(10) 0.7261(7) 0.4031(4)
C28 C 0.2084(12) 0.6776(7) 0.4562(4)
H9 H 0.2070 0.6198 0.4575
C29 C 0.1736(10) 0.7133(7) 0.5086(5)
C30 C 0.1691(10) 0.8010(7) 0.5043(4)
C31 C 0.2021(11) 0.8489(7) 0.4506(4)
H10 H 0.1958 0.9079 0.4479
C32 C 0.2941(11) 0.6798(7) 0.3502(5)
C33 C 0.1434(10) 0.8454(7) 0.5567(4)
C34 C 0.0195(10) 0.8544(7) 0.5905(5)
H11 H -0.0499 0.8305 0.5812
C35 C 0.0020(11) 0.8989(7) 0.6377(5)
C36 C 0.1057(11) 0.9320(7) 0.6541(5)
H12 H 0.0935 0.9597 0.6868
C37 C 0.2307(11) 0.9232(7) 0.6205(5)
C38 C 0.2488(11) 0.8819(7) 0.5734(5)
H13 H 0.3308 0.8771 0.5514
C39 C 0.3507(12) 0.9524(8) 0.6371(5)
C40 C -0.1348(11) 0.9134(7) 0.6693(5)
C41 C 0.1579(10) 0.6523(7) 0.5658(4)
C42 C 0.0333(11) 0.6363(7) 0.5894(4)
H14 H -0.0443 0.6660 0.5699
C43 C 0.0210(11) 0.5769(7) 0.6414(4)
C44 C 0.1353(12) 0.5340(8) 0.6703(5)
H15 H 0.1276 0.4961 0.7059
C45 C 0.2619(11) 0.5460(8) 0.6477(5)
C46 C 0.2725(12) 0.6069(8) 0.5953(4)
H16 H 0.3571 0.6166 0.5803
C47 C 0.3873(12) 0.4969(8) 0.6789(5)
C48 C -0.1147(11) 0.5578(7) 0.6635(5)
C49 C 0.7278(18) 0.6433(10) 0.1286(7)
H17 H 0.7915 0.6421 0.1557
C50 C 0.670(3) 0.6287(18) 0.0305(9)
H18 H 0.6056 0.5956 0.0503
H19 H 0.7176 0.6014 -0.0010
H20 H 0.6231 0.6858 0.0144
C51 C 0.911(2) 0.6255(15) 0.0551(10)
H21 H 0.9612 0.6299 0.0875
H22 H 0.9208 0.6707 0.0222
H23 H 0.9434 0.5705 0.0432
C52 C 0.5339(15) 1.2039(8) 0.2527(7)
H24 H 0.5948 1.1938 0.2209
C53 C 0.6952(18) 1.2760(11) 0.2831(8)
H25 H 0.6773 1.3372 0.2821
H26 H 0.7417 1.2632 0.2466
H27 H 0.7504 1.2472 0.3158
C54 C 0.468(2) 1.2764(15) 0.3362(10)
H28 H 0.4146 1.2339 0.3512
H29 H 0.4104 1.3295 0.3195
H30 H 0.5155 1.2857 0.3680
N1 N 0.7682(14) 0.6339(9) 0.0742(6)
N2 N 0.5657(13) 1.2459(7) 0.2903(6)
O1 O -0.0546(9) 0.9672(6) 0.2221(4)
O2 O 0.0335(8) 1.0625(6) 0.1595(4)
O3 O -0.5635(8) 0.9882(5) 0.2200(3)
O4 O -0.6591(10) 1.0482(9) 0.1357(5)
O5 O -0.6685(10) 1.4067(10) 0.1494(6)
O6 O -0.5701(10) 1.4342(7) 0.2242(4)
O7 O -0.0886(9) 1.4643(7) 0.1864(4)
O8 O 0.0338(9) 1.4029(7) 0.1162(4)
O9 O -0.1676(11) 1.4131(7) -0.1640(4)
O10 O -0.3187(9) 1.3689(5) -0.2061(3)
O11 O -0.3828(13) 1.1883(7) -0.1823(5)
O12 O -0.1827(12) 1.1282(9) -0.1566(6)
O13 O 0.2117(9) 0.8826(5) 0.3007(3)
O14 O 0.3806(10) 0.9038(6) 0.3472(4)
O15 O 0.3883(10) 0.7053(6) 0.3184(4)
O16 O 0.2341(10) 0.6217(6) 0.3447(4)
O17 O 0.4528(8) 0.9493(6) 0.6028(4)
O18 O 0.3440(9) 0.9784(7) 0.6860(4)
O19 O -0.1499(9) 0.9250(5) 0.7221(4)
O20 O -0.2379(9) 0.9145(7) 0.6391(4)
O21 O 0.4955(8) 0.5197(7) 0.6596(4)
O22 O 0.3765(10) 0.4377(7) 0.7224(4)
O23 O -0.1202(8) 0.5113(5) 0.7149(3)
O24 O -0.2112(8) 0.5797(6) 0.6311(4)
O25 O 0.6082(13) 0.6537(8) 0.1448(5)
O26 O 0.5067(13) 1.1194(8) 0.5392(5)
O27 O -0.8430(12) 1.3010(7) 0.2497(5)
O28 O 0.7159(11) 0.9358(9) 0.5212(5)
O29 O 0.4268(11) 1.1757(6) 0.2561(5)
O30 O 0.6135(13) 0.7949(9) 0.2538(7)
Cd1A Cd -1.20449(8) 1.02809(5) 0.78860(3)
Cd2A Cd -0.13597(8) 0.55562(6) 0.80449(4)
Cd3A Cd -1.42404(8) 0.96372(5) 0.69310(3)
Cd4A Cd -1.49880(9) 1.31384(6) 0.76901(4)
Cd5A Cd -1.32378(8) 1.47686(5) 0.71203(3)
C1A C -0.9342(11) 0.9710(7) 0.8209(5)
C2A C -0.8023(10) 0.9356(7) 0.8496(4)
C3A C -0.7948(12) 0.8738(7) 0.9010(5)
H1A H -0.8704 0.8507 0.9149
C4A C -0.6773(11) 0.8456(7) 0.9322(5)
C5A C -0.5648(11) 0.8765(7) 0.9096(5)
H2A H -0.4859 0.8581 0.9303
C6A C -0.5652(10) 0.9353(7) 0.8560(5)
C7A C -0.6851(11) 0.9659(7) 0.8270(5)
H3A H -0.6879 1.0068 0.7923
C8A C -0.4405(12) 0.9680(8) 0.8328(5)
C9A C -0.4321(13) 0.5836(9) 0.8262(6)
C10A C -0.5623(11) 0.6020(7) 0.8615(5)
C11A C -0.5733(11) 0.6439(7) 0.9096(4)
H4A H -0.4984 0.6621 0.9194
C12A C -0.6941(11) 0.6594(7) 0.9436(4)
C13A C -0.8079(11) 0.6337(8) 0.9271(5)
H5A H -0.8897 0.6447 0.9488
C14A C -0.7983(11) 0.5917(7) 0.8780(5)
C15A C -0.6745(12) 0.5739(8) 0.8459(5)
H6A H -0.6664 0.5438 0.8146
C16A C -0.9201(12) 0.5724(8) 0.8575(5)
C17A C -0.7019(11) 0.7014(7) 0.9963(4)
C18A C -0.7225(11) 0.6544(7) 1.0533(5)
H7A H -0.7363 0.5985 1.0565
C19A C -0.7234(11) 0.6865(6) 1.1045(4)
C20A C -0.7025(11) 0.7731(7) 1.0995(4)
C21A C -0.6857(12) 0.8202(7) 1.0416(5)
H8A H -0.6756 0.8770 1.0377
C22A C -0.6836(11) 0.7860(7) 0.9911(4)
C23A C -0.7465(13) 0.6310(8) 1.1624(5)
C24A C -0.7134(12) 0.8214(7) 1.1509(5)
C25A C -1.2839(11) 1.1309(7) 0.6557(4)
C26A C -1.2443(11) 1.1879(7) 0.5995(4)
C27A C -1.2443(10) 1.2739(7) 0.5969(4)
C28A C -1.2084(12) 1.3224(7) 0.5438(4)
H9A H -1.2070 1.3802 0.5425
C29A C -1.1736(10) 1.2867(7) 0.4914(5)
C30A C -1.1691(10) 1.1990(7) 0.4957(4)
C31A C -1.2021(11) 1.1511(7) 0.5494(4)
H10A H -1.1958 1.0921 0.5521
C32A C -1.2941(11) 1.3202(7) 0.6498(5)
C33A C -1.1434(10) 1.1546(7) 0.4433(4)
C34A C -1.0195(10) 1.1456(7) 0.4095(5)
H11A H -0.9501 1.1695 0.4188
C35A C -1.0020(11) 1.1011(7) 0.3623(5)
C36A C -1.1057(11) 1.0680(7) 0.3459(5)
H12A H -1.0935 1.0403 0.3132
C37A C -1.2307(11) 1.0768(7) 0.3795(5)
C38A C -1.2488(11) 1.1181(7) 0.4266(5)
H13A H -1.3308 1.1229 0.4486
C39A C -1.3507(12) 1.0476(8) 0.3629(5)
C40A C -0.8652(11) 1.0866(7) 0.3307(5)
C41A C -1.1579(10) 1.3477(7) 0.4342(4)
C42A C -1.0333(11) 1.3637(7) 0.4106(4)
H14A H -0.9557 1.3340 0.4301
C43A C -1.0210(11) 1.4231(7) 0.3586(4)
C44A C -1.1353(12) 1.4660(8) 0.3297(5)
H15A H -1.1276 1.5039 0.2941
C45A C -1.2619(11) 1.4540(8) 0.3523(5)
C46A C -1.2725(12) 1.3931(8) 0.4047(4)
H16A H -1.3571 1.3834 0.4197
C47A C -1.3873(12) 1.5031(8) 0.3211(5)
C48A C -0.8853(11) 1.4422(7) 0.3365(5)
C49A C -1.7278(18) 1.3567(10) 0.8714(7)
H17A H -1.7915 1.3579 0.8443
C50A C -1.670(3) 1.3713(18) 0.9695(9)
H18A H -1.6056 1.4044 0.9497
H19A H -1.7176 1.3986 1.0010
H20A H -1.6231 1.3142 0.9856
C51A C -1.911(2) 1.3745(15) 0.9449(10)
H21A H -1.9612 1.3701 0.9125
H22A H -1.9208 1.3293 0.9778
H23A H -1.9434 1.4295 0.9568
C52A C -1.5339(15) 0.7961(8) 0.7473(7)
H24A H -1.5948 0.8062 0.7791
C53A C -1.6952(18) 0.7240(11) 0.7169(8)
H25A H -1.6773 0.6628 0.7179
H26A H -1.7417 0.7368 0.7534
H27A H -1.7504 0.7528 0.6842
C54A C -1.468(2) 0.7236(15) 0.6638(10)
H28A H -1.4146 0.7661 0.6488
H29A H -1.4104 0.6705 0.6805
H30A H -1.5155 0.7143 0.6320
N1A N -1.7682(14) 1.3661(9) 0.9258(6)
N2A N -1.5657(13) 0.7541(7) 0.7097(6)
O1A O -0.9454(9) 1.0328(6) 0.7779(4)
O2A O -1.0335(8) 0.9375(6) 0.8405(4)
O3A O -0.4365(8) 1.0118(5) 0.7800(3)
O4A O -0.3409(10) 0.9518(9) 0.8643(5)
O5A O -0.3315(10) 0.5933(10) 0.8506(6)
O6A O -0.4299(10) 0.5658(7) 0.7758(4)
O7A O -0.9114(9) 0.5357(7) 0.8136(4)
O8A O -1.0338(9) 0.5971(7) 0.8838(4)
O9A O -0.8324(11) 0.5869(7) 1.1640(4)
O10A O -0.6813(9) 0.6311(5) 1.2061(3)
O11A O -0.6172(13) 0.8117(7) 1.1823(5)
O12A O -0.8173(12) 0.8718(9) 1.1566(6)
O13A O -1.2117(9) 1.1174(5) 0.6993(3)
O14A O -1.3806(10) 1.0962(6) 0.6528(4)
O15A O -1.3883(10) 1.2947(6) 0.6816(4)
O16A O -1.2341(10) 1.3783(6) 0.6553(4)
O17A O -1.4528(8) 1.0507(6) 0.3972(4)
O18A O -1.3440(9) 1.0216(7) 0.3140(4)
O19A O -0.8501(9) 1.0750(5) 0.2779(4)
O20A O -0.7621(9) 1.0855(7) 0.3609(4)
O21A O -1.4955(8) 1.4803(7) 0.3404(4)
O22A O -1.3765(10) 1.5623(7) 0.2776(4)
O23A O -0.8798(8) 1.4887(5) 0.2851(3)
O24A O -0.7888(8) 1.4203(6) 0.3689(4)
O25A O -1.6082(13) 1.3463(8) 0.8552(5)
O27A O -0.1570(12) 0.6990(7) 0.7503(5)
O29A O -1.4268(11) 0.8243(6) 0.7439(5)
O30A O -1.6135(13) 1.2051(9) 0.7462(7)
O26A O 0.4933(13) 0.8806(8) 0.4608(5)
O28A O 0.2841(11) 1.0642(9) 0.4788(5)
Cd1_2 Cd -0.79551(8) 0.97191(5) 0.21140(3)
Cd1_3 Cd -0.79551(8) 0.97191(5) 1.21140(3)
Cd1A_2 Cd -0.20449(8) 1.02809(5) -0.21140(3)
Cd1A_3 Cd -0.20449(8) 1.02809(5) 0.78860(3)
Cd2_2 Cd -0.86403(8) 0.44438(6) 1.19551(4)
Cd2_3 Cd 0.13597(8) 1.44438(6) 0.19551(4)
Cd2A_2 Cd -1.13597(8) 0.55562(6) 0.80449(4)
Cd2A_3 Cd -0.13597(8) 1.55562(6) -0.19551(4)
Cd3_2 Cd -1.57596(8) 1.03628(5) 0.30690(3)
Cd3_3 Cd -0.57596(8) 1.03628(5) 0.30690(3)
Cd3A_2 Cd -0.42404(8) 0.96372(5) 0.69310(3)
Cd3A_3 Cd 0.57596(8) 0.96372(5) 0.69310(3)
Cd4_2 Cd -1.50120(9) 1.68616(6) 0.23099(4)
Cd4_3 Cd -0.50120(9) 0.68616(6) 1.23099(4)
Cd4A_2 Cd -0.49880(9) 1.31384(6) -0.23099(4)
Cd4A_3 Cd 0.50120(9) 0.31384(6) 0.76901(4)
Cd5_2 Cd -1.67622(8) 1.52314(5) 0.28797(3)
Cd5_3 Cd -0.67622(8) 0.52314(5) 1.28797(3)
Cd5_4 Cd -0.67622(8) 1.52314(5) 0.28797(3)
Cd5A_2 Cd -0.32378(8) 0.47686(5) 0.71203(3)
Cd5A_3 Cd -0.32378(8) 1.47686(5) -0.28797(3)
Cd5A_4 Cd 0.67622(8) 0.47686(5) 0.71203(3)
Cd6_2 Cd -1.5000 1.0000 0.5000
O3_2 O 0.4365(8) 0.9882(5) 0.2200(3)
O3A_2 O -1.4365(8) 1.0118(5) 0.7800(3)
O4_2 O 0.3409(10) 1.0482(9) 0.1357(5)
O4A_2 O -1.3409(10) 0.9518(9) 0.8643(5)
O6_2 O 0.4299(10) 0.4342(7) 0.2242(4)
O6A_2 O -1.4299(10) 1.5658(7) 0.7758(4)
O7_2 O -1.0886(9) 1.4643(7) 0.1864(4)
O7A_2 O 0.0886(9) 0.5357(7) 0.8136(4)
O8_2 O -0.9662(9) 1.4029(7) 0.1162(4)
O8A_2 O -0.0338(9) 0.5971(7) 0.8838(4)
O9_2 O -0.1676(11) 0.4131(7) 0.8360(4)
O9A_2 O -0.8324(11) 1.5869(7) 0.1640(4)
O10_2 O -1.3187(9) 1.3689(5) 0.7939(3)
O10A_2 O 0.3187(9) 0.6311(5) 0.2061(3)
O11_2 O -1.3828(13) 1.1883(7) 0.8177(5)
O11A_2 O 0.3828(13) 0.8117(7) 0.1823(5)
O12_2 O -1.1827(12) 1.1282(9) 0.8434(6)
O12A_2 O 0.1827(12) 0.8718(9) 0.1566(6)
O17_2 O -1.5472(8) 0.9493(6) 0.6028(4)
O17A_2 O 0.5472(8) 1.0507(6) 0.3972(4)
O18_2 O -1.6560(9) 0.9784(7) 0.6860(4)
O18A_2 O 0.6560(9) 1.0216(7) 0.3140(4)
O19_2 O -1.1499(9) 0.9250(5) 0.7221(4)
O19A_2 O 0.1499(9) 1.0750(5) 0.2779(4)
O20_2 O -1.2379(9) 0.9145(7) 0.6391(4)
O20A_2 O 0.2379(9) 1.0855(7) 0.3609(4)
O21_2 O -1.5045(8) 1.5197(7) 0.6596(4)
O21A_2 O 0.5045(8) 0.4803(7) 0.3404(4)
O22_2 O -1.6235(10) 1.4377(7) 0.7224(4)
O22A_2 O 0.6235(10) 0.5623(7) 0.2776(4)
O23_2 O -1.1202(8) 1.5113(5) 0.7149(3)
O23A_2 O 0.1202(8) 0.4887(5) 0.2851(3)
O24_2 O -1.2112(8) 1.5797(6) 0.6311(4)
O24A_2 O 0.2112(8) 0.4203(6) 0.3689(4)
loop_
_geom_bond_atom_site_label_1
_geom_bond_atom_site_label_2
_geom_bond_site_symmetry_1
_geom_bond_site_symmetry_2
Cd1 O1 1_555 1_555
Cd2 O5 1_555 1_555
Cd3 O14 1_555 1_555
Cd4 O15 1_555 1_555
Cd5 O16 1_555 1_555
Cd6 O17 1_555 1_555
C1 C2 1_555 1_555
C2 C3 1_555 1_555
C3 H1 1_555 1_555
C4 C3 1_555 1_555
C5 C4 1_555 1_555
H2 C5 1_555 1_555
C6 C5 1_555 1_555
C7 C2 1_555 1_555
H3 C7 1_555 1_555
C8 C6 1_555 1_555
C9 C10 1_555 1_555
C10 C11 1_555 1_555
C11 H4 1_555 1_555
C12 C11 1_555 1_555
C13 C12 1_555 1_555
H5 C13 1_555 1_555
C14 C13 1_555 1_555
C15 C10 1_555 1_555
H6 C15 1_555 1_555
C16 C14 1_555 1_555
C17 C12 1_555 1_555
C18 C17 1_555 1_555
H7 C18 1_555 1_555
C19 C18 1_555 1_555
C20 C19 1_555 1_555
C21 C20 1_555 1_555
H8 C21 1_555 1_555
C22 C4 1_555 1_555
C23 C19 1_555 1_555
C24 C20 1_555 1_555
C25 C26 1_555 1_555
C26 C27 1_555 1_555
C27 C28 1_555 1_555
C28 H9 1_555 1_555
C29 C28 1_555 1_555
C30 C29 1_555 1_555
C31 C26 1_555 1_555
H10 C31 1_555 1_555
C32 C27 1_555 1_555
C33 C30 1_555 1_555
C34 C33 1_555 1_555
H11 C34 1_555 1_555
C35 C34 1_555 1_555
C36 C35 1_555 1_555
H12 C36 1_555 1_555
C37 C36 1_555 1_555
C38 C33 1_555 1_555
H13 C38 1_555 1_555
C39 C37 1_555 1_555
C40 C35 1_555 1_555
C41 C29 1_555 1_555
C42 C41 1_555 1_555
H14 C42 1_555 1_555
C43 C42 1_555 1_555
C44 C43 1_555 1_555
H15 C44 1_555 1_555
C45 C44 1_555 1_555
C46 C41 1_555 1_555
H16 C46 1_555 1_555
C47 C45 1_555 1_555
C48 C43 1_555 1_555
C49 H17 1_555 1_555
C50 H18 1_555 1_555
H19 C50 1_555 1_555
H20 C50 1_555 1_555
C51 H21 1_555 1_555
H22 C51 1_555 1_555
H23 C51 1_555 1_555
C52 H24 1_555 1_555
C53 H25 1_555 1_555
H26 C53 1_555 1_555
H27 C53 1_555 1_555
C54 H28 1_555 1_555
H29 C54 1_555 1_555
H30 C54 1_555 1_555
N1 C49 1_555 1_555
N2 C52 1_555 1_555
O1 C1 1_555 1_555
O2 Cd1 1_555 1_555
O3 C8 1_555 1_555
O4 C8 1_555 1_555
O5 C9 1_555 1_555
O6 C9 1_555 1_555
O7 C16 1_555 1_555
O8 C16 1_555 1_555
O9 C23 1_555 1_555
O10 C23 1_555 1_555
O11 C24 1_555 1_555
O12 C24 1_555 1_555
O13 Cd1 1_555 1_555
O14 C25 1_555 1_555
O15 C32 1_555 1_555
O16 C32 1_555 1_555
O17 C39 1_555 1_555
O18 C39 1_555 1_555
O19 C40 1_555 1_555
O20 C40 1_555 1_555
O21 C47 1_555 1_555
O22 C47 1_555 1_555
O23 C48 1_555 1_555
O24 C48 1_555 1_555
O25 Cd4 1_555 1_555
O26 Cd6 1_555 1_555
O27 Cd2 1_555 1_555
O28 Cd6 1_555 1_555
O29 Cd3 1_555 1_555
O30 Cd4 1_555 1_555
Cd1A O1A 1_555 1_555
Cd2A O23 1_555 1_555
Cd3A O14A 1_555 1_555
Cd4A O15A 1_555 1_555
Cd5A O16A 1_555 1_555
C1A C2A 1_555 1_555
C2A C3A 1_555 1_555
C3A H1A 1_555 1_555
C4A C3A 1_555 1_555
C5A C4A 1_555 1_555
H2A C5A 1_555 1_555
C6A C5A 1_555 1_555
C7A C2A 1_555 1_555
H3A C7A 1_555 1_555
C8A C6A 1_555 1_555
C9A C10A 1_555 1_555
C10A C11A 1_555 1_555
C11A H4A 1_555 1_555
C12A C11A 1_555 1_555
C13A C12A 1_555 1_555
H5A C13A 1_555 1_555
C14A C13A 1_555 1_555
C15A C10A 1_555 1_555
H6A C15A 1_555 1_555
C16A C14A 1_555 1_555
C17A C12A 1_555 1_555
C18A C17A 1_555 1_555
H7A C18A 1_555 1_555
C19A C18A 1_555 1_555
C20A C19A 1_555 1_555
C21A C20A 1_555 1_555
H8A C21A 1_555 1_555
C22A C4A 1_555 1_555
C23A C19A 1_555 1_555
C24A C20A 1_555 1_555
C25A C26A 1_555 1_555
C26A C27A 1_555 1_555
C27A C28A 1_555 1_555
C28A H9A 1_555 1_555
C29A C28A 1_555 1_555
C30A C29A 1_555 1_555
C31A C26A 1_555 1_555
H10A C31A 1_555 1_555
C32A C27A 1_555 1_555
C33A C30A 1_555 1_555
C34A C33A 1_555 1_555
H11A C34A 1_555 1_555
C35A C34A 1_555 1_555
C36A C35A 1_555 1_555
H12A C36A 1_555 1_555
C37A C36A 1_555 1_555
C38A C33A 1_555 1_555
H13A C38A 1_555 1_555
C39A C37A 1_555 1_555
C40A C35A 1_555 1_555
C41A C29A 1_555 1_555
C42A C41A 1_555 1_555
H14A C42A 1_555 1_555
C43A C42A 1_555 1_555
C44A C43A 1_555 1_555
H15A C44A 1_555 1_555
C45A C44A 1_555 1_555
C46A C41A 1_555 1_555
H16A C46A 1_555 1_555
C47A C45A 1_555 1_555
C48A C43A 1_555 1_555
C49A H17A 1_555 1_555
C50A H18A 1_555 1_555
H19A C50A 1_555 1_555
H20A C50A 1_555 1_555
C51A H21A 1_555 1_555
H22A C51A 1_555 1_555
H23A C51A 1_555 1_555
C52A H24A 1_555 1_555
C53A H25A 1_555 1_555
H26A C53A 1_555 1_555
H27A C53A 1_555 1_555
C54A H28A 1_555 1_555
H29A C54A 1_555 1_555
H30A C54A 1_555 1_555
N1A C49A 1_555 1_555
N2A C52A 1_555 1_555
O1A C1A 1_555 1_555
O2A Cd1A 1_555 1_555
O3A C8A 1_555 1_555
O4A C8A 1_555 1_555
O5A Cd2A 1_555 1_555
O6A C9A 1_555 1_555
O7A C16A 1_555 1_555
O8A C16A 1_555 1_555
O9A C23A 1_555 1_555
O10A C23A 1_555 1_555
O11A C24A 1_555 1_555
O12A C24A 1_555 1_555
O13A Cd1A 1_555 1_555
O14A C25A 1_555 1_555
O15A C32A 1_555 1_555
O16A C32A 1_555 1_555
O17A C39A 1_555 1_555
O18A C39A 1_555 1_555
O19A C40A 1_555 1_555
O20A C40A 1_555 1_555
O21A C47A 1_555 1_555
O22A C47A 1_555 1_555
O23A Cd2 1_555 1_555
O24A C48A 1_555 1_555
O25A Cd4A 1_555 1_555
O27A Cd2A 1_555 1_555
O29A Cd3A 1_555 1_555
O30A Cd4A 1_555 1_555
O26A Cd6 1_555 1_555
O28A Cd6 1_555 1_555
Cd1_2 O3 1_555 1_555
Cd1_3 O12A 1_555 1_555
Cd1A_2 O12 1_555 1_555
Cd1A_3 O19 1_555 1_555
Cd2_2 O9A 1_555 1_555
Cd2_3 O7 1_555 1_555
Cd2A_2 O7A 1_555 1_555
Cd2A_3 O9 1_555 1_555
Cd3_2 O17A 1_555 1_555
Cd3_3 O3 1_555 1_555
Cd3A_2 O20 1_555 1_555
Cd3A_3 O17 1_555 1_555
Cd4_2 O22A 1_555 1_555
Cd4_3 O10A 1_555 1_555
Cd4A_2 O10 1_555 1_555
Cd4A_3 O22 1_555 1_555
Cd5_2 O21A 1_555 1_555
Cd5_3 O10A 1_555 1_555
Cd5_4 O6 1_555 1_555
Cd5A_2 O23 1_555 1_555
Cd5A_3 O10 1_555 1_555
Cd5A_4 O21 1_555 1_555
Cd6_2 O17A 1_555 1_555
O3_2 Cd1 1_555 1_555
O3A_2 Cd1A 1_555 1_555
O4_2 Cd1 1_555 1_555
O4A_2 Cd1A 1_555 1_555
O6_2 Cd5 1_555 1_555
O6A_2 Cd5A 1_555 1_555
O7_2 Cd2 1_555 1_555
O7A_2 Cd2A 1_555 1_555
O8_2 Cd2 1_555 1_555
O8A_2 Cd2A 1_555 1_555
O9_2 Cd2A 1_555 1_555
O9A_2 Cd2 1_555 1_555
O10_2 Cd4A 1_555 1_555
O10A_2 Cd4 1_555 1_555
O11_2 Cd4A 1_555 1_555
O11A_2 Cd4 1_555 1_555
O12_2 Cd1A 1_555 1_555
O12A_2 Cd1 1_555 1_555
O17_2 Cd3A 1_555 1_555
O17A_2 Cd3 1_555 1_555
O18_2 Cd3A 1_555 1_555
O18A_2 Cd3 1_555 1_555
O19_2 Cd1A 1_555 1_555
O19A_2 Cd1 1_555 1_555
O20_2 Cd3A 1_555 1_555
O20A_2 Cd3 1_555 1_555
O21_2 Cd5A 1_555 1_555
O21A_2 Cd5 1_555 1_555
O22_2 Cd4A 1_555 1_555
O22A_2 Cd4 1_555 1_555
O23_2 Cd5A 1_555 1_555
O23A_2 Cd5 1_555 1_555
O24_2 Cd5A 1_555 1_555
O24A_2 Cd5 1_555 1_555
Cd3 O3_2 1_555 1_555
Cd5 O10A_2 1_555 1_555
Cd6 O17A_2 1_555 1_555
C1 O2 1_555 1_555
C6 C7 1_555 1_555
C14 C15 1_555 1_555
C17 C22 1_555 1_555
C21 C22 1_555 1_555
C25 O13 1_555 1_555
C30 C31 1_555 1_555
C37 C38 1_555 1_555
C45 C46 1_555 1_555
C49 O25 1_555 1_555
C50 N1 1_555 1_555
C51 N1 1_555 1_555
C52 O29 1_555 1_555
C53 N2 1_555 1_555
C54 N2 1_555 1_555
O4 Cd1_2 1_555 1_555
O8 Cd2_3 1_555 1_555
O11 Cd4A_2 1_555 1_555
O18 Cd3A_3 1_555 1_555
O24 Cd5A_2 1_555 1_555
Cd3A O3A_2 1_555 1_555
Cd5A O10_2 1_555 1_555
C1A O2A 1_555 1_555
C6A C7A 1_555 1_555
C9A O5A 1_555 1_555
C14A C15A 1_555 1_555
C17A C22A 1_555 1_555
C21A C22A 1_555 1_555
C25A O13A 1_555 1_555
C30A C31A 1_555 1_555
C37A C38A 1_555 1_555
C45A C46A 1_555 1_555
C48A O23A 1_555 1_555
C49A O25A 1_555 1_555
C50A N1A 1_555 1_555
C51A N1A 1_555 1_555
C52A O29A 1_555 1_555
C53A N2A 1_555 1_555
C54A N2A 1_555 1_555
O3A Cd1A_3 1_555 1_555
O3A Cd3A_2 1_555 1_555
O4A Cd1A_3 1_555 1_555
O6A Cd5A_2 1_555 1_555
O8A Cd2A_2 1_555 1_555
O11A Cd4_3 1_555 1_555
O18A Cd3_2 1_555 1_555
O19A Cd1_2 1_555 1_555
O20A Cd3_3 1_555 1_555
O23A Cd5_4 1_555 1_555
O24A Cd5_4 1_555 1_555
Cd6_2 O17_2 1_555 1_555

#END
