
#######################################################################
#
#                 Cambridge Crystallographic Data Centre
#                                CCDC 
#
#######################################################################
#
# If this CIF has been generated from an entry in the Cambridge 
# Structural Database, then it will include bibliographic, chemical, 
# crystal, experimental, refinement or atomic coordinate data resulting 
# from the CCDC's data processing and validation procedures.
#
#######################################################################

data_BOMMOH
_chemical_formula_moiety         'C9 H10 O15 S1 Zr1 4-'
_symmetry_cell_setting           cubic
_symmetry_space_group_name_H-M   'F d -3 m'
_symmetry_Int_Tables_number      227
_space_group_name_Hall           '-F 4vw 2vw 3'
loop_
_symmetry_equiv_pos_site_id
_symmetry_equiv_pos_as_xyz
1 x,y,z
2 3/4-x,1/4-y,1/2+z
3 1/4-x,1/2+y,3/4-z
4 1/2+x,3/4-y,1/4-z
5 z,x,y
6 1/2+z,3/4-x,1/4-y
7 3/4-z,1/4-x,1/2+y
8 1/4-z,1/2+x,3/4-y
9 y,z,x
10 1/4-y,1/2+z,3/4-x
11 1/2+y,3/4-z,1/4-x
12 3/4-y,1/4-z,1/2+x
13 3/4+y,1/4+x,1/2-z
14 -y,-x,-z
15 1/4+y,1/2-x,3/4+z
16 1/2-y,3/4+x,1/4+z
17 3/4+x,1/4+z,1/2-y
18 1/2-x,3/4+z,1/4+y
19 -x,-z,-y
20 1/4+x,1/2-z,3/4+y
21 3/4+z,1/4+y,1/2-x
22 1/4+z,1/2-y,3/4+x
23 1/2-z,3/4+y,1/4+x
24 -z,-y,-x
25 x,1/2+y,1/2+z
26 3/4-x,3/4-y,z
27 1/4-x,y,1/4-z
28 1/2+x,1/4-y,3/4-z
29 z,1/2+x,1/2+y
30 1/2+z,1/4-x,3/4-y
31 3/4-z,3/4-x,y
32 1/4-z,x,1/4-y
33 y,1/2+z,1/2+x
34 1/4-y,z,1/4-x
35 1/2+y,1/4-z,3/4-x
36 3/4-y,3/4-z,x
37 3/4+y,3/4+x,-z
38 -y,1/2-x,1/2-z
39 1/4+y,-x,1/4+z
40 1/2-y,1/4+x,3/4+z
41 3/4+x,3/4+z,-y
42 1/2-x,1/4+z,3/4+y
43 -x,1/2-z,1/2-y
44 1/4+x,-z,1/4+y
45 3/4+z,3/4+y,-x
46 1/4+z,-y,1/4+x
47 1/2-z,1/4+y,3/4+x
48 -z,1/2-y,1/2-x
49 1/2+x,y,1/2+z
50 1/4-x,1/4-y,z
51 3/4-x,1/2+y,1/4-z
52 x,3/4-y,3/4-z
53 1/2+z,x,1/2+y
54 z,3/4-x,3/4-y
55 1/4-z,1/4-x,y
56 3/4-z,1/2+x,1/4-y
57 1/2+y,z,1/2+x
58 3/4-y,1/2+z,1/4-x
59 y,3/4-z,3/4-x
60 1/4-y,1/4-z,x
61 1/4+y,1/4+x,-z
62 1/2-y,-x,1/2-z
63 3/4+y,1/2-x,1/4+z
64 -y,3/4+x,3/4+z
65 1/4+x,1/4+z,-y
66 -x,3/4+z,3/4+y
67 1/2-x,-z,1/2-y
68 3/4+x,1/2-z,1/4+y
69 1/4+z,1/4+y,-x
70 3/4+z,1/2-y,1/4+x
71 -z,3/4+y,3/4+x
72 1/2-z,-y,1/2-x
73 1/2+x,1/2+y,z
74 1/4-x,3/4-y,1/2+z
75 3/4-x,y,3/4-z
76 x,1/4-y,1/4-z
77 1/2+z,1/2+x,y
78 z,1/4-x,1/4-y
79 1/4-z,3/4-x,1/2+y
80 3/4-z,x,3/4-y
81 1/2+y,1/2+z,x
82 3/4-y,z,3/4-x
83 y,1/4-z,1/4-x
84 1/4-y,3/4-z,1/2+x
85 1/4+y,3/4+x,1/2-z
86 1/2-y,1/2-x,-z
87 3/4+y,-x,3/4+z
88 -y,1/4+x,1/4+z
89 1/4+x,3/4+z,1/2-y
90 -x,1/4+z,1/4+y
91 1/2-x,1/2-z,-y
92 3/4+x,-z,3/4+y
93 1/4+z,3/4+y,1/2-x
94 3/4+z,-y,3/4+x
95 -z,1/4+y,1/4+x
96 1/2-z,1/2-y,-x
97 -x,-y,-z
98 1/4+x,3/4+y,1/2-z
99 3/4+x,1/2-y,1/4+z
100 1/2-x,1/4+y,3/4+z
101 -z,-x,-y
102 1/2-z,1/4+x,3/4+y
103 1/4+z,3/4+x,1/2-y
104 3/4+z,1/2-x,1/4+y
105 -y,-z,-x
106 3/4+y,1/2-z,1/4+x
107 1/2-y,1/4+z,3/4+x
108 1/4+y,3/4+z,1/2-x
109 1/4-y,3/4-x,1/2+z
110 y,x,z
111 3/4-y,1/2+x,1/4-z
112 1/2+y,1/4-x,3/4-z
113 1/4-x,3/4-z,1/2+y
114 1/2+x,1/4-z,3/4-y
115 x,z,y
116 3/4-x,1/2+z,1/4-y
117 1/4-z,3/4-y,1/2+x
118 3/4-z,1/2+y,1/4-x
119 1/2+z,1/4-y,3/4-x
120 z,y,x
121 -x,1/2-y,1/2-z
122 1/4+x,1/4+y,-z
123 3/4+x,-y,3/4+z
124 1/2-x,3/4+y,1/4+z
125 -z,1/2-x,1/2-y
126 1/2-z,3/4+x,1/4+y
127 1/4+z,1/4+x,-y
128 3/4+z,-x,3/4+y
129 -y,1/2-z,1/2-x
130 3/4+y,-z,3/4+x
131 1/2-y,3/4+z,1/4+x
132 1/4+y,1/4+z,-x
133 1/4-y,1/4-x,z
134 y,1/2+x,1/2+z
135 3/4-y,x,3/4-z
136 1/2+y,3/4-x,1/4-z
137 1/4-x,1/4-z,y
138 1/2+x,3/4-z,1/4-y
139 x,1/2+z,1/2+y
140 3/4-x,z,3/4-y
141 1/4-z,1/4-y,x
142 3/4-z,y,3/4-x
143 1/2+z,3/4-y,1/4-x
144 z,1/2+y,1/2+x
145 1/2-x,-y,1/2-z
146 3/4+x,3/4+y,-z
147 1/4+x,1/2-y,3/4+z
148 -x,1/4+y,1/4+z
149 1/2-z,-x,1/2-y
150 -z,1/4+x,1/4+y
151 3/4+z,3/4+x,-y
152 1/4+z,1/2-x,3/4+y
153 1/2-y,-z,1/2-x
154 1/4+y,1/2-z,3/4+x
155 -y,1/4+z,1/4+x
156 3/4+y,3/4+z,-x
157 3/4-y,3/4-x,z
158 1/2+y,x,1/2+z
159 1/4-y,1/2+x,3/4-z
160 y,1/4-x,1/4-z
161 3/4-x,3/4-z,y
162 x,1/4-z,1/4-y
163 1/2+x,z,1/2+y
164 1/4-x,1/2+z,3/4-y
165 3/4-z,3/4-y,x
166 1/4-z,1/2+y,3/4-x
167 z,1/4-y,1/4-x
168 1/2+z,y,1/2+x
169 1/2-x,1/2-y,-z
170 3/4+x,1/4+y,1/2-z
171 1/4+x,-y,1/4+z
172 -x,3/4+y,3/4+z
173 1/2-z,1/2-x,-y
174 -z,3/4+x,3/4+y
175 3/4+z,1/4+x,1/2-y
176 1/4+z,-x,1/4+y
177 1/2-y,1/2-z,-x
178 1/4+y,-z,1/4+x
179 -y,3/4+z,3/4+x
180 3/4+y,1/4+z,1/2-x
181 3/4-y,1/4-x,1/2+z
182 1/2+y,1/2+x,z
183 1/4-y,x,1/4-z
184 y,3/4-x,3/4-z
185 3/4-x,1/4-z,1/2+y
186 x,3/4-z,3/4-y
187 1/2+x,1/2+z,y
188 1/4-x,z,1/4-y
189 3/4-z,1/4-y,1/2+x
190 1/4-z,y,1/4-x
191 z,3/4-y,3/4-x
192 1/2+z,1/2+y,x
_cell_length_a                   35.324(17)
_cell_length_b                   35.324(17)
_cell_length_c                   35.324(17)
_cell_angle_alpha                90
_cell_angle_beta                 90
_cell_angle_gamma                90
_cell_volume                     44076.8
loop_
_atom_site_label
_atom_site_type_symbol
_atom_site_fract_x
_atom_site_fract_y
_atom_site_fract_z
Zr1 Zr 0.52235(2) 0.45304(2) 0.45304(2)
S1 S 0.5961(3) 0.4266(2) 0.4266(2)
O1 O 0.6097(14) 0.4007(10) 0.4007(10)
O2 O 0.5705(5) 0.4116(4) 0.4621(6)
O3 O 0.6316(13) 0.4474(9) 0.4474(9)
O2JD O 0.5705(5) 0.4621(6) 0.4116(4)
O4 O 0.4718(3) 0.4718(3) 0.4718(3)
O5 O 0.49582(8) 0.45077(8) 0.39634(8)
C1 C 0.46751(12) 0.46751(12) 0.38222(17)
C2 C 0.46812(19) 0.41969(14) 0.33031(14)
C3 C 0.45209(13) 0.45209(13) 0.34628(18)
H1 H 0.491(3) 0.4082(19) 0.3418(19)
O5FB O 0.45077(8) 0.35366(8) 0.25418(8)
C1FB C 0.46751(12) 0.36778(17) 0.28249(12)
C2FB C 0.41969(14) 0.41969(14) 0.28188(19)
C3FB C 0.45209(13) 0.40372(18) 0.29791(13)
H1FB H 0.4082(19) 0.4082(19) 0.259(3)
O5AC O 0.35366(8) 0.49582(8) 0.29923(8)
C1AC C 0.36778(17) 0.46751(12) 0.28249(12)
C2AC C 0.41969(14) 0.46812(19) 0.33031(14)
C3AC C 0.40372(18) 0.45209(13) 0.29791(13)
H1AC H 0.4082(19) 0.491(3) 0.3418(19)
O5ED O 0.45077(8) 0.49582(8) 0.39634(8)
O5KE O 0.35366(8) 0.45077(8) 0.25418(8)
O5CG O 0.49582(8) 0.35366(8) 0.29923(8)
O6 O 0.5657(3) 0.4853(3) 0.4853(3)
O7 O 0.254(3) 0.254(3) 0.254(3)
O8 O 0.6693(11) 0.4367(11) 0.5347(10)
O9 O 0.4109(16) 0.4109(16) 0.4109(16)
loop_
_geom_bond_atom_site_label_1
_geom_bond_atom_site_label_2
_geom_bond_site_symmetry_1
_geom_bond_site_symmetry_2
S1 O1 1_555 1_555
O2 S1 1_555 1_555
O3 S1 1_555 1_555
O5 C1 1_555 1_555
C1 C3 1_555 1_555
C2 C3 1_555 1_555
C3 C2AC 1_555 1_555
H1 C2 1_555 1_555
O2JD S1 1_555 1_555
O5FB C1FB 1_555 1_555
C1FB C3FB 1_555 1_555
C2FB C3FB 1_555 1_555
C3FB C2 1_555 1_555
H1FB C2FB 1_555 1_555
O5AC C1AC 1_555 1_555
C1AC C3AC 1_555 1_555
C2AC C3AC 1_555 1_555
C3AC C2FB 1_555 1_555
H1AC C2AC 1_555 1_555
O5ED C1 1_555 1_555
O5KE C1AC 1_555 1_555
O5CG C1FB 1_555 1_555

#END
