
#######################################################################
#
#                 Cambridge Crystallographic Data Centre
#                                CCDC 
#
#######################################################################
#
# If this CIF has been generated from an entry in the Cambridge 
# Structural Database, then it will include bibliographic, chemical, 
# crystal, experimental, refinement or atomic coordinate data resulting 
# from the CCDC's data processing and validation procedures.
#
#######################################################################

data_CUFFUF
_chemical_formula_moiety         '(C36 H12 In3 O24 3-)n'
_symmetry_cell_setting           cubic
_symmetry_space_group_name_H-M   'I -4 3 d'
_symmetry_Int_Tables_number      220
_space_group_name_Hall           'I -4bd 2c 3'
loop_
_symmetry_equiv_pos_site_id
_symmetry_equiv_pos_as_xyz
1 x,y,z
2 1/2-x,-y,1/2+z
3 -x,1/2+y,1/2-z
4 1/2+x,1/2-y,-z
5 z,x,y
6 1/2+z,1/2-x,-y
7 1/2-z,-x,1/2+y
8 -z,1/2+x,1/2-y
9 y,z,x
10 -y,1/2+z,1/2-x
11 1/2+y,1/2-z,-x
12 1/2-y,-z,1/2+x
13 1/4+y,1/4+x,1/4+z
14 1/4-y,3/4-x,3/4+z
15 3/4+y,1/4-x,3/4-z
16 3/4-y,3/4+x,1/4-z
17 1/4+x,1/4+z,1/4+y
18 3/4-x,3/4+z,1/4-y
19 1/4-x,3/4-z,3/4+y
20 3/4+x,1/4-z,3/4-y
21 1/4+z,1/4+y,1/4+x
22 3/4+z,1/4-y,3/4-x
23 3/4-z,3/4+y,1/4-x
24 1/4-z,3/4-y,3/4+x
25 1/2+x,1/2+y,1/2+z
26 -x,1/2-y,z
27 1/2-x,y,-z
28 x,-y,1/2-z
29 1/2+z,1/2+x,1/2+y
30 z,-x,1/2-y
31 -z,1/2-x,y
32 1/2-z,x,-y
33 1/2+y,1/2+z,1/2+x
34 1/2-y,z,-x
35 y,-z,1/2-x
36 -y,1/2-z,x
37 3/4+y,3/4+x,3/4+z
38 3/4-y,1/4-x,1/4+z
39 1/4+y,3/4-x,1/4-z
40 1/4-y,1/4+x,3/4-z
41 3/4+x,3/4+z,3/4+y
42 1/4-x,1/4+z,3/4-y
43 3/4-x,1/4-z,1/4+y
44 1/4+x,3/4-z,1/4-y
45 3/4+z,3/4+y,3/4+x
46 1/4+z,3/4-y,1/4-x
47 1/4-z,1/4+y,3/4-x
48 3/4-z,1/4-y,1/4+x
_cell_length_a                   20.3878(4)
_cell_length_b                   20.3878(4)
_cell_length_c                   20.3878(4)
_cell_angle_alpha                90
_cell_angle_beta                 90
_cell_angle_gamma                90
_cell_volume                     8474.44
loop_
_atom_site_label
_atom_site_type_symbol
_atom_site_fract_x
_atom_site_fract_y
_atom_site_fract_z
_atom_site_U_iso_or_equiv
_atom_site_thermal_displace_type
In1 In 1.0000 0.7500 0.6250 0.0276 Uani
O1 O 0.9459(2) 0.6680(2) 0.5845(2) 0.0373 Uani
O2 O 1.0360(2) 0.6868(3) 0.5312(2) 0.0403 Uani
C1 C 0.9703(3) 0.5972(3) 0.4970(4) 0.0363 Uani
C2 C 1.0105(3) 0.5834(3) 0.4424(3) 0.0330 Uani
C3 C 0.9856(3) 0.6539(3) 0.5396(3) 0.0327 Uani
In1K In 0.7500 0.3750 0.5000 0.0276 Uani
In1E In 1.1250 0.5000 0.2500 0.0276 Uani
In1G In 1.3750 0.5000 0.7500 0.0276 Uani
In1J In 1.2500 0.8750 1.0000 0.0276 Uani
In1I In 1.2500 1.1250 0.5000 0.0276 Uani
In1F In 0.8750 1.0000 0.2500 0.0276 Uani
In1D In 0.6250 1.0000 0.7500 0.0276 Uani
In1H In 0.7500 0.6250 1.0000 0.0276 Uani
O1K O 0.8320(2) 0.4155(2) 0.4459(2) 0.0373 Uani
O1E O 1.0845(2) 0.5541(2) 0.3320(2) 0.0373 Uani
O1O O 1.0820(2) 0.6959(2) 0.6655(2) 0.0373 Uani
O1U O 1.3345(2) 0.5820(2) 0.8041(2) 0.0373 Uani
O1P O 1.1959(2) 0.8345(2) 0.9180(2) 0.0373 Uani
O1Y O 1.0541(2) 0.8320(2) 0.5845(2) 0.0373 Uani
O1FA O 1.1680(2) 1.0845(2) 0.4459(2) 0.0373 Uani
O1EA O 0.9155(2) 0.9459(2) 0.3320(2) 0.0373 Uani
O1LA O 0.9180(2) 0.8041(2) 0.6655(2) 0.0373 Uani
O1TA O 0.6655(2) 0.9180(2) 0.8041(2) 0.0373 Uani
O1PA O 0.8041(2) 0.6655(2) 0.9180(2) 0.0373 Uani
O1Q O 0.8041(2) 0.3345(2) 0.5820(2) 0.0373 Uani
O1HA O 0.6680(2) 0.4155(2) 0.5541(2) 0.0373 Uani
O1NA O 0.6959(2) 0.3345(2) 0.4180(2) 0.0373 Uani
O1V O 1.1655(2) 0.4180(2) 0.3041(2) 0.0373 Uani
O1BA O 1.0845(2) 0.4459(2) 0.1680(2) 0.0373 Uani
O1UA O 1.1655(2) 0.5820(2) 0.1959(2) 0.0373 Uani
O2K O 0.8132(3) 0.4688(2) 0.5360(2) 0.0403 Uani
O2E O 1.0312(2) 0.4640(2) 0.3132(3) 0.0403 Uani
O2O O 1.0632(3) 0.7860(2) 0.7188(2) 0.0403 Uani
O2U O 1.2812(2) 0.5632(3) 0.7140(2) 0.0403 Uani
O2P O 1.2860(2) 0.7812(2) 0.9368(3) 0.0403 Uani
O2Y O 0.9640(2) 0.8132(3) 0.5312(2) 0.0403 Uani
O2FA O 1.1868(3) 1.0312(2) 0.5360(2) 0.0403 Uani
O2EA O 0.9688(2) 1.0360(2) 0.3132(3) 0.0403 Uani
O2LA O 0.9368(3) 0.7140(2) 0.7188(2) 0.0403 Uani
O2TA O 0.7188(2) 0.9368(3) 0.7140(2) 0.0403 Uani
O2PA O 0.7140(2) 0.7188(2) 0.9368(3) 0.0403 Uani
O2Q O 0.7140(2) 0.2812(2) 0.5632(3) 0.0403 Uani
O2HA O 0.6868(3) 0.4688(2) 0.4640(2) 0.0403 Uani
O2NA O 0.7860(2) 0.2812(2) 0.4368(3) 0.0403 Uani
O2V O 1.2188(2) 0.4368(3) 0.2140(2) 0.0403 Uani
O2BA O 1.0312(2) 0.5360(2) 0.1868(3) 0.0403 Uani
O2UA O 1.2188(2) 0.5632(3) 0.2860(2) 0.0403 Uani
C1E C 0.9970(4) 0.5297(3) 0.4028(3) 0.0363 Uani
C1K C 0.9028(3) 0.5030(4) 0.4703(3) 0.0363 Uani
C1O C 1.1528(3) 0.7203(3) 0.7530(4) 0.0363 Uani
C1P C 1.2203(3) 0.7470(4) 0.8472(3) 0.0363 Uani
C1U C 1.2470(4) 0.6528(3) 0.7797(3) 0.0363 Uani
C1Y C 1.0297(3) 0.9028(3) 0.4970(4) 0.0363 Uani
C1EA C 1.0030(4) 0.9703(3) 0.4028(3) 0.0363 Uani
C1FA C 1.0972(3) 0.9970(4) 0.4703(3) 0.0363 Uani
C1LA C 0.8472(3) 0.7797(3) 0.7530(4) 0.0363 Uani
C1PA C 0.7797(3) 0.7530(4) 0.8472(3) 0.0363 Uani
C1TA C 0.7530(4) 0.8472(3) 0.7797(3) 0.0363 Uani
C2E C 0.9424(3) 0.4895(3) 0.4166(3) 0.0330 Uani
C2K C 0.9166(3) 0.5576(3) 0.5105(3) 0.0330 Uani
C2O C 1.1666(3) 0.7605(3) 0.8076(3) 0.0330 Uani
C2P C 1.2605(3) 0.6924(3) 0.8334(3) 0.0330 Uani
C2U C 1.1924(3) 0.6666(3) 0.7395(3) 0.0330 Uani
C2Y C 0.9895(3) 0.9166(3) 0.4424(3) 0.0330 Uani
C2EA C 1.0576(3) 1.0105(3) 0.4166(3) 0.0330 Uani
C2FA C 1.0834(3) 0.9424(3) 0.5105(3) 0.0330 Uani
C2LA C 0.8334(3) 0.7395(3) 0.8076(3) 0.0330 Uani
C2PA C 0.7395(3) 0.8076(3) 0.8334(3) 0.0330 Uani
C2TA C 0.8076(3) 0.8334(3) 0.7395(3) 0.0330 Uani
C3K C 0.8461(3) 0.4604(3) 0.4856(3) 0.0327 Uani
C3E C 1.0396(3) 0.5144(3) 0.3461(3) 0.0327 Uani
C3O C 1.0961(3) 0.7356(3) 0.7104(3) 0.0327 Uani
C3U C 1.2896(3) 0.5961(3) 0.7644(3) 0.0327 Uani
C3P C 1.2356(3) 0.7896(3) 0.9039(3) 0.0327 Uani
C3Y C 1.0144(3) 0.8461(3) 0.5396(3) 0.0327 Uani
C3FA C 1.1539(3) 1.0396(3) 0.4856(3) 0.0327 Uani
C3EA C 0.9604(3) 0.9856(3) 0.3461(3) 0.0327 Uani
C3LA C 0.9039(3) 0.7644(3) 0.7104(3) 0.0327 Uani
C3TA C 0.7104(3) 0.9039(3) 0.7644(3) 0.0327 Uani
C3PA C 0.7644(3) 0.7104(3) 0.9039(3) 0.0327 Uani
loop_
_atom_site_aniso_label
_atom_site_aniso_U_11
_atom_site_aniso_U_22
_atom_site_aniso_U_33
_atom_site_aniso_U_23
_atom_site_aniso_U_13
_atom_site_aniso_U_12
In1 0.0276(3) 0.0276(3) 0.0277(5) 0.000 0.000 0.000
O1 0.041(3) 0.038(3) 0.033(3) -0.009(2) 0.006(2) -0.008(2)
O2 0.038(3) 0.045(3) 0.038(3) -0.009(2) 0.004(2) -0.007(2)
C1 0.040(3) 0.032(3) 0.037(3) -0.004(3) 0.000(3) -0.001(2)
C2 0.031(4) 0.035(3) 0.033(3) -0.002(3) 0.002(2) -0.004(3)
C3 0.035(4) 0.035(3) 0.028(3) -0.001(3) -0.002(3) -0.003(3)
In1K 0.0276 0.0277 0.0276 0 0 0
In1E 0.0277 0.0276 0.0276 0 0 0
In1G 0.0277 0.0276 0.0276 0 0 0
In1J 0.0276 0.0277 0.0276 0 0 0
In1I 0.0276 0.0277 0.0276 0 0 0
In1F 0.0277 0.0276 0.0276 0 0 0
In1D 0.0277 0.0276 0.0276 0 0 0
In1H 0.0276 0.0277 0.0276 0 0 0
O1K 0.038 0.033 0.041 -0.006 0.008 -0.009
O1E 0.033 0.041 0.038 -0.008 0.009 -0.006
O1O 0.038 0.041 0.033 -0.006 -0.009 0.008
O1U 0.033 0.038 0.041 -0.008 -0.006 0.009
O1P 0.041 0.033 0.038 -0.009 -0.008 0.006
O1Y 0.041 0.038 0.033 0.009 -0.006 -0.008
O1FA 0.038 0.033 0.041 0.006 -0.008 -0.009
O1EA 0.033 0.041 0.038 0.008 -0.009 -0.006
O1LA 0.038 0.041 0.033 0.006 0.009 0.008
O1TA 0.033 0.038 0.041 0.008 0.006 0.009
O1PA 0.041 0.033 0.038 0.009 0.008 0.006
O1Q 0.041 0.033 0.038 0.009 -0.008 -0.006
O1HA 0.038 0.033 0.041 0.006 0.008 0.009
O1NA 0.041 0.033 0.038 -0.009 -0.008 0.006
O1V 0.033 0.038 0.041 0.008 0.006 0.009
O1BA 0.033 0.041 0.038 -0.008 -0.009 0.006
O1UA 0.033 0.038 0.041 0.008 -0.006 -0.009
O2K 0.045 0.038 0.038 -0.004 0.007 -0.009
O2E 0.038 0.038 0.045 -0.007 0.009 -0.004
O2O 0.045 0.038 0.038 -0.004 -0.009 0.007
O2U 0.038 0.045 0.038 -0.007 -0.004 0.009
O2P 0.038 0.038 0.045 -0.009 -0.007 0.004
O2Y 0.038 0.045 0.038 0.009 -0.004 -0.007
O2FA 0.045 0.038 0.038 0.004 -0.007 -0.009
O2EA 0.038 0.038 0.045 0.007 -0.009 -0.004
O2LA 0.045 0.038 0.038 0.004 0.009 0.007
O2TA 0.038 0.045 0.038 0.007 0.004 0.009
O2PA 0.038 0.038 0.045 0.009 0.007 0.004
O2Q 0.038 0.038 0.045 0.009 -0.007 -0.004
O2HA 0.045 0.038 0.038 0.004 0.007 0.009
O2NA 0.038 0.038 0.045 -0.009 -0.007 0.004
O2V 0.038 0.045 0.038 0.007 0.004 0.009
O2BA 0.038 0.038 0.045 -0.007 -0.009 0.004
O2UA 0.038 0.045 0.038 0.007 -0.004 -0.009
C1E 0.037 0.04 0.032 -0.001 0.004 0
C1K 0.032 0.037 0.04 0 0.001 -0.004
C1O 0.032 0.04 0.037 0 -0.004 0.001
C1P 0.04 0.037 0.032 -0.004 -0.001 0
C1U 0.037 0.032 0.04 -0.001 0 0.004
C1Y 0.04 0.032 0.037 0.004 0 -0.001
C1EA 0.037 0.04 0.032 0.001 -0.004 0
C1FA 0.032 0.037 0.04 0 -0.001 -0.004
C1LA 0.032 0.04 0.037 0 0.004 0.001
C1PA 0.04 0.037 0.032 0.004 0.001 0
C1TA 0.037 0.032 0.04 0.001 0 0.004
C2E 0.033 0.031 0.035 -0.004 0.002 -0.002
C2K 0.035 0.033 0.031 -0.002 0.004 -0.002
C2O 0.035 0.031 0.033 -0.002 -0.002 0.004
C2P 0.031 0.033 0.035 -0.002 -0.004 0.002
C2U 0.033 0.035 0.031 -0.004 -0.002 0.002
C2Y 0.031 0.035 0.033 0.002 -0.002 -0.004
C2EA 0.033 0.031 0.035 0.004 -0.002 -0.002
C2FA 0.035 0.033 0.031 0.002 -0.004 -0.002
C2LA 0.035 0.031 0.033 0.002 0.002 0.004
C2PA 0.031 0.033 0.035 0.002 0.004 0.002
C2TA 0.033 0.035 0.031 0.004 0.002 0.002
C3K 0.035 0.028 0.035 0.002 0.003 -0.001
C3E 0.028 0.035 0.035 -0.003 0.001 0.002
C3O 0.035 0.035 0.028 0.002 -0.001 0.003
C3U 0.028 0.035 0.035 -0.003 0.002 0.001
C3P 0.035 0.028 0.035 -0.001 -0.003 -0.002
C3Y 0.035 0.035 0.028 0.001 0.002 -0.003
C3FA 0.035 0.028 0.035 -0.002 -0.003 -0.001
C3EA 0.028 0.035 0.035 0.003 -0.001 0.002
C3LA 0.035 0.035 0.028 -0.002 0.001 0.003
C3TA 0.028 0.035 0.035 0.003 -0.002 0.001
C3PA 0.035 0.028 0.035 0.001 0.003 -0.002
loop_
_geom_bond_atom_site_label_1
_geom_bond_atom_site_label_2
_geom_bond_site_symmetry_1
_geom_bond_site_symmetry_2
In1 O1 1_555 1_555
O1 C3 1_555 1_555
O2 In1 1_555 1_555
C1 C2 1_555 1_555
C2 C1E 1_555 1_555
C3 O2 1_555 1_555
In1K O1K 1_555 1_555
In1E O1E 1_555 1_555
In1G O1U 1_555 1_555
In1J O1P 1_555 1_555
In1I O1FA 1_555 1_555
In1F O1EA 1_555 1_555
In1D O1TA 1_555 1_555
In1H O1PA 1_555 1_555
O1K C3K 1_555 1_555
O1E C3E 1_555 1_555
O1O In1 1_555 1_555
O1U C3U 1_555 1_555
O1P C3P 1_555 1_555
O1Y In1 1_555 1_555
O1FA C3FA 1_555 1_555
O1EA C3EA 1_555 1_555
O1LA In1 1_555 1_555
O1TA C3TA 1_555 1_555
O1PA C3PA 1_555 1_555
O1Q In1K 1_555 1_555
O1HA In1K 1_555 1_555
O1NA In1K 1_555 1_555
O1V In1E 1_555 1_555
O1BA In1E 1_555 1_555
O1UA In1E 1_555 1_555
O2K In1K 1_555 1_555
O2E In1E 1_555 1_555
O2O In1 1_555 1_555
O2U In1G 1_555 1_555
O2P In1J 1_555 1_555
O2Y In1 1_555 1_555
O2FA In1I 1_555 1_555
O2EA In1F 1_555 1_555
O2LA In1 1_555 1_555
O2TA In1D 1_555 1_555
O2PA In1H 1_555 1_555
O2Q In1K 1_555 1_555
O2HA In1K 1_555 1_555
O2NA In1K 1_555 1_555
O2V In1E 1_555 1_555
O2BA In1E 1_555 1_555
O2UA In1E 1_555 1_555
C1E C2E 1_555 1_555
C1K C2E 1_555 1_555
C1O C2O 1_555 1_555
C1P C2O 1_555 1_555
C1U C2P 1_555 1_555
C1Y C2Y 1_555 1_555
C1EA C2Y 1_555 1_555
C1FA C2EA 1_555 1_555
C1LA C2LA 1_555 1_555
C1PA C2LA 1_555 1_555
C1TA C2PA 1_555 1_555
C2K C1 1_555 1_555
C2P C1P 1_555 1_555
C2U C1O 1_555 1_555
C2EA C1EA 1_555 1_555
C2FA C1Y 1_555 1_555
C2PA C1PA 1_555 1_555
C2TA C1LA 1_555 1_555
C3K O2K 1_555 1_555
C3E O2E 1_555 1_555
C3O O1O 1_555 1_555
C3U O2U 1_555 1_555
C3P O2P 1_555 1_555
C3Y O1Y 1_555 1_555
C3FA O2FA 1_555 1_555
C3EA O2EA 1_555 1_555
C3LA O1LA 1_555 1_555
C3TA O2TA 1_555 1_555
C3PA O2PA 1_555 1_555
C1 C3 1_555 1_555
O2O C3O 1_555 1_555
O2Y C3Y 1_555 1_555
O2LA C3LA 1_555 1_555
C1E C3E 1_555 1_555
C1K C2K 1_555 1_555
C1K C3K 1_555 1_555
C1O C3O 1_555 1_555
C1P C3P 1_555 1_555
C1U C2U 1_555 1_555
C1U C3U 1_555 1_555
C1Y C3Y 1_555 1_555
C1EA C3EA 1_555 1_555
C1FA C2FA 1_555 1_555
C1FA C3FA 1_555 1_555
C1LA C3LA 1_555 1_555
C1PA C3PA 1_555 1_555
C1TA C2TA 1_555 1_555
C1TA C3TA 1_555 1_555

#END
