
#######################################################################
#
#                 Cambridge Crystallographic Data Centre
#                                CCDC 
#
#######################################################################
#
# If this CIF has been generated from an entry in the Cambridge 
# Structural Database, then it will include bibliographic, chemical, 
# crystal, experimental, refinement or atomic coordinate data resulting 
# from the CCDC's data processing and validation procedures.
#
#######################################################################

data_CUFFEP
_chemical_formula_moiety         '(C42 H12 In3 N1 O25 3-)n'
_symmetry_cell_setting           cubic
_symmetry_space_group_name_H-M   'I -4 3 d'
_symmetry_Int_Tables_number      220
_space_group_name_Hall           'I -4bd 2c 3'
loop_
_symmetry_equiv_pos_site_id
_symmetry_equiv_pos_as_xyz
1 x,y,z
2 1/2-x,-y,1/2+z
3 -x,1/2+y,1/2-z
4 1/2+x,1/2-y,-z
5 z,x,y
6 1/2+z,1/2-x,-y
7 1/2-z,-x,1/2+y
8 -z,1/2+x,1/2-y
9 y,z,x
10 -y,1/2+z,1/2-x
11 1/2+y,1/2-z,-x
12 1/2-y,-z,1/2+x
13 1/4+y,1/4+x,1/4+z
14 1/4-y,3/4-x,3/4+z
15 3/4+y,1/4-x,3/4-z
16 3/4-y,3/4+x,1/4-z
17 1/4+x,1/4+z,1/4+y
18 3/4-x,3/4+z,1/4-y
19 1/4-x,3/4-z,3/4+y
20 3/4+x,1/4-z,3/4-y
21 1/4+z,1/4+y,1/4+x
22 3/4+z,1/4-y,3/4-x
23 3/4-z,3/4+y,1/4-x
24 1/4-z,3/4-y,3/4+x
25 1/2+x,1/2+y,1/2+z
26 -x,1/2-y,z
27 1/2-x,y,-z
28 x,-y,1/2-z
29 1/2+z,1/2+x,1/2+y
30 z,-x,1/2-y
31 -z,1/2-x,y
32 1/2-z,x,-y
33 1/2+y,1/2+z,1/2+x
34 1/2-y,z,-x
35 y,-z,1/2-x
36 -y,1/2-z,x
37 3/4+y,3/4+x,3/4+z
38 3/4-y,1/4-x,1/4+z
39 1/4+y,3/4-x,1/4-z
40 1/4-y,1/4+x,3/4-z
41 3/4+x,3/4+z,3/4+y
42 1/4-x,1/4+z,3/4-y
43 3/4-x,1/4-z,1/4+y
44 1/4+x,3/4-z,1/4-y
45 3/4+z,3/4+y,3/4+x
46 1/4+z,3/4-y,1/4-x
47 1/4-z,1/4+y,3/4-x
48 3/4-z,1/4-y,1/4+x
_cell_length_a                   20.46390(10)
_cell_length_b                   20.46390(10)
_cell_length_c                   20.46390(10)
_cell_angle_alpha                90
_cell_angle_beta                 90
_cell_angle_gamma                90
_cell_volume                     8569.69
loop_
_atom_site_label
_atom_site_type_symbol
_atom_site_fract_x
_atom_site_fract_y
_atom_site_fract_z
_atom_site_U_iso_or_equiv
_atom_site_thermal_displace_type
N1 N 0.0000 0.2500 0.8750 0.2000 Uani
C4 C 0.016(3) 0.321(2) 0.832(3) 0.2530 Uiso
C4N C 0.071(2) 0.234(3) 0.918(3) 0.2530 Uiso
C4Y C -0.016(3) 0.179(2) 0.832(3) 0.2530 Uiso
C4MA C -0.071(2) 0.266(3) 0.918(3) 0.2530 Uiso
O3 O 0.0000 0.2500 0.731(7) 0.9800 Uiso
C5 C -0.0408(17) 0.2980(18) 0.7682(19) 0.1840 Uiso
C5Y C 0.0408(17) 0.2020(18) 0.7682(19) 0.1840 Uiso
In1 In 0.0000 0.2500 0.3750 0.0352 Uani
O1 O -0.0829(3) 0.3039(3) 0.3360(3) 0.0520 Uani
O2 O -0.0628(3) 0.2133(3) 0.2807(3) 0.0557 Uani
C1 C -0.1540(4) 0.2802(5) 0.2476(4) 0.0403 Uani
C2 C -0.1920(4) 0.3326(4) 0.2604(4) 0.0450 Uani
C3 C -0.0961(4) 0.2638(5) 0.2902(4) 0.0510 Uani
In1J In -0.2500 0.1250 0.0000 0.0352 Uani
In1G In -0.3750 0.5000 0.2500 0.0352 Uani
In1E In -0.1250 0.5000 0.7500 0.0352 Uani
In1K In 0.2500 0.6250 0.5000 0.0352 Uani
In1H In 0.2500 0.3750 0.0000 0.0352 Uani
In1D In 0.3750 0.0000 0.2500 0.0352 Uani
In1F In 0.1250 0.0000 0.7500 0.0352 Uani
In1I In -0.2500 -0.1250 0.5000 0.0352 Uani
O1J O -0.1961(3) 0.1640(3) 0.0829(3) 0.0520 Uani
O1G O -0.3360(3) 0.4171(3) 0.1961(3) 0.0520 Uani
O1N O 0.0539(3) 0.3329(3) 0.4140(3) 0.0520 Uani
O1W O -0.0860(3) 0.4461(3) 0.6671(3) 0.0520 Uani
O1P O 0.1671(3) 0.5860(3) 0.5539(3) 0.0520 Uani
O1Y O 0.0829(3) 0.1961(3) 0.3360(3) 0.0520 Uani
O1GA O 0.1961(3) 0.3360(3) 0.0829(3) 0.0520 Uani
O1CA O 0.3360(3) 0.0829(3) 0.1961(3) 0.0520 Uani
O1MA O -0.0539(3) 0.1671(3) 0.4140(3) 0.0520 Uani
O1RA O 0.0860(3) 0.0539(3) 0.6671(3) 0.0520 Uani
O1PA O -0.1671(3) -0.0860(3) 0.5539(3) 0.0520 Uani
O1Q O -0.1671(3) 0.0860(3) -0.0539(3) 0.0520 Uani
O1IA O -0.3039(3) 0.1640(3) -0.0829(3) 0.0520 Uani
O1NA O -0.3329(3) 0.0860(3) 0.0539(3) 0.0520 Uani
O1T O -0.4140(3) 0.5539(3) 0.1671(3) 0.0520 Uani
O1DA O -0.3360(3) 0.5829(3) 0.3039(3) 0.0520 Uani
O1SA O -0.4140(3) 0.4461(3) 0.3329(3) 0.0520 Uani
O2J O -0.2867(3) 0.2193(3) 0.0628(3) 0.0557 Uani
O2G O -0.2807(3) 0.4372(3) 0.2867(3) 0.0557 Uani
O2N O -0.0367(3) 0.3128(3) 0.4693(3) 0.0557 Uani
O2W O -0.0307(3) 0.5367(3) 0.6872(3) 0.0557 Uani
O2P O 0.1872(3) 0.5307(3) 0.4633(3) 0.0557 Uani
O2Y O 0.0628(3) 0.2867(3) 0.2807(3) 0.0557 Uani
O2GA O 0.2867(3) 0.2807(3) 0.0628(3) 0.0557 Uani
O2CA O 0.2807(3) 0.0628(3) 0.2867(3) 0.0557 Uani
O2MA O 0.0367(3) 0.1872(3) 0.4693(3) 0.0557 Uani
O2RA O 0.0307(3) -0.0367(3) 0.6872(3) 0.0557 Uani
O2PA O -0.1872(3) -0.0307(3) 0.4633(3) 0.0557 Uani
O2Q O -0.1872(3) 0.0307(3) 0.0367(3) 0.0557 Uani
O2IA O -0.2133(3) 0.2193(3) -0.0628(3) 0.0557 Uani
O2NA O -0.3128(3) 0.0307(3) -0.0367(3) 0.0557 Uani
O2T O -0.4693(3) 0.4633(3) 0.1872(3) 0.0557 Uani
O2DA O -0.2807(3) 0.5628(3) 0.2133(3) 0.0557 Uani
O2SA O -0.4693(3) 0.5367(3) 0.3128(3) 0.0557 Uani
C1G C -0.2476(4) 0.3460(4) 0.2198(5) 0.0403 Uani
C1J C -0.2198(5) 0.2524(4) 0.1540(4) 0.0403 Uani
C1N C 0.0302(5) 0.4040(4) 0.5024(4) 0.0403 Uani
C1P C 0.0960(4) 0.4976(4) 0.5302(5) 0.0403 Uani
C1W C 0.0024(4) 0.4698(5) 0.5960(4) 0.0403 Uani
C1Y C 0.1540(4) 0.2198(5) 0.2476(4) 0.0403 Uani
C1CA C 0.2476(4) 0.1540(4) 0.2198(5) 0.0403 Uani
C1GA C 0.2198(5) 0.2476(4) 0.1540(4) 0.0403 Uani
C1MA C -0.0302(5) 0.0960(4) 0.5024(4) 0.0403 Uani
C1PA C -0.0960(4) 0.0024(4) 0.5302(5) 0.0403 Uani
C1RA C -0.0024(4) 0.0302(5) 0.5960(4) 0.0403 Uani
C2G C -0.2604(4) 0.3080(4) 0.1674(4) 0.0450 Uani
C2J C -0.1674(4) 0.2396(4) 0.1920(4) 0.0450 Uani
C2N C 0.0826(4) 0.4420(4) 0.4896(4) 0.0450 Uani
C2P C 0.0580(4) 0.5104(4) 0.5826(4) 0.0450 Uani
C2W C -0.0104(4) 0.4174(4) 0.5580(4) 0.0450 Uani
C2Y C 0.1920(4) 0.1674(4) 0.2604(4) 0.0450 Uani
C2CA C 0.2604(4) 0.1920(4) 0.1674(4) 0.0450 Uani
C2GA C 0.1674(4) 0.2604(4) 0.1920(4) 0.0450 Uani
C2MA C -0.0826(4) 0.0580(4) 0.4896(4) 0.0450 Uani
C2PA C -0.0580(4) -0.0104(4) 0.5826(4) 0.0450 Uani
C2RA C 0.0104(4) 0.0826(4) 0.5580(4) 0.0450 Uani
C3J C -0.2362(5) 0.2098(4) 0.0961(4) 0.0510 Uani
C3G C -0.2902(4) 0.4039(4) 0.2362(5) 0.0510 Uani
C3N C 0.0138(5) 0.3461(4) 0.4598(4) 0.0510 Uani
C3W C -0.0402(4) 0.4862(5) 0.6539(4) 0.0510 Uani
C3P C 0.1539(4) 0.5402(4) 0.5138(5) 0.0510 Uani
C3Y C 0.0961(4) 0.2362(5) 0.2902(4) 0.0510 Uani
C3GA C 0.2362(5) 0.2902(4) 0.0961(4) 0.0510 Uani
C3CA C 0.2902(4) 0.0961(4) 0.2362(5) 0.0510 Uani
C3MA C -0.0138(5) 0.1539(4) 0.4598(4) 0.0510 Uani
C3RA C 0.0402(4) 0.0138(5) 0.6539(4) 0.0510 Uani
C3PA C -0.1539(4) -0.0402(4) 0.5138(5) 0.0510 Uani
loop_
_atom_site_aniso_label
_atom_site_aniso_U_11
_atom_site_aniso_U_22
_atom_site_aniso_U_33
_atom_site_aniso_U_23
_atom_site_aniso_U_13
_atom_site_aniso_U_12
N1 0.25(3) 0.25(3) 0.10(2) 0.000 0.000 0.000
In1 0.0349(5) 0.0349(5) 0.0358(7) 0.000 0.000 0.000
O1 0.064 0.053 0.039 -0.016 -0.02 0.009
O2 0.064 0.044 0.059 -0.009 -0.019 0.017
C1 0.04 0.045 0.036 0.004 -0.004 0.002
C2 0.046 0.052 0.037 0.005 -0.005 -0.001
C3 0.042 0.069 0.042 0.023 0.004 0
In1J 0.0349 0.0358 0.0349 0 0 0
In1G 0.0358 0.0349 0.0349 0 0 0
In1E 0.0358 0.0349 0.0349 0 0 0
In1K 0.0349 0.0358 0.0349 0 0 0
In1H 0.0349 0.0358 0.0349 0 0 0
In1D 0.0358 0.0349 0.0349 0 0 0
In1F 0.0358 0.0349 0.0349 0 0 0
In1I 0.0349 0.0358 0.0349 0 0 0
O1J 0.053 0.039 0.064 -0.02 -0.009 0.016
O1G 0.039 0.064 0.053 -0.009 -0.016 0.02
O1N 0.053(4) 0.064(4) 0.039(4) -0.020(3) 0.016(3) -0.009(3)
O1W 0.039 0.053 0.064 -0.009 0.02 -0.016
O1P 0.064 0.039 0.053 -0.016 0.009 -0.02
O1Y 0.064 0.053 0.039 0.016 0.02 0.009
O1GA 0.053 0.039 0.064 0.02 0.009 0.016
O1CA 0.039 0.064 0.053 0.009 0.016 0.02
O1MA 0.053 0.064 0.039 0.02 -0.016 -0.009
O1RA 0.039 0.053 0.064 0.009 -0.02 -0.016
O1PA 0.064 0.039 0.053 0.016 -0.009 -0.02
O1Q 0.064 0.039 0.053 0.016 0.009 0.02
O1IA 0.053 0.039 0.064 0.02 -0.009 -0.016
O1NA 0.064 0.039 0.053 -0.016 0.009 -0.02
O1T 0.039 0.053 0.064 0.009 -0.02 -0.016
O1DA 0.039 0.064 0.053 -0.009 0.016 -0.02
O1SA 0.039 0.053 0.064 0.009 0.02 0.016
O2J 0.044 0.059 0.064 -0.019 -0.017 0.009
O2G 0.059 0.064 0.044 -0.017 -0.009 0.019
O2N 0.044(4) 0.064(4) 0.059(4) -0.019(3) 0.009(3) -0.017(3)
O2W 0.059 0.044 0.064 -0.017 0.019 -0.009
O2P 0.064 0.059 0.044 -0.009 0.017 -0.019
O2Y 0.064 0.044 0.059 0.009 0.019 0.017
O2GA 0.044 0.059 0.064 0.019 0.017 0.009
O2CA 0.059 0.064 0.044 0.017 0.009 0.019
O2MA 0.044 0.064 0.059 0.019 -0.009 -0.017
O2RA 0.059 0.044 0.064 0.017 -0.019 -0.009
O2PA 0.064 0.059 0.044 0.009 -0.017 -0.019
O2Q 0.064 0.059 0.044 0.009 0.017 0.019
O2IA 0.044 0.059 0.064 0.019 -0.017 -0.009
O2NA 0.064 0.059 0.044 -0.009 0.017 -0.019
O2T 0.059 0.044 0.064 0.017 -0.019 -0.009
O2DA 0.059 0.064 0.044 -0.017 0.009 -0.019
O2SA 0.059 0.044 0.064 0.017 0.019 0.009
C1G 0.036 0.04 0.045 -0.002 0.004 0.004
C1J 0.045 0.036 0.04 -0.004 -0.002 -0.004
C1N 0.045(4) 0.040(4) 0.036(4) -0.004(4) -0.004(4) -0.002(4)
C1P 0.04 0.036 0.045 0.004 0.002 -0.004
C1W 0.036 0.045 0.04 -0.002 0.004 0.004
C1Y 0.04 0.045 0.036 -0.004 0.004 0.002
C1CA 0.036 0.04 0.045 0.002 -0.004 0.004
C1GA 0.045 0.036 0.04 0.004 0.002 -0.004
C1MA 0.045 0.04 0.036 0.004 0.004 -0.002
C1PA 0.04 0.036 0.045 -0.004 -0.002 -0.004
C1RA 0.036 0.045 0.04 0.002 -0.004 0.004
C2G 0.037 0.046 0.052 0.001 0.005 0.005
C2J 0.052 0.037 0.046 -0.005 0.001 -0.005
C2N 0.052(5) 0.046(5) 0.037(5) -0.005(4) -0.005(4) 0.001(4)
C2P 0.046 0.037 0.052 0.005 -0.001 -0.005
C2W 0.037 0.052 0.046 0.001 0.005 0.005
C2Y 0.046 0.052 0.037 -0.005 0.005 -0.001
C2CA 0.037 0.046 0.052 -0.001 -0.005 0.005
C2GA 0.052 0.037 0.046 0.005 -0.001 -0.005
C2MA 0.052 0.046 0.037 0.005 0.005 0.001
C2PA 0.046 0.037 0.052 -0.005 0.001 -0.005
C2RA 0.037 0.052 0.046 -0.001 -0.005 0.005
C3J 0.069 0.042 0.042 0.004 0 -0.023
C3G 0.042 0.042 0.069 0 0.023 -0.004
C3N 0.069(8) 0.042(5) 0.042(5) 0.004(4) -0.023(5) 0.000(5)
C3W 0.042 0.069 0.042 0 -0.004 0.023
C3P 0.042 0.042 0.069 0.023 0 0.004
C3Y 0.042 0.069 0.042 -0.023 -0.004 0
C3GA 0.069 0.042 0.042 -0.004 0 -0.023
C3CA 0.042 0.042 0.069 0 -0.023 -0.004
C3MA 0.069 0.042 0.042 -0.004 0.023 0
C3RA 0.042 0.069 0.042 0 0.004 0.023
C3PA 0.042 0.042 0.069 -0.023 0 0.004
loop_
_geom_bond_atom_site_label_1
_geom_bond_atom_site_label_2
_geom_bond_site_symmetry_1
_geom_bond_site_symmetry_2
In1 O1 1_555 1_555
O1 C3 1_555 1_555
O2 In1 1_555 1_555
C1 C2 1_555 1_555
C2 C1G 1_555 1_555
C3 O2 1_555 1_555
N1 C4 1_555 1_555
O3 C5 1_555 1_555
In1J O1J 1_555 1_555
In1G O1G 1_555 1_555
In1E O1W 1_555 1_555
In1K O1P 1_555 1_555
In1H O1GA 1_555 1_555
In1D O1CA 1_555 1_555
In1F O1RA 1_555 1_555
In1I O1PA 1_555 1_555
O1J C3J 1_555 1_555
O1G C3G 1_555 1_555
O1N In1 1_555 1_555
O1W C3W 1_555 1_555
O1P C3P 1_555 1_555
O1Y In1 1_555 1_555
O1GA C3GA 1_555 1_555
O1CA C3CA 1_555 1_555
O1MA In1 1_555 1_555
O1RA C3RA 1_555 1_555
O1PA C3PA 1_555 1_555
O1Q In1J 1_555 1_555
O1IA In1J 1_555 1_555
O1NA In1J 1_555 1_555
O1T In1G 1_555 1_555
O1DA In1G 1_555 1_555
O1SA In1G 1_555 1_555
O2J In1J 1_555 1_555
O2G In1G 1_555 1_555
O2N In1 1_555 1_555
O2W In1E 1_555 1_555
O2P In1K 1_555 1_555
O2Y In1 1_555 1_555
O2GA In1H 1_555 1_555
O2CA In1D 1_555 1_555
O2MA In1 1_555 1_555
O2RA In1F 1_555 1_555
O2PA In1I 1_555 1_555
O2Q In1J 1_555 1_555
O2IA In1J 1_555 1_555
O2NA In1J 1_555 1_555
O2T In1G 1_555 1_555
O2DA In1G 1_555 1_555
O2SA In1G 1_555 1_555
C1G C2G 1_555 1_555
C1J C2G 1_555 1_555
C1N C2N 1_555 1_555
C1P C2N 1_555 1_555
C1W C2P 1_555 1_555
C1Y C2Y 1_555 1_555
C1CA C2Y 1_555 1_555
C1GA C2CA 1_555 1_555
C1MA C2MA 1_555 1_555
C1PA C2MA 1_555 1_555
C1RA C2PA 1_555 1_555
C2J C1 1_555 1_555
C2P C1P 1_555 1_555
C2W C1N 1_555 1_555
C2CA C1CA 1_555 1_555
C2GA C1Y 1_555 1_555
C2PA C1PA 1_555 1_555
C2RA C1MA 1_555 1_555
C3J O2J 1_555 1_555
C3G O2G 1_555 1_555
C3N O1N 1_555 1_555
C3W O2W 1_555 1_555
C3P O2P 1_555 1_555
C3Y O1Y 1_555 1_555
C3GA O2GA 1_555 1_555
C3CA O2CA 1_555 1_555
C3MA O1MA 1_555 1_555
C3RA O2RA 1_555 1_555
C3PA O2PA 1_555 1_555
C4N N1 1_555 1_555
C4Y N1 1_555 1_555
C4MA N1 1_555 1_555
C5Y O3 1_555 1_555
C1 C3 1_555 1_555
O2N C3N 1_555 1_555
O2Y C3Y 1_555 1_555
O2MA C3MA 1_555 1_555
C1G C3G 1_555 1_555
C1J C2J 1_555 1_555
C1J C3J 1_555 1_555
C1N C3N 1_555 1_555
C1P C3P 1_555 1_555
C1W C2W 1_555 1_555
C1W C3W 1_555 1_555
C1Y C3Y 1_555 1_555
C1CA C3CA 1_555 1_555
C1GA C2GA 1_555 1_555
C1GA C3GA 1_555 1_555
C1MA C3MA 1_555 1_555
C1PA C3PA 1_555 1_555
C1RA C2RA 1_555 1_555
C1RA C3RA 1_555 1_555

#END
