
#######################################################################
#
#                 Cambridge Crystallographic Data Centre
#                                CCDC 
#
#######################################################################
#
# If this CIF has been generated from an entry in the Cambridge 
# Structural Database, then it will include bibliographic, chemical, 
# crystal, experimental, refinement or atomic coordinate data resulting 
# from the CCDC's data processing and validation procedures.
#
#######################################################################

data_GEZYUH
_chemical_formula_moiety         '(C12 H60 N2 O58 P17 V9 3-)n'
_symmetry_cell_setting           hexagonal
_symmetry_space_group_name_H-M   'P 63/m'
_symmetry_Int_Tables_number      176
_space_group_name_Hall           '-P 6c'
loop_
_symmetry_equiv_pos_site_id
_symmetry_equiv_pos_as_xyz
1 x,y,z
2 -x,-y,1/2+z
3 -y,x-y,z
4 y,-x+y,1/2+z
5 -x+y,-x,z
6 x-y,x,1/2+z
7 -x,-y,-z
8 x,y,1/2-z
9 y,-x+y,-z
10 -y,x-y,1/2-z
11 x-y,x,-z
12 -x+y,-x,1/2-z
_cell_length_a                   13.4578(2)
_cell_length_b                   13.4578(2)
_cell_length_c                   27.6928(7)
_cell_angle_alpha                90
_cell_angle_beta                 90
_cell_angle_gamma                120
_cell_volume                     4343.56
loop_
_atom_site_label
_atom_site_type_symbol
_atom_site_fract_x
_atom_site_fract_y
_atom_site_fract_z
N1 N 0.4151(7) 1.0580(7) 0.3915(3)
H8 H 0.4909 1.0915 0.3882
H9 H 0.3916 1.0039 0.4141
H10 H 0.3963 1.1103 0.4001
C1 C 0.3591(12) 1.0053(11) 0.3448(4)
C2 C 0.3763(15) 0.9031(15) 0.3343(7)
H11 H 0.3283 0.8592 0.3074
H12 H 0.3544 0.8532 0.3623
C3 C 0.4049(13) 1.0972(13) 0.3051(6)
H13 H 0.3531 1.0679 0.2777
H14 H 0.4031 1.164 0.3171
C4 C 0.5038(17) 0.948(2) 0.3220(10)
H15 H 0.5509 0.9866 0.3499
H16 H 0.5146 0.8837 0.3141
C5 C 0.5246(16) 1.1353(17) 0.2875(9)
H17 H 0.5798 1.186 0.3112
H18 H 0.5383 1.1777 0.2576
C6 C 0.5416(18) 1.0316(16) 0.2790(7)
H19 H 0.4984 0.9904 0.2507
H20 H 0.6221 1.0593 0.2725
N1G N 0.4151(7) 1.0580(7) 0.1085(3)
H8G H 0.4909 1.0915 0.1118
H9G H 0.3916 1.0039 0.0859
H10G H 0.3963 1.1103 0.0999
C1G C 0.3591(12) 1.0053(11) 0.1552(4)
C2G C 0.3763(15) 0.9031(15) 0.1657(7)
H11G H 0.3283 0.8592 0.1926
H12G H 0.3544 0.8532 0.1377
C3G C 0.4049(13) 1.0972(13) 0.1949(6)
H13G H 0.3531 1.0679 0.2223
H14G H 0.4031 1.164 0.1829
C4G C 0.5038(17) 0.948(2) 0.1780(10)
H15G H 0.5509 0.9866 0.1501
H16G H 0.5146 0.8837 0.1859
C5G C 0.5246(16) 1.1353(17) 0.2125(9)
H17G H 0.5798 1.186 0.1888
H18G H 0.5383 1.1777 0.2424
C6G C 0.5416(18) 1.0316(16) 0.2210(7)
H20G H 0.6221 1.0593 0.2275
O11 O 0.3333 0.6667 0.2881(13)
V1 V 0.00000 1.00000 0.50000
V2 V 0.29268(5) 0.85809(5) 0.52647(3)
V3 V -0.00000 1.00000 0.66396(4)
P1 P 0.16220(8) 0.97502(8) 0.58422(3)
P2 P 0.12733(8) 0.63089(8) 0.46359(4)
P3 P 0.3333 0.6667 0.58968(8)
P4 P 0.19134(13) 1.06211(14) 0.75000
O1 O 0.1510(2) 0.7184(2) 0.50314(12)
O2 O 0.1679(2) 0.5478(2) 0.47575(12)
O3 O 0.0008(2) 0.5704(3) 0.44996(11)
O4 O 0.1872(2) 0.8800(2) 0.56994(11)
O5 O 0.3245(3) 0.7722(3) 0.57655(13)
O6 O 0.2585(2) 0.9476(2) 0.47290(10)
O7 O 0.1425(3) 1.0773(3) 0.70448(11)
O8 O 0.0695(2) 0.9283(2) 0.62252(10)
O9 O 0.1367(2) 1.0286(2) 0.54065(9)
O10 O 0.3196(5) 1.1435(7) 0.75000
H1 H 0.3327 1.2099 0.750
H2 H 0.260(4) 1.060(4) 0.6048(15)
H3 H 0.187(3) 0.682(3) 0.4249(15)
H4 H 0.3333 0.6667 0.6367(4)
H5 H 0.178(2) 0.9591(12) 0.750
H6 H 0.1879(13) 0.929(4) 0.471(2)
H7 H 0.294(4) 1.0206(9) 0.473(2)
O5B O 0.2278(3) 0.5523(4) 0.57655(13)
O5D O 0.4477(4) 0.6755(3) 0.57655(13)
O7G O 0.1425(3) 1.0773(3) 0.79552(11)
V2B V 0.14191(5) 0.43459(7) 0.52647(3)
P1B P 0.02498(8) 0.18718(11) 0.58422(3)
P2B P 0.36911(8) 0.49644(11) 0.46359(4)
O1B O 0.2816(2) 0.4326(3) 0.50314(12)
O2B O 0.4522(2) 0.6201(3) 0.47575(12)
O3B O 0.4296(3) 0.4304(4) 0.44996(11)
O4B O 0.1200(2) 0.3072(3) 0.56994(11)
O6B O 0.0524(2) 0.3109(3) 0.47290(10)
O8B O 0.0717(2) 0.1412(3) 0.62252(10)
O9B O -0.0286(2) 0.1081(3) 0.54065(9)
H2B H -0.060(4) 0.200(6) 0.6048(15)
H3B H 0.318(3) 0.505(4) 0.4249(15)
H6B H 0.071(4) 0.2589(42) 0.471(2)
H7B H -0.0206(9) 0.2734(41) 0.473(2)
V2D V -0.43459(7) 0.70732(5) 0.52647(3)
P1D P -0.18718(11) 0.83780(8) 0.58422(3)
P2D P -0.49644(11) 0.87267(8) 0.46359(4)
P4D P -0.12923(19) 0.80866(13) 0.75000
O1D O -0.4326(3) 0.8490(2) 0.50314(12)
O2D O -0.6201(3) 0.8321(2) 0.47575(12)
O3D O -0.4304(4) 0.9992(2) 0.44996(11)
O4D O -0.3072(3) 0.8128(2) 0.56994(11)
O6D O -0.3109(3) 0.7415(2) 0.47290(10)
O7D O -0.0652(4) 0.8575(3) 0.70448(11)
O8D O -0.1412(3) 0.9305(2) 0.62252(10)
O9D O -0.1081(3) 0.8633(2) 0.54065(9)
O10D O -0.1761(9) 0.6804(5) 0.75000
H1D H -0.1228 0.6673 0.750
H2D H -0.200(6) 0.740(4) 0.6048(15)
H3D H -0.505(4) 0.813(3) 0.4249(15)
H5D H -0.2189(23) 0.822(2) 0.750
H6D H -0.2589(42) 0.8121(13) 0.471(2)
H7D H -0.2734(41) 0.706(4) 0.473(2)
O7K O -0.0652(4) 0.8575(3) 0.79552(11)
V2F V -0.29268(5) 0.14191(5) 0.47353(3)
V3F V -0.00000 0.00000 0.33604(4)
P1F P -0.16220(8) 0.02498(8) 0.41578(3)
P2F P -0.12733(8) 0.36911(8) 0.53641(4)
P3F P -0.3333 0.3333 0.41032(8)
O1F O -0.1510(2) 0.2816(2) 0.49686(12)
O2F O -0.1679(2) 0.4522(2) 0.52425(12)
O3F O -0.0008(2) 0.4296(3) 0.55004(11)
O4F O -0.1872(2) 0.1200(2) 0.43006(11)
O5F O -0.3245(3) 0.2278(3) 0.42345(13)
O6F O -0.2585(2) 0.0524(2) 0.52710(10)
O8F O -0.0695(2) 0.0717(2) 0.37748(10)
O9F O -0.1367(2) -0.0286(2) 0.45935(9)
H2F H -0.260(4) -0.060(4) 0.3952(15)
H3F H -0.187(3) 0.318(3) 0.5751(15)
H4F H -0.3333 0.3333 0.3633(4)
H6F H -0.1879(13) 0.071(4) 0.529(2)
H7F H -0.294(4) -0.0206(9) 0.527(2)
O5H O -0.2278(3) 0.4477(4) 0.42345(13)
O5J O -0.4477(4) 0.3245(3) 0.42345(13)
V2H V -0.14191(5) 0.56541(7) 0.47353(3)
P1H P -0.02498(8) 0.81282(11) 0.41578(3)
P2H P -0.36911(8) 0.50356(11) 0.53641(4)
O1H O -0.2816(2) 0.5674(3) 0.49686(12)
O2H O -0.4522(2) 0.3799(3) 0.52425(12)
O3H O -0.4296(3) 0.5696(4) 0.55004(11)
O4H O -0.1200(2) 0.6928(3) 0.43006(11)
O6H O -0.0524(2) 0.6891(3) 0.52710(10)
O8H O -0.0717(2) 0.8588(3) 0.37748(10)
O9H O 0.0286(2) 0.8919(3) 0.45935(9)
H2H H 0.060(4) 0.800(6) 0.3952(15)
H3H H -0.318(3) 0.495(4) 0.5751(15)
H6H H -0.071(4) 0.7411(42) 0.529(2)
H7H H 0.0206(9) 0.7266(41) 0.527(2)
V2J V -0.56541(7) 0.29268(5) 0.47353(3)
P1J P -0.81282(11) 0.16220(8) 0.41578(3)
P2J P -0.50356(11) 0.12733(8) 0.53641(4)
O1J O -0.5674(3) 0.1510(2) 0.49686(12)
O2J O -0.3799(3) 0.1679(2) 0.52425(12)
O3J O -0.5696(4) 0.0008(2) 0.55004(11)
O4J O -0.6928(3) 0.1872(2) 0.43006(11)
O6J O -0.6891(3) 0.2585(2) 0.52710(10)
O8J O -0.8588(3) 0.0695(2) 0.37748(10)
O9J O -0.8919(3) 0.1367(2) 0.45935(9)
H2J H -0.800(6) 0.260(4) 0.3952(15)
H3J H -0.495(4) 0.187(3) 0.5751(15)
H6J H -0.7411(42) 0.1879(13) 0.529(2)
H7J H -0.7266(41) 0.294(4) 0.527(2)
P4B P -0.06211(14) 1.12923(19) 0.75000
O7B O -0.0773(3) 1.0652(4) 0.70448(11)
O10B O -0.1435(7) 1.1761(9) 0.75000
H1B H -0.2099 1.1228 0.750
H5B H 0.0409(12) 1.2189(23) 0.750
O7I O -0.0773(3) 1.0652(4) 0.79552(11)
V1_2 V -1.00000 0.00000 0.50000
V1_3 V -0.00000 0.00000 0.50000
V2_2 V -0.70732(5) -0.14191(5) 0.52647(3)
V2_3 V -0.70732(5) 0.85809(5) 0.52647(3)
V2D_2 V 0.56541(7) 0.70732(5) 0.52647(3)
V2F_2 V -0.29268(5) 1.14191(5) 0.47353(3)
V2J_2 V 0.43459(7) 0.29268(5) 0.47353(3)
V3_2 V 0.00000 0.00000 0.66396(4)
V3F_2 V -1.00000 0.00000 0.33604(4)
V3F_3 V 0.00000 1.00000 0.33604(4)
V3G V 0.00000 1.00000 0.83604(4)
O2B_2 O -0.5478(2) 0.6201(3) 0.47575(12)
O2D_2 O 0.3799(3) 0.8321(2) 0.47575(12)
O3B_2 O -0.5704(3) 0.4304(4) 0.44996(11)
O3D_2 O -0.4304(4) -0.0008(2) 0.44996(11)
O3J_2 O 0.4304(4) 1.0008(2) 0.55004(11)
O5D_2 O -0.5523(4) 0.6755(3) 0.57655(13)
O7F O -0.1425(3) -0.0773(3) 0.29552(11)
O7H O 0.0773(3) -0.0652(4) 0.29552(11)
O7J O 0.0652(4) 0.1425(3) 0.29552(11)
O8B_2 O 0.0717(2) 1.1412(3) 0.62252(10)
O8H_2 O -0.0717(2) -0.1412(3) 0.37748(10)
O8J_2 O 0.1412(3) 0.0695(2) 0.37748(10)
O9B_2 O -0.0286(2) 1.1081(3) 0.54065(9)
O9F_2 O -0.1367(2) 0.9714(2) 0.45935(9)
O9J_2 O 0.1081(3) 1.1367(2) 0.45935(9)
loop_
_geom_bond_atom_site_label_1
_geom_bond_atom_site_label_2
_geom_bond_site_symmetry_1
_geom_bond_site_symmetry_2
V1 O9 1_555 1_555
V2 O1 1_555 1_555
V3 O7 1_555 1_555
P1 O4 1_555 1_555
P2 O1 1_555 1_555
P3 O5 1_555 1_555
P4 O7 1_555 1_555
O2 P2 1_555 1_555
O3 P2 1_555 1_555
O4 V2 1_555 1_555
O5 V2 1_555 1_555
O6 V2 1_555 1_555
O8 V3 1_555 1_555
O9 P1 1_555 1_555
O10 P4 1_555 1_555
H1 O10 1_555 1_555
H2 P1 1_555 1_555
H3 P2 1_555 1_555
H4 P3 1_555 1_555
H5 P4 1_555 1_555
H6 O6 1_555 1_555
H7 O6 1_555 1_555
N1 H8 1_555 1_555
H9 N1 1_555 1_555
H10 N1 1_555 1_555
C1 N1 1_555 1_555
C2 C1 1_555 1_555
H11 C2 1_555 1_555
H12 C2 1_555 1_555
C3 C1 1_555 1_555
H13 C3 1_555 1_555
H14 C3 1_555 1_555
C4 C2 1_555 1_555
H15 C4 1_555 1_555
H16 C4 1_555 1_555
C5 C3 1_555 1_555
H17 C5 1_555 1_555
H18 C5 1_555 1_555
C6 C4 1_555 1_555
H19 C6 1_555 1_555
H20 C6 1_555 1_555
O5B P3 1_555 1_555
O5D P3 1_555 1_555
O7G P4 1_555 1_555
V2B O2 1_555 1_555
P1B O4B 1_555 1_555
P2B O1B 1_555 1_555
O1B V2B 1_555 1_555
O2B P2B 1_555 1_555
O3B P2B 1_555 1_555
O4B V2B 1_555 1_555
O6B V2B 1_555 1_555
O8B P1B 1_555 1_555
O9B P1B 1_555 1_555
H2B P1B 1_555 1_555
H3B P2B 1_555 1_555
H6B O6B 1_555 1_555
H7B O6B 1_555 1_555
V2D O1D 1_555 1_555
P1D O4D 1_555 1_555
P2D O1D 1_555 1_555
P4D O7D 1_555 1_555
O2D P2D 1_555 1_555
O3D P2D 1_555 1_555
O4D V2D 1_555 1_555
O6D V2D 1_555 1_555
O7D V3 1_555 1_555
O8D V3 1_555 1_555
O9D V1 1_555 1_555
O10D P4D 1_555 1_555
H1D O10D 1_555 1_555
H2D P1D 1_555 1_555
H3D P2D 1_555 1_555
H5D P4D 1_555 1_555
H6D O6D 1_555 1_555
H7D O6D 1_555 1_555
O7K P4D 1_555 1_555
V2F O1F 1_555 1_555
V3F O8F 1_555 1_555
P1F O4F 1_555 1_555
P2F O1F 1_555 1_555
P3F O5F 1_555 1_555
O2F P2F 1_555 1_555
O3F V2B 1_555 1_555
O4F V2F 1_555 1_555
O5F V2F 1_555 1_555
O6F V2F 1_555 1_555
O8F P1F 1_555 1_555
O9F P1F 1_555 1_555
H2F P1F 1_555 1_555
H3F P2F 1_555 1_555
H4F P3F 1_555 1_555
H6F O6F 1_555 1_555
H7F O6F 1_555 1_555
O5H P3F 1_555 1_555
O5J P3F 1_555 1_555
V2H O3 1_555 1_555
P1H O4H 1_555 1_555
P2H O1H 1_555 1_555
O1H V2H 1_555 1_555
O2H P2H 1_555 1_555
O3H V2D 1_555 1_555
O4H V2H 1_555 1_555
O6H V2H 1_555 1_555
O8H P1H 1_555 1_555
O9H V1 1_555 1_555
H2H P1H 1_555 1_555
H3H P2H 1_555 1_555
H6H O6H 1_555 1_555
H7H O6H 1_555 1_555
V2J O5J 1_555 1_555
P1J O4J 1_555 1_555
P2J O1J 1_555 1_555
O1J V2J 1_555 1_555
O2J V2F 1_555 1_555
O3J P2J 1_555 1_555
O4J V2J 1_555 1_555
O6J V2J 1_555 1_555
O8J P1J 1_555 1_555
O9J P1J 1_555 1_555
H2J P1J 1_555 1_555
H3J P2J 1_555 1_555
H6J O6J 1_555 1_555
H7J O6J 1_555 1_555
P4B O7B 1_555 1_555
O7B V3 1_555 1_555
O10B P4B 1_555 1_555
H1B O10B 1_555 1_555
H5B P4B 1_555 1_555
O7I P4B 1_555 1_555
V1_2 O9J 1_555 1_555
V1_3 O9B 1_555 1_555
V2_2 O3J 1_555 1_555
V2_3 O2D 1_555 1_555
V2D_2 O5D 1_555 1_555
V2F_2 O3D 1_555 1_555
V2J_2 O3B 1_555 1_555
V3_2 O8B 1_555 1_555
V3F_2 O8J 1_555 1_555
V3F_3 O8H 1_555 1_555
V3G O7G 1_555 1_555
O2B_2 V2D 1_555 1_555
O2D_2 V2 1_555 1_555
O3B_2 V2J 1_555 1_555
O3D_2 V2F 1_555 1_555
O3J_2 V2 1_555 1_555
O5D_2 V2D 1_555 1_555
O7F V3F 1_555 1_555
O7H V3F 1_555 1_555
O7J V3F 1_555 1_555
O8B_2 V3 1_555 1_555
O8H_2 V3F 1_555 1_555
O8J_2 V3F 1_555 1_555
O9B_2 V1 1_555 1_555
O9F_2 V1 1_555 1_555
O9J_2 V1 1_555 1_555
N1G H8G 1_555 1_555
H9G N1G 1_555 1_555
H10G N1G 1_555 1_555
C1G N1G 1_555 1_555
C2G C1G 1_555 1_555
H11G C2G 1_555 1_555
H12G C2G 1_555 1_555
C3G C1G 1_555 1_555
H13G C3G 1_555 1_555
H14G C3G 1_555 1_555
C4G C2G 1_555 1_555
H15G C4G 1_555 1_555
H16G C4G 1_555 1_555
C5G H18 1_555 1_555
H17G C5G 1_555 1_555
H18G C5 1_555 1_555
C6G C6 1_555 1_555
H20G C6G 1_555 1_555
P1 O8 1_555 1_555
C5 C6 1_555 1_555
H19 C6G 1_555 1_555
O5B V2B 1_555 1_555
O2B V2D_2 1_555 1_555
P1D O8D 1_555 1_555
P1D O9D 1_555 1_555
O7K V3G 1_555 1_555
P2F O3F 1_555 1_555
O2F V2H 1_555 1_555
O9F V1_3 1_555 1_555
O5H V2H 1_555 1_555
P1H O9H 1_555 1_555
P2H O3H 1_555 1_555
O2H V2J 1_555 1_555
P2J O2J 1_555 1_555
O7I V3G 1_555 1_555
C3G C5G 1_555 1_555
C4G C6G 1_555 1_555
C5G H18G 1_555 1_555
C5G C6G 1_555 1_555

#END
