
#######################################################################
#
#                 Cambridge Crystallographic Data Centre
#                                CCDC 
#
#######################################################################
#
# If this CIF has been generated from an entry in the Cambridge 
# Structural Database, then it will include bibliographic, chemical, 
# crystal, experimental, refinement or atomic coordinate data resulting 
# from the CCDC's data processing and validation procedures.
#
#######################################################################

data_FAZFET
_chemical_formula_moiety         '(C36 H176 Co10 Ge8 N36 O106 V32)n'
_symmetry_cell_setting           tetragonal
_symmetry_space_group_name_H-M   'I 41 c d'
_symmetry_Int_Tables_number      110
_space_group_name_Hall           'I 4bw -2c'
loop_
_symmetry_equiv_pos_site_id
_symmetry_equiv_pos_as_xyz
1 x,y,z
2 -y,1/2+x,1/4+z
3 -x,-y,z
4 y,1/2-x,1/4+z
5 -x,y,1/2+z
6 x,-y,1/2+z
7 1/2-y,-x,1/4+z
8 1/2+y,x,1/4+z
9 1/2+x,1/2+y,1/2+z
10 1/2-y,x,3/4+z
11 1/2-x,1/2-y,1/2+z
12 1/2+y,-x,3/4+z
13 1/2-x,1/2+y,z
14 1/2+x,1/2-y,z
15 -y,1/2-x,3/4+z
16 y,1/2+x,3/4+z
_cell_length_a                   30.5983(18)
_cell_length_b                   30.5983(18)
_cell_length_c                   35.422(3)
_cell_angle_alpha                90
_cell_angle_beta                 90
_cell_angle_gamma                90
_cell_volume                     33164.1
loop_
_atom_site_label
_atom_site_type_symbol
_atom_site_fract_x
_atom_site_fract_y
_atom_site_fract_z
_atom_site_U_iso_or_equiv
_atom_site_thermal_displace_type
Co1 Co 0.58847(5) 0.92608(5) 0.86811(5) 0.0304 Uani
Co2 Co 0.60673(5) 0.56287(5) 0.70334(5) 0.0244 Uani
Co3 Co 0.59850(6) 0.88951(5) 0.66281(5) 0.0321 Uani
Co4 Co 0.37913(6) 0.86555(6) 0.66374(6) 0.0342 Uani
Co5 Co 0.73311(5) 0.79511(7) 0.75498(6) 0.0409 Uani
Ge1 Ge 0.51773(4) 0.83818(4) 0.88044(4) 0.0217 Uani
Ge2 Ge 0.42905(4) 0.79583(4) 0.88233(4) 0.0239 Uani
Ge3 Ge 0.51941(4) 0.63815(3) 0.69208(4) 0.0207 Uani
Ge4 Ge 0.42623(4) 0.66858(4) 0.69822(4) 0.0269 Uani
V1 V 0.45391(6) 0.84872(6) 0.79898(6) 0.0211 Uani
V2 V 0.55307(6) 0.85453(6) 0.79612(6) 0.0203 Uani
V3 V 0.62195(5) 0.79282(6) 0.78047(6) 0.0197 Uani
V4 V 0.62577(6) 0.69582(6) 0.77870(6) 0.0205 Uani
V5 V 0.56556(6) 0.62726(6) 0.77235(6) 0.0193 Uani
V6 V 0.46736(6) 0.62008(6) 0.78004(6) 0.0236 Uani
V7 V 0.39126(6) 0.68479(6) 0.78572(7) 0.0273 Uani
V8 V 0.38469(6) 0.77591(6) 0.79852(6) 0.0250 Uani
V9 V 0.52903(6) 0.82631(6) 0.71870(6) 0.0186 Uani
V10 V 0.49822(6) 0.74899(6) 0.67621(6) 0.0198 Uani
V11 V 0.58711(6) 0.72019(5) 0.70396(6) 0.0174 Uani
V12 V 0.41784(6) 0.77690(6) 0.72044(6) 0.0213 Uani
V13 V 0.59711(6) 0.76634(6) 0.85911(6) 0.0223 Uani
V14 V 0.51544(6) 0.72692(6) 0.89612(6) 0.0247 Uani
V15 V 0.43345(6) 0.68888(6) 0.86013(6) 0.0253 Uani
V16 V 0.54970(6) 0.65431(6) 0.85235(6) 0.0220 Uani
N1 N 0.6446(3) 0.8868(4) 0.8609(4) 0.0377 Uani
H1 H 0.6579 0.8833 0.8834 0.0450 Uiso
H2 H 0.6364 0.8602 0.8526 0.0450 Uiso
N2 N 0.6302(4) 0.9718(5) 0.8392(4) 0.0553 Uani
H3 H 0.6213 0.9746 0.8151 0.0660 Uiso
H4 H 0.6282 0.9982 0.8503 0.0660 Uiso
N3 N 0.5324(4) 0.9633(4) 0.8578(4) 0.0463 Uani
H5 H 0.5099 0.9445 0.8603 0.0560 Uiso
H6 H 0.5304 0.9818 0.8775 0.0560 Uiso
N4 N 0.6573(4) 0.6108(3) 0.7050(3) 0.0353 Uani
H7 H 0.6620 0.6207 0.6814 0.0420 Uiso
H8 H 0.6482 0.6335 0.7191 0.0420 Uiso
N5 N 0.6588(4) 0.5255(4) 0.7311(4) 0.0397 Uani
H9 H 0.6477 0.5088 0.7497 0.0480 Uiso
H10 H 0.6725 0.5082 0.7144 0.0480 Uiso
N6 N 0.5615(4) 0.5098(3) 0.7122(3) 0.0337 Uani
H11 H 0.5654 0.4903 0.6935 0.0410 Uiso
H12 H 0.5689 0.4964 0.7339 0.0410 Uiso
N7 N 0.6304(6) 0.8952(6) 0.7145(5) 0.0750 Uani
H13 H 0.6152 0.8809 0.7324 0.0900 Uiso
H14 H 0.6571 0.8830 0.7129 0.0900 Uiso
N8 N 0.5863(6) 0.9566(6) 0.6716(6) 0.0837 Uani
H15 H 0.6044 0.9729 0.6573 0.1010 Uiso
H16 H 0.5586 0.9631 0.6652 0.1010 Uiso
N9 N 0.6137(6) 0.8225(5) 0.6501(5) 0.0717 Uani
H17 H 0.6427 0.8180 0.6520 0.0860 Uiso
H18 H 0.6000 0.8047 0.6664 0.0860 Uiso
N10 N 0.5702(6) 0.8869(6) 0.6086(5) 0.0800 Uani
H19 H 0.5452 0.9024 0.6083 0.0960 Uiso
H20 H 0.5886 0.8986 0.5915 0.0960 Uiso
N11 N 0.4020(4) 0.8953(4) 0.7123(4) 0.0447 Uani
H21 H 0.4141 0.8753 0.7278 0.0540 Uiso
H22 H 0.4225 0.9153 0.7065 0.0540 Uiso
N12 N 0.3187(4) 0.8760(4) 0.6894(4) 0.0450 Uani
H23 H 0.3049 0.8985 0.6781 0.0540 Uiso
H24 H 0.3019 0.8521 0.6870 0.0540 Uiso
N13 N 0.4377(4) 0.8526(4) 0.6373(4) 0.0467 Uani
H25 H 0.4541 0.8771 0.6366 0.0560 Uiso
H26 H 0.4525 0.8322 0.6503 0.0560 Uiso
N14 N 0.3535(4) 0.8326(4) 0.6176(4) 0.0447 Uani
H27 H 0.3321 0.8143 0.6251 0.0530 Uiso
H28 H 0.3422 0.8517 0.6010 0.0530 Uiso
N15 N 0.7946(4) 0.7766(5) 0.7273(4) 0.0570 Uani
H29 H 0.8106 0.8006 0.7222 0.0680 Uiso
H30 H 0.8103 0.7590 0.7425 0.0680 Uiso
N16 N 0.7088(4) 0.7550(4) 0.7118(4) 0.0427 Uani
H31 H 0.6874 0.7378 0.7211 0.0510 Uiso
H32 H 0.6973 0.7717 0.6934 0.0510 Uiso
N17 N 0.7543(5) 0.8293(6) 0.8030(5) 0.0717 Uani
H33 H 0.7789 0.8441 0.7973 0.0860 Uiso
H34 H 0.7338 0.8490 0.8095 0.0860 Uiso
N18 N 0.7390(4) 0.7427(5) 0.7944(4) 0.0540 Uani
H35 H 0.7172 0.7234 0.7906 0.0650 Uiso
H36 H 0.7645 0.7288 0.7907 0.0650 Uiso
O1 O 0.5052(2) 0.8462(3) 0.8330(2) 0.0277 Uani
O2 O 0.5018(2) 0.8505(2) 0.7639(2) 0.0237 Uani
O3 O 0.4194(2) 0.8109(3) 0.8355(2) 0.0270 Uani
O4 O 0.4203(2) 0.8126(2) 0.7653(2) 0.0243 Uani
O5 O 0.4323(3) 0.8962(3) 0.8024(3) 0.0353 Uani
O6 O 0.5900(2) 0.8154(3) 0.8245(2) 0.0230 Uani
O7 O 0.5786(2) 0.8257(2) 0.7534(2) 0.0230 Uani
O8 O 0.5722(3) 0.9040(3) 0.8019(3) 0.0380 Uani
O9 O 0.6261(2) 0.7430(2) 0.8147(2) 0.0233 Uani
O10 O 0.6189(2) 0.7465(2) 0.7451(2) 0.0223 Uani
O11 O 0.6692(2) 0.8150(3) 0.7750(3) 0.0350 Uani
O12 O 0.5937(2) 0.6581(2) 0.8129(2) 0.0220 Uani
O13 O 0.5884(3) 0.6708(2) 0.7395(2) 0.0240 Uani
O14 O 0.6750(3) 0.6772(3) 0.7749(3) 0.0333 Uani
O15 O 0.5202(2) 0.6244(3) 0.8104(2) 0.0257 Uani
O16 O 0.5123(2) 0.6286(3) 0.7410(2) 0.0263 Uani
O17 O 0.5896(2) 0.5806(2) 0.7632(2) 0.0243 Uani
O18 O 0.4333(2) 0.6536(3) 0.8158(3) 0.0277 Uani
O19 O 0.4256(3) 0.6533(3) 0.7456(3) 0.0327 Uani
O20 O 0.4515(3) 0.5703(3) 0.7809(3) 0.0360 Uani
O21 O 0.3953(2) 0.7246(2) 0.8283(3) 0.0267 Uani
O22 O 0.3890(2) 0.7377(3) 0.7553(3) 0.0283 Uani
O23 O 0.3442(3) 0.6603(3) 0.7857(3) 0.0413 Uani
O24 O 0.3347(3) 0.7923(3) 0.8014(3) 0.0407 Uani
O25 O 0.4738(2) 0.7969(2) 0.7047(3) 0.0250 Uani
O26 O 0.5514(2) 0.7723(2) 0.6967(2) 0.0220 Uani
O27 O 0.5378(3) 0.8659(3) 0.6891(3) 0.0373 Uani
O28 O 0.4423(3) 0.7236(2) 0.6941(3) 0.0277 Uani
O29 O 0.5311(2) 0.6936(2) 0.6853(2) 0.0250 Uani
O30 O 0.4942(3) 0.7584(3) 0.6319(3) 0.0357 Uani
O31 O 0.6221(2) 0.7153(3) 0.6707(2) 0.0273 Uani
O32 O 0.3817(3) 0.7997(3) 0.6931(3) 0.0303 Uani
O33 O 0.5405(3) 0.7858(3) 0.8850(3) 0.0273 Uani
O34 O 0.5683(2) 0.7117(3) 0.8699(2) 0.0263 Uani
O35 O 0.6353(3) 0.7758(3) 0.8893(3) 0.0387 Uani
O36 O 0.4538(2) 0.7450(2) 0.8850(2) 0.0250 Uani
O37 O 0.4933(3) 0.6758(3) 0.8703(2) 0.0280 Uani
O38 O 0.5209(3) 0.7181(3) 0.9409(3) 0.0397 Uani
O39 O 0.4045(3) 0.6622(3) 0.8903(3) 0.0400 Uani
O40 O 0.4653(2) 0.8340(3) 0.9032(2) 0.0267 Uani
O41 O 0.5479(3) 0.8799(3) 0.8981(2) 0.0283 Uani
O42 O 0.3808(3) 0.7954(3) 0.9096(3) 0.0417 Uani
O43 O 0.4648(3) 0.6357(2) 0.6743(3) 0.0297 Uani
O44 O 0.5554(3) 0.6017(3) 0.6737(2) 0.0277 Uani
O45 O 0.3755(3) 0.6602(3) 0.6773(3) 0.0470 Uani
O46 O 0.7317(4) 0.8534(4) 0.7192(4) 0.0740 Uani
H37 H 0.7339 0.8760 0.7329 0.0890 Uiso
H38 H 0.7486 0.8565 0.7003 0.0890 Uiso
C1 C 0.6738(5) 0.9047(5) 0.8357(5) 0.0493 Uani
H56 H 0.6655 0.8968 0.8101 0.0590 Uiso
H57 H 0.7028 0.8931 0.8404 0.0590 Uiso
C2 C 0.6744(6) 0.9572(6) 0.8399(6) 0.0650 Uani
H58 H 0.6882 0.9654 0.8635 0.0780 Uiso
H59 H 0.6907 0.9702 0.8193 0.0780 Uiso
C3 C 0.5227(7) 0.9874(7) 0.8273(6) 0.0750 Uani
H60 H 0.5233 0.9683 0.8054 0.0900 Uiso
H61 H 0.5458 1.0088 0.8240 0.0900 Uiso
C4 C 0.6985(5) 0.5944(5) 0.7204(5) 0.0447 Uani
H62 H 0.7138 0.6178 0.7332 0.0530 Uiso
H63 H 0.7170 0.5839 0.7000 0.0530 Uiso
C5 C 0.6896(5) 0.5587(5) 0.7469(5) 0.0473 Uani
H64 H 0.6773 0.5708 0.7698 0.0570 Uiso
H65 H 0.7169 0.5445 0.7534 0.0570 Uiso
C6 C 0.5153(4) 0.5200(4) 0.7140(4) 0.0300 Uani
H66 H 0.5079 0.5383 0.6926 0.0360 Uiso
H67 H 0.5098 0.5369 0.7367 0.0360 Uiso
C7 C 0.6346(9) 0.9414(9) 0.7251(8) 0.1040 Uani
H68 H 0.6604 0.9539 0.7133 0.1230 Uiso
H69 H 0.6377 0.9440 0.7522 0.1230 Uiso
C8 C 0.5938(8) 0.9657(8) 0.7119(8) 0.0903 Uani
H70 H 0.5687 0.9562 0.7265 0.1080 Uiso
H71 H 0.5975 0.9968 0.7158 0.1080 Uiso
C9 C 0.5992(7) 0.8133(6) 0.6117(6) 0.0727 Uani
H72 H 0.5907 0.7828 0.6101 0.0870 Uiso
H73 H 0.6235 0.8178 0.5945 0.0870 Uiso
C10 C 0.5612(8) 0.8413(8) 0.5991(7) 0.0887 Uani
H74 H 0.5571 0.8384 0.5721 0.1060 Uiso
H75 H 0.5347 0.8318 0.6116 0.1060 Uiso
C11 C 0.3631(6) 0.9172(6) 0.7317(6) 0.0583 Uani
H76 H 0.3702 0.9239 0.7577 0.0700 Uiso
H77 H 0.3558 0.9443 0.7189 0.0700 Uiso
C12 C 0.3252(6) 0.8860(5) 0.7299(5) 0.0537 Uani
H78 H 0.3317 0.8595 0.7439 0.0640 Uiso
H79 H 0.2992 0.8992 0.7405 0.0640 Uiso
C13 C 0.4300(5) 0.8379(5) 0.6006(5) 0.0513 Uani
H80 H 0.4557 0.8227 0.5913 0.0620 Uiso
H81 H 0.4246 0.8627 0.5842 0.0620 Uiso
C14 C 0.3905(5) 0.8069(5) 0.5995(5) 0.0467 Uani
H82 H 0.3833 0.7991 0.5737 0.0560 Uiso
H83 H 0.3965 0.7804 0.6136 0.0560 Uiso
C15 C 0.7838(5) 0.7540(6) 0.6926(5) 0.0563 Uani
H84 H 0.8077 0.7348 0.6858 0.0680 Uiso
H85 H 0.7802 0.7752 0.6725 0.0680 Uiso
C16 C 0.7432(5) 0.7278(6) 0.6961(6) 0.0577 Uani
H86 H 0.7345 0.7171 0.6715 0.0690 Uiso
H87 H 0.7483 0.7029 0.7124 0.0690 Uiso
C17 C 0.7631(6) 0.8005(7) 0.8355(6) 0.0737 Uani
H88 H 0.7556 0.8157 0.8587 0.0880 Uiso
H89 H 0.7940 0.7936 0.8363 0.0880 Uiso
C18 C 0.7370(6) 0.7586(7) 0.8330(6) 0.0687 Uani
H90 H 0.7491 0.7370 0.8501 0.0820 Uiso
H91 H 0.7069 0.7640 0.8402 0.0820 Uiso
O59 O 0.5615(3) 0.6153(3) 0.8828(3) 0.0500 Uiso
Co1B Co 0.41153(5) 1.07392(5) 0.86811(5) 0.0304 Uani
Co1I Co 0.57392(5) 0.58847(5) 0.61811(5) 0.0304 Uani
Co1C Co 0.92608(5) 0.91153(5) 1.11811(5) 0.0304 Uani
Co2C Co 0.56287(5) 0.89327(5) 0.95334(5) 0.0244 Uani
Co2B Co 0.39327(5) 0.43713(5) 0.70334(5) 0.0244 Uani
Co2J Co 0.89327(5) 0.93713(5) 1.20334(5) 0.0244 Uani
Co3C Co 0.88951(5) 0.90150(6) 0.91281(5) 0.0321 Uani
Co3G Co 0.38951(5) 0.59850(6) 0.91281(5) 0.0321 Uani
Co3E Co 0.59850(6) 1.11049(5) 1.16281(5) 0.0321 Uani
Co4C Co 0.86555(6) 1.12087(6) 0.91374(6) 0.0342 Uani
Co5C Co 0.79511(7) 0.76689(5) 1.00498(6) 0.0409 Uani
Ge1C Ge 0.83818(4) 0.98227(4) 1.13044(4) 0.0217 Uani
Ge2C Ge 0.79583(4) 1.07095(4) 1.13233(4) 0.0239 Uani
Ge3C Ge 0.63815(3) 0.98059(4) 0.94208(4) 0.0207 Uani
Ge4C Ge 0.66858(4) 1.07377(4) 0.94822(4) 0.0269 Uani
V1C V 0.84872(6) 1.04609(6) 1.04898(6) 0.0211 Uani
V2C V 0.85453(6) 0.94693(6) 1.04612(6) 0.0203 Uani
V3C V 0.79282(6) 0.87805(5) 1.03047(6) 0.0197 Uani
V4C V 0.69582(6) 0.87423(6) 1.02870(6) 0.0205 Uani
V5C V 0.62726(6) 0.93444(6) 1.02235(6) 0.0193 Uani
V6C V 0.62008(6) 1.03264(6) 1.03004(6) 0.0236 Uani
V7C V 0.68479(6) 1.10874(6) 1.03572(7) 0.0273 Uani
V8C V 0.77591(6) 1.11531(6) 1.04852(6) 0.0250 Uani
V9C V 0.82631(6) 0.97097(6) 0.96870(6) 0.0186 Uani
V10C V 0.74899(6) 1.00178(6) 0.92621(6) 0.0198 Uani
V11C V 0.72019(5) 0.91289(6) 0.95396(6) 0.0174 Uani
V12C V 0.77690(6) 1.08216(6) 0.97044(6) 0.0213 Uani
V13C V 0.76634(6) 0.90289(6) 1.10911(6) 0.0223 Uani
V14C V 0.72692(6) 0.98456(6) 1.14612(6) 0.0247 Uani
V15C V 0.68888(6) 1.06655(6) 1.11013(6) 0.0253 Uani
V16C V 0.65431(6) 0.95030(6) 1.10235(6) 0.0220 Uani
N1B N 0.3554(3) 1.1132(4) 0.8609(4) 0.0377 Uani
H1B H 0.3421 1.1167 0.8834 0.0450 Uiso
H2B H 0.3636 1.1398 0.8526 0.0450 Uiso
N2B N 0.3698(4) 1.0282(5) 0.8392(4) 0.0553 Uani
H3B H 0.3787 1.0254 0.8151 0.0660 Uiso
H4B H 0.3718 1.0018 0.8503 0.0660 Uiso
N3B N 0.4676(4) 1.0367(4) 0.8578(4) 0.0463 Uani
H5B H 0.4901 1.0555 0.8603 0.0560 Uiso
H6B H 0.4696 1.0182 0.8775 0.0560 Uiso
N4C N 0.6108(3) 0.8427(4) 0.9550(3) 0.0353 Uani
H7C H 0.6207 0.8380 0.9314 0.0420 Uiso
H8C H 0.6335 0.8518 0.9691 0.0420 Uiso
N5C N 0.5255(4) 0.8412(4) 0.9811(4) 0.0397 Uani
H9C H 0.5088 0.8523 0.9997 0.0480 Uiso
H10C H 0.5082 0.8275 0.9644 0.0480 Uiso
N6B N 0.4385(4) 0.4902(3) 0.7122(3) 0.0337 Uani
N6C N 0.5098(3) 0.9385(4) 0.9622(3) 0.0337 Uani
H11B H 0.4346 0.5097 0.6935 0.0410 Uiso
H11C H 0.4903 0.9346 0.9435 0.0410 Uiso
H12B H 0.4311 0.5036 0.7339 0.0410 Uiso
H12C H 0.4964 0.9311 0.9839 0.0410 Uiso
N7C N 0.8952(6) 0.8696(6) 0.9645(5) 0.0750 Uani
H13C H 0.8809 0.8848 0.9824 0.0900 Uiso
H14C H 0.8830 0.8429 0.9629 0.0900 Uiso
N8C N 0.9566(6) 0.9137(6) 0.9216(6) 0.0837 Uani
H15C H 0.9729 0.8956 0.9073 0.1010 Uiso
H16C H 0.9631 0.9414 0.9152 0.1010 Uiso
N9C N 0.8225(5) 0.8863(6) 0.9001(5) 0.0717 Uani
H17C H 0.8180 0.8573 0.9020 0.0860 Uiso
H18C H 0.8047 0.9000 0.9164 0.0860 Uiso
N10C N 0.8869(6) 0.9298(6) 0.8586(5) 0.0800 Uani
H19C H 0.9024 0.9548 0.8583 0.0960 Uiso
H20C H 0.8986 0.9114 0.8415 0.0960 Uiso
N11C N 0.8953(4) 1.0980(4) 0.9623(4) 0.0447 Uani
H21C H 0.8753 1.0859 0.9778 0.0540 Uiso
H22C H 0.9153 1.0775 0.9565 0.0540 Uiso
N12C N 0.8760(4) 1.1813(4) 0.9394(4) 0.0450 Uani
H23C H 0.8985 1.1951 0.9281 0.0540 Uiso
H24C H 0.8521 1.1981 0.9370 0.0540 Uiso
N13C N 0.8526(4) 1.0623(4) 0.8873(4) 0.0467 Uani
H25C H 0.8771 1.0459 0.8866 0.0560 Uiso
H26C H 0.8322 1.0475 0.9003 0.0560 Uiso
N14C N 0.8326(4) 1.1465(4) 0.8676(4) 0.0447 Uani
H27C H 0.8143 1.1679 0.8751 0.0530 Uiso
H28C H 0.8517 1.1578 0.8510 0.0530 Uiso
N15C N 0.7766(5) 0.7054(4) 0.9773(4) 0.0570 Uani
H29C H 0.8006 0.6894 0.9722 0.0680 Uiso
H30C H 0.7590 0.6897 0.9925 0.0680 Uiso
N16C N 0.7550(4) 0.7912(4) 0.9618(4) 0.0427 Uani
H31C H 0.7378 0.8126 0.9711 0.0510 Uiso
H32C H 0.7717 0.8027 0.9434 0.0510 Uiso
N17C N 0.8293(6) 0.7457(5) 1.0530(5) 0.0717 Uani
H33C H 0.8441 0.7211 1.0473 0.0860 Uiso
H34C H 0.8490 0.7662 1.0595 0.0860 Uiso
N18C N 0.7427(5) 0.7610(4) 1.0444(4) 0.0540 Uani
H35C H 0.7234 0.7828 1.0406 0.0650 Uiso
H36C H 0.7288 0.7355 1.0407 0.0650 Uiso
O1C O 0.8462(3) 0.9948(2) 1.0830(2) 0.0277 Uani
O2C O 0.8505(2) 0.9982(2) 1.0139(2) 0.0237 Uani
O3C O 0.8109(3) 1.0806(2) 1.0855(2) 0.0270 Uani
O4C O 0.8126(2) 1.0797(2) 1.0153(2) 0.0243 Uani
O5C O 0.8962(3) 1.0677(3) 1.0524(3) 0.0353 Uani
O6C O 0.8154(3) 0.9100(2) 1.0745(2) 0.0230 Uani
O7C O 0.8257(2) 0.9214(2) 1.0034(2) 0.0230 Uani
O8C O 0.9040(3) 0.9278(3) 1.0519(3) 0.0380 Uani
O9C O 0.7430(2) 0.8739(2) 1.0647(2) 0.0233 Uani
O10C O 0.7465(2) 0.8811(2) 0.9951(2) 0.0223 Uani
O11C O 0.8150(3) 0.8308(2) 1.0250(3) 0.0350 Uani
O12C O 0.6581(2) 0.9063(2) 1.0629(2) 0.0220 Uani
O13C O 0.6708(2) 0.9116(3) 0.9895(2) 0.0240 Uani
O14C O 0.6772(3) 0.8250(3) 1.0249(3) 0.0333 Uani
O15C O 0.6244(3) 0.9798(2) 1.0604(2) 0.0257 Uani
O16C O 0.6286(3) 0.9877(2) 0.9910(2) 0.0263 Uani
O17C O 0.5806(2) 0.9104(2) 1.0132(2) 0.0243 Uani
O18C O 0.6536(3) 1.0667(2) 1.0658(3) 0.0277 Uani
O19C O 0.6533(3) 1.0744(3) 0.9956(3) 0.0327 Uani
O20C O 0.5703(3) 1.0485(3) 1.0309(3) 0.0360 Uani
O21C O 0.7246(2) 1.1047(2) 1.0783(3) 0.0267 Uani
O22C O 0.7377(3) 1.1110(2) 1.0053(3) 0.0283 Uani
O23C O 0.6603(3) 1.1558(3) 1.0357(3) 0.0413 Uani
O24C O 0.7923(3) 1.1653(3) 1.0514(3) 0.0407 Uani
O25C O 0.7969(2) 1.0262(2) 0.9547(3) 0.0250 Uani
O26C O 0.7723(2) 0.9486(2) 0.9467(2) 0.0220 Uani
O27C O 0.8659(3) 0.9622(3) 0.9391(3) 0.0373 Uani
O28C O 0.7236(2) 1.0577(3) 0.9441(3) 0.0277 Uani
O29C O 0.6936(2) 0.9689(2) 0.9353(2) 0.0250 Uani
O30C O 0.7584(3) 1.0058(3) 0.8819(3) 0.0357 Uani
O31C O 0.7153(3) 0.8779(2) 0.9207(2) 0.0273 Uani
O32C O 0.7997(3) 1.1183(3) 0.9431(3) 0.0303 Uani
O33C O 0.7858(3) 0.9595(3) 1.1350(3) 0.0273 Uani
O34C O 0.7117(3) 0.9317(2) 1.1199(2) 0.0263 Uani
O35C O 0.7758(3) 0.8647(3) 1.1393(3) 0.0387 Uani
O36C O 0.7450(2) 1.0462(2) 1.1350(2) 0.0250 Uani
O37C O 0.6758(3) 1.0067(3) 1.1203(2) 0.0280 Uani
O38C O 0.7181(3) 0.9791(3) 1.1909(3) 0.0397 Uani
O39C O 0.6622(3) 1.0955(3) 1.1403(3) 0.0400 Uani
O39O O 0.6622(3) 0.9045(3) 0.6403(3) 0.0400 Uani
O39M O 0.9045(3) 0.8378(3) 0.8903(3) 0.0400 Uani
O40C O 0.8340(3) 1.0347(2) 1.1532(2) 0.0267 Uani
O41C O 0.8799(3) 0.9521(3) 1.1481(2) 0.0283 Uani
O41I O 0.6201(3) 0.5479(3) 0.6481(2) 0.0283 Uani
O41B O 0.4521(3) 1.1201(3) 0.8981(2) 0.0283 Uani
O42C O 0.7954(3) 1.1192(3) 1.1596(3) 0.0417 Uani
O43C O 0.6357(2) 1.0352(3) 0.9243(3) 0.0297 Uani
O44C O 0.6017(3) 0.9446(3) 0.9237(2) 0.0277 Uani
O44A O 0.3983(3) 1.0554(3) 0.9237(2) 0.0277 Uani
O45C O 0.6602(3) 1.1245(3) 0.9273(3) 0.0470 Uani
O46C O 0.8534(4) 0.7683(4) 0.9692(4) 0.0740 Uani
H37C H 0.8760 0.7661 0.9829 0.0890 Uiso
H38C H 0.8565 0.7514 0.9503 0.0890 Uiso
C1B C 0.3262(5) 1.0953(5) 0.8357(5) 0.0493 Uani
H56B H 0.3345 1.1032 0.8101 0.0590 Uiso
H57B H 0.2972 1.1069 0.8404 0.0590 Uiso
C2B C 0.3256(6) 1.0428(6) 0.8399(6) 0.0650 Uani
H58B H 0.3118 1.0346 0.8635 0.0780 Uiso
H59B H 0.3093 1.0298 0.8193 0.0780 Uiso
C3B C 0.4773(7) 1.0126(7) 0.8273(6) 0.0750 Uani
H60B H 0.4767 1.0317 0.8054 0.0900 Uiso
H61B H 0.4542 0.9912 0.8240 0.0900 Uiso
C4C C 0.5944(5) 0.8015(5) 0.9704(5) 0.0447 Uani
H62C H 0.6178 0.7862 0.9832 0.0530 Uiso
H63C H 0.5839 0.7830 0.9500 0.0530 Uiso
C5C C 0.5587(5) 0.8104(5) 0.9969(5) 0.0473 Uani
H64C H 0.5708 0.8227 1.0198 0.0570 Uiso
H65C H 0.5445 0.7831 1.0034 0.0570 Uiso
C6B C 0.4847(4) 0.4800(4) 0.7140(4) 0.0300 Uani
H66B H 0.4921 0.4617 0.6926 0.0360 Uiso
H67B H 0.4902 0.4631 0.7367 0.0360 Uiso
C7C C 0.9414(9) 0.8654(9) 0.9751(8) 0.1040 Uani
H68C H 0.9539 0.8396 0.9633 0.1230 Uiso
H69C H 0.9440 0.8623 1.0022 0.1230 Uiso
C8C C 0.9657(8) 0.9062(8) 0.9619(8) 0.0903 Uani
H70C H 0.9562 0.9313 0.9765 0.1080 Uiso
H71C H 0.9968 0.9025 0.9658 0.1080 Uiso
C9C C 0.8133(6) 0.9008(7) 0.8617(6) 0.0727 Uani
H72C H 0.7828 0.9093 0.8601 0.0870 Uiso
H73C H 0.8178 0.8765 0.8445 0.0870 Uiso
C10C C 0.8413(8) 0.9388(8) 0.8491(7) 0.0887 Uani
H74C H 0.8384 0.9429 0.8221 0.1060 Uiso
H75C H 0.8318 0.9653 0.8616 0.1060 Uiso
C11C C 0.9172(6) 1.1369(6) 0.9817(6) 0.0583 Uani
H76C H 0.9239 1.1298 1.0077 0.0700 Uiso
H77C H 0.9443 1.1442 0.9689 0.0700 Uiso
C12C C 0.8860(5) 1.1748(6) 0.9799(5) 0.0537 Uani
H78C H 0.8595 1.1683 0.9939 0.0640 Uiso
H79C H 0.8992 1.2008 0.9905 0.0640 Uiso
C13C C 0.8379(5) 1.0700(5) 0.8506(5) 0.0513 Uani
H80C H 0.8227 1.0443 0.8413 0.0620 Uiso
H81C H 0.8627 1.0754 0.8342 0.0620 Uiso
C14C C 0.8069(5) 1.1095(5) 0.8495(5) 0.0467 Uani
H82C H 0.7991 1.1167 0.8237 0.0560 Uiso
H83C H 0.7804 1.1035 0.8636 0.0560 Uiso
C15C C 0.7540(6) 0.7162(5) 0.9426(5) 0.0563 Uani
H84C H 0.7348 0.6923 0.9358 0.0680 Uiso
H85C H 0.7752 0.7198 0.9225 0.0680 Uiso
C16C C 0.7278(6) 0.7568(5) 0.9461(6) 0.0577 Uani
H86C H 0.7171 0.7655 0.9215 0.0690 Uiso
H87C H 0.7029 0.7517 0.9624 0.0690 Uiso
C17C C 0.8005(7) 0.7369(6) 1.0855(6) 0.0737 Uani
H88C H 0.8157 0.7444 1.1087 0.0880 Uiso
H89C H 0.7936 0.7060 1.0863 0.0880 Uiso
C18C C 0.7586(7) 0.7630(6) 1.0830(6) 0.0687 Uani
H90C H 0.7370 0.7509 1.1001 0.0820 Uiso
H91C H 0.7640 0.7931 1.0902 0.0820 Uiso
O59C O 0.6153(3) 0.9385(3) 1.1328(3) 0.0500 Uiso
O47 O 0.2861(15) 0.9411(11) 0.8225(9) 0.3000 Uani
H39 H 0.3027 0.9215 0.8318 0.3630 Uiso
H40 H 0.2741 0.9549 0.8406 0.3630 Uiso
O48 O 0.3304(15) 0.8723(11) 0.8483(8) 0.3033 Uani
H41 H 0.3286 0.8474 0.8379 0.3650 Uiso
H42 H 0.3300 0.8688 0.8721 0.3650 Uiso
O49 O 0.5036(4) 0.7368(4) 0.7870(4) 0.0593 Uani
H43 H 0.4828 0.7189 0.7836 0.0710 Uiso
H44 H 0.5162 0.7298 0.8076 0.0710 Uiso
O50 O 0.4424(5) 0.9341(5) 0.8934(5) 0.0943 Uani
H45 H 0.4465 0.9069 0.8969 0.1130 Uiso
H46 H 0.4181 0.9411 0.9035 0.1130 Uiso
O51 O 0.0534(12) 0.9846(12) 0.9720(12) 0.2567 Uani
H47 H 0.0724 0.9818 0.9894 0.3080 Uiso
H48 H 0.0653 0.9989 0.9542 0.3080 Uiso
O52 O 0.0523(11) 0.9747(11) 0.8770(11) 0.2267 Uani
H49 H 0.0570 0.9473 0.8773 0.2740 Uiso
H50 H 0.0349 0.9804 0.8589 0.2740 Uiso
O53 O 0.4213(12) 0.8407(13) 0.9912(11) 0.2267 Uani
O54 O 0.4255(8) 0.7581(9) 1.0036(8) 0.1700 Uani
H51 H 0.4440 0.7380 0.9992 0.2070 Uiso
H52 H 0.4332 0.7709 1.0238 0.2070 Uiso
O55 O 1.0000 1.0000 0.825(3) 0.4967 Uani
H53 H 0.9872 0.9814 0.8114 0.5960 Uiso
H53B H 1.0128 1.0186 0.8114 0.5960 Uiso
O56 O 0.493(3) 0.888(3) 1.061(3) 0.6267 Uani
H54 H 0.5165 0.8914 1.0482 0.7510 Uiso
H55 H 0.4736 0.9045 1.0518 0.7510 Uiso
O57 O 0.2873(10) 1.0042(11) 0.7659(10) 0.2000 Uani
O58 O 0.2235(15) 1.0263(14) 0.8124(14) 0.2700 Uani
loop_
_atom_site_aniso_label
_atom_site_aniso_U_11
_atom_site_aniso_U_22
_atom_site_aniso_U_33
_atom_site_aniso_U_23
_atom_site_aniso_U_13
_atom_site_aniso_U_12
Co1 0.0260(8) 0.0293(8) 0.0358(10) 0.0054(7) 0.0052(7) 0.0018(7)
Co2 0.023 0.0235 0.0266 -0.0001 -0.0032 -0.001
Co3 0.0347(9) 0.0242(8) 0.0373(11) 0.0070(7) 0.0102(8) -0.0016(7)
Co4 0.0345(9) 0.0326(9) 0.0356(10) 0.0084(8) -0.0101(8) 0.0042(7)
Co5 0.0208(8) 0.0556(11) 0.0464(12) -0.0208(10) 0.0021(8) -0.0055(8)
Ge1 0.0187(5) 0.0244(6) 0.0219(6) 0.0003(5) 0.0007(5) 0.0022(4)
Ge2 0.0184(5) 0.0246(6) 0.0287(7) 0.0064(5) 0.0064(5) 0.0041(4)
Ge3 0.0202(5) 0.0160(5) 0.0258(6) 0.0020(5) -0.0046(5) -0.0019(4)
Ge4 0.0188(6) 0.0209(6) 0.0410(8) 0.0053(5) -0.0099(5) -0.0050(4)
V1 0.0160(8) 0.0213(9) 0.0260(11) 0.0053(8) -0.0005(8) 0.0023(7)
V2 0.0169(9) 0.0196(9) 0.0245(11) -0.0013(8) 0.0015(8) -0.0003(7)
V3 0.0133(8) 0.0244(9) 0.0215(10) -0.0040(8) -0.0001(7) -0.0001(7)
V4 0.0151(8) 0.0256(9) 0.0209(10) 0.0010(8) -0.0001(7) 0.0044(7)
V5 0.0163(8) 0.0188(9) 0.0228(11) 0.0047(8) -0.0006(8) 0.0017(7)
V6 0.0165(8) 0.0178(9) 0.0364(12) 0.0094(8) 0.0016(8) -0.0012(7)
V7 0.0140(9) 0.0233(10) 0.0445(14) 0.0119(9) 0.0001(8) -0.0015(7)
V8 0.0115(8) 0.0259(10) 0.0377(12) 0.0075(9) 0.0004(8) 0.0012(7)
V9 0.0159(8) 0.0174(8) 0.0224(10) 0.0037(7) 0.0007(7) -0.0020(7)
V10 0.0205(9) 0.0166(8) 0.0224(10) 0.0036(7) -0.0036(8) -0.0010(7)
V11 0.0171(8) 0.0148(8) 0.0204(10) 0.0019(7) -0.0010(7) -0.0010(7)
V12 0.0155(8) 0.0194(9) 0.0291(11) 0.0059(8) -0.0063(8) 0.0002(7)
V13 0.0179(9) 0.0285(10) 0.0205(11) -0.0024(8) -0.0015(8) 0.0039(7)
V14 0.0220(9) 0.0286(10) 0.0235(11) 0.0077(8) 0.0028(8) 0.0066(8)
V15 0.0171(9) 0.0235(10) 0.0354(12) 0.0102(9) 0.0073(8) 0.0017(7)
V16 0.0215(9) 0.0238(9) 0.0206(10) 0.0060(8) 0.0017(8) 0.0087(8)
N1 0.033(6) 0.045(6) 0.035(7) -0.005(5) -0.001(5) 0.006(5)
N2 0.055(8) 0.062(8) 0.049(9) 0.004(7) 0.016(7) -0.008(7)
N3 0.043(7) 0.049(7) 0.047(8) 0.012(6) -0.002(6) 0.006(6)
N4 0.035 0.039 0.032 -0.009 0.009 -0.006
N5 0.038 0.044 0.037 0.004 -0.007 0.007
N6 0.03 0.037 0.034 0.003 -0.003 0.001
N7 0.072(10) 0.086(12) 0.067(12) 0.013(9) 0.001(9) -0.027(9)
N8 0.093(13) 0.072(11) 0.086(14) 0.008(10) 0.032(11) -0.013(9)
N9 0.078(11) 0.059(9) 0.078(12) 0.020(9) 0.020(9) -0.005(8)
N10 0.081(11) 0.090(13) 0.069(12) 0.008(10) 0.018(9) -0.028(9)
N11 0.051(7) 0.038(6) 0.045(8) 0.011(6) -0.017(6) 0.003(5)
N12 0.048(7) 0.045(7) 0.042(8) 0.012(6) -0.004(6) 0.010(5)
N13 0.045(7) 0.044(7) 0.051(9) 0.015(6) -0.010(6) 0.012(5)
N14 0.050(7) 0.045(7) 0.039(8) 0.011(6) -0.011(6) 0.000(5)
N15 0.034(6) 0.071(9) 0.066(10) -0.023(8) 0.004(6) -0.004(6)
N16 0.030(6) 0.053(7) 0.045(8) -0.014(6) 0.001(5) -0.007(5)
N17 0.052(9) 0.093(12) 0.070(12) -0.029(10) 0.003(8) -0.008(8)
N18 0.038(7) 0.077(10) 0.047(8) 0.003(7) -0.003(6) -0.005(6)
O1 0.021(4) 0.035(4) 0.027(5) 0.003(4) -0.003(3) 0.002(3)
O2 0.020(4) 0.026(4) 0.025(4) 0.000(3) 0.001(3) -0.002(3)
O3 0.023(4) 0.026(4) 0.032(5) 0.011(4) 0.001(3) -0.003(3)
O4 0.018(4) 0.020(4) 0.035(5) 0.005(3) -0.002(3) -0.007(3)
O5 0.036(5) 0.019(4) 0.051(6) 0.004(4) 0.000(4) 0.005(3)
O6 0.017(4) 0.028(4) 0.024(4) -0.004(3) -0.003(3) 0.001(3)
O7 0.017(4) 0.023(4) 0.029(5) -0.001(3) 0.001(3) 0.001(3)
O8 0.038(5) 0.030(5) 0.046(6) -0.008(4) 0.002(4) -0.005(4)
O9 0.024(4) 0.025(4) 0.021(4) 0.001(3) -0.003(3) 0.006(3)
O10 0.017(4) 0.019(4) 0.031(5) 0.000(3) -0.002(3) 0.004(3)
O11 0.018(4) 0.046(5) 0.041(6) -0.015(4) -0.001(4) -0.001(4)
O12 0.016(4) 0.027(4) 0.023(4) 0.003(3) 0.001(3) 0.005(3)
O13 0.027(4) 0.019(4) 0.026(5) 0.003(3) 0.001(3) -0.002(3)
O14 0.023(4) 0.049(5) 0.028(5) 0.005(4) 0.005(4) 0.012(4)
O15 0.021(4) 0.026(4) 0.030(5) 0.008(4) 0.000(3) 0.001(3)
O16 0.022(4) 0.025(4) 0.032(5) 0.002(4) 0.000(3) 0.003(3)
O17 0.022(4) 0.017(4) 0.034(5) 0.002(3) -0.002(3) 0.002(3)
O18 0.018(4) 0.027(4) 0.038(5) 0.011(4) 0.001(3) 0.005(3)
O19 0.028(4) 0.030(4) 0.040(6) 0.007(4) 0.000(4) 0.002(3)
O20 0.031(4) 0.022(4) 0.055(6) 0.008(4) 0.007(4) -0.002(3)
O21 0.020(4) 0.024(4) 0.036(5) 0.011(4) 0.005(3) 0.005(3)
O22 0.024(4) 0.025(4) 0.036(5) 0.008(4) -0.007(4) -0.002(3)
O23 0.016(4) 0.040(5) 0.068(8) 0.015(5) 0.006(4) -0.009(4)
O24 0.017(4) 0.049(6) 0.056(7) 0.010(5) -0.004(4) 0.007(4)
O25 0.021(4) 0.023(4) 0.031(5) 0.001(3) -0.005(3) 0.002(3)
O26 0.021(4) 0.018(4) 0.027(5) 0.004(3) -0.001(3) 0.002(3)
O27 0.038(5) 0.033(5) 0.041(6) 0.004(4) 0.013(4) 0.001(4)
O28 0.023(4) 0.022(4) 0.038(5) 0.003(4) -0.004(4) -0.003(3)
O29 0.025(4) 0.020(4) 0.030(5) 0.002(3) -0.002(3) -0.002(3)
O30 0.043(5) 0.032(4) 0.032(5) 0.002(4) -0.011(4) 0.005(4)
O31 0.024(4) 0.030(4) 0.028(5) -0.003(4) 0.003(3) -0.006(3)
O32 0.032(4) 0.025(4) 0.034(5) 0.009(4) -0.010(4) 0.006(3)
O33 0.025(4) 0.027(4) 0.030(5) 0.004(4) 0.002(4) 0.006(3)
O34 0.024(4) 0.028(4) 0.027(5) -0.001(3) 0.002(3) 0.005(3)
O35 0.030(5) 0.056(6) 0.030(5) -0.007(4) 0.001(4) 0.011(4)
O36 0.018(4) 0.025(4) 0.032(5) 0.009(4) 0.003(3) 0.006(3)
O37 0.025(4) 0.028(4) 0.031(5) 0.007(4) 0.002(4) 0.004(3)
O38 0.047(5) 0.042(5) 0.030(5) 0.011(4) 0.006(4) 0.008(4)
O39 0.036(5) 0.032(5) 0.052(7) 0.008(4) 0.015(5) -0.003(4)
O40 0.020(4) 0.028(4) 0.032(5) 0.000(4) 0.007(3) -0.001(3)
O41 0.026(4) 0.031(4) 0.028(5) -0.002(4) -0.003(4) -0.003(3)
O42 0.034(5) 0.033(5) 0.058(7) 0.006(5) 0.014(5) 0.005(4)
O43 0.025(4) 0.023(4) 0.041(5) 0.000(4) -0.009(4) -0.004(3)
O44 0.031(4) 0.025(4) 0.027(5) 0.002(4) -0.005(4) 0.007(3)
O45 0.029(5) 0.036(5) 0.076(8) 0.003(5) -0.018(5) -0.009(4)
O46 0.072(8) 0.066(8) 0.084(10) 0.002(7) 0.041(8) -0.001(6)
C1 0.035(7) 0.061(10) 0.052(10) -0.021(8) 0.009(7) -0.002(7)
C2 0.053(10) 0.085(13) 0.057(12) -0.006(10) 0.012(9) -0.022(9)
C3 0.094(15) 0.075(13) 0.056(13) -0.001(10) 0.019(11) 0.031(11)
C4 0.039 0.047 0.048 -0.007 -0.009 -0.006
C5 0.041 0.062 0.039 -0.001 -0.007 -0.002
C6 0.029 0.019 0.042 -0.003 0 0.001
C7 0.12(2) 0.11(2) 0.082(18) -0.014(15) 0.006(16) -0.018(16)
C8 0.098(17) 0.078(14) 0.095(19) -0.026(13) 0.016(14) -0.007(13)
C9 0.084(14) 0.060(11) 0.074(15) -0.012(11) 0.022(12) -0.016(10)
C10 0.102(18) 0.089(16) 0.075(17) -0.003(13) 0.016(14) -0.023(14)
C11 0.065(11) 0.056(10) 0.054(11) -0.001(8) -0.003(9) 0.014(8)
C12 0.059(10) 0.049(9) 0.053(11) 0.005(8) -0.008(8) 0.014(8)
C13 0.057(10) 0.050(9) 0.047(10) 0.015(7) 0.004(8) 0.021(7)
C14 0.053(9) 0.043(8) 0.044(9) 0.005(7) -0.002(7) 0.019(7)
C15 0.034(8) 0.072(11) 0.063(11) -0.022(9) 0.010(7) -0.003(7)
C16 0.044(9) 0.065(10) 0.064(12) -0.015(9) 0.003(8) 0.005(7)
C17 0.057(11) 0.101(16) 0.063(14) -0.023(12) 0.002(10) -0.013(10)
C18 0.057(11) 0.092(14) 0.057(12) -0.012(11) 0.000(9) 0.008(10)
Co1B 0.026 0.0293 0.0358 -0.0054 -0.0052 0.0018
Co1I 0.0293 0.026 0.0358 0.0052 -0.0054 -0.0018
Co1C 0.0293 0.026 0.0358 -0.0052 0.0054 -0.0018
Co2C 0.0235(7) 0.0230(7) 0.0266(9) 0.0032(7) -0.0001(6) 0.0010(6)
Co2B 0.023 0.0235 0.0266 0.0001 0.0032 -0.001
Co2J 0.023 0.0235 0.0266 0.0001 0.0032 -0.001
Co3C 0.0242 0.0347 0.0373 -0.0102 0.007 0.0016
Co3G 0.0242 0.0347 0.0373 0.0102 0.007 -0.0016
Co3E 0.0347 0.0242 0.0373 -0.007 0.0102 0.0016
Co4C 0.0326 0.0345 0.0356 0.0101 0.0084 -0.0042
Co5C 0.0556 0.0208 0.0464 -0.0021 -0.0208 0.0055
Ge1C 0.0244 0.0187 0.0219 -0.0007 0.0003 -0.0022
Ge2C 0.0246 0.0184 0.0287 -0.0064 0.0064 -0.0041
Ge3C 0.016 0.0202 0.0258 0.0046 0.002 0.0019
Ge4C 0.0209 0.0188 0.041 0.0099 0.0053 0.005
V1C 0.0213 0.016 0.026 0.0005 0.0053 -0.0023
V2C 0.0196 0.0169 0.0245 -0.0015 -0.0013 0.0003
V3C 0.0244 0.0133 0.0215 0.0001 -0.004 0.0001
V4C 0.0256 0.0151 0.0209 0.0001 0.001 -0.0044
V5C 0.0188 0.0163 0.0228 0.0006 0.0047 -0.0017
V6C 0.0178 0.0165 0.0364 -0.0016 0.0094 0.0012
V7C 0.0233 0.014 0.0445 -0.0001 0.0119 0.0015
V8C 0.0259 0.0115 0.0377 -0.0004 0.0075 -0.0012
V9C 0.0174 0.0159 0.0224 -0.0007 0.0037 0.002
V10C 0.0166 0.0205 0.0224 0.0036 0.0036 0.001
V11C 0.0148 0.0171 0.0204 0.001 0.0019 0.001
V12C 0.0194 0.0155 0.0291 0.0063 0.0059 -0.0002
V13C 0.0285 0.0179 0.0205 0.0015 -0.0024 -0.0039
V14C 0.0286 0.022 0.0235 -0.0028 0.0077 -0.0066
V15C 0.0235 0.0171 0.0354 -0.0073 0.0102 -0.0017
V16C 0.0238 0.0215 0.0206 -0.0017 0.006 -0.0087
N1B 0.033 0.045 0.035 0.005 0.001 0.006
N2B 0.055 0.062 0.049 -0.004 -0.016 -0.008
N3B 0.043 0.049 0.047 -0.012 0.002 0.006
N4C 0.039(6) 0.035(6) 0.032(7) -0.009(5) -0.009(5) 0.006(5)
N5C 0.044(7) 0.038(6) 0.037(7) 0.007(5) 0.004(5) -0.007(5)
N6B 0.03 0.037 0.034 -0.003 0.003 0.001
N6C 0.037(6) 0.030(5) 0.034(7) 0.003(5) 0.003(5) -0.001(4)
N7C 0.086 0.072 0.067 -0.001 0.013 0.027
N8C 0.072 0.093 0.086 -0.032 0.008 0.013
N9C 0.059 0.078 0.078 -0.02 0.02 0.005
N10C 0.09 0.081 0.069 -0.018 0.008 0.028
N11C 0.038 0.051 0.045 0.017 0.011 -0.003
N12C 0.045 0.048 0.042 0.004 0.012 -0.01
N13C 0.044 0.045 0.051 0.01 0.015 -0.012
N14C 0.045 0.05 0.039 0.011 0.011 0
N15C 0.071 0.034 0.066 -0.004 -0.023 0.004
N16C 0.053 0.03 0.045 -0.001 -0.014 0.007
N17C 0.093 0.052 0.07 -0.003 -0.029 0.008
N18C 0.077 0.038 0.047 0.003 0.003 0.005
O1C 0.035 0.021 0.027 0.003 0.003 -0.002
O2C 0.026 0.02 0.025 -0.001 0 0.002
O3C 0.026 0.023 0.032 -0.001 0.011 0.003
O4C 0.02 0.018 0.035 0.002 0.005 0.007
O5C 0.019 0.036 0.051 0 0.004 -0.005
O6C 0.028 0.017 0.024 0.003 -0.004 -0.001
O7C 0.023 0.017 0.029 -0.001 -0.001 -0.001
O8C 0.03 0.038 0.046 -0.002 -0.008 0.005
O9C 0.025 0.024 0.021 0.003 0.001 -0.006
O10C 0.019 0.017 0.031 0.002 0 -0.004
O11C 0.046 0.018 0.041 0.001 -0.015 0.001
O12C 0.027 0.016 0.023 -0.001 0.003 -0.005
O13C 0.019 0.027 0.026 -0.001 0.003 0.002
O14C 0.049 0.023 0.028 -0.005 0.005 -0.012
O15C 0.026 0.021 0.03 0 0.008 -0.001
O16C 0.025 0.022 0.032 0 0.002 -0.003
O17C 0.017 0.022 0.034 0.002 0.002 -0.002
O18C 0.027 0.018 0.038 -0.001 0.011 -0.005
O19C 0.03 0.028 0.04 0 0.007 -0.002
O20C 0.022 0.031 0.055 -0.007 0.008 0.002
O21C 0.024 0.02 0.036 -0.005 0.011 -0.005
O22C 0.025 0.024 0.036 0.007 0.008 0.002
O23C 0.04 0.016 0.068 -0.006 0.015 0.009
O24C 0.049 0.017 0.056 0.004 0.01 -0.007
O25C 0.023 0.021 0.031 0.005 0.001 -0.002
O26C 0.018 0.021 0.027 0.001 0.004 -0.002
O27C 0.033 0.038 0.041 -0.013 0.004 -0.001
O28C 0.022 0.023 0.038 0.004 0.003 0.003
O29C 0.02 0.025 0.03 0.002 0.002 0.002
O30C 0.032 0.043 0.032 0.011 0.002 -0.005
O31C 0.03 0.024 0.028 -0.003 -0.003 0.006
O32C 0.025 0.032 0.034 0.01 0.009 -0.006
O33C 0.027 0.025 0.03 -0.002 0.004 -0.006
O34C 0.028 0.024 0.027 -0.002 -0.001 -0.005
O35C 0.056 0.03 0.03 -0.001 -0.007 -0.011
O36C 0.025 0.018 0.032 -0.003 0.009 -0.006
O37C 0.028 0.025 0.031 -0.002 0.007 -0.004
O38C 0.042 0.047 0.03 -0.006 0.011 -0.008
O39C 0.032 0.036 0.052 -0.015 0.008 0.003
O39O 0.032 0.036 0.052 0.015 0.008 -0.003
O39M 0.036 0.032 0.052 -0.008 0.015 0.003
O40C 0.028 0.02 0.032 -0.007 0 0.001
O41C 0.031 0.026 0.028 0.003 -0.002 0.003
O41I 0.031 0.026 0.028 -0.003 0.002 0.003
O41B 0.026 0.031 0.028 0.002 0.003 -0.003
O42C 0.033 0.034 0.058 -0.014 0.006 -0.005
O43C 0.023 0.025 0.041 0.009 0 0.004
O44C 0.025 0.031 0.027 0.005 0.002 -0.007
O44A 0.025 0.031 0.027 -0.005 -0.002 -0.007
O45C 0.036 0.029 0.076 0.018 0.003 0.009
O46C 0.066 0.072 0.084 -0.041 0.002 0.001
C1B 0.035 0.061 0.052 0.021 -0.009 -0.002
C2B 0.053 0.085 0.057 0.006 -0.012 -0.022
C3B 0.094 0.075 0.056 0.001 -0.019 0.031
C4C 0.047(8) 0.039(8) 0.048(10) 0.009(7) -0.007(7) 0.006(6)
C5C 0.062(10) 0.041(8) 0.039(9) 0.007(7) -0.001(7) 0.002(7)
C6B 0.029 0.019 0.042 0.003 0 0.001
C7C 0.11 0.12 0.082 -0.006 -0.014 0.018
C8C 0.078 0.098 0.095 -0.016 -0.026 0.007
C9C 0.06 0.084 0.074 -0.022 -0.012 0.016
C10C 0.089 0.102 0.075 -0.016 -0.003 0.023
C11C 0.056 0.065 0.054 0.003 -0.001 -0.014
C12C 0.049 0.059 0.053 0.008 0.005 -0.014
C13C 0.05 0.057 0.047 -0.004 0.015 -0.021
C14C 0.043 0.053 0.044 0.002 0.005 -0.019
C15C 0.072 0.034 0.063 -0.01 -0.022 0.003
C16C 0.065 0.044 0.064 -0.003 -0.015 -0.005
C17C 0.101 0.057 0.063 -0.002 -0.023 0.013
C18C 0.092 0.057 0.057 0 -0.012 -0.008
O47 0.50(7) 0.25(4) 0.15(3) -0.08(3) -0.06(3) 0.25(4)
O48 0.52(7) 0.25(4) 0.14(3) -0.08(2) -0.09(3) 0.28(4)
O49 0.058(7) 0.057(7) 0.063(8) 0.008(6) 0.003(6) -0.006(6)
O50 0.068(9) 0.098(11) 0.117(14) -0.032(10) 0.020(9) 0.000(8)
O51 0.25(4) 0.25(4) 0.27(5) 0.01(4) 0.00(3) 0.00(3)
O52 0.22(3) 0.22(3) 0.24(4) 0.02(3) 0.00(3) 0.01(3)
O53 0.21(3) 0.24(4) 0.23(4) 0.00(3) 0.00(3) 0.01(3)
O54 0.17(2) 0.17(2) 0.17(3) -0.03(2) 0.00(2) -0.018(18)
O55 0.50(15) 0.50(15) 0.49(19) 0.000 0.000 0.00(12)
O56 0.63(15) 0.63(15) 0.62(18) 0.00(13) 0.01(13) 0.00(13)
O57 0.21(3) 0.20(3) 0.19(3) 0.00(2) 0.00(2) -0.01(2)
O58 0.27(4) 0.27(5) 0.27(5) 0.00(4) 0.00(4) -0.01(3)
loop_
_geom_bond_atom_site_label_1
_geom_bond_atom_site_label_2
_geom_bond_site_symmetry_1
_geom_bond_site_symmetry_2
Co1 N1 1_555 1_555
Co2 N4 1_555 1_555
Co3 N7 1_555 1_555
Co4 N11 1_555 1_555
Co5 N15 1_555 1_555
Ge1 O1 1_555 1_555
Ge2 O3 1_555 1_555
Ge3 O16 1_555 1_555
Ge4 O19 1_555 1_555
V1 O1 1_555 1_555
V2 O1 1_555 1_555
V3 O6 1_555 1_555
V4 O9 1_555 1_555
V5 O12 1_555 1_555
V6 O15 1_555 1_555
V7 O18 1_555 1_555
V8 O3 1_555 1_555
V9 O2 1_555 1_555
V10 O25 1_555 1_555
V11 O10 1_555 1_555
V12 O4 1_555 1_555
V13 O6 1_555 1_555
V14 O33 1_555 1_555
V15 O18 1_555 1_555
V16 O12 1_555 1_555
N1 H1 1_555 1_555
H2 N1 1_555 1_555
N2 Co1 1_555 1_555
H3 N2 1_555 1_555
H4 N2 1_555 1_555
N3 Co1 1_555 1_555
H5 N3 1_555 1_555
H6 N3 1_555 1_555
N4 H7 1_555 1_555
H8 N4 1_555 1_555
N5 Co2 1_555 1_555
H9 N5 1_555 1_555
H10 N5 1_555 1_555
N6 Co2 1_555 1_555
H11 N6 1_555 1_555
H12 N6 1_555 1_555
N7 H13 1_555 1_555
H14 N7 1_555 1_555
N8 Co3 1_555 1_555
H15 N8 1_555 1_555
H16 N8 1_555 1_555
N9 Co3 1_555 1_555
H17 N9 1_555 1_555
H18 N9 1_555 1_555
N10 Co3 1_555 1_555
H19 N10 1_555 1_555
H20 N10 1_555 1_555
N11 H21 1_555 1_555
H22 N11 1_555 1_555
N12 Co4 1_555 1_555
H23 N12 1_555 1_555
H24 N12 1_555 1_555
N13 Co4 1_555 1_555
H25 N13 1_555 1_555
H26 N13 1_555 1_555
N14 Co4 1_555 1_555
H27 N14 1_555 1_555
H28 N14 1_555 1_555
N15 H29 1_555 1_555
H30 N15 1_555 1_555
N16 Co5 1_555 1_555
H31 N16 1_555 1_555
H32 N16 1_555 1_555
N17 Co5 1_555 1_555
H33 N17 1_555 1_555
H34 N17 1_555 1_555
N18 Co5 1_555 1_555
H35 N18 1_555 1_555
H36 N18 1_555 1_555
O2 V1 1_555 1_555
O3 V1 1_555 1_555
O4 V1 1_555 1_555
O5 V1 1_555 1_555
O6 V2 1_555 1_555
O7 V2 1_555 1_555
O8 V2 1_555 1_555
O9 V3 1_555 1_555
O10 V3 1_555 1_555
O11 Co5 1_555 1_555
O12 V4 1_555 1_555
O13 V4 1_555 1_555
O14 V4 1_555 1_555
O15 V5 1_555 1_555
O16 V5 1_555 1_555
O17 Co2 1_555 1_555
O18 V6 1_555 1_555
O19 V6 1_555 1_555
O20 V6 1_555 1_555
O21 V7 1_555 1_555
O22 V7 1_555 1_555
O23 V7 1_555 1_555
O24 V8 1_555 1_555
O25 V9 1_555 1_555
O26 V9 1_555 1_555
O27 Co3 1_555 1_555
O28 Ge4 1_555 1_555
O29 Ge3 1_555 1_555
O30 V10 1_555 1_555
O31 V11 1_555 1_555
O32 Co4 1_555 1_555
O33 Ge1 1_555 1_555
O34 V13 1_555 1_555
O35 V13 1_555 1_555
O36 Ge2 1_555 1_555
O37 V14 1_555 1_555
O38 V14 1_555 1_555
O39 V15 1_555 1_555
O40 Ge1 1_555 1_555
O41 Co1 1_555 1_555
O42 Ge2 1_555 1_555
O43 Ge3 1_555 1_555
O44 Co2 1_555 1_555
O45 Ge4 1_555 1_555
O46 Co5 1_555 1_555
H37 O46 1_555 1_555
H38 O46 1_555 1_555
O47 H39 1_555 1_555
H40 O47 1_555 1_555
O48 H41 1_555 1_555
H42 O48 1_555 1_555
O49 H43 1_555 1_555
H44 O49 1_555 1_555
O50 H45 1_555 1_555
H46 O50 1_555 1_555
O51 H47 1_555 1_555
H48 O51 1_555 1_555
O52 H49 1_555 1_555
H50 O52 1_555 1_555
O54 H51 1_555 1_555
H52 O54 1_555 1_555
O55 H53 1_555 1_555
O56 H54 1_555 1_555
H55 O56 1_555 1_555
C1 N1 1_555 1_555
H56 C1 1_555 1_555
H57 C1 1_555 1_555
C2 N2 1_555 1_555
H58 C2 1_555 1_555
H59 C2 1_555 1_555
C3 N3 1_555 1_555
H60 C3 1_555 1_555
H61 C3 1_555 1_555
C4 N4 1_555 1_555
H62 C4 1_555 1_555
H63 C4 1_555 1_555
C5 N5 1_555 1_555
H64 C5 1_555 1_555
H65 C5 1_555 1_555
C6 N6 1_555 1_555
H66 C6 1_555 1_555
H67 C6 1_555 1_555
C7 N7 1_555 1_555
H68 C7 1_555 1_555
H69 C7 1_555 1_555
C8 N8 1_555 1_555
H70 C8 1_555 1_555
H71 C8 1_555 1_555
C9 N9 1_555 1_555
H72 C9 1_555 1_555
H73 C9 1_555 1_555
C10 N10 1_555 1_555
H74 C10 1_555 1_555
H75 C10 1_555 1_555
C11 N11 1_555 1_555
H76 C11 1_555 1_555
H77 C11 1_555 1_555
C12 N12 1_555 1_555
H78 C12 1_555 1_555
H79 C12 1_555 1_555
C13 N13 1_555 1_555
H80 C13 1_555 1_555
H81 C13 1_555 1_555
C14 N14 1_555 1_555
H82 C14 1_555 1_555
H83 C14 1_555 1_555
C15 N15 1_555 1_555
H84 C15 1_555 1_555
H85 C15 1_555 1_555
C16 N16 1_555 1_555
H86 C16 1_555 1_555
H87 C16 1_555 1_555
C17 N17 1_555 1_555
H88 C17 1_555 1_555
H89 C17 1_555 1_555
C18 N18 1_555 1_555
H90 C18 1_555 1_555
H91 C18 1_555 1_555
O59 V16 1_555 1_555
Co1B N1B 1_555 1_555
Co1I O44 1_555 1_555
Co1C O41C 1_555 1_555
Co2C O41 1_555 1_555
Co2B N6B 1_555 1_555
Co2J O41C 1_555 1_555
Co3C N7C 1_555 1_555
Co3G O39 1_555 1_555
Co3E O39C 1_555 1_555
Co4C N11C 1_555 1_555
Co5C N15C 1_555 1_555
Ge1C O1C 1_555 1_555
Ge2C O3C 1_555 1_555
Ge3C O16C 1_555 1_555
Ge4C O19C 1_555 1_555
V1C O1C 1_555 1_555
V2C O1C 1_555 1_555
V3C O6C 1_555 1_555
V4C O9C 1_555 1_555
V5C O12C 1_555 1_555
V6C O15C 1_555 1_555
V7C O18C 1_555 1_555
V8C O3C 1_555 1_555
V9C O2C 1_555 1_555
V10C O25C 1_555 1_555
V11C O10C 1_555 1_555
V12C O4C 1_555 1_555
V13C O6C 1_555 1_555
V14C O33C 1_555 1_555
V15C O18C 1_555 1_555
V16C O12C 1_555 1_555
N1B H1B 1_555 1_555
H2B N1B 1_555 1_555
N2B Co1B 1_555 1_555
H3B N2B 1_555 1_555
H4B N2B 1_555 1_555
N3B Co1B 1_555 1_555
H5B N3B 1_555 1_555
H6B N3B 1_555 1_555
N4C Co2C 1_555 1_555
H7C N4C 1_555 1_555
H8C N4C 1_555 1_555
N5C Co2C 1_555 1_555
H9C N5C 1_555 1_555
H10C N5C 1_555 1_555
N6B H11B 1_555 1_555
N6C Co2C 1_555 1_555
H11C N6C 1_555 1_555
H12B N6B 1_555 1_555
H12C N6C 1_555 1_555
N7C H13C 1_555 1_555
H14C N7C 1_555 1_555
N8C Co3C 1_555 1_555
H15C N8C 1_555 1_555
H16C N8C 1_555 1_555
N9C Co3C 1_555 1_555
H17C N9C 1_555 1_555
H18C N9C 1_555 1_555
N10C Co3C 1_555 1_555
H19C N10C 1_555 1_555
H20C N10C 1_555 1_555
N11C H21C 1_555 1_555
H22C N11C 1_555 1_555
N12C Co4C 1_555 1_555
H23C N12C 1_555 1_555
H24C N12C 1_555 1_555
N13C Co4C 1_555 1_555
H25C N13C 1_555 1_555
H26C N13C 1_555 1_555
N14C Co4C 1_555 1_555
H27C N14C 1_555 1_555
H28C N14C 1_555 1_555
N15C H29C 1_555 1_555
H30C N15C 1_555 1_555
N16C Co5C 1_555 1_555
H31C N16C 1_555 1_555
H32C N16C 1_555 1_555
N17C Co5C 1_555 1_555
H33C N17C 1_555 1_555
H34C N17C 1_555 1_555
N18C Co5C 1_555 1_555
H35C N18C 1_555 1_555
H36C N18C 1_555 1_555
O2C V1C 1_555 1_555
O3C V1C 1_555 1_555
O4C V1C 1_555 1_555
O5C V1C 1_555 1_555
O6C V2C 1_555 1_555
O7C V2C 1_555 1_555
O8C V2C 1_555 1_555
O9C V3C 1_555 1_555
O10C V3C 1_555 1_555
O11C Co5C 1_555 1_555
O12C V4C 1_555 1_555
O13C V4C 1_555 1_555
O14C V4C 1_555 1_555
O15C V5C 1_555 1_555
O16C V5C 1_555 1_555
O17C Co2C 1_555 1_555
O18C V6C 1_555 1_555
O19C V6C 1_555 1_555
O20C V6C 1_555 1_555
O21C V7C 1_555 1_555
O22C V7C 1_555 1_555
O23C V7C 1_555 1_555
O24C V8C 1_555 1_555
O25C V9C 1_555 1_555
O26C V9C 1_555 1_555
O27C Co3C 1_555 1_555
O28C Ge4C 1_555 1_555
O29C Ge3C 1_555 1_555
O30C V10C 1_555 1_555
O31C V11C 1_555 1_555
O32C Co4C 1_555 1_555
O33C Ge1C 1_555 1_555
O34C V13C 1_555 1_555
O35C V13C 1_555 1_555
O36C Ge2C 1_555 1_555
O37C V14C 1_555 1_555
O38C V14C 1_555 1_555
O39C V15C 1_555 1_555
O39O Co3 1_555 1_555
O39M Co3C 1_555 1_555
O40C Ge1C 1_555 1_555
O41C Ge1C 1_555 1_555
O41I Co2 1_555 1_555
O41B Co1B 1_555 1_555
O42C Ge2C 1_555 1_555
O43C Ge3C 1_555 1_555
O44C Co1 1_555 1_555
O44A Co1B 1_555 1_555
O45C Ge4C 1_555 1_555
O46C Co5C 1_555 1_555
H37C O46C 1_555 1_555
H38C O46C 1_555 1_555
H53B O55 1_555 1_555
C1B N1B 1_555 1_555
H56B C1B 1_555 1_555
H57B C1B 1_555 1_555
C2B N2B 1_555 1_555
H58B C2B 1_555 1_555
H59B C2B 1_555 1_555
C3B C3 1_555 1_555
H60B C3B 1_555 1_555
H61B C3B 1_555 1_555
C4C N4C 1_555 1_555
H62C C4C 1_555 1_555
H63C C4C 1_555 1_555
C5C N5C 1_555 1_555
H64C C5C 1_555 1_555
H65C C5C 1_555 1_555
C6B C6 1_555 1_555
H66B C6B 1_555 1_555
H67B C6B 1_555 1_555
C7C N7C 1_555 1_555
H68C C7C 1_555 1_555
H69C C7C 1_555 1_555
C8C N8C 1_555 1_555
H70C C8C 1_555 1_555
H71C C8C 1_555 1_555
C9C N9C 1_555 1_555
H72C C9C 1_555 1_555
H73C C9C 1_555 1_555
C10C N10C 1_555 1_555
H74C C10C 1_555 1_555
H75C C10C 1_555 1_555
C11C N11C 1_555 1_555
H76C C11C 1_555 1_555
H77C C11C 1_555 1_555
C12C N12C 1_555 1_555
H78C C12C 1_555 1_555
H79C C12C 1_555 1_555
C13C N13C 1_555 1_555
H80C C13C 1_555 1_555
H81C C13C 1_555 1_555
C14C N14C 1_555 1_555
H82C C14C 1_555 1_555
H83C C14C 1_555 1_555
C15C N15C 1_555 1_555
H84C C15C 1_555 1_555
H85C C15C 1_555 1_555
C16C N16C 1_555 1_555
H86C C16C 1_555 1_555
H87C C16C 1_555 1_555
C17C N17C 1_555 1_555
H88C C17C 1_555 1_555
H89C C17C 1_555 1_555
C18C N18C 1_555 1_555
H90C C18C 1_555 1_555
H91C C18C 1_555 1_555
O59C V16C 1_555 1_555
Ge1 O41 1_555 1_555
Ge2 O40 1_555 1_555
Ge3 O44 1_555 1_555
Ge4 O43 1_555 1_555
V2 O2 1_555 1_555
V3 O7 1_555 1_555
V3 O11 1_555 1_555
V4 O10 1_555 1_555
V5 O13 1_555 1_555
V5 O17 1_555 1_555
V6 O16 1_555 1_555
V7 O19 1_555 1_555
V8 O4 1_555 1_555
V8 O21 1_555 1_555
V8 O22 1_555 1_555
V9 O7 1_555 1_555
V9 O27 1_555 1_555
V10 O26 1_555 1_555
V10 O28 1_555 1_555
V10 O29 1_555 1_555
V11 O13 1_555 1_555
V11 O26 1_555 1_555
V11 O29 1_555 1_555
V12 O22 1_555 1_555
V12 O25 1_555 1_555
V12 O28 1_555 1_555
V12 O32 1_555 1_555
V13 O9 1_555 1_555
V13 O33 1_555 1_555
V14 O34 1_555 1_555
V14 O36 1_555 1_555
V15 O21 1_555 1_555
V15 O36 1_555 1_555
V15 O37 1_555 1_555
V16 O15 1_555 1_555
V16 O34 1_555 1_555
V16 O37 1_555 1_555
C1 C2 1_555 1_555
C4 C5 1_555 1_555
C7 C8 1_555 1_555
C9 C10 1_555 1_555
C11 C12 1_555 1_555
C13 C14 1_555 1_555
C15 C16 1_555 1_555
C17 C18 1_555 1_555
Co1I O41I 1_555 1_555
Co2C O44C 1_555 1_555
Ge2C O40C 1_555 1_555
Ge3C O44C 1_555 1_555
Ge4C O43C 1_555 1_555
V2C O2C 1_555 1_555
V3C O7C 1_555 1_555
V3C O11C 1_555 1_555
V4C O10C 1_555 1_555
V5C O13C 1_555 1_555
V5C O17C 1_555 1_555
V6C O16C 1_555 1_555
V7C O19C 1_555 1_555
V8C O4C 1_555 1_555
V8C O21C 1_555 1_555
V8C O22C 1_555 1_555
V9C O7C 1_555 1_555
V9C O27C 1_555 1_555
V10C O26C 1_555 1_555
V10C O28C 1_555 1_555
V10C O29C 1_555 1_555
V11C O13C 1_555 1_555
V11C O26C 1_555 1_555
V11C O29C 1_555 1_555
V12C O22C 1_555 1_555
V12C O25C 1_555 1_555
V12C O28C 1_555 1_555
V12C O32C 1_555 1_555
V13C O9C 1_555 1_555
V13C O33C 1_555 1_555
V14C O34C 1_555 1_555
V14C O36C 1_555 1_555
V15C O21C 1_555 1_555
V15C O36C 1_555 1_555
V15C O37C 1_555 1_555
V16C O15C 1_555 1_555
V16C O34C 1_555 1_555
V16C O37C 1_555 1_555
N3B C3B 1_555 1_555
N6B C6B 1_555 1_555
C1B C2B 1_555 1_555
C4C C5C 1_555 1_555
C7C C8C 1_555 1_555
C9C C10C 1_555 1_555
C11C C12C 1_555 1_555
C13C C14C 1_555 1_555
C15C C16C 1_555 1_555
C17C C18C 1_555 1_555

#END
