
#######################################################################
#
#                 Cambridge Crystallographic Data Centre
#                                CCDC 
#
#######################################################################
#
# If this CIF has been generated from an entry in the Cambridge 
# Structural Database, then it will include bibliographic, chemical, 
# crystal, experimental, refinement or atomic coordinate data resulting 
# from the CCDC's data processing and validation procedures.
#
#######################################################################

data_BODPAN
_chemical_formula_moiety         'C72 H24 Cu30 O85'
_symmetry_cell_setting           cubic
_symmetry_space_group_name_H-M   'F m -3 c'
_symmetry_Int_Tables_number      226
_space_group_name_Hall           '-F 4a 2 3'
loop_
_symmetry_equiv_pos_site_id
_symmetry_equiv_pos_as_xyz
1 x,y,z
2 -y,x,1/2+z
3 -x,-y,z
4 y,-x,1/2+z
5 x,-z,1/2+y
6 x,-y,-z
7 x,z,1/2-y
8 z,y,1/2-x
9 -x,y,-z
10 -z,y,1/2+x
11 z,x,y
12 y,z,x
13 -y,-z,x
14 z,-x,-y
15 -y,z,-x
16 -z,-x,y
17 -z,x,-y
18 y,-z,-x
19 y,x,1/2-z
20 -y,-x,1/2-z
21 -x,z,1/2+y
22 -x,-z,1/2-y
23 z,-y,1/2+x
24 -z,-y,1/2-x
25 x,1/2+y,1/2+z
26 -y,1/2+x,z
27 -x,1/2-y,1/2+z
28 y,1/2-x,z
29 x,1/2-z,y
30 x,1/2-y,1/2-z
31 x,1/2+z,-y
32 z,1/2+y,-x
33 -x,1/2+y,1/2-z
34 -z,1/2+y,x
35 z,1/2+x,1/2+y
36 y,1/2+z,1/2+x
37 -y,1/2-z,1/2+x
38 z,1/2-x,1/2-y
39 -y,1/2+z,1/2-x
40 -z,1/2-x,1/2+y
41 -z,1/2+x,1/2-y
42 y,1/2-z,1/2-x
43 y,1/2+x,-z
44 -y,1/2-x,-z
45 -x,1/2+z,y
46 -x,1/2-z,-y
47 z,1/2-y,x
48 -z,1/2-y,-x
49 1/2+x,y,1/2+z
50 1/2-y,x,z
51 1/2-x,-y,1/2+z
52 1/2+y,-x,z
53 1/2+x,-z,y
54 1/2+x,-y,1/2-z
55 1/2+x,z,-y
56 1/2+z,y,-x
57 1/2-x,y,1/2-z
58 1/2-z,y,x
59 1/2+z,x,1/2+y
60 1/2+y,z,1/2+x
61 1/2-y,-z,1/2+x
62 1/2+z,-x,1/2-y
63 1/2-y,z,1/2-x
64 1/2-z,-x,1/2+y
65 1/2-z,x,1/2-y
66 1/2+y,-z,1/2-x
67 1/2+y,x,-z
68 1/2-y,-x,-z
69 1/2-x,z,y
70 1/2-x,-z,-y
71 1/2+z,-y,x
72 1/2-z,-y,-x
73 1/2+x,1/2+y,z
74 1/2-y,1/2+x,1/2+z
75 1/2-x,1/2-y,z
76 1/2+y,1/2-x,1/2+z
77 1/2+x,1/2-z,1/2+y
78 1/2+x,1/2-y,-z
79 1/2+x,1/2+z,1/2-y
80 1/2+z,1/2+y,1/2-x
81 1/2-x,1/2+y,-z
82 1/2-z,1/2+y,1/2+x
83 1/2+z,1/2+x,y
84 1/2+y,1/2+z,x
85 1/2-y,1/2-z,x
86 1/2+z,1/2-x,-y
87 1/2-y,1/2+z,-x
88 1/2-z,1/2-x,y
89 1/2-z,1/2+x,-y
90 1/2+y,1/2-z,-x
91 1/2+y,1/2+x,1/2-z
92 1/2-y,1/2-x,1/2-z
93 1/2-x,1/2+z,1/2+y
94 1/2-x,1/2-z,1/2-y
95 1/2+z,1/2-y,1/2+x
96 1/2-z,1/2-y,1/2-x
97 -x,-y,-z
98 y,-x,1/2-z
99 x,y,-z
100 -y,x,1/2-z
101 -x,z,1/2-y
102 -x,y,z
103 -x,-z,1/2+y
104 -z,-y,1/2+x
105 x,-y,z
106 z,-y,1/2-x
107 -z,-x,-y
108 -y,-z,-x
109 y,z,-x
110 -z,x,y
111 y,-z,x
112 z,x,-y
113 z,-x,y
114 -y,z,x
115 -y,-x,1/2+z
116 y,x,1/2+z
117 x,-z,1/2-y
118 x,z,1/2+y
119 -z,y,1/2-x
120 z,y,1/2+x
121 -x,1/2-y,1/2-z
122 y,1/2-x,-z
123 x,1/2+y,1/2-z
124 -y,1/2+x,-z
125 -x,1/2+z,-y
126 -x,1/2+y,1/2+z
127 -x,1/2-z,y
128 -z,1/2-y,x
129 x,1/2-y,1/2+z
130 z,1/2-y,-x
131 -z,1/2-x,1/2-y
132 -y,1/2-z,1/2-x
133 y,1/2+z,1/2-x
134 -z,1/2+x,1/2+y
135 y,1/2-z,1/2+x
136 z,1/2+x,1/2-y
137 z,1/2-x,1/2+y
138 -y,1/2+z,1/2+x
139 -y,1/2-x,z
140 y,1/2+x,z
141 x,1/2-z,-y
142 x,1/2+z,y
143 -z,1/2+y,-x
144 z,1/2+y,x
145 1/2-x,-y,1/2-z
146 1/2+y,-x,-z
147 1/2+x,y,1/2-z
148 1/2-y,x,-z
149 1/2-x,z,-y
150 1/2-x,y,1/2+z
151 1/2-x,-z,y
152 1/2-z,-y,x
153 1/2+x,-y,1/2+z
154 1/2+z,-y,-x
155 1/2-z,-x,1/2-y
156 1/2-y,-z,1/2-x
157 1/2+y,z,1/2-x
158 1/2-z,x,1/2+y
159 1/2+y,-z,1/2+x
160 1/2+z,x,1/2-y
161 1/2+z,-x,1/2+y
162 1/2-y,z,1/2+x
163 1/2-y,-x,z
164 1/2+y,x,z
165 1/2+x,-z,-y
166 1/2+x,z,y
167 1/2-z,y,-x
168 1/2+z,y,x
169 1/2-x,1/2-y,-z
170 1/2+y,1/2-x,1/2-z
171 1/2+x,1/2+y,-z
172 1/2-y,1/2+x,1/2-z
173 1/2-x,1/2+z,1/2-y
174 1/2-x,1/2+y,z
175 1/2-x,1/2-z,1/2+y
176 1/2-z,1/2-y,1/2+x
177 1/2+x,1/2-y,z
178 1/2+z,1/2-y,1/2-x
179 1/2-z,1/2-x,-y
180 1/2-y,1/2-z,-x
181 1/2+y,1/2+z,-x
182 1/2-z,1/2+x,y
183 1/2+y,1/2-z,x
184 1/2+z,1/2+x,-y
185 1/2+z,1/2-x,y
186 1/2-y,1/2+z,x
187 1/2-y,1/2-x,1/2+z
188 1/2+y,1/2+x,1/2+z
189 1/2+x,1/2-z,1/2-y
190 1/2+x,1/2+z,1/2+y
191 1/2-z,1/2+y,1/2-x
192 1/2+z,1/2+y,1/2+x
_cell_length_a                   52.5078(17)
_cell_length_b                   52.5078(17)
_cell_length_c                   52.5078(17)
_cell_angle_alpha                90
_cell_angle_beta                 90
_cell_angle_gamma                90
_cell_volume                     144768
loop_
_atom_site_label
_atom_site_type_symbol
_atom_site_fract_x
_atom_site_fract_y
_atom_site_fract_z
_atom_site_U_iso_or_equiv
_atom_site_thermal_displace_type
Cu1 Cu 0.39054(3) -0.0000 0.10535(2) 0.0157 Uani
Cu2 Cu 0.35466(2) 0.0000 0.14009(2) 0.0148 Uani
Cu3 Cu 0.249697(15) 0.142805(17) 0.107589(18) 0.0148 Uani
O1 O 0.37024(11) 0.02630(10) 0.08885(11) 0.0330 Uani
O2 O 0.33998(11) 0.02655(10) 0.11847(11) 0.0300 Uani
O3 O 0.27755(10) 0.09383(11) 0.12112(10) 0.0310 Uani
O4 O 0.27450(10) 0.12206(10) 0.08950(10) 0.0253 Uani
O5 O 0.34302(10) 0.12499(10) 0.02603(10) 0.0293 Uani
O6 O 0.37274(10) 0.09464(11) 0.02602(10) 0.0303 Uani
O7 O 0.27773(10) 0.15841(10) 0.12709(10) 0.0270 Uani
O8 O 0.27469(11) 0.13051(10) 0.15889(10) 0.0310 Uani
O9 O 0.4202(2) 0.0000 0.0774(2) 0.1107 Uani
O10 O 0.32177(19) -0.0000 0.16487(19) 0.1030 Uani
O11 O 0.24388(11) 0.17420(11) 0.08143(11) 0.0317 Uani
C1 C 0.35042(16) 0.03507(15) 0.09900(16) 0.0213 Uani
C2 C 0.33837(15) 0.05790(15) 0.08689(15) 0.0220 Uani
C3 C 0.31702(14) 0.06855(14) 0.09778(15) 0.0207 Uani
H1 H 0.3095 0.0610 0.1124 0.0250 Uiso
C4 C 0.30652(16) 0.09057(14) 0.08720(14) 0.0197 Uani
C5 C 0.31791(14) 0.10219(15) 0.06637(15) 0.0183 Uani
H2 H 0.3109 0.1174 0.0596 0.0220 Uiso
C6 C 0.33934(15) 0.09170(14) 0.05543(15) 0.0193 Uani
C7 C 0.34972(15) 0.06919(15) 0.06555(15) 0.0230 Uani
H3 H 0.3643 0.0617 0.0580 0.0270 Uiso
C8 C 0.28445(16) 0.10312(15) 0.10023(16) 0.0210 Uani
C9 C 0.35269(16) 0.10500(16) 0.03408(16) 0.0213 Uani
C10 C 0.28384(16) 0.14933(15) 0.14812(14) 0.0180 Uani
C11 C 0.30554(14) 0.16217(14) 0.16114(14) 0.0187 Uani
C12 C 0.31613(14) 0.15094(15) 0.18314(14) 0.0213 Uani
H4 H 0.3084 0.1363 0.1903 0.0260 Uiso
O7JB O 0.34159(10) 0.12709(10) 0.22227(10) 0.0270 Uani
O8JB O 0.36949(10) 0.15889(10) 0.22531(11) 0.0310 Uani
C10JB C 0.35067(15) 0.14812(14) 0.21616(16) 0.0180 Uani
C11JB C 0.33783(14) 0.16114(14) 0.19446(14) 0.0187 Uani
C12JB C 0.34906(15) 0.18314(14) 0.18387(14) 0.0213 Uani
H4JB H 0.3637 0.1903 0.1916 0.0260 Uiso
O7IC O 0.37291(10) 0.22227(10) 0.15841(10) 0.0270 Uani
O8IC O 0.34111(10) 0.22531(11) 0.13051(10) 0.0310 Uani
C10IC C 0.35188(14) 0.21616(16) 0.14933(15) 0.0180 Uani
C11IC C 0.33886(14) 0.19446(14) 0.16217(14) 0.0187 Uani
C12IC C 0.31686(14) 0.18387(14) 0.15094(15) 0.0213 Uani
H4IC H 0.3097 0.1916 0.1363 0.0260 Uiso
Cu1G Cu 0.10535(2) -0.0000 0.10946(3) 0.0157 Uani
Cu2G Cu 0.14009(2) 0.0000 0.14534(2) 0.0148 Uani
Cu3G Cu 0.107589(18) 0.142805(17) 0.250303(15) 0.0148 Uani
O1G O 0.08885(11) 0.02630(10) 0.12976(11) 0.0330 Uani
O2G O 0.11847(11) 0.02655(10) 0.16002(11) 0.0300 Uani
O3G O 0.12112(10) 0.09383(11) 0.22245(10) 0.0310 Uani
O4G O 0.08950(10) 0.12206(10) 0.22550(10) 0.0253 Uani
O5G O 0.02603(10) 0.12499(10) 0.15698(10) 0.0293 Uani
O6G O 0.02602(10) 0.09464(11) 0.12726(10) 0.0303 Uani
O7G O 0.12709(10) 0.15841(10) 0.22227(10) 0.0270 Uani
O8G O 0.15889(10) 0.13051(10) 0.22531(11) 0.0310 Uani
O9G O 0.0774(2) -0.0000 0.0798(2) 0.1107 Uani
O10G O 0.16487(19) -0.0000 0.17823(19) 0.1030 Uani
O11G O 0.08143(11) 0.17420(11) 0.25612(11) 0.0317 Uani
C1G C 0.09900(16) 0.03507(15) 0.14958(16) 0.0213 Uani
C2G C 0.08689(15) 0.05790(15) 0.16163(15) 0.0220 Uani
C3G C 0.09778(15) 0.06855(14) 0.18298(14) 0.0207 Uani
H1G H 0.1124 0.0610 0.1905 0.0250 Uiso
C4G C 0.08720(14) 0.09057(14) 0.19348(16) 0.0197 Uani
C5G C 0.06637(15) 0.10219(15) 0.18209(14) 0.0183 Uani
H2G H 0.0596 0.1174 0.1891 0.0220 Uiso
C6G C 0.05543(15) 0.09170(14) 0.16066(15) 0.0193 Uani
C7G C 0.06555(15) 0.06919(15) 0.15028(15) 0.0230 Uani
H3G H 0.0580 0.0617 0.1357 0.0270 Uiso
C8G C 0.10023(16) 0.10312(15) 0.21555(16) 0.0210 Uani
C9G C 0.03408(16) 0.10500(16) 0.14731(16) 0.0213 Uani
C10G C 0.14812(14) 0.14933(15) 0.21616(16) 0.0180 Uani
C11G C 0.16114(14) 0.16217(14) 0.19446(14) 0.0187 Uani
C12G C 0.18314(14) 0.15094(15) 0.18387(14) 0.0213 Uani
H4G H 0.1903 0.1363 0.1916 0.0260 Uiso
O7PB O 0.22227(10) 0.12709(10) 0.15841(10) 0.0270 Uani
O8PB O 0.22531(11) 0.15889(10) 0.13051(10) 0.0310 Uani
C10PB C 0.21616(16) 0.14812(14) 0.14933(15) 0.0180 Uani
C11PB C 0.19446(14) 0.16114(14) 0.16217(14) 0.0187 Uani
C12PB C 0.18387(14) 0.18314(14) 0.15094(15) 0.0213 Uani
H4PB H 0.1916 0.1903 0.1363 0.0260 Uiso
O7AA O 0.15841(10) 0.22227(10) 0.12709(10) 0.0270 Uani
O8AA O 0.13051(10) 0.22531(11) 0.15889(10) 0.0310 Uani
C10AA C 0.14933(15) 0.21616(16) 0.14812(14) 0.0180 Uani
C11AA C 0.16217(14) 0.19446(14) 0.16114(14) 0.0187 Uani
C12AA C 0.15094(15) 0.18387(14) 0.18314(14) 0.0213 Uani
H4AA H 0.1363 0.1916 0.1903 0.0260 Uiso
Cu3AA Cu 0.142805(17) 0.250303(15) 0.107589(18) 0.0148 Uani
O1AA O 0.02630(10) 0.12976(11) 0.08885(11) 0.0330 Uani
O2AA O 0.02655(10) 0.16002(11) 0.11847(11) 0.0300 Uani
O3AA O 0.09383(11) 0.22245(10) 0.12112(10) 0.0310 Uani
O4AA O 0.12206(10) 0.22550(10) 0.08950(10) 0.0253 Uani
O5AA O 0.12499(10) 0.15698(10) 0.02603(10) 0.0293 Uani
O6AA O 0.09464(11) 0.12726(10) 0.02602(10) 0.0303 Uani
O11AA O 0.17420(11) 0.25612(11) 0.08143(11) 0.0317 Uani
C1AA C 0.03507(15) 0.14958(16) 0.09900(16) 0.0213 Uani
C2AA C 0.05790(15) 0.16163(15) 0.08689(15) 0.0220 Uani
C3AA C 0.06855(14) 0.18298(14) 0.09778(15) 0.0207 Uani
H1AA H 0.0610 0.1905 0.1124 0.0250 Uiso
C4AA C 0.09057(14) 0.19348(16) 0.08720(14) 0.0197 Uani
C5AA C 0.10219(15) 0.18209(14) 0.06637(15) 0.0183 Uani
H2AA H 0.1174 0.1891 0.0596 0.0220 Uiso
C6AA C 0.09170(14) 0.16066(15) 0.05543(15) 0.0193 Uani
C7AA C 0.06919(15) 0.15028(15) 0.06555(15) 0.0230 Uani
H3AA H 0.0617 0.1357 0.0580 0.0270 Uiso
C8AA C 0.10312(15) 0.21555(16) 0.10023(16) 0.0210 Uani
C9AA C 0.10500(16) 0.14731(16) 0.03408(16) 0.0213 Uani
Cu3WA Cu 0.357195(17) 0.249697(15) 0.107589(18) 0.0148 Uani
O1WA O 0.47370(10) 0.37024(11) 0.08885(11) 0.0330 Uani
O2WA O 0.47345(10) 0.33998(11) 0.11847(11) 0.0300 Uani
O3WA O 0.40617(11) 0.27755(10) 0.12112(10) 0.0310 Uani
O4WA O 0.37794(10) 0.27450(10) 0.08950(10) 0.0253 Uani
O5WA O 0.37501(10) 0.34302(10) 0.02603(10) 0.0293 Uani
O6WA O 0.40536(11) 0.37274(10) 0.02602(10) 0.0303 Uani
O11WA O 0.32580(11) 0.24388(11) 0.08143(11) 0.0317 Uani
C1WA C 0.46493(15) 0.35042(16) 0.09900(16) 0.0213 Uani
C2WA C 0.44210(15) 0.33837(15) 0.08689(15) 0.0220 Uani
C3WA C 0.43145(14) 0.31702(14) 0.09778(15) 0.0207 Uani
H1WA H 0.4390 0.3095 0.1124 0.0250 Uiso
C4WA C 0.40943(14) 0.30652(16) 0.08720(14) 0.0197 Uani
C5WA C 0.39781(15) 0.31791(14) 0.06637(15) 0.0183 Uani
H2WA H 0.3826 0.3109 0.0596 0.0220 Uiso
C6WA C 0.40830(14) 0.33934(15) 0.05543(15) 0.0193 Uani
C7WA C 0.43081(15) 0.34972(15) 0.06555(15) 0.0230 Uani
H3WA H 0.4383 0.3643 0.0580 0.0270 Uiso
C8WA C 0.39688(15) 0.28445(16) 0.10023(16) 0.0210 Uani
C9WA C 0.39500(16) 0.35269(16) 0.03408(16) 0.0213 Uani
Cu1EB Cu 0.39465(2) -0.0000 0.39054(3) 0.0157 Uani
Cu2EB Cu 0.35991(2) 0.0000 0.35466(2) 0.0148 Uani
Cu3EB Cu 0.392411(18) 0.142805(17) 0.249697(15) 0.0148 Uani
O1EB O 0.41115(11) 0.02630(10) 0.37024(11) 0.0330 Uani
O2EB O 0.38153(11) 0.02655(10) 0.33998(11) 0.0300 Uani
O3EB O 0.37888(10) 0.09383(11) 0.27755(10) 0.0310 Uani
O4EB O 0.41050(10) 0.12206(10) 0.27450(10) 0.0253 Uani
O5EB O 0.47397(10) 0.12499(10) 0.34302(10) 0.0293 Uani
O6EB O 0.47398(10) 0.09464(11) 0.37274(10) 0.0303 Uani
O9EB O 0.4226(2) 0.0000 0.4202(2) 0.1107 Uani
O10EB O 0.33513(19) -0.0000 0.32177(19) 0.1030 Uani
O11EB O 0.41857(11) 0.17420(11) 0.24388(11) 0.0317 Uani
C1EB C 0.40100(16) 0.03507(15) 0.35042(16) 0.0213 Uani
C2EB C 0.41311(15) 0.05790(15) 0.33837(15) 0.0220 Uani
C3EB C 0.40222(15) 0.06855(14) 0.31702(14) 0.0207 Uani
H1EB H 0.3876 0.0610 0.3095 0.0250 Uiso
C4EB C 0.41280(14) 0.09057(14) 0.30652(16) 0.0197 Uani
C5EB C 0.43363(15) 0.10219(15) 0.31791(14) 0.0183 Uani
H2EB H 0.4404 0.1174 0.3109 0.0220 Uiso
C6EB C 0.44457(15) 0.09170(14) 0.33934(15) 0.0193 Uani
C7EB C 0.43445(15) 0.06919(15) 0.34972(15) 0.0230 Uani
H3EB H 0.4420 0.0617 0.3643 0.0270 Uiso
C8EB C 0.39977(16) 0.10312(15) 0.28445(16) 0.0210 Uani
C9EB C 0.46592(16) 0.10500(16) 0.35269(16) 0.0213 Uani
Cu3JB Cu 0.357195(17) 0.107589(18) 0.250303(15) 0.0148 Uani
O1JB O 0.47370(10) 0.08885(11) 0.12976(11) 0.0330 Uani
O2JB O 0.47345(10) 0.11847(11) 0.16002(11) 0.0300 Uani
O3JB O 0.40617(11) 0.12112(10) 0.22245(10) 0.0310 Uani
O4JB O 0.37794(10) 0.08950(10) 0.22550(10) 0.0253 Uani
O5JB O 0.37501(10) 0.02603(10) 0.15698(10) 0.0293 Uani
O6JB O 0.40536(11) 0.02602(10) 0.12726(10) 0.0303 Uani
O11JB O 0.32580(11) 0.08143(11) 0.25612(11) 0.0317 Uani
C1JB C 0.46493(15) 0.09900(16) 0.14958(16) 0.0213 Uani
C2JB C 0.44210(15) 0.08689(15) 0.16163(15) 0.0220 Uani
C3JB C 0.43145(14) 0.09778(15) 0.18298(14) 0.0207 Uani
H1JB H 0.4390 0.1124 0.1905 0.0250 Uiso
C4JB C 0.40943(14) 0.08720(14) 0.19348(16) 0.0197 Uani
C5JB C 0.39781(15) 0.06637(15) 0.18209(14) 0.0183 Uani
H2JB H 0.3826 0.0596 0.1891 0.0220 Uiso
C6JB C 0.40830(14) 0.05543(15) 0.16066(15) 0.0193 Uani
C7JB C 0.43081(15) 0.06555(15) 0.15028(15) 0.0230 Uani
H3JB H 0.4383 0.0580 0.1357 0.0270 Uiso
C8JB C 0.39688(15) 0.10023(16) 0.21555(16) 0.0210 Uani
C9JB C 0.39500(16) 0.03408(16) 0.14731(16) 0.0213 Uani
Cu1AA Cu -0.0000 0.10946(3) 0.10535(2) 0.0157 Uani
Cu1BA Cu 0.39054(3) 0.39465(2) 0.0000 0.0157 Uani
Cu1WA Cu 0.5000 0.39054(3) 0.10535(2) 0.0157 Uani
Cu1JB Cu 0.5000 0.10535(2) 0.10946(3) 0.0157 Uani
Cu1PB Cu 0.10946(3) 0.10535(2) 0.0000 0.0157 Uani
Cu1IC Cu 0.39465(2) 0.10946(3) 0.0000 0.0157 Uani
Cu1MC Cu 0.5000 0.10946(3) 0.39465(2) 0.0157 Uani
Cu2AA Cu -0.0000 0.14534(2) 0.14009(2) 0.0148 Uani
Cu2BA Cu 0.35466(2) 0.35991(2) 0.0000 0.0148 Uani
Cu2WA Cu 0.5000 0.35466(2) 0.14009(2) 0.0148 Uani
Cu2JB Cu 0.5000 0.14009(2) 0.14534(2) 0.0148 Uani
Cu2PB Cu 0.14534(2) 0.14009(2) 0.0000 0.0148 Uani
Cu2IC Cu 0.35991(2) 0.14534(2) 0.0000 0.0148 Uani
Cu2MC Cu 0.5000 0.14534(2) 0.35991(2) 0.0148 Uani
Cu3J Cu 0.107589(18) 0.249697(15) 0.142805(17) 0.0148 Uani
Cu3K Cu 0.142805(17) 0.107589(18) 0.249697(15) 0.0148 Uani
Cu3PB Cu 0.250303(15) 0.107589(18) 0.142805(17) 0.0148 Uani
Cu3IC Cu 0.392411(18) 0.250303(15) 0.142805(17) 0.0148 Uani
O1ZC O 0.37024(11) -0.02630(10) 0.08885(11) 0.0330 Uani
O1AD O 0.08885(11) -0.02630(10) 0.12976(11) 0.0330 Uani
O1UE O 0.41115(11) -0.02630(10) 0.37024(11) 0.0330 Uani
O2ZC O 0.33998(11) -0.02655(10) 0.11847(11) 0.0300 Uani
O2AD O 0.11847(11) -0.02655(10) 0.16002(11) 0.0300 Uani
O2UE O 0.38153(11) -0.02655(10) 0.33998(11) 0.0300 Uani
O3J O 0.12112(10) 0.27755(10) 0.09383(11) 0.0310 Uani
O3K O 0.09383(11) 0.12112(10) 0.27755(10) 0.0310 Uani
O3PB O 0.22245(10) 0.12112(10) 0.09383(11) 0.0310 Uani
O3IC O 0.37888(10) 0.22245(10) 0.09383(11) 0.0310 Uani
O5F O 0.34302(10) 0.02603(10) 0.37501(10) 0.0293 Uani
O5PB O 0.15698(10) 0.02603(10) 0.12499(10) 0.0293 Uani
O5LD O 0.34302(10) -0.02603(10) 0.37501(10) 0.0293 Uani
O5TE O 0.15698(10) -0.02603(10) 0.12499(10) 0.0293 Uani
O5YE O 0.37501(10) -0.02603(10) 0.15698(10) 0.0293 Uani
O6F O 0.37274(10) 0.02602(10) 0.40536(11) 0.0303 Uani
O6PB O 0.12726(10) 0.02602(10) 0.09464(11) 0.0303 Uani
O6LD O 0.37274(10) -0.02602(10) 0.40536(11) 0.0303 Uani
O6TE O 0.12726(10) -0.02602(10) 0.09464(11) 0.0303 Uani
O6YE O 0.40536(11) -0.02602(10) 0.12726(10) 0.0303 Uani
O7WA O 0.34159(10) 0.27773(10) 0.12709(10) 0.0270 Uani
O7EB O 0.37291(10) 0.15841(10) 0.27773(10) 0.0270 Uani
O8J O 0.15889(10) 0.27469(11) 0.13051(10) 0.0310 Uani
O8K O 0.13051(10) 0.15889(10) 0.27469(11) 0.0310 Uani
O8EB O 0.34111(10) 0.13051(10) 0.27469(11) 0.0310 Uani
loop_
_atom_site_aniso_label
_atom_site_aniso_U_11
_atom_site_aniso_U_22
_atom_site_aniso_U_33
_atom_site_aniso_U_23
_atom_site_aniso_U_13
_atom_site_aniso_U_12
Cu1 0.0159(8) 0.0139(8) 0.0173(8) 0.000 0.0093(6) 0.000
Cu2 0.0152(8) 0.0142(8) 0.0149(8) 0.000 0.0082(6) 0.000
Cu3 0.0134(7) 0.0151(6) 0.0159(6) 0.0055(4) -0.0002(4) 0.0003(4)
O1 0.036(4) 0.032(3) 0.031(3) 0.010(3) 0.010(3) 0.018(3)
O2 0.032(3) 0.025(3) 0.033(3) 0.014(3) 0.011(3) 0.009(3)
O3 0.034(3) 0.031(3) 0.028(3) 0.018(3) 0.010(3) 0.017(3)
O4 0.034(3) 0.024(3) 0.018(3) 0.006(2) 0.007(3) 0.013(3)
O5 0.032(3) 0.024(3) 0.032(3) 0.014(3) 0.011(3) 0.015(3)
O6 0.024(3) 0.033(3) 0.034(3) 0.014(3) 0.010(3) 0.014(3)
O7 0.030(3) 0.022(3) 0.029(3) 0.008(3) -0.009(3) -0.007(3)
O8 0.038(4) 0.031(3) 0.024(3) 0.012(3) -0.009(3) -0.021(3)
O9 0.096(9) 0.121(11) 0.115(10) 0.000 0.101(9) 0.000
O10 0.040(6) 0.229(16) 0.040(6) 0.000 0.027(5) 0.000
O11 0.036(3) 0.027(3) 0.032(3) 0.016(3) -0.002(3) 0.009(3)
C1 0.027(5) 0.009(4) 0.028(5) -0.005(4) 0.002(4) 0.002(4)
C2 0.029(5) 0.016(4) 0.021(4) -0.001(4) 0.001(4) 0.001(4)
C3 0.028(5) 0.021(4) 0.013(4) -0.003(4) 0.008(4) -0.002(4)
C4 0.022(5) 0.021(4) 0.016(4) -0.004(4) 0.002(4) 0.005(4)
C5 0.022(4) 0.011(4) 0.022(4) -0.004(3) -0.002(4) 0.005(3)
C6 0.025(4) 0.014(4) 0.019(4) -0.003(3) 0.002(4) -0.002(4)
C7 0.020(5) 0.025(5) 0.024(4) 0.000(4) -0.007(4) -0.001(4)
C8 0.014(5) 0.026(5) 0.023(5) 0.007(4) 0.001(4) -0.001(4)
C9 0.023(5) 0.031(5) 0.010(4) -0.006(4) -0.001(4) 0.006(4)
C10 0.017(5) 0.022(4) 0.015(4) 0.005(4) -0.002(4) 0.005(4)
C11 0.013(4) 0.022(4) 0.021(4) 0.000(4) 0.000(3) 0.002(4)
C12 0.024(5) 0.015(4) 0.025(5) 0.007(4) -0.007(4) -0.004(4)
O7JB 0.022 0.029 0.03 0.009 -0.007 -0.008
O8JB 0.031 0.024 0.038 0.009 -0.021 -0.012
C10JB 0.022 0.015 0.017 0.002 0.005 -0.005
C11JB 0.022 0.021 0.013 0 0.002 0
C12JB 0.015 0.025 0.024 0.007 -0.004 -0.007
O7IC 0.029 0.03 0.022 0.007 -0.008 -0.009
O8IC 0.024 0.038 0.031 0.021 -0.012 -0.009
C10IC 0.015 0.017 0.022 -0.005 -0.005 -0.002
C11IC 0.021 0.013 0.022 -0.002 0 0
C12IC 0.025 0.024 0.015 0.004 -0.007 -0.007
Cu1G 0.0173 0.0139 0.0159 0 -0.0093 0
Cu2G 0.0149 0.0142 0.0152 0 -0.0082 0
Cu3G 0.0159 0.0151 0.0134 -0.0003 0.0002 0.0055
O1G 0.031 0.032 0.036 -0.018 -0.01 0.01
O2G 0.033 0.025 0.032 -0.009 -0.011 0.014
O3G 0.028 0.031 0.034 -0.017 -0.01 0.018
O4G 0.018 0.024 0.034 -0.013 -0.007 0.006
O5G 0.032 0.024 0.032 -0.015 -0.011 0.014
O6G 0.034 0.033 0.024 -0.014 -0.01 0.014
O7G 0.029 0.022 0.03 0.007 0.009 0.008
O8G 0.024 0.031 0.038 0.021 0.009 0.012
O9G 0.115 0.121 0.096 0 -0.101 0
O10G 0.04 0.229 0.04 0 -0.027 0
O11G 0.032 0.027 0.036 -0.009 0.002 0.016
C1G 0.028 0.009 0.027 -0.002 -0.002 -0.005
C2G 0.021 0.016 0.029 -0.001 -0.001 -0.001
C3G 0.013 0.021 0.028 0.002 -0.008 -0.003
C4G 0.016 0.021 0.022 -0.005 -0.002 -0.004
C5G 0.022 0.011 0.022 -0.005 0.002 -0.004
C6G 0.019 0.014 0.025 0.002 -0.002 -0.003
C7G 0.024 0.025 0.02 0.001 0.007 0
C8G 0.023 0.026 0.014 0.001 -0.001 0.007
C9G 0.01 0.031 0.023 -0.006 0.001 -0.006
C10G 0.015 0.022 0.017 -0.005 0.002 0.005
C11G 0.021 0.022 0.013 -0.002 0 0
C12G 0.025 0.015 0.024 0.004 0.007 0.007
O7PB 0.03 0.029 0.022 0.008 0.007 0.009
O8PB 0.038 0.024 0.031 0.012 0.021 0.009
C10PB 0.017 0.015 0.022 0.005 -0.005 0.002
C11PB 0.013 0.021 0.022 0 -0.002 0
C12PB 0.024 0.025 0.015 0.007 0.004 0.007
O7AA 0.022 0.03 0.029 0.009 0.008 0.007
O8AA 0.031 0.038 0.024 0.009 0.012 0.021
C10AA 0.022 0.017 0.015 0.002 0.005 -0.005
C11AA 0.022 0.013 0.021 0 0 -0.002
C12AA 0.015 0.024 0.025 0.007 0.007 0.004
Cu3AA 0.0151 0.0134 0.0159 0.0002 0.0055 -0.0003
O1AA 0.032 0.036 0.031 -0.01 0.01 -0.018
O2AA 0.025 0.032 0.033 -0.011 0.014 -0.009
O3AA 0.031 0.034 0.028 -0.01 0.018 -0.017
O4AA 0.024 0.034 0.018 -0.007 0.006 -0.013
O5AA 0.024 0.032 0.032 -0.011 0.014 -0.015
O6AA 0.033 0.024 0.034 -0.01 0.014 -0.014
O11AA 0.027 0.036 0.032 0.002 0.016 -0.009
C1AA 0.009 0.027 0.028 -0.002 -0.005 -0.002
C2AA 0.016 0.029 0.021 -0.001 -0.001 -0.001
C3AA 0.021 0.028 0.013 -0.008 -0.003 0.002
C4AA 0.021 0.022 0.016 -0.002 -0.004 -0.005
C5AA 0.011 0.022 0.022 0.002 -0.004 -0.005
C6AA 0.014 0.025 0.019 -0.002 -0.003 0.002
C7AA 0.025 0.02 0.024 0.007 0 0.001
C8AA 0.026 0.014 0.023 -0.001 0.007 0.001
C9AA 0.031 0.023 0.01 0.001 -0.006 -0.006
Cu3WA 0.0151 0.0134 0.0159 -0.0002 -0.0055 -0.0003
O1WA 0.032 0.036 0.031 0.01 -0.01 -0.018
O2WA 0.025 0.032 0.033 0.011 -0.014 -0.009
O3WA 0.031 0.034 0.028 0.01 -0.018 -0.017
O4WA 0.024 0.034 0.018 0.007 -0.006 -0.013
O5WA 0.024 0.032 0.032 0.011 -0.014 -0.015
O6WA 0.033 0.024 0.034 0.01 -0.014 -0.014
O11WA 0.027 0.036 0.032 -0.002 -0.016 -0.009
C1WA 0.009 0.027 0.028 0.002 0.005 -0.002
C2WA 0.016 0.029 0.021 0.001 0.001 -0.001
C3WA 0.021 0.028 0.013 0.008 0.003 0.002
C4WA 0.021 0.022 0.016 0.002 0.004 -0.005
C5WA 0.011 0.022 0.022 -0.002 0.004 -0.005
C6WA 0.014 0.025 0.019 0.002 0.003 0.002
C7WA 0.025 0.02 0.024 -0.007 0 0.001
C8WA 0.026 0.014 0.023 0.001 -0.007 0.001
C9WA 0.031 0.023 0.01 -0.001 0.006 -0.006
Cu1EB 0.0173 0.0139 0.0159 0 -0.0093 0
Cu2EB 0.0149 0.0142 0.0152 0 -0.0082 0
Cu3EB 0.0159 0.0151 0.0134 0.0003 0.0002 -0.0055
O1EB 0.031 0.032 0.036 0.018 -0.01 -0.01
O2EB 0.033 0.025 0.032 0.009 -0.011 -0.014
O3EB 0.028 0.031 0.034 0.017 -0.01 -0.018
O4EB 0.018 0.024 0.034 0.013 -0.007 -0.006
O5EB 0.032 0.024 0.032 0.015 -0.011 -0.014
O6EB 0.034 0.033 0.024 0.014 -0.01 -0.014
O9EB 0.115 0.121 0.096 0 -0.101 0
O10EB 0.04 0.229 0.04 0 -0.027 0
O11EB 0.032 0.027 0.036 0.009 0.002 -0.016
C1EB 0.028 0.009 0.027 0.002 -0.002 0.005
C2EB 0.021 0.016 0.029 0.001 -0.001 0.001
C3EB 0.013 0.021 0.028 -0.002 -0.008 0.003
C4EB 0.016 0.021 0.022 0.005 -0.002 0.004
C5EB 0.022 0.011 0.022 0.005 0.002 0.004
C6EB 0.019 0.014 0.025 -0.002 -0.002 0.003
C7EB 0.024 0.025 0.02 -0.001 0.007 0
C8EB 0.023 0.026 0.014 -0.001 -0.001 -0.007
C9EB 0.01 0.031 0.023 0.006 0.001 0.006
Cu3JB 0.0151 0.0159 0.0134 0.0002 0.0003 -0.0055
O1JB 0.032 0.031 0.036 -0.01 0.018 -0.01
O2JB 0.025 0.033 0.032 -0.011 0.009 -0.014
O3JB 0.031 0.028 0.034 -0.01 0.017 -0.018
O4JB 0.024 0.018 0.034 -0.007 0.013 -0.006
O5JB 0.024 0.032 0.032 -0.011 0.015 -0.014
O6JB 0.033 0.034 0.024 -0.01 0.014 -0.014
O11JB 0.027 0.032 0.036 0.002 0.009 -0.016
C1JB 0.009 0.028 0.027 -0.002 0.002 0.005
C2JB 0.016 0.021 0.029 -0.001 0.001 0.001
C3JB 0.021 0.013 0.028 -0.008 -0.002 0.003
C4JB 0.021 0.016 0.022 -0.002 0.005 0.004
C5JB 0.011 0.022 0.022 0.002 0.005 0.004
C6JB 0.014 0.019 0.025 -0.002 -0.002 0.003
C7JB 0.025 0.024 0.02 0.007 -0.001 0
C8JB 0.026 0.023 0.014 -0.001 -0.001 -0.007
C9JB 0.031 0.01 0.023 0.001 0.006 0.006
Cu1AA 0.0139 0.0159 0.0173 -0.0093 0 0
Cu1BA 0.0159 0.0173 0.0139 0 0 -0.0093
Cu1WA 0.0139 0.0159 0.0173 0.0093 0 0
Cu1JB 0.0139 0.0173 0.0159 -0.0093 0 0
Cu1PB 0.0159 0.0173 0.0139 0 0 -0.0093
Cu1IC 0.0173 0.0159 0.0139 0 0 0.0093
Cu1MC 0.0139 0.0159 0.0173 0.0093 0 0
Cu2AA 0.0142 0.0152 0.0149 -0.0082 0 0
Cu2BA 0.0152 0.0149 0.0142 0 0 -0.0082
Cu2WA 0.0142 0.0152 0.0149 0.0082 0 0
Cu2JB 0.0142 0.0149 0.0152 -0.0082 0 0
Cu2PB 0.0152 0.0149 0.0142 0 0 -0.0082
Cu2IC 0.0149 0.0152 0.0142 0 0 0.0082
Cu2MC 0.0142 0.0152 0.0149 0.0082 0 0
Cu3J 0.0159 0.0134 0.0151 0.0003 0.0055 -0.0002
Cu3K 0.0151 0.0159 0.0134 -0.0002 0.0003 0.0055
Cu3PB 0.0134 0.0159 0.0151 0.0055 -0.0003 0.0002
Cu3IC 0.0159 0.0134 0.0151 -0.0003 -0.0055 -0.0002
O1ZC 0.036 0.032 0.031 -0.01 0.01 -0.018
O1AD 0.031 0.032 0.036 0.018 -0.01 -0.01
O1UE 0.031 0.032 0.036 -0.018 -0.01 0.01
O2ZC 0.032 0.025 0.033 -0.014 0.011 -0.009
O2AD 0.033 0.025 0.032 0.009 -0.011 -0.014
O2UE 0.033 0.025 0.032 -0.009 -0.011 0.014
O3J 0.028 0.034 0.031 0.017 0.018 0.01
O3K 0.031 0.028 0.034 0.01 0.017 0.018
O3PB 0.034 0.028 0.031 0.018 -0.017 -0.01
O3IC 0.028 0.034 0.031 -0.017 -0.018 0.01
O5F 0.032 0.032 0.024 -0.014 -0.015 0.011
O5PB 0.032 0.032 0.024 0.014 -0.015 -0.011
O5LD 0.032 0.032 0.024 0.014 -0.015 -0.011
O5TE 0.032 0.032 0.024 -0.014 -0.015 0.011
O5YE 0.024 0.032 0.032 0.011 0.015 0.014
O6F 0.024 0.034 0.033 -0.014 -0.014 0.01
O6PB 0.024 0.034 0.033 0.014 -0.014 -0.01
O6LD 0.024 0.034 0.033 0.014 -0.014 -0.01
O6TE 0.024 0.034 0.033 -0.014 -0.014 0.01
O6YE 0.033 0.034 0.024 0.01 0.014 0.014
O7WA 0.022 0.03 0.029 -0.009 -0.008 0.007
O7EB 0.029 0.022 0.03 -0.007 0.009 -0.008
O8J 0.024 0.038 0.031 -0.021 0.012 -0.009
O8K 0.031 0.024 0.038 -0.009 -0.021 0.012
O8EB 0.024 0.031 0.038 -0.021 0.009 -0.012
loop_
_geom_bond_atom_site_label_1
_geom_bond_atom_site_label_2
_geom_bond_site_symmetry_1
_geom_bond_site_symmetry_2
Cu1 O1 1_555 1_555
Cu2 O2 1_555 1_555
Cu3 O4 1_555 1_555
O1 C1 1_555 1_555
O2 C1 1_555 1_555
O3 C8 1_555 1_555
O4 C8 1_555 1_555
O5 C9 1_555 1_555
O6 C9 1_555 1_555
O7 Cu3 1_555 1_555
O8 C10 1_555 1_555
O9 Cu1 1_555 1_555
O10 Cu2 1_555 1_555
O11 Cu3 1_555 1_555
C1 C2 1_555 1_555
C2 C3 1_555 1_555
C3 H1 1_555 1_555
C4 C3 1_555 1_555
C5 C4 1_555 1_555
H2 C5 1_555 1_555
C6 C5 1_555 1_555
C7 C2 1_555 1_555
H3 C7 1_555 1_555
C8 C4 1_555 1_555
C9 C6 1_555 1_555
C10 O7 1_555 1_555
C11 C10 1_555 1_555
C12 C11 1_555 1_555
H4 C12 1_555 1_555
O7JB C10JB 1_555 1_555
O8JB C10JB 1_555 1_555
C10JB C11JB 1_555 1_555
C11JB C12 1_555 1_555
C12JB C11JB 1_555 1_555
H4JB C12JB 1_555 1_555
O7IC C10IC 1_555 1_555
O8IC C10IC 1_555 1_555
C10IC C11IC 1_555 1_555
C11IC C12JB 1_555 1_555
C12IC C11 1_555 1_555
H4IC C12IC 1_555 1_555
Cu1G O1G 1_555 1_555
Cu2G O2G 1_555 1_555
Cu3G O4G 1_555 1_555
O1G C1G 1_555 1_555
O2G C1G 1_555 1_555
O3G C8G 1_555 1_555
O4G C8G 1_555 1_555
O5G C9G 1_555 1_555
O6G C9G 1_555 1_555
O7G Cu3G 1_555 1_555
O8G C10G 1_555 1_555
O9G Cu1G 1_555 1_555
O10G Cu2G 1_555 1_555
O11G Cu3G 1_555 1_555
C1G C2G 1_555 1_555
C2G C3G 1_555 1_555
C3G H1G 1_555 1_555
C4G C3G 1_555 1_555
C5G C4G 1_555 1_555
H2G C5G 1_555 1_555
C6G C5G 1_555 1_555
C7G C2G 1_555 1_555
H3G C7G 1_555 1_555
C8G C4G 1_555 1_555
C9G C6G 1_555 1_555
C10G O7G 1_555 1_555
C11G C10G 1_555 1_555
C12G C11G 1_555 1_555
H4G C12G 1_555 1_555
O7PB C10PB 1_555 1_555
O8PB Cu3 1_555 1_555
C10PB O8PB 1_555 1_555
C11PB C12G 1_555 1_555
C12PB C11PB 1_555 1_555
H4PB C12PB 1_555 1_555
O7AA C10AA 1_555 1_555
O8AA C10AA 1_555 1_555
C10AA C11AA 1_555 1_555
C11AA C12PB 1_555 1_555
C12AA C11G 1_555 1_555
H4AA C12AA 1_555 1_555
Cu3AA O7AA 1_555 1_555
O1AA C1AA 1_555 1_555
O2AA C1AA 1_555 1_555
O3AA C8AA 1_555 1_555
O4AA Cu3AA 1_555 1_555
O5AA C9AA 1_555 1_555
O6AA C9AA 1_555 1_555
O11AA Cu3AA 1_555 1_555
C1AA C2AA 1_555 1_555
C2AA C3AA 1_555 1_555
C3AA H1AA 1_555 1_555
C4AA C3AA 1_555 1_555
C5AA C4AA 1_555 1_555
H2AA C5AA 1_555 1_555
C6AA C5AA 1_555 1_555
C7AA C2AA 1_555 1_555
H3AA C7AA 1_555 1_555
C8AA O4AA 1_555 1_555
C9AA C6AA 1_555 1_555
Cu3WA O8IC 1_555 1_555
O1WA C1WA 1_555 1_555
O2WA C1WA 1_555 1_555
O3WA C8WA 1_555 1_555
O4WA Cu3WA 1_555 1_555
O5WA C9WA 1_555 1_555
O6WA C9WA 1_555 1_555
O11WA Cu3WA 1_555 1_555
C1WA C2WA 1_555 1_555
C2WA C3WA 1_555 1_555
C3WA H1WA 1_555 1_555
C4WA C3WA 1_555 1_555
C5WA C4WA 1_555 1_555
H2WA C5WA 1_555 1_555
C6WA C5WA 1_555 1_555
C7WA C2WA 1_555 1_555
H3WA C7WA 1_555 1_555
C8WA O4WA 1_555 1_555
C9WA C6WA 1_555 1_555
Cu1EB O1EB 1_555 1_555
Cu2EB O2EB 1_555 1_555
Cu3EB O8JB 1_555 1_555
O1EB C1EB 1_555 1_555
O2EB C1EB 1_555 1_555
O3EB C8EB 1_555 1_555
O4EB Cu3EB 1_555 1_555
O5EB C9EB 1_555 1_555
O6EB C9EB 1_555 1_555
O9EB Cu1EB 1_555 1_555
O10EB Cu2EB 1_555 1_555
O11EB Cu3EB 1_555 1_555
C1EB C2EB 1_555 1_555
C2EB C3EB 1_555 1_555
C3EB H1EB 1_555 1_555
C4EB C3EB 1_555 1_555
C5EB C4EB 1_555 1_555
H2EB C5EB 1_555 1_555
C6EB C5EB 1_555 1_555
C7EB C2EB 1_555 1_555
H3EB C7EB 1_555 1_555
C8EB O4EB 1_555 1_555
C9EB C6EB 1_555 1_555
Cu3JB O7JB 1_555 1_555
O1JB C1JB 1_555 1_555
O2JB C1JB 1_555 1_555
O3JB Cu3EB 1_555 1_555
O4JB Cu3JB 1_555 1_555
O5JB Cu2 1_555 1_555
O6JB Cu1 1_555 1_555
O11JB Cu3JB 1_555 1_555
C1JB C2JB 1_555 1_555
C2JB C3JB 1_555 1_555
C3JB H1JB 1_555 1_555
C4JB C3JB 1_555 1_555
C5JB C4JB 1_555 1_555
H2JB C5JB 1_555 1_555
C6JB C5JB 1_555 1_555
C7JB C2JB 1_555 1_555
H3JB C7JB 1_555 1_555
C8JB O3JB 1_555 1_555
C9JB O5JB 1_555 1_555
Cu1AA O6G 1_555 1_555
Cu1BA O6WA 1_555 1_555
Cu1WA O1WA 1_555 1_555
Cu1JB O1JB 1_555 1_555
Cu1PB O6AA 1_555 1_555
Cu1IC O6 1_555 1_555
Cu1MC O6EB 1_555 1_555
Cu2AA O5G 1_555 1_555
Cu2BA O5WA 1_555 1_555
Cu2WA O2WA 1_555 1_555
Cu2JB O2JB 1_555 1_555
Cu2PB O5AA 1_555 1_555
Cu2IC O5 1_555 1_555
Cu2MC O5EB 1_555 1_555
Cu3J O8AA 1_555 1_555
Cu3K O3G 1_555 1_555
Cu3PB O3 1_555 1_555
Cu3IC O7IC 1_555 1_555
O1ZC Cu1 1_555 1_555
O1AD Cu1G 1_555 1_555
O1UE Cu1EB 1_555 1_555
O2ZC Cu2 1_555 1_555
O2AD Cu2G 1_555 1_555
O2UE Cu2EB 1_555 1_555
O3J Cu3AA 1_555 1_555
O3K Cu3G 1_555 1_555
O3PB Cu3 1_555 1_555
O3IC Cu3WA 1_555 1_555
O5F Cu2EB 1_555 1_555
O5PB Cu2G 1_555 1_555
O5LD Cu2EB 1_555 1_555
O5TE Cu2G 1_555 1_555
O5YE Cu2 1_555 1_555
O6F Cu1EB 1_555 1_555
O6PB Cu1G 1_555 1_555
O6LD Cu1EB 1_555 1_555
O6TE Cu1G 1_555 1_555
O6YE Cu1 1_555 1_555
O7WA Cu3WA 1_555 1_555
O7EB Cu3EB 1_555 1_555
O8J Cu3AA 1_555 1_555
O8K Cu3G 1_555 1_555
O8EB Cu3JB 1_555 1_555
O8 Cu3PB 1_555 1_555
C6 C7 1_555 1_555
C11IC C12IC 1_555 1_555
O8G Cu3K 1_555 1_555
C6G C7G 1_555 1_555
O7PB Cu3PB 1_555 1_555
C10PB C11PB 1_555 1_555
C11AA C12AA 1_555 1_555
O1AA Cu1AA 1_555 1_555
O2AA Cu2AA 1_555 1_555
O3AA Cu3J 1_555 1_555
C4AA C8AA 1_555 1_555
C6AA C7AA 1_555 1_555
O3WA Cu3IC 1_555 1_555
C4WA C8WA 1_555 1_555
C6WA C7WA 1_555 1_555
O3EB Cu3JB 1_555 1_555
C4EB C8EB 1_555 1_555
C6EB C7EB 1_555 1_555
O4JB C8JB 1_555 1_555
O6JB C9JB 1_555 1_555
C4JB C8JB 1_555 1_555
C6JB C7JB 1_555 1_555
C6JB C9JB 1_555 1_555

#END
