
#######################################################################
#
#                 Cambridge Crystallographic Data Centre
#                                CCDC 
#
#######################################################################
#
# If this CIF has been generated from an entry in the Cambridge 
# Structural Database, then it will include bibliographic, chemical, 
# crystal, experimental, refinement or atomic coordinate data resulting 
# from the CCDC's data processing and validation procedures.
#
#######################################################################

data_NAGKEO
_chemical_formula_moiety         '(C32 H12 Br4 O16 Zn3 2-)n'
_symmetry_cell_setting           orthorhombic
_symmetry_space_group_name_H-M   'P b c a'
_symmetry_Int_Tables_number      61
_space_group_name_Hall           '-P 2ac 2ab'
loop_
_symmetry_equiv_pos_site_id
_symmetry_equiv_pos_as_xyz
1 x,y,z
2 1/2-x,-y,1/2+z
3 1/2+x,1/2-y,-z
4 -x,1/2+y,1/2-z
5 -x,-y,-z
6 1/2+x,y,1/2-z
7 1/2-x,1/2+y,z
8 x,1/2-y,1/2+z
_cell_length_a                   20.892(10)
_cell_length_b                   24.470(11)
_cell_length_c                   25.238(11)
_cell_angle_alpha                90
_cell_angle_beta                 90
_cell_angle_gamma                90
_cell_volume                     12902.4
loop_
_atom_site_label
_atom_site_type_symbol
_atom_site_fract_x
_atom_site_fract_y
_atom_site_fract_z
_atom_site_U_iso_or_equiv
_atom_site_thermal_displace_type
Br1 Br -0.18837(12) -0.41423(9) 0.06750(8) 0.1152 Uani
Br2 Br -0.20046(7) -0.00043(6) -0.00981(6) 0.0589 Uani
Br3 Br 0.22811(8) 0.24469(8) -0.13553(6) 0.0743 Uani
Br4 Br -0.21991(10) 0.41054(8) 0.08519(7) 0.0898 Uani
C1 C -0.1001(6) -0.3469(5) 0.1980(5) 0.0360 Uani
C2 C -0.0581(5) -0.3089(5) 0.1741(5) 0.0290 Uani
H1 H -0.0314 -0.2878 0.1954 0.0350 Uiso
C3 C -0.0559(6) -0.3024(5) 0.1203(5) 0.0300 Uani
C4 C -0.0944(7) -0.3341(6) 0.0899(5) 0.0517 Uani
H2 H -0.0922 -0.3315 0.0531 0.0620 Uiso
C5 C -0.1358(7) -0.3694(6) 0.1123(6) 0.0540 Uani
C6 C -0.1383(7) -0.3770(5) 0.1651(6) 0.0483 Uani
H3 H -0.1661 -0.4029 0.1792 0.0580 Uiso
C7 C -0.1034(8) -0.3529(6) 0.2578(5) 0.0463 Uani
C8 C -0.0150(6) -0.2606(5) 0.0959(6) 0.0370 Uani
C9 C 0.3460(6) 0.2908(5) 0.0456(6) 0.0293 Uani
C10 C -0.1229(7) 0.3566(6) 0.2724(5) 0.0400 Uani
C11 C 0.0029(6) -0.0999(5) 0.0685(5) 0.0310 Uani
C12 C -0.0322(5) -0.0454(5) 0.0609(4) 0.0223 Uani
C13 C -0.0066(6) 0.0028(5) 0.0762(4) 0.0240 Uani
H4 H 0.0331 0.0036 0.0928 0.0290 Uiso
C14 C -0.0385(6) 0.0496(5) 0.0671(5) 0.0310 Uani
C15 C -0.0940(6) 0.0483(6) 0.0411(5) 0.0370 Uani
H5 H -0.1152 0.0809 0.0340 0.0450 Uiso
C16 C -0.1202(6) 0.0004(5) 0.0246(4) 0.0233 Uani
C17 C -0.0889(6) -0.0469(5) 0.0334(4) 0.0293 Uani
H6 H -0.1053 -0.0799 0.0211 0.0350 Uiso
C18 C -0.0123(7) 0.1058(7) 0.0844(5) 0.0407 Uani
C19 C 0.1330(6) 0.2073(5) 0.0559(6) 0.0350 Uani
C20 C 0.1866(6) 0.2260(5) 0.0231(5) 0.0290 Uani
C21 C 0.2425(6) 0.2459(5) 0.0475(5) 0.0397 Uani
H7 H 0.2456 0.2456 0.0843 0.0480 Uiso
C22 C 0.2918(6) 0.2657(5) 0.0182(5) 0.0397 Uani
C23 C 0.2849(6) 0.2654(5) -0.0358(6) 0.0420 Uani
H8 H 0.3172 0.2808 -0.0562 0.0500 Uiso
C24 C 0.2327(6) 0.2433(5) -0.0615(5) 0.0300 Uani
C25 C 0.1841(6) 0.2259(5) -0.0314(5) 0.0360 Uani
H9 H 0.1472 0.2132 -0.0479 0.0430 Uiso
C26 C -0.0353(6) 0.2658(5) 0.1097(5) 0.0307 Uani
C27 C -0.0814(6) 0.3047(5) 0.1352(5) 0.0327 Uani
C28 C -0.0816(6) 0.3108(5) 0.1911(5) 0.0350 Uani
H10 H -0.0544 0.2898 0.2120 0.0420 Uiso
C29 C -0.1226(6) 0.3482(5) 0.2145(5) 0.0360 Uani
C30 C -0.1640(7) 0.3772(6) 0.1823(6) 0.0540 Uani
H11 H -0.1932 0.4015 0.1973 0.0650 Uiso
C31 C -0.1623(6) 0.3705(5) 0.1289(5) 0.0410 Uani
C32 C -0.1222(6) 0.3344(5) 0.1042(5) 0.0373 Uani
H12 H -0.1227 0.3303 0.0676 0.0450 Uiso
O1 O -0.1401(5) -0.3872(5) 0.2761(4) 0.0763 Uani
O2 O -0.0677(4) -0.3223(3) 0.2835(3) 0.0420 Uani
O3 O 0.0123(4) -0.2289(4) 0.1274(3) 0.0430 Uani
O4 O -0.0119(4) -0.2578(3) 0.0466(3) 0.0420 Uani
O5 O 0.3459(4) 0.2986(3) 0.0926(4) 0.0400 Uani
O6 O 0.3942(4) 0.3021(4) 0.0151(4) 0.0527 Uani
O7 O -0.0834(5) 0.3289(3) 0.2986(3) 0.0437 Uani
O8 O -0.1650(5) 0.3859(4) 0.2935(4) 0.0690 Uani
O9 O 0.0463(4) -0.1004(3) 0.1030(3) 0.0370 Uani
O10 O -0.0138(4) -0.1404(3) 0.0410(3) 0.0407 Uani
O11 O 0.0325(4) 0.1034(3) 0.1172(3) 0.0393 Uani
O12 O -0.0370(4) 0.1451(4) 0.0648(3) 0.0363 Uani
O13 O 0.1396(4) 0.1992(4) 0.1057(4) 0.0457 Uani
O14 O 0.0802(5) 0.1966(4) 0.0316(3) 0.0487 Uani
O15 O -0.0013(4) 0.2385(3) 0.1423(3) 0.0430 Uani
O16 O -0.0351(4) 0.2621(3) 0.0621(3) 0.0443 Uani
Zn1 Zn 0.05968(6) 0.17808(5) 0.13982(5) 0.0266 Uani
Zn2 Zn 0.01187(11) -0.20145(10) -0.00860(9) 0.0912 Uani
Zn3 Zn 0.07744(7) -0.17157(5) 0.12470(5) 0.0270 Uani
O2C O 0.0677(4) 0.1777(3) 0.2165(3) 0.0420 Uani
O5F O 0.1541(4) -0.2014(3) 0.0926(4) 0.0400 Uani
O6F O 0.1058(4) -0.1979(4) 0.0151(4) 0.0527 Uani
O7C O 0.0834(5) -0.1711(3) 0.2014(3) 0.0437 Uani
O12D O 0.0370(4) -0.1451(4) -0.0648(3) 0.0363 Uani
O14D O -0.0802(5) -0.1966(4) -0.0316(3) 0.0487 Uani
O16D O 0.0351(4) -0.2621(3) -0.0621(3) 0.0443 Uani
Zn1C Zn -0.05968(6) -0.32192(5) 0.36018(5) 0.0266 Uani
Zn2D Zn -0.01187(11) 0.20145(10) 0.00860(9) 0.0912 Uani
Zn2F Zn 0.48813(11) 0.29855(10) -0.00860(9) 0.0912 Uani
Zn3C Zn -0.07744(7) 0.32843(5) 0.37530(5) 0.0270 Uani
Zn3F Zn 0.42256(7) 0.32843(5) 0.12470(5) 0.0270 Uani
loop_
_atom_site_aniso_label
_atom_site_aniso_U_11
_atom_site_aniso_U_22
_atom_site_aniso_U_33
_atom_site_aniso_U_23
_atom_site_aniso_U_13
_atom_site_aniso_U_12
Br1 0.161(2) 0.1117(18) 0.0729(13) -0.0070(12) -0.0261(13) -0.1019(16)
Br2 0.0406(10) 0.0663(11) 0.0699(11) 0.0015(8) -0.0154(8) -0.0027(8)
Br3 0.0726(13) 0.1145(16) 0.0359(9) -0.0001(9) -0.0018(8) 0.0124(11)
Br4 0.1137(17) 0.0901(15) 0.0655(12) 0.0099(10) -0.0234(11) 0.0677(12)
C1 0.036(8) 0.036(8) 0.036(8) 0.000(7) 0.000(7) 0.000(7)
C2 0.029(8) 0.029(8) 0.029(8) 0.000(6) 0.000(6) 0.000(6)
C3 0.030(8) 0.030(8) 0.030(8) 0.000(6) 0.000(6) 0.000(7)
C4 0.066(11) 0.053(10) 0.036(9) 0.009(8) 0.000(8) -0.002(9)
C5 0.054(10) 0.054(11) 0.054(11) 0.000(8) 0.000(8) -0.001(9)
C6 0.068(11) 0.031(9) 0.046(10) -0.002(8) -0.004(8) -0.017(8)
C7 0.085(12) 0.018(8) 0.036(9) 0.019(7) -0.002(9) -0.005(9)
C8 0.037(9) 0.037(9) 0.037(10) 0.000(8) 0.000(7) 0.000(7)
C9 0.016 0.019 0.053 0.01 0 0.001
C10 0.04 0.04 0.04 0 0 0
C11 0.031(8) 0.031(9) 0.031(8) 0.000(7) 0.000(7) 0.000(7)
C12 0.022(8) 0.023(8) 0.022(7) 0.001(6) 0.000(6) 0.000(6)
C13 0.024(7) 0.024(8) 0.024(7) 0.000(6) 0.000(6) 0.000(7)
C14 0.031(9) 0.031(9) 0.031(8) 0.000(6) 0.000(7) 0.000(7)
C15 0.035(9) 0.038(10) 0.038(8) 0.009(7) 0.007(7) 0.005(8)
C16 0.023(7) 0.023(8) 0.024(7) 0.000(6) 0.000(5) 0.000(7)
C17 0.029(8) 0.029(8) 0.030(7) 0.000(6) 0.000(6) 0.000(7)
C18 0.028(9) 0.072(13) 0.022(8) -0.002(8) 0.005(7) -0.005(9)
C19 0.020(9) 0.031(8) 0.054(10) 0.001(7) 0.007(8) -0.005(7)
C20 0.029(8) 0.029(8) 0.029(8) 0.000(6) 0.000(6) 0.000(6)
C21 0.045(10) 0.058(10) 0.016(7) 0.000(6) -0.007(7) -0.024(8)
C22 0.039(9) 0.040(9) 0.040(10) 0.000(7) 0.000(8) 0.000(7)
C23 0.041(10) 0.031(9) 0.054(11) 0.014(7) 0.026(8) -0.007(7)
C24 0.030(9) 0.030(8) 0.030(8) 0.000(6) 0.000(7) 0.000(7)
C25 0.036(9) 0.036(9) 0.036(9) 0.000(7) -0.001(7) -0.003(7)
C26 0.031(8) 0.030(8) 0.031(9) 0.000(7) 0.000(7) -0.001(7)
C27 0.042(9) 0.015(7) 0.041(9) -0.007(6) 0.010(7) -0.004(7)
C28 0.035(8) 0.035(8) 0.035(9) 0.000(6) 0.000(6) 0.002(7)
C29 0.036(9) 0.036(8) 0.036(9) 0.001(7) 0.000(7) 0.000(7)
C30 0.054(11) 0.054(10) 0.054(11) 0.000(8) 0.000(8) 0.000(9)
C31 0.054(10) 0.041(9) 0.028(9) -0.002(7) -0.009(7) 0.028(8)
C32 0.059(10) 0.015(7) 0.038(8) 0.000(6) -0.019(7) 0.008(7)
O1 0.097(9) 0.083(8) 0.049(7) 0.029(6) -0.001(6) -0.062(7)
O2 0.066(7) 0.031(5) 0.029(5) -0.002(4) 0.003(5) -0.017(5)
O3 0.054(6) 0.044(6) 0.031(5) -0.015(5) 0.006(4) -0.022(5)
O4 0.065(7) 0.034(6) 0.027(6) -0.018(4) 0.010(5) -0.003(5)
O5 0.039 0.049 0.032 -0.005 -0.01 -0.018
O6 0.039 0.048 0.071 0.026 -0.003 -0.023
O7 0.081 0.036 0.014 -0.007 0.003 0.008
O8 0.069 0.069 0.069 0 0 0.001
O9 0.050(6) 0.011(5) 0.050(6) 0.002(4) 0.004(5) -0.004(4)
O10 0.050(6) 0.015(5) 0.057(6) -0.010(5) 0.001(5) -0.005(4)
O11 0.040(6) 0.038(6) 0.040(6) 0.000(4) 0.000(5) 0.000(5)
O12 0.036(6) 0.036(6) 0.037(5) 0.000(5) 0.000(4) 0.001(5)
O13 0.022(5) 0.068(7) 0.047(6) 0.006(5) 0.011(4) -0.009(5)
O14 0.041(6) 0.048(6) 0.057(6) 0.001(5) 0.010(5) -0.027(5)
O15 0.059(7) 0.032(5) 0.038(5) -0.003(4) 0.001(5) 0.009(5)
O16 0.072(7) 0.040(6) 0.021(6) 0.006(4) 0.003(5) 0.004(5)
Zn1 0.0313(9) 0.0180(8) 0.0304(8) -0.0029(6) 0.0025(6) 0.0019(7)
Zn2 0.1000(19) 0.0817(17) 0.0918(17) -0.0021(12) -0.0037(14) 0.0014(14)
Zn3 0.0326(9) 0.0183(8) 0.0302(9) 0.0027(6) -0.0009(6) -0.0004(7)
O2C 0.066 0.031 0.029 0.002 0.003 0.017
O5F 0.039 0.049 0.032 -0.005 0.01 0.018
O6F 0.039 0.048 0.071 0.026 0.003 0.023
O7C 0.081 0.036 0.014 0.007 0.003 -0.008
O12D 0.036 0.036 0.037 0 0 0.001
O14D 0.041 0.048 0.057 0.001 0.01 -0.027
O16D 0.072 0.04 0.021 0.006 0.003 0.004
Zn1C 0.0313 0.018 0.0304 0.0029 0.0025 -0.0019
Zn2D 0.1 0.0817 0.0918 -0.0021 -0.0037 0.0014
Zn2F 0.1 0.0817 0.0918 -0.0021 0.0037 -0.0014
Zn3C 0.0326 0.0183 0.0302 -0.0027 -0.0009 0.0004
Zn3F 0.0326 0.0183 0.0302 0.0027 0.0009 0.0004
loop_
_geom_bond_atom_site_label_1
_geom_bond_atom_site_label_2
_geom_bond_site_symmetry_1
_geom_bond_site_symmetry_2
Br1 C5 1_555 1_555
Br2 C16 1_555 1_555
Br3 C24 1_555 1_555
Br4 C31 1_555 1_555
C1 C2 1_555 1_555
C2 H1 1_555 1_555
C3 C2 1_555 1_555
C4 C3 1_555 1_555
H2 C4 1_555 1_555
C5 C4 1_555 1_555
C6 C1 1_555 1_555
H3 C6 1_555 1_555
C7 C1 1_555 1_555
C8 C3 1_555 1_555
C9 C22 1_555 1_555
C10 C29 1_555 1_555
C11 C12 1_555 1_555
C12 C13 1_555 1_555
C13 H4 1_555 1_555
C14 C13 1_555 1_555
C15 C14 1_555 1_555
H5 C15 1_555 1_555
C16 C15 1_555 1_555
C17 C12 1_555 1_555
H6 C17 1_555 1_555
C18 C14 1_555 1_555
C19 C20 1_555 1_555
C20 C21 1_555 1_555
C21 H7 1_555 1_555
C22 C21 1_555 1_555
C23 C22 1_555 1_555
H8 C23 1_555 1_555
C24 C23 1_555 1_555
C25 C20 1_555 1_555
H9 C25 1_555 1_555
C26 C27 1_555 1_555
C27 C28 1_555 1_555
C28 H10 1_555 1_555
C29 C28 1_555 1_555
C30 C29 1_555 1_555
H11 C30 1_555 1_555
C31 C30 1_555 1_555
C32 C27 1_555 1_555
H12 C32 1_555 1_555
O1 C7 1_555 1_555
O2 C7 1_555 1_555
O3 C8 1_555 1_555
O4 C8 1_555 1_555
O5 C9 1_555 1_555
O6 C9 1_555 1_555
O7 C10 1_555 1_555
O8 C10 1_555 1_555
O9 C11 1_555 1_555
O10 C11 1_555 1_555
O11 C18 1_555 1_555
O12 C18 1_555 1_555
O13 C19 1_555 1_555
O14 C19 1_555 1_555
O15 C26 1_555 1_555
O16 C26 1_555 1_555
Zn1 O11 1_555 1_555
Zn2 O4 1_555 1_555
Zn3 O3 1_555 1_555
O2C Zn1 1_555 1_555
O5F Zn3 1_555 1_555
O6F Zn2 1_555 1_555
O7C Zn3 1_555 1_555
O12D Zn2 1_555 1_555
O14D Zn2 1_555 1_555
O16D Zn2 1_555 1_555
Zn1C O2 1_555 1_555
Zn2D O12 1_555 1_555
Zn2F O6 1_555 1_555
Zn3C O7 1_555 1_555
Zn3F O5 1_555 1_555
C5 C6 1_555 1_555
C16 C17 1_555 1_555
C24 C25 1_555 1_555
C31 C32 1_555 1_555
O9 Zn3 1_555 1_555
O10 Zn2 1_555 1_555
O13 Zn1 1_555 1_555
O14 Zn2D 1_555 1_555
O15 Zn1 1_555 1_555
O16 Zn2D 1_555 1_555

#END
