
#######################################################################
#
#                 Cambridge Crystallographic Data Centre
#                                CCDC 
#
#######################################################################
#
# If this CIF has been generated from an entry in the Cambridge 
# Structural Database, then it will include bibliographic, chemical, 
# crystal, experimental, refinement or atomic coordinate data resulting 
# from the CCDC's data processing and validation procedures.
#
#######################################################################

data_FORPUY
_chemical_formula_moiety         'C28 H46 Mo12 N6 Nd9 O77 Si1'
_symmetry_cell_setting           monoclinic
_symmetry_space_group_name_H-M   'C 2/c'
_symmetry_Int_Tables_number      15
_space_group_name_Hall           '-C 2yc'
loop_
_symmetry_equiv_pos_site_id
_symmetry_equiv_pos_as_xyz
1 x,y,z
2 -x,y,1/2-z
3 1/2+x,1/2+y,z
4 1/2-x,1/2+y,1/2-z
5 -x,-y,-z
6 x,-y,1/2+z
7 1/2-x,1/2-y,-z
8 1/2+x,1/2-y,1/2+z
_cell_length_a                   30.514(3)
_cell_length_b                   15.6715(19)
_cell_length_c                   22.003(2)
_cell_angle_alpha                90
_cell_angle_beta                 133.025(2)
_cell_angle_gamma                90
_cell_volume                     7692.05
loop_
_atom_site_label
_atom_site_type_symbol
_atom_site_fract_x
_atom_site_fract_y
_atom_site_fract_z
Mo1 Mo 0.5000 0.8606(3) 0.2500
Mo2 Mo 0.36834(17) 0.7475(2) 0.09020(19)
Mo3 Mo 0.57693(13) 0.74771(19) 0.20848(17)
Mo4 Mo 0.44543(11) 0.63492(17) 0.04802(15)
Mo5 Mo 0.57650(14) 0.52197(19) 0.20863(19)
Mo6 Mo 0.37032(14) 0.5222(3) 0.09014(19)
Mo7 Mo 0.5000 0.4086(3) 0.2500
O3 O 0.542(2) 0.548(3) 0.272(3)
O5 O 0.4363(12) 0.8290(17) 0.1517(16)
O6 O 0.5436(12) 0.8510(17) 0.2108(16)
O7 O 0.3971(12) 0.7173(16) 0.0401(15)
O8 O 0.5049(12) 0.7218(16) 0.0987(16)
O9 O 0.6050(11) 0.6354(17) 0.2229(15)
O10 O 0.5077(12) 0.5522(16) 0.0986(16)
O11 O 0.6403(11) 0.5012(17) 0.3316(16)
O12 O 0.4221(11) 0.4145(17) 0.1442(16)
O13 O 0.3732(13) 0.7490(17) 0.1770(16)
O14 O 0.3933(11) 0.5507(16) 0.0309(15)
O15 O 0.3376(11) 0.6338(17) 0.0659(15)
O16 O 0.5272(11) 0.4424(17) 0.2039(16)
O17 O 0.5000 0.966(2) 0.2500
O18 O 0.3124(13) 0.8119(19) 0.0174(16)
O19 O 0.6114(12) 0.7984(17) 0.1844(16)
O20 O 0.4221(11) 0.6339(15) -0.0453(13)
O21 O 0.6168(11) 0.4690(16) 0.1950(15)
O22 O 0.3082(11) 0.4665(17) 0.0111(15)
Si1 Si 0.5000 0.6343(9) 0.2500
Mo2A Mo 0.63166(17) 0.7475(2) 0.40980(19)
Mo3A Mo 0.42307(13) 0.74771(19) 0.29152(17)
Mo4A Mo 0.55457(11) 0.63492(17) 0.45198(15)
Mo5A Mo 0.42350(14) 0.52197(19) 0.29137(19)
Mo6A Mo 0.62968(14) 0.5222(3) 0.40986(19)
O3A O 0.458(2) 0.548(3) 0.228(3)
O5A O 0.5637(12) 0.8290(17) 0.3483(16)
O6A O 0.4564(12) 0.8510(17) 0.2892(16)
O7A O 0.6029(12) 0.7173(16) 0.4599(15)
O8A O 0.4951(12) 0.7218(16) 0.4013(16)
O9A O 0.3950(11) 0.6354(17) 0.2771(15)
O10A O 0.4923(12) 0.5522(16) 0.4014(16)
O11A O 0.3597(11) 0.5012(17) 0.1684(16)
O12A O 0.5779(11) 0.4145(17) 0.3558(16)
O13A O 0.6268(13) 0.7490(17) 0.3230(16)
O14A O 0.6067(11) 0.5507(16) 0.4691(15)
O15A O 0.6624(11) 0.6338(17) 0.4341(15)
O16A O 0.4728(11) 0.4424(17) 0.2961(16)
O18A O 0.6876(13) 0.8119(19) 0.4826(16)
O19A O 0.3886(12) 0.7984(17) 0.3156(16)
O20A O 0.5779(11) 0.6339(15) 0.5453(13)
O21A O 0.3832(11) 0.4690(16) 0.3050(15)
O22A O 0.6918(11) 0.4665(17) 0.4889(15)
O40 O 0.7617(13) 0.1457(19) 0.165(2)
H17 H 0.7992 0.1439 0.1937
H18 H 0.7437 0.1579 0.1152
Nd1 Nd 0.89001(6) -0.36381(9) 1.32591(8)
Nd2 Nd 0.83078(6) -0.37205(8) 0.98548(8)
N1 N 0.8381(10) -0.5026(14) 1.2418(14)
N2 N 0.6340(10) -0.2658(14) 1.0358(14)
O24 O 0.8669(8) -0.4697(12) 1.3828(11)
O25 O 0.8281(8) -0.5959(12) 1.3755(11)
O26 O 0.8762(8) -0.3846(12) 1.2034(11)
O27 O 0.8404(8) -0.4525(12) 1.0888(11)
O28 O 0.7490(8) -0.2313(12) 1.1291(11)
O29 O 0.7772(8) -0.3469(12) 1.2041(11)
O30 O 0.5600(8) -0.1442(12) 0.9303(11)
O31 O 0.4810(9) -0.2152(13) 0.8880(12)
O32 O 0.8412(10) -0.2958(14) 1.3685(13)
H1 H 0.8569 -0.2494 1.3713
H2 H 0.8034 -0.2886 1.3334
O33 O 0.9678(10) -0.3674(15) 1.4871(12)
H3 H 0.9643 -0.3253 1.5080
H4 H 0.9673 -0.4141 1.5063
O34 O 0.9724(9) -0.4776(13) 1.3767(12)
H5 H 0.9739 -0.5135 1.3492
H6 H 0.9942 -0.4353 1.3872
O35 O 0.8675(9) -0.2190(13) 1.2636(14)
H7 H 0.8308 -0.2050 1.2325
H8 H 0.8862 -0.1977 1.3113
O36 O 0.8755(9) -0.5185(13) 1.0117(12)
H9 H 0.9002 -0.5329 1.0626
H10 H 0.8906 -0.5254 0.9909
O37 O 0.7491(10) -0.4713(14) 0.8902(14)
H11 H 0.7116 -0.4629 0.8516
H12 H 0.7544 -0.5228 0.9060
O38 O 0.7465(9) -0.3395(13) 0.9802(12)
H13 H 0.7528 -0.2940 1.0062
H14 H 0.7395 -0.3808 0.9976
O39 O 0.8659(8) -0.2665(12) 1.1034(11)
H15 H 0.8456 -0.2218 1.0766
H16 H 0.9005 -0.2595 1.1210
C1 C 0.8380(12) -0.5395(17) 1.3471(16)
C2 C 0.8147(12) -0.5556(17) 1.2617(16)
C3 C 0.7747(12) -0.6182(18) 1.2082(16)
H19 H 0.7594 -0.6545 1.2234
C4 C 0.7572(13) -0.6274(19) 1.1324(17)
H20 H 0.7274 -0.6657 1.0929
C5 C 0.7872(12) -0.5752(17) 1.1171(17)
H21 H 0.7806 -0.5840 1.0696
C6 C 0.8259(12) -0.5117(18) 1.1726(16)
C7 C 0.8494(12) -0.4464(17) 1.1534(16)
C8 C 0.7377(12) -0.3009(17) 1.1468(16)
C9 C 0.6738(12) -0.3219(17) 1.0932(16)
C10 C 0.6556(12) -0.3988(17) 1.1056(16)
H22 H 0.6835 -0.4375 1.1470
C11 C 0.5944(12) -0.4130(18) 1.0532(16)
H23 H 0.5809 -0.4638 1.0575
C12 C 0.5528(12) -0.3525(17) 0.9944(16)
H24 H 0.5118 -0.3603 0.9608
C13 C 0.5765(12) -0.2789(17) 0.9886(16)
C14 C 0.5357(12) -0.2075(17) 0.9291(16)
Nd1G Nd 1.39001(6) -0.13619(9) 1.82591(8)
Nd1G_2 Nd 0.39001(6) -0.13619(9) 0.82591(8)
Nd1E Nd 0.89001(6) -0.63619(9) 0.82591(8)
Nd2F Nd 0.66922(6) -0.12795(8) 1.01452(8)
Nd2E Nd 0.83078(6) -0.62795(8) 1.48548(8)
Nd2A Nd 1.16922(6) -0.37205(8) 1.51452(8)
Nd2E_2 Nd 0.83078(6) -0.62795(8) 0.48548(8)
N1E N 0.8381(10) -0.4974(14) 0.7418(14)
N1G N 1.3381(10) 0.0026(14) 1.7418(14)
N2G N 1.1340(10) -0.2342(14) 1.5358(14)
N2F N 0.8660(10) -0.2342(14) 0.9642(14)
O24E O 0.8669(8) -0.5303(12) 0.8828(11)
O24G O 1.3669(8) -0.0303(12) 1.8828(11)
O25E O 0.8281(8) -0.4041(12) 0.8755(11)
O25C O 0.6719(8) -0.0959(12) 1.1245(11)
O26E O 0.8762(8) -0.6154(12) 0.7034(11)
O26G O 1.3762(8) -0.1154(12) 1.7034(11)
O27E O 0.8404(8) -0.5475(12) 0.5888(11)
O27F O 0.6596(8) -0.0475(12) 0.9112(11)
O28G O 1.2490(8) -0.2687(12) 1.6291(11)
O28F O 0.7510(8) -0.2687(12) 0.8709(11)
O29G O 1.2772(8) -0.1531(12) 1.7041(11)
O30G O 1.0600(8) -0.3558(12) 1.4303(11)
O30F O 0.9400(8) -0.3558(12) 1.0697(11)
O31G O 0.9810(9) -0.2848(13) 1.3880(12)
O31_2 O 1.4810(9) -0.2152(13) 1.8880(12)
O32G O 1.3412(10) -0.2042(14) 1.8685(13)
H1G H 1.3569 -0.2506 1.8713
H2G H 1.3034 -0.2114 1.8334
O33G O 1.4678(10) -0.1326(15) 1.9871(12)
H3G H 1.4643 -0.1747 2.0080
H4G H 1.4673 -0.0859 2.0063
O34G O 1.4724(9) -0.0224(13) 1.8767(12)
H5G H 1.4739 0.0135 1.8492
H6G H 1.4942 -0.0647 1.8872
O35G O 1.3675(9) -0.2810(13) 1.7636(14)
H7G H 1.3308 -0.2950 1.7325
H8G H 1.3862 -0.3023 1.8113
O36F O 0.6245(9) 0.0185(13) 0.9883(12)
H9F H 0.5998 0.0329 0.9374
H10F H 0.6094 0.0254 1.0091
O37F O 0.7509(10) -0.0287(14) 1.1098(14)
H11F H 0.7884 -0.0371 1.1484
H12F H 0.7456 0.0228 1.0940
O38F O 0.7535(9) -0.1605(13) 1.0198(12)
H13F H 0.7472 -0.2060 0.9938
H14F H 0.7605 -0.1192 1.0024
O39F O 0.6341(8) -0.2335(12) 0.8966(11)
H15F H 0.6544 -0.2782 0.9234
H16F H 0.5995 -0.2405 0.8790
C1E C 0.8380(12) -0.4605(17) 0.8471(16)
C2E C 0.8147(12) -0.4444(17) 0.7617(16)
C3E C 0.7747(12) -0.3818(18) 0.7082(16)
H19E H 0.7594 -0.3455 0.7234
C4E C 0.7572(13) -0.3726(19) 0.6324(17)
H20E H 0.7274 -0.3343 0.5929
C5E C 0.7872(12) -0.4248(17) 0.6171(17)
H21E H 0.7806 -0.4160 0.5696
C6E C 0.8259(12) -0.4883(18) 0.6726(16)
C7E C 0.8494(12) -0.5536(17) 0.6534(16)
C8G C 1.2377(12) -0.1991(17) 1.6468(16)
C9G C 1.1738(12) -0.1781(17) 1.5932(16)
C10G C 1.1556(12) -0.1012(17) 1.6056(16)
H22G H 1.1835 -0.0625 1.6470
C11G C 1.0944(12) -0.0870(18) 1.5532(16)
H23G H 1.0809 -0.0362 1.5575
C12G C 1.0528(12) -0.1475(17) 1.4944(16)
H24G H 1.0118 -0.1397 1.4608
C13G C 1.0765(12) -0.2211(17) 1.4886(16)
C14G C 1.0357(12) -0.2925(17) 1.4291(16)
loop_
_geom_bond_atom_site_label_1
_geom_bond_atom_site_label_2
_geom_bond_site_symmetry_1
_geom_bond_site_symmetry_2
Nd1 N1 1_555 1_555
Nd2 O27 1_555 1_555
Mo1 O5 1_555 1_555
Mo2 O5 1_555 1_555
Mo3 O6 1_555 1_555
Mo4 O7 1_555 1_555
Mo5 O3 1_555 1_555
Mo6 O12 1_555 1_555
Mo7 O3 1_555 1_555
N1 C2 1_555 1_555
N2 C9 1_555 1_555
O3 Si1 1_555 1_555
O6 Mo1 1_555 1_555
O7 Mo2 1_555 1_555
O8 Mo3 1_555 1_555
O9 Mo3 1_555 1_555
O10 Mo4 1_555 1_555
O11 Mo5 1_555 1_555
O12 Mo7 1_555 1_555
O13 Mo2 1_555 1_555
O14 Mo4 1_555 1_555
O15 Mo2 1_555 1_555
O16 Mo5 1_555 1_555
O17 Mo1 1_555 1_555
O18 Mo2 1_555 1_555
O19 Mo3 1_555 1_555
O20 Mo4 1_555 1_555
O21 Mo5 1_555 1_555
O22 Mo6 1_555 1_555
O24 Nd1 1_555 1_555
O25 C1 1_555 1_555
O26 Nd1 1_555 1_555
O27 C7 1_555 1_555
O28 C8 1_555 1_555
O29 Nd1 1_555 1_555
O30 C14 1_555 1_555
O31 C14 1_555 1_555
O32 Nd1 1_555 1_555
H1 O32 1_555 1_555
H2 O32 1_555 1_555
O33 Nd1 1_555 1_555
H3 O33 1_555 1_555
H4 O33 1_555 1_555
O34 Nd1 1_555 1_555
H5 O34 1_555 1_555
H6 O34 1_555 1_555
O35 Nd1 1_555 1_555
H7 O35 1_555 1_555
H8 O35 1_555 1_555
O36 Nd2 1_555 1_555
H9 O36 1_555 1_555
H10 O36 1_555 1_555
O37 Nd2 1_555 1_555
H11 O37 1_555 1_555
H12 O37 1_555 1_555
O38 Nd2 1_555 1_555
H13 O38 1_555 1_555
H14 O38 1_555 1_555
O39 Nd2 1_555 1_555
H15 O39 1_555 1_555
H16 O39 1_555 1_555
O40 H17 1_555 1_555
H18 O40 1_555 1_555
Si1 O3A 1_555 1_555
C1 O24 1_555 1_555
C2 C1 1_555 1_555
C3 C2 1_555 1_555
H19 C3 1_555 1_555
C4 C3 1_555 1_555
H20 C4 1_555 1_555
C5 C4 1_555 1_555
H21 C5 1_555 1_555
C6 N1 1_555 1_555
C7 O26 1_555 1_555
C8 O29 1_555 1_555
C9 C8 1_555 1_555
C10 C9 1_555 1_555
H22 C10 1_555 1_555
C11 C10 1_555 1_555
H23 C11 1_555 1_555
C12 C11 1_555 1_555
H24 C12 1_555 1_555
C13 N2 1_555 1_555
C14 C13 1_555 1_555
Nd1G N1G 1_555 1_555
Nd1G_2 O31 1_555 1_555
Nd1E N1E 1_555 1_555
Nd2F N2 1_555 1_555
Nd2E O25 1_555 1_555
Nd2A N2G 1_555 1_555
Nd2E_2 O27E 1_555 1_555
Mo2A O5A 1_555 1_555
Mo3A O13 1_555 1_555
Mo4A O7A 1_555 1_555
Mo5A O3A 1_555 1_555
Mo6A O3 1_555 1_555
N1E C2E 1_555 1_555
N2G C9G 1_555 1_555
N2F Nd2 1_555 1_555
O3A Mo6 1_555 1_555
O5A Mo1 1_555 1_555
O6A Mo1 1_555 1_555
O7A Mo2A 1_555 1_555
O8A Mo3A 1_555 1_555
O9A Mo3A 1_555 1_555
O10A Mo4A 1_555 1_555
O11A Mo6 1_555 1_555
O12A Mo7 1_555 1_555
O13A Mo3 1_555 1_555
O14A Mo4A 1_555 1_555
O15A Mo2A 1_555 1_555
O16A Mo7 1_555 1_555
O18A Mo2A 1_555 1_555
O19A Mo3A 1_555 1_555
O20A Mo4A 1_555 1_555
O21A Mo5A 1_555 1_555
O22A Mo6A 1_555 1_555
O24E Nd1E 1_555 1_555
O24G Nd1G 1_555 1_555
O25E Nd2 1_555 1_555
O25C Nd2F 1_555 1_555
O26E Nd1E 1_555 1_555
O26G Nd1G 1_555 1_555
O27E C7E 1_555 1_555
O27F Nd2F 1_555 1_555
O28G Nd2A 1_555 1_555
O28F Nd2 1_555 1_555
O29G Nd1G 1_555 1_555
O30G Nd2A 1_555 1_555
O30F Nd2 1_555 1_555
O31G Nd1 1_555 1_555
O31_2 Nd1G 1_555 1_555
O32G Nd1G 1_555 1_555
H1G O32G 1_555 1_555
H2G O32G 1_555 1_555
O33G Nd1G 1_555 1_555
H3G O33G 1_555 1_555
H4G O33G 1_555 1_555
O34G Nd1G 1_555 1_555
H5G O34G 1_555 1_555
H6G O34G 1_555 1_555
O35G Nd1G 1_555 1_555
H7G O35G 1_555 1_555
H8G O35G 1_555 1_555
O36F Nd2F 1_555 1_555
H9F O36F 1_555 1_555
H10F O36F 1_555 1_555
O37F Nd2F 1_555 1_555
H11F O37F 1_555 1_555
H12F O37F 1_555 1_555
O38F Nd2F 1_555 1_555
H13F O38F 1_555 1_555
H14F O38F 1_555 1_555
O39F Nd2F 1_555 1_555
H15F O39F 1_555 1_555
H16F O39F 1_555 1_555
C1E O24E 1_555 1_555
C2E C1E 1_555 1_555
C3E C2E 1_555 1_555
H19E C3E 1_555 1_555
C4E C3E 1_555 1_555
H20E C4E 1_555 1_555
C5E C4E 1_555 1_555
H21E C5E 1_555 1_555
C6E N1E 1_555 1_555
C7E O26E 1_555 1_555
C8G O28G 1_555 1_555
C9G C8G 1_555 1_555
C10G C9G 1_555 1_555
H22G C10G 1_555 1_555
C11G C10G 1_555 1_555
H23G C11G 1_555 1_555
C12G C11G 1_555 1_555
H24G C12G 1_555 1_555
C13G N2G 1_555 1_555
C14G O30G 1_555 1_555
Mo4 O8 1_555 1_555
Mo5 O9 1_555 1_555
Mo5 O10 1_555 1_555
Mo6 O14 1_555 1_555
Mo6 O15 1_555 1_555
Mo7 O16 1_555 1_555
Mo7 O3A 1_555 1_555
O11 Mo6A 1_555 1_555
O28 Nd2F 1_555 1_555
O30 Nd2F 1_555 1_555
C5 C6 1_555 1_555
C6 C7 1_555 1_555
C12 C13 1_555 1_555
Mo2A O13A 1_555 1_555
Mo3A O6A 1_555 1_555
Mo4A O8A 1_555 1_555
Mo5A O9A 1_555 1_555
Mo5A O10A 1_555 1_555
Mo5A O11A 1_555 1_555
Mo5A O16A 1_555 1_555
Mo6A O12A 1_555 1_555
Mo6A O14A 1_555 1_555
Mo6A O15A 1_555 1_555
O25E C1E 1_555 1_555
O29G C8G 1_555 1_555
O31G C14G 1_555 1_555
C5E C6E 1_555 1_555
C6E C7E 1_555 1_555
C12G C13G 1_555 1_555
C13G C14G 1_555 1_555

#END
