
#######################################################################
#
#                 Cambridge Crystallographic Data Centre
#                                CCDC 
#
#######################################################################
#
# If this CIF has been generated from an entry in the Cambridge 
# Structural Database, then it will include bibliographic, chemical, 
# crystal, experimental, refinement or atomic coordinate data resulting 
# from the CCDC's data processing and validation procedures.
#
#######################################################################

data_FORQIN
_chemical_formula_moiety         '(C28 H46 Ge1 Mo12 N4 Nd4 O74 4+)n'
_symmetry_cell_setting           monoclinic
_symmetry_space_group_name_H-M   'C 2/c'
_symmetry_Int_Tables_number      15
_space_group_name_Hall           '-C 2yc'
loop_
_symmetry_equiv_pos_site_id
_symmetry_equiv_pos_as_xyz
1 x,y,z
2 -x,y,1/2-z
3 1/2+x,1/2+y,z
4 1/2-x,1/2+y,1/2-z
5 -x,-y,-z
6 x,-y,1/2+z
7 1/2-x,1/2-y,-z
8 1/2+x,1/2-y,1/2+z
_cell_length_a                   30.573(3)
_cell_length_b                   15.733(2)
_cell_length_c                   22.013(3)
_cell_angle_alpha                90
_cell_angle_beta                 132.965(2)
_cell_angle_gamma                90
_cell_volume                     7748.25
loop_
_atom_site_label
_atom_site_type_symbol
_atom_site_fract_x
_atom_site_fract_y
_atom_site_fract_z
N1 N 0.6335(6) 1.2653(9) -0.4648(8)
N2 N 0.6619(7) 0.9982(9) -0.7416(9)
Nd1 Nd 0.66918(4) 1.12782(6) -0.48532(5)
Nd2 Nd 0.88996(4) 1.36398(6) -0.17437(5)
O24 O 0.7477(5) 1.2300(8) -0.3717(8)
O25 O 0.7769(5) 1.3481(8) -0.2961(7)
O26 O 0.5603(5) 1.1439(8) -0.5692(8)
O27 O 0.4806(6) 1.2160(9) -0.6130(9)
O28 O 0.6229(6) 1.1156(9) -0.7037(8)
O29 O 0.6589(7) 1.0472(9) -0.5890(8)
O30 O 0.6342(7) 1.0300(9) -0.8817(8)
O31 O 0.6726(7) 0.9043(9) -0.8750(9)
O32 O 0.7518(7) 1.0282(11) -0.3885(11)
H1 H 0.7393 0.9778 -0.3945
H2 H 0.7777 1.0289 -0.3922
O33 O 0.7532(6) 1.1620(9) -0.4797(9)
H3 H 0.7852 1.1773 -0.4318
H4 H 0.7601 1.1220 -0.4982
O34 O 0.6344(7) 1.2336(8) -0.6016(8)
H5 H 0.6253 1.2062 -0.6421
H6 H 0.6032 1.2595 -0.6189
O35 O 0.6232(7) 0.9823(8) -0.5135(9)
H7 H 0.6266 0.9501 -0.5412
H8 H 0.6354 0.9573 -0.4701
O36 O 0.8680(6) 1.2204(8) -0.2356(10)
H9 H 0.8855 1.1821 -0.1985
H10 H 0.8306 1.2107 -0.2715
O37 O 0.8408(7) 1.2926(11) -0.1331(11)
H11 H 0.8661 1.2799 -0.0818
H12 H 0.8136 1.3237 -0.1436
O38 O 0.9688(8) 1.3697(12) -0.0129(8)
H13 H 0.9680 1.4162 0.0060
H14 H 0.9660 1.3277 0.0087
O39 O 0.9719(6) 1.4761(9) -0.1241(9)
H15 H 0.9982 1.4700 -0.0717
H16 H 0.9877 1.4569 -0.1414
C1 C 0.7386(7) 1.2989(10) -0.3524(10)
C2 C 0.6734(8) 1.3227(11) -0.4062(11)
C3 C 0.6549(8) 1.3980(12) -0.3958(11)
H19 H 0.6827 1.4375 -0.3557
C4 C 0.5941(9) 1.4125(13) -0.4467(11)
H20 H 0.5806 1.4624 -0.4415
C5 C 0.5533(9) 1.3513(13) -0.5059(12)
H21 H 0.5123 1.3595 -0.5401
C6 C 0.5755(8) 1.2780(11) -0.5123(11)
C7 C 0.5351(7) 1.2068(11) -0.5704(10)
C8 C 0.6505(9) 1.0535(11) -0.6528(11)
C9 C 0.6745(8) 0.9878(12) -0.6715(11)
C10 C 0.7134(9) 0.9241(12) -0.6169(11)
H22 H 0.7215 0.9161 -0.5682
C11 C 0.7402(10) 0.8727(16) -0.6341(14)
H23 H 0.7676 0.8314 -0.5964
C12 C 0.7257(8) 0.8833(12) -0.7077(11)
H24 H 0.7432 0.8499 -0.7211
C13 C 0.6841(8) 0.9455(10) -0.7619(10)
C14 C 0.6615(8) 0.9608(11) -0.8467(11)
N1G N 1.1335(6) 1.2347(9) 0.0352(8)
N1E N 0.6335(6) 0.7347(9) 0.0352(8)
N2E N 0.6619(7) 1.0018(9) -0.2416(9)
N2F N 0.8381(7) 1.5018(9) -0.2584(9)
Nd1E Nd 0.66918(4) 0.87218(6) 0.01468(5)
Nd1E_2 Nd 0.66918(4) 0.87218(6) -0.98532(5)
Nd1G Nd 1.16918(4) 1.37218(6) 0.01468(5)
Nd2F Nd 0.61004(4) 1.13602(6) -0.82563(5)
Nd2G Nd 0.38996(4) 1.13602(6) -0.67437(5)
Nd2C Nd 0.61004(4) 0.86398(6) -0.32563(5)
Nd2G_2 Nd 1.38996(4) 1.13602(6) 0.32563(5)
O24G O 1.2477(5) 1.2700(8) 0.1283(8)
O24E O 0.7477(5) 0.7700(8) 0.1283(8)
O25G O 1.2769(5) 1.1519(8) 0.2039(7)
O25F O 0.7231(5) 1.1519(8) -0.7039(7)
O26G O 1.0603(5) 1.3561(8) -0.0692(8)
O26E O 0.5603(5) 0.8561(8) -0.0692(8)
O27G O 0.9806(6) 1.2840(9) -0.1130(9)
O27A O 0.5194(6) 1.2160(9) -0.8870(9)
O28E O 0.6229(6) 0.8844(9) -0.2037(8)
O28F O 0.8771(6) 1.3844(9) -0.2963(8)
O29E O 0.6589(7) 0.9528(9) -0.0890(8)
O30E O 0.6342(7) 0.9700(9) -0.3817(8)
O30F O 0.8658(7) 1.4700(9) -0.1183(8)
O31E O 0.6726(7) 1.0957(9) -0.3750(9)
O31_2 O 0.6726(7) 0.9043(9) 0.1250(9)
O32E O 0.7518(7) 0.9718(11) 0.1115(11)
H1E H 0.7393 1.0222 0.1055
H2E H 0.7777 0.9711 0.1078
O33E O 0.7532(6) 0.8380(9) 0.0203(9)
H3E H 0.7852 0.8227 0.0682
H4E H 0.7601 0.8780 0.0018
O34E O 0.6344(7) 0.7664(8) -0.1016(8)
H5E H 0.6253 0.7938 -0.1421
H6E H 0.6032 0.7405 -0.1189
O35E O 0.6232(7) 1.0177(8) -0.0135(9)
H7E H 0.6266 1.0499 -0.0412
H8E H 0.6354 1.0427 0.0299
O36F O 0.6320(6) 1.2796(8) -0.7644(10)
H9F H 0.6145 1.3179 -0.8015
H10F H 0.6694 1.2893 -0.7285
O37F O 0.6592(7) 1.2074(11) -0.8669(11)
H11F H 0.6339 1.2201 -0.9182
H12F H 0.6864 1.1763 -0.8564
O38F O 0.5312(8) 1.1303(12) -0.9871(8)
H13F H 0.5320 1.0838 -1.0060
H14F H 0.5340 1.1723 -1.0087
O39F O 0.5281(6) 1.0239(9) -0.8759(9)
H15F H 0.5018 1.0300 -0.9283
H16F H 0.5123 1.0431 -0.8586
C1G C 1.2386(7) 1.2011(10) 0.1476(10)
C2G C 1.1734(8) 1.1773(11) 0.0938(11)
C3G C 1.1549(8) 1.1020(12) 0.1042(11)
H19G H 1.1827 1.0625 0.1443
C4G C 1.0941(9) 1.0875(13) 0.0533(11)
H20G H 1.0806 1.0376 0.0585
C5G C 1.0533(9) 1.1487(13) -0.0059(12)
H21G H 1.0123 1.1405 -0.0401
C6G C 1.0755(8) 1.2220(11) -0.0123(11)
C7G C 1.0351(7) 1.2932(11) -0.0704(10)
C8E C 0.6505(9) 0.9465(11) -0.1528(11)
C9E C 0.6745(8) 1.0122(12) -0.1715(11)
C10E C 0.7134(9) 1.0759(12) -0.1169(11)
H22E H 0.7215 1.0839 -0.0682
C11E C 0.7402(10) 1.1273(16) -0.1341(14)
H23E H 0.7676 1.1686 -0.0964
C12E C 0.7257(8) 1.1167(12) -0.2077(11)
H24E H 0.7432 1.1501 -0.2211
C13E C 0.6841(8) 1.0545(10) -0.2619(10)
C14E C 0.6615(8) 1.0392(11) -0.3467(11)
O40 O 0.7604(9) 0.1447(13) 0.1635(14)
H17 H 0.7979 0.1432 0.1933
H18 H 0.7435 0.1598 0.1147
Ge1 Ge 1.0000 0.86503(16) 0.7500
Mo1 Mo 1.0000 1.09157(17) 0.7500
Mo2 Mo 1.13000(10) 0.9779(2) 0.91005(13)
Mo3 Mo 1.13191(12) 0.75227(15) 0.91011(12)
Mo4 Mo 1.0000 0.6395(2) 0.7500
Mo5 Mo 1.07731(8) 0.75237(13) 0.70832(11)
Mo6 Mo 0.92333(10) 0.97815(13) 0.79143(14)
Mo7 Mo 1.05471(7) 0.86523(12) 0.95245(10)
O1 O 0.9588(12) 0.9575(19) 0.7286(18)
O2 O 1.0597(13) 0.861(2) 0.8529(18)
O3 O 1.0170(13) 0.862(2) 0.6911(18)
O5 O 1.0745(8) 1.0809(14) 0.8551(12)
O6 O 1.1625(7) 0.8626(12) 0.9340(11)
O7 O 1.0985(8) 0.9506(12) 0.9536(11)
O8 O 1.0671(10) 0.6694(12) 0.8506(12)
O9 O 1.1062(8) 0.7809(11) 0.9672(11)
O10 O 1.0389(10) 0.6582(13) 0.7078(12)
O11 O 1.1054(8) 0.8656(11) 0.7210(11)
O12 O 1.0055(8) 0.7788(11) 0.5976(12)
O13 O 1.0328(8) 1.0669(13) 0.7042(12)
O14 O 0.9930(8) 0.9490(11) 0.9012(12)
O15 O 1.1320(9) 0.7486(12) 0.8238(11)
O16 O 1.1375(9) 0.9928(14) 0.8303(12)
O18 O 1.1908(7) 1.0332(10) 0.9860(10)
O19 O 1.1917(10) 0.6966(16) 0.9864(12)
O20 O 1.0000 0.5354(15) 0.7500
O21 O 1.1107(8) 0.7008(13) 0.6846(11)
O22 O 0.8837(7) 1.0312(11) 0.8059(10)
O23 O 1.0797(8) 0.8654(10) 1.0466(9)
Mo2A Mo 0.87000(10) 0.9779(2) 0.58995(13)
Mo3A Mo 0.86809(12) 0.75227(15) 0.58989(12)
Mo5A Mo 0.92269(8) 0.75237(13) 0.79168(11)
Mo6A Mo 1.07667(10) 0.97815(13) 0.70857(14)
Mo7A Mo 0.94529(7) 0.86523(12) 0.54755(10)
O1A O 1.0412(12) 0.9575(19) 0.7714(18)
O2A O 0.9403(13) 0.861(2) 0.6471(18)
O3A O 0.9830(13) 0.862(2) 0.8089(18)
O5A O 0.9255(8) 1.0809(14) 0.6449(12)
O6A O 0.8375(7) 0.8626(12) 0.5660(11)
O7A O 0.9015(8) 0.9506(12) 0.5464(11)
O8A O 0.9329(10) 0.6694(12) 0.6494(12)
O9A O 0.8938(8) 0.7809(11) 0.5328(11)
O10A O 0.9611(10) 0.6582(13) 0.7922(12)
O11A O 0.8946(8) 0.8656(11) 0.7790(11)
O12A O 0.9945(8) 0.7788(11) 0.9024(12)
O13A O 0.9672(8) 1.0669(13) 0.7958(12)
O14A O 1.0070(8) 0.9490(11) 0.5988(12)
O15A O 0.8680(9) 0.7486(12) 0.6762(11)
O16A O 0.8625(9) 0.9928(14) 0.6697(12)
O18A O 0.8092(7) 1.0332(10) 0.5140(10)
O19A O 0.8083(10) 0.6966(16) 0.5136(12)
O21A O 0.8893(8) 0.7008(13) 0.8154(11)
O22A O 1.1163(7) 1.0312(11) 0.6941(10)
O23A O 0.9203(8) 0.8654(10) 0.4534(9)
loop_
_geom_bond_atom_site_label_1
_geom_bond_atom_site_label_2
_geom_bond_site_symmetry_1
_geom_bond_site_symmetry_2
Ge1 O1 1_555 1_555
Mo1 O1 1_555 1_555
Mo2 O2 1_555 1_555
Mo3 O2 1_555 1_555
Mo4 O8 1_555 1_555
Mo5 O3 1_555 1_555
Mo6 O1 1_555 1_555
Mo7 O2 1_555 1_555
N1 Nd1 1_555 1_555
N2 C9 1_555 1_555
Nd1 O24 1_555 1_555
Nd2 O25 1_555 1_555
O1 Mo2A 1_555 1_555
O2 Ge1 1_555 1_555
O3 Ge1 1_555 1_555
O5 Mo1 1_555 1_555
O6 Mo2 1_555 1_555
O7 Mo2 1_555 1_555
O8 Mo3 1_555 1_555
O9 Mo3 1_555 1_555
O10 Mo4 1_555 1_555
O11 Mo5 1_555 1_555
O12 Mo5 1_555 1_555
O13 Mo1 1_555 1_555
O14 Mo6 1_555 1_555
O15 Mo3 1_555 1_555
O16 Mo2 1_555 1_555
O18 Mo2 1_555 1_555
O19 Mo3 1_555 1_555
O20 Mo4 1_555 1_555
O21 Mo5 1_555 1_555
O22 Mo6 1_555 1_555
O23 Mo7 1_555 1_555
O24 C1 1_555 1_555
O25 C1 1_555 1_555
O26 Nd1 1_555 1_555
O27 C7 1_555 1_555
O28 C8 1_555 1_555
O29 Nd1 1_555 1_555
O30 C14 1_555 1_555
O31 C14 1_555 1_555
O32 Nd1 1_555 1_555
H1 O32 1_555 1_555
H2 O32 1_555 1_555
O33 Nd1 1_555 1_555
H3 O33 1_555 1_555
H4 O33 1_555 1_555
O34 Nd1 1_555 1_555
H5 O34 1_555 1_555
H6 O34 1_555 1_555
O35 Nd1 1_555 1_555
H7 O35 1_555 1_555
H8 O35 1_555 1_555
O36 Nd2 1_555 1_555
H9 O36 1_555 1_555
H10 O36 1_555 1_555
O37 Nd2 1_555 1_555
H11 O37 1_555 1_555
H12 O37 1_555 1_555
O38 Nd2 1_555 1_555
H13 O38 1_555 1_555
H14 O38 1_555 1_555
O39 Nd2 1_555 1_555
H15 O39 1_555 1_555
H16 O39 1_555 1_555
O40 H17 1_555 1_555
H18 O40 1_555 1_555
C1 C2 1_555 1_555
C2 N1 1_555 1_555
C3 C2 1_555 1_555
H19 C3 1_555 1_555
C4 C3 1_555 1_555
H20 C4 1_555 1_555
C5 C4 1_555 1_555
H21 C5 1_555 1_555
C6 N1 1_555 1_555
C7 O26 1_555 1_555
C8 O29 1_555 1_555
C9 C8 1_555 1_555
C10 C9 1_555 1_555
H22 C10 1_555 1_555
C11 C10 1_555 1_555
H23 C11 1_555 1_555
C12 C11 1_555 1_555
H24 C12 1_555 1_555
C13 N2 1_555 1_555
C14 C13 1_555 1_555
Mo2A O2A 1_555 1_555
Mo3A O2A 1_555 1_555
Mo5A O3A 1_555 1_555
Mo6A O3 1_555 1_555
Mo7A O3 1_555 1_555
N1G Nd1G 1_555 1_555
N1E Nd1E 1_555 1_555
N2E Nd2C 1_555 1_555
N2F Nd2 1_555 1_555
Nd1E O24E 1_555 1_555
Nd1E_2 O31 1_555 1_555
Nd1G O24G 1_555 1_555
Nd2F N2 1_555 1_555
Nd2G O27 1_555 1_555
Nd2C O28E 1_555 1_555
Nd2G_2 O25G 1_555 1_555
O1A Ge1 1_555 1_555
O2A Ge1 1_555 1_555
O3A Ge1 1_555 1_555
O5A Mo1 1_555 1_555
O6A Mo2A 1_555 1_555
O7A Mo2A 1_555 1_555
O8A Mo4 1_555 1_555
O9A Mo3A 1_555 1_555
O10A Mo4 1_555 1_555
O11A Mo6 1_555 1_555
O12A Mo7 1_555 1_555
O13A Mo1 1_555 1_555
O14A Mo6A 1_555 1_555
O15A Mo3A 1_555 1_555
O16A Mo6 1_555 1_555
O18A Mo2A 1_555 1_555
O19A Mo3A 1_555 1_555
O21A Mo5A 1_555 1_555
O22A Mo6A 1_555 1_555
O23A Mo7A 1_555 1_555
O24G C1G 1_555 1_555
O25G C1G 1_555 1_555
O25F Nd2F 1_555 1_555
O26G Nd1G 1_555 1_555
O26E Nd1E 1_555 1_555
O27G Nd2 1_555 1_555
O27A Nd2F 1_555 1_555
O28E C8E 1_555 1_555
O28F Nd2 1_555 1_555
O29E Nd1E 1_555 1_555
O30E Nd2C 1_555 1_555
O30F Nd2 1_555 1_555
O31E Nd1 1_555 1_555
O31_2 Nd1E 1_555 1_555
O32E Nd1E 1_555 1_555
H1E O32E 1_555 1_555
H2E O32E 1_555 1_555
O33E Nd1E 1_555 1_555
H3E O33E 1_555 1_555
H4E O33E 1_555 1_555
O34E Nd1E 1_555 1_555
H5E O34E 1_555 1_555
H6E O34E 1_555 1_555
O35E Nd1E 1_555 1_555
H7E O35E 1_555 1_555
H8E O35E 1_555 1_555
O36F Nd2F 1_555 1_555
H9F O36F 1_555 1_555
H10F O36F 1_555 1_555
O37F Nd2F 1_555 1_555
H11F O37F 1_555 1_555
H12F O37F 1_555 1_555
O38F Nd2F 1_555 1_555
H13F O38F 1_555 1_555
H14F O38F 1_555 1_555
O39F Nd2F 1_555 1_555
H15F O39F 1_555 1_555
H16F O39F 1_555 1_555
C1G C2G 1_555 1_555
C2G N1G 1_555 1_555
C3G C2G 1_555 1_555
H19G C3G 1_555 1_555
C4G C3G 1_555 1_555
H20G C4G 1_555 1_555
C5G C4G 1_555 1_555
H21G C5G 1_555 1_555
C6G N1G 1_555 1_555
C7G O26G 1_555 1_555
C8E O29E 1_555 1_555
C9E N2E 1_555 1_555
C10E C9E 1_555 1_555
H22E C10E 1_555 1_555
C11E C10E 1_555 1_555
H23E C11E 1_555 1_555
C12E C11E 1_555 1_555
H24E C12E 1_555 1_555
C13E N2E 1_555 1_555
C14E O30E 1_555 1_555
Mo1 O1A 1_555 1_555
Mo2 O5 1_555 1_555
Mo2 O1A 1_555 1_555
Mo3 O6 1_555 1_555
Mo5 O10 1_555 1_555
Mo5 O15 1_555 1_555
Mo6 O3A 1_555 1_555
Mo6 O13A 1_555 1_555
Mo7 O7 1_555 1_555
Mo7 O9 1_555 1_555
Mo7 O14 1_555 1_555
Mo7 O3A 1_555 1_555
O11 Mo6A 1_555 1_555
O12 Mo7A 1_555 1_555
O13 Mo6A 1_555 1_555
O16 Mo6A 1_555 1_555
O28 Nd2F 1_555 1_555
O30 Nd2F 1_555 1_555
C5 C6 1_555 1_555
C6 C7 1_555 1_555
C12 C13 1_555 1_555
Mo2A O5A 1_555 1_555
Mo2A O16A 1_555 1_555
Mo3A O6A 1_555 1_555
Mo3A O8A 1_555 1_555
Mo5A O10A 1_555 1_555
Mo5A O11A 1_555 1_555
Mo5A O12A 1_555 1_555
Mo5A O15A 1_555 1_555
Mo6A O1A 1_555 1_555
Mo7A O2A 1_555 1_555
Mo7A O7A 1_555 1_555
Mo7A O9A 1_555 1_555
Mo7A O14A 1_555 1_555
O27G C7G 1_555 1_555
O31E C14E 1_555 1_555
C5G C6G 1_555 1_555
C6G C7G 1_555 1_555
C8E C9E 1_555 1_555
C12E C13E 1_555 1_555
C13E C14E 1_555 1_555

#END
