
#######################################################################
#
#                 Cambridge Crystallographic Data Centre
#                                CCDC 
#
#######################################################################
#
# If this CIF has been generated from an entry in the Cambridge 
# Structural Database, then it will include bibliographic, chemical, 
# crystal, experimental, refinement or atomic coordinate data resulting 
# from the CCDC's data processing and validation procedures.
#
#######################################################################

data_FORQAF
_chemical_formula_moiety         '(C28 H48 Ge1 La4 Mo12 N4 O74)n'
_symmetry_cell_setting           monoclinic
_symmetry_space_group_name_H-M   'C c'
_symmetry_Int_Tables_number      9
_space_group_name_Hall           'C -2yc'
loop_
_symmetry_equiv_pos_site_id
_symmetry_equiv_pos_as_xyz
1 x,y,z
2 x,-y,1/2+z
3 1/2+x,1/2+y,z
4 1/2+x,1/2-y,1/2+z
_cell_length_a                   30.846(3)
_cell_length_b                   15.7730(17)
_cell_length_c                   22.189(2)
_cell_angle_alpha                90
_cell_angle_beta                 133.134(2)
_cell_angle_gamma                90
_cell_volume                     7878.24
loop_
_atom_site_label
_atom_site_type_symbol
_atom_site_fract_x
_atom_site_fract_y
_atom_site_fract_z
_atom_site_U_iso_or_equiv
_atom_site_thermal_displace_type
Ge1 Ge 0.51712(16) 0.86440(10) 0.9701(2) 0.0163 Uani
Mo1 Mo 0.57310(11) 0.86707(14) 1.17209(15) 0.0247 Uani
Mo2 Mo 0.65129(11) 0.96112(18) 1.13320(15) 0.0402 Uani
Mo3 Mo 0.58859(12) 0.97633(16) 0.92206(17) 0.0345 Uani
Mo4 Mo 0.46373(11) 0.86132(14) 0.76906(14) 0.0248 Uani
Mo5 Mo 0.38134(13) 0.75603(16) 0.81192(16) 0.0492 Uani
Mo6 Mo 0.44083(12) 0.74724(17) 1.01013(15) 0.0353 Uani
Mo7 Mo 0.43669(13) 0.97792(17) 1.00427(17) 0.0367 Uani
Mo8 Mo 0.51711(14) 1.09014(11) 0.9779(2) 0.0480 Uani
Mo9 Mo 0.39230(11) 0.99216(18) 0.81454(15) 0.0395 Uani
Mo10 Mo 0.64363(13) 0.74786(16) 1.13072(16) 0.0475 Uani
Mo11 Mo 0.59382(11) 0.75683(17) 0.92743(15) 0.0334 Uani
Mo12 Mo 0.50171(12) 0.63975(12) 0.94965(15) 0.0406 Uani
O1 O 0.5774(7) 0.8593(10) 1.0716(10) 0.0310 Uani
O2 O 0.5336(7) 0.8646(9) 0.9116(10) 0.0260 Uani
O3 O 0.4704(8) 0.7773(10) 0.9425(10) 0.0325 Uani
O4 O 0.4756(7) 0.9560(10) 0.9472(10) 0.0322 Uani
O5 O 0.6330(8) 0.9431(11) 1.2017(10) 0.0318 Uani
O6 O 0.6397(7) 0.9586(10) 1.0408(10) 0.0306 Uani
O7 O 0.5261(8) 0.9473(11) 0.8085(10) 0.0311 Uani
O8 O 0.4195(8) 0.7857(11) 0.7726(11) 0.0311 Uani
O9 O 0.3689(9) 0.7397(12) 0.8850(11) 0.0448 Uani
O10 O 0.5131(8) 0.7808(11) 1.1064(11) 0.0355 Uani
O11 O 0.5127(8) 0.9488(11) 1.1067(10) 0.0345 Uani
O12 O 0.5841(7) 1.0440(11) 1.0733(10) 0.0335 Uani
O13 O 0.5439(7) 1.0481(11) 0.9244(10) 0.0319 Uani
O14 O 0.4283(8) 0.9510(10) 0.7808(11) 0.0320 Uani
O15 O 0.3668(8) 0.8731(10) 0.8054(11) 0.0353 Uani
O16 O 0.4161(9) 0.8660(11) 0.9893(11) 0.0353 Uani
O17 O 0.6277(8) 0.7748(12) 1.1992(11) 0.0335 Uani
O18 O 0.6885(8) 0.8535(11) 1.1689(10) 0.0310 Uani
O19 O 0.6249(8) 0.8624(11) 0.9312(11) 0.0332 Uani
O20 O 0.5218(8) 0.7779(11) 0.8046(11) 0.0327 Uani
O21 O 0.4225(9) 0.6492(11) 0.8478(11) 0.0394 Uani
O22 O 0.4660(8) 0.6410(11) 1.0015(11) 0.0391 Uani
O23 O 0.4748(8) 1.0859(11) 1.0148(11) 0.0416 Uani
O24 O 0.4396(8) 1.0937(11) 0.8648(11) 0.0350 Uani
O25 O 0.3749(8) 1.0078(11) 0.8859(11) 0.0382 Uani
O26 O 0.6368(8) 0.7547(11) 1.0373(10) 0.0322 Uani
O27 O 0.5356(8) 0.6815(10) 0.9149(10) 0.0334 Uani
O28 O 0.5760(8) 0.6751(11) 1.0643(10) 0.0346 Uani
O29 O 0.5886(10) 0.8655(11) 1.2581(12) 0.0380 Uani
O30 O 0.7073(9) 1.0273(12) 1.2002(12) 0.0440 Uani
O31 O 0.6309(9) 1.0351(13) 0.9167(13) 0.0392 Uani
O32 O 0.4278(10) 0.8626(11) 0.6676(13) 0.0409 Uani
O33 O 0.3144(8) 0.7232(12) 0.7252(11) 0.0422 Uani
O34 O 0.4072(10) 0.7109(13) 1.0384(14) 0.0522 Uani
O35 O 0.4009(10) 1.0229(13) 1.0268(13) 0.0456 Uani
O36 O 0.5335(8) 1.1934(10) 0.9916(11) 0.0440 Uani
O37 O 0.3275(9) 1.0336(12) 0.7299(13) 0.0414 Uani
O38 O 0.6982(8) 0.6764(11) 1.1948(11) 0.0409 Uani
O39 O 0.6267(9) 0.6894(12) 0.9084(12) 0.0402 Uani
O40 O 0.5137(13) 0.5342(10) 0.9607(17) 0.0608 Uani
La1 La 0.62790(6) 0.36364(8) 0.89285(8) 0.0173 Uani
La2 La 0.68660(6) 0.62839(8) 0.73405(8) 0.0162 Uani
La3 La 0.84739(6) 0.12942(8) 1.20544(8) 0.0155 Uani
La4 La 0.90824(6) 0.13748(8) 1.54918(8) 0.0172 Uani
N1 N 0.6801(9) 0.5050(14) 0.9769(13) 0.0213 Uani
N2 N 0.6504(9) 0.7686(14) 0.7561(13) 0.0227 Uani
N3 N 0.8831(9) 0.2691(13) 1.1827(12) 0.0192 Uani
N4 N 0.8578(9) -0.0030(14) 1.4632(12) 0.0199 Uani
O41 O 0.6505(9) 0.4760(11) 0.8378(12) 0.0346 Uani
O42 O 0.6893(8) 0.5962(12) 0.8446(11) 0.0281 Uani
O43 O 0.6440(8) 0.3875(11) 1.0205(11) 0.0238 Uani
O44 O 0.6761(9) 0.4562(12) 1.1278(11) 0.0321 Uani
O45 O 0.7644(8) 0.7343(12) 0.8477(11) 0.0276 Uani
O46 O 0.7915(9) 0.8489(12) 0.9237(12) 0.0293 Uani
O47 O 0.5772(9) 0.6485(11) 0.6514(12) 0.0300 Uani
O48 O 0.4977(8) 0.7185(11) 0.6105(11) 0.0299 Uani
O49 O 0.7702(8) 0.2346(12) 1.0927(11) 0.0254 Uani
O50 O 0.7401(8) 0.3496(11) 1.0130(12) 0.0277 Uani
O51 O 0.9574(8) 0.1453(11) 1.2882(12) 0.0275 Uani
O52 O 1.0355(8) 0.2194(12) 1.3317(11) 0.0314 Uani
O53 O 0.8967(9) 0.1150(11) 1.4277(11) 0.0266 Uani
O54 O 0.8583(8) 0.0459(11) 1.3092(10) 0.0227 Uani
O55 O 0.8838(8) 0.0257(10) 1.6025(10) 0.0255 Uani
O56 O 0.8408(9) -0.0988(11) 1.5900(11) 0.0254 Uani
O57 O 0.5432(8) 0.4760(11) 0.8440(11) 0.0296 Uani
H1 H 0.5098 0.4514 0.8158 0.0350 Uiso
H2 H 0.5401 0.5145 0.8145 0.0350 Uiso
O58 O 0.6772(10) 0.2904(14) 0.8502(14) 0.0473 Uani
H3 H 0.7044 0.3209 0.8608 0.0570 Uiso
H4 H 0.6519 0.2782 0.7991 0.0570 Uiso
O59 O 0.6520(10) 0.2183(13) 0.9568(13) 0.0482 Uani
H5 H 0.6892 0.2091 0.9924 0.0570 Uiso
H6 H 0.6346 0.1793 0.9207 0.0570 Uiso
O60 O 0.5445(10) 0.3734(13) 0.7243(13) 0.0420 Uani
H7 H 0.5477 0.3333 0.7019 0.0510 Uiso
H8 H 0.5450 0.4210 0.7067 0.0510 Uiso
O61 O 0.6330(8) 0.4845(11) 0.6997(11) 0.0284 Uani
H9 H 0.6368 0.4697 0.7399 0.0350 Uiso
H10 H 0.6495 0.4468 0.6936 0.0350 Uiso
O62 O 0.7688(10) 0.5228(14) 0.8310(14) 0.0497 Uani
H11 H 0.7951 0.5233 0.8286 0.0600 Uiso
H12 H 0.7558 0.4727 0.8239 0.0600 Uiso
O63 O 0.6508(9) 0.7313(12) 0.6124(12) 0.0372 Uani
H13 H 0.6194 0.7569 0.5936 0.0450 Uiso
H14 H 0.6426 0.7023 0.5734 0.0450 Uiso
O64 O 0.7713(8) 0.6592(12) 0.7379(12) 0.0310 Uani
H15 H 0.7647 0.7034 0.7109 0.0370 Uiso
H16 H 0.7782 0.6173 0.7214 0.0370 Uiso
O65 O 0.7600(8) 0.1651(11) 1.1944(12) 0.0303 Uani
H17 H 0.7376 0.2035 1.1588 0.0370 Uiso
H18 H 0.7395 0.1216 1.1838 0.0370 Uiso
O66 O 0.8835(8) 0.2371(11) 1.3212(10) 0.0234 Uani
H19 H 0.9122 0.2660 1.3343 0.0290 Uiso
H20 H 0.8553 0.2709 1.3028 0.0290 Uiso
O67 O 0.7591(9) 0.0290(13) 1.1032(13) 0.0447 Uani
H21 H 0.7704 -0.0219 1.1087 0.0540 Uiso
H22 H 0.7338 0.0310 1.1077 0.0540 Uiso
O68 O 0.8893(9) -0.0198(11) 1.2296(12) 0.0322 Uani
H23 H 0.8828 -0.0529 1.2529 0.0380 Uiso
H24 H 0.8784 -0.0425 1.1863 0.0380 Uiso
O69 O 0.8571(9) 0.2063(13) 1.5917(12) 0.0415 Uani
H25 H 0.8602 0.2599 1.5954 0.0500 Uiso
H26 H 0.8211 0.1911 1.5618 0.0500 Uiso
O70 O 0.8821(9) 0.2835(13) 1.4827(13) 0.0457 Uani
H27 H 0.8447 0.2916 1.4468 0.0550 Uiso
H28 H 0.8988 0.3225 1.5189 0.0550 Uiso
O71 O 0.9852(11) 0.1291(13) 1.7094(13) 0.0480 Uani
H29 H 0.9812 0.1784 1.7205 0.0580 Uiso
H30 H 0.9614 0.0967 1.7057 0.0580 Uiso
O72 O 0.9927(9) 0.0242(12) 1.5990(12) 0.0388 Uani
H31 H 0.9783 -0.0154 1.5639 0.0470 Uiso
H32 H 1.0208 0.0481 1.6066 0.0470 Uiso
C1 C 0.6806(11) 0.5430(16) 0.8749(15) 0.0219 Uani
C2 C 0.7024(12) 0.5551(17) 0.9599(15) 0.0254 Uani
C3 C 0.7421(14) 0.6212(17) 1.0129(17) 0.0283 Uani
H37 H 0.7547 0.6600 0.9960 0.0330 Uiso
C4 C 0.7614(14) 0.6266(16) 1.0897(18) 0.0284 Uani
H38 H 0.7931 0.6612 1.1308 0.0340 Uiso
C5 C 0.7315(13) 0.5784(17) 1.1028(17) 0.0284 Uani
H39 H 0.7366 0.5890 1.1485 0.0340 Uiso
C6 C 0.6938(12) 0.5140(16) 1.0486(15) 0.0222 Uani
C7 C 0.6675(12) 0.4474(16) 1.0662(16) 0.0241 Uani
C8 C 0.7539(12) 0.8005(16) 0.8660(16) 0.0241 Uani
C9 C 0.6890(12) 0.8274(16) 0.8104(16) 0.0225 Uani
C10 C 0.6719(13) 0.8996(17) 0.8237(17) 0.0286 Uani
H40 H 0.7003 0.9383 0.8636 0.0340 Uiso
C11 C 0.6119(12) 0.9149(17) 0.7772(17) 0.0283 Uani
H41 H 0.5993 0.9632 0.7855 0.0340 Uiso
C12 C 0.5723(13) 0.8562(15) 0.7190(17) 0.0231 Uani
H42 H 0.5317 0.8644 0.6861 0.0280 Uiso
C13 C 0.5934(11) 0.7820(16) 0.7088(15) 0.0221 Uani
C14 C 0.5522(12) 0.7121(16) 0.6490(17) 0.0250 Uani
C15 C 0.7795(11) 0.3040(15) 1.0726(15) 0.0212 Uani
C16 C 0.8434(11) 0.3250(16) 1.1220(15) 0.0185 Uani
C17 C 0.8622(12) 0.4007(16) 1.1146(16) 0.0219 Uani
H43 H 0.8354 0.4411 1.0752 0.0270 Uiso
C18 C 0.9225(11) 0.4131(15) 1.1681(15) 0.0190 Uani
H44 H 0.9359 0.4639 1.1644 0.0220 Uiso
C19 C 0.9647(12) 0.3549(15) 1.2274(17) 0.0220 Uani
H45 H 1.0053 0.3646 1.2622 0.0270 Uiso
C20 C 0.9420(11) 0.2814(15) 1.2309(15) 0.0199 Uani
C21 C 0.9814(11) 0.2115(15) 1.2873(16) 0.0215 Uani
C22 C 0.8679(11) 0.0523(16) 1.3743(16) 0.0227 Uani
C23 C 0.8422(11) -0.0119(16) 1.3902(15) 0.0198 Uani
C24 C 0.8035(12) -0.0746(16) 1.3354(16) 0.0255 Uani
H46 H 0.7924 -0.0797 1.2846 0.0310 Uiso
C25 C 0.7814(13) -0.1307(15) 1.3582(17) 0.0244 Uani
H47 H 0.7592 -0.1777 1.3257 0.0300 Uiso
C26 C 0.7931(13) -0.1150(17) 1.4305(16) 0.0260 Uani
H48 H 0.7738 -0.1457 1.4420 0.0310 Uiso
C27 C 0.8324(11) -0.0553(15) 1.4823(14) 0.0160 Uani
C28 C 0.8549(12) -0.0418(16) 1.5653(15) 0.0221 Uani
La1C La 1.12790(6) 0.13636(8) 1.39285(8) 0.0173 Uani
La2A La 0.68660(6) 0.37161(8) 1.23405(8) 0.0162 Uani
La3A La 0.84739(6) -0.12942(8) 1.70544(8) 0.0155 Uani
La4A La 0.90824(6) 0.86252(8) 1.04918(8) 0.0172 Uani
La4B La 0.40824(6) 0.63748(8) 0.54918(8) 0.0172 Uani
O44A O 0.6761(9) 0.5438(12) 0.6278(11) 0.0321 Uani
O46A O 0.7915(9) 0.1511(12) 1.4237(12) 0.0293 Uani
O48B O 0.9977(8) 0.2185(11) 1.6105(11) 0.0299 Uani
O52C O 0.5355(8) 0.2806(12) 0.8317(11) 0.0314 Uani
O56A O 0.8408(9) 0.0988(11) 1.0900(11) 0.0254 Uani
O73 O 0.7776(12) 0.3555(14) 0.8847(16) 0.0688 Uani
H33 H 0.8142 0.3581 0.9103 0.0820 Uiso
H34 H 0.7577 0.3469 0.8338 0.0820 Uiso
O74 O 0.7549(13) 0.1426(18) 0.563(2) 0.0909 Uani
H35 H 0.7172 0.1438 0.5278 0.1030 Uiso
H36 H 0.7681 0.1667 0.6068 0.1030 Uiso
loop_
_atom_site_aniso_label
_atom_site_aniso_U_11
_atom_site_aniso_U_22
_atom_site_aniso_U_33
_atom_site_aniso_U_23
_atom_site_aniso_U_13
_atom_site_aniso_U_12
Ge1 0.0186(9) 0.0161(7) 0.0157(9) 0.0003(12) 0.0123(8) -0.0006(13)
Mo1 0.0206(12) 0.0371(13) 0.0127(11) 0.0012(9) 0.0099(10) 0.0045(10)
Mo2 0.0212(12) 0.0713(17) 0.0215(12) -0.0133(12) 0.0120(11) -0.0238(12)
Mo3 0.0440(15) 0.0356(14) 0.0443(15) 0.0013(11) 0.0381(14) -0.0056(11)
Mo4 0.0251(13) 0.0342(13) 0.0147(12) -0.0019(9) 0.0134(11) -0.0036(10)
Mo5 0.0423(16) 0.0337(13) 0.0161(12) 0.0041(10) -0.0016(12) -0.0247(12)
Mo6 0.0314(14) 0.0524(16) 0.0245(13) 0.0007(11) 0.0200(12) -0.0135(12)
Mo7 0.0468(16) 0.0402(14) 0.0433(15) -0.0017(11) 0.0387(14) 0.0054(12)
Mo8 0.0188(9) 0.0151(8) 0.0625(17) -0.0014(12) 0.0092(10) -0.0004(12)
Mo9 0.0234(12) 0.0699(17) 0.0204(12) 0.0159(11) 0.0131(11) 0.0230(12)
Mo10 0.0420(16) 0.0348(13) 0.0172(12) -0.0009(10) 0.0013(12) 0.0233(12)
Mo11 0.0319(14) 0.0473(15) 0.0248(13) 0.0002(11) 0.0209(12) 0.0114(12)
Mo12 0.0526(19) 0.0184(9) 0.0426(18) 0.0006(9) 0.0293(15) -0.0006(10)
O1 0.028(9) 0.034(9) 0.024(9) -0.003(7) 0.015(8) 0.000(7)
O2 0.029(9) 0.033(8) 0.025(8) 0.000(7) 0.022(8) 0.003(7)
O3 0.033(10) 0.033(8) 0.026(9) -0.001(7) 0.018(8) -0.004(8)
O4 0.028(9) 0.034(9) 0.030(9) 0.001(7) 0.018(8) 0.002(7)
O5 0.028(10) 0.037(9) 0.025(9) -0.003(8) 0.016(8) -0.003(8)
O6 0.028(9) 0.038(9) 0.028(9) -0.001(7) 0.020(8) -0.001(7)
O7 0.029(10) 0.034(9) 0.030(10) 0.001(7) 0.020(9) 0.001(8)
O8 0.031(10) 0.034(9) 0.028(10) 0.004(8) 0.020(9) -0.001(8)
O9 0.041(12) 0.039(10) 0.029(10) -0.001(8) 0.014(10) -0.005(9)
O10 0.030(10) 0.036(9) 0.028(10) -0.001(8) 0.015(9) -0.001(8)
O11 0.028(10) 0.033(9) 0.030(10) -0.002(8) 0.015(9) 0.002(8)
O12 0.026(9) 0.037(9) 0.031(10) -0.001(8) 0.017(8) 0.001(8)
O13 0.027(9) 0.040(10) 0.030(9) 0.000(8) 0.020(8) 0.003(8)
O14 0.030(10) 0.034(9) 0.029(9) 0.003(8) 0.019(9) 0.001(8)
O15 0.033(11) 0.035(9) 0.028(11) 0.006(8) 0.017(10) -0.002(8)
O16 0.030(10) 0.038(10) 0.028(11) 0.000(8) 0.016(9) -0.003(8)
O17 0.028(10) 0.037(10) 0.025(10) -0.004(8) 0.014(9) 0.001(8)
O18 0.026(10) 0.041(10) 0.025(10) -0.007(8) 0.017(9) -0.003(8)
O19 0.030(10) 0.035(9) 0.029(10) -0.001(8) 0.018(9) 0.001(8)
O20 0.031(10) 0.035(9) 0.030(10) 0.000(8) 0.020(9) 0.001(8)
O21 0.041(11) 0.035(10) 0.028(10) 0.001(8) 0.018(9) -0.004(9)
O22 0.038(11) 0.035(9) 0.029(10) 0.001(8) 0.017(9) -0.008(8)
O23 0.031(11) 0.040(10) 0.036(11) 0.001(9) 0.016(9) 0.005(9)
O24 0.029(10) 0.040(9) 0.033(10) 0.003(8) 0.020(9) 0.006(8)
O25 0.031(10) 0.042(10) 0.035(11) 0.001(8) 0.020(9) 0.004(9)
O26 0.032(10) 0.037(9) 0.023(9) 0.000(7) 0.017(9) -0.003(8)
O27 0.035(10) 0.033(9) 0.024(9) 0.000(7) 0.017(8) -0.001(8)
O28 0.033(10) 0.034(9) 0.026(10) 0.000(7) 0.016(9) -0.004(8)
O29 0.045(13) 0.035(11) 0.023(10) 0.003(8) 0.019(10) 0.000(9)
O30 0.026(11) 0.041(11) 0.028(11) 0.009(9) 0.004(9) -0.013(9)
O31 0.033(12) 0.049(12) 0.035(12) 0.004(9) 0.023(10) -0.011(10)
O32 0.051(14) 0.033(11) 0.020(10) -0.001(8) 0.017(10) -0.002(9)
O33 0.034(11) 0.051(11) 0.035(11) 0.005(9) 0.021(9) -0.013(9)
O34 0.034(12) 0.050(12) 0.046(13) 0.008(10) 0.017(11) -0.030(10)
O35 0.036(12) 0.053(13) 0.036(12) -0.005(10) 0.020(11) 0.021(10)
O36 0.038(12) 0.026(8) 0.039(13) -0.003(7) 0.015(10) 0.000(7)
O37 0.024(10) 0.038(11) 0.037(12) -0.005(9) 0.011(9) 0.009(9)
O38 0.035(11) 0.043(10) 0.028(10) 0.003(8) 0.015(9) 0.008(9)
O39 0.040(12) 0.039(10) 0.024(10) -0.002(8) 0.015(9) 0.012(9)
O40 0.045(11) 0.028(8) 0.055(14) 0.004(11) 0.013(11) -0.006(12)
La1 0.0123(7) 0.0232(7) 0.0116(7) -0.0015(5) 0.0063(6) -0.0025(6)
La2 0.0145(7) 0.0207(7) 0.0152(8) 0.0022(5) 0.0109(7) 0.0019(6)
La3 0.0158 0.0198 0.0133 -0.0001 0.0109 -0.0012
La4 0.0129 0.0203 0.0144 -0.0017 0.0078 -0.0022
N1 0.025(11) 0.028(10) 0.016(10) 0.000(9) 0.016(10) 0.000(10)
N2 0.021(12) 0.027(11) 0.020(12) 0.003(9) 0.014(10) 0.000(10)
N3 0.015 0.027 0.019 0.002 0.013 -0.001
N4 0.024 0.025 0.015 0 0.015 -0.004
O41 0.032(11) 0.034(11) 0.023(10) -0.002(8) 0.013(9) -0.006(9)
O42 0.027(11) 0.030(10) 0.021(10) 0.001(8) 0.014(9) -0.002(8)
O43 0.026(10) 0.031(9) 0.016(9) -0.001(8) 0.015(8) -0.005(8)
O44 0.037(12) 0.034(10) 0.018(10) 0.000(8) 0.016(9) 0.000(9)
O45 0.020(10) 0.029(10) 0.025(10) -0.001(8) 0.012(9) 0.000(8)
O46 0.023(11) 0.029(9) 0.022(10) 0.001(8) 0.010(9) 0.000(9)
O47 0.021(10) 0.025(9) 0.026(11) 0.000(8) 0.009(9) 0.000(8)
O48 0.020(10) 0.029(10) 0.026(10) 0.004(8) 0.010(9) 0.001(8)
O49 0.017 0.03 0.024 0.002 0.012 0
O50 0.014 0.029 0.023 0 0.006 0.001
O51 0.019 0.03 0.024 0.005 0.011 -0.002
O52 0.014 0.034 0.029 -0.001 0.008 0.001
O53 0.027 0.028 0.017 0.001 0.012 -0.007
O54 0.029 0.033 0.013 0 0.017 -0.005
O55 0.032 0.03 0.016 -0.002 0.017 -0.006
O56 0.032 0.031 0.018 0.001 0.019 -0.006
O57 0.026(10) 0.031(10) 0.024(10) -0.002(8) 0.014(9) 0.000(8)
O58 0.032(12) 0.048(13) 0.044(14) -0.015(10) 0.019(11) -0.005(10)
O59 0.030(12) 0.028(11) 0.043(13) -0.002(9) 0.008(11) -0.003(9)
O60 0.035(13) 0.041(12) 0.024(12) 0.006(8) 0.010(11) -0.005(9)
O61 0.034(10) 0.027(9) 0.027(10) 0.003(8) 0.022(9) -0.004(8)
O62 0.033(12) 0.049(13) 0.049(14) 0.015(10) 0.021(11) 0.003(10)
O63 0.028(11) 0.035(10) 0.032(11) -0.004(9) 0.014(10) 0.009(9)
O64 0.026(11) 0.028(9) 0.040(12) 0.000(8) 0.023(10) 0.005(8)
O65 0.025 0.027 0.035 0.001 0.019 -0.003
O66 0.021 0.028 0.022 -0.009 0.015 -0.007
O67 0.034 0.048 0.042 -0.015 0.022 -0.013
O68 0.04 0.035 0.027 0.003 0.025 0.003
O69 0.031 0.045 0.04 -0.014 0.021 0.002
O70 0.022 0.032 0.038 0.004 0.003 -0.007
O71 0.049 0.044 0.018 -0.014 0.01 -0.007
O72 0.028 0.034 0.031 -0.012 0.011 -0.006
C1 0.023(13) 0.028(13) 0.019(13) -0.002(11) 0.016(12) 0.001(11)
C2 0.026(14) 0.027(13) 0.018(13) 0.001(11) 0.013(12) 0.000(12)
C3 0.029(16) 0.030(14) 0.018(14) -0.002(11) 0.013(13) 0.000(12)
C4 0.029(16) 0.029(14) 0.020(14) -0.001(10) 0.014(13) 0.000(11)
C5 0.030(16) 0.031(14) 0.018(14) 0.000(11) 0.014(13) -0.001(12)
C6 0.025(14) 0.028(13) 0.016(13) -0.001(10) 0.015(12) 0.002(11)
C7 0.027(15) 0.030(13) 0.016(13) 0.001(12) 0.015(12) 0.001(12)
C8 0.021(14) 0.026(14) 0.020(14) 0.001(11) 0.012(12) -0.001(11)
C9 0.021(13) 0.027(13) 0.021(13) 0.002(11) 0.015(12) -0.001(11)
C10 0.025(15) 0.029(14) 0.023(15) 0.002(12) 0.013(13) -0.001(12)
C11 0.025(15) 0.031(14) 0.027(15) 0.002(12) 0.017(13) 0.000(12)
C12 0.022(14) 0.029(13) 0.024(14) 0.003(11) 0.018(13) 0.002(11)
C13 0.021(14) 0.026(13) 0.021(13) 0.001(10) 0.015(12) 0.002(11)
C14 0.020(14) 0.025(13) 0.023(14) 0.006(11) 0.012(13) -0.001(11)
C15 0.017 0.025 0.02 -0.004 0.012 0.003
C16 0.016 0.025 0.018 -0.002 0.013 0.002
C17 0.018 0.027 0.019 0 0.012 0.001
C18 0.019 0.026 0.018 0 0.015 -0.001
C19 0.017 0.028 0.021 -0.003 0.013 0
C20 0.016 0.028 0.02 -0.005 0.014 0.002
C21 0.014 0.025 0.022 -0.002 0.011 0.001
C22 0.024 0.027 0.017 -0.002 0.014 -0.003
C23 0.022 0.026 0.015 -0.001 0.014 -0.002
C24 0.027 0.026 0.015 -0.004 0.011 -0.002
C25 0.025 0.029 0.015 -0.003 0.012 -0.004
C26 0.027 0.027 0.018 -0.001 0.013 -0.005
C27 0.022 0.026 0.013 -0.001 0.017 -0.002
C28 0.025 0.027 0.015 0 0.014 -0.005
La1C 0.0123 0.0232 0.0116 0.0015 0.0063 0.0025
La2A 0.0145 0.0207 0.0152 -0.0022 0.0109 -0.0019
La3A 0.0158 0.0198 0.0133 0.0001 0.0109 0.0012
La4A 0.0129(7) 0.0203(7) 0.0144(7) 0.0017(5) 0.0078(6) 0.0022(6)
La4B 0.0129 0.0203 0.0144 -0.0017 0.0078 -0.0022
O44A 0.037 0.034 0.018 0 0.016 0
O46A 0.023 0.029 0.022 -0.001 0.01 0
O48B 0.02 0.029 0.026 0.004 0.01 0.001
O52C 0.014 0.034 0.029 0.001 0.008 -0.001
O56A 0.032 0.031 0.018 -0.001 0.019 0.006
O73 0.042(15) 0.045(13) 0.048(15) 0.000(11) 0.003(12) -0.008(11)
O74 0.044(17) 0.10(2) 0.13(3) -0.012(19) 0.06(2) 0.001(15)
loop_
_geom_bond_atom_site_label_1
_geom_bond_atom_site_label_2
_geom_bond_site_symmetry_1
_geom_bond_site_symmetry_2
Ge1 O1 1_555 1_555
La1 N1 1_555 1_555
La2 N2 1_555 1_555
La3 N3 1_555 1_555
La4 N4 1_555 1_555
Mo1 O1 1_555 1_555
Mo2 O1 1_555 1_555
Mo3 O2 1_555 1_555
Mo4 O2 1_555 1_555
Mo5 O3 1_555 1_555
Mo6 O3 1_555 1_555
Mo7 O4 1_555 1_555
Mo8 O4 1_555 1_555
Mo9 O4 1_555 1_555
Mo10 O1 1_555 1_555
Mo11 O2 1_555 1_555
Mo12 O3 1_555 1_555
N1 C2 1_555 1_555
N2 C9 1_555 1_555
N3 C16 1_555 1_555
N4 C23 1_555 1_555
O2 Ge1 1_555 1_555
O3 Ge1 1_555 1_555
O4 Ge1 1_555 1_555
O5 Mo1 1_555 1_555
O6 Mo2 1_555 1_555
O7 Mo3 1_555 1_555
O8 Mo4 1_555 1_555
O9 Mo5 1_555 1_555
O10 Mo1 1_555 1_555
O11 Mo1 1_555 1_555
O12 Mo2 1_555 1_555
O13 Mo3 1_555 1_555
O14 Mo4 1_555 1_555
O15 Mo5 1_555 1_555
O16 Mo6 1_555 1_555
O17 Mo1 1_555 1_555
O18 Mo2 1_555 1_555
O19 Mo3 1_555 1_555
O20 Mo4 1_555 1_555
O21 Mo5 1_555 1_555
O22 Mo6 1_555 1_555
O23 Mo7 1_555 1_555
O24 Mo8 1_555 1_555
O25 Mo7 1_555 1_555
O26 Mo10 1_555 1_555
O27 Mo11 1_555 1_555
O28 Mo10 1_555 1_555
O29 Mo1 1_555 1_555
O30 Mo2 1_555 1_555
O31 Mo3 1_555 1_555
O32 Mo4 1_555 1_555
O33 Mo5 1_555 1_555
O34 Mo6 1_555 1_555
O35 Mo7 1_555 1_555
O36 Mo8 1_555 1_555
O37 Mo9 1_555 1_555
O38 Mo10 1_555 1_555
O39 Mo11 1_555 1_555
O40 Mo12 1_555 1_555
O41 La1 1_555 1_555
O42 La2 1_555 1_555
O43 La1 1_555 1_555
O44 C7 1_555 1_555
O45 La2 1_555 1_555
O46 C8 1_555 1_555
O47 La2 1_555 1_555
O48 C14 1_555 1_555
O49 La3 1_555 1_555
O50 La1 1_555 1_555
O51 La3 1_555 1_555
O52 C21 1_555 1_555
O53 La4 1_555 1_555
O54 La3 1_555 1_555
O55 La4 1_555 1_555
O56 C28 1_555 1_555
O57 La1 1_555 1_555
H1 O57 1_555 1_555
H2 O57 1_555 1_555
O58 La1 1_555 1_555
H3 O58 1_555 1_555
H4 O58 1_555 1_555
O59 La1 1_555 1_555
H5 O59 1_555 1_555
H6 O59 1_555 1_555
O60 La1 1_555 1_555
H7 O60 1_555 1_555
H8 O60 1_555 1_555
O61 La2 1_555 1_555
H9 O61 1_555 1_555
H10 O61 1_555 1_555
O62 La2 1_555 1_555
H11 O62 1_555 1_555
H12 O62 1_555 1_555
O63 La2 1_555 1_555
H13 O63 1_555 1_555
H14 O63 1_555 1_555
O64 La2 1_555 1_555
H15 O64 1_555 1_555
H16 O64 1_555 1_555
O65 La3 1_555 1_555
H17 O65 1_555 1_555
H18 O65 1_555 1_555
O66 La3 1_555 1_555
H19 O66 1_555 1_555
H20 O66 1_555 1_555
O67 La3 1_555 1_555
H21 O67 1_555 1_555
H22 O67 1_555 1_555
O68 La3 1_555 1_555
H23 O68 1_555 1_555
H24 O68 1_555 1_555
O69 La4 1_555 1_555
H25 O69 1_555 1_555
H26 O69 1_555 1_555
O70 La4 1_555 1_555
H27 O70 1_555 1_555
H28 O70 1_555 1_555
O71 La4 1_555 1_555
H29 O71 1_555 1_555
H30 O71 1_555 1_555
O72 La4 1_555 1_555
H31 O72 1_555 1_555
H32 O72 1_555 1_555
O73 H33 1_555 1_555
H34 O73 1_555 1_555
O74 H35 1_555 1_555
H36 O74 1_555 1_555
C1 O41 1_555 1_555
C2 C1 1_555 1_555
C3 C2 1_555 1_555
H37 C3 1_555 1_555
C4 C3 1_555 1_555
H38 C4 1_555 1_555
C5 C4 1_555 1_555
H39 C5 1_555 1_555
C6 N1 1_555 1_555
C7 O43 1_555 1_555
C8 O45 1_555 1_555
C9 C8 1_555 1_555
C10 C9 1_555 1_555
H40 C10 1_555 1_555
C11 C10 1_555 1_555
H41 C11 1_555 1_555
C12 C11 1_555 1_555
H42 C12 1_555 1_555
C13 N2 1_555 1_555
C14 O47 1_555 1_555
C15 O49 1_555 1_555
C16 C15 1_555 1_555
C17 C16 1_555 1_555
H43 C17 1_555 1_555
C18 C17 1_555 1_555
H44 C18 1_555 1_555
C19 C18 1_555 1_555
H45 C19 1_555 1_555
C20 N3 1_555 1_555
C21 O51 1_555 1_555
C22 O53 1_555 1_555
C23 C22 1_555 1_555
C24 C23 1_555 1_555
H46 C24 1_555 1_555
C25 C24 1_555 1_555
H47 C25 1_555 1_555
C26 C25 1_555 1_555
H48 C26 1_555 1_555
C27 N4 1_555 1_555
C28 O55 1_555 1_555
La1C O52 1_555 1_555
La2A O44 1_555 1_555
La3A O56 1_555 1_555
La4A O46 1_555 1_555
La4B O48 1_555 1_555
O44A La2 1_555 1_555
O46A La4 1_555 1_555
O48B La4 1_555 1_555
O52C La1 1_555 1_555
O56A La3 1_555 1_555
Mo2 O5 1_555 1_555
Mo3 O6 1_555 1_555
Mo4 O7 1_555 1_555
Mo5 O8 1_555 1_555
Mo6 O9 1_555 1_555
Mo6 O10 1_555 1_555
Mo7 O11 1_555 1_555
Mo7 O16 1_555 1_555
Mo8 O12 1_555 1_555
Mo8 O13 1_555 1_555
Mo8 O23 1_555 1_555
Mo9 O14 1_555 1_555
Mo9 O15 1_555 1_555
Mo9 O24 1_555 1_555
Mo9 O25 1_555 1_555
Mo10 O17 1_555 1_555
Mo10 O18 1_555 1_555
Mo11 O19 1_555 1_555
Mo11 O20 1_555 1_555
Mo11 O26 1_555 1_555
Mo12 O21 1_555 1_555
Mo12 O22 1_555 1_555
Mo12 O27 1_555 1_555
Mo12 O28 1_555 1_555
O42 C1 1_555 1_555
O50 C15 1_555 1_555
O54 C22 1_555 1_555
C5 C6 1_555 1_555
C6 C7 1_555 1_555
C12 C13 1_555 1_555
C13 C14 1_555 1_555
C19 C20 1_555 1_555
C20 C21 1_555 1_555
C26 C27 1_555 1_555
C27 C28 1_555 1_555

#END
