
#######################################################################
#
#                 Cambridge Crystallographic Data Centre
#                                CCDC 
#
#######################################################################
#
# If this CIF has been generated from an entry in the Cambridge 
# Structural Database, then it will include bibliographic, chemical, 
# crystal, experimental, refinement or atomic coordinate data resulting 
# from the CCDC's data processing and validation procedures.
#
#######################################################################

data_RUVBOB
_chemical_formula_moiety         '(C63 H65 Cd5 Cl4 N21 O19)n'
_symmetry_cell_setting           triclinic
_symmetry_space_group_name_H-M   'P -1'
_symmetry_Int_Tables_number      2
_space_group_name_Hall           '-P 1'
loop_
_symmetry_equiv_pos_site_id
_symmetry_equiv_pos_as_xyz
1 x,y,z
2 -x,-y,-z
_cell_length_a                   12.946(3)
_cell_length_b                   17.321(3)
_cell_length_c                   22.153(4)
_cell_angle_alpha                70.13(3)
_cell_angle_beta                 76.08(3)
_cell_angle_gamma                73.31(3)
_cell_volume                     4418.29
loop_
_atom_site_label
_atom_site_type_symbol
_atom_site_fract_x
_atom_site_fract_y
_atom_site_fract_z
Cd1 Cd 1.16515(4) 0.54865(3) 0.01310(2)
Cd2 Cd 0.17809(3) 0.73405(3) 0.090749(19)
Cd3 Cd 0.17465(3) 0.77685(2) 0.248079(19)
Cd4 Cd 0.17631(3) 0.81187(3) 0.408313(19)
Cd5 Cd -0.83254(4) 1.00526(3) 0.48319(2)
Cl1 Cl 0.29231(15) 0.62030(11) 0.03149(9)
Cl2 Cl 0.05532(13) 0.83723(10) 0.15491(7)
Cl3 Cl 0.27952(15) 0.70458(11) 0.34725(8)
Cl4 Cl 0.05536(13) 0.91954(11) 0.46810(9)
N1 N 1.1399(7) 0.6360(4) -0.4748(3)
N2 N 1.1631(5) 0.7130(3) -0.4890(3)
N3 N 1.1628(6) 0.6536(4) -0.3857(3)
N4 N 1.0168(4) 0.6263(3) 0.0650(3)
N5 N 1.0159(4) 0.6898(3) 0.0888(3)
N6 N 0.8474(4) 0.6819(4) 0.0978(3)
N7 N 0.1874(5) 0.6242(3) 0.1903(2)
N8 N 0.1737(5) 0.6428(3) 0.2474(2)
N9 N 0.1730(5) 0.5104(3) 0.2702(3)
N10 N 0.1809(4) 0.9094(3) 0.2505(2)
N11 N 0.1791(5) 0.9253(3) 0.3073(2)
N12 N 0.1795(5) 1.0424(3) 0.2280(3)
N13 N 0.0112(4) 0.8028(3) 0.3815(2)
N14 N 0.0117(4) 0.7923(3) 0.3222(2)
N15 N -0.1573(4) 0.8181(3) 0.3719(2)
N16 N -0.8591(6) 0.9193(4) 0.9795(3)
N17 N -0.8409(5) 0.8325(3) 0.9919(2)
N18 N -0.8417(5) 0.8902(3) 0.8882(3)
C1 C 1.1420(9) 0.6032(5) -0.4137(4)
H1 H 1.1303 0.5496 -0.3909
C2 C 1.1761(6) 0.7222(4) -0.4369(3)
H2 H 1.1926 0.7697 -0.4343
C3 C 1.1673(6) 0.6388(5) -0.3179(3)
C4 C 1.1252(6) 0.7038(4) -0.2903(3)
H3 H 1.0960 0.7573 -0.3158
C5 C 1.1258(6) 0.6905(4) -0.2256(3)
H4 H 1.0961 0.7344 -0.2070
C6 C 1.1714(6) 0.6103(4) -0.1882(3)
C7 C 1.2138(8) 0.5452(5) -0.2168(4)
H5 H 1.2439 0.4916 -0.1920
C8 C 1.2114(8) 0.5598(5) -0.2819(4)
H6 H 1.2396 0.5163 -0.3010
C9 C 1.1726(6) 0.5943(5) -0.1170(3)
C10 C 0.9152(6) 0.6216(5) 0.0712(4)
H7 H 0.8930 0.5830 0.0592
C11 C 0.9145(5) 0.7218(4) 0.1082(4)
H8 H 0.8912 0.7659 0.1268
C12 C 0.7299(5) 0.7008(5) 0.1078(4)
C13 C 0.6722(6) 0.7051(7) 0.1668(4)
H9 H 0.7078 0.6950 0.2014
C14 C 0.5592(7) 0.7247(8) 0.1747(5)
H10 H 0.5185 0.7289 0.2146
C15 C 0.5065(5) 0.7379(5) 0.1236(4)
C16 C 0.5683(6) 0.7242(9) 0.0676(5)
H11 H 0.5337 0.7246 0.0352
C17 C 0.6803(7) 0.7098(8) 0.0574(4)
H12 H 0.7210 0.7063 0.0173
C18 C 0.3823(5) 0.7576(5) 0.1336(4)
C19 C 0.1872(6) 0.5452(4) 0.2040(3)
H13 H 0.1954 0.5167 0.1738
C20 C 0.1656(7) 0.5739(4) 0.2947(3)
H14 H 0.1562 0.5691 0.3387
C21 C 0.1668(7) 0.4247(4) 0.3060(3)
C22 C 0.1984(9) 0.3904(5) 0.3658(4)
H15 H 0.2203 0.4226 0.3844
C23 C 0.1971(8) 0.3059(4) 0.3987(4)
H16 H 0.2199 0.2814 0.4391
C24 C 0.1628(6) 0.2592(4) 0.3723(3)
C25 C 0.1274(6) 0.2958(4) 0.3126(3)
H17 H 0.1032 0.2642 0.2944
C26 C 0.1280(7) 0.3793(4) 0.2801(4)
H18 H 0.1022 0.4047 0.2406
C27 C 0.1643(6) 0.1677(4) 0.4072(3)
C28 C 0.1787(6) 1.0053(4) 0.2930(3)
H19 H 0.1779 1.0326 0.3228
C29 C 0.1801(5) 0.9802(4) 0.2035(3)
H20 H 0.1800 0.9868 0.1601
C30 C 0.1759(6) 1.1297(4) 0.1930(3)
C31 C 0.1103(6) 1.1688(4) 0.1465(3)
H21 H 0.0684 1.1394 0.1378
C32 C 0.1067(6) 1.2531(4) 0.1124(3)
H22 H 0.0625 1.2801 0.0804
C33 C 0.1680(6) 1.2971(4) 0.1254(3)
C34 C 0.2352(7) 1.2550(4) 0.1724(4)
H23 H 0.2774 1.2838 0.1815
C35 C 0.2403(7) 1.1708(4) 0.2060(4)
H24 H 0.2865 1.1427 0.2369
C36 C 0.1598(6) 1.3905(4) 0.0904(3)
C37 C -0.0926(5) 0.8033(4) 0.3178(3)
H25 H -0.1171 0.8010 0.2825
C38 C -0.0882(5) 0.8175(4) 0.4098(3)
H26 H -0.1101 0.8265 0.4505
C39 C -0.2750(5) 0.8325(4) 0.3865(3)
C40 C -0.3309(5) 0.8898(5) 0.4192(4)
H27 H -0.2932 0.9178 0.4325
C41 C -0.4435(5) 0.9062(5) 0.4324(4)
H28 H -0.4819 0.9451 0.4547
C42 C -0.4993(5) 0.8640(4) 0.4120(3)
C43 C -0.4416(6) 0.8074(5) 0.3777(4)
H29 H -0.4791 0.7807 0.3629
C44 C -0.3279(5) 0.7898(5) 0.3649(4)
H30 H -0.2887 0.7508 0.3427
C45 C -0.6227(5) 0.8836(4) 0.4244(3)
C46 C -0.8598(7) 0.9504(4) 0.9186(3)
H31 H -0.8713 1.0078 0.8972
C47 C -0.8324(6) 0.8178(4) 0.9378(3)
H32 H -0.8213 0.7645 0.9333
C48 C -0.8303(6) 0.8985(4) 0.8207(3)
C49 C -0.8950(6) 0.9666(4) 0.7818(3)
H33 H -0.9466 1.0063 0.7995
C50 C -0.8809(6) 0.9744(4) 0.7160(3)
H34 H -0.9212 1.0210 0.6888
C51 C -0.8080(6) 0.9136(4) 0.6908(3)
C52 C -0.7449(6) 0.8449(4) 0.7309(3)
H35 H -0.6959 0.8037 0.7137
C53 C -0.7548(6) 0.8376(4) 0.7958(3)
H36 H -0.7115 0.7926 0.8224
C54 C -0.7942(6) 0.9199(5) 0.6195(3)
O1 O 1.2025(5) 0.5196(3) -0.0832(2)
O2 O 1.1436(5) 0.6548(3) -0.0937(2)
O3 O 0.3414(4) 0.7560(4) 0.0888(3)
O4 O 0.3360(4) 0.7729(4) 0.1838(3)
O5 O 0.1973(4) 0.1374(3) 0.4615(2)
O6 O 0.1357(5) 0.1248(3) 0.3817(2)
O7 O 0.2142(6) 1.4283(3) 0.1036(3)
O8 O 0.0980(5) 1.4247(3) 0.0492(3)
O9 O -0.6667(4) 0.8297(3) 0.4231(3)
O10 O -0.6690(4) 0.9535(3) 0.4341(3)
O11 O -0.7558(6) 0.8570(4) 0.6002(2)
O12 O -0.8284(5) 0.9937(3) 0.5837(2)
Cd1_2 Cd 0.16515(4) 0.54865(3) 0.01310(2)
Cd1_3 Cd 0.16515(4) 1.54865(3) 0.01310(2)
Cd2_2 Cd -0.82191(3) 0.73405(3) 1.090749(19)
Cd2_3 Cd 1.17809(3) 0.73405(3) 0.090749(19)
Cd4_2 Cd -0.82369(3) 0.81187(3) 0.408313(19)
Cd4_3 Cd 1.17631(3) 0.81187(3) -0.591687(19)
Cd5_2 Cd 0.16746(4) 0.00526(3) 0.48319(2)
Cd5_3 Cd 0.16746(4) 1.00526(3) 0.48319(2)
Cd5A Cd -0.16746(4) 0.99474(3) 0.51681(2)
Cl1_2 Cl 1.29231(15) 0.62030(11) 0.03149(9)
Cl4_2 Cl -0.94464(13) 0.91954(11) 0.46810(9)
Cl4A Cl -1.05536(13) 1.08046(11) 0.53190(9)
N2_2 N 0.1631(5) 0.7130(3) 0.5110(3)
N5_2 N 0.0159(4) 0.6898(3) 0.0888(3)
N17_2 N 0.1591(5) 0.8325(3) -0.0081(2)
O5_2 O -0.8027(4) 1.1374(3) 0.4615(2)
O6_2 O -0.8643(5) 1.1248(3) 0.3817(2)
O7_2 O 1.2142(6) 0.4283(3) 0.1036(3)
O8_2 O 1.0980(5) 0.4247(3) 0.0492(3)
O9_2 O 0.3333(4) 0.8297(3) 0.4231(3)
C55 C 0.3455(16) 0.4123(15) 0.5054(11)
H37 H 0.2772 0.4256 0.5328
H38 H 0.3499 0.3620 0.4948
H39 H 0.3504 0.4581 0.4662
C56 C 0.5490(13) 0.3786(11) 0.5056(9)
H40 H 0.5990 0.3728 0.5334
H41 H 0.5601 0.4231 0.4662
H42 H 0.5617 0.3268 0.4953
C57 C 0.4128(17) 0.4026(9) 0.5973(11)
H43 H 0.4746 0.3950 0.6150
N19 N 0.4346(11) 0.3990(8) 0.5394(8)
O13 O 0.3352(14) 0.4129(9) 0.6315(8)
C58 C 0.603(2) 0.9938(15) 0.2347(10)
H44 H 0.6808 0.9862 0.2285
H45 H 0.5743 0.9832 0.2803
H46 H 0.5712 1.0506 0.2120
C59 C 0.4709(15) 0.9500(15) 0.2193(12)
H47 H 0.4303 0.9939 0.2386
H48 H 0.4536 0.8973 0.2463
H49 H 0.4521 0.9627 0.1771
C60 C 0.664(2) 0.8921(13) 0.1884(12)
H50 H 0.6435 0.8600 0.1693
O14 O 0.7544(9) 0.8797(9) 0.1860(7)
N20 N 0.5804(9) 0.9442(8) 0.2134(7)
C61 C 0.477(2) 0.1249(16) 0.3825(13)
H51 H 0.4459 0.1032 0.3580
H52 H 0.4358 0.1171 0.4257
H53 H 0.5513 0.0953 0.3847
C62 C 0.516(3) 0.260(2) 0.3853(15)
H54 H 0.5001 0.3190 0.3617
H55 H 0.5931 0.2398 0.3842
H56 H 0.4802 0.2528 0.4296
C63 C 0.4477(18) 0.245(2) 0.2925(16)
H57 H 0.4455 0.3027 0.2744
N21 N 0.4718(13) 0.2090(14) 0.3529(9)
O15 O 0.4281(16) 0.2076(18) 0.2590(10)
O16 O 0.1359(8) 0.0270(4) 0.0597(3)
O17 O 0.1412(13) 0.0945(8) 0.0068(6)
O18 O 1.0847(12) 0.5537(8) -0.5524(6)
O19 O 0.9849(16) 0.5928(12) -0.5537(9)
loop_
_geom_bond_atom_site_label_1
_geom_bond_atom_site_label_2
_geom_bond_site_symmetry_1
_geom_bond_site_symmetry_2
Cd1 N4 1_555 1_555
Cd2 Cl1 1_555 1_555
Cd3 Cl2 1_555 1_555
Cd4 Cl3 1_555 1_555
Cd5 O10 1_555 1_555
Cl1 Cd1_2 1_555 1_555
Cl2 Cd2 1_555 1_555
Cl3 Cd3 1_555 1_555
Cl4 Cd4 1_555 1_555
N1 N2 1_555 1_555
N2 C2 1_555 1_555
N3 C1 1_555 1_555
N4 N5 1_555 1_555
N5 C11 1_555 1_555
N6 C10 1_555 1_555
N7 Cd2 1_555 1_555
N8 Cd3 1_555 1_555
N9 C19 1_555 1_555
N10 Cd3 1_555 1_555
N11 Cd4 1_555 1_555
N12 C28 1_555 1_555
N13 Cd4 1_555 1_555
N14 Cd3 1_555 1_555
N15 C37 1_555 1_555
N16 N17 1_555 1_555
N17 C47 1_555 1_555
N18 C46 1_555 1_555
C1 N1 1_555 1_555
H1 C1 1_555 1_555
C2 N3 1_555 1_555
H2 C2 1_555 1_555
C3 N3 1_555 1_555
C4 C3 1_555 1_555
H3 C4 1_555 1_555
C5 C4 1_555 1_555
H4 C5 1_555 1_555
C6 C5 1_555 1_555
C7 C6 1_555 1_555
H5 C7 1_555 1_555
C8 C3 1_555 1_555
H6 C8 1_555 1_555
C9 C6 1_555 1_555
C10 N4 1_555 1_555
H7 C10 1_555 1_555
C11 N6 1_555 1_555
H8 C11 1_555 1_555
C12 N6 1_555 1_555
C13 C12 1_555 1_555
H9 C13 1_555 1_555
C14 C13 1_555 1_555
H10 C14 1_555 1_555
C15 C14 1_555 1_555
C16 C15 1_555 1_555
H11 C16 1_555 1_555
C17 C12 1_555 1_555
H12 C17 1_555 1_555
C18 C15 1_555 1_555
C19 N7 1_555 1_555
H13 C19 1_555 1_555
C20 N8 1_555 1_555
H14 C20 1_555 1_555
C21 N9 1_555 1_555
C22 C21 1_555 1_555
H15 C22 1_555 1_555
C23 C22 1_555 1_555
H16 C23 1_555 1_555
C24 C23 1_555 1_555
C25 C24 1_555 1_555
H17 C25 1_555 1_555
C26 C21 1_555 1_555
H18 C26 1_555 1_555
C27 C24 1_555 1_555
C28 N11 1_555 1_555
H19 C28 1_555 1_555
C29 N10 1_555 1_555
H20 C29 1_555 1_555
C30 N12 1_555 1_555
C31 C30 1_555 1_555
H21 C31 1_555 1_555
C32 C31 1_555 1_555
H22 C32 1_555 1_555
C33 C32 1_555 1_555
C34 C33 1_555 1_555
H23 C34 1_555 1_555
C35 C30 1_555 1_555
H24 C35 1_555 1_555
C36 C33 1_555 1_555
C37 N14 1_555 1_555
H25 C37 1_555 1_555
C38 N13 1_555 1_555
H26 C38 1_555 1_555
C39 N15 1_555 1_555
C40 C39 1_555 1_555
H27 C40 1_555 1_555
C41 C40 1_555 1_555
H28 C41 1_555 1_555
C42 C41 1_555 1_555
C43 C42 1_555 1_555
H29 C43 1_555 1_555
C44 C39 1_555 1_555
H30 C44 1_555 1_555
C45 C42 1_555 1_555
C46 N16 1_555 1_555
H31 C46 1_555 1_555
C47 N18 1_555 1_555
H32 C47 1_555 1_555
C48 N18 1_555 1_555
C49 C48 1_555 1_555
H33 C49 1_555 1_555
C50 C49 1_555 1_555
H34 C50 1_555 1_555
C51 C50 1_555 1_555
C52 C51 1_555 1_555
H35 C52 1_555 1_555
C53 C48 1_555 1_555
H36 C53 1_555 1_555
C54 C51 1_555 1_555
O1 Cd1 1_555 1_555
O2 Cd1 1_555 1_555
O3 Cd2 1_555 1_555
O4 Cd3 1_555 1_555
O5 C27 1_555 1_555
O6 C27 1_555 1_555
O7 C36 1_555 1_555
O8 C36 1_555 1_555
O9 C45 1_555 1_555
O10 C45 1_555 1_555
O11 C54 1_555 1_555
O12 Cd5 1_555 1_555
C55 H37 1_555 1_555
H38 C55 1_555 1_555
H39 C55 1_555 1_555
C56 H40 1_555 1_555
H41 C56 1_555 1_555
H42 C56 1_555 1_555
C57 H43 1_555 1_555
N19 C55 1_555 1_555
O13 C57 1_555 1_555
C58 H44 1_555 1_555
H45 C58 1_555 1_555
H46 C58 1_555 1_555
C59 H47 1_555 1_555
H48 C59 1_555 1_555
H49 C59 1_555 1_555
C60 H50 1_555 1_555
O14 C60 1_555 1_555
N20 C58 1_555 1_555
C61 H51 1_555 1_555
H52 C61 1_555 1_555
H53 C61 1_555 1_555
C62 H54 1_555 1_555
H55 C62 1_555 1_555
H56 C62 1_555 1_555
C63 H57 1_555 1_555
N21 C61 1_555 1_555
O15 C63 1_555 1_555
Cd1_3 O7 1_555 1_555
Cd2_2 N17 1_555 1_555
Cd2_3 N5 1_555 1_555
Cd4_2 O9 1_555 1_555
Cd4_3 N2 1_555 1_555
Cd5_2 O5 1_555 1_555
Cd5_3 Cl4 1_555 1_555
Cd5A Cl4 1_555 1_555
Cl1_2 Cd1 1_555 1_555
Cl4_2 Cd5 1_555 1_555
Cl4A Cd5 1_555 1_555
N2_2 Cd4 1_555 1_555
N5_2 Cd2 1_555 1_555
N17_2 Cd2 1_555 1_555
O5_2 Cd5 1_555 1_555
O6_2 Cd5 1_555 1_555
O7_2 Cd1 1_555 1_555
O8_2 Cd1 1_555 1_555
O9_2 Cd4 1_555 1_555
N7 N8 1_555 1_555
N9 C20 1_555 1_555
N10 N11 1_555 1_555
N12 C29 1_555 1_555
N13 N14 1_555 1_555
N15 C38 1_555 1_555
C7 C8 1_555 1_555
C9 O1 1_555 1_555
C9 O2 1_555 1_555
C16 C17 1_555 1_555
C18 O3 1_555 1_555
C18 O4 1_555 1_555
C25 C26 1_555 1_555
C34 C35 1_555 1_555
C43 C44 1_555 1_555
C52 C53 1_555 1_555
C54 O12 1_555 1_555
O6 Cd5_2 1_555 1_555
O8 Cd1_3 1_555 1_555
C56 N19 1_555 1_555
C57 N19 1_555 1_555
C59 N20 1_555 1_555
C60 N20 1_555 1_555
C62 N21 1_555 1_555
C63 N21 1_555 1_555
Cd2_3 Cl1_2 1_555 1_555
Cd4_2 Cl4_2 1_555 1_555

#END
