
#######################################################################
#
#                 Cambridge Crystallographic Data Centre
#                                CCDC 
#
#######################################################################
#
# If this CIF has been generated from an entry in the Cambridge 
# Structural Database, then it will include bibliographic, chemical, 
# crystal, experimental, refinement or atomic coordinate data resulting 
# from the CCDC's data processing and validation procedures.
#
#######################################################################

data_RUVBER
_chemical_formula_moiety         '(C18 H12 Cd1 N6 O4)n'
_symmetry_cell_setting           orthorhombic
_symmetry_space_group_name_H-M   'P n c 2'
_symmetry_Int_Tables_number      30
_space_group_name_Hall           'P 2 -2bc'
loop_
_symmetry_equiv_pos_site_id
_symmetry_equiv_pos_as_xyz
1 x,y,z
2 -x,-y,z
3 x,1/2-y,1/2+z
4 -x,1/2+y,1/2+z
_cell_length_a                   8.3848(17)
_cell_length_b                   14.808(3)
_cell_length_c                   11.494(2)
_cell_angle_alpha                90
_cell_angle_beta                 90
_cell_angle_gamma                90
_cell_volume                     1427.12
loop_
_atom_site_label
_atom_site_type_symbol
_atom_site_fract_x
_atom_site_fract_y
_atom_site_fract_z
Cd1 Cd 0.5000 0.0000 0.3207(2)
N1 N 0.4090(3) -0.11125(17) 0.4387(3)
N2 N 0.5024(3) -0.1823(5) 0.4696(10)
N3 N 0.2594(3) -0.2098(2) 0.5269(3)
C1 C 0.4118(5) -0.2367(4) 0.5250(7)
H1 H 0.4478 -0.2894 0.5603
C2 C 0.2647(4) -0.1314(2) 0.4718(3)
H2 H 0.1762 -0.0951 0.4583
C3 C 0.1260(4) -0.2555(3) 0.5759(5)
C4 C -0.0264(5) -0.2345(5) 0.5411(7)
H3 H -0.0435 -0.1895 0.4861
C5 C -0.1549(5) -0.2809(3) 0.5888(5)
H4 H -0.2580 -0.2657 0.5664
C6 C -0.1319(5) -0.3489(3) 0.6685(4)
C7 C 0.0213(4) -0.3700(4) 0.7029(5)
H5 H 0.0381 -0.4162 0.7563
C8 C 0.1513(5) -0.3224(3) 0.6579(5)
H6 H 0.2542 -0.3355 0.6829
C9 C -0.2683(3) -0.4022(2) 0.7179(3)
O1 O -0.2404(2) -0.45887(16) 0.7957(2)
O2 O -0.4074(2) -0.38880(16) 0.6805(2)
N1A N 0.5910(3) 0.11125(17) 0.4387(3)
N2A N 0.4976(3) 0.1823(5) 0.4696(10)
N3A N 0.7406(3) 0.2098(2) 0.5269(3)
C1A C 0.5882(5) 0.2367(4) 0.5250(7)
H1A H 0.5522 0.2894 0.5603
C2A C 0.7353(4) 0.1314(2) 0.4718(3)
H2A H 0.8238 0.0951 0.4583
C3A C 0.8740(4) 0.2555(3) 0.5759(5)
C4A C 1.0264(5) 0.2345(5) 0.5411(7)
H3A H 1.0435 0.1895 0.4861
C5A C 1.1549(5) 0.2809(3) 0.5888(5)
H4A H 1.2580 0.2657 0.5664
C6A C 1.1319(5) 0.3489(3) 0.6685(4)
C7A C 0.9787(4) 0.3700(4) 0.7029(5)
H5A H 0.9619 0.4162 0.7563
C8A C 0.8487(5) 0.3224(3) 0.6579(5)
H6A H 0.7458 0.3355 0.6829
C9A C 1.2683(3) 0.4022(2) 0.7179(3)
O1A O 1.2404(2) 0.45887(16) 0.7957(2)
O2A O 1.4074(2) 0.38880(16) 0.6805(2)
Cd1B Cd -0.5000 -0.5000 0.8207(2)
Cd1B_2 Cd 1.5000 0.5000 0.8207(2)
O1B O 0.7596(2) -0.04113(16) 0.2957(2)
O1C O 0.2404(2) 0.04113(16) 0.2957(2)
O2B O 0.5926(2) -0.11120(16) 0.1805(2)
O2C O 0.4074(2) 0.11120(16) 0.1805(2)
loop_
_geom_bond_atom_site_label_1
_geom_bond_atom_site_label_2
_geom_bond_site_symmetry_1
_geom_bond_site_symmetry_2
Cd1 N1 1_555 1_555
N1 N2 1_555 1_555
N2 C1 1_555 1_555
N3 C1 1_555 1_555
C1 H1 1_555 1_555
C2 N1 1_555 1_555
H2 C2 1_555 1_555
C3 N3 1_555 1_555
C4 C3 1_555 1_555
H3 C4 1_555 1_555
C5 C4 1_555 1_555
H4 C5 1_555 1_555
C6 C5 1_555 1_555
C7 C6 1_555 1_555
H5 C7 1_555 1_555
C8 C3 1_555 1_555
H6 C8 1_555 1_555
C9 C6 1_555 1_555
O1 C9 1_555 1_555
O2 C9 1_555 1_555
N1A Cd1 1_555 1_555
N2A N1A 1_555 1_555
N3A C1A 1_555 1_555
C1A N2A 1_555 1_555
H1A C1A 1_555 1_555
C2A N1A 1_555 1_555
H2A C2A 1_555 1_555
C3A N3A 1_555 1_555
C4A C3A 1_555 1_555
H3A C4A 1_555 1_555
C5A C4A 1_555 1_555
H4A C5A 1_555 1_555
C6A C5A 1_555 1_555
C7A C6A 1_555 1_555
H5A C7A 1_555 1_555
C8A C3A 1_555 1_555
H6A C8A 1_555 1_555
C9A C6A 1_555 1_555
O1A C9A 1_555 1_555
O2A C9A 1_555 1_555
Cd1B O1 1_555 1_555
Cd1B_2 O1A 1_555 1_555
O1B Cd1 1_555 1_555
O1C Cd1 1_555 1_555
O2B Cd1 1_555 1_555
O2C Cd1 1_555 1_555
N3 C2 1_555 1_555
C7 C8 1_555 1_555
O2 Cd1B 1_555 1_555
N3A C2A 1_555 1_555
C7A C8A 1_555 1_555
O2A Cd1B_2 1_555 1_555

#END
