
#######################################################################
#
#                 Cambridge Crystallographic Data Centre
#                                CCDC 
#
#######################################################################
#
# If this CIF has been generated from an entry in the Cambridge 
# Structural Database, then it will include bibliographic, chemical, 
# crystal, experimental, refinement or atomic coordinate data resulting 
# from the CCDC's data processing and validation procedures.
#
#######################################################################

data_MIFGEP01
_chemical_formula_moiety         '(C30 H23 Cd1 N1 O7)n'
_symmetry_cell_setting           monoclinic
_symmetry_space_group_name_H-M   'P 21/n'
_symmetry_Int_Tables_number      14
_space_group_name_Hall           '-P 2yn'
loop_
_symmetry_equiv_pos_site_id
_symmetry_equiv_pos_as_xyz
1 x,y,z
2 1/2-x,1/2+y,1/2-z
3 -x,-y,-z
4 1/2+x,1/2-y,1/2+z
_cell_length_a                   14.915(4)
_cell_length_b                   8.986(2)
_cell_length_c                   26.759(7)
_cell_angle_alpha                90
_cell_angle_beta                 96.272(3)
_cell_angle_gamma                90
_cell_volume                     3564.94
loop_
_atom_site_label
_atom_site_type_symbol
_atom_site_fract_x
_atom_site_fract_y
_atom_site_fract_z
C1 C 0.24375(16) 0.4783(3) 0.06904(9)
C2 C 0.25950(17) 0.5845(3) 0.03370(10)
H1 H 0.3177 0.5979 0.0250
C3 C 0.18993(18) 0.6712(3) 0.01109(10)
H2 H 0.2018 0.7425 -0.0125
C4 C 0.10217(16) 0.6525(3) 0.02341(9)
C5 C 0.08693(16) 0.5473(3) 0.05992(9)
H3 H 0.0291 0.5348 0.0692
C6 C 0.15719(16) 0.4612(3) 0.08251(9)
H4 H 0.1462 0.3916 0.1068
C7 C 0.02601(15) 0.7422(3) -0.00241(9)
C8 C 0.02904(17) 0.7923(3) -0.05124(9)
H5 H 0.0784 0.7684 -0.0682
C9 C -0.04101(16) 0.8785(3) -0.07548(9)
C10 C -0.11470(16) 0.9115(3) -0.04992(9)
H6 H -0.1616 0.9681 -0.0658
C11 C -0.12004(16) 0.8618(3) -0.00100(9)
C12 C -0.04881(16) 0.7775(3) 0.02256(9)
H7 H -0.0512 0.7444 0.0553
C13 C -0.03560(15) 0.9414(3) -0.12614(9)
C14 C 0.00469(18) 0.8645(3) -0.16320(10)
H8 H 0.0288 0.7703 -0.1564
C15 C 0.00894(18) 0.9278(3) -0.21003(10)
H9 H 0.0351 0.8748 -0.2345
C16 C -0.02519(16) 1.0689(3) -0.22095(9)
C17 C -0.06405(19) 1.1461(3) -0.18402(10)
H10 H -0.0868 1.2413 -0.1907
C18 C -0.06933(17) 1.0834(3) -0.13760(9)
H11 H -0.0959 1.1368 -0.1133
C19 C -0.19759(15) 0.9087(3) 0.02530(9)
C20 C -0.28204(16) 0.9314(3) -0.00142(10)
H12 H -0.2910 0.9085 -0.0355
C21 C -0.18702(16) 0.9403(3) 0.07649(9)
H13 H -0.1316 0.9232 0.0951
C22 C -0.35287(16) 0.9880(3) 0.02243(9)
H14 H -0.4088 1.0030 0.0041
C23 C -0.34116(15) 1.0222(3) 0.07316(9)
C24 C -0.25757(16) 0.9968(3) 0.10032(9)
H15 H -0.2491 1.0178 0.1345
C25 C -0.41715(17) 1.0818(3) 0.09870(10)
C26 C -0.02379(18) 1.1390(3) -0.27209(10)
C27 C 0.31800(18) 0.3801(3) 0.09296(10)
C28 C 0.3583(2) -0.0704(3) 0.20188(12)
C29 C 0.3019(3) -0.3143(4) 0.17812(16)
H16 H 0.2740 -0.3955 0.1939
H17 H 0.3576 -0.3474 0.1669
H18 H 0.2622 -0.2798 0.1498
C30 C 0.2944(3) -0.2155(4) 0.26473(14)
H19 H 0.2677 -0.3120 0.2673
H20 H 0.2518 -0.1403 0.2717
H21 H 0.3472 -0.2080 0.2886
N1 N 0.31972(18) -0.1944(3) 0.21382(11)
O1 O 0.38276(15) -0.0451(2) 0.15939(8)
O2 O 0.29928(13) 0.2786(2) 0.12168(8)
O3 O 0.39818(12) 0.4030(2) 0.08281(8)
O4 O 0.00418(16) 1.0681(3) -0.30637(7)
O5 O -0.05406(14) 1.2697(2) -0.27693(7)
O6 O -0.40498(13) 1.1164(3) 0.14385(8)
O7 O -0.49342(12) 1.0963(2) 0.07375(7)
Cd1 Cd 0.441161(11) 0.18776(2) 0.141485(6)
O4C O 0.50418(16) 0.4319(3) 0.19363(7)
O5C O 0.44594(14) 0.2303(2) 0.22307(7)
O6_2 O 0.59502(13) 0.1164(3) 0.14385(8)
O7_2 O 0.50658(12) 0.0963(2) 0.07375(7)
Cd1_2 Cd -0.558839(11) 1.18776(2) 0.141485(6)
Cd1C Cd -0.058839(11) 1.31224(2) -0.358515(6)
loop_
_geom_bond_atom_site_label_1
_geom_bond_atom_site_label_2
_geom_bond_site_symmetry_1
_geom_bond_site_symmetry_2
C1 C2 1_555 1_555
C2 H1 1_555 1_555
C3 C2 1_555 1_555
H2 C3 1_555 1_555
C4 C3 1_555 1_555
C5 C4 1_555 1_555
H3 C5 1_555 1_555
C6 C1 1_555 1_555
H4 C6 1_555 1_555
C7 C4 1_555 1_555
C8 C7 1_555 1_555
H5 C8 1_555 1_555
C9 C8 1_555 1_555
C10 C9 1_555 1_555
H6 C10 1_555 1_555
C11 C10 1_555 1_555
C12 C7 1_555 1_555
H7 C12 1_555 1_555
C13 C9 1_555 1_555
C14 C13 1_555 1_555
H8 C14 1_555 1_555
C15 C14 1_555 1_555
H9 C15 1_555 1_555
C16 C15 1_555 1_555
C17 C16 1_555 1_555
H10 C17 1_555 1_555
C18 C13 1_555 1_555
H11 C18 1_555 1_555
C19 C11 1_555 1_555
C20 C19 1_555 1_555
H12 C20 1_555 1_555
C21 C19 1_555 1_555
H13 C21 1_555 1_555
C22 C20 1_555 1_555
H14 C22 1_555 1_555
C23 C22 1_555 1_555
C24 C21 1_555 1_555
H15 C24 1_555 1_555
C25 C23 1_555 1_555
C26 C16 1_555 1_555
C27 C1 1_555 1_555
C28 N1 1_555 1_555
C29 H16 1_555 1_555
H17 C29 1_555 1_555
H18 C29 1_555 1_555
C30 H19 1_555 1_555
H20 C30 1_555 1_555
H21 C30 1_555 1_555
N1 C29 1_555 1_555
O1 C28 1_555 1_555
O2 C27 1_555 1_555
O3 C27 1_555 1_555
O4 C26 1_555 1_555
O5 C26 1_555 1_555
O6 C25 1_555 1_555
O7 C25 1_555 1_555
Cd1 O1 1_555 1_555
O4C Cd1 1_555 1_555
O5C Cd1 1_555 1_555
O6_2 Cd1 1_555 1_555
O7_2 Cd1 1_555 1_555
Cd1_2 O6 1_555 1_555
Cd1C O4 1_555 1_555
C5 C6 1_555 1_555
C11 C12 1_555 1_555
C17 C18 1_555 1_555
C23 C24 1_555 1_555
C30 N1 1_555 1_555
O2 Cd1 1_555 1_555
O3 Cd1 1_555 1_555
O5 Cd1C 1_555 1_555
O7 Cd1_2 1_555 1_555

#END
