
#######################################################################
#
#                 Cambridge Crystallographic Data Centre
#                                CCDC 
#
#######################################################################
#
# If this CIF has been generated from an entry in the Cambridge 
# Structural Database, then it will include bibliographic, chemical, 
# crystal, experimental, refinement or atomic coordinate data resulting 
# from the CCDC's data processing and validation procedures.
#
#######################################################################

data_MIFGEP
_chemical_formula_moiety         '(C33 H30 Cd1 N2 O8)n'
_symmetry_cell_setting           monoclinic
_symmetry_space_group_name_H-M   'P 21/n'
_symmetry_Int_Tables_number      14
_space_group_name_Hall           '-P 2yn'
loop_
_symmetry_equiv_pos_site_id
_symmetry_equiv_pos_as_xyz
1 x,y,z
2 1/2-x,1/2+y,1/2-z
3 -x,-y,-z
4 1/2+x,1/2-y,1/2+z
_cell_length_a                   14.915(4)
_cell_length_b                   8.986(2)
_cell_length_c                   26.759(7)
_cell_angle_alpha                90
_cell_angle_beta                 96.272(3)
_cell_angle_gamma                90
_cell_volume                     3564.94
loop_
_atom_site_label
_atom_site_type_symbol
_atom_site_fract_x
_atom_site_fract_y
_atom_site_fract_z
C1 C -0.3527(2) 0.9876(4) 0.02229(13)
H1 H -0.4086 1.0024 0.0039
C2 C -0.3412(2) 1.0225(4) 0.07327(13)
C3 C -0.2571(2) 0.9968(4) 0.10033(13)
H2 H -0.2485 1.0178 0.1346
C4 C -0.4171(2) 1.0818(4) 0.09882(13)
C5 C -0.0233(2) 1.1388(5) -0.27187(13)
O1 O 0.0047(2) 1.0674(4) -0.30655(10)
O2 O -0.0540(2) 1.2696(3) -0.27676(10)
O3 O -0.40537(19) 1.1158(4) 0.14380(11)
O4 O -0.49323(17) 1.0966(3) 0.07367(10)
C6 C 0.2441(2) 0.4780(4) 0.06893(13)
C7 C 0.2598(2) 0.5841(4) 0.03372(14)
H3 H 0.3180 0.5976 0.0251
C8 C 0.1899(2) 0.6711(4) 0.01098(14)
H4 H 0.2018 0.7424 -0.0126
C9 C 0.1018(2) 0.6524(4) 0.02329(12)
C10 C 0.0868(2) 0.5476(4) 0.05991(13)
H5 H 0.0290 0.5356 0.0693
C11 C 0.1568(2) 0.4612(4) 0.08241(13)
H6 H 0.1457 0.3915 0.1067
C12 C 0.0258(2) 0.7419(4) -0.00248(12)
C13 C 0.0290(2) 0.7926(4) -0.05141(12)
H7 H 0.0784 0.7691 -0.0683
C14 C -0.0410(2) 0.8786(4) -0.07540(12)
C15 C -0.1148(2) 0.9120(4) -0.05001(12)
H8 H -0.1617 0.9687 -0.0659
C16 C -0.1201(2) 0.8619(4) -0.00097(12)
C17 C -0.0491(2) 0.7772(4) 0.02243(12)
H9 H -0.0517 0.7438 0.0551
C18 C -0.0357(2) 0.9412(4) -0.12608(12)
C19 C 0.0046(3) 0.8644(4) -0.16323(13)
H10 H 0.0288 0.7702 -0.1565
C20 C 0.0087(3) 0.9285(4) -0.21011(13)
H11 H 0.0348 0.8757 -0.2347
C21 C -0.0251(2) 1.0686(4) -0.22085(12)
C22 C -0.0638(3) 1.1464(4) -0.18423(13)
H12 H -0.0864 1.2416 -0.1911
C23 C -0.0695(2) 1.0840(4) -0.13736(13)
H13 H -0.0960 1.1376 -0.1131
C24 C -0.1977(2) 0.9086(4) 0.02527(12)
C25 C -0.2823(2) 0.9314(4) -0.00140(13)
H14 H -0.2913 0.9084 -0.0355
C26 C -0.1865(2) 0.9405(4) 0.07656(13)
H15 H -0.1309 0.9237 0.0950
C27 C 0.3180(2) 0.3803(4) 0.09288(13)
C28 C 0.3576(3) -0.0692(5) 0.20180(17)
C29 C 0.3021(4) -0.3140(5) 0.1780(2)
H16 H 0.2742 -0.3955 0.1935
H17 H 0.3578 -0.3466 0.1668
H18 H 0.2625 -0.2790 0.1497
C30 C 0.2941(4) -0.2166(6) 0.2643(2)
H19 H 0.2674 -0.3133 0.2666
H20 H 0.2513 -0.1417 0.2713
H21 H 0.3466 -0.2093 0.2883
N1 N 0.3197(2) -0.1948(4) 0.21385(15)
O5 O 0.3827(2) -0.0450(3) 0.15959(12)
O6 O 0.29955(18) 0.2785(3) 0.12171(11)
O7 O 0.39780(17) 0.4026(3) 0.08280(10)
Cd1 Cd 0.441163(16) 0.18772(3) 0.141489(9)
O1C O 0.5047(2) 0.4326(4) 0.19345(10)
O2C O 0.4460(2) 0.2304(3) 0.22324(10)
O3_2 O 0.59463(19) 0.1158(4) 0.14380(11)
O4_2 O 0.50677(17) 0.0966(3) 0.07367(10)
Cd1_2 Cd -0.558837(16) 1.18772(3) 0.141489(9)
Cd1C Cd -0.058837(16) 1.31228(3) -0.358511(9)
C31 C 0.1129(10) 1.433(2) -0.1516(6)
C32 C 0.1922(8) 1.297(2) -0.2309(6)
H22 H 0.2047 1.3268 -0.2639
H23 H 0.1540 1.2107 -0.2335
H24 H 0.2478 1.2735 -0.2109
C33 C 0.1283(14) 1.5457(15) -0.2376(5)
H25 H 0.1538 1.5276 -0.2684
H26 H 0.1555 1.6328 -0.2216
H27 H 0.0645 1.5607 -0.2446
N2 N 0.1445(6) 1.4248(11) -0.2061(4)
O8 O 0.092(4) 1.507(4) -0.1431(18)
loop_
_geom_bond_atom_site_label_1
_geom_bond_atom_site_label_2
_geom_bond_site_symmetry_1
_geom_bond_site_symmetry_2
C1 H1 1_555 1_555
C2 C1 1_555 1_555
C3 C2 1_555 1_555
H2 C3 1_555 1_555
C4 C2 1_555 1_555
C5 O1 1_555 1_555
O1 Cd1C 1_555 1_555
O2 C5 1_555 1_555
O3 C4 1_555 1_555
O4 C4 1_555 1_555
C6 C7 1_555 1_555
C7 H3 1_555 1_555
C8 C7 1_555 1_555
H4 C8 1_555 1_555
C9 C8 1_555 1_555
C10 C9 1_555 1_555
H5 C10 1_555 1_555
C11 C6 1_555 1_555
H6 C11 1_555 1_555
C12 C9 1_555 1_555
C13 C12 1_555 1_555
H7 C13 1_555 1_555
C14 C13 1_555 1_555
C15 C14 1_555 1_555
H8 C15 1_555 1_555
C16 C15 1_555 1_555
C17 C12 1_555 1_555
H9 C17 1_555 1_555
C18 C14 1_555 1_555
C19 C18 1_555 1_555
H10 C19 1_555 1_555
C20 C19 1_555 1_555
H11 C20 1_555 1_555
C21 C5 1_555 1_555
C22 C21 1_555 1_555
H12 C22 1_555 1_555
C23 C18 1_555 1_555
H13 C23 1_555 1_555
C24 C16 1_555 1_555
C25 C1 1_555 1_555
H14 C25 1_555 1_555
C26 C3 1_555 1_555
H15 C26 1_555 1_555
C27 C6 1_555 1_555
C28 N1 1_555 1_555
C29 H16 1_555 1_555
H17 C29 1_555 1_555
H18 C29 1_555 1_555
C30 H19 1_555 1_555
H20 C30 1_555 1_555
H21 C30 1_555 1_555
N1 C29 1_555 1_555
O5 C28 1_555 1_555
O6 C27 1_555 1_555
O7 C27 1_555 1_555
Cd1 O5 1_555 1_555
C31 N2 1_555 1_555
C32 H22 1_555 1_555
H23 C32 1_555 1_555
H24 C32 1_555 1_555
C33 H25 1_555 1_555
H26 C33 1_555 1_555
H27 C33 1_555 1_555
N2 C32 1_555 1_555
O8 C31 1_555 1_555
O1C Cd1 1_555 1_555
O2C Cd1 1_555 1_555
O3_2 Cd1 1_555 1_555
O4_2 Cd1 1_555 1_555
Cd1_2 O3 1_555 1_555
Cd1C O2 1_555 1_555
O4 Cd1_2 1_555 1_555
C10 C11 1_555 1_555
C16 C17 1_555 1_555
C20 C21 1_555 1_555
C22 C23 1_555 1_555
C24 C25 1_555 1_555
C24 C26 1_555 1_555
C30 N1 1_555 1_555
O6 Cd1 1_555 1_555
O7 Cd1 1_555 1_555
C33 N2 1_555 1_555

#END
