
#######################################################################
#
#                 Cambridge Crystallographic Data Centre
#                                CCDC 
#
#######################################################################
#
# If this CIF has been generated from an entry in the Cambridge 
# Structural Database, then it will include bibliographic, chemical, 
# crystal, experimental, refinement or atomic coordinate data resulting 
# from the CCDC's data processing and validation procedures.
#
#######################################################################

data_HUWLUI
_chemical_formula_moiety         '(C21 H31 O17 P1 Th1)n'
_symmetry_cell_setting           triclinic
_symmetry_space_group_name_H-M   'P -1'
_symmetry_Int_Tables_number      2
_space_group_name_Hall           '-P 1'
loop_
_symmetry_equiv_pos_site_id
_symmetry_equiv_pos_as_xyz
1 x,y,z
2 -x,-y,-z
_cell_length_a                   11.797(2)
_cell_length_b                   12.889(2)
_cell_length_c                   14.037(3)
_cell_angle_alpha                66.065(4)
_cell_angle_beta                 78.731(4)
_cell_angle_gamma                69.924(4)
_cell_volume                     1828.35
loop_
_atom_site_label
_atom_site_type_symbol
_atom_site_fract_x
_atom_site_fract_y
_atom_site_fract_z
Th1 Th 0.53975(3) 0.55039(3) 0.60113(3)
P1 P 0.7234(2) 0.6557(3) 0.7215(2)
O1 O 0.5308(7) 0.3908(7) 0.5662(6)
O2 O 0.6658(8) 0.5981(8) 0.6786(6)
O3 O 0.7165(9) 0.3653(9) 0.6861(8)
C1 C 0.6671(11) 0.8141(10) 0.6641(9)
C2 C 0.8830(10) 0.6107(11) 0.6927(9)
C3 C 0.5466(11) 0.8704(10) 0.6877(9)
H1 H 0.4984 0.8261 0.7358
C4 C 0.6814(13) 0.4983(12) 0.9147(10)
H2 H 0.6992 0.4457 0.8804
C5 C 0.6897(10) 0.6132(11) 0.8592(9)
C6 C 0.7378(12) 0.8793(12) 0.5897(11)
H3 H 0.8174 0.8416 0.5732
C7 C 0.6642(13) 0.6921(12) 0.9099(10)
H4 H 0.6715 0.7682 0.8735
C8 C 0.9620(13) 0.6462(18) 0.7249(14)
H5 H 0.9333 0.6918 0.7664
C9 C 0.9280(12) 0.5379(17) 0.6375(15)
H6 H 0.8769 0.5070 0.6213
O4 O 0.4167(8) 1.2450(8) 0.5317(7)
O5 O 0.5920(9) 1.2418(8) 0.4425(8)
C10 C 0.5217(12) 1.1877(11) 0.5103(11)
C11 C 0.5000(11) 0.9908(11) 0.6396(10)
H7 H 0.4209 1.0290 0.6569
C12 C 0.5712(11) 1.0558(11) 0.5650(9)
C13 C 0.6895(13) 1.0007(12) 0.5398(12)
H8 H 0.7364 1.0448 0.4895
C14 C 1.0508(12) 0.5093(18) 0.6049(16)
H9 H 1.0803 0.4612 0.5657
C15 C 1.0840(12) 0.6135(17) 0.6950(14)
H10 H 1.1374 0.6343 0.7197
C16 C 1.1275(10) 0.5513(10) 0.6301(9)
C17 C 1.2569(10) 0.5269(10) 0.5880(9)
O6 O 1.3263(7) 0.5569(8) 0.6221(7)
O7 O 1.2825(8) 0.4870(10) 0.5174(7)
O8 O 0.5705(8) 0.4023(8) 1.2342(7)
O9 O 0.5153(9) 0.5888(8) 1.2187(7)
C18 C 0.6160(10) 0.5425(11) 1.0699(9)
C19 C 0.5669(11) 0.5070(11) 1.1823(9)
C20 C 0.6473(12) 0.4620(12) 1.0196(10)
H11 H 0.6451 0.3843 1.0568
C21 C 0.6272(13) 0.6561(12) 1.0163(10)
H12 H 0.6102 0.7082 1.0511
Th1_2 Th 1.53975(3) 0.55039(3) 0.60113(3)
Th1A Th 0.46025(3) 0.44961(3) 0.39887(3)
Th1A_2 Th 0.46025(3) 0.44961(3) 1.39887(3)
Th1A_3 Th 0.46025(3) 1.44961(3) 0.39887(3)
Th1A_4 Th 1.46025(3) 0.44961(3) 0.39887(3)
O1A O 0.4692(7) 0.6092(7) 0.4338(6)
O4A O 0.5833(8) 0.7550(8) 0.4683(7)
O5A O 0.4080(9) 0.7582(8) 0.5575(8)
O6_2 O 0.3263(7) 0.5569(8) 0.6221(7)
O7A O 0.7175(8) 0.5130(10) 0.4826(7)
O8A O 0.4295(8) 0.5977(8) 0.7658(7)
O9A O 0.4847(9) 0.4112(8) 0.7813(7)
O10 O 0.6035(18) 0.7570(13) 1.2445(11)
O11 O 0.7709(14) 0.2030(13) 0.5924(12)
O12 O 0.753(2) 0.1945(19) 0.8881(15)
O13 O 0.493(3) 0.990(2) 1.1054(16)
O14 O 0.749(3) 0.1888(18) 1.236(2)
O15 O 1.182(3) 0.207(2) 0.623(3)
O16 O 0.659(3) 0.111(3) 1.090(2)
O17 O 0.275(3) 0.963(3) 1.203(2)
loop_
_geom_bond_atom_site_label_1
_geom_bond_atom_site_label_2
_geom_bond_site_symmetry_1
_geom_bond_site_symmetry_2
Th1 O1 1_555 1_555
P1 O2 1_555 1_555
O1 Th1A 1_555 1_555
O2 Th1 1_555 1_555
O3 Th1 1_555 1_555
C1 P1 1_555 1_555
C2 P1 1_555 1_555
C3 C1 1_555 1_555
H1 C3 1_555 1_555
C4 H2 1_555 1_555
C5 P1 1_555 1_555
C6 C1 1_555 1_555
H3 C6 1_555 1_555
C7 C5 1_555 1_555
H4 C7 1_555 1_555
C8 C2 1_555 1_555
H5 C8 1_555 1_555
C9 C2 1_555 1_555
H6 C9 1_555 1_555
O4 C10 1_555 1_555
O5 C10 1_555 1_555
C10 C12 1_555 1_555
C11 C3 1_555 1_555
H7 C11 1_555 1_555
C12 C11 1_555 1_555
C13 C6 1_555 1_555
H8 C13 1_555 1_555
C14 C9 1_555 1_555
H9 C14 1_555 1_555
C15 C8 1_555 1_555
H10 C15 1_555 1_555
C16 C14 1_555 1_555
C17 C16 1_555 1_555
O6 C17 1_555 1_555
O7 C17 1_555 1_555
O8 C19 1_555 1_555
O9 C19 1_555 1_555
C18 C19 1_555 1_555
C20 C4 1_555 1_555
H11 C20 1_555 1_555
C21 C7 1_555 1_555
H12 C21 1_555 1_555
Th1_2 O6 1_555 1_555
Th1A O1A 1_555 1_555
Th1A_2 O8 1_555 1_555
Th1A_3 O4 1_555 1_555
Th1A_4 O7 1_555 1_555
O1A Th1 1_555 1_555
O4A Th1 1_555 1_555
O5A Th1 1_555 1_555
O6_2 Th1 1_555 1_555
O7A Th1 1_555 1_555
O8A Th1 1_555 1_555
O9A Th1 1_555 1_555
C4 C5 1_555 1_555
O5 Th1A_3 1_555 1_555
C12 C13 1_555 1_555
C15 C16 1_555 1_555
O9 Th1A_2 1_555 1_555
C18 C20 1_555 1_555
C18 C21 1_555 1_555

#END
