
#######################################################################
#
#                 Cambridge Crystallographic Data Centre
#                                CCDC 
#
#######################################################################
#
# If this CIF has been generated from an entry in the Cambridge 
# Structural Database, then it will include bibliographic, chemical, 
# crystal, experimental, refinement or atomic coordinate data resulting 
# from the CCDC's data processing and validation procedures.
#
#######################################################################

data_HUWMAP
_chemical_formula_moiety         '(C21 H12 Cl2 O7 P1 Th1 1-)n'
_symmetry_cell_setting           orthorhombic
_symmetry_space_group_name_H-M   'P 21 21 2'
_symmetry_Int_Tables_number      18
_space_group_name_Hall           'P 2 2ab'
loop_
_symmetry_equiv_pos_site_id
_symmetry_equiv_pos_as_xyz
1 x,y,z
2 -x,-y,z
3 1/2-x,1/2+y,-z
4 1/2+x,1/2-y,-z
_cell_length_a                   21.735(2)
_cell_length_b                   23.205(2)
_cell_length_c                   10.5286(10)
_cell_angle_alpha                90
_cell_angle_beta                 90
_cell_angle_gamma                90
_cell_volume                     5310.21
loop_
_atom_site_label
_atom_site_type_symbol
_atom_site_fract_x
_atom_site_fract_y
_atom_site_fract_z
Th1 Th 0.031610(15) 0.282680(16) 1.01490(3)
P1 P -0.09407(11) 0.34976(12) 0.8066(2)
O1 O -0.0508(3) 0.3158(3) 0.8868(7)
C1 C -0.0361(5) 0.3255(5) 0.3936(9)
C2 C -0.0844(5) 0.4401(5) 0.9748(11)
H1 H -0.0841 0.4116 1.0370
C3 C -0.0743(5) 0.3411(5) 0.6416(9)
C4 C -0.0928(6) 0.3432(6) 0.4177(11)
H2 H -0.1189 0.3518 0.3503
C5 C -0.0787(5) 0.4963(5) 1.0077(11)
H3 H -0.0752 0.5065 1.0929
C6 C -0.1149(5) 0.3492(6) 0.5436(10)
H4 H -0.1558 0.3583 0.5593
C7 C -0.0133(5) 0.3277(8) 0.6150(11)
H5 H 0.0150 0.3237 0.6806
C8 C 0.0046(5) 0.3207(8) 0.4936(12)
H6 H 0.0456 0.3123 0.4766
C9 C -0.0908(4) 0.4251(5) 0.8460(10)
C10 C -0.0674(4) 0.6018(5) 0.9513(9)
C11 C -0.0780(4) 0.5395(5) 0.9131(10)
O2 O -0.0508(3) 0.6129(3) 1.0625(8)
O3 O -0.0735(3) 0.6416(4) 0.8684(7)
Cl1 Cl 0.0680(2) 0.2228(2) 0.8020(4)
Cl2 Cl -0.04615(17) 0.19135(17) 1.0553(5)
O4 O -0.0506(3) 0.3218(4) 0.1674(7)
C12 C -0.0158(5) 0.3129(5) 0.2641(10)
C13 C -0.0875(6) 0.5255(5) 0.7884(11)
H7 H -0.0903 0.5541 0.7269
C14 C -0.2217(5) 0.3576(5) 0.8037(12)
H8 H -0.2162 0.3940 0.7686
C15 C -0.0930(6) 0.4675(5) 0.7547(11)
H9 H -0.0983 0.4575 0.6698
C16 C -0.1708(4) 0.3246(5) 0.8325(10)
O5 O 0.0388(3) 0.2934(4) 0.2480(6)
C17 C -0.2872(5) 0.2827(6) 0.8812(10)
C18 C -0.2810(5) 0.3375(5) 0.8259(11)
H10 H -0.3153 0.3595 0.8049
C19 C -0.3519(5) 0.2601(5) 0.9103(10)
C20 C -0.2367(5) 0.2519(6) 0.9183(16)
H11 H -0.2417 0.2176 0.9625
O6 O -0.3545(3) 0.2101(4) 0.9573(8)
O7 O -0.3962(3) 0.2936(4) 0.8992(8)
C21 C -0.1780(6) 0.2718(6) 0.8901(15)
H12 H -0.1437 0.2496 0.9101
Th1_2 Th 0.031610(15) 0.282680(16) 0.01490(3)
Th1A Th -0.031610(15) 0.717320(16) 1.01490(3)
Th1C Th -0.468390(15) 0.217320(16) 0.98510(3)
O2A O 0.0508(3) 0.3871(3) 1.0625(8)
O3A O 0.0735(3) 0.3584(4) 0.8684(7)
O4_2 O -0.0506(3) 0.3218(4) 1.1674(7)
O5_2 O 0.0388(3) 0.2934(4) 1.2480(6)
O6C O 0.1455(3) 0.2899(4) 1.0427(8)
O7C O 0.1038(3) 0.2064(4) 1.1008(8)
loop_
_geom_bond_atom_site_label_1
_geom_bond_atom_site_label_2
_geom_bond_site_symmetry_1
_geom_bond_site_symmetry_2
Th1 O1 1_555 1_555
P1 O1 1_555 1_555
C1 C4 1_555 1_555
C2 H1 1_555 1_555
C3 P1 1_555 1_555
C4 H2 1_555 1_555
C5 C2 1_555 1_555
H3 C5 1_555 1_555
C6 C3 1_555 1_555
H4 C6 1_555 1_555
C7 C3 1_555 1_555
H5 C7 1_555 1_555
C8 C1 1_555 1_555
H6 C8 1_555 1_555
C9 P1 1_555 1_555
C10 C11 1_555 1_555
C11 C5 1_555 1_555
O2 C10 1_555 1_555
O3 C10 1_555 1_555
Cl1 Th1 1_555 1_555
Cl2 Th1 1_555 1_555
O4 C12 1_555 1_555
C12 C1 1_555 1_555
C13 C11 1_555 1_555
H7 C13 1_555 1_555
C14 H8 1_555 1_555
C15 C9 1_555 1_555
H9 C15 1_555 1_555
C16 P1 1_555 1_555
O5 C12 1_555 1_555
C17 C18 1_555 1_555
C18 C14 1_555 1_555
H10 C18 1_555 1_555
C19 C17 1_555 1_555
C20 C17 1_555 1_555
H11 C20 1_555 1_555
O6 C19 1_555 1_555
O7 C19 1_555 1_555
C21 C16 1_555 1_555
H12 C21 1_555 1_555
Th1_2 O4 1_555 1_555
Th1A O2 1_555 1_555
Th1C O6 1_555 1_555
O2A Th1 1_555 1_555
O3A Th1 1_555 1_555
O4_2 Th1 1_555 1_555
O5_2 Th1 1_555 1_555
O6C Th1 1_555 1_555
O7C Th1 1_555 1_555
C2 C9 1_555 1_555
C4 C6 1_555 1_555
C7 C8 1_555 1_555
O3 Th1A 1_555 1_555
C13 C15 1_555 1_555
C14 C16 1_555 1_555
O5 Th1_2 1_555 1_555
C20 C21 1_555 1_555
O7 Th1C 1_555 1_555

#END
