
#######################################################################
#
#                 Cambridge Crystallographic Data Centre
#                                CCDC 
#
#######################################################################
#
# If this CIF has been generated from an entry in the Cambridge 
# Structural Database, then it will include bibliographic, chemical, 
# crystal, experimental, refinement or atomic coordinate data resulting 
# from the CCDC's data processing and validation procedures.
#
#######################################################################

data_GOZNAM
_chemical_formula_moiety         'C64 H66 Mn7 N28 O13 W2'
_symmetry_cell_setting           monoclinic
_symmetry_space_group_name_H-M   'C 2/c'
_symmetry_Int_Tables_number      15
_space_group_name_Hall           '-C 2yc'
loop_
_symmetry_equiv_pos_site_id
_symmetry_equiv_pos_as_xyz
1 x,y,z
2 -x,y,1/2-z
3 1/2+x,1/2+y,z
4 1/2-x,1/2+y,1/2-z
5 -x,-y,-z
6 x,-y,1/2+z
7 1/2-x,1/2-y,-z
8 1/2+x,1/2-y,1/2+z
_cell_length_a                   12.6227(8)
_cell_length_b                   24.6013(16)
_cell_length_c                   32.699(2)
_cell_angle_alpha                90
_cell_angle_beta                 99.702(2)
_cell_angle_gamma                90
_cell_volume                     10008.9
loop_
_atom_site_label
_atom_site_type_symbol
_atom_site_fract_x
_atom_site_fract_y
_atom_site_fract_z
_atom_site_U_iso_or_equiv
_atom_site_thermal_displace_type
C27 C 0.4290(6) 0.3844(3) 0.3961(2) 0.0413 Uani
H22 H 0.4677 0.4166 0.3960 0.0500 Uiso
C28 C 0.4872(6) 0.3331(2) 0.3996(2) 0.0381 Uani
H23 H 0.5611 0.3323 0.4003 0.0460 Uiso
C29 C 0.4301(6) 0.2853(3) 0.4018(2) 0.0396 Uani
C30 C 0.3176(6) 0.2864(3) 0.3987(2) 0.0450 Uani
H24 H 0.2765 0.2550 0.3987 0.0540 Uiso
C31 C 0.2702(6) 0.3414(3) 0.3956(2) 0.0442 Uani
H25 H 0.1965 0.3434 0.3955 0.0530 Uiso
C32 C 0.4819(6) 0.2335(3) 0.4066(2) 0.0388 Uani
H26 H 0.4396 0.2037 0.4107 0.0470 Uiso
C33 C 0.5872(6) 0.2240(3) 0.4057(2) 0.0386 Uani
H27 H 0.6291 0.2543 0.4024 0.0460 Uiso
C34 C 0.7924(6) 0.1173(3) 0.4009(2) 0.0406 Uani
H28 H 0.8603 0.1141 0.3936 0.0490 Uiso
C35 C 0.7472(5) 0.1667(3) 0.39923(19) 0.0377 Uani
H29 H 0.7834 0.1971 0.3917 0.0450 Uiso
C36 C 0.6428(5) 0.1715(3) 0.4093(2) 0.0386 Uani
C37 C 0.5920(5) 0.1260(3) 0.42082(18) 0.0339 Uani
H30 H 0.5233 0.1278 0.4275 0.0410 Uiso
C38 C 0.6503(6) 0.0749(2) 0.4222(2) 0.0336 Uani
H31 H 0.6183 0.0435 0.4303 0.0400 Uiso
N12 N 0.3194(5) 0.3872(2) 0.39291(19) 0.0446 Uani
N13 N 0.7450(5) 0.0716(2) 0.41250(17) 0.0360 Uani
O4 O 0.2835(5) 0.9459(2) 0.30477(17) 0.0622 Uani
H32 H 0.2504 0.9733 0.2930 0.0750 Uiso
H33 H 0.2837 0.9474 0.3307 0.0750 Uiso
O5 O 0.4926(5) 0.9415(2) 0.17020(19) 0.0638 Uani
H34 H 0.4465 0.9373 0.1483 0.0770 Uiso
H35 H 0.5260 0.9712 0.1687 0.0770 Uiso
O6 O 0.5601(16) 0.9804(8) 0.0431(6) 0.0498 Uani
H36 H 0.6133 0.9617 0.0382 0.0600 Uiso
H37 H 0.5753 1.0140 0.0424 0.0600 Uiso
O7 O 0.5140(17) 0.9096(8) 0.0505(6) 0.0544 Uani
H38 H 0.5582 0.8947 0.0698 0.0660 Uiso
H39 H 0.4513 0.9087 0.0568 0.0660 Uiso
O8 O 0.5957(18) 0.8376(8) 0.1960(6) 0.0602 Uani
H40 H 0.5752 0.8047 0.1964 0.0720 Uiso
H41 H 0.6627 0.8395 0.2052 0.0720 Uiso
O9 O 0.0562(14) 0.2787(7) 0.0771(5) 0.0440 Uani
H42 H 0.0853 0.3093 0.0838 0.0530 Uiso
H43 H -0.0094 0.2834 0.0665 0.0530 Uiso
O10 O 0.5000 0.3341(5) 0.7500 0.0634 Uani
C1 C 0.1877(5) 1.0390(3) 0.3044(2) 0.0344 Uani
C2 C 0.1974(5) 0.9793(3) 0.37472(18) 0.0326 Uani
C3 C 0.0230(5) 1.0513(2) 0.3404(2) 0.0306 Uani
C4 C 0.1118(5) 1.0433(3) 0.4205(2) 0.0371 Uani
C5 C 0.0976(5) 1.1377(3) 0.3813(2) 0.0362 Uani
C6 C 0.2865(6) 1.1003(3) 0.4221(2) 0.0405 Uani
C7 C 0.2436(5) 1.1368(3) 0.3372(2) 0.0379 Uani
C8 C 0.3527(6) 1.0438(3) 0.3646(2) 0.0382 Uani
C9 C 0.1730(5) 0.8733(3) 0.2071(2) 0.0397 Uani
H1 H 0.2468 0.8734 0.2075 0.0480 Uiso
C10 C 0.1230(6) 0.8242(3) 0.2065(2) 0.0458 Uani
H2 H 0.1639 0.7926 0.2106 0.0550 Uiso
C11 C 0.0068(6) 0.8207(3) 0.1996(2) 0.0425 Uani
C12 C -0.0459(6) 0.8730(3) 0.1981(2) 0.0384 Uani
H3 H -0.1205 0.8752 0.1944 0.0460 Uiso
C13 C 0.0141(5) 0.9185(2) 0.20206(19) 0.0324 Uani
H4 H -0.0220 0.9515 0.2014 0.0390 Uiso
C14 C -0.0652(7) 0.7725(3) 0.1977(2) 0.0490 Uani
H5 H -0.1394 0.7767 0.1941 0.0590 Uiso
C15 C -0.0190(6) 0.7217(3) 0.2014(2) 0.0436 Uani
H6 H 0.0549 0.7171 0.2034 0.0520 Uiso
C16 C -0.1078(6) 0.5817(3) 0.1940(2) 0.0398 Uani
H7 H -0.0778 0.5489 0.1875 0.0480 Uiso
C17 C -0.0480(6) 0.6276(3) 0.1912(2) 0.0392 Uani
H8 H 0.0181 0.6264 0.1823 0.0470 Uiso
C18 C -0.0908(6) 0.6750(3) 0.2022(2) 0.0390 Uani
C19 C -0.1966(6) 0.6753(3) 0.2147(2) 0.0450 Uani
H9 H -0.2294 0.7072 0.2213 0.0540 Uiso
C20 C -0.2429(5) 0.6268(3) 0.2160(2) 0.0372 Uani
H10 H -0.3085 0.6258 0.2254 0.0450 Uiso
C21 C 0.1543(6) 0.9073(3) 0.4820(2) 0.0391 Uani
H11 H 0.1885 0.9364 0.4715 0.0470 Uiso
C22 C 0.2047(5) 0.8556(3) 0.48453(19) 0.0364 Uani
H12 H 0.2724 0.8519 0.4772 0.0430 Uiso
C23 C 0.1537(5) 0.8104(3) 0.4979(2) 0.0378 Uani
C24 C 0.0516(6) 0.8194(3) 0.5081(2) 0.0397 Uani
H13 H 0.0111 0.7909 0.5160 0.0480 Uiso
C25 C 0.0132(6) 0.8720(3) 0.5060(2) 0.0405 Uani
H14 H -0.0533 0.8776 0.5140 0.0480 Uiso
C26 C 0.2042(5) 0.7568(3) 0.50328(19) 0.0377 Uani
H15 H 0.1636 0.7294 0.5127 0.0450 Uiso
Mn1 Mn -0.0000 1.0000 0.5000 0.0261 Uani
Mn2 Mn 0.21204(7) 0.99993(4) 0.20831(3) 0.0265 Uani
N1 N 0.1874(4) 1.0236(2) 0.27170(17) 0.0343 Uani
N2 N 0.2044(5) 0.9331(2) 0.3795(2) 0.0408 Uani
N3 N -0.0611(5) 1.0398(2) 0.32343(16) 0.0348 Uani
N4 N 0.0726(4) 1.0304(2) 0.44747(17) 0.0344 Uani
N5 N 0.0527(4) 1.1765(2) 0.39032(17) 0.0373 Uani
N6 N 0.3396(4) 1.1188(2) 0.45213(17) 0.0379 Uani
N7 N 0.2744(5) 1.1735(2) 0.32048(18) 0.0426 Uani
N8 N 0.4349(5) 1.0262(2) 0.36274(17) 0.0369 Uani
N9 N 0.1249(5) 0.9202(2) 0.20707(17) 0.0374 Uani
N10 N -0.2035(4) 0.57906(18) 0.20509(15) 0.0264 Uani
N11 N 0.0624(4) 0.9157(2) 0.49370(15) 0.0328 Uani
O1 O -0.1516(3) 0.98277(16) 0.45729(13) 0.0347 Uani
H16 H -0.1403 0.9535 0.4391 0.0420 Uiso
H17 H -0.1741 1.0146 0.4412 0.0420 Uiso
O2 O 0.3613(3) 0.95868(18) 0.23158(13) 0.0384 Uani
H18 H 0.3937 0.9465 0.2087 0.0460 Uiso
H19 H 0.3468 0.9280 0.2479 0.0460 Uiso
O3 O 0.2582(3) 0.97959(17) 0.14734(12) 0.0344 Uani
H20 H 0.2660 1.0125 0.1323 0.0410 Uiso
H21 H 0.2032 0.9574 0.1317 0.0410 Uiso
W1 W 0.187471(19) 1.067191(9) 0.367841(7) 0.0257 Uani
C21F C 0.3457(6) 0.5927(3) 0.5180(2) 0.0391 Uani
H11F H 0.3115 0.5636 0.5285 0.0470 Uiso
C22F C 0.2953(5) 0.6444(3) 0.51547(19) 0.0364 Uani
H12F H 0.2276 0.6481 0.5228 0.0430 Uiso
C23F C 0.3463(5) 0.6896(3) 0.5021(2) 0.0378 Uani
C24F C 0.4484(6) 0.6806(3) 0.4919(2) 0.0397 Uani
H13F H 0.4889 0.7091 0.4840 0.0480 Uiso
C25F C 0.4868(6) 0.6280(3) 0.4940(2) 0.0405 Uani
H14F H 0.5533 0.6224 0.4860 0.0480 Uiso
C26F C 0.2958(5) 0.7432(3) 0.49672(19) 0.0377 Uani
H15F H 0.3364 0.7706 0.4873 0.0450 Uiso
N11F N 0.4376(4) 0.5843(2) 0.50630(15) 0.0328 Uani
C1A C -0.1877(5) 1.0390(3) 0.1956(2) 0.0344 Uani
C2A C -0.1974(5) 0.9793(3) 0.12528(18) 0.0326 Uani
C3A C -0.0230(5) 1.0513(2) 0.1596(2) 0.0306 Uani
C4A C -0.1118(5) 1.0433(3) 0.0795(2) 0.0371 Uani
C5A C -0.0976(5) 1.1377(3) 0.1187(2) 0.0362 Uani
C6A C -0.2865(6) 1.1003(3) 0.0779(2) 0.0405 Uani
C7A C -0.2436(5) 1.1368(3) 0.1628(2) 0.0379 Uani
C8A C -0.3527(6) 1.0438(3) 0.1354(2) 0.0382 Uani
C9A C -0.1730(5) 0.8733(3) 0.2929(2) 0.0397 Uani
H1A H -0.2468 0.8734 0.2925 0.0480 Uiso
C10A C -0.1230(6) 0.8242(3) 0.2935(2) 0.0458 Uani
H2A H -0.1639 0.7926 0.2894 0.0550 Uiso
C11A C -0.0068(6) 0.8207(3) 0.3004(2) 0.0425 Uani
C12A C 0.0459(6) 0.8730(3) 0.3019(2) 0.0384 Uani
H3A H 0.1205 0.8752 0.3056 0.0460 Uiso
C13A C -0.0141(5) 0.9185(2) 0.29794(19) 0.0324 Uani
H4A H 0.0220 0.9515 0.2986 0.0390 Uiso
C14A C 0.0652(7) 0.7725(3) 0.3023(2) 0.0490 Uani
H5A H 0.1394 0.7767 0.3059 0.0590 Uiso
C15A C 0.0190(6) 0.7217(3) 0.2986(2) 0.0436 Uani
H6A H -0.0549 0.7171 0.2966 0.0520 Uiso
C16A C 0.1078(6) 0.5817(3) 0.3060(2) 0.0398 Uani
H7A H 0.0778 0.5489 0.3125 0.0480 Uiso
C17A C 0.0480(6) 0.6276(3) 0.3088(2) 0.0392 Uani
H8A H -0.0181 0.6264 0.3177 0.0470 Uiso
C18A C 0.0908(6) 0.6750(3) 0.2978(2) 0.0390 Uani
C19A C 0.1966(6) 0.6753(3) 0.2853(2) 0.0450 Uani
H9A H 0.2294 0.7072 0.2787 0.0540 Uiso
C20A C 0.2429(5) 0.6268(3) 0.2840(2) 0.0372 Uani
H10A H 0.3085 0.6258 0.2746 0.0450 Uiso
Mn2A Mn -0.21204(7) 0.99993(4) 0.29169(3) 0.0265 Uani
N1A N -0.1874(4) 1.0236(2) 0.22830(17) 0.0343 Uani
N2A N -0.2044(5) 0.9331(2) 0.1205(2) 0.0408 Uani
N3A N 0.0611(5) 1.0398(2) 0.17657(16) 0.0348 Uani
N4A N -0.0726(4) 1.0304(2) 0.05253(17) 0.0344 Uani
N5A N -0.0527(4) 1.1765(2) 0.10968(17) 0.0373 Uani
N6A N -0.3396(4) 1.1188(2) 0.04787(17) 0.0379 Uani
N7A N -0.2744(5) 1.1735(2) 0.17952(18) 0.0426 Uani
N8A N -0.4349(5) 1.0262(2) 0.13726(17) 0.0369 Uani
N9A N -0.1249(5) 0.9202(2) 0.29293(17) 0.0374 Uani
N10A N 0.2035(4) 0.57906(18) 0.29491(15) 0.0264 Uani
O2A O -0.3613(3) 0.95868(18) 0.26842(13) 0.0384 Uani
H18A H -0.3937 0.9465 0.2913 0.0460 Uiso
H19A H -0.3468 0.9280 0.2521 0.0460 Uiso
O3A O -0.2582(3) 0.97959(17) 0.35266(12) 0.0344 Uani
H20A H -0.2660 1.0125 0.3677 0.0410 Uiso
H21A H -0.2032 0.9574 0.3683 0.0410 Uiso
W1A W -0.187471(19) 1.067191(9) 0.132159(7) 0.0257 Uani
O1D O 0.1516(3) 1.01723(16) 0.54271(13) 0.0347 Uani
H16D H 0.1403 1.0465 0.5609 0.0420 Uiso
H17D H 0.1741 0.9854 0.5588 0.0420 Uiso
Mn1A Mn 0.0000 1.0000 0.0000 0.0261 Uani
Mn1B Mn 0.5000 0.5000 0.5000 0.0261 Uani
Mn2B Mn -0.28796(7) 0.49993(4) 0.20831(3) 0.0265 Uani
Mn2C Mn 0.28796(7) 0.49993(4) 0.29169(3) 0.0265 Uani
N4D N -0.0726(4) 0.9696(2) 0.55253(17) 0.0344 Uani
N10B N 0.2965(4) 1.07906(18) 0.20509(15) 0.0264 Uani
N10C N -0.2965(4) 1.07906(18) 0.29491(15) 0.0264 Uani
N11D N -0.0624(4) 1.0843(2) 0.50630(15) 0.0328 Uani
loop_
_atom_site_aniso_label
_atom_site_aniso_U_11
_atom_site_aniso_U_22
_atom_site_aniso_U_33
_atom_site_aniso_U_23
_atom_site_aniso_U_13
_atom_site_aniso_U_12
C27 0.056(5) 0.029(3) 0.042(4) -0.011(3) 0.017(4) 0.007(3)
C28 0.048(4) 0.030(3) 0.037(4) -0.012(3) 0.009(3) 0.004(3)
C29 0.042(4) 0.043(4) 0.032(4) 0.014(3) 0.001(3) 0.015(3)
C30 0.048(5) 0.046(4) 0.048(5) 0.014(3) 0.028(4) 0.007(3)
C31 0.039(4) 0.035(4) 0.061(5) 0.009(3) 0.015(4) 0.009(3)
C32 0.041(4) 0.042(4) 0.036(4) -0.008(3) 0.014(3) 0.012(3)
C33 0.042(4) 0.032(3) 0.043(4) 0.010(3) 0.011(3) 0.002(3)
C34 0.037(4) 0.043(4) 0.041(4) -0.010(3) 0.004(3) -0.003(3)
C35 0.032(4) 0.045(4) 0.030(4) 0.015(3) -0.012(3) 0.010(3)
C36 0.038(4) 0.041(4) 0.035(4) -0.022(3) 0.001(3) 0.005(3)
C37 0.032(4) 0.043(4) 0.024(3) 0.008(3) -0.003(3) 0.009(3)
C38 0.037(4) 0.030(3) 0.028(4) 0.010(3) -0.011(3) 0.006(3)
N12 0.050(4) 0.033(3) 0.055(4) 0.011(3) 0.021(3) 0.012(3)
N13 0.031(3) 0.042(3) 0.029(3) -0.010(2) -0.012(3) 0.002(2)
O4 0.069(4) 0.066(4) 0.051(4) 0.014(3) 0.008(3) 0.009(3)
O5 0.067(4) 0.050(3) 0.076(4) 0.009(3) 0.017(3) 0.008(3)
O6 0.050(13) 0.045(11) 0.047(12) -0.015(9) -0.013(10) 0.013(9)
O7 0.065(15) 0.048(12) 0.043(12) 0.007(10) -0.012(11) -0.015(11)
O8 0.062(14) 0.055(13) 0.058(14) 0.017(11) -0.006(11) 0.011(11)
O9 0.031(10) 0.047(11) 0.047(12) 0.004(9) -0.014(9) -0.012(8)
O10 0.072(11) 0.021(7) 0.108(13) 0.000 0.046(10) 0.000
C1 0.042(4) 0.034(3) 0.029(4) -0.011(3) 0.011(3) -0.008(3)
C2 0.032(4) 0.044(4) 0.021(3) 0.012(3) 0.002(3) 0.005(3)
C3 0.026(4) 0.028(3) 0.038(4) 0.015(3) 0.006(3) -0.001(3)
C4 0.036(4) 0.031(3) 0.045(4) 0.010(3) 0.009(3) 0.007(3)
C5 0.026(3) 0.042(4) 0.040(4) -0.006(3) 0.004(3) 0.005(3)
C6 0.044(4) 0.044(4) 0.035(4) -0.010(3) 0.011(3) -0.014(3)
C7 0.038(4) 0.039(4) 0.034(4) 0.005(3) -0.002(3) -0.014(3)
C8 0.040(4) 0.046(4) 0.030(4) -0.012(3) 0.010(3) 0.008(3)
C9 0.029(4) 0.044(4) 0.049(4) 0.012(3) 0.015(3) 0.014(3)
C10 0.055(5) 0.042(4) 0.042(4) -0.008(3) 0.013(4) 0.002(3)
C11 0.051(5) 0.038(4) 0.034(4) 0.001(3) -0.006(3) -0.019(3)
C12 0.037(4) 0.044(4) 0.037(4) -0.010(3) 0.014(3) -0.007(3)
C13 0.041(4) 0.033(3) 0.023(3) 0.006(3) 0.005(3) -0.009(3)
C14 0.061(5) 0.048(4) 0.040(4) -0.011(3) 0.014(4) -0.018(4)
C15 0.045(4) 0.045(4) 0.039(4) 0.010(3) 0.002(3) -0.007(3)
C16 0.041(4) 0.034(4) 0.046(4) -0.003(3) 0.012(3) 0.003(3)
C17 0.037(4) 0.046(4) 0.035(4) -0.012(3) 0.007(3) -0.016(3)
C18 0.056(5) 0.034(4) 0.029(4) 0.012(3) 0.013(3) -0.013(3)
C19 0.055(5) 0.035(4) 0.047(4) -0.007(3) 0.014(4) 0.002(3)
C20 0.033(4) 0.041(4) 0.039(4) 0.003(3) 0.010(3) 0.000(3)
C21 0.046(4) 0.036(4) 0.039(4) 0.006(3) 0.018(3) 0.012(3)
C22 0.038(4) 0.042(4) 0.030(4) -0.011(3) 0.008(3) 0.009(3)
C23 0.031(4) 0.043(4) 0.036(4) 0.002(3) -0.004(3) 0.011(3)
C24 0.043(4) 0.033(3) 0.045(4) -0.015(3) 0.013(3) -0.002(3)
C25 0.039(4) 0.047(4) 0.035(4) 0.005(3) 0.005(3) 0.012(3)
C26 0.040(4) 0.041(4) 0.029(4) -0.008(3) -0.003(3) 0.013(3)
Mn1 0.0280(7) 0.0268(7) 0.0252(7) 0.0075(5) 0.0093(6) 0.0091(5)
Mn2 0.0262(5) 0.0259(5) 0.0282(5) -0.0078(4) 0.0072(4) -0.0083(4)
N1 0.035(3) 0.037(3) 0.032(3) 0.012(2) 0.009(3) -0.003(2)
N2 0.036(3) 0.046(4) 0.042(3) -0.006(3) 0.011(3) -0.004(3)
N3 0.039(4) 0.032(3) 0.033(3) 0.005(2) 0.005(3) 0.005(2)
N4 0.034(3) 0.035(3) 0.034(3) 0.008(2) 0.005(3) 0.011(2)
N5 0.038(3) 0.031(3) 0.044(3) 0.010(3) 0.010(3) 0.002(2)
N6 0.035(3) 0.044(3) 0.034(3) -0.006(3) 0.004(3) -0.017(3)
N7 0.048(4) 0.032(3) 0.048(4) -0.004(3) 0.009(3) -0.012(3)
N8 0.037(3) 0.034(3) 0.042(3) 0.013(2) 0.013(3) 0.010(3)
N9 0.037(3) 0.039(3) 0.035(3) -0.007(2) 0.003(3) -0.011(3)
N10 0.026(3) 0.026(3) 0.028(3) -0.008(2) 0.007(2) -0.008(2)
N11 0.041(3) 0.034(3) 0.020(3) 0.008(2) -0.005(2) 0.007(2)
O1 0.040(3) 0.028(2) 0.034(3) 0.0000(19) 0.000(2) 0.0096(19)
O2 0.040(3) 0.044(3) 0.033(3) 0.010(2) 0.011(2) 0.011(2)
O3 0.034(3) 0.039(2) 0.030(2) -0.0066(19) 0.005(2) -0.0124(19)
W1 0.02625(16) 0.02618(15) 0.02604(16) -0.00777(10) 0.00816(11) -0.00801(10)
C21F 0.046 0.036 0.039 0.006 0.018 0.012
C22F 0.038 0.042 0.03 -0.011 0.008 0.009
C23F 0.031 0.043 0.036 0.002 -0.004 0.011
C24F 0.043 0.033 0.045 -0.015 0.013 -0.002
C25F 0.039 0.047 0.035 0.005 0.005 0.012
C26F 0.04 0.041 0.029 -0.008 -0.003 0.013
N11F 0.041 0.034 0.02 0.008 -0.005 0.007
C1A 0.042 0.034 0.029 0.011 0.011 0.008
C2A 0.032 0.044 0.021 -0.012 0.002 -0.005
C3A 0.026 0.028 0.038 -0.015 0.006 0.001
C4A 0.036 0.031 0.045 -0.01 0.009 -0.007
C5A 0.026 0.042 0.04 0.006 0.004 -0.005
C6A 0.044 0.044 0.035 0.01 0.011 0.014
C7A 0.038 0.039 0.034 -0.005 -0.002 0.014
C8A 0.04 0.046 0.03 0.012 0.01 -0.008
C9A 0.029 0.044 0.049 -0.012 0.015 -0.014
C10A 0.055 0.042 0.042 0.008 0.013 -0.002
C11A 0.051 0.038 0.034 -0.001 -0.006 0.019
C12A 0.037 0.044 0.037 0.01 0.014 0.007
C13A 0.041 0.033 0.023 -0.006 0.005 0.009
C14A 0.061 0.048 0.04 0.011 0.014 0.018
C15A 0.045 0.045 0.039 -0.01 0.002 0.007
C16A 0.041 0.034 0.046 0.003 0.012 -0.003
C17A 0.037 0.046 0.035 0.012 0.007 0.016
C18A 0.056 0.034 0.029 -0.012 0.013 0.013
C19A 0.055 0.035 0.047 0.007 0.014 -0.002
C20A 0.033 0.041 0.039 -0.003 0.01 0
Mn2A 0.0262 0.0259 0.0282 0.0078 0.0072 0.0083
N1A 0.035 0.037 0.032 -0.012 0.009 0.003
N2A 0.036 0.046 0.042 0.006 0.011 0.004
N3A 0.039 0.032 0.033 -0.005 0.005 -0.005
N4A 0.034 0.035 0.034 -0.008 0.005 -0.011
N5A 0.038 0.031 0.044 -0.01 0.01 -0.002
N6A 0.035 0.044 0.034 0.006 0.004 0.017
N7A 0.048 0.032 0.048 0.004 0.009 0.012
N8A 0.037 0.034 0.042 -0.013 0.013 -0.01
N9A 0.037 0.039 0.035 0.007 0.003 0.011
N10A 0.026 0.026 0.028 0.008 0.007 0.008
O2A 0.04 0.044 0.033 -0.01 0.011 -0.011
O3A 0.034 0.039 0.03 0.0066 0.005 0.0124
W1A 0.02625 0.02618 0.02604 0.00777 0.00816 0.00801
O1D 0.04 0.028 0.034 0 0 0.0096
Mn1A 0.028 0.0268 0.0252 -0.0075 0.0093 -0.0091
Mn1B 0.028 0.0268 0.0252 0.0075 0.0093 0.0091
Mn2B 0.0262 0.0259 0.0282 -0.0078 0.0072 -0.0083
Mn2C 0.0262 0.0259 0.0282 0.0078 0.0072 0.0083
N4D 0.034 0.035 0.034 0.008 0.005 0.011
N10B 0.026 0.026 0.028 -0.008 0.007 -0.008
N10C 0.026 0.026 0.028 0.008 0.007 0.008
N11D 0.041 0.034 0.02 0.008 -0.005 0.007
loop_
_geom_bond_atom_site_label_1
_geom_bond_atom_site_label_2
_geom_bond_site_symmetry_1
_geom_bond_site_symmetry_2
C1 N1 1_555 1_555
C2 N2 1_555 1_555
C3 N3 1_555 1_555
C4 N4 1_555 1_555
C5 N5 1_555 1_555
C6 N6 1_555 1_555
C7 N7 1_555 1_555
C8 N8 1_555 1_555
C9 H1 1_555 1_555
C10 C9 1_555 1_555
H2 C10 1_555 1_555
C11 C10 1_555 1_555
C12 C11 1_555 1_555
H3 C12 1_555 1_555
C13 C12 1_555 1_555
H4 C13 1_555 1_555
C14 C11 1_555 1_555
H5 C14 1_555 1_555
C15 C14 1_555 1_555
H6 C15 1_555 1_555
C16 H7 1_555 1_555
C17 C16 1_555 1_555
H8 C17 1_555 1_555
C18 C15 1_555 1_555
C19 C18 1_555 1_555
H9 C19 1_555 1_555
C20 C19 1_555 1_555
H10 C20 1_555 1_555
C21 H11 1_555 1_555
C22 C21 1_555 1_555
H12 C22 1_555 1_555
C23 C22 1_555 1_555
C24 C23 1_555 1_555
H13 C24 1_555 1_555
C25 C24 1_555 1_555
H14 C25 1_555 1_555
C26 C23 1_555 1_555
H15 C26 1_555 1_555
Mn1 N4 1_555 1_555
Mn2 N1 1_555 1_555
N3 Mn2A 1_555 1_555
N9 C9 1_555 1_555
N10 C16 1_555 1_555
N11 C21 1_555 1_555
O1 Mn1 1_555 1_555
H16 O1 1_555 1_555
H17 O1 1_555 1_555
O2 Mn2 1_555 1_555
H18 O2 1_555 1_555
H19 O2 1_555 1_555
O3 Mn2 1_555 1_555
H20 O3 1_555 1_555
H21 O3 1_555 1_555
W1 C1 1_555 1_555
C27 H22 1_555 1_555
C28 C27 1_555 1_555
H23 C28 1_555 1_555
C29 C28 1_555 1_555
C30 C29 1_555 1_555
H24 C30 1_555 1_555
C31 C30 1_555 1_555
H25 C31 1_555 1_555
C32 C29 1_555 1_555
H26 C32 1_555 1_555
C33 C32 1_555 1_555
H27 C33 1_555 1_555
C34 H28 1_555 1_555
C35 C34 1_555 1_555
H29 C35 1_555 1_555
C36 C33 1_555 1_555
C37 C36 1_555 1_555
H30 C37 1_555 1_555
C38 C37 1_555 1_555
H31 C38 1_555 1_555
N12 C27 1_555 1_555
N13 C34 1_555 1_555
O4 H32 1_555 1_555
H33 O4 1_555 1_555
O5 H34 1_555 1_555
H35 O5 1_555 1_555
O6 H36 1_555 1_555
H37 O6 1_555 1_555
O7 H38 1_555 1_555
H39 O7 1_555 1_555
O8 H40 1_555 1_555
H41 O8 1_555 1_555
O9 H42 1_555 1_555
H43 O9 1_555 1_555
C21F H11F 1_555 1_555
C22F C21F 1_555 1_555
H12F C22F 1_555 1_555
C23F C22F 1_555 1_555
C24F C23F 1_555 1_555
H13F C24F 1_555 1_555
C25F C24F 1_555 1_555
H14F C25F 1_555 1_555
C26F C26 1_555 1_555
H15F C26F 1_555 1_555
N11F C21F 1_555 1_555
C1A N1A 1_555 1_555
C2A N2A 1_555 1_555
C3A N3A 1_555 1_555
C4A N4A 1_555 1_555
C5A N5A 1_555 1_555
C6A N6A 1_555 1_555
C7A N7A 1_555 1_555
C8A N8A 1_555 1_555
C9A H1A 1_555 1_555
C10A C9A 1_555 1_555
H2A C10A 1_555 1_555
C11A C10A 1_555 1_555
C12A C11A 1_555 1_555
H3A C12A 1_555 1_555
C13A C12A 1_555 1_555
H4A C13A 1_555 1_555
C14A C11A 1_555 1_555
H5A C14A 1_555 1_555
C15A C14A 1_555 1_555
H6A C15A 1_555 1_555
C16A H7A 1_555 1_555
C17A C16A 1_555 1_555
H8A C17A 1_555 1_555
C18A C15A 1_555 1_555
C19A C18A 1_555 1_555
H9A C19A 1_555 1_555
C20A C19A 1_555 1_555
H10A C20A 1_555 1_555
Mn2A N1A 1_555 1_555
N3A Mn2 1_555 1_555
N4A Mn1A 1_555 1_555
N9A C9A 1_555 1_555
N10A C16A 1_555 1_555
O2A Mn2A 1_555 1_555
H18A O2A 1_555 1_555
H19A O2A 1_555 1_555
O3A Mn2A 1_555 1_555
H20A O3A 1_555 1_555
H21A O3A 1_555 1_555
W1A C1A 1_555 1_555
O1D Mn1 1_555 1_555
H16D O1D 1_555 1_555
H17D O1D 1_555 1_555
Mn1B N11F 1_555 1_555
Mn2B N10 1_555 1_555
Mn2C N10A 1_555 1_555
N4D Mn1 1_555 1_555
N10B Mn2 1_555 1_555
N10C Mn2A 1_555 1_555
N11D Mn1 1_555 1_555
C2 W1 1_555 1_555
C3 W1 1_555 1_555
C4 W1 1_555 1_555
C5 W1 1_555 1_555
C6 W1 1_555 1_555
C7 W1 1_555 1_555
C8 W1 1_555 1_555
C13 N9 1_555 1_555
C17 C18 1_555 1_555
C20 N10 1_555 1_555
C25 N11 1_555 1_555
Mn1 N11 1_555 1_555
Mn2 N9 1_555 1_555
C31 N12 1_555 1_555
C35 C36 1_555 1_555
C38 N13 1_555 1_555
C23F C26F 1_555 1_555
C25F N11F 1_555 1_555
C2A W1A 1_555 1_555
C3A W1A 1_555 1_555
C4A W1A 1_555 1_555
C5A W1A 1_555 1_555
C6A W1A 1_555 1_555
C7A W1A 1_555 1_555
C8A W1A 1_555 1_555
C13A N9A 1_555 1_555
C17A C18A 1_555 1_555
C20A N10A 1_555 1_555
Mn2A N9A 1_555 1_555

#END
