
#######################################################################
#
#                 Cambridge Crystallographic Data Centre
#                                CCDC 
#
#######################################################################
#
# If this CIF has been generated from an entry in the Cambridge 
# Structural Database, then it will include bibliographic, chemical, 
# crystal, experimental, refinement or atomic coordinate data resulting 
# from the CCDC's data processing and validation procedures.
#
#######################################################################

data_GOZNEQ
_chemical_formula_moiety         '(C66 H62 Mn3 N36 O11 W2)n'
_symmetry_cell_setting           triclinic
_symmetry_space_group_name_H-M   'P -1'
_symmetry_Int_Tables_number      2
_space_group_name_Hall           '-P 1'
loop_
_symmetry_equiv_pos_site_id
_symmetry_equiv_pos_as_xyz
1 x,y,z
2 -x,-y,-z
_cell_length_a                   10.6761(13)
_cell_length_b                   16.1012(15)
_cell_length_c                   18.0131(15)
_cell_angle_alpha                103.521(3)
_cell_angle_beta                 106.261(2)
_cell_angle_gamma                108.668(3)
_cell_volume                     2632.07
loop_
_atom_site_label
_atom_site_type_symbol
_atom_site_fract_x
_atom_site_fract_y
_atom_site_fract_z
C1 C 0.2051(6) 0.1879(3) 0.2051(3)
C2 C 0.2357(5) 0.3255(3) 0.3322(3)
C3 C 0.0328(6) 0.2415(4) 0.1212(3)
C4 C 0.0205(6) 0.3485(4) 0.2484(3)
C5 C -0.1861(6) 0.1801(3) 0.1816(3)
C6 C -0.0246(6) 0.2476(4) 0.3371(3)
C7 C -0.0643(5) 0.0744(4) 0.1430(3)
C8 C 0.0773(6) 0.1270(4) 0.3020(3)
C9 C 0.5983(6) 0.0474(4) 0.2649(3)
H1 H 0.6897 0.0926 0.2746
C10 C 0.5875(6) -0.0211(4) 0.3017(3)
H2 H 0.6719 -0.0218 0.3369
C11 C 0.4564(6) -0.0867(4) 0.2872(3)
C12 C 0.3325(6) -0.0856(4) 0.2362(3)
H3 H 0.2414 -0.1315 0.2261
C13 C 0.3415(6) -0.0181(4) 0.2003(3)
H4 H 0.2568 -0.0171 0.1659
C14 C 0.6688(6) -0.3116(4) 0.4723(3)
H5 H 0.7528 -0.3116 0.5086
C15 C 0.6793(6) -0.2419(4) 0.4375(3)
H6 H 0.7697 -0.1943 0.4490
C16 C 0.5524(6) -0.2444(4) 0.3853(3)
C17 C 0.4238(6) -0.3105(4) 0.3667(3)
H7 H 0.3403 -0.3102 0.3302
C18 C 0.4131(6) -0.3796(4) 0.4010(3)
H8 H 0.3218 -0.4268 0.3885
C19 C 0.5943(6) 0.3410(4) 0.1220(3)
H9 H 0.6849 0.3509 0.1595
C20 C 0.5850(6) 0.4033(4) 0.0798(3)
H10 H 0.6689 0.4541 0.0873
C21 C 0.4515(5) 0.3897(3) 0.0272(3)
C22 C 0.3291(6) 0.3151(4) 0.0152(3)
H11 H 0.2380 0.3066 -0.0208
C23 C 0.3399(6) 0.2530(4) 0.0558(3)
H12 H 0.2562 0.2013 0.0472
Mn1 Mn 0.48960(8) 0.16574(5) 0.16687(4)
Mn2 Mn 0.5000 -0.5000 0.5000
N1 N 0.3013(4) 0.1771(3) 0.1896(2)
N2 N 0.3362(5) 0.3825(3) 0.3880(2)
N3 N 0.0357(5) 0.2541(3) 0.0598(2)
N4 N 0.0214(5) 0.4222(3) 0.2556(2)
N5 N -0.3080(5) 0.1621(3) 0.1584(2)
N6 N -0.0526(5) 0.2659(3) 0.3955(2)
N7 N -0.1211(5) 0.0008(3) 0.0912(2)
N8 N 0.0961(5) 0.0800(3) 0.3392(2)
N9 N 0.4760(5) 0.0487(3) 0.2147(3)
N10 N 0.4455(5) -0.1606(3) 0.3203(2)
N11 N 0.5697(5) -0.1702(3) 0.3548(2)
N12 N 0.5368(5) -0.3800(3) 0.4540(3)
N13 N 0.4744(5) 0.2661(3) 0.1097(2)
N14 N 0.4386(5) 0.4597(3) -0.0149(2)
O1 O 0.6205(4) 0.2944(2) 0.27930(18)
H13 H 0.6112 0.2796 0.3278
H14 H 0.5860 0.3430 0.2736
O2 O 0.3563(4) 0.0416(2) 0.05805(19)
H15 H 0.4168 0.0210 0.0330
H16 H 0.2905 0.0560 0.0183
O3 O 0.6609(4) -0.5393(2) 0.47016(19)
H17 H 0.6406 -0.5958 0.4673
H18 H 0.7223 -0.5040 0.5186
W1 W 0.03855(2) 0.217136(13) 0.232147(9)
C19A C 0.4057(6) 0.6590(4) -0.1220(3)
H9A H 0.3151 0.6491 -0.1595
C20A C 0.4150(6) 0.5967(4) -0.0798(3)
H10A H 0.3311 0.5459 -0.0873
C21A C 0.5485(5) 0.6103(3) -0.0272(3)
C22A C 0.6709(6) 0.6849(4) -0.0152(3)
H11A H 0.7620 0.6934 0.0208
C23A C 0.6601(6) 0.7470(4) -0.0558(3)
H12A H 0.7438 0.7987 -0.0472
N13A N 0.5256(5) 0.7339(3) -0.1097(2)
N14A N 0.5614(5) 0.5403(3) 0.0149(2)
C1A C 0.7949(6) -1.1879(3) 0.7949(3)
C2A C 0.7643(5) -1.3255(3) 0.6678(3)
C3A C 0.9672(6) -1.2415(4) 0.8788(3)
C4A C 0.9795(6) -1.3485(4) 0.7516(3)
C5A C 1.1861(6) -1.1801(3) 0.8184(3)
C6A C 1.0246(6) -1.2476(4) 0.6629(3)
C7A C 1.0643(5) -1.0744(4) 0.8570(3)
C8A C 0.9227(6) -1.1270(4) 0.6980(3)
C9A C 0.4017(6) -1.0474(4) 0.7351(3)
H1A H 0.3103 -1.0926 0.7254
C10A C 0.4125(6) -0.9789(4) 0.6983(3)
H2A H 0.3281 -0.9782 0.6631
C11A C 0.5436(6) -0.9133(4) 0.7128(3)
C12A C 0.6675(6) -0.9144(4) 0.7638(3)
H3A H 0.7586 -0.8685 0.7739
C13A C 0.6585(6) -0.9819(4) 0.7997(3)
H4A H 0.7432 -0.9829 0.8341
C14A C 0.3312(6) -0.6884(4) 0.5277(3)
H5A H 0.2472 -0.6884 0.4914
C15A C 0.3207(6) -0.7581(4) 0.5625(3)
H6A H 0.2303 -0.8057 0.5510
C16A C 0.4476(6) -0.7556(4) 0.6147(3)
C17A C 0.5762(6) -0.6895(4) 0.6333(3)
H7A H 0.6597 -0.6898 0.6698
C18A C 0.5869(6) -0.6204(4) 0.5990(3)
H8A H 0.6782 -0.5732 0.6115
Mn1A Mn 0.51040(8) -1.16574(5) 0.83313(4)
N1A N 0.6987(4) -1.1771(3) 0.8104(2)
N2A N 0.6638(5) -1.3825(3) 0.6120(2)
N3A N 0.9643(5) -1.2541(3) 0.9402(2)
N4A N 0.9786(5) -1.4222(3) 0.7444(2)
N5A N 1.3080(5) -1.1621(3) 0.8416(2)
N6A N 1.0526(5) -1.2659(3) 0.6045(2)
N7A N 1.1211(5) -1.0008(3) 0.9088(2)
N8A N 0.9039(5) -1.0800(3) 0.6608(2)
N9A N 0.5240(5) -1.0487(3) 0.7853(3)
N10A N 0.5545(5) -0.8394(3) 0.6797(2)
N11A N 0.4303(5) -0.8298(3) 0.6452(2)
N12A N 0.4632(5) -0.6200(3) 0.5460(3)
O1A O 0.3795(4) -1.2944(2) 0.72070(18)
H13A H 0.3888 -1.2796 0.6722
H14A H 0.4140 -1.3430 0.7264
O2A O 0.6437(4) -1.0416(2) 0.94195(19)
H15A H 0.5832 -1.0210 0.9670
H16A H 0.7095 -1.0560 0.9817
O3A O 0.3391(4) -0.4607(2) 0.52984(19)
H17A H 0.3594 -0.4042 0.5327
H18A H 0.2777 -0.4960 0.4814
W1A W 0.96145(2) -1.217136(13) 0.767853(9)
Mn1_2 Mn -0.51040(8) 0.16574(5) 0.16687(4)
Mn1A_2 Mn 0.51040(8) 0.83426(5) -0.16687(4)
Mn1A_3 Mn 1.51040(8) -1.16574(5) 0.83313(4)
Mn2_2 Mn 0.5000 -1.5000 0.5000
Mn2_3 Mn 0.5000 0.5000 0.5000
N2_2 N 0.3362(5) -0.6175(3) 0.3880(2)
N2A_2 N 0.6638(5) -0.3825(3) 0.6120(2)
N5_2 N 0.6920(5) 0.1621(3) 0.1584(2)
N5A_2 N 0.3080(5) -1.1621(3) 0.8416(2)
N13A_2 N 0.5256(5) -1.2661(3) 0.8903(2)
C24 C 0.6531(6) 0.5240(4) 0.2668(3)
H19 H 0.7513 0.5400 0.2967
C25 C 0.6144(6) 0.5862(4) 0.2330(3)
H20 H 0.6854 0.6436 0.2387
C26 C 0.4698(6) 0.5623(4) 0.1907(3)
C27 C 0.3663(6) 0.4780(4) 0.1816(3)
H21 H 0.2678 0.4621 0.1527
C28 C 0.4073(6) 0.4177(4) 0.2148(3)
H22 H 0.3364 0.3599 0.2085
C29 C 0.5636(6) 0.9118(4) 0.1066(3)
H23 H 0.6350 0.9687 0.1118
C30 C 0.6039(6) 0.8503(4) 0.1388(3)
H24 H 0.7025 0.8646 0.1657
C31 C 0.5014(6) 0.7686(3) 0.1317(3)
C32 C 0.3554(6) 0.7493(4) 0.0916(3)
H25 H 0.2829 0.6927 0.0861
C33 C 0.3175(6) 0.8122(4) 0.0604(3)
H26 H 0.2194 0.7995 0.0343
N15 N 0.5506(5) 0.4397(3) 0.2573(2)
N16 N 0.4279(5) 0.6273(3) 0.1555(2)
N17 N 0.5432(5) 0.7054(3) 0.1658(2)
N18 N 0.4202(4) 0.8914(3) 0.0670(2)
C34 C 0.7324(6) 0.2610(4) 0.4912(3)
H27 H 0.8241 0.3091 0.5060
C35 C 0.7187(6) 0.1843(4) 0.5169(3)
H28 H 0.8012 0.1806 0.5509
C36 C 0.5836(6) 0.1134(4) 0.4926(3)
C37 C 0.4640(6) 0.1193(4) 0.4455(3)
H29 H 0.3722 0.0710 0.4304
C38 C 0.4750(6) 0.1951(4) 0.4193(3)
H30 H 0.3920 0.1984 0.3855
N19 N 0.6092(5) 0.2656(3) 0.4434(2)
N20 N 0.5716(5) 0.0299(3) 0.5166(2)
C34A C 0.2676(6) -0.2610(4) 0.5088(3)
H27A H 0.1759 -0.3091 0.4940
C35A C 0.2813(6) -0.1843(4) 0.4831(3)
H28A H 0.1988 -0.1806 0.4491
C36A C 0.4164(6) -0.1134(4) 0.5074(3)
C37A C 0.5360(6) -0.1193(4) 0.5545(3)
H29A H 0.6278 -0.0710 0.5696
C38A C 0.5250(6) -0.1951(4) 0.5807(3)
H30A H 0.6080 -0.1984 0.6145
N19A N 0.3908(5) -0.2656(3) 0.5566(2)
N20A N 0.4284(5) -0.0299(3) 0.4834(2)
O4 O -0.0138(10) 0.7833(7) 0.2275(5)
H31 H -0.0415 0.8142 0.1992
H32 H 0.0545 0.8173 0.2741
O5 O 1.0026(11) 0.5135(7) 0.9630(5)
H33 H 0.9744 0.4568 0.9604
H34 H 0.9309 0.5273 0.9499
O5A O 0.9974(11) 0.4865(7) 1.0370(5)
H33A H 1.0256 0.5432 1.0396
H34A H 1.0691 0.4727 1.0501
O6 O 0.9227(6) 0.5593(5) 0.4749(3)
H35 H 0.9368 0.5660 0.5252
H36 H 0.8718 0.5020 0.4447
O7 O 0.9695(10) 0.0521(7) 0.4965(5)
H37 H 1.0547 0.0586 0.5204
H38 H 0.9281 0.0522 0.5305
loop_
_geom_bond_atom_site_label_1
_geom_bond_atom_site_label_2
_geom_bond_site_symmetry_1
_geom_bond_site_symmetry_2
C1 N1 1_555 1_555
C2 N2 1_555 1_555
C3 N3 1_555 1_555
C4 N4 1_555 1_555
C5 N5 1_555 1_555
C6 N6 1_555 1_555
C7 N7 1_555 1_555
C8 N8 1_555 1_555
C9 H1 1_555 1_555
C10 C9 1_555 1_555
H2 C10 1_555 1_555
C11 C10 1_555 1_555
C12 C11 1_555 1_555
H3 C12 1_555 1_555
C13 C12 1_555 1_555
H4 C13 1_555 1_555
C14 H5 1_555 1_555
C15 C14 1_555 1_555
H6 C15 1_555 1_555
C16 C15 1_555 1_555
C17 C16 1_555 1_555
H7 C17 1_555 1_555
C18 C17 1_555 1_555
H8 C18 1_555 1_555
C19 H9 1_555 1_555
C20 C19 1_555 1_555
H10 C20 1_555 1_555
C21 C20 1_555 1_555
C22 C21 1_555 1_555
H11 C22 1_555 1_555
C23 C22 1_555 1_555
H12 C23 1_555 1_555
Mn1 N1 1_555 1_555
Mn2 N12 1_555 1_555
N2 Mn2_3 1_555 1_555
N5 Mn1_2 1_555 1_555
N9 C9 1_555 1_555
N10 C11 1_555 1_555
N11 C16 1_555 1_555
N12 C14 1_555 1_555
N13 C19 1_555 1_555
N14 C21 1_555 1_555
O1 Mn1 1_555 1_555
H13 O1 1_555 1_555
H14 O1 1_555 1_555
O2 Mn1 1_555 1_555
H15 O2 1_555 1_555
H16 O2 1_555 1_555
O3 Mn2 1_555 1_555
H17 O3 1_555 1_555
H18 O3 1_555 1_555
W1 C1 1_555 1_555
C24 H19 1_555 1_555
C25 C24 1_555 1_555
H20 C25 1_555 1_555
C26 C25 1_555 1_555
C27 C26 1_555 1_555
H21 C27 1_555 1_555
C28 C27 1_555 1_555
H22 C28 1_555 1_555
C29 H23 1_555 1_555
C30 C29 1_555 1_555
H24 C30 1_555 1_555
C31 C30 1_555 1_555
C32 C31 1_555 1_555
H25 C32 1_555 1_555
C33 C32 1_555 1_555
H26 C33 1_555 1_555
N15 C24 1_555 1_555
N16 C26 1_555 1_555
N17 C31 1_555 1_555
N18 C29 1_555 1_555
C34 H27 1_555 1_555
C35 C34 1_555 1_555
H28 C35 1_555 1_555
C36 C35 1_555 1_555
C37 C36 1_555 1_555
H29 C37 1_555 1_555
C38 C37 1_555 1_555
H30 C38 1_555 1_555
N19 C34 1_555 1_555
N20 C36 1_555 1_555
O4 H31 1_555 1_555
H32 O4 1_555 1_555
O5 H33 1_555 1_555
H34 O5 1_555 1_555
O6 H35 1_555 1_555
H36 O6 1_555 1_555
O7 H37 1_555 1_555
H38 O7 1_555 1_555
C19A H9A 1_555 1_555
C20A C19A 1_555 1_555
H10A C20A 1_555 1_555
C21A C20A 1_555 1_555
C22A C21A 1_555 1_555
H11A C22A 1_555 1_555
C23A C22A 1_555 1_555
H12A C23A 1_555 1_555
N13A C19A 1_555 1_555
N14A N14 1_555 1_555
C1A N1A 1_555 1_555
C2A N2A 1_555 1_555
C3A N3A 1_555 1_555
C4A N4A 1_555 1_555
C5A N5A 1_555 1_555
C6A N6A 1_555 1_555
C7A N7A 1_555 1_555
C8A N8A 1_555 1_555
C9A H1A 1_555 1_555
C10A C9A 1_555 1_555
H2A C10A 1_555 1_555
C11A C10A 1_555 1_555
C12A C11A 1_555 1_555
H3A C12A 1_555 1_555
C13A C12A 1_555 1_555
H4A C13A 1_555 1_555
C14A H5A 1_555 1_555
C15A C14A 1_555 1_555
H6A C15A 1_555 1_555
C16A C15A 1_555 1_555
C17A C16A 1_555 1_555
H7A C17A 1_555 1_555
C18A C17A 1_555 1_555
H8A C18A 1_555 1_555
Mn1A N1A 1_555 1_555
N2A Mn2_2 1_555 1_555
N5A Mn1A_3 1_555 1_555
N9A C9A 1_555 1_555
N10A C11A 1_555 1_555
N11A C16A 1_555 1_555
N12A Mn2 1_555 1_555
O1A Mn1A 1_555 1_555
H13A O1A 1_555 1_555
H14A O1A 1_555 1_555
O2A Mn1A 1_555 1_555
H15A O2A 1_555 1_555
H16A O2A 1_555 1_555
O3A Mn2 1_555 1_555
H17A O3A 1_555 1_555
H18A O3A 1_555 1_555
W1A C1A 1_555 1_555
Mn1A_2 N13A 1_555 1_555
N2_2 Mn2 1_555 1_555
N2A_2 Mn2 1_555 1_555
N5_2 Mn1 1_555 1_555
N5A_2 Mn1A 1_555 1_555
N13A_2 Mn1A 1_555 1_555
C34A H27A 1_555 1_555
C35A C34A 1_555 1_555
H28A C35A 1_555 1_555
C36A C35A 1_555 1_555
C37A C36A 1_555 1_555
H29A C37A 1_555 1_555
C38A C37A 1_555 1_555
H30A C38A 1_555 1_555
N19A C34A 1_555 1_555
N20A N20 1_555 1_555
O5A H33A 1_555 1_555
H34A O5A 1_555 1_555
C2 W1 1_555 1_555
C3 W1 1_555 1_555
C4 W1 1_555 1_555
C5 W1 1_555 1_555
C6 W1 1_555 1_555
C7 W1 1_555 1_555
C8 W1 1_555 1_555
C13 N9 1_555 1_555
C18 N12 1_555 1_555
C23 N13 1_555 1_555
Mn1 N9 1_555 1_555
Mn1 N13 1_555 1_555
N10 N11 1_555 1_555
C28 N15 1_555 1_555
C33 N18 1_555 1_555
N16 N17 1_555 1_555
C38 N19 1_555 1_555
C21A N14A 1_555 1_555
C23A N13A 1_555 1_555
C2A W1A 1_555 1_555
C3A W1A 1_555 1_555
C4A W1A 1_555 1_555
C5A W1A 1_555 1_555
C6A W1A 1_555 1_555
C7A W1A 1_555 1_555
C8A W1A 1_555 1_555
C13A N9A 1_555 1_555
C14A N12A 1_555 1_555
C18A N12A 1_555 1_555
Mn1A N9A 1_555 1_555
N10A N11A 1_555 1_555
C36A N20A 1_555 1_555
C38A N19A 1_555 1_555

#END
