
#######################################################################
#
#                 Cambridge Crystallographic Data Centre
#                                CCDC 
#
#######################################################################
#
# If this CIF has been generated from an entry in the Cambridge 
# Structural Database, then it will include bibliographic, chemical, 
# crystal, experimental, refinement or atomic coordinate data resulting 
# from the CCDC's data processing and validation procedures.
#
#######################################################################

data_EFIMUB
_chemical_formula_moiety         '(C8 Be2 N4 O8 P2 2-)n'
_symmetry_cell_setting           monoclinic
_symmetry_space_group_name_H-M   'C 2/c'
_symmetry_Int_Tables_number      15
_space_group_name_Hall           '-C 2yc'
loop_
_symmetry_equiv_pos_site_id
_symmetry_equiv_pos_as_xyz
1 x,y,z
2 -x,y,1/2-z
3 1/2+x,1/2+y,z
4 1/2-x,1/2+y,1/2-z
5 -x,-y,-z
6 x,-y,1/2+z
7 1/2-x,1/2-y,-z
8 1/2+x,1/2-y,1/2+z
_cell_length_a                   13.5137(15)
_cell_length_b                   9.0119(10)
_cell_length_c                   9.6357(11)
_cell_angle_alpha                90
_cell_angle_beta                 134.507(2)
_cell_angle_gamma                90
_cell_volume                     836.881
loop_
_atom_site_label
_atom_site_type_symbol
_atom_site_fract_x
_atom_site_fract_y
_atom_site_fract_z
P1 P 0.33315(10) 0.60284(11) 0.22063(14)
O1 O 0.3251(3) 0.5695(4) 0.0574(4)
O2 O 0.4656(3) 0.6862(3) 0.3896(4)
O3 O 0.2076(3) 0.6934(3) 0.1443(5)
O4 O 0.3204(3) 0.4532(3) 0.2806(5)
Be1 Be 0.3692(5) 0.6478(6) -0.0422(7)
P1A P 0.66685(10) 0.60284(11) 0.27937(14)
O1A O 0.6749(3) 0.5695(4) 0.4426(4)
O2A O 0.5344(3) 0.6862(3) 0.1104(4)
O3A O 0.7924(3) 0.6934(3) 0.3557(5)
O4A O 0.6796(3) 0.4532(3) 0.2194(5)
O3F O 0.2924(3) 0.8066(3) -0.1443(5)
O4E O 0.3204(3) 0.5468(3) -0.2194(5)
Be1A Be 0.6308(5) 0.6478(6) 0.5422(7)
Be1F Be 0.1308(5) 0.8522(6) 0.0422(7)
Be1D Be 0.6308(5) 0.3522(6) 0.0422(7)
Be1G Be 0.8692(5) 0.8522(6) 0.4578(7)
Be1E Be 0.3692(5) 0.3522(6) 0.4578(7)
O3G O 0.7076(3) 0.8066(3) 0.6443(5)
O4D O 0.6796(3) 0.5468(3) 0.7194(5)
N1 N 0.5000 0.7910(10) 0.7500
C1 C 0.6803(7) 0.7568(9) 0.9361(11)
C2 C 0.4901(8) 0.9899(9) 0.9162(12)
N2 N 0.5000 0.9537(9) 0.7500
C1A C 0.3197(7) 0.7568(9) 0.5639(11)
C1F C 0.8197(7) 0.7432(9) 1.0639(11)
C2D C 0.5099(8) 1.0101(9) 1.0838(12)
C2A C 0.5099(8) 0.9899(9) 0.5838(12)
C1G C 0.1803(7) 0.7432(9) 0.4361(11)
N1F N 1.0000 0.7090(10) 1.2500
N2D N 0.5000 1.0463(9) 1.2500
C2E C 0.4901(8) 1.0101(9) 0.4162(12)
loop_
_geom_bond_atom_site_label_1
_geom_bond_atom_site_label_2
_geom_bond_site_symmetry_1
_geom_bond_site_symmetry_2
N1 C1 1_555 1_555
C1 C1F 1_555 1_555
C2 N2 1_555 1_555
N2 N1 1_555 1_555
P1 O1 1_555 1_555
O1 Be1 1_555 1_555
O2 P1 1_555 1_555
O3 P1 1_555 1_555
O4 P1 1_555 1_555
Be1 O2A 1_555 1_555
C1A N1 1_555 1_555
C1F N1F 1_555 1_555
C2D C2 1_555 1_555
C2A N2 1_555 1_555
C1G C1A 1_555 1_555
N2D C2D 1_555 1_555
C2E C2A 1_555 1_555
P1A O1A 1_555 1_555
O1A Be1A 1_555 1_555
O2A P1A 1_555 1_555
O3A P1A 1_555 1_555
O4A P1A 1_555 1_555
O3F Be1 1_555 1_555
O4E Be1 1_555 1_555
Be1A O2 1_555 1_555
Be1F O3 1_555 1_555
Be1D O4A 1_555 1_555
Be1G O3A 1_555 1_555
Be1E O4 1_555 1_555
O3G Be1A 1_555 1_555
O4D Be1A 1_555 1_555

#END
