
#######################################################################
#
#                 Cambridge Crystallographic Data Centre
#                                CCDC 
#
#######################################################################
#
# If this CIF has been generated from an entry in the Cambridge 
# Structural Database, then it will include bibliographic, chemical, 
# crystal, experimental, refinement or atomic coordinate data resulting 
# from the CCDC's data processing and validation procedures.
#
#######################################################################

data_KAFVAR
_chemical_formula_moiety         'C234 H186 N25 O68 Zn34'
_symmetry_cell_setting           rhombohedral
_symmetry_space_group_name_H-M   'R -3'
_symmetry_Int_Tables_number      148
_space_group_name_Hall           '-R 3'
loop_
_symmetry_equiv_pos_site_id
_symmetry_equiv_pos_as_xyz
1 x,y,z
2 -y,x-y,z
3 -x+y,-x,z
4 2/3+x,1/3+y,1/3+z
5 2/3-y,1/3+x-y,1/3+z
6 2/3-x+y,1/3-x,1/3+z
7 1/3+x,2/3+y,2/3+z
8 1/3-y,2/3+x-y,2/3+z
9 1/3-x+y,2/3-x,2/3+z
10 -x,-y,-z
11 y,-x+y,-z
12 x-y,x,-z
13 1/3-x,2/3-y,2/3-z
14 1/3+y,2/3-x+y,2/3-z
15 1/3+x-y,2/3+x,2/3-z
16 2/3-x,1/3-y,1/3-z
17 2/3+y,1/3-x+y,1/3-z
18 2/3+x-y,1/3+x,1/3-z
_cell_length_a                   32.8962(8)
_cell_length_b                   32.8962(8)
_cell_length_c                   40.309(3)
_cell_angle_alpha                90
_cell_angle_beta                 90
_cell_angle_gamma                120
_cell_volume                     37776.7
loop_
_atom_site_label
_atom_site_type_symbol
_atom_site_fract_x
_atom_site_fract_y
_atom_site_fract_z
Zn1 Zn 0.32403(2) 0.41202(3) 0.41201(2)
Zn2 Zn 0.40446(2) 0.45222(3) 0.45223(2)
N1 N 0.1835(2) 0.3671(3) 0.59187(13)
N2 N 0.3333 0.6667 0.4418(4)
O1 O 0.29265(17) 0.3970(3) 0.45606(12)
O2 O 0.35437(14) 0.42824(16) 0.48937(9)
O3 O 0.2312(3) 0.27042(35) 0.70967(11)
O4 O 0.19881(16) 0.30282(21) 0.73977(10)
O5 O 0.01045(21) 0.39672(15) 0.55253(10)
O6 O -0.0236(3) 0.3329(2) 0.58445(19)
O7 O 0.39523(15) 0.50993(15) 0.44881(10)
O8 O 0.3319(2) 0.4758(2) 0.4165(2)
C1 C 0.3109(2) 0.4086(2) 0.48420(14)
C2 C 0.2786(2) 0.3974(3) 0.51270(15)
C3 C 0.2953(2) 0.4120(3) 0.54495(15)
H1 H 0.3281 0.4288 0.5491
C4 C 0.2639(2) 0.4021(3) 0.57086(16)
H2 H 0.2754 0.4119 0.5927
C5 C 0.2158(3) 0.3778(3) 0.56499(14)
C6 C 0.1987(2) 0.3624(3) 0.53351(18)
H3 H 0.1658 0.3454 0.5297
C7 C 0.2298(2) 0.3720(3) 0.50731(17)
H4 H 0.2179 0.3613 0.4856
C8 C 0.2121(2) 0.2942(3) 0.71230(13)
C9 C 0.2032(2) 0.3128(3) 0.68177(15)
C10 C 0.2140(3) 0.3007(4) 0.65090(15)
H5 H 0.2261 0.2799 0.6503
C11 C 0.2076(3) 0.3181(4) 0.62132(16)
H6 H 0.2145 0.3088 0.6007
C12 C 0.1909(3) 0.3493(4) 0.62229(15)
C13 C 0.1788(3) 0.3613(4) 0.65249(16)
H7 H 0.1663 0.3819 0.6528
C14 C 0.1850(2) 0.3435(3) 0.68149(15)
H8 H 0.1769 0.3521 0.7019
C15 C 0.0109(3) 0.3654(2) 0.57047(16)
C16 C 0.0565(3) 0.3665(2) 0.57523(16)
C17 C 0.0574(4) 0.3294(3) 0.5924(2)
H9 H 0.0289 0.3038 0.6002
C18 C 0.0993(4) 0.3298(3) 0.5982(2)
H10 H 0.0994 0.3049 0.6100
C19 C 0.1410(4) 0.3673(3) 0.58625(18)
C20 C 0.1406(4) 0.4035(3) 0.56831(18)
H11 H 0.1692 0.4286 0.5600
C21 C 0.0992(4) 0.4029(3) 0.56271(17)
H12 H 0.0994 0.4275 0.5502
C22 C 0.3608(2) 0.5085(3) 0.43365(16)
C23 C 0.3555(2) 0.5510(2) 0.43580(18)
C24 C 0.3839(2) 0.5897(2) 0.4562(2)
H13 H 0.4086 0.5899 0.4685
C25 C 0.3767(2) 0.6275(3) 0.4586(2)
H14 H 0.3961 0.6533 0.4726
C26 C 0.3406(2) 0.6274(2) 0.4402(2)
C27 C 0.3128(3) 0.5908(3) 0.4193(2)
H15 H 0.2889 0.5914 0.4066
C28 C 0.3203(3) 0.5528(3) 0.4171(2)
H16 H 0.3013 0.5276 0.4026
N3 N 0.26757(13) 0.38375(17) 0.38361(10)
C29 C 0.23036(18) 0.3909(2) 0.39102(13)
H17 H 0.2322 0.4094 0.4097
C30 C 0.19050(17) 0.3711(3) 0.37114(16)
H18 H 0.1651 0.3760 0.3762
C31 C 0.18785(16) 0.3440(2) 0.34384(14)
C32 C 0.2251(2) 0.3369(3) 0.33642(14)
H19 H 0.2232 0.3184 0.3178
C33 C 0.26491(17) 0.3567(2) 0.35631(13)
H20 H 0.2903 0.3518 0.3512
N4 N 0.46246(15) 0.48117(16) 0.48151(10)
C34 C 0.5044(4) 0.5142(5) 0.4643(3)
H21 H 0.4999 0.5396 0.4552
H22 H 0.5095 0.4981 0.4453
C35 C 0.4718(5) 0.4472(5) 0.4965(4)
H23 H 0.4752 0.4283 0.4788
H24 H 0.4446 0.4258 0.5104
C36 C 0.4594(5) 0.5074(5) 0.5093(3)
H25 H 0.4318 0.4862 0.5230
H26 H 0.4545 0.5328 0.5008
C37 C 0.4989(4) 0.4722(5) 0.4698(4)
H27 H 0.5080 0.4849 0.4470
H28 H 0.4860 0.4378 0.4686
C38 C 0.4536(5) 0.4649(5) 0.5149(3)
H29 H 0.4303 0.4721 0.5246
C39 C 0.4851(5) 0.5317(4) 0.4825(4)
H30 H 0.4628 0.5409 0.4914
H31 H 0.4936 0.5442 0.4596
O7A O 0.49007(15) 0.88530(21) 0.44881(10)
O8A O 0.5242(2) 0.8561(3) 0.4165(2)
C22A C 0.4915(3) 0.8523(4) 0.43365(16)
C23A C 0.4490(2) 0.8045(3) 0.43580(18)
C24A C 0.4103(2) 0.7942(3) 0.4562(2)
H13A H 0.4101 0.8187 0.4685
C25A C 0.3725(3) 0.7492(4) 0.4586(2)
H14A H 0.3467 0.7428 0.4726
C26A C 0.3726(2) 0.7132(3) 0.4402(2)
C27A C 0.4092(3) 0.7220(4) 0.4193(2)
H15A H 0.4086 0.6975 0.4066
C28A C 0.4472(3) 0.7675(4) 0.4171(2)
H16A H 0.4724 0.7737 0.4026
O7B O 0.11470(21) 0.60477(15) 0.44881(10)
O8B O 0.1439(3) 0.6681(2) 0.4165(2)
C22B C 0.1477(4) 0.6392(2) 0.43365(16)
C23B C 0.1955(3) 0.6445(2) 0.43580(18)
C24B C 0.2058(3) 0.6161(2) 0.4562(2)
H13B H 0.1813 0.5914 0.4685
C25B C 0.2508(4) 0.6233(2) 0.4586(2)
H14B H 0.2572 0.6039 0.4726
C26B C 0.2868(3) 0.6594(2) 0.4402(2)
C27B C 0.2780(4) 0.6872(3) 0.4193(2)
H15B H 0.3025 0.7111 0.4066
C28B C 0.2325(4) 0.6797(3) 0.4171(2)
H16B H 0.2263 0.6987 0.4026
N3L N 0.06576(13) 0.28292(17) 0.28306(10)
C29L C 0.10297(18) 0.2758(2) 0.27565(13)
H17L H 0.1011 0.2573 0.2570
C30L C 0.14283(17) 0.2956(3) 0.29553(16)
H18L H 0.1682 0.2907 0.2905
C31L C 0.14548(16) 0.3227(2) 0.32283(14)
C32L C 0.1082(2) 0.3298(3) 0.33025(14)
H19L H 0.1101 0.3483 0.3489
C33L C 0.06842(17) 0.3100(2) 0.31036(13)
H20L H 0.0430 0.3149 0.3155
N4I N 0.53754(15) 0.51883(16) 0.51849(10)
C34I C 0.4956(4) 0.4858(5) 0.5357(3)
H21I H 0.5001 0.4604 0.5448
H22I H 0.4905 0.5019 0.5547
C35I C 0.5282(5) 0.5528(5) 0.5035(4)
H23I H 0.5248 0.5717 0.5212
H24I H 0.5554 0.5742 0.4896
C36I C 0.5406(5) 0.4926(5) 0.4907(3)
H25I H 0.5682 0.5138 0.4770
H26I H 0.5455 0.4672 0.4992
C37I C 0.5011(4) 0.5278(5) 0.5302(4)
H27I H 0.4920 0.5151 0.5530
H28I H 0.5140 0.5622 0.5314
C38I C 0.5464(5) 0.5351(5) 0.4851(3)
H29I H 0.5697 0.5279 0.4754
C39I C 0.5149(5) 0.4683(4) 0.5175(4)
H30I H 0.5372 0.4591 0.5086
H31I H 0.5064 0.4558 0.5404
Zn1A Zn 0.58798(3) 0.91201(4) 0.41201(2)
Zn2A Zn 0.54778(3) 0.95224(4) 0.45223(2)
N1A N 0.6329(3) 0.8164(4) 0.59187(13)
O1A O 0.6030(3) 0.89565(34) 0.45606(12)
O2A O 0.57176(16) 0.92613(21) 0.48937(9)
O3A O 0.72958(35) 0.96078(46) 0.70967(11)
O4A O 0.69718(21) 0.89599(26) 0.73977(10)
O5A O 0.60328(15) 0.61373(26) 0.55253(10)
O6A O 0.6671(2) 0.6435(4) 0.58445(19)
C1A C 0.5914(2) 0.9023(3) 0.48420(14)
C2A C 0.6026(3) 0.8812(4) 0.51270(15)
C3A C 0.5880(3) 0.8833(4) 0.54495(15)
H1A H 0.5712 0.8993 0.5491
C4A C 0.5979(3) 0.8618(4) 0.57086(16)
H2A H 0.5881 0.8635 0.5927
C5A C 0.6222(3) 0.8380(4) 0.56499(14)
C6A C 0.6376(3) 0.8363(4) 0.53351(18)
H3A H 0.6546 0.8204 0.5297
C7A C 0.6280(3) 0.8578(4) 0.50731(17)
H4A H 0.6387 0.8566 0.4856
C8A C 0.7058(3) 0.9179(4) 0.71230(13)
C9A C 0.6872(3) 0.8904(4) 0.68177(15)
C10A C 0.6993(4) 0.9133(5) 0.65090(15)
H5A H 0.7201 0.9462 0.6503
C11A C 0.6819(4) 0.8895(5) 0.62132(16)
H6A H 0.6912 0.9057 0.6007
C12A C 0.6507(4) 0.8416(5) 0.62229(15)
C13A C 0.6387(4) 0.8175(5) 0.65249(16)
H7A H 0.6181 0.7844 0.6528
C14A C 0.6565(3) 0.8415(4) 0.68149(15)
H8A H 0.6479 0.8248 0.7019
C15A C 0.6346(2) 0.6455(4) 0.57047(16)
C16A C 0.6335(2) 0.6900(4) 0.57523(16)
C17A C 0.6706(3) 0.7280(5) 0.5924(2)
H9A H 0.6962 0.7251 0.6002
C18A C 0.6702(3) 0.7695(5) 0.5982(2)
H10A H 0.6951 0.7945 0.6100
C19A C 0.6327(3) 0.7737(5) 0.58625(18)
C20A C 0.5965(3) 0.7371(5) 0.56831(18)
H11A H 0.5714 0.7406 0.5600
C21A C 0.5971(3) 0.6963(5) 0.56271(17)
H12A H 0.5725 0.6719 0.5502
N3A N 0.61625(17) 0.88382(21) 0.38361(10)
C29A C 0.6091(2) 0.83946(27) 0.39102(13)
H17A H 0.5906 0.8228 0.4097
C30A C 0.6289(3) 0.81940(34) 0.37114(16)
H18A H 0.6240 0.7891 0.3762
C31A C 0.6560(2) 0.84385(26) 0.34384(14)
C32A C 0.6631(3) 0.8882(4) 0.33642(14)
H19A H 0.6816 0.9048 0.3178
C33A C 0.6433(2) 0.90821(26) 0.35631(13)
H20A H 0.6482 0.9385 0.3512
N4A N 0.51883(16) 0.98129(22) 0.48151(10)
C34A C 0.4858(5) 0.9902(6) 0.4643(3)
H21A H 0.4604 0.9603 0.4552
H22A H 0.5019 1.0114 0.4453
C35A C 0.5528(5) 1.0246(7) 0.4965(4)
H23A H 0.5717 1.0469 0.4788
H24A H 0.5742 1.0188 0.5104
C36A C 0.4926(5) 0.9520(7) 0.5093(3)
H25A H 0.5138 0.9456 0.5230
H26A H 0.4672 0.9217 0.5008
C37A C 0.5278(5) 1.0267(6) 0.4698(4)
H27A H 0.5151 1.0231 0.4470
H28A H 0.5622 1.0482 0.4686
C38A C 0.5351(5) 0.9887(7) 0.5149(3)
H29A H 0.5279 0.9582 0.5246
C39A C 0.4683(4) 0.9534(6) 0.4825(4)
H30A H 0.4591 0.9219 0.4914
H31A H 0.4558 0.9494 0.4596
N3M N 0.71708(17) 0.78285(21) 0.28306(10)
C29M C 0.7242(2) 0.82721(27) 0.27565(13)
H17M H 0.7427 0.8439 0.2570
C30M C 0.7044(3) 0.84727(34) 0.29553(16)
H18M H 0.7093 0.8776 0.2905
C31M C 0.6773(2) 0.82282(26) 0.32283(14)
C32M C 0.6702(3) 0.7785(4) 0.33025(14)
H19M H 0.6517 0.7619 0.3489
C33M C 0.6900(2) 0.75846(26) 0.31036(13)
H20M H 0.6851 0.7282 0.3155
N4J N 0.48117(16) 1.01871(22) 0.51849(10)
C34J C 0.5142(5) 1.0098(6) 0.5357(3)
H21J H 0.5396 1.0397 0.5448
H22J H 0.4981 0.9886 0.5547
C35J C 0.4472(5) 0.9754(7) 0.5035(4)
H23J H 0.4283 0.9531 0.5212
H24J H 0.4258 0.9812 0.4896
C36J C 0.5074(5) 1.0480(7) 0.4907(3)
H25J H 0.4862 1.0544 0.4770
H26J H 0.5328 1.0783 0.4992
C37J C 0.4722(5) 0.9733(6) 0.5302(4)
H27J H 0.4849 0.9769 0.5530
H28J H 0.4378 0.9518 0.5314
C38J C 0.4649(5) 1.0113(7) 0.4851(3)
H29J H 0.4721 1.0418 0.4754
C39J C 0.5317(4) 1.0466(6) 0.5175(4)
H30J H 0.5409 1.0781 0.5086
H31J H 0.5442 1.0506 0.5404
Zn1B Zn 0.08799(4) 0.67597(2) 0.41201(2)
Zn2B Zn 0.04776(4) 0.59554(2) 0.45223(2)
N1B N 0.1836(4) 0.8165(2) 0.59187(13)
O1B O 0.10435(34) 0.70735(17) 0.45606(12)
O2B O 0.07387(21) 0.64563(14) 0.48937(9)
O3B O 0.03922(46) 0.7688(3) 0.70967(11)
O4B O 0.10401(26) 0.80119(16) 0.73977(10)
O5B O 0.38627(26) 0.98955(21) 0.55253(10)
O6B O 0.3565(4) 1.0236(3) 0.58445(19)
C1B C 0.0977(3) 0.6891(2) 0.48420(14)
C2B C 0.1188(4) 0.7214(2) 0.51270(15)
C3B C 0.1167(4) 0.7047(2) 0.54495(15)
H1B H 0.1007 0.6719 0.5491
C4B C 0.1382(4) 0.7361(2) 0.57086(16)
H2B H 0.1365 0.7246 0.5927
C5B C 0.1620(4) 0.7842(3) 0.56499(14)
C6B C 0.1637(4) 0.8013(2) 0.53351(18)
H3B H 0.1796 0.8342 0.5297
C7B C 0.1422(4) 0.7702(2) 0.50731(17)
H4B H 0.1434 0.7821 0.4856
C8B C 0.0821(4) 0.7879(2) 0.71230(13)
C9B C 0.1096(4) 0.7968(2) 0.68177(15)
C10B C 0.0867(5) 0.7860(3) 0.65090(15)
H5B H 0.0538 0.7739 0.6503
C11B C 0.1105(5) 0.7924(3) 0.62132(16)
H6B H 0.0943 0.7855 0.6007
C12B C 0.1584(5) 0.8091(3) 0.62229(15)
C13B C 0.1825(5) 0.8212(3) 0.65249(16)
H7B H 0.2156 0.8337 0.6528
C14B C 0.1585(4) 0.8150(2) 0.68149(15)
H8B H 0.1752 0.8231 0.7019
C15B C 0.3545(4) 0.9891(3) 0.57047(16)
C16B C 0.3100(4) 0.9435(3) 0.57523(16)
C17B C 0.2720(5) 0.9426(4) 0.5924(2)
H9B H 0.2749 0.9711 0.6002
C18B C 0.2305(5) 0.9007(4) 0.5982(2)
H10B H 0.2055 0.9006 0.6100
C19B C 0.2263(5) 0.8590(4) 0.58625(18)
C20B C 0.2629(5) 0.8594(4) 0.56831(18)
H11B H 0.2594 0.8308 0.5600
C21B C 0.3037(5) 0.9008(4) 0.56271(17)
H12B H 0.3281 0.9006 0.5502
N3B N 0.11618(21) 0.73243(13) 0.38361(10)
C29B C 0.16054(27) 0.76964(18) 0.39102(13)
H17B H 0.1772 0.7678 0.4097
C30B C 0.18060(34) 0.80950(17) 0.37114(16)
H18B H 0.2109 0.8349 0.3762
C31B C 0.15615(26) 0.81215(16) 0.34384(14)
C32B C 0.1118(4) 0.7749(2) 0.33642(14)
H19B H 0.0952 0.7768 0.3178
C33B C 0.09179(26) 0.73509(17) 0.35631(13)
H20B H 0.0615 0.7097 0.3512
N4B N 0.01871(22) 0.53754(15) 0.48151(10)
C34B C 0.0098(6) 0.4956(4) 0.4643(3)
H21B H 0.0397 0.5001 0.4552
H22B H -0.0114 0.4905 0.4453
C35B C -0.0246(7) 0.5282(5) 0.4965(4)
H23B H -0.0469 0.5248 0.4788
H24B H -0.0188 0.5554 0.5104
C36B C 0.0480(7) 0.5406(5) 0.5093(3)
H25B H 0.0544 0.5682 0.5230
H26B H 0.0783 0.5455 0.5008
C37B C -0.0267(6) 0.5011(4) 0.4698(4)
H27B H -0.0231 0.4920 0.4470
H28B H -0.0482 0.5140 0.4686
C38B C 0.0113(7) 0.5464(5) 0.5149(3)
H29B H 0.0418 0.5697 0.5246
C39B C 0.0466(6) 0.5149(5) 0.4825(4)
H30B H 0.0781 0.5372 0.4914
H31B H 0.0506 0.5064 0.4596
N3N N 0.21715(21) 0.93424(13) 0.28306(10)
C29N C 0.17279(27) 0.89703(18) 0.27565(13)
H17N H 0.1561 0.8989 0.2570
C30N C 0.15273(34) 0.85717(17) 0.29553(16)
H18N H 0.1224 0.8318 0.2905
C31N C 0.17718(26) 0.85452(16) 0.32283(14)
C32N C 0.2215(4) 0.8918(2) 0.33025(14)
H19N H 0.2381 0.8899 0.3489
C33N C 0.24154(26) 0.93158(17) 0.31036(13)
H20N H 0.2718 0.9570 0.3155
N4K N -0.01871(22) 0.46246(15) 0.51849(10)
C34K C -0.0098(6) 0.5044(4) 0.5357(3)
H21K H -0.0397 0.4999 0.5448
H22K H 0.0114 0.5095 0.5547
C35K C 0.0246(7) 0.4718(5) 0.5035(4)
H23K H 0.0469 0.4752 0.5212
H24K H 0.0188 0.4446 0.4896
C36K C -0.0480(7) 0.4594(5) 0.4907(3)
H25K H -0.0544 0.4318 0.4770
H26K H -0.0783 0.4545 0.4992
C37K C 0.0267(6) 0.4989(4) 0.5302(4)
H27K H 0.0231 0.5080 0.5530
H28K H 0.0482 0.4860 0.5314
C38K C -0.0113(7) 0.4536(5) 0.4851(3)
H29K H -0.0418 0.4303 0.4754
C39K C -0.0466(6) 0.4851(5) 0.5175(4)
H30K H -0.0781 0.4628 0.5086
H31K H -0.0506 0.4936 0.5404
Zn1I Zn -0.32403(2) 0.58798(3) 0.58799(2)
Zn2I Zn -0.40446(2) 0.54778(3) 0.54777(2)
N1I N -0.1835(2) 0.6329(3) 0.40813(13)
N2I N -0.3333 0.3333 0.5582(4)
O1I O -0.29265(17) 0.6030(3) 0.54394(12)
O2I O -0.35437(14) 0.57176(16) 0.51063(9)
O3I O -0.2312(3) 0.72958(35) 0.29033(11)
O4I O -0.19881(16) 0.69718(21) 0.26023(10)
O5I O -0.01045(21) 0.60328(15) 0.44747(10)
O6I O 0.0236(3) 0.6671(2) 0.41555(19)
O7I O -0.39523(15) 0.49007(15) 0.55119(10)
O8I O -0.3319(2) 0.5242(2) 0.5835(2)
C1I C -0.3109(2) 0.5914(2) 0.51580(14)
C2I C -0.2786(2) 0.6026(3) 0.48730(15)
C3I C -0.2953(2) 0.5880(3) 0.45505(15)
H1I H -0.3281 0.5712 0.4509
C4I C -0.2639(2) 0.5979(3) 0.42914(16)
H2I H -0.2754 0.5881 0.4073
C5I C -0.2158(3) 0.6222(3) 0.43501(14)
C6I C -0.1987(2) 0.6376(3) 0.46649(18)
H3I H -0.1658 0.6546 0.4703
C7I C -0.2298(2) 0.6280(3) 0.49269(17)
H4I H -0.2179 0.6387 0.5144
C8I C -0.2121(2) 0.7058(3) 0.28770(13)
C9I C -0.2032(2) 0.6872(3) 0.31823(15)
C10I C -0.2140(3) 0.6993(4) 0.34910(15)
H5I H -0.2261 0.7201 0.3497
C11I C -0.2076(3) 0.6819(4) 0.37868(16)
H6I H -0.2145 0.6912 0.3993
C12I C -0.1909(3) 0.6507(4) 0.37771(15)
C13I C -0.1788(3) 0.6387(4) 0.34751(16)
H7I H -0.1663 0.6181 0.3472
C14I C -0.1850(2) 0.6565(3) 0.31851(15)
H8I H -0.1769 0.6479 0.2981
C15I C -0.0109(3) 0.6346(2) 0.42953(16)
C16I C -0.0565(3) 0.6335(2) 0.42477(16)
C17I C -0.0574(4) 0.6706(3) 0.4076(2)
H9I H -0.0289 0.6962 0.3998
C18I C -0.0993(4) 0.6702(3) 0.4018(2)
H10I H -0.0994 0.6951 0.3900
C19I C -0.1410(4) 0.6327(3) 0.41375(18)
C20I C -0.1406(4) 0.5965(3) 0.43169(18)
H11I H -0.1692 0.5714 0.4400
C21I C -0.0992(4) 0.5971(3) 0.43729(17)
H12I H -0.0994 0.5725 0.4498
C22I C -0.3608(2) 0.4915(3) 0.56635(16)
C23I C -0.3555(2) 0.4490(2) 0.56420(18)
C24I C -0.3839(2) 0.4103(2) 0.5438(2)
H13I H -0.4086 0.4101 0.5315
C25I C -0.3767(2) 0.3725(3) 0.5414(2)
H14I H -0.3961 0.3467 0.5274
C26I C -0.3406(2) 0.3726(2) 0.5598(2)
C27I C -0.3128(3) 0.4092(3) 0.5807(2)
H15I H -0.2889 0.4086 0.5934
C28I C -0.3203(3) 0.4472(3) 0.5829(2)
H16I H -0.3013 0.4724 0.5974
O7J O -0.49007(15) 0.11470(21) 0.55119(10)
O8J O -0.5242(2) 0.1439(3) 0.5835(2)
C22J C -0.4915(3) 0.1477(4) 0.56635(16)
C23J C -0.4490(2) 0.1955(3) 0.56420(18)
C24J C -0.4103(2) 0.2058(3) 0.5438(2)
H13J H -0.4101 0.1813 0.5315
C25J C -0.3725(3) 0.2508(4) 0.5414(2)
H14J H -0.3467 0.2572 0.5274
C26J C -0.3726(2) 0.2868(3) 0.5598(2)
C27J C -0.4092(3) 0.2780(4) 0.5807(2)
H15J H -0.4086 0.3025 0.5934
C28J C -0.4472(3) 0.2325(4) 0.5829(2)
H16J H -0.4724 0.2263 0.5974
O7K O -0.11470(21) 0.39523(15) 0.55119(10)
O8K O -0.1439(3) 0.3319(2) 0.5835(2)
C22K C -0.1477(4) 0.3608(2) 0.56635(16)
C23K C -0.1955(3) 0.3555(2) 0.56420(18)
C24K C -0.2058(3) 0.3839(2) 0.5438(2)
H13K H -0.1813 0.4086 0.5315
C25K C -0.2508(4) 0.3767(2) 0.5414(2)
H14K H -0.2572 0.3961 0.5274
C26K C -0.2868(3) 0.3406(2) 0.5598(2)
C27K C -0.2780(4) 0.3128(3) 0.5807(2)
H15K H -0.3025 0.2889 0.5934
C28K C -0.2325(4) 0.3203(3) 0.5829(2)
H16K H -0.2263 0.3013 0.5974
Zn1J Zn -0.58798(3) 0.08799(4) 0.58799(2)
Zn2J Zn -0.54778(3) 0.04776(4) 0.54777(2)
N1J N -0.6329(3) 0.1836(4) 0.40813(13)
O1J O -0.6030(3) 0.10435(34) 0.54394(12)
O2J O -0.57176(16) 0.07387(21) 0.51063(9)
O3J O -0.72958(35) 0.03922(46) 0.29033(11)
O4J O -0.69718(21) 0.10401(26) 0.26023(10)
O5J O -0.60328(15) 0.38627(26) 0.44747(10)
O6J O -0.6671(2) 0.3565(4) 0.41555(19)
C1J C -0.5914(2) 0.0977(3) 0.51580(14)
C2J C -0.6026(3) 0.1188(4) 0.48730(15)
C3J C -0.5880(3) 0.1167(4) 0.45505(15)
H1J H -0.5712 0.1007 0.4509
C4J C -0.5979(3) 0.1382(4) 0.42914(16)
H2J H -0.5881 0.1365 0.4073
C5J C -0.6222(3) 0.1620(4) 0.43501(14)
C6J C -0.6376(3) 0.1637(4) 0.46649(18)
H3J H -0.6546 0.1796 0.4703
C7J C -0.6280(3) 0.1422(4) 0.49269(17)
H4J H -0.6387 0.1434 0.5144
C8J C -0.7058(3) 0.0821(4) 0.28770(13)
C9J C -0.6872(3) 0.1096(4) 0.31823(15)
C10J C -0.6993(4) 0.0867(5) 0.34910(15)
H5J H -0.7201 0.0538 0.3497
C11J C -0.6819(4) 0.1105(5) 0.37868(16)
H6J H -0.6912 0.0943 0.3993
C12J C -0.6507(4) 0.1584(5) 0.37771(15)
C13J C -0.6387(4) 0.1825(5) 0.34751(16)
H7J H -0.6181 0.2156 0.3472
C14J C -0.6565(3) 0.1585(4) 0.31851(15)
H8J H -0.6479 0.1752 0.2981
C15J C -0.6346(2) 0.3545(4) 0.42953(16)
C16J C -0.6335(2) 0.3100(4) 0.42477(16)
C17J C -0.6706(3) 0.2720(5) 0.4076(2)
H9J H -0.6962 0.2749 0.3998
C18J C -0.6702(3) 0.2305(5) 0.4018(2)
H10J H -0.6951 0.2055 0.3900
C19J C -0.6327(3) 0.2263(5) 0.41375(18)
C20J C -0.5965(3) 0.2629(5) 0.43169(18)
H11J H -0.5714 0.2594 0.4400
C21J C -0.5971(3) 0.3037(5) 0.43729(17)
H12J H -0.5725 0.3281 0.4498
Zn1K Zn -0.08799(4) 0.32403(2) 0.58799(2)
Zn2K Zn -0.04776(4) 0.40446(2) 0.54777(2)
N1K N -0.1836(4) 0.1835(2) 0.40813(13)
O1K O -0.10435(34) 0.29265(17) 0.54394(12)
O2K O -0.07387(21) 0.35437(14) 0.51063(9)
O3K O -0.03922(46) 0.2312(3) 0.29033(11)
O4K O -0.10401(26) 0.19881(16) 0.26023(10)
O5K O -0.38627(26) 0.01045(21) 0.44747(10)
O6K O -0.3565(4) -0.0236(3) 0.41555(19)
C1K C -0.0977(3) 0.3109(2) 0.51580(14)
C2K C -0.1188(4) 0.2786(2) 0.48730(15)
C3K C -0.1167(4) 0.2953(2) 0.45505(15)
H1K H -0.1007 0.3281 0.4509
C4K C -0.1382(4) 0.2639(2) 0.42914(16)
H2K H -0.1365 0.2754 0.4073
C5K C -0.1620(4) 0.2158(3) 0.43501(14)
C6K C -0.1637(4) 0.1987(2) 0.46649(18)
H3K H -0.1796 0.1658 0.4703
C7K C -0.1422(4) 0.2298(2) 0.49269(17)
H4K H -0.1434 0.2179 0.5144
C8K C -0.0821(4) 0.2121(2) 0.28770(13)
C9K C -0.1096(4) 0.2032(2) 0.31823(15)
C10K C -0.0867(5) 0.2140(3) 0.34910(15)
H5K H -0.0538 0.2261 0.3497
C11K C -0.1105(5) 0.2076(3) 0.37868(16)
H6K H -0.0943 0.2145 0.3993
C12K C -0.1584(5) 0.1909(3) 0.37771(15)
C13K C -0.1825(5) 0.1788(3) 0.34751(16)
H7K H -0.2156 0.1663 0.3472
C14K C -0.1585(4) 0.1850(2) 0.31851(15)
H8K H -0.1752 0.1769 0.2981
C15K C -0.3545(4) 0.0109(3) 0.42953(16)
C16K C -0.3100(4) 0.0565(3) 0.42477(16)
C17K C -0.2720(5) 0.0574(4) 0.4076(2)
H9K H -0.2749 0.0289 0.3998
C18K C -0.2305(5) 0.0993(4) 0.4018(2)
H10K H -0.2055 0.0994 0.3900
C19K C -0.2263(5) 0.1410(4) 0.41375(18)
C20K C -0.2629(5) 0.1406(4) 0.43169(18)
H11K H -0.2594 0.1692 0.4400
C21K C -0.3037(5) 0.0992(4) 0.43729(17)
H12K H -0.3281 0.0994 0.4498
Zn1_2 Zn -0.67597(2) 0.41202(3) 0.41201(2)
Zn1A_2 Zn -0.41202(3) -0.08799(4) 0.41201(2)
Zn1C Zn -0.00930(2) 0.74535(3) 0.74534(2)
Zn1D Zn 0.25465(3) 0.24534(4) 0.74534(2)
Zn1E Zn 0.75466(4) 1.00930(2) 0.74534(2)
Zn1I_2 Zn 0.67597(2) 0.58798(3) 0.58799(2)
Zn1J_2 Zn 0.41202(3) 1.08799(4) 0.58799(2)
Zn1L Zn 0.00930(2) 0.25465(3) 0.25466(2)
Zn1M Zn -0.25465(3) 0.75466(4) 0.25466(2)
Zn1M_2 Zn 0.74535(3) 0.75466(4) 0.25466(2)
Zn1N Zn -0.75466(4) -0.00930(2) 0.25466(2)
Zn1N_2 Zn 0.24534(4) 0.99070(2) 0.25466(2)
Zn2_2 Zn -0.59554(2) 0.45222(3) 0.45223(2)
Zn2A_2 Zn -0.45222(3) -0.04776(4) 0.45223(2)
Zn2C Zn 0.07113(2) 0.78555(3) 0.78556(2)
Zn2D Zn 0.21445(3) 0.28557(4) 0.78556(2)
Zn2E Zn 0.71443(4) 0.92887(2) 0.78556(2)
Zn2I_2 Zn 0.59554(2) 0.54778(3) 0.54777(2)
Zn2J_2 Zn 0.45222(3) 1.04776(4) 0.54777(2)
Zn2L Zn -0.07113(2) 0.21445(3) 0.21444(2)
Zn2M Zn -0.21445(3) 0.71443(4) 0.21444(2)
Zn2N Zn -0.71443(4) 0.07113(2) 0.21444(2)
O3F O 0.5645(3) 0.93709(35) 0.37634(11)
O3G O 0.06291(35) 0.62745(46) 0.37634(11)
O3H O 0.37255(46) 0.4355(3) 0.37634(11)
O3O O -0.5645(3) 0.06291(35) 0.62366(11)
O3P O -0.06291(35) 0.37255(46) 0.62366(11)
O3Q O -0.37255(46) 0.5645(3) 0.62366(11)
O4F O 0.53214(16) 0.96949(21) 0.40644(10)
O4G O 0.03051(21) 0.56266(26) 0.40644(10)
O4H O 0.43734(26) 0.46786(16) 0.40644(10)
O4O O -0.53214(16) 0.03051(21) 0.59356(10)
O4P O -0.03051(21) 0.43734(26) 0.59356(10)
O4Q O -0.43734(26) 0.53214(16) 0.59356(10)
O5A_2 O -0.39672(15) 0.61373(26) 0.55253(10)
O5B_2 O -0.61373(26) -0.01045(21) 0.55253(10)
O5J_2 O 0.39672(15) 0.38627(26) 0.44747(10)
O5K_2 O 0.61373(26) 1.01045(21) 0.44747(10)
O6A_2 O -0.3329(2) 0.6435(4) 0.58445(19)
O6B_2 O -0.6435(4) 0.0236(3) 0.58445(19)
O6J_2 O 0.3329(2) 0.3565(4) 0.41555(19)
O6K_2 O 0.6435(4) 0.9764(3) 0.41555(19)
N3I N -0.26757(13) 0.61625(17) 0.61639(10)
N3J N -0.61625(17) 0.11618(21) 0.61639(10)
N3K N -0.11618(21) 0.26757(13) 0.61639(10)
N4I_2 N -0.46246(15) 0.51883(16) 0.51849(10)
N4J_2 N -0.51883(16) 0.01871(22) 0.51849(10)
loop_
_geom_bond_atom_site_label_1
_geom_bond_atom_site_label_2
_geom_bond_site_symmetry_1
_geom_bond_site_symmetry_2
Zn1 O1 1_555 1_555
Zn2 O2 1_555 1_555
N1 C5 1_555 1_555
N2 C26 1_555 1_555
O1 C1 1_555 1_555
O2 C1 1_555 1_555
O3 C8 1_555 1_555
O4 C8 1_555 1_555
O5 C15 1_555 1_555
O6 C15 1_555 1_555
O7 Zn2 1_555 1_555
O8 Zn1 1_555 1_555
C1 C2 1_555 1_555
C2 C3 1_555 1_555
C3 H1 1_555 1_555
C4 C3 1_555 1_555
H2 C4 1_555 1_555
C5 C4 1_555 1_555
C6 C5 1_555 1_555
H3 C6 1_555 1_555
C7 C2 1_555 1_555
H4 C7 1_555 1_555
C8 C9 1_555 1_555
C9 C10 1_555 1_555
C10 H5 1_555 1_555
C11 C10 1_555 1_555
H6 C11 1_555 1_555
C12 N1 1_555 1_555
C13 C12 1_555 1_555
H7 C13 1_555 1_555
C14 C9 1_555 1_555
H8 C14 1_555 1_555
C15 C16 1_555 1_555
C16 C17 1_555 1_555
C17 H9 1_555 1_555
C18 C17 1_555 1_555
H10 C18 1_555 1_555
C19 N1 1_555 1_555
C20 C19 1_555 1_555
H11 C20 1_555 1_555
C21 C16 1_555 1_555
H12 C21 1_555 1_555
C22 O7 1_555 1_555
C23 C22 1_555 1_555
C24 C23 1_555 1_555
H13 C24 1_555 1_555
C25 C24 1_555 1_555
H14 C25 1_555 1_555
C26 C25 1_555 1_555
C27 C26 1_555 1_555
H15 C27 1_555 1_555
C28 C23 1_555 1_555
H16 C28 1_555 1_555
N3 Zn1 1_555 1_555
C29 N3 1_555 1_555
H17 C29 1_555 1_555
C30 C29 1_555 1_555
H18 C30 1_555 1_555
C31 C30 1_555 1_555
C32 C31 1_555 1_555
H19 C32 1_555 1_555
C33 N3 1_555 1_555
H20 C33 1_555 1_555
N4 Zn2 1_555 1_555
C34 N4 1_555 1_555
H21 C34 1_555 1_555
H22 C34 1_555 1_555
C35 N4 1_555 1_555
H23 C35 1_555 1_555
H24 C35 1_555 1_555
C36 N4 1_555 1_555
H25 C36 1_555 1_555
H26 C36 1_555 1_555
C37 N4 1_555 1_555
H27 C34 1_555 1_555
H28 C35 1_555 1_555
C38 N4 1_555 1_555
H29 C36 1_555 1_555
C39 N4 1_555 1_555
H30 C36 1_555 1_555
H31 C34 1_555 1_555
O7A C22A 1_555 1_555
O8A C22A 1_555 1_555
C22A C23A 1_555 1_555
C23A C24A 1_555 1_555
C24A H13A 1_555 1_555
C25A C24A 1_555 1_555
H14A C25A 1_555 1_555
C26A N2 1_555 1_555
C27A C26A 1_555 1_555
H15A C27A 1_555 1_555
C28A C23A 1_555 1_555
H16A C28A 1_555 1_555
O7B C22B 1_555 1_555
O8B C22B 1_555 1_555
C22B C23B 1_555 1_555
C23B C24B 1_555 1_555
C24B H13B 1_555 1_555
C25B C24B 1_555 1_555
H14B C25B 1_555 1_555
C26B N2 1_555 1_555
C27B C26B 1_555 1_555
H15B C27B 1_555 1_555
C28B C23B 1_555 1_555
H16B C28B 1_555 1_555
N3L C29L 1_555 1_555
C29L H17L 1_555 1_555
C30L C29L 1_555 1_555
H18L C30L 1_555 1_555
C31L C31 1_555 1_555
C32L C31L 1_555 1_555
H19L C32L 1_555 1_555
C33L N3L 1_555 1_555
H20L C33L 1_555 1_555
N4I C34I 1_555 1_555
C34I C38 1_555 1_555
H21I C34I 1_555 1_555
H22I C34I 1_555 1_555
C35I C39 1_555 1_555
H23I C35I 1_555 1_555
H24I C35I 1_555 1_555
C36I C37 1_555 1_555
H25I C36I 1_555 1_555
H26I C36I 1_555 1_555
C37I C36 1_555 1_555
H27I C34I 1_555 1_555
H28I C35I 1_555 1_555
C38I C34 1_555 1_555
H29I C36I 1_555 1_555
C39I C35 1_555 1_555
H30I C36I 1_555 1_555
H31I C34I 1_555 1_555
Zn1A O8A 1_555 1_555
Zn2A O7A 1_555 1_555
N1A C5A 1_555 1_555
O1A Zn1A 1_555 1_555
O2A Zn2A 1_555 1_555
O3A C8A 1_555 1_555
O4A C8A 1_555 1_555
O5A C15A 1_555 1_555
O6A C15A 1_555 1_555
C1A O1A 1_555 1_555
C2A C1A 1_555 1_555
C3A C2A 1_555 1_555
H1A C3A 1_555 1_555
C4A C3A 1_555 1_555
H2A C4A 1_555 1_555
C5A C4A 1_555 1_555
C6A C5A 1_555 1_555
H3A C6A 1_555 1_555
C7A C2A 1_555 1_555
H4A C7A 1_555 1_555
C8A C9A 1_555 1_555
C9A C10A 1_555 1_555
C10A H5A 1_555 1_555
C11A C10A 1_555 1_555
H6A C11A 1_555 1_555
C12A N1A 1_555 1_555
C13A C12A 1_555 1_555
H7A C13A 1_555 1_555
C14A C9A 1_555 1_555
H8A C14A 1_555 1_555
C15A C16A 1_555 1_555
C16A C17A 1_555 1_555
C17A H9A 1_555 1_555
C18A C17A 1_555 1_555
H10A C18A 1_555 1_555
C19A N1A 1_555 1_555
C20A C19A 1_555 1_555
H11A C20A 1_555 1_555
C21A C16A 1_555 1_555
H12A C21A 1_555 1_555
N3A Zn1A 1_555 1_555
C29A N3A 1_555 1_555
H17A C29A 1_555 1_555
C30A C29A 1_555 1_555
H18A C30A 1_555 1_555
C31A C30A 1_555 1_555
C32A C31A 1_555 1_555
H19A C32A 1_555 1_555
C33A N3A 1_555 1_555
H20A C33A 1_555 1_555
N4A Zn2A 1_555 1_555
C34A N4A 1_555 1_555
H21A C34A 1_555 1_555
H22A C34A 1_555 1_555
C35A N4A 1_555 1_555
H23A C35A 1_555 1_555
H24A C35A 1_555 1_555
C36A N4A 1_555 1_555
H25A C36A 1_555 1_555
H26A C36A 1_555 1_555
C37A N4A 1_555 1_555
H27A C34A 1_555 1_555
H28A C35A 1_555 1_555
C38A N4A 1_555 1_555
H29A C36A 1_555 1_555
C39A N4A 1_555 1_555
H30A C36A 1_555 1_555
H31A C34A 1_555 1_555
N3M C29M 1_555 1_555
C29M H17M 1_555 1_555
C30M C29M 1_555 1_555
H18M C30M 1_555 1_555
C31M C31A 1_555 1_555
C32M C31M 1_555 1_555
H19M C32M 1_555 1_555
C33M N3M 1_555 1_555
H20M C33M 1_555 1_555
N4J C34J 1_555 1_555
C34J C38A 1_555 1_555
H21J C34J 1_555 1_555
H22J C34J 1_555 1_555
C35J C39A 1_555 1_555
H23J C35J 1_555 1_555
H24J C35J 1_555 1_555
C36J C37A 1_555 1_555
H25J C36J 1_555 1_555
H26J C36J 1_555 1_555
C37J C36A 1_555 1_555
H27J C34J 1_555 1_555
H28J C35J 1_555 1_555
C38J C34A 1_555 1_555
H29J C36J 1_555 1_555
C39J C35A 1_555 1_555
H30J C36J 1_555 1_555
H31J C34J 1_555 1_555
Zn1B O8B 1_555 1_555
Zn2B O7B 1_555 1_555
N1B C5B 1_555 1_555
O1B Zn1B 1_555 1_555
O2B Zn2B 1_555 1_555
O3B C8B 1_555 1_555
O4B C8B 1_555 1_555
O5B C15B 1_555 1_555
O6B C15B 1_555 1_555
C1B O1B 1_555 1_555
C2B C1B 1_555 1_555
C3B C2B 1_555 1_555
H1B C3B 1_555 1_555
C4B C3B 1_555 1_555
H2B C4B 1_555 1_555
C5B C4B 1_555 1_555
C6B C5B 1_555 1_555
H3B C6B 1_555 1_555
C7B C2B 1_555 1_555
H4B C7B 1_555 1_555
C8B C9B 1_555 1_555
C9B C10B 1_555 1_555
C10B H5B 1_555 1_555
C11B C10B 1_555 1_555
H6B C11B 1_555 1_555
C12B N1B 1_555 1_555
C13B C12B 1_555 1_555
H7B C13B 1_555 1_555
C14B C9B 1_555 1_555
H8B C14B 1_555 1_555
C15B C16B 1_555 1_555
C16B C17B 1_555 1_555
C17B H9B 1_555 1_555
C18B C17B 1_555 1_555
H10B C18B 1_555 1_555
C19B N1B 1_555 1_555
C20B C19B 1_555 1_555
H11B C20B 1_555 1_555
C21B C16B 1_555 1_555
H12B C21B 1_555 1_555
N3B Zn1B 1_555 1_555
C29B N3B 1_555 1_555
H17B C29B 1_555 1_555
C30B C29B 1_555 1_555
H18B C30B 1_555 1_555
C31B C30B 1_555 1_555
C32B C31B 1_555 1_555
H19B C32B 1_555 1_555
C33B N3B 1_555 1_555
H20B C33B 1_555 1_555
N4B Zn2B 1_555 1_555
C34B N4B 1_555 1_555
H21B C34B 1_555 1_555
H22B C34B 1_555 1_555
C35B N4B 1_555 1_555
H23B C35B 1_555 1_555
H24B C35B 1_555 1_555
C36B N4B 1_555 1_555
H25B C36B 1_555 1_555
H26B C36B 1_555 1_555
C37B N4B 1_555 1_555
H27B C34B 1_555 1_555
H28B C35B 1_555 1_555
C38B N4B 1_555 1_555
H29B C36B 1_555 1_555
C39B N4B 1_555 1_555
H30B C36B 1_555 1_555
H31B C34B 1_555 1_555
N3N C29N 1_555 1_555
C29N H17N 1_555 1_555
C30N C29N 1_555 1_555
H18N C30N 1_555 1_555
C31N C31B 1_555 1_555
C32N C31N 1_555 1_555
H19N C32N 1_555 1_555
C33N N3N 1_555 1_555
H20N C33N 1_555 1_555
N4K C34K 1_555 1_555
C34K C38B 1_555 1_555
H21K C34K 1_555 1_555
H22K C34K 1_555 1_555
C35K C39B 1_555 1_555
H23K C35K 1_555 1_555
H24K C35K 1_555 1_555
C36K C37B 1_555 1_555
H25K C36K 1_555 1_555
H26K C36K 1_555 1_555
C37K C36B 1_555 1_555
H27K C34K 1_555 1_555
H28K C35K 1_555 1_555
C38K C34B 1_555 1_555
H29K C36K 1_555 1_555
C39K C35B 1_555 1_555
H30K C36K 1_555 1_555
H31K C34K 1_555 1_555
Zn1I O1I 1_555 1_555
Zn2I O2I 1_555 1_555
N1I C5I 1_555 1_555
N2I C26I 1_555 1_555
O1I C1I 1_555 1_555
O2I C1I 1_555 1_555
O3I C8I 1_555 1_555
O4I C8I 1_555 1_555
O5I Zn2B 1_555 1_555
O6I Zn1B 1_555 1_555
O7I Zn2I 1_555 1_555
O8I Zn1I 1_555 1_555
C1I C2I 1_555 1_555
C2I C3I 1_555 1_555
C3I H1I 1_555 1_555
C4I C3I 1_555 1_555
H2I C4I 1_555 1_555
C5I C4I 1_555 1_555
C6I C5I 1_555 1_555
H3I C6I 1_555 1_555
C7I C2I 1_555 1_555
H4I C7I 1_555 1_555
C8I C9I 1_555 1_555
C9I C10I 1_555 1_555
C10I H5I 1_555 1_555
C11I C10I 1_555 1_555
H6I C11I 1_555 1_555
C12I N1I 1_555 1_555
C13I C12I 1_555 1_555
H7I C13I 1_555 1_555
C14I C9I 1_555 1_555
H8I C14I 1_555 1_555
C15I O5I 1_555 1_555
C16I C15I 1_555 1_555
C17I C16I 1_555 1_555
H9I C17I 1_555 1_555
C18I C17I 1_555 1_555
H10I C18I 1_555 1_555
C19I N1I 1_555 1_555
C20I C19I 1_555 1_555
H11I C20I 1_555 1_555
C21I C16I 1_555 1_555
H12I C21I 1_555 1_555
C22I O7I 1_555 1_555
C23I C22I 1_555 1_555
C24I C23I 1_555 1_555
H13I C24I 1_555 1_555
C25I C24I 1_555 1_555
H14I C25I 1_555 1_555
C26I C25I 1_555 1_555
C27I C26I 1_555 1_555
H15I C27I 1_555 1_555
C28I C23I 1_555 1_555
H16I C28I 1_555 1_555
O7J C22J 1_555 1_555
O8J C22J 1_555 1_555
C22J C23J 1_555 1_555
C23J C24J 1_555 1_555
C24J H13J 1_555 1_555
C25J C24J 1_555 1_555
H14J C25J 1_555 1_555
C26J N2I 1_555 1_555
C27J C26J 1_555 1_555
H15J C27J 1_555 1_555
C28J C23J 1_555 1_555
H16J C28J 1_555 1_555
O7K C22K 1_555 1_555
O8K C22K 1_555 1_555
C22K C23K 1_555 1_555
C23K C24K 1_555 1_555
C24K H13K 1_555 1_555
C25K C24K 1_555 1_555
H14K C25K 1_555 1_555
C26K N2I 1_555 1_555
C27K C26K 1_555 1_555
H15K C27K 1_555 1_555
C28K C23K 1_555 1_555
H16K C28K 1_555 1_555
Zn1J O8J 1_555 1_555
Zn2J O7J 1_555 1_555
N1J C5J 1_555 1_555
O1J Zn1J 1_555 1_555
O2J Zn2J 1_555 1_555
O3J C8J 1_555 1_555
O4J C8J 1_555 1_555
O5J C15J 1_555 1_555
O6J C15J 1_555 1_555
C1J O1J 1_555 1_555
C2J C1J 1_555 1_555
C3J C2J 1_555 1_555
H1J C3J 1_555 1_555
C4J C3J 1_555 1_555
H2J C4J 1_555 1_555
C5J C4J 1_555 1_555
C6J C5J 1_555 1_555
H3J C6J 1_555 1_555
C7J C2J 1_555 1_555
H4J C7J 1_555 1_555
C8J C9J 1_555 1_555
C9J C10J 1_555 1_555
C10J H5J 1_555 1_555
C11J C10J 1_555 1_555
H6J C11J 1_555 1_555
C12J N1J 1_555 1_555
C13J C12J 1_555 1_555
H7J C13J 1_555 1_555
C14J C9J 1_555 1_555
H8J C14J 1_555 1_555
C15J C16J 1_555 1_555
C16J C17J 1_555 1_555
C17J H9J 1_555 1_555
C18J C17J 1_555 1_555
H10J C18J 1_555 1_555
C19J N1J 1_555 1_555
C20J C19J 1_555 1_555
H11J C20J 1_555 1_555
C21J C16J 1_555 1_555
H12J C21J 1_555 1_555
Zn1K O6 1_555 1_555
Zn2K O5 1_555 1_555
N1K C5K 1_555 1_555
O1K Zn1K 1_555 1_555
O2K Zn2K 1_555 1_555
O3K C8K 1_555 1_555
O4K C8K 1_555 1_555
O5K C15K 1_555 1_555
O6K C15K 1_555 1_555
C1K O1K 1_555 1_555
C2K C1K 1_555 1_555
C3K C2K 1_555 1_555
H1K C3K 1_555 1_555
C4K C3K 1_555 1_555
H2K C4K 1_555 1_555
C5K C4K 1_555 1_555
C6K C5K 1_555 1_555
H3K C6K 1_555 1_555
C7K C2K 1_555 1_555
H4K C7K 1_555 1_555
C8K C9K 1_555 1_555
C9K C10K 1_555 1_555
C10K H5K 1_555 1_555
C11K C10K 1_555 1_555
H6K C11K 1_555 1_555
C12K N1K 1_555 1_555
C13K C12K 1_555 1_555
H7K C13K 1_555 1_555
C14K C9K 1_555 1_555
H8K C14K 1_555 1_555
C15K C16K 1_555 1_555
C16K C17K 1_555 1_555
C17K H9K 1_555 1_555
C18K C17K 1_555 1_555
H10K C18K 1_555 1_555
C19K N1K 1_555 1_555
C20K C19K 1_555 1_555
H11K C20K 1_555 1_555
C21K C16K 1_555 1_555
H12K C21K 1_555 1_555
Zn1_2 O6J 1_555 1_555
Zn1A_2 O6K 1_555 1_555
Zn1C O3B 1_555 1_555
Zn1D O3 1_555 1_555
Zn1E O3A 1_555 1_555
Zn1I_2 O6A 1_555 1_555
Zn1J_2 O6B 1_555 1_555
Zn1L N3L 1_555 1_555
Zn1M O3I 1_555 1_555
Zn1M_2 N3M 1_555 1_555
Zn1N O3J 1_555 1_555
Zn1N_2 N3N 1_555 1_555
Zn2_2 O5J 1_555 1_555
Zn2A_2 O5K 1_555 1_555
Zn2C O4B 1_555 1_555
Zn2D O4 1_555 1_555
Zn2E O4A 1_555 1_555
Zn2I_2 N4I 1_555 1_555
Zn2J_2 N4J 1_555 1_555
Zn2L O4K 1_555 1_555
Zn2M O4I 1_555 1_555
Zn2N O4J 1_555 1_555
O3F Zn1A 1_555 1_555
O3G Zn1B 1_555 1_555
O3H Zn1 1_555 1_555
O3O Zn1J 1_555 1_555
O3P Zn1K 1_555 1_555
O3Q Zn1I 1_555 1_555
O4F Zn2A 1_555 1_555
O4G Zn2B 1_555 1_555
O4H Zn2 1_555 1_555
O4O Zn2J 1_555 1_555
O4P Zn2K 1_555 1_555
O4Q Zn2I 1_555 1_555
O5A_2 Zn2I 1_555 1_555
O5B_2 Zn2J 1_555 1_555
O5J_2 Zn2 1_555 1_555
O5K_2 Zn2A 1_555 1_555
O6A_2 Zn1I 1_555 1_555
O6B_2 Zn1J 1_555 1_555
O6J_2 Zn1 1_555 1_555
O6K_2 Zn1A 1_555 1_555
N3I Zn1I 1_555 1_555
N3J Zn1J 1_555 1_555
N3K Zn1K 1_555 1_555
N4I_2 Zn2I 1_555 1_555
N4J_2 Zn2J 1_555 1_555
O8 C22 1_555 1_555
C6 C7 1_555 1_555
C11 C12 1_555 1_555
C13 C14 1_555 1_555
C18 C19 1_555 1_555
C20 C21 1_555 1_555
C27 C28 1_555 1_555
C32 C33 1_555 1_555
C34 C37 1_555 1_555
C34 C39 1_555 1_555
H21 C39 1_555 1_555
H22 C37 1_555 1_555
C35 C37 1_555 1_555
C35 C38 1_555 1_555
H23 C37 1_555 1_555
H24 C38 1_555 1_555
C36 C38 1_555 1_555
C36 C39 1_555 1_555
H25 C38 1_555 1_555
H26 C39 1_555 1_555
C37 H27 1_555 1_555
C37 H28 1_555 1_555
C38 H29 1_555 1_555
C39 H30 1_555 1_555
C39 H31 1_555 1_555
C25A C26A 1_555 1_555
C27A C28A 1_555 1_555
C25B C26B 1_555 1_555
C27B C28B 1_555 1_555
C30L C31L 1_555 1_555
C32L C33L 1_555 1_555
N4I C35I 1_555 1_555
N4I C36I 1_555 1_555
N4I C37I 1_555 1_555
N4I C38I 1_555 1_555
N4I C39I 1_555 1_555
C34I C37I 1_555 1_555
C34I C39I 1_555 1_555
H21I C39I 1_555 1_555
H22I C37I 1_555 1_555
C35I C37I 1_555 1_555
C35I C38I 1_555 1_555
H23I C37I 1_555 1_555
H24I C38I 1_555 1_555
C36I C38I 1_555 1_555
C36I C39I 1_555 1_555
H25I C38I 1_555 1_555
H26I C39I 1_555 1_555
C37I H27I 1_555 1_555
C37I H28I 1_555 1_555
C38I H29I 1_555 1_555
C39I H30I 1_555 1_555
C39I H31I 1_555 1_555
O2A C1A 1_555 1_555
O5A Zn2I_2 1_555 1_555
C6A C7A 1_555 1_555
C11A C12A 1_555 1_555
C13A C14A 1_555 1_555
C18A C19A 1_555 1_555
C20A C21A 1_555 1_555
C32A C33A 1_555 1_555
C34A C37A 1_555 1_555
C34A C39A 1_555 1_555
H21A C39A 1_555 1_555
H22A C37A 1_555 1_555
C35A C37A 1_555 1_555
C35A C38A 1_555 1_555
H23A C37A 1_555 1_555
H24A C38A 1_555 1_555
C36A C38A 1_555 1_555
C36A C39A 1_555 1_555
H25A C38A 1_555 1_555
H26A C39A 1_555 1_555
C37A H27A 1_555 1_555
C37A H28A 1_555 1_555
C38A H29A 1_555 1_555
C39A H30A 1_555 1_555
C39A H31A 1_555 1_555
C30M C31M 1_555 1_555
C32M C33M 1_555 1_555
N4J C35J 1_555 1_555
N4J C36J 1_555 1_555
N4J C37J 1_555 1_555
N4J C38J 1_555 1_555
N4J C39J 1_555 1_555
C34J C37J 1_555 1_555
C34J C39J 1_555 1_555
H21J C39J 1_555 1_555
H22J C37J 1_555 1_555
C35J C37J 1_555 1_555
C35J C38J 1_555 1_555
H23J C37J 1_555 1_555
H24J C38J 1_555 1_555
C36J C38J 1_555 1_555
C36J C39J 1_555 1_555
H25J C38J 1_555 1_555
H26J C39J 1_555 1_555
C37J H27J 1_555 1_555
C37J H28J 1_555 1_555
C38J H29J 1_555 1_555
C39J H30J 1_555 1_555
C39J H31J 1_555 1_555
O2B C1B 1_555 1_555
O5B Zn2J_2 1_555 1_555
C6B C7B 1_555 1_555
C11B C12B 1_555 1_555
C13B C14B 1_555 1_555
C18B C19B 1_555 1_555
C20B C21B 1_555 1_555
C32B C33B 1_555 1_555
C34B C37B 1_555 1_555
C34B C39B 1_555 1_555
H21B C39B 1_555 1_555
H22B C37B 1_555 1_555
C35B C37B 1_555 1_555
C35B C38B 1_555 1_555
H23B C37B 1_555 1_555
H24B C38B 1_555 1_555
C36B C38B 1_555 1_555
C36B C39B 1_555 1_555
H25B C38B 1_555 1_555
H26B C39B 1_555 1_555
C37B H27B 1_555 1_555
C37B H28B 1_555 1_555
C38B H29B 1_555 1_555
C39B H30B 1_555 1_555
C39B H31B 1_555 1_555
C30N C31N 1_555 1_555
C32N C33N 1_555 1_555
N4K C35K 1_555 1_555
N4K C36K 1_555 1_555
N4K C37K 1_555 1_555
N4K C38K 1_555 1_555
N4K C39K 1_555 1_555
N4K Zn2K 1_555 1_555
C34K C37K 1_555 1_555
C34K C39K 1_555 1_555
H21K C39K 1_555 1_555
H22K C37K 1_555 1_555
C35K C37K 1_555 1_555
C35K C38K 1_555 1_555
H23K C37K 1_555 1_555
H24K C38K 1_555 1_555
C36K C38K 1_555 1_555
C36K C39K 1_555 1_555
H25K C38K 1_555 1_555
H26K C39K 1_555 1_555
C37K H27K 1_555 1_555
C37K H28K 1_555 1_555
C38K H29K 1_555 1_555
C39K H30K 1_555 1_555
C39K H31K 1_555 1_555
O6I C15I 1_555 1_555
O8I C22I 1_555 1_555
C6I C7I 1_555 1_555
C11I C12I 1_555 1_555
C13I C14I 1_555 1_555
C18I C19I 1_555 1_555
C20I C21I 1_555 1_555
C27I C28I 1_555 1_555
C25J C26J 1_555 1_555
C27J C28J 1_555 1_555
O7K Zn2K 1_555 1_555
O8K Zn1K 1_555 1_555
C25K C26K 1_555 1_555
C27K C28K 1_555 1_555
O2J C1J 1_555 1_555
C6J C7J 1_555 1_555
C11J C12J 1_555 1_555
C13J C14J 1_555 1_555
C18J C19J 1_555 1_555
C20J C21J 1_555 1_555
O2K C1K 1_555 1_555
O3K Zn1L 1_555 1_555
C6K C7K 1_555 1_555
C11K C12K 1_555 1_555
C13K C14K 1_555 1_555
C18K C19K 1_555 1_555
C20K C21K 1_555 1_555

#END
