
#######################################################################
#
#                 Cambridge Crystallographic Data Centre
#                                CCDC 
#
#######################################################################
#
# If this CIF has been generated from an entry in the Cambridge 
# Structural Database, then it will include bibliographic, chemical, 
# crystal, experimental, refinement or atomic coordinate data resulting 
# from the CCDC's data processing and validation procedures.
#
#######################################################################

data_HOBGAH
_chemical_formula_moiety         '(C24 H22 N4 Ni2 O8)n'
_symmetry_cell_setting           orthorhombic
_symmetry_space_group_name_H-M   'P 21 21 2'
_symmetry_Int_Tables_number      18
_space_group_name_Hall           'P 2 2ab'
loop_
_symmetry_equiv_pos_site_id
_symmetry_equiv_pos_as_xyz
1 x,y,z
2 -x,-y,z
3 1/2+x,1/2-y,-z
4 1/2-x,1/2+y,-z
_cell_length_a                   27.837(15)
_cell_length_b                   9.892(5)
_cell_length_c                   10.446(5)
_cell_angle_alpha                90
_cell_angle_beta                 90
_cell_angle_gamma                90
_cell_volume                     2876.45
loop_
_atom_site_label
_atom_site_type_symbol
_atom_site_fract_x
_atom_site_fract_y
_atom_site_fract_z
Ni1 Ni 0.723404(10) 1.15539(3) 0.47870(3)
O1 O 0.75374(5) 1.1565(2) 0.80244(16)
Ni2 Ni 0.781808(10) 1.16436(3) 0.99058(3)
O2 O 0.70045(7) 1.1000(2) 0.65583(17)
N1 N 0.71294(6) 1.2086(2) 1.04363(19)
H1 H 0.7109 1.2197 1.1309
H2 H 0.7026 1.2866 1.0044
O3 O 0.75749(6) 0.97198(17) 1.02599(18)
O4 O 0.68951(5) 0.85589(18) 1.02648(16)
O5 O 0.81191(6) 1.1729(2) 0.17924(16)
O6 O 0.74605(6) 1.20287(19) 0.29598(16)
O7 O 0.75891(6) 0.97176(19) 0.4549(2)
O8 O 0.81758(6) 0.82774(19) 0.49740(18)
N2 N 0.79037(7) 1.2334(2) 0.51195(19)
H3 H 0.7893 1.3264 0.5142
H4 H 0.8023 1.2026 0.5888
N3 N 0.66120(7) 1.0601(2) 0.41118(18)
C1 C 0.61952(8) 1.0661(3) 0.4713(3)
H5 H 0.6170 1.1241 0.5435
C2 C 0.58014(9) 0.9949(3) 0.4364(3)
H6 H 0.5510 1.0043 0.4829
C3 C 0.58266(8) 0.9076(3) 0.3317(3)
C4 C 0.62570(8) 0.9000(3) 0.2659(2)
H7 H 0.6291 0.8443 0.1924
C5 C 0.66366(9) 0.9766(3) 0.3112(2)
H8 H 0.6936 0.9693 0.2680
C6 C 0.54064(8) 0.8301(3) 0.2859(2)
C7 C 0.51139(10) 0.7585(4) 0.3746(3)
H9 H 0.5181 0.7636 0.4636
C8 C 0.47332(9) 0.6815(3) 0.3317(3)
H10 H 0.4550 0.6308 0.3915
C9 C 0.46157(9) 0.6768(3) 0.2060(2)
C10 C 0.48973(10) 0.7424(4) 0.1197(3)
H11 H 0.4822 0.7387 0.0310
C11 C 0.52945(10) 0.8146(4) 0.1615(3)
H12 H 0.5498 0.8550 0.0993
C12 C 0.42084(8) 0.5923(3) 0.1635(3)
C13 C 0.37859(9) 0.5849(3) 0.2257(3)
H13 H 0.3747 0.6366 0.3017
C14 C 0.34092(9) 0.5071(3) 0.1854(3)
H14 H 0.3119 0.5080 0.2334
N4 N 0.34351(7) 0.4300(2) 0.0812(2)
C15 C 0.38373(9) 0.4339(4) 0.0167(3)
H15 H 0.3864 0.3808 -0.0588
C16 C 0.42227(10) 0.5113(4) 0.0533(3)
H16 H 0.4506 0.5101 0.0027
C17 C 0.71280(9) 1.1228(3) 0.7680(2)
C18 C 0.67193(9) 1.1069(3) 0.8601(2)
H17 H 0.6533 1.0262 0.8344
H18 H 0.6505 1.1862 0.8503
C19 C 0.68422(8) 1.0928(3) 1.0021(2)
H19 H 0.6539 1.0885 1.0534
C20 C 0.71298(8) 0.9622(2) 1.0212(2)
C21 C 0.79073(9) 1.1873(3) 0.2830(2)
C22 C 0.82088(8) 1.1868(3) 0.4047(2)
H20 H 0.8484 1.2507 0.3940
C23 C 0.84017(9) 1.0466(3) 0.4305(3)
H21 H 0.8636 1.0520 0.5015
H22 H 0.8576 1.0151 0.3535
C24 C 0.80231(9) 0.9422(3) 0.4647(2)
Ni1C Ni 0.776596(10) 0.65539(3) 0.52130(3)
Ni2C Ni 0.718192(10) 0.66436(3) 1.00942(3)
Ni2_2 Ni 0.781808(10) 1.16436(3) -0.00942(3)
Ni2B Ni 0.281808(10) 0.33564(3) 0.00942(3)
O4C O 0.81049(5) 1.35589(18) 0.97352(16)
O5_2 O 0.81191(6) 1.1729(2) 1.17924(16)
O8C O 0.68242(6) 1.32774(19) 0.50260(18)
N4B N 0.84351(7) 1.0700(2) 0.9188(2)
loop_
_geom_bond_atom_site_label_1
_geom_bond_atom_site_label_2
_geom_bond_site_symmetry_1
_geom_bond_site_symmetry_2
Ni1 O2 1_555 1_555
O1 Ni2 1_555 1_555
Ni2 N1 1_555 1_555
O2 C17 1_555 1_555
N1 H1 1_555 1_555
H2 N1 1_555 1_555
O3 Ni2 1_555 1_555
O4 C20 1_555 1_555
O5 C21 1_555 1_555
O6 Ni1 1_555 1_555
O7 Ni1 1_555 1_555
O8 C24 1_555 1_555
N2 Ni1 1_555 1_555
H3 N2 1_555 1_555
H4 N2 1_555 1_555
N3 Ni1 1_555 1_555
C1 N3 1_555 1_555
H5 C1 1_555 1_555
C2 C1 1_555 1_555
H6 C2 1_555 1_555
C3 C2 1_555 1_555
C4 C3 1_555 1_555
H7 C4 1_555 1_555
C5 N3 1_555 1_555
H8 C5 1_555 1_555
C6 C3 1_555 1_555
C7 C6 1_555 1_555
H9 C7 1_555 1_555
C8 C7 1_555 1_555
H10 C8 1_555 1_555
C9 C8 1_555 1_555
C10 C9 1_555 1_555
H11 C10 1_555 1_555
C11 C6 1_555 1_555
H12 C11 1_555 1_555
C12 C9 1_555 1_555
C13 C12 1_555 1_555
H13 C13 1_555 1_555
C14 C13 1_555 1_555
H14 C14 1_555 1_555
N4 C14 1_555 1_555
C15 N4 1_555 1_555
H15 C15 1_555 1_555
C16 C12 1_555 1_555
H16 C16 1_555 1_555
C17 O1 1_555 1_555
C18 C17 1_555 1_555
H17 C18 1_555 1_555
H18 C18 1_555 1_555
C19 N1 1_555 1_555
H19 C19 1_555 1_555
C20 O3 1_555 1_555
C21 O6 1_555 1_555
C22 N2 1_555 1_555
H20 C22 1_555 1_555
C23 C22 1_555 1_555
H21 C23 1_555 1_555
H22 C23 1_555 1_555
C24 O7 1_555 1_555
Ni1C O8 1_555 1_555
Ni2C O4 1_555 1_555
Ni2_2 O5 1_555 1_555
Ni2B N4 1_555 1_555
O4C Ni2 1_555 1_555
O5_2 Ni2 1_555 1_555
O8C Ni1 1_555 1_555
N4B Ni2 1_555 1_555
C4 C5 1_555 1_555
C10 C11 1_555 1_555
C15 C16 1_555 1_555
C18 C19 1_555 1_555
C19 C20 1_555 1_555
C21 C22 1_555 1_555
C23 C24 1_555 1_555

#END
