
#######################################################################
#
#                 Cambridge Crystallographic Data Centre
#                                CCDC 
#
#######################################################################
#
# If this CIF has been generated from an entry in the Cambridge 
# Structural Database, then it will include bibliographic, chemical, 
# crystal, experimental, refinement or atomic coordinate data resulting 
# from the CCDC's data processing and validation procedures.
#
#######################################################################

data_HOBGIP
_chemical_formula_moiety         '(C18 H18 N6 Ni2 O8)n'
_symmetry_cell_setting           monoclinic
_symmetry_space_group_name_H-M   'P 21'
_symmetry_Int_Tables_number      4
_space_group_name_Hall           'P 2yb'
loop_
_symmetry_equiv_pos_site_id
_symmetry_equiv_pos_as_xyz
1 x,y,z
2 -x,1/2+y,-z
_cell_length_a                   6.487(4)
_cell_length_b                   24.779(15)
_cell_length_c                   7.805(5)
_cell_angle_alpha                90
_cell_angle_beta                 91.029(6)
_cell_angle_gamma                90
_cell_volume                     1254.38
loop_
_atom_site_label
_atom_site_type_symbol
_atom_site_fract_x
_atom_site_fract_y
_atom_site_fract_z
Ni1 Ni 0.6604(5) 0.45169(14) 0.6852(4)
Ni2 Ni 1.8386(4) 0.02113(13) 0.8086(3)
N1 N 0.827(2) 0.3805(7) 0.716(2)
C1 C 0.749(2) 0.3366(7) 0.788(2)
H1 H 0.6088 0.3375 0.8225
C2 C 0.861(2) 0.2893(7) 0.817(2)
H2 H 0.8016 0.2593 0.8737
C3 C 1.062(3) 0.2877(7) 0.759(3)
C4 C 1.151(2) 0.3341(7) 0.693(3)
H3 H 1.2923 0.3348 0.6631
C5 C 1.027(3) 0.3794(7) 0.671(3)
H4 H 1.0856 0.4109 0.6220
N2 N 1.158(3) 0.2355(7) 0.788(3)
N3 N 1.658(2) 0.0895(7) 0.771(2)
C6 C 1.724(3) 0.1331(8) 0.687(2)
H5 H 1.8569 0.1317 0.6382
C7 C 1.611(3) 0.1802(8) 0.667(2)
H6 H 1.6644 0.2100 0.6059
C8 C 1.418(3) 0.1827(8) 0.740(3)
C9 C 1.343(3) 0.1382(8) 0.827(3)
H7 H 1.2108 0.1386 0.8765
C10 C 1.469(3) 0.0934(8) 0.839(3)
H8 H 1.4191 0.0630 0.8994
N4 N 1.317(3) 0.2349(8) 0.712(3)
O1 O 0.876(2) 0.4894(5) 0.8513(16)
C11 C 0.909(3) 0.5385(5) 0.875(2)
O2 O 1.008(2) 0.5584(7) 1.0012(18)
C12 C 0.843(3) 0.5802(6) 0.7408(17)
H9 H 0.9694 0.5974 0.6966
H10 H 0.7629 0.6086 0.7987
C13 C 0.716(2) 0.5596(7) 0.5881(17)
H11 H 0.6610 0.5911 0.5214
N5 N 0.541(2) 0.5266(7) 0.649(2)
H12 H 0.4354 0.5259 0.5686
H13 H 0.4910 0.5402 0.7499
C14 C 0.851(2) 0.5250(7) 0.4716(19)
O3 O 0.835(2) 0.4750(6) 0.4815(15)
O4 O 0.957(2) 0.5519(7) 0.3722(18)
O5 O 0.362(2) 0.4919(6) 1.0198(15)
C15 C 0.379(3) 0.4419(7) 0.991(2)
O6 O 0.471(2) 0.4243(7) 0.8596(18)
C16 C 0.342(3) 0.3956(8) 1.116(2)
H14 H 0.2769 0.3655 1.0514
H15 H 0.4779 0.3827 1.1588
C17 C 0.212(3) 0.4077(8) 1.267(2)
H16 H 0.1561 0.3740 1.3188
N6 N 0.041(2) 0.4429(7) 1.195(2)
H17 H -0.0732 0.4412 1.2628
H18 H 0.0040 0.4320 1.0858
C18 C 0.352(3) 0.4388(8) 1.396(2)
O7 O 0.333(2) 0.4884(6) 1.3861(16)
O8 O 0.467(2) 0.4128(7) 1.4931(19)
Ni1_2 Ni 0.6604(5) 0.45169(14) 1.6852(4)
Ni2A Ni 1.1614(4) 0.52113(13) 1.1914(3)
Ni2A_2 Ni 1.1614(4) 0.52113(13) 0.1914(3)
Ni2A_3 Ni 0.1614(4) 0.52113(13) 1.1914(3)
O2A O 1.992(2) 0.0584(7) 0.9988(18)
O4A O 2.043(2) 0.0519(7) 0.6278(18)
O5A O 1.638(2) -0.0081(6) 0.9802(15)
N6A N 1.959(2) -0.0571(7) 0.805(2)
H17A H 2.0732 -0.0588 0.7372
H18A H 1.9960 -0.0680 0.9142
O7A O 1.667(2) -0.0116(6) 0.6139(16)
O8_2 O 0.467(2) 0.4128(7) 0.4931(19)
loop_
_geom_bond_atom_site_label_1
_geom_bond_atom_site_label_2
_geom_bond_site_symmetry_1
_geom_bond_site_symmetry_2
Ni1 N1 1_555 1_555
Ni2 N3 1_555 1_555
N1 C1 1_555 1_555
C1 H1 1_555 1_555
C2 C1 1_555 1_555
H2 C2 1_555 1_555
C3 C2 1_555 1_555
C4 C3 1_555 1_555
H3 C4 1_555 1_555
C5 N1 1_555 1_555
H4 C5 1_555 1_555
N2 C3 1_555 1_555
N3 C6 1_555 1_555
C6 H5 1_555 1_555
C7 C6 1_555 1_555
H6 C7 1_555 1_555
C8 C7 1_555 1_555
C9 C8 1_555 1_555
H7 C9 1_555 1_555
C10 N3 1_555 1_555
H8 C10 1_555 1_555
N4 N2 1_555 1_555
O1 Ni1 1_555 1_555
C11 O1 1_555 1_555
O2 C11 1_555 1_555
C12 C11 1_555 1_555
H9 C12 1_555 1_555
H10 C12 1_555 1_555
C13 C12 1_555 1_555
H11 C13 1_555 1_555
N5 Ni1 1_555 1_555
H12 N5 1_555 1_555
H13 N5 1_555 1_555
C14 C13 1_555 1_555
O3 Ni1 1_555 1_555
O4 C14 1_555 1_555
O5 C15 1_555 1_555
C15 O6 1_555 1_555
O6 Ni1 1_555 1_555
C16 C15 1_555 1_555
H14 C16 1_555 1_555
H15 C16 1_555 1_555
C17 C16 1_555 1_555
H16 C17 1_555 1_555
N6 C17 1_555 1_555
H17 N6 1_555 1_555
H18 N6 1_555 1_555
C18 C17 1_555 1_555
O7 C18 1_555 1_555
O8 C18 1_555 1_555
Ni1_2 O8 1_555 1_555
Ni2A O2 1_555 1_555
Ni2A_2 O4 1_555 1_555
Ni2A_3 O5 1_555 1_555
O2A Ni2 1_555 1_555
O4A Ni2 1_555 1_555
O5A Ni2 1_555 1_555
N6A Ni2 1_555 1_555
H17A N6A 1_555 1_555
H18A N6A 1_555 1_555
O7A Ni2 1_555 1_555
O8_2 Ni1 1_555 1_555
C4 C5 1_555 1_555
C8 N4 1_555 1_555
C9 C10 1_555 1_555
C13 N5 1_555 1_555
C14 O3 1_555 1_555
N6 Ni2A_3 1_555 1_555
O7 Ni2A_3 1_555 1_555

#END
