
#######################################################################
#
#                 Cambridge Crystallographic Data Centre
#                                CCDC 
#
#######################################################################
#
# If this CIF has been generated from an entry in the Cambridge 
# Structural Database, then it will include bibliographic, chemical, 
# crystal, experimental, refinement or atomic coordinate data resulting 
# from the CCDC's data processing and validation procedures.
#
#######################################################################

data_LELCUB
_chemical_formula_moiety         '(C120 H144 Cu24 N48)n'
_symmetry_cell_setting           orthorhombic
_symmetry_space_group_name_H-M   'C c c a'
_symmetry_Int_Tables_number      68
_space_group_name_Hall           '-C 2a 2ac'
loop_
_symmetry_equiv_pos_site_id
_symmetry_equiv_pos_as_xyz
1 x,y,z
2 1/2+x,1/2+y,z
3 1/2-x,-y,z
4 -x,y,1/2-z
5 1/2+x,-y,1/2-z
6 -x,1/2-y,z
7 1/2-x,1/2+y,1/2-z
8 x,1/2-y,1/2-z
9 -x,-y,-z
10 1/2-x,1/2-y,-z
11 1/2+x,y,-z
12 x,-y,1/2+z
13 1/2-x,y,1/2+z
14 x,1/2+y,-z
15 1/2+x,1/2-y,1/2+z
16 -x,1/2+y,1/2+z
_cell_length_a                   18.6363(13)
_cell_length_b                   46.435(3)
_cell_length_c                   34.874(3)
_cell_angle_alpha                90
_cell_angle_beta                 90
_cell_angle_gamma                90
_cell_volume                     30179.1
loop_
_atom_site_label
_atom_site_type_symbol
_atom_site_fract_x
_atom_site_fract_y
_atom_site_fract_z
Cu1 Cu 0.30411(3) 0.846860(11) -0.727440(15)
Cu2 Cu 0.17003(3) 0.846960(11) -0.779470(15)
Cu3 Cu 0.23011(3) 0.907430(12) -0.744500(14)
Cu4 Cu 0.53721(3) 0.957090(15) -0.545120(15)
Cu5 Cu 0.40742(3) 0.931260(16) -0.499890(14)
Cu6 Cu 0.51712(3) 0.973940(14) -0.456270(15)
N1 N 0.26894(19) 0.81185(7) -0.74537(9)
N2 N 0.20482(19) 0.81136(7) -0.76416(10)
N3 N 0.14820(19) 0.88205(7) -0.80196(9)
N4 N 0.17395(19) 0.90799(7) -0.78853(9)
N5 N 0.29321(19) 0.90467(7) -0.70335(9)
N6 N 0.3295(2) 0.87905(7) -0.69909(9)
N7 N 0.4126(2) 0.92490(10) -0.55203(10)
N8 N 0.46776(19) 0.93731(8) -0.57239(9)
N9 N 0.0976(2) 0.93572(10) -0.94754(10)
N10 N 0.05364(19) 0.95474(9) -0.92881(10)
N11 N 0.59864(18) 0.98612(9) -0.48230(10)
N12 N 0.6102(2) 0.97492(9) -0.51840(10)
C1 C 0.3559(2) 0.77811(10) -0.71644(13)
H1 H 0.3649 0.7930 -0.6980
H2 H 0.3950 0.7772 -0.7343
H3 H 0.3513 0.7600 -0.7035
C2 C 0.2877(2) 0.78465(9) -0.73758(11)
C3 C 0.2360(2) 0.76595(8) -0.75116(11)
C4 C 0.1847(2) 0.78366(9) -0.76808(12)
C5 C 0.1179(3) 0.77612(10) -0.78952(15)
H4 H 0.1081 0.7907 -0.8083
H5 H 0.0784 0.7749 -0.7719
H6 H 0.1241 0.7579 -0.8021
C6 C 0.0894(3) 0.86198(10) -0.85910(14)
H7 H 0.0572 0.8516 -0.8426
H8 H 0.1264 0.8492 -0.8681
H9 H 0.0633 0.8695 -0.8806
C7 C 0.1226(2) 0.88618(9) -0.83735(11)
C8 C 0.1304(2) 0.91490(9) -0.84782(11)
C9 C 0.1632(2) 0.92784(9) -0.81621(11)
C10 C 0.1844(3) 0.95840(10) -0.81057(14)
H10 H 0.2181 0.9597 -0.7899
H11 H 0.1426 0.9696 -0.8046
H12 H 0.2060 0.9656 -0.8336
C11 C 0.1096(2) 0.92823(9) -0.88474(11)
C12 C 0.2829(3) 0.95182(10) -0.66969(14)
H13 H 0.2703 0.9592 -0.6945
H14 H 0.3188 0.9639 -0.6583
H15 H 0.2411 0.9515 -0.6536
C13 C 0.3117(2) 0.92183(9) -0.67375(11)
C14 C 0.3596(2) 0.90749(9) -0.65032(11)
C15 C 0.3692(2) 0.88076(9) -0.66730(11)
C16 C 0.4157(3) 0.85650(11) -0.65393(15)
H16 H 0.4028 0.8392 -0.6673
H17 H 0.4090 0.8537 -0.6269
H18 H 0.4650 0.8610 -0.6590
C17 C 0.3015(3) 0.89772(17) -0.56419(16)
H19 H 0.3132 0.8854 -0.5430
H20 H 0.2826 0.8863 -0.5848
H21 H 0.2662 0.9116 -0.5563
C18 C 0.3670(3) 0.91292(11) -0.57730(12)
C19 C 0.3924(2) 0.91730(9) -0.61404(11)
C20 C 0.4559(2) 0.93269(9) -0.60948(11)
C21 C 0.5066(3) 0.94330(13) -0.63960(13)
H22 H 0.5518 0.9480 -0.6280
H23 H 0.4868 0.9601 -0.6516
H24 H 0.5136 0.9285 -0.6585
C22 C 0.1837(3) 0.89689(14) -0.93282(14)
H25 H 0.2082 0.8897 -0.9106
H26 H 0.2180 0.9051 -0.9502
H27 H 0.1587 0.8814 -0.9453
C23 C 0.1310(2) 0.91954(11) -0.92093(12)
C24 C 0.0608(2) 0.95026(10) -0.89100(11)
C25 C 0.0197(3) 0.96761(12) -0.86289(13)
H28 H 0.0191 0.9579 -0.8386
H29 H -0.0286 0.9701 -0.8719
H30 H 0.0421 0.9861 -0.8600
C26 C 0.6650(3) 1.01076(12) -0.43124(13)
H31 H 0.6186 1.0177 -0.4237
H32 H 0.6984 1.0265 -0.4316
H33 H 0.6811 0.9965 -0.4133
C27 C 0.6604(2) 0.99770(10) -0.47031(12)
C28 C 0.7128(2) 0.99472(10) -0.49862(11)
C29 C 0.6781(2) 0.98008(11) -0.52817(12)
C30 C 0.7064(3) 0.96915(15) -0.56592(15)
H34 H 0.6894 0.9499 -0.5702
H35 H 0.7579 0.9692 -0.5654
H36 H 0.6899 0.9814 -0.5862
Cu1G Cu 0.30411(3) 0.653140(11) -0.772560(15)
Cu2G Cu 0.17003(3) 0.653040(11) -0.720530(15)
Cu2L Cu 0.32997(3) 0.846960(11) -0.279470(15)
Cu3L Cu 0.26989(3) 0.907430(12) -0.244500(14)
Cu3G Cu 0.23011(3) 0.592570(12) -0.755500(14)
Cu4G Cu 0.53721(3) 0.542910(15) -0.954880(15)
Cu4L Cu -0.03721(3) 0.957090(15) -1.045120(15)
Cu4B Cu 0.96279(3) 1.042910(15) -0.545120(15)
Cu5G Cu 0.40742(3) 0.568740(16) -1.000110(14)
Cu5L Cu 0.09258(3) 0.931260(16) -0.999890(14)
Cu5B Cu 1.09258(3) 1.068740(16) -0.499890(14)
Cu6L Cu -0.01712(3) 0.973940(14) -0.956270(15)
Cu6B Cu 0.98288(3) 1.026060(14) -0.456270(15)
Cu6G Cu 0.51712(3) 0.526060(14) -1.043730(15)
N1G N 0.26894(19) 0.68815(7) -0.75463(9)
N2G N 0.20482(19) 0.68864(7) -0.73584(10)
N3L N 0.35180(19) 0.88205(7) -0.30196(9)
N3G N 0.14820(19) 0.61795(7) -0.69804(9)
N4L N 0.32605(19) 0.90799(7) -0.28853(9)
N5G N 0.29321(19) 0.59533(7) -0.79665(9)
N6G N 0.3295(2) 0.62095(7) -0.80091(9)
N7G N 0.4126(2) 0.57510(10) -0.94797(10)
N7L N 0.0874(2) 0.92490(10) -1.05203(10)
N8G N 0.46776(19) 0.56269(8) -0.92761(9)
N9L N 0.4024(2) 0.93572(10) -0.44754(10)
N9I N 0.4024(2) 0.56428(10) -1.05246(10)
N10L N 0.44636(19) 0.95474(9) -0.42881(10)
N10K N 1.05364(19) 1.04526(9) -0.42881(10)
N11B N 0.90136(18) 1.01388(9) -0.48230(10)
N12B N 0.8898(2) 1.02508(9) -0.51840(10)
N12G N 0.6102(2) 0.52508(9) -0.98160(10)
C1G C 0.3559(2) 0.72189(10) -0.78356(13)
H1G H 0.3649 0.7070 -0.8020
H2G H 0.3950 0.7228 -0.7657
H3G H 0.3513 0.7400 -0.7965
C2G C 0.2877(2) 0.71535(9) -0.76242(11)
C3G C 0.2360(2) 0.73405(8) -0.74884(11)
C4G C 0.1847(2) 0.71634(9) -0.73192(12)
C5G C 0.1179(3) 0.72388(10) -0.71048(15)
H4G H 0.1081 0.7093 -0.6917
H5G H 0.0784 0.7251 -0.7281
H6G H 0.1241 0.7421 -0.6979
C6L C 0.4106(3) 0.86198(10) -0.35910(14)
H7L H 0.4428 0.8516 -0.3426
H8L H 0.3736 0.8492 -0.3681
H9L H 0.4367 0.8695 -0.3806
C7L C 0.3774(2) 0.88618(9) -0.33735(11)
C8L C 0.3696(2) 0.91490(9) -0.34782(11)
C9L C 0.3368(2) 0.92784(9) -0.31621(11)
C10L C 0.3156(3) 0.95840(10) -0.31057(14)
H10L H 0.2819 0.9597 -0.2899
H11L H 0.3574 0.9696 -0.3046
H12L H 0.2940 0.9656 -0.3336
C11L C 0.3904(2) 0.92823(9) -0.38474(11)
C12G C 0.2829(3) 0.54818(10) -0.83031(14)
H13G H 0.2703 0.5408 -0.8055
H14G H 0.3188 0.5361 -0.8417
H15G H 0.2411 0.5485 -0.8464
C13G C 0.3117(2) 0.57817(9) -0.82625(11)
C14G C 0.3596(2) 0.59251(9) -0.84968(11)
C15G C 0.3692(2) 0.61924(9) -0.83270(11)
C16G C 0.4157(3) 0.64350(11) -0.84607(15)
H16G H 0.4028 0.6608 -0.8327
H17G H 0.4090 0.6463 -0.8731
H18G H 0.4650 0.6390 -0.8410
C17G C 0.3015(3) 0.60228(17) -0.93581(16)
H19G H 0.3132 0.6146 -0.9570
H20G H 0.2826 0.6137 -0.9152
H21G H 0.2662 0.5884 -0.9437
C18G C 0.3670(3) 0.58708(11) -0.92270(12)
C19G C 0.3924(2) 0.58270(9) -0.88596(11)
C20G C 0.4559(2) 0.56731(9) -0.89052(11)
C21G C 0.5066(3) 0.55670(13) -0.86040(13)
H22G H 0.5518 0.5520 -0.8720
H23G H 0.4868 0.5399 -0.8484
H24G H 0.5136 0.5715 -0.8415
C22L C 0.3163(3) 0.89689(14) -0.43282(14)
H25L H 0.2918 0.8897 -0.4106
H26L H 0.2820 0.9051 -0.4502
H27L H 0.3413 0.8814 -0.4453
C23L C 0.3690(2) 0.91954(11) -0.42093(12)
C24L C 0.4392(2) 0.95026(10) -0.39100(11)
C25L C 0.4803(3) 0.96761(12) -0.36289(13)
H28L H 0.4809 0.9579 -0.3386
H29L H 0.5286 0.9701 -0.3719
H30L H 0.4579 0.9861 -0.3600
C26B C 0.8350(3) 0.98924(12) -0.43124(13)
H31B H 0.8814 0.9823 -0.4237
H32B H 0.8016 0.9735 -0.4316
H33B H 0.8189 1.0035 -0.4133
C27B C 0.8396(2) 1.00230(10) -0.47031(12)
C28B C 0.7872(2) 1.00528(10) -0.49862(11)
C29B C 0.8219(2) 1.01992(11) -0.52817(12)
C30B C 0.7936(3) 1.03085(15) -0.56592(15)
H34B H 0.8106 1.0501 -0.5702
H35B H 0.7421 1.0308 -0.5654
H36B H 0.8101 1.0186 -0.5862
Cu7 Cu 0.05653(3) 0.085780(12) -0.218970(16)
Cu8 Cu -0.0000 0.148140(17) -0.2500
Cu9 Cu 0.16168(3) 0.179600(16) 0.000080(15)
Cu10 Cu 0.28580(3) 0.206800(14) -0.047680(15)
Cu11 Cu 0.73153(3) 0.274900(14) 0.040720(15)
Cu12 Cu 0.0000 -0.167550(16) -0.2500
Cu13 Cu -0.07276(3) -0.107830(11) -0.227520(15)
N13 N 0.02977(19) 0.05027(7) -0.23862(10)
N14 N 0.0754(2) 0.11957(7) -0.19291(10)
N15 N 0.05799(19) 0.14657(7) -0.20614(9)
N16 N 0.1642(2) 0.17255(10) -0.05182(10)
N17 N 0.21629(19) 0.18577(8) -0.07332(10)
N18 N 0.3593(2) 0.22551(9) -0.02224(10)
N19 N 0.34871(19) 0.23709(9) 0.01354(10)
N20 N -0.2000(2) -0.20580(9) -0.06948(10)
N21 N -0.1585(2) -0.18544(9) -0.05213(10)
N22 N -0.06276(19) -0.16664(7) -0.20901(9)
N23 N -0.09917(19) -0.14130(7) -0.20246(10)
N24 N -0.03434(18) -0.07303(7) -0.24274(10)
C31 C 0.0000 -0.02727(13) -0.2500
C32 C 0.0000 0.00454(12) -0.2500
C33 C 0.0476(2) 0.02289(9) -0.23152(11)
C34 C 0.1106(3) 0.01543(10) -0.20671(14)
H37 H 0.1168 0.0300 -0.1875
H38 H 0.1531 0.0143 -0.2222
H39 H 0.1024 -0.0028 -0.1945
C35 C 0.1313(3) 0.09680(10) -0.13665(15)
H40 H 0.1395 0.0811 -0.1540
H41 H 0.0954 0.0914 -0.1183
H42 H 0.1752 0.1014 -0.1236
C36 C 0.1063(2) 0.12249(9) -0.15870(12)
C37 C 0.1105(2) 0.15139(9) -0.14870(11)
C38 C 0.0800(2) 0.16575(9) -0.17956(11)
C39 C 0.0702(3) 0.19735(10) -0.18523(14)
H43 H 0.0330 0.2006 -0.2038
H44 H 0.1143 0.2056 -0.1942
H45 H 0.0570 0.2061 -0.1613
C40 C 0.0564(3) 0.14290(16) -0.06088(15)
H46 H 0.0711 0.1311 -0.0396
H47 H 0.0372 0.1309 -0.0808
H48 H 0.0204 0.1563 -0.0525
C41 C 0.1195(3) 0.15900(11) -0.07590(12)
C42 C 0.1416(2) 0.16329(9) -0.11332(11)
C43 C 0.2030(2) 0.18044(9) -0.11039(11)
C44 C 0.2501(3) 0.19177(12) -0.14105(13)
H49 H 0.2957 0.1970 -0.1303
H50 H 0.2282 0.2084 -0.1524
H51 H 0.2568 0.1773 -0.1603
C45 C 0.4551(3) 0.21886(15) -0.06989(14)
H52 H 0.4352 0.2001 -0.0747
H53 H 0.5065 0.2175 -0.0687
H54 H 0.4417 0.2317 -0.0902
C46 C 0.4271(2) 0.23009(12) -0.03259(12)
C47 C 0.4624(2) 0.24511(10) -0.00343(11)
C48 C 0.4107(2) 0.24868(10) 0.02512(12)
C49 C 0.4160(3) 0.26273(11) 0.06369(13)
H55 H 0.3698 0.2699 0.0711
H56 H 0.4496 0.2784 0.0625
H57 H 0.4321 0.2489 0.0822
C50 C -0.2308(3) -0.22168(12) -0.13491(14)
H58 H -0.2164 -0.2414 -0.1316
H59 H -0.2814 -0.2200 -0.1303
H60 H -0.2202 -0.2157 -0.1606
C51 C -0.1912(2) -0.20322(10) -0.10744(11)
C52 C -0.1431(2) -0.18124(9) -0.11513(11)
C53 C -0.1240(3) -0.17046(11) -0.07973(12)
C54 C -0.0738(3) -0.14634(14) -0.06983(15)
H61 H -0.0391 -0.1530 -0.0515
H62 H -0.0497 -0.1399 -0.0926
H63 H -0.1006 -0.1306 -0.0590
C55 C -0.0398(3) -0.21302(9) -0.17628(13)
H64 H -0.0325 -0.2206 -0.2016
H65 H 0.0056 -0.2113 -0.1635
H66 H -0.0704 -0.2258 -0.1620
C56 C -0.0741(2) -0.18423(9) -0.17897(11)
C57 C -0.1184(2) -0.17069(9) -0.15274(11)
C58 C -0.1333(2) -0.14372(9) -0.16866(12)
C59 C -0.1777(3) -0.11975(10) -0.15321(15)
H67 H -0.2049 -0.1112 -0.1736
H68 H -0.2099 -0.1271 -0.1341
H69 H -0.1470 -0.1055 -0.1419
C60 C -0.0546(2) -0.04555(9) -0.23819(12)
C61 C -0.1258(2) -0.03881(10) -0.22093(14)
H70 H -0.1269 -0.0190 -0.2132
H71 H -0.1336 -0.0509 -0.1990
H72 H -0.1629 -0.0422 -0.2395
Cu7C Cu -0.05653(3) 0.085780(12) -0.281030(16)
Cu9C Cu -0.16168(3) 0.179600(16) -0.500080(15)
Cu9H Cu -0.16168(3) -0.179600(16) -0.000080(15)
Cu9K Cu 0.16168(3) -0.179600(16) -0.499920(15)
Cu9E Cu 0.83832(3) 0.320400(16) 0.000080(15)
Cu10C Cu -0.28580(3) 0.206800(14) -0.452320(15)
Cu10E Cu 0.71420(3) 0.293200(14) -0.047680(15)
Cu10K Cu 0.28580(3) -0.206800(14) -0.547680(15)
Cu11E Cu 0.26847(3) 0.225100(14) 0.040720(15)
Cu11M Cu -0.26847(3) -0.225100(14) -0.040720(15)
Cu11O Cu 0.26847(3) -0.225100(14) -0.459280(15)
Cu11G Cu -0.26847(3) 0.225100(14) -0.540720(15)
Cu13C Cu 0.07276(3) -0.107830(11) -0.272480(15)
N13C N -0.02977(19) 0.05027(7) -0.26138(10)
N14C N -0.0754(2) 0.11957(7) -0.30709(10)
N15C N -0.05799(19) 0.14657(7) -0.29386(9)
N16C N -0.1642(2) 0.17255(10) -0.44818(10)
N17C N -0.21629(19) 0.18577(8) -0.42668(10)
N17E N 0.78371(19) 0.31423(8) -0.07332(10)
N18E N 0.6407(2) 0.27449(9) -0.02224(10)
N19E N 0.65129(19) 0.26291(9) 0.01354(10)
N19K N 0.34871(19) -0.23709(9) -0.48646(10)
N20C N 0.2000(2) -0.20580(9) -0.43052(10)
N20M N 0.8000(2) 0.29420(9) 0.06948(10)
N21C N 0.1585(2) -0.18544(9) -0.44787(10)
N21H N 0.1585(2) 0.18544(9) 0.05213(10)
N21K N -0.1585(2) 0.18544(9) -0.55213(10)
N22C N 0.06276(19) -0.16664(7) -0.29099(9)
N23C N 0.09917(19) -0.14130(7) -0.29754(10)
N24C N 0.03434(18) -0.07303(7) -0.25726(10)
C33C C -0.0476(2) 0.02289(9) -0.26848(11)
C34C C -0.1106(3) 0.01543(10) -0.29329(14)
H37C H -0.1168 0.0300 -0.3125
H38C H -0.1531 0.0143 -0.2778
H39C H -0.1024 -0.0028 -0.3055
C35C C -0.1313(3) 0.09680(10) -0.36335(15)
H40C H -0.1395 0.0811 -0.3460
H41C H -0.0954 0.0914 -0.3817
H42C H -0.1752 0.1014 -0.3764
C36C C -0.1063(2) 0.12249(9) -0.34130(12)
C37C C -0.1105(2) 0.15139(9) -0.35130(11)
C38C C -0.0800(2) 0.16575(9) -0.32044(11)
C39C C -0.0702(3) 0.19735(10) -0.31477(14)
H43C H -0.0330 0.2006 -0.2962
H44C H -0.1143 0.2056 -0.3058
H45C H -0.0570 0.2061 -0.3387
C40C C -0.0564(3) 0.14290(16) -0.43912(15)
H46C H -0.0711 0.1311 -0.4604
H47C H -0.0372 0.1309 -0.4192
H48C H -0.0204 0.1563 -0.4475
C41C C -0.1195(3) 0.15900(11) -0.42410(12)
C42C C -0.1416(2) 0.16329(9) -0.38668(11)
C43C C -0.2030(2) 0.18044(9) -0.38961(11)
C44C C -0.2501(3) 0.19177(12) -0.35895(13)
H49C H -0.2957 0.1970 -0.3697
H50C H -0.2282 0.2084 -0.3476
H51C H -0.2568 0.1773 -0.3397
C45E C 0.5449(3) 0.28114(15) -0.06989(14)
H52E H 0.5648 0.2999 -0.0747
H53E H 0.4935 0.2825 -0.0687
H54E H 0.5583 0.2683 -0.0902
C46E C 0.5729(2) 0.26991(12) -0.03259(12)
C47E C 0.5376(2) 0.25489(10) -0.00343(11)
C48E C 0.5893(2) 0.25132(10) 0.02512(12)
C49E C 0.5840(3) 0.23727(11) 0.06369(13)
H55E H 0.6302 0.2301 0.0711
H56E H 0.5504 0.2216 0.0625
H57E H 0.5679 0.2511 0.0822
C50C C 0.2308(3) -0.22168(12) -0.36509(14)
H58C H 0.2164 -0.2414 -0.3684
H59C H 0.2814 -0.2200 -0.3697
H60C H 0.2202 -0.2157 -0.3394
C51C C 0.1912(2) -0.20322(10) -0.39256(11)
C52C C 0.1431(2) -0.18124(9) -0.38487(11)
C53C C 0.1240(3) -0.17046(11) -0.42027(12)
C54C C 0.0738(3) -0.14634(14) -0.43017(15)
H61C H 0.0391 -0.1530 -0.4485
H62C H 0.0497 -0.1399 -0.4074
H63C H 0.1006 -0.1306 -0.4410
C55C C 0.0398(3) -0.21302(9) -0.32372(13)
H64C H 0.0325 -0.2206 -0.2984
H65C H -0.0056 -0.2113 -0.3365
H66C H 0.0704 -0.2258 -0.3380
C56C C 0.0741(2) -0.18423(9) -0.32103(11)
C57C C 0.1184(2) -0.17069(9) -0.34726(11)
C58C C 0.1333(2) -0.14372(9) -0.33134(12)
C59C C 0.1777(3) -0.11975(10) -0.34679(15)
H67C H 0.2049 -0.1112 -0.3264
H68C H 0.2099 -0.1271 -0.3659
H69C H 0.1470 -0.1055 -0.3581
C60C C 0.0546(2) -0.04555(9) -0.26181(12)
C61C C 0.1258(2) -0.03881(10) -0.27907(14)
H70C H 0.1269 -0.0190 -0.2868
H71C H 0.1336 -0.0509 -0.3010
H72C H 0.1629 -0.0422 -0.2605
loop_
_geom_bond_atom_site_label_1
_geom_bond_atom_site_label_2
_geom_bond_site_symmetry_1
_geom_bond_site_symmetry_2
Cu1 Cu2 1_555 1_555
Cu2 Cu3 1_555 1_555
Cu3 Cu1 1_555 1_555
Cu4 Cu5 1_555 1_555
Cu5 Cu6 1_555 1_555
Cu6 Cu4 1_555 1_555
Cu7 Cu8 1_555 1_555
Cu8 N15 1_555 1_555
Cu9 Cu10 1_555 1_555
Cu10 N17 1_555 1_555
Cu11 Cu9E 1_555 1_555
Cu12 Cu13 1_555 1_555
Cu13 N23 1_555 1_555
N1 Cu1 1_555 1_555
N2 Cu2 1_555 1_555
N3 Cu2 1_555 1_555
N4 Cu3 1_555 1_555
N5 Cu3 1_555 1_555
N6 Cu1 1_555 1_555
N7 Cu5 1_555 1_555
N8 Cu4 1_555 1_555
N9 N10 1_555 1_555
N10 C24 1_555 1_555
N11 Cu6 1_555 1_555
N12 Cu4 1_555 1_555
N13 Cu7 1_555 1_555
N14 Cu7 1_555 1_555
N15 N14 1_555 1_555
N16 Cu9 1_555 1_555
N17 N16 1_555 1_555
N18 Cu10 1_555 1_555
N19 N18 1_555 1_555
N20 N21 1_555 1_555
N21 C53 1_555 1_555
N22 Cu12 1_555 1_555
N23 N22 1_555 1_555
N24 Cu13 1_555 1_555
C1 H1 1_555 1_555
H2 C1 1_555 1_555
H3 C1 1_555 1_555
C2 N1 1_555 1_555
C3 C2 1_555 1_555
C4 N2 1_555 1_555
C5 C4 1_555 1_555
H4 C5 1_555 1_555
H5 C5 1_555 1_555
H6 C5 1_555 1_555
C6 H7 1_555 1_555
H8 C6 1_555 1_555
H9 C6 1_555 1_555
C7 N3 1_555 1_555
C8 C7 1_555 1_555
C9 N4 1_555 1_555
C10 C9 1_555 1_555
H10 C10 1_555 1_555
H11 C10 1_555 1_555
H12 C10 1_555 1_555
C11 C8 1_555 1_555
C12 H13 1_555 1_555
H14 C12 1_555 1_555
H15 C12 1_555 1_555
C13 N5 1_555 1_555
C14 C13 1_555 1_555
C15 N6 1_555 1_555
C16 C15 1_555 1_555
H16 C16 1_555 1_555
H17 C16 1_555 1_555
H18 C16 1_555 1_555
C17 H19 1_555 1_555
H20 C17 1_555 1_555
H21 C17 1_555 1_555
C18 N7 1_555 1_555
C19 C14 1_555 1_555
C20 N8 1_555 1_555
C21 C20 1_555 1_555
H22 C21 1_555 1_555
H23 C21 1_555 1_555
H24 C21 1_555 1_555
C22 H25 1_555 1_555
H26 C22 1_555 1_555
H27 C22 1_555 1_555
C23 N9 1_555 1_555
C24 C11 1_555 1_555
C25 C24 1_555 1_555
H28 C25 1_555 1_555
H29 C25 1_555 1_555
H30 C25 1_555 1_555
C26 H31 1_555 1_555
H32 C26 1_555 1_555
H33 C26 1_555 1_555
C27 N11 1_555 1_555
C28 C27 1_555 1_555
C29 N12 1_555 1_555
C30 C29 1_555 1_555
H34 C30 1_555 1_555
H35 C30 1_555 1_555
H36 C30 1_555 1_555
C31 C32 1_555 1_555
C32 C33 1_555 1_555
C33 N13 1_555 1_555
C34 C33 1_555 1_555
H37 C34 1_555 1_555
H38 C34 1_555 1_555
H39 C34 1_555 1_555
C35 H40 1_555 1_555
H41 C35 1_555 1_555
H42 C35 1_555 1_555
C36 N14 1_555 1_555
C37 C36 1_555 1_555
C38 N15 1_555 1_555
C39 C38 1_555 1_555
H43 C39 1_555 1_555
H44 C39 1_555 1_555
H45 C39 1_555 1_555
C40 H46 1_555 1_555
H47 C40 1_555 1_555
H48 C40 1_555 1_555
C41 N16 1_555 1_555
C42 C37 1_555 1_555
C43 N17 1_555 1_555
C44 C43 1_555 1_555
H49 C44 1_555 1_555
H50 C44 1_555 1_555
H51 C44 1_555 1_555
C45 H52 1_555 1_555
H53 C45 1_555 1_555
H54 C45 1_555 1_555
C46 N18 1_555 1_555
C47 C46 1_555 1_555
C48 N19 1_555 1_555
C49 C48 1_555 1_555
H55 C49 1_555 1_555
H56 C49 1_555 1_555
H57 C49 1_555 1_555
C50 H58 1_555 1_555
H59 C50 1_555 1_555
H60 C50 1_555 1_555
C51 N20 1_555 1_555
C52 C51 1_555 1_555
C53 C52 1_555 1_555
C54 C53 1_555 1_555
H61 C54 1_555 1_555
H62 C54 1_555 1_555
H63 C54 1_555 1_555
C55 H64 1_555 1_555
H65 C55 1_555 1_555
H66 C55 1_555 1_555
C56 N22 1_555 1_555
C57 C52 1_555 1_555
C58 N23 1_555 1_555
C59 C58 1_555 1_555
H67 C59 1_555 1_555
H68 C59 1_555 1_555
H69 C59 1_555 1_555
C60 N24 1_555 1_555
C61 C60 1_555 1_555
H70 C61 1_555 1_555
H71 C61 1_555 1_555
H72 C61 1_555 1_555
Cu1G Cu2G 1_555 1_555
Cu2G Cu3G 1_555 1_555
Cu2L Cu3L 1_555 1_555
Cu3L N4L 1_555 1_555
Cu3G Cu1G 1_555 1_555
Cu4G Cu5G 1_555 1_555
Cu4L Cu5L 1_555 1_555
Cu4B Cu5B 1_555 1_555
Cu5G Cu6G 1_555 1_555
Cu5L N9 1_555 1_555
Cu5B Cu6B 1_555 1_555
Cu6L N10 1_555 1_555
Cu6B Cu4B 1_555 1_555
Cu6G Cu4G 1_555 1_555
Cu7C Cu7 1_555 1_555
Cu9C Cu10C 1_555 1_555
Cu9H N21 1_555 1_555
Cu9K Cu10K 1_555 1_555
Cu9E Cu10E 1_555 1_555
Cu10C Cu11G 1_555 1_555
Cu10E Cu11 1_555 1_555
Cu10K Cu11O 1_555 1_555
Cu11E Cu9 1_555 1_555
Cu11M N20 1_555 1_555
Cu11O Cu9K 1_555 1_555
Cu11G Cu9C 1_555 1_555
Cu13C Cu12 1_555 1_555
N1G Cu1G 1_555 1_555
N2G Cu2G 1_555 1_555
N3L Cu2L 1_555 1_555
N3G Cu2G 1_555 1_555
N4L N3L 1_555 1_555
N5G Cu3G 1_555 1_555
N6G Cu1G 1_555 1_555
N7G Cu5G 1_555 1_555
N7L Cu5L 1_555 1_555
N8G Cu4G 1_555 1_555
N9L Cu5 1_555 1_555
N9I Cu5G 1_555 1_555
N10L Cu6 1_555 1_555
N10K Cu6B 1_555 1_555
N11B Cu6B 1_555 1_555
N12B Cu4B 1_555 1_555
N12G Cu4G 1_555 1_555
N13C N13 1_555 1_555
N14C Cu7C 1_555 1_555
N15C Cu8 1_555 1_555
N16C Cu9C 1_555 1_555
N17C Cu10C 1_555 1_555
N17E Cu10E 1_555 1_555
N18E Cu10E 1_555 1_555
N19E Cu11 1_555 1_555
N19K Cu11O 1_555 1_555
N20C Cu11O 1_555 1_555
N20M Cu11 1_555 1_555
N21C Cu9K 1_555 1_555
N21H Cu9 1_555 1_555
N21K Cu9C 1_555 1_555
N22C Cu12 1_555 1_555
N23C Cu13C 1_555 1_555
N24C N24 1_555 1_555
C1G H1G 1_555 1_555
H2G C1G 1_555 1_555
H3G C1G 1_555 1_555
C2G N1G 1_555 1_555
C3G C3 1_555 1_555
C4G N2G 1_555 1_555
C5G C4G 1_555 1_555
H4G C5G 1_555 1_555
H5G C5G 1_555 1_555
H6G C5G 1_555 1_555
C6L H7L 1_555 1_555
H8L C6L 1_555 1_555
H9L C6L 1_555 1_555
C7L N3L 1_555 1_555
C8L C7L 1_555 1_555
C9L N4L 1_555 1_555
C10L C9L 1_555 1_555
H10L C10L 1_555 1_555
H11L C10L 1_555 1_555
H12L C10L 1_555 1_555
C11L C8L 1_555 1_555
C12G H13G 1_555 1_555
H14G C12G 1_555 1_555
H15G C12G 1_555 1_555
C13G N5G 1_555 1_555
C14G C13G 1_555 1_555
C15G N6G 1_555 1_555
C16G C15G 1_555 1_555
H16G C16G 1_555 1_555
H17G C16G 1_555 1_555
H18G C16G 1_555 1_555
C17G H19G 1_555 1_555
H20G C17G 1_555 1_555
H21G C17G 1_555 1_555
C18G N7G 1_555 1_555
C19G C14G 1_555 1_555
C20G N8G 1_555 1_555
C21G C20G 1_555 1_555
H22G C21G 1_555 1_555
H23G C21G 1_555 1_555
H24G C21G 1_555 1_555
C22L H25L 1_555 1_555
H26L C22L 1_555 1_555
H27L C22L 1_555 1_555
C23L N9L 1_555 1_555
C24L N10L 1_555 1_555
C25L C24L 1_555 1_555
H28L C25L 1_555 1_555
H29L C25L 1_555 1_555
H30L C25L 1_555 1_555
C26B H31B 1_555 1_555
H32B C26B 1_555 1_555
H33B C26B 1_555 1_555
C27B N11B 1_555 1_555
C28B C28 1_555 1_555
C29B N12B 1_555 1_555
C30B C29B 1_555 1_555
H34B C30B 1_555 1_555
H35B C30B 1_555 1_555
H36B C30B 1_555 1_555
C33C C32 1_555 1_555
C34C C33C 1_555 1_555
H37C C34C 1_555 1_555
H38C C34C 1_555 1_555
H39C C34C 1_555 1_555
C35C H40C 1_555 1_555
H41C C35C 1_555 1_555
H42C C35C 1_555 1_555
C36C N14C 1_555 1_555
C37C C36C 1_555 1_555
C38C N15C 1_555 1_555
C39C C38C 1_555 1_555
H43C C39C 1_555 1_555
H44C C39C 1_555 1_555
H45C C39C 1_555 1_555
C40C H46C 1_555 1_555
H47C C40C 1_555 1_555
H48C C40C 1_555 1_555
C41C N16C 1_555 1_555
C42C C37C 1_555 1_555
C43C N17C 1_555 1_555
C44C C43C 1_555 1_555
H49C C44C 1_555 1_555
H50C C44C 1_555 1_555
H51C C44C 1_555 1_555
C45E H52E 1_555 1_555
H53E C45E 1_555 1_555
H54E C45E 1_555 1_555
C46E N18E 1_555 1_555
C47E C47 1_555 1_555
C48E N19E 1_555 1_555
C49E C48E 1_555 1_555
H55E C49E 1_555 1_555
H56E C49E 1_555 1_555
H57E C49E 1_555 1_555
C50C H58C 1_555 1_555
H59C C50C 1_555 1_555
H60C C50C 1_555 1_555
C51C N20C 1_555 1_555
C52C C51C 1_555 1_555
C53C N21C 1_555 1_555
C54C C53C 1_555 1_555
H61C C54C 1_555 1_555
H62C C54C 1_555 1_555
H63C C54C 1_555 1_555
C55C H64C 1_555 1_555
H65C C55C 1_555 1_555
H66C C55C 1_555 1_555
C56C N22C 1_555 1_555
C57C C52C 1_555 1_555
C58C N23C 1_555 1_555
C59C C58C 1_555 1_555
H67C C59C 1_555 1_555
H68C C59C 1_555 1_555
H69C C59C 1_555 1_555
C60C C31 1_555 1_555
C61C C60C 1_555 1_555
H70C C61C 1_555 1_555
H71C C61C 1_555 1_555
H72C C61C 1_555 1_555
Cu8 Cu7C 1_555 1_555
Cu10 Cu11E 1_555 1_555
Cu13 Cu13C 1_555 1_555
N1 N2 1_555 1_555
N3 N4 1_555 1_555
N5 N6 1_555 1_555
N7 N8 1_555 1_555
N11 N12 1_555 1_555
N19 Cu11E 1_555 1_555
C1 C2 1_555 1_555
C3 C4 1_555 1_555
C6 C7 1_555 1_555
C8 C9 1_555 1_555
C11 C23 1_555 1_555
C12 C13 1_555 1_555
C14 C15 1_555 1_555
C17 C18 1_555 1_555
C18 C19 1_555 1_555
C19 C20 1_555 1_555
C22 C23 1_555 1_555
C26 C27 1_555 1_555
C28 C29 1_555 1_555
C31 C60 1_555 1_555
C35 C36 1_555 1_555
C37 C38 1_555 1_555
C40 C41 1_555 1_555
C41 C42 1_555 1_555
C42 C43 1_555 1_555
C45 C46 1_555 1_555
C47 C48 1_555 1_555
C50 C51 1_555 1_555
C55 C56 1_555 1_555
C56 C57 1_555 1_555
C57 C58 1_555 1_555
Cu4L Cu6L 1_555 1_555
Cu5L Cu6L 1_555 1_555
Cu7C N13C 1_555 1_555
Cu9H Cu11M 1_555 1_555
Cu13C N24C 1_555 1_555
N1G N2G 1_555 1_555
N5G N6G 1_555 1_555
N7G N8G 1_555 1_555
N9L N10L 1_555 1_555
N11B N12B 1_555 1_555
N13C C33C 1_555 1_555
N14C N15C 1_555 1_555
N16C N17C 1_555 1_555
N18E N19E 1_555 1_555
N20C N21C 1_555 1_555
N22C N23C 1_555 1_555
N24C C60C 1_555 1_555
C1G C2G 1_555 1_555
C2G C3G 1_555 1_555
C3G C4G 1_555 1_555
C6L C7L 1_555 1_555
C8L C9L 1_555 1_555
C11L C23L 1_555 1_555
C11L C24L 1_555 1_555
C12G C13G 1_555 1_555
C14G C15G 1_555 1_555
C17G C18G 1_555 1_555
C18G C19G 1_555 1_555
C19G C20G 1_555 1_555
C22L C23L 1_555 1_555
C26B C27B 1_555 1_555
C27B C28B 1_555 1_555
C28B C29B 1_555 1_555
C35C C36C 1_555 1_555
C37C C38C 1_555 1_555
C40C C41C 1_555 1_555
C41C C42C 1_555 1_555
C42C C43C 1_555 1_555
C45E C46E 1_555 1_555
C46E C47E 1_555 1_555
C47E C48E 1_555 1_555
C50C C51C 1_555 1_555
C52C C53C 1_555 1_555
C55C C56C 1_555 1_555
C56C C57C 1_555 1_555
C57C C58C 1_555 1_555

#END
