
#######################################################################
#
#                 Cambridge Crystallographic Data Centre
#                                CCDC 
#
#######################################################################
#
# If this CIF has been generated from an entry in the Cambridge 
# Structural Database, then it will include bibliographic, chemical, 
# crystal, experimental, refinement or atomic coordinate data resulting 
# from the CCDC's data processing and validation procedures.
#
#######################################################################

data_ISIMUT
_chemical_formula_moiety         '(C40 H34 N4 O11 Zn2)n'
_symmetry_cell_setting           triclinic
_symmetry_space_group_name_H-M   'P -1'
_symmetry_Int_Tables_number      2
_space_group_name_Hall           '-P 1'
loop_
_symmetry_equiv_pos_site_id
_symmetry_equiv_pos_as_xyz
1 x,y,z
2 -x,-y,-z
_cell_length_a                   9.3265(4)
_cell_length_b                   9.6587(4)
_cell_length_c                   11.7631(6)
_cell_angle_alpha                75.363(4)
_cell_angle_beta                 78.555(4)
_cell_angle_gamma                87.178(4)
_cell_volume                     1004.87
loop_
_atom_site_label
_atom_site_type_symbol
_atom_site_fract_x
_atom_site_fract_y
_atom_site_fract_z
Zn1 Zn 0.55461(4) 0.11495(4) 0.11163(4)
O1 O 0.9257(3) 0.6026(2) 0.3776(2)
O2 O 0.6430(2) 0.2967(2) 0.09273(19)
N1 N 0.2877(3) 0.0298(3) 0.4502(3)
O3 O 0.7428(3) 0.1923(2) 0.2484(2)
C1 C 0.6874(3) 0.5687(3) 0.1229(3)
H1 H 0.6331 0.5630 0.0660
N2 N 0.4278(3) 0.0406(3) 0.2728(3)
C2 C 0.7964(3) 0.7089(3) 0.2259(3)
H2 H 0.8161 0.7973 0.2374
C3 C 0.7137(3) 0.7016(3) 0.1417(3)
C4 C 0.8243(3) 0.4537(3) 0.2737(3)
H3 H 0.8619 0.3708 0.3174
C5 C 0.9678(4) 0.4754(3) 0.4552(3)
H4 H 1.0395 0.4226 0.4109
H5 H 0.8837 0.4144 0.4944
C6 C 0.7421(3) 0.4460(3) 0.1890(3)
C7 C 0.8500(4) 0.5852(3) 0.2929(3)
C8 C 0.3438(4) -0.1042(4) 0.4515(4)
H6 H 0.3265 -0.1850 0.5151
C9 C 0.7090(4) 0.2990(3) 0.1777(3)
C10 C 0.3409(4) 0.1150(4) 0.3407(3)
C11 C 0.4287(4) -0.0969(4) 0.3433(4)
H7 H 0.4801 -0.1732 0.3197
C12 C 0.3188(4) 0.2715(4) 0.3072(4)
C13 C 0.1739(4) 0.0667(4) 0.5447(3)
C14 C 0.3711(4) 0.3563(4) 0.3712(5)
H8 H 0.4144 0.3127 0.4360
C15 C 0.2427(7) 0.4858(6) 0.1779(5)
H9 H 0.1991 0.5307 0.1136
C16 C 0.2549(6) 0.3337(5) 0.2120(4)
H10 H 0.2198 0.2776 0.1698
C17 C 0.3592(6) 0.5031(5) 0.3397(6)
H11 H 0.3921 0.5594 0.3828
C18 C 0.2967(7) 0.5634(6) 0.2419(6)
H12 H 0.2910 0.6627 0.2183
C19 C 0.0290(9) -0.0197(10) 0.5620(6)
C20 C 0.6457(3) 0.8339(3) 0.0774(3)
O4 O 0.6779(2) 0.9506(2) 0.0949(2)
O5 O 0.5621(3) 0.8192(2) 0.0128(2)
Zn1A Zn -0.55461(4) -0.11495(4) 0.88837(4)
Zn1_2 Zn 0.55461(4) 1.11495(4) 0.11163(4)
Zn1_3 Zn 1.55461(4) 0.11495(4) 1.11163(4)
Zn1A_2 Zn 0.44539(4) 0.88505(4) -0.11163(4)
Zn1A_3 Zn 1.44539(4) -0.11495(4) 0.88837(4)
Zn1A_4 Zn 1.44539(4) 0.88505(4) 0.88837(4)
O1A O 1.0743(3) 0.3974(2) 0.6224(2)
O2A O 1.3570(2) 0.7033(2) 0.90727(19)
O2A_2 O -0.6430(2) -0.2967(2) 0.90727(19)
N1A N -0.2877(3) -0.0298(3) 0.5498(3)
O3A O 1.2572(3) 0.8077(2) 0.7516(2)
C1A C 1.3126(3) 0.4313(3) 0.8771(3)
H1A H 1.3669 0.4370 0.9340
N2A N -0.4278(3) -0.0406(3) 0.7272(3)
C2A C 1.2036(3) 0.2911(3) 0.7741(3)
H2A H 1.1839 0.2027 0.7626
C3A C 1.2863(3) 0.2984(3) 0.8583(3)
C4A C 1.1757(3) 0.5463(3) 0.7263(3)
H3A H 1.1381 0.6292 0.6826
C5A C 1.0322(4) 0.5246(3) 0.5448(3)
H4A H 0.9605 0.5774 0.5891
H5A H 1.1163 0.5856 0.5056
C6A C 1.2579(3) 0.5540(3) 0.8110(3)
C7A C 1.1500(4) 0.4148(3) 0.7071(3)
C8A C -0.3438(4) 0.1042(4) 0.5485(4)
H6A H -0.3265 0.1850 0.4849
C9A C 1.2910(4) 0.7010(3) 0.8223(3)
C10A C -0.3409(4) -0.1150(4) 0.6593(3)
C11A C -0.4287(4) 0.0969(4) 0.6567(4)
H7A H -0.4801 0.1732 0.6803
C12A C -0.3188(4) -0.2715(4) 0.6928(4)
C13A C -0.1739(4) -0.0667(4) 0.4553(3)
C14A C -0.3711(4) -0.3563(4) 0.6288(5)
H8A H -0.4144 -0.3127 0.5640
C15A C -0.2427(7) -0.4858(6) 0.8221(5)
H9A H -0.1991 -0.5307 0.8864
C16A C -0.2549(6) -0.3337(5) 0.7880(4)
H10A H -0.2198 -0.2776 0.8302
C17A C -0.3592(6) -0.5031(5) 0.6603(6)
H11A H -0.3921 -0.5594 0.6172
C18A C -0.2967(7) -0.5634(6) 0.7581(6)
H12A H -0.2910 -0.6627 0.7817
C19A C -0.0290(9) 0.0197(10) 0.4380(6)
C20A C 1.3543(3) 0.1661(3) 0.9226(3)
O4A O 1.3221(2) 0.0494(2) 0.9051(2)
O4_2 O 0.6779(2) -0.0494(2) 0.0949(2)
O4A_2 O -0.6779(2) 0.0494(2) 0.9051(2)
O5A O 1.4379(3) 0.1808(2) 0.9872(2)
O5_2 O -0.4379(3) -0.1808(2) 1.0128(2)
O5A_2 O 0.4379(3) 0.1808(2) -0.0128(2)
O6 O 1.0292(16) 0.0590(17) 0.1361(14)
loop_
_geom_bond_atom_site_label_1
_geom_bond_atom_site_label_2
_geom_bond_site_symmetry_1
_geom_bond_site_symmetry_2
Zn1 O2 1_555 1_555
O1 C5 1_555 1_555
O2 C9 1_555 1_555
N1 C8 1_555 1_555
O3 C9 1_555 1_555
C1 H1 1_555 1_555
N2 Zn1 1_555 1_555
C2 H2 1_555 1_555
C3 C1 1_555 1_555
C4 H3 1_555 1_555
C5 H4 1_555 1_555
H5 C5 1_555 1_555
C6 C1 1_555 1_555
C7 O1 1_555 1_555
C8 H6 1_555 1_555
C9 C6 1_555 1_555
C10 N1 1_555 1_555
C11 N2 1_555 1_555
H7 C11 1_555 1_555
C12 C10 1_555 1_555
C13 N1 1_555 1_555
C14 C12 1_555 1_555
H8 C14 1_555 1_555
C15 H9 1_555 1_555
C16 C12 1_555 1_555
H10 C16 1_555 1_555
C17 C14 1_555 1_555
H11 C17 1_555 1_555
C18 C15 1_555 1_555
H12 C18 1_555 1_555
C19 C13 1_555 1_555
C20 C3 1_555 1_555
O4 C20 1_555 1_555
O5 C20 1_555 1_555
Zn1A O2A_2 1_555 1_555
Zn1_2 O4 1_555 1_555
Zn1_3 O5A 1_555 1_555
Zn1A_2 O5 1_555 1_555
Zn1A_3 O4A 1_555 1_555
Zn1A_4 O2A 1_555 1_555
O1A C5A 1_555 1_555
O2A C9A 1_555 1_555
N1A C8A 1_555 1_555
O3A C9A 1_555 1_555
C1A H1A 1_555 1_555
N2A Zn1A 1_555 1_555
C2A H2A 1_555 1_555
C3A C1A 1_555 1_555
C4A H3A 1_555 1_555
C5A C5 1_555 1_555
H4A C5A 1_555 1_555
H5A C5A 1_555 1_555
C6A C1A 1_555 1_555
C7A O1A 1_555 1_555
C8A H6A 1_555 1_555
C9A C6A 1_555 1_555
C10A N1A 1_555 1_555
C11A N2A 1_555 1_555
H7A C11A 1_555 1_555
C12A C10A 1_555 1_555
C13A N1A 1_555 1_555
C14A C12A 1_555 1_555
H8A C14A 1_555 1_555
C15A H9A 1_555 1_555
C16A C12A 1_555 1_555
H10A C16A 1_555 1_555
C17A C14A 1_555 1_555
H11A C17A 1_555 1_555
C18A C15A 1_555 1_555
H12A C18A 1_555 1_555
C19A C19 1_555 1_555
C20A C3A 1_555 1_555
O4A C20A 1_555 1_555
O4_2 Zn1 1_555 1_555
O4A_2 Zn1A 1_555 1_555
O5A C20A 1_555 1_555
O5_2 Zn1A 1_555 1_555
O5A_2 Zn1 1_555 1_555
N2 C10 1_555 1_555
C2 C3 1_555 1_555
C2 C7 1_555 1_555
C4 C6 1_555 1_555
C4 C7 1_555 1_555
C8 C11 1_555 1_555
C15 C16 1_555 1_555
C17 C18 1_555 1_555
N2A C10A 1_555 1_555
C2A C3A 1_555 1_555
C2A C7A 1_555 1_555
C4A C6A 1_555 1_555
C4A C7A 1_555 1_555
C8A C11A 1_555 1_555
C13A C19A 1_555 1_555
C15A C16A 1_555 1_555
C17A C18A 1_555 1_555

#END
