
#######################################################################
#
#                 Cambridge Crystallographic Data Centre
#                                CCDC 
#
#######################################################################
#
# If this CIF has been generated from an entry in the Cambridge 
# Structural Database, then it will include bibliographic, chemical, 
# crystal, experimental, refinement or atomic coordinate data resulting 
# from the CCDC's data processing and validation procedures.
#
#######################################################################

data_INIROO
_chemical_formula_moiety         '(C24 H51 Dy5 Ge7 N1 O39)n'
_symmetry_cell_setting           monoclinic
_symmetry_space_group_name_H-M   'P 21/c'
_symmetry_Int_Tables_number      14
_space_group_name_Hall           '-P 2ybc'
loop_
_symmetry_equiv_pos_site_id
_symmetry_equiv_pos_as_xyz
1 x,y,z
2 -x,1/2+y,1/2-z
3 -x,-y,-z
4 x,1/2-y,1/2+z
_cell_length_a                   18.8542(5)
_cell_length_b                   18.0734(5)
_cell_length_c                   19.5409(7)
_cell_angle_alpha                90
_cell_angle_beta                 94.771(3)
_cell_angle_gamma                90
_cell_volume                     6635.68
loop_
_atom_site_label
_atom_site_type_symbol
_atom_site_fract_x
_atom_site_fract_y
_atom_site_fract_z
Dy1 Dy 0.30556(5) 0.52372(6) 1.00854(5)
Dy2 Dy 0.39641(5) 0.38966(6) 1.12688(5)
Dy3 Dy 0.40438(5) 0.63460(6) 0.88592(5)
Dy4 Dy 0.11117(6) 0.56335(7) 1.00349(6)
Dy5 Dy 0.44947(6) 0.32002(7) 0.85343(6)
Ge1 Ge 0.62253(13) 0.41668(14) 0.83004(12)
Ge2 Ge 0.60540(13) 0.29891(14) 0.94967(12)
Ge3 Ge 0.45877(13) 0.25828(14) 1.01642(12)
Ge4 Ge 0.31281(12) 0.34321(14) 0.95261(12)
Ge5 Ge 0.33553(13) 0.46441(14) 0.83306(12)
Ge6 Ge 0.48004(13) 0.50451(14) 0.76936(12)
Ge7 Ge 0.18994(13) 0.43101(15) 1.12406(13)
N1 N 0.1154(11) 0.6968(14) 0.9579(13)
H1 H 0.0937 0.7335 0.9749
O1 O 0.5817(8) 0.3355(9) 0.8620(7)
O2 O 0.5160(8) 0.2611(9) 0.9463(7)
O3 O 0.3850(9) 0.2743(9) 0.9552(7)
O4 O 0.3395(9) 0.3712(9) 0.8683(8)
O5 O 0.4151(8) 0.4397(8) 0.7897(8)
O6 O 0.5526(9) 0.4415(10) 0.7662(8)
O7 O 0.6262(8) 0.4891(9) 0.8903(8)
O8 O 0.6148(7) 0.3787(9) 1.0018(7)
O9 O 0.4832(9) 0.3312(9) 1.0709(9)
O10 O 0.3406(8) 0.4024(9) 1.0212(8)
O11 O 0.3602(8) 0.5167(9) 0.9059(7)
O12 O 0.4916(8) 0.5676(9) 0.8363(7)
O13 O 0.7230(9) 0.3748(10) 0.9150(8)
O14 O 0.8373(9) 0.3598(11) 0.9051(9)
O15 O 0.6069(9) 0.2465(9) 1.0610(9)
O16 O 0.6504(12) 0.1483(10) 1.1154(10)
O17 O 0.3640(12) 0.2662(12) 1.1199(14)
O18 O 0.264(3) 0.201(3) 1.110(3)
O19 O 0.2320(9) 0.4379(10) 0.9320(8)
O20 O 0.1150(9) 0.4473(10) 0.9410(10)
O21 O 0.3488(8) 0.5787(11) 0.7815(9)
O22 O 0.2871(10) 0.6579(12) 0.7119(11)
O23 O 0.5788(15) 0.7041(15) 0.6785(15)
O24 O 0.5940(10) 0.6199(12) 0.7515(9)
O25 O 0.0523(10) 0.4826(12) 1.0694(10)
O26 O -0.0419(9) 0.4260(11) 1.1033(11)
O27 O 0.1608(12) 0.3457(13) 1.0891(12)
H2 H 0.1235 0.3517 1.0650
O28 O 0.2766(10) 0.4033(11) 1.1637(10)
H3 H 0.2747 0.3912 1.2098
O29 O 0.2048(8) 0.4919(9) 1.0605(8)
O30 O 0.2151(9) 0.5943(9) 0.9471(8)
O31 O 0.2793(9) 0.6646(10) 0.8811(9)
O32 O 0.4787(8) 0.4201(9) 0.9312(8)
O33 O 0.4873(10) 0.3093(10) 0.7385(8)
O34 O 0.344(2) 0.273(2) 0.775(2)
O35 O 0.3872(11) 0.7339(10) 0.7946(9)
O36 O 0.0116(10) 0.6299(11) 1.0423(12)
C1 C 0.7002(12) 0.3986(13) 0.7757(12)
H4 H 0.6809 0.3794 0.7317
H5 H 0.7223 0.4458 0.7671
C2 C 0.7588(11) 0.3457(14) 0.8041(12)
H6 H 0.8011 0.3526 0.7798
H7 H 0.7430 0.2949 0.7979
C3 C 0.7755(13) 0.3621(14) 0.8806(11)
C4 C 0.6714(13) 0.2191(11) 0.9453(11)
H8 H 0.6684 0.2000 0.8987
H9 H 0.7192 0.2379 0.9559
C5 C 0.6584(18) 0.1555(13) 0.9944(11)
H10 H 0.7014 0.1261 1.0020
H11 H 0.6209 0.1239 0.9739
C6 C 0.6370(15) 0.1846(17) 1.0635(12)
C7 C 0.4475(13) 0.1607(14) 1.0566(15)
H12 H 0.4631 0.1233 1.0255
H13 H 0.4775 0.1572 1.0993
C8 C 0.3702(13) 0.1452(18) 1.071(2)
H14 H 0.3429 0.1354 1.0274
H15 H 0.3690 0.1007 1.0984
C9 C 0.3338(19) 0.2075(18) 1.1074(18)
C10 C 0.2274(11) 0.2836(14) 0.9449(13)
H16 H 0.2348 0.2408 0.9164
H17 H 0.2176 0.2661 0.9901
C11 C 0.1635(11) 0.3277(11) 0.9135(16)
H18 H 0.1599 0.3216 0.8640
H19 H 0.1203 0.3081 0.9303
C12 C 0.1695(12) 0.4100(11) 0.9308(12)
C13 C 0.2477(14) 0.4717(18) 0.7748(14)
H20 H 0.2373 0.4239 0.7539
H21 H 0.2094 0.4835 0.8032
C14 C 0.249(2) 0.5298(17) 0.7182(17)
H22 H 0.2009 0.5480 0.7070
H23 H 0.2647 0.5068 0.6773
C15 C 0.2977(15) 0.5950(17) 0.7389(16)
C16 C 0.4647(12) 0.5435(15) 0.6763(12)
H24 H 0.4483 0.5045 0.6448
H25 H 0.4291 0.5823 0.6744
C17 C 0.5358(16) 0.574(2) 0.657(2)
H26 H 0.5316 0.5866 0.6083
H27 H 0.5721 0.5364 0.6641
C18 C 0.559(2) 0.6433(16) 0.698(2)
C19 C 0.1322(10) 0.4636(15) 1.1954(13)
H28 H 0.1534 0.4465 1.2395
H29 H 0.1313 0.5172 1.1963
C20 C 0.0559(10) 0.4343(19) 1.1840(10)
H30 H 0.0569 0.3811 1.1911
H31 H 0.0282 0.4557 1.2186
C21 C 0.0180(12) 0.4501(13) 1.1134(10)
C22 C 0.175(2) 0.774(2) 0.862(2)
H32 H 0.1343 0.8057 0.8597
H33 H 0.1860 0.7616 0.8159
H34 H 0.2149 0.7983 0.8854
C23 C 0.1587(15) 0.7029(18) 0.900(2)
H35 H 0.1277 0.6779 0.8645
C24 C 0.2221(11) 0.6505(12) 0.9047(14)
Dy1B Dy 0.69444(5) 0.47628(6) 0.99146(5)
Dy2B Dy 0.60359(5) 0.61034(6) 0.87312(5)
Dy3B Dy 0.59562(5) 0.36540(6) 1.11408(5)
Dy4B Dy -0.11117(6) 0.43665(7) 0.99651(6)
Dy4B_2 Dy 0.88883(6) 0.43665(7) 0.99651(6)
Dy5A Dy 0.55053(6) 0.82002(7) 0.64657(6)
O7B O 0.3738(8) 0.5109(9) 1.1097(8)
O8B O 0.3852(7) 0.6213(9) 0.9982(7)
O9B O 0.5168(9) 0.6688(9) 0.9291(9)
O12B O 0.5084(8) 0.4324(9) 1.1637(7)
O13B O 0.2770(9) 0.6252(10) 1.0850(8)
O14B O 0.1627(9) 0.6402(11) 1.0949(9)
O15B O 0.3931(9) 0.7535(9) 0.9390(9)
O23A O 0.4212(15) 0.2041(15) 0.8215(15)
O24B O 0.4060(10) 0.3801(12) 1.2485(9)
O26B O 0.0419(9) 0.5740(11) 0.8967(11)
O37 O 0.2602(16) 0.1324(17) 0.8028(16)
O38 O 0.164(3) 0.673(3) 0.610(3)
O39 O 0.0432(16) 0.2595(17) 0.0520(16)
loop_
_geom_bond_atom_site_label_1
_geom_bond_atom_site_label_2
_geom_bond_site_symmetry_1
_geom_bond_site_symmetry_2
Dy1 O10 1_555 1_555
Dy2 O9 1_555 1_555
Dy3 O11 1_555 1_555
Dy4 N1 1_555 1_555
Dy5 O1 1_555 1_555
Ge1 O1 1_555 1_555
Ge2 O1 1_555 1_555
Ge3 O2 1_555 1_555
Ge4 O3 1_555 1_555
Ge5 O4 1_555 1_555
Ge6 O5 1_555 1_555
Ge7 O27 1_555 1_555
N1 H1 1_555 1_555
O2 Dy5 1_555 1_555
O3 Dy5 1_555 1_555
O4 Dy5 1_555 1_555
O5 Dy5 1_555 1_555
O6 Ge1 1_555 1_555
O7 Ge1 1_555 1_555
O8 Ge2 1_555 1_555
O9 Ge3 1_555 1_555
O10 Dy2 1_555 1_555
O11 Dy1 1_555 1_555
O12 Dy3 1_555 1_555
O13 C3 1_555 1_555
O14 C3 1_555 1_555
O15 C6 1_555 1_555
O16 C6 1_555 1_555
O17 Dy2 1_555 1_555
O18 C9 1_555 1_555
O19 Dy1 1_555 1_555
O20 Dy4 1_555 1_555
O21 Dy3 1_555 1_555
O22 C15 1_555 1_555
O23 C18 1_555 1_555
O24 C18 1_555 1_555
O25 Dy4 1_555 1_555
O26 C21 1_555 1_555
O27 H2 1_555 1_555
O28 Dy2 1_555 1_555
H3 O28 1_555 1_555
O29 Dy1 1_555 1_555
O30 Dy1 1_555 1_555
O31 Dy3 1_555 1_555
O32 Dy5 1_555 1_555
O33 Dy5 1_555 1_555
O34 Dy5 1_555 1_555
O35 Dy3 1_555 1_555
O36 Dy4 1_555 1_555
C1 Ge1 1_555 1_555
H4 C1 1_555 1_555
H5 C1 1_555 1_555
C2 C1 1_555 1_555
H6 C2 1_555 1_555
H7 C2 1_555 1_555
C3 C2 1_555 1_555
C4 Ge2 1_555 1_555
H8 C4 1_555 1_555
H9 C4 1_555 1_555
C5 C4 1_555 1_555
H10 C5 1_555 1_555
H11 C5 1_555 1_555
C6 C5 1_555 1_555
C7 Ge3 1_555 1_555
H12 C7 1_555 1_555
H13 C7 1_555 1_555
C8 C7 1_555 1_555
H14 C8 1_555 1_555
H15 C8 1_555 1_555
C9 O17 1_555 1_555
C10 Ge4 1_555 1_555
H16 C10 1_555 1_555
H17 C10 1_555 1_555
C11 C10 1_555 1_555
H18 C11 1_555 1_555
H19 C11 1_555 1_555
C12 O19 1_555 1_555
C13 Ge5 1_555 1_555
H20 C13 1_555 1_555
H21 C13 1_555 1_555
C14 C13 1_555 1_555
H22 C14 1_555 1_555
H23 C14 1_555 1_555
C15 O21 1_555 1_555
C16 Ge6 1_555 1_555
H24 C16 1_555 1_555
H25 C16 1_555 1_555
C17 C16 1_555 1_555
H26 C17 1_555 1_555
H27 C17 1_555 1_555
C18 C17 1_555 1_555
C19 Ge7 1_555 1_555
H28 C19 1_555 1_555
H29 C19 1_555 1_555
C20 C19 1_555 1_555
H30 C20 1_555 1_555
H31 C20 1_555 1_555
C21 O25 1_555 1_555
C22 H32 1_555 1_555
H33 C22 1_555 1_555
H34 C22 1_555 1_555
C23 N1 1_555 1_555
H35 C23 1_555 1_555
C24 O30 1_555 1_555
Dy1B O7 1_555 1_555
Dy2B O7 1_555 1_555
Dy3B O8 1_555 1_555
Dy4B O26 1_555 1_555
Dy4B_2 O14 1_555 1_555
Dy5A O23 1_555 1_555
O7B Dy1 1_555 1_555
O8B Dy1 1_555 1_555
O9B Dy3 1_555 1_555
O12B Dy2 1_555 1_555
O13B Dy1 1_555 1_555
O14B Dy4 1_555 1_555
O15B Dy3 1_555 1_555
O23A Dy5 1_555 1_555
O24B Dy2 1_555 1_555
O26B Dy4 1_555 1_555
Dy2 O7B 1_555 1_555
Dy3 O8B 1_555 1_555
Dy4 O29 1_555 1_555
Dy4 O30 1_555 1_555
Ge2 O2 1_555 1_555
Ge3 O3 1_555 1_555
Ge4 O4 1_555 1_555
Ge4 O10 1_555 1_555
Ge5 O5 1_555 1_555
Ge5 O11 1_555 1_555
Ge6 O6 1_555 1_555
Ge6 O12 1_555 1_555
Ge7 O28 1_555 1_555
Ge7 O29 1_555 1_555
O8 Dy1B 1_555 1_555
O9 Dy3B 1_555 1_555
O12 Dy2B 1_555 1_555
O13 Dy1B 1_555 1_555
O15 Dy3B 1_555 1_555
O20 C12 1_555 1_555
O24 Dy2B 1_555 1_555
O31 C24 1_555 1_555
C8 C9 1_555 1_555
C11 C12 1_555 1_555
C14 C15 1_555 1_555
C20 C21 1_555 1_555
C22 C23 1_555 1_555
C23 C24 1_555 1_555
Dy2B O9B 1_555 1_555
Dy3B O12B 1_555 1_555

#END
