
#######################################################################
#
#                 Cambridge Crystallographic Data Centre
#                                CCDC 
#
#######################################################################
#
# If this CIF has been generated from an entry in the Cambridge 
# Structural Database, then it will include bibliographic, chemical, 
# crystal, experimental, refinement or atomic coordinate data resulting 
# from the CCDC's data processing and validation procedures.
#
#######################################################################

data_WEMXIX
_chemical_formula_moiety         '(C10 H8 Cu1 O5)n'
_symmetry_cell_setting           trigonal
_symmetry_space_group_name_H-M   'P -3 c 1'
_symmetry_Int_Tables_number      165
_space_group_name_Hall           '-P 3 2"c'
loop_
_symmetry_equiv_pos_site_id
_symmetry_equiv_pos_as_xyz
1 x,y,z
2 -y,x-y,z
3 -x+y,-x,z
4 y,x,1/2-z
5 -x,-x+y,1/2-z
6 x-y,-y,1/2-z
7 -x,-y,-z
8 y,-x+y,-z
9 x-y,x,-z
10 -y,-x,1/2+z
11 x,x-y,1/2+z
12 -x+y,y,1/2+z
_cell_length_a                   21.7696(13)
_cell_length_b                   21.7696(13)
_cell_length_c                   8.7212(7)
_cell_angle_alpha                90
_cell_angle_beta                 90
_cell_angle_gamma                120
_cell_volume                     3579.38
loop_
_atom_site_label
_atom_site_type_symbol
_atom_site_fract_x
_atom_site_fract_y
_atom_site_fract_z
_atom_site_U_iso_or_equiv
_atom_site_thermal_displace_type
Cu1 Cu 0.46932(3) 0.41708(3) 0.39890(6) 0.0159 Uani
O1 O 0.44483(16) 0.35264(16) 0.2256(3) 0.0209 Uani
O2 O 0.44523(17) 0.13332(16) 0.0458(3) 0.0256 Uani
O3 O 0.54066(16) 0.10786(15) 0.3394(3) 0.0162 Uani
O4 O 0.38602(16) 0.37304(15) 0.0424(3) 0.0197 Uani
O5 O 0.50307(15) 0.05336(15) 0.1128(3) 0.0130 Uani
C1 C 0.3486(2) 0.1329(2) -0.0735(5) 0.0221 Uani
H1 H 0.3353 0.0877 -0.1093 0.0270 Uiso
C2 C 0.4078(2) 0.3363(2) 0.1066(5) 0.0150 Uani
C3 C 0.4873(3) 0.1523(2) 0.1782(5) 0.0214 Uani
H2 H 0.4601 0.1537 0.2650 0.0260 Uiso
H3 H 0.5282 0.1993 0.1652 0.0260 Uiso
C4 C 0.3298(3) 0.2321(2) -0.0588(5) 0.0222 Uani
H4 H 0.3050 0.2547 -0.0875 0.0260 Uiso
C5 C 0.4076(3) 0.1680(3) 0.0181(5) 0.0198 Uani
C6 C 0.2427(3) 0.1255(3) -0.2124(6) 0.0367 Uani
H5 H 0.2270 0.0757 -0.2124 0.0560 Uiso
H6 H 0.2536 0.1433 -0.3153 0.0560 Uiso
H7 H 0.2058 0.1328 -0.1720 0.0560 Uiso
C7 C 0.4275(2) 0.2338(2) 0.0768(5) 0.0193 Uani
H8 H 0.4666 0.2566 0.1412 0.0230 Uiso
C8 C 0.3880(2) 0.2663(2) 0.0382(5) 0.0179 Uani
C9 C 0.3085(2) 0.1643(3) -0.1134(5) 0.0231 Uani
C10 C 0.5119(2) 0.0997(2) 0.2094(5) 0.0159 Uani
Cu1J Cu 0.46932(3) 0.05224(4) -0.10110(6) 0.0159 Uani
Cu1A Cu 0.58292(3) 0.05224(4) 0.39890(6) 0.0159 Uani
Cu1C Cu 0.41708(3) 0.46932(3) 0.10110(6) 0.0159 Uani
Cu1D Cu 0.53068(3) -0.05224(4) 0.10110(6) 0.0159 Uani
O2J O 0.44523(17) 0.31191(23) 0.5458(3) 0.0256 Uani
O3B O 0.56720(22) 0.45934(16) 0.3394(3) 0.0162 Uani
O4C O 0.37304(15) 0.38602(16) 0.4576(3) 0.0197 Uani
O5D O 0.49693(15) 0.55029(21) 0.3872(3) 0.0130 Uani
O5J O 0.50307(15) 0.44971(21) 0.6128(3) 0.0130 Uani
loop_
_atom_site_aniso_label
_atom_site_aniso_U_11
_atom_site_aniso_U_22
_atom_site_aniso_U_33
_atom_site_aniso_U_23
_atom_site_aniso_U_13
_atom_site_aniso_U_12
Cu1 0.0129(3) 0.0208(4) 0.0155(3) -0.0013(2) -0.0012(2) 0.0095(3)
O1 0.0252(19) 0.0183(18) 0.0226(19) -0.0036(15) -0.0041(16) 0.0134(16)
O2 0.040(2) 0.0254(19) 0.0233(19) -0.0136(15) -0.0143(17) 0.0252(18)
O3 0.0263(19) 0.0168(17) 0.0112(17) -0.0020(14) -0.0028(14) 0.0150(15)
O4 0.0235(19) 0.0114(17) 0.0260(19) -0.0019(14) -0.0058(15) 0.0101(15)
O5 0.0181(17) 0.0121(16) 0.0108(16) -0.0027(13) -0.0014(14) 0.0090(14)
C1 0.022(3) 0.016(3) 0.029(3) -0.003(2) -0.001(2) 0.010(2)
C2 0.010(2) 0.018(3) 0.017(3) 0.003(2) 0.004(2) 0.007(2)
C3 0.027(3) 0.021(3) 0.019(3) 0.000(2) -0.005(2) 0.014(2)
C4 0.028(3) 0.021(3) 0.024(3) 0.002(2) 0.000(2) 0.017(2)
C5 0.026(3) 0.026(3) 0.014(3) -0.002(2) -0.001(2) 0.018(2)
C6 0.031(3) 0.039(3) 0.042(3) -0.016(3) -0.010(3) 0.019(3)
C7 0.022(3) 0.019(3) 0.018(3) -0.001(2) -0.005(2) 0.011(2)
C8 0.021(3) 0.017(3) 0.015(3) 0.000(2) 0.000(2) 0.009(2)
C9 0.017(3) 0.026(3) 0.024(3) -0.006(2) -0.001(2) 0.009(2)
C10 0.013(2) 0.012(2) 0.021(3) 0.004(2) 0.008(2) 0.005(2)
Cu1J 0.0129 0.0147 0.0155 0.0001 -0.0012 0.0034
Cu1A 0.0208 0.0147 0.0155 0.0001 0.0013 0.0113
Cu1C 0.0208 0.0129 0.0155 0.0012 0.0013 0.0095
Cu1D 0.0129 0.0147 0.0155 0.0001 -0.0012 0.0034
O2J 0.04 0.015 0.0233 -0.0007 -0.0143 0.0148
O3B 0.0131 0.0263 0.0112 0.0028 0.0008 0.0113
O4C 0.0114 0.0235 0.026 0.0058 0.0019 0.0101
O5D 0.0181 0.0122 0.0108 0.0013 -0.0014 0.0091
O5J 0.0181 0.0122 0.0108 0.0013 -0.0014 0.0091
loop_
_geom_bond_atom_site_label_1
_geom_bond_atom_site_label_2
_geom_bond_site_symmetry_1
_geom_bond_site_symmetry_2
Cu1 O1 1_555 1_555
O1 C2 1_555 1_555
O2 C3 1_555 1_555
O3 C10 1_555 1_555
O4 C2 1_555 1_555
O5 C10 1_555 1_555
C1 H1 1_555 1_555
C2 C8 1_555 1_555
C3 H2 1_555 1_555
H3 C3 1_555 1_555
C4 H4 1_555 1_555
C5 O2 1_555 1_555
C6 H5 1_555 1_555
H6 C6 1_555 1_555
H7 C6 1_555 1_555
C7 C5 1_555 1_555
H8 C7 1_555 1_555
C8 C4 1_555 1_555
C9 C1 1_555 1_555
C10 C3 1_555 1_555
Cu1J O2 1_555 1_555
Cu1A O3 1_555 1_555
Cu1C O4 1_555 1_555
Cu1D O5 1_555 1_555
O2J Cu1 1_555 1_555
O3B Cu1 1_555 1_555
O4C Cu1 1_555 1_555
O5D Cu1 1_555 1_555
O5J Cu1 1_555 1_555
O5 Cu1J 1_555 1_555
C1 C5 1_555 1_555
C4 C9 1_555 1_555
C6 C9 1_555 1_555
C7 C8 1_555 1_555

#END
