
#######################################################################
#
#                 Cambridge Crystallographic Data Centre
#                                CCDC 
#
#######################################################################
#
# If this CIF has been generated from an entry in the Cambridge 
# Structural Database, then it will include bibliographic, chemical, 
# crystal, experimental, refinement or atomic coordinate data resulting 
# from the CCDC's data processing and validation procedures.
#
#######################################################################

data_GAYPED
_chemical_formula_moiety         'C156 H60 Co38 N12 O80'
_symmetry_cell_setting           tetragonal
_symmetry_space_group_name_H-M   'P 4/m b m'
_symmetry_Int_Tables_number      127
_space_group_name_Hall           '-P 4 2ab'
loop_
_symmetry_equiv_pos_site_id
_symmetry_equiv_pos_as_xyz
1 x,y,z
2 -x,-y,z
3 -y,x,z
4 y,-x,z
5 1/2-x,1/2+y,-z
6 1/2+x,1/2-y,-z
7 1/2+y,1/2+x,-z
8 1/2-y,1/2-x,-z
9 -x,-y,-z
10 x,y,-z
11 y,-x,-z
12 -y,x,-z
13 1/2+x,1/2-y,z
14 1/2-x,1/2+y,z
15 1/2-y,1/2-x,z
16 1/2+y,1/2+x,z
_cell_length_a                   30.163(4)
_cell_length_b                   30.163(4)
_cell_length_c                   15.4840(19)
_cell_angle_alpha                90
_cell_angle_beta                 90
_cell_angle_gamma                90
_cell_volume                     14087.4
loop_
_atom_site_label
_atom_site_type_symbol
_atom_site_fract_x
_atom_site_fract_y
_atom_site_fract_z
Co1 Co 0.5000 1.0000 0.0000
Co2 Co 0.24720(8) 1.01704(8) 0.37749(19)
Co3 Co 0.16133(8) 1.01030(7) 0.5000
Co4 Co 0.25943(7) 0.75943(7) 0.0000
C1 C 0.4020(4) 1.0980(4) 0.0433(6)
H1 H 0.3840 1.1160 0.0795
C2 C 0.4339(4) 1.0661(4) 0.0714(15)
C3 C 0.4427(4) 1.0573(4) 0.1571(13)
C4 C 0.4742(4) 1.0258(4) 0.1833(14)
C5 C 0.4840(2) 1.0160(2) 0.2737(15)
H2 H 0.4707 1.0293 0.3229
C6 C 0.4179(5) 1.0821(5) 0.2229(15)
C7 C 0.3807(4) 1.0641(4) 0.2591(10)
H3 H 0.3695 1.0367 0.2378
C8 C 0.3596(4) 1.0845(4) 0.3242(9)
C9 C 0.3776(5) 1.1224(5) 0.3581(15)
H4 H 0.3637 1.1363 0.4058
C10 C 0.3165(4) 1.0659(6) 0.3598(9)
C11 C 0.1901(5) 0.9458(4) 0.3540(10)
C12 C 0.1716(4) 0.9025(3) 0.3204(6)
C13 C 0.1335(3) 0.8858(3) 0.3505(7)
H5 H 0.1176 0.9009 0.3945
C14 C 0.1173(4) 0.8462(4) 0.3170(7)
C15 C 0.1408(3) 0.8236(4) 0.2548(6)
H6 H 0.1303 0.7959 0.2340
C16 C 0.1789(3) 0.8411(4) 0.2235(6)
C17 C 0.1945(3) 0.8804(3) 0.2567(6)
H7 H 0.2215 0.8925 0.2354
C18 C 0.0764(4) 0.8269(4) 0.3546(8)
C19 C 0.2030(3) 0.8171(3) 0.1570(6)
C20 C 0.2362(3) 0.7888(3) 0.1816(6)
C21 C 0.2470(3) 0.7795(3) 0.2688(7)
H8 H 0.2343 0.7930 0.3183
C22 C 0.1932(3) 0.8250(3) 0.0723(6)
C23 C 0.1613(4) 0.8564(4) 0.0443(5)
H9 H 0.1431 0.8742 0.0804
O1 O 0.3023(4) 1.0279(4) 0.3329(8)
O2 O 0.2927(5) 1.0824(5) 0.4117(10)
O3 O 0.2294(5) 1.0207(5) 0.5000
O4 O 0.2259(3) 0.9614(3) 0.3357(6)
O5 O 0.0893(3) 1.0015(3) 0.5000
O6 O 0.1624(3) 0.9650(3) 0.4045(6)
O7 O 0.0583(4) 0.8485(3) 0.4102(7)
O8 O 0.0635(3) 0.7905(4) 0.3288(7)
N1 N 0.5000 1.0000 0.1231(18)
N2 N 0.4552(4) 1.0448(4) 0.0000
N3 N 0.2610(3) 0.7610(3) 0.1259(7)
N4 N 0.2125(3) 0.8064(3) 0.0000
Co2N Co 0.48296(8) 1.25280(8) 0.37749(19)
Co2O Co 0.51704(8) 0.74720(8) 0.37749(19)
Co2A Co 0.75280(8) 0.98296(8) 0.37749(19)
Co2H Co 0.75280(8) 0.98296(8) -0.37749(19)
Co2F Co 0.51704(8) 0.74720(8) -0.37749(19)
Co2I Co 0.24720(8) 1.01704(8) -0.37749(19)
Co2G Co 0.48296(8) 1.25280(8) -0.37749(19)
Co2I_2 Co 0.24720(8) 1.01704(8) 0.62251(19)
Co2C Co 0.01704(8) 0.75280(8) 0.37749(19)
Co2M Co 0.25280(8) 0.51704(8) 0.37749(19)
Co2D Co 0.25280(8) 0.51704(8) -0.37749(19)
Co2J Co 0.01704(8) 0.75280(8) -0.37749(19)
Co2B Co -0.01704(8) 1.24720(8) 0.37749(19)
Co2M_2 Co 0.25280(8) 1.51704(8) 0.37749(19)
Co2D_2 Co 0.25280(8) 1.51704(8) -0.37749(19)
Co2K Co -0.01704(8) 1.24720(8) -0.37749(19)
Co2G_2 Co 0.48296(8) 1.25280(8) 0.62251(19)
Co2F_2 Co 0.51704(8) 0.74720(8) 0.62251(19)
Co2H_2 Co 0.75280(8) 0.98296(8) 0.62251(19)
Co3G Co 0.48970(7) 1.33867(8) 0.5000
Co3F Co 0.51030(7) 0.66133(8) 0.5000
Co3A Co 0.83867(8) 0.98970(7) 0.5000
Co3C Co 0.01030(7) 0.83867(8) 0.5000
Co3D Co 0.33867(8) 0.51030(7) 0.5000
Co3F_2 Co 0.51030(7) 0.66133(8) -0.5000
Co3D_2 Co 0.33867(8) 0.51030(7) -0.5000
Co3_2 Co 0.16133(8) 1.01030(7) -0.5000
Co3C_2 Co 0.01030(7) 0.83867(8) -0.5000
Co3B Co -0.01030(7) 1.16133(8) 0.5000
Co3D_3 Co 0.33867(8) 1.51030(7) 0.5000
Co3D_4 Co 0.33867(8) 1.51030(7) -0.5000
Co3G_2 Co 0.48970(7) 1.33867(8) -0.5000
Co3B_2 Co -0.01030(7) 1.16133(8) -0.5000
Co4B Co 0.24057(7) 1.25943(7) 0.0000
C1G C 0.4020(4) 1.0980(4) -0.0433(6)
C1F C 0.5980(4) 0.9020(4) -0.0433(6)
C1A C 0.5980(4) 0.9020(4) 0.0433(6)
H1G H 0.3840 1.1160 -0.0795
H1A H 0.6160 0.8840 0.0795
H1F H 0.6160 0.8840 -0.0795
C2G C 0.4339(4) 1.0661(4) -0.0714(15)
C2F C 0.5661(4) 0.9339(4) -0.0714(15)
C2A C 0.5661(4) 0.9339(4) 0.0714(15)
C3G C 0.4427(4) 1.0573(4) -0.1571(13)
C3F C 0.5573(4) 0.9427(4) -0.1571(13)
C3A C 0.5573(4) 0.9427(4) 0.1571(13)
C4G C 0.4742(4) 1.0258(4) -0.1833(14)
C4F C 0.5258(4) 0.9742(4) -0.1833(14)
C4A C 0.5258(4) 0.9742(4) 0.1833(14)
C5G C 0.4840(2) 1.0160(2) -0.2737(15)
C5F C 0.5160(2) 0.9840(2) -0.2737(15)
C5A C 0.5160(2) 0.9840(2) 0.2737(15)
H2G H 0.4707 1.0293 -0.3229
H2A H 0.5293 0.9707 0.3229
H2F H 0.5293 0.9707 -0.3229
C6A C 0.5821(5) 0.9179(5) 0.2229(15)
C6F C 0.5821(5) 0.9179(5) -0.2229(15)
C6G C 0.4179(5) 1.0821(5) -0.2229(15)
C7N C 0.4359(4) 1.1193(4) 0.2591(10)
C7A C 0.6193(4) 0.9359(4) 0.2591(10)
C7O C 0.5641(4) 0.8807(4) 0.2591(10)
C7F C 0.5641(4) 0.8807(4) -0.2591(10)
C7H C 0.6193(4) 0.9359(4) -0.2591(10)
C7G C 0.4359(4) 1.1193(4) -0.2591(10)
C7I C 0.3807(4) 1.0641(4) -0.2591(10)
H3N H 0.4633 1.1305 0.2378
H3A H 0.6305 0.9633 0.2378
H3O H 0.5367 0.8695 0.2378
H3F H 0.5367 0.8695 -0.2378
H3H H 0.6305 0.9633 -0.2378
H3G H 0.4633 1.1305 -0.2378
H3I H 0.3695 1.0367 -0.2378
C8N C 0.4155(4) 1.1404(4) 0.3242(9)
C8A C 0.6404(4) 0.9155(4) 0.3242(9)
C8O C 0.5845(4) 0.8596(4) 0.3242(9)
C8F C 0.5845(4) 0.8596(4) -0.3242(9)
C8H C 0.6404(4) 0.9155(4) -0.3242(9)
C8G C 0.4155(4) 1.1404(4) -0.3242(9)
C8I C 0.3596(4) 1.0845(4) -0.3242(9)
C9A C 0.6224(5) 0.8776(5) 0.3581(15)
C9F C 0.6224(5) 0.8776(5) -0.3581(15)
C9G C 0.3776(5) 1.1224(5) -0.3581(15)
H4A H 0.6363 0.8637 0.4058
H4F H 0.6363 0.8637 -0.4058
H4G H 0.3637 1.1363 -0.4058
C10N C 0.4341(6) 1.1835(4) 0.3598(9)
C10O C 0.5659(6) 0.8165(4) 0.3598(9)
C10A C 0.6835(4) 0.9341(6) 0.3598(9)
C10H C 0.6835(4) 0.9341(6) -0.3598(9)
C10F C 0.5659(6) 0.8165(4) -0.3598(9)
C10I C 0.3165(4) 1.0659(6) -0.3598(9)
C10G C 0.4341(6) 1.1835(4) -0.3598(9)
C11O C 0.4458(4) 0.6901(5) 0.3540(10)
C11F C 0.4458(4) 0.6901(5) -0.3540(10)
C11I C 0.1901(5) 0.9458(4) -0.3540(10)
C11B C 0.0542(4) 1.1901(5) 0.3540(10)
C11M C 0.3099(5) 1.4458(4) 0.3540(10)
C11D C 0.3099(5) 1.4458(4) -0.3540(10)
C11K C 0.0542(4) 1.1901(5) -0.3540(10)
C12O C 0.4025(3) 0.6716(4) 0.3204(6)
C12F C 0.4025(3) 0.6716(4) -0.3204(6)
C12I C 0.1716(4) 0.9025(3) -0.3204(6)
C12B C 0.0975(3) 1.1716(4) 0.3204(6)
C12M C 0.3284(4) 1.4025(3) 0.3204(6)
C12D C 0.3284(4) 1.4025(3) -0.3204(6)
C12K C 0.0975(3) 1.1716(4) -0.3204(6)
C13O C 0.3858(3) 0.6335(3) 0.3505(7)
C13F C 0.3858(3) 0.6335(3) -0.3505(7)
C13I C 0.1335(3) 0.8858(3) -0.3505(7)
C13B C 0.1142(3) 1.1335(3) 0.3505(7)
C13M C 0.3665(3) 1.3858(3) 0.3505(7)
C13D C 0.3665(3) 1.3858(3) -0.3505(7)
C13K C 0.1142(3) 1.1335(3) -0.3505(7)
H5O H 0.4009 0.6176 0.3945
H5F H 0.4009 0.6176 -0.3945
H5I H 0.1176 0.9009 -0.3945
H5B H 0.0991 1.1176 0.3945
H5M H 0.3824 1.4009 0.3945
H5D H 0.3824 1.4009 -0.3945
H5K H 0.0991 1.1176 -0.3945
C14O C 0.3462(4) 0.6173(4) 0.3170(7)
C14F C 0.3462(4) 0.6173(4) -0.3170(7)
C14I C 0.1173(4) 0.8462(4) -0.3170(7)
C14B C 0.1538(4) 1.1173(4) 0.3170(7)
C14M C 0.3827(4) 1.3462(4) 0.3170(7)
C14D C 0.3827(4) 1.3462(4) -0.3170(7)
C14K C 0.1538(4) 1.1173(4) -0.3170(7)
C15O C 0.3236(4) 0.6408(3) 0.2548(6)
C15F C 0.3236(4) 0.6408(3) -0.2548(6)
C15I C 0.1408(3) 0.8236(4) -0.2548(6)
C15B C 0.1764(4) 1.1408(3) 0.2548(6)
C15M C 0.3592(3) 1.3236(4) 0.2548(6)
C15D C 0.3592(3) 1.3236(4) -0.2548(6)
C15K C 0.1764(4) 1.1408(3) -0.2548(6)
H6O H 0.2959 0.6303 0.2340
H6F H 0.2959 0.6303 -0.2340
H6I H 0.1303 0.7959 -0.2340
H6B H 0.2041 1.1303 0.2340
H6M H 0.3697 1.2959 0.2340
H6D H 0.3697 1.2959 -0.2340
H6K H 0.2041 1.1303 -0.2340
C16O C 0.3411(4) 0.6789(3) 0.2235(6)
C16F C 0.3411(4) 0.6789(3) -0.2235(6)
C16I C 0.1789(3) 0.8411(4) -0.2235(6)
C16B C 0.1589(4) 1.1789(3) 0.2235(6)
C16M C 0.3211(3) 1.3411(4) 0.2235(6)
C16D C 0.3211(3) 1.3411(4) -0.2235(6)
C16K C 0.1589(4) 1.1789(3) -0.2235(6)
C17O C 0.3804(3) 0.6945(3) 0.2567(6)
C17F C 0.3804(3) 0.6945(3) -0.2567(6)
C17I C 0.1945(3) 0.8804(3) -0.2567(6)
C17B C 0.1196(3) 1.1945(3) 0.2567(6)
C17M C 0.3055(3) 1.3804(3) 0.2567(6)
C17D C 0.3055(3) 1.3804(3) -0.2567(6)
C17K C 0.1196(3) 1.1945(3) -0.2567(6)
H7O H 0.3925 0.7215 0.2354
H7F H 0.3925 0.7215 -0.2354
H7I H 0.2215 0.8925 -0.2354
H7B H 0.1075 1.2215 0.2354
H7M H 0.2785 1.3925 0.2354
H7D H 0.2785 1.3925 -0.2354
H7K H 0.1075 1.2215 -0.2354
C18O C 0.3269(4) 0.5764(4) 0.3546(8)
C18F C 0.3269(4) 0.5764(4) -0.3546(8)
C18I C 0.0764(4) 0.8269(4) -0.3546(8)
C18B C 0.1731(4) 1.0764(4) 0.3546(8)
C18M C 0.4236(4) 1.3269(4) 0.3546(8)
C18D C 0.4236(4) 1.3269(4) -0.3546(8)
C18K C 0.1731(4) 1.0764(4) -0.3546(8)
C19O C 0.3171(3) 0.7030(3) 0.1570(6)
C19F C 0.3171(3) 0.7030(3) -0.1570(6)
C19I C 0.2030(3) 0.8171(3) -0.1570(6)
C19B C 0.1829(3) 1.2030(3) 0.1570(6)
C19M C 0.2970(3) 1.3171(3) 0.1570(6)
C19D C 0.2970(3) 1.3171(3) -0.1570(6)
C19K C 0.1829(3) 1.2030(3) -0.1570(6)
C20O C 0.2888(3) 0.7362(3) 0.1816(6)
C20F C 0.2888(3) 0.7362(3) -0.1816(6)
C20I C 0.2362(3) 0.7888(3) -0.1816(6)
C20B C 0.2112(3) 1.2362(3) 0.1816(6)
C20M C 0.2638(3) 1.2888(3) 0.1816(6)
C20D C 0.2638(3) 1.2888(3) -0.1816(6)
C20K C 0.2112(3) 1.2362(3) -0.1816(6)
C21O C 0.2795(3) 0.7470(3) 0.2688(7)
C21F C 0.2795(3) 0.7470(3) -0.2688(7)
C21I C 0.2470(3) 0.7795(3) -0.2688(7)
C21B C 0.2205(3) 1.2470(3) 0.2688(7)
C21M C 0.2530(3) 1.2795(3) 0.2688(7)
C21D C 0.2530(3) 1.2795(3) -0.2688(7)
C21K C 0.2205(3) 1.2470(3) -0.2688(7)
H8F H 0.2930 0.7343 -0.3183
H8I H 0.2343 0.7930 -0.3183
H8O H 0.2930 0.7343 0.3183
H8B H 0.2070 1.2343 0.3183
H8D H 0.2657 1.2930 -0.3183
H8K H 0.2070 1.2343 -0.3183
H8M H 0.2657 1.2930 0.3183
C22O C 0.3250(3) 0.6932(3) 0.0723(6)
C22F C 0.3250(3) 0.6932(3) -0.0723(6)
C22I C 0.1932(3) 0.8250(3) -0.0723(6)
C22B C 0.1750(3) 1.1932(3) 0.0723(6)
C22M C 0.3068(3) 1.3250(3) 0.0723(6)
C22D C 0.3068(3) 1.3250(3) -0.0723(6)
C22K C 0.1750(3) 1.1932(3) -0.0723(6)
C23O C 0.3564(4) 0.6613(4) 0.0443(5)
C23F C 0.3564(4) 0.6613(4) -0.0443(5)
C23I C 0.1613(4) 0.8564(4) -0.0443(5)
C23B C 0.1436(4) 1.1613(4) 0.0443(5)
C23M C 0.3387(4) 1.3564(4) 0.0443(5)
C23D C 0.3387(4) 1.3564(4) -0.0443(5)
C23K C 0.1436(4) 1.1613(4) -0.0443(5)
H9O H 0.3742 0.6431 0.0804
H9I H 0.1431 0.8742 -0.0804
H9F H 0.3742 0.6431 -0.0804
H9B H 0.1258 1.1431 0.0804
H9M H 0.3569 1.3742 0.0804
H9K H 0.1258 1.1431 -0.0804
H9D H 0.3569 1.3742 -0.0804
O1N O 0.4721(4) 1.1977(4) 0.3329(8)
O1O O 0.5279(4) 0.8023(4) 0.3329(8)
O1A O 0.6977(4) 0.9721(4) 0.3329(8)
O1H O 0.6977(4) 0.9721(4) -0.3329(8)
O1F O 0.5279(4) 0.8023(4) -0.3329(8)
O1I O 0.3023(4) 1.0279(4) -0.3329(8)
O1G O 0.4721(4) 1.1977(4) -0.3329(8)
O2N O 0.4176(5) 1.2073(5) 0.4117(10)
O2O O 0.5824(5) 0.7927(5) 0.4117(10)
O2A O 0.7073(5) 0.9176(5) 0.4117(10)
O2H O 0.7073(5) 0.9176(5) -0.4117(10)
O2F O 0.5824(5) 0.7927(5) -0.4117(10)
O2I O 0.2927(5) 1.0824(5) -0.4117(10)
O2G O 0.4176(5) 1.2073(5) -0.4117(10)
O3G O 0.4793(5) 1.2706(5) 0.5000
O3F O 0.5207(5) 0.7294(5) 0.5000
O3A O 0.7706(5) 0.9793(5) 0.5000
O3A_2 O 0.7706(5) 0.9793(5) -0.5000
O3F_2 O 0.5207(5) 0.7294(5) -0.5000
O3_2 O 0.2294(5) 1.0207(5) -0.5000
O3G_2 O 0.4793(5) 1.2706(5) -0.5000
O4O O 0.4614(3) 0.7259(3) 0.3357(6)
O4F O 0.4614(3) 0.7259(3) -0.3357(6)
O4I O 0.2259(3) 0.9614(3) -0.3357(6)
O4B O 0.0386(3) 1.2259(3) 0.3357(6)
O4M O 0.2741(3) 1.4614(3) 0.3357(6)
O4D O 0.2741(3) 1.4614(3) -0.3357(6)
O4K O 0.0386(3) 1.2259(3) -0.3357(6)
O4N O 0.5386(3) 1.2741(3) 0.3357(6)
O4A O 0.7741(3) 1.0386(3) 0.3357(6)
O4H O 0.7741(3) 1.0386(3) -0.3357(6)
O4G O 0.5386(3) 1.2741(3) -0.3357(6)
O5G O 0.4985(3) 1.4107(3) 0.5000
O5F O 0.5015(3) 0.5893(3) 0.5000
O5A O 0.9107(3) 0.9985(3) 0.5000
O6O O 0.4650(3) 0.6624(3) 0.4045(6)
O6F O 0.4650(3) 0.6624(3) -0.4045(6)
O6I O 0.1624(3) 0.9650(3) -0.4045(6)
O6B O 0.0350(3) 1.1624(3) 0.4045(6)
O6M O 0.3376(3) 1.4650(3) 0.4045(6)
O6D O 0.3376(3) 1.4650(3) -0.4045(6)
O6K O 0.0350(3) 1.1624(3) -0.4045(6)
O6I_2 O 0.1624(3) 0.9650(3) 0.5955(6)
O6N O 0.5350(3) 1.3376(3) 0.4045(6)
O6G O 0.5350(3) 1.3376(3) 0.5955(6)
O6F_2 O 0.4650(3) 0.6624(3) 0.5955(6)
O6A O 0.8376(3) 1.0350(3) 0.4045(6)
O6H O 0.8376(3) 1.0350(3) 0.5955(6)
O7O O 0.3485(3) 0.5583(4) 0.4102(7)
O7F O 0.3485(3) 0.5583(4) -0.4102(7)
O7I O 0.0583(4) 0.8485(3) -0.4102(7)
O7B O 0.1515(3) 1.0583(4) 0.4102(7)
O7M O 0.4417(4) 1.3485(3) 0.4102(7)
O7D O 0.4417(4) 1.3485(3) -0.4102(7)
O7K O 0.1515(3) 1.0583(4) -0.4102(7)
O7K_2 O 0.1515(3) 1.0583(4) 0.5898(7)
O7D_2 O 0.4417(4) 1.3485(3) 0.5898(7)
O7L O 0.5583(4) 0.6515(3) 0.4102(7)
O7E O 0.5583(4) 0.6515(3) 0.5898(7)
O7C O 0.8485(3) 0.9417(4) 0.4102(7)
O7J O 0.8485(3) 0.9417(4) 0.5898(7)
O8O O 0.2905(4) 0.5635(3) 0.3288(7)
O8F O 0.2905(4) 0.5635(3) -0.3288(7)
O8I O 0.0635(3) 0.7905(4) -0.3288(7)
O8B O 0.2095(4) 1.0635(3) 0.3288(7)
O8M O 0.4365(3) 1.2905(4) 0.3288(7)
O8D O 0.4365(3) 1.2905(4) -0.3288(7)
O8K O 0.2095(4) 1.0635(3) -0.3288(7)
O8L O 0.5635(3) 0.7095(4) 0.3288(7)
O8C O 0.7905(4) 0.9365(3) 0.3288(7)
O8J O 0.7905(4) 0.9365(3) -0.3288(7)
O8E O 0.5635(3) 0.7095(4) -0.3288(7)
N1F N 0.5000 1.0000 -0.1231(18)
N2A N 0.5448(4) 0.9552(4) 0.0000
N3F N 0.2610(3) 0.7610(3) -0.1259(7)
N3B N 0.2390(3) 1.2610(3) 0.1259(7)
N3D N 0.2390(3) 1.2610(3) -0.1259(7)
N4F N 0.3064(3) 0.7125(3) 0.0000
N4B N 0.1936(3) 1.2125(3) 0.0000
N4D N 0.2875(3) 1.3064(3) 0.0000
loop_
_geom_bond_atom_site_label_1
_geom_bond_atom_site_label_2
_geom_bond_site_symmetry_1
_geom_bond_site_symmetry_2
Co1 N1 1_555 1_555
Co2 O1 1_555 1_555
Co3 O3 1_555 1_555
Co4 N3 1_555 1_555
C1 H1 1_555 1_555
C2 C1 1_555 1_555
C3 C2 1_555 1_555
C4 C3 1_555 1_555
C5 C4 1_555 1_555
H2 C5 1_555 1_555
C6 C3 1_555 1_555
C7 C6 1_555 1_555
H3 C7 1_555 1_555
C8 C7 1_555 1_555
C9 C8 1_555 1_555
H4 C9 1_555 1_555
C10 C8 1_555 1_555
C11 C12 1_555 1_555
C12 C13 1_555 1_555
C13 H5 1_555 1_555
C14 C13 1_555 1_555
C15 C14 1_555 1_555
H6 C15 1_555 1_555
C16 C15 1_555 1_555
C17 C12 1_555 1_555
H7 C17 1_555 1_555
C18 C14 1_555 1_555
C19 C16 1_555 1_555
C20 C19 1_555 1_555
C21 C20 1_555 1_555
H8 C21 1_555 1_555
C22 C19 1_555 1_555
C23 C22 1_555 1_555
H9 C23 1_555 1_555
O1 C10 1_555 1_555
O2 C10 1_555 1_555
O3 Co2 1_555 1_555
O4 Co2 1_555 1_555
O5 Co3 1_555 1_555
O6 Co3 1_555 1_555
O7 C18 1_555 1_555
O8 C18 1_555 1_555
N1 C4 1_555 1_555
N2 Co1 1_555 1_555
N3 C20 1_555 1_555
N4 Co4 1_555 1_555
Co2N O1N 1_555 1_555
Co2O O1O 1_555 1_555
Co2A O1A 1_555 1_555
Co2H O1H 1_555 1_555
Co2F O1F 1_555 1_555
Co2I O1I 1_555 1_555
Co2G O1G 1_555 1_555
Co2I_2 O3 1_555 1_555
Co2C O8 1_555 1_555
Co2M O8O 1_555 1_555
Co2D O8F 1_555 1_555
Co2J O8I 1_555 1_555
Co2B O4B 1_555 1_555
Co2M_2 O4M 1_555 1_555
Co2D_2 O4D 1_555 1_555
Co2K O4K 1_555 1_555
Co2G_2 O3G 1_555 1_555
Co2F_2 O3F 1_555 1_555
Co2H_2 O3A 1_555 1_555
Co3G O3G 1_555 1_555
Co3F O3F 1_555 1_555
Co3A O3A 1_555 1_555
Co3C O7 1_555 1_555
Co3D O7O 1_555 1_555
Co3F_2 O3F_2 1_555 1_555
Co3D_2 O7F 1_555 1_555
Co3_2 O3_2 1_555 1_555
Co3C_2 O7I 1_555 1_555
Co3B O6B 1_555 1_555
Co3D_3 O6M 1_555 1_555
Co3D_4 O6D 1_555 1_555
Co3G_2 O3G_2 1_555 1_555
Co3B_2 O6K 1_555 1_555
Co4B N3B 1_555 1_555
C1G C1 1_555 1_555
C1F C1A 1_555 1_555
C1A H1A 1_555 1_555
H1G C1G 1_555 1_555
H1F C1F 1_555 1_555
C2G N2 1_555 1_555
C2F C1F 1_555 1_555
C2A C1A 1_555 1_555
C3G C2G 1_555 1_555
C3F C2F 1_555 1_555
C3A C2A 1_555 1_555
C4G C3G 1_555 1_555
C4F C3F 1_555 1_555
C4A N1 1_555 1_555
C5G C4G 1_555 1_555
C5F C4F 1_555 1_555
C5A C5 1_555 1_555
H2G C5G 1_555 1_555
H2A C5A 1_555 1_555
H2F C5F 1_555 1_555
C6A C3A 1_555 1_555
C6F C3F 1_555 1_555
C6G C3G 1_555 1_555
C7N C6 1_555 1_555
C7A C6A 1_555 1_555
C7O C6A 1_555 1_555
C7F C6F 1_555 1_555
C7H C6F 1_555 1_555
C7G C6G 1_555 1_555
C7I C6G 1_555 1_555
H3N C7N 1_555 1_555
H3A C7A 1_555 1_555
H3O C7O 1_555 1_555
H3F C7F 1_555 1_555
H3H C7H 1_555 1_555
H3G C7G 1_555 1_555
H3I C7I 1_555 1_555
C8N C9 1_555 1_555
C8A C7A 1_555 1_555
C8O C7O 1_555 1_555
C8F C7F 1_555 1_555
C8H C7H 1_555 1_555
C8G C7G 1_555 1_555
C8I C7I 1_555 1_555
C9A C8A 1_555 1_555
C9F C8F 1_555 1_555
C9G C8G 1_555 1_555
H4A C9A 1_555 1_555
H4F C9F 1_555 1_555
H4G C9G 1_555 1_555
C10N C8N 1_555 1_555
C10O C8O 1_555 1_555
C10A C8A 1_555 1_555
C10H C8H 1_555 1_555
C10F C8F 1_555 1_555
C10I C8I 1_555 1_555
C10G C8G 1_555 1_555
C11O C12O 1_555 1_555
C11F C12F 1_555 1_555
C11I C12I 1_555 1_555
C11B C12B 1_555 1_555
C11M C12M 1_555 1_555
C11D C12D 1_555 1_555
C11K C12K 1_555 1_555
C12O C13O 1_555 1_555
C12F C13F 1_555 1_555
C12I C13I 1_555 1_555
C12B C13B 1_555 1_555
C12M C13M 1_555 1_555
C12D C13D 1_555 1_555
C12K C13K 1_555 1_555
C13O H5O 1_555 1_555
C13F H5F 1_555 1_555
C13I H5I 1_555 1_555
C13B H5B 1_555 1_555
C13M H5M 1_555 1_555
C13D H5D 1_555 1_555
C13K H5K 1_555 1_555
C14O C13O 1_555 1_555
C14F C13F 1_555 1_555
C14I C13I 1_555 1_555
C14B C13B 1_555 1_555
C14M C13M 1_555 1_555
C14D C13D 1_555 1_555
C14K C13K 1_555 1_555
C15O C14O 1_555 1_555
C15F C14F 1_555 1_555
C15I C14I 1_555 1_555
C15B C14B 1_555 1_555
C15M C14M 1_555 1_555
C15D C14D 1_555 1_555
C15K C14K 1_555 1_555
H6O C15O 1_555 1_555
H6F C15F 1_555 1_555
H6I C15I 1_555 1_555
H6B C15B 1_555 1_555
H6M C15M 1_555 1_555
H6D C15D 1_555 1_555
H6K C15K 1_555 1_555
C16O C15O 1_555 1_555
C16F C15F 1_555 1_555
C16I C15I 1_555 1_555
C16B C15B 1_555 1_555
C16M C15M 1_555 1_555
C16D C15D 1_555 1_555
C16K C15K 1_555 1_555
C17O C12O 1_555 1_555
C17F C12F 1_555 1_555
C17I C12I 1_555 1_555
C17B C12B 1_555 1_555
C17M C12M 1_555 1_555
C17D C12D 1_555 1_555
C17K C12K 1_555 1_555
H7O C17O 1_555 1_555
H7F C17F 1_555 1_555
H7I C17I 1_555 1_555
H7B C17B 1_555 1_555
H7M C17M 1_555 1_555
H7D C17D 1_555 1_555
H7K C17K 1_555 1_555
C18O C14O 1_555 1_555
C18F C14F 1_555 1_555
C18I C14I 1_555 1_555
C18B C14B 1_555 1_555
C18M C14M 1_555 1_555
C18D C14D 1_555 1_555
C18K C14K 1_555 1_555
C19O C16O 1_555 1_555
C19F C16F 1_555 1_555
C19I C16I 1_555 1_555
C19B C16B 1_555 1_555
C19M C16M 1_555 1_555
C19D C16D 1_555 1_555
C19K C16K 1_555 1_555
C20O N3 1_555 1_555
C20F C19F 1_555 1_555
C20I C19I 1_555 1_555
C20B C19B 1_555 1_555
C20M C19M 1_555 1_555
C20D C19D 1_555 1_555
C20K C19K 1_555 1_555
C21O C21 1_555 1_555
C21F C20F 1_555 1_555
C21I C20I 1_555 1_555
C21B C20B 1_555 1_555
C21M C20M 1_555 1_555
C21D C20D 1_555 1_555
C21K C20K 1_555 1_555
H8F C21F 1_555 1_555
H8I C21I 1_555 1_555
H8O C21O 1_555 1_555
H8B C21B 1_555 1_555
H8D C21D 1_555 1_555
H8K C21K 1_555 1_555
H8M C21M 1_555 1_555
C22O C19O 1_555 1_555
C22F C19F 1_555 1_555
C22I N4 1_555 1_555
C22B C19B 1_555 1_555
C22M C19M 1_555 1_555
C22D C19D 1_555 1_555
C22K C19K 1_555 1_555
C23O C22O 1_555 1_555
C23F C22F 1_555 1_555
C23I C23 1_555 1_555
C23B C22B 1_555 1_555
C23M C22M 1_555 1_555
C23D C22D 1_555 1_555
C23K C22K 1_555 1_555
H9O C23O 1_555 1_555
H9I C23I 1_555 1_555
H9F C23F 1_555 1_555
H9B C23B 1_555 1_555
H9M C23M 1_555 1_555
H9K C23K 1_555 1_555
H9D C23D 1_555 1_555
O1N C10N 1_555 1_555
O1O C10O 1_555 1_555
O1A C10A 1_555 1_555
O1H C10H 1_555 1_555
O1F C10F 1_555 1_555
O1I C10I 1_555 1_555
O1G C10G 1_555 1_555
O2N C10N 1_555 1_555
O2O C10O 1_555 1_555
O2A C10A 1_555 1_555
O2H C10H 1_555 1_555
O2F C10F 1_555 1_555
O2I C10I 1_555 1_555
O2G C10G 1_555 1_555
O3G Co2N 1_555 1_555
O3F Co2O 1_555 1_555
O3A Co2A 1_555 1_555
O3A_2 Co2H 1_555 1_555
O3F_2 Co2F 1_555 1_555
O3_2 Co2I 1_555 1_555
O3G_2 Co2G 1_555 1_555
O4O Co2O 1_555 1_555
O4F Co2F 1_555 1_555
O4I Co2I 1_555 1_555
O4B C11B 1_555 1_555
O4M C11M 1_555 1_555
O4D C11D 1_555 1_555
O4K C11K 1_555 1_555
O4N Co2N 1_555 1_555
O4A Co2A 1_555 1_555
O4H Co2H 1_555 1_555
O4G Co2G 1_555 1_555
O5G Co3G 1_555 1_555
O5F Co3F 1_555 1_555
O5A Co3A 1_555 1_555
O6O Co3F 1_555 1_555
O6F Co3F_2 1_555 1_555
O6I Co3_2 1_555 1_555
O6B C11B 1_555 1_555
O6M C11M 1_555 1_555
O6D C11D 1_555 1_555
O6K C11K 1_555 1_555
O6I_2 Co3 1_555 1_555
O6N Co3G 1_555 1_555
O6G Co3G 1_555 1_555
O6F_2 Co3F 1_555 1_555
O6A Co3A 1_555 1_555
O6H Co3A 1_555 1_555
O7O C18O 1_555 1_555
O7F C18F 1_555 1_555
O7I C18I 1_555 1_555
O7B Co3 1_555 1_555
O7M Co3G 1_555 1_555
O7D Co3G_2 1_555 1_555
O7K Co3_2 1_555 1_555
O7K_2 Co3 1_555 1_555
O7D_2 Co3G 1_555 1_555
O7L Co3F 1_555 1_555
O7E Co3F 1_555 1_555
O7C Co3A 1_555 1_555
O7J Co3A 1_555 1_555
O8O C18O 1_555 1_555
O8F C18F 1_555 1_555
O8I C18I 1_555 1_555
O8B Co2 1_555 1_555
O8M Co2N 1_555 1_555
O8D Co2G 1_555 1_555
O8K Co2I 1_555 1_555
O8L Co2O 1_555 1_555
O8C Co2A 1_555 1_555
O8J Co2H 1_555 1_555
O8E Co2F 1_555 1_555
N1F Co1 1_555 1_555
N2A Co1 1_555 1_555
N3F Co4 1_555 1_555
N3B C20B 1_555 1_555
N3D Co4B 1_555 1_555
N4F Co4 1_555 1_555
N4B Co4B 1_555 1_555
N4D Co4B 1_555 1_555
C2 N2 1_555 1_555
C11 O4 1_555 1_555
C11 O6 1_555 1_555
C16 C17 1_555 1_555
C22 N4 1_555 1_555
C1G C2G 1_555 1_555
C2F N2A 1_555 1_555
C2A N2A 1_555 1_555
C3A C4A 1_555 1_555
C4G N1F 1_555 1_555
C4F N1F 1_555 1_555
C4A C5A 1_555 1_555
C5G C5F 1_555 1_555
C7N C8N 1_555 1_555
C8O C9A 1_555 1_555
C8H C9F 1_555 1_555
C8I C9G 1_555 1_555
C11O O4O 1_555 1_555
C11O O6O 1_555 1_555
C11F O4F 1_555 1_555
C11F O6F 1_555 1_555
C11I O4I 1_555 1_555
C11I O6I 1_555 1_555
C16O C17O 1_555 1_555
C16F C17F 1_555 1_555
C16I C17I 1_555 1_555
C16B C17B 1_555 1_555
C16M C17M 1_555 1_555
C16D C17D 1_555 1_555
C16K C17K 1_555 1_555
C18B O7B 1_555 1_555
C18B O8B 1_555 1_555
C18M O7M 1_555 1_555
C18M O8M 1_555 1_555
C18D O7D 1_555 1_555
C18D O8D 1_555 1_555
C18K O7K 1_555 1_555
C18K O8K 1_555 1_555
C19O C20O 1_555 1_555
C19I C22I 1_555 1_555
C20O C21O 1_555 1_555
C20F N3F 1_555 1_555
C20I N3F 1_555 1_555
C20M N3B 1_555 1_555
C20D N3D 1_555 1_555
C20K N3D 1_555 1_555
C21F C21I 1_555 1_555
C21B C21M 1_555 1_555
C21D C21K 1_555 1_555
C22O N4F 1_555 1_555
C22F N4F 1_555 1_555
C22I C23I 1_555 1_555
C22B N4B 1_555 1_555
C22M N4D 1_555 1_555
C22D N4D 1_555 1_555
C22K N4B 1_555 1_555
C23O C23F 1_555 1_555
C23B C23K 1_555 1_555
C23M C23D 1_555 1_555

#END
