
#######################################################################
#
#                 Cambridge Crystallographic Data Centre
#                                CCDC 
#
#######################################################################
#
# If this CIF has been generated from an entry in the Cambridge 
# Structural Database, then it will include bibliographic, chemical, 
# crystal, experimental, refinement or atomic coordinate data resulting 
# from the CCDC's data processing and validation procedures.
#
#######################################################################

data_ENCDBZ
_chemical_formula_moiety         'C12 Cd2 N8'
_symmetry_cell_setting           tetragonal
_symmetry_space_group_name_H-M   'P 42/m m c'
_symmetry_Int_Tables_number      131
_space_group_name_Hall           '-P 4c 2'
loop_
_symmetry_equiv_pos_site_id
_symmetry_equiv_pos_as_xyz
1 x,y,z
2 -y,x,1/2+z
3 x,-y,-z
4 -x,-y,z
5 y,x,1/2-z
6 y,-x,1/2+z
7 -x,y,-z
8 -y,-x,1/2-z
9 -x,-y,-z
10 y,-x,1/2-z
11 -x,y,z
12 x,y,-z
13 -y,-x,1/2+z
14 -y,x,1/2-z
15 x,-y,z
16 y,x,1/2+z
_cell_length_a                   8.262(6)
_cell_length_b                   8.262(6)
_cell_length_c                   15.495(2)
_cell_angle_alpha                90
_cell_angle_beta                 90
_cell_angle_gamma                90
_cell_volume                     1057.7
loop_
_atom_site_label
_atom_site_type_symbol
_atom_site_fract_x
_atom_site_fract_y
_atom_site_fract_z
Cd1 Cd 0.500 0.500 0.250
Cd2 Cd 0.500 0.000 0.000
C1 C 0.500 0.281(5) 0.161
N1 N 0.500 0.196(6) 0.109(2)
C2 C 0.101(12) 0.032(28) 0.000
N2 N 0.215(16) 0.059(10) 0.000
C1C C 0.500 0.719(5) 0.161
C1D C 0.281(5) 0.500 0.339
C1G C 0.719(5) 0.500 0.339
N1B N 0.500 -0.196(6) -0.109(2)
N1C N 0.500 -0.196(6) 0.109(2)
N1F N 0.500 0.196(6) -0.109(2)
N2B N 0.215(16) -0.059(10) 0.000
N2C N 0.785(16) -0.059(10) 0.000
N2F N 0.785(16) 0.059(10) 0.000
C2B C 0.101(12) -0.032(28) 0.000
C2C C -0.101(12) -0.032(28) 0.000
C2F C -0.101(12) 0.032(28) 0.000
C3 C 0.171(12) 0.500 0.000
C4 C 0.090(8) 0.500 0.088(7)
C4B C 0.090(8) 0.500 -0.088(7)
C4C C -0.090(8) 0.500 0.088(7)
loop_
_geom_bond_atom_site_label_1
_geom_bond_atom_site_label_2
_geom_bond_site_symmetry_1
_geom_bond_site_symmetry_2
Cd1 C1 1_555 1_555
Cd2 N1 1_555 1_555
C1 N1 1_555 1_555
C2 N2 1_555 1_555
N2 Cd2 1_555 1_555
C3 C4 1_555 1_555
C4 C4C 1_555 1_555
C1C Cd1 1_555 1_555
C1D Cd1 1_555 1_555
C1G Cd1 1_555 1_555
N1B Cd2 1_555 1_555
N1C Cd2 1_555 1_555
N1F Cd2 1_555 1_555
N2B Cd2 1_555 1_555
N2C Cd2 1_555 1_555
N2F Cd2 1_555 1_555
C2B C2 1_555 1_555
C2C C2 1_555 1_555
C2F C2 1_555 1_555
C4B C3 1_555 1_555
C2 N2B 1_555 1_555
N2 N2B 1_555 1_555
N2 C2B 1_555 1_555
N2B C2B 1_555 1_555
N2C N2F 1_555 1_555
C2B C2C 1_555 1_555
C2B C2F 1_555 1_555
C2C C2F 1_555 1_555

#END
