
#######################################################################
#
#                 Cambridge Crystallographic Data Centre
#                                CCDC 
#
#######################################################################
#
# If this CIF has been generated from an entry in the Cambridge 
# Structural Database, then it will include bibliographic, chemical, 
# crystal, experimental, refinement or atomic coordinate data resulting 
# from the CCDC's data processing and validation procedures.
#
#######################################################################

data_OKAYOQ
_chemical_formula_moiety         '(C38 H24 Ca1 O8)n'
_symmetry_cell_setting           triclinic
_symmetry_space_group_name_H-M   'P -1'
_symmetry_Int_Tables_number      2
_space_group_name_Hall           '-P 1'
loop_
_symmetry_equiv_pos_site_id
_symmetry_equiv_pos_as_xyz
1 x,y,z
2 -x,-y,-z
_cell_length_a                   5.1634(2)
_cell_length_b                   10.5518(5)
_cell_length_c                   15.4849(7)
_cell_angle_alpha                82.725(4)
_cell_angle_beta                 87.233(4)
_cell_angle_gamma                83.782(4)
_cell_volume                     831.44
loop_
_atom_site_label
_atom_site_type_symbol
_atom_site_fract_x
_atom_site_fract_y
_atom_site_fract_z
C1 C 0.4415(14) 0.9802(6) 0.5303(5)
H1 H 0.3450 0.9474 0.5805
C1A C 0.5585(14) 1.0198(6) 0.4697(5)
H1A H 0.6550 1.0526 0.4195
C2 C -0.0184(3) 0.63204(18) 0.48961(12)
H2 H -0.0320 0.7232 0.4825
C3 C 0.0790(3) 0.56551(17) 0.56708(12)
C4 C 0.0964(3) 0.42991(18) 0.57756(11)
C5 C 0.1632(3) 0.63861(17) 0.63556(11)
C6 C 0.3936(4) 0.59906(18) 0.67911(12)
H3 H 0.5079 0.5296 0.6613
C7 C 0.4577(4) 0.65997(19) 0.74811(12)
H4 H 0.6145 0.6316 0.7776
C8 C 0.2931(4) 0.76268(18) 0.77439(12)
C9 C 0.0057(4) 0.74619(18) 0.65917(12)
H5 H -0.1459 0.7776 0.6275
C10 C 0.3462(4) 0.82156(18) 0.85355(12)
C11 C 0.1829(3) 0.35172(17) 0.66021(12)
C12 C 0.4074(4) 0.26414(18) 0.66115(12)
H6 H 0.4985 0.2489 0.6081
C13 C 0.4970(4) 0.19948(18) 0.73972(12)
H7 H 0.6532 0.1429 0.7402
C14 C 0.3602(3) 0.21695(17) 0.81746(11)
C15 C 0.1293(3) 0.29847(18) 0.81602(12)
H8 H 0.0298 0.3077 0.8685
C16 C 0.0442(3) 0.36617(18) 0.73819(12)
H9 H -0.1112 0.4233 0.7381
C17 C 0.4648(3) 0.15454(17) 0.90300(11)
O1 O 0.6989(2) 0.11281(13) 0.90574(9)
O2 O 0.3052(2) 0.15016(12) 0.96937(8)
O3 O 0.1872(3) 0.90057(13) 0.88373(9)
O4 O 0.5719(3) 0.78049(14) 0.88679(9)
H10 H 0.5898 0.8170 0.9310
Ca1 Ca -0.0000 -0.0000 1.0000
C18 C 0.0691(4) 0.80746(18) 0.72851(12)
H11 H -0.0402 0.8797 0.7446
C2A C 0.0184(3) 0.36796(18) 0.51039(12)
H2A H 0.0320 0.2768 0.5175
C3A C -0.0790(3) 0.43449(17) 0.43292(12)
C4A C -0.0964(3) 0.57009(18) 0.42244(11)
C5A C -0.1632(3) 0.36139(17) 0.36444(11)
C6A C -0.3936(4) 0.40094(18) 0.32089(12)
H3A H -0.5079 0.4704 0.3387
C7A C -0.4577(4) 0.34003(19) 0.25189(12)
H4A H -0.6145 0.3684 0.2224
C8A C -0.2931(4) 0.23732(18) 0.22561(12)
C9A C -0.0057(4) 0.25381(18) 0.34083(12)
H5A H 0.1459 0.2224 0.3725
C10A C -0.3462(4) 0.17844(18) 0.14645(12)
C11A C -0.1829(3) 0.64828(17) 0.33979(12)
C12A C -0.4074(4) 0.73586(18) 0.33885(12)
H6A H -0.4985 0.7511 0.3919
C13A C -0.4970(4) 0.80052(18) 0.26028(12)
H7A H -0.6532 0.8571 0.2598
C14A C -0.3602(3) 0.78305(17) 0.18254(11)
C15A C -0.1293(3) 0.70153(18) 0.18398(12)
H8A H -0.0298 0.6923 0.1315
C16A C -0.0442(3) 0.63383(18) 0.26181(12)
H9A H 0.1112 0.5767 0.2619
C17A C -0.4648(3) 0.84546(17) 0.09700(11)
O1A O -0.6989(2) 0.88719(13) 0.09426(9)
O2A O -0.3052(2) 0.84984(12) 0.03063(8)
O3A O -0.1872(3) 0.09943(13) 0.11627(9)
O4A O -0.5719(3) 0.21951(14) 0.11321(9)
H10A H -0.5898 0.1830 0.0690
C18A C -0.0691(4) 0.19254(18) 0.27149(12)
H11A H 0.0402 0.1203 0.2554
O1_2 O -0.3011(2) 0.11281(13) 0.90574(9)
O1A_2 O 0.3011(2) -0.11281(13) 1.09426(9)
O2A_2 O -0.3052(2) -0.15016(12) 1.03063(8)
O3_2 O 0.1872(3) -0.09943(13) 0.88373(9)
O3A_2 O -0.1872(3) 0.09943(13) 1.11627(9)
Ca1_2 Ca -1.0000 1.0000 0.0000
Ca1_3 Ca 0.0000 0.0000 0.0000
Ca1_4 Ca -0.0000 1.0000 0.0000
Ca1_5 Ca -0.0000 1.0000 1.0000
Ca1_6 Ca 1.0000 -0.0000 1.0000
C19 C 0.882(3) 0.4805(18) 1.0180(11)
H12 H 0.7219 0.4539 1.0425
C19A C 1.118(3) 0.5195(18) 0.9820(11)
H12A H 1.2781 0.5461 0.9575
loop_
_geom_bond_atom_site_label_1
_geom_bond_atom_site_label_2
_geom_bond_site_symmetry_1
_geom_bond_site_symmetry_2
C1 H1 1_555 1_555
C2 H2 1_555 1_555
C3 C2 1_555 1_555
C4 C3 1_555 1_555
C5 C3 1_555 1_555
C6 C5 1_555 1_555
H3 C6 1_555 1_555
C7 C6 1_555 1_555
H4 C7 1_555 1_555
C8 C7 1_555 1_555
C9 C5 1_555 1_555
H5 C9 1_555 1_555
C10 C8 1_555 1_555
C11 C4 1_555 1_555
C12 C11 1_555 1_555
H6 C12 1_555 1_555
C13 C12 1_555 1_555
H7 C13 1_555 1_555
C14 C13 1_555 1_555
C15 C14 1_555 1_555
H8 C15 1_555 1_555
C16 C11 1_555 1_555
H9 C16 1_555 1_555
C17 C14 1_555 1_555
O1 C17 1_555 1_555
O2 C17 1_555 1_555
O3 C10 1_555 1_555
O4 C10 1_555 1_555
H10 O4 1_555 1_555
Ca1 O2 1_555 1_555
C18 C8 1_555 1_555
H11 C18 1_555 1_555
C19 H12 1_555 1_555
C1A C1 1_555 1_555
H1A C1A 1_555 1_555
C2A C4 1_555 1_555
H2A C2A 1_555 1_555
C3A C2A 1_555 1_555
C4A C2 1_555 1_555
C5A C3A 1_555 1_555
C6A C5A 1_555 1_555
H3A C6A 1_555 1_555
C7A C6A 1_555 1_555
H4A C7A 1_555 1_555
C8A C7A 1_555 1_555
C9A C5A 1_555 1_555
H5A C9A 1_555 1_555
C10A C8A 1_555 1_555
C11A C4A 1_555 1_555
C12A C11A 1_555 1_555
H6A C12A 1_555 1_555
C13A C12A 1_555 1_555
H7A C13A 1_555 1_555
C14A C13A 1_555 1_555
C15A C14A 1_555 1_555
H8A C15A 1_555 1_555
C16A C11A 1_555 1_555
H9A C16A 1_555 1_555
C17A C14A 1_555 1_555
O1A C17A 1_555 1_555
O2A C17A 1_555 1_555
O3A C10A 1_555 1_555
O4A C10A 1_555 1_555
H10A O4A 1_555 1_555
C18A C8A 1_555 1_555
H11A C18A 1_555 1_555
O1_2 Ca1 1_555 1_555
O1A_2 Ca1 1_555 1_555
O2A_2 Ca1 1_555 1_555
O3_2 Ca1 1_555 1_555
O3A_2 Ca1 1_555 1_555
Ca1_2 O1A 1_555 1_555
Ca1_3 O3A 1_555 1_555
Ca1_4 O2A 1_555 1_555
Ca1_5 O3 1_555 1_555
Ca1_6 O1 1_555 1_555
C19A C19 1_555 1_555
H12A C19A 1_555 1_555
C9 C18 1_555 1_555
C15 C16 1_555 1_555
C3A C4A 1_555 1_555
C9A C18A 1_555 1_555
C15A C16A 1_555 1_555

#END
