
#######################################################################
#
#                 Cambridge Crystallographic Data Centre
#                                CCDC 
#
#######################################################################
#
# If this CIF has been generated from an entry in the Cambridge 
# Structural Database, then it will include bibliographic, chemical, 
# crystal, experimental, refinement or atomic coordinate data resulting 
# from the CCDC's data processing and validation procedures.
#
#######################################################################

data_OKAYAC
_chemical_formula_moiety         '(C16 H10 Ca1 O6 S1)n'
_symmetry_cell_setting           monoclinic
_symmetry_space_group_name_H-M   'P 21/n'
_symmetry_Int_Tables_number      14
_space_group_name_Hall           '-P 2yn'
loop_
_symmetry_equiv_pos_site_id
_symmetry_equiv_pos_as_xyz
1 x,y,z
2 1/2-x,1/2+y,1/2-z
3 -x,-y,-z
4 1/2+x,1/2-y,1/2+z
_cell_length_a                   11.6583(3)
_cell_length_b                   5.56710(10)
_cell_length_c                   22.9110(6)
_cell_angle_alpha                90
_cell_angle_beta                 100.901(2)
_cell_angle_gamma                90
_cell_volume                     1460.16
loop_
_atom_site_label
_atom_site_type_symbol
_atom_site_fract_x
_atom_site_fract_y
_atom_site_fract_z
O1 O 0.49419(18) 0.1920(4) 0.12907(9)
O2 O 0.41358(19) -0.2220(4) 0.10970(10)
C1 C 0.3514(3) 0.1087(6) 0.02994(13)
C2 C 0.2789(3) 0.1082(6) 0.14135(13)
Ca1 Ca 0.63699(5) 0.24316(10) 0.22135(3)
S1 S 0.39687(6) 0.03423(13) 0.10599(3)
O3 O 0.25974(18) 0.0857(4) -0.19111(9)
O4 O 0.26350(18) 0.4770(4) -0.17232(9)
O5 O -0.01230(18) 0.4760(4) 0.24702(10)
O6 O -0.04127(19) 0.0808(4) 0.25598(10)
C3 C 0.1879(3) 0.3764(5) 0.20007(13)
H1 H 0.1856 0.5260 0.2198
C4 C 0.1898(3) -0.0587(6) 0.13974(14)
H2 H 0.1898 -0.2039 0.1180
C5 C 0.3806(3) 0.3322(6) 0.01003(14)
H3 H 0.4189 0.4490 0.0371
C6 C 0.0997(3) 0.2082(6) 0.20073(13)
C7 C 0.2967(3) 0.2087(6) -0.09002(13)
C8 C 0.2648(3) -0.0115(6) -0.06916(14)
H4 H 0.2253 -0.1274 -0.0961
C9 C 0.2799(3) 0.3266(6) 0.17062(13)
H5 H 0.3412 0.4389 0.1707
C10 C 0.3524(3) 0.3808(6) -0.05061(14)
H6 H 0.3713 0.5327 -0.0652
C11 C 0.2913(3) -0.0611(6) -0.00820(14)
H7 H 0.2684 -0.2091 0.0068
C12 C 0.2734(2) 0.2621(5) -0.15551(13)
C13 C 0.1007(3) -0.0095(6) 0.17055(14)
H8 H 0.0404 -0.1240 0.1711
C14 C 0.0070(3) 0.2589(5) 0.23774(14)
Ca1A Ca -0.13699(5) -0.25684(10) 0.27865(3)
Ca1A_2 Ca -0.13699(5) 0.74316(10) 0.27865(3)
Ca1B Ca 0.36301(5) -0.24316(10) -0.22135(3)
Ca1B_2 Ca 0.36301(5) 0.75684(10) -0.22135(3)
Ca1C Ca 0.13699(5) 0.25684(10) -0.27865(3)
O3B O 0.74026(18) -0.0857(4) 0.19111(9)
O3C O 0.75974(18) 0.4143(4) 0.30889(9)
O4B O 0.73650(18) 0.5230(4) 0.17232(9)
O5A O 0.51230(18) -0.0240(4) 0.25298(10)
O6A O 0.54127(19) 0.5808(4) 0.24402(10)
C16 C 0.029(8) 0.420(13) 0.013(5)
H10 H 0.0751 0.2948 0.0335
C16B C -0.029(8) 0.580(13) -0.013(5)
H10B H -0.0751 0.7052 -0.0335
loop_
_geom_bond_atom_site_label_1
_geom_bond_atom_site_label_2
_geom_bond_site_symmetry_1
_geom_bond_site_symmetry_2
O1 Ca1 1_555 1_555
O2 S1 1_555 1_555
C1 S1 1_555 1_555
C2 S1 1_555 1_555
Ca1 O3B 1_555 1_555
S1 O1 1_555 1_555
O3 C12 1_555 1_555
O4 C12 1_555 1_555
O5 C14 1_555 1_555
O6 C14 1_555 1_555
C3 H1 1_555 1_555
C4 C2 1_555 1_555
H2 C4 1_555 1_555
C5 C1 1_555 1_555
H3 C5 1_555 1_555
C6 C3 1_555 1_555
C7 C8 1_555 1_555
C8 H4 1_555 1_555
C9 C2 1_555 1_555
H5 C9 1_555 1_555
C10 C5 1_555 1_555
H6 C10 1_555 1_555
C11 C1 1_555 1_555
H7 C11 1_555 1_555
C12 C7 1_555 1_555
C13 C4 1_555 1_555
H8 C13 1_555 1_555
C14 C6 1_555 1_555
C16 H10 1_555 1_555
Ca1A O6 1_555 1_555
Ca1A_2 O5 1_555 1_555
Ca1B O3 1_555 1_555
Ca1B_2 O4 1_555 1_555
Ca1C O3 1_555 1_555
O3C Ca1 1_555 1_555
O4B Ca1 1_555 1_555
O5A Ca1 1_555 1_555
O6A Ca1 1_555 1_555
C16B C16 1_555 1_555
H10B C16B 1_555 1_555
C3 C9 1_555 1_555
C6 C13 1_555 1_555
C7 C10 1_555 1_555
C8 C11 1_555 1_555

#END
