
#######################################################################
#
#                 Cambridge Crystallographic Data Centre
#                                CCDC 
#
#######################################################################
#
# If this CIF has been generated from an entry in the Cambridge 
# Structural Database, then it will include bibliographic, chemical, 
# crystal, experimental, refinement or atomic coordinate data resulting 
# from the CCDC's data processing and validation procedures.
#
#######################################################################

data_OKAYUW
_chemical_formula_moiety         '(C38 H28 Ca1 O8)n'
_symmetry_cell_setting           triclinic
_symmetry_space_group_name_H-M   'P -1'
_symmetry_Int_Tables_number      2
_space_group_name_Hall           '-P 1'
loop_
_symmetry_equiv_pos_site_id
_symmetry_equiv_pos_as_xyz
1 x,y,z
2 -x,-y,-z
_cell_length_a                   5.1803(3)
_cell_length_b                   10.6508(5)
_cell_length_c                   15.2914(6)
_cell_angle_alpha                82.591(4)
_cell_angle_beta                 85.945(4)
_cell_angle_gamma                82.739(4)
_cell_volume                     828.669
loop_
_atom_site_label
_atom_site_type_symbol
_atom_site_fract_x
_atom_site_fract_y
_atom_site_fract_z
C1 C -0.0182(5) 0.6306(3) 0.48763(18)
H1 H -0.0324 0.7211 0.4792
C2 C 0.0804(5) 0.5666(3) 0.56562(18)
C3 C 0.0973(6) 0.4323(3) 0.57875(18)
C4 C 0.1855(6) 0.3558(3) 0.66256(18)
C5 C 0.4111(6) 0.2694(3) 0.66305(19)
H2 H 0.5044 0.2542 0.6089
C6 C 0.5001(6) 0.2054(3) 0.74190(19)
H3 H 0.6576 0.1491 0.7418
C7 C 0.3600(6) 0.2232(3) 0.82141(18)
C8 C 0.1280(6) 0.3052(3) 0.82068(19)
H4 H 0.0269 0.3151 0.8742
C9 C 0.0451(6) 0.3719(3) 0.74236(19)
H5 H -0.1103 0.4298 0.7427
C10 C 0.4623(6) 0.1593(3) 0.90697(19)
C11 C 0.1654(6) 0.6409(3) 0.63316(17)
C12 C 0.3950(6) 0.6015(3) 0.67556(19)
H6 H 0.5088 0.5311 0.6578
C13 C 0.4602(6) 0.6636(3) 0.74334(19)
H7 H 0.6164 0.6345 0.7726
C14 C 0.2974(6) 0.7690(3) 0.76906(18)
C15 C 0.0745(6) 0.8131(3) 0.72363(19)
H8 H -0.0339 0.8867 0.7390
C16 C 0.0098(6) 0.7501(3) 0.65609(19)
H9 H -0.1420 0.7814 0.6249
C17 C 0.3529(6) 0.8298(3) 0.84692(19)
O1 O 0.2998(4) 0.14994(18) 0.97457(12)
O2 O 0.6990(4) 0.12052(19) 0.90969(13)
O3 O 0.1938(4) 0.91006(19) 0.87796(13)
O4 O 0.5793(4) 0.7888(2) 0.87851(14)
H10 H 0.5986 0.8266 0.9221
Ca1 Ca -0.0000 0.0000 1.0000
C1A C 0.0182(5) 0.3694(3) 0.51237(18)
H1A H 0.0324 0.2789 0.5208
C2A C -0.0804(5) 0.4334(3) 0.43438(18)
C3A C -0.0973(6) 0.5677(3) 0.42125(18)
C4A C -0.1855(6) 0.6442(3) 0.33744(18)
C5A C -0.4111(6) 0.7306(3) 0.33695(19)
H2A H -0.5044 0.7458 0.3911
C6A C -0.5001(6) 0.7946(3) 0.25810(19)
H3A H -0.6576 0.8509 0.2582
C7A C -0.3600(6) 0.7768(3) 0.17859(18)
C8A C -0.1280(6) 0.6948(3) 0.17932(19)
H4A H -0.0269 0.6849 0.1258
C9A C -0.0451(6) 0.6281(3) 0.25764(19)
H5A H 0.1103 0.5702 0.2573
C10A C -0.4623(6) 0.8407(3) 0.09303(19)
C11A C -0.1654(6) 0.3591(3) 0.36684(17)
C12A C -0.3950(6) 0.3985(3) 0.32444(19)
H6A H -0.5088 0.4689 0.3422
C13A C -0.4602(6) 0.3364(3) 0.25666(19)
H7A H -0.6164 0.3655 0.2274
C14A C -0.2974(6) 0.2310(3) 0.23094(18)
C15A C -0.0745(6) 0.1869(3) 0.27637(19)
H8A H 0.0339 0.1133 0.2610
C16A C -0.0098(6) 0.2499(3) 0.34391(19)
H9A H 0.1420 0.2186 0.3751
C17A C -0.3529(6) 0.1702(3) 0.15308(19)
O1A O -0.2998(4) 0.85006(18) 0.02543(12)
O2A O -0.6990(4) 0.87948(19) 0.09031(13)
O3A O -0.1938(4) 0.08994(19) 0.12204(13)
O4A O -0.5793(4) 0.2112(2) 0.12149(14)
H10A H -0.5986 0.1734 0.0779
O1A_2 O -0.2998(4) -0.14994(18) 1.02543(12)
O2_2 O -0.3010(4) 0.12052(19) 0.90969(13)
O2A_2 O 0.3010(4) -0.12052(19) 1.09031(13)
O3_2 O 0.1938(4) -0.08994(19) 0.87796(13)
O3A_2 O -0.1938(4) 0.08994(19) 1.12204(13)
Ca1_2 Ca -1.0000 1.0000 0.0000
Ca1_3 Ca 0.0000 0.0000 0.0000
Ca1_4 Ca -0.0000 1.0000 0.0000
Ca1_5 Ca -0.0000 1.0000 1.0000
Ca1_6 Ca 1.0000 0.0000 1.0000
C18 C 0.4280(11) 0.9745(5) 0.5311(4)
H11 H 0.392(8) 1.013(5) 0.593(2)
H12 H 0.3305 0.8948 0.5324
C18A C 0.5720(11) 1.0255(5) 0.4689(4)
H11A H 0.608(8) 0.987(5) 0.407(2)
H12A H 0.6695 1.1052 0.4676
C19 C 0.6249(10) 0.5000(8) 1.0065(6)
H13 H 0.7147 0.4367 1.0547
H14 H 0.700(13) 0.575(3) 0.9589
C19A C 0.3751(10) 0.5000(8) 0.9935(6)
H13A H 0.2853 0.5633 0.9453
H14A H 0.300(13) 0.425(3) 1.0411
loop_
_geom_bond_atom_site_label_1
_geom_bond_atom_site_label_2
_geom_bond_site_symmetry_1
_geom_bond_site_symmetry_2
C1 H1 1_555 1_555
C2 C1 1_555 1_555
C3 C2 1_555 1_555
C4 C3 1_555 1_555
C5 C4 1_555 1_555
H2 C5 1_555 1_555
C6 C5 1_555 1_555
H3 C6 1_555 1_555
C7 C6 1_555 1_555
C8 C7 1_555 1_555
H4 C8 1_555 1_555
C9 C4 1_555 1_555
H5 C9 1_555 1_555
C10 C7 1_555 1_555
C11 C2 1_555 1_555
C12 C11 1_555 1_555
H6 C12 1_555 1_555
C13 C12 1_555 1_555
H7 C13 1_555 1_555
C14 C13 1_555 1_555
C15 C14 1_555 1_555
H8 C15 1_555 1_555
C16 C11 1_555 1_555
H9 C16 1_555 1_555
C17 C14 1_555 1_555
O1 C10 1_555 1_555
O2 C10 1_555 1_555
O3 C17 1_555 1_555
O4 C17 1_555 1_555
H10 O4 1_555 1_555
Ca1 O1 1_555 1_555
C18 H11 1_555 1_555
H12 C18 1_555 1_555
C19 H13 1_555 1_555
H14 C19 1_555 1_555
C1A C3 1_555 1_555
H1A C1A 1_555 1_555
C2A C1A 1_555 1_555
C3A C1 1_555 1_555
C4A C3A 1_555 1_555
C5A C4A 1_555 1_555
H2A C5A 1_555 1_555
C6A C5A 1_555 1_555
H3A C6A 1_555 1_555
C7A C6A 1_555 1_555
C8A C7A 1_555 1_555
H4A C8A 1_555 1_555
C9A C4A 1_555 1_555
H5A C9A 1_555 1_555
C10A C7A 1_555 1_555
C11A C2A 1_555 1_555
C12A C11A 1_555 1_555
H6A C12A 1_555 1_555
C13A C12A 1_555 1_555
H7A C13A 1_555 1_555
C14A C13A 1_555 1_555
C15A C14A 1_555 1_555
H8A C15A 1_555 1_555
C16A C11A 1_555 1_555
H9A C16A 1_555 1_555
C17A C14A 1_555 1_555
O1A C10A 1_555 1_555
O2A C10A 1_555 1_555
O3A C17A 1_555 1_555
O4A C17A 1_555 1_555
H10A O4A 1_555 1_555
O1A_2 Ca1 1_555 1_555
O2_2 Ca1 1_555 1_555
O2A_2 Ca1 1_555 1_555
O3_2 Ca1 1_555 1_555
O3A_2 Ca1 1_555 1_555
Ca1_2 O2A 1_555 1_555
Ca1_3 O3A 1_555 1_555
Ca1_4 O1A 1_555 1_555
Ca1_5 O3 1_555 1_555
Ca1_6 O2 1_555 1_555
C18A C18 1_555 1_555
H11A C18A 1_555 1_555
H12A C18A 1_555 1_555
C19A C19 1_555 1_555
H13A C19A 1_555 1_555
H14A C19A 1_555 1_555
C8 C9 1_555 1_555
C15 C16 1_555 1_555
C2A C3A 1_555 1_555
C8A C9A 1_555 1_555
C15A C16A 1_555 1_555

#END
