
#######################################################################
#
#                 Cambridge Crystallographic Data Centre
#                                CCDC 
#
#######################################################################
#
# If this CIF has been generated from an entry in the Cambridge 
# Structural Database, then it will include bibliographic, chemical, 
# crystal, experimental, refinement or atomic coordinate data resulting 
# from the CCDC's data processing and validation procedures.
#
#######################################################################

data_OKAZAD
_chemical_formula_moiety         '(C38 H32 Ca1 O8)n'
_symmetry_cell_setting           triclinic
_symmetry_space_group_name_H-M   'P -1'
_symmetry_Int_Tables_number      2
_space_group_name_Hall           '-P 1'
loop_
_symmetry_equiv_pos_site_id
_symmetry_equiv_pos_as_xyz
1 x,y,z
2 -x,-y,-z
_cell_length_a                   5.2195(2)
_cell_length_b                   10.5691(5)
_cell_length_c                   15.3604(7)
_cell_angle_alpha                82.5330(10)
_cell_angle_beta                 86.6570(10)
_cell_angle_gamma                83.0000(10)
_cell_volume                     833.137
loop_
_atom_site_label
_atom_site_type_symbol
_atom_site_fract_x
_atom_site_fract_y
_atom_site_fract_z
C1 C -0.0188(4) 0.6320(2) 0.48794(13)
H1 H -0.0325 0.7232 0.4796
C2 C 0.0784(4) 0.5660(2) 0.56645(12)
C3 C 0.0960(4) 0.4316(2) 0.57842(12)
C4 C 0.1833(4) 0.3541(2) 0.66229(12)
C5 C 0.4071(4) 0.2670(2) 0.66344(13)
H2 H 0.4982 0.2514 0.6098
C6 C 0.4975(4) 0.2031(2) 0.74248(13)
H3 H 0.6535 0.1464 0.7429
C7 C 0.3601(4) 0.2220(2) 0.82110(13)
C8 C 0.1294(4) 0.3034(2) 0.81990(12)
H4 H 0.0303 0.3132 0.8730
C9 C 0.0442(4) 0.3704(2) 0.74133(13)
H5 H -0.1105 0.4280 0.7412
C10 C 0.4633(4) 0.1579(2) 0.90725(13)
C11 C 0.1617(4) 0.6409(2) 0.63402(12)
C12 C 0.3923(4) 0.6015(2) 0.67668(13)
H6 H 0.5058 0.5313 0.6590
C13 C 0.4564(4) 0.6642(2) 0.74442(13)
H7 H 0.6130 0.6364 0.7734
C14 C 0.2927(4) 0.7679(2) 0.77045(12)
C15 C 0.0675(4) 0.8118(2) 0.72538(13)
H8 H -0.0417 0.8846 0.7413
C16 C 0.0044(4) 0.7489(2) 0.65753(13)
H9 H -0.1477 0.7794 0.6265
C17 C 0.3478(4) 0.8298(2) 0.84798(12)
O1 O 0.3032(3) 0.14919(15) 0.97339(8)
O2 O 0.6985(3) 0.12014(16) 0.91005(9)
O3 O 0.1879(3) 0.90735(16) 0.87983(9)
O4 O 0.5764(3) 0.79169(17) 0.87877(9)
H10 H 0.5963 0.8304 0.9219
Ca1 Ca 0.0000 0.0000 1.0000
C1A C 0.0188(4) 0.3680(2) 0.51206(13)
H1A H 0.0325 0.2768 0.5204
C2A C -0.0784(4) 0.4340(2) 0.43355(12)
C3A C -0.0960(4) 0.5684(2) 0.42158(12)
C4A C -0.1833(4) 0.6459(2) 0.33771(12)
C5A C -0.4071(4) 0.7330(2) 0.33656(13)
H2A H -0.4982 0.7486 0.3902
C6A C -0.4975(4) 0.7969(2) 0.25752(13)
H3A H -0.6535 0.8536 0.2571
C7A C -0.3601(4) 0.7780(2) 0.17890(13)
C8A C -0.1294(4) 0.6966(2) 0.18010(12)
H4A H -0.0303 0.6868 0.1270
C9A C -0.0442(4) 0.6296(2) 0.25867(13)
H5A H 0.1105 0.5720 0.2588
C10A C -0.4633(4) 0.8421(2) 0.09275(13)
C11A C -0.1617(4) 0.3591(2) 0.36598(12)
C12A C -0.3923(4) 0.3985(2) 0.32332(13)
H6A H -0.5058 0.4687 0.3410
C13A C -0.4564(4) 0.3358(2) 0.25558(13)
H7A H -0.6130 0.3636 0.2266
C14A C -0.2927(4) 0.2321(2) 0.22955(12)
C15A C -0.0675(4) 0.1882(2) 0.27462(13)
H8A H 0.0417 0.1154 0.2587
C16A C -0.0044(4) 0.2511(2) 0.34247(13)
H9A H 0.1477 0.2206 0.3735
C17A C -0.3478(4) 0.1702(2) 0.15202(12)
O1A O -0.3032(3) 0.85081(15) 0.02661(8)
O2A O -0.6985(3) 0.87986(16) 0.08995(9)
O3A O -0.1879(3) 0.09265(16) 0.12017(9)
O4A O -0.5764(3) 0.20831(17) 0.12123(9)
H10A H -0.5963 0.1696 0.0781
O1A_2 O -0.3032(3) -0.14919(15) 1.02661(8)
O2_2 O -0.3015(3) 0.12014(16) 0.91005(9)
O2A_2 O 0.3015(3) -0.12014(16) 1.08995(9)
O3_2 O 0.1879(3) -0.09265(16) 0.87983(9)
O3A_2 O -0.1879(3) 0.09265(16) 1.12017(9)
Ca1_2 Ca -1.0000 1.0000 0.0000
Ca1_3 Ca 0.0000 0.0000 0.0000
Ca1_4 Ca 0.0000 1.0000 0.0000
Ca1_5 Ca -0.0000 1.0000 1.0000
Ca1_6 Ca 1.0000 0.0000 1.0000
C18 C 0.3847(6) 0.9684(4) 0.5221(3)
H11 H 0.4388 0.8775 0.5413
H12 H 0.2473 0.9758 0.4803
H13 H 0.3201 1.0115 0.5732
C18A C 0.6153(6) 1.0316(4) 0.4779(3)
H11A H 0.5612 1.1225 0.4587
H12A H 0.7527 1.0242 0.5197
H13A H 0.6799 0.9885 0.4268
C19 C 0.6363(5) 0.4733(5) 0.9855(4)
H14 H 0.7285 0.5437 0.9565
H15 H 0.6257 0.4107 0.9444
H16 H 0.7293 0.4312 1.0370
C19A C 0.3637(5) 0.5267(5) 1.0145(4)
H14A H 0.2715 0.4563 1.0435
H15A H 0.3743 0.5893 1.0556
H16A H 0.2707 0.5688 0.9630
loop_
_geom_bond_atom_site_label_1
_geom_bond_atom_site_label_2
_geom_bond_site_symmetry_1
_geom_bond_site_symmetry_2
C1 H1 1_555 1_555
C2 C1 1_555 1_555
C3 C2 1_555 1_555
C4 C3 1_555 1_555
C5 C4 1_555 1_555
H2 C5 1_555 1_555
C6 C5 1_555 1_555
H3 C6 1_555 1_555
C7 C6 1_555 1_555
C8 C7 1_555 1_555
H4 C8 1_555 1_555
C9 C4 1_555 1_555
H5 C9 1_555 1_555
C10 C7 1_555 1_555
C11 C2 1_555 1_555
C12 C11 1_555 1_555
H6 C12 1_555 1_555
C13 C12 1_555 1_555
H7 C13 1_555 1_555
C14 C13 1_555 1_555
C15 C14 1_555 1_555
H8 C15 1_555 1_555
C16 C11 1_555 1_555
H9 C16 1_555 1_555
C17 C14 1_555 1_555
O1 C10 1_555 1_555
O2 C10 1_555 1_555
O3 C17 1_555 1_555
O4 C17 1_555 1_555
H10 O4 1_555 1_555
Ca1 O1 1_555 1_555
C18 H11 1_555 1_555
H12 C18 1_555 1_555
H13 C18 1_555 1_555
C19 H14 1_555 1_555
H15 C19 1_555 1_555
H16 C19 1_555 1_555
C1A C3 1_555 1_555
H1A C1A 1_555 1_555
C2A C1A 1_555 1_555
C3A C1 1_555 1_555
C4A C3A 1_555 1_555
C5A C4A 1_555 1_555
H2A C5A 1_555 1_555
C6A C5A 1_555 1_555
H3A C6A 1_555 1_555
C7A C6A 1_555 1_555
C8A C7A 1_555 1_555
H4A C8A 1_555 1_555
C9A C4A 1_555 1_555
H5A C9A 1_555 1_555
C10A C7A 1_555 1_555
C11A C2A 1_555 1_555
C12A C11A 1_555 1_555
H6A C12A 1_555 1_555
C13A C12A 1_555 1_555
H7A C13A 1_555 1_555
C14A C13A 1_555 1_555
C15A C14A 1_555 1_555
H8A C15A 1_555 1_555
C16A C11A 1_555 1_555
H9A C16A 1_555 1_555
C17A C14A 1_555 1_555
O1A C10A 1_555 1_555
O2A C10A 1_555 1_555
O3A C17A 1_555 1_555
O4A C17A 1_555 1_555
H10A O4A 1_555 1_555
O1A_2 Ca1 1_555 1_555
O2_2 Ca1 1_555 1_555
O2A_2 Ca1 1_555 1_555
O3_2 Ca1 1_555 1_555
O3A_2 Ca1 1_555 1_555
Ca1_2 O2A 1_555 1_555
Ca1_3 O3A 1_555 1_555
Ca1_4 O1A 1_555 1_555
Ca1_5 O3 1_555 1_555
Ca1_6 O2 1_555 1_555
C18A C18 1_555 1_555
H11A C18A 1_555 1_555
H12A C18A 1_555 1_555
H13A C18A 1_555 1_555
C19A C19 1_555 1_555
H14A C19A 1_555 1_555
H15A C19A 1_555 1_555
H16A C19A 1_555 1_555
C8 C9 1_555 1_555
C15 C16 1_555 1_555
C2A C3A 1_555 1_555
C8A C9A 1_555 1_555
C15A C16A 1_555 1_555

#END
