
#######################################################################
#
#                 Cambridge Crystallographic Data Centre
#                                CCDC 
#
#######################################################################
#
# If this CIF has been generated from an entry in the Cambridge 
# Structural Database, then it will include bibliographic, chemical, 
# crystal, experimental, refinement or atomic coordinate data resulting 
# from the CCDC's data processing and validation procedures.
#
#######################################################################

data_SEYDUW
_chemical_formula_moiety         '(C5 H13 N1 O10 P1 Y1)n'
_symmetry_cell_setting           orthorhombic
_symmetry_space_group_name_H-M   'P 21 21 21'
_symmetry_Int_Tables_number      19
_space_group_name_Hall           'P 2ac 2ab'
loop_
_symmetry_equiv_pos_site_id
_symmetry_equiv_pos_as_xyz
1 x,y,z
2 1/2-x,-y,1/2+z
3 -x,1/2+y,1/2-z
4 1/2+x,1/2-y,-z
_cell_length_a                   9.0223(8)
_cell_length_b                   8.9108(7)
_cell_length_c                   15.6837(13)
_cell_angle_alpha                90
_cell_angle_beta                 90
_cell_angle_gamma                90
_cell_volume                     1260.91
loop_
_atom_site_label
_atom_site_type_symbol
_atom_site_fract_x
_atom_site_fract_y
_atom_site_fract_z
_atom_site_U_iso_or_equiv
_atom_site_thermal_displace_type
Y1 Y -0.03133(4) 0.60927(5) 0.60391(2) 0.0166 Uani
P1 P -0.12751(13) 0.93201(14) 0.70601(8) 0.0247 Uani
N1 N -0.2570(3) 0.6579(4) 0.7102(2) 0.0178 Uani
C1 C -0.2132(5) 0.7838(5) 0.7677(3) 0.0263 Uani
H1 H -0.1441 0.7476 0.8104 0.0310 Uiso
H2 H -0.3000 0.8225 0.7968 0.0310 Uiso
C2 C -0.3925(5) 0.6931(6) 0.6610(3) 0.0263 Uani
H3 H -0.4407 0.7788 0.6872 0.0320 Uiso
H4 H -0.4599 0.6086 0.6654 0.0320 Uiso
C3 C -0.3687(4) 0.7267(5) 0.5695(3) 0.0193 Uani
C4 C -0.2789(5) 0.5192(5) 0.7577(3) 0.0217 Uani
H5 H -0.3765 0.5193 0.7837 0.0260 Uiso
H6 H -0.2057 0.5119 0.8028 0.0260 Uiso
C5 C -0.2644(5) 0.3850(6) 0.6978(3) 0.0243 Uani
O1 O -0.2449(3) 0.6863(4) 0.53479(19) 0.0284 Uani
O2 O -0.4684(3) 0.7920(4) 0.52929(17) 0.0275 Uani
O3 O -0.3165(4) 0.2606(4) 0.7236(2) 0.0294 Uani
O4 O -0.1879(3) 0.4008(4) 0.62982(19) 0.0322 Uani
O5 O -0.2490(4) 1.0168(4) 0.6537(2) 0.0370 Uani
H7 H -0.2692 1.0961 0.6776 0.0560 Uiso
O6 O -0.0510(3) 1.0351(4) 0.76735(17) 0.0264 Uani
O7 O -0.0257(3) 0.8542(3) 0.64469(17) 0.0244 Uani
O8 O 0.0604(4) 0.4062(5) 0.5203(2) 0.0563 Uani
O9 O 0.2340(3) 0.6512(4) 0.6107(2) 0.0295 Uani
Y1C Y -0.53133(4) 0.89073(5) 0.39609(2) 0.0166 Uani
Y1B Y 0.03133(4) 1.10927(5) 0.89609(2) 0.0166 Uani
O2C O 0.0316(3) 0.7080(4) 0.47071(17) 0.0275 Uani
O6B O 0.0510(3) 0.5351(4) 0.73265(17) 0.0264 Uani
O10 O -0.0656(9) 0.6009(6) 0.9777(4) 0.1497 Uani
loop_
_atom_site_aniso_label
_atom_site_aniso_U_11
_atom_site_aniso_U_22
_atom_site_aniso_U_33
_atom_site_aniso_U_23
_atom_site_aniso_U_13
_atom_site_aniso_U_12
Y1 0.01741(18) 0.01678(19) 0.01558(17) 0.00087(18) 0.00172(17) 0.00151(19)
P1 0.0293(7) 0.0208(7) 0.0239(6) -0.0031(5) -0.0015(5) -0.0022(5)
N1 0.0161(17) 0.018(2) 0.0193(19) -0.0001(15) -0.0027(15) 0.0009(15)
C1 0.038(3) 0.020(3) 0.021(2) -0.001(2) 0.006(2) 0.002(2)
C2 0.022(2) 0.035(3) 0.022(2) 0.009(2) -0.0006(19) 0.005(2)
C3 0.011(2) 0.030(3) 0.017(2) -0.0038(19) -0.0036(17) 0.0032(19)
C4 0.022(2) 0.023(3) 0.020(2) 0.008(2) 0.0010(19) -0.006(2)
C5 0.031(2) 0.018(2) 0.024(2) 0.000(2) 0.0100(19) -0.004(2)
O1 0.0231(17) 0.044(2) 0.0182(17) 0.0033(15) 0.0013(13) 0.0025(15)
O2 0.0182(14) 0.043(2) 0.0213(16) 0.0080(14) -0.0031(14) 0.0055(17)
O3 0.0331(18) 0.019(2) 0.036(2) 0.0034(15) 0.0103(16) -0.0036(15)
O4 0.0402(18) 0.0219(19) 0.0345(19) -0.0049(16) 0.0128(14) -0.0088(17)
O5 0.046(2) 0.025(2) 0.040(2) -0.0071(16) -0.0192(16) 0.0061(16)
O6 0.0271(18) 0.0285(19) 0.0235(16) -0.0056(13) -0.0023(14) -0.0090(15)
O7 0.0291(15) 0.0176(18) 0.0265(15) -0.0012(12) 0.0082(14) -0.0018(14)
O8 0.062(2) 0.037(3) 0.070(3) -0.019(2) 0.027(2) 0.005(2)
O9 0.0185(14) 0.039(2) 0.0309(17) 0.0072(17) -0.0012(14) -0.0006(13)
Y1C 0.01741 0.01678 0.01558 0.00087 -0.00172 -0.00151
Y1B 0.01741 0.01678 0.01558 -0.00087 0.00172 -0.00151
O2C 0.0182 0.043 0.0213 0.008 0.0031 -0.0055
O6B 0.0271 0.0285 0.0235 0.0056 -0.0023 0.009
O10 0.267(8) 0.049(4) 0.133(5) 0.013(3) 0.100(6) -0.009(5)
loop_
_geom_bond_atom_site_label_1
_geom_bond_atom_site_label_2
_geom_bond_site_symmetry_1
_geom_bond_site_symmetry_2
Y1 N1 1_555 1_555
P1 C1 1_555 1_555
N1 C1 1_555 1_555
C1 H1 1_555 1_555
H2 C1 1_555 1_555
C2 N1 1_555 1_555
H3 C2 1_555 1_555
H4 C2 1_555 1_555
C3 C2 1_555 1_555
C4 N1 1_555 1_555
H5 C4 1_555 1_555
H6 C4 1_555 1_555
C5 C4 1_555 1_555
O1 Y1 1_555 1_555
O2 C3 1_555 1_555
O3 C5 1_555 1_555
O4 Y1 1_555 1_555
O5 P1 1_555 1_555
H7 O5 1_555 1_555
O6 P1 1_555 1_555
O7 Y1 1_555 1_555
O8 Y1 1_555 1_555
O9 Y1 1_555 1_555
Y1C O2 1_555 1_555
Y1B O6 1_555 1_555
O2C Y1 1_555 1_555
O6B Y1 1_555 1_555
P1 O7 1_555 1_555
C3 O1 1_555 1_555
C5 O4 1_555 1_555

#END
