
#######################################################################
#
#                 Cambridge Crystallographic Data Centre
#                                CCDC 
#
#######################################################################
#
# If this CIF has been generated from an entry in the Cambridge 
# Structural Database, then it will include bibliographic, chemical, 
# crystal, experimental, refinement or atomic coordinate data resulting 
# from the CCDC's data processing and validation procedures.
#
#######################################################################

data_SEYFAE
_chemical_formula_moiety         '(C5 H13 Er1 N1 O10 P1)n'
_symmetry_cell_setting           orthorhombic
_symmetry_space_group_name_H-M   'P 21 21 21'
_symmetry_Int_Tables_number      19
_space_group_name_Hall           'P 2ac 2ab'
loop_
_symmetry_equiv_pos_site_id
_symmetry_equiv_pos_as_xyz
1 x,y,z
2 1/2-x,-y,1/2+z
3 -x,1/2+y,1/2-z
4 1/2+x,1/2-y,-z
_cell_length_a                   9.0085(15)
_cell_length_b                   9.0085(15)
_cell_length_c                   15.799(4)
_cell_angle_alpha                90
_cell_angle_beta                 90
_cell_angle_gamma                90
_cell_volume                     1282.14
loop_
_atom_site_label
_atom_site_type_symbol
_atom_site_fract_x
_atom_site_fract_y
_atom_site_fract_z
_atom_site_U_iso_or_equiv
_atom_site_thermal_displace_type
Er1 Er -0.03212(2) 0.61059(2) 0.604319(12) 0.0166 Uani
P1 P -0.12667(15) 0.93327(14) 0.70596(8) 0.0227 Uani
N1 N -0.2562(4) 0.6599(4) 0.7102(2) 0.0178 Uani
C1 C -0.2124(6) 0.7853(6) 0.7680(3) 0.0250 Uani
H1 H -0.1429 0.7497 0.8103 0.0300 Uiso
H2 H -0.2994 0.8232 0.7970 0.0300 Uiso
C2 C -0.3925(6) 0.6946(6) 0.6609(3) 0.0247 Uani
H3 H -0.4406 0.7798 0.6866 0.0300 Uiso
H4 H -0.4602 0.6112 0.6656 0.0300 Uiso
C3 C -0.3680(5) 0.7270(6) 0.5688(3) 0.0200 Uani
C4 C -0.2794(6) 0.5200(5) 0.7578(3) 0.0223 Uani
H5 H -0.3777 0.5198 0.7828 0.0270 Uiso
H6 H -0.2070 0.5126 0.8030 0.0270 Uiso
C5 C -0.2631(5) 0.3870(6) 0.6976(3) 0.0233 Uani
O1 O -0.2450(4) 0.6864(5) 0.5347(2) 0.0271 Uani
O2 O -0.4692(5) 0.7925(4) 0.5289(2) 0.0296 Uani
O3 O -0.3161(5) 0.2626(4) 0.7238(3) 0.0306 Uani
O4 O -0.1893(4) 0.4034(4) 0.6299(2) 0.0314 Uani
O5 O -0.2488(5) 1.0175(5) 0.6535(3) 0.0357 Uani
H7 H -0.2691 1.0961 0.6770 0.0540 Uiso
O6 O -0.0507(4) 1.0372(4) 0.7667(2) 0.0262 Uani
O7 O -0.0257(4) 0.8563(3) 0.6446(2) 0.0240 Uani
O8 O 0.0590(6) 0.4073(5) 0.5228(3) 0.0583 Uani
O9 O 0.2319(4) 0.6515(4) 0.6110(2) 0.0303 Uani
Er1C Er -0.53212(2) 0.88941(2) 0.395681(12) 0.0166 Uani
Er1B Er 0.03212(2) 1.11059(2) 0.895681(12) 0.0166 Uani
O2C O 0.0308(5) 0.7075(4) 0.4711(2) 0.0296 Uani
O6B O 0.0507(4) 0.5372(4) 0.7333(2) 0.0262 Uani
O10 O 0.0609(14) 0.1027(8) 0.5211(5) 0.1707 Uani
loop_
_atom_site_aniso_label
_atom_site_aniso_U_11
_atom_site_aniso_U_22
_atom_site_aniso_U_33
_atom_site_aniso_U_23
_atom_site_aniso_U_13
_atom_site_aniso_U_12
Er1 0.01738(11) 0.01482(9) 0.01770(9) 0.00093(8) 0.00148(8) 0.00169(8)
P1 0.0267(7) 0.0170(6) 0.0243(6) -0.0031(5) -0.0009(5) -0.0011(5)
N1 0.0181(19) 0.0173(19) 0.0181(18) 0.0007(15) 0.0001(16) 0.0013(16)
C1 0.033(3) 0.017(2) 0.025(2) -0.0038(19) 0.006(2) 0.001(2)
C2 0.019(2) 0.030(3) 0.025(2) 0.008(2) 0.001(2) 0.003(2)
C3 0.010(2) 0.032(3) 0.018(2) -0.003(2) -0.0055(18) 0.0057(19)
C4 0.023(3) 0.023(3) 0.021(2) 0.0059(19) 0.004(2) -0.003(2)
C5 0.027(3) 0.015(2) 0.028(2) -0.001(2) 0.010(2) -0.008(2)
O1 0.0179(18) 0.043(2) 0.0203(17) 0.0044(16) 0.0005(14) 0.0018(17)
O2 0.0204(17) 0.045(2) 0.0234(16) 0.0086(15) -0.0043(17) 0.0041(19)
O3 0.036(2) 0.0139(17) 0.042(2) 0.0049(15) 0.0128(19) -0.0056(16)
O4 0.043(2) 0.0180(17) 0.0331(19) -0.0053(15) 0.0140(17) -0.0103(18)
O5 0.038(2) 0.026(2) 0.043(2) -0.0026(17) -0.0140(18) 0.0033(17)
O6 0.027(2) 0.0251(18) 0.0266(17) -0.0055(14) -0.0015(16) -0.0024(16)
O7 0.0286(18) 0.0142(16) 0.0291(16) -0.0042(12) 0.0043(16) -0.0022(14)
O8 0.067(4) 0.035(2) 0.073(3) -0.022(2) 0.029(3) 0.005(2)
O9 0.0173(17) 0.043(2) 0.0305(19) 0.0104(18) 0.0000(16) -0.0005(15)
Er1C 0.01738 0.01482 0.0177 0.00093 -0.00148 -0.00169
Er1B 0.01738 0.01482 0.0177 -0.00093 0.00148 -0.00169
O2C 0.0204 0.045 0.0234 0.0086 0.0043 -0.0041
O6B 0.027 0.0251 0.0266 0.0055 -0.0015 0.0024
O10 0.344(14) 0.051(4) 0.117(6) -0.012(4) 0.115(8) 0.023(8)
loop_
_geom_bond_atom_site_label_1
_geom_bond_atom_site_label_2
_geom_bond_site_symmetry_1
_geom_bond_site_symmetry_2
Er1 N1 1_555 1_555
P1 C1 1_555 1_555
N1 C1 1_555 1_555
C1 H1 1_555 1_555
H2 C1 1_555 1_555
C2 N1 1_555 1_555
H3 C2 1_555 1_555
H4 C2 1_555 1_555
C3 C2 1_555 1_555
C4 N1 1_555 1_555
H5 C4 1_555 1_555
H6 C4 1_555 1_555
C5 C4 1_555 1_555
O1 Er1 1_555 1_555
O2 C3 1_555 1_555
O3 C5 1_555 1_555
O4 Er1 1_555 1_555
O5 P1 1_555 1_555
H7 O5 1_555 1_555
O6 P1 1_555 1_555
O7 Er1 1_555 1_555
O8 Er1 1_555 1_555
O9 Er1 1_555 1_555
Er1C O2 1_555 1_555
Er1B O6 1_555 1_555
O2C Er1 1_555 1_555
O6B Er1 1_555 1_555
P1 O7 1_555 1_555
C3 O1 1_555 1_555
C5 O4 1_555 1_555

#END
