
#######################################################################
#
#                 Cambridge Crystallographic Data Centre
#                                CCDC 
#
#######################################################################
#
# If this CIF has been generated from an entry in the Cambridge 
# Structural Database, then it will include bibliographic, chemical, 
# crystal, experimental, refinement or atomic coordinate data resulting 
# from the CCDC's data processing and validation procedures.
#
#######################################################################

data_LOMMIL
_chemical_formula_moiety         '(C42 H24 N4 O16 Y2)n'
_symmetry_cell_setting           tetragonal
_symmetry_space_group_name_H-M   'I -4 2 d'
_symmetry_Int_Tables_number      122
_space_group_name_Hall           'I -4 2bw'
loop_
_symmetry_equiv_pos_site_id
_symmetry_equiv_pos_as_xyz
1 x,y,z
2 -x,-y,z
3 y,-x,-z
4 -y,x,-z
5 1/2-x,y,3/4-z
6 1/2+x,-y,3/4-z
7 1/2-y,-x,3/4+z
8 1/2+y,x,3/4+z
9 1/2+x,1/2+y,1/2+z
10 1/2-x,1/2-y,1/2+z
11 1/2+y,1/2-x,1/2-z
12 1/2-y,1/2+x,1/2-z
13 -x,1/2+y,1/4-z
14 x,1/2-y,1/4-z
15 -y,1/2-x,1/4+z
16 y,1/2+x,1/4+z
_cell_length_a                   28.9341(3)
_cell_length_b                   28.9341(3)
_cell_length_c                   10.5123(3)
_cell_angle_alpha                90
_cell_angle_beta                 90
_cell_angle_gamma                90
_cell_volume                     8800.71
loop_
_atom_site_label
_atom_site_type_symbol
_atom_site_fract_x
_atom_site_fract_y
_atom_site_fract_z
_atom_site_U_iso_or_equiv
_atom_site_thermal_displace_type
Y1 Y 0.391047(11) 0.816618(12) 1.03552(3) 0.0118 Uani
C1 C 0.45812(13) 0.71834(13) 0.9906(3) 0.0164 Uani
C2 C 0.50107(13) 0.71897(13) 0.9169(3) 0.0193 Uani
C3 C 0.52027(16) 0.75293(16) 0.8467(4) 0.0410 Uani
H1 H 0.5078 0.7829 0.8328 0.0490 Uiso
C4 C 0.56244(15) 0.73560(15) 0.7973(5) 0.0400 Uani
H2 H 0.5839 0.7516 0.7449 0.0480 Uiso
C5 C 0.56599(13) 0.69185(14) 0.8396(3) 0.0226 Uani
C6 C 0.60234(13) 0.65717(14) 0.8147(3) 0.0214 Uani
C7 C 0.32472(12) 0.72327(12) 0.9840(3) 0.0157 Uani
C8 C 0.28261(12) 0.70281(12) 0.9273(3) 0.0146 Uani
C9 C 0.27097(13) 0.65788(13) 0.9093(3) 0.0213 Uani
H3 H 0.2877 0.6316 0.9374 0.0260 Uiso
C10 C 0.49061(14) 0.87816(15) 0.9995(4) 0.0360 Uani
H4 H 0.4885 0.8775 1.0896 0.0430 Uiso
C11 C 0.52909(19) 0.8992(2) 0.9438(5) 0.0663 Uani
H5 H 0.5528 0.9122 0.9951 0.0800 Uiso
C12 C 0.53202(19) 0.9008(2) 0.8128(5) 0.0617 Uani
H6 H 0.5578 0.9151 0.7732 0.0740 Uiso
C13 C 0.49743(16) 0.88143(17) 0.7391(4) 0.0390 Uani
C14 C 0.49700(19) 0.88319(19) 0.6020(4) 0.0513 Uani
H7 H 0.5225 0.8965 0.5584 0.0620 Uiso
C15 C 0.46152(19) 0.86648(16) 0.5353(5) 0.0473 Uani
H8 H 0.4621 0.8682 0.4450 0.0570 Uiso
C16 C 0.42326(18) 0.84638(15) 0.5964(4) 0.0363 Uani
C17 C 0.3837(2) 0.83001(16) 0.5315(5) 0.0564 Uani
H9 H 0.3828 0.8310 0.4412 0.0680 Uiso
C18 C 0.3470(2) 0.8129(2) 0.5965(4) 0.0607 Uani
H10 H 0.3199 0.8030 0.5531 0.0730 Uiso
C19 C 0.34996(18) 0.81023(18) 0.7295(4) 0.0487 Uani
H11 H 0.3244 0.7979 0.7749 0.0580 Uiso
C20 C 0.42248(14) 0.84281(13) 0.7313(3) 0.0228 Uani
C21 C 0.46014(14) 0.86118(13) 0.8032(4) 0.0241 Uani
N1 N 0.45734(11) 0.85927(11) 0.9325(3) 0.0211 Uani
N2 N 0.38672(12) 0.82399(11) 0.7956(3) 0.0273 Uani
O1 O 0.44873(8) 0.68365(9) 1.0573(2) 0.0175 Uani
O2 O 0.43368(8) 0.75465(8) 0.9823(2) 0.0186 Uani
O3 O 0.52914(8) 0.68075(9) 0.9162(2) 0.0163 Uani
O4 O 0.60206(9) 0.61794(8) 0.8651(2) 0.0230 Uani
O5 O 0.63376(10) 0.67031(10) 0.7402(2) 0.0334 Uani
O6 O 0.33082(8) 0.76610(9) 0.9789(2) 0.0189 Uani
O7 O 0.35143(8) 0.69380(8) 1.0323(2) 0.0199 Uani
O8 O 0.2500 0.73153(11) 0.8750 0.0148 Uani
C7D C 0.17528(12) 0.72327(12) 0.7660(3) 0.0157 Uani
C8D C 0.21739(12) 0.70281(12) 0.8227(3) 0.0146 Uani
C9D C 0.22903(13) 0.65788(13) 0.8407(3) 0.0213 Uani
H3D H 0.2123 0.6316 0.8126 0.0260 Uiso
O6D O 0.16918(8) 0.76610(9) 0.7711(2) 0.0189 Uani
O7D O 0.14857(8) 0.69380(8) 0.7177(2) 0.0199 Uani
Y1D Y 0.108953(11) 0.816618(12) 0.71448(3) 0.0118 Uani
C1D C 0.04188(13) 0.71834(13) 0.7594(3) 0.0164 Uani
C2D C -0.00107(13) 0.71897(13) 0.8331(3) 0.0193 Uani
C3D C -0.02027(16) 0.75293(16) 0.9033(4) 0.0410 Uani
H1D H -0.0078 0.7829 0.9172 0.0490 Uiso
C4D C -0.06244(15) 0.73560(15) 0.9527(5) 0.0400 Uani
H2D H -0.0839 0.7516 1.0051 0.0480 Uiso
C5D C -0.06599(13) 0.69185(14) 0.9104(3) 0.0226 Uani
C6D C -0.10234(13) 0.65717(14) 0.9353(3) 0.0214 Uani
C10D C 0.00939(14) 0.87816(15) 0.7505(4) 0.0360 Uani
H4D H 0.0115 0.8775 0.6604 0.0430 Uiso
C11D C -0.02909(19) 0.8992(2) 0.8062(5) 0.0663 Uani
H5D H -0.0528 0.9122 0.7549 0.0800 Uiso
C12D C -0.03202(19) 0.9008(2) 0.9372(5) 0.0617 Uani
H6D H -0.0578 0.9151 0.9768 0.0740 Uiso
C13D C 0.00257(16) 0.88143(17) 1.0109(4) 0.0390 Uani
C14D C 0.00300(19) 0.88319(19) 1.1480(4) 0.0513 Uani
H7D H -0.0225 0.8965 1.1916 0.0620 Uiso
C15D C 0.03848(19) 0.86648(16) 1.2147(5) 0.0473 Uani
H8D H 0.0379 0.8682 1.3050 0.0570 Uiso
C16D C 0.07674(18) 0.84638(15) 1.1536(4) 0.0363 Uani
C17D C 0.1163(2) 0.83001(16) 1.2185(5) 0.0564 Uani
H9D H 0.1172 0.8310 1.3088 0.0680 Uiso
C18D C 0.1530(2) 0.8129(2) 1.1535(4) 0.0607 Uani
H10D H 0.1801 0.8030 1.1969 0.0730 Uiso
C19D C 0.15004(18) 0.81023(18) 1.0205(4) 0.0487 Uani
H11D H 0.1756 0.7979 0.9751 0.0580 Uiso
C20D C 0.07752(14) 0.84281(13) 1.0187(3) 0.0228 Uani
C21D C 0.03986(14) 0.86118(13) 0.9468(4) 0.0241 Uani
N1D N 0.04266(11) 0.85927(11) 0.8175(3) 0.0211 Uani
N2D N 0.11328(12) 0.82399(11) 0.9544(3) 0.0273 Uani
O1D O 0.05127(8) 0.68365(9) 0.6927(2) 0.0175 Uani
O2D O 0.06632(8) 0.75465(8) 0.7677(2) 0.0186 Uani
O3D O -0.02914(8) 0.68075(9) 0.8338(2) 0.0163 Uani
O4D O -0.10206(9) 0.61794(8) 0.8849(2) 0.0230 Uani
O5D O -0.13376(10) 0.67031(10) 1.0098(2) 0.0334 Uani
Y1B Y -0.183382(12) 0.608953(11) 0.96448(3) 0.0118 Uani
Y1F Y 0.683382(12) 0.608953(11) 0.78552(3) 0.0118 Uani
Y1I Y 0.108953(11) 0.683382(12) 0.53552(3) 0.0118 Uani
Y1M Y 0.391047(11) 0.683382(12) 1.21448(3) 0.0118 Uani
O1I O 0.05127(8) 0.81635(9) 0.5573(2) 0.0175 Uani
O1M O 0.44873(8) 0.81635(9) 1.1927(2) 0.0175 Uani
O4J O 0.11794(8) 0.89794(9) 0.6349(2) 0.0230 Uani
O4N O 0.38206(8) 0.89794(9) 1.1151(2) 0.0230 Uani
O5J O 0.17031(10) 0.86624(10) 0.7598(2) 0.0334 Uani
O5N O 0.32969(10) 0.86624(10) 0.9902(2) 0.0334 Uani
O7I O 0.14857(8) 0.80620(8) 0.5323(2) 0.0199 Uani
O7M O 0.35143(8) 0.80620(8) 1.2177(2) 0.0199 Uani
O9 O 0.44291(13) 0.95954(13) 0.2559(4) 0.0753 Uani
H12 H 0.4240 0.9395 0.2230 0.0910 Uiso
H13 H 0.4479 0.9885 0.2512 0.0910 Uiso
loop_
_atom_site_aniso_label
_atom_site_aniso_U_11
_atom_site_aniso_U_22
_atom_site_aniso_U_33
_atom_site_aniso_U_23
_atom_site_aniso_U_13
_atom_site_aniso_U_12
Y1 0.00951(17) 0.01073(17) 0.01516(11) -0.00249(14) 0.00089(14) 0.00099(14)
C1 0.0139(19) 0.019(2) 0.0163(17) -0.0035(15) -0.0022(15) 0.0027(15)
C2 0.017(2) 0.017(2) 0.0238(17) 0.0019(16) 0.0064(15) 0.0081(15)
C3 0.039(3) 0.024(2) 0.060(3) 0.017(2) 0.025(2) 0.019(2)
C4 0.029(3) 0.032(3) 0.059(3) 0.021(2) 0.029(2) 0.0129(19)
C5 0.017(2) 0.026(2) 0.0247(18) 0.0012(17) 0.0058(16) 0.0072(17)
C6 0.015(2) 0.030(2) 0.0193(17) -0.0059(16) -0.0013(15) 0.0086(16)
C7 0.0135(19) 0.0181(19) 0.0154(16) -0.0070(15) 0.0029(14) 0.0008(14)
C8 0.0111(19) 0.0167(19) 0.0159(15) 0.0003(14) -0.0035(14) 0.0028(14)
C9 0.016(2) 0.016(2) 0.032(2) -0.0004(17) -0.0096(17) 0.0016(15)
C10 0.022(2) 0.048(3) 0.038(2) 0.012(2) -0.0009(19) -0.015(2)
C11 0.050(3) 0.082(3) 0.067(3) 0.015(3) -0.003(2) -0.028(2)
C12 0.046(3) 0.076(3) 0.063(3) 0.027(3) 0.014(2) -0.017(2)
C13 0.027(3) 0.049(3) 0.041(2) 0.015(2) 0.016(2) 0.006(2)
C14 0.046(3) 0.061(4) 0.047(3) 0.025(3) 0.030(3) 0.015(3)
C15 0.068(4) 0.041(3) 0.033(2) 0.010(2) 0.023(3) 0.026(3)
C16 0.064(3) 0.023(2) 0.022(2) 0.0031(18) 0.013(2) 0.020(2)
C17 0.096(4) 0.049(3) 0.0241(17) -0.006(2) -0.008(3) -0.006(3)
C18 0.076(3) 0.068(3) 0.038(2) 0.009(2) -0.022(2) -0.022(3)
C19 0.061(3) 0.055(3) 0.030(2) 0.013(2) -0.021(2) -0.026(3)
C20 0.036(2) 0.0133(19) 0.0192(17) -0.0015(16) 0.0058(17) 0.0073(16)
C21 0.027(2) 0.021(2) 0.0243(19) 0.0082(17) 0.0117(18) 0.0123(16)
N1 0.0163(17) 0.0204(18) 0.0265(17) 0.0037(14) 0.0049(14) 0.0009(13)
N2 0.038(2) 0.0232(19) 0.0207(13) 0.0015(14) -0.0020(17) -0.0026(16)
O1 0.0144(13) 0.0159(13) 0.0221(12) -0.0019(12) 0.0049(10) 0.0017(10)
O2 0.0147(13) 0.0176(14) 0.0236(13) -0.0050(11) 0.0036(11) 0.0056(10)
O3 0.0130(13) 0.0155(13) 0.0205(11) -0.0007(11) 0.0018(10) 0.0057(10)
O4 0.0184(15) 0.0151(14) 0.0356(13) -0.0008(12) 0.0022(12) 0.0028(11)
O5 0.0225(16) 0.043(2) 0.0348(16) 0.0148(14) 0.0160(13) 0.0183(13)
O6 0.0131(13) 0.0185(14) 0.0250(12) -0.0042(12) -0.0024(11) -0.0017(10)
O7 0.0139(13) 0.0221(15) 0.0238(12) -0.0035(12) -0.0051(11) 0.0047(10)
O8 0.0090(18) 0.0124(18) 0.0229(16) 0.000 -0.0065(14) 0.000
C7D 0.0135 0.0181 0.0154 0.007 0.0029 -0.0008
C8D 0.0111 0.0167 0.0159 -0.0003 -0.0035 -0.0028
C9D 0.016 0.016 0.032 0.0004 -0.0096 -0.0016
O6D 0.0131 0.0185 0.025 0.0042 -0.0024 0.0017
O7D 0.0139 0.0221 0.0238 0.0035 -0.0051 -0.0047
Y1D 0.00951 0.01073 0.01516 0.00249 0.00089 -0.00099
C1D 0.0139 0.019 0.0163 0.0035 -0.0022 -0.0027
C2D 0.017 0.017 0.0238 -0.0019 0.0064 -0.0081
C3D 0.039 0.024 0.06 -0.017 0.025 -0.019
C4D 0.029 0.032 0.059 -0.021 0.029 -0.0129
C5D 0.017 0.026 0.0247 -0.0012 0.0058 -0.0072
C6D 0.015 0.03 0.0193 0.0059 -0.0013 -0.0086
C10D 0.022 0.048 0.038 -0.012 -0.0009 0.015
C11D 0.05 0.082 0.067 -0.015 -0.003 0.028
C12D 0.046 0.076 0.063 -0.027 0.014 0.017
C13D 0.027 0.049 0.041 -0.015 0.016 -0.006
C14D 0.046 0.061 0.047 -0.025 0.03 -0.015
C15D 0.068 0.041 0.033 -0.01 0.023 -0.026
C16D 0.064 0.023 0.022 -0.0031 0.013 -0.02
C17D 0.096 0.049 0.0241 0.006 -0.008 0.006
C18D 0.076 0.068 0.038 -0.009 -0.022 0.022
C19D 0.061 0.055 0.03 -0.013 -0.021 0.026
C20D 0.036 0.0133 0.0192 0.0015 0.0058 -0.0073
C21D 0.027 0.021 0.0243 -0.0082 0.0117 -0.0123
N1D 0.0163 0.0204 0.0265 -0.0037 0.0049 -0.0009
N2D 0.038 0.0232 0.0207 -0.0015 -0.002 0.0026
O1D 0.0144 0.0159 0.0221 0.0019 0.0049 -0.0017
O2D 0.0147 0.0176 0.0236 0.005 0.0036 -0.0056
O3D 0.013 0.0155 0.0205 0.0007 0.0018 -0.0057
O4D 0.0184 0.0151 0.0356 0.0008 0.0022 -0.0028
O5D 0.0225 0.043 0.0348 -0.0148 0.016 -0.0183
Y1B 0.01073 0.00951 0.01516 0.00089 0.00249 -0.00099
Y1F 0.01073 0.00951 0.01516 -0.00089 0.00249 0.00099
Y1I 0.00951 0.01073 0.01516 0.00249 -0.00089 0.00099
Y1M 0.00951 0.01073 0.01516 -0.00249 -0.00089 -0.00099
O1I 0.0144 0.0159 0.0221 0.0019 -0.0049 0.0017
O1M 0.0144 0.0159 0.0221 -0.0019 -0.0049 -0.0017
O4J 0.0151 0.0184 0.0356 0.0022 0.0008 -0.0028
O4N 0.0151 0.0184 0.0356 -0.0022 0.0008 0.0028
O5J 0.043 0.0225 0.0348 0.016 -0.0148 -0.0183
O5N 0.043 0.0225 0.0348 -0.016 -0.0148 0.0183
O7I 0.0139 0.0221 0.0238 0.0035 0.0051 0.0047
O7M 0.0139 0.0221 0.0238 -0.0035 0.0051 -0.0047
O9 0.064(3) 0.062(3) 0.100(3) -0.033(2) -0.005(2) -0.025(2)
loop_
_geom_bond_atom_site_label_1
_geom_bond_atom_site_label_2
_geom_bond_site_symmetry_1
_geom_bond_site_symmetry_2
Y1 N1 1_555 1_555
C1 C2 1_555 1_555
C2 C3 1_555 1_555
C3 H1 1_555 1_555
C4 C3 1_555 1_555
H2 C4 1_555 1_555
C5 C4 1_555 1_555
C6 C5 1_555 1_555
C7 C8 1_555 1_555
C8 C9 1_555 1_555
C9 H3 1_555 1_555
C10 H4 1_555 1_555
C11 C10 1_555 1_555
H5 C11 1_555 1_555
C12 C11 1_555 1_555
H6 C12 1_555 1_555
C13 C12 1_555 1_555
C14 C13 1_555 1_555
H7 C14 1_555 1_555
C15 C14 1_555 1_555
H8 C15 1_555 1_555
C16 C15 1_555 1_555
C17 C16 1_555 1_555
H9 C17 1_555 1_555
C18 C17 1_555 1_555
H10 C18 1_555 1_555
C19 C18 1_555 1_555
H11 C19 1_555 1_555
C20 C16 1_555 1_555
C21 C13 1_555 1_555
N1 C10 1_555 1_555
N2 Y1 1_555 1_555
O1 C1 1_555 1_555
O2 Y1 1_555 1_555
O3 C2 1_555 1_555
O4 C6 1_555 1_555
O5 C6 1_555 1_555
O6 Y1 1_555 1_555
O7 C7 1_555 1_555
O8 C8 1_555 1_555
O9 H12 1_555 1_555
H13 O9 1_555 1_555
C7D C8D 1_555 1_555
C8D O8 1_555 1_555
C9D C9 1_555 1_555
H3D C9D 1_555 1_555
O6D C7D 1_555 1_555
O7D C7D 1_555 1_555
Y1D O6D 1_555 1_555
C1D C2D 1_555 1_555
C2D C3D 1_555 1_555
C3D H1D 1_555 1_555
C4D C3D 1_555 1_555
H2D C4D 1_555 1_555
C5D C4D 1_555 1_555
C6D C5D 1_555 1_555
C10D H4D 1_555 1_555
C11D C10D 1_555 1_555
H5D C11D 1_555 1_555
C12D C11D 1_555 1_555
H6D C12D 1_555 1_555
C13D C12D 1_555 1_555
C14D C13D 1_555 1_555
H7D C14D 1_555 1_555
C15D C14D 1_555 1_555
H8D C15D 1_555 1_555
C16D C15D 1_555 1_555
C17D C16D 1_555 1_555
H9D C17D 1_555 1_555
C18D C17D 1_555 1_555
H10D C18D 1_555 1_555
C19D C18D 1_555 1_555
H11D C19D 1_555 1_555
C20D C16D 1_555 1_555
C21D C13D 1_555 1_555
N1D Y1D 1_555 1_555
N2D Y1D 1_555 1_555
O1D C1D 1_555 1_555
O2D Y1D 1_555 1_555
O3D C2D 1_555 1_555
O4D C6D 1_555 1_555
O5D C6D 1_555 1_555
Y1B O4D 1_555 1_555
Y1F O4 1_555 1_555
Y1I O7D 1_555 1_555
Y1M O1 1_555 1_555
O1I Y1D 1_555 1_555
O1M Y1 1_555 1_555
O4J Y1D 1_555 1_555
O4N Y1 1_555 1_555
O5J Y1D 1_555 1_555
O5N Y1 1_555 1_555
O7I Y1D 1_555 1_555
O7M Y1 1_555 1_555
C1 O2 1_555 1_555
C5 O3 1_555 1_555
C7 O6 1_555 1_555
C19 N2 1_555 1_555
C20 C21 1_555 1_555
C20 N2 1_555 1_555
C21 N1 1_555 1_555
O5 Y1F 1_555 1_555
O7 Y1M 1_555 1_555
C8D C9D 1_555 1_555
C1D O2D 1_555 1_555
C5D O3D 1_555 1_555
C10D N1D 1_555 1_555
C19D N2D 1_555 1_555
C20D C21D 1_555 1_555
C20D N2D 1_555 1_555
C21D N1D 1_555 1_555
O1D Y1I 1_555 1_555
O5D Y1B 1_555 1_555

#END
