
#######################################################################
#
#                 Cambridge Crystallographic Data Centre
#                                CCDC 
#
#######################################################################
#
# If this CIF has been generated from an entry in the Cambridge 
# Structural Database, then it will include bibliographic, chemical, 
# crystal, experimental, refinement or atomic coordinate data resulting 
# from the CCDC's data processing and validation procedures.
#
#######################################################################

data_LOMMEH
_chemical_formula_moiety         '(C42 H24 Eu2 N4 O16)n'
_symmetry_cell_setting           tetragonal
_symmetry_space_group_name_H-M   'I -4 2 d'
_symmetry_Int_Tables_number      122
_space_group_name_Hall           'I -4 2bw'
loop_
_symmetry_equiv_pos_site_id
_symmetry_equiv_pos_as_xyz
1 x,y,z
2 -x,-y,z
3 y,-x,-z
4 -y,x,-z
5 1/2-x,y,3/4-z
6 1/2+x,-y,3/4-z
7 1/2-y,-x,3/4+z
8 1/2+y,x,3/4+z
9 1/2+x,1/2+y,1/2+z
10 1/2-x,1/2-y,1/2+z
11 1/2+y,1/2-x,1/2-z
12 1/2-y,1/2+x,1/2-z
13 -x,1/2+y,1/4-z
14 x,1/2-y,1/4-z
15 -y,1/2-x,1/4+z
16 y,1/2+x,1/4+z
_cell_length_a                   29.1934(14)
_cell_length_b                   29.1934(14)
_cell_length_c                   10.5041(11)
_cell_angle_alpha                90
_cell_angle_beta                 90
_cell_angle_gamma                90
_cell_volume                     8952.17
loop_
_atom_site_label
_atom_site_type_symbol
_atom_site_fract_x
_atom_site_fract_y
_atom_site_fract_z
_atom_site_U_iso_or_equiv
_atom_site_thermal_displace_type
Eu1 Eu 0.391838(11) 0.683313(11) 0.21445(3) 0.0145 Uani
C1 C 0.3419(3) 0.6015(2) 0.1883(7) 0.0240 Uani
C2 C 0.3078(3) 0.5666(3) 0.1609(8) 0.0267 Uani
C3 C 0.2639(3) 0.5631(3) 0.2012(11) 0.0427 Uani
H1 H 0.2478 0.5847 0.2519 0.0510 Uiso
C4 C 0.2467(3) 0.5212(3) 0.1535(9) 0.0423 Uani
H2 H 0.2171 0.5086 0.1675 0.0500 Uiso
C5 C 0.2812(2) 0.5028(3) 0.0835(8) 0.0230 Uani
C6 C 0.2826(2) 0.4595(2) 0.0098(6) 0.0183 Uani
C7 C 0.3241(2) 0.7763(2) 0.2680(6) 0.0187 Uani
C8 C 0.2828(3) 0.7968(3) 0.3248(7) 0.0210 Uani
C9 C 0.2705(3) 0.8414(3) 0.3418(8) 0.0267 Uani
H3 H 0.2870 0.8675 0.3135 0.0320 Uiso
C10 C 0.4910(3) 0.6216(3) 0.2527(9) 0.0420 Uani
H4 H 0.4881 0.6215 0.1626 0.0500 Uiso
C11 C 0.5303(5) 0.6013(5) 0.3070(14) 0.0760 Uani
H5 H 0.5542 0.5893 0.2555 0.0910 Uiso
C12 C 0.5327(5) 0.5996(5) 0.4405(14) 0.0757 Uani
H6 H 0.5581 0.5853 0.4804 0.0910 Uiso
C13 C 0.4979(3) 0.6189(4) 0.5157(10) 0.0503 Uani
C14 C 0.4975(4) 0.6174(4) 0.6527(11) 0.0573 Uani
H7 H 0.5229 0.6046 0.6967 0.0690 Uiso
C15 C 0.4629(4) 0.6332(3) 0.7172(11) 0.0520 Uani
H8 H 0.4635 0.6313 0.8074 0.0630 Uiso
C16 C 0.4243(4) 0.6532(3) 0.6575(9) 0.0423 Uani
C17 C 0.3854(5) 0.6700(4) 0.7220(12) 0.0633 Uani
H9 H 0.3848 0.6696 0.8124 0.0760 Uiso
C18 C 0.3485(5) 0.6867(5) 0.6576(12) 0.0707 Uani
H10 H 0.3215 0.6962 0.7007 0.0850 Uiso
C19 C 0.3521(4) 0.6891(4) 0.5234(10) 0.0547 Uani
H11 H 0.3269 0.7009 0.4768 0.0650 Uiso
C20 C 0.4241(3) 0.6571(3) 0.5229(8) 0.0310 Uani
C21 C 0.4616(3) 0.6386(3) 0.4510(9) 0.0340 Uani
N1 N 0.4585(2) 0.6404(2) 0.3199(6) 0.0277 Uani
N2 N 0.3888(3) 0.6760(2) 0.4595(6) 0.0337 Uani
O1 O 0.31741(18) 0.45011(16) -0.0534(4) 0.0207 Uani
O2 O 0.24614(17) 0.43484(16) 0.0169(5) 0.0223 Uani
O3 O 0.31876(17) 0.52981(16) 0.0863(5) 0.0203 Uani
O4 O 0.38152(17) 0.60115(18) 0.1376(5) 0.0260 Uani
O5 O 0.3292(2) 0.6340(2) 0.2635(6) 0.0397 Uani
O6 O 0.33034(17) 0.73427(18) 0.2733(5) 0.0253 Uani
O7 O 0.35179(18) 0.80549(17) 0.2209(5) 0.0247 Uani
O8 O 0.2500 0.7692(2) 0.3750 0.0183 Uani
C7D C 0.1759(2) 0.7763(2) 0.4820(6) 0.0187 Uani
C8D C 0.2172(3) 0.7968(3) 0.4252(7) 0.0210 Uani
C9D C 0.2295(3) 0.8414(3) 0.4082(8) 0.0267 Uani
H3D H 0.2130 0.8675 0.4365 0.0320 Uiso
O6D O 0.16966(17) 0.73427(18) 0.4767(5) 0.0253 Uani
O7D O 0.14821(18) 0.80549(17) 0.5291(5) 0.0247 Uani
Eu1B Eu 0.683313(11) 0.608162(11) -0.21445(3) 0.0145 Uani
C1B C 0.6015(2) 0.6581(3) -0.1883(7) 0.0240 Uani
C2B C 0.5666(3) 0.6922(3) -0.1609(8) 0.0267 Uani
C3B C 0.5631(3) 0.7361(3) -0.2012(11) 0.0427 Uani
H1B H 0.5847 0.7522 -0.2519 0.0510 Uiso
C4B C 0.5212(3) 0.7533(3) -0.1535(9) 0.0423 Uani
H2B H 0.5086 0.7829 -0.1675 0.0500 Uiso
C5B C 0.5028(3) 0.7188(2) -0.0835(8) 0.0230 Uani
C6B C 0.4595(2) 0.7174(2) -0.0098(6) 0.0183 Uani
C10B C 0.6216(3) 0.5090(3) -0.2527(9) 0.0420 Uani
H4B H 0.6215 0.5119 -0.1626 0.0500 Uiso
C11B C 0.6013(5) 0.4697(5) -0.3070(14) 0.0760 Uani
H5B H 0.5893 0.4458 -0.2555 0.0910 Uiso
C12B C 0.5996(5) 0.4673(5) -0.4405(14) 0.0757 Uani
H6B H 0.5853 0.4419 -0.4804 0.0910 Uiso
C13B C 0.6189(4) 0.5021(3) -0.5157(10) 0.0503 Uani
C14B C 0.6174(4) 0.5025(4) -0.6527(11) 0.0573 Uani
H7B H 0.6046 0.4771 -0.6967 0.0690 Uiso
C15B C 0.6332(3) 0.5371(4) -0.7172(11) 0.0520 Uani
H8B H 0.6313 0.5365 -0.8074 0.0630 Uiso
C16B C 0.6532(3) 0.5757(4) -0.6575(9) 0.0423 Uani
C17B C 0.6700(4) 0.6146(5) -0.7220(12) 0.0633 Uani
H9B H 0.6696 0.6152 -0.8124 0.0760 Uiso
C18B C 0.6867(5) 0.6515(5) -0.6576(12) 0.0707 Uani
H10B H 0.6962 0.6785 -0.7007 0.0850 Uiso
C19B C 0.6891(4) 0.6479(4) -0.5234(10) 0.0547 Uani
H11B H 0.7009 0.6731 -0.4768 0.0650 Uiso
C20B C 0.6571(3) 0.5759(3) -0.5229(8) 0.0310 Uani
C21B C 0.6386(3) 0.5384(3) -0.4510(9) 0.0340 Uani
N1B N 0.6404(2) 0.5415(2) -0.3199(6) 0.0277 Uani
N2B N 0.6760(2) 0.6112(3) -0.4595(6) 0.0337 Uani
O1B O 0.45011(16) 0.68259(18) 0.0534(4) 0.0207 Uani
O2B O 0.43484(16) 0.75386(17) -0.0169(5) 0.0223 Uani
O3B O 0.52981(16) 0.68124(17) -0.0863(5) 0.0203 Uani
O4B O 0.60115(18) 0.61848(17) -0.1376(5) 0.0260 Uani
O5B O 0.6340(2) 0.6708(2) -0.2635(6) 0.0397 Uani
Eu1C Eu 0.316687(11) 0.391838(11) -0.21445(3) 0.0145 Uani
Eu1D Eu 0.108162(11) 0.683313(11) 0.53555(3) 0.0145 Uani
Eu1G Eu 0.183313(11) 0.391838(11) -0.03555(3) 0.0145 Uani
Eu1I Eu 0.108162(11) 0.816687(11) 0.71445(3) 0.0145 Uani
Eu1M Eu 0.391838(11) 0.816687(11) 0.03555(3) 0.0145 Uani
O1A O 0.68259(18) 0.54989(16) -0.0534(4) 0.0207 Uani
O2E O 0.74614(17) 0.56516(16) -0.2669(5) 0.0223 Uani
O2O O 0.43484(16) 0.74614(17) 0.2669(5) 0.0223 Uani
O6B O 0.73427(18) 0.66966(17) -0.2733(5) 0.0253 Uani
O7F O 0.69451(17) 0.64821(18) -0.0291(5) 0.0247 Uani
O7M O 0.35179(18) 0.69451(17) 0.0291(5) 0.0247 Uani
O9 O 0.4412(3) 0.5378(3) -0.0041(10) 0.0797 Uani
H12 H 0.4636 0.5428 0.0450 0.0960 Uiso
H13 H 0.4240 0.5562 0.0364 0.0960 Uiso
loop_
_atom_site_aniso_label
_atom_site_aniso_U_11
_atom_site_aniso_U_22
_atom_site_aniso_U_33
_atom_site_aniso_U_23
_atom_site_aniso_U_13
_atom_site_aniso_U_12
Eu1 0.00988(16) 0.01194(17) 0.02165(14) -0.00348(13) 0.00003(13) -0.00202(13)
C1 0.026(3) 0.012(3) 0.034(3) -0.004(3) 0.002(3) -0.009(3)
C2 0.019(4) 0.023(4) 0.038(4) -0.011(3) 0.002(3) -0.010(3)
C3 0.028(5) 0.028(4) 0.072(6) -0.023(5) 0.017(5) -0.013(4)
C4 0.033(4) 0.034(4) 0.060(5) -0.015(4) 0.012(4) -0.020(4)
C5 0.017(3) 0.015(3) 0.037(3) -0.005(3) -0.002(3) -0.010(3)
C6 0.017(3) 0.018(3) 0.020(3) 0.003(3) -0.006(2) -0.006(3)
C7 0.011(3) 0.022(4) 0.023(3) -0.007(3) 0.003(3) -0.009(3)
C8 0.017(4) 0.025(4) 0.021(3) 0.000(3) 0.001(3) -0.004(3)
C9 0.019(4) 0.023(4) 0.038(4) 0.005(3) 0.013(3) 0.001(3)
C10 0.033(4) 0.047(5) 0.046(4) 0.015(4) -0.003(3) 0.011(4)
C11 0.072(5) 0.079(5) 0.077(5) 0.004(3) 0.001(3) 0.009(3)
C12 0.072(5) 0.079(5) 0.076(5) 0.009(3) -0.006(3) 0.006(3)
C13 0.039(5) 0.060(7) 0.052(6) 0.021(5) -0.016(5) -0.009(5)
C14 0.052(4) 0.061(5) 0.059(4) 0.011(4) -0.026(4) -0.008(4)
C15 0.063(5) 0.047(5) 0.046(4) 0.005(4) -0.013(4) -0.020(4)
C16 0.061(5) 0.028(4) 0.038(4) 0.003(3) -0.008(4) -0.012(4)
C17 0.069(4) 0.064(4) 0.057(4) -0.003(3) 0.004(3) -0.001(3)
C18 0.075(4) 0.071(4) 0.066(4) 0.001(3) 0.006(3) 0.008(3)
C19 0.064(5) 0.054(5) 0.046(4) 0.007(4) 0.021(4) 0.018(4)
C20 0.048(5) 0.016(4) 0.029(4) -0.004(3) -0.008(4) -0.013(4)
C21 0.033(5) 0.028(4) 0.041(4) 0.010(4) -0.018(4) -0.013(4)
N1 0.017(3) 0.027(4) 0.039(4) 0.010(3) -0.006(3) -0.003(3)
N2 0.056(5) 0.026(3) 0.019(2) 0.001(3) 0.008(3) 0.001(3)
O1 0.020(2) 0.014(2) 0.028(2) -0.0036(19) 0.000(2) -0.005(2)
O2 0.018(3) 0.014(2) 0.035(3) 0.000(2) -0.006(2) -0.011(2)
O3 0.013(2) 0.013(2) 0.035(3) -0.0038(19) 0.001(2) -0.007(2)
O4 0.015(3) 0.022(3) 0.041(3) -0.004(2) 0.001(2) 0.000(2)
O5 0.036(4) 0.028(3) 0.055(4) -0.025(3) 0.020(3) -0.019(3)
O6 0.014(2) 0.028(3) 0.034(3) -0.007(2) 0.003(2) 0.000(2)
O7 0.020(3) 0.022(3) 0.032(3) -0.008(2) 0.014(2) -0.009(2)
O8 0.008(3) 0.020(4) 0.027(3) 0.000 0.005(3) 0.000
C7D 0.011 0.022 0.023 0.007 0.003 0.009
C8D 0.017 0.025 0.021 0 0.001 0.004
C9D 0.019 0.023 0.038 -0.005 0.013 -0.001
O6D 0.014 0.028 0.034 0.007 0.003 0
O7D 0.02 0.022 0.032 0.008 0.014 0.009
Eu1B 0.01194 0.00988 0.02165 3e-05 0.00348 0.00202
C1B 0.012 0.026 0.034 0.002 0.004 0.009
C2B 0.023 0.019 0.038 0.002 0.011 0.01
C3B 0.028 0.028 0.072 0.017 0.023 0.013
C4B 0.034 0.033 0.06 0.012 0.015 0.02
C5B 0.015 0.017 0.037 -0.002 0.005 0.01
C6B 0.018 0.017 0.02 -0.006 -0.003 0.006
C10B 0.047 0.033 0.046 -0.003 -0.015 -0.011
C11B 0.079 0.072 0.077 0.001 -0.004 -0.009
C12B 0.079 0.072 0.076 -0.006 -0.009 -0.006
C13B 0.06 0.039 0.052 -0.016 -0.021 0.009
C14B 0.061 0.052 0.059 -0.026 -0.011 0.008
C15B 0.047 0.063 0.046 -0.013 -0.005 0.02
C16B 0.028 0.061 0.038 -0.008 -0.003 0.012
C17B 0.064 0.069 0.057 0.004 0.003 0.001
C18B 0.071 0.075 0.066 0.006 -0.001 -0.008
C19B 0.054 0.064 0.046 0.021 -0.007 -0.018
C20B 0.016 0.048 0.029 -0.008 0.004 0.013
C21B 0.028 0.033 0.041 -0.018 -0.01 0.013
N1B 0.027 0.017 0.039 -0.006 -0.01 0.003
N2B 0.026 0.056 0.019 0.008 -0.001 -0.001
O1B 0.014 0.02 0.028 0 0.0036 0.005
O2B 0.014 0.018 0.035 -0.006 0 0.011
O3B 0.013 0.013 0.035 0.001 0.0038 0.007
O4B 0.022 0.015 0.041 0.001 0.004 0
O5B 0.028 0.036 0.055 0.02 0.025 0.019
Eu1C 0.01194 0.00988 0.02165 -3e-05 -0.00348 0.00202
Eu1D 0.00988 0.01194 0.02165 0.00348 3e-05 0.00202
Eu1G 0.01194 0.00988 0.02165 3e-05 -0.00348 -0.00202
Eu1I 0.00988 0.01194 0.02165 0.00348 -3e-05 -0.00202
Eu1M 0.00988 0.01194 0.02165 -0.00348 -3e-05 0.00202
O1A 0.02 0.014 0.028 0.0036 0 -0.005
O2E 0.018 0.014 0.035 0 0.006 0.011
O2O 0.014 0.018 0.035 -0.006 0 -0.011
O6B 0.028 0.014 0.034 0.003 0.007 0
O7F 0.022 0.02 0.032 -0.014 0.008 -0.009
O7M 0.02 0.022 0.032 -0.008 -0.014 0.009
O9 0.049(5) 0.070(6) 0.120(8) -0.045(6) 0.002(5) 0.014(4)
loop_
_geom_bond_atom_site_label_1
_geom_bond_atom_site_label_2
_geom_bond_site_symmetry_1
_geom_bond_site_symmetry_2
Eu1 N1 1_555 1_555
C1 C2 1_555 1_555
C2 C3 1_555 1_555
C3 H1 1_555 1_555
C4 C3 1_555 1_555
H2 C4 1_555 1_555
C5 C4 1_555 1_555
C6 C5 1_555 1_555
C7 C8 1_555 1_555
C8 C9 1_555 1_555
C9 H3 1_555 1_555
C10 H4 1_555 1_555
C11 C10 1_555 1_555
H5 C11 1_555 1_555
C12 C11 1_555 1_555
H6 C12 1_555 1_555
C13 C12 1_555 1_555
C14 C13 1_555 1_555
H7 C14 1_555 1_555
C15 C14 1_555 1_555
H8 C15 1_555 1_555
C16 C15 1_555 1_555
C17 C16 1_555 1_555
H9 C17 1_555 1_555
C18 C17 1_555 1_555
H10 C18 1_555 1_555
C19 C18 1_555 1_555
H11 C19 1_555 1_555
C20 C16 1_555 1_555
C21 C13 1_555 1_555
N1 C10 1_555 1_555
N2 Eu1 1_555 1_555
O1 C6 1_555 1_555
O2 C6 1_555 1_555
O3 C2 1_555 1_555
O4 Eu1 1_555 1_555
O5 Eu1 1_555 1_555
O6 Eu1 1_555 1_555
O7 C7 1_555 1_555
O8 C8 1_555 1_555
O9 H12 1_555 1_555
H13 O9 1_555 1_555
C7D C8D 1_555 1_555
C8D O8 1_555 1_555
C9D C9 1_555 1_555
H3D C9D 1_555 1_555
O6D C7D 1_555 1_555
O7D C7D 1_555 1_555
Eu1B N1B 1_555 1_555
C1B C2B 1_555 1_555
C2B C3B 1_555 1_555
C3B H1B 1_555 1_555
C4B C3B 1_555 1_555
H2B C4B 1_555 1_555
C5B C4B 1_555 1_555
C6B C5B 1_555 1_555
C10B H4B 1_555 1_555
C11B C10B 1_555 1_555
H5B C11B 1_555 1_555
C12B C11B 1_555 1_555
H6B C12B 1_555 1_555
C13B C12B 1_555 1_555
C14B C13B 1_555 1_555
H7B C14B 1_555 1_555
C15B C14B 1_555 1_555
H8B C15B 1_555 1_555
C16B C15B 1_555 1_555
C17B C16B 1_555 1_555
H9B C17B 1_555 1_555
C18B C17B 1_555 1_555
H10B C18B 1_555 1_555
C19B C18B 1_555 1_555
H11B C19B 1_555 1_555
C20B C16B 1_555 1_555
C21B C13B 1_555 1_555
N1B C10B 1_555 1_555
N2B Eu1B 1_555 1_555
O1B Eu1 1_555 1_555
O2B C6B 1_555 1_555
O3B C2B 1_555 1_555
O4B Eu1B 1_555 1_555
O5B Eu1B 1_555 1_555
Eu1C O1 1_555 1_555
Eu1D O6D 1_555 1_555
Eu1G O2 1_555 1_555
Eu1I O7D 1_555 1_555
Eu1M O7 1_555 1_555
O1A Eu1B 1_555 1_555
O2E Eu1B 1_555 1_555
O2O Eu1 1_555 1_555
O6B Eu1B 1_555 1_555
O7F Eu1B 1_555 1_555
O7M Eu1 1_555 1_555
C1 O4 1_555 1_555
C1 O5 1_555 1_555
C5 O3 1_555 1_555
C7 O6 1_555 1_555
C19 N2 1_555 1_555
C20 C21 1_555 1_555
C20 N2 1_555 1_555
C21 N1 1_555 1_555
C8D C9D 1_555 1_555
C1B O4B 1_555 1_555
C1B O5B 1_555 1_555
C5B O3B 1_555 1_555
C6B O1B 1_555 1_555
C19B N2B 1_555 1_555
C20B C21B 1_555 1_555
C20B N2B 1_555 1_555
C21B N1B 1_555 1_555
O2B Eu1M 1_555 1_555

#END
