
#######################################################################
#
#                 Cambridge Crystallographic Data Centre
#                                CCDC 
#
#######################################################################
#
# If this CIF has been generated from an entry in the Cambridge 
# Structural Database, then it will include bibliographic, chemical, 
# crystal, experimental, refinement or atomic coordinate data resulting 
# from the CCDC's data processing and validation procedures.
#
#######################################################################

data_AYOQEM
_chemical_formula_moiety         '(C138 H126 Cu12 N6 O60)n'
_symmetry_cell_setting           rhombohedral
_symmetry_space_group_name_H-M   'R -3 c'
_symmetry_Int_Tables_number      167
_space_group_name_Hall           '-P 3* 2n'
loop_
_symmetry_equiv_pos_site_id
_symmetry_equiv_pos_as_xyz
1 x,y,z
2 z,x,y
3 y,z,x
4 1/2-y,1/2-x,1/2-z
5 1/2-x,1/2-z,1/2-y
6 1/2-z,1/2-y,1/2-x
7 -x,-y,-z
8 -z,-x,-y
9 -y,-z,-x
10 1/2+y,1/2+x,1/2+z
11 1/2+x,1/2+z,1/2+y
12 1/2+z,1/2+y,1/2+x
_cell_length_a                   45.8487(17)
_cell_length_b                   45.8487(17)
_cell_length_c                   45.8487(17)
_cell_angle_alpha                33.465(2)
_cell_angle_beta                 33.465(2)
_cell_angle_gamma                33.465(2)
_cell_volume                     26099.7
loop_
_atom_site_label
_atom_site_type_symbol
_atom_site_fract_x
_atom_site_fract_y
_atom_site_fract_z
Cu1 Cu 0.68653(4) 0.24886(4) 0.15644(4)
O1 O 0.6091(2) 0.2725(2) 0.2213(2)
Cu2 Cu 0.70865(4) 0.14265(4) 0.24505(4)
O2 O 0.6620(3) 0.3359(3) 0.0866(3)
O3 O 0.6569(3) 0.2237(3) 0.1676(3)
O4 O 0.7204(3) 0.2569(3) 0.1581(3)
O5 O 0.7669(2) 0.2098(2) 0.1059(2)
C1 C 0.5948(3) 0.2354(3) 0.2757(3)
O6 O 0.7324(3) 0.0554(4) 0.3155(3)
O7 O 0.6268(2) 0.1804(2) 0.2968(2)
O8 O 0.7862(3) 0.1206(3) 0.1814(3)
O9 O 0.6791(3) 0.1329(3) 0.2399(3)
O10 O 0.7340(3) 0.1697(3) 0.2371(3)
C2 C 0.6576(4) 0.1736(4) 0.2063(4)
C3 C 0.7372(4) 0.2165(4) 0.1963(4)
C4 C 0.8010(4) 0.1556(4) 0.1264(4)
C5 C 0.5334(3) 0.2588(4) 0.3179(4)
C6 C 0.7221(10) 0.0575(10) 0.3449(11)
C7 C 0.6319(4) 0.1641(4) 0.2080(4)
C8 C 0.7663(4) 0.2278(4) 0.1896(4)
C9 C 0.8614(4) 0.1334(4) 0.0853(4)
H1 H 0.5197 0.2322 0.3577
C10 C 0.4975(3) 0.3155(4) 0.3018(3)
H2 H 0.6844 0.0868 0.3569
N1 N 0.7545(8) 0.0248(8) 0.3681(9)
C11 C 0.6122(4) 0.2018(4) 0.1722(4)
H3 H 0.6300 0.1284 0.2370
H4 H 0.7700 0.2627 0.1584
C12 C 0.7857(4) 0.1913(4) 0.2251(4)
C13 C 0.9021(4) 0.0783(4) 0.1008(4)
H5 H 0.8725 0.1597 0.0450
H6 H 0.5138 0.3406 0.2621
C14 C 0.4339(3) 0.3452(3) 0.3385(3)
C15 C 0.8179(9) -0.0159(10) 0.3458(11)
C16 C 0.7391(10) 0.0463(11) 0.3934(11)
H7 H 0.6179 0.2354 0.1413
C17 C 0.5814(4) 0.1983(3) 0.1740(4)
H8 H 0.7801 0.1575 0.2564
C18 C 0.8158(4) 0.1962(4) 0.2223(4)
H9 H 0.8895 0.0526 0.1412
C19 C 0.9664(4) 0.0521(4) 0.0609(4)
C20 C 0.4011(3) 0.4045(3) 0.3115(3)
H10 H 0.8258 -0.0545 0.3785
H11 H 0.8409 -0.0011 0.3251
H12 H 0.8284 -0.0188 0.3192
H13 H 0.7288 0.0878 0.3681
H14 H 0.7725 0.0245 0.3961
H15 H 0.7059 0.0405 0.4322
C21 C 0.5693(4) 0.1515(4) 0.2166(4)
C22 C 0.5640(5) 0.2435(4) 0.1308(4)
C23 C 0.8289(4) 0.2432(4) 0.1775(4)
C24 C 0.8346(4) 0.1505(4) 0.2659(4)
C25 C 0.9923(4) 0.0869(4) 0.0002(4)
H16 H 0.4196 0.4262 0.2707
H17 H 0.5813 0.1204 0.2459
C26 C 0.5409(4) 0.1482(4) 0.2185(4)
C27 C 0.5330(4) 0.2448(4) 0.1303(4)
H18 H 0.5734 0.2745 0.1007
C28 C 0.8575(4) 0.2458(4) 0.1768(4)
H19 H 0.8183 0.2734 0.1475
C29 C 0.8642(4) 0.1508(4) 0.2656(4)
H20 H 0.8264 0.1186 0.2962
H21 H 0.9691 0.1274 -0.0173
C30 C 0.5275(4) 0.0983(4) 0.2666(4)
C31 C 0.5223(5) 0.1940(4) 0.1764(4)
C32 C 0.5107(4) 0.2942(4) 0.0872(4)
C33 C 0.8694(4) 0.2980(4) 0.1285(4)
C34 C 0.8758(4) 0.1998(4) 0.2203(4)
C35 C 0.8855(4) 0.1003(4) 0.3106(4)
C36 C 0.5388(4) 0.0525(4) 0.3103(4)
H22 H 0.5069 0.1008 0.2644
H23 H 0.5025 0.1925 0.1773
C37 C 0.5201(5) 0.3402(5) 0.0421(5)
H24 H 0.4874 0.2924 0.0929
C38 C 0.8881(4) 0.3107(4) 0.1255(4)
H25 H 0.8622 0.3239 0.0973
H26 H 0.8954 0.2014 0.2196
H27 H 0.8728 0.0717 0.3415
C39 C 0.9185(5) 0.0915(4) 0.3122(4)
H28 H 0.5616 0.0475 0.3120
C40 C 0.5201(4) 0.0052(3) 0.3595(4)
H29 H 0.5445 0.3418 0.0351
C41 C 0.4940(4) 0.3921(4) -0.0008(4)
H30 H 0.8896 0.2888 0.1590
C42 C 0.9081(4) 0.3579(4) 0.0726(4)
C43 C 0.9386(4) 0.0393(4) 0.3590(4)
H31 H 0.9315 0.1198 0.2819
O11 O 0.4922(3) 0.0094(3) 0.3568(3)
O12 O 0.5313(3) -0.0330(3) 0.4028(3)
O13 O 0.4649(3) 0.3867(3) 0.0079(3)
O14 O 0.5084(4) 0.4324(3) -0.0400(3)
O15 O 0.9352(3) 0.3567(3) 0.0736(3)
O16 O 0.8943(3) 0.3952(3) 0.0326(3)
O17 O 0.9242(3) -0.0010(3) 0.3982(3)
O18 O 0.9726(3) 0.0377(3) 0.3524(3)
Cu3 Cu 0.45590(5) -0.04443(5) 0.42535(5)
Cu4 Cu 0.50695(5) -0.09525(5) 0.47452(5)
O19 O 1.0194(3) 0.3573(3) 0.0477(3)
O20 O 0.8844(4) 0.4963(4) -0.0846(4)
C44 C 0.9979(6) 0.3389(5) 0.0991(6)
N2 N 1.0299(5) 0.2992(5) 0.1264(5)
H32 H 0.9570 0.3524 0.1216
C45 C 0.9994(8) 0.2772(9) 0.1924(8)
C46 C 1.0970(7) 0.2715(9) 0.0945(8)
H33 H 1.0201 0.2346 0.2116
H34 H 0.9591 0.2895 0.2099
H35 H 1.0000 0.2935 0.1971
H36 H 1.1116 0.2804 0.0572
H37 H 1.1130 0.2293 0.1185
H38 H 1.1091 0.2874 0.0874
C20B C 0.4045(3) 0.3115(3) 0.4011(3)
C25A C 1.0002(4) -0.0077(4) 0.0869(4)
C14A C 0.3385(3) 0.4339(3) 0.3452(3)
C14B C 0.3452(3) 0.3385(3) 0.4339(3)
H16B H 0.4262 0.2707 0.4196
C19B C 1.0521(4) 0.0609(4) -0.0336(4)
H21A H 0.9827 -0.0309 0.1274
C19A C 1.0609(4) -0.0336(4) 0.0521(4)
C10A C 0.3018(3) 0.4975(3) 0.3155(4)
C20A C 0.3115(3) 0.4011(3) 0.4045(3)
C10B C 0.3155(4) 0.3018(3) 0.4975(3)
C13B C 1.0783(4) 0.1008(4) -0.0979(4)
C25B C 1.0869(4) 0.0002(4) -0.0077(4)
C13A C 1.1008(4) -0.0979(4) 0.0783(4)
C5A C 0.3179(4) 0.5334(3) 0.2588(4)
H6A H 0.2621 0.5138 0.3406
H16A H 0.2707 0.4196 0.4262
C5B C 0.2588(4) 0.3179(4) 0.5334(3)
H6B H 0.3406 0.2621 0.5138
H9B H 1.0526 0.1412 -0.1105
C9B C 1.1334(4) 0.0853(4) -0.1386(4)
H21B H 1.1274 -0.0173 -0.0309
H9A H 1.1412 -0.1105 0.0526
C9A C 1.0853(4) -0.1386(4) 0.1334(4)
H1A H 0.3577 0.5197 0.2322
C1A C 0.2757(3) 0.5948(3) 0.2354(3)
H1B H 0.2322 0.3577 0.5197
C1B C 0.2354(3) 0.2757(3) 0.5948(3)
H5B H 1.1597 0.0450 -0.1275
C4B C 1.1556(4) 0.1264(4) -0.1990(4)
H5A H 1.0450 -0.1275 0.1597
C4A C 1.1264(4) -0.1990(4) 0.1556(4)
O1A O 0.2213(2) 0.6091(2) 0.2725(2)
O7A O 0.2968(2) 0.6268(2) 0.1804(2)
O1B O 0.2725(2) 0.2213(2) 0.6091(2)
O7B O 0.1804(2) 0.2968(2) 0.6268(2)
O8B O 1.1206(3) 0.1814(3) -0.2138(3)
O5B O 1.2098(2) 0.1059(2) -0.2331(2)
O8A O 1.1814(3) -0.2138(3) 0.1206(3)
O5A O 1.1059(2) -0.2331(2) 0.2098(2)
Cu1A Cu 0.15644(4) 0.68653(4) 0.24886(4)
Cu2A Cu 0.24505(4) 0.70865(4) 0.14265(4)
Cu1B Cu 0.24886(4) 0.15644(4) 0.68653(4)
Cu2B Cu 0.14265(4) 0.24505(4) 0.70865(4)
Cu3A Cu 0.42535(5) 0.45590(5) -0.04443(5)
Cu4A Cu 0.47452(5) 0.50695(5) -0.09525(5)
Cu4K Cu 0.97452(5) 0.40475(5) 0.00695(5)
Cu3K Cu 0.92535(5) 0.45557(5) -0.04410(5)
Cu3J Cu 0.95590(5) -0.07465(5) 0.45557(5)
Cu4J Cu 1.00695(5) -0.02548(5) 0.40475(5)
Cu2B_2 Cu 1.14265(4) 0.24505(4) -0.29135(4)
Cu1B_2 Cu 1.24886(4) 0.15644(4) -0.31347(4)
Cu2A_2 Cu 1.24505(4) -0.29135(4) 0.14265(4)
Cu1A_2 Cu 1.15644(4) -0.31347(4) 0.24886(4)
O2A O 0.0866(3) 0.6620(3) 0.3359(3)
O3A O 0.1676(3) 0.6569(3) 0.2237(3)
O4A O 0.1581(3) 0.7204(3) 0.2569(3)
O5A_2 O 0.1059(2) 0.7669(2) 0.2098(2)
O6A O 0.3155(3) 0.7324(3) 0.0554(4)
O9A O 0.2399(3) 0.6791(3) 0.1329(3)
O10A O 0.2371(3) 0.7340(3) 0.1697(3)
O8A_2 O 0.1814(3) 0.7862(3) 0.1206(3)
O2B O 0.3359(3) 0.0866(3) 0.6620(3)
O3B O 0.2237(3) 0.1676(3) 0.6569(3)
O4B O 0.2569(3) 0.1581(3) 0.7204(3)
O5B_2 O 0.2098(2) 0.1059(2) 0.7669(2)
O6B O 0.0554(4) 0.3155(3) 0.7324(3)
O9B O 0.1329(3) 0.2399(3) 0.6791(3)
O10B O 0.1697(3) 0.2371(3) 0.7340(3)
O8B_2 O 0.1206(3) 0.1814(3) 0.7862(3)
O13B O 0.3867(3) 0.0079(3) 0.4649(3)
O14B O 0.4324(3) -0.0400(3) 0.5084(4)
O11A O 0.3568(3) 0.4922(3) 0.0094(3)
O12A O 0.4028(3) 0.5313(3) -0.0330(3)
O12K O 0.9028(3) 0.4670(3) 0.0313(3)
O18B O 1.0377(3) 0.3524(3) -0.0274(3)
O14J O 1.0084(4) 0.4600(3) -0.0676(3)
O17B O 0.9990(3) 0.3982(3) -0.0758(3)
O11K O 0.8568(3) 0.5094(3) -0.0078(3)
O13J O 0.9649(3) 0.5079(3) -0.1133(3)
C2A C 0.2063(4) 0.6576(4) 0.1736(4)
C3A C 0.1963(4) 0.7372(4) 0.2165(4)
C6A C 0.3449(11) 0.7221(10) 0.0575(10)
C2B C 0.1736(4) 0.2063(4) 0.6576(4)
C3B C 0.2165(4) 0.1963(4) 0.7372(4)
C6B C 0.0575(10) 0.3449(11) 0.7221(10)
C41B C 0.3921(4) -0.0008(4) 0.4940(4)
C40A C 0.3595(4) 0.5201(4) 0.0052(3)
C7A C 0.2080(4) 0.6319(4) 0.1641(4)
C8A C 0.1896(4) 0.7663(4) 0.2278(4)
H2A H 0.3569 0.6844 0.0868
N1A N 0.3681(9) 0.7545(8) 0.0248(8)
C7B C 0.1641(4) 0.2080(4) 0.6319(4)
C8B C 0.2278(4) 0.1896(4) 0.7663(4)
H2B H 0.0868 0.3569 0.6844
N1B N 0.0248(8) 0.3681(9) 0.7545(8)
C37B C 0.3402(5) 0.0421(5) 0.5201(5)
C36A C 0.3103(4) 0.5388(4) 0.0525(4)
C11A C 0.1722(4) 0.6122(4) 0.2018(4)
H3A H 0.2370 0.6300 0.1284
H4A H 0.1584 0.7700 0.2627
C12A C 0.2251(4) 0.7857(4) 0.1913(4)
C15A C 0.3458(11) 0.8179(9) -0.0159(10)
C16A C 0.3934(11) 0.7391(10) 0.0463(11)
C11B C 0.2018(4) 0.1722(4) 0.6122(4)
H3B H 0.1284 0.2370 0.6300
H4B H 0.2627 0.1584 0.7700
C12B C 0.1913(4) 0.2251(4) 0.7857(4)
C15B C -0.0159(10) 0.3458(11) 0.8179(9)
C16B C 0.0463(11) 0.3934(11) 0.7391(10)
H29B H 0.3418 0.0351 0.5445
C32B C 0.2942(4) 0.0872(4) 0.5107(4)
H28A H 0.3120 0.5616 0.0475
C30A C 0.2666(4) 0.5275(4) 0.0983(4)
H7A H 0.1413 0.6179 0.2354
C17A C 0.1740(4) 0.5814(4) 0.1983(3)
H8A H 0.2564 0.7801 0.1575
C18A C 0.2223(4) 0.8158(4) 0.1962(4)
H10A H 0.3785 0.8258 -0.0545
H11A H 0.3251 0.8409 -0.0011
H12A H 0.3192 0.8284 -0.0188
H13A H 0.3681 0.7288 0.0878
H14A H 0.3961 0.7725 0.0245
H15A H 0.4322 0.7059 0.0405
H7B H 0.2354 0.1413 0.6179
C17B C 0.1983(3) 0.1740(4) 0.5814(4)
H8B H 0.1575 0.2564 0.7801
C18B C 0.1962(4) 0.2223(4) 0.8158(4)
H10B H -0.0545 0.3785 0.8258
H11B H -0.0011 0.3251 0.8409
H12B H -0.0188 0.3192 0.8284
H13B H 0.0878 0.3681 0.7288
H14B H 0.0245 0.3961 0.7725
H15B H 0.0405 0.4322 0.7059
H24B H 0.2924 0.0929 0.4874
C27B C 0.2448(4) 0.1303(4) 0.5330(4)
H22A H 0.2644 0.5069 0.1008
C26A C 0.2185(4) 0.5409(4) 0.1482(4)
C21A C 0.2166(4) 0.5693(4) 0.1515(4)
C22A C 0.1308(4) 0.5640(5) 0.2435(4)
C23A C 0.1775(4) 0.8289(4) 0.2432(4)
C24A C 0.2659(4) 0.8346(4) 0.1505(4)
C21B C 0.1515(4) 0.2166(4) 0.5693(4)
C22B C 0.2435(4) 0.1308(4) 0.5640(5)
C23B C 0.2432(4) 0.1775(4) 0.8289(4)
C24B C 0.1505(4) 0.2659(4) 0.8346(4)
C31B C 0.1940(4) 0.1764(4) 0.5223(5)
C31A C 0.1764(4) 0.5223(5) 0.1940(4)
H17A H 0.2459 0.5813 0.1204
C27A C 0.1303(4) 0.5330(4) 0.2448(4)
H18A H 0.1007 0.5734 0.2745
C28A C 0.1768(4) 0.8575(4) 0.2458(4)
H19A H 0.1475 0.8183 0.2734
C29A C 0.2656(4) 0.8642(4) 0.1508(4)
H20A H 0.2962 0.8264 0.1186
H17B H 0.1204 0.2459 0.5813
C26B C 0.1482(4) 0.2185(4) 0.5409(4)
H18B H 0.2745 0.1007 0.5734
C28B C 0.2458(4) 0.1768(4) 0.8575(4)
H19B H 0.2734 0.1475 0.8183
C29B C 0.1508(4) 0.2656(4) 0.8642(4)
H20B H 0.1186 0.2962 0.8264
H23B H 0.1925 0.1773 0.5025
H23A H 0.1773 0.5025 0.1925
C32A C 0.0872(4) 0.5107(4) 0.2942(4)
C33A C 0.1285(4) 0.8694(4) 0.2980(4)
C34A C 0.2203(4) 0.8758(4) 0.1998(4)
C35A C 0.3106(4) 0.8855(4) 0.1003(4)
C30B C 0.0983(4) 0.2666(4) 0.5275(4)
C33B C 0.2980(4) 0.1285(4) 0.8694(4)
C34B C 0.1998(4) 0.2203(4) 0.8758(4)
C35B C 0.1003(4) 0.3106(4) 0.8855(4)
C37A C 0.0421(5) 0.5201(5) 0.3402(5)
H24A H 0.0929 0.4874 0.2924
C38A C 0.1255(4) 0.8881(4) 0.3107(4)
H25A H 0.0973 0.8622 0.3239
H26A H 0.2196 0.8954 0.2014
H27A H 0.3415 0.8728 0.0717
C39A C 0.3122(4) 0.9185(5) 0.0915(4)
C36B C 0.0525(4) 0.3103(4) 0.5388(4)
H22B H 0.1008 0.2644 0.5069
C38B C 0.3107(4) 0.1255(4) 0.8881(4)
H25B H 0.3239 0.0973 0.8622
H26B H 0.2014 0.2196 0.8954
H27B H 0.0717 0.3415 0.8728
C39B C 0.0915(4) 0.3122(4) 0.9185(5)
H29A H 0.0351 0.5445 0.3418
C41A C -0.0008(4) 0.4940(4) 0.3921(4)
H30A H 0.1590 0.8896 0.2888
C42A C 0.0726(4) 0.9081(4) 0.3579(4)
C43A C 0.3590(4) 0.9386(4) 0.0393(4)
H31A H 0.2819 0.9315 0.1198
H28B H 0.0475 0.3120 0.5616
C40B C 0.0052(3) 0.3595(4) 0.5201(4)
H30B H 0.2888 0.1590 0.8896
C42B C 0.3579(4) 0.0726(4) 0.9081(4)
C43B C 0.0393(4) 0.3590(4) 0.9386(4)
H31B H 0.1198 0.2819 0.9315
O13A O 0.0079(3) 0.4649(3) 0.3867(3)
O14A O -0.0400(3) 0.5084(4) 0.4324(3)
O15A O 0.0736(3) 0.9352(3) 0.3567(3)
O16A O 0.0326(3) 0.8943(3) 0.3952(3)
O17A O 0.3982(3) 0.9242(3) -0.0010(3)
O18A O 0.3524(3) 0.9726(3) 0.0377(3)
O11B O 0.0094(3) 0.3568(3) 0.4922(3)
O12B O -0.0330(3) 0.4028(3) 0.5313(3)
O15B O 0.3567(3) 0.0736(3) 0.9352(3)
O16B O 0.3952(3) 0.0326(3) 0.8943(3)
O17B_2 O -0.0010(3) 0.3982(3) 0.9242(3)
O18B_2 O 0.0377(3) 0.3524(3) 0.9726(3)
Cu3B Cu -0.04443(5) 0.42535(5) 0.45590(5)
Cu4B Cu -0.09525(5) 0.47452(5) 0.50695(5)
Cu4J_2 Cu 0.00695(5) 0.97452(5) 0.40475(5)
Cu3J_2 Cu -0.04410(5) 0.92535(5) 0.45557(5)
Cu3I Cu 0.45557(5) 0.95590(5) -0.07465(5)
Cu4I Cu 0.40475(5) 1.00695(5) -0.02548(5)
Cu4I_2 Cu 0.40475(5) 0.00695(5) 0.97452(5)
Cu3I_2 Cu 0.45557(5) -0.04410(5) 0.92535(5)
Cu3K_2 Cu -0.07465(5) 0.45557(5) 0.95590(5)
Cu4K_2 Cu -0.02548(5) 0.40475(5) 1.00695(5)
O19A O 0.0477(3) 1.0194(3) 0.3573(3)
O12J O 0.0313(3) 0.9028(3) 0.4670(3)
O18_2 O -0.0274(3) 1.0377(3) 0.3524(3)
O14I O -0.0676(3) 1.0084(4) 0.4600(3)
O20A O -0.0846(4) 0.8844(4) 0.4963(4)
O17_2 O -0.0758(3) 0.9990(3) 0.3982(3)
O11J O -0.0078(3) 0.8568(3) 0.5094(3)
O13I O -0.1133(3) 0.9649(3) 0.5079(3)
O19B O 0.3573(3) 0.0477(3) 1.0194(3)
O12I O 0.4670(3) 0.0313(3) 0.9028(3)
O18A_2 O 0.3524(3) -0.0274(3) 1.0377(3)
O14K O 0.4600(3) -0.0676(3) 1.0084(4)
O20B O 0.4963(4) -0.0846(4) 0.8844(4)
O17A_2 O 0.3982(3) -0.0758(3) 0.9990(3)
O11I O 0.5094(3) -0.0078(3) 0.8568(3)
O13K O 0.5079(3) -0.1133(3) 0.9649(3)
C44A C 0.0991(6) 0.9979(6) 0.3389(5)
C44B C 0.3389(5) 0.0991(6) 0.9979(6)
N2A N 0.1264(5) 1.0299(5) 0.2992(5)
H32A H 0.1216 0.9570 0.3524
N2B N 0.2992(5) 0.1264(5) 1.0299(5)
H32B H 0.3524 0.1216 0.9570
C45A C 0.1924(8) 0.9994(8) 0.2772(9)
C46A C 0.0945(8) 1.0970(7) 0.2715(9)
C45B C 0.2772(9) 0.1924(8) 0.9994(8)
C46B C 0.2715(9) 0.0945(8) 1.0970(7)
H33A H 0.2116 1.0201 0.2346
H34A H 0.2099 0.9591 0.2895
H35A H 0.1971 1.0000 0.2935
H36A H 0.0572 1.1116 0.2804
H37A H 0.1185 1.1130 0.2293
H38A H 0.0874 1.1091 0.2874
H33B H 0.2346 0.2116 1.0201
H34B H 0.2895 0.2099 0.9591
H35B H 0.2935 0.1971 1.0000
H36B H 0.2804 0.0572 1.1116
H37B H 0.2293 0.1185 1.1130
H38B H 0.2874 0.0874 1.1091
loop_
_geom_bond_atom_site_label_1
_geom_bond_atom_site_label_2
_geom_bond_site_symmetry_1
_geom_bond_site_symmetry_2
Cu1 O1 1_555 1_555
O1 C1 1_555 1_555
Cu2 Cu1 1_555 1_555
O2 Cu1 1_555 1_555
O3 Cu1 1_555 1_555
O4 Cu1 1_555 1_555
O5 Cu1 1_555 1_555
C1 O7 1_555 1_555
O6 Cu2 1_555 1_555
O7 Cu2 1_555 1_555
O8 Cu2 1_555 1_555
O9 Cu2 1_555 1_555
O10 Cu2 1_555 1_555
C2 O3 1_555 1_555
C3 O4 1_555 1_555
C4 O5 1_555 1_555
C5 C1 1_555 1_555
C6 O6 1_555 1_555
C7 C2 1_555 1_555
C8 C3 1_555 1_555
C9 C4 1_555 1_555
H1 C5 1_555 1_555
C10 C5 1_555 1_555
H2 C6 1_555 1_555
N1 C6 1_555 1_555
C11 C7 1_555 1_555
H3 C7 1_555 1_555
H4 C8 1_555 1_555
C12 C8 1_555 1_555
C13 C9 1_555 1_555
H5 C9 1_555 1_555
H6 C10 1_555 1_555
C14 C10 1_555 1_555
C15 N1 1_555 1_555
C16 N1 1_555 1_555
H7 C11 1_555 1_555
C17 C11 1_555 1_555
H8 C12 1_555 1_555
C18 C12 1_555 1_555
H9 C13 1_555 1_555
C19 C13 1_555 1_555
C20 C14 1_555 1_555
H10 C15 1_555 1_555
H11 C15 1_555 1_555
H12 C15 1_555 1_555
H13 C16 1_555 1_555
H14 C16 1_555 1_555
H15 C16 1_555 1_555
C21 C17 1_555 1_555
C22 C17 1_555 1_555
C23 C18 1_555 1_555
C24 C18 1_555 1_555
C25 C19 1_555 1_555
H16 C20 1_555 1_555
H17 C21 1_555 1_555
C26 C21 1_555 1_555
C27 C22 1_555 1_555
H18 C22 1_555 1_555
C28 C23 1_555 1_555
H19 C23 1_555 1_555
C29 C24 1_555 1_555
H20 C24 1_555 1_555
H21 C25 1_555 1_555
C30 C26 1_555 1_555
C31 C26 1_555 1_555
C32 C27 1_555 1_555
C33 C28 1_555 1_555
C34 C28 1_555 1_555
C35 C29 1_555 1_555
C36 C30 1_555 1_555
H22 C30 1_555 1_555
H23 C31 1_555 1_555
C37 C32 1_555 1_555
H24 C32 1_555 1_555
C38 C33 1_555 1_555
H25 C33 1_555 1_555
H26 C34 1_555 1_555
H27 C35 1_555 1_555
C39 C35 1_555 1_555
H28 C36 1_555 1_555
C40 C36 1_555 1_555
H29 C37 1_555 1_555
C41 C37 1_555 1_555
H30 C38 1_555 1_555
C42 C38 1_555 1_555
C43 C39 1_555 1_555
H31 C39 1_555 1_555
O11 C40 1_555 1_555
O12 C40 1_555 1_555
O13 C41 1_555 1_555
O14 C41 1_555 1_555
O15 C42 1_555 1_555
O16 C42 1_555 1_555
O17 C43 1_555 1_555
O18 C43 1_555 1_555
Cu3 O11 1_555 1_555
Cu4 O12 1_555 1_555
O19 C44 1_555 1_555
O20 Cu3K 1_555 1_555
C44 N2 1_555 1_555
N2 C45 1_555 1_555
H32 C44 1_555 1_555
C45 H33 1_555 1_555
C46 N2 1_555 1_555
H34 C45 1_555 1_555
H35 C45 1_555 1_555
H36 C46 1_555 1_555
H37 C46 1_555 1_555
H38 C46 1_555 1_555
C20B C14 1_555 1_555
C25A C19 1_555 1_555
C14A C20 1_555 1_555
C14B C20B 1_555 1_555
H16B C20B 1_555 1_555
C19B C25 1_555 1_555
H21A C25A 1_555 1_555
C19A C25A 1_555 1_555
C10A C14A 1_555 1_555
C20A C14A 1_555 1_555
C10B C14B 1_555 1_555
C13B C19B 1_555 1_555
C25B C19B 1_555 1_555
C13A C19A 1_555 1_555
C5A C10A 1_555 1_555
H6A C10A 1_555 1_555
H16A C20A 1_555 1_555
C5B C10B 1_555 1_555
H6B C10B 1_555 1_555
H9B C13B 1_555 1_555
C9B C13B 1_555 1_555
H21B C25B 1_555 1_555
H9A C13A 1_555 1_555
C9A C13A 1_555 1_555
H1A C5A 1_555 1_555
C1A C5A 1_555 1_555
H1B C5B 1_555 1_555
C1B C5B 1_555 1_555
H5B C9B 1_555 1_555
C4B C9B 1_555 1_555
H5A C9A 1_555 1_555
C4A C9A 1_555 1_555
O1A C1A 1_555 1_555
O7A C1A 1_555 1_555
O1B C1B 1_555 1_555
O7B C1B 1_555 1_555
O8B C4B 1_555 1_555
O5B C4B 1_555 1_555
O8A C4A 1_555 1_555
O5A C4A 1_555 1_555
Cu1A O1A 1_555 1_555
Cu2A O7A 1_555 1_555
Cu1B O1B 1_555 1_555
Cu2B O7B 1_555 1_555
Cu3A O13 1_555 1_555
Cu4A O14 1_555 1_555
Cu4K O15 1_555 1_555
Cu3K O16 1_555 1_555
Cu3J O17 1_555 1_555
Cu4J O18 1_555 1_555
Cu2B_2 O8B 1_555 1_555
Cu1B_2 O5B 1_555 1_555
Cu2A_2 O8A 1_555 1_555
Cu1A_2 O5A 1_555 1_555
O2A Cu1A 1_555 1_555
O3A Cu1A 1_555 1_555
O4A Cu1A 1_555 1_555
O5A_2 Cu1A 1_555 1_555
O6A Cu2A 1_555 1_555
O9A Cu2A 1_555 1_555
O10A Cu2A 1_555 1_555
O8A_2 Cu2A 1_555 1_555
O2B Cu1B 1_555 1_555
O3B Cu1B 1_555 1_555
O4B Cu1B 1_555 1_555
O5B_2 Cu1B 1_555 1_555
O6B Cu2B 1_555 1_555
O9B Cu2B 1_555 1_555
O10B Cu2B 1_555 1_555
O8B_2 Cu2B 1_555 1_555
O13B Cu3 1_555 1_555
O14B Cu4 1_555 1_555
O11A Cu3A 1_555 1_555
O12A Cu4A 1_555 1_555
O12K Cu4K 1_555 1_555
O18B Cu4K 1_555 1_555
O14J Cu4K 1_555 1_555
O17B Cu3K 1_555 1_555
O11K Cu3K 1_555 1_555
O13J Cu3K 1_555 1_555
C2A O3A 1_555 1_555
C3A O4A 1_555 1_555
C6A O6A 1_555 1_555
C2B O3B 1_555 1_555
C3B O4B 1_555 1_555
C6B O6B 1_555 1_555
C41B O13B 1_555 1_555
C40A O11A 1_555 1_555
C7A C2A 1_555 1_555
C8A C3A 1_555 1_555
H2A C6A 1_555 1_555
N1A C6A 1_555 1_555
C7B C2B 1_555 1_555
C8B C3B 1_555 1_555
H2B C6B 1_555 1_555
N1B C6B 1_555 1_555
C37B C41B 1_555 1_555
C36A C40A 1_555 1_555
C11A C7A 1_555 1_555
H3A C7A 1_555 1_555
H4A C8A 1_555 1_555
C12A C8A 1_555 1_555
C15A N1A 1_555 1_555
C16A N1A 1_555 1_555
C11B C7B 1_555 1_555
H3B C7B 1_555 1_555
H4B C8B 1_555 1_555
C12B C8B 1_555 1_555
C15B N1B 1_555 1_555
C16B N1B 1_555 1_555
H29B C37B 1_555 1_555
C32B C37B 1_555 1_555
H28A C36A 1_555 1_555
C30A C36A 1_555 1_555
H7A C11A 1_555 1_555
C17A C11A 1_555 1_555
H8A C12A 1_555 1_555
C18A C12A 1_555 1_555
H10A C15A 1_555 1_555
H11A C15A 1_555 1_555
H12A C15A 1_555 1_555
H13A C16A 1_555 1_555
H14A C16A 1_555 1_555
H15A C16A 1_555 1_555
H7B C11B 1_555 1_555
C17B C11B 1_555 1_555
H8B C12B 1_555 1_555
C18B C12B 1_555 1_555
H10B C15B 1_555 1_555
H11B C15B 1_555 1_555
H12B C15B 1_555 1_555
H13B C16B 1_555 1_555
H14B C16B 1_555 1_555
H15B C16B 1_555 1_555
H24B C32B 1_555 1_555
C27B C32B 1_555 1_555
H22A C30A 1_555 1_555
C26A C30A 1_555 1_555
C21A C17A 1_555 1_555
C22A C17A 1_555 1_555
C23A C18A 1_555 1_555
C24A C18A 1_555 1_555
C21B C17B 1_555 1_555
C22B C17B 1_555 1_555
C23B C18B 1_555 1_555
C24B C18B 1_555 1_555
C31B C27B 1_555 1_555
C31A C26A 1_555 1_555
H17A C21A 1_555 1_555
C27A C22A 1_555 1_555
H18A C22A 1_555 1_555
C28A C23A 1_555 1_555
H19A C23A 1_555 1_555
C29A C24A 1_555 1_555
H20A C24A 1_555 1_555
H17B C21B 1_555 1_555
C26B C21B 1_555 1_555
H18B C22B 1_555 1_555
C28B C23B 1_555 1_555
H19B C23B 1_555 1_555
C29B C24B 1_555 1_555
H20B C24B 1_555 1_555
H23B C31B 1_555 1_555
H23A C31A 1_555 1_555
C32A C27A 1_555 1_555
C33A C28A 1_555 1_555
C34A C28A 1_555 1_555
C35A C29A 1_555 1_555
C30B C26B 1_555 1_555
C33B C28B 1_555 1_555
C34B C28B 1_555 1_555
C35B C29B 1_555 1_555
C37A C32A 1_555 1_555
H24A C32A 1_555 1_555
C38A C33A 1_555 1_555
H25A C33A 1_555 1_555
H26A C34A 1_555 1_555
H27A C35A 1_555 1_555
C39A C35A 1_555 1_555
C36B C30B 1_555 1_555
H22B C30B 1_555 1_555
C38B C33B 1_555 1_555
H25B C33B 1_555 1_555
H26B C34B 1_555 1_555
H27B C35B 1_555 1_555
C39B C35B 1_555 1_555
H29A C37A 1_555 1_555
C41A C37A 1_555 1_555
H30A C38A 1_555 1_555
C42A C38A 1_555 1_555
C43A C39A 1_555 1_555
H31A C39A 1_555 1_555
H28B C36B 1_555 1_555
C40B C36B 1_555 1_555
H30B C38B 1_555 1_555
C42B C38B 1_555 1_555
C43B C39B 1_555 1_555
H31B C39B 1_555 1_555
O13A C41A 1_555 1_555
O14A C41A 1_555 1_555
O15A C42A 1_555 1_555
O16A C42A 1_555 1_555
O17A C43A 1_555 1_555
O18A C43A 1_555 1_555
O11B C40B 1_555 1_555
O12B C40B 1_555 1_555
O15B C42B 1_555 1_555
O16B C42B 1_555 1_555
O17B_2 C43B 1_555 1_555
O18B_2 C43B 1_555 1_555
Cu3B O13A 1_555 1_555
Cu4B O14A 1_555 1_555
Cu4J_2 O15A 1_555 1_555
Cu3J_2 O16A 1_555 1_555
Cu3I O17A 1_555 1_555
Cu4I O18A 1_555 1_555
Cu4I_2 O15B 1_555 1_555
Cu3I_2 O16B 1_555 1_555
Cu3K_2 O17B_2 1_555 1_555
Cu4K_2 O18B_2 1_555 1_555
O19A Cu4J_2 1_555 1_555
O12J Cu4J_2 1_555 1_555
O18_2 Cu4J_2 1_555 1_555
O14I Cu4J_2 1_555 1_555
O20A Cu3J_2 1_555 1_555
O17_2 Cu3J_2 1_555 1_555
O11J Cu3J_2 1_555 1_555
O13I Cu3J_2 1_555 1_555
O19B Cu4I_2 1_555 1_555
O12I Cu4I_2 1_555 1_555
O18A_2 Cu4I_2 1_555 1_555
O14K Cu4I_2 1_555 1_555
O20B Cu3I_2 1_555 1_555
O17A_2 Cu3I_2 1_555 1_555
O11I Cu3I_2 1_555 1_555
O13K Cu3I_2 1_555 1_555
C44A O19A 1_555 1_555
C44B O19B 1_555 1_555
N2A C44A 1_555 1_555
H32A C44A 1_555 1_555
N2B C44B 1_555 1_555
H32B C44B 1_555 1_555
C45A N2A 1_555 1_555
C46A N2A 1_555 1_555
C45B N2B 1_555 1_555
C46B N2B 1_555 1_555
H33A C45A 1_555 1_555
H34A C45A 1_555 1_555
H35A C45A 1_555 1_555
H36A C46A 1_555 1_555
H37A C46A 1_555 1_555
H38A C46A 1_555 1_555
H33B C45B 1_555 1_555
H34B C45B 1_555 1_555
H35B C45B 1_555 1_555
H36B C46B 1_555 1_555
H37B C46B 1_555 1_555
H38B C46B 1_555 1_555
O8 C4 1_555 1_555
O9 C2 1_555 1_555
O10 C3 1_555 1_555
C27 C31 1_555 1_555
C29 C34 1_555 1_555
Cu3 Cu4 1_555 1_555
O19 Cu4K 1_555 1_555
C14B C20A 1_555 1_555
C19A C25B 1_555 1_555
Cu1A Cu2A 1_555 1_555
Cu1B Cu2B 1_555 1_555
Cu3A Cu4A 1_555 1_555
Cu4K Cu3K 1_555 1_555
Cu3J Cu4J 1_555 1_555
Cu2B_2 Cu1B_2 1_555 1_555
Cu2A_2 Cu1A_2 1_555 1_555
O9A C2A 1_555 1_555
O10A C3A 1_555 1_555
O9B C2B 1_555 1_555
O10B C3B 1_555 1_555
O14B C41B 1_555 1_555
O12A C40A 1_555 1_555
C27B C22B 1_555 1_555
C26A C21A 1_555 1_555
C31B C26B 1_555 1_555
C31A C27A 1_555 1_555
C29A C34A 1_555 1_555
C29B C34B 1_555 1_555
O11B Cu3B 1_555 1_555
O12B Cu4B 1_555 1_555
Cu3B Cu4B 1_555 1_555
Cu4J_2 Cu3J_2 1_555 1_555
Cu3I Cu4I 1_555 1_555
Cu4I_2 Cu3I_2 1_555 1_555
Cu3K_2 Cu4K_2 1_555 1_555

#END
