
#######################################################################
#
#                 Cambridge Crystallographic Data Centre
#                                CCDC 
#
#######################################################################
#
# If this CIF has been generated from an entry in the Cambridge 
# Structural Database, then it will include bibliographic, chemical, 
# crystal, experimental, refinement or atomic coordinate data resulting 
# from the CCDC's data processing and validation procedures.
#
#######################################################################

data_XOVVOU
_chemical_formula_moiety         '(C32 H19 N15 O18 Zn4)n'
_symmetry_cell_setting           monoclinic
_symmetry_space_group_name_H-M   'C 2/c'
_symmetry_Int_Tables_number      15
_space_group_name_Hall           '-C 2yc'
loop_
_symmetry_equiv_pos_site_id
_symmetry_equiv_pos_as_xyz
1 x,y,z
2 -x,y,1/2-z
3 1/2+x,1/2+y,z
4 1/2-x,1/2+y,1/2-z
5 -x,-y,-z
6 x,-y,1/2+z
7 1/2-x,1/2-y,-z
8 1/2+x,1/2-y,1/2+z
_cell_length_a                   23.769(3)
_cell_length_b                   13.7612(13)
_cell_length_c                   14.0822(14)
_cell_angle_alpha                90
_cell_angle_beta                 92.911(2)
_cell_angle_gamma                90
_cell_volume                     4600.2
loop_
_atom_site_label
_atom_site_type_symbol
_atom_site_fract_x
_atom_site_fract_y
_atom_site_fract_z
_atom_site_U_iso_or_equiv
_atom_site_thermal_displace_type
Zn1 Zn 0.30784(3) 0.84581(4) 0.01279(4) 0.0214 Uani
Zn2 Zn 0.20778(3) 0.76890(4) 0.38988(4) 0.0223 Uani
C1 C 0.2717(2) 0.8048(4) 0.2100(3) 0.0275 Uani
H1 H 0.2947 0.8535 0.2362 0.0800 Uiso
C2 C 0.2133(3) 0.6902(4) 0.1940(4) 0.0317 Uani
H2 H 0.1876 0.6418 0.2076 0.0800 Uiso
C3 C 0.1910(2) 0.5588(4) 0.4370(4) 0.0271 Uani
H3 H 0.1665 0.5480 0.3845 0.0800 Uiso
C4 C 0.2440(3) 0.5350(4) 0.5587(4) 0.0290 Uani
H4 H 0.2643 0.5048 0.6087 0.0800 Uiso
C5 C 0.4759(3) 0.8274(5) 0.0696(5) 0.0423 Uani
C6 C 0.5029(3) 0.9066(5) 0.1114(6) 0.0455 Uani
H5 H 0.4824 0.9616 0.1262 0.0800 Uiso
C7 C 0.5612(3) 0.9038(5) 0.1315(5) 0.0364 Uani
C8 C 0.5914(3) 0.8213(5) 0.1134(5) 0.0361 Uani
H6 H 0.6301 0.8190 0.1267 0.0800 Uiso
C9 C 0.5629(3) 0.7416(5) 0.0748(5) 0.0391 Uani
C10 C 0.5055(3) 0.7443(5) 0.0517(5) 0.0423 Uani
H7 H 0.4873 0.6906 0.0245 0.0800 Uiso
C11 C 0.4120(3) 0.8356(6) 0.0553(7) 0.0592 Uani
C12 C 0.5913(3) 0.9877(5) 0.1777(6) 0.0428 Uani
C13 C 0.0475(3) 0.8362(4) 0.2844(4) 0.0327 Uani
C14 C 0.0000 0.7872(6) 0.2500 0.0366 Uani
H8 H 0.0000 0.7197 0.2500 0.0800 Uiso
C15 C 0.0000 0.9856(6) 0.2500 0.0363 Uani
C16 C 0.0479(3) 0.9371(4) 0.2864(5) 0.0344 Uani
H9 H 0.0791 0.9712 0.3113 0.0800 Uiso
C17 C 0.0993(2) 0.7822(4) 0.3203(4) 0.0317 Uani
N1 N 0.2689(2) 0.7819(3) 0.1181(3) 0.0248 Uani
N2 N 0.2301(2) 0.7080(3) 0.1075(3) 0.0253 Uani
N3 N 0.2375(2) 0.7498(3) 0.2605(3) 0.0271 Uani
N4 N 0.21123(19) 0.6449(3) 0.4617(3) 0.0232 Uani
N5 N 0.2459(2) 0.6303(3) 0.5414(3) 0.0239 Uani
N6 N 0.2102(2) 0.4884(3) 0.4967(3) 0.0253 Uani
N7 N 0.5940(3) 0.6517(5) 0.0635(5) 0.0518 Uani
N8 N -0.0000 1.0923(6) 0.2500 0.0458 Uani
O1 O 0.3872(3) 0.7866(6) -0.0070(5) 0.0770 Uani
O2 O 0.3854(3) 0.8914(5) 0.1054(7) 0.0911 Uani
O3 O 0.5578(2) 1.0604(4) 0.1949(5) 0.0658 Uani
H10 H 0.5761 1.1047 0.2202 0.0800 Uiso
O4 O 0.6419(2) 0.9892(4) 0.1974(4) 0.0539 Uani
O5 O 0.6450(3) 0.6512(4) 0.0819(5) 0.0676 Uani
O6 O 0.5669(3) 0.5788(4) 0.0382(5) 0.0771 Uani
O7 O 0.13622(19) 0.8341(3) 0.3648(3) 0.0425 Uani
O8 O 0.10527(19) 0.6956(3) 0.3059(4) 0.0435 Uani
O9 O -0.0438(3) 1.1340(4) 0.2275(5) 0.0661 Uani
Zn1A Zn -0.30784(3) 0.84581(4) 0.48721(4) 0.0214 Uani
Zn1B Zn -0.19216(3) 0.34581(4) 0.01279(4) 0.0214 Uani
Zn1C Zn 0.19216(3) 0.34581(4) 0.48721(4) 0.0214 Uani
Zn1F Zn 0.19216(3) 0.65419(4) -0.01279(4) 0.0214 Uani
Zn1G Zn -0.19216(3) 0.65419(4) 0.51279(4) 0.0214 Uani
Zn2A Zn -0.20778(3) 0.76890(4) 0.11012(4) 0.0223 Uani
Zn2F Zn 0.29222(3) 0.73110(4) 0.61012(4) 0.0223 Uani
Zn2G Zn -0.29222(3) 0.73110(4) -0.11012(4) 0.0223 Uani
C1A C -0.2717(2) 0.8048(4) 0.2900(3) 0.0275 Uani
H1A H -0.2947 0.8535 0.2638 0.0800 Uiso
C2A C -0.2133(3) 0.6902(4) 0.3060(4) 0.0317 Uani
H2A H -0.1876 0.6418 0.2924 0.0800 Uiso
C3A C -0.1910(2) 0.5588(4) 0.0630(4) 0.0271 Uani
H3A H -0.1665 0.5480 0.1155 0.0800 Uiso
C4A C -0.2440(3) 0.5350(4) -0.0587(4) 0.0290 Uani
H4A H -0.2643 0.5048 -0.1087 0.0800 Uiso
C5A C -0.4759(3) 0.8274(5) 0.4304(5) 0.0423 Uani
C6A C -0.5029(3) 0.9066(5) 0.3886(6) 0.0455 Uani
H5A H -0.4824 0.9616 0.3738 0.0800 Uiso
C7A C -0.5612(3) 0.9038(5) 0.3685(5) 0.0364 Uani
C8A C -0.5914(3) 0.8213(5) 0.3866(5) 0.0361 Uani
H6A H -0.6301 0.8190 0.3733 0.0800 Uiso
C9A C -0.5629(3) 0.7416(5) 0.4252(5) 0.0391 Uani
C10A C -0.5055(3) 0.7443(5) 0.4483(5) 0.0423 Uani
H7A H -0.4873 0.6906 0.4755 0.0800 Uiso
C11A C -0.4120(3) 0.8356(6) 0.4447(7) 0.0592 Uani
C12A C -0.5913(3) 0.9877(5) 0.3223(6) 0.0428 Uani
C13A C -0.0475(3) 0.8362(4) 0.2156(4) 0.0327 Uani
C16A C -0.0479(3) 0.9371(4) 0.2136(5) 0.0344 Uani
H9A H -0.0791 0.9712 0.1887 0.0800 Uiso
C17A C -0.0993(2) 0.7822(4) 0.1797(4) 0.0317 Uani
N1A N -0.2689(2) 0.7819(3) 0.3819(3) 0.0248 Uani
N2A N -0.2301(2) 0.7080(3) 0.3925(3) 0.0253 Uani
N2F N 0.2699(2) 0.7920(3) -0.1075(3) 0.0253 Uani
N2G N -0.2699(2) 0.7920(3) 0.6075(3) 0.0253 Uani
N3A N -0.2375(2) 0.7498(3) 0.2395(3) 0.0271 Uani
N4A N -0.21123(19) 0.6449(3) 0.0383(3) 0.0232 Uani
N5A N -0.2459(2) 0.6303(3) -0.0414(3) 0.0239 Uani
N5F N 0.2541(2) 0.8697(3) 0.4586(3) 0.0239 Uani
N5G N -0.2541(2) 0.8697(3) 0.0414(3) 0.0239 Uani
N6A N -0.2102(2) 0.4884(3) 0.0033(3) 0.0253 Uani
N6B N -0.2898(2) 0.9884(3) 0.4967(3) 0.0253 Uani
N6C N 0.2898(2) 0.9884(3) 0.0033(3) 0.0253 Uani
N7A N -0.5940(3) 0.6517(5) 0.4365(5) 0.0518 Uani
O1A O -0.3872(3) 0.7866(6) 0.5070(5) 0.0770 Uani
O2A O -0.3854(3) 0.8914(5) 0.3946(7) 0.0911 Uani
O3A O -0.5578(2) 1.0604(4) 0.3051(5) 0.0658 Uani
H10A H -0.5761 1.1047 0.2798 0.0800 Uiso
O4A O -0.6419(2) 0.9892(4) 0.3026(4) 0.0539 Uani
O5A O -0.6450(3) 0.6512(4) 0.4181(5) 0.0676 Uani
O6A O -0.5669(3) 0.5788(4) 0.4618(5) 0.0771 Uani
O7A O -0.13622(19) 0.8341(3) 0.1352(3) 0.0425 Uani
O8A O -0.10527(19) 0.6956(3) 0.1941(4) 0.0435 Uani
O9A O 0.0438(3) 1.1340(4) 0.2725(5) 0.0661 Uani
loop_
_atom_site_aniso_label
_atom_site_aniso_U_11
_atom_site_aniso_U_22
_atom_site_aniso_U_33
_atom_site_aniso_U_23
_atom_site_aniso_U_13
_atom_site_aniso_U_12
Zn1 0.0259(3) 0.0179(3) 0.0202(3) -0.0011(2) -0.0012(2) -0.0040(2)
Zn2 0.0277(3) 0.0212(3) 0.0173(3) 0.0018(2) -0.0061(2) -0.0027(2)
C1 0.033(3) 0.032(3) 0.017(2) 0.002(2) -0.004(2) -0.010(2)
C2 0.042(3) 0.031(3) 0.022(3) 0.001(2) 0.002(2) -0.012(3)
C3 0.037(3) 0.018(2) 0.025(3) 0.0004(19) -0.010(2) -0.002(2)
C4 0.037(3) 0.023(3) 0.026(3) 0.001(2) -0.008(2) 0.002(2)
C5 0.029(3) 0.045(4) 0.052(4) 0.012(3) -0.008(3) -0.002(3)
C6 0.033(3) 0.036(4) 0.067(5) 0.007(3) -0.002(3) -0.003(3)
C7 0.024(3) 0.035(3) 0.050(4) 0.004(3) 0.001(3) -0.002(2)
C8 0.025(3) 0.042(3) 0.041(3) -0.002(3) -0.002(2) -0.003(2)
C9 0.041(4) 0.039(3) 0.037(3) 0.001(3) -0.001(3) 0.000(3)
C10 0.040(4) 0.042(4) 0.044(4) 0.002(3) -0.006(3) -0.010(3)
C11 0.032(4) 0.056(5) 0.088(6) 0.035(4) -0.013(4) -0.017(4)
C12 0.029(3) 0.038(3) 0.062(4) 0.001(3) 0.008(3) -0.006(3)
C13 0.029(3) 0.033(3) 0.035(3) 0.001(2) -0.010(2) 0.000(2)
C14 0.036(5) 0.028(4) 0.045(5) 0.000 -0.005(4) 0.000
C15 0.039(5) 0.025(4) 0.044(5) 0.000 -0.007(4) 0.000
C16 0.029(3) 0.030(3) 0.043(3) -0.004(2) -0.010(3) -0.005(2)
C17 0.026(3) 0.032(3) 0.036(3) 0.000(2) -0.008(2) 0.002(2)
N1 0.030(2) 0.023(2) 0.021(2) 0.0008(16) -0.0028(18) -0.0092(18)
N2 0.030(2) 0.023(2) 0.023(2) -0.0011(17) 0.0011(18) -0.0075(18)
N3 0.036(3) 0.026(2) 0.019(2) -0.0023(17) -0.0003(19) -0.0094(19)
N4 0.027(2) 0.021(2) 0.021(2) 0.0023(16) -0.0055(17) -0.0010(17)
N5 0.033(2) 0.021(2) 0.0166(19) 0.0003(16) -0.0084(17) -0.0017(18)
N6 0.034(2) 0.017(2) 0.024(2) 0.0019(16) -0.0070(18) 0.0039(18)
N7 0.047(4) 0.048(4) 0.061(4) -0.008(3) 0.009(3) 0.006(3)
N8 0.055(5) 0.027(4) 0.055(5) 0.000 0.000(4) 0.000
O1 0.049(4) 0.113(6) 0.067(4) 0.011(4) -0.017(3) -0.019(4)
O2 0.035(3) 0.047(3) 0.191(8) 0.022(4) 0.002(4) 0.011(3)
O3 0.043(3) 0.045(3) 0.108(5) -0.029(3) -0.010(3) 0.005(2)
O4 0.034(3) 0.046(3) 0.081(4) -0.007(3) -0.004(3) -0.006(2)
O5 0.062(4) 0.062(4) 0.079(4) -0.010(3) 0.005(3) 0.024(3)
O6 0.072(4) 0.052(4) 0.108(5) -0.028(3) 0.012(4) -0.007(3)
O7 0.032(2) 0.041(3) 0.052(3) -0.009(2) -0.022(2) 0.0074(19)
O8 0.036(2) 0.034(2) 0.059(3) 0.000(2) -0.013(2) 0.007(2)
O9 0.072(4) 0.034(3) 0.091(5) 0.004(3) -0.009(3) 0.012(3)
Zn1A 0.0259 0.0179 0.0202 0.0011 -0.0012 0.004
Zn1B 0.0259 0.0179 0.0202 -0.0011 -0.0012 -0.004
Zn1C 0.0259 0.0179 0.0202 0.0011 -0.0012 0.004
Zn1F 0.0259 0.0179 0.0202 -0.0011 -0.0012 -0.004
Zn1G 0.0259 0.0179 0.0202 0.0011 -0.0012 0.004
Zn2A 0.0277 0.0212 0.0173 -0.0018 -0.0061 0.0027
Zn2F 0.0277 0.0212 0.0173 0.0018 -0.0061 -0.0027
Zn2G 0.0277 0.0212 0.0173 -0.0018 -0.0061 0.0027
C1A 0.033 0.032 0.017 -0.002 -0.004 0.01
C2A 0.042 0.031 0.022 -0.001 0.002 0.012
C3A 0.037 0.018 0.025 -0.0004 -0.01 0.002
C4A 0.037 0.023 0.026 -0.001 -0.008 -0.002
C5A 0.029 0.045 0.052 -0.012 -0.008 0.002
C6A 0.033 0.036 0.067 -0.007 -0.002 0.003
C7A 0.024 0.035 0.05 -0.004 0.001 0.002
C8A 0.025 0.042 0.041 0.002 -0.002 0.003
C9A 0.041 0.039 0.037 -0.001 -0.001 0
C10A 0.04 0.042 0.044 -0.002 -0.006 0.01
C11A 0.032 0.056 0.088 -0.035 -0.013 0.017
C12A 0.029 0.038 0.062 -0.001 0.008 0.006
C13A 0.029 0.033 0.035 -0.001 -0.01 0
C16A 0.029 0.03 0.043 0.004 -0.01 0.005
C17A 0.026 0.032 0.036 0 -0.008 -0.002
N1A 0.03 0.023 0.021 -0.0008 -0.0028 0.0092
N2A 0.03 0.023 0.023 0.0011 0.0011 0.0075
N2F 0.03 0.023 0.023 -0.0011 0.0011 -0.0075
N2G 0.03 0.023 0.023 0.0011 0.0011 0.0075
N3A 0.036 0.026 0.019 0.0023 -0.0003 0.0094
N4A 0.027 0.021 0.021 -0.0023 -0.0055 0.001
N5A 0.033 0.021 0.0166 -0.0003 -0.0084 0.0017
N5F 0.033 0.021 0.0166 0.0003 -0.0084 -0.0017
N5G 0.033 0.021 0.0166 -0.0003 -0.0084 0.0017
N6A 0.034 0.017 0.024 -0.0019 -0.007 -0.0039
N6B 0.034 0.017 0.024 0.0019 -0.007 0.0039
N6C 0.034 0.017 0.024 -0.0019 -0.007 -0.0039
N7A 0.047 0.048 0.061 0.008 0.009 -0.006
O1A 0.049 0.113 0.067 -0.011 -0.017 0.019
O2A 0.035 0.047 0.191 -0.022 0.002 -0.011
O3A 0.043 0.045 0.108 0.029 -0.01 -0.005
O4A 0.034 0.046 0.081 0.007 -0.004 0.006
O5A 0.062 0.062 0.079 0.01 0.005 -0.024
O6A 0.072 0.052 0.108 0.028 0.012 0.007
O7A 0.032 0.041 0.052 0.009 -0.022 -0.0074
O8A 0.036 0.034 0.059 0 -0.013 -0.007
O9A 0.072 0.034 0.091 -0.004 -0.009 -0.012
loop_
_geom_bond_atom_site_label_1
_geom_bond_atom_site_label_2
_geom_bond_site_symmetry_1
_geom_bond_site_symmetry_2
Zn1 N1 1_555 1_555
Zn2 N3 1_555 1_555
C1 H1 1_555 1_555
C2 H2 1_555 1_555
C3 H3 1_555 1_555
C4 H4 1_555 1_555
C5 C6 1_555 1_555
C6 H5 1_555 1_555
C7 C6 1_555 1_555
C8 C7 1_555 1_555
H6 C8 1_555 1_555
C9 C8 1_555 1_555
C10 C5 1_555 1_555
H7 C10 1_555 1_555
C11 C5 1_555 1_555
C12 C7 1_555 1_555
C13 C14 1_555 1_555
C14 H8 1_555 1_555
C15 C16 1_555 1_555
C16 C13 1_555 1_555
H9 C16 1_555 1_555
C17 C13 1_555 1_555
N1 C1 1_555 1_555
N2 C2 1_555 1_555
N3 C1 1_555 1_555
N4 Zn2 1_555 1_555
N5 C4 1_555 1_555
N6 C3 1_555 1_555
N7 C9 1_555 1_555
N8 C15 1_555 1_555
O1 Zn1 1_555 1_555
O2 Zn1 1_555 1_555
O3 C12 1_555 1_555
H10 O3 1_555 1_555
O4 C12 1_555 1_555
O5 N7 1_555 1_555
O6 N7 1_555 1_555
O7 Zn2 1_555 1_555
O8 C17 1_555 1_555
O9 N8 1_555 1_555
Zn1A N1A 1_555 1_555
Zn1B N6A 1_555 1_555
Zn1C N6 1_555 1_555
Zn1F N2 1_555 1_555
Zn1G N2A 1_555 1_555
Zn2A N3A 1_555 1_555
Zn2F N5 1_555 1_555
Zn2G N5A 1_555 1_555
C1A H1A 1_555 1_555
C2A H2A 1_555 1_555
C3A H3A 1_555 1_555
C4A H4A 1_555 1_555
C5A C6A 1_555 1_555
C6A H5A 1_555 1_555
C7A C6A 1_555 1_555
C8A C7A 1_555 1_555
H6A C8A 1_555 1_555
C9A C8A 1_555 1_555
C10A C5A 1_555 1_555
H7A C10A 1_555 1_555
C11A C5A 1_555 1_555
C12A C7A 1_555 1_555
C13A C14 1_555 1_555
C16A C15 1_555 1_555
H9A C16A 1_555 1_555
C17A C13A 1_555 1_555
N1A C1A 1_555 1_555
N2A C2A 1_555 1_555
N2F Zn1 1_555 1_555
N2G Zn1A 1_555 1_555
N3A C1A 1_555 1_555
N4A Zn2A 1_555 1_555
N5A C4A 1_555 1_555
N5F Zn2 1_555 1_555
N5G Zn2A 1_555 1_555
N6A C3A 1_555 1_555
N6B Zn1A 1_555 1_555
N6C Zn1 1_555 1_555
N7A C9A 1_555 1_555
O1A Zn1A 1_555 1_555
O2A Zn1A 1_555 1_555
O3A C12A 1_555 1_555
H10A O3A 1_555 1_555
O4A C12A 1_555 1_555
O5A N7A 1_555 1_555
O6A N7A 1_555 1_555
O7A Zn2A 1_555 1_555
O8A C17A 1_555 1_555
O9A N8 1_555 1_555
C2 N3 1_555 1_555
C3 N4 1_555 1_555
C4 N6 1_555 1_555
C9 C10 1_555 1_555
C11 O1 1_555 1_555
C11 O2 1_555 1_555
C17 O7 1_555 1_555
N1 N2 1_555 1_555
N4 N5 1_555 1_555
C2A N3A 1_555 1_555
C3A N4A 1_555 1_555
C4A N6A 1_555 1_555
C9A C10A 1_555 1_555
C11A O1A 1_555 1_555
C11A O2A 1_555 1_555
C13A C16A 1_555 1_555
C17A O7A 1_555 1_555
N1A N2A 1_555 1_555
N4A N5A 1_555 1_555

#END
