
#######################################################################
#
#                 Cambridge Crystallographic Data Centre
#                                CCDC 
#
#######################################################################
#
# If this CIF has been generated from an entry in the Cambridge 
# Structural Database, then it will include bibliographic, chemical, 
# crystal, experimental, refinement or atomic coordinate data resulting 
# from the CCDC's data processing and validation procedures.
#
#######################################################################

data_IREGOD
_chemical_formula_moiety         '(C40 H31 Mn5 N1 O30 2-)n'
_symmetry_cell_setting           monoclinic
_symmetry_space_group_name_H-M   'C 2/c'
_symmetry_Int_Tables_number      15
_space_group_name_Hall           '-C 2yc'
loop_
_symmetry_equiv_pos_site_id
_symmetry_equiv_pos_as_xyz
1 x,y,z
2 -x,y,1/2-z
3 1/2+x,1/2+y,z
4 1/2-x,1/2+y,1/2-z
5 -x,-y,-z
6 x,-y,1/2+z
7 1/2-x,1/2-y,-z
8 1/2+x,1/2-y,1/2+z
_cell_length_a                   24.544(5)
_cell_length_b                   15.455(3)
_cell_length_c                   19.431(7)
_cell_angle_alpha                90
_cell_angle_beta                 117.551(3)
_cell_angle_gamma                90
_cell_volume                     6534.87
loop_
_atom_site_label
_atom_site_type_symbol
_atom_site_fract_x
_atom_site_fract_y
_atom_site_fract_z
N1 N 0.3055(4) 0.1019(6) 0.0968(5)
H11 H 0.3122 0.0563 0.0729
H12 H 0.2668 0.1201 0.0664
C21 C 0.3092(7) 0.0700(9) 0.1738(9)
H13 H 0.2781 0.0270 0.1634
H14 H 0.3028 0.1178 0.2007
H15 H 0.3490 0.0452 0.2053
C22 C 0.3474(7) 0.1712(10) 0.1007(9)
H16 H 0.3406 0.1854 0.0492
H17 H 0.3891 0.1524 0.1311
H18 H 0.3401 0.2214 0.1244
Mn1 Mn -0.13868(4) 0.83864(6) -0.07861(6)
O1 O -0.1823(2) 0.9032(3) -0.1848(3)
O2 O -0.0666(3) 0.9387(4) -0.0400(4)
O3 O -0.2930(3) 1.2394(3) -0.3925(3)
O4 O -0.1758(2) 1.1058(3) -0.5104(3)
O5 O 0.0712(2) 0.2459(3) 0.0967(3)
O6 O 0.0696(3) 0.2473(4) -0.0176(3)
C1 C -0.1691(3) 0.8988(4) -0.2402(4)
H1 H -0.0690 0.9795 -0.0705
H2 H -0.0364 0.9363 0.0054
Mn2 Mn -0.11968(4) 0.70501(6) -0.21459(6)
O7 O -0.1427(3) 0.8375(3) -0.2523(3)
C2 C -0.1879(3) 0.9731(4) -0.2957(4)
O8 O -0.2962(2) 1.1805(3) -0.2904(3)
O9 O -0.0996(2) 0.5738(3) -0.1732(3)
O10 O -0.0349(2) 0.6997(3) -0.2298(3)
O11 O -0.1650(2) 0.6659(4) -0.3367(3)
C3 C -0.1629(4) 0.9770(5) -0.3476(4)
C4 C -0.2246(3) 1.0403(4) -0.2931(4)
C5 C -0.0658(3) 0.5087(4) -0.1602(4)
Mn3 Mn -0.0000 0.56802(9) -0.2500
C6 C 0.0000 0.7402(6) -0.2500
H3 H -0.1440 0.6584 -0.3609
H4 H -0.2037 0.6585 -0.3601
H5 H -0.1368 0.9336 -0.3480
C7 C -0.1779(3) 1.0478(4) -0.3990(4)
C8 C -0.2394(3) 1.1101(4) -0.3456(4)
H6 H -0.2393 1.0393 -0.2568
O12 O -0.0389(2) 0.4866(3) -0.1980(3)
C9 C -0.0567(3) 0.4522(4) -0.0927(4)
O13 O -0.0836(2) 0.4238(3) 0.1349(3)
C10 C 0.0000 0.8364(8) -0.2500
C11 C -0.1513(4) 1.0503(5) -0.4553(5)
C12 C -0.2173(3) 1.1105(4) -0.3975(4)
C13 C -0.2790(3) 1.1827(4) -0.3426(4)
C14 C -0.0896(3) 0.4703(4) -0.0497(4)
C15 C -0.0147(3) 0.3884(4) -0.0681(4)
O14 O -0.1056(4) 1.0061(5) -0.4418(5)
H7 H -0.2292 1.1549 -0.4338
H8 H -0.1198 0.5129 -0.0669
C16 C -0.0768(3) 0.4248(4) 0.0166(4)
H9 H 0.0057 0.3754 -0.0970
C17 C -0.0006(3) 0.3406(4) -0.0007(4)
C18 C -0.0307(3) 0.3603(4) 0.0416(4)
C19 C -0.1072(3) 0.4463(5) 0.0640(4)
C20 C 0.0492(3) 0.2751(4) 0.0268(4)
H10 H -0.0206 0.3308 0.0877
O15 O -0.1590(3) 0.4834(5) 0.0294(3)
O10A O 0.0349(2) 0.6997(3) -0.2702(3)
Mn1A Mn 0.13868(4) 0.83864(6) -0.42139(6)
O1A O 0.1823(2) 0.9032(3) -0.3152(3)
O2A O 0.0666(3) 0.9387(4) -0.4600(4)
O3A O 0.2930(3) 1.2394(3) -0.1075(3)
O4A O 0.1758(2) 1.1058(3) 0.0104(3)
O5A O -0.0712(2) 0.2459(3) -0.5967(3)
O6A O -0.0696(3) 0.2473(4) -0.4824(3)
C1A C 0.1691(3) 0.8988(4) -0.2598(4)
H1A H 0.0690 0.9795 -0.4295
H2A H 0.0364 0.9363 -0.5054
Mn2A Mn 0.11968(4) 0.70501(6) -0.28541(6)
O7A O 0.1427(3) 0.8375(3) -0.2477(3)
C2A C 0.1879(3) 0.9731(4) -0.2043(4)
O8A O 0.2962(2) 1.1805(3) -0.2096(3)
O9A O 0.0996(2) 0.5738(3) -0.3268(3)
O11A O 0.1650(2) 0.6659(4) -0.1633(3)
C3A C 0.1629(4) 0.9770(5) -0.1524(4)
C4A C 0.2246(3) 1.0403(4) -0.2069(4)
C5A C 0.0658(3) 0.5087(4) -0.3398(4)
H3A H 0.1440 0.6584 -0.1391
H4A H 0.2037 0.6585 -0.1399
H5A H 0.1368 0.9336 -0.1520
C7A C 0.1779(3) 1.0478(4) -0.1010(4)
C8A C 0.2394(3) 1.1101(4) -0.1544(4)
H6A H 0.2393 1.0393 -0.2432
O12A O 0.0389(2) 0.4866(3) -0.3020(3)
C9A C 0.0567(3) 0.4522(4) -0.4073(4)
O13A O 0.0836(2) 0.4238(3) -0.6349(3)
C11A C 0.1513(4) 1.0503(5) -0.0447(5)
C12A C 0.2173(3) 1.1105(4) -0.1025(4)
C13A C 0.2790(3) 1.1827(4) -0.1574(4)
C14A C 0.0896(3) 0.4703(4) -0.4503(4)
C15A C 0.0147(3) 0.3884(4) -0.4319(4)
O14A O 0.1056(4) 1.0061(5) -0.0582(5)
H7A H 0.2292 1.1549 -0.0662
H8A H 0.1198 0.5129 -0.4331
C16A C 0.0768(3) 0.4248(4) -0.5166(4)
H9A H -0.0057 0.3754 -0.4030
C17A C 0.0006(3) 0.3406(4) -0.4993(4)
C18A C 0.0307(3) 0.3603(4) -0.5416(4)
C19A C 0.1072(3) 0.4463(5) -0.5640(4)
C20A C -0.0492(3) 0.2751(4) -0.5268(4)
H10A H 0.0206 0.3308 -0.5877
O15A O 0.1590(3) 0.4834(5) -0.5294(3)
Mn1B Mn 0.36132(4) 1.33864(6) -0.07861(6)
Mn1C Mn -0.36132(4) 1.33864(6) -0.42139(6)
Mn1D Mn 0.13868(4) 0.16136(6) 0.07861(6)
Mn1D_2 Mn 0.13868(4) 1.16136(6) 0.07861(6)
Mn1E Mn -0.13868(4) 0.16136(6) -0.57861(6)
Mn1E_2 Mn -0.13868(4) 1.16136(6) -0.57861(6)
O3B O 0.2070(3) 0.7394(3) -0.3925(3)
O3C O -0.2070(3) 0.7394(3) -0.1075(3)
O4D O 0.1758(2) 0.8942(3) -0.4896(3)
O4E O -0.1758(2) 0.8942(3) -0.0104(3)
O5D O -0.0712(2) 0.7541(3) -0.0967(3)
O5E O 0.0712(2) 0.7541(3) -0.4033(3)
O6D O -0.0696(3) 0.7527(4) 0.0176(3)
O6E O 0.0696(3) 0.7527(4) -0.5176(3)
Mn2B Mn 0.38032(4) 1.20501(6) -0.21459(6)
Mn2C Mn -0.38032(4) 1.20501(6) -0.28541(6)
Mn2D Mn 0.11968(4) 0.29499(6) 0.21459(6)
Mn2E Mn -0.11968(4) 0.29499(6) -0.71459(6)
O8B O 0.2038(2) 0.6805(3) -0.2904(3)
O8C O -0.2038(2) 0.6805(3) -0.2096(3)
Mn3D Mn 0.0000 0.43198(9) -0.7500
Mn3D_2 Mn 0.0000 0.43198(9) 0.2500
O13D O 0.0836(2) 0.5762(3) -0.1349(3)
O13E O -0.0836(2) 0.5762(3) -0.3651(3)
loop_
_geom_bond_atom_site_label_1
_geom_bond_atom_site_label_2
_geom_bond_site_symmetry_1
_geom_bond_site_symmetry_2
Mn1 O1 1_555 1_555
O1 C1 1_555 1_555
O2 Mn1 1_555 1_555
O3 C13 1_555 1_555
O4 C11 1_555 1_555
O5 C20 1_555 1_555
O6 C20 1_555 1_555
C1 O7 1_555 1_555
H1 O2 1_555 1_555
H2 O2 1_555 1_555
Mn2 O7 1_555 1_555
C2 C1 1_555 1_555
O8 C13 1_555 1_555
O9 Mn2 1_555 1_555
O10 Mn2 1_555 1_555
O11 Mn2 1_555 1_555
C3 C2 1_555 1_555
C4 C2 1_555 1_555
C5 O9 1_555 1_555
Mn3 O10 1_555 1_555
C6 O10 1_555 1_555
H3 O11 1_555 1_555
H4 O11 1_555 1_555
H5 C3 1_555 1_555
C7 C3 1_555 1_555
C8 C4 1_555 1_555
H6 C4 1_555 1_555
O12 C5 1_555 1_555
C9 C5 1_555 1_555
O13 C19 1_555 1_555
C10 C6 1_555 1_555
C11 C7 1_555 1_555
C12 C7 1_555 1_555
C13 C8 1_555 1_555
C14 C9 1_555 1_555
C15 C9 1_555 1_555
O14 C11 1_555 1_555
H7 C12 1_555 1_555
H8 C14 1_555 1_555
C16 C14 1_555 1_555
H9 C15 1_555 1_555
C17 C15 1_555 1_555
C18 C16 1_555 1_555
C19 C16 1_555 1_555
C20 C17 1_555 1_555
H10 C18 1_555 1_555
O15 C19 1_555 1_555
N1 H11 1_555 1_555
H12 N1 1_555 1_555
C21 N1 1_555 1_555
H13 C21 1_555 1_555
H14 C21 1_555 1_555
H15 C21 1_555 1_555
C22 N1 1_555 1_555
H16 C22 1_555 1_555
H17 C22 1_555 1_555
H18 C22 1_555 1_555
O10A Mn3 1_555 1_555
Mn1A O1A 1_555 1_555
O1A C1A 1_555 1_555
O2A Mn1A 1_555 1_555
O3A C13A 1_555 1_555
O4A C11A 1_555 1_555
O5A C20A 1_555 1_555
O6A C20A 1_555 1_555
C1A O7A 1_555 1_555
H1A O2A 1_555 1_555
H2A O2A 1_555 1_555
Mn2A O10A 1_555 1_555
O7A Mn2A 1_555 1_555
C2A C1A 1_555 1_555
O8A C13A 1_555 1_555
O9A Mn2A 1_555 1_555
O11A Mn2A 1_555 1_555
C3A C2A 1_555 1_555
C4A C2A 1_555 1_555
C5A O9A 1_555 1_555
H3A O11A 1_555 1_555
H4A O11A 1_555 1_555
H5A C3A 1_555 1_555
C7A C3A 1_555 1_555
C8A C4A 1_555 1_555
H6A C4A 1_555 1_555
O12A Mn3 1_555 1_555
C9A C5A 1_555 1_555
O13A C19A 1_555 1_555
C11A C7A 1_555 1_555
C12A C7A 1_555 1_555
C13A C8A 1_555 1_555
C14A C9A 1_555 1_555
C15A C9A 1_555 1_555
O14A C11A 1_555 1_555
H7A C12A 1_555 1_555
H8A C14A 1_555 1_555
C16A C14A 1_555 1_555
H9A C15A 1_555 1_555
C17A C15A 1_555 1_555
C18A C16A 1_555 1_555
C19A C16A 1_555 1_555
C20A C17A 1_555 1_555
H10A C18A 1_555 1_555
O15A C19A 1_555 1_555
Mn1B O3A 1_555 1_555
Mn1C O3 1_555 1_555
Mn1D O5 1_555 1_555
Mn1D_2 O4A 1_555 1_555
Mn1E O5A 1_555 1_555
Mn1E_2 O4 1_555 1_555
O3B Mn1A 1_555 1_555
O3C Mn1 1_555 1_555
O4D Mn1A 1_555 1_555
O4E Mn1 1_555 1_555
O5D Mn1 1_555 1_555
O5E Mn1A 1_555 1_555
O6D Mn1 1_555 1_555
O6E Mn1A 1_555 1_555
Mn2B O8A 1_555 1_555
Mn2C O8 1_555 1_555
Mn2D O5 1_555 1_555
Mn2E O5A 1_555 1_555
O8B Mn2A 1_555 1_555
O8C Mn2 1_555 1_555
Mn3D O13A 1_555 1_555
Mn3D_2 O13 1_555 1_555
O13D Mn3 1_555 1_555
O13E Mn3 1_555 1_555
O6 Mn1D 1_555 1_555
Mn2 O5D 1_555 1_555
Mn3 O12 1_555 1_555
C6 O10A 1_555 1_555
C8 C12 1_555 1_555
C17 C18 1_555 1_555
O6A Mn1E 1_555 1_555
Mn2A O5E 1_555 1_555
C5A O12A 1_555 1_555
C8A C12A 1_555 1_555
C17A C18A 1_555 1_555

#END
