
#######################################################################
#
#                 Cambridge Crystallographic Data Centre
#                                CCDC 
#
#######################################################################
#
# If this CIF has been generated from an entry in the Cambridge 
# Structural Database, then it will include bibliographic, chemical, 
# crystal, experimental, refinement or atomic coordinate data resulting 
# from the CCDC's data processing and validation procedures.
#
#######################################################################

data_ONODOM
_chemical_formula_moiety         '(C56 H42 Ni3 O23)n'
_symmetry_cell_setting           triclinic
_symmetry_space_group_name_H-M   'P -1'
_symmetry_Int_Tables_number      2
_space_group_name_Hall           '-P 1'
loop_
_symmetry_equiv_pos_site_id
_symmetry_equiv_pos_as_xyz
1 x,y,z
2 -x,-y,-z
_cell_length_a                   12.8328(12)
_cell_length_b                   16.1439(15)
_cell_length_c                   16.2738(15)
_cell_angle_alpha                84.645(2)
_cell_angle_beta                 79.837(2)
_cell_angle_gamma                69.372(2)
_cell_volume                     3104.03
loop_
_atom_site_label
_atom_site_type_symbol
_atom_site_fract_x
_atom_site_fract_y
_atom_site_fract_z
O20 O 0.6804(6) 0.8117(4) 0.5549(4)
O21 O 0.5052(7) 0.6147(5) 0.6717(5)
O22 O 0.5022(8) 0.7831(6) 0.7083(7)
O23 O 1.3206(13) 1.6018(7) -0.2056(10)
Ni1 Ni 1.43663(4) 1.28215(3) -0.04417(3)
Ni2 Ni 0.50235(5) 0.73982(3) 0.44236(3)
Ni3 Ni 0.50530(4) 0.76551(3) 0.24832(3)
O1 O 0.5821(3) 0.8297(2) 0.41030(18)
O2 O 0.5913(3) 0.84216(18) 0.27052(17)
O3 O 0.7066(4) 1.0716(2) 0.5362(2)
O4 O 0.5923(3) 1.1775(2) 0.46301(18)
O5 O 1.4224(2) 1.68497(18) 0.22639(17)
O6 O 1.4899(3) 1.6308(2) 0.09735(18)
O7 O 1.4536(3) 1.31135(19) 0.07724(18)
O8 O 1.3068(3) 1.3919(2) 0.01977(19)
O9 O 1.3619(2) 1.19153(18) 0.00760(17)
O10 O 1.2225(3) 1.2271(2) -0.0680(2)
O11 O 1.4150(2) 0.87165(18) 0.18195(18)
O12 O 1.4157(2) 0.81917(19) 0.06015(18)
O13 O 0.5896(2) 0.66979(18) 0.33379(16)
O14 O 0.6784(3) 0.56323(19) 0.24337(19)
O15 O 0.7269(3) 0.2916(2) 0.57965(19)
O16 O 0.5742(2) 0.35012(19) 0.51682(18)
O17 O 0.6158(3) 0.6750(2) 0.5235(2)
H1 H 0.578(4) 0.673(4) 0.5725(18)
H2 H 0.682(2) 0.677(2) 0.512(3)
O18 O 0.3907(2) 0.80092(17) 0.35697(16)
H3 H 0.3309 0.7763 0.3613
H4 H 0.3585 0.8646 0.3625
O19 O 1.3684(2) 1.29084(17) -0.15089(16)
H5 H 1.3296 1.3525 -0.1651
H6 H 1.3139 1.2605 -0.1418
C1 C 0.6100(3) 0.8602(3) 0.3386(3)
C2 C 0.6702(4) 0.9256(3) 0.3343(3)
C3 C 0.7496(4) 0.9296(3) 0.2672(3)
H7 H 0.7658 0.8923 0.2230
C4 C 0.8062(4) 0.9892(3) 0.2649(3)
H8 H 0.8615 0.9894 0.2196
C5 C 0.7834(4) 1.0481(3) 0.3276(3)
C6 C 0.7012(4) 1.0443(3) 0.3969(3)
C7 C 0.6474(4) 0.9833(3) 0.3993(3)
H9 H 0.5944 0.9807 0.4455
C8 C 0.6653(4) 1.1042(3) 0.4696(3)
C9 C 0.8059(5) 1.1960(4) 0.3404(4)
H10 H 0.7303 1.2204 0.3633
C10 C 0.8504(4) 1.1078(3) 0.3212(3)
C11 C 0.9637(5) 1.0752(4) 0.2897(4)
H11 H 0.9972 1.0155 0.2777
C12 C 1.0287(5) 1.1291(4) 0.2755(4)
H12 H 1.1049 1.1045 0.2542
C13 C 0.9840(4) 1.2185(3) 0.2920(3)
C14 C 0.8728(5) 1.2486(4) 0.3262(4)
H13 H 0.8401 1.3076 0.3407
C15 C 1.0265(14) 1.3499(9) 0.3112(10)
H14 H 0.9622 1.3671 0.3512
C16 C 1.0918(12) 1.4035(11) 0.2916(9)
H15 H 1.0672 1.4566 0.3191
C17 C 1.2306(14) 1.2980(9) 0.2097(8)
H16 H 1.3033 1.2769 0.1802
C18 C 1.1672(12) 1.2414(11) 0.2260(8)
H17 H 1.1960 1.1839 0.2069
C19 C 1.0546(4) 1.2758(3) 0.2739(3)
C20 C 1.1874(4) 1.3856(3) 0.2366(3)
C21 C 1.2537(4) 1.4472(3) 0.2180(3)
C22 C 1.2384(4) 1.5118(3) 0.2748(3)
H18 H 1.1871 1.5155 0.3237
C23 C 1.2966(4) 1.5700(3) 0.2609(3)
H19 H 1.2851 1.6115 0.3007
C24 C 1.3723(4) 1.5675(3) 0.1884(2)
C25 C 1.3907(4) 1.5032(3) 0.1321(3)
H20 H 1.4428 1.4998 0.0838
C26 C 1.3334(4) 1.4433(3) 0.1456(2)
C27 C 1.4340(4) 1.6326(3) 0.1695(3)
C28 C 1.3651(4) 1.3765(3) 0.0783(3)
C29 C 1.2767(4) 1.1819(3) -0.0135(3)
C30 C 1.2414(4) 1.1071(3) 0.0284(3)
C31 C 1.1307(4) 1.1127(3) 0.0377(3)
H21 H 1.0777 1.1631 0.0181
C32 C 1.0971(4) 1.0435(3) 0.0762(3)
H22 H 1.0214 1.0494 0.0835
C33 C 1.1742(4) 0.9658(3) 0.1041(3)
C34 C 1.2885(3) 0.9596(3) 0.0933(2)
C35 C 1.3190(4) 1.0307(3) 0.0564(2)
H23 H 1.3940 1.0267 0.0505
C36 C 1.3803(3) 0.8756(3) 0.1139(3)
C37 C 1.1321(4) 0.8957(3) 0.1454(3)
C38 C 1.1624(4) 0.8539(3) 0.2202(3)
H24 H 1.2164 0.8664 0.2432
C39 C 1.1148(4) 0.7941(3) 0.2617(3)
H25 H 1.1366 0.7676 0.3121
C40 C 1.0347(4) 0.7730(3) 0.2289(3)
C41 C 1.0067(4) 0.8121(3) 0.1517(3)
H26 H 0.9562 0.7970 0.1269
C42 C 1.0537(4) 0.8727(3) 0.1121(3)
H27 H 1.0323 0.8992 0.0616
C43 C 0.9793(4) 0.7122(3) 0.2732(3)
C44 C 0.9500(4) 0.7115(3) 0.3594(3)
H28 H 0.9672 0.7494 0.3900
C45 C 0.8956(4) 0.6555(3) 0.4012(3)
H29 H 0.8770 0.6567 0.4591
C46 C 0.8688(4) 0.5983(3) 0.3581(3)
C47 C 0.8968(5) 0.5976(4) 0.2715(3)
H30 H 0.8796 0.5593 0.2412
C48 C 0.9508(5) 0.6545(4) 0.2306(3)
H31 H 0.9683 0.6540 0.1726
C49 C 0.8129(4) 0.5365(3) 0.4032(3)
C50 C 0.8604(4) 0.4801(3) 0.4664(3)
H32 H 0.9258 0.4828 0.4813
C51 C 0.8141(4) 0.4200(3) 0.5080(3)
H33 H 0.8491 0.3824 0.5495
C52 C 0.7159(4) 0.4152(3) 0.4885(3)
C53 C 0.6648(4) 0.4732(3) 0.4266(2)
H34 H 0.5975 0.4720 0.4138
C54 C 0.7127(4) 0.5325(3) 0.3838(3)
C55 C 0.6559(3) 0.5921(3) 0.3160(3)
C56 C 0.6686(4) 0.3473(3) 0.5319(3)
Ni1A Ni 1.56337(4) 0.71785(3) 0.04417(3)
Ni1A_2 Ni 1.56337(4) 1.71785(3) 0.04417(3)
Ni2A Ni 0.49765(5) 0.26018(3) 0.55764(3)
Ni2A_2 Ni 0.49765(5) 1.26018(3) 0.55764(3)
Ni3_2 Ni 1.50530(4) 0.76551(3) 0.24832(3)
Ni3_3 Ni 1.50530(4) 1.76551(3) 0.24832(3)
Ni3A Ni 1.49470(4) 1.23449(3) -0.24832(3)
O4A O 0.4077(3) 0.8225(2) 0.53699(18)
O5_2 O 0.4224(2) 0.68497(18) 0.22639(17)
O6A O 1.5101(3) 1.3692(2) -0.09735(18)
O11_2 O 0.4150(2) 0.87165(18) 0.18195(18)
O12A O 1.5843(2) 1.18083(19) -0.06015(18)
O16A O 0.4258(2) 0.64988(19) 0.48318(18)
O19A O 0.6316(2) 0.70916(17) 0.15089(16)
loop_
_geom_bond_atom_site_label_1
_geom_bond_atom_site_label_2
_geom_bond_site_symmetry_1
_geom_bond_site_symmetry_2
Ni1 O7 1_555 1_555
Ni2 O1 1_555 1_555
Ni3 O2 1_555 1_555
O1 C1 1_555 1_555
O2 C1 1_555 1_555
O3 C8 1_555 1_555
O4 C8 1_555 1_555
O5 C27 1_555 1_555
O6 C27 1_555 1_555
O7 C28 1_555 1_555
O8 Ni1 1_555 1_555
O9 Ni1 1_555 1_555
O10 C29 1_555 1_555
O11 C36 1_555 1_555
O12 C36 1_555 1_555
O13 Ni2 1_555 1_555
O14 C55 1_555 1_555
O15 C56 1_555 1_555
O16 C56 1_555 1_555
O17 Ni2 1_555 1_555
H1 O17 1_555 1_555
H2 O17 1_555 1_555
O18 Ni2 1_555 1_555
H3 O18 1_555 1_555
H4 O18 1_555 1_555
O19 Ni1 1_555 1_555
H5 O19 1_555 1_555
H6 O19 1_555 1_555
C1 C2 1_555 1_555
C2 C3 1_555 1_555
C3 H7 1_555 1_555
C4 C3 1_555 1_555
H8 C4 1_555 1_555
C5 C4 1_555 1_555
C6 C5 1_555 1_555
C7 C2 1_555 1_555
H9 C7 1_555 1_555
C8 C6 1_555 1_555
C9 H10 1_555 1_555
C10 C5 1_555 1_555
C11 C10 1_555 1_555
H11 C11 1_555 1_555
C12 C11 1_555 1_555
H12 C12 1_555 1_555
C13 C12 1_555 1_555
C14 C9 1_555 1_555
H13 C14 1_555 1_555
C15 H14 1_555 1_555
C16 C15 1_555 1_555
H15 C16 1_555 1_555
C17 H16 1_555 1_555
C18 C17 1_555 1_555
H17 C18 1_555 1_555
C19 C13 1_555 1_555
C20 C16 1_555 1_555
C21 C20 1_555 1_555
C22 C21 1_555 1_555
H18 C22 1_555 1_555
C23 C22 1_555 1_555
H19 C23 1_555 1_555
C24 C23 1_555 1_555
C25 C24 1_555 1_555
H20 C25 1_555 1_555
C26 C21 1_555 1_555
C27 C24 1_555 1_555
C28 O8 1_555 1_555
C29 O9 1_555 1_555
C30 C29 1_555 1_555
C31 C30 1_555 1_555
H21 C31 1_555 1_555
C32 C31 1_555 1_555
H22 C32 1_555 1_555
C33 C32 1_555 1_555
C34 C33 1_555 1_555
C35 C30 1_555 1_555
H23 C35 1_555 1_555
C36 C34 1_555 1_555
C37 C33 1_555 1_555
C38 C37 1_555 1_555
H24 C38 1_555 1_555
C39 C38 1_555 1_555
H25 C39 1_555 1_555
C40 C39 1_555 1_555
C41 C40 1_555 1_555
H26 C41 1_555 1_555
C42 C37 1_555 1_555
H27 C42 1_555 1_555
C43 C40 1_555 1_555
C44 C43 1_555 1_555
H28 C44 1_555 1_555
C45 C44 1_555 1_555
H29 C45 1_555 1_555
C46 C45 1_555 1_555
C47 C46 1_555 1_555
H30 C47 1_555 1_555
C48 C43 1_555 1_555
H31 C48 1_555 1_555
C49 C46 1_555 1_555
C50 C49 1_555 1_555
H32 C50 1_555 1_555
C51 C50 1_555 1_555
H33 C51 1_555 1_555
C52 C51 1_555 1_555
C53 C52 1_555 1_555
H34 C53 1_555 1_555
C54 C49 1_555 1_555
C55 O13 1_555 1_555
C56 C52 1_555 1_555
Ni1A O12 1_555 1_555
Ni1A_2 O6 1_555 1_555
Ni2A O16 1_555 1_555
Ni2A_2 O4 1_555 1_555
Ni3_2 O11 1_555 1_555
Ni3_3 O5 1_555 1_555
Ni3A O19 1_555 1_555
O4A Ni2 1_555 1_555
O5_2 Ni3 1_555 1_555
O6A Ni1 1_555 1_555
O11_2 Ni3 1_555 1_555
O12A Ni1 1_555 1_555
O16A Ni2 1_555 1_555
O19A Ni3 1_555 1_555
Ni3 O13 1_555 1_555
Ni3 O18 1_555 1_555
C6 C7 1_555 1_555
C9 C10 1_555 1_555
C13 C14 1_555 1_555
C15 C19 1_555 1_555
C17 C20 1_555 1_555
C18 C19 1_555 1_555
C25 C26 1_555 1_555
C26 C28 1_555 1_555
C34 C35 1_555 1_555
C41 C42 1_555 1_555
C47 C48 1_555 1_555
C53 C54 1_555 1_555
C54 C55 1_555 1_555

#END
