
#######################################################################
#
#                 Cambridge Crystallographic Data Centre
#                                CCDC 
#
#######################################################################
#
# If this CIF has been generated from an entry in the Cambridge 
# Structural Database, then it will include bibliographic, chemical, 
# crystal, experimental, refinement or atomic coordinate data resulting 
# from the CCDC's data processing and validation procedures.
#
#######################################################################

data_KEVWUF
_chemical_formula_moiety         '(C14 H24 La2 Mo12 N2 O61 P1 2+)n'
_symmetry_cell_setting           monoclinic
_symmetry_space_group_name_H-M   'C 2/c'
_symmetry_Int_Tables_number      15
_space_group_name_Hall           '-C 2yc'
loop_
_symmetry_equiv_pos_site_id
_symmetry_equiv_pos_as_xyz
1 x,y,z
2 -x,y,1/2-z
3 1/2+x,1/2+y,z
4 1/2-x,1/2+y,1/2-z
5 -x,-y,-z
6 x,-y,1/2+z
7 1/2-x,1/2-y,-z
8 1/2+x,1/2-y,1/2+z
_cell_length_a                   30.807(5)
_cell_length_b                   15.646(2)
_cell_length_c                   22.110(3)
_cell_angle_alpha                90
_cell_angle_beta                 133.331(2)
_cell_angle_gamma                90
_cell_volume                     7752.03
loop_
_atom_site_label
_atom_site_type_symbol
_atom_site_fract_x
_atom_site_fract_y
_atom_site_fract_z
_atom_site_U_iso_or_equiv
_atom_site_thermal_displace_type
Mo1 Mo 1.0000 0.36331(7) 0.7500 0.0603 Uani
Mo2 Mo 0.86776(4) 0.24914(5) 0.58923(5) 0.0375 Uani
Mo3 Mo 0.94506(4) 0.13633(5) 0.54728(5) 0.0266 Uani
Mo4 Mo 1.07632(4) 0.24932(6) 0.70805(5) 0.0358 Uani
Mo5 Mo 1.07622(4) 0.02313(6) 0.70897(5) 0.0370 Uani
Mo6 Mo 1.0000 -0.09213(7) 0.7500 0.0437 Uani
Mo7 Mo 0.86993(4) 0.02254(7) 0.58872(5) 0.0425 Uani
O17 O 0.8067(5) 0.3019(8) 0.5123(6) 0.0854 Uani
O18 O 0.9223(7) 0.3386(7) 0.6408(6) 0.1015 Uani
O19 O 0.8676(5) 0.2548(6) 0.6740(5) 0.0732 Uani
O20 O 0.8403(5) 0.1350(5) 0.5685(7) 0.0612 Uani
O21 O 0.8952(3) 0.2194(5) 0.5369(6) 0.0517 Uani
O22 O 0.8966(5) 0.0524(5) 0.5391(8) 0.0739 Uani
O23 O 0.8092(3) -0.0323(4) 0.5125(4) 0.0388 Uani
O24 O 0.9265(4) -0.0686(10) 0.6454(5) 0.0898 Uani
O25 O 0.9208(5) 0.1363(4) 0.4542(5) 0.0534 Uani
O26 O 1.0055(3) 0.0532(5) 0.6026(5) 0.0560 Uani
O27 O 1.0045(3) 0.2210(4) 0.6011(6) 0.0575 Uani
O28 O 1.1149(3) -0.0289(5) 0.6937(5) 0.0495 Uani
O29 O 1.0338(4) -0.0638(8) 0.7064(5) 0.0772 Uani
O30 O 1.0000 0.4685(6) 0.7500 0.0484 Uani
O31 O 1.1309(4) 0.0169(9) 0.8267(5) 0.0934 Uani
O32 O 1.0386(4) 0.0543(6) 0.7721(6) 0.0604 Uani
O33 O 1.1038(3) 0.1371(5) 0.7209(6) 0.0559 Uani
O34 O 0.9427(5) 0.1388(5) 0.6565(6) 0.0612 Uani
O35 O 0.9585(4) 0.2149(7) 0.7259(6) 0.0658 Uani
O36 O 0.9833(5) 0.1368(6) 0.8003(6) 0.0657 Uani
O37 O 1.0365(7) 0.3408(9) 0.7086(6) 0.1108 Uani
O38 O 1.1103(4) 0.2990(7) 0.6861(6) 0.0729 Uani
P1 P 1.0000 0.13628(15) 0.7500 0.0146 Uani
O39 O 1.0000 -0.1958(7) 0.7500 0.0829 Uani
O32A O 0.9614(4) 0.0543(6) 0.7279(6) 0.0604 Uani
O34A O 1.0573(5) 0.1388(5) 0.8435(6) 0.0612 Uani
O35A O 1.0415(4) 0.2149(7) 0.7741(6) 0.0658 Uani
O36A O 1.0167(5) 0.1368(6) 0.6997(6) 0.0657 Uani
Mo2A Mo 1.13224(4) 0.24914(5) 0.91077(5) 0.0375 Uani
Mo3A Mo 1.05494(4) 0.13633(5) 0.95272(5) 0.0266 Uani
Mo4A Mo 0.92368(4) 0.24932(6) 0.79195(5) 0.0358 Uani
Mo5A Mo 0.92378(4) 0.02313(6) 0.79103(5) 0.0370 Uani
Mo7A Mo 1.13007(4) 0.02254(7) 0.91128(5) 0.0425 Uani
O17A O 1.1933(5) 0.3019(8) 0.9877(6) 0.0854 Uani
O18A O 1.0777(7) 0.3386(7) 0.8592(6) 0.1015 Uani
O19A O 1.1324(5) 0.2548(6) 0.8260(5) 0.0732 Uani
O20A O 1.1597(5) 0.1350(5) 0.9315(7) 0.0612 Uani
O21A O 1.1048(3) 0.2194(5) 0.9631(6) 0.0517 Uani
O22A O 1.1034(5) 0.0524(5) 0.9609(8) 0.0739 Uani
O23A O 1.1908(3) -0.0323(4) 0.9875(4) 0.0388 Uani
O24A O 1.0735(4) -0.0686(10) 0.8546(5) 0.0898 Uani
O25A O 1.0792(5) 0.1363(4) 1.0458(5) 0.0534 Uani
O26A O 0.9945(3) 0.0532(5) 0.8974(5) 0.0560 Uani
O27A O 0.9955(3) 0.2210(4) 0.8989(6) 0.0575 Uani
O28A O 0.8851(3) -0.0289(5) 0.8063(5) 0.0495 Uani
O29A O 0.9662(4) -0.0638(8) 0.7936(5) 0.0772 Uani
O31A O 0.8691(4) 0.0169(9) 0.6733(5) 0.0934 Uani
O33A O 0.8962(3) 0.1371(5) 0.7791(6) 0.0559 Uani
O37A O 0.9635(7) 0.3408(9) 0.7914(6) 0.1108 Uani
O38A O 0.8897(4) 0.2990(7) 0.8139(6) 0.0729 Uani
O40 O 0.7362(4) 0.6438(6) 0.8375(7) 0.0672 Uani
C1 C 0.8497(4) 0.5535(6) 0.6544(5) 0.0248 Uani
C2 C 0.8250(3) 0.4864(5) 0.6716(5) 0.0210 Uani
C3 C 0.7874(4) 0.4226(5) 0.6162(5) 0.0268 Uani
H1 H 0.7799 0.4148 0.5680 0.0320 Uiso
C4 C 0.7607(5) 0.3702(5) 0.6336(6) 0.0338 Uani
H2 H 0.7338 0.3280 0.5962 0.0400 Uiso
C5 C 0.7745(4) 0.3813(6) 0.7066(5) 0.0284 Uani
H3 H 0.7571 0.3470 0.7194 0.0330 Uiso
C6 C 0.8143(3) 0.4439(5) 0.7604(4) 0.0177 Uani
C7 C 0.8366(4) 0.4563(5) 0.8451(5) 0.0227 Uani
C8 C 0.7642(3) 0.1962(5) 0.8547(5) 0.0209 Uani
C9 C 0.8281(3) 0.1730(5) 0.9061(5) 0.0197 Uani
C10 C 0.8456(4) 0.0977(6) 0.8952(5) 0.0310 Uani
H4 H 0.8174 0.0581 0.8553 0.0380 Uiso
C11 C 0.9062(4) 0.0827(5) 0.9452(5) 0.0293 Uani
H5 H 0.9191 0.0323 0.9396 0.0350 Uiso
C12 C 0.9477(4) 0.1440(5) 1.0041(6) 0.0263 Uani
H6 H 0.9884 0.1360 1.0372 0.0320 Uiso
C13 C 0.9258(3) 0.2173(5) 1.0115(5) 0.0199 Uani
C14 C 0.9653(3) 0.2887(5) 1.0690(5) 0.0259 Uani
La1 La 0.889346(19) 0.63779(3) 0.82868(3) 0.0186 Uani
La2 La 0.831169(19) 0.37075(3) 0.98662(3) 0.0168 Uani
N1 N 0.8382(3) 0.4969(4) 0.7432(4) 0.0196 Uani
N2 N 0.8670(3) 0.2311(4) 0.9642(4) 0.0186 Uani
O1 O 0.8763(3) 0.6156(4) 0.7047(4) 0.0317 Uani
O2 O 0.8411(3) 0.5451(4) 0.5906(4) 0.0343 Uani
O3 O 0.8665(3) 0.5239(4) 0.8832(4) 0.0374 Uani
O4 O 0.8250(3) 0.4019(4) 0.8721(4) 0.0338 Uani
O5 O 0.7535(3) 0.2638(4) 0.8742(4) 0.0300 Uani
O6 O 0.7251(3) 0.1505(4) 0.7941(4) 0.0302 Uani
O7 O 1.0204(2) 0.2808(4) 1.1117(4) 0.0341 Uani
O8 O 0.9414(3) 0.3534(4) 1.0697(4) 0.0311 Uani
O9 O 0.7442(4) 0.4732(6) 0.8860(5) 0.0580 Uani
O10 O 0.8783(4) 0.5189(4) 1.0152(5) 0.0410 Uani
O11 O 0.7460(3) 0.3392(4) 0.9794(5) 0.0371 Uani
O12 O 0.8675(3) 0.2641(4) 1.1056(4) 0.0376 Uani
O13 O 0.9695(4) 0.6286(5) 0.9921(5) 0.0533 Uani
O14 O 0.8389(3) 0.7053(5) 0.8741(5) 0.0457 Uani
O15 O 0.8631(3) 0.7848(5) 0.7639(5) 0.0518 Uani
O16 O 0.9731(3) 0.5232(4) 0.8773(5) 0.0373 Uani
La1C La 0.610654(19) 0.13779(3) 0.67132(3) 0.0186 Uani
La1D La 1.110654(19) 0.36221(3) 1.17132(3) 0.0186 Uani
La2E La 0.831169(19) 0.62925(3) 0.48662(3) 0.0168 Uani
O2E O 0.8411(3) 0.4549(4) 1.0906(4) 0.0343 Uani
O6C O 0.7749(3) 0.6505(4) 0.7059(4) 0.0302 Uani
O7D O 0.9796(2) 0.7192(4) 0.8883(4) 0.0341 Uani
loop_
_atom_site_aniso_label
_atom_site_aniso_U_11
_atom_site_aniso_U_22
_atom_site_aniso_U_33
_atom_site_aniso_U_23
_atom_site_aniso_U_13
_atom_site_aniso_U_12
Mo1 0.1142(16) 0.0144(6) 0.0705(11) 0.000 0.0704(12) 0.000
Mo2 0.0326(4) 0.0283(4) 0.0182(4) -0.0002(3) 0.0046(3) 0.0123(3)
Mo3 0.0280(4) 0.0304(4) 0.0187(3) -0.0001(2) 0.0150(3) 0.0002(3)
Mo4 0.0369(4) 0.0429(5) 0.0306(4) 0.0010(3) 0.0243(4) -0.0093(3)
Mo5 0.0423(5) 0.0438(5) 0.0375(5) -0.0010(3) 0.0322(4) 0.0077(4)
Mo6 0.0248(5) 0.0158(5) 0.0502(7) 0.000 0.0102(5) 0.000
Mo7 0.0226(4) 0.0749(7) 0.0258(4) -0.0218(4) 0.0150(4) -0.0228(4)
O17 0.074(6) 0.142(10) 0.044(5) 0.053(6) 0.042(5) 0.084(7)
O18 0.192(13) 0.072(6) 0.060(6) -0.047(5) 0.094(8) -0.089(8)
O19 0.131(9) 0.043(5) 0.031(4) -0.016(3) 0.050(5) -0.036(5)
O20 0.083(6) 0.046(5) 0.116(8) -0.050(5) 0.092(7) -0.040(4)
O21 0.045(4) 0.030(4) 0.094(7) -0.026(4) 0.053(5) -0.016(3)
O22 0.126(8) 0.022(4) 0.169(11) -0.028(5) 0.138(9) -0.024(4)
O23 0.018(3) 0.033(3) 0.033(3) 0.002(3) 0.005(3) -0.010(2)
O24 0.032(4) 0.210(14) 0.020(4) 0.011(5) 0.015(3) 0.051(6)
O25 0.084(7) 0.039(4) 0.024(4) 0.000(3) 0.032(4) -0.002(4)
O26 0.021(3) 0.024(3) 0.058(5) 0.001(3) 0.002(3) 0.002(3)
O27 0.020(3) 0.019(3) 0.079(6) -0.004(3) 0.013(4) 0.002(2)
O28 0.043(4) 0.057(5) 0.048(4) 0.004(4) 0.031(4) 0.024(4)
O29 0.048(5) 0.129(9) 0.020(3) 0.003(4) 0.010(3) -0.050(6)
O30 0.044(6) 0.023(5) 0.055(7) 0.000 0.025(5) 0.000
O31 0.066(6) 0.187(13) 0.030(4) -0.031(6) 0.034(4) -0.083(7)
O32 0.054(5) 0.068(6) 0.058(5) 0.003(4) 0.038(5) -0.001(4)
O33 0.024(4) 0.038(4) 0.046(5) -0.008(3) 0.001(3) 0.003(3)
O34 0.073(7) 0.051(5) 0.052(6) 0.002(4) 0.040(5) 0.009(4)
O35 0.064(6) 0.070(6) 0.057(5) -0.009(5) 0.039(5) -0.005(5)
O36 0.080(7) 0.060(6) 0.053(6) -0.006(4) 0.044(6) -0.009(4)
O37 0.167(13) 0.127(10) 0.046(5) 0.053(6) 0.076(8) 0.112(10)
O38 0.046(5) 0.104(8) 0.049(5) 0.014(5) 0.025(4) -0.034(5)
P1 0.0142(12) 0.0132(12) 0.0094(11) 0.000 0.0054(10) 0.000
O39 0.169(17) 0.020(5) 0.118(13) 0.000 0.121(14) 0.000
O32A 0.054 0.068 0.058 -0.003 0.038 0.001
O34A 0.073 0.051 0.052 -0.002 0.04 -0.009
O35A 0.064 0.07 0.057 0.009 0.039 0.005
O36A 0.08 0.06 0.053 0.006 0.044 0.009
Mo2A 0.0326 0.0283 0.0182 0.0002 0.0046 -0.0123
Mo3A 0.028 0.0304 0.0187 0.0001 0.015 -0.0002
Mo4A 0.0369 0.0429 0.0306 -0.001 0.0243 0.0093
Mo5A 0.0423 0.0438 0.0375 0.001 0.0322 -0.0077
Mo7A 0.0226 0.0749 0.0258 0.0218 0.015 0.0228
O17A 0.074 0.142 0.044 -0.053 0.042 -0.084
O18A 0.192 0.072 0.06 0.047 0.094 0.089
O19A 0.131 0.043 0.031 0.016 0.05 0.036
O20A 0.083 0.046 0.116 0.05 0.092 0.04
O21A 0.045 0.03 0.094 0.026 0.053 0.016
O22A 0.126 0.022 0.169 0.028 0.138 0.024
O23A 0.018 0.033 0.033 -0.002 0.005 0.01
O24A 0.032 0.21 0.02 -0.011 0.015 -0.051
O25A 0.084 0.039 0.024 0 0.032 0.002
O26A 0.021 0.024 0.058 -0.001 0.002 -0.002
O27A 0.02 0.019 0.079 0.004 0.013 -0.002
O28A 0.043 0.057 0.048 -0.004 0.031 -0.024
O29A 0.048 0.129 0.02 -0.003 0.01 0.05
O31A 0.066 0.187 0.03 0.031 0.034 0.083
O33A 0.024 0.038 0.046 0.008 0.001 -0.003
O37A 0.167 0.127 0.046 -0.053 0.076 -0.112
O38A 0.046 0.104 0.049 -0.014 0.025 0.034
O40 0.042(5) 0.060(6) 0.085(8) 0.003(5) 0.038(5) 0.004(4)
C1 0.026(4) 0.033(4) 0.022(4) 0.004(3) 0.019(3) 0.003(3)
C2 0.024(4) 0.025(4) 0.018(3) 0.006(3) 0.016(3) 0.009(3)
C3 0.031(4) 0.029(4) 0.014(3) -0.001(3) 0.013(3) 0.005(3)
C4 0.038(5) 0.030(5) 0.019(4) -0.007(3) 0.014(4) -0.010(3)
C5 0.029(4) 0.029(4) 0.024(4) -0.002(3) 0.017(4) -0.006(3)
C6 0.017(3) 0.020(3) 0.017(3) 0.002(3) 0.012(3) 0.004(3)
C7 0.026(4) 0.023(4) 0.024(4) -0.001(3) 0.019(3) -0.002(3)
C8 0.012(3) 0.026(4) 0.017(3) -0.002(3) 0.007(3) -0.004(3)
C9 0.018(3) 0.023(4) 0.023(4) -0.001(3) 0.016(3) -0.001(3)
C10 0.038(5) 0.025(4) 0.024(4) -0.005(3) 0.019(4) 0.002(3)
C11 0.034(5) 0.022(4) 0.031(4) 0.004(3) 0.022(4) 0.005(3)
C12 0.020(4) 0.027(4) 0.028(4) 0.002(3) 0.015(4) 0.003(3)
C13 0.014(3) 0.026(4) 0.019(3) 0.002(3) 0.011(3) 0.003(3)
C14 0.015(3) 0.027(4) 0.031(4) 0.000(3) 0.014(3) -0.001(3)
La1 0.0143(2) 0.0217(2) 0.0142(2) -0.00110(14) 0.00762(19) -0.00219(14)
La2 0.0170(2) 0.0197(2) 0.0155(2) 0.00084(14) 0.01186(19) 0.00163(14)
N1 0.025(3) 0.018(3) 0.013(3) 0.001(2) 0.012(3) 0.002(2)
N2 0.017(3) 0.024(3) 0.015(3) 0.003(2) 0.011(3) 0.003(2)
O1 0.042(4) 0.034(3) 0.026(3) -0.002(3) 0.026(3) -0.009(3)
O2 0.049(4) 0.041(4) 0.029(3) 0.004(3) 0.033(3) 0.004(3)
O3 0.059(4) 0.034(3) 0.029(3) -0.010(3) 0.034(3) -0.018(3)
O4 0.055(4) 0.032(3) 0.027(3) -0.002(3) 0.033(3) -0.008(3)
O5 0.020(3) 0.033(3) 0.028(3) -0.007(2) 0.013(3) -0.001(2)
O6 0.021(3) 0.026(3) 0.020(3) -0.004(2) 0.005(2) -0.003(2)
O7 0.011(3) 0.034(3) 0.043(4) -0.001(3) 0.013(3) -0.002(2)
O8 0.017(3) 0.032(3) 0.036(4) -0.012(3) 0.015(3) -0.004(2)
O9 0.044(4) 0.067(6) 0.062(5) 0.041(4) 0.036(4) 0.028(4)
O10 0.071(5) 0.029(3) 0.046(4) -0.012(3) 0.049(4) -0.017(3)
O11 0.040(4) 0.030(3) 0.062(5) 0.001(3) 0.043(4) 0.004(3)
O12 0.044(4) 0.037(4) 0.025(3) 0.010(3) 0.021(3) 0.013(3)
O13 0.058(5) 0.050(5) 0.018(3) -0.007(3) 0.013(4) -0.009(4)
O14 0.039(4) 0.057(5) 0.046(4) -0.022(4) 0.031(4) -0.010(3)
O15 0.032(4) 0.031(4) 0.042(4) 0.008(3) 0.006(3) -0.007(3)
O16 0.027(3) 0.037(4) 0.047(4) -0.003(3) 0.025(3) 0.002(3)
La1C 0.0143 0.0217 0.0142 0.0011 0.00762 0.00219
La1D 0.0143 0.0217 0.0142 -0.0011 0.00762 -0.00219
La2E 0.017 0.0197 0.0155 -0.00084 0.01186 -0.00163
O2E 0.049 0.041 0.029 -0.004 0.033 -0.004
O6C 0.021 0.026 0.02 0.004 0.005 0.003
O7D 0.011 0.034 0.043 -0.001 0.013 -0.002
loop_
_geom_bond_atom_site_label_1
_geom_bond_atom_site_label_2
_geom_bond_site_symmetry_1
_geom_bond_site_symmetry_2
C1 C2 1_555 1_555
C2 C3 1_555 1_555
C3 H1 1_555 1_555
C4 C3 1_555 1_555
H2 C4 1_555 1_555
C5 C4 1_555 1_555
H3 C5 1_555 1_555
C6 C5 1_555 1_555
C7 C6 1_555 1_555
C8 C9 1_555 1_555
C9 C10 1_555 1_555
C10 H4 1_555 1_555
C11 C10 1_555 1_555
H5 C11 1_555 1_555
C12 C11 1_555 1_555
H6 C12 1_555 1_555
C13 C12 1_555 1_555
C14 C13 1_555 1_555
La1 N1 1_555 1_555
La2 N2 1_555 1_555
N1 C2 1_555 1_555
N2 C9 1_555 1_555
O1 C1 1_555 1_555
O2 C1 1_555 1_555
O3 C7 1_555 1_555
O4 C7 1_555 1_555
O5 C8 1_555 1_555
O6 C8 1_555 1_555
O7 C14 1_555 1_555
O8 C14 1_555 1_555
O9 La2 1_555 1_555
O10 La2 1_555 1_555
O11 La2 1_555 1_555
O12 La2 1_555 1_555
O13 La1 1_555 1_555
O14 La1 1_555 1_555
O15 La1 1_555 1_555
O16 La1 1_555 1_555
Mo1 O18 1_555 1_555
Mo2 O17 1_555 1_555
Mo3 O21 1_555 1_555
Mo4 O27 1_555 1_555
Mo5 O26 1_555 1_555
Mo6 O24 1_555 1_555
Mo7 O20 1_555 1_555
O18 Mo2 1_555 1_555
O19 Mo2 1_555 1_555
O20 Mo2 1_555 1_555
O21 Mo2 1_555 1_555
O22 Mo3 1_555 1_555
O23 Mo7 1_555 1_555
O24 Mo7 1_555 1_555
O25 Mo3 1_555 1_555
O26 Mo3 1_555 1_555
O27 Mo3 1_555 1_555
O28 Mo5 1_555 1_555
O29 Mo5 1_555 1_555
O30 Mo1 1_555 1_555
O31 Mo5 1_555 1_555
O32 Mo5 1_555 1_555
O33 Mo4 1_555 1_555
O34 Mo2 1_555 1_555
O35 Mo1 1_555 1_555
O36 O35 1_555 1_555
O37 Mo1 1_555 1_555
O38 Mo4 1_555 1_555
P1 O32 1_555 1_555
O39 Mo6 1_555 1_555
La1C O6 1_555 1_555
La1D O7 1_555 1_555
La2E O2 1_555 1_555
O2E La2 1_555 1_555
O6C La1 1_555 1_555
O7D La1 1_555 1_555
O32A Mo6 1_555 1_555
O34A O36 1_555 1_555
O35A Mo1 1_555 1_555
O36A Mo3 1_555 1_555
Mo2A O34A 1_555 1_555
Mo3A O36 1_555 1_555
Mo4A O19 1_555 1_555
Mo5A O36 1_555 1_555
Mo7A O31 1_555 1_555
O17A Mo2A 1_555 1_555
O18A Mo1 1_555 1_555
O19A Mo4 1_555 1_555
O20A Mo2A 1_555 1_555
O21A Mo2A 1_555 1_555
O22A Mo3A 1_555 1_555
O23A Mo7A 1_555 1_555
O24A Mo6 1_555 1_555
O25A Mo3A 1_555 1_555
O26A Mo3A 1_555 1_555
O27A Mo3A 1_555 1_555
O28A Mo5A 1_555 1_555
O29A Mo6 1_555 1_555
O31A Mo7 1_555 1_555
O33A Mo4A 1_555 1_555
O37A Mo1 1_555 1_555
O38A Mo4A 1_555 1_555
C6 N1 1_555 1_555
C13 N2 1_555 1_555
La1 O1 1_555 1_555
La1 O3 1_555 1_555
La2 O4 1_555 1_555
La2 O5 1_555 1_555
La2 O8 1_555 1_555
Mo2 O35 1_555 1_555
Mo3 O34 1_555 1_555
Mo4 O37 1_555 1_555
Mo4 O35A 1_555 1_555
Mo4 O36A 1_555 1_555
Mo5 O33 1_555 1_555
Mo5 O36A 1_555 1_555
Mo6 O29 1_555 1_555
Mo6 O32 1_555 1_555
Mo7 O22 1_555 1_555
Mo7 O34 1_555 1_555
Mo7 O32A 1_555 1_555
O32 O36A 1_555 1_555
O32 Mo7A 1_555 1_555
O34 O35 1_555 1_555
O34 P1 1_555 1_555
O34 O36A 1_555 1_555
O35 P1 1_555 1_555
O35 Mo4A 1_555 1_555
O36 P1 1_555 1_555
O36 O32A 1_555 1_555
O36 Mo4A 1_555 1_555
P1 O32A 1_555 1_555
P1 O34A 1_555 1_555
P1 O35A 1_555 1_555
P1 O36A 1_555 1_555
O32A Mo5A 1_555 1_555
O34A O35A 1_555 1_555
O34A Mo3A 1_555 1_555
O34A Mo7A 1_555 1_555
O35A O36A 1_555 1_555
O35A Mo2A 1_555 1_555
Mo2A O18A 1_555 1_555
Mo2A O19A 1_555 1_555
Mo3A O21A 1_555 1_555
Mo4A O27A 1_555 1_555
Mo4A O37A 1_555 1_555
Mo5A O26A 1_555 1_555
Mo5A O29A 1_555 1_555
Mo5A O31A 1_555 1_555
Mo5A O33A 1_555 1_555
Mo7A O20A 1_555 1_555
Mo7A O22A 1_555 1_555
Mo7A O24A 1_555 1_555

#END
