
#######################################################################
#
#                 Cambridge Crystallographic Data Centre
#                                CCDC 
#
#######################################################################
#
# If this CIF has been generated from an entry in the Cambridge 
# Structural Database, then it will include bibliographic, chemical, 
# crystal, experimental, refinement or atomic coordinate data resulting 
# from the CCDC's data processing and validation procedures.
#
#######################################################################

data_LEYRAK
_chemical_formula_moiety         '(C14 H24 Ce2 Mo12 N2 O61 P1 2+)n'
_symmetry_cell_setting           monoclinic
_symmetry_space_group_name_H-M   'C 2/c'
_symmetry_Int_Tables_number      15
_space_group_name_Hall           '-C 2yc'
loop_
_symmetry_equiv_pos_site_id
_symmetry_equiv_pos_as_xyz
1 x,y,z
2 -x,y,1/2-z
3 1/2+x,1/2+y,z
4 1/2-x,1/2+y,1/2-z
5 -x,-y,-z
6 x,-y,1/2+z
7 1/2-x,1/2-y,-z
8 1/2+x,1/2-y,1/2+z
_cell_length_a                   30.7464(15)
_cell_length_b                   15.6855(7)
_cell_length_c                   22.0714(10)
_cell_angle_alpha                90
_cell_angle_beta                 133.21
_cell_angle_gamma                90
_cell_volume                     7758.19
loop_
_atom_site_label
_atom_site_type_symbol
_atom_site_fract_x
_atom_site_fract_y
_atom_site_fract_z
_atom_site_U_iso_or_equiv
_atom_site_thermal_displace_type
Mo1 Mo 0.5000 0.13718(6) 0.7500 0.0546 Uani
Mo2 Mo 0.5000 0.59264(5) 0.7500 0.0362 Uani
Mo3 Mo 0.36949(3) 0.47759(5) 0.58844(4) 0.0375 Uani
Mo4 Mo 0.36742(3) 0.25109(4) 0.58881(4) 0.0356 Uani
Mo5 Mo 0.44489(3) 0.36415(4) 0.54664(4) 0.0267 Uani
Mo6 Mo 0.57626(3) 0.47766(5) 0.70844(4) 0.0381 Uani
Mo7 Mo 0.57666(3) 0.25137(5) 0.70780(4) 0.0359 Uani
P1 P 0.5000 0.36422(12) 0.7500 0.0160 Uani
O17 O 0.5374(3) 0.4459(5) 0.7708(5) 0.0175 Uani
O18 O 0.4461(4) 0.3619(5) 0.6575(5) 0.0170 Uani
O19 O 0.5403(4) 0.2865(5) 0.7728(5) 0.0188 Uani
O20 O 0.4845(4) 0.3632(5) 0.8009(5) 0.0192 Uani
O21 O 0.4262(3) 0.5692(7) 0.6444(4) 0.0928 Uani
O22 O 0.6319(3) 0.4830(7) 0.8275(4) 0.0945 Uani
O23 O 0.5000 0.6972(6) 0.7500 0.0920 Uani
O24 O 0.5217(5) 0.1774(8) 0.6991(6) 0.0315 Uani
O25 O 0.4237(5) 0.1618(5) 0.6412(5) 0.1021 Uani
O26 O 0.3678(4) 0.2463(4) 0.6740(4) 0.0753 Uani
O27 O 0.3976(4) 0.4476(4) 0.5390(6) 0.0776 Uani
O28 O 0.5342(3) 0.5664(6) 0.7067(3) 0.0803 Uani
O29 O 0.3061(4) 0.1989(6) 0.5112(4) 0.0883 Uani
O30 O 0.3396(3) 0.3647(4) 0.5677(5) 0.0584 Uani
O31 O 0.6107(3) 0.2003(6) 0.6854(4) 0.0774 Uani
O32 O 0.3959(3) 0.2807(4) 0.5366(5) 0.0571 Uani
O33 O 0.5000 0.0326(5) 0.7500 0.0545 Uani
O34 O 0.4195(4) 0.3637(3) 0.4531(4) 0.0587 Uani
O35 O 0.5065(2) 0.4467(3) 0.6001(4) 0.0546 Uani
O36 O 0.6041(3) 0.3643(3) 0.7207(4) 0.0578 Uani
O37 O 0.5053(2) 0.2794(3) 0.5996(4) 0.0538 Uani
O38 O 0.6150(3) 0.5302(4) 0.6934(4) 0.0517 Uani
O39 O 0.3086(2) 0.5324(3) 0.5121(3) 0.0372 Uani
O17A O 0.4626(3) 0.4459(5) 0.7292(5) 0.0175 Uani
O18A O 0.5539(4) 0.3619(5) 0.8425(5) 0.0170 Uani
O19A O 0.4597(4) 0.2865(5) 0.7272(5) 0.0188 Uani
O20A O 0.5155(4) 0.3632(5) 0.6991(5) 0.0192 Uani
Mo3A Mo 0.63051(3) 0.47759(5) 0.91156(4) 0.0375 Uani
Mo4A Mo 0.63258(3) 0.25109(4) 0.91119(4) 0.0356 Uani
Mo5A Mo 0.55511(3) 0.36415(4) 0.95336(4) 0.0267 Uani
Mo6A Mo 0.42374(3) 0.47766(5) 0.79156(4) 0.0381 Uani
Mo7A Mo 0.42334(3) 0.25137(5) 0.79220(4) 0.0359 Uani
O21A O 0.5738(3) 0.5692(7) 0.8556(4) 0.0928 Uani
O22A O 0.3681(3) 0.4830(7) 0.6725(4) 0.0945 Uani
O24A O 0.4783(5) 0.1774(8) 0.8009(6) 0.0315 Uani
O25A O 0.5763(5) 0.1618(5) 0.8588(5) 0.1021 Uani
O26A O 0.6322(4) 0.2463(4) 0.8260(4) 0.0753 Uani
O27A O 0.6024(4) 0.4476(4) 0.9610(6) 0.0776 Uani
O28A O 0.4658(3) 0.5664(6) 0.7933(3) 0.0803 Uani
O29A O 0.6939(4) 0.1989(6) 0.9888(4) 0.0883 Uani
O30A O 0.6604(3) 0.3647(4) 0.9323(5) 0.0584 Uani
O31A O 0.3893(3) 0.2003(6) 0.8146(4) 0.0774 Uani
O32A O 0.6041(3) 0.2807(4) 0.9634(5) 0.0571 Uani
O34A O 0.5805(4) 0.3637(3) 1.0469(4) 0.0587 Uani
O35A O 0.4935(2) 0.4467(3) 0.8999(4) 0.0546 Uani
O36A O 0.3959(3) 0.3643(3) 0.7793(4) 0.0578 Uani
O37A O 0.4947(2) 0.2794(3) 0.9004(4) 0.0538 Uani
O38A O 0.3850(3) 0.5302(4) 0.8066(4) 0.0517 Uani
O39A O 0.6914(2) 0.5324(3) 0.9879(3) 0.0372 Uani
O40 O 0.2369(3) 1.1434(4) 0.3373(5) 0.0666 Uani
H23 H 0.2358 1.1510 0.3739 0.0810 Uiso
H24 H 0.2036 1.1534 0.2894 0.0810 Uiso
Ce1 Ce 0.331222(14) 0.87107(2) 0.48629(2) 0.0175 Uani
Ce2 Ce 0.610597(15) 0.86283(2) 0.67213(2) 0.0191 Uani
O1 O 0.25331(18) 0.7658(3) 0.3734(3) 0.0302 Uani
O2 O 0.2242(2) 0.6510(3) 0.2944(3) 0.0305 Uani
O3 O 0.4409(2) 0.8549(3) 0.5695(3) 0.0325 Uani
O4 O 0.52017(19) 0.7831(3) 0.6125(3) 0.0346 Uani
O5 O 0.6341(2) 0.9740(3) 0.6175(3) 0.0356 Uani
O6 O 0.6746(2) 1.0974(3) 0.6271(3) 0.0339 Uani
O7 O 0.6228(2) 0.8835(3) 0.7951(3) 0.0316 Uani
O8 O 0.6576(2) 0.9536(3) 0.9084(3) 0.0363 Uani
O9 O 0.2461(2) 0.8376(3) 0.4801(4) 0.0378 Uani
H1 H 0.2379 0.8870 0.4863 0.0450 Uiso
H2 H 0.2133 0.8143 0.4381 0.0450 Uiso
O10 O 0.2458(3) 0.9728(4) 0.3875(4) 0.0584 Uani
H3 H 0.2471 1.0201 0.3711 0.0700 Uiso
H4 H 0.2126 0.9670 0.3728 0.0700 Uiso
O11 O 0.3778(3) 1.0183(3) 0.5150(3) 0.0427 Uani
H5 H 0.3620 1.0390 0.4687 0.0510 Uiso
H6 H 0.3877 1.0578 0.5481 0.0510 Uiso
O12 O 0.3667(2) 0.7644(3) 0.6039(3) 0.0365 Uani
H7 H 0.4026 0.7456 0.6389 0.0440 Uiso
H8 H 0.3602 0.7910 0.6309 0.0440 Uiso
O13 O 0.5263(2) 0.9768(3) 0.6216(3) 0.0390 Uani
H9 H 0.5349 1.0117 0.6572 0.0470 Uiso
H10 H 0.5002 0.9428 0.6094 0.0470 Uiso
O14 O 0.5323(3) 0.8695(4) 0.5091(3) 0.0495 Uani
H11 H 0.5126 0.9097 0.4749 0.0600 Uiso
H12 H 0.5269 0.8250 0.4832 0.0600 Uiso
O15 O 0.6350(2) 0.7174(3) 0.7360(4) 0.0514 Uani
H13 H 0.6199 0.6700 0.7126 0.0620 Uiso
H14 H 0.6725 0.7134 0.7734 0.0620 Uiso
O16 O 0.6609(2) 0.7924(4) 0.6288(4) 0.0502 Uani
H15 H 0.6432 0.7643 0.5841 0.0600 Uiso
H16 H 0.6830 0.8298 0.6327 0.0600 Uiso
N1 N 0.3667(2) 0.7326(3) 0.4641(3) 0.0195 Uani
N2 N 0.6620(2) 1.0024(3) 0.7576(3) 0.0197 Uani
C1 C 0.3282(3) 0.6745(4) 0.4072(4) 0.0202 Uani
C2 C 0.3461(3) 0.5998(4) 0.3959(4) 0.0280 Uani
H17 H 0.3174 0.5601 0.3542 0.0340 Uiso
C3 C 0.4065(3) 0.5842(5) 0.4468(4) 0.0311 Uani
H18 H 0.4201 0.5327 0.4419 0.0370 Uiso
C4 C 0.4468(3) 0.6449(4) 0.5047(4) 0.0263 Uani
H19 H 0.4884 0.6364 0.5391 0.0320 Uiso
C5 C 0.4255(3) 0.7184(4) 0.5120(4) 0.0221 Uani
C6 C 0.2632(3) 0.6989(4) 0.3535(4) 0.0237 Uani
C7 C 0.4654(3) 0.7902(4) 0.5700(4) 0.0252 Uani
C8 C 0.6846(3) 1.0555(4) 0.7386(4) 0.0213 Uani
C9 C 0.7255(3) 1.1185(4) 0.7928(4) 0.0303 Uani
H20 H 0.7435 1.1531 0.7796 0.0360 Uiso
C10 C 0.7394(3) 1.1295(4) 0.8672(4) 0.0343 Uani
H21 H 0.7667 1.1723 0.9058 0.0410 Uiso
C11 C 0.7123(3) 1.0765(4) 0.8833(4) 0.0282 Uani
H22 H 0.7196 1.0844 0.9323 0.0340 Uiso
C12 C 0.6752(3) 1.0129(4) 0.8291(4) 0.0217 Uani
C13 C 0.6634(3) 1.0416(4) 0.6547(4) 0.0222 Uani
C14 C 0.6495(3) 0.9460(4) 0.8455(4) 0.0246 Uani
Ce1A Ce 0.668778(14) 0.87107(2) 1.01371(2) 0.0175 Uani
Ce1D Ce 0.668778(14) 1.12893(2) 0.51371(2) 0.0175 Uani
Ce2G Ce 0.110597(15) 0.63717(2) 0.17213(2) 0.0191 Uani
O2G O 0.7242(2) 0.8490(3) 0.7944(3) 0.0305 Uani
O6D O 0.3254(2) 0.9026(3) 0.3729(3) 0.0339 Uani
O8A O 0.3424(2) 0.9536(3) 0.5916(3) 0.0363 Uani
loop_
_atom_site_aniso_label
_atom_site_aniso_U_11
_atom_site_aniso_U_22
_atom_site_aniso_U_33
_atom_site_aniso_U_23
_atom_site_aniso_U_13
_atom_site_aniso_U_12
Mo1 0.1109(12) 0.0102(5) 0.0641(9) 0.000 0.0682(9) 0.000
Mo2 0.0157(4) 0.0116(4) 0.0404(6) 0.000 0.0033(4) 0.000
Mo3 0.0175(3) 0.0714(5) 0.0203(3) 0.0192(3) 0.0117(3) 0.0201(3)
Mo4 0.0304(3) 0.0274(3) 0.0137(3) 0.0002(2) 0.0014(3) -0.0129(3)
Mo5 0.0261(3) 0.0347(4) 0.0178(3) -0.0004(2) 0.0145(3) -0.0004(2)
Mo6 0.0431(4) 0.0483(4) 0.0370(4) 0.0003(3) 0.0329(3) -0.0078(3)
Mo7 0.0354(3) 0.0475(4) 0.0280(3) 0.0002(3) 0.0230(3) 0.0099(3)
P1 0.0156(10) 0.0173(11) 0.0120(10) 0.000 0.0082(9) 0.000
O17 0.020(4) 0.014(4) 0.010(4) 0.002(3) 0.007(3) 0.002(3)
O18 0.013(4) 0.019(4) 0.015(4) 0.000(3) 0.008(4) 0.000(3)
O19 0.023(4) 0.015(4) 0.014(4) 0.000(3) 0.011(3) 0.000(3)
O20 0.018(4) 0.023(4) 0.014(4) 0.001(3) 0.010(4) 0.001(3)
O21 0.034(3) 0.206(10) 0.025(3) -0.002(4) 0.015(3) -0.055(5)
O22 0.056(4) 0.200(10) 0.028(3) 0.028(4) 0.029(3) 0.077(5)
O23 0.175(13) 0.020(4) 0.154(12) 0.000 0.141(12) 0.000
O24 0.029(6) 0.035(6) 0.019(5) 0.001(4) 0.012(5) 0.001(5)
O25 0.197(10) 0.071(5) 0.065(5) 0.043(4) 0.100(6) 0.090(6)
O26 0.131(7) 0.050(4) 0.035(3) 0.017(3) 0.053(4) 0.041(4)
O27 0.126(6) 0.026(3) 0.181(8) 0.028(4) 0.144(7) 0.024(3)
O28 0.050(4) 0.133(7) 0.021(3) -0.005(3) 0.010(3) 0.051(4)
O29 0.086(5) 0.146(8) 0.047(4) -0.065(4) 0.051(4) -0.094(5)
O30 0.067(4) 0.050(4) 0.105(6) 0.048(3) 0.077(5) 0.036(3)
O31 0.056(4) 0.109(6) 0.041(3) -0.009(4) 0.023(3) 0.046(4)
O32 0.048(3) 0.031(3) 0.106(5) 0.027(3) 0.058(4) 0.016(3)
O33 0.045(5) 0.021(4) 0.065(6) 0.000 0.025(4) 0.000
O34 0.097(6) 0.038(3) 0.027(3) 0.001(2) 0.037(4) 0.001(3)
O35 0.020(2) 0.028(3) 0.048(3) 0.001(2) -0.003(2) -0.002(2)
O36 0.023(3) 0.041(3) 0.050(4) 0.009(2) 0.002(3) -0.005(2)
O37 0.020(2) 0.028(3) 0.066(4) 0.009(3) 0.011(3) 0.005(2)
O38 0.047(3) 0.065(4) 0.042(3) -0.005(3) 0.030(3) -0.024(3)
O39 0.022(2) 0.033(3) 0.032(3) -0.003(2) 0.009(2) 0.009(2)
O17A 0.02 0.014 0.01 -0.002 0.007 -0.002
O18A 0.013 0.019 0.015 0 0.008 0
O19A 0.023 0.015 0.014 0 0.011 0
O20A 0.018 0.023 0.014 -0.001 0.01 -0.001
Mo3A 0.0175 0.0714 0.0203 -0.0192 0.0117 -0.0201
Mo4A 0.0304 0.0274 0.0137 -0.0002 0.0014 0.0129
Mo5A 0.0261 0.0347 0.0178 0.0004 0.0145 0.0004
Mo6A 0.0431 0.0483 0.037 -0.0003 0.0329 0.0078
Mo7A 0.0354 0.0475 0.028 -0.0002 0.023 -0.0099
O21A 0.034 0.206 0.025 0.002 0.015 0.055
O22A 0.056 0.2 0.028 -0.028 0.029 -0.077
O24A 0.029 0.035 0.019 -0.001 0.012 -0.001
O25A 0.197 0.071 0.065 -0.043 0.1 -0.09
O26A 0.131 0.05 0.035 -0.017 0.053 -0.041
O27A 0.126 0.026 0.181 -0.028 0.144 -0.024
O28A 0.05 0.133 0.021 0.005 0.01 -0.051
O29A 0.086 0.146 0.047 0.065 0.051 0.094
O30A 0.067 0.05 0.105 -0.048 0.077 -0.036
O31A 0.056 0.109 0.041 0.009 0.023 -0.046
O32A 0.048 0.031 0.106 -0.027 0.058 -0.016
O34A 0.097 0.038 0.027 -0.001 0.037 -0.001
O35A 0.02 0.028 0.048 -0.001 -0.003 0.002
O36A 0.023 0.041 0.05 -0.009 0.002 0.005
O37A 0.02 0.028 0.066 -0.009 0.011 -0.005
O38A 0.047 0.065 0.042 0.005 0.03 0.024
O39A 0.022 0.033 0.032 0.003 0.009 -0.009
O40 0.042(4) 0.077(5) 0.067(5) 0.000(3) 0.032(4) 0.003(3)
Ce1 0.0165(2) 0.0235(2) 0.0149(2) 0.00088(12) 0.01172(17) 0.00171(12)
Ce2 0.0143(2) 0.0251(2) 0.0139(2) -0.00129(12) 0.00806(16) -0.00227(11)
O1 0.015(2) 0.036(3) 0.028(2) -0.006(2) 0.0102(19) -0.0001(18)
O2 0.019(2) 0.035(2) 0.022(2) -0.006(2) 0.008(2) -0.0057(19)
O3 0.017(2) 0.034(3) 0.040(3) -0.009(2) 0.017(2) -0.0021(18)
O4 0.012(2) 0.036(3) 0.039(3) 0.001(2) 0.011(2) -0.0020(18)
O5 0.053(3) 0.038(3) 0.026(2) -0.009(2) 0.031(2) -0.015(2)
O6 0.049(3) 0.037(3) 0.032(3) -0.004(2) 0.034(2) -0.009(2)
O7 0.039(3) 0.037(3) 0.026(2) -0.002(2) 0.025(2) -0.008(2)
O8 0.054(3) 0.043(3) 0.029(3) 0.004(2) 0.035(3) 0.003(2)
O9 0.037(3) 0.034(3) 0.060(3) -0.005(2) 0.040(3) -0.001(2)
O10 0.039(3) 0.068(4) 0.070(4) 0.039(3) 0.038(3) 0.029(3)
O11 0.073(4) 0.034(3) 0.040(3) -0.010(2) 0.046(3) -0.013(3)
O12 0.038(3) 0.042(3) 0.028(3) 0.012(2) 0.022(2) 0.018(2)
O13 0.028(2) 0.040(3) 0.043(3) -0.012(2) 0.022(2) -0.005(2)
O14 0.050(4) 0.049(4) 0.022(3) -0.007(2) 0.014(3) -0.008(2)
O15 0.025(3) 0.033(3) 0.049(3) 0.008(2) 0.007(2) -0.003(2)
O16 0.044(3) 0.062(4) 0.051(3) -0.023(3) 0.035(3) -0.010(3)
N1 0.013(2) 0.027(3) 0.016(2) 0.003(2) 0.009(2) 0.0027(19)
N2 0.016(2) 0.027(3) 0.012(2) 0.0014(19) 0.008(2) 0.004(2)
C1 0.018(3) 0.025(3) 0.016(3) 0.000(2) 0.011(2) -0.001(2)
C2 0.028(3) 0.028(3) 0.025(3) -0.004(3) 0.017(3) -0.001(3)
C3 0.035(4) 0.031(4) 0.031(4) 0.007(3) 0.024(3) 0.011(3)
C4 0.021(3) 0.029(3) 0.026(3) 0.001(3) 0.015(3) 0.003(2)
C5 0.015(3) 0.031(3) 0.023(3) 0.002(2) 0.014(3) 0.000(2)
C6 0.019(3) 0.031(3) 0.016(3) -0.002(2) 0.010(3) -0.004(2)
C7 0.016(3) 0.035(4) 0.022(3) 0.003(3) 0.012(3) -0.001(3)
C8 0.023(3) 0.026(3) 0.019(3) 0.003(2) 0.016(3) 0.004(2)
C9 0.033(4) 0.032(3) 0.027(3) -0.002(3) 0.021(3) -0.005(3)
C10 0.032(4) 0.034(4) 0.017(3) -0.008(3) 0.009(3) -0.007(3)
C11 0.033(3) 0.029(3) 0.017(3) 0.000(3) 0.015(3) 0.006(3)
C12 0.024(3) 0.026(3) 0.020(3) 0.004(2) 0.017(3) 0.007(2)
C13 0.027(3) 0.026(3) 0.022(3) 0.002(2) 0.020(3) -0.001(3)
C14 0.028(3) 0.032(3) 0.023(3) 0.005(3) 0.021(3) 0.007(3)
Ce1A 0.0165 0.0235 0.0149 -0.00088 0.01172 -0.00171
Ce1D 0.0165 0.0235 0.0149 0.00088 0.01172 0.00171
Ce2G 0.0143 0.0251 0.0139 0.00129 0.00806 0.00227
O2G 0.019 0.035 0.022 0.006 0.008 0.0057
O6D 0.049 0.037 0.032 -0.004 0.034 -0.009
O8A 0.054 0.043 0.029 -0.004 0.035 -0.003
loop_
_geom_bond_atom_site_label_1
_geom_bond_atom_site_label_2
_geom_bond_site_symmetry_1
_geom_bond_site_symmetry_2
Ce1 O1 1_555 1_555
Ce2 O4 1_555 1_555
O1 C6 1_555 1_555
O2 C6 1_555 1_555
O3 Ce1 1_555 1_555
O4 C7 1_555 1_555
O5 Ce2 1_555 1_555
O6 C13 1_555 1_555
O7 Ce2 1_555 1_555
O8 C14 1_555 1_555
O9 Ce1 1_555 1_555
H1 O9 1_555 1_555
H2 O9 1_555 1_555
O10 Ce1 1_555 1_555
H3 O10 1_555 1_555
H4 O10 1_555 1_555
O11 Ce1 1_555 1_555
H5 O11 1_555 1_555
H6 O11 1_555 1_555
O12 Ce1 1_555 1_555
H7 O12 1_555 1_555
H8 O12 1_555 1_555
O13 Ce2 1_555 1_555
H9 O13 1_555 1_555
H10 O13 1_555 1_555
O14 Ce2 1_555 1_555
H11 O14 1_555 1_555
H12 O14 1_555 1_555
O15 Ce2 1_555 1_555
H13 O15 1_555 1_555
H14 O15 1_555 1_555
O16 Ce2 1_555 1_555
H15 O16 1_555 1_555
H16 O16 1_555 1_555
N1 Ce1 1_555 1_555
N2 Ce2 1_555 1_555
C1 N1 1_555 1_555
C2 C1 1_555 1_555
H17 C2 1_555 1_555
C3 C2 1_555 1_555
H18 C3 1_555 1_555
C4 C3 1_555 1_555
H19 C4 1_555 1_555
C5 N1 1_555 1_555
C6 C1 1_555 1_555
C7 O3 1_555 1_555
C8 N2 1_555 1_555
C9 C8 1_555 1_555
H20 C9 1_555 1_555
C10 C9 1_555 1_555
H21 C10 1_555 1_555
C11 C10 1_555 1_555
H22 C11 1_555 1_555
C12 N2 1_555 1_555
C13 O5 1_555 1_555
C14 O7 1_555 1_555
Mo1 O19 1_555 1_555
Mo2 O17 1_555 1_555
Mo3 O18 1_555 1_555
Mo4 O18 1_555 1_555
Mo5 O18 1_555 1_555
Mo6 O17 1_555 1_555
Mo7 O19 1_555 1_555
P1 O17 1_555 1_555
O17 O17A 1_555 1_555
O18 P1 1_555 1_555
O19 P1 1_555 1_555
O20 P1 1_555 1_555
O21 Mo2 1_555 1_555
O22 Mo6 1_555 1_555
O23 Mo2 1_555 1_555
O24 Mo1 1_555 1_555
O25 Mo1 1_555 1_555
O26 Mo4 1_555 1_555
O27 Mo3 1_555 1_555
O28 Mo2 1_555 1_555
O29 Mo4 1_555 1_555
O30 Mo3 1_555 1_555
O31 Mo7 1_555 1_555
O32 Mo4 1_555 1_555
O33 Mo1 1_555 1_555
O34 Mo5 1_555 1_555
O35 Mo5 1_555 1_555
O36 Mo6 1_555 1_555
O37 Mo5 1_555 1_555
O38 Mo6 1_555 1_555
O39 Mo3 1_555 1_555
O40 H23 1_555 1_555
H24 O40 1_555 1_555
Ce1A O8 1_555 1_555
Ce1D O6 1_555 1_555
Ce2G O2 1_555 1_555
O2G Ce2 1_555 1_555
O6D Ce1 1_555 1_555
O8A Ce1 1_555 1_555
O17A Mo2 1_555 1_555
O18A P1 1_555 1_555
O19A Mo1 1_555 1_555
O20A Mo5 1_555 1_555
Mo3A O17 1_555 1_555
Mo4A O19 1_555 1_555
Mo5A O20 1_555 1_555
Mo6A O20 1_555 1_555
Mo7A O20 1_555 1_555
O21A Mo2 1_555 1_555
O22A Mo3 1_555 1_555
O24A Mo1 1_555 1_555
O25A Mo1 1_555 1_555
O26A Mo7 1_555 1_555
O27A Mo3A 1_555 1_555
O28A Mo2 1_555 1_555
O29A Mo4A 1_555 1_555
O30A Mo3A 1_555 1_555
O31A Mo7A 1_555 1_555
O32A Mo4A 1_555 1_555
O34A Mo5A 1_555 1_555
O35A Mo5A 1_555 1_555
O36A Mo6A 1_555 1_555
O37A Mo5A 1_555 1_555
O38A Mo6A 1_555 1_555
O39A Mo3A 1_555 1_555
C4 C5 1_555 1_555
C5 C7 1_555 1_555
C8 C13 1_555 1_555
C11 C12 1_555 1_555
C12 C14 1_555 1_555
Mo3 O21 1_555 1_555
Mo3 O17A 1_555 1_555
Mo4 O25 1_555 1_555
Mo4 O30 1_555 1_555
Mo4 O19A 1_555 1_555
Mo5 O27 1_555 1_555
Mo5 O32 1_555 1_555
Mo6 O28 1_555 1_555
Mo6 O35 1_555 1_555
Mo6 O20A 1_555 1_555
Mo7 O24 1_555 1_555
Mo7 O36 1_555 1_555
Mo7 O37 1_555 1_555
Mo7 O20A 1_555 1_555
P1 O17A 1_555 1_555
P1 O19A 1_555 1_555
P1 O20A 1_555 1_555
O17 O20A 1_555 1_555
O18 O19A 1_555 1_555
O18 O20A 1_555 1_555
O19 O18A 1_555 1_555
O19 O20A 1_555 1_555
O20 O17A 1_555 1_555
O20 O18A 1_555 1_555
O20 O19A 1_555 1_555
O22 Mo3A 1_555 1_555
O26 Mo7A 1_555 1_555
O17A Mo6A 1_555 1_555
O18A Mo3A 1_555 1_555
O18A Mo4A 1_555 1_555
O18A Mo5A 1_555 1_555
O19A Mo7A 1_555 1_555
Mo3A O21A 1_555 1_555
Mo4A O25A 1_555 1_555
Mo4A O26A 1_555 1_555
Mo4A O30A 1_555 1_555
Mo5A O27A 1_555 1_555
Mo5A O32A 1_555 1_555
Mo6A O22A 1_555 1_555
Mo6A O28A 1_555 1_555
Mo6A O35A 1_555 1_555
Mo7A O24A 1_555 1_555
Mo7A O36A 1_555 1_555
Mo7A O37A 1_555 1_555

#END
