
#######################################################################
#
#                 Cambridge Crystallographic Data Centre
#                                CCDC 
#
#######################################################################
#
# If this CIF has been generated from an entry in the Cambridge 
# Structural Database, then it will include bibliographic, chemical, 
# crystal, experimental, refinement or atomic coordinate data resulting 
# from the CCDC's data processing and validation procedures.
#
#######################################################################

data_QOZGAP
_chemical_formula_moiety         '(C17 H15 Cu1 N9 O7)n'
_symmetry_cell_setting           monoclinic
_symmetry_space_group_name_H-M   'P 21/c'
_symmetry_Int_Tables_number      14
_space_group_name_Hall           '-P 2ybc'
loop_
_symmetry_equiv_pos_site_id
_symmetry_equiv_pos_as_xyz
1 x,y,z
2 -x,1/2+y,1/2-z
3 -x,-y,-z
4 x,1/2-y,1/2+z
_cell_length_a                   9.5454(9)
_cell_length_b                   14.6719(10)
_cell_length_c                   9.4790(13)
_cell_angle_alpha                90
_cell_angle_beta                 110.419(13)
_cell_angle_gamma                90
_cell_volume                     1244.11
loop_
_atom_site_label
_atom_site_type_symbol
_atom_site_fract_x
_atom_site_fract_y
_atom_site_fract_z
Cu1 Cu 1.0000 0.5000 0.5000
O1 O 0.7653(5) 0.8454(3) 0.4145(6)
O2 O 0.8817(4) 0.9364(3) 0.7394(5)
O3 O 0.7843(5) 1.0217(3) 0.8731(5)
N1 N 0.9385(5) 0.6080(3) 0.5899(6)
N2 N 1.0305(6) 0.6554(4) 0.7100(7)
N3 N 0.8109(5) 0.7186(3) 0.6282(6)
N4 N 0.6985(5) 0.7830(3) 0.6022(6)
H1 H 0.6316 0.7807 0.6466
C1 C 0.8081(7) 0.6453(4) 0.5430(7)
H2 H 0.7240 0.6243 0.4615
C2 C 0.9517(7) 0.7240(5) 0.7303(8)
H3 H 0.9875 0.7701 0.8046
C3 C 0.6987(7) 0.8503(4) 0.5026(7)
C4 C 0.5961(6) 0.9283(4) 0.5033(7)
C5 C 0.6333(6) 0.9907(4) 0.6247(7)
C6 C 0.5341(6) 1.0614(4) 0.6165(7)
H4 H 0.5574 1.1041 0.6968
C7 C 0.7800(8) 0.9819(4) 0.7530(7)
O1B O 0.2347(5) 1.1546(3) 0.5855(6)
O2B O 0.1183(4) 1.0636(3) 0.2606(5)
O3B O 0.2157(5) 0.9783(3) 0.1269(5)
N1B N 0.0615(5) 1.3920(3) 0.4101(6)
N2B N -0.0305(6) 1.3446(4) 0.2900(7)
N3B N 0.1891(5) 1.2814(3) 0.3718(6)
N4B N 0.3015(5) 1.2170(3) 0.3978(6)
H1B H 0.3684 1.2193 0.3534
C1B C 0.1919(7) 1.3547(4) 0.4570(7)
H2B H 0.2760 1.3757 0.5385
C2B C 0.0483(7) 1.2760(5) 0.2697(8)
H3B H 0.0125 1.2299 0.1954
C3B C 0.3013(7) 1.1497(4) 0.4974(7)
C4B C 0.4039(6) 1.0717(4) 0.4967(7)
C5B C 0.3667(6) 1.0093(4) 0.3753(7)
C6B C 0.4659(6) 0.9386(4) 0.3835(7)
H4B H 0.4426 0.8959 0.3032
C7B C 0.2200(8) 1.0181(4) 0.2470(7)
Cu1_2 Cu -0.0000 1.5000 0.5000
Cu1A Cu 0.0000 1.0000 0.0000
Cu1A_2 Cu 1.0000 1.0000 1.0000
O2A O 1.1183(4) 0.4364(3) 0.7606(5)
O2C O 0.8817(4) 0.5636(3) 0.2394(5)
O3A O 1.2157(5) 0.5217(3) 0.6269(5)
O3C O 0.7843(5) 0.4783(3) 0.3731(5)
N1B_2 N 1.0615(5) 0.3920(3) 0.4101(6)
O4 O 0.5142(5) 0.8130(4) 0.7691(6)
N5 N 0.2944(7) 0.8896(6) 0.7062(8)
C8 C 0.3467(16) 0.9417(11) 0.8421(14)
H5 H 0.3161 0.9108 0.9183
H6 H 0.3041 1.0032 0.8252
H7 H 0.4560 0.9457 0.8772
C9 C 0.1535(7) 0.9151(6) 0.5981(10)
H8 H 0.1203 0.8660 0.5238
H9 H 0.1624 0.9719 0.5474
H10 H 0.0804 0.9233 0.6484
C10 C 0.3860(9) 0.8316(7) 0.6769(11)
H11 H 0.3535 0.8000 0.5836
loop_
_geom_bond_atom_site_label_1
_geom_bond_atom_site_label_2
_geom_bond_site_symmetry_1
_geom_bond_site_symmetry_2
Cu1 N1 1_555 1_555
O1 C3 1_555 1_555
O2 C7 1_555 1_555
O3 C7 1_555 1_555
N1 N2 1_555 1_555
N2 C2 1_555 1_555
N3 N4 1_555 1_555
N4 H1 1_555 1_555
C1 N1 1_555 1_555
H2 C1 1_555 1_555
C2 N3 1_555 1_555
H3 C2 1_555 1_555
C3 N4 1_555 1_555
C4 C3 1_555 1_555
C5 C4 1_555 1_555
C6 C5 1_555 1_555
H4 C6 1_555 1_555
C7 C5 1_555 1_555
O4 C10 1_555 1_555
N5 C8 1_555 1_555
C8 H5 1_555 1_555
H6 C8 1_555 1_555
H7 C8 1_555 1_555
C9 N5 1_555 1_555
H8 C9 1_555 1_555
H9 C9 1_555 1_555
H10 C9 1_555 1_555
C10 N5 1_555 1_555
H11 C10 1_555 1_555
O1B C3B 1_555 1_555
O2B C7B 1_555 1_555
O3B C7B 1_555 1_555
N1B N2B 1_555 1_555
N2B C2B 1_555 1_555
N3B N4B 1_555 1_555
N4B H1B 1_555 1_555
C1B N1B 1_555 1_555
H2B C1B 1_555 1_555
C2B N3B 1_555 1_555
H3B C2B 1_555 1_555
C3B N4B 1_555 1_555
C4B C6 1_555 1_555
C5B C4B 1_555 1_555
C6B C4 1_555 1_555
H4B C6B 1_555 1_555
C7B C5B 1_555 1_555
Cu1_2 N1B 1_555 1_555
Cu1A O2B 1_555 1_555
Cu1A_2 O2 1_555 1_555
O2A Cu1 1_555 1_555
O2C Cu1 1_555 1_555
O3A Cu1 1_555 1_555
O3C Cu1 1_555 1_555
N1B_2 Cu1 1_555 1_555
O3 Cu1A_2 1_555 1_555
N3 C1 1_555 1_555
O3B Cu1A 1_555 1_555
N3B C1B 1_555 1_555
C3B C4B 1_555 1_555
C5B C6B 1_555 1_555

#END
