
#######################################################################
#
#                 Cambridge Crystallographic Data Centre
#                                CCDC 
#
#######################################################################
#
# If this CIF has been generated from an entry in the Cambridge 
# Structural Database, then it will include bibliographic, chemical, 
# crystal, experimental, refinement or atomic coordinate data resulting 
# from the CCDC's data processing and validation procedures.
#
#######################################################################

data_QOZPIG
_chemical_formula_moiety         '(C17 H15 Cd1 N9 O7)n'
_symmetry_cell_setting           orthorhombic
_symmetry_space_group_name_H-M   'P b c n'
_symmetry_Int_Tables_number      60
_space_group_name_Hall           '-P 2n 2ab'
loop_
_symmetry_equiv_pos_site_id
_symmetry_equiv_pos_as_xyz
1 x,y,z
2 1/2-x,1/2-y,1/2+z
3 1/2+x,1/2-y,-z
4 -x,y,1/2-z
5 -x,-y,-z
6 1/2+x,1/2+y,1/2-z
7 1/2-x,1/2+y,z
8 x,-y,1/2+z
_cell_length_a                   14.919(7)
_cell_length_b                   9.376(4)
_cell_length_c                   19.138(9)
_cell_angle_alpha                90
_cell_angle_beta                 90
_cell_angle_gamma                90
_cell_volume                     2677.03
loop_
_atom_site_label
_atom_site_type_symbol
_atom_site_fract_x
_atom_site_fract_y
_atom_site_fract_z
_atom_site_U_iso_or_equiv
_atom_site_thermal_displace_type
Cd1 Cd 0.0000 0.19059(7) 0.2500 0.0306 Uani
N1 N -0.1711(4) -0.0212(7) 0.2441(3) 0.0520 Uani
N2 N -0.1156(4) 0.0561(6) 0.2882(3) 0.0393 Uani
N3 N -0.2262(3) -0.0206(6) 0.3499(3) 0.0357 Uani
C1 C -0.2376(5) -0.0640(8) 0.2828(4) 0.0500 Uani
H1 H -0.2872 -0.1180 0.2664 0.0600 Uiso
C2 C -0.1501(4) 0.0554(7) 0.3509(3) 0.0380 Uani
H2 H -0.1253 0.1012 0.3908 0.0460 Uiso
O1 O -0.3556(3) 0.1712(5) 0.3672(3) 0.0447 Uani
N4 N -0.2881(3) -0.0322(6) 0.4039(3) 0.0353 Uani
H3 H -0.2830 -0.0968 0.4370 0.0420 Uiso
C3 C -0.4321(4) 0.0271(6) 0.4523(3) 0.0293 Uani
C4 C -0.3576(4) 0.0627(7) 0.4023(3) 0.0333 Uani
C5 C -0.4972(4) -0.0754(6) 0.4372(3) 0.0300 Uani
O2 O -0.4416(3) -0.1243(5) 0.3230(2) 0.0387 Uani
C6 C -0.4982(4) -0.1569(7) 0.3691(3) 0.0323 Uani
O3 O -0.5544(3) -0.2550(6) 0.3607(2) 0.0493 Uani
C7 C -0.4356(4) 0.1019(7) 0.5144(3) 0.0317 Uani
H4 H -0.3915 0.1723 0.5241 0.0380 Uiso
N1D N -0.8289(4) 0.0212(7) 0.7559(3) 0.0520 Uani
N2D N -0.8844(4) -0.0561(6) 0.7118(3) 0.0393 Uani
N3D N -0.7738(3) 0.0206(6) 0.6501(3) 0.0357 Uani
C1D C -0.7624(5) 0.0640(8) 0.7172(4) 0.0500 Uani
H1D H -0.7128 0.1180 0.7336 0.0600 Uiso
C2D C -0.8499(4) -0.0554(7) 0.6491(3) 0.0380 Uani
H2D H -0.8747 -0.1012 0.6092 0.0460 Uiso
O1D O -0.6444(3) -0.1712(5) 0.6328(3) 0.0447 Uani
N4D N -0.7119(3) 0.0322(6) 0.5961(3) 0.0353 Uani
H3D H -0.7170 0.0968 0.5630 0.0420 Uiso
C3D C -0.5679(4) -0.0271(6) 0.5477(3) 0.0293 Uani
C4D C -0.6424(4) -0.0627(7) 0.5977(3) 0.0333 Uani
C5D C -0.5028(4) 0.0754(6) 0.5628(3) 0.0300 Uani
O2D O -0.5584(3) 0.1243(5) 0.6770(2) 0.0387 Uani
C6D C -0.5018(4) 0.1569(7) 0.6309(3) 0.0323 Uani
O3D O -0.4456(3) 0.2550(6) 0.6393(2) 0.0493 Uani
C7D C -0.5644(4) -0.1019(7) 0.4856(3) 0.0317 Uani
H4D H -0.6085 -0.1723 0.4759 0.0380 Uiso
Cd1A Cd -0.5000 0.30941(7) 0.7500 0.0306 Uani
Cd1D Cd -1.0000 -0.19059(7) 0.7500 0.0306 Uani
Cd1E Cd -0.5000 -0.30941(7) 0.2500 0.0306 Uani
N2C N 0.1156(4) 0.0561(6) 0.2118(3) 0.0393 Uani
O2E O 0.0584(3) 0.3757(5) 0.1770(2) 0.0387 Uani
O2F O -0.0584(3) 0.3757(5) 0.3230(2) 0.0387 Uani
O3E O -0.0544(3) 0.2450(6) 0.1393(2) 0.0493 Uani
O3F O 0.0544(3) 0.2450(6) 0.3607(2) 0.0493 Uani
N5 N -0.1201(6) -0.2539(10) 0.0993(4) 0.0787 Uani
C8 C -0.1069(8) -0.3252(11) 0.1649(4) 0.0833 Uani
H5 H -0.1479 -0.4065 0.1682 0.1250 Uiso
H6 H -0.1188 -0.2586 0.2033 0.1250 Uiso
H7 H -0.0449 -0.3591 0.1680 0.1250 Uiso
C9 C -0.1723(7) -0.2893(12) 0.0518(5) 0.0793 Uani
H8 H -0.2095 -0.3690 0.0616 0.0950 Uiso
O4 O -0.1826(4) -0.2337(7) -0.0077(3) 0.0617 Uani
C10 C -0.0591(8) -0.1236(12) 0.0858(7) 0.0960 Uani
H9 H -0.0726 -0.0833 0.0397 0.1450 Uiso
H10 H 0.0038 -0.1535 0.0872 0.1450 Uiso
H11 H -0.0697 -0.0512 0.1218 0.1450 Uiso
loop_
_atom_site_aniso_label
_atom_site_aniso_U_11
_atom_site_aniso_U_22
_atom_site_aniso_U_33
_atom_site_aniso_U_23
_atom_site_aniso_U_13
_atom_site_aniso_U_12
Cd1 0.0267(3) 0.0414(4) 0.0236(3) 0.000 0.0048(2) 0.000
N1 0.049(4) 0.065(4) 0.042(3) -0.013(3) 0.019(3) -0.017(3)
N2 0.034(3) 0.043(3) 0.041(3) 0.000(2) 0.011(2) -0.004(2)
N3 0.032(3) 0.041(3) 0.034(3) -0.001(2) 0.011(2) -0.004(2)
C1 0.048(4) 0.057(4) 0.045(4) -0.014(3) 0.014(3) -0.019(4)
C2 0.030(3) 0.048(4) 0.036(3) 0.003(3) 0.007(3) -0.004(3)
O1 0.044(3) 0.045(3) 0.045(3) 0.009(2) 0.017(2) 0.000(2)
N4 0.029(3) 0.046(3) 0.031(3) 0.005(2) 0.009(2) -0.007(2)
C3 0.026(3) 0.036(3) 0.026(3) 0.003(2) 0.006(2) -0.002(2)
C4 0.032(3) 0.042(3) 0.026(3) -0.006(3) 0.005(2) -0.007(3)
C5 0.026(3) 0.037(3) 0.027(3) -0.001(2) 0.002(2) 0.005(2)
O2 0.041(2) 0.048(3) 0.027(2) -0.0069(19) 0.0087(19) -0.012(2)
C6 0.028(3) 0.041(3) 0.028(3) 0.001(2) 0.001(2) 0.009(3)
O3 0.050(3) 0.065(3) 0.033(2) -0.015(2) 0.013(2) -0.023(3)
C7 0.028(3) 0.037(3) 0.030(3) -0.001(2) 0.003(2) -0.005(2)
N1D 0.049 0.065 0.042 -0.013 0.019 -0.017
N2D 0.034 0.043 0.041 0 0.011 -0.004
N3D 0.032 0.041 0.034 -0.001 0.011 -0.004
C1D 0.048 0.057 0.045 -0.014 0.014 -0.019
C2D 0.03 0.048 0.036 0.003 0.007 -0.004
O1D 0.044 0.045 0.045 0.009 0.017 0
N4D 0.029 0.046 0.031 0.005 0.009 -0.007
C3D 0.026 0.036 0.026 0.003 0.006 -0.002
C4D 0.032 0.042 0.026 -0.006 0.005 -0.007
C5D 0.026 0.037 0.027 -0.001 0.002 0.005
O2D 0.041 0.048 0.027 -0.0069 0.0087 -0.012
C6D 0.028 0.041 0.028 0.001 0.001 0.009
O3D 0.05 0.065 0.033 -0.015 0.013 -0.023
C7D 0.028 0.037 0.03 -0.001 0.003 -0.005
Cd1A 0.0267 0.0414 0.0236 0 -0.0048 0
Cd1D 0.0267 0.0414 0.0236 0 0.0048 0
Cd1E 0.0267 0.0414 0.0236 0 -0.0048 0
N2C 0.034 0.043 0.041 0 0.011 0.004
O2E 0.041 0.048 0.027 0.0069 -0.0087 -0.012
O2F 0.041 0.048 0.027 -0.0069 -0.0087 0.012
O3E 0.05 0.065 0.033 0.015 -0.013 -0.023
O3F 0.05 0.065 0.033 -0.015 -0.013 0.023
N5 0.090(6) 0.097(6) 0.049(4) -0.021(4) -0.012(4) 0.034(5)
C8 0.120(9) 0.090(7) 0.040(4) -0.009(5) 0.001(5) 0.038(7)
C9 0.085(7) 0.091(8) 0.062(6) -0.018(5) -0.014(5) 0.033(6)
O4 0.075(4) 0.062(3) 0.048(3) -0.006(3) -0.017(3) 0.008(3)
C10 0.097(9) 0.089(8) 0.102(9) -0.022(7) -0.003(7) -0.014(7)
loop_
_geom_bond_atom_site_label_1
_geom_bond_atom_site_label_2
_geom_bond_site_symmetry_1
_geom_bond_site_symmetry_2
Cd1 N2 1_555 1_555
N1 N2 1_555 1_555
N2 C2 1_555 1_555
N3 C1 1_555 1_555
C1 N1 1_555 1_555
H1 C1 1_555 1_555
C2 N3 1_555 1_555
H2 C2 1_555 1_555
O1 C4 1_555 1_555
N4 N3 1_555 1_555
H3 N4 1_555 1_555
C3 C4 1_555 1_555
C4 N4 1_555 1_555
C5 C3 1_555 1_555
O2 C6 1_555 1_555
C6 C5 1_555 1_555
O3 C6 1_555 1_555
C7 C3 1_555 1_555
H4 C7 1_555 1_555
N5 C8 1_555 1_555
C8 H5 1_555 1_555
H6 C8 1_555 1_555
H7 C8 1_555 1_555
C9 N5 1_555 1_555
H8 C9 1_555 1_555
O4 C9 1_555 1_555
C10 N5 1_555 1_555
H9 C10 1_555 1_555
H10 C10 1_555 1_555
H11 C10 1_555 1_555
N1D N2D 1_555 1_555
N2D C2D 1_555 1_555
N3D C1D 1_555 1_555
C1D N1D 1_555 1_555
H1D C1D 1_555 1_555
C2D N3D 1_555 1_555
H2D C2D 1_555 1_555
O1D C4D 1_555 1_555
N4D N3D 1_555 1_555
H3D N4D 1_555 1_555
C3D C4D 1_555 1_555
C4D N4D 1_555 1_555
C5D C7 1_555 1_555
O2D C6D 1_555 1_555
C6D C5D 1_555 1_555
O3D C6D 1_555 1_555
C7D C5 1_555 1_555
H4D C7D 1_555 1_555
Cd1A O2D 1_555 1_555
Cd1D N2D 1_555 1_555
Cd1E O2 1_555 1_555
N2C Cd1 1_555 1_555
O2E Cd1 1_555 1_555
O2F Cd1 1_555 1_555
O3E Cd1 1_555 1_555
O3F Cd1 1_555 1_555
O3 Cd1E 1_555 1_555
C3D C5D 1_555 1_555
C3D C7D 1_555 1_555
O3D Cd1A 1_555 1_555

#END
