
#######################################################################
#
#                 Cambridge Crystallographic Data Centre
#                                CCDC 
#
#######################################################################
#
# If this CIF has been generated from an entry in the Cambridge 
# Structural Database, then it will include bibliographic, chemical, 
# crystal, experimental, refinement or atomic coordinate data resulting 
# from the CCDC's data processing and validation procedures.
#
#######################################################################

data_LUDCUK
_chemical_formula_moiety         'C11 H5 Cu4 O10'
_symmetry_cell_setting           trigonal
_symmetry_space_group_name_H-M   'P -3 m 1'
_symmetry_Int_Tables_number      164
_space_group_name_Hall           '-P 3 2"'
loop_
_symmetry_equiv_pos_site_id
_symmetry_equiv_pos_as_xyz
1 x,y,z
2 -y,x-y,z
3 -x+y,-x,z
4 x-y,-y,-z
5 -x,-x+y,-z
6 y,x,-z
7 -x,-y,-z
8 y,-x+y,-z
9 x-y,x,-z
10 -x+y,y,z
11 x,x-y,z
12 -y,-x,z
_cell_length_a                   18.459(2)
_cell_length_b                   18.459(2)
_cell_length_c                   6.7489(9)
_cell_angle_alpha                90
_cell_angle_beta                 90
_cell_angle_gamma                120
_cell_volume                     1991.5
loop_
_atom_site_label
_atom_site_type_symbol
_atom_site_fract_x
_atom_site_fract_y
_atom_site_fract_z
_atom_site_U_iso_or_equiv
_atom_site_thermal_displace_type
Cu1 Cu 0.52401(6) 0.47599(6) 0.3425(3) 0.0350 Uani
O1 O 0.2869(10) 0.2029(6) 1.2728(18) 0.1311 Uani
O2 O 0.4800(7) 0.3717(6) 0.4844(12) 0.0692 Uani
O3 O 0.4409(6) 0.4114(5) 0.7546(12) 0.0576 Uani
O4 O 0.5637(4) 0.4363(4) 0.0795(19) 0.0603 Uani
H1 H 0.5242 0.4177 0.0095 0.0600 Uiso
C1 C 0.3068(16) 0.1534(8) 1.200(2) 0.0766 Uani
C2 C 0.3553(12) 0.1776(6) 1.0129(19) 0.0506 Uani
C3 C 0.3784(8) 0.2550(5) 0.9244(14) 0.0476 Uani
C4 C 0.4223(7) 0.2764(5) 0.7480(13) 0.0434 Uani
C5 C 0.4401(11) 0.2201(6) 0.6560(17) 0.0414 Uani
C6 C 0.4493(8) 0.3594(5) 0.6540(12) 0.0427 Uani
C7 C 0.232(2) 0.1858(17) 1.438(5) 0.1389 Uani
H2 H 0.3632 0.2920 0.9843 0.0567 Uiso
H3 H 0.4651 0.2326 0.5284 0.0487 Uiso
O1J O 0.2869(10) 0.0840(12) 1.2728(18) 0.1311 Uani
O2J O 0.4800(7) 0.1083(9) 0.4844(12) 0.0692 Uani
O3J O 0.4409(6) 0.0295(8) 0.7546(12) 0.0576 Uani
C3J C 0.3784(8) 0.1234(9) 0.9244(14) 0.0476 Uani
C4J C 0.4223(7) 0.1459(9) 0.7480(13) 0.0434 Uani
C6J C 0.4493(8) 0.0899(9) 0.6540(12) 0.0427 Uani
C7J C 0.232(2) 0.0462(26) 1.438(5) 0.1389 Uani
H2J H 0.3632 0.0712 0.9843 0.0567 Uiso
H1K H 0.5823 0.4758 0.0095 0.0600 Uiso
Cu1F Cu 0.47599(6) 0.52401(6) 0.6575(3) 0.0350 Uani
Cu1A Cu 0.52401(6) 0.04802(8) 0.3425(3) 0.0350 Uani
Cu1G Cu 0.47599(6) -0.04802(8) 0.6575(3) 0.0350 Uani
O2K O 0.6283(6) 0.5200(7) 0.4844(12) 0.0692 Uani
O3F O 0.5591(6) 0.5886(5) 0.2454(12) 0.0576 Uani
O3E O 0.4114(5) 0.4409(6) 0.2454(12) 0.0576 Uani
loop_
_atom_site_aniso_label
_atom_site_aniso_U_11
_atom_site_aniso_U_22
_atom_site_aniso_U_33
_atom_site_aniso_U_23
_atom_site_aniso_U_13
_atom_site_aniso_U_12
Cu1 0.0378(12) 0.0378(12) 0.0397(13) -0.0004(5) 0.0004(5) 0.0267(12)
O1 0.184(13) 0.117(10) 0.124(10) 0.014(8) 0.087(9) 0.099(10)
O2 0.126(10) 0.062(6) 0.053(5) 0.022(4) 0.031(5) 0.072(7)
O3 0.068(7) 0.042(5) 0.066(5) -0.004(4) 0.013(5) 0.030(5)
O4 0.062(7) 0.062(7) 0.061(9) 0.002(4) -0.002(4) 0.034(8)
C1 0.105(15) 0.070(6) 0.067(11) 0.023(5) 0.046(10) 0.053(8)
C2 0.058(11) 0.048(5) 0.049(8) 0.008(4) 0.016(7) 0.029(6)
C3 0.058(9) 0.049(7) 0.044(6) 0.005(4) 0.012(5) 0.033(7)
C4 0.046(7) 0.044(6) 0.049(6) 0.007(4) 0.013(5) 0.029(6)
C5 0.051(11) 0.038(4) 0.039(9) 0.003(4) 0.007(7) 0.025(6)
C6 0.052(8) 0.044(5) 0.044(5) 0.003(4) 0.005(5) 0.033(6)
C7 0.16(2) 0.14(2) 0.11(2) -0.031(14) 0.066(14) 0.07(2)
O1J 0.184 0.103 0.124 0.073 0.087 0.085
O2J 0.126 0.044 0.053 0.009 0.031 0.054
O3J 0.068 0.05 0.066 0.017 0.013 0.038
C3J 0.058 0.041 0.044 0.007 0.012 0.025
C4J 0.046 0.032 0.049 0.006 0.013 0.017
C6J 0.052 0.03 0.044 0.002 0.005 0.019
C7J 0.16 0.16 0.11 0.097 0.066 0.09
Cu1F 0.0378 0.0378 0.0397 -0.0004 0.0004 0.0267
Cu1A 0.0378 0.0222 0.0397 0.0008 0.0004 0.0111
Cu1G 0.0378 0.0222 0.0397 0.0008 0.0004 0.0111
O2K 0.062 0.126 0.053 -0.031 -0.022 0.072
O3F 0.068 0.042 0.066 -0.004 0.013 0.03
O3E 0.042 0.068 0.066 -0.013 0.004 0.03
loop_
_geom_bond_atom_site_label_1
_geom_bond_atom_site_label_2
_geom_bond_site_symmetry_1
_geom_bond_site_symmetry_2
Cu1 O2 1_555 1_555
O1 C1 1_555 1_555
O2 C6 1_555 1_555
O3 C6 1_555 1_555
O4 Cu1 1_555 1_555
H1 O4 1_555 1_555
C1 C2 1_555 1_555
C2 C3 1_555 1_555
C3 C4 1_555 1_555
C4 C5 1_555 1_555
C5 H3 1_555 1_555
C6 C4 1_555 1_555
C7 O1 1_555 1_555
H2 C3 1_555 1_555
O1J C1 1_555 1_555
O2J C6J 1_555 1_555
O3J C6J 1_555 1_555
C3J C2 1_555 1_555
C4J C5 1_555 1_555
C6J C4J 1_555 1_555
C7J O1J 1_555 1_555
H2J C3J 1_555 1_555
H1K O4 1_555 1_555
Cu1F Cu1 1_555 1_555
Cu1A O2J 1_555 1_555
Cu1G O3J 1_555 1_555
O2K Cu1 1_555 1_555
O3F Cu1 1_555 1_555
O3E Cu1 1_555 1_555
O3 Cu1F 1_555 1_555
C3J C4J 1_555 1_555
Cu1A Cu1G 1_555 1_555

#END
