
#######################################################################
#
#                 Cambridge Crystallographic Data Centre
#                                CCDC 
#
#######################################################################
#
# If this CIF has been generated from an entry in the Cambridge 
# Structural Database, then it will include bibliographic, chemical, 
# crystal, experimental, refinement or atomic coordinate data resulting 
# from the CCDC's data processing and validation procedures.
#
#######################################################################

data_LUDKIG
_chemical_formula_moiety         'C39 H45 Cu8 N4 O27'
_symmetry_cell_setting           trigonal
_symmetry_space_group_name_H-M   'P -3 m 1'
_symmetry_Int_Tables_number      164
_space_group_name_Hall           '-P 3 2"'
loop_
_symmetry_equiv_pos_site_id
_symmetry_equiv_pos_as_xyz
1 x,y,z
2 -y,x-y,z
3 -x+y,-x,z
4 x-y,-y,-z
5 -x,-x+y,-z
6 y,x,-z
7 -x,-y,-z
8 y,-x+y,-z
9 x-y,x,-z
10 -x+y,y,z
11 x,x-y,z
12 -y,-x,z
_cell_length_a                   18.577(3)
_cell_length_b                   18.577(3)
_cell_length_c                   6.8410(10)
_cell_angle_alpha                90
_cell_angle_beta                 90
_cell_angle_gamma                120
_cell_volume                     2044.57
loop_
_atom_site_label
_atom_site_type_symbol
_atom_site_fract_x
_atom_site_fract_y
_atom_site_fract_z
Cu1 Cu 0.47665(3) 0.52335(3) 1.65643(14)
O1 O 0.3711(3) 0.4804(3) 1.5197(6)
N1 N 0.4347(9) 0.5653(9) 1.907(3)
O2 O 0.4401(4) 0.5599(4) 1.9135(19)
O3 O 0.5891(3) 0.5584(3) 1.7490(6)
C1 C 0.3598(4) 0.4499(4) 1.3525(9)
C2 C 0.3934(8) 0.6066(8) 1.876(3)
H1 H 0.4702 0.5778 1.9540
C3 C 0.2757(4) 0.4221(4) 1.2599(9)
C4 C 0.3655(9) 0.6345(9) 2.050(4)
H2 H 0.3449 0.5716 1.7951
C5 C 0.2541(4) 0.3782(4) 1.0880(9)
C6 C 0.2221(3) 0.4441(6) 1.3499(13)
H3 H 0.3277 0.5888 2.1230
C7 C 0.1771(3) 0.3541(7) 1.0057(15)
H4 H 0.2924 0.3650 1.0240
H5 H 0.2369 0.4737 1.4724
C8 C 0.1523(4) 0.3046(8) 0.8194(17)
O4 O 0.0829(4) 0.2858(4) 0.7496(9)
C9 C 0.0509(26) 0.2397(15) 0.582(3)
H6 H -0.0026 0.2327 0.5525
H7 H 0.0869 0.2679 0.4722
H8 H 0.0459 0.1864 0.5934
Cu1F Cu 0.52335(3) 0.47665(3) 1.34357(14)
O1K O 0.5196(3) 0.6289(3) 1.5197(6)
O3K O 0.4416(3) 0.4109(3) 1.7490(6)
H1K H 0.4222 0.5298 1.9540
O3F O 0.4109(3) 0.4416(3) 1.2510(6)
O1F O 0.6289(3) 0.5196(3) 1.4803(6)
O3E O 0.5584(3) 0.5891(3) 1.2510(6)
O1E O 0.4804(3) 0.3711(3) 1.4803(6)
N1F N 0.5653(9) 0.4347(9) 1.093(3)
O2F O 0.5599(4) 0.4401(4) 1.0865(19)
C1F C 0.6402(4) 0.5501(4) 1.6475(9)
C1K C 0.5501(4) 0.6402(4) 1.3525(9)
H2K H 0.4284 0.6551 1.7951
C3F C 0.7243(4) 0.5779(4) 1.7401(9)
C3K C 0.5779(4) 0.7243(4) 1.2599(9)
H3K H 0.4112 0.6723 2.1230
C5F C 0.7459(4) 0.6218(4) 1.9120(9)
C6F C 0.7779(3) 0.5559(6) 1.6501(13)
C6A C 0.5559(6) 0.7780(7) 1.3499(13)
C5K C 0.6218(4) 0.7459(4) 1.0880(9)
C3I C 0.1464(6) 0.4221(4) 1.2599(9)
C7F C 0.8229(3) 0.6459(7) 1.9943(15)
H4F H 0.7076 0.6350 1.9760
H5F H 0.7631 0.5263 1.5276
C3C C 0.8536(6) 0.5779(4) 1.7401(9)
C3A C 0.5779(4) 0.8536(6) 1.2599(9)
H5A H 0.5263 0.7632 1.4724
C7A C 0.6459(7) 0.8230(8) 1.0057(15)
H4K H 0.6350 0.7076 1.0240
C5I C 0.1241(6) 0.3782(4) 1.0880(9)
C1I C 0.0901(6) 0.4499(4) 1.3525(9)
C8F C 0.8477(4) 0.6954(8) 2.1806(17)
C5C C 0.8759(6) 0.6218(4) 1.9120(9)
C1C C 0.9099(6) 0.5501(4) 1.6475(9)
C1A C 0.5501(4) 0.9099(6) 1.3525(9)
C5A C 0.6218(4) 0.8759(6) 1.0880(9)
C8A C 0.6954(8) 0.8477(9) 0.8194(17)
O4I O 0.2029(6) 0.2858(4) 0.7496(9)
H4I H 0.0726 0.3650 1.0240
O1I O 0.1093(4) 0.4804(3) 1.5197(6)
O3C O 0.0307(4) 0.4416(3) 1.2510(6)
O4F O 0.9171(4) 0.7142(4) 2.2504(9)
O4C O 0.7971(6) 0.7142(4) 2.2504(9)
H4C H 0.9274 0.6350 1.9760
O1C O 0.8907(4) 0.5196(3) 1.4803(6)
O3I O 0.9693(4) 0.5584(3) 1.7490(6)
O1A O 0.5196(3) 0.8907(4) 1.5197(6)
O3G O 0.5584(3) 0.9693(4) 1.2510(6)
H4A H 0.6350 0.9274 1.0240
O4A O 0.7142(4) 0.7971(6) 0.7496(9)
O4K O 0.7142(4) 0.9171(4) 0.7496(9)
C9I C 0.1888(30) 0.2397(15) 0.582(3)
Cu1B Cu 0.04670(4) 0.52335(3) 1.65643(14)
Cu1H Cu -0.04670(4) 0.47665(3) 1.34357(14)
C9F C 0.9491(26) 0.7603(15) 2.418(3)
C9C C 0.8112(30) 0.7603(15) 2.418(3)
Cu1H_2 Cu 0.95330(4) 0.47665(3) 1.34357(14)
Cu1B_2 Cu 1.04670(4) 0.52335(3) 1.65643(14)
Cu1A Cu 0.47665(3) 0.95330(4) 1.65643(14)
Cu1G Cu 0.52335(3) 1.04670(4) 1.34357(14)
C9A C 0.7603(15) 0.8112(30) 0.582(3)
C9K C 0.7603(15) 0.9491(26) 0.582(3)
H6I H 0.2353 0.2327 0.5525
H7I H 0.1810 0.2679 0.4722
H8I H 0.1405 0.1864 0.5934
N1B N 0.1306(13) 0.5653(9) 1.907(3)
O2B O 0.1198(6) 0.5599(4) 1.9135(19)
H6F H 1.0026 0.7673 2.4475
H7F H 0.9131 0.7321 2.5278
H8F H 0.9541 0.8136 2.4066
H6C H 0.7647 0.7673 2.4475
H7C H 0.8190 0.7321 2.5278
H8C H 0.8595 0.8136 2.4066
N1A N 0.4347(9) 0.8694(13) 1.907(3)
O2A O 0.4401(4) 0.8802(6) 1.9135(19)
O1J O 0.3711(3) 0.8907(4) 1.5197(6)
O3A O 0.4416(3) 1.0307(4) 1.7490(6)
O3J O 0.5891(3) 1.0307(4) 1.7490(6)
H6A H 0.7673 0.7647 0.5525
H7A H 0.7321 0.8190 0.4722
H8A H 0.8136 0.8595 0.5934
H6K H 0.7673 1.0026 0.5525
H7K H 0.7321 0.9131 0.4722
H8K H 0.8136 0.9541 0.5934
C2B C 0.2132(11) 0.6066(8) 1.876(3)
H1B H 0.1076 0.5298 1.9540
H1I H 0.1076 0.5778 1.9540
C2A C 0.3934(8) 0.7868(11) 1.876(3)
H1A H 0.4222 0.8924 1.9540
H1J H 0.4702 0.8924 1.9540
C4B C 0.2690(13) 0.6345(9) 2.050(4)
H2B H 0.2267 0.6551 1.7951
H2I H 0.2267 0.5716 1.7951
C4A C 0.3655(9) 0.7310(13) 2.050(4)
H2A H 0.4284 0.7733 1.7951
H2J H 0.3449 0.7733 1.7951
H3B H 0.2611 0.6723 2.1230
H3I H 0.2611 0.5888 2.1230
H3A H 0.4112 0.7389 2.1230
H3J H 0.3277 0.7389 2.1230
loop_
_geom_bond_atom_site_label_1
_geom_bond_atom_site_label_2
_geom_bond_site_symmetry_1
_geom_bond_site_symmetry_2
Cu1 O1 1_555 1_555
O1 C1 1_555 1_555
N1 Cu1 1_555 1_555
O2 Cu1 1_555 1_555
O3 Cu1 1_555 1_555
C1 C3 1_555 1_555
C2 N1 1_555 1_555
H1 N1 1_555 1_555
C3 C5 1_555 1_555
C4 C2 1_555 1_555
H2 C2 1_555 1_555
C5 C7 1_555 1_555
C6 C3 1_555 1_555
H3 C4 1_555 1_555
C7 C8 1_555 1_555
H4 C5 1_555 1_555
H5 C6 1_555 1_555
C8 O4 1_555 1_555
O4 C9 1_555 1_555
C9 H6 1_555 1_555
H7 C9 1_555 1_555
H8 C9 1_555 1_555
Cu1F Cu1 1_555 1_555
O1K Cu1 1_555 1_555
O3K Cu1 1_555 1_555
H1K N1 1_555 1_555
O3F C1 1_555 1_555
O1F Cu1F 1_555 1_555
O3E Cu1F 1_555 1_555
O1E Cu1F 1_555 1_555
N1F Cu1F 1_555 1_555
O2F Cu1F 1_555 1_555
C1F O3 1_555 1_555
C1K O1K 1_555 1_555
H2K C2 1_555 1_555
C3F C1F 1_555 1_555
C3K C1K 1_555 1_555
H3K C4 1_555 1_555
C5F C3F 1_555 1_555
C6F C3F 1_555 1_555
C6A C3K 1_555 1_555
C5K C3K 1_555 1_555
C3I C6 1_555 1_555
C7F C5F 1_555 1_555
H4F C5F 1_555 1_555
H5F C6F 1_555 1_555
C3C C6F 1_555 1_555
C3A C6A 1_555 1_555
H5A C6A 1_555 1_555
C7A C5K 1_555 1_555
H4K C5K 1_555 1_555
C5I C7 1_555 1_555
C1I C3I 1_555 1_555
C8F C7F 1_555 1_555
C5C C7F 1_555 1_555
C1C C3C 1_555 1_555
C1A C3A 1_555 1_555
C5A C3A 1_555 1_555
C8A C7A 1_555 1_555
O4I C8 1_555 1_555
H4I C5I 1_555 1_555
O1I C1I 1_555 1_555
O3C C1I 1_555 1_555
O4F C8F 1_555 1_555
O4C C8F 1_555 1_555
H4C C5C 1_555 1_555
O1C C1C 1_555 1_555
O3I C1C 1_555 1_555
O1A C1A 1_555 1_555
O3G C1A 1_555 1_555
H4A C5A 1_555 1_555
O4A C8A 1_555 1_555
O4K C8A 1_555 1_555
C9I O4I 1_555 1_555
Cu1B O1I 1_555 1_555
Cu1H O3C 1_555 1_555
C9F O4F 1_555 1_555
C9C O4C 1_555 1_555
Cu1H_2 O1C 1_555 1_555
Cu1B_2 O3I 1_555 1_555
Cu1A O1A 1_555 1_555
Cu1G O3G 1_555 1_555
C9A O4A 1_555 1_555
C9K O4K 1_555 1_555
H6I C9I 1_555 1_555
H7I C9I 1_555 1_555
H8I C9I 1_555 1_555
N1B Cu1B 1_555 1_555
O2B Cu1B 1_555 1_555
H6F C9F 1_555 1_555
H7F C9F 1_555 1_555
H8F C9F 1_555 1_555
H6C C9C 1_555 1_555
H7C C9C 1_555 1_555
H8C C9C 1_555 1_555
N1A Cu1A 1_555 1_555
O2A Cu1A 1_555 1_555
O1J Cu1A 1_555 1_555
O3A Cu1A 1_555 1_555
O3J Cu1A 1_555 1_555
H6A C9A 1_555 1_555
H7A C9A 1_555 1_555
H8A C9A 1_555 1_555
H6K C9K 1_555 1_555
H7K C9K 1_555 1_555
H8K C9K 1_555 1_555
C2B N1B 1_555 1_555
H1B N1B 1_555 1_555
H1I N1B 1_555 1_555
C2A N1A 1_555 1_555
H1A N1A 1_555 1_555
H1J N1A 1_555 1_555
C4B C2B 1_555 1_555
H2B C2B 1_555 1_555
H2I C2B 1_555 1_555
C4A C2A 1_555 1_555
H2A C2A 1_555 1_555
H2J C2A 1_555 1_555
H3B C4B 1_555 1_555
H3I C4B 1_555 1_555
H3A C4A 1_555 1_555
H3J C4A 1_555 1_555
O2 C2 1_555 1_555
O2 H1 1_555 1_555
O2 H1K 1_555 1_555
Cu1F O3F 1_555 1_555
O1F C1F 1_555 1_555
O3E C1K 1_555 1_555
C3I C5I 1_555 1_555
C3C C5C 1_555 1_555
C7A C5A 1_555 1_555
Cu1B Cu1H 1_555 1_555
Cu1H_2 Cu1B_2 1_555 1_555
Cu1A Cu1G 1_555 1_555
O2B C2B 1_555 1_555
O2B H1B 1_555 1_555
O2B H1I 1_555 1_555
O2A C2A 1_555 1_555
O2A H1A 1_555 1_555
O2A H1J 1_555 1_555

#END
