
#######################################################################
#
#                 Cambridge Crystallographic Data Centre
#                                CCDC 
#
#######################################################################
#
# If this CIF has been generated from an entry in the Cambridge 
# Structural Database, then it will include bibliographic, chemical, 
# crystal, experimental, refinement or atomic coordinate data resulting 
# from the CCDC's data processing and validation procedures.
#
#######################################################################

data_LUDLED
_chemical_formula_moiety         '(C18 H12 Cu3 O15)n'
_symmetry_cell_setting           cubic
_symmetry_space_group_name_H-M   'F m -3 m'
_symmetry_Int_Tables_number      225
_space_group_name_Hall           '-F 4 2 3'
loop_
_symmetry_equiv_pos_site_id
_symmetry_equiv_pos_as_xyz
1 x,y,z
2 x,1/2+y,1/2+z
3 1/2+x,y,1/2+z
4 1/2+x,1/2+y,z
5 y,z,x
6 y,1/2+z,1/2+x
7 1/2+y,z,1/2+x
8 1/2+y,1/2+z,x
9 z,x,y
10 z,1/2+x,1/2+y
11 1/2+z,x,1/2+y
12 1/2+z,1/2+x,y
13 -x,-y,z
14 -x,1/2-y,1/2+z
15 1/2-x,-y,1/2+z
16 1/2-x,1/2-y,z
17 -y,-z,x
18 -y,1/2-z,1/2+x
19 1/2-y,-z,1/2+x
20 1/2-y,1/2-z,x
21 -z,-x,y
22 -z,1/2-x,1/2+y
23 1/2-z,-x,1/2+y
24 1/2-z,1/2-x,y
25 y,-z,-x
26 y,1/2-z,1/2-x
27 1/2+y,-z,1/2-x
28 1/2+y,1/2-z,-x
29 z,-x,-y
30 z,1/2-x,1/2-y
31 1/2+z,-x,1/2-y
32 1/2+z,1/2-x,-y
33 -z,x,-y
34 -z,1/2+x,1/2-y
35 1/2-z,x,1/2-y
36 1/2-z,1/2+x,-y
37 -x,y,-z
38 -x,1/2+y,1/2-z
39 1/2-x,y,1/2-z
40 1/2-x,1/2+y,-z
41 -y,z,-x
42 -y,1/2+z,1/2-x
43 1/2-y,z,1/2-x
44 1/2-y,1/2+z,-x
45 x,-y,-z
46 x,1/2-y,1/2-z
47 1/2+x,-y,1/2-z
48 1/2+x,1/2-y,-z
49 -y,-x,-z
50 -y,1/2-x,1/2-z
51 1/2-y,-x,1/2-z
52 1/2-y,1/2-x,-z
53 -z,-y,-x
54 -z,1/2-y,1/2-x
55 1/2-z,-y,1/2-x
56 1/2-z,1/2-y,-x
57 -x,-z,-y
58 -x,1/2-z,1/2-y
59 1/2-x,-z,1/2-y
60 1/2-x,1/2-z,-y
61 y,x,-z
62 y,1/2+x,1/2-z
63 1/2+y,x,1/2-z
64 1/2+y,1/2+x,-z
65 z,y,-x
66 z,1/2+y,1/2-x
67 1/2+z,y,1/2-x
68 1/2+z,1/2+y,-x
69 x,z,-y
70 x,1/2+z,1/2-y
71 1/2+x,z,1/2-y
72 1/2+x,1/2+z,-y
73 z,-y,x
74 z,1/2-y,1/2+x
75 1/2+z,-y,1/2+x
76 1/2+z,1/2-y,x
77 x,-z,y
78 x,1/2-z,1/2+y
79 1/2+x,-z,1/2+y
80 1/2+x,1/2-z,y
81 -x,z,y
82 -x,1/2+z,1/2+y
83 1/2-x,z,1/2+y
84 1/2-x,1/2+z,y
85 -y,x,z
86 -y,1/2+x,1/2+z
87 1/2-y,x,1/2+z
88 1/2-y,1/2+x,z
89 -z,y,x
90 -z,1/2+y,1/2+x
91 1/2-z,y,1/2+x
92 1/2-z,1/2+y,x
93 y,-x,z
94 y,1/2-x,1/2+z
95 1/2+y,-x,1/2+z
96 1/2+y,1/2-x,z
97 -x,-y,-z
98 -x,1/2-y,1/2-z
99 1/2-x,-y,1/2-z
100 1/2-x,1/2-y,-z
101 -y,-z,-x
102 -y,1/2-z,1/2-x
103 1/2-y,-z,1/2-x
104 1/2-y,1/2-z,-x
105 -z,-x,-y
106 -z,1/2-x,1/2-y
107 1/2-z,-x,1/2-y
108 1/2-z,1/2-x,-y
109 x,y,-z
110 x,1/2+y,1/2-z
111 1/2+x,y,1/2-z
112 1/2+x,1/2+y,-z
113 y,z,-x
114 y,1/2+z,1/2-x
115 1/2+y,z,1/2-x
116 1/2+y,1/2+z,-x
117 z,x,-y
118 z,1/2+x,1/2-y
119 1/2+z,x,1/2-y
120 1/2+z,1/2+x,-y
121 -y,z,x
122 -y,1/2+z,1/2+x
123 1/2-y,z,1/2+x
124 1/2-y,1/2+z,x
125 -z,x,y
126 -z,1/2+x,1/2+y
127 1/2-z,x,1/2+y
128 1/2-z,1/2+x,y
129 z,-x,y
130 z,1/2-x,1/2+y
131 1/2+z,-x,1/2+y
132 1/2+z,1/2-x,y
133 x,-y,z
134 x,1/2-y,1/2+z
135 1/2+x,-y,1/2+z
136 1/2+x,1/2-y,z
137 y,-z,x
138 y,1/2-z,1/2+x
139 1/2+y,-z,1/2+x
140 1/2+y,1/2-z,x
141 -x,y,z
142 -x,1/2+y,1/2+z
143 1/2-x,y,1/2+z
144 1/2-x,1/2+y,z
145 y,x,z
146 y,1/2+x,1/2+z
147 1/2+y,x,1/2+z
148 1/2+y,1/2+x,z
149 z,y,x
150 z,1/2+y,1/2+x
151 1/2+z,y,1/2+x
152 1/2+z,1/2+y,x
153 x,z,y
154 x,1/2+z,1/2+y
155 1/2+x,z,1/2+y
156 1/2+x,1/2+z,y
157 -y,-x,z
158 -y,1/2-x,1/2+z
159 1/2-y,-x,1/2+z
160 1/2-y,1/2-x,z
161 -z,-y,x
162 -z,1/2-y,1/2+x
163 1/2-z,-y,1/2+x
164 1/2-z,1/2-y,x
165 -x,-z,y
166 -x,1/2-z,1/2+y
167 1/2-x,-z,1/2+y
168 1/2-x,1/2-z,y
169 -z,y,-x
170 -z,1/2+y,1/2-x
171 1/2-z,y,1/2-x
172 1/2-z,1/2+y,-x
173 -x,z,-y
174 -x,1/2+z,1/2-y
175 1/2-x,z,1/2-y
176 1/2-x,1/2+z,-y
177 x,-z,-y
178 x,1/2-z,1/2-y
179 1/2+x,-z,1/2-y
180 1/2+x,1/2-z,-y
181 y,-x,-z
182 y,1/2-x,1/2-z
183 1/2+y,-x,1/2-z
184 1/2+y,1/2-x,-z
185 z,-y,-x
186 z,1/2-y,1/2-x
187 1/2+z,-y,1/2-x
188 1/2+z,1/2-y,-x
189 -y,x,-z
190 -y,1/2+x,1/2-z
191 1/2-y,x,1/2-z
192 1/2-y,1/2+x,-z
_cell_length_a                   26.315(3)
_cell_length_b                   26.315(3)
_cell_length_c                   26.315(3)
_cell_angle_alpha                90
_cell_angle_beta                 90
_cell_angle_gamma                90
_cell_volume                     18222.6
loop_
_atom_site_label
_atom_site_type_symbol
_atom_site_fract_x
_atom_site_fract_y
_atom_site_fract_z
_atom_site_U_iso_or_equiv
_atom_site_thermal_displace_type
Cu1 Cu 0.785344(12) 0.285344(12) 0.5000 0.0308 Uani
O1 O 0.84374(11) 0.34374(11) 0.5000 0.1037 Uani
O2 O 0.81701(6) 0.24328(6) 0.55253(6) 0.0506 Uani
C1 C 0.79683(9) 0.20317(9) 0.56912(11) 0.0407 Uani
C2 C 0.82221(8) 0.17779(8) 0.61311(11) 0.0389 Uani
C3 C 0.80089(12) 0.13465(9) 0.63465(9) 0.0420 Uani
H1 H 0.7702 0.1207 0.6207 0.0382 Uiso
O2V O 0.94747(6) 0.18299(6) 0.74328(6) 0.0506 Uani
C1V C 0.93088(11) 0.20317(9) 0.70317(9) 0.0407 Uani
C2V C 0.88689(11) 0.17779(8) 0.67779(8) 0.0389 Uani
C3V C 0.86535(9) 0.19911(12) 0.63465(9) 0.0420 Uani
H1V H 0.8793 0.2298 0.6207 0.0382 Uiso
O2OA O 0.75672(6) 0.05253(6) 0.68299(6) 0.0506 Uani
C1OA C 0.79683(9) 0.06912(11) 0.70317(9) 0.0407 Uani
C2OA C 0.82221(8) 0.11311(11) 0.67779(8) 0.0389 Uani
C3OA C 0.86535(9) 0.13465(9) 0.69911(12) 0.0420 Uani
H1OA H 0.8793 0.1207 0.7298 0.0382 Uiso
O2WE O 0.81701(6) 0.05253(6) 0.74328(6) 0.0506 Uani
O2ZE O 0.75672(6) 0.18299(6) 0.55253(6) 0.0506 Uani
O2NF O 0.94747(6) 0.24328(6) 0.68299(6) 0.0506 Uani
Cu1UC Cu 0.714656(12) 0.214656(12) 0.5000 0.0308 Uani
O1UC O 0.65626(11) 0.15626(11) 0.5000 0.1037 Uani
O2WC O 0.75672(6) -0.05253(6) 0.68299(6) 0.0506 Uani
C1WC C 0.79683(9) -0.06912(11) 0.70317(9) 0.0407 Uani
C2WC C 0.82221(8) -0.11311(11) 0.67779(8) 0.0389 Uani
C3WC C 0.86535(9) -0.13465(9) 0.69911(12) 0.0420 Uani
H1WC H 0.8793 -0.1207 0.7298 0.0382 Uiso
O2BE O 0.81701(6) -0.24328(6) 0.55253(6) 0.0506 Uani
C1BE C 0.79683(9) -0.20317(9) 0.56912(11) 0.0407 Uani
C2BE C 0.82221(8) -0.17779(8) 0.61311(11) 0.0389 Uani
C3BE C 0.80089(12) -0.13465(9) 0.63465(9) 0.0420 Uani
H1BE H 0.7702 -0.1207 0.6207 0.0382 Uiso
O2VD O 0.94747(6) -0.18299(6) 0.74328(6) 0.0506 Uani
C1VD C 0.93088(11) -0.20317(9) 0.70317(9) 0.0407 Uani
C2VD C 0.88689(11) -0.17779(8) 0.67779(8) 0.0389 Uani
C3VD C 0.86535(9) -0.19911(12) 0.63465(9) 0.0420 Uani
H1VD H 0.8793 -0.2298 0.6207 0.0382 Uiso
O2BB O 0.94747(6) -0.24328(6) 0.68299(6) 0.0506 Uani
O2YB O 0.81701(6) -0.05253(6) 0.74328(6) 0.0506 Uani
O2FC O 0.75672(6) -0.18299(6) 0.55253(6) 0.0506 Uani
Cu1G Cu 0.785344(12) -0.0000 0.785344(12) 0.0308 Uani
O1G O 0.84374(11) -0.0000 0.84374(11) 0.1037 Uani
Cu1WC Cu 0.714656(12) -0.0000 0.714656(12) 0.0308 Uani
Cu1J Cu 1.0000 -0.214656(12) 0.785344(12) 0.0308 Uani
Cu1CD Cu 1.0000 -0.285344(12) 0.714656(12) 0.0308 Uani
Cu1V Cu 1.0000 0.214656(12) 0.785344(12) 0.0308 Uani
Cu1OD Cu 1.0000 0.285344(12) 0.714656(12) 0.0308 Uani
Cu1BE Cu 0.785344(12) -0.285344(12) 0.5000 0.0308 Uani
Cu1MA Cu 0.714656(12) -0.214656(12) 0.5000 0.0308 Uani
O2UC O 0.68299(6) 0.25672(6) 0.44747(6) 0.0506 Uani
O2G O 0.74328(6) 0.05253(6) 0.81701(6) 0.0506 Uani
O2DD O 0.81701(6) 0.24328(6) 0.44747(6) 0.0506 Uani
O2O O 0.68299(6) 0.25672(6) 0.55253(6) 0.0506 Uani
O2IE O 0.74328(6) -0.05253(6) 0.81701(6) 0.0506 Uani
O2VA O 0.75672(6) 0.18299(6) 0.44747(6) 0.0506 Uani
O2QE O 0.74328(6) 0.31701(6) 0.55253(6) 0.0506 Uani
O2KB O 0.74328(6) 0.31701(6) 0.44747(6) 0.0506 Uani
loop_
_atom_site_aniso_label
_atom_site_aniso_U_11
_atom_site_aniso_U_22
_atom_site_aniso_U_33
_atom_site_aniso_U_23
_atom_site_aniso_U_13
_atom_site_aniso_U_12
Cu1 0.0328(2) 0.0328(2) 0.0268(3) 0.0000 0.0000 -0.01100(19)
O1 0.086(2) 0.086(2) 0.139(5) 0.0000 0.0000 -0.055(3)
O2 0.0526(9) 0.0516(10) 0.0476(9) 0.0148(8) -0.0146(7) -0.0138(8)
C1 0.0444(10) 0.0444(10) 0.0333(14) 0.0036(9) -0.0036(9) -0.0026(13)
C2 0.0410(10) 0.0410(10) 0.0348(14) 0.0054(9) -0.0054(9) -0.0025(12)
C3 0.0407(16) 0.0426(10) 0.0426(10) 0.0022(13) -0.0054(10) -0.0054(10)
O2V 0.0476 0.0526 0.0516 0.0138 -0.0148 -0.0146
C1V 0.0333 0.0444 0.0444 0.0026 -0.0036 -0.0036
C2V 0.0348 0.041 0.041 0.0025 -0.0054 -0.0054
C3V 0.0426 0.0407 0.0426 0.0054 -0.0022 -0.0054
O2OA 0.0516 0.0476 0.0526 0.0146 -0.0138 -0.0148
C1OA 0.0444 0.0333 0.0444 0.0036 -0.0026 -0.0036
C2OA 0.041 0.0348 0.041 0.0054 -0.0025 -0.0054
C3OA 0.0426 0.0426 0.0407 0.0054 -0.0054 -0.0022
O2WE 0.0526 0.0476 0.0516 0.0148 -0.0138 -0.0146
O2ZE 0.0516 0.0526 0.0476 0.0146 -0.0148 -0.0138
O2NF 0.0476 0.0516 0.0526 0.0138 -0.0146 -0.0148
Cu1UC 0.0328 0.0328 0.0268 0 0 -0.011
O1UC 0.086 0.086 0.139 0 0 -0.055
O2WC 0.0516 0.0476 0.0526 -0.0146 -0.0138 0.0148
C1WC 0.0444 0.0333 0.0444 -0.0036 -0.0026 0.0036
C2WC 0.041 0.0348 0.041 -0.0054 -0.0025 0.0054
C3WC 0.0426 0.0426 0.0407 -0.0054 -0.0054 0.0022
O2BE 0.0526 0.0516 0.0476 -0.0148 -0.0146 0.0138
C1BE 0.0444 0.0444 0.0333 -0.0036 -0.0036 0.0026
C2BE 0.041 0.041 0.0348 -0.0054 -0.0054 0.0025
C3BE 0.0407 0.0426 0.0426 -0.0022 -0.0054 0.0054
O2VD 0.0476 0.0526 0.0516 -0.0138 -0.0148 0.0146
C1VD 0.0333 0.0444 0.0444 -0.0026 -0.0036 0.0036
C2VD 0.0348 0.041 0.041 -0.0025 -0.0054 0.0054
C3VD 0.0426 0.0407 0.0426 -0.0054 -0.0022 0.0054
O2BB 0.0476 0.0516 0.0526 -0.0138 -0.0146 0.0148
O2YB 0.0526 0.0476 0.0516 -0.0148 -0.0138 0.0146
O2FC 0.0516 0.0526 0.0476 -0.0146 -0.0148 0.0138
Cu1G 0.0328 0.0268 0.0328 0 -0.011 0
O1G 0.086 0.139 0.086 0 -0.055 0
Cu1WC 0.0328 0.0268 0.0328 0 -0.011 0
Cu1J 0.0268 0.0328 0.0328 -0.011 0 0
Cu1CD 0.0268 0.0328 0.0328 -0.011 0 0
Cu1V 0.0268 0.0328 0.0328 0.011 0 0
Cu1OD 0.0268 0.0328 0.0328 0.011 0 0
Cu1BE 0.0328 0.0328 0.0268 0 0 0.011
Cu1MA 0.0328 0.0328 0.0268 0 0 0.011
O2UC 0.0526 0.0516 0.0476 0.0148 -0.0146 -0.0138
O2G 0.0516 0.0476 0.0526 -0.0146 -0.0138 0.0148
O2DD 0.0526 0.0516 0.0476 -0.0148 0.0146 -0.0138
O2O 0.0526 0.0516 0.0476 -0.0148 0.0146 -0.0138
O2IE 0.0516 0.0476 0.0526 0.0146 -0.0138 -0.0148
O2VA 0.0516 0.0526 0.0476 -0.0146 0.0148 -0.0138
O2QE 0.0516 0.0526 0.0476 -0.0146 0.0148 -0.0138
O2KB 0.0516 0.0526 0.0476 0.0146 -0.0148 -0.0138
loop_
_geom_bond_atom_site_label_1
_geom_bond_atom_site_label_2
_geom_bond_site_symmetry_1
_geom_bond_site_symmetry_2
Cu1 O1 1_555 1_555
O2 Cu1 1_555 1_555
C1 O2 1_555 1_555
C2 C1 1_555 1_555
C3 C2 1_555 1_555
H1 C3 1_555 1_555
O2V C1V 1_555 1_555
C1V C2V 1_555 1_555
C2V C3V 1_555 1_555
C3V C2 1_555 1_555
H1V C3V 1_555 1_555
O2OA C1OA 1_555 1_555
C1OA C2OA 1_555 1_555
C2OA C3 1_555 1_555
C3OA C2V 1_555 1_555
H1OA C3OA 1_555 1_555
O2WE C1OA 1_555 1_555
O2ZE C1 1_555 1_555
O2NF C1V 1_555 1_555
Cu1UC Cu1 1_555 1_555
O1UC Cu1UC 1_555 1_555
O2WC C1WC 1_555 1_555
C1WC C2WC 1_555 1_555
C2WC C3WC 1_555 1_555
C3WC H1WC 1_555 1_555
O2BE C1BE 1_555 1_555
C1BE C2BE 1_555 1_555
C2BE C3BE 1_555 1_555
C3BE C2WC 1_555 1_555
H1BE C3BE 1_555 1_555
O2VD C1VD 1_555 1_555
C1VD C2VD 1_555 1_555
C2VD C3WC 1_555 1_555
C3VD C2BE 1_555 1_555
H1VD C3VD 1_555 1_555
O2BB C1VD 1_555 1_555
O2YB C1WC 1_555 1_555
O2FC C1BE 1_555 1_555
Cu1G O2WE 1_555 1_555
O1G Cu1G 1_555 1_555
Cu1WC O2OA 1_555 1_555
Cu1J O2VD 1_555 1_555
Cu1CD O2BB 1_555 1_555
Cu1V O2V 1_555 1_555
Cu1OD O2NF 1_555 1_555
Cu1BE O2BE 1_555 1_555
Cu1MA O2FC 1_555 1_555
O2UC Cu1UC 1_555 1_555
O2G Cu1G 1_555 1_555
O2DD Cu1 1_555 1_555
O2O Cu1UC 1_555 1_555
O2IE Cu1G 1_555 1_555
O2VA Cu1UC 1_555 1_555
O2QE Cu1 1_555 1_555
O2KB Cu1 1_555 1_555
C2OA C3OA 1_555 1_555
O2ZE Cu1UC 1_555 1_555
O2WC Cu1WC 1_555 1_555
C2VD C3VD 1_555 1_555
O2YB Cu1G 1_555 1_555
Cu1G Cu1WC 1_555 1_555
Cu1J Cu1CD 1_555 1_555
Cu1V Cu1OD 1_555 1_555
Cu1BE Cu1MA 1_555 1_555

#END
