
#######################################################################
#
#                 Cambridge Crystallographic Data Centre
#                                CCDC 
#
#######################################################################
#
# If this CIF has been generated from an entry in the Cambridge 
# Structural Database, then it will include bibliographic, chemical, 
# crystal, experimental, refinement or atomic coordinate data resulting 
# from the CCDC's data processing and validation procedures.
#
#######################################################################

data_ARUCUN
_chemical_formula_moiety         '(C70 H56 Co2 N8 O16)n'
_symmetry_cell_setting           triclinic
_symmetry_space_group_name_H-M   'P -1'
_symmetry_Int_Tables_number      2
_space_group_name_Hall           '-P 1'
loop_
_symmetry_equiv_pos_site_id
_symmetry_equiv_pos_as_xyz
1 x,y,z
2 -x,-y,-z
_cell_length_a                   10.142(9)
_cell_length_b                   13.222(12)
_cell_length_c                   14.872(14)
_cell_angle_alpha                109.018(12)
_cell_angle_beta                 101.882(12)
_cell_angle_gamma                98.999(12)
_cell_volume                     1790.39
loop_
_atom_site_label
_atom_site_type_symbol
_atom_site_fract_x
_atom_site_fract_y
_atom_site_fract_z
Co1 Co 0.53003(8) -0.48530(7) 0.14843(6)
C1 C 0.7433(7) -0.2632(6) 0.2610(5)
H1 H 0.8058 -0.3068 0.2478
C2 C 0.7963(7) -0.1534(6) 0.3166(5)
H2 H 0.8918 -0.1242 0.3402
C3 C 0.7058(7) -0.0863(6) 0.3371(5)
C4 C 0.5649(8) -0.1367(6) 0.3000(6)
H3 H 0.4997 -0.0953 0.3117
C5 C 0.5232(7) -0.2460(6) 0.2468(6)
H4 H 0.4282 -0.2776 0.2240
C6 C 0.8756(8) 0.0943(6) 0.4249(6)
C7 C 0.9782(8) 0.2962(6) 0.5028(6)
H5 H 1.0312 0.2876 0.4579
C8 C 0.9912(8) 0.3995(6) 0.5691(5)
H6 H 1.0496 0.4605 0.5681
C9 C 0.9159(7) 0.4113(6) 0.6375(5)
C10 C 0.8301(8) 0.3211(6) 0.6390(5)
H7 H 0.7812 0.3294 0.6864
C11 C 0.8166(8) 0.2191(6) 0.5708(6)
H8 H 0.7572 0.1587 0.5721
C12 C 0.8884(7) 0.2030(6) 0.5001(5)
C13 C 1.0012(7) 0.6099(6) 0.7314(5)
C14 C 1.1422(7) 0.6217(6) 0.7457(5)
H9 H 1.1797 0.5604 0.7308
C15 C 1.2254(7) 0.7259(6) 0.7822(5)
H10 H 1.3200 0.7347 0.7884
C16 C 1.1735(8) 0.8185(6) 0.8101(5)
C17 C 1.0296(8) 0.8033(6) 0.7937(6)
H11 H 0.9914 0.8641 0.8094
C18 C 0.9458(7) 0.7002(6) 0.7549(5)
H12 H 0.8503 0.6906 0.7441
C19 C 1.2727(8) 0.9290(6) 0.8532(6)
C20 C 1.3068(7) 1.1179(6) 0.9720(5)
C21 C 1.4341(9) 1.1634(6) 0.9636(6)
H13 H 1.4783 1.1201 0.9227
C22 C 1.4930(8) 1.2715(6) 1.0156(6)
H14 H 1.5790 1.2995 1.0091
C23 C 1.3173(7) 1.2971(6) 1.0828(6)
H15 H 1.2743 1.3427 1.1229
C24 C 1.2511(8) 1.1876(7) 1.0347(6)
H16 H 1.1674 1.1606 1.0449
C25 C 0.5154(7) -0.4933(5) 0.3119(5)
C26 C 0.5076(7) -0.4974(6) 0.4087(4)
C27 C 0.6127(8) -0.5200(7) 0.4668(6)
H17 H 0.6903 -0.5334 0.4453
C28 C 0.3956(7) -0.4768(7) 0.4423(5)
H18 H 0.3237 -0.4605 0.4037
C29 C -0.0245(6) -0.4823(5) 0.0911(4)
H19 H -0.0411 -0.4701 0.1525
C30 C 0.1077(7) -0.4795(5) 0.0819(5)
H20 H 0.1802 -0.4659 0.1373
C31 C 0.1342(6) -0.4964(5) -0.0081(4)
C32 C 0.2798(6) -0.4880(5) -0.0175(5)
N1 N 0.6078(6) -0.3121(4) 0.2244(4)
N2 N 0.7445(6) 0.0253(5) 0.3964(5)
N3 N 1.2327(7) 1.0096(5) 0.9215(5)
N4 N 1.4392(6) 1.3417(5) 1.0754(4)
O1 O 0.9691(6) 0.0680(5) 0.3908(5)
O2 O 0.9086(4) 0.5104(4) 0.7033(3)
O3 O 1.3815(6) 0.9439(5) 0.8331(5)
O4 O 0.6215(5) -0.5062(4) 0.2831(3)
O5 O 0.4131(5) -0.4782(4) 0.2577(3)
O6 O 0.3752(4) -0.4556(4) 0.0605(3)
O7 O 0.2964(4) -0.5117(4) -0.1028(3)
C25A C 0.4846(7) -0.5067(5) 0.6881(5)
C26A C 0.4924(7) -0.5026(6) 0.5913(4)
C27A C 0.3873(8) -0.4800(7) 0.5332(6)
H17A H 0.3097 -0.4666 0.5547
C28A C 0.6044(7) -0.5232(7) 0.5577(5)
H18A H 0.6763 -0.5395 0.5963
O4A O 0.3785(5) -0.4938(4) 0.7169(3)
O5A O 0.5869(5) -0.5218(4) 0.7423(3)
C29A C 0.0245(6) -0.5177(5) -0.0911(4)
H19A H 0.0411 -0.5299 -0.1525
C30A C -0.1077(7) -0.5205(5) -0.0819(5)
H20A H -0.1802 -0.5341 -0.1373
C31A C -0.1342(6) -0.5036(5) 0.0081(4)
C32A C -0.2798(6) -0.5120(5) 0.0175(5)
O6A O -0.3752(4) -0.5444(4) -0.0605(3)
O7A O -0.2964(4) -0.4883(4) 0.1028(3)
Co1A Co -0.53003(8) -0.51470(7) -0.14843(6)
C1A C -0.7433(7) -0.7368(6) -0.2610(5)
H1A H -0.8058 -0.6932 -0.2478
C2A C -0.7963(7) -0.8466(6) -0.3166(5)
H2A H -0.8918 -0.8758 -0.3402
C3A C -0.7058(7) -0.9137(6) -0.3371(5)
C4A C -0.5649(8) -0.8633(6) -0.3000(6)
H3A H -0.4997 -0.9047 -0.3117
C5A C -0.5232(7) -0.7540(6) -0.2468(6)
H4A H -0.4282 -0.7224 -0.2240
C6A C -0.8756(8) -1.0943(6) -0.4249(6)
C7A C -0.9782(8) -1.2962(6) -0.5028(6)
H5A H -1.0312 -1.2876 -0.4579
C8A C -0.9912(8) -1.3995(6) -0.5691(5)
H6A H -1.0496 -1.4605 -0.5681
C9A C -0.9159(7) -1.4113(6) -0.6375(5)
C10A C -0.8301(8) -1.3211(6) -0.6390(5)
H7A H -0.7812 -1.3294 -0.6864
C11A C -0.8166(8) -1.2191(6) -0.5708(6)
H8A H -0.7572 -1.1587 -0.5721
C12A C -0.8884(7) -1.2030(6) -0.5001(5)
C13A C -1.0012(7) -1.6099(6) -0.7314(5)
C14A C -1.1422(7) -1.6217(6) -0.7457(5)
H9A H -1.1797 -1.5604 -0.7308
C15A C -1.2254(7) -1.7259(6) -0.7822(5)
H10A H -1.3200 -1.7347 -0.7884
C16A C -1.1735(8) -1.8185(6) -0.8101(5)
C17A C -1.0296(8) -1.8033(6) -0.7937(6)
H11A H -0.9914 -1.8641 -0.8094
C18A C -0.9458(7) -1.7002(6) -0.7549(5)
H12A H -0.8503 -1.6906 -0.7441
C19A C -1.2727(8) -1.9290(6) -0.8532(6)
C20A C -1.3068(7) -2.1179(6) -0.9720(5)
C21A C -1.4341(9) -2.1634(6) -0.9636(6)
H13A H -1.4783 -2.1201 -0.9227
C22A C -1.4930(8) -2.2715(6) -1.0156(6)
H14A H -1.5790 -2.2995 -1.0091
C23A C -1.3173(7) -2.2971(6) -1.0828(6)
H15A H -1.2743 -2.3427 -1.1229
C24A C -1.2511(8) -2.1876(7) -1.0347(6)
H16A H -1.1674 -2.1606 -1.0449
N1A N -0.6078(6) -0.6879(4) -0.2244(4)
N2A N -0.7445(6) -1.0253(5) -0.3964(5)
N3A N -1.2327(7) -2.0096(5) -0.9215(5)
N4A N -1.4392(6) -2.3417(5) -1.0754(4)
O1A O -0.9691(6) -1.0680(5) -0.3908(5)
O2A O -0.9086(4) -1.5104(4) -0.7033(3)
O3A O -1.3815(6) -1.9439(5) -0.8331(5)
Co1_2 Co -0.46997(8) -0.48530(7) 0.14843(6)
Co1_3 Co 1.53003(8) 1.51470(7) 1.14843(6)
Co1A_2 Co -1.53003(8) -2.51470(7) -1.14843(6)
Co1A_3 Co 0.46997(8) -0.51470(7) -0.14843(6)
Co1A_4 Co 0.46997(8) -0.51470(7) 0.85157(6)
N4_2 N 0.4392(6) -0.6583(5) 0.0754(4)
N4A_2 N -0.4392(6) -0.3417(5) -0.0754(4)
O4A_2 O -0.6215(5) -0.4938(4) -0.2831(3)
O5A_2 O -0.4131(5) -0.5218(4) -0.2577(3)
O7_2 O -0.7036(4) -0.5117(4) -0.1028(3)
O7A_2 O 0.7036(4) -0.4883(4) 0.1028(3)
C33 C 0.4239(16) 0.1763(12) 0.3119(10)
H21 H 0.4751 0.2509 0.3307
H22 H 0.3312 0.1666 0.2734
H23 H 0.4689 0.1268 0.2734
C34 C 0.4186(10) 0.1525(8) 0.4019(8)
C35 C 0.3168(11) 0.1967(9) 0.4519(8)
H24 H 0.2279 0.1450 0.4225
H25 H 0.3094 0.2654 0.4449
H26 H 0.3469 0.2084 0.5209
O8 O 0.4926(8) 0.1016(6) 0.4314(6)
C36 C 0.1818(17) 0.8076(13) 0.0627(11)
H27 H 0.1502 0.7882 -0.0075
H28 H 0.1561 0.7438 0.0786
H29 H 0.2810 0.8343 0.0844
C37 C 0.1178(10) 0.8942(8) 0.1128(7)
C38 C 0.0761(19) 0.8822(13) 0.1974(11)
H30 H 0.0340 0.9409 0.2251
H31 H 0.1562 0.8851 0.2465
H32 H 0.0106 0.8126 0.1766
O9 O 0.0879(6) 0.9608(5) 0.0781(5)
loop_
_geom_bond_atom_site_label_1
_geom_bond_atom_site_label_2
_geom_bond_site_symmetry_1
_geom_bond_site_symmetry_2
Co1 N1 1_555 1_555
C1 H1 1_555 1_555
C2 C1 1_555 1_555
H2 C2 1_555 1_555
C3 C2 1_555 1_555
C4 C3 1_555 1_555
H3 C4 1_555 1_555
C5 C4 1_555 1_555
H4 C5 1_555 1_555
C6 C12 1_555 1_555
C7 H5 1_555 1_555
C8 C7 1_555 1_555
H6 C8 1_555 1_555
C9 C8 1_555 1_555
C10 C9 1_555 1_555
H7 C10 1_555 1_555
C11 C10 1_555 1_555
H8 C11 1_555 1_555
C12 C7 1_555 1_555
C13 C14 1_555 1_555
C14 H9 1_555 1_555
C15 C14 1_555 1_555
H10 C15 1_555 1_555
C16 C15 1_555 1_555
C17 C16 1_555 1_555
H11 C17 1_555 1_555
C18 C13 1_555 1_555
H12 C18 1_555 1_555
C19 C16 1_555 1_555
C20 C21 1_555 1_555
C21 H13 1_555 1_555
C22 C21 1_555 1_555
H14 C22 1_555 1_555
C23 H15 1_555 1_555
C24 C20 1_555 1_555
H16 C24 1_555 1_555
C25 C26 1_555 1_555
C26 C27 1_555 1_555
C27 H17 1_555 1_555
C28 C26 1_555 1_555
H18 C28 1_555 1_555
C29 H19 1_555 1_555
C30 C29 1_555 1_555
H20 C30 1_555 1_555
C31 C30 1_555 1_555
C32 C31 1_555 1_555
N1 C1 1_555 1_555
N2 C3 1_555 1_555
N3 C19 1_555 1_555
N4 C22 1_555 1_555
O1 C6 1_555 1_555
O2 C9 1_555 1_555
O3 C19 1_555 1_555
O4 Co1 1_555 1_555
O5 Co1 1_555 1_555
O6 Co1 1_555 1_555
O7 C32 1_555 1_555
C33 H21 1_555 1_555
H22 C33 1_555 1_555
H23 C33 1_555 1_555
C34 C33 1_555 1_555
C35 C34 1_555 1_555
H24 C35 1_555 1_555
H25 C35 1_555 1_555
H26 C35 1_555 1_555
O8 C34 1_555 1_555
C36 H27 1_555 1_555
H28 C36 1_555 1_555
H29 C36 1_555 1_555
C37 C36 1_555 1_555
C38 C37 1_555 1_555
H30 C38 1_555 1_555
H31 C38 1_555 1_555
H32 C38 1_555 1_555
O9 C37 1_555 1_555
C25A C26A 1_555 1_555
C26A C27A 1_555 1_555
C27A C28 1_555 1_555
H17A C27A 1_555 1_555
C28A C27 1_555 1_555
H18A C28A 1_555 1_555
O4A C25A 1_555 1_555
O5A C25A 1_555 1_555
C29A C31 1_555 1_555
H19A C29A 1_555 1_555
C30A C29A 1_555 1_555
H20A C30A 1_555 1_555
C31A C29 1_555 1_555
C32A C31A 1_555 1_555
O6A C32A 1_555 1_555
O7A C32A 1_555 1_555
Co1A O6A 1_555 1_555
C1A H1A 1_555 1_555
C2A C1A 1_555 1_555
H2A C2A 1_555 1_555
C3A C2A 1_555 1_555
C4A C3A 1_555 1_555
H3A C4A 1_555 1_555
C5A C4A 1_555 1_555
H4A C5A 1_555 1_555
C6A C12A 1_555 1_555
C7A H5A 1_555 1_555
C8A C7A 1_555 1_555
H6A C8A 1_555 1_555
C9A C8A 1_555 1_555
C10A C9A 1_555 1_555
H7A C10A 1_555 1_555
C11A C10A 1_555 1_555
H8A C11A 1_555 1_555
C12A C7A 1_555 1_555
C13A C14A 1_555 1_555
C14A H9A 1_555 1_555
C15A C14A 1_555 1_555
H10A C15A 1_555 1_555
C16A C15A 1_555 1_555
C17A C16A 1_555 1_555
H11A C17A 1_555 1_555
C18A C13A 1_555 1_555
H12A C18A 1_555 1_555
C19A C16A 1_555 1_555
C20A C21A 1_555 1_555
C21A H13A 1_555 1_555
C22A C21A 1_555 1_555
H14A C22A 1_555 1_555
C23A H15A 1_555 1_555
C24A C20A 1_555 1_555
H16A C24A 1_555 1_555
N1A Co1A 1_555 1_555
N2A C3A 1_555 1_555
N3A C19A 1_555 1_555
N4A C22A 1_555 1_555
O1A C6A 1_555 1_555
O2A C9A 1_555 1_555
O3A C19A 1_555 1_555
Co1_2 O7A 1_555 1_555
Co1_3 N4 1_555 1_555
Co1A_2 N4A 1_555 1_555
Co1A_3 O7 1_555 1_555
Co1A_4 O4A 1_555 1_555
N4_2 Co1 1_555 1_555
N4A_2 Co1A 1_555 1_555
O4A_2 Co1A 1_555 1_555
O5A_2 Co1A 1_555 1_555
O7_2 Co1A 1_555 1_555
O7A_2 Co1 1_555 1_555
C5 N1 1_555 1_555
C6 N2 1_555 1_555
C11 C12 1_555 1_555
C13 O2 1_555 1_555
C17 C18 1_555 1_555
C20 N3 1_555 1_555
C23 C24 1_555 1_555
C23 N4 1_555 1_555
C25 O4 1_555 1_555
C25 O5 1_555 1_555
C32 O6 1_555 1_555
C26A C28A 1_555 1_555
O5A Co1A_4 1_555 1_555
C30A C31A 1_555 1_555
C1A N1A 1_555 1_555
C5A N1A 1_555 1_555
C6A N2A 1_555 1_555
C11A C12A 1_555 1_555
C13A O2A 1_555 1_555
C17A C18A 1_555 1_555
C20A N3A 1_555 1_555
C23A C24A 1_555 1_555
C23A N4A 1_555 1_555

#END
