
#######################################################################
#
#                 Cambridge Crystallographic Data Centre
#                                CCDC 
#
#######################################################################
#
# If this CIF has been generated from an entry in the Cambridge 
# Structural Database, then it will include bibliographic, chemical, 
# crystal, experimental, refinement or atomic coordinate data resulting 
# from the CCDC's data processing and validation procedures.
#
#######################################################################

data_ARUCOH01
_chemical_formula_moiety         '(C70 H58 Co2 N10 O16)n'
_symmetry_cell_setting           monoclinic
_symmetry_space_group_name_H-M   'P 21/n'
_symmetry_Int_Tables_number      14
_space_group_name_Hall           '-P 2yn'
loop_
_symmetry_equiv_pos_site_id
_symmetry_equiv_pos_as_xyz
1 x,y,z
2 1/2-x,1/2+y,1/2-z
3 -x,-y,-z
4 1/2+x,1/2-y,1/2+z
_cell_length_a                   10.061(3)
_cell_length_b                   25.034(8)
_cell_length_c                   14.690(5)
_cell_angle_alpha                90
_cell_angle_beta                 103.081(4)
_cell_angle_gamma                90
_cell_volume                     3603.92
loop_
_atom_site_label
_atom_site_type_symbol
_atom_site_fract_x
_atom_site_fract_y
_atom_site_fract_z
Co1 Co 0.47290(5) 1.02123(2) 0.35893(3)
C1 C 0.6003(4) 0.91106(16) 0.3621(3)
H1 H 0.6780 0.9320 0.3674
C2 C 0.6147(5) 0.85673(17) 0.3594(3)
H2 H 0.7000 0.8417 0.3620
C3 C 0.5012(5) 0.82432(17) 0.3527(3)
C4 C 0.3760(5) 0.84945(17) 0.3453(3)
H3 H 0.2962 0.8296 0.3383
C5 C 0.3728(5) 0.90428(17) 0.3485(3)
H4 H 0.2884 0.9206 0.3441
C6 C 0.4266(6) 0.73026(18) 0.3553(4)
C7 C 0.4713(5) 0.67398(17) 0.3453(3)
C8 C 0.6061(5) 0.65923(18) 0.3555(4)
H5 H 0.6744 0.6848 0.3719
C9 C 0.6408(5) 0.60681(18) 0.3418(4)
H6 H 0.7316 0.5970 0.3486
C10 C 0.5386(4) 0.56941(15) 0.3179(3)
C11 C 0.4046(4) 0.58288(17) 0.3081(3)
H7 H 0.3365 0.5572 0.2917
C12 C 0.3722(5) 0.63524(17) 0.3229(3)
H8 H 0.2813 0.6446 0.3176
C13 C 0.5280(4) 0.47191(16) 0.3103(3)
C14 C 0.5655(5) 0.43073(17) 0.2597(3)
H9 H 0.6152 0.4378 0.2148
C15 C 0.5302(5) 0.37931(18) 0.2750(3)
H10 H 0.5554 0.3517 0.2401
C16 C 0.4573(5) 0.36810(17) 0.3417(3)
C17 C 0.4173(5) 0.41039(18) 0.3906(4)
H11 H 0.3643 0.4038 0.4337
C18 C 0.4555(5) 0.46212(18) 0.3758(4)
H12 H 0.4316 0.4901 0.4106
C19 C 0.4176(5) 0.31254(17) 0.3633(4)
C20 C 0.4853(5) 0.21870(16) 0.3455(3)
C21 C 0.5673(5) 0.1866(2) 0.3056(4)
H13 H 0.6284 0.2020 0.2743
C22 C 0.5596(5) 0.13244(18) 0.3117(4)
H14 H 0.6189 0.1121 0.2857
C23 C 0.3952(5) 0.13820(17) 0.3897(4)
H15 H 0.3328 0.1220 0.4189
C24 C 0.3991(6) 0.19310(18) 0.3889(4)
H16 H 0.3423 0.2126 0.4183
C25 C 0.7221(4) 1.00143(15) 0.5229(3)
C26 C 0.8660(4) 1.00036(15) 0.5110(3)
C27 C 0.9669(4) 0.97376(16) 0.5744(3)
H17 H 0.9449 0.9559 0.6245
C28 C 1.0996(4) 0.97345(16) 0.5643(3)
H18 H 1.1666 0.9557 0.6078
C29 C 0.3841(4) 1.00489(16) -0.0712(3)
H19 H 0.3062 1.0083 -0.1190
C30 C 0.3755(4) 1.01102(16) 0.0207(3)
H20 H 0.2918 1.0183 0.0348
C31 C 0.4920(4) 1.00628(15) 0.0923(3)
C32 C 0.4845(4) 1.01357(15) 0.1920(3)
N1 N 0.4816(3) 0.93587(13) 0.3576(2)
N2 N 0.5202(4) 0.76920(14) 0.3513(3)
H21 H 0.5999 0.7585 0.3474
N3 N 0.5005(4) 0.27389(14) 0.3400(3)
H22 H 0.5695 0.2849 0.3198
N4 N 0.4735(3) 0.10694(13) 0.3519(2)
O1 O 0.3120(4) 0.74033(13) 0.3622(3)
O2 O 0.5832(3) 0.52056(11) 0.2940(2)
O3 O 0.3239(4) 0.30331(13) 0.3983(3)
O4 O 0.6987(3) 0.97624(10) 0.59217(18)
O5 O 0.6365(3) 1.02744(10) 0.46540(19)
O6 O 0.3698(3) 1.01728(11) 0.21199(19)
O7 O 0.5929(3) 1.01619(11) 0.25365(19)
C25B C 1.2779(4) 0.99857(15) 0.4771(3)
C26B C 1.1340(4) 0.99964(15) 0.4890(3)
C27B C 1.0331(4) 1.02624(16) 0.4256(3)
H17B H 1.0551 1.0441 0.3755
C28B C 0.9004(4) 1.02655(16) 0.4357(3)
H18B H 0.8334 1.0443 0.3922
O4B O 1.3013(3) 1.02376(10) 0.40783(18)
O5B O 1.3635(3) 0.97256(10) 0.53460(19)
C29B C 0.6159(4) 0.99511(16) 0.0712(3)
H19B H 0.6938 0.9917 0.1190
C30B C 0.6245(4) 0.98898(16) -0.0207(3)
H20B H 0.7082 0.9817 -0.0348
C31B C 0.5080(4) 0.99372(15) -0.0923(3)
C32B C 0.5155(4) 0.98643(15) -0.1920(3)
O6B O 0.6302(3) 0.98272(11) -0.21199(19)
O7B O 0.4071(3) 0.98381(11) -0.25365(19)
Co1B Co 0.52710(5) 0.97877(2) -0.35893(3)
C1B C 0.3997(4) 1.08894(16) -0.3621(3)
H1B H 0.3220 1.0680 -0.3674
C2B C 0.3853(5) 1.14327(17) -0.3594(3)
H2B H 0.3000 1.1583 -0.3620
C3B C 0.4988(5) 1.17568(17) -0.3527(3)
C4B C 0.6240(5) 1.15055(17) -0.3453(3)
H3B H 0.7038 1.1704 -0.3383
C5B C 0.6272(5) 1.09572(17) -0.3485(3)
H4B H 0.7116 1.0794 -0.3441
C6B C 0.5734(6) 1.26974(18) -0.3553(4)
C7B C 0.5287(5) 1.32602(17) -0.3453(3)
C8B C 0.3939(5) 1.34077(18) -0.3555(4)
H5B H 0.3256 1.3152 -0.3719
C9B C 0.3592(5) 1.39319(18) -0.3418(4)
H6B H 0.2684 1.4030 -0.3486
C10B C 0.4614(4) 1.43059(15) -0.3179(3)
C11B C 0.5954(4) 1.41712(17) -0.3081(3)
H7B H 0.6635 1.4428 -0.2917
C12B C 0.6278(5) 1.36476(17) -0.3229(3)
H8B H 0.7187 1.3554 -0.3176
C13B C 0.4720(4) 1.52809(16) -0.3103(3)
C14B C 0.4345(5) 1.56927(17) -0.2597(3)
H9B H 0.3848 1.5622 -0.2148
C15B C 0.4698(5) 1.62069(18) -0.2750(3)
H10B H 0.4446 1.6483 -0.2401
C16B C 0.5427(5) 1.63190(17) -0.3417(3)
C17B C 0.5827(5) 1.58961(18) -0.3906(4)
H11B H 0.6357 1.5962 -0.4337
C18B C 0.5445(5) 1.53788(18) -0.3758(4)
H12B H 0.5684 1.5099 -0.4106
C19B C 0.5824(5) 1.68746(17) -0.3633(4)
C20B C 0.5147(5) 1.78130(16) -0.3455(3)
C21B C 0.4327(5) 1.8134(2) -0.3056(4)
H13B H 0.3716 1.7980 -0.2743
C22B C 0.4404(5) 1.86756(18) -0.3117(4)
H14B H 0.3811 1.8879 -0.2857
C23B C 0.6048(5) 1.86180(17) -0.3897(4)
H15B H 0.6672 1.8780 -0.4189
C24B C 0.6009(6) 1.80690(18) -0.3889(4)
H16B H 0.6577 1.7874 -0.4183
N1B N 0.5184(3) 1.06413(13) -0.3576(2)
N2B N 0.4798(4) 1.23080(14) -0.3513(3)
H21B H 0.4001 1.2415 -0.3474
N3B N 0.4995(4) 1.72611(14) -0.3400(3)
H22B H 0.4305 1.7151 -0.3198
N4B N 0.5265(3) 1.89306(13) -0.3519(2)
O1B O 0.6880(4) 1.25967(13) -0.3622(3)
O2B O 0.4168(3) 1.47944(11) -0.2940(2)
O3B O 0.6761(4) 1.69669(13) -0.3983(3)
Co1_2 Co 0.47290(5) 0.02123(2) 0.35893(3)
Co1_3 Co 1.47290(5) 1.02123(2) 0.35893(3)
Co1B_2 Co 0.52710(5) 0.97877(2) 0.64107(3)
Co1B_3 Co 0.52710(5) 1.97877(2) -0.35893(3)
Co1B_4 Co 1.52710(5) 0.97877(2) 0.64107(3)
N4_2 N 0.4735(3) 1.10694(13) 0.3519(2)
N4B_2 N 0.5265(3) 0.89306(13) -0.3519(2)
O4_2 O 0.6987(3) 0.97624(10) -0.40783(18)
O4B_2 O 0.3013(3) 1.02376(10) 0.40783(18)
O5B_2 O 0.3635(3) 0.97256(10) -0.46540(19)
C34 C 0.1214(13) 0.2296(5) 0.5210(9)
N5 N -0.0021(8) 0.1974(2) 0.4953(6)
C35 C -0.0025(13) 0.1873(5) 0.3791(9)
C36 C -0.1538(17) 0.1803(6) 0.5022(11)
O8 O 0.1519(5) 0.24094(18) 0.6034(4)
C40 C 0.9016(10) 0.3088(4) 0.3598(7)
N6 N 0.9230(4) 0.33508(17) 0.4493(4)
C41 C 1.0388(16) 0.3578(6) 0.4327(12)
C42 C 0.8122(11) 0.3394(4) 0.4935(8)
O9 O 0.7853(5) 0.29196(19) 0.3310(3)
loop_
_geom_bond_atom_site_label_1
_geom_bond_atom_site_label_2
_geom_bond_site_symmetry_1
_geom_bond_site_symmetry_2
Co1 N1 1_555 1_555
C1 H1 1_555 1_555
C2 C1 1_555 1_555
H2 C2 1_555 1_555
C3 C2 1_555 1_555
C4 C3 1_555 1_555
H3 C4 1_555 1_555
C5 C4 1_555 1_555
H4 C5 1_555 1_555
C6 C7 1_555 1_555
C7 C8 1_555 1_555
C8 H5 1_555 1_555
C9 C8 1_555 1_555
H6 C9 1_555 1_555
C10 C9 1_555 1_555
C11 C10 1_555 1_555
H7 C11 1_555 1_555
C12 C7 1_555 1_555
H8 C12 1_555 1_555
C13 C14 1_555 1_555
C14 H9 1_555 1_555
C15 C14 1_555 1_555
H10 C15 1_555 1_555
C16 C15 1_555 1_555
C17 C16 1_555 1_555
H11 C17 1_555 1_555
C18 C13 1_555 1_555
H12 C18 1_555 1_555
C19 C16 1_555 1_555
C20 C21 1_555 1_555
C21 H13 1_555 1_555
C22 C21 1_555 1_555
H14 C22 1_555 1_555
C23 H15 1_555 1_555
C24 C20 1_555 1_555
H16 C24 1_555 1_555
C25 C26 1_555 1_555
C26 C27 1_555 1_555
C27 H17 1_555 1_555
C28 C27 1_555 1_555
H18 C28 1_555 1_555
C29 H19 1_555 1_555
C30 C29 1_555 1_555
H20 C30 1_555 1_555
C31 C30 1_555 1_555
C32 C31 1_555 1_555
N1 C1 1_555 1_555
N2 C3 1_555 1_555
H21 N2 1_555 1_555
N3 C19 1_555 1_555
H22 N3 1_555 1_555
N4 C22 1_555 1_555
O1 C6 1_555 1_555
O2 C10 1_555 1_555
O3 C19 1_555 1_555
O4 C25 1_555 1_555
O5 Co1 1_555 1_555
O6 Co1 1_555 1_555
O7 Co1 1_555 1_555
C34 N5 1_555 1_555
N5 C35 1_555 1_555
C36 N5 1_555 1_555
O8 C34 1_555 1_555
C40 N6 1_555 1_555
N6 C41 1_555 1_555
C42 N6 1_555 1_555
O9 C40 1_555 1_555
C25B C26B 1_555 1_555
C26B C28 1_555 1_555
C27B C26B 1_555 1_555
H17B C27B 1_555 1_555
C28B C26 1_555 1_555
H18B C28B 1_555 1_555
O4B C25B 1_555 1_555
O5B C25B 1_555 1_555
C29B C31 1_555 1_555
H19B C29B 1_555 1_555
C30B C29B 1_555 1_555
H20B C30B 1_555 1_555
C31B C29 1_555 1_555
C32B C31B 1_555 1_555
O6B C32B 1_555 1_555
O7B C32B 1_555 1_555
Co1B O6B 1_555 1_555
C1B H1B 1_555 1_555
C2B C1B 1_555 1_555
H2B C2B 1_555 1_555
C3B C2B 1_555 1_555
C4B C3B 1_555 1_555
H3B C4B 1_555 1_555
C5B C4B 1_555 1_555
H4B C5B 1_555 1_555
C6B C7B 1_555 1_555
C7B C8B 1_555 1_555
C8B H5B 1_555 1_555
C9B C8B 1_555 1_555
H6B C9B 1_555 1_555
C10B C9B 1_555 1_555
C11B C10B 1_555 1_555
H7B C11B 1_555 1_555
C12B C7B 1_555 1_555
H8B C12B 1_555 1_555
C13B C14B 1_555 1_555
C14B H9B 1_555 1_555
C15B C14B 1_555 1_555
H10B C15B 1_555 1_555
C16B C15B 1_555 1_555
C17B C16B 1_555 1_555
H11B C17B 1_555 1_555
C18B C13B 1_555 1_555
H12B C18B 1_555 1_555
C19B C16B 1_555 1_555
C20B C21B 1_555 1_555
C21B H13B 1_555 1_555
C22B C21B 1_555 1_555
H14B C22B 1_555 1_555
C23B H15B 1_555 1_555
C24B C20B 1_555 1_555
H16B C24B 1_555 1_555
N1B Co1B 1_555 1_555
N2B C3B 1_555 1_555
H21B N2B 1_555 1_555
N3B C19B 1_555 1_555
H22B N3B 1_555 1_555
N4B C22B 1_555 1_555
O1B C6B 1_555 1_555
O2B C10B 1_555 1_555
O3B C19B 1_555 1_555
Co1_2 N4 1_555 1_555
Co1_3 O4B 1_555 1_555
Co1B_2 O4 1_555 1_555
Co1B_3 N4B 1_555 1_555
Co1B_4 O5B 1_555 1_555
N4_2 Co1 1_555 1_555
N4B_2 Co1B 1_555 1_555
O4_2 Co1B 1_555 1_555
O4B_2 Co1 1_555 1_555
O5B_2 Co1B 1_555 1_555
C5 N1 1_555 1_555
C6 N2 1_555 1_555
C11 C12 1_555 1_555
C13 O2 1_555 1_555
C17 C18 1_555 1_555
C20 N3 1_555 1_555
C23 C24 1_555 1_555
C23 N4 1_555 1_555
C25 O5 1_555 1_555
C32 O6 1_555 1_555
C32 O7 1_555 1_555
C27B C28B 1_555 1_555
C30B C31B 1_555 1_555
O7B Co1B 1_555 1_555
C1B N1B 1_555 1_555
C5B N1B 1_555 1_555
C6B N2B 1_555 1_555
C11B C12B 1_555 1_555
C13B O2B 1_555 1_555
C17B C18B 1_555 1_555
C20B N3B 1_555 1_555
C23B C24B 1_555 1_555
C23B N4B 1_555 1_555

#END
