
#######################################################################
#
#                 Cambridge Crystallographic Data Centre
#                                CCDC 
#
#######################################################################
#
# If this CIF has been generated from an entry in the Cambridge 
# Structural Database, then it will include bibliographic, chemical, 
# crystal, experimental, refinement or atomic coordinate data resulting 
# from the CCDC's data processing and validation procedures.
#
#######################################################################

data_ARUDAU
_chemical_formula_moiety         '(C68 H56 Co2 N8 O16 S2)n'
_symmetry_cell_setting           triclinic
_symmetry_space_group_name_H-M   'P -1'
_symmetry_Int_Tables_number      2
_space_group_name_Hall           '-P 1'
loop_
_symmetry_equiv_pos_site_id
_symmetry_equiv_pos_as_xyz
1 x,y,z
2 -x,-y,-z
_cell_length_a                   10.119(2)
_cell_length_b                   13.671(3)
_cell_length_c                   15.009(3)
_cell_angle_alpha                111.271(3)
_cell_angle_beta                 101.926(3)
_cell_angle_gamma                99.461(3)
_cell_volume                     1826.7
loop_
_atom_site_label
_atom_site_type_symbol
_atom_site_fract_x
_atom_site_fract_y
_atom_site_fract_z
Co1 Co 0.53041(7) -0.48844(6) 0.15017(5)
C1 C 0.7493(7) -0.2652(5) 0.2650(5)
H1 H 0.8121 -0.3073 0.2514
C2 C 0.8039(7) -0.1544(5) 0.3220(6)
H2 H 0.9000 -0.1234 0.3458
C3 C 0.7106(7) -0.0912(5) 0.3424(5)
C4 C 0.5677(8) -0.1423(6) 0.3036(6)
H3 H 0.5022 -0.1023 0.3148
C5 C 0.5256(7) -0.2533(5) 0.2484(5)
H4 H 0.4300 -0.2866 0.2238
C6 C 0.8773(8) 0.0912(6) 0.4264(6)
C7 C 0.8914(8) 0.2029(5) 0.5015(5)
C8 C 0.9741(8) 0.2924(6) 0.4983(6)
H5 H 1.0218 0.2821 0.4503
C9 C 0.9864(7) 0.3960(5) 0.5650(5)
H6 H 1.0409 0.4557 0.5618
C10 C 0.9173(6) 0.4106(5) 0.6366(4)
C11 C 0.8380(7) 0.3227(5) 0.6418(5)
H7 H 0.7928 0.3333 0.6913
C12 C 0.8244(8) 0.2194(5) 0.5749(5)
H8 H 0.7698 0.1603 0.5789
C13 C 1.0026(6) 0.6084(5) 0.7310(4)
C14 C 1.1453(6) 0.6227(5) 0.7465(5)
H9 H 1.1832 0.5632 0.7316
C15 C 1.2300(7) 0.7267(5) 0.7843(6)
H10 H 1.3255 0.7372 0.7921
C16 C 1.1750(7) 0.8166(5) 0.8112(5)
C17 C 1.0322(7) 0.7999(5) 0.7954(6)
H11 H 0.9945 0.8595 0.8126
C18 C 0.9447(7) 0.6966(5) 0.7547(5)
H12 H 0.8485 0.6859 0.7432
C19 C 1.2740(8) 0.9268(5) 0.8545(6)
C20 C 1.3093(7) 1.1152(5) 0.9750(5)
C21 C 1.4155(11) 1.1659(6) 0.9507(7)
H13 H 1.4472 1.1256 0.8988
C22 C 1.4749(10) 1.2739(6) 1.0016(6)
H14 H 1.5485 1.3046 0.9837
C23 C 1.3320(9) 1.2899(6) 1.0973(7)
H15 H 1.3000 1.3327 1.1479
C24 C 1.2685(9) 1.1813(6) 1.0519(7)
H16 H 1.1977 1.1519 1.0729
C25 C 0.5167(6) -0.4921(5) 0.3131(4)
C26 C 0.5094(6) -0.4959(5) 0.4104(4)
C27 C 0.6150(6) -0.5176(6) 0.4677(5)
H17 H 0.6928 -0.5299 0.4460
C28 C 0.6071(6) -0.5213(6) 0.5565(5)
H18 H 0.6800 -0.5354 0.5949
C29 C -0.1082(6) -0.5119(5) -0.0804(4)
H19 H -0.1802 -0.5206 -0.1346
C30 C 0.0261(6) -0.5087(5) -0.0887(4)
H20 H 0.0432 -0.5139 -0.1485
C31 C 0.1354(6) -0.4978(4) -0.0101(4)
C32 C 0.2799(6) -0.4898(4) -0.0185(4)
N1 N 0.6123(5) -0.3158(4) 0.2281(4)
N2 N 0.7501(6) 0.0206(5) 0.4014(5)
N3 N 1.2380(6) 1.0056(4) 0.9265(5)
N4 N 1.4358(5) 1.3390(4) 1.0749(4)
O1 O 0.9709(7) 0.0671(4) 0.3904(5)
O2 O 0.9088(4) 0.5086(3) 0.7016(3)
O3 O 1.3800(7) 0.9434(4) 0.8299(5)
O4 O 0.6236(4) -0.5045(4) 0.2855(3)
O5 O 0.4152(4) -0.4756(4) 0.2612(3)
O6 O 0.3774(4) -0.4635(3) 0.0588(3)
O7 O 0.2955(4) -0.5063(3) -0.1036(3)
C25A C 0.4833(6) -0.5079(5) 0.6869(4)
C26A C 0.4906(6) -0.5041(5) 0.5896(4)
C27A C 0.3850(6) -0.4824(6) 0.5323(5)
H17A H 0.3072 -0.4701 0.5540
C28A C 0.3929(6) -0.4787(6) 0.4435(5)
H18A H 0.3200 -0.4646 0.4051
O4A O 0.3764(4) -0.4955(4) 0.7145(3)
O5A O 0.5848(4) -0.5244(4) 0.7388(3)
C29A C 0.1082(6) -0.4881(5) 0.0804(4)
H19A H 0.1802 -0.4794 0.1346
C30A C -0.0261(6) -0.4913(5) 0.0887(4)
H20A H -0.0432 -0.4861 0.1485
C31A C -0.1354(6) -0.5022(4) 0.0101(4)
C32A C -0.2799(6) -0.5102(4) 0.0185(4)
O6A O -0.3774(4) -0.5365(3) -0.0588(3)
O7A O -0.2955(4) -0.4937(3) 0.1036(3)
Co1A Co -0.53041(7) -0.51156(6) -0.15017(5)
C1A C -0.7493(7) -0.7348(5) -0.2650(5)
H1A H -0.8121 -0.6927 -0.2514
C2A C -0.8039(7) -0.8456(5) -0.3220(6)
H2A H -0.9000 -0.8766 -0.3458
C3A C -0.7106(7) -0.9088(5) -0.3424(5)
C4A C -0.5677(8) -0.8577(6) -0.3036(6)
H3A H -0.5022 -0.8977 -0.3148
C5A C -0.5256(7) -0.7467(5) -0.2484(5)
H4A H -0.4300 -0.7134 -0.2238
C6A C -0.8773(8) -1.0912(6) -0.4264(6)
C7A C -0.8914(8) -1.2029(5) -0.5015(5)
C8A C -0.9741(8) -1.2924(6) -0.4983(6)
H5A H -1.0218 -1.2821 -0.4503
C9A C -0.9864(7) -1.3960(5) -0.5650(5)
H6A H -1.0409 -1.4557 -0.5618
C10A C -0.9173(6) -1.4106(5) -0.6366(4)
C11A C -0.8380(7) -1.3227(5) -0.6418(5)
H7A H -0.7928 -1.3333 -0.6913
C12A C -0.8244(8) -1.2194(5) -0.5749(5)
H8A H -0.7698 -1.1603 -0.5789
C13A C -1.0026(6) -1.6084(5) -0.7310(4)
C14A C -1.1453(6) -1.6227(5) -0.7465(5)
H9A H -1.1832 -1.5632 -0.7316
C15A C -1.2300(7) -1.7267(5) -0.7843(6)
H10A H -1.3255 -1.7372 -0.7921
C16A C -1.1750(7) -1.8166(5) -0.8112(5)
C17A C -1.0322(7) -1.7999(5) -0.7954(6)
H11A H -0.9945 -1.8595 -0.8126
C18A C -0.9447(7) -1.6966(5) -0.7547(5)
H12A H -0.8485 -1.6859 -0.7432
C19A C -1.2740(8) -1.9268(5) -0.8545(6)
C20A C -1.3093(7) -2.1152(5) -0.9750(5)
C21A C -1.4155(11) -2.1659(6) -0.9507(7)
H13A H -1.4472 -2.1256 -0.8988
C22A C -1.4749(10) -2.2739(6) -1.0016(6)
H14A H -1.5485 -2.3046 -0.9837
C23A C -1.3320(9) -2.2899(6) -1.0973(7)
H15A H -1.3000 -2.3327 -1.1479
C24A C -1.2685(9) -2.1813(6) -1.0519(7)
H16A H -1.1977 -2.1519 -1.0729
N1A N -0.6123(5) -0.6842(4) -0.2281(4)
N2A N -0.7501(6) -1.0206(5) -0.4014(5)
N3A N -1.2380(6) -2.0056(4) -0.9265(5)
N4A N -1.4358(5) -2.3390(4) -1.0749(4)
O1A O -0.9709(7) -1.0671(4) -0.3904(5)
O2A O -0.9088(4) -1.5086(3) -0.7016(3)
O3A O -1.3800(7) -1.9434(4) -0.8299(5)
Co1_2 Co -0.46959(7) -0.48844(6) 0.15017(5)
Co1_3 Co 1.53041(7) 1.51156(6) 1.15017(5)
Co1A_2 Co -1.53041(7) -2.51156(6) -1.15017(5)
Co1A_3 Co 0.46959(7) -0.51156(6) -0.15017(5)
Co1A_4 Co 0.46959(7) -0.51156(6) 0.84983(5)
N4_2 N 0.4358(5) -0.6610(4) 0.0749(4)
N4A_2 N -0.4358(5) -0.3390(4) -0.0749(4)
O4A_2 O -0.6236(4) -0.4955(4) -0.2855(3)
O5A_2 O -0.4152(4) -0.5244(4) -0.2612(3)
O7_2 O -0.7045(4) -0.5063(3) -0.1036(3)
O7A_2 O 0.7045(4) -0.4937(3) 0.1036(3)
C33 C 0.3159(13) 0.2059(9) 0.4612(9)
C34 C 0.423(2) 0.1843(15) 0.3013(14)
O8 O 0.4875(10) 0.0790(7) 0.4160(9)
S1 S 0.4753(5) 0.1912(4) 0.4270(4)
C35 C 0.075(3) 0.878(2) 0.202(2)
C36 C 0.156(3) 0.778(2) 0.047(2)
O9 O 0.0931(7) 0.9544(6) 0.0667(6)
S2 S 0.0702(7) 0.8373(5) 0.0576(5)
loop_
_geom_bond_atom_site_label_1
_geom_bond_atom_site_label_2
_geom_bond_site_symmetry_1
_geom_bond_site_symmetry_2
Co1 N1 1_555 1_555
C1 H1 1_555 1_555
C2 C1 1_555 1_555
H2 C2 1_555 1_555
C3 C2 1_555 1_555
C4 C3 1_555 1_555
H3 C4 1_555 1_555
C5 C4 1_555 1_555
H4 C5 1_555 1_555
C6 C7 1_555 1_555
C7 C8 1_555 1_555
C8 H5 1_555 1_555
C9 C8 1_555 1_555
H6 C9 1_555 1_555
C10 C9 1_555 1_555
C11 C10 1_555 1_555
H7 C11 1_555 1_555
C12 C7 1_555 1_555
H8 C12 1_555 1_555
C13 C14 1_555 1_555
C14 H9 1_555 1_555
C15 C14 1_555 1_555
H10 C15 1_555 1_555
C16 C15 1_555 1_555
C17 C16 1_555 1_555
H11 C17 1_555 1_555
C18 C13 1_555 1_555
H12 C18 1_555 1_555
C19 C16 1_555 1_555
C20 C21 1_555 1_555
C21 H13 1_555 1_555
C22 C21 1_555 1_555
H14 C22 1_555 1_555
C23 H15 1_555 1_555
C24 C20 1_555 1_555
H16 C24 1_555 1_555
C25 C26 1_555 1_555
C26 C27 1_555 1_555
C27 H17 1_555 1_555
C28 C27 1_555 1_555
H18 C28 1_555 1_555
C29 H19 1_555 1_555
C30 C29 1_555 1_555
H20 C30 1_555 1_555
C31 C30 1_555 1_555
C32 C31 1_555 1_555
N1 C1 1_555 1_555
N2 C3 1_555 1_555
N3 C19 1_555 1_555
N4 C22 1_555 1_555
O1 C6 1_555 1_555
O2 C10 1_555 1_555
O3 C19 1_555 1_555
O4 Co1 1_555 1_555
O5 Co1 1_555 1_555
O6 Co1 1_555 1_555
O7 C32 1_555 1_555
C33 S1 1_555 1_555
C34 S1 1_555 1_555
O8 S1 1_555 1_555
C35 S2 1_555 1_555
C36 S2 1_555 1_555
O9 S2 1_555 1_555
C25A C26A 1_555 1_555
C26A C28 1_555 1_555
C27A C26A 1_555 1_555
H17A C27A 1_555 1_555
C28A C26 1_555 1_555
H18A C28A 1_555 1_555
O4A C25A 1_555 1_555
O5A C25A 1_555 1_555
C29A C31 1_555 1_555
H19A C29A 1_555 1_555
C30A C29A 1_555 1_555
H20A C30A 1_555 1_555
C31A C29 1_555 1_555
C32A C31A 1_555 1_555
O6A C32A 1_555 1_555
O7A C32A 1_555 1_555
Co1A O6A 1_555 1_555
C1A H1A 1_555 1_555
C2A C1A 1_555 1_555
H2A C2A 1_555 1_555
C3A C2A 1_555 1_555
C4A C3A 1_555 1_555
H3A C4A 1_555 1_555
C5A C4A 1_555 1_555
H4A C5A 1_555 1_555
C6A C7A 1_555 1_555
C7A C8A 1_555 1_555
C8A H5A 1_555 1_555
C9A C8A 1_555 1_555
H6A C9A 1_555 1_555
C10A C9A 1_555 1_555
C11A C10A 1_555 1_555
H7A C11A 1_555 1_555
C12A C7A 1_555 1_555
H8A C12A 1_555 1_555
C13A C14A 1_555 1_555
C14A H9A 1_555 1_555
C15A C14A 1_555 1_555
H10A C15A 1_555 1_555
C16A C15A 1_555 1_555
C17A C16A 1_555 1_555
H11A C17A 1_555 1_555
C18A C13A 1_555 1_555
H12A C18A 1_555 1_555
C19A C16A 1_555 1_555
C20A C21A 1_555 1_555
C21A H13A 1_555 1_555
C22A C21A 1_555 1_555
H14A C22A 1_555 1_555
C23A H15A 1_555 1_555
C24A C20A 1_555 1_555
H16A C24A 1_555 1_555
N1A Co1A 1_555 1_555
N2A C3A 1_555 1_555
N3A C19A 1_555 1_555
N4A C22A 1_555 1_555
O1A C6A 1_555 1_555
O2A C10A 1_555 1_555
O3A C19A 1_555 1_555
Co1_2 O7A 1_555 1_555
Co1_3 N4 1_555 1_555
Co1A_2 N4A 1_555 1_555
Co1A_3 O7 1_555 1_555
Co1A_4 O4A 1_555 1_555
N4_2 Co1 1_555 1_555
N4A_2 Co1A 1_555 1_555
O4A_2 Co1A 1_555 1_555
O5A_2 Co1A 1_555 1_555
O7_2 Co1A 1_555 1_555
O7A_2 Co1 1_555 1_555
C5 N1 1_555 1_555
C6 N2 1_555 1_555
C11 C12 1_555 1_555
C13 O2 1_555 1_555
C17 C18 1_555 1_555
C20 N3 1_555 1_555
C23 C24 1_555 1_555
C23 N4 1_555 1_555
C25 O4 1_555 1_555
C25 O5 1_555 1_555
C32 O6 1_555 1_555
C27A C28A 1_555 1_555
O5A Co1A_4 1_555 1_555
C30A C31A 1_555 1_555
C1A N1A 1_555 1_555
C5A N1A 1_555 1_555
C6A N2A 1_555 1_555
C11A C12A 1_555 1_555
C13A O2A 1_555 1_555
C17A C18A 1_555 1_555
C20A N3A 1_555 1_555
C23A C24A 1_555 1_555
C23A N4A 1_555 1_555

#END
