
#######################################################################
#
#                 Cambridge Crystallographic Data Centre
#                                CCDC 
#
#######################################################################
#
# If this CIF has been generated from an entry in the Cambridge 
# Structural Database, then it will include bibliographic, chemical, 
# crystal, experimental, refinement or atomic coordinate data resulting 
# from the CCDC's data processing and validation procedures.
#
#######################################################################

data_DOPHUN
_chemical_formula_moiety         '(C84 H114 Cu12 N12 O87)n'
_symmetry_cell_setting           cubic
_symmetry_space_group_name_H-M   'F 2 3'
_symmetry_Int_Tables_number      196
_space_group_name_Hall           'F 2 2 3'
loop_
_symmetry_equiv_pos_site_id
_symmetry_equiv_pos_as_xyz
1 x,y,z
2 -x,-y,z
3 x,-y,-z
4 -x,y,-z
5 z,x,y
6 y,z,x
7 -z,-x,y
8 -y,z,-x
9 z,-x,-y
10 -y,-z,x
11 -z,x,-y
12 y,-z,-x
13 x,1/2+y,1/2+z
14 -x,1/2-y,1/2+z
15 x,1/2-y,1/2-z
16 -x,1/2+y,1/2-z
17 z,1/2+x,1/2+y
18 y,1/2+z,1/2+x
19 -z,1/2-x,1/2+y
20 -y,1/2+z,1/2-x
21 z,1/2-x,1/2-y
22 -y,1/2-z,1/2+x
23 -z,1/2+x,1/2-y
24 y,1/2-z,1/2-x
25 1/2+x,y,1/2+z
26 1/2-x,-y,1/2+z
27 1/2+x,-y,1/2-z
28 1/2-x,y,1/2-z
29 1/2+z,x,1/2+y
30 1/2+y,z,1/2+x
31 1/2-z,-x,1/2+y
32 1/2-y,z,1/2-x
33 1/2+z,-x,1/2-y
34 1/2-y,-z,1/2+x
35 1/2-z,x,1/2-y
36 1/2+y,-z,1/2-x
37 1/2+x,1/2+y,z
38 1/2-x,1/2-y,z
39 1/2+x,1/2-y,-z
40 1/2-x,1/2+y,-z
41 1/2+z,1/2+x,y
42 1/2+y,1/2+z,x
43 1/2-z,1/2-x,y
44 1/2-y,1/2+z,-x
45 1/2+z,1/2-x,-y
46 1/2-y,1/2-z,x
47 1/2-z,1/2+x,-y
48 1/2+y,1/2-z,-x
_cell_length_a                   34.182(3)
_cell_length_b                   34.182(3)
_cell_length_c                   34.182(3)
_cell_angle_alpha                90
_cell_angle_beta                 90
_cell_angle_gamma                90
_cell_volume                     39938.6
loop_
_atom_site_label
_atom_site_type_symbol
_atom_site_fract_x
_atom_site_fract_y
_atom_site_fract_z
_atom_site_U_iso_or_equiv
_atom_site_thermal_displace_type
Cu1 Cu 0.7500 0.2500 0.04572(4) 0.0271 Uani
Cu2 Cu 0.71089(6) 0.0000 0.0000 0.0247 Uani
Cu3 Cu 0.7500 0.2500 -0.03157(4) 0.0241 Uani
Cu4 Cu 0.78901(6) 0.0000 0.0000 0.0245 Uani
O1 O 0.8540(2) 0.1375(2) 0.0127(2) 0.0340 Uani
O2 O 0.8052(2) 0.2340(2) -0.0256(2) 0.0327 Uani
C1 C 0.5997(3) 0.1423(3) 0.0878(3) 0.0260 Uani
H1 H 0.5928 0.1638 0.0727 0.0400 Uiso
O3 O 0.7500 0.2500 0.1088(4) 0.0787 Uani
C2 C 0.8827(3) 0.2567(2) 0.0079(3) 0.0323 Uani
H2 H 0.8718 0.2721 -0.0132 0.0500 Uiso
H3 H 0.8770 0.2702 0.0323 0.0300 Uiso
O4 O 0.7500 0.2500 -0.0936(3) 0.0540 Uani
N1 N 0.6939(2) 0.1254(2) 0.0413(2) 0.0273 Uani
O5 O 0.7864(2) 0.0555(2) 0.0088(2) 0.0323 Uani
C3 C 0.6326(3) 0.1201(3) 0.0776(3) 0.0243 Uani
C4 C 0.8797(3) 0.1322(3) 0.0770(3) 0.0243 Uani
O6 O 0.7337(2) 0.1954(2) -0.0255(2) 0.0343 Uani
C5 C 0.8683(2) 0.1548(2) 0.0414(3) 0.0243 Uani
N2 N 0.8746(2) 0.1934(2) 0.0415(2) 0.0280 Uani
H4 H 0.8856 0.2043 0.0613 0.3000 Uiso
C6 C 0.8630(3) 0.2168(2) 0.0085(3) 0.0260 Uani
H5 H 0.8703 0.2028 -0.0154 0.0080 Uiso
C7 C 0.7562(2) 0.1173(3) 0.0074(3) 0.0297 Uani
C8 C 0.9127(3) 0.1425(3) 0.1001(3) 0.0260 Uani
H6 H 0.9275 0.1644 0.0934 0.0300 Uiso
C9 C 0.8189(3) 0.2246(3) 0.0071(3) 0.0300 Uani
O7 O 0.6378(2) 0.1457(2) 0.0126(2) 0.0330 Uani
O8 O 0.8488(4) 0.0000 0.0000 0.0837 Uani
C10 C 0.7246(3) 0.1817(3) 0.0070(3) 0.0297 Uani
O9 O 0.6508(4) 0.0000 0.0000 0.1010 Uani
C11 C 0.7546(3) 0.0737(3) 0.0030(3) 0.0300 Uani
C12 C 0.6549(2) 0.1315(2) 0.0415(3) 0.0250 Uani
O10 O 0.7237(2) 0.19925(19) 0.0390(2) 0.0330 Uani
C13 C 0.9265(3) 0.2545(3) 0.0028(3) 0.0307 Uani
O11 O 0.9441(2) 0.2863(2) 0.0089(2) 0.0343 Uani
O12 O 0.80070(19) 0.2239(2) 0.0393(2) 0.0347 Uani
O13 O 0.7228(2) 0.0578(2) -0.0074(2) 0.0327 Uani
C14 C 0.7164(2) 0.1368(2) 0.0077(3) 0.0270 Uani
O14 O 0.9419(2) 0.2225(2) -0.0074(2) 0.0360 Uani
H7 H 0.7046 0.1160 0.0623 0.0500 Uiso
H8 H 0.7700 0.1224 0.0331 0.0300 Uiso
H9 H 0.7730 0.1282 -0.0123 0.0200 Uiso
H10 H 0.7023 0.1302 -0.0155 0.0100 Uiso
O1F O 0.9873(2) 0.1460(2) 0.1375(2) 0.0340 Uani
O2F O 1.0256(2) 0.1948(2) 0.2340(2) 0.0327 Uani
C2F C 0.9921(3) 0.1173(3) 0.2567(2) 0.0323 Uani
H2F H 1.0132 0.1282 0.2721 0.0500 Uiso
H3F H 0.9677 0.1230 0.2702 0.0300 Uiso
C4F C 0.9230(3) 0.1203(3) 0.1322(3) 0.0243 Uani
C5F C 0.9586(3) 0.1317(2) 0.1548(2) 0.0243 Uani
N2F N 0.9585(2) 0.1254(2) 0.1934(2) 0.0280 Uani
H4F H 0.9387 0.1144 0.2043 0.3000 Uiso
C6F C 0.9915(3) 0.1370(3) 0.2168(2) 0.0260 Uani
H5F H 1.0154 0.1297 0.2028 0.0080 Uiso
C8F C 0.8999(3) 0.0873(3) 0.1425(3) 0.0260 Uani
H6F H 0.9066 0.0725 0.1644 0.0300 Uiso
C9F C 0.9929(3) 0.1811(3) 0.2246(3) 0.0300 Uani
C13F C 0.9972(3) 0.0735(3) 0.2545(3) 0.0307 Uani
O11F O 0.9911(2) 0.0559(2) 0.2863(2) 0.0343 Uani
O12F O 0.9607(2) 0.19930(19) 0.2239(2) 0.0347 Uani
O14F O 1.0074(2) 0.0581(2) 0.2225(2) 0.0360 Uani
O1G O 0.8625(2) 0.0127(2) 0.1460(2) 0.0340 Uani
O2G O 0.7660(2) -0.0256(2) 0.1948(2) 0.0327 Uani
C2G C 0.7433(2) 0.0079(3) 0.1173(3) 0.0323 Uani
H2G H 0.7279 -0.0132 0.1282 0.0500 Uiso
H3G H 0.7298 0.0323 0.1230 0.0300 Uiso
C4G C 0.8678(3) 0.0770(3) 0.1203(3) 0.0243 Uani
C5G C 0.8452(2) 0.0414(3) 0.1317(2) 0.0243 Uani
N2G N 0.8066(2) 0.0415(2) 0.1254(2) 0.0280 Uani
H4G H 0.7957 0.0613 0.1144 0.3000 Uiso
C6G C 0.7832(2) 0.0085(3) 0.1370(3) 0.0260 Uani
H5G H 0.7972 -0.0154 0.1297 0.0080 Uiso
C8G C 0.8575(3) 0.1001(3) 0.0873(3) 0.0260 Uani
H6G H 0.8356 0.0934 0.0725 0.0300 Uiso
C9G C 0.7754(3) 0.0071(3) 0.1811(3) 0.0300 Uani
C13G C 0.7455(3) 0.0028(3) 0.0735(3) 0.0307 Uani
O11G O 0.7137(2) 0.0089(2) 0.0559(2) 0.0343 Uani
O12G O 0.7761(2) 0.0393(2) 0.19930(19) 0.0347 Uani
O14G O 0.7775(2) -0.0074(2) 0.0581(2) 0.0360 Uani
C1CA C 0.6423(3) 0.0878(3) 0.0997(3) 0.0260 Uani
H1CA H 0.6638 0.0727 0.0928 0.0400 Uiso
N1CA N 0.6254(2) 0.0413(2) 0.1939(2) 0.0273 Uani
O5CA O 0.5555(2) 0.0088(2) 0.2864(2) 0.0323 Uani
C3CA C 0.6201(3) 0.0776(3) 0.1326(3) 0.0243 Uani
O6CA O 0.6954(2) -0.0255(2) 0.2337(2) 0.0343 Uani
C7CA C 0.6173(3) 0.0074(3) 0.2562(2) 0.0297 Uani
O7CA O 0.6457(2) 0.0126(2) 0.1378(2) 0.0330 Uani
C10CA C 0.6817(3) 0.0070(3) 0.2246(3) 0.0297 Uani
C11CA C 0.5737(3) 0.0030(3) 0.2546(3) 0.0300 Uani
C12CA C 0.6315(2) 0.0415(3) 0.1549(2) 0.0250 Uani
O10CA O 0.69925(19) 0.0390(2) 0.2237(2) 0.0330 Uani
O13CA O 0.5578(2) -0.0074(2) 0.2228(2) 0.0327 Uani
C14CA C 0.6368(2) 0.0077(3) 0.2164(2) 0.0270 Uani
H7CA H 0.6160 0.0623 0.2046 0.0500 Uiso
H8CA H 0.6224 0.0331 0.2700 0.0300 Uiso
H9CA H 0.6282 -0.0123 0.2730 0.0200 Uiso
H10CA H 0.6302 -0.0155 0.2023 0.0100 Uiso
C1NA C 0.5878(3) 0.0997(3) 0.1423(3) 0.0260 Uani
H1NA H 0.5727 0.0928 0.1638 0.0400 Uiso
N1NA N 0.5413(2) 0.1939(2) 0.1254(2) 0.0273 Uani
O5NA O 0.5088(2) 0.2864(2) 0.0555(2) 0.0323 Uani
C3NA C 0.5776(3) 0.1326(3) 0.1201(3) 0.0243 Uani
O6NA O 0.4745(2) 0.2337(2) 0.1954(2) 0.0343 Uani
C7NA C 0.5074(3) 0.2562(2) 0.1173(3) 0.0297 Uani
O7NA O 0.5126(2) 0.1378(2) 0.1457(2) 0.0330 Uani
C10NA C 0.5070(3) 0.2246(3) 0.1817(3) 0.0297 Uani
C11NA C 0.5030(3) 0.2546(3) 0.0737(3) 0.0300 Uani
C12NA C 0.5415(3) 0.1549(2) 0.1315(2) 0.0250 Uani
O10NA O 0.5390(2) 0.2237(2) 0.19925(19) 0.0330 Uani
O13NA O 0.4926(2) 0.2228(2) 0.0578(2) 0.0327 Uani
C14NA C 0.5077(3) 0.2164(2) 0.1368(2) 0.0270 Uani
H7NA H 0.5623 0.2046 0.1160 0.0500 Uiso
H8NA H 0.5331 0.2700 0.1224 0.0300 Uiso
H9NA H 0.4877 0.2730 0.1282 0.0200 Uiso
H10NA H 0.4845 0.2023 0.1302 0.0100 Uiso
O1B O 0.8540(2) -0.1375(2) -0.0127(2) 0.0340 Uani
O2B O 0.8052(2) -0.2340(2) 0.0256(2) 0.0327 Uani
C1B C 0.5997(3) -0.1423(3) -0.0878(3) 0.0260 Uani
H1B H 0.5928 -0.1638 -0.0727 0.0400 Uiso
C2B C 0.8827(3) -0.2567(2) -0.0079(3) 0.0323 Uani
H2B H 0.8718 -0.2721 0.0132 0.0500 Uiso
H3B H 0.8770 -0.2702 -0.0323 0.0300 Uiso
N1B N 0.6939(2) -0.1254(2) -0.0413(2) 0.0273 Uani
O5B O 0.7864(2) -0.0555(2) -0.0088(2) 0.0323 Uani
C3B C 0.6326(3) -0.1201(3) -0.0776(3) 0.0243 Uani
C4B C 0.8797(3) -0.1322(3) -0.0770(3) 0.0243 Uani
O6B O 0.7337(2) -0.1954(2) 0.0255(2) 0.0343 Uani
C5B C 0.8683(2) -0.1548(2) -0.0414(3) 0.0243 Uani
N2B N 0.8746(2) -0.1934(2) -0.0415(2) 0.0280 Uani
H4B H 0.8856 -0.2043 -0.0613 0.3000 Uiso
C6B C 0.8630(3) -0.2168(2) -0.0085(3) 0.0260 Uani
H5B H 0.8703 -0.2028 0.0154 0.0080 Uiso
C7B C 0.7562(2) -0.1173(3) -0.0074(3) 0.0297 Uani
C8B C 0.9127(3) -0.1425(3) -0.1001(3) 0.0260 Uani
H6B H 0.9275 -0.1644 -0.0934 0.0300 Uiso
C9B C 0.8189(3) -0.2246(3) -0.0071(3) 0.0300 Uani
O7B O 0.6378(2) -0.1457(2) -0.0126(2) 0.0330 Uani
C10B C 0.7246(3) -0.1817(3) -0.0070(3) 0.0297 Uani
C11B C 0.7546(3) -0.0737(3) -0.0030(3) 0.0300 Uani
C12B C 0.6549(2) -0.1315(2) -0.0415(3) 0.0250 Uani
O10B O 0.7237(2) -0.19925(19) -0.0390(2) 0.0330 Uani
C13B C 0.9265(3) -0.2545(3) -0.0028(3) 0.0307 Uani
O11B O 0.9441(2) -0.2863(2) -0.0089(2) 0.0343 Uani
O12B O 0.80070(19) -0.2239(2) -0.0393(2) 0.0347 Uani
O13B O 0.7228(2) -0.0578(2) 0.0074(2) 0.0327 Uani
C14B C 0.7164(2) -0.1368(2) -0.0077(3) 0.0270 Uani
O14B O 0.9419(2) -0.2225(2) 0.0074(2) 0.0360 Uani
H7B H 0.7046 -0.1160 -0.0623 0.0500 Uiso
H8B H 0.7700 -0.1224 -0.0331 0.0300 Uiso
H9B H 0.7730 -0.1282 0.0123 0.0200 Uiso
H10B H 0.7023 -0.1302 0.0155 0.0100 Uiso
O1J O 0.9873(2) -0.1460(2) -0.1375(2) 0.0340 Uani
O2J O 1.0256(2) -0.1948(2) -0.2340(2) 0.0327 Uani
C2J C 0.9921(3) -0.1173(3) -0.2567(2) 0.0323 Uani
H2J H 1.0132 -0.1282 -0.2721 0.0500 Uiso
H3J H 0.9677 -0.1230 -0.2702 0.0300 Uiso
C4J C 0.9230(3) -0.1203(3) -0.1322(3) 0.0243 Uani
C5J C 0.9586(3) -0.1317(2) -0.1548(2) 0.0243 Uani
N2J N 0.9585(2) -0.1254(2) -0.1934(2) 0.0280 Uani
H4J H 0.9387 -0.1144 -0.2043 0.3000 Uiso
C6J C 0.9915(3) -0.1370(3) -0.2168(2) 0.0260 Uani
H5J H 1.0154 -0.1297 -0.2028 0.0080 Uiso
C8J C 0.8999(3) -0.0873(3) -0.1425(3) 0.0260 Uani
H6J H 0.9066 -0.0725 -0.1644 0.0300 Uiso
C9J C 0.9929(3) -0.1811(3) -0.2246(3) 0.0300 Uani
C13J C 0.9972(3) -0.0735(3) -0.2545(3) 0.0307 Uani
O11J O 0.9911(2) -0.0559(2) -0.2863(2) 0.0343 Uani
O12J O 0.9607(2) -0.19930(19) -0.2239(2) 0.0347 Uani
O14J O 1.0074(2) -0.0581(2) -0.2225(2) 0.0360 Uani
O1I O 0.8625(2) -0.0127(2) -0.1460(2) 0.0340 Uani
O2I O 0.7660(2) 0.0256(2) -0.1948(2) 0.0327 Uani
C2I C 0.7433(2) -0.0079(3) -0.1173(3) 0.0323 Uani
H2I H 0.7279 0.0132 -0.1282 0.0500 Uiso
H3I H 0.7298 -0.0323 -0.1230 0.0300 Uiso
C4I C 0.8678(3) -0.0770(3) -0.1203(3) 0.0243 Uani
C5I C 0.8452(2) -0.0414(3) -0.1317(2) 0.0243 Uani
N2I N 0.8066(2) -0.0415(2) -0.1254(2) 0.0280 Uani
H4I H 0.7957 -0.0613 -0.1144 0.3000 Uiso
C6I C 0.7832(2) -0.0085(3) -0.1370(3) 0.0260 Uani
H5I H 0.7972 0.0154 -0.1297 0.0080 Uiso
C8I C 0.8575(3) -0.1001(3) -0.0873(3) 0.0260 Uani
H6I H 0.8356 -0.0934 -0.0725 0.0300 Uiso
C9I C 0.7754(3) -0.0071(3) -0.1811(3) 0.0300 Uani
C13I C 0.7455(3) -0.0028(3) -0.0735(3) 0.0307 Uani
O11I O 0.7137(2) -0.0089(2) -0.0559(2) 0.0343 Uani
O12I O 0.7761(2) -0.0393(2) -0.19930(19) 0.0347 Uani
O14I O 0.7775(2) 0.0074(2) -0.0581(2) 0.0360 Uani
C1IA C 0.6423(3) -0.0878(3) -0.0997(3) 0.0260 Uani
H1IA H 0.6638 -0.0727 -0.0928 0.0400 Uiso
N1IA N 0.6254(2) -0.0413(2) -0.1939(2) 0.0273 Uani
O5IA O 0.5555(2) -0.0088(2) -0.2864(2) 0.0323 Uani
C3IA C 0.6201(3) -0.0776(3) -0.1326(3) 0.0243 Uani
O6IA O 0.6954(2) 0.0255(2) -0.2337(2) 0.0343 Uani
C7IA C 0.6173(3) -0.0074(3) -0.2562(2) 0.0297 Uani
O7IA O 0.6457(2) -0.0126(2) -0.1378(2) 0.0330 Uani
C10IA C 0.6817(3) -0.0070(3) -0.2246(3) 0.0297 Uani
C11IA C 0.5737(3) -0.0030(3) -0.2546(3) 0.0300 Uani
C12IA C 0.6315(2) -0.0415(3) -0.1549(2) 0.0250 Uani
O10IA O 0.69925(19) -0.0390(2) -0.2237(2) 0.0330 Uani
O13IA O 0.5578(2) 0.0074(2) -0.2228(2) 0.0327 Uani
C14IA C 0.6368(2) -0.0077(3) -0.2164(2) 0.0270 Uani
H7IA H 0.6160 -0.0623 -0.2046 0.0500 Uiso
H8IA H 0.6224 -0.0331 -0.2700 0.0300 Uiso
H9IA H 0.6282 0.0123 -0.2730 0.0200 Uiso
H10IA H 0.6302 0.0155 -0.2023 0.0100 Uiso
C1RA C 0.5878(3) -0.0997(3) -0.1423(3) 0.0260 Uani
H1RA H 0.5727 -0.0928 -0.1638 0.0400 Uiso
N1RA N 0.5413(2) -0.1939(2) -0.1254(2) 0.0273 Uani
O5RA O 0.5088(2) -0.2864(2) -0.0555(2) 0.0323 Uani
C3RA C 0.5776(3) -0.1326(3) -0.1201(3) 0.0243 Uani
O6RA O 0.4745(2) -0.2337(2) -0.1954(2) 0.0343 Uani
C7RA C 0.5074(3) -0.2562(2) -0.1173(3) 0.0297 Uani
O7RA O 0.5126(2) -0.1378(2) -0.1457(2) 0.0330 Uani
C10RA C 0.5070(3) -0.2246(3) -0.1817(3) 0.0297 Uani
C11RA C 0.5030(3) -0.2546(3) -0.0737(3) 0.0300 Uani
C12RA C 0.5415(3) -0.1549(2) -0.1315(2) 0.0250 Uani
O10RA O 0.5390(2) -0.2237(2) -0.19925(19) 0.0330 Uani
O13RA O 0.4926(2) -0.2228(2) -0.0578(2) 0.0327 Uani
C14RA C 0.5077(3) -0.2164(2) -0.1368(2) 0.0270 Uani
H7RA H 0.5623 -0.2046 -0.1160 0.0500 Uiso
H8RA H 0.5331 -0.2700 -0.1224 0.0300 Uiso
H9RA H 0.4877 -0.2730 -0.1282 0.0200 Uiso
H10RA H 0.4845 -0.2023 -0.1302 0.0100 Uiso
Cu2D Cu 1.0000 -0.28911(6) 0.0000 0.0247 Uani
Cu4D Cu 1.0000 -0.21099(6) 0.0000 0.0245 Uani
O8D O 1.0000 -0.1512(4) 0.0000 0.0837 Uani
O9D O 1.0000 -0.3492(4) 0.0000 0.1010 Uani
Cu2E Cu 1.0000 0.0000 -0.28911(6) 0.0247 Uani
Cu4E Cu 1.0000 -0.0000 -0.21099(6) 0.0245 Uani
O8E O 1.0000 0.0000 -0.1512(4) 0.0837 Uani
O9E O 1.0000 -0.0000 -0.3492(4) 0.1010 Uani
Cu1F Cu 0.95428(4) 0.2500 0.2500 0.0271 Uani
Cu3F Cu 1.03157(4) 0.2500 0.2500 0.0241 Uani
O3F O 0.8912(4) 0.2500 0.2500 0.0787 Uani
O4F O 1.0936(3) 0.2500 0.2500 0.0540 Uani
Cu1G Cu 0.7500 0.04572(4) 0.2500 0.0271 Uani
Cu3G Cu 0.7500 -0.03157(4) 0.2500 0.0241 Uani
O3G O 0.7500 0.1088(4) 0.2500 0.0787 Uani
O4G O 0.7500 -0.0936(3) 0.2500 0.0540 Uani
Cu1B Cu 0.7500 -0.2500 -0.04572(4) 0.0271 Uani
Cu1I Cu 0.7500 -0.04572(4) -0.2500 0.0271 Uani
Cu1J Cu 0.95428(4) -0.2500 -0.2500 0.0271 Uani
Cu1BA Cu 0.54572(4) -0.2500 -0.2500 0.0271 Uani
Cu1FA Cu 0.54572(4) 0.2500 0.2500 0.0271 Uani
Cu2F Cu 1.0000 0.28911(6) 0.0000 0.0247 Uani
Cu2G Cu 1.0000 0.0000 0.28911(6) 0.0247 Uani
Cu2CA Cu 0.5000 0.0000 0.21089(6) 0.0247 Uani
Cu2EA Cu 0.5000 -0.0000 -0.21089(6) 0.0247 Uani
Cu2NA Cu 0.5000 0.21089(6) 0.0000 0.0247 Uani
Cu2PA Cu 0.5000 -0.21089(6) 0.0000 0.0247 Uani
Cu3B Cu 0.7500 -0.2500 0.03157(4) 0.0241 Uani
Cu3I Cu 0.7500 0.03157(4) -0.2500 0.0241 Uani
Cu3J Cu 1.03157(4) -0.2500 -0.2500 0.0241 Uani
Cu3BA Cu 0.46843(4) -0.2500 -0.2500 0.0241 Uani
Cu3FA Cu 0.46843(4) 0.2500 0.2500 0.0241 Uani
Cu4F Cu 1.0000 0.21099(6) 0.0000 0.0245 Uani
Cu4G Cu 1.0000 0.0000 0.21099(6) 0.0245 Uani
Cu4CA Cu 0.5000 0.0000 0.28901(6) 0.0245 Uani
Cu4EA Cu 0.5000 -0.0000 -0.28901(6) 0.0245 Uani
Cu4NA Cu 0.5000 0.28901(6) 0.0000 0.0245 Uani
Cu4PA Cu 0.5000 -0.28901(6) 0.0000 0.0245 Uani
O2V O 1.0256(2) 0.3052(2) 0.2660(2) 0.0327 Uani
O2CA O 0.7340(2) -0.0256(2) 0.3052(2) 0.0327 Uani
O2KA O 0.6948(2) 0.2660(2) -0.0256(2) 0.0327 Uani
O5D O 1.0088(2) -0.2136(2) 0.0555(2) 0.0323 Uani
O5E O 1.0555(2) 0.0088(2) -0.2136(2) 0.0323 Uani
O5I O 0.9445(2) -0.0088(2) -0.2136(2) 0.0323 Uani
O5J O 0.9912(2) -0.2136(2) -0.0555(2) 0.0323 Uani
O6F O 1.0255(2) 0.2663(2) 0.1954(2) 0.0343 Uani
O6G O 0.8046(2) -0.0255(2) 0.2663(2) 0.0343 Uani
O6V O 1.0255(2) 0.2337(2) 0.3046(2) 0.0343 Uani
O6KA O 0.7663(2) 0.3046(2) -0.0255(2) 0.0343 Uani
O10F O 0.9610(2) 0.2763(2) 0.19925(19) 0.0330 Uani
O10G O 0.80075(19) 0.0390(2) 0.2763(2) 0.0330 Uani
O10V O 0.9610(2) 0.2237(2) 0.30075(19) 0.0330 Uani
O10KA O 0.7763(2) 0.30075(19) 0.0390(2) 0.0330 Uani
O11A O 1.0559(2) -0.2863(2) 0.0089(2) 0.0343 Uani
O11H O 1.0089(2) 0.0559(2) -0.2863(2) 0.0343 Uani
O12V O 0.9607(2) 0.30070(19) 0.2761(2) 0.0347 Uani
O12CA O 0.7239(2) 0.0393(2) 0.30070(19) 0.0347 Uani
O12KA O 0.69930(19) 0.2761(2) 0.0393(2) 0.0347 Uani
O13D O 0.9926(2) -0.2772(2) 0.0578(2) 0.0327 Uani
O13E O 1.0578(2) -0.0074(2) -0.2772(2) 0.0327 Uani
O13I O 0.9422(2) 0.0074(2) -0.2772(2) 0.0327 Uani
O13J O 1.0074(2) -0.2772(2) -0.0578(2) 0.0327 Uani
O14A O 1.0581(2) -0.2225(2) -0.0074(2) 0.0360 Uani
O14H O 0.9926(2) 0.0581(2) -0.2225(2) 0.0360 Uani
O15 O 0.9528(2) 0.0472(2) 0.0472(2) 0.0370 Uani
O16 O 0.5000 1.0000 1.0000 0.0360 Uani
O17 O 1.0000 0.0000 0.0000 0.0350 Uani
O18 O 0.7501(4) 0.1083(3) 0.1076(3) 0.0690 Uani
O19 O 0.5744(3) 0.0744(3) -0.0744(3) 0.0600 Uani
O20 O 0.9262(4) 0.0738(4) -0.0738(4) 0.0640 Uani
O21 O 0.8925(2) 0.0664(2) -0.0018(2) 0.0423 Uani
O22 O 0.5665(2) 0.1074(2) -0.0020(2) 0.0407 Uani
O23 O 0.5474(2) 0.0474(2) 0.0474(2) 0.0360 Uani
O24 O 0.8811(6) 0.1189(6) -0.1189(6) 0.1110 Uani
O25 O 0.6180(7) 0.1180(7) -0.1180(7) 0.3000 Uani
O26 O 0.6456(7) 0.1658(5) -0.0654(6) 0.1467 Uani
O27 O 0.8350(6) 0.1444(4) -0.0651(4) 0.1150 Uani
O28 O 0.8150(7) 0.1850(7) -0.1850(7) 0.2100 Uani
O29 O 0.7143(8) 0.1773(10) -0.1105(8) 0.2133 Uani
loop_
_atom_site_aniso_label
_atom_site_aniso_U_11
_atom_site_aniso_U_22
_atom_site_aniso_U_33
_atom_site_aniso_U_23
_atom_site_aniso_U_13
_atom_site_aniso_U_12
Cu1 0.0241(7) 0.0241(7) 0.0331(7) 0.000 0.000 0.0003(8)
Cu2 0.0246(8) 0.0283(8) 0.0213(8) -0.0052(7) 0.000 0.000
Cu3 0.0216(7) 0.0211(7) 0.0297(7) 0.000 0.000 -0.0001(8)
Cu4 0.0253(8) 0.0205(8) 0.0277(8) -0.0050(7) 0.000 0.000
O1 0.042(4) 0.029(3) 0.031(4) 0.005(3) -0.007(3) -0.005(3)
O2 0.027(3) 0.038(4) 0.033(3) 0.007(3) -0.003(3) 0.003(3)
C1 0.029(5) 0.021(4) 0.028(5) 0.004(3) 0.000(4) -0.004(3)
O3 0.088(10) 0.100(11) 0.048(7) 0.000 0.000 -0.006(13)
C2 0.029(4) 0.019(5) 0.049(5) 0.014(4) 0.007(4) 0.001(3)
O4 0.068(7) 0.059(7) 0.035(5) 0.000 0.000 -0.004(8)
N1 0.025(4) 0.023(4) 0.034(4) 0.005(3) 0.004(3) -0.001(3)
O5 0.025(3) 0.028(3) 0.044(4) -0.005(3) 0.000(3) 0.004(3)
C3 0.022(4) 0.022(4) 0.029(4) 0.006(3) -0.004(3) -0.001(3)
C4 0.017(4) 0.027(4) 0.029(4) 0.004(4) 0.000(3) 0.006(3)
O6 0.037(4) 0.029(3) 0.037(4) 0.004(3) 0.005(3) -0.004(3)
C5 0.021(4) 0.019(4) 0.033(5) 0.008(3) 0.000(3) -0.002(3)
N2 0.027(4) 0.022(4) 0.035(4) 0.002(3) 0.003(3) 0.003(3)
C6 0.023(4) 0.018(4) 0.037(5) 0.004(3) -0.003(4) -0.004(3)
C7 0.019(5) 0.027(4) 0.043(5) -0.005(4) 0.013(4) 0.002(3)
C8 0.028(5) 0.020(4) 0.030(5) 0.001(3) -0.006(4) -0.003(3)
C9 0.030(5) 0.020(4) 0.040(5) 0.004(4) 0.002(4) -0.002(3)
O7 0.029(3) 0.043(4) 0.027(3) 0.009(3) 0.004(3) 0.008(3)
O8 0.021(6) 0.030(6) 0.20(2) -0.015(9) 0.000 0.000
C10 0.024(4) 0.023(4) 0.042(5) -0.005(4) 0.006(4) -0.002(3)
O9 0.026(6) 0.25(3) 0.027(6) -0.029(10) 0.000 0.000
C11 0.028(5) 0.026(4) 0.036(4) 0.002(3) 0.002(4) 0.003(4)
C12 0.020(4) 0.016(4) 0.039(5) -0.006(3) 0.007(4) -0.001(3)
O10 0.038(4) 0.023(3) 0.038(4) -0.004(3) 0.007(3) -0.003(3)
C13 0.023(4) 0.034(5) 0.035(4) 0.001(4) 0.004(3) -0.007(4)
O11 0.033(4) 0.029(3) 0.041(4) 0.000(3) 0.006(3) -0.002(3)
O12 0.024(3) 0.043(4) 0.037(4) 0.009(3) 0.000(3) 0.006(3)
O13 0.031(3) 0.025(3) 0.042(4) -0.002(3) 0.001(3) -0.002(3)
C14 0.018(4) 0.015(4) 0.048(5) -0.002(4) 0.005(4) 0.004(3)
O14 0.028(3) 0.033(4) 0.047(4) 0.002(3) 0.004(3) -0.003(3)
O1F 0.031 0.042 0.029 0.005 -0.005 -0.007
O2F 0.033 0.027 0.038 -0.003 -0.007 -0.003
C2F 0.049 0.029 0.019 -0.001 -0.014 0.007
C4F 0.029 0.017 0.027 -0.006 -0.004 0
C5F 0.033 0.021 0.019 0.002 -0.008 0
N2F 0.035 0.027 0.022 -0.003 -0.002 0.003
C6F 0.037 0.023 0.018 0.004 -0.004 -0.003
C8F 0.03 0.028 0.02 0.003 -0.001 -0.006
C9F 0.04 0.03 0.02 0.002 -0.004 0.002
C13F 0.035 0.023 0.034 0.007 -0.001 0.004
O11F 0.041 0.033 0.029 0.002 0 0.006
O12F 0.037 0.024 0.043 -0.006 -0.009 0
O14F 0.047 0.028 0.033 0.003 -0.002 0.004
O1G 0.029 0.031 0.042 0.007 -0.005 -0.005
O2G 0.038 0.033 0.027 0.003 0.003 -0.007
C2G 0.019 0.049 0.029 -0.007 0.001 -0.014
C4G 0.027 0.029 0.017 0 0.006 -0.004
C5G 0.019 0.033 0.021 0 -0.002 -0.008
N2G 0.022 0.035 0.027 -0.003 0.003 -0.002
C6G 0.018 0.037 0.023 0.003 -0.004 -0.004
C8G 0.02 0.03 0.028 0.006 -0.003 -0.001
C9G 0.02 0.04 0.03 -0.002 -0.002 -0.004
C13G 0.034 0.035 0.023 -0.004 -0.007 -0.001
O11G 0.029 0.041 0.033 -0.006 -0.002 0
O12G 0.043 0.037 0.024 0 0.006 -0.009
O14G 0.033 0.047 0.028 -0.004 -0.003 -0.002
C1CA 0.021 0.028 0.029 0 -0.004 0.004
N1CA 0.023 0.034 0.025 0.004 -0.001 0.005
O5CA 0.028 0.044 0.025 0 0.004 -0.005
C3CA 0.022 0.029 0.022 -0.004 -0.001 0.006
O6CA 0.029 0.037 0.037 0.005 -0.004 0.004
C7CA 0.027 0.043 0.019 0.013 0.002 -0.005
O7CA 0.043 0.027 0.029 0.004 0.008 0.009
C10CA 0.023 0.042 0.024 0.006 -0.002 -0.005
C11CA 0.026 0.036 0.028 0.002 0.003 0.002
C12CA 0.016 0.039 0.02 0.007 -0.001 -0.006
O10CA 0.023 0.038 0.038 0.007 -0.003 -0.004
O13CA 0.025 0.042 0.031 0.001 -0.002 -0.002
C14CA 0.015 0.048 0.018 0.005 0.004 -0.002
C1NA 0.028 0.029 0.021 -0.004 0.004 0
N1NA 0.034 0.025 0.023 -0.001 0.005 0.004
O5NA 0.044 0.025 0.028 0.004 -0.005 0
C3NA 0.029 0.022 0.022 -0.001 0.006 -0.004
O6NA 0.037 0.037 0.029 -0.004 0.004 0.005
C7NA 0.043 0.019 0.027 0.002 -0.005 0.013
O7NA 0.027 0.029 0.043 0.008 0.009 0.004
C10NA 0.042 0.024 0.023 -0.002 -0.005 0.006
C11NA 0.036 0.028 0.026 0.003 0.002 0.002
C12NA 0.039 0.02 0.016 -0.001 -0.006 0.007
O10NA 0.038 0.038 0.023 -0.003 -0.004 0.007
O13NA 0.042 0.031 0.025 -0.002 -0.002 0.001
C14NA 0.048 0.018 0.015 0.004 -0.002 0.005
O1B 0.042 0.029 0.031 0.005 0.007 0.005
O2B 0.027 0.038 0.033 0.007 0.003 -0.003
C1B 0.029 0.021 0.028 0.004 0 0.004
C2B 0.029 0.019 0.049 0.014 -0.007 -0.001
N1B 0.025 0.023 0.034 0.005 -0.004 0.001
O5B 0.025 0.028 0.044 -0.005 0 -0.004
C3B 0.022 0.022 0.029 0.006 0.004 0.001
C4B 0.017 0.027 0.029 0.004 0 -0.006
O6B 0.037 0.029 0.037 0.004 -0.005 0.004
C5B 0.021 0.019 0.033 0.008 0 0.002
N2B 0.027 0.022 0.035 0.002 -0.003 -0.003
C6B 0.023 0.018 0.037 0.004 0.003 0.004
C7B 0.019 0.027 0.043 -0.005 -0.013 -0.002
C8B 0.028 0.02 0.03 0.001 0.006 0.003
C9B 0.03 0.02 0.04 0.004 -0.002 0.002
O7B 0.029 0.043 0.027 0.009 -0.004 -0.008
C10B 0.024 0.023 0.042 -0.005 -0.006 0.002
C11B 0.028 0.026 0.036 0.002 -0.002 -0.003
C12B 0.02 0.016 0.039 -0.006 -0.007 0.001
O10B 0.038 0.023 0.038 -0.004 -0.007 0.003
C13B 0.023 0.034 0.035 0.001 -0.004 0.007
O11B 0.033 0.029 0.041 0 -0.006 0.002
O12B 0.024 0.043 0.037 0.009 0 -0.006
O13B 0.031 0.025 0.042 -0.002 -0.001 0.002
C14B 0.018 0.015 0.048 -0.002 -0.005 -0.004
O14B 0.028 0.033 0.047 0.002 -0.004 0.003
O1J 0.031 0.042 0.029 0.005 0.005 0.007
O2J 0.033 0.027 0.038 -0.003 0.007 0.003
C2J 0.049 0.029 0.019 -0.001 0.014 -0.007
C4J 0.029 0.017 0.027 -0.006 0.004 0
C5J 0.033 0.021 0.019 0.002 0.008 0
N2J 0.035 0.027 0.022 -0.003 0.002 -0.003
C6J 0.037 0.023 0.018 0.004 0.004 0.003
C8J 0.03 0.028 0.02 0.003 0.001 0.006
C9J 0.04 0.03 0.02 0.002 0.004 -0.002
C13J 0.035 0.023 0.034 0.007 0.001 -0.004
O11J 0.041 0.033 0.029 0.002 0 -0.006
O12J 0.037 0.024 0.043 -0.006 0.009 0
O14J 0.047 0.028 0.033 0.003 0.002 -0.004
O1I 0.029 0.031 0.042 0.007 0.005 0.005
O2I 0.038 0.033 0.027 0.003 -0.003 0.007
C2I 0.019 0.049 0.029 -0.007 -0.001 0.014
C4I 0.027 0.029 0.017 0 -0.006 0.004
C5I 0.019 0.033 0.021 0 0.002 0.008
N2I 0.022 0.035 0.027 -0.003 -0.003 0.002
C6I 0.018 0.037 0.023 0.003 0.004 0.004
C8I 0.02 0.03 0.028 0.006 0.003 0.001
C9I 0.02 0.04 0.03 -0.002 0.002 0.004
C13I 0.034 0.035 0.023 -0.004 0.007 0.001
O11I 0.029 0.041 0.033 -0.006 0.002 0
O12I 0.043 0.037 0.024 0 -0.006 0.009
O14I 0.033 0.047 0.028 -0.004 0.003 0.002
C1IA 0.021 0.028 0.029 0 0.004 -0.004
N1IA 0.023 0.034 0.025 0.004 0.001 -0.005
O5IA 0.028 0.044 0.025 0 -0.004 0.005
C3IA 0.022 0.029 0.022 -0.004 0.001 -0.006
O6IA 0.029 0.037 0.037 0.005 0.004 -0.004
C7IA 0.027 0.043 0.019 0.013 -0.002 0.005
O7IA 0.043 0.027 0.029 0.004 -0.008 -0.009
C10IA 0.023 0.042 0.024 0.006 0.002 0.005
C11IA 0.026 0.036 0.028 0.002 -0.003 -0.002
C12IA 0.016 0.039 0.02 0.007 0.001 0.006
O10IA 0.023 0.038 0.038 0.007 0.003 0.004
O13IA 0.025 0.042 0.031 0.001 0.002 0.002
C14IA 0.015 0.048 0.018 0.005 -0.004 0.002
C1RA 0.028 0.029 0.021 -0.004 -0.004 0
N1RA 0.034 0.025 0.023 -0.001 -0.005 -0.004
O5RA 0.044 0.025 0.028 0.004 0.005 0
C3RA 0.029 0.022 0.022 -0.001 -0.006 0.004
O6RA 0.037 0.037 0.029 -0.004 -0.004 -0.005
C7RA 0.043 0.019 0.027 0.002 0.005 -0.013
O7RA 0.027 0.029 0.043 0.008 -0.009 -0.004
C10RA 0.042 0.024 0.023 -0.002 0.005 -0.006
C11RA 0.036 0.028 0.026 0.003 -0.002 -0.002
C12RA 0.039 0.02 0.016 -0.001 0.006 -0.007
O10RA 0.038 0.038 0.023 -0.003 0.004 -0.007
O13RA 0.042 0.031 0.025 -0.002 0.002 -0.001
C14RA 0.048 0.018 0.015 0.004 0.002 -0.005
Cu2D 0.0213 0.0246 0.0283 0 -0.0052 0
Cu4D 0.0277 0.0253 0.0205 0 -0.005 0
O8D 0.2 0.021 0.03 0 -0.015 0
O9D 0.027 0.026 0.25 0 -0.029 0
Cu2E 0.0283 0.0213 0.0246 0 0 -0.0052
Cu4E 0.0205 0.0277 0.0253 0 0 -0.005
O8E 0.03 0.2 0.021 0 0 -0.015
O9E 0.25 0.027 0.026 0 0 -0.029
Cu1F 0.0331 0.0241 0.0241 -0.0003 0 0
Cu3F 0.0297 0.0216 0.0211 0.0001 0 0
O3F 0.048 0.088 0.1 0.006 0 0
O4F 0.035 0.068 0.059 0.004 0 0
Cu1G 0.0241 0.0331 0.0241 0 0.0003 0
Cu3G 0.0211 0.0297 0.0216 0 -0.0001 0
O3G 0.1 0.048 0.088 0 -0.006 0
O4G 0.059 0.035 0.068 0 -0.004 0
Cu1B 0.0241 0.0241 0.0331 0 0 -0.0003
Cu1I 0.0241 0.0331 0.0241 0 -0.0003 0
Cu1J 0.0331 0.0241 0.0241 -0.0003 0 0
Cu1BA 0.0331 0.0241 0.0241 0.0003 0 0
Cu1FA 0.0331 0.0241 0.0241 0.0003 0 0
Cu2F 0.0213 0.0246 0.0283 0 0.0052 0
Cu2G 0.0283 0.0213 0.0246 0 0 0.0052
Cu2CA 0.0283 0.0213 0.0246 0 0 -0.0052
Cu2EA 0.0283 0.0213 0.0246 0 0 0.0052
Cu2NA 0.0213 0.0246 0.0283 0 -0.0052 0
Cu2PA 0.0213 0.0246 0.0283 0 0.0052 0
Cu3B 0.0216 0.0211 0.0297 0 0 0.0001
Cu3I 0.0211 0.0297 0.0216 0 0.0001 0
Cu3J 0.0297 0.0216 0.0211 0.0001 0 0
Cu3BA 0.0297 0.0216 0.0211 -0.0001 0 0
Cu3FA 0.0297 0.0216 0.0211 -0.0001 0 0
Cu4F 0.0277 0.0253 0.0205 0 0.005 0
Cu4G 0.0205 0.0277 0.0253 0 0 0.005
Cu4CA 0.0205 0.0277 0.0253 0 0 -0.005
Cu4EA 0.0205 0.0277 0.0253 0 0 0.005
Cu4NA 0.0277 0.0253 0.0205 0 -0.005 0
Cu4PA 0.0277 0.0253 0.0205 0 0.005 0
O2V 0.033 0.027 0.038 -0.003 0.007 0.003
O2CA 0.038 0.033 0.027 -0.003 0.003 0.007
O2KA 0.027 0.038 0.033 -0.007 0.003 0.003
O5D 0.044 0.025 0.028 0.004 -0.005 0
O5E 0.028 0.044 0.025 0 0.004 -0.005
O5I 0.028 0.044 0.025 0 -0.004 -0.005
O5J 0.044 0.025 0.028 -0.004 -0.005 0
O6F 0.037 0.037 0.029 0.004 -0.004 0.005
O6G 0.029 0.037 0.037 -0.005 -0.004 -0.004
O6V 0.037 0.037 0.029 0.004 0.004 -0.005
O6KA 0.037 0.029 0.037 -0.004 -0.005 -0.004
O10F 0.038 0.038 0.023 0.003 0.004 0.007
O10G 0.023 0.038 0.038 -0.007 -0.003 0.004
O10V 0.038 0.038 0.023 0.003 -0.004 -0.007
O10KA 0.038 0.023 0.038 0.004 -0.007 -0.003
O11A 0.033 0.029 0.041 0 -0.006 -0.002
O11H 0.041 0.033 0.029 -0.002 0 -0.006
O12V 0.037 0.024 0.043 -0.006 0.009 0
O12CA 0.043 0.037 0.024 0 0.006 0.009
O12KA 0.024 0.043 0.037 -0.009 0 0.006
O13D 0.042 0.031 0.025 -0.002 -0.002 0.001
O13E 0.025 0.042 0.031 0.001 -0.002 -0.002
O13I 0.025 0.042 0.031 -0.001 0.002 -0.002
O13J 0.042 0.031 0.025 0.002 -0.002 -0.001
O14A 0.028 0.033 0.047 -0.002 -0.004 -0.003
O14H 0.047 0.028 0.033 -0.003 -0.002 -0.004
O15 0.037(3) 0.037(3) 0.037(3) -0.005(3) 0.005(3) 0.005(3)
O16 0.036(5) 0.036(5) 0.036(5) 0.000 0.000 0.000
O17 0.035(5) 0.035(5) 0.035(5) 0.000 0.000 0.000
O18 0.056(5) 0.079(6) 0.072(6) 0.030(5) -0.004(6) 0.003(6)
O19 0.060(5) 0.060(5) 0.060(5) -0.008(5) -0.008(5) 0.008(5)
O20 0.064(5) 0.064(5) 0.064(5) -0.013(6) 0.013(6) -0.013(6)
O21 0.044(4) 0.036(4) 0.047(4) -0.009(3) -0.003(3) -0.003(3)
O22 0.029(4) 0.039(4) 0.054(5) -0.001(3) -0.007(3) 0.003(3)
O23 0.036(3) 0.036(3) 0.036(3) -0.004(3) -0.004(3) -0.004(3)
O24 0.111(8) 0.111(8) 0.111(8) -0.014(11) 0.014(11) -0.014(11)
O25 0.30(4) 0.30(4) 0.30(4) 0.12(3) 0.12(3) -0.12(3)
O26 0.19(2) 0.104(13) 0.146(16) 0.028(12) -0.079(15) 0.030(12)
O27 0.197(19) 0.083(9) 0.065(8) 0.012(7) -0.027(10) -0.026(10)
O28 0.21(2) 0.21(2) 0.21(2) 0.052(17) -0.052(17) 0.052(17)
O29 0.17(2) 0.27(3) 0.20(3) -0.15(3) -0.011(19) 0.00(2)
loop_
_geom_bond_atom_site_label_1
_geom_bond_atom_site_label_2
_geom_bond_site_symmetry_1
_geom_bond_site_symmetry_2
Cu1 O3 1_555 1_555
Cu2 O9 1_555 1_555
Cu3 O2 1_555 1_555
Cu4 O5 1_555 1_555
O1 C5 1_555 1_555
O2 C9 1_555 1_555
C1 H1 1_555 1_555
C2 H2 1_555 1_555
H3 C2 1_555 1_555
O4 Cu3 1_555 1_555
N1 C12 1_555 1_555
O5 C11 1_555 1_555
C3 C1 1_555 1_555
C4 C5 1_555 1_555
O6 Cu3 1_555 1_555
C5 N2 1_555 1_555
N2 H4 1_555 1_555
C6 C2 1_555 1_555
H5 C6 1_555 1_555
C7 C11 1_555 1_555
C8 C4 1_555 1_555
H6 C8 1_555 1_555
C9 C6 1_555 1_555
O7 C12 1_555 1_555
O8 Cu4 1_555 1_555
C10 O6 1_555 1_555
C11 O13 1_555 1_555
C12 C3 1_555 1_555
O10 Cu1 1_555 1_555
C13 C2 1_555 1_555
O11 C13 1_555 1_555
O12 Cu1 1_555 1_555
O13 Cu2 1_555 1_555
C14 N1 1_555 1_555
O14 C13 1_555 1_555
H7 N1 1_555 1_555
H8 C7 1_555 1_555
H9 C7 1_555 1_555
H10 C14 1_555 1_555
O1F C5F 1_555 1_555
O2F C9F 1_555 1_555
C2F H2F 1_555 1_555
H3F C2F 1_555 1_555
C4F C8 1_555 1_555
C5F C4F 1_555 1_555
N2F C5F 1_555 1_555
H4F N2F 1_555 1_555
C6F C2F 1_555 1_555
H5F C6F 1_555 1_555
C8F C4F 1_555 1_555
H6F C8F 1_555 1_555
C9F C6F 1_555 1_555
C13F C2F 1_555 1_555
O11F C13F 1_555 1_555
O12F C9F 1_555 1_555
O14F C13F 1_555 1_555
O1G C5G 1_555 1_555
O2G C9G 1_555 1_555
C2G H2G 1_555 1_555
H3G C2G 1_555 1_555
C4G C8F 1_555 1_555
C5G C4G 1_555 1_555
N2G C5G 1_555 1_555
H4G N2G 1_555 1_555
C6G C2G 1_555 1_555
H5G C6G 1_555 1_555
C8G C4 1_555 1_555
H6G C8G 1_555 1_555
C9G C6G 1_555 1_555
C13G C2G 1_555 1_555
O11G Cu2 1_555 1_555
O12G C9G 1_555 1_555
O14G Cu4 1_555 1_555
C1CA C3 1_555 1_555
H1CA C1CA 1_555 1_555
N1CA C12CA 1_555 1_555
O5CA C11CA 1_555 1_555
C3CA C1CA 1_555 1_555
O6CA C10CA 1_555 1_555
C7CA C11CA 1_555 1_555
O7CA C12CA 1_555 1_555
C10CA O10CA 1_555 1_555
C11CA O13CA 1_555 1_555
C12CA C3CA 1_555 1_555
O10CA Cu1G 1_555 1_555
O13CA Cu2CA 1_555 1_555
C14CA N1CA 1_555 1_555
H7CA N1CA 1_555 1_555
H8CA C7CA 1_555 1_555
H9CA C7CA 1_555 1_555
H10CA C14CA 1_555 1_555
C1NA C3CA 1_555 1_555
H1NA C1NA 1_555 1_555
N1NA C12NA 1_555 1_555
O5NA C11NA 1_555 1_555
C3NA C1 1_555 1_555
O6NA C10NA 1_555 1_555
C7NA C11NA 1_555 1_555
O7NA C12NA 1_555 1_555
C10NA O10NA 1_555 1_555
C11NA O13NA 1_555 1_555
C12NA C3NA 1_555 1_555
O10NA Cu1FA 1_555 1_555
O13NA Cu2NA 1_555 1_555
C14NA N1NA 1_555 1_555
H7NA N1NA 1_555 1_555
H8NA C7NA 1_555 1_555
H9NA C7NA 1_555 1_555
H10NA C14NA 1_555 1_555
O1B C5B 1_555 1_555
O2B C9B 1_555 1_555
C1B H1B 1_555 1_555
C2B H2B 1_555 1_555
H3B C2B 1_555 1_555
N1B C12B 1_555 1_555
O5B Cu4 1_555 1_555
C3B C1B 1_555 1_555
C4B C5B 1_555 1_555
O6B C10B 1_555 1_555
C5B N2B 1_555 1_555
N2B H4B 1_555 1_555
C6B C2B 1_555 1_555
H5B C6B 1_555 1_555
C7B C11B 1_555 1_555
C8B C4B 1_555 1_555
H6B C8B 1_555 1_555
C9B C6B 1_555 1_555
O7B C12B 1_555 1_555
C10B O10B 1_555 1_555
C11B O5B 1_555 1_555
C12B C3B 1_555 1_555
O10B Cu1B 1_555 1_555
C13B C2B 1_555 1_555
O11B C13B 1_555 1_555
O12B C9B 1_555 1_555
O13B Cu2 1_555 1_555
C14B N1B 1_555 1_555
O14B C13B 1_555 1_555
H7B N1B 1_555 1_555
H8B C7B 1_555 1_555
H9B C7B 1_555 1_555
H10B C14B 1_555 1_555
O1J C5J 1_555 1_555
O2J C9J 1_555 1_555
C2J H2J 1_555 1_555
H3J C2J 1_555 1_555
C4J C8B 1_555 1_555
C5J C4J 1_555 1_555
N2J C5J 1_555 1_555
H4J N2J 1_555 1_555
C6J C2J 1_555 1_555
H5J C6J 1_555 1_555
C8J C4J 1_555 1_555
H6J C8J 1_555 1_555
C9J C6J 1_555 1_555
C13J C2J 1_555 1_555
O11J C13J 1_555 1_555
O12J C9J 1_555 1_555
O14J C13J 1_555 1_555
O1I C5I 1_555 1_555
O2I C9I 1_555 1_555
C2I H2I 1_555 1_555
H3I C2I 1_555 1_555
C4I C8J 1_555 1_555
C5I C4I 1_555 1_555
N2I C5I 1_555 1_555
H4I N2I 1_555 1_555
C6I C2I 1_555 1_555
H5I C6I 1_555 1_555
C8I C4B 1_555 1_555
H6I C8I 1_555 1_555
C9I C6I 1_555 1_555
C13I C2I 1_555 1_555
O11I Cu2 1_555 1_555
O12I C9I 1_555 1_555
O14I Cu4 1_555 1_555
C1IA C3B 1_555 1_555
H1IA C1IA 1_555 1_555
N1IA C12IA 1_555 1_555
O5IA C11IA 1_555 1_555
C3IA C1IA 1_555 1_555
O6IA C10IA 1_555 1_555
C7IA C11IA 1_555 1_555
O7IA C12IA 1_555 1_555
C10IA O10IA 1_555 1_555
C11IA O13IA 1_555 1_555
C12IA C3IA 1_555 1_555
O10IA Cu1I 1_555 1_555
O13IA Cu2EA 1_555 1_555
C14IA N1IA 1_555 1_555
H7IA N1IA 1_555 1_555
H8IA C7IA 1_555 1_555
H9IA C7IA 1_555 1_555
H10IA C14IA 1_555 1_555
C1RA C3IA 1_555 1_555
H1RA C1RA 1_555 1_555
N1RA C12RA 1_555 1_555
O5RA C11RA 1_555 1_555
C3RA C1B 1_555 1_555
O6RA C10RA 1_555 1_555
C7RA C11RA 1_555 1_555
O7RA C12RA 1_555 1_555
C10RA O10RA 1_555 1_555
C11RA O13RA 1_555 1_555
C12RA C3RA 1_555 1_555
O10RA Cu1BA 1_555 1_555
O13RA Cu2PA 1_555 1_555
C14RA N1RA 1_555 1_555
H7RA N1RA 1_555 1_555
H8RA C7RA 1_555 1_555
H9RA C7RA 1_555 1_555
H10RA C14RA 1_555 1_555
Cu2D O11B 1_555 1_555
Cu4D O14B 1_555 1_555
O8D Cu4D 1_555 1_555
O9D Cu2D 1_555 1_555
Cu2E O11J 1_555 1_555
Cu4E O14J 1_555 1_555
O8E Cu4E 1_555 1_555
O9E Cu2E 1_555 1_555
Cu1F O12F 1_555 1_555
Cu3F O2F 1_555 1_555
O3F Cu1F 1_555 1_555
O4F Cu3F 1_555 1_555
Cu1G O12G 1_555 1_555
Cu3G O2G 1_555 1_555
O3G Cu1G 1_555 1_555
O4G Cu3G 1_555 1_555
Cu1B O12B 1_555 1_555
Cu1I O12I 1_555 1_555
Cu1J O12J 1_555 1_555
Cu2F O11 1_555 1_555
Cu2G O11F 1_555 1_555
Cu3B O2B 1_555 1_555
Cu3I O2I 1_555 1_555
Cu3J O2J 1_555 1_555
Cu3BA O6RA 1_555 1_555
Cu3FA O6NA 1_555 1_555
Cu4F O14 1_555 1_555
Cu4G O14F 1_555 1_555
Cu4CA O5CA 1_555 1_555
Cu4EA O5IA 1_555 1_555
Cu4NA O5NA 1_555 1_555
Cu4PA O5RA 1_555 1_555
O2V Cu3F 1_555 1_555
O2CA Cu3G 1_555 1_555
O2KA Cu3 1_555 1_555
O5D Cu4D 1_555 1_555
O5E Cu4E 1_555 1_555
O5I Cu4E 1_555 1_555
O5J Cu4D 1_555 1_555
O6F Cu3F 1_555 1_555
O6G Cu3G 1_555 1_555
O6V Cu3F 1_555 1_555
O6KA Cu3 1_555 1_555
O10F Cu1F 1_555 1_555
O10G Cu1G 1_555 1_555
O10V Cu1F 1_555 1_555
O10KA Cu1 1_555 1_555
O11A Cu2D 1_555 1_555
O11H Cu2E 1_555 1_555
O12V Cu1F 1_555 1_555
O12CA Cu1G 1_555 1_555
O12KA Cu1 1_555 1_555
O13D Cu2D 1_555 1_555
O13E Cu2E 1_555 1_555
O13I Cu2E 1_555 1_555
O13J Cu2D 1_555 1_555
O14A Cu4D 1_555 1_555
O14H Cu4E 1_555 1_555
N2 C6 1_555 1_555
C7 C14 1_555 1_555
C9 O12 1_555 1_555
C10 O10 1_555 1_555
C10 C14 1_555 1_555
N2F C6F 1_555 1_555
C4G C8G 1_555 1_555
N2G C6G 1_555 1_555
C13G O11G 1_555 1_555
C13G O14G 1_555 1_555
O6CA Cu3G 1_555 1_555
C7CA C14CA 1_555 1_555
C10CA C14CA 1_555 1_555
C1NA C3NA 1_555 1_555
C7NA C14NA 1_555 1_555
C10NA C14NA 1_555 1_555
O6B Cu3B 1_555 1_555
N2B C6B 1_555 1_555
C7B C14B 1_555 1_555
C10B C14B 1_555 1_555
C11B O13B 1_555 1_555
N2J C6J 1_555 1_555
C4I C8I 1_555 1_555
N2I C6I 1_555 1_555
C13I O11I 1_555 1_555
C13I O14I 1_555 1_555
O6IA Cu3I 1_555 1_555
C7IA C14IA 1_555 1_555
C10IA C14IA 1_555 1_555
C1RA C3RA 1_555 1_555
C7RA C14RA 1_555 1_555
C10RA C14RA 1_555 1_555

#END
