
#######################################################################
#
#                 Cambridge Crystallographic Data Centre
#                                CCDC 
#
#######################################################################
#
# If this CIF has been generated from an entry in the Cambridge 
# Structural Database, then it will include bibliographic, chemical, 
# crystal, experimental, refinement or atomic coordinate data resulting 
# from the CCDC's data processing and validation procedures.
#
#######################################################################

data_DOPJAV
_chemical_formula_moiety         '(C21 H39 Cu3 N3 O27)n'
_symmetry_cell_setting           orthorhombic
_symmetry_space_group_name_H-M   'P c n n'
_symmetry_Int_Tables_number      52
_space_group_name_Hall           '-P 2ab 2c'
loop_
_symmetry_equiv_pos_site_id
_symmetry_equiv_pos_as_xyz
1 x,y,z
2 1/2-x,1/2-y,z
3 x,-y,1/2-z
4 1/2-x,1/2+y,1/2-z
5 -x,-y,-z
6 1/2+x,1/2+y,-z
7 -x,y,1/2+z
8 1/2+x,1/2-y,1/2+z
_cell_length_a                   17.530(3)
_cell_length_b                   20.037(3)
_cell_length_c                   21.050(3)
_cell_angle_alpha                90
_cell_angle_beta                 90
_cell_angle_gamma                90
_cell_volume                     7393.78
loop_
_atom_site_label
_atom_site_type_symbol
_atom_site_fract_x
_atom_site_fract_y
_atom_site_fract_z
_atom_site_U_iso_or_equiv
_atom_site_thermal_displace_type
Cu1 Cu 0.13370(3) 0.58833(3) 0.04910(2) 0.0251 Uani
Cu2 Cu -0.02299(3) 0.66596(3) 0.06968(2) 0.0285 Uani
O1 O 0.11256(19) 0.43425(18) -0.10870(16) 0.0349 Uani
O2 O 0.30639(19) 0.82026(17) -0.02280(16) 0.0330 Uani
O3 O 0.4334(3) 0.6984(4) -0.1450(2) 0.0883 Uani
O4 O 0.07029(18) 0.56458(15) -0.02492(14) 0.0260 Uani
O5 O -0.0327(2) 0.70540(17) 0.15702(16) 0.0415 Uani
O6 O -0.0345(2) 0.62929(18) -0.01511(15) 0.0365 Uani
O7 O 0.3711(4) 0.6918(3) -0.3748(2) 0.0927 Uani
O8 O 0.3986(2) 0.81603(16) 0.04809(14) 0.0296 Uani
O9 O 0.0580(2) 0.61316(19) -0.24621(15) 0.0387 Uani
O10 O -0.01250(18) 0.41866(15) -0.10694(15) 0.0268 Uani
N1 N 0.2851(2) 0.6144(2) -0.40297(18) 0.0340 Uani
O11 O 0.1773(2) 0.49957(18) -0.55253(16) 0.0350 Uani
O12 O 0.4013(2) 0.5633(2) -0.53592(18) 0.0490 Uani
O13 O 0.4324(2) 0.5666(2) 0.07078(18) 0.0453 Uani
O14 O 0.4122(2) 0.5415(2) -0.43176(16) 0.0395 Uani
O15 O 0.4464(2) 0.59377(18) -0.03114(18) 0.0400 Uani
C1 C 0.3102(3) 0.6695(3) -0.1827(2) 0.0440 Uani
O16 O 0.1913(2) 0.6113(2) 0.12780(17) 0.0483 Uani
C2 C -0.0217(3) 0.5673(2) -0.1085(2) 0.0280 Uani
O17 O 0.2411(3) 0.4840(2) -0.4627(2) 0.0613 Uani
N2 N 0.1033(2) 0.5570(2) -0.15998(18) 0.0295 Uani
C3 C 0.2375(3) 0.6450(3) -0.1694(2) 0.0427 Uani
C4 C 0.2131(3) 0.6326(3) -0.2819(2) 0.0360 Uani
C5 C 0.3594(3) 0.7898(2) 0.0026(2) 0.0287 Uani
N3 N 0.3384(2) 0.6976(2) -0.07409(17) 0.0269 Uani
C6 C 0.3160(3) 0.6549(3) -0.3614(2) 0.0497 Uani
C7 C 0.3659(3) 0.6909(3) -0.1318(2) 0.0457 Uani
C8 C 0.2211(3) 0.5191(3) -0.5079(2) 0.0347 Uani
C9 C 0.0471(3) 0.4544(2) -0.11774(18) 0.0263 Uani
C10 C 0.1893(3) 0.6274(3) -0.2191(2) 0.0350 Uani
C11 C 0.2874(3) 0.6528(3) -0.2948(2) 0.0417 Uani
C12 C 0.3350(3) 0.6732(3) -0.2454(2) 0.0487 Uani
C13 C 0.3801(3) 0.5675(3) -0.4785(2) 0.0367 Uani
C14 C 0.1108(3) 0.5995(2) -0.2088(2) 0.0295 Uani
C15 C 0.0318(3) 0.5235(2) -0.1470(2) 0.0263 Uani
C16 C 0.3089(3) 0.6123(3) -0.4693(2) 0.0357 Uani
C17 C 0.4235(3) 0.6040(3) 0.0236(2) 0.0323 Uani
C18 C 0.3838(3) 0.7192(2) -0.0197(2) 0.0293 Uani
C19 C 0.0079(3) 0.5885(2) -0.0439(2) 0.0260 Uani
C20 C 0.2440(3) 0.5925(3) -0.5129(2) 0.0373 Uani
C21 C 0.3784(3) 0.6694(2) 0.0352(2) 0.0320 Uani
Cu3 Cu 0.49424(4) 0.51478(3) -0.56087(3) 0.0346 Uani
O18 O 0.4907(3) 0.5567(3) -0.6565(2) 0.0723 Uani
O19 O -0.0585(3) 0.7514(2) 0.03449(19) 0.0560 Uani
H1 H -0.0691 0.5433 -0.1025 0.0340 Uiso
H2 H -0.0329 0.6070 -0.1330 0.0340 Uiso
H3 H 0.2214 0.6404 -0.1276 0.0510 Uiso
H4 H 0.1785 0.6237 -0.3153 0.0440 Uiso
H5 H 0.2909 0.6888 -0.0680 0.0320 Uiso
H6 H 0.3834 0.6892 -0.2545 0.0550 Uiso
H7 H 0.3234 0.6578 -0.4812 0.0430 Uiso
H8 H 0.2585 0.6018 -0.5560 0.0430 Uiso
H9 H 0.1999 0.6198 -0.5026 0.0430 Uiso
H10 H 0.3254 0.6582 0.0422 0.0390 Uiso
H11 H 0.3978 0.6903 0.0734 0.0390 Uiso
H12 H 0.4389 0.7230 -0.0317 0.0510 Uiso
H13 H 0.1463 0.5445 -0.1328 0.0530 Uiso
H14 H 0.2588 0.5854 -0.3904 0.0240 Uiso
H15 H 0.0122 0.5129 -0.1862 0.0500 Uiso
Cu1A Cu 0.36630(3) 0.91167(3) 0.04910(2) 0.0251 Uani
Cu1B Cu 0.13370(3) 0.41167(3) -0.54910(2) 0.0251 Uani
Cu1D Cu -0.13370(3) 0.41167(3) -0.04910(2) 0.0251 Uani
Cu2A Cu 0.52299(3) 0.83404(3) 0.06968(2) 0.0285 Uani
Cu2D Cu 0.02299(3) 0.33404(3) -0.06968(2) 0.0285 Uani
O1D O -0.11256(19) 0.56575(18) 0.10870(16) 0.0349 Uani
O2A O 0.19361(19) 0.67974(17) -0.02280(16) 0.0330 Uani
O8A O 0.1014(2) 0.68397(16) 0.04809(14) 0.0296 Uani
O10D O 0.01250(18) 0.58134(15) 0.10694(15) 0.0268 Uani
O11B O 0.1773(2) 0.50043(18) 0.05253(16) 0.0350 Uani
O13B O 0.4324(2) 0.4334(2) -0.57078(18) 0.0453 Uani
O14D O 0.5878(2) 0.4585(2) -0.56824(16) 0.0395 Uani
O15F O 0.5536(2) 0.59377(18) -0.53114(18) 0.0400 Uani
Cu3B Cu 0.49424(4) 0.48522(3) 0.06087(3) 0.0346 Uani
Cu3D Cu 0.50576(4) 0.48522(3) -0.43913(3) 0.0346 Uani
Cu3F Cu 0.50576(4) 0.51478(3) -0.06087(3) 0.0346 Uani
O20 O -0.0754(4) 0.7833(4) -0.0869(3) 0.0923 Uani
O21 O 0.3191(4) 0.5506(5) 0.1622(3) 0.1130 Uani
O22 O 0.2500 0.7500 0.1471(4) 0.1007 Uani
O23 O 0.2079(4) 0.4226(5) 0.1695(3) 0.1143 Uani
O24 O 0.1788(6) 0.2827(7) 0.1682(6) 0.1763 Uani
O25 O 0.1027(4) 0.5981(7) 0.2408(3) 0.1730 Uani
O26 O 0.1184(8) 0.7653(8) 0.2196(8) 0.2230 Uiso
O27 O 0.3491(8) 0.4166(7) 0.2118(7) 0.1870 Uiso
loop_
_atom_site_aniso_label
_atom_site_aniso_U_11
_atom_site_aniso_U_22
_atom_site_aniso_U_33
_atom_site_aniso_U_23
_atom_site_aniso_U_13
_atom_site_aniso_U_12
Cu1 0.0266(3) 0.0292(3) 0.0194(3) -0.00242(19) 0.00383(19) 0.0026(2)
Cu2 0.0358(3) 0.0277(3) 0.0221(3) 0.00297(19) 0.0104(2) 0.0116(2)
O1 0.0286(17) 0.047(2) 0.0291(16) -0.0035(14) 0.0046(14) 0.0068(15)
O2 0.0316(17) 0.0355(17) 0.0320(16) -0.0013(13) -0.0097(14) -0.0007(14)
O3 0.042(2) 0.188(6) 0.035(2) -0.040(3) 0.0156(18) -0.064(3)
O4 0.0268(15) 0.0306(15) 0.0207(14) -0.0032(12) 0.0030(12) 0.0034(12)
O5 0.062(2) 0.0336(18) 0.0288(17) 0.0014(14) 0.0143(16) 0.0134(17)
O6 0.0383(18) 0.045(2) 0.0261(16) 0.0003(14) 0.0040(14) 0.0183(16)
O7 0.113(4) 0.130(5) 0.035(2) -0.025(3) 0.028(3) -0.098(4)
O8 0.0357(18) 0.0286(16) 0.0246(15) -0.0002(12) -0.0119(13) -0.0007(13)
O9 0.0355(18) 0.061(2) 0.0196(14) 0.0044(15) -0.0021(13) -0.0201(17)
O10 0.0286(16) 0.0271(15) 0.0246(15) 0.0036(12) 0.0088(12) 0.0029(12)
N1 0.035(2) 0.046(2) 0.0211(17) -0.0064(16) 0.0090(16) -0.0160(18)
O11 0.0333(18) 0.0383(18) 0.0333(17) -0.0026(14) -0.0080(14) -0.0077(15)
O12 0.033(2) 0.086(3) 0.0279(17) -0.0084(18) 0.0042(15) 0.000(2)
O13 0.043(2) 0.052(2) 0.041(2) 0.0073(17) 0.0053(17) 0.0222(18)
O14 0.0306(18) 0.061(2) 0.0268(17) -0.0058(15) 0.0008(13) -0.0040(17)
O15 0.039(2) 0.043(2) 0.0381(19) 0.0004(15) 0.0041(16) 0.0087(16)
C1 0.037(3) 0.071(4) 0.024(2) -0.017(2) 0.007(2) -0.031(3)
O16 0.052(2) 0.062(2) 0.0308(18) -0.0091(17) -0.0100(17) 0.010(2)
C2 0.026(2) 0.032(2) 0.026(2) 0.0019(17) 0.0006(17) -0.0002(17)
O17 0.065(3) 0.049(2) 0.070(3) 0.009(2) -0.035(3) -0.012(2)
N2 0.0217(17) 0.042(2) 0.0248(17) -0.0026(15) 0.0028(14) -0.0067(16)
C3 0.037(3) 0.072(3) 0.019(2) -0.013(2) 0.0091(19) -0.030(3)
C4 0.037(3) 0.050(3) 0.021(2) -0.0082(19) 0.0057(18) -0.025(2)
C5 0.032(2) 0.029(2) 0.025(2) 0.0025(17) -0.0026(17) -0.0055(18)
N3 0.0220(18) 0.036(2) 0.0227(17) -0.0052(15) -0.0027(14) -0.0088(15)
C6 0.047(3) 0.074(4) 0.028(2) -0.014(2) 0.013(2) -0.040(3)
C7 0.037(3) 0.073(4) 0.027(2) -0.018(2) 0.005(2) -0.029(3)
C8 0.025(2) 0.042(3) 0.037(2) -0.001(2) -0.0031(19) -0.0009(19)
C9 0.034(2) 0.030(2) 0.0150(17) -0.0031(15) 0.0075(16) 0.0008(18)
C10 0.033(2) 0.050(3) 0.022(2) -0.0095(19) 0.0086(18) -0.021(2)
C11 0.042(3) 0.060(3) 0.023(2) -0.014(2) 0.010(2) -0.031(3)
C12 0.039(3) 0.079(4) 0.028(2) -0.021(2) 0.014(2) -0.039(3)
C13 0.027(2) 0.055(3) 0.028(2) -0.010(2) 0.0048(19) -0.017(2)
C14 0.028(2) 0.043(3) 0.0175(19) -0.0035(17) 0.0031(17) -0.0130(19)
C15 0.026(2) 0.034(2) 0.0189(18) -0.0002(16) 0.0006(16) -0.0067(18)
C16 0.035(3) 0.051(3) 0.021(2) -0.0059(19) 0.0023(19) -0.014(2)
C17 0.025(2) 0.042(3) 0.030(2) -0.0045(19) 0.0003(18) -0.0009(19)
C18 0.025(2) 0.040(2) 0.023(2) -0.0026(18) -0.0027(17) -0.0051(18)
C19 0.029(2) 0.028(2) 0.021(2) 0.0031(16) 0.0041(17) 0.0036(17)
C20 0.040(3) 0.044(3) 0.028(2) -0.0029(19) -0.001(2) -0.009(2)
C21 0.033(2) 0.034(2) 0.029(2) 0.0008(18) 0.0013(18) 0.0006(19)
Cu3 0.0278(3) 0.0462(4) 0.0299(3) -0.0019(2) 0.0014(2) -0.0094(3)
O18 0.073(3) 0.114(4) 0.030(2) 0.008(2) -0.001(2) 0.006(3)
O19 0.076(3) 0.051(2) 0.041(2) 0.0132(18) 0.021(2) 0.036(2)
Cu1A 0.0266 0.0292 0.0194 0.00242 -0.00383 0.0026
Cu1B 0.0266 0.0292 0.0194 -0.00242 -0.00383 -0.0026
Cu1D 0.0266 0.0292 0.0194 -0.00242 0.00383 0.0026
Cu2A 0.0358 0.0277 0.0221 -0.00297 -0.0104 0.0116
Cu2D 0.0358 0.0277 0.0221 0.00297 0.0104 0.0116
O1D 0.0286 0.047 0.0291 -0.0035 0.0046 0.0068
O2A 0.0316 0.0355 0.032 0.0013 0.0097 -0.0007
O8A 0.0357 0.0286 0.0246 0.0002 0.0119 -0.0007
O10D 0.0286 0.0271 0.0246 0.0036 0.0088 0.0029
O11B 0.0333 0.0383 0.0333 -0.0026 0.008 0.0077
O13B 0.043 0.052 0.041 0.0073 -0.0053 -0.0222
O14D 0.0306 0.061 0.0268 -0.0058 0.0008 -0.004
O15F 0.039 0.043 0.0381 0.0004 -0.0041 -0.0087
Cu3B 0.0278 0.0462 0.0299 -0.0019 -0.0014 0.0094
Cu3D 0.0278 0.0462 0.0299 -0.0019 0.0014 -0.0094
Cu3F 0.0278 0.0462 0.0299 -0.0019 -0.0014 0.0094
O20 0.081(4) 0.137(5) 0.059(3) 0.016(3) -0.012(3) 0.017(4)
O21 0.071(4) 0.200(8) 0.068(4) 0.035(5) 0.011(3) 0.039(5)
O22 0.125(8) 0.108(7) 0.069(5) 0.000 0.000 0.036(6)
O23 0.091(5) 0.182(8) 0.070(4) 0.018(4) 0.014(4) 0.015(5)
O24 0.119(7) 0.256(14) 0.154(9) -0.011(9) -0.017(7) 0.042(8)
O25 0.066(4) 0.405(18) 0.048(3) 0.014(6) 0.003(3) 0.008(7)
loop_
_geom_bond_atom_site_label_1
_geom_bond_atom_site_label_2
_geom_bond_site_symmetry_1
_geom_bond_site_symmetry_2
Cu1 O4 1_555 1_555
Cu2 O5 1_555 1_555
O1 C9 1_555 1_555
O2 C5 1_555 1_555
O3 C7 1_555 1_555
O4 C19 1_555 1_555
O6 Cu2 1_555 1_555
O7 C6 1_555 1_555
O8 C5 1_555 1_555
O9 C14 1_555 1_555
O10 C9 1_555 1_555
N1 C6 1_555 1_555
O11 C8 1_555 1_555
O12 C13 1_555 1_555
O13 C17 1_555 1_555
O14 C13 1_555 1_555
O15 C17 1_555 1_555
C1 C3 1_555 1_555
O16 Cu1 1_555 1_555
C2 C15 1_555 1_555
O17 C8 1_555 1_555
N2 C14 1_555 1_555
C3 C10 1_555 1_555
C4 C10 1_555 1_555
C5 C18 1_555 1_555
N3 C7 1_555 1_555
C6 C11 1_555 1_555
C7 C1 1_555 1_555
C8 C20 1_555 1_555
C9 C15 1_555 1_555
C10 C14 1_555 1_555
C11 C4 1_555 1_555
C12 C1 1_555 1_555
C13 C16 1_555 1_555
C15 N2 1_555 1_555
C16 N1 1_555 1_555
C17 C21 1_555 1_555
C18 N3 1_555 1_555
C19 O6 1_555 1_555
C20 C16 1_555 1_555
C21 C18 1_555 1_555
Cu3 O12 1_555 1_555
O18 Cu3 1_555 1_555
O19 Cu2 1_555 1_555
H1 C2 1_555 1_555
H2 C2 1_555 1_555
H3 C3 1_555 1_555
H4 C4 1_555 1_555
H5 N3 1_555 1_555
H6 C12 1_555 1_555
H7 C16 1_555 1_555
H8 C20 1_555 1_555
H9 C20 1_555 1_555
H10 C21 1_555 1_555
H11 C21 1_555 1_555
H12 C18 1_555 1_555
H13 N2 1_555 1_555
H14 N1 1_555 1_555
H15 C15 1_555 1_555
Cu1A O2 1_555 1_555
Cu1B O11 1_555 1_555
Cu1D O10 1_555 1_555
Cu2A O8 1_555 1_555
Cu2D O1 1_555 1_555
O1D Cu2 1_555 1_555
O2A Cu1 1_555 1_555
O8A Cu1 1_555 1_555
O10D Cu1 1_555 1_555
O11B Cu1 1_555 1_555
O13B Cu3 1_555 1_555
O14D Cu3 1_555 1_555
O15F Cu3 1_555 1_555
Cu3B O13 1_555 1_555
Cu3D O14 1_555 1_555
Cu3F O15 1_555 1_555
Cu2 O8A 1_555 1_555
Cu2 O10D 1_555 1_555
O8 Cu1A 1_555 1_555
O10 Cu2D 1_555 1_555
C2 C19 1_555 1_555
C11 C12 1_555 1_555

#END
