
#######################################################################
#
#                 Cambridge Crystallographic Data Centre
#                                CCDC 
#
#######################################################################
#
# If this CIF has been generated from an entry in the Cambridge 
# Structural Database, then it will include bibliographic, chemical, 
# crystal, experimental, refinement or atomic coordinate data resulting 
# from the CCDC's data processing and validation procedures.
#
#######################################################################

data_CUYRUK
_chemical_formula_moiety         '(C23 H20 I2 N6 O6 Zn2)n'
_symmetry_cell_setting           monoclinic
_symmetry_space_group_name_H-M   'P 21/c'
_symmetry_Int_Tables_number      14
_space_group_name_Hall           '-P 2ybc'
loop_
_symmetry_equiv_pos_site_id
_symmetry_equiv_pos_as_xyz
1 x,y,z
2 -x,1/2+y,1/2-z
3 -x,-y,-z
4 x,1/2-y,1/2+z
_cell_length_a                   9.9056(14)
_cell_length_b                   7.6620(11)
_cell_length_c                   36.857(5)
_cell_angle_alpha                90
_cell_angle_beta                 96.245(2)
_cell_angle_gamma                90
_cell_volume                     2780.73
loop_
_atom_site_label
_atom_site_type_symbol
_atom_site_fract_x
_atom_site_fract_y
_atom_site_fract_z
_atom_site_U_iso_or_equiv
_atom_site_thermal_displace_type
Zn1 Zn 0.83178(7) 0.54246(11) 0.972623(18) 0.0278 Uani
Zn2 Zn 0.27214(7) 0.33784(10) 0.668139(18) 0.0260 Uani
C1 C 0.4087(6) 0.3141(8) 0.87665(15) 0.0241 Uani
C2 C 0.2855(6) 0.2442(9) 0.88458(16) 0.0279 Uani
H1 H 0.2743 0.2028 0.9078 0.0330 Uiso
C3 C 0.1808(6) 0.2387(9) 0.85677(16) 0.0272 Uani
C4 C 0.1945(6) 0.3018(9) 0.82231(16) 0.0282 Uani
H2 H 0.1221 0.2988 0.8040 0.0340 Uiso
C5 C 0.3187(6) 0.3693(9) 0.81578(16) 0.0275 Uani
C6 C 0.4273(6) 0.3747(8) 0.84281(15) 0.0258 Uani
H3 H 0.5110 0.4186 0.8380 0.0310 Uiso
C7 C 0.5414(7) 0.1880(9) 0.93168(18) 0.0353 Uani
H4 H 0.4905 0.0875 0.9341 0.0420 Uiso
C8 C 0.6523(7) 0.2409(9) 0.95356(16) 0.0312 Uani
H5 H 0.6917 0.1802 0.9739 0.0380 Uiso
C9 C 0.6149(6) 0.4382(9) 0.91171(16) 0.0272 Uani
H6 H 0.6219 0.5381 0.8977 0.0330 Uiso
C10 C 0.4151(8) 0.5584(10) 0.76901(19) 0.0436 Uani
H7 H 0.4660 0.6362 0.7843 0.0530 Uiso
C11 C 0.4036(8) 0.5540(11) 0.73234(19) 0.0463 Uani
H8 H 0.4461 0.6308 0.7177 0.0550 Uiso
C12 C 0.2830(6) 0.3459(9) 0.74867(16) 0.0301 Uani
H9 H 0.2257 0.2496 0.7482 0.0360 Uiso
C13 C -0.0021(7) 0.1572(11) 0.89620(19) 0.0442 Uani
H10 H 0.0312 0.2124 0.9178 0.0530 Uiso
C14 C -0.1146(7) 0.0587(10) 0.89044(18) 0.0399 Uani
H11 H -0.1726 0.0331 0.9080 0.0480 Uiso
C15 C -0.0262(6) 0.0655(8) 0.83980(16) 0.0261 Uani
H12 H -0.0103 0.0470 0.8157 0.0310 Uiso
C16 C 0.6288(6) 0.2882(9) 0.61825(17) 0.0272 Uani
C17 C 0.5860(6) 0.2621(9) 0.58116(16) 0.0282 Uani
H13 H 0.4951 0.2786 0.5726 0.0340 Uiso
C18 C 0.6752(6) 0.2130(9) 0.55755(16) 0.0263 Uani
H14 H 0.6451 0.1966 0.5330 0.0310 Uiso
C19 C 0.8107(6) 0.1875(8) 0.56994(16) 0.0257 Uani
C20 C 0.8533(6) 0.2078(9) 0.60675(16) 0.0303 Uani
H15 H 0.9433 0.1851 0.6154 0.0360 Uiso
C21 C 0.7644(6) 0.2610(9) 0.63054(16) 0.0303 Uani
H16 H 0.7951 0.2789 0.6550 0.0360 Uiso
C22 C 0.5302(7) 0.3406(9) 0.64425(17) 0.0308 Uani
C23 C 0.9093(6) 0.1305(9) 0.54462(17) 0.0275 Uani
I1 I 0.74110(7) 0.80665(8) 1.002773(15) 0.0655 Uani
I2 I 0.18373(5) 0.02051(7) 0.674927(13) 0.0410 Uani
N1 N 0.6982(5) 0.3966(7) 0.94152(12) 0.0259 Uani
N2 N 0.5195(5) 0.3136(7) 0.90507(13) 0.0263 Uani
N3 N 0.3202(5) 0.4197(7) 0.71980(12) 0.0278 Uani
N4 N 0.3366(5) 0.4249(7) 0.77909(13) 0.0284 Uani
N5 N -0.1317(5) 0.0010(7) 0.85478(14) 0.0293 Uani
N6 N 0.0536(5) 0.1596(7) 0.86357(13) 0.0264 Uani
O1 O 0.4037(5) 0.3226(7) 0.63280(13) 0.0424 Uani
O2 O 0.5709(5) 0.3888(9) 0.67495(13) 0.0573 Uani
O3 O 0.8757(4) 0.1360(6) 0.51092(11) 0.0320 Uani
O4 O 1.0263(5) 0.0827(8) 0.55844(12) 0.0435 Uani
Zn1A Zn 1.16822(7) 0.04246(11) 0.527377(18) 0.0278 Uani
Zn1C Zn 0.83178(7) -0.04246(11) 0.472623(18) 0.0278 Uani
Zn2A Zn -0.27214(7) -0.16216(10) 0.831861(18) 0.0260 Uani
N5A N 0.1317(5) 0.5010(7) 0.64522(14) 0.0293 Uani
O3C O 0.8757(4) 0.3640(6) 1.01092(11) 0.0320 Uani
O4A O 0.9737(5) 0.5827(8) 0.94156(12) 0.0435 Uani
O5 O 0.7949(9) 0.4252(11) 0.72525(19) 0.0982 Uani
O6 O 0.9633(9) 0.1377(16) 0.7489(3) 0.1424 Uani
loop_
_atom_site_aniso_label
_atom_site_aniso_U_11
_atom_site_aniso_U_22
_atom_site_aniso_U_33
_atom_site_aniso_U_23
_atom_site_aniso_U_13
_atom_site_aniso_U_12
Zn1 0.0179(4) 0.0393(5) 0.0256(4) 0.0027(3) -0.0005(3) -0.0102(3)
Zn2 0.0162(4) 0.0371(5) 0.0249(4) -0.0005(3) 0.0031(3) 0.0074(3)
C1 0.016(3) 0.030(4) 0.025(3) -0.005(3) -0.004(2) -0.005(2)
C2 0.021(3) 0.035(4) 0.027(3) -0.001(3) 0.000(2) -0.010(3)
C3 0.016(3) 0.030(4) 0.036(3) -0.004(3) 0.004(2) -0.005(3)
C4 0.024(3) 0.034(4) 0.026(3) -0.009(3) 0.000(2) -0.001(3)
C5 0.022(3) 0.032(4) 0.028(3) -0.001(3) 0.001(3) -0.003(3)
C6 0.019(3) 0.029(4) 0.029(3) -0.006(3) 0.001(2) -0.008(3)
C7 0.036(4) 0.028(4) 0.040(4) 0.006(3) -0.004(3) -0.014(3)
C8 0.033(4) 0.032(4) 0.027(3) 0.005(3) -0.004(3) -0.008(3)
C9 0.022(3) 0.034(4) 0.025(3) -0.002(3) 0.000(2) -0.004(3)
C10 0.048(5) 0.047(5) 0.036(4) -0.005(3) 0.005(3) -0.027(4)
C11 0.050(5) 0.052(5) 0.039(4) 0.004(4) 0.015(3) -0.019(4)
C12 0.025(3) 0.036(4) 0.029(3) -0.005(3) 0.001(3) -0.008(3)
C13 0.030(4) 0.068(6) 0.035(4) -0.016(4) 0.005(3) -0.019(4)
C14 0.032(4) 0.059(5) 0.031(4) -0.006(3) 0.014(3) -0.017(3)
C15 0.020(3) 0.033(4) 0.025(3) -0.001(3) 0.001(2) -0.007(3)
C16 0.018(3) 0.029(4) 0.036(3) 0.005(3) 0.009(3) 0.005(3)
C17 0.014(3) 0.032(4) 0.038(4) 0.004(3) 0.000(2) 0.005(3)
C18 0.017(3) 0.039(4) 0.022(3) 0.000(3) -0.002(2) 0.007(3)
C19 0.024(3) 0.023(4) 0.030(3) -0.001(3) 0.003(3) 0.004(3)
C20 0.019(3) 0.042(4) 0.029(3) -0.006(3) -0.001(3) 0.006(3)
C21 0.024(3) 0.042(4) 0.024(3) -0.004(3) -0.002(3) 0.000(3)
C22 0.032(4) 0.036(4) 0.027(3) 0.005(3) 0.015(3) 0.009(3)
C23 0.018(3) 0.030(4) 0.035(4) -0.005(3) 0.005(3) 0.006(3)
I1 0.0905(5) 0.0501(4) 0.0543(4) -0.0055(3) 0.0006(3) 0.0196(3)
I2 0.0377(3) 0.0384(3) 0.0464(3) -0.0027(2) 0.0025(2) -0.0048(2)
N1 0.017(3) 0.038(3) 0.021(2) 0.003(2) -0.005(2) -0.003(2)
N2 0.023(3) 0.030(3) 0.025(3) 0.001(2) -0.002(2) -0.005(2)
N3 0.026(3) 0.038(3) 0.019(2) -0.003(2) 0.001(2) -0.005(2)
N4 0.020(3) 0.040(4) 0.025(3) 0.003(2) 0.002(2) -0.010(2)
N5 0.019(3) 0.038(4) 0.031(3) -0.002(2) 0.003(2) -0.007(2)
N6 0.018(3) 0.037(3) 0.024(3) 0.003(2) 0.002(2) -0.008(2)
O1 0.026(3) 0.059(4) 0.045(3) -0.003(2) 0.016(2) 0.012(2)
O2 0.043(3) 0.096(5) 0.035(3) -0.014(3) 0.014(2) 0.012(3)
O3 0.034(3) 0.038(3) 0.024(2) -0.006(2) 0.0029(19) 0.006(2)
O4 0.029(3) 0.073(4) 0.029(2) 0.001(2) 0.006(2) 0.029(3)
Zn1A 0.0179 0.0393 0.0256 -0.0027 -0.0005 0.0102
Zn1C 0.0179 0.0393 0.0256 -0.0027 -0.0005 0.0102
Zn2A 0.0162 0.0371 0.0249 0.0005 0.0031 -0.0074
N5A 0.019 0.038 0.031 0.002 0.003 0.007
O3C 0.034 0.038 0.024 0.006 0.0029 -0.006
O4A 0.029 0.073 0.029 -0.001 0.006 -0.029
O5 0.116(7) 0.090(6) 0.083(5) -0.013(4) -0.014(5) -0.015(5)
O6 0.087(7) 0.193(12) 0.149(8) -0.006(8) 0.021(6) 0.003(7)
loop_
_geom_bond_atom_site_label_1
_geom_bond_atom_site_label_2
_geom_bond_site_symmetry_1
_geom_bond_site_symmetry_2
Zn1 I1 1_555 1_555
Zn2 I2 1_555 1_555
C1 C2 1_555 1_555
C2 H1 1_555 1_555
C3 C2 1_555 1_555
C4 C3 1_555 1_555
H2 C4 1_555 1_555
C5 C4 1_555 1_555
C6 C1 1_555 1_555
H3 C6 1_555 1_555
C7 H4 1_555 1_555
C8 C7 1_555 1_555
H5 C8 1_555 1_555
C9 H6 1_555 1_555
C10 H7 1_555 1_555
C11 C10 1_555 1_555
H8 C11 1_555 1_555
C12 H9 1_555 1_555
C13 H10 1_555 1_555
C14 C13 1_555 1_555
H11 C14 1_555 1_555
C15 H12 1_555 1_555
C16 C17 1_555 1_555
C17 H13 1_555 1_555
C18 C17 1_555 1_555
H14 C18 1_555 1_555
C19 C18 1_555 1_555
C20 C19 1_555 1_555
H15 C20 1_555 1_555
C21 C16 1_555 1_555
H16 C21 1_555 1_555
C22 C16 1_555 1_555
C23 C19 1_555 1_555
N1 Zn1 1_555 1_555
N2 C1 1_555 1_555
N3 Zn2 1_555 1_555
N4 C5 1_555 1_555
N5 C14 1_555 1_555
N6 C3 1_555 1_555
O1 Zn2 1_555 1_555
O2 C22 1_555 1_555
O3 C23 1_555 1_555
O4 C23 1_555 1_555
Zn1A O4 1_555 1_555
Zn1C O3 1_555 1_555
Zn2A N5 1_555 1_555
N5A Zn2 1_555 1_555
O3C Zn1 1_555 1_555
O4A Zn1 1_555 1_555
C5 C6 1_555 1_555
C7 N2 1_555 1_555
C8 N1 1_555 1_555
C9 N1 1_555 1_555
C9 N2 1_555 1_555
C10 N4 1_555 1_555
C11 N3 1_555 1_555
C12 N3 1_555 1_555
C12 N4 1_555 1_555
C13 N6 1_555 1_555
C15 N5 1_555 1_555
C15 N6 1_555 1_555
C20 C21 1_555 1_555
C22 O1 1_555 1_555

#END
