
#######################################################################
#
#                 Cambridge Crystallographic Data Centre
#                                CCDC 
#
#######################################################################
#
# If this CIF has been generated from an entry in the Cambridge 
# Structural Database, then it will include bibliographic, chemical, 
# crystal, experimental, refinement or atomic coordinate data resulting 
# from the CCDC's data processing and validation procedures.
#
#######################################################################

data_EWOBAV
_chemical_formula_moiety         '(C180 H120 Cu12 N24)n'
_symmetry_cell_setting           orthorhombic
_symmetry_space_group_name_H-M   'P 21 21 2'
_symmetry_Int_Tables_number      18
_space_group_name_Hall           'P 2 2ab'
loop_
_symmetry_equiv_pos_site_id
_symmetry_equiv_pos_as_xyz
1 x,y,z
2 -x,-y,z
3 1/2-x,1/2+y,-z
4 1/2+x,1/2-y,-z
_cell_length_a                   18.0922(15)
_cell_length_b                   28.182(2)
_cell_length_c                   16.7188(12)
_cell_angle_alpha                90
_cell_angle_beta                 90
_cell_angle_gamma                90
_cell_volume                     8524.49
loop_
_atom_site_label
_atom_site_type_symbol
_atom_site_fract_x
_atom_site_fract_y
_atom_site_fract_z
Cu1 Cu 0.09792(14) 0.54848(8) 0.09719(12)
Cu2 Cu 0.0000 0.5000 0.24272(18)
Cu3 Cu 0.40025(14) 0.31010(8) 0.20826(14)
Cu4 Cu 0.43946(15) 0.35859(9) 0.37121(15)
Cu5 Cu 0.36827(11) 0.28553(9) 0.48763(13)
Cu6 Cu 0.5000 0.0000 0.03133(17)
Cu7 Cu 0.84348(12) 0.26515(9) 0.67122(12)
N1 N 0.1432(9) 0.5107(5) 0.1742(7)
N2 N 0.0972(9) 0.4921(5) 0.2375(7)
N3 N 0.3578(9) 0.3656(5) 0.2283(8)
N4 N 0.3704(9) 0.3883(6) 0.3044(8)
N5 N 0.4362(8) 0.2511(5) 0.1952(7)
N6 N 0.4094(8) 0.2163(5) 0.2492(7)
N7 N 0.4672(7) 0.2979(5) 0.4955(8)
N8 N 0.5009(7) 0.3260(5) 0.4355(8)
N9 N 0.7625(7) 0.2602(6) 0.5998(8)
N10 N 0.7740(7) 0.2354(6) 0.5257(8)
N11 N 0.4394(8) 0.0848(5) -0.0092(7)
N12 N 0.4911(8) 0.0645(5) 0.0336(7)
C1 C 0.2131(16) 0.4924(9) 0.1704(12)
C2 C 0.2128(16) 0.4577(8) 0.2373(11)
C3 C 0.1464(15) 0.4623(8) 0.2747(10)
C4 C 0.2732(17) 0.4272(9) 0.2528(13)
C5 C 0.3274(17) 0.4259(9) 0.3203(13)
C6 C 0.3059(19) 0.3923(11) 0.2037(16)
C7 C 0.4555(13) 0.2219(8) 0.1303(12)
C8 C 0.4172(13) 0.1738(7) 0.2196(12)
C9 C 0.4573(13) 0.1349(7) 0.0908(12)
C10 C 0.4170(13) 0.1252(7) 0.0208(11)
C11 C 0.5010(14) 0.0943(8) 0.0992(13)
C12 C 0.5760(10) 0.3212(7) 0.4450(12)
C13 C 0.5903(9) 0.2920(7) 0.5103(10)
C14 C 0.5197(10) 0.2752(8) 0.5349(11)
C15 C 0.6628(9) 0.2707(7) 0.5298(10)
C16 C 0.7144(9) 0.2461(7) 0.4872(10)
C17 C 0.6998(9) 0.2784(8) 0.6049(11)
C18 C 0.1211(14) 0.4384(6) 0.3534(10)
C19 C 0.1413(14) 0.3908(7) 0.3653(11)
H1 H 0.1617 0.3735 0.3234
C20 C 0.1309(14) 0.3693(8) 0.4401(10)
H2 H 0.1525 0.3402 0.4523
C21 C 0.0867(15) 0.3934(7) 0.4957(12)
H3 H 0.0687 0.3778 0.5407
C22 C 0.0703(15) 0.4410(7) 0.4826(11)
H4 H 0.0459 0.4572 0.5232
C23 C 0.0878(9) 0.4666(5) 0.4129(7)
H5 H 0.0782 0.4988 0.4067
C24 C 0.4492(9) 0.1751(5) 0.1422(7)
C25 C 0.2565(10) 0.5050(6) 0.1136(9)
C26 C 0.3294(11) 0.5129(6) 0.1364(8)
H6 H 0.3429 0.5103 0.1899
C27 C 0.3821(9) 0.5245(6) 0.0792(11)
H7 H 0.4309 0.5298 0.0944
C28 C 0.3620(10) 0.5284(6) -0.0008(10)
H8 H 0.3972 0.5362 -0.0390
C29 C 0.2891(11) 0.5205(6) -0.0236(7)
H9 H 0.2756 0.5231 -0.0771
C30 C 0.2364(9) 0.5088(6) 0.0336(10)
H10 H 0.1876 0.5036 0.0184
C31 C 0.3128(12) 0.4432(6) 0.3976(7)
C32 C 0.3100(12) 0.4144(5) 0.4650(10)
H11 H 0.3094 0.3815 0.4593
C33 C 0.3079(12) 0.4346(6) 0.5407(8)
H12 H 0.3060 0.4153 0.5858
C34 C 0.3088(13) 0.4837(7) 0.5492(8)
H13 H 0.3074 0.4972 0.5999
C35 C 0.3116(12) 0.5125(5) 0.4818(11)
H14 H 0.3122 0.5453 0.4874
C36 C 0.3137(12) 0.4923(6) 0.4060(9)
H15 H 0.3156 0.5116 0.3609
C37 C 0.2678(15) 0.3743(8) 0.1264(10)
C38 C 0.3181(11) 0.3635(8) 0.0662(14)
H16 H 0.3685 0.3667 0.0755
C39 C 0.2930(14) 0.3480(8) -0.0079(12)
H17 H 0.3266 0.3408 -0.0481
C40 C 0.2176(15) 0.3432(8) -0.0218(11)
H18 H 0.2008 0.3328 -0.0713
C41 C 0.1673(11) 0.3540(8) 0.0384(15)
H19 H 0.1169 0.3508 0.0291
C42 C 0.1924(14) 0.3695(8) 0.1125(12)
H20 H 0.1588 0.3767 0.1528
C43 C 0.4804(11) 0.2442(7) 0.0531(8)
C44 C 0.4353(10) 0.2775(7) 0.0158(11)
H21 H 0.3939 0.2892 0.0421
C45 C 0.4523(11) 0.2933(6) -0.0608(11)
H22 H 0.4222 0.3156 -0.0857
C46 C 0.5143(12) 0.2758(7) -0.1000(8)
H23 H 0.5257 0.2864 -0.1513
C47 C 0.5593(10) 0.2425(7) -0.0628(11)
H24 H 0.6008 0.2308 -0.0890
C48 C 0.5423(10) 0.2267(6) 0.0138(11)
H25 H 0.5725 0.2044 0.0388
C49 C 0.3928(9) 0.1334(5) 0.2702(8)
C50 C 0.4170(9) 0.1308(5) 0.3490(9)
H26 H 0.4492 0.1536 0.3689
C51 C 0.3930(10) 0.0940(6) 0.3980(7)
H27 H 0.4092 0.0923 0.4507
C52 C 0.3447(10) 0.0599(5) 0.3682(10)
H28 H 0.3287 0.0354 0.4010
C53 C 0.3205(9) 0.0626(5) 0.2894(10)
H29 H 0.2883 0.0398 0.2695
C54 C 0.3445(9) 0.0993(6) 0.2404(7)
H30 H 0.3283 0.1011 0.1877
C55 C 0.3627(8) 0.1556(5) -0.0218(9)
C56 C 0.3628(9) 0.1584(6) -0.1048(8)
H31 H 0.3990 0.1426 -0.1341
C57 C 0.3088(10) 0.1846(6) -0.1441(7)
H32 H 0.3089 0.1865 -0.1996
C58 C 0.2547(9) 0.2082(6) -0.1004(10)
H33 H 0.2186 0.2257 -0.1266
C59 C 0.2546(8) 0.2054(5) -0.0174(10)
H34 H 0.2184 0.2212 0.0119
C60 C 0.3086(10) 0.1792(6) 0.0219(7)
H35 H 0.3085 0.1773 0.0775
C61 C 0.5709(10) 0.0888(6) 0.1485(10)
C62 C 0.6363(12) 0.0747(7) 0.1120(8)
H36 H 0.6395 0.0736 0.0565
C63 C 0.6969(9) 0.0620(6) 0.1585(12)
H37 H 0.7407 0.0525 0.1340
C64 C 0.6921(9) 0.0635(7) 0.2414(12)
H38 H 0.7327 0.0551 0.2725
C65 C 0.6267(12) 0.0777(7) 0.2779(8)
H39 H 0.6235 0.0787 0.3334
C66 C 0.5661(9) 0.0903(6) 0.2315(11)
H40 H 0.5223 0.0998 0.2559
C67 C 0.7037(6) 0.2295(5) 0.4003(5)
C68 C 0.7630(5) 0.2296(5) 0.3475(7)
H41 H 0.8100 0.2375 0.3656
C69 C 0.7521(6) 0.2179(5) 0.2676(6)
H42 H 0.7918 0.2180 0.2322
C70 C 0.6818(7) 0.2061(5) 0.2405(5)
H43 H 0.6745 0.1983 0.1870
C71 C 0.6225(5) 0.2060(5) 0.2933(7)
H44 H 0.5755 0.1981 0.2752
C72 C 0.6334(5) 0.2177(5) 0.3732(6)
H45 H 0.5937 0.2176 0.4085
C73 C 0.6778(8) 0.3062(6) 0.6725(7)
C74 C 0.6464(8) 0.3506(6) 0.6595(7)
H46 H 0.6348 0.3602 0.6078
C75 C 0.6325(9) 0.3806(5) 0.7238(10)
H47 H 0.6115 0.4103 0.7151
C76 C 0.6500(9) 0.3662(6) 0.8010(8)
H48 H 0.6406 0.3863 0.8440
C77 C 0.6813(9) 0.3219(7) 0.8140(7)
H49 H 0.6930 0.3123 0.8657
C78 C 0.6952(8) 0.2919(5) 0.7498(9)
H50 H 0.7162 0.2622 0.7585
C79 C 0.6275(7) 0.3476(5) 0.3961(8)
C80 C 0.6934(8) 0.3655(5) 0.4263(7)
H51 H 0.7041 0.3626 0.4804
C81 C 0.7433(7) 0.3878(5) 0.3754(9)
H52 H 0.7874 0.3998 0.3956
C82 C 0.7273(8) 0.3922(5) 0.2945(9)
H53 H 0.7607 0.4071 0.2605
C83 C 0.6614(9) 0.3743(6) 0.2643(7)
H54 H 0.6507 0.3772 0.2101
C84 C 0.6114(7) 0.3520(5) 0.3151(9)
H55 H 0.5673 0.3400 0.2949
C85 C 0.4968(8) 0.2352(5) 0.5919(8)
C86 C 0.5209(8) 0.2371(5) 0.6707(9)
H56 H 0.5488 0.2628 0.6883
C87 C 0.5034(10) 0.2007(7) 0.7234(7)
H57 H 0.5195 0.2020 0.7762
C88 C 0.4617(10) 0.1623(5) 0.6972(9)
H58 H 0.4499 0.1379 0.7324
C89 C 0.4376(9) 0.1603(5) 0.6183(10)
H59 H 0.4097 0.1346 0.6008
C90 C 0.4552(9) 0.1968(6) 0.5656(7)
H60 H 0.4390 0.1955 0.5129
Cu1A Cu -0.09792(14) 0.45152(8) 0.09719(12)
Cu3A Cu -0.40025(14) 0.68990(8) 0.20826(14)
Cu4A Cu -0.43946(15) 0.64141(9) 0.37121(15)
Cu5A Cu -0.36827(11) 0.71447(9) 0.48763(13)
Cu7A Cu -0.84348(12) 0.73485(9) 0.67122(12)
N1A N -0.1432(9) 0.4893(5) 0.1742(7)
N2A N -0.0972(9) 0.5079(5) 0.2375(7)
N3A N -0.3578(9) 0.6344(5) 0.2283(8)
N4A N -0.3704(9) 0.6117(6) 0.3044(8)
N5A N -0.4362(8) 0.7489(5) 0.1952(7)
N6A N -0.4094(8) 0.7837(5) 0.2492(7)
N7A N -0.4672(7) 0.7021(5) 0.4955(8)
N8A N -0.5009(7) 0.6740(5) 0.4355(8)
N9A N -0.7625(7) 0.7398(6) 0.5998(8)
N10A N -0.7740(7) 0.7646(6) 0.5257(8)
N11A N -0.4394(8) 0.9152(5) -0.0092(7)
N12A N -0.4911(8) 0.9355(5) 0.0336(7)
C1A C -0.2131(16) 0.5076(9) 0.1704(12)
C2A C -0.2128(16) 0.5423(8) 0.2373(11)
C3A C -0.1464(15) 0.5377(8) 0.2747(10)
C4A C -0.2732(17) 0.5728(9) 0.2528(13)
C5A C -0.3274(17) 0.5741(9) 0.3203(13)
C6A C -0.3059(19) 0.6077(11) 0.2037(16)
C7A C -0.4555(13) 0.7781(8) 0.1303(12)
C8A C -0.4172(13) 0.8262(7) 0.2196(12)
C9A C -0.4573(13) 0.8651(7) 0.0908(12)
C10A C -0.4170(13) 0.8748(7) 0.0208(11)
C11A C -0.5010(14) 0.9057(8) 0.0992(13)
C12A C -0.5760(10) 0.6788(7) 0.4450(12)
C13A C -0.5903(9) 0.7080(7) 0.5103(10)
C14A C -0.5197(10) 0.7248(8) 0.5349(11)
C15A C -0.6628(9) 0.7293(7) 0.5298(10)
C16A C -0.7144(9) 0.7539(7) 0.4872(10)
C17A C -0.6998(9) 0.7216(8) 0.6049(11)
C18A C -0.1211(14) 0.5616(6) 0.3534(10)
C19A C -0.1413(14) 0.6092(7) 0.3653(11)
H1A H -0.1617 0.6265 0.3234
C20A C -0.1309(14) 0.6307(8) 0.4401(10)
H2A H -0.1525 0.6598 0.4523
C21A C -0.0867(15) 0.6066(7) 0.4957(12)
H3A H -0.0687 0.6222 0.5407
C22A C -0.0703(15) 0.5590(7) 0.4826(11)
H4A H -0.0459 0.5428 0.5232
C23A C -0.0878(9) 0.5334(5) 0.4129(7)
H5A H -0.0782 0.5012 0.4067
C24A C -0.4492(9) 0.8249(5) 0.1422(7)
C25A C -0.2565(10) 0.4950(6) 0.1136(9)
C26A C -0.3294(11) 0.4871(6) 0.1364(8)
H6A H -0.3429 0.4897 0.1899
C27A C -0.3821(9) 0.4755(6) 0.0792(11)
H7A H -0.4309 0.4702 0.0944
C28A C -0.3620(10) 0.4716(6) -0.0008(10)
H8A H -0.3972 0.4638 -0.0390
C29A C -0.2891(11) 0.4795(6) -0.0236(7)
H9A H -0.2756 0.4769 -0.0771
C30A C -0.2364(9) 0.4912(6) 0.0336(10)
H10A H -0.1876 0.4964 0.0184
C31A C -0.3128(12) 0.5568(6) 0.3976(7)
C32A C -0.3100(12) 0.5856(5) 0.4650(10)
H11A H -0.3094 0.6185 0.4593
C33A C -0.3079(12) 0.5654(6) 0.5407(8)
H12A H -0.3060 0.5847 0.5858
C34A C -0.3088(13) 0.5163(7) 0.5492(8)
H13A H -0.3074 0.5028 0.5999
C35A C -0.3116(12) 0.4875(5) 0.4818(11)
H14A H -0.3122 0.4547 0.4874
C36A C -0.3137(12) 0.5077(6) 0.4060(9)
H15A H -0.3156 0.4884 0.3609
C37A C -0.2678(15) 0.6257(8) 0.1264(10)
C38A C -0.3181(11) 0.6365(8) 0.0662(14)
H16A H -0.3685 0.6333 0.0755
C39A C -0.2930(14) 0.6520(8) -0.0079(12)
H17A H -0.3266 0.6592 -0.0481
C40A C -0.2176(15) 0.6568(8) -0.0218(11)
H18A H -0.2008 0.6672 -0.0713
C41A C -0.1673(11) 0.6460(8) 0.0384(15)
H19A H -0.1169 0.6492 0.0291
C42A C -0.1924(14) 0.6305(8) 0.1125(12)
H20A H -0.1588 0.6233 0.1528
C43A C -0.4804(11) 0.7558(7) 0.0531(8)
C44A C -0.4353(10) 0.7225(7) 0.0158(11)
H21A H -0.3939 0.7108 0.0421
C45A C -0.4523(11) 0.7067(6) -0.0608(11)
H22A H -0.4222 0.6844 -0.0857
C46A C -0.5143(12) 0.7242(7) -0.1000(8)
H23A H -0.5257 0.7136 -0.1513
C47A C -0.5593(10) 0.7575(7) -0.0628(11)
H24A H -0.6008 0.7692 -0.0890
C48A C -0.5423(10) 0.7733(6) 0.0138(11)
H25A H -0.5725 0.7956 0.0388
C49A C -0.3928(9) 0.8666(5) 0.2702(8)
C50A C -0.4170(9) 0.8692(5) 0.3490(9)
H26A H -0.4492 0.8464 0.3689
C51A C -0.3930(10) 0.9060(6) 0.3980(7)
H27A H -0.4092 0.9077 0.4507
C52A C -0.3447(10) 0.9401(5) 0.3682(10)
H28A H -0.3287 0.9646 0.4010
C53A C -0.3205(9) 0.9374(5) 0.2894(10)
H29A H -0.2883 0.9602 0.2695
C54A C -0.3445(9) 0.9007(6) 0.2404(7)
H30A H -0.3283 0.8989 0.1877
C55A C -0.3627(8) 0.8444(5) -0.0218(9)
C56A C -0.3628(9) 0.8416(6) -0.1048(8)
H31A H -0.3990 0.8574 -0.1341
C57A C -0.3088(10) 0.8154(6) -0.1441(7)
H32A H -0.3089 0.8135 -0.1996
C58A C -0.2547(9) 0.7918(6) -0.1004(10)
H33A H -0.2186 0.7743 -0.1266
C59A C -0.2546(8) 0.7946(5) -0.0174(10)
H34A H -0.2184 0.7788 0.0119
C60A C -0.3086(10) 0.8208(6) 0.0219(7)
H35A H -0.3085 0.8227 0.0775
C61A C -0.5709(10) 0.9112(6) 0.1485(10)
C62A C -0.6363(12) 0.9253(7) 0.1120(8)
H36A H -0.6395 0.9264 0.0565
C63A C -0.6969(9) 0.9380(6) 0.1585(12)
H37A H -0.7407 0.9475 0.1340
C64A C -0.6921(9) 0.9365(7) 0.2414(12)
H38A H -0.7327 0.9449 0.2725
C65A C -0.6267(12) 0.9223(7) 0.2779(8)
H39A H -0.6235 0.9213 0.3334
C66A C -0.5661(9) 0.9097(6) 0.2315(11)
H40A H -0.5223 0.9002 0.2559
C67A C -0.7037(6) 0.7705(5) 0.4003(5)
C68A C -0.7630(5) 0.7704(5) 0.3475(7)
H41A H -0.8100 0.7625 0.3656
C69A C -0.7521(6) 0.7821(5) 0.2676(6)
H42A H -0.7918 0.7820 0.2322
C70A C -0.6818(7) 0.7939(5) 0.2405(5)
H43A H -0.6745 0.8017 0.1870
C71A C -0.6225(5) 0.7940(5) 0.2933(7)
H44A H -0.5755 0.8019 0.2752
C72A C -0.6334(5) 0.7823(5) 0.3732(6)
H45A H -0.5937 0.7824 0.4085
C73A C -0.6778(8) 0.6938(6) 0.6725(7)
C74A C -0.6464(8) 0.6494(6) 0.6595(7)
H46A H -0.6348 0.6398 0.6078
C75A C -0.6325(9) 0.6194(5) 0.7238(10)
H47A H -0.6115 0.5897 0.7151
C76A C -0.6500(9) 0.6338(6) 0.8010(8)
H48A H -0.6406 0.6137 0.8440
C77A C -0.6813(9) 0.6781(7) 0.8140(7)
H49A H -0.6930 0.6877 0.8657
C78A C -0.6952(8) 0.7081(5) 0.7498(9)
H50A H -0.7162 0.7378 0.7585
C79A C -0.6275(7) 0.6524(5) 0.3961(8)
C80A C -0.6934(8) 0.6345(5) 0.4263(7)
H51A H -0.7041 0.6374 0.4804
C81A C -0.7433(7) 0.6122(5) 0.3754(9)
H52A H -0.7874 0.6002 0.3956
C82A C -0.7273(8) 0.6078(5) 0.2945(9)
H53A H -0.7607 0.5929 0.2605
C83A C -0.6614(9) 0.6257(6) 0.2643(7)
H54A H -0.6507 0.6228 0.2101
C84A C -0.6114(7) 0.6480(5) 0.3151(9)
H55A H -0.5673 0.6600 0.2949
C85A C -0.4968(8) 0.7648(5) 0.5919(8)
C86A C -0.5209(8) 0.7629(5) 0.6707(9)
H56A H -0.5488 0.7372 0.6883
C87A C -0.5034(10) 0.7993(7) 0.7234(7)
H57A H -0.5195 0.7980 0.7762
C88A C -0.4617(10) 0.8377(5) 0.6972(9)
H58A H -0.4499 0.8621 0.7324
C89A C -0.4376(9) 0.8397(5) 0.6183(10)
H59A H -0.4097 0.8654 0.6008
C90A C -0.4552(9) 0.8032(6) 0.5656(7)
H60A H -0.4390 0.8045 0.5129
Cu1B Cu 0.40208(14) 0.04848(8) -0.09719(12)
Cu1C Cu -0.40208(14) 0.95152(8) -0.09719(12)
Cu5B Cu -0.86827(11) 0.78553(9) 0.51237(13)
Cu5C Cu 0.86827(11) 0.21447(9) 0.51237(13)
Cu6_2 Cu -0.5000 1.0000 0.03133(17)
Cu7B Cu -0.34348(12) 0.76515(9) 0.32878(12)
Cu7C Cu 0.34348(12) 0.23485(9) 0.32878(12)
N6B N -0.9094(8) 0.7163(5) 0.7508(7)
N6C N 0.9094(8) 0.2837(5) 0.7508(7)
N10B N -0.2740(7) 0.7354(6) 0.4743(8)
N10C N 0.2740(7) 0.2646(6) 0.4743(8)
N11B N 0.0606(8) 0.5848(5) 0.0092(7)
N11C N -0.0606(8) 0.4152(5) 0.0092(7)
N12A_2 N 0.5089(8) -0.0645(5) 0.0336(7)
loop_
_geom_bond_atom_site_label_1
_geom_bond_atom_site_label_2
_geom_bond_site_symmetry_1
_geom_bond_site_symmetry_2
Cu1 N1 1_555 1_555
Cu2 N2 1_555 1_555
Cu3 N3 1_555 1_555
Cu4 N4 1_555 1_555
Cu5 N7 1_555 1_555
Cu6 N12 1_555 1_555
Cu7 N9 1_555 1_555
N1 N2 1_555 1_555
N2 C3 1_555 1_555
N3 N4 1_555 1_555
N4 C5 1_555 1_555
N5 Cu3 1_555 1_555
N6 N5 1_555 1_555
N7 N8 1_555 1_555
N8 Cu4 1_555 1_555
N9 N10 1_555 1_555
N10 C16 1_555 1_555
N11 N12 1_555 1_555
N12 C11 1_555 1_555
C1 N1 1_555 1_555
C2 C1 1_555 1_555
C3 C2 1_555 1_555
C4 C2 1_555 1_555
C5 C4 1_555 1_555
C6 N3 1_555 1_555
C7 N5 1_555 1_555
C8 N6 1_555 1_555
C9 C10 1_555 1_555
C10 N11 1_555 1_555
C11 C9 1_555 1_555
C12 N8 1_555 1_555
C13 C12 1_555 1_555
C14 N7 1_555 1_555
C15 C13 1_555 1_555
C16 C15 1_555 1_555
C17 N9 1_555 1_555
C18 C3 1_555 1_555
C19 C18 1_555 1_555
H1 C19 1_555 1_555
C20 C19 1_555 1_555
H2 C20 1_555 1_555
C21 C20 1_555 1_555
H3 C21 1_555 1_555
C22 C21 1_555 1_555
H4 C22 1_555 1_555
C23 C18 1_555 1_555
H5 C23 1_555 1_555
C24 C7 1_555 1_555
C25 C1 1_555 1_555
C26 C25 1_555 1_555
H6 C26 1_555 1_555
C27 C26 1_555 1_555
H7 C27 1_555 1_555
C28 C27 1_555 1_555
H8 C28 1_555 1_555
C29 C28 1_555 1_555
H9 C29 1_555 1_555
C30 C25 1_555 1_555
H10 C30 1_555 1_555
C31 C5 1_555 1_555
C32 C31 1_555 1_555
H11 C32 1_555 1_555
C33 C32 1_555 1_555
H12 C33 1_555 1_555
C34 C33 1_555 1_555
H13 C34 1_555 1_555
C35 C34 1_555 1_555
H14 C35 1_555 1_555
C36 C31 1_555 1_555
H15 C36 1_555 1_555
C37 C6 1_555 1_555
C38 C37 1_555 1_555
H16 C38 1_555 1_555
C39 C38 1_555 1_555
H17 C39 1_555 1_555
C40 C39 1_555 1_555
H18 C40 1_555 1_555
C41 C40 1_555 1_555
H19 C41 1_555 1_555
C42 C37 1_555 1_555
H20 C42 1_555 1_555
C43 C7 1_555 1_555
C44 C43 1_555 1_555
H21 C44 1_555 1_555
C45 C44 1_555 1_555
H22 C45 1_555 1_555
C46 C45 1_555 1_555
H23 C46 1_555 1_555
C47 C46 1_555 1_555
H24 C47 1_555 1_555
C48 C43 1_555 1_555
H25 C48 1_555 1_555
C49 C8 1_555 1_555
C50 C49 1_555 1_555
H26 C50 1_555 1_555
C51 C50 1_555 1_555
H27 C51 1_555 1_555
C52 C51 1_555 1_555
H28 C52 1_555 1_555
C53 C52 1_555 1_555
H29 C53 1_555 1_555
C54 C49 1_555 1_555
H30 C54 1_555 1_555
C55 C10 1_555 1_555
C56 C55 1_555 1_555
H31 C56 1_555 1_555
C57 C56 1_555 1_555
H32 C57 1_555 1_555
C58 C57 1_555 1_555
H33 C58 1_555 1_555
C59 C58 1_555 1_555
H34 C59 1_555 1_555
C60 C55 1_555 1_555
H35 C60 1_555 1_555
C61 C11 1_555 1_555
C62 C61 1_555 1_555
H36 C62 1_555 1_555
C63 C62 1_555 1_555
H37 C63 1_555 1_555
C64 C63 1_555 1_555
H38 C64 1_555 1_555
C65 C64 1_555 1_555
H39 C65 1_555 1_555
C66 C61 1_555 1_555
H40 C66 1_555 1_555
C67 C16 1_555 1_555
C68 C67 1_555 1_555
H41 C68 1_555 1_555
C69 C68 1_555 1_555
H42 C69 1_555 1_555
C70 C69 1_555 1_555
H43 C70 1_555 1_555
C71 C70 1_555 1_555
H44 C71 1_555 1_555
C72 C67 1_555 1_555
H45 C72 1_555 1_555
C73 C17 1_555 1_555
C74 C73 1_555 1_555
H46 C74 1_555 1_555
C75 C74 1_555 1_555
H47 C75 1_555 1_555
C76 C75 1_555 1_555
H48 C76 1_555 1_555
C77 C76 1_555 1_555
H49 C77 1_555 1_555
C78 C73 1_555 1_555
H50 C78 1_555 1_555
C79 C12 1_555 1_555
C80 C79 1_555 1_555
H51 C80 1_555 1_555
C81 C80 1_555 1_555
H52 C81 1_555 1_555
C82 C81 1_555 1_555
H53 C82 1_555 1_555
C83 C82 1_555 1_555
H54 C83 1_555 1_555
C84 C79 1_555 1_555
H55 C84 1_555 1_555
C85 C14 1_555 1_555
C86 C85 1_555 1_555
H56 C86 1_555 1_555
C87 C86 1_555 1_555
H57 C87 1_555 1_555
C88 C87 1_555 1_555
H58 C88 1_555 1_555
C89 C88 1_555 1_555
H59 C89 1_555 1_555
C90 C85 1_555 1_555
H60 C90 1_555 1_555
Cu1A N1A 1_555 1_555
Cu3A N3A 1_555 1_555
Cu4A N4A 1_555 1_555
Cu5A N7A 1_555 1_555
Cu7A N9A 1_555 1_555
N1A N2A 1_555 1_555
N2A Cu2 1_555 1_555
N3A N4A 1_555 1_555
N4A C5A 1_555 1_555
N5A Cu3A 1_555 1_555
N6A N5A 1_555 1_555
N7A N8A 1_555 1_555
N8A Cu4A 1_555 1_555
N9A N10A 1_555 1_555
N10A C16A 1_555 1_555
N11A N12A 1_555 1_555
N12A C11A 1_555 1_555
C1A N1A 1_555 1_555
C2A C1A 1_555 1_555
C3A N2A 1_555 1_555
C4A C2A 1_555 1_555
C5A C4A 1_555 1_555
C6A N3A 1_555 1_555
C7A N5A 1_555 1_555
C8A N6A 1_555 1_555
C9A C10A 1_555 1_555
C10A N11A 1_555 1_555
C11A C9A 1_555 1_555
C12A N8A 1_555 1_555
C13A C12A 1_555 1_555
C14A N7A 1_555 1_555
C15A C13A 1_555 1_555
C16A C15A 1_555 1_555
C17A N9A 1_555 1_555
C18A C3A 1_555 1_555
C19A C18A 1_555 1_555
H1A C19A 1_555 1_555
C20A C19A 1_555 1_555
H2A C20A 1_555 1_555
C21A C20A 1_555 1_555
H3A C21A 1_555 1_555
C22A C21A 1_555 1_555
H4A C22A 1_555 1_555
C23A C18A 1_555 1_555
H5A C23A 1_555 1_555
C24A C7A 1_555 1_555
C25A C1A 1_555 1_555
C26A C25A 1_555 1_555
H6A C26A 1_555 1_555
C27A C26A 1_555 1_555
H7A C27A 1_555 1_555
C28A C27A 1_555 1_555
H8A C28A 1_555 1_555
C29A C28A 1_555 1_555
H9A C29A 1_555 1_555
C30A C25A 1_555 1_555
H10A C30A 1_555 1_555
C31A C5A 1_555 1_555
C32A C31A 1_555 1_555
H11A C32A 1_555 1_555
C33A C32A 1_555 1_555
H12A C33A 1_555 1_555
C34A C33A 1_555 1_555
H13A C34A 1_555 1_555
C35A C34A 1_555 1_555
H14A C35A 1_555 1_555
C36A C31A 1_555 1_555
H15A C36A 1_555 1_555
C37A C6A 1_555 1_555
C38A C37A 1_555 1_555
H16A C38A 1_555 1_555
C39A C38A 1_555 1_555
H17A C39A 1_555 1_555
C40A C39A 1_555 1_555
H18A C40A 1_555 1_555
C41A C40A 1_555 1_555
H19A C41A 1_555 1_555
C42A C37A 1_555 1_555
H20A C42A 1_555 1_555
C43A C7A 1_555 1_555
C44A C43A 1_555 1_555
H21A C44A 1_555 1_555
C45A C44A 1_555 1_555
H22A C45A 1_555 1_555
C46A C45A 1_555 1_555
H23A C46A 1_555 1_555
C47A C46A 1_555 1_555
H24A C47A 1_555 1_555
C48A C43A 1_555 1_555
H25A C48A 1_555 1_555
C49A C8A 1_555 1_555
C50A C49A 1_555 1_555
H26A C50A 1_555 1_555
C51A C50A 1_555 1_555
H27A C51A 1_555 1_555
C52A C51A 1_555 1_555
H28A C52A 1_555 1_555
C53A C52A 1_555 1_555
H29A C53A 1_555 1_555
C54A C49A 1_555 1_555
H30A C54A 1_555 1_555
C55A C10A 1_555 1_555
C56A C55A 1_555 1_555
H31A C56A 1_555 1_555
C57A C56A 1_555 1_555
H32A C57A 1_555 1_555
C58A C57A 1_555 1_555
H33A C58A 1_555 1_555
C59A C58A 1_555 1_555
H34A C59A 1_555 1_555
C60A C55A 1_555 1_555
H35A C60A 1_555 1_555
C61A C11A 1_555 1_555
C62A C61A 1_555 1_555
H36A C62A 1_555 1_555
C63A C62A 1_555 1_555
H37A C63A 1_555 1_555
C64A C63A 1_555 1_555
H38A C64A 1_555 1_555
C65A C64A 1_555 1_555
H39A C65A 1_555 1_555
C66A C61A 1_555 1_555
H40A C66A 1_555 1_555
C67A C16A 1_555 1_555
C68A C67A 1_555 1_555
H41A C68A 1_555 1_555
C69A C68A 1_555 1_555
H42A C69A 1_555 1_555
C70A C69A 1_555 1_555
H43A C70A 1_555 1_555
C71A C70A 1_555 1_555
H44A C71A 1_555 1_555
C72A C67A 1_555 1_555
H45A C72A 1_555 1_555
C73A C17A 1_555 1_555
C74A C73A 1_555 1_555
H46A C74A 1_555 1_555
C75A C74A 1_555 1_555
H47A C75A 1_555 1_555
C76A C75A 1_555 1_555
H48A C76A 1_555 1_555
C77A C76A 1_555 1_555
H49A C77A 1_555 1_555
C78A C73A 1_555 1_555
H50A C78A 1_555 1_555
C79A C12A 1_555 1_555
C80A C79A 1_555 1_555
H51A C80A 1_555 1_555
C81A C80A 1_555 1_555
H52A C81A 1_555 1_555
C82A C81A 1_555 1_555
H53A C82A 1_555 1_555
C83A C82A 1_555 1_555
H54A C83A 1_555 1_555
C84A C79A 1_555 1_555
H55A C84A 1_555 1_555
C85A C14A 1_555 1_555
C86A C85A 1_555 1_555
H56A C86A 1_555 1_555
C87A C86A 1_555 1_555
H57A C87A 1_555 1_555
C88A C87A 1_555 1_555
H58A C88A 1_555 1_555
C89A C88A 1_555 1_555
H59A C89A 1_555 1_555
C90A C85A 1_555 1_555
H60A C90A 1_555 1_555
Cu1B N11 1_555 1_555
Cu1C N11A 1_555 1_555
Cu5B N10A 1_555 1_555
Cu5C N10 1_555 1_555
Cu6_2 N12A 1_555 1_555
Cu7B N6A 1_555 1_555
Cu7C N6 1_555 1_555
N6B Cu7A 1_555 1_555
N6C Cu7 1_555 1_555
N10B Cu5A 1_555 1_555
N10C Cu5 1_555 1_555
N11B Cu1 1_555 1_555
N11C Cu1A 1_555 1_555
N12A_2 Cu6 1_555 1_555
C4 C6 1_555 1_555
C8 C24 1_555 1_555
C9 C24 1_555 1_555
C13 C14 1_555 1_555
C15 C17 1_555 1_555
C22 C23 1_555 1_555
C29 C30 1_555 1_555
C35 C36 1_555 1_555
C41 C42 1_555 1_555
C47 C48 1_555 1_555
C53 C54 1_555 1_555
C59 C60 1_555 1_555
C65 C66 1_555 1_555
C71 C72 1_555 1_555
C77 C78 1_555 1_555
C83 C84 1_555 1_555
C89 C90 1_555 1_555
C2A C3A 1_555 1_555
C4A C6A 1_555 1_555
C8A C24A 1_555 1_555
C9A C24A 1_555 1_555
C13A C14A 1_555 1_555
C15A C17A 1_555 1_555
C22A C23A 1_555 1_555
C29A C30A 1_555 1_555
C35A C36A 1_555 1_555
C41A C42A 1_555 1_555
C47A C48A 1_555 1_555
C53A C54A 1_555 1_555
C59A C60A 1_555 1_555
C65A C66A 1_555 1_555
C71A C72A 1_555 1_555
C77A C78A 1_555 1_555
C83A C84A 1_555 1_555
C89A C90A 1_555 1_555

#END
