
#######################################################################
#
#                 Cambridge Crystallographic Data Centre
#                                CCDC 
#
#######################################################################
#
# If this CIF has been generated from an entry in the Cambridge 
# Structural Database, then it will include bibliographic, chemical, 
# crystal, experimental, refinement or atomic coordinate data resulting 
# from the CCDC's data processing and validation procedures.
#
#######################################################################

data_CEJBEA
_chemical_formula_moiety         '(C68 H50 Dy3 N7 O24)n'
_symmetry_cell_setting           triclinic
_symmetry_space_group_name_H-M   'P -1'
_symmetry_Int_Tables_number      2
_space_group_name_Hall           '-P 1'
loop_
_symmetry_equiv_pos_site_id
_symmetry_equiv_pos_as_xyz
1 x,y,z
2 -x,-y,-z
_cell_length_a                   10.286(2)
_cell_length_b                   19.161(4)
_cell_length_c                   19.787(4)
_cell_angle_alpha                77.52(3)
_cell_angle_beta                 76.72(3)
_cell_angle_gamma                81.02(3)
_cell_volume                     3682.53
loop_
_atom_site_label
_atom_site_type_symbol
_atom_site_fract_x
_atom_site_fract_y
_atom_site_fract_z
Dy1 Dy 0.632997(13) 0.058325(7) 0.428431(8)
Dy2 Dy 0.183917(14) 0.519360(7) 0.432388(7)
Dy3 Dy 0.148440(13) 0.419970(8) 1.038590(7)
O1 O 0.8660(2) 0.01045(14) 0.43766(13)
O2 O 0.8150(2) 0.02828(13) 0.33312(13)
O3 O 1.4822(2) 0.02109(14) 0.37390(13)
O4 O 1.3544(2) -0.05436(12) 0.45540(12)
O5 O 0.4699(2) 0.15893(13) 0.45440(14)
O6 O 0.3870(2) 0.06112(11) 0.51761(14)
O7 O 0.1881(3) 0.39499(13) 0.47162(15)
O8 O -0.0054(3) 0.39669(14) 0.54867(15)
O9 O 0.1636(3) 0.51193(14) 0.55120(12)
O10 O -0.0333(2) 0.50952(14) 0.62635(12)
O11 O 0.1462(3) 0.44473(16) 0.91954(13)
O12 O 0.0126(3) 0.53643(14) 0.87232(13)
O13 O 0.1594(2) 0.54237(13) 1.01203(15)
O14 O 0.0239(2) 0.63720(14) 0.97212(14)
O15 O 0.6863(2) 0.68164(14) 0.98776(15)
O16 O 0.6177(2) 0.57403(14) 1.01789(14)
O17 O 0.4171(3) 0.47037(16) 0.44751(16)
O18 O 0.3600(3) 0.4679(2) 0.35107(15)
O19 O 0.5457(3) 0.4068(2) 0.3739(2)
N1 N 0.2204(3) 0.60777(18) 0.31417(16)
N2 N 0.3040(3) 0.62726(16) 0.42822(17)
N3 N 0.7681(3) 0.16252(16) 0.41506(19)
N4 N 0.6303(3) 0.15360(17) 0.31423(17)
N5 N 0.1234(3) 0.31100(16) 1.14498(15)
N6 N 0.2830(3) 0.41482(16) 1.13146(15)
N7 N 0.4445(3) 0.4481(2) 0.39099(19)
C1 C 1.0489(3) 0.00614(17) 0.33941(17)
C2 C 1.1435(3) -0.00083(17) 0.38103(18)
H1 H 1.1158 -0.0035 0.4296
C3 C 1.2800(3) -0.00390(17) 0.35027(17)
C4 C 1.3193(3) -0.0004(2) 0.27819(19)
H2 H 1.4099 -0.0003 0.2570
C5 C 1.2258(4) 0.0031(2) 0.23726(19)
H3 H 1.2540 0.0034 0.1891
C6 C 1.0905(3) 0.0060(2) 0.26754(19)
H4 H 1.0276 0.0079 0.2399
C7 C 0.9020(3) 0.01490(17) 0.37275(18)
C8 C 1.3809(3) -0.01349(18) 0.39719(17)
C9 C 0.2738(3) 0.17406(16) 0.54128(18)
C10 C 0.2432(3) 0.24651(16) 0.51411(18)
H5 H 0.2934 0.2674 0.4711
C11 C 0.1397(3) 0.28778(17) 0.5499(2)
C12 C 0.0650(4) 0.2568(2) 0.6142(3)
H6 H -0.0050 0.2845 0.6387
C13 C 0.0948(6) 0.1850(2) 0.6419(3)
H7 H 0.0438 0.1643 0.6847
C14 C 0.1999(5) 0.14360(19) 0.6066(2)
H8 H 0.2214 0.0957 0.6263
C15 C 0.3828(3) 0.12935(16) 0.50161(18)
C16 C 0.1049(3) 0.36532(17) 0.5212(2)
C17 C 0.1653(3) 0.48024(18) 0.67237(16)
C18 C 0.1040(3) 0.49159(16) 0.73941(15)
H9 H 0.0166 0.5143 0.7470
C19 C 0.1691(3) 0.47004(17) 0.79600(16)
C20 C 0.2972(4) 0.4355(2) 0.7845(2)
H10 H 0.3411 0.4193 0.8221
C21 C 0.3623(4) 0.4244(3) 0.7169(2)
H11 H 0.4495 0.4014 0.7094
C22 C 0.2967(4) 0.4477(3) 0.66103(19)
H12 H 0.3407 0.4415 0.6157
C23 C 0.0923(3) 0.50234(17) 0.61227(16)
C24 C 0.1042(3) 0.48496(18) 0.86803(16)
C25 C 0.2278(3) 0.65788(17) 0.99667(16)
C26 C 0.3604(3) 0.63055(19) 0.99856(17)
H13 H 0.3885 0.5823 0.9969
C27 C 0.4506(3) 0.67492(19) 1.00292(17)
C28 C 0.4113(4) 0.7461(2) 1.0048(2)
H14 H 0.4730 0.7755 1.0076
C29 C 0.2785(4) 0.7746(2) 1.0024(2)
H15 H 0.2514 0.8230 1.0038
C30 C 0.1875(3) 0.7304(2) 0.9981(2)
H16 H 0.0991 0.7492 0.9961
C31 C 0.1300(3) 0.60875(17) 0.99360(17)
C32 C 0.5927(3) 0.6420(2) 1.00429(18)
C33 C 0.8399(4) 0.1651(2) 0.4622(3)
H17 H 0.8408 0.1274 0.5007
C34 C 0.9148(5) 0.2227(3) 0.4563(3)
H18 H 0.9642 0.2233 0.4900
C35 C 0.9123(6) 0.2768(3) 0.4001(3)
H19 H 0.9613 0.3151 0.3954
C36 C 0.8403(5) 0.2773(2) 0.3497(3)
C37 C 0.7679(4) 0.2170(2) 0.3587(3)
C38 C 0.8319(6) 0.3320(3) 0.2810(3)
H20 H 0.8727 0.3737 0.2739
C39 C 0.7767(6) 0.3251(4) 0.2356(4)
H21 H 0.7808 0.3616 0.1958
C40 C 0.7036(5) 0.2646(2) 0.2375(3)
C41 C 0.6399(6) 0.2539(3) 0.1892(3)
H22 H 0.6403 0.2878 0.1477
C42 C 0.5771(6) 0.1970(3) 0.1991(3)
H23 H 0.5363 0.1896 0.1642
C43 C 0.5720(5) 0.1474(3) 0.2629(2)
H24 H 0.5251 0.1078 0.2697
C44 C 0.6986(4) 0.2120(2) 0.3049(3)
C45 C 0.3539(4) 0.6350(2) 0.4811(2)
H25 H 0.3505 0.5978 0.5202
C46 C 0.4121(5) 0.6961(3) 0.4820(3)
H26 H 0.4503 0.6982 0.5197
C47 C 0.4113(6) 0.7519(3) 0.4270(3)
H27 H 0.4454 0.7939 0.4276
C48 C 0.3604(5) 0.7466(2) 0.3702(3)
C49 C 0.3104(4) 0.68143(19) 0.3713(2)
C50 C 0.3543(8) 0.8016(3) 0.3078(5)
H28 H 0.3813 0.8460 0.3069
C51 C 0.3132(9) 0.7932(3) 0.2523(4)
H29 H 0.3124 0.8308 0.2137
C52 C 0.2702(6) 0.7270(3) 0.2507(3)
C53 C 0.2331(8) 0.7137(4) 0.1935(3)
H30 H 0.2346 0.7493 0.1532
C54 C 0.1937(7) 0.6489(4) 0.1945(3)
H31 H 0.1705 0.6394 0.1549
C55 C 0.1888(5) 0.5960(3) 0.2569(2)
H32 H 0.1624 0.5516 0.2576
C56 C 0.2639(4) 0.6714(2) 0.3111(2)
C57 C 0.0534(4) 0.2564(2) 1.1500(2)
H33 H 0.0064 0.2577 1.1147
C58 C 0.0474(5) 0.1974(2) 1.2057(3)
H34 H -0.0035 0.1607 1.2074
C59 C 0.1170(5) 0.1940(3) 1.2575(3)
H35 H 0.1148 0.1545 1.2945
C60 C 0.1916(4) 0.2498(2) 1.2551(2)
C61 C 0.1941(3) 0.3073(2) 1.19641(18)
C62 C 0.2678(5) 0.2508(3) 1.3076(2)
H36 H 0.2612 0.2150 1.3479
C63 C 0.3475(5) 0.3018(3) 1.2996(2)
H37 H 0.3974 0.3002 1.3337
C64 C 0.3573(4) 0.3592(2) 1.23925(19)
C65 C 0.4499(4) 0.4094(2) 1.2252(2)
H38 H 0.5066 0.4071 1.2562
C66 C 0.4565(4) 0.4607(3) 1.1670(2)
H39 H 0.5186 0.4939 1.1567
C67 C 0.3686(4) 0.4634(2) 1.1222(2)
H40 H 0.3696 0.5011 1.0836
C68 C 0.2780(4) 0.3628(2) 1.18952(18)
Dy1_2 Dy 1.632997(13) 0.058325(7) 0.428431(8)
Dy1A Dy 1.367003(13) -0.058325(7) 0.571569(8)
Dy1A_2 Dy 0.367003(13) -0.058325(7) 0.571569(8)
Dy2A Dy -0.183917(14) 0.480640(7) 0.567612(7)
Dy3A Dy -0.148440(13) 0.580030(8) 0.961410(7)
Dy3A_2 Dy 0.851560(13) 0.580030(8) 0.961410(7)
O3_2 O 0.4822(2) 0.02109(14) 0.37390(13)
O4A O 0.6456(2) 0.05436(12) 0.54460(12)
O6A O 0.6130(2) -0.06112(11) 0.48239(14)
O8A O 0.0054(3) 0.60331(14) 0.45133(15)
O10A O 0.0333(2) 0.49048(14) 0.37365(12)
O12A O -0.0126(3) 0.46357(14) 1.12768(13)
O14A O -0.0239(2) 0.36280(14) 1.02788(14)
O15A O 0.3137(2) 0.31836(14) 1.01224(15)
O16A O 0.3823(2) 0.42597(14) 0.98211(14)
O20 O -0.207(2) 0.7605(13) 0.1671(12)
H41 H -0.2599 0.7989 0.1592
H42 H -0.1292 0.7665 0.1424
O21 O -0.3246(16) 0.8454(9) 0.9340(9)
H43 H -0.3588 0.8542 0.9751
H44 H -0.2626 0.8721 0.9142
O22 O 0.390(2) 0.9138(12) 0.0673(11)
H45 H 0.3705 0.9593 0.0592
H46 H 0.4741 0.9034 0.0557
O23 O 0.829(2) 0.0371(14) 0.1385(13)
H47 H 0.8734 0.0723 0.1175
H48 H 0.8799 -0.0021 0.1358
O24 O 0.140(2) 0.9480(13) 0.0843(12)
H49 H 0.1090 0.9922 0.0787
H50 H 0.2243 0.9442 0.0677
loop_
_geom_bond_atom_site_label_1
_geom_bond_atom_site_label_2
_geom_bond_site_symmetry_1
_geom_bond_site_symmetry_2
Dy1 O1 1_555 1_555
Dy2 O7 1_555 1_555
Dy3 O11 1_555 1_555
O1 C7 1_555 1_555
O2 Dy1 1_555 1_555
O3 C8 1_555 1_555
O4 C8 1_555 1_555
O5 Dy1 1_555 1_555
O6 Dy1 1_555 1_555
O7 C16 1_555 1_555
O8 C16 1_555 1_555
O9 Dy2 1_555 1_555
O10 C23 1_555 1_555
O11 C24 1_555 1_555
O12 C24 1_555 1_555
O13 Dy3 1_555 1_555
O14 C31 1_555 1_555
O15 C32 1_555 1_555
O16 C32 1_555 1_555
O17 Dy2 1_555 1_555
O18 Dy2 1_555 1_555
O19 N7 1_555 1_555
N1 Dy2 1_555 1_555
N2 Dy2 1_555 1_555
N3 Dy1 1_555 1_555
N4 Dy1 1_555 1_555
N5 Dy3 1_555 1_555
N6 Dy3 1_555 1_555
N7 O17 1_555 1_555
C1 C2 1_555 1_555
C2 H1 1_555 1_555
C3 C2 1_555 1_555
C4 C3 1_555 1_555
H2 C4 1_555 1_555
C5 C4 1_555 1_555
H3 C5 1_555 1_555
C6 C1 1_555 1_555
H4 C6 1_555 1_555
C7 O2 1_555 1_555
C8 C3 1_555 1_555
C9 C10 1_555 1_555
C10 H5 1_555 1_555
C11 C10 1_555 1_555
C12 C11 1_555 1_555
H6 C12 1_555 1_555
C13 C12 1_555 1_555
H7 C13 1_555 1_555
C14 C9 1_555 1_555
H8 C14 1_555 1_555
C15 O5 1_555 1_555
C16 C11 1_555 1_555
C17 C18 1_555 1_555
C18 H9 1_555 1_555
C19 C18 1_555 1_555
C20 C19 1_555 1_555
H10 C20 1_555 1_555
C21 C20 1_555 1_555
H11 C21 1_555 1_555
C22 C17 1_555 1_555
H12 C22 1_555 1_555
C23 O9 1_555 1_555
C24 C19 1_555 1_555
C25 C26 1_555 1_555
C26 H13 1_555 1_555
C27 C26 1_555 1_555
C28 C27 1_555 1_555
H14 C28 1_555 1_555
C29 C28 1_555 1_555
H15 C29 1_555 1_555
C30 C25 1_555 1_555
H16 C30 1_555 1_555
C31 O13 1_555 1_555
C32 C27 1_555 1_555
C33 N3 1_555 1_555
H17 C33 1_555 1_555
C34 C33 1_555 1_555
H18 C34 1_555 1_555
C35 C34 1_555 1_555
H19 C35 1_555 1_555
C36 C35 1_555 1_555
C37 N3 1_555 1_555
C38 C36 1_555 1_555
H20 C38 1_555 1_555
C39 C38 1_555 1_555
H21 C39 1_555 1_555
C40 C39 1_555 1_555
C41 C40 1_555 1_555
H22 C41 1_555 1_555
C42 C41 1_555 1_555
H23 C42 1_555 1_555
C43 N4 1_555 1_555
H24 C43 1_555 1_555
C44 N4 1_555 1_555
C45 N2 1_555 1_555
H25 C45 1_555 1_555
C46 C45 1_555 1_555
H26 C46 1_555 1_555
C47 C46 1_555 1_555
H27 C47 1_555 1_555
C48 C47 1_555 1_555
C49 N2 1_555 1_555
C50 C48 1_555 1_555
H28 C50 1_555 1_555
C51 C50 1_555 1_555
H29 C51 1_555 1_555
C52 C51 1_555 1_555
C53 C52 1_555 1_555
H30 C53 1_555 1_555
C54 C53 1_555 1_555
H31 C54 1_555 1_555
C55 N1 1_555 1_555
H32 C55 1_555 1_555
C56 N1 1_555 1_555
C57 N5 1_555 1_555
H33 C57 1_555 1_555
C58 C57 1_555 1_555
H34 C58 1_555 1_555
C59 C58 1_555 1_555
H35 C59 1_555 1_555
C60 C59 1_555 1_555
C61 N5 1_555 1_555
C62 C60 1_555 1_555
H36 C62 1_555 1_555
C63 C62 1_555 1_555
H37 C63 1_555 1_555
C64 C63 1_555 1_555
C65 C64 1_555 1_555
H38 C65 1_555 1_555
C66 C65 1_555 1_555
H39 C66 1_555 1_555
C67 N6 1_555 1_555
H40 C67 1_555 1_555
C68 N6 1_555 1_555
O20 H41 1_555 1_555
H42 O20 1_555 1_555
O21 H43 1_555 1_555
H44 O21 1_555 1_555
O22 H45 1_555 1_555
H46 O22 1_555 1_555
O23 H47 1_555 1_555
H48 O23 1_555 1_555
O24 H49 1_555 1_555
H50 O24 1_555 1_555
Dy1_2 O3 1_555 1_555
Dy1A O4 1_555 1_555
Dy1A_2 O6 1_555 1_555
Dy2A O8 1_555 1_555
Dy3A O12 1_555 1_555
Dy3A_2 O15 1_555 1_555
O3_2 Dy1 1_555 1_555
O4A Dy1 1_555 1_555
O6A Dy1 1_555 1_555
O8A Dy2 1_555 1_555
O10A Dy2 1_555 1_555
O12A Dy3 1_555 1_555
O14A Dy3 1_555 1_555
O15A Dy3 1_555 1_555
O16A Dy3 1_555 1_555
O6 C15 1_555 1_555
O10 Dy2A 1_555 1_555
O14 Dy3A 1_555 1_555
O16 Dy3A_2 1_555 1_555
O18 N7 1_555 1_555
C1 C7 1_555 1_555
C5 C6 1_555 1_555
C9 C15 1_555 1_555
C13 C14 1_555 1_555
C17 C23 1_555 1_555
C21 C22 1_555 1_555
C25 C31 1_555 1_555
C29 C30 1_555 1_555
C36 C37 1_555 1_555
C37 C44 1_555 1_555
C40 C44 1_555 1_555
C42 C43 1_555 1_555
C48 C49 1_555 1_555
C49 C56 1_555 1_555
C52 C56 1_555 1_555
C54 C55 1_555 1_555
C60 C61 1_555 1_555
C61 C68 1_555 1_555
C64 C68 1_555 1_555
C66 C67 1_555 1_555
Dy1A_2 O6A 1_555 1_555

#END
