
#######################################################################
#
#                 Cambridge Crystallographic Data Centre
#                                CCDC 
#
#######################################################################
#
# If this CIF has been generated from an entry in the Cambridge 
# Structural Database, then it will include bibliographic, chemical, 
# crystal, experimental, refinement or atomic coordinate data resulting 
# from the CCDC's data processing and validation procedures.
#
#######################################################################

data_KINDOC
_chemical_formula_moiety         '(C42 H58 N2 O18 Tm2)n'
_symmetry_cell_setting           triclinic
_symmetry_space_group_name_H-M   'P -1'
_symmetry_Int_Tables_number      2
_space_group_name_Hall           '-P 1'
loop_
_symmetry_equiv_pos_site_id
_symmetry_equiv_pos_as_xyz
1 x,y,z
2 -x,-y,-z
_cell_length_a                   9.955(3)
_cell_length_b                   12.795(3)
_cell_length_c                   13.801(4)
_cell_angle_alpha                69.415(4)
_cell_angle_beta                 82.562(4)
_cell_angle_gamma                83.117(4)
_cell_volume                     1626.57
loop_
_atom_site_label
_atom_site_type_symbol
_atom_site_fract_x
_atom_site_fract_y
_atom_site_fract_z
Tm1 Tm 0.46981(2) 0.359648(19) 0.625193(18)
C1 C 0.5256(7) 0.2358(5) 0.4437(5)
C2 C 0.5114(8) 0.1119(5) 0.4735(5)
C3 C 0.6125(8) 0.0375(6) 0.5264(6)
C4 C 0.7291(9) 0.0798(7) 0.5523(8)
H1 H 0.8103 0.0620 0.5135
H2 H 0.7386 0.0455 0.6254
H3 H 0.7145 0.1595 0.5350
C5 C 0.3992(8) 0.0764(6) 0.4468(6)
C6 C 0.2929(11) 0.1589(7) 0.3885(8)
H4 H 0.3107 0.2331 0.3824
H5 H 0.2051 0.1422 0.4253
H6 H 0.2948 0.1542 0.3204
C7 C 0.7317(6) 0.4270(5) 0.5485(5)
C8 C 0.8716(6) 0.4657(5) 0.5219(5)
C9 C 0.9149(6) 0.5199(5) 0.5817(5)
C10 C 0.8207(8) 0.5386(7) 0.6693(6)
H7 H 0.7317 0.5641 0.6466
H8 H 0.8541 0.5940 0.6902
H9 H 0.8163 0.4696 0.7270
C11 C 0.9544(7) 0.4444(5) 0.4404(5)
C12 C 0.9031(8) 0.3858(8) 0.3778(7)
H10 H 0.8207 0.3528 0.4128
H11 H 0.9702 0.3282 0.3697
H12 H 0.8854 0.4387 0.3106
C13 C 0.4948(7) 0.1825(6) 0.8063(6)
C14 C 0.4982(7) 0.0869(6) 0.9080(5)
C15 C 0.6130(8) 0.0139(7) 0.9264(6)
C16 C 0.7351(10) 0.0313(10) 0.8505(7)
H13 H 0.7249 0.1039 0.7980
H14 H 0.7458 -0.0253 0.8187
H15 H 0.8139 0.0265 0.8858
C17 C 0.3861(8) 0.0740(6) 0.9792(5)
C18 C 0.2601(10) 0.1544(9) 0.9563(8)
H16 H 0.2848 0.2247 0.9059
H17 H 0.2195 0.1658 1.0191
H18 H 0.1964 0.1236 0.9292
C19 C 0.1898(8) 0.2627(7) 0.6457(7)
H19 H 0.2310 0.2408 0.5906
C20 C -0.0023(10) 0.2567(9) 0.7689(8)
H20 H 0.0076 0.1963 0.8335
H21 H -0.0968 0.2734 0.7577
H22 H 0.0341 0.3218 0.7714
C21 C 0.0062(12) 0.1542(11) 0.6474(10)
H23 H 0.0666 0.1393 0.5928
H24 H -0.0777 0.1912 0.6204
H25 H -0.0115 0.0850 0.7023
N1 N 0.0682(7) 0.2255(7) 0.6874(6)
O1 O 0.4715(6) 0.2849(4) 0.5056(4)
O2 O 0.4417(6) 0.4961(4) 0.6962(4)
H26 H 0.3831 0.5506 0.6639
H27 H 0.4105 0.4698 0.7622
O3 O 0.5893(8) 0.2844(5) 0.3613(5)
O4 O 0.7103(5) 0.3359(4) 0.6175(4)
O5 O 0.6332(4) 0.4869(3) 0.5033(3)
O6 O 0.4921(6) 0.1636(4) 0.7235(4)
O7 O 0.4943(7) 0.2806(4) 0.8036(4)
O8 O 0.2500(5) 0.3210(4) 0.6722(4)
C1A C 0.4744(7) -0.2358(5) 0.5563(5)
C2A C 0.4886(8) -0.1119(5) 0.5265(5)
C3A C 0.3875(8) -0.0375(6) 0.4736(6)
C4A C 0.2709(9) -0.0798(7) 0.4477(8)
H1A H 0.1897 -0.0620 0.4865
H2A H 0.2614 -0.0455 0.3746
H3A H 0.2855 -0.1595 0.4650
C5A C 0.6008(8) -0.0764(6) 0.5532(6)
C6A C 0.7071(11) -0.1589(7) 0.6115(8)
H4A H 0.6893 -0.2331 0.6176
H5A H 0.7949 -0.1422 0.5747
H6A H 0.7052 -0.1542 0.6796
O1A O 0.5285(6) -0.2849(4) 0.4944(4)
O3A O 0.4107(8) -0.2844(5) 0.6387(5)
C7A C 1.2683(6) 0.5730(5) 0.4515(5)
C8A C 1.1284(6) 0.5343(5) 0.4781(5)
C9A C 1.0851(6) 0.4801(5) 0.4183(5)
C10A C 1.1793(8) 0.4614(7) 0.3307(6)
H7A H 1.2683 0.4359 0.3534
H8A H 1.1459 0.4060 0.3098
H9A H 1.1837 0.5304 0.2730
C11A C 1.0456(7) 0.5556(5) 0.5596(5)
C12A C 1.0969(8) 0.6142(8) 0.6222(7)
H10A H 1.1793 0.6472 0.5872
H11A H 1.0298 0.6718 0.6303
H12A H 1.1146 0.5613 0.6894
O4A O 1.2897(5) 0.6641(4) 0.3825(4)
O5A O 1.3668(4) 0.5131(3) 0.4967(3)
C13A C 0.5052(7) -0.1825(6) 1.1937(6)
C14A C 0.5018(7) -0.0869(6) 1.0920(5)
C15A C 0.3870(8) -0.0139(7) 1.0736(6)
C16A C 0.2649(10) -0.0313(10) 1.1495(7)
H13A H 0.2751 -0.1039 1.2020
H14A H 0.2542 0.0253 1.1813
H15A H 0.1861 -0.0265 1.1142
C17A C 0.6139(8) -0.0740(6) 1.0208(5)
C18A C 0.7399(10) -0.1544(9) 1.0437(8)
H16A H 0.7152 -0.2247 1.0941
H17A H 0.7805 -0.1658 0.9809
H18A H 0.8036 -0.1236 1.0708
O6A O 0.5079(6) -0.1636(4) 1.2765(4)
O7A O 0.5057(7) -0.2806(4) 1.1964(4)
Tm1A Tm 0.53019(2) -0.359648(19) 0.374807(18)
C19A C 0.8102(8) -0.2627(7) 0.3543(7)
H19A H 0.7690 -0.2408 0.4094
C20A C 1.0023(10) -0.2567(9) 0.2311(8)
H20A H 0.9924 -0.1963 0.1665
H21A H 1.0968 -0.2734 0.2423
H22A H 0.9659 -0.3218 0.2286
C21A C 0.9938(12) -0.1542(11) 0.3526(10)
H23A H 0.9334 -0.1393 0.4072
H24A H 1.0777 -0.1912 0.3796
H25A H 1.0115 -0.0850 0.2977
N1A N 0.9318(7) -0.2255(7) 0.3126(6)
O2A O 0.5583(6) -0.4961(4) 0.3038(4)
H26A H 0.6169 -0.5506 0.3361
H27A H 0.5895 -0.4698 0.2378
O8A O 0.7500(5) -0.3210(4) 0.3278(4)
Tm1_2 Tm 1.46981(2) 0.359648(19) 0.625193(18)
Tm1A_2 Tm 0.53019(2) -0.359648(19) 1.374807(18)
Tm1A_3 Tm 0.53019(2) 0.640352(19) 0.374807(18)
Tm1A_4 Tm 1.53019(2) 0.640352(19) 0.374807(18)
O4A_2 O 0.2897(5) -0.3359(4) 0.3825(4)
O5_2 O 0.6332(4) -0.5131(3) 0.5033(3)
O5A_2 O 0.3668(4) -0.4869(3) 0.4967(3)
O5A_3 O 0.3668(4) 0.5131(3) 0.4967(3)
O6A_2 O 0.5079(6) -0.1636(4) 0.2765(4)
O7A_2 O 0.5057(7) -0.2806(4) 0.1964(4)
O9 O 0.355(3) 0.503(3) 0.881(3)
O10 O 0.223(3) -0.104(3) 0.810(2)
loop_
_geom_bond_atom_site_label_1
_geom_bond_atom_site_label_2
_geom_bond_site_symmetry_1
_geom_bond_site_symmetry_2
Tm1 O1 1_555 1_555
C1 C2 1_555 1_555
C2 C3 1_555 1_555
C3 C4 1_555 1_555
C4 H1 1_555 1_555
H2 C4 1_555 1_555
H3 C4 1_555 1_555
C5 C2 1_555 1_555
C6 C5 1_555 1_555
H4 C6 1_555 1_555
H5 C6 1_555 1_555
H6 C6 1_555 1_555
C7 C8 1_555 1_555
C8 C9 1_555 1_555
C9 C10 1_555 1_555
C10 H7 1_555 1_555
H8 C10 1_555 1_555
H9 C10 1_555 1_555
C11 C8 1_555 1_555
C12 C11 1_555 1_555
H10 C12 1_555 1_555
H11 C12 1_555 1_555
H12 C12 1_555 1_555
C13 C14 1_555 1_555
C14 C15 1_555 1_555
C15 C16 1_555 1_555
C16 H13 1_555 1_555
H14 C16 1_555 1_555
H15 C16 1_555 1_555
C17 C14 1_555 1_555
C18 C17 1_555 1_555
H16 C18 1_555 1_555
H17 C18 1_555 1_555
H18 C18 1_555 1_555
C19 H19 1_555 1_555
C20 H20 1_555 1_555
H21 C20 1_555 1_555
H22 C20 1_555 1_555
C21 H23 1_555 1_555
H24 C21 1_555 1_555
H25 C21 1_555 1_555
N1 C19 1_555 1_555
O1 C1 1_555 1_555
O2 Tm1 1_555 1_555
H26 O2 1_555 1_555
H27 O2 1_555 1_555
O3 C1 1_555 1_555
O4 Tm1 1_555 1_555
O5 Tm1 1_555 1_555
O6 Tm1 1_555 1_555
O7 Tm1 1_555 1_555
O8 Tm1 1_555 1_555
C1A C2A 1_555 1_555
C2A C3A 1_555 1_555
C3A C5 1_555 1_555
C4A C3A 1_555 1_555
H1A C4A 1_555 1_555
H2A C4A 1_555 1_555
H3A C4A 1_555 1_555
C5A C3 1_555 1_555
C6A C5A 1_555 1_555
H4A C6A 1_555 1_555
H5A C6A 1_555 1_555
H6A C6A 1_555 1_555
O1A C1A 1_555 1_555
O3A C1A 1_555 1_555
C7A C8A 1_555 1_555
C8A C9A 1_555 1_555
C9A C11 1_555 1_555
C10A C9A 1_555 1_555
H7A C10A 1_555 1_555
H8A C10A 1_555 1_555
H9A C10A 1_555 1_555
C11A C9 1_555 1_555
C12A C11A 1_555 1_555
H10A C12A 1_555 1_555
H11A C12A 1_555 1_555
H12A C12A 1_555 1_555
O4A C7A 1_555 1_555
O5A C7A 1_555 1_555
C13A C14A 1_555 1_555
C14A C15A 1_555 1_555
C15A C17 1_555 1_555
C16A C15A 1_555 1_555
H13A C16A 1_555 1_555
H14A C16A 1_555 1_555
H15A C16A 1_555 1_555
C17A C15 1_555 1_555
C18A C17A 1_555 1_555
H16A C18A 1_555 1_555
H17A C18A 1_555 1_555
H18A C18A 1_555 1_555
O6A C13A 1_555 1_555
O7A C13A 1_555 1_555
Tm1A O1A 1_555 1_555
C19A H19A 1_555 1_555
C20A H20A 1_555 1_555
H21A C20A 1_555 1_555
H22A C20A 1_555 1_555
C21A H23A 1_555 1_555
H24A C21A 1_555 1_555
H25A C21A 1_555 1_555
N1A C19A 1_555 1_555
O2A Tm1A 1_555 1_555
H26A O2A 1_555 1_555
H27A O2A 1_555 1_555
O8A Tm1A 1_555 1_555
Tm1_2 O5A 1_555 1_555
Tm1A_2 O6A 1_555 1_555
Tm1A_3 O5 1_555 1_555
Tm1A_4 O4A 1_555 1_555
O4A_2 Tm1A 1_555 1_555
O5_2 Tm1A 1_555 1_555
O5A_2 Tm1A 1_555 1_555
O5A_3 Tm1 1_555 1_555
O6A_2 Tm1A 1_555 1_555
O7A_2 Tm1A 1_555 1_555
C7 O4 1_555 1_555
C7 O5 1_555 1_555
C13 O6 1_555 1_555
C13 O7 1_555 1_555
C19 O8 1_555 1_555
C20 N1 1_555 1_555
C21 N1 1_555 1_555
C2A C5A 1_555 1_555
C8A C11A 1_555 1_555
O5A Tm1A_4 1_555 1_555
C14A C17A 1_555 1_555
O7A Tm1A_2 1_555 1_555
C19A O8A 1_555 1_555
C20A N1A 1_555 1_555
C21A N1A 1_555 1_555
Tm1A_3 O5A_3 1_555 1_555

#END
