
#######################################################################
#
#                 Cambridge Crystallographic Data Centre
#                                CCDC 
#
#######################################################################
#
# If this CIF has been generated from an entry in the Cambridge 
# Structural Database, then it will include bibliographic, chemical, 
# crystal, experimental, refinement or atomic coordinate data resulting 
# from the CCDC's data processing and validation procedures.
#
#######################################################################

data_ESIGES
_chemical_formula_moiety         '(C21 H22 N2 O12 P2 Zn2)n'
_symmetry_cell_setting           monoclinic
_symmetry_space_group_name_H-M   'P 21/c'
_symmetry_Int_Tables_number      14
_space_group_name_Hall           '-P 2ybc'
loop_
_symmetry_equiv_pos_site_id
_symmetry_equiv_pos_as_xyz
1 x,y,z
2 x,1/2-y,1/2+z
3 -x,-y,-z
4 -x,1/2+y,1/2-z
_cell_length_a                   27.581(4)
_cell_length_b                   9.1114(15)
_cell_length_c                   9.9791(16)
_cell_angle_alpha                90
_cell_angle_beta                 92.213(3)
_cell_angle_gamma                90
_cell_volume                     2505.89
loop_
_atom_site_label
_atom_site_type_symbol
_atom_site_fract_x
_atom_site_fract_y
_atom_site_fract_z
_atom_site_U_iso_or_equiv
_atom_site_thermal_displace_type
Zn1 Zn -0.049483(17) 1.17781(5) -0.59622(5) 0.0183 Uani
Zn2 Zn -0.451597(18) 1.17815(6) -0.58807(5) 0.0242 Uani
P1 P -0.02656(4) 1.08033(12) -0.30462(11) 0.0181 Uani
P2 P -0.47661(4) 1.07746(14) -0.30108(12) 0.0234 Uani
O1 O -0.03257(12) 1.2031(3) -0.4062(3) 0.0258 Uani
O2 O -0.02173(11) 1.1431(3) -0.1613(3) 0.0238 Uani
O3 O 0.01629(12) 0.9848(4) -0.3285(4) 0.0355 Uani
O4 O -0.07366(13) 0.9809(4) -0.3126(4) 0.0399 Uani
O5 O -0.46721(12) 1.1974(3) -0.4024(3) 0.0275 Uani
O6 O -0.52421(12) 0.9981(4) -0.3266(4) 0.0361 Uani
O7 O -0.47678(12) 1.1379(4) -0.1591(3) 0.0324 Uani
O8 O -0.43518(13) 0.9596(4) -0.3111(4) 0.0422 Uani
O9 O -0.11830(11) 1.1325(4) -0.6196(4) 0.0370 Uani
O10 O -0.38192(12) 1.1657(4) -0.6160(4) 0.0387 Uani
O11 O -0.14311(14) 1.3054(5) -0.7639(5) 0.0515 Uani
O12 O -0.35651(13) 1.0408(5) -0.4341(5) 0.0570 Uani
C1 C -0.15033(17) 1.2044(6) -0.6842(5) 0.0325 Uani
C2 C -0.20194(15) 1.1645(5) -0.6534(5) 0.0279 Uani
C3 C -0.23998(17) 1.2320(7) -0.7279(6) 0.0417 Uani
C4 C -0.28757(17) 1.2088(6) -0.6947(6) 0.0400 Uani
C5 C -0.29798(16) 1.1191(6) -0.5859(5) 0.0316 Uani
C6 C -0.26042(18) 1.0456(6) -0.5178(6) 0.0346 Uani
C7 C -0.21258(18) 1.0700(6) -0.5502(5) 0.0356 Uani
C8 C -0.34958(17) 1.1056(6) -0.5402(6) 0.0343 Uani
H3 H -0.2338 1.3104 -0.8154 0.0500 Uiso
H4 H -0.3289 1.2576 -0.7200 0.0500 Uiso
H5 H -0.0987 1.0349 -0.2988 0.0500 Uiso
H6 H -0.2697 0.9836 -0.4376 0.0500 Uiso
H7 H -0.1794 1.0240 -0.4826 0.0500 Uiso
H8 H -0.4113 0.9976 -0.3528 0.0500 Uiso
O2A O -0.02173(11) 1.3569(3) -0.6613(3) 0.0238 Uani
O3B O -0.01629(12) 1.0152(4) -0.6715(4) 0.0355 Uani
O6B O -0.47579(12) 1.0019(4) -0.6734(4) 0.0361 Uani
O7A O -0.47678(12) 1.3621(4) -0.6591(3) 0.0324 Uani
Zn1A Zn -0.049483(17) 1.32219(5) -0.09622(5) 0.0183 Uani
Zn1B Zn 0.049483(17) 0.82219(5) -0.40378(5) 0.0183 Uani
Zn2B Zn -0.548403(18) 0.82185(6) -0.41193(5) 0.0242 Uani
Zn2A Zn -0.451597(18) 1.32185(6) -0.08807(5) 0.0242 Uani
N1 N 0.42831(18) 1.4100(8) -0.5628(6) 0.0599 Uani
N2 N 0.06760(14) 1.3818(5) -0.5432(5) 0.0371 Uani
C9 C 0.4230(2) 1.2996(10) -0.4822(9) 0.0729 Uani
C10 C 0.3804(2) 1.2823(8) -0.4172(6) 0.0504 Uani
C11 C 0.34340(18) 1.3815(6) -0.4348(6) 0.0360 Uani
C12 C 0.3507(2) 1.4971(7) -0.5210(7) 0.0497 Uani
C13 C 0.3936(3) 1.5094(9) -0.5851(8) 0.0671 Uani
C14 C 0.29774(18) 1.3663(8) -0.3567(7) 0.0511 Uani
C15 C 0.2509(2) 1.3809(7) -0.4395(7) 0.0446 Uani
C16 C 0.20729(19) 1.3599(8) -0.3503(7) 0.0498 Uani
C17 C 0.08013(18) 1.2646(6) -0.4689(6) 0.0418 Uani
C18 C 0.12536(17) 1.2562(6) -0.4101(7) 0.0415 Uani
C19 C 0.15832(16) 1.3668(6) -0.4238(5) 0.0314 Uani
C20 C 0.14504(18) 1.4882(6) -0.5039(6) 0.0390 Uani
C21 C 0.09841(19) 1.4938(6) -0.5622(6) 0.0381 Uani
H1 H 0.4575 1.4173 -0.6022 0.0500 Uiso
H2 H 0.0372 1.3921 -0.5891 0.0500 Uiso
H9 H 0.4512 1.2657 -0.4822 0.0500 Uiso
H10 H 0.3761 1.1976 -0.3588 0.0500 Uiso
H11 H 0.3274 1.5907 -0.5076 0.0500 Uiso
H12 H 0.3955 1.5988 -0.6269 0.0500 Uiso
H13 H 0.2992 1.2855 -0.3137 0.0500 Uiso
H14 H 0.2981 1.4464 -0.2894 0.0500 Uiso
H15 H 0.2413 1.4804 -0.4887 0.0500 Uiso
H16 H 0.2502 1.3011 -0.5056 0.0500 Uiso
H17 H 0.2100 1.2811 -0.3148 0.0500 Uiso
H18 H 0.2087 1.4371 -0.2799 0.0500 Uiso
H19 H 0.0582 1.1839 -0.4556 0.0500 Uiso
H20 H 0.1362 1.1815 -0.3761 0.0500 Uiso
H21 H 0.1683 1.5665 -0.5182 0.0500 Uiso
H22 H 0.0870 1.5661 -0.6114 0.0500 Uiso
loop_
_atom_site_aniso_label
_atom_site_aniso_U_11
_atom_site_aniso_U_22
_atom_site_aniso_U_33
_atom_site_aniso_U_23
_atom_site_aniso_U_13
_atom_site_aniso_U_12
Zn1 0.0149(3) 0.0194(3) 0.0206(3) 0.0010(2) 0.0018(2) 0.00131(17)
Zn2 0.0164(3) 0.0352(3) 0.0211(3) 0.0007(2) 0.0018(2) -0.00110(19)
P1 0.0189(5) 0.0178(5) 0.0176(6) -0.0015(4) 0.0019(4) 0.0028(4)
P2 0.0207(6) 0.0324(7) 0.0174(6) -0.0006(5) 0.0028(5) -0.0034(4)
O1 0.0322(17) 0.0188(16) 0.0269(19) 0.0059(13) 0.0060(14) 0.0017(12)
O2 0.0278 0.0277 0.0157 -0.001 -0.001 0.009
O3 0.0354 0.034 0.037 -0.008 0.0017 0.0199
O4 0.037(2) 0.035(2) 0.048(2) -0.0039(17) 0.0063(18) -0.0136(15)
O5 0.0296(18) 0.0321(19) 0.0208(17) 0.0059(14) -0.0007(14) -0.0004(13)
O6 0.0265 0.045 0.037 -0.01 0.0035 -0.0112
O7 0.0354 0.045 0.0171 -0.0036 0.0035 -0.0135
O8 0.0307(19) 0.047(2) 0.050(2) 0.0142(19) 0.0151(17) 0.0071(16)
O9 0.0152(16) 0.044(2) 0.052(2) 0.0018(19) 0.0036(16) 0.0008(14)
O10 0.0163(17) 0.057(2) 0.043(2) -0.0003(18) 0.0038(16) -0.0018(14)
O11 0.030(2) 0.071(3) 0.054(3) 0.020(2) 0.0096(19) -0.0054(18)
O12 0.027(2) 0.085(3) 0.060(3) 0.023(3) 0.016(2) 0.003(2)
C1 0.021(2) 0.050(3) 0.027(3) -0.004(2) 0.006(2) -0.003(2)
C2 0.012(2) 0.037(3) 0.035(3) 0.000(2) 0.0055(19) -0.0036(17)
C3 0.028(3) 0.050(3) 0.047(4) 0.015(3) 0.000(2) -0.004(2)
C4 0.020(2) 0.053(4) 0.047(3) 0.014(3) 0.003(2) 0.000(2)
C5 0.017(2) 0.045(3) 0.033(3) -0.007(2) 0.002(2) -0.0064(19)
C6 0.030(3) 0.041(3) 0.033(3) 0.005(2) 0.004(2) 0.001(2)
C7 0.028(3) 0.045(3) 0.034(3) 0.003(2) 0.003(2) 0.008(2)
C8 0.020(2) 0.041(3) 0.042(3) -0.005(2) 0.001(2) -0.003(2)
O2A 0.0278 0.0277 0.0157 0.001 -0.001 -0.009
O3B 0.0354 0.034 0.037 -0.008 0.0017 0.0199
O6B 0.0265 0.045 0.037 -0.01 0.0035 -0.0112
O7A 0.0354 0.045 0.0171 0.0036 0.0035 0.0135
Zn1A 0.0149 0.0194 0.0206 -0.001 0.0018 -0.00131
Zn1B 0.0149 0.0194 0.0206 0.001 0.0018 0.00131
Zn2B 0.0164 0.0352 0.0211 0.0007 0.0018 -0.0011
Zn2A 0.0164 0.0352 0.0211 -0.0007 0.0018 0.0011
N1 0.030(3) 0.103(5) 0.048(3) -0.031(3) 0.017(2) -0.019(3)
N2 0.024(2) 0.048(3) 0.039(3) -0.012(2) -0.0029(19) -0.0005(18)
C9 0.018(3) 0.131(8) 0.069(5) -0.038(5) -0.006(3) 0.025(4)
C10 0.045(3) 0.070(5) 0.036(3) -0.002(3) 0.000(3) 0.006(3)
C11 0.024(3) 0.049(3) 0.035(3) -0.007(3) 0.002(2) -0.004(2)
C12 0.039(3) 0.047(4) 0.064(4) 0.004(3) 0.014(3) 0.002(3)
C13 0.070(5) 0.075(5) 0.058(5) -0.006(4) 0.025(4) -0.026(4)
C14 0.018(3) 0.076(4) 0.059(4) 0.015(4) -0.002(3) 0.001(2)
C15 0.026(3) 0.057(4) 0.051(4) -0.002(3) 0.004(2) 0.002(2)
C16 0.023(3) 0.081(5) 0.045(4) 0.009(3) -0.002(2) -0.003(3)
C17 0.035(3) 0.039(3) 0.052(4) -0.009(3) 0.009(3) -0.012(2)
C18 0.025(2) 0.034(3) 0.066(4) 0.006(3) 0.007(3) 0.000(2)
C19 0.017(2) 0.042(3) 0.035(3) -0.003(2) 0.000(2) 0.0000(19)
C20 0.028(3) 0.046(3) 0.043(3) 0.001(3) 0.001(2) -0.013(2)
C21 0.035(3) 0.041(3) 0.038(3) 0.001(2) -0.002(2) 0.007(2)
loop_
_geom_bond_atom_site_label_1
_geom_bond_atom_site_label_2
_geom_bond_site_symmetry_1
_geom_bond_site_symmetry_2
Zn1 O1 1_555 1_555
Zn2 O5 1_555 1_555
P1 O1 1_555 1_555
P2 O5 1_555 1_555
O2 P1 1_555 1_555
O3 P1 1_555 1_555
O4 P1 1_555 1_555
O6 P2 1_555 1_555
O7 P2 1_555 1_555
O8 P2 1_555 1_555
O9 Zn1 1_555 1_555
O10 Zn2 1_555 1_555
O11 C1 1_555 1_555
O12 C8 1_555 1_555
N1 C9 1_555 1_555
N2 C17 1_555 1_555
C1 O9 1_555 1_555
C2 C1 1_555 1_555
C3 C2 1_555 1_555
C4 C3 1_555 1_555
C5 C4 1_555 1_555
C6 C5 1_555 1_555
C7 C2 1_555 1_555
C8 O10 1_555 1_555
C9 C10 1_555 1_555
C10 C11 1_555 1_555
C11 C12 1_555 1_555
C12 C13 1_555 1_555
C13 N1 1_555 1_555
C14 C11 1_555 1_555
C15 C14 1_555 1_555
C16 C15 1_555 1_555
C17 C18 1_555 1_555
C18 C19 1_555 1_555
C19 C16 1_555 1_555
C20 C19 1_555 1_555
C21 N2 1_555 1_555
H1 N1 1_555 1_555
H2 N2 1_555 1_555
H3 C3 1_555 1_555
H4 C4 1_555 1_555
H5 O4 1_555 1_555
H6 C6 1_555 1_555
H7 C7 1_555 1_555
H8 O8 1_555 1_555
H9 C9 1_555 1_555
H10 C10 1_555 1_555
H11 C12 1_555 1_555
H12 C13 1_555 1_555
H13 C14 1_555 1_555
H14 C14 1_555 1_555
H15 C15 1_555 1_555
H16 C15 1_555 1_555
H17 C16 1_555 1_555
H18 C16 1_555 1_555
H19 C17 1_555 1_555
H20 C18 1_555 1_555
H21 C20 1_555 1_555
H22 C21 1_555 1_555
O2A Zn1 1_555 1_555
O3B Zn1 1_555 1_555
O6B Zn2 1_555 1_555
O7A Zn2 1_555 1_555
Zn1A O2 1_555 1_555
Zn1B O3 1_555 1_555
Zn2B O6 1_555 1_555
Zn2A O7 1_555 1_555
C5 C8 1_555 1_555
C6 C7 1_555 1_555
C20 C21 1_555 1_555

#END
