
#######################################################################
#
#                 Cambridge Crystallographic Data Centre
#                                CCDC 
#
#######################################################################
#
# If this CIF has been generated from an entry in the Cambridge 
# Structural Database, then it will include bibliographic, chemical, 
# crystal, experimental, refinement or atomic coordinate data resulting 
# from the CCDC's data processing and validation procedures.
#
#######################################################################

data_ECAHAT
_chemical_formula_moiety         '(C31 H26 Cl2 N2 O4 Zn1)n'
_symmetry_cell_setting           trigonal
_symmetry_space_group_name_H-M   'P -3'
_symmetry_Int_Tables_number      147
_space_group_name_Hall           '-P 3'
loop_
_symmetry_equiv_pos_site_id
_symmetry_equiv_pos_as_xyz
1 x,y,z
2 -y,x-y,z
3 -x+y,-x,z
4 -x,-y,-z
5 y,-x+y,-z
6 x-y,x,-z
_cell_length_a                   21.746(2)
_cell_length_b                   21.746(2)
_cell_length_c                   7.7165(16)
_cell_angle_alpha                90
_cell_angle_beta                 90
_cell_angle_gamma                120
_cell_volume                     3160.17
loop_
_atom_site_label
_atom_site_type_symbol
_atom_site_fract_x
_atom_site_fract_y
_atom_site_fract_z
C18 C -0.03523(12) 0.27173(14) -0.1880(3)
H21 H 0.0142 0.2847 -0.2167
H22 H -0.0390 0.3151 -0.1787
Cl1 Cl -0.06562(19) 0.22089(18) -0.0073(4)
Cl2 Cl -0.0871(2) 0.2157(2) -0.3469(4)
C1 C -0.32188(9) 0.03689(10) -0.3290(2)
H1 H -0.3452 0.0369 -0.4377
H2 H -0.3198 -0.0070 -0.3205
H3 H -0.2736 0.0778 -0.3269
C2 C -0.36364(7) 0.04140(7) -0.17764(17)
C3 C -0.32617(7) 0.09743(7) -0.06061(16)
H4 H -0.2775 0.1292 -0.0858
C4 C -0.35338(6) 0.11107(5) 0.08924(14)
C5 C -0.30382(6) 0.16709(6) 0.21254(14)
C6 C -0.23171(7) 0.20942(8) 0.18421(18)
H5 H -0.2113 0.2043 0.0801
C7 C -0.18938(8) 0.25860(6) 0.30488(18)
H6 H -0.1397 0.2860 0.2841
C8 C -0.21604(7) 0.26962(5) 0.45357(15)
C9 C -0.28798(10) 0.22978(7) 0.4790(2)
H7 H -0.3087 0.2374 0.5791
C10 C -0.33049(10) 0.17849(7) 0.3595(2)
H8 H -0.3800 0.1504 0.3814
C11 C -0.16820(7) 0.32353(5) 0.58158(15)
C12 C -0.10535(6) 0.38098(5) 0.53502(14)
H9 H -0.0918 0.3890 0.4165
C13 C -0.06181(7) 0.42708(5) 0.65811(14)
H10 H -0.0177 0.4657 0.6211
C14 C -0.13951(9) 0.36835(6) 0.87155(17)
H11 H -0.1523 0.3635 0.9905
C15 C -0.18665(9) 0.32002(6) 0.75700(17)
H12 H -0.2319 0.2840 0.7959
N1 N -0.07658(5) 0.42184(4) 0.82502(11)
O1 O -0.41800(4) 0.07892(4) 0.13490(9)
O2 O -0.42770(4) -0.00546(4) -0.16697(10)
Zn1 Zn -0.5000 0.0000 0.0000
C1C C -0.67812(9) -0.03689(10) 0.3290(2)
H1C H -0.6548 -0.0369 0.4377
H2C H -0.6802 0.0070 0.3205
H3C H -0.7264 -0.0778 0.3269
C2C C -0.63636(7) -0.04140(7) 0.17764(17)
C3C C -0.67383(7) -0.09743(7) 0.06061(16)
H4C H -0.7225 -0.1292 0.0858
C4C C -0.64662(6) -0.11107(5) -0.08924(14)
C5C C -0.69618(6) -0.16709(6) -0.21254(14)
C6C C -0.76829(7) -0.20942(8) -0.18421(18)
H5C H -0.7887 -0.2043 -0.0801
C7C C -0.81062(8) -0.25860(6) -0.30488(18)
H6C H -0.8603 -0.2860 -0.2841
C8C C -0.78396(7) -0.26962(5) -0.45357(15)
C9C C -0.71202(10) -0.22978(7) -0.4790(2)
H7C H -0.6913 -0.2374 -0.5791
C10C C -0.66951(10) -0.17849(7) -0.3595(2)
H8C H -0.6200 -0.1504 -0.3814
C11C C -0.83180(7) -0.32353(5) -0.58158(15)
C12C C -0.89465(6) -0.38098(5) -0.53502(14)
H9C H -0.9082 -0.3890 -0.4165
C13C C -0.93819(7) -0.42708(5) -0.65811(14)
H10C H -0.9823 -0.4657 -0.6211
C14C C -0.86049(9) -0.36835(6) -0.87155(17)
H11C H -0.8477 -0.3635 -0.9905
C15C C -0.81335(9) -0.32002(6) -0.75700(17)
H12C H -0.7681 -0.2840 -0.7959
N1B N -0.50158(6) 0.07658(5) -0.17498(11)
N1E N -0.49842(6) -0.07658(5) 0.17498(11)
N1C N -0.92342(5) -0.42184(4) -0.82502(11)
O1C O -0.58200(4) -0.07892(4) -0.13490(9)
O2C O -0.57230(4) 0.00546(4) 0.16697(10)
Zn1A Zn -0.0000 0.5000 1.0000
Zn1A_2 Zn -1.0000 -0.5000 -1.0000
loop_
_geom_bond_atom_site_label_1
_geom_bond_atom_site_label_2
_geom_bond_site_symmetry_1
_geom_bond_site_symmetry_2
C1 H1 1_555 1_555
H2 C1 1_555 1_555
H3 C1 1_555 1_555
C2 C1 1_555 1_555
C3 C2 1_555 1_555
H4 C3 1_555 1_555
C4 C3 1_555 1_555
C5 C4 1_555 1_555
C6 C5 1_555 1_555
H5 C6 1_555 1_555
C7 C6 1_555 1_555
H6 C7 1_555 1_555
C8 C7 1_555 1_555
C9 C8 1_555 1_555
H7 C9 1_555 1_555
C10 C5 1_555 1_555
H8 C10 1_555 1_555
C11 C8 1_555 1_555
C12 C11 1_555 1_555
H9 C12 1_555 1_555
C13 C12 1_555 1_555
H10 C13 1_555 1_555
C14 H11 1_555 1_555
C15 C11 1_555 1_555
H12 C15 1_555 1_555
N1 C13 1_555 1_555
O1 C4 1_555 1_555
O2 C2 1_555 1_555
Zn1 O1 1_555 1_555
C18 H21 1_555 1_555
H22 C18 1_555 1_555
Cl1 C18 1_555 1_555
Cl2 C18 1_555 1_555
C1C H1C 1_555 1_555
H2C C1C 1_555 1_555
H3C C1C 1_555 1_555
C2C C1C 1_555 1_555
C3C C2C 1_555 1_555
H4C C3C 1_555 1_555
C4C C3C 1_555 1_555
C5C C4C 1_555 1_555
C6C C5C 1_555 1_555
H5C C6C 1_555 1_555
C7C C6C 1_555 1_555
H6C C7C 1_555 1_555
C8C C7C 1_555 1_555
C9C C8C 1_555 1_555
H7C C9C 1_555 1_555
C10C C5C 1_555 1_555
H8C C10C 1_555 1_555
C11C C8C 1_555 1_555
C12C C11C 1_555 1_555
H9C C12C 1_555 1_555
C13C C12C 1_555 1_555
H10C C13C 1_555 1_555
C14C H11C 1_555 1_555
C15C C11C 1_555 1_555
H12C C15C 1_555 1_555
N1B Zn1 1_555 1_555
N1E Zn1 1_555 1_555
N1C C13C 1_555 1_555
O1C Zn1 1_555 1_555
O2C Zn1 1_555 1_555
Zn1A N1 1_555 1_555
Zn1A_2 N1C 1_555 1_555
C9 C10 1_555 1_555
C14 C15 1_555 1_555
C14 N1 1_555 1_555
O2 Zn1 1_555 1_555
C2C O2C 1_555 1_555
C4C O1C 1_555 1_555
C9C C10C 1_555 1_555
C14C C15C 1_555 1_555
C14C N1C 1_555 1_555

#END
