
#######################################################################
#
#                 Cambridge Crystallographic Data Centre
#                                CCDC 
#
#######################################################################
#
# If this CIF has been generated from an entry in the Cambridge 
# Structural Database, then it will include bibliographic, chemical, 
# crystal, experimental, refinement or atomic coordinate data resulting 
# from the CCDC's data processing and validation procedures.
#
#######################################################################

data_RUPVAB
_chemical_formula_moiety         '(C54 H24 O41 Zn9 4-)n'
_symmetry_cell_setting           cubic
_symmetry_space_group_name_H-M   'I 2 3'
_symmetry_Int_Tables_number      197
_space_group_name_Hall           'I 2 2 3'
loop_
_symmetry_equiv_pos_site_id
_symmetry_equiv_pos_as_xyz
1 x,y,z
2 -x,-y,z
3 x,-y,-z
4 -x,y,-z
5 z,x,y
6 -z,-x,y
7 z,-x,-y
8 -z,x,-y
9 y,z,x
10 y,-z,-x
11 -y,z,-x
12 -y,-z,x
13 1/2+x,1/2+y,1/2+z
14 1/2-x,1/2-y,1/2+z
15 1/2+x,1/2-y,1/2-z
16 1/2-x,1/2+y,1/2-z
17 1/2+z,1/2+x,1/2+y
18 1/2-z,1/2-x,1/2+y
19 1/2+z,1/2-x,1/2-y
20 1/2-z,1/2+x,1/2-y
21 1/2+y,1/2+z,1/2+x
22 1/2+y,1/2-z,1/2-x
23 1/2-y,1/2+z,1/2-x
24 1/2-y,1/2-z,1/2+x
_cell_length_a                   23.503(3)
_cell_length_b                   23.503(3)
_cell_length_c                   23.503(3)
_cell_angle_alpha                90
_cell_angle_beta                 90
_cell_angle_gamma                90
_cell_volume                     12982.8
loop_
_atom_site_label
_atom_site_type_symbol
_atom_site_fract_x
_atom_site_fract_y
_atom_site_fract_z
Zn1 Zn 0.5000 1.0000 0.93640(5)
Zn2 Zn 0.76263(6) 0.70659(5) 0.82052(7)
O1 O 0.5637(3) 0.9441(3) 0.9525(3)
O2 O 0.5000 1.0000 0.8525(4)
O3 O 0.5573(3) 0.9350(3) 1.0477(3)
O4 O 0.7426(3) 0.7585(3) 0.8840(3)
O5 O 0.6979(4) 0.8310(3) 0.8439(3)
O6 O 0.6680(4) 0.7869(4) 1.1433(3)
O7 O 0.7294(5) 0.7335(6) 1.0981(5)
O8 O 0.7480(3) 0.7480(3) 0.7480(3)
C1 C 0.6224(4) 0.8759(4) 0.9976(4)
C2 C 0.6390(4) 0.8459(5) 1.0464(4)
H1 H 0.6225 0.8554 1.0811
C3 C 0.6780(5) 0.8037(4) 1.0447(4)
C4 C 0.7048(4) 0.7910(4) 0.9921(4)
H2 H 0.7339 0.7641 0.9904
C5 C 0.6877(4) 0.8184(4) 0.9446(4)
C6 C 0.6469(4) 0.8601(3) 0.9462(4)
H3 H 0.6356 0.8779 0.9127
C7 C 0.5774(4) 0.9233(4) 1.0007(6)
C8 C 0.7107(4) 0.8013(4) 0.8851(4)
C9 C 0.6938(6) 0.7738(6) 1.0976(5)
Zn2A Zn 0.23737(6) 1.29341(5) 0.82052(7)
O1A O 0.4363(3) 1.0559(3) 0.9525(3)
O3A O 0.4427(3) 1.0650(3) 1.0477(3)
O4A O 0.2574(3) 1.2415(3) 0.8840(3)
O5A O 0.3021(4) 1.1690(3) 0.8439(3)
O6A O 0.3320(4) 1.2131(4) 1.1433(3)
O7A O 0.2706(5) 1.2665(6) 1.0981(5)
C1A C 0.3776(4) 1.1241(4) 0.9976(4)
C2A C 0.3610(4) 1.1541(5) 1.0464(4)
H1A H 0.3775 1.1446 1.0811
C3A C 0.3220(5) 1.1963(4) 1.0447(4)
C4A C 0.2952(4) 1.2090(4) 0.9921(4)
H2A H 0.2661 1.2359 0.9904
C5A C 0.3123(4) 1.1816(4) 0.9446(4)
C6A C 0.3531(4) 1.1399(3) 0.9462(4)
H3A H 0.3644 1.1221 0.9127
C7A C 0.4226(4) 1.0767(4) 1.0007(6)
C8A C 0.2893(4) 1.1987(4) 0.8851(4)
C9A C 0.3062(6) 1.2262(6) 1.0976(5)
Zn1B Zn 0.5000 1.0000 1.06360(5)
Zn2B Zn 0.76263(6) 1.29341(5) 1.17948(7)
O1B O 0.5637(3) 1.0559(3) 1.0475(3)
O2B O 0.5000 1.0000 1.1475(4)
O3B O 0.5573(3) 1.0650(3) 0.9523(3)
O4B O 0.7426(3) 1.2415(3) 1.1160(3)
O5B O 0.6979(4) 1.1690(3) 1.1561(3)
O6B O 0.6680(4) 1.2131(4) 0.8567(3)
O7B O 0.7294(5) 1.2665(6) 0.9019(5)
O8B O 0.7480(3) 1.2520(3) 1.2520(3)
C1B C 0.6224(4) 1.1241(4) 1.0024(4)
C2B C 0.6390(4) 1.1541(5) 0.9536(4)
H1B H 0.6225 1.1446 0.9189
C3B C 0.6780(5) 1.1963(4) 0.9553(4)
C4B C 0.7048(4) 1.2090(4) 1.0079(4)
H2B H 0.7339 1.2359 1.0096
C5B C 0.6877(4) 1.1816(4) 1.0554(4)
C6B C 0.6469(4) 1.1399(3) 1.0538(4)
H3B H 0.6356 1.1221 1.0873
C7B C 0.5774(4) 1.0767(4) 0.9993(6)
C8B C 0.7107(4) 1.1987(4) 1.1149(4)
C9B C 0.6938(6) 1.2262(6) 0.9024(5)
Zn2C Zn 0.23737(6) 0.70659(5) 1.17948(7)
O1C O 0.4363(3) 0.9441(3) 1.0475(3)
O3C O 0.4427(3) 0.9350(3) 0.9523(3)
O4C O 0.2574(3) 0.7585(3) 1.1160(3)
O5C O 0.3021(4) 0.8310(3) 1.1561(3)
O6C O 0.3320(4) 0.7869(4) 0.8567(3)
O7C O 0.2706(5) 0.7335(6) 0.9019(5)
C1C C 0.3776(4) 0.8759(4) 1.0024(4)
C2C C 0.3610(4) 0.8459(5) 0.9536(4)
H1C H 0.3775 0.8554 0.9189
C3C C 0.3220(5) 0.8037(4) 0.9553(4)
C4C C 0.2952(4) 0.7910(4) 1.0079(4)
H2C H 0.2661 0.7641 1.0096
C5C C 0.3123(4) 0.8184(4) 1.0554(4)
C6C C 0.3531(4) 0.8601(3) 1.0538(4)
H3C H 0.3644 0.8779 1.0873
C7C C 0.4226(4) 0.9233(4) 0.9993(6)
C8C C 0.2893(4) 0.8013(4) 1.1149(4)
C9C C 0.3062(6) 0.7738(6) 0.9024(5)
Zn1D Zn 0.93640(5) 0.5000 1.0000
Zn2D Zn 0.82052(7) 0.76263(6) 0.70659(5)
O1D O 0.9525(3) 0.5637(3) 0.9441(3)
O2D O 0.8525(4) 0.5000 1.0000
O3D O 1.0477(3) 0.5573(3) 0.9350(3)
O4D O 0.8840(3) 0.7426(3) 0.7585(3)
O5D O 0.8439(3) 0.6979(4) 0.8310(3)
O6D O 1.1433(3) 0.6680(4) 0.7869(4)
O7D O 1.0981(5) 0.7294(5) 0.7335(6)
C1D C 0.9976(4) 0.6224(4) 0.8759(4)
C2D C 1.0464(4) 0.6390(4) 0.8459(5)
H1D H 1.0811 0.6225 0.8554
C3D C 1.0447(4) 0.6780(5) 0.8037(4)
C4D C 0.9921(4) 0.7048(4) 0.7910(4)
H2D H 0.9904 0.7339 0.7641
C5D C 0.9446(4) 0.6877(4) 0.8184(4)
C6D C 0.9462(4) 0.6469(4) 0.8601(3)
H3D H 0.9127 0.6356 0.8779
C7D C 1.0007(6) 0.5774(4) 0.9233(4)
C8D C 0.8851(4) 0.7107(4) 0.8013(4)
C9D C 1.0976(5) 0.6938(6) 0.7738(6)
Zn2G Zn 1.17948(7) 0.76263(6) 1.29341(5)
O1G O 1.0475(3) 0.5637(3) 1.0559(3)
O3G O 0.9523(3) 0.5573(3) 1.0650(3)
O4G O 1.1160(3) 0.7426(3) 1.2415(3)
O5G O 1.1561(3) 0.6979(4) 1.1690(3)
O6G O 0.8567(3) 0.6680(4) 1.2131(4)
O7G O 0.9019(5) 0.7294(5) 1.2665(6)
C1G C 1.0024(4) 0.6224(4) 1.1241(4)
C2G C 0.9536(4) 0.6390(4) 1.1541(5)
H1G H 0.9189 0.6225 1.1446
C3G C 0.9553(4) 0.6780(5) 1.1963(4)
C4G C 1.0079(4) 0.7048(4) 1.2090(4)
H2G H 1.0096 0.7339 1.2359
C5G C 1.0554(4) 0.6877(4) 1.1816(4)
C6G C 1.0538(4) 0.6469(4) 1.1399(3)
H3G H 1.0873 0.6356 1.1221
C7G C 0.9993(6) 0.5774(4) 1.0767(4)
C8G C 1.1149(4) 0.7107(4) 1.1987(4)
C9G C 0.9024(5) 0.6938(6) 1.2262(6)
Zn1E Zn 1.06360(5) 0.5000 1.0000
Zn2C_2 Zn 1.23737(6) 0.70659(5) 1.17948(7)
Zn2F Zn 0.82052(7) 1.23737(6) 1.29341(5)
Zn2H Zn 0.70659(5) 0.82052(7) 0.76263(6)
Zn2I Zn 0.70659(5) 1.17948(7) 1.23737(6)
Zn2J Zn 0.29341(5) 0.82052(7) 1.23737(6)
Zn2K Zn 0.29341(5) 1.17948(7) 0.76263(6)
Zn2P Zn 0.32052(7) 1.26263(6) 1.20659(5)
Zn2Q Zn 0.67948(7) 0.73737(6) 1.20659(5)
Zn2R Zn 0.32052(7) 0.73737(6) 0.79341(5)
Zn2S Zn 0.67948(7) 1.26263(6) 0.79341(5)
Zn2U Zn 1.20659(5) 0.67948(7) 0.73737(6)
Zn2W Zn 0.79341(5) 0.67948(7) 1.26263(6)
O1F O 0.9525(3) 0.4363(3) 1.0559(3)
O3E O 0.9523(3) 0.4427(3) 0.9350(3)
O5E O 0.1561(3) 1.3021(4) 0.8310(3)
O5F O 0.8439(3) 1.3021(4) 1.1690(3)
O5G_2 O 0.1561(3) 0.6979(4) 1.1690(3)
O5H O 0.8310(3) 0.8439(3) 0.6979(4)
O5J O 1.1690(3) 0.8439(3) 1.3021(4)
O6M O 0.8320(4) 0.7131(4) 0.6433(3)
O6N O 1.1680(4) 0.7131(4) 1.3567(3)
O6T O 0.2869(4) 0.6433(3) 1.1680(4)
O6U O 0.2869(4) 1.3567(3) 0.8320(4)
O6V O 0.7131(4) 0.6433(3) 0.8320(4)
O6W O 0.7131(4) 1.3567(3) 1.1680(4)
O8A O 0.2520(3) 1.2520(3) 0.7480(3)
O8C O 0.2520(3) 0.7480(3) 1.2520(3)
O8C_2 O 1.2520(3) 0.7480(3) 1.2520(3)
loop_
_geom_bond_atom_site_label_1
_geom_bond_atom_site_label_2
_geom_bond_site_symmetry_1
_geom_bond_site_symmetry_2
Zn1 O1 1_555 1_555
Zn2 O4 1_555 1_555
O1 C7 1_555 1_555
O2 Zn1 1_555 1_555
O3 C7 1_555 1_555
O4 C8 1_555 1_555
O5 C8 1_555 1_555
O6 C9 1_555 1_555
O7 C9 1_555 1_555
O8 Zn2 1_555 1_555
C1 C2 1_555 1_555
C2 H1 1_555 1_555
C3 C2 1_555 1_555
C4 C3 1_555 1_555
H2 C4 1_555 1_555
C5 C4 1_555 1_555
C6 C1 1_555 1_555
H3 C6 1_555 1_555
C7 C1 1_555 1_555
C8 C5 1_555 1_555
C9 C3 1_555 1_555
Zn2A O4A 1_555 1_555
O1A Zn1 1_555 1_555
O3A C7A 1_555 1_555
O4A C8A 1_555 1_555
O5A C8A 1_555 1_555
O6A C9A 1_555 1_555
O7A C9A 1_555 1_555
C1A C2A 1_555 1_555
C2A H1A 1_555 1_555
C3A C2A 1_555 1_555
C4A C3A 1_555 1_555
H2A C4A 1_555 1_555
C5A C4A 1_555 1_555
C6A C1A 1_555 1_555
H3A C6A 1_555 1_555
C7A O1A 1_555 1_555
C8A C5A 1_555 1_555
C9A C3A 1_555 1_555
Zn1B O3 1_555 1_555
Zn2B O4B 1_555 1_555
O1B Zn1B 1_555 1_555
O2B Zn1B 1_555 1_555
O3B Zn1 1_555 1_555
O4B C8B 1_555 1_555
O5B C8B 1_555 1_555
O6B C9B 1_555 1_555
O7B C9B 1_555 1_555
O8B Zn2B 1_555 1_555
C1B C2B 1_555 1_555
C2B H1B 1_555 1_555
C3B C2B 1_555 1_555
C4B C3B 1_555 1_555
H2B C4B 1_555 1_555
C5B C4B 1_555 1_555
C6B C1B 1_555 1_555
H3B C6B 1_555 1_555
C7B O1B 1_555 1_555
C8B C5B 1_555 1_555
C9B C3B 1_555 1_555
Zn2C O4C 1_555 1_555
O1C Zn1B 1_555 1_555
O3C Zn1 1_555 1_555
O4C C8C 1_555 1_555
O5C C8C 1_555 1_555
O6C C9C 1_555 1_555
O7C C9C 1_555 1_555
C1C C2C 1_555 1_555
C2C H1C 1_555 1_555
C3C C2C 1_555 1_555
C4C C3C 1_555 1_555
H2C C4C 1_555 1_555
C5C C4C 1_555 1_555
C6C C1C 1_555 1_555
H3C C6C 1_555 1_555
C7C O1C 1_555 1_555
C8C C5C 1_555 1_555
C9C C3C 1_555 1_555
Zn1D O1D 1_555 1_555
Zn2D O8 1_555 1_555
O1D C7D 1_555 1_555
O2D Zn1D 1_555 1_555
O3D C7D 1_555 1_555
O4D Zn2D 1_555 1_555
O5D Zn2 1_555 1_555
O6D C9D 1_555 1_555
O7D C9D 1_555 1_555
C1D C2D 1_555 1_555
C2D H1D 1_555 1_555
C3D C2D 1_555 1_555
C4D C3D 1_555 1_555
H2D C4D 1_555 1_555
C5D C4D 1_555 1_555
C6D C1D 1_555 1_555
H3D C6D 1_555 1_555
C7D C1D 1_555 1_555
C8D O4D 1_555 1_555
C9D C3D 1_555 1_555
Zn2G O4G 1_555 1_555
O1G C7G 1_555 1_555
O3G Zn1D 1_555 1_555
O4G C8G 1_555 1_555
O5G C8G 1_555 1_555
O6G C9G 1_555 1_555
O7G C9G 1_555 1_555
C1G C2G 1_555 1_555
C2G H1G 1_555 1_555
C3G C2G 1_555 1_555
C4G C3G 1_555 1_555
H2G C4G 1_555 1_555
C5G C4G 1_555 1_555
C6G C1G 1_555 1_555
H3G C6G 1_555 1_555
C7G O3G 1_555 1_555
C8G C5G 1_555 1_555
C9G C3G 1_555 1_555
Zn1E O3D 1_555 1_555
Zn2C_2 O5G 1_555 1_555
Zn2F O8B 1_555 1_555
Zn2H O5 1_555 1_555
Zn2I O5B 1_555 1_555
Zn2J O5C 1_555 1_555
Zn2K O5A 1_555 1_555
Zn2P O6A 1_555 1_555
Zn2Q O6 1_555 1_555
Zn2R O6C 1_555 1_555
Zn2S O6B 1_555 1_555
Zn2U O6D 1_555 1_555
Zn2W O6G 1_555 1_555
O1F Zn1D 1_555 1_555
O3E Zn1D 1_555 1_555
O5E Zn2A 1_555 1_555
O5F Zn2B 1_555 1_555
O5G_2 Zn2C 1_555 1_555
O5H Zn2D 1_555 1_555
O5J Zn2G 1_555 1_555
O6M Zn2D 1_555 1_555
O6N Zn2G 1_555 1_555
O6T Zn2C 1_555 1_555
O6U Zn2A 1_555 1_555
O6V Zn2 1_555 1_555
O6W Zn2B 1_555 1_555
O8A Zn2A 1_555 1_555
O8C Zn2C 1_555 1_555
O8C_2 Zn2G 1_555 1_555
O8 Zn2H 1_555 1_555
C5 C6 1_555 1_555
O3A Zn1B 1_555 1_555
C1A C7A 1_555 1_555
C5A C6A 1_555 1_555
O3B C7B 1_555 1_555
O8B Zn2I 1_555 1_555
C1B C7B 1_555 1_555
C5B C6B 1_555 1_555
O3C C7C 1_555 1_555
C1C C7C 1_555 1_555
C5C C6C 1_555 1_555
O5D C8D 1_555 1_555
C5D C6D 1_555 1_555
C5D C8D 1_555 1_555
O1G Zn1E 1_555 1_555
C1G C7G 1_555 1_555
C5G C6G 1_555 1_555
Zn2C_2 O8C_2 1_555 1_555
Zn2J O8C 1_555 1_555
Zn2K O8A 1_555 1_555

#END
