
#######################################################################
#
#                 Cambridge Crystallographic Data Centre
#                                CCDC 
#
#######################################################################
#
# If this CIF has been generated from an entry in the Cambridge 
# Structural Database, then it will include bibliographic, chemical, 
# crystal, experimental, refinement or atomic coordinate data resulting 
# from the CCDC's data processing and validation procedures.
#
#######################################################################

data_EKIDEH
_chemical_formula_moiety         '(C8 H2 F4 Ga6 N4 O25 P6 Rb1 3-)n'
_symmetry_cell_setting           orthorhombic
_symmetry_space_group_name_H-M   'P b c n'
_symmetry_Int_Tables_number      60
_space_group_name_Hall           '-P 2n 2ab'
loop_
_symmetry_equiv_pos_site_id
_symmetry_equiv_pos_as_xyz
1 x,y,z
2 1/2-x,1/2-y,1/2+z
3 1/2+x,1/2-y,-z
4 -x,y,1/2-z
5 -x,-y,-z
6 1/2+x,1/2+y,1/2-z
7 1/2-x,1/2+y,z
8 x,-y,1/2+z
_cell_length_a                   17.9491(4)
_cell_length_b                   16.9797(4)
_cell_length_c                   10.3636(3)
_cell_angle_alpha                90
_cell_angle_beta                 90
_cell_angle_gamma                90
_cell_volume                     3158.52
loop_
_atom_site_label
_atom_site_type_symbol
_atom_site_fract_x
_atom_site_fract_y
_atom_site_fract_z
Ga1 Ga 0.20212(2) 0.23997(2) 0.08722(4)
Ga2 Ga 0.39846(2) 0.20173(2) 0.11248(4)
Ga3 Ga 0.21780(2) 0.41602(2) -0.08726(4)
P1 P 0.32371(5) 0.28100(5) -0.11723(8)
P2 P 0.27645(5) 0.06934(5) 0.10647(8)
P3 P 0.07577(5) 0.30446(5) -0.09859(8)
F1 F 0.29840(12) 0.24478(13) 0.1701(2)
F2 F 0.21266(13) 0.35644(13) 0.0819(2)
O1 O 0.25468(15) 0.23601(15) -0.0746(2)
O2 O 0.21070(14) 0.12600(15) 0.0918(2)
O3 O 0.10568(14) 0.24977(16) 0.0062(2)
O4 O 0.34768(15) 0.25254(16) -0.2507(2)
O5 O 0.39150(14) 0.26793(15) -0.0283(2)
O6 O 0.30884(14) 0.37001(15) -0.1186(3)
O7 O 0.35364(15) 0.10646(15) 0.0805(3)
O8 O 0.07657(15) 0.25927(16) -0.2267(2)
O9 O -0.00347(14) 0.33184(16) -0.0657(3)
O10 O 0.27788(15) 0.03119(15) 0.2414(2)
O11 O 0.26534(16) 0.00650(15) 0.0024(2)
O12 O 0.12196(15) 0.38112(16) -0.1142(3)
P1A P 0.17629(5) 0.21900(5) 0.38277(8)
O1A O 0.24532(15) 0.26399(15) 0.4254(2)
O4A O 0.15232(15) 0.24746(16) 0.2493(2)
O5A O 0.10850(14) 0.23207(15) 0.4717(2)
O6A O 0.19116(14) 0.12999(15) 0.3814(3)
Ga1A Ga 0.29788(2) 0.26003(2) 0.58722(4)
Ga2A Ga 0.10154(2) 0.29827(2) 0.61248(4)
Ga3A Ga 0.28220(2) 0.08398(2) 0.41274(4)
P3A P 0.42423(5) 0.19554(5) 0.40141(8)
O3A O 0.39432(14) 0.25023(16) 0.5062(2)
O8A O 0.42343(15) 0.24073(16) 0.2733(2)
O9A O 0.50347(14) 0.16816(16) 0.4343(3)
O12A O 0.37804(15) 0.11888(16) 0.3858(3)
P2A P 0.22355(5) 0.43066(5) -0.39353(8)
O2A O 0.28930(14) 0.37400(15) -0.4082(2)
O7A O 0.14636(15) 0.39354(15) -0.4195(3)
O10A O 0.22212(15) 0.46881(15) -0.2586(2)
O11A O 0.23466(16) 0.49350(15) -0.4976(2)
F1A F 0.20160(12) 0.25522(13) 0.6701(2)
F2A F 0.28734(13) 0.14356(13) 0.5819(2)
O9B O 0.49653(14) 0.16816(16) 0.0657(3)
O11F O 0.23466(16) 0.50650(15) 0.0024(2)
Ga1A_2 Ga 0.29788(2) 0.26003(2) -0.41278(4)
Ga2A_2 Ga 0.10154(2) 0.29827(2) -0.38752(4)
Ga2B Ga -0.10154(2) 0.29827(2) -0.11248(4)
Ga3F Ga 0.28220(2) -0.08398(2) -0.08726(4)
O2A_2 O 0.28930(14) 0.37400(15) 0.5918(2)
O4_2 O 0.34768(15) 0.25254(16) 0.7493(2)
O7A_2 O 0.14636(15) 0.39354(15) 0.5805(3)
O8_2 O 0.07657(15) 0.25927(16) 0.7733(2)
O9C O 0.00347(14) 0.33184(16) 0.5657(3)
O11G O 0.26534(16) -0.00650(15) 0.5024(2)
Ga2C Ga 0.60154(2) 0.20173(2) 0.38752(4)
Ga3G Ga 0.21780(2) 0.58398(2) -0.58726(4)
O13 O 0.4118(3) -0.0681(3) 0.2425(6)
N1 N -0.0000 -0.0007(7) 0.2500
N2 N -0.0000 0.2192(3) 0.2500
N3 N -0.1812(2) -0.1068(2) 0.2050(4)
C1 C 0.0102(6) 0.1330(6) 0.2138(9)
C2 C 0.0163(7) 0.0817(7) 0.1795(13)
C3 C -0.0656(9) -0.0326(9) 0.1578(15)
C5 C -0.1132(7) -0.0692(7) 0.2636(11)
C1C C -0.0102(6) 0.1330(6) 0.2862(9)
C2C C -0.0163(7) 0.0817(7) 0.3205(13)
C3C C 0.0656(9) -0.0326(9) 0.3422(15)
C5C C 0.1132(7) -0.0692(7) 0.2364(11)
N3C N 0.1812(2) -0.1068(2) 0.2950(4)
Rb1 Rb 0.5000 0.0000 0.5000
loop_
_geom_bond_atom_site_label_1
_geom_bond_atom_site_label_2
_geom_bond_site_symmetry_1
_geom_bond_site_symmetry_2
Ga1 F1 1_555 1_555
Ga2 F1 1_555 1_555
Ga3 F2 1_555 1_555
P1 O1 1_555 1_555
P2 O2 1_555 1_555
P3 O3 1_555 1_555
F2 Ga1 1_555 1_555
O1 Ga1 1_555 1_555
O2 Ga1 1_555 1_555
O3 Ga1 1_555 1_555
O4 P1 1_555 1_555
O5 Ga2 1_555 1_555
O6 Ga3 1_555 1_555
O7 Ga2 1_555 1_555
O8 P3 1_555 1_555
O9 P3 1_555 1_555
O10 P2 1_555 1_555
O11 P2 1_555 1_555
O12 Ga3 1_555 1_555
N1 C2 1_555 1_555
N2 C1 1_555 1_555
N3 C5 1_555 1_555
C1 C2 1_555 1_555
C2 C1C 1_555 1_555
C3 N1 1_555 1_555
C5 C3 1_555 1_555
C1C N2 1_555 1_555
C2C N1 1_555 1_555
C3C N1 1_555 1_555
C5C C3C 1_555 1_555
N3C C5C 1_555 1_555
P1A O1A 1_555 1_555
O1A Ga1A 1_555 1_555
O4A Ga1 1_555 1_555
O5A P1A 1_555 1_555
O6A P1A 1_555 1_555
Ga1A O3A 1_555 1_555
Ga2A O5A 1_555 1_555
Ga3A O10 1_555 1_555
P3A O3A 1_555 1_555
O8A Ga2 1_555 1_555
O9A P3A 1_555 1_555
O12A Ga3A 1_555 1_555
P2A O2A 1_555 1_555
O2A Ga1A_2 1_555 1_555
O7A P2A 1_555 1_555
O10A Ga3 1_555 1_555
O11A P2A 1_555 1_555
F1A Ga1A 1_555 1_555
F2A Ga1A 1_555 1_555
O9B Ga2 1_555 1_555
O11F Ga3 1_555 1_555
Ga1A_2 O4 1_555 1_555
Ga2A_2 O8 1_555 1_555
Ga2B O9 1_555 1_555
Ga3F O11 1_555 1_555
O2A_2 Ga1A 1_555 1_555
O4_2 Ga1A 1_555 1_555
O7A_2 Ga2A 1_555 1_555
O8_2 Ga2A 1_555 1_555
O9C Ga2A 1_555 1_555
O11G Ga3A 1_555 1_555
Ga2C O9A 1_555 1_555
Ga3G O11A 1_555 1_555
P1 O5 1_555 1_555
P1 O6 1_555 1_555
P2 O7 1_555 1_555
P3 O12 1_555 1_555
C1 C2C 1_555 1_555
C1 C1C 1_555 1_555
C2 C2C 1_555 1_555
C1C C2C 1_555 1_555
P1A O4A 1_555 1_555
O6A Ga3A 1_555 1_555
Ga2A F1A 1_555 1_555
Ga3A F2A 1_555 1_555
P3A O8A 1_555 1_555
P3A O12A 1_555 1_555
P2A O10A 1_555 1_555
O7A Ga2A_2 1_555 1_555

#END
