
#######################################################################
#
#                 Cambridge Crystallographic Data Centre
#                                CCDC 
#
#######################################################################
#
# If this CIF has been generated from an entry in the Cambridge 
# Structural Database, then it will include bibliographic, chemical, 
# crystal, experimental, refinement or atomic coordinate data resulting 
# from the CCDC's data processing and validation procedures.
#
#######################################################################

data_MATTOR
_chemical_formula_moiety         '(C26 H16 N2 O8 Zn2)n'
_symmetry_cell_setting           triclinic
_symmetry_space_group_name_H-M   'P -1'
_symmetry_Int_Tables_number      2
_space_group_name_Hall           '-P 1'
loop_
_symmetry_equiv_pos_site_id
_symmetry_equiv_pos_as_xyz
1 x,y,z
2 -x,-y,-z
_cell_length_a                   10.886(3)
_cell_length_b                   10.919(3)
_cell_length_c                   14.091(3)
_cell_angle_alpha                89.294(4)
_cell_angle_beta                 89.081(4)
_cell_angle_gamma                79.691(3)
_cell_volume                     1647.59
loop_
_atom_site_label
_atom_site_type_symbol
_atom_site_fract_x
_atom_site_fract_y
_atom_site_fract_z
N1 N 0.2694(2) 0.1670(2) -0.44430(16)
N2 N 0.2764(2) 0.1634(2) 0.05473(17)
Zn1 Zn 0.27652(3) 0.16409(3) 0.19926(2)
Zn2 Zn 0.27228(3) 0.16080(3) -0.59123(2)
O1 O 0.2933(3) -0.0250(2) 0.37888(16)
O2 O 0.2949(3) -0.0221(2) 0.22249(15)
O3 O 0.2548(3) -0.6540(2) 0.37517(16)
O4 O 0.2572(3) -0.64998(19) 0.21865(16)
O5 O 0.4553(2) 0.1477(3) 0.38699(14)
O6 O 0.4590(2) 0.1532(2) 0.22904(15)
O7 O 1.08687(19) 0.1717(2) 0.39012(14)
O8 O 1.0923(2) 0.1752(2) 0.22982(16)
C1 C 0.2900(3) -0.0769(3) 0.3002(2)
C2 C 0.2780(3) -0.2096(3) 0.2994(2)
C3 C 0.3328(6) -0.2890(5) 0.3759(4)
H1 H 0.3703 -0.2548 0.4273
C5 C 0.3303(7) -0.4190(6) 0.3738(4)
H3 H 0.3720 -0.4747 0.4201
C7 C 0.2606(3) -0.4625(3) 0.2969(2)
C8 C 0.2181(7) -0.3858(6) 0.2287(5)
H5 H 0.1759 -0.4166 0.1782
C10 C 0.2308(7) -0.2617(6) 0.2254(4)
H7 H 0.2060 -0.2129 0.1704
C12 C 0.2570(3) -0.6003(3) 0.2980(2)
C13 C 0.5123(3) 0.1527(3) 0.3071(2)
C14 C 0.6472(3) 0.1575(3) 0.3069(2)
C15 C 0.7113(3) 0.1391(3) 0.3925(3)
H9 H 0.6691 0.1261 0.4503
C16 C 0.8397(3) 0.1406(3) 0.39059(19)
H10 H 0.8856 0.1235 0.4474
C17 C 0.9016(3) 0.1664(3) 0.3079(2)
C18 C 0.8359(3) 0.1856(3) 0.2245(2)
H11 H 0.8780 0.2035 0.1678
C19 C 0.7074(3) 0.1792(3) 0.2213(2)
H12 H 0.6634 0.1893 0.1632
C20 C 1.0382(3) 0.1707(3) 0.3083(2)
C21 C 0.1643(3) 0.1814(3) -0.3949(2)
H13 H 0.0883 0.1917 -0.4287
C22 C 0.1575(3) 0.1826(3) -0.2987(2)
H14 H 0.0794 0.1930 -0.2661
C23 C 0.2723(3) 0.1674(3) -0.2482(2)
C24 C 0.3794(3) 0.1523(3) -0.2998(2)
H15 H 0.4573 0.1427 -0.2687
C25 C 0.3760(3) 0.1507(3) -0.3984(2)
H16 H 0.4523 0.1376 -0.4337
C26 C 0.2730(3) 0.1666(3) -0.1423(2)
C27 C 0.1843(6) 0.2446(6) -0.0888(4)
H17 H 0.1166 0.2966 -0.1191
C29 C 0.1948(6) 0.2464(6) 0.0079(4)
H19 H 0.1417 0.3093 0.0427
C31 C 0.3519(6) 0.0847(6) 0.0042(4)
H21 H 0.4076 0.0220 0.0369
C33 C 0.3580(6) 0.0844(5) -0.0933(3)
H23 H 0.4205 0.0278 -0.1259
Zn1_2 Zn 0.27652(3) 0.16409(3) -0.80074(2)
Zn1_3 Zn 0.27652(3) -0.83591(3) 0.19926(2)
Zn1_4 Zn 1.27652(3) 0.16409(3) 0.19926(2)
Zn2_2 Zn 0.27228(3) 0.16080(3) 0.40877(2)
Zn2_3 Zn 0.27228(3) -0.83920(3) 0.40877(2)
Zn2_4 Zn 1.27228(3) 0.16080(3) 0.40877(2)
O1_2 O 0.2933(3) -0.0250(2) -0.62112(16)
O3_2 O 0.2548(3) 0.3460(2) -0.62483(16)
O4_2 O 0.2572(3) 0.35002(19) 0.21865(16)
O5_2 O 0.4553(2) 0.1477(3) -0.61301(14)
O7_2 O 0.08687(19) 0.1717(2) -0.60988(14)
O8_2 O 0.0923(2) 0.1752(2) 0.22982(16)
loop_
_geom_bond_atom_site_label_1
_geom_bond_atom_site_label_2
_geom_bond_site_symmetry_1
_geom_bond_site_symmetry_2
N1 Zn2 1_555 1_555
N2 Zn1 1_555 1_555
Zn1 O2 1_555 1_555
Zn2 Zn1_2 1_555 1_555
O1 C1 1_555 1_555
O2 C1 1_555 1_555
O3 C12 1_555 1_555
O4 C12 1_555 1_555
O5 C13 1_555 1_555
O6 Zn1 1_555 1_555
O7 C20 1_555 1_555
O8 C20 1_555 1_555
C1 C2 1_555 1_555
C2 C3 1_555 1_555
C3 H1 1_555 1_555
C5 C3 1_555 1_555
H3 C5 1_555 1_555
C7 C5 1_555 1_555
C8 C7 1_555 1_555
H5 C8 1_555 1_555
C10 C2 1_555 1_555
H7 C10 1_555 1_555
C12 C7 1_555 1_555
C13 O6 1_555 1_555
C14 C13 1_555 1_555
C15 C14 1_555 1_555
H9 C15 1_555 1_555
C16 C15 1_555 1_555
H10 C16 1_555 1_555
C17 C16 1_555 1_555
C18 C17 1_555 1_555
H11 C18 1_555 1_555
C19 C14 1_555 1_555
H12 C19 1_555 1_555
C20 C17 1_555 1_555
C21 N1 1_555 1_555
H13 C21 1_555 1_555
C22 C21 1_555 1_555
H14 C22 1_555 1_555
C23 C22 1_555 1_555
C24 C23 1_555 1_555
H15 C24 1_555 1_555
C25 N1 1_555 1_555
H16 C25 1_555 1_555
C26 C23 1_555 1_555
C27 C26 1_555 1_555
H17 C27 1_555 1_555
C29 N2 1_555 1_555
H19 C29 1_555 1_555
C31 N2 1_555 1_555
H21 C31 1_555 1_555
C33 C26 1_555 1_555
H23 C33 1_555 1_555
Zn1_3 O4 1_555 1_555
Zn1_4 O8 1_555 1_555
Zn2_2 Zn1 1_555 1_555
Zn2_3 O3 1_555 1_555
Zn2_4 O7 1_555 1_555
O1_2 Zn2 1_555 1_555
O3_2 Zn2 1_555 1_555
O4_2 Zn1 1_555 1_555
O5_2 Zn2 1_555 1_555
O7_2 Zn2 1_555 1_555
O8_2 Zn1 1_555 1_555
O1 Zn2_2 1_555 1_555
O5 Zn2_2 1_555 1_555
C8 C10 1_555 1_555
C18 C19 1_555 1_555
C24 C25 1_555 1_555
C27 C29 1_555 1_555
C31 C33 1_555 1_555
Zn1_3 Zn2_3 1_555 1_555
Zn1_4 Zn2_4 1_555 1_555

#END
