
#######################################################################
#
#                 Cambridge Crystallographic Data Centre
#                                CCDC 
#
#######################################################################
#
# If this CIF has been generated from an entry in the Cambridge 
# Structural Database, then it will include bibliographic, chemical, 
# crystal, experimental, refinement or atomic coordinate data resulting 
# from the CCDC's data processing and validation procedures.
#
#######################################################################

data_MATVEJ
_chemical_formula_moiety         '(C52 H28 N4 O12 Zn2)n'
_symmetry_cell_setting           triclinic
_symmetry_space_group_name_H-M   'P -1'
_symmetry_Int_Tables_number      2
_space_group_name_Hall           '-P 1'
loop_
_symmetry_equiv_pos_site_id
_symmetry_equiv_pos_as_xyz
1 x,y,z
2 -x,-y,-z
_cell_length_a                   15.1644(13)
_cell_length_b                   15.1729(13)
_cell_length_c                   22.273(2)
_cell_angle_alpha                82.9870(10)
_cell_angle_beta                 78.4460(10)
_cell_angle_gamma                72.7710(10)
_cell_volume                     4784.81
loop_
_atom_site_label
_atom_site_type_symbol
_atom_site_fract_x
_atom_site_fract_y
_atom_site_fract_z
C1 C 0.22223(13) 0.25370(13) 1.06708(8)
H1 H 0.2744 0.2144 1.0817
C2 C 0.21705(14) 0.25499(14) 1.00577(8)
H2 H 0.2654 0.2182 0.9792
C3 C 0.13834(13) 0.31222(12) 0.98488(7)
C4 C 0.06947(13) 0.36813(12) 1.02406(7)
H3 H 0.0166 0.4078 1.0104
C5 C 0.08042(12) 0.36420(11) 1.08457(7)
H4 H 0.0341 0.4029 1.1113
C6 C 0.12210(14) 0.22795(13) 0.90392(8)
C7 C 0.11600(14) 0.22544(13) 0.83880(8)
C8 C 0.11585(12) 0.30531(12) 0.79837(7)
C9 C 0.11697(12) 0.38905(12) 0.81937(7)
C10 C 0.12189(12) 0.39372(12) 0.88473(7)
C11 C 0.11618(12) 0.46502(12) 0.77965(7)
H5 H 0.1172 0.5198 0.7938
C12 C 0.11375(12) 0.46072(12) 0.71723(7)
H6 H 0.1131 0.5128 0.6903
C13 C 0.11236(12) 0.38161(12) 0.69626(7)
C14 C 0.11203(12) 0.30104(12) 0.73624(7)
C15 C 0.10818(14) 0.21955(13) 0.71554(8)
C16 C 0.10765(16) 0.14229(14) 0.75553(8)
H7 H 0.1040 0.0884 0.7416
C17 C 0.11277(16) 0.14630(14) 0.81755(8)
H8 H 0.1140 0.0941 0.8444
C18 C 0.10324(15) 0.21484(14) 0.65049(8)
C19 C 0.10878(13) 0.37796(13) 0.62990(8)
C20 C 0.10284(13) 0.29007(12) 0.54794(7)
C21 C 0.17469(15) 0.22878(15) 0.51446(8)
H9 H 0.2224 0.1885 0.5331
C22 C 0.17567(14) 0.22737(14) 0.45271(8)
H10 H 0.2261 0.1870 0.4297
C23 C 0.03701(13) 0.34082(14) 0.45780(8)
H11 H -0.0101 0.3801 0.4382
C24 C 0.03114(14) 0.34640(15) 0.52000(8)
H12 H -0.0199 0.3871 0.5423
C25 C -0.04058(11) 0.30636(10) 0.27534(7)
C26 C -0.13833(12) 0.30636(12) 0.27335(8)
C27 C -0.16122(14) 0.28811(17) 0.22051(9)
H13 H -0.1160 0.2790 0.1851
C28 C -0.25044(15) 0.2831(2) 0.21897(9)
H14 H -0.2638 0.2697 0.1827
C29 C -0.32048(13) 0.29777(15) 0.27077(8)
C30 C -0.29814(13) 0.31987(15) 0.32356(9)
H15 H -0.3442 0.3327 0.3583
C31 C -0.20788(12) 0.32307(14) 0.32517(8)
H16 H -0.1939 0.3365 0.3612
C32 C -0.41516(13) 0.29053(15) 0.26895(9)
C33 C -0.45163(15) 0.31248(19) 0.21466(9)
H17 H -0.4164 0.3327 0.1795
C34 C -0.53850(14) 0.30480(17) 0.21218(9)
H18 H -0.5612 0.3194 0.1753
C35 C -0.59298(12) 0.27549(13) 0.26400(8)
C36 C -0.55725(12) 0.25398(13) 0.31873(8)
H19 H -0.5929 0.2344 0.3540
C37 C -0.46955(13) 0.26145(14) 0.32105(9)
H20 H -0.4466 0.2469 0.3578
C38 C -0.68986(12) 0.27151(11) 0.26187(8)
C39 C 0.15645(11) 1.11579(11) 0.26502(7)
C40 C 0.15650(12) 1.01693(11) 0.26461(8)
C41 C 0.19034(13) 0.96950(12) 0.21206(8)
H21 H 0.2164 0.9981 0.1765
C42 C 0.18588(14) 0.87979(12) 0.21168(8)
H22 H 0.2099 0.8486 0.1759
C43 C 0.14622(13) 0.83545(11) 0.26366(8)
C44 C 0.11354(17) 0.88349(13) 0.31664(9)
H23 H 0.0873 0.8553 0.3523
C45 C 0.11948(16) 0.97294(13) 0.31717(8)
H24 H 0.0983 1.0034 0.3533
C46 C 0.13804(13) 0.74029(11) 0.26301(8)
C47 C 0.12886(13) 0.70796(11) 0.20977(8)
H25 H 0.1277 0.7466 0.1740
C48 C 0.12129(12) 0.61898(11) 0.20849(8)
H26 H 0.1151 0.5988 0.1722
C49 C 0.12296(11) 0.56050(11) 0.26151(7)
C50 C 0.13200(13) 0.59251(11) 0.31538(8)
H27 H 0.1331 0.5539 0.3512
C51 C 0.13938(14) 0.68109(12) 0.31615(8)
H28 H 0.1453 0.7014 0.3525
C52 C 0.11864(11) 0.46260(11) 0.26091(8)
N1 N 0.15411(9) 0.30757(9) 1.10638(6)
N2 N 0.12977(11) 0.31094(10) 0.92152(6)
N3 N 0.10233(11) 0.29566(10) 0.61220(6)
N4 N 0.10768(9) 0.28125(9) 0.42470(6)
O1 O 0.12067(12) 0.16334(9) 0.94079(6)
O2 O 0.12187(9) 0.46369(8) 0.90543(5)
O3 O 0.09803(12) 0.14604(10) 0.62945(6)
O4 O 0.11098(10) 0.44314(9) 0.59282(5)
O5 O 0.11660(9) 0.41651(7) 0.31158(5)
O6 O 0.11827(8) 0.43461(7) 0.21033(5)
O7 O 0.18279(8) 1.15585(7) 0.21425(5)
O8 O 0.12799(8) 1.15245(7) 0.31555(5)
O9 O -0.02092(7) 0.31373(8) 0.32626(5)
O10 O 0.01541(7) 0.29862(8) 0.22500(5)
O11 O -0.73847(8) 0.25175(8) 0.31157(5)
O12 O -0.71619(8) 0.28996(8) 0.21052(5)
Zn1 Zn 0.117580(12) 0.282875(12) 0.332742(7)
Zn2 Zn 0.153570(12) 0.296750(12) 1.198290(7)
O6_2 O 0.11827(8) 0.43461(7) 1.21033(5)
O7_2 O 0.18279(8) 0.15585(7) 1.21425(5)
O8_2 O 0.12799(8) 0.15245(7) 0.31555(5)
O10_2 O 0.01541(7) 0.29862(8) 1.22500(5)
O11_2 O 0.26153(8) 0.25175(8) 0.31157(5)
O12_2 O 0.28381(8) 0.28996(8) 1.21052(5)
Zn1_2 Zn 0.117580(12) 1.282875(12) 0.332742(7)
Zn1_3 Zn -0.882420(12) 0.282875(12) 0.332742(7)
Zn1_4 Zn 0.117580(12) 0.282875(12) 1.332742(7)
Zn2_2 Zn 0.153570(12) 0.296750(12) 0.198290(7)
Zn2_3 Zn 0.153570(12) 1.296750(12) 0.198290(7)
Zn2_4 Zn -0.846430(12) 0.296750(12) 0.198290(7)
loop_
_geom_bond_atom_site_label_1
_geom_bond_atom_site_label_2
_geom_bond_site_symmetry_1
_geom_bond_site_symmetry_2
C1 H1 1_555 1_555
C2 C1 1_555 1_555
H2 C2 1_555 1_555
C3 C2 1_555 1_555
C4 C3 1_555 1_555
H3 C4 1_555 1_555
C5 C4 1_555 1_555
H4 C5 1_555 1_555
C6 C7 1_555 1_555
C7 C8 1_555 1_555
C8 C9 1_555 1_555
C9 C10 1_555 1_555
C10 N2 1_555 1_555
C11 C9 1_555 1_555
H5 C11 1_555 1_555
C12 C11 1_555 1_555
H6 C12 1_555 1_555
C13 C12 1_555 1_555
C14 C8 1_555 1_555
C15 C14 1_555 1_555
C16 C15 1_555 1_555
H7 C16 1_555 1_555
C17 C7 1_555 1_555
H8 C17 1_555 1_555
C18 C15 1_555 1_555
C19 C13 1_555 1_555
C20 C21 1_555 1_555
C21 H9 1_555 1_555
C22 C21 1_555 1_555
H10 C22 1_555 1_555
C23 H11 1_555 1_555
C24 C20 1_555 1_555
H12 C24 1_555 1_555
C25 C26 1_555 1_555
C26 C27 1_555 1_555
C27 H13 1_555 1_555
C28 C27 1_555 1_555
H14 C28 1_555 1_555
C29 C28 1_555 1_555
C30 C29 1_555 1_555
H15 C30 1_555 1_555
C31 C26 1_555 1_555
H16 C31 1_555 1_555
C32 C29 1_555 1_555
C33 C32 1_555 1_555
H17 C33 1_555 1_555
C34 C33 1_555 1_555
H18 C34 1_555 1_555
C35 C34 1_555 1_555
C36 C35 1_555 1_555
H19 C36 1_555 1_555
C37 C32 1_555 1_555
H20 C37 1_555 1_555
C38 C35 1_555 1_555
C39 C40 1_555 1_555
C40 C41 1_555 1_555
C41 H21 1_555 1_555
C42 C41 1_555 1_555
H22 C42 1_555 1_555
C43 C42 1_555 1_555
C44 C43 1_555 1_555
H23 C44 1_555 1_555
C45 C40 1_555 1_555
H24 C45 1_555 1_555
C46 C43 1_555 1_555
C47 C46 1_555 1_555
H25 C47 1_555 1_555
C48 C47 1_555 1_555
H26 C48 1_555 1_555
C49 C48 1_555 1_555
C50 C49 1_555 1_555
H27 C50 1_555 1_555
C51 C46 1_555 1_555
H28 C51 1_555 1_555
C52 C49 1_555 1_555
N1 C1 1_555 1_555
N2 C3 1_555 1_555
N3 C18 1_555 1_555
N4 C22 1_555 1_555
O1 C6 1_555 1_555
O2 C10 1_555 1_555
O3 C18 1_555 1_555
O4 C19 1_555 1_555
O5 C52 1_555 1_555
O6 C52 1_555 1_555
O7 C39 1_555 1_555
O8 C39 1_555 1_555
O9 C25 1_555 1_555
O10 C25 1_555 1_555
O11 C38 1_555 1_555
O12 C38 1_555 1_555
Zn1 N4 1_555 1_555
Zn2 N1 1_555 1_555
O6_2 Zn2 1_555 1_555
O7_2 Zn2 1_555 1_555
O8_2 Zn1 1_555 1_555
O10_2 Zn2 1_555 1_555
O11_2 Zn1 1_555 1_555
O12_2 Zn2 1_555 1_555
Zn1_2 O8 1_555 1_555
Zn1_3 O11 1_555 1_555
Zn1_4 Zn2 1_555 1_555
Zn2_2 O6 1_555 1_555
Zn2_3 O7 1_555 1_555
Zn2_4 O12 1_555 1_555
C5 N1 1_555 1_555
C6 N2 1_555 1_555
C13 C14 1_555 1_555
C16 C17 1_555 1_555
C19 N3 1_555 1_555
C20 N3 1_555 1_555
C23 C24 1_555 1_555
C23 N4 1_555 1_555
C30 C31 1_555 1_555
C36 C37 1_555 1_555
C44 C45 1_555 1_555
C50 C51 1_555 1_555
O5 Zn1 1_555 1_555
O9 Zn1 1_555 1_555
O10 Zn2_2 1_555 1_555
Zn1 Zn2_2 1_555 1_555
Zn1_2 Zn2_3 1_555 1_555
Zn1_3 Zn2_4 1_555 1_555

#END
