
#######################################################################
#
#                 Cambridge Crystallographic Data Centre
#                                CCDC 
#
#######################################################################
#
# If this CIF has been generated from an entry in the Cambridge 
# Structural Database, then it will include bibliographic, chemical, 
# crystal, experimental, refinement or atomic coordinate data resulting 
# from the CCDC's data processing and validation procedures.
#
#######################################################################

data_ISIYOZ
_chemical_formula_moiety         '(C12 H22 Er2 N2 O16)n'
_symmetry_cell_setting           orthorhombic
_symmetry_space_group_name_H-M   'P n a 21'
_symmetry_Int_Tables_number      33
_space_group_name_Hall           'P 2c -2n'
loop_
_symmetry_equiv_pos_site_id
_symmetry_equiv_pos_as_xyz
1 x,y,z
2 -x,-y,1/2+z
3 1/2+x,1/2-y,z
4 1/2-x,1/2+y,1/2+z
_cell_length_a                   18.0939(3)
_cell_length_b                   13.3115(2)
_cell_length_c                   8.5775(2)
_cell_angle_alpha                90
_cell_angle_beta                 90
_cell_angle_gamma                90
_cell_volume                     2065.95
loop_
_atom_site_label
_atom_site_type_symbol
_atom_site_fract_x
_atom_site_fract_y
_atom_site_fract_z
Er1 Er 0.601024(16) 0.37458(3) 0.25264(4)
Er2 Er 0.393797(16) 0.12491(3) 0.75236(4)
O1 O 0.5639(3) 0.2941(5) 0.4811(10)
O2 O 0.4971(4) 0.2108(4) 0.6521(10)
O3 O 0.6480(3) 0.2057(4) 0.2333(11)
O4 O 0.6478(3) 0.0415(4) 0.2819(11)
O5 O 0.7032(9) 0.3864(5) 0.4205(13)
O6 O 0.7957(8) 0.3811(4) 0.5815(14)
O7 O 0.7011(7) 0.3660(4) 0.0910(13)
O8 O 0.7915(9) 0.3678(5) -0.0761(14)
O9 O 0.6477(3) 0.5433(4) 0.2382(8)
O10 O 0.6475(3) 0.7076(4) 0.1959(8)
O11 O 0.5034(4) 0.4671(4) 0.3384(10)
O12 O 0.4343(3) 0.5532(4) 0.5077(9)
O13 O 0.5018(4) 0.2798(4) 0.1533(10)
O14 O 0.4271(3) 0.2159(4) -0.0269(9)
O15 O 0.4971(3) 0.0406(4) 0.8496(9)
O16 O 0.5719(3) -0.0372(5) 1.0164(10)
C1 C 0.5102(7) 0.2468(9) 0.5206(13)
H1 H 0.4737 0.2357 0.4428
C2 C 0.6155(5) 0.1186(7) 0.2629(18)
H2 H 0.5631 0.1175 0.2694
C3 C 0.7325(6) 0.3542(7) 0.5250(13)
H3 H 0.7079 0.3012 0.5778
C4 C 0.7330(6) 0.3952(7) -0.0391(12)
H4 H 0.7073 0.4405 -0.1055
C5 C 0.6165(6) 0.6217(7) 0.2141(12)
H5 H 0.5641 0.6198 0.2081
C6 C 0.4932(8) 0.5069(10) 0.4672(16)
H6 H 0.5320 0.5028 0.5415
C7 C 0.4881(6) 0.2486(8) 0.0203(13)
H7 H 0.5275 0.2496 -0.0528
C8 C 0.5105(7) 0.0009(10) 0.9749(14)
H8 H 0.4713 -0.0017 1.0484
Er1A Er 0.398976(16) 0.62542(3) 0.75264(4)
Er2A Er 0.606203(16) -0.12491(3) 0.25236(4)
Er2B Er 0.893797(16) 0.37509(3) 0.75236(4)
Er2B_2 Er 0.893797(16) 0.37509(3) -0.24764(4)
Er2A_2 Er 0.606203(16) 0.87509(3) 0.25236(4)
Er2_2 Er 0.393797(16) 0.12491(3) -0.24764(4)
Er2A_3 Er 0.606203(16) -0.12491(3) 1.25236(4)
O4A O 0.3522(3) -0.0415(4) 0.7819(11)
O6B O 0.2957(8) 0.1189(4) 0.5815(14)
O8B O 0.2915(9) 0.1322(5) 0.9239(14)
O10A O 0.3525(3) 0.2924(4) 0.6959(8)
O12A O 0.5657(3) 0.4468(4) 0.0077(9)
O14_2 O 0.4271(3) 0.2159(4) 0.9731(9)
O16A O 0.4281(3) 0.0372(5) 0.5164(10)
C9 C 0.8335(5) 0.5717(7) 0.1882(12)
H9 H 0.7954 0.5997 0.1198
H10 H 0.8535 0.5102 0.1417
H11 H 0.8734 0.6209 0.2014
C10 C 0.7751(6) 0.6408(6) 0.4276(12)
H12 H 0.7482 0.6851 0.3544
H13 H 0.8183 0.6780 0.4683
C11 C 0.7243(6) 0.6106(7) 0.5625(13)
H14 H 0.6808 0.5739 0.5216
H15 H 0.7511 0.5657 0.6350
C12 C 0.6678(6) 0.6809(8) 0.8014(12)
H16 H 0.6219 0.6426 0.7891
H17 H 0.6572 0.7444 0.8549
H18 H 0.7031 0.6417 0.8631
N1 N 0.8004(4) 0.5478(6) 0.3443(10)
H19 H 0.7608 0.5053 0.3309
H20 H 0.8349 0.5151 0.4046
N2 N 0.6997(4) 0.7021(5) 0.6463(9)
H21 H 0.7394 0.7446 0.6581
H22 H 0.6649 0.7348 0.5866
loop_
_geom_bond_atom_site_label_1
_geom_bond_atom_site_label_2
_geom_bond_site_symmetry_1
_geom_bond_site_symmetry_2
Er1 O1 1_555 1_555
Er2 O2 1_555 1_555
O1 C1 1_555 1_555
O2 C1 1_555 1_555
O3 Er1 1_555 1_555
O4 C2 1_555 1_555
O5 Er1 1_555 1_555
O6 C3 1_555 1_555
O7 Er1 1_555 1_555
O8 C4 1_555 1_555
O9 Er1 1_555 1_555
O10 C5 1_555 1_555
O11 Er1 1_555 1_555
O12 C6 1_555 1_555
O13 Er1 1_555 1_555
O14 C7 1_555 1_555
O15 Er2 1_555 1_555
O16 C8 1_555 1_555
C1 H1 1_555 1_555
C2 O3 1_555 1_555
H2 C2 1_555 1_555
C3 O5 1_555 1_555
H3 C3 1_555 1_555
C4 O7 1_555 1_555
H4 C4 1_555 1_555
C5 O9 1_555 1_555
H5 C5 1_555 1_555
C6 O11 1_555 1_555
H6 C6 1_555 1_555
C7 O13 1_555 1_555
H7 C7 1_555 1_555
C8 O15 1_555 1_555
H8 C8 1_555 1_555
C9 H9 1_555 1_555
H10 C9 1_555 1_555
H11 C9 1_555 1_555
C10 H12 1_555 1_555
H13 C10 1_555 1_555
C11 C10 1_555 1_555
H14 C11 1_555 1_555
H15 C11 1_555 1_555
C12 H16 1_555 1_555
H17 C12 1_555 1_555
H18 C12 1_555 1_555
N1 C9 1_555 1_555
H19 N1 1_555 1_555
H20 N1 1_555 1_555
N2 C11 1_555 1_555
H21 N2 1_555 1_555
H22 N2 1_555 1_555
Er1A O12 1_555 1_555
Er2A O4 1_555 1_555
Er2B O6 1_555 1_555
Er2B_2 O8 1_555 1_555
Er2A_2 O10 1_555 1_555
Er2_2 O14 1_555 1_555
Er2A_3 O16 1_555 1_555
O4A Er2 1_555 1_555
O6B Er2 1_555 1_555
O8B Er2 1_555 1_555
O10A Er2 1_555 1_555
O12A Er1 1_555 1_555
O14_2 Er2 1_555 1_555
O16A Er2 1_555 1_555
C10 N1 1_555 1_555
C12 N2 1_555 1_555

#END
