
#######################################################################
#
#                 Cambridge Crystallographic Data Centre
#                                CCDC 
#
#######################################################################
#
# If this CIF has been generated from an entry in the Cambridge 
# Structural Database, then it will include bibliographic, chemical, 
# crystal, experimental, refinement or atomic coordinate data resulting 
# from the CCDC's data processing and validation procedures.
#
#######################################################################

data_ISIYOZ01
_chemical_formula_moiety         '(C12 H22 Er2 N2 O16)n'
_symmetry_cell_setting           orthorhombic
_symmetry_space_group_name_H-M   'P n a 21'
_symmetry_Int_Tables_number      33
_space_group_name_Hall           'P 2c -2n'
loop_
_symmetry_equiv_pos_site_id
_symmetry_equiv_pos_as_xyz
1 x,y,z
2 -x,-y,1/2+z
3 1/2+x,1/2-y,z
4 1/2-x,1/2+y,1/2+z
_cell_length_a                   18.1266(3)
_cell_length_b                   13.3611(2)
_cell_length_c                   8.5791(2)
_cell_angle_alpha                90
_cell_angle_beta                 90
_cell_angle_gamma                90
_cell_volume                     2077.78
loop_
_atom_site_label
_atom_site_type_symbol
_atom_site_fract_x
_atom_site_fract_y
_atom_site_fract_z
Er1 Er 0.600931(16) 0.37468(3) 0.25300(4)
Er2 Er 0.393684(16) 0.12462(3) 0.75275(4)
O1 O 0.5631(4) 0.2992(5) 0.4794(11)
O2 O 0.4947(4) 0.2101(4) 0.6442(9)
O3 O 0.6484(4) 0.2045(4) 0.2479(10)
O4 O 0.6481(4) 0.0405(4) 0.2919(9)
O5 O 0.7001(7) 0.3858(5) 0.4208(11)
O6 O 0.7921(9) 0.3826(5) 0.5697(19)
O7 O 0.7037(9) 0.3652(5) 0.0859(16)
O8 O 0.7941(7) 0.3695(4) -0.0779(11)
O9 O 0.6478(4) 0.5405(4) 0.2484(14)
O10 O 0.6480(4) 0.7058(4) 0.2090(12)
O11 O 0.5030(4) 0.4701(4) 0.3304(9)
O12 O 0.4357(4) 0.5491(5) 0.5072(11)
O13 O 0.5045(5) 0.2805(5) 0.1440(10)
O14 O 0.4270(4) 0.2098(5) -0.0260(11)
O15 O 0.4971(4) 0.0375(4) 0.8435(9)
O16 O 0.5706(4) -0.0334(4) 1.0170(10)
C1 C 0.5086(8) 0.2484(12) 0.5228(19)
H1 H 0.4728 0.2391 0.4465
C2 C 0.6172(6) 0.1294(7) 0.265(2)
H2 H 0.5660 0.1314 0.2583
C3 C 0.7356(8) 0.3561(9) 0.5266(16)
H3 H 0.7147 0.3038 0.5829
C4 C 0.7324(6) 0.3947(6) -0.0330(11)
H4 H 0.7060 0.4394 -0.0946
C5 C 0.6171(6) 0.6300(7) 0.2127(13)
H5 H 0.5670 0.6306 0.1892
C6 C 0.4903(8) 0.5081(9) 0.4692(13)
H6 H 0.5274 0.5022 0.5434
C7 C 0.4894(7) 0.2463(11) 0.0213(18)
H7 H 0.5275 0.2455 -0.0514
C8 C 0.5127(7) -0.0001(9) 0.9776(13)
H8 H 0.4750 -0.0012 1.0510
Er1A Er 0.399069(16) 0.62532(3) 0.75300(4)
Er2A Er 0.606316(16) -0.12462(3) 0.25275(4)
Er2B Er 0.893684(16) 0.37538(3) 0.75275(4)
Er2B_2 Er 0.893684(16) 0.37538(3) -0.24725(4)
Er2A_2 Er 0.606316(16) 0.87538(3) 0.25275(4)
Er2_2 Er 0.393684(16) 0.12462(3) -0.24725(4)
Er2A_3 Er 0.606316(16) -0.12462(3) 1.25275(4)
O4A O 0.3519(4) -0.0405(4) 0.7919(9)
O6B O 0.2921(9) 0.1174(5) 0.5697(19)
O8B O 0.2941(7) 0.1305(4) 0.9221(11)
O10A O 0.3520(4) 0.2942(4) 0.7090(12)
O12A O 0.5643(4) 0.4509(5) 0.0072(11)
O14_2 O 0.4270(4) 0.2098(5) 0.9740(11)
O16A O 0.4294(4) 0.0334(4) 0.5170(10)
C9 C 0.8354(6) 0.5718(9) 0.1901(13)
H9 H 0.8001 0.5998 0.1189
H10 H 0.8556 0.5115 0.1467
H11 H 0.8744 0.6191 0.2074
C10 C 0.7763(6) 0.6400(7) 0.4281(13)
H12 H 0.7522 0.6867 0.3580
H13 H 0.8196 0.6724 0.4712
C11 C 0.7225(6) 0.6103(7) 0.5619(14)
H14 H 0.6794 0.5772 0.5189
H15 H 0.7467 0.5642 0.6327
C12 C 0.6638(7) 0.6803(10) 0.7965(13)
H16 H 0.6193 0.6430 0.7788
H17 H 0.6521 0.7423 0.8471
H18 H 0.6965 0.6420 0.8614
N1 N 0.7984(5) 0.5486(6) 0.3414(11)
H19 H 0.7581 0.5112 0.3228
H20 H 0.8292 0.5123 0.4010
N2 N 0.6999(5) 0.7008(6) 0.6466(11)
H21 H 0.7401 0.7390 0.6638
H22 H 0.6688 0.7362 0.5862
loop_
_geom_bond_atom_site_label_1
_geom_bond_atom_site_label_2
_geom_bond_site_symmetry_1
_geom_bond_site_symmetry_2
Er1 O1 1_555 1_555
Er2 O2 1_555 1_555
O1 C1 1_555 1_555
O2 C1 1_555 1_555
O3 Er1 1_555 1_555
O4 C2 1_555 1_555
O5 Er1 1_555 1_555
O6 C3 1_555 1_555
O7 Er1 1_555 1_555
O8 C4 1_555 1_555
O9 Er1 1_555 1_555
O10 C5 1_555 1_555
O11 Er1 1_555 1_555
O12 C6 1_555 1_555
O13 Er1 1_555 1_555
O14 C7 1_555 1_555
O15 Er2 1_555 1_555
O16 C8 1_555 1_555
C1 H1 1_555 1_555
C2 O3 1_555 1_555
H2 C2 1_555 1_555
C3 O5 1_555 1_555
H3 C3 1_555 1_555
C4 O7 1_555 1_555
H4 C4 1_555 1_555
C5 O9 1_555 1_555
H5 C5 1_555 1_555
C6 O11 1_555 1_555
H6 C6 1_555 1_555
C7 O13 1_555 1_555
H7 C7 1_555 1_555
C8 O15 1_555 1_555
H8 C8 1_555 1_555
C9 H9 1_555 1_555
H10 C9 1_555 1_555
H11 C9 1_555 1_555
C10 H12 1_555 1_555
H13 C10 1_555 1_555
C11 C10 1_555 1_555
H14 C11 1_555 1_555
H15 C11 1_555 1_555
C12 H16 1_555 1_555
H17 C12 1_555 1_555
H18 C12 1_555 1_555
N1 C9 1_555 1_555
H19 N1 1_555 1_555
H20 N1 1_555 1_555
N2 C11 1_555 1_555
H21 N2 1_555 1_555
H22 N2 1_555 1_555
Er1A O12 1_555 1_555
Er2A O4 1_555 1_555
Er2B O6 1_555 1_555
Er2B_2 O8 1_555 1_555
Er2A_2 O10 1_555 1_555
Er2_2 O14 1_555 1_555
Er2A_3 O16 1_555 1_555
O4A Er2 1_555 1_555
O6B Er2 1_555 1_555
O8B Er2 1_555 1_555
O10A Er2 1_555 1_555
O12A Er1 1_555 1_555
O14_2 Er2 1_555 1_555
O16A Er2 1_555 1_555
C10 N1 1_555 1_555
C12 N2 1_555 1_555

#END
