
#######################################################################
#
#                 Cambridge Crystallographic Data Centre
#                                CCDC 
#
#######################################################################
#
# If this CIF has been generated from an entry in the Cambridge 
# Structural Database, then it will include bibliographic, chemical, 
# crystal, experimental, refinement or atomic coordinate data resulting 
# from the CCDC's data processing and validation procedures.
#
#######################################################################

data_DIBPAH
_chemical_formula_moiety         '(C24 H42 Ce1 N7 O11)n'
_symmetry_cell_setting           monoclinic
_symmetry_space_group_name_H-M   'P 21/n'
_symmetry_Int_Tables_number      14
_space_group_name_Hall           '-P 2yn'
loop_
_symmetry_equiv_pos_site_id
_symmetry_equiv_pos_as_xyz
1 x,y,z
2 1/2-x,1/2+y,1/2-z
3 -x,-y,-z
4 1/2+x,1/2-y,1/2+z
_cell_length_a                   16.143(4)
_cell_length_b                   7.7507(18)
_cell_length_c                   27.374(6)
_cell_angle_alpha                90
_cell_angle_beta                 93.077(3)
_cell_angle_gamma                90
_cell_volume                     3420.08
loop_
_atom_site_label
_atom_site_type_symbol
_atom_site_fract_x
_atom_site_fract_y
_atom_site_fract_z
C1 C 0.7897(6) 0.4079(12) 0.6623(3)
C2 C 0.8023(7) 0.2830(14) 0.6204(3)
H1 H 0.822(6) 0.173(12) 0.634(3)
C3 C 0.9834(6) 0.2886(15) 0.3867(4)
H2 H 0.9841 0.2744 0.4219
H3 H 0.9943 0.4090 0.3797
C4 C 1.0515(6) 0.1756(13) 0.3658(3)
H4 H 1.1053 0.2127 0.3793
H5 H 1.0434 0.0565 0.3753
C5 C 1.0492(6) 0.1882(13) 0.3109(3)
H6 H 1.062(5) 0.308(12) 0.302(3)
C6 C 0.9636(5) 0.1458(14) 0.2903(3)
H7 H 0.9532 0.0241 0.2955
H8 H 0.9613 0.1662 0.2553
C7 C 0.8958(6) 0.2495(14) 0.3127(3)
H9 H 0.8996 0.3689 0.3024
H10 H 0.8422 0.2053 0.3010
C8 C 0.8384(6) 0.2078(12) 0.3928(3)
C9 C 0.7045(5) 0.1205(14) 0.3993(3)
C10 C 0.7846(6) 0.1825(13) 0.4676(3)
C11 C 0.4815(6) 0.0456(16) 0.3835(3)
H11 H 0.4746 0.1700 0.3834
H12 H 0.4390 -0.0037 0.4030
C12 C 0.4706(6) -0.0223(13) 0.3309(4)
H13 H 0.476(5) -0.148(12) 0.332(3)
C13 C 0.5423(6) 0.0520(15) 0.3028(3)
H14 H 0.5389 0.0065 0.2697
H15 H 0.5363 0.1763 0.3007
C14 C 0.6268(6) 0.0099(16) 0.3264(3)
H16 H 0.6365 -0.1134 0.3245
H17 H 0.6694 0.0682 0.3089
C15 C 0.5668(6) 0.0002(18) 0.4065(4)
H18 H 0.5727 0.0490 0.4392
H19 H 0.5719 -0.1241 0.4094
C16 C 0.8652(6) 0.3472(15) 0.5854(3)
H20 H 0.9191 0.3548 0.6027
H21 H 0.8496 0.4623 0.5745
C17 C 0.7207(7) 0.2508(18) 0.5920(4)
H22 H 0.6975 0.3605 0.5810
H23 H 0.6822 0.1982 0.6135
C18 C 0.8716(6) 0.2320(16) 0.5416(4)
H24 H 0.9084 0.2848 0.5191
H25 H 0.8957 0.1226 0.5521
C19 C 0.7294(7) 0.1369(16) 0.5487(3)
H26 H 0.7448 0.0218 0.5598
H27 H 0.6763 0.1289 0.5304
C20 C 1.1137(6) 0.0729(12) 0.2907(3)
C21 C 0.3885(6) 0.0221(11) 0.3062(3)
Ce1 Ce 1.22396(2) -0.12857(6) 0.233875(14)
N1 N 0.7082(4) 0.1325(12) 0.4486(3)
N2 N 0.6313(5) 0.0650(12) 0.3777(3)
N3 N 0.8501(5) 0.2155(11) 0.4425(3)
N4 N 0.7643(5) 0.1660(12) 0.3695(3)
N5 N 0.9025(4) 0.2410(11) 0.3653(3)
N6 N 0.7917(5) 0.2007(12) 0.5164(3)
O1 O 0.7829(4) 0.3475(8) 0.70580(19)
O2 O 0.7861(4) 0.5658(8) 0.6552(2)
O3 O 0.3482(4) -0.0943(8) 0.2842(2)
O4 O 1.0980(4) -0.0825(8) 0.2806(2)
O5 O 1.1877(3) 0.1273(8) 0.2842(2)
O6 O 1.1208(4) 0.0453(9) 0.1847(2)
O7 O 0.3650(4) 0.1769(8) 0.3070(2)
Ce1_2 Ce 0.22396(2) -0.12857(6) 0.233875(14)
Ce1A Ce 0.27604(2) 0.37143(6) 0.266125(14)
Ce1A_2 Ce 1.27604(2) 0.37143(6) 0.266125(14)
Ce1B Ce 0.77604(2) 0.12857(6) 0.766125(14)
Ce1C Ce 0.72396(2) 0.62857(6) 0.733875(14)
O1B O 1.2171(4) -0.3475(8) 0.29420(19)
O1C O 1.2829(4) 0.1525(8) 0.20580(19)
O2C O 1.2861(4) -0.0658(8) 0.1552(2)
O3_2 O 1.3482(4) -0.0943(8) 0.2842(2)
O5A O 1.3123(3) -0.3727(8) 0.2158(2)
O7A O 1.1350(4) -0.3231(8) 0.1930(2)
C22 C 0.7471(17) 0.684(4) 0.443(2)
H28 H 0.7366 0.6110 0.4146
H29 H 0.7151 0.7877 0.4388
H30 H 0.7316 0.6241 0.4715
C23 C 0.854(4) 0.739(5) 0.4924(9)
H31 H 0.8174 0.6795 0.5129
H32 H 0.8561 0.8593 0.5011
H33 H 0.9090 0.6909 0.4967
C24 C 0.867(3) 0.749(5) 0.4143(19)
H34 H 0.8336 0.7306 0.3861
N7 N 0.8280(10) 0.7234(17) 0.4470(5)
O8 O 0.9296(16) 0.788(3) 0.4032(8)
O9 O 0.9547(5) 0.0190(13) 0.1549(4)
O10 O 0.9806(7) 0.6794(14) 0.3164(4)
O11 O 0.6992(6) 0.4419(14) 0.2998(3)
loop_
_geom_bond_atom_site_label_1
_geom_bond_atom_site_label_2
_geom_bond_site_symmetry_1
_geom_bond_site_symmetry_2
C1 C2 1_555 1_555
C2 H1 1_555 1_555
C3 H2 1_555 1_555
H3 C3 1_555 1_555
C4 C3 1_555 1_555
H4 C4 1_555 1_555
H5 C4 1_555 1_555
C5 C4 1_555 1_555
H6 C5 1_555 1_555
C6 C5 1_555 1_555
H7 C6 1_555 1_555
H8 C6 1_555 1_555
C7 C6 1_555 1_555
H9 C7 1_555 1_555
H10 C7 1_555 1_555
C8 N3 1_555 1_555
C9 N1 1_555 1_555
C10 N1 1_555 1_555
C11 H11 1_555 1_555
H12 C11 1_555 1_555
C12 C11 1_555 1_555
H13 C12 1_555 1_555
C13 C12 1_555 1_555
H14 C13 1_555 1_555
H15 C13 1_555 1_555
C14 C13 1_555 1_555
H16 C14 1_555 1_555
H17 C14 1_555 1_555
C15 C11 1_555 1_555
H18 C15 1_555 1_555
H19 C15 1_555 1_555
C16 C2 1_555 1_555
H20 C16 1_555 1_555
H21 C16 1_555 1_555
C17 C2 1_555 1_555
H22 C17 1_555 1_555
H23 C17 1_555 1_555
C18 C16 1_555 1_555
H24 C18 1_555 1_555
H25 C18 1_555 1_555
C19 C17 1_555 1_555
H26 C19 1_555 1_555
H27 C19 1_555 1_555
C20 C5 1_555 1_555
C21 C12 1_555 1_555
Ce1 O4 1_555 1_555
N2 C9 1_555 1_555
N3 C10 1_555 1_555
N4 C8 1_555 1_555
N5 C3 1_555 1_555
N6 C10 1_555 1_555
O1 C1 1_555 1_555
O2 C1 1_555 1_555
O3 C21 1_555 1_555
O4 C20 1_555 1_555
O5 C20 1_555 1_555
O6 Ce1 1_555 1_555
O7 C21 1_555 1_555
C22 H28 1_555 1_555
H29 C22 1_555 1_555
H30 C22 1_555 1_555
C23 H31 1_555 1_555
H32 C23 1_555 1_555
H33 C23 1_555 1_555
C24 H34 1_555 1_555
N7 C22 1_555 1_555
O8 C24 1_555 1_555
Ce1_2 O3 1_555 1_555
Ce1A O7 1_555 1_555
Ce1A_2 O5 1_555 1_555
Ce1B O1 1_555 1_555
Ce1C O1 1_555 1_555
O1B Ce1 1_555 1_555
O1C Ce1 1_555 1_555
O2C Ce1 1_555 1_555
O3_2 Ce1 1_555 1_555
O5A Ce1 1_555 1_555
O7A Ce1 1_555 1_555
C7 N5 1_555 1_555
C8 N5 1_555 1_555
C9 N4 1_555 1_555
C14 N2 1_555 1_555
C15 N2 1_555 1_555
C18 N6 1_555 1_555
C19 N6 1_555 1_555
Ce1 O5 1_555 1_555
O2 Ce1C 1_555 1_555
C23 N7 1_555 1_555
C24 N7 1_555 1_555
Ce1A_2 O1C 1_555 1_555

#END
