
#######################################################################
#
#                 Cambridge Crystallographic Data Centre
#                                CCDC 
#
#######################################################################
#
# If this CIF has been generated from an entry in the Cambridge 
# Structural Database, then it will include bibliographic, chemical, 
# crystal, experimental, refinement or atomic coordinate data resulting 
# from the CCDC's data processing and validation procedures.
#
#######################################################################

data_EPECUZ
_chemical_formula_moiety         'C283 H175 N5 O75 Zn34'
_symmetry_cell_setting           tetragonal
_symmetry_space_group_name_H-M   'P 43 21 2'
_symmetry_Int_Tables_number      96
_space_group_name_Hall           'P 4nw 2abw'
loop_
_symmetry_equiv_pos_site_id
_symmetry_equiv_pos_as_xyz
1 x,y,z
2 -x,-y,1/2+z
3 1/2-y,1/2+x,3/4+z
4 1/2+y,1/2-x,1/4+z
5 1/2-x,1/2+y,3/4-z
6 1/2+x,1/2-y,1/4-z
7 y,x,-z
8 -y,-x,1/2-z
_cell_length_a                   25.5020(18)
_cell_length_b                   25.5020(18)
_cell_length_c                   50.469(4)
_cell_angle_alpha                90
_cell_angle_beta                 90
_cell_angle_gamma                90
_cell_volume                     32822.6
loop_
_atom_site_label
_atom_site_type_symbol
_atom_site_fract_x
_atom_site_fract_y
_atom_site_fract_z
O29 O 0.1055(9) 0.6015(7) 0.0813(4)
C141 C 0.0933(8) 0.6414(8) 0.0681(4)
H85 H 0.0663 0.6380 0.0552
N3 N 0.1156(5) 0.6884(5) 0.0710(3)
C142 C 0.1595(8) 0.6933(10) 0.0896(5)
H86 H 0.1734 0.7292 0.0890
H87 H 0.1873 0.6685 0.0848
H88 H 0.1473 0.6857 0.1076
C143 C 0.1101(7) 0.7322(9) 0.0549(5)
H89 H 0.1360 0.7588 0.0600
H90 H 0.0747 0.7467 0.0570
H91 H 0.1156 0.7222 0.0364
O1 O 0.0437(2) 0.0391(3) 0.12815(13)
Zn1 Zn 0.00534(5) -0.00412(5) 0.10254(3)
Zn2 Zn 0.09023(5) 0.50034(5) 0.08396(2)
Zn3 Zn -0.41096(4) -0.07616(5) 0.11431(2)
Zn4 Zn -0.00226(4) -0.42311(5) 0.09562(2)
Zn5 Zn 0.07732(5) -0.00814(5) 0.15241(3)
Zn6 Zn 0.09810(4) 0.07209(4) 0.10779(2)
Zn7 Zn 0.00916(5) 0.48154(5) 0.13226(2)
Zn8 Zn -0.00684(7) 0.08850(6) 0.14271(3)
O2 O -0.0729(6) 0.1333(6) 0.1466(3)
C1 C -0.0785(10) 0.1726(9) 0.1613(6)
H1 H -0.0485 0.1899 0.1681
N1 N -0.1268(10) 0.1904(12) 0.1674(7)
C2 C -0.1714(11) 0.1681(16) 0.1545(10)
H2 H -0.2029 0.1876 0.1596
H3 H -0.1752 0.1314 0.1598
H4 H -0.1667 0.1700 0.1353
C3 C -0.1399(18) 0.2318(18) 0.1837(10)
H5 H -0.1778 0.2379 0.1828
H6 H -0.1213 0.2634 0.1779
H7 H -0.1299 0.2234 0.2020
O3 O 0.0409(8) 0.4207(7) 0.1543(4)
C4 C 0.0203(10) 0.3763(7) 0.1595(5)
H8 H -0.0149 0.3696 0.1545
N2 N 0.0485(9) 0.3383(7) 0.1722(4)
C5 C 0.1022(8) 0.3514(12) 0.1757(5)
H9 H 0.1200 0.3231 0.1852
H10 H 0.1049 0.3840 0.1859
H11 H 0.1188 0.3563 0.1583
C6 C 0.0371(14) 0.2904(8) 0.1827(6)
H12 H 0.0684 0.2761 0.1913
H13 H 0.0259 0.2667 0.1685
H14 H 0.0089 0.2941 0.1957
C7 C 0.0524(4) 0.3962(4) 0.0992(3)
O4 O 0.0166(5) 0.4163(4) 0.1138(4)
O5 O 0.0813(3) 0.4217(3) 0.08408(16)
C8 C 0.0648(5) 0.1729(4) 0.1176(4)
O6 O 0.0323(6) 0.1545(5) 0.1324(5)
O7 O 0.1003(4) 0.1468(3) 0.1070(2)
C9 C 0.0579(4) 0.3383(4) 0.1017(4)
C10 C 0.0129(5) 0.3086(4) 0.1063(5)
H15 H -0.0205 0.3249 0.1054
C11 C 0.0161(5) 0.2562(5) 0.1121(5)
H16 H -0.0148 0.2373 0.1164
C12 C 0.0645(4) 0.2302(4) 0.1116(4)
C13 C 0.1104(4) 0.2585(4) 0.1066(2)
C14 C 0.1058(4) 0.3122(4) 0.0999(2)
C15 C 0.1670(4) 0.2394(3) 0.10759(18)
H17 H 0.1697 0.2013 0.1120
C16 C 0.1591(4) 0.3378(3) 0.09576(19)
H18 H 0.1564 0.3758 0.0910
C17 C 0.1955(4) 0.2746(3) 0.1279(2)
C18 C 0.1913(4) 0.3287(3) 0.1206(2)
C19 C 0.2164(4) 0.3683(4) 0.1351(2)
H19 H 0.2149 0.4043 0.1303
C20 C 0.2446(5) 0.3490(5) 0.1578(3)
H20 H 0.2637 0.3734 0.1682
C21 C 0.2454(5) 0.3004(5) 0.1646(2)
H21 H 0.2632 0.2906 0.1804
C22 C 0.2207(5) 0.2617(5) 0.1495(2)
H22 H 0.2223 0.2260 0.1548
C23 C 0.1898(4) 0.2521(4) 0.0808(2)
C24 C 0.1846(5) 0.3060(4) 0.0745(2)
C25 C 0.2028(5) 0.3233(5) 0.0499(2)
H23 H 0.1994 0.3590 0.0448
C26 C 0.2267(5) 0.2860(5) 0.0326(2)
H24 H 0.2393 0.2968 0.0158
C27 C 0.2313(6) 0.2356(5) 0.0401(2)
H25 H 0.2466 0.2111 0.0282
C28 C 0.2145(5) 0.2188(5) 0.0643(2)
H26 H 0.2202 0.1835 0.0695
C29 C -0.3170(4) -0.0244(5) 0.1292(2)
O8 O -0.3395(3) 0.0031(4) 0.1468(2)
O9 O -0.3358(3) -0.0635(3) 0.11713(15)
C30 C -0.0945(5) 0.0140(7) 0.1180(3)
O10 O -0.0722(5) 0.0389(10) 0.1337(4)
O11 O -0.0705(3) -0.0131(4) 0.1008(2)
C31 C -0.2608(3) -0.0123(5) 0.12446(18)
C32 C -0.2290(3) 0.0027(5) 0.1456(2)
H27 H -0.2448 0.0067 0.1625
C33 C -0.1780(4) 0.0118(6) 0.1434(2)
H28 H -0.1582 0.0206 0.1587
C34 C -0.1530(4) 0.0086(6) 0.1185(2)
C35 C -0.1838(4) -0.0040(4) 0.0964(2)
C36 C -0.2375(3) -0.0162(4) 0.09986(17)
C37 C -0.1660(4) -0.0081(4) 0.06742(18)
H29 H -0.1276 -0.0016 0.0651
C38 C -0.2646(4) -0.0261(4) 0.07295(19)
H30 H -0.3029 -0.0332 0.0751
C39 C -0.2009(4) 0.0318(4) 0.0519(2)
C40 C -0.2550(4) 0.0197(4) 0.0552(2)
C41 C -0.2942(5) 0.0509(4) 0.0435(2)
H31 H -0.3306 0.0454 0.0464
C42 C -0.2746(6) 0.0913(4) 0.0267(3)
H32 H -0.2992 0.1134 0.0181
C43 C -0.2251(6) 0.0997(5) 0.0225(3)
H33 H -0.2145 0.1263 0.0105
C44 C -0.1875(5) 0.0696(4) 0.0357(2)
H34 H -0.1514 0.0768 0.0329
C45 C -0.1823(4) -0.0619(4) 0.05844(19)
C46 C -0.2367(4) -0.0715(4) 0.0612(2)
C47 C -0.2567(6) -0.1205(4) 0.0541(3)
H35 H -0.2921 -0.1295 0.0578
C48 C -0.2218(5) -0.1577(5) 0.0408(3)
H36 H -0.2344 -0.1902 0.0343
C49 C -0.1721(6) -0.1443(5) 0.0381(3)
H37 H -0.1493 -0.1685 0.0297
C50 C -0.1509(5) -0.0972(4) 0.0469(2)
H38 H -0.1146 -0.0902 0.0447
C51 C 0.0028(5) -0.4589(4) 0.04489(18)
O12 O -0.0162(3) -0.4204(3) 0.05738(13)
O13 O 0.0233(7) -0.4948(4) 0.0571(2)
C52 C -0.0310(5) -0.4555(5) -0.06789(19)
O14 O -0.0576(3) -0.4196(3) -0.07626(13)
O15 O -0.0048(8) -0.4866(6) -0.08120(18)
C53 C -0.0072(4) -0.4633(4) 0.01597(18)
C54 C -0.0252(4) -0.4171(4) 0.00311(18)
H39 H -0.0335 -0.3868 0.0132
C55 C -0.0303(5) -0.4167(5) -0.02326(19)
H40 H -0.0367 -0.3842 -0.0319
C56 C -0.0268(5) -0.4613(4) -0.03838(18)
C57 C -0.0099(4) -0.5079(4) -0.02643(19)
C58 C -0.0007(4) -0.5082(4) 0.00119(18)
C59 C -0.0024(4) -0.5620(4) -0.03890(18)
H41 H -0.0092 -0.5620 -0.0584
C60 C 0.0156(4) -0.5628(4) 0.0106(2)
H42 H 0.0222 -0.5633 0.0301
C61 C -0.0384(4) -0.6003(4) -0.0236(2)
C62 C -0.0270(5) -0.6005(5) 0.0031(2)
C63 C -0.0508(7) -0.6366(6) 0.0202(3)
H43 H -0.0430 -0.6392 0.0386
C64 C -0.0882(9) -0.6692(8) 0.0069(4)
H44 H -0.1022 -0.6977 0.0167
C65 C -0.1046(12) -0.6635(9) -0.0170(5)
H45 H -0.1365 -0.6781 -0.0233
C66 C -0.0720(6) -0.6347(7) -0.0323(3)
H46 H -0.0738 -0.6400 -0.0509
C67 C 0.0526(4) -0.5766(4) -0.0322(2)
C68 C 0.0623(4) -0.5780(4) -0.0043(2)
C69 C 0.1111(5) -0.5926(5) 0.0048(3)
H47 H 0.1183 -0.5954 0.0232
C70 C 0.1501(6) -0.6033(8) -0.0144(3)
H48 H 0.1856 -0.6067 -0.0090
C71 C 0.1380(7) -0.6088(7) -0.0402(3)
H49 H 0.1627 -0.6237 -0.0521
C72 C 0.0897(6) -0.5928(6) -0.0492(3)
H50 H 0.0825 -0.5933 -0.0677
C73 C 0.0341(5) -0.3288(4) 0.1216(3)
O16 O 0.0696(4) -0.3509(3) 0.13500(16)
O17 O 0.0026(4) -0.3507(3) 0.1060(2)
C74 C 0.0425(5) -0.1019(4) 0.1258(2)
O18 O 0.0595(4) -0.0826(3) 0.14622(18)
O19 O 0.0341(3) -0.0772(3) 0.10462(17)
C75 C 0.0300(5) -0.2700(4) 0.1228(3)
C76 C 0.0679(5) -0.2435(4) 0.1381(3)
H51 H 0.0923 -0.2641 0.1478
C77 C 0.0716(7) -0.1913(5) 0.1398(3)
H52 H 0.0975 -0.1753 0.1507
C78 C 0.0357(6) -0.1606(4) 0.1250(3)
C79 C -0.0031(5) -0.1838(4) 0.1095(2)
C80 C -0.0059(5) -0.2397(4) 0.1095(2)
C81 C -0.0433(4) -0.1576(5) 0.0917(2)
H53 H -0.0381 -0.1188 0.0904
C82 C -0.0543(4) -0.2568(5) 0.0941(2)
H54 H -0.0591 -0.2957 0.0950
C83 C -0.0983(5) -0.1727(4) 0.1031(2)
C84 C -0.1013(5) -0.2286(4) 0.1051(3)
C85 C -0.1456(6) -0.2518(6) 0.1160(3)
H55 H -0.1504 -0.2887 0.1170
C86 C -0.1828(9) -0.2152(8) 0.1255(5)
H56 H -0.2106 -0.2287 0.1361
C87 C -0.1828(7) -0.1649(7) 0.1213(4)
H57 H -0.2129 -0.1441 0.1248
C88 C -0.1366(6) -0.1424(6) 0.1112(3)
H58 H -0.1332 -0.1054 0.1102
C89 C -0.0376(5) -0.1844(5) 0.0654(2)
C90 C -0.0474(5) -0.2391(5) 0.0664(2)
C91 C -0.0432(6) -0.2662(7) 0.0428(2)
H59 H -0.0471 -0.3032 0.0426
C92 C -0.0331(7) -0.2384(8) 0.0189(3)
H60 H -0.0354 -0.2561 0.0024
C93 C -0.0204(7) -0.1875(8) 0.0195(3)
H61 H -0.0054 -0.1712 0.0044
C94 C -0.0290(6) -0.1592(6) 0.0419(2)
H62 H -0.0289 -0.1220 0.0412
C95 C 0.4072(4) -0.0166(4) 0.1317(2)
O20 O 0.4325(3) 0.0182(4) 0.11946(18)
O21 O 0.4261(3) -0.0556(3) 0.14309(16)
C96 C 0.1828(4) 0.0152(5) 0.1321(2)
O22 O 0.1681(3) 0.0495(4) 0.11671(18)
O23 O 0.1527(3) -0.0117(4) 0.1464(2)
C97 C 0.3491(3) -0.0102(6) 0.1329(2)
C98 C 0.3233(4) 0.0117(6) 0.1110(3)
H63 H 0.3431 0.0221 0.0960
C99 C 0.2713(4) 0.0182(7) 0.1110(3)
H64 H 0.2546 0.0317 0.0956
C100 C 0.2411(3) 0.0054(6) 0.1332(2)
C101 C 0.2642(4) -0.0175(4) 0.15545(19)
C102 C 0.3196(4) -0.0259(5) 0.1546(2)
C103 C 0.2393(4) -0.0369(5) 0.1805(2)
H65 H 0.2003 -0.0334 0.1804
C104 C 0.3390(5) -0.0478(5) 0.1806(2)
H66 H 0.3779 -0.0523 0.1805
C105 C 0.2653(4) -0.0060(6) 0.2037(2)
C106 C 0.3217(5) -0.0110(7) 0.2022(2)
C107 C 0.3530(6) 0.0155(8) 0.2205(3)
H67 H 0.3902 0.0138 0.2199
C108 C 0.3260(7) 0.0452(9) 0.2400(3)
H68 H 0.3459 0.0606 0.2539
C109 C 0.2757(7) 0.0524(8) 0.2399(3)
H69 H 0.2597 0.0750 0.2525
C110 C 0.2450(5) 0.0260(7) 0.2207(3)
H70 H 0.2083 0.0320 0.2203
C111 C 0.2571(6) -0.0930(5) 0.1836(3)
C112 C 0.3120(5) -0.0984(5) 0.1845(3)
C113 C 0.3324(8) -0.1476(7) 0.1864(4)
H71 H 0.3694 -0.1519 0.1868
C114 C 0.2990(10) -0.1935(9) 0.1881(5)
H72 H 0.3133 -0.2278 0.1886
C115 C 0.2466(9) -0.1855(8) 0.1889(5)
H73 H 0.2236 -0.2147 0.1902
C116 C 0.2263(7) -0.1354(7) 0.1880(3)
H74 H 0.1897 -0.1305 0.1904
C117 C 0.0573(5) 0.0395(6) 0.0567(3)
O24 O 0.0181(4) 0.0124(5) 0.06578(18)
O25 O 0.0926(3) 0.0565(3) 0.06963(15)
C118 C 0.0519(6) 0.0494(6) 0.0284(3)
C119 C 0.0200(7) 0.0153(7) 0.0131(3)
H75 H 0.0012 -0.0118 0.0218
C120 C 0.0856(5) 0.0827(5) 0.0134(2)
C121 C 0.1250(4) 0.1217(5) 0.0255(2)
H76 H 0.1262 0.1202 0.0453
C122 C 0.1784(4) 0.1078(4) 0.01231(19)
C123 C 0.2218(4) 0.0910(3) 0.0266(2)
H77 H 0.2216 0.0887 0.0453
C124 C 0.1061(4) 0.1769(4) 0.0146(2)
C125 C 0.0961(4) 0.2190(5) 0.0297(2)
H78 H 0.0978 0.2176 0.0485
C126 C 0.2652(5) 0.0780(5) 0.0117(3)
H79 H 0.2956 0.0653 0.0205
C127 C 0.0827(6) 0.2663(5) 0.0158(3)
H80 H 0.0772 0.2980 0.0252
O26 O 0.0484(2) 0.5323(2) 0.11246(11)
O27 O 0.0618(8) 0.0083(9) 0.1867(6)
C128 C 0.0118(14) 0.0296(13) 0.2227(5)
C129 C 0.0208(11) 0.0366(12) 0.1940(5)
O28 O -0.0003(6) 0.0705(6) 0.1819(3)
C130 C 0.009(2) -0.0330(15) 0.2359(7)
C131 C -0.0623(13) 0.1010(12) 0.2290(8)
H81 H -0.0571 0.1149 0.2106
C132 C -0.1085(13) 0.0613(16) 0.2299(8)
C133 C -0.1504(12) 0.074(2) 0.2139(8)
H82 H -0.1466 0.0884 0.1967
C134 C -0.1989(14) 0.062(2) 0.2251(10)
C135 C -0.047(2) 0.0389(17) 0.2341(9)
C136 C -0.040(2) 0.1783(16) 0.2345(9)
H83 H -0.0320 0.1784 0.2162
C137 C -0.036(2) 0.2243(12) 0.2490(9)
C138 C -0.057(2) 0.1327(13) 0.2461(11)
C139 C -0.0769(14) 0.0892(14) 0.2259(10)
C140 C -0.0142(14) 0.0684(15) 0.2380(6)
H84 H -0.0717 0.0990 0.2069
C117F C 0.0395(6) 0.0573(5) -0.0567(3)
O24F O 0.0124(5) 0.0181(4) -0.06578(18)
O25F O 0.0565(3) 0.0926(3) -0.06963(15)
C118F C 0.0494(6) 0.0519(6) -0.0284(3)
C119F C 0.0153(7) 0.0200(7) -0.0131(3)
H75F H -0.0118 0.0012 -0.0218
C120F C 0.0827(5) 0.0856(5) -0.0134(2)
C121F C 0.1217(5) 0.1250(4) -0.0255(2)
H76F H 0.1202 0.1262 -0.0453
C122F C 0.1078(4) 0.1784(4) -0.01231(19)
C123F C 0.0910(3) 0.2218(4) -0.0266(2)
H77F H 0.0887 0.2216 -0.0453
C124F C 0.1769(4) 0.1061(4) -0.0146(2)
C125F C 0.2190(5) 0.0961(4) -0.0297(2)
H78F H 0.2176 0.0978 -0.0485
C126F C 0.0780(5) 0.2652(5) -0.0117(3)
H79F H 0.0653 0.2956 -0.0205
C127F C 0.2663(5) 0.0827(6) -0.0158(3)
H80F H 0.2980 0.0772 -0.0252
O27G O -0.0083(9) -0.0618(8) 0.3133(6)
C128G C -0.0296(13) -0.0118(14) 0.2773(5)
C129G C -0.0366(12) -0.0208(11) 0.3060(5)
O28G O -0.0705(6) 0.0003(6) 0.3181(3)
C130G C 0.0330(15) -0.009(2) 0.2641(7)
C131G C -0.1010(12) 0.0623(13) 0.2710(8)
H81G H -0.1149 0.0571 0.2894
C132G C -0.0613(16) 0.1085(13) 0.2701(8)
C133G C -0.074(2) 0.1504(12) 0.2861(8)
H82G H -0.0884 0.1466 0.3033
C134G C -0.062(2) 0.1989(14) 0.2749(10)
C135G C -0.0389(17) 0.047(2) 0.2659(9)
C136G C -0.1783(16) 0.040(2) 0.2655(9)
H83G H -0.1784 0.0320 0.2838
C137G C -0.2243(12) 0.036(2) 0.2510(9)
C138G C -0.1327(13) 0.057(2) 0.2539(11)
C139G C -0.0892(14) 0.0769(14) 0.2741(10)
C140G C -0.0684(15) 0.0142(14) 0.2620(6)
H84G H -0.0990 0.0717 0.2931
O1F O 0.0391(3) 0.0437(2) -0.12815(13)
Zn1F Zn -0.00412(5) 0.00534(5) -0.10254(3)
Zn2F Zn 0.50034(5) 0.09023(5) -0.08396(2)
Zn3F Zn -0.07616(5) -0.41096(4) -0.11431(2)
Zn4F Zn -0.42311(5) -0.00226(4) -0.09562(2)
Zn5F Zn -0.00814(5) 0.07732(5) -0.15241(3)
Zn6F Zn 0.07209(4) 0.09810(4) -0.10779(2)
Zn7F Zn 0.48154(5) 0.00916(5) -0.13226(2)
Zn8F Zn 0.08850(6) -0.00684(7) -0.14271(3)
O2F O 0.1333(6) -0.0729(6) -0.1466(3)
C1F C 0.1726(9) -0.0785(10) -0.1613(6)
H1F H 0.1899 -0.0485 -0.1681
N1F N 0.1904(12) -0.1268(10) -0.1674(7)
C2F C 0.1681(16) -0.1714(11) -0.1545(10)
H2F H 0.1876 -0.2029 -0.1596
H3F H 0.1314 -0.1752 -0.1598
H4F H 0.1700 -0.1667 -0.1353
C3F C 0.2318(18) -0.1399(18) -0.1837(10)
H5F H 0.2379 -0.1778 -0.1828
H6F H 0.2634 -0.1213 -0.1779
H7F H 0.2234 -0.1299 -0.2020
O3F O 0.4207(7) 0.0409(8) -0.1543(4)
C4F C 0.3763(7) 0.0203(10) -0.1595(5)
H8F H 0.3696 -0.0149 -0.1545
N2F N 0.3383(7) 0.0485(9) -0.1722(4)
C5F C 0.3514(12) 0.1022(8) -0.1757(5)
H9F H 0.3231 0.1200 -0.1852
H10F H 0.3840 0.1049 -0.1859
H11F H 0.3563 0.1188 -0.1583
C6F C 0.2904(8) 0.0371(14) -0.1827(6)
H12F H 0.2761 0.0684 -0.1913
H13F H 0.2667 0.0259 -0.1685
H14F H 0.2941 0.0089 -0.1957
C7F C 0.3962(4) 0.0524(4) -0.0992(3)
O4F O 0.4163(4) 0.0166(5) -0.1138(4)
O5F O 0.4217(3) 0.0813(3) -0.08408(16)
C8F C 0.1729(4) 0.0648(5) -0.1176(4)
O6F O 0.1545(5) 0.0323(6) -0.1324(5)
O7F O 0.1468(3) 0.1003(4) -0.1070(2)
C9F C 0.3383(4) 0.0579(4) -0.1017(4)
C10F C 0.3086(4) 0.0129(5) -0.1063(5)
H15F H 0.3249 -0.0205 -0.1054
C11F C 0.2562(5) 0.0161(5) -0.1121(5)
H16F H 0.2373 -0.0148 -0.1164
C12F C 0.2302(4) 0.0645(4) -0.1116(4)
C13F C 0.2585(4) 0.1104(4) -0.1066(2)
C14F C 0.3122(4) 0.1058(4) -0.0999(2)
C15F C 0.2394(3) 0.1670(4) -0.10759(18)
H17F H 0.2013 0.1697 -0.1120
C16F C 0.3378(3) 0.1591(4) -0.09576(19)
H18F H 0.3758 0.1564 -0.0910
C17F C 0.2746(3) 0.1955(4) -0.1279(2)
C18F C 0.3287(3) 0.1913(4) -0.1206(2)
C19F C 0.3683(4) 0.2164(4) -0.1351(2)
H19F H 0.4043 0.2149 -0.1303
C20F C 0.3490(5) 0.2446(5) -0.1578(3)
H20F H 0.3734 0.2637 -0.1682
C21F C 0.3004(5) 0.2454(5) -0.1646(2)
H21F H 0.2906 0.2632 -0.1804
C22F C 0.2617(5) 0.2207(5) -0.1495(2)
H22F H 0.2260 0.2223 -0.1548
C23F C 0.2521(4) 0.1898(4) -0.0808(2)
C24F C 0.3060(4) 0.1846(5) -0.0745(2)
C25F C 0.3233(5) 0.2028(5) -0.0499(2)
H23F H 0.3590 0.1994 -0.0448
C26F C 0.2860(5) 0.2267(5) -0.0326(2)
H24F H 0.2968 0.2393 -0.0158
C27F C 0.2356(5) 0.2313(6) -0.0401(2)
H25F H 0.2111 0.2466 -0.0282
C28F C 0.2188(5) 0.2145(5) -0.0643(2)
H26F H 0.1835 0.2202 -0.0695
C29F C -0.0244(5) -0.3170(4) -0.1292(2)
O8F O 0.0031(4) -0.3395(3) -0.1468(2)
O9F O -0.0635(3) -0.3358(3) -0.11713(15)
C30F C 0.0140(7) -0.0945(5) -0.1180(3)
O10F O 0.0389(10) -0.0722(5) -0.1337(4)
O11F O -0.0131(4) -0.0705(3) -0.1008(2)
C31F C -0.0123(5) -0.2608(3) -0.12446(18)
C32F C 0.0027(5) -0.2290(3) -0.1456(2)
H27F H 0.0067 -0.2448 -0.1625
C33F C 0.0118(6) -0.1780(4) -0.1434(2)
H28F H 0.0206 -0.1582 -0.1587
C34F C 0.0086(6) -0.1530(4) -0.1185(2)
C35F C -0.0040(4) -0.1838(4) -0.0964(2)
C36F C -0.0162(4) -0.2375(3) -0.09986(17)
C37F C -0.0081(4) -0.1660(4) -0.06742(18)
H29F H -0.0016 -0.1276 -0.0651
C38F C -0.0261(4) -0.2646(4) -0.07295(19)
H30F H -0.0332 -0.3029 -0.0751
C39F C 0.0318(4) -0.2009(4) -0.0519(2)
C40F C 0.0197(4) -0.2550(4) -0.0552(2)
C41F C 0.0509(4) -0.2942(5) -0.0435(2)
H31F H 0.0454 -0.3306 -0.0464
C42F C 0.0913(4) -0.2746(6) -0.0267(3)
H32F H 0.1134 -0.2992 -0.0181
C43F C 0.0997(5) -0.2251(6) -0.0225(3)
H33F H 0.1263 -0.2145 -0.0105
C44F C 0.0696(4) -0.1875(5) -0.0357(2)
H34F H 0.0768 -0.1514 -0.0329
C45F C -0.0619(4) -0.1823(4) -0.05844(19)
C46F C -0.0715(4) -0.2367(4) -0.0612(2)
C47F C -0.1205(4) -0.2567(6) -0.0541(3)
H35F H -0.1295 -0.2921 -0.0578
C48F C -0.1577(5) -0.2218(5) -0.0408(3)
H36F H -0.1902 -0.2344 -0.0343
C49F C -0.1443(5) -0.1721(6) -0.0381(3)
H37F H -0.1685 -0.1493 -0.0297
C50F C -0.0972(4) -0.1509(5) -0.0469(2)
H38F H -0.0902 -0.1146 -0.0447
C51F C -0.4589(4) 0.0028(5) -0.04489(18)
O12F O -0.4204(3) -0.0162(3) -0.05738(13)
O13F O -0.4948(4) 0.0233(7) -0.0571(2)
C52F C -0.4555(5) -0.0310(5) 0.06789(19)
O14F O -0.4196(3) -0.0576(3) 0.07626(13)
O15F O -0.4866(6) -0.0048(8) 0.08120(18)
C53F C -0.4633(4) -0.0072(4) -0.01597(18)
C54F C -0.4171(4) -0.0252(4) -0.00311(18)
H39F H -0.3868 -0.0335 -0.0132
C55F C -0.4167(5) -0.0303(5) 0.02326(19)
H40F H -0.3842 -0.0367 0.0319
C56F C -0.4613(4) -0.0268(5) 0.03838(18)
C57F C -0.5079(4) -0.0099(4) 0.02643(19)
C58F C -0.5082(4) -0.0007(4) -0.00119(18)
C59F C -0.5620(4) -0.0024(4) 0.03890(18)
H41F H -0.5620 -0.0092 0.0584
C60F C -0.5628(4) 0.0156(4) -0.0106(2)
H42F H -0.5633 0.0222 -0.0301
C61F C -0.6003(4) -0.0384(4) 0.0236(2)
C62F C -0.6005(5) -0.0270(5) -0.0031(2)
C63F C -0.6366(6) -0.0508(7) -0.0202(3)
H43F H -0.6392 -0.0430 -0.0386
C64F C -0.6692(8) -0.0882(9) -0.0069(4)
H44F H -0.6977 -0.1022 -0.0167
C65F C -0.6635(9) -0.1046(12) 0.0170(5)
H45F H -0.6781 -0.1365 0.0233
C66F C -0.6347(7) -0.0720(6) 0.0323(3)
H46F H -0.6400 -0.0738 0.0509
C67F C -0.5766(4) 0.0526(4) 0.0322(2)
C68F C -0.5780(4) 0.0623(4) 0.0043(2)
C69F C -0.5926(5) 0.1111(5) -0.0048(3)
H47F H -0.5954 0.1183 -0.0232
C70F C -0.6033(8) 0.1501(6) 0.0144(3)
H48F H -0.6067 0.1856 0.0090
C71F C -0.6088(7) 0.1380(7) 0.0402(3)
H49F H -0.6237 0.1627 0.0521
C72F C -0.5928(6) 0.0897(6) 0.0492(3)
H50F H -0.5933 0.0825 0.0677
C73F C -0.3288(4) 0.0341(5) -0.1216(3)
O16F O -0.3509(3) 0.0696(4) -0.13500(16)
O17F O -0.3507(3) 0.0026(4) -0.1060(2)
C74F C -0.1019(4) 0.0425(5) -0.1258(2)
O18F O -0.0826(3) 0.0595(4) -0.14622(18)
O19F O -0.0772(3) 0.0341(3) -0.10462(17)
C75F C -0.2700(4) 0.0300(5) -0.1228(3)
C76F C -0.2435(4) 0.0679(5) -0.1381(3)
H51F H -0.2641 0.0923 -0.1478
C77F C -0.1913(5) 0.0716(7) -0.1398(3)
H52F H -0.1753 0.0975 -0.1507
C78F C -0.1606(4) 0.0357(6) -0.1250(3)
C79F C -0.1838(4) -0.0031(5) -0.1095(2)
C80F C -0.2397(4) -0.0059(5) -0.1095(2)
C81F C -0.1576(5) -0.0433(4) -0.0917(2)
H53F H -0.1188 -0.0381 -0.0904
C82F C -0.2568(5) -0.0543(4) -0.0941(2)
H54F H -0.2957 -0.0591 -0.0950
C83F C -0.1727(4) -0.0983(5) -0.1031(2)
C84F C -0.2286(4) -0.1013(5) -0.1051(3)
C85F C -0.2518(6) -0.1456(6) -0.1160(3)
H55F H -0.2887 -0.1504 -0.1170
C86F C -0.2152(8) -0.1828(9) -0.1255(5)
H56F H -0.2287 -0.2106 -0.1361
C87F C -0.1649(7) -0.1828(7) -0.1213(4)
H57F H -0.1441 -0.2129 -0.1248
C88F C -0.1424(6) -0.1366(6) -0.1112(3)
H58F H -0.1054 -0.1332 -0.1102
C89F C -0.1844(5) -0.0376(5) -0.0654(2)
C90F C -0.2391(5) -0.0474(5) -0.0664(2)
C91F C -0.2662(7) -0.0432(6) -0.0428(2)
H59F H -0.3032 -0.0471 -0.0426
C92F C -0.2384(8) -0.0331(7) -0.0189(3)
H60F H -0.2561 -0.0354 -0.0024
C93F C -0.1875(8) -0.0204(7) -0.0195(3)
H61F H -0.1712 -0.0054 -0.0044
C94F C -0.1592(6) -0.0290(6) -0.0419(2)
H62F H -0.1220 -0.0289 -0.0412
C95F C -0.0166(4) 0.4072(4) -0.1317(2)
O20F O 0.0182(4) 0.4325(3) -0.11946(18)
O21F O -0.0556(3) 0.4261(3) -0.14309(16)
C96F C 0.0152(5) 0.1828(4) -0.1321(2)
O22F O 0.0495(4) 0.1681(3) -0.11671(18)
O23F O -0.0117(4) 0.1527(3) -0.1464(2)
C97F C -0.0102(6) 0.3491(3) -0.1329(2)
C98F C 0.0117(6) 0.3233(4) -0.1110(3)
H63F H 0.0221 0.3431 -0.0960
C99F C 0.0182(7) 0.2713(4) -0.1110(3)
H64F H 0.0317 0.2546 -0.0956
C100F C 0.0054(6) 0.2411(3) -0.1332(2)
C101F C -0.0175(4) 0.2642(4) -0.15545(19)
C102F C -0.0259(5) 0.3196(4) -0.1546(2)
C103F C -0.0369(5) 0.2393(4) -0.1805(2)
H65F H -0.0334 0.2003 -0.1804
C104F C -0.0478(5) 0.3390(5) -0.1806(2)
H66F H -0.0523 0.3779 -0.1805
C105F C -0.0060(6) 0.2653(4) -0.2037(2)
C106F C -0.0110(7) 0.3217(5) -0.2022(2)
C107F C 0.0155(8) 0.3530(6) -0.2205(3)
H67F H 0.0138 0.3902 -0.2199
C108F C 0.0452(9) 0.3260(7) -0.2400(3)
H68F H 0.0606 0.3459 -0.2539
C109F C 0.0524(8) 0.2757(7) -0.2399(3)
H69F H 0.0750 0.2597 -0.2525
C110F C 0.0260(7) 0.2450(5) -0.2207(3)
H70F H 0.0320 0.2083 -0.2203
C111F C -0.0930(5) 0.2571(6) -0.1836(3)
C112F C -0.0984(5) 0.3120(5) -0.1845(3)
C113F C -0.1476(7) 0.3324(8) -0.1864(4)
H71F H -0.1519 0.3694 -0.1868
C114F C -0.1935(9) 0.2990(10) -0.1881(5)
H72F H -0.2278 0.3133 -0.1886
C115F C -0.1855(8) 0.2466(9) -0.1889(5)
H73F H -0.2147 0.2236 -0.1902
C116F C -0.1354(7) 0.2263(7) -0.1880(3)
H74F H -0.1305 0.1897 -0.1904
O26F O 0.5323(2) 0.0484(2) -0.11246(11)
Zn2_2 Zn 0.09023(5) -0.49966(5) 0.08396(2)
Zn2B Zn -0.00034(5) -0.40977(5) -0.16604(2)
Zn2E Zn -0.40977(5) -0.00034(5) 0.16604(2)
Zn2F_2 Zn -0.49966(5) 0.09023(5) -0.08396(2)
Zn3B Zn -0.42384(5) 0.08904(4) -0.13569(2)
Zn3B_2 Zn 0.57616(5) 0.08904(4) -0.13569(2)
Zn3E Zn 0.08904(4) -0.42384(5) 0.13569(2)
Zn3E_2 Zn 0.08904(4) 0.57616(5) 0.13569(2)
Zn4_2 Zn -0.00226(4) 0.57689(5) 0.09562(2)
Zn4B Zn -0.07689(5) 0.49774(4) -0.15438(2)
Zn4E Zn 0.49774(4) -0.07689(5) 0.15438(2)
Zn4F_2 Zn 0.57689(5) -0.00226(4) -0.09562(2)
Zn5G Zn 0.00814(5) -0.07732(5) 0.34759(3)
Zn7B Zn 0.01846(5) -0.49084(5) -0.11774(2)
Zn7B_2 Zn 0.01846(5) 0.50916(5) -0.11774(2)
Zn7E Zn -0.49084(5) 0.01846(5) 0.11774(2)
Zn7E_2 Zn 0.50916(5) 0.01846(5) 0.11774(2)
Zn8G Zn -0.08850(6) 0.00684(7) 0.35729(3)
O8B O 0.4969(4) 0.1605(3) -0.1032(2)
O8E O 0.1605(3) 0.4969(4) 0.1032(2)
O13_2 O 0.0233(7) 0.5052(4) 0.0571(2)
O13F_2 O 0.5052(4) 0.0233(7) -0.0571(2)
O15C O 0.0134(6) 0.5048(8) 0.16880(18)
O15D O 0.5048(8) 0.0134(6) -0.16880(18)
O16B O -0.1491(3) -0.4304(4) -0.11500(16)
O16E O -0.4304(4) -0.1491(3) 0.11500(16)
O20B O 0.4818(4) -0.0675(3) -0.13054(18)
O20E O -0.0675(3) 0.4818(4) 0.13054(18)
O21B O -0.4444(3) -0.0739(3) -0.10691(16)
O21E O -0.0739(3) -0.4444(3) 0.10691(16)
O26_2 O 0.0484(2) -0.4677(2) 0.11246(11)
O26B O -0.0323(2) -0.4516(2) -0.13754(11)
O26E O -0.4516(2) -0.0323(2) 0.13754(11)
O26F_2 O -0.4677(2) 0.0484(2) -0.11246(11)
O27F O 0.0083(9) 0.0618(8) -0.1867(6)
O28F O 0.0705(6) -0.0003(6) -0.1819(3)
loop_
_geom_bond_atom_site_label_1
_geom_bond_atom_site_label_2
_geom_bond_site_symmetry_1
_geom_bond_site_symmetry_2
O1 Zn1 1_555 1_555
Zn1 O11 1_555 1_555
Zn2 O5 1_555 1_555
Zn3 O9 1_555 1_555
Zn4 O12 1_555 1_555
Zn5 O1 1_555 1_555
Zn6 O1 1_555 1_555
Zn7 O3 1_555 1_555
Zn8 O1 1_555 1_555
O2 Zn8 1_555 1_555
C1 O2 1_555 1_555
H1 C1 1_555 1_555
N1 C1 1_555 1_555
C2 N1 1_555 1_555
H2 C2 1_555 1_555
H3 C2 1_555 1_555
H4 C2 1_555 1_555
C3 N1 1_555 1_555
H5 C3 1_555 1_555
H6 C3 1_555 1_555
H7 C3 1_555 1_555
O3 C4 1_555 1_555
C4 H8 1_555 1_555
N2 C4 1_555 1_555
C5 N2 1_555 1_555
H9 C5 1_555 1_555
H10 C5 1_555 1_555
H11 C5 1_555 1_555
C6 N2 1_555 1_555
H12 C6 1_555 1_555
H13 C6 1_555 1_555
H14 C6 1_555 1_555
C7 O4 1_555 1_555
O4 Zn7 1_555 1_555
O5 C7 1_555 1_555
C8 O6 1_555 1_555
O6 Zn8 1_555 1_555
O7 Zn6 1_555 1_555
C9 C7 1_555 1_555
C10 C9 1_555 1_555
H15 C10 1_555 1_555
C11 C10 1_555 1_555
H16 C11 1_555 1_555
C12 C8 1_555 1_555
C13 C12 1_555 1_555
C14 C9 1_555 1_555
C15 C13 1_555 1_555
H17 C15 1_555 1_555
C16 C14 1_555 1_555
H18 C16 1_555 1_555
C17 C15 1_555 1_555
C18 C16 1_555 1_555
C19 C18 1_555 1_555
H19 C19 1_555 1_555
C20 C19 1_555 1_555
H20 C20 1_555 1_555
C21 C20 1_555 1_555
H21 C21 1_555 1_555
C22 C17 1_555 1_555
H22 C22 1_555 1_555
C23 C15 1_555 1_555
C24 C16 1_555 1_555
C25 C24 1_555 1_555
H23 C25 1_555 1_555
C26 C25 1_555 1_555
H24 C26 1_555 1_555
C27 C26 1_555 1_555
H25 C27 1_555 1_555
C28 C23 1_555 1_555
H26 C28 1_555 1_555
C29 O8 1_555 1_555
O8 Zn2E 1_555 1_555
O9 C29 1_555 1_555
C30 O10 1_555 1_555
O10 Zn8 1_555 1_555
O11 C30 1_555 1_555
C31 C29 1_555 1_555
C32 C31 1_555 1_555
H27 C32 1_555 1_555
C33 C32 1_555 1_555
H28 C33 1_555 1_555
C34 C30 1_555 1_555
C35 C34 1_555 1_555
C36 C31 1_555 1_555
C37 C35 1_555 1_555
H29 C37 1_555 1_555
C38 C36 1_555 1_555
H30 C38 1_555 1_555
C39 C37 1_555 1_555
C40 C38 1_555 1_555
C41 C40 1_555 1_555
H31 C41 1_555 1_555
C42 C41 1_555 1_555
H32 C42 1_555 1_555
C43 C42 1_555 1_555
H33 C43 1_555 1_555
C44 C39 1_555 1_555
H34 C44 1_555 1_555
C45 C37 1_555 1_555
C46 C38 1_555 1_555
C47 C46 1_555 1_555
H35 C47 1_555 1_555
C48 C47 1_555 1_555
H36 C48 1_555 1_555
C49 C48 1_555 1_555
H37 C49 1_555 1_555
C50 C45 1_555 1_555
H38 C50 1_555 1_555
C51 O12 1_555 1_555
O13 C51 1_555 1_555
C52 O14 1_555 1_555
O14 Zn3F 1_555 1_555
O15 C52 1_555 1_555
C53 C51 1_555 1_555
C54 C53 1_555 1_555
H39 C54 1_555 1_555
C55 C54 1_555 1_555
H40 C55 1_555 1_555
C56 C52 1_555 1_555
C57 C56 1_555 1_555
C58 C53 1_555 1_555
C59 C57 1_555 1_555
H41 C59 1_555 1_555
C60 C58 1_555 1_555
H42 C60 1_555 1_555
C61 C59 1_555 1_555
C62 C60 1_555 1_555
C63 C62 1_555 1_555
H43 C63 1_555 1_555
C64 C63 1_555 1_555
H44 C64 1_555 1_555
C65 C64 1_555 1_555
H45 C65 1_555 1_555
C66 C61 1_555 1_555
H46 C66 1_555 1_555
C67 C59 1_555 1_555
C68 C60 1_555 1_555
C69 C68 1_555 1_555
H47 C69 1_555 1_555
C70 C69 1_555 1_555
H48 C70 1_555 1_555
C71 C70 1_555 1_555
H49 C71 1_555 1_555
C72 C67 1_555 1_555
H50 C72 1_555 1_555
C73 O16 1_555 1_555
O16 Zn3E 1_555 1_555
O17 Zn4 1_555 1_555
C74 O18 1_555 1_555
O18 Zn5 1_555 1_555
O19 Zn1 1_555 1_555
C75 C73 1_555 1_555
C76 C75 1_555 1_555
H51 C76 1_555 1_555
C77 C76 1_555 1_555
H52 C77 1_555 1_555
C78 C74 1_555 1_555
C79 C78 1_555 1_555
C80 C75 1_555 1_555
C81 C79 1_555 1_555
H53 C81 1_555 1_555
C82 C80 1_555 1_555
H54 C82 1_555 1_555
C83 C81 1_555 1_555
C84 C82 1_555 1_555
C85 C84 1_555 1_555
H55 C85 1_555 1_555
C86 C85 1_555 1_555
H56 C86 1_555 1_555
C87 C86 1_555 1_555
H57 C87 1_555 1_555
C88 C83 1_555 1_555
H58 C88 1_555 1_555
C89 C81 1_555 1_555
C90 C82 1_555 1_555
C91 C90 1_555 1_555
H59 C91 1_555 1_555
C92 C91 1_555 1_555
H60 C92 1_555 1_555
C93 C92 1_555 1_555
H61 C93 1_555 1_555
C94 C89 1_555 1_555
H62 C94 1_555 1_555
C95 O20 1_555 1_555
O20 Zn7E_2 1_555 1_555
O21 C95 1_555 1_555
C96 O22 1_555 1_555
O22 Zn6 1_555 1_555
O23 Zn5 1_555 1_555
C97 C95 1_555 1_555
C98 C97 1_555 1_555
H63 C98 1_555 1_555
C99 C98 1_555 1_555
H64 C99 1_555 1_555
C100 C96 1_555 1_555
C101 C100 1_555 1_555
C102 C97 1_555 1_555
C103 C101 1_555 1_555
H65 C103 1_555 1_555
C104 C102 1_555 1_555
H66 C104 1_555 1_555
C105 C103 1_555 1_555
C106 C104 1_555 1_555
C107 C106 1_555 1_555
H67 C107 1_555 1_555
C108 C107 1_555 1_555
H68 C108 1_555 1_555
C109 C108 1_555 1_555
H69 C109 1_555 1_555
C110 C105 1_555 1_555
H70 C110 1_555 1_555
C111 C103 1_555 1_555
C112 C104 1_555 1_555
C113 C112 1_555 1_555
H71 C113 1_555 1_555
C114 C113 1_555 1_555
H72 C114 1_555 1_555
C115 C114 1_555 1_555
H73 C115 1_555 1_555
C116 C111 1_555 1_555
H74 C116 1_555 1_555
C117 O24 1_555 1_555
O24 Zn1 1_555 1_555
O25 Zn6 1_555 1_555
C118 C117 1_555 1_555
C119 C118 1_555 1_555
H75 C119 1_555 1_555
C120 C118 1_555 1_555
C121 C120 1_555 1_555
H76 C121 1_555 1_555
C122 C121 1_555 1_555
C123 C122 1_555 1_555
H77 C123 1_555 1_555
C124 C121 1_555 1_555
C125 C124 1_555 1_555
H78 C125 1_555 1_555
C126 C123 1_555 1_555
H79 C126 1_555 1_555
C127 C125 1_555 1_555
H80 C127 1_555 1_555
O26 Zn2 1_555 1_555
O27 Zn5 1_555 1_555
C128 C129 1_555 1_555
C129 O27 1_555 1_555
O28 Zn8 1_555 1_555
C130 C128 1_555 1_555
C131 H81 1_555 1_555
H81 C139 1_555 1_555
C132 C131 1_555 1_555
C133 C132 1_555 1_555
H82 C133 1_555 1_555
C134 C133 1_555 1_555
C135 C128 1_555 1_555
C136 H83 1_555 1_555
C137 C136 1_555 1_555
C138 C131 1_555 1_555
C139 C132 1_555 1_555
C140 C128 1_555 1_555
H84 C131 1_555 1_555
O29 C141 1_555 1_555
C141 H85 1_555 1_555
N3 C141 1_555 1_555
C142 N3 1_555 1_555
H86 C142 1_555 1_555
H87 C142 1_555 1_555
H88 C142 1_555 1_555
C143 N3 1_555 1_555
H89 C143 1_555 1_555
H90 C143 1_555 1_555
H91 C143 1_555 1_555
C117F O24F 1_555 1_555
O24F Zn1F 1_555 1_555
O25F C117F 1_555 1_555
C118F C117F 1_555 1_555
C119F C119 1_555 1_555
H75F C119F 1_555 1_555
C120F C120 1_555 1_555
C121F C120F 1_555 1_555
H76F C121F 1_555 1_555
C122F C124 1_555 1_555
C123F C122F 1_555 1_555
H77F C123F 1_555 1_555
C124F C122 1_555 1_555
C125F C124F 1_555 1_555
H78F C125F 1_555 1_555
C126F C127 1_555 1_555
H79F C126F 1_555 1_555
C127F C126 1_555 1_555
H80F C127F 1_555 1_555
O27G C129G 1_555 1_555
C128G C129G 1_555 1_555
C129G O28G 1_555 1_555
O28G Zn8G 1_555 1_555
C130G C130 1_555 1_555
C131G H81G 1_555 1_555
H81G C139G 1_555 1_555
C132G C138 1_555 1_555
C133G C132G 1_555 1_555
H82G C133G 1_555 1_555
C134G C137 1_555 1_555
C135G C135 1_555 1_555
C136G H83G 1_555 1_555
C137G C134 1_555 1_555
C138G C132 1_555 1_555
C139G C132G 1_555 1_555
C140G C135 1_555 1_555
H84G C131G 1_555 1_555
O1F Zn1F 1_555 1_555
Zn1F O11F 1_555 1_555
Zn2F O5F 1_555 1_555
Zn3F O9F 1_555 1_555
Zn4F O12F 1_555 1_555
Zn5F O1F 1_555 1_555
Zn6F O25F 1_555 1_555
Zn7F O3F 1_555 1_555
Zn8F O1F 1_555 1_555
O2F Zn8F 1_555 1_555
C1F O2F 1_555 1_555
H1F C1F 1_555 1_555
N1F C1F 1_555 1_555
C2F N1F 1_555 1_555
H2F C2F 1_555 1_555
H3F C2F 1_555 1_555
H4F C2F 1_555 1_555
C3F N1F 1_555 1_555
H5F C3F 1_555 1_555
H6F C3F 1_555 1_555
H7F C3F 1_555 1_555
O3F C4F 1_555 1_555
C4F H8F 1_555 1_555
N2F C4F 1_555 1_555
C5F N2F 1_555 1_555
H9F C5F 1_555 1_555
H10F C5F 1_555 1_555
H11F C5F 1_555 1_555
C6F N2F 1_555 1_555
H12F C6F 1_555 1_555
H13F C6F 1_555 1_555
H14F C6F 1_555 1_555
C7F O4F 1_555 1_555
O4F Zn7F 1_555 1_555
O5F C7F 1_555 1_555
C8F O6F 1_555 1_555
O6F Zn8F 1_555 1_555
O7F Zn6F 1_555 1_555
C9F C7F 1_555 1_555
C10F C9F 1_555 1_555
H15F C10F 1_555 1_555
C11F C10F 1_555 1_555
H16F C11F 1_555 1_555
C12F C8F 1_555 1_555
C13F C12F 1_555 1_555
C14F C9F 1_555 1_555
C15F C13F 1_555 1_555
H17F C15F 1_555 1_555
C16F C14F 1_555 1_555
H18F C16F 1_555 1_555
C17F C15F 1_555 1_555
C18F C16F 1_555 1_555
C19F C18F 1_555 1_555
H19F C19F 1_555 1_555
C20F C19F 1_555 1_555
H20F C20F 1_555 1_555
C21F C20F 1_555 1_555
H21F C21F 1_555 1_555
C22F C17F 1_555 1_555
H22F C22F 1_555 1_555
C23F C15F 1_555 1_555
C24F C16F 1_555 1_555
C25F C24F 1_555 1_555
H23F C25F 1_555 1_555
C26F C25F 1_555 1_555
H24F C26F 1_555 1_555
C27F C26F 1_555 1_555
H25F C27F 1_555 1_555
C28F C23F 1_555 1_555
H26F C28F 1_555 1_555
C29F O8F 1_555 1_555
O8F Zn2B 1_555 1_555
O9F C29F 1_555 1_555
C30F O10F 1_555 1_555
O10F Zn8F 1_555 1_555
O11F C30F 1_555 1_555
C31F C29F 1_555 1_555
C32F C31F 1_555 1_555
H27F C32F 1_555 1_555
C33F C32F 1_555 1_555
H28F C33F 1_555 1_555
C34F C30F 1_555 1_555
C35F C34F 1_555 1_555
C36F C31F 1_555 1_555
C37F C35F 1_555 1_555
H29F C37F 1_555 1_555
C38F C36F 1_555 1_555
H30F C38F 1_555 1_555
C39F C37F 1_555 1_555
C40F C38F 1_555 1_555
C41F C40F 1_555 1_555
H31F C41F 1_555 1_555
C42F C41F 1_555 1_555
H32F C42F 1_555 1_555
C43F C42F 1_555 1_555
H33F C43F 1_555 1_555
C44F C39F 1_555 1_555
H34F C44F 1_555 1_555
C45F C37F 1_555 1_555
C46F C38F 1_555 1_555
C47F C46F 1_555 1_555
H35F C47F 1_555 1_555
C48F C47F 1_555 1_555
H36F C48F 1_555 1_555
C49F C48F 1_555 1_555
H37F C49F 1_555 1_555
C50F C45F 1_555 1_555
H38F C50F 1_555 1_555
C51F O12F 1_555 1_555
O13F C51F 1_555 1_555
C52F O14F 1_555 1_555
O14F Zn3 1_555 1_555
O15F C52F 1_555 1_555
C53F C51F 1_555 1_555
C54F C53F 1_555 1_555
H39F C54F 1_555 1_555
C55F C54F 1_555 1_555
H40F C55F 1_555 1_555
C56F C52F 1_555 1_555
C57F C56F 1_555 1_555
C58F C53F 1_555 1_555
C59F C57F 1_555 1_555
H41F C59F 1_555 1_555
C60F C58F 1_555 1_555
H42F C60F 1_555 1_555
C61F C59F 1_555 1_555
C62F C60F 1_555 1_555
C63F C62F 1_555 1_555
H43F C63F 1_555 1_555
C64F C63F 1_555 1_555
H44F C64F 1_555 1_555
C65F C64F 1_555 1_555
H45F C65F 1_555 1_555
C66F C61F 1_555 1_555
H46F C66F 1_555 1_555
C67F C59F 1_555 1_555
C68F C60F 1_555 1_555
C69F C68F 1_555 1_555
H47F C69F 1_555 1_555
C70F C69F 1_555 1_555
H48F C70F 1_555 1_555
C71F C70F 1_555 1_555
H49F C71F 1_555 1_555
C72F C67F 1_555 1_555
H50F C72F 1_555 1_555
C73F O16F 1_555 1_555
O16F Zn3B 1_555 1_555
O17F Zn4F 1_555 1_555
C74F O18F 1_555 1_555
O18F Zn5F 1_555 1_555
O19F Zn1F 1_555 1_555
C75F C73F 1_555 1_555
C76F C75F 1_555 1_555
H51F C76F 1_555 1_555
C77F C76F 1_555 1_555
H52F C77F 1_555 1_555
C78F C74F 1_555 1_555
C79F C78F 1_555 1_555
C80F C75F 1_555 1_555
C81F C79F 1_555 1_555
H53F C81F 1_555 1_555
C82F C80F 1_555 1_555
H54F C82F 1_555 1_555
C83F C81F 1_555 1_555
C84F C82F 1_555 1_555
C85F C84F 1_555 1_555
H55F C85F 1_555 1_555
C86F C85F 1_555 1_555
H56F C86F 1_555 1_555
C87F C86F 1_555 1_555
H57F C87F 1_555 1_555
C88F C83F 1_555 1_555
H58F C88F 1_555 1_555
C89F C81F 1_555 1_555
C90F C82F 1_555 1_555
C91F C90F 1_555 1_555
H59F C91F 1_555 1_555
C92F C91F 1_555 1_555
H60F C92F 1_555 1_555
C93F C92F 1_555 1_555
H61F C93F 1_555 1_555
C94F C89F 1_555 1_555
H62F C94F 1_555 1_555
C95F O20F 1_555 1_555
O20F Zn7B_2 1_555 1_555
O21F C95F 1_555 1_555
C96F O22F 1_555 1_555
O22F Zn6F 1_555 1_555
O23F Zn5F 1_555 1_555
C97F C95F 1_555 1_555
C98F C97F 1_555 1_555
H63F C98F 1_555 1_555
C99F C98F 1_555 1_555
H64F C99F 1_555 1_555
C100F C96F 1_555 1_555
C101F C100F 1_555 1_555
C102F C97F 1_555 1_555
C103F C101F 1_555 1_555
H65F C103F 1_555 1_555
C104F C102F 1_555 1_555
H66F C104F 1_555 1_555
C105F C103F 1_555 1_555
C106F C104F 1_555 1_555
C107F C106F 1_555 1_555
H67F C107F 1_555 1_555
C108F C107F 1_555 1_555
H68F C108F 1_555 1_555
C109F C108F 1_555 1_555
H69F C109F 1_555 1_555
C110F C105F 1_555 1_555
H70F C110F 1_555 1_555
C111F C103F 1_555 1_555
C112F C104F 1_555 1_555
C113F C112F 1_555 1_555
H71F C113F 1_555 1_555
C114F C113F 1_555 1_555
H72F C114F 1_555 1_555
C115F C114F 1_555 1_555
H73F C115F 1_555 1_555
C116F C111F 1_555 1_555
H74F C116F 1_555 1_555
O26F Zn2F 1_555 1_555
Zn2_2 O13 1_555 1_555
Zn2B O26B 1_555 1_555
Zn2E O26E 1_555 1_555
Zn2F_2 O13F 1_555 1_555
Zn3B O26F_2 1_555 1_555
Zn3B_2 O26F 1_555 1_555
Zn3E O26_2 1_555 1_555
Zn3E_2 O26 1_555 1_555
Zn4_2 O26 1_555 1_555
Zn4B O21F 1_555 1_555
Zn4E O21 1_555 1_555
Zn4F_2 O26F 1_555 1_555
Zn5G O27G 1_555 1_555
Zn7B O15 1_555 1_555
Zn7E O15F 1_555 1_555
O8B Zn2F 1_555 1_555
O8E Zn2 1_555 1_555
O13_2 Zn2 1_555 1_555
O13F_2 Zn2F 1_555 1_555
O15C Zn7 1_555 1_555
O15D Zn7F 1_555 1_555
O16B Zn3F 1_555 1_555
O16E Zn3 1_555 1_555
O20B Zn7F 1_555 1_555
O20E Zn7 1_555 1_555
O21B Zn4F 1_555 1_555
O21E Zn4 1_555 1_555
O26_2 Zn4 1_555 1_555
O26B Zn3F 1_555 1_555
O26E Zn3 1_555 1_555
O26F_2 Zn4F 1_555 1_555
O27F Zn5F 1_555 1_555
O28F Zn8F 1_555 1_555
Zn7 O26 1_555 1_555
C8 O7 1_555 1_555
C11 C12 1_555 1_555
C13 C14 1_555 1_555
C17 C18 1_555 1_555
C21 C22 1_555 1_555
C23 C24 1_555 1_555
C27 C28 1_555 1_555
C33 C34 1_555 1_555
C35 C36 1_555 1_555
C39 C40 1_555 1_555
C43 C44 1_555 1_555
C45 C46 1_555 1_555
C49 C50 1_555 1_555
C55 C56 1_555 1_555
C57 C58 1_555 1_555
C61 C62 1_555 1_555
C65 C66 1_555 1_555
C67 C68 1_555 1_555
C71 C72 1_555 1_555
C73 O17 1_555 1_555
C74 O19 1_555 1_555
C77 C78 1_555 1_555
C79 C80 1_555 1_555
C83 C84 1_555 1_555
C87 C88 1_555 1_555
C89 C90 1_555 1_555
C93 C94 1_555 1_555
C96 O23 1_555 1_555
C99 C100 1_555 1_555
C101 C102 1_555 1_555
C105 C106 1_555 1_555
C109 C110 1_555 1_555
C111 C112 1_555 1_555
C115 C116 1_555 1_555
C117 O25 1_555 1_555
C129 O28 1_555 1_555
C131 C135 1_555 1_555
C131 C140 1_555 1_555
C132 C135 1_555 1_555
C135 C139 1_555 1_555
C135 C140 1_555 1_555
C136 C138 1_555 1_555
C138 C139 1_555 1_555
C139 C140 1_555 1_555
C139 H84 1_555 1_555
C140 C135G 1_555 1_555
C118F C119F 1_555 1_555
C118F C120F 1_555 1_555
C121F C122F 1_555 1_555
C121F C124F 1_555 1_555
C123F C126F 1_555 1_555
C125F C127F 1_555 1_555
C128G C130G 1_555 1_555
C128G C135G 1_555 1_555
C128G C140G 1_555 1_555
C131G C132G 1_555 1_555
C131G C135G 1_555 1_555
C131G C138G 1_555 1_555
C131G C140G 1_555 1_555
C132G C135G 1_555 1_555
C133G C134G 1_555 1_555
C135G C139G 1_555 1_555
C135G C140G 1_555 1_555
C136G C137G 1_555 1_555
C136G C138G 1_555 1_555
C138G C139G 1_555 1_555
C139G C140G 1_555 1_555
C139G H84G 1_555 1_555
O1F Zn6F 1_555 1_555
Zn7F O26F 1_555 1_555
C8F O7F 1_555 1_555
C11F C12F 1_555 1_555
C13F C14F 1_555 1_555
C17F C18F 1_555 1_555
C21F C22F 1_555 1_555
C23F C24F 1_555 1_555
C27F C28F 1_555 1_555
C33F C34F 1_555 1_555
C35F C36F 1_555 1_555
C39F C40F 1_555 1_555
C43F C44F 1_555 1_555
C45F C46F 1_555 1_555
C49F C50F 1_555 1_555
C55F C56F 1_555 1_555
C57F C58F 1_555 1_555
C61F C62F 1_555 1_555
C65F C66F 1_555 1_555
C67F C68F 1_555 1_555
C71F C72F 1_555 1_555
C73F O17F 1_555 1_555
C74F O19F 1_555 1_555
C77F C78F 1_555 1_555
C79F C80F 1_555 1_555
C83F C84F 1_555 1_555
C87F C88F 1_555 1_555
C89F C90F 1_555 1_555
C93F C94F 1_555 1_555
C96F O23F 1_555 1_555
C99F C100F 1_555 1_555
C101F C102F 1_555 1_555
C105F C106F 1_555 1_555
C109F C110F 1_555 1_555
C111F C112F 1_555 1_555
C115F C116F 1_555 1_555
Zn2_2 O26_2 1_555 1_555
Zn2F_2 O26F_2 1_555 1_555
Zn7B O26B 1_555 1_555
Zn7E O26E 1_555 1_555

#END
