
#######################################################################
#
#                 Cambridge Crystallographic Data Centre
#                                CCDC 
#
#######################################################################
#
# If this CIF has been generated from an entry in the Cambridge 
# Structural Database, then it will include bibliographic, chemical, 
# crystal, experimental, refinement or atomic coordinate data resulting 
# from the CCDC's data processing and validation procedures.
#
#######################################################################

data_EPECEJ
_chemical_formula_moiety         '(C171 H175 N13 O45 Zn8)n'
_symmetry_cell_setting           triclinic
_symmetry_space_group_name_H-M   'P -1'
_symmetry_Int_Tables_number      2
_space_group_name_Hall           '-P 1'
loop_
_symmetry_equiv_pos_site_id
_symmetry_equiv_pos_as_xyz
1 x,y,z
2 -x,-y,-z
_cell_length_a                   21.898(3)
_cell_length_b                   22.149(3)
_cell_length_c                   24.663(3)
_cell_angle_alpha                109.978(7)
_cell_angle_beta                 109.835(7)
_cell_angle_gamma                104.489(7)
_cell_volume                     9625.74
loop_
_atom_site_label
_atom_site_type_symbol
_atom_site_fract_x
_atom_site_fract_y
_atom_site_fract_z
C1 C 0.2087(3) 0.7168(3) 0.3946(2)
H1 H 0.2100 0.6756 0.3668
C2 C 0.2214(4) 0.7303(4) 0.4579(3)
H2 H 0.2305 0.6975 0.4725
C3 C 0.2210(4) 0.7898(4) 0.4995(2)
H3 H 0.2311 0.7983 0.5427
C4 C 0.2058(3) 0.8379(3) 0.4784(2)
H4 H 0.2046 0.8787 0.5069
C5 C 0.1923(2) 0.8254(2) 0.41470(18)
C6 C 0.1941(2) 0.7645(2) 0.37278(19)
C7 C 0.1796(2) 0.7600(2) 0.30673(18)
H5 H 0.1809 0.7168 0.2771
C8 C 0.1744(2) 0.8705(2) 0.38346(18)
H6 H 0.1729 0.9136 0.4131
C9 C 0.2318(2) 0.8274(2) 0.3175(2)
C10 C 0.2775(3) 0.8338(3) 0.2903(3)
H7 H 0.2784 0.7928 0.2618
C11 C 0.3211(3) 0.8991(3) 0.3045(3)
H8 H 0.3521 0.9037 0.2856
C12 C 0.3200(3) 0.9593(4) 0.3472(4)
H9 H 0.3516 1.0048 0.3584
C13 C 0.2722(3) 0.9528(3) 0.3739(3)
H10 H 0.2702 0.9936 0.4017
C14 C 0.2293(2) 0.8876(2) 0.3590(2)
C15 C 0.10757(18) 0.76277(19) 0.27997(15)
C16 C 0.10403(19) 0.82206(18) 0.32167(16)
C17 C 0.04313(18) 0.83413(17) 0.30478(15)
C18 C -0.01487(18) 0.78606(18) 0.24455(16)
H11 H -0.0570 0.7939 0.2314
C19 C -0.01265(19) 0.72741(18) 0.20355(16)
H12 H -0.0537 0.6947 0.1630
C20 C 0.04894(17) 0.71493(17) 0.22031(15)
C21 C 0.04821(18) 0.65193(17) 0.17102(15)
C22 C 0.03471(18) 0.89405(17) 0.34741(15)
C23 C 0.2777(2) 1.22316(19) 0.65858(18)
C24 C 0.3007(2) 1.1779(2) 0.67720(19)
H13 H 0.2676 1.1321 0.6638
C25 C 0.3722(2) 1.1995(2) 0.7154(2)
H14 H 0.3887 1.1689 0.7293
C26 C 0.4207(2) 1.2659(3) 0.7338(2)
H15 H 0.4702 1.2803 0.7595
C27 C 0.3968(2) 1.3109(2) 0.7149(2)
H16 H 0.4298 1.3565 0.7278
C28 C 0.3253(2) 1.28965(19) 0.67731(19)
C29 C 0.20156(19) 1.20835(18) 0.61584(18)
H17 H 0.1667 1.1602 0.6018
C30 C 0.28999(19) 1.33186(19) 0.65143(18)
H18 H 0.3251 1.3802 0.6662
C31 C 0.18602(19) 1.26693(19) 0.65467(17)
C32 C 0.23339(19) 1.33371(19) 0.67284(18)
C33 C 0.2240(2) 1.3927(2) 0.70592(19)
H19 H 0.2558 1.4385 0.7180
C34 C 0.1681(3) 1.3846(2) 0.7212(2)
H20 H 0.1611 1.4250 0.7427
C35 C 0.1223(2) 1.3188(2) 0.7056(2)
H21 H 0.0854 1.3139 0.7180
C36 C 0.1310(2) 1.2592(2) 0.67137(18)
H22 H 0.0993 1.2135 0.6596
C37 C 0.2025(2) 1.22009(18) 0.55778(18)
C38 C 0.2521(2) 1.28715(18) 0.57765(18)
C39 C 0.2596(2) 1.3085(2) 0.5322(2)
C40 C 0.2165(3) 1.2613(2) 0.4666(2)
H23 H 0.2210 1.2748 0.4350
C41 C 0.1672(3) 1.1954(2) 0.4463(2)
H24 H 0.1376 1.1642 0.4010
C42 C 0.1607(2) 1.17414(18) 0.49196(17)
C43 C 0.10573(19) 1.10204(18) 0.46641(16)
C44 C 0.3129(3) 1.3786(2) 0.5496(2)
C45 C -0.2094(2) 1.15718(19) 0.33178(17)
C46 C -0.1480(3) 1.2123(2) 0.3842(2)
H25 H -0.1172 1.2051 0.4169
C47 C -0.1325(3) 1.2780(2) 0.3878(2)
H26 H -0.0913 1.3171 0.4246
C48 C -0.1751(4) 1.2889(2) 0.3394(3)
H27 H -0.1629 1.3349 0.3430
C49 C -0.2345(3) 1.2338(2) 0.2867(2)
H28 H -0.2633 1.2407 0.2527
C50 C -0.2525(2) 1.16805(19) 0.28310(17)
C51 C -0.2353(2) 1.08139(18) 0.31953(15)
H29 H -0.2034 1.0746 0.3549
C52 C -0.31554(19) 1.10082(18) 0.22872(16)
H30 H -0.3476 1.1081 0.1938
C53 C -0.3103(2) 1.06094(18) 0.31113(16)
C54 C -0.3361(3) 1.0362(2) 0.34727(19)
H31 H -0.3062 1.0290 0.3804
C55 C -0.4070(3) 1.0221(3) 0.3340(2)
H32 H -0.4256 1.0054 0.3582
C56 C -0.4493(3) 1.0327(3) 0.2858(2)
H33 H -0.4972 1.0238 0.2773
C57 C -0.4231(2) 1.0564(2) 0.2484(2)
H34 H -0.4535 1.0619 0.2141
C58 C -0.3532(2) 1.0714(2) 0.26226(17)
C59 C -0.23992(18) 1.03989(17) 0.25303(15)
C60 C -0.28294(18) 1.05080(17) 0.20370(15)
C61 C -0.29082(17) 1.01844(16) 0.14056(15)
C62 C -0.25524(17) 0.97478(18) 0.12769(16)
H35 H -0.2620 0.9508 0.0846
C63 C -0.21109(19) 0.96641(19) 0.17640(16)
H36 H -0.1849 0.9393 0.1676
C64 C -0.20416(18) 0.99795(17) 0.23999(15)
C65 C -0.1573(2) 0.98646(18) 0.29198(16)
C66 C -0.33649(16) 1.02778(16) 0.08650(14)
C67 C -0.42337(18) 0.34431(19) -0.07097(16)
C68 C -0.4743(2) 0.3612(2) -0.05576(17)
H37 H -0.5068 0.3295 -0.0501
C69 C -0.4770(2) 0.4255(2) -0.04891(18)
H38 H -0.5115 0.4378 -0.0383
C70 C -0.4302(2) 0.4711(2) -0.05735(17)
H39 H -0.4327 0.5148 -0.0521
C71 C -0.3790(2) 0.45475(19) -0.07355(16)
H40 H -0.3470 0.4868 -0.0793
C72 C -0.37601(17) 0.39050(17) -0.08100(15)
C73 C -0.41161(16) 0.27756(18) -0.08100(16)
H41 H -0.4449 0.2439 -0.0745
C74 C -0.32592(17) 0.36291(17) -0.10032(15)
H42 H -0.2925 0.3964 -0.1068
C75 C -0.41819(17) 0.24595(17) -0.14959(16)
C76 C -0.37252(17) 0.29201(18) -0.16040(16)
C77 C -0.3714(2) 0.2722(2) -0.22044(18)
H43 H -0.3390 0.3039 -0.2262
C78 C -0.4183(2) 0.2063(2) -0.27031(19)
H44 H -0.4196 0.1919 -0.3118
C79 C -0.4639(2) 0.1602(2) -0.2603(2)
H45 H -0.4961 0.1143 -0.2953
C80 C -0.46357(19) 0.1800(2) -0.19920(18)
H46 H -0.4946 0.1476 -0.1929
C81 C -0.30586(17) 0.28151(17) 0.01271(16)
C82 C -0.33349(16) 0.30149(16) -0.03491(15)
C83 C -0.28781(16) 0.34568(16) -0.04697(15)
C84 C -0.21555(16) 0.37088(17) -0.01180(15)
C85 C -0.18731(18) 0.35324(18) 0.03731(17)
H47 H -0.1371 0.3721 0.0632
C86 C -0.23261(18) 0.30798(19) 0.04845(17)
H48 H -0.2128 0.2951 0.0812
C87 C -0.35045(19) 0.23256(17) 0.02777(16)
C88 C -0.16581(17) 0.41307(16) -0.02784(16)
C89 C 0.40035(18) 1.56325(16) 0.76709(15)
C90 C 0.4259(2) 1.51347(17) 0.77208(16)
H49 H 0.4257 1.4800 0.7356
C91 C 0.4520(2) 1.51348(19) 0.83234(17)
H50 H 0.4679 1.4783 0.8361
C92 C 0.4550(2) 1.5634(2) 0.88641(17)
H51 H 0.4743 1.5631 0.9271
C93 C 0.42992(19) 1.61440(18) 0.88182(17)
H52 H 0.4315 1.6488 0.9188
C94 C 0.40256(18) 1.61365(16) 0.82185(16)
C95 C 0.36736(19) 1.57052(16) 0.70579(15)
H53 H 0.3647 1.5338 0.6666
C96 C 0.37067(18) 1.66390(18) 0.80683(17)
H54 H 0.3721 1.6999 0.8456
C97 C 0.2947(2) 1.56712(19) 0.6983(2)
C98 C 0.2309(2) 1.5189(2) 0.6445(2)
H55 H 0.2292 1.4857 0.6067
C99 C 0.1686(3) 1.5205(4) 0.6473(4)
H56 H 0.1237 1.4875 0.6107
C100 C 0.1703(3) 1.5686(4) 0.7020(4)
H57 H 0.1270 1.5677 0.7029
C101 C 0.2350(2) 1.6178(3) 0.7550(3)
H58 H 0.2371 1.6520 0.7924
C102 C 0.2968(2) 1.6162(2) 0.7524(2)
C103 C 0.41122(17) 1.64508(15) 0.72232(14)
C104 C 0.41319(17) 1.69642(15) 0.77731(15)
C105 C 0.45329(18) 1.76647(15) 0.79989(14)
C106 C 0.49437(18) 1.78541(16) 0.77061(15)
H59 H 0.5235 1.8339 0.7877
C107 C 0.49401(18) 1.73583(16) 0.71755(15)
H60 H 0.5227 1.7499 0.6988
C108 C 0.45052(17) 1.66469(15) 0.69224(14)
C109 C 0.44950(19) 1.61290(16) 0.63259(15)
C110 C 0.45386(18) 1.82445(16) 0.85514(15)
C111 C 0.2839(2) 0.35748(19) 0.14756(17)
C112 C 0.3094(2) 0.3586(2) 0.10291(19)
H61 H 0.2854 0.3676 0.0685
C113 C 0.3698(3) 0.3466(2) 0.1093(2)
H62 H 0.3876 0.3471 0.0792
C114 C 0.4040(2) 0.3340(3) 0.1595(2)
H63 H 0.4457 0.3261 0.1640
C115 C 0.3785(2) 0.3326(2) 0.2048(2)
H64 H 0.4027 0.3235 0.2391
C116 C 0.3182(2) 0.34454(19) 0.19871(17)
C117 C 0.2185(2) 0.36989(19) 0.14888(16)
H65 H 0.1929 0.3791 0.1125
C118 C 0.2819(2) 0.34479(19) 0.24227(18)
H66 H 0.3068 0.3347 0.2782
C119 C 0.1723(2) 0.3065(2) 0.1476(2)
C120 C 0.2058(2) 0.2923(2) 0.1982(2)
C121 C 0.1694(3) 0.2353(2) 0.2030(3)
H67 H 0.1922 0.2258 0.2375
C122 C 0.1005(3) 0.1931(3) 0.1575(3)
H68 H 0.0748 0.1538 0.1604
C123 C 0.0672(3) 0.2063(3) 0.1074(3)
H69 H 0.0191 0.1754 0.0756
C124 C 0.1021(2) 0.2633(2) 0.1023(2)
H70 H 0.0783 0.2728 0.0681
C125 C 0.24575(18) 0.43132(18) 0.21649(16)
C126 C 0.27942(18) 0.41660(18) 0.26762(16)
C127 C 0.30400(18) 0.46491(19) 0.33190(16)
C128 C 0.2943(2) 0.5279(2) 0.34506(16)
H71 H 0.3096 0.5608 0.3888
C129 C 0.2628(2) 0.5419(2) 0.29498(16)
H72 H 0.2576 0.5851 0.3047
C130 C 0.23822(18) 0.49363(18) 0.22962(16)
C131 C 0.20531(19) 0.51359(19) 0.17820(16)
C132 C 0.34175(19) 0.45495(19) 0.38892(16)
C133 C -0.3803(3) 1.0037(3) -0.1126(3)
H73 H -0.3795 0.9584 -0.1255
C134 C -0.3257(7) 1.0211(5) -0.1817(6)
H74 H -0.3114 1.0580 -0.1940
H75 H -0.3620 0.9773 -0.2209
H76 H -0.2840 1.0131 -0.1603
C135 C -0.3557(4) 1.1092(3) -0.1223(3)
H77 H -0.3366 1.1291 -0.1460
H78 H -0.3264 1.1405 -0.0753
H79 H -0.4049 1.1046 -0.1352
C136 C 0.0525(2) 0.6771(2) 0.0239(2)
H80 H 0.0124 0.6616 -0.0165
C137 C 0.1683(3) 0.7641(2) 0.1072(3)
H81 H 0.2028 0.8089 0.1164
H82 H 0.1896 0.7299 0.1042
H83 H 0.1550 0.7719 0.1424
C138 C 0.1058(4) 0.7772(4) 0.0099(4)
H84 H 0.1502 0.8200 0.0340
H85 H 0.0652 0.7902 0.0032
H86 H 0.1011 0.7475 -0.0325
N1 N 0.1069(2) 0.7378(2) 0.0475(2)
N2 N -0.3547(3) 1.0435(3) -0.1369(2)
O1 O 0.10730(13) 0.64941(13) 0.17931(11)
O2 O -0.01033(13) 0.60654(13) 0.12606(11)
O3 O -0.00953(14) 0.91411(13) 0.31841(11)
O4 O 0.06893(13) 0.91955(13) 0.40766(11)
O5 O 0.03610(11) 0.50049(11) 0.05804(10)
O6 O -0.11272(12) 0.46513(12) 0.01863(11)
O7 O -0.10587(13) 0.59178(13) 0.00140(12)
H87 H -0.1314 0.5939 0.0235
H88 H -0.1371 0.5652 -0.0415
O8 O -0.04111(11) 0.97030(11) 0.43418(10)
H89 H -0.0779 0.9207 0.4116
O9 O 0.05454(14) 1.07919(13) 0.41073(12)
O10 O 0.11380(12) 1.07003(12) 0.49911(11)
O11 O 0.15079(12) 0.97483(12) 0.54739(11)
H90 H 0.1845 0.9917 0.5379
H91 H 0.1461 0.9321 0.5420
O12 O -0.09485(14) 0.99919(15) 0.29777(13)
O13 O -0.17998(15) 0.96626(15) 0.32565(12)
O14 O -0.37036(12) 0.97632(12) 0.03124(10)
O15 O -0.33718(13) 1.08728(12) 0.10040(11)
O16 O 0.36583(19) 1.41397(15) 0.60251(16)
O17 O 0.29991(19) 1.39622(16) 0.50415(16)
O18 O -0.52100(11) 0.94277(11) 0.00656(10)
O19 O 0.50800(13) 1.88090(12) 0.88751(12)
O20 O -0.32186(13) 0.19538(12) 0.04768(13)
O21 O -0.40999(14) 0.22911(15) 0.02120(14)
O22 O 0.39940(12) 1.81248(12) 0.86344(11)
O23 O 0.38994(13) 1.56400(12) 0.59040(10)
O24 O 0.50656(14) 1.62312(13) 0.62913(11)
O25 O 0.46500(15) 1.47701(14) 0.53017(11)
O26 O 0.33394(16) 0.48348(16) 0.43916(12)
O27 O 0.38021(14) 0.42159(14) 0.38458(12)
O28 O 0.3896(4) 0.3120(4) 0.4148(4)
H92 H 0.3798 0.2956 0.4443
H93 H 0.3595 0.2732 0.3702
O29 O 0.20612(16) 0.48846(15) 0.12497(12)
O30 O 0.17764(13) 0.55666(14) 0.19404(12)
O31 O -0.18235(12) 0.39136(12) -0.08769(11)
O32 O -0.40385(15) 1.02138(14) -0.07592(13)
O33 O 0.05059(14) 0.64042(12) 0.05029(12)
Zn1 Zn 0.12539(2) 0.57507(2) 0.12556(2)
Zn2 Zn -0.03257(2) 0.54953(2) 0.03084(2)
Zn3 Zn 0.05649(2) 0.97118(2) 0.48800(2)
Zn4 Zn -0.02874(2) 0.99189(2) 0.36675(2)
Zn5 Zn -0.45572(2) 0.97198(2) -0.03512(2)
Zn6 Zn -0.38938(2) 1.13403(2) 0.05992(2)
Zn7 Zn 0.37324(2) 1.47659(2) 0.51976(2)
Zn8 Zn 0.46891(3) 0.42234(3) 0.44470(2)
C139 C 0.0260(2) 0.82560(19) 0.46299(19)
H94 H 0.0565 0.8330 0.4440
C140 C -0.0417(3) 0.7495(3) 0.4916(4)
H95 H -0.0502 0.7028 0.4893
H96 H -0.0870 0.7498 0.4664
H97 H -0.0203 0.7852 0.5373
C141 C 0.0262(3) 0.7100(2) 0.4328(3)
H98 H 0.0078 0.6688 0.4385
H99 H 0.0783 0.7282 0.4520
H100 H 0.0059 0.6963 0.3861
N3 N 0.0062(2) 0.76507(17) 0.46524(19)
O34 O 0.00708(13) 0.87272(12) 0.48409(13)
O35 O 0.5441(4) 0.3954(3) 0.5072(3)
H101 H 0.5623 0.3728 0.4854
H102 H 0.5214 0.3686 0.5192
H103 H -0.494(4) 0.941(4) 0.038(4)
H104 H 0.475(4) 1.460(4) 0.557(4)
H105 H 0.008(4) 0.455(4) 0.061(3)
O5A O -0.03610(11) 0.49951(11) -0.05804(10)
O8A O 0.04111(11) 1.02970(11) 0.56582(10)
O18A O -0.47900(11) 1.05723(11) -0.00656(10)
O19_2 O -0.49200(13) 0.88090(12) -0.11249(12)
O20_2 O -0.32186(13) 1.19538(12) 0.04768(13)
O22A O -0.39940(12) 1.18752(12) 0.13656(11)
O24A O 0.49344(14) 0.37688(13) 0.37087(11)
O25_2 O 0.46500(15) 0.47701(14) 0.53017(11)
O25A O 0.53500(15) 0.52299(14) 0.46983(11)
O26_2 O 0.33394(16) 1.48348(16) 0.43916(12)
O31A O 0.18235(12) 0.60864(12) 0.08769(11)
Zn1A Zn -0.12539(2) 0.42493(2) -0.12556(2)
Zn2A Zn 0.03257(2) 0.45047(2) -0.03084(2)
Zn3A Zn -0.05649(2) 1.02882(2) 0.51200(2)
Zn5_2 Zn 0.54428(2) 1.97198(2) 0.96488(2)
Zn5A Zn -0.54428(2) 1.02802(2) 0.03512(2)
Zn6_2 Zn -0.38938(2) 0.13403(2) 0.05992(2)
Zn6A Zn -0.61062(2) 0.86597(2) -0.05992(2)
Zn6A_2 Zn 0.38938(2) 1.86597(2) 0.94008(2)
Zn7_2 Zn 0.37324(2) 0.47659(2) 0.51976(2)
Zn8_2 Zn 0.46891(3) 1.42234(3) 0.44470(2)
Zn8A Zn 0.53109(3) 1.57766(3) 0.55530(2)
O36 O -0.3215(5) 0.8688(4) -0.1829(5)
C142 C -0.2752(6) 0.8595(5) -0.1451(6)
H106 H -0.2376 0.8554 -0.1550
N4 N -0.2726(3) 0.8547(3) -0.0918(4)
C143 C -0.3273(4) 0.8612(4) -0.0731(4)
H107 H -0.3168 0.8576 -0.0327
H108 H -0.3737 0.8234 -0.1078
H109 H -0.3286 0.9071 -0.0660
C144 C -0.2166(5) 0.8429(5) -0.0522(5)
H110 H -0.2233 0.8421 -0.0151
H111 H -0.1705 0.8809 -0.0361
H112 H -0.2176 0.7975 -0.0782
O37 O 0.26756(15) 1.02665(17) 0.53541(15)
C145 C 0.2826(3) 1.0810(2) 0.5308(2)
H113 H 0.2461 1.0975 0.5212
N5 N 0.3438(2) 1.1189(2) 0.5379(2)
C146 C 0.4025(3) 1.0995(4) 0.5564(4)
H114 H 0.4442 1.1334 0.5600
H115 H 0.3897 1.0521 0.5232
H116 H 0.4136 1.0999 0.5985
C147 C 0.3576(5) 1.1837(4) 0.5349(5)
H117 H 0.4066 1.2037 0.5418
H118 H 0.3518 1.2170 0.5689
H119 H 0.3241 1.1751 0.4920
O38 O 0.47885(19) 0.5784(2) 0.39267(17)
C148 C 0.4588(3) 0.5481(3) 0.3313(3)
H120 H 0.4579 0.5025 0.3117
N6 N 0.4396(2) 0.5774(2) 0.29534(17)
C149 C 0.4396(3) 0.6474(3) 0.3232(3)
H121 H 0.4238 0.6611 0.2888
H122 H 0.4879 0.6819 0.3571
H123 H 0.4071 0.6461 0.3425
C150 C 0.4127(3) 0.5465(4) 0.2263(2)
H124 H 0.4023 0.5801 0.2113
H125 H 0.3689 0.5036 0.2052
H126 H 0.4484 0.5344 0.2150
O39 O 0.3923(6) 0.6887(7) 0.5259(6)
C151 C 0.3469(8) 0.6594(9) 0.5349(7)
H127 H 0.3234 0.6095 0.5101
N7 N 0.3262(9) 0.6909(9) 0.5771(6)
C152 C 0.3567(10) 0.7641(10) 0.6189(7)
H128 H 0.3883 0.7743 0.6631
H129 H 0.3189 0.7799 0.6195
H130 H 0.3843 0.7891 0.6031
C153 C 0.2730(12) 0.6510(15) 0.5868(13)
H131 H 0.2355 0.6684 0.5817
H132 H 0.2945 0.6558 0.6308
H133 H 0.2523 0.6012 0.5546
O40 O 0.1617(7) 0.9258(6) 0.1700(5)
C154 C 0.1525(7) 0.9383(7) 0.2171(6)
H134 H 0.1439 0.9032 0.2308
N8 N 0.1540(6) 1.0010(5) 0.2506(5)
C155 C 0.1741(15) 1.0613(11) 0.2393(13)
H135 H 0.2240 1.0766 0.2480
H136 H 0.1684 1.1001 0.2684
H137 H 0.1436 1.0482 0.1938
C156 C 0.1409(7) 1.0151(6) 0.3051(6)
H138 H 0.1206 0.9708 0.3059
H139 H 0.1072 1.0373 0.3019
H140 H 0.1858 1.0470 0.3453
O41 O -0.1965(9) 1.0634(8) -0.0017(8)
C157 C -0.2113(6) 1.1006(10) 0.0365(8)
H141 H -0.2518 1.1104 0.0210
N9 N -0.1694(16) 1.1278(18) 0.1011(9)
C158 C -0.1104(11) 1.1069(14) 0.1200(12)
H142 H -0.1254 1.0578 0.0889
H143 H -0.0969 1.1114 0.1639
H144 H -0.0695 1.1375 0.1200
C159 C -0.1709(9) 1.1827(10) 0.1515(10)
H145 H -0.1520 1.2274 0.1510
H146 H -0.1415 1.1870 0.1939
H147 H -0.2201 1.1713 0.1443
O42 O 0.0496(15) 1.0974(12) 0.2386(12)
C160 C 0.0052(11) 1.1004(10) 0.2582(10)
H148 H -0.0306 1.0583 0.2490
N10 N 0.0075(8) 1.1623(9) 0.2921(7)
C161 C 0.0531(13) 1.2311(11) 0.3065(13)
H149 H 0.0291 1.2434 0.2731
H150 H 0.0978 1.2306 0.3068
H151 H 0.0633 1.2660 0.3494
C162 C -0.0521(9) 1.1644(12) 0.3007(11)
H152 H -0.0948 1.1385 0.2581
H153 H -0.0455 1.2135 0.3217
H154 H -0.0577 1.1425 0.3282
O43 O -0.4585(4) 0.9037(4) 0.0954(4)
C163 C -0.4417(3) 0.8621(4) 0.0613(4)
H155 H -0.4572 0.8531 0.0172
N11 N -0.4022(5) 0.8284(5) 0.0830(5)
C164 C -0.3685(4) 0.8388(3) 0.1512(3)
H156 H -0.3435 0.8079 0.1532
H157 H -0.4054 0.8272 0.1645
H158 H -0.3343 0.8881 0.1807
C165 C -0.3834(6) 0.7846(4) 0.0400(6)
H159 H -0.3553 0.7642 0.0623
H160 H -0.3550 0.8129 0.0269
H161 H -0.4268 0.7466 0.0012
O44 O -0.3743(4) 0.6439(4) 0.0364(3)
C166 C -0.3147(6) 0.6893(5) 0.0769(4)
H162 H -0.2867 0.7139 0.0627
N12 N -0.2861(4) 0.7068(4) 0.1412(4)
C167 C -0.3221(7) 0.6659(7) 0.1659(5)
H163 H -0.2926 0.6856 0.2130
H164 H -0.3294 0.6166 0.1439
H165 H -0.3684 0.6682 0.1573
C168 C -0.2224(5) 0.7648(6) 0.1895(5)
H166 H -0.2118 0.7657 0.2317
H167 H -0.2269 0.8083 0.1914
H168 H -0.1836 0.7611 0.1791
O45 O -0.1878(8) 0.6151(9) 0.0662(9)
C169 C -0.2342(7) 0.5767(6) 0.0692(6)
H169 H -0.2806 0.5742 0.0481
N13 N -0.2271(7) 0.5349(8) 0.1005(7)
C170 C -0.1607(6) 0.5361(6) 0.1303(5)
H170 H -0.1284 0.5611 0.1180
H171 H -0.1646 0.4876 0.1162
H172 H -0.1418 0.5604 0.1777
C171 C -0.2883(7) 0.4885(9) 0.0963(7)
H173 H -0.2994 0.4397 0.0674
H174 H -0.3288 0.4998 0.0789
H175 H -0.2789 0.4939 0.1399
loop_
_geom_bond_atom_site_label_1
_geom_bond_atom_site_label_2
_geom_bond_site_symmetry_1
_geom_bond_site_symmetry_2
C1 H1 1_555 1_555
C2 C1 1_555 1_555
H2 C2 1_555 1_555
C3 C2 1_555 1_555
H3 C3 1_555 1_555
C4 C3 1_555 1_555
H4 C4 1_555 1_555
C5 C4 1_555 1_555
C6 C1 1_555 1_555
C7 C6 1_555 1_555
H5 C7 1_555 1_555
C8 C5 1_555 1_555
H6 C8 1_555 1_555
C9 C7 1_555 1_555
C10 C9 1_555 1_555
H7 C10 1_555 1_555
C11 C10 1_555 1_555
H8 C11 1_555 1_555
C12 C11 1_555 1_555
H9 C12 1_555 1_555
C13 C12 1_555 1_555
H10 C13 1_555 1_555
C14 C8 1_555 1_555
C15 C7 1_555 1_555
C16 C8 1_555 1_555
C17 C16 1_555 1_555
C18 C17 1_555 1_555
H11 C18 1_555 1_555
C19 C18 1_555 1_555
H12 C19 1_555 1_555
C20 C15 1_555 1_555
C21 C20 1_555 1_555
C22 C17 1_555 1_555
C23 C24 1_555 1_555
C24 H13 1_555 1_555
C25 C24 1_555 1_555
H14 C25 1_555 1_555
C26 C25 1_555 1_555
H15 C26 1_555 1_555
C27 C26 1_555 1_555
H16 C27 1_555 1_555
C28 C23 1_555 1_555
C29 C23 1_555 1_555
H17 C29 1_555 1_555
C30 C28 1_555 1_555
H18 C30 1_555 1_555
C31 C29 1_555 1_555
C32 C30 1_555 1_555
C33 C32 1_555 1_555
H19 C33 1_555 1_555
C34 C33 1_555 1_555
H20 C34 1_555 1_555
C35 C34 1_555 1_555
H21 C35 1_555 1_555
C36 C31 1_555 1_555
H22 C36 1_555 1_555
C37 C29 1_555 1_555
C38 C30 1_555 1_555
C39 C38 1_555 1_555
C40 C39 1_555 1_555
H23 C40 1_555 1_555
C41 C40 1_555 1_555
H24 C41 1_555 1_555
C42 C37 1_555 1_555
C43 C42 1_555 1_555
C44 C39 1_555 1_555
C45 C46 1_555 1_555
C46 H25 1_555 1_555
C47 C46 1_555 1_555
H26 C47 1_555 1_555
C48 C47 1_555 1_555
H27 C48 1_555 1_555
C49 C48 1_555 1_555
H28 C49 1_555 1_555
C50 C45 1_555 1_555
C51 C45 1_555 1_555
H29 C51 1_555 1_555
C52 C50 1_555 1_555
H30 C52 1_555 1_555
C53 C51 1_555 1_555
C54 C53 1_555 1_555
H31 C54 1_555 1_555
C55 C54 1_555 1_555
H32 C55 1_555 1_555
C56 C55 1_555 1_555
H33 C56 1_555 1_555
C57 C56 1_555 1_555
H34 C57 1_555 1_555
C58 C52 1_555 1_555
C59 C51 1_555 1_555
C60 C52 1_555 1_555
C61 C60 1_555 1_555
C62 C61 1_555 1_555
H35 C62 1_555 1_555
C63 C62 1_555 1_555
H36 C63 1_555 1_555
C64 C59 1_555 1_555
C65 C64 1_555 1_555
C66 C61 1_555 1_555
C67 C68 1_555 1_555
C68 H37 1_555 1_555
C69 C68 1_555 1_555
H38 C69 1_555 1_555
C70 C69 1_555 1_555
H39 C70 1_555 1_555
C71 C70 1_555 1_555
H40 C71 1_555 1_555
C72 C67 1_555 1_555
C73 C67 1_555 1_555
H41 C73 1_555 1_555
C74 C72 1_555 1_555
H42 C74 1_555 1_555
C75 C73 1_555 1_555
C76 C74 1_555 1_555
C77 C76 1_555 1_555
H43 C77 1_555 1_555
C78 C77 1_555 1_555
H44 C78 1_555 1_555
C79 C78 1_555 1_555
H45 C79 1_555 1_555
C80 C75 1_555 1_555
H46 C80 1_555 1_555
C81 C82 1_555 1_555
C82 C73 1_555 1_555
C83 C74 1_555 1_555
C84 C83 1_555 1_555
C85 C84 1_555 1_555
H47 C85 1_555 1_555
C86 C81 1_555 1_555
H48 C86 1_555 1_555
C87 C81 1_555 1_555
C88 C84 1_555 1_555
C89 C90 1_555 1_555
C90 H49 1_555 1_555
C91 C90 1_555 1_555
H50 C91 1_555 1_555
C92 C91 1_555 1_555
H51 C92 1_555 1_555
C93 C92 1_555 1_555
H52 C93 1_555 1_555
C94 C89 1_555 1_555
C95 C89 1_555 1_555
H53 C95 1_555 1_555
C96 C94 1_555 1_555
H54 C96 1_555 1_555
C97 C95 1_555 1_555
C98 C97 1_555 1_555
H55 C98 1_555 1_555
C99 C98 1_555 1_555
H56 C99 1_555 1_555
C100 C99 1_555 1_555
H57 C100 1_555 1_555
C101 C100 1_555 1_555
H58 C101 1_555 1_555
C102 C96 1_555 1_555
C103 C95 1_555 1_555
C104 C96 1_555 1_555
C105 C104 1_555 1_555
C106 C105 1_555 1_555
H59 C106 1_555 1_555
C107 C106 1_555 1_555
H60 C107 1_555 1_555
C108 C103 1_555 1_555
C109 C108 1_555 1_555
C110 C105 1_555 1_555
C111 C112 1_555 1_555
C112 H61 1_555 1_555
C113 C112 1_555 1_555
H62 C113 1_555 1_555
C114 C113 1_555 1_555
H63 C114 1_555 1_555
C115 C114 1_555 1_555
H64 C115 1_555 1_555
C116 C111 1_555 1_555
C117 C111 1_555 1_555
H65 C117 1_555 1_555
C118 C116 1_555 1_555
H66 C118 1_555 1_555
C119 C117 1_555 1_555
C120 C118 1_555 1_555
C121 C120 1_555 1_555
H67 C121 1_555 1_555
C122 C121 1_555 1_555
H68 C122 1_555 1_555
C123 C122 1_555 1_555
H69 C123 1_555 1_555
C124 C119 1_555 1_555
H70 C124 1_555 1_555
C125 C117 1_555 1_555
C126 C118 1_555 1_555
C127 C126 1_555 1_555
C128 C127 1_555 1_555
H71 C128 1_555 1_555
C129 C128 1_555 1_555
H72 C129 1_555 1_555
C130 C125 1_555 1_555
C131 C130 1_555 1_555
C132 C127 1_555 1_555
C133 H73 1_555 1_555
C134 H74 1_555 1_555
H75 C134 1_555 1_555
H76 C134 1_555 1_555
C135 H77 1_555 1_555
H78 C135 1_555 1_555
H79 C135 1_555 1_555
C136 H80 1_555 1_555
C137 H81 1_555 1_555
H82 C137 1_555 1_555
H83 C137 1_555 1_555
C138 H84 1_555 1_555
H85 C138 1_555 1_555
H86 C138 1_555 1_555
N1 C136 1_555 1_555
N2 C133 1_555 1_555
O1 C21 1_555 1_555
O2 C21 1_555 1_555
O3 C22 1_555 1_555
O4 C22 1_555 1_555
O5 Zn1 1_555 1_555
O6 C88 1_555 1_555
O7 H87 1_555 1_555
H88 O7 1_555 1_555
O8 H89 1_555 1_555
O9 C43 1_555 1_555
O10 C43 1_555 1_555
O11 H90 1_555 1_555
H91 O11 1_555 1_555
O12 C65 1_555 1_555
O13 C65 1_555 1_555
O14 C66 1_555 1_555
O15 C66 1_555 1_555
O16 C44 1_555 1_555
O17 C44 1_555 1_555
O18 Zn5 1_555 1_555
O19 C110 1_555 1_555
O20 C87 1_555 1_555
O21 C87 1_555 1_555
O22 C110 1_555 1_555
O23 C109 1_555 1_555
O24 C109 1_555 1_555
O25 Zn7 1_555 1_555
O26 C132 1_555 1_555
O27 C132 1_555 1_555
O28 H92 1_555 1_555
H93 O28 1_555 1_555
O29 C131 1_555 1_555
O30 C131 1_555 1_555
O31 C88 1_555 1_555
O32 C133 1_555 1_555
O33 C136 1_555 1_555
Zn1 O1 1_555 1_555
Zn2 O2 1_555 1_555
Zn3 O4 1_555 1_555
Zn4 O3 1_555 1_555
Zn5 O14 1_555 1_555
Zn6 O15 1_555 1_555
Zn7 O17 1_555 1_555
Zn8 O27 1_555 1_555
C139 H94 1_555 1_555
C140 H95 1_555 1_555
H96 C140 1_555 1_555
H97 C140 1_555 1_555
C141 H98 1_555 1_555
H99 C141 1_555 1_555
H100 C141 1_555 1_555
N3 C139 1_555 1_555
O34 Zn3 1_555 1_555
O35 Zn8 1_555 1_555
H101 O35 1_555 1_555
H102 O35 1_555 1_555
H103 O18 1_555 1_555
H104 O25 1_555 1_555
H105 O5 1_555 1_555
O36 C142 1_555 1_555
C142 H106 1_555 1_555
N4 C142 1_555 1_555
C143 N4 1_555 1_555
H107 C143 1_555 1_555
H108 C143 1_555 1_555
H109 C143 1_555 1_555
C144 N4 1_555 1_555
H110 C144 1_555 1_555
H111 C144 1_555 1_555
H112 C144 1_555 1_555
O37 C145 1_555 1_555
C145 H113 1_555 1_555
N5 C145 1_555 1_555
C146 N5 1_555 1_555
H114 C146 1_555 1_555
H115 C146 1_555 1_555
H116 C146 1_555 1_555
C147 N5 1_555 1_555
H117 C147 1_555 1_555
H118 C147 1_555 1_555
H119 C147 1_555 1_555
O38 C148 1_555 1_555
C148 H120 1_555 1_555
N6 C148 1_555 1_555
C149 N6 1_555 1_555
H121 C149 1_555 1_555
H122 C149 1_555 1_555
H123 C149 1_555 1_555
C150 N6 1_555 1_555
H124 C150 1_555 1_555
H125 C150 1_555 1_555
H126 C150 1_555 1_555
O39 C151 1_555 1_555
C151 H127 1_555 1_555
N7 C151 1_555 1_555
C152 N7 1_555 1_555
H128 C152 1_555 1_555
H129 C152 1_555 1_555
H130 C152 1_555 1_555
C153 N7 1_555 1_555
H131 C153 1_555 1_555
H132 C153 1_555 1_555
H133 C153 1_555 1_555
O40 C154 1_555 1_555
C154 H134 1_555 1_555
N8 C154 1_555 1_555
C155 N8 1_555 1_555
H135 C155 1_555 1_555
H136 C155 1_555 1_555
H137 C155 1_555 1_555
C156 N8 1_555 1_555
H138 C156 1_555 1_555
H139 C156 1_555 1_555
H140 C156 1_555 1_555
O41 C157 1_555 1_555
C157 H141 1_555 1_555
N9 C157 1_555 1_555
C158 N9 1_555 1_555
H142 C158 1_555 1_555
H143 C158 1_555 1_555
H144 C158 1_555 1_555
C159 N9 1_555 1_555
H145 C159 1_555 1_555
H146 C159 1_555 1_555
H147 C159 1_555 1_555
O42 C160 1_555 1_555
C160 H148 1_555 1_555
N10 C160 1_555 1_555
C161 N10 1_555 1_555
H149 C161 1_555 1_555
H150 C161 1_555 1_555
H151 C161 1_555 1_555
C162 N10 1_555 1_555
H152 C162 1_555 1_555
H153 C162 1_555 1_555
H154 C162 1_555 1_555
O43 C163 1_555 1_555
C163 H155 1_555 1_555
N11 C163 1_555 1_555
C164 N11 1_555 1_555
H156 C164 1_555 1_555
H157 C164 1_555 1_555
H158 C164 1_555 1_555
C165 N11 1_555 1_555
H159 C165 1_555 1_555
H160 C165 1_555 1_555
H161 C165 1_555 1_555
O44 C166 1_555 1_555
C166 H162 1_555 1_555
N12 C166 1_555 1_555
C167 N12 1_555 1_555
H163 C167 1_555 1_555
H164 C167 1_555 1_555
H165 C167 1_555 1_555
C168 N12 1_555 1_555
H166 C168 1_555 1_555
H167 C168 1_555 1_555
H168 C168 1_555 1_555
O45 C169 1_555 1_555
C169 H169 1_555 1_555
N13 C169 1_555 1_555
C170 N13 1_555 1_555
H170 C170 1_555 1_555
H171 C170 1_555 1_555
H172 C170 1_555 1_555
C171 N13 1_555 1_555
H173 C171 1_555 1_555
H174 C171 1_555 1_555
H175 C171 1_555 1_555
O5A Zn2 1_555 1_555
O8A Zn3 1_555 1_555
O18A Zn5 1_555 1_555
O19_2 Zn5 1_555 1_555
O20_2 Zn6 1_555 1_555
O22A Zn6 1_555 1_555
O24A Zn8 1_555 1_555
O25_2 Zn8 1_555 1_555
O25A Zn8 1_555 1_555
O26_2 Zn7 1_555 1_555
O31A Zn1 1_555 1_555
Zn1A O31 1_555 1_555
Zn2A O5 1_555 1_555
Zn3A O8 1_555 1_555
Zn5_2 O19 1_555 1_555
Zn5A O18 1_555 1_555
Zn6_2 O20 1_555 1_555
Zn6A O18 1_555 1_555
Zn6A_2 O22 1_555 1_555
Zn7_2 O26 1_555 1_555
Zn8_2 O25 1_555 1_555
Zn8A O24 1_555 1_555
C5 C6 1_555 1_555
C9 C14 1_555 1_555
C13 C14 1_555 1_555
C15 C16 1_555 1_555
C19 C20 1_555 1_555
C27 C28 1_555 1_555
C31 C32 1_555 1_555
C35 C36 1_555 1_555
C37 C38 1_555 1_555
C41 C42 1_555 1_555
C49 C50 1_555 1_555
C53 C58 1_555 1_555
C57 C58 1_555 1_555
C59 C60 1_555 1_555
C63 C64 1_555 1_555
C71 C72 1_555 1_555
C75 C76 1_555 1_555
C79 C80 1_555 1_555
C82 C83 1_555 1_555
C85 C86 1_555 1_555
C93 C94 1_555 1_555
C97 C102 1_555 1_555
C101 C102 1_555 1_555
C103 C104 1_555 1_555
C107 C108 1_555 1_555
C115 C116 1_555 1_555
C119 C120 1_555 1_555
C123 C124 1_555 1_555
C125 C126 1_555 1_555
C129 C130 1_555 1_555
C134 N2 1_555 1_555
C135 N2 1_555 1_555
C137 N1 1_555 1_555
C138 N1 1_555 1_555
O5 Zn2 1_555 1_555
O6 Zn2 1_555 1_555
O7 Zn2 1_555 1_555
O8 Zn3 1_555 1_555
O8 Zn4 1_555 1_555
O9 Zn4 1_555 1_555
O10 Zn3 1_555 1_555
O11 Zn3 1_555 1_555
O12 Zn4 1_555 1_555
O23 Zn7 1_555 1_555
O25 Zn8A 1_555 1_555
O28 Zn8 1_555 1_555
O30 Zn1 1_555 1_555
O32 Zn5 1_555 1_555
O33 Zn2 1_555 1_555
Zn6 O18A 1_555 1_555
C139 O34 1_555 1_555
C140 N3 1_555 1_555
C141 N3 1_555 1_555
O5A Zn1A 1_555 1_555
O5A Zn2A 1_555 1_555
O8A Zn3A 1_555 1_555
O18A Zn5A 1_555 1_555
O25_2 Zn7_2 1_555 1_555

#END
