
#######################################################################
#
#                 Cambridge Crystallographic Data Centre
#                                CCDC 
#
#######################################################################
#
# If this CIF has been generated from an entry in the Cambridge 
# Structural Database, then it will include bibliographic, chemical, 
# crystal, experimental, refinement or atomic coordinate data resulting 
# from the CCDC's data processing and validation procedures.
#
#######################################################################

data_NABCIE
_chemical_formula_moiety         '(C24 H24 Co1 F2 N4 O2)n'
_symmetry_cell_setting           tetragonal
_symmetry_space_group_name_H-M   'P -4 c 2'
_symmetry_Int_Tables_number      116
_space_group_name_Hall           'P -4 -2c'
loop_
_symmetry_equiv_pos_site_id
_symmetry_equiv_pos_as_xyz
1 x,y,z
2 -x,-y,z
3 y,-x,-z
4 -y,x,-z
5 x,-y,1/2+z
6 -x,y,1/2+z
7 y,x,1/2-z
8 -y,-x,1/2-z
_cell_length_a                   8.3837(3)
_cell_length_b                   8.3837(3)
_cell_length_c                   16.8473(9)
_cell_angle_alpha                90
_cell_angle_beta                 90
_cell_angle_gamma                90
_cell_volume                     1184.14
loop_
_atom_site_label
_atom_site_type_symbol
_atom_site_fract_x
_atom_site_fract_y
_atom_site_fract_z
Co1 Co -1.5000 -0.5000 1.2500
N1 N -1.36241(17) -0.37952(17) 1.15823(7)
C1 C -1.4273(2) -0.3055(2) 1.09570(9)
H1 H -1.5385 -0.3114 1.0890
C2 C -1.33981(19) -0.2210(2) 1.04041(9)
H2 H -1.3912 -0.1722 0.9972
C3 C -1.17400(19) -0.20823(17) 1.04904(8)
C4 C -1.10698(19) -0.2890(2) 1.11294(10)
H3 H -0.9959 -0.2872 1.1206
C5 C -1.2033(2) -0.3722(2) 1.16527(10)
H4 H -1.1548 -0.4263 1.2078
C6 C -1.08071(17) -0.10296(16) 0.99410(8)
H5 H -1.1035 -0.1321 0.9383
F1 F -1.33254(11) -0.66746(11) 1.2500
Co1B Co -0.5000 -0.5000 0.7500
Co1_2 Co -0.5000 0.5000 1.2500
Co1B_2 Co -1.5000 0.5000 0.7500
N1C N -0.62048(17) -0.36241(17) 0.84177(7)
N1A N -0.63759(17) 0.37952(17) 1.15823(7)
N1B N -1.37952(17) 0.36241(17) 0.84177(7)
N1A_2 N -1.63759(17) -0.62048(17) 1.15823(7)
N1F N -1.37952(17) -0.36241(17) 1.34177(7)
N1G N -1.62048(17) -0.63759(17) 1.34177(7)
C1C C -0.6945(2) -0.4273(2) 0.90430(9)
C1A C -0.5727(2) 0.3055(2) 1.09570(9)
C1B C -1.3055(2) 0.4273(2) 0.90430(9)
H1C H -0.6886 -0.5385 0.9110
H1A H -0.4615 0.3114 1.0890
H1B H -1.3114 0.5385 0.9110
C2C C -0.7790(2) -0.33981(19) 0.95959(9)
C2A C -0.66019(19) 0.2210(2) 1.04041(9)
C2B C -1.2210(2) 0.33981(19) 0.95959(9)
H2C H -0.8278 -0.3912 1.0028
H2A H -0.6088 0.1722 0.9972
H2B H -1.1722 0.3912 1.0028
C3C C -0.79177(17) -0.17400(19) 0.95096(8)
C3A C -0.82600(19) 0.20823(17) 1.04904(8)
C3B C -1.20823(17) 0.17400(19) 0.95096(8)
C4C C -0.7110(2) -0.10698(19) 0.88706(10)
C4A C -0.89302(19) 0.2890(2) 1.11294(10)
C4B C -1.2890(2) 0.10698(19) 0.88706(10)
H3C H -0.7128 0.0041 0.8794
H3A H -1.0041 0.2872 1.1206
H3B H -1.2872 -0.0041 0.8794
C5C C -0.6278(2) -0.2033(2) 0.83473(10)
C5A C -0.7967(2) 0.3722(2) 1.16527(10)
C5B C -1.3722(2) 0.2033(2) 0.83473(10)
H4C H -0.5737 -0.1548 0.7922
H4A H -0.8452 0.4263 1.2078
H4B H -1.4263 0.1548 0.7922
C6C C -0.89704(16) -0.08071(17) 1.00590(8)
C6A C -0.91929(17) 0.10296(16) 0.99410(8)
C6B C -1.10296(16) 0.08071(17) 1.00590(8)
H5B H -1.1321 0.1035 1.0617
H5A H -0.8965 0.1321 0.9383
H5C H -0.8679 -0.1035 1.0617
F1A F -1.66746(11) -0.33254(11) 1.2500
O1 O 0.9450(2) 0.6776(3) 0.81856(11)
H6 H 0.858(4) 0.669(5) 0.805(2)
H7 H 0.974(6) 0.741(5) 0.791(2)
O2 O 1.0000 1.0000 0.7500
loop_
_geom_bond_atom_site_label_1
_geom_bond_atom_site_label_2
_geom_bond_site_symmetry_1
_geom_bond_site_symmetry_2
Co1 N1 1_555 1_555
N1 C1 1_555 1_555
C1 H1 1_555 1_555
C2 C1 1_555 1_555
H2 C2 1_555 1_555
C3 C2 1_555 1_555
C4 C3 1_555 1_555
H3 C4 1_555 1_555
C5 N1 1_555 1_555
H4 C5 1_555 1_555
C6 C3 1_555 1_555
H5 C6 1_555 1_555
F1 Co1 1_555 1_555
O1 H6 1_555 1_555
H7 O1 1_555 1_555
Co1B N1C 1_555 1_555
Co1_2 N1A 1_555 1_555
Co1B_2 N1B 1_555 1_555
N1C C1C 1_555 1_555
N1A C1A 1_555 1_555
N1B C1B 1_555 1_555
N1A_2 Co1 1_555 1_555
N1F Co1 1_555 1_555
N1G Co1 1_555 1_555
C1C H1C 1_555 1_555
C1A H1A 1_555 1_555
C1B H1B 1_555 1_555
C2C C1C 1_555 1_555
C2A C1A 1_555 1_555
C2B C1B 1_555 1_555
H2C C2C 1_555 1_555
H2A C2A 1_555 1_555
H2B C2B 1_555 1_555
C3C C2C 1_555 1_555
C3A C2A 1_555 1_555
C3B C2B 1_555 1_555
C4C C3C 1_555 1_555
C4A C3A 1_555 1_555
C4B C3B 1_555 1_555
H3C C4C 1_555 1_555
H3A C4A 1_555 1_555
H3B C4B 1_555 1_555
C5C N1C 1_555 1_555
C5A N1A 1_555 1_555
C5B N1B 1_555 1_555
H4C C5C 1_555 1_555
H4A C5A 1_555 1_555
H4B C5B 1_555 1_555
C6C C6 1_555 1_555
C6A C3A 1_555 1_555
C6B C6 1_555 1_555
H5B C6B 1_555 1_555
H5A C6A 1_555 1_555
H5C C6C 1_555 1_555
F1A Co1 1_555 1_555
C4 C5 1_555 1_555
C3C C6C 1_555 1_555
C3B C6B 1_555 1_555
C4C C5C 1_555 1_555
C4A C5A 1_555 1_555
C4B C5B 1_555 1_555
C6C C6A 1_555 1_555
C6A C6B 1_555 1_555

#END
