
#######################################################################
#
#                 Cambridge Crystallographic Data Centre
#                                CCDC 
#
#######################################################################
#
# If this CIF has been generated from an entry in the Cambridge 
# Structural Database, then it will include bibliographic, chemical, 
# crystal, experimental, refinement or atomic coordinate data resulting 
# from the CCDC's data processing and validation procedures.
#
#######################################################################

data_UXUZAP
_chemical_formula_moiety         '(C14 H15 N7 O3 Zn1)n'
_symmetry_cell_setting           orthorhombic
_symmetry_space_group_name_H-M   'P n a 21'
_symmetry_Int_Tables_number      33
_space_group_name_Hall           'P 2c -2n'
loop_
_symmetry_equiv_pos_site_id
_symmetry_equiv_pos_as_xyz
1 x,y,z
2 -x,-y,1/2+z
3 1/2+x,1/2-y,z
4 1/2-x,1/2+y,1/2+z
_cell_length_a                   18.2006(9)
_cell_length_b                   10.4443(7)
_cell_length_c                   9.0541(6)
_cell_angle_alpha                90
_cell_angle_beta                 90
_cell_angle_gamma                90
_cell_volume                     1721.12
loop_
_atom_site_label
_atom_site_type_symbol
_atom_site_fract_x
_atom_site_fract_y
_atom_site_fract_z
_atom_site_U_iso_or_equiv
_atom_site_thermal_displace_type
Zn1 Zn 0.400306(16) -0.01884(3) -0.13211(8) 0.0302 Uani
C1 C 0.5012(3) 0.0241(4) -0.3733(7) 0.0355 Uani
H1 H 0.5298 -0.0384 -0.3278 0.0430 Uiso
N1 N 0.51899(15) 0.0740(3) -0.5050(4) 0.0352 Uani
N2 N 0.45776(17) 0.2366(3) -0.6532(5) 0.0454 Uani
C2 C 0.3990(2) 0.3106(4) -0.6469(8) 0.0533 Uani
H2 H 0.3921 0.3645 -0.7274 0.0640 Uiso
N3 N 0.43990(15) 0.0699(3) -0.3117(3) 0.0334 Uani
C3 C 0.3539(2) 0.2429(4) -0.4215(5) 0.0397 Uani
N4 N 0.34835(18) 0.3186(3) -0.5411(4) 0.0500 Uani
C4 C 0.41569(18) 0.1587(4) -0.4143(4) 0.0334 Uani
C5 C 0.46365(17) 0.1618(4) -0.5310(5) 0.0312 Uani
N5 N 0.30240(17) 0.2505(4) -0.3169(4) 0.0560 Uani
H3 H 0.2664 0.3032 -0.3266 0.0670 Uiso
H4 H 0.3052 0.2026 -0.2398 0.0670 Uiso
O1 O 0.33716(14) 0.1063(3) -0.0379(3) 0.0465 Uani
N6 N 0.16366(15) 0.3429(3) 0.2798(4) 0.0370 Uani
O2 O 0.31265(15) -0.0402(3) 0.1333(4) 0.0521 Uani
C6 C 0.3044(2) 0.0657(4) 0.0796(5) 0.0382 Uani
C7 C 0.2569(2) 0.2892(4) 0.1072(5) 0.0447 Uani
H5 H 0.2891 0.3155 0.0334 0.0540 Uiso
C8 C 0.2541(2) 0.1626(4) 0.1505(5) 0.0362 Uani
C9 C 0.2111(2) 0.3760(4) 0.1758(5) 0.0480 Uani
H6 H 0.2136 0.4615 0.1477 0.0580 Uiso
C10 C 0.1615(2) 0.2202(4) 0.3223(5) 0.0483 Uani
H7 H 0.1288 0.1964 0.3961 0.0580 Uiso
C11 C 0.2063(2) 0.1273(4) 0.2604(5) 0.0480 Uani
H8 H 0.2041 0.0429 0.2927 0.0580 Uiso
Zn1A Zn 0.599694(16) 0.01884(3) -0.63211(8) 0.0302 Uani
Zn1C Zn 0.099694(16) 0.48116(3) 0.36789(8) 0.0302 Uani
N1A N 0.48101(15) -0.0740(3) -0.0050(4) 0.0352 Uani
N6C N 0.33634(15) -0.1571(3) -0.2202(4) 0.0370 Uani
N7 N -0.0252(3) -0.1422(4) 0.3551(7) 0.0773 Uani
O3 O 0.0825(3) -0.0644(6) 0.4370(8) 0.1343 Uani
C12 C 0.0320(5) -0.0778(8) 0.3341(13) 0.1423 Uani
H9 H 0.0390 -0.0383 0.2431 0.1710 Uiso
C13 C -0.0423(6) -0.2074(9) 0.4841(11) 0.1667 Uani
H10 H -0.0042 -0.1939 0.5556 0.2500 Uiso
H11 H -0.0466 -0.2972 0.4634 0.2500 Uiso
H12 H -0.0881 -0.1761 0.5226 0.2500 Uiso
C14 C -0.0772(6) -0.1483(8) 0.2398(11) 0.1573 Uani
H13 H -0.0600 -0.0989 0.1573 0.2360 Uiso
H14 H -0.1232 -0.1142 0.2735 0.2360 Uiso
H15 H -0.0837 -0.2358 0.2101 0.2360 Uiso
loop_
_atom_site_aniso_label
_atom_site_aniso_U_11
_atom_site_aniso_U_22
_atom_site_aniso_U_33
_atom_site_aniso_U_23
_atom_site_aniso_U_13
_atom_site_aniso_U_12
Zn1 0.02338(14) 0.0427(2) 0.02456(19) -0.0051(4) -0.0003(3) 0.00135(16)
C1 0.0285(13) 0.053(3) 0.025(2) 0.004(2) 0.0017(14) 0.003(2)
N1 0.0303(15) 0.0462(19) 0.029(2) 0.0052(16) 0.0028(15) 0.0013(14)
N2 0.0447(16) 0.0475(18) 0.044(3) 0.009(2) -0.0010(19) 0.0045(14)
C2 0.055(2) 0.056(2) 0.049(4) 0.015(3) -0.002(3) 0.004(2)
N3 0.0287(15) 0.0433(18) 0.0283(19) 0.0017(16) 0.0019(14) 0.0037(14)
C3 0.0342(18) 0.044(2) 0.041(3) -0.008(2) -0.003(2) 0.0063(17)
N4 0.0459(18) 0.056(2) 0.048(2) 0.011(2) -0.0033(19) 0.0142(16)
C4 0.0312(19) 0.040(2) 0.029(2) -0.0028(18) -0.0022(16) 0.0012(15)
C5 0.0246(16) 0.037(2) 0.032(2) 0.0009(18) -0.0005(16) -0.0006(16)
N5 0.0420(18) 0.078(3) 0.048(2) 0.011(2) 0.0052(19) 0.0291(19)
O1 0.0467(15) 0.0511(18) 0.0418(19) -0.0036(14) 0.0189(15) 0.0139(14)
N6 0.0289(14) 0.047(2) 0.035(2) -0.0029(16) 0.0084(15) 0.0042(14)
O2 0.0420(15) 0.0473(18) 0.067(2) 0.0028(17) 0.0149(15) 0.0051(14)
C6 0.0307(19) 0.046(2) 0.038(3) -0.009(2) 0.0045(19) -0.0002(18)
C7 0.043(2) 0.052(3) 0.039(3) 0.000(2) 0.016(2) 0.001(2)
C8 0.0296(18) 0.043(2) 0.036(3) -0.003(2) 0.0055(17) 0.0038(16)
C9 0.046(2) 0.045(2) 0.053(3) 0.006(2) 0.015(2) 0.005(2)
C10 0.048(2) 0.052(3) 0.045(3) 0.001(2) 0.0209(19) -0.0013(19)
C11 0.050(2) 0.038(2) 0.056(3) 0.003(2) 0.015(2) 0.0026(19)
Zn1A 0.02338 0.0427 0.02456 0.0051 0.0003 0.00135
Zn1C 0.02338 0.0427 0.02456 -0.0051 0.0003 -0.00135
N1A 0.0303 0.0462 0.029 -0.0052 -0.0028 0.0013
N6C 0.0289 0.047 0.035 -0.0029 -0.0084 -0.0042
N7 0.099(3) 0.076(3) 0.057(3) -0.009(3) 0.008(4) 0.007(2)
O3 0.105(4) 0.132(4) 0.166(7) 0.000(4) 0.013(4) -0.009(4)
C12 0.132(7) 0.113(6) 0.182(14) 0.002(7) 0.087(8) 0.004(6)
C13 0.239(11) 0.173(9) 0.088(7) 0.058(7) 0.004(8) -0.031(8)
C14 0.222(10) 0.114(7) 0.136(9) -0.049(7) -0.054(8) 0.042(7)
loop_
_geom_bond_atom_site_label_1
_geom_bond_atom_site_label_2
_geom_bond_site_symmetry_1
_geom_bond_site_symmetry_2
Zn1 N3 1_555 1_555
C1 H1 1_555 1_555
N1 C1 1_555 1_555
N2 C2 1_555 1_555
C2 H2 1_555 1_555
N3 C1 1_555 1_555
C3 N4 1_555 1_555
N4 C2 1_555 1_555
C4 N3 1_555 1_555
C5 N1 1_555 1_555
N5 C3 1_555 1_555
H3 N5 1_555 1_555
H4 N5 1_555 1_555
O1 Zn1 1_555 1_555
N6 C9 1_555 1_555
O2 C6 1_555 1_555
C6 O1 1_555 1_555
C7 H5 1_555 1_555
C8 C6 1_555 1_555
C9 C7 1_555 1_555
H6 C9 1_555 1_555
C10 N6 1_555 1_555
H7 C10 1_555 1_555
C11 C8 1_555 1_555
H8 C11 1_555 1_555
N7 C12 1_555 1_555
O3 C12 1_555 1_555
C12 H9 1_555 1_555
C13 N7 1_555 1_555
H10 C13 1_555 1_555
H11 C13 1_555 1_555
H12 C13 1_555 1_555
C14 N7 1_555 1_555
H13 C14 1_555 1_555
H14 C14 1_555 1_555
H15 C14 1_555 1_555
Zn1A N1 1_555 1_555
Zn1C N6 1_555 1_555
N1A Zn1 1_555 1_555
N6C Zn1 1_555 1_555
N2 C5 1_555 1_555
C3 C4 1_555 1_555
C4 C5 1_555 1_555
C7 C8 1_555 1_555
C10 C11 1_555 1_555

#END
