
#######################################################################
#
#                 Cambridge Crystallographic Data Centre
#                                CCDC 
#
#######################################################################
#
# If this CIF has been generated from an entry in the Cambridge 
# Structural Database, then it will include bibliographic, chemical, 
# crystal, experimental, refinement or atomic coordinate data resulting 
# from the CCDC's data processing and validation procedures.
#
#######################################################################

data_NUVWEH
_chemical_formula_moiety         '(C16 H28 La2 O26 Pb1)n'
_symmetry_cell_setting           tetragonal
_symmetry_space_group_name_H-M   'I -4 2 d'
_symmetry_Int_Tables_number      122
_space_group_name_Hall           'I -4 2bw'
loop_
_symmetry_equiv_pos_site_id
_symmetry_equiv_pos_as_xyz
1 x,y,z
2 -x,-y,z
3 y,-x,-z
4 -y,x,-z
5 1/2-x,y,3/4-z
6 1/2+x,-y,3/4-z
7 1/2-y,-x,3/4+z
8 1/2+y,x,3/4+z
9 1/2+x,1/2+y,1/2+z
10 1/2-x,1/2-y,1/2+z
11 1/2+y,1/2-x,1/2-z
12 1/2-y,1/2+x,1/2-z
13 -x,1/2+y,1/4-z
14 x,1/2-y,1/4-z
15 -y,1/2-x,1/4+z
16 y,1/2+x,1/4+z
_cell_length_a                   13.9901(7)
_cell_length_b                   13.9901(7)
_cell_length_c                   18.2013(18)
_cell_angle_alpha                90
_cell_angle_beta                 90
_cell_angle_gamma                90
_cell_volume                     3562.41
loop_
_atom_site_label
_atom_site_type_symbol
_atom_site_fract_x
_atom_site_fract_y
_atom_site_fract_z
Pb1 Pb 0.0000 0.0000 0.0000
La1 La 0.01400(4) 0.2500 0.1250
O1 O -0.2008(4) 0.0101(4) 0.1712(4)
O2 O -0.0802(4) 0.0928(4) 0.1227(4)
O3 O -0.1779(5) 0.2500 0.1250
O4 O 0.1109(4) 0.1298(4) 0.0511(3)
O5 O 0.2382(4) 0.0579(4) 0.0025(4)
O6 O 0.2098(5) 0.2500 0.1250
O7 O 0.0873(5) 0.3664(4) 0.0297(4)
C1 C -0.1655(6) 0.0824(6) 0.1442(5)
C2 C -0.2328(6) 0.1659(5) 0.1325(6)
H1 H -0.2706 0.1557 0.0885
H2 H -0.2758 0.1719 0.1740
C3 C 0.1993(6) 0.1174(6) 0.0419(5)
C4 C 0.2645(6) 0.1844(6) 0.0843(5)
H3 H 0.3047 0.1476 0.1172
H4 H 0.3055 0.2186 0.0503
Pb1L Pb 0.0000 0.5000 0.2500
Pb1L_2 Pb 0.0000 -0.5000 0.2500
La1A La -0.01400(4) -0.2500 0.1250
La1B La 0.2500 -0.01400(4) -0.1250
La1K La 0.2500 0.51400(4) 0.3750
La1C La -0.2500 0.01400(4) -0.1250
La1J La -0.2500 -0.51400(4) 0.3750
O1M O -0.2008(4) 0.4899(4) 0.0788(4)
O1A O 0.2008(4) -0.0101(4) 0.1712(4)
O1L O 0.2008(4) -0.4899(4) 0.0788(4)
O2M O -0.0802(4) 0.4072(4) 0.1273(4)
O2A O 0.0802(4) -0.0928(4) 0.1227(4)
O2L O 0.0802(4) -0.4072(4) 0.1273(4)
O3A O 0.1779(5) -0.2500 0.1250
O4M O 0.1109(4) 0.3702(4) 0.1989(3)
O4A O -0.1109(4) -0.1298(4) 0.0511(3)
O4L O -0.1109(4) -0.3702(4) 0.1989(3)
O4B O 0.1298(4) -0.1109(4) -0.0511(3)
O4C O -0.1298(4) 0.1109(4) -0.0511(3)
O5M O 0.2382(4) 0.4421(4) 0.2475(4)
O5A O -0.2382(4) -0.0579(4) 0.0025(4)
O5L O -0.2382(4) -0.4421(4) 0.2475(4)
O5C O -0.0579(4) 0.2382(4) -0.0025(4)
O5N O -0.0579(4) 0.2618(4) 0.2525(4)
O5B O 0.0579(4) -0.2382(4) -0.0025(4)
O5O O 0.0579(4) -0.2618(4) 0.2525(4)
O6A O -0.2098(5) -0.2500 0.1250
O7M O 0.0873(5) 0.1336(4) 0.2203(4)
O7A O -0.0873(5) -0.3664(4) 0.0297(4)
O7L O -0.0873(5) -0.1336(4) 0.2203(4)
C1M C -0.1655(6) 0.4176(6) 0.1058(5)
C1A C 0.1655(6) -0.0824(6) 0.1442(5)
C1L C 0.1655(6) -0.4176(6) 0.1058(5)
C2M C -0.2328(6) 0.3341(5) 0.1175(6)
C2A C 0.2328(6) -0.1659(5) 0.1325(6)
C2L C 0.2328(6) -0.3341(5) 0.1175(6)
H1M H -0.2706 0.3443 0.1615
H1A H 0.2706 -0.1557 0.0885
H1L H 0.2706 -0.3443 0.1615
H2M H -0.2758 0.3281 0.0760
H2A H 0.2758 -0.1719 0.1740
H2L H 0.2758 -0.3281 0.0760
C3M C 0.1993(6) 0.3826(6) 0.2081(5)
C3A C -0.1993(6) -0.1174(6) 0.0419(5)
C3L C -0.1993(6) -0.3826(6) 0.2081(5)
C4M C 0.2645(6) 0.3156(6) 0.1657(5)
C4A C -0.2645(6) -0.1844(6) 0.0843(5)
C4L C -0.2645(6) -0.3156(6) 0.1657(5)
H3M H 0.3047 0.3524 0.1328
H3A H -0.3047 -0.1476 0.1172
H3L H -0.3047 -0.3524 0.1328
H4M H 0.3055 0.2814 0.1997
H4A H -0.3055 -0.2186 0.0503
H4L H -0.3055 -0.2814 0.1997
O8 O 0.5000 0.0000 0.0777(14)
O9 O 0.4967(14) 0.8541(13) 0.2387(9)
loop_
_geom_bond_atom_site_label_1
_geom_bond_atom_site_label_2
_geom_bond_site_symmetry_1
_geom_bond_site_symmetry_2
Pb1 O4 1_555 1_555
La1 O2 1_555 1_555
O1 C1 1_555 1_555
O2 C1 1_555 1_555
O3 La1 1_555 1_555
O4 La1 1_555 1_555
O5 C3 1_555 1_555
O6 La1 1_555 1_555
O7 La1 1_555 1_555
C1 C2 1_555 1_555
C2 O3 1_555 1_555
H1 C2 1_555 1_555
H2 C2 1_555 1_555
C3 O4 1_555 1_555
C4 O6 1_555 1_555
H3 C4 1_555 1_555
H4 C4 1_555 1_555
Pb1L O4M 1_555 1_555
Pb1L_2 O4L 1_555 1_555
La1A O2A 1_555 1_555
La1B O5 1_555 1_555
La1K O5M 1_555 1_555
La1C O4C 1_555 1_555
La1J O5L 1_555 1_555
O1M C1M 1_555 1_555
O1A C1A 1_555 1_555
O1L C1L 1_555 1_555
O2M La1 1_555 1_555
O2A C1A 1_555 1_555
O2L La1A 1_555 1_555
O3A La1A 1_555 1_555
O4M La1 1_555 1_555
O4A Pb1 1_555 1_555
O4L La1A 1_555 1_555
O4B Pb1 1_555 1_555
O4C Pb1 1_555 1_555
O5M C3M 1_555 1_555
O5A La1C 1_555 1_555
O5L C3L 1_555 1_555
O5C La1 1_555 1_555
O5N La1 1_555 1_555
O5B La1A 1_555 1_555
O5O La1A 1_555 1_555
O6A La1A 1_555 1_555
O7M La1 1_555 1_555
O7A La1A 1_555 1_555
O7L La1A 1_555 1_555
C1M O2M 1_555 1_555
C1A C2A 1_555 1_555
C1L O2L 1_555 1_555
C2M O3 1_555 1_555
C2A O3A 1_555 1_555
C2L O3A 1_555 1_555
H1M C2M 1_555 1_555
H1A C2A 1_555 1_555
H1L C2L 1_555 1_555
H2M C2M 1_555 1_555
H2A C2A 1_555 1_555
H2L C2L 1_555 1_555
C3M O4M 1_555 1_555
C3A O4A 1_555 1_555
C3L O4L 1_555 1_555
C4M O6 1_555 1_555
C4A O6A 1_555 1_555
C4L O6A 1_555 1_555
H3M C4M 1_555 1_555
H3A C4A 1_555 1_555
H3L C4L 1_555 1_555
H4M C4M 1_555 1_555
H4A C4A 1_555 1_555
H4L C4L 1_555 1_555
C3 C4 1_555 1_555
La1A O4A 1_555 1_555
La1B O4B 1_555 1_555
O5A C3A 1_555 1_555
C1M C2M 1_555 1_555
C1L C2L 1_555 1_555
C3M C4M 1_555 1_555
C3A C4A 1_555 1_555
C3L C4L 1_555 1_555

#END
