
#######################################################################
#
#                 Cambridge Crystallographic Data Centre
#                                CCDC 
#
#######################################################################
#
# If this CIF has been generated from an entry in the Cambridge 
# Structural Database, then it will include bibliographic, chemical, 
# crystal, experimental, refinement or atomic coordinate data resulting 
# from the CCDC's data processing and validation procedures.
#
#######################################################################

data_NUVWIL
_chemical_formula_moiety         '(C48 H72 La4 O72 Zn6)n'
_symmetry_cell_setting           hexagonal
_symmetry_space_group_name_H-M   'P 6/m c c'
_symmetry_Int_Tables_number      192
_space_group_name_Hall           '-P 6 2c'
loop_
_symmetry_equiv_pos_site_id
_symmetry_equiv_pos_as_xyz
1 x,y,z
2 -y,x-y,z
3 -x+y,-x,z
4 -x,-y,z
5 y,-x+y,z
6 x-y,x,z
7 y,x,1/2-z
8 x-y,-y,1/2-z
9 -x,-x+y,1/2-z
10 -y,-x,1/2-z
11 -x+y,y,1/2-z
12 x,x-y,1/2-z
13 -x,-y,-z
14 y,-x+y,-z
15 x-y,x,-z
16 x,y,-z
17 -y,x-y,-z
18 -x+y,-x,-z
19 -y,-x,1/2+z
20 -x+y,y,1/2+z
21 x,x-y,1/2+z
22 y,x,1/2+z
23 x-y,-y,1/2+z
24 -x,-x+y,1/2+z
_cell_length_a                   15.3708(10)
_cell_length_b                   15.3708(10)
_cell_length_c                   15.118(2)
_cell_angle_alpha                90
_cell_angle_beta                 90
_cell_angle_gamma                120
_cell_volume                     3093.27
loop_
_atom_site_label
_atom_site_type_symbol
_atom_site_fract_x
_atom_site_fract_y
_atom_site_fract_z
La1 La 0.6667 0.3333 0.2500
Zn1 Zn 0.5000 0.0000 0.0000
O1 O 0.61795(15) 0.19285(15) 0.14196(13)
O2 O 0.61082(18) 0.05201(16) 0.09595(16)
O3 O 0.76391(10) 0.23609(10) 0.2500
O4 O 0.50806(19) -0.13505(18) 0.0000
C1 C 0.6470(2) 0.1297(2) 0.1416(2)
C2 C 0.7331(3) 0.1487(3) 0.2001(3)
H1 H 0.7130 0.0919 0.2394
H2 H 0.7887 0.1559 0.1642
La1L La 0.3333 -0.3333 -0.2500
La1C La 0.3333 -0.3333 0.2500
La1O La 0.6667 0.3333 -0.2500
La1L_2 La 1.3333 0.6667 0.7500
La1C_2 La 1.3333 0.6667 0.2500
La1O_2 La 0.6667 0.3333 0.7500
La1N La 0.3334 0.6667 -0.2500
La1E La 0.3334 0.6667 0.2500
Zn1F Zn 1.0000 0.5000 0.5000
Zn1B Zn 0.5000 0.5000 0.0000
Zn1G Zn 0.5000 0.0000 0.5000
Zn1A Zn 1.0000 0.5000 0.0000
Zn1H Zn 0.5000 0.5000 0.5000
Zn1F_2 Zn -0.0000 -0.5000 -0.5000
Zn1F_3 Zn 0.0000 -0.5000 0.5000
Zn1F_4 Zn 1.0000 0.5000 -0.5000
Zn1_2 Zn 1.5000 1.0000 1.0000
Zn1_3 Zn 1.5000 1.0000 0.0000
Zn1_4 Zn 0.5000 0.0000 1.0000
Zn1G_2 Zn 0.5000 1.0000 -0.5000
Zn1G_3 Zn 0.5000 1.0000 0.5000
Zn1G_4 Zn 0.5000 -0.0000 -0.5000
O1I O 0.80715(15) 0.38205(15) 0.35804(13)
O1B O 0.57490(21) 0.38205(15) 0.14196(13)
O1J O 0.57490(21) 0.19285(15) 0.35804(13)
O1A O 0.80715(15) 0.42510(21) 0.14196(13)
O1K O 0.61795(15) 0.42510(21) 0.35804(13)
O1L O 0.38205(15) -0.19285(15) -0.14196(13)
O1U O 0.19285(15) -0.38205(15) -0.35804(13)
O1C O 0.38205(15) -0.19285(15) 0.14196(13)
O1F O 0.19285(15) -0.38205(15) 0.35804(13)
O1O O 0.61795(15) 0.19285(15) -0.14196(13)
O1R O 0.80715(15) 0.38205(15) -0.35804(13)
O1U_2 O 1.19285(15) 0.61795(15) 0.64196(13)
O1L_2 O 1.38205(15) 0.80715(15) 0.85804(13)
O1F_2 O 1.19285(15) 0.61795(15) 0.35804(13)
O1C_2 O 1.38205(15) 0.80715(15) 0.14196(13)
O1R_2 O 0.80715(15) 0.38205(15) 0.64196(13)
O1O_2 O 0.61795(15) 0.19285(15) 0.85804(13)
O1N O 0.42510(21) 0.61795(15) -0.14196(13)
O1V O 0.42510(21) 0.80715(15) -0.35804(13)
O1E O 0.42510(21) 0.61795(15) 0.14196(13)
O1G O 0.42510(21) 0.80715(15) 0.35804(13)
O1Q O 0.57490(21) 0.38205(15) -0.14196(13)
O1S O 0.57490(21) 0.19285(15) -0.35804(13)
O1N_2 O 0.42510(21) -0.38205(15) -0.14196(13)
O1V_2 O 0.42510(21) -0.19285(15) -0.35804(13)
O1M O 0.19285(15) -0.42510(21) -0.14196(13)
O1W O 0.38205(15) -0.42510(21) -0.35804(13)
O1E_2 O 0.42510(21) -0.38205(15) 0.14196(13)
O1G_2 O 0.42510(21) -0.19285(15) 0.35804(13)
O1D O 0.19285(15) -0.42510(21) 0.14196(13)
O1H O 0.38205(15) -0.42510(21) 0.35804(13)
O1P O 0.80715(15) 0.42510(21) -0.14196(13)
O1T O 0.61795(15) 0.42510(21) -0.35804(13)
O2I O 0.94799(16) 0.38918(18) 0.40405(16)
O2B O 0.44119(24) 0.38918(18) 0.09595(16)
O2J O 0.44119(24) 0.05201(16) 0.40405(16)
O2A O 0.94799(16) 0.55881(24) 0.09595(16)
O2K O 0.61082(18) 0.55881(24) 0.40405(16)
O2L O 0.38918(18) -0.05201(16) -0.09595(16)
O2U O 0.05201(16) -0.38918(18) -0.40405(16)
O2C O 0.38918(18) -0.05201(16) 0.09595(16)
O2F O 0.05201(16) -0.38918(18) 0.40405(16)
O2O O 0.61082(18) 0.05201(16) -0.09595(16)
O2R O 0.94799(16) 0.38918(18) -0.40405(16)
O2U_2 O 1.05201(16) 0.61082(18) 0.59595(16)
O2L_2 O 1.38918(18) 0.94799(16) 0.90405(16)
O2F_2 O 1.05201(16) 0.61082(18) 0.40405(16)
O2C_2 O 1.38918(18) 0.94799(16) 0.09595(16)
O2R_2 O 0.94799(16) 0.38918(18) 0.59595(16)
O2O_2 O 0.61082(18) 0.05201(16) 0.90405(16)
O2N O 0.55881(24) 0.61082(18) -0.09595(16)
O2V O 0.55881(24) 0.94799(16) -0.40405(16)
O2E O 0.55881(24) 0.61082(18) 0.09595(16)
O2G O 0.55881(24) 0.94799(16) 0.40405(16)
O2Q O 0.44119(24) 0.38918(18) -0.09595(16)
O2S O 0.44119(24) 0.05201(16) -0.40405(16)
O2V_2 O 0.55881(24) -0.05201(16) 0.59595(16)
O2G_2 O 0.55881(24) -0.05201(16) 0.40405(16)
O2S_2 O 0.44119(24) 0.05201(16) 0.59595(16)
O2M O 1.05201(16) 0.44119(24) -0.09595(16)
O2D O 1.05201(16) 0.44119(24) 0.09595(16)
O2P O 0.94799(16) 0.55881(24) -0.09595(16)
O2W O 0.38918(18) 0.44119(24) 0.59595(16)
O2H O 0.38918(18) 0.44119(24) 0.40405(16)
O2T O 0.61082(18) 0.55881(24) 0.59595(16)
O3B O 0.47218(14) 0.23609(10) 0.2500
O3A O 0.76391(10) 0.52782(14) 0.2500
O3L O 0.23609(10) -0.23609(10) -0.2500
O3C O 0.23609(10) -0.23609(10) 0.2500
O3O O 0.76391(10) 0.23609(10) -0.2500
O3L_2 O 1.23609(10) 0.76391(10) 0.7500
O3C_2 O 1.23609(10) 0.76391(10) 0.2500
O3O_2 O 0.76391(10) 0.23609(10) 0.7500
O3N O 0.52782(14) 0.76391(10) -0.2500
O3E O 0.52782(14) 0.76391(10) 0.2500
O3Q O 0.47218(14) 0.23609(10) -0.2500
O3N_2 O 0.52782(14) -0.23609(10) -0.2500
O3M O 0.23609(10) -0.52782(14) -0.2500
O3E_2 O 0.52782(14) -0.23609(10) 0.2500
O3D O 0.23609(10) -0.52782(14) 0.2500
O3P O 0.76391(10) 0.52782(14) -0.2500
O4C O 0.49194(19) 0.13505(18) 0.0000
O4I O 1.13505(18) 0.49194(19) 0.5000
O4F O 0.86495(18) 0.50806(19) 0.5000
O4B O 0.35689(26) 0.49194(19) 0.0000
O4E O 0.64311(26) 0.50806(19) 0.0000
O4J O 0.35689(26) -0.13505(18) 0.5000
O4G O 0.64311(26) 0.13505(18) 0.5000
O4A O 1.13505(18) 0.64311(26) 0.0000
O4D O 0.86495(18) 0.35689(26) 0.0000
O4K O 0.50806(19) 0.64311(26) 0.5000
O4H O 0.49194(19) 0.35689(26) 0.5000
C1I C 0.8703(2) 0.3530(2) 0.3584(2)
C1B C 0.4827(3) 0.3530(2) 0.1416(2)
C1J C 0.4827(3) 0.1297(2) 0.3584(2)
C1A C 0.8703(2) 0.5173(3) 0.1416(2)
C1K C 0.6470(2) 0.5173(3) 0.3584(2)
C1L C 0.3530(2) -0.1297(2) -0.1416(2)
C1U C 0.1297(2) -0.3530(2) -0.3584(2)
C1C C 0.3530(2) -0.1297(2) 0.1416(2)
C1F C 0.1297(2) -0.3530(2) 0.3584(2)
C1O C 0.6470(2) 0.1297(2) -0.1416(2)
C1R C 0.8703(2) 0.3530(2) -0.3584(2)
C1U_2 C 1.1297(2) 0.6470(2) 0.6416(2)
C1L_2 C 1.3530(2) 0.8703(2) 0.8584(2)
C1F_2 C 1.1297(2) 0.6470(2) 0.3584(2)
C1C_2 C 1.3530(2) 0.8703(2) 0.1416(2)
C1R_2 C 0.8703(2) 0.3530(2) 0.6416(2)
C1O_2 C 0.6470(2) 0.1297(2) 0.8584(2)
C1N C 0.5173(3) 0.6470(2) -0.1416(2)
C1V C 0.5173(3) 0.8703(2) -0.3584(2)
C1E C 0.5173(3) 0.6470(2) 0.1416(2)
C1G C 0.5173(3) 0.8703(2) 0.3584(2)
C1Q C 0.4827(3) 0.3530(2) -0.1416(2)
C1S C 0.4827(3) 0.1297(2) -0.3584(2)
C2I C 0.8513(3) 0.2669(3) 0.2999(3)
C2B C 0.4156(4) 0.2669(3) 0.2001(3)
C2J C 0.4156(4) 0.1487(3) 0.2999(3)
C2A C 0.8513(3) 0.5844(4) 0.2001(3)
C2K C 0.7331(3) 0.5844(4) 0.2999(3)
C2L C 0.2669(3) -0.1487(3) -0.2001(3)
C2U C 0.1487(3) -0.2669(3) -0.2999(3)
C2C C 0.2669(3) -0.1487(3) 0.2001(3)
C2F C 0.1487(3) -0.2669(3) 0.2999(3)
C2O C 0.7331(3) 0.1487(3) -0.2001(3)
C2R C 0.8513(3) 0.2669(3) -0.2999(3)
C2U_2 C 1.1487(3) 0.7331(3) 0.7001(3)
C2L_2 C 1.2669(3) 0.8513(3) 0.7999(3)
C2F_2 C 1.1487(3) 0.7331(3) 0.2999(3)
C2C_2 C 1.2669(3) 0.8513(3) 0.2001(3)
C2R_2 C 0.8513(3) 0.2669(3) 0.7001(3)
C2O_2 C 0.7331(3) 0.1487(3) 0.7999(3)
C2N C 0.5844(4) 0.7331(3) -0.2001(3)
C2V C 0.5844(4) 0.8513(3) -0.2999(3)
C2E C 0.5844(4) 0.7331(3) 0.2001(3)
C2G C 0.5844(4) 0.8513(3) 0.2999(3)
C2Q C 0.4156(4) 0.2669(3) -0.2001(3)
C2S C 0.4156(4) 0.1487(3) -0.2999(3)
H1I H 0.9081 0.2870 0.2606
H1B H 0.3789 0.2870 0.2394
H1J H 0.3789 0.0919 0.2606
H1A H 0.9081 0.6211 0.2394
H1K H 0.7130 0.6211 0.2606
H1L H 0.2870 -0.0919 -0.2394
H1U H 0.0919 -0.2870 -0.2606
H1C H 0.2870 -0.0919 0.2394
H1F H 0.0919 -0.2870 0.2606
H1O H 0.7130 0.0919 -0.2394
H1R H 0.9081 0.2870 -0.2606
H1U_2 H 1.0919 0.7130 0.7394
H1L_2 H 1.2870 0.9081 0.7606
H1F_2 H 1.0919 0.7130 0.2606
H1C_2 H 1.2870 0.9081 0.2394
H1R_2 H 0.9081 0.2870 0.7394
H1O_2 H 0.7130 0.0919 0.7606
H1N H 0.6211 0.7130 -0.2394
H1V H 0.6211 0.9081 -0.2606
H1E H 0.6211 0.7130 0.2394
H1G H 0.6211 0.9081 0.2606
H1Q H 0.3789 0.2870 -0.2394
H1S H 0.3789 0.0919 -0.2606
H2I H 0.8441 0.2113 0.3358
H2B H 0.3672 0.2113 0.1642
H2J H 0.3672 0.1559 0.3358
H2A H 0.8441 0.6328 0.1642
H2K H 0.7887 0.6328 0.3358
H2L H 0.2113 -0.1559 -0.1642
H2U H 0.1559 -0.2113 -0.3358
H2C H 0.2113 -0.1559 0.1642
H2F H 0.1559 -0.2113 0.3358
H2O H 0.7887 0.1559 -0.1642
H2R H 0.8441 0.2113 -0.3358
H2U_2 H 1.1559 0.7887 0.6642
H2L_2 H 1.2113 0.8441 0.8358
H2F_2 H 1.1559 0.7887 0.3358
H2C_2 H 1.2113 0.8441 0.1642
H2R_2 H 0.8441 0.2113 0.6642
H2O_2 H 0.7887 0.1559 0.8358
H2N H 0.6328 0.7887 -0.1642
H2V H 0.6328 0.8441 -0.3358
H2E H 0.6328 0.7887 0.1642
H2G H 0.6328 0.8441 0.3358
H2Q H 0.3672 0.2113 -0.1642
H2S H 0.3672 0.1559 -0.3358
loop_
_geom_bond_atom_site_label_1
_geom_bond_atom_site_label_2
_geom_bond_site_symmetry_1
_geom_bond_site_symmetry_2
La1 O1 1_555 1_555
Zn1 O2 1_555 1_555
O1 C1 1_555 1_555
O2 C1 1_555 1_555
O3 La1 1_555 1_555
O4 Zn1 1_555 1_555
C1 C2 1_555 1_555
C2 O3 1_555 1_555
H1 C2 1_555 1_555
H2 C2 1_555 1_555
La1L O1L 1_555 1_555
La1C O1C 1_555 1_555
La1O O1O 1_555 1_555
La1L_2 O1U_2 1_555 1_555
La1C_2 O1F_2 1_555 1_555
La1O_2 O1R_2 1_555 1_555
La1N O1N 1_555 1_555
La1E O1E 1_555 1_555
Zn1F O2I 1_555 1_555
Zn1B O2B 1_555 1_555
Zn1G O2J 1_555 1_555
Zn1A O2A 1_555 1_555
Zn1H O2K 1_555 1_555
Zn1F_2 O2U 1_555 1_555
Zn1F_3 O2F 1_555 1_555
Zn1F_4 O2R 1_555 1_555
Zn1_2 O2L_2 1_555 1_555
Zn1_3 O2C_2 1_555 1_555
Zn1_4 O2O_2 1_555 1_555
Zn1G_2 O2V 1_555 1_555
Zn1G_3 O2G 1_555 1_555
Zn1G_4 O2S 1_555 1_555
O1I La1 1_555 1_555
O1B La1 1_555 1_555
O1J La1 1_555 1_555
O1A La1 1_555 1_555
O1K La1 1_555 1_555
O1L C1L 1_555 1_555
O1U La1L 1_555 1_555
O1C C1C 1_555 1_555
O1F La1C 1_555 1_555
O1O C1O 1_555 1_555
O1R La1O 1_555 1_555
O1U_2 C1U_2 1_555 1_555
O1L_2 La1L_2 1_555 1_555
O1F_2 C1F_2 1_555 1_555
O1C_2 La1C_2 1_555 1_555
O1R_2 C1R_2 1_555 1_555
O1O_2 La1O_2 1_555 1_555
O1N C1N 1_555 1_555
O1V La1N 1_555 1_555
O1E C1E 1_555 1_555
O1G La1E 1_555 1_555
O1Q La1O 1_555 1_555
O1S La1O 1_555 1_555
O1N_2 La1L 1_555 1_555
O1V_2 La1L 1_555 1_555
O1M La1L 1_555 1_555
O1W La1L 1_555 1_555
O1E_2 La1C 1_555 1_555
O1G_2 La1C 1_555 1_555
O1D La1C 1_555 1_555
O1H La1C 1_555 1_555
O1P La1O 1_555 1_555
O1T La1O 1_555 1_555
O2I C1I 1_555 1_555
O2B C1B 1_555 1_555
O2J C1J 1_555 1_555
O2A C1A 1_555 1_555
O2K C1K 1_555 1_555
O2L Zn1 1_555 1_555
O2U C1U 1_555 1_555
O2C Zn1 1_555 1_555
O2F C1F 1_555 1_555
O2O Zn1 1_555 1_555
O2R C1R 1_555 1_555
O2U_2 Zn1F 1_555 1_555
O2L_2 C1L_2 1_555 1_555
O2F_2 Zn1F 1_555 1_555
O2C_2 C1C_2 1_555 1_555
O2R_2 Zn1F 1_555 1_555
O2O_2 C1O_2 1_555 1_555
O2N Zn1B 1_555 1_555
O2V C1V 1_555 1_555
O2E Zn1B 1_555 1_555
O2G C1G 1_555 1_555
O2Q Zn1B 1_555 1_555
O2S C1S 1_555 1_555
O2V_2 Zn1G 1_555 1_555
O2G_2 Zn1G 1_555 1_555
O2S_2 Zn1G 1_555 1_555
O2M Zn1A 1_555 1_555
O2D Zn1A 1_555 1_555
O2P Zn1A 1_555 1_555
O2W Zn1H 1_555 1_555
O2H Zn1H 1_555 1_555
O2T Zn1H 1_555 1_555
O3B La1 1_555 1_555
O3A La1 1_555 1_555
O3L La1L 1_555 1_555
O3C La1C 1_555 1_555
O3O La1O 1_555 1_555
O3L_2 La1L_2 1_555 1_555
O3C_2 La1C_2 1_555 1_555
O3O_2 La1O_2 1_555 1_555
O3N La1N 1_555 1_555
O3E La1E 1_555 1_555
O3Q La1O 1_555 1_555
O3N_2 La1L 1_555 1_555
O3M La1L 1_555 1_555
O3E_2 La1C 1_555 1_555
O3D La1C 1_555 1_555
O3P La1O 1_555 1_555
O4C Zn1 1_555 1_555
O4I Zn1F 1_555 1_555
O4F Zn1F 1_555 1_555
O4B Zn1B 1_555 1_555
O4E Zn1B 1_555 1_555
O4J Zn1G 1_555 1_555
O4G Zn1G 1_555 1_555
O4A Zn1A 1_555 1_555
O4D Zn1A 1_555 1_555
O4K Zn1H 1_555 1_555
O4H Zn1H 1_555 1_555
C1I O1I 1_555 1_555
C1B O1B 1_555 1_555
C1J O1J 1_555 1_555
C1A O1A 1_555 1_555
C1K O1K 1_555 1_555
C1L O2L 1_555 1_555
C1U O1U 1_555 1_555
C1C O2C 1_555 1_555
C1F O1F 1_555 1_555
C1O O2O 1_555 1_555
C1R O1R 1_555 1_555
C1U_2 O2U_2 1_555 1_555
C1L_2 O1L_2 1_555 1_555
C1F_2 O2F_2 1_555 1_555
C1C_2 O1C_2 1_555 1_555
C1R_2 O2R_2 1_555 1_555
C1O_2 O1O_2 1_555 1_555
C1N O2N 1_555 1_555
C1V O1V 1_555 1_555
C1E O2E 1_555 1_555
C1G O1G 1_555 1_555
C1Q O1Q 1_555 1_555
C1S O1S 1_555 1_555
C2I O3 1_555 1_555
C2B O3B 1_555 1_555
C2J O3B 1_555 1_555
C2A O3A 1_555 1_555
C2K O3A 1_555 1_555
C2L O3L 1_555 1_555
C2U O3L 1_555 1_555
C2C O3C 1_555 1_555
C2F O3C 1_555 1_555
C2O O3O 1_555 1_555
C2R O3O 1_555 1_555
C2U_2 O3L_2 1_555 1_555
C2L_2 O3L_2 1_555 1_555
C2F_2 O3C_2 1_555 1_555
C2C_2 O3C_2 1_555 1_555
C2R_2 O3O_2 1_555 1_555
C2O_2 O3O_2 1_555 1_555
C2N O3N 1_555 1_555
C2V O3N 1_555 1_555
C2E O3E 1_555 1_555
C2G O3E 1_555 1_555
C2Q O3Q 1_555 1_555
C2S O3Q 1_555 1_555
H1I C2I 1_555 1_555
H1B C2B 1_555 1_555
H1J C2J 1_555 1_555
H1A C2A 1_555 1_555
H1K C2K 1_555 1_555
H1L C2L 1_555 1_555
H1U C2U 1_555 1_555
H1C C2C 1_555 1_555
H1F C2F 1_555 1_555
H1O C2O 1_555 1_555
H1R C2R 1_555 1_555
H1U_2 C2U_2 1_555 1_555
H1L_2 C2L_2 1_555 1_555
H1F_2 C2F_2 1_555 1_555
H1C_2 C2C_2 1_555 1_555
H1R_2 C2R_2 1_555 1_555
H1O_2 C2O_2 1_555 1_555
H1N C2N 1_555 1_555
H1V C2V 1_555 1_555
H1E C2E 1_555 1_555
H1G C2G 1_555 1_555
H1Q C2Q 1_555 1_555
H1S C2S 1_555 1_555
H2I C2I 1_555 1_555
H2B C2B 1_555 1_555
H2J C2J 1_555 1_555
H2A C2A 1_555 1_555
H2K C2K 1_555 1_555
H2L C2L 1_555 1_555
H2U C2U 1_555 1_555
H2C C2C 1_555 1_555
H2F C2F 1_555 1_555
H2O C2O 1_555 1_555
H2R C2R 1_555 1_555
H2U_2 C2U_2 1_555 1_555
H2L_2 C2L_2 1_555 1_555
H2F_2 C2F_2 1_555 1_555
H2C_2 C2C_2 1_555 1_555
H2R_2 C2R_2 1_555 1_555
H2O_2 C2O_2 1_555 1_555
H2N C2N 1_555 1_555
H2V C2V 1_555 1_555
H2E C2E 1_555 1_555
H2G C2G 1_555 1_555
H2Q C2Q 1_555 1_555
H2S C2S 1_555 1_555
O2Q C1Q 1_555 1_555
C1I C2I 1_555 1_555
C1B C2B 1_555 1_555
C1J C2J 1_555 1_555
C1A C2A 1_555 1_555
C1K C2K 1_555 1_555
C1L C2L 1_555 1_555
C1U C2U 1_555 1_555
C1C C2C 1_555 1_555
C1F C2F 1_555 1_555
C1O C2O 1_555 1_555
C1R C2R 1_555 1_555
C1U_2 C2U_2 1_555 1_555
C1L_2 C2L_2 1_555 1_555
C1F_2 C2F_2 1_555 1_555
C1C_2 C2C_2 1_555 1_555
C1R_2 C2R_2 1_555 1_555
C1O_2 C2O_2 1_555 1_555
C1N C2N 1_555 1_555
C1V C2V 1_555 1_555
C1E C2E 1_555 1_555
C1G C2G 1_555 1_555
C1Q C2Q 1_555 1_555
C1S C2S 1_555 1_555

#END
