
#######################################################################
#
#                 Cambridge Crystallographic Data Centre
#                                CCDC 
#
#######################################################################
#
# If this CIF has been generated from an entry in the Cambridge 
# Structural Database, then it will include bibliographic, chemical, 
# crystal, experimental, refinement or atomic coordinate data resulting 
# from the CCDC's data processing and validation procedures.
#
#######################################################################

data_EMUBOF
_chemical_formula_moiety         '(C22 H22 Cu4 I1 N6 O10 1+)n'
_symmetry_cell_setting           tetragonal
_symmetry_space_group_name_H-M   'I 4/m m m'
_symmetry_Int_Tables_number      139
_space_group_name_Hall           '-I 4 2'
loop_
_symmetry_equiv_pos_site_id
_symmetry_equiv_pos_as_xyz
1 x,y,z
2 -x,-y,z
3 -y,x,z
4 y,-x,z
5 -x,y,-z
6 x,-y,-z
7 y,x,-z
8 -y,-x,-z
9 1/2+x,1/2+y,1/2+z
10 1/2-x,1/2-y,1/2+z
11 1/2-y,1/2+x,1/2+z
12 1/2+y,1/2-x,1/2+z
13 1/2-x,1/2+y,1/2-z
14 1/2+x,1/2-y,1/2-z
15 1/2+y,1/2+x,1/2-z
16 1/2-y,1/2-x,1/2-z
17 -x,-y,-z
18 x,y,-z
19 y,-x,-z
20 -y,x,-z
21 x,-y,z
22 -x,y,z
23 -y,-x,z
24 y,x,z
25 1/2-x,1/2-y,1/2-z
26 1/2+x,1/2+y,1/2-z
27 1/2+y,1/2-x,1/2-z
28 1/2-y,1/2+x,1/2-z
29 1/2+x,1/2-y,1/2+z
30 1/2-x,1/2+y,1/2+z
31 1/2-y,1/2-x,1/2+z
32 1/2+y,1/2+x,1/2+z
_cell_length_a                   18.129(4)
_cell_length_b                   18.129(4)
_cell_length_c                   21.841(5)
_cell_angle_alpha                90
_cell_angle_beta                 90
_cell_angle_gamma                90
_cell_volume                     7178.28
loop_
_atom_site_label
_atom_site_type_symbol
_atom_site_fract_x
_atom_site_fract_y
_atom_site_fract_z
_atom_site_U_iso_or_equiv
_atom_site_thermal_displace_type
Cu3 Cu 0.5000 1.0000 0.7500 0.0622 Uani
N2 N 0.5000 0.9102(7) 0.7968(5) 0.0497 Uani
C5 C 0.5000 0.8517(9) 0.8209(7) 0.0550 Uani
C6 C 0.5000 0.7747(8) 0.8479(6) 0.0557 Uani
N2A N 0.5000 1.0898(7) 0.7968(5) 0.0497 Uani
C5A C 0.5000 1.1483(9) 0.8209(7) 0.0550 Uani
C6A C 0.5000 1.2253(8) 0.8479(6) 0.0557 Uani
N2N N 0.4102(7) 1.0000 0.7032(5) 0.0497 Uani
C5N C 0.3517(9) 1.0000 0.6791(7) 0.0550 Uani
C6N C 0.2747(8) 1.0000 0.6521(6) 0.0557 Uani
N2O N 0.5898(7) 1.0000 0.7032(5) 0.0497 Uani
C5O C 0.6483(9) 1.0000 0.6791(7) 0.0550 Uani
C6O C 0.7253(8) 1.0000 0.6521(6) 0.0557 Uani
I1 I 0.37427(4) 1.0000 0.5000 0.0287 Uani
Cu1 Cu 0.5000 0.92657(8) 0.5000 0.0171 Uani
N1 N 0.5000 0.8634(4) 0.5779(3) 0.0177 Uani
C1 C 0.5636(3) 0.8423(3) 0.6048(3) 0.0177 Uani
H1 H 0.6089 0.8584 0.5874 0.0210 Uiso
C2 C 0.5658(3) 0.7985(3) 0.6563(3) 0.0157 Uani
C3 C 0.5000 0.7759(5) 0.6826(4) 0.0183 Uani
C4 C 0.6370(3) 0.7790(3) 0.6873(3) 0.0170 Uani
H2 H 0.5000 0.7454 0.7180 0.0220 Uiso
O1 O 0.6962(2) 0.8044(2) 0.66441(19) 0.0187 Uani
O2 O 0.6317(2) 0.7402(2) 0.73495(19) 0.0213 Uani
Cu2 Cu 0.78876(4) 0.78876(4) 0.70935(4) 0.0121 Uani
O3 O 0.8551(3) 0.8551(3) 0.6512(4) 0.0457 Uani
H3 H 0.8859 0.8786 0.6724 0.0680 Uiso
C1U C 0.4364(3) 0.8423(3) 0.6048(3) 0.0177 Uani
H1U H 0.3911 0.8584 0.5874 0.0210 Uiso
C2U C 0.4342(3) 0.7985(3) 0.6563(3) 0.0157 Uani
C4U C 0.3630(3) 0.7790(3) 0.6873(3) 0.0170 Uani
O1U O 0.3038(2) 0.8044(2) 0.66441(19) 0.0187 Uani
O2U O 0.3683(2) 0.7402(2) 0.73495(19) 0.0213 Uani
H3W H 0.8786 0.8859 0.6724 0.0680 Uiso
Cu2B Cu 0.21124(4) 0.78876(4) 0.70935(4) 0.0121 Uani
O3B O 0.1449(3) 0.8551(3) 0.6512(4) 0.0457 Uani
H3B H 0.1214 0.8859 0.6724 0.0680 Uiso
H3U H 0.1141 0.8786 0.6724 0.0680 Uiso
N1D N 0.5000 0.8634(4) 0.4221(3) 0.0177 Uani
C1D C 0.4364(3) 0.8423(3) 0.3952(3) 0.0177 Uani
H1D H 0.3911 0.8584 0.4126 0.0210 Uiso
C2D C 0.4342(3) 0.7985(3) 0.3437(3) 0.0157 Uani
C3D C 0.5000 0.7759(5) 0.3174(4) 0.0183 Uani
C4D C 0.3630(3) 0.7790(3) 0.3127(3) 0.0170 Uani
H2D H 0.5000 0.7454 0.2820 0.0220 Uiso
O1D O 0.3038(2) 0.8044(2) 0.33559(19) 0.0187 Uani
O2D O 0.3683(2) 0.7402(2) 0.26505(19) 0.0213 Uani
C1Q C 0.5636(3) 0.8423(3) 0.3952(3) 0.0177 Uani
H1Q H 0.6089 0.8584 0.4126 0.0210 Uiso
C2Q C 0.5658(3) 0.7985(3) 0.3437(3) 0.0157 Uani
C4Q C 0.6370(3) 0.7790(3) 0.3127(3) 0.0170 Uani
O1Q O 0.6962(2) 0.8044(2) 0.33559(19) 0.0187 Uani
O2Q O 0.6317(2) 0.7402(2) 0.26505(19) 0.0213 Uani
I1A I 0.62573(4) 1.0000 0.5000 0.0287 Uani
Cu1A Cu 0.5000 1.07343(8) 0.5000 0.0171 Uani
O1B O 0.1956(2) 0.6962(2) 0.66441(19) 0.0187 Uani
O1W O 0.8044(2) 0.6962(2) 0.66441(19) 0.0187 Uani
O2M O 0.1317(2) 0.7598(2) 0.76505(19) 0.0213 Uani
O2O O 0.7598(2) 0.8683(2) 0.76505(19) 0.0213 Uani
O2X O 0.8683(2) 0.7598(2) 0.76505(19) 0.0213 Uani
O2Z O 0.2402(2) 0.8683(2) 0.76505(19) 0.0213 Uani
Cu2D Cu 0.21124(4) 0.78876(4) 0.29065(4) 0.0121 Uani
Cu2F Cu 0.78876(4) 0.78876(4) 0.29065(4) 0.0121 Uani
Cu2I Cu 0.71124(4) 0.71124(4) 0.20935(4) 0.0121 Uani
Cu2K Cu 0.28876(4) 0.71124(4) 0.20935(4) 0.0121 Uani
Cu2M Cu 0.28876(4) 0.71124(4) 0.79065(4) 0.0121 Uani
Cu2O Cu 0.71124(4) 0.71124(4) 0.79065(4) 0.0121 Uani
loop_
_atom_site_aniso_label
_atom_site_aniso_U_11
_atom_site_aniso_U_22
_atom_site_aniso_U_33
_atom_site_aniso_U_23
_atom_site_aniso_U_13
_atom_site_aniso_U_12
Cu3 0.0583(13) 0.0583(13) 0.070(2) 0.000 0.000 0.000
N2 0.051(7) 0.052(7) 0.046(6) 0.008(5) 0.000 0.000
C5 0.038(7) 0.059(9) 0.068(9) -0.013(8) 0.000 0.000
C6 0.074(10) 0.054(8) 0.039(7) -0.007(6) 0.000 0.000
N2A 0.051 0.052 0.046 -0.008 0 0
C5A 0.038 0.059 0.068 0.013 0 0
C6A 0.074 0.054 0.039 0.007 0 0
N2N 0.052 0.051 0.046 0 -0.008 0
C5N 0.059 0.038 0.068 0 0.013 0
C6N 0.054 0.074 0.039 0 0.007 0
N2O 0.052 0.051 0.046 0 0.008 0
C5O 0.059 0.038 0.068 0 -0.013 0
C6O 0.054 0.074 0.039 0 -0.007 0
I1 0.0111(4) 0.0222(5) 0.0529(7) 0.000 0.000 0.000
Cu1 0.0135(7) 0.0229(8) 0.0149(7) 0.000 0.000 0.000
N1 0.013(3) 0.024(4) 0.016(4) 0.003(3) 0.000 0.000
C1 0.008(3) 0.023(3) 0.022(3) -0.003(3) -0.001(2) -0.001(2)
C2 0.015(3) 0.017(3) 0.015(3) 0.000(2) -0.002(2) 0.001(2)
C3 0.016(4) 0.019(4) 0.020(4) 0.002(4) 0.000 0.000
C4 0.015(3) 0.018(3) 0.018(3) -0.002(2) 0.003(2) 0.003(2)
O1 0.011(2) 0.025(2) 0.020(2) 0.0065(18) 0.0027(17) 0.0013(16)
O2 0.014(2) 0.026(2) 0.024(2) 0.0055(19) -0.0015(17) 0.0019(17)
Cu2 0.0106 0.0106 0.0152 0.0023 0.0023 0.0014
O3 0.04 0.04 0.057 0.024 0.024 0.002
C1U 0.008 0.023 0.022 -0.003 0.001 0.001
C2U 0.015 0.017 0.015 0 0.002 -0.001
C4U 0.015 0.018 0.018 -0.002 -0.003 -0.003
O1U 0.011 0.025 0.02 0.0065 -0.0027 -0.0013
O2U 0.014 0.026 0.024 0.0055 0.0015 -0.0019
Cu2B 0.0106 0.0106 0.0152 0.0023 -0.0023 -0.0014
O3B 0.04 0.04 0.057 0.024 -0.024 -0.002
N1D 0.013 0.024 0.016 -0.003 0 0
C1D 0.008 0.023 0.022 0.003 -0.001 0.001
C2D 0.015 0.017 0.015 0 -0.002 -0.001
C3D 0.016 0.019 0.02 -0.002 0 0
C4D 0.015 0.018 0.018 0.002 0.003 -0.003
O1D 0.011 0.025 0.02 -0.0065 0.0027 -0.0013
O2D 0.014 0.026 0.024 -0.0055 -0.0015 -0.0019
C1Q 0.008 0.023 0.022 0.003 0.001 -0.001
C2Q 0.015 0.017 0.015 0 0.002 0.001
C4Q 0.015 0.018 0.018 0.002 -0.003 0.003
O1Q 0.011 0.025 0.02 -0.0065 -0.0027 0.0013
O2Q 0.014 0.026 0.024 -0.0055 0.0015 0.0019
I1A 0.0111 0.0222 0.0529 0 0 0
Cu1A 0.0135 0.0229 0.0149 0 0 0
O1B 0.025 0.011 0.02 0.0027 -0.0065 -0.0013
O1W 0.025 0.011 0.02 0.0027 0.0065 0.0013
O2M 0.014 0.026 0.024 0.0055 0.0015 -0.0019
O2O 0.026 0.014 0.024 -0.0015 0.0055 0.0019
O2X 0.014 0.026 0.024 0.0055 -0.0015 0.0019
O2Z 0.026 0.014 0.024 -0.0015 -0.0055 -0.0019
Cu2D 0.0106 0.0106 0.0152 -0.0023 0.0023 -0.0014
Cu2F 0.0106 0.0106 0.0152 -0.0023 -0.0023 0.0014
Cu2I 0.0106 0.0106 0.0152 -0.0023 -0.0023 0.0014
Cu2K 0.0106 0.0106 0.0152 -0.0023 0.0023 -0.0014
Cu2M 0.0106 0.0106 0.0152 0.0023 -0.0023 -0.0014
Cu2O 0.0106 0.0106 0.0152 0.0023 0.0023 0.0014
loop_
_geom_bond_atom_site_label_1
_geom_bond_atom_site_label_2
_geom_bond_site_symmetry_1
_geom_bond_site_symmetry_2
I1 Cu1 1_555 1_555
Cu1 N1 1_555 1_555
N1 C1 1_555 1_555
C1 H1 1_555 1_555
C2 C1 1_555 1_555
C3 C2 1_555 1_555
C4 C2 1_555 1_555
H2 C3 1_555 1_555
O1 C4 1_555 1_555
O2 C4 1_555 1_555
Cu2 O1 1_555 1_555
O3 Cu2 1_555 1_555
H3 O3 1_555 1_555
Cu3 N2 1_555 1_555
N2 C5 1_555 1_555
C5 C6 1_555 1_555
C1U N1 1_555 1_555
H1U C1U 1_555 1_555
C2U C3 1_555 1_555
C4U C2U 1_555 1_555
O1U C4U 1_555 1_555
O2U C4U 1_555 1_555
H3W O3 1_555 1_555
Cu2B O1U 1_555 1_555
O3B Cu2B 1_555 1_555
H3B O3B 1_555 1_555
H3U O3B 1_555 1_555
N1D Cu1 1_555 1_555
C1D N1D 1_555 1_555
H1D C1D 1_555 1_555
C2D C1D 1_555 1_555
C3D C2D 1_555 1_555
C4D C2D 1_555 1_555
H2D C3D 1_555 1_555
O1D C4D 1_555 1_555
O2D C4D 1_555 1_555
C1Q N1D 1_555 1_555
H1Q C1Q 1_555 1_555
C2Q C3D 1_555 1_555
C4Q C2Q 1_555 1_555
O1Q C4Q 1_555 1_555
O2Q C4Q 1_555 1_555
I1A Cu1 1_555 1_555
Cu1A I1 1_555 1_555
O1B Cu2B 1_555 1_555
O1W Cu2 1_555 1_555
O2M Cu2B 1_555 1_555
O2O Cu2 1_555 1_555
O2X Cu2 1_555 1_555
O2Z Cu2B 1_555 1_555
Cu2D O1D 1_555 1_555
Cu2F O1Q 1_555 1_555
Cu2I O2Q 1_555 1_555
Cu2K O2D 1_555 1_555
Cu2M O2U 1_555 1_555
Cu2O O2 1_555 1_555
N2A Cu3 1_555 1_555
C5A N2A 1_555 1_555
C6A C5A 1_555 1_555
N2N Cu3 1_555 1_555
C5N N2N 1_555 1_555
C6N C5N 1_555 1_555
N2O Cu3 1_555 1_555
C5O N2O 1_555 1_555
C6O C5O 1_555 1_555
C1U C2U 1_555 1_555
C1Q C2Q 1_555 1_555
I1A Cu1A 1_555 1_555

#END
