
#######################################################################
#
#                 Cambridge Crystallographic Data Centre
#                                CCDC 
#
#######################################################################
#
# If this CIF has been generated from an entry in the Cambridge 
# Structural Database, then it will include bibliographic, chemical, 
# crystal, experimental, refinement or atomic coordinate data resulting 
# from the CCDC's data processing and validation procedures.
#
#######################################################################

data_LUVWUU
_chemical_formula_moiety         '(C93 H96 Ag6 F12 N36 O7 Sb2 4+)n'
_symmetry_cell_setting           rhombohedral
_symmetry_space_group_name_H-M   'R -3'
_symmetry_Int_Tables_number      148
_space_group_name_Hall           '-R 3'
loop_
_symmetry_equiv_pos_site_id
_symmetry_equiv_pos_as_xyz
1 x,y,z
2 -y,x-y,z
3 -x+y,-x,z
4 2/3+x,1/3+y,1/3+z
5 2/3-y,1/3+x-y,1/3+z
6 2/3-x+y,1/3-x,1/3+z
7 1/3+x,2/3+y,2/3+z
8 2/3+y,1/3-x+y,1/3-z
9 2/3+x-y,1/3+x,1/3-z
10 -x,-y,-z
11 y,-x+y,-z
12 x-y,x,-z
13 1/3-x,2/3-y,2/3-z
14 1/3+y,2/3-x+y,2/3-z
15 1/3+x-y,2/3+x,2/3-z
16 2/3-x,1/3-y,1/3-z
17 1/3-y,2/3+x-y,2/3+z
18 1/3-x+y,2/3-x,2/3+z
_cell_length_a                   31.3014(18)
_cell_length_b                   31.3014(18)
_cell_length_c                   12.7921(11)
_cell_angle_alpha                90
_cell_angle_beta                 90
_cell_angle_gamma                120.00
_cell_volume                     10854.3
loop_
_atom_site_label
_atom_site_type_symbol
_atom_site_fract_x
_atom_site_fract_y
_atom_site_fract_z
_atom_site_U_iso_or_equiv
_atom_site_thermal_displace_type
Ag1 Ag 0.132685(19) 0.538318(17) 0.14092(4) 0.0624 Uani
C1 C 0.12263(17) 0.62202(15) 0.3043(4) 0.0355 Uani
C2 C 0.0705(3) 0.5562(2) 0.4366(5) 0.0621 Uani
H1 H 0.0664 0.5762 0.4870 0.0740 Uiso
C3 C 0.0534(3) 0.5067(2) 0.4442(6) 0.0753 Uani
H2 H 0.0355 0.4855 0.5006 0.0900 Uiso
C4 C 0.0677(2) 0.49418(19) 0.3517(5) 0.0564 Uani
H3 H 0.0603 0.4617 0.3343 0.0680 Uiso
C5 C 0.1025(2) 0.61448(19) 0.0333(4) 0.0492 Uani
H4 H 0.1066 0.6061 -0.0359 0.0590 Uiso
C6 C 0.0729(2) 0.63491(19) 0.0604(5) 0.0496 Uani
H5 H 0.0537 0.6425 0.0147 0.0590 Uiso
C7 C 0.07757(18) 0.64144(18) 0.1650(4) 0.0422 Uani
H6 H 0.0620 0.6546 0.2076 0.0510 Uiso
C8 C 0.2522(2) 0.6797(2) 0.2814(6) 0.0610 Uani
H7 H 0.2835 0.7047 0.2569 0.0730 Uiso
C9 C 0.2452(2) 0.6412(2) 0.3486(6) 0.0646 Uani
H8 H 0.2698 0.6357 0.3786 0.0770 Uiso
C10 C 0.1954(2) 0.6137(2) 0.3615(5) 0.0504 Uani
H9 H 0.1784 0.5847 0.4026 0.0610 Uiso
C11 C 0.11331(19) 0.65514(17) 0.3780(4) 0.0397 Uani
H10 H 0.0774 0.6420 0.3848 0.0480 Uiso
H11 H 0.1266 0.6551 0.4482 0.0480 Uiso
C12 C 0.1274(2) 0.73387(17) 0.4130(4) 0.0436 Uani
H12 H 0.1434 0.7351 0.4807 0.0520 Uiso
H13 H 0.0916 0.7193 0.4252 0.0520 Uiso
C13 C 0.14847(17) 0.78519(17) 0.3693(4) 0.0371 Uani
C14 C 0.17161(19) 0.82479(17) 0.4390(4) 0.0388 Uani
H14 H 0.1747 0.8191 0.5108 0.0460 Uiso
C15 C 0.14312(18) 0.79354(17) 0.2656(4) 0.0385 Uani
H15 H 0.1267 0.7664 0.2192 0.0460 Uiso
N1 N 0.12392(17) 0.60852(15) 0.1166(4) 0.0469 Uani
N2 N 0.10867(14) 0.62561(13) 0.1980(3) 0.0354 Uani
N3 N 0.09410(15) 0.57132(14) 0.3447(3) 0.0394 Uani
N4 N 0.09276(17) 0.53293(14) 0.2912(4) 0.0448 Uani
N5 N 0.20955(16) 0.67649(16) 0.2563(4) 0.0482 Uani
N6 N 0.17465(15) 0.63518(14) 0.3053(3) 0.0406 Uani
O2 O 0.13600(13) 0.70367(11) 0.3395(3) 0.0393 Uani
C15L C 0.19021(18) 0.87313(17) 0.4011(4) 0.0385 Uani
C13L C 0.18486(17) 0.88148(17) 0.2974(4) 0.0371 Uani
C12L C 0.2059(2) 0.93280(17) 0.2537(4) 0.0436 Uani
H12L H 0.1899 0.9316 0.1860 0.0520 Uiso
H13L H 0.2417 0.9474 0.2415 0.0520 Uiso
O2L O 0.19733(13) 0.96300(11) 0.3272(3) 0.0393 Uani
C11L C 0.22002(19) 1.01153(17) 0.2887(4) 0.0397 Uani
C1L C 0.21070(17) 1.04465(15) 0.3624(4) 0.0355 Uani
N2L N 0.22466(14) 1.04106(13) 0.4687(3) 0.0354 Uani
C7L C 0.25576(18) 1.02523(18) 0.5017(4) 0.0422 Uani
C6L C 0.2604(2) 1.03176(19) 0.6063(5) 0.0496 Uani
C5L C 0.2308(2) 1.05219(19) 0.6334(4) 0.0492 Uani
H4L H 0.2267 1.0606 0.7026 0.0590 Uiso
N1L N 0.20941(17) 1.05815(15) 0.5501(4) 0.0469 Uani
H5L H 0.2796 1.0242 0.6520 0.0590 Uiso
H6L H 0.2713 1.0121 0.4591 0.0510 Uiso
N3L N 0.23923(15) 1.09535(14) 0.3220(3) 0.0394 Uani
C2L C 0.2628(3) 1.1105(2) 0.2301(5) 0.0621 Uani
H1L H 0.2669 1.0905 0.1797 0.0740 Uiso
C3L C 0.2799(3) 1.1600(2) 0.2225(6) 0.0753 Uani
H2L H 0.2978 1.1812 0.1661 0.0900 Uiso
C4L C 0.2656(2) 1.17249(19) 0.3150(5) 0.0564 Uani
H3L H 0.2730 1.2050 0.3324 0.0680 Uiso
N4L N 0.24057(17) 1.13374(14) 0.3755(4) 0.0448 Uani
N6L N 0.15868(15) 1.03149(14) 0.3614(3) 0.0406 Uani
C10L C 0.1379(2) 1.0530(2) 0.3052(5) 0.0504 Uani
C9L C 0.0881(2) 1.0255(2) 0.3181(6) 0.0646 Uani
C8L C 0.0811(2) 0.9870(2) 0.3853(6) 0.0610 Uani
H7L H 0.0498 0.9620 0.4098 0.0730 Uiso
N5L N 0.12378(16) 0.99018(16) 0.4104(4) 0.0482 Uani
H8L H 0.0635 1.0310 0.2881 0.0770 Uiso
H9L H 0.1549 1.0820 0.2641 0.0610 Uiso
H10L H 0.2559 1.0247 0.2819 0.0480 Uiso
H11L H 0.2067 1.0116 0.2185 0.0480 Uiso
C14L C 0.16172(19) 0.84188(17) 0.2277(4) 0.0388 Uani
H14L H 0.1586 0.8476 0.1559 0.0460 Uiso
H15L H 0.2066 0.9003 0.4475 0.0460 Uiso
C1H C 0.16728(23) 0.45596(17) 0.0290(4) 0.0355 Uani
C2H C 0.1810(4) 0.4038(3) -0.1033(5) 0.0621 Uani
H1H H 0.1569 0.3997 -0.1537 0.0740 Uiso
C3H C 0.2134(4) 0.3867(3) -0.1109(6) 0.0753 Uani
H2H H 0.2167 0.3688 -0.1673 0.0900 Uiso
C4H C 0.24019(28) 0.4010(2) -0.0184(5) 0.0564 Uani
H3H H 0.2653 0.3936 -0.0010 0.0680 Uiso
C5H C 0.15469(28) 0.4358(2) 0.3000(4) 0.0492 Uani
H4H H 0.1672 0.4399 0.3692 0.0590 Uiso
C6H C 0.10466(28) 0.4062(2) 0.2729(5) 0.0496 Uani
H5H H 0.0779 0.3870 0.3186 0.0590 Uiso
C7H C 0.10280(25) 0.41090(18) 0.1683(4) 0.0422 Uani
H6H H 0.0741 0.3953 0.1257 0.0510 Uiso
C8H C 0.2392(3) 0.5855(2) 0.0519(6) 0.0610 Uani
H7H H 0.2455 0.6168 0.0764 0.0730 Uiso
C9H C 0.2707(3) 0.5785(2) -0.0153(6) 0.0646 Uani
H8H H 0.3008 0.6031 -0.0453 0.0770 Uiso
C10H C 0.2484(3) 0.5287(2) -0.0282(5) 0.0504 Uani
H9H H 0.2604 0.5117 -0.0693 0.0610 Uiso
C11H C 0.12484(25) 0.44664(19) -0.0447(4) 0.0397 Uani
H10H H 0.1021 0.4107 -0.0515 0.0480 Uiso
H11H H 0.1382 0.4599 -0.1149 0.0480 Uiso
C12H C 0.06020(26) 0.4607(2) -0.0797(4) 0.0436 Uani
H12H H 0.0750 0.4767 -0.1474 0.0520 Uiso
H13H H 0.0390 0.4249 -0.0919 0.0520 Uiso
C13H C 0.02995(24) 0.48180(17) -0.0360(4) 0.0371 Uani
C14H C 0.01349(25) 0.50494(19) -0.1057(4) 0.0388 Uani
H14H H 0.0223 0.5080 -0.1775 0.0460 Uiso
C15H C 0.01625(25) 0.47645(18) 0.0677(4) 0.0385 Uani
H15H H 0.0270 0.4600 0.1141 0.0460 Uiso
N1H N 0.18207(23) 0.45725(17) 0.2167(4) 0.0469 Uani
N2H N 0.14973(19) 0.44200(14) 0.1353(3) 0.0354 Uani
N3H N 0.18945(21) 0.42743(15) -0.0114(3) 0.0394 Uani
N4H N 0.22650(22) 0.42609(17) 0.0421(4) 0.0448 Uani
N5H N 0.19973(23) 0.54288(16) 0.0770(4) 0.0482 Uani
N6H N 0.20614(21) 0.50798(15) 0.0280(3) 0.0406 Uani
O2H O 0.09900(17) 0.46933(13) -0.0062(3) 0.0393 Uani
C15Q C -0.01625(25) 0.52355(18) -0.0677(4) 0.0385 Uani
C13Q C -0.02995(24) 0.51820(17) 0.0360(4) 0.0371 Uani
C12Q C -0.06020(26) 0.5393(2) 0.0797(4) 0.0436 Uani
H12Q H -0.0750 0.5233 0.1474 0.0520 Uiso
H13Q H -0.0390 0.5751 0.0919 0.0520 Uiso
O2Q O -0.09900(17) 0.53067(13) 0.0062(3) 0.0393 Uani
C11Q C -0.12484(25) 0.55336(19) 0.0447(4) 0.0397 Uani
C1Q C -0.16728(23) 0.54404(17) -0.0290(4) 0.0355 Uani
N2Q N -0.14973(19) 0.55800(14) -0.1353(3) 0.0354 Uani
C7Q C -0.10280(25) 0.58910(18) -0.1683(4) 0.0422 Uani
C6Q C -0.10466(28) 0.5938(2) -0.2729(5) 0.0496 Uani
C5Q C -0.15469(28) 0.5642(2) -0.3000(4) 0.0492 Uani
H4Q H -0.1672 0.5601 -0.3692 0.0590 Uiso
N1Q N -0.18207(23) 0.54275(17) -0.2167(4) 0.0469 Uani
H5Q H -0.0779 0.6130 -0.3186 0.0590 Uiso
H6Q H -0.0741 0.6047 -0.1257 0.0510 Uiso
N3Q N -0.18945(21) 0.57257(15) 0.0114(3) 0.0394 Uani
C2Q C -0.1810(4) 0.5962(3) 0.1033(5) 0.0621 Uani
H1Q H -0.1569 0.6003 0.1537 0.0740 Uiso
C3Q C -0.2134(4) 0.6133(3) 0.1109(6) 0.0753 Uani
H2Q H -0.2167 0.6312 0.1673 0.0900 Uiso
C4Q C -0.24019(28) 0.5990(2) 0.0184(5) 0.0564 Uani
H3Q H -0.2653 0.6064 0.0010 0.0680 Uiso
N4Q N -0.22650(22) 0.57391(17) -0.0421(4) 0.0448 Uani
N6Q N -0.20614(21) 0.49202(15) -0.0280(3) 0.0406 Uani
C10Q C -0.2484(3) 0.4713(2) 0.0282(5) 0.0504 Uani
C9Q C -0.2707(3) 0.4215(2) 0.0153(6) 0.0646 Uani
C8Q C -0.2392(3) 0.4145(2) -0.0519(6) 0.0610 Uani
H7Q H -0.2455 0.3832 -0.0764 0.0730 Uiso
N5Q N -0.19973(23) 0.45712(16) -0.0770(4) 0.0482 Uani
H8Q H -0.3008 0.3969 0.0453 0.0770 Uiso
H9Q H -0.2604 0.4883 0.0693 0.0610 Uiso
H10Q H -0.1021 0.5893 0.0515 0.0480 Uiso
H11Q H -0.1382 0.5401 0.1149 0.0480 Uiso
C14Q C -0.01349(25) 0.49506(19) 0.1057(4) 0.0388 Uani
H14Q H -0.0223 0.4920 0.1775 0.0460 Uiso
H15Q H -0.0270 0.5400 -0.1141 0.0460 Uiso
Ag1L Ag 0.200648(19) 1.128349(17) 0.52575(4) 0.0624 Uani
Ag1H Ag 0.261034(25) 0.466018(19) 0.19241(4) 0.0624 Uani
Ag1Q Ag -0.261034(25) 0.533982(19) -0.19241(4) 0.0624 Uani
Ag1G Ag 0.204985(17) 0.738966(25) 0.19241(4) 0.0624 Uani
Ag1D Ag 0.128349(17) 0.927700(25) 0.47425(4) 0.0624 Uani
C1E C 0.16606(23) 1.21070(17) 0.6376(4) 0.0355 Uani
C2E C 0.1524(4) 1.2628(3) 0.7699(5) 0.0621 Uani
H1E H 0.1765 1.2669 0.8203 0.0740 Uiso
C3E C 0.1200(4) 1.2799(3) 0.7775(6) 0.0753 Uani
H2E H 0.1167 1.2978 0.8339 0.0900 Uiso
C4E C 0.09315(28) 1.2656(2) 0.6850(5) 0.0564 Uani
H3E H 0.0681 1.2730 0.6676 0.0680 Uiso
C5E C 0.17865(28) 1.2308(2) 0.3666(4) 0.0492 Uani
H4E H 0.1662 1.2267 0.2974 0.0590 Uiso
C6E C 0.22868(28) 1.2604(2) 0.3937(5) 0.0496 Uani
H5E H 0.2555 1.2796 0.3480 0.0590 Uiso
C7E C 0.23054(25) 1.25576(18) 0.4983(4) 0.0422 Uani
H6E H 0.2593 1.2713 0.5409 0.0510 Uiso
C8E C 0.0942(3) 1.0811(2) 0.6147(6) 0.0610 Uani
H7E H 0.0879 1.0498 0.5902 0.0730 Uiso
C9E C 0.0627(3) 1.0881(2) 0.6819(6) 0.0646 Uani
H8E H 0.0326 1.0635 0.7119 0.0770 Uiso
C10E C 0.0850(3) 1.1379(2) 0.6948(5) 0.0504 Uani
H9E H 0.0730 1.1549 0.7359 0.0610 Uiso
C11E C 0.20850(25) 1.22002(19) 0.7113(4) 0.0397 Uani
H10E H 0.2313 1.2559 0.7181 0.0480 Uiso
H11E H 0.1952 1.2067 0.7815 0.0480 Uiso
C12E C 0.27314(26) 1.2059(2) 0.7463(4) 0.0436 Uani
H12E H 0.2584 1.1899 0.8140 0.0520 Uiso
H13E H 0.2944 1.2417 0.7585 0.0520 Uiso
C13E C 0.30339(24) 1.18486(17) 0.7026(4) 0.0371 Uani
C14E C 0.31985(25) 1.16172(19) 0.7723(4) 0.0388 Uani
H14E H 0.3111 1.1586 0.8441 0.0460 Uiso
C15E C 0.31709(25) 1.19021(18) 0.5989(4) 0.0385 Uani
H15E H 0.3064 1.2066 0.5525 0.0460 Uiso
N1E N 0.15127(23) 1.20941(17) 0.4499(4) 0.0469 Uani
N2E N 0.18361(19) 1.22466(14) 0.5313(3) 0.0354 Uani
N3E N 0.14389(21) 1.23923(15) 0.6780(3) 0.0394 Uani
N4E N 0.10684(22) 1.24057(17) 0.6245(4) 0.0448 Uani
N5E N 0.13361(23) 1.12378(16) 0.5896(4) 0.0482 Uani
N6E N 0.12720(21) 1.15868(15) 0.6386(3) 0.0406 Uani
O2E O 0.23434(17) 1.19733(13) 0.6728(3) 0.0393 Uani
C15K C 0.34958(25) 1.14312(18) 0.7344(4) 0.0385 Uani
C13K C 0.36328(24) 1.14847(17) 0.6307(4) 0.0371 Uani
C12K C 0.39353(26) 1.1274(2) 0.5870(4) 0.0436 Uani
H12K H 0.4083 1.1434 0.5193 0.0520 Uiso
H13K H 0.3723 1.0916 0.5748 0.0520 Uiso
O2K O 0.43233(17) 1.13600(13) 0.6605(3) 0.0393 Uani
C11K C 0.45817(25) 1.11331(19) 0.6220(4) 0.0397 Uani
C1K C 0.50061(23) 1.12263(17) 0.6957(4) 0.0355 Uani
N2K N 0.48306(19) 1.10867(14) 0.8020(3) 0.0354 Uani
C7K C 0.43613(25) 1.07757(18) 0.8350(4) 0.0422 Uani
C6K C 0.43799(28) 1.0729(2) 0.9396(5) 0.0496 Uani
C5K C 0.48802(28) 1.1025(2) 0.9667(4) 0.0492 Uani
H4K H 0.5005 1.1066 1.0359 0.0590 Uiso
N1K N 0.51540(23) 1.12392(17) 0.8834(4) 0.0469 Uani
H5K H 0.4112 1.0537 0.9853 0.0590 Uiso
H6K H 0.4074 1.0620 0.7924 0.0510 Uiso
N3K N 0.52278(21) 1.09410(15) 0.6553(3) 0.0394 Uani
C2K C 0.5143(4) 1.0705(3) 0.5634(5) 0.0621 Uani
H1K H 0.4902 1.0664 0.5130 0.0740 Uiso
C3K C 0.5467(4) 1.0534(3) 0.5558(6) 0.0753 Uani
H2K H 0.5500 1.0355 0.4994 0.0900 Uiso
C4K C 0.57352(28) 1.0677(2) 0.6483(5) 0.0564 Uani
H3K H 0.5986 1.0603 0.6657 0.0680 Uiso
N4K N 0.55983(22) 1.09276(17) 0.7088(4) 0.0448 Uani
N6K N 0.53947(21) 1.17465(15) 0.6947(3) 0.0406 Uani
C10K C 0.5817(3) 1.1954(2) 0.6385(5) 0.0504 Uani
C9K C 0.6040(3) 1.2452(2) 0.6514(6) 0.0646 Uani
C8K C 0.5725(3) 1.2522(2) 0.7186(6) 0.0610 Uani
H7K H 0.5788 1.2835 0.7431 0.0730 Uiso
N5K N 0.53306(23) 1.20955(16) 0.7437(4) 0.0482 Uani
H8K H 0.6341 1.2698 0.6214 0.0770 Uiso
H9K H 0.5937 1.1784 0.5974 0.0610 Uiso
H10K H 0.4354 1.0774 0.6152 0.0480 Uiso
H11K H 0.4715 1.1266 0.5518 0.0480 Uiso
C14K C 0.34682(25) 1.17161(19) 0.5610(4) 0.0388 Uani
H14K H 0.3556 1.1747 0.4892 0.0460 Uiso
H15K H 0.3603 1.1267 0.7808 0.0460 Uiso
Ag1I Ag -0.132685(19) 0.461682(17) -0.14092(4) 0.0624 Uani
N5A N 0.32351(16) 0.53306(23) 0.2563(4) 0.0482 Uani
O2A O 0.29633(11) 0.43233(17) 0.3395(3) 0.0393 Uani
N5J N -0.32351(16) 0.46694(23) -0.2563(4) 0.0482 Uani
O2J O -0.29633(11) 0.56767(17) -0.3395(3) 0.0393 Uani
N1G N 0.27519(15) 0.81793(23) 0.2167(4) 0.0469 Uani
N4G N 0.19960(14) 0.77350(22) 0.0421(4) 0.0448 Uani
N1D N 0.05815(15) 0.84873(23) 0.4499(4) 0.0469 Uani
N4D N 0.13374(14) 0.89316(22) 0.6245(4) 0.0448 Uani
Ag1E Ag 0.072300(25) 1.200648(19) 0.47425(4) 0.0624 Uani
Ag1F Ag 0.466018(19) 1.204985(17) 0.80759(4) 0.0624 Uani
Ag1K Ag 0.594367(25) 1.132685(19) 0.85908(4) 0.0624 Uani
O1 O 0.0980(3) 0.1807(3) 0.0194(6) 0.1282 Uani
C16 C 0.0930(5) 0.1652(4) 0.1154(14) 0.1657 Uani
C17 C 0.0632(8) 0.1753(7) 0.1765(15) 0.2217 Uani
H16 H 0.0821 0.2091 0.2030 0.3300 Uiso
H17 H 0.0508 0.1522 0.2354 0.3300 Uiso
H18 H 0.0353 0.1717 0.1348 0.3300 Uiso
C18 C 0.1113(5) 0.1375(4) 0.1630(10) 0.1206 Uani
H19 H 0.1029 0.1337 0.2376 0.1810 Uiso
H20 H 0.1472 0.1544 0.1548 0.1810 Uiso
H21 H 0.0965 0.1049 0.1302 0.1810 Uiso
Sb2 Sb 0.06240(9) 0.67096(9) 0.71915(18) 0.0415 Uani
F1 F 0.0610(4) 0.7084(3) 0.8308(7) 0.1641 Uani
F2 F 0.0067(3) 0.6170(3) 0.7732(6) 0.1320 Uani
F3 F 0.0663(4) 0.6352(4) 0.6091(6) 0.1621 Uani
F4 F 0.1120(4) 0.7290(4) 0.6691(7) 0.2447 Uani
F5 F 0.1010(4) 0.6582(5) 0.8037(7) 0.1842 Uani
F6 F 0.0184(4) 0.6863(3) 0.6570(7) 0.1582 Uani
Sb3 Sb 0.0000 0.0000 0.0000 0.0501 Uani
F7 F -0.0097(10) 0.0514(7) 0.0361(14) 0.2114 Uani
F7A F -0.0514(7) -0.0611(12) 0.0361(14) 0.2114 Uani
F7B F 0.0611(12) 0.0097(10) 0.0361(14) 0.2114 Uani
F7I F 0.0097(10) -0.0514(7) -0.0361(14) 0.2114 Uani
F7J F 0.0514(7) 0.0611(12) -0.0361(14) 0.2114 Uani
F7K F -0.0611(12) -0.0097(10) -0.0361(14) 0.2114 Uani
loop_
_atom_site_aniso_label
_atom_site_aniso_U_11
_atom_site_aniso_U_22
_atom_site_aniso_U_33
_atom_site_aniso_U_23
_atom_site_aniso_U_13
_atom_site_aniso_U_12
Ag1 0.0676(3) 0.0464(3) 0.0833(4) -0.0074(2) 0.0180(2) 0.0360(2)
C1 0.037(2) 0.0231(19) 0.047(3) 0.0012(18) 0.0039(19) 0.0155(18)
C2 0.079(4) 0.045(3) 0.069(4) 0.019(3) 0.036(3) 0.036(3)
C3 0.095(5) 0.043(3) 0.094(5) 0.025(3) 0.047(4) 0.039(3)
C4 0.056(3) 0.030(2) 0.084(4) 0.008(3) 0.016(3) 0.022(2)
C5 0.060(3) 0.037(3) 0.045(3) 0.000(2) 0.008(2) 0.020(2)
C6 0.044(3) 0.038(3) 0.058(3) 0.001(2) -0.006(2) 0.014(2)
C7 0.036(2) 0.036(2) 0.052(3) 0.000(2) 0.001(2) 0.016(2)
C8 0.037(3) 0.058(3) 0.083(4) -0.005(3) 0.000(3) 0.020(3)
C9 0.052(3) 0.062(4) 0.083(5) 0.005(3) -0.010(3) 0.031(3)
C10 0.047(3) 0.051(3) 0.058(3) 0.006(3) -0.005(2) 0.028(3)
C11 0.048(3) 0.029(2) 0.043(3) 0.0004(19) 0.008(2) 0.020(2)
C12 0.057(3) 0.031(2) 0.044(3) -0.002(2) 0.009(2) 0.023(2)
C13 0.038(2) 0.029(2) 0.047(3) -0.0015(19) 0.006(2) 0.0187(19)
C14 0.048(3) 0.036(2) 0.039(3) -0.0051(19) -0.003(2) 0.026(2)
C15 0.043(2) 0.028(2) 0.044(3) -0.0094(19) 0.000(2) 0.0173(19)
N1 0.055(3) 0.034(2) 0.054(3) -0.0017(18) 0.012(2) 0.024(2)
N2 0.0363(19) 0.0275(17) 0.042(2) -0.0022(15) 0.0040(16) 0.0157(15)
N3 0.042(2) 0.0258(18) 0.051(2) 0.0030(16) 0.0058(18) 0.0173(16)
N4 0.051(2) 0.030(2) 0.055(3) 0.0002(18) 0.004(2) 0.0215(18)
N5 0.036(2) 0.036(2) 0.066(3) 0.002(2) 0.005(2) 0.0131(18)
N6 0.038(2) 0.0291(18) 0.053(2) 0.0057(17) 0.0060(18) 0.0156(16)
O2 0.0479(19) 0.0266(15) 0.0446(18) -0.0006(13) 0.0059(15) 0.0195(14)
C15L 0.043 0.028 0.044 -0.0094 0 0.0173
C13L 0.038 0.029 0.047 -0.0015 0.006 0.0187
C12L 0.057 0.031 0.044 -0.002 0.009 0.023
O2L 0.0479 0.0266 0.0446 -0.0006 0.0059 0.0195
C11L 0.048 0.029 0.043 0.0004 0.008 0.02
C1L 0.037 0.0231 0.047 0.0012 0.0039 0.0155
N2L 0.0363 0.0275 0.042 -0.0022 0.004 0.0157
C7L 0.036 0.036 0.052 0 0.001 0.016
C6L 0.044 0.038 0.058 0.001 -0.006 0.014
C5L 0.06 0.037 0.045 0 0.008 0.02
N1L 0.055 0.034 0.054 -0.0017 0.012 0.024
N3L 0.042 0.0258 0.051 0.003 0.0058 0.0173
C2L 0.079 0.045 0.069 0.019 0.036 0.036
C3L 0.095 0.043 0.094 0.025 0.047 0.039
C4L 0.056 0.03 0.084 0.008 0.016 0.022
N4L 0.051 0.03 0.055 0.0002 0.004 0.0215
N6L 0.038 0.0291 0.053 0.0057 0.006 0.0156
C10L 0.047 0.051 0.058 0.006 -0.005 0.028
C9L 0.052 0.062 0.083 0.005 -0.01 0.031
C8L 0.037 0.058 0.083 -0.005 0 0.02
N5L 0.036 0.036 0.066 0.002 0.005 0.0131
C14L 0.048 0.036 0.039 -0.0051 -0.003 0.026
C1H 0.0291 0.037 0.047 -0.0039 -0.0027 0.0215
C2H 0.052 0.079 0.069 -0.036 -0.017 0.043
C3H 0.06 0.095 0.094 -0.047 -0.022 0.056
C4H 0.042 0.056 0.084 -0.016 -0.008 0.034
C5H 0.057 0.06 0.045 -0.008 -0.008 0.04
C6H 0.054 0.044 0.058 0.006 0.007 0.03
C7H 0.04 0.036 0.052 -0.001 -0.001 0.02
C8H 0.055 0.037 0.083 0 -0.005 0.017
C9H 0.052 0.052 0.083 0.01 0.015 0.021
C10H 0.042 0.047 0.058 0.005 0.011 0.019
C11H 0.037 0.048 0.043 -0.008 -0.0076 0.028
C12H 0.042 0.057 0.044 -0.009 -0.011 0.034
C13H 0.0296 0.038 0.047 -0.006 -0.0075 0.0193
C14H 0.032 0.048 0.039 0.003 -0.0021 0.022
C15H 0.0364 0.043 0.044 0 -0.0094 0.0257
N1H 0.041 0.055 0.054 -0.012 -0.0137 0.031
N2H 0.0324 0.0363 0.042 -0.004 -0.0062 0.0206
N3H 0.0332 0.042 0.051 -0.0058 -0.0028 0.0247
N4H 0.038 0.051 0.055 -0.004 -0.0038 0.0295
N5H 0.0458 0.036 0.066 -0.005 -0.003 0.0229
N6H 0.0359 0.038 0.053 -0.006 -0.0003 0.0224
O2H 0.0355 0.0479 0.0446 -0.0059 -0.0065 0.0284
C15Q 0.0364 0.043 0.044 0 -0.0094 0.0257
C13Q 0.0296 0.038 0.047 -0.006 -0.0075 0.0193
C12Q 0.042 0.057 0.044 -0.009 -0.011 0.034
O2Q 0.0355 0.0479 0.0446 -0.0059 -0.0065 0.0284
C11Q 0.037 0.048 0.043 -0.008 -0.0076 0.028
C1Q 0.0291 0.037 0.047 -0.0039 -0.0027 0.0215
N2Q 0.0324 0.0363 0.042 -0.004 -0.0062 0.0206
C7Q 0.04 0.036 0.052 -0.001 -0.001 0.02
C6Q 0.054 0.044 0.058 0.006 0.007 0.03
C5Q 0.057 0.06 0.045 -0.008 -0.008 0.04
N1Q 0.041 0.055 0.054 -0.012 -0.0137 0.031
N3Q 0.0332 0.042 0.051 -0.0058 -0.0028 0.0247
C2Q 0.052 0.079 0.069 -0.036 -0.017 0.043
C3Q 0.06 0.095 0.094 -0.047 -0.022 0.056
C4Q 0.042 0.056 0.084 -0.016 -0.008 0.034
N4Q 0.038 0.051 0.055 -0.004 -0.0038 0.0295
N6Q 0.0359 0.038 0.053 -0.006 -0.0003 0.0224
C10Q 0.042 0.047 0.058 0.005 0.011 0.019
C9Q 0.052 0.052 0.083 0.01 0.015 0.021
C8Q 0.055 0.037 0.083 0 -0.005 0.017
N5Q 0.0458 0.036 0.066 -0.005 -0.003 0.0229
C14Q 0.032 0.048 0.039 0.003 -0.0021 0.022
Ag1L 0.0676 0.0464 0.0833 -0.0074 0.018 0.036
Ag1H 0.042 0.0676 0.0833 -0.018 -0.0254 0.0316
Ag1Q 0.042 0.0676 0.0833 -0.018 -0.0254 0.0316
Ag1G 0.0464 0.042 0.0833 0.0254 0.0074 0.0104
Ag1D 0.0464 0.042 0.0833 0.0254 0.0074 0.0104
C1E 0.0291 0.037 0.047 -0.0039 -0.0027 0.0215
C2E 0.052 0.079 0.069 -0.036 -0.017 0.043
C3E 0.06 0.095 0.094 -0.047 -0.022 0.056
C4E 0.042 0.056 0.084 -0.016 -0.008 0.034
C5E 0.057 0.06 0.045 -0.008 -0.008 0.04
C6E 0.054 0.044 0.058 0.006 0.007 0.03
C7E 0.04 0.036 0.052 -0.001 -0.001 0.02
C8E 0.055 0.037 0.083 0 -0.005 0.017
C9E 0.052 0.052 0.083 0.01 0.015 0.021
C10E 0.042 0.047 0.058 0.005 0.011 0.019
C11E 0.037 0.048 0.043 -0.008 -0.0076 0.028
C12E 0.042 0.057 0.044 -0.009 -0.011 0.034
C13E 0.0296 0.038 0.047 -0.006 -0.0075 0.0193
C14E 0.032 0.048 0.039 0.003 -0.0021 0.022
C15E 0.0364 0.043 0.044 0 -0.0094 0.0257
N1E 0.041 0.055 0.054 -0.012 -0.0137 0.031
N2E 0.0324 0.0363 0.042 -0.004 -0.0062 0.0206
N3E 0.0332 0.042 0.051 -0.0058 -0.0028 0.0247
N4E 0.038 0.051 0.055 -0.004 -0.0038 0.0295
N5E 0.0458 0.036 0.066 -0.005 -0.003 0.0229
N6E 0.0359 0.038 0.053 -0.006 -0.0003 0.0224
O2E 0.0355 0.0479 0.0446 -0.0059 -0.0065 0.0284
C15K 0.0364 0.043 0.044 0 -0.0094 0.0257
C13K 0.0296 0.038 0.047 -0.006 -0.0075 0.0193
C12K 0.042 0.057 0.044 -0.009 -0.011 0.034
O2K 0.0355 0.0479 0.0446 -0.0059 -0.0065 0.0284
C11K 0.037 0.048 0.043 -0.008 -0.0076 0.028
C1K 0.0291 0.037 0.047 -0.0039 -0.0027 0.0215
N2K 0.0324 0.0363 0.042 -0.004 -0.0062 0.0206
C7K 0.04 0.036 0.052 -0.001 -0.001 0.02
C6K 0.054 0.044 0.058 0.006 0.007 0.03
C5K 0.057 0.06 0.045 -0.008 -0.008 0.04
N1K 0.041 0.055 0.054 -0.012 -0.0137 0.031
N3K 0.0332 0.042 0.051 -0.0058 -0.0028 0.0247
C2K 0.052 0.079 0.069 -0.036 -0.017 0.043
C3K 0.06 0.095 0.094 -0.047 -0.022 0.056
C4K 0.042 0.056 0.084 -0.016 -0.008 0.034
N4K 0.038 0.051 0.055 -0.004 -0.0038 0.0295
N6K 0.0359 0.038 0.053 -0.006 -0.0003 0.0224
C10K 0.042 0.047 0.058 0.005 0.011 0.019
C9K 0.052 0.052 0.083 0.01 0.015 0.021
C8K 0.055 0.037 0.083 0 -0.005 0.017
N5K 0.0458 0.036 0.066 -0.005 -0.003 0.0229
C14K 0.032 0.048 0.039 0.003 -0.0021 0.022
Ag1I 0.0676 0.0464 0.0833 -0.0074 0.018 0.036
N5A 0.036 0.0458 0.066 0.003 -0.002 0.0229
O2A 0.0266 0.0355 0.0446 0.0065 0.0006 0.0071
N5J 0.036 0.0458 0.066 0.003 -0.002 0.0229
O2J 0.0266 0.0355 0.0446 0.0065 0.0006 0.0071
N1G 0.034 0.041 0.054 0.0137 0.0017 0.01
N4G 0.03 0.038 0.055 0.0038 -0.0002 0.0085
N1D 0.034 0.041 0.054 0.0137 0.0017 0.01
N4D 0.03 0.038 0.055 0.0038 -0.0002 0.0085
Ag1E 0.042 0.0676 0.0833 -0.018 -0.0254 0.0316
Ag1F 0.0676 0.0464 0.0833 -0.0074 0.018 0.036
Ag1K 0.042 0.0676 0.0833 -0.018 -0.0254 0.0316
O1 0.117(6) 0.130(6) 0.090(5) -0.017(4) 0.017(4) 0.026(5)
C16 0.169(14) 0.079(7) 0.205(17) 0.040(9) -0.063(12) 0.029(8)
C17 0.36(3) 0.202(16) 0.233(19) 0.096(14) 0.176(19) 0.238(19)
C18 0.123(9) 0.084(7) 0.135(10) -0.004(6) -0.015(7) 0.037(6)
Sb2 0.0365(9) 0.0494(8) 0.0334(8) 0.0180(6) 0.0007(6) 0.0175(7)
F1 0.145(7) 0.141(7) 0.127(6) -0.043(5) 0.006(5) 0.012(6)
F2 0.109(5) 0.107(5) 0.132(6) 0.035(4) 0.022(4) 0.018(4)
F3 0.238(11) 0.199(9) 0.101(5) -0.035(5) 0.021(6) 0.148(9)
F4 0.184(9) 0.215(10) 0.094(5) 0.012(6) 0.019(6) -0.081(8)
F5 0.166(8) 0.304(13) 0.126(7) 0.035(7) -0.044(6) 0.150(9)
F6 0.224(9) 0.135(6) 0.160(7) 0.018(5) -0.052(7) 0.123(7)
Sb3 0.0459(4) 0.0459(4) 0.0585(7) 0.000 0.000 0.0230(2)
F7 0.37(3) 0.169(14) 0.205(16) -0.019(13) -0.019(19) 0.217(17)
F7A 0.169 0.105 0.205 0 0.019 -0.048
F7B 0.105 0.37 0.205 0.019 0 0.153
F7I 0.37 0.169 0.205 -0.019 -0.019 0.217
F7J 0.169 0.105 0.205 0 0.019 -0.048
F7K 0.105 0.37 0.205 0.019 0 0.153
loop_
_geom_bond_atom_site_label_1
_geom_bond_atom_site_label_2
_geom_bond_site_symmetry_1
_geom_bond_site_symmetry_2
Ag1 N1 1_555 1_555
C1 C11 1_555 1_555
C2 H1 1_555 1_555
C3 C2 1_555 1_555
H2 C3 1_555 1_555
C4 C3 1_555 1_555
H3 C4 1_555 1_555
C5 H4 1_555 1_555
C6 C5 1_555 1_555
H5 C6 1_555 1_555
C7 C6 1_555 1_555
H6 C7 1_555 1_555
C8 H7 1_555 1_555
C9 C8 1_555 1_555
H8 C9 1_555 1_555
C10 C9 1_555 1_555
H9 C10 1_555 1_555
C11 H10 1_555 1_555
H11 C11 1_555 1_555
C12 H12 1_555 1_555
H13 C12 1_555 1_555
C13 C12 1_555 1_555
C14 C13 1_555 1_555
H14 C14 1_555 1_555
C15 C13 1_555 1_555
H15 C15 1_555 1_555
O1 C16 1_555 1_555
C16 C17 1_555 1_555
C17 H16 1_555 1_555
H17 C17 1_555 1_555
H18 C17 1_555 1_555
C18 C16 1_555 1_555
H19 C18 1_555 1_555
H20 C18 1_555 1_555
H21 C18 1_555 1_555
N1 C5 1_555 1_555
N2 C1 1_555 1_555
N3 C1 1_555 1_555
N4 Ag1 1_555 1_555
N5 C8 1_555 1_555
N6 C1 1_555 1_555
O2 C11 1_555 1_555
Sb2 F1 1_555 1_555
F2 Sb2 1_555 1_555
F3 Sb2 1_555 1_555
F4 Sb2 1_555 1_555
F5 Sb2 1_555 1_555
F6 Sb2 1_555 1_555
Sb3 F7 1_555 1_555
C15L C14 1_555 1_555
C13L C15L 1_555 1_555
C12L C13L 1_555 1_555
H12L C12L 1_555 1_555
H13L C12L 1_555 1_555
O2L C12L 1_555 1_555
C11L O2L 1_555 1_555
C1L C11L 1_555 1_555
N2L C1L 1_555 1_555
C7L N2L 1_555 1_555
C6L C7L 1_555 1_555
C5L C6L 1_555 1_555
H4L C5L 1_555 1_555
N1L N2L 1_555 1_555
H5L C6L 1_555 1_555
H6L C7L 1_555 1_555
N3L C1L 1_555 1_555
C2L N3L 1_555 1_555
H1L C2L 1_555 1_555
C3L C2L 1_555 1_555
H2L C3L 1_555 1_555
C4L C3L 1_555 1_555
H3L C4L 1_555 1_555
N4L N3L 1_555 1_555
N6L C1L 1_555 1_555
C10L N6L 1_555 1_555
C9L C10L 1_555 1_555
C8L C9L 1_555 1_555
H7L C8L 1_555 1_555
N5L N6L 1_555 1_555
H8L C9L 1_555 1_555
H9L C10L 1_555 1_555
H10L C11L 1_555 1_555
H11L C11L 1_555 1_555
C14L C15 1_555 1_555
H14L C14L 1_555 1_555
H15L C15L 1_555 1_555
F7A Sb3 1_555 1_555
F7B Sb3 1_555 1_555
F7I Sb3 1_555 1_555
F7J Sb3 1_555 1_555
F7K Sb3 1_555 1_555
C1H C11H 1_555 1_555
C2H H1H 1_555 1_555
C3H C2H 1_555 1_555
H2H C3H 1_555 1_555
C4H C3H 1_555 1_555
H3H C4H 1_555 1_555
C5H H4H 1_555 1_555
C6H C5H 1_555 1_555
H5H C6H 1_555 1_555
C7H C6H 1_555 1_555
H6H C7H 1_555 1_555
C8H H7H 1_555 1_555
C9H C8H 1_555 1_555
H8H C9H 1_555 1_555
C10H C9H 1_555 1_555
H9H C10H 1_555 1_555
C11H H10H 1_555 1_555
H11H C11H 1_555 1_555
C12H H12H 1_555 1_555
H13H C12H 1_555 1_555
C13H C12H 1_555 1_555
C14H C13H 1_555 1_555
H14H C14H 1_555 1_555
C15H C13H 1_555 1_555
H15H C15H 1_555 1_555
N1H C5H 1_555 1_555
N2H C1H 1_555 1_555
N3H C1H 1_555 1_555
N4H C4H 1_555 1_555
N5H Ag1 1_555 1_555
N6H C1H 1_555 1_555
O2H Ag1 1_555 1_555
C15Q C14H 1_555 1_555
C13Q C15Q 1_555 1_555
C12Q C13Q 1_555 1_555
H12Q C12Q 1_555 1_555
H13Q C12Q 1_555 1_555
O2Q C12Q 1_555 1_555
C11Q O2Q 1_555 1_555
C1Q C11Q 1_555 1_555
N2Q C1Q 1_555 1_555
C7Q N2Q 1_555 1_555
C6Q C7Q 1_555 1_555
C5Q C6Q 1_555 1_555
H4Q C5Q 1_555 1_555
N1Q N2Q 1_555 1_555
H5Q C6Q 1_555 1_555
H6Q C7Q 1_555 1_555
N3Q C1Q 1_555 1_555
C2Q N3Q 1_555 1_555
H1Q C2Q 1_555 1_555
C3Q C2Q 1_555 1_555
H2Q C3Q 1_555 1_555
C4Q C3Q 1_555 1_555
H3Q C4Q 1_555 1_555
N4Q N3Q 1_555 1_555
N6Q C1Q 1_555 1_555
C10Q N6Q 1_555 1_555
C9Q C10Q 1_555 1_555
C8Q C9Q 1_555 1_555
H7Q C8Q 1_555 1_555
N5Q N6Q 1_555 1_555
H8Q C9Q 1_555 1_555
H9Q C10Q 1_555 1_555
H10Q C11Q 1_555 1_555
H11Q C11Q 1_555 1_555
C14Q C15H 1_555 1_555
H14Q C14Q 1_555 1_555
H15Q C15Q 1_555 1_555
Ag1L N1L 1_555 1_555
Ag1H N1H 1_555 1_555
Ag1Q N1Q 1_555 1_555
Ag1G N5 1_555 1_555
Ag1D O2L 1_555 1_555
C1E C11E 1_555 1_555
C2E H1E 1_555 1_555
C3E C2E 1_555 1_555
H2E C3E 1_555 1_555
C4E C3E 1_555 1_555
H3E C4E 1_555 1_555
C5E H4E 1_555 1_555
C6E C5E 1_555 1_555
H5E C6E 1_555 1_555
C7E C6E 1_555 1_555
H6E C7E 1_555 1_555
C8E H7E 1_555 1_555
C9E C8E 1_555 1_555
H8E C9E 1_555 1_555
C10E C9E 1_555 1_555
H9E C10E 1_555 1_555
C11E H10E 1_555 1_555
H11E C11E 1_555 1_555
C12E H12E 1_555 1_555
H13E C12E 1_555 1_555
C13E C12E 1_555 1_555
C14E C13E 1_555 1_555
H14E C14E 1_555 1_555
C15E C13E 1_555 1_555
H15E C15E 1_555 1_555
N1E C5E 1_555 1_555
N2E C1E 1_555 1_555
N3E C1E 1_555 1_555
N4E C4E 1_555 1_555
N5E Ag1L 1_555 1_555
N6E C1E 1_555 1_555
O2E Ag1L 1_555 1_555
C15K C14E 1_555 1_555
C13K C15K 1_555 1_555
C12K C13K 1_555 1_555
H12K C12K 1_555 1_555
H13K C12K 1_555 1_555
O2K C12K 1_555 1_555
C11K O2K 1_555 1_555
C1K C11K 1_555 1_555
N2K C1K 1_555 1_555
C7K N2K 1_555 1_555
C6K C7K 1_555 1_555
C5K C6K 1_555 1_555
H4K C5K 1_555 1_555
N1K N2K 1_555 1_555
H5K C6K 1_555 1_555
H6K C7K 1_555 1_555
N3K C1K 1_555 1_555
C2K N3K 1_555 1_555
H1K C2K 1_555 1_555
C3K C2K 1_555 1_555
H2K C3K 1_555 1_555
C4K C3K 1_555 1_555
H3K C4K 1_555 1_555
N4K N3K 1_555 1_555
N6K C1K 1_555 1_555
C10K N6K 1_555 1_555
C9K C10K 1_555 1_555
C8K C9K 1_555 1_555
H7K C8K 1_555 1_555
N5K N6K 1_555 1_555
H8K C9K 1_555 1_555
H9K C10K 1_555 1_555
H10K C11K 1_555 1_555
H11K C11K 1_555 1_555
C14K C15E 1_555 1_555
H14K C14K 1_555 1_555
H15K C15K 1_555 1_555
Ag1I O2Q 1_555 1_555
N5A Ag1H 1_555 1_555
O2A Ag1H 1_555 1_555
N5J Ag1Q 1_555 1_555
O2J Ag1Q 1_555 1_555
N1G Ag1G 1_555 1_555
N4G Ag1G 1_555 1_555
N1D Ag1D 1_555 1_555
N4D Ag1D 1_555 1_555
Ag1E N1E 1_555 1_555
Ag1F O2K 1_555 1_555
Ag1K N1K 1_555 1_555
C2 N3 1_555 1_555
C4 N4 1_555 1_555
C7 N2 1_555 1_555
C10 N6 1_555 1_555
C12 O2 1_555 1_555
N1 N2 1_555 1_555
N3 N4 1_555 1_555
N5 N6 1_555 1_555
O2 Ag1G 1_555 1_555
C13L C14L 1_555 1_555
C5L N1L 1_555 1_555
C4L N4L 1_555 1_555
N4L Ag1L 1_555 1_555
C8L N5L 1_555 1_555
N5L Ag1D 1_555 1_555
C2H N3H 1_555 1_555
C7H N2H 1_555 1_555
C8H N5H 1_555 1_555
C10H N6H 1_555 1_555
C11H O2H 1_555 1_555
C12H O2H 1_555 1_555
N1H N2H 1_555 1_555
N3H N4H 1_555 1_555
N4H Ag1H 1_555 1_555
N5H N6H 1_555 1_555
C13Q C14Q 1_555 1_555
C5Q N1Q 1_555 1_555
C4Q N4Q 1_555 1_555
N4Q Ag1Q 1_555 1_555
C8Q N5Q 1_555 1_555
N5Q Ag1I 1_555 1_555
C2E N3E 1_555 1_555
C7E N2E 1_555 1_555
C8E N5E 1_555 1_555
C10E N6E 1_555 1_555
C11E O2E 1_555 1_555
C12E O2E 1_555 1_555
N1E N2E 1_555 1_555
N3E N4E 1_555 1_555
N4E Ag1E 1_555 1_555
N5E N6E 1_555 1_555
C13K C14K 1_555 1_555
C5K N1K 1_555 1_555
C4K N4K 1_555 1_555
N4K Ag1K 1_555 1_555
C8K N5K 1_555 1_555
N5K Ag1F 1_555 1_555

#END
