
#######################################################################
#
#                 Cambridge Crystallographic Data Centre
#                                CCDC 
#
#######################################################################
#
# If this CIF has been generated from an entry in the Cambridge 
# Structural Database, then it will include bibliographic, chemical, 
# crystal, experimental, refinement or atomic coordinate data resulting 
# from the CCDC's data processing and validation procedures.
#
#######################################################################

data_LEJCEK
_chemical_formula_moiety         '(C135 H120 O50 Zn8)n'
_symmetry_cell_setting           rhombohedral
_symmetry_space_group_name_H-M   'R -3 c'
_symmetry_Int_Tables_number      167
_space_group_name_Hall           '-R 3 2"c'
loop_
_symmetry_equiv_pos_site_id
_symmetry_equiv_pos_as_xyz
1 x,y,z
2 -y,x-y,z
3 -x+y,-x,z
4 x-y,-y,1/2-z
5 -x,-x+y,1/2-z
6 y,x,1/2-z
7 2/3+x,1/3+y,1/3+z
8 2/3-y,1/3+x-y,1/3+z
9 2/3-x+y,1/3-x,1/3+z
10 2/3+x-y,1/3-y,5/6-z
11 2/3-x,1/3-x+y,5/6-z
12 2/3+y,1/3+x,5/6-z
13 1/3+x,2/3+y,2/3+z
14 1/3-y,2/3+x-y,2/3+z
15 1/3-x+y,2/3-x,2/3+z
16 1/3+x-y,2/3-y,1/6-z
17 1/3-x,2/3-x+y,1/6-z
18 1/3+y,2/3+x,1/6-z
19 -x,-y,-z
20 y,-x+y,-z
21 x-y,x,-z
22 -x+y,y,1/2+z
23 x,x-y,1/2+z
24 -y,-x,1/2+z
25 1/3-x,2/3-y,2/3-z
26 1/3+y,2/3-x+y,2/3-z
27 1/3+x-y,2/3+x,2/3-z
28 1/3-x+y,2/3+y,1/6+z
29 1/3+x,2/3+x-y,1/6+z
30 1/3-y,2/3-x,1/6+z
31 2/3-x,1/3-y,1/3-z
32 2/3+y,1/3-x+y,1/3-z
33 2/3+x-y,1/3+x,1/3-z
34 2/3-x+y,1/3+y,5/6+z
35 2/3+x,1/3+x-y,5/6+z
36 2/3-y,1/3-x,5/6+z
_cell_length_a                   32.3599(13)
_cell_length_b                   32.3599(13)
_cell_length_c                   100.8246(11)
_cell_angle_alpha                90
_cell_angle_beta                 90
_cell_angle_gamma                120
_cell_volume                     91434.8
loop_
_atom_site_label
_atom_site_type_symbol
_atom_site_fract_x
_atom_site_fract_y
_atom_site_fract_z
C1 C 0.4271(8) 0.7505(8) 0.5272(3)
C2 C 0.4609(7) 0.7818(7) 0.53805(19)
H1 H 0.4498 0.7765 0.5467
C3 C 0.4985(7) 0.8111(6) 0.53616(16)
H2 H 0.5127 0.8152 0.5279
C4 C 0.5252(6) 0.8436(4) 0.54774(18)
C5 C 0.5162(4) 0.8505(5) 0.5608(2)
H3 H 0.4863 0.8307 0.5645
C6 C 0.5518(8) 0.8869(7) 0.56831(9)
H4 H 0.5457 0.8915 0.5771
C7 C 0.5964(6) 0.9164(4) 0.56277(19)
C8 C 0.6055(4) 0.9096(5) 0.5497(2)
C9 C 0.5698(8) 0.8732(7) 0.54220(9)
H5 H 0.5759 0.8686 0.5335
C10 C 0.6183(5) 0.9683(5) 0.58025(14)
H6 H 0.6098 0.9463 0.5877
H7 H 0.5912 0.9715 0.5777
C11 C 0.6667 1.0206(7) 0.5833
C12 C 0.6852(6) 1.0555(5) 0.57071(15)
H8 H 0.7122 1.0865 0.5729
H9 H 0.6937 1.0417 0.5634
C13 C 0.6481(7) 1.0910(3) 0.55789(9)
C14 C 0.6909(5) 1.1166(5) 0.55106(15)
H10 H 0.7162 1.1115 0.5529
C15 C 0.6959(4) 1.1497(4) 0.54150(12)
H11 H 0.7245 1.1669 0.5369
C16 C 0.6581(6) 1.1572(3) 0.53877(9)
C17 C 0.6153(4) 1.1316(5) 0.54560(15)
H12 H 0.5899 1.1367 0.5438
C18 C 0.6103(4) 1.0985(4) 0.55516(12)
C19 C 0.5315(7) 1.0773(6) 0.56290(19)
H13 H 0.5082 1.0521 0.5684
H14 H 0.5185 1.0750 0.5542
H15 H 0.5397 1.1076 0.5667
C20 C 0.6643(6) 1.1943(6) 0.52801(15)
H16 H 0.6930 1.2127 0.5236
C21 C 0.6325(8) 1.1971(7) 0.52598(17)
H17 H 0.6025 1.1785 0.5297
C22 C 0.6463(9) 1.2366(12) 0.51614(18)
O1 O 0.3854(5) 0.7174(4) 0.53245(11)
O2 O 0.6875(4) 1.2625(5) 0.50933(14)
O3 O 0.4381(4) 0.7499(4) 0.51545(16)
O4 O 0.6118(4) 1.2444(5) 0.51052(16)
O5 O 0.3333 0.6667 0.5075(2)
O6 O 0.6377(4) 0.9550(4) 0.56924(12)
O7 O 0.6418(4) 1.0580(4) 0.56791(11)
O8 O 0.5749(7) 1.0727(5) 0.56196(15)
O9 O 0.6540(5) 0.9313(5) 0.54402(18)
Zn1 Zn 0.3333 0.6667 0.52604(5)
Zn2 Zn 0.39471(9) 0.71384(9) 0.50092(2)
C23 C 0.6565(14) 0.9324(14) 0.5291(2)
H18 H 0.6892 0.9469 0.5264
H19 H 0.6427 0.9506 0.5258
H20 H 0.6390 0.9005 0.5258
C1P C 0.9062(8) 0.9901(11) 0.6395(3)
C1S C -0.2495(8) 0.3234(11) 0.4728(3)
C1GA C -0.0099(11) 0.0838(8) 0.3605(3)
C1T C 0.6766(11) 0.4271(8) 0.4728(3)
C1IA C 0.9162(8) 0.9062(8) 0.3605(3)
C2P C 0.8724(7) 0.9876(10) 0.62862(19)
C2S C -0.2182(7) 0.3209(10) 0.46195(19)
C2GA C -0.0124(10) 0.1151(7) 0.37138(19)
C2T C 0.6791(10) 0.4609(7) 0.46195(19)
C2IA C 0.8849(7) 0.8724(7) 0.37138(19)
H1P H 0.8835 0.9934 0.6200
H1S H -0.2235 0.3267 0.4533
H1GA H -0.0066 0.1098 0.3800
H1T H 0.6733 0.4498 0.4533
H1IA H 0.8902 0.8835 0.3800
C3P C 0.8348(7) 0.9793(9) 0.63051(16)
C3S C -0.1889(6) 0.3126(9) 0.46384(16)
C3GA C -0.0207(9) 0.1444(6) 0.36949(16)
C3T C 0.6874(9) 0.4985(7) 0.46384(16)
C3IA C 0.8556(6) 0.8348(7) 0.36949(16)
H2P H 0.8206 0.9692 0.6388
H2S H -0.1848 0.3025 0.4721
H2GA H -0.0308 0.1485 0.3612
H2T H 0.6975 0.5127 0.4721
H2IA H 0.8515 0.8206 0.3612
C4P C 0.8081(6) 0.9851(7) 0.61893(18)
C4S C -0.1564(4) 0.3184(7) 0.45226(18)
C4GA C -0.0149(7) 0.1769(4) 0.38107(18)
C4T C 0.6816(7) 0.5252(6) 0.45226(18)
C4IA C 0.8231(4) 0.8081(6) 0.38107(18)
C5P C 0.8171(4) 1.0010(6) 0.6059(2)
C5S C -0.1495(5) 0.3343(6) 0.4392(2)
C5GA C 0.0010(6) 0.1838(5) 0.3941(2)
C5T C 0.6657(6) 0.5162(4) 0.4392(2)
C5IA C 0.8162(5) 0.8171(4) 0.3941(2)
H3P H 0.8470 1.0111 0.6022
H3S H -0.1693 0.3444 0.4355
H3GA H 0.0111 0.1640 0.3978
H3T H 0.6556 0.4863 0.4355
H3IA H 0.8360 0.8470 0.3978
C6P C 0.7815(8) 1.0018(11) 0.59836(9)
C6S C -0.1131(7) 0.3351(11) 0.43169(9)
C6GA C 0.0018(11) 0.2202(7) 0.40164(9)
C6T C 0.6649(11) 0.5518(8) 0.43169(9)
C6IA C 0.7798(7) 0.7815(8) 0.40164(9)
H4P H 0.7876 1.0125 0.5896
H4S H -0.1085 0.3458 0.4229
H4GA H 0.0125 0.2248 0.4104
H4T H 0.6542 0.5457 0.4229
H4IA H 0.7752 0.7876 0.4104
C7P C 0.7369(6) 0.9867(7) 0.60390(19)
C7S C -0.0836(4) 0.3200(7) 0.43723(19)
C7GA C -0.0133(7) 0.2497(4) 0.39610(19)
C7T C 0.6800(7) 0.5964(6) 0.43723(19)
C7IA C 0.7503(4) 0.7369(6) 0.39610(19)
C8P C 0.7278(4) 0.9708(6) 0.6170(2)
C8S C -0.0904(5) 0.3041(6) 0.4503(2)
C8GA C -0.0292(6) 0.2429(5) 0.3830(2)
C8T C 0.6959(6) 0.6055(4) 0.4503(2)
C8IA C 0.7571(5) 0.7278(4) 0.3830(2)
C9P C 0.7635(8) 0.9701(11) 0.62447(9)
C9S C -0.1268(7) 0.3034(11) 0.45780(9)
C9GA C -0.0299(11) 0.2065(7) 0.37553(9)
C9T C 0.6966(11) 0.5698(8) 0.45780(9)
C9IA C 0.7935(7) 0.7635(8) 0.37553(9)
H5P H 0.7574 0.9594 0.6332
H5S H -0.1314 0.2927 0.4665
H5GA H -0.0406 0.2019 0.3668
H5T H 0.7073 0.5759 0.4665
H5IA H 0.7981 0.7574 0.3668
C10P C 0.7150(5) 1.0167(7) 0.58642(14)
C10S C -0.0317(5) 0.3500(7) 0.41975(14)
C10GA C 0.0167(7) 0.3016(5) 0.41358(14)
C10T C 0.6500(7) 0.6183(5) 0.41975(14)
C10IA C 0.6984(5) 0.7150(5) 0.41358(14)
H6P H 0.7235 1.0032 0.5790
H6S H -0.0537 0.3365 0.4123
H6GA H 0.0032 0.2796 0.4210
H6T H 0.6635 0.6098 0.4123
H6IA H 0.7204 0.7235 0.4210
H7P H 0.7421 1.0470 0.5890
H7S H -0.0285 0.3803 0.4223
H7GA H 0.0470 0.3048 0.4110
H7T H 0.6197 0.5912 0.4223
H7IA H 0.6952 0.7421 0.4110
C11S C 0.0206(7) 0.3539(7) 0.4167
C11T C 0.6461(7) 0.6667 0.4167
C12P C 0.6481(6) 1.0370(8) 0.59596(15)
C12S C 0.0555(5) 0.3703(8) 0.42929(15)
C12GA C 0.0370(8) 0.3888(5) 0.40404(15)
C12T C 0.6297(8) 0.6852(6) 0.42929(15)
C12IA C 0.6112(5) 0.6481(6) 0.40404(15)
H8P H 0.6211 1.0410 0.5938
H8S H 0.0865 0.3743 0.4271
H8GA H 0.0410 0.4198 0.4062
H8T H 0.6257 0.7122 0.4271
H8IA H 0.5802 0.6211 0.4062
H9P H 0.6396 1.0147 0.6033
H9S H 0.0417 0.3480 0.4366
H9GA H 0.0147 0.3750 0.3967
H9T H 0.6520 0.6937 0.4366
H9IA H 0.6250 0.6396 0.3967
C13P C 0.6852(7) 1.1096(8) 0.60878(9)
C13S C 0.0910(3) 0.4429(8) 0.44211(9)
C13GA C 0.1096(8) 0.4243(3) 0.39122(9)
C13T C 0.5571(8) 0.6481(7) 0.44211(9)
C13IA C 0.5757(3) 0.6852(7) 0.39122(9)
C14P C 0.6424(5) 1.0924(7) 0.61561(15)
C14S C 0.1166(5) 0.4257(7) 0.44894(15)
C14GA C 0.0924(7) 0.4499(5) 0.38439(15)
C14T C 0.5743(7) 0.6909(5) 0.44894(15)
C14IA C 0.5501(5) 0.6424(5) 0.38439(15)
H10P H 0.6171 1.0620 0.6138
H10S H 0.1115 0.3953 0.4471
H10GA H 0.0620 0.4448 0.3862
H10T H 0.6047 0.7162 0.4471
H10IA H 0.5552 0.6171 0.3862
C15P C 0.6374(4) 1.1205(6) 0.62517(12)
C15S C 0.1497(4) 0.4538(6) 0.45850(12)
C15GA C 0.1205(6) 0.4830(4) 0.37483(12)
C15T C 0.5462(6) 0.6959(4) 0.45850(12)
C15IA C 0.5170(4) 0.6374(4) 0.37483(12)
H11P H 0.6088 1.1091 0.6298
H11S H 0.1669 0.4424 0.4631
H11GA H 0.1091 0.5002 0.3702
H11T H 0.5576 0.7245 0.4631
H11IA H 0.4998 0.6088 0.3702
C16P C 0.6752(6) 1.1658(7) 0.62790(9)
C16S C 0.1572(3) 0.4991(7) 0.46123(9)
C16GA C 0.1658(7) 0.4905(3) 0.37210(9)
C16T C 0.5009(7) 0.6581(6) 0.46123(9)
C16IA C 0.5095(3) 0.6752(6) 0.37210(9)
C17P C 0.7180(4) 1.1830(6) 0.62107(15)
C17S C 0.1316(5) 0.5163(6) 0.45440(15)
C17GA C 0.1830(6) 0.4649(5) 0.37893(15)
C17T C 0.4837(6) 0.6153(4) 0.45440(15)
C17IA C 0.5351(5) 0.7180(4) 0.37893(15)
H12P H 0.7434 1.2135 0.6229
H12S H 0.1367 0.5468 0.4562
H12GA H 0.2135 0.4700 0.3771
H12T H 0.4532 0.5899 0.4562
H12IA H 0.5300 0.7434 0.3771
C18P C 0.7230(4) 1.1549(6) 0.61151(12)
C18S C 0.0985(4) 0.4882(6) 0.44484(12)
C18GA C 0.1549(6) 0.4318(4) 0.38849(12)
C18T C 0.5118(6) 0.6103(4) 0.44484(12)
C18IA C 0.5682(4) 0.7230(4) 0.38849(12)
C19P C 0.8018(7) 1.2125(9) 0.60377(19)
C19S C 0.0773(6) 0.5458(9) 0.43710(19)
C19GA C 0.2125(9) 0.4106(6) 0.39623(19)
C19T C 0.4542(9) 0.5315(7) 0.43710(19)
C19IA C 0.5894(6) 0.8018(7) 0.39623(19)
H13P H 0.8251 1.2106 0.5983
H13S H 0.0521 0.5439 0.4316
H13GA H 0.2106 0.3854 0.4017
H13T H 0.4561 0.5082 0.4316
H13IA H 0.6146 0.8251 0.4017
H14P H 0.8148 1.2232 0.6125
H14S H 0.0750 0.5565 0.4458
H14GA H 0.2232 0.4083 0.3875
H14T H 0.4435 0.5185 0.4458
H14IA H 0.5917 0.8148 0.3875
H15P H 0.7936 1.2346 0.6000
H15S H 0.1076 0.5679 0.4333
H15GA H 0.2346 0.4409 0.4000
H15T H 0.4321 0.5397 0.4333
H15IA H 0.5591 0.7936 0.4000
C20P C 0.6690(6) 1.1967(8) 0.63866(15)
C20S C 0.1943(6) 0.5300(8) 0.47199(15)
C20GA C 0.1967(8) 0.5276(6) 0.36134(15)
C20T C 0.4700(8) 0.6643(6) 0.47199(15)
C20IA C 0.4724(6) 0.6690(6) 0.36134(15)
H16P H 0.6403 1.1864 0.6431
H16S H 0.2127 0.5197 0.4764
H16GA H 0.1864 0.5460 0.3569
H16T H 0.4803 0.6930 0.4764
H16IA H 0.4540 0.6403 0.3569
C21P C 0.7008(8) 1.2313(11) 0.64069(17)
C21S C 0.1971(7) 0.5646(11) 0.47402(17)
C21GA C 0.2313(11) 0.5304(7) 0.35931(17)
C21T C 0.4354(11) 0.6325(8) 0.47402(17)
C21IA C 0.4696(7) 0.7008(8) 0.35931(17)
H17P H 0.7308 1.2427 0.6370
H17S H 0.1785 0.5760 0.4703
H17GA H 0.2427 0.5118 0.3630
H17T H 0.4240 0.6025 0.4703
H17IA H 0.4882 0.7308 0.3630
C22P C 0.6870(9) 1.2570(15) 0.65053(18)
C22S C 0.2366(12) 0.5903(15) 0.48386(18)
C22GA C 0.2570(15) 0.5699(12) 0.34947(18)
C22T C 0.4097(15) 0.6463(9) 0.48386(18)
C22IA C 0.4301(12) 0.6870(9) 0.34947(18)
O1P O 0.9479(5) 0.9987(6) 0.63422(11)
O1S O -0.2826(4) 0.3320(6) 0.46755(11)
O1GA O -0.0013(6) 0.0507(4) 0.36578(11)
O1T O 0.6680(6) 0.3854(5) 0.46755(11)
O1IA O 0.9493(4) 0.9479(5) 0.36578(11)
O1R O 0.6146(5) 0.2826(4) 0.46755(11)
O1S_2 O 0.7174(4) 0.3320(6) 0.46755(11)
O1A O 0.2826(4) 0.6680(6) 0.53245(11)
O1B O 0.3320(6) 0.6146(5) 0.53245(11)
O2P O 0.6458(4) 1.2417(6) 0.65734(14)
O2S O 0.2625(5) 0.5750(6) 0.49067(14)
O2GA O 0.2417(6) 0.5958(5) 0.34266(14)
O2T O 0.4250(6) 0.6875(4) 0.49067(14)
O2IA O 0.4042(5) 0.6458(4) 0.34266(14)
O2_2 O -0.3125(4) 0.2625(5) 0.50933(14)
O2A O 0.7375(5) 0.4250(6) 0.50933(14)
O2B O 0.5750(6) 1.3125(4) 0.50933(14)
O2R O 0.3125(4) 0.7375(5) 0.49067(14)
O3P O 0.8952(4) 0.9785(6) 0.65122(16)
O3S O -0.2501(4) 0.3118(6) 0.48455(16)
O3GA O -0.0215(6) 0.0832(4) 0.34878(16)
O3T O 0.6882(6) 0.4381(4) 0.48455(16)
O3IA O 0.9168(4) 0.8952(4) 0.34878(16)
O3A O 0.2501(4) 0.6882(6) 0.51545(16)
O3B O 0.3118(6) 0.5619(4) 0.51545(16)
O3R O 0.5619(4) 1.2501(4) 0.48455(16)
O4P O 0.7215(4) 1.2993(6) 0.65615(16)
O4S O 0.2444(5) 0.6326(6) 0.48948(16)
O4GA O 0.2993(6) 0.5777(5) 0.34385(16)
O4T O 0.3674(6) 0.6118(4) 0.48948(16)
O4IA O 0.4223(5) 0.7215(4) 0.34385(16)
O4A O -0.2444(5) 0.3674(6) 0.51052(16)
O4B O 0.6326(6) 0.3882(4) 0.51052(16)
O4R O 0.3882(4) 0.7556(5) 0.48948(16)
O5T O 0.6666 0.3333 0.4925(2)
O5R O -0.3333 0.3333 0.4925(2)
O5S O 0.6667 1.3334 0.4925(2)
O6P O 0.6956(4) 0.9840(6) 0.59743(12)
O6S O -0.0450(4) 0.3173(6) 0.43076(12)
O6GA O -0.0160(6) 0.2883(4) 0.40257(12)
O6T O 0.6827(6) 0.6377(4) 0.43076(12)
O6IA O 0.7117(4) 0.6956(4) 0.40257(12)
O7P O 0.6915(4) 1.0829(6) 0.59876(11)
O7S O 0.0580(4) 0.4162(6) 0.43209(11)
O7GA O 0.0829(6) 0.3913(4) 0.40124(11)
O7T O 0.5838(6) 0.6418(4) 0.43209(11)
O7IA O 0.6087(4) 0.6915(4) 0.40124(11)
O8P O 0.7584(7) 1.1645(9) 0.60471(15)
O8S O 0.0727(5) 0.4978(9) 0.43804(15)
O8GA O 0.1645(9) 0.4060(5) 0.39529(15)
O8T O 0.5022(9) 0.5749(7) 0.43804(15)
O8IA O 0.5940(5) 0.7584(7) 0.39529(15)
O9P O 0.6793(5) 0.9440(7) 0.62265(18)
O9S O -0.0687(5) 0.2773(7) 0.45598(18)
O9GA O -0.0560(7) 0.2646(5) 0.37735(18)
O9T O 0.7227(7) 0.6540(5) 0.45598(18)
O9IA O 0.7354(5) 0.6793(5) 0.37735(18)
Zn1T Zn 0.6666 0.3333 0.47396(5)
Zn1O Zn 0.9999 1.0000 0.64063(5)
Zn1R Zn -0.3333 0.3333 0.47396(5)
Zn1GA Zn 0.0001 0.0000 0.35937(5)
Zn1GA_2 Zn 1.0001 1.0000 0.35937(5)
Zn2A Zn 0.28616(9) 0.68087(13) 0.50092(2)
Zn2B Zn 0.31913(13) 0.60529(9) 0.50092(2)
Zn2R Zn 0.60529(9) 1.28616(9) 0.49908(2)
Zn2S Zn -0.28616(9) 0.31913(13) 0.49908(2)
Zn2T Zn 0.68087(13) 0.39471(9) 0.49908(2)
Zn2I Zn 0.34754(13) 0.61949(9) 0.33241(2)
Zn2J Zn 0.27196(9) 0.65246(13) 0.33241(2)
Zn2K Zn 0.38051(9) 0.72804(9) 0.33241(2)
Zn2P Zn 0.93862(9) 0.98580(13) 0.66575(2)
Zn2R_2 Zn 0.60529(9) 0.28616(9) 0.49908(2)
Zn2S_2 Zn 0.71384(9) 0.31913(13) 0.49908(2)
Zn2S_3 Zn 0.71384(9) 1.31913(13) 0.49908(2)
Zn2GA Zn -0.01420(13) 0.04717(9) 0.33425(2)
Zn2IA Zn 0.95283(9) 0.93862(9) 0.33425(2)
Zn2BA Zn 0.72804(9) 1.34754(13) 0.66759(2)
Zn2CA Zn 0.61949(9) 1.27196(9) 0.66759(2)
C23P C 0.6768(14) 0.9426(20) 0.6376(2)
C23S C -0.0676(14) 0.2759(20) 0.4709(2)
C23GA C -0.0574(20) 0.2657(14) 0.3624(2)
C23T C 0.7241(20) 0.6565(14) 0.4709(2)
C23IA C 0.7343(14) 0.6768(14) 0.3624(2)
H18P H 0.6441 0.9244 0.6403
H18S H -0.0531 0.2577 0.4736
H18GA H -0.0756 0.2802 0.3597
H18T H 0.7423 0.6892 0.4736
H18IA H 0.7198 0.6441 0.3597
H19P H 0.6906 0.9746 0.6409
H19S H -0.0494 0.3079 0.4742
H19GA H -0.0254 0.2839 0.3591
H19T H 0.6921 0.6427 0.4742
H19IA H 0.7161 0.6906 0.3591
H20P H 0.6943 0.9282 0.6409
H20S H -0.0995 0.2615 0.4742
H20GA H -0.0718 0.2338 0.3591
H20T H 0.7385 0.6390 0.4742
H20IA H 0.7662 0.6943 0.3591
loop_
_geom_bond_atom_site_label_1
_geom_bond_atom_site_label_2
_geom_bond_site_symmetry_1
_geom_bond_site_symmetry_2
C1 C2 1_555 1_555
C2 H1 1_555 1_555
C3 C2 1_555 1_555
H2 C3 1_555 1_555
C4 C3 1_555 1_555
C5 C4 1_555 1_555
H3 C5 1_555 1_555
C6 C5 1_555 1_555
H4 C6 1_555 1_555
C7 C6 1_555 1_555
C8 C7 1_555 1_555
C9 C4 1_555 1_555
H5 C9 1_555 1_555
C10 H6 1_555 1_555
H7 C10 1_555 1_555
C11 C10 1_555 1_555
C12 C11 1_555 1_555
H8 C12 1_555 1_555
H9 C12 1_555 1_555
C13 C14 1_555 1_555
C14 H10 1_555 1_555
C15 C14 1_555 1_555
H11 C15 1_555 1_555
C16 C15 1_555 1_555
C17 C16 1_555 1_555
H12 C17 1_555 1_555
C18 C13 1_555 1_555
C19 H13 1_555 1_555
H14 C19 1_555 1_555
H15 C19 1_555 1_555
C20 C16 1_555 1_555
H16 C20 1_555 1_555
C21 C20 1_555 1_555
H17 C21 1_555 1_555
C22 C21 1_555 1_555
O1 C1 1_555 1_555
O2 C22 1_555 1_555
O3 C1 1_555 1_555
O4 C22 1_555 1_555
O5 Zn1 1_555 1_555
O6 C7 1_555 1_555
O7 C12 1_555 1_555
O8 C18 1_555 1_555
O9 C8 1_555 1_555
Zn1 O1 1_555 1_555
Zn2 O3 1_555 1_555
C23 O9 1_555 1_555
H18 C23 1_555 1_555
H19 C23 1_555 1_555
H20 C23 1_555 1_555
C1P C2P 1_555 1_555
C1S C2S 1_555 1_555
C1GA C2GA 1_555 1_555
C1T C2T 1_555 1_555
C1IA C2IA 1_555 1_555
C2P H1P 1_555 1_555
C2S H1S 1_555 1_555
C2GA H1GA 1_555 1_555
C2T H1T 1_555 1_555
C2IA H1IA 1_555 1_555
C3P C2P 1_555 1_555
C3S C2S 1_555 1_555
C3GA C2GA 1_555 1_555
C3T C2T 1_555 1_555
C3IA C2IA 1_555 1_555
H2P C3P 1_555 1_555
H2S C3S 1_555 1_555
H2GA C3GA 1_555 1_555
H2T C3T 1_555 1_555
H2IA C3IA 1_555 1_555
C4P C3P 1_555 1_555
C4S C3S 1_555 1_555
C4GA C3GA 1_555 1_555
C4T C3T 1_555 1_555
C4IA C3IA 1_555 1_555
C5P C4P 1_555 1_555
C5S C4S 1_555 1_555
C5GA C4GA 1_555 1_555
C5T C4T 1_555 1_555
C5IA C4IA 1_555 1_555
H3P C5P 1_555 1_555
H3S C5S 1_555 1_555
H3GA C5GA 1_555 1_555
H3T C5T 1_555 1_555
H3IA C5IA 1_555 1_555
C6P C5P 1_555 1_555
C6S C5S 1_555 1_555
C6GA C5GA 1_555 1_555
C6T C5T 1_555 1_555
C6IA C5IA 1_555 1_555
H4P C6P 1_555 1_555
H4S C6S 1_555 1_555
H4GA C6GA 1_555 1_555
H4T C6T 1_555 1_555
H4IA C6IA 1_555 1_555
C7P C6P 1_555 1_555
C7S C6S 1_555 1_555
C7GA C6GA 1_555 1_555
C7T C6T 1_555 1_555
C7IA C6IA 1_555 1_555
C8P C7P 1_555 1_555
C8S C7S 1_555 1_555
C8GA C7GA 1_555 1_555
C8T C7T 1_555 1_555
C8IA C7IA 1_555 1_555
C9P C4P 1_555 1_555
C9S C4S 1_555 1_555
C9GA C4GA 1_555 1_555
C9T C4T 1_555 1_555
C9IA C4IA 1_555 1_555
H5P C9P 1_555 1_555
H5S C9S 1_555 1_555
H5GA C9GA 1_555 1_555
H5T C9T 1_555 1_555
H5IA C9IA 1_555 1_555
C10P C11 1_555 1_555
C10S H6S 1_555 1_555
C10GA H6GA 1_555 1_555
C10T H6T 1_555 1_555
C10IA H6IA 1_555 1_555
H6P C10P 1_555 1_555
H7P C10P 1_555 1_555
H7S C10S 1_555 1_555
H7GA C10GA 1_555 1_555
H7T C10T 1_555 1_555
H7IA C10IA 1_555 1_555
C11S C10S 1_555 1_555
C11T C10T 1_555 1_555
C12P C11 1_555 1_555
C12S C11S 1_555 1_555
C12GA C11S 1_555 1_555
C12T C11T 1_555 1_555
C12IA C11T 1_555 1_555
H8P C12P 1_555 1_555
H8S C12S 1_555 1_555
H8GA C12GA 1_555 1_555
H8T C12T 1_555 1_555
H8IA C12IA 1_555 1_555
H9P C12P 1_555 1_555
H9S C12S 1_555 1_555
H9GA C12GA 1_555 1_555
H9T C12T 1_555 1_555
H9IA C12IA 1_555 1_555
C13P C14P 1_555 1_555
C13S C14S 1_555 1_555
C13GA C14GA 1_555 1_555
C13T C14T 1_555 1_555
C13IA C14IA 1_555 1_555
C14P H10P 1_555 1_555
C14S H10S 1_555 1_555
C14GA H10GA 1_555 1_555
C14T H10T 1_555 1_555
C14IA H10IA 1_555 1_555
C15P C14P 1_555 1_555
C15S C14S 1_555 1_555
C15GA C14GA 1_555 1_555
C15T C14T 1_555 1_555
C15IA C14IA 1_555 1_555
H11P C15P 1_555 1_555
H11S C15S 1_555 1_555
H11GA C15GA 1_555 1_555
H11T C15T 1_555 1_555
H11IA C15IA 1_555 1_555
C16P C15P 1_555 1_555
C16S C15S 1_555 1_555
C16GA C15GA 1_555 1_555
C16T C15T 1_555 1_555
C16IA C15IA 1_555 1_555
C17P C16P 1_555 1_555
C17S C16S 1_555 1_555
C17GA C16GA 1_555 1_555
C17T C16T 1_555 1_555
C17IA C16IA 1_555 1_555
H12P C17P 1_555 1_555
H12S C17S 1_555 1_555
H12GA C17GA 1_555 1_555
H12T C17T 1_555 1_555
H12IA C17IA 1_555 1_555
C18P C13P 1_555 1_555
C18S C13S 1_555 1_555
C18GA C13GA 1_555 1_555
C18T C13T 1_555 1_555
C18IA C13IA 1_555 1_555
C19P H13P 1_555 1_555
C19S H13S 1_555 1_555
C19GA H13GA 1_555 1_555
C19T H13T 1_555 1_555
C19IA H13IA 1_555 1_555
H14P C19P 1_555 1_555
H14S C19S 1_555 1_555
H14GA C19GA 1_555 1_555
H14T C19T 1_555 1_555
H14IA C19IA 1_555 1_555
H15P C19P 1_555 1_555
H15S C19S 1_555 1_555
H15GA C19GA 1_555 1_555
H15T C19T 1_555 1_555
H15IA C19IA 1_555 1_555
C20P C16P 1_555 1_555
C20S C16S 1_555 1_555
C20GA C16GA 1_555 1_555
C20T C16T 1_555 1_555
C20IA C16IA 1_555 1_555
H16P C20P 1_555 1_555
H16S C20S 1_555 1_555
H16GA C20GA 1_555 1_555
H16T C20T 1_555 1_555
H16IA C20IA 1_555 1_555
C21P C20P 1_555 1_555
C21S C20S 1_555 1_555
C21GA C20GA 1_555 1_555
C21T C20T 1_555 1_555
C21IA C20IA 1_555 1_555
H17P C21P 1_555 1_555
H17S C21S 1_555 1_555
H17GA C21GA 1_555 1_555
H17T C21T 1_555 1_555
H17IA C21IA 1_555 1_555
C22P C21P 1_555 1_555
C22S C21S 1_555 1_555
C22GA C21GA 1_555 1_555
C22T C21T 1_555 1_555
C22IA C21IA 1_555 1_555
O1P C1P 1_555 1_555
O1S C1S 1_555 1_555
O1GA C1GA 1_555 1_555
O1T C1T 1_555 1_555
O1IA C1IA 1_555 1_555
O1R Zn1T 1_555 1_555
O1S_2 Zn1T 1_555 1_555
O1A Zn1 1_555 1_555
O1B Zn1 1_555 1_555
O2P C22P 1_555 1_555
O2S C22S 1_555 1_555
O2GA C22GA 1_555 1_555
O2T Zn2 1_555 1_555
O2IA C22IA 1_555 1_555
O2_2 Zn2S 1_555 1_555
O2A Zn2T 1_555 1_555
O2B Zn2R 1_555 1_555
O2R Zn2A 1_555 1_555
O3P C1P 1_555 1_555
O3S C1S 1_555 1_555
O3GA C1GA 1_555 1_555
O3T C1T 1_555 1_555
O3IA C1IA 1_555 1_555
O3A Zn2A 1_555 1_555
O3B Zn2B 1_555 1_555
O3R Zn2R 1_555 1_555
O4P C22P 1_555 1_555
O4S C22S 1_555 1_555
O4GA C22GA 1_555 1_555
O4T C22T 1_555 1_555
O4IA C22IA 1_555 1_555
O4A Zn2S 1_555 1_555
O4B Zn2T 1_555 1_555
O4R Zn2 1_555 1_555
O5T Zn1T 1_555 1_555
O5R Zn1R 1_555 1_555
O5S Zn2R 1_555 1_555
O6P C7P 1_555 1_555
O6S C7S 1_555 1_555
O6GA C7GA 1_555 1_555
O6T C7T 1_555 1_555
O6IA C7IA 1_555 1_555
O7P C12P 1_555 1_555
O7S C12S 1_555 1_555
O7GA C12GA 1_555 1_555
O7T C12T 1_555 1_555
O7IA C12IA 1_555 1_555
O8P C18P 1_555 1_555
O8S C18S 1_555 1_555
O8GA C18GA 1_555 1_555
O8T C18T 1_555 1_555
O8IA C18IA 1_555 1_555
O9P C8P 1_555 1_555
O9S C8S 1_555 1_555
O9GA C8GA 1_555 1_555
O9T C8T 1_555 1_555
O9IA C8IA 1_555 1_555
Zn1T O1T 1_555 1_555
Zn1O O1P 1_555 1_555
Zn1R O1S 1_555 1_555
Zn1GA O1GA 1_555 1_555
Zn1GA_2 O1IA 1_555 1_555
Zn2A O5 1_555 1_555
Zn2B O5 1_555 1_555
Zn2R O4 1_555 1_555
Zn2S O3S 1_555 1_555
Zn2T O3T 1_555 1_555
Zn2I O2IA 1_555 1_555
Zn2J O2GA 1_555 1_555
Zn2K O4IA 1_555 1_555
Zn2P O3P 1_555 1_555
Zn2R_2 O5T 1_555 1_555
Zn2S_2 O5T 1_555 1_555
Zn2S_3 O2 1_555 1_555
Zn2GA O3GA 1_555 1_555
Zn2IA O3IA 1_555 1_555
Zn2BA O4P 1_555 1_555
Zn2CA O2P 1_555 1_555
C23P O9P 1_555 1_555
C23S O9S 1_555 1_555
C23GA O9GA 1_555 1_555
C23T O9T 1_555 1_555
C23IA O9IA 1_555 1_555
H18P C23P 1_555 1_555
H18S C23S 1_555 1_555
H18GA C23GA 1_555 1_555
H18T C23T 1_555 1_555
H18IA C23IA 1_555 1_555
H19P C23P 1_555 1_555
H19S C23S 1_555 1_555
H19GA C23GA 1_555 1_555
H19T C23T 1_555 1_555
H19IA C23IA 1_555 1_555
H20P C23P 1_555 1_555
H20S C23S 1_555 1_555
H20GA C23GA 1_555 1_555
H20T C23T 1_555 1_555
H20IA C23IA 1_555 1_555
C8 C9 1_555 1_555
C10 O6 1_555 1_555
C13 O7 1_555 1_555
C17 C18 1_555 1_555
C19 O8 1_555 1_555
O5 Zn2 1_555 1_555
C8P C9P 1_555 1_555
C8S C9S 1_555 1_555
C8GA C9GA 1_555 1_555
C8T C9T 1_555 1_555
C8IA C9IA 1_555 1_555
C10P O6P 1_555 1_555
C10S O6S 1_555 1_555
C10GA C11S 1_555 1_555
C10GA O6GA 1_555 1_555
C10T O6T 1_555 1_555
C10IA C11T 1_555 1_555
C10IA O6IA 1_555 1_555
C13P O7P 1_555 1_555
C13S O7S 1_555 1_555
C13GA O7GA 1_555 1_555
C13T O7T 1_555 1_555
C13IA O7IA 1_555 1_555
C17P C18P 1_555 1_555
C17S C18S 1_555 1_555
C17GA C18GA 1_555 1_555
C17T C18T 1_555 1_555
C17IA C18IA 1_555 1_555
C19P O8P 1_555 1_555
C19S O8S 1_555 1_555
C19GA O8GA 1_555 1_555
C19T O8T 1_555 1_555
C19IA O8IA 1_555 1_555
C22T O2T 1_555 1_555
O2S Zn2B 1_555 1_555
O4S Zn2A 1_555 1_555
O4GA Zn2I 1_555 1_555
O4T Zn2B 1_555 1_555
O5T Zn2T 1_555 1_555
O5R Zn2S 1_555 1_555
O5S Zn2S_3 1_555 1_555

#END
