
#######################################################################
#
#                 Cambridge Crystallographic Data Centre
#                                CCDC 
#
#######################################################################
#
# If this CIF has been generated from an entry in the Cambridge 
# Structural Database, then it will include bibliographic, chemical, 
# crystal, experimental, refinement or atomic coordinate data resulting 
# from the CCDC's data processing and validation procedures.
#
#######################################################################

data_IVARUT
_chemical_formula_moiety         '(C56 H74 Cd2 N8 O13)n'
_symmetry_cell_setting           triclinic
_symmetry_space_group_name_H-M   'P -1'
_symmetry_Int_Tables_number      2
_space_group_name_Hall           '-P 1'
loop_
_symmetry_equiv_pos_site_id
_symmetry_equiv_pos_as_xyz
1 x,y,z
2 -x,-y,-z
_cell_length_a                   11.3356(15)
_cell_length_b                   12.1513(16)
_cell_length_c                   12.8611(17)
_cell_angle_alpha                87.543(1)
_cell_angle_beta                 68.761(1)
_cell_angle_gamma                71.799(1)
_cell_volume                     1563.63
loop_
_atom_site_label
_atom_site_type_symbol
_atom_site_fract_x
_atom_site_fract_y
_atom_site_fract_z
Cd1 Cd 0.347476(15) 0.782455(13) 0.290082(13)
O1 O 0.21965(16) 0.85066(13) 0.47805(14)
O2 O 0.22163(16) 0.98478(14) 0.35863(14)
O3 O 0.21789(16) 0.73772(14) 0.21557(14)
O4 O 0.41045(17) 0.59789(15) 0.16692(15)
N1 N 0.49155(18) 0.85435(16) 0.15247(16)
N2 N 0.87474(17) 1.01217(16) -0.01228(15)
N3 N 0.49964(18) 0.67017(16) 0.36283(16)
N4 N 0.86374(17) 0.50385(15) 0.52337(15)
C1 C 0.4860(2) 0.9656(2) 0.16108(19)
H1 H 0.4137 1.0162 0.2172
C2 C 0.5835(2) 1.0083(2) 0.09005(19)
H2 H 0.5763 1.0860 0.0988
C3 C 0.6919(2) 0.9347(2) 0.00579(19)
C4 C 0.6951(2) 0.8206(2) -0.0047(2)
H3 H 0.7649 0.7690 -0.0617
C5 C 0.5950(2) 0.7838(2) 0.0691(2)
H4 H 0.5991 0.7069 0.0610
C6 C 0.8016(2) 0.9776(2) -0.07200(19)
H5 H 0.8634 0.9166 -0.1300
H6 H 0.7631 1.0435 -0.1078
C7 C 0.9794(2) 1.0520(2) -0.09481(18)
H7 H 0.9385 1.1178 -0.1294
H8 H 1.0375 0.9901 -0.1530
C8 C 0.9390(2) 0.9132(2) 0.03934(19)
H9 H 0.9966 0.8498 -0.0174
H10 H 0.8714 0.8863 0.0946
C9 C 0.1934(2) 0.9563(2) 0.45771(19)
C10 C 0.1316(2) 1.0493(2) 0.5539(2)
H11 H 0.1202 1.0127 0.6238
H12 H 0.0441 1.0968 0.5561
C11 C 0.2190(2) 1.1273(2) 0.5420(2)
H13 H 0.2145 1.1757 0.4806
H14 H 0.1823 1.1784 0.6098
C12 C 0.3642(2) 1.06149(19) 0.5210(2)
C13 C 0.4634(2) 1.0648(2) 0.4201(2)
H15 H 0.4400 1.1083 0.3652
C14 C 0.4028(2) 0.9953(2) 0.6013(2)
H16 H 0.3384 0.9913 0.6699
C15 C 0.2964(2) 0.6411(2) 0.16380(19)
C16 C 0.2473(3) 0.5739(2) 0.1005(3)
H17 H 0.3076 0.5604 0.0229
H18 H 0.2531 0.4986 0.1305
C17 C 0.1132(3) 0.6277(3) 0.1036(4)
H19 H 0.1100 0.6996 0.0672
H20 H 0.0543 0.6482 0.1813
C18 C 0.0573(3) 0.5578(2) 0.0503(2)
C19 C 0.0667(3) 0.5728(3) -0.0567(2)
H21 H 0.1128 0.6214 -0.0975
C20 C -0.0093(4) 0.4824(3) 0.1065(2)
H22 H -0.0154 0.4686 0.1797
C21 C 0.5046(2) 0.7051(2) 0.4582(2)
H23 H 0.4477 0.7779 0.4925
C22 C 0.5889(2) 0.6393(2) 0.5078(2)
H24 H 0.5882 0.6676 0.5742
C23 C 0.6750(2) 0.53080(19) 0.45864(19)
C24 C 0.6711(2) 0.4949(2) 0.3602(2)
H25 H 0.7277 0.4227 0.3240
C25 C 0.5837(2) 0.5657(2) 0.3149(2)
H26 H 0.5832 0.5395 0.2482
C26 C 0.7675(2) 0.45228(19) 0.5107(2)
H27 H 0.7145 0.4349 0.5837
H28 H 0.8162 0.3796 0.4645
C27 C 0.9463(2) 0.53326(19) 0.41577(18)
H29 H 0.8898 0.5900 0.3841
H30 H 0.9928 0.4642 0.3641
C28 C 0.9530(2) 0.41756(19) 0.56882(18)
H31 H 0.9995 0.3479 0.5180
H32 H 0.9005 0.3966 0.6402
Cd1A Cd 0.652524(15) 1.217545(13) 0.709918(13)
Cd1A_2 Cd -0.347476(15) 0.217545(13) -0.290082(13)
Cd1A_3 Cd 1.652524(15) 1.217545(13) -0.290082(13)
Cd1A_4 Cd 1.652524(15) 0.217545(13) 0.709918(13)
O1A O 0.78035(16) 1.14934(13) 0.52195(14)
O2A O 0.77837(16) 1.01522(14) 0.64137(14)
O3A O -0.21789(16) 0.26228(14) -0.21557(14)
O3A_2 O 0.78211(16) 1.26228(14) 0.78443(14)
O4A O -0.41045(17) 0.40211(15) -0.16692(15)
O4A_2 O 0.58955(17) 1.40211(15) 0.83308(15)
N1A N 1.50845(18) 1.14565(16) -0.15247(16)
N1A_2 N 0.50845(18) 1.14565(16) 0.84753(16)
N2A N 1.12526(17) 0.98783(16) 0.01228(15)
N3A N 1.50036(18) 0.32983(16) 0.63717(16)
N3A_2 N 0.50036(18) 1.32983(16) 0.63717(16)
N4A N 1.13626(17) 0.49615(15) 0.47663(15)
C1A C 1.5140(2) 1.0344(2) -0.16108(19)
H1A H 1.5863 0.9838 -0.2172
C2A C 1.4165(2) 0.9917(2) -0.09005(19)
H2A H 1.4237 0.9140 -0.0988
C3A C 1.3081(2) 1.0653(2) -0.00579(19)
C4A C 1.3049(2) 1.1794(2) 0.0047(2)
H3A H 1.2351 1.2310 0.0617
C5A C 1.4050(2) 1.2162(2) -0.0691(2)
H4A H 1.4009 1.2931 -0.0610
C6A C 1.1984(2) 1.0224(2) 0.07200(19)
H5A H 1.1366 1.0834 0.1300
H6A H 1.2369 0.9565 0.1078
C7A C 1.0206(2) 0.9480(2) 0.09481(18)
H7A H 1.0615 0.8822 0.1294
H8A H 0.9625 1.0099 0.1530
C8A C 1.0610(2) 1.0868(2) -0.03934(19)
H9A H 1.0034 1.1502 0.0174
H10A H 1.1286 1.1137 -0.0946
C9A C 0.8066(2) 1.0437(2) 0.54229(19)
C10A C 0.8684(2) 0.9507(2) 0.4461(2)
H11A H 0.8798 0.9873 0.3762
H12A H 0.9559 0.9032 0.4439
C11A C 0.7810(2) 0.8727(2) 0.4580(2)
H13A H 0.7855 0.8243 0.5194
H14A H 0.8177 0.8216 0.3902
C12A C 0.6358(2) 0.93851(19) 0.4790(2)
C13A C 0.5366(2) 0.9352(2) 0.5799(2)
H15A H 0.5600 0.8917 0.6348
C14A C 0.5972(2) 1.0047(2) 0.3987(2)
H16A H 0.6616 1.0087 0.3301
C15A C -0.2964(2) 0.3589(2) -0.16380(19)
C16A C -0.2473(3) 0.4261(2) -0.1005(3)
H17A H -0.3076 0.4396 -0.0229
H18A H -0.2531 0.5014 -0.1305
C17A C -0.1132(3) 0.3723(3) -0.1036(4)
H19A H -0.1100 0.3004 -0.0672
H20A H -0.0543 0.3518 -0.1813
C18A C -0.0573(3) 0.4422(2) -0.0503(2)
C19A C -0.0667(3) 0.4272(3) 0.0567(2)
H21A H -0.1128 0.3786 0.0975
C20A C 0.0093(4) 0.5176(3) -0.1065(2)
H22A H 0.0154 0.5314 -0.1797
C21A C 1.4954(2) 0.2949(2) 0.5418(2)
H23A H 1.5523 0.2221 0.5075
C22A C 1.4111(2) 0.3607(2) 0.4922(2)
H24A H 1.4118 0.3324 0.4258
C23A C 1.3250(2) 0.46920(19) 0.54136(19)
C24A C 1.3289(2) 0.5051(2) 0.6398(2)
H25A H 1.2723 0.5773 0.6760
C25A C 1.4163(2) 0.4343(2) 0.6851(2)
H26A H 1.4168 0.4605 0.7518
C26A C 1.2325(2) 0.54772(19) 0.4893(2)
H27A H 1.2855 0.5651 0.4163
H28A H 1.1838 0.6204 0.5355
C27A C 1.0537(2) 0.46674(19) 0.58423(18)
H29A H 1.1102 0.4100 0.6159
H30A H 1.0072 0.5358 0.6359
C28A C 1.0470(2) 0.58244(19) 0.43118(18)
H31A H 1.0005 0.6521 0.4820
H32A H 1.0995 0.6034 0.3598
O5 O 0.86121(18) 0.21605(16) 0.30207(16)
H33 H 0.824(3) 0.194(2) 0.3680(16)
H34 H 0.818(3) 0.209(3) 0.261(2)
O6 O 0.27913(18) 0.32214(17) 0.29243(16)
H35 H 0.237(3) 0.372(2) 0.3503(19)
H36 H 0.223(3) 0.289(2) 0.290(2)
O7 O 0.1040(2) 0.20751(16) 0.30711(17)
H37 H 0.032(2) 0.213(3) 0.298(3)
H38 H 0.137(3) 0.1378(17) 0.323(3)
O8 O 0.50897(19) 0.34756(18) 0.14189(19)
H39 H 0.439(2) 0.335(3) 0.189(2)
H40 H 0.489(3) 0.4215(16) 0.138(3)
O9 O 0.7322(2) 0.19750(19) 0.16647(17)
H41 H 0.768(3) 0.146(2) 0.109(2)
H42 H 0.667(2) 0.249(2) 0.155(3)
loop_
_geom_bond_atom_site_label_1
_geom_bond_atom_site_label_2
_geom_bond_site_symmetry_1
_geom_bond_site_symmetry_2
Cd1 O1 1_555 1_555
O1 C9 1_555 1_555
O2 Cd1 1_555 1_555
O3 Cd1 1_555 1_555
O4 Cd1 1_555 1_555
N1 Cd1 1_555 1_555
N2 C6 1_555 1_555
N3 Cd1 1_555 1_555
N4 C26 1_555 1_555
C1 N1 1_555 1_555
H1 C1 1_555 1_555
C2 C1 1_555 1_555
H2 C2 1_555 1_555
C3 C2 1_555 1_555
C4 C3 1_555 1_555
H3 C4 1_555 1_555
C5 N1 1_555 1_555
H4 C5 1_555 1_555
C6 C3 1_555 1_555
H5 C6 1_555 1_555
H6 C6 1_555 1_555
C7 N2 1_555 1_555
H7 C7 1_555 1_555
H8 C7 1_555 1_555
C8 N2 1_555 1_555
H9 C8 1_555 1_555
H10 C8 1_555 1_555
C9 O2 1_555 1_555
C10 C9 1_555 1_555
H11 C10 1_555 1_555
H12 C10 1_555 1_555
C11 C10 1_555 1_555
H13 C11 1_555 1_555
H14 C11 1_555 1_555
C12 C11 1_555 1_555
C13 C12 1_555 1_555
H15 C13 1_555 1_555
C14 C12 1_555 1_555
H16 C14 1_555 1_555
C15 O3 1_555 1_555
C16 C15 1_555 1_555
H17 C16 1_555 1_555
H18 C16 1_555 1_555
C17 C16 1_555 1_555
H19 C17 1_555 1_555
H20 C17 1_555 1_555
C18 C17 1_555 1_555
C19 C18 1_555 1_555
H21 C19 1_555 1_555
C20 C18 1_555 1_555
H22 C20 1_555 1_555
C21 N3 1_555 1_555
H23 C21 1_555 1_555
C22 C21 1_555 1_555
H24 C22 1_555 1_555
C23 C22 1_555 1_555
C24 C23 1_555 1_555
H25 C24 1_555 1_555
C25 N3 1_555 1_555
H26 C25 1_555 1_555
C26 C23 1_555 1_555
H27 C26 1_555 1_555
H28 C26 1_555 1_555
C27 N4 1_555 1_555
H29 C27 1_555 1_555
H30 C27 1_555 1_555
C28 N4 1_555 1_555
H31 C28 1_555 1_555
H32 C28 1_555 1_555
O5 H33 1_555 1_555
H34 O5 1_555 1_555
O6 H35 1_555 1_555
H36 O6 1_555 1_555
O7 H37 1_555 1_555
H38 O7 1_555 1_555
O8 H39 1_555 1_555
H40 O8 1_555 1_555
O9 H41 1_555 1_555
H42 O9 1_555 1_555
Cd1A O1A 1_555 1_555
Cd1A_2 O3A 1_555 1_555
Cd1A_3 N1A 1_555 1_555
Cd1A_4 N3A 1_555 1_555
O1A C9A 1_555 1_555
O2A Cd1A 1_555 1_555
O3A C15A 1_555 1_555
O3A_2 Cd1A 1_555 1_555
O4A Cd1A_2 1_555 1_555
O4A_2 Cd1A 1_555 1_555
N1A C1A 1_555 1_555
N1A_2 Cd1A 1_555 1_555
N2A C6A 1_555 1_555
N3A C21A 1_555 1_555
N3A_2 Cd1A 1_555 1_555
N4A C26A 1_555 1_555
C1A H1A 1_555 1_555
C2A C1A 1_555 1_555
H2A C2A 1_555 1_555
C3A C2A 1_555 1_555
C4A C3A 1_555 1_555
H3A C4A 1_555 1_555
C5A N1A 1_555 1_555
H4A C5A 1_555 1_555
C6A C3A 1_555 1_555
H5A C6A 1_555 1_555
H6A C6A 1_555 1_555
C7A C8 1_555 1_555
H7A C7A 1_555 1_555
H8A C7A 1_555 1_555
C8A C7 1_555 1_555
H9A C8A 1_555 1_555
H10A C8A 1_555 1_555
C9A O2A 1_555 1_555
C10A C9A 1_555 1_555
H11A C10A 1_555 1_555
H12A C10A 1_555 1_555
C11A C10A 1_555 1_555
H13A C11A 1_555 1_555
H14A C11A 1_555 1_555
C12A C11A 1_555 1_555
C13A C14 1_555 1_555
H15A C13A 1_555 1_555
C14A C13 1_555 1_555
H16A C14A 1_555 1_555
C15A O4A 1_555 1_555
C16A C15A 1_555 1_555
H17A C16A 1_555 1_555
H18A C16A 1_555 1_555
C17A C16A 1_555 1_555
H19A C17A 1_555 1_555
H20A C17A 1_555 1_555
C18A C17A 1_555 1_555
C19A C20 1_555 1_555
H21A C19A 1_555 1_555
C20A C19 1_555 1_555
H22A C20A 1_555 1_555
C21A H23A 1_555 1_555
C22A C21A 1_555 1_555
H24A C22A 1_555 1_555
C23A C22A 1_555 1_555
C24A C23A 1_555 1_555
H25A C24A 1_555 1_555
C25A N3A 1_555 1_555
H26A C25A 1_555 1_555
C26A C23A 1_555 1_555
H27A C26A 1_555 1_555
H28A C26A 1_555 1_555
C27A C28 1_555 1_555
H29A C27A 1_555 1_555
H30A C27A 1_555 1_555
C28A C27 1_555 1_555
H31A C28A 1_555 1_555
H32A C28A 1_555 1_555
O4 C15 1_555 1_555
C4 C5 1_555 1_555
C24 C25 1_555 1_555
N2A C7A 1_555 1_555
N2A C8A 1_555 1_555
N4A C27A 1_555 1_555
N4A C28A 1_555 1_555
C4A C5A 1_555 1_555
C12A C13A 1_555 1_555
C12A C14A 1_555 1_555
C18A C19A 1_555 1_555
C18A C20A 1_555 1_555
C24A C25A 1_555 1_555

#END
