
#######################################################################
#
#                 Cambridge Crystallographic Data Centre
#                                CCDC 
#
#######################################################################
#
# If this CIF has been generated from an entry in the Cambridge 
# Structural Database, then it will include bibliographic, chemical, 
# crystal, experimental, refinement or atomic coordinate data resulting 
# from the CCDC's data processing and validation procedures.
#
#######################################################################

data_XEGJIE
_chemical_formula_moiety         '(C66 H74 Gd2 N20 O47)n'
_symmetry_cell_setting           monoclinic
_symmetry_space_group_name_H-M   'P 21/n'
_symmetry_Int_Tables_number      14
_space_group_name_Hall           '-P 2yn'
loop_
_symmetry_equiv_pos_site_id
_symmetry_equiv_pos_as_xyz
1 x,y,z
2 1/2-x,1/2+y,1/2-z
3 -x,-y,-z
4 1/2+x,1/2-y,1/2+z
_cell_length_a                   13.103(4)
_cell_length_b                   30.424(6)
_cell_length_c                   23.434(5)
_cell_angle_alpha                90
_cell_angle_beta                 101.392(5)
_cell_angle_gamma                90
_cell_volume                     9157.82
loop_
_atom_site_label
_atom_site_type_symbol
_atom_site_fract_x
_atom_site_fract_y
_atom_site_fract_z
_atom_site_U_iso_or_equiv
_atom_site_thermal_displace_type
Gd1 Gd 0.14953(2) 0.230671(8) 0.271487(12) 0.0165 Uani
Gd2 Gd -0.15218(2) 0.258308(8) 0.203412(12) 0.0165 Uani
O1 O 0.0923(3) 0.22773(12) 0.36266(17) 0.0227 Uani
O2 O -0.0434(3) 0.24378(12) 0.29406(17) 0.0207 Uani
O3 O -0.4660(3) 0.25868(11) 0.68147(16) 0.0178 Uani
O4 O -0.5812(3) 0.22641(13) 0.61350(17) 0.0249 Uani
O5 O -0.3639(5) 0.2872(3) 0.3582(3) 0.0834 Uani
O6 O -0.3633(5) 0.2960(2) 0.4478(2) 0.0630 Uani
O7 O -0.1231(4) 0.1756(2) 0.5649(2) 0.0614 Uani
O8 O 0.0320(4) 0.1859(2) 0.5542(2) 0.0588 Uani
O9 O -0.3022(4) 0.16125(15) 0.4452(2) 0.0436 Uani
O10 O -0.4664(4) 0.17538(16) 0.4353(2) 0.0460 Uani
O11 O -0.0822(4) 0.2807(2) 0.5741(3) 0.0629 Uani
O12 O -0.1818(4) 0.33084(17) 0.5959(3) 0.0587 Uani
O13 O 0.1113(3) 0.30693(12) 0.28463(18) 0.0250 Uani
O14 O -0.0394(3) 0.32137(11) 0.22301(17) 0.0225 Uani
O15 O 0.2524(3) 0.66398(12) 0.18296(17) 0.0246 Uani
O16 O 0.2507(3) 0.67867(12) 0.27497(18) 0.0256 Uani
O17 O -0.1295(3) 0.46841(13) 0.16616(19) 0.0318 Uani
O18 O -0.0619(3) 0.52316(13) 0.2185(2) 0.0386 Uani
O19 O 0.3594(4) 0.42344(15) 0.3255(3) 0.0526 Uani
O20 O 0.3124(4) 0.49068(16) 0.3279(4) 0.0884 Uani
O21 O 0.0790(4) 0.50355(14) 0.3604(2) 0.0391 Uani
O22 O 0.1308(6) 0.56685(18) 0.3935(2) 0.0838 Uani
O23 O 0.1810(4) 0.46549(14) 0.1630(2) 0.0398 Uani
O24 O 0.1354(4) 0.51979(15) 0.1054(2) 0.0410 Uani
O25 O 0.0429(3) 0.16615(11) 0.25259(18) 0.0227 Uani
O26 O -0.1198(3) 0.18005(12) 0.20505(18) 0.0235 Uani
O27 O -0.2414(3) -0.17612(12) 0.33111(17) 0.0241 Uani
O28 O -0.2764(3) -0.18666(12) 0.23549(18) 0.0275 Uani
O29 O 0.1226(4) 0.02020(15) 0.3329(2) 0.0438 Uani
O30 O 0.0635(4) -0.03295(15) 0.2753(3) 0.0589 Uani
O31 O -0.3673(4) 0.06384(15) 0.1744(3) 0.0551 Uani
O32 O -0.3260(4) -0.00414(14) 0.1884(3) 0.0590 Uani
O33 O -0.1709(4) 0.02350(13) 0.3452(2) 0.0376 Uani
O34 O -0.1068(4) -0.02998(16) 0.4018(2) 0.0520 Uani
O35 O -0.1039(6) -0.01754(16) 0.1390(3) 0.0745 Uani
O36 O -0.1420(10) -0.0812(2) 0.1138(3) 0.1463 Uani
O37 O 0.2981(3) 0.25735(13) 0.33503(19) 0.0276 Uani
O38 O 0.2446(4) 0.27460(13) 0.21423(19) 0.0326 Uani
O39 O -0.2733(4) 0.22828(14) 0.1258(2) 0.0355 Uani
O40 O -0.2863(3) 0.22662(13) 0.2451(2) 0.0296 Uani
N1 N -0.3256(4) 0.28208(18) 0.4080(2) 0.0323 Uani
N2 N -0.0604(4) 0.19162(19) 0.5387(2) 0.0332 Uani
N3 N -0.3751(4) 0.17922(17) 0.4604(2) 0.0319 Uani
N4 N -0.1686(4) 0.29550(19) 0.5777(2) 0.0353 Uani
N5 N -0.0636(4) 0.48460(15) 0.2048(2) 0.0238 Uani
N6 N 0.2933(4) 0.45264(17) 0.3156(3) 0.0398 Uani
N7 N 0.1165(5) 0.53953(16) 0.3550(2) 0.0350 Uani
N8 N 0.1607(4) 0.50407(15) 0.1541(2) 0.0257 Uani
N9 N 0.0607(4) 0.00466(16) 0.2908(3) 0.0316 Uani
N10 N -0.3040(4) 0.03469(17) 0.1896(3) 0.0380 Uani
N11 N -0.1445(4) -0.01454(17) 0.3539(3) 0.0326 Uani
N12 N -0.1348(5) -0.05281(17) 0.1482(2) 0.0389 Uani
N13 N 0.3670(4) 0.29008(17) 0.4204(2) 0.0298 Uani
N14 N 0.3553(5) 0.3300(2) 0.2045(3) 0.0444 Uani
N15 N -0.3530(4) 0.19070(17) 0.0461(2) 0.0359 Uani
N16 N -0.3899(4) 0.17315(18) 0.2682(3) 0.0437 Uani
C1 C -0.0027(4) 0.23583(16) 0.3466(2) 0.0184 Uani
C2 C -0.0700(4) 0.23714(17) 0.3912(3) 0.0206 Uani
C3 C -0.1660(4) 0.25757(17) 0.3798(3) 0.0210 Uani
H1 H -0.1898 0.2711 0.3441 0.0250 Uiso
C4 C -0.2266(5) 0.25774(19) 0.4220(3) 0.0229 Uani
C5 C -0.1963(5) 0.23643(18) 0.4759(3) 0.0248 Uani
C6 C -0.0991(5) 0.21663(19) 0.4856(3) 0.0249 Uani
C7 C -0.0345(4) 0.21750(17) 0.4450(2) 0.0211 Uani
H2 H 0.0316 0.2051 0.4538 0.0250 Uiso
C8 C -0.2672(5) 0.23548(19) 0.5191(3) 0.0241 Uani
C9 C -0.3546(5) 0.20884(19) 0.5108(3) 0.0257 Uani
C10 C -0.4277(5) 0.21018(18) 0.5460(2) 0.0238 Uani
H3 H -0.4858 0.1920 0.5386 0.0280 Uiso
C11 C -0.4127(4) 0.23931(17) 0.5929(2) 0.0194 Uani
C12 C -0.3285(5) 0.26683(18) 0.6023(3) 0.0255 Uani
H4 H -0.3194 0.2869 0.6328 0.0310 Uiso
C13 C -0.2567(5) 0.26464(19) 0.5660(3) 0.0267 Uani
C14 C -0.4928(4) 0.24132(16) 0.6317(2) 0.0187 Uani
C15 C 0.0439(4) 0.33192(17) 0.2564(2) 0.0187 Uani
C16 C 0.0675(4) 0.38084(17) 0.2612(2) 0.0198 Uani
C17 C -0.0067(5) 0.41082(17) 0.2343(2) 0.0219 Uani
H5 H -0.0720 0.4013 0.2153 0.0260 Uiso
C18 C 0.0178(4) 0.45498(17) 0.2362(3) 0.0203 Uani
C19 C 0.1138(5) 0.47167(17) 0.2628(3) 0.0237 Uani
C20 C 0.1860(5) 0.43998(18) 0.2893(3) 0.0258 Uani
C21 C 0.1627(4) 0.39523(18) 0.2892(3) 0.0232 Uani
H6 H 0.2119 0.3754 0.3082 0.0280 Uiso
C22 C 0.1419(4) 0.51901(17) 0.2554(3) 0.0210 Uani
C23 C 0.1443(4) 0.55128(18) 0.2991(3) 0.0230 Uani
C24 C 0.1723(4) 0.59413(18) 0.2918(3) 0.0233 Uani
H7 H 0.1746 0.6143 0.3219 0.0280 Uiso
C25 C 0.1970(4) 0.60735(17) 0.2397(2) 0.0195 Uani
C26 C 0.1903(4) 0.57756(18) 0.1947(3) 0.0221 Uani
H8 H 0.2034 0.5864 0.1589 0.0260 Uiso
C27 C 0.1640(4) 0.53413(18) 0.2035(3) 0.0208 Uani
C28 C 0.2342(4) 0.65317(17) 0.2319(3) 0.0210 Uani
C29 C -0.0473(5) 0.15556(17) 0.2296(3) 0.0226 Uani
C30 C -0.0733(4) 0.10665(18) 0.2305(3) 0.0213 Uani
C31 C 0.0022(5) 0.07764(17) 0.2568(3) 0.0236 Uani
H9 H 0.0692 0.0875 0.2720 0.0290 Uiso
C32 C -0.0225(5) 0.03356(18) 0.2604(3) 0.0254 Uani
C33 C -0.1217(4) 0.01642(17) 0.2390(3) 0.0220 Uani
C34 C -0.1950(4) 0.04753(18) 0.2137(3) 0.0259 Uani
C35 C -0.1718(5) 0.09185(19) 0.2091(3) 0.0268 Uani
H10 H -0.2232 0.1113 0.1916 0.0320 Uiso
C36 C -0.1461(5) -0.03066(18) 0.2491(3) 0.0247 Uani
C37 C -0.1584(4) -0.04528(18) 0.3033(3) 0.0238 Uani
C38 C -0.1833(4) -0.08811(18) 0.3146(3) 0.0249 Uani
H11 H -0.1876 -0.0965 0.3522 0.0290 Uiso
C39 C -0.2017(4) -0.11838(17) 0.2699(3) 0.0220 Uani
C40 C -0.1857(5) -0.10609(18) 0.2152(3) 0.0264 Uani
H12 H -0.1953 -0.1263 0.1849 0.0320 Uiso
C41 C -0.1554(5) -0.06369(19) 0.2063(3) 0.0278 Uani
C42 C -0.2418(4) -0.16374(17) 0.2794(3) 0.0211 Uani
C43 C 0.3224(5) 0.2571(2) 0.3888(3) 0.0296 Uani
H13 H 0.3080 0.2318 0.4081 0.0360 Uiso
C44 C 0.3888(5) 0.3311(2) 0.3926(3) 0.0375 Uani
H14 H 0.3703 0.3279 0.3511 0.0560 Uiso
H15 H 0.4617 0.3378 0.4036 0.0560 Uiso
H16 H 0.3489 0.3545 0.4048 0.0560 Uiso
C45 C 0.3921(6) 0.2886(3) 0.4837(3) 0.0429 Uani
H17 H 0.3745 0.2602 0.4968 0.0640 Uiso
H18 H 0.3531 0.3108 0.4992 0.0640 Uiso
H19 H 0.4652 0.2938 0.4969 0.0640 Uiso
C46 C 0.3256(6) 0.2934(3) 0.2232(3) 0.0487 Uani
H20 H 0.3778 0.2787 0.2489 0.0580 Uiso
C47 C 0.2706(7) 0.3567(3) 0.1683(4) 0.0670 Uani
H21 H 0.2710 0.3522 0.1278 0.1000 Uiso
H22 H 0.2818 0.3873 0.1776 0.1000 Uiso
H23 H 0.2045 0.3478 0.1763 0.1000 Uiso
C48 C 0.4508(10) 0.3494(4) 0.2146(5) 0.1191 Uani
H24 H 0.5025 0.3285 0.2319 0.1790 Uiso
H25 H 0.4510 0.3738 0.2406 0.1790 Uiso
H26 H 0.4662 0.3597 0.1785 0.1790 Uiso
C49 C -0.3043(5) 0.2258(2) 0.0727(3) 0.0327 Uani
H27 H -0.2933 0.2497 0.0500 0.0390 Uiso
C50 C -0.3759(6) 0.1532(2) 0.0800(4) 0.0535 Uani
H28 H -0.3347 0.1285 0.0726 0.0800 Uiso
H29 H -0.4484 0.1459 0.0690 0.0800 Uiso
H30 H -0.3596 0.1604 0.1206 0.0800 Uiso
C51 C -0.3842(6) 0.1894(3) -0.0171(3) 0.0493 Uani
H31 H -0.3704 0.2173 -0.0330 0.0740 Uiso
H32 H -0.4572 0.1830 -0.0277 0.0740 Uiso
H33 H -0.3454 0.1669 -0.0323 0.0740 Uiso
C52 C -0.3001(5) 0.1913(2) 0.2685(3) 0.0285 Uani
H34 H -0.2413 0.1765 0.2879 0.0340 Uiso
C53 C -0.4018(6) 0.1319(2) 0.2978(3) 0.0439 Uani
H35 H -0.3344 0.1209 0.3157 0.0650 Uiso
H36 H -0.4364 0.1109 0.2700 0.0650 Uiso
H37 H -0.4424 0.1368 0.3271 0.0650 Uiso
C54 C -0.4831(8) 0.1929(5) 0.2356(9) 0.2017 Uani
H38 H -0.4649 0.2172 0.2134 0.2010 Uiso
H39 H -0.5255 0.2032 0.2619 0.2010 Uiso
H40 H -0.5212 0.1715 0.2097 0.2010 Uiso
Gd1C Gd -0.35047(2) 0.269329(8) 0.771487(12) 0.0165 Uani
Gd1A Gd 0.35047(2) 0.730671(8) 0.228513(12) 0.0165 Uani
Gd2C Gd -0.65218(2) 0.241692(8) 0.703412(12) 0.0165 Uani
Gd2A Gd -0.34782(2) -0.241692(8) 0.296588(12) 0.0165 Uani
O3C O 0.0340(3) 0.24132(11) 0.18147(16) 0.0178 Uani
O4C O -0.0812(3) 0.27359(13) 0.11350(17) 0.0249 Uani
O15A O 0.2476(3) 0.16398(12) 0.31704(17) 0.0246 Uani
O16A O 0.2493(3) 0.17867(12) 0.22503(18) 0.0256 Uani
O27A O -0.2586(3) 0.32388(12) 0.16889(17) 0.0241 Uani
O28A O -0.2236(3) 0.31334(12) 0.26451(18) 0.0275 Uani
O41 O -1.3791(4) 0.10723(16) 0.5363(2) 0.0486 Uani
N17 N -1.3011(5) 0.0502(2) 0.4981(3) 0.0507 Uani
C55 C -1.3097(6) 0.0798(2) 0.5398(3) 0.0442 Uani
H41 H -1.2591 0.0793 0.5737 0.0530 Uiso
C56 C -1.3757(7) 0.0487(4) 0.4444(5) 0.0897 Uani
H42 H -1.4216 0.0242 0.4450 0.1050 Uiso
H43 H -1.3400 0.0453 0.4126 0.1050 Uiso
H44 H -1.4153 0.0754 0.4396 0.1050 Uiso
C57 C -1.2221(8) 0.0165(3) 0.5088(4) 0.0705 Uani
H45 H -1.1795 0.0206 0.5467 0.1050 Uiso
H46 H -1.1797 0.0183 0.4798 0.1050 Uiso
H47 H -1.2548 -0.0119 0.5068 0.1050 Uiso
O42 O -1.1291(4) 0.13331(16) 0.3505(2) 0.0471 Uani
N18 N -1.0091(4) 0.10745(17) 0.4267(3) 0.0386 Uani
C58 C -1.1057(6) 0.1155(2) 0.3978(3) 0.0408 Uani
H48 H -1.1600 0.1067 0.4154 0.0490 Uiso
C59 C -0.9897(9) 0.0850(3) 0.4821(4) 0.0783 Uani
H49 H -1.0516 0.0855 0.4983 0.1070 Uiso
H50 H -0.9342 0.0994 0.5083 0.1070 Uiso
H51 H -0.9706 0.0550 0.4767 0.1070 Uiso
C60 C -0.9197(6) 0.1185(2) 0.4008(3) 0.0457 Uani
H52 H -0.8835 0.0920 0.3944 0.0680 Uiso
H53 H -0.8736 0.1375 0.4265 0.0680 Uiso
H54 H -0.9433 0.1331 0.3642 0.0680 Uiso
O43 O -0.1608(7) 0.3450(3) 0.4495(5) 0.1284 Uani
N19 N -0.0777(7) 0.4085(3) 0.4396(3) 0.0706 Uani
C61 C -0.1338(8) 0.3820(3) 0.4669(5) 0.0719 Uani
H55 H -0.1533 0.3921 0.5006 0.0860 Uiso
C62 C -0.0413(17) 0.4495(5) 0.4647(7) 0.1894 Uani
H56 H -0.0602 0.4524 0.5020 0.1900 Uiso
H57 H -0.0721 0.4729 0.4397 0.1900 Uiso
H58 H 0.0331 0.4508 0.4693 0.1900 Uiso
C63 C -0.0457(8) 0.3970(4) 0.3860(4) 0.0766 Uani
H59 H 0.0287 0.3941 0.3930 0.1050 Uiso
H60 H -0.0674 0.4195 0.3575 0.1050 Uiso
H61 H -0.0772 0.3695 0.3718 0.1050 Uiso
O44 O -0.7632(3) 0.19280(15) 0.48612(19) 0.0357 Uani
N20 N -0.6684(4) 0.13351(17) 0.5241(2) 0.0324 Uani
C64 C -0.7271(5) 0.1693(2) 0.5271(3) 0.0305 Uani
H62 H -0.7413 0.1767 0.5633 0.0360 Uiso
C65 C -0.6471(6) 0.1176(2) 0.4692(3) 0.0401 Uani
H63 H -0.6846 0.0907 0.4587 0.0600 Uiso
H64 H -0.5738 0.1123 0.4732 0.0600 Uiso
H65 H -0.6688 0.1392 0.4395 0.0600 Uiso
C66 C -0.6233(7) 0.1082(2) 0.5754(3) 0.0507 Uani
H66 H -0.6381 0.1225 0.6094 0.0760 Uiso
H67 H -0.5493 0.1063 0.5784 0.0760 Uiso
H68 H -0.6527 0.0792 0.5723 0.0760 Uiso
O45 O 0.262(2) 0.4126(7) 0.4634(19) 0.6440 Uani
O46 O -0.4452(15) 0.3955(11) 0.6105(8) 0.3750 Uani
O47 O -0.411(2) 0.3990(9) 0.5386(9) 0.4076 Uani
loop_
_atom_site_aniso_label
_atom_site_aniso_U_11
_atom_site_aniso_U_22
_atom_site_aniso_U_33
_atom_site_aniso_U_23
_atom_site_aniso_U_13
_atom_site_aniso_U_12
Gd1 0.01989(16) 0.01032(14) 0.02146(16) 0.00116(10) 0.00938(11) 0.00106(10)
Gd2 0.01919(16) 0.01040(14) 0.02209(17) 0.00077(10) 0.00923(11) 0.00041(10)
O1 0.023(2) 0.024(2) 0.023(2) 0.0032(17) 0.0092(18) 0.0038(16)
O2 0.028(2) 0.0168(19) 0.020(2) 0.0015(16) 0.0115(17) 0.0031(16)
O3 0.021(2) 0.0157(19) 0.019(2) -0.0027(16) 0.0099(16) 0.0011(15)
O4 0.023(2) 0.031(2) 0.023(2) -0.0045(18) 0.0100(18) -0.0057(17)
O5 0.062(4) 0.145(7) 0.049(4) 0.032(4) 0.025(3) 0.056(4)
O6 0.069(4) 0.076(4) 0.053(4) 0.014(3) 0.034(3) 0.031(3)
O7 0.049(3) 0.082(4) 0.058(4) 0.033(3) 0.022(3) 0.010(3)
O8 0.044(3) 0.089(4) 0.046(3) 0.025(3) 0.015(3) 0.016(3)
O9 0.051(3) 0.036(3) 0.056(3) -0.015(2) 0.040(3) -0.008(2)
O10 0.051(3) 0.051(3) 0.038(3) -0.018(2) 0.014(2) -0.015(2)
O11 0.052(4) 0.069(4) 0.076(4) -0.028(3) 0.033(3) -0.022(3)
O12 0.069(4) 0.043(3) 0.077(4) -0.020(3) 0.046(3) -0.027(3)
O13 0.028(2) 0.0125(19) 0.032(2) 0.0010(17) 0.0000(18) 0.0007(16)
O14 0.027(2) 0.0105(18) 0.032(2) 0.0014(16) 0.0108(19) -0.0007(16)
O15 0.030(2) 0.018(2) 0.026(2) 0.0027(17) 0.0058(18) -0.0064(17)
O16 0.032(2) 0.016(2) 0.032(2) -0.0051(18) 0.0142(19) -0.0066(16)
O17 0.031(2) 0.021(2) 0.040(3) 0.0011(19) -0.001(2) 0.0014(18)
O18 0.034(3) 0.011(2) 0.068(3) -0.008(2) 0.003(2) 0.0059(17)
O19 0.030(3) 0.030(3) 0.089(4) 0.019(3) -0.010(3) -0.002(2)
O20 0.049(4) 0.022(3) 0.169(7) -0.010(3) -0.040(4) -0.004(2)
O21 0.063(3) 0.022(2) 0.037(3) 0.000(2) 0.021(2) -0.012(2)
O22 0.181(7) 0.042(3) 0.044(3) -0.023(3) 0.060(4) -0.060(4)
O23 0.053(3) 0.024(2) 0.047(3) -0.007(2) 0.021(2) -0.005(2)
O24 0.062(3) 0.030(2) 0.031(3) -0.006(2) 0.009(2) -0.003(2)
O25 0.019(2) 0.0103(18) 0.040(3) 0.0017(17) 0.0086(18) -0.0001(15)
O26 0.021(2) 0.016(2) 0.035(2) 0.0016(17) 0.0093(18) 0.0008(16)
O27 0.028(2) 0.018(2) 0.027(2) 0.0011(17) 0.0068(18) -0.0054(16)
O28 0.041(3) 0.015(2) 0.031(2) -0.0076(18) 0.018(2) -0.0071(17)
O29 0.040(3) 0.031(3) 0.057(3) 0.006(2) 0.001(3) 0.004(2)
O30 0.048(3) 0.018(3) 0.106(5) -0.006(3) 0.004(3) 0.005(2)
O31 0.030(3) 0.026(3) 0.100(5) 0.018(3) -0.010(3) -0.005(2)
O32 0.036(3) 0.016(2) 0.117(5) -0.002(3) -0.004(3) -0.008(2)
O33 0.056(3) 0.013(2) 0.051(3) -0.009(2) 0.028(2) -0.0092(19)
O34 0.084(4) 0.035(3) 0.032(3) -0.004(2) -0.001(3) -0.002(3)
O35 0.156(6) 0.021(3) 0.063(4) 0.000(3) 0.062(4) -0.015(3)
O36 0.338(14) 0.067(5) 0.061(5) -0.030(4) 0.105(7) -0.110(7)
O37 0.025(2) 0.027(2) 0.029(3) 0.0049(18) 0.0007(19) -0.0055(17)
O38 0.044(3) 0.027(2) 0.032(3) -0.0041(19) 0.020(2) -0.024(2)
O39 0.039(3) 0.030(2) 0.035(3) -0.005(2) 0.001(2) -0.0049(19)
O40 0.028(2) 0.019(2) 0.047(3) 0.0023(19) 0.020(2) -0.0014(17)
N1 0.039(3) 0.038(3) 0.025(3) 0.009(2) 0.019(3) 0.011(2)
N2 0.030(3) 0.047(3) 0.025(3) 0.011(3) 0.011(3) 0.002(3)
N3 0.037(3) 0.033(3) 0.030(3) -0.008(2) 0.017(3) -0.013(2)
N4 0.037(3) 0.039(3) 0.036(3) -0.018(3) 0.022(3) -0.014(3)
N5 0.024(3) 0.016(3) 0.032(3) 0.002(2) 0.007(2) 0.001(2)
N6 0.034(3) 0.023(3) 0.055(4) 0.003(3) -0.009(3) -0.007(2)
N7 0.057(4) 0.017(3) 0.034(3) 0.000(2) 0.016(3) -0.011(2)
N8 0.031(3) 0.018(3) 0.031(3) 0.001(2) 0.013(2) 0.000(2)
N9 0.026(3) 0.017(3) 0.055(4) 0.005(2) 0.016(3) 0.002(2)
N10 0.036(3) 0.018(3) 0.057(4) 0.003(3) 0.002(3) -0.001(2)
N11 0.034(3) 0.022(3) 0.046(4) -0.009(3) 0.018(3) -0.008(2)
N12 0.065(4) 0.022(3) 0.034(3) -0.007(3) 0.020(3) -0.013(3)
N13 0.029(3) 0.031(3) 0.027(3) 0.008(2) 0.000(2) -0.003(2)
N14 0.056(4) 0.040(4) 0.039(4) -0.002(3) 0.014(3) -0.027(3)
N15 0.038(3) 0.022(3) 0.044(4) -0.004(2) -0.001(3) -0.001(2)
N16 0.033(3) 0.027(3) 0.073(5) 0.011(3) 0.015(3) -0.004(2)
C1 0.027(3) 0.011(3) 0.019(3) 0.002(2) 0.009(2) 0.000(2)
C2 0.024(3) 0.015(3) 0.027(3) -0.004(2) 0.015(3) -0.004(2)
C3 0.026(3) 0.018(3) 0.022(3) 0.003(2) 0.012(2) 0.002(2)
C4 0.026(3) 0.024(3) 0.021(3) -0.002(2) 0.010(3) 0.000(2)
C5 0.029(3) 0.023(3) 0.025(3) -0.003(2) 0.012(3) -0.008(2)
C6 0.034(4) 0.021(3) 0.022(3) 0.001(2) 0.011(3) -0.002(3)
C7 0.027(3) 0.013(3) 0.025(3) 0.002(2) 0.009(3) 0.003(2)
C8 0.029(3) 0.027(3) 0.020(3) -0.001(2) 0.014(3) -0.001(2)
C9 0.031(3) 0.025(3) 0.025(3) 0.000(3) 0.015(3) 0.000(3)
C10 0.032(3) 0.021(3) 0.020(3) -0.001(2) 0.009(3) -0.003(2)
C11 0.024(3) 0.020(3) 0.016(3) 0.002(2) 0.008(2) -0.001(2)
C12 0.035(4) 0.017(3) 0.027(3) -0.003(2) 0.012(3) -0.003(2)
C13 0.033(4) 0.021(3) 0.028(3) -0.004(2) 0.011(3) -0.009(2)
C14 0.026(3) 0.010(3) 0.021(3) 0.005(2) 0.007(2) 0.005(2)
C15 0.025(3) 0.016(3) 0.019(3) -0.005(2) 0.014(2) 0.002(2)
C16 0.025(3) 0.012(3) 0.025(3) 0.001(2) 0.011(2) 0.000(2)
C17 0.028(3) 0.016(3) 0.024(3) 0.001(2) 0.011(3) -0.002(2)
C18 0.021(3) 0.011(3) 0.030(3) -0.002(2) 0.008(2) -0.002(2)
C19 0.033(3) 0.012(3) 0.027(3) 0.001(2) 0.008(3) 0.000(2)
C20 0.030(3) 0.015(3) 0.032(3) 0.001(2) 0.005(3) -0.005(2)
C21 0.023(3) 0.016(3) 0.031(3) 0.002(2) 0.006(3) 0.001(2)
C22 0.022(3) 0.014(3) 0.027(3) -0.003(2) 0.005(2) -0.002(2)
C23 0.026(3) 0.017(3) 0.027(3) -0.001(2) 0.008(3) -0.003(2)
C24 0.026(3) 0.016(3) 0.029(3) -0.001(2) 0.008(3) -0.002(2)
C25 0.018(3) 0.015(3) 0.025(3) 0.000(2) 0.003(2) -0.001(2)
C26 0.024(3) 0.019(3) 0.025(3) 0.002(2) 0.009(2) 0.002(2)
C27 0.020(3) 0.015(3) 0.028(3) -0.005(2) 0.006(2) -0.004(2)
C28 0.015(3) 0.015(3) 0.033(4) -0.001(3) 0.005(2) -0.001(2)
C29 0.026(3) 0.011(3) 0.032(3) -0.001(2) 0.009(3) 0.001(2)
C30 0.025(3) 0.015(3) 0.026(3) 0.000(2) 0.010(3) -0.002(2)
C31 0.026(3) 0.015(3) 0.034(4) 0.001(2) 0.016(3) 0.000(2)
C32 0.026(3) 0.015(3) 0.039(4) 0.003(3) 0.016(3) 0.004(2)
C33 0.028(3) 0.014(3) 0.027(3) -0.005(2) 0.013(3) -0.002(2)
C34 0.020(3) 0.018(3) 0.041(4) -0.002(3) 0.009(3) -0.005(2)
C35 0.033(4) 0.017(3) 0.032(3) 0.005(3) 0.010(3) 0.006(2)
C36 0.028(3) 0.013(3) 0.033(3) 0.002(2) 0.006(3) -0.002(2)
C37 0.026(3) 0.014(3) 0.033(3) -0.008(2) 0.010(3) -0.003(2)
C38 0.027(3) 0.018(3) 0.031(3) 0.000(2) 0.009(3) 0.003(2)
C39 0.020(3) 0.014(3) 0.034(3) -0.002(2) 0.010(3) -0.004(2)
C40 0.034(4) 0.017(3) 0.030(3) -0.005(2) 0.011(3) -0.001(2)
C41 0.039(4) 0.016(3) 0.031(4) 0.002(3) 0.013(3) -0.006(2)
C42 0.014(3) 0.014(3) 0.038(4) 0.004(3) 0.012(3) 0.003(2)
C43 0.021(3) 0.026(3) 0.041(4) 0.010(3) 0.004(3) 0.002(2)
C44 0.047(4) 0.022(3) 0.042(4) 0.004(3) 0.005(3) -0.005(3)
C45 0.041(4) 0.049(4) 0.036(4) 0.007(3) 0.001(3) -0.005(3)
C46 0.058(5) 0.052(5) 0.044(5) -0.010(4) 0.029(4) -0.014(4)
C47 0.092(7) 0.050(5) 0.068(6) 0.009(5) 0.038(5) 0.003(5)
C48 0.138(11) 0.149(12) 0.089(8) -0.044(8) 0.068(8) -0.114(10)
C49 0.029(4) 0.024(3) 0.045(4) -0.003(3) 0.007(3) -0.001(3)
C50 0.063(5) 0.030(4) 0.062(5) 0.011(4) -0.001(4) -0.010(3)
C51 0.047(5) 0.049(5) 0.047(5) -0.009(4) -0.003(4) 0.003(4)
C52 0.024(3) 0.030(3) 0.034(4) -0.001(3) 0.012(3) -0.007(3)
C53 0.053(5) 0.031(4) 0.053(5) 0.002(3) 0.023(4) -0.017(3)
C54 0.044(6) 0.133(12) 0.41(3) 0.183(16) 0.001(11) -0.011(7)
Gd1C 0.01989 0.01032 0.02146 -0.00116 0.00938 -0.00106
Gd1A 0.01989 0.01032 0.02146 -0.00116 0.00938 -0.00106
Gd2C 0.01919 0.0104 0.02209 -0.00077 0.00923 -0.00041
Gd2A 0.01919 0.0104 0.02209 -0.00077 0.00923 -0.00041
O3C 0.021 0.0157 0.019 0.0027 0.0099 -0.0011
O4C 0.023 0.031 0.023 0.0045 0.01 0.0057
O15A 0.03 0.018 0.026 -0.0027 0.0058 0.0064
O16A 0.032 0.016 0.032 0.0051 0.0142 0.0066
O27A 0.028 0.018 0.027 -0.0011 0.0068 0.0054
O28A 0.041 0.015 0.031 0.0076 0.018 0.0071
O41 0.063(4) 0.035(3) 0.053(3) -0.001(2) 0.024(3) 0.003(3)
N17 0.063(4) 0.034(3) 0.062(4) -0.006(3) 0.029(4) 0.003(3)
C55 0.055(5) 0.036(4) 0.047(5) 0.008(3) 0.023(4) 0.001(4)
C56 0.062(6) 0.113(9) 0.088(8) -0.057(7) 0.000(6) -0.003(6)
C57 0.084(7) 0.046(5) 0.094(7) 0.001(5) 0.048(6) 0.009(5)
O42 0.053(3) 0.040(3) 0.044(3) 0.002(2) -0.001(2) 0.012(2)
N18 0.040(4) 0.026(3) 0.047(4) 0.006(3) 0.002(3) 0.002(2)
C58 0.046(5) 0.019(3) 0.059(5) -0.009(3) 0.014(4) -0.005(3)
C59 0.121(9) 0.055(6) 0.053(6) 0.018(5) 0.003(6) 0.009(5)
C60 0.041(4) 0.041(4) 0.052(5) -0.012(4) 0.002(4) 0.001(3)
O43 0.144(8) 0.066(5) 0.194(10) -0.043(6) 0.079(7) -0.027(5)
N19 0.097(6) 0.064(5) 0.057(5) -0.011(4) 0.030(4) -0.028(4)
C61 0.087(7) 0.045(5) 0.091(8) -0.016(5) 0.035(6) -0.021(5)
C62 0.34(3) 0.123(13) 0.132(13) -0.070(11) 0.112(15) -0.146(15)
C63 0.094(8) 0.096(8) 0.043(5) 0.013(5) 0.021(5) 0.020(6)
O44 0.044(3) 0.032(2) 0.031(3) 0.003(2) 0.007(2) 0.004(2)
N20 0.043(3) 0.029(3) 0.027(3) 0.003(2) 0.011(2) 0.006(2)
C64 0.036(4) 0.032(3) 0.024(3) -0.004(3) 0.007(3) -0.009(3)
C65 0.052(5) 0.033(4) 0.035(4) -0.006(3) 0.008(3) -0.001(3)
C66 0.070(6) 0.041(4) 0.042(5) 0.007(3) 0.013(4) 0.009(4)
O45 0.69(5) 0.217(19) 1.29(9) -0.38(4) 0.84(6) -0.25(3)
O46 0.26(2) 0.71(5) 0.166(16) 0.03(2) 0.069(14) 0.14(3)
O47 0.48(4) 0.47(4) 0.192(19) 0.15(2) -0.13(2) -0.01(3)
loop_
_geom_bond_atom_site_label_1
_geom_bond_atom_site_label_2
_geom_bond_site_symmetry_1
_geom_bond_site_symmetry_2
Gd1 O1 1_555 1_555
Gd2 O2 1_555 1_555
O1 C1 1_555 1_555
O2 Gd1 1_555 1_555
O3 C14 1_555 1_555
O4 C14 1_555 1_555
O5 N1 1_555 1_555
O6 N1 1_555 1_555
O7 N2 1_555 1_555
O8 N2 1_555 1_555
O9 N3 1_555 1_555
O10 N3 1_555 1_555
O11 N4 1_555 1_555
O12 N4 1_555 1_555
O13 Gd1 1_555 1_555
O14 Gd2 1_555 1_555
O15 C28 1_555 1_555
O16 C28 1_555 1_555
O17 N5 1_555 1_555
O18 N5 1_555 1_555
O19 N6 1_555 1_555
O20 N6 1_555 1_555
O21 N7 1_555 1_555
O22 N7 1_555 1_555
O23 N8 1_555 1_555
O24 N8 1_555 1_555
O25 Gd1 1_555 1_555
O26 Gd2 1_555 1_555
O27 C42 1_555 1_555
O28 C42 1_555 1_555
O29 N9 1_555 1_555
O30 N9 1_555 1_555
O31 N10 1_555 1_555
O32 N10 1_555 1_555
O33 N11 1_555 1_555
O34 N11 1_555 1_555
O35 N12 1_555 1_555
O36 N12 1_555 1_555
O37 Gd1 1_555 1_555
O38 Gd1 1_555 1_555
O39 Gd2 1_555 1_555
O40 Gd2 1_555 1_555
N1 C4 1_555 1_555
N2 C6 1_555 1_555
N3 C9 1_555 1_555
N4 C13 1_555 1_555
N5 C18 1_555 1_555
N6 C20 1_555 1_555
N7 C23 1_555 1_555
N8 C27 1_555 1_555
N9 C32 1_555 1_555
N10 C34 1_555 1_555
N11 C37 1_555 1_555
N12 C41 1_555 1_555
N13 C43 1_555 1_555
N14 C46 1_555 1_555
N15 C49 1_555 1_555
N16 C52 1_555 1_555
C1 O2 1_555 1_555
C2 C1 1_555 1_555
C3 C2 1_555 1_555
H1 C3 1_555 1_555
C4 C3 1_555 1_555
C5 C4 1_555 1_555
C6 C5 1_555 1_555
C7 C2 1_555 1_555
H2 C7 1_555 1_555
C8 C5 1_555 1_555
C9 C8 1_555 1_555
C10 C9 1_555 1_555
H3 C10 1_555 1_555
C11 C10 1_555 1_555
C12 C11 1_555 1_555
H4 C12 1_555 1_555
C13 C8 1_555 1_555
C14 C11 1_555 1_555
C15 O13 1_555 1_555
C16 C15 1_555 1_555
C17 C16 1_555 1_555
H5 C17 1_555 1_555
C18 C17 1_555 1_555
C19 C18 1_555 1_555
C20 C19 1_555 1_555
C21 C16 1_555 1_555
H6 C21 1_555 1_555
C22 C19 1_555 1_555
C23 C22 1_555 1_555
C24 C23 1_555 1_555
H7 C24 1_555 1_555
C25 C24 1_555 1_555
C26 C25 1_555 1_555
H8 C26 1_555 1_555
C27 C22 1_555 1_555
C28 C25 1_555 1_555
C29 O25 1_555 1_555
C30 C29 1_555 1_555
C31 C30 1_555 1_555
H9 C31 1_555 1_555
C32 C31 1_555 1_555
C33 C32 1_555 1_555
C34 C33 1_555 1_555
C35 C30 1_555 1_555
H10 C35 1_555 1_555
C36 C33 1_555 1_555
C37 C36 1_555 1_555
C38 C37 1_555 1_555
H11 C38 1_555 1_555
C39 C38 1_555 1_555
C40 C39 1_555 1_555
H12 C40 1_555 1_555
C41 C36 1_555 1_555
C42 C39 1_555 1_555
C43 O37 1_555 1_555
H13 C43 1_555 1_555
C44 N13 1_555 1_555
H14 C44 1_555 1_555
H15 C44 1_555 1_555
H16 C44 1_555 1_555
C45 N13 1_555 1_555
H17 C45 1_555 1_555
H18 C45 1_555 1_555
H19 C45 1_555 1_555
C46 O38 1_555 1_555
H20 C46 1_555 1_555
C47 N14 1_555 1_555
H21 C47 1_555 1_555
H22 C47 1_555 1_555
H23 C47 1_555 1_555
C48 N14 1_555 1_555
H24 C48 1_555 1_555
H25 C48 1_555 1_555
H26 C48 1_555 1_555
C49 O39 1_555 1_555
H27 C49 1_555 1_555
C50 N15 1_555 1_555
H28 C50 1_555 1_555
H29 C50 1_555 1_555
H30 C50 1_555 1_555
C51 N15 1_555 1_555
H31 C51 1_555 1_555
H32 C51 1_555 1_555
H33 C51 1_555 1_555
C52 O40 1_555 1_555
H34 C52 1_555 1_555
C53 N16 1_555 1_555
H35 C53 1_555 1_555
H36 C53 1_555 1_555
H37 C53 1_555 1_555
C54 N16 1_555 1_555
H38 C54 1_555 1_555
H39 C54 1_555 1_555
H40 C54 1_555 1_555
O41 C55 1_555 1_555
N17 C55 1_555 1_555
C55 H41 1_555 1_555
C56 N17 1_555 1_555
H42 C56 1_555 1_555
H43 C56 1_555 1_555
H44 C56 1_555 1_555
C57 N17 1_555 1_555
H45 C57 1_555 1_555
H46 C57 1_555 1_555
H47 C57 1_555 1_555
O42 C58 1_555 1_555
N18 C58 1_555 1_555
C58 H48 1_555 1_555
C59 N18 1_555 1_555
H49 C59 1_555 1_555
H50 C59 1_555 1_555
H51 C59 1_555 1_555
C60 N18 1_555 1_555
H52 C60 1_555 1_555
H53 C60 1_555 1_555
H54 C60 1_555 1_555
O43 C61 1_555 1_555
N19 C61 1_555 1_555
C61 H55 1_555 1_555
C62 N19 1_555 1_555
H56 C62 1_555 1_555
H57 C62 1_555 1_555
H58 C62 1_555 1_555
C63 N19 1_555 1_555
H59 C63 1_555 1_555
H60 C63 1_555 1_555
H61 C63 1_555 1_555
O44 C64 1_555 1_555
N20 C64 1_555 1_555
C64 H62 1_555 1_555
C65 N20 1_555 1_555
H63 C65 1_555 1_555
H64 C65 1_555 1_555
H65 C65 1_555 1_555
C66 N20 1_555 1_555
H66 C66 1_555 1_555
H67 C66 1_555 1_555
H68 C66 1_555 1_555
Gd1C O3 1_555 1_555
Gd1A O15 1_555 1_555
Gd2C O3 1_555 1_555
Gd2A O27 1_555 1_555
O3C Gd1 1_555 1_555
O4C Gd2 1_555 1_555
O15A Gd1 1_555 1_555
O16A Gd1 1_555 1_555
O27A Gd2 1_555 1_555
O28A Gd2 1_555 1_555
Gd2 O3C 1_555 1_555
O4 Gd2C 1_555 1_555
O14 C15 1_555 1_555
O16 Gd1A 1_555 1_555
O26 C29 1_555 1_555
O28 Gd2A 1_555 1_555
C6 C7 1_555 1_555
C12 C13 1_555 1_555
C20 C21 1_555 1_555
C26 C27 1_555 1_555
C34 C35 1_555 1_555
C40 C41 1_555 1_555

#END
