
#######################################################################
#
#                 Cambridge Crystallographic Data Centre
#                                CCDC 
#
#######################################################################
#
# If this CIF has been generated from an entry in the Cambridge 
# Structural Database, then it will include bibliographic, chemical, 
# crystal, experimental, refinement or atomic coordinate data resulting 
# from the CCDC's data processing and validation procedures.
#
#######################################################################

data_XEGKOL
_chemical_formula_moiety         '(C78 H51 Gd2 N19 O43)n'
_symmetry_cell_setting           monoclinic
_symmetry_space_group_name_H-M   'C 2/c'
_symmetry_Int_Tables_number      15
_space_group_name_Hall           '-C 2yc'
loop_
_symmetry_equiv_pos_site_id
_symmetry_equiv_pos_as_xyz
1 x,y,z
2 -x,y,1/2-z
3 1/2+x,1/2+y,z
4 1/2-x,1/2+y,1/2-z
5 -x,-y,-z
6 x,-y,1/2+z
7 1/2-x,1/2-y,-z
8 1/2+x,1/2-y,1/2+z
_cell_length_a                   24.447(4)
_cell_length_b                   29.784(7)
_cell_length_c                   14.636(5)
_cell_angle_alpha                90
_cell_angle_beta                 94.258(5)
_cell_angle_gamma                90
_cell_volume                     10627.5
loop_
_atom_site_label
_atom_site_type_symbol
_atom_site_fract_x
_atom_site_fract_y
_atom_site_fract_z
_atom_site_U_iso_or_equiv
_atom_site_thermal_displace_type
O21 O -0.0325(6) 0.4550(6) 0.0580(12) 0.1391 Uani
N9 N 0.0972(7) 0.3777(6) -0.1461(12) 0.1246 Uani
C31 C 0.0808(9) 0.4219(7) -0.1383(14) 0.1325 Uani
H19 H 0.0967 0.4430 -0.1750 0.1580 Uiso
C32 C 0.0433(7) 0.4372(7) -0.0812(13) 0.1063 Uani
H20 H 0.0335 0.4673 -0.0782 0.1280 Uiso
C33 C 0.0206(7) 0.4041(6) -0.0273(11) 0.0913 Uani
C34 C 0.0374(7) 0.3583(6) -0.0267(13) 0.0982 Uani
H21 H 0.0229 0.3374 0.0120 0.1180 Uiso
C35 C 0.0761(7) 0.3465(7) -0.0860(13) 0.1191 Uani
H22 H 0.0886 0.3170 -0.0863 0.1420 Uiso
C36 C -0.0159(6) 0.4160(7) 0.0453(11) 0.1140 Uani
H23 H -0.0270 0.3932 0.0833 0.1370 Uiso
O22 O 0.0845(6) 0.5421(5) 0.1557(10) 0.0946 Uani
N10 N 0.1087(6) 0.3764(5) 0.1992(11) 0.0776 Uani
C37 C 0.0797(7) 0.4068(6) 0.2408(13) 0.0735 Uani
H24 H 0.0580 0.3974 0.2869 0.0880 Uiso
C38 C 0.0803(7) 0.4496(6) 0.2192(12) 0.0681 Uani
H25 H 0.0630 0.4703 0.2549 0.0820 Uiso
C39 C 0.1060(6) 0.4640(6) 0.1451(12) 0.0638 Uani
C40 C 0.1370(7) 0.4327(6) 0.0998(11) 0.0684 Uani
H26 H 0.1572 0.4412 0.0512 0.0820 Uiso
C41 C 0.1365(7) 0.3893(7) 0.1294(14) 0.0807 Uani
H27 H 0.1564 0.3679 0.0995 0.0970 Uiso
C42 C 0.1048(7) 0.5119(6) 0.1159(12) 0.0685 Uani
H28 H 0.1211 0.5190 0.0623 0.0820 Uiso
O23 O 0.5689(13) 0.4638(11) 0.017(2) 0.2445 Uani
N11 N 0.3918(9) 0.3757(7) -0.076(2) 0.1658 Uani
C43 C 0.4338(10) 0.3980(8) -0.1131(18) 0.1863 Uani
H29 H 0.4294 0.3993 -0.1767 0.2260 Uiso
C44 C 0.4828(10) 0.4199(9) -0.077(2) 0.1750 Uani
H30 H 0.5064 0.4361 -0.1118 0.2090 Uiso
C45 C 0.4901(12) 0.4135(13) 0.018(2) 0.2106 Uani
C46 C 0.4467(13) 0.3963(13) 0.0638(19) 0.2046 Uani
H31 H 0.4502 0.3971 0.1275 0.2450 Uiso
C47 C 0.3981(14) 0.3779(13) 0.022(2) 0.2160 Uani
H32 H 0.3706 0.3674 0.0569 0.2160 Uiso
C48 C 0.5436(13) 0.4325(12) 0.058(2) 0.2211 Uani
H33 H 0.5588 0.4215 0.1140 0.2660 Uiso
Gd1 Gd -0.21887(2) 0.236402(17) 0.63125(4) 0.0252 Uani
O1 O -0.2386(3) 0.1707(3) 0.5381(5) 0.0338 Uani
O2 O -0.2855(3) 0.1863(2) 0.4052(5) 0.0297 Uani
O3 O -0.2594(3) -0.1844(2) 0.2324(5) 0.0328 Uani
O4 O -0.1740(3) -0.1704(3) 0.2043(5) 0.0356 Uani
O5 O -0.1701(4) 0.0205(3) 0.5937(6) 0.0546 Uani
O6 O -0.2113(5) -0.0340(3) 0.5230(6) 0.0574 Uani
O7 O -0.2857(5) 0.0801(3) 0.1669(6) 0.0673 Uani
O8 O -0.2785(4) 0.0087(3) 0.1920(6) 0.0485 Uani
O9 O -0.1498(5) 0.0333(3) 0.2901(9) 0.0744 Uani
O10 O -0.0968(4) -0.0237(3) 0.2664(7) 0.0520 Uani
O11 O -0.3376(4) -0.0091(3) 0.4010(7) 0.0561 Uani
O12 O -0.3435(4) -0.0790(3) 0.4367(6) 0.0553 Uani
O13 O -0.1969(3) 0.2504(3) 0.4467(5) 0.0289 Uani
O14 O -0.1338(3) 0.2335(3) 0.5562(6) 0.0350 Uani
O15 O -0.1281(5) 0.2990(4) 0.1519(7) 0.0709 Uani
O16 O -0.0434(4) 0.3146(4) 0.1502(7) 0.0685 Uani
O17 O 0.0510(7) 0.1752(5) 0.3229(13) 0.1347 Uani
O18 O 0.0475(5) 0.1871(6) 0.4604(13) 0.1084 Uani
O19 O -0.1567(4) 0.2634(3) 0.7467(6) 0.0451 Uani
O20 O -0.3297(5) 0.3498(4) 1.0462(7) 0.0757 Uani
N1 N -0.1998(5) 0.0050(4) 0.5316(7) 0.0413 Uani
N2 N -0.2771(5) 0.0472(4) 0.2178(7) 0.0440 Uani
N3 N -0.1403(5) -0.0075(4) 0.2856(8) 0.0483 Uani
N4 N -0.3206(4) -0.0478(4) 0.3997(7) 0.0415 Uani
N5 N -0.0819(5) 0.2978(4) 0.1843(8) 0.0459 Uani
N6 N 0.0323(6) 0.1954(5) 0.3881(14) 0.0766 Uani
N7 N -0.1241(8) 0.3056(6) 0.8680(12) 0.1031 Uani
N8 N -0.2736(4) 0.2814(3) 0.7516(6) 0.0314 Uani
C1 C -0.2607(5) 0.1608(4) 0.4610(7) 0.0247 Uani
C2 C -0.2550(5) 0.1132(4) 0.4329(8) 0.0304 Uani
C3 C -0.2315(5) 0.0810(4) 0.4923(8) 0.0299 Uani
H1 H -0.2207 0.0886 0.5526 0.0360 Uiso
C4 C -0.2241(5) 0.0368(4) 0.4609(8) 0.0393 Uani
C5 C -0.2399(5) 0.0231(4) 0.3734(8) 0.0328 Uani
C6 C -0.2618(5) 0.0562(4) 0.3155(7) 0.0316 Uani
C7 C -0.2700(5) 0.0999(4) 0.3447(8) 0.0368 Uani
H2 H -0.2860 0.1206 0.3035 0.0440 Uiso
C8 C -0.2312(5) -0.0249(4) 0.3418(9) 0.0348 Uani
C9 C -0.1869(5) -0.0385(4) 0.3002(7) 0.0324 Uani
C10 C -0.1802(5) -0.0816(4) 0.2682(7) 0.0332 Uani
H3 H -0.1481 -0.0898 0.2420 0.0400 Uiso
C11 C -0.2222(5) -0.1128(4) 0.2756(8) 0.0359 Uani
C12 C -0.2684(5) -0.1011(4) 0.3193(7) 0.0300 Uani
H4 H -0.2960 -0.1219 0.3273 0.0360 Uiso
C13 C -0.2724(5) -0.0581(4) 0.3506(8) 0.0338 Uani
C14 C -0.2184(5) -0.1590(4) 0.2337(8) 0.0315 Uani
C15 C -0.1483(5) 0.2431(4) 0.4763(7) 0.0260 Uani
C16 C -0.1044(5) 0.2462(4) 0.4081(8) 0.0292 Uani
C17 C -0.1126(5) 0.2698(4) 0.3284(8) 0.0315 Uani
H5 H -0.1451 0.2854 0.3143 0.0380 Uiso
C18 C -0.0704(5) 0.2699(4) 0.2684(8) 0.0392 Uani
C19 C -0.0225(6) 0.2475(4) 0.2836(10) 0.0475 Uani
C20 C -0.0149(5) 0.2238(5) 0.3653(11) 0.0478 Uani
C21 C -0.0556(5) 0.2235(4) 0.4287(9) 0.0422 Uani
H6 H -0.0498 0.2082 0.4839 0.0510 Uiso
C22 C -0.1431(7) 0.2991(6) 0.7820(12) 0.0706 Uani
H7 H -0.1464 0.3244 0.7446 0.0850 Uiso
C23 C -0.095(5) 0.2652(16) 0.921(3) 0.2828 Uani
H8 H -0.1045 0.2376 0.8901 0.2410 Uiso
H9 H -0.0560 0.2693 0.9241 0.2410 Uiso
H10 H -0.1069 0.2640 0.9824 0.2410 Uiso
C24 C -0.1105(11) 0.3511(8) 0.898(2) 0.1646 Uani
H11 H -0.1195 0.3717 0.8491 0.1430 Uiso
H12 H -0.1310 0.3586 0.9496 0.1430 Uiso
H13 H -0.0720 0.3529 0.9161 0.1430 Uiso
C25 C -0.2638(6) 0.2720(4) 0.8417(10) 0.0497 Uani
H14 H -0.2427 0.2467 0.8567 0.0600 Uiso
C26 C -0.2817(6) 0.2959(6) 0.9119(9) 0.0557 Uani
H15 H -0.2728 0.2874 0.9724 0.0670 Uiso
C27 C -0.3140(6) 0.3337(5) 0.8910(10) 0.0484 Uani
C28 C -0.3256(5) 0.3444(4) 0.8009(8) 0.0373 Uani
H16 H -0.3470 0.3693 0.7844 0.0450 Uiso
C29 C -0.3049(5) 0.3176(4) 0.7346(8) 0.0317 Uani
H17 H -0.3134 0.3253 0.6736 0.0380 Uiso
C30 C -0.3380(6) 0.3592(6) 0.9656(11) 0.0572 Uani
H18 H -0.3605 0.3836 0.9498 0.0690 Uiso
Gd1F Gd -0.28113(2) 0.263598(17) 0.36875(4) 0.0252 Uani
Gd1E Gd -0.21887(2) -0.236402(17) 0.13125(4) 0.0252 Uani
Gd1A Gd 0.21887(2) 0.236402(17) -0.13125(4) 0.0252 Uani
Gd1G Gd 0.28113(2) 0.263598(17) 0.13125(4) 0.0252 Uani
Gd1C Gd -0.28113(2) 0.736402(17) 0.86875(4) 0.0252 Uani
O1F O -0.2614(3) 0.3293(3) 0.4619(5) 0.0338 Uani
O2F O -0.2145(3) 0.3137(2) 0.5948(5) 0.0297 Uani
O3F O -0.2406(3) 0.6844(2) 0.7676(5) 0.0328 Uani
O3E O -0.2594(3) 0.1844(2) 0.7324(5) 0.0328 Uani
O3C O -0.2406(3) 0.3156(2) 0.2676(5) 0.0328 Uani
O4F O -0.3260(3) 0.6704(3) 0.7957(5) 0.0356 Uani
O4E O -0.1740(3) 0.1704(3) 0.7043(5) 0.0356 Uani
O4C O -0.3260(3) 0.3296(3) 0.2957(5) 0.0356 Uani
O5F O -0.3299(4) 0.4795(3) 0.4063(6) 0.0546 Uani
O6F O -0.2887(5) 0.5340(3) 0.4770(6) 0.0574 Uani
O7F O -0.2143(5) 0.4199(3) 0.8331(6) 0.0673 Uani
O8F O -0.2215(4) 0.4913(3) 0.8080(6) 0.0485 Uani
O9F O -0.3502(5) 0.4667(3) 0.7099(9) 0.0744 Uani
O10F O -0.4032(4) 0.5237(3) 0.7336(7) 0.0520 Uani
O11F O -0.1624(4) 0.5091(3) 0.5990(7) 0.0561 Uani
O12F O -0.1565(4) 0.5790(3) 0.5633(6) 0.0553 Uani
O13A O 0.1969(3) 0.2504(3) 0.0533(5) 0.0289 Uani
O13F O -0.3031(3) 0.2496(3) 0.5533(5) 0.0289 Uani
O14A O 0.1338(3) 0.2335(3) -0.0562(6) 0.0350 Uani
O14F O -0.3662(3) 0.2665(3) 0.4438(6) 0.0350 Uani
O15A O 0.1281(5) 0.2990(4) 0.3481(7) 0.0709 Uani
O16A O 0.0434(4) 0.3146(4) 0.3498(7) 0.0685 Uani
O17A O -0.0510(7) 0.1752(5) 0.1771(13) 0.1347 Uani
O18A O -0.0475(5) 0.1871(6) 0.0396(13) 0.1084 Uani
O19F O -0.3433(4) 0.2366(3) 0.2533(6) 0.0451 Uani
O20F O -0.1703(5) 0.1502(4) -0.0462(7) 0.0757 Uani
N1F N -0.3002(5) 0.4950(4) 0.4684(7) 0.0413 Uani
N2F N -0.2229(5) 0.4528(4) 0.7822(7) 0.0440 Uani
N3F N -0.3597(5) 0.5075(4) 0.7144(8) 0.0483 Uani
N4F N -0.1794(4) 0.5478(4) 0.6003(7) 0.0415 Uani
N5A N 0.0819(5) 0.2978(4) 0.3157(8) 0.0459 Uani
N6A N -0.0323(6) 0.1954(5) 0.1119(14) 0.0766 Uani
N7F N -0.3759(8) 0.1944(6) 0.1320(12) 0.1031 Uani
N8F N -0.2264(4) 0.2186(3) 0.2484(6) 0.0314 Uani
C1F C -0.2393(5) 0.3392(4) 0.5390(7) 0.0247 Uani
C2F C -0.2450(5) 0.3868(4) 0.5671(8) 0.0304 Uani
C3F C -0.2685(5) 0.4190(4) 0.5077(8) 0.0299 Uani
H1F H -0.2793 0.4114 0.4474 0.0360 Uiso
C4F C -0.2759(5) 0.4632(4) 0.5391(8) 0.0393 Uani
C5F C -0.2601(5) 0.4769(4) 0.6266(8) 0.0328 Uani
C6F C -0.2382(5) 0.4438(4) 0.6845(7) 0.0316 Uani
C7F C -0.2300(5) 0.4001(4) 0.6553(8) 0.0368 Uani
H2F H -0.2140 0.3794 0.6965 0.0440 Uiso
C8F C -0.2688(5) 0.5249(4) 0.6582(9) 0.0348 Uani
C9F C -0.3131(5) 0.5385(4) 0.6998(7) 0.0324 Uani
C10F C -0.3198(5) 0.5816(4) 0.7318(7) 0.0332 Uani
H3F H -0.3519 0.5898 0.7580 0.0400 Uiso
C11F C -0.2778(5) 0.6128(4) 0.7244(8) 0.0359 Uani
C12F C -0.2316(5) 0.6011(4) 0.6807(7) 0.0300 Uani
H4F H -0.2040 0.6219 0.6727 0.0360 Uiso
C13F C -0.2276(5) 0.5581(4) 0.6494(8) 0.0338 Uani
C14F C -0.2816(5) 0.6590(4) 0.7663(8) 0.0315 Uani
C15A C 0.1483(5) 0.2431(4) 0.0237(7) 0.0260 Uani
C16A C 0.1044(5) 0.2462(4) 0.0919(8) 0.0292 Uani
C17A C 0.1126(5) 0.2698(4) 0.1716(8) 0.0315 Uani
H5A H 0.1451 0.2854 0.1857 0.0380 Uiso
C18A C 0.0704(5) 0.2699(4) 0.2316(8) 0.0392 Uani
C19A C 0.0225(6) 0.2475(4) 0.2164(10) 0.0475 Uani
C20A C 0.0149(5) 0.2238(5) 0.1347(11) 0.0478 Uani
C21A C 0.0556(5) 0.2235(4) 0.0713(9) 0.0422 Uani
H6A H 0.0498 0.2082 0.0161 0.0510 Uiso
C22F C -0.3569(7) 0.2009(6) 0.2180(12) 0.0706 Uani
H7F H -0.3536 0.1756 0.2554 0.0850 Uiso
C23F C -0.405(5) 0.2348(16) 0.079(3) 0.2828 Uani
H8F H -0.3955 0.2624 0.1099 0.2410 Uiso
H9F H -0.4440 0.2307 0.0759 0.2410 Uiso
H10F H -0.3931 0.2360 0.0176 0.2410 Uiso
C24F C -0.3895(11) 0.1489(8) 0.102(2) 0.1646 Uani
H11F H -0.3805 0.1283 0.1509 0.1430 Uiso
H12F H -0.3690 0.1414 0.0504 0.1430 Uiso
H13F H -0.4280 0.1471 0.0839 0.1430 Uiso
C25F C -0.2362(6) 0.2280(4) 0.1583(10) 0.0497 Uani
H14F H -0.2573 0.2533 0.1433 0.0600 Uiso
C26F C -0.2183(6) 0.2041(6) 0.0881(9) 0.0557 Uani
H15F H -0.2272 0.2126 0.0276 0.0670 Uiso
C27F C -0.1860(6) 0.1663(5) 0.1090(10) 0.0484 Uani
C28F C -0.1744(5) 0.1556(4) 0.1991(8) 0.0373 Uani
H16F H -0.1530 0.1307 0.2156 0.0450 Uiso
C29F C -0.1951(5) 0.1824(4) 0.2654(8) 0.0317 Uani
H17F H -0.1866 0.1747 0.3264 0.0380 Uiso
C30F C -0.1620(6) 0.1408(6) 0.0344(11) 0.0572 Uani
H18F H -0.1395 0.1164 0.0502 0.0690 Uiso
loop_
_atom_site_aniso_label
_atom_site_aniso_U_11
_atom_site_aniso_U_22
_atom_site_aniso_U_33
_atom_site_aniso_U_23
_atom_site_aniso_U_13
_atom_site_aniso_U_12
O21 0.114(13) 0.133(14) 0.173(16) -0.014(13) 0.029(11) 0.025(11)
N9 0.123(16) 0.098(13) 0.158(18) 0.003(12) 0.046(12) 0.003(12)
C31 0.19(3) 0.096(13) 0.120(19) -0.015(14) 0.069(16) 0.007(17)
C32 0.104(17) 0.099(13) 0.121(17) 0.000(12) 0.042(12) -0.019(12)
C33 0.106(16) 0.084(11) 0.084(13) 0.013(10) 0.008(9) -0.002(10)
C34 0.097(15) 0.090(11) 0.109(16) -0.012(11) 0.018(10) 0.003(11)
C35 0.092(16) 0.128(16) 0.14(2) 0.041(14) 0.027(12) 0.046(13)
C36 0.099(17) 0.112(16) 0.136(19) 0.047(14) 0.042(13) 0.043(14)
O22 0.112(11) 0.060(9) 0.112(11) -0.013(8) 0.009(9) 0.010(8)
N10 0.070(10) 0.074(11) 0.090(11) 0.007(9) 0.014(8) -0.009(8)
C37 0.086(13) 0.038(10) 0.100(14) -0.010(9) 0.031(11) 0.001(9)
C38 0.061(11) 0.062(12) 0.082(12) -0.012(10) 0.010(9) -0.008(9)
C39 0.051(10) 0.055(10) 0.088(12) -0.002(9) 0.023(9) -0.005(8)
C40 0.070(11) 0.071(12) 0.069(11) -0.015(9) 0.038(9) -0.009(9)
C41 0.070(12) 0.071(13) 0.105(15) -0.024(11) 0.032(11) -0.030(10)
C42 0.064(11) 0.068(12) 0.075(11) -0.001(10) 0.016(9) 0.007(9)
O23 0.241(10) 0.248(10) 0.245(10) -0.005(5) 0.022(5) -0.013(5)
N11 0.17(2) 0.096(18) 0.224(15) 0.024(17) -0.035(14) 0.016(15)
C43 0.092(18) 0.22(4) 0.241(18) 0.11(2) -0.028(12) 0.071(15)
C44 0.112(18) 0.19(3) 0.222(14) 0.03(2) 0.006(12) 0.057(16)
C45 0.211(9) 0.211(10) 0.210(10) -0.002(5) 0.016(5) 0.000(5)
C46 0.207(9) 0.205(10) 0.201(10) -0.005(5) 0.010(5) 0.001(5)
C47 0.213(10) 0.217(11) 0.218(11) -0.001(5) 0.016(5) -0.001(5)
C48 0.220(10) 0.223(10) 0.219(10) -0.002(5) 0.007(5) -0.004(5)
Gd1 0.0342 0.0126 0.0296 0.0014 0.0087 0.0003
O1 0.045 0.018 0.039 -0.001 0.007 -0.003
O2 0.038 0.014 0.037 -0.004 0.002 -0.006
O3 0.051 0.01 0.04 -0.013 0.021 -0.003
O4 0.033 0.029 0.046 -0.012 0.01 -0.001
O5 0.079 0.043 0.039 -0.01 -0.014 0.015
O6 0.111 0.016 0.044 -0.003 -0.002 0.017
O7 0.119 0.041 0.041 0.003 -0.001 0.015
O8 0.069 0.03 0.046 -0.01 0 0.001
O9 0.082 0.022 0.123 -0.025 0.034 -0.009
O10 0.038 0.047 0.072 -0.001 0.01 -0.002
O11 0.06 0.021 0.089 -0.014 0.017 0.005
O12 0.069 0.043 0.058 -0.011 0.033 -0.009
O13 0.036 0.023 0.029 -0.001 0.011 -0.009
O14 0.031 0.036 0.039 0.003 0.01 0.004
O15 0.074 0.091 0.05 0.015 0.02 -0.008
O16 0.062 0.07 0.08 0.033 0.048 0.008
O17 0.129 0.086 0.202 0.08 0.099 0.052
O18 0.066 0.116 0.145 0.045 0.02 0.033
O19 0.057 0.039 0.038 -0.01 -0.005 -0.003
O20 0.073 0.106 0.049 -0.032 0.01 -0.011
N1 0.062 0.023 0.039 -0.001 0.004 0.013
N2 0.069 0.027 0.036 -0.001 0.004 0.009
N3 0.062 0.028 0.055 -0.013 0.006 -0.013
N4 0.053 0.029 0.044 -0.007 0.013 -0.003
N5 0.042 0.052 0.046 0.012 0.019 0.008
N6 0.045 0.066 0.127 0.046 0.062 0.025
N7 0.142 0.072 0.087 -0.02 -0.047 0.015
N8 0.042 0.022 0.03 0.001 0.002 0.001
C1 0.035 0.013 0.027 0.004 0.009 0
C2 0.04 0.016 0.036 -0.001 0.008 -0.003
C3 0.049 0.011 0.03 0.001 0.004 0
C4 0.054 0.026 0.038 0.003 0.005 -0.003
C5 0.045 0.022 0.032 -0.006 0.006 -0.006
C6 0.057 0.014 0.024 -0.006 0.004 0.003
C7 0.057 0.023 0.033 -0.001 0.02 -0.004
C8 0.038 0.017 0.048 0.005 -0.006 -0.005
C9 0.04 0.034 0.023 0 0.002 -0.001
C10 0.044 0.031 0.024 -0.002 -0.002 -0.002
C11 0.055 0.024 0.029 0.001 0.005 0.01
C12 0.042 0.021 0.027 0 0.002 -0.001
C13 0.046 0.027 0.03 -0.001 0.013 -0.006
C14 0.04 0.019 0.035 -0.003 -0.001 -0.004
C15 0.027 0.027 0.025 -0.002 0.008 0.001
C16 0.035 0.018 0.037 -0.005 0.018 -0.002
C17 0.037 0.018 0.042 0.003 0.02 -0.001
C18 0.046 0.036 0.037 -0.001 0.013 -0.002
C19 0.055 0.022 0.071 0.002 0.041 0
C20 0.038 0.033 0.076 0.008 0.029 0.012
C21 0.042 0.037 0.05 0.017 0.02 -0.003
C22 0.08 0.06 0.07 0.009 -0.007 0.009
C23 0.5 0.09 0.22 0.08 -0.23 -0.08
C24 0.13 0.078 0.27 0 -0.09 -0.004
C25 0.072 0.029 0.05 -0.008 0.017 0.008
C26 0.07 0.067 0.03 -0.005 0.004 0.001
C27 0.056 0.034 0.056 -0.014 0.009 -0.005
C28 0.038 0.035 0.039 -0.005 0.003 0.002
C29 0.033 0.028 0.034 -0.003 0.001 -0.003
C30 0.058 0.06 0.055 -0.023 0.014 -0.01
Gd1F 0.0342 0.0126 0.0296 0.0014 0.0087 0.0003
Gd1E 0.0342 0.0126 0.0296 -0.0014 0.0087 -0.0003
Gd1A 0.0342 0.0126 0.0296 -0.0014 0.0087 -0.0003
Gd1G 0.0342(4) 0.0126(3) 0.0296(4) -0.0014(2) 0.0087(2) -0.0003(2)
Gd1C 0.0342 0.0126 0.0296 -0.0014 0.0087 -0.0003
O1F 0.045 0.018 0.039 -0.001 0.007 -0.003
O2F 0.038 0.014 0.037 -0.004 0.002 -0.006
O3F 0.051 0.01 0.04 -0.013 0.021 -0.003
O3E 0.051 0.01 0.04 0.013 0.021 0.003
O3C 0.051 0.01 0.04 0.013 0.021 0.003
O4F 0.033 0.029 0.046 -0.012 0.01 -0.001
O4E 0.033 0.029 0.046 0.012 0.01 0.001
O4C 0.033 0.029 0.046 0.012 0.01 0.001
O5F 0.079 0.043 0.039 -0.01 -0.014 0.015
O6F 0.111 0.016 0.044 -0.003 -0.002 0.017
O7F 0.119 0.041 0.041 0.003 -0.001 0.015
O8F 0.069 0.03 0.046 -0.01 0 0.001
O9F 0.082 0.022 0.123 -0.025 0.034 -0.009
O10F 0.038 0.047 0.072 -0.001 0.01 -0.002
O11F 0.06 0.021 0.089 -0.014 0.017 0.005
O12F 0.069 0.043 0.058 -0.011 0.033 -0.009
O13A 0.036(5) 0.023(4) 0.029(4) 0.001(3) 0.011(4) 0.009(3)
O13F 0.036 0.023 0.029 -0.001 0.011 -0.009
O14A 0.031(5) 0.036(5) 0.039(5) -0.003(4) 0.010(4) -0.004(4)
O14F 0.031 0.036 0.039 0.003 0.01 0.004
O15A 0.074(8) 0.091(10) 0.050(6) -0.015(6) 0.020(6) 0.008(7)
O16A 0.062(7) 0.070(8) 0.080(7) -0.033(6) 0.048(6) -0.008(6)
O17A 0.129(13) 0.086(11) 0.202(17) -0.080(12) 0.099(13) -0.052(10)
O18A 0.066(9) 0.116(13) 0.145(14) -0.045(11) 0.020(9) -0.033(8)
O19F 0.057 0.039 0.038 -0.01 -0.005 -0.003
O20F 0.073 0.106 0.049 -0.032 0.01 -0.011
N1F 0.062 0.023 0.039 -0.001 0.004 0.013
N2F 0.069 0.027 0.036 -0.001 0.004 0.009
N3F 0.062 0.028 0.055 -0.013 0.006 -0.013
N4F 0.053 0.029 0.044 -0.007 0.013 -0.003
N5A 0.042(7) 0.052(8) 0.046(7) -0.012(6) 0.019(6) -0.008(6)
N6A 0.045(8) 0.066(10) 0.127(14) -0.046(10) 0.062(10) -0.025(7)
N7F 0.142 0.072 0.087 -0.02 -0.047 0.015
N8F 0.042 0.022 0.03 0.001 0.002 0.001
C1F 0.035 0.013 0.027 0.004 0.009 0
C2F 0.04 0.016 0.036 -0.001 0.008 -0.003
C3F 0.049 0.011 0.03 0.001 0.004 0
C4F 0.054 0.026 0.038 0.003 0.005 -0.003
C5F 0.045 0.022 0.032 -0.006 0.006 -0.006
C6F 0.057 0.014 0.024 -0.006 0.004 0.003
C7F 0.057 0.023 0.033 -0.001 0.02 -0.004
C8F 0.038 0.017 0.048 0.005 -0.006 -0.005
C9F 0.04 0.034 0.023 0 0.002 -0.001
C10F 0.044 0.031 0.024 -0.002 -0.002 -0.002
C11F 0.055 0.024 0.029 0.001 0.005 0.01
C12F 0.042 0.021 0.027 0 0.002 -0.001
C13F 0.046 0.027 0.03 -0.001 0.013 -0.006
C14F 0.04 0.019 0.035 -0.003 -0.001 -0.004
C15A 0.027(6) 0.027(6) 0.025(6) 0.002(5) 0.008(5) -0.001(5)
C16A 0.035(7) 0.018(6) 0.037(7) 0.005(5) 0.018(5) 0.002(5)
C17A 0.037(7) 0.018(6) 0.042(7) -0.003(5) 0.020(6) 0.001(5)
C18A 0.046(8) 0.036(8) 0.037(7) 0.001(6) 0.013(6) 0.002(6)
C19A 0.055(9) 0.022(7) 0.071(10) -0.002(6) 0.041(8) 0.000(6)
C20A 0.038(8) 0.033(8) 0.076(10) -0.008(7) 0.029(7) -0.012(6)
C21A 0.042(8) 0.037(8) 0.050(8) -0.017(6) 0.020(6) 0.003(6)
C22F 0.08 0.06 0.07 0.009 -0.007 0.009
C23F 0.5 0.09 0.22 0.08 -0.23 -0.08
C24F 0.13 0.078 0.27 0 -0.09 -0.004
C25F 0.072 0.029 0.05 -0.008 0.017 0.008
C26F 0.07 0.067 0.03 -0.005 0.004 0.001
C27F 0.056 0.034 0.056 -0.014 0.009 -0.005
C28F 0.038 0.035 0.039 -0.005 0.003 0.002
C29F 0.033 0.028 0.034 -0.003 0.001 -0.003
C30F 0.058 0.06 0.055 -0.023 0.014 -0.01
loop_
_geom_bond_atom_site_label_1
_geom_bond_atom_site_label_2
_geom_bond_site_symmetry_1
_geom_bond_site_symmetry_2
Gd1 O1 1_555 1_555
O1 C1 1_555 1_555
O2 C1 1_555 1_555
O3 C14 1_555 1_555
O4 C14 1_555 1_555
O5 N1 1_555 1_555
O6 N1 1_555 1_555
O7 N2 1_555 1_555
O8 N2 1_555 1_555
O9 N3 1_555 1_555
O10 N3 1_555 1_555
O11 N4 1_555 1_555
O12 N4 1_555 1_555
O13 Gd1 1_555 1_555
O14 Gd1 1_555 1_555
O15 N5 1_555 1_555
O16 N5 1_555 1_555
O17 N6 1_555 1_555
O18 N6 1_555 1_555
O19 Gd1 1_555 1_555
O20 C30 1_555 1_555
O21 C36 1_555 1_555
O22 C42 1_555 1_555
O23 C48 1_555 1_555
N1 C4 1_555 1_555
N2 C6 1_555 1_555
N3 C9 1_555 1_555
N4 C13 1_555 1_555
N5 C18 1_555 1_555
N6 C20 1_555 1_555
N7 C22 1_555 1_555
N8 Gd1 1_555 1_555
N9 C31 1_555 1_555
N10 C37 1_555 1_555
N11 C43 1_555 1_555
C1 C2 1_555 1_555
C2 C3 1_555 1_555
C3 H1 1_555 1_555
C4 C3 1_555 1_555
C5 C4 1_555 1_555
C6 C5 1_555 1_555
C7 C2 1_555 1_555
H2 C7 1_555 1_555
C8 C5 1_555 1_555
C9 C8 1_555 1_555
C10 C9 1_555 1_555
H3 C10 1_555 1_555
C11 C10 1_555 1_555
C12 C11 1_555 1_555
H4 C12 1_555 1_555
C13 C8 1_555 1_555
C14 C11 1_555 1_555
C15 O13 1_555 1_555
C16 C15 1_555 1_555
C17 C16 1_555 1_555
H5 C17 1_555 1_555
C18 C17 1_555 1_555
C19 C18 1_555 1_555
C20 C19 1_555 1_555
C21 C16 1_555 1_555
H6 C21 1_555 1_555
C22 O19 1_555 1_555
H7 C22 1_555 1_555
C23 N7 1_555 1_555
H8 C23 1_555 1_555
H9 C23 1_555 1_555
H10 C23 1_555 1_555
C24 N7 1_555 1_555
H11 C24 1_555 1_555
H12 C24 1_555 1_555
H13 C24 1_555 1_555
C25 N8 1_555 1_555
H14 C25 1_555 1_555
C26 C25 1_555 1_555
H15 C26 1_555 1_555
C27 C26 1_555 1_555
C28 C27 1_555 1_555
H16 C28 1_555 1_555
C29 N8 1_555 1_555
H17 C29 1_555 1_555
C30 C27 1_555 1_555
H18 C30 1_555 1_555
C31 H19 1_555 1_555
C32 C31 1_555 1_555
H20 C32 1_555 1_555
C33 C32 1_555 1_555
C34 C33 1_555 1_555
H21 C34 1_555 1_555
C35 N9 1_555 1_555
H22 C35 1_555 1_555
C36 C33 1_555 1_555
H23 C36 1_555 1_555
C37 H24 1_555 1_555
C38 C37 1_555 1_555
H25 C38 1_555 1_555
C39 C38 1_555 1_555
C40 C39 1_555 1_555
H26 C40 1_555 1_555
C41 N10 1_555 1_555
H27 C41 1_555 1_555
C42 C39 1_555 1_555
H28 C42 1_555 1_555
C43 H29 1_555 1_555
C44 C43 1_555 1_555
H30 C44 1_555 1_555
C45 C44 1_555 1_555
C46 C45 1_555 1_555
H31 C46 1_555 1_555
C47 N11 1_555 1_555
H32 C47 1_555 1_555
C48 C45 1_555 1_555
H33 C48 1_555 1_555
Gd1F O2 1_555 1_555
Gd1E O3 1_555 1_555
Gd1A O13A 1_555 1_555
Gd1G O13A 1_555 1_555
Gd1C O3F 1_555 1_555
O1F Gd1F 1_555 1_555
O2F Gd1 1_555 1_555
O3F C14F 1_555 1_555
O3E Gd1 1_555 1_555
O3C Gd1F 1_555 1_555
O4F Gd1C 1_555 1_555
O4E Gd1 1_555 1_555
O4C Gd1F 1_555 1_555
O5F N1F 1_555 1_555
O6F N1F 1_555 1_555
O7F N2F 1_555 1_555
O8F N2F 1_555 1_555
O9F N3F 1_555 1_555
O10F N3F 1_555 1_555
O11F N4F 1_555 1_555
O12F N4F 1_555 1_555
O13A C15A 1_555 1_555
O13F Gd1 1_555 1_555
O14A Gd1A 1_555 1_555
O14F Gd1F 1_555 1_555
O15A N5A 1_555 1_555
O16A N5A 1_555 1_555
O17A N6A 1_555 1_555
O18A N6A 1_555 1_555
O19F Gd1F 1_555 1_555
O20F C30F 1_555 1_555
N1F C4F 1_555 1_555
N2F C6F 1_555 1_555
N3F C9F 1_555 1_555
N4F C13F 1_555 1_555
N5A C18A 1_555 1_555
N6A C20A 1_555 1_555
N7F C22F 1_555 1_555
N8F Gd1F 1_555 1_555
C1F O1F 1_555 1_555
C2F C1F 1_555 1_555
C3F C2F 1_555 1_555
H1F C3F 1_555 1_555
C4F C3F 1_555 1_555
C5F C4F 1_555 1_555
C6F C5F 1_555 1_555
C7F C2F 1_555 1_555
H2F C7F 1_555 1_555
C8F C5F 1_555 1_555
C9F C8F 1_555 1_555
C10F C9F 1_555 1_555
H3F C10F 1_555 1_555
C11F C10F 1_555 1_555
C12F C11F 1_555 1_555
H4F C12F 1_555 1_555
C13F C8F 1_555 1_555
C14F O4F 1_555 1_555
C15A O14A 1_555 1_555
C16A C15A 1_555 1_555
C17A C16A 1_555 1_555
H5A C17A 1_555 1_555
C18A C17A 1_555 1_555
C19A C19 1_555 1_555
C20A C19A 1_555 1_555
C21A C16A 1_555 1_555
H6A C21A 1_555 1_555
C22F O19F 1_555 1_555
H7F C22F 1_555 1_555
C23F N7F 1_555 1_555
H8F C23F 1_555 1_555
H9F C23F 1_555 1_555
H10F C23F 1_555 1_555
C24F N7F 1_555 1_555
H11F C24F 1_555 1_555
H12F C24F 1_555 1_555
H13F C24F 1_555 1_555
C25F N8F 1_555 1_555
H14F C25F 1_555 1_555
C26F C25F 1_555 1_555
H15F C26F 1_555 1_555
C27F C26F 1_555 1_555
C28F C27F 1_555 1_555
H16F C28F 1_555 1_555
C29F N8F 1_555 1_555
H17F C29F 1_555 1_555
C30F C27F 1_555 1_555
H18F C30F 1_555 1_555
O4 Gd1E 1_555 1_555
O13 Gd1F 1_555 1_555
O14 C15 1_555 1_555
C6 C7 1_555 1_555
C12 C13 1_555 1_555
C20 C21 1_555 1_555
C28 C29 1_555 1_555
C34 C35 1_555 1_555
C40 C41 1_555 1_555
C46 C47 1_555 1_555
Gd1F O13F 1_555 1_555
O2F C1F 1_555 1_555
C6F C7F 1_555 1_555
C11F C14F 1_555 1_555
C12F C13F 1_555 1_555
C18A C19A 1_555 1_555
C20A C21A 1_555 1_555
C28F C29F 1_555 1_555

#END
