
#######################################################################
#
#                 Cambridge Crystallographic Data Centre
#                                CCDC 
#
#######################################################################
#
# If this CIF has been generated from an entry in the Cambridge 
# Structural Database, then it will include bibliographic, chemical, 
# crystal, experimental, refinement or atomic coordinate data resulting 
# from the CCDC's data processing and validation procedures.
#
#######################################################################

data_XEGKAX
_chemical_formula_moiety         '(C83 H68 Gd2 N26 O45)n'
_symmetry_cell_setting           monoclinic
_symmetry_space_group_name_H-M   'P 21/n'
_symmetry_Int_Tables_number      14
_space_group_name_Hall           '-P 2yn'
loop_
_symmetry_equiv_pos_site_id
_symmetry_equiv_pos_as_xyz
1 x,y,z
2 1/2-x,1/2+y,1/2-z
3 -x,-y,-z
4 1/2+x,1/2-y,1/2+z
_cell_length_a                   13.652(2)
_cell_length_b                   30.143(5)
_cell_length_c                   24.698(4)
_cell_angle_alpha                90
_cell_angle_beta                 94.935(3)
_cell_angle_gamma                90
_cell_volume                     10125.9
loop_
_atom_site_label
_atom_site_type_symbol
_atom_site_fract_x
_atom_site_fract_y
_atom_site_fract_z
_atom_site_U_iso_or_equiv
_atom_site_thermal_displace_type
Gd1 Gd 0.64237(4) 0.253651(17) 0.77778(3) 0.0235 Uani
Gd2 Gd 0.36000(4) 0.226330(17) 0.72268(3) 0.0215 Uani
O1 O 0.5680(6) 0.2701(3) 0.8622(3) 0.0440 Uani
O2 O 0.4611(6) 0.2388(2) 0.8037(3) 0.0259 Uani
O3 O -0.0694(6) 0.2792(3) 1.1362(3) 0.0318 Uani
O4 O 0.0532(6) 0.2580(3) 1.1947(3) 0.0307 Uani
O5 O 0.1717(11) 0.1740(5) 0.8848(6) 0.1318 Uani
O6 O 0.1484(11) 0.1844(5) 0.9627(6) 0.1203 Uani
O7 O 0.4201(10) 0.3508(4) 1.0058(5) 0.0858 Uani
O8 O 0.3441(10) 0.3136(4) 1.0577(5) 0.0899 Uani
O9 O 0.1118(10) 0.2886(6) 0.9174(4) 0.1057 Uani
O10 O 0.0199(10) 0.3284(5) 0.9593(5) 0.1001 Uani
O11 O 0.3628(10) 0.1984(5) 1.0401(5) 0.1031 Uani
O12 O 0.3528(11) 0.2041(7) 1.1207(6) 0.1335 Uani
O13 O 0.6093(5) 0.1761(2) 0.7808(3) 0.0264 Uani
O14 O 0.4636(6) 0.1628(2) 0.7330(3) 0.0282 Uani
O15 O 0.7560(6) -0.1955(3) 0.7731(3) 0.0326 Uani
O16 O 0.7578(6) -0.1835(3) 0.6853(4) 0.0378 Uani
O17 O 0.3860(7) 0.0160(3) 0.6745(4) 0.0461 Uani
O18 O 0.4594(7) -0.0414(3) 0.7095(5) 0.0521 Uani
O19 O 0.8309(7) 0.0542(3) 0.8225(5) 0.0561 Uani
O20 O 0.7650(8) -0.0094(3) 0.8390(5) 0.0743 Uani
O21 O 0.6738(10) 0.0157(3) 0.6618(5) 0.0780 Uani
O22 O 0.7612(16) -0.0318(4) 0.6324(7) 0.1543 Uani
O23 O 0.5446(7) -0.0232(3) 0.8474(4) 0.0474 Uani
O24 O 0.5670(9) -0.0894(3) 0.8733(4) 0.0635 Uani
O25 O 0.5460(6) 0.3192(3) 0.7567(3) 0.0299 Uani
O26 O 0.3994(6) 0.3014(3) 0.7164(4) 0.0420 Uani
O27 O 0.2405(6) 0.6632(3) 0.8123(4) 0.0352 Uani
O28 O 0.2220(7) 0.6710(3) 0.7227(4) 0.0421 Uani
O29 O 0.1803(7) 0.4823(3) 0.7030(4) 0.0466 Uani
O30 O 0.1471(7) 0.4119(3) 0.7029(4) 0.0510 Uani
O31 O 0.5310(9) 0.5148(5) 0.7960(10) 0.1793 Uani
O32 O 0.6274(9) 0.4805(4) 0.7527(6) 0.0904 Uani
O33 O 0.3501(12) 0.5543(4) 0.6119(5) 0.1035 Uani
O34 O 0.4324(10) 0.5014(4) 0.6483(5) 0.0764 Uani
O35 O 0.3252(9) 0.5178(3) 0.8860(4) 0.0612 Uani
O36 O 0.3054(9) 0.4609(3) 0.8347(4) 0.0651 Uani
O37 O 0.7481(11) 0.2256(3) 0.8483(6) 0.0988 Uani
O38 O 0.7659(9) 0.2131(4) 0.7319(7) 0.1008 Uani
O39 O 0.2488(8) 0.2639(4) 0.7743(4) 0.0633 Uani
O40 O 0.2379(6) 0.2580(3) 0.6583(4) 0.0385 Uani
N1 N 0.1897(8) 0.1923(4) 0.9252(5) 0.0441 Uani
N2 N 0.3706(10) 0.3201(5) 1.0140(5) 0.0558 Uani
N3 N 0.0820(10) 0.3007(5) 0.9589(5) 0.0538 Uani
N4 N 0.3196(9) 0.2100(5) 1.0746(5) 0.0505 Uani
N5 N 0.4512(7) -0.0016(3) 0.7040(4) 0.0312 Uani
N6 N 0.7643(9) 0.0279(4) 0.8168(5) 0.0489 Uani
N7 N 0.7048(8) -0.0201(3) 0.6636(5) 0.0389 Uani
N8 N 0.5771(8) -0.0600(3) 0.8405(4) 0.0313 Uani
N9 N 0.2044(8) 0.4432(3) 0.7073(5) 0.0375 Uani
N10 N 0.5469(9) 0.4842(4) 0.7732(7) 0.0703 Uani
N11 N 0.3787(10) 0.5331(4) 0.6504(6) 0.0522 Uani
N12 N 0.3181(8) 0.5006(4) 0.8424(5) 0.0413 Uani
N13 N 0.8612(9) 0.1782(3) 0.8816(6) 0.1562 Uani
N14 N 0.9314(6) 0.1939(7) 0.7310(4) 0.9601 Uani
N15 N 0.1401(13) 0.3206(6) 0.7984(7) 0.0910 Uani
N16 N 0.1943(11) 0.3145(4) 0.5992(6) 0.0798 Uani
C1 C 0.4843(9) 0.2550(4) 0.8497(5) 0.0271 Uani
C2 C 0.4092(9) 0.2557(4) 0.8906(5) 0.0263 Uani
C3 C 0.3305(9) 0.2261(4) 0.8877(5) 0.0290 Uani
H1 H 0.3205 0.2065 0.8586 0.0350 Uiso
C4 C 0.2681(9) 0.2262(4) 0.9283(5) 0.0284 Uani
C5 C 0.2765(10) 0.2557(4) 0.9722(5) 0.0323 Uani
C6 C 0.3532(10) 0.2858(4) 0.9716(5) 0.0347 Uani
C7 C 0.4192(9) 0.2858(4) 0.9324(5) 0.0331 Uani
H2 H 0.4705 0.3062 0.9343 0.0390 Uiso
C8 C 0.2064(9) 0.2563(4) 1.0161(5) 0.0292 Uani
C9 C 0.1172(10) 0.2788(4) 1.0110(5) 0.0334 Uani
C10 C 0.0561(9) 0.2828(4) 1.0519(5) 0.0302 Uani
H3 H -0.0023 0.2987 1.0467 0.0360 Uiso
C11 C 0.0842(9) 0.2621(4) 1.1022(5) 0.0260 Uani
C12 C 0.1695(9) 0.2395(4) 1.1083(5) 0.0351 Uani
H4 H 0.1887 0.2262 1.1414 0.0420 Uiso
C13 C 0.2293(9) 0.2358(4) 1.0658(5) 0.0324 Uani
C14 C 0.0178(9) 0.2670(4) 1.1477(5) 0.0290 Uani
C15 C 0.5451(9) 0.1516(4) 0.7584(5) 0.0274 Uani
C16 C 0.5667(8) 0.1022(4) 0.7599(5) 0.0227 Uani
C17 C 0.5011(8) 0.0725(4) 0.7339(5) 0.0265 Uani
H5 H 0.4421 0.0828 0.7167 0.0320 Uiso
C18 C 0.5223(8) 0.0283(4) 0.7332(5) 0.0252 Uani
C19 C 0.6095(9) 0.0105(4) 0.7597(5) 0.0279 Uani
C20 C 0.6708(9) 0.0416(4) 0.7861(5) 0.0308 Uani
C21 C 0.6524(9) 0.0865(4) 0.7857(5) 0.0298 Uani
H6 H 0.6978 0.1060 0.8029 0.0360 Uiso
C22 C 0.6388(8) -0.0372(4) 0.7524(5) 0.0255 Uani
C23 C 0.6842(9) -0.0514(4) 0.7077(6) 0.0336 Uani
C24 C 0.7130(8) -0.0948(4) 0.7003(5) 0.0298 Uani
H7 H 0.7400 -0.1029 0.6684 0.0360 Uiso
C25 C 0.7019(8) -0.1253(4) 0.7394(5) 0.0264 Uani
C26 C 0.6578(8) -0.1137(4) 0.7848(5) 0.0291 Uani
H8 H 0.6491 -0.1348 0.8115 0.0350 Uiso
C27 C 0.6259(9) -0.0705(4) 0.7911(5) 0.0275 Uani
C28 C 0.7403(8) -0.1717(4) 0.7316(5) 0.0280 Uani
C29 C 0.4644(9) 0.3290(4) 0.7355(5) 0.0297 Uani
C30 C 0.4337(9) 0.3776(4) 0.7338(5) 0.0321 Uani
C31 C 0.3385(9) 0.3891(4) 0.7182(5) 0.0303 Uani
H9 H 0.2931 0.3677 0.7056 0.0360 Uiso
C32 C 0.3108(9) 0.4330(4) 0.7214(5) 0.0291 Uani
C33 C 0.3759(8) 0.4664(4) 0.7388(5) 0.0261 Uani
C34 C 0.4712(9) 0.4524(4) 0.7531(5) 0.0317 Uani
C35 C 0.5014(9) 0.4089(4) 0.7508(6) 0.0370 Uani
H10 H 0.5664 0.4011 0.7607 0.0440 Uiso
C36 C 0.3457(9) 0.5139(4) 0.7446(5) 0.0313 Uani
C37 C 0.3462(9) 0.5447(4) 0.7036(5) 0.0334 Uani
C38 C 0.3132(9) 0.5878(4) 0.7085(6) 0.0335 Uani
H11 H 0.3088 0.6068 0.6787 0.0400 Uiso
C39 C 0.2867(8) 0.6023(4) 0.7584(5) 0.0288 Uani
C40 C 0.2906(8) 0.5735(4) 0.8015(5) 0.0275 Uani
H12 H 0.2741 0.5831 0.8353 0.0330 Uiso
C41 C 0.3192(8) 0.5300(4) 0.7944(5) 0.0268 Uani
C42 C 0.2475(8) 0.6486(4) 0.7646(5) 0.0296 Uani
C43 C 0.7653(14) 0.1943(9) 0.8721(13) 0.1343 Uani
H13 H 0.7141 0.1787 0.8858 0.1620 Uiso
C44 C 0.936(3) 0.2124(13) 0.877(4) 0.4919 Uani
H14 H 0.9177 0.2302 0.8450 0.8180 Uiso
H15 H 0.9982 0.1987 0.8730 0.8180 Uiso
H16 H 0.9399 0.2309 0.9084 0.8180 Uiso
C45 C 0.894(2) 0.1377(7) 0.9086(14) 0.1955 Uani
H17 H 0.8378 0.1190 0.9129 0.2940 Uiso
H18 H 0.9259 0.1446 0.9437 0.2940 Uiso
H19 H 0.9386 0.1226 0.8872 0.2940 Uiso
C46 C 0.836(3) 0.206(4) 0.7065(16) 0.8000 Uani
H20 H 0.8270 0.2074 0.6688 0.9660 Uiso
C47 C 0.9837(18) 0.2080(8) 0.6806(10) 0.1649 Uani
H21 H 0.9445 0.2299 0.6604 0.2500 Uiso
H22 H 0.9920 0.1826 0.6580 0.2500 Uiso
H23 H 1.0468 0.2204 0.6921 0.2500 Uiso
C48 C 0.9486(5) 0.1516(3) 0.7654(6) 0.7300 Uani
H24 H 0.9170 0.1546 0.7985 1.0880 Uiso
H25 H 1.0179 0.1473 0.7739 1.0880 Uiso
H26 H 0.9216 0.1265 0.7453 1.0880 Uiso
C49 C 0.1774(18) 0.2830(7) 0.7749(8) 0.1297 Uani
H27 H 0.1282 0.2692 0.7526 0.1560 Uiso
C50 C 0.0375(16) 0.3220(19) 0.7890(12) 0.2865 Uani
H28 H 0.0188 0.3161 0.7514 0.4310 Uiso
H29 H 0.0144 0.3509 0.7982 0.4310 Uiso
H30 H 0.0090 0.3001 0.8111 0.4310 Uiso
C51 C 0.208(2) 0.3512(11) 0.8317(13) 0.2032 Uani
H31 H 0.2740 0.3395 0.8337 0.3040 Uiso
H32 H 0.1875 0.3536 0.8678 0.3040 Uiso
H33 H 0.2074 0.3800 0.8151 0.3040 Uiso
C52 C 0.2576(12) 0.2810(5) 0.6211(7) 0.0638 Uani
H34 H 0.3171 0.2765 0.6061 0.0770 Uiso
C53 C 0.217(2) 0.3402(9) 0.5512(12) 0.1899 Uani
H35 H 0.2815 0.3324 0.5415 0.2810 Uiso
H36 H 0.2153 0.3713 0.5594 0.2810 Uiso
H37 H 0.1695 0.3337 0.5214 0.2810 Uiso
C54 C 0.1017(13) 0.3238(6) 0.6197(9) 0.0892 Uani
H38 H 0.0504 0.3085 0.5981 0.1340 Uiso
H39 H 0.0895 0.3552 0.6181 0.1340 Uiso
H40 H 0.1029 0.3140 0.6567 0.1340 Uiso
Gd1C Gd 0.14237(4) 0.246349(17) 1.27778(3) 0.0235 Uani
Gd1A Gd 0.85763(4) -0.246349(17) 0.72222(3) 0.0235 Uani
Gd2C Gd -0.14000(4) 0.273670(17) 1.22268(3) 0.0215 Uani
Gd2A Gd 0.14000(4) 0.726330(17) 0.77732(3) 0.0215 Uani
O3C O 0.4306(6) 0.2208(3) 0.6362(3) 0.0318 Uani
O4C O 0.5532(6) 0.2420(3) 0.6947(3) 0.0307 Uani
O15A O 0.7440(6) 0.3045(3) 0.7269(3) 0.0326 Uani
O16A O 0.7422(6) 0.3165(3) 0.8147(4) 0.0378 Uani
O27A O 0.2595(6) 0.1632(3) 0.6877(4) 0.0352 Uani
O28A O 0.2780(7) 0.1710(3) 0.7773(4) 0.0421 Uani
N17 N 0.281(2) -0.1193(9) 0.5135(14) 0.2242 Uani
N18 N 0.5588(17) -0.0753(8) 0.5936(10) 0.1456 Uani
C55 C 0.4986(17) 0.0388(8) 0.5717(10) 0.1042 Uani
H41 H 0.5420 0.0150 0.5711 0.1260 Uiso
C56 C 0.531(2) 0.0808(8) 0.5934(10) 0.1256 Uani
H42 H 0.5969 0.0852 0.6045 0.1480 Uiso
C57 C 0.466(3) 0.1141(6) 0.5980(9) 0.1270 Uani
H43 H 0.4869 0.1405 0.6150 0.1510 Uiso
C58 C 0.367(2) 0.1089(8) 0.5765(9) 0.1146 Uani
H44 H 0.3221 0.1321 0.5786 0.1390 Uiso
C59 C 0.336(2) 0.0686(8) 0.5524(13) 0.1446 Uani
H45 H 0.2720 0.0649 0.5370 0.1720 Uiso
C60 C 0.4038(19) 0.0344(7) 0.5521(10) 0.1014 Uani
C61 C 0.3556(19) -0.0090(7) 0.5383(12) 0.1457 Uani
H46 H 0.2934 -0.0071 0.5200 0.1730 Uiso
C62 C 0.3898(17) -0.0524(7) 0.5488(12) 0.1295 Uani
C63 C 0.326(2) -0.0882(9) 0.5326(16) 0.1778 Uani
C64 C 0.4812(18) -0.0636(9) 0.5767(11) 0.1169 Uani
N19 N 0.3217(14) -0.0671(7) 1.0811(7) 0.0962 Uani
N20 N 0.277(2) -0.0522(7) 0.9075(8) 0.1456 Uani
C65 C 0.4012(12) 0.0492(7) 0.9102(7) 0.0654 Uani
H47 H 0.3830 0.0212 0.8972 0.0790 Uiso
C66 C 0.4219(14) 0.0811(8) 0.8758(8) 0.0855 Uani
H48 H 0.4176 0.0749 0.8388 0.1020 Uiso
C67 C 0.4499(15) 0.1238(7) 0.8933(7) 0.0839 Uani
H49 H 0.4637 0.1457 0.8685 0.1000 Uiso
C68 C 0.4566(15) 0.1326(6) 0.9489(7) 0.0764 Uani
H50 H 0.4761 0.1606 0.9617 0.0910 Uiso
C69 C 0.4341(13) 0.0998(6) 0.9850(7) 0.0689 Uani
H51 H 0.4371 0.1057 1.0221 0.0830 Uiso
C70 C 0.4070(12) 0.0579(6) 0.9653(7) 0.0586 Uani
C71 C 0.3851(12) 0.0250(6) 1.0052(7) 0.0630 Uani
H52 H 0.4027 0.0331 1.0411 0.0760 Uiso
C72 C 0.3434(14) -0.0154(7) 0.9989(7) 0.0687 Uani
C73 C 0.3320(14) -0.0432(7) 1.0460(8) 0.0707 Uani
C74 C 0.3073(18) -0.0339(7) 0.9472(8) 0.0954 Uani
N21 N 0.252(2) -0.1318(7) 0.3258(13) 0.2153 Uani
N22 N -0.0257(16) -0.0908(9) 0.3910(13) 0.1829 Uani
C75 C 0.2085(19) -0.1081(7) 0.3515(10) 0.1150 Uani
C76 C 0.1641(15) -0.0782(7) 0.3906(10) 0.0973 Uani
H53 H 0.1939 -0.0839 0.4270 0.1170 Uiso
H54 H 0.1772 -0.0476 0.3815 0.1170 Uiso
C77 C 0.0592(16) -0.0852(9) 0.3889(12) 0.1157 Uani
N23 N 0.109(2) 0.0006(11) 0.4700(9) 0.2808 Uani
N24 N 0.035(4) 0.1160(16) 0.3757(18) 0.3232 Uani
C78 C 0.055(10) 0.027(4) 0.456(6) 0.8700 Uani
C79 C -0.018(2) 0.0620(10) 0.4494(16) 0.1942 Uani
H55 H -0.0139 0.0792 0.4827 0.2320 Uiso
H56 H -0.0826 0.0485 0.4452 0.2320 Uiso
C80 C -0.009(4) 0.0939(14) 0.4020(14) 0.6998 Uani
N25 N -0.144(7) 0.240(4) 1.006(4) 0.2057 Uani
N26 N -0.329(2) 0.3611(11) 0.9854(15) 0.2811 Uani
C81 C -0.1782(9) 0.2676(7) 0.9785(3) 0.1884 Uani
C82 C -0.228(4) 0.3002(13) 0.9418(19) 0.4398 Uani
H57 H -0.2644 0.2836 0.9131 0.5250 Uiso
H58 H -0.1769 0.3162 0.9250 0.5250 Uiso
C83 C -0.298(6) 0.335(5) 0.961(7) 1.2453 Uani
O41 O 0.517(4) 0.3580(16) 0.6070(12) 0.4068 Uani
O42 O 0.860(4) -0.0888(13) 0.9117(17) 0.4322 Uani
O43 O 0.069(2) -0.016(3) 1.018(2) 0.6403 Uani
O44 O 0.0816(17) 0.2361(8) 0.5354(10) 0.1790 Uani
O45 O 0.0801(18) 0.1939(9) 0.6027(17) 0.2915 Uani
loop_
_atom_site_aniso_label
_atom_site_aniso_U_11
_atom_site_aniso_U_22
_atom_site_aniso_U_33
_atom_site_aniso_U_23
_atom_site_aniso_U_13
_atom_site_aniso_U_12
Gd1 0.0219(3) 0.0122(3) 0.0375(4) -0.0004(3) 0.0097(3) -0.0021(2)
Gd2 0.0201(3) 0.0137(3) 0.0318(3) 0.0014(2) 0.0080(2) -0.0003(2)
O1 0.033(5) 0.072(7) 0.027(5) -0.005(5) 0.002(4) -0.028(5)
O2 0.037(5) 0.017(4) 0.024(4) -0.007(3) 0.005(4) -0.003(4)
O3 0.036(5) 0.022(4) 0.039(5) -0.005(4) 0.013(4) -0.001(4)
O4 0.046(5) 0.029(5) 0.018(4) 0.000(4) 0.008(4) 0.011(4)
O5 0.129(13) 0.152(14) 0.127(13) -0.104(12) 0.084(11) -0.116(11)
O6 0.144(13) 0.128(13) 0.105(11) -0.066(9) 0.103(11) -0.096(11)
O7 0.107(10) 0.070(8) 0.087(9) -0.043(7) 0.046(8) -0.052(8)
O8 0.120(11) 0.105(11) 0.051(8) -0.038(7) 0.043(8) -0.047(9)
O9 0.100(10) 0.190(16) 0.032(7) 0.046(8) 0.034(7) 0.067(10)
O10 0.106(11) 0.134(13) 0.065(9) 0.044(8) 0.034(8) 0.072(10)
O11 0.093(10) 0.171(15) 0.051(7) 0.036(8) 0.039(7) 0.097(10)
O12 0.097(11) 0.23(2) 0.079(11) 0.057(12) 0.040(9) 0.102(12)
O13 0.023(4) 0.009(4) 0.047(5) -0.001(4) 0.001(4) -0.007(3)
O14 0.029(5) 0.013(4) 0.043(5) 0.000(4) 0.006(4) 0.005(3)
O15 0.037(5) 0.022(4) 0.040(5) 0.001(4) 0.011(4) 0.010(4)
O16 0.049(6) 0.026(5) 0.038(6) -0.003(4) 0.002(5) 0.015(4)
O17 0.034(5) 0.033(5) 0.067(7) -0.009(5) -0.020(5) 0.004(4)
O18 0.038(6) 0.012(5) 0.103(9) -0.010(5) -0.013(6) -0.005(4)
O19 0.033(6) 0.028(5) 0.102(9) -0.008(5) -0.024(6) 0.002(4)
O20 0.073(8) 0.024(6) 0.117(11) 0.007(6) -0.043(7) 0.013(5)
O21 0.125(11) 0.027(6) 0.091(9) 0.022(6) 0.062(8) 0.041(6)
O22 0.30(2) 0.040(8) 0.151(14) 0.020(8) 0.182(16) 0.027(11)
O23 0.068(7) 0.019(5) 0.057(7) -0.003(4) 0.016(5) 0.010(5)
O24 0.112(10) 0.031(6) 0.053(7) 0.014(5) 0.039(7) 0.023(6)
O25 0.026(5) 0.020(4) 0.044(5) 0.002(4) 0.005(4) 0.005(4)
O26 0.038(5) 0.030(5) 0.055(6) 0.005(4) -0.013(5) 0.015(4)
O27 0.041(5) 0.016(4) 0.048(6) -0.006(4) 0.000(4) 0.007(4)
O28 0.053(6) 0.030(5) 0.047(6) 0.008(4) 0.025(5) 0.024(4)
O29 0.041(6) 0.023(5) 0.074(7) 0.005(5) -0.006(5) 0.008(4)
O30 0.041(6) 0.022(5) 0.086(8) -0.008(5) -0.017(5) 0.000(4)
O31 0.053(8) 0.099(11) 0.38(3) -0.150(16) -0.015(12) 0.020(8)
O32 0.049(8) 0.059(8) 0.161(14) 0.000(8) -0.004(8) -0.013(6)
O33 0.187(16) 0.064(9) 0.066(9) 0.018(7) 0.048(10) 0.065(10)
O34 0.119(10) 0.037(6) 0.081(9) 0.007(6) 0.053(8) 0.027(7)
O35 0.091(9) 0.047(7) 0.045(7) -0.002(5) 0.002(6) 0.007(6)
O36 0.106(9) 0.029(6) 0.064(7) 0.006(5) 0.029(7) 0.001(6)
O37 0.120(12) 0.026(6) 0.135(13) 0.008(7) -0.078(10) 0.013(7)
O38 0.078(9) 0.034(6) 0.205(16) -0.004(8) 0.096(10) 0.001(6)
O39 0.072(8) 0.066(8) 0.054(7) 0.002(6) 0.017(6) 0.042(6)
O40 0.033(5) 0.030(5) 0.052(6) 0.013(5) 0.000(5) 0.000(4)
N1 0.048(7) 0.042(7) 0.046(7) -0.006(6) 0.025(6) -0.015(6)
N2 0.068(9) 0.076(10) 0.027(7) -0.014(6) 0.024(6) -0.031(8)
N3 0.057(8) 0.076(10) 0.031(7) 0.024(6) 0.018(6) 0.029(7)
N4 0.039(7) 0.083(10) 0.032(7) 0.020(7) 0.018(6) 0.024(7)
N5 0.022(6) 0.028(6) 0.044(7) -0.010(5) 0.006(5) -0.004(5)
N6 0.042(7) 0.021(6) 0.078(10) -0.003(6) -0.028(7) 0.000(5)
N7 0.039(7) 0.021(6) 0.059(8) 0.004(5) 0.018(6) 0.007(5)
N8 0.038(6) 0.022(6) 0.034(6) -0.005(5) 0.004(5) 0.007(5)
N9 0.040(7) 0.025(6) 0.047(7) 0.002(5) 0.000(6) 0.006(5)
N10 0.024(7) 0.023(7) 0.165(16) -0.024(8) 0.014(8) 0.006(5)
N11 0.071(9) 0.027(7) 0.063(9) 0.007(6) 0.031(7) 0.014(6)
N12 0.044(7) 0.040(7) 0.040(7) 0.001(6) 0.004(6) 0.008(6)
N13 0.116(17) 0.072(14) 0.26(3) 0.024(16) -0.103(19) 0.010(12)
N14 1.40(4) 0.90(4) 0.60(4) 0.000(6) 0.20(4) 0.000(6)
N15 0.091(5) 0.091(5) 0.091(5) 0.0002(13) 0.0080(13) 0.0006(13)
N16 0.089(12) 0.042(8) 0.101(13) 0.042(8) -0.035(10) 0.007(8)
C1 0.036(8) 0.026(7) 0.020(7) 0.000(5) 0.006(6) 0.002(5)
C2 0.030(7) 0.026(7) 0.024(7) 0.000(5) 0.009(6) -0.004(5)
C3 0.034(7) 0.034(7) 0.021(6) 0.001(5) 0.014(6) -0.001(6)
C4 0.035(7) 0.026(7) 0.024(7) 0.001(5) 0.001(6) -0.011(5)
C5 0.041(8) 0.025(7) 0.032(7) 0.008(5) 0.009(6) 0.004(6)
C6 0.044(8) 0.037(7) 0.023(7) -0.007(6) 0.002(6) -0.016(6)
C7 0.036(7) 0.036(7) 0.028(7) -0.005(6) 0.006(6) -0.016(6)
C8 0.043(8) 0.014(6) 0.032(7) 0.001(5) 0.011(6) 0.004(5)
C9 0.046(8) 0.038(8) 0.016(6) 0.005(5) 0.001(6) 0.006(6)
C10 0.035(7) 0.027(7) 0.030(7) 0.005(5) 0.011(6) 0.007(5)
C11 0.035(7) 0.022(6) 0.024(6) -0.004(5) 0.019(6) -0.002(5)
C12 0.031(7) 0.043(8) 0.032(7) 0.000(6) 0.006(6) 0.009(6)
C13 0.034(7) 0.035(7) 0.030(7) -0.009(6) 0.014(6) 0.004(6)
C14 0.027(7) 0.018(6) 0.044(9) -0.003(6) 0.015(6) 0.003(5)
C15 0.033(8) 0.019(6) 0.033(7) 0.006(5) 0.019(6) -0.001(5)
C16 0.019(6) 0.015(6) 0.034(7) -0.001(5) 0.001(5) 0.001(5)
C17 0.019(6) 0.025(7) 0.035(7) 0.000(6) -0.001(5) 0.009(5)
C18 0.022(6) 0.014(6) 0.041(7) 0.000(5) 0.011(6) -0.001(5)
C19 0.030(7) 0.015(6) 0.039(7) -0.001(5) 0.004(6) -0.003(5)
C20 0.033(7) 0.021(6) 0.037(8) 0.001(5) -0.005(6) 0.004(5)
C21 0.030(7) 0.018(6) 0.041(8) 0.004(5) 0.000(6) -0.003(5)
C22 0.020(6) 0.010(6) 0.046(8) -0.002(5) 0.000(6) 0.004(5)
C23 0.019(7) 0.029(7) 0.054(9) 0.011(6) 0.010(6) 0.002(5)
C24 0.021(7) 0.021(7) 0.047(8) -0.008(6) 0.001(6) 0.009(5)
C25 0.021(6) 0.021(6) 0.037(7) 0.001(5) 0.001(6) 0.006(5)
C26 0.028(7) 0.010(6) 0.048(8) 0.002(5) -0.004(6) 0.003(5)
C27 0.036(7) 0.014(6) 0.032(7) -0.004(5) 0.000(6) -0.002(5)
C28 0.019(6) 0.023(6) 0.042(8) 0.005(6) 0.002(6) 0.002(5)
C29 0.034(8) 0.011(6) 0.045(8) -0.003(5) 0.009(6) -0.012(5)
C30 0.035(8) 0.018(6) 0.045(8) 0.009(6) 0.013(6) -0.004(6)
C31 0.028(7) 0.022(7) 0.041(8) -0.005(6) 0.004(6) -0.005(5)
C32 0.022(6) 0.029(7) 0.036(7) -0.005(6) 0.001(6) -0.007(5)
C33 0.024(7) 0.015(6) 0.041(8) 0.002(5) 0.013(6) 0.006(5)
C34 0.027(7) 0.021(6) 0.048(8) -0.006(6) 0.009(6) -0.006(6)
C35 0.024(7) 0.027(7) 0.061(10) 0.006(6) 0.009(7) -0.001(5)
C36 0.024(7) 0.028(7) 0.042(8) -0.003(6) 0.003(6) 0.000(5)
C37 0.035(8) 0.019(6) 0.049(8) -0.004(6) 0.019(7) 0.003(5)
C38 0.032(7) 0.022(7) 0.047(8) 0.003(6) 0.007(6) -0.006(5)
C39 0.025(7) 0.017(6) 0.045(8) -0.002(6) 0.007(6) 0.002(5)
C40 0.019(6) 0.022(6) 0.042(8) -0.005(6) 0.006(6) -0.001(5)
C41 0.022(6) 0.015(6) 0.042(8) 0.005(5) -0.006(6) 0.006(5)
C42 0.017(6) 0.029(7) 0.043(8) -0.005(6) 0.004(6) -0.001(5)
C43 0.083(18) 0.13(3) 0.18(3) -0.07(2) -0.045(19) -0.029(18)
C44 0.39(4) 0.15(4) 0.9(2) 0.18(8) -0.15(8) -0.08(3)
C45 0.20(3) 0.052(15) 0.31(5) 0.01(2) -0.12(3) -0.002(18)
C46 0.80(12) 0.80(12) 0.80(12) 0.000(6) 0.069(12) 0.000(6)
C47 0.14(2) 0.073(17) 0.27(4) -0.03(2) -0.05(3) -0.053(17)
C48 0.73(9) 0.73(9) 0.73(9) 0.000(6) 0.062(10) 0.000(6)
C49 0.24(3) 0.094(18) 0.063(14) 0.033(12) 0.058(18) 0.07(2)
C50 0.08(2) 0.70(10) 0.08(2) 0.05(4) 0.009(17) 0.07(4)
C51 0.205(17) 0.203(17) 0.202(17) 0.004(6) 0.019(6) -0.003(6)
C52 0.060(11) 0.057(11) 0.071(12) -0.010(10) -0.014(10) 0.004(9)
C53 0.20(3) 0.14(3) 0.23(4) 0.14(3) 0.02(3) 0.01(2)
C54 0.085(15) 0.066(13) 0.112(17) -0.027(12) -0.018(13) 0.035(11)
Gd1C 0.0219 0.0122 0.0375 0.0004 0.0097 0.0021
Gd1A 0.0219 0.0122 0.0375 0.0004 0.0097 0.0021
Gd2C 0.0201 0.0137 0.0318 -0.0014 0.008 0.0003
Gd2A 0.0201 0.0137 0.0318 -0.0014 0.008 0.0003
O3C 0.036 0.022 0.039 0.005 0.013 0.001
O4C 0.046 0.029 0.018 0 0.008 -0.011
O15A 0.037 0.022 0.04 -0.001 0.011 -0.01
O16A 0.049 0.026 0.038 0.003 0.002 -0.015
O27A 0.041 0.016 0.048 0.006 0 -0.007
O28A 0.053 0.03 0.047 -0.008 0.025 -0.024
N17 0.21(3) 0.16(3) 0.28(4) -0.01(3) -0.11(3) -0.06(2)
N18 0.15(2) 0.122(19) 0.15(2) 0.003(15) -0.072(18) 0.002(16)
C55 0.084(17) 0.106(19) 0.12(2) -0.034(15) -0.007(15) -0.007(14)
C56 0.19(3) 0.075(18) 0.11(2) 0.002(15) 0.003(19) -0.043(19)
C57 0.28(4) 0.022(10) 0.073(16) 0.010(10) -0.02(2) -0.012(17)
C58 0.22(3) 0.059(15) 0.069(16) 0.022(12) 0.036(19) -0.003(18)
C59 0.15(3) 0.075(18) 0.22(3) 0.01(2) 0.08(2) 0.014(18)
C60 0.105(19) 0.094(18) 0.104(18) -0.031(14) 0.002(15) -0.011(15)
C61 0.13(2) 0.14(3) 0.17(3) -0.05(2) 0.03(2) -0.04(2)
C62 0.14(2) 0.056(15) 0.19(3) -0.033(17) 0.00(2) 0.007(15)
C63 0.14(3) 0.10(2) 0.28(5) 0.01(3) -0.06(3) -0.04(2)
C64 0.100(19) 0.11(2) 0.13(2) -0.016(16) -0.052(18) 0.017(16)
N19 0.107(14) 0.122(16) 0.060(11) 0.006(11) 0.010(10) -0.017(12)
N20 0.24(3) 0.119(18) 0.079(14) -0.033(13) 0.020(16) -0.073(18)
C65 0.059(11) 0.082(14) 0.057(12) -0.010(10) 0.016(9) 0.011(9)
C66 0.083(15) 0.12(2) 0.055(12) -0.022(13) 0.015(11) 0.035(14)
C67 0.109(16) 0.096(16) 0.050(11) 0.021(11) 0.026(11) 0.053(13)
C68 0.128(17) 0.047(10) 0.057(11) 0.006(9) 0.024(11) 0.026(11)
C69 0.097(14) 0.070(12) 0.039(9) -0.009(9) 0.001(9) 0.030(11)
C70 0.061(11) 0.066(12) 0.050(10) -0.004(9) 0.011(9) 0.021(9)
C71 0.058(11) 0.087(14) 0.044(10) -0.025(9) 0.004(8) 0.020(10)
C72 0.073(13) 0.077(14) 0.055(11) -0.010(10) -0.001(10) 0.010(10)
C73 0.065(12) 0.083(15) 0.064(13) -0.017(11) 0.005(10) 0.005(10)
C74 0.14(2) 0.078(15) 0.069(14) -0.011(12) 0.013(15) -0.005(14)
N21 0.32(4) 0.083(15) 0.28(3) -0.083(19) 0.24(3) -0.080(19)
N22 0.099(18) 0.18(3) 0.26(3) 0.06(2) -0.04(2) 0.025(18)
C75 0.16(2) 0.087(17) 0.108(18) -0.044(14) 0.069(17) -0.057(16)
C76 0.110(18) 0.065(14) 0.125(19) 0.007(13) 0.056(16) 0.003(12)
C77 0.084(17) 0.12(2) 0.14(2) 0.044(17) -0.008(18) 0.000(16)
N23 0.30(4) 0.45(6) 0.11(2) -0.12(3) 0.12(2) -0.30(4)
N24 0.33(3) 0.32(3) 0.32(3) 0.000(6) 0.030(7) 0.001(6)
C78 0.87(14) 0.87(14) 0.87(14) 0.000(6) 0.075(14) 0.000(6)
C79 0.18(3) 0.14(3) 0.28(5) -0.09(3) 0.12(3) -0.07(3)
C80 1.05(18) 0.65(10) 0.48(7) -0.45(8) 0.53(10) -0.68(12)
N25 0.109(18) 0.21(3) 0.29(3) 0.08(2) -0.03(2) 0.029(18)
N26 0.18(3) 0.25(4) 0.39(5) 0.22(4) -0.11(3) -0.16(3)
C81 0.15(3) 0.29(4) 0.13(3) -0.13(3) 0.04(2) -0.12(3)
C82 0.44(2) 0.53(2) 0.35(2) -0.158(6) 0.038(6) -0.397(6)
C83 1.0(3) 1.2(4) 1.5(4) -0.9(3) -0.1(3) -0.5(3)
O41 0.68(9) 0.40(6) 0.16(3) 0.00(3) 0.15(4) 0.23(6)
O42 0.69(9) 0.25(4) 0.33(5) 0.10(3) -0.11(5) 0.24(5)
O43 0.77(3) 0.64(18) 0.51(7) 0.45(10) 0.05(4) -0.07(6)
O44 0.173(10) 0.180(10) 0.183(10) -0.022(6) 0.009(6) -0.002(6)
O45 0.17(2) 0.17(2) 0.50(5) -0.10(3) -0.17(3) -0.049(19)
loop_
_geom_bond_atom_site_label_1
_geom_bond_atom_site_label_2
_geom_bond_site_symmetry_1
_geom_bond_site_symmetry_2
Gd1 O1 1_555 1_555
Gd2 O2 1_555 1_555
O1 C1 1_555 1_555
O2 Gd1 1_555 1_555
O3 C14 1_555 1_555
O4 C14 1_555 1_555
O5 N1 1_555 1_555
O6 N1 1_555 1_555
O7 N2 1_555 1_555
O8 N2 1_555 1_555
O9 N3 1_555 1_555
O10 N3 1_555 1_555
O11 N4 1_555 1_555
O12 N4 1_555 1_555
O13 Gd1 1_555 1_555
O14 Gd2 1_555 1_555
O15 C28 1_555 1_555
O16 C28 1_555 1_555
O17 N5 1_555 1_555
O18 N5 1_555 1_555
O19 N6 1_555 1_555
O20 N6 1_555 1_555
O21 N7 1_555 1_555
O22 N7 1_555 1_555
O23 N8 1_555 1_555
O24 N8 1_555 1_555
O25 Gd1 1_555 1_555
O26 Gd2 1_555 1_555
O27 C42 1_555 1_555
O28 C42 1_555 1_555
O29 N9 1_555 1_555
O30 N9 1_555 1_555
O31 N10 1_555 1_555
O32 N10 1_555 1_555
O33 N11 1_555 1_555
O34 N11 1_555 1_555
O35 N12 1_555 1_555
O36 N12 1_555 1_555
O37 Gd1 1_555 1_555
O38 Gd1 1_555 1_555
O39 Gd2 1_555 1_555
O40 Gd2 1_555 1_555
N1 C4 1_555 1_555
N2 C6 1_555 1_555
N3 C9 1_555 1_555
N4 C13 1_555 1_555
N5 C18 1_555 1_555
N6 C20 1_555 1_555
N7 C23 1_555 1_555
N8 C27 1_555 1_555
N9 C32 1_555 1_555
N10 C34 1_555 1_555
N11 C37 1_555 1_555
N12 C41 1_555 1_555
N13 C43 1_555 1_555
N14 C46 1_555 1_555
N15 C49 1_555 1_555
N16 C52 1_555 1_555
N17 C63 1_555 1_555
N18 C64 1_555 1_555
N19 C73 1_555 1_555
N20 C74 1_555 1_555
N21 C75 1_555 1_555
N22 C77 1_555 1_555
N23 C78 1_555 1_555
N24 C80 1_555 1_555
N25 C81 1_555 1_555
N26 C83 1_555 1_555
C1 O2 1_555 1_555
C2 C1 1_555 1_555
C3 C2 1_555 1_555
H1 C3 1_555 1_555
C4 C3 1_555 1_555
C5 C4 1_555 1_555
C6 C5 1_555 1_555
C7 C2 1_555 1_555
H2 C7 1_555 1_555
C8 C5 1_555 1_555
C9 C8 1_555 1_555
C10 C9 1_555 1_555
H3 C10 1_555 1_555
C11 C10 1_555 1_555
C12 C11 1_555 1_555
H4 C12 1_555 1_555
C13 C8 1_555 1_555
C14 C11 1_555 1_555
C15 O13 1_555 1_555
C16 C15 1_555 1_555
C17 C16 1_555 1_555
H5 C17 1_555 1_555
C18 C17 1_555 1_555
C19 C18 1_555 1_555
C20 C19 1_555 1_555
C21 C16 1_555 1_555
H6 C21 1_555 1_555
C22 C19 1_555 1_555
C23 C22 1_555 1_555
C24 C23 1_555 1_555
H7 C24 1_555 1_555
C25 C24 1_555 1_555
C26 C25 1_555 1_555
H8 C26 1_555 1_555
C27 C22 1_555 1_555
C28 C25 1_555 1_555
C29 O25 1_555 1_555
C30 C29 1_555 1_555
C31 C30 1_555 1_555
H9 C31 1_555 1_555
C32 C31 1_555 1_555
C33 C32 1_555 1_555
C34 C33 1_555 1_555
C35 C30 1_555 1_555
H10 C35 1_555 1_555
C36 C33 1_555 1_555
C37 C36 1_555 1_555
C38 C37 1_555 1_555
H11 C38 1_555 1_555
C39 C38 1_555 1_555
C40 C39 1_555 1_555
H12 C40 1_555 1_555
C41 C36 1_555 1_555
C42 C39 1_555 1_555
C43 O37 1_555 1_555
H13 C43 1_555 1_555
C44 N13 1_555 1_555
H14 C44 1_555 1_555
H15 C44 1_555 1_555
H16 C44 1_555 1_555
C45 N13 1_555 1_555
H17 C45 1_555 1_555
H18 C45 1_555 1_555
H19 C45 1_555 1_555
C46 O38 1_555 1_555
H20 C46 1_555 1_555
C47 N14 1_555 1_555
H21 C47 1_555 1_555
H22 C47 1_555 1_555
H23 C47 1_555 1_555
C48 N14 1_555 1_555
H24 C48 1_555 1_555
H25 C48 1_555 1_555
H26 C48 1_555 1_555
C49 O39 1_555 1_555
H27 C49 1_555 1_555
C50 N15 1_555 1_555
H28 C50 1_555 1_555
H29 C50 1_555 1_555
H30 C50 1_555 1_555
C51 N15 1_555 1_555
H31 C51 1_555 1_555
H32 C51 1_555 1_555
H33 C51 1_555 1_555
C52 O40 1_555 1_555
H34 C52 1_555 1_555
C53 N16 1_555 1_555
H35 C53 1_555 1_555
H36 C53 1_555 1_555
H37 C53 1_555 1_555
C54 N16 1_555 1_555
H38 C54 1_555 1_555
H39 C54 1_555 1_555
H40 C54 1_555 1_555
C55 H41 1_555 1_555
C56 C55 1_555 1_555
H42 C56 1_555 1_555
C57 C56 1_555 1_555
H43 C57 1_555 1_555
C58 C57 1_555 1_555
H44 C58 1_555 1_555
C59 C58 1_555 1_555
H45 C59 1_555 1_555
C60 C55 1_555 1_555
C61 C60 1_555 1_555
H46 C61 1_555 1_555
C62 C61 1_555 1_555
C63 C62 1_555 1_555
C64 C62 1_555 1_555
C65 H47 1_555 1_555
C66 C65 1_555 1_555
H48 C66 1_555 1_555
C67 C66 1_555 1_555
H49 C67 1_555 1_555
C68 C67 1_555 1_555
H50 C68 1_555 1_555
C69 C68 1_555 1_555
H51 C69 1_555 1_555
C70 C65 1_555 1_555
C71 C70 1_555 1_555
H52 C71 1_555 1_555
C72 C71 1_555 1_555
C73 C72 1_555 1_555
C74 C72 1_555 1_555
C75 C76 1_555 1_555
C76 H53 1_555 1_555
H54 C76 1_555 1_555
C77 C76 1_555 1_555
C78 C79 1_555 1_555
C79 H55 1_555 1_555
H56 C79 1_555 1_555
C80 C79 1_555 1_555
C81 C82 1_555 1_555
C82 H57 1_555 1_555
H58 C82 1_555 1_555
C83 C82 1_555 1_555
Gd1C O4 1_555 1_555
Gd1A O15 1_555 1_555
Gd2C O3 1_555 1_555
Gd2A O27 1_555 1_555
O3C Gd2 1_555 1_555
O4C Gd1 1_555 1_555
O15A Gd1 1_555 1_555
O16A Gd1 1_555 1_555
O27A Gd2 1_555 1_555
O28A Gd2 1_555 1_555
Gd2 O4C 1_555 1_555
O4 Gd2C 1_555 1_555
O14 C15 1_555 1_555
O16 Gd1A 1_555 1_555
O26 C29 1_555 1_555
O28 Gd2A 1_555 1_555
C6 C7 1_555 1_555
C12 C13 1_555 1_555
C20 C21 1_555 1_555
C26 C27 1_555 1_555
C34 C35 1_555 1_555
C40 C41 1_555 1_555
C59 C60 1_555 1_555
C69 C70 1_555 1_555

#END
