
#######################################################################
#
#                 Cambridge Crystallographic Data Centre
#                                CCDC 
#
#######################################################################
#
# If this CIF has been generated from an entry in the Cambridge 
# Structural Database, then it will include bibliographic, chemical, 
# crystal, experimental, refinement or atomic coordinate data resulting 
# from the CCDC's data processing and validation procedures.
#
#######################################################################

data_XEGKEB
_chemical_formula_moiety         '(C60 H51 Gd2 N17 O44)n'
_symmetry_cell_setting           monoclinic
_symmetry_space_group_name_H-M   'C 2/c'
_symmetry_Int_Tables_number      15
_space_group_name_Hall           '-C 2yc'
loop_
_symmetry_equiv_pos_site_id
_symmetry_equiv_pos_as_xyz
1 x,y,z
2 -x,y,1/2-z
3 1/2+x,1/2+y,z
4 1/2-x,1/2+y,1/2-z
5 -x,-y,-z
6 x,-y,1/2+z
7 1/2-x,1/2-y,-z
8 1/2+x,1/2-y,1/2+z
_cell_length_a                   24.553(4)
_cell_length_b                   30.267(7)
_cell_length_c                   13.362(5)
_cell_angle_alpha                90
_cell_angle_beta                 94.828(5)
_cell_angle_gamma                90
_cell_volume                     9894.68
loop_
_atom_site_label
_atom_site_type_symbol
_atom_site_fract_x
_atom_site_fract_y
_atom_site_fract_z
_atom_site_U_iso_or_equiv
_atom_site_thermal_displace_type
Gd1 Gd 0.77464(5) 0.26210(3) 0.64748(7) 0.0535 Uani
O1 O 0.7690(8) 0.1859(4) 0.6102(12) 0.0740 Uani
O2 O 0.7289(8) 0.1729(4) 0.4546(11) 0.0651 Uani
O3 O 0.6833(9) -0.1775(6) 0.7492(14) 0.0783 Uani
O4 O 0.7725(8) -0.1796(5) 0.7639(13) 0.0746 Uani
O5 O 0.662(2) 0.0277(10) 0.381(2) 0.2477 Uani
O6 O 0.6891(13) -0.0257(6) 0.4478(15) 0.1326 Uani
O7 O 0.7929(12) 0.0666(8) 0.8413(16) 0.1207 Uani
O8 O 0.792(2) 0.0009(8) 0.797(2) 0.3074 Uani
O9 O 0.6472(11) 0.0229(7) 0.682(2) 0.1328 Uani
O10 O 0.5970(12) -0.0361(9) 0.665(2) 0.1326 Uani
O11 O 0.8356(13) -0.0070(7) 0.548(2) 0.1423 Uani
O12 O 0.8655(12) -0.0702(9) 0.575(2) 0.1489 Uani
O13 O 0.8654(7) 0.2645(5) 0.5841(13) 0.0674 Uani
O14 O 0.8043(8) 0.2436(5) 0.4612(13) 0.0624 Uani
O15 O 0.8942(19) 0.1688(14) 0.182(3) 0.2690 Uani
O16 O 0.9380(19) 0.2098(17) 0.108(3) 0.3561 Uani
O17 O 1.0574(12) 0.3190(8) 0.330(2) 0.1284 Uani
O18 O 1.0452(13) 0.3135(16) 0.483(3) 0.2135 Uani
O19 O 0.7174(9) 0.2304(6) 0.7671(15) 0.0867 Uani
O20 O 0.8329(8) 0.2267(6) 0.7728(13) 0.0889 Uani
N1 N 0.6939(14) 0.0102(7) 0.4406(16) 0.1012 Uani
N2 N 0.7869(14) 0.0397(8) 0.777(2) 0.1108 Uani
N3 N 0.6408(13) -0.0163(9) 0.6707(18) 0.0882 Uani
N4 N 0.8305(12) -0.0423(8) 0.5853(19) 0.0916 Uani
N5 N 0.9237(11) 0.1979(10) 0.1831(19) 0.0919 Uani
N6 N 1.0325(12) 0.3047(11) 0.398(2) 0.1061 Uani
N7 N 0.6956(13) 0.1804(11) 0.886(2) 0.1217 Uani
N8 N 0.8963(6) 0.1859(5) 0.8201(10) 0.4133 Uani
C1 C 0.7499(13) 0.1624(8) 0.540(2) 0.0784 Uani
C2 C 0.7481(13) 0.1127(7) 0.5619(17) 0.0698 Uani
C3 C 0.7238(13) 0.0842(7) 0.4926(17) 0.0692 Uani
H1 H 0.7085 0.0945 0.4310 0.0840 Uiso
C4 C 0.7226(13) 0.0397(7) 0.5163(18) 0.0702 Uani
C5 C 0.7445(12) 0.0212(7) 0.6067(17) 0.0682 Uani
C6 C 0.7653(13) 0.0533(7) 0.6783(19) 0.0757 Uani
C7 C 0.7684(11) 0.0971(7) 0.6536(17) 0.0701 Uani
H2 H 0.7847 0.1167 0.7005 0.0850 Uiso
C8 C 0.7390(12) -0.0267(7) 0.6325(17) 0.0633 Uani
C9 C 0.6923(13) -0.0439(8) 0.6668(18) 0.0705 Uani
C10 C 0.6872(12) -0.0875(8) 0.6951(16) 0.0631 Uani
H3 H 0.6538 -0.0980 0.7135 0.0760 Uiso
C11 C 0.7316(12) -0.1153(7) 0.6960(17) 0.0631 Uani
C12 C 0.7786(13) -0.0997(8) 0.6604(18) 0.0785 Uani
H4 H 0.8091 -0.1179 0.6599 0.0940 Uiso
C13 C 0.7806(12) -0.0564(8) 0.6248(18) 0.0699 Uani
C14 C 0.7284(15) -0.1617(8) 0.7374(16) 0.0669 Uani
C15 C 0.8521(15) 0.2525(8) 0.494(2) 0.0700 Uani
C16 C 0.8964(10) 0.2518(8) 0.4235(18) 0.0575 Uani
C17 C 0.8904(11) 0.2259(8) 0.3394(19) 0.0668 Uani
H5 H 0.8592 0.2086 0.3267 0.0800 Uiso
C18 C 0.9312(12) 0.2254(9) 0.2724(19) 0.0705 Uani
C19 C 0.9773(12) 0.2521(10) 0.287(2) 0.0763 Uani
C20 C 0.9832(12) 0.2750(9) 0.377(2) 0.0722 Uani
C21 C 0.9450(11) 0.2744(9) 0.445(2) 0.0698 Uani
H6 H 0.9516 0.2890 0.5062 0.0840 Uiso
C22 C 0.7083(16) 0.1948(12) 0.797(3) 0.1139 Uani
H7 H 0.7106 0.1726 0.7500 0.1360 Uiso
C23 C 0.691(3) 0.210(2) 0.967(3) 0.1898 Uani
H8 H 0.7019 0.2394 0.9477 0.2850 Uiso
H9 H 0.7133 0.2007 1.0247 0.2850 Uiso
H10 H 0.6532 0.2115 0.9828 0.2850 Uiso
C24 C 0.6812(19) 0.1358(13) 0.904(3) 0.1480 Uani
H11 H 0.6586 0.1246 0.8480 0.2170 Uiso
H12 H 0.6616 0.1344 0.9635 0.2170 Uiso
H13 H 0.7138 0.1183 0.9142 0.2170 Uiso
C25 C 0.8816(10) 0.2298(5) 0.7762(11) 0.3999 Uani
H14 H 0.9036 0.2528 0.7572 0.4820 Uiso
C26 C 0.8726(12) 0.1620(6) 0.9070(13) 0.2740 Uani
H15 H 0.8826 0.1776 0.9684 0.4080 Uiso
H16 H 0.8868 0.1325 0.9119 0.4080 Uiso
H17 H 0.8335 0.1610 0.8954 0.4080 Uiso
C27 C 0.9512(11) 0.2059(8) 0.8524(10) 0.4101 Uani
H18 H 0.9705 0.2118 0.7943 0.6200 Uiso
H19 H 0.9720 0.1857 0.8958 0.6200 Uiso
H20 H 0.9461 0.2330 0.8877 0.6200 Uiso
Gd1F Gd 0.72536(5) 0.23790(3) 0.35252(7) 0.0535 Uani
Gd1C Gd 0.72536(5) -0.23790(3) 0.85252(7) 0.0535 Uani
Gd1A Gd 1.22536(5) 0.26210(3) -0.14748(7) 0.0535 Uani
Gd1G Gd 1.27464(5) 0.23790(3) 0.14748(7) 0.0535 Uani
Gd1E Gd 0.77464(5) 0.73790(3) 0.14748(7) 0.0535 Uani
O1F O 0.7310(8) 0.3141(4) 0.3898(12) 0.0740 Uani
O2F O 0.7711(8) 0.3271(4) 0.5454(11) 0.0651 Uani
O3F O 0.8167(9) 0.6775(6) 0.2508(14) 0.0783 Uani
O3C O 0.8167(9) 0.3225(6) 0.7508(14) 0.0783 Uani
O3E O 0.6833(9) 0.1775(6) 0.2492(14) 0.0783 Uani
O4F O 0.7275(8) 0.6796(5) 0.2361(13) 0.0746 Uani
O4C O 0.7275(8) 0.3204(5) 0.7361(13) 0.0746 Uani
O4E O 0.7725(8) 0.1796(5) 0.2639(13) 0.0746 Uani
O5F O 0.838(2) 0.4723(10) 0.619(2) 0.2477 Uani
O6F O 0.8109(13) 0.5257(6) 0.5522(15) 0.1326 Uani
O7F O 0.7071(12) 0.4334(8) 0.1587(16) 0.1207 Uani
O8F O 0.708(2) 0.4991(8) 0.203(2) 0.3074 Uani
O9F O 0.8528(11) 0.4771(7) 0.318(2) 0.1328 Uani
O10F O 0.9030(12) 0.5361(9) 0.335(2) 0.1326 Uani
O11F O 0.6644(13) 0.5070(7) 0.452(2) 0.1423 Uani
O12F O 0.6345(12) 0.5702(9) 0.425(2) 0.1489 Uani
O13A O 1.1346(7) 0.2645(5) -0.0841(13) 0.0674 Uani
O13F O 0.6346(7) 0.2355(5) 0.4159(13) 0.0674 Uani
O14A O 1.1957(8) 0.2436(5) 0.0388(13) 0.0624 Uani
O14F O 0.6957(8) 0.2564(5) 0.5388(13) 0.0624 Uani
O15A O 1.1058(19) 0.1688(14) 0.318(3) 0.2690 Uani
O16A O 1.0620(19) 0.2098(17) 0.392(3) 0.3561 Uani
O17A O 0.9426(12) 0.3190(8) 0.170(2) 0.1284 Uani
O18A O 0.9548(13) 0.3135(16) 0.017(3) 0.2135 Uani
O19F O 0.7826(9) 0.2696(6) 0.2329(15) 0.0867 Uani
O20F O 0.6671(8) 0.2733(6) 0.2272(13) 0.0889 Uani
N1F N 0.8061(14) 0.4898(7) 0.5594(16) 0.1012 Uani
N2F N 0.7131(14) 0.4603(8) 0.223(2) 0.1108 Uani
N3F N 0.8592(13) 0.5163(9) 0.3293(18) 0.0882 Uani
N4F N 0.6695(12) 0.5423(8) 0.4147(19) 0.0916 Uani
N5A N 1.0763(11) 0.1979(10) 0.3169(19) 0.0919 Uani
N6A N 0.9675(12) 0.3047(11) 0.102(2) 0.1061 Uani
N7F N 0.8044(13) 0.3196(11) 0.114(2) 0.1217 Uani
N8F N 0.6037(6) 0.3141(5) 0.1799(10) 0.4133 Uani
C1F C 0.7501(13) 0.3376(8) 0.460(2) 0.0784 Uani
C2F C 0.7519(13) 0.3873(7) 0.4381(17) 0.0698 Uani
C3F C 0.7762(13) 0.4158(7) 0.5074(17) 0.0692 Uani
H1F H 0.7915 0.4055 0.5690 0.0840 Uiso
C4F C 0.7774(13) 0.4603(7) 0.4837(18) 0.0702 Uani
C5F C 0.7555(12) 0.4788(7) 0.3933(17) 0.0682 Uani
C6F C 0.7347(13) 0.4467(7) 0.3217(19) 0.0757 Uani
C7F C 0.7316(11) 0.4029(7) 0.3464(17) 0.0701 Uani
H2F H 0.7153 0.3833 0.2995 0.0850 Uiso
C8F C 0.7610(12) 0.5267(7) 0.3675(17) 0.0633 Uani
C9F C 0.8077(13) 0.5439(8) 0.3332(18) 0.0705 Uani
C10F C 0.8128(12) 0.5875(8) 0.3049(16) 0.0631 Uani
H3F H 0.8462 0.5980 0.2865 0.0760 Uiso
C11F C 0.7684(12) 0.6153(7) 0.3040(17) 0.0631 Uani
C12F C 0.7214(13) 0.5997(8) 0.3396(18) 0.0785 Uani
H4F H 0.6909 0.6179 0.3401 0.0940 Uiso
C13F C 0.7194(12) 0.5564(8) 0.3752(18) 0.0699 Uani
C14F C 0.7716(15) 0.6617(8) 0.2626(16) 0.0669 Uani
C15A C 1.1479(15) 0.2525(8) 0.006(2) 0.0700 Uani
C16A C 1.1036(10) 0.2518(8) 0.0765(18) 0.0575 Uani
C17A C 1.1096(11) 0.2259(8) 0.1606(19) 0.0668 Uani
H5A H 1.1408 0.2086 0.1733 0.0800 Uiso
C18A C 1.0688(12) 0.2254(9) 0.2276(19) 0.0705 Uani
C19A C 1.0227(12) 0.2521(10) 0.213(2) 0.0763 Uani
C20A C 1.0168(12) 0.2750(9) 0.123(2) 0.0722 Uani
C21A C 1.0550(11) 0.2744(9) 0.055(2) 0.0698 Uani
H6A H 1.0484 0.2890 -0.0062 0.0840 Uiso
C22F C 0.7917(16) 0.3052(12) 0.203(3) 0.1139 Uani
H7F H 0.7894 0.3274 0.2500 0.1360 Uiso
C23F C 0.809(3) 0.290(2) 0.033(3) 0.1898 Uani
H8F H 0.7981 0.2606 0.0523 0.2850 Uiso
H9F H 0.7867 0.2993 -0.0247 0.2850 Uiso
H10F H 0.8468 0.2885 0.0172 0.2850 Uiso
C24F C 0.8188(19) 0.3642(13) 0.096(3) 0.1480 Uani
H11F H 0.8414 0.3754 0.1520 0.2170 Uiso
H12F H 0.8384 0.3656 0.0365 0.2170 Uiso
H13F H 0.7862 0.3817 0.0858 0.2170 Uiso
C25F C 0.6184(10) 0.2702(5) 0.2238(11) 0.3999 Uani
H14F H 0.5964 0.2472 0.2428 0.4820 Uiso
C26F C 0.6274(12) 0.3380(6) 0.0930(13) 0.2740 Uani
H15F H 0.6174 0.3224 0.0316 0.4080 Uiso
H16F H 0.6132 0.3675 0.0881 0.4080 Uiso
H17F H 0.6665 0.3390 0.1046 0.4080 Uiso
C27F C 0.5488(11) 0.2941(8) 0.1476(10) 0.4101 Uani
H18F H 0.5295 0.2882 0.2057 0.6200 Uiso
H19F H 0.5280 0.3143 0.1042 0.6200 Uiso
H20F H 0.5539 0.2670 0.1123 0.6200 Uiso
O21 O 0.9720(7) 0.1724(5) 0.6584(6) 0.5930 Uani
N9 N 0.9711(5) 0.1297(6) 0.4628(13) 0.3400 Uani
C28 C 0.9303(10) 0.1543(7) 0.6178(15) 1.4845 Uani
H21 H 0.9005 0.1510 0.6558 1.7990 Uiso
C29 C 0.9250(9) 0.1378(8) 0.5156(13) 0.2903 Uani
C30 C 0.8732(8) 0.1238(5) 0.4758(10) 0.3302 Uani
H22 H 0.8420 0.1302 0.5080 0.3920 Uiso
C31 C 0.8703(9) 0.0996(4) 0.3850(11) 0.3399 Uani
H23 H 0.8364 0.0946 0.3508 0.4040 Uiso
C32 C 0.9166(10) 0.0832(7) 0.3458(16) 0.3499 Uani
H24 H 0.9138 0.0613 0.2969 0.4170 Uiso
C33 C 0.9686(12) 0.1004(9) 0.3813(18) 0.3501 Uani
H25 H 1.0000 0.0924 0.3513 0.4160 Uiso
O22 O 0.630(3) 0.1344(18) 0.643(5) 0.3418 Uani
O23 O 0.935(7) -0.054(7) 0.239(12) 0.6800 Uani
O24 O 0.954(5) 0.320(7) 0.739(9) 1.0351 Uani
loop_
_atom_site_aniso_label
_atom_site_aniso_U_11
_atom_site_aniso_U_22
_atom_site_aniso_U_33
_atom_site_aniso_U_23
_atom_site_aniso_U_13
_atom_site_aniso_U_12
Gd1 0.0987(11) 0.0203(7) 0.0440(7) -0.0021(4) 0.0200(6) 0.0010(5)
O1 0.150(17) 0.019(7) 0.055(9) -0.016(7) 0.020(9) -0.003(8)
O2 0.138(16) 0.016(7) 0.044(8) 0.002(6) 0.023(9) -0.008(8)
O3 0.096(15) 0.046(10) 0.091(13) 0.025(9) -0.004(11) -0.012(10)
O4 0.117(16) 0.036(9) 0.076(11) 0.016(8) 0.039(10) 0.011(9)
O5 0.52(8) 0.09(2) 0.11(2) 0.024(18) -0.11(3) -0.10(3)
O6 0.29(3) 0.024(10) 0.075(13) 0.011(9) -0.037(16) -0.028(14)
O7 0.21(3) 0.067(14) 0.077(14) 0.012(12) -0.036(15) -0.008(15)
O8 0.63(9) 0.064(13) 0.18(3) -0.027(16) -0.25(5) 0.08(3)
O9 0.15(2) 0.047(13) 0.21(3) 0.044(15) 0.066(19) 0.027(13)
O10 0.11(2) 0.096(19) 0.19(3) 0.021(18) 0.002(19) 0.019(16)
O11 0.18(3) 0.046(13) 0.21(3) 0.040(16) 0.07(2) 0.006(14)
O12 0.17(3) 0.091(18) 0.20(3) 0.060(18) 0.10(2) 0.043(17)
O13 0.086(13) 0.060(11) 0.057(10) -0.005(8) 0.010(9) 0.012(8)
O14 0.067(12) 0.044(9) 0.079(12) -0.003(8) 0.022(9) -0.010(8)
O15 0.30(5) 0.25(4) 0.29(5) -0.21(4) 0.22(4) -0.17(4)
O16 0.27(5) 0.55(9) 0.28(5) -0.33(6) 0.21(4) -0.30(6)
O17 0.16(3) 0.085(17) 0.15(2) -0.036(16) 0.07(2) -0.039(16)
O18 0.12(2) 0.34(6) 0.18(3) -0.10(4) 0.01(2) -0.10(3)
O19 0.122(17) 0.054(11) 0.093(14) 0.019(10) 0.061(12) -0.005(10)
O20 0.138(19) 0.066(12) 0.060(11) 0.002(9) -0.008(11) 0.009(11)
N1 0.23(3) 0.026(12) 0.043(12) 0.013(9) -0.016(15) -0.013(14)
N2 0.20(3) 0.037(13) 0.085(18) 0.008(13) -0.050(19) -0.010(15)
N3 0.12(2) 0.063(17) 0.084(16) 0.031(13) 0.022(15) 0.014(15)
N4 0.13(2) 0.055(15) 0.095(18) 0.012(13) 0.041(16) 0.010(15)
N5 0.084(19) 0.11(2) 0.088(17) -0.040(16) 0.044(14) -0.031(15)
N6 0.09(2) 0.14(3) 0.09(2) -0.05(2) 0.017(17) -0.023(19)
N7 0.15(3) 0.11(2) 0.11(2) 0.07(2) 0.039(19) -0.001(19)
N8 0.41(4) 0.41(4) 0.42(4) 0.001(10) 0.036(10) 0.002(10)
C1 0.15(3) 0.029(12) 0.062(16) 0.011(12) 0.043(16) 0.011(14)
C2 0.14(2) 0.018(10) 0.053(14) 0.003(10) 0.018(14) 0.010(12)
C3 0.14(2) 0.022(10) 0.046(13) 0.003(10) 0.010(13) -0.001(12)
C4 0.13(2) 0.030(12) 0.052(14) 0.002(10) 0.016(14) 0.005(12)
C5 0.14(2) 0.017(10) 0.049(13) 0.001(9) 0.016(14) -0.009(12)
C6 0.14(3) 0.027(12) 0.058(14) 0.006(11) -0.004(15) 0.006(13)
C7 0.13(2) 0.023(11) 0.055(15) -0.001(10) -0.005(14) 0.006(12)
C8 0.11(2) 0.025(11) 0.056(14) 0.009(10) 0.014(13) 0.000(12)
C9 0.12(2) 0.035(13) 0.056(15) 0.001(11) 0.004(15) 0.006(14)
C10 0.10(2) 0.041(13) 0.048(13) 0.003(10) 0.004(12) 0.003(13)
C11 0.11(2) 0.028(11) 0.055(13) 0.012(10) 0.028(14) 0.002(13)
C12 0.14(3) 0.032(13) 0.065(16) 0.004(11) 0.017(17) 0.010(14)
C13 0.11(2) 0.040(13) 0.063(15) 0.007(11) 0.026(14) -0.003(13)
C14 0.13(3) 0.036(13) 0.035(12) -0.002(10) 0.009(14) 0.021(16)
C15 0.10(3) 0.039(13) 0.074(19) 0.004(12) 0.025(17) 0.026(14)
C16 0.071(18) 0.043(12) 0.060(14) 0.001(11) 0.014(12) 0.008(11)
C17 0.077(18) 0.052(14) 0.074(16) -0.004(12) 0.022(13) -0.007(12)
C18 0.078(19) 0.072(17) 0.063(15) -0.007(13) 0.015(13) -0.012(14)
C19 0.066(19) 0.085(18) 0.08(2) -0.007(16) 0.019(14) 0.008(14)
C20 0.072(19) 0.068(16) 0.076(18) -0.005(14) 0.002(14) -0.005(13)
C21 0.076(19) 0.068(16) 0.069(16) -0.003(13) 0.027(14) 0.001(13)
C22 0.16(4) 0.08(2) 0.11(3) 0.02(2) 0.06(2) 0.03(2)
C23 0.28(7) 0.18(5) 0.11(3) -0.01(4) 0.02(4) -0.08(5)
C24 0.19(4) 0.10(3) 0.16(4) 0.07(3) 0.05(3) 0.04(3)
C25 0.40(4) 0.40(4) 0.40(4) 0.001(10) 0.036(11) -0.002(10)
C26 0.23(4) 0.30(6) 0.28(5) -0.06(4) -0.05(4) 0.12(4)
C27 0.41(4) 0.41(4) 0.41(4) 0.000(10) 0.033(11) 0.002(10)
Gd1F 0.0987 0.0203 0.044 -0.0021 0.02 0.001
Gd1C 0.0987 0.0203 0.044 0.0021 0.02 -0.001
Gd1A 0.0987 0.0203 0.044 0.0021 0.02 -0.001
Gd1G 0.0987 0.0203 0.044 0.0021 0.02 -0.001
Gd1E 0.0987 0.0203 0.044 0.0021 0.02 -0.001
O1F 0.15 0.019 0.055 -0.016 0.02 -0.003
O2F 0.138 0.016 0.044 0.002 0.023 -0.008
O3F 0.096 0.046 0.091 0.025 -0.004 -0.012
O3C 0.096 0.046 0.091 -0.025 -0.004 0.012
O3E 0.096 0.046 0.091 -0.025 -0.004 0.012
O4F 0.117 0.036 0.076 0.016 0.039 0.011
O4C 0.117 0.036 0.076 -0.016 0.039 -0.011
O4E 0.117 0.036 0.076 -0.016 0.039 -0.011
O5F 0.52 0.09 0.11 0.024 -0.11 -0.1
O6F 0.29 0.024 0.075 0.011 -0.037 -0.028
O7F 0.21 0.067 0.077 0.012 -0.036 -0.008
O8F 0.63 0.064 0.18 -0.027 -0.25 0.08
O9F 0.15 0.047 0.21 0.044 0.066 0.027
O10F 0.11 0.096 0.19 0.021 0.002 0.019
O11F 0.18 0.046 0.21 0.04 0.07 0.006
O12F 0.17 0.091 0.2 0.06 0.1 0.043
O13A 0.086 0.06 0.057 0.005 0.01 -0.012
O13F 0.086 0.06 0.057 -0.005 0.01 0.012
O14A 0.067 0.044 0.079 0.003 0.022 0.01
O14F 0.067 0.044 0.079 -0.003 0.022 -0.01
O15A 0.3 0.25 0.29 0.21 0.22 0.17
O16A 0.27 0.55 0.28 0.33 0.21 0.3
O17A 0.16 0.085 0.15 0.036 0.07 0.039
O18A 0.12 0.34 0.18 0.1 0.01 0.1
O19F 0.122 0.054 0.093 0.019 0.061 -0.005
O20F 0.138 0.066 0.06 0.002 -0.008 0.009
N1F 0.23 0.026 0.043 0.013 -0.016 -0.013
N2F 0.2 0.037 0.085 0.008 -0.05 -0.01
N3F 0.12 0.063 0.084 0.031 0.022 0.014
N4F 0.13 0.055 0.095 0.012 0.041 0.01
N5A 0.084 0.11 0.088 0.04 0.044 0.031
N6A 0.09 0.14 0.09 0.05 0.017 0.023
N7F 0.15 0.11 0.11 0.07 0.039 -0.001
N8F 0.41 0.41 0.42 0.001 0.036 0.002
C1F 0.15 0.029 0.062 0.011 0.043 0.011
C2F 0.14 0.018 0.053 0.003 0.018 0.01
C3F 0.14 0.022 0.046 0.003 0.01 -0.001
C4F 0.13 0.03 0.052 0.002 0.016 0.005
C5F 0.14 0.017 0.049 0.001 0.016 -0.009
C6F 0.14 0.027 0.058 0.006 -0.004 0.006
C7F 0.13 0.023 0.055 -0.001 -0.005 0.006
C8F 0.11 0.025 0.056 0.009 0.014 0
C9F 0.12 0.035 0.056 0.001 0.004 0.006
C10F 0.1 0.041 0.048 0.003 0.004 0.003
C11F 0.11 0.028 0.055 0.012 0.028 0.002
C12F 0.14 0.032 0.065 0.004 0.017 0.01
C13F 0.11 0.04 0.063 0.007 0.026 -0.003
C14F 0.13 0.036 0.035 -0.002 0.009 0.021
C15A 0.1 0.039 0.074 -0.004 0.025 -0.026
C16A 0.071 0.043 0.06 -0.001 0.014 -0.008
C17A 0.077 0.052 0.074 0.004 0.022 0.007
C18A 0.078 0.072 0.063 0.007 0.015 0.012
C19A 0.066 0.085 0.08 0.007 0.019 -0.008
C20A 0.072 0.068 0.076 0.005 0.002 0.005
C21A 0.076 0.068 0.069 0.003 0.027 -0.001
C22F 0.16 0.08 0.11 0.02 0.06 0.03
C23F 0.28 0.18 0.11 -0.01 0.02 -0.08
C24F 0.19 0.1 0.16 0.07 0.05 0.04
C25F 0.4 0.4 0.4 0.001 0.036 -0.002
C26F 0.23 0.3 0.28 -0.06 -0.05 0.12
C27F 0.41 0.41 0.41 0 0.033 0.002
O21 0.7(2) 0.7(2) 0.41(8) -0.19(12) 0.23(10) -0.44(18)
N9 0.33(4) 0.32(9) 0.37(9) 0.00(6) 0.03(5) 0.02(7)
C28 1.0(4) 1.5(13) 2.0(8) -1.0(12) 0.4(3) -0.3(5)
C29 0.32(5) 0.25(9) 0.30(7) 0.07(5) 0.02(4) 0.00(6)
C30 0.33(3) 0.33(3) 0.33(3) 0.004(10) 0.024(10) -0.004(10)
C31 0.34(3) 0.34(3) 0.34(3) 0.001(10) 0.030(10) -0.001(10)
C32 0.35(3) 0.35(3) 0.35(3) -0.001(10) 0.032(10) 0.002(10)
C33 0.35(3) 0.35(3) 0.35(3) 0.001(10) 0.027(10) -0.001(10)
O22 0.34(7) 0.23(5) 0.46(9) -0.09(6) 0.06(6) 0.17(5)
O23 0.68(10) 0.68(10) 0.68(10) 0.000(10) 0.058(13) 0.001(10)
O24 0.74(19) 1.8(5) 0.63(16) -0.8(3) 0.44(16) -1.0(3)
loop_
_geom_bond_atom_site_label_1
_geom_bond_atom_site_label_2
_geom_bond_site_symmetry_1
_geom_bond_site_symmetry_2
Gd1 O1 1_555 1_555
O1 C1 1_555 1_555
O2 C1 1_555 1_555
O3 C14 1_555 1_555
O4 C14 1_555 1_555
O5 N1 1_555 1_555
O6 N1 1_555 1_555
O7 N2 1_555 1_555
O8 N2 1_555 1_555
O9 N3 1_555 1_555
O10 N3 1_555 1_555
O11 N4 1_555 1_555
O12 N4 1_555 1_555
O13 Gd1 1_555 1_555
O14 Gd1 1_555 1_555
O15 N5 1_555 1_555
O16 N5 1_555 1_555
O17 N6 1_555 1_555
O18 N6 1_555 1_555
O19 Gd1 1_555 1_555
O20 Gd1 1_555 1_555
O21 C28 1_555 1_555
N1 C4 1_555 1_555
N2 C6 1_555 1_555
N3 C9 1_555 1_555
N4 C13 1_555 1_555
N5 C18 1_555 1_555
N6 C20 1_555 1_555
N7 C22 1_555 1_555
N8 C25 1_555 1_555
N9 C29 1_555 1_555
C1 C2 1_555 1_555
C2 C3 1_555 1_555
C3 H1 1_555 1_555
C4 C3 1_555 1_555
C5 C4 1_555 1_555
C6 C5 1_555 1_555
C7 C2 1_555 1_555
H2 C7 1_555 1_555
C8 C5 1_555 1_555
C9 C8 1_555 1_555
C10 C9 1_555 1_555
H3 C10 1_555 1_555
C11 C10 1_555 1_555
C12 C11 1_555 1_555
H4 C12 1_555 1_555
C13 C8 1_555 1_555
C14 C11 1_555 1_555
C15 O13 1_555 1_555
C16 C15 1_555 1_555
C17 C16 1_555 1_555
H5 C17 1_555 1_555
C18 C17 1_555 1_555
C19 C18 1_555 1_555
C20 C19 1_555 1_555
C21 C16 1_555 1_555
H6 C21 1_555 1_555
C22 O19 1_555 1_555
H7 C22 1_555 1_555
C23 N7 1_555 1_555
H8 C23 1_555 1_555
H9 C23 1_555 1_555
H10 C23 1_555 1_555
C24 N7 1_555 1_555
H11 C24 1_555 1_555
H12 C24 1_555 1_555
H13 C24 1_555 1_555
C25 O20 1_555 1_555
H14 C25 1_555 1_555
C26 N8 1_555 1_555
H15 C26 1_555 1_555
H16 C26 1_555 1_555
H17 C26 1_555 1_555
C27 N8 1_555 1_555
H18 C27 1_555 1_555
H19 C27 1_555 1_555
H20 C27 1_555 1_555
C28 H21 1_555 1_555
C29 C28 1_555 1_555
C30 C29 1_555 1_555
H22 C30 1_555 1_555
C31 C30 1_555 1_555
H23 C31 1_555 1_555
C32 C31 1_555 1_555
H24 C32 1_555 1_555
C33 N9 1_555 1_555
H25 C33 1_555 1_555
Gd1F O2 1_555 1_555
Gd1C O3 1_555 1_555
Gd1A O13A 1_555 1_555
Gd1G O14A 1_555 1_555
Gd1E O3F 1_555 1_555
O1F Gd1F 1_555 1_555
O2F Gd1 1_555 1_555
O3F C14F 1_555 1_555
O3C Gd1 1_555 1_555
O3E Gd1F 1_555 1_555
O4F Gd1E 1_555 1_555
O4C Gd1 1_555 1_555
O4E Gd1F 1_555 1_555
O5F N1F 1_555 1_555
O6F N1F 1_555 1_555
O7F N2F 1_555 1_555
O8F N2F 1_555 1_555
O9F N3F 1_555 1_555
O10F N3F 1_555 1_555
O11F N4F 1_555 1_555
O12F N4F 1_555 1_555
O13A C15A 1_555 1_555
O13F Gd1F 1_555 1_555
O14A Gd1A 1_555 1_555
O14F Gd1 1_555 1_555
O15A N5A 1_555 1_555
O16A N5A 1_555 1_555
O17A N6A 1_555 1_555
O18A N6A 1_555 1_555
O19F Gd1F 1_555 1_555
O20F Gd1F 1_555 1_555
N1F C4F 1_555 1_555
N2F C6F 1_555 1_555
N3F C9F 1_555 1_555
N4F C13F 1_555 1_555
N5A C18A 1_555 1_555
N6A C20A 1_555 1_555
N7F C22F 1_555 1_555
N8F C25F 1_555 1_555
C1F O1F 1_555 1_555
C2F C1F 1_555 1_555
C3F C2F 1_555 1_555
H1F C3F 1_555 1_555
C4F C3F 1_555 1_555
C5F C4F 1_555 1_555
C6F C5F 1_555 1_555
C7F C2F 1_555 1_555
H2F C7F 1_555 1_555
C8F C5F 1_555 1_555
C9F C8F 1_555 1_555
C10F C9F 1_555 1_555
H3F C10F 1_555 1_555
C11F C10F 1_555 1_555
C12F C11F 1_555 1_555
H4F C12F 1_555 1_555
C13F C8F 1_555 1_555
C14F O4F 1_555 1_555
C15A O14A 1_555 1_555
C16A C15A 1_555 1_555
C17A C16A 1_555 1_555
H5A C17A 1_555 1_555
C18A C17A 1_555 1_555
C19A C19 1_555 1_555
C20A C19A 1_555 1_555
C21A C16A 1_555 1_555
H6A C21A 1_555 1_555
C22F O19F 1_555 1_555
H7F C22F 1_555 1_555
C23F N7F 1_555 1_555
H8F C23F 1_555 1_555
H9F C23F 1_555 1_555
H10F C23F 1_555 1_555
C24F N7F 1_555 1_555
H11F C24F 1_555 1_555
H12F C24F 1_555 1_555
H13F C24F 1_555 1_555
C25F O20F 1_555 1_555
H14F C25F 1_555 1_555
C26F N8F 1_555 1_555
H15F C26F 1_555 1_555
H16F C26F 1_555 1_555
H17F C26F 1_555 1_555
C27F N8F 1_555 1_555
H18F C27F 1_555 1_555
H19F C27F 1_555 1_555
H20F C27F 1_555 1_555
O4 Gd1C 1_555 1_555
O14 C15 1_555 1_555
O14 Gd1F 1_555 1_555
C6 C7 1_555 1_555
C12 C13 1_555 1_555
C20 C21 1_555 1_555
C32 C33 1_555 1_555
Gd1F O14F 1_555 1_555
O2F C1F 1_555 1_555
C6F C7F 1_555 1_555
C11F C14F 1_555 1_555
C12F C13F 1_555 1_555
C18A C19A 1_555 1_555
C20A C21A 1_555 1_555

#END
