
#######################################################################
#
#                 Cambridge Crystallographic Data Centre
#                                CCDC 
#
#######################################################################
#
# If this CIF has been generated from an entry in the Cambridge 
# Structural Database, then it will include bibliographic, chemical, 
# crystal, experimental, refinement or atomic coordinate data resulting 
# from the CCDC's data processing and validation procedures.
#
#######################################################################

data_FAFQEJ01
_chemical_formula_moiety         '(C15 H54 Cl6 Er4 N3 O53 1-)n'
_symmetry_cell_setting           orthorhombic
_symmetry_space_group_name_H-M   'P 21 21 21'
_symmetry_Int_Tables_number      19
_space_group_name_Hall           'P 2ac 2ab'
loop_
_symmetry_equiv_pos_site_id
_symmetry_equiv_pos_as_xyz
1 x,y,z
2 1/2-x,-y,1/2+z
3 1/2+x,1/2-y,-z
4 -x,1/2+y,1/2-z
_cell_length_a                   14.619(4)
_cell_length_b                   17.211(4)
_cell_length_c                   21.215(5)
_cell_angle_alpha                90
_cell_angle_beta                 90
_cell_angle_gamma                90
_cell_volume                     5337.86
loop_
_atom_site_label
_atom_site_type_symbol
_atom_site_fract_x
_atom_site_fract_y
_atom_site_fract_z
O1 O -0.4331(3) 1.5835(3) -0.0526(3)
O2 O -0.3546(3) 1.4713(3) -0.1231(2)
O3 O -0.5061(3) 1.4408(2) -0.0523(2)
O4 O -0.3413(3) 1.4676(3) 0.0054(2)
O5 O -0.1716(4) 1.5422(4) 0.0305(3)
O6 O -0.1444(4) 1.6439(3) -0.0715(3)
O7 O -0.3479(4) 1.2242(3) -0.0683(3)
O8 O -0.2760(4) 1.3218(3) 0.0328(3)
O9 O -0.4267(8) 1.5029(8) -0.2514(5)
O10 O -0.6062(5) 1.5579(4) -0.2195(3)
O11 O -0.3890(5) 1.4809(4) 0.1296(3)
O12 O -0.5740(5) 1.5363(4) 0.1299(3)
N1 N -0.5447(6) 1.7331(5) -0.2448(5)
O13 O -0.4661(5) 1.9075(4) -0.3118(3)
O14 O -0.5561(4) 1.8152(3) -0.3529(3)
O15 O -0.2913(4) 1.6353(3) -0.1460(3)
O16 O -0.4302(4) 1.6278(4) -0.1885(3)
C1 C -0.5012(6) 1.8426(5) -0.3123(4)
C2 C -0.4725(8) 1.7899(7) -0.2597(5)
C3 C -0.3811(9) 1.7524(11) -0.2770(7)
C4 C -0.3205(10) 1.7246(13) -0.2242(9)
C5 C -0.3504(6) 1.6539(8) -0.1838(5)
N2 N -0.0231(5) 1.4342(4) -0.1645(4)
O17 O -0.1633(4) 1.4729(3) -0.0928(2)
O18 O -0.2263(4) 1.3552(3) -0.0955(3)
O19 O 0.0366(5) 1.1960(4) -0.0195(4)
O20 O -0.0338(5) 1.1041(3) -0.0729(3)
C6 C -0.1646(5) 1.4019(4) -0.1061(3)
C7 C -0.0831(5) 1.3680(4) -0.1434(3)
C8 C -0.0256(5) 1.3119(4) -0.1034(4)
C9 C -0.0759(5) 1.2337(4) -0.0926(4)
C10 C -0.0204(5) 1.1741(4) -0.0591(4)
N3 N -0.2309(6) 1.8031(5) -0.0260(4)
O21 O -0.1228(4) 1.9128(3) 0.0967(3)
O22 O -0.1139(4) 1.9215(3) -0.0084(3)
O23 O -0.4214(4) 1.6326(3) 0.0735(3)
O24 O -0.2972(3) 1.6594(3) 0.0165(2)
C11 C -0.1488(5) 1.8969(4) 0.0419(5)
C12 C -0.2340(6) 1.8470(5) 0.0356(5)
C13 C -0.2530(6) 1.7923(5) 0.0910(4)
C14 C -0.3471(6) 1.7528(5) 0.0928(5)
C15 C -0.3554(5) 1.6756(4) 0.0595(4)
H1 H -0.4481 1.6401 -0.0507
H2 H -0.3216 1.4593 -0.1632
H3 H -0.5642 1.4103 -0.0507
H4 H -0.3014 1.4539 0.0421
H5 H -0.1391 1.4928 0.0255
H6 H -0.2065 1.5414 0.0699
H7 H -0.1303 1.6481 -0.1166
H8 H -0.0918 1.6219 -0.0492
H9 H -0.3463 1.1995 -0.0267
H10 H -0.2894 1.2156 -0.0898
H11 H -0.3097 1.3289 0.0723
H12 H -0.2207 1.3540 0.0334
H13 H -0.3815 1.5437 -0.2594
H14 H -0.4750 1.5055 -0.2833
H15 H -0.5834 1.5405 -0.2605
H16 H -0.6141 1.6144 -0.2199
H17 H -0.3361 1.5159 0.1321
H18 H -0.3676 1.4272 0.1253
H19 H -0.5664 1.5900 0.1444
H20 H -0.5546 1.5005 0.1632
H21 H -0.5219 1.6962 -0.2183
H22 H -0.5644 1.7101 -0.2809
H23 H -0.5923 1.7578 -0.2258
H24 H -0.4624 1.8227 -0.2214
H25 H -0.3940 1.7075 -0.3048
H26 H -0.3459 1.7905 -0.3022
H27 H -0.3112 1.7689 -0.1951
H28 H -0.2601 1.7121 -0.2426
H29 H 0.0275 1.4150 -0.1840
H30 H -0.0058 1.4628 -0.1305
H31 H -0.0546 1.4649 -0.1919
H32 H -0.1067 1.3398 -0.1812
H33 H -0.0123 1.3363 -0.0621
H34 H 0.0334 1.3020 -0.1248
H35 H -0.1322 1.2437 -0.0680
H36 H -0.0946 1.2125 -0.1341
H37 H -0.2785 1.7691 -0.0278
H38 H -0.1773 1.7766 -0.0288
H39 H -0.2351 1.8373 -0.0586
H40 H -0.2872 1.8834 0.0330
H41 H -0.2454 1.8222 0.1305
H42 H -0.2056 1.7512 0.0908
H43 H -0.3643 1.7452 0.1375
H44 H -0.3922 1.7889 0.0740
Er1 Er -0.2751(1) 1.5607(1) -0.0574(1)
Er2 Er -0.3733(1) 1.3607(1) -0.0563(1)
Er3 Er -0.4986(1) 1.5229(1) -0.1389(1)
Er4 Er -0.4825(1) 1.5156(1) 0.0379(1)
Er3C Er -0.5014(1) 2.0229(1) -0.3611(1)
Er2C Er -0.6267(1) 1.8607(1) -0.4437(1)
Er2B Er 0.1267(1) 1.1393(1) 0.0563(1)
Er4B Er 0.0175(1) 0.9844(1) -0.0379(1)
Er3B Er 0.0014(1) 1.9771(1) 0.1389(1)
Er4B_2 Er 0.0175(1) 1.9844(1) -0.0379(1)
O14C O -0.4439(4) 1.3152(3) -0.1471(3)
O19B O -0.4634(5) 1.3040(4) 0.0195(4)
O13C O -0.5339(5) 1.4075(4) -0.1882(3)
O21B O -0.6228(4) 1.5872(3) -0.0967(3)
O20B O -0.5338(5) 1.3959(3) 0.0729(3)
O22B O -0.6139(4) 1.5785(3) 0.0084(3)
O25 O -0.2915(8) 1.1868(7) -0.1925(5)
O26 O -0.4221(10) 0.9914(9) 0.0668(8)
O27 O -0.3023(9) 0.9484(8) 0.2009(9)
O28 O -0.5847(12) 1.7007(9) 0.1334(9)
O29 O 0.1314(9) 1.3842(7) -0.2328(4)
Cl1 Cl 0.0045(1) 1.6965(1) 0.0591(1)
O30 O 0.0189(6) 1.6373(4) 0.0126(5)
O31 O -0.0497(5) 1.6689(5) 0.1100(4)
O32 O -0.0408(6) 1.7600(4) 0.0281(4)
O33 O 0.0912(5) 1.7263(6) 0.0798(5)
Cl2 Cl -0.2452(2) 1.1313(2) 0.0782(1)
O34 O -0.2868(5) 1.1892(4) 0.1180(3)
O35 O -0.3074(7) 1.1176(5) 0.0281(4)
O36 O -0.2220(7) 1.0652(5) 0.1128(5)
O37 O -0.1612(5) 1.1638(5) 0.0522(5)
Cl3 Cl -0.4833(3) 1.3574(3) 0.2590(2)
O38 O -0.5748(8) 1.3358(16) 0.2475(8)
O39 O -0.4292(9) 1.3221(11) 0.2118(7)
O40 O -0.4717(18) 1.3418(18) 0.3225(6)
O41 O -0.4610(20) 1.4350(7) 0.2489(8)
Cl4 Cl -0.2519(3) 1.3743(3) -0.2799(2)
O42 O -0.2196(7) 1.4393(5) -0.2394(4)
O43 O -0.3404(7) 1.3531(7) -0.2633(5)
O44 O -0.2510(7) 1.4043(7) -0.3440(3)
O45 O -0.2013(13) 1.3037(6) -0.2687(7)
Cl5 Cl -0.8123(3) 1.5234(2) 0.1361(2)
O46 O -0.8796(10) 1.5434(10) 0.1792(7)
O47 O -0.7577(11) 1.5943(8) 0.1279(10)
O48 O -0.7482(8) 1.4621(10) 0.1511(10)
O49 O -0.8490(20) 1.5137(19) 0.0747(9)
Cl6 Cl -0.0459(3) 1.3966(3) 0.0972(2)
O50 O -0.0783(7) 1.3360(6) 0.0536(5)
O51 O 0.0258(10) 1.3692(9) 0.1354(7)
O52 O -0.0165(12) 1.4620(8) 0.0607(8)
O53 O -0.1213(9) 1.4153(8) 0.1369(6)
loop_
_geom_bond_atom_site_label_1
_geom_bond_atom_site_label_2
_geom_bond_site_symmetry_1
_geom_bond_site_symmetry_2
O1 H1 1_555 1_555
O2 H2 1_555 1_555
O3 H3 1_555 1_555
O4 H4 1_555 1_555
O5 H5 1_555 1_555
O6 H7 1_555 1_555
O7 H9 1_555 1_555
O8 H11 1_555 1_555
O9 H13 1_555 1_555
O10 H15 1_555 1_555
O11 H17 1_555 1_555
O12 H19 1_555 1_555
N1 C2 1_555 1_555
O13 C1 1_555 1_555
O14 C1 1_555 1_555
O15 C5 1_555 1_555
O16 C5 1_555 1_555
C1 C2 1_555 1_555
C2 C3 1_555 1_555
C3 C4 1_555 1_555
C4 C5 1_555 1_555
N2 C7 1_555 1_555
O17 C6 1_555 1_555
O18 C6 1_555 1_555
O19 C10 1_555 1_555
O20 C10 1_555 1_555
C6 C7 1_555 1_555
C7 C8 1_555 1_555
C8 C9 1_555 1_555
C9 C10 1_555 1_555
N3 C12 1_555 1_555
O21 C11 1_555 1_555
O22 C11 1_555 1_555
O23 C15 1_555 1_555
O24 C15 1_555 1_555
C11 C12 1_555 1_555
C12 C13 1_555 1_555
C13 C14 1_555 1_555
C14 C15 1_555 1_555
H6 O5 1_555 1_555
H8 O6 1_555 1_555
H10 O7 1_555 1_555
H12 O8 1_555 1_555
H14 O9 1_555 1_555
H16 O10 1_555 1_555
H18 O11 1_555 1_555
H20 O12 1_555 1_555
H21 N1 1_555 1_555
H22 N1 1_555 1_555
H23 N1 1_555 1_555
H24 C2 1_555 1_555
H25 C3 1_555 1_555
H26 C3 1_555 1_555
H27 C4 1_555 1_555
H28 C4 1_555 1_555
H29 N2 1_555 1_555
H30 N2 1_555 1_555
H31 N2 1_555 1_555
H32 C7 1_555 1_555
H33 C8 1_555 1_555
H34 C8 1_555 1_555
H35 C9 1_555 1_555
H36 C9 1_555 1_555
H37 N3 1_555 1_555
H38 N3 1_555 1_555
H39 N3 1_555 1_555
H40 C12 1_555 1_555
H41 C13 1_555 1_555
H42 C13 1_555 1_555
H43 C14 1_555 1_555
H44 C14 1_555 1_555
Er1 O1 1_555 1_555
Er2 O2 1_555 1_555
Er3 O1 1_555 1_555
Er4 O1 1_555 1_555
Cl1 O30 1_555 1_555
O31 Cl1 1_555 1_555
O32 Cl1 1_555 1_555
O33 Cl1 1_555 1_555
Cl2 O34 1_555 1_555
O35 Cl2 1_555 1_555
O36 Cl2 1_555 1_555
O37 Cl2 1_555 1_555
Cl3 O38 1_555 1_555
O39 Cl3 1_555 1_555
O40 Cl3 1_555 1_555
O41 Cl3 1_555 1_555
Cl4 O42 1_555 1_555
O43 Cl4 1_555 1_555
O44 Cl4 1_555 1_555
O45 Cl4 1_555 1_555
Cl5 O46 1_555 1_555
O47 Cl5 1_555 1_555
O48 Cl5 1_555 1_555
O49 Cl5 1_555 1_555
Cl6 O50 1_555 1_555
O51 Cl6 1_555 1_555
O52 Cl6 1_555 1_555
O53 Cl6 1_555 1_555
Er3C O13 1_555 1_555
Er2C O14 1_555 1_555
Er2B O19 1_555 1_555
Er4B O20 1_555 1_555
Er3B O21 1_555 1_555
Er4B_2 O22 1_555 1_555
O14C Er2 1_555 1_555
O19B Er2 1_555 1_555
O13C Er3 1_555 1_555
O21B Er3 1_555 1_555
O20B Er4 1_555 1_555
O22B Er4 1_555 1_555
O2 Er1 1_555 1_555
O2 Er3 1_555 1_555
O3 Er2 1_555 1_555
O3 Er3 1_555 1_555
O3 Er4 1_555 1_555
O4 Er1 1_555 1_555
O4 Er2 1_555 1_555
O4 Er4 1_555 1_555
O5 Er1 1_555 1_555
O6 Er1 1_555 1_555
O7 Er2 1_555 1_555
O8 Er2 1_555 1_555
O9 Er3 1_555 1_555
O10 Er3 1_555 1_555
O11 Er4 1_555 1_555
O12 Er4 1_555 1_555
O15 Er1 1_555 1_555
O16 Er3 1_555 1_555
O17 Er1 1_555 1_555
O18 Er2 1_555 1_555
O23 Er4 1_555 1_555
O24 Er1 1_555 1_555

#END
