
#######################################################################
#
#                 Cambridge Crystallographic Data Centre
#                                CCDC 
#
#######################################################################
#
# If this CIF has been generated from an entry in the Cambridge 
# Structural Database, then it will include bibliographic, chemical, 
# crystal, experimental, refinement or atomic coordinate data resulting 
# from the CCDC's data processing and validation procedures.
#
#######################################################################

data_NAHFIO
_chemical_formula_moiety         '(C30 H40 B2 Co2 N16 O8)n'
_symmetry_cell_setting           monoclinic
_symmetry_space_group_name_H-M   'C 2/c'
_symmetry_Int_Tables_number      15
_space_group_name_Hall           '-C 2yc'
loop_
_symmetry_equiv_pos_site_id
_symmetry_equiv_pos_as_xyz
1 x,y,z
2 -x,y,1/2-z
3 1/2+x,1/2+y,z
4 1/2-x,1/2+y,1/2-z
5 -x,-y,-z
6 x,-y,1/2+z
7 1/2-x,1/2-y,-z
8 1/2+x,1/2-y,1/2+z
_cell_length_a                   26.1535(10)
_cell_length_b                   13.6168(5)
_cell_length_c                   17.1807(7)
_cell_angle_alpha                90
_cell_angle_beta                 126.056(3)
_cell_angle_gamma                90
_cell_volume                     4946.46
loop_
_atom_site_label
_atom_site_type_symbol
_atom_site_fract_x
_atom_site_fract_y
_atom_site_fract_z
Co1 Co 0.12292(3) 0.22335(6) 0.18843(5)
O1 O 0.1189(2) 0.3533(4) 0.1112(4)
O2 O 0.0976(3) 0.3691(4) 0.2146(4)
N1 N -0.2805(2) 0.2553(4) -0.1965(3)
N2 N 0.0261(2) 0.1964(3) 0.0753(3)
N3 N -0.0749(2) 0.1545(3) 0.0005(3)
N4 N -0.1497(2) -0.1219(4) -0.1291(3)
N5 N -0.1884(2) 0.1910(3) -0.0801(3)
N6 N -0.1148(2) 0.1393(4) 0.2167(3)
N7 N -0.1251(2) 0.1054(3) 0.0817(3)
N8 N -0.1536(2) 0.0160(3) -0.0644(3)
C1 C 0.0822(5) 0.5114(6) 0.1194(6)
H1 H 0.0682 0.5416 0.1563
H2 H 0.1199 0.5479 0.1347
C2 C 0.0306(4) 0.5211(6) 0.0142(7)
H3 H 0.0244 0.5916 -0.0035
H4 H 0.0438 0.4877 -0.0226
C3 C -0.1837(3) 0.2925(4) -0.0696(4)
H5 H -0.1476 0.3287 -0.0213
C4 C -0.0185(2) 0.1664(4) 0.0849(4)
H6 H -0.0110 0.1548 0.1454
C5 C -0.0657(3) 0.1820(5) -0.0678(4)
H7 H -0.0970 0.1835 -0.1355
C6 C -0.2481(3) 0.1756(4) -0.1590(4)
H8 H -0.2647 0.1122 -0.1845
C7 C -0.1235(3) -0.0354(4) -0.0930(4)
H9 H -0.0874 -0.0120 -0.0879
C8 C -0.0047(3) 0.2063(5) -0.0215(4)
H10 H 0.0143 0.2274 -0.0517
C9 C -0.2395(3) 0.3292(5) -0.1401(4)
H11 H -0.2496 0.3972 -0.1500
C10 C -0.1333(3) 0.1716(4) 0.1318(4)
H12 H -0.1506 0.2351 0.1081
C11 C -0.2026(3) -0.0438(5) -0.0831(5)
H13 H -0.2326 -0.0290 -0.0704
C12 C -0.0933(3) 0.0462(5) 0.2224(4)
H14 H -0.0763 0.0032 0.2759
C13 C -0.0998(3) 0.0248(5) 0.1404(4)
H15 H -0.0888 -0.0355 0.1259
C14 C -0.1994(3) -0.1274(5) -0.1228(4)
H16 H -0.2274 -0.1816 -0.1433
C15 C 0.1007(3) 0.4043(5) 0.1509(6)
B1 B -0.1358(3) 0.1173(5) -0.0163(4)
O1D O -0.1189(2) 0.6467(4) -0.1112(4)
O2D O -0.0976(3) 0.6309(4) -0.2146(4)
C1D C -0.0822(5) 0.4886(6) -0.1194(6)
H1D H -0.0682 0.4584 -0.1563
H2D H -0.1199 0.4521 -0.1347
C2D C -0.0306(4) 0.4789(6) -0.0142(7)
H3D H -0.0244 0.4084 0.0035
H4D H -0.0438 0.5123 0.0226
C15D C -0.1007(3) 0.5957(5) -0.1509(6)
Co1A Co -0.12292(3) 0.22335(6) 0.31157(5)
N1A N 0.2805(2) 0.2553(4) 0.6965(3)
N2A N -0.0261(2) 0.1964(3) 0.4247(3)
N3A N 0.0749(2) 0.1545(3) 0.4995(3)
N4A N 0.1497(2) -0.1219(4) 0.6291(3)
N5A N 0.1884(2) 0.1910(3) 0.5801(3)
N6A N 0.1148(2) 0.1393(4) 0.2833(3)
N7A N 0.1251(2) 0.1054(3) 0.4183(3)
N8A N 0.1536(2) 0.0160(3) 0.5644(3)
C3A C 0.1837(3) 0.2925(4) 0.5696(4)
H5A H 0.1476 0.3287 0.5213
C4A C 0.0185(2) 0.1664(4) 0.4151(4)
H6A H 0.0110 0.1548 0.3546
C5A C 0.0657(3) 0.1820(5) 0.5678(4)
H7A H 0.0970 0.1835 0.6355
C6A C 0.2481(3) 0.1756(4) 0.6590(4)
H8A H 0.2647 0.1122 0.6845
C7A C 0.1235(3) -0.0354(4) 0.5930(4)
H9A H 0.0874 -0.0120 0.5879
C8A C 0.0047(3) 0.2063(5) 0.5215(4)
H10A H -0.0143 0.2274 0.5517
C9A C 0.2395(3) 0.3292(5) 0.6401(4)
H11A H 0.2496 0.3972 0.6500
C10A C 0.1333(3) 0.1716(4) 0.3682(4)
H12A H 0.1506 0.2351 0.3919
C11A C 0.2026(3) -0.0438(5) 0.5831(5)
H13A H 0.2326 -0.0290 0.5704
C12A C 0.0933(3) 0.0462(5) 0.2776(4)
H14A H 0.0763 0.0032 0.2241
C13A C 0.0998(3) 0.0248(5) 0.3596(4)
H15A H 0.0888 -0.0355 0.3741
C14A C 0.1994(3) -0.1274(5) 0.6228(4)
H16A H 0.2274 -0.1816 0.6433
B1A B 0.1358(3) 0.1173(5) 0.5163(4)
Co1D Co -0.12292(3) -0.22335(6) -0.18843(5)
Co1D_2 Co -0.12292(3) 0.77665(6) -0.18843(5)
Co1E Co 0.12292(3) -0.22335(6) 0.68843(5)
Co1F Co 0.37708(3) 0.27665(6) 0.81157(5)
Co1G Co -0.37708(3) 0.27665(6) -0.31157(5)
O1A O -0.1189(2) 0.3533(4) 0.3888(4)
O2A O -0.0976(3) 0.3691(4) 0.2854(4)
N1F N -0.2195(2) 0.2447(4) 0.1965(3)
N1G N 0.2195(2) 0.2447(4) 0.3035(3)
N4D N 0.1497(2) 0.1219(4) 0.1291(3)
N4E N -0.1497(2) 0.1219(4) 0.3709(3)
O3 O 0.1709(12) 0.4127(18) 0.0242(16)
O4 O 0.4077(12) 0.0348(19) 0.6533(16)
O5 O -0.1891(16) 0.174(2) -0.338(2)
O6 O 0.5000 -0.167(5) 0.7500
loop_
_geom_bond_atom_site_label_1
_geom_bond_atom_site_label_2
_geom_bond_site_symmetry_1
_geom_bond_site_symmetry_2
Co1 O1 1_555 1_555
O1 C15 1_555 1_555
O2 Co1 1_555 1_555
N1 C6 1_555 1_555
N2 Co1 1_555 1_555
N3 C4 1_555 1_555
N4 C7 1_555 1_555
N5 C3 1_555 1_555
N6 C10 1_555 1_555
N7 C10 1_555 1_555
N8 C7 1_555 1_555
C1 H1 1_555 1_555
H2 C1 1_555 1_555
C2 C1 1_555 1_555
H3 C2 1_555 1_555
H4 C2 1_555 1_555
C3 H5 1_555 1_555
C4 N2 1_555 1_555
H6 C4 1_555 1_555
C5 N3 1_555 1_555
H7 C5 1_555 1_555
C6 N5 1_555 1_555
H8 C6 1_555 1_555
C7 H9 1_555 1_555
C8 N2 1_555 1_555
H10 C8 1_555 1_555
C9 N1 1_555 1_555
H11 C9 1_555 1_555
C10 H12 1_555 1_555
C11 N8 1_555 1_555
H13 C11 1_555 1_555
C12 N6 1_555 1_555
H14 C12 1_555 1_555
C13 N7 1_555 1_555
H15 C13 1_555 1_555
C14 N4 1_555 1_555
H16 C14 1_555 1_555
C15 O2 1_555 1_555
B1 N3 1_555 1_555
O1D C15D 1_555 1_555
O2D C15D 1_555 1_555
C1D H1D 1_555 1_555
H2D C1D 1_555 1_555
C2D C2 1_555 1_555
H3D C2D 1_555 1_555
H4D C2D 1_555 1_555
C15D C1D 1_555 1_555
Co1A N6 1_555 1_555
N1A C6A 1_555 1_555
N2A Co1A 1_555 1_555
N3A C4A 1_555 1_555
N4A C7A 1_555 1_555
N5A C3A 1_555 1_555
N6A Co1 1_555 1_555
N7A C10A 1_555 1_555
N8A C7A 1_555 1_555
C3A H5A 1_555 1_555
C4A N2A 1_555 1_555
H6A C4A 1_555 1_555
C5A N3A 1_555 1_555
H7A C5A 1_555 1_555
C6A N5A 1_555 1_555
H8A C6A 1_555 1_555
C7A H9A 1_555 1_555
C8A N2A 1_555 1_555
H10A C8A 1_555 1_555
C9A N1A 1_555 1_555
H11A C9A 1_555 1_555
C10A N6A 1_555 1_555
H12A C10A 1_555 1_555
C11A N8A 1_555 1_555
H13A C11A 1_555 1_555
C12A N6A 1_555 1_555
H14A C12A 1_555 1_555
C13A N7A 1_555 1_555
H15A C13A 1_555 1_555
C14A N4A 1_555 1_555
H16A C14A 1_555 1_555
B1A N3A 1_555 1_555
Co1D N4 1_555 1_555
Co1D_2 O1D 1_555 1_555
Co1E N4A 1_555 1_555
Co1F N1A 1_555 1_555
Co1G N1 1_555 1_555
O1A Co1A 1_555 1_555
O2A Co1A 1_555 1_555
N1F Co1A 1_555 1_555
N1G Co1 1_555 1_555
N4D Co1 1_555 1_555
N4E Co1A 1_555 1_555
N5 B1 1_555 1_555
N7 B1 1_555 1_555
N8 B1 1_555 1_555
C1 C15 1_555 1_555
C3 C9 1_555 1_555
C5 C8 1_555 1_555
C11 C14 1_555 1_555
C12 C13 1_555 1_555
O2D Co1D_2 1_555 1_555
C1D C2D 1_555 1_555
N5A B1A 1_555 1_555
N7A B1A 1_555 1_555
N8A B1A 1_555 1_555
C3A C9A 1_555 1_555
C5A C8A 1_555 1_555
C11A C14A 1_555 1_555
C12A C13A 1_555 1_555

#END
