
#######################################################################
#
#                 Cambridge Crystallographic Data Centre
#                                CCDC 
#
#######################################################################
#
# If this CIF has been generated from an entry in the Cambridge 
# Structural Database, then it will include bibliographic, chemical, 
# crystal, experimental, refinement or atomic coordinate data resulting 
# from the CCDC's data processing and validation procedures.
#
#######################################################################

data_NAHFOU
_chemical_formula_moiety         '(C39 H39 B2 Cd2 N17 O6)n'
_symmetry_cell_setting           monoclinic
_symmetry_space_group_name_H-M   'P 21/n'
_symmetry_Int_Tables_number      14
_space_group_name_Hall           '-P 2yn'
loop_
_symmetry_equiv_pos_site_id
_symmetry_equiv_pos_as_xyz
1 x,y,z
2 1/2-x,1/2+y,1/2-z
3 -x,-y,-z
4 1/2+x,1/2-y,1/2+z
_cell_length_a                   9.003(5)
_cell_length_b                   17.382(11)
_cell_length_c                   17.057(11)
_cell_angle_alpha                90
_cell_angle_beta                 104.595(10)
_cell_angle_gamma                90
_cell_volume                     2583.12
loop_
_atom_site_label
_atom_site_type_symbol
_atom_site_fract_x
_atom_site_fract_y
_atom_site_fract_z
Cd1 Cd 0.38438(5) 0.06015(3) 0.21475(3)
N1 N 0.7621(7) -0.0950(3) 0.1794(3)
C1 C 0.6892(10) -0.0442(5) 0.2829(5)
H1 H 0.6827 -0.0322 0.3363
C2 C 0.8072(8) -0.3325(4) 0.2302(5)
H2 H 0.7538 -0.3698 0.2534
N2 N 0.9577(7) -0.3386(3) 0.2257(4)
N3 N 1.0021(6) -0.1122(3) 0.1286(3)
N4 N 0.7450(7) -0.1515(3) 0.0408(3)
C3 C 1.0714(9) -0.0486(4) 0.1689(5)
H3 H 1.0294 -0.0187 0.2047
C4 C 0.6420(8) -0.0474(4) 0.1528(5)
H4 H 0.5967 -0.0378 0.0971
N5 N 0.8619(6) -0.2277(3) 0.1698(3)
O1 O 0.2064(7) 0.0875(3) 0.2932(3)
C5 C 0.7475(9) -0.2653(4) 0.1967(5)
H5 H 0.6462 -0.2472 0.1923
N6 N 1.2041(7) -0.0339(4) 0.1521(4)
C6 C 0.9868(8) -0.2749(4) 0.1892(4)
H6 H 1.0826 -0.2636 0.1780
N7 N 0.6489(7) -0.1192(4) -0.0892(4)
N8 N 0.5935(7) -0.0155(3) 0.2121(4)
C7 C 1.1003(9) -0.1377(4) 0.0834(5)
H7 H 1.0845 -0.1808 0.0481
O2 O 0.3884(7) 0.0052(4) 0.3466(4)
C8 C 0.7936(9) -0.0921(5) 0.2637(4)
H8 H 0.8735 -0.1187 0.3008
C9 C 0.7549(8) -0.1050(4) -0.0216(4)
H9 H 0.8306 -0.0660 -0.0172
C10 C 0.0453(10) 0.0483(5) 0.4111(5)
H10 H -0.0007 0.0842 0.3702
C11 C -0.0343(9) 0.0271(5) 0.4698(5)
C12 C 1.2231(9) -0.0900(5) 0.0988(5)
H11 H 1.3089 -0.0945 0.0762
C13 C 0.1867(9) 0.0185(5) 0.4116(5)
B1 B 0.8446(9) -0.1463(4) 0.1294(5)
C14 C 0.2570(10) -0.0347(6) 0.4737(5)
H12 H 0.3561 -0.0547 0.4758
C15 C 0.5639(11) -0.1785(5) -0.0694(5)
H13 H 0.4779 -0.2019 -0.1055
C16 C 0.6212(11) -0.1986(5) 0.0094(5)
H14 H 0.5829 -0.2379 0.0377
C17 C 0.2667(10) 0.0389(5) 0.3473(5)
C18 C 0.1807(11) -0.0569(5) 0.5306(6)
H15 H 0.2275 -0.0931 0.5710
O1B O -0.2064(7) -0.0875(3) 0.7068(3)
O2B O -0.3884(7) -0.0052(4) 0.6534(4)
C10B C -0.0453(10) -0.0483(5) 0.5889(5)
H10B H 0.0007 -0.0842 0.6298
C11B C 0.0343(9) -0.0271(5) 0.5302(5)
C13B C -0.1867(9) -0.0185(5) 0.5884(5)
C14B C -0.2570(10) 0.0347(6) 0.5263(5)
H12B H -0.3561 0.0547 0.5242
C17B C -0.2667(10) -0.0389(5) 0.6527(5)
C18B C -0.1807(11) 0.0569(5) 0.4694(6)
H15B H -0.2275 0.0931 0.4290
Cd1B Cd -0.38438(5) -0.06015(3) 0.78525(3)
N1B N -0.7621(7) 0.0950(3) 0.8206(3)
C1B C -0.6892(10) 0.0442(5) 0.7171(5)
H1B H -0.6827 0.0322 0.6637
C2B C -0.8072(8) 0.3325(4) 0.7698(5)
H2B H -0.7538 0.3698 0.7466
N2B N -0.9577(7) 0.3386(3) 0.7743(4)
N3B N -1.0021(6) 0.1122(3) 0.8714(3)
N4B N -0.7450(7) 0.1515(3) 0.9592(3)
C3B C -1.0714(9) 0.0486(4) 0.8311(5)
H3B H -1.0294 0.0187 0.7953
C4B C -0.6420(8) 0.0474(4) 0.8472(5)
H4B H -0.5967 0.0378 0.9029
N5B N -0.8619(6) 0.2277(3) 0.8302(3)
C5B C -0.7475(9) 0.2653(4) 0.8033(5)
H5B H -0.6462 0.2472 0.8077
N6B N -1.2041(7) 0.0339(4) 0.8479(4)
C6B C -0.9868(8) 0.2749(4) 0.8108(4)
H6B H -1.0826 0.2636 0.8220
N7B N -0.6489(7) 0.1192(4) 1.0892(4)
N8B N -0.5935(7) 0.0155(3) 0.7879(4)
C7B C -1.1003(9) 0.1377(4) 0.9166(5)
H7B H -1.0845 0.1808 0.9519
C8B C -0.7936(9) 0.0921(5) 0.7363(4)
H8B H -0.8735 0.1187 0.6992
C9B C -0.7549(8) 0.1050(4) 1.0216(4)
H9B H -0.8306 0.0660 1.0172
C12B C -1.2231(9) 0.0900(5) 0.9012(5)
H11B H -1.3089 0.0945 0.9238
B1B B -0.8446(9) 0.1463(4) 0.8706(5)
C15B C -0.5639(11) 0.1785(5) 1.0694(5)
H13B H -0.4779 0.2019 1.1055
C16B C -0.6212(11) 0.1986(5) 0.9906(5)
H14B H -0.5829 0.2379 0.9623
Cd1_2 Cd -0.61562(5) 0.06015(3) 1.21475(3)
Cd1_3 Cd 1.38438(5) 0.06015(3) 0.21475(3)
Cd1A Cd 1.11562(5) -0.43985(3) 0.28525(3)
Cd1B_2 Cd -1.38438(5) -0.06015(3) 0.78525(3)
Cd1B_3 Cd 0.61562(5) -0.06015(3) -0.21475(3)
Cd1C Cd -1.11562(5) 0.43985(3) 0.71475(3)
N2A N 0.5423(7) 0.1614(3) 0.2743(4)
N2C N -0.5423(7) -0.1614(3) 0.7257(4)
N6_2 N 0.2041(7) -0.0339(4) 0.1521(4)
N6B_2 N -0.2041(7) 0.0339(4) 0.8479(4)
N7_2 N -0.3511(7) -0.1192(4) 0.9108(4)
N7B_2 N 0.3511(7) 0.1192(4) 0.0892(4)
N9 N 0.5140(15) -0.2297(7) 0.3730(7)
C19 C 0.616(2) -0.1919(11) 0.4254(10)
H16 H 0.6017 -0.1384 0.4320
C20 C 0.5365(18) -0.3126(8) 0.3604(9)
H17 H 0.6404 -0.3276 0.3899
H18 H 0.5225 -0.3227 0.3025
H19 H 0.4614 -0.3424 0.3805
C21 C 0.3730(19) -0.1927(12) 0.3242(8)
H20 H 0.2874 -0.2038 0.3483
H21 H 0.3496 -0.2130 0.2688
H22 H 0.3887 -0.1370 0.3231
O3 O 0.7325(19) -0.2231(9) 0.4673(9)
O4 O 0.3654(11) -0.2733(5) 0.1376(6)
H23 H 0.4215 -0.2457 0.1746
H24 H 0.2770 -0.2781 0.1463
loop_
_geom_bond_atom_site_label_1
_geom_bond_atom_site_label_2
_geom_bond_site_symmetry_1
_geom_bond_site_symmetry_2
Cd1 O1 1_555 1_555
N1 C4 1_555 1_555
C1 H1 1_555 1_555
C2 H2 1_555 1_555
N2 C2 1_555 1_555
N3 C3 1_555 1_555
N4 C9 1_555 1_555
C3 H3 1_555 1_555
C4 H4 1_555 1_555
N5 C5 1_555 1_555
O1 C17 1_555 1_555
C5 C2 1_555 1_555
H5 C5 1_555 1_555
N6 C3 1_555 1_555
C6 N2 1_555 1_555
H6 C6 1_555 1_555
N7 C9 1_555 1_555
N8 Cd1 1_555 1_555
C7 N3 1_555 1_555
H7 C7 1_555 1_555
O2 Cd1 1_555 1_555
C8 N1 1_555 1_555
H8 C8 1_555 1_555
C9 H9 1_555 1_555
C10 H10 1_555 1_555
C11 C10 1_555 1_555
C12 N6 1_555 1_555
H11 C12 1_555 1_555
C13 C10 1_555 1_555
B1 N1 1_555 1_555
C14 C13 1_555 1_555
H12 C14 1_555 1_555
C15 N7 1_555 1_555
H13 C15 1_555 1_555
C16 N4 1_555 1_555
H14 C16 1_555 1_555
C17 O2 1_555 1_555
C18 C14 1_555 1_555
H15 C18 1_555 1_555
N9 C19 1_555 1_555
C19 H16 1_555 1_555
C20 N9 1_555 1_555
H17 C20 1_555 1_555
H18 C20 1_555 1_555
H19 C20 1_555 1_555
C21 N9 1_555 1_555
H20 C21 1_555 1_555
H21 C21 1_555 1_555
H22 C21 1_555 1_555
O3 C19 1_555 1_555
O4 H23 1_555 1_555
H24 O4 1_555 1_555
O1B C17B 1_555 1_555
O2B C17B 1_555 1_555
C10B H10B 1_555 1_555
C11B C11 1_555 1_555
C13B C10B 1_555 1_555
C14B C13B 1_555 1_555
H12B C14B 1_555 1_555
C17B C13B 1_555 1_555
C18B C11 1_555 1_555
H15B C18B 1_555 1_555
Cd1B O1B 1_555 1_555
N1B C4B 1_555 1_555
C1B H1B 1_555 1_555
C2B H2B 1_555 1_555
N2B C2B 1_555 1_555
N3B C3B 1_555 1_555
N4B C9B 1_555 1_555
C3B H3B 1_555 1_555
C4B H4B 1_555 1_555
N5B C5B 1_555 1_555
C5B C2B 1_555 1_555
H5B C5B 1_555 1_555
N6B C3B 1_555 1_555
C6B N2B 1_555 1_555
H6B C6B 1_555 1_555
N7B C9B 1_555 1_555
N8B Cd1B 1_555 1_555
C7B N3B 1_555 1_555
H7B C7B 1_555 1_555
C8B N1B 1_555 1_555
H8B C8B 1_555 1_555
C9B H9B 1_555 1_555
C12B N6B 1_555 1_555
H11B C12B 1_555 1_555
B1B N1B 1_555 1_555
C15B N7B 1_555 1_555
H13B C15B 1_555 1_555
C16B N4B 1_555 1_555
H14B C16B 1_555 1_555
Cd1_2 N7B 1_555 1_555
Cd1_3 N6 1_555 1_555
Cd1A N2 1_555 1_555
Cd1B_2 N6B 1_555 1_555
Cd1B_3 N7 1_555 1_555
Cd1C N2B 1_555 1_555
N2A Cd1 1_555 1_555
N2C Cd1B 1_555 1_555
N6_2 Cd1 1_555 1_555
N6B_2 Cd1B 1_555 1_555
N7_2 Cd1B 1_555 1_555
N7B_2 Cd1 1_555 1_555
C1 N8 1_555 1_555
C1 C8 1_555 1_555
N3 B1 1_555 1_555
N4 B1 1_555 1_555
C4 N8 1_555 1_555
N5 C6 1_555 1_555
N5 B1 1_555 1_555
C7 C12 1_555 1_555
C13 C17 1_555 1_555
C15 C16 1_555 1_555
C18 C11B 1_555 1_555
O2B Cd1B 1_555 1_555
C10B C11B 1_555 1_555
C14B C18B 1_555 1_555
C1B N8B 1_555 1_555
C1B C8B 1_555 1_555
N3B B1B 1_555 1_555
N4B B1B 1_555 1_555
C4B N8B 1_555 1_555
N5B C6B 1_555 1_555
N5B B1B 1_555 1_555
C7B C12B 1_555 1_555
C15B C16B 1_555 1_555

#END
