
#######################################################################
#
#                 Cambridge Crystallographic Data Centre
#                                CCDC 
#
#######################################################################
#
# If this CIF has been generated from an entry in the Cambridge 
# Structural Database, then it will include bibliographic, chemical, 
# crystal, experimental, refinement or atomic coordinate data resulting 
# from the CCDC's data processing and validation procedures.
#
#######################################################################

data_LIDSIC
_chemical_formula_moiety         '(C52 H40 Co4 N4 O22)n'
_symmetry_cell_setting           triclinic
_symmetry_space_group_name_H-M   'P -1'
_symmetry_Int_Tables_number      2
_space_group_name_Hall           '-P 1'
loop_
_symmetry_equiv_pos_site_id
_symmetry_equiv_pos_as_xyz
1 x,y,z
2 -x,-y,-z
_cell_length_a                   11.0483(6)
_cell_length_b                   20.7209(11)
_cell_length_c                   22.0818(14)
_cell_angle_alpha                115.715(6)
_cell_angle_beta                 99.403(5)
_cell_angle_gamma                90.774(4)
_cell_volume                     4473.06
loop_
_atom_site_label
_atom_site_type_symbol
_atom_site_fract_x
_atom_site_fract_y
_atom_site_fract_z
Co1 Co 0.8317(2) 0.17147(11) 0.45629(11)
Co2 Co 0.7512(2) 0.33651(12) 0.57974(11)
Co3 Co 0.2678(2) 0.67131(11) 0.92495(11)
Co4 Co 0.1874(2) 0.83654(11) 1.04737(11)
N1 N 0.7932(13) 0.0875(7) 0.3528(7)
N2 N 0.2247(13) -0.0772(7) 0.1497(7)
O1 O 1.0080(11) -0.1531(6) 0.0492(6)
O2 O 0.8974(11) -0.2443(7) -0.0400(7)
O3 O 0.4269(10) -0.2559(6) -0.0362(6)
O4 O 0.3701(11) -0.1642(7) 0.0502(7)
O5 O 0.6504(11) 0.1700(7) 0.4563(7)
O6 O 0.5944(11) 0.2631(6) 0.5417(6)
O7 O 0.1220(11) 0.2544(7) 0.5428(7)
O8 O 0.0114(11) 0.1654(7) 0.4522(6)
O9 O 0.2676(12) 0.6626(7) 0.8310(6)
O10 O 0.1720(14) 0.7521(7) 0.8198(7)
O11 O 0.1734(13) 0.7557(6) 0.5859(6)
O12 O 0.2524(15) 0.6629(7) 0.5112(7)
O13 O 0.7546(13) 0.3455(7) 0.6742(6)
O14 O 0.8396(15) 0.2526(7) 0.6823(7)
O15 O 0.8103(13) 0.2361(6) 0.9090(6)
O16 O 0.7310(14) 0.3286(7) 0.9844(7)
O17 O 0.8381(16) 0.0907(7) 0.4936(8)
H1 H 0.8931 0.0915 0.5258
H2 H 0.7740 0.0935 0.5109
O18 O 0.8828(10) 0.2535(6) 0.5635(5)
H3 H 0.9663 0.2749 0.5724
H4 H 0.8785 0.2318 0.5943
O19 O 0.9069(15) 0.4167(7) 0.6219(8)
H5 H 0.9359 0.4371 0.6006
H6 H 0.9715 0.4117 0.6456
O20 O 0.1112(14) 0.5922(7) 0.8843(8)
H7 H 0.0552 0.5911 0.8524
H8 H 0.0696 0.5848 0.9102
O21 O 0.1371(10) 0.7540(5) 0.9407(5)
H9 H 0.1415 0.7753 0.9097
H10 H 0.0536 0.7326 0.9319
O22 O 0.1860(16) 0.9144(7) 1.0072(8)
H11 H 0.2422 0.9426 1.0069
H12 H 0.1280 0.9126 0.9759
C1 C 0.7160(19) 0.0329(12) 0.3341(11)
H13 H 0.6752 0.0301 0.3666
C2 C 0.689(2) -0.0234(11) 0.2669(11)
H14 H 0.6308 -0.0613 0.2563
C3 C 0.7465(16) -0.0226(9) 0.2187(10)
C4 C 0.8283(19) 0.0393(11) 0.2375(11)
H15 H 0.8675 0.0449 0.2056
C5 C 0.848(2) 0.0927(11) 0.3071(11)
H16 H 0.9032 0.1329 0.3203
C6 C 0.7219(16) -0.0808(9) 0.1473(9)
C7 C 0.6053(15) -0.1118(9) 0.1154(9)
H17 H 0.5404 -0.0945 0.1382
C8 C 0.5802(16) -0.1686(9) 0.0499(9)
C9 C 0.6799(15) -0.1950(9) 0.0164(8)
H18 H 0.6662 -0.2339 -0.0268
C10 C 0.7977(15) -0.1629(9) 0.0482(9)
C11 C 0.8187(16) -0.1059(9) 0.1130(9)
H19 H 0.8983 -0.0842 0.1337
C12 C 0.9090(15) -0.1898(9) 0.0156(9)
C13 C 0.4486(16) -0.2001(9) 0.0175(9)
C14 C 0.3117(19) -0.0773(12) 0.1969(11)
H20 H 0.3566 -0.1172 0.1860
C15 C 0.342(2) -0.0209(13) 0.2632(12)
H21 H 0.4107 -0.0220 0.2933
C16 C 0.2735(16) 0.0341(10) 0.2829(9)
C17 C 0.184(2) 0.0368(11) 0.2337(12)
H22 H 0.1362 0.0757 0.2441
C18 C 0.164(2) -0.0194(12) 0.1675(10)
H23 H 0.1047 -0.0158 0.1342
C19 C 0.2988(16) 0.0938(9) 0.3540(9)
C20 C 0.4174(14) 0.1209(9) 0.3887(8)
H24 H 0.4834 0.1010 0.3680
C21 C 0.4396(15) 0.1773(9) 0.4539(9)
C22 C 0.3410(14) 0.2052(9) 0.4858(8)
H25 H 0.3556 0.2431 0.5296
C23 C 0.2218(15) 0.1774(9) 0.4529(9)
C24 C 0.2020(15) 0.1215(9) 0.3880(9)
H26 H 0.1218 0.1016 0.3662
C25 C 0.1105(16) 0.2019(10) 0.4868(9)
C26 C 0.5710(16) 0.2062(10) 0.4872(9)
N3 N 0.6300(14) 0.4219(8) 0.6030(7)
C27 C 0.533(4) 0.424(2) 0.5570(17)
H27 H 0.5191 0.3852 0.5135
C28 C 0.456(4) 0.476(2) 0.5691(17)
H28 H 0.3948 0.4756 0.5342
C29 C 0.469(2) 0.5303(11) 0.6334(10)
C30 C 0.580(4) 0.5386(17) 0.6806(18)
H29 H 0.6008 0.5796 0.7221
C31 C 0.655(3) 0.4836(17) 0.6624(19)
H30 H 0.7281 0.4888 0.6926
C32 C 0.383(2) 0.5871(11) 0.6489(9)
C33 C 0.346(2) 0.6167(11) 0.7120(10)
H31 H 0.3734 0.5987 0.7433
C34 C 0.2708(19) 0.6718(10) 0.7295(9)
C35 C 0.2322(18) 0.7001(9) 0.6850(9)
H32 H 0.1839 0.7386 0.6973
C36 C 0.2664(17) 0.6706(10) 0.6203(9)
C37 C 0.3448(18) 0.6154(10) 0.6050(9)
H33 H 0.3712 0.5976 0.5633
C38 C 0.2264(17) 0.6999(10) 0.5680(10)
C39 C 0.2313(18) 0.6995(10) 0.7990(10)
N4 N 0.3863(14) 0.5856(8) 0.9017(8)
C40 C 0.491(3) 0.5930(17) 0.8751(16)
H34 H 0.5082 0.6343 0.8701
C41 C 0.565(4) 0.5392(17) 0.8572(17)
H35 H 0.6325 0.5423 0.8377
C42 C 0.5401(19) 0.4739(10) 0.8685(9)
C43 C 0.440(3) 0.4771(19) 0.8955(19)
H36 H 0.4186 0.4395 0.9051
C44 C 0.367(4) 0.5334(19) 0.9100(19)
H37 H 0.2976 0.5304 0.9277
C45 C 0.6217(18) 0.4127(10) 0.8504(10)
C46 C 0.6668(19) 0.3880(10) 0.7892(9)
H38 H 0.6490 0.4103 0.7606
C47 C 0.7382(17) 0.3300(10) 0.7711(9)
C48 C 0.7685(17) 0.2990(9) 0.8148(9)
H39 H 0.8156 0.2600 0.8022
C49 C 0.7298(18) 0.3248(9) 0.8777(10)
C50 C 0.6557(19) 0.3809(10) 0.8938(9)
H40 H 0.6278 0.3979 0.9350
C51 C 0.7802(18) 0.3066(10) 0.7041(9)
C52 C 0.7592(17) 0.2933(9) 0.9262(10)
Co1_2 Co -0.1683(2) 0.17147(11) 0.45629(11)
Co1A Co 0.1683(2) 0.82853(11) 0.54371(11)
Co2A Co 0.2488(2) 0.66349(12) 0.42026(11)
Co3_2 Co 0.2678(2) -0.32869(11) -0.07505(11)
Co3A Co 0.7322(2) 0.32869(11) 1.07505(11)
Co4_2 Co 0.1874(2) -0.16346(11) 0.04737(11)
Co4_3 Co 1.1874(2) -0.16346(11) 0.04737(11)
Co4A Co 0.8126(2) 0.16346(11) 0.95263(11)
N2_2 N 0.2247(13) 0.9228(7) 1.1497(7)
O1_2 O 0.0080(11) 0.8469(6) 1.0492(6)
O3_2 O 0.4269(10) 0.7441(6) 0.9638(6)
O4_2 O 0.3701(11) 0.8358(7) 1.0502(7)
O8_2 O 1.0114(11) 0.1654(7) 0.4522(6)
O11A O 0.8266(13) 0.2443(6) 0.4141(6)
O12A O 0.7476(15) 0.3371(7) 0.4888(7)
O15A O 0.1897(13) 0.7639(6) 1.0910(6)
O16A O 0.2690(14) 0.6714(7) 1.0156(7)
loop_
_geom_bond_atom_site_label_1
_geom_bond_atom_site_label_2
_geom_bond_site_symmetry_1
_geom_bond_site_symmetry_2
Co1 N1 1_555 1_555
Co2 O6 1_555 1_555
Co3 O9 1_555 1_555
Co4 O21 1_555 1_555
N1 C1 1_555 1_555
N2 C14 1_555 1_555
O1 C12 1_555 1_555
O2 C12 1_555 1_555
O3 C13 1_555 1_555
O4 C13 1_555 1_555
O5 Co1 1_555 1_555
O6 C26 1_555 1_555
O7 C25 1_555 1_555
O8 C25 1_555 1_555
O9 C39 1_555 1_555
O10 C39 1_555 1_555
O11 C38 1_555 1_555
O12 C38 1_555 1_555
O13 Co2 1_555 1_555
O14 C51 1_555 1_555
O15 C52 1_555 1_555
O16 C52 1_555 1_555
O17 Co1 1_555 1_555
H1 O17 1_555 1_555
H2 O17 1_555 1_555
O18 Co1 1_555 1_555
H3 O18 1_555 1_555
H4 O18 1_555 1_555
O19 Co2 1_555 1_555
H5 O19 1_555 1_555
H6 O19 1_555 1_555
O20 Co3 1_555 1_555
H7 O20 1_555 1_555
H8 O20 1_555 1_555
O21 Co3 1_555 1_555
H9 O21 1_555 1_555
H10 O21 1_555 1_555
O22 Co4 1_555 1_555
H11 O22 1_555 1_555
H12 O22 1_555 1_555
C1 H13 1_555 1_555
C2 C1 1_555 1_555
H14 C2 1_555 1_555
C3 C2 1_555 1_555
C4 C3 1_555 1_555
H15 C4 1_555 1_555
C5 N1 1_555 1_555
H16 C5 1_555 1_555
C6 C3 1_555 1_555
C7 C6 1_555 1_555
H17 C7 1_555 1_555
C8 C7 1_555 1_555
C9 C8 1_555 1_555
H18 C9 1_555 1_555
C10 C9 1_555 1_555
C11 C6 1_555 1_555
H19 C11 1_555 1_555
C12 C10 1_555 1_555
C13 C8 1_555 1_555
C14 H20 1_555 1_555
C15 C14 1_555 1_555
H21 C15 1_555 1_555
C16 C15 1_555 1_555
C17 C16 1_555 1_555
H22 C17 1_555 1_555
C18 N2 1_555 1_555
H23 C18 1_555 1_555
C19 C16 1_555 1_555
C20 C19 1_555 1_555
H24 C20 1_555 1_555
C21 C20 1_555 1_555
C22 C21 1_555 1_555
H25 C22 1_555 1_555
C23 C22 1_555 1_555
C24 C19 1_555 1_555
H26 C24 1_555 1_555
C25 C23 1_555 1_555
C26 O5 1_555 1_555
N3 Co2 1_555 1_555
C27 N3 1_555 1_555
H27 C27 1_555 1_555
C28 C27 1_555 1_555
H28 C28 1_555 1_555
C29 C28 1_555 1_555
C30 C29 1_555 1_555
H29 C30 1_555 1_555
C31 N3 1_555 1_555
H30 C31 1_555 1_555
C32 C29 1_555 1_555
C33 C32 1_555 1_555
H31 C33 1_555 1_555
C34 C33 1_555 1_555
C35 C34 1_555 1_555
H32 C35 1_555 1_555
C36 C35 1_555 1_555
C37 C32 1_555 1_555
H33 C37 1_555 1_555
C38 C36 1_555 1_555
C39 C34 1_555 1_555
N4 Co3 1_555 1_555
C40 N4 1_555 1_555
H34 C40 1_555 1_555
C41 C40 1_555 1_555
H35 C41 1_555 1_555
C42 C41 1_555 1_555
C43 C42 1_555 1_555
H36 C43 1_555 1_555
C44 N4 1_555 1_555
H37 C44 1_555 1_555
C45 C42 1_555 1_555
C46 C45 1_555 1_555
H38 C46 1_555 1_555
C47 C46 1_555 1_555
C48 C47 1_555 1_555
H39 C48 1_555 1_555
C49 C48 1_555 1_555
C50 C45 1_555 1_555
H40 C50 1_555 1_555
C51 O13 1_555 1_555
C52 C49 1_555 1_555
Co1_2 O8 1_555 1_555
Co1A O11 1_555 1_555
Co2A O12 1_555 1_555
Co3_2 O3 1_555 1_555
Co3A O16 1_555 1_555
Co4_2 N2 1_555 1_555
Co4_3 O1 1_555 1_555
Co4A O15 1_555 1_555
N2_2 Co4 1_555 1_555
O1_2 Co4 1_555 1_555
O3_2 Co3 1_555 1_555
O4_2 Co4 1_555 1_555
O8_2 Co1 1_555 1_555
O11A Co1 1_555 1_555
O12A Co2 1_555 1_555
O15A Co4 1_555 1_555
O16A Co3 1_555 1_555
Co2 O18 1_555 1_555
O4 Co4_2 1_555 1_555
C4 C5 1_555 1_555
C10 C11 1_555 1_555
C17 C18 1_555 1_555
C21 C26 1_555 1_555
C23 C24 1_555 1_555
C30 C31 1_555 1_555
C36 C37 1_555 1_555
C43 C44 1_555 1_555
C47 C51 1_555 1_555
C49 C50 1_555 1_555

#END
