
#######################################################################
#
#                 Cambridge Crystallographic Data Centre
#                                CCDC 
#
#######################################################################
#
# If this CIF has been generated from an entry in the Cambridge 
# Structural Database, then it will include bibliographic, chemical, 
# crystal, experimental, refinement or atomic coordinate data resulting 
# from the CCDC's data processing and validation procedures.
#
#######################################################################

data_ETUWEW
_chemical_formula_moiety         '(C10 H18 N1 O21 Sm2 1-)n'
_symmetry_cell_setting           monoclinic
_symmetry_space_group_name_H-M   'P 21/c'
_symmetry_Int_Tables_number      14
_space_group_name_Hall           '-P 2ybc'
loop_
_symmetry_equiv_pos_site_id
_symmetry_equiv_pos_as_xyz
1 x,y,z
2 -x,1/2+y,1/2-z
3 -x,-y,-z
4 x,1/2-y,1/2+z
_cell_length_a                   9.6711(3)
_cell_length_b                   11.7849(3)
_cell_length_c                   14.3863(4)
_cell_angle_alpha                90
_cell_angle_beta                 122.276(2)
_cell_angle_gamma                90
_cell_volume                     1386.3
loop_
_atom_site_label
_atom_site_type_symbol
_atom_site_fract_x
_atom_site_fract_y
_atom_site_fract_z
Sm1 Sm 0.61680(2) 0.983582(14) 0.330364(15)
O1 O 0.7036(3) 0.7832(2) 0.3435(2)
O2 O 0.6156(3) 0.6045(2) 0.3014(2)
O3 O 0.3063(3) 0.6799(2) 0.1732(2)
O4 O 0.3978(3) 0.8576(2) 0.2047(2)
O5 O 0.5172(3) 0.8817(2) 0.4343(2)
O6 O 0.4670(4) 0.8919(2) 0.5676(3)
O7 O 0.8912(3) 0.9847(2) 0.3572(2)
O8 O 1.1585(3) 1.0124(2) 0.4772(2)
O9 O 0.6084(4) 0.9755(3) 0.1530(2)
H1 H 0.608(6) 1.033(2) 0.121(3)
H2 H 0.544(5) 0.932(3) 0.103(3)
C1 C 0.5958(4) 0.7095(3) 0.2949(3)
C2 C 0.4172(4) 0.7536(3) 0.2173(3)
C3 C 0.4950(4) 0.9348(3) 0.5004(3)
C4 C 1.0168(4) 0.9999(3) 0.4541(3)
Sm1A Sm 0.38320(2) 1.483582(14) 0.169636(15)
Sm1A_2 Sm 0.38320(2) 0.483582(14) 0.169636(15)
Sm1B Sm 0.38320(2) 1.016418(14) 0.669636(15)
Sm1B_2 Sm 1.38320(2) 1.016418(14) 0.669636(15)
O1A O 0.2964(3) 1.2832(2) 0.1565(2)
O2A O 0.3844(3) 1.1045(2) 0.1986(2)
O2_2 O 0.6156(3) 1.6045(2) 0.3014(2)
O3A O 0.6937(3) 1.1799(2) 0.3268(2)
O3_2 O 0.3063(3) 1.6799(2) 0.1732(2)
O4A O 0.6022(3) 1.3576(2) 0.2953(2)
O5B O 0.4828(3) 1.1183(2) 0.5657(2)
O5A O 0.4828(3) 1.3817(2) 0.0657(2)
O6B O 0.5330(4) 1.1081(2) 0.4324(3)
O6C O 0.4670(4) 1.6081(2) 0.0676(3)
O7B O 1.1088(3) 1.0153(2) 0.6428(2)
O7A O 0.1088(3) 1.4847(2) 0.1428(2)
O8B O 0.8415(3) 0.9876(2) 0.5228(2)
O8C O 0.1585(3) 1.4876(2) -0.0228(2)
O9A O 0.3916(4) 1.4755(3) 0.3470(2)
H1A H 0.392(6) 1.533(2) 0.379(3)
H2A H 0.456(5) 1.432(3) 0.397(3)
C1A C 0.4042(4) 1.2095(3) 0.2051(3)
C2A C 0.5828(4) 1.2536(3) 0.2827(3)
C3B C 0.5050(4) 1.0652(3) 0.4996(3)
C4B C 0.9832(4) 1.0001(3) 0.5459(3)
O10 O 1.3864(6) 0.8423(3) 0.9661(4)
H3 H 1.426(7) 0.783(3) 0.962(5)
H4 H 1.306(5) 0.827(5) 0.966(6)
O11 O 0.8362(7) 0.5053(4) 0.5101(4)
H5 H 0.793(9) 0.521(5) 0.443(2)
H6 H 0.876(8) 0.442(3) 0.517(5)
O12 O 1.0543(5) 0.7816(4) 0.9682(4)
H7 H 0.958(3) 0.763(6) 0.942(5)
H8 H 1.106(6) 0.742(5) 1.024(4)
N1 N 0.9284(5) 0.6293(4) 0.6960(3)
H9 H 0.8867 0.5890 0.6334
H10 H 0.8947 0.5962 0.7369
C5 C 1.1056(7) 0.6231(7) 0.7555(5)
H11 H 1.1392 0.5450 0.7687
H12 H 1.1514 0.6621 0.8243
H13 H 1.1433 0.6579 0.7126
C6 C 0.8628(9) 0.7443(6) 0.6685(6)
H14 H 0.7455 0.7414 0.6256
H15 H 0.9012 0.7813 0.6269
H16 H 0.8987 0.7861 0.7349
loop_
_geom_bond_atom_site_label_1
_geom_bond_atom_site_label_2
_geom_bond_site_symmetry_1
_geom_bond_site_symmetry_2
Sm1 O1 1_555 1_555
O1 C1 1_555 1_555
O2 C1 1_555 1_555
O3 C2 1_555 1_555
O4 Sm1 1_555 1_555
O5 Sm1 1_555 1_555
O6 C3 1_555 1_555
O7 Sm1 1_555 1_555
O8 C4 1_555 1_555
O9 Sm1 1_555 1_555
H1 O9 1_555 1_555
H2 O9 1_555 1_555
C1 C2 1_555 1_555
C2 O4 1_555 1_555
C3 O5 1_555 1_555
C4 O7 1_555 1_555
O10 H3 1_555 1_555
H4 O10 1_555 1_555
O11 H5 1_555 1_555
H6 O11 1_555 1_555
O12 H7 1_555 1_555
H8 O12 1_555 1_555
N1 H9 1_555 1_555
H10 N1 1_555 1_555
C5 N1 1_555 1_555
H11 C5 1_555 1_555
H12 C5 1_555 1_555
H13 C5 1_555 1_555
C6 N1 1_555 1_555
H14 C6 1_555 1_555
H15 C6 1_555 1_555
H16 C6 1_555 1_555
Sm1A O1A 1_555 1_555
Sm1A_2 O2 1_555 1_555
Sm1B O6 1_555 1_555
Sm1B_2 O8 1_555 1_555
O1A C1A 1_555 1_555
O2A Sm1 1_555 1_555
O2_2 Sm1A 1_555 1_555
O3A Sm1 1_555 1_555
O3_2 Sm1A 1_555 1_555
O4A Sm1A 1_555 1_555
O5B Sm1B 1_555 1_555
O5A Sm1A 1_555 1_555
O6B Sm1 1_555 1_555
O6C Sm1A 1_555 1_555
O7B Sm1B_2 1_555 1_555
O7A Sm1A 1_555 1_555
O8B Sm1 1_555 1_555
O8C Sm1A 1_555 1_555
O9A Sm1A 1_555 1_555
H1A O9A 1_555 1_555
H2A O9A 1_555 1_555
C1A O2A 1_555 1_555
C2A O3A 1_555 1_555
C3B C3 1_555 1_555
C4B C4 1_555 1_555
O3 Sm1A_2 1_555 1_555
O4A C2A 1_555 1_555
O5B C3B 1_555 1_555
O6B C3B 1_555 1_555
O7B C4B 1_555 1_555
O8B C4B 1_555 1_555
C1A C2A 1_555 1_555

#END
