
#######################################################################
#
#                 Cambridge Crystallographic Data Centre
#                                CCDC 
#
#######################################################################
#
# If this CIF has been generated from an entry in the Cambridge 
# Structural Database, then it will include bibliographic, chemical, 
# crystal, experimental, refinement or atomic coordinate data resulting 
# from the CCDC's data processing and validation procedures.
#
#######################################################################

data_EJULUS
_chemical_formula_moiety         '(C12 H14 Co2 N8 O6)n'
_symmetry_cell_setting           tetragonal
_symmetry_space_group_name_H-M   'I 4/m'
_symmetry_Int_Tables_number      87
_space_group_name_Hall           '-I 4'
loop_
_symmetry_equiv_pos_site_id
_symmetry_equiv_pos_as_xyz
1 x,y,z
2 -x,-y,z
3 -y,x,z
4 y,-x,z
5 1/2+x,1/2+y,1/2+z
6 1/2-x,1/2-y,1/2+z
7 1/2-y,1/2+x,1/2+z
8 1/2+y,1/2-x,1/2+z
9 -x,-y,-z
10 x,y,-z
11 y,-x,-z
12 -y,x,-z
13 1/2-x,1/2-y,1/2-z
14 1/2+x,1/2+y,1/2-z
15 1/2+y,1/2-x,1/2-z
16 1/2-y,1/2+x,1/2-z
_cell_length_a                   12.3214(2)
_cell_length_b                   12.3214(2)
_cell_length_c                   26.0026(10)
_cell_angle_alpha                90
_cell_angle_beta                 90
_cell_angle_gamma                90
_cell_volume                     3947.63
loop_
_atom_site_label
_atom_site_type_symbol
_atom_site_fract_x
_atom_site_fract_y
_atom_site_fract_z
_atom_site_U_iso_or_equiv
_atom_site_thermal_displace_type
Co1 Co 0.19367(8) 0.29859(8) 0.31598(3) 0.0315 Uani
C1 C 0.1766(6) 0.3819(7) 0.4044(3) 0.0420 Uani
C2 C 0.1704(7) 0.4420(6) 0.4540(2) 0.0410 Uani
C3 C 0.1610(10) 0.5559(7) 0.4544(3) 0.0713 Uani
H1 H 0.1578 0.5949 0.4238 0.0850 Uiso
C4 C 0.1724(8) 0.3858(8) 0.5000 0.0313 Uani
H2 H 0.1752 0.3104 0.5000 0.0380 Uiso
C5 C 0.2957(5) 0.0113(5) 0.2537(2) 0.0340 Uani
H3 H 0.3174 -0.0305 0.2258 0.0410 Uiso
C6 C 0.2497(5) 0.0580(5) 0.3279(3) 0.0300 Uani
C7 C 0.1566(16) 0.6069(11) 0.5000 0.0863 Uani
H4 H 0.1502 0.6821 0.5000 0.1040 Uiso
N1 N 0.2460(4) 0.1477(4) 0.29954(19) 0.0267 Uani
N2 N 0.2814(5) -0.0298(4) 0.3010(2) 0.0313 Uani
N3 N 0.2214(6) 0.0549(5) 0.3787(2) 0.0507 Uani
H5 H 0.1998 0.1131 0.3939 0.0610 Uiso
H6 H 0.2252 -0.0051 0.3955 0.0610 Uiso
N4 N 0.2763(4) 0.1158(4) 0.25042(19) 0.0290 Uani
O1 O 0.1689(4) 0.2812(4) 0.4035(2) 0.0430 Uani
O2 O 0.3768(6) 0.3310(7) 0.3395(4) 0.0933 Uani
H7 H 0.4281 0.2759 0.3368 0.1120 Uiso
H8 H 0.3973 0.3991 0.3515 0.1120 Uiso
O3 O 0.1888(5) 0.4365(6) 0.36294(19) 0.0653 Uani
C1I C 0.1766(6) 0.3819(7) 0.5956(3) 0.0420 Uani
C2I C 0.1704(7) 0.4420(6) 0.5460(2) 0.0410 Uani
C3I C 0.1610(10) 0.5559(7) 0.5456(3) 0.0713 Uani
H1I H 0.1578 0.5949 0.5762 0.0850 Uiso
O1I O 0.1689(4) 0.2812(4) 0.5965(2) 0.0430 Uani
O3I O 0.1888(5) 0.4365(6) 0.63706(19) 0.0653 Uani
Co1B Co -0.29859(8) 0.19367(8) 0.31598(3) 0.0315 Uani
C5B C -0.0113(5) 0.2957(5) 0.2537(2) 0.0340 Uani
H3B H 0.0305 0.3174 0.2258 0.0410 Uiso
C6B C -0.0580(5) 0.2497(5) 0.3279(3) 0.0300 Uani
N1B N -0.1477(4) 0.2460(4) 0.29954(19) 0.0267 Uani
N2B N 0.0298(4) 0.2814(5) 0.3010(2) 0.0313 Uani
N3B N -0.0549(5) 0.2214(6) 0.3787(2) 0.0507 Uani
H5B H -0.1131 0.1998 0.3939 0.0610 Uiso
H6B H 0.0051 0.2252 0.3955 0.0610 Uiso
N4B N -0.1158(4) 0.2763(4) 0.25042(19) 0.0290 Uani
O2B O -0.3310(7) 0.3768(6) 0.3395(4) 0.0933 Uani
H7B H -0.2759 0.4281 0.3368 0.1120 Uiso
H8B H -0.3991 0.3973 0.3515 0.1120 Uiso
Co1C Co 0.29859(8) -0.19367(8) 0.31598(3) 0.0315 Uani
Co1I Co 0.19367(8) 0.29859(8) 0.68402(3) 0.0315 Uani
Co1L Co 0.30633(8) 0.20141(8) 0.18402(3) 0.0315 Uani
Co1N Co -0.20141(8) 0.30633(8) 0.18402(3) 0.0315 Uani
N2A N -0.2814(5) 0.0298(4) 0.3010(2) 0.0313 Uani
N4L N 0.2237(4) 0.3842(4) 0.24958(19) 0.0290 Uani
N4N N -0.3842(4) 0.2237(4) 0.24958(19) 0.0290 Uani
O1B O -0.2812(4) 0.1689(4) 0.4035(2) 0.0430 Uani
O3B O -0.4365(6) 0.1888(5) 0.36294(19) 0.0653 Uani
loop_
_atom_site_aniso_label
_atom_site_aniso_U_11
_atom_site_aniso_U_22
_atom_site_aniso_U_33
_atom_site_aniso_U_23
_atom_site_aniso_U_13
_atom_site_aniso_U_12
Co1 0.0398(7) 0.0383(7) 0.0163(6) 0.0047(4) 0.0080(4) 0.0084(4)
C1 0.043(4) 0.067(6) 0.016(4) -0.002(4) 0.003(3) -0.011(4)
C2 0.058(5) 0.045(4) 0.020(4) -0.001(3) -0.002(3) -0.011(4)
C3 0.136(10) 0.044(5) 0.034(5) 0.016(4) -0.005(5) 0.007(5)
C4 0.047(6) 0.030(5) 0.017(4) 0.000 0.000 -0.005(4)
C5 0.046(4) 0.036(4) 0.020(3) -0.002(3) 0.004(3) -0.001(3)
C6 0.036(4) 0.035(4) 0.019(3) 0.000(3) 0.007(3) -0.006(3)
C7 0.172(18) 0.030(7) 0.057(9) 0.000 0.000 0.008(8)
N1 0.032(3) 0.034(3) 0.014(2) 0.000(2) 0.006(2) 0.001(2)
N2 0.050(4) 0.028(3) 0.016(3) -0.001(2) 0.005(3) -0.005(3)
N3 0.094(5) 0.038(3) 0.020(3) 0.001(3) 0.019(3) 0.009(3)
N4 0.037(3) 0.034(3) 0.016(3) -0.002(2) 0.003(2) -0.002(2)
O1 0.052(3) 0.053(3) 0.024(3) -0.015(2) -0.007(2) 0.011(3)
O2 0.082(5) 0.095(6) 0.103(7) -0.004(5) -0.007(5) -0.004(4)
O3 0.086(5) 0.094(5) 0.016(3) 0.004(3) 0.001(3) -0.038(4)
C1I 0.043 0.067 0.016 0.002 -0.003 -0.011
C2I 0.058 0.045 0.02 0.001 0.002 -0.011
C3I 0.136 0.044 0.034 -0.016 0.005 0.007
O1I 0.052 0.053 0.024 0.015 0.007 0.011
O3I 0.086 0.094 0.016 -0.004 -0.001 -0.038
Co1B 0.0383 0.0398 0.0163 0.008 -0.0047 -0.0084
C5B 0.036 0.046 0.02 0.004 0.002 0.001
C6B 0.035 0.036 0.019 0.007 0 0.006
N1B 0.034 0.032 0.014 0.006 0 -0.001
N2B 0.028 0.05 0.016 0.005 0.001 0.005
N3B 0.038 0.094 0.02 0.019 -0.001 -0.009
N4B 0.034 0.037 0.016 0.003 0.002 0.002
O2B 0.095 0.082 0.103 -0.007 0.004 0.004
Co1C 0.0383 0.0398 0.0163 -0.008 0.0047 -0.0084
Co1I 0.0398 0.0383 0.0163 -0.0047 -0.008 0.0084
Co1L 0.0398 0.0383 0.0163 0.0047 0.008 0.0084
Co1N 0.0383 0.0398 0.0163 0.008 -0.0047 -0.0084
N2A 0.05 0.028 0.016 0.001 -0.005 -0.005
N4L 0.037 0.034 0.016 -0.002 0.003 -0.002
N4N 0.034 0.037 0.016 0.003 0.002 0.002
O1B 0.053 0.052 0.024 -0.007 0.015 -0.011
O3B 0.094 0.086 0.016 0.001 -0.004 0.038
loop_
_geom_bond_atom_site_label_1
_geom_bond_atom_site_label_2
_geom_bond_site_symmetry_1
_geom_bond_site_symmetry_2
Co1 N1 1_555 1_555
C1 C2 1_555 1_555
C2 C3 1_555 1_555
C3 H1 1_555 1_555
C4 C2 1_555 1_555
H2 C4 1_555 1_555
C5 H3 1_555 1_555
C6 N1 1_555 1_555
C7 C3 1_555 1_555
H4 C7 1_555 1_555
N1 N4 1_555 1_555
N2 C5 1_555 1_555
N3 C6 1_555 1_555
H5 N3 1_555 1_555
H6 N3 1_555 1_555
N4 C5 1_555 1_555
O1 Co1 1_555 1_555
O2 Co1 1_555 1_555
H7 O2 1_555 1_555
H8 O2 1_555 1_555
O3 Co1 1_555 1_555
C1I C2I 1_555 1_555
C2I C4 1_555 1_555
C3I C7 1_555 1_555
H1I C3I 1_555 1_555
O1I C1I 1_555 1_555
O3I C1I 1_555 1_555
Co1B N1B 1_555 1_555
C5B H3B 1_555 1_555
C6B N1B 1_555 1_555
N1B N4B 1_555 1_555
N2B Co1 1_555 1_555
N3B C6B 1_555 1_555
H5B N3B 1_555 1_555
H6B N3B 1_555 1_555
N4B C5B 1_555 1_555
O2B Co1B 1_555 1_555
H7B O2B 1_555 1_555
H8B O2B 1_555 1_555
Co1C N2 1_555 1_555
Co1I O1I 1_555 1_555
Co1L N4 1_555 1_555
Co1N N4B 1_555 1_555
N2A Co1B 1_555 1_555
N4L Co1 1_555 1_555
N4N Co1B 1_555 1_555
O1B Co1B 1_555 1_555
O3B Co1B 1_555 1_555
C1 O1 1_555 1_555
C1 O3 1_555 1_555
C6 N2 1_555 1_555
C2I C3I 1_555 1_555
O3I Co1I 1_555 1_555
C5B N2B 1_555 1_555
C6B N2B 1_555 1_555

#END
