
#######################################################################
#
#                 Cambridge Crystallographic Data Centre
#                                CCDC 
#
#######################################################################
#
# If this CIF has been generated from an entry in the Cambridge 
# Structural Database, then it will include bibliographic, chemical, 
# crystal, experimental, refinement or atomic coordinate data resulting 
# from the CCDC's data processing and validation procedures.
#
#######################################################################

data_MAPFER
_chemical_formula_moiety         '(C156 H186 N12 O24 Zn3)n'
_symmetry_cell_setting           tetragonal
_symmetry_space_group_name_H-M   'I 4'
_symmetry_Int_Tables_number      79
_space_group_name_Hall           'I 4'
loop_
_symmetry_equiv_pos_site_id
_symmetry_equiv_pos_as_xyz
1 x,y,z
2 -x,-y,z
3 -y,x,z
4 y,-x,z
5 1/2+x,1/2+y,1/2+z
6 1/2-x,1/2-y,1/2+z
7 1/2-y,1/2+x,1/2+z
8 1/2+y,1/2-x,1/2+z
_cell_length_a                   32.490(5)
_cell_length_b                   32.490(5)
_cell_length_c                   25.780(5)
_cell_angle_alpha                90
_cell_angle_beta                 90
_cell_angle_gamma                90
_cell_volume                     27213.4
loop_
_atom_site_label
_atom_site_type_symbol
_atom_site_fract_x
_atom_site_fract_y
_atom_site_fract_z
_atom_site_U_iso_or_equiv
_atom_site_thermal_displace_type
Zn1 Zn 0.26466(2) 0.49999(2) 0.38379(5) 0.0725 Uani
Zn2 Zn -0.0000 0.5000 0.13392(6) 0.0668 Uani
O1 O 0.23258(16) 0.50746(18) 0.3226(2) 0.0830 Uani
O2 O 0.1919(2) 0.5503(2) 0.3630(3) 0.1517 Uani
O3 O 0.04650(19) 0.49870(18) 0.1799(2) 0.0827 Uani
O4 O 0.08884(17) 0.52280(18) 0.1210(2) 0.0933 Uani
O5 O 0.23208(16) 0.49106(18) 0.4471(2) 0.0827 Uani
O6 O 0.1914(2) 0.4489(3) 0.4089(3) 0.1437 Uani
O7 O 0.08968(18) 0.4767(2) 0.6526(2) 0.0990 Uani
O8 O 0.04771(19) 0.50072(18) 0.5904(2) 0.0800 Uani
O9 O 0.34435(19) 0.5174(2) 0.4472(2) 0.1053 Uani
O10 O 0.30001(13) 0.54972(16) 0.3910(3) 0.0950 Uani
O11 O 0.45061(17) 0.70123(15) 0.3822(3) 0.0983 Uani
O12 O 0.48084(18) 0.65637(18) 0.3255(2) 0.0937 Uani
C1 C 0.1998(3) 0.5277(3) 0.3249(3) 0.0833 Uani
C2 C 0.1666(2) 0.5248(2) 0.2839(3) 0.0603 Uani
C3 C 0.1275(2) 0.5472(3) 0.2985(3) 0.0820 Uani
H1 H 0.1326 0.5766 0.3004 0.0980 Uiso
H2 H 0.1178 0.5379 0.3321 0.0980 Uiso
C4 C 0.0941(2) 0.5377(2) 0.2553(3) 0.0730 Uani
H3 H 0.0753 0.5170 0.2697 0.0880 Uiso
C5 C 0.1141(2) 0.5186(2) 0.2074(3) 0.0667 Uani
C6 C 0.1506(2) 0.5455(3) 0.1917(3) 0.0840 Uani
H4 H 0.1412 0.5733 0.1849 0.1010 Uiso
H5 H 0.1628 0.5348 0.1602 0.1010 Uiso
C7 C 0.1830(3) 0.5461(3) 0.2354(3) 0.1000 Uani
H6 H 0.2078 0.5322 0.2238 0.1200 Uiso
H7 H 0.1901 0.5744 0.2436 0.1200 Uiso
C8 C 0.1588(2) 0.4802(3) 0.2710(3) 0.0820 Uani
H8 H 0.1459 0.4686 0.3021 0.0980 Uiso
C9 C 0.1267(2) 0.4744(2) 0.2273(3) 0.0773 Uani
H9 H 0.1027 0.4600 0.2405 0.0930 Uiso
H10 H 0.1384 0.4584 0.1992 0.0930 Uiso
C10 C 0.0800(2) 0.5131(2) 0.1655(3) 0.0660 Uani
C11 C 0.1997(2) 0.4713(3) 0.4461(3) 0.0817 Uani
C12 C 0.1665(2) 0.4765(2) 0.4872(3) 0.0723 Uani
C13 C 0.1275(2) 0.4531(3) 0.4742(3) 0.0860 Uani
H11 H 0.1331 0.4238 0.4741 0.1030 Uiso
H12 H 0.1180 0.4609 0.4400 0.1030 Uiso
C14 C 0.0937(2) 0.4631(2) 0.5153(3) 0.0697 Uani
H13 H 0.0746 0.4834 0.5007 0.0840 Uiso
C15 C 0.1142(2) 0.4815(2) 0.5635(3) 0.0590 Uani
C16 C 0.1270(2) 0.5249(2) 0.5461(3) 0.0800 Uani
H14 H 0.1029 0.5403 0.5354 0.0960 Uiso
H15 H 0.1399 0.5393 0.5747 0.0960 Uiso
C17 C 0.1571(2) 0.5213(2) 0.5010(3) 0.0773 Uani
H16 H 0.1433 0.5333 0.4707 0.0930 Uiso
C18 C 0.1503(2) 0.4558(3) 0.5800(3) 0.0853 Uani
H17 H 0.1411 0.4281 0.5878 0.1020 Uiso
H18 H 0.1623 0.4674 0.6112 0.1020 Uiso
C19 C 0.1835(3) 0.4544(3) 0.5359(4) 0.1080 Uani
H19 H 0.2085 0.4678 0.5475 0.1300 Uiso
H20 H 0.1900 0.4260 0.5276 0.1300 Uiso
C20 C 0.0823(3) 0.4856(3) 0.6081(4) 0.0940 Uani
C21 C 0.3346(3) 0.5456(3) 0.4156(4) 0.1117 Uani
C22 C 0.3678(2) 0.5781(2) 0.3973(3) 0.0737 Uani
C23 C 0.3577(3) 0.5993(3) 0.3465(4) 0.1067 Uani
H21 H 0.3320 0.6145 0.3518 0.1280 Uiso
C24 C 0.3905(2) 0.6308(3) 0.3322(4) 0.0867 Uani
H22 H 0.4043 0.6225 0.3005 0.1040 Uiso
H23 H 0.3779 0.6575 0.3265 0.1040 Uiso
C25 C 0.4214(2) 0.6336(2) 0.3759(3) 0.0737 Uani
C26 C 0.4418(2) 0.5908(2) 0.3839(5) 0.1017 Uani
H24 H 0.4582 0.5840 0.3536 0.1220 Uiso
H25 H 0.4602 0.5920 0.4135 0.1220 Uiso
C27 C 0.4100(2) 0.5574(2) 0.3926(4) 0.0927 Uani
H26 H 0.4162 0.5423 0.4241 0.1110 Uiso
H27 H 0.4100 0.5383 0.3637 0.1110 Uiso
C28 C 0.3687(3) 0.6114(3) 0.4395(3) 0.0910 Uani
H28 H 0.3763 0.5991 0.4724 0.1090 Uiso
H29 H 0.3415 0.6234 0.4432 0.1090 Uiso
C29 C 0.4000(3) 0.6456(3) 0.4254(3) 0.0870 Uani
H30 H 0.3849 0.6712 0.4194 0.1040 Uiso
C30 C 0.4536(3) 0.6671(3) 0.3594(3) 0.0907 Uani
N1 N 0.0696(2) 0.57533(19) 0.2457(2) 0.0893 Uani
H31 H 0.0732 0.5899 0.2182 0.1080 Uiso
N2 N 0.1956(2) 0.4541(2) 0.2615(3) 0.1027 Uani
H32 H 0.2152 0.4623 0.2416 0.1230 Uiso
N3 N 0.4288(3) 0.6521(4) 0.4672(5) 0.2017 Uani
H33 H 0.4497 0.6361 0.4708 0.2420 Uiso
N4 N 0.3497(2) 0.5680(2) 0.3042(3) 0.1087 Uani
H34 H 0.3648 0.5464 0.3007 0.1300 Uiso
N5 N 0.0703(2) 0.4236(2) 0.5268(3) 0.0887 Uani
H35 H 0.0747 0.4089 0.5539 0.1070 Uiso
N6 N 0.1951(2) 0.5449(2) 0.5088(3) 0.0970 Uani
H36 H 0.2154 0.5355 0.5268 0.1160 Uiso
C31 C 0.1973(3) 0.4138(3) 0.2875(4) 0.1137 Uani
H37 H 0.1940 0.4186 0.3248 0.1370 Uiso
C32 C 0.2411(3) 0.3949(3) 0.2789(5) 0.1463 Uani
H38 H 0.2427 0.3685 0.2957 0.2190 Uiso
H39 H 0.2460 0.3916 0.2424 0.2190 Uiso
H40 H 0.2616 0.4129 0.2934 0.2190 Uiso
C33 C 0.1610(2) 0.3887(2) 0.2696(3) 0.1273 Uani
C34 C 0.1591(2) 0.3715(2) 0.2203(3) 0.1410 Uani
H41 H 0.1803 0.3760 0.1968 0.1690 Uiso
C35 C 0.1253(3) 0.3478(2) 0.2060(2) 0.1517 Uani
H42 H 0.1240 0.3363 0.1730 0.1820 Uiso
C36 C 0.0935(2) 0.3411(2) 0.2411(3) 0.1550 Uani
H43 H 0.0710 0.3253 0.2316 0.1860 Uiso
C37 C 0.0955(2) 0.3583(2) 0.2905(3) 0.1460 Uani
H44 H 0.0742 0.3538 0.3140 0.1750 Uiso
C38 C 0.1292(3) 0.3820(2) 0.3047(2) 0.1333 Uani
H45 H 0.1306 0.3935 0.3378 0.1600 Uiso
C39 C 0.1964(3) 0.5885(3) 0.4823(4) 0.1110 Uani
H46 H 0.1934 0.5847 0.4448 0.1330 Uiso
C40 C 0.2400(3) 0.6020(4) 0.4931(5) 0.1520 Uani
H47 H 0.2588 0.5823 0.4785 0.2280 Uiso
H48 H 0.2447 0.6285 0.4777 0.2280 Uiso
H49 H 0.2442 0.6037 0.5299 0.2280 Uiso
C41 C 0.1623(2) 0.6130(2) 0.5004(3) 0.1223 Uani
C42 C 0.1601(2) 0.6282(2) 0.5507(3) 0.1387 Uani
H50 H 0.1818 0.6240 0.5736 0.1660 Uiso
C43 C 0.1254(3) 0.6498(3) 0.5668(3) 0.1480 Uani
H51 H 0.1239 0.6600 0.6004 0.1780 Uiso
C44 C 0.0929(2) 0.6561(2) 0.5325(4) 0.1543 Uani
H52 H 0.0697 0.6705 0.5433 0.1850 Uiso
C45 C 0.0951(2) 0.6408(2) 0.4823(3) 0.1493 Uani
H53 H 0.0734 0.6450 0.4594 0.1790 Uiso
C46 C 0.1298(3) 0.6193(2) 0.4662(2) 0.1317 Uani
H54 H 0.1313 0.6090 0.4325 0.1580 Uiso
C47 C 0.4223(5) 0.6872(6) 0.5043(7) 0.2230 Uani
H55 H 0.4204 0.7127 0.4840 0.2680 Uiso
C48 C 0.4568(5) 0.6919(5) 0.5419(6) 0.2430 Uani
H56 H 0.4821 0.6959 0.5233 0.3640 Uiso
H57 H 0.4518 0.7152 0.5638 0.3640 Uiso
H58 H 0.4589 0.6675 0.5627 0.3640 Uiso
C49 C 0.3834(3) 0.6810(5) 0.5303(5) 0.2483 Uani
C50 C 0.3708(4) 0.6521(4) 0.5667(6) 0.2653 Uani
H59 H 0.3893 0.6323 0.5786 0.3180 Uiso
C51 C 0.3307(5) 0.6527(4) 0.5853(5) 0.2727 Uani
H60 H 0.3223 0.6333 0.6096 0.3270 Uiso
C52 C 0.3032(3) 0.6822(5) 0.5675(6) 0.2720 Uani
H61 H 0.2763 0.6826 0.5800 0.3260 Uiso
C53 C 0.3158(4) 0.7112(4) 0.5311(6) 0.2710 Uani
H62 H 0.2973 0.7309 0.5192 0.3250 Uiso
C54 C 0.3559(5) 0.7106(4) 0.5125(5) 0.2590 Uani
H63 H 0.3643 0.7299 0.4882 0.3110 Uiso
C55 C 0.3141(5) 0.5765(5) 0.2686(6) 0.2203 Uani
H64 H 0.2889 0.5776 0.2894 0.2640 Uiso
C56 C 0.3088(5) 0.5419(5) 0.2257(6) 0.2133 Uani
H65 H 0.2858 0.5485 0.2039 0.3200 Uiso
H66 H 0.3333 0.5403 0.2051 0.3200 Uiso
H67 H 0.3041 0.5158 0.2423 0.3200 Uiso
C57 C 0.3181(5) 0.6185(4) 0.2369(5) 0.2037 Uani
C58 C 0.3480(4) 0.6333(5) 0.2033(5) 0.2153 Uani
H68 H 0.3679 0.6156 0.1901 0.2590 Uiso
C59 C 0.3483(4) 0.6747(5) 0.1894(4) 0.2640 Uani
H69 H 0.3684 0.6846 0.1669 0.3170 Uiso
C60 C 0.3186(6) 0.7012(3) 0.2092(6) 0.2597 Uani
H70 H 0.3188 0.7288 0.1999 0.3110 Uiso
C61 C 0.2887(4) 0.6864(6) 0.2428(6) 0.4257 Uani
H71 H 0.2688 0.7041 0.2560 0.5110 Uiso
C62 C 0.2884(4) 0.6450(6) 0.2567(5) 0.3460 Uani
H72 H 0.2683 0.6351 0.2792 0.4150 Uiso
C63 C 0.0388(3) 0.4129(3) 0.4867(4) 0.1057 Uani
H73 H 0.0494 0.4233 0.4536 0.1270 Uiso
C64 C -0.0019(3) 0.4355(3) 0.4966(4) 0.1160 Uani
H74 H -0.0215 0.4281 0.4704 0.1740 Uiso
H75 H -0.0124 0.4280 0.5301 0.1740 Uiso
H76 H 0.0027 0.4647 0.4956 0.1740 Uiso
C65 C 0.0355(2) 0.36610(18) 0.4811(3) 0.1280 Uani
C66 C 0.0451(3) 0.3474(3) 0.4341(3) 0.1640 Uani
H77 H 0.0557 0.3630 0.4069 0.1970 Uiso
C67 C 0.0389(3) 0.3054(3) 0.4277(3) 0.1863 Uani
H78 H 0.0453 0.2929 0.3963 0.2230 Uiso
C68 C 0.0231(3) 0.28205(19) 0.4683(4) 0.1810 Uani
H79 H 0.0189 0.2539 0.4640 0.2170 Uiso
C69 C 0.0135(3) 0.3008(2) 0.5152(3) 0.1737 Uani
H80 H 0.0029 0.2851 0.5424 0.2080 Uiso
C70 C 0.0197(3) 0.3428(3) 0.5216(3) 0.1480 Uani
H81 H 0.0133 0.3553 0.5530 0.1780 Uiso
C71 C 0.0388(3) 0.5869(3) 0.2850(4) 0.1100 Uani
H82 H 0.0475 0.5753 0.3183 0.1320 Uiso
C72 C -0.0023(3) 0.5663(3) 0.2693(5) 0.1343 Uani
H83 H -0.0232 0.5733 0.2941 0.2010 Uiso
H84 H -0.0104 0.5759 0.2356 0.2010 Uiso
H85 H 0.0012 0.5370 0.2683 0.2010 Uiso
C73 C 0.0341(3) 0.63174(17) 0.2917(3) 0.1373 Uani
C74 C 0.0447(3) 0.6491(2) 0.3391(3) 0.1773 Uani
H86 H 0.0561 0.6328 0.3650 0.2130 Uiso
C75 C 0.0384(3) 0.6908(2) 0.3477(3) 0.1863 Uani
H87 H 0.0455 0.7025 0.3795 0.2240 Uiso
C76 C 0.0214(3) 0.71524(17) 0.3090(4) 0.1823 Uani
H88 H 0.0172 0.7432 0.3147 0.2190 Uiso
C77 C 0.0108(3) 0.6979(2) 0.2615(3) 0.1727 Uani
H89 H -0.0006 0.7142 0.2356 0.2070 Uiso
C78 C 0.0171(3) 0.6561(2) 0.2529(3) 0.1523 Uani
H90 H 0.0100 0.6445 0.2212 0.1830 Uiso
Zn1A Zn -0.26466(2) 0.50001(2) 0.38379(5) 0.0725 Uani
O1A O -0.23258(16) 0.49254(18) 0.3226(2) 0.0830 Uani
O2A O -0.1919(2) 0.4497(2) 0.3630(3) 0.1517 Uani
O3A O -0.04650(19) 0.50130(18) 0.1799(2) 0.0827 Uani
O4A O -0.08884(17) 0.47720(18) 0.1210(2) 0.0933 Uani
O5A O -0.23208(16) 0.50894(18) 0.4471(2) 0.0827 Uani
O6A O -0.1914(2) 0.5511(3) 0.4089(3) 0.1437 Uani
O7A O -0.08968(18) 0.5233(2) 0.6526(2) 0.0990 Uani
O8A O -0.04771(19) 0.49928(18) 0.5904(2) 0.0800 Uani
O9A O -0.34435(19) 0.4826(2) 0.4472(2) 0.1053 Uani
O10A O -0.30001(13) 0.45028(16) 0.3910(3) 0.0950 Uani
O11A O -0.45061(17) 0.29877(15) 0.3822(3) 0.0983 Uani
O12A O -0.48084(18) 0.34363(18) 0.3255(2) 0.0937 Uani
C1A C -0.1998(3) 0.4723(3) 0.3249(3) 0.0833 Uani
C2A C -0.1666(2) 0.4752(2) 0.2839(3) 0.0603 Uani
C3A C -0.1275(2) 0.4528(3) 0.2985(3) 0.0820 Uani
H1A H -0.1326 0.4234 0.3004 0.0980 Uiso
H2A H -0.1178 0.4621 0.3321 0.0980 Uiso
C4A C -0.0941(2) 0.4623(2) 0.2553(3) 0.0730 Uani
H3A H -0.0753 0.4830 0.2697 0.0880 Uiso
C5A C -0.1141(2) 0.4814(2) 0.2074(3) 0.0667 Uani
C6A C -0.1506(2) 0.4545(3) 0.1917(3) 0.0840 Uani
H4A H -0.1412 0.4267 0.1849 0.1010 Uiso
H5A H -0.1628 0.4652 0.1602 0.1010 Uiso
C7A C -0.1830(3) 0.4539(3) 0.2354(3) 0.1000 Uani
H6A H -0.2078 0.4678 0.2238 0.1200 Uiso
H7A H -0.1901 0.4256 0.2436 0.1200 Uiso
C8A C -0.1588(2) 0.5198(3) 0.2710(3) 0.0820 Uani
H8A H -0.1459 0.5314 0.3021 0.0980 Uiso
C9A C -0.1267(2) 0.5256(2) 0.2273(3) 0.0773 Uani
H9A H -0.1027 0.5400 0.2405 0.0930 Uiso
H10A H -0.1384 0.5416 0.1992 0.0930 Uiso
C10A C -0.0800(2) 0.4869(2) 0.1655(3) 0.0660 Uani
C11A C -0.1997(2) 0.5287(3) 0.4461(3) 0.0817 Uani
C12A C -0.1665(2) 0.5235(2) 0.4872(3) 0.0723 Uani
C13A C -0.1275(2) 0.5469(3) 0.4742(3) 0.0860 Uani
H11A H -0.1331 0.5762 0.4741 0.1030 Uiso
H12A H -0.1180 0.5391 0.4400 0.1030 Uiso
C14A C -0.0937(2) 0.5369(2) 0.5153(3) 0.0697 Uani
H13A H -0.0746 0.5166 0.5007 0.0840 Uiso
C15A C -0.1142(2) 0.5185(2) 0.5635(3) 0.0590 Uani
C16A C -0.1270(2) 0.4751(2) 0.5461(3) 0.0800 Uani
H14A H -0.1029 0.4597 0.5354 0.0960 Uiso
H15A H -0.1399 0.4607 0.5747 0.0960 Uiso
C17A C -0.1571(2) 0.4787(2) 0.5010(3) 0.0773 Uani
H16A H -0.1433 0.4667 0.4707 0.0930 Uiso
C18A C -0.1503(2) 0.5442(3) 0.5800(3) 0.0853 Uani
H17A H -0.1411 0.5719 0.5878 0.1020 Uiso
H18A H -0.1623 0.5326 0.6112 0.1020 Uiso
C19A C -0.1835(3) 0.5456(3) 0.5359(4) 0.1080 Uani
H19A H -0.2085 0.5322 0.5475 0.1300 Uiso
H20A H -0.1900 0.5740 0.5276 0.1300 Uiso
C20A C -0.0823(3) 0.5144(3) 0.6081(4) 0.0940 Uani
C21A C -0.3346(3) 0.4544(3) 0.4156(4) 0.1117 Uani
C22A C -0.3678(2) 0.4219(2) 0.3973(3) 0.0737 Uani
C23A C -0.3577(3) 0.4007(3) 0.3465(4) 0.1067 Uani
H21A H -0.3320 0.3855 0.3518 0.1280 Uiso
C24A C -0.3905(2) 0.3692(3) 0.3322(4) 0.0867 Uani
H22A H -0.4043 0.3775 0.3005 0.1040 Uiso
H23A H -0.3779 0.3425 0.3265 0.1040 Uiso
C25A C -0.4214(2) 0.3664(2) 0.3759(3) 0.0737 Uani
C26A C -0.4418(2) 0.4092(2) 0.3839(5) 0.1017 Uani
H24A H -0.4582 0.4160 0.3536 0.1220 Uiso
H25A H -0.4602 0.4080 0.4135 0.1220 Uiso
C27A C -0.4100(2) 0.4426(2) 0.3926(4) 0.0927 Uani
H26A H -0.4162 0.4577 0.4241 0.1110 Uiso
H27A H -0.4100 0.4617 0.3637 0.1110 Uiso
C28A C -0.3687(3) 0.3886(3) 0.4395(3) 0.0910 Uani
H28A H -0.3763 0.4009 0.4724 0.1090 Uiso
H29A H -0.3415 0.3766 0.4432 0.1090 Uiso
C29A C -0.4000(3) 0.3544(3) 0.4254(3) 0.0870 Uani
H30A H -0.3849 0.3288 0.4194 0.1040 Uiso
C30A C -0.4536(3) 0.3329(3) 0.3594(3) 0.0907 Uani
N1A N -0.0696(2) 0.42467(19) 0.2457(2) 0.0893 Uani
H31A H -0.0732 0.4101 0.2182 0.1080 Uiso
N2A N -0.1956(2) 0.5459(2) 0.2615(3) 0.1027 Uani
H32A H -0.2152 0.5377 0.2416 0.1230 Uiso
N3A N -0.4288(3) 0.3479(4) 0.4672(5) 0.2017 Uani
H33A H -0.4497 0.3639 0.4708 0.2420 Uiso
N4A N -0.3497(2) 0.4320(2) 0.3042(3) 0.1087 Uani
H34A H -0.3648 0.4536 0.3007 0.1300 Uiso
N5A N -0.0703(2) 0.5764(2) 0.5268(3) 0.0887 Uani
H35A H -0.0747 0.5911 0.5539 0.1070 Uiso
N6A N -0.1951(2) 0.4551(2) 0.5088(3) 0.0970 Uani
H36A H -0.2154 0.4645 0.5268 0.1160 Uiso
C31A C -0.1973(3) 0.5862(3) 0.2875(4) 0.1137 Uani
H37A H -0.1940 0.5814 0.3248 0.1370 Uiso
C32A C -0.2411(3) 0.6051(3) 0.2789(5) 0.1463 Uani
H38A H -0.2427 0.6315 0.2957 0.2190 Uiso
H39A H -0.2460 0.6084 0.2424 0.2190 Uiso
H40A H -0.2616 0.5871 0.2934 0.2190 Uiso
C33A C -0.1610(2) 0.6113(2) 0.2696(3) 0.1273 Uani
C34A C -0.1591(2) 0.6285(2) 0.2203(3) 0.1410 Uani
H41A H -0.1803 0.6240 0.1968 0.1690 Uiso
C35A C -0.1253(3) 0.6522(2) 0.2060(2) 0.1517 Uani
H42A H -0.1240 0.6637 0.1730 0.1820 Uiso
C36A C -0.0935(2) 0.6589(2) 0.2411(3) 0.1550 Uani
H43A H -0.0710 0.6747 0.2316 0.1860 Uiso
C37A C -0.0955(2) 0.6417(2) 0.2905(3) 0.1460 Uani
H44A H -0.0742 0.6462 0.3140 0.1750 Uiso
C38A C -0.1292(3) 0.6180(2) 0.3047(2) 0.1333 Uani
H45A H -0.1306 0.6065 0.3378 0.1600 Uiso
C39A C -0.1964(3) 0.4115(3) 0.4823(4) 0.1110 Uani
H46A H -0.1934 0.4153 0.4448 0.1330 Uiso
C40A C -0.2400(3) 0.3980(4) 0.4931(5) 0.1520 Uani
H47A H -0.2588 0.4177 0.4785 0.2280 Uiso
H48A H -0.2447 0.3715 0.4777 0.2280 Uiso
H49A H -0.2442 0.3963 0.5299 0.2280 Uiso
C41A C -0.1623(2) 0.3870(2) 0.5004(3) 0.1223 Uani
C42A C -0.1601(2) 0.3718(2) 0.5507(3) 0.1387 Uani
H50A H -0.1818 0.3760 0.5736 0.1660 Uiso
C43A C -0.1254(3) 0.3502(3) 0.5668(3) 0.1480 Uani
H51A H -0.1239 0.3400 0.6004 0.1780 Uiso
C44A C -0.0929(2) 0.3439(2) 0.5325(4) 0.1543 Uani
H52A H -0.0697 0.3295 0.5433 0.1850 Uiso
C45A C -0.0951(2) 0.3592(2) 0.4823(3) 0.1493 Uani
H53A H -0.0734 0.3550 0.4594 0.1790 Uiso
C46A C -0.1298(3) 0.3807(2) 0.4662(2) 0.1317 Uani
H54A H -0.1313 0.3910 0.4325 0.1580 Uiso
C47A C -0.4223(5) 0.3128(6) 0.5043(7) 0.2230 Uani
H55A H -0.4204 0.2873 0.4840 0.2680 Uiso
C48A C -0.4568(5) 0.3081(5) 0.5419(6) 0.2430 Uani
H56A H -0.4821 0.3041 0.5233 0.3640 Uiso
H57A H -0.4518 0.2848 0.5638 0.3640 Uiso
H58A H -0.4589 0.3325 0.5627 0.3640 Uiso
C49A C -0.3834(3) 0.3190(5) 0.5303(5) 0.2483 Uani
C50A C -0.3708(4) 0.3479(4) 0.5667(6) 0.2653 Uani
H59A H -0.3893 0.3677 0.5786 0.3180 Uiso
C51A C -0.3307(5) 0.3473(4) 0.5853(5) 0.2727 Uani
H60A H -0.3223 0.3667 0.6096 0.3270 Uiso
C52A C -0.3032(3) 0.3178(5) 0.5675(6) 0.2720 Uani
H61A H -0.2763 0.3174 0.5800 0.3260 Uiso
C53A C -0.3158(4) 0.2888(4) 0.5311(6) 0.2710 Uani
H62A H -0.2973 0.2691 0.5192 0.3250 Uiso
C54A C -0.3559(5) 0.2894(4) 0.5125(5) 0.2590 Uani
H63A H -0.3643 0.2701 0.4882 0.3110 Uiso
C55A C -0.3141(5) 0.4235(5) 0.2686(6) 0.2203 Uani
H64A H -0.2889 0.4224 0.2894 0.2640 Uiso
C56A C -0.3088(5) 0.4581(5) 0.2257(6) 0.2133 Uani
H65A H -0.2858 0.4515 0.2039 0.3200 Uiso
H66A H -0.3333 0.4597 0.2051 0.3200 Uiso
H67A H -0.3041 0.4842 0.2423 0.3200 Uiso
C57A C -0.3181(5) 0.3815(4) 0.2369(5) 0.2037 Uani
C58A C -0.3480(4) 0.3667(5) 0.2033(5) 0.2153 Uani
H68A H -0.3679 0.3844 0.1901 0.2590 Uiso
C59A C -0.3483(4) 0.3253(5) 0.1894(4) 0.2640 Uani
H69A H -0.3684 0.3154 0.1669 0.3170 Uiso
C60A C -0.3186(6) 0.2988(3) 0.2092(6) 0.2597 Uani
H70A H -0.3188 0.2712 0.1999 0.3110 Uiso
C61A C -0.2887(4) 0.3136(6) 0.2428(6) 0.4257 Uani
H71A H -0.2688 0.2959 0.2560 0.5110 Uiso
C62A C -0.2884(4) 0.3550(6) 0.2567(5) 0.3460 Uani
H72A H -0.2683 0.3649 0.2792 0.4150 Uiso
C63A C -0.0388(3) 0.5871(3) 0.4867(4) 0.1057 Uani
H73A H -0.0494 0.5767 0.4536 0.1270 Uiso
C64A C 0.0019(3) 0.5645(3) 0.4966(4) 0.1160 Uani
H74A H 0.0215 0.5719 0.4704 0.1740 Uiso
H75A H 0.0124 0.5720 0.5301 0.1740 Uiso
H76A H -0.0027 0.5353 0.4956 0.1740 Uiso
C65A C -0.0355(2) 0.63390(18) 0.4811(3) 0.1280 Uani
C66A C -0.0451(3) 0.6526(3) 0.4341(3) 0.1640 Uani
H77A H -0.0557 0.6370 0.4069 0.1970 Uiso
C67A C -0.0389(3) 0.6946(3) 0.4277(3) 0.1863 Uani
H78A H -0.0453 0.7071 0.3963 0.2230 Uiso
C68A C -0.0231(3) 0.71795(19) 0.4683(4) 0.1810 Uani
H79A H -0.0189 0.7461 0.4640 0.2170 Uiso
C69A C -0.0135(3) 0.6992(2) 0.5152(3) 0.1737 Uani
H80A H -0.0029 0.7149 0.5424 0.2080 Uiso
C70A C -0.0197(3) 0.6572(3) 0.5216(3) 0.1480 Uani
H81A H -0.0133 0.6447 0.5530 0.1780 Uiso
C71A C -0.0388(3) 0.4131(3) 0.2850(4) 0.1100 Uani
H82A H -0.0475 0.4247 0.3183 0.1320 Uiso
C72A C 0.0023(3) 0.4337(3) 0.2693(5) 0.1343 Uani
H83A H 0.0232 0.4267 0.2941 0.2010 Uiso
H84A H 0.0104 0.4241 0.2356 0.2010 Uiso
H85A H -0.0012 0.4630 0.2683 0.2010 Uiso
C73A C -0.0341(3) 0.36826(17) 0.2917(3) 0.1373 Uani
C74A C -0.0447(3) 0.3509(2) 0.3391(3) 0.1773 Uani
H86A H -0.0561 0.3672 0.3650 0.2130 Uiso
C75A C -0.0384(3) 0.3092(2) 0.3477(3) 0.1863 Uani
H87A H -0.0455 0.2975 0.3795 0.2240 Uiso
C76A C -0.0214(3) 0.28476(17) 0.3090(4) 0.1823 Uani
H88A H -0.0172 0.2568 0.3147 0.2190 Uiso
C77A C -0.0108(3) 0.3021(2) 0.2615(3) 0.1727 Uani
H89A H 0.0006 0.2858 0.2356 0.2070 Uiso
C78A C -0.0171(3) 0.3439(2) 0.2529(3) 0.1523 Uani
H90A H -0.0100 0.3555 0.2212 0.1830 Uiso
Zn1B Zn -0.49999(2) 0.26466(2) 0.38379(5) 0.0725 Uani
Zn1C Zn 0.49999(2) 0.73534(2) 0.38379(5) 0.0725 Uani
Zn2F Zn -0.0000 0.5000 0.63392(6) 0.0668 Uani
O8F O -0.00072(18) 0.54771(19) 0.0904(2) 0.0800 Uani
O8G O 0.00072(18) 0.45229(19) 0.0904(2) 0.0800 Uani
O11B O 0.29877(15) 0.45061(17) 0.3822(3) 0.0983 Uani
O11C O -0.29877(15) 0.54939(17) 0.3822(3) 0.0983 Uani
loop_
_atom_site_aniso_label
_atom_site_aniso_U_11
_atom_site_aniso_U_22
_atom_site_aniso_U_33
_atom_site_aniso_U_23
_atom_site_aniso_U_13
_atom_site_aniso_U_12
Zn1 0.0462(5) 0.0735(6) 0.0977(6) 0.0041(6) -0.0002(6) 0.0001(4)
Zn2 0.0605(9) 0.0652(9) 0.0748(7) 0.000 0.000 0.0048(8)
O1 0.042(3) 0.102(5) 0.105(4) 0.012(3) -0.005(3) 0.004(3)
O2 0.119(6) 0.160(7) 0.176(8) -0.055(6) -0.068(5) 0.035(5)
O3 0.061(4) 0.077(4) 0.110(4) 0.008(3) -0.018(3) -0.003(3)
O4 0.082(4) 0.124(5) 0.074(4) 0.017(4) -0.008(3) 0.036(3)
O5 0.051(4) 0.105(4) 0.092(4) 0.021(3) 0.011(3) -0.021(3)
O6 0.123(6) 0.149(7) 0.159(7) -0.044(5) 0.065(5) -0.040(5)
O7 0.088(4) 0.151(6) 0.058(3) -0.006(4) -0.005(3) -0.023(4)
O8 0.082(5) 0.088(4) 0.070(4) 0.005(3) 0.015(3) -0.024(4)
O9 0.107(5) 0.090(5) 0.119(5) 0.035(4) -0.014(4) -0.028(4)
O10 0.023(2) 0.113(4) 0.149(5) 0.024(4) -0.013(4) 0.017(2)
O11 0.120(4) 0.041(3) 0.134(4) -0.032(4) 0.037(5) 0.012(3)
O12 0.090(5) 0.096(4) 0.095(4) -0.014(3) 0.016(4) -0.037(3)
C1 0.086(7) 0.086(7) 0.078(6) -0.020(5) -0.018(5) 0.002(5)
C2 0.050(5) 0.044(5) 0.087(5) 0.008(4) -0.019(4) 0.011(3)
C3 0.057(5) 0.095(6) 0.094(6) -0.019(5) -0.021(4) 0.024(4)
C4 0.060(5) 0.077(6) 0.082(5) 0.011(4) -0.015(4) 0.016(4)
C5 0.061(5) 0.050(5) 0.089(6) -0.011(4) 0.009(4) 0.003(4)
C6 0.066(5) 0.097(7) 0.089(6) -0.002(5) -0.009(5) 0.011(5)
C7 0.100(7) 0.087(7) 0.113(8) 0.009(6) 0.003(6) 0.008(5)
C8 0.068(6) 0.103(7) 0.075(6) 0.011(5) -0.024(4) 0.030(5)
C9 0.083(6) 0.065(6) 0.084(6) 0.018(4) -0.006(5) 0.036(4)
C10 0.058(5) 0.072(5) 0.068(5) 0.001(4) -0.021(4) 0.032(4)
C11 0.063(6) 0.098(7) 0.084(6) -0.022(5) 0.040(5) -0.004(5)
C12 0.084(6) 0.076(6) 0.057(5) -0.001(4) -0.001(4) -0.022(5)
C13 0.067(6) 0.098(6) 0.093(6) -0.008(5) 0.027(5) -0.021(5)
C14 0.059(5) 0.073(5) 0.077(5) -0.027(4) 0.022(4) -0.015(4)
C15 0.059(5) 0.057(5) 0.061(5) -0.012(4) 0.006(4) -0.008(4)
C16 0.080(6) 0.069(5) 0.091(6) 0.016(4) 0.051(5) -0.028(4)
C17 0.054(5) 0.075(6) 0.103(6) -0.001(5) 0.003(4) -0.018(4)
C18 0.044(5) 0.106(7) 0.106(6) 0.009(5) 0.001(5) -0.016(4)
C19 0.058(6) 0.106(8) 0.160(10) -0.023(7) 0.021(6) -0.002(5)
C20 0.095(8) 0.075(7) 0.112(9) -0.017(6) 0.000(7) -0.015(5)
C21 0.097(8) 0.071(7) 0.167(10) -0.036(7) 0.059(8) -0.013(6)
C22 0.092(6) 0.055(4) 0.074(6) -0.004(4) -0.008(4) -0.014(4)
C23 0.148(10) 0.064(6) 0.108(7) 0.013(5) -0.008(6) -0.052(6)
C24 0.057(5) 0.078(6) 0.125(8) 0.007(5) -0.007(5) -0.014(4)
C25 0.084(5) 0.050(4) 0.087(6) -0.013(4) 0.013(5) -0.005(4)
C26 0.072(5) 0.075(5) 0.158(7) -0.005(7) 0.027(7) -0.010(4)
C27 0.064(5) 0.075(5) 0.139(8) -0.008(6) 0.028(6) 0.004(4)
C28 0.102(7) 0.076(6) 0.095(7) -0.038(5) 0.020(6) -0.015(5)
C29 0.093(7) 0.102(7) 0.066(5) -0.014(5) 0.002(5) -0.009(5)
C30 0.095(7) 0.092(7) 0.085(6) 0.024(6) -0.017(5) 0.005(6)
N1 0.102(5) 0.081(5) 0.085(4) -0.009(3) 0.001(3) 0.052(4)
N2 0.073(4) 0.089(5) 0.146(6) -0.016(4) -0.029(4) 0.032(4)
N3 0.159(8) 0.221(10) 0.225(10) -0.115(8) 0.026(7) -0.020(7)
N4 0.110(4) 0.113(4) 0.103(4) 0.001(4) -0.009(3) -0.002(4)
N5 0.095(5) 0.085(4) 0.086(4) -0.001(3) 0.003(3) -0.043(4)
N6 0.073(4) 0.070(4) 0.148(6) -0.008(4) 0.017(4) -0.031(3)
C31 0.103(5) 0.084(5) 0.154(6) -0.010(4) -0.038(5) 0.036(4)
C32 0.123(6) 0.112(8) 0.204(10) -0.018(7) -0.050(7) 0.053(6)
C33 0.126(5) 0.109(5) 0.147(6) -0.013(5) -0.025(5) 0.010(4)
C34 0.137(7) 0.134(7) 0.152(6) -0.032(5) -0.003(6) -0.015(5)
C35 0.143(7) 0.156(7) 0.156(7) -0.028(6) -0.006(5) -0.020(6)
C36 0.144(7) 0.154(7) 0.167(7) -0.019(6) -0.005(6) -0.020(6)
C37 0.147(7) 0.132(7) 0.159(7) -0.016(6) -0.005(6) -0.007(5)
C38 0.138(7) 0.110(6) 0.152(6) 0.002(5) -0.019(5) 0.010(5)
C39 0.107(5) 0.081(5) 0.145(6) 0.001(4) 0.020(5) -0.033(4)
C40 0.131(7) 0.131(8) 0.194(10) -0.018(8) 0.031(7) -0.081(6)
C41 0.136(5) 0.086(5) 0.145(6) -0.008(5) 0.011(5) -0.013(4)
C42 0.151(7) 0.109(7) 0.156(6) -0.020(5) 0.009(6) 0.004(5)
C43 0.156(7) 0.129(7) 0.159(7) -0.028(6) 0.002(6) 0.003(6)
C44 0.156(7) 0.138(7) 0.169(7) -0.019(6) 0.006(6) 0.000(6)
C45 0.160(7) 0.129(7) 0.159(7) -0.003(6) 0.005(6) 0.008(6)
C46 0.143(7) 0.102(6) 0.150(6) 0.008(5) 0.014(5) 0.000(5)
C47 0.176(8) 0.249(9) 0.244(10) -0.121(7) 0.033(7) -0.028(8)
C48 0.208(11) 0.248(14) 0.273(15) -0.120(12) -0.004(10) -0.024(12)
C49 0.191(8) 0.289(10) 0.265(10) -0.115(8) 0.064(7) -0.028(8)
C50 0.202(9) 0.313(11) 0.281(11) -0.103(8) 0.076(8) -0.025(9)
C51 0.204(10) 0.321(12) 0.293(11) -0.105(9) 0.085(9) -0.020(9)
C52 0.205(9) 0.314(13) 0.297(12) -0.109(10) 0.081(9) -0.022(9)
C53 0.203(9) 0.311(12) 0.299(12) -0.109(9) 0.082(9) -0.012(9)
C54 0.193(9) 0.299(11) 0.285(11) -0.110(9) 0.075(8) -0.016(8)
C55 0.220(8) 0.221(8) 0.220(8) -0.006(5) -0.005(5) -0.002(5)
C56 0.215(10) 0.207(10) 0.218(10) -0.017(8) 0.007(8) -0.014(8)
C57 0.203(8) 0.205(8) 0.203(7) 0.003(5) -0.008(5) -0.002(5)
C58 0.219(8) 0.213(8) 0.214(8) -0.001(5) -0.001(5) 0.000(5)
C59 0.265(10) 0.262(10) 0.265(10) 0.003(5) -0.001(5) -0.004(5)
C60 0.258(10) 0.260(10) 0.261(10) -0.002(5) -0.006(5) -0.005(5)
C61 0.426(18) 0.426(18) 0.425(18) 0.000(5) 0.001(5) 0.001(5)
C62 0.347(14) 0.345(14) 0.346(14) 0.000(5) -0.001(5) 0.004(5)
C63 0.110(5) 0.107(5) 0.100(5) -0.027(4) 0.001(4) -0.048(4)
C64 0.096(6) 0.130(8) 0.122(7) -0.017(6) -0.018(6) -0.036(5)
C65 0.144(6) 0.107(5) 0.133(6) -0.042(4) 0.009(5) -0.050(4)
C66 0.196(8) 0.137(6) 0.159(6) -0.059(5) 0.027(6) -0.052(6)
C67 0.225(9) 0.145(7) 0.189(7) -0.067(6) 0.038(7) -0.044(7)
C68 0.207(8) 0.137(7) 0.199(8) -0.049(6) 0.037(7) -0.044(7)
C69 0.192(8) 0.127(6) 0.202(7) -0.034(6) 0.042(7) -0.050(7)
C70 0.164(7) 0.114(6) 0.166(6) -0.027(5) 0.023(6) -0.049(6)
C71 0.113(5) 0.096(5) 0.121(5) -0.027(4) -0.006(4) 0.047(4)
C72 0.086(6) 0.141(8) 0.176(10) -0.029(7) -0.008(6) 0.042(5)
C73 0.160(6) 0.107(5) 0.145(6) -0.045(4) -0.031(5) 0.070(4)
C74 0.239(8) 0.133(6) 0.160(7) -0.057(5) -0.037(7) 0.066(6)
C75 0.261(9) 0.126(7) 0.172(7) -0.064(6) -0.046(7) 0.069(7)
C76 0.236(9) 0.126(7) 0.185(8) -0.048(6) -0.042(7) 0.079(7)
C77 0.215(8) 0.114(6) 0.189(7) -0.036(6) -0.039(7) 0.078(6)
C78 0.181(7) 0.104(6) 0.172(6) -0.026(5) -0.041(6) 0.081(6)
Zn1A 0.0462 0.0735 0.0977 -0.0041 0.0002 0.0001
O1A 0.042 0.102 0.105 -0.012 0.005 0.004
O2A 0.119 0.16 0.176 0.055 0.068 0.035
O3A 0.061 0.077 0.11 -0.008 0.018 -0.003
O4A 0.082 0.124 0.074 -0.017 0.008 0.036
O5A 0.051 0.105 0.092 -0.021 -0.011 -0.021
O6A 0.123 0.149 0.159 0.044 -0.065 -0.04
O7A 0.088 0.151 0.058 0.006 0.005 -0.023
O8A 0.082 0.088 0.07 -0.005 -0.015 -0.024
O9A 0.107 0.09 0.119 -0.035 0.014 -0.028
O10A 0.023 0.113 0.149 -0.024 0.013 0.017
O11A 0.12 0.041 0.134 0.032 -0.037 0.012
O12A 0.09 0.096 0.095 0.014 -0.016 -0.037
C1A 0.086 0.086 0.078 0.02 0.018 0.002
C2A 0.05 0.044 0.087 -0.008 0.019 0.011
C3A 0.057 0.095 0.094 0.019 0.021 0.024
C4A 0.06 0.077 0.082 -0.011 0.015 0.016
C5A 0.061 0.05 0.089 0.011 -0.009 0.003
C6A 0.066 0.097 0.089 0.002 0.009 0.011
C7A 0.1 0.087 0.113 -0.009 -0.003 0.008
C8A 0.068 0.103 0.075 -0.011 0.024 0.03
C9A 0.083 0.065 0.084 -0.018 0.006 0.036
C10A 0.058 0.072 0.068 -0.001 0.021 0.032
C11A 0.063 0.098 0.084 0.022 -0.04 -0.004
C12A 0.084 0.076 0.057 0.001 0.001 -0.022
C13A 0.067 0.098 0.093 0.008 -0.027 -0.021
C14A 0.059 0.073 0.077 0.027 -0.022 -0.015
C15A 0.059 0.057 0.061 0.012 -0.006 -0.008
C16A 0.08 0.069 0.091 -0.016 -0.051 -0.028
C17A 0.054 0.075 0.103 0.001 -0.003 -0.018
C18A 0.044 0.106 0.106 -0.009 -0.001 -0.016
C19A 0.058 0.106 0.16 0.023 -0.021 -0.002
C20A 0.095 0.075 0.112 0.017 0 -0.015
C21A 0.097 0.071 0.167 0.036 -0.059 -0.013
C22A 0.092 0.055 0.074 0.004 0.008 -0.014
C23A 0.148 0.064 0.108 -0.013 0.008 -0.052
C24A 0.057 0.078 0.125 -0.007 0.007 -0.014
C25A 0.084 0.05 0.087 0.013 -0.013 -0.005
C26A 0.072 0.075 0.158 0.005 -0.027 -0.01
C27A 0.064 0.075 0.139 0.008 -0.028 0.004
C28A 0.102 0.076 0.095 0.038 -0.02 -0.015
C29A 0.093 0.102 0.066 0.014 -0.002 -0.009
C30A 0.095 0.092 0.085 -0.024 0.017 0.005
N1A 0.102 0.081 0.085 0.009 -0.001 0.052
N2A 0.073 0.089 0.146 0.016 0.029 0.032
N3A 0.159 0.221 0.225 0.115 -0.026 -0.02
N4A 0.11 0.113 0.103 -0.001 0.009 -0.002
N5A 0.095 0.085 0.086 0.001 -0.003 -0.043
N6A 0.073 0.07 0.148 0.008 -0.017 -0.031
C31A 0.103 0.084 0.154 0.01 0.038 0.036
C32A 0.123 0.112 0.204 0.018 0.05 0.053
C33A 0.126 0.109 0.147 0.013 0.025 0.01
C34A 0.137 0.134 0.152 0.032 0.003 -0.015
C35A 0.143 0.156 0.156 0.028 0.006 -0.02
C36A 0.144 0.154 0.167 0.019 0.005 -0.02
C37A 0.147 0.132 0.159 0.016 0.005 -0.007
C38A 0.138 0.11 0.152 -0.002 0.019 0.01
C39A 0.107 0.081 0.145 -0.001 -0.02 -0.033
C40A 0.131 0.131 0.194 0.018 -0.031 -0.081
C41A 0.136 0.086 0.145 0.008 -0.011 -0.013
C42A 0.151 0.109 0.156 0.02 -0.009 0.004
C43A 0.156 0.129 0.159 0.028 -0.002 0.003
C44A 0.156 0.138 0.169 0.019 -0.006 0
C45A 0.16 0.129 0.159 0.003 -0.005 0.008
C46A 0.143 0.102 0.15 -0.008 -0.014 0
C47A 0.176 0.249 0.244 0.121 -0.033 -0.028
C48A 0.208 0.248 0.273 0.12 0.004 -0.024
C49A 0.191 0.289 0.265 0.115 -0.064 -0.028
C50A 0.202 0.313 0.281 0.103 -0.076 -0.025
C51A 0.204 0.321 0.293 0.105 -0.085 -0.02
C52A 0.205 0.314 0.297 0.109 -0.081 -0.022
C53A 0.203 0.311 0.299 0.109 -0.082 -0.012
C54A 0.193 0.299 0.285 0.11 -0.075 -0.016
C55A 0.22 0.221 0.22 0.006 0.005 -0.002
C56A 0.215 0.207 0.218 0.017 -0.007 -0.014
C57A 0.203 0.205 0.203 -0.003 0.008 -0.002
C58A 0.219 0.213 0.214 0.001 0.001 0
C59A 0.265 0.262 0.265 -0.003 0.001 -0.004
C60A 0.258 0.26 0.261 0.002 0.006 -0.005
C61A 0.426 0.426 0.425 0 -0.001 0.001
C62A 0.347 0.345 0.346 0 0.001 0.004
C63A 0.11 0.107 0.1 0.027 -0.001 -0.048
C64A 0.096 0.13 0.122 0.017 0.018 -0.036
C65A 0.144 0.107 0.133 0.042 -0.009 -0.05
C66A 0.196 0.137 0.159 0.059 -0.027 -0.052
C67A 0.225 0.145 0.189 0.067 -0.038 -0.044
C68A 0.207 0.137 0.199 0.049 -0.037 -0.044
C69A 0.192 0.127 0.202 0.034 -0.042 -0.05
C70A 0.164 0.114 0.166 0.027 -0.023 -0.049
C71A 0.113 0.096 0.121 0.027 0.006 0.047
C72A 0.086 0.141 0.176 0.029 0.008 0.042
C73A 0.16 0.107 0.145 0.045 0.031 0.07
C74A 0.239 0.133 0.16 0.057 0.037 0.066
C75A 0.261 0.126 0.172 0.064 0.046 0.069
C76A 0.236 0.126 0.185 0.048 0.042 0.079
C77A 0.215 0.114 0.189 0.036 0.039 0.078
C78A 0.181 0.104 0.172 0.026 0.041 0.081
Zn1B 0.0735 0.0462 0.0977 -0.0002 -0.0041 -0.0001
Zn1C 0.0735 0.0462 0.0977 0.0002 0.0041 -0.0001
Zn2F 0.0652 0.0605 0.0748 0 0 -0.0048
O8F 0.088 0.082 0.07 0.015 -0.005 0.024
O8G 0.088 0.082 0.07 -0.015 0.005 0.024
O11B 0.041 0.12 0.134 0.037 0.032 -0.012
O11C 0.041 0.12 0.134 -0.037 -0.032 -0.012
loop_
_geom_bond_atom_site_label_1
_geom_bond_atom_site_label_2
_geom_bond_site_symmetry_1
_geom_bond_site_symmetry_2
Zn1 O1 1_555 1_555
Zn2 O3 1_555 1_555
O1 C1 1_555 1_555
O2 C1 1_555 1_555
O3 C10 1_555 1_555
O4 C10 1_555 1_555
O5 Zn1 1_555 1_555
O6 C11 1_555 1_555
O7 C20 1_555 1_555
O8 C20 1_555 1_555
O9 C21 1_555 1_555
O10 Zn1 1_555 1_555
O11 C30 1_555 1_555
O12 C30 1_555 1_555
C1 C2 1_555 1_555
C2 C3 1_555 1_555
C3 H1 1_555 1_555
H2 C3 1_555 1_555
C4 C3 1_555 1_555
H3 C4 1_555 1_555
C5 C4 1_555 1_555
C6 C5 1_555 1_555
H4 C6 1_555 1_555
H5 C6 1_555 1_555
C7 C2 1_555 1_555
H6 C7 1_555 1_555
H7 C7 1_555 1_555
C8 C2 1_555 1_555
H8 C8 1_555 1_555
C9 C5 1_555 1_555
H9 C9 1_555 1_555
H10 C9 1_555 1_555
C10 C5 1_555 1_555
C11 O5 1_555 1_555
C12 C11 1_555 1_555
C13 C12 1_555 1_555
H11 C13 1_555 1_555
H12 C13 1_555 1_555
C14 C13 1_555 1_555
H13 C14 1_555 1_555
C15 C14 1_555 1_555
C16 C15 1_555 1_555
H14 C16 1_555 1_555
H15 C16 1_555 1_555
C17 C12 1_555 1_555
H16 C17 1_555 1_555
C18 C15 1_555 1_555
H17 C18 1_555 1_555
H18 C18 1_555 1_555
C19 C12 1_555 1_555
H19 C19 1_555 1_555
H20 C19 1_555 1_555
C20 C15 1_555 1_555
C21 O10 1_555 1_555
C22 C21 1_555 1_555
C23 C22 1_555 1_555
H21 C23 1_555 1_555
C24 C23 1_555 1_555
H22 C24 1_555 1_555
H23 C24 1_555 1_555
C25 C24 1_555 1_555
C26 C25 1_555 1_555
H24 C26 1_555 1_555
H25 C26 1_555 1_555
C27 C22 1_555 1_555
H26 C27 1_555 1_555
H27 C27 1_555 1_555
C28 C22 1_555 1_555
H28 C28 1_555 1_555
H29 C28 1_555 1_555
C29 C25 1_555 1_555
H30 C29 1_555 1_555
C30 C25 1_555 1_555
N1 C4 1_555 1_555
H31 N1 1_555 1_555
N2 C8 1_555 1_555
H32 N2 1_555 1_555
N3 C29 1_555 1_555
H33 N3 1_555 1_555
N4 C23 1_555 1_555
H34 N4 1_555 1_555
N5 C14 1_555 1_555
H35 N5 1_555 1_555
N6 C17 1_555 1_555
H36 N6 1_555 1_555
C31 N2 1_555 1_555
H37 C31 1_555 1_555
C32 C31 1_555 1_555
H38 C32 1_555 1_555
H39 C32 1_555 1_555
H40 C32 1_555 1_555
C33 C31 1_555 1_555
C34 C33 1_555 1_555
H41 C34 1_555 1_555
C35 C34 1_555 1_555
H42 C35 1_555 1_555
C36 C35 1_555 1_555
H43 C36 1_555 1_555
C37 C36 1_555 1_555
H44 C37 1_555 1_555
C38 C33 1_555 1_555
H45 C38 1_555 1_555
C39 N6 1_555 1_555
H46 C39 1_555 1_555
C40 C39 1_555 1_555
H47 C40 1_555 1_555
H48 C40 1_555 1_555
H49 C40 1_555 1_555
C41 C39 1_555 1_555
C42 C41 1_555 1_555
H50 C42 1_555 1_555
C43 C42 1_555 1_555
H51 C43 1_555 1_555
C44 C43 1_555 1_555
H52 C44 1_555 1_555
C45 C44 1_555 1_555
H53 C45 1_555 1_555
C46 C41 1_555 1_555
H54 C46 1_555 1_555
C47 N3 1_555 1_555
H55 C47 1_555 1_555
C48 C47 1_555 1_555
H56 C48 1_555 1_555
H57 C48 1_555 1_555
H58 C48 1_555 1_555
C49 C47 1_555 1_555
C50 C49 1_555 1_555
H59 C50 1_555 1_555
C51 C50 1_555 1_555
H60 C51 1_555 1_555
C52 C51 1_555 1_555
H61 C52 1_555 1_555
C53 C52 1_555 1_555
H62 C53 1_555 1_555
C54 C49 1_555 1_555
H63 C54 1_555 1_555
C55 N4 1_555 1_555
H64 C55 1_555 1_555
C56 C55 1_555 1_555
H65 C56 1_555 1_555
H66 C56 1_555 1_555
H67 C56 1_555 1_555
C57 C55 1_555 1_555
C58 C57 1_555 1_555
H68 C58 1_555 1_555
C59 C58 1_555 1_555
H69 C59 1_555 1_555
C60 C59 1_555 1_555
H70 C60 1_555 1_555
C61 C60 1_555 1_555
H71 C61 1_555 1_555
C62 C57 1_555 1_555
H72 C62 1_555 1_555
C63 N5 1_555 1_555
H73 C63 1_555 1_555
C64 C63 1_555 1_555
H74 C64 1_555 1_555
H75 C64 1_555 1_555
H76 C64 1_555 1_555
C65 C63 1_555 1_555
C66 C65 1_555 1_555
H77 C66 1_555 1_555
C67 C66 1_555 1_555
H78 C67 1_555 1_555
C68 C67 1_555 1_555
H79 C68 1_555 1_555
C69 C68 1_555 1_555
H80 C69 1_555 1_555
C70 C65 1_555 1_555
H81 C70 1_555 1_555
C71 N1 1_555 1_555
H82 C71 1_555 1_555
C72 C71 1_555 1_555
H83 C72 1_555 1_555
H84 C72 1_555 1_555
H85 C72 1_555 1_555
C73 C71 1_555 1_555
C74 C73 1_555 1_555
H86 C74 1_555 1_555
C75 C74 1_555 1_555
H87 C75 1_555 1_555
C76 C75 1_555 1_555
H88 C76 1_555 1_555
C77 C76 1_555 1_555
H89 C77 1_555 1_555
C78 C73 1_555 1_555
H90 C78 1_555 1_555
Zn1A O1A 1_555 1_555
O1A C1A 1_555 1_555
O2A C1A 1_555 1_555
O3A Zn2 1_555 1_555
O4A C10A 1_555 1_555
O5A Zn1A 1_555 1_555
O6A C11A 1_555 1_555
O7A C20A 1_555 1_555
O8A C20A 1_555 1_555
O9A C21A 1_555 1_555
O10A Zn1A 1_555 1_555
O11A C30A 1_555 1_555
O12A C30A 1_555 1_555
C1A C2A 1_555 1_555
C2A C3A 1_555 1_555
C3A H1A 1_555 1_555
H2A C3A 1_555 1_555
C4A C3A 1_555 1_555
H3A C4A 1_555 1_555
C5A C4A 1_555 1_555
C6A C5A 1_555 1_555
H4A C6A 1_555 1_555
H5A C6A 1_555 1_555
C7A C2A 1_555 1_555
H6A C7A 1_555 1_555
H7A C7A 1_555 1_555
C8A C2A 1_555 1_555
H8A C8A 1_555 1_555
C9A C5A 1_555 1_555
H9A C9A 1_555 1_555
H10A C9A 1_555 1_555
C10A O3A 1_555 1_555
C11A O5A 1_555 1_555
C12A C11A 1_555 1_555
C13A C12A 1_555 1_555
H11A C13A 1_555 1_555
H12A C13A 1_555 1_555
C14A C13A 1_555 1_555
H13A C14A 1_555 1_555
C15A C14A 1_555 1_555
C16A C15A 1_555 1_555
H14A C16A 1_555 1_555
H15A C16A 1_555 1_555
C17A C12A 1_555 1_555
H16A C17A 1_555 1_555
C18A C15A 1_555 1_555
H17A C18A 1_555 1_555
H18A C18A 1_555 1_555
C19A C12A 1_555 1_555
H19A C19A 1_555 1_555
H20A C19A 1_555 1_555
C20A C15A 1_555 1_555
C21A O10A 1_555 1_555
C22A C21A 1_555 1_555
C23A C22A 1_555 1_555
H21A C23A 1_555 1_555
C24A C23A 1_555 1_555
H22A C24A 1_555 1_555
H23A C24A 1_555 1_555
C25A C24A 1_555 1_555
C26A C25A 1_555 1_555
H24A C26A 1_555 1_555
H25A C26A 1_555 1_555
C27A C22A 1_555 1_555
H26A C27A 1_555 1_555
H27A C27A 1_555 1_555
C28A C22A 1_555 1_555
H28A C28A 1_555 1_555
H29A C28A 1_555 1_555
C29A C25A 1_555 1_555
H30A C29A 1_555 1_555
C30A C25A 1_555 1_555
N1A C4A 1_555 1_555
H31A N1A 1_555 1_555
N2A C8A 1_555 1_555
H32A N2A 1_555 1_555
N3A C29A 1_555 1_555
H33A N3A 1_555 1_555
N4A C23A 1_555 1_555
H34A N4A 1_555 1_555
N5A C14A 1_555 1_555
H35A N5A 1_555 1_555
N6A C17A 1_555 1_555
H36A N6A 1_555 1_555
C31A N2A 1_555 1_555
H37A C31A 1_555 1_555
C32A C31A 1_555 1_555
H38A C32A 1_555 1_555
H39A C32A 1_555 1_555
H40A C32A 1_555 1_555
C33A C31A 1_555 1_555
C34A C33A 1_555 1_555
H41A C34A 1_555 1_555
C35A C34A 1_555 1_555
H42A C35A 1_555 1_555
C36A C35A 1_555 1_555
H43A C36A 1_555 1_555
C37A C36A 1_555 1_555
H44A C37A 1_555 1_555
C38A C33A 1_555 1_555
H45A C38A 1_555 1_555
C39A N6A 1_555 1_555
H46A C39A 1_555 1_555
C40A C39A 1_555 1_555
H47A C40A 1_555 1_555
H48A C40A 1_555 1_555
H49A C40A 1_555 1_555
C41A C39A 1_555 1_555
C42A C41A 1_555 1_555
H50A C42A 1_555 1_555
C43A C42A 1_555 1_555
H51A C43A 1_555 1_555
C44A C43A 1_555 1_555
H52A C44A 1_555 1_555
C45A C44A 1_555 1_555
H53A C45A 1_555 1_555
C46A C41A 1_555 1_555
H54A C46A 1_555 1_555
C47A N3A 1_555 1_555
H55A C47A 1_555 1_555
C48A C47A 1_555 1_555
H56A C48A 1_555 1_555
H57A C48A 1_555 1_555
H58A C48A 1_555 1_555
C49A C47A 1_555 1_555
C50A C49A 1_555 1_555
H59A C50A 1_555 1_555
C51A C50A 1_555 1_555
H60A C51A 1_555 1_555
C52A C51A 1_555 1_555
H61A C52A 1_555 1_555
C53A C52A 1_555 1_555
H62A C53A 1_555 1_555
C54A C49A 1_555 1_555
H63A C54A 1_555 1_555
C55A N4A 1_555 1_555
H64A C55A 1_555 1_555
C56A C55A 1_555 1_555
H65A C56A 1_555 1_555
H66A C56A 1_555 1_555
H67A C56A 1_555 1_555
C57A C55A 1_555 1_555
C58A C57A 1_555 1_555
H68A C58A 1_555 1_555
C59A C58A 1_555 1_555
H69A C59A 1_555 1_555
C60A C59A 1_555 1_555
H70A C60A 1_555 1_555
C61A C60A 1_555 1_555
H71A C61A 1_555 1_555
C62A C57A 1_555 1_555
H72A C62A 1_555 1_555
C63A N5A 1_555 1_555
H73A C63A 1_555 1_555
C64A C63A 1_555 1_555
H74A C64A 1_555 1_555
H75A C64A 1_555 1_555
H76A C64A 1_555 1_555
C65A C63A 1_555 1_555
C66A C65A 1_555 1_555
H77A C66A 1_555 1_555
C67A C66A 1_555 1_555
H78A C67A 1_555 1_555
C68A C67A 1_555 1_555
H79A C68A 1_555 1_555
C69A C68A 1_555 1_555
H80A C69A 1_555 1_555
C70A C65A 1_555 1_555
H81A C70A 1_555 1_555
C71A N1A 1_555 1_555
H82A C71A 1_555 1_555
C72A C71A 1_555 1_555
H83A C72A 1_555 1_555
H84A C72A 1_555 1_555
H85A C72A 1_555 1_555
C73A C71A 1_555 1_555
C74A C73A 1_555 1_555
H86A C74A 1_555 1_555
C75A C74A 1_555 1_555
H87A C75A 1_555 1_555
C76A C75A 1_555 1_555
H88A C76A 1_555 1_555
C77A C76A 1_555 1_555
H89A C77A 1_555 1_555
C78A C73A 1_555 1_555
H90A C78A 1_555 1_555
Zn1B O11A 1_555 1_555
Zn1C O11 1_555 1_555
Zn2F O8 1_555 1_555
O8F Zn2 1_555 1_555
O8G Zn2 1_555 1_555
O11B Zn1 1_555 1_555
O11C Zn1A 1_555 1_555
C6 C7 1_555 1_555
C8 C9 1_555 1_555
C16 C17 1_555 1_555
C18 C19 1_555 1_555
C26 C27 1_555 1_555
C28 C29 1_555 1_555
C37 C38 1_555 1_555
C45 C46 1_555 1_555
C53 C54 1_555 1_555
C61 C62 1_555 1_555
C69 C70 1_555 1_555
C77 C78 1_555 1_555
O8A Zn2F 1_555 1_555
C5A C10A 1_555 1_555
C6A C7A 1_555 1_555
C8A C9A 1_555 1_555
C16A C17A 1_555 1_555
C18A C19A 1_555 1_555
C26A C27A 1_555 1_555
C28A C29A 1_555 1_555
C37A C38A 1_555 1_555
C45A C46A 1_555 1_555
C53A C54A 1_555 1_555
C61A C62A 1_555 1_555
C69A C70A 1_555 1_555
C77A C78A 1_555 1_555

#END
