
#######################################################################
#
#                 Cambridge Crystallographic Data Centre
#                                CCDC 
#
#######################################################################
#
# If this CIF has been generated from an entry in the Cambridge 
# Structural Database, then it will include bibliographic, chemical, 
# crystal, experimental, refinement or atomic coordinate data resulting 
# from the CCDC's data processing and validation procedures.
#
#######################################################################

data_MUSSIE
_chemical_formula_moiety         '(C6 H38 Be12 N4 O48 P16 4-)n'
_symmetry_cell_setting           hexagonal
_symmetry_space_group_name_H-M   'P 63/m'
_symmetry_Int_Tables_number      176
_space_group_name_Hall           '-P 6c'
loop_
_symmetry_equiv_pos_site_id
_symmetry_equiv_pos_as_xyz
1 x,y,z
2 -y,x-y,z
3 -x+y,-x,z
4 -x,-y,1/2+z
5 y,-x+y,1/2+z
6 x-y,x,1/2+z
7 -x,-y,-z
8 y,-x+y,-z
9 x-y,x,-z
10 x,y,1/2-z
11 -y,x-y,1/2-z
12 -x+y,-x,1/2-z
_cell_length_a                   18.0026(5)
_cell_length_b                   18.0026(5)
_cell_length_c                   13.3316(2)
_cell_angle_alpha                90
_cell_angle_beta                 90
_cell_angle_gamma                120
_cell_volume                     3741.82
loop_
_atom_site_label
_atom_site_type_symbol
_atom_site_fract_x
_atom_site_fract_y
_atom_site_fract_z
C1 C 0.3681(3) 0.7544(2) 0.4165(3)
H5 H 0.3523 0.7524 0.3466
H6 H 0.4302 0.7837 0.4201
C2 C 0.3365(3) 0.8063(3) 0.4751(4)
H7 H 0.3266 0.8420 0.4289
H8 H 0.2824 0.7673 0.5071
N1 N 0.3333 0.6667 0.4535(4)
H9 H 0.3333 0.6667 0.5217
N2 N 0.3968(3) 0.8593(3) 0.5499(4)
H10 H 0.3762 0.8882 0.5826
H11 H 0.4462 0.8961 0.5206
H12 H 0.4055 0.8266 0.5929
C1A C 0.2456(2) 0.6137(4) 0.4165(3)
H5A H 0.2476 0.5999 0.3466
H6A H 0.2163 0.6465 0.4201
C2A C 0.1937(3) 0.5302(4) 0.4751(4)
H7A H 0.1580 0.4846 0.4289
H8A H 0.2327 0.5151 0.5071
N2A N 0.1407(3) 0.5375(4) 0.5499(4)
H10A H 0.1118 0.4880 0.5826
H11A H 0.1039 0.5501 0.5206
H12A H 0.1734 0.5789 0.5929
C1B C 0.3863(4) 0.6319(3) 0.4165(3)
H5B H 0.4001 0.6477 0.3466
H6B H 0.3535 0.5698 0.4201
C2B C 0.4698(4) 0.6635(3) 0.4751(4)
H7B H 0.5154 0.6734 0.4289
H8B H 0.4849 0.7176 0.5071
N2B N 0.4625(4) 0.6032(3) 0.5499(4)
H10B H 0.5120 0.6238 0.5826
H11B H 0.4499 0.5538 0.5206
H12B H 0.4211 0.5945 0.5929
Be1 Be 0.3539(5) 1.3079(4) 0.7500
Be2 Be 0.4045(3) 1.0476(3) 0.6184(4)
Be3 Be 0.2009(4) 0.7151(4) 0.7500
P1 P 0.39807(9) 1.17228(8) 0.7500
H1 H 0.4827 1.2368 0.7500
P2 P 0.52521(9) 1.03717(9) 0.7500
H2 H 0.4960 0.9623 0.7500
P3 P 0.28302(8) 0.90626(8) 0.7500
H3 H 0.2017 0.9005 0.7500
P4 P 0.3333 0.6667 0.7500
P5 P 0.08082(7) 0.70125(6) 0.58981(7)
H4 H 0.1255 0.7816 0.5465
O1 O 0.3427(3) 1.2131(2) 0.7500
O2 O 0.3851(3) 1.1213(2) 0.6559(2)
O3 O 0.49526(19) 1.0609(2) 0.6556(2)
O4 O 0.6212(3) 1.0753(3) 0.7500
O5 O 0.3286(2) 0.95283(18) 0.6548(2)
O6 O 0.2705(3) 0.8174(3) 0.7500
O7 O 0.2523(3) 0.6638(3) 0.7500
O8 O 0.14423(19) 0.6872(2) 0.6501(2)
O9 O 0.0494(2) 0.63940(19) 0.5027(2)
O10 O 0.0087(2) 0.6960(2) 0.6517(3)
O2I O 0.3851(3) 1.1213(2) 0.8441(2)
O3I O 0.49526(19) 1.0609(2) 0.8444(2)
O5I O 0.3286(2) 0.95283(18) 0.8452(2)
O7A O 0.3362(3) 0.5885(4) 0.7500
O7B O 0.4115(4) 0.7477(3) 0.7500
Be1A Be -0.3079(4) 0.0460(6) 0.7500
Be2A Be -0.0476(3) 0.3569(4) 0.6184(4)
Be3A Be 0.2849(4) 0.4858(6) 0.7500
P1A P -0.17228(8) 0.22579(12) 0.7500
H1A H -0.2368 0.2459 0.7500
P2A P -0.03717(9) 0.48804(13) 0.7500
H2A H 0.0377 0.5337 0.7500
P3A P 0.09374(8) 0.37676(11) 0.7500
H3A H 0.0995 0.3012 0.7500
P5A P 0.29875(6) 0.37957(9) 0.58981(7)
H4A H 0.2184 0.3439 0.5465
O1A O -0.2131(2) 0.1296(4) 0.7500
O2A O -0.1213(2) 0.2638(4) 0.6559(2)
O3A O -0.0609(2) 0.43436(28) 0.6556(2)
O4A O -0.0753(3) 0.5459(4) 0.7500
O5A O 0.04717(18) 0.37577(27) 0.6548(2)
O6A O 0.1826(3) 0.4531(4) 0.7500
O8A O 0.3128(2) 0.45703(28) 0.6501(2)
O9A O 0.36060(19) 0.41000(28) 0.5027(2)
O10A O 0.3040(2) 0.3127(3) 0.6517(3)
O2J O -0.1213(2) 0.2638(4) 0.8441(2)
O3J O -0.0609(2) 0.43436(28) 0.8444(2)
O5J O 0.04717(18) 0.37577(27) 0.8452(2)
Be1B Be -0.0460(6) 0.6461(5) 0.7500
Be2B Be -0.3569(4) 0.5955(3) 0.6184(4)
Be3B Be -0.4858(6) 0.7991(4) 0.7500
P1B P -0.22579(12) 0.60193(9) 0.7500
H1B H -0.2459 0.5173 0.7500
P2B P -0.48804(13) 0.47479(9) 0.7500
H2B H -0.5337 0.5040 0.7500
P3B P -0.37676(11) 0.71698(8) 0.7500
H3B H -0.3012 0.7983 0.7500
P5B P -0.37957(9) 0.91918(7) 0.58981(7)
H4B H -0.3439 0.8745 0.5465
O1B O -0.1296(4) 0.6573(3) 0.7500
O2B O -0.2638(4) 0.6149(3) 0.6559(2)
O3B O -0.43436(28) 0.50474(19) 0.6556(2)
O4B O -0.5459(4) 0.3788(3) 0.7500
O5B O -0.37577(27) 0.6714(2) 0.6548(2)
O6B O -0.4531(4) 0.7295(3) 0.7500
O8B O -0.45703(28) 0.85577(19) 0.6501(2)
O9B O -0.41000(28) 0.9506(2) 0.5027(2)
O10B O -0.3127(3) 0.9913(2) 0.6517(3)
O2K O -0.2638(4) 0.6149(3) 0.8441(2)
O3K O -0.43436(28) 0.50474(19) 0.8444(2)
O5K O -0.37577(27) 0.6714(2) 0.8452(2)
Be2F Be -0.4045(3) 0.9524(3) 0.3816(4)
Be2G Be 0.0476(3) 0.6431(4) 0.3816(4)
P5G P -0.29875(6) 0.62043(9) 0.41019(7)
H4G H -0.2184 0.6561 0.4535
O8G O -0.3128(2) 0.54297(28) 0.3499(2)
O9G O -0.36060(19) 0.59000(28) 0.4973(2)
O10G O -0.3040(2) 0.6873(3) 0.3483(3)
Be2H Be 0.3569(4) 0.4045(3) 0.3816(4)
P5J P 0.29875(6) 1.37957(9) 0.91019(7)
H4J H 0.2184 1.3439 0.9535
O8J O 0.3128(2) 1.45703(28) 0.8499(2)
O9J O 0.36060(19) 1.41000(28) 0.9973(2)
O10J O 0.3040(2) 1.3127(3) 0.8483(3)
P5A_2 P 0.29875(6) 1.37957(9) 0.58981(7)
H4A_2 H 0.2184 1.3439 0.5465
O8A_2 O 0.3128(2) 1.45703(28) 0.6501(2)
O9A_2 O 0.36060(19) 1.41000(28) 0.5027(2)
O10A_2 O 0.3040(2) 1.3127(3) 0.6517(3)
Be1_2 Be -0.6461(5) 0.3079(4) 0.7500
Be1_3 Be 0.3539(5) 0.3079(4) 0.7500
Be1A_2 Be -0.3079(4) 1.0460(6) 0.7500
Be1A_3 Be 0.6921(4) 1.0460(6) 0.7500
Be1C Be -0.3539(5) 0.6921(4) 0.2500
Be2E Be 0.3569(4) 1.4045(3) 1.1184(4)
Be2H_2 Be 0.3569(4) 1.4045(3) 0.3816(4)
Be2I Be 0.4045(3) 1.0476(3) 0.8816(4)
Be2J Be -0.0476(3) 0.3569(4) 0.8816(4)
Be2K Be -0.3569(4) 0.5955(3) 0.8816(4)
Be3A_2 Be 0.2849(4) 1.4858(6) 0.7500
Be3B_2 Be 0.5142(6) 0.7991(4) 0.7500
Be3D Be -0.2849(4) 0.5142(6) 0.2500
O2F O -0.3851(3) 0.8787(2) 0.3441(2)
O2G O 0.1213(2) 0.7362(4) 0.3441(2)
O2H O 0.2638(4) 0.3851(3) 0.3441(2)
O3F O -0.49526(19) 0.9391(2) 0.3444(2)
O3G O 0.0609(2) 0.56564(28) 0.3444(2)
O3H O 0.43436(28) 0.49526(19) 0.3444(2)
O4_2 O -0.3788(3) 0.0753(3) 0.7500
O4B_2 O 0.4541(4) 1.3788(3) 0.7500
O5F O -0.3286(2) 1.04717(18) 0.3452(2)
O5G O -0.04717(18) 0.62423(27) 0.3452(2)
O5H O 0.37577(27) 0.3286(2) 0.3452(2)
O7B_2 O -0.5885(4) 0.7477(3) 0.7500
O8I O 0.14423(19) 0.6872(2) 0.8499(2)
O8J_2 O 0.3128(2) 0.45703(28) 0.8499(2)
O8K O -0.45703(28) 0.85577(19) 0.8499(2)
O9F O -0.0494(2) 0.36060(19) 0.4973(2)
O9H O 0.41000(28) 1.0494(2) 0.4973(2)
O10B_2 O -0.3127(3) -0.0087(2) 0.6517(3)
O10I O 0.0087(2) 0.6960(2) 0.8483(3)
O10K O -0.3127(3) -0.0087(2) 0.8483(3)
loop_
_geom_bond_atom_site_label_1
_geom_bond_atom_site_label_2
_geom_bond_site_symmetry_1
_geom_bond_site_symmetry_2
Be1 O1 1_555 1_555
Be2 O2 1_555 1_555
Be3 O6 1_555 1_555
P1 H1 1_555 1_555
P2 H2 1_555 1_555
P3 H3 1_555 1_555
P4 O7 1_555 1_555
P5 H4 1_555 1_555
O1 P1 1_555 1_555
O2 P1 1_555 1_555
O3 Be2 1_555 1_555
O4 P2 1_555 1_555
O5 Be2 1_555 1_555
O6 P3 1_555 1_555
O7 Be3 1_555 1_555
O8 Be3 1_555 1_555
O9 P5 1_555 1_555
O10 P5 1_555 1_555
C1 H5 1_555 1_555
H6 C1 1_555 1_555
C2 C1 1_555 1_555
H7 C2 1_555 1_555
H8 C2 1_555 1_555
N1 C1 1_555 1_555
H9 N1 1_555 1_555
N2 C2 1_555 1_555
H10 N2 1_555 1_555
H11 N2 1_555 1_555
H12 N2 1_555 1_555
O2I P1 1_555 1_555
O3I P2 1_555 1_555
O5I P3 1_555 1_555
O7A P4 1_555 1_555
O7B P4 1_555 1_555
Be1A O1A 1_555 1_555
Be2A O2A 1_555 1_555
Be3A O7A 1_555 1_555
P1A H1A 1_555 1_555
P2A H2A 1_555 1_555
P3A H3A 1_555 1_555
P5A H4A 1_555 1_555
O1A P1A 1_555 1_555
O2A P1A 1_555 1_555
O3A Be2A 1_555 1_555
O4A P2A 1_555 1_555
O5A Be2A 1_555 1_555
O6A Be3A 1_555 1_555
O8A Be3A 1_555 1_555
O9A P5A 1_555 1_555
O10A P5A 1_555 1_555
O2J P1A 1_555 1_555
O3J P2A 1_555 1_555
O5J P3A 1_555 1_555
Be1B O10 1_555 1_555
Be2B O2B 1_555 1_555
Be3B O6B 1_555 1_555
P1B H1B 1_555 1_555
P2B H2B 1_555 1_555
P3B H3B 1_555 1_555
P5B H4B 1_555 1_555
O1B Be1B 1_555 1_555
O2B P1B 1_555 1_555
O3B Be2B 1_555 1_555
O4B P2B 1_555 1_555
O5B Be2B 1_555 1_555
O6B P3B 1_555 1_555
O8B Be3B 1_555 1_555
O9B P5B 1_555 1_555
O10B P5B 1_555 1_555
O2K P1B 1_555 1_555
O3K P2B 1_555 1_555
O5K P3B 1_555 1_555
Be2F O9B 1_555 1_555
Be2G O9 1_555 1_555
P5G H4G 1_555 1_555
O8G P5G 1_555 1_555
O9G Be2B 1_555 1_555
O10G P5G 1_555 1_555
Be2H O9A 1_555 1_555
P5J H4J 1_555 1_555
O8J P5J 1_555 1_555
O9J P5J 1_555 1_555
O10J Be1 1_555 1_555
P5A_2 H4A_2 1_555 1_555
O8A_2 P5A_2 1_555 1_555
O9A_2 P5A_2 1_555 1_555
O10A_2 Be1 1_555 1_555
Be1_2 O4B 1_555 1_555
Be1_3 O10A 1_555 1_555
Be1A_2 O10B 1_555 1_555
Be1A_3 O4 1_555 1_555
Be1C O10G 1_555 1_555
Be2E O9J 1_555 1_555
Be2H_2 O9A_2 1_555 1_555
Be2I O2I 1_555 1_555
Be2J O2J 1_555 1_555
Be2K O2K 1_555 1_555
Be3A_2 O8J 1_555 1_555
Be3B_2 O7B 1_555 1_555
Be3D O8G 1_555 1_555
O2F Be2F 1_555 1_555
O2G Be2G 1_555 1_555
O2H Be2H 1_555 1_555
O3F Be2F 1_555 1_555
O3G Be2G 1_555 1_555
O3H Be2H 1_555 1_555
O4_2 Be1A 1_555 1_555
O4B_2 Be1 1_555 1_555
O5F Be2F 1_555 1_555
O5G Be2G 1_555 1_555
O5H Be2H 1_555 1_555
O7B_2 Be3B 1_555 1_555
O8I Be3 1_555 1_555
O8J_2 Be3A 1_555 1_555
O8K Be3B 1_555 1_555
O9F Be2A 1_555 1_555
O9H Be2 1_555 1_555
O10B_2 Be1A 1_555 1_555
O10I Be1B 1_555 1_555
O10K Be1A 1_555 1_555
C1A N1 1_555 1_555
H5A C1A 1_555 1_555
H6A C1A 1_555 1_555
C2A C1A 1_555 1_555
H7A C2A 1_555 1_555
H8A C2A 1_555 1_555
N2A C2A 1_555 1_555
H10A N2A 1_555 1_555
H11A N2A 1_555 1_555
H12A N2A 1_555 1_555
C1B N1 1_555 1_555
H5B C1B 1_555 1_555
H6B C1B 1_555 1_555
C2B C1B 1_555 1_555
H7B C2B 1_555 1_555
H8B C2B 1_555 1_555
N2B C2B 1_555 1_555
H10B N2B 1_555 1_555
H11B N2B 1_555 1_555
H12B N2B 1_555 1_555
P2 O3 1_555 1_555
P3 O5 1_555 1_555
P5 O8 1_555 1_555
O3I Be2I 1_555 1_555
O5I Be2I 1_555 1_555
P2A O3A 1_555 1_555
P3A O5A 1_555 1_555
P3A O6A 1_555 1_555
P5A O8A 1_555 1_555
O4A Be1B 1_555 1_555
O3J Be2J 1_555 1_555
O5J Be2J 1_555 1_555
P1B O1B 1_555 1_555
P2B O3B 1_555 1_555
P3B O5B 1_555 1_555
P5B O8B 1_555 1_555
O3K Be2K 1_555 1_555
O5K Be2K 1_555 1_555
P5G O9G 1_555 1_555
P5J O10J 1_555 1_555
P5A_2 O10A_2 1_555 1_555
O8A_2 Be3A_2 1_555 1_555

#END
