
#######################################################################
#
#                 Cambridge Crystallographic Data Centre
#                                CCDC 
#
#######################################################################
#
# If this CIF has been generated from an entry in the Cambridge 
# Structural Database, then it will include bibliographic, chemical, 
# crystal, experimental, refinement or atomic coordinate data resulting 
# from the CCDC's data processing and validation procedures.
#
#######################################################################

data_QADWEY
_chemical_formula_moiety         '(C6 H23 N3 O16 P4 Zn3)n'
_symmetry_cell_setting           monoclinic
_symmetry_space_group_name_H-M   'C c'
_symmetry_Int_Tables_number      9
_space_group_name_Hall           'C -2yc'
loop_
_symmetry_equiv_pos_site_id
_symmetry_equiv_pos_as_xyz
1 x,y,z
2 x,-y,1/2+z
3 1/2+x,1/2+y,z
4 1/2+x,1/2-y,1/2+z
_cell_length_a                   15.1085(4)
_cell_length_b                   8.8403(4)
_cell_length_c                   17.2628(6)
_cell_angle_alpha                90
_cell_angle_beta                 114.537(2)
_cell_angle_gamma                90
_cell_volume                     2097.46
loop_
_atom_site_label
_atom_site_type_symbol
_atom_site_fract_x
_atom_site_fract_y
_atom_site_fract_z
_atom_site_U_iso_or_equiv
_atom_site_thermal_displace_type
Zn1 Zn 0.19028(6) -0.88849(10) 0.54451(6) 0.0185 Uani
Zn2 Zn 0.01457(6) -1.08024(9) 0.77667(5) 0.0183 Uani
Zn3 Zn 0.28325(6) -0.84143(10) 0.81074(5) 0.0191 Uani
P1 P 0.28723(14) -0.6193(2) 0.66538(13) 0.0162 Uani
P2 P 0.01660(14) -0.6811(2) 0.41565(13) 0.0197 Uani
P3 P 0.15288(14) -1.1333(2) 0.41213(12) 0.0157 Uani
P4 P 0.17099(14) -1.1137(2) 0.69112(13) 0.0165 Uani
O1 O 0.2885(4) -0.7476(6) 0.6061(4) 0.0244 Uani
O2 O 0.0625(4) -0.7870(7) 0.4902(4) 0.0276 Uani
O3 O 0.2136(4) -0.9956(6) 0.4549(3) 0.0208 Uani
O4 O 0.1610(4) -1.0573(6) 0.6038(3) 0.0262 Uani
O5 O 0.0791(4) -1.0648(7) 0.7010(4) 0.0321 Uani
O6 O 0.0481(4) -1.0916(6) 0.3543(4) 0.0235 Uani
O7 O 0.3817(4) -0.5334(6) 0.6996(4) 0.0312 Uani
O8 O 0.0257(5) -0.7285(7) 0.3349(4) 0.0327 Uani
O9 O 0.2606(4) -1.0409(6) 0.7624(4) 0.0264 Uani
O10 O -0.0880(5) -0.6504(9) 0.4005(4) 0.0433 Uani
O11 O 0.2588(5) -0.6729(7) 0.7347(4) 0.0341 Uani
O12 O 0.1977(4) -1.2258(6) 0.3629(3) 0.0239 Uani
O13 O 0.2067(4) -0.5043(6) 0.6072(3) 0.0206 Uani
H1 H 0.2044 -0.4317 0.6359 0.0310 Uiso
O14 O 0.0737(6) -0.5259(7) 0.4388(4) 0.0624 Uani
H2 H 0.0496 -0.4669 0.3988 0.0930 Uiso
O15 O 0.1485(4) -1.2402(6) 0.4839(4) 0.0285 Uani
H3 H 0.1159 -1.3153 0.4619 0.0420 Uiso
O16 O 0.1842(4) -1.2833(6) 0.6959(4) 0.0282 Uani
O6A O 0.0481(4) -0.9084(6) 0.8543(4) 0.0235 Uani
O7B O -0.1183(4) -1.0334(6) 0.6996(4) 0.0312 Uani
O8A O 0.0257(5) -1.2715(7) 0.8349(4) 0.0327 Uani
O10C O 0.4120(5) -0.8496(9) 0.9005(4) 0.0433 Uani
O12A O 0.1977(4) -0.7742(6) 0.8629(3) 0.0239 Uani
Zn2A Zn 0.01457(6) -0.91976(9) 0.27667(5) 0.0183 Uani
Zn2B Zn 0.51457(6) -0.58024(9) 0.77667(5) 0.0183 Uani
Zn3C Zn -0.21675(6) -0.65857(10) 0.31074(5) 0.0191 Uani
Zn3A Zn 0.28325(6) -1.15857(10) 0.31074(5) 0.0191 Uani
N1 N 0.0981(5) -0.5022(8) 0.2576(4) 0.0355 Uani
H4 H 0.1347 -0.5751 0.2506 0.0540 Uiso
H5 H 0.0677 -0.5373 0.2884 0.0540 Uiso
H6 H 0.1356 -0.4244 0.2845 0.0540 Uiso
C1 C 0.0245(10) -0.4515(17) 0.1724(8) 0.1066 Uani
H7 H 0.0584 -0.4174 0.1387 0.1280 Uiso
H8 H -0.0152 -0.5376 0.1434 0.1280 Uiso
C2 C -0.0400(15) -0.3291(14) 0.1759(7) 0.2031 Uani
H9 H 0.0003 -0.2515 0.2140 0.2430 Uiso
H10 H -0.0813 -0.3697 0.2014 0.2430 Uiso
C3 C -0.1049(8) -0.2537(10) 0.0927(6) 0.0507 Uani
H11 H -0.1234 -0.3290 0.0478 1.6000 Uiso
H12 H -0.1638 -0.2204 0.0970 0.0800 Uiso
N2 N -0.0622(5) -0.1224(8) 0.0668(5) 0.0397 Uani
H13 H -0.0187 -0.1553 0.0474 0.0480 Uiso
H14 H -0.0308 -0.0626 0.1122 0.0480 Uiso
C4 C -0.1409(6) -0.0326(9) -0.0022(5) 0.0344 Uani
H15 H -0.1879 0.0070 0.0175 0.0410 Uiso
H16 H -0.1745 -0.0933 -0.0528 0.0410 Uiso
C5 C -0.0821(9) 0.0947(15) -0.0187(9) 0.0815 Uani
H17 H -0.0530 0.1589 0.0311 0.0980 Uiso
H18 H -0.0307 0.0530 -0.0321 0.0980 Uiso
C6 C -0.1536(9) 0.1854(16) -0.0942(9) 0.0960 Uani
H19 H -0.1950 0.1176 -0.1388 0.1160 Uiso
H20 H -0.1945 0.2480 -0.0764 0.1160 Uiso
N3 N -0.0944(6) 0.2827(8) -0.1264(6) 0.0473 Uani
H21 H -0.1340 0.3372 -0.1705 0.0710 Uiso
H22 H -0.0573 0.2241 -0.1427 0.0710 Uiso
H23 H -0.0567 0.3443 -0.0851 0.0710 Uiso
loop_
_atom_site_aniso_label
_atom_site_aniso_U_11
_atom_site_aniso_U_22
_atom_site_aniso_U_33
_atom_site_aniso_U_23
_atom_site_aniso_U_13
_atom_site_aniso_U_12
Zn1 0.0188(4) 0.0191(5) 0.0163(5) -0.0014(4) 0.0059(4) -0.0004(4)
Zn2 0.0178 0.0213 0.0151 -0.0004 0.006 -0.0015
Zn3 0.0213 0.0204 0.0148 -0.0002 0.0067 -0.0021
P1 0.015 0.0167 0.0144 0.0013 0.0037 -0.0008
P2 0.0165(10) 0.0201(11) 0.0169(11) -0.0022(8) 0.0014(9) 0.0003(8)
P3 0.0200(11) 0.0151(10) 0.0128(11) 0.0006(8) 0.0075(9) 0.0023(8)
P4 0.019 0.0172 0.0145 -0.0012 0.0081 -0.0002
O1 0.023 0.019 0.031 -0.006 0.011 -0.002
O2 0.021(3) 0.033(3) 0.026(3) 0.005(3) 0.007(3) 0.002(2)
O3 0.020(3) 0.024(3) 0.021(3) -0.003(2) 0.011(2) 0.000(2)
O4 0.037 0.024 0.019 0.005 0.013 -0.001
O5 0.029 0.041 0.03 0.007 0.016 0.011
O6 0.020(3) 0.025(3) 0.021(3) 0.004(2) 0.004(3) 0.002(2)
O7 0.022 0.02 0.038 0 -0.001 -0.006
O8 0.048(4) 0.026(3) 0.029(3) -0.006(3) 0.021(3) 0.002(3)
O9 0.026 0.024 0.023 -0.007 0.004 0
O10 0.028(4) 0.083(5) 0.019(4) 0.010(3) 0.010(3) 0.026(3)
O11 0.042 0.036 0.032 0.015 0.023 0.011
O12 0.029 0.027 0.022 -0.004 0.017 -0.002
O13 0.02 0.021 0.012 0.002 -0.002 0.004
O14 0.085(6) 0.023(4) 0.040(4) 0.002(3) -0.013(4) -0.024(4)
O15 0.042(4) 0.018(3) 0.023(3) 0.005(2) 0.011(3) 0.001(3)
O16 0.043 0.017 0.027 -0.007 0.017 -0.002
O6A 0.02 0.025 0.021 -0.004 0.004 -0.002
O7B 0.022 0.02 0.038 0 -0.001 -0.006
O8A 0.048 0.026 0.029 0.006 0.021 -0.002
O10C 0.028 0.083 0.019 -0.01 0.01 -0.026
O12A 0.029 0.027 0.022 0.004 0.017 0.002
Zn2A 0.0178(5) 0.0213(5) 0.0151(5) 0.0004(4) 0.0060(4) 0.0015(4)
Zn2B 0.0178 0.0213 0.0151 -0.0004 0.006 -0.0015
Zn3C 0.0213(5) 0.0204(5) 0.0148(5) 0.0002(4) 0.0067(4) 0.0021(4)
Zn3A 0.0213 0.0204 0.0148 0.0002 0.0067 0.0021
N1 0.028(4) 0.034(4) 0.042(5) 0.003(4) 0.012(4) 0.008(3)
C1 0.053(9) 0.087(11) 0.114(14) 0.010(9) -0.031(9) 0.014(8)
C2 0.33(3) 0.041(8) 0.054(10) -0.036(7) -0.104(15) 0.082(13)
C3 0.075(8) 0.034(6) 0.041(6) 0.014(5) 0.022(6) 0.019(6)
N2 0.026(4) 0.045(5) 0.046(6) -0.024(4) 0.013(4) 0.008(3)
C4 0.048(6) 0.035(5) 0.021(5) -0.007(4) 0.015(4) 0.005(4)
C5 0.080(10) 0.086(11) 0.081(11) 0.031(8) 0.036(9) 0.016(8)
C6 0.118(13) 0.094(12) 0.139(15) 0.042(10) 0.116(13) 0.037(10)
N3 0.056(5) 0.032(4) 0.059(6) 0.011(4) 0.029(5) 0.013(4)
loop_
_geom_bond_atom_site_label_1
_geom_bond_atom_site_label_2
_geom_bond_site_symmetry_1
_geom_bond_site_symmetry_2
Zn1 O1 1_555 1_555
Zn2 O5 1_555 1_555
Zn3 O9 1_555 1_555
P1 O1 1_555 1_555
P2 O2 1_555 1_555
P3 O3 1_555 1_555
P4 O4 1_555 1_555
O2 Zn1 1_555 1_555
O3 Zn1 1_555 1_555
O4 Zn1 1_555 1_555
O5 P4 1_555 1_555
O6 P3 1_555 1_555
O7 P1 1_555 1_555
O8 P2 1_555 1_555
O9 P4 1_555 1_555
O10 P2 1_555 1_555
O11 Zn3 1_555 1_555
O12 P3 1_555 1_555
O13 P1 1_555 1_555
H1 O13 1_555 1_555
O14 P2 1_555 1_555
H2 O14 1_555 1_555
O15 P3 1_555 1_555
H3 O15 1_555 1_555
O16 P4 1_555 1_555
N1 H4 1_555 1_555
H5 N1 1_555 1_555
H6 N1 1_555 1_555
C1 N1 1_555 1_555
H7 C1 1_555 1_555
H8 C1 1_555 1_555
C2 C1 1_555 1_555
H9 C2 1_555 1_555
H10 C2 1_555 1_555
C3 C2 1_555 1_555
H11 C3 1_555 1_555
H12 C3 1_555 1_555
N2 C3 1_555 1_555
H13 N2 1_555 1_555
H14 N2 1_555 1_555
C4 N2 1_555 1_555
H15 C4 1_555 1_555
H16 C4 1_555 1_555
C5 C4 1_555 1_555
H17 C5 1_555 1_555
H18 C5 1_555 1_555
C6 C5 1_555 1_555
H19 C6 1_555 1_555
H20 C6 1_555 1_555
N3 C6 1_555 1_555
H21 N3 1_555 1_555
H22 N3 1_555 1_555
H23 N3 1_555 1_555
O6A Zn2 1_555 1_555
O7B Zn2 1_555 1_555
O8A Zn2 1_555 1_555
O10C Zn3 1_555 1_555
O12A Zn3 1_555 1_555
Zn2A O6 1_555 1_555
Zn2B O7 1_555 1_555
Zn3C O10 1_555 1_555
Zn3A O12 1_555 1_555
P1 O11 1_555 1_555
O8 Zn2A 1_555 1_555

#END
