
#######################################################################
#
#                 Cambridge Crystallographic Data Centre
#                                CCDC 
#
#######################################################################
#
# If this CIF has been generated from an entry in the Cambridge 
# Structural Database, then it will include bibliographic, chemical, 
# crystal, experimental, refinement or atomic coordinate data resulting 
# from the CCDC's data processing and validation procedures.
#
#######################################################################

data_OFAMUF
_chemical_formula_moiety         'C50 H36 Co6 N8 O13'
_symmetry_cell_setting           tetragonal
_symmetry_space_group_name_H-M   'P 42/m'
_symmetry_Int_Tables_number      84
_space_group_name_Hall           '-P 4c'
loop_
_symmetry_equiv_pos_site_id
_symmetry_equiv_pos_as_xyz
1 x,y,z
2 -x,-y,z
3 -y,x,1/2+z
4 y,-x,1/2+z
5 -x,-y,-z
6 x,y,-z
7 y,-x,1/2-z
8 -y,x,1/2-z
_cell_length_a                   15.0103(8)
_cell_length_b                   15.0103(8)
_cell_length_c                   10.0791(12)
_cell_angle_alpha                90
_cell_angle_beta                 90
_cell_angle_gamma                90
_cell_volume                     2270.91
loop_
_atom_site_label
_atom_site_type_symbol
_atom_site_fract_x
_atom_site_fract_y
_atom_site_fract_z
O3 O -0.0000 -0.0000 0.2500
O4 O 0.1334(2) 0.9973(3) 0.3682(5)
O5 O 0.1439(14) 0.9472(6) 0.0000
Co1 Co 0.33643(2) -0.066582(17) 0.0000
N1 N 0.81795(14) -0.26325(13) 0.5000
N2 N 0.31602(11) 0.06735(10) 0.0000
N3 N 0.34195(11) 0.21091(11) 0.0000
O1 O 0.30482(8) -0.05119(8) 0.24955(13)
O2 O 0.42433(8) -0.09361(7) 0.14536(9)
C1 C 0.7897(2) -0.2106(2) 0.4043(3)
H1 H 0.8314 -0.1964 0.3325
C2 C 0.7054(2) -0.1738(2) 0.3981(3)
C3 C 0.64555(16) -0.18631(14) 0.5000
C4 C 0.55571(15) -0.14831(12) 0.5000
C5 C 0.51152(10) -0.13041(8) 0.38179(13)
H2 H 0.5399 -0.1421 0.3016
C6 C 0.42673(10) -0.09576(8) 0.38112(12)
C7 C 0.38296(15) -0.07772(11) 0.5000
H3 H 0.3257 -0.0541 0.5000
C8 C 0.38140(10) -0.07775(9) 0.24993(15)
C9 C 0.23752(17) 0.11230(19) 0.0000
H4 H 0.1786 0.0841 0.0000
C10 C 0.25313(18) 0.19865(18) -0.0329(6)
H5 H 0.2169 0.2363 -0.0913
C11 C 0.37640(14) 0.12899(13) 0.0000
H6 H 0.4373 0.1174 0.0000
C12 C 0.38829(17) 0.29312(15) 0.0000
C13 C 0.3420(2) 0.36970(17) 0.0000
H7 H 0.2767 0.3681 0.0000
C14 C 0.3893(2) 0.4497(2) -0.0518(6)
H8 H 0.3608 0.4958 -0.1060
C15 C 0.4760(2) 0.45662(16) 0.0000
C16 C 0.5201(2) 0.37798(18) 0.0000
H9 H 0.5854 0.3792 0.0000
C17 C 0.4761(2) 0.29818(18) 0.0465(6)
H10 H 0.5048 0.2524 0.1013
O1E O 0.30482(8) -0.05119(8) 0.75045(13)
O2E O 0.42433(8) -0.09361(7) 0.85464(9)
C1E C 0.7897(2) -0.2106(2) 0.5957(3)
H1E H 0.8314 -0.1964 0.6675
C2E C 0.7054(2) -0.1738(2) 0.6019(3)
C5E C 0.51152(10) -0.13041(8) 0.61821(13)
H2E H 0.5399 -0.1421 0.6984
C6E C 0.42673(10) -0.09576(8) 0.61888(12)
C8E C 0.38140(10) -0.07775(9) 0.75007(15)
N2A N 0.68398(11) 0.93265(10) 0.0000
N3A N 0.65805(11) 0.78909(11) 0.0000
C9A C 0.76248(17) 0.88770(19) 0.0000
H4A H 0.8214 0.9159 0.0000
C10A C 0.74687(18) 0.80135(18) -0.0329(6)
H5A H 0.7831 0.7637 -0.0913
C11A C 0.62360(14) 0.87101(13) 0.0000
H6A H 0.5627 0.8826 0.0000
C12A C 0.61171(17) 0.70688(15) 0.0000
C13A C 0.6580(2) 0.63030(17) 0.0000
H7A H 0.7233 0.6319 0.0000
C14A C 0.6107(2) 0.5503(2) -0.0518(6)
H8A H 0.6392 0.5042 -0.1060
C15A C 0.5240(2) 0.54338(16) 0.0000
C16A C 0.4799(2) 0.62202(18) 0.0000
H9A H 0.4146 0.6208 0.0000
C17A C 0.5239(2) 0.70182(18) 0.0465(6)
H10A H 0.4952 0.7476 0.1013
C10D C 0.74687(18) 0.80135(18) 0.0329(6)
H5D H 0.7831 0.7637 0.0913
C14D C 0.6107(2) 0.5503(2) 0.0518(6)
H8D H 0.6392 0.5042 0.1060
C17D C 0.5239(2) 0.70182(18) -0.0465(6)
H10D H 0.4952 0.7476 -0.1013
C10E C 0.25313(18) 0.19865(18) 0.0329(6)
H5E H 0.2169 0.2363 0.0913
C14E C 0.3893(2) 0.4497(2) 0.0518(6)
H8E H 0.3608 0.4958 0.1060
C17E C 0.4761(2) 0.29818(18) -0.0465(6)
H10E H 0.5048 0.2524 -0.1013
Co1A Co 0.66357(2) 1.066582(17) 0.0000
N1A N 0.18205(14) 1.26325(13) 0.5000
O1A O 0.69518(8) 1.05119(8) 0.24955(13)
O2A O 0.57567(8) 1.09361(7) 0.14536(9)
C1A C 0.2103(2) 1.2106(2) 0.4043(3)
H1A H 0.1686 1.1964 0.3325
C2A C 0.2946(2) 1.1738(2) 0.3981(3)
C3A C 0.35445(16) 1.18631(14) 0.5000
C4A C 0.44429(15) 1.14831(12) 0.5000
C5A C 0.48848(10) 1.13041(8) 0.38179(13)
H2A H 0.4601 1.1421 0.3016
C6A C 0.57327(10) 1.09576(8) 0.38112(12)
C7A C 0.61704(15) 1.07772(11) 0.5000
H3A H 0.6743 1.0541 0.5000
C8A C 0.61860(10) 1.07775(9) 0.24993(15)
O1D O 0.69518(8) 1.05119(8) 0.75045(13)
O2D O 0.57567(8) 1.09361(7) 0.85464(9)
C1D C 0.2103(2) 1.2106(2) 0.5957(3)
H1D H 0.1686 1.1964 0.6675
C2D C 0.2946(2) 1.1738(2) 0.6019(3)
C5D C 0.48848(10) 1.13041(8) 0.61821(13)
H2D H 0.4601 1.1421 0.6984
C6D C 0.57327(10) 1.09576(8) 0.61888(12)
C8D C 0.61860(10) 1.07775(9) 0.75007(15)
Co1_2 Co 0.33643(2) -0.066582(17) 1.0000
Co1A_2 Co 0.66357(2) 1.066582(17) 1.0000
Co1B Co 0.066582(17) 1.33643(2) 0.5000
Co1C Co 0.933418(17) -0.33643(2) 0.5000
N1B N 0.26325(13) -0.18205(14) 0.0000
N1C N 0.73675(13) 1.18205(14) 0.0000
O2D_2 O 0.57567(8) 1.09361(7) -0.14536(9)
O2E_2 O 0.42433(8) -0.09361(7) -0.14536(9)
loop_
_geom_bond_atom_site_label_1
_geom_bond_atom_site_label_2
_geom_bond_site_symmetry_1
_geom_bond_site_symmetry_2
Co1 N2 1_555 1_555
N1 C1 1_555 1_555
N2 C9 1_555 1_555
N3 C10 1_555 1_555
O1 C8 1_555 1_555
O2 Co1 1_555 1_555
C1 H1 1_555 1_555
C2 C1 1_555 1_555
C3 C2 1_555 1_555
C4 C3 1_555 1_555
C5 C4 1_555 1_555
H2 C5 1_555 1_555
C6 C5 1_555 1_555
C7 C6 1_555 1_555
H3 C7 1_555 1_555
C8 O2 1_555 1_555
C9 H4 1_555 1_555
C10 C9 1_555 1_555
H5 C10 1_555 1_555
C11 N2 1_555 1_555
H6 C11 1_555 1_555
C12 N3 1_555 1_555
C13 C12 1_555 1_555
H7 C13 1_555 1_555
C14 C13 1_555 1_555
H8 C14 1_555 1_555
C15 C14 1_555 1_555
C16 C15 1_555 1_555
H9 C16 1_555 1_555
C17 C12 1_555 1_555
H10 C17 1_555 1_555
O1E C8E 1_555 1_555
O2E C8E 1_555 1_555
C1E N1 1_555 1_555
H1E C1E 1_555 1_555
C2E C3 1_555 1_555
C5E C4 1_555 1_555
H2E C5E 1_555 1_555
C6E C7 1_555 1_555
C8E C6E 1_555 1_555
N2A C9A 1_555 1_555
N3A C10A 1_555 1_555
C9A H4A 1_555 1_555
C10A C9A 1_555 1_555
H5A C10A 1_555 1_555
C11A N2A 1_555 1_555
H6A C11A 1_555 1_555
C12A N3A 1_555 1_555
C13A C12A 1_555 1_555
H7A C13A 1_555 1_555
C14A C13A 1_555 1_555
H8A C14A 1_555 1_555
C15A C15 1_555 1_555
C16A C15A 1_555 1_555
H9A C16A 1_555 1_555
C17A C12A 1_555 1_555
H10A C17A 1_555 1_555
C10D N3A 1_555 1_555
H5D C10D 1_555 1_555
C14D C13A 1_555 1_555
H8D C14D 1_555 1_555
C17D C12A 1_555 1_555
H10D C17D 1_555 1_555
C10E N3 1_555 1_555
H5E C10E 1_555 1_555
C14E C13 1_555 1_555
H8E C14E 1_555 1_555
C17E C12 1_555 1_555
H10E C17E 1_555 1_555
Co1A N2A 1_555 1_555
N1A C1A 1_555 1_555
O1A C8A 1_555 1_555
O2A Co1A 1_555 1_555
C1A H1A 1_555 1_555
C2A C1A 1_555 1_555
C3A C2A 1_555 1_555
C4A C3A 1_555 1_555
C5A C4A 1_555 1_555
H2A C5A 1_555 1_555
C6A C5A 1_555 1_555
C7A C6A 1_555 1_555
H3A C7A 1_555 1_555
C8A O2A 1_555 1_555
O1D C8D 1_555 1_555
O2D C8D 1_555 1_555
C1D N1A 1_555 1_555
H1D C1D 1_555 1_555
C2D C3A 1_555 1_555
C5D C4A 1_555 1_555
H2D C5D 1_555 1_555
C6D C7A 1_555 1_555
C8D C6D 1_555 1_555
Co1_2 O2E 1_555 1_555
Co1A_2 O2D 1_555 1_555
Co1B N1A 1_555 1_555
Co1C N1 1_555 1_555
N1B Co1 1_555 1_555
N1C Co1A 1_555 1_555
O2D_2 Co1A 1_555 1_555
O2E_2 Co1 1_555 1_555
N3 C11 1_555 1_555
C6 C8 1_555 1_555
C9 C10E 1_555 1_555
C10 C10E 1_555 1_555
C14 C14E 1_555 1_555
C15 C14E 1_555 1_555
C16 C17 1_555 1_555
C16 C17E 1_555 1_555
C17 C17E 1_555 1_555
C1E C2E 1_555 1_555
C5E C6E 1_555 1_555
N3A C11A 1_555 1_555
C9A C10D 1_555 1_555
C10A C10D 1_555 1_555
C14A C15A 1_555 1_555
C14A C14D 1_555 1_555
C15A C14D 1_555 1_555
C16A C17A 1_555 1_555
C16A C17D 1_555 1_555
C17A C17D 1_555 1_555
C6A C8A 1_555 1_555
C1D C2D 1_555 1_555
C5D C6D 1_555 1_555

#END
