
#######################################################################
#
#                 Cambridge Crystallographic Data Centre
#                                CCDC 
#
#######################################################################
#
# If this CIF has been generated from an entry in the Cambridge 
# Structural Database, then it will include bibliographic, chemical, 
# crystal, experimental, refinement or atomic coordinate data resulting 
# from the CCDC's data processing and validation procedures.
#
#######################################################################

data_CUCSAU
_chemical_formula_moiety         '(C104 H146 Li10 N20)n'
_symmetry_cell_setting           triclinic
_symmetry_space_group_name_H-M   'P -1'
_symmetry_Int_Tables_number      2
_space_group_name_Hall           '-P 1'
loop_
_symmetry_equiv_pos_site_id
_symmetry_equiv_pos_as_xyz
1 x,y,z
2 -x,-y,-z
_cell_length_a                   11.2049(16)
_cell_length_b                   16.726(3)
_cell_length_c                   17.152(3)
_cell_angle_alpha                64.592(3)
_cell_angle_beta                 80.095(4)
_cell_angle_gamma                85.225(4)
_cell_volume                     2860.15
loop_
_atom_site_label
_atom_site_type_symbol
_atom_site_fract_x
_atom_site_fract_y
_atom_site_fract_z
N1 N -0.1074(13) -0.0194(7) 0.0516(7)
C1 C -0.2238(18) -0.0528(8) 0.0966(9)
C2 C -0.0996(16) 0.0311(10) -0.0325(10)
C3 C -0.0139(17) -0.0728(9) 0.0759(8)
H1 H -0.2854 -0.0072 0.0738
H2 H -0.2268 -0.0694 0.1590
H3 H -0.2395 -0.1050 0.0879
H4 H -0.1628 0.0779 -0.0412
H5 H -0.1186 -0.0053 -0.0614
H6 H -0.0203 -0.1249 0.0637
H7 H -0.0167 -0.0943 0.1397
N1A N 0.1074(13) 0.0194(7) -0.0516(7)
C1A C 0.2238(18) 0.0528(8) -0.0966(9)
C2A C 0.0996(16) -0.0311(10) 0.0325(10)
C3A C 0.0139(17) 0.0728(9) -0.0759(8)
H1A H 0.2854 0.0072 -0.0738
H2A H 0.2268 0.0694 -0.1590
H3A H 0.2395 0.1050 -0.0879
H4A H 0.1628 -0.0779 0.0412
H5A H 0.1186 0.0053 0.0614
H6A H 0.0203 0.1249 -0.0637
H7A H 0.0167 0.0943 -0.1397
C4 C 0.4662(5) 0.2730(5) 0.5908(4)
C5 C 0.3866(6) 0.2034(5) 0.6475(5)
H8 H 0.3262 0.2093 0.6910
C6 C 0.4020(8) 0.1271(6) 0.6357(6)
H9 H 0.3499 0.0793 0.6734
C7 C 0.4899(8) 0.1133(6) 0.5715(6)
H10 H 0.4957 0.0593 0.5654
C8 C 0.5618(7) 0.1796(5) 0.5218(5)
H11 H 0.6230 0.1730 0.4791
C9 C 0.5516(5) 0.2616(4) 0.5294(4)
H12 H 0.6047 0.3086 0.4914
C10 C 0.4552(6) 0.3547(5) 0.5982(5)
H13 H 0.3902 0.3507 0.6459
H14 H 0.4360 0.4021 0.5434
H15 H 0.5317 0.3677 0.6105
C11 C 0.4366(10) -0.1705(6) 0.0890(11)
C12 C 0.4075(10) -0.1667(5) 0.0096(9)
H16 H 0.4613 -0.1394 -0.0436
C13 C 0.3055(10) -0.2013(5) 0.0108(7)
H17 H 0.2848 -0.1997 -0.0413
C14 C 0.2299(8) -0.2394(5) 0.0883(5)
H18 H 0.1561 -0.2635 0.0882
C15 C 0.2537(7) -0.2450(4) 0.1659(6)
H19 H 0.1966 -0.2724 0.2172
C16 C 0.3637(9) -0.2102(5) 0.1716(10)
H20 H 0.3846 -0.2134 0.2243
C17 C 0.5436(12) -0.1330(9) 0.0873(17)
H21 H 0.5882 -0.1091 0.0278
H22 H 0.5932 -0.1783 0.1268
H23 H 0.5247 -0.0851 0.1062
N2 N 0.5032(3) 0.4145(2) 0.0729(2)
C18 C 0.5717(4) 0.3392(3) 0.1293(3)
H24 H 0.5511 0.2851 0.1257
H25 H 0.5509 0.3321 0.1898
H26 H 0.6587 0.3501 0.1100
C19 C 0.5342(3) 0.4258(3) -0.0183(2)
H27 H 0.5131 0.3716 -0.0224
H28 H 0.6225 0.4350 -0.0373
C20 C 0.5335(3) 0.4957(3) 0.0775(2)
H29 H 0.6218 0.5059 0.0599
H30 H 0.5120 0.4892 0.1384
N3 N -0.0053(3) 0.4035(2) 0.03974(18)
C21 C -0.0561(4) 0.3251(3) 0.0387(3)
H31 H -0.1019 0.2900 0.0962
H32 H 0.0100 0.2890 0.0247
H33 H -0.1101 0.3445 -0.0055
C22 C -0.1070(3) 0.4595(2) 0.0553(2)
H34 H -0.1523 0.4274 0.1147
H35 H -0.1631 0.4715 0.0128
C23 C 0.0635(3) 0.4548(2) -0.0469(2)
H36 H 0.0114 0.4669 -0.0920
H37 H 0.1340 0.4192 -0.0578
N4 N 0.0967(3) 0.06519(19) 0.47022(19)
C24 C 0.2239(4) 0.0824(3) 0.4663(3)
H38 H 0.2611 0.1130 0.4051
H39 H 0.2666 0.0261 0.4942
H40 H 0.2292 0.1195 0.4968
C25 C 0.0880(4) 0.0050(3) 0.4285(2)
H41 H 0.1363 -0.0493 0.4561
H42 H 0.1224 0.0343 0.3659
C26 C 0.0414(4) 0.0196(2) 0.5627(2)
H43 H 0.0443 0.0588 0.5922
H44 H 0.0890 -0.0346 0.5921
N5 N -0.1051(3) 0.4625(2) 0.4900(2)
C27 C -0.2364(4) 0.4486(3) 0.5079(3)
H45 H -0.2694 0.4741 0.4528
H46 H -0.2746 0.4775 0.5452
H47 H -0.2529 0.3851 0.5378
C28 C -0.0532(4) 0.4249(3) 0.5713(2)
H48 H -0.0679 0.3604 0.6013
H49 H -0.0935 0.4518 0.6105
C29 C -0.0812(4) 0.5586(3) 0.4466(2)
H50 H -0.1219 0.5869 0.4845
H51 H -0.1147 0.5853 0.3910
N6 N 0.2583(3) 0.2888(2) 0.0907(2)
H52 H 0.240(4) 0.305(3) 0.040(3)
C30 C 0.2889(3) 0.2005(3) 0.1283(3)
C31 C 0.2728(4) 0.1387(3) 0.0951(3)
H53 H 0.2377 0.1581 0.0433
C32 C 0.3070(5) 0.0502(3) 0.1361(4)
H54 H 0.2943 0.0107 0.1118
C33 C 0.3590(5) 0.0185(3) 0.2116(4)
H55 H 0.3828 -0.0419 0.2389
C34 C 0.3750(4) 0.0761(3) 0.2455(3)
H56 H 0.4103 0.0555 0.2974
C35 C 0.3410(4) 0.1641(3) 0.2060(3)
H57 H 0.3532 0.2020 0.2323
N7 N 0.1799(3) 0.4232(2) 0.1817(2)
H58 H 0.152(3) 0.476(3) 0.152(3)
C36 C 0.2571(3) 0.4311(3) 0.2332(2)
C37 C 0.3166(3) 0.3553(3) 0.2881(2)
H59 H 0.3018 0.2992 0.2901
C38 C 0.3962(4) 0.3608(4) 0.3392(3)
H60 H 0.4344 0.3085 0.3759
C39 C 0.4207(4) 0.4404(5) 0.3374(3)
H61 H 0.4757 0.4438 0.3723
C40 C 0.3642(4) 0.5154(4) 0.2842(3)
H62 H 0.3809 0.5710 0.2824
C41 C 0.2835(4) 0.5117(3) 0.2331(3)
H63 H 0.2454 0.5646 0.1973
N8 N 0.0325(3) 0.2387(2) 0.26847(19)
H64 H 0.097(4) 0.215(3) 0.254(2)
C42 C -0.0625(3) 0.1940(2) 0.2625(2)
C43 C -0.0455(4) 0.1315(3) 0.2272(2)
H65 H 0.0343 0.1173 0.2071
C44 C -0.1433(5) 0.0900(3) 0.2212(3)
H66 H -0.1293 0.0478 0.1972
C45 C -0.2588(5) 0.1085(3) 0.2488(4)
H67 H -0.3248 0.0799 0.2435
C46 C -0.2796(4) 0.1692(3) 0.2847(3)
H68 H -0.3600 0.1819 0.3050
C47 C -0.1821(4) 0.2115(3) 0.2910(3)
H69 H -0.1974 0.2535 0.3153
N9 N 0.0667(3) 0.2972(2) 0.42270(19)
H70 H 0.146(4) 0.306(3) 0.418(2)
C48 C 0.0206(3) 0.2514(2) 0.5101(2)
C49 C 0.0907(4) 0.2256(3) 0.5790(2)
H71 H 0.1741 0.2405 0.5659
C50 C 0.0387(4) 0.1793(3) 0.6646(3)
H72 H 0.0869 0.1632 0.7097
C51 C -0.0814(4) 0.1557(3) 0.6863(3)
H73 H -0.1156 0.1232 0.7456
C52 C -0.1506(4) 0.1797(3) 0.6214(3)
H74 H -0.2336 0.1638 0.6360
C53 C -0.1014(3) 0.2272(2) 0.5341(2)
H75 H -0.1517 0.2434 0.4902
N10 N -0.1195(3) 0.4256(2) 0.3026(2)
H76 H -0.183(4) 0.389(3) 0.317(3)
C54 C -0.1569(3) 0.5113(3) 0.2563(2)
C55 C -0.2727(4) 0.5342(3) 0.2307(3)
H77 H -0.3287 0.4884 0.2459
C56 C -0.3074(5) 0.6202(4) 0.1846(3)
H78 H -0.3859 0.6328 0.1680
C57 C -0.2303(6) 0.6874(4) 0.1627(3)
H79 H -0.2544 0.7470 0.1308
C58 C -0.1153(6) 0.6682(3) 0.1874(3)
H80 H -0.0611 0.7150 0.1727
C59 C -0.0797(4) 0.5821(3) 0.2327(2)
H81 H -0.0007 0.5704 0.2485
Li1 Li 0.3242(6) 0.3773(5) 0.1153(4)
Li2 Li 0.1055(5) 0.3384(4) 0.1428(4)
Li3 Li 0.0335(6) 0.3546(4) 0.2858(4)
Li4 Li 0.0394(6) 0.1925(4) 0.3977(4)
Li5 Li -0.0486(6) 0.4001(4) 0.4073(4)
N2A N 0.4968(3) 0.5855(2) -0.0729(2)
C18A C 0.4283(4) 0.6608(3) -0.1293(3)
H24A H 0.4489 0.7149 -0.1257
H25A H 0.4491 0.6679 -0.1898
H26A H 0.3413 0.6499 -0.1100
C19A C 0.4658(3) 0.5742(3) 0.0183(2)
H27A H 0.4869 0.6284 0.0224
H28A H 0.3775 0.5650 0.0373
C20A C 0.4665(3) 0.5043(3) -0.0775(2)
H29A H 0.3782 0.4941 -0.0599
H30A H 0.4880 0.5108 -0.1384
N3A N 0.0053(3) 0.5965(2) -0.03974(18)
C21A C 0.0561(4) 0.6749(3) -0.0387(3)
H31A H 0.1019 0.7100 -0.0962
H32A H -0.0100 0.7110 -0.0247
H33A H 0.1101 0.6555 0.0055
C22A C 0.1070(3) 0.5405(2) -0.0553(2)
H34A H 0.1523 0.5726 -0.1147
H35A H 0.1631 0.5285 -0.0128
C23A C -0.0635(3) 0.5452(2) 0.0469(2)
H36A H -0.0114 0.5331 0.0920
H37A H -0.1340 0.5808 0.0578
N4A N -0.0967(3) -0.06519(19) 0.52978(19)
C24A C -0.2239(4) -0.0824(3) 0.5337(3)
H38A H -0.2611 -0.1130 0.5949
H39A H -0.2666 -0.0261 0.5058
H40A H -0.2292 -0.1195 0.5032
C25A C -0.0880(4) -0.0050(3) 0.5715(2)
H41A H -0.1363 0.0493 0.5439
H42A H -0.1224 -0.0343 0.6341
C26A C -0.0414(4) -0.0196(2) 0.4373(2)
H43A H -0.0443 -0.0588 0.4078
H44A H -0.0890 0.0346 0.4079
N5A N 0.1051(3) 0.5375(2) 0.5100(2)
C27A C 0.2364(4) 0.5514(3) 0.4921(3)
H45A H 0.2694 0.5259 0.5472
H46A H 0.2746 0.5225 0.4548
H47A H 0.2529 0.6149 0.4622
C28A C 0.0532(4) 0.5751(3) 0.4287(2)
H48A H 0.0679 0.6396 0.3987
H49A H 0.0935 0.5482 0.3895
C29A C 0.0812(4) 0.4414(3) 0.5534(2)
H50A H 0.1219 0.4131 0.5155
H51A H 0.1147 0.4147 0.6090
N6A N -0.2583(3) -0.2888(2) 0.9093(2)
H52A H -0.240(4) -0.305(3) 0.960(3)
C30A C -0.2889(3) -0.2005(3) 0.8717(3)
C31A C -0.2728(4) -0.1387(3) 0.9049(3)
H53A H -0.2377 -0.1581 0.9567
C32A C -0.3070(5) -0.0502(3) 0.8639(4)
H54A H -0.2943 -0.0107 0.8882
C33A C -0.3590(5) -0.0185(3) 0.7884(4)
H55A H -0.3828 0.0419 0.7611
C34A C -0.3750(4) -0.0761(3) 0.7545(3)
H56A H -0.4103 -0.0555 0.7026
C35A C -0.3410(4) -0.1641(3) 0.7940(3)
H57A H -0.3532 -0.2020 0.7677
N7A N -0.1799(3) -0.4232(2) 0.8183(2)
H58A H -0.152(3) -0.476(3) 0.848(3)
C36A C -0.2571(3) -0.4311(3) 0.7668(2)
C37A C -0.3166(3) -0.3553(3) 0.7119(2)
H59A H -0.3018 -0.2992 0.7099
C38A C -0.3962(4) -0.3608(4) 0.6608(3)
H60A H -0.4344 -0.3085 0.6241
C39A C -0.4207(4) -0.4404(5) 0.6626(3)
H61A H -0.4757 -0.4438 0.6277
C40A C -0.3642(4) -0.5154(4) 0.7158(3)
H62A H -0.3809 -0.5710 0.7176
C41A C -0.2835(4) -0.5117(3) 0.7669(3)
H63A H -0.2454 -0.5646 0.8027
N8A N -0.0325(3) -0.2387(2) 0.73153(19)
H64A H -0.097(4) -0.215(3) 0.746(2)
C42A C 0.0625(3) -0.1940(2) 0.7375(2)
C43A C 0.0455(4) -0.1315(3) 0.7728(2)
H65A H -0.0343 -0.1173 0.7929
C44A C 0.1433(5) -0.0900(3) 0.7788(3)
H66A H 0.1293 -0.0478 0.8028
C45A C 0.2588(5) -0.1085(3) 0.7512(4)
H67A H 0.3248 -0.0799 0.7565
C46A C 0.2796(4) -0.1692(3) 0.7153(3)
H68A H 0.3600 -0.1819 0.6950
C47A C 0.1821(4) -0.2115(3) 0.7090(3)
H69A H 0.1974 -0.2535 0.6847
N9A N -0.0667(3) -0.2972(2) 0.57730(19)
H70A H -0.146(4) -0.306(3) 0.582(2)
C48A C -0.0206(3) -0.2514(2) 0.4899(2)
C49A C -0.0907(4) -0.2256(3) 0.4210(2)
H71A H -0.1741 -0.2405 0.4341
C50A C -0.0387(4) -0.1793(3) 0.3354(3)
H72A H -0.0869 -0.1632 0.2903
C51A C 0.0814(4) -0.1557(3) 0.3137(3)
H73A H 0.1156 -0.1232 0.2544
C52A C 0.1506(4) -0.1797(3) 0.3786(3)
H74A H 0.2336 -0.1638 0.3640
C53A C 0.1014(3) -0.2272(2) 0.4659(2)
H75A H 0.1517 -0.2434 0.5098
N10A N 0.1195(3) -0.4256(2) 0.6974(2)
H76A H 0.183(4) -0.389(3) 0.683(3)
C54A C 0.1569(3) -0.5113(3) 0.7437(2)
C55A C 0.2727(4) -0.5342(3) 0.7693(3)
H77A H 0.3287 -0.4884 0.7541
C56A C 0.3074(5) -0.6202(4) 0.8154(3)
H78A H 0.3859 -0.6328 0.8320
C57A C 0.2303(6) -0.6874(4) 0.8373(3)
H79A H 0.2544 -0.7470 0.8692
C58A C 0.1153(6) -0.6682(3) 0.8126(3)
H80A H 0.0611 -0.7150 0.8273
C59A C 0.0797(4) -0.5821(3) 0.7673(2)
H81A H 0.0007 -0.5704 0.7515
Li1A Li -0.3242(6) -0.3773(5) 0.8847(4)
Li2A Li -0.1055(5) -0.3384(4) 0.8572(4)
Li3A Li -0.0335(6) -0.3546(4) 0.7142(4)
Li4A Li -0.0394(6) -0.1925(4) 0.6023(4)
Li5A Li 0.0486(6) -0.4001(4) 0.5927(4)
N2A_2 N -0.5032(3) -0.4145(2) 0.9271(2)
N3A_2 N 0.0053(3) -0.4035(2) 0.96026(18)
N5A_2 N 0.1051(3) -0.4625(2) 0.5100(2)
Li1A_2 Li 0.6758(6) 0.6227(5) -0.1153(4)
Li2A_2 Li -0.1055(5) 0.6616(4) -0.1428(4)
Li5A_2 Li 0.0486(6) 0.5999(4) 0.5927(4)
loop_
_geom_bond_atom_site_label_1
_geom_bond_atom_site_label_2
_geom_bond_site_symmetry_1
_geom_bond_site_symmetry_2
N1 C1 1_555 1_555
C1 H1 1_555 1_555
C2 N1 1_555 1_555
C3 N1 1_555 1_555
H2 C1 1_555 1_555
H3 C1 1_555 1_555
H4 C2 1_555 1_555
H5 C2 1_555 1_555
H6 C3 1_555 1_555
H7 C3 1_555 1_555
C4 C5 1_555 1_555
C5 H8 1_555 1_555
C6 C5 1_555 1_555
H9 C6 1_555 1_555
C7 C6 1_555 1_555
H10 C7 1_555 1_555
C8 C7 1_555 1_555
H11 C8 1_555 1_555
C9 C4 1_555 1_555
H12 C9 1_555 1_555
C10 C4 1_555 1_555
H13 C10 1_555 1_555
H14 C10 1_555 1_555
H15 C10 1_555 1_555
C11 C12 1_555 1_555
C12 H16 1_555 1_555
C13 C12 1_555 1_555
H17 C13 1_555 1_555
C14 C13 1_555 1_555
H18 C14 1_555 1_555
C15 C14 1_555 1_555
H19 C15 1_555 1_555
C16 C11 1_555 1_555
H20 C16 1_555 1_555
C17 C11 1_555 1_555
H21 C17 1_555 1_555
H22 C17 1_555 1_555
H23 C17 1_555 1_555
N2 C18 1_555 1_555
C18 H24 1_555 1_555
H25 C18 1_555 1_555
H26 C18 1_555 1_555
C19 N2 1_555 1_555
H27 C19 1_555 1_555
H28 C19 1_555 1_555
C20 N2 1_555 1_555
H29 C20 1_555 1_555
H30 C20 1_555 1_555
N3 C21 1_555 1_555
C21 H31 1_555 1_555
H32 C21 1_555 1_555
H33 C21 1_555 1_555
C22 N3 1_555 1_555
H34 C22 1_555 1_555
H35 C22 1_555 1_555
C23 N3 1_555 1_555
H36 C23 1_555 1_555
H37 C23 1_555 1_555
N4 C24 1_555 1_555
C24 H38 1_555 1_555
H39 C24 1_555 1_555
H40 C24 1_555 1_555
C25 N4 1_555 1_555
H41 C25 1_555 1_555
H42 C25 1_555 1_555
C26 N4 1_555 1_555
H43 C26 1_555 1_555
H44 C26 1_555 1_555
N5 C27 1_555 1_555
C27 H45 1_555 1_555
H46 C27 1_555 1_555
H47 C27 1_555 1_555
C28 N5 1_555 1_555
H48 C28 1_555 1_555
H49 C28 1_555 1_555
C29 N5 1_555 1_555
H50 C29 1_555 1_555
H51 C29 1_555 1_555
N6 H52 1_555 1_555
C30 N6 1_555 1_555
C31 C30 1_555 1_555
H53 C31 1_555 1_555
C32 C31 1_555 1_555
H54 C32 1_555 1_555
C33 C32 1_555 1_555
H55 C33 1_555 1_555
C34 C33 1_555 1_555
H56 C34 1_555 1_555
C35 C30 1_555 1_555
H57 C35 1_555 1_555
N7 H58 1_555 1_555
C36 N7 1_555 1_555
C37 C36 1_555 1_555
H59 C37 1_555 1_555
C38 C37 1_555 1_555
H60 C38 1_555 1_555
C39 C38 1_555 1_555
H61 C39 1_555 1_555
C40 C39 1_555 1_555
H62 C40 1_555 1_555
C41 C36 1_555 1_555
H63 C41 1_555 1_555
N8 H64 1_555 1_555
C42 N8 1_555 1_555
C43 C42 1_555 1_555
H65 C43 1_555 1_555
C44 C43 1_555 1_555
H66 C44 1_555 1_555
C45 C44 1_555 1_555
H67 C45 1_555 1_555
C46 C45 1_555 1_555
H68 C46 1_555 1_555
C47 C42 1_555 1_555
H69 C47 1_555 1_555
N9 H70 1_555 1_555
C48 N9 1_555 1_555
C49 C48 1_555 1_555
H71 C49 1_555 1_555
C50 C49 1_555 1_555
H72 C50 1_555 1_555
C51 C50 1_555 1_555
H73 C51 1_555 1_555
C52 C51 1_555 1_555
H74 C52 1_555 1_555
C53 C48 1_555 1_555
H75 C53 1_555 1_555
N10 H76 1_555 1_555
C54 N10 1_555 1_555
C55 C54 1_555 1_555
H77 C55 1_555 1_555
C56 C55 1_555 1_555
H78 C56 1_555 1_555
C57 C56 1_555 1_555
H79 C57 1_555 1_555
C58 C57 1_555 1_555
H80 C58 1_555 1_555
C59 C54 1_555 1_555
H81 C59 1_555 1_555
Li1 N2 1_555 1_555
Li2 N3 1_555 1_555
Li3 N7 1_555 1_555
Li4 N4 1_555 1_555
Li5 N5 1_555 1_555
N1A C1A 1_555 1_555
C1A H1A 1_555 1_555
C2A C3 1_555 1_555
C3A C2 1_555 1_555
H2A C1A 1_555 1_555
H3A C1A 1_555 1_555
H4A C2A 1_555 1_555
H5A C2A 1_555 1_555
H6A C3A 1_555 1_555
H7A C3A 1_555 1_555
N2A C18A 1_555 1_555
C18A H24A 1_555 1_555
H25A C18A 1_555 1_555
H26A C18A 1_555 1_555
C19A C20 1_555 1_555
H27A C19A 1_555 1_555
H28A C19A 1_555 1_555
C20A C19 1_555 1_555
H29A C20A 1_555 1_555
H30A C20A 1_555 1_555
N3A C21A 1_555 1_555
C21A H31A 1_555 1_555
H32A C21A 1_555 1_555
H33A C21A 1_555 1_555
C22A C23 1_555 1_555
H34A C22A 1_555 1_555
H35A C22A 1_555 1_555
C23A C22 1_555 1_555
H36A C23A 1_555 1_555
H37A C23A 1_555 1_555
N4A C24A 1_555 1_555
C24A H38A 1_555 1_555
H39A C24A 1_555 1_555
H40A C24A 1_555 1_555
C25A C26 1_555 1_555
H41A C25A 1_555 1_555
H42A C25A 1_555 1_555
C26A C25 1_555 1_555
H43A C26A 1_555 1_555
H44A C26A 1_555 1_555
N5A C27A 1_555 1_555
C27A H45A 1_555 1_555
H46A C27A 1_555 1_555
H47A C27A 1_555 1_555
C28A C29 1_555 1_555
H48A C28A 1_555 1_555
H49A C28A 1_555 1_555
C29A C28 1_555 1_555
H50A C29A 1_555 1_555
H51A C29A 1_555 1_555
N6A H52A 1_555 1_555
C30A N6A 1_555 1_555
C31A C30A 1_555 1_555
H53A C31A 1_555 1_555
C32A C31A 1_555 1_555
H54A C32A 1_555 1_555
C33A C32A 1_555 1_555
H55A C33A 1_555 1_555
C34A C33A 1_555 1_555
H56A C34A 1_555 1_555
C35A C30A 1_555 1_555
H57A C35A 1_555 1_555
N7A H58A 1_555 1_555
C36A N7A 1_555 1_555
C37A C36A 1_555 1_555
H59A C37A 1_555 1_555
C38A C37A 1_555 1_555
H60A C38A 1_555 1_555
C39A C38A 1_555 1_555
H61A C39A 1_555 1_555
C40A C39A 1_555 1_555
H62A C40A 1_555 1_555
C41A C36A 1_555 1_555
H63A C41A 1_555 1_555
N8A H64A 1_555 1_555
C42A N8A 1_555 1_555
C43A C42A 1_555 1_555
H65A C43A 1_555 1_555
C44A C43A 1_555 1_555
H66A C44A 1_555 1_555
C45A C44A 1_555 1_555
H67A C45A 1_555 1_555
C46A C45A 1_555 1_555
H68A C46A 1_555 1_555
C47A C42A 1_555 1_555
H69A C47A 1_555 1_555
N9A H70A 1_555 1_555
C48A N9A 1_555 1_555
C49A C48A 1_555 1_555
H71A C49A 1_555 1_555
C50A C49A 1_555 1_555
H72A C50A 1_555 1_555
C51A C50A 1_555 1_555
H73A C51A 1_555 1_555
C52A C51A 1_555 1_555
H74A C52A 1_555 1_555
C53A C48A 1_555 1_555
H75A C53A 1_555 1_555
N10A H76A 1_555 1_555
C54A N10A 1_555 1_555
C55A C54A 1_555 1_555
H77A C55A 1_555 1_555
C56A C55A 1_555 1_555
H78A C56A 1_555 1_555
C57A C56A 1_555 1_555
H79A C57A 1_555 1_555
C58A C57A 1_555 1_555
H80A C58A 1_555 1_555
C59A C54A 1_555 1_555
H81A C59A 1_555 1_555
Li1A N6A 1_555 1_555
Li2A N6A 1_555 1_555
Li3A N7A 1_555 1_555
Li4A N4A 1_555 1_555
Li5A N9A 1_555 1_555
N2A_2 Li1A 1_555 1_555
N3A_2 Li2A 1_555 1_555
N5A_2 Li5A 1_555 1_555
Li1A_2 N2A 1_555 1_555
Li2A_2 N3A 1_555 1_555
Li5A_2 N5A 1_555 1_555
C8 C9 1_555 1_555
C15 C16 1_555 1_555
N6 Li1 1_555 1_555
N6 Li2 1_555 1_555
C34 C35 1_555 1_555
N7 Li1 1_555 1_555
N7 Li2 1_555 1_555
C40 C41 1_555 1_555
N8 Li2 1_555 1_555
N8 Li3 1_555 1_555
N8 Li4 1_555 1_555
C46 C47 1_555 1_555
N9 Li3 1_555 1_555
N9 Li4 1_555 1_555
N9 Li5 1_555 1_555
C52 C53 1_555 1_555
N10 Li3 1_555 1_555
N10 Li5 1_555 1_555
C58 C59 1_555 1_555
N1A C2A 1_555 1_555
N1A C3A 1_555 1_555
N2A C19A 1_555 1_555
N2A C20A 1_555 1_555
N3A C22A 1_555 1_555
N3A C23A 1_555 1_555
N4A C25A 1_555 1_555
N4A C26A 1_555 1_555
N5A C28A 1_555 1_555
N5A C29A 1_555 1_555
C34A C35A 1_555 1_555
N7A Li1A 1_555 1_555
N7A Li2A 1_555 1_555
C40A C41A 1_555 1_555
N8A Li2A 1_555 1_555
N8A Li3A 1_555 1_555
N8A Li4A 1_555 1_555
C46A C47A 1_555 1_555
N9A Li3A 1_555 1_555
N9A Li4A 1_555 1_555
C52A C53A 1_555 1_555
N10A Li3A 1_555 1_555
N10A Li5A 1_555 1_555
C58A C59A 1_555 1_555

#END
