
#######################################################################
#
#                 Cambridge Crystallographic Data Centre
#                                CCDC 
#
#######################################################################
#
# If this CIF has been generated from an entry in the Cambridge 
# Structural Database, then it will include bibliographic, chemical, 
# crystal, experimental, refinement or atomic coordinate data resulting 
# from the CCDC's data processing and validation procedures.
#
#######################################################################

data_UNEJEE
_chemical_formula_moiety         'C120 H48 O72 Zr26'
_symmetry_cell_setting           cubic
_symmetry_space_group_name_H-M   'P m -3 m'
_symmetry_Int_Tables_number      221
_space_group_name_Hall           '-P 4 2 3'
loop_
_symmetry_equiv_pos_site_id
_symmetry_equiv_pos_as_xyz
1 x,y,z
2 -y,x,z
3 -x,-y,z
4 y,-x,z
5 x,-z,y
6 x,-y,-z
7 x,z,-y
8 z,y,-x
9 -x,y,-z
10 -z,y,x
11 z,x,y
12 y,z,x
13 -y,-z,x
14 z,-x,-y
15 -y,z,-x
16 -z,-x,y
17 -z,x,-y
18 y,-z,-x
19 y,x,-z
20 -y,-x,-z
21 -x,z,y
22 -x,-z,-y
23 z,-y,x
24 -z,-y,-x
25 -x,-y,-z
26 y,-x,-z
27 x,y,-z
28 -y,x,-z
29 -x,z,-y
30 -x,y,z
31 -x,-z,y
32 -z,-y,x
33 x,-y,z
34 z,-y,-x
35 -z,-x,-y
36 -y,-z,-x
37 y,z,-x
38 -z,x,y
39 y,-z,x
40 z,x,-y
41 z,-x,y
42 -y,z,x
43 -y,-x,z
44 y,x,z
45 x,-z,-y
46 x,z,y
47 -z,y,-x
48 z,y,x
_cell_length_a                   28.1991(7)
_cell_length_b                   28.1991(7)
_cell_length_c                   28.1991(7)
_cell_angle_alpha                90
_cell_angle_beta                 90
_cell_angle_gamma                90
_cell_volume                     22423.6
loop_
_atom_site_label
_atom_site_type_symbol
_atom_site_fract_x
_atom_site_fract_y
_atom_site_fract_z
Zr1 Zr 0.41264(4) 0.0000 0.0000
Zr2 Zr 0.5000 0.06254(2) 0.06254(2)
O1 O 0.37330(16) 0.04834(15) 0.04834(15)
O2 O 0.42854(19) 0.08755(14) 0.08755(14)
O3 O 0.4582(2) 0.0000 0.0620(3)
O4 O 0.5000 0.0549(3) 0.1409(2)
C1 C 0.3852(2) 0.0788(2) 0.0788(2)
C2 C 0.3511(3) 0.1008(3) 0.1008(3)
C3 C 0.3029(4) 0.0946(3) 0.0946(3)
H1 H 0.2933 0.0723 0.0723
C4 C 0.2670(4) 0.1192(4) 0.1192(4)
H2 H 0.2355 0.1124 0.1124
C5 C 0.2770(3) 0.1522(3) 0.1522(3)
C6 C 0.3247(4) 0.1624(3) 0.1624(3)
H3 H 0.3331 0.1849 0.1849
C7 C 0.3593(4) 0.1368(3) 0.1368(3)
H4 H 0.3908 0.1438 0.1438
C8 C 0.2376(3) 0.1765(3) 0.1765(3)
C9 C 0.2154(3) 0.2154(3) 0.1549(4)
C10 C 0.2388(3) 0.2388(3) 0.1119(4)
O1J O 0.04834(15) 0.37330(16) 0.04834(15)
O2J O 0.08755(14) 0.42854(19) 0.08755(14)
C1J C 0.0788(2) 0.3852(2) 0.0788(2)
C2J C 0.1008(3) 0.3511(3) 0.1008(3)
C3J C 0.0946(3) 0.3029(4) 0.0946(3)
H1J H 0.0723 0.2933 0.0723
C4J C 0.1192(4) 0.2670(4) 0.1192(4)
H2J H 0.1124 0.2355 0.1124
C5J C 0.1522(3) 0.2770(3) 0.1522(3)
C6J C 0.1624(3) 0.3247(4) 0.1624(3)
H3J H 0.1849 0.3331 0.1849
C7J C 0.1368(3) 0.3593(4) 0.1368(3)
H4J H 0.1438 0.3908 0.1438
C8J C 0.1765(3) 0.2376(3) 0.1765(3)
C9J C 0.1549(4) 0.2154(3) 0.2154(3)
C10J C 0.1119(4) 0.2388(3) 0.2388(3)
O1K O 0.04834(15) 0.04834(15) 0.37330(16)
O2K O 0.08755(14) 0.08755(14) 0.42854(19)
C1K C 0.0788(2) 0.0788(2) 0.3852(2)
C2K C 0.1008(3) 0.1008(3) 0.3511(3)
C3K C 0.0946(3) 0.0946(3) 0.3029(4)
H1K H 0.0723 0.0723 0.2933
C4K C 0.1192(4) 0.1192(4) 0.2670(4)
H2K H 0.1124 0.1124 0.2355
C5K C 0.1522(3) 0.1522(3) 0.2770(3)
C6K C 0.1624(3) 0.1624(3) 0.3247(4)
H3K H 0.1849 0.1849 0.3331
C7K C 0.1368(3) 0.1368(3) 0.3593(4)
H4K H 0.1438 0.1438 0.3908
C8K C 0.1765(3) 0.1765(3) 0.2376(3)
C9K C 0.2154(3) 0.1549(4) 0.2154(3)
C10K C 0.2388(3) 0.1119(4) 0.2388(3)
Zr1A Zr -0.0000 0.41264(4) 0.0000
O1A O -0.04834(15) 0.37330(16) 0.04834(15)
O2A O -0.08755(14) 0.42854(19) 0.08755(14)
O3A O -0.0000 0.4582(2) 0.0620(3)
C1A C -0.0788(2) 0.3852(2) 0.0788(2)
C2A C -0.1008(3) 0.3511(3) 0.1008(3)
C3A C -0.0946(3) 0.3029(4) 0.0946(3)
H1A H -0.0723 0.2933 0.0723
C4A C -0.1192(4) 0.2670(4) 0.1192(4)
H2A H -0.1124 0.2355 0.1124
C5A C -0.1522(3) 0.2770(3) 0.1522(3)
C6A C -0.1624(3) 0.3247(4) 0.1624(3)
H3A H -0.1849 0.3331 0.1849
C7A C -0.1368(3) 0.3593(4) 0.1368(3)
H4A H -0.1438 0.3908 0.1438
C8A C -0.1765(3) 0.2376(3) 0.1765(3)
C9A C -0.2154(3) 0.2154(3) 0.1549(4)
C10A C -0.2388(3) 0.2388(3) 0.1119(4)
O1T O -0.37330(16) 0.04834(15) 0.04834(15)
O2T O -0.42854(19) 0.08755(14) 0.08755(14)
C1T C -0.3852(2) 0.0788(2) 0.0788(2)
C2T C -0.3511(3) 0.1008(3) 0.1008(3)
C3T C -0.3029(4) 0.0946(3) 0.0946(3)
H1T H -0.2933 0.0723 0.0723
C4T C -0.2670(4) 0.1192(4) 0.1192(4)
H2T H -0.2355 0.1124 0.1124
C5T C -0.2770(3) 0.1522(3) 0.1522(3)
C6T C -0.3247(4) 0.1624(3) 0.1624(3)
H3T H -0.3331 0.1849 0.1849
C7T C -0.3593(4) 0.1368(3) 0.1368(3)
H4T H -0.3908 0.1438 0.1438
C8T C -0.2376(3) 0.1765(3) 0.1765(3)
C9T C -0.2154(3) 0.1549(4) 0.2154(3)
C10T C -0.2388(3) 0.1119(4) 0.2388(3)
O1I O -0.04834(15) 0.04834(15) 0.37330(16)
O2I O -0.08755(14) 0.08755(14) 0.42854(19)
C1I C -0.0788(2) 0.0788(2) 0.3852(2)
C2I C -0.1008(3) 0.1008(3) 0.3511(3)
C3I C -0.0946(3) 0.0946(3) 0.3029(4)
H1I H -0.0723 0.0723 0.2933
C4I C -0.1192(4) 0.1192(4) 0.2670(4)
H2I H -0.1124 0.1124 0.2355
C5I C -0.1522(3) 0.1522(3) 0.2770(3)
C6I C -0.1624(3) 0.1624(3) 0.3247(4)
H3I H -0.1849 0.1849 0.3331
C7I C -0.1368(3) 0.1368(3) 0.3593(4)
H4I H -0.1438 0.1438 0.3908
C8I C -0.1765(3) 0.1765(3) 0.2376(3)
C9I C -0.1549(4) 0.2154(3) 0.2154(3)
C10I C -0.1119(4) 0.2388(3) 0.2388(3)
Zr1B Zr -0.41264(4) 0.0000 0.0000
O1B O -0.37330(16) -0.04834(15) 0.04834(15)
O2B O -0.42854(19) -0.08755(14) 0.08755(14)
O3B O -0.4582(2) 0.0000 0.0620(3)
C1B C -0.3852(2) -0.0788(2) 0.0788(2)
C2B C -0.3511(3) -0.1008(3) 0.1008(3)
C3B C -0.3029(4) -0.0946(3) 0.0946(3)
H1B H -0.2933 -0.0723 0.0723
C4B C -0.2670(4) -0.1192(4) 0.1192(4)
H2B H -0.2355 -0.1124 0.1124
C5B C -0.2770(3) -0.1522(3) 0.1522(3)
C6B C -0.3247(4) -0.1624(3) 0.1624(3)
H3B H -0.3331 -0.1849 0.1849
C7B C -0.3593(4) -0.1368(3) 0.1368(3)
H4B H -0.3908 -0.1438 0.1438
C8B C -0.2376(3) -0.1765(3) 0.1765(3)
C9B C -0.2154(3) -0.2154(3) 0.1549(4)
C10B C -0.2388(3) -0.2388(3) 0.1119(4)
O1O O -0.04834(15) -0.37330(16) 0.04834(15)
O2O O -0.08755(14) -0.42854(19) 0.08755(14)
C1O C -0.0788(2) -0.3852(2) 0.0788(2)
C2O C -0.1008(3) -0.3511(3) 0.1008(3)
C3O C -0.0946(3) -0.3029(4) 0.0946(3)
H1O H -0.0723 -0.2933 0.0723
C4O C -0.1192(4) -0.2670(4) 0.1192(4)
H2O H -0.1124 -0.2355 0.1124
C5O C -0.1522(3) -0.2770(3) 0.1522(3)
C6O C -0.1624(3) -0.3247(4) 0.1624(3)
H3O H -0.1849 -0.3331 0.1849
C7O C -0.1368(3) -0.3593(4) 0.1368(3)
H4O H -0.1438 -0.3908 0.1438
C8O C -0.1765(3) -0.2376(3) 0.1765(3)
C9O C -0.1549(4) -0.2154(3) 0.2154(3)
C10O C -0.1119(4) -0.2388(3) 0.2388(3)
O1L O -0.04834(15) -0.04834(15) 0.37330(16)
O2L O -0.08755(14) -0.08755(14) 0.42854(19)
C1L C -0.0788(2) -0.0788(2) 0.3852(2)
C2L C -0.1008(3) -0.1008(3) 0.3511(3)
C3L C -0.0946(3) -0.0946(3) 0.3029(4)
H1L H -0.0723 -0.0723 0.2933
C4L C -0.1192(4) -0.1192(4) 0.2670(4)
H2L H -0.1124 -0.1124 0.2355
C5L C -0.1522(3) -0.1522(3) 0.2770(3)
C6L C -0.1624(3) -0.1624(3) 0.3247(4)
H3L H -0.1849 -0.1849 0.3331
C7L C -0.1368(3) -0.1368(3) 0.3593(4)
H4L H -0.1438 -0.1438 0.3908
C8L C -0.1765(3) -0.1765(3) 0.2376(3)
C9L C -0.2154(3) -0.1549(4) 0.2154(3)
C10L C -0.2388(3) -0.1119(4) 0.2388(3)
O1C O 0.04834(15) -0.37330(16) 0.04834(15)
O2C O 0.08755(14) -0.42854(19) 0.08755(14)
C1C C 0.0788(2) -0.3852(2) 0.0788(2)
C2C C 0.1008(3) -0.3511(3) 0.1008(3)
C3C C 0.0946(3) -0.3029(4) 0.0946(3)
H1C H 0.0723 -0.2933 0.0723
C4C C 0.1192(4) -0.2670(4) 0.1192(4)
H2C H 0.1124 -0.2355 0.1124
C5C C 0.1522(3) -0.2770(3) 0.1522(3)
C6C C 0.1624(3) -0.3247(4) 0.1624(3)
H3C H 0.1849 -0.3331 0.1849
C7C C 0.1368(3) -0.3593(4) 0.1368(3)
H4C H 0.1438 -0.3908 0.1438
C8C C 0.1765(3) -0.2376(3) 0.1765(3)
C9C C 0.2154(3) -0.2154(3) 0.1549(4)
C10C C 0.2388(3) -0.2388(3) 0.1119(4)
O1D O 0.37330(16) -0.04834(15) 0.04834(15)
O2D O 0.42854(19) -0.08755(14) 0.08755(14)
C1D C 0.3852(2) -0.0788(2) 0.0788(2)
C2D C 0.3511(3) -0.1008(3) 0.1008(3)
C3D C 0.3029(4) -0.0946(3) 0.0946(3)
H1D H 0.2933 -0.0723 0.0723
C4D C 0.2670(4) -0.1192(4) 0.1192(4)
H2D H 0.2355 -0.1124 0.1124
C5D C 0.2770(3) -0.1522(3) 0.1522(3)
C6D C 0.3247(4) -0.1624(3) 0.1624(3)
H3D H 0.3331 -0.1849 0.1849
C7D C 0.3593(4) -0.1368(3) 0.1368(3)
H4D H 0.3908 -0.1438 0.1438
C8D C 0.2376(3) -0.1765(3) 0.1765(3)
C9D C 0.2154(3) -0.1549(4) 0.2154(3)
C10D C 0.2388(3) -0.1119(4) 0.2388(3)
O1V O 0.04834(15) -0.04834(15) 0.37330(16)
O2V O 0.08755(14) -0.08755(14) 0.42854(19)
C1V C 0.0788(2) -0.0788(2) 0.3852(2)
C2V C 0.1008(3) -0.1008(3) 0.3511(3)
C3V C 0.0946(3) -0.0946(3) 0.3029(4)
H1V H 0.0723 -0.0723 0.2933
C4V C 0.1192(4) -0.1192(4) 0.2670(4)
H2V H 0.1124 -0.1124 0.2355
C5V C 0.1522(3) -0.1522(3) 0.2770(3)
C6V C 0.1624(3) -0.1624(3) 0.3247(4)
H3V H 0.1849 -0.1849 0.3331
C7V C 0.1368(3) -0.1368(3) 0.3593(4)
H4V H 0.1438 -0.1438 0.3908
C8V C 0.1765(3) -0.1765(3) 0.2376(3)
C9V C 0.1549(4) -0.2154(3) 0.2154(3)
C10V C 0.1119(4) -0.2388(3) 0.2388(3)
Zr2B Zr 0.5000 -0.06254(2) 0.06254(2)
O3D O 0.4582(2) -0.0620(3) 0.0000
O4D O 0.5000 -0.1409(2) 0.0549(3)
Zr2E Zr 0.5000 -0.06254(2) -0.06254(2)
O3E O 0.4582(2) 0.0000 -0.0620(3)
O4E O 0.5000 -0.0549(3) -0.1409(2)
Zr2F Zr 0.5000 0.06254(2) -0.06254(2)
O3F O 0.4582(2) 0.0620(3) 0.0000
O4F O 0.5000 0.1409(2) -0.0549(3)
O3H O -0.4582(2) 0.0000 -0.0620(3)
Zr2C Zr 0.06254(2) 0.5000 0.06254(2)
O3J O 0.0620(3) 0.4582(2) 0.0000
O4J O 0.1409(2) 0.5000 0.0549(3)
Zr2G Zr 0.06254(2) 0.06254(2) 0.5000
O3K O -0.0000 0.0620(3) 0.4582(2)
O4K O 0.0549(3) 0.1409(2) 0.5000
O3B_2 O 0.5418(2) 0.0000 0.0620(3)
O3T O 0.5418(2) 0.0620(3) 0.0000
O3P O -0.0620(3) 0.4582(2) 0.0000
O4T O 0.5000 0.1409(2) 0.0549(3)
O4B O 0.5000 -0.0549(3) 0.1409(2)
O4U O 0.5000 -0.1409(2) -0.0549(3)
O4H O 0.5000 0.0549(3) -0.1409(2)
O4C O 0.0549(3) 0.5000 0.1409(2)
O4G O 0.1409(2) 0.0549(3) 0.5000
Zr1B_2 Zr 0.58736(4) 0.0000 0.0000
Zr1C Zr 0.0000 -0.41264(4) 0.0000
Zr1C_2 Zr 0.0000 0.58736(4) 0.0000
Zr1G Zr 0.0000 0.0000 0.58736(4)
Zr1I Zr -0.0000 -0.0000 0.41264(4)
Zr2_2 Zr -0.5000 0.06254(2) 0.06254(2)
Zr2A Zr -0.06254(2) -0.5000 0.06254(2)
Zr2A_2 Zr -0.06254(2) 0.5000 0.06254(2)
Zr2B_2 Zr -0.5000 -0.06254(2) 0.06254(2)
Zr2C_2 Zr 0.06254(2) -0.5000 0.06254(2)
Zr2E_2 Zr -0.5000 -0.06254(2) -0.06254(2)
Zr2F_2 Zr -0.5000 0.06254(2) -0.06254(2)
Zr2I Zr -0.06254(2) 0.06254(2) 0.5000
Zr2L Zr -0.06254(2) -0.06254(2) 0.5000
Zr2M Zr 0.06254(2) 0.5000 -0.06254(2)
Zr2P Zr -0.06254(2) 0.5000 -0.06254(2)
Zr2Q Zr 0.06254(2) -0.06254(2) 0.5000
O1E O 0.37330(16) -0.04834(15) -0.04834(15)
O1F O 0.37330(16) 0.04834(15) -0.04834(15)
O1H O -0.37330(16) 0.04834(15) -0.04834(15)
O1P O -0.04834(15) 0.37330(16) -0.04834(15)
O1R O 0.04834(15) 0.37330(16) -0.04834(15)
O1U O -0.37330(16) -0.04834(15) -0.04834(15)
O2B_2 O 0.57146(19) -0.08755(14) 0.08755(14)
O2C_2 O 0.08755(14) 0.57146(19) 0.08755(14)
O2E O 0.42854(19) -0.08755(14) -0.08755(14)
O2F O 0.42854(19) 0.08755(14) -0.08755(14)
O2G O 0.08755(14) 0.08755(14) 0.57146(19)
O2H O 0.57146(19) 0.08755(14) -0.08755(14)
O2T_2 O 0.57146(19) 0.08755(14) 0.08755(14)
O2U O 0.57146(19) -0.08755(14) -0.08755(14)
O3C O -0.0000 0.5418(2) 0.0620(3)
O3G O 0.0620(3) -0.0000 0.5418(2)
O3H_2 O 0.5418(2) 0.0000 -0.0620(3)
O3M O 0.0620(3) 0.5418(2) 0.0000
O3N O -0.0000 0.0620(3) 0.5418(2)
O3R O -0.0000 0.4582(2) -0.0620(3)
O3T_2 O -0.4582(2) 0.0620(3) 0.0000
O3U O -0.4582(2) -0.0620(3) 0.0000
O3U_2 O 0.5418(2) -0.0620(3) 0.0000
O3V O 0.0620(3) -0.0000 0.4582(2)
loop_
_geom_bond_atom_site_label_1
_geom_bond_atom_site_label_2
_geom_bond_site_symmetry_1
_geom_bond_site_symmetry_2
Zr1 Zr2 1_555 1_555
Zr2 O2 1_555 1_555
O1 Zr1 1_555 1_555
O2 C1 1_555 1_555
O3 Zr1 1_555 1_555
O4 Zr2 1_555 1_555
C1 O1 1_555 1_555
C2 C1 1_555 1_555
C3 C2 1_555 1_555
H1 C3 1_555 1_555
C4 C3 1_555 1_555
H2 C4 1_555 1_555
C5 C4 1_555 1_555
C6 C5 1_555 1_555
H3 C6 1_555 1_555
C7 C2 1_555 1_555
H4 C7 1_555 1_555
C8 C5 1_555 1_555
C9 C8 1_555 1_555
C10 C9 1_555 1_555
O1J C1J 1_555 1_555
O2J C1J 1_555 1_555
C1J C2J 1_555 1_555
C2J C3J 1_555 1_555
C3J H1J 1_555 1_555
C4J C3J 1_555 1_555
H2J C4J 1_555 1_555
C5J C4J 1_555 1_555
C6J C5J 1_555 1_555
H3J C6J 1_555 1_555
C7J C2J 1_555 1_555
H4J C7J 1_555 1_555
C8J C9 1_555 1_555
C9J C8J 1_555 1_555
C10J C9J 1_555 1_555
O1K C1K 1_555 1_555
O2K C1K 1_555 1_555
C1K C2K 1_555 1_555
C2K C3K 1_555 1_555
C3K H1K 1_555 1_555
C4K C3K 1_555 1_555
H2K C4K 1_555 1_555
C5K C4K 1_555 1_555
C6K C5K 1_555 1_555
H3K C6K 1_555 1_555
C7K C2K 1_555 1_555
H4K C7K 1_555 1_555
C8K C9J 1_555 1_555
C9K C8 1_555 1_555
C10K C9K 1_555 1_555
Zr1A O1J 1_555 1_555
O1A Zr1A 1_555 1_555
O2A C1A 1_555 1_555
O3A Zr1A 1_555 1_555
C1A O1A 1_555 1_555
C2A C1A 1_555 1_555
C3A C2A 1_555 1_555
H1A C3A 1_555 1_555
C4A C3A 1_555 1_555
H2A C4A 1_555 1_555
C5A C4A 1_555 1_555
C6A C5A 1_555 1_555
H3A C6A 1_555 1_555
C7A C2A 1_555 1_555
H4A C7A 1_555 1_555
C8A C5A 1_555 1_555
C9A C8A 1_555 1_555
C10A C9A 1_555 1_555
O1T C1T 1_555 1_555
O2T C1T 1_555 1_555
C1T C2T 1_555 1_555
C2T C3T 1_555 1_555
C3T H1T 1_555 1_555
C4T C3T 1_555 1_555
H2T C4T 1_555 1_555
C5T C4T 1_555 1_555
C6T C5T 1_555 1_555
H3T C6T 1_555 1_555
C7T C2T 1_555 1_555
H4T C7T 1_555 1_555
C8T C9A 1_555 1_555
C9T C8T 1_555 1_555
C10T C9T 1_555 1_555
O1I C1I 1_555 1_555
O2I C1I 1_555 1_555
C1I C2I 1_555 1_555
C2I C3I 1_555 1_555
C3I H1I 1_555 1_555
C4I C3I 1_555 1_555
H2I C4I 1_555 1_555
C5I C4I 1_555 1_555
C6I C5I 1_555 1_555
H3I C6I 1_555 1_555
C7I C2I 1_555 1_555
H4I C7I 1_555 1_555
C8I C9T 1_555 1_555
C9I C8A 1_555 1_555
C10I C9I 1_555 1_555
Zr1B O1T 1_555 1_555
O1B Zr1B 1_555 1_555
O2B C1B 1_555 1_555
O3B Zr1B 1_555 1_555
C1B O1B 1_555 1_555
C2B C1B 1_555 1_555
C3B C2B 1_555 1_555
H1B C3B 1_555 1_555
C4B C3B 1_555 1_555
H2B C4B 1_555 1_555
C5B C4B 1_555 1_555
C6B C5B 1_555 1_555
H3B C6B 1_555 1_555
C7B C2B 1_555 1_555
H4B C7B 1_555 1_555
C8B C5B 1_555 1_555
C9B C8B 1_555 1_555
C10B C9B 1_555 1_555
O1O C1O 1_555 1_555
O2O C1O 1_555 1_555
C1O C2O 1_555 1_555
C2O C3O 1_555 1_555
C3O H1O 1_555 1_555
C4O C3O 1_555 1_555
H2O C4O 1_555 1_555
C5O C4O 1_555 1_555
C6O C5O 1_555 1_555
H3O C6O 1_555 1_555
C7O C2O 1_555 1_555
H4O C7O 1_555 1_555
C8O C9B 1_555 1_555
C9O C8O 1_555 1_555
C10O C9O 1_555 1_555
O1L C1L 1_555 1_555
O2L C1L 1_555 1_555
C1L C2L 1_555 1_555
C2L C3L 1_555 1_555
C3L H1L 1_555 1_555
C4L C3L 1_555 1_555
H2L C4L 1_555 1_555
C5L C4L 1_555 1_555
C6L C5L 1_555 1_555
H3L C6L 1_555 1_555
C7L C2L 1_555 1_555
H4L C7L 1_555 1_555
C8L C9O 1_555 1_555
C9L C8B 1_555 1_555
C10L C9L 1_555 1_555
O1C C1C 1_555 1_555
O2C C1C 1_555 1_555
C1C C2C 1_555 1_555
C2C C3C 1_555 1_555
C3C H1C 1_555 1_555
C4C C3C 1_555 1_555
H2C C4C 1_555 1_555
C5C C4C 1_555 1_555
C6C C5C 1_555 1_555
H3C C6C 1_555 1_555
C7C C2C 1_555 1_555
H4C C7C 1_555 1_555
C8C C5C 1_555 1_555
C9C C8C 1_555 1_555
C10C C9C 1_555 1_555
O1D Zr1 1_555 1_555
O2D C1D 1_555 1_555
C1D O1D 1_555 1_555
C2D C1D 1_555 1_555
C3D C2D 1_555 1_555
H1D C3D 1_555 1_555
C4D C3D 1_555 1_555
H2D C4D 1_555 1_555
C5D C4D 1_555 1_555
C6D C5D 1_555 1_555
H3D C6D 1_555 1_555
C7D C2D 1_555 1_555
H4D C7D 1_555 1_555
C8D C9C 1_555 1_555
C9D C8D 1_555 1_555
C10D C9D 1_555 1_555
O1V C1V 1_555 1_555
O2V C1V 1_555 1_555
C1V C2V 1_555 1_555
C2V C3V 1_555 1_555
C3V H1V 1_555 1_555
C4V C3V 1_555 1_555
H2V C4V 1_555 1_555
C5V C4V 1_555 1_555
C6V C5V 1_555 1_555
H3V C6V 1_555 1_555
C7V C2V 1_555 1_555
H4V C7V 1_555 1_555
C8V C9D 1_555 1_555
C9V C8C 1_555 1_555
C10V C9V 1_555 1_555
Zr2B Zr1 1_555 1_555
O3D Zr1 1_555 1_555
O4D Zr2B 1_555 1_555
Zr2E Zr1 1_555 1_555
O3E Zr1 1_555 1_555
O4E Zr2E 1_555 1_555
Zr2F Zr1 1_555 1_555
O3F Zr1 1_555 1_555
O4F Zr2F 1_555 1_555
O3H Zr1B 1_555 1_555
Zr2C O2J 1_555 1_555
O3J Zr1A 1_555 1_555
O4J Zr2C 1_555 1_555
Zr2G O2K 1_555 1_555
O3K Zr2G 1_555 1_555
O4K Zr2G 1_555 1_555
O3B_2 Zr2 1_555 1_555
O3T Zr2 1_555 1_555
O3P Zr1A 1_555 1_555
O4T Zr2 1_555 1_555
O4B Zr2B 1_555 1_555
O4U Zr2E 1_555 1_555
O4H Zr2F 1_555 1_555
O4C Zr2C 1_555 1_555
O4G Zr2G 1_555 1_555
Zr1B_2 Zr2 1_555 1_555
Zr1C O1O 1_555 1_555
Zr1C_2 Zr2C 1_555 1_555
Zr1G Zr2G 1_555 1_555
Zr1I O1K 1_555 1_555
Zr2_2 O2T 1_555 1_555
Zr2A O2O 1_555 1_555
Zr2A_2 Zr1A 1_555 1_555
Zr2B_2 Zr1B 1_555 1_555
Zr2C_2 O2C 1_555 1_555
Zr2E_2 Zr1B 1_555 1_555
Zr2F_2 Zr1B 1_555 1_555
Zr2I O2I 1_555 1_555
Zr2L O2L 1_555 1_555
Zr2M Zr1A 1_555 1_555
Zr2P Zr1A 1_555 1_555
Zr2Q O2V 1_555 1_555
O1E Zr1 1_555 1_555
O1F Zr1 1_555 1_555
O1H Zr1B 1_555 1_555
O1P Zr1A 1_555 1_555
O1R Zr1A 1_555 1_555
O1U Zr1B 1_555 1_555
O2B_2 Zr2B 1_555 1_555
O2C_2 Zr2C 1_555 1_555
O2E Zr2E 1_555 1_555
O2F Zr2F 1_555 1_555
O2G Zr2G 1_555 1_555
O2H Zr2F 1_555 1_555
O2T_2 Zr2 1_555 1_555
O2U Zr2E 1_555 1_555
O3C Zr2C 1_555 1_555
O3G Zr2G 1_555 1_555
O3H_2 Zr2E 1_555 1_555
O3M Zr2C 1_555 1_555
O3N Zr2G 1_555 1_555
O3R Zr1A 1_555 1_555
O3T_2 Zr1B 1_555 1_555
O3U Zr1B 1_555 1_555
O3U_2 Zr2B 1_555 1_555
O3V Zr2G 1_555 1_555
Zr2 O3 1_555 1_555
Zr2 Zr2B 1_555 1_555
Zr2 Zr2F 1_555 1_555
Zr2 O3F 1_555 1_555
O3 Zr2B 1_555 1_555
C6 C7 1_555 1_555
C5J C8J 1_555 1_555
C6J C7J 1_555 1_555
C5K C8K 1_555 1_555
C6K C7K 1_555 1_555
C8K C9K 1_555 1_555
Zr1A Zr2C 1_555 1_555
O2A Zr2A_2 1_555 1_555
O3A Zr2C 1_555 1_555
O3A Zr2A_2 1_555 1_555
C6A C7A 1_555 1_555
C5T C8T 1_555 1_555
C6T C7T 1_555 1_555
O1I Zr1I 1_555 1_555
C5I C8I 1_555 1_555
C6I C7I 1_555 1_555
C8I C9I 1_555 1_555
Zr1B Zr2_2 1_555 1_555
O2B Zr2B_2 1_555 1_555
O3B Zr2_2 1_555 1_555
O3B Zr2B_2 1_555 1_555
C6B C7B 1_555 1_555
C5O C8O 1_555 1_555
C6O C7O 1_555 1_555
O1L Zr1I 1_555 1_555
C5L C8L 1_555 1_555
C6L C7L 1_555 1_555
C8L C9L 1_555 1_555
O1C Zr1C 1_555 1_555
C6C C7C 1_555 1_555
O2D Zr2B 1_555 1_555
C5D C8D 1_555 1_555
C6D C7D 1_555 1_555
O1V Zr1I 1_555 1_555
C5V C8V 1_555 1_555
C6V C7V 1_555 1_555
C8V C9V 1_555 1_555
Zr2B O3D 1_555 1_555
Zr2B Zr2E 1_555 1_555
Zr2B O3B_2 1_555 1_555
Zr2B Zr1B_2 1_555 1_555
O3D Zr2E 1_555 1_555
Zr2E O3E 1_555 1_555
Zr2E Zr2F 1_555 1_555
Zr2E Zr1B_2 1_555 1_555
Zr2E O3U_2 1_555 1_555
O3E Zr2F 1_555 1_555
Zr2F O3F 1_555 1_555
Zr2F O3T 1_555 1_555
Zr2F Zr1B_2 1_555 1_555
Zr2F O3H_2 1_555 1_555
O3H Zr2E_2 1_555 1_555
O3H Zr2F_2 1_555 1_555
Zr2C O3J 1_555 1_555
Zr2C Zr2A_2 1_555 1_555
Zr2C Zr2M 1_555 1_555
O3J Zr2M 1_555 1_555
Zr2G Zr1I 1_555 1_555
Zr2G Zr2I 1_555 1_555
Zr2G Zr2Q 1_555 1_555
O3K Zr1I 1_555 1_555
O3K Zr2I 1_555 1_555
O3B_2 Zr1B_2 1_555 1_555
O3T Zr1B_2 1_555 1_555
O3P Zr2A_2 1_555 1_555
O3P Zr2P 1_555 1_555
Zr1B_2 O3H_2 1_555 1_555
Zr1B_2 O3U_2 1_555 1_555
Zr1C Zr2A 1_555 1_555
Zr1C Zr2C_2 1_555 1_555
Zr1C_2 Zr2A_2 1_555 1_555
Zr1C_2 Zr2M 1_555 1_555
Zr1C_2 Zr2P 1_555 1_555
Zr1C_2 O3C 1_555 1_555
Zr1C_2 O3M 1_555 1_555
Zr1G Zr2I 1_555 1_555
Zr1G Zr2L 1_555 1_555
Zr1G Zr2Q 1_555 1_555
Zr1G O3G 1_555 1_555
Zr1G O3N 1_555 1_555
Zr1I Zr2I 1_555 1_555
Zr1I Zr2L 1_555 1_555
Zr1I Zr2Q 1_555 1_555
Zr1I O3V 1_555 1_555
Zr2_2 Zr2B_2 1_555 1_555
Zr2_2 Zr2F_2 1_555 1_555
Zr2_2 O3T_2 1_555 1_555
Zr2A Zr2C_2 1_555 1_555
Zr2A_2 Zr2P 1_555 1_555
Zr2A_2 O3C 1_555 1_555
Zr2B_2 Zr2E_2 1_555 1_555
Zr2B_2 O3U 1_555 1_555
Zr2E_2 Zr2F_2 1_555 1_555
Zr2E_2 O3U 1_555 1_555
Zr2F_2 O3T_2 1_555 1_555
Zr2I Zr2L 1_555 1_555
Zr2I O3N 1_555 1_555
Zr2L Zr2Q 1_555 1_555
Zr2M Zr2P 1_555 1_555
Zr2M O3M 1_555 1_555
Zr2M O3R 1_555 1_555
Zr2P O3R 1_555 1_555
Zr2Q O3G 1_555 1_555
Zr2Q O3V 1_555 1_555

#END
