
#######################################################################
#
#                 Cambridge Crystallographic Data Centre
#                                CCDC 
#
#######################################################################
#
# If this CIF has been generated from an entry in the Cambridge 
# Structural Database, then it will include bibliographic, chemical, 
# crystal, experimental, refinement or atomic coordinate data resulting 
# from the CCDC's data processing and validation procedures.
#
#######################################################################

data_GALHUY
_chemical_formula_moiety         '(C56 H32 In2 O16)n'
_symmetry_cell_setting           orthorhombic
_symmetry_space_group_name_H-M   'F d d d'
_symmetry_Int_Tables_number      70
_space_group_name_Hall           '-F 2uv 2vw'
loop_
_symmetry_equiv_pos_site_id
_symmetry_equiv_pos_as_xyz
1 x,y,z
2 3/4-x,3/4-y,z
3 3/4-x,y,3/4-z
4 x,3/4-y,3/4-z
5 x,1/2+y,1/2+z
6 3/4-x,1/4-y,1/2+z
7 3/4-x,1/2+y,1/4-z
8 x,1/4-y,1/4-z
9 1/2+x,y,1/2+z
10 1/4-x,3/4-y,1/2+z
11 1/4-x,y,1/4-z
12 1/2+x,3/4-y,1/4-z
13 1/2+x,1/2+y,z
14 1/4-x,1/4-y,z
15 1/4-x,1/2+y,3/4-z
16 1/2+x,1/4-y,3/4-z
17 -x,-y,-z
18 1/4+x,1/4+y,-z
19 1/4+x,-y,1/4+z
20 -x,1/4+y,1/4+z
21 -x,1/2-y,1/2-z
22 1/4+x,3/4+y,1/2-z
23 1/4+x,1/2-y,3/4+z
24 -x,3/4+y,3/4+z
25 1/2-x,-y,1/2-z
26 3/4+x,1/4+y,1/2-z
27 3/4+x,-y,3/4+z
28 1/2-x,1/4+y,3/4+z
29 1/2-x,1/2-y,-z
30 3/4+x,3/4+y,-z
31 3/4+x,1/2-y,1/4+z
32 1/2-x,3/4+y,1/4+z
_cell_length_a                   23.088(3)
_cell_length_b                   39.262(5)
_cell_length_c                   41.133(5)
_cell_angle_alpha                90
_cell_angle_beta                 90
_cell_angle_gamma                90
_cell_volume                     37286.3
loop_
_atom_site_label
_atom_site_type_symbol
_atom_site_fract_x
_atom_site_fract_y
_atom_site_fract_z
_atom_site_U_iso_or_equiv
_atom_site_thermal_displace_type
In1 In 0.1250 0.490528(15) 0.1250 0.0569 Uani
O1 O 0.1375(2) 0.45049(13) 0.08550(12) 0.0857 Uani
O2 O 0.0508(2) 0.46450(12) 0.09992(11) 0.0710 Uani
O3 O -0.1356(3) 0.27883(16) -0.08316(14) 0.1017 Uani
O4 O -0.0500(3) 0.26976(14) -0.10280(13) 0.0963 Uani
C1 C 0.0834(4) 0.44766(18) 0.08239(18) 0.0633 Uani
C2 C 0.0609(4) 0.42398(18) 0.05759(18) 0.0710 Uani
C3 C 0.0954(4) 0.4111(2) 0.0318(2) 0.1167 Uani
H1 H 0.1336 0.4183 0.0298 0.1400 Uiso
C4 C 0.0734(4) 0.3881(2) 0.0098(2) 0.1170 Uani
H2 H 0.0977 0.3787 -0.0059 0.1400 Uiso
C5 C 0.0147(4) 0.3787(2) 0.01054(18) 0.0783 Uani
C6 C -0.0193(4) 0.39179(19) 0.0350(2) 0.0863 Uani
H3 H -0.0580 0.3854 0.0361 0.1040 Uiso
C7 C 0.0026(4) 0.41463(19) 0.05817(17) 0.0787 Uani
H4 H -0.0218 0.4236 0.0740 0.0950 Uiso
C8 C -0.0106(4) 0.3542(2) -0.01307(19) 0.0777 Uani
C9 C -0.0644(5) 0.3463(3) -0.0139(3) 0.1587 Uani
H5 H -0.0890 0.3565 0.0012 0.1900 Uiso
C10 C -0.0880(5) 0.3238(3) -0.0356(3) 0.1687 Uani
H6 H -0.1273 0.3187 -0.0342 0.2020 Uiso
C11 C -0.0568(5) 0.3091(2) -0.0584(2) 0.0827 Uani
C12 C 0.0007(6) 0.3147(3) -0.0567(2) 0.1503 Uani
H7 H 0.0255 0.3032 -0.0708 0.1800 Uiso
C13 C 0.0228(5) 0.3372(3) -0.0344(2) 0.1600 Uani
H8 H 0.0626 0.3409 -0.0341 0.1920 Uiso
C14 C -0.0821(5) 0.2843(2) -0.0835(2) 0.0810 Uani
In1U In 0.3750 0.240528(15) 0.3750 0.0569 Uani
In1W In -0.1250 0.240528(15) -0.1250 0.0569 Uani
O1J O 0.1125(2) 0.45049(13) 0.16450(12) 0.0857 Uani
O2J O 0.1992(2) 0.46450(12) 0.15008(11) 0.0710 Uani
O3J O 0.3856(3) 0.27883(16) 0.33316(14) 0.1017 Uani
O3Q O 0.1144(3) 0.52883(16) 0.08316(14) 0.1017 Uani
O3S O 0.1356(3) 0.52883(16) 0.16684(14) 0.1017 Uani
O4J O 0.3000(3) 0.26976(14) 0.35280(13) 0.0963 Uani
O4Q O 0.2000(3) 0.51976(14) 0.10280(13) 0.0963 Uani
O4S O 0.0500(3) 0.51976(14) 0.14720(13) 0.0963 Uani
C1J C 0.1666(4) 0.44766(18) 0.16761(18) 0.0633 Uani
C2J C 0.1891(4) 0.42398(18) 0.19241(18) 0.0710 Uani
C3J C 0.1546(4) 0.4111(2) 0.2182(2) 0.1167 Uani
H1J H 0.1164 0.4183 0.2202 0.1400 Uiso
C4J C 0.1766(4) 0.3881(2) 0.2402(2) 0.1170 Uani
H2J H 0.1523 0.3787 0.2559 0.1400 Uiso
C5J C 0.2353(4) 0.3787(2) 0.23946(18) 0.0783 Uani
C6J C 0.2693(4) 0.39179(19) 0.2150(2) 0.0863 Uani
H3J H 0.3080 0.3854 0.2139 0.1040 Uiso
C7J C 0.2474(4) 0.41463(19) 0.19183(17) 0.0787 Uani
H4J H 0.2718 0.4236 0.1760 0.0950 Uiso
C8J C 0.2606(4) 0.3542(2) 0.26307(19) 0.0777 Uani
C9J C 0.3144(5) 0.3463(3) 0.2639(3) 0.1587 Uani
H5J H 0.3390 0.3565 0.2488 0.1900 Uiso
C10J C 0.3380(5) 0.3238(3) 0.2856(3) 0.1687 Uani
H6J H 0.3773 0.3187 0.2842 0.2020 Uiso
C11J C 0.3068(5) 0.3091(2) 0.3084(2) 0.0827 Uani
C12J C 0.2493(6) 0.3147(3) 0.3067(2) 0.1503 Uani
H7J H 0.2245 0.3032 0.3208 0.1800 Uiso
C13J C 0.2272(5) 0.3372(3) 0.2844(2) 0.1600 Uani
H8J H 0.1874 0.3409 0.2841 0.1920 Uiso
C14J C 0.3321(5) 0.2843(2) 0.3335(2) 0.0810 Uani
In2 In 0.8750 0.3750 0.139063(15) 0.0623 Uani
O5 O 0.7938(2) 0.39944(14) 0.11578(12) 0.0817 Uani
O6 O 0.8789(3) 0.41514(14) 0.10028(12) 0.0990 Uani
O7 O 0.6931(2) 0.59520(12) -0.08641(12) 0.0817 Uani
O8 O 0.6063(3) 0.58573(14) -0.06869(13) 0.0910 Uani
C15 C 0.8228(5) 0.4173(2) 0.0986(2) 0.0793 Uani
C16 C 0.7995(4) 0.4421(2) 0.07430(19) 0.0793 Uani
C17 C 0.7411(4) 0.4437(2) 0.0697(2) 0.0957 Uani
H9 H 0.7162 0.4299 0.0816 0.1150 Uiso
C18 C 0.7197(4) 0.4660(2) 0.0472(2) 0.1057 Uani
H10 H 0.6797 0.4669 0.0446 0.1270 Uiso
C19 C 0.7525(4) 0.4869(2) 0.0283(2) 0.0787 Uani
C20 C 0.8111(5) 0.4855(3) 0.0328(2) 0.1357 Uani
H11 H 0.8352 0.4998 0.0209 0.1630 Uiso
C21 C 0.8357(4) 0.4620(3) 0.0559(2) 0.1347 Uani
H12 H 0.8757 0.4603 0.0584 0.1610 Uiso
C22 C 0.7280(4) 0.5111(2) 0.00344(19) 0.0850 Uani
C23 C 0.6714(4) 0.5222(2) 0.0055(2) 0.1187 Uani
H13 H 0.6479 0.5146 0.0224 0.1420 Uiso
C24 C 0.6497(4) 0.5445(2) -0.0172(2) 0.1207 Uani
H14 H 0.6115 0.5517 -0.0155 0.1450 Uiso
C25 C 0.6838(4) 0.5563(2) -0.04270(18) 0.0760 Uani
C26 C 0.7400(4) 0.5463(2) -0.04411(19) 0.0880 Uani
H15 H 0.7637 0.5545 -0.0607 0.1060 Uiso
C27 C 0.7626(4) 0.52407(19) -0.0210(2) 0.0893 Uani
H16 H 0.8014 0.5179 -0.0221 0.1070 Uiso
C28 C 0.6600(5) 0.5802(2) -0.0670(2) 0.0773 Uani
In2V In 1.1250 0.1250 -0.110937(15) 0.0623 Uani
In2Z In 0.6250 0.6250 -0.110937(15) 0.0623 Uani
O5A O 0.9562(2) 0.35056(14) 0.11578(12) 0.0817 Uani
O6A O 0.8711(3) 0.33486(14) 0.10028(12) 0.0990 Uani
O7A O 1.0569(2) 0.15480(12) -0.08641(12) 0.0817 Uani
O7R O 0.9431(2) 0.40480(12) 0.16359(12) 0.0817 Uani
O7EA O 0.8069(2) 0.34520(12) 0.16359(12) 0.0817 Uani
O8A O 1.1437(3) 0.16427(14) -0.06869(13) 0.0910 Uani
O8R O 0.8563(3) 0.41427(14) 0.18131(13) 0.0910 Uani
O8EA O 0.8937(3) 0.33573(14) 0.18131(13) 0.0910 Uani
C15A C 0.9272(5) 0.3327(2) 0.0986(2) 0.0793 Uani
C16A C 0.9505(4) 0.3079(2) 0.07430(19) 0.0793 Uani
C17A C 1.0089(4) 0.3063(2) 0.0697(2) 0.0957 Uani
H9A H 1.0338 0.3201 0.0816 0.1150 Uiso
C18A C 1.0303(4) 0.2840(2) 0.0472(2) 0.1057 Uani
H10A H 1.0703 0.2831 0.0446 0.1270 Uiso
C19A C 0.9975(4) 0.2631(2) 0.0283(2) 0.0787 Uani
C20A C 0.9389(5) 0.2645(3) 0.0328(2) 0.1357 Uani
H11A H 0.9148 0.2502 0.0209 0.1630 Uiso
C21A C 0.9143(4) 0.2880(3) 0.0559(2) 0.1347 Uani
H12A H 0.8743 0.2897 0.0584 0.1610 Uiso
C22A C 1.0220(4) 0.2389(2) 0.00344(19) 0.0850 Uani
C23A C 1.0786(4) 0.2278(2) 0.0055(2) 0.1187 Uani
H13A H 1.1021 0.2354 0.0224 0.1420 Uiso
C24A C 1.1003(4) 0.2055(2) -0.0172(2) 0.1207 Uani
H14A H 1.1385 0.1983 -0.0155 0.1450 Uiso
C25A C 1.0662(4) 0.1937(2) -0.04270(18) 0.0760 Uani
C26A C 1.0100(4) 0.2037(2) -0.04411(19) 0.0880 Uani
H15A H 0.9863 0.1955 -0.0607 0.1060 Uiso
C27A C 0.9874(4) 0.22593(19) -0.0210(2) 0.0893 Uani
H16A H 0.9486 0.2321 -0.0221 0.1070 Uiso
C28A C 1.0900(5) 0.1698(2) -0.0670(2) 0.0773 Uani
loop_
_atom_site_aniso_label
_atom_site_aniso_U_11
_atom_site_aniso_U_22
_atom_site_aniso_U_33
_atom_site_aniso_U_23
_atom_site_aniso_U_13
_atom_site_aniso_U_12
In1 0.0811(6) 0.0485(4) 0.0411(4) 0.000 0.0027(4) 0.000
O1 0.087(5) 0.087(4) 0.083(4) -0.032(3) 0.008(3) -0.004(3)
O2 0.082(4) 0.070(3) 0.061(3) -0.023(3) 0.016(3) -0.001(3)
O3 0.115(5) 0.099(4) 0.091(4) -0.034(3) -0.014(4) -0.005(4)
O4 0.130(5) 0.095(4) 0.064(4) -0.026(3) 0.005(4) -0.016(4)
C1 0.075(6) 0.059(5) 0.056(5) -0.004(4) 0.000(5) -0.014(5)
C2 0.080(6) 0.065(5) 0.068(5) -0.020(4) 0.005(5) -0.012(5)
C3 0.072(6) 0.148(9) 0.130(9) -0.065(7) 0.021(6) -0.020(6)
C4 0.091(8) 0.150(9) 0.110(7) -0.091(7) 0.030(6) -0.033(6)
C5 0.103(7) 0.071(5) 0.061(5) -0.023(4) 0.001(5) 0.003(6)
C6 0.083(6) 0.087(6) 0.089(6) -0.031(5) -0.001(5) -0.024(5)
C7 0.088(7) 0.079(5) 0.069(6) -0.029(4) 0.016(5) -0.003(5)
C8 0.094(7) 0.076(5) 0.063(5) -0.030(5) -0.006(5) -0.008(5)
C9 0.091(8) 0.210(12) 0.175(11) -0.148(10) 0.014(8) -0.021(8)
C10 0.104(9) 0.227(14) 0.175(11) -0.142(11) 0.021(8) -0.026(8)
C11 0.107(8) 0.077(6) 0.064(6) -0.012(5) -0.015(6) -0.020(6)
C12 0.181(12) 0.171(11) 0.099(8) -0.087(7) 0.052(8) -0.068(10)
C13 0.115(9) 0.231(13) 0.134(9) -0.122(9) 0.029(7) -0.065(9)
C14 0.128(9) 0.057(5) 0.058(6) -0.004(4) -0.005(6) -0.007(6)
In1U 0.0811 0.0485 0.0411 0 -0.0027 0
In1W 0.0811 0.0485 0.0411 0 -0.0027 0
O1J 0.087 0.087 0.083 0.032 0.008 0.004
O2J 0.082 0.07 0.061 0.023 0.016 0.001
O3J 0.115 0.099 0.091 0.034 -0.014 0.005
O3Q 0.115 0.099 0.091 0.034 0.014 -0.005
O3S 0.115 0.099 0.091 -0.034 0.014 0.005
O4J 0.13 0.095 0.064 0.026 0.005 0.016
O4Q 0.13 0.095 0.064 0.026 -0.005 -0.016
O4S 0.13 0.095 0.064 -0.026 -0.005 0.016
C1J 0.075 0.059 0.056 0.004 0 0.014
C2J 0.08 0.065 0.068 0.02 0.005 0.012
C3J 0.072 0.148 0.13 0.065 0.021 0.02
C4J 0.091 0.15 0.11 0.091 0.03 0.033
C5J 0.103 0.071 0.061 0.023 0.001 -0.003
C6J 0.083 0.087 0.089 0.031 -0.001 0.024
C7J 0.088 0.079 0.069 0.029 0.016 0.003
C8J 0.094 0.076 0.063 0.03 -0.006 0.008
C9J 0.091 0.21 0.175 0.148 0.014 0.021
C10J 0.104 0.227 0.175 0.142 0.021 0.026
C11J 0.107 0.077 0.064 0.012 -0.015 0.02
C12J 0.181 0.171 0.099 0.087 0.052 0.068
C13J 0.115 0.231 0.134 0.122 0.029 0.065
C14J 0.128 0.057 0.058 0.004 -0.005 0.007
In2 0.0839(6) 0.0582(5) 0.0449(4) 0.000 0.000 0.0005(4)
O5 0.092(4) 0.090(4) 0.063(4) 0.025(3) 0.013(3) 0.006(3)
O6 0.118(6) 0.100(4) 0.079(4) 0.036(3) 0.011(4) 0.018(4)
O7 0.109(5) 0.068(3) 0.068(4) 0.016(3) 0.008(3) 0.003(3)
O8 0.105(5) 0.083(4) 0.085(4) 0.022(3) 0.002(4) 0.011(4)
C15 0.086(7) 0.082(6) 0.070(6) -0.006(5) -0.008(5) 0.028(6)
C16 0.103(8) 0.076(6) 0.059(5) 0.025(4) 0.000(5) 0.011(6)
C17 0.097(8) 0.106(7) 0.084(6) 0.052(5) 0.005(5) 0.009(6)
C18 0.073(6) 0.123(7) 0.121(8) 0.059(7) 0.015(6) 0.008(6)
C19 0.077(6) 0.079(6) 0.080(6) 0.027(5) 0.008(5) 0.018(5)
C20 0.113(9) 0.154(10) 0.140(9) 0.095(8) 0.021(7) 0.018(8)
C21 0.099(8) 0.160(10) 0.145(9) 0.092(8) -0.012(7) 0.007(7)
C22 0.108(8) 0.080(6) 0.067(6) 0.022(5) 0.004(5) 0.006(6)
C23 0.098(8) 0.161(9) 0.097(7) 0.070(7) 0.027(6) 0.045(7)
C24 0.111(8) 0.147(9) 0.104(8) 0.055(7) 0.009(6) 0.043(7)
C25 0.097(7) 0.078(6) 0.053(5) 0.023(4) 0.004(5) 0.002(5)
C26 0.096(7) 0.091(6) 0.077(6) 0.032(5) 0.016(5) 0.022(6)
C27 0.104(7) 0.076(6) 0.088(6) 0.026(5) 0.024(6) 0.018(5)
C28 0.104(8) 0.062(5) 0.066(6) 0.002(5) 0.005(6) 0.008(6)
In2V 0.0839 0.0582 0.0449 0 0 -0.0005
In2Z 0.0839 0.0582 0.0449 0 0 -0.0005
O5A 0.092 0.09 0.063 -0.025 -0.013 0.006
O6A 0.118 0.1 0.079 -0.036 -0.011 0.018
O7A 0.109 0.068 0.068 -0.016 -0.008 0.003
O7R 0.109 0.068 0.068 -0.016 0.008 -0.003
O7EA 0.109 0.068 0.068 0.016 -0.008 -0.003
O8A 0.105 0.083 0.085 -0.022 -0.002 0.011
O8R 0.105 0.083 0.085 -0.022 0.002 -0.011
O8EA 0.105 0.083 0.085 0.022 -0.002 -0.011
C15A 0.086 0.082 0.07 0.006 0.008 0.028
C16A 0.103 0.076 0.059 -0.025 0 0.011
C17A 0.097 0.106 0.084 -0.052 -0.005 0.009
C18A 0.073 0.123 0.121 -0.059 -0.015 0.008
C19A 0.077 0.079 0.08 -0.027 -0.008 0.018
C20A 0.113 0.154 0.14 -0.095 -0.021 0.018
C21A 0.099 0.16 0.145 -0.092 0.012 0.007
C22A 0.108 0.08 0.067 -0.022 -0.004 0.006
C23A 0.098 0.161 0.097 -0.07 -0.027 0.045
C24A 0.111 0.147 0.104 -0.055 -0.009 0.043
C25A 0.097 0.078 0.053 -0.023 -0.004 0.002
C26A 0.096 0.091 0.077 -0.032 -0.016 0.022
C27A 0.104 0.076 0.088 -0.026 -0.024 0.018
C28A 0.104 0.062 0.066 -0.002 -0.005 0.008
loop_
_geom_bond_atom_site_label_1
_geom_bond_atom_site_label_2
_geom_bond_site_symmetry_1
_geom_bond_site_symmetry_2
In1 O1 1_555 1_555
O1 C1 1_555 1_555
O2 In1 1_555 1_555
O3 C14 1_555 1_555
O4 C14 1_555 1_555
C1 O2 1_555 1_555
C2 C1 1_555 1_555
C3 C2 1_555 1_555
H1 C3 1_555 1_555
C4 C3 1_555 1_555
H2 C4 1_555 1_555
C5 C4 1_555 1_555
C6 C5 1_555 1_555
H3 C6 1_555 1_555
C7 C2 1_555 1_555
H4 C7 1_555 1_555
C8 C5 1_555 1_555
C9 C8 1_555 1_555
H5 C9 1_555 1_555
C10 C9 1_555 1_555
H6 C10 1_555 1_555
C11 C10 1_555 1_555
C12 C11 1_555 1_555
H7 C12 1_555 1_555
C13 C8 1_555 1_555
H8 C13 1_555 1_555
C14 C11 1_555 1_555
In2 O5 1_555 1_555
O5 C15 1_555 1_555
O6 In2 1_555 1_555
O7 C28 1_555 1_555
O8 C28 1_555 1_555
C15 O6 1_555 1_555
C16 C15 1_555 1_555
C17 C16 1_555 1_555
H9 C17 1_555 1_555
C18 C17 1_555 1_555
H10 C18 1_555 1_555
C19 C18 1_555 1_555
C20 C19 1_555 1_555
H11 C20 1_555 1_555
C21 C16 1_555 1_555
H12 C21 1_555 1_555
C22 C19 1_555 1_555
C23 C22 1_555 1_555
H13 C23 1_555 1_555
C24 C23 1_555 1_555
H14 C24 1_555 1_555
C25 C24 1_555 1_555
C26 C25 1_555 1_555
H15 C26 1_555 1_555
C27 C22 1_555 1_555
H16 C27 1_555 1_555
C28 C25 1_555 1_555
In1U O3J 1_555 1_555
In1W O3 1_555 1_555
O1J In1 1_555 1_555
O2J In1 1_555 1_555
O3J C14J 1_555 1_555
O3Q In1 1_555 1_555
O3S In1 1_555 1_555
O4J In1U 1_555 1_555
O4Q In1 1_555 1_555
O4S In1 1_555 1_555
C1J O1J 1_555 1_555
C2J C1J 1_555 1_555
C3J C2J 1_555 1_555
H1J C3J 1_555 1_555
C4J C3J 1_555 1_555
H2J C4J 1_555 1_555
C5J C4J 1_555 1_555
C6J C5J 1_555 1_555
H3J C6J 1_555 1_555
C7J C2J 1_555 1_555
H4J C7J 1_555 1_555
C8J C5J 1_555 1_555
C9J C8J 1_555 1_555
H5J C9J 1_555 1_555
C10J C9J 1_555 1_555
H6J C10J 1_555 1_555
C11J C10J 1_555 1_555
C12J C11J 1_555 1_555
H7J C12J 1_555 1_555
C13J C8J 1_555 1_555
H8J C13J 1_555 1_555
C14J O4J 1_555 1_555
In2V O7A 1_555 1_555
In2Z O7 1_555 1_555
O5A In2 1_555 1_555
O6A In2 1_555 1_555
O7A C28A 1_555 1_555
O7R In2 1_555 1_555
O7EA In2 1_555 1_555
O8A In2V 1_555 1_555
O8R In2 1_555 1_555
O8EA In2 1_555 1_555
C15A O5A 1_555 1_555
C16A C15A 1_555 1_555
C17A C16A 1_555 1_555
H9A C17A 1_555 1_555
C18A C17A 1_555 1_555
H10A C18A 1_555 1_555
C19A C18A 1_555 1_555
C20A C19A 1_555 1_555
H11A C20A 1_555 1_555
C21A C16A 1_555 1_555
H12A C21A 1_555 1_555
C22A C19A 1_555 1_555
C23A C22A 1_555 1_555
H13A C23A 1_555 1_555
C24A C23A 1_555 1_555
H14A C24A 1_555 1_555
C25A C24A 1_555 1_555
C26A C25A 1_555 1_555
H15A C26A 1_555 1_555
C27A C22A 1_555 1_555
H16A C27A 1_555 1_555
C28A O8A 1_555 1_555
O4 In1W 1_555 1_555
C6 C7 1_555 1_555
C12 C13 1_555 1_555
O8 In2Z 1_555 1_555
C20 C21 1_555 1_555
C26 C27 1_555 1_555
O2J C1J 1_555 1_555
C6J C7J 1_555 1_555
C11J C14J 1_555 1_555
C12J C13J 1_555 1_555
O6A C15A 1_555 1_555
C20A C21A 1_555 1_555
C25A C28A 1_555 1_555
C26A C27A 1_555 1_555

#END
