
#######################################################################
#
#                 Cambridge Crystallographic Data Centre
#                                CCDC 
#
#######################################################################
#
# If this CIF has been generated from an entry in the Cambridge 
# Structural Database, then it will include bibliographic, chemical, 
# crystal, experimental, refinement or atomic coordinate data resulting 
# from the CCDC's data processing and validation procedures.
#
#######################################################################

data_GALJAG
_chemical_formula_moiety         '(C32 H28 In1 N1 O8)n'
_symmetry_cell_setting           orthorhombic
_symmetry_space_group_name_H-M   'P n n a'
_symmetry_Int_Tables_number      52
_space_group_name_Hall           '-P 2a 2bc'
loop_
_symmetry_equiv_pos_site_id
_symmetry_equiv_pos_as_xyz
1 x,y,z
2 1/2-x,-y,z
3 1/2-x,1/2+y,1/2-z
4 x,1/2-y,1/2-z
5 -x,-y,-z
6 1/2+x,y,-z
7 1/2+x,1/2-y,1/2+z
8 -x,1/2+y,1/2+z
_cell_length_a                   12.251(3)
_cell_length_b                   18.631(4)
_cell_length_c                   20.976(4)
_cell_angle_alpha                90
_cell_angle_beta                 90
_cell_angle_gamma                90
_cell_volume                     4787.74
loop_
_atom_site_label
_atom_site_type_symbol
_atom_site_fract_x
_atom_site_fract_y
_atom_site_fract_z
In1 In 0.7500 0.0000 0.37340(2)
O1 O 0.8872(3) 0.04705(19) 0.4326(2)
O2 O 0.7225(4) 0.0814(2) 0.4559(2)
O3 O 1.1060(4) 0.4578(2) 0.8144(2)
O4 O 1.2665(4) 0.4200(3) 0.7888(3)
C1 C 0.8239(5) 0.0845(3) 0.4656(3)
C2 C 0.8711(4) 0.1323(3) 0.5151(3)
C3 C 0.9775(5) 0.1255(3) 0.5403(3)
H1 H 1.0197 0.0871 0.5265
C4 C 1.0228(5) 0.1716(3) 0.5839(3)
H2 H 1.0925 0.1637 0.6000
C5 C 0.9657(5) 0.2265(3) 0.6020(3)
C6 C 0.8593(6) 0.2336(3) 0.5764(4)
H3 H 0.8183 0.2731 0.5890
C7 C 0.8121(5) 0.1865(3) 0.5344(4)
H4 H 0.7409 0.1929 0.5202
C8 C 1.0161(5) 0.2767(3) 0.6476(3)
C9 C 1.1298(6) 0.2857(4) 0.6476(4)
H5 H 1.1726 0.2611 0.6182
C10 C 1.1775(7) 0.3310(4) 0.6911(4)
H6 H 1.2532 0.3351 0.6926
C11 C 1.1146(6) 0.3703(3) 0.7326(3)
C12 C 1.0034(6) 0.3630(3) 0.7325(4)
H7 H 0.9614 0.3895 0.7609
C13 C 0.9530(6) 0.3164(3) 0.6902(4)
H8 H 0.8774 0.3116 0.6902
C14 C 1.1652(6) 0.4193(3) 0.7808(3)
In1F In 0.2500 -0.5000 0.87340(2)
In1F_2 In 1.2500 0.5000 0.87340(2)
O1A O 0.6128(3) -0.04705(19) 0.4326(2)
O2A O 0.7775(4) -0.0814(2) 0.4559(2)
O3A O 0.3940(4) -0.4578(2) 0.8144(2)
O3F O 0.6060(4) 0.0422(2) 0.3144(2)
O3G O 0.8940(4) -0.0422(2) 0.3144(2)
O4A O 0.2335(4) -0.4200(3) 0.7888(3)
O4F O 0.7665(4) 0.0800(3) 0.2888(3)
O4G O 0.7335(4) -0.0800(3) 0.2888(3)
C1A C 0.6761(5) -0.0845(3) 0.4656(3)
C2A C 0.6289(4) -0.1323(3) 0.5151(3)
C3A C 0.5225(5) -0.1255(3) 0.5403(3)
H1A H 0.4803 -0.0871 0.5265
C4A C 0.4772(5) -0.1716(3) 0.5839(3)
H2A H 0.4075 -0.1637 0.6000
C5A C 0.5343(5) -0.2265(3) 0.6020(3)
C6A C 0.6407(6) -0.2336(3) 0.5764(4)
H3A H 0.6817 -0.2731 0.5890
C7A C 0.6879(5) -0.1865(3) 0.5344(4)
H4A H 0.7591 -0.1929 0.5202
C8A C 0.4839(5) -0.2767(3) 0.6476(3)
C9A C 0.3702(6) -0.2857(4) 0.6476(4)
H5A H 0.3274 -0.2611 0.6182
C10A C 0.3225(7) -0.3310(4) 0.6911(4)
H6A H 0.2468 -0.3351 0.6926
C11A C 0.3854(6) -0.3703(3) 0.7326(3)
C12A C 0.4966(6) -0.3630(3) 0.7325(4)
H7A H 0.5386 -0.3895 0.7609
C13A C 0.5470(6) -0.3164(3) 0.6902(4)
H8A H 0.6226 -0.3116 0.6902
C14A C 0.3348(6) -0.4193(3) 0.7808(3)
N1 N 0.1099(12) 0.1384(10) 0.3137(8)
C15 C 0.2071(15) 0.1630(15) 0.2779(11)
C16 C 0.178(2) 0.2095(12) 0.2235(10)
C17 C 0.0372(17) 0.1808(16) 0.3557(12)
C18 C -0.0714(16) 0.2093(12) 0.3382(10)
loop_
_geom_bond_atom_site_label_1
_geom_bond_atom_site_label_2
_geom_bond_site_symmetry_1
_geom_bond_site_symmetry_2
In1 O1 1_555 1_555
O1 C1 1_555 1_555
O2 In1 1_555 1_555
O3 C14 1_555 1_555
O4 C14 1_555 1_555
C1 O2 1_555 1_555
C2 C1 1_555 1_555
C3 C2 1_555 1_555
H1 C3 1_555 1_555
C4 C3 1_555 1_555
H2 C4 1_555 1_555
C5 C4 1_555 1_555
C6 C5 1_555 1_555
H3 C6 1_555 1_555
C7 C2 1_555 1_555
H4 C7 1_555 1_555
C8 C5 1_555 1_555
C9 C8 1_555 1_555
H5 C9 1_555 1_555
C10 C9 1_555 1_555
H6 C10 1_555 1_555
C11 C10 1_555 1_555
C12 C11 1_555 1_555
H7 C12 1_555 1_555
C13 C8 1_555 1_555
H8 C13 1_555 1_555
C14 C11 1_555 1_555
N1 C15 1_555 1_555
C15 C16 1_555 1_555
C17 N1 1_555 1_555
C18 C17 1_555 1_555
In1F O3A 1_555 1_555
In1F_2 O3 1_555 1_555
O1A In1 1_555 1_555
O2A In1 1_555 1_555
O3A C14A 1_555 1_555
O3F In1 1_555 1_555
O3G In1 1_555 1_555
O4A In1F 1_555 1_555
O4F In1 1_555 1_555
O4G In1 1_555 1_555
C1A O1A 1_555 1_555
C2A C1A 1_555 1_555
C3A C2A 1_555 1_555
H1A C3A 1_555 1_555
C4A C3A 1_555 1_555
H2A C4A 1_555 1_555
C5A C4A 1_555 1_555
C6A C5A 1_555 1_555
H3A C6A 1_555 1_555
C7A C2A 1_555 1_555
H4A C7A 1_555 1_555
C8A C5A 1_555 1_555
C9A C8A 1_555 1_555
H5A C9A 1_555 1_555
C10A C9A 1_555 1_555
H6A C10A 1_555 1_555
C11A C10A 1_555 1_555
C12A C11A 1_555 1_555
H7A C12A 1_555 1_555
C13A C8A 1_555 1_555
H8A C13A 1_555 1_555
C14A O4A 1_555 1_555
O4 In1F_2 1_555 1_555
C6 C7 1_555 1_555
C12 C13 1_555 1_555
O2A C1A 1_555 1_555
C6A C7A 1_555 1_555
C11A C14A 1_555 1_555
C12A C13A 1_555 1_555

#END
