
#######################################################################
#
#                 Cambridge Crystallographic Data Centre
#                                CCDC 
#
#######################################################################
#
# If this CIF has been generated from an entry in the Cambridge 
# Structural Database, then it will include bibliographic, chemical, 
# crystal, experimental, refinement or atomic coordinate data resulting 
# from the CCDC's data processing and validation procedures.
#
#######################################################################

data_EXOZEX
_chemical_formula_moiety         '(C24 H36 Cu3 N6 O24)n'
_symmetry_cell_setting           monoclinic
_symmetry_space_group_name_H-M   'C 2/m'
_symmetry_Int_Tables_number      12
_space_group_name_Hall           '-C 2y'
loop_
_symmetry_equiv_pos_site_id
_symmetry_equiv_pos_as_xyz
1 x,y,z
2 -x,y,-z
3 1/2+x,1/2+y,z
4 1/2-x,1/2+y,-z
5 -x,-y,-z
6 x,-y,z
7 1/2-x,1/2-y,-z
8 1/2+x,1/2-y,z
_cell_length_a                   23.847(5)
_cell_length_b                   11.390(2)
_cell_length_c                   8.9114(18)
_cell_angle_alpha                90
_cell_angle_beta                 93.32(3)
_cell_angle_gamma                90
_cell_volume                     2416.43
loop_
_atom_site_label
_atom_site_type_symbol
_atom_site_fract_x
_atom_site_fract_y
_atom_site_fract_z
Cu1 Cu -0.5000 0.5000 0.0000
Cu2 Cu -1.03032(4) 1.0000 0.37223(11)
O1 O -0.9751(2) 0.8775(6) 0.3226(5)
O2 O -0.92257(19) 0.8765(4) 0.5390(5)
O3 O -0.5615(2) 0.5000 0.1371(7)
O4 O -0.6227(3) 0.5000 -0.0634(8)
O5 O -0.5000 0.6724(7) 0.0000
O6 O -0.8802(4) 0.5000 0.5283(12)
O7 O -0.7611(2) 0.7018(5) 0.2363(8)
N1 N -0.7609(3) 0.5000 0.2304(10)
N2 N -0.8185(2) 0.6049(5) 0.3889(7)
C1 C -0.6126(4) 0.5000 0.0743(11)
C2 C -0.6585(4) 0.5000 0.1879(11)
C3 C -0.7181(4) 0.5000 0.1125(11)
H1 H -0.7235 0.4311 0.0493
C4 C -0.9333(3) 0.8425(6) 0.4064(8)
C5 C -0.8958(3) 0.7494(7) 0.3391(9)
H2 H -0.8833 0.7784 0.2442
H3 H -0.9179 0.6792 0.3182
C6 C -0.8438(3) 0.7165(7) 0.4414(10)
H4 H -0.8547 0.7070 0.5440
H5 H -0.8163 0.7791 0.4401
C7 C -0.8419(5) 0.5000 0.4408(14)
C8 C -0.7793(3) 0.6081(6) 0.2817(9)
H6 H -0.5095 0.6970 0.0798
H7 H -0.6544 0.4314 0.2499
Cu2_2 Cu -1.03032(4) 0.0000 0.37223(11)
Cu2A Cu -0.96968(4) 1.0000 0.62777(11)
Cu2B Cu -0.53032(4) 0.5000 0.37223(11)
Cu2A_2 Cu -0.96968(4) 0.0000 0.62777(11)
Cu2A_3 Cu 0.03032(4) 1.0000 -0.37223(11)
Cu2_3 Cu -0.03032(4) 1.0000 -0.62777(11)
Cu2C Cu -0.46968(4) 0.5000 -0.37223(11)
Cu2A_4 Cu 0.03032(4) 0.0000 -0.37223(11)
Cu2_4 Cu -0.03032(4) 0.0000 -0.62777(11)
O1E O -0.9751(2) 0.1225(6) 0.3226(5)
O1A O -0.0249(2) 0.8775(6) -0.3226(5)
O1D O -0.0249(2) 0.1225(6) -0.3226(5)
O1E_2 O -0.9751(2) 1.1225(6) 0.3226(5)
O1_2 O -0.9751(2) -0.1225(6) 0.3226(5)
O2E O -0.92257(19) 0.1235(4) 0.5390(5)
O2A O -0.07743(19) 0.8765(4) -0.5390(5)
O2D O -0.07743(19) 0.1235(4) -0.5390(5)
O2A_2 O -1.07743(19) 0.8765(4) 0.4610(5)
O2D_2 O -1.07743(19) 1.1235(4) 0.4610(5)
O2D_3 O -1.07743(19) 0.1235(4) 0.4610(5)
O2A_3 O -1.07743(19) -0.1235(4) 0.4610(5)
O3A O -0.4385(2) 0.5000 -0.1371(7)
O3B O -1.0615(2) 1.0000 0.1371(7)
O3B_2 O -1.0615(2) 0.0000 0.1371(7)
O4A O -0.3773(3) 0.5000 0.0634(8)
O5D O -0.5000 0.3276(7) 0.0000
O6A O -0.1198(4) 0.5000 -0.5283(12)
O7E O -0.7611(2) 0.2982(5) 0.2363(8)
O7A O -0.2389(2) 0.7018(5) -0.2363(8)
O7D O -0.2389(2) 0.2982(5) -0.2363(8)
N1A N -0.2391(3) 0.5000 -0.2304(10)
N2E N -0.8185(2) 0.3951(5) 0.3889(7)
N2A N -0.1815(2) 0.6049(5) -0.3889(7)
N2D N -0.1815(2) 0.3951(5) -0.3889(7)
C1A C -0.3874(4) 0.5000 -0.0743(11)
C2A C -0.3415(4) 0.5000 -0.1879(11)
C3A C -0.2819(4) 0.5000 -0.1125(11)
H1E H -0.7235 0.5689 0.0493
H1A H -0.2765 0.4311 -0.0493
H1D H -0.2765 0.5689 -0.0493
C4E C -0.9333(3) 0.1575(6) 0.4064(8)
C4A C -0.0667(3) 0.8425(6) -0.4064(8)
C4D C -0.0667(3) 0.1575(6) -0.4064(8)
C5E C -0.8958(3) 0.2506(7) 0.3391(9)
C5A C -0.1042(3) 0.7494(7) -0.3391(9)
C5D C -0.1042(3) 0.2506(7) -0.3391(9)
H2E H -0.8833 0.2216 0.2442
H2A H -0.1167 0.7784 -0.2442
H2D H -0.1167 0.2216 -0.2442
H3E H -0.9179 0.3208 0.3182
H3A H -0.0821 0.6792 -0.3182
H3D H -0.0821 0.3208 -0.3182
C6E C -0.8438(3) 0.2835(7) 0.4414(10)
C6A C -0.1562(3) 0.7165(7) -0.4414(10)
C6D C -0.1562(3) 0.2835(7) -0.4414(10)
H4E H -0.8547 0.2930 0.5440
H4A H -0.1453 0.7070 -0.5440
H4D H -0.1453 0.2930 -0.5440
H5E H -0.8163 0.2209 0.4401
H5A H -0.1837 0.7791 -0.4401
H5D H -0.1837 0.2209 -0.4401
C7A C -0.1581(5) 0.5000 -0.4408(14)
C8E C -0.7793(3) 0.3919(6) 0.2817(9)
C8A C -0.2207(3) 0.6081(6) -0.2817(9)
C8D C -0.2207(3) 0.3919(6) -0.2817(9)
H6A H -0.4905 0.6970 -0.0798
H6D H -0.4905 0.3030 -0.0798
H6E H -0.5095 0.3030 0.0798
H7E H -0.6544 0.5686 0.2499
H7A H -0.3456 0.4314 -0.2499
H7D H -0.3456 0.5686 -0.2499
O8 O -0.1118(11) 0.5000 -0.085(3)
O9 O -0.3232(5) 0.1300(13) -0.1347(18)
O10 O -0.2227(8) 0.0000 -0.2948(19)
O11 O -0.0635(5) 0.3045(9) -0.8090(13)
loop_
_geom_bond_atom_site_label_1
_geom_bond_atom_site_label_2
_geom_bond_site_symmetry_1
_geom_bond_site_symmetry_2
Cu1 O3 1_555 1_555
Cu2 O1 1_555 1_555
O1 C4 1_555 1_555
O2 C4 1_555 1_555
O3 C1 1_555 1_555
O4 C1 1_555 1_555
O5 Cu1 1_555 1_555
O6 C7 1_555 1_555
O7 C8 1_555 1_555
N1 C3 1_555 1_555
N2 C6 1_555 1_555
C1 C2 1_555 1_555
C2 C3 1_555 1_555
C3 H1 1_555 1_555
C4 C5 1_555 1_555
C5 H2 1_555 1_555
H3 C5 1_555 1_555
C6 C5 1_555 1_555
H4 C6 1_555 1_555
H5 C6 1_555 1_555
C7 N2 1_555 1_555
C8 N1 1_555 1_555
H6 O5 1_555 1_555
H7 C2 1_555 1_555
Cu2_2 O1E 1_555 1_555
Cu2A O2 1_555 1_555
Cu2B O3 1_555 1_555
Cu2A_2 O2E 1_555 1_555
Cu2A_3 O1A 1_555 1_555
Cu2_3 O2A 1_555 1_555
Cu2C O3A 1_555 1_555
Cu2A_4 O1D 1_555 1_555
Cu2_4 O2D 1_555 1_555
O1E C4E 1_555 1_555
O1A C4A 1_555 1_555
O1D C4D 1_555 1_555
O1E_2 Cu2 1_555 1_555
O1_2 Cu2_2 1_555 1_555
O2E C4E 1_555 1_555
O2A C4A 1_555 1_555
O2D C4D 1_555 1_555
O2A_2 Cu2 1_555 1_555
O2D_2 Cu2 1_555 1_555
O2D_3 Cu2_2 1_555 1_555
O2A_3 Cu2_2 1_555 1_555
O3A Cu1 1_555 1_555
O3B Cu2 1_555 1_555
O3B_2 Cu2_2 1_555 1_555
O4A C1A 1_555 1_555
O5D Cu1 1_555 1_555
O6A C7A 1_555 1_555
O7E C8E 1_555 1_555
O7A C8A 1_555 1_555
O7D C8D 1_555 1_555
N1A C3A 1_555 1_555
N2E C7 1_555 1_555
N2A C6A 1_555 1_555
N2D C6D 1_555 1_555
C1A O3A 1_555 1_555
C2A C1A 1_555 1_555
C3A C2A 1_555 1_555
H1E C3 1_555 1_555
H1A C3A 1_555 1_555
H1D C3A 1_555 1_555
C4E C5E 1_555 1_555
C4A C5A 1_555 1_555
C4D C5D 1_555 1_555
C5E H2E 1_555 1_555
C5A H2A 1_555 1_555
C5D H2D 1_555 1_555
H3E C5E 1_555 1_555
H3A C5A 1_555 1_555
H3D C5D 1_555 1_555
C6E N2E 1_555 1_555
C6A C5A 1_555 1_555
C6D C5D 1_555 1_555
H4E C6E 1_555 1_555
H4A C6A 1_555 1_555
H4D C6D 1_555 1_555
H5E C6E 1_555 1_555
H5A C6A 1_555 1_555
H5D C6D 1_555 1_555
C7A N2A 1_555 1_555
C8E N1 1_555 1_555
C8A N1A 1_555 1_555
C8D N1A 1_555 1_555
H6A O5 1_555 1_555
H6D O5D 1_555 1_555
H6E O5D 1_555 1_555
H7E C2 1_555 1_555
H7A C2A 1_555 1_555
H7D C2A 1_555 1_555
N2 C8 1_555 1_555
N2E C8E 1_555 1_555
N2A C8A 1_555 1_555
N2D C7A 1_555 1_555
N2D C8D 1_555 1_555
C5E C6E 1_555 1_555

#END
