
#######################################################################
#
#                 Cambridge Crystallographic Data Centre
#                                CCDC 
#
#######################################################################
#
# If this CIF has been generated from an entry in the Cambridge 
# Structural Database, then it will include bibliographic, chemical, 
# crystal, experimental, refinement or atomic coordinate data resulting 
# from the CCDC's data processing and validation procedures.
#
#######################################################################

data_FIFPAM01
_chemical_formula_moiety         '(C12 H20 N2 Ni1 O9)n'
_symmetry_cell_setting           monoclinic
_symmetry_space_group_name_H-M   'C c'
_symmetry_Int_Tables_number      9
_space_group_name_Hall           'C -2yc'
loop_
_symmetry_equiv_pos_site_id
_symmetry_equiv_pos_as_xyz
1 x,y,z
2 x,-y,1/2+z
3 1/2+x,1/2+y,z
4 1/2+x,1/2-y,1/2+z
_cell_length_a                   10.5032(18)
_cell_length_b                   20.087(3)
_cell_length_c                   8.1405(14)
_cell_angle_alpha                90
_cell_angle_beta                 102.656(3)
_cell_angle_gamma                90
_cell_volume                     1675.74
loop_
_atom_site_label
_atom_site_type_symbol
_atom_site_fract_x
_atom_site_fract_y
_atom_site_fract_z
_atom_site_U_iso_or_equiv
_atom_site_thermal_displace_type
Ni1 Ni 0.2015(3) 0.25324(6) 0.1818(3) 0.0258 Uani
O1 O 0.0383(8) 0.3003(3) 0.0364(10) 0.0319 Uani
O2 O -0.1389(8) 0.2968(3) -0.1675(10) 0.0308 Uani
O3 O 0.2626(9) 0.2306(5) -0.0374(10) 0.0355 Uani
O4 O 0.1327(8) 0.2849(4) 0.3926(10) 0.0356 Uani
N1 N 0.1074(10) 0.1619(4) 0.1754(11) 0.0288 Uani
C1 C -0.0786(12) -0.0297(5) 0.1838(16) 0.0315 Uani
C2 C -0.0163(12) 0.0368(5) 0.1789(14) 0.0305 Uani
C3 C -0.0099(12) 0.1547(5) 0.2103(16) 0.0311 Uani
C4 C -0.0791(14) 0.0950(6) 0.2138(16) 0.0344 Uani
C5 C 0.1072(13) 0.0424(6) 0.1388(16) 0.0346 Uani
C6 C -0.1920(16) -0.0375(6) 0.236(2) 0.0461 Uani
C7 C 0.1614(13) 0.1047(5) 0.1385(18) 0.0361 Uani
O5 O 0.1427(10) 0.2874(5) 0.6657(11) 0.0594 Uani
C8 C 0.1715(11) 0.2626(5) 0.5390(13) 0.0328 Uani
C9 C -0.0392(13) 0.2709(4) -0.0798(15) 0.0279 Uiso
H1 H -0.066(13) 0.188(6) 0.264(16) 0.0500 Uiso
N2 N -0.2002(10) -0.1539(4) 0.1881(13) 0.0286 Uani
C10 C -0.0283(15) -0.0881(7) 0.136(2) 0.0440 Uani
C11 C -0.2505(15) -0.0980(5) 0.241(2) 0.0376 Uani
C12 C -0.0874(13) -0.1475(6) 0.1377(16) 0.0330 Uani
H2 H -0.023(8) 0.220(3) -0.098(9) 0.0000 Uiso
H3 H -0.166(10) 0.095(4) 0.238(12) 0.0100 Uiso
H4 H -0.219(10) -0.017(5) 0.273(12) 0.0000 Uiso
H5 H 0.259(8) 0.108(4) 0.085(10) 0.0000 Uiso
H6 H -0.300(10) -0.110(4) 0.261(13) 0.0000 Uiso
H7 H 0.210(11) 0.224(6) 0.527(14) 0.0300 Uiso
H8 H 0.169(9) -0.001(4) 0.132(11) 0.0100 Uiso
H9 H -0.061(13) -0.189(7) 0.138(16) 0.0400 Uiso
H10 H 0.266(10) 0.261(5) -0.023(13) 0.0000 Uiso
H11 H 0.300(12) 0.197(6) -0.063(15) 0.0300 Uiso
H12 H 0.012(10) -0.091(5) 0.095(12) 0.0000 Uiso
Ni1C Ni -0.2985(3) 0.24676(6) -0.3182(3) 0.0258 Uani
Ni1B Ni -0.2985(3) -0.24676(6) 0.1818(3) 0.0258 Uani
O2C O 0.3611(8) 0.2032(3) 0.3325(10) 0.0308 Uani
N2B N 0.2998(10) 0.3461(4) 0.1881(13) 0.0286 Uani
O6 O 0.3013(12) 0.0916(5) 0.5428(15) 0.0573 Uani
H13 H 0.310(10) 0.119(5) 0.483(13) 0.0200 Uiso
O7 O 0.4122(10) 0.1362(4) -0.1409(12) 0.0508 Uani
H14 H 0.498(13) 0.117(5) -0.062(16) 0.0400 Uiso
O8 O 0.4664(15) 0.0154(5) 0.0316(17) 0.0958 Uani
O9 O -0.402(2) 0.0734(8) 0.332(3) 0.1130 Uani
H15 H -0.401(12) 0.096(5) 0.272(13) 0.0000 Uiso
loop_
_atom_site_aniso_label
_atom_site_aniso_U_11
_atom_site_aniso_U_22
_atom_site_aniso_U_33
_atom_site_aniso_U_23
_atom_site_aniso_U_13
_atom_site_aniso_U_12
Ni1 0.0223(5) 0.0304(6) 0.0243(5) 0.0011(5) 0.0040(4) -0.0031(5)
O1 0.029(4) 0.028(4) 0.032(4) 0.000(3) -0.008(4) -0.002(3)
O2 0.019(4) 0.031(4) 0.040(5) 0.001(3) 0.001(4) 0.000(3)
O3 0.050(6) 0.023(4) 0.037(5) -0.007(4) 0.017(4) 0.010(4)
O4 0.043(5) 0.031(4) 0.037(5) -0.003(3) 0.018(4) 0.000(4)
N1 0.030(5) 0.038(5) 0.021(5) 0.001(4) 0.011(4) -0.002(4)
C1 0.028(8) 0.035(5) 0.033(7) -0.003(4) 0.010(6) -0.002(5)
C2 0.033(8) 0.039(6) 0.021(6) 0.000(4) 0.009(6) -0.010(5)
C3 0.027(7) 0.030(5) 0.039(6) 0.004(5) 0.013(6) -0.003(5)
C4 0.032(8) 0.037(6) 0.035(7) 0.001(5) 0.009(6) -0.011(5)
C5 0.030(7) 0.038(5) 0.041(7) 0.002(5) 0.019(6) -0.004(5)
C6 0.048(9) 0.029(6) 0.068(10) -0.018(6) 0.027(8) 0.005(6)
C7 0.033(8) 0.028(5) 0.054(9) 0.000(5) 0.024(6) -0.003(5)
O5 0.073(7) 0.070(6) 0.037(5) 0.000(4) 0.016(5) 0.013(5)
C8 0.036(6) 0.036(5) 0.029(6) -0.001(4) 0.013(5) 0.000(5)
N2 0.027(5) 0.019(4) 0.038(5) 0.001(4) 0.003(5) -0.011(3)
C10 0.036(9) 0.042(7) 0.066(10) -0.007(6) 0.037(8) 0.004(6)
C11 0.024(7) 0.026(5) 0.064(9) 0.004(5) 0.012(6) -0.010(5)
C12 0.038(8) 0.029(6) 0.034(6) 0.004(5) 0.012(6) -0.005(5)
Ni1C 0.0223 0.0304 0.0243 -0.0011 0.004 0.0031
Ni1B 0.0223 0.0304 0.0243 0.0011 0.004 -0.0031
O2C 0.019 0.031 0.04 -0.001 0.001 0
N2B 0.027 0.019 0.038 0.001 0.003 -0.011
O6 0.063(7) 0.056(6) 0.056(7) 0.010(5) 0.020(6) -0.012(5)
O7 0.054(6) 0.049(5) 0.051(5) -0.004(4) 0.015(4) 0.009(4)
O8 0.108(10) 0.063(6) 0.106(10) 0.027(6) 0.001(8) -0.006(7)
O9 0.098(13) 0.094(12) 0.136(18) -0.026(11) 0.002(11) 0.020(10)
loop_
_geom_bond_atom_site_label_1
_geom_bond_atom_site_label_2
_geom_bond_site_symmetry_1
_geom_bond_site_symmetry_2
Ni1 O1 1_555 1_555
O1 C9 1_555 1_555
O2 C9 1_555 1_555
O3 Ni1 1_555 1_555
O4 Ni1 1_555 1_555
N1 Ni1 1_555 1_555
C1 C2 1_555 1_555
C2 C4 1_555 1_555
C3 N1 1_555 1_555
C4 C3 1_555 1_555
C5 C2 1_555 1_555
C6 C1 1_555 1_555
C7 N1 1_555 1_555
O5 C8 1_555 1_555
C8 O4 1_555 1_555
C9 H2 1_555 1_555
H1 C3 1_555 1_555
N2 C11 1_555 1_555
C10 C1 1_555 1_555
C11 C6 1_555 1_555
C12 N2 1_555 1_555
H3 C4 1_555 1_555
H4 C6 1_555 1_555
H5 C7 1_555 1_555
H6 C11 1_555 1_555
H7 C8 1_555 1_555
H8 C5 1_555 1_555
H9 C12 1_555 1_555
H10 O3 1_555 1_555
H11 O3 1_555 1_555
H12 C10 1_555 1_555
O6 H13 1_555 1_555
O7 H14 1_555 1_555
O9 H15 1_555 1_555
Ni1C O2 1_555 1_555
Ni1B N2 1_555 1_555
O2C Ni1 1_555 1_555
N2B Ni1 1_555 1_555
C5 C7 1_555 1_555
C10 C12 1_555 1_555

#END
