
#######################################################################
#
#                 Cambridge Crystallographic Data Centre
#                                CCDC 
#
#######################################################################
#
# If this CIF has been generated from an entry in the Cambridge 
# Structural Database, then it will include bibliographic, chemical, 
# crystal, experimental, refinement or atomic coordinate data resulting 
# from the CCDC's data processing and validation procedures.
#
#######################################################################

data_HAPBEI
_chemical_formula_moiety         'C104 H151 Cu4 I4 N8 O56 P4 Ti20'
_symmetry_cell_setting           triclinic
_symmetry_space_group_name_H-M   'P -1'
_symmetry_Int_Tables_number      2
_space_group_name_Hall           '-P 1'
loop_
_symmetry_equiv_pos_site_id
_symmetry_equiv_pos_as_xyz
1 x,y,z
2 -x,-y,-z
_cell_length_a                   13.527(3)
_cell_length_b                   25.847(6)
_cell_length_c                   26.657(6)
_cell_angle_alpha                98.870(10)
_cell_angle_beta                 103.892(8)
_cell_angle_gamma                103.725(8)
_cell_volume                     8566.02
loop_
_atom_site_label
_atom_site_type_symbol
_atom_site_fract_x
_atom_site_fract_y
_atom_site_fract_z
_atom_site_U_iso_or_equiv
_atom_site_thermal_displace_type
Ti1 Ti 0.51685(15) 0.12140(6) 0.54975(6) 0.0535 Uani
Ti2 Ti 1.10039(14) 0.08117(7) 0.08526(6) 0.0542 Uani
Ti3 Ti 0.66289(13) 0.07559(6) 0.49156(6) 0.0507 Uani
Ti4 Ti 0.36642(13) 0.03510(7) 0.45032(6) 0.0511 Uani
Ti5 Ti 1.38313(13) 0.42596(6) 0.42986(6) 0.0518 Uani
Ti6 Ti 0.84650(14) -0.03206(7) 0.03029(7) 0.0541 Uani
Ti7 Ti 1.36135(13) 0.55552(6) 0.50330(7) 0.0573 Uani
Ti8 Ti 1.05295(16) -0.03626(7) 0.10856(7) 0.0589 Uani
Ti9 Ti 1.29231(14) 0.43833(7) 0.52559(7) 0.0607 Uani
Ti10 Ti 0.49027(18) 0.47251(8) 0.08136(8) 0.0739 Uani
Ti11 Ti 0.50100(19) 0.40325(8) -0.05067(8) 0.0760 Uani
Ti12 Ti 0.69082(18) 0.45797(9) 0.05249(9) 0.0801 Uani
Cu1 Cu 0.67207(12) 0.24126(6) 0.29369(5) 0.0704 Uani
Cu2 Cu 0.68309(11) 0.24288(5) 0.19620(5) 0.0697 Uani
Cu3 Cu 0.81434(12) 0.20075(5) 0.25520(5) 0.0705 Uani
Cu4 Cu 0.84358(11) 0.30495(5) 0.28391(5) 0.0699 Uani
I1 I 0.87094(6) 0.24791(3) 0.35772(2) 0.0639 Uani
I2 I 0.65473(6) 0.32939(3) 0.25621(3) 0.0665 Uani
I3 I 0.59984(6) 0.14957(3) 0.22026(3) 0.0779 Uani
I4 I 0.88592(6) 0.26364(3) 0.19449(3) 0.0736 Uani
P1 P 0.2896(3) 0.42046(13) -0.02254(14) 0.0806 Uani
P2 P 0.5080(2) -0.01725(10) 0.38860(9) 0.0528 Uani
P3 P 1.4619(2) 0.54440(10) 0.40421(10) 0.0609 Uani
P4 P 0.8885(2) 0.08585(10) 0.00107(10) 0.0561 Uani
C1 C 0.9377(11) 0.4183(5) 0.2847(5) 0.0875 Uani
H1 H 0.8895 0.4077 0.2501 0.1050 Uiso
C2 C 0.9989(11) 0.4716(5) 0.3031(6) 0.1014 Uani
H2 H 0.9929 0.4963 0.2804 0.1220 Uiso
C3 C 1.0725(7) 0.4519(4) 0.3808(4) 0.0618 Uani
C4 C 0.8571(13) 0.0484(5) 0.2747(6) 0.0981 Uani
H3 H 0.8365 0.0249 0.2968 0.1180 Uiso
C5 C 1.0122(7) 0.3990(4) 0.3621(4) 0.0570 Uani
H4 H 1.0193 0.3738 0.3842 0.0680 Uiso
C6 C 1.1547(7) 0.4711(4) 0.4343(4) 0.0613 Uani
C7 C 1.4204(11) 0.5663(5) 0.3443(4) 0.0815 Uani
C8 C 1.4864(16) 0.5823(8) 0.3154(6) 0.1255 Uani
H5 H 1.5580 0.5815 0.3273 0.1510 Uiso
C9 C 1.455(3) 0.5996(11) 0.2698(9) 0.1730 Uani
H6 H 1.5055 0.6133 0.2520 0.2050 Uiso
C10 C 1.355(3) 0.5970(13) 0.2511(10) 0.1845 Uani
H7 H 1.3327 0.6076 0.2186 0.2200 Uiso
C11 C 1.285(2) 0.5806(9) 0.2748(10) 0.1735 Uani
H8 H 1.2124 0.5787 0.2595 0.2060 Uiso
C12 C 1.3156(14) 0.5648(7) 0.3252(7) 0.1257 Uani
H9 H 1.2657 0.5541 0.3441 0.1510 Uiso
C13 C 1.2818(12) 0.5425(7) 0.6013(6) 0.1020 Uani
H10 H 1.3138 0.5825 0.6049 0.1220 Uiso
C14 C 1.3447(17) 0.5291(9) 0.6501(6) 0.1498 Uani
H11 H 1.3211 0.4897 0.6477 0.2230 Uiso
H12 H 1.3334 0.5487 0.6817 0.2230 Uiso
H13 H 1.4205 0.5401 0.6524 0.2230 Uiso
C15 C 1.1676(19) 0.5352(12) 0.5923(11) 0.2207 Uani
H14 H 1.1299 0.4961 0.5832 0.3320 Uiso
H15 H 1.1414 0.5519 0.5631 0.3320 Uiso
H16 H 1.1551 0.5528 0.6246 0.3320 Uiso
C16 C 1.116(2) 0.3767(15) 0.5775(14) 0.2291 Uani
H17 H 1.0730 0.4007 0.5882 0.2750 Uiso
C17 C 1.172(4) 0.359(2) 0.614(2) 0.4200 Uiso
H18 H 1.1613 0.3733 0.6485 0.6320 Uiso
H19 H 1.2468 0.3725 0.6162 0.6320 Uiso
H20 H 1.1492 0.3193 0.6061 0.6320 Uiso
C18 C 1.060(4) 0.325(3) 0.545(2) 0.3700 Uiso
C19 C 1.2932(11) 0.3236(5) 0.4685(7) 0.0992 Uani
H21 H 1.3210 0.3139 0.4378 0.1190 Uiso
C20 C 1.3571(18) 0.3073(7) 0.5086(10) 0.1759 Uani
H22 H 1.3657 0.3307 0.5429 0.2630 Uiso
H23 H 1.4268 0.3107 0.5026 0.2630 Uiso
H24 H 1.3237 0.2692 0.5084 0.2630 Uiso
C21 C 1.1765(13) 0.2958(6) 0.4457(9) 0.1575 Uani
H25 H 1.1604 0.2591 0.4529 0.2390 Uiso
H26 H 1.1560 0.2929 0.4073 0.2390 Uiso
H27 H 1.1367 0.3171 0.4620 0.2390 Uiso
C22 C 1.265(2) 0.3621(9) 0.3156(7) 0.1937 Uani
H28 H 1.3330 0.3707 0.3061 0.2330 Uiso
C23 C 1.200(2) 0.3822(13) 0.2836(7) 0.2022 Uani
C24 C 1.224(3) 0.3008(17) 0.3031(15) 0.2650 Uiso
C25 C 1.2237(15) 0.6328(8) 0.4893(8) 0.1371 Uani
H29 H 1.1595 0.6003 0.4765 0.1650 Uiso
C26 C 1.235(2) 0.6503(11) 0.4427(12) 0.2150 Uani
H30 H 1.1864 0.6720 0.4329 0.3210 Uiso
H31 H 1.2192 0.6184 0.4138 0.3210 Uiso
H32 H 1.3086 0.6727 0.4492 0.3210 Uiso
C27 C 1.1999(19) 0.6685(10) 0.5271(10) 0.2080 Uani
H33 H 1.2660 0.6966 0.5477 0.3130 Uiso
H34 H 1.1708 0.6479 0.5508 0.3130 Uiso
C28 C 0.6020(9) 0.2866(4) 0.1044(4) 0.0667 Uani
H35 H 0.6593 0.3179 0.1236 0.0800 Uiso
C29 C 0.5352(10) 0.2888(4) 0.0569(4) 0.0713 Uani
C30 C 0.4462(17) 0.2023(7) 0.0479(7) 0.1606 Uani
H36 H 0.3908 0.1704 0.0280 0.1930 Uiso
C31 C 0.5089(13) 0.1994(5) 0.0950(5) 0.1117 Uani
H37 H 0.4953 0.1665 0.1072 0.1340 Uiso
C32 C 0.5567(10) 0.3411(4) 0.0366(5) 0.0726 Uani
C33 C 0.1666(8) 0.3678(5) -0.0350(6) 0.1145 Uani
C34 C 0.0884(12) 0.3544(7) -0.0833(6) 0.2061 Uani
H38 H 0.0982 0.3741 -0.1099 0.2480 Uiso
C35 C -0.0040(11) 0.3123(8) -0.0928(7) 0.2659 Uani
H39 H -0.0574 0.3032 -0.1258 0.3190 Uiso
C36 C -0.0184(12) 0.2835(7) -0.0539(9) 0.2528 Uani
H40 H -0.0816 0.2547 -0.0603 0.3020 Uiso
C37 C 0.0597(17) 0.2969(8) -0.0055(8) 0.3605 Uani
H41 H 0.0499 0.2772 0.0210 0.4380 Uiso
C38 C 0.1522(14) 0.3390(8) 0.0039(6) 0.3071 Uani
H42 H 0.2056 0.3481 0.0370 0.3690 Uiso
C39 C 0.467(4) 0.268(3) -0.119(3) 0.4300 Uiso
H43 H 0.4897 0.2407 -0.0999 0.5160 Uiso
C40 C 0.458(5) 0.283(2) -0.170(2) 0.4300 Uiso
H44 H 0.4741 0.3190 -0.1790 0.6450 Uiso
H45 H 0.3979 0.2576 -0.1981 0.6450 Uiso
H46 H 0.5201 0.2695 -0.1659 0.6450 Uiso
C41 C 0.371(4) 0.2872(8) -0.1362(13) 0.3087 Uani
H47 H 0.3351 0.3103 -0.1193 0.4650 Uiso
H48 H 0.3258 0.2494 -0.1476 0.4650 Uiso
C42 C 0.392(3) 0.4169(12) 0.1582(12) 0.2306 Uani
H49 H 0.4452 0.4275 0.1939 0.2770 Uiso
C43 C 0.388(3) 0.3663(14) 0.1530(19) 0.3499 Uani
H50 H 0.4010 0.3573 0.1880 0.5270 Uiso
H51 H 0.4426 0.3592 0.1367 0.5270 Uiso
H52 H 0.3178 0.3437 0.1304 0.5270 Uiso
C44 C 0.332(5) 0.4424(19) 0.175(2) 0.5062 Uani
H53 H 0.2634 0.4331 0.1471 0.7610 Uiso
H54 H 0.3656 0.4818 0.1823 0.7610 Uiso
H55 H 0.3196 0.4318 0.2068 0.7610 Uiso
C45 C 0.7130(15) 0.5110(6) 0.1668(6) 0.1142 Uani
H56 H 0.7856 0.5215 0.1619 0.1370 Uiso
C46 C 0.702(3) 0.5623(9) 0.1869(9) 0.2479 Uani
H57 H 0.6940 0.5637 0.2226 0.3740 Uiso
H58 H 0.6392 0.5679 0.1637 0.3740 Uiso
H59 H 0.7654 0.5911 0.1884 0.3740 Uiso
C47 C 0.7229(16) 0.4707(8) 0.2001(6) 0.1425 Uani
H60 H 0.7817 0.4877 0.2325 0.2140 Uiso
H61 H 0.7367 0.4393 0.1804 0.2140 Uiso
H62 H 0.6566 0.4586 0.2094 0.2140 Uiso
C48 C 0.912(2) 0.4425(13) 0.1052(15) 0.2391 Uani
C49 C 0.906(2) 0.3933(12) 0.1110(16) 0.2816 Uani
H63 H 0.9064 0.3707 0.0781 0.4230 Uiso
H64 H 0.8396 0.3782 0.1194 0.4230 Uiso
H65 H 0.9665 0.3936 0.1400 0.4230 Uiso
C50 C 0.997(2) 0.481(2) 0.128(2) 0.4690 Uani
H66 H 1.0302 0.4934 0.1018 0.7020 Uiso
H67 H 1.0455 0.4681 0.1533 0.7020 Uiso
H68 H 0.9790 0.5115 0.1475 0.7020 Uiso
C51 C 0.738(2) 0.4105(10) -0.0487(11) 0.1756 Uani
C52 C 0.763(3) 0.4414(16) -0.0794(16) 0.2910 Uani
H69 H 0.8241 0.4727 -0.0591 0.4360 Uiso
H70 H 0.7029 0.4545 -0.0948 0.4360 Uiso
H71 H 0.7822 0.4207 -0.1079 0.4360 Uiso
C53 C 0.744(3) 0.3550(12) -0.0524(12) 0.2451 Uani
H72 H 0.7692 0.3441 -0.0827 0.3630 Uiso
H73 H 0.6729 0.3304 -0.0572 0.3630 Uiso
H74 H 0.7928 0.3527 -0.0197 0.3630 Uiso
C54 C 0.8351(12) 0.0973(6) 0.2789(5) 0.0987 Uani
H75 H 0.7964 0.1061 0.3027 0.1180 Uiso
C55 C 0.9183(8) 0.1188(4) 0.2175(4) 0.0584 Uani
H76 H 0.9416 0.1433 0.1967 0.0700 Uiso
C56 C 0.9394(8) 0.0683(4) 0.2128(4) 0.0605 Uani
C57 C 0.9945(8) 0.0528(4) 0.1725(4) 0.0590 Uani
C58 C 0.8155(9) 0.1359(4) -0.0013(4) 0.0631 Uani
C59 C 0.7558(13) 0.1394(6) -0.0483(6) 0.1164 Uani
H77 H 0.7528 0.1154 -0.0797 0.1400 Uiso
C60 C 0.6975(14) 0.1780(7) -0.0519(7) 0.1232 Uani
H78 H 0.6549 0.1798 -0.0851 0.1480 Uiso
C61 C 0.7037(12) 0.2119(6) -0.0069(7) 0.1076 Uani
H79 H 0.6644 0.2379 -0.0084 0.1290 Uiso
C62 C 0.764(2) 0.2096(9) 0.0391(7) 0.1852 Uani
H80 H 0.7675 0.2340 0.0705 0.2190 Uiso
C63 C 0.8214(16) 0.1717(7) 0.0418(5) 0.1386 Uani
H81 H 0.8660 0.1713 0.0752 0.1660 Uiso
C64 C 1.2096(13) 0.1947(5) 0.1595(6) 0.1049 Uani
H82 H 1.1843 0.1841 0.1897 0.1260 Uiso
C65 C 1.3216(16) 0.2195(7) 0.1804(11) 0.2193 Uani
H83 H 1.3592 0.1925 0.1729 0.3320 Uiso
H84 H 1.3397 0.2331 0.2188 0.3320 Uiso
H85 H 1.3428 0.2500 0.1638 0.3320 Uiso
C66 C 1.1488(18) 0.2283(8) 0.1390(10) 0.1976 Uani
H86 H 1.1668 0.2626 0.1653 0.2940 Uiso
H87 H 1.0730 0.2094 0.1311 0.2940 Uiso
H88 H 1.1643 0.2362 0.1065 0.2940 Uiso
C67 C 1.2827(10) 0.0451(7) 0.1518(5) 0.1045 Uani
H89 H 1.3031 0.0822 0.1441 0.1250 Uiso
C68 C 1.3002(12) 0.0639(6) 0.2084(5) 0.1054 Uani
H90 H 1.2913 0.0324 0.2249 0.1580 Uiso
H91 H 1.2487 0.0835 0.2140 0.1580 Uiso
H92 H 1.3724 0.0884 0.2243 0.1580 Uiso
C69 C 1.3428(12) 0.0240(11) 0.1272(7) 0.1914 Uani
H93 H 1.4174 0.0453 0.1432 0.2860 Uiso
H94 H 1.3211 0.0250 0.0896 0.2860 Uiso
H95 H 1.3344 -0.0139 0.1305 0.2860 Uiso
C70 C 1.151(3) -0.0887(9) 0.2029(8) 0.1921 Uani
H96 H 1.2230 -0.0612 0.2173 0.2330 Uiso
C71 C 1.098(3) -0.0750(18) 0.2415(12) 0.3488 Uani
H97 H 1.0256 -0.0997 0.2308 0.5200 Uiso
H98 H 1.0950 -0.0373 0.2439 0.5200 Uiso
H99 H 1.1369 -0.0789 0.2762 0.5200 Uiso
C72 C 1.175(3) -0.1348(14) 0.1888(13) 0.2470 Uiso
H100 H 1.1881 -0.1518 0.2193 0.3700 Uiso
H101 H 1.2394 -0.1267 0.1770 0.3700 Uiso
H102 H 1.1161 -0.1598 0.1599 0.3700 Uiso
C73 C 0.8485(19) -0.1346(7) 0.0785(9) 0.1432 Uani
H103 H 0.9160 -0.1390 0.1004 0.1710 Uiso
C74 C 0.807(2) -0.1329(11) 0.1234(12) 0.2192 Uani
H104 H 0.7395 -0.1615 0.1143 0.3280 Uiso
H105 H 0.7956 -0.0971 0.1331 0.3280 Uiso
H106 H 0.8580 -0.1388 0.1534 0.3280 Uiso
C75 C 0.844(2) -0.1746(7) 0.0399(13) 0.2392 Uani
H107 H 0.8451 -0.2070 0.0546 0.3630 Uiso
H108 H 0.9070 -0.1638 0.0275 0.3630 Uiso
C76 C 0.6428(13) -0.0248(9) 0.0560(8) 0.1375 Uani
H109 H 0.6285 -0.0024 0.0291 0.1650 Uiso
C77 C 0.549(2) -0.0600(12) 0.0515(18) 0.3290 Uani
H110 H 0.5608 -0.0866 0.0732 0.4950 Uiso
H111 H 0.5156 -0.0792 0.0143 0.4950 Uiso
H112 H 0.5032 -0.0401 0.0637 0.4950 Uiso
C78 C 0.677(2) 0.0120(12) 0.1070(10) 0.2187 Uani
H113 H 0.6152 0.0199 0.1160 0.3260 Uiso
H114 H 0.7266 0.0460 0.1061 0.3260 Uiso
H115 H 0.7125 -0.0049 0.1337 0.3260 Uiso
C79 C 0.5420(12) 0.2773(6) 0.3609(6) 0.1057 Uani
H116 H 0.5353 0.3030 0.3393 0.1270 Uiso
C80 C 0.5029(13) 0.2801(6) 0.4038(6) 0.1110 Uani
H117 H 0.4702 0.3079 0.4113 0.1330 Uiso
C81 C 0.5577(8) 0.2066(4) 0.4233(4) 0.0619 Uani
C82 C 0.5978(8) 0.2042(4) 0.3812(4) 0.0578 Uani
H118 H 0.6325 0.1769 0.3747 0.0690 Uiso
C83 C 0.5691(7) 0.1676(4) 0.4594(4) 0.0528 Uani
C84 C 0.5430(12) 0.0115(5) 0.2964(5) 0.0901 Uani
H119 H 0.5568 0.0485 0.3140 0.1080 Uiso
C85 C 0.5497(13) -0.0002(6) 0.2462(5) 0.1000 Uani
H120 H 0.5679 0.0290 0.2293 0.1200 Uiso
C86 C 0.5321(15) -0.0503(7) 0.2201(6) 0.1156 Uani
H121 H 0.5426 -0.0566 0.1860 0.1390 Uiso
C87 C 0.499(2) -0.0925(8) 0.2414(7) 0.1893 Uani
H122 H 0.4775 -0.1290 0.2209 0.2250 Uiso
C88 C 0.4978(18) -0.0820(6) 0.2947(6) 0.1455 Uani
H123 H 0.4837 -0.1113 0.3119 0.1730 Uiso
C89 C 0.230(3) 0.0583(14) 0.3523(9) 0.2124 Uani
C90 C 0.2754(11) 0.1024(5) 0.5267(6) 0.0916 Uani
H124 H 0.3100 0.1194 0.5652 0.1100 Uiso
C91 C 0.2528(14) 0.1502(7) 0.5084(8) 0.1317 Uani
H125 H 0.2284 0.1417 0.4696 0.1980 Uiso
H126 H 0.3174 0.1811 0.5210 0.1980 Uiso
H127 H 0.1972 0.1598 0.5225 0.1980 Uiso
C92 C 0.2013(19) 0.0565(10) 0.5308(13) 0.2296 Uani
H128 H 0.1480 0.0681 0.5454 0.3470 Uiso
H129 H 0.2376 0.0369 0.5544 0.3470 Uiso
H130 H 0.1662 0.0323 0.4957 0.3470 Uiso
C93 C 0.513(2) 0.2300(6) 0.6226(9) 0.1925 Uani
H131 H 0.4357 0.2264 0.6094 0.2310 Uiso
C94 C 0.554(2) 0.2722(12) 0.6062(12) 0.2190 Uiso
H132 H 0.5202 0.3007 0.6139 0.3290 Uiso
H133 H 0.5432 0.2619 0.5679 0.3290 Uiso
H134 H 0.6307 0.2860 0.6244 0.3290 Uiso
C95 C 0.527(4) 0.2307(11) 0.6790(9) 0.3114 Uani
H135 H 0.5851 0.2157 0.6925 0.4710 Uiso
H136 H 0.4608 0.2085 0.6833 0.4710 Uiso
H137 H 0.5425 0.2684 0.6988 0.4710 Uiso
C96 C 0.7623(11) 0.1599(5) 0.5987(5) 0.0904 Uani
H138 H 0.8147 0.1428 0.5874 0.1090 Uiso
C97 C 0.8036(14) 0.2150(6) 0.5921(7) 0.1273 Uani
H139 H 0.7500 0.2346 0.5922 0.1910 Uiso
H140 H 0.8208 0.2131 0.5583 0.1910 Uiso
H141 H 0.8680 0.2343 0.6212 0.1910 Uiso
C98 C 0.768(2) 0.1448(10) 0.6467(8) 0.2678 Uani
H142 H 0.6986 0.1386 0.6532 0.3980 Uiso
H143 H 0.8207 0.1740 0.6752 0.3980 Uiso
H144 H 0.7899 0.1111 0.6456 0.3980 Uiso
C99 C 0.8571(11) 0.1284(7) 0.4565(7) 0.1043 Uani
H145 H 0.8151 0.1483 0.4346 0.1250 Uiso
C100 C 0.9535(19) 0.1688(11) 0.4932(11) 0.2458 Uani
H146 H 0.9856 0.1522 0.5212 0.3670 Uiso
H147 H 0.9346 0.2005 0.5091 0.3670 Uiso
H148 H 1.0045 0.1805 0.4736 0.3670 Uiso
C101 C 0.879(2) 0.0894(12) 0.4225(10) 0.2360 Uani
H149 H 0.9551 0.0996 0.4259 0.3490 Uiso
H150 H 0.8388 0.0871 0.3859 0.3490 Uiso
H151 H 0.8580 0.0538 0.4316 0.3490 Uiso
C102 C 0.5166(9) -0.0291(4) 0.3218(4) 0.0621 Uani
N1 N 0.5880(7) 0.2418(3) 0.1238(3) 0.0672 Uani
N2 N 0.5908(8) 0.2382(4) 0.3484(4) 0.0761 Uani
N3 N 0.9430(7) 0.3812(3) 0.3133(3) 0.0664 Uani
N4 N 0.8653(7) 0.1330(3) 0.2513(3) 0.0666 Uani
N5 N 0.5090(9) 0.2451(5) 0.4352(4) 0.0933 Uani
N6 N 0.4570(12) 0.2468(5) 0.0273(4) 0.1270 Uani
N7 N 0.9084(9) 0.0322(4) 0.2391(4) 0.0830 Uani
N8 N 1.0670(8) 0.4900(4) 0.3519(4) 0.0844 Uani
O1 O 0.3651(5) 0.0912(3) 0.5124(3) 0.0588 Uani
O2 O 1.3729(4) 0.4793(2) 0.4845(2) 0.0493 Uani
O3 O 0.3085(5) -0.0253(2) 0.4684(2) 0.0545 Uani
O4 O 0.5247(6) 0.1710(2) 0.4952(3) 0.0604 Uani
O5 O 0.9899(5) 0.0090(2) 0.0631(2) 0.0554 Uani
O6 O 0.5121(5) 0.0637(2) 0.4901(2) 0.0483 Uani
O7 O 0.6688(5) 0.1292(2) 0.5574(2) 0.0584 Uani
O8 O 0.8355(5) -0.0710(3) -0.0314(2) 0.0590 Uani
O9 O 0.4145(5) 0.0051(3) 0.3908(2) 0.0611 Uani
O10 O 0.9041(6) -0.0798(3) 0.0770(3) 0.0626 Uani
O11 O 1.1589(5) 0.4358(3) 0.4627(3) 0.0651 Uani
O12 O 0.9923(5) 0.1105(3) 0.0446(2) 0.0591 Uani
O13 O 0.7937(5) 0.1028(3) 0.4872(3) 0.0655 Uani
O14 O 1.1704(6) 0.0311(3) 0.1231(3) 0.0653 Uani
O15 O 1.0273(6) 0.0885(3) 0.1495(3) 0.0623 Uani
O16 O 0.6265(5) 0.1377(3) 0.4513(3) 0.0578 Uani
O17 O 0.6124(5) 0.0241(3) 0.4226(3) 0.0612 Uani
O18 O 1.4146(6) 0.4829(3) 0.3908(3) 0.0644 Uani
O19 O 1.3124(5) 0.3815(2) 0.4749(3) 0.0619 Uani
O20 O 1.1887(6) 0.1457(3) 0.1221(3) 0.0703 Uani
O21 O 1.0040(6) 0.0048(3) 0.1670(2) 0.0646 Uani
O22 O 1.3003(5) 0.5153(3) 0.5532(3) 0.0673 Uani
O23 O 0.8202(5) 0.0346(3) 0.0111(3) 0.0599 Uani
O24 O 0.5185(7) 0.1786(3) 0.5958(3) 0.0742 Uani
O25 O 0.5388(6) 0.4498(3) 0.0230(3) 0.0729 Uani
O26 O 1.5820(6) 0.5606(3) 0.4197(3) 0.0719 Uani
O27 O 1.4913(5) 0.5863(2) 0.5548(3) 0.0585 Uani
O28 O 1.1040(6) -0.0713(3) 0.1561(3) 0.0739 Uani
O29 O 0.4913(6) -0.0730(3) 0.4029(3) 0.0673 Uani
O30 O 1.4199(5) 0.5722(2) 0.4456(3) 0.0639 Uani
O31 O 0.3524(6) 0.3973(3) -0.0553(3) 0.0803 Uani
O32 O 0.4964(7) 0.3399(3) -0.0073(3) 0.0837 Uani
O33 O 0.9045(6) 0.0740(3) -0.0536(3) 0.0695 Uani
O34 O 1.2134(5) 0.5180(3) 0.4453(3) 0.0735 Uani
O35 O 0.2592(7) 0.4690(3) -0.0420(4) 0.0893 Uani
O36 O 0.4851(7) 0.5408(3) 0.0865(3) 0.0805 Uani
O37 O 0.7224(7) -0.0469(4) 0.0461(4) 0.0883 Uani
O38 O 0.3452(7) 0.4347(3) 0.0361(3) 0.0844 Uani
O39 O 0.2699(7) 0.0561(4) 0.4054(3) 0.0829 Uani
O40 O 0.6491(7) 0.4857(3) 0.1141(3) 0.0829 Uani
O41 O 1.3084(6) 0.6119(3) 0.5119(3) 0.0821 Uani
O42 O 1.2923(6) 0.3793(3) 0.3709(3) 0.0826 Uani
O43 O 1.2041(6) 0.4011(4) 0.5551(3) 0.0858 Uani
O44 O 0.6358(7) 0.3794(3) 0.0659(3) 0.0818 Uani
O45 O 0.4608(9) 0.4464(4) 0.1359(4) 0.1121 Uani
O46 O 0.6633(7) 0.4211(3) -0.0220(4) 0.0893 Uani
O47 O 0.4765(9) 0.3492(4) -0.1055(3) 0.1063 Uani
O48 O 0.8201(7) 0.4546(4) 0.0823(4) 0.1040 Uani
C103 C 0.304(3) 0.1199(16) 0.3550(14) 0.2360 Uiso
C104 C 0.153(4) 0.077(2) 0.342(2) 0.3300 Uiso
Ti1A Ti 0.48315(15) -0.12140(6) 0.45025(6) 0.0535 Uani
Ti2A Ti 0.89961(14) -0.08117(7) -0.08526(6) 0.0542 Uani
Ti3A Ti 0.33711(13) -0.07559(6) 0.50844(6) 0.0507 Uani
Ti5A Ti 1.61687(13) 0.57404(6) 0.57014(6) 0.0518 Uani
Ti8A Ti 0.94705(16) 0.03626(7) -0.10856(7) 0.0589 Uani
Ti9A Ti 1.70769(14) 0.56167(7) 0.47441(7) 0.0607 Uani
Ti11A Ti 0.49900(19) 0.59675(8) 0.05067(8) 0.0760 Uani
Ti12A Ti 0.30918(18) 0.54203(9) -0.05249(9) 0.0801 Uani
O3A O 0.6915(5) 0.0253(2) 0.5316(2) 0.0545 Uani
O8A O 1.1645(5) 0.0710(3) 0.0314(2) 0.0590 Uani
O26A O 1.4180(6) 0.4394(3) 0.5803(3) 0.0719 Uani
O27A O 1.5087(5) 0.4137(2) 0.4452(3) 0.0585 Uani
O29A O 0.5087(6) 0.0730(3) 0.5971(3) 0.0673 Uani
O33A O 1.0955(6) -0.0740(3) 0.0536(3) 0.0695 Uani
O35A O 0.7408(7) 0.5310(3) 0.0420(4) 0.0893 Uani
O36A O 0.5149(7) 0.4592(3) -0.0865(3) 0.0805 Uani
loop_
_atom_site_aniso_label
_atom_site_aniso_U_11
_atom_site_aniso_U_22
_atom_site_aniso_U_33
_atom_site_aniso_U_23
_atom_site_aniso_U_13
_atom_site_aniso_U_12
Ti1 0.0746(11) 0.0465(8) 0.0524(9) 0.0202(7) 0.0306(8) 0.0233(8)
Ti2 0.0632(10) 0.0505(9) 0.0486(9) 0.0037(7) 0.0154(8) 0.0212(8)
Ti3 0.0540(9) 0.0515(8) 0.0560(9) 0.0231(7) 0.0239(7) 0.0173(7)
Ti4 0.0584(10) 0.0542(9) 0.0531(9) 0.0251(7) 0.0214(7) 0.0253(7)
Ti5 0.0509(9) 0.0411(8) 0.0545(9) -0.0025(7) 0.0075(7) 0.0130(7)
Ti6 0.0623(10) 0.0524(9) 0.0539(9) 0.0102(7) 0.0237(8) 0.0222(8)
Ti7 0.0502(9) 0.0420(8) 0.0728(11) -0.0039(7) 0.0130(8) 0.0160(7)
Ti8 0.0818(12) 0.0600(10) 0.0488(9) 0.0156(7) 0.0236(8) 0.0392(9)
Ti9 0.0529(10) 0.0579(10) 0.0678(11) 0.0090(8) 0.0200(8) 0.0101(8)
Ti10 0.0983(15) 0.0732(12) 0.0607(11) 0.0383(10) 0.0231(10) 0.0292(11)
Ti11 0.1053(16) 0.0714(12) 0.0614(11) 0.0335(10) 0.0223(11) 0.0337(11)
Ti12 0.0851(14) 0.0780(13) 0.0856(14) 0.0436(11) 0.0159(11) 0.0313(11)
Cu1 0.0870(9) 0.0777(8) 0.0717(8) 0.0388(7) 0.0430(7) 0.0359(7)
Cu2 0.0841(9) 0.0626(7) 0.0577(7) 0.0244(6) 0.0092(6) 0.0165(6)
Cu3 0.0956(10) 0.0635(7) 0.0698(8) 0.0190(6) 0.0347(7) 0.0414(7)
Cu4 0.0807(9) 0.0515(6) 0.0639(7) 0.0078(5) 0.0128(6) 0.0048(6)
I1 0.0718(4) 0.0701(4) 0.0500(3) 0.0165(3) 0.0138(3) 0.0225(3)
I2 0.0842(5) 0.0572(4) 0.0720(4) 0.0279(3) 0.0268(4) 0.0332(3)
I3 0.0765(5) 0.0515(4) 0.0912(5) 0.0277(3) 0.0050(4) 0.0031(3)
I4 0.0878(5) 0.0794(5) 0.0644(4) 0.0209(3) 0.0398(4) 0.0230(4)
P1 0.087(2) 0.0727(18) 0.084(2) 0.0422(16) 0.0169(17) 0.0184(16)
P2 0.0695(16) 0.0534(13) 0.0464(12) 0.0211(10) 0.0262(11) 0.0216(11)
P3 0.0635(16) 0.0540(13) 0.0565(14) 0.0094(11) 0.0067(12) 0.0134(11)
P4 0.0697(16) 0.0530(13) 0.0565(13) 0.0115(10) 0.0225(12) 0.0338(12)
C1 0.100(9) 0.074(7) 0.076(7) 0.030(6) 0.015(7) 0.004(6)
C2 0.096(10) 0.081(8) 0.094(9) 0.036(7) -0.003(8) -0.016(7)
C3 0.042(5) 0.052(5) 0.086(7) 0.011(5) 0.012(5) 0.013(4)
C4 0.164(13) 0.077(8) 0.118(10) 0.060(8) 0.098(10) 0.072(9)
C5 0.043(5) 0.057(5) 0.066(6) 0.004(4) 0.013(4) 0.014(4)
C6 0.042(5) 0.051(5) 0.084(7) -0.001(5) 0.010(5) 0.019(4)
C7 0.103(9) 0.065(7) 0.056(6) 0.014(5) 0.003(6) 0.006(6)
C8 0.146(15) 0.154(16) 0.096(11) 0.061(11) 0.044(11) 0.049(12)
C9 0.25(3) 0.19(2) 0.114(17) 0.075(17) 0.074(18) 0.08(2)
C10 0.25(3) 0.19(2) 0.104(15) 0.084(16) 0.024(19) 0.04(3)
C11 0.18(2) 0.137(17) 0.16(2) 0.052(15) -0.049(17) 0.052(16)
C12 0.116(13) 0.117(12) 0.118(12) 0.055(10) -0.008(10) 0.009(10)
C13 0.107(11) 0.121(11) 0.098(10) 0.001(8) 0.059(9) 0.055(9)
C14 0.21(2) 0.185(19) 0.073(9) -0.008(11) 0.061(12) 0.094(16)
C15 0.18(2) 0.31(4) 0.25(3) 0.04(3) 0.15(2) 0.14(2)
C16 0.229(14) 0.229(14) 0.229(14) 0.051(3) 0.066(4) 0.065(4)
C19 0.089(9) 0.050(6) 0.144(13) 0.016(7) 0.013(8) 0.017(6)
C20 0.19(2) 0.080(11) 0.24(3) 0.065(14) 0.008(18) 0.042(12)
C21 0.108(13) 0.063(9) 0.24(2) 0.004(11) -0.004(14) -0.016(8)
C22 0.27(3) 0.148(17) 0.094(12) -0.058(12) -0.065(15) 0.105(19)
C23 0.26(3) 0.31(4) 0.066(10) 0.053(16) 0.036(14) 0.14(3)
C25 0.130(14) 0.119(13) 0.156(16) -0.011(12) 0.006(12) 0.086(12)
C26 0.28(3) 0.22(3) 0.25(3) 0.15(3) 0.11(3) 0.17(3)
C27 0.18(2) 0.20(2) 0.23(3) -0.06(2) 0.017(19) 0.14(2)
C28 0.086(7) 0.060(6) 0.063(6) 0.028(5) 0.021(5) 0.029(5)
C29 0.090(8) 0.064(6) 0.061(6) 0.028(5) 0.011(6) 0.026(6)
C30 0.20(2) 0.085(10) 0.111(12) 0.029(9) -0.066(13) -0.011(11)
C31 0.144(13) 0.067(7) 0.085(9) 0.043(7) -0.024(8) -0.001(8)
C32 0.094(8) 0.060(6) 0.068(7) 0.027(5) 0.020(6) 0.025(6)
C33 0.075(8) 0.120(11) 0.158(13) 0.086(10) 0.019(8) 0.025(7)
C34 0.126(13) 0.224(17) 0.208(17) 0.102(15) -0.012(11) -0.035(13)
C35 0.144(15) 0.26(3) 0.33(4) 0.12(2) 0.025(18) -0.051(16)
C36 0.131(15) 0.25(3) 0.33(4) 0.13(2) 0.032(18) -0.040(16)
C37 0.28(4) 0.33(5) 0.32(5) 0.22(4) -0.05(4) -0.15(4)
C38 0.21(3) 0.28(4) 0.36(5) 0.23(4) 0.00(3) -0.08(3)
C41 0.69(8) 0.076(13) 0.24(3) 0.036(16) 0.25(5) 0.14(3)
C42 0.43(5) 0.19(2) 0.24(3) 0.15(2) 0.27(3) 0.16(3)
C43 0.34(5) 0.22(3) 0.62(9) 0.28(5) 0.25(6) 0.09(3)
C44 0.89(13) 0.32(6) 0.70(11) 0.29(7) 0.72(11) 0.29(7)
C45 0.151(14) 0.090(9) 0.082(9) 0.040(8) -0.012(9) 0.031(9)
C46 0.40(5) 0.121(17) 0.119(17) -0.022(13) -0.07(2) 0.06(2)
C47 0.182(18) 0.157(16) 0.090(10) 0.071(11) 0.005(11) 0.058(14)
C48 0.123(19) 0.18(3) 0.37(5) 0.11(3) -0.05(2) 0.053(18)
C49 0.18(3) 0.19(3) 0.50(6) 0.20(4) 0.04(3) 0.08(2)
C50 0.11(2) 0.40(7) 0.77(12) 0.22(7) -0.10(4) 0.01(3)
C51 0.21(2) 0.17(2) 0.25(3) 0.11(2) 0.15(2) 0.121(19)
C52 0.291(19) 0.291(19) 0.291(19) 0.065(4) 0.084(6) 0.083(6)
C53 0.34(4) 0.24(3) 0.26(3) 0.06(3) 0.16(3) 0.20(3)
C54 0.150(13) 0.108(10) 0.103(9) 0.055(8) 0.092(10) 0.081(10)
C55 0.082(7) 0.051(5) 0.052(5) 0.011(4) 0.025(5) 0.032(5)
C56 0.076(7) 0.064(6) 0.050(5) 0.011(4) 0.020(5) 0.035(5)
C57 0.071(6) 0.061(6) 0.047(5) 0.008(4) 0.018(5) 0.024(5)
C58 0.082(7) 0.062(6) 0.061(6) 0.011(5) 0.031(5) 0.041(5)
C59 0.158(14) 0.107(11) 0.085(9) -0.004(8) 0.001(9) 0.090(11)
C60 0.147(14) 0.142(14) 0.104(11) 0.031(10) 0.013(10) 0.106(12)
C61 0.116(12) 0.100(10) 0.128(13) 0.023(9) 0.033(10) 0.074(9)
C62 0.28(3) 0.22(2) 0.090(11) -0.014(12) 0.020(14) 0.20(2)
C63 0.23(2) 0.148(14) 0.061(7) 0.010(8) 0.005(10) 0.143(15)
C64 0.116(11) 0.067(8) 0.109(11) -0.019(7) 0.030(9) 0.011(8)
C65 0.138(17) 0.092(12) 0.32(3) -0.108(17) -0.022(19) 0.020(12)
C66 0.165(19) 0.100(13) 0.27(3) -0.044(15) -0.025(18) 0.074(13)
C67 0.070(8) 0.168(15) 0.072(8) 0.007(8) 0.000(6) 0.061(9)
C68 0.108(11) 0.125(12) 0.062(7) 0.009(7) 0.012(7) 0.014(9)
C69 0.055(9) 0.33(3) 0.127(14) -0.079(17) 0.012(9) 0.037(13)
C70 0.37(4) 0.141(17) 0.118(15) 0.075(14) 0.072(19) 0.14(2)
C71 0.58(8) 0.49(6) 0.22(3) 0.25(4) 0.22(4) 0.39(6)
C73 0.21(2) 0.088(11) 0.175(18) 0.072(12) 0.103(17) 0.048(12)
C74 0.21(3) 0.22(3) 0.33(4) 0.20(3) 0.15(3) 0.09(2)
C75 0.28(3) 0.045(9) 0.38(4) -0.002(16) 0.16(3) -0.011(14)
C76 0.087(11) 0.178(18) 0.145(15) -0.012(13) 0.063(11) 0.034(11)
C77 0.12(2) 0.21(3) 0.64(8) -0.03(4) 0.20(3) 0.004(19)
C78 0.22(3) 0.24(3) 0.20(3) -0.04(2) 0.11(2) 0.08(2)
C79 0.126(12) 0.126(11) 0.143(13) 0.099(10) 0.086(10) 0.089(10)
C80 0.178(15) 0.108(10) 0.142(12) 0.090(10) 0.122(12) 0.101(11)
C81 0.077(7) 0.069(6) 0.065(6) 0.039(5) 0.038(5) 0.035(5)
C82 0.068(6) 0.057(5) 0.065(6) 0.032(4) 0.027(5) 0.029(5)
C83 0.058(6) 0.055(5) 0.057(5) 0.027(4) 0.022(4) 0.023(4)
C84 0.158(13) 0.057(6) 0.066(7) 0.024(5) 0.045(8) 0.031(7)
C85 0.157(14) 0.086(9) 0.072(8) 0.042(7) 0.050(8) 0.030(9)
C86 0.184(17) 0.105(11) 0.083(9) 0.027(8) 0.081(11) 0.041(11)
C87 0.41(4) 0.101(12) 0.089(11) 0.032(10) 0.115(18) 0.082(18)
C88 0.31(3) 0.068(8) 0.088(10) 0.026(7) 0.113(14) 0.047(12)
C89 0.27(3) 0.29(4) 0.110(15) 0.058(19) -0.002(17) 0.19(3)
C90 0.092(9) 0.088(8) 0.128(11) 0.036(8) 0.067(8) 0.044(7)
C91 0.141(14) 0.126(13) 0.186(18) 0.064(13) 0.075(13) 0.099(12)
C92 0.19(2) 0.20(2) 0.44(5) 0.16(3) 0.25(3) 0.10(2)
C93 0.37(4) 0.058(9) 0.18(2) 0.003(10) 0.18(2) 0.031(14)
C95 0.70(8) 0.18(2) 0.14(2) 0.028(18) 0.22(4) 0.19(4)
C96 0.090(9) 0.086(8) 0.075(8) 0.021(6) 0.003(7) 0.007(7)
C97 0.131(13) 0.074(9) 0.144(14) 0.023(9) 0.015(11) -0.006(9)
C98 0.30(3) 0.22(3) 0.116(15) 0.084(17) -0.104(19) -0.10(2)
C99 0.079(9) 0.113(11) 0.141(13) 0.063(10) 0.047(9) 0.027(8)
C100 0.18(2) 0.22(3) 0.27(3) -0.03(2) 0.14(2) -0.09(2)
C101 0.26(3) 0.27(3) 0.18(2) -0.01(2) 0.17(2) 0.01(3)
C102 0.089(7) 0.058(5) 0.053(5) 0.023(4) 0.037(5) 0.023(5)
N1 0.086(6) 0.051(4) 0.065(5) 0.021(4) 0.015(4) 0.022(4)
N2 0.086(6) 0.090(6) 0.093(7) 0.058(6) 0.051(5) 0.051(5)
N3 0.064(5) 0.061(5) 0.065(5) 0.010(4) 0.015(4) 0.007(4)
N4 0.092(6) 0.067(5) 0.059(5) 0.021(4) 0.033(5) 0.041(5)
N5 0.125(9) 0.112(8) 0.103(8) 0.067(7) 0.079(7) 0.071(7)
N6 0.171(12) 0.076(7) 0.081(7) 0.038(6) -0.045(8) 0.006(7)
N7 0.129(9) 0.081(6) 0.070(6) 0.029(5) 0.049(6) 0.059(6)
N8 0.068(6) 0.061(5) 0.107(8) 0.027(5) 0.004(5) 0.003(4)
O1 0.063(4) 0.060(4) 0.069(4) 0.023(3) 0.033(3) 0.027(3)
O2 0.044(3) 0.037(3) 0.062(4) 0.001(3) 0.015(3) 0.009(2)
O3 0.060(4) 0.058(4) 0.057(3) 0.025(3) 0.024(3) 0.023(3)
O4 0.082(5) 0.051(3) 0.066(4) 0.029(3) 0.036(4) 0.027(3)
O5 0.064(4) 0.058(4) 0.047(3) 0.011(3) 0.014(3) 0.025(3)
O6 0.061(4) 0.045(3) 0.048(3) 0.016(2) 0.026(3) 0.018(3)
O7 0.071(4) 0.053(3) 0.051(3) 0.018(3) 0.014(3) 0.017(3)
O8 0.065(4) 0.055(4) 0.058(4) 0.003(3) 0.024(3) 0.019(3)
O9 0.066(4) 0.072(4) 0.055(4) 0.021(3) 0.024(3) 0.027(3)
O10 0.081(5) 0.055(4) 0.060(4) 0.019(3) 0.026(3) 0.025(3)
O11 0.050(4) 0.059(4) 0.074(4) 0.007(3) 0.007(3) 0.009(3)
O12 0.066(4) 0.056(4) 0.058(4) 0.010(3) 0.015(3) 0.027(3)
O13 0.055(4) 0.076(4) 0.080(5) 0.042(4) 0.032(3) 0.017(3)
O14 0.073(4) 0.072(4) 0.057(4) 0.011(3) 0.016(3) 0.037(4)
O15 0.079(5) 0.059(4) 0.055(4) 0.007(3) 0.026(3) 0.028(3)
O16 0.065(4) 0.063(4) 0.064(4) 0.033(3) 0.033(3) 0.026(3)
O17 0.069(4) 0.065(4) 0.065(4) 0.021(3) 0.036(3) 0.027(3)
O18 0.075(5) 0.055(4) 0.058(4) 0.005(3) 0.015(3) 0.018(3)
O19 0.063(4) 0.038(3) 0.078(4) 0.007(3) 0.016(3) 0.010(3)
O20 0.080(5) 0.049(4) 0.070(4) -0.004(3) 0.017(4) 0.012(3)
O21 0.093(5) 0.066(4) 0.052(4) 0.017(3) 0.032(3) 0.041(4)
O22 0.064(4) 0.065(4) 0.075(4) -0.001(3) 0.031(4) 0.022(3)
O23 0.061(4) 0.057(4) 0.066(4) 0.008(3) 0.022(3) 0.025(3)
O24 0.113(6) 0.055(4) 0.068(4) 0.013(3) 0.046(4) 0.029(4)
O25 0.086(5) 0.078(5) 0.062(4) 0.037(4) 0.014(4) 0.031(4)
O26 0.068(5) 0.076(5) 0.069(4) 0.012(4) 0.023(4) 0.015(4)
O27 0.058(4) 0.043(3) 0.068(4) -0.004(3) 0.015(3) 0.016(3)
O28 0.103(6) 0.078(5) 0.054(4) 0.023(3) 0.022(4) 0.046(4)
O29 0.094(5) 0.064(4) 0.063(4) 0.034(3) 0.036(4) 0.032(4)
O30 0.071(4) 0.046(3) 0.070(4) 0.007(3) 0.011(3) 0.021(3)
O31 0.084(5) 0.083(5) 0.072(5) 0.036(4) 0.008(4) 0.023(4)
O32 0.113(6) 0.077(5) 0.065(5) 0.035(4) 0.011(4) 0.037(5)
O33 0.089(5) 0.066(4) 0.063(4) 0.006(3) 0.026(4) 0.041(4)
O34 0.058(4) 0.048(4) 0.095(5) -0.001(3) -0.002(4) 0.014(3)
O35 0.092(6) 0.081(5) 0.101(6) 0.050(5) 0.016(5) 0.029(4)
O36 0.115(6) 0.078(5) 0.064(4) 0.035(4) 0.029(4) 0.041(5)
O37 0.078(5) 0.099(6) 0.117(7) 0.040(5) 0.055(5) 0.042(5)
O38 0.099(6) 0.081(5) 0.078(5) 0.040(4) 0.024(4) 0.022(4)
O39 0.095(6) 0.110(6) 0.072(5) 0.042(4) 0.027(4) 0.065(5)
O40 0.096(6) 0.074(5) 0.068(5) 0.029(4) 0.001(4) 0.019(4)
O41 0.068(5) 0.061(4) 0.101(6) -0.015(4) 0.000(4) 0.034(4)
O42 0.078(5) 0.069(5) 0.062(4) -0.016(4) -0.002(4) -0.009(4)
O43 0.067(5) 0.101(6) 0.090(6) 0.030(5) 0.034(4) 0.008(4)
O44 0.102(6) 0.075(5) 0.076(5) 0.045(4) 0.013(5) 0.034(5)
O45 0.142(9) 0.108(7) 0.086(6) 0.058(6) 0.029(6) 0.016(6)
O46 0.111(7) 0.086(5) 0.097(6) 0.046(5) 0.044(5) 0.046(5)
O47 0.187(10) 0.076(5) 0.063(5) 0.031(4) 0.030(6) 0.047(6)
O48 0.084(6) 0.097(6) 0.141(8) 0.064(6) 0.014(6) 0.039(5)
Ti1A 0.0746 0.0465 0.0524 0.0202 0.0306 0.0233
Ti2A 0.0632 0.0505 0.0486 0.0037 0.0154 0.0212
Ti3A 0.054 0.0515 0.056 0.0231 0.0239 0.0173
Ti5A 0.0509 0.0411 0.0545 -0.0025 0.0075 0.013
Ti8A 0.0818 0.06 0.0488 0.0156 0.0236 0.0392
Ti9A 0.0529 0.0579 0.0678 0.009 0.02 0.0101
Ti11A 0.1053 0.0714 0.0614 0.0335 0.0223 0.0337
Ti12A 0.0851 0.078 0.0856 0.0436 0.0159 0.0313
O3A 0.06 0.058 0.057 0.025 0.024 0.023
O8A 0.065 0.055 0.058 0.003 0.024 0.019
O26A 0.068 0.076 0.069 0.012 0.023 0.015
O27A 0.058 0.043 0.068 -0.004 0.015 0.016
O29A 0.094 0.064 0.063 0.034 0.036 0.032
O33A 0.089 0.066 0.063 0.006 0.026 0.041
O35A 0.092 0.081 0.101 0.05 0.016 0.029
O36A 0.115 0.078 0.064 0.035 0.029 0.041
loop_
_geom_bond_atom_site_label_1
_geom_bond_atom_site_label_2
_geom_bond_site_symmetry_1
_geom_bond_site_symmetry_2
Ti1 O1 1_555 1_555
Ti2 O5 1_555 1_555
Ti3 O6 1_555 1_555
Ti4 O1 1_555 1_555
Ti5 O2 1_555 1_555
Ti6 O5 1_555 1_555
Ti7 O2 1_555 1_555
Ti8 O5 1_555 1_555
Ti9 O2 1_555 1_555
Ti10 O25 1_555 1_555
Ti11 O25 1_555 1_555
Ti12 O25 1_555 1_555
Cu1 I1 1_555 1_555
Cu2 I2 1_555 1_555
Cu3 I1 1_555 1_555
Cu4 I1 1_555 1_555
I2 Cu1 1_555 1_555
I3 Cu1 1_555 1_555
I4 Cu2 1_555 1_555
P1 C33 1_555 1_555
P2 C102 1_555 1_555
P3 C7 1_555 1_555
P4 C58 1_555 1_555
C1 H1 1_555 1_555
C2 C1 1_555 1_555
H2 C2 1_555 1_555
C3 C5 1_555 1_555
C4 H3 1_555 1_555
C5 H4 1_555 1_555
C6 C3 1_555 1_555
C7 C8 1_555 1_555
C8 H5 1_555 1_555
C9 C8 1_555 1_555
H6 C9 1_555 1_555
C10 C9 1_555 1_555
H7 C10 1_555 1_555
C11 C10 1_555 1_555
H8 C11 1_555 1_555
C12 C7 1_555 1_555
H9 C12 1_555 1_555
C13 H10 1_555 1_555
C14 C13 1_555 1_555
H11 C14 1_555 1_555
H12 C14 1_555 1_555
H13 C14 1_555 1_555
C15 C13 1_555 1_555
H14 C15 1_555 1_555
H15 C15 1_555 1_555
H16 C15 1_555 1_555
C16 H17 1_555 1_555
C17 C16 1_555 1_555
H18 C17 1_555 1_555
H19 C17 1_555 1_555
H20 C17 1_555 1_555
C18 C16 1_555 1_555
C19 H21 1_555 1_555
C20 C19 1_555 1_555
H22 C20 1_555 1_555
H23 C20 1_555 1_555
H24 C20 1_555 1_555
C21 C19 1_555 1_555
H25 C21 1_555 1_555
H26 C21 1_555 1_555
H27 C21 1_555 1_555
C22 H28 1_555 1_555
C23 C22 1_555 1_555
C24 C22 1_555 1_555
C25 H29 1_555 1_555
C26 C25 1_555 1_555
H30 C26 1_555 1_555
H31 C26 1_555 1_555
H32 C26 1_555 1_555
C27 C25 1_555 1_555
H33 C27 1_555 1_555
H34 C27 1_555 1_555
C28 H35 1_555 1_555
C29 C28 1_555 1_555
C30 H36 1_555 1_555
C31 C30 1_555 1_555
H37 C31 1_555 1_555
C32 C29 1_555 1_555
C33 C34 1_555 1_555
C34 H38 1_555 1_555
C35 C34 1_555 1_555
H39 C35 1_555 1_555
C36 C35 1_555 1_555
H40 C36 1_555 1_555
C37 C36 1_555 1_555
H41 C37 1_555 1_555
C38 C33 1_555 1_555
H42 C38 1_555 1_555
C39 H43 1_555 1_555
C40 C39 1_555 1_555
H44 C40 1_555 1_555
H45 C40 1_555 1_555
H46 C40 1_555 1_555
C41 C39 1_555 1_555
H47 C41 1_555 1_555
H48 C41 1_555 1_555
C42 H49 1_555 1_555
C43 C42 1_555 1_555
H50 C43 1_555 1_555
H51 C43 1_555 1_555
H52 C43 1_555 1_555
C44 C42 1_555 1_555
H53 C44 1_555 1_555
H54 C44 1_555 1_555
H55 C44 1_555 1_555
C45 H56 1_555 1_555
C46 C45 1_555 1_555
H57 C46 1_555 1_555
H58 C46 1_555 1_555
H59 C46 1_555 1_555
C47 C45 1_555 1_555
H60 C47 1_555 1_555
H61 C47 1_555 1_555
H62 C47 1_555 1_555
C48 C49 1_555 1_555
C49 H63 1_555 1_555
H64 C49 1_555 1_555
H65 C49 1_555 1_555
C50 C48 1_555 1_555
H66 C50 1_555 1_555
H67 C50 1_555 1_555
H68 C50 1_555 1_555
C51 C52 1_555 1_555
C52 H69 1_555 1_555
H70 C52 1_555 1_555
H71 C52 1_555 1_555
C53 C51 1_555 1_555
H72 C53 1_555 1_555
H73 C53 1_555 1_555
H74 C53 1_555 1_555
C54 C4 1_555 1_555
H75 C54 1_555 1_555
C55 H76 1_555 1_555
C56 C55 1_555 1_555
C57 C56 1_555 1_555
C58 C59 1_555 1_555
C59 H77 1_555 1_555
C60 C59 1_555 1_555
H78 C60 1_555 1_555
C61 C60 1_555 1_555
H79 C61 1_555 1_555
C62 C61 1_555 1_555
H80 C62 1_555 1_555
C63 C58 1_555 1_555
H81 C63 1_555 1_555
C64 H82 1_555 1_555
C65 C64 1_555 1_555
H83 C65 1_555 1_555
H84 C65 1_555 1_555
H85 C65 1_555 1_555
C66 C64 1_555 1_555
H86 C66 1_555 1_555
H87 C66 1_555 1_555
H88 C66 1_555 1_555
C67 H89 1_555 1_555
C68 C67 1_555 1_555
H90 C68 1_555 1_555
H91 C68 1_555 1_555
H92 C68 1_555 1_555
C69 C67 1_555 1_555
H93 C69 1_555 1_555
H94 C69 1_555 1_555
H95 C69 1_555 1_555
C70 H96 1_555 1_555
C71 C70 1_555 1_555
H97 C71 1_555 1_555
H98 C71 1_555 1_555
H99 C71 1_555 1_555
C72 C70 1_555 1_555
H100 C72 1_555 1_555
H101 C72 1_555 1_555
H102 C72 1_555 1_555
C73 H103 1_555 1_555
C74 C73 1_555 1_555
H104 C74 1_555 1_555
H105 C74 1_555 1_555
H106 C74 1_555 1_555
C75 C73 1_555 1_555
H107 C75 1_555 1_555
H108 C75 1_555 1_555
C76 H109 1_555 1_555
C77 C76 1_555 1_555
H110 C77 1_555 1_555
H111 C77 1_555 1_555
H112 C77 1_555 1_555
C78 C76 1_555 1_555
H113 C78 1_555 1_555
H114 C78 1_555 1_555
H115 C78 1_555 1_555
C79 H116 1_555 1_555
C80 C79 1_555 1_555
H117 C80 1_555 1_555
C81 C82 1_555 1_555
C82 H118 1_555 1_555
C83 C81 1_555 1_555
C84 H119 1_555 1_555
C85 C84 1_555 1_555
H120 C85 1_555 1_555
C86 C85 1_555 1_555
H121 C86 1_555 1_555
C87 C86 1_555 1_555
H122 C87 1_555 1_555
C88 C87 1_555 1_555
H123 C88 1_555 1_555
C89 O39 1_555 1_555
C90 H124 1_555 1_555
C91 C90 1_555 1_555
H125 C91 1_555 1_555
H126 C91 1_555 1_555
H127 C91 1_555 1_555
C92 C90 1_555 1_555
H128 C92 1_555 1_555
H129 C92 1_555 1_555
H130 C92 1_555 1_555
C93 H131 1_555 1_555
C94 C93 1_555 1_555
H132 C94 1_555 1_555
H133 C94 1_555 1_555
H134 C94 1_555 1_555
C95 C93 1_555 1_555
H135 C95 1_555 1_555
H136 C95 1_555 1_555
H137 C95 1_555 1_555
C96 H138 1_555 1_555
C97 C96 1_555 1_555
H139 C97 1_555 1_555
H140 C97 1_555 1_555
H141 C97 1_555 1_555
C98 C96 1_555 1_555
H142 C98 1_555 1_555
H143 C98 1_555 1_555
H144 C98 1_555 1_555
C99 H145 1_555 1_555
C100 C99 1_555 1_555
H146 C100 1_555 1_555
H147 C100 1_555 1_555
H148 C100 1_555 1_555
C101 C99 1_555 1_555
H149 C101 1_555 1_555
H150 C101 1_555 1_555
H151 C101 1_555 1_555
C102 C84 1_555 1_555
N1 Cu2 1_555 1_555
N2 Cu1 1_555 1_555
N3 Cu4 1_555 1_555
N4 Cu3 1_555 1_555
N5 C80 1_555 1_555
N6 C29 1_555 1_555
N7 C4 1_555 1_555
N8 C2 1_555 1_555
O1 C90 1_555 1_555
O3 Ti4 1_555 1_555
O4 Ti1 1_555 1_555
O6 Ti1 1_555 1_555
O7 Ti1 1_555 1_555
O8 Ti6 1_555 1_555
O9 Ti4 1_555 1_555
O10 Ti6 1_555 1_555
O11 Ti9 1_555 1_555
O12 Ti2 1_555 1_555
O13 Ti3 1_555 1_555
O14 Ti2 1_555 1_555
O15 Ti2 1_555 1_555
O16 Ti3 1_555 1_555
O17 Ti3 1_555 1_555
O18 Ti5 1_555 1_555
O19 Ti5 1_555 1_555
O20 Ti2 1_555 1_555
O21 Ti8 1_555 1_555
O22 Ti7 1_555 1_555
O23 Ti6 1_555 1_555
O24 Ti1 1_555 1_555
O26 P3 1_555 1_555
O27 Ti7 1_555 1_555
O28 Ti8 1_555 1_555
O29 P2 1_555 1_555
O30 Ti7 1_555 1_555
O31 Ti11 1_555 1_555
O32 Ti11 1_555 1_555
O33 P4 1_555 1_555
O34 Ti7 1_555 1_555
O35 P1 1_555 1_555
O36 Ti10 1_555 1_555
O37 Ti6 1_555 1_555
O38 Ti10 1_555 1_555
O39 Ti4 1_555 1_555
O40 Ti10 1_555 1_555
O41 Ti7 1_555 1_555
O42 Ti5 1_555 1_555
O43 Ti9 1_555 1_555
O44 Ti12 1_555 1_555
O45 Ti10 1_555 1_555
O46 Ti11 1_555 1_555
O47 Ti11 1_555 1_555
O48 Ti12 1_555 1_555
C103 C89 1_555 1_555
C104 C89 1_555 1_555
Ti1A O29 1_555 1_555
Ti2A O8 1_555 1_555
Ti3A O3 1_555 1_555
Ti5A O27 1_555 1_555
Ti8A O33 1_555 1_555
Ti9A O26 1_555 1_555
Ti11A O36 1_555 1_555
Ti12A O35 1_555 1_555
O3A Ti3 1_555 1_555
O8A Ti2 1_555 1_555
O26A Ti9 1_555 1_555
O27A Ti5 1_555 1_555
O29A Ti1 1_555 1_555
O33A Ti8 1_555 1_555
O35A Ti12 1_555 1_555
O36A Ti11 1_555 1_555
Ti3 O7 1_555 1_555
Ti4 O6 1_555 1_555
Ti8 O10 1_555 1_555
Ti8 O14 1_555 1_555
Ti9 O19 1_555 1_555
Ti9 O22 1_555 1_555
Ti12 O40 1_555 1_555
Ti12 O46 1_555 1_555
Cu2 I3 1_555 1_555
Cu3 I3 1_555 1_555
Cu3 I4 1_555 1_555
Cu4 I2 1_555 1_555
Cu4 I4 1_555 1_555
P1 O31 1_555 1_555
P1 O38 1_555 1_555
P2 O9 1_555 1_555
P2 O17 1_555 1_555
P3 O18 1_555 1_555
P3 O30 1_555 1_555
P4 O12 1_555 1_555
P4 O23 1_555 1_555
C1 N3 1_555 1_555
C3 N8 1_555 1_555
C5 N3 1_555 1_555
C6 O11 1_555 1_555
C6 O34 1_555 1_555
C11 C12 1_555 1_555
C13 O22 1_555 1_555
C16 O43 1_555 1_555
C19 O19 1_555 1_555
C22 O42 1_555 1_555
C25 O41 1_555 1_555
C28 N1 1_555 1_555
C30 N6 1_555 1_555
C31 N1 1_555 1_555
C32 O32 1_555 1_555
C32 O44 1_555 1_555
C37 C38 1_555 1_555
C40 C41 1_555 1_555
C41 O47 1_555 1_555
C42 O45 1_555 1_555
C45 O40 1_555 1_555
C48 O48 1_555 1_555
C51 O46 1_555 1_555
C54 N4 1_555 1_555
C55 N4 1_555 1_555
C56 N7 1_555 1_555
C57 O15 1_555 1_555
C57 O21 1_555 1_555
C62 C63 1_555 1_555
C64 O20 1_555 1_555
C67 O14 1_555 1_555
C70 O28 1_555 1_555
C73 O10 1_555 1_555
C76 O37 1_555 1_555
C79 N2 1_555 1_555
C81 N5 1_555 1_555
C82 N2 1_555 1_555
C83 O4 1_555 1_555
C83 O16 1_555 1_555
C88 C102 1_555 1_555
C93 O24 1_555 1_555
C96 O7 1_555 1_555
C99 O13 1_555 1_555

#END
