
#######################################################################
#
#                 Cambridge Crystallographic Data Centre
#                                CCDC 
#
#######################################################################
#
# If this CIF has been generated from an entry in the Cambridge 
# Structural Database, then it will include bibliographic, chemical, 
# crystal, experimental, refinement or atomic coordinate data resulting 
# from the CCDC's data processing and validation procedures.
#
#######################################################################

data_HAPBIM
_chemical_formula_moiety         'C168 H60 Cu8 I8 N8 O84 P6 Ti30'
_symmetry_cell_setting           rhombohedral
_symmetry_space_group_name_H-M   'R -3 c'
_symmetry_Int_Tables_number      167
_space_group_name_Hall           '-R 3 2"c'
loop_
_symmetry_equiv_pos_site_id
_symmetry_equiv_pos_as_xyz
1 x,y,z
2 -y,x-y,z
3 -x+y,-x,z
4 x-y,-y,1/2-z
5 -x,-x+y,1/2-z
6 y,x,1/2-z
7 2/3+x,1/3+y,1/3+z
8 2/3-y,1/3+x-y,1/3+z
9 2/3-x+y,1/3-x,1/3+z
10 2/3+x-y,1/3-y,5/6-z
11 2/3-x,1/3-x+y,5/6-z
12 2/3+y,1/3+x,5/6-z
13 1/3+x,2/3+y,2/3+z
14 1/3-y,2/3+x-y,2/3+z
15 1/3-x+y,2/3-x,2/3+z
16 1/3+x-y,2/3-y,1/6-z
17 1/3-x,2/3-x+y,1/6-z
18 1/3+y,2/3+x,1/6-z
19 -x,-y,-z
20 y,-x+y,-z
21 x-y,x,-z
22 -x+y,y,1/2+z
23 x,x-y,1/2+z
24 -y,-x,1/2+z
25 1/3-x,2/3-y,2/3-z
26 1/3+y,2/3-x+y,2/3-z
27 1/3+x-y,2/3+x,2/3-z
28 1/3-x+y,2/3+y,1/6+z
29 1/3+x,2/3+x-y,1/6+z
30 1/3-y,2/3-x,1/6+z
31 2/3-x,1/3-y,1/3-z
32 2/3+y,1/3-x+y,1/3-z
33 2/3+x-y,1/3+x,1/3-z
34 2/3-x+y,1/3+y,5/6+z
35 2/3+x,1/3+x-y,5/6+z
36 2/3-y,1/3-x,5/6+z
_cell_length_a                   26.733(5)
_cell_length_b                   26.733(5)
_cell_length_c                   65.261(13)
_cell_angle_alpha                90
_cell_angle_beta                 90
_cell_angle_gamma                120
_cell_volume                     40390.5
loop_
_atom_site_label
_atom_site_type_symbol
_atom_site_fract_x
_atom_site_fract_y
_atom_site_fract_z
I1 I 0.442857(18) 0.69839(2) -0.019922(7)
Cu1 Cu 0.35326(4) 0.62147(4) 0.001535(14)
Cu2 Cu 0.3333 0.6667 -0.03144(2)
I2 I 0.3333 0.6667 0.035837(12)
N1 N 0.3763(2) 0.5682(2) 0.01606(9)
N2 N 0.3333 0.6667 -0.06353(14)
C1 C 0.4306(3) 0.5875(3) 0.02260(10)
C2 C 0.3360(3) 0.5174(3) 0.02251(13)
C3 C 0.2837(5) 0.6681(8) -0.07122(14)
H1 H 0.4606 0.6238 0.0178
C4 C 0.4440(3) 0.5571(3) 0.03578(9)
C5 C 0.3462(3) 0.4843(3) 0.03594(16)
H2 H 0.2978 0.5028 0.0176
H3 H 0.2854 0.7029 -0.0665
C6 C 0.4019(3) 0.5044(3) 0.04298(13)
C7 C 0.5055(3) 0.5812(3) 0.04311(10)
H4 H 0.3155 0.4479 0.0404
H5 H 0.4106 0.4827 0.0524
O1 O 0.5435(2) 0.6239(2) 0.03275(7)
O2 O 0.51509(19) 0.5584(2) 0.05798(7)
Ti1 Ti 0.63288(5) 0.66784(5) 0.036334(17)
Ti2 Ti 0.59647(5) 0.57953(4) 0.072729(18)
O3 O 0.6248(2) 0.5928(2) 0.04322(7)
O4 O 0.6377(2) 0.6703(2) 0.00952(7)
O5 O 0.6292(2) 0.7380(2) 0.04296(7)
O6 O 0.61285(18) 0.66011(17) 0.06590(6)
O7 O 0.7160(2) 0.7068(3) 0.04003(7)
O8 O 0.56274(19) 0.58623(18) 0.09843(7)
O9 O 0.5657(2) 0.50304(19) 0.07419(8)
O10 O 0.6667 0.6024(2) 0.0833
C8 C 0.6370(5) 0.5542(5) 0.03106(19)
C9 C 0.6288(9) 0.6632(11) -0.01268(19)
Ti3 Ti 0.60293(5) 0.72219(5) 0.072803(18)
C10 C 0.6412(5) 0.7869(4) 0.03063(18)
P1 P 0.56756(7) 0.63507(7) 0.11170(3)
C11 C 0.5183(8) 0.4490(5) 0.0769(3)
C12 C 0.6937(12) 0.5709(12) 0.0297(4)
C13 C 0.5831(6) 0.5090(5) 0.0215(2)
C14 C 0.6877(14) 0.6944(14) -0.0218(5)
C15 C 0.5791(10) 0.6384(13) -0.0203(3)
O11 O 0.57000(19) 0.68418(19) 0.09906(7)
O12 O 0.5457(3) 0.7356(3) 0.06864(10)
O13 O 0.6667 0.7836(2) 0.0833
C16 C 0.6947(7) 0.8326(7) 0.0312(4)
C17 C 0.5914(5) 0.7729(6) 0.0173(2)
C18 C 0.5034(3) 0.6042(4) 0.12641(13)
C19 C 0.5306(10) 0.4056(6) 0.0697(4)
C20 C 0.4920(14) 0.4367(7) 0.0960(5)
C21 C 0.4876(5) 0.7239(6) 0.0710(2)
C22 C 0.5033(6) 0.6136(7) 0.1458(2)
C23 C 0.4529(5) 0.5615(6) 0.1182(3)
C24 C 0.4868(9) 0.7660(9) 0.0850(5)
C25 C 0.4474(5) 0.6630(6) 0.0759(2)
H6 H 0.5393 0.6365 0.1525
C26 C 0.4523(12) 0.5914(9) 0.1574(4)
C27 C 0.4001(6) 0.5386(10) 0.1286(3)
H7 H 0.4537 0.5470 0.1050
H8 H 0.4536 0.6062 0.1708
C28 C 0.4075(9) 0.5543(10) 0.1508(4)
H9 H 0.3813 0.4972 0.1277
H10 H 0.3757 0.5342 0.1599
Cu1A Cu 0.37853(4) 0.73179(6) 0.001535(14)
I1B I 0.255533(27) 0.557143(18) -0.019922(7)
I1A I 0.30161(2) 0.744467(27) -0.019922(7)
N1A N 0.4318(2) 0.8081(3) 0.01606(9)
Cu1B Cu 0.26821(6) 0.64674(4) 0.001535(14)
C3A C 0.3319(8) 0.6156(9) -0.07122(14)
C3B C 0.3844(9) 0.7163(5) -0.07122(14)
C1A C 0.4125(3) 0.8431(4) 0.02260(10)
C2A C 0.4826(3) 0.8186(4) 0.02251(13)
N1B N 0.1919(3) 0.6237(2) 0.01606(9)
C3I C 0.2823(9) 0.6652(8) -0.09545(14)
H3A H 0.2971 0.5825 -0.0665
C3K C 0.3348(8) 0.6170(5) -0.09545(14)
H3B H 0.4175 0.7146 -0.0665
C3J C 0.3830(5) 0.7177(9) -0.09545(14)
H1A H 0.3762 0.8368 0.0178
C4A C 0.4429(3) 0.8869(4) 0.03578(9)
C5A C 0.5157(3) 0.8619(4) 0.03594(16)
H2A H 0.4972 0.7950 0.0176
C1B C 0.1569(4) 0.5694(3) 0.02260(10)
C2B C 0.1814(4) 0.6640(3) 0.02251(13)
N2I N 0.3333 0.6666 -0.10314(14)
H3I H 0.2492 0.6304 -0.1002
H3K H 0.3696 0.6187 -0.1002
H3J H 0.3813 0.7508 -0.1002
C6A C 0.4956(3) 0.8975(4) 0.04298(13)
C7A C 0.4188(3) 0.9243(4) 0.04311(10)
H4A H 0.5521 0.8676 0.0404
H1B H 0.1632 0.5394 0.0178
C4B C 0.1131(4) 0.5560(3) 0.03578(9)
C5B C 0.1381(4) 0.6538(3) 0.03594(16)
H2B H 0.2050 0.7022 0.0176
Cu2I Cu 0.3333 0.6666 -0.13523(2)
H5A H 0.5173 0.9279 0.0524
O1A O 0.3761(2) 0.9196(3) 0.03275(7)
O2A O 0.4416(2) 0.95669(28) 0.05798(7)
C6B C 0.1025(4) 0.5981(3) 0.04298(13)
C7B C 0.0757(4) 0.4945(3) 0.04311(10)
H4B H 0.1324 0.6845 0.0404
I1I I 0.411134(27) 0.63494(2) -0.146745(7)
I1J I 0.223810(18) 0.588866(27) -0.146745(7)
I1K I 0.36506(2) 0.776190(18) -0.146745(7)
Ti1A Ti 0.33216(5) 0.96504(7) 0.036334(17)
Ti2A Ti 0.42047(4) 1.01694(6) 0.072729(18)
H5B H 0.0721 0.5894 0.0524
O1B O 0.0804(3) 0.4565(2) 0.03275(7)
O2B O 0.04331(28) 0.48491(19) 0.05798(7)
Cu1I Cu 0.39846(6) 0.71186(4) -0.168202(14)
Cu1J Cu 0.31341(4) 0.60154(6) -0.168202(14)
Cu1K Cu 0.28814(4) 0.68659(4) -0.168202(14)
O3A O 0.4072(2) 1.0320(3) 0.04322(7)
O4A O 0.3297(2) 0.9674(3) 0.00952(7)
O5A O 0.2620(2) 0.8912(3) 0.04296(7)
O6A O 0.33989(17) 0.95274(25) 0.06590(6)
O7A O 0.2932(3) 1.0092(4) 0.04003(7)
O8A O 0.41377(18) 0.97651(26) 0.09843(7)
O9A O 0.49696(19) 1.06266(28) 0.07419(8)
O10A O 0.3976(2) 1.0643(2) 0.0833
Ti1B Ti 0.03496(7) 0.36712(5) 0.036334(17)
Ti2B Ti -0.01694(6) 0.40353(5) 0.072729(18)
Ti2P Ti 0.73686(5) 0.64973(6) 0.093938(18)
I2I I 0.3333 0.6666 -0.202504(12)
N1I N 0.4748(3) 0.7651(2) -0.18273(9)
N1J N 0.2904(2) 0.5252(3) -0.18273(9)
N1K N 0.2349(2) 0.7096(2) -0.18273(9)
C8A C 0.4458(5) 1.0828(7) 0.03106(19)
C9A C 0.3368(11) 0.9656(14) -0.01268(19)
Ti3A Ti 0.27781(5) 0.88074(7) 0.072803(18)
C10A C 0.2131(4) 0.8543(6) 0.03063(18)
P1A P 0.36493(7) 0.93249(10) 0.11170(3)
C11A C 0.5510(5) 1.0693(9) 0.0769(3)
Ti2O Ti 0.35027(6) 1.08714(4) 0.093938(18)
O3B O -0.0320(3) 0.3752(2) 0.04322(7)
O4B O 0.0326(3) 0.3623(2) 0.00952(7)
O5B O 0.1088(3) 0.3708(2) 0.04296(7)
O6B O 0.04726(25) 0.38715(18) 0.06590(6)
O7B O -0.0092(4) 0.2840(2) 0.04003(7)
O8B O 0.02349(26) 0.43726(19) 0.09843(7)
O9B O -0.06266(28) 0.4343(2) 0.07419(8)
O10B O -0.0643(2) 0.3333 0.0833
O7P O 0.6173(2) 0.6575(4) 0.12664(7)
C1I C 0.5098(4) 0.7458(3) -0.18927(10)
C2I C 0.4853(4) 0.8159(3) -0.18918(13)
C1J C 0.2361(3) 0.4902(4) -0.18927(10)
C2J C 0.3307(3) 0.5147(4) -0.18918(13)
C1K C 0.2542(3) 0.7639(3) -0.18927(10)
C2K C 0.1841(3) 0.6693(3) -0.18918(13)
C12A C 0.4291(12) 1.1228(17) 0.0297(4)
C13A C 0.4910(5) 1.0741(8) 0.0215(2)
C14A C 0.3056(14) 0.9933(20) -0.0218(5)
C15A C 0.3616(13) 0.9407(16) -0.0203(3)
O11A O 0.31582(19) 0.88582(27) 0.09906(7)
O12A O 0.2644(3) 0.8101(4) 0.06864(10)
O13A O 0.2164(2) 0.8831(2) 0.0833
C16A C 0.1674(7) 0.8621(10) 0.0312(4)
C17A C 0.2271(6) 0.8185(8) 0.0173(2)
C18A C 0.3958(4) 0.8992(5) 0.12641(13)
O7O O 0.3425(4) 0.9599(3) 0.12664(7)
C19A C 0.5944(6) 1.1250(12) 0.0697(4)
C20A C 0.5633(7) 1.0553(16) 0.0960(5)
C8B C -0.0828(7) 0.3630(5) 0.03106(19)
C9B C 0.0344(14) 0.3712(9) -0.01268(19)
Ti3B Ti 0.11926(7) 0.39707(5) 0.072803(18)
C10B C 0.1457(6) 0.3588(5) 0.03063(18)
P1B P 0.06751(10) 0.43244(7) 0.11170(3)
C11B C -0.0693(9) 0.4817(8) 0.0769(3)
Ti2Q Ti -0.08714(4) 0.26314(5) 0.093938(18)
Ti3P Ti 0.73040(5) 0.78593(7) 0.093864(18)
Ti1P Ti 0.70045(5) 0.70163(7) 0.130333(17)
H1I H 0.5035 0.7095 -0.1845
C4I C 0.5536(4) 0.7762(3) -0.20245(9)
C5I C 0.5286(4) 0.8490(3) -0.20261(16)
H2I H 0.4617 0.8305 -0.1843
H1J H 0.2061 0.4965 -0.1845
C4J C 0.2227(3) 0.4464(4) -0.20245(9)
C5J C 0.3205(3) 0.4714(4) -0.20261(16)
H2J H 0.3689 0.5383 -0.1843
H1K H 0.2905 0.7939 -0.1845
C4K C 0.2238(3) 0.7773(3) -0.20245(9)
C5K C 0.1510(3) 0.6795(3) -0.20261(16)
H2K H 0.1695 0.6311 -0.1843
C21A C 0.2761(6) 0.7637(8) 0.0710(2)
Ti3O Ti 0.21407(7) 0.94448(5) 0.093864(18)
C22A C 0.3864(7) 0.8897(9) 0.1458(2)
C23A C 0.4385(6) 0.8914(8) 0.1182(3)
Ti1O Ti 0.29837(7) 0.99883(5) 0.130333(17)
C12B C -0.1228(17) 0.3063(12) 0.0297(4)
C13B C -0.0741(8) 0.4169(6) 0.0215(2)
C14B C 0.0067(20) 0.3123(14) -0.0218(5)
C15B C 0.0593(16) 0.4209(10) -0.0203(3)
O11B O 0.11418(27) 0.43000(19) 0.09906(7)
O12B O 0.1899(4) 0.4543(3) 0.06864(10)
O13B O 0.1169(2) 0.3333 0.0833
C16B C 0.1379(10) 0.3053(7) 0.0312(4)
C17B C 0.1815(8) 0.4086(5) 0.0173(2)
C18B C 0.1008(5) 0.4966(3) 0.12641(13)
O7Q O 0.0401(3) 0.3827(2) 0.12664(7)
C19B C -0.1250(12) 0.4694(10) 0.0697(4)
C20B C -0.0553(16) 0.5080(14) 0.0960(5)
C6I C 0.5642(4) 0.8289(3) -0.20965(13)
C7I C 0.5910(4) 0.7521(3) -0.20978(10)
H4I H 0.5343 0.8854 -0.2071
C6J C 0.2648(3) 0.4358(4) -0.20965(13)
C7J C 0.1612(3) 0.4090(4) -0.20978(10)
H4J H 0.3512 0.4657 -0.2071
C6K C 0.1711(3) 0.7352(3) -0.20965(13)
C7K C 0.2479(3) 0.8388(3) -0.20978(10)
H4K H 0.1146 0.6488 -0.2071
C24A C 0.2340(9) 0.7208(13) 0.0850(5)
C25A C 0.3370(6) 0.7844(8) 0.0759(2)
H6A H 0.3635 0.9028 0.1525
C26A C 0.4086(9) 0.8609(15) 0.1574(4)
C27A C 0.4614(10) 0.8615(12) 0.1286(3)
H7A H 0.4530 0.9067 0.1050
C21B C 0.2363(8) 0.5124(5) 0.0710(2)
Ti3Q Ti 0.05552(5) 0.26960(5) 0.093864(18)
C22B C 0.1103(9) 0.4967(6) 0.1458(2)
C23B C 0.1086(8) 0.5471(5) 0.1182(3)
Ti1Q Ti 0.00117(5) 0.29955(5) 0.130333(17)
H5I H 0.5946 0.8506 -0.2191
O1I O 0.5863(3) 0.7094(2) -0.19942(7)
O2I O 0.62336(28) 0.7749(2) -0.22465(7)
H5J H 0.2561 0.4054 -0.2191
O1J O 0.1232(2) 0.4137(3) -0.19942(7)
O2J O 0.15158(19) 0.37664(28) -0.22465(7)
H5K H 0.1494 0.7439 -0.2191
O1K O 0.2906(2) 0.8768(2) -0.19942(7)
O2K O 0.2251(2) 0.84842(19) -0.22465(7)
H8A H 0.3938 0.8474 0.1708
C28A C 0.4457(10) 0.8532(13) 0.1508(4)
H9A H 0.5028 0.8841 0.1277
C24B C 0.2792(13) 0.5132(9) 0.0850(5)
C25B C 0.2156(8) 0.5526(5) 0.0759(2)
H6B H 0.0972 0.4607 0.1525
C26B C 0.1391(15) 0.5477(12) 0.1574(4)
C27B C 0.1385(12) 0.5999(6) 0.1286(3)
H7B H 0.0933 0.5463 0.1050
Ti1I Ti 0.63171(7) 0.66549(5) -0.203001(17)
Ti2I Ti 0.68361(6) 0.75380(4) -0.239396(18)
Ti1J Ti 0.03379(5) 0.36829(7) -0.203001(17)
Ti2J Ti 0.07020(5) 0.31639(6) -0.239396(18)
Ti1K Ti 0.33451(5) 0.96621(5) -0.203001(17)
Ti2K Ti 0.24620(4) 0.92980(5) -0.239396(18)
H10A H 0.4658 0.8415 0.1599
H8B H 0.1526 0.5464 0.1708
C28B C 0.1468(13) 0.5925(9) 0.1508(4)
H9B H 0.1159 0.6187 0.1277
O3I O 0.6987(3) 0.7405(2) -0.20989(7)
O4I O 0.6341(3) 0.6630(2) -0.17619(7)
O5I O 0.5579(3) 0.5953(2) -0.20963(7)
O6I O 0.61941(25) 0.67322(17) -0.23257(6)
O7I O 0.6759(4) 0.6265(3) -0.20670(7)
O8I O 0.64318(26) 0.74710(18) -0.26510(7)
O9I O 0.72933(28) 0.83029(19) -0.24086(8)
O10I O 0.7310(2) 0.7309(2) -0.2500
O3J O 0.0419(2) 0.3013(3) -0.20989(7)
O4J O 0.0290(2) 0.3659(3) -0.17619(7)
O5J O 0.0375(2) 0.4421(3) -0.20963(7)
O6J O 0.05382(18) 0.38059(25) -0.23257(6)
O7J O -0.0493(2) 0.3241(4) -0.20670(7)
O8J O 0.10393(19) 0.35682(26) -0.26510(7)
O9J O 0.1010(2) 0.27067(28) -0.24086(8)
O10J O -0.0000 0.2690(2) -0.2500
O3K O 0.2595(2) 0.9581(2) -0.20989(7)
O4K O 0.3370(2) 0.9710(2) -0.17619(7)
O5K O 0.4047(2) 0.9625(2) -0.20963(7)
O6K O 0.32678(17) 0.94618(18) -0.23257(6)
O7K O 0.3735(3) 1.0493(2) -0.20670(7)
O8K O 0.25290(18) 0.89607(19) -0.26510(7)
O9K O 0.16971(19) 0.8990(2) -0.24086(8)
O10K O 0.2691(2) 1.0000 -0.2500
H10B H 0.1585 0.6243 0.1599
C8I C 0.7495(7) 0.7791(5) -0.19773(19)
C9I C 0.6323(14) 0.6701(11) -0.15399(19)
Ti3I Ti 0.54741(7) 0.61114(5) -0.239470(18)
C10I C 0.5210(6) 0.5464(4) -0.19730(18)
P1I P 0.59916(10) 0.69826(7) -0.27837(3)
C11I C 0.7360(9) 0.8843(5) -0.2436(3)
C8J C 0.0297(5) 0.2505(7) -0.19773(19)
C9J C 0.0379(9) 0.3677(14) -0.15399(19)
Ti3J Ti 0.06374(5) 0.45259(7) -0.239470(18)
C10J C 0.0255(5) 0.4790(6) -0.19730(18)
P1J P 0.09911(7) 0.40084(10) -0.27837(3)
C11J C 0.1484(8) 0.2640(9) -0.2436(3)
C8K C 0.2209(5) 0.9703(5) -0.19773(19)
C9K C 0.3299(11) 0.9621(9) -0.15399(19)
Ti3K Ti 0.38886(5) 0.93626(5) -0.239470(18)
C10K C 0.4536(4) 0.9745(5) -0.19730(18)
P1K P 0.30174(7) 0.90089(7) -0.27837(3)
C11K C 0.1157(5) 0.8516(8) -0.2436(3)
C12I C 0.7895(17) 0.7624(12) -0.1964(4)
C13I C 0.7408(8) 0.8243(5) -0.1882(2)
C14I C 0.6600(20) 0.6389(14) -0.1449(5)
C15I C 0.6074(16) 0.6949(13) -0.1464(3)
O11I O 0.55249(27) 0.64915(19) -0.26573(7)
O12I O 0.4768(4) 0.5977(3) -0.23531(10)
O13I O 0.5498(2) 0.5497(2) -0.2500
C16I C 0.5288(10) 0.5007(7) -0.1979(4)
C17I C 0.4852(8) 0.5604(6) -0.1840(2)
C18I C 0.5659(5) 0.7291(4) -0.29308(13)
O7M O 0.6265(3) 0.6759(4) -0.29330(7)
C19I C 0.7917(12) 0.9277(6) -0.2364(4)
C20I C 0.7220(16) 0.8966(7) -0.2627(5)
C12J C -0.0270(12) 0.2105(17) -0.1964(4)
C13J C 0.0836(6) 0.2592(8) -0.1882(2)
C14J C -0.0210(14) 0.3400(20) -0.1449(5)
C15J C 0.0876(10) 0.3926(16) -0.1464(3)
O11J O 0.09667(19) 0.44751(27) -0.26573(7)
O12J O 0.1210(3) 0.5232(4) -0.23531(10)
O13J O -0.0000 0.4502(2) -0.2500
C16J C -0.0280(7) 0.4712(10) -0.1979(4)
C17J C 0.0753(5) 0.5148(8) -0.1840(2)
C18J C 0.1633(3) 0.4341(5) -0.29308(13)
O7L O 0.0493(2) 0.3735(3) -0.29330(7)
C19J C 0.1361(10) 0.2083(12) -0.2364(4)
C20J C 0.1747(14) 0.2780(16) -0.2627(5)
C12K C 0.2376(12) 1.0270(12) -0.1964(4)
C13K C 0.1757(5) 0.9164(6) -0.1882(2)
C14K C 0.3611(14) 1.0210(14) -0.1449(5)
C15K C 0.3051(13) 0.9124(10) -0.1464(3)
O11K O 0.35085(19) 0.90333(19) -0.26573(7)
O12K O 0.4023(3) 0.8790(3) -0.23531(10)
O13K O 0.4503(2) 1.0000 -0.2500
C16K C 0.4993(7) 1.0280(7) -0.1979(4)
C17K C 0.4396(6) 0.9247(5) -0.1840(2)
C18K C 0.2709(4) 0.8367(3) -0.29308(13)
O7N O 0.3241(4) 0.9507(2) -0.29330(7)
C19K C 0.0723(6) 0.8639(10) -0.2364(4)
C20K C 0.1034(7) 0.8253(14) -0.2627(5)
C21I C 0.4304(8) 0.6094(6) -0.2377(2)
C22I C 0.5564(9) 0.7197(7) -0.3125(2)
C23I C 0.5581(8) 0.7718(6) -0.2849(3)
Ti1M Ti 0.66549(5) 0.63171(7) -0.296999(17)
C21J C 0.1791(5) 0.5696(8) -0.2377(2)
C22J C 0.1634(6) 0.4436(9) -0.3125(2)
C23J C 0.2138(5) 0.4419(8) -0.2849(3)
Ti1L Ti -0.03379(5) 0.33451(5) -0.296999(17)
C21K C 0.3906(6) 0.8209(5) -0.2377(2)
C22K C 0.2803(7) 0.8366(6) -0.3125(2)
C23K C 0.2282(6) 0.7862(5) -0.2849(3)
Ti1N Ti 0.36829(7) 1.03379(5) -0.296999(17)
C24I C 0.3875(13) 0.5673(9) -0.2517(5)
C25I C 0.4511(8) 0.6703(6) -0.2426(2)
H6I H 0.5695 0.6968 -0.3192
C26I C 0.5276(15) 0.7419(9) -0.3241(4)
C27I C 0.5282(12) 0.7947(10) -0.2953(3)
H7I H 0.5734 0.7863 -0.2717
C24J C 0.1799(9) 0.6125(13) -0.2517(5)
C25J C 0.2193(5) 0.5489(8) -0.2426(2)
H6J H 0.1274 0.4305 -0.3192
C26J C 0.2144(12) 0.4724(15) -0.3241(4)
C27J C 0.2666(6) 0.4718(12) -0.2953(3)
H7J H 0.2130 0.4266 -0.2717
C24K C 0.4327(9) 0.8201(9) -0.2517(5)
C25K C 0.3297(6) 0.7807(5) -0.2426(2)
H6K H 0.3032 0.8726 -0.3192
C26K C 0.2581(9) 0.7856(12) -0.3241(4)
C27K C 0.2053(10) 0.7334(6) -0.2953(3)
H7K H 0.2137 0.7870 -0.2717
H8I H 0.5141 0.7271 -0.3375
C28I C 0.5199(13) 0.7790(10) -0.3175(4)
H9I H 0.5508 0.8361 -0.2944
H8J H 0.2131 0.4859 -0.3375
C28J C 0.2592(9) 0.4801(13) -0.3175(4)
H9J H 0.2854 0.4492 -0.2944
H8K H 0.2729 0.7869 -0.3375
C28K C 0.2210(10) 0.7408(9) -0.3175(4)
H9K H 0.1639 0.7146 -0.2944
H10I H 0.5082 0.7991 -0.3266
H10J H 0.2910 0.4918 -0.3266
H10K H 0.2009 0.7090 -0.3266
loop_
_geom_bond_atom_site_label_1
_geom_bond_atom_site_label_2
_geom_bond_site_symmetry_1
_geom_bond_site_symmetry_2
I1 Cu1 1_555 1_555
Cu1 I2 1_555 1_555
Cu2 I1 1_555 1_555
I2 Cu1A 1_555 1_555
N1 Cu1 1_555 1_555
N2 Cu2 1_555 1_555
C1 N1 1_555 1_555
C2 N1 1_555 1_555
C3 N2 1_555 1_555
H1 C1 1_555 1_555
C4 C1 1_555 1_555
C5 C2 1_555 1_555
H2 C2 1_555 1_555
H3 C3 1_555 1_555
C6 C4 1_555 1_555
C7 C4 1_555 1_555
H4 C5 1_555 1_555
H5 C6 1_555 1_555
O1 C7 1_555 1_555
O2 C7 1_555 1_555
Ti1 O1 1_555 1_555
Ti2 O2 1_555 1_555
O3 Ti1 1_555 1_555
O4 Ti1 1_555 1_555
O5 Ti1 1_555 1_555
O6 Ti1 1_555 1_555
O7 Ti1 1_555 1_555
O8 Ti2 1_555 1_555
O9 Ti2 1_555 1_555
O10 Ti2 1_555 1_555
C8 O3 1_555 1_555
C9 O4 1_555 1_555
Ti3 O5 1_555 1_555
C10 O5 1_555 1_555
P1 O8 1_555 1_555
C11 O9 1_555 1_555
C12 C8 1_555 1_555
C13 C8 1_555 1_555
C14 C9 1_555 1_555
C15 C9 1_555 1_555
O11 Ti3 1_555 1_555
O12 Ti3 1_555 1_555
O13 Ti3 1_555 1_555
C16 C10 1_555 1_555
C17 C10 1_555 1_555
C18 P1 1_555 1_555
C19 C11 1_555 1_555
C20 C11 1_555 1_555
C21 O12 1_555 1_555
C22 C18 1_555 1_555
C23 C18 1_555 1_555
C24 C21 1_555 1_555
C25 C21 1_555 1_555
H6 C22 1_555 1_555
C26 C22 1_555 1_555
C27 C23 1_555 1_555
H7 C23 1_555 1_555
H8 C26 1_555 1_555
C28 C26 1_555 1_555
H9 C27 1_555 1_555
H10 C28 1_555 1_555
Cu1A I1 1_555 1_555
I1B Cu1 1_555 1_555
I1A Cu2 1_555 1_555
N1A Cu1A 1_555 1_555
Cu1B I2 1_555 1_555
C3A N2 1_555 1_555
C3B N2 1_555 1_555
C1A N1A 1_555 1_555
C2A N1A 1_555 1_555
N1B Cu1B 1_555 1_555
C3I C3 1_555 1_555
H3A C3A 1_555 1_555
C3K C3A 1_555 1_555
H3B C3B 1_555 1_555
C3J C3B 1_555 1_555
H1A C1A 1_555 1_555
C4A C1A 1_555 1_555
C5A C2A 1_555 1_555
H2A C2A 1_555 1_555
C1B N1B 1_555 1_555
C2B N1B 1_555 1_555
N2I C3I 1_555 1_555
H3I C3I 1_555 1_555
H3K C3K 1_555 1_555
H3J C3J 1_555 1_555
C6A C4A 1_555 1_555
C7A C4A 1_555 1_555
H4A C5A 1_555 1_555
H1B C1B 1_555 1_555
C4B C1B 1_555 1_555
C5B C2B 1_555 1_555
H2B C2B 1_555 1_555
Cu2I N2I 1_555 1_555
H5A C6A 1_555 1_555
O1A C7A 1_555 1_555
O2A C7A 1_555 1_555
C6B C4B 1_555 1_555
C7B C4B 1_555 1_555
H4B C5B 1_555 1_555
I1I Cu2I 1_555 1_555
I1J Cu2I 1_555 1_555
I1K Cu2I 1_555 1_555
Ti1A O1A 1_555 1_555
Ti2A O2A 1_555 1_555
H5B C6B 1_555 1_555
O1B C7B 1_555 1_555
O2B C7B 1_555 1_555
Cu1I I1I 1_555 1_555
Cu1J I1I 1_555 1_555
Cu1K I1J 1_555 1_555
O3A Ti1A 1_555 1_555
O4A Ti1A 1_555 1_555
O5A Ti1A 1_555 1_555
O6A Ti1A 1_555 1_555
O7A Ti1A 1_555 1_555
O8A Ti2A 1_555 1_555
O9A Ti2A 1_555 1_555
O10A Ti2A 1_555 1_555
Ti1B O1B 1_555 1_555
Ti2B O2B 1_555 1_555
Ti2P O10 1_555 1_555
I2I Cu1I 1_555 1_555
N1I Cu1I 1_555 1_555
N1J Cu1J 1_555 1_555
N1K Cu1K 1_555 1_555
C8A O3A 1_555 1_555
C9A O4A 1_555 1_555
Ti3A O5A 1_555 1_555
C10A O5A 1_555 1_555
P1A O8A 1_555 1_555
C11A O9A 1_555 1_555
Ti2O O10A 1_555 1_555
O3B Ti1B 1_555 1_555
O4B Ti1B 1_555 1_555
O5B Ti1B 1_555 1_555
O6B Ti1B 1_555 1_555
O7B Ti1B 1_555 1_555
O8B Ti2B 1_555 1_555
O9B Ti2B 1_555 1_555
O10B Ti2B 1_555 1_555
O7P P1 1_555 1_555
C1I N1I 1_555 1_555
C2I N1I 1_555 1_555
C1J N1J 1_555 1_555
C2J N1J 1_555 1_555
C1K N1K 1_555 1_555
C2K N1K 1_555 1_555
C12A C8A 1_555 1_555
C13A C8A 1_555 1_555
C14A C9A 1_555 1_555
C15A C9A 1_555 1_555
O11A Ti3A 1_555 1_555
O12A Ti3A 1_555 1_555
O13A Ti3A 1_555 1_555
C16A C10A 1_555 1_555
C17A C10A 1_555 1_555
C18A P1A 1_555 1_555
O7O P1A 1_555 1_555
C19A C11A 1_555 1_555
C20A C11A 1_555 1_555
C8B O3B 1_555 1_555
C9B O4B 1_555 1_555
Ti3B O5B 1_555 1_555
C10B O5B 1_555 1_555
P1B O8B 1_555 1_555
C11B O9B 1_555 1_555
Ti2Q O10B 1_555 1_555
Ti3P O13 1_555 1_555
Ti1P O7P 1_555 1_555
H1I C1I 1_555 1_555
C4I C1I 1_555 1_555
C5I C2I 1_555 1_555
H2I C2I 1_555 1_555
H1J C1J 1_555 1_555
C4J C1J 1_555 1_555
C5J C2J 1_555 1_555
H2J C2J 1_555 1_555
H1K C1K 1_555 1_555
C4K C1K 1_555 1_555
C5K C2K 1_555 1_555
H2K C2K 1_555 1_555
C21A O12A 1_555 1_555
Ti3O O13A 1_555 1_555
C22A C18A 1_555 1_555
C23A C18A 1_555 1_555
Ti1O O7O 1_555 1_555
C12B C8B 1_555 1_555
C13B C8B 1_555 1_555
C14B C9B 1_555 1_555
C15B C9B 1_555 1_555
O11B Ti3B 1_555 1_555
O12B Ti3B 1_555 1_555
O13B Ti3B 1_555 1_555
C16B C10B 1_555 1_555
C17B C10B 1_555 1_555
C18B P1B 1_555 1_555
O7Q P1B 1_555 1_555
C19B C11B 1_555 1_555
C20B C11B 1_555 1_555
C6I C4I 1_555 1_555
C7I C4I 1_555 1_555
H4I C5I 1_555 1_555
C6J C4J 1_555 1_555
C7J C4J 1_555 1_555
H4J C5J 1_555 1_555
C6K C4K 1_555 1_555
C7K C4K 1_555 1_555
H4K C5K 1_555 1_555
C24A C21A 1_555 1_555
C25A C21A 1_555 1_555
H6A C22A 1_555 1_555
C26A C22A 1_555 1_555
C27A C23A 1_555 1_555
H7A C23A 1_555 1_555
C21B O12B 1_555 1_555
Ti3Q O13B 1_555 1_555
C22B C18B 1_555 1_555
C23B C18B 1_555 1_555
Ti1Q O7Q 1_555 1_555
H5I C6I 1_555 1_555
O1I C7I 1_555 1_555
O2I C7I 1_555 1_555
H5J C6J 1_555 1_555
O1J C7J 1_555 1_555
O2J C7J 1_555 1_555
H5K C6K 1_555 1_555
O1K C7K 1_555 1_555
O2K C7K 1_555 1_555
H8A C26A 1_555 1_555
C28A C26A 1_555 1_555
H9A C27A 1_555 1_555
C24B C21B 1_555 1_555
C25B C21B 1_555 1_555
H6B C22B 1_555 1_555
C26B C22B 1_555 1_555
C27B C23B 1_555 1_555
H7B C23B 1_555 1_555
Ti1I O1I 1_555 1_555
Ti2I O2I 1_555 1_555
Ti1J O1J 1_555 1_555
Ti2J O2J 1_555 1_555
Ti1K O1K 1_555 1_555
Ti2K O2K 1_555 1_555
H10A C28A 1_555 1_555
H8B C26B 1_555 1_555
C28B C26B 1_555 1_555
H9B C27B 1_555 1_555
O3I Ti1I 1_555 1_555
O4I Ti1I 1_555 1_555
O5I Ti1I 1_555 1_555
O6I Ti1I 1_555 1_555
O7I Ti1I 1_555 1_555
O8I Ti2I 1_555 1_555
O9I Ti2I 1_555 1_555
O10I Ti2I 1_555 1_555
O3J Ti1J 1_555 1_555
O4J Ti1J 1_555 1_555
O5J Ti1J 1_555 1_555
O6J Ti1J 1_555 1_555
O7J Ti1J 1_555 1_555
O8J Ti2J 1_555 1_555
O9J Ti2J 1_555 1_555
O10J Ti2J 1_555 1_555
O3K Ti1K 1_555 1_555
O4K Ti1K 1_555 1_555
O5K Ti1K 1_555 1_555
O6K Ti1K 1_555 1_555
O7K Ti1K 1_555 1_555
O8K Ti2K 1_555 1_555
O9K Ti2K 1_555 1_555
O10K Ti2K 1_555 1_555
H10B C28B 1_555 1_555
C8I O3I 1_555 1_555
C9I O4I 1_555 1_555
Ti3I O5I 1_555 1_555
C10I O5I 1_555 1_555
P1I O8I 1_555 1_555
C11I O9I 1_555 1_555
C8J O3J 1_555 1_555
C9J O4J 1_555 1_555
Ti3J O5J 1_555 1_555
C10J O5J 1_555 1_555
P1J O8J 1_555 1_555
C11J O9J 1_555 1_555
C8K O3K 1_555 1_555
C9K O4K 1_555 1_555
Ti3K O5K 1_555 1_555
C10K O5K 1_555 1_555
P1K O8K 1_555 1_555
C11K O9K 1_555 1_555
C12I C8I 1_555 1_555
C13I C8I 1_555 1_555
C14I C9I 1_555 1_555
C15I C9I 1_555 1_555
O11I Ti3I 1_555 1_555
O12I Ti3I 1_555 1_555
O13I Ti3I 1_555 1_555
C16I C10I 1_555 1_555
C17I C10I 1_555 1_555
C18I P1I 1_555 1_555
O7M P1I 1_555 1_555
C19I C11I 1_555 1_555
C20I C11I 1_555 1_555
C12J C8J 1_555 1_555
C13J C8J 1_555 1_555
C14J C9J 1_555 1_555
C15J C9J 1_555 1_555
O11J Ti3J 1_555 1_555
O12J Ti3J 1_555 1_555
O13J Ti3J 1_555 1_555
C16J C10J 1_555 1_555
C17J C10J 1_555 1_555
C18J P1J 1_555 1_555
O7L P1J 1_555 1_555
C19J C11J 1_555 1_555
C20J C11J 1_555 1_555
C12K C8K 1_555 1_555
C13K C8K 1_555 1_555
C14K C9K 1_555 1_555
C15K C9K 1_555 1_555
O11K Ti3K 1_555 1_555
O12K Ti3K 1_555 1_555
O13K Ti3K 1_555 1_555
C16K C10K 1_555 1_555
C17K C10K 1_555 1_555
C18K P1K 1_555 1_555
O7N P1K 1_555 1_555
C19K C11K 1_555 1_555
C20K C11K 1_555 1_555
C21I O12I 1_555 1_555
C22I C18I 1_555 1_555
C23I C18I 1_555 1_555
Ti1M O7M 1_555 1_555
C21J O12J 1_555 1_555
C22J C18J 1_555 1_555
C23J C18J 1_555 1_555
Ti1L O7L 1_555 1_555
C21K O12K 1_555 1_555
C22K C18K 1_555 1_555
C23K C18K 1_555 1_555
Ti1N O7N 1_555 1_555
C24I C21I 1_555 1_555
C25I C21I 1_555 1_555
H6I C22I 1_555 1_555
C26I C22I 1_555 1_555
C27I C23I 1_555 1_555
H7I C23I 1_555 1_555
C24J C21J 1_555 1_555
C25J C21J 1_555 1_555
H6J C22J 1_555 1_555
C26J C22J 1_555 1_555
C27J C23J 1_555 1_555
H7J C23J 1_555 1_555
C24K C21K 1_555 1_555
C25K C21K 1_555 1_555
H6K C22K 1_555 1_555
C26K C22K 1_555 1_555
C27K C23K 1_555 1_555
H7K C23K 1_555 1_555
H8I C26I 1_555 1_555
C28I C26I 1_555 1_555
H9I C27I 1_555 1_555
H8J C26J 1_555 1_555
C28J C26J 1_555 1_555
H9J C27J 1_555 1_555
H8K C26K 1_555 1_555
C28K C26K 1_555 1_555
H9K C27K 1_555 1_555
H10I C28I 1_555 1_555
H10J C28J 1_555 1_555
H10K C28K 1_555 1_555
Cu2 I1B 1_555 1_555
C5 C6 1_555 1_555
Ti2 O3 1_555 1_555
Ti2 O6 1_555 1_555
O6 Ti3 1_555 1_555
P1 O11 1_555 1_555
C27 C28 1_555 1_555
Cu1A I1A 1_555 1_555
I1B Cu1B 1_555 1_555
I1A Cu1B 1_555 1_555
C3K N2I 1_555 1_555
C3J N2I 1_555 1_555
C5A C6A 1_555 1_555
C5B C6B 1_555 1_555
I1J Cu1J 1_555 1_555
I1K Cu1I 1_555 1_555
I1K Cu1K 1_555 1_555
Ti2A O3A 1_555 1_555
Ti2A O6A 1_555 1_555
Cu1J I2I 1_555 1_555
Cu1K I2I 1_555 1_555
O6A Ti3A 1_555 1_555
Ti2B O3B 1_555 1_555
Ti2B O6B 1_555 1_555
P1A O11A 1_555 1_555
O6B Ti3B 1_555 1_555
P1B O11B 1_555 1_555
C5I C6I 1_555 1_555
C5J C6J 1_555 1_555
C5K C6K 1_555 1_555
C27A C28A 1_555 1_555
C27B C28B 1_555 1_555
Ti2I O3I 1_555 1_555
Ti2I O6I 1_555 1_555
Ti2J O3J 1_555 1_555
Ti2J O6J 1_555 1_555
Ti2K O3K 1_555 1_555
Ti2K O6K 1_555 1_555
O6I Ti3I 1_555 1_555
O6J Ti3J 1_555 1_555
O6K Ti3K 1_555 1_555
P1I O11I 1_555 1_555
P1J O11J 1_555 1_555
P1K O11K 1_555 1_555
C27I C28I 1_555 1_555
C27J C28J 1_555 1_555
C27K C28K 1_555 1_555

#END
