
#######################################################################
#
#                 Cambridge Crystallographic Data Centre
#                                CCDC 
#
#######################################################################
#
# If this CIF has been generated from an entry in the Cambridge 
# Structural Database, then it will include bibliographic, chemical, 
# crystal, experimental, refinement or atomic coordinate data resulting 
# from the CCDC's data processing and validation procedures.
#
#######################################################################

data_YIXYUB
_chemical_formula_moiety         '(C9 H9 Cd1 N3 O4)n'
_symmetry_cell_setting           tetragonal
_symmetry_space_group_name_H-M   'P 42/n'
_symmetry_Int_Tables_number      86
_space_group_name_Hall           '-P 4bc'
loop_
_symmetry_equiv_pos_site_id
_symmetry_equiv_pos_as_xyz
1 x,y,z
2 -y,1/2+x,1/2+z
3 1/2+y,-x,1/2+z
4 1/2-x,1/2-y,z
5 -x,-y,-z
6 y,1/2-x,1/2-z
7 1/2-y,x,1/2-z
8 1/2+x,1/2+y,-z
_cell_length_a                   20.872(8)
_cell_length_b                   20.872(8)
_cell_length_c                   5.882(2)
_cell_angle_alpha                90
_cell_angle_beta                 90
_cell_angle_gamma                90
_cell_volume                     2562.44
loop_
_atom_site_label
_atom_site_type_symbol
_atom_site_fract_x
_atom_site_fract_y
_atom_site_fract_z
_atom_site_U_iso_or_equiv
_atom_site_thermal_displace_type
Cd1 Cd 0.32988(2) 0.76803(2) 0.04003(9) 0.0259 Uani
O1 O 0.7011(2) 0.4044(2) 0.1544(8) 0.0403 Uani
O2 O 0.6448(3) 0.4001(3) 0.4702(9) 0.0450 Uani
O3 O 0.31242(19) 0.7666(2) -0.3346(8) 0.0237 Uani
H1 H 0.345(3) 0.777(4) -0.411(14) 0.0600 Uiso
N1 N 0.4201(3) 0.7002(3) -0.0360(10) 0.0377 Uani
N2 N 0.5057(3) 0.6593(3) -0.2176(12) 0.0520 Uani
N3 N 0.4984(3) 0.6320(3) -0.0089(10) 0.0380 Uani
C1 C 0.4472(3) 0.6567(3) 0.0951(13) 0.0390 Uani
H2 H 0.4327 0.6449 0.2388 0.0470 Uiso
C2 C 0.4577(3) 0.7007(3) -0.2268(15) 0.0460 Uani
H3 H 0.4503 0.7275 -0.3504 0.0550 Uiso
C3 C 0.5412(4) 0.5823(3) 0.0683(13) 0.0383 Uani
C4 C 0.5364(5) 0.5594(5) 0.2789(16) 0.1077 Uani
H4 H 0.5079 0.5773 0.3824 0.1290 Uiso
C5 C 0.5748(5) 0.5081(5) 0.3405(17) 0.1043 Uani
H5 H 0.5710 0.4922 0.4876 0.1250 Uiso
C6 C 0.6170(3) 0.4801(3) 0.2009(12) 0.0343 Uani
C7 C 0.6206(5) 0.5037(5) -0.0073(16) 0.0817 Uani
H6 H 0.6491 0.4854 -0.1101 0.0980 Uiso
C8 C 0.5821(5) 0.5561(5) -0.0786(17) 0.0930 Uani
H7 H 0.5855 0.5719 -0.2259 0.1110 Uiso
C9 C 0.6577(3) 0.4251(3) 0.2794(13) 0.0340 Uani
Cd1A Cd 0.23197(2) 0.82988(2) -0.45997(9) 0.0259 Uani
Cd1B Cd 0.26803(2) 0.67012(2) -0.45997(9) 0.0259 Uani
Cd1F Cd 0.73197(2) 0.32988(2) 0.45997(9) 0.0259 Uani
O1E O 0.4044(2) 0.7989(2) 0.3456(8) 0.0403 Uani
O2E O 0.4001(3) 0.8552(3) 0.0298(9) 0.0450 Uani
O3A O 0.2334(2) 0.81242(19) 0.1654(8) 0.0237 Uani
O3B O 0.2666(2) 0.68758(19) 0.1654(8) 0.0237 Uani
O4 O 0.610(2) 0.7584(16) 0.115(10) 0.5133 Uani
H8 H 0.614(6) 0.761(4) 0.257(9) 0.5300 Uiso
H9 H 0.612(7) 0.793(4) 0.040(12) 0.5500 Uiso
loop_
_atom_site_aniso_label
_atom_site_aniso_U_11
_atom_site_aniso_U_22
_atom_site_aniso_U_33
_atom_site_aniso_U_23
_atom_site_aniso_U_13
_atom_site_aniso_U_12
Cd1 0.0220(3) 0.0278(3) 0.0278(4) 0.0011(2) -0.0005(2) -0.0019(2)
O1 0.042(3) 0.040(3) 0.039(3) -0.005(2) -0.003(2) 0.016(2)
O2 0.044(3) 0.042(3) 0.049(4) 0.016(3) 0.001(3) 0.009(3)
O3 0.021(2) 0.026(2) 0.024(3) 0.0017(19) 0.0020(19) -0.0005(19)
N1 0.033(4) 0.038(4) 0.042(4) 0.003(3) 0.000(3) 0.008(3)
N2 0.047(4) 0.065(4) 0.044(4) 0.017(4) 0.010(3) 0.023(3)
N3 0.030(3) 0.040(4) 0.044(4) 0.003(3) -0.002(3) 0.009(3)
C1 0.037(4) 0.038(4) 0.042(5) 0.000(3) 0.001(4) 0.014(3)
C2 0.034(4) 0.047(5) 0.057(5) 0.014(4) 0.000(4) 0.011(4)
C3 0.037(4) 0.035(4) 0.043(5) -0.001(3) 0.005(3) 0.015(3)
C4 0.149(10) 0.133(10) 0.041(6) 0.039(6) 0.043(7) 0.116(8)
C5 0.139(10) 0.133(10) 0.041(6) 0.036(6) 0.032(6) 0.103(8)
C6 0.039(4) 0.035(4) 0.029(4) -0.003(3) 0.002(3) 0.005(3)
C7 0.087(8) 0.103(8) 0.055(6) 0.034(6) 0.039(5) 0.070(7)
C8 0.093(8) 0.127(10) 0.059(7) 0.056(7) 0.035(6) 0.079(7)
C9 0.034(4) 0.030(4) 0.038(4) 0.000(3) -0.003(3) 0.001(3)
Cd1A 0.0278 0.022 0.0278 -0.0005 -0.0011 0.0019
Cd1B 0.0278 0.022 0.0278 0.0005 0.0011 0.0019
Cd1F 0.0278 0.022 0.0278 0.0005 0.0011 0.0019
O1E 0.04 0.042 0.039 -0.003 0.005 -0.016
O2E 0.042 0.044 0.049 0.001 -0.016 -0.009
O3A 0.026 0.021 0.024 0.002 -0.0017 0.0005
O3B 0.026 0.021 0.024 -0.002 0.0017 0.0005
O4 0.28(4) 0.30(5) 0.96(14) -0.40(7) -0.33(7) 0.16(4)
loop_
_geom_bond_atom_site_label_1
_geom_bond_atom_site_label_2
_geom_bond_site_symmetry_1
_geom_bond_site_symmetry_2
Cd1 O3 1_555 1_555
O1 C9 1_555 1_555
O2 C9 1_555 1_555
O3 H1 1_555 1_555
N1 Cd1 1_555 1_555
N2 N3 1_555 1_555
N3 C1 1_555 1_555
C1 N1 1_555 1_555
H2 C1 1_555 1_555
C2 N1 1_555 1_555
H3 C2 1_555 1_555
C3 N3 1_555 1_555
C4 C3 1_555 1_555
H4 C4 1_555 1_555
C5 C4 1_555 1_555
H5 C5 1_555 1_555
C6 C5 1_555 1_555
C7 C6 1_555 1_555
H6 C7 1_555 1_555
C8 C3 1_555 1_555
H7 C8 1_555 1_555
C9 C6 1_555 1_555
O4 H8 1_555 1_555
H9 O4 1_555 1_555
Cd1A O3 1_555 1_555
Cd1B O3 1_555 1_555
Cd1F O1 1_555 1_555
O1E Cd1 1_555 1_555
O2E Cd1 1_555 1_555
O3A Cd1 1_555 1_555
O3B Cd1 1_555 1_555
O2 Cd1F 1_555 1_555
N2 C2 1_555 1_555
C7 C8 1_555 1_555

#END
