
#######################################################################
#
#                 Cambridge Crystallographic Data Centre
#                                CCDC 
#
#######################################################################
#
# If this CIF has been generated from an entry in the Cambridge 
# Structural Database, then it will include bibliographic, chemical, 
# crystal, experimental, refinement or atomic coordinate data resulting 
# from the CCDC's data processing and validation procedures.
#
#######################################################################

data_YIXZAI
_chemical_formula_moiety         '(C9 H7 Cd1 N3 O3)n'
_symmetry_cell_setting           tetragonal
_symmetry_space_group_name_H-M   'P 42/n'
_symmetry_Int_Tables_number      86
_space_group_name_Hall           '-P 4bc'
loop_
_symmetry_equiv_pos_site_id
_symmetry_equiv_pos_as_xyz
1 x,y,z
2 1/2-x,1/2-y,z
3 -y,1/2+x,1/2+z
4 1/2+y,-x,1/2+z
5 -x,-y,-z
6 1/2+x,1/2+y,-z
7 y,1/2-x,1/2-z
8 1/2-y,x,1/2-z
_cell_length_a                   20.8164(13)
_cell_length_b                   20.8164(13)
_cell_length_c                   5.8701(4)
_cell_angle_alpha                90
_cell_angle_beta                 90
_cell_angle_gamma                90
_cell_volume                     2543.65
loop_
_atom_site_label
_atom_site_type_symbol
_atom_site_fract_x
_atom_site_fract_y
_atom_site_fract_z
_atom_site_U_iso_or_equiv
_atom_site_thermal_displace_type
Cd1 Cd 0.268443(14) 0.670339(14) 0.03871(6) 0.0242 Uani
O1 O -0.09574(14) 0.29904(15) 0.1571(5) 0.0366 Uani
O2 O -0.09994(17) 0.35617(17) 0.4722(6) 0.0413 Uani
O3 O 0.18788(13) 0.73321(13) 0.1640(5) 0.0238 Uani
H1 H 0.158(2) 0.717(2) 0.088(10) 0.0360 Uiso
N1 N 0.13348(19) 0.50081(18) -0.0069(7) 0.0330 Uani
N2 N 0.1611(2) 0.4934(2) -0.2172(8) 0.0467 Uani
N3 N 0.20113(18) 0.58004(18) -0.0367(7) 0.0323 Uani
C1 C -0.0752(2) 0.3433(2) 0.2816(9) 0.0313 Uani
C2 C 0.0048(2) 0.3778(2) -0.0164(5) 0.0813 Uani
H2 H -0.0137 0.3490 -0.1183 0.0970 Uiso
C3 C -0.01870(15) 0.38258(16) 0.2045(5) 0.0317 Uani
C4 C 0.0090(2) 0.4255(2) 0.3568(5) 0.1033 Uani
H3 H -0.0067 0.4288 0.5046 0.1240 Uiso
C5 C 0.0603(2) 0.4637(2) 0.2881(5) 0.1080 Uani
H4 H 0.0789 0.4924 0.3899 0.1290 Uiso
C6 C 0.08385(16) 0.45885(17) 0.0671(6) 0.0340 Uani
C7 C 0.0561(2) 0.4159(2) -0.0851(5) 0.0877 Uani
H5 H 0.0718 0.4127 -0.2329 0.1050 Uiso
C8 C 0.2016(2) 0.5423(2) -0.2254(10) 0.0423 Uani
H6 H 0.2281 0.5502 -0.3498 0.0510 Uiso
C9 C 0.1574(2) 0.5528(2) 0.0935(9) 0.0353 Uani
H7 H 0.1450 0.5678 0.2360 0.0420 Uiso
Cd1A Cd 0.231557(14) 0.829661(14) 0.03871(6) 0.0242 Uani
Cd1C Cd 0.170339(14) 0.731557(14) 0.53871(6) 0.0242 Uani
Cd1G Cd -0.170339(14) 0.268443(14) 0.46129(6) 0.0242 Uani
O1F O 0.29904(15) 0.59574(14) 0.3429(5) 0.0366 Uani
O2F O 0.35617(17) 0.59994(17) 0.0278(6) 0.0413 Uani
O3A O 0.31212(13) 0.76679(13) 0.1640(5) 0.0238 Uani
O3B O 0.26679(13) 0.68788(13) -0.3360(5) 0.0238 Uani
loop_
_atom_site_aniso_label
_atom_site_aniso_U_11
_atom_site_aniso_U_22
_atom_site_aniso_U_33
_atom_site_aniso_U_23
_atom_site_aniso_U_13
_atom_site_aniso_U_12
Cd1 0.0265(2) 0.0208(2) 0.0252(2) 0.00042(12) 0.00109(13) 0.00191(12)
O1 0.0363(18) 0.0385(18) 0.035(2) 0.0024(15) -0.0054(15) -0.0137(14)
O2 0.039(2) 0.039(2) 0.046(2) -0.0022(16) 0.0145(17) -0.0143(16)
O3 0.0207(14) 0.0266(15) 0.0241(18) -0.0013(13) -0.0006(12) -0.0022(12)
N1 0.035(2) 0.029(2) 0.035(2) -0.0011(17) 0.0038(18) -0.0088(18)
N2 0.054(3) 0.046(2) 0.040(3) -0.010(2) 0.016(2) -0.021(2)
N3 0.031(2) 0.028(2) 0.038(2) 0.0011(17) 0.0014(18) -0.0086(17)
C1 0.026(2) 0.035(2) 0.033(3) 0.007(2) 0.000(2) -0.0012(19)
C2 0.104(5) 0.087(5) 0.053(4) -0.041(3) 0.036(4) -0.073(4)
C3 0.030(2) 0.036(2) 0.029(2) -0.002(2) 0.001(2) -0.0106(19)
C4 0.124(6) 0.143(6) 0.043(4) -0.043(4) 0.041(4) -0.107(5)
C5 0.128(6) 0.152(6) 0.044(4) -0.035(4) 0.030(4) -0.116(5)
C6 0.031(2) 0.037(3) 0.034(3) -0.002(2) 0.006(2) -0.015(2)
C7 0.112(5) 0.100(5) 0.051(4) -0.038(4) 0.049(4) -0.077(4)
C8 0.046(3) 0.036(3) 0.045(3) -0.004(2) 0.016(3) -0.009(2)
C9 0.034(3) 0.035(3) 0.037(3) -0.004(2) 0.005(2) -0.013(2)
Cd1A 0.0265 0.0208 0.0252 -0.00042 -0.00109 0.00191
Cd1C 0.0208 0.0265 0.0252 -0.00109 0.00042 -0.00191
Cd1G 0.0208 0.0265 0.0252 -0.00109 0.00042 -0.00191
O1F 0.0385 0.0363 0.035 -0.0054 -0.0024 0.0137
O2F 0.039 0.039 0.046 0.0145 0.0022 0.0143
O3A 0.0207 0.0266 0.0241 0.0013 0.0006 -0.0022
O3B 0.0266 0.0207 0.0241 -0.0006 0.0013 0.0022
loop_
_geom_bond_atom_site_label_1
_geom_bond_atom_site_label_2
_geom_bond_site_symmetry_1
_geom_bond_site_symmetry_2
Cd1 O3 1_555 1_555
O1 C1 1_555 1_555
O2 C1 1_555 1_555
O3 H1 1_555 1_555
N1 N2 1_555 1_555
N2 C8 1_555 1_555
N3 Cd1 1_555 1_555
C1 C3 1_555 1_555
C2 H2 1_555 1_555
C3 C2 1_555 1_555
C4 C3 1_555 1_555
H3 C4 1_555 1_555
C5 C4 1_555 1_555
H4 C5 1_555 1_555
C6 N1 1_555 1_555
C7 C2 1_555 1_555
H5 C7 1_555 1_555
C8 N3 1_555 1_555
H6 C8 1_555 1_555
C9 N1 1_555 1_555
H7 C9 1_555 1_555
Cd1A O3 1_555 1_555
Cd1C O3 1_555 1_555
Cd1G O1 1_555 1_555
O1F Cd1 1_555 1_555
O2F Cd1 1_555 1_555
O3A Cd1 1_555 1_555
O3B Cd1 1_555 1_555
O2 Cd1G 1_555 1_555
N3 C9 1_555 1_555
C5 C6 1_555 1_555
C6 C7 1_555 1_555
Cd1A O3A 1_555 1_555

#END
