
#######################################################################
#
#                 Cambridge Crystallographic Data Centre
#                                CCDC 
#
#######################################################################
#
# If this CIF has been generated from an entry in the Cambridge 
# Structural Database, then it will include bibliographic, chemical, 
# crystal, experimental, refinement or atomic coordinate data resulting 
# from the CCDC's data processing and validation procedures.
#
#######################################################################

data_HUQGOR
_chemical_formula_moiety         '(C93 H65 N5 O13 Zn3)n'
_symmetry_cell_setting           triclinic
_symmetry_space_group_name_H-M   'P -1'
_symmetry_Int_Tables_number      2
_space_group_name_Hall           '-P 1'
loop_
_symmetry_equiv_pos_site_id
_symmetry_equiv_pos_as_xyz
1 x,y,z
2 -x,-y,-z
_cell_length_a                   19.792(5)
_cell_length_b                   20.604(5)
_cell_length_c                   21.471(6)
_cell_angle_alpha                115.799(6)
_cell_angle_beta                 98.322(7)
_cell_angle_gamma                100.882(7)
_cell_volume                     7482.02
loop_
_atom_site_label
_atom_site_type_symbol
_atom_site_fract_x
_atom_site_fract_y
_atom_site_fract_z
C1 C 1.1106(3) 0.3399(3) 0.3651(3)
H1 H 1.1259 0.3113 0.3256
C2 C 1.1327(4) 0.4300(4) 0.4932(4)
H2 H 1.1650 0.4605 0.5377
C3 C 1.2310(5) 0.3945(5) 0.4455(5)
H3 H 1.2595 0.4315 0.4902
C4 C 1.1566(4) 0.3892(5) 0.4350(5)
C5 C 1.2630(6) 0.3577(5) 0.4046(5)
H4 H 1.2347 0.3243 0.3586
C6 C 0.8530(5) 0.4262(3) 0.5291(4)
C7 C 1.3871(6) 0.4099(6) 0.4700(5)
H5 H 1.3750 0.4517 0.5008
C8 C 1.3406(6) 0.3568(7) 0.4155(6)
C9 C 1.4606(5) 0.4046(5) 0.4842(5)
H6 H 1.4948 0.4427 0.5246
C10 C 1.3549(7) 0.3038(10) 0.3664(6)
H7 H 1.3202 0.2693 0.3246
C11 C 1.0353(4) 0.3400(4) 0.3633(4)
H8 H 1.0009 0.3098 0.3201
C12 C 0.8236(4) 1.2137(4) 1.3297(3)
C13 C 1.4260(7) 0.2983(10) 0.3768(10)
H9 H 1.4382 0.2612 0.3400
C14 C 0.9260(4) 0.5010(4) 0.6566(3)
H10 H 0.9662 0.4911 0.6412
C15 C 0.8726(4) 0.5604(4) 0.7539(4)
C16 C 0.8306(4) 1.1419(4) 1.2811(3)
C17 C 0.8818(3) 0.4452(4) 1.2643(4)
C18 C 0.8864(4) 0.4000(4) 1.3012(4)
C19 C 0.8774(4) 0.6018(4) 0.8298(4)
C20 C 0.8783(4) 0.5325(4) 1.1929(4)
C21 C 0.8708(4) 0.4110(4) 1.1887(4)
H11 H 0.8623 0.3593 1.1618
C22 C 0.8912(4) 0.5237(4) 1.3037(4)
H12 H 0.8986 0.5472 1.3532
C23 C 0.8728(4) 0.4576(5) 1.1547(4)
H13 H 0.8705 0.4366 1.1061
C24 C 0.7697(5) 1.0804(4) 1.2392(4)
H14 H 0.7243 1.0867 1.2376
C25 C 0.8590(4) 0.4729(3) 0.6076(4)
C26 C 0.9304(4) 0.5438(4) 0.7282(3)
H15 H 0.9746 0.5624 0.7607
C27 C 0.9134(5) 0.6531(4) 1.1906(4)
H16 H 0.9354 0.6760 1.2393
C28 C 0.9266(4) 0.6300(4) 0.9518(4)
H17 H 0.9591 0.6263 0.9852
C29 C 0.8854(14) 0.2917(12) 0.5974(14)
H18 H 0.9025 0.2688 0.6246
H19 H 0.9152 0.3421 0.6168
H20 H 0.8863 0.2631 0.5485
C30 C 0.8815(5) 0.6741(4) 0.9748(4)
C31 C 0.7988(4) 0.4870(3) 0.6311(3)
H21 H 0.7543 0.4669 0.5986
C32 C 0.7740(13) 0.3058(15) 0.6612(8)
H22 H 0.7233 0.2882 0.6419
H23 H 0.7876 0.3585 0.6947
H24 H 0.7882 0.2788 0.6852
C33 C 0.7794(5) 1.0094(4) 1.2000(4)
H25 H 0.7397 0.9677 1.1765
C34 C 1.0626(4) 0.4263(4) 0.4864(4)
H26 H 1.0474 0.4541 0.5263
C35 C 0.8447(4) 0.9993(4) 1.1950(4)
C36 C 0.8512(4) 0.9211(4) 1.1512(4)
C37 C 0.8774(5) 0.6644(4) 1.0839(3)
C38 C 0.8212(5) 0.7906(4) 1.1209(4)
H27 H 0.7940 0.7510 1.1245
C39 C 0.9239(5) 0.5922(4) 0.8819(4)
H28 H 0.9520 0.5598 0.8669
C40 C 0.8054(4) 0.5309(4) 0.7027(4)
H29 H 0.7654 0.5417 0.7181
C41 C 0.9111(4) 0.8399(4) 1.0771(4)
H30 H 0.9455 0.8344 1.0514
C42 C 0.8464(4) 0.5477(4) 1.0868(4)
H31 H 0.8261 0.4959 1.0614
C43 C 0.8369(5) 0.6852(4) 0.9254(4)
H32 H 0.8101 0.7189 0.9412
C44 C 0.8682(5) 0.7775(4) 1.0817(4)
C45 C 0.9009(5) 1.0590(4) 1.2316(4)
H33 H 0.9463 1.0537 1.2296
C46 C 0.9165(6) 0.6954(5) 1.1543(4)
H34 H 0.9450 0.7449 1.1776
C47 C 0.8331(4) 0.6473(4) 0.8557(4)
H35 H 0.7998 0.6513 0.8232
C48 C 0.8783(4) 0.5786(4) 1.1550(4)
C49 C 0.8892(4) 0.5637(4) 1.2675(4)
H36 H 0.8954 0.6151 1.2938
C50 C 0.8111(4) 0.8624(4) 1.1571(4)
H37 H 0.7781 0.8700 1.1844
C51 C 0.8420(5) 0.5888(5) 1.0520(4)
H38 H 0.8143 0.5653 1.0051
C52 C 0.8926(4) 1.1304(4) 1.2734(4)
H39 H 0.9330 1.1714 1.2968
C53 C 0.8974(5) 0.9076(4) 1.1133(5)
H40 H 0.9240 0.9480 1.1103
C54 C 0.7817(14) 0.2841(6) 0.5441(7)
H41 H 0.7400 0.2985 0.5473
N1 N 0.8105(10) 0.2932(6) 0.6008(5)
N2 N 1.4775(4) 0.3469(4) 0.4403(4)
N3 N 1.0144(3) 0.3825(3) 0.4222(3)
N4 N 0.8836(4) 0.7090(4) 1.0508(3)
O1 O 0.7622(3) 1.2220(3) 1.3303(2)
O2 O 0.8809(3) 1.2645(3) 1.3701(3)
O3 O 0.9089(3) 0.4166(2) 0.5117(2)
O4 O 0.8851(2) 0.4313(3) 1.3662(2)
O5 O 0.7895(3) 0.4012(3) 0.4868(3)
O6 O 0.8933(3) 0.3353(3) 1.2695(2)
O7 O 0.7872(3) 0.2626(3) 0.4832(3)
Zn1 Zn 0.90931(4) 0.37072(4) 0.40987(4)
Zn2 Zn 0.73785(4) 0.29748(4) 0.41203(4)
C55 C 1.5882(5) 1.2016(5) 1.3764(5)
C56 C 1.5509(4) 1.0768(4) 1.2720(5)
H42 H 1.5169 1.0923 1.2517
C57 C 1.6542(4) 0.3812(4) 1.3623(4)
C58 C 1.6514(4) 0.4244(4) 1.3240(4)
C59 C 1.6559(4) 1.0335(4) 1.3247(3)
H43 H 1.6919 1.0191 1.3438
C60 C 1.6468(4) 0.5120(4) 1.2528(4)
C61 C 1.5983(5) 1.1261(4) 1.3368(4)
C62 C 1.6275(5) 0.6464(4) 1.0317(4)
C63 C 1.6458(4) 0.5565(4) 1.2158(4)
C64 C 1.6312(4) 0.7584(4) 1.1432(4)
C65 C 1.6503(4) 1.1045(4) 1.3619(4)
H44 H 1.6832 1.1382 1.4053
C66 C 1.6104(5) 0.9842(4) 1.2613(4)
C67 C 1.6037(4) 0.4304(5) 0.6619(4)
C68 C 1.6169(4) 0.9029(4) 1.2174(4)
C69 C 1.6591(4) 0.6780(4) 0.9954(4)
H45 H 1.6846 0.7286 1.0201
C70 C 1.6559(4) 0.8013(4) 1.2178(4)
H46 H 1.6783 0.7810 1.2431
C71 C 1.6159(4) 0.5079(5) 0.6948(4)
H47 H 1.6215 0.5328 0.6678
C72 C 1.6550(4) 0.6383(4) 0.9241(4)
H48 H 1.6770 0.6619 0.9009
C73 C 1.6983(5) 0.4760(6) 1.2521(6)
H49 H 1.7318 0.4788 1.2265
C74 C 1.5936(6) 0.4983(6) 1.2851(5)
H50 H 1.5558 0.5186 1.2822
C75 C 1.5542(5) 1.0048(4) 1.2379(5)
H51 H 1.5178 0.9690 1.1982
C76 C 1.6167(4) 0.5605(4) 0.8853(4)
C77 C 1.6132(4) 0.5163(4) 0.8091(4)
C78 C 1.6001(4) 0.7942(4) 1.1095(4)
H52 H 1.5852 0.7695 1.0598
C79 C 1.5845(5) 0.5250(5) 0.9217(5)
H53 H 1.5603 0.4741 0.8974
C80 C 1.5904(5) 0.8646(4) 1.1464(4)
H54 H 1.5659 0.8847 1.1224
C81 C 1.6389(5) 0.6435(4) 1.1452(4)
C82 C 1.6487(4) 0.8708(4) 1.2547(4)
H55 H 1.6648 0.8969 1.3043
C83 C 1.6199(4) 0.5481(4) 0.7660(4)
H56 H 1.6276 0.5998 0.7858
C84 C 1.7012(5) 0.4346(5) 1.2900(5)
H57 H 1.7387 0.4137 1.2915
C85 C 1.5948(5) 0.3952(5) 0.7049(5)
H58 H 1.5846 0.3433 0.6851
C86 C 1.5898(4) 0.5687(4) 0.9958(4)
H59 H 1.5688 0.5466 1.0206
C87 C 1.5979(5) 0.3855(6) 0.5871(5)
C88 C 1.5872(5) 0.6312(4) 1.1770(4)
H60 H 1.5493 0.6514 1.1748
C89 C 1.6948(5) 0.5686(5) 1.1836(5)
H61 H 1.7312 0.5458 1.1830
C90 C 1.5928(5) 0.4577(6) 1.3202(6)
H62 H 1.5561 0.4510 1.3414
C91 C 1.6951(5) 0.6145(4) 1.1498(4)
H63 H 1.7329 0.6246 1.1311
C92 C 1.5894(5) 0.5898(4) 1.2121(4)
H64 H 1.5534 0.5831 1.2340
C93 C 1.6015(5) 0.4388(4) 0.7763(4)
H65 H 1.5980 0.4152 0.8045
N5 N 1.6339(4) 0.6849(3) 1.1077(3)
O8 O 1.6465(3) 1.2562(3) 1.4267(3)
O9 O 1.6946(2) 0.3391(2) 1.3496(2)
O10 O 1.6176(3) 0.4190(3) 0.5525(3)
O11 O 1.5330(3) 1.2158(3) 1.3679(3)
O12 O 1.5698(4) 0.3184(4) 0.5543(3)
O13 O 1.6162(3) 0.3888(3) 1.4042(3)
Zn3 Zn 1.57720(4) 0.33341(5) 0.45233(4)
O1_2 O 0.7622(3) 0.2220(3) 0.3303(2)
O2_2 O 0.8809(3) 0.2645(3) 0.3701(3)
O4_2 O 0.8851(2) 0.4313(3) 0.3662(2)
Zn1_2 Zn 0.90931(4) 0.37072(4) 1.40987(4)
Zn1_3 Zn 0.90931(4) 1.37072(4) 1.40987(4)
Zn2_2 Zn 0.73785(4) 1.29748(4) 1.41203(4)
Zn2_3 Zn 1.73785(4) 0.29748(4) 1.41203(4)
Zn2_4 Zn 1.73785(4) 1.29748(4) 1.41203(4)
O8_2 O 0.6465(3) 0.2562(3) 0.4267(3)
O8_3 O 1.6465(3) 0.2562(3) 0.4267(3)
O9_2 O 0.6946(2) 0.3391(2) 0.3496(2)
O11_2 O 1.5330(3) 0.2158(3) 0.3679(3)
O13_2 O 1.6162(3) 0.3888(3) 0.4042(3)
Zn3_2 Zn 1.57720(4) 0.33341(5) 1.45233(4)
Zn3_3 Zn 1.57720(4) 1.33341(5) 1.45233(4)
loop_
_geom_bond_atom_site_label_1
_geom_bond_atom_site_label_2
_geom_bond_site_symmetry_1
_geom_bond_site_symmetry_2
C1 H1 1_555 1_555
C2 H2 1_555 1_555
C3 H3 1_555 1_555
C4 C1 1_555 1_555
C5 C3 1_555 1_555
H4 C5 1_555 1_555
C6 C25 1_555 1_555
C7 H5 1_555 1_555
C8 C5 1_555 1_555
C9 C7 1_555 1_555
H6 C9 1_555 1_555
C10 C8 1_555 1_555
H7 C10 1_555 1_555
C11 C1 1_555 1_555
H8 C11 1_555 1_555
C12 C16 1_555 1_555
C13 C10 1_555 1_555
H9 C13 1_555 1_555
C14 H10 1_555 1_555
C15 C19 1_555 1_555
C16 C24 1_555 1_555
C17 C18 1_555 1_555
C18 O4 1_555 1_555
C19 C39 1_555 1_555
C20 C23 1_555 1_555
C21 C17 1_555 1_555
H11 C21 1_555 1_555
C22 C17 1_555 1_555
H12 C22 1_555 1_555
C23 C21 1_555 1_555
H13 C23 1_555 1_555
C24 H14 1_555 1_555
C25 C14 1_555 1_555
C26 C14 1_555 1_555
H15 C26 1_555 1_555
C27 H16 1_555 1_555
C28 H17 1_555 1_555
C29 H18 1_555 1_555
H19 C29 1_555 1_555
H20 C29 1_555 1_555
C30 C28 1_555 1_555
C31 C25 1_555 1_555
H21 C31 1_555 1_555
C32 H22 1_555 1_555
H23 C32 1_555 1_555
H24 C32 1_555 1_555
C33 C24 1_555 1_555
H25 C33 1_555 1_555
C34 C2 1_555 1_555
H26 C34 1_555 1_555
C35 C33 1_555 1_555
C36 C35 1_555 1_555
C37 C46 1_555 1_555
C38 H27 1_555 1_555
C39 C28 1_555 1_555
H28 C39 1_555 1_555
C40 C15 1_555 1_555
H29 C40 1_555 1_555
C41 H30 1_555 1_555
C42 H31 1_555 1_555
C43 C30 1_555 1_555
H32 C43 1_555 1_555
C44 C38 1_555 1_555
C45 C35 1_555 1_555
H33 C45 1_555 1_555
C46 C27 1_555 1_555
H34 C46 1_555 1_555
C47 C19 1_555 1_555
H35 C47 1_555 1_555
C48 C20 1_555 1_555
C49 C20 1_555 1_555
H36 C49 1_555 1_555
C50 C36 1_555 1_555
H37 C50 1_555 1_555
C51 C37 1_555 1_555
H38 C51 1_555 1_555
C52 C16 1_555 1_555
H39 C52 1_555 1_555
C53 C36 1_555 1_555
H40 C53 1_555 1_555
C54 H41 1_555 1_555
N1 C29 1_555 1_555
N2 C9 1_555 1_555
N3 C11 1_555 1_555
N4 C30 1_555 1_555
O1 C12 1_555 1_555
O2 C12 1_555 1_555
O3 C6 1_555 1_555
O4 Zn1_2 1_555 1_555
O5 C6 1_555 1_555
O6 C18 1_555 1_555
O7 C54 1_555 1_555
Zn1 N3 1_555 1_555
Zn2 O5 1_555 1_555
C55 C61 1_555 1_555
C56 H42 1_555 1_555
C57 C58 1_555 1_555
C58 C84 1_555 1_555
C59 H43 1_555 1_555
C60 C63 1_555 1_555
C61 C56 1_555 1_555
C62 C69 1_555 1_555
C63 C89 1_555 1_555
C64 C70 1_555 1_555
C65 C59 1_555 1_555
H44 C65 1_555 1_555
C66 C59 1_555 1_555
C67 C71 1_555 1_555
C68 C66 1_555 1_555
C69 H45 1_555 1_555
C70 H46 1_555 1_555
C71 H47 1_555 1_555
C72 C69 1_555 1_555
H48 C72 1_555 1_555
C73 C60 1_555 1_555
H49 C73 1_555 1_555
C74 C60 1_555 1_555
H50 C74 1_555 1_555
C75 C56 1_555 1_555
H51 C75 1_555 1_555
C76 C72 1_555 1_555
C77 C76 1_555 1_555
C78 C64 1_555 1_555
H52 C78 1_555 1_555
C79 C76 1_555 1_555
H53 C79 1_555 1_555
C80 C68 1_555 1_555
H54 C80 1_555 1_555
C81 C88 1_555 1_555
C82 C68 1_555 1_555
H55 C82 1_555 1_555
C83 C71 1_555 1_555
H56 C83 1_555 1_555
C84 C73 1_555 1_555
H57 C84 1_555 1_555
C85 C67 1_555 1_555
H58 C85 1_555 1_555
C86 C62 1_555 1_555
H59 C86 1_555 1_555
C87 C67 1_555 1_555
C88 H60 1_555 1_555
C89 H61 1_555 1_555
C90 C58 1_555 1_555
H62 C90 1_555 1_555
C91 C81 1_555 1_555
H63 C91 1_555 1_555
C92 C63 1_555 1_555
H64 C92 1_555 1_555
C93 C77 1_555 1_555
H65 C93 1_555 1_555
N5 C62 1_555 1_555
O8 C55 1_555 1_555
O9 C57 1_555 1_555
O10 C87 1_555 1_555
O11 C55 1_555 1_555
O12 C87 1_555 1_555
O13 C57 1_555 1_555
Zn3 N2 1_555 1_555
O1_2 Zn2 1_555 1_555
O2_2 Zn1 1_555 1_555
O4_2 Zn1 1_555 1_555
Zn1_3 O2 1_555 1_555
Zn2_2 O1 1_555 1_555
Zn2_3 O9 1_555 1_555
Zn2_4 O8 1_555 1_555
O8_2 Zn2 1_555 1_555
O8_3 Zn3 1_555 1_555
O9_2 Zn2 1_555 1_555
O11_2 Zn3 1_555 1_555
O13_2 Zn3 1_555 1_555
Zn3_2 O13 1_555 1_555
Zn3_3 O8 1_555 1_555
C2 C4 1_555 1_555
C3 C4 1_555 1_555
C7 C8 1_555 1_555
C13 N2 1_555 1_555
C15 C26 1_555 1_555
C22 C49 1_555 1_555
C27 C48 1_555 1_555
C31 C40 1_555 1_555
C32 N1 1_555 1_555
C34 N3 1_555 1_555
C37 N4 1_555 1_555
C38 C50 1_555 1_555
C41 C44 1_555 1_555
C41 C53 1_555 1_555
C42 C48 1_555 1_555
C42 C51 1_555 1_555
C43 C47 1_555 1_555
C44 N4 1_555 1_555
C45 C52 1_555 1_555
C54 N1 1_555 1_555
O3 Zn1 1_555 1_555
O7 Zn2 1_555 1_555
C61 C65 1_555 1_555
C64 N5 1_555 1_555
C66 C75 1_555 1_555
C70 C82 1_555 1_555
C74 C90 1_555 1_555
C77 C83 1_555 1_555
C78 C80 1_555 1_555
C79 C86 1_555 1_555
C81 N5 1_555 1_555
C85 C93 1_555 1_555
C88 C92 1_555 1_555
C89 C91 1_555 1_555
O10 Zn3 1_555 1_555
O11 Zn3_3 1_555 1_555
O12 Zn3 1_555 1_555

#END
