
#######################################################################
#
#                 Cambridge Crystallographic Data Centre
#                                CCDC 
#
#######################################################################
#
# If this CIF has been generated from an entry in the Cambridge 
# Structural Database, then it will include bibliographic, chemical, 
# crystal, experimental, refinement or atomic coordinate data resulting 
# from the CCDC's data processing and validation procedures.
#
#######################################################################

data_HUQHOS
_chemical_formula_moiety         '(C91 H63 N5 O13 Zn3)n'
_symmetry_cell_setting           triclinic
_symmetry_space_group_name_H-M   'P -1'
_symmetry_Int_Tables_number      2
_space_group_name_Hall           '-P 1'
loop_
_symmetry_equiv_pos_site_id
_symmetry_equiv_pos_as_xyz
1 x,y,z
2 -x,-y,-z
_cell_length_a                   17.898(4)
_cell_length_b                   20.275(4)
_cell_length_c                   21.796(5)
_cell_angle_alpha                63.375(4)
_cell_angle_beta                 76.644(4)
_cell_angle_gamma                84.876(4)
_cell_volume                     6878.5
loop_
_atom_site_label
_atom_site_type_symbol
_atom_site_fract_x
_atom_site_fract_y
_atom_site_fract_z
C1 C 1.05389(17) 0.04147(19) 0.13588(16)
H1 H 1.0190 0.0319 0.1779
C2 C 1.28900(18) 0.1083(2) 0.09663(19)
H2 H 1.2526 0.1298 0.1198
C3 C 1.12948(17) 0.0477(2) 0.13302(16)
H3 H 1.1457 0.0436 0.1722
C4 C 1.36518(17) 0.11572(19) 0.09228(18)
H4 H 1.3798 0.1425 0.1129
C5 C 0.64044(16) -0.48961(15) 0.35980(13)
C6 C 0.63842(15) -0.33608(15) 0.28570(14)
C7 C 1.18319(16) 0.06023(16) 0.07063(15)
C8 C 0.62591(15) -0.01874(15) 0.13296(14)
C9 C 0.63704(15) -0.25502(15) 0.24576(14)
C10 C 0.56752(16) -0.80952(19) 0.91883(14)
C11 C 0.63843(16) -0.60223(16) 0.46994(13)
C12 C 1.32099(16) 0.03625(16) 0.03429(15)
H5 H 1.3077 0.0079 0.0146
C13 C 1.07842(16) 0.05959(15) 0.02071(14)
H6 H 1.0605 0.0634 -0.0175
C14 C 0.60050(16) -0.71916(15) 0.23777(14)
C15 C 0.58248(16) -0.78934(16) 0.15701(15)
C16 C 0.87774(17) 0.91781(18) -0.80518(16)
C17 C 0.67923(16) -0.13306(16) 0.21774(16)
H7 H 0.7102 -0.1033 0.2242
C18 C 0.61949(16) -0.70349(17) 0.69283(14)
C19 C 0.88056(17) 0.24966(17) -0.33106(15)
C20 C 0.57373(16) -0.82666(15) 0.11380(14)
C21 C 1.26569(15) 0.06799(16) 0.06615(14)
C22 C 0.88441(17) 0.79145(17) -0.79937(16)
H8 H 0.8864 0.8124 -0.8474
C23 C 0.63099(16) -0.60905(15) 0.36007(14)
C24 C 0.63120(15) -0.10061(14) 0.17118(14)
C25 C 1.15627(16) 0.06547(15) 0.01370(15)
H9 H 1.1902 0.0728 -0.0283
C26 C 0.61092(17) -0.68144(16) 0.28023(15)
C27 C 0.82779(17) 0.12840(15) -0.83888(15)
C28 C 0.60036(17) -0.81469(18) 0.80310(14)
H10 H 0.5987 -0.8659 0.8271
C29 C 0.84382(17) 0.09979(15) -0.03051(14)
C30 C 0.65974(16) -0.70441(16) 0.57560(14)
H11 H 0.6767 -0.7523 0.5979
C31 C 0.68226(16) -0.20869(16) 0.25486(16)
H12 H 0.7147 -0.2291 0.2863
C32 C 0.57703(17) -0.37948(16) 0.29693(16)
H13 H 0.5343 -0.3569 0.2788
C33 C 0.59020(16) -0.77214(17) 0.84020(14)
C34 C 0.57674(18) -0.45587(16) 0.33436(16)
H14 H 0.5340 -0.4838 0.3421
C35 C 0.66495(17) -0.67299(16) 0.50401(14)
H15 H 0.6862 -0.6992 0.4786
C36 C 0.59018(17) -0.22190(17) 0.19739(16)
H16 H 0.5611 -0.2513 0.1888
C37 C 0.87412(16) 0.83624(17) -0.76525(15)
C38 C 1.39671(16) 0.04658(16) 0.03154(15)
H17 H 1.4338 0.0250 0.0090
C39 C 0.92404(17) 0.15126(17) -0.15109(14)
H18 H 0.9671 0.1380 -0.1313
C40 C 0.89552(17) 0.60288(17) -0.65317(15)
C41 C 0.58438(18) -0.71230(17) 0.35247(15)
H19 H 0.5598 -0.7582 0.3752
C42 C 0.88616(16) 0.68240(17) -0.69095(15)
C43 C 0.83870(17) 0.15548(16) -0.78848(15)
C44 C 0.60968(17) -0.56268(16) 0.50869(14)
H20 H 0.5924 -0.5149 0.4865
C45 C 0.90041(18) 0.32897(17) -0.47641(14)
C46 C 0.86013(18) 0.21641(18) -0.70147(16)
C47 C 0.64443(17) -0.74127(16) 0.13477(15)
H21 H 0.6798 -0.7324 0.0931
C48 C 0.65891(17) -0.57779(15) 0.28741(14)
H22 H 0.6845 -0.5324 0.2649
C49 C 0.70301(18) -0.44834(17) 0.34950(16)
H23 H 0.7460 -0.4712 0.3669
C50 C 0.61284(17) -0.78024(17) 0.73101(15)
H24 H 0.6170 -0.8088 0.7069
C51 C 0.85264(16) 0.13298(16) -0.10850(14)
C52 C 0.60701(18) -0.59489(17) 0.58018(15)
H25 H 0.5893 -0.5674 0.6050
C53 C 0.59631(18) -0.69589(18) 0.80370(15)
H26 H 0.5890 -0.6674 0.8282
C54 C 0.62969(16) -0.66642(16) 0.61580(14)
C55 C 0.79790(17) 0.18579(18) -0.21015(15)
H27 H 0.7549 0.1964 -0.2300
C56 C 0.58628(17) -0.14647(16) 0.16222(16)
H28 H 0.5528 -0.1258 0.1318
C57 C 0.54031(18) -0.76674(19) 0.25841(16)
H29 H 0.5049 -0.7758 0.3001
C58 C 0.59329(18) -0.67687(16) 0.39161(15)
H30 H 0.5737 -0.6988 0.4399
C59 C 0.83807(19) 0.35094(18) -0.62315(15)
H31 H 0.8065 0.3900 -0.6232
C60 C 0.87131(17) 0.72764(18) -0.65584(16)
H32 H 0.8652 0.7062 -0.6073
C61 C 0.78837(17) 0.14922(18) -0.13811(16)
H33 H 0.7395 0.1356 -0.1096
C62 C 0.70125(17) -0.37296(17) 0.31330(16)
H34 H 0.7436 -0.3454 0.3069
C63 C 0.86955(17) 0.20696(17) -0.25342(15)
C64 C 0.64912(17) -0.61321(16) 0.24867(14)
H35 H 0.6684 -0.5912 0.2004
C65 C 0.78600(18) 0.20145(19) -0.70302(17)
H36 H 0.7436 0.2122 -0.6753
C66 C 0.53050(18) -0.80225(18) 0.21859(16)
H37 H 0.4890 -0.8344 0.2337
C67 C 0.83957(19) 0.23097(18) -0.36809(15)
H38 H 0.8049 0.1914 -0.3441
C68 C 0.89164(17) 0.71713(17) -0.76329(15)
H39 H 0.9005 0.6887 -0.7878
C69 C 0.61311(19) -0.66220(18) 0.73134(15)
H40 H 0.6204 -0.6113 0.7074
C70 C 0.77560(18) 0.17058(19) -0.74602(16)
H41 H 0.7263 0.1600 -0.7464
C71 C 0.7631(2) 0.25946(19) -0.04418(18)
H42 H 0.7111 0.2569 -0.0427
C72 C 0.65306(18) -0.70647(17) 0.17554(16)
H43 H 0.6945 -0.6744 0.1608
C73 C 0.89810(19) 0.33197(18) -0.58836(16)
C74 C 0.93318(17) 0.18925(18) -0.22322(15)
H44 H 0.9821 0.2030 -0.2515
C75 C 0.86564(16) 0.80299(18) -0.69225(15)
H45 H 0.8561 0.8319 -0.6682
C76 C 0.94170(19) 0.34884(18) -0.43997(16)
H46 H 0.9760 0.3887 -0.4642
C77 C 0.87175(19) 0.25490(19) -0.66020(16)
C78 C 0.84974(19) 0.27046(19) -0.44030(16)
H47 H 0.8220 0.2572 -0.4644
C79 C 0.9360(2) 0.5618(2) -0.68667(17)
H48 H 0.9595 0.5862 -0.7340
C80 C 0.9421(2) 0.48746(19) -0.65274(16)
H49 H 0.9707 0.4626 -0.6771
C81 C 0.82525(19) 0.31154(19) -0.65792(16)
H50 H 0.7841 0.3239 -0.6802
C82 C 0.90688(19) 0.44749(18) -0.58258(15)
C83 C 0.93148(18) 0.30939(18) -0.36816(16)
H51 H 0.9591 0.3229 -0.3441
C84 C 0.91197(18) 0.16739(19) -0.78493(17)
H52 H 0.9542 0.1548 -0.8113
C85 C 0.92269(19) 0.1982(2) -0.74203(18)
H53 H 0.9722 0.2067 -0.7404
C86 C 0.8627(2) 0.56271(18) -0.58232(15)
H54 H 0.8362 0.5876 -0.5572
C87 C 0.8683(2) 0.48689(18) -0.54821(15)
H55 H 0.8453 0.4620 -0.5008
C88 C 0.9442(2) 0.2738(2) -0.58890(18)
H56 H 0.9840 0.2599 -0.5649
C89 C 0.9316(2) 0.2365(2) -0.62463(19)
H57 H 0.9636 0.1980 -0.6252
C90 C 0.7736(4) 0.3511(3) -0.1646(2)
H58 H 0.8036 0.3458 -0.2048
H59 H 0.7748 0.4018 -0.1733
H60 H 0.7215 0.3359 -0.1564
C91 C 0.8871(3) 0.3086(3) -0.1117(3)
H61 H 0.9020 0.3564 -0.1191
H62 H 0.9121 0.3002 -0.1515
H63 H 0.9019 0.2714 -0.0702
N1 N 1.42019(13) 0.08577(13) 0.05923(12)
N2 N 1.02708(13) 0.04860(13) 0.08035(12)
N3 N 0.64114(14) -0.56908(12) 0.39691(11)
N4 N 0.91093(17) 0.37028(15) -0.55072(13)
N5 N 0.8052(2) 0.30548(18) -0.10337(15)
O1 O 0.76140(11) 0.11601(11) -0.83994(10)
O2 O 0.90553(11) 0.09053(11) -0.00920(10)
O3 O 0.57558(11) 0.00604(10) 0.09729(10)
O4 O 0.77831(11) 0.08351(11) 0.00812(10)
O5 O 0.67226(11) 0.01884(11) 0.14096(10)
O6 O 0.62870(11) -0.82909(10) 0.06709(10)
O7 O 0.87902(11) 0.94418(11) -0.87127(10)
O8 O 0.50999(11) -0.85451(11) 0.12334(11)
O9 O 0.57841(11) -0.87747(12) 0.95049(10)
O10 O 0.88740(11) 0.12174(12) -0.87889(11)
O11 O 0.78522(12) 0.21955(12) 0.00925(11)
O12 O 0.88394(14) 0.95708(13) -0.77672(11)
O13 O 0.53913(13) -0.77197(13) 0.95106(11)
Zn1 Zn 0.534960(17) 0.106120(17) 0.049590(15)
Zn2 Zn 0.727710(18) 0.117020(18) 0.080630(17)
Zn3 Zn 0.911410(17) 0.045800(18) 0.088970(16)
N1_2 N 0.42019(13) 0.08577(13) 0.05923(12)
O1_2 O 0.76140(11) 0.11601(11) 0.16006(10)
O6_2 O 0.62870(11) 0.17091(10) 0.06709(10)
O7_2 O 0.87902(11) -0.05582(11) 0.12873(10)
O8_2 O 0.50999(11) 0.14549(11) 0.12334(11)
O9_2 O 0.57841(11) 0.12253(12) -0.04951(10)
O10_2 O 0.88740(11) 0.12174(12) 0.12111(11)
O13_2 O 0.53913(13) 0.22803(13) -0.04894(11)
Zn1_2 Zn 0.534960(17) -0.893880(17) 0.049590(15)
Zn1_3 Zn 0.534960(17) -0.893880(17) 1.049590(15)
Zn1_4 Zn 1.534960(17) 0.106120(17) 0.049590(15)
Zn2_2 Zn 0.727710(18) -0.882980(18) 0.080630(17)
Zn2_3 Zn 0.727710(18) 0.117020(18) -0.919370(17)
Zn3_2 Zn 0.911410(17) 0.045800(18) -0.911030(16)
Zn3_3 Zn 0.911410(17) 1.045800(18) -0.911030(16)
loop_
_geom_bond_atom_site_label_1
_geom_bond_atom_site_label_2
_geom_bond_site_symmetry_1
_geom_bond_site_symmetry_2
C1 H1 1_555 1_555
C2 H2 1_555 1_555
C3 C1 1_555 1_555
H3 C3 1_555 1_555
C4 C2 1_555 1_555
H4 C4 1_555 1_555
C5 C34 1_555 1_555
C6 C9 1_555 1_555
C7 C3 1_555 1_555
C8 C24 1_555 1_555
C9 C31 1_555 1_555
C10 C33 1_555 1_555
C11 C35 1_555 1_555
C12 H5 1_555 1_555
C13 H6 1_555 1_555
C14 C26 1_555 1_555
C15 C20 1_555 1_555
C16 C37 1_555 1_555
C17 H7 1_555 1_555
C18 C50 1_555 1_555
C19 C63 1_555 1_555
C20 O6 1_555 1_555
C21 C2 1_555 1_555
C22 H8 1_555 1_555
C23 C48 1_555 1_555
C24 C17 1_555 1_555
C25 C7 1_555 1_555
H9 C25 1_555 1_555
C26 C41 1_555 1_555
C27 C43 1_555 1_555
C28 H10 1_555 1_555
C29 C51 1_555 1_555
C30 H11 1_555 1_555
C31 C17 1_555 1_555
H12 C31 1_555 1_555
C32 C6 1_555 1_555
H13 C32 1_555 1_555
C33 C28 1_555 1_555
C34 C32 1_555 1_555
H14 C34 1_555 1_555
C35 C30 1_555 1_555
H15 C35 1_555 1_555
C36 C9 1_555 1_555
H16 C36 1_555 1_555
C37 C22 1_555 1_555
C38 C12 1_555 1_555
H17 C38 1_555 1_555
C39 H18 1_555 1_555
C40 C42 1_555 1_555
C41 H19 1_555 1_555
C42 C60 1_555 1_555
C43 C70 1_555 1_555
C44 C11 1_555 1_555
H20 C44 1_555 1_555
C45 C76 1_555 1_555
C46 C65 1_555 1_555
C47 C15 1_555 1_555
H21 C47 1_555 1_555
C48 H22 1_555 1_555
C49 C5 1_555 1_555
H23 C49 1_555 1_555
C50 C28 1_555 1_555
H24 C50 1_555 1_555
C51 C39 1_555 1_555
C52 C44 1_555 1_555
H25 C52 1_555 1_555
C53 C33 1_555 1_555
H26 C53 1_555 1_555
C54 C18 1_555 1_555
C55 H27 1_555 1_555
C56 C24 1_555 1_555
H28 C56 1_555 1_555
C57 C14 1_555 1_555
H29 C57 1_555 1_555
C58 C23 1_555 1_555
H30 C58 1_555 1_555
C59 H31 1_555 1_555
C60 H32 1_555 1_555
C61 C51 1_555 1_555
H33 C61 1_555 1_555
C62 C6 1_555 1_555
H34 C62 1_555 1_555
C63 C55 1_555 1_555
C64 C26 1_555 1_555
H35 C64 1_555 1_555
C65 H36 1_555 1_555
C66 C15 1_555 1_555
H37 C66 1_555 1_555
C67 C19 1_555 1_555
H38 C67 1_555 1_555
C68 C22 1_555 1_555
H39 C68 1_555 1_555
C69 C18 1_555 1_555
H40 C69 1_555 1_555
C70 C65 1_555 1_555
H41 C70 1_555 1_555
C71 H42 1_555 1_555
C72 C14 1_555 1_555
H43 C72 1_555 1_555
C73 C59 1_555 1_555
C74 C39 1_555 1_555
H44 C74 1_555 1_555
C75 C37 1_555 1_555
H45 C75 1_555 1_555
C76 H46 1_555 1_555
C77 C46 1_555 1_555
C78 C45 1_555 1_555
H47 C78 1_555 1_555
C79 C40 1_555 1_555
H48 C79 1_555 1_555
C80 C79 1_555 1_555
H49 C80 1_555 1_555
C81 C59 1_555 1_555
H50 C81 1_555 1_555
C82 C80 1_555 1_555
C83 C19 1_555 1_555
H51 C83 1_555 1_555
C84 C43 1_555 1_555
H52 C84 1_555 1_555
C85 C46 1_555 1_555
H53 C85 1_555 1_555
C86 C40 1_555 1_555
H54 C86 1_555 1_555
C87 C82 1_555 1_555
H55 C87 1_555 1_555
C88 C73 1_555 1_555
H56 C88 1_555 1_555
C89 C77 1_555 1_555
H57 C89 1_555 1_555
C90 H58 1_555 1_555
H59 C90 1_555 1_555
H60 C90 1_555 1_555
C91 H61 1_555 1_555
H62 C91 1_555 1_555
H63 C91 1_555 1_555
N1 C4 1_555 1_555
N2 C1 1_555 1_555
N3 C5 1_555 1_555
N4 C45 1_555 1_555
N5 C71 1_555 1_555
O1 C27 1_555 1_555
O2 C29 1_555 1_555
O3 C8 1_555 1_555
O4 C29 1_555 1_555
O5 C8 1_555 1_555
O6 Zn1_2 1_555 1_555
O7 C16 1_555 1_555
O8 C20 1_555 1_555
O9 C10 1_555 1_555
O10 C27 1_555 1_555
O11 C71 1_555 1_555
O12 C16 1_555 1_555
O13 C10 1_555 1_555
Zn1 O3 1_555 1_555
Zn2 O4 1_555 1_555
Zn3 N2 1_555 1_555
N1_2 Zn1 1_555 1_555
O1_2 Zn2 1_555 1_555
O6_2 Zn1 1_555 1_555
O7_2 Zn3 1_555 1_555
O8_2 Zn1 1_555 1_555
O9_2 Zn1 1_555 1_555
O10_2 Zn3 1_555 1_555
O13_2 Zn1 1_555 1_555
Zn1_2 O8 1_555 1_555
Zn1_3 O9 1_555 1_555
Zn1_4 N1 1_555 1_555
Zn2_2 O6 1_555 1_555
Zn2_3 O1 1_555 1_555
Zn3_2 O10 1_555 1_555
Zn3_3 O7 1_555 1_555
C7 C21 1_555 1_555
C11 N3 1_555 1_555
C12 C21 1_555 1_555
C13 C25 1_555 1_555
C13 N2 1_555 1_555
C23 N3 1_555 1_555
C30 C54 1_555 1_555
C36 C56 1_555 1_555
C38 N1 1_555 1_555
C41 C58 1_555 1_555
C42 C68 1_555 1_555
C47 C72 1_555 1_555
C48 C64 1_555 1_555
C49 C62 1_555 1_555
C52 C54 1_555 1_555
C53 C69 1_555 1_555
C55 C61 1_555 1_555
C57 C66 1_555 1_555
C60 C75 1_555 1_555
C63 C74 1_555 1_555
C67 C78 1_555 1_555
C73 N4 1_555 1_555
C76 C83 1_555 1_555
C77 C81 1_555 1_555
C82 N4 1_555 1_555
C84 C85 1_555 1_555
C86 C87 1_555 1_555
C88 C89 1_555 1_555
C90 N5 1_555 1_555
C91 N5 1_555 1_555
O2 Zn3 1_555 1_555
O5 Zn2 1_555 1_555
O11 Zn2 1_555 1_555
O13 Zn1_3 1_555 1_555
Zn2 O6_2 1_555 1_555

#END
