
#######################################################################
#
#                 Cambridge Crystallographic Data Centre
#                                CCDC 
#
#######################################################################
#
# If this CIF has been generated from an entry in the Cambridge 
# Structural Database, then it will include bibliographic, chemical, 
# crystal, experimental, refinement or atomic coordinate data resulting 
# from the CCDC's data processing and validation procedures.
#
#######################################################################

data_HUQJAG
_chemical_formula_moiety         '(C192 H124 N14 O24 Zn6)n'
_symmetry_cell_setting           monoclinic
_symmetry_space_group_name_H-M   'C 2/c'
_symmetry_Int_Tables_number      15
_space_group_name_Hall           '-C 2yc'
loop_
_symmetry_equiv_pos_site_id
_symmetry_equiv_pos_as_xyz
1 x,y,z
2 -x,y,1/2-z
3 1/2+x,1/2+y,z
4 1/2-x,1/2+y,1/2-z
5 -x,-y,-z
6 x,-y,1/2+z
7 1/2-x,1/2-y,-z
8 1/2+x,1/2-y,1/2+z
_cell_length_a                   37.106(14)
_cell_length_b                   21.340(6)
_cell_length_c                   40.018(14)
_cell_angle_alpha                90
_cell_angle_beta                 111.145(14)
_cell_angle_gamma                90
_cell_volume                     29554.4
loop_
_atom_site_label
_atom_site_type_symbol
_atom_site_fract_x
_atom_site_fract_y
_atom_site_fract_z
C1 C 0.9699(3) 0.8171(3) 0.20448(19)
H1 H 0.9617 0.8234 0.2236
C2 C 1.30648(13) 0.5274(2) 0.16488(15)
C3 C 0.94614(13) 0.9242(2) 0.18205(16)
C4 C 1.01839(15) 0.6884(3) 0.17232(15)
C5 C 0.94667(16) 0.1181(2) 0.17984(19)
C6 C 0.96239(14) 0.8619(2) 0.17804(13)
C7 C 0.99743(15) 0.7463(2) 0.17308(15)
C8 C 1.34850(15) 0.5212(2) 0.16745(16)
C9 C 1.27664(14) 0.5032(2) 0.13667(15)
H2 H 1.2810 0.4860 0.1171
C10 C 1.06046(16) 0.5787(3) 0.17209(18)
C11 C 1.24004(14) 0.5046(2) 0.13764(16)
H3 H 1.2198 0.4892 0.1180
C12 C 1.11851(15) 0.5249(2) 0.17015(17)
C13 C 1.29859(15) 0.5539(3) 0.19283(15)
H4 H 1.3184 0.5711 0.2122
C14 C 1.19171(14) 0.5267(2) 0.16653(15)
C15 C 0.96541(14) 0.0096(3) 0.29412(16)
H5 H 0.9853 -0.0082 0.2883
C16 C 1.16793(14) 0.4778(3) 0.15338(16)
H6 H 1.1766 0.4446 0.1432
C17 C 1.02358(14) 0.3519(2) 0.17579(17)
C18 C 0.96598(15) 0.1788(2) 0.17968(17)
C19 C 1.00409(15) 0.2927(3) 0.17864(18)
C20 C 1.05902(15) 0.6262(3) 0.14971(17)
H7 H 1.0723 0.6222 0.1341
C21 C 1.00128(15) 0.1907(2) 0.20513(16)
H8 H 1.0130 0.1616 0.2231
C22 C 1.23190(14) 0.5272(2) 0.16561(16)
C23 C 1.06126(15) 0.4646(2) 0.17150(19)
C24 C 0.97004(14) 0.0124(3) 0.32901(15)
H9 H 0.9924 -0.0028 0.3466
C25 C 1.08146(15) 0.4156(3) 0.1942(2)
H10 H 1.1075 0.4200 0.2082
C26 C 1.06168(16) 0.3601(3) 0.19530(18)
H11 H 1.0752 0.3276 0.2100
C27 C 0.47053(17) -0.3908(4) 0.0714(2)
C28 C 1.14246(16) 0.5740(3) 0.1838(2)
H12 H 1.1344 0.6066 0.1949
C29 C 0.94908(15) 0.2229(3) 0.15379(19)
H13 H 0.9250 0.2141 0.1365
C30 C 1.26114(17) 0.5548(3) 0.19192(17)
H14 H 1.2559 0.5752 0.2102
C31 C 1.01969(16) 0.2476(3) 0.20386(17)
H15 H 1.0439 0.2550 0.2212
C32 C 1.17895(15) 0.5761(3) 0.18140(17)
H16 H 1.1947 0.6109 0.1899
C33 C 0.94079(15) 0.0383(3) 0.33783(16)
C34 C 0.77783(14) 0.2065(3) 0.01956(16)
C35 C 1.02344(16) 0.4570(3) 0.15256(19)
H17 H 1.0093 0.4893 0.1381
C36 C 1.03976(18) 0.5842(2) 0.19448(19)
H18 H 1.0396 0.5513 0.2097
C37 C 1.01942(18) 0.6377(3) 0.19445(19)
H19 H 1.0057 0.6402 0.2098
C38 C 0.74429(17) 0.1865(3) -0.00779(17)
H20 H 0.7401 0.1440 -0.0130
C39 C 0.82351(15) 0.0599(3) 0.06824(15)
H21 H 0.8156 0.0202 0.0724
C40 C 1.03848(14) 0.6814(3) 0.14881(15)
H22 H 1.0381 0.7132 0.1328
C41 C 0.79712(15) 0.1006(2) 0.04814(16)
H23 H 0.7715 0.0878 0.0385
C42 C 0.80635(16) 0.1616(3) 0.04096(16)
C43 C 0.96597(16) 0.2786(3) 0.1524(2)
H24 H 0.9533 0.3077 0.1348
C44 C 1.13141(15) 0.4750(2) 0.15439(17)
H25 H 1.1155 0.4408 0.1448
C45 C 0.87133(16) 0.1314(3) 0.07566(17)
H26 H 0.8973 0.1423 0.0853
C46 C 0.69309(19) -0.1286(4) 0.0703(2)
H27 H 0.7095 -0.1599 0.0835
C47 C 0.96754(17) 0.8456(3) 0.14774(16)
H28 H 0.9597 0.8727 0.1282
C48 C 1.00539(15) 0.4007(2) 0.15460(19)
H29 H 0.9794 0.3962 0.1406
C49 C 0.8206(3) -0.0927(3) 0.0528(2)
C50 C 0.59053(18) 0.1049(4) 0.07146(19)
H30 H 0.6073 0.1381 0.0811
C51 C 0.84556(15) 0.1754(3) 0.05490(17)
H31 H 0.8544 0.2141 0.0503
C52 C 0.5024(2) 0.2959(4) 0.05769(15)
C53 C 0.7930(2) -0.0867(4) 0.0207(3)
H32 H 0.7986 -0.0833 -0.0001
C54 C 0.4856(2) 0.3601(5) 0.05615(18)
C55 C 0.9902(3) 0.7610(3) 0.2025(2)
H33 H 0.9985 0.7342 0.2222
C56 C 0.98444(18) 0.7887(3) 0.14531(16)
H34 H 0.9872 0.7786 0.1237
C57 C 0.9085(2) 0.0614(4) 0.31208(18)
H35 H 0.8883 0.0789 0.3176
C58 C 0.94764(18) 0.0306(4) 0.44240(19)
H36 H 0.9639 0.0030 0.4366
C59 C 0.4811(2) 0.2443(4) 0.05581(17)
H37 H 0.4557 0.2485 0.0546
C60 C 0.51336(19) -0.2835(4) 0.06781(19)
C61 C 0.8636(2) -0.0790(3) 0.0585(3)
C62 C 0.55357(19) -0.2225(4) 0.04091(19)
H38 H 0.5524 -0.2568 0.0262
C63 C 0.5341(2) 0.1762(5) 0.05612(19)
C64 C 0.44833(18) -0.4489(4) 0.0719(2)
C65 C 0.7458(2) -0.0993(4) 0.0472(3)
C66 C 0.5507(2) 0.1142(4) 0.0570(2)
C67 C 0.47392(17) -0.3722(3) 0.03915(17)
H39 H 0.4617 -0.3955 0.0185
C68 C 0.65678(19) -0.1207(4) 0.0733(2)
H40 H 0.6492 -0.1465 0.0883
C69 C 0.60448(18) 0.0439(4) 0.07106(18)
H41 H 0.6310 0.0372 0.0808
C70 C 0.6323(2) -0.0740(4) 0.0535(2)
C71 C 0.94683(18) 0.0316(3) 0.47770(18)
H42 H 0.9632 0.0052 0.4951
C72 C 0.7754(2) -0.1170(3) 0.0809(3)
H43 H 0.7690 -0.1308 0.1001
C73 C 0.53499(18) -0.2278(5) 0.0659(2)
C74 C 0.58067(19) -0.0069(5) 0.0569(2)
C75 C 0.51057(18) -0.3030(4) 0.10038(18)
H44 H 0.5241 -0.2808 0.1211
C76 C 0.6435(2) -0.0391(4) 0.0309(2)
H45 H 0.6267 -0.0088 0.0169
C77 C 0.48904(18) -0.3527(4) 0.1027(2)
H46 H 0.4862 -0.3623 0.1242
C78 C 0.49463(18) -0.3212(4) 0.03746(19)
H47 H 0.4967 -0.3106 0.0157
C79 C 0.9073(2) 0.0572(4) 0.27643(19)
H48 H 0.8862 0.0740 0.2582
C80 C 0.90058(19) 0.1103(4) 0.42705(18)
H49 H 0.8838 0.1375 0.4105
C81 C 0.78270(16) 0.2697(3) 0.02703(16)
H50 H 0.8048 0.2833 0.0455
C82 C 0.55637(18) -0.1274(5) 0.0840(2)
H51 H 0.5577 -0.0943 0.0995
C83 C 0.8136(2) -0.1125(3) 0.0835(2)
H52 H 0.8338 -0.1221 0.1047
C84 C 0.5420(2) 0.0061(5) 0.0421(2)
H53 H 0.5255 -0.0268 0.0310
C85 C 0.5547(2) 0.2290(5) 0.05832(18)
H54 H 0.5803 0.2250 0.0601
C86 C 0.7045(2) -0.0921(5) 0.0489(3)
C87 C 0.57226(18) -0.1731(4) 0.0368(2)
H55 H 0.5833 -0.1723 0.0193
C88 C 0.92443(18) 0.0702(4) 0.41734(19)
C89 C 0.57565(19) -0.1188(5) 0.0602(2)
C90 C 0.5258(2) 0.0621(5) 0.0422(2)
H56 H 0.4992 0.0670 0.0329
C91 C 0.5365(2) -0.1765(5) 0.0873(2)
H57 H 0.5239 -0.1766 0.1036
C92 C 0.9026(2) 0.1084(3) 0.4615(2)
H58 H 0.8879 0.1377 0.4682
C93 C 0.6792(3) -0.0470(5) 0.0280(2)
H59 H 0.6862 -0.0225 0.0121
C94 C 0.54004(18) 0.2903(4) 0.05812(16)
H60 H 0.5549 0.3255 0.0583
C95 C 0.7530(3) -0.0856(5) 0.0200(3)
H61 H 0.7330 -0.0745 -0.0010
C96 C 0.49648(18) 0.1829(4) 0.05560(17)
H62 H 0.4815 0.1477 0.0551
N1 N 1.07999(12) 0.52204(19) 0.17123(15)
N2 N 0.93531(12) 0.03001(18) 0.26776(12)
N3 N 0.86150(12) 0.0752(2) 0.08263(12)
N4 N 0.92187(13) 0.0730(3) 0.38138(14)
N5 N 0.94522(13) 0.0387(3) 0.37530(13)
N6 N 0.59653(15) -0.0643(4) 0.05645(17)
N7 N 0.92319(14) 0.0695(3) 0.48639(14)
O1 O 1.37273(9) 0.53764(16) 0.19663(10)
O2 O 0.95935(9) 0.08722(17) 0.20870(11)
O3 O 0.93957(9) 0.96174(14) 0.15789(9)
O4 O 0.43519(15) -0.4814(2) 0.04503(16)
O5 O 1.35482(9) 0.50169(14) 0.14083(9)
O6 O 0.94241(11) 0.93308(16) 0.21144(10)
O7 O 0.44510(10) -0.4610(2) 0.10320(11)
O8 O 0.91876(10) 0.10154(15) 0.15291(11)
O9 O 0.86862(11) -0.08777(19) 0.02845(11)
O10 O 0.45198(13) 0.3604(2) 0.05910(11)
O11 O 0.88582(12) -0.06458(19) 0.08934(14)
O12 O 0.50269(15) 0.4069(3) 0.05083(14)
Zn1 Zn 0.927230(15) 0.01996(3) 0.214770(16)
Zn2 Zn 0.900560(15) 0.01664(3) 0.120930(16)
Zn3 Zn 0.92277(2) -0.06612(4) 0.03796(2)
C34F C 0.72217(14) 0.2935(3) -0.01956(16)
C38F C 0.75571(17) 0.3135(3) 0.00779(17)
H20F H 0.7599 0.3560 0.0130
C39F C 0.67649(15) 0.4401(3) -0.06824(15)
H21F H 0.6844 0.4798 -0.0724
C41F C 0.70288(15) 0.3994(2) -0.04814(16)
H23F H 0.7285 0.4122 -0.0385
C42F C 0.69365(16) 0.3384(3) -0.04096(16)
C45F C 0.62867(16) 0.3686(3) -0.07566(17)
H26F H 0.6027 0.3577 -0.0853
C51F C 0.65444(15) 0.3246(3) -0.05490(17)
H31F H 0.6456 0.2859 -0.0503
C81F C 0.71730(16) 0.2303(3) -0.02703(16)
H50F H 0.6952 0.2167 -0.0455
N3F N 0.63850(12) 0.4248(2) -0.08263(12)
C1F C 0.5301(3) -0.3171(3) -0.20448(19)
H1F H 0.5383 -0.3234 -0.2236
C2F C 0.19352(13) -0.0274(2) -0.16488(15)
C3F C 0.55386(13) -0.4242(2) -0.18205(16)
C4F C 0.48161(15) -0.1884(3) -0.17232(15)
C5F C 0.55333(16) 0.3819(2) -0.17984(19)
C6F C 0.53761(14) -0.3619(2) -0.17804(13)
C7F C 0.50257(15) -0.2463(2) -0.17308(15)
C8F C 0.15150(15) -0.0212(2) -0.16745(16)
C9F C 0.22336(14) -0.0032(2) -0.13667(15)
H2F H 0.2190 0.0140 -0.1171
C10F C 0.43954(16) -0.0787(3) -0.17209(18)
C11F C 0.25996(14) -0.0046(2) -0.13764(16)
H3F H 0.2802 0.0108 -0.1180
C12F C 0.38149(15) -0.0249(2) -0.17015(17)
C13F C 0.20141(15) -0.0539(3) -0.19283(15)
H4F H 0.1816 -0.0711 -0.2122
C14F C 0.30829(14) -0.0267(2) -0.16653(15)
C15F C 0.53459(14) 0.4904(3) -0.29412(16)
H5F H 0.5147 0.5082 -0.2883
C16F C 0.33207(14) 0.0222(3) -0.15338(16)
H6F H 0.3234 0.0554 -0.1432
C17F C 0.47642(14) 0.1481(2) -0.17579(17)
C18F C 0.53402(15) 0.3212(2) -0.17968(17)
C19F C 0.49591(15) 0.2073(3) -0.17864(18)
C20F C 0.44098(15) -0.1262(3) -0.14971(17)
H7F H 0.4277 -0.1222 -0.1341
C21F C 0.49872(15) 0.3093(2) -0.20513(16)
H8F H 0.4870 0.3384 -0.2231
C22F C 0.26810(14) -0.0272(2) -0.16561(16)
C23F C 0.43874(15) 0.0354(2) -0.17150(19)
C24F C 0.52996(14) 0.4876(3) -0.32901(15)
H9F H 0.5076 0.5028 -0.3466
C25F C 0.41854(15) 0.0844(3) -0.1942(2)
H10F H 0.3925 0.0800 -0.2082
C26F C 0.43832(16) 0.1399(3) -0.19530(18)
H11F H 0.4248 0.1724 -0.2100
C27F C 1.02947(17) 0.8908(4) -0.0714(2)
C28F C 0.35754(16) -0.0740(3) -0.1838(2)
H12F H 0.3656 -0.1066 -0.1949
C29F C 0.55092(15) 0.2771(3) -0.15379(19)
H13F H 0.5750 0.2859 -0.1365
C30F C 0.23886(17) -0.0548(3) -0.19192(17)
H14F H 0.2441 -0.0752 -0.2102
C31F C 0.48031(16) 0.2524(3) -0.20386(17)
H15F H 0.4561 0.2450 -0.2212
C32F C 0.32105(15) -0.0761(3) -0.18140(17)
H16F H 0.3053 -0.1109 -0.1899
C33F C 0.55921(15) 0.4617(3) -0.33783(16)
C35F C 0.47656(16) 0.0430(3) -0.15256(19)
H17F H 0.4907 0.0107 -0.1381
C36F C 0.46024(18) -0.0842(2) -0.19448(19)
H18F H 0.4604 -0.0513 -0.2097
C37F C 0.48058(18) -0.1377(3) -0.19445(19)
H19F H 0.4943 -0.1402 -0.2098
C40F C 0.46152(14) -0.1814(3) -0.14881(15)
H22F H 0.4619 -0.2132 -0.1328
C43F C 0.53403(16) 0.2214(3) -0.1524(2)
H24F H 0.5467 0.1923 -0.1348
C44F C 0.36859(15) 0.0250(2) -0.15439(17)
H25F H 0.3845 0.0592 -0.1448
C46F C 0.80691(19) 0.6286(4) -0.0703(2)
H27F H 0.7905 0.6599 -0.0835
C47F C 0.53246(17) -0.3456(3) -0.14774(16)
H28F H 0.5403 -0.3727 -0.1282
C48F C 0.49461(15) 0.0993(2) -0.15460(19)
H29F H 0.5206 0.1038 -0.1406
C49F C 0.6794(3) 0.5927(3) -0.0528(2)
C50F C 0.90947(18) 0.3951(4) -0.07146(19)
H30F H 0.8927 0.3619 -0.0811
C52F C 0.9976(2) 0.2041(4) -0.05769(15)
C53F C 0.7070(2) 0.5867(4) -0.0207(3)
H32F H 0.7014 0.5833 0.0001
C54F C 1.0144(2) 0.1399(5) -0.05615(18)
C55F C 0.5098(3) -0.2610(3) -0.2025(2)
H33F H 0.5015 -0.2342 -0.2222
C56F C 0.51556(18) -0.2887(3) -0.14531(16)
H34F H 0.5128 -0.2786 -0.1237
C57F C 0.5915(2) 0.4386(4) -0.31208(18)
H35F H 0.6117 0.4211 -0.3176
C58F C 0.55236(18) 0.4694(4) -0.44240(19)
H36F H 0.5361 0.4970 -0.4366
C59F C 1.0189(2) 0.2557(4) -0.05581(17)
H37F H 1.0443 0.2515 -0.0546
C60F C 0.98664(19) 0.7835(4) -0.06781(19)
C61F C 0.6364(2) 0.5790(3) -0.0585(3)
C62F C 0.94643(19) 0.7225(4) -0.04091(19)
H38F H 0.9476 0.7568 -0.0262
C63F C 0.9659(2) 0.3238(5) -0.05612(19)
C64F C 1.05167(18) 0.9489(4) -0.0719(2)
C65F C 0.7542(2) 0.5993(4) -0.0472(3)
C66F C 0.9493(2) 0.3858(4) -0.0570(2)
C67F C 1.02608(17) 0.8722(3) -0.03915(17)
H39F H 1.0383 0.8955 -0.0185
C68F C 0.84322(19) 0.6207(4) -0.0733(2)
H40F H 0.8508 0.6465 -0.0883
C69F C 0.89552(18) 0.4561(4) -0.07106(18)
H41F H 0.8690 0.4628 -0.0808
C70F C 0.8677(2) 0.5740(4) -0.0535(2)
C71F C 0.55317(18) 0.4684(3) -0.47770(18)
H42F H 0.5368 0.4948 -0.4951
C72F C 0.7246(2) 0.6170(3) -0.0809(3)
H43F H 0.7310 0.6308 -0.1001
C73F C 0.96501(18) 0.7278(5) -0.0659(2)
C74F C 0.91933(19) 0.5069(5) -0.0569(2)
C75F C 0.98943(18) 0.8030(4) -0.10038(18)
H44F H 0.9759 0.7808 -0.1211
C76F C 0.8565(2) 0.5391(4) -0.0309(2)
H45F H 0.8733 0.5088 -0.0169
C77F C 1.01096(18) 0.8527(4) -0.1027(2)
H46F H 1.0138 0.8623 -0.1242
C78F C 1.00537(18) 0.8212(4) -0.03746(19)
H47F H 1.0033 0.8106 -0.0157
C79F C 0.5927(2) 0.4428(4) -0.27643(19)
H48F H 0.6138 0.4260 -0.2582
C80F C 0.59942(19) 0.3897(4) -0.42705(18)
H49F H 0.6162 0.3625 -0.4105
C82F C 0.94363(18) 0.6274(5) -0.0840(2)
H51F H 0.9423 0.5943 -0.0995
C83F C 0.6864(2) 0.6125(3) -0.0835(2)
H52F H 0.6662 0.6221 -0.1047
C84F C 0.9580(2) 0.4939(5) -0.0421(2)
H53F H 0.9745 0.5268 -0.0310
C85F C 0.9453(2) 0.2710(5) -0.05832(18)
H54F H 0.9197 0.2750 -0.0601
C86F C 0.7955(2) 0.5921(5) -0.0489(3)
C87F C 0.92774(18) 0.6731(4) -0.0368(2)
H55F H 0.9167 0.6723 -0.0193
C88F C 0.57557(18) 0.4298(4) -0.41734(19)
C89F C 0.92435(19) 0.6188(5) -0.0602(2)
C90F C 0.9742(2) 0.4379(5) -0.0422(2)
H56F H 1.0008 0.4330 -0.0329
C91F C 0.9635(2) 0.6765(5) -0.0873(2)
H57F H 0.9761 0.6766 -0.1036
C92F C 0.5974(2) 0.3916(3) -0.4615(2)
H58F H 0.6121 0.3623 -0.4682
C93F C 0.8208(3) 0.5470(5) -0.0280(2)
H59F H 0.8138 0.5225 -0.0121
C94F C 0.95996(18) 0.2097(4) -0.05812(16)
H60F H 0.9451 0.1745 -0.0583
C95F C 0.7470(3) 0.5856(5) -0.0200(3)
H61F H 0.7670 0.5745 0.0010
C96F C 1.00352(18) 0.3171(4) -0.05560(17)
H62F H 1.0185 0.3523 -0.0551
N1F N 0.42001(12) -0.02204(19) -0.17123(15)
N2F N 0.56469(12) 0.46999(18) -0.26776(12)
N4F N 0.57813(13) 0.4270(3) -0.38138(14)
N5F N 0.55478(13) 0.4613(3) -0.37530(13)
N6F N 0.90347(15) 0.5643(4) -0.05645(17)
N7F N 0.57681(14) 0.4305(3) -0.48639(14)
O1F O 0.12727(9) -0.03764(16) -0.19663(10)
O2F O 0.54065(9) 0.41278(17) -0.20870(11)
O3F O 0.56043(9) -0.46174(14) -0.15789(9)
O4F O 1.06481(15) 0.9814(2) -0.04503(16)
O5F O 0.14518(9) -0.00169(14) -0.14083(9)
O6F O 0.55759(11) -0.43308(16) -0.21144(10)
O7F O 1.05490(10) 0.9610(2) -0.10320(11)
O8F O 0.58124(10) 0.39846(15) -0.15291(11)
O9F O 0.63138(11) 0.58777(19) -0.02845(11)
O10F O 1.04802(13) 0.1396(2) -0.05910(11)
O11F O 0.61418(12) 0.56458(19) -0.08934(14)
O12F O 0.99731(15) 0.0931(3) -0.05083(14)
Zn1F Zn 0.572770(15) 0.48004(3) -0.214770(16)
Zn2F Zn 0.599440(15) 0.48336(3) -0.120930(16)
Zn3F Zn 0.57723(2) 0.56612(4) -0.03796(2)
N7C N 0.57681(14) 0.5695(3) 0.01361(14)
N7E N 0.92319(14) -0.0695(3) -0.01361(14)
O1B O 0.87273(9) 0.03764(16) 0.19663(10)
O1D O 0.62727(9) 0.46236(16) -0.19663(10)
O3_2 O 0.93957(9) -0.03826(14) 0.15789(9)
O3F_2 O 0.56043(9) 0.53826(14) -0.15789(9)
O4B O 0.93519(15) 0.0186(2) 0.04503(16)
O4D O 0.56481(15) 0.4814(2) -0.04503(16)
O5B O 0.85482(9) 0.00169(14) 0.14083(9)
O5D O 0.64518(9) 0.49831(14) -0.14083(9)
O6_2 O 0.94241(11) -0.06692(16) 0.21144(10)
O6F_2 O 0.55759(11) 0.56692(16) -0.21144(10)
O7B O 0.94510(10) 0.0390(2) 0.10320(11)
O7D O 0.55490(10) 0.4610(2) -0.10320(11)
O10B O 0.95198(13) -0.1396(2) 0.05910(11)
O10D O 0.54802(13) 0.6396(2) -0.05910(11)
Zn1_2 Zn 0.927230(15) 1.01996(3) 0.214770(16)
Zn1B Zn 1.427230(15) 0.51996(3) 0.214770(16)
Zn1D Zn 0.072770(15) -0.01996(3) -0.214770(16)
Zn1F_2 Zn 0.572770(15) -0.51996(3) -0.214770(16)
Zn2_2 Zn 0.900560(15) 1.01664(3) 0.120930(16)
Zn2B Zn 0.400560(15) -0.48336(3) 0.120930(16)
Zn2B_2 Zn 1.400560(15) 0.51664(3) 0.120930(16)
Zn2D Zn 0.099440(15) -0.01664(3) -0.120930(16)
Zn2D_2 Zn 1.099440(15) 0.98336(3) -0.120930(16)
Zn2F_2 Zn 0.599440(15) -0.51664(3) -0.120930(16)
Zn3B Zn 0.42277(2) -0.56612(4) 0.03796(2)
Zn3B_2 Zn 0.42277(2) 0.43388(4) 0.03796(2)
Zn3C Zn 0.57723(2) 0.43388(4) -0.53796(2)
Zn3D Zn 1.07723(2) 0.06612(4) -0.03796(2)
Zn3D_2 Zn 1.07723(2) 1.06612(4) -0.03796(2)
Zn3E Zn 0.92277(2) 0.06612(4) 0.53796(2)
loop_
_geom_bond_atom_site_label_1
_geom_bond_atom_site_label_2
_geom_bond_site_symmetry_1
_geom_bond_site_symmetry_2
C1 H1 1_555 1_555
C2 C8 1_555 1_555
C3 C6 1_555 1_555
C4 C7 1_555 1_555
C5 C18 1_555 1_555
C6 C1 1_555 1_555
C7 C55 1_555 1_555
C8 O1 1_555 1_555
C9 C2 1_555 1_555
H2 C9 1_555 1_555
C10 C20 1_555 1_555
C11 C9 1_555 1_555
H3 C11 1_555 1_555
C12 C28 1_555 1_555
C13 C2 1_555 1_555
H4 C13 1_555 1_555
C14 C16 1_555 1_555
C15 H5 1_555 1_555
C16 H6 1_555 1_555
C17 C19 1_555 1_555
C18 C21 1_555 1_555
C19 C31 1_555 1_555
C20 H7 1_555 1_555
C21 H8 1_555 1_555
C22 C11 1_555 1_555
C23 C25 1_555 1_555
C24 C15 1_555 1_555
H9 C24 1_555 1_555
C25 H10 1_555 1_555
C26 C17 1_555 1_555
H11 C26 1_555 1_555
C27 C64 1_555 1_555
C28 H12 1_555 1_555
C29 C18 1_555 1_555
H13 C29 1_555 1_555
C30 C13 1_555 1_555
H14 C30 1_555 1_555
C31 C21 1_555 1_555
H15 C31 1_555 1_555
C32 C14 1_555 1_555
H16 C32 1_555 1_555
C33 C24 1_555 1_555
C34 C38 1_555 1_555
C35 C23 1_555 1_555
H17 C35 1_555 1_555
C36 C10 1_555 1_555
H18 C36 1_555 1_555
C37 C4 1_555 1_555
H19 C37 1_555 1_555
C38 H20 1_555 1_555
C39 H21 1_555 1_555
C40 C4 1_555 1_555
H22 C40 1_555 1_555
C41 C39 1_555 1_555
H23 C41 1_555 1_555
C42 C34 1_555 1_555
C43 C19 1_555 1_555
H24 C43 1_555 1_555
C44 C12 1_555 1_555
H25 C44 1_555 1_555
C45 H26 1_555 1_555
C46 H27 1_555 1_555
C47 C6 1_555 1_555
H28 C47 1_555 1_555
C48 C17 1_555 1_555
H29 C48 1_555 1_555
C49 C53 1_555 1_555
C50 H30 1_555 1_555
C51 C42 1_555 1_555
H31 C51 1_555 1_555
C52 C54 1_555 1_555
C53 H32 1_555 1_555
C54 O10 1_555 1_555
C55 C1 1_555 1_555
H33 C55 1_555 1_555
C56 C7 1_555 1_555
H34 C56 1_555 1_555
C57 C33 1_555 1_555
H35 C57 1_555 1_555
C58 H36 1_555 1_555
C59 C52 1_555 1_555
H37 C59 1_555 1_555
C60 C73 1_555 1_555
C61 C49 1_555 1_555
C62 H38 1_555 1_555
C63 C66 1_555 1_555
C64 O4 1_555 1_555
C65 C72 1_555 1_555
C66 C50 1_555 1_555
C67 C27 1_555 1_555
H39 C67 1_555 1_555
C68 C46 1_555 1_555
H40 C68 1_555 1_555
C69 C50 1_555 1_555
H41 C69 1_555 1_555
C70 C68 1_555 1_555
C71 C58 1_555 1_555
H42 C71 1_555 1_555
C72 H43 1_555 1_555
C73 C62 1_555 1_555
C74 C69 1_555 1_555
C75 C60 1_555 1_555
H44 C75 1_555 1_555
C76 C70 1_555 1_555
H45 C76 1_555 1_555
C77 C27 1_555 1_555
H46 C77 1_555 1_555
C78 C60 1_555 1_555
H47 C78 1_555 1_555
C79 C57 1_555 1_555
H48 C79 1_555 1_555
C80 H49 1_555 1_555
C81 C34 1_555 1_555
H50 C81 1_555 1_555
C82 H51 1_555 1_555
C83 C49 1_555 1_555
H52 C83 1_555 1_555
C84 C74 1_555 1_555
H53 C84 1_555 1_555
C85 C63 1_555 1_555
H54 C85 1_555 1_555
C86 C46 1_555 1_555
C87 C62 1_555 1_555
H55 C87 1_555 1_555
C88 C58 1_555 1_555
C89 C82 1_555 1_555
C90 C66 1_555 1_555
H56 C90 1_555 1_555
C91 C73 1_555 1_555
H57 C91 1_555 1_555
C92 C80 1_555 1_555
H58 C92 1_555 1_555
C93 C76 1_555 1_555
H59 C93 1_555 1_555
C94 C52 1_555 1_555
H60 C94 1_555 1_555
C95 C53 1_555 1_555
H61 C95 1_555 1_555
C96 C59 1_555 1_555
H62 C96 1_555 1_555
N1 C10 1_555 1_555
N2 C15 1_555 1_555
N3 C39 1_555 1_555
N4 C88 1_555 1_555
N5 C33 1_555 1_555
N6 C70 1_555 1_555
N7 C71 1_555 1_555
O1 Zn1B 1_555 1_555
O2 C5 1_555 1_555
O3 C3 1_555 1_555
O4 Zn3B 1_555 1_555
O5 C8 1_555 1_555
O6 C3 1_555 1_555
O7 C64 1_555 1_555
O8 C5 1_555 1_555
O9 C61 1_555 1_555
O10 Zn3B_2 1_555 1_555
O11 C61 1_555 1_555
O12 C54 1_555 1_555
Zn1 N2 1_555 1_555
Zn2 N3 1_555 1_555
Zn3 O9 1_555 1_555
C34F C38F 1_555 1_555
C38F C81 1_555 1_555
H20F C38F 1_555 1_555
C39F H21F 1_555 1_555
C41F C39F 1_555 1_555
H23F C41F 1_555 1_555
C42F C34F 1_555 1_555
C45F H26F 1_555 1_555
C51F C42F 1_555 1_555
H31F C51F 1_555 1_555
C81F C38 1_555 1_555
H50F C81F 1_555 1_555
N3F C39F 1_555 1_555
C1F H1F 1_555 1_555
C2F C8F 1_555 1_555
C3F C6F 1_555 1_555
C4F C7F 1_555 1_555
C5F C18F 1_555 1_555
C6F C1F 1_555 1_555
C7F C55F 1_555 1_555
C8F O1F 1_555 1_555
C9F C2F 1_555 1_555
H2F C9F 1_555 1_555
C10F C20F 1_555 1_555
C11F C9F 1_555 1_555
H3F C11F 1_555 1_555
C12F C28F 1_555 1_555
C13F C2F 1_555 1_555
H4F C13F 1_555 1_555
C14F C16F 1_555 1_555
C15F H5F 1_555 1_555
C16F H6F 1_555 1_555
C17F C19F 1_555 1_555
C18F C21F 1_555 1_555
C19F C31F 1_555 1_555
C20F H7F 1_555 1_555
C21F H8F 1_555 1_555
C22F C11F 1_555 1_555
C23F C25F 1_555 1_555
C24F C15F 1_555 1_555
H9F C24F 1_555 1_555
C25F H10F 1_555 1_555
C26F C17F 1_555 1_555
H11F C26F 1_555 1_555
C27F C64F 1_555 1_555
C28F H12F 1_555 1_555
C29F C18F 1_555 1_555
H13F C29F 1_555 1_555
C30F C13F 1_555 1_555
H14F C30F 1_555 1_555
C31F C21F 1_555 1_555
H15F C31F 1_555 1_555
C32F C14F 1_555 1_555
H16F C32F 1_555 1_555
C33F C24F 1_555 1_555
C35F C23F 1_555 1_555
H17F C35F 1_555 1_555
C36F C10F 1_555 1_555
H18F C36F 1_555 1_555
C37F C4F 1_555 1_555
H19F C37F 1_555 1_555
C40F C4F 1_555 1_555
H22F C40F 1_555 1_555
C43F C19F 1_555 1_555
H24F C43F 1_555 1_555
C44F C12F 1_555 1_555
H25F C44F 1_555 1_555
C46F H27F 1_555 1_555
C47F C6F 1_555 1_555
H28F C47F 1_555 1_555
C48F C17F 1_555 1_555
H29F C48F 1_555 1_555
C49F C53F 1_555 1_555
C50F H30F 1_555 1_555
C52F C54F 1_555 1_555
C53F H32F 1_555 1_555
C54F O10F 1_555 1_555
C55F C1F 1_555 1_555
H33F C55F 1_555 1_555
C56F C7F 1_555 1_555
H34F C56F 1_555 1_555
C57F C33F 1_555 1_555
H35F C57F 1_555 1_555
C58F H36F 1_555 1_555
C59F C52F 1_555 1_555
H37F C59F 1_555 1_555
C60F C73F 1_555 1_555
C61F C49F 1_555 1_555
C62F H38F 1_555 1_555
C63F C66F 1_555 1_555
C64F O4F 1_555 1_555
C65F C72F 1_555 1_555
C66F C50F 1_555 1_555
C67F C27F 1_555 1_555
H39F C67F 1_555 1_555
C68F C46F 1_555 1_555
H40F C68F 1_555 1_555
C69F C50F 1_555 1_555
H41F C69F 1_555 1_555
C70F C68F 1_555 1_555
C71F C58F 1_555 1_555
H42F C71F 1_555 1_555
C72F H43F 1_555 1_555
C73F C62F 1_555 1_555
C74F C69F 1_555 1_555
C75F C60F 1_555 1_555
H44F C75F 1_555 1_555
C76F C70F 1_555 1_555
H45F C76F 1_555 1_555
C77F C27F 1_555 1_555
H46F C77F 1_555 1_555
C78F C60F 1_555 1_555
H47F C78F 1_555 1_555
C79F C57F 1_555 1_555
H48F C79F 1_555 1_555
C80F H49F 1_555 1_555
C82F H51F 1_555 1_555
C83F C49F 1_555 1_555
H52F C83F 1_555 1_555
C84F C74F 1_555 1_555
H53F C84F 1_555 1_555
C85F C63F 1_555 1_555
H54F C85F 1_555 1_555
C86F C46F 1_555 1_555
C87F C62F 1_555 1_555
H55F C87F 1_555 1_555
C88F C58F 1_555 1_555
C89F C82F 1_555 1_555
C90F C66F 1_555 1_555
H56F C90F 1_555 1_555
C91F C73F 1_555 1_555
H57F C91F 1_555 1_555
C92F C80F 1_555 1_555
H58F C92F 1_555 1_555
C93F C76F 1_555 1_555
H59F C93F 1_555 1_555
C94F C52F 1_555 1_555
H60F C94F 1_555 1_555
C95F C53F 1_555 1_555
H61F C95F 1_555 1_555
C96F C59F 1_555 1_555
H62F C96F 1_555 1_555
N1F C10F 1_555 1_555
N2F C15F 1_555 1_555
N4F C88F 1_555 1_555
N5F C33F 1_555 1_555
N6F C70F 1_555 1_555
N7F C71F 1_555 1_555
O1F Zn1D 1_555 1_555
O2F C5F 1_555 1_555
O3F C3F 1_555 1_555
O4F Zn3D_2 1_555 1_555
O5F C8F 1_555 1_555
O6F C3F 1_555 1_555
O7F C64F 1_555 1_555
O8F C5F 1_555 1_555
O9F C61F 1_555 1_555
O10F Zn3D 1_555 1_555
O11F C61F 1_555 1_555
O12F C54F 1_555 1_555
Zn1F N2F 1_555 1_555
Zn2F N3F 1_555 1_555
Zn3F O9F 1_555 1_555
N7C Zn3F 1_555 1_555
N7E Zn3 1_555 1_555
O1B Zn1 1_555 1_555
O1D Zn1F 1_555 1_555
O3_2 Zn2 1_555 1_555
O3F_2 Zn2F 1_555 1_555
O4B Zn3 1_555 1_555
O4D Zn3F 1_555 1_555
O5B Zn2 1_555 1_555
O5D Zn2F 1_555 1_555
O6_2 Zn1 1_555 1_555
O6F_2 Zn1F 1_555 1_555
O7B Zn2 1_555 1_555
O7D Zn2F 1_555 1_555
O10B Zn3 1_555 1_555
O10D Zn3F 1_555 1_555
Zn1_2 O6 1_555 1_555
Zn1F_2 O6F 1_555 1_555
Zn2_2 O3 1_555 1_555
Zn2B O7 1_555 1_555
Zn2B_2 O5 1_555 1_555
Zn2D O5F 1_555 1_555
Zn2D_2 O7F 1_555 1_555
Zn2F_2 O3F 1_555 1_555
Zn3C N7F 1_555 1_555
Zn3E N7 1_555 1_555
C12 N1 1_555 1_555
C14 C22 1_555 1_555
C16 C44 1_555 1_555
C20 C40 1_555 1_555
C22 C30 1_555 1_555
C23 N1 1_555 1_555
C25 C26 1_555 1_555
C28 C32 1_555 1_555
C29 C43 1_555 1_555
C35 C48 1_555 1_555
C36 C37 1_555 1_555
C41 C42 1_555 1_555
C45 C51 1_555 1_555
C45 N3 1_555 1_555
C47 C56 1_555 1_555
C63 C96 1_555 1_555
C65 C86 1_555 1_555
C65 C95 1_555 1_555
C67 C78 1_555 1_555
C72 C83 1_555 1_555
C74 N6 1_555 1_555
C75 C77 1_555 1_555
C79 N2 1_555 1_555
C80 C88 1_555 1_555
C82 C91 1_555 1_555
C84 C90 1_555 1_555
C85 C94 1_555 1_555
C86 C93 1_555 1_555
C87 C89 1_555 1_555
C89 N6 1_555 1_555
C92 N7 1_555 1_555
N4 N5 1_555 1_555
O2 Zn1 1_555 1_555
O8 Zn2 1_555 1_555
O11 Zn2 1_555 1_555
C34F C81F 1_555 1_555
C41F C42F 1_555 1_555
C45F C51F 1_555 1_555
C45F N3F 1_555 1_555
C12F N1F 1_555 1_555
C14F C22F 1_555 1_555
C16F C44F 1_555 1_555
C20F C40F 1_555 1_555
C22F C30F 1_555 1_555
C23F N1F 1_555 1_555
C25F C26F 1_555 1_555
C28F C32F 1_555 1_555
C29F C43F 1_555 1_555
C35F C48F 1_555 1_555
C36F C37F 1_555 1_555
C47F C56F 1_555 1_555
C63F C96F 1_555 1_555
C65F C86F 1_555 1_555
C65F C95F 1_555 1_555
C67F C78F 1_555 1_555
C72F C83F 1_555 1_555
C74F N6F 1_555 1_555
C75F C77F 1_555 1_555
C79F N2F 1_555 1_555
C80F C88F 1_555 1_555
C82F C91F 1_555 1_555
C84F C90F 1_555 1_555
C85F C94F 1_555 1_555
C86F C93F 1_555 1_555
C87F C89F 1_555 1_555
C89F N6F 1_555 1_555
C92F N7F 1_555 1_555
N4F N5F 1_555 1_555
O2F Zn1F 1_555 1_555
O8F Zn2F 1_555 1_555
O11F Zn2F 1_555 1_555

#END
