
#######################################################################
#
#                 Cambridge Crystallographic Data Centre
#                                CCDC 
#
#######################################################################
#
# If this CIF has been generated from an entry in the Cambridge 
# Structural Database, then it will include bibliographic, chemical, 
# crystal, experimental, refinement or atomic coordinate data resulting 
# from the CCDC's data processing and validation procedures.
#
#######################################################################

data_OMURUL
_chemical_formula_moiety         'C384 O37 Zn2 2+'
_symmetry_cell_setting           cubic
_symmetry_space_group_name_H-M   'F -4 3 m'
_symmetry_Int_Tables_number      216
_space_group_name_Hall           'F -4 2 3'
loop_
_symmetry_equiv_pos_site_id
_symmetry_equiv_pos_as_xyz
1 x,y,z
2 -x,-y,z
3 -x,y,-z
4 x,-y,-z
5 z,x,y
6 z,-x,-y
7 -z,-x,y
8 -z,x,-y
9 y,z,x
10 -y,z,-x
11 y,-z,-x
12 -y,-z,x
13 y,x,z
14 -y,-x,z
15 y,-x,-z
16 -y,x,-z
17 x,z,y
18 -x,z,-y
19 -x,-z,y
20 x,-z,-y
21 z,y,x
22 z,-y,-x
23 -z,y,-x
24 -z,-y,x
25 x,1/2+y,1/2+z
26 -x,1/2-y,1/2+z
27 -x,1/2+y,1/2-z
28 x,1/2-y,1/2-z
29 z,1/2+x,1/2+y
30 z,1/2-x,1/2-y
31 -z,1/2-x,1/2+y
32 -z,1/2+x,1/2-y
33 y,1/2+z,1/2+x
34 -y,1/2+z,1/2-x
35 y,1/2-z,1/2-x
36 -y,1/2-z,1/2+x
37 y,1/2+x,1/2+z
38 -y,1/2-x,1/2+z
39 y,1/2-x,1/2-z
40 -y,1/2+x,1/2-z
41 x,1/2+z,1/2+y
42 -x,1/2+z,1/2-y
43 -x,1/2-z,1/2+y
44 x,1/2-z,1/2-y
45 z,1/2+y,1/2+x
46 z,1/2-y,1/2-x
47 -z,1/2+y,1/2-x
48 -z,1/2-y,1/2+x
49 1/2+x,y,1/2+z
50 1/2-x,-y,1/2+z
51 1/2-x,y,1/2-z
52 1/2+x,-y,1/2-z
53 1/2+z,x,1/2+y
54 1/2+z,-x,1/2-y
55 1/2-z,-x,1/2+y
56 1/2-z,x,1/2-y
57 1/2+y,z,1/2+x
58 1/2-y,z,1/2-x
59 1/2+y,-z,1/2-x
60 1/2-y,-z,1/2+x
61 1/2+y,x,1/2+z
62 1/2-y,-x,1/2+z
63 1/2+y,-x,1/2-z
64 1/2-y,x,1/2-z
65 1/2+x,z,1/2+y
66 1/2-x,z,1/2-y
67 1/2-x,-z,1/2+y
68 1/2+x,-z,1/2-y
69 1/2+z,y,1/2+x
70 1/2+z,-y,1/2-x
71 1/2-z,y,1/2-x
72 1/2-z,-y,1/2+x
73 1/2+x,1/2+y,z
74 1/2-x,1/2-y,z
75 1/2-x,1/2+y,-z
76 1/2+x,1/2-y,-z
77 1/2+z,1/2+x,y
78 1/2+z,1/2-x,-y
79 1/2-z,1/2-x,y
80 1/2-z,1/2+x,-y
81 1/2+y,1/2+z,x
82 1/2-y,1/2+z,-x
83 1/2+y,1/2-z,-x
84 1/2-y,1/2-z,x
85 1/2+y,1/2+x,z
86 1/2-y,1/2-x,z
87 1/2+y,1/2-x,-z
88 1/2-y,1/2+x,-z
89 1/2+x,1/2+z,y
90 1/2-x,1/2+z,-y
91 1/2-x,1/2-z,y
92 1/2+x,1/2-z,-y
93 1/2+z,1/2+y,x
94 1/2+z,1/2-y,-x
95 1/2-z,1/2+y,-x
96 1/2-z,1/2-y,x
_cell_length_a                   37.726(4)
_cell_length_b                   37.726(4)
_cell_length_c                   37.726(4)
_cell_angle_alpha                90
_cell_angle_beta                 90
_cell_angle_gamma                90
_cell_volume                     53693.6
loop_
_atom_site_label
_atom_site_type_symbol
_atom_site_fract_x
_atom_site_fract_y
_atom_site_fract_z
_atom_site_U_iso_or_equiv
_atom_site_thermal_displace_type
Zn2 Zn 0.55937(3) 0.5000 0.5000 0.0386 Uani
O1 O 0.5305(3) 0.4695(3) 0.4695(3) 0.1010 Uiso
C1 C 0.35731(16) 0.19494(16) 0.33185(17) 0.0416 Uiso
C2 C 0.38634(17) 0.2697(2) 0.38634(17) 0.0480 Uiso
C3 C 0.37038(17) 0.2413(2) 0.37038(17) 0.0460 Uiso
C4 C 0.38382(18) 0.22484(17) 0.33887(17) 0.0464 Uiso
C5 C 0.4142(3) 0.3392(4) 0.4142(3) 0.0810 Uiso
C6 C 0.4370(5) 0.3148(5) 0.3850(4) 0.0680 Uiso
C7 C 0.4185(5) 0.2840(5) 0.3671(5) 0.0760 Uiso
C8 C 0.4284(5) 0.2680(5) 0.3378(5) 0.0750 Uiso
C9 C 0.4729(8) 0.3195(7) 0.3813(7) 0.1160 Uiso
C10 C 0.4898(6) 0.3422(5) 0.4000(6) 0.0900 Uiso
C11 C 0.4126(5) 0.2402(5) 0.3255(5) 0.0760 Uiso
O2 O 0.5241(4) 0.3988(4) 0.4332(4) 0.0910 Uiso
O3 O 0.47010(9) 0.41083(14) 0.47010(9) 0.0255 Uiso
C12 C 0.4319(3) 0.3622(4) 0.4319(3) 0.0820 Uiso
C13 C 0.4947(5) 0.3886(5) 0.4370(5) 0.0690 Uiso
C14 C 0.4751(5) 0.3681(5) 0.4210(5) 0.0680 Uiso
C15 C 0.3865(4) 0.2529(4) 0.3072(4) 0.0550 Uiso
C16 C 0.4224(4) 0.2095(4) 0.3431(4) 0.0500 Uiso
C17 C 0.3519(4) 0.2689(4) 0.2971(4) 0.0580 Uiso
C18 C 0.4244(4) 0.1805(4) 0.3728(4) 0.0520 Uiso
C1P C 0.35731(16) 0.33185(17) 0.19494(16) 0.0416 Uiso
C2D C 0.38634(17) 0.38634(17) 0.2697(2) 0.0480 Uiso
C3D C 0.37038(17) 0.37038(17) 0.2413(2) 0.0460 Uiso
C4P C 0.38382(18) 0.33887(17) 0.22484(17) 0.0464 Uiso
C5D C 0.4142(3) 0.4142(3) 0.3392(4) 0.0810 Uiso
C6P C 0.4370(5) 0.3850(4) 0.3148(5) 0.0680 Uiso
C7P C 0.4185(5) 0.3671(5) 0.2840(5) 0.0760 Uiso
C8P C 0.4284(5) 0.3378(5) 0.2680(5) 0.0750 Uiso
C9P C 0.4729(8) 0.3813(7) 0.3195(7) 0.1160 Uiso
C10P C 0.4898(6) 0.4000(6) 0.3422(5) 0.0900 Uiso
C11P C 0.4126(5) 0.3255(5) 0.2402(5) 0.0760 Uiso
O2P O 0.5241(4) 0.4332(4) 0.3988(4) 0.0910 Uiso
O3D O 0.47010(9) 0.47010(9) 0.41083(14) 0.0255 Uiso
C12D C 0.4319(3) 0.4319(3) 0.3622(4) 0.0820 Uiso
C13P C 0.4947(5) 0.4370(5) 0.3886(5) 0.0690 Uiso
C14P C 0.4751(5) 0.4210(5) 0.3681(5) 0.0680 Uiso
C15P C 0.3865(4) 0.3072(4) 0.2529(4) 0.0550 Uiso
C16P C 0.4224(4) 0.3431(4) 0.2095(4) 0.0500 Uiso
C17P C 0.3519(4) 0.2971(4) 0.2689(4) 0.0580 Uiso
C18P C 0.4244(4) 0.3728(4) 0.1805(4) 0.0520 Uiso
C1T C 0.33185(17) 0.19494(16) 0.35731(16) 0.0416 Uiso
C4T C 0.33887(17) 0.22484(17) 0.38382(18) 0.0464 Uiso
C6T C 0.3850(4) 0.3148(5) 0.4370(5) 0.0680 Uiso
C7T C 0.3671(5) 0.2840(5) 0.4185(5) 0.0760 Uiso
C8T C 0.3378(5) 0.2680(5) 0.4284(5) 0.0750 Uiso
C9T C 0.3813(7) 0.3195(7) 0.4729(8) 0.1160 Uiso
C10T C 0.4000(6) 0.3422(5) 0.4898(6) 0.0900 Uiso
C11T C 0.3255(5) 0.2402(5) 0.4126(5) 0.0760 Uiso
O2T O 0.4332(4) 0.3988(4) 0.5241(4) 0.0910 Uiso
C13T C 0.4370(5) 0.3886(5) 0.4947(5) 0.0690 Uiso
C14T C 0.4210(5) 0.3681(5) 0.4751(5) 0.0680 Uiso
C15T C 0.3072(4) 0.2529(4) 0.3865(4) 0.0550 Uiso
C16T C 0.3431(4) 0.2095(4) 0.4224(4) 0.0500 Uiso
C17T C 0.2971(4) 0.2689(4) 0.3519(4) 0.0580 Uiso
C18T C 0.3728(4) 0.1805(4) 0.4244(4) 0.0520 Uiso
C1QA C 0.35731(16) 0.16815(17) 0.30506(16) 0.0416 Uiso
C2CA C 0.38634(17) 0.11366(17) 0.2303(2) 0.0480 Uiso
C3CA C 0.37038(17) 0.12962(17) 0.2587(2) 0.0460 Uiso
C4QA C 0.38382(18) 0.16113(17) 0.27516(17) 0.0464 Uiso
C5CA C 0.4142(3) 0.0858(3) 0.1608(4) 0.0810 Uiso
C6QA C 0.4370(5) 0.1150(4) 0.1852(5) 0.0680 Uiso
C7QA C 0.4185(5) 0.1329(5) 0.2160(5) 0.0760 Uiso
C8QA C 0.4284(5) 0.1622(5) 0.2320(5) 0.0750 Uiso
C9QA C 0.4729(8) 0.1187(7) 0.1805(7) 0.1160 Uiso
C10QA C 0.4898(6) 0.1000(6) 0.1578(5) 0.0900 Uiso
C11QA C 0.4126(5) 0.1745(5) 0.2598(5) 0.0760 Uiso
O2QA O 0.5241(4) 0.0668(4) 0.1012(4) 0.0910 Uiso
O3CA O 0.47010(9) 0.02990(9) 0.08917(14) 0.0255 Uiso
C12CA C 0.4319(3) 0.0681(3) 0.1378(4) 0.0820 Uiso
C13QA C 0.4947(5) 0.0630(5) 0.1114(5) 0.0690 Uiso
C14QA C 0.4751(5) 0.0790(5) 0.1319(5) 0.0680 Uiso
C15QA C 0.3865(4) 0.1928(4) 0.2471(4) 0.0550 Uiso
C16QA C 0.4224(4) 0.1569(4) 0.2905(4) 0.0500 Uiso
C17QA C 0.3519(4) 0.2029(4) 0.2311(4) 0.0580 Uiso
C18QA C 0.4244(4) 0.1272(4) 0.3195(4) 0.0520 Uiso
C1EC C 0.30506(16) 0.16815(17) 0.35731(16) 0.0416 Uiso
C2EC C 0.2303(2) 0.11366(17) 0.38634(17) 0.0480 Uiso
C3EC C 0.2587(2) 0.12962(17) 0.37038(17) 0.0460 Uiso
C4EC C 0.27516(17) 0.16113(17) 0.38382(18) 0.0464 Uiso
C5EC C 0.1608(4) 0.0858(3) 0.4142(3) 0.0810 Uiso
C6EC C 0.1852(5) 0.1150(4) 0.4370(5) 0.0680 Uiso
C7EC C 0.2160(5) 0.1329(5) 0.4185(5) 0.0760 Uiso
C8EC C 0.2320(5) 0.1622(5) 0.4284(5) 0.0750 Uiso
C9EC C 0.1805(7) 0.1187(7) 0.4729(8) 0.1160 Uiso
C10EC C 0.1578(5) 0.1000(6) 0.4898(6) 0.0900 Uiso
C11EC C 0.2598(5) 0.1745(5) 0.4126(5) 0.0760 Uiso
O2EC O 0.1012(4) 0.0668(4) 0.5241(4) 0.0910 Uiso
O3EC O 0.08917(14) 0.02990(9) 0.47010(9) 0.0255 Uiso
C12EC C 0.1378(4) 0.0681(3) 0.4319(3) 0.0820 Uiso
C13EC C 0.1114(5) 0.0630(5) 0.4947(5) 0.0690 Uiso
C14EC C 0.1319(5) 0.0790(5) 0.4751(5) 0.0680 Uiso
C15EC C 0.2471(4) 0.1928(4) 0.3865(4) 0.0550 Uiso
C16EC C 0.2905(4) 0.1569(4) 0.4224(4) 0.0500 Uiso
C17EC C 0.2311(4) 0.2029(4) 0.3519(4) 0.0580 Uiso
C18EC C 0.3195(4) 0.1272(4) 0.4244(4) 0.0520 Uiso
C1GC C 0.30506(16) 0.14269(16) 0.33185(17) 0.0416 Uiso
C4GC C 0.27516(17) 0.11618(18) 0.33887(17) 0.0464 Uiso
C6GC C 0.1852(5) 0.0630(5) 0.3850(4) 0.0680 Uiso
C7GC C 0.2160(5) 0.0815(5) 0.3671(5) 0.0760 Uiso
C8GC C 0.2320(5) 0.0716(5) 0.3378(5) 0.0750 Uiso
C9GC C 0.1805(7) 0.0271(8) 0.3813(7) 0.1160 Uiso
C10GC C 0.1578(5) 0.0102(6) 0.4000(6) 0.0900 Uiso
C11GC C 0.2598(5) 0.0874(5) 0.3255(5) 0.0760 Uiso
O2GC O 0.1012(4) -0.0241(4) 0.4332(4) 0.0910 Uiso
C13GC C 0.1114(5) 0.0053(5) 0.4370(5) 0.0690 Uiso
C14GC C 0.1319(5) 0.0249(5) 0.4210(5) 0.0680 Uiso
C15GC C 0.2471(4) 0.1135(4) 0.3072(4) 0.0550 Uiso
C16GC C 0.2905(4) 0.0776(4) 0.3431(4) 0.0500 Uiso
C17GC C 0.2311(4) 0.1481(4) 0.2971(4) 0.0580 Uiso
C18GC C 0.3195(4) 0.0756(4) 0.3728(4) 0.0520 Uiso
C1D C 0.33185(17) 0.35731(16) 0.19494(16) 0.0416 Uiso
C4D C 0.33887(17) 0.38382(18) 0.22484(17) 0.0464 Uiso
C6D C 0.3850(4) 0.4370(5) 0.3148(5) 0.0680 Uiso
C7D C 0.3671(5) 0.4185(5) 0.2840(5) 0.0760 Uiso
C8D C 0.3378(5) 0.4284(5) 0.2680(5) 0.0750 Uiso
C9D C 0.3813(7) 0.4729(8) 0.3195(7) 0.1160 Uiso
C10D C 0.4000(6) 0.4898(6) 0.3422(5) 0.0900 Uiso
C11D C 0.3255(5) 0.4126(5) 0.2402(5) 0.0760 Uiso
O2D O 0.4332(4) 0.5241(4) 0.3988(4) 0.0910 Uiso
C13D C 0.4370(5) 0.4947(5) 0.3886(5) 0.0690 Uiso
C14D C 0.4210(5) 0.4751(5) 0.3681(5) 0.0680 Uiso
C15D C 0.3072(4) 0.3865(4) 0.2529(4) 0.0550 Uiso
C16D C 0.3431(4) 0.4224(4) 0.2095(4) 0.0500 Uiso
C17D C 0.2971(4) 0.3519(4) 0.2689(4) 0.0580 Uiso
C18D C 0.3728(4) 0.4244(4) 0.1805(4) 0.0520 Uiso
C1H C 0.19494(16) 0.33185(17) 0.35731(16) 0.0416 Uiso
C2H C 0.2697(2) 0.38634(17) 0.38634(17) 0.0480 Uiso
C3H C 0.2413(2) 0.37038(17) 0.37038(17) 0.0460 Uiso
C4H C 0.22484(17) 0.33887(17) 0.38382(18) 0.0464 Uiso
C5H C 0.3392(4) 0.4142(3) 0.4142(3) 0.0810 Uiso
C6H C 0.3148(5) 0.3850(4) 0.4370(5) 0.0680 Uiso
C7H C 0.2840(5) 0.3671(5) 0.4185(5) 0.0760 Uiso
C8H C 0.2680(5) 0.3378(5) 0.4284(5) 0.0750 Uiso
C9H C 0.3195(7) 0.3813(7) 0.4729(8) 0.1160 Uiso
C10H C 0.3422(5) 0.4000(6) 0.4898(6) 0.0900 Uiso
C11H C 0.2402(5) 0.3255(5) 0.4126(5) 0.0760 Uiso
O2H O 0.3988(4) 0.4332(4) 0.5241(4) 0.0910 Uiso
O3H O 0.41083(14) 0.47010(9) 0.47010(9) 0.0255 Uiso
C12H C 0.3622(4) 0.4319(3) 0.4319(3) 0.0820 Uiso
C13H C 0.3886(5) 0.4370(5) 0.4947(5) 0.0690 Uiso
C14H C 0.3681(5) 0.4210(5) 0.4751(5) 0.0680 Uiso
C15H C 0.2529(4) 0.3072(4) 0.3865(4) 0.0550 Uiso
C16H C 0.2095(4) 0.3431(4) 0.4224(4) 0.0500 Uiso
C17H C 0.2689(4) 0.2971(4) 0.3519(4) 0.0580 Uiso
C18H C 0.1805(4) 0.3728(4) 0.4244(4) 0.0520 Uiso
C1L C 0.19494(16) 0.35731(16) 0.33185(17) 0.0416 Uiso
C4L C 0.22484(17) 0.38382(18) 0.33887(17) 0.0464 Uiso
C6L C 0.3148(5) 0.4370(5) 0.3850(4) 0.0680 Uiso
C7L C 0.2840(5) 0.4185(5) 0.3671(5) 0.0760 Uiso
C8L C 0.2680(5) 0.4284(5) 0.3378(5) 0.0750 Uiso
C9L C 0.3195(7) 0.4729(8) 0.3813(7) 0.1160 Uiso
C10L C 0.3422(5) 0.4898(6) 0.4000(6) 0.0900 Uiso
C11L C 0.2402(5) 0.4126(5) 0.3255(5) 0.0760 Uiso
O2L O 0.3988(4) 0.5241(4) 0.4332(4) 0.0910 Uiso
C13L C 0.3886(5) 0.4947(5) 0.4370(5) 0.0690 Uiso
C14L C 0.3681(5) 0.4751(5) 0.4210(5) 0.0680 Uiso
C15L C 0.2529(4) 0.3865(4) 0.3072(4) 0.0550 Uiso
C16L C 0.2095(4) 0.4224(4) 0.3431(4) 0.0500 Uiso
C17L C 0.2689(4) 0.3519(4) 0.2971(4) 0.0580 Uiso
C18L C 0.1805(4) 0.4244(4) 0.3728(4) 0.0520 Uiso
C1AA C 0.35731(16) 0.30506(16) 0.16815(17) 0.0416 Uiso
C2AA C 0.38634(17) 0.2303(2) 0.11366(17) 0.0480 Uiso
C3AA C 0.37038(17) 0.2587(2) 0.12962(17) 0.0460 Uiso
C4AA C 0.38382(18) 0.27516(17) 0.16113(17) 0.0464 Uiso
C5AA C 0.4142(3) 0.1608(4) 0.0858(3) 0.0810 Uiso
C6AA C 0.4370(5) 0.1852(5) 0.1150(4) 0.0680 Uiso
C7AA C 0.4185(5) 0.2160(5) 0.1329(5) 0.0760 Uiso
C8AA C 0.4284(5) 0.2320(5) 0.1622(5) 0.0750 Uiso
C9AA C 0.4729(8) 0.1805(7) 0.1187(7) 0.1160 Uiso
C10AA C 0.4898(6) 0.1578(5) 0.1000(6) 0.0900 Uiso
C11AA C 0.4126(5) 0.2598(5) 0.1745(5) 0.0760 Uiso
O2AA O 0.5241(4) 0.1012(4) 0.0668(4) 0.0910 Uiso
O3AA O 0.47010(9) 0.08917(14) 0.02990(9) 0.0255 Uiso
C12AA C 0.4319(3) 0.1378(4) 0.0681(3) 0.0820 Uiso
C13AA C 0.4947(5) 0.1114(5) 0.0630(5) 0.0690 Uiso
C14AA C 0.4751(5) 0.1319(5) 0.0790(5) 0.0680 Uiso
C15AA C 0.3865(4) 0.2471(4) 0.1928(4) 0.0550 Uiso
C16AA C 0.4224(4) 0.2905(4) 0.1569(4) 0.0500 Uiso
C17AA C 0.3519(4) 0.2311(4) 0.2029(4) 0.0580 Uiso
C18AA C 0.4244(4) 0.3195(4) 0.1272(4) 0.0520 Uiso
C1CA C 0.33185(17) 0.14269(16) 0.30506(16) 0.0416 Uiso
C4CA C 0.33887(17) 0.11618(18) 0.27516(17) 0.0464 Uiso
C6CA C 0.3850(4) 0.0630(5) 0.1852(5) 0.0680 Uiso
C7CA C 0.3671(5) 0.0815(5) 0.2160(5) 0.0760 Uiso
C8CA C 0.3378(5) 0.0716(5) 0.2320(5) 0.0750 Uiso
C9CA C 0.3813(7) 0.0271(8) 0.1805(7) 0.1160 Uiso
C10CA C 0.4000(6) 0.0102(6) 0.1578(5) 0.0900 Uiso
C11CA C 0.3255(5) 0.0874(5) 0.2598(5) 0.0760 Uiso
O2CA O 0.4332(4) -0.0241(4) 0.1012(4) 0.0910 Uiso
C13CA C 0.4370(5) 0.0053(5) 0.1114(5) 0.0690 Uiso
C14CA C 0.4210(5) 0.0249(5) 0.1319(5) 0.0680 Uiso
C15CA C 0.3072(4) 0.1135(4) 0.2471(4) 0.0550 Uiso
C16CA C 0.3431(4) 0.0776(4) 0.2905(4) 0.0500 Uiso
C17CA C 0.2971(4) 0.1481(4) 0.2311(4) 0.0580 Uiso
C18CA C 0.3728(4) 0.0756(4) 0.3195(4) 0.0520 Uiso
C1LA C 0.19494(16) 0.14269(16) 0.16815(17) 0.0416 Uiso
C2HA C 0.2697(2) 0.11366(17) 0.11366(17) 0.0480 Uiso
C3HA C 0.2413(2) 0.12962(17) 0.12962(17) 0.0460 Uiso
C4LA C 0.22484(17) 0.11618(18) 0.16113(17) 0.0464 Uiso
C5HA C 0.3392(4) 0.0858(3) 0.0858(3) 0.0810 Uiso
C6LA C 0.3148(5) 0.0630(5) 0.1150(4) 0.0680 Uiso
C7LA C 0.2840(5) 0.0815(5) 0.1329(5) 0.0760 Uiso
C8LA C 0.2680(5) 0.0716(5) 0.1622(5) 0.0750 Uiso
C9LA C 0.3195(7) 0.0271(8) 0.1187(7) 0.1160 Uiso
C10LA C 0.3422(5) 0.0102(6) 0.1000(6) 0.0900 Uiso
C11LA C 0.2402(5) 0.0874(5) 0.1745(5) 0.0760 Uiso
O2LA O 0.3988(4) -0.0241(4) 0.0668(4) 0.0910 Uiso
O3HA O 0.41083(14) 0.02990(9) 0.02990(9) 0.0255 Uiso
C12HA C 0.3622(4) 0.0681(3) 0.0681(3) 0.0820 Uiso
C13LA C 0.3886(5) 0.0053(5) 0.0630(5) 0.0690 Uiso
C14LA C 0.3681(5) 0.0249(5) 0.0790(5) 0.0680 Uiso
C15LA C 0.2529(4) 0.1135(4) 0.1928(4) 0.0550 Uiso
C16LA C 0.2095(4) 0.0776(4) 0.1569(4) 0.0500 Uiso
C17LA C 0.2689(4) 0.1481(4) 0.2029(4) 0.0580 Uiso
C18LA C 0.1805(4) 0.0756(4) 0.1272(4) 0.0520 Uiso
C1SA C 0.33185(17) 0.30506(16) 0.14269(16) 0.0416 Uiso
C4SA C 0.33887(17) 0.27516(17) 0.11618(18) 0.0464 Uiso
C6SA C 0.3850(4) 0.1852(5) 0.0630(5) 0.0680 Uiso
C7SA C 0.3671(5) 0.2160(5) 0.0815(5) 0.0760 Uiso
C8SA C 0.3378(5) 0.2320(5) 0.0716(5) 0.0750 Uiso
C9SA C 0.3813(7) 0.1805(7) 0.0271(8) 0.1160 Uiso
C10SA C 0.4000(6) 0.1578(5) 0.0102(6) 0.0900 Uiso
C11SA C 0.3255(5) 0.2598(5) 0.0874(5) 0.0760 Uiso
O2SA O 0.4332(4) 0.1012(4) -0.0241(4) 0.0910 Uiso
C13SA C 0.4370(5) 0.1114(5) 0.0053(5) 0.0690 Uiso
C14SA C 0.4210(5) 0.1319(5) 0.0249(5) 0.0680 Uiso
C15SA C 0.3072(4) 0.2471(4) 0.1135(4) 0.0550 Uiso
C16SA C 0.3431(4) 0.2905(4) 0.0776(4) 0.0500 Uiso
C17SA C 0.2971(4) 0.2311(4) 0.1481(4) 0.0580 Uiso
C18SA C 0.3728(4) 0.3195(4) 0.0756(4) 0.0520 Uiso
C1CB C 0.16815(17) 0.35731(16) 0.30506(16) 0.0416 Uiso
C2CB C 0.11366(17) 0.38634(17) 0.2303(2) 0.0480 Uiso
C3CB C 0.12962(17) 0.37038(17) 0.2587(2) 0.0460 Uiso
C4CB C 0.16113(17) 0.38382(18) 0.27516(17) 0.0464 Uiso
C5CB C 0.0858(3) 0.4142(3) 0.1608(4) 0.0810 Uiso
C6CB C 0.1150(4) 0.4370(5) 0.1852(5) 0.0680 Uiso
C7CB C 0.1329(5) 0.4185(5) 0.2160(5) 0.0760 Uiso
C8CB C 0.1622(5) 0.4284(5) 0.2320(5) 0.0750 Uiso
C9CB C 0.1187(7) 0.4729(8) 0.1805(7) 0.1160 Uiso
C10CB C 0.1000(6) 0.4898(6) 0.1578(5) 0.0900 Uiso
C11CB C 0.1745(5) 0.4126(5) 0.2598(5) 0.0760 Uiso
O2CB O 0.0668(4) 0.5241(4) 0.1012(4) 0.0910 Uiso
O3CB O 0.02990(9) 0.47010(9) 0.08917(14) 0.0255 Uiso
C12CB C 0.0681(3) 0.4319(3) 0.1378(4) 0.0820 Uiso
C13CB C 0.0630(5) 0.4947(5) 0.1114(5) 0.0690 Uiso
C14CB C 0.0790(5) 0.4751(5) 0.1319(5) 0.0680 Uiso
C15CB C 0.1928(4) 0.3865(4) 0.2471(4) 0.0550 Uiso
C16CB C 0.1569(4) 0.4224(4) 0.2905(4) 0.0500 Uiso
C17CB C 0.2029(4) 0.3519(4) 0.2311(4) 0.0580 Uiso
C18CB C 0.1272(4) 0.4244(4) 0.3195(4) 0.0520 Uiso
C1EB C 0.30506(16) 0.33185(17) 0.14269(16) 0.0416 Uiso
C2EB C 0.2303(2) 0.38634(17) 0.11366(17) 0.0480 Uiso
C3EB C 0.2587(2) 0.37038(17) 0.12962(17) 0.0460 Uiso
C4EB C 0.27516(17) 0.33887(17) 0.11618(18) 0.0464 Uiso
C5EB C 0.1608(4) 0.4142(3) 0.0858(3) 0.0810 Uiso
C6EB C 0.1852(5) 0.3850(4) 0.0630(5) 0.0680 Uiso
C7EB C 0.2160(5) 0.3671(5) 0.0815(5) 0.0760 Uiso
C8EB C 0.2320(5) 0.3378(5) 0.0716(5) 0.0750 Uiso
C9EB C 0.1805(7) 0.3813(7) 0.0271(8) 0.1160 Uiso
C10EB C 0.1578(5) 0.4000(6) 0.0102(6) 0.0900 Uiso
C11EB C 0.2598(5) 0.3255(5) 0.0874(5) 0.0760 Uiso
O2EB O 0.1012(4) 0.4332(4) -0.0241(4) 0.0910 Uiso
O3EB O 0.08917(14) 0.47010(9) 0.02990(9) 0.0255 Uiso
C12EB C 0.1378(4) 0.4319(3) 0.0681(3) 0.0820 Uiso
C13EB C 0.1114(5) 0.4370(5) 0.0053(5) 0.0690 Uiso
C14EB C 0.1319(5) 0.4210(5) 0.0249(5) 0.0680 Uiso
C15EB C 0.2471(4) 0.3072(4) 0.1135(4) 0.0550 Uiso
C16EB C 0.2905(4) 0.3431(4) 0.0776(4) 0.0500 Uiso
C17EB C 0.2311(4) 0.2971(4) 0.1481(4) 0.0580 Uiso
C18EB C 0.3195(4) 0.3728(4) 0.0756(4) 0.0520 Uiso
C1KB C 0.30506(16) 0.35731(16) 0.16815(17) 0.0416 Uiso
C4KB C 0.27516(17) 0.38382(18) 0.16113(17) 0.0464 Uiso
C6KB C 0.1852(5) 0.4370(5) 0.1150(4) 0.0680 Uiso
C7KB C 0.2160(5) 0.4185(5) 0.1329(5) 0.0760 Uiso
C8KB C 0.2320(5) 0.4284(5) 0.1622(5) 0.0750 Uiso
C9KB C 0.1805(7) 0.4729(8) 0.1187(7) 0.1160 Uiso
C10KB C 0.1578(5) 0.4898(6) 0.1000(6) 0.0900 Uiso
C11KB C 0.2598(5) 0.4126(5) 0.1745(5) 0.0760 Uiso
O2KB O 0.1012(4) 0.5241(4) 0.0668(4) 0.0910 Uiso
C13KB C 0.1114(5) 0.4947(5) 0.0630(5) 0.0690 Uiso
C14KB C 0.1319(5) 0.4751(5) 0.0790(5) 0.0680 Uiso
C15KB C 0.2471(4) 0.3865(4) 0.1928(4) 0.0550 Uiso
C16KB C 0.2905(4) 0.4224(4) 0.1569(4) 0.0500 Uiso
C17KB C 0.2311(4) 0.3519(4) 0.2029(4) 0.0580 Uiso
C18KB C 0.3195(4) 0.4244(4) 0.1272(4) 0.0520 Uiso
C1MB C 0.14269(16) 0.33185(17) 0.30506(16) 0.0416 Uiso
C4MB C 0.11618(18) 0.33887(17) 0.27516(17) 0.0464 Uiso
C6MB C 0.0630(5) 0.3850(4) 0.1852(5) 0.0680 Uiso
C7MB C 0.0815(5) 0.3671(5) 0.2160(5) 0.0760 Uiso
C8MB C 0.0716(5) 0.3378(5) 0.2320(5) 0.0750 Uiso
C9MB C 0.0271(8) 0.3813(7) 0.1805(7) 0.1160 Uiso
C10MB C 0.0102(6) 0.4000(6) 0.1578(5) 0.0900 Uiso
C11MB C 0.0874(5) 0.3255(5) 0.2598(5) 0.0760 Uiso
O2MB O -0.0241(4) 0.4332(4) 0.1012(4) 0.0910 Uiso
C13MB C 0.0053(5) 0.4370(5) 0.1114(5) 0.0690 Uiso
C14MB C 0.0249(5) 0.4210(5) 0.1319(5) 0.0680 Uiso
C15MB C 0.1135(4) 0.3072(4) 0.2471(4) 0.0550 Uiso
C16MB C 0.0776(4) 0.3431(4) 0.2905(4) 0.0500 Uiso
C17MB C 0.1481(4) 0.2971(4) 0.2311(4) 0.0580 Uiso
C18MB C 0.0756(4) 0.3728(4) 0.3195(4) 0.0520 Uiso
C1RB C 0.16815(17) 0.19494(16) 0.14269(16) 0.0416 Uiso
C2XA C 0.11366(17) 0.2697(2) 0.11366(17) 0.0480 Uiso
C3XA C 0.12962(17) 0.2413(2) 0.12962(17) 0.0460 Uiso
C4RB C 0.16113(17) 0.22484(17) 0.11618(18) 0.0464 Uiso
C5XA C 0.0858(3) 0.3392(4) 0.0858(3) 0.0810 Uiso
C6RB C 0.1150(4) 0.3148(5) 0.0630(5) 0.0680 Uiso
C7RB C 0.1329(5) 0.2840(5) 0.0815(5) 0.0760 Uiso
C8RB C 0.1622(5) 0.2680(5) 0.0716(5) 0.0750 Uiso
C9RB C 0.1187(7) 0.3195(7) 0.0271(8) 0.1160 Uiso
C10RB C 0.1000(6) 0.3422(5) 0.0102(6) 0.0900 Uiso
C11RB C 0.1745(5) 0.2402(5) 0.0874(5) 0.0760 Uiso
O2RB O 0.0668(4) 0.3988(4) -0.0241(4) 0.0910 Uiso
O3XA O 0.02990(9) 0.41083(14) 0.02990(9) 0.0255 Uiso
C12XA C 0.0681(3) 0.3622(4) 0.0681(3) 0.0820 Uiso
C13RB C 0.0630(5) 0.3886(5) 0.0053(5) 0.0690 Uiso
C14RB C 0.0790(5) 0.3681(5) 0.0249(5) 0.0680 Uiso
C15RB C 0.1928(4) 0.2529(4) 0.1135(4) 0.0550 Uiso
C16RB C 0.1569(4) 0.2095(4) 0.0776(4) 0.0500 Uiso
C17RB C 0.2029(4) 0.2689(4) 0.1481(4) 0.0580 Uiso
C18RB C 0.1272(4) 0.1805(4) 0.0756(4) 0.0520 Uiso
C1UB C 0.14269(16) 0.30506(16) 0.33185(17) 0.0416 Uiso
C2UB C 0.11366(17) 0.2303(2) 0.38634(17) 0.0480 Uiso
C3UB C 0.12962(17) 0.2587(2) 0.37038(17) 0.0460 Uiso
C4UB C 0.11618(18) 0.27516(17) 0.33887(17) 0.0464 Uiso
C5UB C 0.0858(3) 0.1608(4) 0.4142(3) 0.0810 Uiso
C6UB C 0.0630(5) 0.1852(5) 0.3850(4) 0.0680 Uiso
C7UB C 0.0815(5) 0.2160(5) 0.3671(5) 0.0760 Uiso
C8UB C 0.0716(5) 0.2320(5) 0.3378(5) 0.0750 Uiso
C9UB C 0.0271(8) 0.1805(7) 0.3813(7) 0.1160 Uiso
C10UB C 0.0102(6) 0.1578(5) 0.4000(6) 0.0900 Uiso
C11UB C 0.0874(5) 0.2598(5) 0.3255(5) 0.0760 Uiso
O2UB O -0.0241(4) 0.1012(4) 0.4332(4) 0.0910 Uiso
O3UB O 0.02990(9) 0.08917(14) 0.47010(9) 0.0255 Uiso
C12UB C 0.0681(3) 0.1378(4) 0.4319(3) 0.0820 Uiso
C13UB C 0.0053(5) 0.1114(5) 0.4370(5) 0.0690 Uiso
C14UB C 0.0249(5) 0.1319(5) 0.4210(5) 0.0680 Uiso
C15UB C 0.1135(4) 0.2471(4) 0.3072(4) 0.0550 Uiso
C16UB C 0.0776(4) 0.2905(4) 0.3431(4) 0.0500 Uiso
C17UB C 0.1481(4) 0.2311(4) 0.2971(4) 0.0580 Uiso
C18UB C 0.0756(4) 0.3195(4) 0.3728(4) 0.0520 Uiso
C1ZB C 0.16815(17) 0.14269(16) 0.19494(16) 0.0416 Uiso
C2ZB C 0.11366(17) 0.11366(17) 0.2697(2) 0.0480 Uiso
C3ZB C 0.12962(17) 0.12962(17) 0.2413(2) 0.0460 Uiso
C4ZB C 0.16113(17) 0.11618(18) 0.22484(17) 0.0464 Uiso
C5ZB C 0.0858(3) 0.0858(3) 0.3392(4) 0.0810 Uiso
C6ZB C 0.1150(4) 0.0630(5) 0.3148(5) 0.0680 Uiso
C7ZB C 0.1329(5) 0.0815(5) 0.2840(5) 0.0760 Uiso
C8ZB C 0.1622(5) 0.0716(5) 0.2680(5) 0.0750 Uiso
C9ZB C 0.1187(7) 0.0271(8) 0.3195(7) 0.1160 Uiso
C10ZB C 0.1000(6) 0.0102(6) 0.3422(5) 0.0900 Uiso
C11ZB C 0.1745(5) 0.0874(5) 0.2402(5) 0.0760 Uiso
O2ZB O 0.0668(4) -0.0241(4) 0.3988(4) 0.0910 Uiso
O3ZB O 0.02990(9) 0.02990(9) 0.41083(14) 0.0255 Uiso
C12ZB C 0.0681(3) 0.0681(3) 0.3622(4) 0.0820 Uiso
C13ZB C 0.0630(5) 0.0053(5) 0.3886(5) 0.0690 Uiso
C14ZB C 0.0790(5) 0.0249(5) 0.3681(5) 0.0680 Uiso
C15ZB C 0.1928(4) 0.1135(4) 0.2529(4) 0.0550 Uiso
C16ZB C 0.1569(4) 0.0776(4) 0.2095(4) 0.0500 Uiso
C17ZB C 0.2029(4) 0.1481(4) 0.2689(4) 0.0580 Uiso
C18ZB C 0.1272(4) 0.0756(4) 0.1805(4) 0.0520 Uiso
C1LC C 0.14269(16) 0.16815(17) 0.19494(16) 0.0416 Uiso
C4LC C 0.11618(18) 0.16113(17) 0.22484(17) 0.0464 Uiso
C6LC C 0.0630(5) 0.1150(4) 0.3148(5) 0.0680 Uiso
C7LC C 0.0815(5) 0.1329(5) 0.2840(5) 0.0760 Uiso
C8LC C 0.0716(5) 0.1622(5) 0.2680(5) 0.0750 Uiso
C9LC C 0.0271(8) 0.1187(7) 0.3195(7) 0.1160 Uiso
C10LC C 0.0102(6) 0.1000(6) 0.3422(5) 0.0900 Uiso
C11LC C 0.0874(5) 0.1745(5) 0.2402(5) 0.0760 Uiso
O2LC O -0.0241(4) 0.0668(4) 0.3988(4) 0.0910 Uiso
C13LC C 0.0053(5) 0.0630(5) 0.3886(5) 0.0690 Uiso
C14LC C 0.0249(5) 0.0790(5) 0.3681(5) 0.0680 Uiso
C15LC C 0.1135(4) 0.1928(4) 0.2529(4) 0.0550 Uiso
C16LC C 0.0776(4) 0.1569(4) 0.2095(4) 0.0500 Uiso
C17LC C 0.1481(4) 0.2029(4) 0.2689(4) 0.0580 Uiso
C18LC C 0.0756(4) 0.1272(4) 0.1805(4) 0.0520 Uiso
C1QC C 0.16815(17) 0.30506(16) 0.35731(16) 0.0416 Uiso
C4QC C 0.16113(17) 0.27516(17) 0.38382(18) 0.0464 Uiso
C6QC C 0.1150(4) 0.1852(5) 0.4370(5) 0.0680 Uiso
C7QC C 0.1329(5) 0.2160(5) 0.4185(5) 0.0760 Uiso
C8QC C 0.1622(5) 0.2320(5) 0.4284(5) 0.0750 Uiso
C9QC C 0.1187(7) 0.1805(7) 0.4729(8) 0.1160 Uiso
C10QC C 0.1000(6) 0.1578(5) 0.4898(6) 0.0900 Uiso
C11QC C 0.1745(5) 0.2598(5) 0.4126(5) 0.0760 Uiso
O2QC O 0.0668(4) 0.1012(4) 0.5241(4) 0.0910 Uiso
C13QC C 0.0630(5) 0.1114(5) 0.4947(5) 0.0690 Uiso
C14QC C 0.0790(5) 0.1319(5) 0.4751(5) 0.0680 Uiso
C15QC C 0.1928(4) 0.2471(4) 0.3865(4) 0.0550 Uiso
C16QC C 0.1569(4) 0.2905(4) 0.4224(4) 0.0500 Uiso
C17QC C 0.2029(4) 0.2311(4) 0.3519(4) 0.0580 Uiso
C18QC C 0.1272(4) 0.3195(4) 0.4244(4) 0.0520 Uiso
C1HA C 0.19494(16) 0.16815(17) 0.14269(16) 0.0416 Uiso
C4HA C 0.22484(17) 0.16113(17) 0.11618(18) 0.0464 Uiso
C6HA C 0.3148(5) 0.1150(4) 0.0630(5) 0.0680 Uiso
C7HA C 0.2840(5) 0.1329(5) 0.0815(5) 0.0760 Uiso
C8HA C 0.2680(5) 0.1622(5) 0.0716(5) 0.0750 Uiso
C9HA C 0.3195(7) 0.1187(7) 0.0271(8) 0.1160 Uiso
C10HA C 0.3422(5) 0.1000(6) 0.0102(6) 0.0900 Uiso
C11HA C 0.2402(5) 0.1745(5) 0.0874(5) 0.0760 Uiso
O2HA O 0.3988(4) 0.0668(4) -0.0241(4) 0.0910 Uiso
C13HA C 0.3886(5) 0.0630(5) 0.0053(5) 0.0690 Uiso
C14HA C 0.3681(5) 0.0790(5) 0.0249(5) 0.0680 Uiso
C15HA C 0.2529(4) 0.1928(4) 0.1135(4) 0.0550 Uiso
C16HA C 0.2095(4) 0.1569(4) 0.0776(4) 0.0500 Uiso
C17HA C 0.2689(4) 0.2029(4) 0.1481(4) 0.0580 Uiso
C18HA C 0.1805(4) 0.1272(4) 0.0756(4) 0.0520 Uiso
C1XA C 0.14269(16) 0.19494(16) 0.16815(17) 0.0416 Uiso
C4XA C 0.11618(18) 0.22484(17) 0.16113(17) 0.0464 Uiso
C6XA C 0.0630(5) 0.3148(5) 0.1150(4) 0.0680 Uiso
C7XA C 0.0815(5) 0.2840(5) 0.1329(5) 0.0760 Uiso
C8XA C 0.0716(5) 0.2680(5) 0.1622(5) 0.0750 Uiso
C9XA C 0.0271(8) 0.3195(7) 0.1187(7) 0.1160 Uiso
C10XA C 0.0102(6) 0.3422(5) 0.1000(6) 0.0900 Uiso
C11XA C 0.0874(5) 0.2402(5) 0.1745(5) 0.0760 Uiso
O2XA O -0.0241(4) 0.3988(4) 0.0668(4) 0.0910 Uiso
C13XA C 0.0053(5) 0.3886(5) 0.0630(5) 0.0690 Uiso
C14XA C 0.0249(5) 0.3681(5) 0.0790(5) 0.0680 Uiso
C15XA C 0.1135(4) 0.2529(4) 0.1928(4) 0.0550 Uiso
C16XA C 0.0776(4) 0.2095(4) 0.1569(4) 0.0500 Uiso
C17XA C 0.1481(4) 0.2689(4) 0.2029(4) 0.0580 Uiso
C18XA C 0.0756(4) 0.1805(4) 0.1272(4) 0.0520 Uiso
Zn1 Zn 0.55983(5) 0.44017(5) 0.44017(5) 0.0932 Uani
loop_
_atom_site_aniso_label
_atom_site_aniso_U_11
_atom_site_aniso_U_22
_atom_site_aniso_U_33
_atom_site_aniso_U_23
_atom_site_aniso_U_13
_atom_site_aniso_U_12
Zn2 0.0383(8) 0.0387(6) 0.0387(6) -0.0011(7) 0.000 0.000
Zn1 0.0932(10) 0.0932(10) 0.0932(10) 0.0013(10) -0.0013(10) -0.0013(10)
loop_
_geom_bond_atom_site_label_1
_geom_bond_atom_site_label_2
_geom_bond_site_symmetry_1
_geom_bond_site_symmetry_2
C1 C4 1_555 1_555
C2 C3 1_555 1_555
C3 C4 1_555 1_555
C4 C11 1_555 1_555
C5 C6 1_555 1_555
C6 C7 1_555 1_555
C7 C2 1_555 1_555
C8 C7 1_555 1_555
C9 C6 1_555 1_555
C10 C9 1_555 1_555
C11 C8 1_555 1_555
O2 C13 1_555 1_555
O3 C13 1_555 1_555
C12 C5 1_555 1_555
C13 C14 1_555 1_555
C14 C10 1_555 1_555
C15 C4 1_555 1_555
C16 C4 1_555 1_555
C17 C15 1_555 1_555
C18 C16 1_555 1_555
C1P C4P 1_555 1_555
C2D C3D 1_555 1_555
C3D C4P 1_555 1_555
C4P C11P 1_555 1_555
C5D C6P 1_555 1_555
C6P C7P 1_555 1_555
C7P C2D 1_555 1_555
C8P C7P 1_555 1_555
C9P C6P 1_555 1_555
C10P C9P 1_555 1_555
C11P C8P 1_555 1_555
O2P C13P 1_555 1_555
O3D C13P 1_555 1_555
C12D C5D 1_555 1_555
C13P C14P 1_555 1_555
C14P C10P 1_555 1_555
C15P C4P 1_555 1_555
C16P C4P 1_555 1_555
C17P C17 1_555 1_555
C18P C16P 1_555 1_555
C1T C1 1_555 1_555
C4T C3 1_555 1_555
C6T C5 1_555 1_555
C7T C2 1_555 1_555
C8T C7T 1_555 1_555
C9T C6T 1_555 1_555
C10T C9T 1_555 1_555
C11T C4T 1_555 1_555
O2T C13T 1_555 1_555
C13T O3 1_555 1_555
C14T C12 1_555 1_555
C15T C4T 1_555 1_555
C16T C4T 1_555 1_555
C17T C15T 1_555 1_555
C18T C16T 1_555 1_555
C1QA C1 1_555 1_555
C2CA C3CA 1_555 1_555
C3CA C4QA 1_555 1_555
C4QA C1QA 1_555 1_555
C5CA C6QA 1_555 1_555
C6QA C7QA 1_555 1_555
C7QA C2CA 1_555 1_555
C8QA C7QA 1_555 1_555
C9QA C6QA 1_555 1_555
C10QA C9QA 1_555 1_555
C11QA C4QA 1_555 1_555
O2QA C13QA 1_555 1_555
O3CA C13QA 1_555 1_555
C12CA C5CA 1_555 1_555
C13QA C14QA 1_555 1_555
C14QA C10QA 1_555 1_555
C15QA C4QA 1_555 1_555
C16QA C4QA 1_555 1_555
C17QA C15QA 1_555 1_555
C18QA C16QA 1_555 1_555
C1EC C1T 1_555 1_555
C2EC C3EC 1_555 1_555
C3EC C4EC 1_555 1_555
C4EC C1EC 1_555 1_555
C5EC C6EC 1_555 1_555
C6EC C7EC 1_555 1_555
C7EC C2EC 1_555 1_555
C8EC C7EC 1_555 1_555
C9EC C6EC 1_555 1_555
C10EC C9EC 1_555 1_555
C11EC C4EC 1_555 1_555
O2EC C13EC 1_555 1_555
O3EC C13EC 1_555 1_555
C12EC C5EC 1_555 1_555
C13EC C14EC 1_555 1_555
C14EC C10EC 1_555 1_555
C15EC C4EC 1_555 1_555
C16EC C4EC 1_555 1_555
C17EC C15EC 1_555 1_555
C18EC C16EC 1_555 1_555
C1GC C1EC 1_555 1_555
C4GC C3EC 1_555 1_555
C6GC C5EC 1_555 1_555
C7GC C2EC 1_555 1_555
C8GC C7GC 1_555 1_555
C9GC C6GC 1_555 1_555
C10GC C9GC 1_555 1_555
C11GC C4GC 1_555 1_555
O2GC C13GC 1_555 1_555
C13GC O3EC 1_555 1_555
C14GC C12EC 1_555 1_555
C15GC C4GC 1_555 1_555
C16GC C4GC 1_555 1_555
C17GC C15GC 1_555 1_555
C18GC C16GC 1_555 1_555
C1D C1P 1_555 1_555
C4D C3D 1_555 1_555
C6D C5D 1_555 1_555
C7D C2D 1_555 1_555
C8D C7D 1_555 1_555
C9D C6D 1_555 1_555
C10D C9D 1_555 1_555
C11D C4D 1_555 1_555
O2D C13D 1_555 1_555
C13D O3D 1_555 1_555
C14D C12D 1_555 1_555
C15D C4D 1_555 1_555
C16D C4D 1_555 1_555
C17D C15D 1_555 1_555
C18D C16D 1_555 1_555
C1H C4H 1_555 1_555
C2H C3H 1_555 1_555
C3H C4H 1_555 1_555
C4H C11H 1_555 1_555
C5H C6H 1_555 1_555
C6H C7H 1_555 1_555
C7H C2H 1_555 1_555
C8H C7H 1_555 1_555
C9H C6H 1_555 1_555
C10H C9H 1_555 1_555
C11H C8H 1_555 1_555
O2H C13H 1_555 1_555
O3H C13H 1_555 1_555
C12H C5H 1_555 1_555
C13H C14H 1_555 1_555
C14H C10H 1_555 1_555
C15H C4H 1_555 1_555
C16H C4H 1_555 1_555
C17H C17T 1_555 1_555
C18H C16H 1_555 1_555
C1L C1H 1_555 1_555
C4L C3H 1_555 1_555
C6L C5H 1_555 1_555
C7L C2H 1_555 1_555
C8L C7L 1_555 1_555
C9L C6L 1_555 1_555
C10L C9L 1_555 1_555
C11L C4L 1_555 1_555
O2L C13L 1_555 1_555
C13L O3H 1_555 1_555
C14L C12H 1_555 1_555
C15L C4L 1_555 1_555
C16L C4L 1_555 1_555
C17L C17D 1_555 1_555
C18L C16L 1_555 1_555
C1AA C1P 1_555 1_555
C2AA C3AA 1_555 1_555
C3AA C4AA 1_555 1_555
C4AA C1AA 1_555 1_555
C5AA C6AA 1_555 1_555
C6AA C7AA 1_555 1_555
C7AA C2AA 1_555 1_555
C8AA C7AA 1_555 1_555
C9AA C6AA 1_555 1_555
C10AA C9AA 1_555 1_555
C11AA C4AA 1_555 1_555
O2AA C13AA 1_555 1_555
O3AA C13AA 1_555 1_555
C12AA C5AA 1_555 1_555
C13AA C14AA 1_555 1_555
C14AA C10AA 1_555 1_555
C15AA C4AA 1_555 1_555
C16AA C4AA 1_555 1_555
C17AA C17QA 1_555 1_555
C18AA C16AA 1_555 1_555
C1CA C1QA 1_555 1_555
C4CA C3CA 1_555 1_555
C6CA C5CA 1_555 1_555
C7CA C2CA 1_555 1_555
C8CA C7CA 1_555 1_555
C9CA C6CA 1_555 1_555
C10CA C9CA 1_555 1_555
C11CA C4CA 1_555 1_555
O2CA C13CA 1_555 1_555
C13CA O3CA 1_555 1_555
C14CA C12CA 1_555 1_555
C15CA C4CA 1_555 1_555
C16CA C4CA 1_555 1_555
C17CA C15CA 1_555 1_555
C18CA C16CA 1_555 1_555
C1LA C4LA 1_555 1_555
C2HA C3HA 1_555 1_555
C3HA C4LA 1_555 1_555
C4LA C11LA 1_555 1_555
C5HA C6LA 1_555 1_555
C6LA C7LA 1_555 1_555
C7LA C2HA 1_555 1_555
C8LA C7LA 1_555 1_555
C9LA C6LA 1_555 1_555
C10LA C9LA 1_555 1_555
C11LA C8LA 1_555 1_555
O2LA C13LA 1_555 1_555
O3HA C13LA 1_555 1_555
C12HA C5HA 1_555 1_555
C13LA C14LA 1_555 1_555
C14LA C10LA 1_555 1_555
C15LA C4LA 1_555 1_555
C16LA C4LA 1_555 1_555
C17LA C17CA 1_555 1_555
C18LA C16LA 1_555 1_555
C1SA C1AA 1_555 1_555
C4SA C3AA 1_555 1_555
C6SA C5AA 1_555 1_555
C7SA C2AA 1_555 1_555
C8SA C7SA 1_555 1_555
C9SA C6SA 1_555 1_555
C10SA C9SA 1_555 1_555
C11SA C4SA 1_555 1_555
O2SA C13SA 1_555 1_555
C13SA O3AA 1_555 1_555
C14SA C12AA 1_555 1_555
C15SA C4SA 1_555 1_555
C16SA C4SA 1_555 1_555
C17SA C15SA 1_555 1_555
C18SA C16SA 1_555 1_555
C1CB C1L 1_555 1_555
C2CB C3CB 1_555 1_555
C3CB C4CB 1_555 1_555
C4CB C1CB 1_555 1_555
C5CB C6CB 1_555 1_555
C6CB C7CB 1_555 1_555
C7CB C2CB 1_555 1_555
C8CB C7CB 1_555 1_555
C9CB C6CB 1_555 1_555
C10CB C9CB 1_555 1_555
C11CB C4CB 1_555 1_555
O2CB C13CB 1_555 1_555
O3CB C13CB 1_555 1_555
C12CB C5CB 1_555 1_555
C13CB C14CB 1_555 1_555
C14CB C10CB 1_555 1_555
C15CB C4CB 1_555 1_555
C16CB C4CB 1_555 1_555
C17CB C15CB 1_555 1_555
C18CB C16CB 1_555 1_555
C1EB C1SA 1_555 1_555
C2EB C3EB 1_555 1_555
C3EB C4EB 1_555 1_555
C4EB C1EB 1_555 1_555
C5EB C6EB 1_555 1_555
C6EB C7EB 1_555 1_555
C7EB C2EB 1_555 1_555
C8EB C7EB 1_555 1_555
C9EB C6EB 1_555 1_555
C10EB C9EB 1_555 1_555
C11EB C4EB 1_555 1_555
O2EB C13EB 1_555 1_555
O3EB C13EB 1_555 1_555
C12EB C5EB 1_555 1_555
C13EB C14EB 1_555 1_555
C14EB C10EB 1_555 1_555
C15EB C4EB 1_555 1_555
C16EB C4EB 1_555 1_555
C17EB C15EB 1_555 1_555
C18EB C16EB 1_555 1_555
C1KB C1D 1_555 1_555
C4KB C3EB 1_555 1_555
C6KB C5EB 1_555 1_555
C7KB C2EB 1_555 1_555
C8KB C7KB 1_555 1_555
C9KB C6KB 1_555 1_555
C10KB C9KB 1_555 1_555
C11KB C4KB 1_555 1_555
O2KB C13KB 1_555 1_555
C13KB O3EB 1_555 1_555
C14KB C12EB 1_555 1_555
C15KB C4KB 1_555 1_555
C16KB C4KB 1_555 1_555
C17KB C17CB 1_555 1_555
C18KB C16KB 1_555 1_555
C1MB C1CB 1_555 1_555
C4MB C3CB 1_555 1_555
C6MB C5CB 1_555 1_555
C7MB C2CB 1_555 1_555
C8MB C7MB 1_555 1_555
C9MB C6MB 1_555 1_555
C10MB C9MB 1_555 1_555
C11MB C4MB 1_555 1_555
O2MB C13MB 1_555 1_555
C13MB O3CB 1_555 1_555
C14MB C12CB 1_555 1_555
C15MB C4MB 1_555 1_555
C16MB C4MB 1_555 1_555
C17MB C15MB 1_555 1_555
C18MB C16MB 1_555 1_555
C1RB C4RB 1_555 1_555
C2XA C3XA 1_555 1_555
C3XA C4RB 1_555 1_555
C4RB C11RB 1_555 1_555
C5XA C6RB 1_555 1_555
C6RB C7RB 1_555 1_555
C7RB C2XA 1_555 1_555
C8RB C7RB 1_555 1_555
C9RB C6RB 1_555 1_555
C10RB C9RB 1_555 1_555
C11RB C8RB 1_555 1_555
O2RB C13RB 1_555 1_555
O3XA C13RB 1_555 1_555
C12XA C5XA 1_555 1_555
C13RB C14RB 1_555 1_555
C14RB C10RB 1_555 1_555
C15RB C4RB 1_555 1_555
C16RB C4RB 1_555 1_555
C17RB C17EB 1_555 1_555
C18RB C16RB 1_555 1_555
C1UB C1MB 1_555 1_555
C2UB C3UB 1_555 1_555
C3UB C4UB 1_555 1_555
C4UB C1UB 1_555 1_555
C5UB C6UB 1_555 1_555
C6UB C7UB 1_555 1_555
C7UB C2UB 1_555 1_555
C8UB C7UB 1_555 1_555
C9UB C6UB 1_555 1_555
C10UB C9UB 1_555 1_555
C11UB C4UB 1_555 1_555
O2UB C13UB 1_555 1_555
O3UB C13UB 1_555 1_555
C12UB C5UB 1_555 1_555
C13UB C14UB 1_555 1_555
C14UB C10UB 1_555 1_555
C15UB C4UB 1_555 1_555
C16UB C4UB 1_555 1_555
C17UB C15UB 1_555 1_555
C18UB C16UB 1_555 1_555
C1ZB C1LA 1_555 1_555
C2ZB C3ZB 1_555 1_555
C3ZB C4ZB 1_555 1_555
C4ZB C1ZB 1_555 1_555
C5ZB C6ZB 1_555 1_555
C6ZB C7ZB 1_555 1_555
C7ZB C2ZB 1_555 1_555
C8ZB C7ZB 1_555 1_555
C9ZB C6ZB 1_555 1_555
C10ZB C9ZB 1_555 1_555
C11ZB C4ZB 1_555 1_555
O2ZB C13ZB 1_555 1_555
O3ZB C13ZB 1_555 1_555
C12ZB C5ZB 1_555 1_555
C13ZB C14ZB 1_555 1_555
C14ZB C10ZB 1_555 1_555
C15ZB C4ZB 1_555 1_555
C16ZB C4ZB 1_555 1_555
C17ZB C17GC 1_555 1_555
C18ZB C16ZB 1_555 1_555
C1LC C1ZB 1_555 1_555
C4LC C3ZB 1_555 1_555
C6LC C5ZB 1_555 1_555
C7LC C2ZB 1_555 1_555
C8LC C7LC 1_555 1_555
C9LC C6LC 1_555 1_555
C10LC C9LC 1_555 1_555
C11LC C4LC 1_555 1_555
O2LC C13LC 1_555 1_555
C13LC O3ZB 1_555 1_555
C14LC C12ZB 1_555 1_555
C15LC C4LC 1_555 1_555
C16LC C4LC 1_555 1_555
C17LC C17UB 1_555 1_555
C18LC C16LC 1_555 1_555
C1QC C1H 1_555 1_555
C4QC C3UB 1_555 1_555
C6QC C5UB 1_555 1_555
C7QC C2UB 1_555 1_555
C8QC C7QC 1_555 1_555
C9QC C6QC 1_555 1_555
C10QC C9QC 1_555 1_555
C11QC C4QC 1_555 1_555
O2QC C13QC 1_555 1_555
C13QC O3UB 1_555 1_555
C14QC C12UB 1_555 1_555
C15QC C4QC 1_555 1_555
C16QC C4QC 1_555 1_555
C17QC C17EC 1_555 1_555
C18QC C16QC 1_555 1_555
C1HA C1LA 1_555 1_555
C4HA C3HA 1_555 1_555
C6HA C5HA 1_555 1_555
C7HA C2HA 1_555 1_555
C8HA C7HA 1_555 1_555
C9HA C6HA 1_555 1_555
C10HA C9HA 1_555 1_555
C11HA C4HA 1_555 1_555
O2HA C13HA 1_555 1_555
C13HA O3HA 1_555 1_555
C14HA C12HA 1_555 1_555
C15HA C4HA 1_555 1_555
C16HA C4HA 1_555 1_555
C17HA C17SA 1_555 1_555
C18HA C16HA 1_555 1_555
C1XA C1RB 1_555 1_555
C4XA C3XA 1_555 1_555
C6XA C5XA 1_555 1_555
C7XA C2XA 1_555 1_555
C8XA C7XA 1_555 1_555
C9XA C6XA 1_555 1_555
C10XA C9XA 1_555 1_555
C11XA C4XA 1_555 1_555
O2XA C13XA 1_555 1_555
C13XA O3XA 1_555 1_555
C14XA C12XA 1_555 1_555
C15XA C4XA 1_555 1_555
C16XA C4XA 1_555 1_555
C17XA C17MB 1_555 1_555
C18XA C16XA 1_555 1_555
C11 C15 1_555 1_555
C11 C16 1_555 1_555
C12 C14 1_555 1_555
C11P C15P 1_555 1_555
C11P C16P 1_555 1_555
C12D C14P 1_555 1_555
C15P C17P 1_555 1_555
C1T C4T 1_555 1_555
C6T C7T 1_555 1_555
C8T C11T 1_555 1_555
C10T C14T 1_555 1_555
C11T C15T 1_555 1_555
C11T C16T 1_555 1_555
C13T C14T 1_555 1_555
C8QA C11QA 1_555 1_555
C11QA C15QA 1_555 1_555
C11QA C16QA 1_555 1_555
C12CA C14QA 1_555 1_555
C8EC C11EC 1_555 1_555
C11EC C15EC 1_555 1_555
C11EC C16EC 1_555 1_555
C12EC C14EC 1_555 1_555
C1GC C4GC 1_555 1_555
C1GC C1CA 1_555 1_555
C6GC C7GC 1_555 1_555
C8GC C11GC 1_555 1_555
C10GC C14GC 1_555 1_555
C11GC C15GC 1_555 1_555
C11GC C16GC 1_555 1_555
C13GC C14GC 1_555 1_555
C1D C4D 1_555 1_555
C6D C7D 1_555 1_555
C8D C11D 1_555 1_555
C10D C14D 1_555 1_555
C11D C15D 1_555 1_555
C11D C16D 1_555 1_555
C13D C14D 1_555 1_555
C11H C15H 1_555 1_555
C11H C16H 1_555 1_555
C12H C14H 1_555 1_555
C15H C17H 1_555 1_555
C1L C4L 1_555 1_555
C6L C7L 1_555 1_555
C8L C11L 1_555 1_555
C10L C14L 1_555 1_555
C11L C15L 1_555 1_555
C11L C16L 1_555 1_555
C13L C14L 1_555 1_555
C15L C17L 1_555 1_555
C8AA C11AA 1_555 1_555
C11AA C15AA 1_555 1_555
C11AA C16AA 1_555 1_555
C12AA C14AA 1_555 1_555
C15AA C17AA 1_555 1_555
C1CA C4CA 1_555 1_555
C6CA C7CA 1_555 1_555
C8CA C11CA 1_555 1_555
C10CA C14CA 1_555 1_555
C11CA C15CA 1_555 1_555
C11CA C16CA 1_555 1_555
C13CA C14CA 1_555 1_555
C11LA C15LA 1_555 1_555
C11LA C16LA 1_555 1_555
C12HA C14LA 1_555 1_555
C15LA C17LA 1_555 1_555
C1SA C4SA 1_555 1_555
C6SA C7SA 1_555 1_555
C8SA C11SA 1_555 1_555
C10SA C14SA 1_555 1_555
C11SA C15SA 1_555 1_555
C11SA C16SA 1_555 1_555
C13SA C14SA 1_555 1_555
C8CB C11CB 1_555 1_555
C11CB C15CB 1_555 1_555
C11CB C16CB 1_555 1_555
C12CB C14CB 1_555 1_555
C1EB C1KB 1_555 1_555
C8EB C11EB 1_555 1_555
C11EB C15EB 1_555 1_555
C11EB C16EB 1_555 1_555
C12EB C14EB 1_555 1_555
C1KB C4KB 1_555 1_555
C6KB C7KB 1_555 1_555
C8KB C11KB 1_555 1_555
C10KB C14KB 1_555 1_555
C11KB C15KB 1_555 1_555
C11KB C16KB 1_555 1_555
C13KB C14KB 1_555 1_555
C15KB C17KB 1_555 1_555
C1MB C4MB 1_555 1_555
C6MB C7MB 1_555 1_555
C8MB C11MB 1_555 1_555
C10MB C14MB 1_555 1_555
C11MB C15MB 1_555 1_555
C11MB C16MB 1_555 1_555
C13MB C14MB 1_555 1_555
C1RB C1HA 1_555 1_555
C11RB C15RB 1_555 1_555
C11RB C16RB 1_555 1_555
C12XA C14RB 1_555 1_555
C15RB C17RB 1_555 1_555
C1UB C1QC 1_555 1_555
C8UB C11UB 1_555 1_555
C11UB C15UB 1_555 1_555
C11UB C16UB 1_555 1_555
C12UB C14UB 1_555 1_555
C8ZB C11ZB 1_555 1_555
C11ZB C15ZB 1_555 1_555
C11ZB C16ZB 1_555 1_555
C12ZB C14ZB 1_555 1_555
C15ZB C17ZB 1_555 1_555
C1LC C4LC 1_555 1_555
C1LC C1XA 1_555 1_555
C6LC C7LC 1_555 1_555
C8LC C11LC 1_555 1_555
C10LC C14LC 1_555 1_555
C11LC C15LC 1_555 1_555
C11LC C16LC 1_555 1_555
C13LC C14LC 1_555 1_555
C15LC C17LC 1_555 1_555
C1QC C4QC 1_555 1_555
C6QC C7QC 1_555 1_555
C8QC C11QC 1_555 1_555
C10QC C14QC 1_555 1_555
C11QC C15QC 1_555 1_555
C11QC C16QC 1_555 1_555
C13QC C14QC 1_555 1_555
C15QC C17QC 1_555 1_555
C1HA C4HA 1_555 1_555
C6HA C7HA 1_555 1_555
C8HA C11HA 1_555 1_555
C10HA C14HA 1_555 1_555
C11HA C15HA 1_555 1_555
C11HA C16HA 1_555 1_555
C13HA C14HA 1_555 1_555
C15HA C17HA 1_555 1_555
C1XA C4XA 1_555 1_555
C6XA C7XA 1_555 1_555
C8XA C11XA 1_555 1_555
C10XA C14XA 1_555 1_555
C11XA C15XA 1_555 1_555
C11XA C16XA 1_555 1_555
C13XA C14XA 1_555 1_555
C15XA C17XA 1_555 1_555

#END
