
#######################################################################
#
#                 Cambridge Crystallographic Data Centre
#                                CCDC 
#
#######################################################################
#
# If this CIF has been generated from an entry in the Cambridge 
# Structural Database, then it will include bibliographic, chemical, 
# crystal, experimental, refinement or atomic coordinate data resulting 
# from the CCDC's data processing and validation procedures.
#
#######################################################################

data_OMUSAS
_chemical_formula_moiety         '(C60 H60 O13 Zn4)n'
_symmetry_cell_setting           cubic
_symmetry_space_group_name_H-M   'I 21 3'
_symmetry_Int_Tables_number      199
_space_group_name_Hall           'I 2b 2c 3'
loop_
_symmetry_equiv_pos_site_id
_symmetry_equiv_pos_as_xyz
1 x,y,z
2 z,x,y
3 y,z,x
4 -y,1/2-z,x
5 z,-x,1/2-y
6 1/2-y,z,-x
7 -z,1/2-x,y
8 1/2-z,x,-y
9 y,-z,1/2-x
10 -x,1/2-y,z
11 x,-y,1/2-z
12 1/2-x,y,-z
13 1/2+x,1/2+y,1/2+z
14 1/2+z,1/2+x,1/2+y
15 1/2+y,1/2+z,1/2+x
16 1/2-y,-z,1/2+x
17 1/2+z,1/2-x,-y
18 -y,1/2+z,1/2-x
19 1/2-z,-x,1/2+y
20 -z,1/2+x,1/2-y
21 1/2+y,1/2-z,-x
22 1/2-x,-y,1/2+z
23 1/2+x,1/2-y,-z
24 -x,1/2+y,1/2-z
_cell_length_a                   35.755(4)
_cell_length_b                   35.755(4)
_cell_length_c                   35.755(4)
_cell_angle_alpha                90
_cell_angle_beta                 90
_cell_angle_gamma                90
_cell_volume                     45709.9
loop_
_atom_site_label
_atom_site_type_symbol
_atom_site_fract_x
_atom_site_fract_y
_atom_site_fract_z
_atom_site_U_iso_or_equiv
_atom_site_thermal_displace_type
O1 O 0.2439(2) 0.7081(2) -0.17404(16) 0.1483 Uani
C1 C 0.3136(4) 0.6587(3) -0.0222(2) 0.4570 Uiso
C2 C 0.3449(3) 0.6741(2) -0.0050(3) 0.4230 Uiso
C3 C 0.3584(2) 0.6587(3) 0.0281(3) 0.1560 Uiso
C4 C 0.3406(3) 0.6280(3) 0.04392(19) 0.1910 Uiso
C5 C 0.3093(3) 0.61267(19) 0.0267(3) 0.1710 Uiso
C6 C 0.2958(2) 0.6280(3) -0.0063(3) 0.2430 Uiso
C7 C 0.3683(4) 0.6153(5) 0.0823(4) 0.1610 Uiso
C8 C 0.3830(4) 0.7129(3) 0.0706(3) 0.1880 Uiso
C9 C 0.3608(3) 0.5853(4) 0.1034(4) 0.1280 Uiso
C10 C 0.4319(3) 0.6667(3) 0.0293(3) 0.1820 Uiso
C11 C 0.3943(3) 0.6722(3) 0.0527(3) 0.1670 Uiso
C12 C 0.4402(3) 0.6287(3) 0.0149(3) 0.1810 Uiso
C13 C 0.3500(3) 0.7163(3) 0.0926(3) 0.1620 Uiso
O2 O 0.3034(3) 0.7223(3) -0.1876(2) 0.2013 Uani
C14 C 0.2877(3) 0.69781(19) -0.12902(16) 0.1530 Uiso
C15 C 0.26061(18) 0.6840(2) -0.1047(3) 0.1670 Uiso
C16 C 0.2709(2) 0.67063(18) -0.0697(2) 0.1350 Uiso
C17 C 0.3083(3) 0.6710(2) -0.05901(18) 0.1660 Uiso
C18 C 0.33534(17) 0.6847(3) -0.0833(3) 0.2310 Uiso
C19 C 0.3250(3) 0.6982(2) -0.1183(3) 0.2840 Uiso
C20 C 0.2767(5) 0.7122(3) -0.1682(4) 0.1480 Uiso
Zn1 Zn 0.22149(4) 0.72149(4) -0.22149(4) 0.1496 Uani
Zn2 Zn 0.23602(5) 0.80392(4) -0.24823(4) 0.1745 Uani
O3 O 0.25299(16) 0.75299(16) -0.25299(16) 0.1000 Uani
O4 O 0.2723(4) 0.8313(3) -0.2197(3) 0.2977 Uani
O5 O 0.2236(2) 0.8205(3) -0.3044(4) 0.2573 Uani
C1Q C 0.3413(3) 0.4778(2) 0.1864(4) 0.4570 Uiso
C2Q C 0.3259(2) 0.4950(3) 0.1551(3) 0.4230 Uiso
C3Q C 0.3413(3) 0.5281(3) 0.1416(2) 0.1560 Uiso
C4Q C 0.3720(3) 0.54392(19) 0.1594(3) 0.1910 Uiso
C5Q C 0.38733(19) 0.5267(3) 0.1907(3) 0.1710 Uiso
C6Q C 0.3720(3) 0.4937(3) 0.2042(2) 0.2430 Uiso
C7Q C 0.3847(5) 0.5823(4) 0.1317(4) 0.1610 Uiso
C8Q C 0.2871(3) 0.5706(3) 0.1170(4) 0.1880 Uiso
C9Q C 0.4147(4) 0.6034(4) 0.1392(3) 0.1280 Uiso
C10Q C 0.3333(3) 0.5293(3) 0.0681(3) 0.1820 Uiso
C11Q C 0.3278(3) 0.5527(3) 0.1057(3) 0.1670 Uiso
C12Q C 0.3713(3) 0.5149(3) 0.0598(3) 0.1810 Uiso
C13Q C 0.2837(3) 0.5926(3) 0.1500(3) 0.1620 Uiso
O1Q O 0.2919(2) 0.32596(16) 0.2561(2) 0.1483 Uani
O2Q O 0.2777(3) 0.3124(2) 0.1966(3) 0.2013 Uani
C14Q C 0.30219(19) 0.37098(16) 0.2123(3) 0.1530 Uiso
C15Q C 0.3160(2) 0.3953(3) 0.23939(18) 0.1670 Uiso
C16Q C 0.32937(18) 0.4303(2) 0.2291(2) 0.1350 Uiso
C17Q C 0.3290(2) 0.44099(18) 0.1917(3) 0.1660 Uiso
C18Q C 0.3153(3) 0.4167(3) 0.16466(17) 0.2310 Uiso
C19Q C 0.3018(2) 0.3817(3) 0.1750(3) 0.2840 Uiso
C20Q C 0.2878(3) 0.3318(4) 0.2233(5) 0.1480 Uiso
C1R C 0.5222(2) 0.6864(4) 0.1587(3) 0.4570 Uiso
C2R C 0.5050(3) 0.6551(3) 0.1741(2) 0.4230 Uiso
C3R C 0.4719(3) 0.6416(2) 0.1587(3) 0.1560 Uiso
C4R C 0.45608(19) 0.6594(3) 0.1280(3) 0.1910 Uiso
C5R C 0.4733(3) 0.6907(3) 0.11267(19) 0.1710 Uiso
C6R C 0.5063(3) 0.7042(2) 0.1280(3) 0.2430 Uiso
C7R C 0.4177(4) 0.6317(4) 0.1153(5) 0.1610 Uiso
C8R C 0.4294(3) 0.6170(4) 0.2129(3) 0.1880 Uiso
C9R C 0.3966(4) 0.6392(3) 0.0853(4) 0.1280 Uiso
C10R C 0.4707(3) 0.5681(3) 0.1667(3) 0.1820 Uiso
C11R C 0.4473(3) 0.6057(3) 0.1722(3) 0.1670 Uiso
C12R C 0.4851(3) 0.5598(3) 0.1287(3) 0.1810 Uiso
C13R C 0.4074(3) 0.6500(3) 0.2163(3) 0.1620 Uiso
O1R O 0.67404(16) 0.7561(2) 0.2081(2) 0.1483 Uani
O2R O 0.6876(2) 0.6966(3) 0.2223(3) 0.2013 Uani
C14R C 0.62902(16) 0.7123(3) 0.19781(19) 0.1530 Uiso
C15R C 0.6047(3) 0.73939(18) 0.1840(2) 0.1670 Uiso
C16R C 0.5697(2) 0.7291(2) 0.17063(18) 0.1350 Uiso
C17R C 0.55901(18) 0.6917(3) 0.1710(2) 0.1660 Uiso
C18R C 0.5833(3) 0.66466(17) 0.1847(3) 0.2310 Uiso
C19R C 0.6183(3) 0.6750(3) 0.1982(2) 0.2840 Uiso
C20R C 0.6682(4) 0.7233(5) 0.2122(3) 0.1480 Uiso
Zn2T Zn 0.30392(4) 0.74823(4) -0.23602(5) 0.1745 Uani
O4T O 0.3313(3) 0.7197(3) -0.2723(4) 0.2977 Uani
O5T O 0.3205(3) 0.8044(4) -0.2236(2) 0.2573 Uani
Zn2P Zn 0.25177(4) 0.26398(5) 0.19608(4) 0.1745 Uani
O4P O 0.2803(3) 0.2277(4) 0.1687(3) 0.2977 Uani
O5P O 0.1956(4) 0.2764(2) 0.1795(3) 0.2573 Uani
O1S O 0.17404(16) 0.7439(2) -0.2081(2) 0.1483 Uani
O1T O 0.2081(2) 0.67404(16) -0.2439(2) 0.1483 Uani
O2S O 0.1876(2) 0.8034(3) -0.2223(3) 0.2013 Uani
Zn1B Zn 0.72149(4) 0.77851(4) 0.22149(4) 0.1496 Uani
Zn1P Zn 0.27851(4) 0.27851(4) 0.27851(4) 0.1496 Uani
Zn2S Zn 0.24823(4) 0.73602(5) -0.30392(4) 0.1745 Uani
Zn2V Zn 0.73602(5) 0.69608(4) 0.24823(4) 0.1745 Uani
O3P O 0.24701(16) 0.24701(16) 0.24701(16) 0.1000 Uani
loop_
_atom_site_aniso_label
_atom_site_aniso_U_11
_atom_site_aniso_U_22
_atom_site_aniso_U_33
_atom_site_aniso_U_23
_atom_site_aniso_U_13
_atom_site_aniso_U_12
O1 0.109 0.239 0.097 0.059 -0.032 -0.019
O2 0.16 0.328 0.116 0.057 -0.004 -0.013
Zn1 0.1496 0.1496 0.1496 -0.0194 -0.0194 0.0194
Zn2 0.212 0.164 0.1476 0.0166 0.0095 0.0497
O3 0.1 0.1 0.1 0.005 0.005 -0.005
O4 0.46 0.186 0.247 -0.079 0.026 -0.192
O5 0.202 0.195 0.375 0.176 0.007 0.019
O1Q 0.239 0.097 0.109 0.032 -0.019 -0.059
O2Q 0.328 0.116 0.16 0.004 -0.013 -0.057
O1R 0.097 0.109 0.239 0.019 -0.059 -0.032
O2R 0.116 0.16 0.328 0.013 -0.057 -0.004
Zn2T 0.164 0.1476 0.212 0.0095 -0.0497 -0.0166
O4T 0.186 0.247 0.46 0.026 0.192 0.079
O5T 0.195 0.375 0.202 0.007 -0.019 -0.176
Zn2P 0.1476 0.212 0.164 0.0497 -0.0166 -0.0095
O4P 0.247 0.46 0.186 -0.192 0.079 -0.026
O5P 0.375 0.202 0.195 0.019 -0.176 -0.007
O1S 0.097 0.109 0.239 0.019 0.059 0.032
O1T 0.239 0.097 0.109 -0.032 0.019 -0.059
O2S 0.116 0.16 0.328 0.013 0.057 0.004
Zn1B 0.1496 0.1496 0.1496 -0.0194 0.0194 -0.0194
Zn1P 0.1496 0.1496 0.1496 0.0194 0.0194 0.0194
Zn2S 0.1476 0.212 0.164 -0.0497 0.0166 -0.0095
Zn2V 0.212 0.164 0.1476 0.0166 -0.0095 -0.0497
O3P 0.1 0.1 0.1 -0.005 -0.005 -0.005
loop_
_geom_bond_atom_site_label_1
_geom_bond_atom_site_label_2
_geom_bond_site_symmetry_1
_geom_bond_site_symmetry_2
O1 C20 1_555 1_555
C1 C2 1_555 1_555
C2 C3 1_555 1_555
C3 C4 1_555 1_555
C4 C5 1_555 1_555
C5 C6 1_555 1_555
C6 C1 1_555 1_555
C7 C4 1_555 1_555
C8 C11 1_555 1_555
C9 C7 1_555 1_555
C10 C11 1_555 1_555
C11 C3 1_555 1_555
C12 C10 1_555 1_555
C13 C8 1_555 1_555
O2 C20 1_555 1_555
C14 C15 1_555 1_555
C15 C16 1_555 1_555
C16 C17 1_555 1_555
C17 C1 1_555 1_555
C18 C17 1_555 1_555
C19 C14 1_555 1_555
C20 C14 1_555 1_555
Zn1 O1 1_555 1_555
Zn2 O3 1_555 1_555
O3 Zn1 1_555 1_555
O4 Zn2 1_555 1_555
O5 Zn2 1_555 1_555
C1Q C2Q 1_555 1_555
C2Q C3Q 1_555 1_555
C3Q C4Q 1_555 1_555
C4Q C5Q 1_555 1_555
C5Q C6Q 1_555 1_555
C6Q C1Q 1_555 1_555
C7Q C9 1_555 1_555
C8Q C11Q 1_555 1_555
C9Q C7Q 1_555 1_555
C10Q C11Q 1_555 1_555
C11Q C9 1_555 1_555
C12Q C10Q 1_555 1_555
C13Q C8Q 1_555 1_555
O1Q C20Q 1_555 1_555
O2Q C20Q 1_555 1_555
C14Q C15Q 1_555 1_555
C15Q C16Q 1_555 1_555
C16Q C17Q 1_555 1_555
C17Q C1Q 1_555 1_555
C18Q C17Q 1_555 1_555
C19Q C14Q 1_555 1_555
C20Q C14Q 1_555 1_555
C1R C2R 1_555 1_555
C2R C3R 1_555 1_555
C3R C4R 1_555 1_555
C4R C5R 1_555 1_555
C5R C6R 1_555 1_555
C6R C1R 1_555 1_555
C7R C9Q 1_555 1_555
C8R C11R 1_555 1_555
C9R C7 1_555 1_555
C10R C11R 1_555 1_555
C11R C9Q 1_555 1_555
C12R C10R 1_555 1_555
C13R C8R 1_555 1_555
O1R C20R 1_555 1_555
O2R C20R 1_555 1_555
C14R C15R 1_555 1_555
C15R C16R 1_555 1_555
C16R C17R 1_555 1_555
C17R C1R 1_555 1_555
C18R C17R 1_555 1_555
C19R C14R 1_555 1_555
C20R C14R 1_555 1_555
Zn2T O2 1_555 1_555
O4T Zn2T 1_555 1_555
O5T Zn2T 1_555 1_555
Zn2P O2Q 1_555 1_555
O4P Zn2P 1_555 1_555
O5P Zn2P 1_555 1_555
O1S Zn1 1_555 1_555
O1T Zn1 1_555 1_555
O2S Zn2 1_555 1_555
Zn1B O1R 1_555 1_555
Zn1P O1Q 1_555 1_555
Zn2S O3 1_555 1_555
Zn2V O2R 1_555 1_555
O3P Zn2P 1_555 1_555
C11 C9R 1_555 1_555
C18 C19 1_555 1_555
O3 Zn2T 1_555 1_555
C3Q C11Q 1_555 1_555
C4Q C7Q 1_555 1_555
C18Q C19Q 1_555 1_555
C3R C11R 1_555 1_555
C4R C7R 1_555 1_555
C7R C9R 1_555 1_555
C18R C19R 1_555 1_555
Zn1P O3P 1_555 1_555

#END
