
#######################################################################
#
#                 Cambridge Crystallographic Data Centre
#                                CCDC 
#
#######################################################################
#
# If this CIF has been generated from an entry in the Cambridge 
# Structural Database, then it will include bibliographic, chemical, 
# crystal, experimental, refinement or atomic coordinate data resulting 
# from the CCDC's data processing and validation procedures.
#
#######################################################################

data_UKUBUY
_chemical_formula_moiety         '(C25 H32 Fe1 N4 O7 S2)n'
_symmetry_cell_setting           tetragonal
_symmetry_space_group_name_H-M   'P 42/n'
_symmetry_Int_Tables_number      86
_space_group_name_Hall           '-P 4bc'
loop_
_symmetry_equiv_pos_site_id
_symmetry_equiv_pos_as_xyz
1 x,y,z
2 1/2-x,1/2-y,z
3 -y,1/2+x,1/2+z
4 1/2+y,-x,1/2+z
5 -x,-y,-z
6 1/2+x,1/2+y,-z
7 y,1/2-x,1/2-z
8 1/2-y,x,1/2-z
_cell_length_a                   12.1470(4)
_cell_length_b                   12.1470(4)
_cell_length_c                   24.744(2)
_cell_angle_alpha                90
_cell_angle_beta                 90
_cell_angle_gamma                90
_cell_volume                     3650.97
loop_
_atom_site_label
_atom_site_type_symbol
_atom_site_fract_x
_atom_site_fract_y
_atom_site_fract_z
C1 C 0.3581(3) 0.4429(3) 0.14788(16)
H1 H 0.4156 0.4310 0.1237
C2 C 0.3697(3) 0.5257(3) 0.18486(15)
H2 H 0.4329 0.5690 0.1854
C3 C 0.2852(3) 0.5440(3) 0.22170(14)
C4 C 0.1960(3) 0.4754(3) 0.22028(15)
H3 H 0.1396 0.4826 0.2455
C5 C 0.1908(3) 0.3952(3) 0.18080(15)
H4 H 0.1287 0.3506 0.1797
C6 C 0.2119(3) 0.6522(3) 0.29388(14)
H5 H 0.1974 0.5890 0.3168
H6 H 0.1451 0.6704 0.2744
C7 C 0.2500 0.7500 0.3278(2)
C8 C 0.1544(3) 0.7890(3) 0.36378(15)
H7 H 0.1812 0.8410 0.3905
H8 H 0.0992 0.8256 0.3419
C9 C -0.0718(3) 0.8192(3) 0.49144(16)
H9 H -0.0896 0.8882 0.5052
C10 C 0.0050(3) 0.8147(3) 0.45000(16)
H10 H 0.0365 0.8789 0.4366
C11 C 0.0336(3) 0.7145(3) 0.42923(14)
C12 C -0.0207(3) 0.6253(3) 0.44959(18)
H11 H -0.0074 0.5557 0.4354
C13 C -0.0958(3) 0.6382(3) 0.49141(17)
H12 H -0.1301 0.5756 0.5051
Fe1 Fe 0.2500 0.2500 0.07888(3)
N1 N 0.2696(2) 0.3778(2) 0.14410(12)
N2 N -0.1212(3) 0.7339(2) 0.51267(12)
O1 O 0.1076(2) 0.6966(2) 0.38991(11)
O2 O 0.2996(2) 0.6285(2) 0.25690(10)
S1 S 0.44972(7) 0.22204(8) 0.08064(4)
H19 H 0.4693 0.1253 0.0829
C1A C 0.1419(3) 1.0571(3) 0.14788(16)
H1A H 0.0844 1.0690 0.1237
C2A C 0.1303(3) 0.9743(3) 0.18486(15)
H2A H 0.0671 0.9310 0.1854
C3A C 0.2148(3) 0.9560(3) 0.22170(14)
C4A C 0.3040(3) 1.0246(3) 0.22028(15)
H3A H 0.3604 1.0174 0.2455
C5A C 0.3092(3) 1.1048(3) 0.18080(15)
H4A H 0.3713 1.1494 0.1797
C6A C 0.2881(3) 0.8478(3) 0.29388(14)
H5A H 0.3026 0.9110 0.3168
H6A H 0.3549 0.8296 0.2744
C8A C 0.3456(3) 0.7110(3) 0.36378(15)
H7A H 0.3188 0.6590 0.3905
H8A H 0.4008 0.6744 0.3419
C9A C 0.5718(3) 0.6808(3) 0.49144(16)
H9A H 0.5896 0.6118 0.5052
C10A C 0.4950(3) 0.6853(3) 0.45000(16)
H10A H 0.4635 0.6211 0.4366
C11A C 0.4664(3) 0.7855(3) 0.42923(14)
C12A C 0.5207(3) 0.8747(3) 0.44959(18)
H11A H 0.5074 0.9443 0.4354
C13A C 0.5958(3) 0.8618(3) 0.49141(17)
H12A H 0.6301 0.9244 0.5051
Fe1_2 Fe 0.2500 1.2500 0.07888(3)
Fe1B Fe -0.2500 0.7500 0.57888(3)
Fe1B_2 Fe 0.7500 0.7500 0.57888(3)
N1A N 0.2304(2) 1.1222(2) 0.14410(12)
N1A_2 N 0.2304(2) 0.1222(2) 0.14410(12)
N2A N 0.6212(3) 0.7661(2) 0.51267(12)
N2B N 0.2661(2) 0.3788(3) 0.01267(12)
N2C N 0.2339(2) 0.1212(3) 0.01267(12)
O1A O 0.3924(2) 0.8034(2) 0.38991(11)
O2A O 0.2004(2) 0.8715(2) 0.25690(10)
S1A S 0.05028(7) 0.27796(8) 0.08064(4)
H19A H 0.0307 0.3747 0.0829
O3 O 0.1717(8) 0.7399(8) 0.0727(4)
H13 H 0.2051 0.7465 0.0427
H14 H 0.1089 0.7111 0.0675
O4 O 0.5769(6) 0.8626(6) 0.2245(3)
H15 H 0.5981 0.9242 0.2371
H16 H 0.5727 0.8159 0.2500
O5 O 0.6852(8) 0.8224(8) 0.1751(4)
H17 H 0.7482 0.8038 0.1869
H18 H 0.6882 0.8592 0.1459
loop_
_geom_bond_atom_site_label_1
_geom_bond_atom_site_label_2
_geom_bond_site_symmetry_1
_geom_bond_site_symmetry_2
C1 H1 1_555 1_555
C2 C1 1_555 1_555
H2 C2 1_555 1_555
C3 C2 1_555 1_555
C4 C3 1_555 1_555
H3 C4 1_555 1_555
C5 C4 1_555 1_555
H4 C5 1_555 1_555
C6 H5 1_555 1_555
H6 C6 1_555 1_555
C7 C6 1_555 1_555
C8 C7 1_555 1_555
H7 C8 1_555 1_555
H8 C8 1_555 1_555
C9 H9 1_555 1_555
C10 C9 1_555 1_555
H10 C10 1_555 1_555
C11 C10 1_555 1_555
C12 C11 1_555 1_555
H11 C12 1_555 1_555
C13 C12 1_555 1_555
H12 C13 1_555 1_555
Fe1 N1 1_555 1_555
N1 C1 1_555 1_555
N2 C9 1_555 1_555
O1 C8 1_555 1_555
O2 C3 1_555 1_555
O3 H13 1_555 1_555
H14 O3 1_555 1_555
O4 H15 1_555 1_555
H16 O4 1_555 1_555
O5 H17 1_555 1_555
H18 O5 1_555 1_555
S1 Fe1 1_555 1_555
H19 S1 1_555 1_555
C1A H1A 1_555 1_555
C2A C1A 1_555 1_555
H2A C2A 1_555 1_555
C3A C2A 1_555 1_555
C4A C3A 1_555 1_555
H3A C4A 1_555 1_555
C5A C4A 1_555 1_555
H4A C5A 1_555 1_555
C6A C7 1_555 1_555
H5A C6A 1_555 1_555
H6A C6A 1_555 1_555
C8A C7 1_555 1_555
H7A C8A 1_555 1_555
H8A C8A 1_555 1_555
C9A H9A 1_555 1_555
C10A C9A 1_555 1_555
H10A C10A 1_555 1_555
C11A C10A 1_555 1_555
C12A C11A 1_555 1_555
H11A C12A 1_555 1_555
C13A C12A 1_555 1_555
H12A C13A 1_555 1_555
Fe1_2 N1A 1_555 1_555
Fe1B N2 1_555 1_555
Fe1B_2 N2A 1_555 1_555
N1A C1A 1_555 1_555
N1A_2 Fe1 1_555 1_555
N2A C9A 1_555 1_555
N2B Fe1 1_555 1_555
N2C Fe1 1_555 1_555
O1A C8A 1_555 1_555
O2A C3A 1_555 1_555
S1A Fe1 1_555 1_555
H19A S1A 1_555 1_555
C5 N1 1_555 1_555
C6 O2 1_555 1_555
C11 O1 1_555 1_555
C13 N2 1_555 1_555
C5A N1A 1_555 1_555
C6A O2A 1_555 1_555
C11A O1A 1_555 1_555
C13A N2A 1_555 1_555

#END
