
#######################################################################
#
#                 Cambridge Crystallographic Data Centre
#                                CCDC 
#
#######################################################################
#
# If this CIF has been generated from an entry in the Cambridge 
# Structural Database, then it will include bibliographic, chemical, 
# crystal, experimental, refinement or atomic coordinate data resulting 
# from the CCDC's data processing and validation procedures.
#
#######################################################################

data_UKUCAF
_chemical_formula_moiety         '(C25 H32 Co1 N4 O7 S2)n'
_symmetry_cell_setting           tetragonal
_symmetry_space_group_name_H-M   'P 42/n'
_symmetry_Int_Tables_number      86
_space_group_name_Hall           '-P 4bc'
loop_
_symmetry_equiv_pos_site_id
_symmetry_equiv_pos_as_xyz
1 x,y,z
2 1/2-x,1/2-y,z
3 -y,1/2+x,1/2+z
4 1/2+y,-x,1/2+z
5 -x,-y,-z
6 1/2+x,1/2+y,-z
7 y,1/2-x,1/2-z
8 1/2-y,x,1/2-z
_cell_length_a                   12.0790(9)
_cell_length_b                   12.0790(9)
_cell_length_c                   24.539(4)
_cell_angle_alpha                90
_cell_angle_beta                 90
_cell_angle_gamma                90
_cell_volume                     3580.3
loop_
_atom_site_label
_atom_site_type_symbol
_atom_site_fract_x
_atom_site_fract_y
_atom_site_fract_z
C1 C 0.3596(3) 0.4386(3) 0.14646(14)
H1 H 0.4180 0.4255 0.1226
C2 C 0.3714(3) 0.5214(3) 0.18370(13)
H2 H 0.4355 0.5640 0.1845
C3 C 0.2860(3) 0.5413(3) 0.22058(12)
C4 C 0.1938(3) 0.4745(3) 0.21797(14)
H3 H 0.1355 0.4833 0.2423
C5 C 0.1908(3) 0.3940(3) 0.17803(14)
H4 H 0.1279 0.3496 0.1765
C6 C 0.2117(2) 0.6520(2) 0.29218(12)
H5 H 0.1954 0.5890 0.3154
H6 H 0.1454 0.6711 0.2719
C7 C 0.2500 0.7500 0.32638(17)
C8 C 0.1541(3) 0.7910(3) 0.36255(13)
H7 H 0.1812 0.8438 0.3892
H8 H 0.0981 0.8269 0.3404
C9 C -0.0768(3) 0.8180(3) 0.48982(16)
H9 H -0.0977 0.8876 0.5023
C10 C 0.0022(3) 0.8132(3) 0.44816(14)
H10 H 0.0337 0.8775 0.4342
C11 C 0.0312(3) 0.7135(3) 0.42901(13)
C12 C -0.0238(3) 0.6260(3) 0.44932(16)
H11 H -0.0141 0.5564 0.4338
C13 C -0.0941(3) 0.6389(3) 0.49281(17)
H12 H -0.1224 0.5753 0.5091
Co1 Co 0.2500 0.2500 0.07740(2)
N1 N 0.2689(2) 0.3744(2) 0.14185(10)
N2 N -0.1231(2) 0.7323(2) 0.51241(11)
O1 O 0.30052(19) 0.62605(19) 0.25549(9)
O2 O 0.10813(18) 0.69570(18) 0.38953(10)
S1 S 0.45080(6) 0.22122(6) 0.07879(3)
H19 H 0.4712 0.1341 0.1000
C1A C 0.1404(3) 1.0614(3) 0.14646(14)
H1A H 0.0820 1.0745 0.1226
C2A C 0.1286(3) 0.9786(3) 0.18370(13)
H2A H 0.0645 0.9360 0.1845
C3A C 0.2140(3) 0.9587(3) 0.22058(12)
C4A C 0.3062(3) 1.0255(3) 0.21797(14)
H3A H 0.3645 1.0167 0.2423
C5A C 0.3092(3) 1.1060(3) 0.17803(14)
H4A H 0.3721 1.1504 0.1765
C6A C 0.2883(2) 0.8480(2) 0.29218(12)
H5A H 0.3046 0.9110 0.3154
H6A H 0.3546 0.8289 0.2719
C8A C 0.3459(3) 0.7090(3) 0.36255(13)
H7A H 0.3188 0.6562 0.3892
H8A H 0.4019 0.6731 0.3404
C9A C 0.5768(3) 0.6820(3) 0.48982(16)
H9A H 0.5977 0.6124 0.5023
C10A C 0.4978(3) 0.6868(3) 0.44816(14)
H10A H 0.4663 0.6225 0.4342
C11A C 0.4688(3) 0.7865(3) 0.42901(13)
C12A C 0.5238(3) 0.8740(3) 0.44932(16)
H11A H 0.5141 0.9436 0.4338
C13A C 0.5941(3) 0.8611(3) 0.49281(17)
H12A H 0.6224 0.9247 0.5091
Co1_2 Co 0.2500 1.2500 0.07740(2)
Co1B Co -0.2500 0.7500 0.57740(2)
Co1B_2 Co 0.7500 0.7500 0.57740(2)
N1A N 0.2311(2) 1.1256(2) 0.14185(10)
N1A_2 N 0.2311(2) 0.1256(2) 0.14185(10)
N2A N 0.6231(2) 0.7677(2) 0.51241(11)
N2B N 0.2677(2) 0.3769(2) 0.01241(11)
N2C N 0.2323(2) 0.1231(2) 0.01241(11)
O1A O 0.19948(19) 0.87395(19) 0.25549(9)
O2A O 0.39187(18) 0.80430(18) 0.38953(10)
S1A S 0.04920(6) 0.27878(6) 0.07879(3)
H19A H 0.0288 0.3659 0.1000
O3 O 0.7965(9) 0.8662(9) 0.3291(5)
H13 H 0.7536 0.8243 0.3110
H14 H 0.7825 0.9334 0.3216
O4 O 0.3386(8) 0.7543(7) 0.0976(4)
H15 H 0.3276 0.7577 0.0634
H16 H 0.2853 0.7856 0.1142
O5 O 0.9189(6) 0.6493(6) 0.2558(3)
H17 H 0.9555 0.5972 0.2410
H18 H 0.9575 0.7082 0.2556
loop_
_geom_bond_atom_site_label_1
_geom_bond_atom_site_label_2
_geom_bond_site_symmetry_1
_geom_bond_site_symmetry_2
C1 H1 1_555 1_555
C2 C1 1_555 1_555
H2 C2 1_555 1_555
C3 C2 1_555 1_555
C4 C3 1_555 1_555
H3 C4 1_555 1_555
C5 C4 1_555 1_555
H4 C5 1_555 1_555
C6 H5 1_555 1_555
H6 C6 1_555 1_555
C7 C6 1_555 1_555
C8 C7 1_555 1_555
H7 C8 1_555 1_555
H8 C8 1_555 1_555
C9 H9 1_555 1_555
C10 C9 1_555 1_555
H10 C10 1_555 1_555
C11 C10 1_555 1_555
C12 C11 1_555 1_555
H11 C12 1_555 1_555
C13 C12 1_555 1_555
H12 C13 1_555 1_555
Co1 N1 1_555 1_555
N1 C1 1_555 1_555
N2 C9 1_555 1_555
O1 C3 1_555 1_555
O2 C8 1_555 1_555
O3 H13 1_555 1_555
H14 O3 1_555 1_555
O4 H15 1_555 1_555
H16 O4 1_555 1_555
O5 H17 1_555 1_555
H18 O5 1_555 1_555
S1 Co1 1_555 1_555
H19 S1 1_555 1_555
C1A H1A 1_555 1_555
C2A C1A 1_555 1_555
H2A C2A 1_555 1_555
C3A C2A 1_555 1_555
C4A C3A 1_555 1_555
H3A C4A 1_555 1_555
C5A C4A 1_555 1_555
H4A C5A 1_555 1_555
C6A C7 1_555 1_555
H5A C6A 1_555 1_555
H6A C6A 1_555 1_555
C8A C7 1_555 1_555
H7A C8A 1_555 1_555
H8A C8A 1_555 1_555
C9A H9A 1_555 1_555
C10A C9A 1_555 1_555
H10A C10A 1_555 1_555
C11A C10A 1_555 1_555
C12A C11A 1_555 1_555
H11A C12A 1_555 1_555
C13A C12A 1_555 1_555
H12A C13A 1_555 1_555
Co1_2 N1A 1_555 1_555
Co1B N2 1_555 1_555
Co1B_2 N2A 1_555 1_555
N1A C1A 1_555 1_555
N1A_2 Co1 1_555 1_555
N2A C9A 1_555 1_555
N2B Co1 1_555 1_555
N2C Co1 1_555 1_555
O1A C3A 1_555 1_555
O2A C8A 1_555 1_555
S1A Co1 1_555 1_555
H19A S1A 1_555 1_555
C5 N1 1_555 1_555
C6 O1 1_555 1_555
C11 O2 1_555 1_555
C13 N2 1_555 1_555
C5A N1A 1_555 1_555
C6A O1A 1_555 1_555
C11A O2A 1_555 1_555
C13A N2A 1_555 1_555

#END
