
#######################################################################
#
#                 Cambridge Crystallographic Data Centre
#                                CCDC 
#
#######################################################################
#
# If this CIF has been generated from an entry in the Cambridge 
# Structural Database, then it will include bibliographic, chemical, 
# crystal, experimental, refinement or atomic coordinate data resulting 
# from the CCDC's data processing and validation procedures.
#
#######################################################################

data_DAKVIW
_chemical_formula_moiety         '(C55 H62 Cd4 N6 O26)n'
_symmetry_cell_setting           orthorhombic
_symmetry_space_group_name_H-M   'P 21 21 2'
_symmetry_Int_Tables_number      18
_space_group_name_Hall           'P 2 2ab'
loop_
_symmetry_equiv_pos_site_id
_symmetry_equiv_pos_as_xyz
1 x,y,z
2 -x,-y,z
3 1/2+x,1/2-y,-z
4 1/2-x,1/2+y,-z
_cell_length_a                   18.326(4)
_cell_length_b                   19.033(4)
_cell_length_c                   12.529(3)
_cell_angle_alpha                90
_cell_angle_beta                 90
_cell_angle_gamma                90
_cell_volume                     4370.1
loop_
_atom_site_label
_atom_site_type_symbol
_atom_site_fract_x
_atom_site_fract_y
_atom_site_fract_z
Cd1 Cd 0.728797(14) 0.748422(15) 0.38038(2)
Cd2 Cd 0.825961(16) 0.663273(15) 0.55800(2)
O1 O 0.7261(2) 0.63732(17) 0.3303(3)
O2 O 0.79157(19) 0.57585(17) 0.4495(3)
O3 O 0.6275(2) 0.7390(2) -0.5214(3)
O4 O 0.7004(2) 0.6736(2) -0.4195(3)
O5 O 0.6660(3) 0.26909(17) 0.3709(3)
O6 O 0.7335(2) 0.32543(18) 0.4952(3)
O7 O 0.3739(2) 0.7840(2) -0.4069(4)
O8 O 0.3249(2) 0.7162(2) -0.2839(3)
O9 O 0.5844(3) 0.4537(2) 0.1249(4)
O10 O 0.5404(2) 0.5800(3) -0.1340(3)
C1 C 0.6396(3) 0.7019(3) -0.4404(5)
C2 C 0.5777(3) 0.6878(3) -0.3663(5)
C3 C 0.5859(3) 0.6420(4) -0.2807(5)
H1 H 0.6319 0.6206 -0.2680
C4 C 0.5286(3) 0.6274(4) -0.2146(5)
C5 C 0.4612(3) 0.6612(4) -0.2289(4)
H2 H 0.4221 0.6529 -0.1809
C6 C 0.4524(3) 0.7076(3) -0.3153(4)
C7 C 0.5109(3) 0.7204(3) -0.3842(4)
H3 H 0.5050 0.7514 -0.4430
C8 C 0.4805(3) 0.5635(3) -0.0670(4)
H4 H 0.4385 0.5532 -0.1100
H5 H 0.4690 0.6027 -0.0218
C9 C 0.3785(3) 0.7391(3) -0.3364(4)
C10 C 0.7464(3) 0.5811(2) 0.3741(4)
C11 C 0.7115(3) 0.5147(2) 0.3339(4)
C12 C 0.7222(3) 0.4517(3) 0.3868(4)
H6 H 0.7533 0.4499 0.4474
C13 C 0.6876(3) 0.3911(2) 0.3509(5)
C14 C 0.6433(4) 0.3938(3) 0.2616(4)
H7 H 0.6199 0.3525 0.2364
C15 C 0.6333(4) 0.4570(3) 0.2096(5)
C16 C 0.6659(4) 0.5184(2) 0.2441(4)
H8 H 0.6578 0.5617 0.2082
C17 C 0.6966(3) 0.3227(2) 0.4122(5)
C18 C 0.5664(3) 0.5180(2) 0.0712(4)
H9 H 0.6076 0.5341 0.0262
H10 H 0.5544 0.5554 0.1233
C19 C 0.5000 0.5000 0.0025(5)
O11 O 0.6554(2) 0.7929(3) 0.2517(4)
N1 N 0.5403(5) 0.8099(7) 0.1905(8)
C20 C 0.5883(4) 0.7784(11) 0.2565(10)
H11 H 0.5714 0.7449 0.3070
C21 C 0.4633(5) 0.7975(9) 0.2011(11)
H12 H 0.4537 0.7732 0.2686
H13 H 0.4464 0.7684 0.1415
H14 H 0.4374 0.8425 0.2004
C22 C 0.5611(7) 0.8223(9) 0.0805(8)
H15 H 0.6143 0.8270 0.0757
H16 H 0.5380 0.8656 0.0550
H17 H 0.5451 0.7827 0.0363
O12 O 0.9428(2) 0.6201(3) 0.5712(4)
N2 N 1.0449(4) 0.5828(5) 0.4775(6)
C23 C 0.9766(5) 0.6088(9) 0.4849(7)
H18 H 0.9520 0.6194 0.4202
C24 C 1.0882(5) 0.5711(6) 0.5705(8)
H19 H 1.0569 0.5722 0.6339
H20 H 1.1254 0.6079 0.5761
H21 H 1.1120 0.5251 0.5654
C25 C 1.0846(6) 0.5808(7) 0.3806(8)
H22 H 1.0515 0.5895 0.3207
H23 H 1.1073 0.5345 0.3722
H24 H 1.1226 0.6171 0.3818
O13 O 0.8131(3) 0.5967(3) 0.7083(4)
N3 N 0.7747(7) 0.5021(6) 0.7957(9)
C26 C 0.7732(11) 0.5449(8) 0.7117(11)
H25 H 0.7410 0.5353 0.6540
C27 C 0.7303(9) 0.4414(6) 0.8043(13)
H26 H 0.7009 0.4363 0.7394
H27 H 0.6980 0.4460 0.8662
H28 H 0.7613 0.3999 0.8131
C28 C 0.8266(9) 0.5097(8) 0.8799(11)
H29 H 0.8613 0.5470 0.8616
H30 H 0.8529 0.4654 0.8898
H31 H 0.8011 0.5220 0.9461
Cd1A Cd 0.271203(14) 0.251578(15) 0.38038(2)
Cd1_2 Cd 0.728797(14) 0.748422(15) -0.61962(2)
Cd1C Cd 0.771203(14) 0.248422(15) 0.61962(2)
Cd1B Cd 0.228797(14) 0.751578(15) -0.38038(2)
Cd1A_2 Cd 0.271203(14) 0.251578(15) -0.61962(2)
Cd1C_2 Cd 0.771203(14) 0.248422(15) -0.38038(2)
Cd1B_2 Cd 0.228797(14) 0.751578(15) 0.61962(2)
Cd2A Cd 0.174039(16) 0.336727(15) 0.55800(2)
Cd2_2 Cd 0.825961(16) 0.663273(15) -0.44200(2)
Cd2C Cd 0.674039(16) 0.163273(15) 0.44200(2)
Cd2B Cd 0.325961(16) 0.836727(15) -0.55800(2)
Cd2A_2 Cd 0.174039(16) 0.336727(15) -0.44200(2)
Cd2C_2 Cd 0.674039(16) 0.163273(15) -0.55800(2)
Cd2B_2 Cd 0.325961(16) 0.836727(15) 0.44200(2)
O1A O 0.2739(2) 0.36268(17) 0.3303(3)
O2A O 0.20843(19) 0.42415(17) 0.4495(3)
O3A O 0.3725(2) 0.2610(2) -0.5214(3)
O3_2 O 0.6275(2) 0.7390(2) 0.4786(3)
O3A_2 O 0.3725(2) 0.2610(2) 0.4786(3)
O4A O 0.2996(2) 0.3264(2) -0.4195(3)
O4_2 O 0.7004(2) 0.6736(2) 0.5805(3)
O4A_2 O 0.2996(2) 0.3264(2) 0.5805(3)
O5A O 0.3340(3) 0.73091(17) 0.3709(3)
O5C O 0.8340(3) 0.76909(17) 0.6291(3)
O5B O 0.1660(3) 0.23091(17) 0.6291(3)
O6A O 0.2665(2) 0.67457(18) 0.4952(3)
O6C O 0.7665(2) 0.82543(18) 0.5048(3)
O6B O 0.2335(2) 0.17457(18) 0.5048(3)
O7A O 0.6261(2) 0.2160(2) -0.4069(4)
O7B O 0.8739(2) 0.7160(2) 0.4069(4)
O7C O 0.1261(2) 0.2840(2) 0.4069(4)
O8A O 0.6751(2) 0.2838(2) -0.2839(3)
O8B O 0.8249(2) 0.7838(2) 0.2839(3)
O8C O 0.1751(2) 0.2162(2) 0.2839(3)
O9A O 0.4156(3) 0.5463(2) 0.1249(4)
O10A O 0.4596(2) 0.4200(3) -0.1340(3)
C1A C 0.3604(3) 0.2981(3) -0.4404(5)
C2A C 0.4223(3) 0.3122(3) -0.3663(5)
C3A C 0.4141(3) 0.3580(4) -0.2807(5)
H1A H 0.3681 0.3794 -0.2680
C4A C 0.4714(3) 0.3726(4) -0.2146(5)
C5A C 0.5388(3) 0.3388(4) -0.2289(4)
H2A H 0.5779 0.3471 -0.1809
C6A C 0.5476(3) 0.2924(3) -0.3153(4)
C7A C 0.4891(3) 0.2796(3) -0.3842(4)
H3A H 0.4950 0.2486 -0.4430
C8A C 0.5195(3) 0.4365(3) -0.0670(4)
H4A H 0.5615 0.4468 -0.1100
H5A H 0.5310 0.3973 -0.0218
C9A C 0.6215(3) 0.2609(3) -0.3364(4)
C10A C 0.2536(3) 0.4189(2) 0.3741(4)
C11A C 0.2885(3) 0.4853(2) 0.3339(4)
C12A C 0.2778(3) 0.5483(3) 0.3868(4)
H6A H 0.2467 0.5501 0.4474
C13A C 0.3124(3) 0.6089(2) 0.3509(5)
C14A C 0.3567(4) 0.6062(3) 0.2616(4)
H7A H 0.3801 0.6475 0.2364
C15A C 0.3667(4) 0.5430(3) 0.2096(5)
C16A C 0.3341(4) 0.4816(2) 0.2441(4)
H8A H 0.3422 0.4383 0.2082
C17A C 0.3034(3) 0.6773(2) 0.4122(5)
C18A C 0.4336(3) 0.4820(2) 0.0712(4)
H9A H 0.3924 0.4659 0.0262
H10A H 0.4456 0.4446 0.1233
O11A O 0.3446(2) 0.2071(3) 0.2517(4)
N1A N 0.4597(5) 0.1901(7) 0.1905(8)
C20A C 0.4117(4) 0.2216(11) 0.2565(10)
H11A H 0.4286 0.2551 0.3070
C21A C 0.5367(5) 0.2025(9) 0.2011(11)
H12A H 0.5463 0.2268 0.2686
H13A H 0.5536 0.2316 0.1415
H14A H 0.5626 0.1575 0.2004
C22A C 0.4389(7) 0.1777(9) 0.0805(8)
H15A H 0.3857 0.1730 0.0757
H16A H 0.4620 0.1344 0.0550
H17A H 0.4549 0.2173 0.0363
O12A O 0.0572(2) 0.3799(3) 0.5712(4)
N2A N -0.0449(4) 0.4172(5) 0.4775(6)
C23A C 0.0234(5) 0.3912(9) 0.4849(7)
H18A H 0.0480 0.3806 0.4202
C24A C -0.0882(5) 0.4289(6) 0.5705(8)
H19A H -0.0569 0.4278 0.6339
H20A H -0.1254 0.3921 0.5761
H21A H -0.1120 0.4749 0.5654
C25A C -0.0846(6) 0.4192(7) 0.3806(8)
H22A H -0.0515 0.4105 0.3207
H23A H -0.1073 0.4655 0.3722
H24A H -0.1226 0.3829 0.3818
O13A O 0.1869(3) 0.4033(3) 0.7083(4)
N3A N 0.2253(7) 0.4979(6) 0.7957(9)
C26A C 0.2268(11) 0.4551(8) 0.7117(11)
H25A H 0.2590 0.4647 0.6540
C27A C 0.2697(9) 0.5586(6) 0.8043(13)
H26A H 0.2991 0.5637 0.7394
H27A H 0.3020 0.5540 0.8662
H28A H 0.2387 0.6001 0.8131
C28A C 0.1734(9) 0.4903(8) 0.8799(11)
H29A H 0.1387 0.4530 0.8616
H30A H 0.1471 0.5346 0.8898
H31A H 0.1989 0.4780 0.9461
loop_
_geom_bond_atom_site_label_1
_geom_bond_atom_site_label_2
_geom_bond_site_symmetry_1
_geom_bond_site_symmetry_2
Cd1 O1 1_555 1_555
Cd2 O2 1_555 1_555
O1 C10 1_555 1_555
O2 C10 1_555 1_555
O3 C1 1_555 1_555
O4 C1 1_555 1_555
O5 C17 1_555 1_555
O6 C17 1_555 1_555
O7 C9 1_555 1_555
O8 C9 1_555 1_555
O9 C15 1_555 1_555
O10 C4 1_555 1_555
C1 C2 1_555 1_555
C2 C3 1_555 1_555
C3 H1 1_555 1_555
C4 C3 1_555 1_555
C5 C4 1_555 1_555
H2 C5 1_555 1_555
C6 C5 1_555 1_555
C7 C2 1_555 1_555
H3 C7 1_555 1_555
C8 O10 1_555 1_555
H4 C8 1_555 1_555
H5 C8 1_555 1_555
C9 C6 1_555 1_555
C10 C11 1_555 1_555
C11 C12 1_555 1_555
C12 H6 1_555 1_555
C13 C12 1_555 1_555
C14 C13 1_555 1_555
H7 C14 1_555 1_555
C15 C14 1_555 1_555
C16 C11 1_555 1_555
H8 C16 1_555 1_555
C17 C13 1_555 1_555
C18 O9 1_555 1_555
H9 C18 1_555 1_555
H10 C18 1_555 1_555
C19 C8 1_555 1_555
O11 Cd1 1_555 1_555
N1 C20 1_555 1_555
C20 O11 1_555 1_555
H11 C20 1_555 1_555
C21 N1 1_555 1_555
H12 C21 1_555 1_555
H13 C21 1_555 1_555
H14 C21 1_555 1_555
C22 N1 1_555 1_555
H15 C22 1_555 1_555
H16 C22 1_555 1_555
H17 C22 1_555 1_555
O12 Cd2 1_555 1_555
N2 C23 1_555 1_555
C23 O12 1_555 1_555
H18 C23 1_555 1_555
C24 N2 1_555 1_555
H19 C24 1_555 1_555
H20 C24 1_555 1_555
H21 C24 1_555 1_555
C25 N2 1_555 1_555
H22 C25 1_555 1_555
H23 C25 1_555 1_555
H24 C25 1_555 1_555
O13 Cd2 1_555 1_555
N3 C26 1_555 1_555
C26 O13 1_555 1_555
H25 C26 1_555 1_555
C27 N3 1_555 1_555
H26 C27 1_555 1_555
H27 C27 1_555 1_555
H28 C27 1_555 1_555
C28 N3 1_555 1_555
H29 C28 1_555 1_555
H30 C28 1_555 1_555
H31 C28 1_555 1_555
Cd1A O1A 1_555 1_555
Cd1_2 O3 1_555 1_555
Cd1C O6 1_555 1_555
Cd1B O8 1_555 1_555
Cd1A_2 O3A 1_555 1_555
Cd1C_2 O8A 1_555 1_555
Cd1B_2 O6A 1_555 1_555
Cd2A O2A 1_555 1_555
Cd2_2 O4 1_555 1_555
Cd2C O5 1_555 1_555
Cd2B O7 1_555 1_555
Cd2A_2 O4A 1_555 1_555
Cd2C_2 O7A 1_555 1_555
Cd2B_2 O5A 1_555 1_555
O1A C10A 1_555 1_555
O2A C10A 1_555 1_555
O3A C1A 1_555 1_555
O3_2 Cd1 1_555 1_555
O3A_2 Cd1A 1_555 1_555
O4A C1A 1_555 1_555
O4_2 Cd2 1_555 1_555
O4A_2 Cd2A 1_555 1_555
O5A C17A 1_555 1_555
O5C Cd2 1_555 1_555
O5B Cd2A 1_555 1_555
O6A C17A 1_555 1_555
O6C Cd1 1_555 1_555
O6B Cd1A 1_555 1_555
O7A C9A 1_555 1_555
O7B Cd2 1_555 1_555
O7C Cd2A 1_555 1_555
O8A C9A 1_555 1_555
O8B Cd1 1_555 1_555
O8C Cd1A 1_555 1_555
O9A C15A 1_555 1_555
O10A C4A 1_555 1_555
C1A C2A 1_555 1_555
C2A C3A 1_555 1_555
C3A H1A 1_555 1_555
C4A C3A 1_555 1_555
C5A C4A 1_555 1_555
H2A C5A 1_555 1_555
C6A C5A 1_555 1_555
C7A C2A 1_555 1_555
H3A C7A 1_555 1_555
C8A C19 1_555 1_555
H4A C8A 1_555 1_555
H5A C8A 1_555 1_555
C9A C6A 1_555 1_555
C10A C11A 1_555 1_555
C11A C12A 1_555 1_555
C12A H6A 1_555 1_555
C13A C12A 1_555 1_555
C14A C13A 1_555 1_555
H7A C14A 1_555 1_555
C15A C14A 1_555 1_555
C16A C11A 1_555 1_555
H8A C16A 1_555 1_555
C17A C13A 1_555 1_555
C18A C19 1_555 1_555
H9A C18A 1_555 1_555
H10A C18A 1_555 1_555
O11A Cd1A 1_555 1_555
N1A C20A 1_555 1_555
C20A O11A 1_555 1_555
H11A C20A 1_555 1_555
C21A N1A 1_555 1_555
H12A C21A 1_555 1_555
H13A C21A 1_555 1_555
H14A C21A 1_555 1_555
C22A N1A 1_555 1_555
H15A C22A 1_555 1_555
H16A C22A 1_555 1_555
H17A C22A 1_555 1_555
O12A Cd2A 1_555 1_555
N2A C23A 1_555 1_555
C23A O12A 1_555 1_555
H18A C23A 1_555 1_555
C24A N2A 1_555 1_555
H19A C24A 1_555 1_555
H20A C24A 1_555 1_555
H21A C24A 1_555 1_555
C25A N2A 1_555 1_555
H22A C25A 1_555 1_555
H23A C25A 1_555 1_555
H24A C25A 1_555 1_555
O13A Cd2A 1_555 1_555
N3A C26A 1_555 1_555
C26A O13A 1_555 1_555
H25A C26A 1_555 1_555
C27A N3A 1_555 1_555
H26A C27A 1_555 1_555
H27A C27A 1_555 1_555
H28A C27A 1_555 1_555
C28A N3A 1_555 1_555
H29A C28A 1_555 1_555
H30A C28A 1_555 1_555
H31A C28A 1_555 1_555
C6 C7 1_555 1_555
C15 C16 1_555 1_555
C18 C19 1_555 1_555
O9A C18A 1_555 1_555
O10A C8A 1_555 1_555
C6A C7A 1_555 1_555
C15A C16A 1_555 1_555

#END
