
#######################################################################
#
#                 Cambridge Crystallographic Data Centre
#                                CCDC 
#
#######################################################################
#
# If this CIF has been generated from an entry in the Cambridge 
# Structural Database, then it will include bibliographic, chemical, 
# crystal, experimental, refinement or atomic coordinate data resulting 
# from the CCDC's data processing and validation procedures.
#
#######################################################################

data_GANBAZ01
_chemical_formula_moiety         '(C60 H84 Mn4 N39 1-)n'
_symmetry_cell_setting           tetragonal
_symmetry_space_group_name_H-M   'P -4 21 c'
_symmetry_Int_Tables_number      114
_space_group_name_Hall           'P -4 2n'
loop_
_symmetry_equiv_pos_site_id
_symmetry_equiv_pos_as_xyz
1 x,y,z
2 -x,-y,z
3 y,-x,-z
4 -y,x,-z
5 1/2-x,1/2+y,1/2-z
6 1/2+x,1/2-y,1/2-z
7 1/2-y,1/2-x,1/2+z
8 1/2+y,1/2+x,1/2+z
_cell_length_a                   16.1461(6)
_cell_length_b                   16.1461(6)
_cell_length_c                   17.4126(13)
_cell_angle_alpha                90
_cell_angle_beta                 90
_cell_angle_gamma                90
_cell_volume                     4539.4
loop_
_atom_site_label
_atom_site_type_symbol
_atom_site_fract_x
_atom_site_fract_y
_atom_site_fract_z
Mn1 Mn 0.23852(3) 0.77729(3) 0.21396(3)
N1 N 0.2238(2) 0.7849(3) 0.33995(14)
N2 N 0.11870(18) 0.70639(19) 0.2068(2)
N3 N 0.1707(2) 0.89584(19) 0.2047(2)
N4 N -0.13954(17) 0.6564(2) 0.2753(2)
N5 N 0.19397(19) 1.15797(18) 0.27015(18)
N6 N 0.2645(2) 0.7544(2) 0.58899(14)
C1 C 0.1501(2) 0.9617(2) 0.2198(2)
C2 C 0.1621(2) 1.0975(2) 0.2535(2)
N7 N 0.1763(5) 0.7746(9) 0.4746(3)
C3 C 0.2045(9) 0.7771(8) 0.4048(4)
C4 C 0.2242(8) 0.7634(8) 0.5335(5)
N8 N -0.0068(4) 0.6200(4) 0.2174(6)
C5 C 0.0575(6) 0.6686(10) 0.2151(7)
C6 C -0.0752(6) 0.6434(15) 0.2503(11)
N9 N 0.1173(2) 1.0330(2) 0.2339(3)
Mn1G Mn 0.27729(3) 0.73852(3) -0.28604(3)
Mn1E Mn 0.73852(3) 0.72271(3) 0.28604(3)
Mn1D Mn 0.26148(3) 0.27729(3) 0.28604(3)
Mn1E_2 Mn -0.26148(3) 0.72271(3) 0.28604(3)
Mn1D_2 Mn 0.26148(3) 1.27729(3) 0.28604(3)
Mn1G_2 Mn 0.27729(3) 0.73852(3) 0.71396(3)
Mn1C Mn 0.22271(3) 0.23852(3) -0.21396(3)
Mn1B Mn 0.77729(3) 0.76148(3) -0.21396(3)
Mn1C_2 Mn 0.22271(3) 1.23852(3) -0.21396(3)
Mn1B_2 Mn -0.22271(3) 0.76148(3) -0.21396(3)
Mn1_2 Mn 0.23852(3) 0.77729(3) -0.78604(3)
N1G N 0.2849(3) 0.7238(2) -0.16005(14)
N1_2 N 0.2238(2) 0.7849(3) -0.66005(14)
N1E N 0.7238(2) 0.7151(3) 0.16005(14)
N1D N 0.2762(2) 0.2849(3) 0.16005(14)
N2E N 0.61870(18) 0.79361(19) 0.2932(2)
N2G N 0.20639(19) 0.61870(18) -0.2932(2)
N2C N 0.29361(19) 1.11870(18) -0.2068(2)
N2D N 0.38130(18) 0.20639(19) 0.2932(2)
N3D N 0.3293(2) 0.39584(19) 0.2953(2)
N3G N 0.39584(19) 0.6707(2) -0.2953(2)
N3B N -0.10416(19) 0.8293(2) -0.2047(2)
N3E N 0.6707(2) 0.60416(19) 0.2953(2)
N4E N 0.36046(17) 0.8436(2) 0.2247(2)
N4G N 0.1564(2) 0.36046(17) -0.2247(2)
N4C N 0.3436(2) 0.86046(17) -0.2753(2)
N4_2 N 0.86046(17) 0.6564(2) 0.2753(2)
N4A N 0.13954(17) 0.3436(2) 0.2753(2)
N5D N 0.30603(19) 0.65797(18) 0.22985(18)
N5G N 0.65797(18) 0.69397(19) -0.22985(18)
N5B N 0.15797(18) 0.80603(19) -0.27015(18)
N5A N 0.80603(19) 0.84203(18) 0.27015(18)
N5_2 N 0.19397(19) 0.15797(18) 0.27015(18)
N6G N 0.2544(2) 0.7645(2) 0.08899(14)
N6_2 N 0.2645(2) 0.7544(2) -0.41101(14)
N6E N 0.7645(2) 0.7456(2) -0.08899(14)
N6B N 0.7544(2) 0.7355(2) 0.41101(14)
N6C N 0.2456(2) 0.2645(2) 0.41101(14)
C1D C 0.3499(2) 0.4617(2) 0.2802(2)
C1G C 0.4617(2) 0.6501(2) -0.2802(2)
C1B C -0.0383(2) 0.8499(2) -0.2198(2)
C2D C 0.3379(2) 0.5975(2) 0.2465(2)
C2G C 0.5975(2) 0.6621(2) -0.2465(2)
C2B C 0.0975(2) 0.8379(2) -0.2535(2)
N7G N 0.2746(9) 0.6763(5) -0.0254(3)
N7_2 N 0.1763(5) 0.7746(9) -0.5254(3)
N7E N 0.6763(5) 0.7254(9) 0.0254(3)
C3G C 0.2771(8) 0.7045(9) -0.0952(4)
C3_2 C 0.2045(9) 0.7771(8) -0.5952(4)
C3E C 0.7045(9) 0.7229(8) 0.0952(4)
C4G C 0.2634(8) 0.7242(8) 0.0335(5)
C4_2 C 0.2242(8) 0.7634(8) -0.4665(5)
C4E C 0.7242(8) 0.7366(8) -0.0335(5)
N8E N 0.4932(4) 0.8800(4) 0.2826(6)
N8G N 0.1200(4) 0.4932(4) -0.2826(6)
N8C N 0.3800(4) 0.9932(4) -0.2174(6)
C5E C 0.5575(6) 0.8314(10) 0.2849(7)
C5G C 0.1686(10) 0.5575(6) -0.2849(7)
C5C C 0.3314(10) 1.0575(6) -0.2151(7)
C6E C 0.4248(6) 0.8566(15) 0.2497(11)
C6G C 0.1434(15) 0.4248(6) -0.2497(11)
C6C C 0.3566(15) 0.9248(6) -0.2503(11)
N9D N 0.3827(2) 0.5330(2) 0.2661(3)
N9G N 0.5330(2) 0.6173(2) -0.2661(3)
N9B N 0.0330(2) 0.8827(2) -0.2339(3)
N10 N 0.0000 0.0000 0.0000
C7 C 0.0257(3) 0.0707(3) 0.0528(2)
H1 H -0.0229 0.0871 0.0840
H2 H 0.0686 0.0500 0.0885
C8 C 0.0589(4) 0.1470(3) 0.0130(3)
H3 H 0.0185 0.1673 -0.0254
H4 H 0.1114 0.1339 -0.0137
C9 C 0.0736(4) 0.2128(4) 0.0742(4)
H5 H 0.0948 0.2633 0.0499
H6 H 0.1140 0.1923 0.1116
H7 H 0.0213 0.2251 0.1004
C7A C -0.0257(3) -0.0707(3) 0.0528(2)
C7B C 0.0707(3) -0.0257(3) -0.0528(2)
C7C C -0.0707(3) 0.0257(3) -0.0528(2)
H1A H 0.0229 -0.0871 0.0840
H1B H 0.0871 0.0229 -0.0840
H1C H -0.0871 -0.0229 -0.0840
H2A H -0.0686 -0.0500 0.0885
H2B H 0.0500 -0.0686 -0.0885
H2C H -0.0500 0.0686 -0.0885
C8A C -0.0589(4) -0.1470(3) 0.0130(3)
C8B C 0.1470(3) -0.0589(4) -0.0130(3)
C8C C -0.1470(3) 0.0589(4) -0.0130(3)
H3A H -0.0185 -0.1673 -0.0254
H3B H 0.1673 -0.0185 0.0254
H3C H -0.1673 0.0185 0.0254
H4A H -0.1114 -0.1339 -0.0137
H4B H 0.1339 -0.1114 0.0137
H4C H -0.1339 0.1114 0.0137
C9A C -0.0736(4) -0.2128(4) 0.0742(4)
C9B C 0.2128(4) -0.0736(4) -0.0742(4)
C9C C -0.2128(4) 0.0736(4) -0.0742(4)
H5A H -0.0948 -0.2633 0.0499
H5B H 0.2633 -0.0948 -0.0499
H5C H -0.2633 0.0948 -0.0499
H6A H -0.1140 -0.1923 0.1116
H6B H 0.1923 -0.1140 -0.1116
H6C H -0.1923 0.1140 -0.1116
H7A H -0.0213 -0.2251 0.1004
H7B H 0.2251 -0.0213 -0.1004
H7C H -0.2251 0.0213 -0.1004
N11 N 0.0000 0.5000 -0.0084(2)
C10 C -0.0655(5) 0.4941(5) 0.0586(5)
H8 H -0.0630 0.4374 0.0802
H9 H -0.0484 0.5328 0.0997
C11 C -0.1549(6) 0.5127(7) 0.0380(6)
H10 H -0.1615 0.5716 0.0234
H11 H -0.1733 0.4775 -0.0054
C12 C -0.2039(8) 0.4935(8) 0.1091(7)
H12 H -0.2627 0.5043 0.0996
H13 H -0.1845 0.5286 0.1514
H14 H -0.1963 0.4351 0.1228
C13 C -0.0302(5) 0.4348(5) -0.0694(5)
H15 H -0.0799 0.4577 -0.0951
H16 H 0.0135 0.4295 -0.1089
C14 C -0.0518(6) 0.3473(6) -0.0408(6)
H17 H -0.0042 0.3242 -0.0120
H18 H -0.0997 0.3502 -0.0054
C15 C -0.0722(6) 0.2919(6) -0.1063(6)
H19 H -0.0794 0.2351 -0.0876
H20 H -0.0271 0.2934 -0.1440
H21 H -0.1236 0.3107 -0.1306
C10A C 0.0655(5) 0.5059(5) 0.0586(5)
H8A H 0.0630 0.5626 0.0802
H9A H 0.0484 0.4672 0.0997
C11A C 0.1549(6) 0.4873(7) 0.0380(6)
H10A H 0.1615 0.4284 0.0234
H11A H 0.1733 0.5225 -0.0054
C12A C 0.2039(8) 0.5065(8) 0.1091(7)
H12A H 0.2627 0.4957 0.0996
H13A H 0.1845 0.4714 0.1514
H14A H 0.1963 0.5649 0.1228
C13A C 0.0302(5) 0.5652(5) -0.0694(5)
H15A H 0.0799 0.5423 -0.0951
H16A H -0.0135 0.5705 -0.1089
C14A C 0.0518(6) 0.6527(6) -0.0408(6)
H17A H 0.0042 0.6758 -0.0120
H18A H 0.0997 0.6498 -0.0054
C15A C 0.0722(6) 0.7081(6) -0.1063(6)
H19A H 0.0794 0.7649 -0.0876
H20A H 0.0271 0.7066 -0.1440
H21A H 0.1236 0.6893 -0.1306
N12 N 0.5000 0.5000 0.0000
C16 C 0.4699(5) 0.5723(4) 0.0491(4)
H22 H 0.4576 0.6197 0.0149
H23 H 0.4175 0.5560 0.0744
C17 C 0.5296(5) 0.6005(5) 0.1097(5)
H24 H 0.5858 0.6048 0.0872
H25 H 0.5316 0.5589 0.1514
C18 C 0.5049(3) 0.6836(3) 0.1428(3)
H26 H 0.5447 0.6999 0.1826
H27 H 0.4494 0.6795 0.1654
H28 H 0.5046 0.7253 0.1019
C16A C 0.5301(5) 0.4277(4) 0.0491(4)
C16B C 0.5723(4) 0.5301(5) -0.0491(4)
C16C C 0.4277(4) 0.4699(5) -0.0491(4)
H22A H 0.5424 0.3803 0.0149
H22B H 0.6197 0.5424 -0.0149
H22C H 0.3803 0.4576 -0.0149
H23A H 0.5825 0.4440 0.0744
H23B H 0.5560 0.5825 -0.0744
H23C H 0.4440 0.4175 -0.0744
C17A C 0.4704(5) 0.3995(5) 0.1097(5)
C17B C 0.6005(5) 0.4704(5) -0.1097(5)
C17C C 0.3995(5) 0.5296(5) -0.1097(5)
H24A H 0.4142 0.3952 0.0872
H24B H 0.6048 0.4142 -0.0872
H24C H 0.3952 0.5858 -0.0872
H25A H 0.4684 0.4411 0.1514
H25B H 0.5589 0.4684 -0.1514
H25C H 0.4411 0.5316 -0.1514
C18A C 0.4951(3) 0.3164(3) 0.1428(3)
C18B C 0.6836(3) 0.4951(3) -0.1428(3)
C18C C 0.3164(3) 0.5049(3) -0.1428(3)
H26A H 0.4553 0.3001 0.1826
H26B H 0.6999 0.4553 -0.1826
H26C H 0.3001 0.5447 -0.1826
H27A H 0.5506 0.3205 0.1654
H27B H 0.6795 0.5506 -0.1654
H27C H 0.3205 0.4494 -0.1654
H28A H 0.4954 0.2747 0.1019
H28B H 0.7253 0.4954 -0.1019
H28C H 0.2747 0.5046 -0.1019
loop_
_geom_bond_atom_site_label_1
_geom_bond_atom_site_label_2
_geom_bond_site_symmetry_1
_geom_bond_site_symmetry_2
Mn1 N1 1_555 1_555
N1 C3 1_555 1_555
N2 Mn1 1_555 1_555
N3 Mn1 1_555 1_555
N4 C6 1_555 1_555
N5 C2 1_555 1_555
N6 C4 1_555 1_555
C1 N3 1_555 1_555
C2 N9 1_555 1_555
N7 C3 1_555 1_555
C4 N7 1_555 1_555
N8 C5 1_555 1_555
C5 N2 1_555 1_555
C6 N8 1_555 1_555
N9 C1 1_555 1_555
N10 C7 1_555 1_555
C7 H1 1_555 1_555
H2 C7 1_555 1_555
C8 C7 1_555 1_555
H3 C8 1_555 1_555
H4 C8 1_555 1_555
C9 C8 1_555 1_555
H5 C9 1_555 1_555
H6 C9 1_555 1_555
H7 C9 1_555 1_555
N11 C10 1_555 1_555
C10 H8 1_555 1_555
H9 C10 1_555 1_555
C11 C10 1_555 1_555
H10 C11 1_555 1_555
H11 C11 1_555 1_555
C12 C11 1_555 1_555
H12 C12 1_555 1_555
H13 C12 1_555 1_555
H14 C12 1_555 1_555
C13 N11 1_555 1_555
H15 C13 1_555 1_555
H16 C13 1_555 1_555
C14 C13 1_555 1_555
H17 C14 1_555 1_555
H18 C14 1_555 1_555
C15 C14 1_555 1_555
H19 C15 1_555 1_555
H20 C15 1_555 1_555
H21 C15 1_555 1_555
N12 C16 1_555 1_555
C16 H22 1_555 1_555
H23 C16 1_555 1_555
C17 C16 1_555 1_555
H24 C17 1_555 1_555
H25 C17 1_555 1_555
C18 C17 1_555 1_555
H26 C18 1_555 1_555
H27 C18 1_555 1_555
H28 C18 1_555 1_555
Mn1G N1G 1_555 1_555
Mn1E N1E 1_555 1_555
Mn1D N1D 1_555 1_555
Mn1E_2 N4 1_555 1_555
Mn1D_2 N5 1_555 1_555
Mn1G_2 N6 1_555 1_555
Mn1C N4G 1_555 1_555
Mn1B N5G 1_555 1_555
Mn1C_2 N2C 1_555 1_555
Mn1B_2 N3B 1_555 1_555
Mn1_2 N1_2 1_555 1_555
N1G C3G 1_555 1_555
N1_2 C3_2 1_555 1_555
N1E C3E 1_555 1_555
N2E Mn1E 1_555 1_555
N2G Mn1G 1_555 1_555
N2C C5C 1_555 1_555
N2D Mn1D 1_555 1_555
N3D Mn1D 1_555 1_555
N3G Mn1G 1_555 1_555
N3B C1B 1_555 1_555
N3E Mn1E 1_555 1_555
N4E Mn1 1_555 1_555
N4G C6G 1_555 1_555
N4C Mn1G 1_555 1_555
N4_2 Mn1E 1_555 1_555
N4A Mn1D 1_555 1_555
N5D Mn1 1_555 1_555
N5G C2G 1_555 1_555
N5B Mn1G 1_555 1_555
N5A Mn1E 1_555 1_555
N5_2 Mn1D 1_555 1_555
N6G Mn1 1_555 1_555
N6_2 Mn1G 1_555 1_555
N6E Mn1B 1_555 1_555
N6B Mn1E 1_555 1_555
N6C Mn1D 1_555 1_555
C1D N3D 1_555 1_555
C1G N3G 1_555 1_555
C1B N9B 1_555 1_555
C2D N5D 1_555 1_555
C2G N9G 1_555 1_555
C2B N5B 1_555 1_555
N7G C3G 1_555 1_555
N7_2 C3_2 1_555 1_555
N7E C3E 1_555 1_555
C4G N6G 1_555 1_555
C4_2 N6_2 1_555 1_555
C4E N6E 1_555 1_555
N8E C5E 1_555 1_555
N8G C5G 1_555 1_555
N8C C5C 1_555 1_555
C5E N2E 1_555 1_555
C5G N2G 1_555 1_555
C6E N4E 1_555 1_555
C6G N8G 1_555 1_555
C6C N4C 1_555 1_555
N9D C1D 1_555 1_555
N9G C1G 1_555 1_555
N9B C2B 1_555 1_555
C7A N10 1_555 1_555
C7B N10 1_555 1_555
C7C N10 1_555 1_555
H1A C7A 1_555 1_555
H1B C7B 1_555 1_555
H1C C7C 1_555 1_555
H2A C7A 1_555 1_555
H2B C7B 1_555 1_555
H2C C7C 1_555 1_555
C8A C7A 1_555 1_555
C8B C7B 1_555 1_555
C8C C7C 1_555 1_555
H3A C8A 1_555 1_555
H3B C8B 1_555 1_555
H3C C8C 1_555 1_555
H4A C8A 1_555 1_555
H4B C8B 1_555 1_555
H4C C8C 1_555 1_555
C9A C8A 1_555 1_555
C9B C8B 1_555 1_555
C9C C8C 1_555 1_555
H5A C9A 1_555 1_555
H5B C9B 1_555 1_555
H5C C9C 1_555 1_555
H6A C9A 1_555 1_555
H6B C9B 1_555 1_555
H6C C9C 1_555 1_555
H7A C9A 1_555 1_555
H7B C9B 1_555 1_555
H7C C9C 1_555 1_555
C10A N11 1_555 1_555
H8A C10A 1_555 1_555
H9A C10A 1_555 1_555
C11A C10A 1_555 1_555
H10A C11A 1_555 1_555
H11A C11A 1_555 1_555
C12A C11A 1_555 1_555
H12A C12A 1_555 1_555
H13A C12A 1_555 1_555
H14A C12A 1_555 1_555
C13A N11 1_555 1_555
H15A C13A 1_555 1_555
H16A C13A 1_555 1_555
C14A C13A 1_555 1_555
H17A C14A 1_555 1_555
H18A C14A 1_555 1_555
C15A C14A 1_555 1_555
H19A C15A 1_555 1_555
H20A C15A 1_555 1_555
H21A C15A 1_555 1_555
C16A N12 1_555 1_555
C16B N12 1_555 1_555
C16C N12 1_555 1_555
H22A C16A 1_555 1_555
H22B C16B 1_555 1_555
H22C C16C 1_555 1_555
H23A C16A 1_555 1_555
H23B C16B 1_555 1_555
H23C C16C 1_555 1_555
C17A C16A 1_555 1_555
C17B C16B 1_555 1_555
C17C C16C 1_555 1_555
H24A C17A 1_555 1_555
H24B C17B 1_555 1_555
H24C C17C 1_555 1_555
H25A C17A 1_555 1_555
H25B C17B 1_555 1_555
H25C C17C 1_555 1_555
C18A C17A 1_555 1_555
C18B C17B 1_555 1_555
C18C C17C 1_555 1_555
H26A C18A 1_555 1_555
H26B C18B 1_555 1_555
H26C C18C 1_555 1_555
H27A C18A 1_555 1_555
H27B C18B 1_555 1_555
H27C C18C 1_555 1_555
H28A C18A 1_555 1_555
H28B C18B 1_555 1_555
H28C C18C 1_555 1_555
C2D N9D 1_555 1_555
N7G C4G 1_555 1_555
N7_2 C4_2 1_555 1_555
N7E C4E 1_555 1_555
N8E C6E 1_555 1_555
N8C C6C 1_555 1_555

#END
