
#######################################################################
#
#                 Cambridge Crystallographic Data Centre
#                                CCDC 
#
#######################################################################
#
# If this CIF has been generated from an entry in the Cambridge 
# Structural Database, then it will include bibliographic, chemical, 
# crystal, experimental, refinement or atomic coordinate data resulting 
# from the CCDC's data processing and validation procedures.
#
#######################################################################

data_GANBED01
_chemical_formula_moiety         '(C60 H84 N39 Ni4 1-)n'
_symmetry_cell_setting           tetragonal
_symmetry_space_group_name_H-M   'P -4 21 c'
_symmetry_Int_Tables_number      114
_space_group_name_Hall           'P -4 2n'
loop_
_symmetry_equiv_pos_site_id
_symmetry_equiv_pos_as_xyz
1 x,y,z
2 -x,-y,z
3 -y,x,-z
4 y,-x,-z
5 1/2-x,1/2+y,1/2-z
6 1/2+x,1/2-y,1/2-z
7 1/2+y,1/2+x,1/2+z
8 1/2-y,1/2-x,1/2+z
_cell_length_a                   16.0985(3)
_cell_length_b                   16.0985(3)
_cell_length_c                   17.0287(8)
_cell_angle_alpha                90
_cell_angle_beta                 90
_cell_angle_gamma                90
_cell_volume                     4413.19
loop_
_atom_site_label
_atom_site_type_symbol
_atom_site_fract_x
_atom_site_fract_y
_atom_site_fract_z
Ni1 Ni 0.25225(4) 0.27109(3) 0.27717(3)
N1 N 0.2719(3) 0.2809(4) 0.1566(3)
C1 C 0.2866(4) 0.2813(6) 0.0923(3)
N2 N 0.3080(3) 0.3866(3) 0.2909(3)
C2 C 0.3335(3) 0.4526(3) 0.2826(3)
N3 N 0.1355(3) 0.3275(3) 0.2623(3)
C3 C 0.0692(4) 0.3421(3) 0.2453(4)
N4 N -0.1311(3) 0.2880(3) 0.2134(4)
C4 C -0.0699(4) 0.3225(4) 0.2195(7)
N5 N 0.3043(3) 0.6549(3) 0.2389(3)
C5 C 0.3309(3) 0.5919(3) 0.2552(3)
N6 N 0.2426(3) 0.2647(3) -0.1030(2)
C6 C 0.2731(6) 0.2743(5) -0.0425(4)
N7 N 0.3104(7) 0.3044(8) 0.0203(6)
N8 N 0.3709(3) 0.5228(3) 0.2747(5)
N9 N -0.0029(4) 0.3693(4) 0.2212(8)
Ni1G Ni 0.22891(3) 0.24775(4) 0.77717(3)
Ni1D Ni 0.24775(4) -0.22891(3) 0.22283(3)
Ni1E Ni 0.75225(4) 0.22891(3) 0.22283(3)
Ni1E_2 Ni -0.24775(4) 0.22891(3) 0.22283(3)
Ni1D_2 Ni 0.24775(4) 0.77109(3) 0.22283(3)
Ni1G_2 Ni 0.22891(3) 0.24775(4) -0.22283(3)
Ni1B Ni -0.27109(3) 0.25225(4) 0.72283(3)
Ni1C Ni 0.27109(3) 0.74775(4) 0.72283(3)
Ni1C_2 Ni 0.27109(3) -0.25225(4) 0.72283(3)
Ni1B_2 Ni 0.72891(3) 0.25225(4) 0.72283(3)
Ni1_2 Ni 0.25225(4) 0.27109(3) 1.27717(3)
N1G N 0.2191(4) 0.2281(3) 0.6566(3)
N1_2 N 0.2719(3) 0.2809(4) 1.1566(3)
N1D N 0.2281(3) -0.2191(4) 0.3434(3)
N1E N 0.7719(3) 0.2191(4) 0.3434(3)
C1G C 0.2187(6) 0.2134(4) 0.5923(3)
C1_2 C 0.2866(4) 0.2813(6) 1.0923(3)
C1D C 0.2134(4) -0.2187(6) 0.4077(3)
N2D N 0.1920(3) -0.1134(3) 0.2091(3)
N2G N 0.1134(3) 0.1920(3) 0.7909(3)
N2B N 0.6134(3) 0.3080(3) 0.7091(3)
N2E N 0.8080(3) 0.1134(3) 0.2091(3)
C2D C 0.1665(3) -0.0474(3) 0.2174(3)
C2G C 0.0474(3) 0.1665(3) 0.7826(3)
C2B C 0.5474(3) 0.3335(3) 0.7174(3)
N3E N 0.6355(3) 0.1725(3) 0.2377(3)
N3G N 0.1725(3) 0.3645(3) 0.7623(3)
N3C N 0.3275(3) -0.1355(3) 0.7377(3)
N3D N 0.3645(3) -0.1725(3) 0.2377(3)
C3E C 0.5692(4) 0.1579(3) 0.2547(4)
C3G C 0.1579(3) 0.4308(4) 0.7453(4)
C3C C 0.3421(3) -0.0692(4) 0.7547(4)
N4E N 0.3689(3) 0.2120(3) 0.2866(4)
N4G N 0.2120(3) 0.6311(3) 0.7134(4)
N4C N 0.2880(3) 0.1311(3) 0.7866(4)
N4A N 0.1311(3) -0.2880(3) 0.2134(4)
N4_2 N 0.8689(3) 0.2880(3) 0.2134(4)
C4E C 0.4301(4) 0.1775(4) 0.2805(7)
C4G C 0.1775(4) 0.5699(4) 0.7195(7)
C4C C 0.3225(4) 0.0699(4) 0.7805(7)
N5D N 0.1957(3) 0.1549(3) 0.2611(3)
N5G N -0.1549(3) 0.1957(3) 0.7389(3)
N5B N 0.3451(3) 0.3043(3) 0.7611(3)
N5_2 N 0.3043(3) -0.3451(3) 0.2389(3)
N5A N 0.6957(3) 0.3451(3) 0.2389(3)
C5D C 0.1691(3) 0.0919(3) 0.2448(3)
C5G C -0.0919(3) 0.1691(3) 0.7552(3)
C5B C 0.4081(3) 0.3309(3) 0.7448(3)
N6G N 0.2353(3) 0.2574(3) 0.3970(2)
N6_2 N 0.2426(3) 0.2647(3) 0.8970(2)
N6D N 0.2574(3) -0.2353(3) 0.6030(2)
N6C N 0.2647(3) -0.2426(3) 0.1030(2)
N6B N 0.7353(3) 0.2426(3) 0.1030(2)
C6G C 0.2257(5) 0.2269(6) 0.4575(4)
C6_2 C 0.2731(6) 0.2743(5) 0.9575(4)
C6D C 0.2269(6) -0.2257(5) 0.5425(4)
N7G N 0.1956(8) 0.1896(7) 0.5203(6)
N7_2 N 0.3104(7) 0.3044(8) 1.0203(6)
N7D N 0.1896(7) -0.1956(8) 0.4797(6)
N8D N 0.1291(3) 0.0228(3) 0.2253(5)
N8G N -0.0228(3) 0.1291(3) 0.7747(5)
N8B N 0.4772(3) 0.3709(3) 0.7253(5)
N9E N 0.4971(4) 0.1307(4) 0.2788(8)
N9G N 0.1307(4) 0.5029(4) 0.7212(8)
N9C N 0.3693(4) 0.0029(4) 0.7788(8)
N10 N 0.0000 0.5000 0.4979(4)
C7 C -0.0693(7) 0.4643(9) 0.4483(7)
H1 H -0.0880 0.4160 0.4796
H2 H -0.1140 0.5061 0.4541
C8 C -0.0786(8) 0.4395(9) 0.3783(8)
H3 H -0.0617 0.3804 0.3749
H4 H -0.0416 0.4719 0.3435
C9 C -0.1671(9) 0.4480(11) 0.3496(10)
H5 H -0.1720 0.4235 0.2971
H6 H -0.1822 0.5069 0.3473
H7 H -0.2046 0.4190 0.3858
C10 C 0.0014(9) 0.4308(7) 0.5659(7)
H8 H 0.0411 0.4490 0.6067
H9 H -0.0544 0.4292 0.5904
C11 C 0.0244(10) 0.3422(8) 0.5417(8)
H10 H -0.0093 0.3257 0.4956
H11 H 0.0836 0.3406 0.5260
C12 C 0.0105(13) 0.2815(11) 0.6065(12)
H12 H 0.0280 0.2261 0.5894
H13 H -0.0487 0.2804 0.6201
H14 H 0.0429 0.2981 0.6526
C7A C 0.0693(7) 0.5357(9) 0.4483(7)
H1A H 0.0880 0.5840 0.4796
H2A H 0.1140 0.4939 0.4541
C8A C 0.0786(8) 0.5605(9) 0.3783(8)
H3A H 0.0617 0.6196 0.3749
H4A H 0.0416 0.5281 0.3435
C9A C 0.1671(9) 0.5520(11) 0.3496(10)
H5A H 0.1720 0.5765 0.2971
H6A H 0.1822 0.4931 0.3473
H7A H 0.2046 0.5810 0.3858
C10A C -0.0014(9) 0.5692(7) 0.5659(7)
H8A H -0.0411 0.5510 0.6067
H9A H 0.0544 0.5708 0.5904
C11A C -0.0244(10) 0.6578(8) 0.5417(8)
H10A H 0.0093 0.6743 0.4956
H11A H -0.0836 0.6594 0.5260
C12A C -0.0105(13) 0.7185(11) 0.6065(12)
H12A H -0.0280 0.7739 0.5894
H13A H 0.0487 0.7196 0.6201
H14A H -0.0429 0.7019 0.6526
N11 N 0.0000 0.0000 0.0000
C13 C 0.0255(8) 0.0707(7) 0.0548(5)
H15 H -0.0233 0.0876 0.0864
H16 H 0.0686 0.0502 0.0914
C14 C 0.0587(8) 0.1459(8) 0.0116(6)
H17 H 0.0183 0.1647 -0.0285
H18 H 0.1116 0.1320 -0.0151
C15 C 0.0730(8) 0.2151(8) 0.0736(7)
H19 H 0.0944 0.2650 0.0476
H20 H 0.1134 0.1959 0.1127
H21 H 0.0203 0.2281 0.0997
C13A C -0.0255(8) -0.0707(7) 0.0548(5)
C13B C -0.0707(7) 0.0255(8) -0.0548(5)
C13C C 0.0707(7) -0.0255(8) -0.0548(5)
H15A H 0.0233 -0.0876 0.0864
H15B H -0.0876 -0.0233 -0.0864
H15C H 0.0876 0.0233 -0.0864
H16A H -0.0686 -0.0502 0.0914
H16B H -0.0502 0.0686 -0.0914
H16C H 0.0502 -0.0686 -0.0914
C14A C -0.0587(8) -0.1459(8) 0.0116(6)
C14B C -0.1459(8) 0.0587(8) -0.0116(6)
C14C C 0.1459(8) -0.0587(8) -0.0116(6)
H17A H -0.0183 -0.1647 -0.0285
H17B H -0.1647 0.0183 0.0285
H17C H 0.1647 -0.0183 0.0285
H18A H -0.1116 -0.1320 -0.0151
H18B H -0.1320 0.1116 0.0151
H18C H 0.1320 -0.1116 0.0151
C15A C -0.0730(8) -0.2151(8) 0.0736(7)
C15B C -0.2151(8) 0.0730(8) -0.0736(7)
C15C C 0.2151(8) -0.0730(8) -0.0736(7)
H19A H -0.0944 -0.2650 0.0476
H19B H -0.2650 0.0944 -0.0476
H19C H 0.2650 -0.0944 -0.0476
H20A H -0.1134 -0.1959 0.1127
H20B H -0.1959 0.1134 -0.1127
H20C H 0.1959 -0.1134 -0.1127
H21A H -0.0203 -0.2281 0.0997
H21B H -0.2281 0.0203 -0.0997
H21C H 0.2281 -0.0203 -0.0997
N12 N 0.5000 0.5000 0.0000
C16 C 0.4271(4) 0.5289(4) -0.0506(4)
H22 H 0.3800 0.5425 -0.0155
H23 H 0.4435 0.5808 -0.0777
C17 C 0.3975(5) 0.4683(4) -0.1111(4)
H24 H 0.3787 0.4165 -0.0854
H25 H 0.4433 0.4545 -0.1476
C18 C 0.3252(5) 0.5080(5) -0.1565(4)
H26 H 0.3039 0.4684 -0.1953
H27 H 0.3448 0.5582 -0.1833
H28 H 0.2807 0.5228 -0.1197
C16A C 0.5729(4) 0.4711(4) -0.0506(4)
C16B C 0.4711(4) 0.4271(4) 0.0506(4)
C16C C 0.5289(4) 0.5729(4) 0.0506(4)
H22A H 0.6200 0.4575 -0.0155
H22B H 0.4575 0.3800 0.0155
H22C H 0.5425 0.6200 0.0155
H23A H 0.5565 0.4192 -0.0777
H23B H 0.4192 0.4435 0.0777
H23C H 0.5808 0.5565 0.0777
C17A C 0.6025(5) 0.5317(4) -0.1111(4)
C17B C 0.5317(4) 0.3975(5) 0.1111(4)
C17C C 0.4683(4) 0.6025(5) 0.1111(4)
H24A H 0.6213 0.5835 -0.0854
H24B H 0.5835 0.3787 0.0854
H24C H 0.4165 0.6213 0.0854
H25A H 0.5567 0.5455 -0.1476
H25B H 0.5455 0.4433 0.1476
H25C H 0.4545 0.5567 0.1476
C18A C 0.6748(5) 0.4920(5) -0.1565(4)
C18B C 0.4920(5) 0.3252(5) 0.1565(4)
C18C C 0.5080(5) 0.6748(5) 0.1565(4)
H26A H 0.6961 0.5316 -0.1953
H26B H 0.5316 0.3039 0.1953
H26C H 0.4684 0.6961 0.1953
H27A H 0.6552 0.4418 -0.1833
H27B H 0.4418 0.3448 0.1833
H27C H 0.5582 0.6552 0.1833
H28A H 0.7193 0.4772 -0.1197
H28B H 0.4772 0.2807 0.1197
H28C H 0.5228 0.7193 0.1197
loop_
_geom_bond_atom_site_label_1
_geom_bond_atom_site_label_2
_geom_bond_site_symmetry_1
_geom_bond_site_symmetry_2
Ni1 N1 1_555 1_555
N1 C1 1_555 1_555
C1 N7 1_555 1_555
N2 Ni1 1_555 1_555
C2 N2 1_555 1_555
N3 Ni1 1_555 1_555
C3 N3 1_555 1_555
N4 C4 1_555 1_555
C4 N9 1_555 1_555
N5 C5 1_555 1_555
C5 N8 1_555 1_555
N6 C6 1_555 1_555
C6 N7 1_555 1_555
N8 C2 1_555 1_555
N9 C3 1_555 1_555
N10 C7 1_555 1_555
C7 H1 1_555 1_555
H2 C7 1_555 1_555
C8 C7 1_555 1_555
H3 C8 1_555 1_555
H4 C8 1_555 1_555
C9 C8 1_555 1_555
H5 C9 1_555 1_555
H6 C9 1_555 1_555
H7 C9 1_555 1_555
C10 N10 1_555 1_555
H8 C10 1_555 1_555
H9 C10 1_555 1_555
C11 C10 1_555 1_555
H10 C11 1_555 1_555
H11 C11 1_555 1_555
C12 C11 1_555 1_555
H12 C12 1_555 1_555
H13 C12 1_555 1_555
H14 C12 1_555 1_555
N11 C13 1_555 1_555
C13 H15 1_555 1_555
H16 C13 1_555 1_555
C14 C13 1_555 1_555
H17 C14 1_555 1_555
H18 C14 1_555 1_555
C15 C14 1_555 1_555
H19 C15 1_555 1_555
H20 C15 1_555 1_555
H21 C15 1_555 1_555
N12 C16 1_555 1_555
C16 H22 1_555 1_555
H23 C16 1_555 1_555
C17 C16 1_555 1_555
H24 C17 1_555 1_555
H25 C17 1_555 1_555
C18 C17 1_555 1_555
H26 C18 1_555 1_555
H27 C18 1_555 1_555
H28 C18 1_555 1_555
Ni1G N1G 1_555 1_555
Ni1D N1D 1_555 1_555
Ni1E N1E 1_555 1_555
Ni1E_2 N4 1_555 1_555
Ni1D_2 N5 1_555 1_555
Ni1G_2 N6 1_555 1_555
Ni1B N5G 1_555 1_555
Ni1C N4G 1_555 1_555
Ni1C_2 N3C 1_555 1_555
Ni1B_2 N2B 1_555 1_555
Ni1_2 N1_2 1_555 1_555
N1G C1G 1_555 1_555
N1_2 C1_2 1_555 1_555
N1D C1D 1_555 1_555
C1G N7G 1_555 1_555
C1_2 N7_2 1_555 1_555
C1D N7D 1_555 1_555
N2D Ni1D 1_555 1_555
N2G Ni1G 1_555 1_555
N2B C2B 1_555 1_555
N2E Ni1E 1_555 1_555
C2D N2D 1_555 1_555
C2G N2G 1_555 1_555
C2B N8B 1_555 1_555
N3E Ni1E 1_555 1_555
N3G Ni1G 1_555 1_555
N3C C3C 1_555 1_555
N3D Ni1D 1_555 1_555
C3E N3E 1_555 1_555
C3G N3G 1_555 1_555
C3C N9C 1_555 1_555
N4E Ni1 1_555 1_555
N4G C4G 1_555 1_555
N4C Ni1G 1_555 1_555
N4A Ni1D 1_555 1_555
N4_2 Ni1E 1_555 1_555
C4E N4E 1_555 1_555
C4G N9G 1_555 1_555
C4C N4C 1_555 1_555
N5D Ni1 1_555 1_555
N5G C5G 1_555 1_555
N5B Ni1G 1_555 1_555
N5_2 Ni1D 1_555 1_555
N5A Ni1E 1_555 1_555
C5D N5D 1_555 1_555
C5G N8G 1_555 1_555
C5B N5B 1_555 1_555
N6G Ni1 1_555 1_555
N6_2 Ni1G 1_555 1_555
N6D Ni1C_2 1_555 1_555
N6C Ni1D 1_555 1_555
N6B Ni1E 1_555 1_555
C6G N6G 1_555 1_555
C6_2 N6_2 1_555 1_555
C6D N6D 1_555 1_555
N7G C6G 1_555 1_555
N7_2 C6_2 1_555 1_555
N7D C6D 1_555 1_555
N8D C2D 1_555 1_555
N8G C2G 1_555 1_555
N8B C5B 1_555 1_555
N9E C3E 1_555 1_555
N9G C3G 1_555 1_555
N9C C4C 1_555 1_555
C7A N10 1_555 1_555
H1A C7A 1_555 1_555
H2A C7A 1_555 1_555
C8A C7A 1_555 1_555
H3A C8A 1_555 1_555
H4A C8A 1_555 1_555
C9A C8A 1_555 1_555
H5A C9A 1_555 1_555
H6A C9A 1_555 1_555
H7A C9A 1_555 1_555
C10A N10 1_555 1_555
H8A C10A 1_555 1_555
H9A C10A 1_555 1_555
C11A C10A 1_555 1_555
H10A C11A 1_555 1_555
H11A C11A 1_555 1_555
C12A C11A 1_555 1_555
H12A C12A 1_555 1_555
H13A C12A 1_555 1_555
H14A C12A 1_555 1_555
C13A N11 1_555 1_555
C13B N11 1_555 1_555
C13C N11 1_555 1_555
H15A C13A 1_555 1_555
H15B C13B 1_555 1_555
H15C C13C 1_555 1_555
H16A C13A 1_555 1_555
H16B C13B 1_555 1_555
H16C C13C 1_555 1_555
C14A C13A 1_555 1_555
C14B C13B 1_555 1_555
C14C C13C 1_555 1_555
H17A C14A 1_555 1_555
H17B C14B 1_555 1_555
H17C C14C 1_555 1_555
H18A C14A 1_555 1_555
H18B C14B 1_555 1_555
H18C C14C 1_555 1_555
C15A C14A 1_555 1_555
C15B C14B 1_555 1_555
C15C C14C 1_555 1_555
H19A C15A 1_555 1_555
H19B C15B 1_555 1_555
H19C C15C 1_555 1_555
H20A C15A 1_555 1_555
H20B C15B 1_555 1_555
H20C C15C 1_555 1_555
H21A C15A 1_555 1_555
H21B C15B 1_555 1_555
H21C C15C 1_555 1_555
C16A N12 1_555 1_555
C16B N12 1_555 1_555
C16C N12 1_555 1_555
H22A C16A 1_555 1_555
H22B C16B 1_555 1_555
H22C C16C 1_555 1_555
H23A C16A 1_555 1_555
H23B C16B 1_555 1_555
H23C C16C 1_555 1_555
C17A C16A 1_555 1_555
C17B C16B 1_555 1_555
C17C C16C 1_555 1_555
H24A C17A 1_555 1_555
H24B C17B 1_555 1_555
H24C C17C 1_555 1_555
H25A C17A 1_555 1_555
H25B C17B 1_555 1_555
H25C C17C 1_555 1_555
C18A C17A 1_555 1_555
C18B C17B 1_555 1_555
C18C C17C 1_555 1_555
H26A C18A 1_555 1_555
H26B C18B 1_555 1_555
H26C C18C 1_555 1_555
H27A C18A 1_555 1_555
H27B C18B 1_555 1_555
H27C C18C 1_555 1_555
H28A C18A 1_555 1_555
H28B C18B 1_555 1_555
H28C C18C 1_555 1_555
C4E N9E 1_555 1_555
C5D N8D 1_555 1_555

#END
