
#######################################################################
#
#                 Cambridge Crystallographic Data Centre
#                                CCDC 
#
#######################################################################
#
# If this CIF has been generated from an entry in the Cambridge 
# Structural Database, then it will include bibliographic, chemical, 
# crystal, experimental, refinement or atomic coordinate data resulting 
# from the CCDC's data processing and validation procedures.
#
#######################################################################

data_HEHCOO
_chemical_formula_moiety         '(C68 H48 Cd2 Cl2 Co2 N20 O10)n'
_symmetry_cell_setting           trigonal
_symmetry_space_group_name_H-M   'P 31 2 1'
_symmetry_Int_Tables_number      152
_space_group_name_Hall           'P 31 2"'
loop_
_symmetry_equiv_pos_site_id
_symmetry_equiv_pos_as_xyz
1 x,y,z
2 -y,x-y,1/3+z
3 -x+y,-x,2/3+z
4 y,x,-z
5 -x,-x+y,1/3-z
6 x-y,-y,2/3-z
_cell_length_a                   21.858(4)
_cell_length_b                   21.858(4)
_cell_length_c                   23.333(5)
_cell_angle_alpha                90
_cell_angle_beta                 90
_cell_angle_gamma                120
_cell_volume                     9654.33
loop_
_atom_site_label
_atom_site_type_symbol
_atom_site_fract_x
_atom_site_fract_y
_atom_site_fract_z
Cd1 Cd 0.40648(4) 0.53599(4) 0.12868(3)
Co1 Co 0.47385(8) 0.36371(6) 0.14712(5)
Cl1 Cl 0.33547(19) 0.55130(16) 0.20429(14)
O1 O 0.3720(8) 0.3971(6) 0.2774(5)
O2 O 0.3965(5) 0.1686(4) 0.0798(4)
O3 O 0.4662(4) 0.5123(3) 0.0522(3)
O4 O 0.6591(5) 0.3959(5) 0.2118(5)
N1 N 0.4968(6) 0.5394(5) 0.1958(3)
N2 N 0.4547(6) 0.4167(5) 0.2059(3)
N3 N 0.3919(5) 0.2899(5) 0.1774(3)
N4 N 0.4645(5) 0.2875(4) 0.0953(3)
N5 N 0.5425(5) 0.3382(5) -0.0478(4)
N6 N 0.3368(5) 0.4156(4) 0.1131(4)
N7 N 0.4337(4) 0.4016(4) 0.0920(3)
N8 N 0.5578(5) 0.4407(4) 0.1228(3)
N9 N 0.5401(6) 0.3510(5) 0.1960(4)
N10 N 0.5225(5) 0.1785(4) 0.2284(3)
C1 C 0.5452(7) 0.6062(7) 0.2078(6)
H1 H 0.5462 0.6435 0.1862
C2 C 0.5928(12) 0.6214(8) 0.2501(7)
H2 H 0.6203 0.6684 0.2637
C3 C 0.6013(14) 0.5681(11) 0.2733(10)
H3 H 0.6410 0.5782 0.2964
C4 C 0.5515(13) 0.5018(9) 0.2622(6)
H4 H 0.5521 0.4643 0.2823
C5 C 0.4974(10) 0.4854(9) 0.2211(5)
C6 C 0.3974(10) 0.3775(8) 0.2378(5)
C7 C 0.3590(10) 0.3016(8) 0.2197(5)
C8 C 0.3014(13) 0.2501(13) 0.2471(8)
H5 H 0.2794 0.2592 0.2785
C9 C 0.2762(12) 0.1794(9) 0.2242(9)
H6 H 0.2356 0.1399 0.2400
C10 C 0.3135(10) 0.1702(7) 0.1774(7)
H7 H 0.2988 0.1245 0.1623
C11 C 0.3687(7) 0.2266(6) 0.1556(5)
C12 C 0.4135(7) 0.2264(6) 0.1045(4)
C13 C 0.5098(6) 0.2974(5) 0.0469(4)
C14 C 0.5502(9) 0.2668(8) 0.0446(5)
H8 H 0.5510 0.2399 0.0763
C15 C 0.5883(12) 0.2738(10) -0.0010(6)
H9 H 0.6168 0.2523 -0.0024
C16 C 0.5865(7) 0.3147(7) -0.0492(4)
H10 H 0.6169 0.3241 -0.0811
C17 C 0.5054(5) 0.3314(5) -0.0018(4)
H11 H 0.4745 0.3503 -0.0017
C18 C 0.2663(8) 0.3896(8) 0.1180(6)
H12 H 0.2491 0.4183 0.1336
C19 C 0.2171(9) 0.3187(9) 0.0995(8)
H13 H 0.1678 0.2992 0.1053
C20 C 0.2426(9) 0.2797(7) 0.0734(7)
H14 H 0.2113 0.2343 0.0581
C21 C 0.3157(7) 0.3083(6) 0.0700(5)
H15 H 0.3346 0.2814 0.0539
C22 C 0.3607(7) 0.3765(6) 0.0902(4)
C23 C 0.4797(6) 0.4685(5) 0.0756(3)
C24 C 0.5522(5) 0.4876(4) 0.0906(4)
C25 C 0.6143(6) 0.5521(5) 0.0752(4)
H16 H 0.6123 0.5859 0.0509
C26 C 0.6775(7) 0.5626(6) 0.0977(5)
H17 H 0.7210 0.6029 0.0870
C27 C 0.6768(7) 0.5138(6) 0.1361(5)
H18 H 0.7191 0.5244 0.1556
C28 C 0.6210(7) 0.4552(6) 0.1458(5)
C29 C 0.6084(8) 0.3962(6) 0.1887(5)
C30 C 0.4776(7) 0.1573(6) 0.2738(5)
H19 H 0.4619 0.1118 0.2898
C31 C 0.4543(9) 0.1993(6) 0.2972(5)
H20 H 0.4231 0.1831 0.3291
C32 C 0.4765(8) 0.2662(6) 0.2739(5)
H21 H 0.4631 0.2973 0.2909
C33 C 0.5191(6) 0.2860(5) 0.2247(4)
C34 C 0.5429(6) 0.2426(6) 0.2056(4)
H22 H 0.5755 0.2583 0.1746
Cd1D Cd 0.59352(4) 1.12951(6) 0.20465(3)
Cd1C Cd 0.53599(4) 0.40648(4) -0.12868(3)
Cd1D_2 Cd 0.59352(4) 0.12951(6) 0.20465(3)
Co1C Co 0.36371(6) 0.47385(8) -0.14712(5)
Co1D Co 0.52615(8) 0.88986(10) 0.18621(5)
Cl1D Cl 0.66453(19) 1.21583(25) 0.12904(14)
O1C O 0.3971(6) 0.3720(8) -0.2774(5)
O2C O 0.1686(4) 0.3965(5) -0.0798(4)
O3D O 0.5338(4) 1.0461(5) 0.2811(3)
O4D O 0.3409(5) 0.7368(7) 0.1215(5)
N1C N 0.5394(5) 0.4968(6) -0.1958(3)
N1D N 0.5032(6) 1.0426(8) 0.1375(3)
N2C N 0.4167(5) 0.4547(6) -0.2059(3)
N3C N 0.2899(5) 0.3919(5) -0.1774(3)
N4C N 0.2875(4) 0.4645(5) -0.0953(3)
N5C N 0.3382(5) 0.5425(5) 0.0478(4)
N5A N 0.6618(5) 1.2043(7) 0.2855(4)
N6D N 0.6632(5) 1.0788(6) 0.2202(4)
N7D N 0.5663(4) 0.9679(6) 0.2413(3)
N7C N 0.4016(4) 0.4337(4) -0.0920(3)
N8D N 0.4422(5) 0.8829(6) 0.2105(3)
N8C N 0.4407(4) 0.5578(5) -0.1228(3)
N9D N 0.4599(6) 0.8109(8) 0.1373(4)
N9C N 0.3510(5) 0.5401(6) -0.1960(4)
N10D N 0.4775(5) 0.6560(6) 0.1049(3)
N10_2 N 0.5225(5) 1.1785(4) 0.2284(3)
C1C C 0.6062(7) 0.5452(7) -0.2078(6)
H1C H 0.6435 0.5462 -0.1862
C2C C 0.6214(8) 0.5928(12) -0.2501(7)
H2C H 0.6684 0.6203 -0.2637
C3C C 0.5681(11) 0.6013(14) -0.2733(10)
H3C H 0.5782 0.6410 -0.2964
C4C C 0.5018(9) 0.5515(13) -0.2622(6)
H4C H 0.4643 0.5521 -0.2823
C5C C 0.4854(9) 0.4974(10) -0.2211(5)
C6C C 0.3775(8) 0.3974(10) -0.2378(5)
C7C C 0.3016(8) 0.3590(10) -0.2197(5)
C8C C 0.2501(13) 0.3014(13) -0.2471(8)
H5C H 0.2592 0.2794 -0.2785
C9C C 0.1794(9) 0.2762(12) -0.2242(9)
H6C H 0.1399 0.2356 -0.2400
C10C C 0.1702(7) 0.3135(10) -0.1774(7)
H7C H 0.1245 0.2988 -0.1623
C11C C 0.2266(6) 0.3687(7) -0.1556(5)
C12C C 0.2264(6) 0.4135(7) -0.1045(4)
C13C C 0.2974(5) 0.5098(6) -0.0469(4)
C14C C 0.2668(8) 0.5502(9) -0.0446(5)
H8C H 0.2399 0.5510 -0.0763
C15C C 0.2738(10) 0.5883(12) 0.0010(6)
H9C H 0.2523 0.6168 0.0024
C16C C 0.3147(7) 0.5865(7) 0.0492(4)
H10C H 0.3241 0.6169 0.0811
C17C C 0.3314(5) 0.5054(5) 0.0018(4)
H11C H 0.3503 0.4745 0.0017
C18D C 0.7337(8) 1.1233(11) 0.2153(6)
H12D H 0.7509 1.1692 0.1997
C19D C 0.7829(9) 1.1016(13) 0.2338(8)
H13D H 0.8322 1.1314 0.2280
C20D C 0.7574(9) 1.0371(11) 0.2599(7)
H14D H 0.7887 1.0230 0.2752
C21D C 0.6843(7) 0.9926(9) 0.2633(5)
H15D H 0.6654 0.9468 0.2794
C22D C 0.6393(7) 1.0158(9) 0.2431(4)
C23D C 0.5203(6) 0.9888(8) 0.2577(3)
C24D C 0.4478(5) 0.9354(6) 0.2427(4)
C25D C 0.3857(6) 0.9378(8) 0.2581(4)
H16D H 0.3877 0.9736 0.2824
C26D C 0.3225(7) 0.8851(9) 0.2356(5)
H17D H 0.2790 0.8819 0.2463
C27D C 0.3232(7) 0.8370(9) 0.1972(5)
H18D H 0.2809 0.8053 0.1777
C28D C 0.3790(7) 0.8342(9) 0.1875(5)
C29D C 0.3916(8) 0.7878(10) 0.1446(5)
C30D C 0.5224(7) 0.6797(9) 0.0595(5)
H19D H 0.5381 0.6499 0.0435
C31D C 0.5457(9) 0.7450(11) 0.0361(5)
H20D H 0.5769 0.7600 0.0042
C32D C 0.5235(8) 0.7897(10) 0.0594(5)
H21D H 0.5369 0.8342 0.0424
C33D C 0.4809(6) 0.7669(8) 0.1086(4)
C34D C 0.4571(6) 0.6997(8) 0.1277(4)
H22D H 0.4245 0.6828 0.1587
O5 O 0.8215(6) 0.7825(7) 0.0470(5)
O6 O 0.7122(7) 0.7122(7) 0.0000
loop_
_geom_bond_atom_site_label_1
_geom_bond_atom_site_label_2
_geom_bond_site_symmetry_1
_geom_bond_site_symmetry_2
Cd1 Cl1 1_555 1_555
Co1 N2 1_555 1_555
O1 C6 1_555 1_555
O2 C12 1_555 1_555
O3 Cd1 1_555 1_555
O4 C29 1_555 1_555
N1 Cd1 1_555 1_555
N2 C5 1_555 1_555
N3 Co1 1_555 1_555
N4 Co1 1_555 1_555
N5 C16 1_555 1_555
N6 Cd1 1_555 1_555
N7 Co1 1_555 1_555
N8 Co1 1_555 1_555
N9 Co1 1_555 1_555
N10 C30 1_555 1_555
C1 N1 1_555 1_555
H1 C1 1_555 1_555
C2 C1 1_555 1_555
H2 C2 1_555 1_555
C3 C2 1_555 1_555
H3 C3 1_555 1_555
C4 C3 1_555 1_555
H4 C4 1_555 1_555
C5 N1 1_555 1_555
C6 N2 1_555 1_555
C7 N3 1_555 1_555
C8 C7 1_555 1_555
H5 C8 1_555 1_555
C9 C8 1_555 1_555
H6 C9 1_555 1_555
C10 C9 1_555 1_555
H7 C10 1_555 1_555
C11 N3 1_555 1_555
C12 N4 1_555 1_555
C13 N4 1_555 1_555
C14 C13 1_555 1_555
H8 C14 1_555 1_555
C15 C14 1_555 1_555
H9 C15 1_555 1_555
C16 C15 1_555 1_555
H10 C16 1_555 1_555
C17 N5 1_555 1_555
H11 C17 1_555 1_555
C18 N6 1_555 1_555
H12 C18 1_555 1_555
C19 C18 1_555 1_555
H13 C19 1_555 1_555
C20 C19 1_555 1_555
H14 C20 1_555 1_555
C21 C20 1_555 1_555
H15 C21 1_555 1_555
C22 N6 1_555 1_555
C23 O3 1_555 1_555
C24 N8 1_555 1_555
C25 C24 1_555 1_555
H16 C25 1_555 1_555
C26 C25 1_555 1_555
H17 C26 1_555 1_555
C27 C26 1_555 1_555
H18 C27 1_555 1_555
C28 N8 1_555 1_555
C29 N9 1_555 1_555
C30 H19 1_555 1_555
C31 C30 1_555 1_555
H20 C31 1_555 1_555
C32 C31 1_555 1_555
H21 C32 1_555 1_555
C33 N9 1_555 1_555
C34 N10 1_555 1_555
H22 C34 1_555 1_555
Cd1D Cl1D 1_555 1_555
Cd1C N5 1_555 1_555
Cd1D_2 N10 1_555 1_555
Co1C N2C 1_555 1_555
Co1D N7D 1_555 1_555
O1C C6C 1_555 1_555
O2C C12C 1_555 1_555
O3D Cd1D 1_555 1_555
O4D C29D 1_555 1_555
N1C Cd1C 1_555 1_555
N1D Cd1D 1_555 1_555
N2C C5C 1_555 1_555
N3C Co1C 1_555 1_555
N4C Co1C 1_555 1_555
N5C Cd1 1_555 1_555
N5A Cd1D 1_555 1_555
N6D Cd1D 1_555 1_555
N7D C22D 1_555 1_555
N7C Co1C 1_555 1_555
N8D Co1D 1_555 1_555
N8C Co1C 1_555 1_555
N9D Co1D 1_555 1_555
N9C Co1C 1_555 1_555
N10D Cd1 1_555 1_555
N10_2 Cd1D 1_555 1_555
C1C N1C 1_555 1_555
H1C C1C 1_555 1_555
C2C C1C 1_555 1_555
H2C C2C 1_555 1_555
C3C C2C 1_555 1_555
H3C C3C 1_555 1_555
C4C C3C 1_555 1_555
H4C C4C 1_555 1_555
C5C N1C 1_555 1_555
C6C N2C 1_555 1_555
C7C N3C 1_555 1_555
C8C C7C 1_555 1_555
H5C C8C 1_555 1_555
C9C C8C 1_555 1_555
H6C C9C 1_555 1_555
C10C C9C 1_555 1_555
H7C C10C 1_555 1_555
C11C N3C 1_555 1_555
C12C N4C 1_555 1_555
C13C N4C 1_555 1_555
C14C C13C 1_555 1_555
H8C C14C 1_555 1_555
C15C C14C 1_555 1_555
H9C C15C 1_555 1_555
C16C N5C 1_555 1_555
H10C C16C 1_555 1_555
C17C N5C 1_555 1_555
H11C C17C 1_555 1_555
C18D N6D 1_555 1_555
H12D C18D 1_555 1_555
C19D C18D 1_555 1_555
H13D C19D 1_555 1_555
C20D C19D 1_555 1_555
H14D C20D 1_555 1_555
C21D C20D 1_555 1_555
H15D C21D 1_555 1_555
C22D N6D 1_555 1_555
C23D O3D 1_555 1_555
C24D N8D 1_555 1_555
C25D C24D 1_555 1_555
H16D C25D 1_555 1_555
C26D C25D 1_555 1_555
H17D C26D 1_555 1_555
C27D C26D 1_555 1_555
H18D C27D 1_555 1_555
C28D N8D 1_555 1_555
C29D N9D 1_555 1_555
C30D N10D 1_555 1_555
H19D C30D 1_555 1_555
C31D C30D 1_555 1_555
H20D C31D 1_555 1_555
C32D C31D 1_555 1_555
H21D C32D 1_555 1_555
C33D N9D 1_555 1_555
C34D N10D 1_555 1_555
H22D C34D 1_555 1_555
N7 C22 1_555 1_555
N7 C23 1_555 1_555
C4 C5 1_555 1_555
C6 C7 1_555 1_555
C10 C11 1_555 1_555
C11 C12 1_555 1_555
C13 C17 1_555 1_555
C21 C22 1_555 1_555
C23 C24 1_555 1_555
C27 C28 1_555 1_555
C28 C29 1_555 1_555
C32 C33 1_555 1_555
C33 C34 1_555 1_555
N7D C23D 1_555 1_555
C4C C5C 1_555 1_555
C6C C7C 1_555 1_555
C10C C11C 1_555 1_555
C11C C12C 1_555 1_555
C13C C17C 1_555 1_555
C15C C16C 1_555 1_555
C21D C22D 1_555 1_555
C23D C24D 1_555 1_555
C27D C28D 1_555 1_555
C28D C29D 1_555 1_555
C32D C33D 1_555 1_555
C33D C34D 1_555 1_555

#END
