
#######################################################################
#
#                 Cambridge Crystallographic Data Centre
#                                CCDC 
#
#######################################################################
#
# If this CIF has been generated from an entry in the Cambridge 
# Structural Database, then it will include bibliographic, chemical, 
# crystal, experimental, refinement or atomic coordinate data resulting 
# from the CCDC's data processing and validation procedures.
#
#######################################################################

data_QINSUD
_chemical_formula_moiety         '(C7 H15 Mn1 N1 O6)n'
_symmetry_cell_setting           orthorhombic
_symmetry_space_group_name_H-M   'P n m a'
_symmetry_Int_Tables_number      62
_space_group_name_Hall           '-P 2ac 2n'
loop_
_symmetry_equiv_pos_site_id
_symmetry_equiv_pos_as_xyz
1 x,y,z
2 1/2-x,-y,1/2+z
3 1/2+x,1/2-y,1/2-z
4 -x,1/2+y,-z
5 -x,-y,-z
6 1/2+x,y,1/2-z
7 1/2-x,1/2+y,1/2+z
8 x,1/2-y,z
_cell_length_a                   8.926(4)
_cell_length_b                   12.767(6)
_cell_length_c                   9.196(4)
_cell_angle_alpha                90
_cell_angle_beta                 90
_cell_angle_gamma                90
_cell_volume                     1047.96
loop_
_atom_site_label
_atom_site_type_symbol
_atom_site_fract_x
_atom_site_fract_y
_atom_site_fract_z
Mn1 Mn 0.50000 0.50000 0.50000
O1 O 0.48275(14) 0.66330(9) 0.41954(13)
O2 O 0.29850(13) 0.45825(9) 0.37482(12)
O3 O 0.13485(14) 0.45849(10) 0.19299(12)
C1 C 0.4883(3) 0.75000 0.4754(3)
C2 C 0.25485(17) 0.48251(13) 0.25112(16)
H1 H 0.49830 0.75000 0.57610
H2 H 0.31980 0.52340 0.19600
O1G O 0.48275(14) 0.83670(9) 0.41954(13)
O2D O 0.70150(13) 0.54175(9) 0.62518(12)
O3D O 0.86515(14) 0.54151(10) 0.80701(12)
C2D C 0.74515(17) 0.51749(13) 0.74888(16)
H2D H 0.68020 0.47660 0.80400
Mn1A Mn 0.00000 0.50000 0.00000
Mn1A_2 Mn 1.00000 0.50000 1.00000
Mn1C Mn 0.50000 1.00000 0.50000
O1D O 0.51725(14) 0.33670(9) 0.58046(13)
O3A O 0.36515(14) 0.54151(10) 0.69299(12)
O3E O 0.63485(14) 0.45849(10) 0.30701(12)
N1 N 1.0114(2) 0.75000 0.4921(2)
C3 C 1.0293(4) 0.75000 0.6524(3)
C4 C 0.8494(3) 0.75000 0.4525(4)
C5 C 1.0830(2) 0.65471(15) 0.4312(2)
H3 H 1.13400 0.75000 0.67640
H4 H 0.98280 0.68860 0.69230
H5 H 0.83940 0.75000 0.34860
H6 H 0.80230 0.81140 0.49170
H7 H 1.18770 0.65480 0.45470
H8 H 1.07080 0.65410 0.32740
H9 H 1.03660 0.59360 0.47200
C5G C 1.0830(2) 0.84529(15) 0.4312(2)
H4G H 0.98280 0.81140 0.69230
H6G H 0.80230 0.68860 0.49170
H7G H 1.18770 0.84520 0.45470
H8G H 1.07080 0.84590 0.32740
H9G H 1.03660 0.90640 0.47200
loop_
_geom_bond_atom_site_label_1
_geom_bond_atom_site_label_2
_geom_bond_site_symmetry_1
_geom_bond_site_symmetry_2
Mn1 O1 1_555 1_555
O1 C1 1_555 1_555
O2 Mn1 1_555 1_555
O3 C2 1_555 1_555
C1 H1 1_555 1_555
C2 O2 1_555 1_555
H2 C2 1_555 1_555
N1 C3 1_555 1_555
C3 H3 1_555 1_555
C4 N1 1_555 1_555
C5 N1 1_555 1_555
H4 C3 1_555 1_555
H5 C4 1_555 1_555
H6 C4 1_555 1_555
H7 C5 1_555 1_555
H8 C5 1_555 1_555
H9 C5 1_555 1_555
O1G C1 1_555 1_555
O2D Mn1 1_555 1_555
O3D C2D 1_555 1_555
C2D O2D 1_555 1_555
H2D C2D 1_555 1_555
Mn1A O3 1_555 1_555
Mn1A_2 O3D 1_555 1_555
Mn1C O1G 1_555 1_555
O1D Mn1 1_555 1_555
O3A Mn1 1_555 1_555
O3E Mn1 1_555 1_555
C5G N1 1_555 1_555
H4G C3 1_555 1_555
H6G C4 1_555 1_555
H7G C5G 1_555 1_555
H8G C5G 1_555 1_555
H9G C5G 1_555 1_555

#END
