
#######################################################################
#
#                 Cambridge Crystallographic Data Centre
#                                CCDC 
#
#######################################################################
#
# If this CIF has been generated from an entry in the Cambridge 
# Structural Database, then it will include bibliographic, chemical, 
# crystal, experimental, refinement or atomic coordinate data resulting 
# from the CCDC's data processing and validation procedures.
#
#######################################################################

data_FAZPON
_chemical_formula_moiety         'C132 H60 Br12 O56 Zn29'
_symmetry_cell_setting           hexagonal
_symmetry_space_group_name_H-M   'P 63/m'
_symmetry_Int_Tables_number      176
_space_group_name_Hall           '-P 6c'
loop_
_symmetry_equiv_pos_site_id
_symmetry_equiv_pos_as_xyz
1 x,y,z
2 x-y,x,1/2+z
3 y,-x+y,1/2+z
4 -y,x-y,z
5 -x+y,-x,z
6 -x,-y,1/2+z
7 -x,-y,-z
8 -x+y,-x,1/2-z
9 -y,x-y,1/2-z
10 y,-x+y,-z
11 x-y,x,-z
12 x,y,1/2-z
_cell_length_a                   41.285(8)
_cell_length_b                   41.285(8)
_cell_length_c                   17.489(3)
_cell_angle_alpha                90
_cell_angle_beta                 90
_cell_angle_gamma                120
_cell_volume                     25815.5
loop_
_atom_site_label
_atom_site_type_symbol
_atom_site_fract_x
_atom_site_fract_y
_atom_site_fract_z
_atom_site_U_iso_or_equiv
_atom_site_thermal_displace_type
O1 O 0.05872(18) 0.42706(18) 0.7500 0.0537 Uiso
O2 O 0.05676(15) 0.38600(14) 0.9054(3) 0.0695 Uiso
O3 O 0.35569(14) 0.37231(14) 1.3139(3) 0.0680 Uiso
O4 O 0.1472(2) 0.4742(3) 0.7500 0.0970 Uiso
O5 O 0.1238(3) 0.5115(3) 0.7500 0.1070 Uiso
C1 C 0.1510(4) 0.5044(4) 0.7500 0.0860 Uiso
O6 O 0.11002(14) 0.40241(14) 0.8435(3) 0.0649 Uiso
O7 O 0.01609(16) 0.43294(17) 0.9000(3) 0.0866 Uiso
O8 O 0.04771(18) 0.48782(18) 0.8369(3) 0.1020 Uiso
C2 C 0.0266(2) 0.4653(3) 0.8880(5) 0.0780 Uiso
C3 C 0.0891(2) 0.3911(2) 0.8979(4) 0.0670 Uiso
C4 C 0.3415(3) 0.3705(3) 1.2500 0.0660 Uiso
C5 C 0.3055(4) 0.3700(4) 1.2500 0.0830 Uiso
C6 C 0.1872(5) 0.5389(5) 0.7500 0.1190 Uiso
C7 C 0.2183(9) 0.5352(8) 0.7500 0.2300 Uiso
H1 H 0.2156 0.5114 0.7500 0.2760 Uiso
C8 C 0.1050(3) 0.3842(2) 0.9730(5) 0.0770 Uiso
C9 C 0.0812(3) 0.3664(3) 1.0307(5) 0.1030 Uiso
H2 H 0.0557 0.3575 1.0250 0.1240 Uiso
C10 C 0.1350(3) 0.3758(2) 1.1087(5) 0.0840 Uiso
C11 C 0.1425(3) 0.3958(3) 0.9742(5) 0.1000 Uiso
H3 H 0.1569 0.4058 0.9304 0.1200 Uiso
C12 C 0.0966(3) 0.3613(3) 1.1045(5) 0.1000 Uiso
H4 H 0.0810 0.3490 1.1458 0.1200 Uiso
C13 C 0.1591(3) 0.3926(3) 1.0422(6) 0.1320 Uiso
H5 H 0.1846 0.4009 1.0445 0.1590 Uiso
C14 C 0.1518(3) 0.3718(2) 1.1798(5) 0.0880 Uiso
C15 C 0.1347(4) 0.3729(3) 1.2500 0.0910 Uiso
H6 H 0.1129 0.3742 1.2500 0.1090 Uiso
C16 C 0.2609(8) 0.6014(8) 0.7500 0.1770 Uiso
C17 C 0.2292(14) 0.6045(12) 0.7500 0.3280 Uiso
H7 H 0.2313 0.6280 0.7500 0.3940 Uiso
C18 C 0.2558(11) 0.5681(12) 0.7500 0.3030 Uiso
H8 H 0.2765 0.5648 0.7500 0.3640 Uiso
C19 C 0.3023(6) 0.6716(7) 0.7500 0.1400 Uiso
H9 H 0.2816 0.6748 0.7500 0.1680 Uiso
C20 C 0.2983(6) 0.6360(7) 0.7500 0.1450 Uiso
C21 C 0.2358(4) 0.3679(4) 1.2500 0.0970 Uiso
C22 C 0.2527(4) 0.3671(4) 1.3161(8) 0.1910 Uiso
H10 H 0.2399 0.3621 1.3623 0.2290 Uiso
C23 C 0.2906(4) 0.3742(4) 1.3141(8) 0.1890 Uiso
H11 H 0.3049 0.3818 1.3584 0.2270 Uiso
C24 C 0.0117(2) 0.4843(3) 0.9463(5) 0.0810 Uiso
C25 C -0.0023(3) 0.4657(3) 1.0122(6) 0.1100 Uiso
C26 C 0.0169(3) 0.5181(4) 0.9321(6) 0.1340 Uiso
C27 C 0.1977(13) 0.5759(15) 0.7500 0.3700 Uiso
H12 H 0.1779 0.5806 0.7500 0.4460 Uiso
Zn1 Zn 0.10430(3) 0.42440(3) 0.7500 0.0487 Uiso
Zn2 Zn 0.07014(4) 0.47795(4) 0.7500 0.0633 Uiso
Zn3 Zn 0.02891(2) 0.40103(2) 0.83975(4) 0.0512 Uiso
Br1 Br 0.02447(17) 0.54289(17) 0.8369(3) 0.1590 Uiso
Br2 Br -0.0366(7) 0.4140(8) 1.0139(14) 0.6310 Uiso
C28 C 0.1841(3) 0.3704(2) 1.1815(5) 0.0940 Uiso
H13 H 0.1962 0.3715 1.1360 0.1130 Uiso
C29 C 0.1990(4) 0.3675(4) 1.2500 0.0990 Uiso
O1C O 0.57294(18) 0.63166(25) 0.7500 0.0537 Uiso
O1D O 0.36834(25) 0.94128(18) 0.7500 0.0537 Uiso
O1_2 O 0.05872(18) 0.42706(18) 1.7500 0.0537 Uiso
O1_3 O 0.05872(18) 0.42706(18) -0.2500 0.0537 Uiso
O1B O 0.42706(18) 0.36834(25) 1.2500 0.0537 Uiso
O2K O 0.05676(15) 0.38600(14) 1.5946(3) 0.0695 Uiso
O2K_2 O 0.05676(15) 0.38600(14) 0.5946(3) 0.0695 Uiso
O2_2 O 0.05676(15) 0.38600(14) -0.0946(3) 0.0695 Uiso
O2A O -0.32924(21) 0.05676(15) 0.4054(3) 0.0695 Uiso
O2J O -0.32924(21) 0.05676(15) 1.0946(3) 0.0695 Uiso
O2B O 0.38600(14) 0.32924(21) 1.4054(3) 0.0695 Uiso
O2I O 0.38600(14) 0.32924(21) 1.0946(3) 0.0695 Uiso
O3K O 0.35569(14) 0.37231(14) 1.1861(3) 0.0680 Uiso
O3K_2 O 0.35569(14) 0.37231(14) 0.1861(3) 0.0680 Uiso
O3_2 O 0.35569(14) 0.37231(14) 0.3139(3) 0.0680 Uiso
O3A O -0.01662(20) 0.35569(14) 0.8139(3) 0.0680 Uiso
O3J O -0.01662(20) 0.35569(14) 0.6861(3) 0.0680 Uiso
O3J_2 O -0.01662(20) 0.35569(14) 1.6861(3) 0.0680 Uiso
O3A_2 O -0.01662(20) 0.35569(14) -0.1861(3) 0.0680 Uiso
O4C O 0.5258(3) 0.6730(4) 0.7500 0.0970 Uiso
O4D O 0.3270(4) 0.8528(2) 0.7500 0.0970 Uiso
O5C O 0.4885(3) 0.6123(4) 0.7500 0.1070 Uiso
O5D O 0.3877(4) 0.8762(3) 0.7500 0.1070 Uiso
C1C C 0.4956(4) 0.6466(6) 0.7500 0.0860 Uiso
C1D C 0.3534(6) 0.8490(4) 0.7500 0.0860 Uiso
O6K O 0.11002(14) 0.40241(14) 1.6565(3) 0.0649 Uiso
O6K_2 O 0.11002(14) 0.40241(14) 0.6565(3) 0.0649 Uiso
O6_2 O 0.11002(14) 0.40241(14) -0.1565(3) 0.0649 Uiso
O6A O -0.29239(20) 0.11002(14) 0.3435(3) 0.0649 Uiso
O6J O -0.29239(20) 0.11002(14) 1.1565(3) 0.0649 Uiso
O6C O 0.59759(14) 0.70761(20) 0.8435(3) 0.0649 Uiso
O6H O 0.59759(14) 0.70761(20) 0.6565(3) 0.0649 Uiso
O6D O 0.29239(20) 0.88998(14) 0.8435(3) 0.0649 Uiso
O6G O 0.29239(20) 0.88998(14) 0.6565(3) 0.0649 Uiso
O7F O -0.01609(16) 0.56706(17) 1.1000(3) 0.0866 Uiso
O7K O 0.01609(16) 0.43294(17) 0.6000(3) 0.0866 Uiso
O7E O -0.01609(16) 0.56706(17) 0.4000(3) 0.0866 Uiso
O7C O 0.56706(17) 0.58315(23) 0.9000(3) 0.0866 Uiso
O7I O 0.43294(17) 0.41685(23) 1.1000(3) 0.0866 Uiso
O7K_2 O 0.01609(16) 0.43294(17) 1.6000(3) 0.0866 Uiso
O7_2 O 0.01609(16) 0.43294(17) -0.1000(3) 0.0866 Uiso
O7B O 0.43294(17) 0.41685(23) 1.4000(3) 0.0866 Uiso
O8F O -0.04771(18) 0.51218(18) 1.1631(3) 0.1020 Uiso
O8K O 0.04771(18) 0.48782(18) 0.6631(3) 0.1020 Uiso
O8E O -0.04771(18) 0.51218(18) 0.3369(3) 0.1020 Uiso
O8C O 0.51218(18) 0.55989(25) 0.8369(3) 0.1020 Uiso
O8I O 0.48782(18) 0.44011(25) 1.1631(3) 0.1020 Uiso
O8H O 0.51218(18) 0.55989(25) 0.6631(3) 0.1020 Uiso
O8D O 0.44011(25) 0.95229(18) 0.8369(3) 0.1020 Uiso
O8G O 0.44011(25) 0.95229(18) 0.6631(3) 0.1020 Uiso
C2F C -0.0266(2) 0.5347(3) 1.1120(5) 0.0780 Uiso
C2K C 0.0266(2) 0.4653(3) 0.6120(5) 0.0780 Uiso
C2E C -0.0266(2) 0.5347(3) 0.3880(5) 0.0780 Uiso
C2C C 0.5347(3) 0.5613(4) 0.8880(5) 0.0780 Uiso
C2I C 0.4653(3) 0.4387(4) 1.1120(5) 0.0780 Uiso
C3K C 0.0891(2) 0.3911(2) 1.6021(4) 0.0670 Uiso
C3K_2 C 0.0891(2) 0.3911(2) 0.6021(4) 0.0670 Uiso
C3_2 C 0.0891(2) 0.3911(2) -0.1021(4) 0.0670 Uiso
C3A C -0.3020(3) 0.0891(2) 0.3979(4) 0.0670 Uiso
C3J C -0.3020(3) 0.0891(2) 1.1021(4) 0.0670 Uiso
C4_2 C 0.3415(3) 0.3705(3) 0.2500 0.0660 Uiso
C4A C -0.0290(4) 0.3415(3) 0.7500 0.0660 Uiso
C5_2 C 0.3055(4) 0.3700(4) 0.2500 0.0830 Uiso
C5A C -0.0645(6) 0.3055(4) 0.7500 0.0830 Uiso
C6C C 0.4611(5) 0.6483(7) 0.7500 0.1190 Uiso
C6D C 0.3517(7) 0.8128(5) 0.7500 0.1190 Uiso
C7C C 0.4648(8) 0.6831(12) 0.7500 0.2300 Uiso
C7D C 0.3169(12) 0.7817(9) 0.7500 0.2300 Uiso
H1C H 0.4886 0.7042 0.7500 0.2760 Uiso
H1D H 0.2958 0.7844 0.7500 0.2760 Uiso
C8K C 0.1050(3) 0.3842(2) 1.5270(5) 0.0770 Uiso
C8K_2 C 0.1050(3) 0.3842(2) 0.5270(5) 0.0770 Uiso
C8_2 C 0.1050(3) 0.3842(2) -0.0270(5) 0.0770 Uiso
C8A C -0.2792(4) 0.1050(3) 0.4730(5) 0.0770 Uiso
C8J C -0.2792(4) 0.1050(3) 1.0270(5) 0.0770 Uiso
C9K C 0.0812(3) 0.3664(3) 1.4693(5) 0.1030 Uiso
C9K_2 C 0.0812(3) 0.3664(3) 0.4693(5) 0.1030 Uiso
C9_2 C 0.0812(3) 0.3664(3) 0.0307(5) 0.1030 Uiso
C9A C -0.2852(4) 0.0812(3) 0.5307(5) 0.1030 Uiso
C9J C -0.2852(4) 0.0812(3) 0.9693(5) 0.1030 Uiso
H2K H 0.0557 0.3575 1.4750 0.1240 Uiso
H2K_2 H 0.0557 0.3575 0.4750 0.1240 Uiso
H2_2 H 0.0557 0.3575 0.0250 0.1240 Uiso
H2A H -0.3018 0.0557 0.5250 0.1240 Uiso
H2J H -0.3018 0.0557 0.9750 0.1240 Uiso
C10K C 0.1350(3) 0.3758(2) 1.3913(5) 0.0840 Uiso
C10K_2 C 0.1350(3) 0.3758(2) 0.3913(5) 0.0840 Uiso
C10_2 C 0.1350(3) 0.3758(2) 0.1087(5) 0.0840 Uiso
C10A C -0.2408(4) 0.1350(3) 0.6087(5) 0.0840 Uiso
C10J C -0.2408(4) 0.1350(3) 0.8913(5) 0.0840 Uiso
C11K C 0.1425(3) 0.3958(3) 1.5258(5) 0.1000 Uiso
C11K_2 C 0.1425(3) 0.3958(3) 0.5258(5) 0.1000 Uiso
C11_2 C 0.1425(3) 0.3958(3) -0.0258(5) 0.1000 Uiso
C11A C -0.2533(4) 0.1425(3) 0.4742(5) 0.1000 Uiso
C11J C -0.2533(4) 0.1425(3) 1.0258(5) 0.1000 Uiso
H3K H 0.1569 0.4058 1.5696 0.1200 Uiso
H3K_2 H 0.1569 0.4058 0.5696 0.1200 Uiso
H3_2 H 0.1569 0.4058 -0.0696 0.1200 Uiso
H3A H -0.2489 0.1569 0.4304 0.1200 Uiso
H3J H -0.2489 0.1569 1.0696 0.1200 Uiso
C12K C 0.0966(3) 0.3613(3) 1.3955(5) 0.1000 Uiso
C12K_2 C 0.0966(3) 0.3613(3) 0.3955(5) 0.1000 Uiso
C12_2 C 0.0966(3) 0.3613(3) 0.1045(5) 0.1000 Uiso
C12A C -0.2647(4) 0.0966(3) 0.6045(5) 0.1000 Uiso
C12J C -0.2647(4) 0.0966(3) 0.8955(5) 0.1000 Uiso
H4K H 0.0810 0.3490 1.3542 0.1200 Uiso
H4K_2 H 0.0810 0.3490 0.3542 0.1200 Uiso
H4_2 H 0.0810 0.3490 0.1458 0.1200 Uiso
H4A H -0.2680 0.0810 0.6458 0.1200 Uiso
H4J H -0.2680 0.0810 0.8542 0.1200 Uiso
C13K C 0.1591(3) 0.3926(3) 1.4578(6) 0.1320 Uiso
C13K_2 C 0.1591(3) 0.3926(3) 0.4578(6) 0.1320 Uiso
C13_2 C 0.1591(3) 0.3926(3) 0.0422(6) 0.1320 Uiso
C13A C -0.2335(4) 0.1591(3) 0.5422(6) 0.1320 Uiso
C13J C -0.2335(4) 0.1591(3) 0.9578(6) 0.1320 Uiso
H5K H 0.1846 0.4009 1.4555 0.1590 Uiso
H5K_2 H 0.1846 0.4009 0.4555 0.1590 Uiso
H5_2 H 0.1846 0.4009 0.0445 0.1590 Uiso
H5A H -0.2163 0.1846 0.5445 0.1590 Uiso
H5J H -0.2163 0.1846 0.9555 0.1590 Uiso
C14K C 0.1518(3) 0.3718(2) 1.3202(5) 0.0880 Uiso
C14K_2 C 0.1518(3) 0.3718(2) 0.3202(5) 0.0880 Uiso
C14_2 C 0.1518(3) 0.3718(2) 0.1798(5) 0.0880 Uiso
C14A C -0.2200(4) 0.1518(3) 0.6798(5) 0.0880 Uiso
C14J C -0.2200(4) 0.1518(3) 0.8202(5) 0.0880 Uiso
C15_2 C 0.1347(4) 0.3729(3) 0.2500 0.0910 Uiso
C15A C -0.2382(5) 0.1347(4) 0.7500 0.0910 Uiso
H6_2 H 0.1129 0.3742 0.2500 0.1090 Uiso
H6A H -0.2613 0.1129 0.7500 0.1090 Uiso
C16C C 0.3986(8) 0.6595(11) 0.7500 0.1770 Uiso
C16D C 0.3405(11) 0.7391(8) 0.7500 0.1770 Uiso
C17C C 0.3955(12) 0.6247(18) 0.7500 0.3280 Uiso
C17D C 0.3753(18) 0.7708(14) 0.7500 0.3280 Uiso
H7C H 0.3720 0.6033 0.7500 0.3940 Uiso
H7D H 0.3967 0.7687 0.7500 0.3940 Uiso
C18C C 0.4319(12) 0.6877(16) 0.7500 0.3030 Uiso
C18D C 0.3123(16) 0.7442(11) 0.7500 0.3030 Uiso
H8C H 0.4352 0.7117 0.7500 0.3640 Uiso
H8D H 0.2883 0.7235 0.7500 0.3640 Uiso
C19C C 0.3284(7) 0.6307(9) 0.7500 0.1400 Uiso
C19D C 0.3693(9) 0.6977(6) 0.7500 0.1400 Uiso
H9C H 0.3252 0.6068 0.7500 0.1680 Uiso
H9D H 0.3932 0.7184 0.7500 0.1680 Uiso
C20C C 0.3640(7) 0.6623(9) 0.7500 0.1450 Uiso
C20D C 0.3377(9) 0.7017(6) 0.7500 0.1450 Uiso
C21_2 C 0.2358(4) 0.3679(4) 0.2500 0.0970 Uiso
C21A C -0.1321(6) 0.2358(4) 0.7500 0.0970 Uiso
C22K C 0.2527(4) 0.3671(4) 1.1839(8) 0.1910 Uiso
C22K_2 C 0.2527(4) 0.3671(4) 0.1839(8) 0.1910 Uiso
C22_2 C 0.2527(4) 0.3671(4) 0.3161(8) 0.1910 Uiso
C22A C -0.1144(6) 0.2527(4) 0.8161(8) 0.1910 Uiso
C22J C -0.1144(6) 0.2527(4) 0.6839(8) 0.1910 Uiso
H10K H 0.2399 0.3621 1.1377 0.2290 Uiso
H10K_2 H 0.2399 0.3621 0.1377 0.2290 Uiso
H10_2 H 0.2399 0.3621 0.3623 0.2290 Uiso
H10A H -0.1222 0.2399 0.8623 0.2290 Uiso
H10J H -0.1222 0.2399 0.6377 0.2290 Uiso
C23K C 0.2906(4) 0.3742(4) 1.1859(8) 0.1890 Uiso
C23K_2 C 0.2906(4) 0.3742(4) 0.1859(8) 0.1890 Uiso
C23_2 C 0.2906(4) 0.3742(4) 0.3141(8) 0.1890 Uiso
C23A C -0.0836(6) 0.2906(4) 0.8141(8) 0.1890 Uiso
C23J C -0.0836(6) 0.2906(4) 0.6859(8) 0.1890 Uiso
H11K H 0.3049 0.3818 1.1416 0.2270 Uiso
H11K_2 H 0.3049 0.3818 0.1416 0.2270 Uiso
H11_2 H 0.3049 0.3818 0.3584 0.2270 Uiso
H11A H -0.0769 0.3049 0.8584 0.2270 Uiso
H11J H -0.0769 0.3049 0.6416 0.2270 Uiso
C24F C -0.0117(2) 0.5157(3) 1.0537(5) 0.0810 Uiso
C24K C 0.0117(2) 0.4843(3) 0.5537(5) 0.0810 Uiso
C24E C -0.0117(2) 0.5157(3) 0.4463(5) 0.0810 Uiso
C24C C 0.5157(3) 0.5274(4) 0.9463(5) 0.0810 Uiso
C24I C 0.4843(3) 0.4726(4) 1.0537(5) 0.0810 Uiso
C25F C 0.0023(3) 0.5343(3) 0.9878(6) 0.1100 Uiso
C25K C -0.0023(3) 0.4657(3) 0.4878(6) 0.1100 Uiso
C25E C 0.0023(3) 0.5343(3) 0.5122(6) 0.1100 Uiso
C25C C 0.5343(3) 0.5320(4) 1.0122(6) 0.1100 Uiso
C25I C 0.4657(3) 0.4680(4) 0.9878(6) 0.1100 Uiso
C26F C -0.0169(3) 0.4819(4) 1.0679(6) 0.1340 Uiso
C26K C 0.0169(3) 0.5181(4) 0.5679(6) 0.1340 Uiso
C26E C -0.0169(3) 0.4819(4) 0.4321(6) 0.1340 Uiso
C26C C 0.4819(4) 0.4988(5) 0.9321(6) 0.1340 Uiso
C26I C 0.5181(4) 0.5012(5) 1.0679(6) 0.1340 Uiso
C27C C 0.4241(15) 0.6218(20) 0.7500 0.3700 Uiso
C27D C 0.3782(20) 0.8023(13) 0.7500 0.3700 Uiso
H12C H 0.4194 0.5973 0.7500 0.4460 Uiso
H12D H 0.4027 0.8221 0.7500 0.4460 Uiso
Zn1C Zn 0.57560(3) 0.67990(4) 0.7500 0.0487 Uiso
Zn1D Zn 0.32010(4) 0.89570(3) 0.7500 0.0487 Uiso
Zn1_2 Zn 0.10430(3) 0.42440(3) 1.7500 0.0487 Uiso
Zn1_3 Zn 0.10430(3) 0.42440(3) -0.2500 0.0487 Uiso
Zn1A Zn -0.32010(4) 0.10430(3) 0.2500 0.0487 Uiso
Zn1A_2 Zn -0.32010(4) 0.10430(3) 1.2500 0.0487 Uiso
Zn2C Zn 0.52205(4) 0.59219(6) 0.7500 0.0633 Uiso
Zn2D Zn 0.40781(6) 0.92986(4) 0.7500 0.0633 Uiso
Zn2E Zn -0.07014(4) 0.52205(4) 1.2500 0.0633 Uiso
Zn2E_2 Zn -0.07014(4) 0.52205(4) 0.2500 0.0633 Uiso
Zn2B Zn 0.47795(4) 0.40781(6) 1.2500 0.0633 Uiso
Zn3K Zn 0.02891(2) 0.40103(2) 1.66025(4) 0.0512 Uiso
Zn3K_2 Zn 0.02891(2) 0.40103(2) 0.66025(4) 0.0512 Uiso
Zn3_2 Zn 0.02891(2) 0.40103(2) -0.16025(4) 0.0512 Uiso
Zn3B Zn 0.40103(2) 0.37212(3) 1.33975(4) 0.0512 Uiso
Zn3I Zn 0.40103(2) 0.37212(3) 1.16025(4) 0.0512 Uiso
Zn3F Zn -0.02891(2) 0.59897(2) 1.16025(4) 0.0512 Uiso
Zn3I_2 Zn 0.40103(2) 0.37212(3) 0.16025(4) 0.0512 Uiso
Zn3B_2 Zn 0.40103(2) 0.37212(3) 0.33975(4) 0.0512 Uiso
Zn3E Zn -0.02891(2) 0.59897(2) 0.33975(4) 0.0512 Uiso
Zn3A Zn -0.37212(3) 0.02891(2) 0.33975(4) 0.0512 Uiso
Zn3J Zn -0.37212(3) 0.02891(2) 1.16025(4) 0.0512 Uiso
Zn3C Zn 0.59897(2) 0.62788(3) 0.83975(4) 0.0512 Uiso
Zn3H Zn 0.59897(2) 0.62788(3) 0.66025(4) 0.0512 Uiso
Zn3D Zn 0.37212(3) 0.97109(2) 0.83975(4) 0.0512 Uiso
Zn3G Zn 0.37212(3) 0.97109(2) 0.66025(4) 0.0512 Uiso
Br1F Br -0.02447(17) 0.45711(17) 1.1631(3) 0.1590 Uiso
Br1K Br 0.02447(17) 0.54289(17) 0.6631(3) 0.1590 Uiso
Br1E Br -0.02447(17) 0.45711(17) 0.3369(3) 0.1590 Uiso
Br1C Br 0.45711(17) 0.48158(24) 0.8369(3) 0.1590 Uiso
Br1I Br 0.54289(17) 0.51842(24) 1.1631(3) 0.1590 Uiso
Br2F Br 0.0366(7) 0.5860(8) 0.9861(14) 0.6310 Uiso
Br2K Br -0.0366(7) 0.4140(8) 0.4861(14) 0.6310 Uiso
Br2E Br 0.0366(7) 0.5860(8) 0.5139(14) 0.6310 Uiso
Br2C Br 0.5860(8) 0.5494(11) 1.0139(14) 0.6310 Uiso
Br2I Br 0.4140(8) 0.4506(11) 0.9861(14) 0.6310 Uiso
C28K C 0.1841(3) 0.3704(2) 1.3185(5) 0.0940 Uiso
C28K_2 C 0.1841(3) 0.3704(2) 0.3185(5) 0.0940 Uiso
C28_2 C 0.1841(3) 0.3704(2) 0.1815(5) 0.0940 Uiso
C28A C -0.1863(4) 0.1841(3) 0.6815(5) 0.0940 Uiso
C28J C -0.1863(4) 0.1841(3) 0.8185(5) 0.0940 Uiso
H13K H 0.1962 0.3715 1.3640 0.1130 Uiso
H13K_2 H 0.1962 0.3715 0.3640 0.1130 Uiso
H13_2 H 0.1962 0.3715 0.1360 0.1130 Uiso
H13A H -0.1753 0.1962 0.6360 0.1130 Uiso
H13J H -0.1753 0.1962 0.8640 0.1130 Uiso
C29_2 C 0.1990(4) 0.3675(4) 0.2500 0.0990 Uiso
C29A C -0.1685(6) 0.1990(4) 0.7500 0.0990 Uiso
loop_
_geom_bond_atom_site_label_1
_geom_bond_atom_site_label_2
_geom_bond_site_symmetry_1
_geom_bond_site_symmetry_2
O1 Zn1 1_555 1_555
O2 C3 1_555 1_555
O3 C4 1_555 1_555
O4 C1 1_555 1_555
O5 C1 1_555 1_555
C1 C6 1_555 1_555
O6 C3 1_555 1_555
O7 C2 1_555 1_555
O8 C2 1_555 1_555
C2 C24 1_555 1_555
C3 C8 1_555 1_555
C4 C5 1_555 1_555
C5 C23 1_555 1_555
C6 C7 1_555 1_555
C7 H1 1_555 1_555
C8 C9 1_555 1_555
C9 H2 1_555 1_555
C10 C12 1_555 1_555
C11 C8 1_555 1_555
H3 C11 1_555 1_555
C12 C9 1_555 1_555
H4 C12 1_555 1_555
C13 C10 1_555 1_555
H5 C13 1_555 1_555
C14 C10 1_555 1_555
C15 C14 1_555 1_555
H6 C15 1_555 1_555
C16 C17 1_555 1_555
C17 H7 1_555 1_555
C18 C7 1_555 1_555
H8 C18 1_555 1_555
C19 H9 1_555 1_555
C20 C16 1_555 1_555
C21 C22 1_555 1_555
C22 H10 1_555 1_555
C23 C22 1_555 1_555
H11 C23 1_555 1_555
C24 C25 1_555 1_555
C25 Br2 1_555 1_555
C26 C24 1_555 1_555
C27 C6 1_555 1_555
H12 C27 1_555 1_555
Zn1 O4 1_555 1_555
Zn2 O1 1_555 1_555
Zn3 O1 1_555 1_555
Br1 C26 1_555 1_555
C28 C14 1_555 1_555
H13 C28 1_555 1_555
C29 C21 1_555 1_555
O1C Zn1C 1_555 1_555
O1D Zn1D 1_555 1_555
O1_2 Zn1_2 1_555 1_555
O1_3 Zn1_3 1_555 1_555
O1B Zn2B 1_555 1_555
O2K C3K 1_555 1_555
O2K_2 C3K_2 1_555 1_555
O2_2 C3_2 1_555 1_555
O2A C3A 1_555 1_555
O2J C3J 1_555 1_555
O2B Zn3B 1_555 1_555
O2I Zn3I 1_555 1_555
O3K C4 1_555 1_555
O3K_2 C4_2 1_555 1_555
O3_2 C4_2 1_555 1_555
O3A Zn3 1_555 1_555
O3J C4A 1_555 1_555
O3J_2 Zn3K 1_555 1_555
O3A_2 Zn3_2 1_555 1_555
O4C C1C 1_555 1_555
O4D C1D 1_555 1_555
O5C C1C 1_555 1_555
O5D C1D 1_555 1_555
C1C C6C 1_555 1_555
C1D C6D 1_555 1_555
O6K C3K 1_555 1_555
O6K_2 Zn1 1_555 1_555
O6_2 C3_2 1_555 1_555
O6A C3A 1_555 1_555
O6J C3J 1_555 1_555
O6C Zn1C 1_555 1_555
O6H Zn1C 1_555 1_555
O6D Zn1D 1_555 1_555
O6G Zn1D 1_555 1_555
O7F C2F 1_555 1_555
O7K C2K 1_555 1_555
O7E C2E 1_555 1_555
O7C C2C 1_555 1_555
O7I C2I 1_555 1_555
O7K_2 Zn3K 1_555 1_555
O7_2 Zn3_2 1_555 1_555
O7B Zn3B 1_555 1_555
O8F C2F 1_555 1_555
O8K Zn2 1_555 1_555
O8E C2E 1_555 1_555
O8C C2C 1_555 1_555
O8I C2I 1_555 1_555
O8H Zn2C 1_555 1_555
O8D Zn2D 1_555 1_555
O8G Zn2D 1_555 1_555
C2F C24F 1_555 1_555
C2K O8K 1_555 1_555
C2E C24E 1_555 1_555
C2C C24C 1_555 1_555
C2I C24I 1_555 1_555
C3K C8K 1_555 1_555
C3K_2 O6K_2 1_555 1_555
C3_2 C8_2 1_555 1_555
C3A C8A 1_555 1_555
C3J C8J 1_555 1_555
C4_2 C5_2 1_555 1_555
C4A O3A 1_555 1_555
C5_2 C23K_2 1_555 1_555
C5A C4A 1_555 1_555
C6C C7C 1_555 1_555
C6D C7D 1_555 1_555
C7C H1C 1_555 1_555
C7D H1D 1_555 1_555
C8K C9K 1_555 1_555
C8K_2 C3K_2 1_555 1_555
C8_2 C9_2 1_555 1_555
C8A C9A 1_555 1_555
C8J C9J 1_555 1_555
C9K H2K 1_555 1_555
C9K_2 C8K_2 1_555 1_555
C9_2 H2_2 1_555 1_555
C9A H2A 1_555 1_555
C9J H2J 1_555 1_555
H2K_2 C9K_2 1_555 1_555
C10K C12K 1_555 1_555
C10K_2 C12K_2 1_555 1_555
C10_2 C12_2 1_555 1_555
C10A C12A 1_555 1_555
C10J C12J 1_555 1_555
C11K C8K 1_555 1_555
C11K_2 C8K_2 1_555 1_555
C11_2 C8_2 1_555 1_555
C11A C8A 1_555 1_555
C11J C8J 1_555 1_555
H3K C11K 1_555 1_555
H3K_2 C11K_2 1_555 1_555
H3_2 C11_2 1_555 1_555
H3A C11A 1_555 1_555
H3J C11J 1_555 1_555
C12K C9K 1_555 1_555
C12K_2 C9K_2 1_555 1_555
C12_2 C9_2 1_555 1_555
C12A C9A 1_555 1_555
C12J C9J 1_555 1_555
H4K C12K 1_555 1_555
H4K_2 C12K_2 1_555 1_555
H4_2 C12_2 1_555 1_555
H4A C12A 1_555 1_555
H4J C12J 1_555 1_555
C13K C10K 1_555 1_555
C13K_2 C10K_2 1_555 1_555
C13_2 C10_2 1_555 1_555
C13A C10A 1_555 1_555
C13J C10J 1_555 1_555
H5K C13K 1_555 1_555
H5K_2 C13K_2 1_555 1_555
H5_2 C13_2 1_555 1_555
H5A C13A 1_555 1_555
H5J C13J 1_555 1_555
C14K C15 1_555 1_555
C14K_2 C10K_2 1_555 1_555
C14_2 C10_2 1_555 1_555
C14A C10A 1_555 1_555
C14J C10J 1_555 1_555
C15_2 C14K_2 1_555 1_555
C15A C14A 1_555 1_555
H6_2 C15_2 1_555 1_555
H6A C15A 1_555 1_555
C16C C17C 1_555 1_555
C16D C17D 1_555 1_555
C17C H7C 1_555 1_555
C17D H7D 1_555 1_555
C18C C7C 1_555 1_555
C18D C7D 1_555 1_555
H8C C18C 1_555 1_555
H8D C18D 1_555 1_555
C19C C20 1_555 1_555
C19D H9D 1_555 1_555
H9C C19C 1_555 1_555
C20C C16C 1_555 1_555
C20D C19 1_555 1_555
C21_2 C22K_2 1_555 1_555
C21A C22A 1_555 1_555
C22K C21 1_555 1_555
C22K_2 H10K_2 1_555 1_555
C22_2 C21_2 1_555 1_555
C22A H10A 1_555 1_555
C22J C21A 1_555 1_555
H10K C22K 1_555 1_555
H10_2 C22_2 1_555 1_555
H10J C22J 1_555 1_555
C23K C5 1_555 1_555
C23K_2 C22K_2 1_555 1_555
C23_2 C5_2 1_555 1_555
C23A C5A 1_555 1_555
C23J C5A 1_555 1_555
H11K C23K 1_555 1_555
H11K_2 C23K_2 1_555 1_555
H11_2 C23_2 1_555 1_555
H11A C23A 1_555 1_555
H11J C23J 1_555 1_555
C24F C25F 1_555 1_555
C24K C2K 1_555 1_555
C24E C25E 1_555 1_555
C24C C25C 1_555 1_555
C24I C25I 1_555 1_555
C25F C26 1_555 1_555
C25K C24K 1_555 1_555
C25E C26K 1_555 1_555
C25C C26I 1_555 1_555
C25I C26C 1_555 1_555
C26F C25 1_555 1_555
C26K C24K 1_555 1_555
C26E C24E 1_555 1_555
C26C C24C 1_555 1_555
C26I C24I 1_555 1_555
C27C C6C 1_555 1_555
C27D C6D 1_555 1_555
H12C C27C 1_555 1_555
H12D C27D 1_555 1_555
Zn1C O4C 1_555 1_555
Zn1D O4D 1_555 1_555
Zn1_2 O6K 1_555 1_555
Zn1_3 O6_2 1_555 1_555
Zn1A O6A 1_555 1_555
Zn1A_2 O6J 1_555 1_555
Zn2C O1C 1_555 1_555
Zn2D O1D 1_555 1_555
Zn2E O8F 1_555 1_555
Zn2E_2 O8E 1_555 1_555
Zn2B O8I 1_555 1_555
Zn3K O1_2 1_555 1_555
Zn3K_2 O1 1_555 1_555
Zn3_2 O1_3 1_555 1_555
Zn3B O3 1_555 1_555
Zn3I O1B 1_555 1_555
Zn3F O7F 1_555 1_555
Zn3I_2 O3K_2 1_555 1_555
Zn3B_2 O3_2 1_555 1_555
Zn3E O7E 1_555 1_555
Zn3A O2A 1_555 1_555
Zn3J O2J 1_555 1_555
Zn3C O1C 1_555 1_555
Zn3H O1C 1_555 1_555
Zn3D O1D 1_555 1_555
Zn3G O1D 1_555 1_555
Br1F C26F 1_555 1_555
Br1K C26K 1_555 1_555
Br1E C26E 1_555 1_555
Br1C C26C 1_555 1_555
Br1I C26I 1_555 1_555
Br2F C25F 1_555 1_555
Br2K C25K 1_555 1_555
Br2E C25E 1_555 1_555
Br2C C25C 1_555 1_555
Br2I C25I 1_555 1_555
C28K C29 1_555 1_555
C28K_2 C14K_2 1_555 1_555
C28_2 C14_2 1_555 1_555
C28A C14A 1_555 1_555
C28J C14J 1_555 1_555
H13K C28K 1_555 1_555
H13K_2 C28K_2 1_555 1_555
H13_2 C28_2 1_555 1_555
H13A C28A 1_555 1_555
H13J C28J 1_555 1_555
C29_2 C21_2 1_555 1_555
C29A C21A 1_555 1_555
O2 Zn3 1_555 1_555
O5 Zn2 1_555 1_555
O6 Zn1 1_555 1_555
O7 Zn3 1_555 1_555
O8 Zn2 1_555 1_555
C11 C13 1_555 1_555
C16 C18 1_555 1_555
C17 C27 1_555 1_555
C19 C20 1_555 1_555
C28 C29 1_555 1_555
O1B Zn3B 1_555 1_555
O2K Zn3K 1_555 1_555
O2K_2 Zn3K_2 1_555 1_555
O2_2 Zn3_2 1_555 1_555
O3K Zn3I 1_555 1_555
O3J Zn3K_2 1_555 1_555
O5C Zn2C 1_555 1_555
O5D Zn2D 1_555 1_555
O7K Zn3K_2 1_555 1_555
O7C Zn3C 1_555 1_555
O7I Zn3I 1_555 1_555
O8C Zn2C 1_555 1_555
C10K C14K 1_555 1_555
C11K C13K 1_555 1_555
C11K_2 C13K_2 1_555 1_555
C11_2 C13_2 1_555 1_555
C11A C13A 1_555 1_555
C11J C13J 1_555 1_555
C14K C28K 1_555 1_555
C14_2 C15_2 1_555 1_555
C14J C15A 1_555 1_555
C16C C18C 1_555 1_555
C16D C18D 1_555 1_555
C16D C20D 1_555 1_555
C17C C27C 1_555 1_555
C17D C27D 1_555 1_555
C19C C20C 1_555 1_555
C19D C20C 1_555 1_555
C19D C20D 1_555 1_555
C22K C23K 1_555 1_555
C22_2 C23_2 1_555 1_555
C22A C23A 1_555 1_555
C22J C23J 1_555 1_555
C24F C26F 1_555 1_555
C25K C26E 1_555 1_555
C28K_2 C29_2 1_555 1_555
C28_2 C29_2 1_555 1_555
C28A C29A 1_555 1_555
C28J C29A 1_555 1_555

#END
