
#######################################################################
#
#                 Cambridge Crystallographic Data Centre
#                                CCDC 
#
#######################################################################
#
# If this CIF has been generated from an entry in the Cambridge 
# Structural Database, then it will include bibliographic, chemical, 
# crystal, experimental, refinement or atomic coordinate data resulting 
# from the CCDC's data processing and validation procedures.
#
#######################################################################

data_FAZQOO
_chemical_formula_moiety         'C135 H48 O63 Zn29'
_symmetry_cell_setting           hexagonal
_symmetry_space_group_name_H-M   'P 63/m'
_symmetry_Int_Tables_number      176
_space_group_name_Hall           '-P 6c'
loop_
_symmetry_equiv_pos_site_id
_symmetry_equiv_pos_as_xyz
1 x,y,z
2 -y,x-y,z
3 -x+y,-x,z
4 -x,-y,1/2+z
5 y,-x+y,1/2+z
6 x-y,x,1/2+z
7 -x,-y,-z
8 y,-x+y,-z
9 x-y,x,-z
10 x,y,1/2-z
11 -y,x-y,1/2-z
12 -x+y,-x,1/2-z
_cell_length_a                   41.351(4)
_cell_length_b                   41.351(4)
_cell_length_c                   17.5266(16)
_cell_angle_alpha                90
_cell_angle_beta                 90
_cell_angle_gamma                120
_cell_volume                     25953.8
loop_
_atom_site_label
_atom_site_type_symbol
_atom_site_fract_x
_atom_site_fract_y
_atom_site_fract_z
_atom_site_U_iso_or_equiv
_atom_site_thermal_displace_type
Zn1 Zn 0.400668(9) 0.028778(9) 0.339847(18) 0.0376 Uiso
Zn2 Zn 0.477432(14) 0.069213(14) 0.2500 0.0432 Uiso
Zn3 Zn 0.424957(13) 0.104418(13) 0.2500 0.0389 Uiso
O1 O 0.42660(7) 0.05810(7) 0.2500 0.0340 Uiso
O2 O 0.35595(7) -0.01651(7) 0.31301(14) 0.0622 Uiso
O3 O 0.43300(7) 0.01646(7) 0.39771(14) 0.0666 Uiso
O4 O 0.48785(7) 0.04751(7) 0.33825(14) 0.0679 Uiso
O5 O 0.4235(6) -0.0285(6) 0.5156(14) 0.6430 Uiso
O6 O 0.51252(10) 0.12197(10) 0.2500 0.0713 Uiso
O7 O 0.47618(12) 0.14687(11) 0.2500 0.0822 Uiso
O8 O 0.11012(7) -0.29319(7) -0.15677(13) 0.0608 Uiso
O9 O 0.05655(7) -0.32963(7) -0.09427(13) 0.0623 Uiso
C1 C 0.34098(13) -0.03075(12) 0.2500 0.0465 Uiso
C2 C 0.30494(14) -0.06543(14) 0.2500 0.0559 Uiso
C3 C 0.2817(2) -0.0757(2) 0.3121(4) 0.0620 Uiso
H1 H 0.2892 -0.0608 0.3555 0.0750 Uiso
C4 C 0.2470(2) -0.1083(2) 0.3108(4) 0.0710 Uiso
H2 H 0.2309 -0.1137 0.3519 0.0850 Uiso
C5 C 0.23587(16) -0.13281(16) 0.2500 0.0686 Uiso
C6 C 0.46706(11) 0.02695(10) 0.3899(2) 0.0626 Uiso
C7 C 0.48443(10) 0.01349(10) 0.4472(2) 0.0621 Uiso
C8 C 0.52061(14) 0.02396(14) 0.4429(3) 0.0974 Uiso
H3 H 0.5351 0.0396 0.4036 0.1170 Uiso
C9 C 0.46265(16) -0.01140(15) 0.5020(3) 0.1011 Uiso
C10 C 0.50758(13) 0.15013(13) 0.2500 0.0506 Uiso
C11 C 0.54017(15) 0.18722(15) 0.2500 0.0626 Uiso
C12 C 0.5743(3) 0.1925(3) 0.2500 0.1300 Uiso
H4 H 0.5779 0.1721 0.2500 0.1560 Uiso
C13 C 0.6041(3) 0.2273(3) 0.2500 0.1470 Uiso
H5 H 0.6276 0.2294 0.2500 0.1760 Uiso
C14 C 0.60284(19) 0.25935(19) 0.2500 0.0826 Uiso
C15 C 0.63604(18) 0.29747(18) 0.2500 0.0792 Uiso
C16 C 0.67103(18) 0.30168(18) 0.2500 0.0803 Uiso
C17 C 0.08955(10) -0.30197(10) -0.09801(19) 0.0551 Uiso
C18 C 0.10474(10) -0.27973(11) -0.0281(2) 0.0627 Uiso
C19 C 0.14368(12) -0.25287(12) -0.0241(3) 0.0819 Uiso
H6 H 0.1589 -0.2474 -0.0668 0.0980 Uiso
C20 C 0.15844(12) -0.23494(14) 0.0449(3) 0.0868 Uiso
H7 H 0.1841 -0.2190 0.0494 0.1040 Uiso
C21 C 0.13559(12) -0.24042(12) 0.1069(2) 0.0731 Uiso
C22 C 0.09773(13) -0.26522(13) 0.1021(3) 0.0850 Uiso
H8 H 0.0825 -0.2693 0.1442 0.1020 Uiso
C23 C 0.08214(12) -0.28436(13) 0.0332(3) 0.0841 Uiso
H9 H 0.0565 -0.3001 0.0293 0.1010 Uiso
C24 C 0.15220(13) -0.22109(13) 0.1788(3) 0.0804 Uiso
C25 C 0.18437(12) -0.18596(12) 0.1797(2) 0.0777 Uiso
C26 C 0.20092(16) -0.16793(17) 0.2500 0.0724 Uiso
C27 C 0.13473(17) -0.23939(17) 0.2500 0.0773 Uiso
C28 C 0.5369(3) 0.2174(3) 0.2887(6) 0.2330 Uiso
C29 C 0.5707(4) 0.2548(4) 0.2500 0.1680 Uiso
Zn1F Zn 0.599332(9) -0.028778(9) 0.660153(18) 0.0376 Uiso
Zn1I Zn 0.400668(9) 0.028778(9) 0.160153(18) 0.0376 Uiso
Zn1C Zn 0.599332(9) -0.028778(9) -0.160153(18) 0.0376 Uiso
Zn1E Zn 0.371890(13) 0.400668(9) 0.839847(18) 0.0376 Uiso
Zn1H Zn 0.371890(13) 0.400668(9) 0.660153(18) 0.0376 Uiso
Zn1D Zn 0.028778(9) -0.371890(13) -0.160153(18) 0.0376 Uiso
Zn1G Zn 0.028778(9) -0.371890(13) 0.660153(18) 0.0376 Uiso
Zn1I_2 Zn 0.400668(9) 0.028778(9) 1.160153(18) 0.0376 Uiso
Zn1H_2 Zn 0.371890(13) 0.400668(9) -0.339847(18) 0.0376 Uiso
Zn1E_2 Zn 0.371890(13) 0.400668(9) -0.160153(18) 0.0376 Uiso
Zn1_2 Zn 0.400668(9) 0.028778(9) -0.660153(18) 0.0376 Uiso
Zn1C_2 Zn 0.599332(9) -0.028778(9) 0.839847(18) 0.0376 Uiso
Zn1F_2 Zn 0.599332(9) -0.028778(9) -0.339847(18) 0.0376 Uiso
Zn2C Zn 0.522568(14) -0.069213(14) 0.7500 0.0432 Uiso
Zn2C_2 Zn 0.522568(14) -0.069213(14) -0.2500 0.0432 Uiso
Zn2A Zn 0.930787(14) 0.408219(20) 0.2500 0.0432 Uiso
Zn2B Zn 0.591781(20) 0.522568(14) 0.2500 0.0432 Uiso
Zn2_2 Zn 0.477432(14) 0.069213(14) 1.2500 0.0432 Uiso
Zn3A Zn 0.895582(13) 0.320539(18) 0.2500 0.0389 Uiso
Zn3B Zn 0.679461(18) 0.575043(13) 0.2500 0.0389 Uiso
Zn3D Zn 0.104418(13) -0.320539(18) -0.2500 0.0389 Uiso
Zn3D_2 Zn 0.104418(13) -0.320539(18) 0.7500 0.0389 Uiso
Zn3_2 Zn 0.424957(13) 0.104418(13) 1.2500 0.0389 Uiso
Zn3_3 Zn 0.424957(13) 0.104418(13) -0.7500 0.0389 Uiso
Zn3C Zn 0.575043(13) -0.104418(13) 0.7500 0.0389 Uiso
Zn3C_2 Zn 0.575043(13) -0.104418(13) -0.2500 0.0389 Uiso
O1C O 0.57340(7) -0.05810(7) 0.7500 0.0340 Uiso
O1C_2 O 0.57340(7) -0.05810(7) -0.2500 0.0340 Uiso
O1A O 0.94190(7) 0.36850(10) 0.2500 0.0340 Uiso
O1B O 0.63150(10) 0.57340(7) 0.2500 0.0340 Uiso
O1E O 0.36850(10) 0.42660(7) 0.7500 0.0340 Uiso
O2I O 0.35595(7) -0.01651(7) 0.18699(14) 0.0622 Uiso
O2E O 0.37246(10) 0.35595(7) 0.81301(14) 0.0622 Uiso
O2H O 0.37246(10) 0.35595(7) 0.68699(14) 0.0622 Uiso
O2H_2 O 0.37246(10) 0.35595(7) -0.31301(14) 0.0622 Uiso
O2E_2 O 0.37246(10) 0.35595(7) -0.18699(14) 0.0622 Uiso
O2F O 0.64405(7) 0.01651(7) 0.68699(14) 0.0622 Uiso
O2C O 0.64405(7) 0.01651(7) -0.18699(14) 0.0622 Uiso
O3F O 0.56700(7) -0.01646(7) 0.60229(14) 0.0666 Uiso
O3I O 0.43300(7) 0.01646(7) 0.10229(14) 0.0666 Uiso
O3C O 0.56700(7) -0.01646(7) -0.10229(14) 0.0666 Uiso
O3C_2 O 0.56700(7) -0.01646(7) 0.89771(14) 0.0666 Uiso
O3I_2 O 0.43300(7) 0.01646(7) 1.10229(14) 0.0666 Uiso
O3E O 0.41654(10) 0.43300(7) 0.89771(14) 0.0666 Uiso
O3H O 0.41654(10) 0.43300(7) 0.60229(14) 0.0666 Uiso
O4F O 0.51215(7) -0.04751(7) 0.66175(14) 0.0679 Uiso
O4I O 0.48785(7) 0.04751(7) 0.16175(14) 0.0679 Uiso
O4C O 0.51215(7) -0.04751(7) -0.16175(14) 0.0679 Uiso
O4C_2 O 0.51215(7) -0.04751(7) 0.83825(14) 0.0679 Uiso
O4I_2 O 0.48785(7) 0.04751(7) 1.16175(14) 0.0679 Uiso
O4F_2 O 0.51215(7) -0.04751(7) -0.33825(14) 0.0679 Uiso
O5F O 0.5765(6) 0.0285(6) 0.4844(14) 0.6430 Uiso
O5I O 0.4235(6) -0.0285(6) -0.0156(14) 0.6430 Uiso
O5C O 0.5765(6) 0.0285(6) 0.0156(14) 0.6430 Uiso
O5C_2 O 0.5765(6) 0.0285(6) 1.0156(14) 0.6430 Uiso
O5I_2 O 0.4235(6) -0.0285(6) 0.9844(14) 0.6430 Uiso
O6A O 0.87803(10) 0.39055(14) 0.2500 0.0713 Uiso
O6B O 0.60945(14) 0.48748(10) 0.2500 0.0713 Uiso
O6C O 0.48748(10) -0.12197(10) 0.7500 0.0713 Uiso
O6C_2 O 0.48748(10) -0.12197(10) -0.2500 0.0713 Uiso
O7A O 0.85313(11) 0.32931(16) 0.2500 0.0822 Uiso
O7B O 0.67069(16) 0.52382(12) 0.2500 0.0822 Uiso
O8I O 0.11012(7) -0.29319(7) 0.65677(13) 0.0608 Uiso
O8E O 0.40331(10) 0.11012(7) 0.34323(13) 0.0608 Uiso
O8H O 0.40331(10) 0.11012(7) 1.15677(13) 0.0608 Uiso
O8H_2 O 0.40331(10) 0.11012(7) 0.15677(13) 0.0608 Uiso
O8E_2 O 0.40331(10) 0.11012(7) -0.65677(13) 0.0608 Uiso
O8C O 0.88988(7) 0.29319(7) 0.34323(13) 0.0608 Uiso
O8F O 0.88988(7) 0.29319(7) 0.15677(13) 0.0608 Uiso
O8D O 0.70681(7) 0.59669(10) 0.34323(13) 0.0608 Uiso
O8G O 0.70681(7) 0.59669(10) 0.15677(13) 0.0608 Uiso
O9I O 0.05655(7) -0.32963(7) 0.59427(13) 0.0623 Uiso
O9E O 0.38618(10) 0.05655(7) 0.40573(13) 0.0623 Uiso
O9H O 0.38618(10) 0.05655(7) 1.09427(13) 0.0623 Uiso
O9H_2 O 0.38618(10) 0.05655(7) 0.09427(13) 0.0623 Uiso
O9E_2 O 0.38618(10) 0.05655(7) -0.59427(13) 0.0623 Uiso
O9K O 0.61382(10) -0.05655(7) 0.59427(13) 0.0623 Uiso
O9B O 0.61382(10) -0.05655(7) -0.09427(13) 0.0623 Uiso
O9A O 0.32963(7) 0.38618(10) 0.90573(13) 0.0623 Uiso
O9J O 0.32963(7) 0.38618(10) 0.59427(13) 0.0623 Uiso
C1E C 0.37173(18) 0.34098(13) 0.7500 0.0465 Uiso
C1E_2 C 0.37173(18) 0.34098(13) -0.2500 0.0465 Uiso
C2E C 0.37037(20) 0.30494(14) 0.7500 0.0559 Uiso
C2E_2 C 0.37037(20) 0.30494(14) -0.2500 0.0559 Uiso
C3I C 0.2817(2) -0.0757(2) 0.1879(4) 0.0620 Uiso
C3E C 0.3574(3) 0.2817(2) 0.8121(4) 0.0620 Uiso
C3H C 0.3574(3) 0.2817(2) 0.6879(4) 0.0620 Uiso
C3H_2 C 0.3574(3) 0.2817(2) -0.3121(4) 0.0620 Uiso
C3E_2 C 0.3574(3) 0.2817(2) -0.1879(4) 0.0620 Uiso
H1I H 0.2892 -0.0608 0.1445 0.0750 Uiso
H1E H 0.3500 0.2892 0.8555 0.0750 Uiso
H1H H 0.3500 0.2892 0.6445 0.0750 Uiso
H1H_2 H 0.3500 0.2892 -0.3555 0.0750 Uiso
H1E_2 H 0.3500 0.2892 -0.1445 0.0750 Uiso
C4I C 0.2470(2) -0.1083(2) 0.1892(4) 0.0710 Uiso
C4E C 0.3553(3) 0.2470(2) 0.8108(4) 0.0710 Uiso
C4H C 0.3553(3) 0.2470(2) 0.6892(4) 0.0710 Uiso
C4H_2 C 0.3553(3) 0.2470(2) -0.3108(4) 0.0710 Uiso
C4E_2 C 0.3553(3) 0.2470(2) -0.1892(4) 0.0710 Uiso
H2I H 0.2309 -0.1137 0.1481 0.0850 Uiso
H2E H 0.3446 0.2309 0.8519 0.0850 Uiso
H2H H 0.3446 0.2309 0.6481 0.0850 Uiso
H2H_2 H 0.3446 0.2309 -0.3519 0.0850 Uiso
H2E_2 H 0.3446 0.2309 -0.1481 0.0850 Uiso
C5E C 0.36868(23) 0.23587(16) 0.7500 0.0686 Uiso
C5E_2 C 0.36868(23) 0.23587(16) -0.2500 0.0686 Uiso
C6F C 0.53294(11) -0.02695(10) 0.6101(2) 0.0626 Uiso
C6I C 0.46706(11) 0.02695(10) 0.1101(2) 0.0626 Uiso
C6C C 0.53294(11) -0.02695(10) -0.1101(2) 0.0626 Uiso
C6C_2 C 0.53294(11) -0.02695(10) 0.8899(2) 0.0626 Uiso
C6I_2 C 0.46706(11) 0.02695(10) 1.1101(2) 0.0626 Uiso
C7F C 0.51557(10) -0.01349(10) 0.5528(2) 0.0621 Uiso
C7I C 0.48443(10) 0.01349(10) 0.0528(2) 0.0621 Uiso
C7C C 0.51557(10) -0.01349(10) -0.0528(2) 0.0621 Uiso
C7C_2 C 0.51557(10) -0.01349(10) 0.9472(2) 0.0621 Uiso
C7I_2 C 0.48443(10) 0.01349(10) 1.0528(2) 0.0621 Uiso
C8F C 0.47939(14) -0.02396(14) 0.5571(3) 0.0974 Uiso
C8I C 0.52061(14) 0.02396(14) 0.0571(3) 0.0974 Uiso
C8C C 0.47939(14) -0.02396(14) -0.0571(3) 0.0974 Uiso
C8C_2 C 0.47939(14) -0.02396(14) 0.9429(3) 0.0974 Uiso
C8I_2 C 0.52061(14) 0.02396(14) 1.0571(3) 0.0974 Uiso
H3F H 0.4649 -0.0396 0.5964 0.1170 Uiso
H3I H 0.5351 0.0396 0.0964 0.1170 Uiso
H3C H 0.4649 -0.0396 -0.0964 0.1170 Uiso
H3C_2 H 0.4649 -0.0396 0.9036 0.1170 Uiso
H3I_2 H 0.5351 0.0396 1.0964 0.1170 Uiso
C9F C 0.53735(16) 0.01140(15) 0.4980(3) 0.1011 Uiso
C9I C 0.46265(16) -0.01140(15) -0.0020(3) 0.1011 Uiso
C9C C 0.53735(16) 0.01140(15) 0.0020(3) 0.1011 Uiso
C9C_2 C 0.53735(16) 0.01140(15) 1.0020(3) 0.1011 Uiso
C9I_2 C 0.46265(16) -0.01140(15) 0.9980(3) 0.1011 Uiso
C10A C 0.84987(13) 0.35745(18) 0.2500 0.0506 Uiso
C10B C 0.64255(18) 0.49242(13) 0.2500 0.0506 Uiso
C11A C 0.81278(15) 0.35295(21) 0.2500 0.0626 Uiso
C11B C 0.64705(21) 0.45983(15) 0.2500 0.0626 Uiso
C12A C 0.8075(3) 0.3818(4) 0.2500 0.1300 Uiso
C12B C 0.6182(4) 0.4257(3) 0.2500 0.1300 Uiso
H4A H 0.8279 0.4058 0.2500 0.1560 Uiso
H4B H 0.5942 0.4221 0.2500 0.1560 Uiso
C13A C 0.7727(3) 0.3768(4) 0.2500 0.1470 Uiso
C13B C 0.6232(4) 0.3959(3) 0.2500 0.1470 Uiso
H5A H 0.7706 0.3982 0.2500 0.1760 Uiso
H5B H 0.6018 0.3724 0.2500 0.1760 Uiso
C14A C 0.74065(19) 0.34349(27) 0.2500 0.0826 Uiso
C14B C 0.65651(27) 0.39716(19) 0.2500 0.0826 Uiso
C15A C 0.70253(18) 0.33857(25) 0.2500 0.0792 Uiso
C15B C 0.66143(25) 0.36396(18) 0.2500 0.0792 Uiso
C16A C 0.69832(18) 0.36935(25) 0.2500 0.0803 Uiso
C16B C 0.63065(25) 0.32897(18) 0.2500 0.0803 Uiso
C17I C 0.08955(10) -0.30197(10) 0.59801(19) 0.0551 Uiso
C17E C 0.39152(14) 0.08955(10) 0.40199(19) 0.0551 Uiso
C17H C 0.39152(14) 0.08955(10) 1.09801(19) 0.0551 Uiso
C17H_2 C 0.39152(14) 0.08955(10) 0.09801(19) 0.0551 Uiso
C17E_2 C 0.39152(14) 0.08955(10) -0.59801(19) 0.0551 Uiso
C18I C 0.10474(10) -0.27973(11) 0.5281(2) 0.0627 Uiso
C18E C 0.38447(15) 0.10474(10) 0.4719(2) 0.0627 Uiso
C18H C 0.38447(15) 0.10474(10) 1.0281(2) 0.0627 Uiso
C18H_2 C 0.38447(15) 0.10474(10) 0.0281(2) 0.0627 Uiso
C18E_2 C 0.38447(15) 0.10474(10) -0.5281(2) 0.0627 Uiso
C19I C 0.14368(12) -0.25287(12) 0.5241(3) 0.0819 Uiso
C19E C 0.39655(17) 0.14368(12) 0.4759(3) 0.0819 Uiso
C19H C 0.39655(17) 0.14368(12) 1.0241(3) 0.0819 Uiso
C19H_2 C 0.39655(17) 0.14368(12) 0.0241(3) 0.0819 Uiso
C19E_2 C 0.39655(17) 0.14368(12) -0.5241(3) 0.0819 Uiso
H6I H 0.1589 -0.2474 0.5668 0.0980 Uiso
H6E H 0.4063 0.1589 0.4332 0.0980 Uiso
H6H H 0.4063 0.1589 1.0668 0.0980 Uiso
H6H_2 H 0.4063 0.1589 0.0668 0.0980 Uiso
H6E_2 H 0.4063 0.1589 -0.5668 0.0980 Uiso
C20I C 0.15844(12) -0.23494(14) 0.4551(3) 0.0868 Uiso
C20E C 0.39338(18) 0.15844(12) 0.5449(3) 0.0868 Uiso
C20H C 0.39338(18) 0.15844(12) 0.9551(3) 0.0868 Uiso
C20H_2 C 0.39338(18) 0.15844(12) -0.0449(3) 0.0868 Uiso
C20E_2 C 0.39338(18) 0.15844(12) -0.4551(3) 0.0868 Uiso
H7I H 0.1841 -0.2190 0.4506 0.1040 Uiso
H7E H 0.4031 0.1841 0.5494 0.1040 Uiso
H7H H 0.4031 0.1841 0.9506 0.1040 Uiso
H7H_2 H 0.4031 0.1841 -0.0494 0.1040 Uiso
H7E_2 H 0.4031 0.1841 -0.4506 0.1040 Uiso
C21I C 0.13559(12) -0.24042(12) 0.3931(2) 0.0731 Uiso
C21E C 0.37601(17) 0.13559(12) 0.6069(2) 0.0731 Uiso
C21H C 0.37601(17) 0.13559(12) 0.8931(2) 0.0731 Uiso
C21H_2 C 0.37601(17) 0.13559(12) -0.1069(2) 0.0731 Uiso
C21E_2 C 0.37601(17) 0.13559(12) -0.3931(2) 0.0731 Uiso
C22I C 0.09773(13) -0.26522(13) 0.3979(3) 0.0850 Uiso
C22E C 0.36295(18) 0.09773(13) 0.6021(3) 0.0850 Uiso
C22H C 0.36295(18) 0.09773(13) 0.8979(3) 0.0850 Uiso
C22H_2 C 0.36295(18) 0.09773(13) -0.1021(3) 0.0850 Uiso
C22E_2 C 0.36295(18) 0.09773(13) -0.3979(3) 0.0850 Uiso
H8I H 0.0825 -0.2693 0.3558 0.1020 Uiso
H8E H 0.3518 0.0825 0.6442 0.1020 Uiso
H8H H 0.3518 0.0825 0.8558 0.1020 Uiso
H8H_2 H 0.3518 0.0825 -0.1442 0.1020 Uiso
H8E_2 H 0.3518 0.0825 -0.3558 0.1020 Uiso
C23I C 0.08214(12) -0.28436(13) 0.4668(3) 0.0841 Uiso
C23E C 0.36650(18) 0.08214(12) 0.5332(3) 0.0841 Uiso
C23H C 0.36650(18) 0.08214(12) 0.9668(3) 0.0841 Uiso
C23H_2 C 0.36650(18) 0.08214(12) -0.0332(3) 0.0841 Uiso
C23E_2 C 0.36650(18) 0.08214(12) -0.4668(3) 0.0841 Uiso
H9I H 0.0565 -0.3001 0.4707 0.1010 Uiso
H9E H 0.3566 0.0565 0.5293 0.1010 Uiso
H9H H 0.3566 0.0565 0.9707 0.1010 Uiso
H9H_2 H 0.3566 0.0565 -0.0293 0.1010 Uiso
H9E_2 H 0.3566 0.0565 -0.4707 0.1010 Uiso
C24I C 0.15220(13) -0.22109(13) 0.3212(3) 0.0804 Uiso
C24E C 0.37329(18) 0.15220(13) 0.6788(3) 0.0804 Uiso
C24H C 0.37329(18) 0.15220(13) 0.8212(3) 0.0804 Uiso
C24H_2 C 0.37329(18) 0.15220(13) -0.1788(3) 0.0804 Uiso
C24E_2 C 0.37329(18) 0.15220(13) -0.3212(3) 0.0804 Uiso
C25I C 0.18437(12) -0.18596(12) 0.3203(2) 0.0777 Uiso
C25E C 0.37033(17) 0.18437(12) 0.6797(2) 0.0777 Uiso
C25H C 0.37033(17) 0.18437(12) 0.8203(2) 0.0777 Uiso
C25H_2 C 0.37033(17) 0.18437(12) -0.1797(2) 0.0777 Uiso
C25E_2 C 0.37033(17) 0.18437(12) -0.3203(2) 0.0777 Uiso
C26E C 0.36885(23) 0.20092(16) 0.7500 0.0724 Uiso
C26E_2 C 0.36885(23) 0.20092(16) -0.2500 0.0724 Uiso
C27E C 0.37412(24) 0.13473(17) 0.7500 0.0773 Uiso
C27E_2 C 0.37412(24) 0.13473(17) -0.2500 0.0773 Uiso
C28A C 0.7826(3) 0.3195(4) 0.2887(6) 0.2330 Uiso
C28J C 0.7826(3) 0.3195(4) 0.2113(6) 0.2330 Uiso
C28B C 0.6805(4) 0.4631(3) 0.2887(6) 0.2330 Uiso
C28K C 0.6805(4) 0.4631(3) 0.2113(6) 0.2330 Uiso
C28I C 0.5369(3) 0.2174(3) 0.2113(6) 0.2330 Uiso
C29A C 0.7452(4) 0.3159(6) 0.2500 0.1680 Uiso
C29B C 0.6841(6) 0.4293(4) 0.2500 0.1680 Uiso
loop_
_geom_bond_atom_site_label_1
_geom_bond_atom_site_label_2
_geom_bond_site_symmetry_1
_geom_bond_site_symmetry_2
Zn1 O1 1_555 1_555
Zn2 O1 1_555 1_555
Zn3 O1 1_555 1_555
O1 Zn1I 1_555 1_555
O2 Zn1 1_555 1_555
O3 Zn1 1_555 1_555
O4 Zn2 1_555 1_555
O5 C9 1_555 1_555
O6 Zn2 1_555 1_555
O7 Zn3 1_555 1_555
O8 C17 1_555 1_555
O9 C17 1_555 1_555
C1 O2 1_555 1_555
C2 C1 1_555 1_555
C3 C2 1_555 1_555
H1 C3 1_555 1_555
C4 C3 1_555 1_555
H2 C4 1_555 1_555
C5 C4 1_555 1_555
C6 O3 1_555 1_555
C7 C6 1_555 1_555
C8 C7 1_555 1_555
H3 C8 1_555 1_555
C9 C7 1_555 1_555
C10 O6 1_555 1_555
C11 C10 1_555 1_555
C12 C11 1_555 1_555
H4 C12 1_555 1_555
C13 C12 1_555 1_555
H5 C13 1_555 1_555
C14 C13 1_555 1_555
C15 C14 1_555 1_555
C16 C15 1_555 1_555
C17 C18 1_555 1_555
C18 C19 1_555 1_555
C19 H6 1_555 1_555
C20 C19 1_555 1_555
H7 C20 1_555 1_555
C21 C20 1_555 1_555
C22 C21 1_555 1_555
H8 C22 1_555 1_555
C23 C18 1_555 1_555
H9 C23 1_555 1_555
C24 C21 1_555 1_555
C25 C24 1_555 1_555
C26 C5 1_555 1_555
C27 C24 1_555 1_555
C28 C11 1_555 1_555
C29 C14 1_555 1_555
Zn1F O1C 1_555 1_555
Zn1I O2I 1_555 1_555
Zn1C O1C_2 1_555 1_555
Zn1E O1E 1_555 1_555
Zn1H O1E 1_555 1_555
Zn1D O9 1_555 1_555
Zn1G O9I 1_555 1_555
Zn1I_2 O3I_2 1_555 1_555
Zn1H_2 O2H_2 1_555 1_555
Zn1E_2 O2E_2 1_555 1_555
Zn1_2 O9E_2 1_555 1_555
Zn1C_2 O1C 1_555 1_555
Zn1F_2 O1C_2 1_555 1_555
Zn2C O1C 1_555 1_555
Zn2C_2 O1C_2 1_555 1_555
Zn2A O1A 1_555 1_555
Zn2B O1B 1_555 1_555
Zn2_2 O4I_2 1_555 1_555
Zn3A O1A 1_555 1_555
Zn3B O1B 1_555 1_555
Zn3D O8 1_555 1_555
Zn3D_2 O8I 1_555 1_555
Zn3_2 O8H 1_555 1_555
Zn3_3 O8E_2 1_555 1_555
Zn3C O1C 1_555 1_555
Zn3C_2 O1C_2 1_555 1_555
O2I C1 1_555 1_555
O2E Zn1E 1_555 1_555
O2H Zn1H 1_555 1_555
O2H_2 C1E_2 1_555 1_555
O2E_2 C1E_2 1_555 1_555
O2F Zn1F 1_555 1_555
O2C Zn1C 1_555 1_555
O3F Zn1F 1_555 1_555
O3I Zn1I 1_555 1_555
O3C Zn1C 1_555 1_555
O3C_2 Zn1C_2 1_555 1_555
O3I_2 C6I_2 1_555 1_555
O3E Zn1E 1_555 1_555
O3H Zn1H 1_555 1_555
O4F Zn2C 1_555 1_555
O4I Zn2 1_555 1_555
O4C Zn2C_2 1_555 1_555
O4C_2 Zn2C 1_555 1_555
O4I_2 C6I_2 1_555 1_555
O4F_2 Zn2C_2 1_555 1_555
O5F C9F 1_555 1_555
O5I C9I 1_555 1_555
O5C C9C 1_555 1_555
O5C_2 C9C_2 1_555 1_555
O5I_2 C9I_2 1_555 1_555
O6A Zn2A 1_555 1_555
O6B Zn2B 1_555 1_555
O6C Zn2C 1_555 1_555
O6C_2 Zn2C_2 1_555 1_555
O7A Zn3A 1_555 1_555
O7B Zn3B 1_555 1_555
O8I C17I 1_555 1_555
O8E Zn3 1_555 1_555
O8H C17H 1_555 1_555
O8H_2 Zn3 1_555 1_555
O8E_2 C17E_2 1_555 1_555
O8C Zn3A 1_555 1_555
O8F Zn3A 1_555 1_555
O8D Zn3B 1_555 1_555
O8G Zn3B 1_555 1_555
O9I C17I 1_555 1_555
O9E Zn1 1_555 1_555
O9H Zn1I_2 1_555 1_555
O9H_2 Zn1I 1_555 1_555
O9E_2 C17E_2 1_555 1_555
O9K Zn1F 1_555 1_555
O9B Zn1C 1_555 1_555
O9A Zn1E 1_555 1_555
O9J Zn1H 1_555 1_555
C1E O2E 1_555 1_555
C1E_2 C2E_2 1_555 1_555
C2E C1E 1_555 1_555
C2E_2 C3H_2 1_555 1_555
C3I C2 1_555 1_555
C3E C2E 1_555 1_555
C3H C2E 1_555 1_555
C3H_2 H1H_2 1_555 1_555
C3E_2 C2E_2 1_555 1_555
H1I C3I 1_555 1_555
H1E C3E 1_555 1_555
H1H C3H 1_555 1_555
H1E_2 C3E_2 1_555 1_555
C4I C5 1_555 1_555
C4E C3E 1_555 1_555
C4H C3H 1_555 1_555
C4H_2 C3H_2 1_555 1_555
C4E_2 C3E_2 1_555 1_555
H2I C4I 1_555 1_555
H2E C4E 1_555 1_555
H2H C4H 1_555 1_555
H2H_2 C4H_2 1_555 1_555
H2E_2 C4E_2 1_555 1_555
C5E C4E 1_555 1_555
C5E_2 C4H_2 1_555 1_555
C6F O3F 1_555 1_555
C6I O3I 1_555 1_555
C6C O3C 1_555 1_555
C6C_2 O3C_2 1_555 1_555
C6I_2 C7I_2 1_555 1_555
C7F C6F 1_555 1_555
C7I C6I 1_555 1_555
C7C C6C 1_555 1_555
C7C_2 C6C_2 1_555 1_555
C7I_2 C8I_2 1_555 1_555
C8F C9 1_555 1_555
C8I C7I 1_555 1_555
C8C C7C 1_555 1_555
C8C_2 C7C_2 1_555 1_555
C8I_2 H3I_2 1_555 1_555
H3F C8F 1_555 1_555
H3I C8I 1_555 1_555
H3C C8C 1_555 1_555
H3C_2 C8C_2 1_555 1_555
C9F C8 1_555 1_555
C9I C7I 1_555 1_555
C9C C7C 1_555 1_555
C9C_2 C7C_2 1_555 1_555
C9I_2 C7I_2 1_555 1_555
C10A O6A 1_555 1_555
C10B O6B 1_555 1_555
C11A C10A 1_555 1_555
C11B C10B 1_555 1_555
C12A C11A 1_555 1_555
C12B C11B 1_555 1_555
H4A C12A 1_555 1_555
H4B C12B 1_555 1_555
C13A C12A 1_555 1_555
C13B C12B 1_555 1_555
H5A C13A 1_555 1_555
H5B C13B 1_555 1_555
C14A C13A 1_555 1_555
C14B C13B 1_555 1_555
C15A C16 1_555 1_555
C15B C14B 1_555 1_555
C16A C15A 1_555 1_555
C16B C15 1_555 1_555
C17I C18I 1_555 1_555
C17E O8E 1_555 1_555
C17H O9H 1_555 1_555
C17H_2 O8H_2 1_555 1_555
C17E_2 C18E_2 1_555 1_555
C18I C19I 1_555 1_555
C18E C17E 1_555 1_555
C18H C17H 1_555 1_555
C18H_2 C17H_2 1_555 1_555
C18E_2 C19E_2 1_555 1_555
C19I H6I 1_555 1_555
C19E C18E 1_555 1_555
C19H C18H 1_555 1_555
C19H_2 C18H_2 1_555 1_555
C19E_2 H6E_2 1_555 1_555
H6E C19E 1_555 1_555
H6H C19H 1_555 1_555
H6H_2 C19H_2 1_555 1_555
C20I C19I 1_555 1_555
C20E C19E 1_555 1_555
C20H C19H 1_555 1_555
C20H_2 C19H_2 1_555 1_555
C20E_2 C19E_2 1_555 1_555
H7I C20I 1_555 1_555
H7E C20E 1_555 1_555
H7H C20H 1_555 1_555
H7H_2 C20H_2 1_555 1_555
H7E_2 C20E_2 1_555 1_555
C21I C20I 1_555 1_555
C21E C20E 1_555 1_555
C21H C20H 1_555 1_555
C21H_2 C20H_2 1_555 1_555
C21E_2 C20E_2 1_555 1_555
C22I C21I 1_555 1_555
C22E C21E 1_555 1_555
C22H C21H 1_555 1_555
C22H_2 C21H_2 1_555 1_555
C22E_2 C21E_2 1_555 1_555
H8I C22I 1_555 1_555
H8E C22E 1_555 1_555
H8H C22H 1_555 1_555
H8H_2 C22H_2 1_555 1_555
H8E_2 C22E_2 1_555 1_555
C23I C18I 1_555 1_555
C23E C18E 1_555 1_555
C23H C18H 1_555 1_555
C23H_2 C18H_2 1_555 1_555
C23E_2 C18E_2 1_555 1_555
H9I C23I 1_555 1_555
H9E C23E 1_555 1_555
H9H C23H 1_555 1_555
H9H_2 C23H_2 1_555 1_555
H9E_2 C23E_2 1_555 1_555
C24I C27 1_555 1_555
C24E C21E 1_555 1_555
C24H C21H 1_555 1_555
C24H_2 C21H_2 1_555 1_555
C24E_2 C21E_2 1_555 1_555
C25I C26 1_555 1_555
C25E C24E 1_555 1_555
C25H C24H 1_555 1_555
C25H_2 C24H_2 1_555 1_555
C25E_2 C24E_2 1_555 1_555
C26E C5E 1_555 1_555
C26E_2 C5E_2 1_555 1_555
C27E C24E 1_555 1_555
C27E_2 C24H_2 1_555 1_555
C28A C11A 1_555 1_555
C28J C11A 1_555 1_555
C28B C11B 1_555 1_555
C28K C11B 1_555 1_555
C28I C11 1_555 1_555
C29A C14A 1_555 1_555
C29B C14B 1_555 1_555
O4 C6 1_555 1_555
O7 C10 1_555 1_555
C22 C23 1_555 1_555
C25 C26 1_555 1_555
C28 C29 1_555 1_555
C28 C28I 1_555 1_555
C29 C28I 1_555 1_555
O2H C1E 1_555 1_555
O4F C6F 1_555 1_555
O4I C6I 1_555 1_555
O4C C6C 1_555 1_555
O4C_2 C6C_2 1_555 1_555
O7A C10A 1_555 1_555
O7B C10B 1_555 1_555
O9E C17E 1_555 1_555
O9H_2 C17H_2 1_555 1_555
C3I C4I 1_555 1_555
C4H C5E 1_555 1_555
C4E_2 C5E_2 1_555 1_555
C7F C8F 1_555 1_555
C7F C9F 1_555 1_555
C8I C9C 1_555 1_555
C8C C9I 1_555 1_555
C8C_2 C9I_2 1_555 1_555
C8I_2 C9C_2 1_555 1_555
C14A C15A 1_555 1_555
C15B C16A 1_555 1_555
C15B C16B 1_555 1_555
C21I C24I 1_555 1_555
C22I C23I 1_555 1_555
C22E C23E 1_555 1_555
C22H C23H 1_555 1_555
C22H_2 C23H_2 1_555 1_555
C22E_2 C23E_2 1_555 1_555
C24I C25I 1_555 1_555
C24H C27E 1_555 1_555
C24E_2 C27E_2 1_555 1_555
C25E C26E 1_555 1_555
C25H C26E 1_555 1_555
C25H_2 C26E_2 1_555 1_555
C25E_2 C26E_2 1_555 1_555
C28A C28J 1_555 1_555
C28A C29A 1_555 1_555
C28J C29A 1_555 1_555
C28B C28K 1_555 1_555
C28B C29B 1_555 1_555
C28K C29B 1_555 1_555

#END
