
#######################################################################
#
#                 Cambridge Crystallographic Data Centre
#                                CCDC 
#
#######################################################################
#
# If this CIF has been generated from an entry in the Cambridge 
# Structural Database, then it will include bibliographic, chemical, 
# crystal, experimental, refinement or atomic coordinate data resulting 
# from the CCDC's data processing and validation procedures.
#
#######################################################################

data_FAZQEE
_chemical_formula_moiety         'C138 H48 Br6 O57 Zn29'
_symmetry_cell_setting           hexagonal
_symmetry_space_group_name_H-M   'P 63/m'
_symmetry_Int_Tables_number      176
_space_group_name_Hall           '-P 6c'
loop_
_symmetry_equiv_pos_site_id
_symmetry_equiv_pos_as_xyz
1 x,y,z
2 -y,x-y,z
3 -x+y,-x,z
4 -x,-y,1/2+z
5 y,-x+y,1/2+z
6 x-y,x,1/2+z
7 -x,-y,-z
8 y,-x+y,-z
9 x-y,x,-z
10 x,y,1/2-z
11 -y,x-y,1/2-z
12 -x+y,-x,1/2-z
_cell_length_a                   41.336(3)
_cell_length_b                   41.336(3)
_cell_length_c                   17.554(3)
_cell_angle_alpha                90
_cell_angle_beta                 90
_cell_angle_gamma                120
_cell_volume                     25975.5
loop_
_atom_site_label
_atom_site_type_symbol
_atom_site_fract_x
_atom_site_fract_y
_atom_site_fract_z
_atom_site_U_iso_or_equiv
_atom_site_thermal_displace_type
Zn1 Zn 0.028878(11) 0.400711(11) 0.66021(2) 0.0350 Uiso
Zn2 Zn 0.069414(17) 0.477786(17) 0.7500 0.0389 Uiso
Zn3 Zn 0.104463(16) 0.425117(16) 0.7500 0.0356 Uiso
O1 O 0.05793(9) 0.42665(9) 0.7500 0.0302 Uiso
O2 O 0.11006(8) 0.40353(8) 0.65719(16) 0.0584 Uiso
O3 O 0.05669(8) 0.38653(8) 0.59412(17) 0.0582 Uiso
O4 O 0.04743(8) 0.48773(9) 0.66194(17) 0.0613 Uiso
O5 O 0.01674(8) 0.43346(8) 0.60177(17) 0.0613 Uiso
O6 O 0.14645(14) 0.47583(14) 0.7500 0.0754 Uiso
O7 O 0.12177(13) 0.51259(12) 0.7500 0.0655 Uiso
O8 O 0.35645(8) 0.37328(8) 0.18629(17) 0.0593 Uiso
C1 C 0.02755(12) 0.46736(12) 0.6104(2) 0.0541 Uiso
C2 C 0.01281(12) 0.48387(12) 0.5537(2) 0.0539 Uiso
C5 C 0.0283(3) 0.5216(3) 0.5484(6) 0.0650 Uiso
C6 C -0.0148(3) 0.4618(3) 0.5031(6) 0.0600 Uiso
Br3 Br -0.0433(3) 0.4072(3) 0.4935(7) 0.1030 Uiso
C7 C 0.14954(17) 0.50753(17) 0.7500 0.0520 Uiso
C8 C 0.2978(2) 0.6358(2) 0.7500 0.0760 Uiso
C9 C 0.3028(2) 0.6723(2) 0.7500 0.0770 Uiso
H1 H 0.2818 0.6758 0.7500 0.0920 Uiso
C10 C 0.09000(12) 0.39234(11) 0.5986(2) 0.0493 Uiso
C11 C 0.10570(12) 0.38596(12) 0.5281(2) 0.0526 Uiso
C12 C 0.14287(15) 0.39694(14) 0.5248(3) 0.0752 Uiso
H2 H 0.1582 0.4070 0.5686 0.0900 Uiso
C13 C 0.15849(16) 0.39317(15) 0.4552(3) 0.0834 Uiso
H3 H 0.1844 0.4012 0.4526 0.1000 Uiso
C14 C 0.13654(14) 0.37807(14) 0.3922(3) 0.0685 Uiso
C15 C 0.09894(16) 0.36516(16) 0.3984(3) 0.0849 Uiso
H4 H 0.0832 0.3534 0.3558 0.1020 Uiso
C16 C 0.08315(16) 0.36910(15) 0.4672(3) 0.0811 Uiso
H5 H 0.0571 0.3600 0.4707 0.0970 Uiso
C17 C 0.15308(14) 0.37488(14) 0.3200(3) 0.0698 Uiso
C18 C 0.1363(2) 0.3760(2) 0.2500 0.0730 Uiso
H6 H 0.1140 0.3774 0.2500 0.0880 Uiso
C19 C 0.18564(14) 0.37275(13) 0.3192(3) 0.0677 Uiso
H7 H 0.1969 0.3721 0.3659 0.0810 Uiso
C20 C 0.34212(15) 0.37303(16) 0.2500 0.0442 Uiso
C21 C 0.30577(17) 0.37159(17) 0.2500 0.0529 Uiso
C24 C 0.2956(2) 0.3848(2) 0.1862(5) 0.0500 Uiso
H10 H 0.3119 0.3941 0.1435 0.0600 Uiso
C25 C 0.2622(2) 0.3846(2) 0.1850(5) 0.0500 Uiso
H11 H 0.2552 0.3931 0.1411 0.0600 Uiso
C26 C 0.23786(19) 0.37149(19) 0.2500 0.0627 Uiso
C27 C 0.20196(19) 0.37159(19) 0.2500 0.0638 Uiso
C28 C 0.18745(19) 0.54042(19) 0.7500 0.0648 Uiso
C29 C 0.2587(2) 0.6023(2) 0.7500 0.0840 Uiso
C30 C 0.1925(4) 0.5748(4) 0.7500 0.0580 Uiso
C31 C 0.2270(4) 0.6045(4) 0.7500 0.0710 Uiso
C32 C 0.2180(4) 0.5377(4) 0.7193(7) 0.0370 Uiso
C33 C 0.2511(3) 0.5679(3) 0.7182(6) 0.0780 Uiso
Zn1F Zn -0.028878(11) 0.599289(11) 0.33979(2) 0.0350 Uiso
Zn1I Zn 0.028878(11) 0.400711(11) 0.83979(2) 0.0350 Uiso
Zn1C Zn -0.028878(11) 0.599289(11) 1.16021(2) 0.0350 Uiso
Zn1I_2 Zn 0.028878(11) 0.400711(11) -0.16021(2) 0.0350 Uiso
Zn1E Zn -0.371833(16) 0.028878(11) 1.16021(2) 0.0350 Uiso
Zn1D Zn 0.400711(11) 0.371833(16) 0.16021(2) 0.0350 Uiso
Zn1G Zn 0.400711(11) 0.371833(16) 0.33979(2) 0.0350 Uiso
Zn1H Zn -0.371833(16) 0.028878(11) 0.33979(2) 0.0350 Uiso
Zn1G_2 Zn 0.400711(11) 0.371833(16) 1.33979(2) 0.0350 Uiso
Zn1_2 Zn 0.028878(11) 0.400711(11) 1.66021(2) 0.0350 Uiso
Zn1D_2 Zn 0.400711(11) 0.371833(16) 1.16021(2) 0.0350 Uiso
Zn1C_2 Zn -0.028878(11) 0.599289(11) 0.16021(2) 0.0350 Uiso
Zn1F_2 Zn -0.028878(11) 0.599289(11) 1.33979(2) 0.0350 Uiso
Zn2C Zn -0.069414(17) 0.522214(17) 0.2500 0.0389 Uiso
Zn2C_2 Zn -0.069414(17) 0.522214(17) 1.2500 0.0389 Uiso
Zn2A Zn 0.522214(17) 0.591628(24) 0.7500 0.0389 Uiso
Zn2B Zn 0.408372(24) 0.930586(17) 0.7500 0.0389 Uiso
Zn2_2 Zn 0.069414(17) 0.477786(17) -0.2500 0.0389 Uiso
Zn3A Zn 0.574883(16) 0.679346(23) 0.7500 0.0356 Uiso
Zn3B Zn 0.320654(23) 0.895537(16) 0.7500 0.0356 Uiso
Zn3_2 Zn 0.104463(16) 0.425117(16) -0.2500 0.0356 Uiso
Zn3E Zn -0.320654(23) 0.104463(16) 1.2500 0.0356 Uiso
Zn3E_2 Zn -0.320654(23) 0.104463(16) 0.2500 0.0356 Uiso
Zn3_3 Zn 0.104463(16) 0.425117(16) 1.7500 0.0356 Uiso
Zn3C Zn -0.104463(16) 0.574883(16) 0.2500 0.0356 Uiso
Zn3C_2 Zn -0.104463(16) 0.574883(16) 1.2500 0.0356 Uiso
O1C O -0.05793(9) 0.57335(9) 0.2500 0.0302 Uiso
O1C_2 O -0.05793(9) 0.57335(9) 1.2500 0.0302 Uiso
O1A O 0.57335(9) 0.63128(13) 0.7500 0.0302 Uiso
O1B O 0.36872(13) 0.94207(9) 0.7500 0.0302 Uiso
O1_2 O 0.05793(9) 0.42665(9) -0.2500 0.0302 Uiso
O1E O -0.36872(13) 0.05793(9) 1.2500 0.0302 Uiso
O2I O 0.11006(8) 0.40353(8) -0.15719(16) 0.0584 Uiso
O2E O -0.29347(11) 0.11006(8) 1.15719(16) 0.0584 Uiso
O2H O -0.29347(11) 0.11006(8) 0.34281(16) 0.0584 Uiso
O2I_2 O 0.11006(8) 0.40353(8) 0.84281(16) 0.0584 Uiso
O2_2 O 0.11006(8) 0.40353(8) 1.65719(16) 0.0584 Uiso
O2A O 0.59647(8) 0.70653(11) 0.65719(16) 0.0584 Uiso
O2J O 0.59647(8) 0.70653(11) 0.84281(16) 0.0584 Uiso
O2B O 0.29347(11) 0.88994(8) 0.65719(16) 0.0584 Uiso
O2K O 0.29347(11) 0.88994(8) 0.84281(16) 0.0584 Uiso
O3I O 0.05669(8) 0.38653(8) -0.09412(17) 0.0582 Uiso
O3E O -0.32984(11) 0.05669(8) 1.09412(17) 0.0582 Uiso
O3H O -0.32984(11) 0.05669(8) 0.40588(17) 0.0582 Uiso
O3I_2 O 0.05669(8) 0.38653(8) 0.90588(17) 0.0582 Uiso
O3_2 O 0.05669(8) 0.38653(8) 1.59412(17) 0.0582 Uiso
O3F O -0.05669(8) 0.61347(8) 0.40588(17) 0.0582 Uiso
O3C O -0.05669(8) 0.61347(8) 1.09412(17) 0.0582 Uiso
O4F O -0.04743(8) 0.51227(9) 0.33806(17) 0.0613 Uiso
O4I O 0.04743(8) 0.48773(9) 0.83806(17) 0.0613 Uiso
O4C O -0.04743(8) 0.51227(9) 1.16194(17) 0.0613 Uiso
O4C_2 O -0.04743(8) 0.51227(9) 0.16194(17) 0.0613 Uiso
O4I_2 O 0.04743(8) 0.48773(9) -0.16194(17) 0.0613 Uiso
O4F_2 O -0.04743(8) 0.51227(9) 1.33806(17) 0.0613 Uiso
O5F O -0.01674(8) 0.56654(8) 0.39823(17) 0.0613 Uiso
O5I O 0.01674(8) 0.43346(8) 0.89823(17) 0.0613 Uiso
O5C O -0.01674(8) 0.56654(8) 1.10177(17) 0.0613 Uiso
O5C_2 O -0.01674(8) 0.56654(8) 0.10177(17) 0.0613 Uiso
O5I_2 O 0.01674(8) 0.43346(8) -0.10177(17) 0.0613 Uiso
O5E O -0.41672(11) 0.01674(8) 1.10177(17) 0.0613 Uiso
O6A O 0.52417(14) 0.67062(20) 0.7500 0.0754 Uiso
O6B O 0.32938(20) 0.85355(14) 0.7500 0.0754 Uiso
O7A O 0.48741(12) 0.60918(18) 0.7500 0.0655 Uiso
O7B O 0.39082(18) 0.87823(13) 0.7500 0.0655 Uiso
O7C O -0.12177(13) 0.48741(12) 0.2500 0.0655 Uiso
O7C_2 O -0.12177(13) 0.48741(12) 1.2500 0.0655 Uiso
O8I O 0.35645(8) 0.37328(8) 0.31371(17) 0.0593 Uiso
O8E O -0.01683(11) 0.35645(8) 0.68629(17) 0.0593 Uiso
O8H O -0.01683(11) 0.35645(8) 0.81371(17) 0.0593 Uiso
O8I_2 O 0.35645(8) 0.37328(8) 1.31371(17) 0.0593 Uiso
O8_2 O 0.35645(8) 0.37328(8) 1.18629(17) 0.0593 Uiso
O8K O 0.01683(11) 0.64355(8) 0.31371(17) 0.0593 Uiso
O8B O 0.01683(11) 0.64355(8) 1.18629(17) 0.0593 Uiso
O8H_2 O -0.01683(11) 0.35645(8) -0.18629(17) 0.0593 Uiso
O8A O -0.37328(8) -0.01683(11) 1.18629(17) 0.0593 Uiso
C1F C -0.02755(12) 0.53264(12) 0.3896(2) 0.0541 Uiso
C1I C 0.02755(12) 0.46736(12) 0.8896(2) 0.0541 Uiso
C1C C -0.02755(12) 0.53264(12) 1.1104(2) 0.0541 Uiso
C1C_2 C -0.02755(12) 0.53264(12) 0.1104(2) 0.0541 Uiso
C1I_2 C 0.02755(12) 0.46736(12) -0.1104(2) 0.0541 Uiso
C2F C -0.01281(12) 0.51613(12) 0.4463(2) 0.0539 Uiso
C2I C 0.01281(12) 0.48387(12) 0.9463(2) 0.0539 Uiso
C2C C -0.01281(12) 0.51613(12) 1.0537(2) 0.0539 Uiso
C2C_2 C -0.01281(12) 0.51613(12) 0.0537(2) 0.0539 Uiso
C2I_2 C 0.01281(12) 0.48387(12) -0.0537(2) 0.0539 Uiso
C5F C -0.0283(3) 0.4784(3) 0.4516(6) 0.0650 Uiso
C5I C 0.0283(3) 0.5216(3) 0.9516(6) 0.0650 Uiso
C5C C -0.0283(3) 0.4784(3) 1.0484(6) 0.0650 Uiso
C5C_2 C -0.0283(3) 0.4784(3) 0.0484(6) 0.0650 Uiso
C5I_2 C 0.0283(3) 0.5216(3) -0.0484(6) 0.0650 Uiso
C6F C 0.0148(3) 0.5382(3) 0.4969(6) 0.0600 Uiso
C6I C -0.0148(3) 0.4618(3) 0.9969(6) 0.0600 Uiso
C6C C 0.0148(3) 0.5382(3) 1.0031(6) 0.0600 Uiso
C6C_2 C 0.0148(3) 0.5382(3) 0.0031(6) 0.0600 Uiso
C6I_2 C -0.0148(3) 0.4618(3) -0.0031(6) 0.0600 Uiso
Br3F Br 0.0433(3) 0.5928(3) 0.5065(7) 0.1030 Uiso
Br3I Br -0.0433(3) 0.4072(3) 1.0065(7) 0.1030 Uiso
Br3C Br 0.0433(3) 0.5928(3) 0.9935(7) 0.1030 Uiso
Br3C_2 Br 0.0433(3) 0.5928(3) -0.0065(7) 0.1030 Uiso
Br3I_2 Br -0.0433(3) 0.4072(3) 0.0065(7) 0.1030 Uiso
C7A C 0.49247(17) 0.64201(24) 0.7500 0.0520 Uiso
C7B C 0.35799(24) 0.85046(17) 0.7500 0.0520 Uiso
C8B C 0.3380(3) 0.7022(2) 0.7500 0.0760 Uiso
C8A C 0.3642(2) 0.6620(3) 0.7500 0.0760 Uiso
C9B C 0.3695(3) 0.6972(2) 0.7500 0.0770 Uiso
C9A C 0.3277(2) 0.6305(3) 0.7500 0.0770 Uiso
H1A H 0.3242 0.6060 0.7500 0.0920 Uiso
H1B H 0.3940 0.7182 0.7500 0.0920 Uiso
C10I C 0.09000(12) 0.39234(11) -0.0986(2) 0.0493 Uiso
C10E C -0.30234(16) 0.09000(12) 1.0986(2) 0.0493 Uiso
C10H C -0.30234(16) 0.09000(12) 0.4014(2) 0.0493 Uiso
C10I_2 C 0.09000(12) 0.39234(11) 0.9014(2) 0.0493 Uiso
C10_2 C 0.09000(12) 0.39234(11) 1.5986(2) 0.0493 Uiso
C11I C 0.10570(12) 0.38596(12) -0.0281(2) 0.0526 Uiso
C11E C -0.28026(17) 0.10570(12) 1.0281(2) 0.0526 Uiso
C11H C -0.28026(17) 0.10570(12) 0.4719(2) 0.0526 Uiso
C11I_2 C 0.10570(12) 0.38596(12) 0.9719(2) 0.0526 Uiso
C11_2 C 0.10570(12) 0.38596(12) 1.5281(2) 0.0526 Uiso
C12I C 0.14287(15) 0.39694(14) -0.0248(3) 0.0752 Uiso
C12E C -0.25407(21) 0.14287(15) 1.0248(3) 0.0752 Uiso
C12H C -0.25407(21) 0.14287(15) 0.4752(3) 0.0752 Uiso
C12I_2 C 0.14287(15) 0.39694(14) 0.9752(3) 0.0752 Uiso
C12_2 C 0.14287(15) 0.39694(14) 1.5248(3) 0.0752 Uiso
H2I H 0.1582 0.4070 -0.0686 0.0900 Uiso
H2E H -0.2488 0.1582 1.0686 0.0900 Uiso
H2H H -0.2488 0.1582 0.4314 0.0900 Uiso
H2I_2 H 0.1582 0.4070 0.9314 0.0900 Uiso
H2_2 H 0.1582 0.4070 1.5686 0.0900 Uiso
C13I C 0.15849(16) 0.39317(15) 0.0448(3) 0.0834 Uiso
C13E C -0.23468(22) 0.15849(16) 0.9552(3) 0.0834 Uiso
C13H C -0.23468(22) 0.15849(16) 0.5448(3) 0.0834 Uiso
C13I_2 C 0.15849(16) 0.39317(15) 1.0448(3) 0.0834 Uiso
C13_2 C 0.15849(16) 0.39317(15) 1.4552(3) 0.0834 Uiso
H3I H 0.1844 0.4012 0.0474 0.1000 Uiso
H3E H -0.2168 0.1844 0.9526 0.1000 Uiso
H3H H -0.2168 0.1844 0.5474 0.1000 Uiso
H3I_2 H 0.1844 0.4012 1.0474 0.1000 Uiso
H3_2 H 0.1844 0.4012 1.4526 0.1000 Uiso
C14I C 0.13654(14) 0.37807(14) 0.1078(3) 0.0685 Uiso
C14E C -0.24153(20) 0.13654(14) 0.8922(3) 0.0685 Uiso
C14H C -0.24153(20) 0.13654(14) 0.6078(3) 0.0685 Uiso
C14I_2 C 0.13654(14) 0.37807(14) 1.1078(3) 0.0685 Uiso
C14_2 C 0.13654(14) 0.37807(14) 1.3922(3) 0.0685 Uiso
C15I C 0.09894(16) 0.36516(16) 0.1016(3) 0.0849 Uiso
C15E C -0.26622(23) 0.09894(16) 0.8984(3) 0.0849 Uiso
C15H C -0.26622(23) 0.09894(16) 0.6016(3) 0.0849 Uiso
C15I_2 C 0.09894(16) 0.36516(16) 1.1016(3) 0.0849 Uiso
C15_2 C 0.09894(16) 0.36516(16) 1.3984(3) 0.0849 Uiso
H4I H 0.0832 0.3534 0.1442 0.1020 Uiso
H4E H -0.2702 0.0832 0.8558 0.1020 Uiso
H4H H -0.2702 0.0832 0.6442 0.1020 Uiso
H4I_2 H 0.0832 0.3534 1.1442 0.1020 Uiso
H4_2 H 0.0832 0.3534 1.3558 0.1020 Uiso
C16I C 0.08315(16) 0.36910(15) 0.0328(3) 0.0811 Uiso
C16E C -0.28595(22) 0.08315(16) 0.9672(3) 0.0811 Uiso
C16H C -0.28595(22) 0.08315(16) 0.5328(3) 0.0811 Uiso
C16I_2 C 0.08315(16) 0.36910(15) 1.0328(3) 0.0811 Uiso
C16_2 C 0.08315(16) 0.36910(15) 1.4672(3) 0.0811 Uiso
H5I H 0.0571 0.3600 0.0293 0.0970 Uiso
H5E H -0.3029 0.0571 0.9707 0.0970 Uiso
H5H H -0.3029 0.0571 0.5293 0.0970 Uiso
H5I_2 H 0.0571 0.3600 1.0293 0.0970 Uiso
H5_2 H 0.0571 0.3600 1.4707 0.0970 Uiso
C17I C 0.15308(14) 0.37488(14) 0.1800(3) 0.0698 Uiso
C17E C -0.22180(20) 0.15308(14) 0.8200(3) 0.0698 Uiso
C17H C -0.22180(20) 0.15308(14) 0.6800(3) 0.0698 Uiso
C17I_2 C 0.15308(14) 0.37488(14) 1.1800(3) 0.0698 Uiso
C17_2 C 0.15308(14) 0.37488(14) 1.3200(3) 0.0698 Uiso
C18E C -0.2397(3) 0.1363(2) 0.7500 0.0730 Uiso
C18_2 C 0.1363(2) 0.3760(2) 1.2500 0.0730 Uiso
H6E H -0.2634 0.1140 0.7500 0.0880 Uiso
H6_2 H 0.1140 0.3774 1.2500 0.0880 Uiso
C19I C 0.18564(14) 0.37275(13) 0.1808(3) 0.0677 Uiso
C19E C -0.18711(19) 0.18564(14) 0.8192(3) 0.0677 Uiso
C19H C -0.18711(19) 0.18564(14) 0.6808(3) 0.0677 Uiso
C19I_2 C 0.18564(14) 0.37275(13) 1.1808(3) 0.0677 Uiso
C19_2 C 0.18564(14) 0.37275(13) 1.3192(3) 0.0677 Uiso
H7I H 0.1969 0.3721 0.1341 0.0810 Uiso
H7E H -0.1752 0.1969 0.8659 0.0810 Uiso
H7H H -0.1752 0.1969 0.6341 0.0810 Uiso
H7I_2 H 0.1969 0.3721 1.1341 0.0810 Uiso
H7_2 H 0.1969 0.3721 1.3659 0.0810 Uiso
C20E C -0.03091(22) 0.34212(15) 0.7500 0.0442 Uiso
C20_2 C 0.34212(15) 0.37303(16) 1.2500 0.0442 Uiso
C21E C -0.06582(24) 0.30577(17) 0.7500 0.0529 Uiso
C21_2 C 0.30577(17) 0.37159(17) 1.2500 0.0529 Uiso
C24I C 0.2956(2) 0.3848(2) 0.3138(5) 0.0500 Uiso
C24E C -0.0892(3) 0.2956(2) 0.6862(5) 0.0500 Uiso
C24H C -0.0892(3) 0.2956(2) 0.8138(5) 0.0500 Uiso
C24I_2 C 0.2956(2) 0.3848(2) 1.3138(5) 0.0500 Uiso
C24_2 C 0.2956(2) 0.3848(2) 1.1862(5) 0.0500 Uiso
H10I H 0.3119 0.3941 0.3565 0.0600 Uiso
H10E H -0.0822 0.3119 0.6435 0.0600 Uiso
H10H H -0.0822 0.3119 0.8565 0.0600 Uiso
H10I_2 H 0.3119 0.3941 1.3565 0.0600 Uiso
H10_2 H 0.3119 0.3941 1.1435 0.0600 Uiso
C25I C 0.2622(2) 0.3846(2) 0.3150(5) 0.0500 Uiso
C25E C -0.1224(3) 0.2622(2) 0.6850(5) 0.0500 Uiso
C25H C -0.1224(3) 0.2622(2) 0.8150(5) 0.0500 Uiso
C25I_2 C 0.2622(2) 0.3846(2) 1.3150(5) 0.0500 Uiso
C25_2 C 0.2622(2) 0.3846(2) 1.1850(5) 0.0500 Uiso
H11I H 0.2552 0.3931 0.3589 0.0600 Uiso
H11E H -0.1379 0.2552 0.6411 0.0600 Uiso
H11H H -0.1379 0.2552 0.8589 0.0600 Uiso
H11I_2 H 0.2552 0.3931 1.3589 0.0600 Uiso
H11_2 H 0.2552 0.3931 1.1411 0.0600 Uiso
C26E C -0.13363(27) 0.23786(19) 0.7500 0.0627 Uiso
C26_2 C 0.23786(19) 0.37149(19) 1.2500 0.0627 Uiso
C27E C -0.16963(27) 0.20196(19) 0.7500 0.0638 Uiso
C27_2 C 0.20196(19) 0.37159(19) 1.2500 0.0638 Uiso
C28A C 0.45958(19) 0.64703(27) 0.7500 0.0648 Uiso
C28B C 0.35297(27) 0.81255(19) 0.7500 0.0648 Uiso
C29A C 0.3977(2) 0.6564(3) 0.7500 0.0840 Uiso
C29B C 0.3436(3) 0.7413(2) 0.7500 0.0840 Uiso
C30A C 0.4252(4) 0.6177(6) 0.7500 0.0580 Uiso
C30B C 0.3823(6) 0.8075(4) 0.7500 0.0580 Uiso
C31A C 0.3955(4) 0.6225(6) 0.7500 0.0710 Uiso
C31B C 0.3775(6) 0.7730(4) 0.7500 0.0710 Uiso
C32A C 0.4623(4) 0.6803(6) 0.7193(7) 0.0370 Uiso
C32J C 0.4623(4) 0.6803(6) 0.7807(7) 0.0370 Uiso
C32B C 0.3197(6) 0.7820(4) 0.7193(7) 0.0370 Uiso
C32K C 0.3197(6) 0.7820(4) 0.7807(7) 0.0370 Uiso
C32I C 0.2180(4) 0.5377(4) 0.7807(7) 0.0370 Uiso
C33J C 0.4321(3) 0.6832(4) 0.7818(6) 0.0780 Uiso
C33A C 0.4321(3) 0.6832(4) 0.7182(6) 0.0780 Uiso
C33B C 0.3168(4) 0.7489(3) 0.7182(6) 0.0780 Uiso
C33K C 0.3168(4) 0.7489(3) 0.7818(6) 0.0780 Uiso
C33I C 0.2511(3) 0.5679(3) 0.7818(6) 0.0780 Uiso
loop_
_geom_bond_atom_site_label_1
_geom_bond_atom_site_label_2
_geom_bond_site_symmetry_1
_geom_bond_site_symmetry_2
Zn1 O1 1_555 1_555
Zn2 O1 1_555 1_555
Zn3 O1 1_555 1_555
O1 Zn1I 1_555 1_555
O2 Zn3 1_555 1_555
O3 Zn1 1_555 1_555
O4 Zn2 1_555 1_555
O5 Zn1 1_555 1_555
O6 Zn3 1_555 1_555
O7 Zn2 1_555 1_555
O8 C20 1_555 1_555
C1 O4 1_555 1_555
C2 C1 1_555 1_555
C5 C2 1_555 1_555
C6 C2 1_555 1_555
Br3 C6 1_555 1_555
C7 O6 1_555 1_555
C8 C9 1_555 1_555
C9 H1 1_555 1_555
C10 O2 1_555 1_555
C11 C10 1_555 1_555
C12 C11 1_555 1_555
H2 C12 1_555 1_555
C13 C12 1_555 1_555
H3 C13 1_555 1_555
C14 C13 1_555 1_555
C15 C14 1_555 1_555
H4 C15 1_555 1_555
C16 C11 1_555 1_555
H5 C16 1_555 1_555
C17 C14 1_555 1_555
C18 C17 1_555 1_555
H6 C18 1_555 1_555
C19 C17 1_555 1_555
H7 C19 1_555 1_555
C20 C21 1_555 1_555
C21 C24 1_555 1_555
C24 H10 1_555 1_555
C25 C24 1_555 1_555
H11 C25 1_555 1_555
C26 C25 1_555 1_555
C27 C19 1_555 1_555
C28 C7 1_555 1_555
C29 C8 1_555 1_555
C30 C28 1_555 1_555
C31 C29 1_555 1_555
C32 C28 1_555 1_555
C33 C29 1_555 1_555
Zn1F O1C 1_555 1_555
Zn1I O3I_2 1_555 1_555
Zn1C O1C_2 1_555 1_555
Zn1I_2 O1_2 1_555 1_555
Zn1E O1E 1_555 1_555
Zn1D O8 1_555 1_555
Zn1G O8I 1_555 1_555
Zn1H O3H 1_555 1_555
Zn1G_2 O8I_2 1_555 1_555
Zn1_2 O3_2 1_555 1_555
Zn1D_2 O8_2 1_555 1_555
Zn1C_2 O1C 1_555 1_555
Zn1F_2 O1C_2 1_555 1_555
Zn2C O1C 1_555 1_555
Zn2C_2 O1C_2 1_555 1_555
Zn2A O1A 1_555 1_555
Zn2B O1B 1_555 1_555
Zn2_2 O1_2 1_555 1_555
Zn3A O1A 1_555 1_555
Zn3B O1B 1_555 1_555
Zn3_2 O1_2 1_555 1_555
Zn3E O1E 1_555 1_555
Zn3E_2 O2H 1_555 1_555
Zn3_3 O2_2 1_555 1_555
Zn3C O1C 1_555 1_555
Zn3C_2 O1C_2 1_555 1_555
O2I Zn3_2 1_555 1_555
O2E Zn3E 1_555 1_555
O2H C10H 1_555 1_555
O2I_2 Zn3 1_555 1_555
O2_2 C10_2 1_555 1_555
O2A Zn3A 1_555 1_555
O2J Zn3A 1_555 1_555
O2B Zn3B 1_555 1_555
O2K Zn3B 1_555 1_555
O3I Zn1I_2 1_555 1_555
O3E Zn1E 1_555 1_555
O3H C10H 1_555 1_555
O3I_2 C10I_2 1_555 1_555
O3_2 C10_2 1_555 1_555
O3F Zn1F 1_555 1_555
O3C Zn1C 1_555 1_555
O4F Zn2C 1_555 1_555
O4I Zn2 1_555 1_555
O4C Zn2C_2 1_555 1_555
O4C_2 Zn2C 1_555 1_555
O4I_2 Zn2_2 1_555 1_555
O4F_2 Zn2C_2 1_555 1_555
O5F Zn1F 1_555 1_555
O5I Zn1I 1_555 1_555
O5C Zn1C 1_555 1_555
O5C_2 Zn1C_2 1_555 1_555
O5I_2 Zn1I_2 1_555 1_555
O5E Zn1E 1_555 1_555
O6A Zn3A 1_555 1_555
O6B Zn3B 1_555 1_555
O7A Zn2A 1_555 1_555
O7B Zn2B 1_555 1_555
O7C Zn2C 1_555 1_555
O7C_2 Zn2C_2 1_555 1_555
O8I C20 1_555 1_555
O8E Zn1 1_555 1_555
O8H Zn1I 1_555 1_555
O8I_2 C20_2 1_555 1_555
O8_2 C20_2 1_555 1_555
O8K Zn1F 1_555 1_555
O8B Zn1C 1_555 1_555
O8H_2 Zn1I_2 1_555 1_555
O8A Zn1E 1_555 1_555
C1F O4F 1_555 1_555
C1I O4I 1_555 1_555
C1C O4C 1_555 1_555
C1C_2 O4C_2 1_555 1_555
C1I_2 O4I_2 1_555 1_555
C2F C1F 1_555 1_555
C2I C1I 1_555 1_555
C2C C1C 1_555 1_555
C2C_2 C1C_2 1_555 1_555
C2I_2 C1I_2 1_555 1_555
C5F C6 1_555 1_555
C5I C2I 1_555 1_555
C5C C2C 1_555 1_555
C5C_2 C2C_2 1_555 1_555
C5I_2 C2I_2 1_555 1_555
C6F C5 1_555 1_555
C6I C2I 1_555 1_555
C6C C2C 1_555 1_555
C6C_2 C2C_2 1_555 1_555
C6I_2 C2I_2 1_555 1_555
Br3F C6F 1_555 1_555
Br3I C6I 1_555 1_555
Br3C C6C 1_555 1_555
Br3C_2 C6C_2 1_555 1_555
Br3I_2 C6I_2 1_555 1_555
C7A O6A 1_555 1_555
C7B O6B 1_555 1_555
C8B C9 1_555 1_555
C8A C9B 1_555 1_555
C9B C8B 1_555 1_555
C9A C8 1_555 1_555
H1A C9A 1_555 1_555
H1B C9B 1_555 1_555
C10I O2I 1_555 1_555
C10E O2E 1_555 1_555
C10H C11H 1_555 1_555
C10I_2 O2I_2 1_555 1_555
C10_2 C11_2 1_555 1_555
C11I C10I 1_555 1_555
C11E C10E 1_555 1_555
C11H C12H 1_555 1_555
C11I_2 C10I_2 1_555 1_555
C11_2 C12_2 1_555 1_555
C12I C11I 1_555 1_555
C12E C11E 1_555 1_555
C12H H2H 1_555 1_555
C12I_2 C11I_2 1_555 1_555
C12_2 H2_2 1_555 1_555
H2I C12I 1_555 1_555
H2E C12E 1_555 1_555
H2I_2 C12I_2 1_555 1_555
C13I C12I 1_555 1_555
C13E C12E 1_555 1_555
C13H C12H 1_555 1_555
C13I_2 C12I_2 1_555 1_555
C13_2 C12_2 1_555 1_555
H3I C13I 1_555 1_555
H3E C13E 1_555 1_555
H3H C13H 1_555 1_555
H3I_2 C13I_2 1_555 1_555
H3_2 C13_2 1_555 1_555
C14I C13I 1_555 1_555
C14E C13E 1_555 1_555
C14H C13H 1_555 1_555
C14I_2 C13I_2 1_555 1_555
C14_2 C13_2 1_555 1_555
C15I C14I 1_555 1_555
C15E C14E 1_555 1_555
C15H C14H 1_555 1_555
C15I_2 C14I_2 1_555 1_555
C15_2 C14_2 1_555 1_555
H4I C15I 1_555 1_555
H4E C15E 1_555 1_555
H4H C15H 1_555 1_555
H4I_2 C15I_2 1_555 1_555
H4_2 C15_2 1_555 1_555
C16I C11I 1_555 1_555
C16E C11E 1_555 1_555
C16H C11H 1_555 1_555
C16I_2 C11I_2 1_555 1_555
C16_2 C11_2 1_555 1_555
H5I C16I 1_555 1_555
H5E C16E 1_555 1_555
H5H C16H 1_555 1_555
H5I_2 C16I_2 1_555 1_555
H5_2 C16_2 1_555 1_555
C17I C18 1_555 1_555
C17E C14E 1_555 1_555
C17H C14H 1_555 1_555
C17I_2 C14I_2 1_555 1_555
C17_2 C14_2 1_555 1_555
C18E C17E 1_555 1_555
C18_2 C17I_2 1_555 1_555
H6E C18E 1_555 1_555
H6_2 C18_2 1_555 1_555
C19I C27 1_555 1_555
C19E C17E 1_555 1_555
C19H C17H 1_555 1_555
C19I_2 C17I_2 1_555 1_555
C19_2 C17_2 1_555 1_555
H7I C19I 1_555 1_555
H7E C19E 1_555 1_555
H7H C19H 1_555 1_555
H7I_2 C19I_2 1_555 1_555
H7_2 C19_2 1_555 1_555
C20E O8E 1_555 1_555
C20_2 C21_2 1_555 1_555
C21E C20E 1_555 1_555
C21_2 C24I_2 1_555 1_555
C24I C21 1_555 1_555
C24E C21E 1_555 1_555
C24H C21E 1_555 1_555
C24I_2 H10I_2 1_555 1_555
C24_2 C21_2 1_555 1_555
H10I C24I 1_555 1_555
H10E C24E 1_555 1_555
H10H C24H 1_555 1_555
H10_2 C24_2 1_555 1_555
C25I C26 1_555 1_555
C25E C24E 1_555 1_555
C25H C24H 1_555 1_555
C25I_2 C24I_2 1_555 1_555
C25_2 C24_2 1_555 1_555
H11I C25I 1_555 1_555
H11E C25E 1_555 1_555
H11H C25H 1_555 1_555
H11I_2 C25I_2 1_555 1_555
H11_2 C25_2 1_555 1_555
C26E C25E 1_555 1_555
C26_2 C25I_2 1_555 1_555
C27E C19E 1_555 1_555
C27_2 C19I_2 1_555 1_555
C28A C7A 1_555 1_555
C28B C7B 1_555 1_555
C29A C8A 1_555 1_555
C29B C8B 1_555 1_555
C30A C28A 1_555 1_555
C30B C28B 1_555 1_555
C31A C29A 1_555 1_555
C31B C29B 1_555 1_555
C32A C28A 1_555 1_555
C32J C28A 1_555 1_555
C32B C28B 1_555 1_555
C32K C28B 1_555 1_555
C32I C28 1_555 1_555
C33J C29A 1_555 1_555
C33A C29A 1_555 1_555
C33B C29B 1_555 1_555
C33K C29B 1_555 1_555
C33I C29 1_555 1_555
O3 C10 1_555 1_555
O5 C1 1_555 1_555
O7 C7 1_555 1_555
C15 C16 1_555 1_555
C26 C27 1_555 1_555
C30 C31 1_555 1_555
C32 C33 1_555 1_555
C32 C32I 1_555 1_555
C32 C33I 1_555 1_555
C33 C32I 1_555 1_555
C33 C33I 1_555 1_555
O3I C10I 1_555 1_555
O3E C10E 1_555 1_555
O5F C1F 1_555 1_555
O5I C1I 1_555 1_555
O5C C1C 1_555 1_555
O5C_2 C1C_2 1_555 1_555
O5I_2 C1I_2 1_555 1_555
O7A C7A 1_555 1_555
O7B C7B 1_555 1_555
O8H C20E 1_555 1_555
C2F C5F 1_555 1_555
C2F C6F 1_555 1_555
C5I C6C 1_555 1_555
C5C C6I 1_555 1_555
C5C_2 C6I_2 1_555 1_555
C5I_2 C6C_2 1_555 1_555
C8A C9A 1_555 1_555
C14I C17I 1_555 1_555
C15I C16I 1_555 1_555
C15E C16E 1_555 1_555
C15H C16H 1_555 1_555
C15I_2 C16I_2 1_555 1_555
C15_2 C16_2 1_555 1_555
C17I C19I 1_555 1_555
C17H C18E 1_555 1_555
C17_2 C18_2 1_555 1_555
C19H C27E 1_555 1_555
C19_2 C27_2 1_555 1_555
C24I C25I 1_555 1_555
C25H C26E 1_555 1_555
C25_2 C26_2 1_555 1_555
C26E C27E 1_555 1_555
C26_2 C27_2 1_555 1_555
C30A C31A 1_555 1_555
C30B C31B 1_555 1_555
C32A C32J 1_555 1_555
C32A C33J 1_555 1_555
C32A C33A 1_555 1_555
C32J C33J 1_555 1_555
C32J C33A 1_555 1_555
C32B C32K 1_555 1_555
C32B C33B 1_555 1_555
C32B C33K 1_555 1_555
C32K C33B 1_555 1_555
C32K C33K 1_555 1_555
C32I C33I 1_555 1_555
C33J C33A 1_555 1_555
C33B C33K 1_555 1_555

#END
