
#######################################################################
#
#                 Cambridge Crystallographic Data Centre
#                                CCDC 
#
#######################################################################
#
# If this CIF has been generated from an entry in the Cambridge 
# Structural Database, then it will include bibliographic, chemical, 
# crystal, experimental, refinement or atomic coordinate data resulting 
# from the CCDC's data processing and validation procedures.
#
#######################################################################

data_INECOV
_chemical_formula_moiety         '(C51 H45 N3 O15 Pr2)n'
_symmetry_cell_setting           monoclinic
_symmetry_space_group_name_H-M   'C 2'
_symmetry_Int_Tables_number      5
_space_group_name_Hall           'C 2y'
loop_
_symmetry_equiv_pos_site_id
_symmetry_equiv_pos_as_xyz
1 x,y,z
2 -x,y,-z
3 1/2+x,1/2+y,z
4 1/2-x,1/2+y,-z
_cell_length_a                   28.8960(9)
_cell_length_b                   8.6749(3)
_cell_length_c                   14.2513(4)
_cell_angle_alpha                90
_cell_angle_beta                 116.0560(10)
_cell_angle_gamma                90
_cell_volume                     3209.29
loop_
_atom_site_label
_atom_site_type_symbol
_atom_site_fract_x
_atom_site_fract_y
_atom_site_fract_z
O9 O 0.5737(5) 0.5586(15) -0.1417(12)
N3 N 0.6010(5) 0.3066(15) -0.0970(12)
C28 C 0.5686(6) 0.4211(16) -0.1389(14)
H27 H 0.5338 0.3884 -0.1745
C29 C 0.6479(6) 0.338(2) -0.0125(14)
H28 H 0.6526 0.4493 -0.0032
H29 H 0.6759 0.2938 -0.0255
H30 H 0.6485 0.2915 0.0507
C30 C 0.5787(7) 0.1499(16) -0.1226(16)
H31 H 0.5540 0.1352 -0.0933
H32 H 0.6062 0.0731 -0.0930
H33 H 0.5609 0.1374 -0.1987
C1 C 0.8356(2) 0.7697(7) 0.6652(4)
C2 C 0.8845(2) 0.7691(7) 0.7648(4)
C3 C 0.9071(2) 0.6321(7) 0.8084(5)
H1 H 0.8917 0.5374 0.7763
C4 C 0.9530(3) 0.6320(7) 0.9004(6)
H2 H 0.9687 0.5364 0.9297
C5 C 0.9764(2) 0.7693(8) 0.9506(5)
C6 C 0.9529(3) 0.9045(8) 0.9018(6)
H3 H 0.9687 1.0003 0.9305
C7 C 0.9068(3) 0.9036(8) 0.8120(5)
H4 H 0.8905 0.9986 0.7828
C8 C 0.7844(2) 0.4190(7) 0.3617(4)
C9 C 0.7918(2) 0.4180(6) 0.2638(4)
C10 C 0.8171(2) 0.2938(6) 0.2437(4)
H5 H 0.8297 0.2111 0.2920
C11 C 0.8236(2) 0.2919(6) 0.1528(4)
H6 H 0.8426 0.2106 0.1414
C12 C 0.8026(2) 0.4082(7) 0.0778(4)
C13 C 0.7789(2) 0.5334(7) 0.1002(5)
H7 H 0.7660 0.6162 0.0520
C14 C 0.7739(2) 0.5377(7) 0.1932(4)
H8 H 0.7580 0.6241 0.2081
C15 C 0.8020(2) 0.3183(6) -0.3240(4)
C16 C 0.8057(2) 0.3600(6) -0.2197(4)
C17 C 0.7675(2) 0.4458(7) -0.2108(4)
H9 H 0.7413 0.4925 -0.2710
C18 C 0.7675(2) 0.4640(7) -0.1131(5)
H10 H 0.7406 0.5212 -0.1079
C19 C 0.8059(2) 0.4000(7) -0.0243(4)
C20 C 0.8458(2) 0.3183(7) -0.0324(4)
H11 H 0.8731 0.2767 0.0283
C21 C 0.8451(2) 0.2981(7) -0.1306(4)
H12 H 0.8720 0.2416 -0.1362
O1 O 0.81967(16) 0.8998(5) 0.6253(4)
O2 O 0.81396(14) 0.6447(4) 0.6277(3)
O3 O 0.77407(15) 0.5447(4) 0.3911(3)
O4 O 0.78924(16) 0.2910(5) 0.4077(3)
O5 O 0.76118(14) 0.3581(4) -0.4065(3)
O6 O 0.83541(15) 0.2322(5) -0.3297(3)
Pr1 Pr 0.72699(2) 0.59698(6) 0.49427(2)
O7 O 0.6583(12) 0.505(3) 0.545(2)
N1 N 0.6027(5) 0.3034(15) 0.4979(9)
C22 C 0.6490(6) 0.367(2) 0.5483(17)
H13 H 0.6769 0.3011 0.5896
C23 C 0.5620(7) 0.399(2) 0.4376(18)
H14 H 0.5302 0.3394 0.4017
H15 H 0.5701 0.4520 0.3859
H16 H 0.5575 0.4749 0.4837
C24 C 0.5961(7) 0.138(2) 0.5068(17)
H17 H 0.5742 0.0946 0.4379
H18 H 0.5802 0.1190 0.5540
H19 H 0.6301 0.0889 0.5349
C1A C 1.1644(2) 0.7697(7) 1.3348(4)
C2A C 1.1155(2) 0.7691(7) 1.2352(4)
C3A C 1.0929(2) 0.6321(7) 1.1916(5)
H1A H 1.1083 0.5374 1.2237
C4A C 1.0470(3) 0.6320(7) 1.0996(6)
H2A H 1.0313 0.5364 1.0703
C5A C 1.0236(2) 0.7693(8) 1.0494(5)
C6A C 1.0471(3) 0.9045(8) 1.0982(6)
H3A H 1.0313 1.0003 1.0695
C7A C 1.0932(3) 0.9036(8) 1.1880(5)
H4A H 1.1095 0.9986 1.2172
O1A O 1.18033(16) 0.8998(5) 1.3747(4)
O2A O 1.18604(14) 0.6447(4) 1.3723(3)
C8A C 1.2156(2) 0.4190(7) 1.6383(4)
C9A C 1.2082(2) 0.4180(6) 1.7362(4)
C10A C 1.1829(2) 0.2938(6) 1.7563(4)
H5A H 1.1703 0.2111 1.7080
C11A C 1.1764(2) 0.2919(6) 1.8472(4)
H6A H 1.1574 0.2106 1.8586
C12A C 1.1974(2) 0.4082(7) 1.9222(4)
C13A C 1.2211(2) 0.5334(7) 1.8998(5)
H7A H 1.2340 0.6162 1.9480
C14A C 1.2261(2) 0.5377(7) 1.8068(4)
H8A H 1.2420 0.6241 1.7919
C15A C 1.1980(2) 0.3183(6) 2.3240(4)
C16A C 1.1943(2) 0.3600(6) 2.2197(4)
C17A C 1.2325(2) 0.4458(7) 2.2108(4)
H9A H 1.2587 0.4925 2.2710
C18A C 1.2325(2) 0.4640(7) 2.1131(5)
H10A H 1.2594 0.5212 2.1079
C19A C 1.1941(2) 0.4000(7) 2.0243(4)
C20A C 1.1542(2) 0.3183(7) 2.0324(4)
H11A H 1.1269 0.2767 1.9717
C21A C 1.1549(2) 0.2981(7) 2.1306(4)
H12A H 1.1280 0.2416 2.1362
O3A O 1.22593(15) 0.5447(4) 1.6089(3)
O4A O 1.21076(16) 0.2910(5) 1.5923(3)
O5A O 1.23882(14) 0.3581(4) 2.4065(3)
O6A O 1.16459(15) 0.2322(5) 2.3297(3)
Pr1A Pr 1.27301(2) 0.59698(6) 1.50573(2)
O7A O 1.3417(12) 0.505(3) 1.455(2)
N1A N 1.3973(5) 0.3034(15) 1.5021(9)
C22A C 1.3510(6) 0.367(2) 1.4517(17)
H13A H 1.3231 0.3011 1.4104
C23A C 1.4380(7) 0.399(2) 1.5624(18)
H14A H 1.4698 0.3394 1.5983
H15A H 1.4299 0.4520 1.6141
H16A H 1.4425 0.4749 1.5163
C24A C 1.4039(7) 0.138(2) 1.4932(17)
H17A H 1.4258 0.0946 1.5621
H18A H 1.4198 0.1190 1.4460
H19A H 1.3699 0.0889 1.4651
O1B O 1.31967(16) 0.3998(5) 1.6253(4)
O1C O 0.68033(16) 0.3998(5) 0.3747(4)
O4B O 1.28924(16) 0.7910(5) 1.4077(3)
O4C O 0.71076(16) 0.7910(5) 0.5923(3)
O5_2 O 0.76118(14) 0.3581(4) 0.5935(3)
O5A_2 O 1.23882(14) 0.3581(4) 1.4065(3)
O5B O 1.26118(14) 0.8581(4) 1.5935(3)
O5C O 0.73882(14) 0.8581(4) 0.4065(3)
O6B O 1.33541(15) 0.7322(5) 1.6703(3)
O6C O 0.66459(15) 0.7322(5) 0.3297(3)
Pr1_2 Pr 0.72699(2) 0.59698(6) -0.50573(2)
Pr1A_2 Pr 1.27301(2) 0.59698(6) 2.50573(2)
Pr1B Pr 1.22699(2) 0.09698(6) 1.49427(2)
Pr1B_2 Pr 1.22699(2) 0.09698(6) 2.49427(2)
Pr1B_3 Pr 1.22699(2) 1.09698(6) 1.49427(2)
Pr1C Pr 0.77301(2) 0.09698(6) -0.49427(2)
Pr1C_2 Pr 0.77301(2) 0.09698(6) 0.50573(2)
Pr1C_3 Pr 0.77301(2) 1.09698(6) 0.50573(2)
loop_
_geom_bond_atom_site_label_1
_geom_bond_atom_site_label_2
_geom_bond_site_symmetry_1
_geom_bond_site_symmetry_2
C1 C2 1_555 1_555
C2 C3 1_555 1_555
C3 H1 1_555 1_555
C4 C3 1_555 1_555
H2 C4 1_555 1_555
C5 C4 1_555 1_555
C6 C5 1_555 1_555
H3 C6 1_555 1_555
C7 C2 1_555 1_555
H4 C7 1_555 1_555
C8 C9 1_555 1_555
C9 C10 1_555 1_555
C10 H5 1_555 1_555
C11 C10 1_555 1_555
H6 C11 1_555 1_555
C12 C11 1_555 1_555
C13 C12 1_555 1_555
H7 C13 1_555 1_555
C14 C9 1_555 1_555
H8 C14 1_555 1_555
C15 C16 1_555 1_555
C16 C17 1_555 1_555
C17 H9 1_555 1_555
C18 C17 1_555 1_555
H10 C18 1_555 1_555
C19 C12 1_555 1_555
C20 C19 1_555 1_555
H11 C20 1_555 1_555
C21 C16 1_555 1_555
H12 C21 1_555 1_555
O1 C1 1_555 1_555
O2 C1 1_555 1_555
O3 C8 1_555 1_555
O4 C8 1_555 1_555
O5 C15 1_555 1_555
O6 C15 1_555 1_555
Pr1 O2 1_555 1_555
O7 Pr1 1_555 1_555
N1 C22 1_555 1_555
C22 O7 1_555 1_555
H13 C22 1_555 1_555
C23 N1 1_555 1_555
H14 C23 1_555 1_555
H15 C23 1_555 1_555
H16 C23 1_555 1_555
C24 N1 1_555 1_555
H17 C24 1_555 1_555
H18 C24 1_555 1_555
H19 C24 1_555 1_555
O9 C28 1_555 1_555
N3 C28 1_555 1_555
C28 H27 1_555 1_555
C29 N3 1_555 1_555
H28 C29 1_555 1_555
H29 C29 1_555 1_555
H30 C29 1_555 1_555
C30 N3 1_555 1_555
H31 C30 1_555 1_555
H32 C30 1_555 1_555
H33 C30 1_555 1_555
C1A C2A 1_555 1_555
C2A C3A 1_555 1_555
C3A H1A 1_555 1_555
C4A C3A 1_555 1_555
H2A C4A 1_555 1_555
C5A C5 1_555 1_555
C6A C5A 1_555 1_555
H3A C6A 1_555 1_555
C7A C2A 1_555 1_555
H4A C7A 1_555 1_555
O1A C1A 1_555 1_555
O2A C1A 1_555 1_555
C8A C9A 1_555 1_555
C9A C10A 1_555 1_555
C10A H5A 1_555 1_555
C11A C10A 1_555 1_555
H6A C11A 1_555 1_555
C12A C11A 1_555 1_555
C13A C12A 1_555 1_555
H7A C13A 1_555 1_555
C14A C9A 1_555 1_555
H8A C14A 1_555 1_555
C15A C16A 1_555 1_555
C16A C17A 1_555 1_555
C17A H9A 1_555 1_555
C18A C17A 1_555 1_555
H10A C18A 1_555 1_555
C19A C12A 1_555 1_555
C20A C19A 1_555 1_555
H11A C20A 1_555 1_555
C21A C16A 1_555 1_555
H12A C21A 1_555 1_555
O3A C8A 1_555 1_555
O4A C8A 1_555 1_555
O5A C15A 1_555 1_555
O6A C15A 1_555 1_555
Pr1A O2A 1_555 1_555
O7A Pr1A 1_555 1_555
N1A C22A 1_555 1_555
C22A O7A 1_555 1_555
H13A C22A 1_555 1_555
C23A N1A 1_555 1_555
H14A C23A 1_555 1_555
H15A C23A 1_555 1_555
H16A C23A 1_555 1_555
C24A N1A 1_555 1_555
H17A C24A 1_555 1_555
H18A C24A 1_555 1_555
H19A C24A 1_555 1_555
O1B Pr1A 1_555 1_555
O1C Pr1 1_555 1_555
O4B Pr1A 1_555 1_555
O4C Pr1 1_555 1_555
O5_2 Pr1 1_555 1_555
O5A_2 Pr1A 1_555 1_555
O5B Pr1A 1_555 1_555
O5C Pr1 1_555 1_555
O6B Pr1A 1_555 1_555
O6C Pr1 1_555 1_555
Pr1_2 O5 1_555 1_555
Pr1A_2 O5A 1_555 1_555
Pr1B O4A 1_555 1_555
Pr1B_2 O5A 1_555 1_555
Pr1B_3 O1A 1_555 1_555
Pr1C O5 1_555 1_555
Pr1C_2 O4 1_555 1_555
Pr1C_3 O1 1_555 1_555
C6 C7 1_555 1_555
C13 C14 1_555 1_555
C18 C19 1_555 1_555
C20 C21 1_555 1_555
O3 Pr1 1_555 1_555
O6 Pr1C 1_555 1_555
C4A C5A 1_555 1_555
C6A C7A 1_555 1_555
C13A C14A 1_555 1_555
C18A C19A 1_555 1_555
C20A C21A 1_555 1_555
O3A Pr1A 1_555 1_555
O6A Pr1B_2 1_555 1_555
O5_2 Pr1C_2 1_555 1_555
O5A_2 Pr1B 1_555 1_555
O5B Pr1B_3 1_555 1_555
O5C Pr1C_3 1_555 1_555

#END
