
#######################################################################
#
#                 Cambridge Crystallographic Data Centre
#                                CCDC 
#
#######################################################################
#
# If this CIF has been generated from an entry in the Cambridge 
# Structural Database, then it will include bibliographic, chemical, 
# crystal, experimental, refinement or atomic coordinate data resulting 
# from the CCDC's data processing and validation procedures.
#
#######################################################################

data_INECIP
_chemical_formula_moiety         '(C272 H306 N34 O36 Pr4)n'
_symmetry_cell_setting           triclinic
_symmetry_space_group_name_H-M   'P -1'
_symmetry_Int_Tables_number      2
_space_group_name_Hall           '-P 1'
loop_
_symmetry_equiv_pos_site_id
_symmetry_equiv_pos_as_xyz
1 x,y,z
2 -x,-y,-z
_cell_length_a                   20.6712(4)
_cell_length_b                   21.0386(5)
_cell_length_c                   21.6281(5)
_cell_angle_alpha                62.477(2)
_cell_angle_beta                 79.558(2)
_cell_angle_gamma                67.086(2)
_cell_volume                     7683.17
loop_
_atom_site_label
_atom_site_type_symbol
_atom_site_fract_x
_atom_site_fract_y
_atom_site_fract_z
O1 O 0.66217(16) 0.46465(19) 0.76776(16)
O2 O 0.74807(19) 0.4056(3) 0.84336(19)
N1 N 0.8982(2) 0.4882(3) 0.4795(2)
H1 H 0.8979 0.5097 0.5061
N2 N 1.0270(2) 0.3843(3) 0.5992(2)
H2 H 1.0008 0.4309 0.5941
C1 C 0.8866(3) 0.5263(4) 0.4090(3)
C2 C 0.8931(3) 0.4724(4) 0.3870(3)
H3 H 0.8890 0.4817 0.3403
C3 C 0.9067(3) 0.4009(4) 0.4458(3)
H4 H 0.9122 0.3539 0.4459
C4 C 0.9107(3) 0.4114(3) 0.5028(3)
C5 C 0.9279(3) 0.3539(3) 0.5781(3)
C6 C 1.0030(3) 0.3345(3) 0.5943(3)
C7 C 1.0598(3) 0.2692(4) 0.6048(4)
H5 H 1.0593 0.2244 0.6044
C8 C 1.1200(3) 0.2796(4) 0.6164(4)
H6 H 1.1665 0.2436 0.6248
C9 C 1.0979(3) 0.3514(3) 0.6131(3)
C10 C 1.1385(3) 0.3873(4) 0.6292(3)
C11 C 0.9186(3) 0.2797(3) 0.5889(3)
H7 H 0.8688 0.2897 0.5846
H8 H 0.9354 0.2394 0.6354
H9 H 0.9458 0.2632 0.5535
C12 C 1.2170(4) 0.3557(4) 0.6087(5)
H10 H 1.2374 0.3010 0.6394
H11 H 1.2433 0.3831 0.6136
H12 H 1.2197 0.3631 0.5602
C13 C 1.1337(6) 0.3631(5) 0.7086(4)
H13 H 1.0865 0.3905 0.7205
H14 H 1.1684 0.3755 0.7222
H15 H 1.1433 0.3078 0.7335
C14 C 0.8762(2) 0.3801(3) 0.6302(3)
C15 C 0.8051(3) 0.4208(3) 0.6133(3)
H16 H 0.7896 0.4382 0.5676
C16 C 0.7571(2) 0.4359(3) 0.6630(3)
H17 H 0.7088 0.4633 0.6510
C17 C 0.7784(2) 0.4117(3) 0.7293(2)
C18 C 0.8485(3) 0.3724(3) 0.7464(3)
H18 H 0.8636 0.3559 0.7920
C19 C 0.8975(3) 0.3568(3) 0.6969(3)
H19 H 0.9458 0.3299 0.7090
C20 C 0.7257(2) 0.4281(3) 0.7833(2)
O3 O 0.33099(19) 0.64613(18) 0.99643(17)
O4 O 0.3609(2) 0.7316(2) 0.89899(18)
C21 C -0.0923(4) 0.9005(6) 0.9437(6)
H20 H -0.1152 0.9076 0.9055
N3 N 0.0478(3) 1.0230(3) 0.8911(4)
H21 H 0.0684 0.9934 0.9321
C22 C -0.1196(4) 0.8876(5) 1.0107(5)
H22 H -0.1642 0.8828 1.0261
C23 C -0.0719(4) 0.8830(4) 1.0512(5)
N4 N -0.0150(3) 0.8912(3) 1.0102(4)
H23 H 0.0232 0.8905 1.0234
C24 C -0.0258(4) 0.9009(5) 0.9437(5)
C25 C 0.0256(4) 0.9178(5) 0.8853(5)
C26 C 0.0221(4) 1.0001(5) 0.8574(5)
C27 C -0.0081(5) 1.0647(5) 0.7950(5)
H24 H -0.0316 1.0658 0.7605
C28 C 0.0033(4) 1.1258(5) 0.7941(5)
H25 H -0.0108 1.1765 0.7580
C29 C 0.0381(3) 1.1014(4) 0.8531(4)
C30 C 0.0714(4) 1.1405(5) 0.8733(5)
C31 C 0.1018(4) 0.8631(4) 0.9033(5)
C32 C 0.1568(4) 0.8859(4) 0.8630(4)
H26 H 0.1467 0.9360 0.8261
C33 C 0.2250(4) 0.8367(3) 0.8765(4)
H27 H 0.2616 0.8524 0.8477
C34 C 0.2412(3) 0.7644(3) 0.9314(3)
C35 C 0.1870(3) 0.7412(4) 0.9744(4)
H28 H 0.1980 0.6920 1.0126
C36 C 0.1179(4) 0.7900(4) 0.9610(5)
H29 H 0.0813 0.7745 0.9902
C37 C 0.3151(3) 0.7124(3) 0.9434(3)
C38 C 0.0047(5) 0.9069(6) 0.8266(6)
H30 H -0.0075 0.8605 0.8471
H31 H 0.0441 0.9019 0.7943
H32 H -0.0360 0.9513 0.8014
C39 C 0.1490(5) 1.1230(6) 0.8418(6)
H33 H 0.1722 1.1519 0.8487
H34 H 0.1466 1.1382 0.7918
H35 H 0.1758 1.0681 0.8655
C40 C 0.0326(5) 1.2279(5) 0.8355(6)
H36 H -0.0133 1.2418 0.8575
H37 H 0.0260 1.2425 0.7864
H38 H 0.0605 1.2547 0.8387
O5 O 0.50569(17) 0.52833(17) 0.85161(15)
O6 O 0.4374(2) 0.64826(18) 0.79554(17)
N5 N 0.4879(2) 0.4092(2) 0.60699(18)
H39 H 0.5065 0.4451 0.5910
N6 N 0.3941(2) 0.5931(2) 0.50763(19)
H40 H 0.4353 0.5864 0.5202
C41 C 0.5242(3) 0.3348(2) 0.6173(2)
C42 C 0.4767(3) 0.2975(3) 0.6416(3)
H41 H 0.4867 0.2452 0.6531
C43 C 0.4097(3) 0.3511(3) 0.6464(2)
H42 H 0.3672 0.3411 0.6616
C44 C 0.4182(2) 0.4199(3) 0.6252(2)
C45 C 0.3671(2) 0.4945(3) 0.6245(2)
C46 C 0.3493(2) 0.5559(3) 0.5506(2)
C47 C 0.2905(3) 0.5823(3) 0.5120(3)
H43 H 0.2505 0.5672 0.5278
C48 C 0.3008(3) 0.6359(3) 0.4443(3)
H44 H 0.2686 0.6631 0.4066
C49 C 0.3650(2) 0.6420(3) 0.4424(2)
C50 C 0.3971(3) 0.6973(3) 0.3849(2)
C51 C 0.2983(3) 0.4819(3) 0.6612(3)
H45 H 0.2783 0.4651 0.6361
H46 H 0.2645 0.5299 0.6613
H47 H 0.3087 0.4426 0.7093
C52 C 0.3698(3) 0.7159(4) 0.3137(3)
H48 H 0.3924 0.7488 0.2756
H49 H 0.3188 0.7425 0.3112
H50 H 0.3810 0.6682 0.3097
C53 C 0.3728(4) 0.7712(3) 0.3930(4)
H51 H 0.3866 0.7599 0.4391
H52 H 0.3216 0.7949 0.3884
H53 H 0.3947 0.8063 0.3568
C54 C 0.3958(3) 0.5186(3) 0.6677(2)
C55 C 0.3701(3) 0.5939(3) 0.6589(2)
H54 H 0.3367 0.6320 0.6234
C56 C 0.3928(3) 0.6141(3) 0.7015(3)
H55 H 0.3741 0.6658 0.6951
C57 C 0.4428(3) 0.5599(3) 0.7538(2)
C58 C 0.4678(3) 0.4848(2) 0.7628(2)
H56 H 0.5016 0.4469 0.7980
C59 C 0.4445(3) 0.4639(2) 0.7215(2)
H57 H 0.4616 0.4117 0.7296
C60 C 0.4632(3) 0.5813(3) 0.8011(2)
O7 O 0.5385(2) 0.66454(19) 0.86750(18)
O8 O 0.6171(2) 0.59341(19) 0.8170(2)
N7 N 0.6112(4) 0.9115(3) 0.5118(3)
H58 H 0.5730 0.9015 0.5316
N8 N 0.5141(4) 1.0133(3) 0.5981(2)
H59 H 0.4987 0.9809 0.5959
C61 C 0.6367(6) 0.9144(5) 0.4469(4)
C62 C 0.6949(6) 0.9333(6) 0.4354(5)
H60 H 0.7234 0.9401 0.3948
C63 C 0.7067(6) 0.9415(6) 0.4945(4)
H61 H 0.7437 0.9546 0.5000
C64 C 0.6544(6) 0.9267(4) 0.5407(4)
C65 C 0.6402(5) 0.9281(4) 0.6117(3)
C66 C 0.5826(6) 0.9992(4) 0.6075(3)
C67 C 0.5840(6) 1.0650(4) 0.6081(3)
H62 H 0.6243 1.0727 0.6138
C68 C 0.5164(5) 1.1161(4) 0.5988(3)
H63 H 0.5022 1.1657 0.5969
C69 C 0.4723(5) 1.0845(4) 0.5925(3)
C70 C 0.3958(6) 1.1107(4) 0.5919(4)
C71 C 0.7085(6) 0.9238(5) 0.6363(4)
H64 H 0.7222 0.9671 0.6020
H65 H 0.7461 0.8758 0.6408
H66 H 0.7002 0.9259 0.6815
C72 C 0.3646(7) 1.1996(5) 0.5581(5)
H67 H 0.3748 1.2184 0.5878
H68 H 0.3137 1.2166 0.5532
H69 H 0.3857 1.2198 0.5120
C73 C 0.3679(7) 1.0810(6) 0.6691(4)
H70 H 0.3881 1.0250 0.6922
H71 H 0.3166 1.0972 0.6688
H72 H 0.3817 1.1023 0.6943
C74 C 0.6242(5) 0.8567(4) 0.6670(3)
C75 C 0.5814(4) 0.8590(3) 0.7238(3)
H73 H 0.5600 0.9058 0.7279
C76 C 0.5695(4) 0.7937(3) 0.7748(3)
H74 H 0.5406 0.7960 0.8138
C77 C 0.6001(3) 0.7248(3) 0.7690(3)
C78 C 0.6440(3) 0.7217(3) 0.7134(3)
H75 H 0.6667 0.6745 0.7101
C79 C 0.6553(4) 0.7875(3) 0.6624(3)
H76 H 0.6847 0.7850 0.6237
C80 C 0.5839(3) 0.6556(3) 0.8218(2)
O9 O 0.5953(2) 0.36004(18) 0.89434(17)
O10 O 0.5235(2) 0.37416(19) 0.98122(17)
N9 N 0.4001(2) 0.0904(2) 1.02068(19)
H77 H 0.4442 0.0825 1.0262
N10 N 0.5076(2) 0.0849(2) 0.88620(19)
H78 H 0.5264 0.0788 0.9228
C81 C 0.3590(3) 0.0540(3) 1.0711(2)
C82 C 0.2945(3) 0.0810(3) 1.0432(3)
H79 H 0.2557 0.0657 1.0661
C83 C 0.2960(3) 0.1367(3) 0.9728(3)
H80 H 0.2581 0.1654 0.9407
C84 C 0.3617(3) 0.1416(3) 0.9599(2)
C85 C 0.3940(3) 0.1876(3) 0.8937(2)
C86 C 0.4419(3) 0.1347(3) 0.8609(2)
C87 C 0.4322(3) 0.1271(3) 0.8040(3)
H81 H 0.3915 0.1546 0.7755
C88 C 0.4941(3) 0.0705(3) 0.7954(3)
H82 H 0.5019 0.0532 0.7602
C89 C 0.5402(3) 0.0455(3) 0.8463(2)
C90 C 0.6170(3) -0.0033(3) 0.8543(3)
C91 C 0.3337(3) 0.2501(3) 0.8425(3)
H83 H 0.3091 0.2258 0.8303
H84 H 0.3530 0.2821 0.8001
H85 H 0.3007 0.2818 0.8645
C92 C 0.6318(4) -0.0546(4) 0.8167(3)
H86 H 0.6817 -0.0865 0.8213
H87 H 0.6199 -0.0224 0.7673
H88 H 0.6034 -0.0874 0.8378
C93 C 0.6599(4) 0.0504(4) 0.8188(3)
H89 H 0.6515 0.0824 0.8431
H90 H 0.6453 0.0832 0.7700
H91 H 0.7100 0.0198 0.8208
C94 C 0.4337(3) 0.2284(3) 0.9067(2)
C95 C 0.4877(3) 0.2472(2) 0.8617(2)
H92 H 0.5000 0.2335 0.8238
C96 C 0.5238(3) 0.2859(3) 0.8711(2)
H93 H 0.5609 0.2975 0.8404
C97 C 0.5054(3) 0.3076(2) 0.9259(2)
C98 C 0.4508(3) 0.2902(3) 0.9700(2)
H94 H 0.4374 0.3054 1.0069
C99 C 0.4151(3) 0.2506(3) 0.9606(2)
H95 H 0.3780 0.2389 0.9914
C100 C 0.5440(3) 0.3497(2) 0.9347(2)
O11 O 0.56503(16) 0.50504(16) 0.97291(14)
Pr1 Pr 0.63163(2) 0.45980(2) 0.88764(2)
Pr2 Pr 0.45233(2) 0.60465(2) 0.92593(2)
O12 O 0.3539(5) 0.5659(5) 0.9089(5)
N11 N 0.2714(6) 0.5503(6) 0.8681(5)
C101 C 0.3370(5) 0.5308(6) 0.8885(5)
C102 C 0.2164(7) 0.6205(10) 0.8716(12)
H96 H 0.1715 0.6282 0.8555
H97 H 0.2116 0.6143 0.9198
H98 H 0.2303 0.6651 0.8418
C103 C 0.2607(10) 0.4985(11) 0.8441(10)
H99 H 0.2116 0.5177 0.8306
H100 H 0.2912 0.4974 0.8040
H101 H 0.2725 0.4467 0.8821
O13 O 0.7159(3) 0.4911(3) 0.9303(3)
N12 N 0.7510(6) 0.5978(7) 0.8887(6)
C104 C 0.7480(6) 0.5339(6) 0.8938(6)
H102 H 0.7781 0.5173 0.8613
C105 C 0.7102(9) 0.6360(9) 0.9324(9)
H103 H 0.7232 0.6015 0.9813
H104 H 0.6600 0.6492 0.9265
H105 H 0.7199 0.6827 0.9188
C106 C 0.7951(11) 0.6386(10) 0.8391(11)
H106 H 0.8385 0.6251 0.8620
H107 H 0.7699 0.6940 0.8211
H108 H 0.8067 0.6238 0.8005
O1A O 1.33783(16) 0.53535(19) 0.23224(16)
O2A O 1.25193(19) 0.5944(3) 0.15664(19)
N1A N 1.1018(2) 0.5118(3) 0.5205(2)
H1A H 1.1021 0.4903 0.4939
N2A N 0.9730(2) 0.6157(3) 0.4008(2)
H2A H 0.9992 0.5691 0.4059
C1A C 1.1134(3) 0.4737(4) 0.5910(3)
C2A C 1.1069(3) 0.5276(4) 0.6130(3)
H3A H 1.1110 0.5183 0.6597
C3A C 1.0933(3) 0.5991(4) 0.5542(3)
H4A H 1.0878 0.6461 0.5541
C4A C 1.0893(3) 0.5886(3) 0.4972(3)
C5A C 1.0721(3) 0.6461(3) 0.4219(3)
C6A C 0.9970(3) 0.6655(3) 0.4057(3)
C7A C 0.9402(3) 0.7308(4) 0.3952(4)
H5A H 0.9407 0.7756 0.3956
C8A C 0.8800(3) 0.7204(4) 0.3836(4)
H6A H 0.8335 0.7564 0.3752
C9A C 0.9021(3) 0.6486(3) 0.3869(3)
C10A C 0.8615(3) 0.6127(4) 0.3708(3)
C11A C 1.0814(3) 0.7203(3) 0.4111(3)
H7A H 1.1312 0.7103 0.4154
H8A H 1.0646 0.7606 0.3646
H9A H 1.0542 0.7368 0.4465
C12A C 0.7830(4) 0.6443(4) 0.3913(5)
H10A H 0.7626 0.6990 0.3606
H11A H 0.7567 0.6169 0.3864
H12A H 0.7803 0.6369 0.4398
C13A C 0.8663(6) 0.6369(5) 0.2914(4)
H13A H 0.9135 0.6095 0.2795
H14A H 0.8316 0.6245 0.2778
H15A H 0.8567 0.6922 0.2665
C14A C 1.1238(2) 0.6199(3) 0.3698(3)
C15A C 1.1949(3) 0.5792(3) 0.3867(3)
H16A H 1.2104 0.5618 0.4324
C16A C 1.2429(2) 0.5641(3) 0.3370(3)
H17A H 1.2912 0.5367 0.3490
C17A C 1.2216(2) 0.5883(3) 0.2707(2)
C18A C 1.1515(3) 0.6276(3) 0.2536(3)
H18A H 1.1364 0.6441 0.2080
C19A C 1.1025(3) 0.6432(3) 0.3031(3)
H19A H 1.0542 0.6701 0.2910
C20A C 1.2743(2) 0.5719(3) 0.2167(2)
O3A O -0.33099(19) 1.35387(18) 1.00357(17)
O4A O -0.3609(2) 1.2684(2) 1.10101(18)
C21A C 0.0923(4) 1.0995(6) 1.0563(6)
H20A H 0.1152 1.0924 1.0945
N3A N -0.0478(3) 0.9770(3) 1.1089(4)
H21A H -0.0684 1.0066 1.0679
C22A C 0.1196(4) 1.1124(5) 0.9893(5)
H22A H 0.1642 1.1172 0.9739
C23A C 0.0719(4) 1.1170(4) 0.9488(5)
N4A N 0.0150(3) 1.1088(3) 0.9898(4)
H23A H -0.0232 1.1095 0.9766
C24A C 0.0258(4) 1.0991(5) 1.0563(5)
C25A C -0.0256(4) 1.0822(5) 1.1147(5)
C26A C -0.0221(4) 0.9999(5) 1.1426(5)
C27A C 0.0081(5) 0.9353(5) 1.2050(5)
H24A H 0.0316 0.9342 1.2395
C28A C -0.0033(4) 0.8742(5) 1.2059(5)
H25A H 0.0108 0.8235 1.2420
C29A C -0.0381(3) 0.8986(4) 1.1469(4)
C30A C -0.0714(4) 0.8595(5) 1.1267(5)
C31A C -0.1018(4) 1.1369(4) 1.0967(5)
C32A C -0.1568(4) 1.1141(4) 1.1370(4)
H26A H -0.1467 1.0640 1.1739
C33A C -0.2250(4) 1.1633(3) 1.1235(4)
H27A H -0.2616 1.1476 1.1523
C34A C -0.2412(3) 1.2356(3) 1.0686(3)
C35A C -0.1870(3) 1.2588(4) 1.0256(4)
H28A H -0.1980 1.3080 0.9874
C36A C -0.1179(4) 1.2100(4) 1.0390(5)
H29A H -0.0813 1.2255 1.0098
C37A C -0.3151(3) 1.2876(3) 1.0566(3)
C38A C -0.0047(5) 1.0931(6) 1.1734(6)
H30A H 0.0075 1.1395 1.1529
H31A H -0.0441 1.0981 1.2057
H32A H 0.0360 1.0487 1.1986
C39A C -0.1490(5) 0.8770(6) 1.1582(6)
H33A H -0.1722 0.8481 1.1513
H34A H -0.1466 0.8618 1.2082
H35A H -0.1758 0.9319 1.1345
C40A C -0.0326(5) 0.7721(5) 1.1645(6)
H36A H 0.0133 0.7582 1.1425
H37A H -0.0260 0.7575 1.2136
H38A H -0.0605 0.7453 1.1613
O5A O 0.49431(17) 0.47167(17) 0.14839(15)
O6A O 0.5626(2) 0.35174(18) 0.20446(17)
N5A N 0.5121(2) 0.5908(2) 0.39301(18)
H39A H 0.4935 0.5549 0.4090
N6A N 0.6059(2) 0.4069(2) 0.49237(19)
H40A H 0.5647 0.4136 0.4798
C41A C 0.4758(3) 0.6652(2) 0.3827(2)
C42A C 0.5233(3) 0.7025(3) 0.3584(3)
H41A H 0.5133 0.7548 0.3469
C43A C 0.5903(3) 0.6489(3) 0.3536(2)
H42A H 0.6328 0.6589 0.3384
C44A C 0.5818(2) 0.5801(3) 0.3748(2)
C45A C 0.6329(2) 0.5055(3) 0.3755(2)
C46A C 0.6507(2) 0.4441(3) 0.4494(2)
C47A C 0.7095(3) 0.4177(3) 0.4880(3)
H43A H 0.7495 0.4328 0.4722
C48A C 0.6992(3) 0.3641(3) 0.5557(3)
H44A H 0.7314 0.3369 0.5934
C49A C 0.6350(2) 0.3580(3) 0.5576(2)
C50A C 0.6029(3) 0.3027(3) 0.6151(2)
C51A C 0.7017(3) 0.5181(3) 0.3388(3)
H45A H 0.7217 0.5349 0.3639
H46A H 0.7355 0.4701 0.3387
H47A H 0.6913 0.5574 0.2907
C52A C 0.6302(3) 0.2841(4) 0.6863(3)
H48A H 0.6076 0.2512 0.7244
H49A H 0.6812 0.2575 0.6888
H50A H 0.6190 0.3318 0.6903
C53A C 0.6272(4) 0.2288(3) 0.6070(4)
H51A H 0.6134 0.2401 0.5609
H52A H 0.6784 0.2051 0.6116
H53A H 0.6053 0.1937 0.6432
C54A C 0.6042(3) 0.4814(3) 0.3323(2)
C55A C 0.6299(3) 0.4061(3) 0.3411(2)
H54A H 0.6633 0.3680 0.3766
C56A C 0.6072(3) 0.3859(3) 0.2985(3)
H55A H 0.6259 0.3342 0.3049
C57A C 0.5572(3) 0.4401(3) 0.2462(2)
C58A C 0.5322(3) 0.5152(2) 0.2372(2)
H56A H 0.4984 0.5531 0.2020
C59A C 0.5555(3) 0.5361(2) 0.2785(2)
H57A H 0.5384 0.5883 0.2704
C60A C 0.5368(3) 0.4187(3) 0.1989(2)
O7A O 0.4615(2) 1.33546(19) 0.13250(18)
O8A O 0.3829(2) 1.40659(19) 0.1830(2)
N7A N 0.3888(4) 1.0885(3) 0.4882(3)
H58A H 0.4270 1.0985 0.4684
N8A N 0.4859(4) 0.9867(3) 0.4019(2)
H59A H 0.5013 1.0191 0.4041
C61A C 0.3633(6) 1.0856(5) 0.5531(4)
C62A C 0.3051(6) 1.0667(6) 0.5646(5)
H60A H 0.2766 1.0599 0.6052
C63A C 0.2933(6) 1.0585(6) 0.5055(4)
H61A H 0.2563 1.0454 0.5000
C64A C 0.3456(6) 1.0733(4) 0.4593(4)
C65A C 0.3598(5) 1.0719(4) 0.3883(3)
C66A C 0.4174(6) 1.0008(4) 0.3925(3)
C67A C 0.4160(6) 0.9350(4) 0.3919(3)
H62A H 0.3757 0.9273 0.3862
C68A C 0.4836(5) 0.8839(4) 0.4012(3)
H63A H 0.4978 0.8343 0.4031
C69A C 0.5277(5) 0.9155(4) 0.4075(3)
C70A C 0.6042(6) 0.8893(4) 0.4081(4)
C71A C 0.2915(6) 1.0762(5) 0.3637(4)
H64A H 0.2778 1.0329 0.3980
H65A H 0.2539 1.1242 0.3592
H66A H 0.2998 1.0741 0.3185
C72A C 0.6354(7) 0.8004(5) 0.4419(5)
H67A H 0.6252 0.7816 0.4122
H68A H 0.6863 0.7834 0.4468
H69A H 0.6143 0.7802 0.4880
C73A C 0.6321(7) 0.9190(6) 0.3309(4)
H70A H 0.6119 0.9750 0.3078
H71A H 0.6834 0.9028 0.3312
H72A H 0.6183 0.8977 0.3057
C74A C 0.3758(5) 1.1433(4) 0.3330(3)
C75A C 0.4186(4) 1.1410(3) 0.2762(3)
H73A H 0.4400 1.0942 0.2721
C76A C 0.4305(4) 1.2063(3) 0.2252(3)
H74A H 0.4594 1.2040 0.1862
C77A C 0.3999(3) 1.2752(3) 0.2310(3)
C78A C 0.3560(3) 1.2783(3) 0.2866(3)
H75A H 0.3333 1.3255 0.2899
C79A C 0.3447(4) 1.2125(3) 0.3376(3)
H76A H 0.3153 1.2150 0.3763
C80A C 0.4161(3) 1.3444(3) 0.1782(2)
O9A O 0.4047(2) -0.36004(18) 1.10566(17)
O10A O 0.4765(2) -0.37416(19) 1.01878(17)
N9A N 0.5999(2) -0.0904(2) 0.97932(19)
H77A H 0.5558 -0.0825 0.9738
N10A N 0.4924(2) -0.0849(2) 1.11380(19)
H78A H 0.4736 -0.0788 1.0772
C81A C 0.6410(3) -0.0540(3) 0.9289(2)
C82A C 0.7055(3) -0.0810(3) 0.9568(3)
H79A H 0.7443 -0.0657 0.9339
C83A C 0.7040(3) -0.1367(3) 1.0272(3)
H80A H 0.7419 -0.1654 1.0593
C84A C 0.6383(3) -0.1416(3) 1.0401(2)
C85A C 0.6060(3) -0.1876(3) 1.1063(2)
C86A C 0.5581(3) -0.1347(3) 1.1391(2)
C87A C 0.5678(3) -0.1271(3) 1.1960(3)
H81A H 0.6085 -0.1546 1.2245
C88A C 0.5059(3) -0.0705(3) 1.2046(3)
H82A H 0.4981 -0.0532 1.2398
C89A C 0.4598(3) -0.0455(3) 1.1537(2)
C90A C 0.3830(3) 0.0033(3) 1.1457(3)
C91A C 0.6663(3) -0.2501(3) 1.1575(3)
H83A H 0.6909 -0.2258 1.1697
H84A H 0.6470 -0.2821 1.1999
H85A H 0.6993 -0.2818 1.1355
C92A C 0.3682(4) 0.0546(4) 1.1833(3)
H86A H 0.3183 0.0865 1.1787
H87A H 0.3801 0.0224 1.2327
H88A H 0.3966 0.0874 1.1622
C93A C 0.3401(4) -0.0504(4) 1.1812(3)
H89A H 0.3485 -0.0824 1.1569
H90A H 0.3547 -0.0832 1.2300
H91A H 0.2900 -0.0198 1.1792
C94A C 0.5663(3) -0.2284(3) 1.0933(2)
C95A C 0.5123(3) -0.2472(2) 1.1383(2)
H92A H 0.5000 -0.2335 1.1762
C96A C 0.4762(3) -0.2859(3) 1.1289(2)
H93A H 0.4391 -0.2975 1.1596
C97A C 0.4946(3) -0.3076(2) 1.0741(2)
C98A C 0.5492(3) -0.2902(3) 1.0300(2)
H94A H 0.5626 -0.3054 0.9931
C99A C 0.5849(3) -0.2506(3) 1.0394(2)
H95A H 0.6220 -0.2389 1.0086
C100A C 0.4560(3) -0.3497(2) 1.0653(2)
O11A O -0.56503(16) 1.49496(16) 1.02709(14)
Pr1A Pr -0.63163(2) 1.54020(2) 1.11236(2)
Pr2A Pr -0.45233(2) 1.39535(2) 1.07407(2)
O12A O -0.3539(5) 1.4341(5) 1.0911(5)
N11A N -0.2714(6) 1.4497(6) 1.1319(5)
C101A C -0.3370(5) 1.4692(6) 1.1115(5)
C102A C -0.2164(7) 1.3795(10) 1.1284(12)
H96A H -0.1715 1.3718 1.1445
H97A H -0.2116 1.3857 1.0802
H98A H -0.2303 1.3349 1.1582
C103A C -0.2607(10) 1.5015(11) 1.1559(10)
H99A H -0.2116 1.4823 1.1694
H100A H -0.2912 1.5026 1.1960
H101A H -0.2725 1.5533 1.1179
O13A O -0.7159(3) 1.5089(3) 1.0697(3)
N12A N -0.7510(6) 1.4022(7) 1.1113(6)
C104A C -0.7480(6) 1.4661(6) 1.1062(6)
H102A H -0.7781 1.4827 1.1387
C105A C -0.7102(9) 1.3640(9) 1.0676(9)
H103A H -0.7232 1.3985 1.0187
H104A H -0.6600 1.3508 1.0735
H105A H -0.7199 1.3173 1.0812
C106A C -0.7951(11) 1.3614(10) 1.1609(11)
H106A H -0.8385 1.3749 1.1380
H107A H -0.7699 1.3060 1.1789
H108A H -0.8067 1.3762 1.1995
O1A_2 O -0.66217(16) 1.53535(19) 1.23224(16)
O2A_2 O -0.74807(19) 1.5944(3) 1.15664(19)
O3_2 O -0.66901(19) 1.64613(18) 0.99643(17)
O3A_2 O 0.66901(19) 0.35387(18) 1.00357(17)
O5A_2 O -0.50569(17) 1.47167(17) 1.14839(15)
O6A_2 O -0.4374(2) 1.35174(18) 1.20446(17)
O7A_2 O -0.5385(2) 1.33546(19) 1.13250(18)
O8A_2 O -0.6171(2) 1.40659(19) 1.1830(2)
O9A_2 O -0.5953(2) 1.63996(18) 1.10566(17)
O10_2 O -0.4765(2) 1.37416(19) 0.98122(17)
O10A_2 O 0.4765(2) 0.62584(19) 1.01878(17)
O11_2 O -0.43497(16) 1.50504(16) 0.97291(14)
O11A_2 O 0.43497(16) 0.49496(16) 1.02709(14)
Pr1_2 Pr -0.36837(2) 1.45980(2) 0.88764(2)
Pr1A_2 Pr 0.36837(2) -0.45980(2) 1.11236(2)
Pr1A_3 Pr 0.36837(2) 0.54020(2) 0.11236(2)
Pr1A_4 Pr 0.36837(2) 0.54020(2) 1.11236(2)
Pr1A_5 Pr 0.36837(2) 1.54020(2) 0.11236(2)
Pr1A_6 Pr 1.36837(2) 0.54020(2) 0.11236(2)
Pr2_2 Pr -0.54767(2) 1.60465(2) 0.92593(2)
Pr2_3 Pr 0.45233(2) -0.39535(2) 0.92593(2)
Pr2A_2 Pr 0.54767(2) 0.39535(2) 0.07407(2)
Pr2A_3 Pr 0.54767(2) 0.39535(2) 1.07407(2)
Pr2A_4 Pr 0.54767(2) 1.39535(2) 0.07407(2)
O14 O 0.9737(12) 0.5974(12) 0.7916(13)
O15 O 1.0412(10) 0.6138(9) 0.8443(11)
N13 N 0.8925(7) 0.9741(8) 0.5217(7)
H109 H 0.9321 0.9346 0.5318
N14 N 0.9968(7) 0.9860(7) 0.6139(6)
H110 H 1.0140 0.9495 0.5997
C107 C 0.8639(9) 1.0140(9) 0.4597(9)
C108 C 0.8068(9) 1.0658(10) 0.4643(9)
H111 H 0.7742 1.1033 0.4279
C109 C 0.8015(9) 1.0566(9) 0.5336(8)
H112 H 0.7648 1.0869 0.5526
C110 C 0.8564(8) 0.9991(8) 0.5666(8)
C111 C 0.8798(9) 0.9709(9) 0.6434(8)
C112 C 0.9319(8) 1.0071(8) 0.6375(7)
C113 C 0.9223(9) 1.0693(9) 0.6495(8)
H113 H 0.8799 1.0991 0.6636
C114 C 0.9879(9) 1.0801(9) 0.6366(9)
H114 H 0.9967 1.1177 0.6430
C115 C 1.0365(9) 1.0294(9) 0.6140(8)
C116 C 1.1051(10) 1.0167(11) 0.5977(11)
C117 C 0.9112(9) 0.8831(10) 0.6817(9)
C118 C 0.8896(11) 0.8347(12) 0.6716(12)
H115 H 0.8572 0.8556 0.6352
C119 C 0.9131(12) 0.7572(12) 0.7120(13)
H116 H 0.8924 0.7266 0.7072
C120 C 0.9673(12) 0.7224(13) 0.7605(13)
C121 C 0.9921(11) 0.7681(11) 0.7674(11)
H117 H 1.0303 0.7470 0.7980
C122 C 0.9621(11) 0.8481(12) 0.7292(11)
H118 H 0.9791 0.8792 0.7378
C123 C 0.9978(14) 0.6382(15) 0.7970(15)
C124 C 0.8176(8) 0.9996(10) 0.6867(9)
H119 H 0.7797 0.9825 0.6870
H120 H 0.8005 1.0556 0.6660
H121 H 0.8331 0.9790 0.7346
C125 C 1.1167(13) 1.0873(13) 0.5796(13)
H122 H 1.0814 1.1304 0.5455
H123 H 1.1637 1.0838 0.5594
H124 H 1.1127 1.0951 0.6216
C126 C 1.1457(12) 0.9516(15) 0.6618(12)
H125 H 1.1301 0.9643 0.7016
H126 H 1.1960 0.9433 0.6538
H127 H 1.1375 0.9050 0.6716
O14A O 1.0263(12) 1.4026(12) 0.2084(13)
O15A O 0.9588(10) 1.3862(9) 0.1557(11)
N13A N 1.1075(7) 1.0259(8) 0.4783(7)
H109A H 1.0679 1.0654 0.4682
N14A N 1.0032(7) 1.0140(7) 0.3861(6)
H110A H 0.9860 1.0505 0.4003
C107A C 1.1361(9) 0.9860(9) 0.5403(9)
C108A C 1.1932(9) 0.9342(10) 0.5357(9)
H111A H 1.2258 0.8967 0.5721
C109A C 1.1985(9) 0.9434(9) 0.4664(8)
H112A H 1.2352 0.9131 0.4474
C110A C 1.1436(8) 1.0009(8) 0.4334(8)
C111A C 1.1202(9) 1.0291(9) 0.3566(8)
C112A C 1.0681(8) 0.9929(8) 0.3625(7)
C113A C 1.0777(9) 0.9307(9) 0.3505(8)
H113A H 1.1201 0.9009 0.3364
C114A C 1.0121(9) 0.9199(9) 0.3634(9)
H114A H 1.0033 0.8823 0.3570
C115A C 0.9635(9) 0.9706(9) 0.3860(8)
C116A C 0.8949(10) 0.9833(11) 0.4023(11)
C117A C 1.0888(9) 1.1169(10) 0.3183(9)
C118A C 1.1104(11) 1.1653(12) 0.3284(12)
H115A H 1.1428 1.1444 0.3648
C119A C 1.0869(12) 1.2428(12) 0.2880(13)
H116A H 1.1076 1.2734 0.2928
C120A C 1.0327(12) 1.2776(13) 0.2395(13)
C121A C 1.0079(11) 1.2319(11) 0.2326(11)
H117A H 0.9697 1.2530 0.2020
C122A C 1.0379(11) 1.1519(12) 0.2708(11)
H118A H 1.0209 1.1208 0.2622
C123A C 1.0022(14) 1.3618(15) 0.2030(15)
C124A C 1.1824(8) 1.0004(10) 0.3133(9)
H119A H 1.2203 1.0175 0.3130
H120A H 1.1995 0.9444 0.3340
H121A H 1.1669 1.0210 0.2654
C125A C 0.8833(13) 0.9127(13) 0.4204(13)
H122A H 0.9186 0.8696 0.4545
H123A H 0.8363 0.9162 0.4406
H124A H 0.8873 0.9049 0.3784
C126A C 0.8543(12) 1.0484(15) 0.3382(12)
H125A H 0.8699 1.0357 0.2984
H126A H 0.8040 1.0567 0.3462
H127A H 0.8625 1.0950 0.3284
O16 O 0.5311(6) 0.5347(9) 0.5664(7)
N15 N 0.5992(4) 0.5907(4) 0.5814(4)
C127 C 0.5503(6) 0.5587(6) 0.5975(7)
H128 H 0.5269 0.5543 0.6407
C128 C 0.6406(8) 0.6022(9) 0.5175(6)
H129 H 0.6529 0.5579 0.5076
H130 H 0.6836 0.6081 0.5232
H131 H 0.6131 0.6485 0.4788
C129 C 0.6137(7) 0.6164(7) 0.6284(6)
H132 H 0.5896 0.5977 0.6729
H133 H 0.5969 0.6725 0.6072
H134 H 0.6644 0.5962 0.6365
O17 O 0.5438(2) 0.0765(2) 1.01188(18)
N16 N 0.6133(3) 0.0518(3) 1.0945(3)
C130 C 0.5965(3) 0.0383(3) 1.0466(3)
C131 C 0.5640(4) 0.1113(5) 1.1151(4)
H135 H 0.5197 0.1346 1.0898
H136 H 0.5842 0.1506 1.1035
H137 H 0.5551 0.0886 1.1654
C132 C 0.6759(4) 0.0004(5) 1.1379(4)
H138 H 0.7139 -0.0195 1.1101
H139 H 0.6655 -0.0422 1.1777
H140 H 0.6904 0.0288 1.1549
O18 O 0.9208(2) 0.5312(2) 0.5786(2)
C133 C 0.9200(3) 0.5921(3) 0.5710(3)
H141 H 0.9615 0.6039 0.5533
N17 N 0.8665(4) 0.6436(4) 0.5851(4)
C134 C 0.8001(6) 0.6265(8) 0.6129(10)
H142 H 0.8041 0.5791 0.6116
H143 H 0.7606 0.6689 0.5837
H144 H 0.7921 0.6207 0.6610
C135 C 0.8718(7) 0.7164(5) 0.5734(6)
H145 H 0.8825 0.7124 0.6177
H146 H 0.8272 0.7583 0.5552
H147 H 0.9094 0.7267 0.5398
O19 O 0.1144(2) 0.9067(3) 1.0218(3)
N18 N 0.1893(2) 0.8594(2) 1.1100(3)
C136 C 0.1302(3) 0.9062(3) 1.0731(3)
C137 C 0.2426(4) 0.8023(4) 1.0895(5)
H148 H 0.2200 0.7839 1.0676
H149 H 0.2691 0.7580 1.1309
C138 C 0.2936(5) 0.8410(6) 1.0362(7)
H150 H 0.2662 0.8890 0.9988
H151 H 0.3252 0.8064 1.0162
H152 H 0.3213 0.8516 1.0602
C139 C 0.2017(4) 0.8649(5) 1.1724(4)
H153 H 0.1692 0.9143 1.1719
H154 H 0.2504 0.8634 1.1713
C140 C 0.1903(5) 0.7981(6) 1.2403(6)
H155 H 0.1432 0.7978 1.2396
H156 H 0.1951 0.8045 1.2811
H157 H 0.2254 0.7495 1.2426
O20 O 0.4890(4) 0.8947(3) 0.5880(2)
N19 N 0.3986(6) 0.8525(4) 0.6172(6)
C141 C 0.4450(5) 0.8809(4) 0.5736(4)
H158 H 0.4427 0.8911 0.5263
C142 C 0.3959(9) 0.8322(8) 0.7028(8)
H159 H 0.4143 0.8660 0.7079
H160 H 0.4244 0.7787 0.7304
H161 H 0.3471 0.8417 0.7193
C143 C 0.3458(11) 0.8391(9) 0.5867(12)
H162 H 0.3139 0.8179 0.6227
H163 H 0.3720 0.8035 0.5660
H164 H 0.3185 0.8882 0.5503
O21 O 0.9649(6) 0.1364(7) 0.4302(7)
N20 N 0.8613(7) 0.2230(7) 0.4392(7)
C144 C 0.9165(9) 0.1624(8) 0.4632(8)
H165 H 0.9198 0.1348 0.5125
C145 C 0.8511(14) 0.2766(14) 0.3684(11)
H166 H 0.8115 0.3230 0.3647
H167 H 0.8407 0.2547 0.3416
H168 H 0.8936 0.2892 0.3498
C146 C 0.8034(10) 0.2414(9) 0.4779(10)
H169 H 0.8117 0.2048 0.5271
H170 H 0.7636 0.2397 0.4608
H171 H 0.7927 0.2931 0.4732
loop_
_geom_bond_atom_site_label_1
_geom_bond_atom_site_label_2
_geom_bond_site_symmetry_1
_geom_bond_site_symmetry_2
O1 C20 1_555 1_555
O2 C20 1_555 1_555
N1 H1 1_555 1_555
N2 H2 1_555 1_555
C1 N1 1_555 1_555
C2 C1 1_555 1_555
H3 C2 1_555 1_555
C3 C2 1_555 1_555
H4 C3 1_555 1_555
C4 N1 1_555 1_555
C5 C4 1_555 1_555
C6 N2 1_555 1_555
C7 C6 1_555 1_555
H5 C7 1_555 1_555
C8 C7 1_555 1_555
H6 C8 1_555 1_555
C9 N2 1_555 1_555
C10 C9 1_555 1_555
C11 C5 1_555 1_555
H7 C11 1_555 1_555
H8 C11 1_555 1_555
H9 C11 1_555 1_555
C12 C10 1_555 1_555
H10 C12 1_555 1_555
H11 C12 1_555 1_555
H12 C12 1_555 1_555
C13 C10 1_555 1_555
H13 C13 1_555 1_555
H14 C13 1_555 1_555
H15 C13 1_555 1_555
C14 C5 1_555 1_555
C15 C14 1_555 1_555
H16 C15 1_555 1_555
C16 C15 1_555 1_555
H17 C16 1_555 1_555
C17 C16 1_555 1_555
C18 C17 1_555 1_555
H18 C18 1_555 1_555
C19 C14 1_555 1_555
H19 C19 1_555 1_555
C20 C17 1_555 1_555
O3 C37 1_555 1_555
O4 C37 1_555 1_555
C21 H20 1_555 1_555
N3 H21 1_555 1_555
C22 C21 1_555 1_555
H22 C22 1_555 1_555
C23 C22 1_555 1_555
N4 C23 1_555 1_555
H23 N4 1_555 1_555
C24 C21 1_555 1_555
C25 C24 1_555 1_555
C26 N3 1_555 1_555
C27 C26 1_555 1_555
H24 C27 1_555 1_555
C28 C27 1_555 1_555
H25 C28 1_555 1_555
C29 N3 1_555 1_555
C30 C29 1_555 1_555
C31 C25 1_555 1_555
C32 C31 1_555 1_555
H26 C32 1_555 1_555
C33 C32 1_555 1_555
H27 C33 1_555 1_555
C34 C33 1_555 1_555
C35 C34 1_555 1_555
H28 C35 1_555 1_555
C36 C31 1_555 1_555
H29 C36 1_555 1_555
C37 C34 1_555 1_555
C38 C25 1_555 1_555
H30 C38 1_555 1_555
H31 C38 1_555 1_555
H32 C38 1_555 1_555
C39 C30 1_555 1_555
H33 C39 1_555 1_555
H34 C39 1_555 1_555
H35 C39 1_555 1_555
C40 C30 1_555 1_555
H36 C40 1_555 1_555
H37 C40 1_555 1_555
H38 C40 1_555 1_555
O5 C60 1_555 1_555
O6 C60 1_555 1_555
N5 H39 1_555 1_555
N6 H40 1_555 1_555
C41 N5 1_555 1_555
C42 C41 1_555 1_555
H41 C42 1_555 1_555
C43 C42 1_555 1_555
H42 C43 1_555 1_555
C44 N5 1_555 1_555
C45 C44 1_555 1_555
C46 N6 1_555 1_555
C47 C46 1_555 1_555
H43 C47 1_555 1_555
C48 C47 1_555 1_555
H44 C48 1_555 1_555
C49 N6 1_555 1_555
C50 C49 1_555 1_555
C51 C45 1_555 1_555
H45 C51 1_555 1_555
H46 C51 1_555 1_555
H47 C51 1_555 1_555
C52 C50 1_555 1_555
H48 C52 1_555 1_555
H49 C52 1_555 1_555
H50 C52 1_555 1_555
C53 C50 1_555 1_555
H51 C53 1_555 1_555
H52 C53 1_555 1_555
H53 C53 1_555 1_555
C54 C45 1_555 1_555
C55 C54 1_555 1_555
H54 C55 1_555 1_555
C56 C55 1_555 1_555
H55 C56 1_555 1_555
C57 C56 1_555 1_555
C58 C57 1_555 1_555
H56 C58 1_555 1_555
C59 C54 1_555 1_555
H57 C59 1_555 1_555
C60 C57 1_555 1_555
O7 C80 1_555 1_555
O8 C80 1_555 1_555
N7 H58 1_555 1_555
N8 H59 1_555 1_555
C61 N7 1_555 1_555
C62 C61 1_555 1_555
H60 C62 1_555 1_555
C63 C62 1_555 1_555
H61 C63 1_555 1_555
C64 N7 1_555 1_555
C65 C64 1_555 1_555
C66 N8 1_555 1_555
C67 C66 1_555 1_555
H62 C67 1_555 1_555
C68 C67 1_555 1_555
H63 C68 1_555 1_555
C69 N8 1_555 1_555
C70 C69 1_555 1_555
C71 C65 1_555 1_555
H64 C71 1_555 1_555
H65 C71 1_555 1_555
H66 C71 1_555 1_555
C72 C70 1_555 1_555
H67 C72 1_555 1_555
H68 C72 1_555 1_555
H69 C72 1_555 1_555
C73 C70 1_555 1_555
H70 C73 1_555 1_555
H71 C73 1_555 1_555
H72 C73 1_555 1_555
C74 C65 1_555 1_555
C75 C74 1_555 1_555
H73 C75 1_555 1_555
C76 C75 1_555 1_555
H74 C76 1_555 1_555
C77 C76 1_555 1_555
C78 C77 1_555 1_555
H75 C78 1_555 1_555
C79 C74 1_555 1_555
H76 C79 1_555 1_555
C80 C77 1_555 1_555
O9 C100 1_555 1_555
O10 C100 1_555 1_555
N9 H77 1_555 1_555
N10 H78 1_555 1_555
C81 N9 1_555 1_555
C82 C81 1_555 1_555
H79 C82 1_555 1_555
C83 C82 1_555 1_555
H80 C83 1_555 1_555
C84 N9 1_555 1_555
C85 C84 1_555 1_555
C86 N10 1_555 1_555
C87 C86 1_555 1_555
H81 C87 1_555 1_555
C88 C87 1_555 1_555
H82 C88 1_555 1_555
C89 N10 1_555 1_555
C90 C89 1_555 1_555
C91 C85 1_555 1_555
H83 C91 1_555 1_555
H84 C91 1_555 1_555
H85 C91 1_555 1_555
C92 C90 1_555 1_555
H86 C92 1_555 1_555
H87 C92 1_555 1_555
H88 C92 1_555 1_555
C93 C90 1_555 1_555
H89 C93 1_555 1_555
H90 C93 1_555 1_555
H91 C93 1_555 1_555
C94 C85 1_555 1_555
C95 C94 1_555 1_555
H92 C95 1_555 1_555
C96 C95 1_555 1_555
H93 C96 1_555 1_555
C97 C96 1_555 1_555
C98 C97 1_555 1_555
H94 C98 1_555 1_555
C99 C94 1_555 1_555
H95 C99 1_555 1_555
C100 C97 1_555 1_555
O11 Pr1 1_555 1_555
Pr1 O1 1_555 1_555
Pr2 O3 1_555 1_555
O12 Pr2 1_555 1_555
N11 C101 1_555 1_555
C101 O12 1_555 1_555
C102 N11 1_555 1_555
H96 C102 1_555 1_555
H97 C102 1_555 1_555
H98 C102 1_555 1_555
C103 N11 1_555 1_555
H99 C103 1_555 1_555
H100 C103 1_555 1_555
H101 C103 1_555 1_555
O13 Pr1 1_555 1_555
N12 C104 1_555 1_555
C104 O13 1_555 1_555
H102 C104 1_555 1_555
C105 N12 1_555 1_555
H103 C105 1_555 1_555
H104 C105 1_555 1_555
H105 C105 1_555 1_555
C106 N12 1_555 1_555
H106 C106 1_555 1_555
H107 C106 1_555 1_555
H108 C106 1_555 1_555
O14 C123 1_555 1_555
O15 C123 1_555 1_555
N13 H109 1_555 1_555
N14 H110 1_555 1_555
C107 N13 1_555 1_555
C108 C107 1_555 1_555
H111 C108 1_555 1_555
C109 C108 1_555 1_555
H112 C109 1_555 1_555
C110 N13 1_555 1_555
C111 C110 1_555 1_555
C112 N14 1_555 1_555
C113 C112 1_555 1_555
H113 C113 1_555 1_555
C114 C113 1_555 1_555
H114 C114 1_555 1_555
C115 N14 1_555 1_555
C116 C115 1_555 1_555
C117 C111 1_555 1_555
C118 C117 1_555 1_555
H115 C118 1_555 1_555
C119 C118 1_555 1_555
H116 C119 1_555 1_555
C120 C119 1_555 1_555
C121 C120 1_555 1_555
H117 C121 1_555 1_555
C122 C117 1_555 1_555
H118 C122 1_555 1_555
C123 C120 1_555 1_555
C124 C111 1_555 1_555
H119 C124 1_555 1_555
H120 C124 1_555 1_555
H121 C124 1_555 1_555
C125 C116 1_555 1_555
H122 C125 1_555 1_555
H123 C125 1_555 1_555
H124 C125 1_555 1_555
C126 C116 1_555 1_555
H125 C126 1_555 1_555
H126 C126 1_555 1_555
H127 C126 1_555 1_555
O16 C127 1_555 1_555
N15 C127 1_555 1_555
C127 H128 1_555 1_555
C128 N15 1_555 1_555
H129 C128 1_555 1_555
H130 C128 1_555 1_555
H131 C128 1_555 1_555
C129 N15 1_555 1_555
H132 C129 1_555 1_555
H133 C129 1_555 1_555
H134 C129 1_555 1_555
O17 C130 1_555 1_555
N16 C130 1_555 1_555
C131 N16 1_555 1_555
H135 C131 1_555 1_555
H136 C131 1_555 1_555
H137 C131 1_555 1_555
C132 N16 1_555 1_555
H138 C132 1_555 1_555
H139 C132 1_555 1_555
H140 C132 1_555 1_555
O18 C133 1_555 1_555
C133 H141 1_555 1_555
N17 C133 1_555 1_555
C134 N17 1_555 1_555
H142 C134 1_555 1_555
H143 C134 1_555 1_555
H144 C134 1_555 1_555
C135 N17 1_555 1_555
H145 C135 1_555 1_555
H146 C135 1_555 1_555
H147 C135 1_555 1_555
O19 C136 1_555 1_555
N18 C136 1_555 1_555
C137 N18 1_555 1_555
H148 C137 1_555 1_555
H149 C137 1_555 1_555
C138 C137 1_555 1_555
H150 C138 1_555 1_555
H151 C138 1_555 1_555
H152 C138 1_555 1_555
C139 N18 1_555 1_555
H153 C139 1_555 1_555
H154 C139 1_555 1_555
C140 C139 1_555 1_555
H155 C140 1_555 1_555
H156 C140 1_555 1_555
H157 C140 1_555 1_555
O20 C141 1_555 1_555
N19 C141 1_555 1_555
C141 H158 1_555 1_555
C142 N19 1_555 1_555
H159 C142 1_555 1_555
H160 C142 1_555 1_555
H161 C142 1_555 1_555
C143 N19 1_555 1_555
H162 C143 1_555 1_555
H163 C143 1_555 1_555
H164 C143 1_555 1_555
O21 C144 1_555 1_555
N20 C144 1_555 1_555
C144 H165 1_555 1_555
C145 N20 1_555 1_555
H166 C145 1_555 1_555
H167 C145 1_555 1_555
H168 C145 1_555 1_555
C146 N20 1_555 1_555
H169 C146 1_555 1_555
H170 C146 1_555 1_555
H171 C146 1_555 1_555
O1A C20A 1_555 1_555
O2A C20A 1_555 1_555
N1A H1A 1_555 1_555
N2A H2A 1_555 1_555
C1A C10 1_555 1_555
C2A C1A 1_555 1_555
H3A C2A 1_555 1_555
C3A C2A 1_555 1_555
H4A C3A 1_555 1_555
C4A N1A 1_555 1_555
C5A C4A 1_555 1_555
C6A N2A 1_555 1_555
C7A C6A 1_555 1_555
H5A C7A 1_555 1_555
C8A C7A 1_555 1_555
H6A C8A 1_555 1_555
C9A N2A 1_555 1_555
C10A C1 1_555 1_555
C11A C5A 1_555 1_555
H7A C11A 1_555 1_555
H8A C11A 1_555 1_555
H9A C11A 1_555 1_555
C12A C10A 1_555 1_555
H10A C12A 1_555 1_555
H11A C12A 1_555 1_555
H12A C12A 1_555 1_555
C13A C10A 1_555 1_555
H13A C13A 1_555 1_555
H14A C13A 1_555 1_555
H15A C13A 1_555 1_555
C14A C5A 1_555 1_555
C15A C14A 1_555 1_555
H16A C15A 1_555 1_555
C16A C15A 1_555 1_555
H17A C16A 1_555 1_555
C17A C16A 1_555 1_555
C18A C17A 1_555 1_555
H18A C18A 1_555 1_555
C19A C14A 1_555 1_555
H19A C19A 1_555 1_555
C20A C17A 1_555 1_555
O3A C37A 1_555 1_555
O4A C37A 1_555 1_555
C21A H20A 1_555 1_555
N3A H21A 1_555 1_555
C22A C21A 1_555 1_555
H22A C22A 1_555 1_555
C23A C30 1_555 1_555
N4A C23A 1_555 1_555
H23A N4A 1_555 1_555
C24A C21A 1_555 1_555
C25A C24A 1_555 1_555
C26A N3A 1_555 1_555
C27A C26A 1_555 1_555
H24A C27A 1_555 1_555
C28A C27A 1_555 1_555
H25A C28A 1_555 1_555
C29A N3A 1_555 1_555
C30A C23 1_555 1_555
C31A C25A 1_555 1_555
C32A C31A 1_555 1_555
H26A C32A 1_555 1_555
C33A C32A 1_555 1_555
H27A C33A 1_555 1_555
C34A C33A 1_555 1_555
C35A C34A 1_555 1_555
H28A C35A 1_555 1_555
C36A C31A 1_555 1_555
H29A C36A 1_555 1_555
C37A C34A 1_555 1_555
C38A C25A 1_555 1_555
H30A C38A 1_555 1_555
H31A C38A 1_555 1_555
H32A C38A 1_555 1_555
C39A C30A 1_555 1_555
H33A C39A 1_555 1_555
H34A C39A 1_555 1_555
H35A C39A 1_555 1_555
C40A C30A 1_555 1_555
H36A C40A 1_555 1_555
H37A C40A 1_555 1_555
H38A C40A 1_555 1_555
O5A C60A 1_555 1_555
O6A C60A 1_555 1_555
N5A H39A 1_555 1_555
N6A H40A 1_555 1_555
C41A C50 1_555 1_555
C42A C41A 1_555 1_555
H41A C42A 1_555 1_555
C43A C42A 1_555 1_555
H42A C43A 1_555 1_555
C44A N5A 1_555 1_555
C45A C44A 1_555 1_555
C46A N6A 1_555 1_555
C47A C46A 1_555 1_555
H43A C47A 1_555 1_555
C48A C47A 1_555 1_555
H44A C48A 1_555 1_555
C49A N6A 1_555 1_555
C50A C41 1_555 1_555
C51A C45A 1_555 1_555
H45A C51A 1_555 1_555
H46A C51A 1_555 1_555
H47A C51A 1_555 1_555
C52A C50A 1_555 1_555
H48A C52A 1_555 1_555
H49A C52A 1_555 1_555
H50A C52A 1_555 1_555
C53A C50A 1_555 1_555
H51A C53A 1_555 1_555
H52A C53A 1_555 1_555
H53A C53A 1_555 1_555
C54A C45A 1_555 1_555
C55A C54A 1_555 1_555
H54A C55A 1_555 1_555
C56A C55A 1_555 1_555
H55A C56A 1_555 1_555
C57A C56A 1_555 1_555
C58A C57A 1_555 1_555
H56A C58A 1_555 1_555
C59A C54A 1_555 1_555
H57A C59A 1_555 1_555
C60A C57A 1_555 1_555
O7A C80A 1_555 1_555
O8A C80A 1_555 1_555
N7A H58A 1_555 1_555
N8A H59A 1_555 1_555
C61A C70 1_555 1_555
C62A C61A 1_555 1_555
H60A C62A 1_555 1_555
C63A C62A 1_555 1_555
H61A C63A 1_555 1_555
C64A N7A 1_555 1_555
C65A C64A 1_555 1_555
C66A N8A 1_555 1_555
C67A C66A 1_555 1_555
H62A C67A 1_555 1_555
C68A C67A 1_555 1_555
H63A C68A 1_555 1_555
C69A N8A 1_555 1_555
C70A C61 1_555 1_555
C71A C65A 1_555 1_555
H64A C71A 1_555 1_555
H65A C71A 1_555 1_555
H66A C71A 1_555 1_555
C72A C70A 1_555 1_555
H67A C72A 1_555 1_555
H68A C72A 1_555 1_555
H69A C72A 1_555 1_555
C73A C70A 1_555 1_555
H70A C73A 1_555 1_555
H71A C73A 1_555 1_555
H72A C73A 1_555 1_555
C74A C65A 1_555 1_555
C75A C74A 1_555 1_555
H73A C75A 1_555 1_555
C76A C75A 1_555 1_555
H74A C76A 1_555 1_555
C77A C76A 1_555 1_555
C78A C77A 1_555 1_555
H75A C78A 1_555 1_555
C79A C74A 1_555 1_555
H76A C79A 1_555 1_555
C80A C77A 1_555 1_555
O9A C100A 1_555 1_555
O10A C100A 1_555 1_555
N9A H77A 1_555 1_555
N10A H78A 1_555 1_555
C81A C90 1_555 1_555
C82A C81A 1_555 1_555
H79A C82A 1_555 1_555
C83A C82A 1_555 1_555
H80A C83A 1_555 1_555
C84A N9A 1_555 1_555
C85A C84A 1_555 1_555
C86A N10A 1_555 1_555
C87A C86A 1_555 1_555
H81A C87A 1_555 1_555
C88A C87A 1_555 1_555
H82A C88A 1_555 1_555
C89A N10A 1_555 1_555
C90A C81 1_555 1_555
C91A C85A 1_555 1_555
H83A C91A 1_555 1_555
H84A C91A 1_555 1_555
H85A C91A 1_555 1_555
C92A C90A 1_555 1_555
H86A C92A 1_555 1_555
H87A C92A 1_555 1_555
H88A C92A 1_555 1_555
C93A C90A 1_555 1_555
H89A C93A 1_555 1_555
H90A C93A 1_555 1_555
H91A C93A 1_555 1_555
C94A C85A 1_555 1_555
C95A C94A 1_555 1_555
H92A C95A 1_555 1_555
C96A C95A 1_555 1_555
H93A C96A 1_555 1_555
C97A C96A 1_555 1_555
C98A C97A 1_555 1_555
H94A C98A 1_555 1_555
C99A C94A 1_555 1_555
H95A C99A 1_555 1_555
C100A C97A 1_555 1_555
O11A Pr1A 1_555 1_555
Pr1A O13A 1_555 1_555
Pr2A O3A 1_555 1_555
O12A Pr2A 1_555 1_555
N11A C101A 1_555 1_555
C101A O12A 1_555 1_555
C102A N11A 1_555 1_555
H96A C102A 1_555 1_555
H97A C102A 1_555 1_555
H98A C102A 1_555 1_555
C103A N11A 1_555 1_555
H99A C103A 1_555 1_555
H100A C103A 1_555 1_555
H101A C103A 1_555 1_555
O13A C104A 1_555 1_555
N12A C104A 1_555 1_555
C104A H102A 1_555 1_555
C105A N12A 1_555 1_555
H103A C105A 1_555 1_555
H104A C105A 1_555 1_555
H105A C105A 1_555 1_555
C106A N12A 1_555 1_555
H106A C106A 1_555 1_555
H107A C106A 1_555 1_555
H108A C106A 1_555 1_555
O1A_2 Pr1A 1_555 1_555
O2A_2 Pr1A 1_555 1_555
O3_2 Pr1A 1_555 1_555
O3A_2 Pr1 1_555 1_555
O5A_2 Pr1A 1_555 1_555
O6A_2 Pr2A 1_555 1_555
O7A_2 Pr2A 1_555 1_555
O8A_2 Pr1A 1_555 1_555
O9A_2 Pr1A 1_555 1_555
O10_2 Pr2A 1_555 1_555
O10A_2 Pr2 1_555 1_555
O11_2 Pr2A 1_555 1_555
O11A_2 Pr2 1_555 1_555
Pr1_2 O3A 1_555 1_555
Pr1A_2 O9A 1_555 1_555
Pr1A_3 O5A 1_555 1_555
Pr1A_4 O3 1_555 1_555
Pr1A_5 O8A 1_555 1_555
Pr1A_6 O1A 1_555 1_555
Pr2_2 O11A 1_555 1_555
Pr2_3 O10A 1_555 1_555
Pr2A_2 O5A 1_555 1_555
Pr2A_3 O10 1_555 1_555
Pr2A_4 O7A 1_555 1_555
O14A C123A 1_555 1_555
O15A C123A 1_555 1_555
N13A H109A 1_555 1_555
N14A H110A 1_555 1_555
C107A C116 1_555 1_555
C108A C107A 1_555 1_555
H111A C108A 1_555 1_555
C109A C108A 1_555 1_555
H112A C109A 1_555 1_555
C110A N13A 1_555 1_555
C111A C110A 1_555 1_555
C112A N14A 1_555 1_555
C113A C112A 1_555 1_555
H113A C113A 1_555 1_555
C114A C113A 1_555 1_555
H114A C114A 1_555 1_555
C115A N14A 1_555 1_555
C116A C107 1_555 1_555
C117A C111A 1_555 1_555
C118A C117A 1_555 1_555
H115A C118A 1_555 1_555
C119A C118A 1_555 1_555
H116A C119A 1_555 1_555
C120A C119A 1_555 1_555
C121A C120A 1_555 1_555
H117A C121A 1_555 1_555
C122A C117A 1_555 1_555
H118A C122A 1_555 1_555
C123A C120A 1_555 1_555
C124A C111A 1_555 1_555
H119A C124A 1_555 1_555
H120A C124A 1_555 1_555
H121A C124A 1_555 1_555
C125A C116A 1_555 1_555
H122A C125A 1_555 1_555
H123A C125A 1_555 1_555
H124A C125A 1_555 1_555
C126A C116A 1_555 1_555
H125A C126A 1_555 1_555
H126A C126A 1_555 1_555
H127A C126A 1_555 1_555
O2 Pr1 1_555 1_555
C3 C4 1_555 1_555
C5 C6 1_555 1_555
C8 C9 1_555 1_555
C18 C19 1_555 1_555
O4 Pr2 1_555 1_555
N4 C24 1_555 1_555
C25 C26 1_555 1_555
C28 C29 1_555 1_555
C35 C36 1_555 1_555
O5 Pr1 1_555 1_555
O5 Pr2 1_555 1_555
O6 Pr2 1_555 1_555
C43 C44 1_555 1_555
C45 C46 1_555 1_555
C48 C49 1_555 1_555
C58 C59 1_555 1_555
O7 Pr2 1_555 1_555
O8 Pr1 1_555 1_555
C63 C64 1_555 1_555
C65 C66 1_555 1_555
C68 C69 1_555 1_555
C78 C79 1_555 1_555
O9 Pr1 1_555 1_555
C83 C84 1_555 1_555
C85 C86 1_555 1_555
C88 C89 1_555 1_555
C98 C99 1_555 1_555
O11 Pr2 1_555 1_555
O11 Pr2A_3 1_555 1_555
C109 C110 1_555 1_555
C111 C112 1_555 1_555
C114 C115 1_555 1_555
C121 C122 1_555 1_555
O2A Pr1A_6 1_555 1_555
N1A C1A 1_555 1_555
C3A C4A 1_555 1_555
C5A C6A 1_555 1_555
C8A C9A 1_555 1_555
C9A C10A 1_555 1_555
C18A C19A 1_555 1_555
O4A Pr2A 1_555 1_555
C22A C23A 1_555 1_555
N4A C24A 1_555 1_555
C25A C26A 1_555 1_555
C28A C29A 1_555 1_555
C29A C30A 1_555 1_555
C35A C36A 1_555 1_555
O6A Pr2A_2 1_555 1_555
N5A C41A 1_555 1_555
C43A C44A 1_555 1_555
C45A C46A 1_555 1_555
C48A C49A 1_555 1_555
C49A C50A 1_555 1_555
C58A C59A 1_555 1_555
N7A C61A 1_555 1_555
C63A C64A 1_555 1_555
C65A C66A 1_555 1_555
C68A C69A 1_555 1_555
C69A C70A 1_555 1_555
C78A C79A 1_555 1_555
N9A C81A 1_555 1_555
C83A C84A 1_555 1_555
C85A C86A 1_555 1_555
C88A C89A 1_555 1_555
C89A C90A 1_555 1_555
C98A C99A 1_555 1_555
O11A Pr2A 1_555 1_555
Pr2A O5A_2 1_555 1_555
O3_2 Pr2_2 1_555 1_555
O3A_2 Pr2A_3 1_555 1_555
O11_2 Pr1_2 1_555 1_555
O11_2 Pr2_2 1_555 1_555
O11A_2 Pr1A_4 1_555 1_555
O11A_2 Pr2A_3 1_555 1_555
N13A C107A 1_555 1_555
C109A C110A 1_555 1_555
C111A C112A 1_555 1_555
C114A C115A 1_555 1_555
C115A C116A 1_555 1_555
C121A C122A 1_555 1_555

#END
