
#######################################################################
#
#                 Cambridge Crystallographic Data Centre
#                                CCDC 
#
#######################################################################
#
# If this CIF has been generated from an entry in the Cambridge 
# Structural Database, then it will include bibliographic, chemical, 
# crystal, experimental, refinement or atomic coordinate data resulting 
# from the CCDC's data processing and validation procedures.
#
#######################################################################

data_QEZZOL
_chemical_formula_moiety         '(C48 H24 Cu6 N40 O4 W4)n'
_symmetry_cell_setting           orthorhombic
_symmetry_space_group_name_H-M   'P m m n'
_symmetry_Int_Tables_number      59
_space_group_name_Hall           '-P 2ab 2a'
loop_
_symmetry_equiv_pos_site_id
_symmetry_equiv_pos_as_xyz
1 x,y,z
2 1/2+x,-y,-z
3 -x,1/2+y,-z
4 1/2-x,1/2-y,z
5 -x,-y,-z
6 1/2-x,y,z
7 x,1/2-y,z
8 1/2+x,1/2+y,-z
_cell_length_a                   14.761(2)
_cell_length_b                   25.593(4)
_cell_length_c                   11.5284(19)
_cell_angle_alpha                90
_cell_angle_beta                 90
_cell_angle_gamma                90
_cell_volume                     4355.18
loop_
_atom_site_label
_atom_site_type_symbol
_atom_site_fract_x
_atom_site_fract_y
_atom_site_fract_z
O2 O 0.6224(11) 0.7500 0.6484(15)
O3 O 0.7500 0.7500 0.844(3)
W1 W 0.7500 0.61056(2) 0.27670(4)
W2 W 0.2500 0.599490(10) 0.22739(4)
Cu1 Cu 0.5000 0.5000 0.5000
Cu2 Cu 0.5000 0.5000 0.0000
Cu3 Cu 0.48596(9) 0.7500 0.31494(12)
O1 O 0.4739(8) 0.7500 0.5026(9)
N1 N 0.6037(4) 0.5380(2) 0.4232(5)
N2 N 0.6142(4) 0.5467(2) 0.0979(5)
N3 N 0.5805(4) 0.6958(2) 0.2982(6)
N4 N 0.7500 0.6584(4) 0.5453(9)
N5 N 0.7500 0.6760(5) 0.0279(11)
N6 N 0.3976(4) 0.5634(2) 0.4296(5)
N7 N 0.4138(4) 0.5540(2) 0.0582(5)
N8 N 0.3928(4) 0.6958(2) 0.2844(6)
N9 N 0.2500 0.6767(5) -0.0058(10)
N10 N 0.2500 0.4696(4) 0.2339(9)
N11 N 0.4776(4) 0.4573(2) 0.3538(5)
N12 N 0.4759(4) 0.4577(2) 0.1462(5)
C1 C 0.6571(4) 0.5609(2) 0.3740(6)
C2 C 0.6610(4) 0.5687(3) 0.1590(6)
C3 C 0.6384(5) 0.6655(2) 0.2896(7)
C4 C 0.7500 0.6412(4) 0.4529(11)
C5 C 0.7500 0.6532(5) 0.1147(11)
C6 C 0.3443(5) 0.5764(2) 0.3633(6)
C7 C 0.3579(5) 0.5725(2) 0.1164(6)
C8 C 0.3422(4) 0.6631(2) 0.2651(6)
C9 C 0.2500 0.6492(4) 0.0747(11)
C10 C 0.2500 0.5141(4) 0.2325(9)
C11 C 0.4861(4) 0.4801(2) 0.2498(6)
C12 C 0.4535(6) 0.4060(3) 0.3523(8)
C13 C 0.4394(8) 0.3804(3) 0.2496(8)
C14 C 0.4523(7) 0.4073(3) 0.1481(8)
H1 H 0.5008 0.5154 0.2499
H2 H 0.4465 0.3881 0.4219
H3 H 0.4215 0.3456 0.2488
H4 H 0.4444 0.3898 0.0781
W1D W 0.2500 0.38944(2) 0.72330(4)
W1D_2 W 0.2500 0.38944(2) -0.27670(4)
W1F W 0.7500 0.88944(2) 0.27670(4)
W1D_3 W 1.2500 0.38944(2) 0.72330(4)
W1D_4 W 1.2500 0.38944(2) -0.27670(4)
W2D W 0.7500 0.400510(10) 0.77261(4)
W2D_2 W 0.7500 0.400510(10) -0.22739(4)
W2F W 0.2500 0.900510(10) 0.22739(4)
W2_2 W 1.2500 0.599490(10) 0.22739(4)
W2F_2 W 1.2500 0.900510(10) 0.22739(4)
Cu1E Cu 1.0000 0.5000 0.5000
Cu1_2 Cu 0.5000 0.5000 -0.5000
Cu2E Cu 1.0000 0.5000 0.0000
Cu2_2 Cu 0.5000 0.5000 1.0000
Cu3E Cu 1.01404(9) 0.7500 0.31494(12)
O1E O 1.0261(8) 0.7500 0.5026(9)
N1E N 0.8963(4) 0.5380(2) 0.4232(5)
N1D N 0.3963(4) 0.4620(2) 0.5768(5)
N1A N 1.1037(4) 0.4620(2) 0.5768(5)
N2E N 0.8858(4) 0.5467(2) 0.0979(5)
N2D N 0.3858(4) 0.4533(2) -0.0979(5)
N2A N 1.1142(4) 0.4533(2) -0.0979(5)
N3E N 0.9195(4) 0.6958(2) 0.2982(6)
N3F N 0.5805(4) 0.8042(2) 0.2982(6)
N3C N 0.9195(4) 0.8042(2) 0.2982(6)
N4D N 0.2500 0.3416(4) 0.4547(9)
N5D N 0.2500 0.3240(5) 0.9721(11)
N6D N 0.6024(4) 0.4366(2) 0.5704(5)
N6E N 1.1024(4) 0.5634(2) 0.4296(5)
N6A N 0.8976(4) 0.4366(2) 0.5704(5)
N7D N 0.5862(4) 0.4460(2) -0.0582(5)
N7E N 1.0862(4) 0.5540(2) 0.0582(5)
N7A N 0.9138(4) 0.4460(2) -0.0582(5)
N8F N 0.3928(4) 0.8042(2) 0.2844(6)
N8E N 1.1072(4) 0.6958(2) 0.2844(6)
N8C N 1.1072(4) 0.8042(2) 0.2844(6)
N9D N 0.7500 0.3233(5) 1.0058(10)
N10D N 0.7500 0.5304(4) 0.7661(9)
N11D N 0.5224(4) 0.5427(2) 0.6462(5)
N11D_2 N 0.5224(4) 0.5427(2) -0.3538(5)
N11E N 1.0224(4) 0.4573(2) 0.3538(5)
N11A N 0.9776(4) 0.5427(2) 0.6462(5)
N12D N 0.5241(4) 0.5423(2) 0.8538(5)
N12D_2 N 0.5241(4) 0.5423(2) -0.1462(5)
N12E N 1.0241(4) 0.4577(2) 0.1462(5)
N12A N 0.9759(4) 0.5423(2) -0.1462(5)
C1E C 0.8429(4) 0.5609(2) 0.3740(6)
C1D C 0.3429(4) 0.4391(2) 0.6260(6)
C1A C 1.1571(4) 0.4391(2) 0.6260(6)
C1A_2 C 0.1571(4) 0.4391(2) 0.6260(6)
C2E C 0.8390(4) 0.5687(3) 0.1590(6)
C2D C 0.3390(4) 0.4313(3) -0.1590(6)
C2A C 1.1610(4) 0.4313(3) -0.1590(6)
C2D_2 C 0.3390(4) 0.4313(3) 0.8410(6)
C2A_2 C 0.1610(4) 0.4313(3) 0.8410(6)
C3E C 0.8616(5) 0.6655(2) 0.2896(7)
C3F C 0.6384(5) 0.8345(2) 0.2896(7)
C3C C 0.8616(5) 0.8345(2) 0.2896(7)
C3D C 0.3616(5) 0.3345(2) 0.7104(7)
C3A C 0.1384(5) 0.3345(2) 0.7104(7)
C4D C 0.2500 0.3588(4) 0.5471(11)
C5D C 0.2500 0.3468(5) 0.8853(11)
C6D C 0.6557(5) 0.4236(2) 0.6367(6)
C6E C 1.1557(5) 0.5764(2) 0.3633(6)
C6A C 0.8443(5) 0.4236(2) 0.6367(6)
C6E_2 C 0.1557(5) 0.5764(2) 0.3633(6)
C7D C 0.6421(5) 0.4275(2) -0.1164(6)
C7E C 1.1421(5) 0.5725(2) 0.1164(6)
C7A C 0.8579(5) 0.4275(2) -0.1164(6)
C7E_2 C 0.1421(5) 0.5725(2) 0.1164(6)
C7D_2 C 0.6421(5) 0.4275(2) 0.8836(6)
C7A_2 C 0.8579(5) 0.4275(2) 0.8836(6)
C8F C 0.3422(4) 0.8369(2) 0.2651(6)
C8E C 1.1578(4) 0.6631(2) 0.2651(6)
C8C C 1.1578(4) 0.8369(2) 0.2651(6)
C8E_2 C 0.1578(4) 0.6631(2) 0.2651(6)
C8D C 0.6578(4) 0.3369(2) 0.7349(6)
C8A C 0.8422(4) 0.3369(2) 0.7349(6)
C9D C 0.7500 0.3508(4) 0.9253(11)
C10D C 0.7500 0.4859(4) 0.7675(9)
C11D C 0.5139(4) 0.5199(2) 0.7502(6)
C11D_2 C 0.5139(4) 0.5199(2) -0.2498(6)
C11E C 1.0139(4) 0.4801(2) 0.2498(6)
C12D C 0.5465(6) 0.5940(3) 0.6477(8)
C12D_2 C 0.5465(6) 0.5940(3) -0.3523(8)
C12E C 1.0465(6) 0.4060(3) 0.3523(8)
C13D C 0.5606(8) 0.6196(3) 0.7504(8)
C13D_2 C 0.5606(8) 0.6196(3) -0.2496(8)
C13E C 1.0606(8) 0.3804(3) 0.2496(8)
C14D C 0.5477(7) 0.5927(3) 0.8519(8)
C14D_2 C 0.5477(7) 0.5927(3) -0.1481(8)
C14E C 1.0477(7) 0.4073(3) 0.1481(8)
H1D H 0.4992 0.4846 0.7501
H1D_2 H 0.4992 0.4846 -0.2499
H1E H 0.9992 0.5154 0.2499
H2D H 0.5535 0.6119 0.5781
H2D_2 H 0.5535 0.6119 -0.4219
H2E H 1.0535 0.3881 0.4219
H3D H 0.5785 0.6544 0.7512
H3D_2 H 0.5785 0.6544 -0.2488
H3E H 1.0785 0.3456 0.2488
H4D H 0.5556 0.6102 0.9219
H4D_2 H 0.5556 0.6102 -0.0781
H4E H 1.0556 0.3898 0.0781
loop_
_geom_bond_atom_site_label_1
_geom_bond_atom_site_label_2
_geom_bond_site_symmetry_1
_geom_bond_site_symmetry_2
W1 C1 1_555 1_555
W2 C6 1_555 1_555
Cu1 N1 1_555 1_555
Cu2 N2 1_555 1_555
Cu3 O1 1_555 1_555
N1 C1 1_555 1_555
N2 C2 1_555 1_555
N3 Cu3 1_555 1_555
N4 C4 1_555 1_555
N5 C5 1_555 1_555
N6 Cu1 1_555 1_555
N7 Cu2 1_555 1_555
N8 Cu3 1_555 1_555
N9 C9 1_555 1_555
N10 C10 1_555 1_555
N11 Cu1 1_555 1_555
N12 Cu2 1_555 1_555
C2 W1 1_555 1_555
C3 W1 1_555 1_555
C4 W1 1_555 1_555
C5 W1 1_555 1_555
C6 N6 1_555 1_555
C7 W2 1_555 1_555
C8 W2 1_555 1_555
C9 W2 1_555 1_555
C10 W2 1_555 1_555
C11 N11 1_555 1_555
C12 N11 1_555 1_555
C13 C12 1_555 1_555
C14 N12 1_555 1_555
H1 C11 1_555 1_555
H2 C12 1_555 1_555
H3 C13 1_555 1_555
H4 C14 1_555 1_555
W1D C1D 1_555 1_555
W1D_2 C2D 1_555 1_555
W1F C3F 1_555 1_555
W1D_3 C1A 1_555 1_555
W1D_4 C2A 1_555 1_555
W2D C6D 1_555 1_555
W2D_2 C7D 1_555 1_555
W2F C8F 1_555 1_555
W2_2 C6E 1_555 1_555
W2F_2 C8C 1_555 1_555
Cu1E N1E 1_555 1_555
Cu1_2 N11D_2 1_555 1_555
Cu2E N2E 1_555 1_555
Cu2_2 N12D 1_555 1_555
Cu3E O1E 1_555 1_555
N1E C1E 1_555 1_555
N1D Cu1 1_555 1_555
N1A Cu1E 1_555 1_555
N2E C2E 1_555 1_555
N2D Cu2 1_555 1_555
N2A Cu2E 1_555 1_555
N3E Cu3E 1_555 1_555
N3F Cu3 1_555 1_555
N3C Cu3E 1_555 1_555
N4D C4D 1_555 1_555
N5D C5D 1_555 1_555
N6D Cu1 1_555 1_555
N6E Cu1E 1_555 1_555
N6A Cu1E 1_555 1_555
N7D Cu2 1_555 1_555
N7E Cu2E 1_555 1_555
N7A Cu2E 1_555 1_555
N8F Cu3 1_555 1_555
N8E Cu3E 1_555 1_555
N8C Cu3E 1_555 1_555
N9D C9D 1_555 1_555
N10D C10D 1_555 1_555
N11D Cu1 1_555 1_555
N11D_2 C11D_2 1_555 1_555
N11E Cu1E 1_555 1_555
N11A Cu1E 1_555 1_555
N12D C11D 1_555 1_555
N12D_2 Cu2 1_555 1_555
N12E Cu2E 1_555 1_555
N12A Cu2E 1_555 1_555
C1E W1 1_555 1_555
C1D N1D 1_555 1_555
C1A N1A 1_555 1_555
C1A_2 W1D 1_555 1_555
C2E W1 1_555 1_555
C2D N2D 1_555 1_555
C2A N2A 1_555 1_555
C2D_2 W1D 1_555 1_555
C2A_2 W1D 1_555 1_555
C3E W1 1_555 1_555
C3F N3F 1_555 1_555
C3C W1F 1_555 1_555
C3D W1D 1_555 1_555
C3A W1D 1_555 1_555
C4D W1D 1_555 1_555
C5D W1D 1_555 1_555
C6D N6D 1_555 1_555
C6E N6E 1_555 1_555
C6A W2D 1_555 1_555
C6E_2 W2 1_555 1_555
C7D N7D 1_555 1_555
C7E W2_2 1_555 1_555
C7A W2D_2 1_555 1_555
C7E_2 W2 1_555 1_555
C7D_2 W2D 1_555 1_555
C7A_2 W2D 1_555 1_555
C8F N8F 1_555 1_555
C8E W2_2 1_555 1_555
C8C N8C 1_555 1_555
C8E_2 W2 1_555 1_555
C8D W2D 1_555 1_555
C8A W2D 1_555 1_555
C9D W2D 1_555 1_555
C10D W2D 1_555 1_555
C11D N11D 1_555 1_555
C11D_2 N12D_2 1_555 1_555
C11E N11E 1_555 1_555
C12D N11D 1_555 1_555
C12D_2 N11D_2 1_555 1_555
C12E N11E 1_555 1_555
C13D C12D 1_555 1_555
C13D_2 C12D_2 1_555 1_555
C13E C12E 1_555 1_555
C14D N12D 1_555 1_555
C14D_2 N12D_2 1_555 1_555
C14E N12E 1_555 1_555
H1D C11D 1_555 1_555
H1D_2 C11D_2 1_555 1_555
H1E C11E 1_555 1_555
H2D C12D 1_555 1_555
H2D_2 C12D_2 1_555 1_555
H2E C12E 1_555 1_555
H3D C13D 1_555 1_555
H3D_2 C13D_2 1_555 1_555
H3E C13E 1_555 1_555
H4D C14D 1_555 1_555
H4D_2 C14D_2 1_555 1_555
H4E C14E 1_555 1_555
N3 C3 1_555 1_555
N7 C7 1_555 1_555
N8 C8 1_555 1_555
N12 C11 1_555 1_555
C13 C14 1_555 1_555
N3E C3E 1_555 1_555
N3C C3C 1_555 1_555
N6A C6A 1_555 1_555
N7E C7E 1_555 1_555
N7A C7A 1_555 1_555
N8E C8E 1_555 1_555
N12E C11E 1_555 1_555
C13D C14D 1_555 1_555
C13D_2 C14D_2 1_555 1_555
C13E C14E 1_555 1_555

#END
