
#######################################################################
#
#                 Cambridge Crystallographic Data Centre
#                                CCDC 
#
#######################################################################
#
# If this CIF has been generated from an entry in the Cambridge 
# Structural Database, then it will include bibliographic, chemical, 
# crystal, experimental, refinement or atomic coordinate data resulting 
# from the CCDC's data processing and validation procedures.
#
#######################################################################

data_IYUQEZ
_chemical_formula_moiety         'C287 N166 Na63 O35'
_symmetry_cell_setting           cubic
_symmetry_space_group_name_H-M   'P m -3 n'
_symmetry_Int_Tables_number      223
_space_group_name_Hall           '-P 4n 2 3'
loop_
_symmetry_equiv_pos_site_id
_symmetry_equiv_pos_as_xyz
1 x,y,z
2 -x,-y,z
3 -x,y,-z
4 x,-y,-z
5 z,x,y
6 z,-x,-y
7 -z,-x,y
8 -z,x,-y
9 y,z,x
10 -y,z,-x
11 y,-z,-x
12 -y,-z,x
13 1/2+y,1/2+x,1/2-z
14 1/2-y,1/2-x,1/2-z
15 1/2+y,1/2-x,1/2+z
16 1/2-y,1/2+x,1/2+z
17 1/2+x,1/2+z,1/2-y
18 1/2-x,1/2+z,1/2+y
19 1/2-x,1/2-z,1/2-y
20 1/2+x,1/2-z,1/2+y
21 1/2+z,1/2+y,1/2-x
22 1/2+z,1/2-y,1/2+x
23 1/2-z,1/2+y,1/2+x
24 1/2-z,1/2-y,1/2-x
25 -x,-y,-z
26 x,y,-z
27 x,-y,z
28 -x,y,z
29 -z,-x,-y
30 -z,x,y
31 z,x,-y
32 z,-x,y
33 -y,-z,-x
34 y,-z,x
35 -y,z,x
36 y,z,-x
37 1/2-y,1/2-x,1/2+z
38 1/2+y,1/2+x,1/2+z
39 1/2-y,1/2+x,1/2-z
40 1/2+y,1/2-x,1/2-z
41 1/2-x,1/2-z,1/2+y
42 1/2+x,1/2-z,1/2-y
43 1/2+x,1/2+z,1/2+y
44 1/2-x,1/2+z,1/2-y
45 1/2-z,1/2-y,1/2+x
46 1/2-z,1/2+y,1/2-x
47 1/2+z,1/2-y,1/2-x
48 1/2+z,1/2+y,1/2+x
_cell_length_a                   31.251(8)
_cell_length_b                   31.251(8)
_cell_length_c                   31.251(8)
_cell_angle_alpha                90
_cell_angle_beta                 90
_cell_angle_gamma                90
_cell_volume                     30520.5
loop_
_atom_site_label
_atom_site_type_symbol
_atom_site_fract_x
_atom_site_fract_y
_atom_site_fract_z
Na1 Na 0.18562(5) -0.18562(5) 0.18562(5)
Na2 Na 0.30462(8) -0.12034(9) 0.0000
Na3 Na 0.5000(3) -0.2308 0.0000
N1 N 0.11368(18) -0.16533(18) 0.20168(15)
N2 N 0.07044(15) -0.05388(16) 0.27811(19)
N3 N -0.0000(2) -0.2345 0.1576(2)
N4 N 0.25883(17) -0.20208(17) 0.16993(16)
N5 N 0.33212(18) -0.16866(16) 0.05378(16)
N6 N 0.4484 -0.25000(17) 0.05165(17)
C1 C 0.07932(19) -0.15566(18) 0.2089(2)
C2 C 0.04906(17) -0.07857(18) 0.26181(19)
C3 C -0.0000 -0.2040(3) 0.1773(3)
C4 C 0.29089(19) -0.21629(18) 0.15960(17)
C5 C 0.3418(2) -0.19360(17) 0.07866(18)
C6 C 0.4224 -0.2500(2) 0.0776(2)
C7 C 0.03632(16) -0.14420(17) 0.21746(18)
C8 C 0.02235(16) -0.10901(16) 0.24126(19)
C9 C 0.0000 -0.1660(2) 0.2024(3)
C10 C 0.33075(18) -0.23419(16) 0.14717(16)
C11 C 0.35335(19) -0.22448(16) 0.11016(16)
C12 C 0.3901 -0.25000(15) 0.10992(15)
O1 O 0.3748(6) -0.0837 0.0000(6)
C13 C 0.3734(8) -0.0392 0.0000(13)
C14 C 0.3459 0.0000 0.0000(15)
C15 C 0.4163(12) -0.0999 0.0000(9)
C16 C 0.4389(12) -0.1423 0.0000(13)
O2 O 0.5000(13) -0.1528 0.0000
Na1L Na 0.31438(5) -0.31438(5) 0.31438(5)
Na1B Na 0.81438(5) -0.18562(5) -0.18562(5)
Na1O Na 0.68562(5) -0.31438(5) -0.31438(5)
Na1AA Na 0.81438(5) -0.18562(5) 0.18562(5)
Na1LA Na 0.68562(5) -0.31438(5) 0.31438(5)
Na1Y Na 0.18562(5) -0.18562(5) -0.18562(5)
Na1KA Na 0.31438(5) -0.31438(5) -0.31438(5)
Na1AA_2 Na -0.18562(5) -0.18562(5) 0.18562(5)
Na1Z Na 0.18562(5) 0.18562(5) 0.18562(5)
Na1C Na 0.18562(5) 0.18562(5) -0.18562(5)
Na1KA_2 Na 0.31438(5) -0.31438(5) 0.68562(5)
Na1MA Na 0.31438(5) -0.68562(5) 0.31438(5)
Na1Y_2 Na 1.18562(5) -0.18562(5) -0.18562(5)
Na1X Na 0.81438(5) 0.18562(5) -0.18562(5)
Na1LA_2 Na 0.68562(5) -0.31438(5) -0.68562(5)
Na2W Na 0.5000 -0.37966(9) 0.19538(8)
Na2B Na 0.69538(8) -0.12034(9) 0.0000
Na2U Na 0.5000 -0.37966(9) -0.19538(8)
Na2K Na 0.12034(9) 0.0000 0.30462(8)
Na2H Na -0.12034(9) 0.0000 0.30462(8)
Na2E Na -0.0000 -0.30462(8) 0.12034(9)
Na2F Na -0.0000 -0.30462(8) -0.12034(9)
Na2C Na 0.30462(8) 0.12034(9) 0.0000
Na2Q Na 0.19538(8) -0.5000 0.37966(9)
Na2R Na 0.19538(8) -0.5000 0.62034(9)
Na2L Na 0.37966(9) -0.19538(8) 0.5000
Na2I Na 0.12034(9) -0.0000 -0.30462(8)
Na2O Na 0.62034(9) -0.19538(8) 0.5000
Na2T Na 0.5000 -0.62034(9) 0.19538(8)
Na2J Na 0.87966(9) -0.0000 -0.30462(8)
Na2F_2 Na 1.0000 -0.30462(8) -0.12034(9)
Na2I_2 Na 1.12034(9) -0.0000 -0.30462(8)
Na2E_2 Na 1.0000 -0.30462(8) 0.12034(9)
Na2A Na 0.69538(8) 0.12034(9) 0.0000
Na2O_2 Na 0.62034(9) -0.19538(8) -0.5000
Na2P Na 0.80462(8) -0.5000 -0.37966(9)
Na2S Na 0.80462(8) -0.5000 -0.62034(9)
Na2L_2 Na 0.37966(9) -0.19538(8) -0.5000
Na2H_2 Na 0.87966(9) 0.0000 0.30462(8)
Na2S_2 Na 0.80462(8) -0.5000 0.37966(9)
Na2R_2 Na 0.19538(8) -0.5000 -0.37966(9)
Na2V Na 0.5000 -0.62034(9) -0.19538(8)
Na3U Na 0.5000 -0.2692 0.0000(3)
Na3I Na 0.2308 0.0000 0.5000(3)
Na3E Na 0.0000 -0.5000(3) 0.2308
Na3H Na 0.7692 0.0000 -0.5000(3)
Na3D Na 1.0000 -0.5000(3) -0.2308
Na3L Na 0.2692 0.0000(3) 0.5000
Na3Q Na 0.0000(3) -0.5000 0.2692
Na3M Na 0.7308 0.0000(3) -0.5000
Na3P Na 1.0000(3) -0.5000 -0.2692
Na3H_2 Na 0.7692 0.0000 0.5000(3)
Na3M_2 Na 0.7308 0.0000(3) 0.5000
Na3E_2 Na 1.0000 -0.5000(3) 0.2308
Na3Q_2 Na 1.0000(3) -0.5000 0.2692
Na3I_2 Na 0.2308 0.0000 -0.5000(3)
Na3L_2 Na 0.2692 0.0000(3) -0.5000
Na3D_2 Na 0.0000 -0.5000(3) -0.2308
Na3P_2 Na 0.0000(3) -0.5000 -0.2692
N1AA N -0.11368(18) -0.16533(18) 0.20168(15)
N1K N 0.16533(18) -0.20168(15) 0.11368(18)
N1FA N 0.16533(18) -0.20168(15) -0.11368(18)
N1E N 0.20168(15) -0.11368(18) 0.16533(18)
N1DA N 0.20168(15) 0.11368(18) 0.16533(18)
N1EA N 0.20168(15) -0.11368(18) -0.16533(18)
N1D N 0.20168(15) 0.11368(18) -0.16533(18)
N1W N 0.29832(15) -0.33467(18) 0.38632(18)
N1RA N 0.29832(15) -0.33467(18) 0.61368(18)
N1Q N 0.38632(18) -0.29832(15) 0.33467(18)
N1PA N 0.61368(18) -0.29832(15) 0.33467(18)
N1L N 0.33467(18) -0.38632(18) 0.29832(15)
N1MA N 0.33467(18) -0.61368(18) 0.29832(15)
N1B N 0.88632(18) -0.16533(18) -0.20168(15)
N1Y N 1.11368(18) -0.16533(18) -0.20168(15)
N1J N 0.83467(18) -0.20168(15) -0.11368(18)
N1GA N 0.83467(18) -0.20168(15) 0.11368(18)
N1F N 0.79832(15) -0.11368(18) -0.16533(18)
N1CA N 0.79832(15) 0.11368(18) -0.16533(18)
N1U N 0.70168(15) -0.33467(18) -0.38632(18)
N1TA N 0.70168(15) -0.33467(18) -0.61368(18)
N1P N 0.61368(18) -0.29832(15) -0.33467(18)
N1QA N 0.38632(18) -0.29832(15) -0.33467(18)
N1O N 0.66533(18) -0.38632(18) -0.29832(15)
N1AA_2 N 0.88632(18) -0.16533(18) 0.20168(15)
N1BA N 0.79832(15) -0.11368(18) 0.16533(18)
N1TA_2 N 0.70168(15) -0.33467(18) 0.38632(18)
N1LA N 0.66533(18) -0.38632(18) 0.29832(15)
N1Y_2 N 0.11368(18) -0.16533(18) -0.20168(15)
N1RA_2 N 0.29832(15) -0.33467(18) -0.38632(18)
N1KA N 0.33467(18) -0.38632(18) -0.29832(15)
N2AA N -0.07044(15) -0.05388(16) 0.27811(19)
N2K N 0.05388(16) -0.27811(19) 0.07044(15)
N2FA N 0.05388(16) -0.27811(19) -0.07044(15)
N2E N 0.27811(19) -0.07044(15) 0.05388(16)
N2DA N 0.27811(19) 0.07044(15) 0.05388(16)
N2EA N 0.27811(19) -0.07044(15) -0.05388(16)
N2D N 0.27811(19) 0.07044(15) -0.05388(16)
N2W N 0.22189(19) -0.44612(16) 0.42956(15)
N2RA N 0.22189(19) -0.44612(16) 0.57044(15)
N2Q N 0.42956(15) -0.22189(19) 0.44612(16)
N2PA N 0.57044(15) -0.22189(19) 0.44612(16)
N2L N 0.44612(16) -0.42956(15) 0.22189(19)
N2MA N 0.44612(16) -0.57044(15) 0.22189(19)
N2B N 0.92956(15) -0.05388(16) -0.27811(19)
N2Y N 1.07044(15) -0.05388(16) -0.27811(19)
N2J N 0.94612(16) -0.27811(19) -0.07044(15)
N2GA N 0.94612(16) -0.27811(19) 0.07044(15)
N2F N 0.72189(19) -0.07044(15) -0.05388(16)
N2CA N 0.72189(19) 0.07044(15) -0.05388(16)
N2U N 0.77811(19) -0.44612(16) -0.42956(15)
N2TA N 0.77811(19) -0.44612(16) -0.57044(15)
N2P N 0.57044(15) -0.22189(19) -0.44612(16)
N2QA N 0.42956(15) -0.22189(19) -0.44612(16)
N2LA N 0.55388(16) -0.42956(15) 0.22189(19)
N2BA N 0.72189(19) -0.07044(15) 0.05388(16)
N2O N 0.55388(16) -0.42956(15) -0.22189(19)
N2KA N 0.44612(16) -0.42956(15) -0.22189(19)
N2Z N 0.07044(15) 0.05388(16) 0.27811(19)
N2A N -0.07044(15) 0.05388(16) 0.27811(19)
N2GA_2 N -0.05388(16) -0.27811(19) 0.07044(15)
N2J_2 N -0.05388(16) -0.27811(19) -0.07044(15)
N2SA N 0.22189(19) -0.55388(16) 0.42956(15)
N2V N 0.22189(19) -0.55388(16) 0.57044(15)
N2QA_2 N 0.42956(15) -0.22189(19) 0.55388(16)
N3K N 0.2345 -0.1576(2) 0.0000(2)
N3E N 0.1576(2) 0.0000(2) 0.2345
N3D N 0.1576(2) -0.0000(2) -0.2345
N3W N 0.3424(2) -0.2655 0.5000(2)
N3Q N 0.5000(2) -0.3424(2) 0.2655
N3L N 0.2655 -0.5000(2) 0.3424(2)
N3B N 1.0000(2) -0.2345 -0.1576(2)
N3J N 0.7655 -0.1576(2) 0.0000(2)
N3F N 0.8424(2) -0.0000(2) -0.2345
N3U N 0.6576(2) -0.2655 -0.5000(2)
N3P N 0.5000(2) -0.3424(2) -0.2655
N3G N -0.1576(2) 0.0000(2) 0.2345
N3B_2 N -0.0000(2) -0.2345 -0.1576(2)
N3I N 0.2345 0.1576(2) 0.0000(2)
N3N N 0.2655 -0.5000(2) 0.6576(2)
N4W N 0.33007(16) -0.29792(17) 0.24117(17)
N4B N 0.74117(17) -0.20208(17) -0.16993(16)
N4U N 0.66993(16) -0.29792(17) -0.24117(17)
N4AA N 0.74117(17) -0.20208(17) 0.16993(16)
N4TA N 0.66993(16) -0.29792(17) 0.24117(17)
N4Y N 0.25883(17) -0.20208(17) -0.16993(16)
N4RA N 0.33007(16) -0.29792(17) -0.24117(17)
N4K N 0.20208(17) -0.16993(16) 0.25883(17)
N4L N 0.29792(17) -0.24117(17) 0.33007(16)
N4E N 0.16993(16) -0.25883(17) 0.20208(17)
N4Q N 0.24117(17) -0.33007(16) 0.29792(17)
N4J N 0.79792(17) -0.16993(16) -0.25883(17)
N4O N 0.70208(17) -0.24117(17) -0.33007(16)
N4F N 0.83007(16) -0.25883(17) -0.20208(17)
N4P N 0.75883(17) -0.33007(16) -0.29792(17)
N4GA N 0.79792(17) -0.16993(16) 0.25883(17)
N4LA N 0.70208(17) -0.24117(17) 0.33007(16)
N4BA N 0.83007(16) -0.25883(17) 0.20208(17)
N4PA N 0.75883(17) -0.33007(16) 0.29792(17)
N4FA N 0.20208(17) -0.16993(16) -0.25883(17)
N4KA N 0.29792(17) -0.24117(17) -0.33007(16)
N4EA N 0.16993(16) -0.25883(17) -0.20208(17)
N4QA N 0.24117(17) -0.33007(16) -0.29792(17)
N5W N 0.44622(16) -0.33134(16) 0.16788(18)
N5B N 0.66788(18) -0.16866(16) -0.05378(16)
N5U N 0.55378(16) -0.33134(16) -0.16788(18)
N5AA N 0.66788(18) -0.16866(16) 0.05378(16)
N5TA N 0.55378(16) -0.33134(16) 0.16788(18)
N5Y N 0.33212(18) -0.16866(16) -0.05378(16)
N5RA N 0.44622(16) -0.33134(16) -0.16788(18)
N5K N 0.16866(16) -0.05378(16) 0.33212(18)
N5L N 0.33134(16) -0.16788(18) 0.44622(16)
N5E N 0.05378(16) -0.33212(18) 0.16866(16)
N5Q N 0.16788(18) -0.44622(16) 0.33134(16)
N5J N 0.83134(16) -0.05378(16) -0.33212(18)
N5O N 0.66866(16) -0.16788(18) -0.44622(16)
N5F N 0.94622(16) -0.33212(18) -0.16866(16)
N5P N 0.83212(18) -0.44622(16) -0.33134(16)
N5GA N 0.83134(16) -0.05378(16) 0.33212(18)
N5LA N 0.66866(16) -0.16788(18) 0.44622(16)
N5BA N 0.94622(16) -0.33212(18) 0.16866(16)
N5PA N 0.83212(18) -0.44622(16) 0.33134(16)
N5FA N 0.16866(16) -0.05378(16) -0.33212(18)
N5KA N 0.33134(16) -0.16788(18) -0.44622(16)
N5EA N 0.05378(16) -0.33212(18) -0.16866(16)
N5QA N 0.16788(18) -0.44622(16) -0.33134(16)
N5HA N 0.16866(16) 0.05378(16) 0.33212(18)
N5GA_2 N -0.16866(16) -0.05378(16) 0.33212(18)
N5H N -0.16866(16) 0.05378(16) 0.33212(18)
N5BA_2 N -0.05378(16) -0.33212(18) 0.16866(16)
N5F_2 N -0.05378(16) -0.33212(18) -0.16866(16)
N5Z N 0.33212(18) 0.16866(16) 0.05378(16)
N5C N 0.33212(18) 0.16866(16) -0.05378(16)
N5NA N 0.16788(18) -0.55378(16) 0.33134(16)
N5QA_2 N 0.16788(18) -0.44622(16) 0.66866(16)
N5R N 0.16788(18) -0.55378(16) 0.66866(16)
N5KA_2 N 0.33134(16) -0.16788(18) 0.55378(16)
N6B N 0.5516 -0.25000(17) -0.05165(17)
N6AA N 0.5516 -0.25000(17) 0.05165(17)
N6Y N 0.4484 -0.25000(17) -0.05165(17)
N6K N 0.25000(17) -0.05165(17) 0.4484
N6E N 0.05165(17) -0.4484 0.25000(17)
N6J N 0.75000(17) -0.05165(17) -0.4484
N6F N 0.94835(17) -0.4484 -0.25000(17)
N6GA N 0.75000(17) -0.05165(17) 0.4484
N6BA N 0.94835(17) -0.4484 0.25000(17)
N6FA N 0.25000(17) -0.05165(17) -0.4484
N6EA N 0.05165(17) -0.4484 -0.25000(17)
N6I N 0.25000(17) 0.05165(17) 0.5516
N6FA_2 N 0.25000(17) -0.05165(17) 0.5516
N6HA N 0.25000(17) 0.05165(17) 0.4484
N6G N -0.05165(17) -0.5516 0.25000(17)
N6DA N 0.05165(17) -0.5516 0.25000(17)
N6BA_2 N -0.05165(17) -0.4484 0.25000(17)
N6H N 0.75000(17) 0.05165(17) -0.5516
N6GA_2 N 0.75000(17) -0.05165(17) -0.5516
N6IA N 0.75000(17) 0.05165(17) -0.4484
N6D N 1.05165(17) -0.5516 -0.25000(17)
N6CA N 0.94835(17) -0.5516 -0.25000(17)
N6EA_2 N 1.05165(17) -0.4484 -0.25000(17)
C1AA C -0.07932(19) -0.15566(18) 0.2089(2)
C1K C 0.15566(18) -0.2089(2) 0.07932(19)
C1FA C 0.15566(18) -0.2089(2) -0.07932(19)
C1E C 0.2089(2) -0.07932(19) 0.15566(18)
C1DA C 0.2089(2) 0.07932(19) 0.15566(18)
C1EA C 0.2089(2) -0.07932(19) -0.15566(18)
C1D C 0.2089(2) 0.07932(19) -0.15566(18)
C1W C 0.2911(2) -0.34434(18) 0.42068(19)
C1RA C 0.2911(2) -0.34434(18) 0.57932(19)
C1Q C 0.42068(19) -0.2911(2) 0.34434(18)
C1PA C 0.57932(19) -0.2911(2) 0.34434(18)
C1L C 0.34434(18) -0.42068(19) 0.2911(2)
C1MA C 0.34434(18) -0.57932(19) 0.2911(2)
C1B C 0.92068(19) -0.15566(18) -0.2089(2)
C1Y C 1.07932(19) -0.15566(18) -0.2089(2)
C1J C 0.84434(18) -0.2089(2) -0.07932(19)
C1GA C 0.84434(18) -0.2089(2) 0.07932(19)
C1F C 0.7911(2) -0.07932(19) -0.15566(18)
C1CA C 0.7911(2) 0.07932(19) -0.15566(18)
C1U C 0.7089(2) -0.34434(18) -0.42068(19)
C1TA C 0.7089(2) -0.34434(18) -0.57932(19)
C1P C 0.57932(19) -0.2911(2) -0.34434(18)
C1QA C 0.42068(19) -0.2911(2) -0.34434(18)
C2AA C -0.04906(17) -0.07857(18) 0.26181(19)
C2K C 0.07857(18) -0.26181(19) 0.04906(17)
C2FA C 0.07857(18) -0.26181(19) -0.04906(17)
C2E C 0.26181(19) -0.04906(17) 0.07857(18)
C2DA C 0.26181(19) 0.04906(17) 0.07857(18)
C2EA C 0.26181(19) -0.04906(17) -0.07857(18)
C2D C 0.26181(19) 0.04906(17) -0.07857(18)
C2W C 0.23819(19) -0.42143(18) 0.45094(17)
C2RA C 0.23819(19) -0.42143(18) 0.54906(17)
C2Q C 0.45094(17) -0.23819(19) 0.42143(18)
C2PA C 0.54906(17) -0.23819(19) 0.42143(18)
C2L C 0.42143(18) -0.45094(17) 0.23819(19)
C2MA C 0.42143(18) -0.54906(17) 0.23819(19)
C2B C 0.95094(17) -0.07857(18) -0.26181(19)
C2Y C 1.04906(17) -0.07857(18) -0.26181(19)
C2J C 0.92143(18) -0.26181(19) -0.04906(17)
C2GA C 0.92143(18) -0.26181(19) 0.04906(17)
C2F C 0.73819(19) -0.04906(17) -0.07857(18)
C2CA C 0.73819(19) 0.04906(17) -0.07857(18)
C2U C 0.76181(19) -0.42143(18) -0.45094(17)
C2TA C 0.76181(19) -0.42143(18) -0.54906(17)
C2P C 0.54906(17) -0.23819(19) -0.42143(18)
C2QA C 0.45094(17) -0.23819(19) -0.42143(18)
C3K C 0.2040(3) -0.1773(3) 0.0000
C3E C 0.1773(3) 0.0000 0.2040(3)
C3D C 0.1773(3) -0.0000 -0.2040(3)
C3W C 0.3227(3) -0.2960(3) 0.5000
C3Q C 0.5000 -0.3227(3) 0.2960(3)
C3L C 0.2960(3) -0.5000 0.3227(3)
C3B C 1.0000 -0.2040(3) -0.1773(3)
C3J C 0.7960(3) -0.1773(3) 0.0000
C3F C 0.8227(3) -0.0000 -0.2040(3)
C3U C 0.6773(3) -0.2960(3) -0.5000
C3P C 0.5000 -0.3227(3) -0.2960(3)
C4W C 0.34040(17) -0.28371(18) 0.20911(19)
C4B C 0.70911(19) -0.21629(18) -0.15960(17)
C4U C 0.65960(17) -0.28371(18) -0.20911(19)
C4AA C 0.70911(19) -0.21629(18) 0.15960(17)
C4TA C 0.65960(17) -0.28371(18) 0.20911(19)
C4Y C 0.29089(19) -0.21629(18) -0.15960(17)
C4RA C 0.34040(17) -0.28371(18) -0.20911(19)
C4K C 0.21629(18) -0.15960(17) 0.29089(19)
C4L C 0.28371(18) -0.20911(19) 0.34040(17)
C4E C 0.15960(17) -0.29089(19) 0.21629(18)
C4Q C 0.20911(19) -0.34040(17) 0.28371(18)
C4J C 0.78371(18) -0.15960(17) -0.29089(19)
C4O C 0.71629(18) -0.20911(19) -0.34040(17)
C4F C 0.84040(17) -0.29089(19) -0.21629(18)
C4P C 0.79089(19) -0.34040(17) -0.28371(18)
C4GA C 0.78371(18) -0.15960(17) 0.29089(19)
C4LA C 0.71629(18) -0.20911(19) 0.34040(17)
C4BA C 0.84040(17) -0.29089(19) 0.21629(18)
C4PA C 0.79089(19) -0.34040(17) 0.28371(18)
C4FA C 0.21629(18) -0.15960(17) -0.29089(19)
C4KA C 0.28371(18) -0.20911(19) -0.34040(17)
C4EA C 0.15960(17) -0.29089(19) -0.21629(18)
C4QA C 0.20911(19) -0.34040(17) -0.28371(18)
C5W C 0.42134(18) -0.30640(17) 0.1582(2)
C5B C 0.6582(2) -0.19360(17) -0.07866(18)
C5U C 0.57866(18) -0.30640(17) -0.1582(2)
C5AA C 0.6582(2) -0.19360(17) 0.07866(18)
C5TA C 0.57866(18) -0.30640(17) 0.1582(2)
C5Y C 0.3418(2) -0.19360(17) -0.07866(18)
C5RA C 0.42134(18) -0.30640(17) -0.1582(2)
C5K C 0.19360(17) -0.07866(18) 0.3418(2)
C5L C 0.30640(17) -0.1582(2) 0.42134(18)
C5E C 0.07866(18) -0.3418(2) 0.19360(17)
C5Q C 0.1582(2) -0.42134(18) 0.30640(17)
C5J C 0.80640(17) -0.07866(18) -0.3418(2)
C5O C 0.69360(17) -0.1582(2) -0.42134(18)
C5F C 0.92134(18) -0.3418(2) -0.19360(17)
C5P C 0.8418(2) -0.42134(18) -0.30640(17)
C5GA C 0.80640(17) -0.07866(18) 0.3418(2)
C5LA C 0.69360(17) -0.1582(2) 0.42134(18)
C5BA C 0.92134(18) -0.3418(2) 0.19360(17)
C5PA C 0.8418(2) -0.42134(18) 0.30640(17)
C5FA C 0.19360(17) -0.07866(18) -0.3418(2)
C5KA C 0.30640(17) -0.1582(2) -0.42134(18)
C5EA C 0.07866(18) -0.3418(2) -0.19360(17)
C5QA C 0.1582(2) -0.42134(18) -0.30640(17)
C6B C 0.5776 -0.2500(2) -0.0776(2)
C6AA C 0.5776 -0.2500(2) 0.0776(2)
C6Y C 0.4224 -0.2500(2) -0.0776(2)
C6K C 0.2500(2) -0.0776(2) 0.4224
C6E C 0.0776(2) -0.4224 0.2500(2)
C6J C 0.7500(2) -0.0776(2) -0.4224
C6F C 0.9224(2) -0.4224 -0.2500(2)
C6GA C 0.7500(2) -0.0776(2) 0.4224
C6BA C 0.9224(2) -0.4224 0.2500(2)
C6FA C 0.2500(2) -0.0776(2) -0.4224
C6EA C 0.0776(2) -0.4224 -0.2500(2)
C7AA C -0.03632(16) -0.14420(17) 0.21746(18)
C7K C 0.14420(17) -0.21746(18) 0.03632(16)
C7FA C 0.14420(17) -0.21746(18) -0.03632(16)
C7E C 0.21746(18) -0.03632(16) 0.14420(17)
C7DA C 0.21746(18) 0.03632(16) 0.14420(17)
C7EA C 0.21746(18) -0.03632(16) -0.14420(17)
C7D C 0.21746(18) 0.03632(16) -0.14420(17)
C7W C 0.28254(18) -0.35580(17) 0.46368(16)
C7RA C 0.28254(18) -0.35580(17) 0.53632(16)
C7Q C 0.46368(16) -0.28254(18) 0.35580(17)
C7PA C 0.53632(16) -0.28254(18) 0.35580(17)
C7L C 0.35580(17) -0.46368(16) 0.28254(18)
C7MA C 0.35580(17) -0.53632(16) 0.28254(18)
C7B C 0.96368(16) -0.14420(17) -0.21746(18)
C7Y C 1.03632(16) -0.14420(17) -0.21746(18)
C7J C 0.85580(17) -0.21746(18) -0.03632(16)
C7GA C 0.85580(17) -0.21746(18) 0.03632(16)
C7F C 0.78254(18) -0.03632(16) -0.14420(17)
C7CA C 0.78254(18) 0.03632(16) -0.14420(17)
C7U C 0.71746(18) -0.35580(17) -0.46368(16)
C7TA C 0.71746(18) -0.35580(17) -0.53632(16)
C7P C 0.53632(16) -0.28254(18) -0.35580(17)
C7QA C 0.46368(16) -0.28254(18) -0.35580(17)
C8AA C -0.02235(16) -0.10901(16) 0.24126(19)
C8K C 0.10901(16) -0.24126(19) 0.02235(16)
C8FA C 0.10901(16) -0.24126(19) -0.02235(16)
C8E C 0.24126(19) -0.02235(16) 0.10901(16)
C8DA C 0.24126(19) 0.02235(16) 0.10901(16)
C8EA C 0.24126(19) -0.02235(16) -0.10901(16)
C8D C 0.24126(19) 0.02235(16) -0.10901(16)
C8W C 0.25874(19) -0.39099(16) 0.47765(16)
C8RA C 0.25874(19) -0.39099(16) 0.52235(16)
C8Q C 0.47765(16) -0.25874(19) 0.39099(16)
C8PA C 0.52235(16) -0.25874(19) 0.39099(16)
C8L C 0.39099(16) -0.47765(16) 0.25874(19)
C8MA C 0.39099(16) -0.52235(16) 0.25874(19)
C8B C 0.97765(16) -0.10901(16) -0.24126(19)
C8Y C 1.02235(16) -0.10901(16) -0.24126(19)
C8J C 0.89099(16) -0.24126(19) -0.02235(16)
C8GA C 0.89099(16) -0.24126(19) 0.02235(16)
C8F C 0.75874(19) -0.02235(16) -0.10901(16)
C8CA C 0.75874(19) 0.02235(16) -0.10901(16)
C8U C 0.74126(19) -0.39099(16) -0.47765(16)
C8TA C 0.74126(19) -0.39099(16) -0.52235(16)
C8P C 0.52235(16) -0.25874(19) -0.39099(16)
C8QA C 0.47765(16) -0.25874(19) -0.39099(16)
C9K C 0.1660(2) -0.2024(3) 0.0000
C9E C 0.2024(3) 0.0000 0.1660(2)
C9D C 0.2024(3) -0.0000 -0.1660(2)
C9W C 0.2976(3) -0.3340(2) 0.5000
C9Q C 0.5000 -0.2976(3) 0.3340(2)
C9L C 0.3340(2) -0.5000 0.2976(3)
C9B C 1.0000 -0.1660(2) -0.2024(3)
C9J C 0.8340(2) -0.2024(3) 0.0000
C9F C 0.7976(3) -0.0000 -0.1660(2)
C9U C 0.7024(3) -0.3340(2) -0.5000
C9P C 0.5000 -0.2976(3) -0.3340(2)
C10W C 0.35283(16) -0.26581(16) 0.16925(18)
C10B C 0.66925(18) -0.23419(16) -0.14717(16)
C10U C 0.64717(16) -0.26581(16) -0.16925(18)
C10AA C 0.66925(18) -0.23419(16) 0.14717(16)
C10TA C 0.64717(16) -0.26581(16) 0.16925(18)
C10Y C 0.33075(18) -0.23419(16) -0.14717(16)
C10RA C 0.35283(16) -0.26581(16) -0.16925(18)
C10K C 0.23419(16) -0.14717(16) 0.33075(18)
C10L C 0.26581(16) -0.16925(18) 0.35283(16)
C10E C 0.14717(16) -0.33075(18) 0.23419(16)
C10Q C 0.16925(18) -0.35283(16) 0.26581(16)
C10J C 0.76581(16) -0.14717(16) -0.33075(18)
C10O C 0.73419(16) -0.16925(18) -0.35283(16)
C10F C 0.85283(16) -0.33075(18) -0.23419(16)
C10P C 0.83075(18) -0.35283(16) -0.26581(16)
C10GA C 0.76581(16) -0.14717(16) 0.33075(18)
C10LA C 0.73419(16) -0.16925(18) 0.35283(16)
C10BA C 0.85283(16) -0.33075(18) 0.23419(16)
C10PA C 0.83075(18) -0.35283(16) 0.26581(16)
C10FA C 0.23419(16) -0.14717(16) -0.33075(18)
C10KA C 0.26581(16) -0.16925(18) -0.35283(16)
C10EA C 0.14717(16) -0.33075(18) -0.23419(16)
C10QA C 0.16925(18) -0.35283(16) -0.26581(16)
C11W C 0.38984(16) -0.27552(16) 0.14665(19)
C11B C 0.64665(19) -0.22448(16) -0.11016(16)
C11U C 0.61016(16) -0.27552(16) -0.14665(19)
C11AA C 0.64665(19) -0.22448(16) 0.11016(16)
C11TA C 0.61016(16) -0.27552(16) 0.14665(19)
C11Y C 0.35335(19) -0.22448(16) -0.11016(16)
C11RA C 0.38984(16) -0.27552(16) -0.14665(19)
C11K C 0.22448(16) -0.11016(16) 0.35335(19)
C11L C 0.27552(16) -0.14665(19) 0.38984(16)
C11E C 0.11016(16) -0.35335(19) 0.22448(16)
C11Q C 0.14665(19) -0.38984(16) 0.27552(16)
C11J C 0.77552(16) -0.11016(16) -0.35335(19)
C11O C 0.72448(16) -0.14665(19) -0.38984(16)
C11F C 0.88984(16) -0.35335(19) -0.22448(16)
C11P C 0.85335(19) -0.38984(16) -0.27552(16)
C11GA C 0.77552(16) -0.11016(16) 0.35335(19)
C11LA C 0.72448(16) -0.14665(19) 0.38984(16)
C11BA C 0.88984(16) -0.35335(19) 0.22448(16)
C11PA C 0.85335(19) -0.38984(16) 0.27552(16)
C11FA C 0.22448(16) -0.11016(16) -0.35335(19)
C11KA C 0.27552(16) -0.14665(19) -0.38984(16)
C11EA C 0.11016(16) -0.35335(19) -0.22448(16)
C11QA C 0.14665(19) -0.38984(16) -0.27552(16)
C12B C 0.6099 -0.25000(15) -0.10992(15)
C12AA C 0.6099 -0.25000(15) 0.10992(15)
C12Y C 0.3901 -0.25000(15) -0.10992(15)
C12K C 0.25000(15) -0.10992(15) 0.3901
C12E C 0.10992(15) -0.3901 0.25000(15)
C12J C 0.75000(15) -0.10992(15) -0.3901
C12F C 0.89008(15) -0.3901 -0.25000(15)
C12GA C 0.75000(15) -0.10992(15) 0.3901
C12BA C 0.89008(15) -0.3901 0.25000(15)
C12FA C 0.25000(15) -0.10992(15) -0.3901
C12EA C 0.10992(15) -0.3901 -0.25000(15)
O1C O 0.3748(6) 0.0837 0.0000(6)
O1W O 0.5000(6) -0.4163 0.1252(6)
O1T O 0.5000(6) -0.5837 0.1252(6)
O1B O 0.6252(6) -0.0837 0.0000(6)
O1A O 0.6252(6) 0.0837 0.0000(6)
O1U O 0.5000(6) -0.4163 -0.1252(6)
O1V O 0.5000(6) -0.5837 -0.1252(6)
O1K O 0.0837 0.0000(6) 0.3748(6)
O1H O -0.0837 0.0000(6) 0.3748(6)
O1E O 0.0000(6) -0.3748(6) 0.0837
O1F O 0.0000(6) -0.3748(6) -0.0837
O1Q O 0.1252(6) -0.5000(6) 0.4163
O1R O 0.1252(6) -0.5000(6) 0.5837
O1L O 0.4163 -0.1252(6) 0.5000(6)
C13C C 0.3734(8) 0.0392 0.0000(13)
C13W C 0.5000(13) -0.4608 0.1266(8)
C13T C 0.5000(13) -0.5392 0.1266(8)
C13B C 0.6266(8) -0.0392 0.0000(13)
C13A C 0.6266(8) 0.0392 0.0000(13)
C13U C 0.5000(13) -0.4608 -0.1266(8)
C13V C 0.5000(13) -0.5392 -0.1266(8)
C13K C 0.0392 0.0000(13) 0.3734(8)
C13H C -0.0392 0.0000(13) 0.3734(8)
C13E C -0.0000(13) -0.3734(8) 0.0392
C13F C -0.0000(13) -0.3734(8) -0.0392
C14T C 0.5000(15) -0.5000 0.1541
C14A C 0.6541 0.0000 0.0000(15)
C14U C 0.5000(15) -0.5000 -0.1541
C14H C 0.0000 0.0000(15) 0.3459
C14E C 0.0000(15) -0.3459 0.0000
C15C C 0.4163(12) 0.0999 0.0000(9)
C15W C 0.5000(9) -0.4001 0.0837(12)
C15T C 0.5000(9) -0.5999 0.0837(12)
C15B C 0.5837(12) -0.0999 0.0000(9)
C15A C 0.5837(12) 0.0999 0.0000(9)
C15U C 0.5000(9) -0.4001 -0.0837(12)
C15V C 0.5000(9) -0.5999 -0.0837(12)
C15K C 0.0999 0.0000(9) 0.4163(12)
C15H C -0.0999 0.0000(9) 0.4163(12)
C15E C -0.0000(9) -0.4163(12) 0.0999
C15F C -0.0000(9) -0.4163(12) -0.0999
C16C C 0.4389(12) 0.1423 0.0000(13)
C16W C 0.5000(13) -0.3577 0.0611(12)
C16T C 0.5000(13) -0.6423 0.0611(12)
C16B C 0.5611(12) -0.1423 0.0000(13)
C16A C 0.5611(12) 0.1423 0.0000(13)
C16U C 0.5000(13) -0.3577 -0.0611(12)
C16V C 0.5000(13) -0.6423 -0.0611(12)
C16K C 0.1423 0.0000(13) 0.4389(12)
C16H C -0.1423 0.0000(13) 0.4389(12)
C16E C 0.0000(13) -0.4389(12) 0.1423
C16F C -0.0000(13) -0.4389(12) -0.1423
O2U O 0.5000 -0.3472 0.0000(13)
O2I O 0.1528 0.0000 0.5000(13)
O2E O 0.0000 -0.5000(13) 0.1528
O2H O 0.8472 0.0000 -0.5000(13)
O2D O 1.0000 -0.5000(13) -0.1528
Na4 Na 0.0000 0.0000 0.0000
O3 O 0.0000 -0.0422(13) -0.0609(13)
O3A O 0.0000 0.0422(13) -0.0609(13)
O3B O 0.0000 -0.0422(13) 0.0609(13)
O3C O -0.0000 0.0422(13) 0.0609(13)
O3D O -0.0609(13) 0.0000 -0.0422(13)
O3E O -0.0609(13) 0.0000 0.0422(13)
O3F O 0.0609(13) 0.0000 -0.0422(13)
O3G O 0.0609(13) 0.0000 0.0422(13)
O3H O -0.0422(13) -0.0609(13) 0.0000
O3I O 0.0422(13) -0.0609(13) 0.0000
O3J O -0.0422(13) 0.0609(13) 0.0000
O3K O 0.0422(13) 0.0609(13) 0.0000
O4 O -0.0414(17) 0.2833(16) 0.709(2)
C17 C -0.001(2) 0.2786(16) 0.7267(17)
C18 C -0.0659(17) 0.2461(18) 0.705(3)
C19 C -0.1107(16) 0.2348(17) 0.6915(17)
O4AA O 0.0414(17) 0.2833(16) 0.709(2)
C18AA C 0.0659(17) 0.2461(18) 0.705(3)
C19AA C 0.1107(16) 0.2348(17) 0.6915(17)
loop_
_geom_bond_atom_site_label_1
_geom_bond_atom_site_label_2
_geom_bond_site_symmetry_1
_geom_bond_site_symmetry_2
Na1 N1 1_555 1_555
Na2 N5 1_555 1_555
Na3 N6 1_555 1_555
N1 C1 1_555 1_555
N2 C2 1_555 1_555
N3 C3 1_555 1_555
N4 Na1 1_555 1_555
N5 C5 1_555 1_555
N6 C6 1_555 1_555
C1 C7 1_555 1_555
C2 C8 1_555 1_555
C3 C9 1_555 1_555
C4 N4 1_555 1_555
C5 C11 1_555 1_555
C6 C12 1_555 1_555
C7 C8 1_555 1_555
C8 C8AA 1_555 1_555
C9 C7 1_555 1_555
C10 C4 1_555 1_555
C11 C10 1_555 1_555
C12 C11 1_555 1_555
O1 Na2 1_555 1_555
C13 O1 1_555 1_555
C14 C13 1_555 1_555
C15 O1 1_555 1_555
C16 C15 1_555 1_555
O2 Na3 1_555 1_555
Na4 O3 1_555 1_555
O4 C17 1_555 1_555
C17 O4AA 1_555 1_555
C18 O4 1_555 1_555
C19 C18 1_555 1_555
Na1L N1W 1_555 1_555
Na1B N1B 1_555 1_555
Na1O N1U 1_555 1_555
Na1AA N1GA 1_555 1_555
Na1LA N1PA 1_555 1_555
Na1Y N1FA 1_555 1_555
Na1KA N1QA 1_555 1_555
Na1AA_2 N1AA 1_555 1_555
Na1Z N1DA 1_555 1_555
Na1C N1D 1_555 1_555
Na1KA_2 N1RA 1_555 1_555
Na1MA N1MA 1_555 1_555
Na1Y_2 N1Y 1_555 1_555
Na1X N1CA 1_555 1_555
Na1LA_2 N1TA 1_555 1_555
Na2W N2L 1_555 1_555
Na2B N2F 1_555 1_555
Na2U N2O 1_555 1_555
Na2K N2 1_555 1_555
Na2H N2AA 1_555 1_555
Na2E N3 1_555 1_555
Na2F N2FA 1_555 1_555
Na2C N2DA 1_555 1_555
Na2Q N2W 1_555 1_555
Na2R N2RA 1_555 1_555
Na2L N2Q 1_555 1_555
Na2I N3D 1_555 1_555
Na2O N2PA 1_555 1_555
Na2T N2MA 1_555 1_555
Na2J N2B 1_555 1_555
Na2F_2 N2J 1_555 1_555
Na2I_2 N2Y 1_555 1_555
Na2E_2 N2GA 1_555 1_555
Na2A N2CA 1_555 1_555
Na2O_2 N2P 1_555 1_555
Na2P N2U 1_555 1_555
Na2S N2TA 1_555 1_555
Na2L_2 N2QA 1_555 1_555
Na2H_2 N5GA 1_555 1_555
Na2S_2 N5PA 1_555 1_555
Na2R_2 N5QA 1_555 1_555
Na2V O1V 1_555 1_555
Na3U Na3 1_555 1_555
Na3I Na3L 1_555 1_555
Na3E Na3Q 1_555 1_555
Na3H Na3M 1_555 1_555
Na3D Na3P 1_555 1_555
Na3L N6K 1_555 1_555
Na3Q N6E 1_555 1_555
Na3M N6J 1_555 1_555
Na3P N6F 1_555 1_555
Na3H_2 Na3M_2 1_555 1_555
Na3M_2 N6GA 1_555 1_555
Na3E_2 Na3Q_2 1_555 1_555
Na3Q_2 N6BA 1_555 1_555
Na3I_2 Na3L_2 1_555 1_555
Na3L_2 N6FA 1_555 1_555
Na3D_2 Na3P_2 1_555 1_555
Na3P_2 N6EA 1_555 1_555
N1AA C1AA 1_555 1_555
N1K Na1 1_555 1_555
N1FA C1FA 1_555 1_555
N1E Na1 1_555 1_555
N1DA C1DA 1_555 1_555
N1EA Na1Y 1_555 1_555
N1D C1D 1_555 1_555
N1W C1W 1_555 1_555
N1RA C1RA 1_555 1_555
N1Q Na1L 1_555 1_555
N1PA C1PA 1_555 1_555
N1L Na1L 1_555 1_555
N1MA C1MA 1_555 1_555
N1B C1B 1_555 1_555
N1Y C1Y 1_555 1_555
N1J Na1B 1_555 1_555
N1GA C1GA 1_555 1_555
N1F Na1B 1_555 1_555
N1CA C1CA 1_555 1_555
N1U C1U 1_555 1_555
N1TA C1TA 1_555 1_555
N1P Na1O 1_555 1_555
N1QA C1QA 1_555 1_555
N1O Na1O 1_555 1_555
N1AA_2 Na1AA 1_555 1_555
N1BA Na1AA 1_555 1_555
N1TA_2 Na1LA 1_555 1_555
N1LA Na1LA 1_555 1_555
N1Y_2 Na1Y 1_555 1_555
N1RA_2 Na1KA 1_555 1_555
N1KA Na1KA 1_555 1_555
N2AA C2AA 1_555 1_555
N2K Na2E 1_555 1_555
N2FA C2FA 1_555 1_555
N2E Na2 1_555 1_555
N2DA C2DA 1_555 1_555
N2EA Na2 1_555 1_555
N2D Na2C 1_555 1_555
N2W C2W 1_555 1_555
N2RA C2RA 1_555 1_555
N2Q C2Q 1_555 1_555
N2PA C2PA 1_555 1_555
N2L C2L 1_555 1_555
N2MA C2MA 1_555 1_555
N2B C2B 1_555 1_555
N2Y C2Y 1_555 1_555
N2J C2J 1_555 1_555
N2GA C2GA 1_555 1_555
N2F C2F 1_555 1_555
N2CA C2CA 1_555 1_555
N2U C2U 1_555 1_555
N2TA C2TA 1_555 1_555
N2P C2P 1_555 1_555
N2QA C2QA 1_555 1_555
N2LA Na2W 1_555 1_555
N2BA Na2B 1_555 1_555
N2KA Na2U 1_555 1_555
N2Z Na2K 1_555 1_555
N2A Na2H 1_555 1_555
N2GA_2 Na2E 1_555 1_555
N2J_2 Na2F 1_555 1_555
N2SA Na2Q 1_555 1_555
N2V Na2R 1_555 1_555
N2QA_2 Na2L 1_555 1_555
N3K Na2 1_555 1_555
N3E Na2K 1_555 1_555
N3D C3D 1_555 1_555
N3W Na2L 1_555 1_555
N3Q Na2W 1_555 1_555
N3L Na2Q 1_555 1_555
N3B Na2F_2 1_555 1_555
N3J Na2B 1_555 1_555
N3F Na2J 1_555 1_555
N3U Na2O_2 1_555 1_555
N3P Na2U 1_555 1_555
N3G Na2H 1_555 1_555
N3B_2 Na2F 1_555 1_555
N3I Na2C 1_555 1_555
N3N Na2R 1_555 1_555
N4W Na1L 1_555 1_555
N4B Na1B 1_555 1_555
N4U Na1O 1_555 1_555
N4AA Na1AA 1_555 1_555
N4TA Na1LA 1_555 1_555
N4Y Na1Y 1_555 1_555
N4RA Na1KA 1_555 1_555
N4K Na1 1_555 1_555
N4L Na1L 1_555 1_555
N4E Na1 1_555 1_555
N4Q Na1L 1_555 1_555
N4J Na1B 1_555 1_555
N4O Na1O 1_555 1_555
N4F Na1B 1_555 1_555
N4P Na1O 1_555 1_555
N4GA Na1AA 1_555 1_555
N4LA Na1LA 1_555 1_555
N4BA Na1AA 1_555 1_555
N4PA Na1LA 1_555 1_555
N4FA Na1Y 1_555 1_555
N4KA Na1KA 1_555 1_555
N4EA Na1Y 1_555 1_555
N4QA Na1KA 1_555 1_555
N5W Na2W 1_555 1_555
N5B Na2B 1_555 1_555
N5U Na2U 1_555 1_555
N5AA Na2B 1_555 1_555
N5TA Na2W 1_555 1_555
N5Y Na2 1_555 1_555
N5RA Na2U 1_555 1_555
N5K Na2K 1_555 1_555
N5L Na2L 1_555 1_555
N5E Na2E 1_555 1_555
N5Q Na2Q 1_555 1_555
N5J Na2J 1_555 1_555
N5O Na2O_2 1_555 1_555
N5F Na2F_2 1_555 1_555
N5P Na2P 1_555 1_555
N5GA C5GA 1_555 1_555
N5LA Na2O 1_555 1_555
N5BA Na2E_2 1_555 1_555
N5PA C5PA 1_555 1_555
N5FA Na2I 1_555 1_555
N5KA Na2L_2 1_555 1_555
N5EA Na2F 1_555 1_555
N5QA C5QA 1_555 1_555
N5HA Na2K 1_555 1_555
N5GA_2 Na2H 1_555 1_555
N5H Na2H 1_555 1_555
N5BA_2 Na2E 1_555 1_555
N5F_2 Na2F 1_555 1_555
N5Z Na2C 1_555 1_555
N5C Na2C 1_555 1_555
N5NA Na2Q 1_555 1_555
N5QA_2 Na2R 1_555 1_555
N5R Na2R 1_555 1_555
N5KA_2 Na2L 1_555 1_555
N6B Na3 1_555 1_555
N6AA Na3 1_555 1_555
N6Y Na3 1_555 1_555
N6K Na3I 1_555 1_555
N6E Na3E 1_555 1_555
N6J Na3H 1_555 1_555
N6F Na3D 1_555 1_555
N6GA Na3H_2 1_555 1_555
N6BA Na3E_2 1_555 1_555
N6FA Na3I_2 1_555 1_555
N6EA Na3D_2 1_555 1_555
N6I Na3I 1_555 1_555
N6FA_2 Na3I 1_555 1_555
N6HA Na3I 1_555 1_555
N6G Na3E 1_555 1_555
N6DA Na3E 1_555 1_555
N6BA_2 Na3E 1_555 1_555
N6H Na3H 1_555 1_555
N6GA_2 Na3H 1_555 1_555
N6IA Na3H 1_555 1_555
N6D Na3D 1_555 1_555
N6CA Na3D 1_555 1_555
N6EA_2 Na3D 1_555 1_555
C1AA C7AA 1_555 1_555
C1K N1K 1_555 1_555
C1FA C7FA 1_555 1_555
C1E N1E 1_555 1_555
C1DA C7DA 1_555 1_555
C1EA N1EA 1_555 1_555
C1D C7D 1_555 1_555
C1W C7W 1_555 1_555
C1RA C7RA 1_555 1_555
C1Q N1Q 1_555 1_555
C1PA C7PA 1_555 1_555
C1L N1L 1_555 1_555
C1MA C7MA 1_555 1_555
C1B C7B 1_555 1_555
C1Y C7Y 1_555 1_555
C1J N1J 1_555 1_555
C1GA C7GA 1_555 1_555
C1F N1F 1_555 1_555
C1CA C7CA 1_555 1_555
C1U C7U 1_555 1_555
C1TA C7TA 1_555 1_555
C1P N1P 1_555 1_555
C1QA C7QA 1_555 1_555
C2AA C8AA 1_555 1_555
C2K N2K 1_555 1_555
C2FA C8FA 1_555 1_555
C2E N2E 1_555 1_555
C2DA C8DA 1_555 1_555
C2EA N2EA 1_555 1_555
C2D N2D 1_555 1_555
C2W C8W 1_555 1_555
C2RA C8RA 1_555 1_555
C2Q C8Q 1_555 1_555
C2PA C8PA 1_555 1_555
C2L C8L 1_555 1_555
C2MA C8MA 1_555 1_555
C2B C8B 1_555 1_555
C2Y C8Y 1_555 1_555
C2J C8J 1_555 1_555
C2GA C8GA 1_555 1_555
C2F C8F 1_555 1_555
C2CA C8CA 1_555 1_555
C2U C8U 1_555 1_555
C2TA C8TA 1_555 1_555
C2P C8P 1_555 1_555
C2QA C8QA 1_555 1_555
C3K N3K 1_555 1_555
C3E N3E 1_555 1_555
C3D C9D 1_555 1_555
C3W N3W 1_555 1_555
C3Q N3Q 1_555 1_555
C3L N3L 1_555 1_555
C3B N3B 1_555 1_555
C3J N3J 1_555 1_555
C3F N3F 1_555 1_555
C3U N3U 1_555 1_555
C3P N3P 1_555 1_555
C4W N4W 1_555 1_555
C4B N4B 1_555 1_555
C4U N4U 1_555 1_555
C4AA N4AA 1_555 1_555
C4TA N4TA 1_555 1_555
C4Y N4Y 1_555 1_555
C4RA N4RA 1_555 1_555
C4K N4K 1_555 1_555
C4L N4L 1_555 1_555
C4E N4E 1_555 1_555
C4Q N4Q 1_555 1_555
C4J N4J 1_555 1_555
C4O N4O 1_555 1_555
C4F N4F 1_555 1_555
C4P N4P 1_555 1_555
C4GA N4GA 1_555 1_555
C4LA N4LA 1_555 1_555
C4BA N4BA 1_555 1_555
C4PA N4PA 1_555 1_555
C4FA N4FA 1_555 1_555
C4KA N4KA 1_555 1_555
C4EA N4EA 1_555 1_555
C4QA N4QA 1_555 1_555
C5W N5W 1_555 1_555
C5B N5B 1_555 1_555
C5U N5U 1_555 1_555
C5AA N5AA 1_555 1_555
C5TA N5TA 1_555 1_555
C5Y N5Y 1_555 1_555
C5RA N5RA 1_555 1_555
C5K N5K 1_555 1_555
C5L N5L 1_555 1_555
C5E N5E 1_555 1_555
C5Q N5Q 1_555 1_555
C5J N5J 1_555 1_555
C5O N5O 1_555 1_555
C5F N5F 1_555 1_555
C5P N5P 1_555 1_555
C5GA C11GA 1_555 1_555
C5LA N5LA 1_555 1_555
C5BA N5BA 1_555 1_555
C5PA C11PA 1_555 1_555
C5FA N5FA 1_555 1_555
C5KA N5KA 1_555 1_555
C5EA N5EA 1_555 1_555
C5QA C11QA 1_555 1_555
C6B N6B 1_555 1_555
C6AA N6AA 1_555 1_555
C6Y N6Y 1_555 1_555
C6K N6K 1_555 1_555
C6E N6E 1_555 1_555
C6J N6J 1_555 1_555
C6F N6F 1_555 1_555
C6GA N6GA 1_555 1_555
C6BA N6BA 1_555 1_555
C6FA N6FA 1_555 1_555
C6EA N6EA 1_555 1_555
C7AA C9 1_555 1_555
C7K C1K 1_555 1_555
C7FA C8FA 1_555 1_555
C7E C1E 1_555 1_555
C7DA C8DA 1_555 1_555
C7EA C1EA 1_555 1_555
C7D C8D 1_555 1_555
C7W C8W 1_555 1_555
C7RA C8RA 1_555 1_555
C7Q C1Q 1_555 1_555
C7PA C8PA 1_555 1_555
C7L C1L 1_555 1_555
C7MA C8MA 1_555 1_555
C7B C8B 1_555 1_555
C7Y C8Y 1_555 1_555
C7J C1J 1_555 1_555
C7GA C8GA 1_555 1_555
C7F C1F 1_555 1_555
C7CA C8CA 1_555 1_555
C7U C8U 1_555 1_555
C7TA C8TA 1_555 1_555
C7P C1P 1_555 1_555
C7QA C8QA 1_555 1_555
C8AA C7AA 1_555 1_555
C8K C2K 1_555 1_555
C8FA C8K 1_555 1_555
C8E C2E 1_555 1_555
C8DA C8E 1_555 1_555
C8EA C2EA 1_555 1_555
C8D C2D 1_555 1_555
C8W C8RA 1_555 1_555
C8Q C7Q 1_555 1_555
C8PA C8Q 1_555 1_555
C8L C7L 1_555 1_555
C8MA C8L 1_555 1_555
C8B C8Y 1_555 1_555
C8J C7J 1_555 1_555
C8GA C8J 1_555 1_555
C8F C7F 1_555 1_555
C8CA C8F 1_555 1_555
C8U C8TA 1_555 1_555
C8P C7P 1_555 1_555
C8QA C8P 1_555 1_555
C9K C3K 1_555 1_555
C9E C3E 1_555 1_555
C9D C7EA 1_555 1_555
C9W C3W 1_555 1_555
C9Q C3Q 1_555 1_555
C9L C3L 1_555 1_555
C9B C3B 1_555 1_555
C9J C3J 1_555 1_555
C9F C3F 1_555 1_555
C9U C3U 1_555 1_555
C9P C3P 1_555 1_555
C10W C10 1_555 1_555
C10B C4B 1_555 1_555
C10U C4U 1_555 1_555
C10AA C4AA 1_555 1_555
C10TA C4TA 1_555 1_555
C10Y C4Y 1_555 1_555
C10RA C4RA 1_555 1_555
C10K C4K 1_555 1_555
C10L C4L 1_555 1_555
C10E C4E 1_555 1_555
C10Q C4Q 1_555 1_555
C10J C4J 1_555 1_555
C10O C4O 1_555 1_555
C10F C4F 1_555 1_555
C10P C4P 1_555 1_555
C10GA C4GA 1_555 1_555
C10LA C4LA 1_555 1_555
C10BA C4BA 1_555 1_555
C10PA C4PA 1_555 1_555
C10FA C4FA 1_555 1_555
C10KA C4KA 1_555 1_555
C10EA C4EA 1_555 1_555
C10QA C4QA 1_555 1_555
C11W C12 1_555 1_555
C11B C5B 1_555 1_555
C11U C5U 1_555 1_555
C11AA C5AA 1_555 1_555
C11TA C5TA 1_555 1_555
C11Y C5Y 1_555 1_555
C11RA C5RA 1_555 1_555
C11K C5K 1_555 1_555
C11L C5L 1_555 1_555
C11E C5E 1_555 1_555
C11Q C5Q 1_555 1_555
C11J C5J 1_555 1_555
C11O C5O 1_555 1_555
C11F C5F 1_555 1_555
C11P C5P 1_555 1_555
C11GA C10GA 1_555 1_555
C11LA C5LA 1_555 1_555
C11BA C5BA 1_555 1_555
C11PA C10PA 1_555 1_555
C11FA C5FA 1_555 1_555
C11KA C5KA 1_555 1_555
C11EA C5EA 1_555 1_555
C11QA C10QA 1_555 1_555
C12B C6B 1_555 1_555
C12AA C6AA 1_555 1_555
C12Y C6Y 1_555 1_555
C12K C6K 1_555 1_555
C12E C6E 1_555 1_555
C12J C6J 1_555 1_555
C12F C6F 1_555 1_555
C12GA C6GA 1_555 1_555
C12BA C6BA 1_555 1_555
C12FA C6FA 1_555 1_555
C12EA C6EA 1_555 1_555
O1C Na2C 1_555 1_555
O1W Na2W 1_555 1_555
O1T Na2T 1_555 1_555
O1B Na2B 1_555 1_555
O1A Na2A 1_555 1_555
O1U Na2U 1_555 1_555
O1V C13V 1_555 1_555
O1K Na2K 1_555 1_555
O1H Na2H 1_555 1_555
O1E Na2E 1_555 1_555
O1F Na2F 1_555 1_555
O1Q Na2Q 1_555 1_555
O1R Na2R 1_555 1_555
O1L Na2L 1_555 1_555
C13C C14 1_555 1_555
C13W O1W 1_555 1_555
C13T O1T 1_555 1_555
C13B O1B 1_555 1_555
C13A O1A 1_555 1_555
C13U O1U 1_555 1_555
C13V C14U 1_555 1_555
C13K O1K 1_555 1_555
C13H O1H 1_555 1_555
C13E O1E 1_555 1_555
C13F O1F 1_555 1_555
C14T C13W 1_555 1_555
C14A C13B 1_555 1_555
C14U C13U 1_555 1_555
C14H C13K 1_555 1_555
C14E C13E 1_555 1_555
C15C O1C 1_555 1_555
C15W O1W 1_555 1_555
C15T O1T 1_555 1_555
C15B O1B 1_555 1_555
C15A O1A 1_555 1_555
C15U O1U 1_555 1_555
C15V O1V 1_555 1_555
C15K O1K 1_555 1_555
C15H O1H 1_555 1_555
C15E O1E 1_555 1_555
C15F O1F 1_555 1_555
C16C C15C 1_555 1_555
C16W C15W 1_555 1_555
C16T C15T 1_555 1_555
C16B C15B 1_555 1_555
C16A C15A 1_555 1_555
C16U C15U 1_555 1_555
C16V C15V 1_555 1_555
C16K C15K 1_555 1_555
C16H C15H 1_555 1_555
C16E C15E 1_555 1_555
C16F C15F 1_555 1_555
O2U Na3U 1_555 1_555
O2I Na3I 1_555 1_555
O2E Na3E 1_555 1_555
O2H Na3H 1_555 1_555
O2D Na3D 1_555 1_555
O3A Na4 1_555 1_555
O3B Na4 1_555 1_555
O3C Na4 1_555 1_555
O3D Na4 1_555 1_555
O3E Na4 1_555 1_555
O3F Na4 1_555 1_555
O3G Na4 1_555 1_555
O3H Na4 1_555 1_555
O3I Na4 1_555 1_555
O3J Na4 1_555 1_555
O3K Na4 1_555 1_555
O4AA C18AA 1_555 1_555
C18AA C19AA 1_555 1_555
N6 Na3U 1_555 1_555
Na3U N6B 1_555 1_555
Na3U N6AA 1_555 1_555
Na3U N6Y 1_555 1_555
Na3L N6I 1_555 1_555
Na3L N6FA_2 1_555 1_555
Na3L N6HA 1_555 1_555
Na3Q N6G 1_555 1_555
Na3Q N6DA 1_555 1_555
Na3Q N6BA_2 1_555 1_555
Na3M N6H 1_555 1_555
Na3M N6GA_2 1_555 1_555
Na3M N6IA 1_555 1_555
Na3P N6D 1_555 1_555
Na3P N6CA 1_555 1_555
Na3P N6EA_2 1_555 1_555
C4W C10W 1_555 1_555
C5W C11W 1_555 1_555
C7K C8K 1_555 1_555
C7K C9K 1_555 1_555
C7FA C9K 1_555 1_555
C7E C8E 1_555 1_555
C7E C9E 1_555 1_555
C7DA C9E 1_555 1_555
C7EA C8EA 1_555 1_555
C7D C9D 1_555 1_555
C7W C9W 1_555 1_555
C7RA C9W 1_555 1_555
C7Q C9Q 1_555 1_555
C7PA C9Q 1_555 1_555
C7L C9L 1_555 1_555
C7MA C9L 1_555 1_555
C7B C9B 1_555 1_555
C7Y C9B 1_555 1_555
C7J C9J 1_555 1_555
C7GA C9J 1_555 1_555
C7F C9F 1_555 1_555
C7CA C9F 1_555 1_555
C7U C9U 1_555 1_555
C7TA C9U 1_555 1_555
C7P C9P 1_555 1_555
C7QA C9P 1_555 1_555
C8EA C8D 1_555 1_555
C10W C11W 1_555 1_555
C10B C10U 1_555 1_555
C10B C11B 1_555 1_555
C10U C11U 1_555 1_555
C10AA C10TA 1_555 1_555
C10AA C11AA 1_555 1_555
C10TA C11TA 1_555 1_555
C10Y C10RA 1_555 1_555
C10Y C11Y 1_555 1_555
C10RA C11RA 1_555 1_555
C10K C10L 1_555 1_555
C10K C11K 1_555 1_555
C10L C11L 1_555 1_555
C10E C10Q 1_555 1_555
C10E C11E 1_555 1_555
C10Q C11Q 1_555 1_555
C10J C10O 1_555 1_555
C10J C11J 1_555 1_555
C10O C11O 1_555 1_555
C10F C10P 1_555 1_555
C10F C11F 1_555 1_555
C10P C11P 1_555 1_555
C10GA C10LA 1_555 1_555
C10LA C11LA 1_555 1_555
C10BA C10PA 1_555 1_555
C10BA C11BA 1_555 1_555
C10FA C10KA 1_555 1_555
C10FA C11FA 1_555 1_555
C10KA C11KA 1_555 1_555
C10EA C10QA 1_555 1_555
C10EA C11EA 1_555 1_555
C11B C12B 1_555 1_555
C11U C12B 1_555 1_555
C11AA C12AA 1_555 1_555
C11TA C12AA 1_555 1_555
C11Y C12Y 1_555 1_555
C11RA C12Y 1_555 1_555
C11K C12K 1_555 1_555
C11L C12K 1_555 1_555
C11E C12E 1_555 1_555
C11Q C12E 1_555 1_555
C11J C12J 1_555 1_555
C11O C12J 1_555 1_555
C11F C12F 1_555 1_555
C11P C12F 1_555 1_555
C11GA C12GA 1_555 1_555
C11LA C12GA 1_555 1_555
C11BA C12BA 1_555 1_555
C11PA C12BA 1_555 1_555
C11FA C12FA 1_555 1_555
C11KA C12FA 1_555 1_555
C11EA C12EA 1_555 1_555
C11QA C12EA 1_555 1_555
O1C C13C 1_555 1_555
C13T C14T 1_555 1_555
C13A C14A 1_555 1_555
C13H C14H 1_555 1_555
C13F C14E 1_555 1_555

#END
