
#######################################################################
#
#                 Cambridge Crystallographic Data Centre
#                                CCDC 
#
#######################################################################
#
# If this CIF has been generated from an entry in the Cambridge 
# Structural Database, then it will include bibliographic, chemical, 
# crystal, experimental, refinement or atomic coordinate data resulting 
# from the CCDC's data processing and validation procedures.
#
#######################################################################

data_CAWBUY
_chemical_formula_moiety         'C58 H33 B3 Cu2 N15'
_symmetry_cell_setting           monoclinic
_symmetry_space_group_name_H-M   'P m'
_symmetry_Int_Tables_number      6
_space_group_name_Hall           'P -2y'
loop_
_symmetry_equiv_pos_site_id
_symmetry_equiv_pos_as_xyz
1 x,y,z
2 x,-y,z
_cell_length_a                   8.464(5)
_cell_length_b                   7.613(5)
_cell_length_c                   13.176(8)
_cell_angle_alpha                90
_cell_angle_beta                 90.482(9)
_cell_angle_gamma                90
_cell_volume                     848.984
loop_
_atom_site_label
_atom_site_type_symbol
_atom_site_fract_x
_atom_site_fract_y
_atom_site_fract_z
_atom_site_U_iso_or_equiv
_atom_site_thermal_displace_type
Cu1 Cu 0.08048(7) 0.5000 0.50338(5) 0.0383 Uani
Cu2 Cu 0.04892(7) 1.0000 1.00538(5) 0.0566 Uani
C1 C -0.0521(3) 0.8287(2) 0.61187(17) 0.0314 Uiso
N1 N -0.0008(3) 0.7085(3) 0.57218(18) 0.0421 Uiso
C2 C -0.0635(4) 1.0000 0.77990(13) 0.0493 Uiso
N2 N -0.0202(4) 1.0000 0.86258(17) 0.0614 Uiso
C3 C -0.0609(3) 0.5000 0.28544(13) 0.0400 Uiso
N3 N -0.0094(4) 0.5000 0.36566(17) 0.0535 Uiso
C4 C -0.0763(3) 0.6615(2) 1.11554(17) 0.0454 Uiso
N4 N -0.0303(3) 0.7850(3) 1.0764(2) 0.0684 Uiso
C5 C 0.5954(5) 0.3973(8) 0.4762(3) 0.0847 Uiso
H1 H 0.6036 0.2906 0.4349 0.1270 Uiso
H2 H 0.6414 0.3756 0.5435 0.1270 Uiso
H3 H 0.6527 0.4932 0.4431 0.1270 Uiso
C6 C 0.4317(6) 0.4451(11) 0.4863(4) 0.0847 Uiso
N5 N 0.3021(6) 0.4829(15) 0.4944(5) 0.0847 Uiso
C7 C 0.5304(3) 1.2119(19) 1.0380(10) 0.0606 Uiso
H4 H 0.5274 1.3180 0.9959 0.0910 Uiso
H5 H 0.6235 1.1419 1.0206 0.0910 Uiso
H6 H 0.5361 1.2453 1.1097 0.0910 Uiso
C8 C 0.3897(4) 1.110(2) 1.0199(12) 0.0606 Uiso
N6 N 0.2783(5) 1.029(2) 1.0055(17) 0.0606 Uiso
B1 B -0.11211(15) 1.0000 0.66513(5) 0.0409 Uiso
C9 C -0.30982(15) 1.00869(12) 0.66041(7) 0.1027 Uiso
C10 C -0.39086(17) 1.1235(4) 0.7233(2) 0.1027 Uiso
H7 H -0.3341 1.1971 0.7691 0.1230 Uiso
C11 C -0.55488(17) 1.1307(4) 0.7194(2) 0.1027 Uiso
H8 H -0.6103 1.2092 0.7624 0.1230 Uiso
C12 C -0.63789(15) 1.0230(2) 0.65251(13) 0.1027 Uiso
H9 H -0.7500 1.0278 0.6498 0.1230 Uiso
C13 C -0.55685(17) 1.0919(4) 0.5896(2) 0.1027 Uiso
H10 H -0.6136 1.1655 0.5439 0.1230 Uiso
C14 C -0.39282(17) 0.9010(4) 0.5935(2) 0.1027 Uiso
H11 H -0.3374 0.8225 0.5505 0.1230 Uiso
B2 B -0.13750(13) 0.5000 0.17665(5) 0.0504 Uiso
C15 C -0.33451(14) 0.48663(15) 0.18011(6) 0.1061 Uiso
C16 C -0.40570(17) 0.3497(3) 0.2324(2) 0.1061 Uiso
H12 H -0.3424 0.2641 0.2660 0.1270 Uiso
C17 C -0.56947(17) 0.3378(3) 0.2356(2) 0.1061 Uiso
H13 H -0.6181 0.2442 0.2713 0.1270 Uiso
C18 C -0.66203(14) 0.4630(3) 0.18641(12) 0.1061 Uiso
H14 H -0.7740 0.4549 0.1886 0.1270 Uiso
C19 C -0.59084(16) 0.4001(3) 0.13412(19) 0.1061 Uiso
H15 H -0.6541 0.3145 0.1005 0.1270 Uiso
C20 C 0.57292(16) 1.3882(3) 1.13097(19) 0.1061 Uiso
H16 H 0.6216 1.2946 1.0952 0.1270 Uiso
C25 C 0.5612(3) 1.120(2) 0.9693(10) 0.0606 Uiso
H23 H 0.6241 1.0197 0.9470 0.0910 Uiso
H24 H 0.6104 1.1728 1.0297 0.0910 Uiso
H25 H 0.5563 1.2081 0.9149 0.0910 Uiso
C28 C 0.4049(4) 0.988(8) 1.0432(11) 0.0606 Uiso
N10 N 0.2798(5) 1.000(11) 1.0112(15) 0.0606 Uiso
C29 C 0.5728(3) 1.051(3) 0.9696(10) 0.0606 Uiso
H29 H 0.6235 1.0650 0.9671 0.0910 Uiso
H30 H 0.5809 1.1074 0.9031 0.0910 Uiso
H31 H 0.6257 1.1235 1.0209 0.0910 Uiso
C30 C 0.4089(4) 0.970(4) 0.9954(11) 0.0606 Uiso
C1A C -0.0521(3) 1.1713(2) 0.61187(17) 0.0314 Uiso
N1A N -0.0008(3) 0.2915(3) 0.57218(18) 0.0421 Uiso
C4_2 C -0.0763(3) 0.6615(2) 0.11554(17) 0.0454 Uiso
C4A C -0.0763(3) 0.3385(2) 0.11554(17) 0.0454 Uiso
N4A N -0.0303(3) 1.2150(3) 1.0764(2) 0.0684 Uiso
C5A C 0.5954(5) 0.6027(8) 0.4762(3) 0.0847 Uiso
H3A H 0.6527 0.5068 0.4431 0.1270 Uiso
C6A C 0.4317(6) 0.5549(11) 0.4863(4) 0.0847 Uiso
N5A N 0.3021(6) 0.5171(15) 0.4944(5) 0.0847 Uiso
C8A C 0.3897(4) 0.890(2) 1.0199(12) 0.0606 Uiso
N6A N 0.2783(5) 0.971(2) 1.0055(17) 0.0606 Uiso
C9A C -0.30982(15) 0.99131(12) 0.66041(7) 0.1027 Uiso
C10A C -0.39086(17) 0.8765(4) 0.7233(2) 0.1027 Uiso
C11A C -0.55488(17) 0.8693(4) 0.7194(2) 0.1027 Uiso
C12A C -0.63789(15) 0.9770(2) 0.65251(13) 0.1027 Uiso
H9A H -0.7500 0.9722 0.6498 0.1230 Uiso
C13A C -0.55685(17) 0.9081(4) 0.5896(2) 0.1027 Uiso
C14A C -0.39282(17) 1.0990(4) 0.5935(2) 0.1027 Uiso
B2_2 B -0.13750(13) 0.5000 1.17665(5) 0.0504 Uiso
C15A C -0.33451(14) 0.51337(15) 0.18011(6) 0.1061 Uiso
C15A_2 C 0.66549(14) 1.51337(15) 1.18011(6) 0.1061 Uiso
C15_2 C 0.66549(14) 1.48663(15) 1.18011(6) 0.1061 Uiso
C16A C -0.40570(17) 0.6503(3) 0.2324(2) 0.1061 Uiso
C16_2 C 0.59430(17) 1.3497(3) 1.2324(2) 0.1061 Uiso
C18A C -0.66203(14) 0.5370(3) 0.18641(12) 0.1061 Uiso
H14A H -0.7740 0.5451 0.1886 0.1270 Uiso
C19A C -0.59084(16) 0.5999(3) 0.13412(19) 0.1061 Uiso
C19_2 C 0.40916(16) 1.4001(3) 1.13412(19) 0.1061 Uiso
C20A C -0.42708(16) 0.6118(3) 0.13097(19) 0.1061 Uiso
C20_2 C -0.42708(16) 0.3882(3) 0.13097(19) 0.1061 Uiso
C20A_2 C 0.57292(16) 1.6118(3) 1.13097(19) 0.1061 Uiso
C25A C 0.5612(3) 0.880(2) 0.9693(10) 0.0606 Uiso
H23A H 0.6241 0.9803 0.9470 0.0910 Uiso
C28A C 0.4049(4) 1.012(8) 1.0432(11) 0.0606 Uiso
C29A C 0.5728(3) 0.949(3) 0.9696(10) 0.0606 Uiso
H29A H 0.6235 0.9350 0.9671 0.0910 Uiso
C30A C 0.4089(4) 1.030(4) 0.9954(11) 0.0606 Uiso
C21 C -0.2022(14) -0.009(8) 0.3351(8) 0.0683 Uiso
C22 C -0.0332(14) 0.001(9) 0.3387(11) 0.0683 Uiso
N7 N 0.1010(14) 0.011(11) 0.3432(15) 0.0683 Uiso
C21A C -0.2022(14) 0.009(8) 0.3351(8) 0.0683 Uiso
N7A N 0.1010(14) -0.011(11) 0.3432(15) 0.0683 Uiso
C23 C -0.5616(7) 1.5057(9) 0.8495(5) 0.0683 Uiso
H20 H -0.5018 1.6020 0.8189 0.1020 Uiso
H21 H -0.5482 1.3989 0.8090 0.1020 Uiso
H22 H -0.5226 1.4849 0.9187 0.1020 Uiso
C24 C -0.7265(7) 1.5517(11) 0.8525(6) 0.0683 Uiso
N8 N -0.8571(8) 1.5881(13) 0.8549(9) 0.0683 Uiso
C23A C -0.5616(7) 1.4943(9) 0.8495(5) 0.0683 Uiso
H20A H -0.5018 1.3980 0.8189 0.1020 Uiso
H21A H -0.5482 1.6011 0.8090 0.1020 Uiso
H22A H -0.5226 1.5151 0.9187 0.1020 Uiso
C24A C -0.7265(7) 1.4483(11) 0.8525(6) 0.0683 Uiso
N8A N -0.8571(8) 1.4119(13) 0.8549(9) 0.0683 Uiso
loop_
_atom_site_aniso_label
_atom_site_aniso_U_11
_atom_site_aniso_U_22
_atom_site_aniso_U_33
_atom_site_aniso_U_23
_atom_site_aniso_U_13
_atom_site_aniso_U_12
Cu1 0.0477(3) 0.0342(3) 0.0329(3) 0.000 0.0018(3) 0.000
Cu2 0.0964(6) 0.0369(4) 0.0365(3) 0.000 0.0084(4) 0.000
loop_
_geom_bond_atom_site_label_1
_geom_bond_atom_site_label_2
_geom_bond_site_symmetry_1
_geom_bond_site_symmetry_2
Cu1 N1 1_555 1_555
Cu2 N2 1_555 1_555
C1 N1 1_555 1_555
C2 N2 1_555 1_555
C3 N3 1_555 1_555
N3 Cu1 1_555 1_555
C4 N4 1_555 1_555
N4 Cu2 1_555 1_555
C5 H1 1_555 1_555
H2 C5 1_555 1_555
H3 C5 1_555 1_555
C6 C5 1_555 1_555
N5 Cu1 1_555 1_555
C7 H4 1_555 1_555
H5 C7 1_555 1_555
H6 C7 1_555 1_555
C8 C7 1_555 1_555
N6 Cu2 1_555 1_555
B1 C1 1_555 1_555
C9 B1 1_555 1_555
C10 C9 1_555 1_555
H7 C10 1_555 1_555
C11 C10 1_555 1_555
H8 C11 1_555 1_555
C12 C11 1_555 1_555
H9 C12 1_555 1_555
C13 C11 1_555 1_555
H10 C13 1_555 1_555
C14 C9 1_555 1_555
H11 C14 1_555 1_555
B2 C3 1_555 1_555
C15 B2 1_555 1_555
C16 C15 1_555 1_555
H12 C16 1_555 1_555
C17 C16 1_555 1_555
H13 C17 1_555 1_555
C18 C17 1_555 1_555
H14 C18 1_555 1_555
C19 C17 1_555 1_555
H15 C19 1_555 1_555
C20 H6 1_555 1_555
H16 C7 1_555 1_555
C21 C22 1_555 1_555
C22 N7 1_555 1_555
N7 N7A 1_555 1_555
C23 H20 1_555 1_555
H20 C23A 1_555 1_555
H21 C23 1_555 1_555
H22 C23 1_555 1_555
C24 C23 1_555 1_555
N8 C24 1_555 1_555
C25 C7 1_555 1_555
H23 C25 1_555 1_555
H24 C7 1_555 1_555
H25 C25 1_555 1_555
C28 C8 1_555 1_555
N10 Cu2 1_555 1_555
C29 C7 1_555 1_555
H29 C25 1_555 1_555
H30 C25 1_555 1_555
H31 C7 1_555 1_555
C30 C8 1_555 1_555
C1A B1 1_555 1_555
N1A Cu1 1_555 1_555
C4_2 B2 1_555 1_555
C4A B2 1_555 1_555
N4A Cu2 1_555 1_555
C5A C5 1_555 1_555
H3A C5 1_555 1_555
C6A C6 1_555 1_555
N5A Cu1 1_555 1_555
C8A C8 1_555 1_555
N6A Cu2 1_555 1_555
C9A B1 1_555 1_555
C10A C9 1_555 1_555
C11A C12 1_555 1_555
C12A C11 1_555 1_555
H9A C12 1_555 1_555
C13A C12 1_555 1_555
C14A C9 1_555 1_555
B2_2 C4 1_555 1_555
C15A B2 1_555 1_555
C15A_2 C20 1_555 1_555
C15_2 C20 1_555 1_555
C16A C15 1_555 1_555
C16_2 C20 1_555 1_555
C18A C18 1_555 1_555
H14A C18 1_555 1_555
C19A C18 1_555 1_555
C19_2 C20 1_555 1_555
C20A C15 1_555 1_555
C20_2 C15 1_555 1_555
C20A_2 C20 1_555 1_555
C21A C21 1_555 1_555
N7A C22 1_555 1_555
C23A C23 1_555 1_555
H20A C23 1_555 1_555
H21A C23 1_555 1_555
H22A C23 1_555 1_555
C24A C23 1_555 1_555
N8A C24 1_555 1_555
C25A H23 1_555 1_555
H23A C25 1_555 1_555
C28A C8 1_555 1_555
C29A C25 1_555 1_555
H29A H23 1_555 1_555
C30A C8 1_555 1_555
C2 B1 1_555 1_555
H3 C5A 1_555 1_555
H3 H3A 1_555 1_555
C6 N5 1_555 1_555
C6 N5A 1_555 1_555
N5 C6A 1_555 1_555
N5 N5A 1_555 1_555
H5 C25 1_555 1_555
H5 H24 1_555 1_555
H5 C29 1_555 1_555
H5 H31 1_555 1_555
H6 H16 1_555 1_555
C8 N6 1_555 1_555
C8 C25 1_555 1_555
C8 N10 1_555 1_555
C8 C29 1_555 1_555
C8 N6A 1_555 1_555
N6 C28 1_555 1_555
N6 N10 1_555 1_555
N6 C30 1_555 1_555
N6 C8A 1_555 1_555
N6 N6A 1_555 1_555
N6 C28A 1_555 1_555
N6 C30A 1_555 1_555
C9 C9A 1_555 1_555
C10 C9A 1_555 1_555
C10 C14A 1_555 1_555
C12 C13 1_555 1_555
C12 C12A 1_555 1_555
H9 C12A 1_555 1_555
H9 H9A 1_555 1_555
C13 C12A 1_555 1_555
C13 C13A 1_555 1_555
C13 C14A 1_555 1_555
C14 C9A 1_555 1_555
C14 C10A 1_555 1_555
C14 C13A 1_555 1_555
C14 C14A 1_555 1_555
C15 C15A 1_555 1_555
C16 C15A 1_555 1_555
C16 C20_2 1_555 1_555
C18 C19 1_555 1_555
H14 C18A 1_555 1_555
H14 H14A 1_555 1_555
C19 C18A 1_555 1_555
C19 C19A 1_555 1_555
C19 C20_2 1_555 1_555
C20 H16 1_555 1_555
C22 C21A 1_555 1_555
H20 H21A 1_555 1_555
H21 C23A 1_555 1_555
H21 H20A 1_555 1_555
H22 C23A 1_555 1_555
H22 H22A 1_555 1_555
C24 C23A 1_555 1_555
C24 C24A 1_555 1_555
N8 C24A 1_555 1_555
N8 N8A 1_555 1_555
C25 H24 1_555 1_555
C25 C29 1_555 1_555
C25 H31 1_555 1_555
C25 C30 1_555 1_555
C25 C30A 1_555 1_555
H23 C29 1_555 1_555
H23 H29 1_555 1_555
H23 H23A 1_555 1_555
H23 C29A 1_555 1_555
H24 C29 1_555 1_555
H24 H31 1_555 1_555
H25 H30 1_555 1_555
C28 N10 1_555 1_555
C28 C30 1_555 1_555
C28 C8A 1_555 1_555
C28 N6A 1_555 1_555
C28 C28A 1_555 1_555
C28 C29A 1_555 1_555
C28 C30A 1_555 1_555
N10 C30 1_555 1_555
N10 C8A 1_555 1_555
N10 N6A 1_555 1_555
N10 C28A 1_555 1_555
N10 C30A 1_555 1_555
C29 H29 1_555 1_555
C29 H30 1_555 1_555
C29 H31 1_555 1_555
C29 C30 1_555 1_555
C29 C25A 1_555 1_555
C29 H23A 1_555 1_555
C29 C28A 1_555 1_555
C29 C29A 1_555 1_555
C29 H29A 1_555 1_555
C29 C30A 1_555 1_555
H29 H31 1_555 1_555
H29 H23A 1_555 1_555
H29 C29A 1_555 1_555
C30 C8A 1_555 1_555
C30 N6A 1_555 1_555
C30 C25A 1_555 1_555
C30 C28A 1_555 1_555
C30 C29A 1_555 1_555
C30 C30A 1_555 1_555
C5A H3A 1_555 1_555
C5A C6A 1_555 1_555
C6A N5A 1_555 1_555
C8A N6A 1_555 1_555
C8A C25A 1_555 1_555
C8A C28A 1_555 1_555
C8A C29A 1_555 1_555
C8A C30A 1_555 1_555
N6A C28A 1_555 1_555
N6A C30A 1_555 1_555
C9A C10A 1_555 1_555
C9A C14A 1_555 1_555
C10A C11A 1_555 1_555
C11A C12A 1_555 1_555
C11A C13A 1_555 1_555
C12A H9A 1_555 1_555
C12A C13A 1_555 1_555
C15A C16A 1_555 1_555
C15A C20A 1_555 1_555
C15A C20_2 1_555 1_555
C15A_2 C15_2 1_555 1_555
C15A_2 C16_2 1_555 1_555
C15A_2 C20A_2 1_555 1_555
C15_2 C16_2 1_555 1_555
C15_2 C20A_2 1_555 1_555
C16A C20A 1_555 1_555
C18A H14A 1_555 1_555
C18A C19A 1_555 1_555
C19A C20A 1_555 1_555
C20A C20_2 1_555 1_555
C23A H20A 1_555 1_555
C23A H21A 1_555 1_555
C23A H22A 1_555 1_555
C23A C24A 1_555 1_555
C24A N8A 1_555 1_555
C25A H23A 1_555 1_555
C25A C29A 1_555 1_555
C25A H29A 1_555 1_555
C25A C30A 1_555 1_555
H23A C29A 1_555 1_555
H23A H29A 1_555 1_555
C28A C30A 1_555 1_555
C29A H29A 1_555 1_555
C29A C30A 1_555 1_555

#END
