
#######################################################################
#
#                 Cambridge Crystallographic Data Centre
#                                CCDC 
#
#######################################################################
#
# If this CIF has been generated from an entry in the Cambridge 
# Structural Database, then it will include bibliographic, chemical, 
# crystal, experimental, refinement or atomic coordinate data resulting 
# from the CCDC's data processing and validation procedures.
#
#######################################################################

data_KUMJIN
_chemical_formula_moiety         '(C51 H35 Eu2 N5 O13)n'
_symmetry_cell_setting           triclinic
_symmetry_space_group_name_H-M   'P -1'
_symmetry_Int_Tables_number      2
_space_group_name_Hall           '-P 1'
loop_
_symmetry_equiv_pos_site_id
_symmetry_equiv_pos_as_xyz
1 x,y,z
2 -x,-y,-z
_cell_length_a                   12.6080(2)
_cell_length_b                   14.21450(10)
_cell_length_c                   14.8980(5)
_cell_angle_alpha                69.321(11)
_cell_angle_beta                 67.503(12)
_cell_angle_gamma                78.329(15)
_cell_volume                     2300.88
loop_
_atom_site_label
_atom_site_type_symbol
_atom_site_fract_x
_atom_site_fract_y
_atom_site_fract_z
Eu1 Eu 0.435609(17) 0.481576(14) 0.403678(14)
Eu2 Eu 0.948456(16) 0.946140(14) -0.092971(14)
O1 O 0.4436(3) 0.5094(3) 0.2220(3)
O2 O 1.0704(3) 0.8209(3) -0.1761(3)
O3 O 0.5297(3) 0.6056(2) 0.4401(2)
O4 O 0.8052(3) 0.9528(3) 0.0647(2)
O5 O 0.8713(3) 0.9886(3) 0.1673(3)
O6 O 1.3627(3) 0.5813(3) -0.3620(3)
O7 O 1.3072(3) 0.5623(3) -0.4795(3)
O8 O 0.9910(3) 0.9529(3) -0.2686(3)
O9 O 0.0352(3) 0.8545(3) 0.0248(3)
C1 C 0.5354(4) 0.6726(3) 0.3549(3)
O10 O 0.5081(4) 0.6555(3) 0.2912(3)
N1 N 0.2659(3) 0.3608(3) 0.5179(3)
O11 O 0.2877(3) 0.5610(4) 0.3287(3)
C2 C 0.7014(4) 0.9063(3) 0.2413(3)
C3 C 0.7993(4) 0.9531(3) 0.1502(3)
O12 O 0.1003(3) 0.8774(3) 0.1335(3)
N2 N 0.7534(4) 0.9759(3) -0.1242(3)
N3 N 0.8314(4) 0.7919(3) -0.0197(3)
C4 C 0.1721(4) 0.7313(3) 0.0815(3)
C5 C 0.5700(4) 0.7732(3) 0.3375(3)
C6 C 0.6594(4) 0.8186(3) 0.2500(3)
H1 H 0.6912 0.7899 0.1971
C7 C 0.2942(4) 0.5986(3) 0.1583(3)
C8 C 0.2163(4) 0.6833(3) 0.1604(3)
H2 H 0.1933 0.7082 0.2155
N4 N 0.4462(4) 0.3146(3) 0.3639(3)
C9 C 1.3029(4) 0.6077(4) -0.4196(3)
C10 C 1.1052(4) 0.8286(4) -0.3470(4)
C11 C 0.0964(4) 0.8271(3) 0.0805(3)
C12 C 0.5166(4) 0.8208(4) 0.4126(3)
H3 H 0.4564 0.7918 0.4705
C13 C 1.0520(4) 0.8697(4) -0.2577(4)
C14 C 0.6474(4) 0.9523(4) 0.3182(4)
H4 H 0.6748 1.0105 0.3136
C15 C 0.3440(4) 0.5531(3) 0.2418(4)
C16 C 1.1811(4) 0.7426(4) -0.3421(3)
H5 H 1.2028 0.7117 -0.2847
C17 C 0.2644(4) 0.2755(4) 0.4967(4)
C18 C 0.2023(4) 0.6906(4) 0.0023(4)
H6 H 0.1717 0.7207 -0.0499
C19 C 0.3261(5) 0.5601(4) 0.0767(4)
H7 H 0.3792 0.5044 0.0736
C20 C 0.2786(5) 0.6047(4) 0.0007(4)
H8 H 0.2977 0.5773 -0.0522
C21 C 0.3569(4) 0.2526(4) 0.4130(4)
C22 C 1.2246(4) 0.7027(4) -0.4233(3)
C23 C 0.6807(4) 0.9002(4) -0.0769(4)
C24 C 0.6476(5) 0.7237(5) 0.0303(4)
C25 C 0.7231(4) 0.8035(4) -0.0215(4)
C26 C 1.0771(5) 0.8771(4) -0.4342(4)
H9 H 1.0274 0.9354 -0.4377
C27 C 0.5528(5) 0.9114(4) 0.4017(4)
H10 H 0.5140 0.9449 0.4502
C28 C 0.1773(5) 0.2069(5) 0.5551(5)
C29 C 0.5313(5) 0.2946(4) 0.2856(4)
H11 H 0.5912 0.3369 0.2513
C30 C 0.5686(5) 0.9140(5) -0.0803(5)
C31 C 0.7164(6) 1.0633(5) -0.1772(5)
H12 H 0.7666 1.1143 -0.2120
C32 C 1.1229(5) 0.8391(5) -0.5166(4)
H13 H 1.1059 0.8731 -0.5760
C33 C 0.7985(6) 0.6194(4) 0.0880(5)
H14 H 0.8272 0.5586 0.1244
C34 C 0.3560(6) 0.1676(4) 0.3853(5)
C35 C 0.0905(5) 0.3138(6) 0.6603(5)
H15 H 0.0337 0.3283 0.7168
C36 C 0.1823(6) 0.1196(5) 0.5274(5)
H16 H 0.1256 0.0745 0.5666
C37 C 0.5366(7) 0.2135(5) 0.2511(5)
H17 H 0.5988 0.2018 0.1962
C38 C 0.1789(4) 0.3795(5) 0.5971(4)
H18 H 0.1762 0.4387 0.6113
C39 C 0.8666(5) 0.7029(4) 0.0332(5)
H19 H 0.9411 0.6948 0.0344
C40 C 0.0892(5) 0.2287(5) 0.6380(5)
H20 H 0.0302 0.1859 0.6777
C41 C 1.1933(5) 0.7515(4) -0.5101(4)
H21 H 1.2203 0.7242 -0.5639
C42 C 0.6892(6) 0.6312(5) 0.0858(5)
H22 H 0.6422 0.5778 0.1211
C43 C 0.6061(7) 1.0837(6) -0.1840(6)
H23 H 0.5831 1.1475 -0.2203
C44 C 0.2676(6) 0.1006(5) 0.4457(6)
H24 H 0.2683 0.0433 0.4288
C45 C 0.5381(6) 0.7385(7) 0.0242(6)
H25 H 0.4910 0.6851 0.0565
C46 C 0.4975(5) 0.8302(7) -0.0283(6)
H26 H 0.4233 0.8381 -0.0304
C47 C 0.4467(7) 0.1511(5) 0.3008(5)
H27 H 0.4469 0.0981 0.2779
C48 C 0.5324(6) 1.0086(7) -0.1367(6)
H28 H 0.4594 1.0200 -0.1418
Eu1_2 Eu 1.435609(17) 0.481576(14) -0.596322(14)
Eu1A Eu 0.564391(17) 0.518424(14) 0.596322(14)
Eu1A_2 Eu 1.564391(17) 0.518424(14) -0.403678(14)
Eu2_2 Eu -0.051544(16) 0.946140(14) -0.092971(14)
Eu2A Eu 0.051544(16) 1.053860(14) 0.092971(14)
Eu2A_2 Eu 1.051544(16) 1.053860(14) 0.092971(14)
O3A O 0.4703(3) 0.3944(2) 0.5599(2)
O5A O 1.1287(3) 1.0114(3) -0.1673(3)
O6A O 0.6373(3) 0.4187(3) 0.3620(3)
O7_2 O 0.3072(3) 0.5623(3) 0.5205(3)
O9_2 O 1.0352(3) 0.8545(3) 0.0248(3)
O12A O 0.8997(3) 1.1226(3) -0.1335(3)
N5 N 0.0916(6) 0.3882(6) 0.2581(5)
C49 C 0.0341(10) 0.4457(10) 0.1999(9)
H29 H 0.0490 0.4335 0.1386
O13 O -0.0390(8) 0.5154(8) 0.2187(7)
C50 C 0.0733(10) 0.4039(9) 0.3542(8)
H30 H 0.0143 0.4575 0.3643
H31 H 0.1435 0.4216 0.3529
H32 H 0.0498 0.3431 0.4091
C51 C 0.1781(11) 0.3097(11) 0.2332(12)
H33 H 0.1844 0.3050 0.1686
H34 H 0.1571 0.2466 0.2850
H35 H 0.2508 0.3250 0.2293
loop_
_geom_bond_atom_site_label_1
_geom_bond_atom_site_label_2
_geom_bond_site_symmetry_1
_geom_bond_site_symmetry_2
Eu1 O1 1_555 1_555
Eu2 O2 1_555 1_555
O1 C15 1_555 1_555
O2 C13 1_555 1_555
O3 Eu1 1_555 1_555
O4 Eu2 1_555 1_555
O5 C3 1_555 1_555
O6 C9 1_555 1_555
O7 C9 1_555 1_555
O8 Eu2 1_555 1_555
O9 C11 1_555 1_555
C1 O3 1_555 1_555
O10 Eu1 1_555 1_555
N1 Eu1 1_555 1_555
O11 Eu1 1_555 1_555
C2 C3 1_555 1_555
C3 O4 1_555 1_555
O12 C11 1_555 1_555
N2 Eu2 1_555 1_555
N3 Eu2 1_555 1_555
C4 C8 1_555 1_555
C5 C1 1_555 1_555
C6 C2 1_555 1_555
H1 C6 1_555 1_555
C7 C8 1_555 1_555
C8 H2 1_555 1_555
N4 Eu1 1_555 1_555
C9 C22 1_555 1_555
C10 C13 1_555 1_555
C11 C4 1_555 1_555
C12 C5 1_555 1_555
H3 C12 1_555 1_555
C13 O8 1_555 1_555
C14 C2 1_555 1_555
H4 C14 1_555 1_555
C15 O11 1_555 1_555
C16 C10 1_555 1_555
H5 C16 1_555 1_555
C17 N1 1_555 1_555
C18 C4 1_555 1_555
H6 C18 1_555 1_555
C19 C7 1_555 1_555
H7 C19 1_555 1_555
C20 C18 1_555 1_555
H8 C20 1_555 1_555
C21 N4 1_555 1_555
C22 C16 1_555 1_555
C23 N2 1_555 1_555
C24 C25 1_555 1_555
C25 N3 1_555 1_555
C26 C10 1_555 1_555
H9 C26 1_555 1_555
C27 C12 1_555 1_555
H10 C27 1_555 1_555
C28 C17 1_555 1_555
C29 N4 1_555 1_555
H11 C29 1_555 1_555
C30 C23 1_555 1_555
C31 N2 1_555 1_555
H12 C31 1_555 1_555
C32 C26 1_555 1_555
H13 C32 1_555 1_555
C33 H14 1_555 1_555
C34 C21 1_555 1_555
C35 H15 1_555 1_555
C36 C28 1_555 1_555
H16 C36 1_555 1_555
C37 C29 1_555 1_555
H17 C37 1_555 1_555
C38 N1 1_555 1_555
H18 C38 1_555 1_555
C39 N3 1_555 1_555
H19 C39 1_555 1_555
C40 C28 1_555 1_555
H20 C40 1_555 1_555
C41 C22 1_555 1_555
H21 C41 1_555 1_555
C42 C24 1_555 1_555
H22 C42 1_555 1_555
C43 C31 1_555 1_555
H23 C43 1_555 1_555
C44 C34 1_555 1_555
H24 C44 1_555 1_555
C45 C24 1_555 1_555
H25 C45 1_555 1_555
C46 C30 1_555 1_555
H26 C46 1_555 1_555
C47 C34 1_555 1_555
H27 C47 1_555 1_555
C48 C30 1_555 1_555
H28 C48 1_555 1_555
N5 C49 1_555 1_555
C49 H29 1_555 1_555
O13 C49 1_555 1_555
C50 N5 1_555 1_555
H30 C50 1_555 1_555
H31 C50 1_555 1_555
H32 C50 1_555 1_555
C51 N5 1_555 1_555
H33 C51 1_555 1_555
H34 C51 1_555 1_555
H35 C51 1_555 1_555
Eu1_2 O7 1_555 1_555
Eu1A O3 1_555 1_555
Eu1A_2 O6 1_555 1_555
Eu2_2 O9 1_555 1_555
Eu2A O12 1_555 1_555
Eu2A_2 O5 1_555 1_555
O3A Eu1 1_555 1_555
O5A Eu2 1_555 1_555
O6A Eu1 1_555 1_555
O7_2 Eu1 1_555 1_555
O9_2 Eu2 1_555 1_555
O12A Eu2 1_555 1_555
C1 O10 1_555 1_555
C5 C6 1_555 1_555
C7 C15 1_555 1_555
C14 C27 1_555 1_555
C17 C21 1_555 1_555
C19 C20 1_555 1_555
C23 C25 1_555 1_555
C32 C41 1_555 1_555
C33 C39 1_555 1_555
C33 C42 1_555 1_555
C35 C38 1_555 1_555
C35 C40 1_555 1_555
C36 C44 1_555 1_555
C37 C47 1_555 1_555
C43 C48 1_555 1_555
C45 C46 1_555 1_555
Eu1A O3A 1_555 1_555

#END
