
#######################################################################
#
#                 Cambridge Crystallographic Data Centre
#                                CCDC 
#
#######################################################################
#
# If this CIF has been generated from an entry in the Cambridge 
# Structural Database, then it will include bibliographic, chemical, 
# crystal, experimental, refinement or atomic coordinate data resulting 
# from the CCDC's data processing and validation procedures.
#
#######################################################################

data_EXAPEA
_chemical_formula_moiety         '(C32 H22 Cl1 Cu1 N4 O5 S8)n'
_symmetry_cell_setting           tetragonal
_symmetry_space_group_name_H-M   'P 4/n'
_symmetry_Int_Tables_number      85
_space_group_name_Hall           '-P 4a'
loop_
_symmetry_equiv_pos_site_id
_symmetry_equiv_pos_as_xyz
1 x,y,z
2 1/2-x,1/2-y,z
3 1/2-y,x,z
4 y,1/2-x,z
5 -x,-y,-z
6 1/2+x,1/2+y,-z
7 1/2+y,-x,-z
8 -y,1/2+x,-z
_cell_length_a                   15.437(2)
_cell_length_b                   15.437(2)
_cell_length_c                   7.5112(15)
_cell_angle_alpha                90
_cell_angle_beta                 90
_cell_angle_gamma                90
_cell_volume                     1789.93
loop_
_atom_site_label
_atom_site_type_symbol
_atom_site_fract_x
_atom_site_fract_y
_atom_site_fract_z
Cu1 Cu 0.2500 0.7500 0.5000
S1 S 0.41788(9) 0.52951(10) 1.27047(17)
S2 S 0.59615(10) 0.58087(12) 1.3630(2)
N1 N 0.3332(3) 0.6805(3) 0.6602(5)
C1 C 0.4756(3) 0.5906(3) 1.1130(6)
C2 C 0.5565(4) 0.6127(4) 1.1576(7)
H1 H 0.5908 0.6445 1.0797
C3 C 0.5030(3) 0.5225(3) 1.4237(6)
C4 C 0.4191(3) 0.6936(3) 0.6750(6)
H2 H 0.4466 0.7247 0.5854
C5 C 0.4687(3) 0.6639(3) 0.8135(6)
H3 H 0.5279 0.6748 0.8160
C6 C 0.4297(3) 0.6172(3) 0.9503(6)
C7 C 0.3425(4) 0.5996(4) 0.9298(7)
H4 H 0.3139 0.5658 1.0139
C8 C 0.2976(4) 0.6316(4) 0.7858(7)
H5 H 0.2391 0.6182 0.7758
S1D S 0.58212(9) 0.47049(10) 1.72953(17)
S2D S 0.40385(10) 0.41913(12) 1.6370(2)
N1D N 0.6668(3) 0.3195(3) 2.3398(5)
C1D C 0.5244(3) 0.4094(3) 1.8870(6)
C2D C 0.4435(4) 0.3873(4) 1.8424(7)
H1D H 0.4092 0.3555 1.9203
C3D C 0.4970(3) 0.4775(3) 1.5763(6)
C4D C 0.5809(3) 0.3064(3) 2.3250(6)
H2D H 0.5534 0.2753 2.4146
C5D C 0.5313(3) 0.3361(3) 2.1865(6)
H3D H 0.4721 0.3252 2.1840
C6D C 0.5703(3) 0.3828(3) 2.0497(6)
C7D C 0.6575(4) 0.4004(4) 2.0702(7)
H4D H 0.6861 0.4342 1.9861
C8D C 0.7024(4) 0.3684(4) 2.2142(7)
H5D H 0.7609 0.3818 2.2242
S1A S 0.08212(9) 0.97049(10) 1.27047(17)
S2A S -0.09615(10) 0.91913(12) 1.3630(2)
N1A N 0.1668(3) 0.8195(3) 0.6602(5)
C1A C 0.0244(3) 0.9094(3) 1.1130(6)
C2A C -0.0565(4) 0.8873(4) 1.1576(7)
H1A H -0.0908 0.8555 1.0797
C3A C -0.0030(3) 0.9775(3) 1.4237(6)
C4A C 0.0809(3) 0.8064(3) 0.6750(6)
H2A H 0.0534 0.7753 0.5854
C5A C 0.0313(3) 0.8361(3) 0.8135(6)
H3A H -0.0279 0.8252 0.8160
C6A C 0.0703(3) 0.8828(3) 0.9503(6)
C7A C 0.1575(4) 0.9004(4) 0.9298(7)
H4A H 0.1861 0.9342 1.0139
C8A C 0.2024(4) 0.8684(4) 0.7858(7)
H5A H 0.2609 0.8818 0.7758
S1E S -0.08212(9) 1.02951(10) 1.72953(17)
S2E S 0.09615(10) 1.08087(12) 1.6370(2)
N1E N -0.1668(3) 1.1805(3) 2.3398(5)
C1E C -0.0244(3) 1.0906(3) 1.8870(6)
C2E C 0.0565(4) 1.1127(4) 1.8424(7)
H1E H 0.0908 1.1445 1.9203
C3E C 0.0030(3) 1.0225(3) 1.5763(6)
C4E C -0.0809(3) 1.1936(3) 2.3250(6)
H2E H -0.0534 1.2247 2.4146
C5E C -0.0313(3) 1.1639(3) 2.1865(6)
H3E H 0.0279 1.1748 2.1840
C6E C -0.0703(3) 1.1172(3) 2.0497(6)
C7E C -0.1575(4) 1.0996(4) 2.0702(7)
H4E H -0.1861 1.0658 1.9861
C8E C -0.2024(4) 1.1316(4) 2.2142(7)
H5E H -0.2609 1.1182 2.2242
Cu1B Cu -0.2500 1.2500 2.5000
Cu1B_2 Cu 0.7500 0.2500 2.5000
N1F N 0.1805(3) 0.6668(3) 0.3398(5)
N1G N 0.3195(3) 0.8332(3) 0.3398(5)
Cl1 Cl 0.7500 0.7500 0.9224(10)
O1 O 0.7317(8) 0.6643(7) 0.927(3)
O1A O 0.7683(8) 0.8357(7) 0.927(3)
O1B O 0.8357(7) 0.7317(8) 0.927(3)
O1C O 0.6643(7) 0.7683(8) 0.927(3)
O2 O 0.7500 0.7500 1.612(4)
loop_
_geom_bond_atom_site_label_1
_geom_bond_atom_site_label_2
_geom_bond_site_symmetry_1
_geom_bond_site_symmetry_2
Cu1 N1 1_555 1_555
S1 C1 1_555 1_555
S2 C2 1_555 1_555
N1 C4 1_555 1_555
C1 C2 1_555 1_555
C2 H1 1_555 1_555
C3 S1 1_555 1_555
C4 H2 1_555 1_555
C5 C4 1_555 1_555
H3 C5 1_555 1_555
C6 C1 1_555 1_555
C7 C6 1_555 1_555
H4 C7 1_555 1_555
C8 N1 1_555 1_555
H5 C8 1_555 1_555
Cl1 O1 1_555 1_555
S1D C1D 1_555 1_555
S2D C2D 1_555 1_555
N1D C4D 1_555 1_555
C1D C2D 1_555 1_555
C2D H1D 1_555 1_555
C3D C3 1_555 1_555
C4D H2D 1_555 1_555
C5D C4D 1_555 1_555
H3D C5D 1_555 1_555
C6D C1D 1_555 1_555
C7D C6D 1_555 1_555
H4D C7D 1_555 1_555
C8D N1D 1_555 1_555
H5D C8D 1_555 1_555
S1A C1A 1_555 1_555
S2A C2A 1_555 1_555
N1A Cu1 1_555 1_555
C1A C2A 1_555 1_555
C2A H1A 1_555 1_555
C3A S1A 1_555 1_555
C4A N1A 1_555 1_555
H2A C4A 1_555 1_555
C5A C4A 1_555 1_555
H3A C5A 1_555 1_555
C6A C1A 1_555 1_555
C7A C6A 1_555 1_555
H4A C7A 1_555 1_555
C8A N1A 1_555 1_555
H5A C8A 1_555 1_555
S1E C1E 1_555 1_555
S2E C2E 1_555 1_555
N1E C4E 1_555 1_555
C1E C2E 1_555 1_555
C2E H1E 1_555 1_555
C3E C3A 1_555 1_555
C4E H2E 1_555 1_555
C5E C4E 1_555 1_555
H3E C5E 1_555 1_555
C6E C1E 1_555 1_555
C7E C6E 1_555 1_555
H4E C7E 1_555 1_555
C8E N1E 1_555 1_555
H5E C8E 1_555 1_555
Cu1B N1E 1_555 1_555
Cu1B_2 N1D 1_555 1_555
N1F Cu1 1_555 1_555
N1G Cu1 1_555 1_555
O1A Cl1 1_555 1_555
O1B Cl1 1_555 1_555
O1C Cl1 1_555 1_555
S2 C3 1_555 1_555
C5 C6 1_555 1_555
C7 C8 1_555 1_555
S1D C3D 1_555 1_555
S2D C3D 1_555 1_555
C5D C6D 1_555 1_555
C7D C8D 1_555 1_555
S2A C3A 1_555 1_555
C5A C6A 1_555 1_555
C7A C8A 1_555 1_555
S1E C3E 1_555 1_555
S2E C3E 1_555 1_555
C5E C6E 1_555 1_555
C7E C8E 1_555 1_555

#END
