
#######################################################################
#
#                 Cambridge Crystallographic Data Centre
#                                CCDC 
#
#######################################################################
#
# If this CIF has been generated from an entry in the Cambridge 
# Structural Database, then it will include bibliographic, chemical, 
# crystal, experimental, refinement or atomic coordinate data resulting 
# from the CCDC's data processing and validation procedures.
#
#######################################################################

data_EMOFIX
_chemical_formula_moiety         '(C40 H50 N8 O14 Zn2)n'
_symmetry_cell_setting           monoclinic
_symmetry_space_group_name_H-M   'P 21/c'
_symmetry_Int_Tables_number      14
_space_group_name_Hall           '-P 2ybc'
loop_
_symmetry_equiv_pos_site_id
_symmetry_equiv_pos_as_xyz
1 x,y,z
2 -x,1/2+y,1/2-z
3 -x,-y,-z
4 x,1/2-y,1/2+z
_cell_length_a                   8.045(4)
_cell_length_b                   17.549(8)
_cell_length_c                   18.014(7)
_cell_angle_alpha                90
_cell_angle_beta                 108.093(18)
_cell_angle_gamma                90
_cell_volume                     2417.49
loop_
_atom_site_label
_atom_site_type_symbol
_atom_site_fract_x
_atom_site_fract_y
_atom_site_fract_z
Zn1 Zn 0.11899(7) 0.19131(3) 0.73341(3)
O1 O 0.2067(5) 0.1830(2) 0.6445(2)
O2 O 0.4456(6) 0.1179(3) 0.7059(2)
O3 O 0.7314(6) 0.0823(3) 0.4903(3)
O4 O 0.0914(5) 0.2677(3) 0.3725(2)
O5 O 0.2867(5) 0.2475(2) 0.3138(2)
N1 N -0.1025(6) 0.2490(2) 0.6826(3)
N2 N -0.3579(7) 0.3017(3) 0.6626(3)
N3 N -1.0578(6) 0.5880(3) 0.7385(3)
N4 N -0.9220(8) 0.4949(3) 0.7018(4)
C1 C 0.2310(7) 0.2396(3) 0.3717(3)
C2 C 0.3411(6) 0.1954(3) 0.4411(3)
C3 C 0.2955(6) 0.1927(3) 0.5093(3)
H1 H 0.1967 0.2185 0.5123
C4 C 0.3970(6) 0.1519(3) 0.5729(3)
C5 C 0.5880(6) 0.1168(3) 0.5005(3)
C6 C 0.4887(7) 0.1574(3) 0.4371(3)
H2 H 0.5204 0.1594 0.3917
C7 C 0.5435(6) 0.1134(3) 0.5689(3)
H3 H 0.6114 0.0855 0.6115
C8 C 0.3493(6) 0.1494(3) 0.6478(3)
C9 C -0.3142(9) 0.3133(4) 0.5970(4)
H4 H -0.3794 0.3392 0.5525
C10 C -0.1544(8) 0.2791(4) 0.6092(4)
H5 H -0.0922 0.2769 0.5735
C11 C -0.2295(7) 0.2636(3) 0.7125(4)
H6 H -0.2286 0.2491 0.7623
C12 C -0.5153(8) 0.3297(4) 0.6792(5)
H7 H -0.6118 0.3324 0.6310
H8 H -0.5472 0.2944 0.7140
C13 C -0.4834(9) 0.4062(4) 0.7159(5)
H9 H -0.4596 0.4417 0.6792
H10 H -0.3798 0.4038 0.7613
C14 C -0.6352(9) 0.4371(4) 0.7413(4)
H11 H -0.6674 0.3995 0.7739
H12 H -0.5973 0.4827 0.7723
C15 C -1.1233(8) 0.5201(4) 0.7543(5)
H13 H -1.2128 0.5146 0.7764
C16 C -0.9348(10) 0.5700(4) 0.7085(5)
H14 H -0.8649 0.6053 0.6937
C17 C -0.7905(11) 0.4553(5) 0.6738(4)
H15 H -0.8400 0.4088 0.6469
H16 H -0.7565 0.4877 0.6373
C18 C -1.0388(11) 0.4628(4) 0.7329(6)
H17 H -1.0565 0.4110 0.7383
C19 C 0.8412(11) 0.0374(6) 0.5530(4)
H18 H 0.7860 -0.0111 0.5565
H19 H 0.8635 0.0640 0.6024
C20 C 1.0165(11) 0.0247(5) 0.5333(5)
H20 H 1.0612 0.0732 0.5220
H21 H 1.1035 0.0020 0.5777
O1B O 1.7933(5) -0.1830(2) 0.3555(2)
O2B O 1.5544(6) -0.1179(3) 0.2941(2)
O3B O 1.2686(6) -0.0823(3) 0.5097(3)
O4B O 1.9086(5) -0.2677(3) 0.6275(2)
O5B O 1.7133(5) -0.2475(2) 0.6862(2)
C1B C 1.7690(7) -0.2396(3) 0.6283(3)
C2B C 1.6589(6) -0.1954(3) 0.5589(3)
C3B C 1.7045(6) -0.1927(3) 0.4907(3)
H1B H 1.8033 -0.2185 0.4877
C4B C 1.6030(6) -0.1519(3) 0.4271(3)
C5B C 1.4120(6) -0.1168(3) 0.4995(3)
C6B C 1.5113(7) -0.1574(3) 0.5629(3)
H2B H 1.4796 -0.1594 0.6083
C7B C 1.4565(6) -0.1134(3) 0.4311(3)
H3B H 1.3886 -0.0855 0.3885
C8B C 1.6507(6) -0.1494(3) 0.3522(3)
C19B C 1.1588(11) -0.0374(6) 0.4470(4)
H18B H 1.2140 0.0111 0.4435
H19B H 1.1365 -0.0640 0.3976
C20B C 0.9835(11) -0.0247(5) 0.4667(5)
H20B H 0.9388 -0.0732 0.4780
H21B H 0.8965 -0.0020 0.4223
Zn1B Zn 1.88101(7) -0.19131(3) 0.26659(3)
N1B N 2.1025(6) -0.2490(2) 0.3174(3)
N2B N 2.3579(7) -0.3017(3) 0.3374(3)
N3B N 3.0578(6) -0.5880(3) 0.2615(3)
N4B N 2.9220(8) -0.4949(3) 0.2982(4)
C9B C 2.3142(9) -0.3133(4) 0.4030(4)
H4B H 2.3794 -0.3392 0.4475
C10B C 2.1544(8) -0.2791(4) 0.3908(4)
H5B H 2.0922 -0.2769 0.4265
C11B C 2.2295(7) -0.2636(3) 0.2875(4)
H6B H 2.2286 -0.2491 0.2377
C12B C 2.5153(8) -0.3297(4) 0.3208(5)
H7B H 2.6118 -0.3324 0.3690
H8B H 2.5472 -0.2944 0.2860
C13B C 2.4834(9) -0.4062(4) 0.2841(5)
H9B H 2.4596 -0.4417 0.3208
H10B H 2.3798 -0.4038 0.2387
C14B C 2.6352(9) -0.4371(4) 0.2587(4)
H11B H 2.6674 -0.3995 0.2261
H12B H 2.5973 -0.4827 0.2277
C15B C 3.1233(8) -0.5201(4) 0.2457(5)
H13B H 3.2128 -0.5146 0.2236
C16B C 2.9348(10) -0.5700(4) 0.2915(5)
H14B H 2.8649 -0.6053 0.3063
C17B C 2.7905(11) -0.4553(5) 0.3262(4)
H15B H 2.8400 -0.4088 0.3531
H16B H 2.7565 -0.4877 0.3627
C18B C 3.0388(11) -0.4628(4) 0.2671(6)
H17B H 3.0565 -0.4110 0.2617
Zn1A Zn -1.11899(7) 0.69131(3) 0.76659(3)
Zn1A_2 Zn 1.88101(7) -0.30869(3) 0.76659(3)
Zn1C Zn 0.11899(7) 0.30869(3) 0.23341(3)
Zn1C_2 Zn 3.11899(7) -0.69131(3) 0.23341(3)
O5A O 1.7133(5) -0.2525(2) 0.1862(2)
O5C O 0.2867(5) 0.2525(2) 0.8138(2)
N3A N 0.0578(6) 0.0880(3) 0.7615(3)
N3C N 1.9422(6) -0.0880(3) 0.2385(3)
O6 O 0.400(4) 0.0636(13) 0.9602(10)
O7 O 0.079(7) 0.1180(11) 0.9816(12)
O8 O 0.6039(13) 0.1347(6) 0.8653(4)
O9 O 0.8155(13) 0.2838(10) 0.9054(7)
loop_
_geom_bond_atom_site_label_1
_geom_bond_atom_site_label_2
_geom_bond_site_symmetry_1
_geom_bond_site_symmetry_2
Zn1 O1 1_555 1_555
O1 C8 1_555 1_555
O2 C8 1_555 1_555
O3 C5 1_555 1_555
O4 C1 1_555 1_555
O5 C1 1_555 1_555
N1 Zn1 1_555 1_555
N2 C9 1_555 1_555
N3 C15 1_555 1_555
N4 C16 1_555 1_555
C1 C2 1_555 1_555
C2 C3 1_555 1_555
C3 H1 1_555 1_555
C4 C3 1_555 1_555
C5 C6 1_555 1_555
C6 C2 1_555 1_555
H2 C6 1_555 1_555
C7 C4 1_555 1_555
H3 C7 1_555 1_555
C8 C4 1_555 1_555
C9 H4 1_555 1_555
C10 N1 1_555 1_555
H5 C10 1_555 1_555
C11 N1 1_555 1_555
H6 C11 1_555 1_555
C12 N2 1_555 1_555
H7 C12 1_555 1_555
H8 C12 1_555 1_555
C13 C12 1_555 1_555
H9 C13 1_555 1_555
H10 C13 1_555 1_555
C14 C13 1_555 1_555
H11 C14 1_555 1_555
H12 C14 1_555 1_555
C15 H13 1_555 1_555
C16 N3 1_555 1_555
H14 C16 1_555 1_555
C17 N4 1_555 1_555
H15 C17 1_555 1_555
H16 C17 1_555 1_555
C18 N4 1_555 1_555
H17 C18 1_555 1_555
C19 O3 1_555 1_555
H18 C19 1_555 1_555
H19 C19 1_555 1_555
C20 C19 1_555 1_555
H20 C20 1_555 1_555
H21 C20 1_555 1_555
O1B C8B 1_555 1_555
O2B C8B 1_555 1_555
O3B C5B 1_555 1_555
O4B C1B 1_555 1_555
O5B C1B 1_555 1_555
C1B C2B 1_555 1_555
C2B C3B 1_555 1_555
C3B H1B 1_555 1_555
C4B C3B 1_555 1_555
C5B C6B 1_555 1_555
C6B C2B 1_555 1_555
H2B C6B 1_555 1_555
C7B C4B 1_555 1_555
H3B C7B 1_555 1_555
C8B C4B 1_555 1_555
C19B O3B 1_555 1_555
H18B C19B 1_555 1_555
H19B C19B 1_555 1_555
C20B C20 1_555 1_555
H20B C20B 1_555 1_555
H21B C20B 1_555 1_555
Zn1B O1B 1_555 1_555
N1B Zn1B 1_555 1_555
N2B C9B 1_555 1_555
N3B C15B 1_555 1_555
N4B C16B 1_555 1_555
C9B H4B 1_555 1_555
C10B N1B 1_555 1_555
H5B C10B 1_555 1_555
C11B N1B 1_555 1_555
H6B C11B 1_555 1_555
C12B N2B 1_555 1_555
H7B C12B 1_555 1_555
H8B C12B 1_555 1_555
C13B C12B 1_555 1_555
H9B C13B 1_555 1_555
H10B C13B 1_555 1_555
C14B C13B 1_555 1_555
H11B C14B 1_555 1_555
H12B C14B 1_555 1_555
C15B H13B 1_555 1_555
C16B N3B 1_555 1_555
H14B C16B 1_555 1_555
C17B N4B 1_555 1_555
H15B C17B 1_555 1_555
H16B C17B 1_555 1_555
C18B N4B 1_555 1_555
H17B C18B 1_555 1_555
Zn1A N3 1_555 1_555
Zn1A_2 O5B 1_555 1_555
Zn1C O5 1_555 1_555
Zn1C_2 N3B 1_555 1_555
O5A Zn1B 1_555 1_555
O5C Zn1 1_555 1_555
N3A Zn1 1_555 1_555
N3C Zn1B 1_555 1_555
N2 C11 1_555 1_555
C5 C7 1_555 1_555
C9 C10 1_555 1_555
C14 C17 1_555 1_555
C15 C18 1_555 1_555
C5B C7B 1_555 1_555
C19B C20B 1_555 1_555
N2B C11B 1_555 1_555
C9B C10B 1_555 1_555
C14B C17B 1_555 1_555
C15B C18B 1_555 1_555

#END
