
#######################################################################
#
#                 Cambridge Crystallographic Data Centre
#                                CCDC 
#
#######################################################################
#
# If this CIF has been generated from an entry in the Cambridge 
# Structural Database, then it will include bibliographic, chemical, 
# crystal, experimental, refinement or atomic coordinate data resulting 
# from the CCDC's data processing and validation procedures.
#
#######################################################################

data_EMOHIZ
_chemical_formula_moiety         '(C40 H50 Co2 N8 O14)n'
_symmetry_cell_setting           monoclinic
_symmetry_space_group_name_H-M   'P 21/c'
_symmetry_Int_Tables_number      14
_space_group_name_Hall           '-P 2ybc'
loop_
_symmetry_equiv_pos_site_id
_symmetry_equiv_pos_as_xyz
1 x,y,z
2 -x,1/2+y,1/2-z
3 -x,-y,-z
4 x,1/2-y,1/2+z
_cell_length_a                   8.0319(8)
_cell_length_b                   17.9407(19)
_cell_length_c                   17.9318(17)
_cell_angle_alpha                90
_cell_angle_beta                 108.644(4)
_cell_angle_gamma                90
_cell_volume                     2448.34
loop_
_atom_site_label
_atom_site_type_symbol
_atom_site_fract_x
_atom_site_fract_y
_atom_site_fract_z
Co1 Co 0.12685(7) 0.80998(3) 0.23644(3)
O1 O 0.3052(5) 0.7494(2) 0.31503(18)
O2 O 0.1037(5) 0.7712(3) 0.3700(2)
O3 O 0.7317(6) 0.5799(3) 0.4906(3)
O4 O 0.2065(4) 0.68454(17) 0.64387(17)
O5 O 0.4411(5) 0.6171(3) 0.7053(2)
N1 N 0.0541(5) 0.9134(2) 0.2573(2)
N2 N -0.0938(11) 1.0039(4) 0.2854(6)
N3 N -0.9035(5) 1.2516(2) 0.3138(2)
N4 N -0.6472(6) 1.1977(3) 0.3347(4)
C1 C 0.3496(6) 0.6973(2) 0.4416(2)
C2 C 0.3005(5) 0.6943(2) 0.5092(2)
H1 H 0.2019 0.7203 0.5114
C3 C 0.3976(5) 0.6530(2) 0.5731(2)
C4 C 0.5452(5) 0.6132(3) 0.5700(3)
H2 H 0.6108 0.5850 0.6129
C5 C 0.5922(6) 0.6166(3) 0.5014(3)
C6 C 0.4976(6) 0.6587(3) 0.4388(3)
H3 H 0.5323 0.6615 0.3941
C7 C 0.8400(13) 0.5351(7) 0.5504(5)
H4 H 0.8687 0.5562 0.6028
H5 H 0.7834 0.4870 0.5484
C8 C -0.0787(11) 0.9304(4) 0.2793(5)
H6 H -0.1545 0.8958 0.2897
C9 C 0.0284(12) 1.0361(4) 0.2588(7)
H7 H 0.0449 1.0868 0.2528
C10 C 0.1215(8) 0.9792(3) 0.2429(5)
H8 H 0.2173 0.9843 0.2248
C11 C -0.2191(16) 1.0432(7) 0.3220(7)
H9 H -0.2558 1.0099 0.3563
H10 H -0.1645 1.0870 0.3516
C12 C -0.3590(12) 1.0626(6) 0.2567(6)
H11 H -0.4014 1.0187 0.2247
H12 H -0.3201 1.0983 0.2252
C13 C -0.7763(7) 1.2352(3) 0.2842(4)
H13 H -0.7777 1.2485 0.2338
C14 C -0.8508(8) 1.2219(3) 0.3880(3)
H14 H -0.9130 1.2238 0.4236
C15 C -0.6918(9) 1.1891(3) 0.4005(4)
H15 H -0.6256 1.1650 0.4463
C16 C -0.4878(9) 1.1697(4) 0.3192(6)
H16 H -0.4538 1.2048 0.2855
H17 H -0.3922 1.1665 0.3685
C17 C -0.5156(11) 1.0980(5) 0.2824(7)
H18 H -0.6182 1.1014 0.2358
H19 H -0.5439 1.0634 0.3181
C18 C 0.3479(5) 0.6504(2) 0.6467(2)
C19 C 0.2444(6) 0.7415(3) 0.3718(2)
C20 C 1.0201(10) 0.5308(6) 0.5297(7)
H20 H 1.1343 0.5269 0.5698
H21 H 1.0186 0.5669 0.4892
O1B O 1.6948(5) 0.2506(2) 0.68497(18)
O2B O 1.8963(5) 0.2288(3) 0.6300(2)
O3B O 1.2683(6) 0.4201(3) 0.5094(3)
O4B O 1.7935(4) 0.31546(17) 0.35613(17)
O5B O 1.5589(5) 0.3829(3) 0.2947(2)
C1B C 1.6504(6) 0.3027(2) 0.5584(2)
C2B C 1.6995(5) 0.3057(2) 0.4908(2)
H1B H 1.7981 0.2797 0.4886
C3B C 1.6024(5) 0.3470(2) 0.4269(2)
C4B C 1.4548(5) 0.3868(3) 0.4300(3)
H2B H 1.3892 0.4150 0.3871
C5B C 1.4078(6) 0.3834(3) 0.4986(3)
C6B C 1.5024(6) 0.3413(3) 0.5612(3)
H3B H 1.4677 0.3385 0.6059
C7B C 1.1600(13) 0.4649(7) 0.4496(5)
H4B H 1.1313 0.4438 0.3972
H5B H 1.2166 0.5130 0.4516
C18B C 1.6521(5) 0.3496(2) 0.3533(2)
C19B C 1.7556(6) 0.2585(3) 0.6282(2)
C20B C 0.9799(10) 0.4692(6) 0.4703(7)
H20B H 0.8657 0.4731 0.4302
H21B H 0.9814 0.4331 0.5108
Co1B Co 1.87315(7) 0.19002(3) 0.76356(3)
N1B N 1.9459(5) 0.0866(2) 0.7427(2)
N2B N 2.0938(11) -0.0039(4) 0.7146(6)
N3B N 2.9035(5) -0.2516(2) 0.6862(2)
N4B N 2.6472(6) -0.1977(3) 0.6653(4)
C8B C 2.0787(11) 0.0696(4) 0.7207(5)
H6B H 2.1545 0.1042 0.7103
C9B C 1.9716(12) -0.0361(4) 0.7412(7)
H7B H 1.9551 -0.0868 0.7472
C10B C 1.8785(8) 0.0208(3) 0.7571(5)
H8B H 1.7827 0.0157 0.7752
C11B C 2.2191(16) -0.0432(7) 0.6780(7)
H9B H 2.2558 -0.0099 0.6437
H10B H 2.1645 -0.0870 0.6484
C12B C 2.3590(12) -0.0626(6) 0.7433(6)
H11B H 2.4014 -0.0187 0.7753
H12B H 2.3201 -0.0983 0.7748
C13B C 2.7763(7) -0.2352(3) 0.7158(4)
H13B H 2.7777 -0.2485 0.7662
C14B C 2.8508(8) -0.2219(3) 0.6120(3)
H14B H 2.9130 -0.2238 0.5764
C15B C 2.6918(9) -0.1891(3) 0.5995(4)
H15B H 2.6256 -0.1650 0.5537
C16B C 2.4878(9) -0.1697(4) 0.6808(6)
H16B H 2.4538 -0.2048 0.7145
H17B H 2.3922 -0.1665 0.6315
C17B C 2.5156(11) -0.0980(5) 0.7176(7)
H18B H 2.6182 -0.1014 0.7642
H19B H 2.5439 -0.0634 0.6819
Co1A Co -1.12685(7) 1.30998(3) 0.26356(3)
Co1A_2 Co 1.87315(7) 0.30998(3) 0.26356(3)
Co1C Co 0.12685(7) 0.69002(3) 0.73644(3)
Co1C_2 Co 3.12685(7) -0.30998(3) 0.73644(3)
O4A O 1.7935(4) 0.18454(17) 0.85613(17)
O4C O 0.2065(4) 0.81546(17) 0.14387(17)
N3A N -0.0965(5) 0.7516(2) 0.1862(2)
N3C N 2.0965(5) 0.2484(2) 0.8138(2)
O6 O 0.6129(14) 0.8628(7) 0.3663(5)
O7 O 0.009(5) 0.8720(13) 0.4711(13)
O8 O 0.829(3) 0.723(3) 0.4073(15)
O9 O 0.399(4) 0.9443(14) 0.4622(11)
loop_
_geom_bond_atom_site_label_1
_geom_bond_atom_site_label_2
_geom_bond_site_symmetry_1
_geom_bond_site_symmetry_2
Co1 O1 1_555 1_555
O1 C19 1_555 1_555
O2 C19 1_555 1_555
O3 C5 1_555 1_555
O4 C18 1_555 1_555
O5 C18 1_555 1_555
N1 Co1 1_555 1_555
N2 C8 1_555 1_555
N3 C13 1_555 1_555
N4 C13 1_555 1_555
C1 C2 1_555 1_555
C2 H1 1_555 1_555
C3 C2 1_555 1_555
C4 C3 1_555 1_555
H2 C4 1_555 1_555
C5 C4 1_555 1_555
C6 C1 1_555 1_555
H3 C6 1_555 1_555
C7 O3 1_555 1_555
H4 C7 1_555 1_555
H5 C7 1_555 1_555
C8 N1 1_555 1_555
H6 C8 1_555 1_555
C9 N2 1_555 1_555
H7 C9 1_555 1_555
C10 N1 1_555 1_555
H8 C10 1_555 1_555
C11 N2 1_555 1_555
H9 C11 1_555 1_555
H10 C11 1_555 1_555
C12 C11 1_555 1_555
H11 C12 1_555 1_555
H12 C12 1_555 1_555
C13 H13 1_555 1_555
C14 N3 1_555 1_555
H14 C14 1_555 1_555
C15 N4 1_555 1_555
H15 C15 1_555 1_555
C16 N4 1_555 1_555
H16 C16 1_555 1_555
H17 C16 1_555 1_555
C17 C12 1_555 1_555
H18 C17 1_555 1_555
H19 C17 1_555 1_555
C18 C3 1_555 1_555
C19 C1 1_555 1_555
C20 C7 1_555 1_555
H20 C20 1_555 1_555
H21 C20 1_555 1_555
O1B C19B 1_555 1_555
O2B C19B 1_555 1_555
O3B C5B 1_555 1_555
O4B C18B 1_555 1_555
O5B C18B 1_555 1_555
C1B C2B 1_555 1_555
C2B H1B 1_555 1_555
C3B C2B 1_555 1_555
C4B C3B 1_555 1_555
H2B C4B 1_555 1_555
C5B C4B 1_555 1_555
C6B C1B 1_555 1_555
H3B C6B 1_555 1_555
C7B O3B 1_555 1_555
H4B C7B 1_555 1_555
H5B C7B 1_555 1_555
C18B C3B 1_555 1_555
C19B C1B 1_555 1_555
C20B C20 1_555 1_555
H20B C20B 1_555 1_555
H21B C20B 1_555 1_555
Co1B O1B 1_555 1_555
N1B Co1B 1_555 1_555
N2B C8B 1_555 1_555
N3B C13B 1_555 1_555
N4B C13B 1_555 1_555
C8B N1B 1_555 1_555
H6B C8B 1_555 1_555
C9B N2B 1_555 1_555
H7B C9B 1_555 1_555
C10B N1B 1_555 1_555
H8B C10B 1_555 1_555
C11B N2B 1_555 1_555
H9B C11B 1_555 1_555
H10B C11B 1_555 1_555
C12B C11B 1_555 1_555
H11B C12B 1_555 1_555
H12B C12B 1_555 1_555
C13B H13B 1_555 1_555
C14B N3B 1_555 1_555
H14B C14B 1_555 1_555
C15B N4B 1_555 1_555
H15B C15B 1_555 1_555
C16B N4B 1_555 1_555
H16B C16B 1_555 1_555
H17B C16B 1_555 1_555
C17B C12B 1_555 1_555
H18B C17B 1_555 1_555
H19B C17B 1_555 1_555
Co1A N3 1_555 1_555
Co1A_2 O4B 1_555 1_555
Co1C O4 1_555 1_555
Co1C_2 N3B 1_555 1_555
O4A Co1B 1_555 1_555
O4C Co1 1_555 1_555
N3A Co1 1_555 1_555
N3C Co1B 1_555 1_555
C5 C6 1_555 1_555
C9 C10 1_555 1_555
C14 C15 1_555 1_555
C16 C17 1_555 1_555
C5B C6B 1_555 1_555
C7B C20B 1_555 1_555
C9B C10B 1_555 1_555
C14B C15B 1_555 1_555
C16B C17B 1_555 1_555

#END
