
#######################################################################
#
#                 Cambridge Crystallographic Data Centre
#                                CCDC 
#
#######################################################################
#
# If this CIF has been generated from an entry in the Cambridge 
# Structural Database, then it will include bibliographic, chemical, 
# crystal, experimental, refinement or atomic coordinate data resulting 
# from the CCDC's data processing and validation procedures.
#
#######################################################################

data_CUMDIY
_chemical_formula_moiety         '(C12 H32 La2 N4 O15 P4)n'
_symmetry_cell_setting           triclinic
_symmetry_space_group_name_H-M   'P -1'
_symmetry_Int_Tables_number      2
_space_group_name_Hall           '-P 1'
loop_
_symmetry_equiv_pos_site_id
_symmetry_equiv_pos_as_xyz
1 x,y,z
2 -x,-y,-z
_cell_length_a                   5.7630(13)
_cell_length_b                   10.213(2)
_cell_length_c                   11.649(2)
_cell_angle_alpha                84.2420(16)
_cell_angle_beta                 89.0510(17)
_cell_angle_gamma                82.8760(18)
_cell_volume                     676.9
loop_
_atom_site_label
_atom_site_type_symbol
_atom_site_fract_x
_atom_site_fract_y
_atom_site_fract_z
La1 La 0.78229(7) 0.85477(4) 0.52805(3)
P1 P 0.2792(3) 0.82991(18) 0.33873(17)
P2 P 1.3298(3) 0.83987(19) 0.69054(17)
O1 O 0.5041(9) 0.7775(5) 0.4029(5)
O2 O 0.1163(9) 0.9271(5) 0.4067(4)
O3 O 0.3140(9) 0.8903(5) 0.2149(5)
O4 O 1.1129(9) 0.7814(5) 0.6576(4)
O5 O 1.5553(9) 0.7422(5) 0.7016(5)
O6 O 1.3926(9) 0.9582(5) 0.6083(5)
N1 N 0.0203(10) 0.6275(6) 0.4300(5)
N2 N 1.4007(11) 0.9710(6) 0.8915(5)
H1 H 1.4885 1.0172 0.8403
C1 C 0.1092(12) 0.6939(7) 0.3217(6)
H2 H -0.0233 0.7278 0.2724
H3 H 0.2056 0.6278 0.2819
C2 C 0.2168(12) 0.5498(7) 0.4976(7)
H4 H 0.3208 0.6100 0.5210
H5 H 0.3051 0.4897 0.4489
C3 C -0.1334(13) 0.5292(7) 0.3963(7)
H6 H -0.0467 0.4695 0.3467
H7 H -0.2671 0.5756 0.3536
C4 C 1.2332(13) 0.9045(8) 0.8259(7)
H8 H 1.0948 0.9677 0.8098
H9 H 1.1855 0.8315 0.8769
C5 C 1.2725(13) 1.0639(8) 0.9675(7)
H10 H 1.1744 1.0157 1.0206
H11 H 1.1718 1.1311 0.9208
C6 C 1.5597(14) 0.8690(8) 0.9638(7)
H12 H 1.6486 0.8099 0.9145
H13 H 1.4673 0.8166 1.0165
La1A La -0.78229(7) 0.14523(4) 0.47195(3)
La1_2 La -0.21771(7) 0.85477(4) 0.52805(3)
La1A_2 La 0.21771(7) 1.14523(4) 0.47195(3)
La1_3 La 1.78229(7) 0.85477(4) 0.52805(3)
La1A_3 La 1.21771(7) 1.14523(4) 0.47195(3)
La1A_4 La 0.21771(7) 0.14523(4) 0.47195(3)
La1_4 La -0.21771(7) -0.14523(4) 0.52805(3)
La1A_5 La 2.21771(7) 1.14523(4) 1.47195(3)
La1A_6 La 1.21771(7) 1.14523(4) 1.47195(3)
La1_5 La 1.78229(7) 0.85477(4) 1.52805(3)
P1A P -0.2792(3) 0.17009(18) 0.66127(17)
P2A P 1.6702(3) 1.16013(19) 1.30946(17)
O1A O -0.5041(9) 0.2225(5) 0.5971(5)
O2A O -0.1163(9) 0.0729(5) 0.5933(4)
O2_2 O 1.1163(9) 0.9271(5) 0.4067(4)
O2A_2 O 0.8837(9) 1.0729(5) 0.5933(4)
O2A_3 O -1.1163(9) 0.0729(5) 0.5933(4)
O2_3 O -0.8837(9) -0.0729(5) 0.4067(4)
O3A O -0.3140(9) 0.1097(5) 0.7851(5)
O4A O 1.8871(9) 1.2186(5) 1.3424(4)
O4A_2 O -1.1129(9) 0.2186(5) 0.3424(4)
O5A O 1.4447(9) 1.2578(5) 1.2984(5)
O5_2 O 0.5553(9) 0.7422(5) 0.7016(5)
O5A_2 O -0.5553(9) 0.2578(5) 0.2984(5)
O6A O 1.6074(9) 1.0418(5) 1.3917(5)
O6_2 O 0.3926(9) 0.9582(5) 0.6083(5)
O6A_2 O 0.6074(9) 1.0418(5) 0.3917(5)
O6A_3 O -0.3926(9) 0.0418(5) 0.3917(5)
O6_3 O -0.6074(9) -0.0418(5) 0.6083(5)
N1A N -0.0203(10) 0.3725(6) 0.5700(5)
N1_2 N 1.0203(10) 0.6275(6) 0.4300(5)
N1A_2 N -1.0203(10) 0.3725(6) 0.5700(5)
N2A N 1.5993(11) 1.0290(6) 1.1085(5)
H1A H 1.5115 0.9828 1.1597
C1A C -0.1092(12) 0.3061(7) 0.6783(6)
H2A H 0.0233 0.2722 0.7276
H3A H -0.2056 0.3722 0.7181
C2A C -0.2168(12) 0.4502(7) 0.5024(7)
H4A H -0.3208 0.3900 0.4790
H5A H -0.3051 0.5103 0.5511
C3A C 0.1334(13) 0.4708(7) 0.6037(7)
H6A H 0.0467 0.5305 0.6533
H7A H 0.2671 0.4244 0.6464
C4A C 1.7668(13) 1.0955(8) 1.1741(7)
H8A H 1.9052 1.0323 1.1902
H9A H 1.8145 1.1685 1.1231
C5A C 1.7275(13) 0.9361(8) 1.0325(7)
H10A H 1.8256 0.9843 0.9794
H11A H 1.8282 0.8689 1.0792
C6A C 1.4403(14) 1.1310(8) 1.0362(7)
H12A H 1.3514 1.1901 1.0855
H13A H 1.5327 1.1834 0.9835
O7 O 0.659(4) 0.534(2) 0.8677(17)
O8 O 0.795(4) 0.595(2) 1.0888(17)
O9 O 0.992(5) 0.621(3) 0.862(2)
loop_
_geom_bond_atom_site_label_1
_geom_bond_atom_site_label_2
_geom_bond_site_symmetry_1
_geom_bond_site_symmetry_2
La1 O1 1_555 1_555
P1 O1 1_555 1_555
P2 O4 1_555 1_555
O2 P1 1_555 1_555
O3 P1 1_555 1_555
O4 La1 1_555 1_555
O5 P2 1_555 1_555
O6 P2 1_555 1_555
N1 C1 1_555 1_555
N2 H1 1_555 1_555
C1 P1 1_555 1_555
H2 C1 1_555 1_555
H3 C1 1_555 1_555
C2 N1 1_555 1_555
H4 C2 1_555 1_555
H5 C2 1_555 1_555
C3 N1 1_555 1_555
H6 C3 1_555 1_555
H7 C3 1_555 1_555
C4 P2 1_555 1_555
H8 C4 1_555 1_555
H9 C4 1_555 1_555
C5 N2 1_555 1_555
H10 C5 1_555 1_555
H11 C5 1_555 1_555
C6 N2 1_555 1_555
H12 C6 1_555 1_555
H13 C6 1_555 1_555
La1A O1A 1_555 1_555
La1_2 O2 1_555 1_555
La1A_2 O2 1_555 1_555
La1_3 O5 1_555 1_555
La1A_3 O6 1_555 1_555
La1A_4 O2A 1_555 1_555
La1_4 O2A 1_555 1_555
La1A_5 O4A 1_555 1_555
La1A_6 O5A 1_555 1_555
La1_5 O6A 1_555 1_555
P1A O1A 1_555 1_555
P2A O4A 1_555 1_555
O2A P1A 1_555 1_555
O2_2 La1 1_555 1_555
O2A_2 La1 1_555 1_555
O2A_3 La1A 1_555 1_555
O2_3 La1A 1_555 1_555
O3A P1A 1_555 1_555
O4A_2 La1A 1_555 1_555
O5A P2A 1_555 1_555
O5_2 La1 1_555 1_555
O5A_2 La1A 1_555 1_555
O6A La1A_6 1_555 1_555
O6_2 La1 1_555 1_555
O6A_2 La1 1_555 1_555
O6A_3 La1A 1_555 1_555
O6_3 La1A 1_555 1_555
N1A La1A_4 1_555 1_555
N1_2 La1 1_555 1_555
N1A_2 La1A 1_555 1_555
N2A H1A 1_555 1_555
C1A P1A 1_555 1_555
H2A C1A 1_555 1_555
H3A C1A 1_555 1_555
C2A C3 1_555 1_555
H4A C2A 1_555 1_555
H5A C2A 1_555 1_555
C3A C2 1_555 1_555
H6A C3A 1_555 1_555
H7A C3A 1_555 1_555
C4A P2A 1_555 1_555
H8A C4A 1_555 1_555
H9A C4A 1_555 1_555
C5A C6 1_555 1_555
H10A C5A 1_555 1_555
H11A C5A 1_555 1_555
C6A C5 1_555 1_555
H12A C6A 1_555 1_555
H13A C6A 1_555 1_555
O6 La1_3 1_555 1_555
N1 La1_2 1_555 1_555
N2 C4 1_555 1_555
La1A_2 O6_2 1_555 1_555
La1A_2 O6A_2 1_555 1_555
La1A_3 O2_2 1_555 1_555
La1A_3 O2A_2 1_555 1_555
La1_4 O6A_3 1_555 1_555
La1_4 O6_3 1_555 1_555
P2A O6A 1_555 1_555
N1A C1A 1_555 1_555
N1A C2A 1_555 1_555
N1A C3A 1_555 1_555
N2A C4A 1_555 1_555
N2A C5A 1_555 1_555
N2A C6A 1_555 1_555

#END
