
#######################################################################
#
#                 Cambridge Crystallographic Data Centre
#                                CCDC 
#
#######################################################################
#
# If this CIF has been generated from an entry in the Cambridge 
# Structural Database, then it will include bibliographic, chemical, 
# crystal, experimental, refinement or atomic coordinate data resulting 
# from the CCDC's data processing and validation procedures.
#
#######################################################################

data_CUMDEU
_chemical_formula_moiety         '(C8 H22 Ce1 N2 Na1 O9 P2)n'
_symmetry_cell_setting           monoclinic
_symmetry_space_group_name_H-M   'C 2/c'
_symmetry_Int_Tables_number      15
_space_group_name_Hall           '-C 2yc'
loop_
_symmetry_equiv_pos_site_id
_symmetry_equiv_pos_as_xyz
1 x,y,z
2 -x,y,1/2-z
3 1/2+x,1/2+y,z
4 1/2-x,1/2+y,1/2-z
5 -x,-y,-z
6 x,-y,1/2+z
7 1/2-x,1/2-y,-z
8 1/2+x,1/2-y,1/2+z
_cell_length_a                   22.9150(5)
_cell_length_b                   14.28020(32)
_cell_length_c                   5.64514(10)
_cell_angle_alpha                90
_cell_angle_beta                 102.8006(10)
_cell_angle_gamma                90
_cell_volume                     1801.35
loop_
_atom_site_label
_atom_site_type_symbol
_atom_site_fract_x
_atom_site_fract_y
_atom_site_fract_z
_atom_site_U_iso_or_equiv
_atom_site_thermal_displace_type
Ce1 Ce -0.5 0.10305(20) -0.25 0.0254 Uiso
P1 P -0.41567(26) 0.1322(5) 0.2736(10) 0.0094 Uiso
O1 O -0.4486(5) 0.0381(10) 0.1596(23) 0.0261 Uiso
O2 O -0.4329(5) 0.1998(9) 0.0328(24) 0.0261 Uiso
O3 O -0.4387(5) 0.1619(8) 0.5027(23) 0.0261 Uiso
C1 C -0.3336(6) 0.1030(10) 0.3605(27) 0.0460 Uiso
C2 C -0.2354(6) 0.15288(35) 0.4682(23) 0.0460 Uiso
C3 C -0.2217(7) 0.0919(7) 0.703(4) 0.2240 Uiso
C4 C -0.30456(33) 0.2780(7) 0.3365(21) 0.0460 Uiso
N1 N -0.29855(33) 0.1858(6) 0.4799(27) 0.0760 Uiso
Ce1D Ce -0.5 -0.10305(20) 0.25 0.0254 Uiso
Ce1_2 Ce -0.5 0.10305(20) 0.75 0.0254 Uiso
Ce1F Ce 0.0 0.39695(20) 1.25 0.0254 Uiso
Ce1B Ce 0.0 0.60305(20) 0.75 0.0254 Uiso
Ce1F_2 Ce 0.0 0.39695(20) 0.25 0.0254 Uiso
P1F P -0.08433(26) 0.3678(5) 0.7264(10) 0.0094 Uiso
O1F O -0.0514(5) 0.4619(10) 0.8404(23) 0.0261 Uiso
O1D O -0.5514(5) -0.0381(10) -0.1596(23) 0.0261 Uiso
O1A O -0.5514(5) 0.0381(10) -0.6596(23) 0.0261 Uiso
O1E O -0.4486(5) -0.0381(10) -0.3404(23) 0.0261 Uiso
O2F O -0.0671(5) 0.3002(9) 0.9672(24) 0.0261 Uiso
O2A O -0.5671(5) 0.1998(9) -0.5328(24) 0.0261 Uiso
O3F O -0.0613(5) 0.3381(8) 0.4973(23) 0.0261 Uiso
O3_2 O -0.4387(5) 0.1619(8) -0.4973(23) 0.0261 Uiso
O3A O -0.5613(5) 0.1619(8) -0.0027(23) 0.0261 Uiso
C1F C -0.1664(6) 0.3970(10) 0.6395(27) 0.0460 Uiso
C2F C -0.2646(6) 0.34712(35) 0.5318(23) 0.0460 Uiso
C3F C -0.2783(7) 0.4081(7) 0.297(4) 0.2240 Uiso
C4F C -0.19544(33) 0.2220(7) 0.6635(21) 0.0460 Uiso
N1F N -0.20145(33) 0.3142(6) 0.5201(27) 0.0760 Uiso
O4 O -0.1853(13) 0.2693(28) -0.827(7) 0.2550 Uiso
O5 O -0.0858(9) -0.0900(26) -0.230(5) 0.2550 Uiso
O6 O -0.0049(22) 0.092(4) 0.026(7) 0.2550 Uiso
Na1 Na -0.5 0.3304(10) -0.75 0.0530 Uiso
loop_
_geom_bond_atom_site_label_1
_geom_bond_atom_site_label_2
_geom_bond_site_symmetry_1
_geom_bond_site_symmetry_2
Ce1 O1 1_555 1_555
P1 O1 1_555 1_555
O1 Ce1D 1_555 1_555
O2 Ce1 1_555 1_555
O3 P1 1_555 1_555
C1 P1 1_555 1_555
C2 C3 1_555 1_555
C4 N1 1_555 1_555
N1 C1 1_555 1_555
Ce1D O1D 1_555 1_555
Ce1_2 O3 1_555 1_555
Ce1F O1F 1_555 1_555
Ce1B O1F 1_555 1_555
Ce1F_2 O3F 1_555 1_555
P1F O1F 1_555 1_555
O1D Ce1 1_555 1_555
O1A Ce1 1_555 1_555
O1E Ce1 1_555 1_555
O2F Ce1F 1_555 1_555
O2A Ce1 1_555 1_555
O3F P1F 1_555 1_555
O3_2 Ce1 1_555 1_555
O3A Ce1 1_555 1_555
C1F P1F 1_555 1_555
C2F C4 1_555 1_555
C3F C2F 1_555 1_555
C4F C2 1_555 1_555
N1F C1F 1_555 1_555
P1 O2 1_555 1_555
C2 N1 1_555 1_555
P1F O2F 1_555 1_555
C2F N1F 1_555 1_555
C4F N1F 1_555 1_555

#END
