
#######################################################################
#
#                 Cambridge Crystallographic Data Centre
#                                CCDC 
#
#######################################################################
#
# If this CIF has been generated from an entry in the Cambridge 
# Structural Database, then it will include bibliographic, chemical, 
# crystal, experimental, refinement or atomic coordinate data resulting 
# from the CCDC's data processing and validation procedures.
#
#######################################################################

data_LOLREL
_chemical_formula_moiety         'C139 H58 O133 Tm37'
_symmetry_cell_setting           monoclinic
_symmetry_space_group_name_H-M   'C 2/m'
_symmetry_Int_Tables_number      12
_space_group_name_Hall           '-C 2y'
loop_
_symmetry_equiv_pos_site_id
_symmetry_equiv_pos_as_xyz
1 x,y,z
2 -x,y,-z
3 1/2+x,1/2+y,z
4 1/2-x,1/2+y,-z
5 -x,-y,-z
6 x,-y,z
7 1/2-x,1/2-y,-z
8 1/2+x,1/2-y,z
_cell_length_a                   27.7056(6)
_cell_length_b                   23.3950(6)
_cell_length_c                   21.0709(4)
_cell_angle_alpha                90
_cell_angle_beta                 113.911(2)
_cell_angle_gamma                90
_cell_volume                     12485.4
loop_
_atom_site_label
_atom_site_type_symbol
_atom_site_fract_x
_atom_site_fract_y
_atom_site_fract_z
C1 C 1.0000 0.5000 1.0000
C2 C 0.58963(16) 0.2731(2) 1.09724(19)
C3 C 0.54830(15) 0.31047(17) 0.84637(18)
C4 C 0.36007(16) 0.28862(18) 0.67741(19)
C5 C 0.26918(16) 0.30038(19) 0.58906(19)
H1 H 0.2534(16) 0.2748(18) 0.616(2)
C6 C 0.82786(16) 0.41941(18) 0.9770(2)
C7 C 0.86200(16) 0.28282(18) 1.17485(19)
C8 C 0.75416(16) 0.36707(18) 0.99251(19)
H2 H 0.7308 0.3847 0.9522
C9 C 0.64012(15) 0.32227(18) 0.93855(18)
H3 H 0.6511 0.3321 0.9037
C10 C 0.58713(15) 0.31003(17) 0.92108(18)
C11 C 0.32181(16) 0.31487(18) 0.61151(18)
C12 C 0.31557(16) 0.41708(19) 0.4700(2)
C13 C 0.84313(15) 0.35143(18) 1.07556(19)
H4 H 0.8791 0.3592 1.0921
C14 C 0.73443(15) 0.33033(19) 1.02821(19)
C15 C 0.65900(16) 0.30682(19) 1.05859(19)
H5 H 0.6823 0.3080 1.1051
C16 C 0.60654(16) 0.29188(19) 1.04153(19)
C17 C 0.23051(15) 0.32442(18) 0.52878(19)
C18 C 0.17405(16) 0.31036(19) 0.50810(19)
C19 C 0.08877(16) 0.2589(2) 0.5975(2)
C20 C 0.06870(16) 0.27804(19) 0.47255(19)
H6 H 0.0341 0.2660 0.4606
C21 C 0.13741(15) 0.31108(18) 0.43860(18)
H7 H 0.1483 0.3220 0.4040
C22 C 0.67749(15) 0.32009(18) 1.00766(19)
C23 C 0.80842(16) 0.37813(18) 1.01581(19)
C24 C 0.10444(16) 0.27863(19) 0.54176(19)
C25 C 0.77197(16) 0.30315(18) 1.08717(18)
H8 H 0.7602 0.2771 1.1110
C26 C 0.57068(15) 0.29294(18) 0.97266(18)
H9 H 0.5358 0.2823 0.9609
C27 C 0.08537(16) 0.29585(19) 0.42081(19)
C28 C 0.15602(16) 0.2957(2) 0.55843(19)
H10 H 0.1793 0.2975 0.6049
C29 C 0.33807(16) 0.35304(18) 0.5730(2)
H11 H 0.3735 0.3630 0.5880
C30 C 0.30094(16) 0.37583(19) 0.51235(19)
C31 C 0.24755(16) 0.36148(19) 0.49027(19)
H12 H 0.2230 0.3769 0.4492
C32 C 0.04661(16) 0.29517(18) 0.34540(19)
C33 C 0.7606(3) 0.5000 0.7646(3)
H13 H 0.7380 0.5000 0.7875
C34 C 0.9067(2) 0.6135(3) 0.8498(3)
H14 H 0.9431 0.6105 0.8747
C35 C 0.8838(2) 0.1069(3) 1.3309(3)
H15 H 0.9180 0.1011 1.3638
O1 O 0.95677(18) 0.5000 0.9709(3)
O2 O 0.80591(18) 0.5000 0.8022(2)
O3 O 0.50101(11) 0.29831(14) 0.83191(14)
O4 O 0.55112(11) 0.23942(13) 1.08306(13)
O5 O 0.84466(11) 0.24418(13) 1.20041(13)
O6 O 0.05404(12) 0.22150(13) 0.58593(13)
O7 O 0.34667(11) 0.24696(13) 0.70362(13)
O8 O 0.89412(12) 0.65567(13) 0.81052(14)
O9 O 0.91048(10) 0.29750(13) 1.20226(13)
O10 O 0.06272(11) 0.30956(13) 0.30015(13)
O11 O 0.56537(11) 0.32327(13) 0.80164(13)
O12 O 0.50884(11) 0.17703(13) 0.84217(14)
O13 O 0.11211(13) 0.28055(15) 0.65775(14)
O14 O 0.61503(13) 0.29024(16) 1.15925(14)
O15 O 0.87597(12) 0.43361(15) 1.00276(15)
O16 O 0.79734(12) 0.43941(15) 0.92086(16)
O17 O 0.40709(11) 0.30838(13) 0.70617(14)
O18 O 0.00061(12) 0.27966(15) 0.33227(15)
O19 O 0.87769(13) 0.14970(14) 1.29465(16)
O20 O 0.36311(12) 0.43222(16) 0.48725(16)
O21 O 0.85210(15) 0.07125(16) 1.33014(18)
O22 O 0.88387(16) 0.57701(16) 0.86259(19)
O23 O 0.73833(19) 0.5000 0.7028(2)
C36 C 0.82474(15) 0.31332(17) 1.11081(18)
O24 O 0.56927(19) 0.5000 0.5611(3)
O25 O 0.99731(16) 0.15531(17) 1.33989(16)
O26 O 0.28115(13) 0.43805(17) 0.41688(17)
Tm1 Tm 0.434082(6) 0.235533(8) 0.793775(8)
Tm2 Tm 0.930247(7) 0.222947(8) 1.289987(8)
Tm3 Tm 0.866180(9) 0.5000 0.913849(11)
Tm4 Tm 0.661179(10) 0.5000 0.607081(12)
O1A O 1.04323(18) 0.5000 1.0291(3)
C2A C 0.41037(16) 0.2731(2) -0.09724(19)
C3A C 0.45170(15) 0.31047(17) 0.15363(18)
C4A C 0.63993(16) 0.28862(18) 0.32259(19)
C5A C 0.73082(16) 0.30038(19) 0.41094(19)
H1A H 0.7466(16) 0.2748(18) 0.384(2)
C6A C 0.17214(16) 0.41941(18) 0.0230(2)
C7A C 0.13800(16) 0.28282(18) -0.17485(19)
C8A C 0.24584(16) 0.36707(18) 0.00749(19)
H2A H 0.2692 0.3847 0.0478
C9A C 0.35988(15) 0.32227(18) 0.06145(18)
H3A H 0.3489 0.3321 0.0963
C10A C 0.41287(15) 0.31003(17) 0.07892(18)
C11A C 0.67819(16) 0.31487(18) 0.38849(18)
C12A C 0.68443(16) 0.41708(19) 0.5300(2)
C13A C 0.15687(15) 0.35143(18) -0.07556(19)
H4A H 0.1209 0.3592 -0.0921
C14A C 0.26557(15) 0.33033(19) -0.02821(19)
C15A C 0.34100(16) 0.30682(19) -0.05859(19)
H5A H 0.3177 0.3080 -0.1051
C16A C 0.39346(16) 0.29188(19) -0.04153(19)
C17A C 0.76949(15) 0.32442(18) 0.47122(19)
C18A C 0.82595(16) 0.31036(19) 0.49190(19)
C19A C 0.91123(16) 0.2589(2) 0.4025(2)
C20A C 0.93130(16) 0.27804(19) 0.52745(19)
H6A H 0.9659 0.2660 0.5394
C21A C 0.86259(15) 0.31108(18) 0.56140(18)
H7A H 0.8517 0.3220 0.5960
C22A C 0.32251(15) 0.32009(18) -0.00766(19)
C23A C 0.19158(16) 0.37813(18) -0.01581(19)
C24A C 0.89556(16) 0.27863(19) 0.45824(19)
C25A C 0.22803(16) 0.30315(18) -0.08717(18)
H8A H 0.2398 0.2771 -0.1110
C26A C 0.42932(15) 0.29294(18) 0.02734(18)
H9A H 0.4642 0.2823 0.0391
C27A C 0.91463(16) 0.29585(19) 0.57919(19)
C28A C 0.84398(16) 0.2957(2) 0.44157(19)
H10A H 0.8207 0.2975 0.3951
C29A C 0.66193(16) 0.35304(18) 0.4270(2)
H11A H 0.6265 0.3630 0.4120
C30A C 0.69906(16) 0.37583(19) 0.48765(19)
C31A C 0.75245(16) 0.36148(19) 0.50973(19)
H12A H 0.7770 0.3769 0.5508
C32A C 0.95339(16) 0.29517(18) 0.65460(19)
C33A C 0.2394(3) 0.5000 0.2354(3)
H13A H 0.2620 0.5000 0.2125
C34A C 0.0933(2) 0.6135(3) 0.1502(3)
H14A H 0.0569 0.6105 0.1253
C35A C 0.1162(2) 0.1069(3) -0.3309(3)
H15A H 0.0820 0.1011 -0.3638
O2A O 0.19409(18) 0.5000 0.1978(2)
O3A O 0.49899(11) 0.29831(14) 0.16809(14)
O4A O 0.44888(11) 0.23942(13) -0.08306(13)
O5A O 0.15534(11) 0.24418(13) -0.20041(13)
O6A O 0.94596(12) 0.22150(13) 0.41407(13)
O7A O 0.65333(11) 0.24696(13) 0.29638(13)
O8A O 0.10588(12) 0.65567(13) 0.18948(14)
O9A O 0.08952(10) 0.29750(13) -0.20226(13)
O10A O 0.93728(11) 0.30956(13) 0.69985(13)
O11A O 0.43463(11) 0.32327(13) 0.19836(13)
O12A O 0.49116(11) 0.17703(13) 0.15783(14)
O13A O 0.88789(13) 0.28055(15) 0.34225(14)
O14A O 0.38497(13) 0.29024(16) -0.15925(14)
O15A O 0.12403(12) 0.43361(15) -0.00276(15)
O16A O 0.20266(12) 0.43941(15) 0.07914(16)
O17A O 0.59291(11) 0.30838(13) 0.29383(14)
O18A O 0.99939(12) 0.27966(15) 0.66773(15)
O19A O 0.12231(13) 0.14970(14) -0.29465(16)
O20A O 0.63689(12) 0.43222(16) 0.51275(16)
O21A O 0.14790(15) 0.07125(16) -0.33014(18)
O22A O 0.11613(16) 0.57701(16) 0.13741(19)
O23A O 0.26167(19) 0.5000 0.2972(2)
C36A C 0.17526(15) 0.31332(17) -0.11081(18)
O24A O 0.43073(19) 0.5000 0.4389(3)
O25A O 0.00269(16) 0.15531(17) -0.33989(16)
O26A O 0.71885(13) 0.43805(17) 0.58312(17)
Tm1A Tm 0.565918(6) 0.235533(8) 0.206225(8)
Tm2A Tm 0.069753(7) 0.222947(8) -0.289987(8)
Tm3A Tm 0.133820(9) 0.5000 0.086151(11)
Tm4A Tm 0.338821(10) 0.5000 0.392919(12)
C2D C 0.41037(16) 0.7269(2) -0.09724(19)
C3D C 0.45170(15) 0.68953(17) 0.15363(18)
C4D C 0.63993(16) 0.71138(18) 0.32259(19)
C5D C 0.73082(16) 0.69962(19) 0.41094(19)
H1D H 0.7466(16) 0.7252(18) 0.384(2)
C6D C 0.17214(16) 0.58059(18) 0.0230(2)
C7D C 0.13800(16) 0.71718(18) -0.17485(19)
C8D C 0.24584(16) 0.63293(18) 0.00749(19)
H2D H 0.2692 0.6153 0.0478
C9D C 0.35988(15) 0.67773(18) 0.06145(18)
H3D H 0.3489 0.6679 0.0963
C10D C 0.41287(15) 0.68997(17) 0.07892(18)
C11D C 0.67819(16) 0.68513(18) 0.38849(18)
C12D C 0.68443(16) 0.58292(19) 0.5300(2)
C13D C 0.15687(15) 0.64857(18) -0.07556(19)
H4D H 0.1209 0.6408 -0.0921
C14D C 0.26557(15) 0.66967(19) -0.02821(19)
C15D C 0.34100(16) 0.69318(19) -0.05859(19)
H5D H 0.3177 0.6920 -0.1051
C16D C 0.39346(16) 0.70812(19) -0.04153(19)
C17D C 0.76949(15) 0.67558(18) 0.47122(19)
C18D C 0.82595(16) 0.68964(19) 0.49190(19)
C19D C 0.91123(16) 0.7411(2) 0.4025(2)
C20D C 0.93130(16) 0.72196(19) 0.52745(19)
H6D H 0.9659 0.7340 0.5394
C21D C 0.86259(15) 0.68892(18) 0.56140(18)
H7D H 0.8517 0.6780 0.5960
C22D C 0.32251(15) 0.67991(18) -0.00766(19)
C23D C 0.19158(16) 0.62187(18) -0.01581(19)
C24D C 0.89556(16) 0.72137(19) 0.45824(19)
C25D C 0.22803(16) 0.69685(18) -0.08717(18)
H8D H 0.2398 0.7229 -0.1110
C26D C 0.42932(15) 0.70706(18) 0.02734(18)
H9D H 0.4642 0.7177 0.0391
C27D C 0.91463(16) 0.70415(19) 0.57919(19)
C28D C 0.84398(16) 0.7043(2) 0.44157(19)
H10D H 0.8207 0.7025 0.3951
C29D C 0.66193(16) 0.64696(18) 0.4270(2)
H11D H 0.6265 0.6370 0.4120
C30D C 0.69906(16) 0.62417(19) 0.48765(19)
C31D C 0.75245(16) 0.63852(19) 0.50973(19)
H12D H 0.7770 0.6231 0.5508
C32D C 0.95339(16) 0.70483(18) 0.65460(19)
C34D C 0.0933(2) 0.3865(3) 0.1502(3)
H14D H 0.0569 0.3895 0.1253
C35D C 0.1162(2) 0.8931(3) -0.3309(3)
H15D H 0.0820 0.8989 -0.3638
O3D O 0.49899(11) 0.70169(14) 0.16809(14)
O4D O 0.44888(11) 0.76058(13) -0.08306(13)
O5D O 0.15534(11) 0.75582(13) -0.20041(13)
O6D O 0.94596(12) 0.77850(13) 0.41407(13)
O7D O 0.65333(11) 0.75304(13) 0.29638(13)
O8D O 0.10588(12) 0.34433(13) 0.18948(14)
O9D O 0.08952(10) 0.70250(13) -0.20226(13)
O10D O 0.93728(11) 0.69044(13) 0.69985(13)
O11D O 0.43463(11) 0.67673(13) 0.19836(13)
O12D O 0.49116(11) 0.82297(13) 0.15783(14)
O13D O 0.88789(13) 0.71945(15) 0.34225(14)
O14D O 0.38497(13) 0.70976(16) -0.15925(14)
O15D O 0.12403(12) 0.56639(15) -0.00276(15)
O16D O 0.20266(12) 0.56059(15) 0.07914(16)
O17D O 0.59291(11) 0.69162(13) 0.29383(14)
O18D O 0.99939(12) 0.72034(15) 0.66773(15)
O19D O 0.12231(13) 0.85030(14) -0.29465(16)
O20D O 0.63689(12) 0.56778(16) 0.51275(16)
O21D O 0.14790(15) 0.92875(16) -0.33014(18)
O22D O 0.11613(16) 0.42299(16) 0.13741(19)
C36D C 0.17526(15) 0.68668(17) -0.11081(18)
O25D O 0.00269(16) 0.84469(17) -0.33989(16)
O26D O 0.71885(13) 0.56195(17) 0.58312(17)
Tm1D Tm 0.565918(6) 0.764467(8) 0.206225(8)
Tm2D Tm 0.069753(7) 0.777053(8) -0.289987(8)
C2E C 0.58963(16) 0.7269(2) 1.09724(19)
C3E C 0.54830(15) 0.68953(17) 0.84637(18)
C4E C 0.36007(16) 0.71138(18) 0.67741(19)
C5E C 0.26918(16) 0.69962(19) 0.58906(19)
H1E H 0.2534(16) 0.7252(18) 0.616(2)
C6E C 0.82786(16) 0.58059(18) 0.9770(2)
C7E C 0.86200(16) 0.71718(18) 1.17485(19)
C8E C 0.75416(16) 0.63293(18) 0.99251(19)
H2E H 0.7308 0.6153 0.9522
C9E C 0.64012(15) 0.67773(18) 0.93855(18)
H3E H 0.6511 0.6679 0.9037
C10E C 0.58713(15) 0.68997(17) 0.92108(18)
C11E C 0.32181(16) 0.68513(18) 0.61151(18)
C12E C 0.31557(16) 0.58292(19) 0.4700(2)
C13E C 0.84313(15) 0.64857(18) 1.07556(19)
H4E H 0.8791 0.6408 1.0921
C14E C 0.73443(15) 0.66967(19) 1.02821(19)
C15E C 0.65900(16) 0.69318(19) 1.05859(19)
H5E H 0.6823 0.6920 1.1051
C16E C 0.60654(16) 0.70812(19) 1.04153(19)
C17E C 0.23051(15) 0.67558(18) 0.52878(19)
C18E C 0.17405(16) 0.68964(19) 0.50810(19)
C19E C 0.08877(16) 0.7411(2) 0.5975(2)
C20E C 0.06870(16) 0.72196(19) 0.47255(19)
H6E H 0.0341 0.7340 0.4606
C21E C 0.13741(15) 0.68892(18) 0.43860(18)
H7E H 0.1483 0.6780 0.4040
C22E C 0.67749(15) 0.67991(18) 1.00766(19)
C23E C 0.80842(16) 0.62187(18) 1.01581(19)
C24E C 0.10444(16) 0.72137(19) 0.54176(19)
C25E C 0.77197(16) 0.69685(18) 1.08717(18)
H8E H 0.7602 0.7229 1.1110
C26E C 0.57068(15) 0.70706(18) 0.97266(18)
H9E H 0.5358 0.7177 0.9609
C27E C 0.08537(16) 0.70415(19) 0.42081(19)
C28E C 0.15602(16) 0.7043(2) 0.55843(19)
H10E H 0.1793 0.7025 0.6049
C29E C 0.33807(16) 0.64696(18) 0.5730(2)
H11E H 0.3735 0.6370 0.5880
C30E C 0.30094(16) 0.62417(19) 0.51235(19)
C31E C 0.24755(16) 0.63852(19) 0.49027(19)
H12E H 0.2230 0.6231 0.4492
C32E C 0.04661(16) 0.70483(18) 0.34540(19)
C34E C 0.9067(2) 0.3865(3) 0.8498(3)
H14E H 0.9431 0.3895 0.8747
C35E C 0.8838(2) 0.8931(3) 1.3309(3)
H15E H 0.9180 0.8989 1.3638
O3E O 0.50101(11) 0.70169(14) 0.83191(14)
O4E O 0.55112(11) 0.76058(13) 1.08306(13)
O5E O 0.84466(11) 0.75582(13) 1.20041(13)
O6E O 0.05404(12) 0.77850(13) 0.58593(13)
O7E O 0.34667(11) 0.75304(13) 0.70362(13)
O8E O 0.89412(12) 0.34433(13) 0.81052(14)
O9E O 0.91048(10) 0.70250(13) 1.20226(13)
O10E O 0.06272(11) 0.69044(13) 0.30015(13)
O11E O 0.56537(11) 0.67673(13) 0.80164(13)
O12E O 0.50884(11) 0.82297(13) 0.84217(14)
O13E O 0.11211(13) 0.71945(15) 0.65775(14)
O14E O 0.61503(13) 0.70976(16) 1.15925(14)
O15E O 0.87597(12) 0.56639(15) 1.00276(15)
O16E O 0.79734(12) 0.56059(15) 0.92086(16)
O17E O 0.40709(11) 0.69162(13) 0.70617(14)
O18E O 0.00061(12) 0.72034(15) 0.33227(15)
O19E O 0.87769(13) 0.85030(14) 1.29465(16)
O20E O 0.36311(12) 0.56778(16) 0.48725(16)
O21E O 0.85210(15) 0.92875(16) 1.33014(18)
O22E O 0.88387(16) 0.42299(16) 0.86259(19)
C36E C 0.82474(15) 0.68668(17) 1.11081(18)
O25E O 0.99731(16) 0.84469(17) 1.33989(16)
O26E O 0.28115(13) 0.56195(17) 0.41688(17)
Tm1E Tm 0.434082(6) 0.764467(8) 0.793775(8)
Tm2E Tm 0.930247(7) 0.777053(8) 1.289987(8)
O1A_2 O 0.04323(18) 0.5000 0.0291(3)
O4_2 O 0.55112(11) 0.23942(13) 0.08306(13)
O4A_2 O 0.44888(11) 0.23942(13) 0.91694(13)
O4D_2 O 0.44888(11) 0.76058(13) 0.91694(13)
O4E_2 O 0.55112(11) 0.76058(13) 0.08306(13)
O6_2 O 0.05404(12) 0.22150(13) -0.41407(13)
O6A_2 O 0.94596(12) 0.22150(13) 1.41407(13)
O6D_2 O 0.94596(12) 0.77850(13) 1.41407(13)
O6E_2 O 0.05404(12) 0.77850(13) -0.41407(13)
O8B O 0.39412(12) 0.15567(13) 0.81052(14)
O8C O 0.60588(12) 0.15567(13) 0.18948(14)
O8F O 0.60588(12) 0.84433(13) 0.18948(14)
O8G O 0.39412(12) 0.84433(13) 0.81052(14)
O10B O 0.56272(11) 0.80956(13) 0.30015(13)
O10C O 0.43728(11) 0.80956(13) 0.69985(13)
O10F O 0.43728(11) 0.19044(13) 0.69985(13)
O10G O 0.56272(11) 0.19044(13) 0.30015(13)
O11B O 0.06537(11) 0.82327(13) -0.19836(13)
O11C O 0.93463(11) 0.82327(13) 1.19836(13)
O11F O 0.93463(11) 0.17673(13) 1.19836(13)
O11G O 0.06537(11) 0.17673(13) -0.19836(13)
O13_2 O 0.11211(13) 0.28055(15) -0.34225(14)
O13A_2 O 0.88789(13) 0.28055(15) 1.34225(14)
O13D_2 O 0.88789(13) 0.71945(15) 1.34225(14)
O13E_2 O 0.11211(13) 0.71945(15) -0.34225(14)
O14_2 O 0.61503(13) 0.29024(16) 0.15925(14)
O14A_2 O 0.38497(13) 0.29024(16) 0.84075(14)
O14D_2 O 0.38497(13) 0.70976(16) 0.84075(14)
O14E_2 O 0.61503(13) 0.70976(16) 0.15925(14)
O18_2 O 1.00061(12) 0.27966(15) 1.33227(15)
O18A_2 O -0.00061(12) 0.27966(15) -0.33227(15)
O18D_2 O -0.00061(12) 0.72034(15) -0.33227(15)
O18E_2 O 1.00061(12) 0.72034(15) 1.33227(15)
O21B O 0.35210(15) 0.57125(16) 0.33014(18)
O21C O 0.64790(15) 0.57125(16) 0.66986(18)
O21F O 0.64790(15) 0.42875(16) 0.66986(18)
O21G O 0.35210(15) 0.42875(16) 0.33014(18)
Tm1_2 Tm 0.434082(6) 0.235533(8) -0.206225(8)
Tm1A_2 Tm 0.565918(6) 0.235533(8) 1.206225(8)
Tm1B Tm 0.934082(6) 0.735533(8) 0.793775(8)
Tm1C Tm 0.065918(6) 0.735533(8) 0.206225(8)
Tm1D_2 Tm 0.565918(6) 0.764467(8) 1.206225(8)
Tm1E_2 Tm 0.434082(6) 0.764467(8) -0.206225(8)
Tm1F Tm 0.065918(6) 0.264467(8) 0.206225(8)
Tm1G Tm 0.934082(6) 0.264467(8) 0.793775(8)
Tm2_2 Tm -0.069753(7) 0.222947(8) 0.289987(8)
Tm2_3 Tm 0.930247(7) 0.222947(8) 0.289987(8)
Tm2A_2 Tm 0.069753(7) 0.222947(8) 0.710013(8)
Tm2A_3 Tm 1.069753(7) 0.222947(8) 0.710013(8)
Tm2B Tm 0.430247(7) 0.722947(8) 0.289987(8)
Tm2C Tm 0.569753(7) 0.722947(8) 0.710013(8)
Tm2D_2 Tm 0.069753(7) 0.777053(8) 0.710013(8)
Tm2D_3 Tm 1.069753(7) 0.777053(8) 0.710013(8)
Tm2E_2 Tm -0.069753(7) 0.777053(8) 0.289987(8)
Tm2E_3 Tm 0.930247(7) 0.777053(8) 0.289987(8)
Tm2F Tm 0.569753(7) 0.277053(8) 0.710013(8)
Tm2G Tm 0.430247(7) 0.277053(8) 0.289987(8)
Tm3A_2 Tm 1.133820(9) 0.5000 1.086151(11)
Tm4B Tm 0.161179(10) 0.0000 -0.392919(12)
Tm4B_2 Tm 0.161179(10) 1.0000 -0.392919(12)
Tm4C Tm 0.838821(10) 0.0000 1.392919(12)
Tm4C_2 Tm 0.838821(10) 1.0000 1.392919(12)
loop_
_geom_bond_atom_site_label_1
_geom_bond_atom_site_label_2
_geom_bond_site_symmetry_1
_geom_bond_site_symmetry_2
C1 O1 1_555 1_555
C2 C16 1_555 1_555
C3 C10 1_555 1_555
C4 C11 1_555 1_555
C5 H1 1_555 1_555
C6 C23 1_555 1_555
C7 O5 1_555 1_555
C8 H2 1_555 1_555
C9 H3 1_555 1_555
C10 C9 1_555 1_555
C11 C5 1_555 1_555
C12 C30 1_555 1_555
C13 H4 1_555 1_555
C14 C8 1_555 1_555
C15 H5 1_555 1_555
C16 C15 1_555 1_555
C17 C5 1_555 1_555
C18 C17 1_555 1_555
C19 C24 1_555 1_555
C20 H6 1_555 1_555
C21 C18 1_555 1_555
H7 C21 1_555 1_555
C22 C9 1_555 1_555
C23 C8 1_555 1_555
C24 C20 1_555 1_555
C25 C14 1_555 1_555
H8 C25 1_555 1_555
C26 C10 1_555 1_555
H9 C26 1_555 1_555
C27 C20 1_555 1_555
C28 C18 1_555 1_555
H10 C28 1_555 1_555
C29 C11 1_555 1_555
H11 C29 1_555 1_555
C30 C29 1_555 1_555
C31 C17 1_555 1_555
H12 C31 1_555 1_555
C32 C27 1_555 1_555
C33 H13 1_555 1_555
C34 H14 1_555 1_555
C35 H15 1_555 1_555
O1 Tm3 1_555 1_555
O2 C33 1_555 1_555
O3 C3 1_555 1_555
O4 C2 1_555 1_555
O5 Tm2 1_555 1_555
O6 C19 1_555 1_555
O7 C4 1_555 1_555
O8 C34 1_555 1_555
O9 C7 1_555 1_555
O10 C32 1_555 1_555
O11 C3 1_555 1_555
O12 Tm1 1_555 1_555
O13 C19 1_555 1_555
O14 C2 1_555 1_555
O15 C6 1_555 1_555
O16 C6 1_555 1_555
O17 C4 1_555 1_555
O18 C32 1_555 1_555
O19 C35 1_555 1_555
O20 C12 1_555 1_555
O21 C35 1_555 1_555
O22 C34 1_555 1_555
O23 C33 1_555 1_555
C36 C7 1_555 1_555
O24 Tm4 1_555 1_555
O25 Tm2 1_555 1_555
O26 C12 1_555 1_555
Tm1 O3 1_555 1_555
Tm2 O9 1_555 1_555
Tm3 O2 1_555 1_555
Tm4 O23 1_555 1_555
O1A C1 1_555 1_555
C2A C16A 1_555 1_555
C3A C10A 1_555 1_555
C4A C11A 1_555 1_555
C5A H1A 1_555 1_555
C6A C23A 1_555 1_555
C7A O5A 1_555 1_555
C8A H2A 1_555 1_555
C9A H3A 1_555 1_555
C10A C9A 1_555 1_555
C11A C5A 1_555 1_555
C12A C30A 1_555 1_555
C13A H4A 1_555 1_555
C14A C8A 1_555 1_555
C15A H5A 1_555 1_555
C16A C15A 1_555 1_555
C17A C5A 1_555 1_555
C18A C17A 1_555 1_555
C19A C24A 1_555 1_555
C20A H6A 1_555 1_555
C21A C18A 1_555 1_555
H7A C21A 1_555 1_555
C22A C9A 1_555 1_555
C23A C8A 1_555 1_555
C24A C20A 1_555 1_555
C25A C14A 1_555 1_555
H8A C25A 1_555 1_555
C26A C10A 1_555 1_555
H9A C26A 1_555 1_555
C27A C20A 1_555 1_555
C28A C18A 1_555 1_555
H10A C28A 1_555 1_555
C29A C11A 1_555 1_555
H11A C29A 1_555 1_555
C30A C29A 1_555 1_555
C31A C17A 1_555 1_555
H12A C31A 1_555 1_555
C32A C27A 1_555 1_555
C33A H13A 1_555 1_555
C34A H14A 1_555 1_555
C35A H15A 1_555 1_555
O2A C33A 1_555 1_555
O3A C3A 1_555 1_555
O4A C2A 1_555 1_555
O5A Tm2A 1_555 1_555
O6A C19A 1_555 1_555
O7A C4A 1_555 1_555
O8A C34A 1_555 1_555
O9A C7A 1_555 1_555
O10A C32A 1_555 1_555
O11A C3A 1_555 1_555
O12A Tm1A 1_555 1_555
O13A C19A 1_555 1_555
O14A C2A 1_555 1_555
O15A C6A 1_555 1_555
O16A C6A 1_555 1_555
O17A C4A 1_555 1_555
O18A C32A 1_555 1_555
O19A C35A 1_555 1_555
O20A Tm4 1_555 1_555
O21A C35A 1_555 1_555
O22A C34A 1_555 1_555
O23A C33A 1_555 1_555
C36A C7A 1_555 1_555
O24A Tm4A 1_555 1_555
O25A Tm2A 1_555 1_555
O26A Tm4 1_555 1_555
Tm1A O3A 1_555 1_555
Tm2A O9A 1_555 1_555
Tm3A O2A 1_555 1_555
Tm4A O20 1_555 1_555
C2D C16D 1_555 1_555
C3D C10D 1_555 1_555
C4D C11D 1_555 1_555
C5D H1D 1_555 1_555
C6D C23D 1_555 1_555
C7D O5D 1_555 1_555
C8D H2D 1_555 1_555
C9D H3D 1_555 1_555
C10D C9D 1_555 1_555
C11D C5D 1_555 1_555
C12D C30D 1_555 1_555
C13D H4D 1_555 1_555
C14D C8D 1_555 1_555
C15D H5D 1_555 1_555
C16D C15D 1_555 1_555
C17D C5D 1_555 1_555
C18D C17D 1_555 1_555
C19D C24D 1_555 1_555
C20D H6D 1_555 1_555
C21D C18D 1_555 1_555
H7D C21D 1_555 1_555
C22D C9D 1_555 1_555
C23D C8D 1_555 1_555
C24D C20D 1_555 1_555
C25D C14D 1_555 1_555
H8D C25D 1_555 1_555
C26D C10D 1_555 1_555
H9D C26D 1_555 1_555
C27D C20D 1_555 1_555
C28D C18D 1_555 1_555
H10D C28D 1_555 1_555
C29D C11D 1_555 1_555
H11D C29D 1_555 1_555
C30D C29D 1_555 1_555
C31D C17D 1_555 1_555
H12D C31D 1_555 1_555
C32D C27D 1_555 1_555
C34D H14D 1_555 1_555
C35D H15D 1_555 1_555
O3D C3D 1_555 1_555
O4D C2D 1_555 1_555
O5D Tm2D 1_555 1_555
O6D C19D 1_555 1_555
O7D C4D 1_555 1_555
O8D C34D 1_555 1_555
O9D C7D 1_555 1_555
O10D C32D 1_555 1_555
O11D C3D 1_555 1_555
O12D Tm1D 1_555 1_555
O13D C19D 1_555 1_555
O14D C2D 1_555 1_555
O15D Tm3A 1_555 1_555
O16D Tm3A 1_555 1_555
O17D C4D 1_555 1_555
O18D C32D 1_555 1_555
O19D C35D 1_555 1_555
O20D Tm4 1_555 1_555
O21D C35D 1_555 1_555
O22D Tm3A 1_555 1_555
C36D C7D 1_555 1_555
O25D Tm2D 1_555 1_555
O26D Tm4 1_555 1_555
Tm1D O3D 1_555 1_555
Tm2D O9D 1_555 1_555
C2E C16E 1_555 1_555
C3E C10E 1_555 1_555
C4E C11E 1_555 1_555
C5E H1E 1_555 1_555
C6E C23E 1_555 1_555
C7E O5E 1_555 1_555
C8E H2E 1_555 1_555
C9E H3E 1_555 1_555
C10E C9E 1_555 1_555
C11E C5E 1_555 1_555
C12E C30E 1_555 1_555
C13E H4E 1_555 1_555
C14E C8E 1_555 1_555
C15E H5E 1_555 1_555
C16E C15E 1_555 1_555
C17E C5E 1_555 1_555
C18E C17E 1_555 1_555
C19E C24E 1_555 1_555
C20E H6E 1_555 1_555
C21E C18E 1_555 1_555
H7E C21E 1_555 1_555
C22E C9E 1_555 1_555
C23E C8E 1_555 1_555
C24E C20E 1_555 1_555
C25E C14E 1_555 1_555
H8E C25E 1_555 1_555
C26E C10E 1_555 1_555
H9E C26E 1_555 1_555
C27E C20E 1_555 1_555
C28E C18E 1_555 1_555
H10E C28E 1_555 1_555
C29E C11E 1_555 1_555
H11E C29E 1_555 1_555
C30E C29E 1_555 1_555
C31E C17E 1_555 1_555
H12E C31E 1_555 1_555
C32E C27E 1_555 1_555
C34E H14E 1_555 1_555
C35E H15E 1_555 1_555
O3E C3E 1_555 1_555
O4E C2E 1_555 1_555
O5E Tm2E 1_555 1_555
O6E C19E 1_555 1_555
O7E C4E 1_555 1_555
O8E C34E 1_555 1_555
O9E C7E 1_555 1_555
O10E C32E 1_555 1_555
O11E C3E 1_555 1_555
O12E Tm1E 1_555 1_555
O13E C19E 1_555 1_555
O14E C2E 1_555 1_555
O15E Tm3 1_555 1_555
O16E Tm3 1_555 1_555
O17E C4E 1_555 1_555
O18E C32E 1_555 1_555
O19E C35E 1_555 1_555
O20E Tm4A 1_555 1_555
O21E C35E 1_555 1_555
O22E Tm3 1_555 1_555
C36E C7E 1_555 1_555
O25E Tm2E 1_555 1_555
O26E Tm4A 1_555 1_555
Tm1E O3E 1_555 1_555
Tm2E O9E 1_555 1_555
O1A_2 Tm3A 1_555 1_555
O4_2 Tm1A 1_555 1_555
O4A_2 Tm1 1_555 1_555
O4D_2 Tm1E 1_555 1_555
O4E_2 Tm1D 1_555 1_555
O6_2 Tm2A 1_555 1_555
O6A_2 Tm2 1_555 1_555
O6D_2 Tm2E 1_555 1_555
O6E_2 Tm2D 1_555 1_555
O8B Tm1 1_555 1_555
O8C Tm1A 1_555 1_555
O8F Tm1D 1_555 1_555
O8G Tm1E 1_555 1_555
O10B Tm1D 1_555 1_555
O10C Tm1E 1_555 1_555
O10F Tm1 1_555 1_555
O10G Tm1A 1_555 1_555
O11B Tm2D 1_555 1_555
O11C Tm2E 1_555 1_555
O11F Tm2 1_555 1_555
O11G Tm2A 1_555 1_555
O13_2 Tm2A 1_555 1_555
O13A_2 Tm2 1_555 1_555
O13D_2 Tm2E 1_555 1_555
O13E_2 Tm2D 1_555 1_555
O14_2 Tm1A 1_555 1_555
O14A_2 Tm1 1_555 1_555
O14D_2 Tm1E 1_555 1_555
O14E_2 Tm1D 1_555 1_555
O18_2 Tm2 1_555 1_555
O18A_2 Tm2A 1_555 1_555
O18D_2 Tm2D 1_555 1_555
O18E_2 Tm2E 1_555 1_555
O21B Tm4A 1_555 1_555
O21C Tm4 1_555 1_555
O21F Tm4 1_555 1_555
O21G Tm4A 1_555 1_555
Tm1_2 O4A 1_555 1_555
Tm1A_2 O4 1_555 1_555
Tm1B O8 1_555 1_555
Tm1C O8A 1_555 1_555
Tm1D_2 O4E 1_555 1_555
Tm1E_2 O4D 1_555 1_555
Tm1F O10 1_555 1_555
Tm1G O10A 1_555 1_555
Tm2_2 O18 1_555 1_555
Tm2_3 O6A 1_555 1_555
Tm2A_2 O6 1_555 1_555
Tm2A_3 O18A 1_555 1_555
Tm2B O11D 1_555 1_555
Tm2C O11E 1_555 1_555
Tm2D_2 O6E 1_555 1_555
Tm2D_3 O18D 1_555 1_555
Tm2E_2 O18E 1_555 1_555
Tm2E_3 O6D 1_555 1_555
Tm2F O11 1_555 1_555
Tm2G O11A 1_555 1_555
Tm3A_2 O1A 1_555 1_555
Tm4B O21A 1_555 1_555
Tm4B_2 O21D 1_555 1_555
Tm4C O21 1_555 1_555
Tm4C_2 O21E 1_555 1_555
C13 C23 1_555 1_555
C13 C36 1_555 1_555
C14 C22 1_555 1_555
C15 C22 1_555 1_555
C16 C26 1_555 1_555
C21 C27 1_555 1_555
C24 C28 1_555 1_555
C25 C36 1_555 1_555
C30 C31 1_555 1_555
O7 Tm1 1_555 1_555
O13 Tm2A_2 1_555 1_555
O14 Tm1A_2 1_555 1_555
O15 Tm3 1_555 1_555
O16 Tm3 1_555 1_555
O17 Tm1 1_555 1_555
O19 Tm2 1_555 1_555
O22 Tm3 1_555 1_555
O26 Tm4A 1_555 1_555
C12A O20A 1_555 1_555
C12A O26A 1_555 1_555
C13A C23A 1_555 1_555
C13A C36A 1_555 1_555
C14A C22A 1_555 1_555
C15A C22A 1_555 1_555
C16A C26A 1_555 1_555
C21A C27A 1_555 1_555
C24A C28A 1_555 1_555
C25A C36A 1_555 1_555
C30A C31A 1_555 1_555
O7A Tm1A 1_555 1_555
O13A Tm2_3 1_555 1_555
O14A Tm1_2 1_555 1_555
O15A Tm3A 1_555 1_555
O16A Tm3A 1_555 1_555
O17A Tm1A 1_555 1_555
O19A Tm2A 1_555 1_555
O22A Tm3A 1_555 1_555
O23A Tm4A 1_555 1_555
C6D O15D 1_555 1_555
C6D O16D 1_555 1_555
C12D O20D 1_555 1_555
C12D O26D 1_555 1_555
C13D C23D 1_555 1_555
C13D C36D 1_555 1_555
C14D C22D 1_555 1_555
C15D C22D 1_555 1_555
C16D C26D 1_555 1_555
C21D C27D 1_555 1_555
C24D C28D 1_555 1_555
C25D C36D 1_555 1_555
C30D C31D 1_555 1_555
C34D O22D 1_555 1_555
O7D Tm1D 1_555 1_555
O8D Tm1F 1_555 1_555
O10D Tm1B 1_555 1_555
O13D Tm2E_3 1_555 1_555
O14D Tm1E_2 1_555 1_555
O17D Tm1D 1_555 1_555
O19D Tm2D 1_555 1_555
C6E O15E 1_555 1_555
C6E O16E 1_555 1_555
C12E O20E 1_555 1_555
C12E O26E 1_555 1_555
C13E C23E 1_555 1_555
C13E C36E 1_555 1_555
C14E C22E 1_555 1_555
C15E C22E 1_555 1_555
C16E C26E 1_555 1_555
C21E C27E 1_555 1_555
C24E C28E 1_555 1_555
C25E C36E 1_555 1_555
C30E C31E 1_555 1_555
C34E O22E 1_555 1_555
O7E Tm1E 1_555 1_555
O8E Tm1G 1_555 1_555
O10E Tm1C 1_555 1_555
O13E Tm2D_2 1_555 1_555
O14E Tm1D_2 1_555 1_555
O17E Tm1E 1_555 1_555
O19E Tm2E 1_555 1_555

#END
