
#######################################################################
#
#                 Cambridge Crystallographic Data Centre
#                                CCDC 
#
#######################################################################
#
# If this CIF has been generated from an entry in the Cambridge 
# Structural Database, then it will include bibliographic, chemical, 
# crystal, experimental, refinement or atomic coordinate data resulting 
# from the CCDC's data processing and validation procedures.
#
#######################################################################

data_EWOVET
_chemical_formula_moiety         '(C52 H34 N12 O8 Zn3)n'
_symmetry_cell_setting           trigonal
_symmetry_space_group_name_H-M   'P 31 2 1'
_symmetry_Int_Tables_number      152
_space_group_name_Hall           'P 31 2"'
loop_
_symmetry_equiv_pos_site_id
_symmetry_equiv_pos_as_xyz
1 x,y,z
2 -y,x-y,1/3+z
3 -x+y,-x,2/3+z
4 x-y,-y,2/3-z
5 -x,-x+y,1/3-z
6 y,x,-z
_cell_length_a                   21.027(2)
_cell_length_b                   21.027(2)
_cell_length_c                   20.5274(10)
_cell_angle_alpha                90
_cell_angle_beta                 90
_cell_angle_gamma                120
_cell_volume                     7859.94
loop_
_atom_site_label
_atom_site_type_symbol
_atom_site_fract_x
_atom_site_fract_y
_atom_site_fract_z
Zn1 Zn 0.23710(8) 0.0000 0.8333
Zn2 Zn 0.06405(8) -0.16870(8) 0.60162(5)
O1 O 0.3131(5) 0.0372(5) 0.7667(3)
N1 N 0.4146(5) 0.0927(6) 0.4234(3)
O2 O 0.2388(5) 0.1368(5) 0.1558(4)
N2 N 0.1504(3) -0.0741(3) 0.7814(2)
C1 C 0.1574(3) -0.0816(3) 0.7166(2)
H1 H 0.2008 -0.0579 0.6928
N3 N 0.0900(3) -0.1298(3) 0.6926(2)
N4 N 0.0413(3) -0.1521(4) 0.7426(2)
C2 C 0.0787(3) -0.1177(4) 0.7975(2)
C3 C 0.3460(7) 0.0806(7) 0.6578(4)
C4 C 0.3020(8) 0.0727(7) 0.7211(5)
C5 C 0.5078(8) 0.0746(8) 0.4721(5)
H2 H 0.5261 0.0642 0.5094
N5 N 0.0506(6) -0.1234(6) 0.8557(3)
H3 H 0.0042 -0.1511 0.8617
H4 H 0.0786 -0.0994 0.8878
N6 N 0.7316(5) 0.0599(5) 0.3975(3)
C6 C 0.4126(7) 0.0843(7) 0.5407(5)
C7 C 0.6837(7) 0.0263(8) 0.4418(5)
H5 H 0.6932 -0.0010 0.4718
C8 C 0.5048(8) 0.0862(7) 0.3595(4)
H6 H 0.5218 0.0850 0.3180
O3 O 0.3066(6) 0.1145(5) 0.0898(3)
C9 C 0.4434(6) 0.0941(7) 0.3657(4)
C10 C 0.7154(7) 0.0985(7) 0.3559(5)
H7 H 0.7477 0.1212 0.3215
O4 O 0.2616(7) 0.0981(6) 0.7217(4)
C11 C 0.6198(9) 0.0272(8) 0.4488(5)
H8 H 0.5861 -0.0010 0.4809
C12 C 0.3821(8) 0.0992(9) 0.1934(4)
H9 H 0.3956 0.0960 0.1509
C13 C 0.3419(8) 0.1035(10) 0.3189(5)
H10 H 0.3261 0.1043 0.3611
C14 C 0.4490(7) 0.0838(7) 0.4774(4)
C15 C 0.5420(6) 0.0800(7) 0.4132(4)
C16 C 0.3949(9) 0.0550(9) 0.6551(5)
H11 H 0.4041 0.0352 0.6920
C17 C 0.2866(8) 0.1191(8) 0.1457(6)
C18 C 0.6053(7) 0.0718(7) 0.4065(4)
C19 C 0.3246(7) 0.1090(7) 0.2030(5)
C20 C 0.4033(8) 0.0979(8) 0.3080(4)
C21 C 0.4225(9) 0.0934(10) 0.2447(5)
H12 H 0.4622 0.0867 0.2363
C22 C 0.6594(7) 0.1071(7) 0.3592(5)
H13 H 0.6546 0.1377 0.3292
C23 C 0.4309(8) 0.0589(9) 0.5957(4)
H14 H 0.4662 0.0447 0.5936
C24 C 0.3345(12) 0.1066(10) 0.6044(5)
H15 H 0.3041 0.1270 0.6070
C25 C 0.3639(10) 0.1065(12) 0.5435(5)
H16 H 0.3498 0.1215 0.5063
C26 C 0.3021(8) 0.1082(9) 0.2629(6)
H17 H 0.2597 0.1107 0.2696
Zn2C Zn 0.23275(11) 0.16870(8) 0.06505(5)
O1C O 0.2759(7) -0.0372(5) -0.1000(3)
N1C N 0.3219(8) -0.0927(6) 0.2433(3)
O2C O 0.1020(7) -0.1368(5) 0.5109(4)
N2C N 0.2245(4) 0.0741(3) -0.1147(2)
C1C C 0.2390(4) 0.0816(3) -0.0499(2)
H1C H 0.2587 0.0579 -0.0261
N3C N 0.2198(4) 0.1298(3) -0.0259(2)
N4C N 0.1934(5) 0.1521(4) -0.0759(2)
C2C C 0.1964(5) 0.1177(4) -0.1308(2)
C3C C 0.2654(10) -0.0806(7) 0.0089(4)
C4C C 0.2293(11) -0.0727(7) -0.0544(5)
C5C C 0.4332(11) -0.0746(8) 0.1946(5)
H2C H 0.4619 -0.0642 0.1573
N5C N 0.1740(8) 0.1234(6) -0.1890(3)
H3C H 0.1553 0.1511 -0.1950
H4C H 0.1780 0.0994 -0.2211
N6C N 0.6717(7) -0.0599(5) 0.2692(3)
C6C C 0.3283(10) -0.0843(7) 0.1260(5)
C7C C 0.6574(11) -0.0263(8) 0.2249(5)
H5C H 0.6942 0.0010 0.1949
C8C C 0.4186(11) -0.0862(7) 0.3072(4)
H6C H 0.4368 -0.0850 0.3487
O3C O 0.1921(8) -0.1145(5) 0.5769(3)
C9C C 0.3493(9) -0.0941(7) 0.3010(4)
C10C C 0.6169(10) -0.0985(7) 0.3108(5)
H7C H 0.6265 -0.1212 0.3452
O4C O 0.1635(9) -0.0981(6) -0.0550(4)
C11C C 0.5926(12) -0.0272(8) 0.2179(5)
H8C H 0.5871 0.0010 0.1858
C12C C 0.2829(12) -0.0992(9) 0.4733(4)
H9C H 0.2996 -0.0960 0.5158
C13C C 0.2384(13) -0.1035(10) 0.3478(5)
H10C H 0.2218 -0.1043 0.3056
C14C C 0.3652(10) -0.0838(7) 0.1893(4)
C15C C 0.4620(9) -0.0800(7) 0.2535(4)
C16C C 0.3399(13) -0.0550(9) 0.0116(5)
H11C H 0.3689 -0.0352 -0.0253
C17C C 0.1675(11) -0.1191(8) 0.5210(6)
C18C C 0.5335(10) -0.0718(7) 0.2602(4)
C19C C 0.2156(10) -0.1090(7) 0.4637(5)
C20C C 0.3054(11) -0.0979(8) 0.3587(4)
C21C C 0.3291(13) -0.0934(10) 0.4220(5)
H12C H 0.3755 -0.0867 0.4304
C22C C 0.5523(10) -0.1071(7) 0.3075(5)
H13C H 0.5169 -0.1377 0.3375
C23C C 0.3720(12) -0.0589(9) 0.0710(4)
H14C H 0.4215 -0.0447 0.0731
C24C C 0.2279(16) -0.1066(10) 0.0623(5)
H15C H 0.1771 -0.1270 0.0597
C25C C 0.2574(16) -0.1065(12) 0.1232(5)
H16C H 0.2283 -0.1215 0.1604
C26C C 0.1939(12) -0.1082(9) 0.4038(6)
H17C H 0.1490 -0.1107 0.3971
Zn1_2 Zn 0.23710(8) 0.0000 -0.1667
Zn2A Zn 0.16870(8) 0.23275(11) -0.06505(5)
Zn2B Zn 0.76725(11) -0.06405(8) 0.26829(5)
Zn2D Zn -0.06405(8) -0.23275(11) 0.73171(5)
Zn2E Zn 0.83130(8) 0.06405(8) 0.39838(5)
O1C_2 O 0.2759(7) -0.0372(5) 0.9000(3)
N2C_2 N 0.2245(4) 0.0741(3) 0.8853(2)
N4A N 0.1521(4) 0.1934(5) 0.0759(2)
N4D N -0.0413(3) -0.1934(5) 0.5907(2)
N6B N 0.3283(7) 0.2684(5) 0.0642(3)
N6E N 0.0599(5) -0.2684(5) 0.6025(3)
loop_
_geom_bond_atom_site_label_1
_geom_bond_atom_site_label_2
_geom_bond_site_symmetry_1
_geom_bond_site_symmetry_2
Zn1 O1 1_555 1_555
Zn2 N3 1_555 1_555
O1 C4 1_555 1_555
N1 C9 1_555 1_555
O2 C17 1_555 1_555
N2 Zn1 1_555 1_555
C1 N2 1_555 1_555
H1 C1 1_555 1_555
N3 C1 1_555 1_555
N4 N3 1_555 1_555
C2 N2 1_555 1_555
C3 C4 1_555 1_555
C4 O4 1_555 1_555
C5 H2 1_555 1_555
N5 C2 1_555 1_555
H3 N5 1_555 1_555
H4 N5 1_555 1_555
N6 C7 1_555 1_555
C6 C14 1_555 1_555
C7 H5 1_555 1_555
C8 H6 1_555 1_555
O3 C17 1_555 1_555
C9 C8 1_555 1_555
C10 N6 1_555 1_555
H7 C10 1_555 1_555
C11 C7 1_555 1_555
H8 C11 1_555 1_555
C12 H9 1_555 1_555
C13 H10 1_555 1_555
C14 N1 1_555 1_555
C15 C5 1_555 1_555
C16 C3 1_555 1_555
H11 C16 1_555 1_555
C17 C19 1_555 1_555
C18 C11 1_555 1_555
C19 C12 1_555 1_555
C20 C9 1_555 1_555
C21 C12 1_555 1_555
H12 C21 1_555 1_555
C22 C10 1_555 1_555
H13 C22 1_555 1_555
C23 C6 1_555 1_555
H14 C23 1_555 1_555
C24 C3 1_555 1_555
H15 C24 1_555 1_555
C25 C6 1_555 1_555
H16 C25 1_555 1_555
C26 C13 1_555 1_555
H17 C26 1_555 1_555
Zn2C O2 1_555 1_555
O1C C4C 1_555 1_555
N1C C9C 1_555 1_555
O2C Zn2 1_555 1_555
N2C C1C 1_555 1_555
C1C H1C 1_555 1_555
N3C Zn2C 1_555 1_555
N4C N3C 1_555 1_555
C2C N2C 1_555 1_555
C3C C4C 1_555 1_555
C4C O4C 1_555 1_555
C5C H2C 1_555 1_555
N5C C2C 1_555 1_555
H3C N5C 1_555 1_555
H4C N5C 1_555 1_555
N6C C7C 1_555 1_555
C6C C14C 1_555 1_555
C7C H5C 1_555 1_555
C8C H6C 1_555 1_555
O3C Zn2 1_555 1_555
C9C C8C 1_555 1_555
C10C N6C 1_555 1_555
H7C C10C 1_555 1_555
C11C C7C 1_555 1_555
H8C C11C 1_555 1_555
C12C H9C 1_555 1_555
C13C H10C 1_555 1_555
C14C N1C 1_555 1_555
C15C C5C 1_555 1_555
C16C C3C 1_555 1_555
H11C C16C 1_555 1_555
C17C O2C 1_555 1_555
C18C C11C 1_555 1_555
C19C C12C 1_555 1_555
C20C C9C 1_555 1_555
C21C C12C 1_555 1_555
H12C C21C 1_555 1_555
C22C C10C 1_555 1_555
H13C C22C 1_555 1_555
C23C C6C 1_555 1_555
H14C C23C 1_555 1_555
C24C C3C 1_555 1_555
H15C C24C 1_555 1_555
C25C C6C 1_555 1_555
H16C C25C 1_555 1_555
C26C C13C 1_555 1_555
H17C C26C 1_555 1_555
Zn1_2 O1C 1_555 1_555
Zn2A N4C 1_555 1_555
Zn2B N6C 1_555 1_555
Zn2D N4 1_555 1_555
Zn2E N6 1_555 1_555
O1C_2 Zn1 1_555 1_555
N2C_2 Zn1 1_555 1_555
N4A Zn2C 1_555 1_555
N4D Zn2 1_555 1_555
N6B Zn2C 1_555 1_555
N6E Zn2 1_555 1_555
N4 C2 1_555 1_555
C5 C14 1_555 1_555
C8 C15 1_555 1_555
O3 Zn2C 1_555 1_555
C13 C20 1_555 1_555
C15 C18 1_555 1_555
C16 C23 1_555 1_555
C18 C22 1_555 1_555
C19 C26 1_555 1_555
C20 C21 1_555 1_555
C24 C25 1_555 1_555
N2C Zn1_2 1_555 1_555
C1C N3C 1_555 1_555
N4C C2C 1_555 1_555
C5C C14C 1_555 1_555
C8C C15C 1_555 1_555
O3C C17C 1_555 1_555
C13C C20C 1_555 1_555
C15C C18C 1_555 1_555
C16C C23C 1_555 1_555
C17C C19C 1_555 1_555
C18C C22C 1_555 1_555
C19C C26C 1_555 1_555
C20C C21C 1_555 1_555
C24C C25C 1_555 1_555

#END
