
#######################################################################
#
#                 Cambridge Crystallographic Data Centre
#                                CCDC 
#
#######################################################################
#
# If this CIF has been generated from an entry in the Cambridge 
# Structural Database, then it will include bibliographic, chemical, 
# crystal, experimental, refinement or atomic coordinate data resulting 
# from the CCDC's data processing and validation procedures.
#
#######################################################################

data_PUCKUV
_chemical_formula_moiety         '(C21 H18 Cl2 Dy2 N2 O19)n'
_symmetry_cell_setting           monoclinic
_symmetry_space_group_name_H-M   'P 21/n'
_symmetry_Int_Tables_number      14
_space_group_name_Hall           '-P 2yn'
loop_
_symmetry_equiv_pos_site_id
_symmetry_equiv_pos_as_xyz
1 x,y,z
2 1/2-x,1/2+y,1/2-z
3 -x,-y,-z
4 1/2+x,1/2-y,1/2+z
_cell_length_a                   8.8383(4)
_cell_length_b                   18.4543(10)
_cell_length_c                   18.0608(8)
_cell_angle_alpha                90
_cell_angle_beta                 92.572(4)
_cell_angle_gamma                90
_cell_volume                     2942.83
loop_
_atom_site_label
_atom_site_type_symbol
_atom_site_fract_x
_atom_site_fract_y
_atom_site_fract_z
Dy1 Dy 0.26379(5) 0.31496(3) 0.15925(3)
Dy2 Dy 0.29013(6) 0.20404(3) 0.70841(3)
O1 O 0.1416(9) 0.2362(5) 1.0752(4)
O2 O -0.0908(9) 0.2360(4) 1.1196(4)
O3 O 0.0226(8) 0.1928(4) 0.9404(4)
O4 O -0.0920(9) 0.1392(4) 0.7571(4)
O5 O 0.1277(9) 0.1861(5) 0.8019(4)
O6 O -0.0439(9) 0.6312(4) 0.7825(4)
O7 O 0.1769(9) 0.5778(4) 0.7732(5)
O8 O 0.0500(8) 0.4502(4) 0.7314(4)
O9 O -0.0591(9) 0.2754(4) 0.6668(4)
O10 O 0.1656(9) 0.3165(4) 0.7109(5)
O11 O 0.1470(8) 0.1558(4) 0.6155(4)
O12 O -0.0789(8) 0.1715(4) 0.5573(4)
O13 O 0.0527(8) 0.1962(4) 0.4282(4)
O14 O -0.0533(8) 0.2365(5) 0.2918(4)
O15 O 0.1808(8) 0.2364(4) 0.2498(4)
O16 O 0.2810(11) 0.4439(5) 0.1345(5)
O17 O 0.1143(10) 0.3861(5) 0.0681(5)
C1 C 0.0033(14) 0.2235(6) 1.0708(6)
C2 C -0.0639(13) 0.1917(7) 1.0002(6)
C3 C -0.1989(12) 0.1586(6) 0.9837(6)
H1 H -0.2761 0.1499 1.0159
C4 C -0.1980(12) 0.1404(6) 0.9088(6)
H2 H -0.2754 0.1177 0.8810
C5 C -0.0636(12) 0.1621(6) 0.8845(5)
C6 C -0.0042(12) 0.1632(6) 0.8084(6)
C7 C 0.0339(13) 0.5764(6) 0.7668(6)
C8 C -0.0430(12) 0.5105(6) 0.7402(6)
C9 C -0.1885(13) 0.4923(6) 0.7206(6)
H3 H -0.2728 0.5224 0.7221
C10 C -0.1871(13) 0.4185(6) 0.6973(6)
H4 H -0.2700 0.3914 0.6799
C11 C -0.0423(12) 0.3955(6) 0.7055(6)
C12 C 0.0260(13) 0.3239(6) 0.6935(6)
C13 C 0.0619(13) 0.1656(6) 0.5582(5)
C14 C 0.1380(11) 0.1694(6) 0.4871(5)
C15 C 0.2794(12) 0.1515(6) 0.4674(5)
H5 H 0.3573 0.1323 0.4977
C16 C 0.2837(12) 0.1686(6) 0.3901(7)
H6 H 0.3653 0.1617 0.3600
C17 C 0.1476(12) 0.1964(6) 0.3691(6)
C18 C 0.0869(12) 0.2250(6) 0.2982(6)
O18 O 0.082(3) 0.5011(12) 0.0770(13)
N1 N 0.149(3) 0.4458(14) 0.0921(13)
Dy1_2 Dy 0.26379(5) 0.31496(3) 1.15925(3)
Dy1B Dy -0.26379(5) 0.68504(3) 0.84075(3)
Dy1C Dy -0.23621(5) 0.18504(3) 0.65925(3)
Dy2A Dy 0.20987(6) 0.70404(3) 0.79159(3)
Dy2C Dy -0.20987(6) 0.29596(3) 0.20841(3)
Dy2C_2 Dy -0.20987(6) 0.29596(3) 1.20841(3)
O1_2 O 0.1416(9) 0.2362(5) 0.0752(4)
O2C O 0.4092(9) 0.2640(4) 0.6196(4)
O4C O 0.4080(9) 0.3608(4) 0.2571(4)
O6A O 0.5439(9) 0.1312(4) 0.7175(4)
O6B O 0.0439(9) 0.3688(4) 0.2175(4)
O7A O 0.3231(9) 0.0778(4) 0.7268(5)
O9C O 0.4409(9) 0.2246(4) 0.1668(4)
O12C O 0.4211(8) 0.3285(4) 0.0573(4)
O14C O 0.4467(8) 0.2635(5) 0.7918(4)
N3 N 0.305(3) 0.4227(14) 0.8483(14)
H7 H 0.3052 0.4222 0.8007
C19 C 0.389(3) 0.4693(17) 0.8875(17)
H8 H 0.4385 0.5015 0.8547
H9 H 0.4629 0.4435 0.9176
H10 H 0.3250 0.4969 0.9188
C20 C 0.201(2) 0.3657(10) 0.8937(10)
H11 H 0.1083 0.3563 0.8654
H12 H 0.1778 0.3863 0.9407
H13 H 0.2552 0.3212 0.9015
Cl1 Cl 0.1805(6) 0.0460(3) 1.0121(3)
C21 C 0.330(2) 0.1063(11) 0.9907(11)
H14 H 0.2900 0.1552 0.9915
H15 H 0.4072 0.1029 1.0304
Cl2 Cl 0.412(2) 0.0955(16) 0.9129(7)
O20 O 0.426(3) 0.4255(16) 0.7187(15)
loop_
_geom_bond_atom_site_label_1
_geom_bond_atom_site_label_2
_geom_bond_site_symmetry_1
_geom_bond_site_symmetry_2
Dy1 O15 1_555 1_555
Dy2 O5 1_555 1_555
O1 C1 1_555 1_555
O2 C1 1_555 1_555
O3 C2 1_555 1_555
O4 C6 1_555 1_555
O5 C6 1_555 1_555
O6 C7 1_555 1_555
O7 C7 1_555 1_555
O8 C8 1_555 1_555
O9 C12 1_555 1_555
O10 Dy2 1_555 1_555
O11 Dy2 1_555 1_555
O12 C13 1_555 1_555
O13 C14 1_555 1_555
O14 C18 1_555 1_555
O15 C18 1_555 1_555
O16 Dy1 1_555 1_555
O17 Dy1 1_555 1_555
C1 C2 1_555 1_555
C2 C3 1_555 1_555
C3 H1 1_555 1_555
C4 C3 1_555 1_555
H2 C4 1_555 1_555
C5 O3 1_555 1_555
C6 C5 1_555 1_555
C7 C8 1_555 1_555
C8 C9 1_555 1_555
C9 H3 1_555 1_555
C10 C9 1_555 1_555
H4 C10 1_555 1_555
C11 O8 1_555 1_555
C12 O10 1_555 1_555
C13 O11 1_555 1_555
C14 C13 1_555 1_555
C15 C14 1_555 1_555
H5 C15 1_555 1_555
C16 C15 1_555 1_555
H6 C16 1_555 1_555
C17 O13 1_555 1_555
C18 C17 1_555 1_555
O18 N1 1_555 1_555
N1 O16 1_555 1_555
N3 H7 1_555 1_555
C19 N3 1_555 1_555
H8 C19 1_555 1_555
H9 C19 1_555 1_555
H10 C19 1_555 1_555
C20 N3 1_555 1_555
H11 C20 1_555 1_555
H12 C20 1_555 1_555
H13 C20 1_555 1_555
Cl1 C21 1_555 1_555
C21 H14 1_555 1_555
H15 C21 1_555 1_555
Cl2 C21 1_555 1_555
Dy1_2 O1 1_555 1_555
Dy1B O6 1_555 1_555
Dy1C O4 1_555 1_555
Dy2A O6 1_555 1_555
Dy2C O14 1_555 1_555
Dy2C_2 O2 1_555 1_555
O1_2 Dy1 1_555 1_555
O2C Dy2 1_555 1_555
O4C Dy1 1_555 1_555
O6A Dy2 1_555 1_555
O6B Dy1 1_555 1_555
O7A Dy2 1_555 1_555
O9C Dy1 1_555 1_555
O12C Dy1 1_555 1_555
O14C Dy2 1_555 1_555
O7 Dy2A 1_555 1_555
O9 Dy1C 1_555 1_555
O12 Dy1C 1_555 1_555
O17 N1 1_555 1_555
C4 C5 1_555 1_555
C10 C11 1_555 1_555
C11 C12 1_555 1_555
C16 C17 1_555 1_555
Dy2C O6B 1_555 1_555

#END
