
#######################################################################
#
#                 Cambridge Crystallographic Data Centre
#                                CCDC 
#
#######################################################################
#
# If this CIF has been generated from an entry in the Cambridge 
# Structural Database, then it will include bibliographic, chemical, 
# crystal, experimental, refinement or atomic coordinate data resulting 
# from the CCDC's data processing and validation procedures.
#
#######################################################################

data_NIKCOB
_chemical_formula_moiety         '(C16 H14 Ca1 N2 O10 S1)n'
_symmetry_cell_setting           monoclinic
_symmetry_space_group_name_H-M   'C 2/c'
_symmetry_Int_Tables_number      15
_space_group_name_Hall           '-C 2yc'
loop_
_symmetry_equiv_pos_site_id
_symmetry_equiv_pos_as_xyz
1 x,y,z
2 -x,y,1/2-z
3 1/2+x,1/2+y,z
4 1/2-x,1/2+y,1/2-z
5 -x,-y,-z
6 x,-y,1/2+z
7 1/2-x,1/2-y,-z
8 1/2+x,1/2-y,1/2+z
_cell_length_a                   15.876(3)
_cell_length_b                   23.562(5)
_cell_length_c                   12.514(3)
_cell_angle_alpha                90
_cell_angle_beta                 117.77(3)
_cell_angle_gamma                90
_cell_volume                     4141.97
loop_
_atom_site_label
_atom_site_type_symbol
_atom_site_fract_x
_atom_site_fract_y
_atom_site_fract_z
_atom_site_U_iso_or_equiv
_atom_site_thermal_displace_type
C1 C 0.0419(6) 0.5738(4) 0.1219(9) 0.0451 Uani
H1 H 0.0713 0.5602 0.2007 0.0540 Uiso
C2 C 0.0886(6) 0.6140(4) 0.0857(9) 0.0481 Uani
C3 C 0.0479(7) 0.6343(5) -0.0320(10) 0.0599 Uani
H2 H 0.0794 0.661 -0.0551 0.0720 Uiso
C4 C -0.0491(6) 0.5540(4) 0.0401(8) 0.0410 Uani
H3 H -0.0811 0.5279 0.0638 0.0490 Uiso
C5 C -0.0901(6) 0.5748(4) -0.0778(8) 0.0419 Uani
C6 C -0.0406(7) 0.6140(5) -0.1140(9) 0.0588 Uani
H4 H -0.0678 0.6261 -0.1938 0.0710 Uiso
N1 N -0.1814(5) 0.5582(3) -0.1683(6) 0.0413 Uani
H5 H -0.1923 0.5638 -0.2415 0.0490 Uiso
C7 C -0.2537(5) 0.5347(3) -0.1552(7) 0.0284 Uani
O1 O -0.4198(4) 0.5193(2) -0.2697(4) 0.0270 Uani
O2 O -0.2522(4) 0.5209(2) -0.0583(5) 0.0327 Uani
C8 C -0.3447(6) 0.5278(3) -0.2786(7) 0.0279 Uani
O3 O -0.3327(4) 0.5313(2) -0.3707(5) 0.0338 Uani
Ca1 Ca -0.08309(11) 1.00424(6) 0.57367(13) 0.0237 Uani
S1 S 0.1991(3) 0.6437(3) 0.1860(7) 0.0368 Uani
O4 O 0.2564(7) 0.5973(5) 0.2621(11) 0.0433 Uani
O5 O 0.2366(8) 0.6782(5) 0.1198(11) 0.0416 Uani
O6 O 0.0239(4) 0.8491(2) 0.6195(5) 0.0391 Uani
O7 O 0.1044(4) 0.8907(2) 0.4126(5) 0.0331 Uani
O8 O 0.0248(4) 0.9369(2) 0.5416(5) 0.0278 Uani
C9 C 0.0826(5) 0.8587(3) 0.4742(7) 0.0268 Uani
N2 N 0.0893(5) 0.8009(3) 0.4781(6) 0.0319 Uani
H6 H 0.074 0.7842 0.5276 0.0380 Uiso
C10 C 0.1375(6) 0.7071(3) 0.4460(9) 0.0386 Uani
H7 H 0.1319 0.6942 0.5127 0.0460 Uiso
C11 C 0.1187(5) 0.7646(3) 0.4103(7) 0.0311 Uani
C12 C 0.1645(6) 0.6696(4) 0.3806(9) 0.0437 Uani
H8 H 0.1775 0.6317 0.4036 0.0520 Uiso
C13 C 0.0398(6) 0.8838(3) 0.5532(7) 0.0282 Uani
C14 C 0.1714(6) 0.6899(4) 0.2807(8) 0.0401 Uani
C15 C 0.1272(6) 0.7845(4) 0.3102(8) 0.0378 Uani
H9 H 0.1156 0.8224 0.2876 0.0450 Uiso
C16 C 0.1533(6) 0.7464(4) 0.2441(9) 0.0451 Uani
H10 H 0.1584 0.7588 0.1769 0.0540 Uiso
O9 O -0.1194(4) 0.9104(2) 0.6216(5) 0.0348 Uani
H11 H -0.0782 0.8906 0.6336 0.0530 Uiso
H12 H -0.1426 0.8973 0.6797 0.0530 Uiso
O1B O 0.0802(4) 1.0193(2) 0.7303(4) 0.0270 Uani
O1C O -0.0802(4) 1.0193(2) 0.7697(4) 0.0270 Uani
O2C O -0.2478(4) 1.0209(2) 0.5583(5) 0.0327 Uani
O3F O -0.1673(4) 0.9687(2) 0.3707(5) 0.0338 Uani
Ca1B Ca -0.58309(11) 0.50424(6) -0.42633(13) 0.0237 Uani
Ca1C Ca -0.41691(11) 0.50424(6) -0.07367(13) 0.0237 Uani
Ca1D Ca 0.08309(11) 0.99576(6) 0.42633(13) 0.0237 Uani
Ca1F Ca -0.41691(11) 0.49576(6) -0.57367(13) 0.0237 Uani
O7D O -0.1044(4) 1.1093(2) 0.5874(5) 0.0331 Uani
O8D O -0.0248(4) 1.0631(2) 0.4584(5) 0.0278 Uani
O10 O -0.2600(5) 0.8561(3) 0.3834(6) 0.0648 Uani
H13 H -0.2202 0.8723 0.4494 0.0970 Uiso
H14 H -0.2262 0.8427 0.3515 0.0970 Uiso
loop_
_atom_site_aniso_label
_atom_site_aniso_U_11
_atom_site_aniso_U_22
_atom_site_aniso_U_33
_atom_site_aniso_U_23
_atom_site_aniso_U_13
_atom_site_aniso_U_12
C1 0.035(5) 0.049(6) 0.040(6) -0.018(4) 0.008(4) 0.005(4)
C2 0.028(5) 0.057(6) 0.058(7) -0.034(5) 0.019(5) -0.007(4)
C3 0.039(6) 0.097(9) 0.050(7) -0.030(6) 0.026(5) -0.031(6)
C4 0.036(5) 0.044(5) 0.038(5) -0.016(4) 0.013(4) -0.004(4)
C5 0.035(5) 0.059(6) 0.033(5) -0.021(4) 0.017(4) -0.016(4)
C6 0.047(6) 0.096(8) 0.042(6) -0.018(6) 0.028(5) -0.031(6)
N1 0.034(4) 0.069(5) 0.024(4) -0.010(3) 0.016(3) -0.021(4)
C7 0.028(4) 0.033(4) 0.026(4) -0.004(3) 0.014(4) 0.000(3)
O1 0.025(3) 0.039(3) 0.020(3) -0.001(2) 0.013(2) -0.002(2)
O2 0.031(3) 0.046(3) 0.021(3) 0.001(2) 0.012(3) -0.002(3)
C8 0.031(4) 0.029(4) 0.022(4) 0.000(3) 0.011(4) -0.001(3)
O3 0.036(3) 0.049(3) 0.019(3) -0.002(3) 0.015(3) -0.007(3)
Ca1 0.0250(8) 0.0297(9) 0.0182(8) -0.0010(6) 0.0115(6) 0.0000(6)
S1 0.0260(13) 0.043(3) 0.037(3) -0.015(2) 0.011(2) 0.0025(16)
O4 0.032(4) 0.042(6) 0.048(7) -0.011(5) 0.012(4) 0.006(4)
O5 0.030(5) 0.054(7) 0.046(7) -0.017(5) 0.022(6) -0.007(5)
O6 0.051(4) 0.034(3) 0.044(4) 0.007(3) 0.032(3) 0.005(3)
O7 0.041(3) 0.031(3) 0.034(3) 0.001(2) 0.023(3) 0.005(3)
O8 0.032(3) 0.027(3) 0.029(3) 0.002(2) 0.018(3) 0.002(2)
C9 0.023(4) 0.030(4) 0.022(4) -0.002(3) 0.006(3) 0.000(3)
N2 0.035(4) 0.029(4) 0.034(4) -0.003(3) 0.018(3) -0.001(3)
C10 0.028(5) 0.034(5) 0.052(6) -0.008(4) 0.017(4) -0.006(4)
C11 0.021(4) 0.034(5) 0.032(5) -0.008(4) 0.007(4) 0.001(3)
C12 0.030(5) 0.029(5) 0.064(7) -0.015(4) 0.015(5) -0.003(4)
C13 0.028(4) 0.030(4) 0.026(4) 0.000(3) 0.012(4) -0.001(3)
C14 0.023(5) 0.048(5) 0.042(5) -0.018(4) 0.009(4) -0.001(4)
C15 0.034(5) 0.042(5) 0.033(5) -0.005(4) 0.012(4) 0.008(4)
C16 0.038(5) 0.051(6) 0.041(5) -0.013(4) 0.014(4) 0.004(4)
O9 0.035(3) 0.040(3) 0.036(3) 0.007(3) 0.022(3) 0.001(3)
O1B 0.025 0.039 0.02 -0.001 0.013 -0.002
O1C 0.025 0.039 0.02 0.001 0.013 0.002
O2C 0.031 0.046 0.021 -0.001 0.012 0.002
O3F 0.036 0.049 0.019 -0.002 0.015 -0.007
Ca1B 0.025 0.0297 0.0182 -0.001 0.0115 0
Ca1C 0.025 0.0297 0.0182 0.001 0.0115 0
Ca1D 0.025 0.0297 0.0182 -0.001 0.0115 0
Ca1F 0.025 0.0297 0.0182 -0.001 0.0115 0
O7D 0.041 0.031 0.034 0.001 0.023 0.005
O8D 0.032 0.027 0.029 0.002 0.018 0.002
O10 0.071(5) 0.079(5) 0.039(4) -0.009(4) 0.021(4) -0.024(4)
loop_
_geom_bond_atom_site_label_1
_geom_bond_atom_site_label_2
_geom_bond_site_symmetry_1
_geom_bond_site_symmetry_2
C1 H1 1_555 1_555
C2 C1 1_555 1_555
C3 C2 1_555 1_555
H2 C3 1_555 1_555
C4 C1 1_555 1_555
H3 C4 1_555 1_555
C5 C4 1_555 1_555
C6 C3 1_555 1_555
H4 C6 1_555 1_555
N1 C5 1_555 1_555
H5 N1 1_555 1_555
C7 N1 1_555 1_555
O1 C8 1_555 1_555
O2 C7 1_555 1_555
C8 C7 1_555 1_555
O3 C8 1_555 1_555
Ca1 O8 1_555 1_555
S1 C2 1_555 1_555
O4 S1 1_555 1_555
O5 S1 1_555 1_555
O6 C13 1_555 1_555
O7 C9 1_555 1_555
O8 C13 1_555 1_555
C9 N2 1_555 1_555
N2 H6 1_555 1_555
C10 H7 1_555 1_555
C11 N2 1_555 1_555
C12 C10 1_555 1_555
H8 C12 1_555 1_555
C13 C9 1_555 1_555
C14 S1 1_555 1_555
C15 C11 1_555 1_555
H9 C15 1_555 1_555
C16 C14 1_555 1_555
H10 C16 1_555 1_555
O9 Ca1 1_555 1_555
H11 O9 1_555 1_555
H12 O9 1_555 1_555
O10 H13 1_555 1_555
H14 O10 1_555 1_555
O1B Ca1 1_555 1_555
O1C Ca1 1_555 1_555
O2C Ca1 1_555 1_555
O3F Ca1 1_555 1_555
Ca1B O1 1_555 1_555
Ca1C O1 1_555 1_555
Ca1D O7 1_555 1_555
Ca1F O3 1_555 1_555
O7D Ca1 1_555 1_555
O8D Ca1 1_555 1_555
C5 C6 1_555 1_555
O2 Ca1C 1_555 1_555
O8 Ca1D 1_555 1_555
C10 C11 1_555 1_555
C12 C14 1_555 1_555
C15 C16 1_555 1_555
Ca1D O8D 1_555 1_555

#END
