
#######################################################################
#
#                 Cambridge Crystallographic Data Centre
#                                CCDC 
#
#######################################################################
#
# If this CIF has been generated from an entry in the Cambridge 
# Structural Database, then it will include bibliographic, chemical, 
# crystal, experimental, refinement or atomic coordinate data resulting 
# from the CCDC's data processing and validation procedures.
#
#######################################################################

data_AFEKAX
_chemical_formula_moiety         'C10 H6 Cu1 F7 N4 O2 Si1'
_symmetry_cell_setting           tetragonal
_symmetry_space_group_name_H-M   'P 4/m m m'
_symmetry_Int_Tables_number      123
_space_group_name_Hall           '-P 4 2'
loop_
_symmetry_equiv_pos_site_id
_symmetry_equiv_pos_as_xyz
1 x,y,z
2 -x,y,z
3 x,-y,z
4 -y,x,z
5 y,-x,z
6 y,x,z
7 x,y,-z
8 y,x,-z
9 -x,-y,-z
10 x,-y,-z
11 -x,y,-z
12 y,-x,-z
13 -y,x,-z
14 -y,-x,-z
15 -x,-y,z
16 -y,-x,z
_cell_length_a                   11.0449(6)
_cell_length_b                   11.0449(6)
_cell_length_c                   8.055(1)
_cell_angle_alpha                90
_cell_angle_beta                 90
_cell_angle_gamma                90
_cell_volume                     982.628
loop_
_atom_site_label
_atom_site_type_symbol
_atom_site_fract_x
_atom_site_fract_y
_atom_site_fract_z
O1 O 1.0000 -0.0000 0.5000
O2 O 1.362(8) -0.0000 0.5000
Cu1 Cu 0.5000 0.5000 1.0000
Si1 Si 0.5000 0.5000 1.5000
F1 F 0.5000 0.5000 1.290(2)
F2 F 0.3921(7) 0.3921 1.5000
N1 N 0.5000 0.322(2) 1.0000
C1 C 0.453(2) 0.258(2) 1.123(3)
C2 C 0.450(3) 0.136(2) 1.134(2)
C3 C 0.5000 0.072(2) 1.0000
H1 H 0.4187 0.3022 1.2129
H2 H 0.4135 0.0977 1.2260
F1F F 0.5000 0.5000 0.710(2)
N1B N 0.5000 0.678(2) 1.0000
N1C N 0.678(2) 0.5000 1.0000
N1D N 0.322(2) 0.5000 1.0000
F1F_2 F 0.5000 0.5000 1.710(2)
F2A F 0.6079(7) 0.3921 1.5000
F2B F 0.3921(7) 0.6079 1.5000
F2H F 0.6079(7) 0.6079 1.5000
C1A C 0.547(2) 0.258(2) 1.123(3)
C1F C 0.453(2) 0.258(2) 0.877(3)
C1J C 0.547(2) 0.258(2) 0.877(3)
C2A C 0.550(3) 0.136(2) 1.134(2)
C3B C 0.5000 -0.072(2) 1.0000
C2F C 0.450(3) 0.136(2) 0.866(2)
C2J C 0.550(3) 0.136(2) 0.866(2)
loop_
_geom_bond_atom_site_label_1
_geom_bond_atom_site_label_2
_geom_bond_site_symmetry_1
_geom_bond_site_symmetry_2
Cu1 F1 1_555 1_555
Si1 F1 1_555 1_555
F2 Si1 1_555 1_555
N1 Cu1 1_555 1_555
C1 N1 1_555 1_555
C2 C1 1_555 1_555
C3 C2 1_555 1_555
H1 C1 1_555 1_555
H2 C2 1_555 1_555
F1F Cu1 1_555 1_555
N1B Cu1 1_555 1_555
N1C Cu1 1_555 1_555
N1D Cu1 1_555 1_555
F1F_2 Si1 1_555 1_555
F2A Si1 1_555 1_555
F2B Si1 1_555 1_555
F2H Si1 1_555 1_555
C1A N1 1_555 1_555
C1F N1 1_555 1_555
C1J N1 1_555 1_555
C2A C1 1_555 1_555
C3B C3 1_555 1_555
C2F C3 1_555 1_555
C2J C3 1_555 1_555
C1 C1A 1_555 1_555
C2 C2A 1_555 1_555
C2 C1A 1_555 1_555
C3 C2A 1_555 1_555
C1A C2A 1_555 1_555
C1F C1J 1_555 1_555
C1F C2F 1_555 1_555
C1F C2J 1_555 1_555
C1J C2J 1_555 1_555
C1J C2F 1_555 1_555
C2F C2J 1_555 1_555

#END
