
#######################################################################
#
#                 Cambridge Crystallographic Data Centre
#                                CCDC 
#
#######################################################################
#
# If this CIF has been generated from an entry in the Cambridge 
# Structural Database, then it will include bibliographic, chemical, 
# crystal, experimental, refinement or atomic coordinate data resulting 
# from the CCDC's data processing and validation procedures.
#
#######################################################################

data_QAXROW
_chemical_formula_moiety         'C8 H2 F2 N5 O45 P14 Zr9'
_symmetry_cell_setting           orthorhombic
_symmetry_space_group_name_H-M   'P n n m'
_symmetry_Int_Tables_number      58
_space_group_name_Hall           '-P 2 2n'
loop_
_symmetry_equiv_pos_site_id
_symmetry_equiv_pos_as_xyz
1 x,y,z
2 x,y,-z
3 1/2+x,1/2-y,1/2+z
4 1/2-x,1/2+y,1/2+z
5 -x,-y,-z
6 -x,-y,z
7 1/2-x,1/2+y,1/2-z
8 1/2+x,1/2-y,1/2-z
_cell_length_a                   15.168(5)
_cell_length_b                   18.972(6)
_cell_length_c                   6.628(2)
_cell_angle_alpha                90
_cell_angle_beta                 90
_cell_angle_gamma                90
_cell_volume                     1907.32
loop_
_atom_site_label
_atom_site_type_symbol
_atom_site_fract_x
_atom_site_fract_y
_atom_site_fract_z
O14 O 1.0000 0.0000 0.5000
N1 N 0.5000 -0.0000 0.3593(58)
N2 N 0.3390(13) -0.0019(15) 0.0920(37)
C1 C 0.3226(6) -0.0476(6) 0.3000(19)
C2 C 0.3613(15) -0.0036(15) 0.5000
C3 C 0.3245(9) 0.0730(8) 0.5000
C4 C 0.4645(19) -0.0103(21) 0.5000
C4D C 0.5355(19) 0.0103(21) 0.5000
N2A N 0.3390(13) -0.0019(15) -0.0920(37)
C1A C 0.3226(6) -0.0476(6) 0.7000(19)
N1A N 0.5000 0.0000 0.6407(58)
C2D C 0.6387(15) 0.0036(15) 0.5000
C1A_2 C 0.3226(6) -0.0476(6) -0.3000(19)
N2A_2 N 0.3390(13) -0.0019(15) 0.9080(37)
Zr1 Zr 0.90134(6) 0.11654(5) 0.0000
Zr2 Zr 0.73125(7) 0.28347(6) -0.5000
Zr3 Zr 0.99660(7) 0.31894(5) -0.5000
P1 P 0.8911(2) 0.15733(14) -0.5000
P2 P 1.0125(2) 0.28008(15) 0.0000
P3 P 0.7206(2) 0.23070(14) 0.0000
P4 P 1.1205(2) 0.0598(2) 0.0755(6)
F1 F 0.8568(3) 0.3320(3) -0.5000
F2 F 0.9998(4) 0.4229(3) -0.5000
O1 O 0.7998(4) 0.1904(4) -0.5000
O2 O 0.9598(4) 0.2150(4) -0.5000
O3 O 0.9017(3) 0.1116(2) -0.3131(8)
O4 O 0.9551(4) 0.2149(4) 0.0000
O5 O 0.6099(4) 0.2421(4) -0.5000
O6 O 0.9935(3) 0.3238(2) -0.8130(8)
O7 O 0.7813(5) 0.1667(4) 0.0000
O8 O 1.1256(4) 0.2967(4) -0.5000
O9 O 0.7362(3) 0.2759(3) -0.8109(8)
O10 O 1.0294(4) 0.0773(4) 0.0000
O11 O 0.6886(4) 0.3869(4) -0.5000
O12 O 0.8539(4) 0.0143(4) 0.0000
O13 O 1.1232(6) 0.0643(6) 0.3077(16)
O3A O 0.9017(3) 0.1116(2) 0.3131(8)
O9A O 0.7362(3) 0.2759(3) -0.1891(8)
O6A O 0.9935(3) 0.3238(2) -0.1870(8)
O3A_2 O 0.9017(3) 0.1116(2) -0.6869(8)
O5B O 1.1099(4) 0.2579(4) 0.0000
O6_2 O 0.9935(3) 0.3238(2) 0.1870(8)
O8B O 0.6256(4) 0.2033(4) 0.0000
O9_2 O 0.7362(3) 0.2759(3) 0.1891(8)
P4A P 1.1205(2) 0.0598(2) -0.0755(6)
O11B O 1.1886(4) 0.1131(4) 0.0000
O12D O 1.1461(4) -0.0143(4) 0.0000
P2B P 0.5125(2) 0.21992(15) -0.5000
P2_2 P 1.0125(2) 0.28008(15) -1.0000
P3B P 1.2206(2) 0.26930(14) -0.5000
P3_2 P 0.7206(2) 0.23070(14) -1.0000
P4B P 0.6205(2) 0.4402(2) -0.4245(6)
P4G P 0.6205(2) 0.4402(2) -0.5755(6)
P4D P 0.8795(2) -0.0598(2) -0.0755(6)
P4E P 0.8795(2) -0.0598(2) 0.0755(6)
P1_2 P 0.8911(2) 0.15733(14) 0.5000
Zr1_2 Zr 0.90134(6) 0.11654(5) -1.0000
Zr2B Zr 1.23125(7) 0.21653(6) 0.0000
Zr3_2 Zr 0.99660(7) 0.31894(5) 0.5000
Zr3B Zr 0.49660(7) 0.18106(5) 0.0000
Zr2_2 Zr 0.73125(7) 0.28347(6) 0.5000
O13A O 1.1232(6) 0.0643(6) -0.3077(16)
Zr1D Zr 1.09866(6) -0.11654(5) 0.0000
O4B O 0.4551(4) 0.2851(4) -0.5000
O6B O 0.4935(3) 0.1762(2) -0.3130(8)
O6G O 0.4935(3) 0.1762(2) -0.6870(8)
O4_2 O 0.9551(4) 0.2149(4) -1.0000
O5B_2 O 1.1099(4) 0.2579(4) -1.0000
O6A_2 O 0.9935(3) 0.3238(2) -1.1870(8)
O7B O 1.2813(5) 0.3333(4) -0.5000
O9B O 1.2362(3) 0.2241(3) -0.3109(8)
O9G O 1.2362(3) 0.2241(3) -0.6891(8)
O7_2 O 0.7813(5) 0.1667(4) -1.0000
O8B_2 O 0.6256(4) 0.2033(4) -1.0000
O9A_2 O 0.7362(3) 0.2759(3) -1.1891(8)
O10B O 0.5294(4) 0.4227(4) -0.5000
O12C O 0.6461(4) 0.5143(4) -0.5000
O13B O 0.6232(6) 0.4357(6) -0.1923(16)
O13G O 0.6232(6) 0.4357(6) -0.8077(16)
O10D O 0.9706(4) -0.0773(4) 0.0000
O11C O 0.8114(4) -0.1131(4) 0.0000
O13D O 0.8768(6) -0.0643(6) -0.3077(16)
O13E O 0.8768(6) -0.0643(6) 0.3077(16)
loop_
_geom_bond_atom_site_label_1
_geom_bond_atom_site_label_2
_geom_bond_site_symmetry_1
_geom_bond_site_symmetry_2
Zr1 O3 1_555 1_555
Zr2 F1 1_555 1_555
Zr3 F1 1_555 1_555
P1 O1 1_555 1_555
P2 O4 1_555 1_555
P3 O7 1_555 1_555
P4 O10 1_555 1_555
F2 Zr3 1_555 1_555
O1 Zr2 1_555 1_555
O2 Zr3 1_555 1_555
O3 P1 1_555 1_555
O4 Zr1 1_555 1_555
O5 Zr2 1_555 1_555
O6 Zr3 1_555 1_555
O7 Zr1 1_555 1_555
O8 Zr3 1_555 1_555
O9 Zr2 1_555 1_555
O10 Zr1 1_555 1_555
O11 Zr2 1_555 1_555
O12 Zr1 1_555 1_555
O13 P4 1_555 1_555
N1 C4 1_555 1_555
N2 C1 1_555 1_555
C1 C2 1_555 1_555
C2 C3 1_555 1_555
C4 C2 1_555 1_555
O3A Zr1 1_555 1_555
O9A Zr2 1_555 1_555
O6A Zr3 1_555 1_555
O3A_2 P1 1_555 1_555
O5B P2 1_555 1_555
O6_2 P2 1_555 1_555
O8B P3 1_555 1_555
O9_2 P3 1_555 1_555
P4A P4 1_555 1_555
O11B P4 1_555 1_555
O12D P4 1_555 1_555
P2B O5 1_555 1_555
P2_2 O6 1_555 1_555
P3B O8 1_555 1_555
P3_2 O9 1_555 1_555
P4B O11 1_555 1_555
P4G O11 1_555 1_555
P4D O12 1_555 1_555
P4E O12 1_555 1_555
C4D N1 1_555 1_555
N2A N2 1_555 1_555
C1A C2 1_555 1_555
N1A C4 1_555 1_555
P1_2 O3A 1_555 1_555
Zr1_2 O3A_2 1_555 1_555
Zr2B O5B 1_555 1_555
Zr3_2 O6_2 1_555 1_555
Zr3B O8B 1_555 1_555
Zr2_2 O9_2 1_555 1_555
O13A P4A 1_555 1_555
Zr1D O12D 1_555 1_555
O4B P2B 1_555 1_555
O6B P2B 1_555 1_555
O6G P2B 1_555 1_555
O4_2 P2_2 1_555 1_555
O5B_2 P2_2 1_555 1_555
O6A_2 P2_2 1_555 1_555
O7B P3B 1_555 1_555
O9B P3B 1_555 1_555
O9G P3B 1_555 1_555
O7_2 P3_2 1_555 1_555
O8B_2 P3_2 1_555 1_555
O9A_2 P3_2 1_555 1_555
O10B P4B 1_555 1_555
O12C P4B 1_555 1_555
O13B P4B 1_555 1_555
O13G P4G 1_555 1_555
O10D P4D 1_555 1_555
O11C P4D 1_555 1_555
O13D P4D 1_555 1_555
O13E P4E 1_555 1_555
C2D C4D 1_555 1_555
C1A_2 N2A 1_555 1_555
N2A_2 C1A 1_555 1_555
P1 O2 1_555 1_555
P2 O6A 1_555 1_555
P3 O9A 1_555 1_555
O10 P4A 1_555 1_555
C4 C4D 1_555 1_555
P4A O11B 1_555 1_555
P4A O12D 1_555 1_555
O11B Zr2B 1_555 1_555
P4B P4G 1_555 1_555
P4G O10B 1_555 1_555
P4G O12C 1_555 1_555
P4D P4E 1_555 1_555
P4E O10D 1_555 1_555
P4E O11C 1_555 1_555
C4D N1A 1_555 1_555

#END
