
#######################################################################
#
#                 Cambridge Crystallographic Data Centre
#                                CCDC 
#
#######################################################################
#
# If this CIF has been generated from an entry in the Cambridge 
# Structural Database, then it will include bibliographic, chemical, 
# crystal, experimental, refinement or atomic coordinate data resulting 
# from the CCDC's data processing and validation procedures.
#
#######################################################################

data_CIMFUB
_chemical_formula_moiety         '(C6 H4 N6 O4 Zn1)n'
_symmetry_cell_setting           cubic
_symmetry_space_group_name_H-M   'I -4 3 m'
_symmetry_Int_Tables_number      217
_space_group_name_Hall           'I -4 2 3'
loop_
_symmetry_equiv_pos_site_id
_symmetry_equiv_pos_as_xyz
1 x,y,z
2 x,-y,-z
3 -x,-y,z
4 -x,y,-z
5 y,-x,-z
6 -y,-x,z
7 -y,x,-z
8 y,x,z
9 y,z,x
10 -y,-z,x
11 y,-z,-x
12 -y,z,-x
13 z,-y,-x
14 z,y,x
15 -z,y,-x
16 -z,-y,x
17 z,x,y
18 -z,x,-y
19 -z,-x,y
20 z,-x,-y
21 x,z,y
22 x,-z,-y
23 -x,z,-y
24 -x,-z,y
25 1/2+x,1/2+y,1/2+z
26 1/2+x,1/2-y,1/2-z
27 1/2-x,1/2-y,1/2+z
28 1/2-x,1/2+y,1/2-z
29 1/2+y,1/2-x,1/2-z
30 1/2-y,1/2-x,1/2+z
31 1/2-y,1/2+x,1/2-z
32 1/2+y,1/2+x,1/2+z
33 1/2+y,1/2+z,1/2+x
34 1/2-y,1/2-z,1/2+x
35 1/2+y,1/2-z,1/2-x
36 1/2-y,1/2+z,1/2-x
37 1/2+z,1/2-y,1/2-x
38 1/2+z,1/2+y,1/2+x
39 1/2-z,1/2+y,1/2-x
40 1/2-z,1/2-y,1/2+x
41 1/2+z,1/2+x,1/2+y
42 1/2-z,1/2+x,1/2-y
43 1/2-z,1/2-x,1/2+y
44 1/2+z,1/2-x,1/2-y
45 1/2+x,1/2+z,1/2+y
46 1/2+x,1/2-z,1/2-y
47 1/2-x,1/2+z,1/2-y
48 1/2-x,1/2-z,1/2+y
_cell_length_a                   17.0000(11)
_cell_length_b                   17.0000(11)
_cell_length_c                   17.0000(11)
_cell_angle_alpha                90
_cell_angle_beta                 90
_cell_angle_gamma                90
_cell_volume                     4913
loop_
_atom_site_label
_atom_site_type_symbol
_atom_site_fract_x
_atom_site_fract_y
_atom_site_fract_z
_atom_site_U_iso_or_equiv
_atom_site_thermal_displace_type
Zn1 Zn 0.500 0.250 0.000 0.0594 Uani
C1 C 0.3732(2) 0.3732(2) -0.0127(3) 0.0614 Uani
C2 C 0.3481(4) 0.2961(4) 0.0764(4) 0.0953 Uani
H1 H 0.3503 0.2535 0.1124 0.1140 Uiso
N1 N 0.4008(2) 0.3088(2) 0.01814(17) 0.0681 Uani
N2 N 0.4103(3) 0.4103(3) -0.0764(4) 0.0747 Uani
O1 O 0.3801(3) 0.4688(3) -0.1030(3) 0.0967 Uani
C2G C 0.2961(4) 0.3481(4) 0.0764(4) 0.0953 Uani
H1G H 0.2535 0.3503 0.1124 0.1140 Uiso
N1G N 0.3088(2) 0.4008(2) 0.01814(17) 0.0681 Uani
O1G O 0.4688(3) 0.3801(3) -0.1030(3) 0.0967 Uani
C1C C 0.6268(2) 0.3732(2) 0.0127(3) 0.0614 Uani
C2C C 0.6519(4) 0.2961(4) -0.0764(4) 0.0953 Uani
H1C H 0.6497 0.2535 -0.1124 0.1140 Uiso
N1C N 0.5992(2) 0.3088(2) -0.01814(17) 0.0681 Uani
N2C N 0.5897(3) 0.4103(3) 0.0764(4) 0.0747 Uani
O1C O 0.6199(3) 0.4688(3) 0.1030(3) 0.0967 Uani
C2F C 0.7039(4) 0.3481(4) -0.0764(4) 0.0953 Uani
H1F H 0.7465 0.3503 -0.1124 0.1140 Uiso
N1F N 0.6912(2) 0.4008(2) -0.01814(17) 0.0681 Uani
O1F O 0.5312(3) 0.3801(3) 0.1030(3) 0.0967 Uani
Zn1D Zn 0.250 0.500 0.000 0.0594 Uani
Zn1E Zn 0.750 0.500 0.000 0.0594 Uani
N1JA N 0.51814(17) 0.1912(2) 0.0992(2) 0.0681 Uani
N1MA N 0.48186(17) 0.1912(2) -0.0992(2) 0.0681 Uani
loop_
_atom_site_aniso_label
_atom_site_aniso_U_11
_atom_site_aniso_U_22
_atom_site_aniso_U_33
_atom_site_aniso_U_23
_atom_site_aniso_U_13
_atom_site_aniso_U_12
Zn1 0.0616(4) 0.0551(4) 0.0616(4) 0 0 0
C1 0.0611(15) 0.0611(15) 0.062(4) -0.0001(15) -0.0001(15) 0.0019(18)
C2 0.094(3) 0.094(4) 0.098(3) 0.032(3) 0.031(3) 0.021(3)
N1 0.0724(17) 0.0680(16) 0.064(2) 0.0064(13) 0.0064(13) 0.0094(15)
N2 0.0720(19) 0.0720(19) 0.080(3) 0.0067(18) 0.0067(18) 0.004(2)
O1 0.096(3) 0.089(2) 0.105(3) 0.038(2) 0.026(2) 0.021(2)
C2G 0.094 0.094 0.098 0.031 0.032 0.021
N1G 0.068 0.0724 0.064 0.0064 0.0064 0.0094
O1G 0.089 0.096 0.105 0.026 0.038 0.021
C1C 0.0611 0.0611 0.062 0.0001 -0.0001 -0.0019
C2C 0.094 0.094 0.098 -0.032 0.031 -0.021
N1C 0.0724 0.068 0.064 -0.0064 0.0064 -0.0094
N2C 0.072 0.072 0.08 -0.0067 0.0067 -0.004
O1C 0.096 0.089 0.105 -0.038 0.026 -0.021
C2F 0.094 0.094 0.098 -0.031 0.032 -0.021
N1F 0.068 0.0724 0.064 -0.0064 0.0064 -0.0094
O1F 0.089 0.096 0.105 -0.026 0.038 -0.021
Zn1D 0.0551 0.0616 0.0616 0 0 0
Zn1E 0.0551 0.0616 0.0616 0 0 0
N1JA 0.064 0.068 0.0724 0.0094 -0.0064 -0.0064
N1MA 0.064 0.068 0.0724 -0.0094 -0.0064 0.0064
loop_
_geom_bond_atom_site_label_1
_geom_bond_atom_site_label_2
_geom_bond_site_symmetry_1
_geom_bond_site_symmetry_2
Zn1 N1 1_555 1_555
C1 N1 1_555 1_555
C2 H1 1_555 1_555
N1 C2 1_555 1_555
N2 C1 1_555 1_555
O1 N2 1_555 1_555
C2G C2 1_555 1_555
H1G C2G 1_555 1_555
N1G C1 1_555 1_555
O1G N2 1_555 1_555
C1C N1C 1_555 1_555
C2C H1C 1_555 1_555
N1C Zn1 1_555 1_555
N2C C1C 1_555 1_555
O1C N2C 1_555 1_555
C2F C2C 1_555 1_555
H1F C2F 1_555 1_555
N1F C1C 1_555 1_555
O1F N2C 1_555 1_555
Zn1D N1G 1_555 1_555
Zn1E N1F 1_555 1_555
N1JA Zn1 1_555 1_555
N1MA Zn1 1_555 1_555
C2G N1G 1_555 1_555
C2C N1C 1_555 1_555
C2F N1F 1_555 1_555

#END
