
#######################################################################
#
#                 Cambridge Crystallographic Data Centre
#                                CCDC 
#
#######################################################################
#
# If this CIF has been generated from an entry in the Cambridge 
# Structural Database, then it will include bibliographic, chemical, 
# crystal, experimental, refinement or atomic coordinate data resulting 
# from the CCDC's data processing and validation procedures.
#
#######################################################################

data_SETTAO
_chemical_formula_moiety         'C156 H96 Cr3 N21 O58 Zn10'
_symmetry_cell_setting           hexagonal
_symmetry_space_group_name_H-M   'P -6 2 m'
_symmetry_Int_Tables_number      189
_space_group_name_Hall           'P -6 -2'
loop_
_symmetry_equiv_pos_site_id
_symmetry_equiv_pos_as_xyz
1 x,y,z
2 -y,x-y,z
3 -x+y,-x,z
4 x,y,-z
5 -y,x-y,-z
6 -x+y,-x,-z
7 y,x,-z
8 x-y,-y,-z
9 -x,-x+y,-z
10 y,x,z
11 x-y,-y,z
12 -x,-x+y,z
_cell_length_a                   29.749(3)
_cell_length_b                   29.749(3)
_cell_length_c                   13.235(3)
_cell_angle_alpha                90
_cell_angle_beta                 90
_cell_angle_gamma                120
_cell_volume                     10143.8
loop_
_atom_site_label
_atom_site_type_symbol
_atom_site_fract_x
_atom_site_fract_y
_atom_site_fract_z
Zn1 Zn 0.22997(7) 0.22997(7) 1.0000
Cr1 Cr 0.06453(8) -0.0000 0.5000
O1 O 0.0000 -0.0000 0.5000
O2 O 0.1332(3) -0.0000 0.5000
O3 O 0.0969(2) 0.0527(2) 0.6084(5)
C1 C 0.0889(6) 0.0889(6) 0.6393(14)
C2 C 0.1231(5) 0.1231(5) 0.7219(11)
C3 C 0.1596(4) 0.1173(4) 0.7609(10)
H1 H 0.1658 0.0915 0.7349
C4 C 0.1912(5) 0.1491(5) 0.8426(11)
H2 H 0.2179 0.1438 0.8667
N1 N 0.1849(5) 0.1849(5) 0.8851(11)
O4 O 0.2922(4) 0.2074(4) 1.0000
C5 C 0.3905(5) 0.2269(5) 0.9779(15)
H3 H 0.3680 0.2024 1.0251
C6 C 0.3185(5) 0.2424(5) 0.9377(9)
O5 O 0.3040(7) 0.2685(7) 0.8879(15)
C7 C 0.3740(5) 0.2539(7) 0.9210(15)
C8 C 0.4051(7) 0.2897(7) 0.8491(13)
H4 H 0.3925 0.3069 0.8087
C9 C 0.4419(7) 0.2357(7) 0.9661(17)
H5 H 0.4535 0.2170 1.0050
C10 C 0.4746(7) 0.2725(7) 0.8960(15)
C11 C 0.4570(8) 0.2995(7) 0.8383(13)
H6 H 0.4794 0.3245 0.7917
C12 C 0.5659(10) 0.3217(10) 0.8459(15)
N2 N 0.5255(7) 0.2814(7) 0.8846(16)
H7 H 0.5307 0.2567 0.9062
O6 O 0.5627(8) 0.3580(8) 0.8055(15)
C13 C 0.6179(9) 0.3245(14) 0.8460(13)
C14 C 0.6590(16) 0.3758(12) 0.8442(15)
H8 H 0.6534 0.4042 0.8418
O3I O 0.0527(2) 0.0969(2) 0.6084(5)
C3I C 0.1173(4) 0.1596(4) 0.7609(10)
H1I H 0.0915 0.1658 0.7349
C4I C 0.1491(5) 0.1912(5) 0.8426(11)
H2I H 0.1438 0.2179 0.8667
O4A O 0.7926(4) 0.0848(6) 1.0000
C5A C 0.7731(5) 0.1636(7) 0.9779(15)
H3A H 0.7976 0.1656 1.0251
C6A C 0.7576(5) 0.0761(7) 0.9377(9)
O5A O 0.7315(7) 0.0355(10) 0.8879(15)
C7A C 0.7461(7) 0.1201(9) 0.9210(15)
C8A C 0.7103(7) 0.1154(10) 0.8491(13)
H4A H 0.6931 0.0856 0.8087
C9A C 0.7643(7) 0.2062(10) 0.9661(17)
H5A H 0.7830 0.2365 1.0050
C10A C 0.7275(7) 0.2021(10) 0.8960(15)
C11A C 0.7005(7) 0.1575(11) 0.8383(13)
H6A H 0.6755 0.1549 0.7917
C12A C 0.6783(10) 0.2442(14) 0.8459(15)
N2A N 0.7186(7) 0.2441(10) 0.8846(16)
H7A H 0.7433 0.2740 0.9062
O6A O 0.6420(8) 0.2047(11) 0.8055(15)
C13A C 0.6755(14) 0.2934(17) 0.8460(13)
C14A C 0.6242(12) 0.2832(20) 0.8442(15)
H8A H 0.5958 0.2492 0.8418
O4B O 0.9152(6) 0.7078(4) 1.0000
C5B C 0.8364(7) 0.6095(5) 0.9779(15)
H3B H 0.8344 0.6320 1.0251
C6B C 0.9239(7) 0.6815(5) 0.9377(9)
O5B O 0.9645(10) 0.6960(7) 0.8879(15)
C7B C 0.8799(9) 0.6260(5) 0.9210(15)
C8B C 0.8846(10) 0.5949(7) 0.8491(13)
H4B H 0.9144 0.6075 0.8087
C9B C 0.7938(10) 0.5581(7) 0.9661(17)
H5B H 0.7635 0.5465 1.0050
C10B C 0.7979(10) 0.5254(7) 0.8960(15)
C11B C 0.8425(11) 0.5430(8) 0.8383(13)
H6B H 0.8451 0.5206 0.7917
C12B C 0.7558(14) 0.4341(10) 0.8459(15)
N2B N 0.7559(10) 0.4745(7) 0.8846(16)
H7B H 0.7260 0.4693 0.9062
O6B O 0.7953(11) 0.4373(8) 0.8055(15)
C13B C 0.7066(17) 0.3821(9) 0.8460(13)
C14B C 0.7168(20) 0.3410(16) 0.8442(15)
H8B H 0.7508 0.3466 0.8418
C5C C 0.3905(5) 0.2269(5) 1.0221(15)
H3C H 0.3680 0.2024 0.9749
C6C C 0.3185(5) 0.2424(5) 1.0623(9)
O5C O 0.3040(7) 0.2685(7) 1.1121(15)
C7C C 0.3740(5) 0.2539(7) 1.0790(15)
C8C C 0.4051(7) 0.2897(7) 1.1509(13)
H4C H 0.3925 0.3069 1.1913
C9C C 0.4419(7) 0.2357(7) 1.0339(17)
H5C H 0.4535 0.2170 0.9950
C10C C 0.4746(7) 0.2725(7) 1.1040(15)
C11C C 0.4570(8) 0.2995(7) 1.1617(13)
H6C H 0.4794 0.3245 1.2083
C12C C 0.5659(10) 0.3217(10) 1.1541(15)
N2C N 0.5255(7) 0.2814(7) 1.1154(16)
H7C H 0.5307 0.2567 1.0938
O6C O 0.5627(8) 0.3580(8) 1.1945(15)
C13C C 0.6179(9) 0.3245(14) 1.1540(13)
C14C C 0.6590(16) 0.3758(12) 1.1558(15)
H8C H 0.6534 0.4042 1.1582
C5D C 0.7731(5) 0.1636(7) 1.0221(15)
H3D H 0.7976 0.1656 0.9749
C6D C 0.7576(5) 0.0761(7) 1.0623(9)
O5D O 0.7315(7) 0.0355(10) 1.1121(15)
C7D C 0.7461(7) 0.1201(9) 1.0790(15)
C8D C 0.7103(7) 0.1154(10) 1.1509(13)
H4D H 0.6931 0.0856 1.1913
C9D C 0.7643(7) 0.2062(10) 1.0339(17)
H5D H 0.7830 0.2365 0.9950
C10D C 0.7275(7) 0.2021(10) 1.1040(15)
C11D C 0.7005(7) 0.1575(11) 1.1617(13)
H6D H 0.6755 0.1549 1.2083
C12D C 0.6783(10) 0.2442(14) 1.1541(15)
N2D N 0.7186(7) 0.2441(10) 1.1154(16)
H7D H 0.7433 0.2740 1.0938
O6D O 0.6420(8) 0.2047(11) 1.1945(15)
C13D C 0.6755(14) 0.2934(17) 1.1540(13)
C14D C 0.6242(12) 0.2832(20) 1.1558(15)
H8D H 0.5958 0.2492 1.1582
C5E C 0.8364(7) 0.6095(5) 1.0221(15)
H3E H 0.8344 0.6320 0.9749
C6E C 0.9239(7) 0.6815(5) 1.0623(9)
O5E O 0.9645(10) 0.6960(7) 1.1121(15)
C7E C 0.8799(9) 0.6260(5) 1.0790(15)
C8E C 0.8846(10) 0.5949(7) 1.1509(13)
H4E H 0.9144 0.6075 1.1913
C9E C 0.7938(10) 0.5581(7) 1.0339(17)
H5E H 0.7635 0.5465 0.9950
C10E C 0.7979(10) 0.5254(7) 1.1040(15)
C11E C 0.8425(11) 0.5430(8) 1.1617(13)
H6E H 0.8451 0.5206 1.2083
C12E C 0.7558(14) 0.4341(10) 1.1541(15)
N2E N 0.7559(10) 0.4745(7) 1.1154(16)
H7E H 0.7260 0.4693 1.0938
O6E O 0.7953(11) 0.4373(8) 1.1945(15)
C13E C 0.7066(17) 0.3821(9) 1.1540(13)
C14E C 0.7168(20) 0.3410(16) 1.1558(15)
H8E H 0.7508 0.3466 1.1582
Zn1A Zn -0.22997(7) -0.00000(10) 1.0000
Cr1A Cr 0.0000 0.06453(8) 0.5000
O2A O 0.0000 0.1332(3) 0.5000
O3A O -0.0527(2) 0.0442(3) 0.6084(5)
C1A C -0.0889(6) 0.0000(8) 0.6393(14)
C2A C -0.1231(5) 0.0000(7) 0.7219(11)
C3A C -0.1173(4) 0.0423(6) 0.7609(10)
H1A H -0.0915 0.0743 0.7349
C4A C -0.1491(5) 0.0421(7) 0.8426(11)
H2A H -0.1438 0.0741 0.8667
N1A N -0.1849(5) -0.0000(7) 0.8851(11)
O4A_2 O -0.2074(4) 0.0848(6) 1.0000
C5A_2 C -0.2269(5) 0.1636(7) 0.9779(15)
H3A_2 H -0.2024 0.1656 1.0251
C6A_2 C -0.2424(5) 0.0761(7) 0.9377(9)
O5A_2 O -0.2685(7) 0.0355(10) 0.8879(15)
C7A_2 C -0.2539(7) 0.1201(9) 0.9210(15)
C8A_2 C -0.2897(7) 0.1154(10) 0.8491(13)
H4A_2 H -0.3069 0.0856 0.8087
C9A_2 C -0.2357(7) 0.2062(10) 0.9661(17)
H5A_2 H -0.2170 0.2365 1.0050
C10A_2 C -0.2725(7) 0.2021(10) 0.8960(15)
C11A_2 C -0.2995(7) 0.1575(11) 0.8383(13)
H6A_2 H -0.3245 0.1549 0.7917
C12A_2 C -0.3217(10) 0.2442(14) 0.8459(15)
N2A_2 N -0.2814(7) 0.2441(10) 0.8846(16)
H7A_2 H -0.2567 0.2740 0.9062
O6A_2 O -0.3580(8) 0.2047(11) 0.8055(15)
C13A_2 C -0.3245(14) 0.2934(17) 0.8460(13)
C14A_2 C -0.3758(12) 0.2832(20) 0.8442(15)
H8A_2 H -0.4042 0.2492 0.8418
O3K O -0.0969(2) -0.0442(3) 0.6084(5)
C3K C -0.1596(4) -0.0423(6) 0.7609(10)
H1K H -0.1658 -0.0743 0.7349
C4K C -0.1912(5) -0.0421(7) 0.8426(11)
H2K H -0.2179 -0.0741 0.8667
O4B_2 O -0.0848(6) 0.7078(4) 1.0000
C5B_2 C -0.1636(7) 0.6095(5) 0.9779(15)
H3B_2 H -0.1656 0.6320 1.0251
C6B_2 C -0.0761(7) 0.6815(5) 0.9377(9)
O5B_2 O -0.0355(10) 0.6960(7) 0.8879(15)
C7B_2 C -0.1201(9) 0.6260(5) 0.9210(15)
C8B_2 C -0.1154(10) 0.5949(7) 0.8491(13)
H4B_2 H -0.0856 0.6075 0.8087
C9B_2 C -0.2062(10) 0.5581(7) 0.9661(17)
H5B_2 H -0.2365 0.5465 1.0050
C10B_2 C -0.2021(10) 0.5254(7) 0.8960(15)
C11B_2 C -0.1575(11) 0.5430(8) 0.8383(13)
H6B_2 H -0.1549 0.5206 0.7917
C12B_2 C -0.2442(14) 0.4341(10) 0.8459(15)
N2B_2 N -0.2441(10) 0.4745(7) 0.8846(16)
H7B_2 H -0.2740 0.4693 0.9062
O6B_2 O -0.2047(11) 0.4373(8) 0.8055(15)
C13B_2 C -0.2934(17) 0.3821(9) 0.8460(13)
C14B_2 C -0.2832(20) 0.3410(16) 0.8442(15)
H8B_2 H -0.2492 0.3466 0.8418
O4_2 O -0.7078(4) 0.2074(4) 1.0000
C5_2 C -0.6095(5) 0.2269(5) 0.9779(15)
H3_2 H -0.6320 0.2024 1.0251
C6_2 C -0.6815(5) 0.2424(5) 0.9377(9)
O5_2 O -0.6960(7) 0.2685(7) 0.8879(15)
C7_2 C -0.6260(5) 0.2539(7) 0.9210(15)
C8_2 C -0.5949(7) 0.2897(7) 0.8491(13)
H4_2 H -0.6075 0.3069 0.8087
C9_2 C -0.5581(7) 0.2357(7) 0.9661(17)
H5_2 H -0.5465 0.2170 1.0050
C10_2 C -0.5254(7) 0.2725(7) 0.8960(15)
C11_2 C -0.5430(8) 0.2995(7) 0.8383(13)
H6_2 H -0.5206 0.3245 0.7917
C12_2 C -0.4341(10) 0.3217(10) 0.8459(15)
N2_2 N -0.4745(7) 0.2814(7) 0.8846(16)
H7_2 H -0.4693 0.2567 0.9062
O6_2 O -0.4373(8) 0.3580(8) 0.8055(15)
C13_2 C -0.3821(9) 0.3245(14) 0.8460(13)
C14_2 C -0.3410(16) 0.3758(12) 0.8442(15)
H8_2 H -0.3466 0.4042 0.8418
C5D_2 C -0.2269(5) 0.1636(7) 1.0221(15)
H3D_2 H -0.2024 0.1656 0.9749
C6D_2 C -0.2424(5) 0.0761(7) 1.0623(9)
O5D_2 O -0.2685(7) 0.0355(10) 1.1121(15)
C7D_2 C -0.2539(7) 0.1201(9) 1.0790(15)
C8D_2 C -0.2897(7) 0.1154(10) 1.1509(13)
H4D_2 H -0.3069 0.0856 1.1913
C9D_2 C -0.2357(7) 0.2062(10) 1.0339(17)
H5D_2 H -0.2170 0.2365 0.9950
C10D_2 C -0.2725(7) 0.2021(10) 1.1040(15)
C11D_2 C -0.2995(7) 0.1575(11) 1.1617(13)
H6D_2 H -0.3245 0.1549 1.2083
C12D_2 C -0.3217(10) 0.2442(14) 1.1541(15)
N2D_2 N -0.2814(7) 0.2441(10) 1.1154(16)
H7D_2 H -0.2567 0.2740 1.0938
O6D_2 O -0.3580(8) 0.2047(11) 1.1945(15)
C13D_2 C -0.3245(14) 0.2934(17) 1.1540(13)
C14D_2 C -0.3758(12) 0.2832(20) 1.1558(15)
H8D_2 H -0.4042 0.2492 1.1582
C5E_2 C -0.1636(7) 0.6095(5) 1.0221(15)
H3E_2 H -0.1656 0.6320 0.9749
C6E_2 C -0.0761(7) 0.6815(5) 1.0623(9)
O5E_2 O -0.0355(10) 0.6960(7) 1.1121(15)
C7E_2 C -0.1201(9) 0.6260(5) 1.0790(15)
C8E_2 C -0.1154(10) 0.5949(7) 1.1509(13)
H4E_2 H -0.0856 0.6075 1.1913
C9E_2 C -0.2062(10) 0.5581(7) 1.0339(17)
H5E_2 H -0.2365 0.5465 0.9950
C10E_2 C -0.2021(10) 0.5254(7) 1.1040(15)
C11E_2 C -0.1575(11) 0.5430(8) 1.1617(13)
H6E_2 H -0.1549 0.5206 1.2083
C12E_2 C -0.2442(14) 0.4341(10) 1.1541(15)
N2E_2 N -0.2441(10) 0.4745(7) 1.1154(16)
H7E_2 H -0.2740 0.4693 1.0938
O6E_2 O -0.2047(11) 0.4373(8) 1.1945(15)
C13E_2 C -0.2934(17) 0.3821(9) 1.1540(13)
C14E_2 C -0.2832(20) 0.3410(16) 1.1558(15)
H8E_2 H -0.2492 0.3466 1.1582
C5C_2 C -0.6095(5) 0.2269(5) 1.0221(15)
H3C_2 H -0.6320 0.2024 0.9749
C6C_2 C -0.6815(5) 0.2424(5) 1.0623(9)
O5C_2 O -0.6960(7) 0.2685(7) 1.1121(15)
C7C_2 C -0.6260(5) 0.2539(7) 1.0790(15)
C8C_2 C -0.5949(7) 0.2897(7) 1.1509(13)
H4C_2 H -0.6075 0.3069 1.1913
C9C_2 C -0.5581(7) 0.2357(7) 1.0339(17)
H5C_2 H -0.5465 0.2170 0.9950
C10C_2 C -0.5254(7) 0.2725(7) 1.1040(15)
C11C_2 C -0.5430(8) 0.2995(7) 1.1617(13)
H6C_2 H -0.5206 0.3245 1.2083
C12C_2 C -0.4341(10) 0.3217(10) 1.1541(15)
N2C_2 N -0.4745(7) 0.2814(7) 1.1154(16)
H7C_2 H -0.4693 0.2567 1.0938
O6C_2 O -0.4373(8) 0.3580(8) 1.1945(15)
C13C_2 C -0.3821(9) 0.3245(14) 1.1540(13)
C14C_2 C -0.3410(16) 0.3758(12) 1.1558(15)
H8C_2 H -0.3466 0.4042 1.1582
Zn1B Zn 0.00000(10) -0.22997(7) 1.0000
Cr1B Cr -0.06453(8) -0.06453(8) 0.5000
O2B O -0.1332(3) -0.1332(3) 0.5000
O3B O -0.0442(3) -0.0969(2) 0.6084(5)
C1B C -0.0000(8) -0.0889(6) 0.6393(14)
C2B C -0.0000(7) -0.1231(5) 0.7219(11)
C3B C -0.0423(6) -0.1596(4) 0.7609(10)
H1B H -0.0743 -0.1658 0.7349
C4B C -0.0421(7) -0.1912(5) 0.8426(11)
H2B H -0.0741 -0.2179 0.8667
N1B N 0.0000(7) -0.1849(5) 0.8851(11)
O3J O 0.0442(3) -0.0527(2) 0.6084(5)
C3J C 0.0423(6) -0.1173(4) 0.7609(10)
H1J H 0.0743 -0.0915 0.7349
C4J C 0.0421(7) -0.1491(5) 0.8426(11)
H2J H 0.0741 -0.1438 0.8667
O3C O 0.0969(2) 0.0527(2) 0.3916(5)
C1C C 0.0889(6) 0.0889(6) 0.3607(14)
C2C C 0.1231(5) 0.1231(5) 0.2781(11)
C3C C 0.1596(4) 0.1173(4) 0.2391(10)
H1C H 0.1658 0.0915 0.2651
C4C C 0.1912(5) 0.1491(5) 0.1574(11)
H2C H 0.2179 0.1438 0.1333
N1C N 0.1849(5) 0.1849(5) 0.1149(11)
O3F O 0.0527(2) 0.0969(2) 0.3916(5)
C3F C 0.1173(4) 0.1596(4) 0.2391(10)
H1F H 0.0915 0.1658 0.2651
C4F C 0.1491(5) 0.1912(5) 0.1574(11)
H2F H 0.1438 0.2179 0.1333
O3D O -0.0527(2) 0.0442(3) 0.3916(5)
C1D C -0.0889(6) -0.0000(8) 0.3607(14)
C2D C -0.1231(5) -0.0000(7) 0.2781(11)
C3D C -0.1173(4) 0.0423(6) 0.2391(10)
H1D H -0.0915 0.0743 0.2651
C4D C -0.1491(5) 0.0421(7) 0.1574(11)
H2D H -0.1438 0.0741 0.1333
N1D N -0.1849(5) 0.0000(7) 0.1149(11)
O3H O -0.0969(2) -0.0442(3) 0.3916(5)
C3H C -0.1596(4) -0.0423(6) 0.2391(10)
H1H H -0.1658 -0.0743 0.2651
C4H C -0.1912(5) -0.0421(7) 0.1574(11)
H2H H -0.2179 -0.0741 0.1333
O3E O -0.0442(3) -0.0969(2) 0.3916(5)
C1E C -0.0000(8) -0.0889(6) 0.3607(14)
C2E C -0.0000(7) -0.1231(5) 0.2781(11)
C3E C -0.0423(6) -0.1596(4) 0.2391(10)
H1E H -0.0743 -0.1658 0.2651
C4E C -0.0421(7) -0.1912(5) 0.1574(11)
H2E H -0.0741 -0.2179 0.1333
N1E N 0.0000(7) -0.1849(5) 0.1149(11)
O3G O 0.0442(3) -0.0527(2) 0.3916(5)
C3G C 0.0423(6) -0.1173(4) 0.2391(10)
H1G H 0.0743 -0.0915 0.2651
C4G C 0.0421(7) -0.1491(5) 0.1574(11)
H2G H 0.0741 -0.1438 0.1333
Zn1_2 Zn -0.77003(7) 0.22997(7) 1.0000
Zn1_3 Zn 0.22997(7) 0.22997(7) 0.0000
Zn1A_2 Zn -0.22997(7) 0.00000(10) 0.0000
Zn1A_3 Zn 0.77003(7) -0.00000(10) 1.0000
Zn1B_2 Zn 0.00000(10) -0.22997(7) 0.0000
Zn1B_3 Zn -0.00000(10) 0.77003(7) 1.0000
Zn1B_4 Zn 1.00000(10) 0.77003(7) 1.0000
N1C_2 N 0.1849(5) 0.1849(5) 1.1149(11)
N1D_2 N -0.1849(5) 0.0000(7) 1.1149(11)
N1E_2 N 0.0000(7) -0.1849(5) 1.1149(11)
O4B_3 O -0.0848(6) -0.2922(4) 1.0000
O4F O 0.2074(4) 0.2922(4) 1.0000
O4G O 0.0848(6) -0.2074(4) 1.0000
O4H O -0.2922(4) -0.0848(6) 1.0000
O5B_3 O -0.0355(10) -0.3040(7) 0.8879(15)
O5E_3 O -0.0355(10) -0.3040(7) 1.1121(15)
O5F O 0.2685(7) 0.3040(7) 1.1121(15)
O5G O 0.0355(10) -0.2685(7) 1.1121(15)
O5H O -0.3040(7) -0.0355(10) 1.1121(15)
O5I O 0.2685(7) 0.3040(7) 0.8879(15)
O5J O 0.0355(10) -0.2685(7) 0.8879(15)
O5K O -0.3040(7) -0.0355(10) 0.8879(15)
loop_
_geom_bond_atom_site_label_1
_geom_bond_atom_site_label_2
_geom_bond_site_symmetry_1
_geom_bond_site_symmetry_2
Zn1 N1 1_555 1_555
Cr1 O1 1_555 1_555
O1 Cr1A 1_555 1_555
O2 Cr1 1_555 1_555
O3 Cr1 1_555 1_555
C1 O3 1_555 1_555
C2 C1 1_555 1_555
C3 C2 1_555 1_555
H1 C3 1_555 1_555
C4 C3 1_555 1_555
H2 C4 1_555 1_555
N1 C4 1_555 1_555
O4 Zn1 1_555 1_555
C5 H3 1_555 1_555
H3 C5C 1_555 1_555
C6 O4 1_555 1_555
O5 Zn1 1_555 1_555
C7 C5 1_555 1_555
C8 C7 1_555 1_555
H4 C8 1_555 1_555
C9 H5 1_555 1_555
H5 C9C 1_555 1_555
C10 C9 1_555 1_555
C11 C8 1_555 1_555
H6 C11 1_555 1_555
C12 N2 1_555 1_555
N2 C10 1_555 1_555
H7 N2 1_555 1_555
O6 C12 1_555 1_555
C13 C12 1_555 1_555
C14 C13 1_555 1_555
H8 C14 1_555 1_555
O3I C1 1_555 1_555
C3I C2 1_555 1_555
H1I C3I 1_555 1_555
C4I N1 1_555 1_555
H2I C4I 1_555 1_555
O4A C6A 1_555 1_555
C5A H3A 1_555 1_555
H3A C5D 1_555 1_555
C6A O5A 1_555 1_555
O5A Zn1A_3 1_555 1_555
C7A C5A 1_555 1_555
C8A C7A 1_555 1_555
H4A C8A 1_555 1_555
C9A H5A 1_555 1_555
H5A C9D 1_555 1_555
C10A C9A 1_555 1_555
C11A C8A 1_555 1_555
H6A C11A 1_555 1_555
C12A N2A 1_555 1_555
N2A C10A 1_555 1_555
H7A N2A 1_555 1_555
O6A C12A 1_555 1_555
C13A C12A 1_555 1_555
C14A C13 1_555 1_555
H8A C14A 1_555 1_555
O4B C6B 1_555 1_555
C5B H3B 1_555 1_555
H3B C5E 1_555 1_555
C6B O5B 1_555 1_555
O5B Zn1B_4 1_555 1_555
C7B C5B 1_555 1_555
C8B C7B 1_555 1_555
H4B C8B 1_555 1_555
C9B H5B 1_555 1_555
H5B C9E 1_555 1_555
C10B C9B 1_555 1_555
C11B C8B 1_555 1_555
H6B C11B 1_555 1_555
C12B N2B 1_555 1_555
N2B C10B 1_555 1_555
H7B N2B 1_555 1_555
O6B C12B 1_555 1_555
C13B C14 1_555 1_555
C14B C13A 1_555 1_555
H8B C14B 1_555 1_555
C5C C5 1_555 1_555
H3C C5 1_555 1_555
C6C O4 1_555 1_555
O5C Zn1 1_555 1_555
C7C C5 1_555 1_555
C8C C7C 1_555 1_555
H4C C8C 1_555 1_555
C9C C9 1_555 1_555
H5C C9 1_555 1_555
C10C C9C 1_555 1_555
C11C C8C 1_555 1_555
H6C C11C 1_555 1_555
C12C N2C 1_555 1_555
N2C C10C 1_555 1_555
H7C N2C 1_555 1_555
O6C C12C 1_555 1_555
C13C C12C 1_555 1_555
C14C C13C 1_555 1_555
H8C C14C 1_555 1_555
C5D C5A 1_555 1_555
H3D C5A 1_555 1_555
C6D O4A 1_555 1_555
O5D C6D 1_555 1_555
C7D C5A 1_555 1_555
C8D C7D 1_555 1_555
H4D C8D 1_555 1_555
C9D C9A 1_555 1_555
H5D C9A 1_555 1_555
C10D C9D 1_555 1_555
C11D C8D 1_555 1_555
H6D C11D 1_555 1_555
C12D N2D 1_555 1_555
N2D C10D 1_555 1_555
H7D N2D 1_555 1_555
O6D C12D 1_555 1_555
C13D C12D 1_555 1_555
C14D C13C 1_555 1_555
H8D C14D 1_555 1_555
C5E C5B 1_555 1_555
H3E C5B 1_555 1_555
C6E O4B 1_555 1_555
O5E C6E 1_555 1_555
C7E C5B 1_555 1_555
C8E C7E 1_555 1_555
H4E C8E 1_555 1_555
C9E C9B 1_555 1_555
H5E C9B 1_555 1_555
C10E C9E 1_555 1_555
C11E C8E 1_555 1_555
H6E C11E 1_555 1_555
C12E N2E 1_555 1_555
N2E C10E 1_555 1_555
H7E N2E 1_555 1_555
O6E C12E 1_555 1_555
C13E C14C 1_555 1_555
C14E C13D 1_555 1_555
H8E C14E 1_555 1_555
Zn1A N1A 1_555 1_555
Cr1A O3I 1_555 1_555
O2A Cr1A 1_555 1_555
O3A Cr1A 1_555 1_555
C1A O3A 1_555 1_555
C2A C1A 1_555 1_555
C3A C2A 1_555 1_555
H1A C3A 1_555 1_555
C4A C3A 1_555 1_555
H2A C4A 1_555 1_555
N1A C4A 1_555 1_555
O4A_2 Zn1A 1_555 1_555
C5A_2 H3A_2 1_555 1_555
H3A_2 C5D_2 1_555 1_555
C6A_2 O4A_2 1_555 1_555
O5A_2 Zn1A 1_555 1_555
C7A_2 C5A_2 1_555 1_555
C8A_2 C7A_2 1_555 1_555
H4A_2 C8A_2 1_555 1_555
C9A_2 H5A_2 1_555 1_555
H5A_2 C9D_2 1_555 1_555
C10A_2 C9A_2 1_555 1_555
C11A_2 C8A_2 1_555 1_555
H6A_2 C11A_2 1_555 1_555
C12A_2 N2A_2 1_555 1_555
N2A_2 C10A_2 1_555 1_555
H7A_2 N2A_2 1_555 1_555
O6A_2 C12A_2 1_555 1_555
C13A_2 C12A_2 1_555 1_555
C14A_2 C13A_2 1_555 1_555
H8A_2 C14A_2 1_555 1_555
O3K C1A 1_555 1_555
C3K C2A 1_555 1_555
H1K C3K 1_555 1_555
C4K N1A 1_555 1_555
H2K C4K 1_555 1_555
O4B_2 C6B_2 1_555 1_555
C5B_2 H3B_2 1_555 1_555
H3B_2 C5E_2 1_555 1_555
C6B_2 O5B_2 1_555 1_555
O5B_2 Zn1B_3 1_555 1_555
C7B_2 C5B_2 1_555 1_555
C8B_2 C7B_2 1_555 1_555
H4B_2 C8B_2 1_555 1_555
C9B_2 H5B_2 1_555 1_555
H5B_2 C9E_2 1_555 1_555
C10B_2 C9B_2 1_555 1_555
C11B_2 C8B_2 1_555 1_555
H6B_2 C11B_2 1_555 1_555
C12B_2 N2B_2 1_555 1_555
N2B_2 C10B_2 1_555 1_555
H7B_2 N2B_2 1_555 1_555
O6B_2 C12B_2 1_555 1_555
C13B_2 C12B_2 1_555 1_555
C14B_2 C13A_2 1_555 1_555
H8B_2 C14B_2 1_555 1_555
O4_2 C6_2 1_555 1_555
C5_2 H3_2 1_555 1_555
H3_2 C5C_2 1_555 1_555
C6_2 O5_2 1_555 1_555
O5_2 Zn1_2 1_555 1_555
C7_2 C5_2 1_555 1_555
C8_2 C7_2 1_555 1_555
H4_2 C8_2 1_555 1_555
C9_2 H5_2 1_555 1_555
H5_2 C9C_2 1_555 1_555
C10_2 C9_2 1_555 1_555
C11_2 C8_2 1_555 1_555
H6_2 C11_2 1_555 1_555
C12_2 N2_2 1_555 1_555
N2_2 C10_2 1_555 1_555
H7_2 N2_2 1_555 1_555
O6_2 C12_2 1_555 1_555
C13_2 C14A_2 1_555 1_555
C14_2 C13B_2 1_555 1_555
H8_2 C14_2 1_555 1_555
C5D_2 C5A_2 1_555 1_555
H3D_2 C5A_2 1_555 1_555
C6D_2 O4A_2 1_555 1_555
O5D_2 Zn1A 1_555 1_555
C7D_2 C5A_2 1_555 1_555
C8D_2 C7D_2 1_555 1_555
H4D_2 C8D_2 1_555 1_555
C9D_2 C9A_2 1_555 1_555
H5D_2 C9A_2 1_555 1_555
C10D_2 C9D_2 1_555 1_555
C11D_2 C8D_2 1_555 1_555
H6D_2 C11D_2 1_555 1_555
C12D_2 N2D_2 1_555 1_555
N2D_2 C10D_2 1_555 1_555
H7D_2 N2D_2 1_555 1_555
O6D_2 C12D_2 1_555 1_555
C13D_2 C12D_2 1_555 1_555
C14D_2 C13D_2 1_555 1_555
H8D_2 C14D_2 1_555 1_555
C5E_2 C5B_2 1_555 1_555
H3E_2 C5B_2 1_555 1_555
C6E_2 O4B_2 1_555 1_555
O5E_2 C6E_2 1_555 1_555
C7E_2 C5B_2 1_555 1_555
C8E_2 C7E_2 1_555 1_555
H4E_2 C8E_2 1_555 1_555
C9E_2 C9B_2 1_555 1_555
H5E_2 C9B_2 1_555 1_555
C10E_2 C9E_2 1_555 1_555
C11E_2 C8E_2 1_555 1_555
H6E_2 C11E_2 1_555 1_555
C12E_2 N2E_2 1_555 1_555
N2E_2 C10E_2 1_555 1_555
H7E_2 N2E_2 1_555 1_555
O6E_2 C12E_2 1_555 1_555
C13E_2 C12E_2 1_555 1_555
C14E_2 C13D_2 1_555 1_555
H8E_2 C14E_2 1_555 1_555
C5C_2 C5_2 1_555 1_555
H3C_2 C5_2 1_555 1_555
C6C_2 O4_2 1_555 1_555
O5C_2 C6C_2 1_555 1_555
C7C_2 C5_2 1_555 1_555
C8C_2 C7C_2 1_555 1_555
H4C_2 C8C_2 1_555 1_555
C9C_2 C9_2 1_555 1_555
H5C_2 C9_2 1_555 1_555
C10C_2 C9C_2 1_555 1_555
C11C_2 C8C_2 1_555 1_555
H6C_2 C11C_2 1_555 1_555
C12C_2 N2C_2 1_555 1_555
N2C_2 C10C_2 1_555 1_555
H7C_2 N2C_2 1_555 1_555
O6C_2 C12C_2 1_555 1_555
C13C_2 C14D_2 1_555 1_555
C14C_2 C13E_2 1_555 1_555
H8C_2 C14C_2 1_555 1_555
Zn1B N1B 1_555 1_555
Cr1B O1 1_555 1_555
O2B Cr1B 1_555 1_555
O3B Cr1B 1_555 1_555
C1B O3B 1_555 1_555
C2B C1B 1_555 1_555
C3B C2B 1_555 1_555
H1B C3B 1_555 1_555
C4B C3B 1_555 1_555
H2B C4B 1_555 1_555
N1B C4B 1_555 1_555
O3J Cr1 1_555 1_555
C3J C2B 1_555 1_555
H1J C3J 1_555 1_555
C4J N1B 1_555 1_555
H2J C4J 1_555 1_555
O3C Cr1 1_555 1_555
C1C O3C 1_555 1_555
C2C C1C 1_555 1_555
C3C C2C 1_555 1_555
H1C C3C 1_555 1_555
C4C C3C 1_555 1_555
H2C C4C 1_555 1_555
N1C C4C 1_555 1_555
O3F Cr1A 1_555 1_555
C3F C2C 1_555 1_555
H1F C3F 1_555 1_555
C4F N1C 1_555 1_555
H2F C4F 1_555 1_555
O3D Cr1A 1_555 1_555
C1D O3D 1_555 1_555
C2D C1D 1_555 1_555
C3D C2D 1_555 1_555
H1D C3D 1_555 1_555
C4D C3D 1_555 1_555
H2D C4D 1_555 1_555
N1D C4D 1_555 1_555
O3H Cr1B 1_555 1_555
C3H C2D 1_555 1_555
H1H C3H 1_555 1_555
C4H N1D 1_555 1_555
H2H C4H 1_555 1_555
O3E Cr1B 1_555 1_555
C1E O3E 1_555 1_555
C2E C1E 1_555 1_555
C3E C2E 1_555 1_555
H1E C3E 1_555 1_555
C4E C3E 1_555 1_555
H2E C4E 1_555 1_555
N1E C4E 1_555 1_555
O3G Cr1 1_555 1_555
C3G C2E 1_555 1_555
H1G C3G 1_555 1_555
C4G N1E 1_555 1_555
H2G C4G 1_555 1_555
Zn1_2 O4_2 1_555 1_555
Zn1_3 N1C 1_555 1_555
Zn1A_2 N1D 1_555 1_555
Zn1A_3 O4A 1_555 1_555
Zn1B_2 N1E 1_555 1_555
Zn1B_3 O4B_2 1_555 1_555
Zn1B_4 O4B 1_555 1_555
N1C_2 Zn1 1_555 1_555
N1D_2 Zn1A 1_555 1_555
N1E_2 Zn1B 1_555 1_555
O4B_3 Zn1B 1_555 1_555
O4F Zn1 1_555 1_555
O4G Zn1B 1_555 1_555
O4H Zn1A 1_555 1_555
O5B_3 Zn1B 1_555 1_555
O5E_3 Zn1B 1_555 1_555
O5F Zn1 1_555 1_555
O5G Zn1B 1_555 1_555
O5H Zn1A 1_555 1_555
O5I Zn1 1_555 1_555
O5J Zn1B 1_555 1_555
O5K Zn1A 1_555 1_555
C6 O5 1_555 1_555
C6 C7 1_555 1_555
C6 C6C 1_555 1_555
C7 C5C 1_555 1_555
C10 C11 1_555 1_555
C3I C4I 1_555 1_555
C6A C7A 1_555 1_555
C6A C6D 1_555 1_555
C7A C5D 1_555 1_555
C10A C11A 1_555 1_555
C13A C14A 1_555 1_555
C6B C7B 1_555 1_555
C6B C6E 1_555 1_555
C7B C5E 1_555 1_555
C10B C11B 1_555 1_555
C12B C13B 1_555 1_555
C13B C14B 1_555 1_555
C5C H3C 1_555 1_555
C5C C7C 1_555 1_555
C6C O5C 1_555 1_555
C6C C7C 1_555 1_555
C9C H5C 1_555 1_555
C10C C11C 1_555 1_555
C5D H3D 1_555 1_555
C5D C7D 1_555 1_555
C6D C7D 1_555 1_555
O5D Zn1A_3 1_555 1_555
C9D H5D 1_555 1_555
C10D C11D 1_555 1_555
C13D C14D 1_555 1_555
C5E H3E 1_555 1_555
C5E C7E 1_555 1_555
C6E C7E 1_555 1_555
O5E Zn1B_4 1_555 1_555
C9E H5E 1_555 1_555
C10E C11E 1_555 1_555
C12E C13E 1_555 1_555
C13E C14E 1_555 1_555
C6A_2 O5A_2 1_555 1_555
C6A_2 C7A_2 1_555 1_555
C6A_2 C6D_2 1_555 1_555
C7A_2 C5D_2 1_555 1_555
C10A_2 C11A_2 1_555 1_555
O3K Cr1B 1_555 1_555
C3K C4K 1_555 1_555
C6B_2 C7B_2 1_555 1_555
C6B_2 C6E_2 1_555 1_555
C7B_2 C5E_2 1_555 1_555
C10B_2 C11B_2 1_555 1_555
C13B_2 C14B_2 1_555 1_555
C6_2 C7_2 1_555 1_555
C6_2 C6C_2 1_555 1_555
C7_2 C5C_2 1_555 1_555
C10_2 C11_2 1_555 1_555
C12_2 C13_2 1_555 1_555
C13_2 C14_2 1_555 1_555
C5D_2 H3D_2 1_555 1_555
C5D_2 C7D_2 1_555 1_555
C6D_2 O5D_2 1_555 1_555
C6D_2 C7D_2 1_555 1_555
C9D_2 H5D_2 1_555 1_555
C10D_2 C11D_2 1_555 1_555
C5E_2 H3E_2 1_555 1_555
C5E_2 C7E_2 1_555 1_555
C6E_2 C7E_2 1_555 1_555
O5E_2 Zn1B_3 1_555 1_555
C9E_2 H5E_2 1_555 1_555
C10E_2 C11E_2 1_555 1_555
C13E_2 C14E_2 1_555 1_555
C5C_2 H3C_2 1_555 1_555
C5C_2 C7C_2 1_555 1_555
C6C_2 C7C_2 1_555 1_555
O5C_2 Zn1_2 1_555 1_555
C9C_2 H5C_2 1_555 1_555
C10C_2 C11C_2 1_555 1_555
C12C_2 C13C_2 1_555 1_555
C13C_2 C14C_2 1_555 1_555
C1B O3J 1_555 1_555
C3J C4J 1_555 1_555
C1C O3F 1_555 1_555
C3F C4F 1_555 1_555
C1D O3H 1_555 1_555
C3H C4H 1_555 1_555
C1E O3G 1_555 1_555
C3G C4G 1_555 1_555

#END
