
#######################################################################
#
#                 Cambridge Crystallographic Data Centre
#                                CCDC 
#
#######################################################################
#
# If this CIF has been generated from an entry in the Cambridge 
# Structural Database, then it will include bibliographic, chemical, 
# crystal, experimental, refinement or atomic coordinate data resulting 
# from the CCDC's data processing and validation procedures.
#
#######################################################################

data_AWEGEP
_chemical_formula_moiety         '(C21 H24 Cs3 O27 P3 U3)n'
_symmetry_cell_setting           orthorhombic
_symmetry_space_group_name_H-M   'P n m a'
_symmetry_Int_Tables_number      62
_space_group_name_Hall           '-P 2ac 2n'
loop_
_symmetry_equiv_pos_site_id
_symmetry_equiv_pos_as_xyz
1 x,y,z
2 1/2-x,-y,1/2+z
3 -x,1/2+y,-z
4 1/2+x,1/2-y,1/2-z
5 -x,-y,-z
6 1/2+x,y,1/2-z
7 x,1/2-y,z
8 1/2-x,1/2+y,1/2+z
_cell_length_a                   22.0556(18)
_cell_length_b                   20.5225(16)
_cell_length_c                   11.9563(9)
_cell_angle_alpha                90
_cell_angle_beta                 90
_cell_angle_gamma                90
_cell_volume                     5411.85
loop_
_atom_site_label
_atom_site_type_symbol
_atom_site_fract_x
_atom_site_fract_y
_atom_site_fract_z
U1 U 0.427582(17) 0.083194(18) 0.85977(3)
U2 U 0.55992(3) 0.2500 1.08961(5)
Cs1 Cs 0.34487(5) 0.2500 1.00247(11)
Cs2 Cs 0.45990(5) 0.08032(5) 0.23765(8)
P1 P 0.49501(17) 0.2500 0.8198(3)
P2 P 0.57290(12) 0.07770(13) 0.9997(2)
O1 O 0.4498(4) 0.0608(4) 0.7194(6)
O2 O 0.4043(3) 0.1048(4) 0.9986(6)
O3 O 0.6403(5) 0.2500 1.0773(9)
O4 O 0.4792(5) 0.2500 1.1075(9)
O5 O 0.5498(4) 0.2500 0.8979(9)
O6 O 0.4574(3) 0.1889(3) 0.8348(6)
O7 O 0.5663(4) 0.1960(4) 0.2759(6)
O8 O 0.5266(3) 0.0633(4) 0.9085(6)
O9 O 0.5758(3) 0.0238(4) 1.0875(6)
O10 O 0.5590(4) 0.1411(4) 1.0576(7)
O11 O 0.8368(3) 0.1418(4) 0.7152(7)
O12 O 0.8300(3) 0.0355(4) 0.6974(7)
O13 O 0.1952(7) 0.2500 0.9297(15)
C1 C 0.5239(6) 0.2500 0.6793(12)
C2 C 0.5333(5) 0.1916(5) 0.6197(10)
H1 H 0.5291 0.1514 0.6582
C3 C 0.5484(6) 0.1905(6) 0.5083(10)
H2 H 0.5543 0.1504 0.4701
C4 C 0.5549(7) 0.2500 0.4527(12)
C5 C 0.5647(8) 0.2500 0.3302(14)
C6 C 0.6446(5) 0.0833(5) 0.9286(9)
C7 C 0.6844(5) 0.0310(6) 0.9287(11)
H3 H 0.6753 -0.0062 0.9728
C8 C 0.7374(5) 0.0318(6) 0.8658(12)
H4 H 0.7637 -0.0049 0.8647
C9 C 0.7513(5) 0.0882(5) 0.8037(11)
C10 C 0.7122(5) 0.1414(5) 0.8059(10)
H5 H 0.7221 0.1799 0.7655
C11 C 0.6592(5) 0.1384(6) 0.8667(10)
H6 H 0.6322 0.1745 0.8663
C12 C 0.8084(5) 0.0889(6) 0.7335(10)
O14 O 0.4496(11) 0.0436(12) 0.4819(14)
U1F U 0.427582(17) 0.416806(18) 0.85977(3)
U1D U 0.572418(17) -0.083194(18) 1.14023(3)
U1E U 0.927582(17) 0.083194(18) 0.64023(3)
U1B U 0.572418(17) 0.583194(18) 1.14023(3)
U1C U 0.927582(17) 0.416806(18) 0.64023(3)
U1D_2 U 0.572418(17) -0.083194(18) 0.14023(3)
U2_2 U 0.55992(3) 0.2500 0.08961(5)
Cs1C Cs 0.84487(5) 0.2500 0.49753(11)
Cs2F Cs 0.45990(5) 0.41968(5) 0.23765(8)
Cs2D Cs 0.54010(5) -0.08032(5) 0.76235(8)
Cs2_2 Cs 0.45990(5) 0.08032(5) 1.23765(8)
Cs2B Cs 0.54010(5) 0.58032(5) 0.76235(8)
Cs2F_2 Cs 0.45990(5) 0.41968(5) 1.23765(8)
P2F P 0.57290(12) 0.42230(13) 0.9997(2)
O1D O 0.5502(4) -0.0608(4) 0.2806(6)
O1F O 0.4498(4) 0.4392(4) 0.7194(6)
O1B O 0.5502(4) 0.5608(4) 0.2806(6)
O2F O 0.4043(3) 0.3952(4) 0.9986(6)
O2_2 O 0.4043(3) 0.1048(4) -0.0014(6)
O2F_2 O 0.4043(3) 0.3952(4) -0.0014(6)
O6F O 0.4574(3) 0.3111(3) 0.8348(6)
O7F O 0.5663(4) 0.3040(4) 0.2759(6)
O7_2 O 0.5663(4) 0.1960(4) 1.2759(6)
O7F_2 O 0.5663(4) 0.3040(4) 1.2759(6)
O8F O 0.5266(3) 0.4367(4) 0.9085(6)
O8D O 0.4734(3) -0.0633(4) 0.0915(6)
O8B O 0.4734(3) 0.5633(4) 0.0915(6)
O9F O 0.5758(3) 0.4762(4) 1.0875(6)
O9D O 0.4242(3) -0.0238(4) 0.9125(6)
O9_2 O 0.5758(3) 0.0238(4) 0.0875(6)
O9B O 0.4242(3) 0.5238(4) 0.9125(6)
O9F_2 O 0.5758(3) 0.4762(4) 0.0875(6)
O10F O 0.5590(4) 0.3589(4) 1.0576(7)
O10_2 O 0.5590(4) 0.1411(4) 0.0576(7)
O10F_2 O 0.5590(4) 0.3589(4) 0.0576(7)
O11F O 0.8368(3) 0.3582(4) 0.7152(7)
O11E O 0.3368(3) 0.1418(4) 0.7848(7)
O11C O 0.3368(3) 0.3582(4) 0.7848(7)
O12F O 0.8300(3) 0.4645(4) 0.6974(7)
O12E O 0.3300(3) 0.0355(4) 0.8026(7)
O12C O 0.3300(3) 0.4645(4) 0.8026(7)
C2F C 0.5333(5) 0.3084(5) 0.6197(10)
H1F H 0.5291 0.3486 0.6582
C3F C 0.5484(6) 0.3095(6) 0.5083(10)
H2F H 0.5543 0.3496 0.4701
C6F C 0.6446(5) 0.4167(5) 0.9286(9)
C7F C 0.6844(5) 0.4690(6) 0.9287(11)
H3F H 0.6753 0.5062 0.9728
C8F C 0.7374(5) 0.4682(6) 0.8658(12)
H4F H 0.7637 0.5049 0.8647
C9F C 0.7513(5) 0.4118(5) 0.8037(11)
C10F C 0.7122(5) 0.3586(5) 0.8059(10)
H5F H 0.7221 0.3201 0.7655
C11F C 0.6592(5) 0.3616(6) 0.8667(10)
H6F H 0.6322 0.3255 0.8663
C12F C 0.8084(5) 0.4111(6) 0.7335(10)
O14F O 0.4496(11) 0.4564(12) 0.4819(14)
O15 O 0.3465(6) 0.2500 0.6309(11)
O16 O 0.8362(6) -0.0992(5) 0.7709(11)
O17 O 0.2643(9) 0.2500 0.455(2)
loop_
_geom_bond_atom_site_label_1
_geom_bond_atom_site_label_2
_geom_bond_site_symmetry_1
_geom_bond_site_symmetry_2
U1 O1 1_555 1_555
U2 O3 1_555 1_555
Cs1 O2 1_555 1_555
Cs2 O7 1_555 1_555
P1 O5 1_555 1_555
P2 O8 1_555 1_555
O1 Cs2D 1_555 1_555
O2 U1 1_555 1_555
O4 U2 1_555 1_555
O5 U2 1_555 1_555
O6 U1 1_555 1_555
O7 C5 1_555 1_555
O8 U1 1_555 1_555
O9 P2 1_555 1_555
O10 U2 1_555 1_555
O11 C12 1_555 1_555
O12 C12 1_555 1_555
O13 Cs1 1_555 1_555
C1 P1 1_555 1_555
C2 C1 1_555 1_555
H1 C2 1_555 1_555
C3 C2 1_555 1_555
H2 C3 1_555 1_555
C4 C3 1_555 1_555
C5 C4 1_555 1_555
C6 P2 1_555 1_555
C7 C6 1_555 1_555
H3 C7 1_555 1_555
C8 C7 1_555 1_555
H4 C8 1_555 1_555
C9 C8 1_555 1_555
C10 C9 1_555 1_555
H5 C10 1_555 1_555
C11 C6 1_555 1_555
H6 C11 1_555 1_555
C12 C9 1_555 1_555
O14 Cs2 1_555 1_555
U1F O1F 1_555 1_555
U1D O9 1_555 1_555
U1E O11 1_555 1_555
U1B O9F 1_555 1_555
U1C O11F 1_555 1_555
U1D_2 O1D 1_555 1_555
U2_2 O7 1_555 1_555
Cs1C O11 1_555 1_555
Cs2F O1B 1_555 1_555
Cs2D O8 1_555 1_555
Cs2_2 O2 1_555 1_555
Cs2B O1F 1_555 1_555
Cs2F_2 O2F 1_555 1_555
P2F O8F 1_555 1_555
O1D Cs2 1_555 1_555
O2F Cs1 1_555 1_555
O2_2 Cs2 1_555 1_555
O2F_2 Cs2F 1_555 1_555
O6F Cs1 1_555 1_555
O7F C5 1_555 1_555
O7_2 U2 1_555 1_555
O7F_2 U2 1_555 1_555
O8F U1F 1_555 1_555
O8D Cs2 1_555 1_555
O8B Cs2F 1_555 1_555
O9F Cs2F_2 1_555 1_555
O9D U1 1_555 1_555
O9_2 Cs2 1_555 1_555
O9B U1F 1_555 1_555
O9F_2 Cs2F 1_555 1_555
O10F U2 1_555 1_555
O10_2 Cs2 1_555 1_555
O10F_2 U2_2 1_555 1_555
O11F Cs1C 1_555 1_555
O11E U1 1_555 1_555
O11C Cs1 1_555 1_555
O12F U1C 1_555 1_555
O12E U1 1_555 1_555
O12C U1F 1_555 1_555
C2F C1 1_555 1_555
H1F C2F 1_555 1_555
C3F C4 1_555 1_555
H2F C3F 1_555 1_555
C6F P2F 1_555 1_555
C7F C6F 1_555 1_555
H3F C7F 1_555 1_555
C8F C7F 1_555 1_555
H4F C8F 1_555 1_555
C9F C8F 1_555 1_555
C10F C9F 1_555 1_555
H5F C10F 1_555 1_555
C11F C6F 1_555 1_555
H6F C11F 1_555 1_555
C12F O11F 1_555 1_555
O14F Cs2F 1_555 1_555
Cs1 O4 1_555 1_555
Cs1 O6 1_555 1_555
Cs1 O11E 1_555 1_555
P1 O6 1_555 1_555
P1 O6F 1_555 1_555
P2 O10 1_555 1_555
O9 Cs2_2 1_555 1_555
O10 Cs2_2 1_555 1_555
O12 U1E 1_555 1_555
C10 C11 1_555 1_555
U1F O2F 1_555 1_555
U1F O6F 1_555 1_555
U1F O11C 1_555 1_555
U1D_2 O8D 1_555 1_555
U1D_2 O9_2 1_555 1_555
U2_2 O7F 1_555 1_555
U2_2 O10_2 1_555 1_555
Cs2F O7F 1_555 1_555
Cs2F O10F_2 1_555 1_555
Cs2D O9D 1_555 1_555
Cs2_2 O7_2 1_555 1_555
Cs2B O8F 1_555 1_555
Cs2B O9B 1_555 1_555
Cs2F_2 O7F_2 1_555 1_555
Cs2F_2 O10F 1_555 1_555
P2F O9F 1_555 1_555
P2F O10F 1_555 1_555
O12F C12F 1_555 1_555
C2F C3F 1_555 1_555
C9F C12F 1_555 1_555
C10F C11F 1_555 1_555

#END
