
#######################################################################
#
#                 Cambridge Crystallographic Data Centre
#                                CCDC 
#
#######################################################################
#
# If this CIF has been generated from an entry in the Cambridge 
# Structural Database, then it will include bibliographic, chemical, 
# crystal, experimental, refinement or atomic coordinate data resulting 
# from the CCDC's data processing and validation procedures.
#
#######################################################################

data_QIYDAF01
_chemical_formula_moiety         'C264 H120 Cu30 O82'
_symmetry_cell_setting           monoclinic
_symmetry_space_group_name_H-M   'C 2/m'
_symmetry_Int_Tables_number      12
_space_group_name_Hall           '-C 2y'
loop_
_symmetry_equiv_pos_site_id
_symmetry_equiv_pos_as_xyz
1 x,y,z
2 -x,y,-z
3 1/2+x,1/2+y,z
4 1/2-x,1/2+y,-z
5 -x,-y,-z
6 x,-y,z
7 1/2-x,1/2-y,-z
8 1/2+x,1/2-y,z
_cell_length_a                   71.400(8)
_cell_length_b                   42.999(4)
_cell_length_c                   42.569(4)
_cell_angle_alpha                90
_cell_angle_beta                 126.08(2)
_cell_angle_gamma                90
_cell_volume                     105625
loop_
_atom_site_label
_atom_site_type_symbol
_atom_site_fract_x
_atom_site_fract_y
_atom_site_fract_z
Cu1 Cu 0.33886(2) 0.23657(2) 0.75457(2)
Cu2 Cu 0.30536(2) 0.26470(2) 0.75261(2)
Cu3 Cu 0.34964(2) 0.23353(2) 0.29603(2)
Cu4 Cu 0.31485(2) 0.26156(2) 0.23361(2)
Cu5 Cu 0.07672(2) 0.5000 0.21548(3)
Cu6 Cu 0.07765(2) 0.5000 0.27820(3)
Cu7 Cu 0.57664(2) 0.53066(2) 0.76507(2)
O1 O 0.32036(8) 0.24700(9) 0.69949(10)
O2 O 0.29032(7) 0.26890(9) 0.69721(10)
O3 O 0.35286(7) 0.23052(9) 0.80964(10)
O4 O 0.32446(7) 0.25817(10) 0.80855(11)
O5 O 0.31972(7) 0.19859(8) 0.74140(8)
O6 O 0.29265(6) 0.22246(10) 0.74475(9)
O7 O 0.35256(8) 0.27911(13) 0.76712(10)
O8 O 0.32283(8) 0.30301(12) 0.76184(11)
O9 O 0.36430(5) 0.21320(8) 0.74957(11)
O10 O 0.27900(5) 0.28613(7) 0.75523(8)
O11 O 0.33337(7) 0.24091(9) 0.31799(10)
O12 O 0.30119(6) 0.26039(8) 0.26196(12)
O13 O 0.36243(7) 0.27675(10) 0.31258(11)
O14 O 0.33109(7) 0.29987(8) 0.26109(12)
O15 O 0.37876(5) 0.21015(8) 0.34623(8)
O16 O 0.28657(5) 0.28549(8) 0.18273(8)
O17 O 0.10088(6) 0.46799(9) 0.24400(13)
O18 O 0.10086(8) 0.46791(11) 0.29698(13)
O19 O 0.07737(8) 0.5000 0.16555(11)
O20 O 0.07846(9) 0.5000 0.32994(12)
O21 O 0.55111(8) 0.52642(11) 0.70972(14)
O22 O 0.60119(7) 0.52599(11) 0.81905(13)
O23 O 0.57664(6) 0.58134(7) 0.76500(10)
O24 O 0.55465(8) 0.52624(11) 0.77779(11)
C1 C 0.30096(15) 0.26137(15) 0.68322(18)
C2 C 0.28914(10) 0.26797(11) 0.64004(10)
C3 C 0.29888(6) 0.25838(9) 0.62142(18)
H1 H 0.3127 0.2469 0.6351
C4 C 0.28815(11) 0.26581(11) 0.58257(19)
H2 H 0.2947 0.2593 0.5700
C5 C 0.26767(11) 0.28282(12) 0.56233(10)
C6 C 0.25792(6) 0.29241(9) 0.58094(19)
H3 H 0.2441 0.3039 0.5673
C7 C 0.26865(11) 0.28499(11) 0.6198(2)
H4 H 0.2621 0.2915 0.6324
C8 C 0.25799(11) 0.29172(15) 0.5221(2)
C9 C 0.25034(10) 0.29705(13) 0.4889(2)
C10 C 0.24181(11) 0.30397(13) 0.45031(11)
C11 C 0.25302(7) 0.29171(9) 0.43527(18)
H5 H 0.2661 0.2790 0.4508
C12 C 0.24484(10) 0.29823(12) 0.3972(2)
C13 C 0.22545(11) 0.31703(13) 0.37415(10)
H6 H 0.2199 0.3214 0.3484
C14 C 0.21424(7) 0.32929(10) 0.38919(19)
C15 C 0.22242(11) 0.32276(12) 0.4273(2)
H7 H 0.2148 0.3311 0.4374
C16 C 0.25750(13) 0.28606(16) 0.38222(16)
C17 C 0.26759(14) 0.27557(16) 0.3698(2)
C18 C 0.27900(12) 0.26706(10) 0.3531(2)
C19 C 0.30256(12) 0.26051(10) 0.37480(9)
H8 H 0.3114 0.2596 0.4021
C20 C 0.31304(6) 0.25527(10) 0.3562(2)
H9 H 0.3290 0.2508 0.3709
C21 C 0.29996(12) 0.25658(9) 0.3159(2)
C22 C 0.27639(12) 0.26313(9) 0.29418(9)
H10 H 0.2675 0.2640 0.2669
C23 C 0.26592(6) 0.26837(9) 0.3127(2)
H11 H 0.2500 0.2728 0.2981
C24 C 0.31267(14) 0.25290(14) 0.2978(2)
C25 C 0.19508(15) 0.3489(2) 0.3649(2)
C26 C 0.18011(17) 0.3670(2) 0.3499(2)
C27 C 0.16162(8) 0.39100(12) 0.3274(2)
C28 C 0.15213(12) 0.40248(16) 0.29032(19)
H12 H 0.1575 0.3952 0.2762
C29 C 0.13465(11) 0.42469(15) 0.27420(11)
H13 H 0.1282 0.4325 0.2491
C30 C 0.12664(8) 0.43540(11) 0.2951(2)
C31 C 0.13613(12) 0.42392(15) 0.3322(2)
H14 H 0.1307 0.4312 0.3463
C32 C 0.15362(12) 0.40172(15) 0.34830(10)
H15 H 0.1600 0.3940 0.3734
C33 C 0.10844(11) 0.45974(17) 0.2778(3)
C34 C 0.34208(14) 0.24284(18) 0.82313(18)
C35 C 0.35635(11) 0.23575(13) 0.86807(10)
C36 C 0.37682(12) 0.21872(12) 0.8892(2)
H16 H 0.3832 0.2107 0.8768
C37 C 0.38789(7) 0.21350(11) 0.92866(19)
H17 H 0.4017 0.2020 0.9429
C38 C 0.37849(12) 0.22530(13) 0.94698(11)
C39 C 0.35803(12) 0.24232(13) 0.9258(2)
H18 H 0.3517 0.2503 0.9382
C40 C 0.34696(7) 0.24755(10) 0.8864(2)
H19 H 0.3331 0.2591 0.8721
C41 C 0.39056(12) 0.21587(17) 0.9868(2)
C42 C 0.39887(11) 0.20933(17) 1.0194(2)
C43 C 0.41076(12) 0.19920(15) 1.05898(11)
C44 C 0.42985(12) 0.17948(15) 1.0779(2)
H20 H 0.4360 0.1723 1.0649
C45 C 0.43981(8) 0.17045(12) 1.1160(2)
C46 C 0.43068(11) 0.18113(14) 1.13525(11)
H21 H 0.4374 0.1750 1.1610
C47 C 0.41159(12) 0.20085(14) 1.11631(19)
C48 C 0.40163(8) 0.20988(11) 1.07818(19)
H22 H 0.3887 0.2232 1.0654
C49 C 0.45831(17) 0.1495(2) 1.1341(2)
C50 C 0.47369(16) 0.1317(2) 1.1482(2)
C51 C 0.49210(9) 0.10884(12) 1.1671(2)
C52 C 0.50017(12) 0.09844(15) 1.14615(11)
H23 H 0.4937 0.1062 1.1211
C53 C 0.51783(12) 0.07650(15) 1.1623(2)
H24 H 0.5233 0.0695 1.1481
C54 C 0.52743(8) 0.06496(12) 1.1993(2)
C55 C 0.51937(12) 0.07536(16) 1.22029(11)
H25 H 0.5259 0.0676 1.2454
C56 C 0.50170(13) 0.09730(16) 1.20417(19)
H26 H 0.4962 0.1043 1.2183
C57 C 0.40294(16) 0.2093(2) 1.1364(2)
C58 C 0.39409(16) 0.2172(2) 1.1548(3)
C59 C 0.38476(12) 0.22466(15) 1.1770(2)
C60 C 0.39428(8) 0.21302(12) 1.2140(2)
H27 H 0.4080 0.2013 1.2268
C61 C 0.38350(14) 0.21874(14) 1.23193(11)
H28 H 0.3899 0.2109 1.2570
C62 C 0.36319(13) 0.23611(15) 1.2129(2)
C63 C 0.35367(8) 0.24775(12) 1.1759(2)
H29 H 0.3399 0.2595 1.1630
C64 C 0.36446(13) 0.24202(14) 1.15794(11)
H30 H 0.3580 0.2499 1.1329
C65 C 0.30185(13) 0.1990(2) 0.74161(13)
C66 C 0.29137(13) 0.16613(16) 0.73573(11)
C67 C 0.29804(9) 0.1390(3) 0.72712(12)
H31 H 0.3101 0.1394 0.7243
C68 C 0.28683(16) 0.11112(17) 0.72269(12)
H32 H 0.2913 0.0928 0.7169
C69 C 0.26895(14) 0.1104(2) 0.72688(15)
C70 C 0.26227(8) 0.1376(3) 0.73550(15)
H33 H 0.2502 0.1372 0.7383
C71 C 0.27348(15) 0.1655(2) 0.73992(12)
H34 H 0.2690 0.1838 0.7457
C72 C 0.2594(2) 0.0802(3) 0.7233(3)
C73 C 0.2512(2) 0.0552(3) 0.7217(2)
C74 C 0.2515(2) 0.0000 0.7211(2)
H35 H 0.2649 0.0000 0.7218
C75 C 0.23979(19) 0.0266(2) 0.72048(19)
C76 C 0.22074(15) 0.0269(2) 0.72158(17)
H36 H 0.2149 0.0464 0.7217
C77 C 0.2093(4) 0.0000 0.7226(2)
C78 C 0.1921(3) -0.0000 0.7253(3)
C79 C 0.1778(3) 0.0000 0.7268(3)
C80 C 0.1601(3) 0.0000 0.7322(2)
C81 C 0.15061(17) 0.0275(2) 0.73549(17)
H37 H 0.1567 0.0467 0.7347
C82 C 0.13325(17) 0.02775(19) 0.73971(17)
H38 H 0.1271 0.0466 0.7411
C83 C 0.12506(18) 0.0000 0.74184(19)
C84 C 0.34145(18) 0.3022(2) 0.76618(17)
C85 C 0.35325(18) 0.3313(2) 0.77218(14)
C86 C 0.37446(18) 0.33176(19) 0.77766(15)
H39 H 0.3813 0.3131 0.7777
C87 C 0.38559(10) 0.3599(3) 0.78311(16)
H40 H 0.3999 0.3602 0.7868
C88 C 0.37551(17) 0.38757(19) 0.78308(16)
C89 C 0.35430(17) 0.3871(2) 0.77760(16)
H41 H 0.3475 0.4058 0.7776
C90 C 0.34317(10) 0.3590(3) 0.77215(14)
H42 H 0.3288 0.3586 0.7684
C91 C 0.3960(2) 0.4442(5) 0.7886(3)
C92 C 0.38655(19) 0.4205(4) 0.7889(3)
C93 C 0.3947(2) 0.5000 0.7892(3)
H43 H 0.3809 0.5000 0.7873
C94 C 0.4071(2) 0.4716(2) 0.7909(2)
C95 C 0.42631(19) 0.4725(3) 0.7927(2)
H44 H 0.4331 0.4540 0.7922
C96 C 0.4359(3) 0.5000 0.7955(3)
C97 C 0.4545(4) 0.5000 0.7955(4)
C98 C 0.4697(4) 0.5000 0.7941(4)
C99 C 0.4896(3) 0.5000 0.7918(3)
C100 C 0.49958(16) 0.5260(2) 0.7897(2)
H45 H 0.4935 0.5453 0.7899
C101 C 0.51942(19) 0.52619(18) 0.78723(19)
H46 H 0.5256 0.5455 0.7873
C102 C 0.5291(3) 0.5000 0.7849(2)
C103 C 0.54653(19) 0.5000 0.7770(2)
C104 C 0.60955(13) 0.5000 0.8363(3)
C105 C 0.62977(15) 0.5000 0.8803(3)
C106 C 0.63835(13) 0.52875(17) 0.8989(2)
H47 H 0.6322 0.5474 0.8848
C107 C 0.65556(13) 0.52911(18) 0.9373(3)
H48 H 0.6619 0.5479 0.9508
C108 C 0.66376(17) 0.5000 0.9566(3)
C109 C 0.6844(2) 0.5000 0.9991(4)
C110 C 0.7013(3) 0.5000 1.0354(5)
C111 C 0.7194(2) 0.5000 1.0733(3)
C112 C 0.72705(13) 0.5291(2) 1.0911(3)
H49 H 0.7195 0.5477 1.0782
C113 C 0.74615(18) 0.52841(18) 1.1286(3)
C114 C 0.75639(18) 0.5000 1.1503(3)
H50 H 0.7689 0.5000 1.1768
C115 C 0.75899(15) 0.5578(3) 1.1518(2)
C116 C 0.76789(19) 0.5801(2) 1.1692(3)
C117 C 0.77861(13) 0.60876(14) 1.1849(2)
C118 C 0.76887(7) 0.6361(2) 1.16398(12)
H51 H 0.7550 0.6354 1.1387
C119 C 0.77958(12) 0.66447(15) 1.1805(2)
H52 H 0.7730 0.6830 1.1663
C120 C 0.80002(12) 0.66547(15) 1.2179(2)
C121 C 0.80976(7) 0.6381(2) 1.23885(11)
H53 H 0.8236 0.6388 1.2642
C122 C 0.79906(14) 0.60976(16) 1.2224(2)
H54 H 0.8056 0.5913 1.2365
C123 C 0.34996(13) 0.29987(19) 0.2929(2)
C124 C 0.36012(14) 0.33085(15) 0.3106(2)
C125 C 0.38148(12) 0.33291(15) 0.3466(2)
H55 H 0.3902 0.3148 0.3591
C126 C 0.39002(7) 0.3617(2) 0.36425(12)
H56 H 0.4045 0.3631 0.3886
C127 C 0.37719(13) 0.38849(14) 0.3458(2)
C128 C 0.35583(12) 0.38644(16) 0.3098(2)
H57 H 0.3472 0.4045 0.2973
C129 C 0.34729(7) 0.3576(2) 0.29216(12)
H58 H 0.3328 0.3562 0.2678
C130 C 0.38670(17) 0.4185(2) 0.3665(3)
C131 C 0.39329(15) 0.4436(3) 0.3804(2)
C132 C 0.39435(16) 0.5000 0.3826(3)
H59 H 0.3825 0.5000 0.3558
C133 C 0.40314(14) 0.47208(18) 0.4025(2)
C134 C 0.42162(11) 0.47174(16) 0.4416(2)
H60 H 0.4281 0.4529 0.4550
C135 C 0.43014(18) 0.5000 0.4602(4)
C136 C 0.45077(19) 0.5000 0.5024(3)
C137 C 0.46534(19) 0.5000 0.5326(3)
C138 C 0.4841(2) 0.5000 0.5725(4)
C139 C 0.49432(12) 0.47162(17) 0.5937(2)
H61 H 0.4880 0.4525 0.5811
C140 C 0.51380(11) 0.47198(18) 0.6330(2)
H62 H 0.5204 0.4532 0.6465
C141 C 0.52301(16) 0.5000 0.6514(3)
C142 C 0.54339(17) 0.5000 0.6948(3)
O25 O 0.09909(7) 0.02585(10) 0.75248(9)
C143 C 0.1073(2) 0.0000 0.7496(2)
O26 O 0.55286(7) 0.03259(9) 1.19713(12)
O27 O 0.55337(6) 0.03264(9) 1.24929(13)
C144 C 0.54488(11) 0.04129(17) 1.2157(2)
O28 O 0.36259(6) 0.22981(9) 1.26685(12)
O29 O 0.33321(8) 0.25700(10) 1.21517(10)
C145 C 0.35163(14) 0.24166(16) 1.2313(2)
O30 O 0.83029(8) 0.69598(7) 1.26840(12)
O31 O 0.80243(7) 0.72046(11) 1.21358(11)
C146 C 0.81100(13) 0.6974(2) 1.2325(2)
O5E O 0.31972(7) -0.19859(8) 0.74140(8)
O6E O 0.29265(6) -0.22246(10) 0.74475(9)
C65E C 0.30185(13) -0.1990(2) 0.74161(13)
C66E C 0.29137(13) -0.16613(16) 0.73573(11)
C67E C 0.29804(9) -0.1390(3) 0.72712(12)
H31E H 0.3101 -0.1394 0.7243
C68E C 0.28683(16) -0.11112(17) 0.72269(12)
H32E H 0.2913 -0.0928 0.7169
C69E C 0.26895(14) -0.1104(2) 0.72688(15)
C70E C 0.26227(8) -0.1376(3) 0.73550(15)
H33E H 0.2502 -0.1372 0.7383
C71E C 0.27348(15) -0.1655(2) 0.73992(12)
H34E H 0.2690 -0.1838 0.7457
C72E C 0.2594(2) -0.0802(3) 0.7233(3)
C73E C 0.2512(2) -0.0552(3) 0.7217(2)
C75E C 0.23979(19) -0.0266(2) 0.72048(19)
C76E C 0.22074(15) -0.0269(2) 0.72158(17)
H36E H 0.2149 -0.0464 0.7217
C81E C 0.15061(17) -0.0275(2) 0.73549(17)
H37E H 0.1567 -0.0467 0.7347
C82E C 0.13325(17) -0.02775(19) 0.73971(17)
H38E H 0.1271 -0.0466 0.7411
O25E O 0.09909(7) -0.02585(10) 0.75248(9)
O7E O 0.35256(8) 0.72089(13) 0.76712(10)
O8E O 0.32283(8) 0.69699(12) 0.76184(11)
O24E O 0.55465(8) 0.47376(11) 0.77779(11)
C84E C 0.34145(18) 0.6978(2) 0.76618(17)
C85E C 0.35325(18) 0.6687(2) 0.77218(14)
C86E C 0.37446(18) 0.66824(19) 0.77766(15)
H39E H 0.3813 0.6869 0.7777
C87E C 0.38559(10) 0.6401(3) 0.78311(16)
H40E H 0.3999 0.6398 0.7868
C88E C 0.37551(17) 0.61243(19) 0.78308(16)
C89E C 0.35430(17) 0.6129(2) 0.77760(16)
H41E H 0.3475 0.5942 0.7776
C90E C 0.34317(10) 0.6410(3) 0.77215(14)
H42E H 0.3288 0.6414 0.7684
C91E C 0.3960(2) 0.5558(5) 0.7886(3)
C92E C 0.38655(19) 0.5795(4) 0.7889(3)
C94E C 0.4071(2) 0.5284(2) 0.7909(2)
C95E C 0.42631(19) 0.5275(3) 0.7927(2)
H44E H 0.4331 0.5460 0.7922
C100E C 0.49958(16) 0.4740(2) 0.7897(2)
H45E H 0.4935 0.4547 0.7899
C101E C 0.51942(19) 0.47381(18) 0.78723(19)
H46E H 0.5256 0.4545 0.7873
O13E O 0.36243(7) 0.72325(10) 0.31258(11)
O14E O 0.33109(7) 0.70013(8) 0.26109(12)
O21E O 0.55111(8) 0.47358(11) 0.70972(14)
C123E C 0.34996(13) 0.70013(19) 0.2929(2)
C124E C 0.36012(14) 0.66915(15) 0.3106(2)
C125E C 0.38148(12) 0.66709(15) 0.3466(2)
H55E H 0.3902 0.6852 0.3591
C126E C 0.39002(7) 0.6383(2) 0.36425(12)
H56E H 0.4045 0.6369 0.3886
C127E C 0.37719(13) 0.61151(14) 0.3458(2)
C128E C 0.35583(12) 0.61356(16) 0.3098(2)
H57E H 0.3472 0.5955 0.2973
C129E C 0.34729(7) 0.6424(2) 0.29216(12)
H58E H 0.3328 0.6438 0.2678
C130E C 0.38670(17) 0.5815(2) 0.3665(3)
C131E C 0.39329(15) 0.5564(3) 0.3804(2)
C133E C 0.40314(14) 0.52792(18) 0.4025(2)
C134E C 0.42162(11) 0.52826(16) 0.4416(2)
H60E H 0.4281 0.5471 0.4550
C139E C 0.49432(12) 0.52838(17) 0.5937(2)
H61E H 0.4880 0.5475 0.5811
C140E C 0.51380(11) 0.52802(18) 0.6330(2)
H62E H 0.5204 0.5468 0.6465
O22E O 0.60119(7) 0.47401(11) 0.81905(13)
C106E C 0.63835(13) 0.47125(17) 0.8989(2)
H47E H 0.6322 0.4526 0.8848
C107E C 0.65556(13) 0.47089(18) 0.9373(3)
H48E H 0.6619 0.4521 0.9508
C112E C 0.72705(13) 0.4709(2) 1.0911(3)
H49E H 0.7195 0.4523 1.0782
C113E C 0.74615(18) 0.47159(18) 1.1286(3)
C115E C 0.75899(15) 0.4422(3) 1.1518(2)
C116E C 0.76789(19) 0.4199(2) 1.1692(3)
C117E C 0.77861(13) 0.39124(14) 1.1849(2)
C118E C 0.76887(7) 0.3639(2) 1.16398(12)
H51E H 0.7550 0.3646 1.1387
C119E C 0.77958(12) 0.33553(15) 1.1805(2)
H52E H 0.7730 0.3170 1.1663
C120E C 0.80002(12) 0.33453(15) 1.2179(2)
C121E C 0.80976(7) 0.3619(2) 1.23885(11)
H53E H 0.8236 0.3612 1.2642
C122E C 0.79906(14) 0.39024(16) 1.2224(2)
H54E H 0.8056 0.4087 1.2365
O30E O 0.83029(8) 0.30402(7) 1.26840(12)
O31E O 0.80243(7) 0.27954(11) 1.21358(11)
C146E C 0.81100(13) 0.3026(2) 1.2325(2)
Cu1E Cu 0.33886(2) -0.23657(2) 0.75457(2)
Cu2E Cu 0.30536(2) -0.26470(2) 0.75261(2)
Cu3E Cu 0.34964(2) -0.23353(2) 0.29603(2)
Cu4E Cu 0.31485(2) -0.26156(2) 0.23361(2)
O1E O 0.32036(8) -0.24700(9) 0.69949(10)
O2E O 0.29032(7) -0.26890(9) 0.69721(10)
O3E O 0.35286(7) -0.23052(9) 0.80964(10)
O4E O 0.32446(7) -0.25817(10) 0.80855(11)
O9E O 0.36430(5) -0.21320(8) 0.74957(11)
O10E O 0.27900(5) -0.28613(7) 0.75523(8)
O11E O 0.33337(7) -0.24091(9) 0.31799(10)
O12E O 0.30119(6) -0.26039(8) 0.26196(12)
O15E O 0.37876(5) -0.21015(8) 0.34623(8)
O16E O 0.28657(5) -0.28549(8) 0.18273(8)
O17E O 0.10088(6) -0.46799(9) 0.24400(13)
O18E O 0.10086(8) -0.46791(11) 0.29698(13)
C1E C 0.30096(15) -0.26137(15) 0.68322(18)
C2E C 0.28914(10) -0.26797(11) 0.64004(10)
C3E C 0.29888(6) -0.25838(9) 0.62142(18)
H1E H 0.3127 -0.2469 0.6351
C4E C 0.28815(11) -0.26581(11) 0.58257(19)
H2E H 0.2947 -0.2593 0.5700
C5E C 0.26767(11) -0.28282(12) 0.56233(10)
C6E C 0.25792(6) -0.29241(9) 0.58094(19)
H3E H 0.2441 -0.3039 0.5673
C7E C 0.26865(11) -0.28499(11) 0.6198(2)
H4E H 0.2621 -0.2915 0.6324
C8E C 0.25799(11) -0.29172(15) 0.5221(2)
C9E C 0.25034(10) -0.29705(13) 0.4889(2)
C10E C 0.24181(11) -0.30397(13) 0.45031(11)
C11E C 0.25302(7) -0.29171(9) 0.43527(18)
H5E H 0.2661 -0.2790 0.4508
C12E C 0.24484(10) -0.29823(12) 0.3972(2)
C13E C 0.22545(11) -0.31703(13) 0.37415(10)
H6E H 0.2199 -0.3214 0.3484
C14E C 0.21424(7) -0.32929(10) 0.38919(19)
C15E C 0.22242(11) -0.32276(12) 0.4273(2)
H7E H 0.2148 -0.3311 0.4374
C16E C 0.25750(13) -0.28606(16) 0.38222(16)
C17E C 0.26759(14) -0.27557(16) 0.3698(2)
C18E C 0.27900(12) -0.26706(10) 0.3531(2)
C19E C 0.30256(12) -0.26051(10) 0.37480(9)
H8E H 0.3114 -0.2596 0.4021
C20E C 0.31304(6) -0.25527(10) 0.3562(2)
H9E H 0.3290 -0.2508 0.3709
C21E C 0.29996(12) -0.25658(9) 0.3159(2)
C22E C 0.27639(12) -0.26313(9) 0.29418(9)
H10E H 0.2675 -0.2640 0.2669
C23E C 0.26592(6) -0.26837(9) 0.3127(2)
H11E H 0.2500 -0.2728 0.2981
C24E C 0.31267(14) -0.25290(14) 0.2978(2)
C25E C 0.19508(15) -0.3489(2) 0.3649(2)
C26E C 0.18011(17) -0.3670(2) 0.3499(2)
C27E C 0.16162(8) -0.39100(12) 0.3274(2)
C28E C 0.15213(12) -0.40248(16) 0.29032(19)
H12E H 0.1575 -0.3952 0.2762
C29E C 0.13465(11) -0.42469(15) 0.27420(11)
H13E H 0.1282 -0.4325 0.2491
C30E C 0.12664(8) -0.43540(11) 0.2951(2)
C31E C 0.13613(12) -0.42392(15) 0.3322(2)
H14E H 0.1307 -0.4312 0.3463
C32E C 0.15362(12) -0.40172(15) 0.34830(10)
H15E H 0.1600 -0.3940 0.3734
C33E C 0.10844(11) -0.45974(17) 0.2778(3)
C34E C 0.34208(14) -0.24284(18) 0.82313(18)
C35E C 0.35635(11) -0.23575(13) 0.86807(10)
C36E C 0.37682(12) -0.21872(12) 0.8892(2)
H16E H 0.3832 -0.2107 0.8768
C37E C 0.38789(7) -0.21350(11) 0.92866(19)
H17E H 0.4017 -0.2020 0.9429
C38E C 0.37849(12) -0.22530(13) 0.94698(11)
C39E C 0.35803(12) -0.24232(13) 0.9258(2)
H18E H 0.3517 -0.2503 0.9382
C40E C 0.34696(7) -0.24755(10) 0.8864(2)
H19E H 0.3331 -0.2591 0.8721
C41E C 0.39056(12) -0.21587(17) 0.9868(2)
C42E C 0.39887(11) -0.20933(17) 1.0194(2)
C43E C 0.41076(12) -0.19920(15) 1.05898(11)
C44E C 0.42985(12) -0.17948(15) 1.0779(2)
H20E H 0.4360 -0.1723 1.0649
C45E C 0.43981(8) -0.17045(12) 1.1160(2)
C46E C 0.43068(11) -0.18113(14) 1.13525(11)
H21E H 0.4374 -0.1750 1.1610
C47E C 0.41159(12) -0.20085(14) 1.11631(19)
C48E C 0.40163(8) -0.20988(11) 1.07818(19)
H22E H 0.3887 -0.2232 1.0654
C49E C 0.45831(17) -0.1495(2) 1.1341(2)
C50E C 0.47369(16) -0.1317(2) 1.1482(2)
C51E C 0.49210(9) -0.10884(12) 1.1671(2)
C52E C 0.50017(12) -0.09844(15) 1.14615(11)
H23E H 0.4937 -0.1062 1.1211
C53E C 0.51783(12) -0.07650(15) 1.1623(2)
H24E H 0.5233 -0.0695 1.1481
C54E C 0.52743(8) -0.06496(12) 1.1993(2)
C55E C 0.51937(12) -0.07536(16) 1.22029(11)
H25E H 0.5259 -0.0676 1.2454
C56E C 0.50170(13) -0.09730(16) 1.20417(19)
H26E H 0.4962 -0.1043 1.2183
C57E C 0.40294(16) -0.2093(2) 1.1364(2)
C58E C 0.39409(16) -0.2172(2) 1.1548(3)
C59E C 0.38476(12) -0.22466(15) 1.1770(2)
C60E C 0.39428(8) -0.21302(12) 1.2140(2)
H27E H 0.4080 -0.2013 1.2268
C61E C 0.38350(14) -0.21874(14) 1.23193(11)
H28E H 0.3899 -0.2109 1.2570
C62E C 0.36319(13) -0.23611(15) 1.2129(2)
C63E C 0.35367(8) -0.24775(12) 1.1759(2)
H29E H 0.3399 -0.2595 1.1630
C64E C 0.36446(13) -0.24202(14) 1.15794(11)
H30E H 0.3580 -0.2499 1.1329
O26E O 0.55286(7) -0.03259(9) 1.19713(12)
O27E O 0.55337(6) -0.03264(9) 1.24929(13)
C144E C 0.54488(11) -0.04129(17) 1.2157(2)
O28E O 0.36259(6) -0.22981(9) 1.26685(12)
O29E O 0.33321(8) -0.25700(10) 1.21517(10)
C145E C 0.35163(14) -0.24166(16) 1.2313(2)
Cu7B Cu 0.07664(2) 0.03066(2) 0.76507(2)
O23B O 0.07664(6) 0.08134(7) 0.76500(10)
Cu1E_2 Cu 0.33886(2) 0.76343(2) 0.75457(2)
Cu2E_2 Cu 0.30536(2) 0.73530(2) 0.75261(2)
Cu3_2 Cu 0.34964(2) 0.23353(2) 1.29603(2)
Cu3B Cu 0.84964(2) 0.73353(2) 1.29603(2)
Cu3E_2 Cu 0.34964(2) -0.23353(2) 1.29603(2)
Cu3E_3 Cu 0.34964(2) 0.76647(2) 0.29603(2)
Cu3G Cu 0.84964(2) 0.26647(2) 1.29603(2)
Cu4_2 Cu 0.31485(2) 0.26156(2) 1.23361(2)
Cu4B Cu 0.81485(2) 0.76156(2) 1.23361(2)
Cu4E_2 Cu 0.31485(2) -0.26156(2) 1.23361(2)
Cu4E_3 Cu 0.31485(2) 0.73844(2) 0.23361(2)
Cu4G Cu 0.81485(2) 0.23844(2) 1.23361(2)
Cu5_2 Cu 0.07672(2) -0.5000 0.21548(3)
Cu5B Cu 0.57672(2) 0.0000 1.21548(3)
Cu6_2 Cu 0.07765(2) -0.5000 0.27820(3)
Cu6B Cu 0.57765(2) 0.0000 1.27820(3)
Cu7E Cu 0.57664(2) 0.46934(2) 0.76507(2)
Cu7G Cu 0.07664(2) -0.03066(2) 0.76507(2)
O7E_2 O 0.35256(8) -0.27911(13) 0.76712(10)
O8E_2 O 0.32283(8) -0.30301(12) 0.76184(11)
O13E_2 O 0.36243(7) -0.27675(10) 0.31258(11)
O14E_2 O 0.33109(7) -0.29987(8) 0.26109(12)
O17E_2 O 0.10088(6) 0.53201(9) 0.24400(13)
O18E_2 O 0.10086(8) 0.53209(11) 0.29698(13)
O21B O 0.05111(8) 0.02642(11) 0.70972(14)
O22B O 0.10119(7) 0.02599(11) 0.81905(13)
O24B O 0.05465(8) 0.02624(11) 0.77779(11)
O25B O 0.59909(7) 0.52585(10) 0.75248(9)
O26B O 0.05286(7) 0.53259(9) 0.19713(12)
O26G O 0.05286(7) 0.46741(9) 0.19713(12)
O27B O 0.05337(6) 0.53264(9) 0.24929(13)
O27G O 0.05337(6) 0.46736(9) 0.24929(13)
O28_2 O 0.36259(6) 0.22981(9) 0.26685(12)
O28E_2 O 0.36259(6) -0.22981(9) 0.26685(12)
O29_2 O 0.33321(8) 0.25700(10) 0.21517(10)
O29E_2 O 0.33321(8) -0.25700(10) 0.21517(10)
O30B O 0.33029(8) 0.19598(7) 0.26840(12)
O30G O 0.33029(8) -0.19598(7) 0.26840(12)
O31B O 0.30243(7) 0.22046(11) 0.21358(11)
O31G O 0.30243(7) -0.22046(11) 0.21358(11)
loop_
_geom_bond_atom_site_label_1
_geom_bond_atom_site_label_2
_geom_bond_site_symmetry_1
_geom_bond_site_symmetry_2
Cu1 O1 1_555 1_555
Cu2 O2 1_555 1_555
Cu3 O11 1_555 1_555
Cu4 O12 1_555 1_555
Cu5 O17 1_555 1_555
Cu6 O18 1_555 1_555
Cu7 O21 1_555 1_555
O1 C1 1_555 1_555
O2 C1 1_555 1_555
O3 Cu1 1_555 1_555
O4 Cu2 1_555 1_555
O5 Cu1 1_555 1_555
O6 Cu2 1_555 1_555
O7 Cu1 1_555 1_555
O8 Cu2 1_555 1_555
O9 Cu1 1_555 1_555
O10 Cu2 1_555 1_555
O11 C24 1_555 1_555
O12 C24 1_555 1_555
O13 Cu3 1_555 1_555
O14 Cu4 1_555 1_555
O15 Cu3 1_555 1_555
O16 Cu4 1_555 1_555
O17 C33 1_555 1_555
O18 C33 1_555 1_555
O19 Cu5 1_555 1_555
O20 Cu6 1_555 1_555
O21 C142 1_555 1_555
O22 Cu7 1_555 1_555
O23 Cu7 1_555 1_555
O24 Cu7 1_555 1_555
C1 C2 1_555 1_555
C2 C3 1_555 1_555
C3 H1 1_555 1_555
C4 C3 1_555 1_555
H2 C4 1_555 1_555
C5 C4 1_555 1_555
C6 C5 1_555 1_555
H3 C6 1_555 1_555
C7 C2 1_555 1_555
H4 C7 1_555 1_555
C8 C5 1_555 1_555
C9 C8 1_555 1_555
C10 C9 1_555 1_555
C11 C10 1_555 1_555
H5 C11 1_555 1_555
C12 C11 1_555 1_555
C13 C12 1_555 1_555
H6 C13 1_555 1_555
C14 C13 1_555 1_555
C15 C10 1_555 1_555
H7 C15 1_555 1_555
C16 C12 1_555 1_555
C17 C16 1_555 1_555
C18 C17 1_555 1_555
C19 C18 1_555 1_555
H8 C19 1_555 1_555
C20 C19 1_555 1_555
H9 C20 1_555 1_555
C21 C20 1_555 1_555
C22 C21 1_555 1_555
H10 C22 1_555 1_555
C23 C18 1_555 1_555
H11 C23 1_555 1_555
C24 C21 1_555 1_555
C25 C14 1_555 1_555
C26 C25 1_555 1_555
C27 C26 1_555 1_555
C28 C27 1_555 1_555
H12 C28 1_555 1_555
C29 C28 1_555 1_555
H13 C29 1_555 1_555
C30 C29 1_555 1_555
C31 C30 1_555 1_555
H14 C31 1_555 1_555
C32 C27 1_555 1_555
H15 C32 1_555 1_555
C33 C30 1_555 1_555
C34 O3 1_555 1_555
C35 C34 1_555 1_555
C36 C35 1_555 1_555
H16 C36 1_555 1_555
C37 C36 1_555 1_555
H17 C37 1_555 1_555
C38 C37 1_555 1_555
C39 C38 1_555 1_555
H18 C39 1_555 1_555
C40 C35 1_555 1_555
H19 C40 1_555 1_555
C41 C38 1_555 1_555
C42 C41 1_555 1_555
C43 C42 1_555 1_555
C44 C43 1_555 1_555
H20 C44 1_555 1_555
C45 C44 1_555 1_555
C46 C45 1_555 1_555
H21 C46 1_555 1_555
C47 C46 1_555 1_555
C48 C43 1_555 1_555
H22 C48 1_555 1_555
C49 C45 1_555 1_555
C50 C49 1_555 1_555
C51 C50 1_555 1_555
C52 C51 1_555 1_555
H23 C52 1_555 1_555
C53 C52 1_555 1_555
H24 C53 1_555 1_555
C54 C53 1_555 1_555
C55 C54 1_555 1_555
H25 C55 1_555 1_555
C56 C51 1_555 1_555
H26 C56 1_555 1_555
C57 C47 1_555 1_555
C58 C57 1_555 1_555
C59 C58 1_555 1_555
C60 C59 1_555 1_555
H27 C60 1_555 1_555
C61 C60 1_555 1_555
H28 C61 1_555 1_555
C62 C61 1_555 1_555
C63 C62 1_555 1_555
H29 C63 1_555 1_555
C64 C59 1_555 1_555
H30 C64 1_555 1_555
C65 O5 1_555 1_555
C66 C65 1_555 1_555
C67 C66 1_555 1_555
H31 C67 1_555 1_555
C68 C67 1_555 1_555
H32 C68 1_555 1_555
C69 C68 1_555 1_555
C70 C69 1_555 1_555
H33 C70 1_555 1_555
C71 C66 1_555 1_555
H34 C71 1_555 1_555
C72 C69 1_555 1_555
C73 C72 1_555 1_555
C74 H35 1_555 1_555
C75 C73 1_555 1_555
C76 C75 1_555 1_555
H36 C76 1_555 1_555
C77 C76 1_555 1_555
C78 C77 1_555 1_555
C79 C78 1_555 1_555
C80 C79 1_555 1_555
C81 C80 1_555 1_555
H37 C81 1_555 1_555
C82 C81 1_555 1_555
H38 C82 1_555 1_555
C83 C82 1_555 1_555
C84 O7 1_555 1_555
C85 C84 1_555 1_555
C86 C85 1_555 1_555
H39 C86 1_555 1_555
C87 C86 1_555 1_555
H40 C87 1_555 1_555
C88 C87 1_555 1_555
C89 C88 1_555 1_555
H41 C89 1_555 1_555
C90 C85 1_555 1_555
H42 C90 1_555 1_555
C91 C92 1_555 1_555
C92 C88 1_555 1_555
C93 H43 1_555 1_555
C94 C91 1_555 1_555
C95 C94 1_555 1_555
H44 C95 1_555 1_555
C96 C95 1_555 1_555
C97 C96 1_555 1_555
C98 C97 1_555 1_555
C99 C98 1_555 1_555
C100 C99 1_555 1_555
H45 C100 1_555 1_555
C101 C100 1_555 1_555
H46 C101 1_555 1_555
C102 C101 1_555 1_555
C103 O24 1_555 1_555
C104 O22 1_555 1_555
C105 C104 1_555 1_555
C106 C105 1_555 1_555
H47 C106 1_555 1_555
C107 C106 1_555 1_555
H48 C107 1_555 1_555
C108 C107 1_555 1_555
C109 C108 1_555 1_555
C110 C109 1_555 1_555
C111 C110 1_555 1_555
C112 C111 1_555 1_555
H49 C112 1_555 1_555
C113 C112 1_555 1_555
C114 C113 1_555 1_555
H50 C114 1_555 1_555
C115 C113 1_555 1_555
C116 C115 1_555 1_555
C117 C116 1_555 1_555
C118 C117 1_555 1_555
H51 C118 1_555 1_555
C119 C118 1_555 1_555
H52 C119 1_555 1_555
C120 C119 1_555 1_555
C121 C120 1_555 1_555
H53 C121 1_555 1_555
C122 C117 1_555 1_555
H54 C122 1_555 1_555
C123 O13 1_555 1_555
C124 C123 1_555 1_555
C125 C124 1_555 1_555
H55 C125 1_555 1_555
C126 C125 1_555 1_555
H56 C126 1_555 1_555
C127 C126 1_555 1_555
C128 C127 1_555 1_555
H57 C128 1_555 1_555
C129 C124 1_555 1_555
H58 C129 1_555 1_555
C130 C127 1_555 1_555
C131 C130 1_555 1_555
C132 H59 1_555 1_555
C133 C131 1_555 1_555
C134 C133 1_555 1_555
H60 C134 1_555 1_555
C135 C134 1_555 1_555
C136 C135 1_555 1_555
C137 C136 1_555 1_555
C138 C137 1_555 1_555
C139 C138 1_555 1_555
H61 C139 1_555 1_555
C140 C139 1_555 1_555
H62 C140 1_555 1_555
C141 C140 1_555 1_555
C142 C141 1_555 1_555
O25 C143 1_555 1_555
C143 C83 1_555 1_555
O26 C144 1_555 1_555
O27 C144 1_555 1_555
C144 C54 1_555 1_555
O28 C145 1_555 1_555
O29 C145 1_555 1_555
C145 C62 1_555 1_555
O30 C146 1_555 1_555
O31 C146 1_555 1_555
C146 C120 1_555 1_555
O5E C65E 1_555 1_555
O6E C65E 1_555 1_555
C65E C66E 1_555 1_555
C66E C67E 1_555 1_555
C67E H31E 1_555 1_555
C68E C67E 1_555 1_555
H32E C68E 1_555 1_555
C69E C68E 1_555 1_555
C70E C69E 1_555 1_555
H33E C70E 1_555 1_555
C71E C66E 1_555 1_555
H34E C71E 1_555 1_555
C72E C69E 1_555 1_555
C73E C72E 1_555 1_555
C75E C74 1_555 1_555
C76E C77 1_555 1_555
H36E C76E 1_555 1_555
C81E C80 1_555 1_555
H37E C81E 1_555 1_555
C82E C83 1_555 1_555
H38E C82E 1_555 1_555
O25E C143 1_555 1_555
O7E C84E 1_555 1_555
O8E C84E 1_555 1_555
O24E C103 1_555 1_555
C84E C85E 1_555 1_555
C85E C86E 1_555 1_555
C86E H39E 1_555 1_555
C87E C86E 1_555 1_555
H40E C87E 1_555 1_555
C88E C87E 1_555 1_555
C89E C88E 1_555 1_555
H41E C89E 1_555 1_555
C90E C85E 1_555 1_555
H42E C90E 1_555 1_555
C91E C92E 1_555 1_555
C92E C88E 1_555 1_555
C94E C93 1_555 1_555
C95E C96 1_555 1_555
H44E C95E 1_555 1_555
C100E C99 1_555 1_555
H45E C100E 1_555 1_555
C101E C102 1_555 1_555
H46E C101E 1_555 1_555
O13E C123E 1_555 1_555
O14E C123E 1_555 1_555
O21E C142 1_555 1_555
C123E C124E 1_555 1_555
C124E C125E 1_555 1_555
C125E H55E 1_555 1_555
C126E C125E 1_555 1_555
H56E C126E 1_555 1_555
C127E C126E 1_555 1_555
C128E C127E 1_555 1_555
H57E C128E 1_555 1_555
C129E C124E 1_555 1_555
H58E C129E 1_555 1_555
C130E C127E 1_555 1_555
C131E C130E 1_555 1_555
C133E C132 1_555 1_555
C134E C135 1_555 1_555
H60E C134E 1_555 1_555
C139E C138 1_555 1_555
H61E C139E 1_555 1_555
C140E C141 1_555 1_555
H62E C140E 1_555 1_555
O22E C104 1_555 1_555
C106E C105 1_555 1_555
H47E C106E 1_555 1_555
C107E C108 1_555 1_555
H48E C107E 1_555 1_555
C112E C111 1_555 1_555
H49E C112E 1_555 1_555
C113E C114 1_555 1_555
C115E C113E 1_555 1_555
C116E C115E 1_555 1_555
C117E C116E 1_555 1_555
C118E C117E 1_555 1_555
H51E C118E 1_555 1_555
C119E C118E 1_555 1_555
H52E C119E 1_555 1_555
C120E C119E 1_555 1_555
C121E C120E 1_555 1_555
H53E C121E 1_555 1_555
C122E C117E 1_555 1_555
H54E C122E 1_555 1_555
O30E C146E 1_555 1_555
O31E C146E 1_555 1_555
C146E C120E 1_555 1_555
Cu1E O5E 1_555 1_555
Cu2E O6E 1_555 1_555
Cu3E O11E 1_555 1_555
Cu4E O12E 1_555 1_555
O1E Cu1E 1_555 1_555
O2E Cu2E 1_555 1_555
O3E Cu1E 1_555 1_555
O4E Cu2E 1_555 1_555
O9E Cu1E 1_555 1_555
O10E Cu2E 1_555 1_555
O11E C24E 1_555 1_555
O12E C24E 1_555 1_555
O15E Cu3E 1_555 1_555
O16E Cu4E 1_555 1_555
O17E C33E 1_555 1_555
O18E C33E 1_555 1_555
C1E O1E 1_555 1_555
C2E C1E 1_555 1_555
C3E C2E 1_555 1_555
H1E C3E 1_555 1_555
C4E C3E 1_555 1_555
H2E C4E 1_555 1_555
C5E C4E 1_555 1_555
C6E C5E 1_555 1_555
H3E C6E 1_555 1_555
C7E C2E 1_555 1_555
H4E C7E 1_555 1_555
C8E C5E 1_555 1_555
C9E C8E 1_555 1_555
C10E C9E 1_555 1_555
C11E C10E 1_555 1_555
H5E C11E 1_555 1_555
C12E C11E 1_555 1_555
C13E C12E 1_555 1_555
H6E C13E 1_555 1_555
C14E C13E 1_555 1_555
C15E C10E 1_555 1_555
H7E C15E 1_555 1_555
C16E C12E 1_555 1_555
C17E C16E 1_555 1_555
C18E C17E 1_555 1_555
C19E C18E 1_555 1_555
H8E C19E 1_555 1_555
C20E C19E 1_555 1_555
H9E C20E 1_555 1_555
C21E C20E 1_555 1_555
C22E C21E 1_555 1_555
H10E C22E 1_555 1_555
C23E C18E 1_555 1_555
H11E C23E 1_555 1_555
C24E C21E 1_555 1_555
C25E C14E 1_555 1_555
C26E C25E 1_555 1_555
C27E C26E 1_555 1_555
C28E C27E 1_555 1_555
H12E C28E 1_555 1_555
C29E C28E 1_555 1_555
H13E C29E 1_555 1_555
C30E C29E 1_555 1_555
C31E C30E 1_555 1_555
H14E C31E 1_555 1_555
C32E C27E 1_555 1_555
H15E C32E 1_555 1_555
C33E C30E 1_555 1_555
C34E O3E 1_555 1_555
C35E C34E 1_555 1_555
C36E C35E 1_555 1_555
H16E C36E 1_555 1_555
C37E C36E 1_555 1_555
H17E C37E 1_555 1_555
C38E C37E 1_555 1_555
C39E C38E 1_555 1_555
H18E C39E 1_555 1_555
C40E C35E 1_555 1_555
H19E C40E 1_555 1_555
C41E C38E 1_555 1_555
C42E C41E 1_555 1_555
C43E C42E 1_555 1_555
C44E C43E 1_555 1_555
H20E C44E 1_555 1_555
C45E C44E 1_555 1_555
C46E C45E 1_555 1_555
H21E C46E 1_555 1_555
C47E C46E 1_555 1_555
C48E C43E 1_555 1_555
H22E C48E 1_555 1_555
C49E C45E 1_555 1_555
C50E C49E 1_555 1_555
C51E C50E 1_555 1_555
C52E C51E 1_555 1_555
H23E C52E 1_555 1_555
C53E C52E 1_555 1_555
H24E C53E 1_555 1_555
C54E C53E 1_555 1_555
C55E C54E 1_555 1_555
H25E C55E 1_555 1_555
C56E C51E 1_555 1_555
H26E C56E 1_555 1_555
C57E C47E 1_555 1_555
C58E C57E 1_555 1_555
C59E C58E 1_555 1_555
C60E C59E 1_555 1_555
H27E C60E 1_555 1_555
C61E C60E 1_555 1_555
H28E C61E 1_555 1_555
C62E C61E 1_555 1_555
C63E C62E 1_555 1_555
H29E C63E 1_555 1_555
C64E C59E 1_555 1_555
H30E C64E 1_555 1_555
O26E C144E 1_555 1_555
O27E C144E 1_555 1_555
C144E C54E 1_555 1_555
O28E C145E 1_555 1_555
O29E C145E 1_555 1_555
C145E C62E 1_555 1_555
Cu7B O25 1_555 1_555
O23B Cu7B 1_555 1_555
Cu1E_2 O7E 1_555 1_555
Cu2E_2 O8E 1_555 1_555
Cu3_2 O28 1_555 1_555
Cu3B O30 1_555 1_555
Cu3E_2 O28E 1_555 1_555
Cu3E_3 O13E 1_555 1_555
Cu3G O30E 1_555 1_555
Cu4_2 O29 1_555 1_555
Cu4B O31 1_555 1_555
Cu4E_2 O29E 1_555 1_555
Cu4E_3 O14E 1_555 1_555
Cu4G O31E 1_555 1_555
Cu5_2 O17E 1_555 1_555
Cu5B O26 1_555 1_555
Cu6_2 O18E 1_555 1_555
Cu6B O27 1_555 1_555
Cu7E O24E 1_555 1_555
Cu7G O25E 1_555 1_555
O7E_2 Cu1E 1_555 1_555
O8E_2 Cu2E 1_555 1_555
O13E_2 Cu3E 1_555 1_555
O14E_2 Cu4E 1_555 1_555
O17E_2 Cu5 1_555 1_555
O18E_2 Cu6 1_555 1_555
O21B Cu7B 1_555 1_555
O22B Cu7B 1_555 1_555
O24B Cu7B 1_555 1_555
O25B Cu7 1_555 1_555
O26B Cu5 1_555 1_555
O26G Cu5 1_555 1_555
O27B Cu6 1_555 1_555
O27G Cu6 1_555 1_555
O28_2 Cu3 1_555 1_555
O28E_2 Cu3E 1_555 1_555
O29_2 Cu4 1_555 1_555
O29E_2 Cu4E 1_555 1_555
O30B Cu3 1_555 1_555
O30G Cu3E 1_555 1_555
O31B Cu4 1_555 1_555
O31G Cu4E 1_555 1_555
O4 C34 1_555 1_555
O6 C65 1_555 1_555
O8 C84 1_555 1_555
O14 C123 1_555 1_555
C6 C7 1_555 1_555
C14 C15 1_555 1_555
C22 C23 1_555 1_555
C31 C32 1_555 1_555
C39 C40 1_555 1_555
C47 C48 1_555 1_555
C55 C56 1_555 1_555
C63 C64 1_555 1_555
C70 C71 1_555 1_555
C74 C75 1_555 1_555
C89 C90 1_555 1_555
C93 C94 1_555 1_555
C102 C103 1_555 1_555
C121 C122 1_555 1_555
C128 C129 1_555 1_555
C132 C133 1_555 1_555
C70E C71E 1_555 1_555
C73E C75E 1_555 1_555
C75E C76E 1_555 1_555
C81E C82E 1_555 1_555
C89E C90E 1_555 1_555
C91E C94E 1_555 1_555
C94E C95E 1_555 1_555
C100E C101E 1_555 1_555
O21E Cu7E 1_555 1_555
C128E C129E 1_555 1_555
C131E C133E 1_555 1_555
C133E C134E 1_555 1_555
C139E C140E 1_555 1_555
O22E Cu7E 1_555 1_555
C106E C107E 1_555 1_555
C112E C113E 1_555 1_555
C121E C122E 1_555 1_555
O2E C1E 1_555 1_555
O4E C34E 1_555 1_555
C6E C7E 1_555 1_555
C14E C15E 1_555 1_555
C22E C23E 1_555 1_555
C31E C32E 1_555 1_555
C39E C40E 1_555 1_555
C47E C48E 1_555 1_555
C55E C56E 1_555 1_555
C63E C64E 1_555 1_555
O26E Cu5B 1_555 1_555
O27E Cu6B 1_555 1_555

#END
