
#######################################################################
#
#                 Cambridge Crystallographic Data Centre
#                                CCDC 
#
#######################################################################
#
# If this CIF has been generated from an entry in the Cambridge 
# Structural Database, then it will include bibliographic, chemical, 
# crystal, experimental, refinement or atomic coordinate data resulting 
# from the CCDC's data processing and validation procedures.
#
#######################################################################

data_BENXUP
_chemical_formula_moiety         '(C20 H26 N4 O12 Zn3)n'
_symmetry_cell_setting           monoclinic
_symmetry_space_group_name_H-M   'C 2/c'
_symmetry_Int_Tables_number      15
_space_group_name_Hall           '-C 2yc'
loop_
_symmetry_equiv_pos_site_id
_symmetry_equiv_pos_as_xyz
1 x,y,z
2 -x,y,1/2-z
3 1/2+x,1/2+y,z
4 1/2-x,1/2+y,1/2-z
5 -x,-y,-z
6 x,-y,1/2+z
7 1/2-x,1/2-y,-z
8 1/2+x,1/2-y,1/2+z
_cell_length_a                   20.436(4)
_cell_length_b                   9.0050(17)
_cell_length_c                   16.672(3)
_cell_angle_alpha                90
_cell_angle_beta                 110.230(3)
_cell_angle_gamma                90
_cell_volume                     2878.82
loop_
_atom_site_label
_atom_site_type_symbol
_atom_site_fract_x
_atom_site_fract_y
_atom_site_fract_z
_atom_site_U_iso_or_equiv
_atom_site_thermal_displace_type
Zn1 Zn 0.16081(4) 0.30529(9) 0.26751(4) 0.0237 Uani
Zn2 Zn 0.0000 0.24815(13) 0.2500 0.0266 Uani
O1 O 0.0553(2) 0.1111(6) 0.3380(3) 0.0375 Uani
O2 O 0.0647(3) 0.3654(7) 0.2192(4) 0.0437 Uani
O3 O 0.1574(2) 0.2275(6) 0.3812(3) 0.0307 Uani
N1 N 0.2651(3) 0.0414(7) 0.6961(3) 0.0333 Uani
N2 N 0.1910(3) -0.1296(7) 0.7165(3) 0.0352 Uani
C1 C 0.1955(3) 0.0939(8) 0.5416(4) 0.0269 Uani
H1 H 0.2280 0.1609 0.5321 0.0320 Uiso
C2 C 0.1147(3) 0.1386(7) 0.3932(4) 0.0248 Uani
C3 C 0.1322(3) 0.0614(7) 0.4773(4) 0.0238 Uani
C4 C 0.1004(4) -0.1142(8) 0.5675(4) 0.0316 Uani
H2 H 0.0690 -0.1849 0.5764 0.0380 Uiso
C5 C 0.2088(3) 0.0249(7) 0.6193(4) 0.0234 Uani
C6 C 0.2505(4) -0.0521(9) 0.7502(4) 0.0391 Uani
C7 C 0.1630(3) -0.0788(7) 0.6319(4) 0.0253 Uani
C8 C 0.0861(3) -0.0419(8) 0.4903(4) 0.0315 Uani
H3 H 0.0438 -0.0630 0.4450 0.0380 Uiso
O4 O 0.3369(5) 0.0486(9) 0.8712(4) 0.0940 Uani
H4 H 0.3121 0.1077 0.8872 0.1410 Uiso
C9 C 0.2989(6) -0.0816(11) 0.8391(6) 0.0694 Uani
H5 H 0.2752 -0.1239 0.8773 0.0840 Uiso
C10 C 0.3677(8) -0.1786(18) 0.8388(10) 0.1042 Uani
H6 H 0.3985 -0.1962 0.8978 0.1570 Uiso
H7 H 0.3930 -0.1230 0.8082 0.1570 Uiso
H8 H 0.3523 -0.2740 0.8102 0.1570 Uiso
H9 H 0.065(7) 0.397(15) 0.185(8) 0.0900 Uiso
Zn1A Zn -0.16081(4) 0.30529(9) 0.23249(4) 0.0237 Uani
O1A O -0.0553(2) 0.1111(6) 0.1620(3) 0.0375 Uani
O2A O -0.0647(3) 0.3654(7) 0.2808(4) 0.0437 Uani
O3A O -0.1574(2) 0.2275(6) 0.1188(3) 0.0307 Uani
N1A N -0.2651(3) 0.0414(7) -0.1961(3) 0.0333 Uani
N2A N -0.1910(3) -0.1296(7) -0.2165(3) 0.0352 Uani
C1A C -0.1955(3) 0.0939(8) -0.0416(4) 0.0269 Uani
H1A H -0.2280 0.1609 -0.0321 0.0320 Uiso
C2A C -0.1147(3) 0.1386(7) 0.1068(4) 0.0248 Uani
C3A C -0.1322(3) 0.0614(7) 0.0227(4) 0.0238 Uani
C4A C -0.1004(4) -0.1142(8) -0.0675(4) 0.0316 Uani
H2A H -0.0690 -0.1849 -0.0764 0.0380 Uiso
C5A C -0.2088(3) 0.0249(7) -0.1193(4) 0.0234 Uani
C6A C -0.2505(4) -0.0521(9) -0.2502(4) 0.0391 Uani
C7A C -0.1630(3) -0.0788(7) -0.1319(4) 0.0253 Uani
C8A C -0.0861(3) -0.0419(8) 0.0097(4) 0.0315 Uani
H3A H -0.0438 -0.0630 0.0550 0.0380 Uiso
O4A O -0.3369(5) 0.0486(9) -0.3712(4) 0.0940 Uani
H4A H -0.3121 0.1077 -0.3872 0.1410 Uiso
C9A C -0.2989(6) -0.0816(11) -0.3391(6) 0.0694 Uani
H5A H -0.2752 -0.1239 -0.3773 0.0840 Uiso
C10A C -0.3677(8) -0.1786(18) -0.3388(10) 0.1042 Uani
H6A H -0.3985 -0.1962 -0.3978 0.1570 Uiso
H7A H -0.3930 -0.1230 -0.3082 0.1570 Uiso
H8A H -0.3523 -0.2740 -0.3102 0.1570 Uiso
H9A H -0.065(7) 0.397(15) 0.315(8) 0.0900 Uiso
Zn1D Zn -0.16081(4) -0.30529(9) -0.26751(4) 0.0237 Uani
Zn1E Zn 0.16081(4) -0.30529(9) 0.76751(4) 0.0237 Uani
Zn1F Zn 0.33919(4) 0.19471(9) 0.73249(4) 0.0237 Uani
Zn1G Zn -0.33919(4) 0.19471(9) -0.23249(4) 0.0237 Uani
N1F N 0.2349(3) 0.4586(7) 0.3039(3) 0.0333 Uani
N1G N -0.2349(3) 0.4586(7) 0.1961(3) 0.0333 Uani
N2D N -0.1910(3) 0.1296(7) 0.2835(3) 0.0352 Uani
N2E N 0.1910(3) 0.1296(7) 0.2165(3) 0.0352 Uani
O5 O 0.2288(13) 0.163(3) 0.8996(15) 0.1627 Uani
O6 O 0.0850(11) 0.620(2) 0.3462(13) 0.2289 Uani
O7 O -0.0392(9) 0.467(2) 0.0426(10) 0.1832 Uani
O8 O 0.0000 0.809(5) 0.2500 0.2700 Uiso
loop_
_atom_site_aniso_label
_atom_site_aniso_U_11
_atom_site_aniso_U_22
_atom_site_aniso_U_33
_atom_site_aniso_U_23
_atom_site_aniso_U_13
_atom_site_aniso_U_12
Zn1 0.0202(4) 0.0331(5) 0.0150(4) -0.0027(3) 0.0025(3) -0.0016(3)
Zn2 0.0187(6) 0.0357(7) 0.0198(5) 0.000 -0.0006(4) 0.000
O1 0.029(3) 0.044(3) 0.025(2) 0.009(2) -0.009(2) -0.011(2)
O2 0.025(3) 0.056(4) 0.044(3) 0.028(3) 0.004(2) 0.002(2)
O3 0.025(2) 0.045(3) 0.016(2) 0.003(2) -0.0007(18) -0.009(2)
N1 0.033(3) 0.043(4) 0.015(3) 0.003(2) -0.003(2) -0.011(3)
N2 0.034(3) 0.048(4) 0.016(3) 0.007(3) -0.001(2) -0.013(3)
C1 0.021(3) 0.038(4) 0.018(3) -0.001(3) 0.002(3) -0.003(3)
C2 0.026(3) 0.026(3) 0.018(3) 0.000(3) 0.002(3) 0.002(3)
C3 0.020(3) 0.031(4) 0.015(3) -0.001(3) -0.001(2) 0.000(3)
C4 0.030(4) 0.036(4) 0.026(3) 0.003(3) 0.006(3) -0.004(3)
C5 0.022(3) 0.030(3) 0.014(3) 0.000(2) 0.001(2) -0.003(3)
C6 0.043(4) 0.050(5) 0.017(3) 0.003(3) 0.001(3) -0.019(4)
C7 0.027(3) 0.029(3) 0.017(3) 0.003(3) 0.004(2) 0.002(3)
C8 0.024(3) 0.045(4) 0.016(3) 0.003(3) -0.005(3) -0.001(3)
O4 0.101(6) 0.096(6) 0.049(4) 0.008(4) -0.020(4) -0.045(5)
C9 0.066(6) 0.082(6) 0.041(4) 0.015(4) -0.006(4) -0.032(5)
C10 0.085(7) 0.137(9) 0.093(7) 0.027(7) 0.034(6) 0.000(7)
Zn1A 0.0202 0.0331 0.015 0.0027 0.0025 0.0016
O1A 0.029 0.044 0.025 -0.009 -0.009 0.011
O2A 0.025 0.056 0.044 -0.028 0.004 -0.002
O3A 0.025 0.045 0.016 -0.003 -0.0007 0.009
N1A 0.033 0.043 0.015 -0.003 -0.003 0.011
N2A 0.034 0.048 0.016 -0.007 -0.001 0.013
C1A 0.021 0.038 0.018 0.001 0.002 0.003
C2A 0.026 0.026 0.018 0 0.002 -0.002
C3A 0.02 0.031 0.015 0.001 -0.001 0
C4A 0.03 0.036 0.026 -0.003 0.006 0.004
C5A 0.022 0.03 0.014 0 0.001 0.003
C6A 0.043 0.05 0.017 -0.003 0.001 0.019
C7A 0.027 0.029 0.017 -0.003 0.004 -0.002
C8A 0.024 0.045 0.016 -0.003 -0.005 0.001
O4A 0.101 0.096 0.049 -0.008 -0.02 0.045
C9A 0.066 0.082 0.041 -0.015 -0.006 0.032
C10A 0.085 0.137 0.093 -0.027 0.034 0
Zn1D 0.0202 0.0331 0.015 -0.0027 0.0025 -0.0016
Zn1E 0.0202 0.0331 0.015 0.0027 0.0025 0.0016
Zn1F 0.0202 0.0331 0.015 -0.0027 0.0025 -0.0016
Zn1G 0.0202 0.0331 0.015 0.0027 0.0025 0.0016
N1F 0.033 0.043 0.015 0.003 -0.003 -0.011
N1G 0.033 0.043 0.015 -0.003 -0.003 0.011
N2D 0.034 0.048 0.016 0.007 -0.001 -0.013
N2E 0.034 0.048 0.016 -0.007 -0.001 0.013
O5 0.157(11) 0.180(12) 0.155(11) 0.046(9) 0.059(9) -0.047(9)
O6 0.260(12) 0.209(11) 0.231(11) -0.029(9) 0.102(9) 0.008(9)
O7 0.194(9) 0.192(10) 0.154(8) -0.004(8) 0.048(7) -0.029(8)
loop_
_geom_bond_atom_site_label_1
_geom_bond_atom_site_label_2
_geom_bond_site_symmetry_1
_geom_bond_site_symmetry_2
Zn1 O2 1_555 1_555
Zn2 O1 1_555 1_555
O1 C2 1_555 1_555
O2 Zn2 1_555 1_555
O3 Zn1 1_555 1_555
N1 C5 1_555 1_555
N2 C6 1_555 1_555
C1 H1 1_555 1_555
C2 O3 1_555 1_555
C3 C1 1_555 1_555
C4 H2 1_555 1_555
C5 C1 1_555 1_555
C6 N1 1_555 1_555
C7 N2 1_555 1_555
C8 C3 1_555 1_555
H3 C8 1_555 1_555
O4 H4 1_555 1_555
C9 C6 1_555 1_555
H5 C9 1_555 1_555
C10 C9 1_555 1_555
H6 C10 1_555 1_555
H7 C10 1_555 1_555
H8 C10 1_555 1_555
H9 O2 1_555 1_555
Zn1A O2A 1_555 1_555
O1A Zn2 1_555 1_555
O2A Zn2 1_555 1_555
O3A Zn1A 1_555 1_555
N1A C5A 1_555 1_555
N2A C6A 1_555 1_555
C1A H1A 1_555 1_555
C2A O1A 1_555 1_555
C3A C1A 1_555 1_555
C4A H2A 1_555 1_555
C5A C1A 1_555 1_555
C6A N1A 1_555 1_555
C7A N2A 1_555 1_555
C8A C3A 1_555 1_555
H3A C8A 1_555 1_555
O4A H4A 1_555 1_555
C9A C6A 1_555 1_555
H5A C9A 1_555 1_555
C10A C9A 1_555 1_555
H6A C10A 1_555 1_555
H7A C10A 1_555 1_555
H8A C10A 1_555 1_555
H9A O2A 1_555 1_555
Zn1D N2A 1_555 1_555
Zn1E N2 1_555 1_555
Zn1F N1 1_555 1_555
Zn1G N1A 1_555 1_555
N1F Zn1 1_555 1_555
N1G Zn1A 1_555 1_555
N2D Zn1A 1_555 1_555
N2E Zn1 1_555 1_555
C2 C3 1_555 1_555
C4 C7 1_555 1_555
C4 C8 1_555 1_555
C5 C7 1_555 1_555
O4 C9 1_555 1_555
O3A C2A 1_555 1_555
C2A C3A 1_555 1_555
C4A C7A 1_555 1_555
C4A C8A 1_555 1_555
C5A C7A 1_555 1_555
O4A C9A 1_555 1_555

#END
