
#######################################################################
#
#                 Cambridge Crystallographic Data Centre
#                                CCDC 
#
#######################################################################
#
# If this CIF has been generated from an entry in the Cambridge 
# Structural Database, then it will include bibliographic, chemical, 
# crystal, experimental, refinement or atomic coordinate data resulting 
# from the CCDC's data processing and validation procedures.
#
#######################################################################

data_BENXOJ
_chemical_formula_moiety         '(C20 H18 N4 O8 Zn3)n'
_symmetry_cell_setting           monoclinic
_symmetry_space_group_name_H-M   'C 2/c'
_symmetry_Int_Tables_number      15
_space_group_name_Hall           '-C 2yc'
loop_
_symmetry_equiv_pos_site_id
_symmetry_equiv_pos_as_xyz
1 x,y,z
2 -x,y,1/2-z
3 1/2+x,1/2+y,z
4 1/2-x,1/2+y,1/2-z
5 -x,-y,-z
6 x,-y,1/2+z
7 1/2-x,1/2-y,-z
8 1/2+x,1/2-y,1/2+z
_cell_length_a                   20.4432(5)
_cell_length_b                   9.1336(2)
_cell_length_c                   16.6912(5)
_cell_angle_alpha                90
_cell_angle_beta                 110.023(3)
_cell_angle_gamma                90
_cell_volume                     2928.2
loop_
_atom_site_label
_atom_site_type_symbol
_atom_site_fract_x
_atom_site_fract_y
_atom_site_fract_z
_atom_site_U_iso_or_equiv
_atom_site_thermal_displace_type
Zn1 Zn 0.33815(3) 0.79978(7) 1.23191(3) 0.0296 Uani
Zn2 Zn 0.5000 0.74254(11) 1.2500 0.0337 Uani
C1 C 0.1994(5) 0.4278(12) 0.6604(5) 0.0883 Uani
H1 H 0.2216 0.3871 0.6218 0.1060 Uiso
C2 C 0.2482(3) 0.4532(7) 0.7503(3) 0.0404 Uani
C3 C 0.2908(2) 0.5293(6) 0.8791(3) 0.0295 Uani
C4 C 0.3358(3) 0.4250(6) 0.8665(3) 0.0312 Uani
C5 C 0.3045(3) 0.5985(6) 0.9574(3) 0.0303 Uani
H2 H 0.2733 0.6647 0.9667 0.0360 Uiso
C6 C 0.4128(3) 0.4595(6) 1.0068(3) 0.0383 Uani
H3 H 0.4539 0.4377 1.0510 0.0460 Uiso
C7 C 0.3854(3) 0.6380(6) 1.1060(3) 0.0334 Uani
C8 C 0.3673(2) 0.5637(6) 1.0213(3) 0.0308 Uani
C9 C 0.3990(3) 0.3896(7) 0.9310(3) 0.0399 Uani
H4 H 0.4298 0.3217 0.9222 0.0480 Uiso
C10 C 0.1323(6) 0.3332(15) 0.6653(8) 0.1113 Uani
H5 H 0.1082 0.3888 0.6954 0.1670 Uiso
H6 H 0.1484 0.2428 0.6949 0.1670 Uiso
H7 H 0.1013 0.3128 0.6086 0.1670 Uiso
O1 O 0.4439(2) 0.6100(5) 1.1602(2) 0.0483 Uani
O2 O 0.3418(2) 0.7237(5) 1.1184(2) 0.0398 Uani
O3 O 0.43451(19) 0.8529(5) 1.2826(3) 0.0490 Uani
H8 H 0.4485 0.9295 1.3215 0.0590 Uiso
O4 O 0.1601(4) 0.5475(10) 0.6305(4) 0.1138 Uani
H9 H 0.1435 0.5432 0.5783 0.1710 Uiso
N1 N 0.2353(2) 0.5453(5) 0.8024(3) 0.0365 Uani
N2 N 0.3076(2) 0.3740(6) 0.7827(3) 0.0394 Uani
Zn1A Zn 0.66185(3) 0.79978(7) 1.26809(3) 0.0296 Uani
C1A C 0.8006(5) 0.4278(12) 1.8396(5) 0.0883 Uani
H1A H 0.7784 0.3871 1.8782 0.1060 Uiso
C2A C 0.7518(3) 0.4532(7) 1.7497(3) 0.0404 Uani
C3A C 0.7092(2) 0.5293(6) 1.6209(3) 0.0295 Uani
C4A C 0.6642(3) 0.4250(6) 1.6335(3) 0.0312 Uani
C5A C 0.6955(3) 0.5985(6) 1.5426(3) 0.0303 Uani
H2A H 0.7267 0.6647 1.5333 0.0360 Uiso
C6A C 0.5872(3) 0.4595(6) 1.4932(3) 0.0383 Uani
H3A H 0.5461 0.4377 1.4490 0.0460 Uiso
C7A C 0.6146(3) 0.6380(6) 1.3940(3) 0.0334 Uani
C8A C 0.6327(2) 0.5637(6) 1.4787(3) 0.0308 Uani
C9A C 0.6010(3) 0.3896(7) 1.5690(3) 0.0399 Uani
H4A H 0.5702 0.3217 1.5778 0.0480 Uiso
C10A C 0.8677(6) 0.3332(15) 1.8347(8) 0.1113 Uani
H5A H 0.8918 0.3888 1.8046 0.1670 Uiso
H6A H 0.8516 0.2428 1.8051 0.1670 Uiso
H7A H 0.8987 0.3128 1.8914 0.1670 Uiso
O1A O 0.5561(2) 0.6100(5) 1.3398(2) 0.0483 Uani
O2A O 0.6582(2) 0.7237(5) 1.3816(2) 0.0398 Uani
O3A O 0.56549(19) 0.8529(5) 1.2174(3) 0.0490 Uani
H8A H 0.5515 0.9295 1.1785 0.0590 Uiso
O4A O 0.8399(4) 0.5475(10) 1.8695(4) 0.1138 Uani
H9A H 0.8565 0.5432 1.9217 0.1710 Uiso
N1A N 0.7647(2) 0.5453(5) 1.6976(3) 0.0365 Uani
N2A N 0.6924(2) 0.3740(6) 1.7173(3) 0.0394 Uani
Zn1D Zn 0.66185(3) 0.20022(7) 1.76809(3) 0.0296 Uani
Zn1E Zn 0.33815(3) 0.20022(7) 0.73191(3) 0.0296 Uani
Zn1F Zn 0.16185(3) 0.70022(7) 0.76809(3) 0.0296 Uani
Zn1G Zn 0.83815(3) 0.70022(7) 1.73191(3) 0.0296 Uani
N1F N 0.2647(2) 0.9547(5) 1.1976(3) 0.0365 Uani
N1G N 0.7353(2) 0.9547(5) 1.3024(3) 0.0365 Uani
N2D N 0.6924(2) 0.6260(6) 1.2173(3) 0.0394 Uani
N2E N 0.3076(2) 0.6260(6) 1.2827(3) 0.0394 Uani
loop_
_atom_site_aniso_label
_atom_site_aniso_U_11
_atom_site_aniso_U_22
_atom_site_aniso_U_33
_atom_site_aniso_U_23
_atom_site_aniso_U_13
_atom_site_aniso_U_12
Zn1 0.0243(4) 0.0385(4) 0.0229(4) 0.0034(2) 0.0040(3) 0.0011(2)
Zn2 0.0219(5) 0.0466(6) 0.0257(5) 0.000 -0.0006(4) 0.000
C1 0.086(6) 0.112(7) 0.036(4) -0.027(4) -0.019(4) 0.057(6)
C2 0.042(3) 0.050(3) 0.023(3) -0.004(2) 0.003(2) 0.016(3)
C3 0.024(2) 0.040(3) 0.021(2) 0.001(2) 0.0033(19) 0.000(2)
C4 0.029(2) 0.040(3) 0.019(2) -0.004(2) 0.0011(19) 0.002(2)
C5 0.028(2) 0.036(3) 0.024(2) -0.001(2) 0.005(2) 0.004(2)
C6 0.025(2) 0.053(3) 0.027(3) -0.007(2) -0.004(2) 0.004(2)
C7 0.028(3) 0.041(3) 0.025(2) -0.002(2) 0.001(2) -0.002(2)
C8 0.025(2) 0.042(3) 0.020(2) -0.003(2) 0.0006(19) -0.004(2)
C9 0.028(3) 0.049(3) 0.035(3) -0.009(3) 0.001(2) 0.008(2)
C10 0.086(6) 0.143(8) 0.099(6) -0.030(6) 0.024(5) -0.022(6)
O1 0.036(2) 0.059(3) 0.033(2) -0.0120(19) -0.0099(17) 0.013(2)
O2 0.033(2) 0.059(2) 0.0212(18) -0.0068(17) 0.0011(15) 0.0101(18)
O3 0.029(2) 0.065(3) 0.046(2) -0.027(2) 0.0037(18) -0.004(2)
O4 0.113(5) 0.148(7) 0.046(3) -0.017(4) -0.017(3) 0.077(5)
N1 0.032(2) 0.049(3) 0.020(2) -0.0030(19) -0.0022(18) 0.005(2)
N2 0.036(2) 0.052(3) 0.022(2) -0.008(2) -0.0008(18) 0.009(2)
Zn1A 0.0243 0.0385 0.0229 -0.0034 0.004 -0.0011
C1A 0.086 0.112 0.036 0.027 -0.019 -0.057
C2A 0.042 0.05 0.023 0.004 0.003 -0.016
C3A 0.024 0.04 0.021 -0.001 0.0033 0
C4A 0.029 0.04 0.019 0.004 0.0011 -0.002
C5A 0.028 0.036 0.024 0.001 0.005 -0.004
C6A 0.025 0.053 0.027 0.007 -0.004 -0.004
C7A 0.028 0.041 0.025 0.002 0.001 0.002
C8A 0.025 0.042 0.02 0.003 0.0006 0.004
C9A 0.028 0.049 0.035 0.009 0.001 -0.008
C10A 0.086 0.143 0.099 0.03 0.024 0.022
O1A 0.036 0.059 0.033 0.012 -0.0099 -0.013
O2A 0.033 0.059 0.0212 0.0068 0.0011 -0.0101
O3A 0.029 0.065 0.046 0.027 0.0037 0.004
O4A 0.113 0.148 0.046 0.017 -0.017 -0.077
N1A 0.032 0.049 0.02 0.003 -0.0022 -0.005
N2A 0.036 0.052 0.022 0.008 -0.0008 -0.009
Zn1D 0.0243 0.0385 0.0229 0.0034 0.004 0.0011
Zn1E 0.0243 0.0385 0.0229 -0.0034 0.004 -0.0011
Zn1F 0.0243 0.0385 0.0229 0.0034 0.004 0.0011
Zn1G 0.0243 0.0385 0.0229 -0.0034 0.004 -0.0011
N1F 0.032 0.049 0.02 -0.003 -0.0022 0.005
N1G 0.032 0.049 0.02 0.003 -0.0022 -0.005
N2D 0.036 0.052 0.022 -0.008 -0.0008 0.009
N2E 0.036 0.052 0.022 0.008 -0.0008 -0.009
loop_
_geom_bond_atom_site_label_1
_geom_bond_atom_site_label_2
_geom_bond_site_symmetry_1
_geom_bond_site_symmetry_2
Zn1 O2 1_555 1_555
Zn2 O1 1_555 1_555
C1 H1 1_555 1_555
C2 C1 1_555 1_555
C3 C4 1_555 1_555
C4 C9 1_555 1_555
C5 C3 1_555 1_555
H2 C5 1_555 1_555
C6 H3 1_555 1_555
C7 C8 1_555 1_555
C8 C5 1_555 1_555
C9 C6 1_555 1_555
H4 C9 1_555 1_555
C10 C1 1_555 1_555
H5 C10 1_555 1_555
H6 C10 1_555 1_555
H7 C10 1_555 1_555
O1 C7 1_555 1_555
O2 C7 1_555 1_555
O3 Zn1 1_555 1_555
H8 O3 1_555 1_555
O4 C1 1_555 1_555
H9 O4 1_555 1_555
N1 C2 1_555 1_555
N2 C2 1_555 1_555
Zn1A O2A 1_555 1_555
C1A H1A 1_555 1_555
C2A C1A 1_555 1_555
C3A C4A 1_555 1_555
C4A C9A 1_555 1_555
C5A C3A 1_555 1_555
H2A C5A 1_555 1_555
C6A H3A 1_555 1_555
C7A C8A 1_555 1_555
C8A C5A 1_555 1_555
C9A C6A 1_555 1_555
H4A C9A 1_555 1_555
C10A C1A 1_555 1_555
H5A C10A 1_555 1_555
H6A C10A 1_555 1_555
H7A C10A 1_555 1_555
O1A Zn2 1_555 1_555
O2A C7A 1_555 1_555
O3A Zn2 1_555 1_555
H8A O3A 1_555 1_555
O4A C1A 1_555 1_555
H9A O4A 1_555 1_555
N1A C2A 1_555 1_555
N2A C2A 1_555 1_555
Zn1D N2A 1_555 1_555
Zn1E N2 1_555 1_555
Zn1F N1 1_555 1_555
Zn1G N1A 1_555 1_555
N1F Zn1 1_555 1_555
N1G Zn1A 1_555 1_555
N2D Zn1A 1_555 1_555
N2E Zn1 1_555 1_555
Zn2 O3 1_555 1_555
C3 N1 1_555 1_555
C4 N2 1_555 1_555
C6 C8 1_555 1_555
Zn1A O3A 1_555 1_555
C3A N1A 1_555 1_555
C4A N2A 1_555 1_555
C6A C8A 1_555 1_555
C7A O1A 1_555 1_555

#END
