
#######################################################################
#
#                 Cambridge Crystallographic Data Centre
#                                CCDC 
#
#######################################################################
#
# If this CIF has been generated from an entry in the Cambridge 
# Structural Database, then it will include bibliographic, chemical, 
# crystal, experimental, refinement or atomic coordinate data resulting 
# from the CCDC's data processing and validation procedures.
#
#######################################################################

data_BOCTEU01
_chemical_formula_moiety         '(C2 H8 Mn1 N10)n'
_symmetry_cell_setting           orthorhombic
_symmetry_space_group_name_H-M   'C m c a'
_symmetry_Int_Tables_number      64
_space_group_name_Hall           '-C 2ac 2'
loop_
_symmetry_equiv_pos_site_id
_symmetry_equiv_pos_as_xyz
1 x,y,z
2 -x,1/2-y,1/2+z
3 x,-y,-z
4 -x,1/2+y,1/2-z
5 1/2+x,1/2+y,z
6 1/2-x,-y,1/2+z
7 1/2+x,1/2-y,-z
8 1/2-x,y,1/2-z
9 -x,-y,-z
10 x,1/2+y,1/2-z
11 -x,y,z
12 x,1/2-y,1/2+z
13 1/2-x,1/2-y,-z
14 1/2+x,y,1/2-z
15 1/2-x,1/2+y,z
16 1/2+x,-y,1/2+z
_cell_length_a                   12.1491(19)
_cell_length_b                   12.284(2)
_cell_length_c                   12.216(2)
_cell_angle_alpha                90
_cell_angle_beta                 90
_cell_angle_gamma                90
_cell_volume                     1823.11
loop_
_atom_site_label
_atom_site_type_symbol
_atom_site_fract_x
_atom_site_fract_y
_atom_site_fract_z
Mn1 Mn 0.5000 0.30794(5) 0.19456(5)
N1 N 0.5000 0.3291(5) 0.3752(4)
N2 N 0.5000 0.2654(4) 0.4455(3)
N3 N 0.5000 0.2010(4) 0.5147(4)
N4 N 0.5000 0.4867(4) 0.1701(4)
N5 N 0.5000 0.5593(3) 0.2302(4)
N6 N 0.5000 0.6309(5) 0.2895(5)
N7 N 0.3185(4) 0.3175(4) 0.1860(3)
N8 N 0.2500 0.3165(4) 0.2500
N7G N 0.1815(4) 0.3175(4) 0.3140(3)
Mn1A Mn 0.5000 0.19206(5) 0.69456(5)
Mn1C Mn 0.5000 0.80794(5) 0.30544(5)
Mn1G Mn 0.0000 0.30794(5) 0.30544(5)
N3A N 0.5000 0.2990(4) 0.0147(4)
N6C N 0.5000 0.1309(5) 0.2105(5)
N7J N 0.6815(4) 0.3175(4) 0.1860(3)
C1 C 0.2426(5) 0.4250(5) -0.0681(5)
H1 H 0.2010 0.3766 -0.0224
H2 H 0.2923 0.3837 -0.1128
H3 H 0.1932 0.4654 -0.1142
N9 N 0.3048(3) 0.5000 0.0000
H4 H 0.3488 0.4605 0.0440
H4B H 0.3488 0.5395 -0.0440
C1B C 0.2426(5) 0.5750(5) 0.0681(5)
H1B H 0.2010 0.6234 0.0224
H2B H 0.2923 0.6163 0.1128
H3B H 0.1932 0.5346 0.1142
loop_
_geom_bond_atom_site_label_1
_geom_bond_atom_site_label_2
_geom_bond_site_symmetry_1
_geom_bond_site_symmetry_2
Mn1 N1 1_555 1_555
N1 N2 1_555 1_555
N2 N3 1_555 1_555
N3 Mn1A 1_555 1_555
N4 Mn1 1_555 1_555
N5 N4 1_555 1_555
N6 N5 1_555 1_555
N7 Mn1 1_555 1_555
N8 N7 1_555 1_555
C1 H1 1_555 1_555
H2 C1 1_555 1_555
H3 C1 1_555 1_555
N9 C1 1_555 1_555
H4 N9 1_555 1_555
N7G N8 1_555 1_555
Mn1C N6 1_555 1_555
Mn1G N7G 1_555 1_555
N3A Mn1 1_555 1_555
N6C Mn1 1_555 1_555
N7J Mn1 1_555 1_555
H4B N9 1_555 1_555
C1B N9 1_555 1_555
H1B C1B 1_555 1_555
H2B C1B 1_555 1_555
H3B C1B 1_555 1_555

#END
