
#######################################################################
#
#                 Cambridge Crystallographic Data Centre
#                                CCDC 
#
#######################################################################
#
# If this CIF has been generated from an entry in the Cambridge 
# Structural Database, then it will include bibliographic, chemical, 
# crystal, experimental, refinement or atomic coordinate data resulting 
# from the CCDC's data processing and validation procedures.
#
#######################################################################

data_BOCTOE05
_chemical_formula_moiety         '(C3 H2 Mn1 N11 1-)n'
_symmetry_cell_setting           monoclinic
_symmetry_space_group_name_H-M   'C 2/c'
_symmetry_Int_Tables_number      15
_space_group_name_Hall           '-C 2yc'
loop_
_symmetry_equiv_pos_site_id
_symmetry_equiv_pos_as_xyz
1 x,y,z
2 -x,y,1/2-z
3 1/2+x,1/2+y,z
4 1/2-x,1/2+y,1/2-z
5 -x,-y,-z
6 x,-y,1/2+z
7 1/2-x,1/2-y,-z
8 1/2+x,1/2-y,1/2+z
_cell_length_a                   8.502(16)
_cell_length_b                   9.431(17)
_cell_length_c                   12.93(2)
_cell_angle_alpha                90
_cell_angle_beta                 104.77(2)
_cell_angle_gamma                90
_cell_volume                     1002.5
loop_
_atom_site_label
_atom_site_type_symbol
_atom_site_fract_x
_atom_site_fract_y
_atom_site_fract_z
N7 N -0.0505(8) 0.0189(6) 0.2244(5)
H1 H -0.1504 0.0189 0.1773
C1 C -0.0000 0.1688(6) 0.2500
C2 C 0.0640(7) -0.0548(8) 0.1747(5)
N7A N 0.0505(8) 0.0189(6) 0.2756(5)
H1A H 0.1504 0.0189 0.3227
C2A C -0.0640(7) -0.0548(8) 0.3253(5)
Mn1 Mn 0.5000 0.0000 0.0000
N1 N 0.5000 0.0436(4) 0.2500
N2 N 0.7185(4) 0.1295(3) -0.0019(3)
N3 N 0.5504(5) 0.0463(5) 0.1750(2)
N4 N 0.3373(4) 0.1898(3) -0.0403(3)
N5 N 0.7500 0.2500 0.0000
N6 N 0.2500 0.2500 0.0000
N3A N 0.4496(5) 0.0463(5) 0.3250(2)
N2F N 0.7815(4) 0.3705(3) 0.0019(3)
N4F N 0.1627(4) 0.3102(3) 0.0403(3)
Mn1A Mn 0.5000 0.0000 0.5000
Mn1B Mn 0.0000 0.5000 0.0000
Mn1B_2 Mn 1.0000 0.5000 0.0000
N2D N 0.2815(4) -0.1295(3) 0.0019(3)
N3D N 0.4496(5) -0.0463(5) -0.1750(2)
N4D N 0.6627(4) -0.1898(3) 0.0403(3)
loop_
_geom_bond_atom_site_label_1
_geom_bond_atom_site_label_2
_geom_bond_site_symmetry_1
_geom_bond_site_symmetry_2
Mn1 N2 1_555 1_555
N1 N3 1_555 1_555
N2 N5 1_555 1_555
N3 Mn1 1_555 1_555
N4 Mn1 1_555 1_555
N5 N2F 1_555 1_555
N6 N4 1_555 1_555
N7 H1 1_555 1_555
C1 N7 1_555 1_555
C2 N7 1_555 1_555
N3A N1 1_555 1_555
N2F Mn1B_2 1_555 1_555
N4F N6 1_555 1_555
Mn1A N3A 1_555 1_555
Mn1B N4F 1_555 1_555
N2D Mn1 1_555 1_555
N3D Mn1 1_555 1_555
N4D Mn1 1_555 1_555
N7A C1 1_555 1_555
H1A N7A 1_555 1_555
C2A N7 1_555 1_555
C2 N7A 1_555 1_555
N7A C2A 1_555 1_555

#END
