
#######################################################################
#
#                 Cambridge Crystallographic Data Centre
#                                CCDC 
#
#######################################################################
#
# If this CIF has been generated from an entry in the Cambridge 
# Structural Database, then it will include bibliographic, chemical, 
# crystal, experimental, refinement or atomic coordinate data resulting 
# from the CCDC's data processing and validation procedures.
#
#######################################################################

data_BOCTOE03
_chemical_formula_moiety         '(C3 H10 Mn2 N19 1-)n'
_symmetry_cell_setting           monoclinic
_symmetry_space_group_name_H-M   'P 21/c'
_symmetry_Int_Tables_number      14
_space_group_name_Hall           '-P 2ybc'
loop_
_symmetry_equiv_pos_site_id
_symmetry_equiv_pos_as_xyz
1 x,y,z
2 -x,1/2+y,1/2-z
3 -x,-y,-z
4 x,1/2-y,1/2+z
_cell_length_a                   8.464(6)
_cell_length_b                   9.324(5)
_cell_length_c                   12.882(7)
_cell_angle_alpha                90
_cell_angle_beta                 105.466(14)
_cell_angle_gamma                90
_cell_volume                     979.813
loop_
_atom_site_label
_atom_site_type_symbol
_atom_site_fract_x
_atom_site_fract_y
_atom_site_fract_z
Mn1 Mn 0.25567(3) 0.74878(2) 0.009070(19)
N1 N 0.3192(2) 0.7965(2) 0.18576(13)
N2 N 0.26524(16) 0.79781(18) 0.26021(10)
N3 N 0.2122(2) 0.8039(2) 0.33465(13)
N4 N 0.0418(2) 0.61941(17) 0.01519(14)
N5 N 0.0000 0.5000 0.0000
N6 N 0.1037(2) 0.94455(18) -0.02965(14)
N7 N 0.0000 1.0000 0.0000
N8 N 0.47881(19) 0.87657(17) 0.00673(14)
N9 N 0.5000 1.0000 0.0000
N10 N 0.4263(2) 0.56029(18) 0.05178(13)
N11 N 0.5000 0.5000 0.0000
N4B N -0.0418(2) 0.38059(17) -0.01519(14)
N6B N -0.1037(2) 1.05545(18) 0.02965(14)
N8B N 0.52119(19) 1.12343(17) -0.00673(14)
N10B N 0.5737(2) 0.43971(18) -0.05178(13)
Mn1B Mn -0.25567(3) 0.25122(2) -0.009070(19)
N1B N -0.3192(2) 0.2035(2) -0.18576(13)
N2B N -0.26524(16) 0.20219(18) -0.26021(10)
N3B N -0.2122(2) 0.1961(2) -0.33465(13)
Mn1A Mn -0.25567(3) 0.24878(2) -0.509070(19)
Mn1B_2 Mn -0.25567(3) 1.25122(2) -0.009070(19)
Mn1B_3 Mn 0.74433(3) 0.25122(2) -0.009070(19)
Mn1B_4 Mn 0.74433(3) 1.25122(2) -0.009070(19)
Mn1C Mn 0.25567(3) 0.75122(2) 0.509070(19)
N3A N -0.2122(2) 0.3039(2) 0.16535(13)
N3C N 0.2122(2) 0.6961(2) -0.16535(13)
N6B_2 N -0.1037(2) 0.05545(18) 0.02965(14)
N8B_2 N -0.47881(19) 0.12343(17) -0.00673(14)
N10B_2 N -0.4263(2) 0.43971(18) -0.05178(13)
N12 N 0.7069(2) 0.77075(18) 0.22666(15)
H1 H 0.6047 0.7708 0.1805
C1 C 0.8161(3) 0.6986(3) 0.1722(2)
H2 H 0.9247 0.6942 0.2196
H3 H 0.8181 0.7510 0.1084
H4 H 0.7769 0.6030 0.1527
C2 C 0.7554(3) 0.9213(3) 0.24992(14)
H5 H 0.6800 0.9672 0.2832
H6 H 0.7542 0.9698 0.1840
H7 H 0.8639 0.9251 0.2977
C3 C 0.6963(3) 0.6960(3) 0.3254(2)
H8 H 0.8026 0.6939 0.3760
H9 H 0.6585 0.5997 0.3079
H10 H 0.6209 0.7458 0.3566
loop_
_geom_bond_atom_site_label_1
_geom_bond_atom_site_label_2
_geom_bond_site_symmetry_1
_geom_bond_site_symmetry_2
Mn1 N1 1_555 1_555
N1 N2 1_555 1_555
N2 N3 1_555 1_555
N3 Mn1C 1_555 1_555
N4 Mn1 1_555 1_555
N5 N4 1_555 1_555
N6 Mn1 1_555 1_555
N7 N6 1_555 1_555
N8 Mn1 1_555 1_555
N9 N8 1_555 1_555
N10 Mn1 1_555 1_555
N11 N10 1_555 1_555
N12 H1 1_555 1_555
C1 N12 1_555 1_555
H2 C1 1_555 1_555
H3 C1 1_555 1_555
H4 C1 1_555 1_555
C2 N12 1_555 1_555
H5 C2 1_555 1_555
H6 C2 1_555 1_555
H7 C2 1_555 1_555
C3 N12 1_555 1_555
H8 C3 1_555 1_555
H9 C3 1_555 1_555
H10 C3 1_555 1_555
N4B N5 1_555 1_555
N6B N7 1_555 1_555
N8B N9 1_555 1_555
N10B N11 1_555 1_555
Mn1B N4B 1_555 1_555
N1B Mn1B 1_555 1_555
N2B N1B 1_555 1_555
N3B N2B 1_555 1_555
Mn1A N3B 1_555 1_555
Mn1B_2 N6B 1_555 1_555
Mn1B_3 N10B 1_555 1_555
Mn1B_4 N8B 1_555 1_555
N3A Mn1B 1_555 1_555
N3C Mn1 1_555 1_555
N6B_2 Mn1B 1_555 1_555
N8B_2 Mn1B 1_555 1_555
N10B_2 Mn1B 1_555 1_555

#END
