
#######################################################################
#
#                 Cambridge Crystallographic Data Centre
#                                CCDC 
#
#######################################################################
#
# If this CIF has been generated from an entry in the Cambridge 
# Structural Database, then it will include bibliographic, chemical, 
# crystal, experimental, refinement or atomic coordinate data resulting 
# from the CCDC's data processing and validation procedures.
#
#######################################################################

data_IHABAW
_chemical_formula_moiety         '(C176 H148 N12 O42 Zn8 3+)n'
_symmetry_cell_setting           rhombohedral
_symmetry_space_group_name_H-M   'R 3 2'
_symmetry_Int_Tables_number      155
_space_group_name_Hall           'R 3 2"'
loop_
_symmetry_equiv_pos_site_id
_symmetry_equiv_pos_as_xyz
1 x,y,z
2 -y,x-y,z
3 -x+y,-x,z
4 y,x,-z
5 x-y,-y,-z
6 -x,-x+y,-z
7 2/3+x,1/3+y,1/3+z
8 2/3-y,1/3+x-y,1/3+z
9 2/3-x+y,1/3-x,1/3+z
10 2/3+y,1/3+x,1/3-z
11 2/3+x-y,1/3-y,1/3-z
12 2/3-x,1/3-x+y,1/3-z
13 1/3+x,2/3+y,2/3+z
14 1/3-y,2/3+x-y,2/3+z
15 1/3-x+y,2/3-x,2/3+z
16 1/3+y,2/3+x,2/3-z
17 1/3+x-y,2/3-y,2/3-z
18 1/3-x,2/3-x+y,2/3-z
_cell_length_a                   33.030(4)
_cell_length_b                   33.030(4)
_cell_length_c                   28.099(4)
_cell_angle_alpha                90
_cell_angle_beta                 90
_cell_angle_gamma                120
_cell_volume                     26548.4
loop_
_atom_site_label
_atom_site_type_symbol
_atom_site_fract_x
_atom_site_fract_y
_atom_site_fract_z
O6 O 0.5166(14) 0.4854(16) 0.3310(10)
O7 O 0.5326(8) 0.5823(9) 0.3580(10)
O8 O 0.5621(7) 0.6581(6) 0.3037(7)
O9 O 0.5823(11) 0.6691(12) 0.1985(11)
O10 O 0.6801(15) 0.664(2) 0.1506(16)
O11 O 0.7193(13) 0.5953(14) 0.2190(13)
O12 O 0.6552(11) 0.5061(11) 0.2278(10)
O13 O 0.5652(16) 0.4456(15) 0.2827(14)
C25 C 0.5040(15) 0.5001(12) 0.3713(17)
H15 H 0.5011 0.4787 0.3975
H16 H 0.4725 0.4956 0.3658
C26 C 0.5347(15) 0.5494(12) 0.3890(14)
H17 H 0.5244 0.5525 0.4213
H18 H 0.5674 0.5561 0.3913
C27 C 0.5528(12) 0.6271(10) 0.3786(11)
H19 H 0.5869 0.6400 0.3825
H20 H 0.5390 0.6250 0.4104
C28 C 0.5442(11) 0.6581(11) 0.3478(10)
H21 H 0.5102 0.6465 0.3455
H22 H 0.5597 0.6901 0.3610
C29 C 0.5560(15) 0.6876(12) 0.2717(11)
H23 H 0.5591 0.7148 0.2896
H24 H 0.5237 0.6703 0.2591
C30 C 0.5885(15) 0.7048(13) 0.2313(13)
H25 H 0.5845 0.7287 0.2141
H26 H 0.6210 0.7202 0.2436
C31 C 0.6161(17) 0.685(2) 0.1603(16)
H27 H 0.6180 0.7130 0.1464
H28 H 0.6033 0.6602 0.1353
C32 C 0.6645(15) 0.6953(17) 0.171(2)
H29 H 0.6861 0.7273 0.1590
H30 H 0.6681 0.6956 0.2055
C33 C 0.6964(17) 0.6462(18) 0.1871(17)
H31 H 0.6775 0.6423 0.2159
H32 H 0.7290 0.6704 0.1946
C34 C 0.6962(14) 0.6017(18) 0.1796(16)
H33 H 0.6637 0.5754 0.1774
H34 H 0.7127 0.6031 0.1497
C35 C 0.7363(16) 0.5636(17) 0.215(2)
H35 H 0.7685 0.5773 0.2273
H36 H 0.7357 0.5541 0.1812
C36 C 0.7029(13) 0.5240(15) 0.2440(19)
H37 H 0.7107 0.4987 0.2425
H38 H 0.7055 0.5342 0.2775
C37 C 0.6351(14) 0.4578(13) 0.2367(18)
H39 H 0.6499 0.4537 0.2655
H40 H 0.6427 0.4435 0.2097
C38 C 0.5839(15) 0.4320(17) 0.2436(19)
H41 H 0.5693 0.4349 0.2140
H42 H 0.5739 0.3985 0.2476
C39 C 0.5180(18) 0.435(2) 0.2733(19)
H43 H 0.5002 0.4021 0.2611
H44 H 0.5185 0.4555 0.2478
C40 C 0.493(2) 0.4388(15) 0.315(2)
H45 H 0.4603 0.4297 0.3059
H46 H 0.4913 0.4177 0.3408
O6J O 0.6979(21) 0.8479(16) 0.0023(10)
O7J O 0.6170(12) 0.7510(9) -0.0247(10)
O8J O 0.5707(9) 0.6752(6) 0.0296(7)
O9J O 0.5799(16) 0.6642(12) 0.1348(11)
O10J O 0.6828(25) 0.669(2) 0.1827(16)
O11J O 0.7907(19) 0.7380(14) 0.1143(13)
O12J O 0.8158(16) 0.8272(11) 0.1055(10)
O13J O 0.7863(22) 0.8877(15) 0.0506(14)
C25J C 0.6706(19) 0.8332(12) -0.0380(17)
H15J H 0.6891 0.8546 -0.0642
H16J H 0.6436 0.8377 -0.0325
C26J C 0.6520(19) 0.7839(12) -0.0557(14)
H17J H 0.6386 0.7808 -0.0880
H18J H 0.6780 0.7772 -0.0580
C27J C 0.5924(16) 0.7062(10) -0.0453(11)
H19J H 0.6136 0.6933 -0.0492
H20J H 0.5807 0.7083 -0.0771
C28J C 0.5528(16) 0.6752(11) -0.0145(10)
H21J H 0.5304 0.6868 -0.0122
H22J H 0.5363 0.6432 -0.0277
C29J C 0.5351(19) 0.6457(12) 0.0616(11)
H23J H 0.5110 0.6185 0.0437
H24J H 0.5201 0.6630 0.0742
C30J C 0.5504(20) 0.6285(13) 0.1020(13)
H25J H 0.5225 0.6046 0.1192
H26J H 0.5675 0.6131 0.0897
C31J C 0.5978(26) 0.648(2) 0.1730(16)
H27J H 0.5717 0.6203 0.1869
H28J H 0.6098 0.6731 0.1980
C32J C 0.6359(23) 0.6380(17) 0.162(2)
H29J H 0.6255 0.6060 0.1743
H30J H 0.6392 0.6377 0.1278
C33J C 0.7169(25) 0.6871(18) 0.1462(17)
H31J H 0.7019 0.6910 0.1174
H32J H 0.7253 0.6629 0.1387
C34J C 0.7612(23) 0.7316(18) 0.1537(16)
H33J H 0.7550 0.7579 0.1559
H34J H 0.7763 0.7302 0.1836
C35J C 0.8394(23) 0.7697(17) 0.118(2)
H35J H 0.8579 0.7560 0.1060
H36J H 0.8483 0.7792 0.1521
C36J C 0.8456(20) 0.8093(15) 0.0893(19)
H37J H 0.8787 0.8346 0.0908
H38J H 0.8380 0.7991 0.0558
C37J C 0.8440(19) 0.8755(13) 0.0966(18)
H39J H 0.8629 0.8796 0.0678
H40J H 0.8659 0.8898 0.1236
C38J C 0.8186(23) 0.9013(17) 0.0897(19)
H41J H 0.8011 0.8984 0.1193
H42J H 0.8421 0.9348 0.0857
C39J C 0.7497(27) 0.898(2) 0.0600(19)
H43J H 0.7648 0.9312 0.0722
H44J H 0.7297 0.8778 0.0855
C40J C 0.7209(25) 0.8945(15) 0.018(2)
H45J H 0.6973 0.9036 0.0274
H46J H 0.7403 0.9156 -0.0075
Zn1 Zn 0.6667 0.3333 -0.02709(7)
Zn2 Zn 0.60366(4) 0.30586(5) 0.06652(5)
O1 O 0.6901(3) 0.3954(2) -0.0552(3)
O2 O 0.9165(5) 0.9122(5) -0.2399(6)
O3 O 0.7245(5) 0.4358(3) 0.0091(4)
O4 O 0.9844(6) 0.9055(4) -0.2434(6)
O5 O 0.6667 0.3333 0.0411(4)
N1 N 0.7554(4) 0.6475(3) -0.0740(4)
H1 H 0.7363 0.6239 -0.0558
N2 N 0.7927(4) 0.7180(4) -0.1047(5)
H2 H 0.8031 0.7479 -0.1096
C1 C 0.7140(5) 0.4322(4) -0.0321(6)
C2 C 0.7304(4) 0.4772(2) -0.0598(4)
C3 C 0.7538(4) 0.5189(3) -0.0346(4)
H3 H 0.7584 0.5185 -0.0013
C4 C 0.7704(4) 0.5613(2) -0.0582(4)
H4 H 0.7864 0.5899 -0.0410
C5 C 0.7637(4) 0.5620(3) -0.1070(4)
C6 C 0.7402(5) 0.5203(4) -0.1321(3)
H5 H 0.7356 0.5207 -0.1655
C7 C 0.7236(4) 0.4779(3) -0.1085(4)
H6 H 0.7076 0.4493 -0.1257
C8 C 0.7850(5) 0.6098(3) -0.1302(5)
C9 C 0.7808(4) 0.6458(3) -0.1096(4)
C10 C 0.8029(5) 0.6900(3) -0.1302(5)
C11 C 0.8291(6) 0.6982(3) -0.1714(6)
C12 C 0.8333(7) 0.6622(4) -0.1921(5)
H7 H 0.8512 0.6678 -0.2202
C13 C 0.8112(6) 0.6180(4) -0.1714(5)
H8 H 0.8141 0.5934 -0.1855
C14 C 0.8561(5) 0.7470(3) -0.1946(7)
C15 C 0.9029(5) 0.7650(4) -0.2066(8)
H9 H 0.9167 0.7458 -0.2043
C16 C 0.9294(5) 0.8111(4) -0.2218(7)
H10 H 0.9613 0.8234 -0.2300
C17 C 0.9091(6) 0.8391(3) -0.2251(6)
C18 C 0.8624(6) 0.8211(4) -0.2132(6)
H11 H 0.8486 0.8403 -0.2154
C19 C 0.8359(4) 0.7751(4) -0.1979(6)
H12 H 0.8039 0.7627 -0.1898
C20 C 0.9418(10) 0.8901(6) -0.2422(11)
C21 C 0.7640(6) 0.6915(5) -0.0708(7)
C22 C 0.7441(5) 0.7080(5) -0.0338(6)
C23 C 0.6999(5) 0.6824(5) -0.0168(6)
H13 H 0.6805 0.6515 -0.0283
C24 C 0.7696(6) 0.7550(6) -0.0174(8)
H14 H 0.7982 0.7762 -0.0326
O1C O 0.3954(2) 0.6901(3) 0.0552(3)
O2C O 0.9122(5) 0.9165(5) 0.2399(6)
O3C O 0.4358(3) 0.7245(5) -0.0091(4)
O4C O 0.9055(4) 0.9844(6) 0.2434(6)
N1C N 0.6475(3) 0.7554(4) 0.0740(4)
H1C H 0.6239 0.7363 0.0558
N2C N 0.7180(4) 0.7927(4) 0.1047(5)
H2C H 0.7479 0.8031 0.1096
C1C C 0.4322(4) 0.7140(5) 0.0321(6)
C2C C 0.4772(2) 0.7304(4) 0.0598(4)
C3C C 0.5189(3) 0.7538(4) 0.0346(4)
H3C H 0.5185 0.7584 0.0013
C4C C 0.5613(2) 0.7704(4) 0.0582(4)
H4C H 0.5899 0.7864 0.0410
C5C C 0.5620(3) 0.7637(4) 0.1070(4)
C6C C 0.5203(4) 0.7402(5) 0.1321(3)
H5C H 0.5207 0.7356 0.1655
C7C C 0.4779(3) 0.7236(4) 0.1085(4)
H6C H 0.4493 0.7076 0.1257
C8C C 0.6098(3) 0.7850(5) 0.1302(5)
C9C C 0.6458(3) 0.7808(4) 0.1096(4)
C10C C 0.6900(3) 0.8029(5) 0.1302(5)
C11C C 0.6982(3) 0.8291(6) 0.1714(6)
C12C C 0.6622(4) 0.8333(7) 0.1921(5)
H7C H 0.6678 0.8512 0.2202
C13C C 0.6180(4) 0.8112(6) 0.1714(5)
H8C H 0.5934 0.8141 0.1855
C14C C 0.7470(3) 0.8561(5) 0.1946(7)
C15C C 0.7650(4) 0.9029(5) 0.2066(8)
H9C H 0.7458 0.9167 0.2043
C16C C 0.8111(4) 0.9294(5) 0.2218(7)
H10C H 0.8234 0.9613 0.2300
C17C C 0.8391(3) 0.9091(6) 0.2251(6)
C18C C 0.8211(4) 0.8624(6) 0.2132(6)
H11C H 0.8403 0.8486 0.2154
C19C C 0.7751(4) 0.8359(4) 0.1979(6)
H12C H 0.7627 0.8039 0.1898
C20C C 0.8901(6) 0.9418(10) 0.2422(11)
C21C C 0.6915(5) 0.7640(6) 0.0708(7)
C22C C 0.7080(5) 0.7441(5) 0.0338(6)
C23C C 0.6824(5) 0.6999(5) 0.0168(6)
H13C H 0.6515 0.6805 0.0283
C24C C 0.7550(6) 0.7696(6) 0.0174(8)
H14C H 0.7762 0.7982 0.0326
Zn2A Zn 0.69414(5) 0.29780(6) 0.06652(5)
Zn2B Zn 0.70220(6) 0.39634(4) 0.06652(5)
Zn2J Zn 0.96447(6) 1.02747(5) 0.26681(5)
O1B O 0.7053(4) 1.3099(3) -0.0552(3)
O2B O 0.9957(7) 1.0835(5) -0.2399(6)
O3B O 0.7113(6) 1.2755(5) 0.0091(4)
O4B O 0.9211(7) 1.0156(6) -0.2434(6)
N1B N 0.8921(5) 1.2446(4) -0.0740(4)
H1B H 0.8876 1.2637 -0.0558
N2B N 0.9253(6) 1.2073(4) -0.1047(5)
H2B H 0.9448 1.1969 -0.1096
C1B C 0.7182(6) 1.2860(5) -0.0321(6)
C2B C 0.7468(4) 1.2696(4) -0.0598(4)
C3B C 0.7651(5) 1.2462(4) -0.0346(4)
H3B H 0.7601 1.2416 -0.0013
C4B C 0.7909(4) 1.2296(4) -0.0582(4)
H4B H 0.8035 1.2136 -0.0410
C5B C 0.7983(5) 1.2363(4) -0.1070(4)
C6B C 0.7801(6) 1.2598(5) -0.1321(3)
H5B H 0.7851 1.2644 -0.1655
C7B C 0.7543(5) 1.2764(4) -0.1085(4)
H6B H 0.7417 1.2924 -0.1257
C8B C 0.8248(6) 1.2150(5) -0.1302(5)
C9B C 0.8650(5) 1.2192(4) -0.1096(4)
C10B C 0.8871(6) 1.1971(5) -0.1302(5)
C11B C 0.8691(7) 1.1709(6) -0.1714(6)
C12B C 0.8289(8) 1.1667(7) -0.1921(5)
H7B H 0.8166 1.1488 -0.2202
C13B C 0.8068(7) 1.1888(6) -0.1714(5)
H8B H 0.7793 1.1859 -0.1855
C14B C 0.8909(6) 1.1439(5) -0.1946(7)
C15B C 0.8621(6) 1.0971(5) -0.2066(8)
H9B H 0.8291 1.0833 -0.2043
C16B C 0.8817(6) 1.0706(5) -0.2218(7)
H10B H 0.8621 1.0387 -0.2300
C17B C 0.9300(7) 1.0909(6) -0.2251(6)
C18B C 0.9587(7) 1.1376(6) -0.2132(6)
H11B H 0.9917 1.1514 -0.2154
C19B C 0.9392(6) 1.1641(4) -0.1979(6)
H12B H 0.9588 1.1961 -0.1898
C20B C 0.9483(12) 1.0582(10) -0.2422(11)
C21B C 0.9275(8) 1.2360(6) -0.0708(7)
C22B C 0.9639(7) 1.2559(5) -0.0338(6)
C23B C 0.9825(7) 1.3001(5) -0.0168(6)
H13B H 0.9710 1.3195 -0.0283
C24B C 0.9854(8) 1.2304(6) -0.0174(8)
H14B H 0.9780 1.2018 -0.0326
O1D O 1.2947(4) 1.6046(2) 0.0552(3)
O2D O 1.0043(7) 1.0878(5) 0.2399(6)
O3D O 1.2887(6) 1.5642(3) -0.0091(4)
O4D O 1.0789(7) 1.0945(4) 0.2434(6)
N1D N 1.1079(5) 1.3525(3) 0.0740(4)
H1D H 1.1124 1.3761 0.0558
N2D N 1.0747(6) 1.2820(4) 0.1047(5)
H2D H 1.0552 1.2521 0.1096
C1D C 1.2818(6) 1.5678(4) 0.0321(6)
C2D C 1.2532(4) 1.5228(2) 0.0598(4)
C3D C 1.2349(5) 1.4811(3) 0.0346(4)
H3D H 1.2399 1.4815 0.0013
C4D C 1.2091(4) 1.4387(2) 0.0582(4)
H4D H 1.1965 1.4101 0.0410
C5D C 1.2017(5) 1.4380(3) 0.1070(4)
C6D C 1.2199(6) 1.4797(4) 0.1321(3)
H5D H 1.2149 1.4793 0.1655
C7D C 1.2457(5) 1.5221(3) 0.1085(4)
H6D H 1.2583 1.5507 0.1257
C8D C 1.1752(6) 1.3902(3) 0.1302(5)
C9D C 1.1350(5) 1.3542(3) 0.1096(4)
C10D C 1.1129(6) 1.3100(3) 0.1302(5)
C11D C 1.1309(7) 1.3018(3) 0.1714(6)
C12D C 1.1711(8) 1.3378(4) 0.1921(5)
H7D H 1.1834 1.3322 0.2202
C13D C 1.1932(7) 1.3820(4) 0.1714(5)
H8D H 1.2207 1.4066 0.1855
C14D C 1.1091(6) 1.2530(3) 0.1946(7)
C15D C 1.1379(6) 1.2350(4) 0.2066(8)
H9D H 1.1709 1.2542 0.2043
C16D C 1.1183(6) 1.1889(4) 0.2218(7)
H10D H 1.1379 1.1766 0.2300
C17D C 1.0700(7) 1.1609(3) 0.2251(6)
C18D C 1.0413(7) 1.1789(4) 0.2132(6)
H11D H 1.0083 1.1597 0.2154
C19D C 1.0608(6) 1.2249(4) 0.1979(6)
H12D H 1.0412 1.2373 0.1898
C20D C 1.0517(12) 1.1099(6) 0.2422(11)
C21D C 1.0725(8) 1.3085(5) 0.0708(7)
C22D C 1.0361(7) 1.2920(5) 0.0338(6)
C23D C 1.0175(7) 1.3176(5) 0.0168(6)
H13D H 1.0290 1.3485 0.0283
C24D C 1.0146(8) 1.2450(6) 0.0174(8)
H14D H 1.0220 1.2238 0.0326
O1B_2 O 0.7053(4) 0.3099(3) -0.0552(3)
O2B_2 O 0.9957(7) 0.0835(5) -0.2399(6)
O3B_2 O 0.7113(6) 0.2755(5) 0.0091(4)
O4B_2 O 0.9211(7) 0.0156(6) -0.2434(6)
N1B_2 N 0.8921(5) 0.2446(4) -0.0740(4)
H1B_2 H 0.8876 0.2637 -0.0558
N2B_2 N 0.9253(6) 0.2073(4) -0.1047(5)
H2B_2 H 0.9448 0.1969 -0.1096
C1B_2 C 0.7182(6) 0.2860(5) -0.0321(6)
C2B_2 C 0.7468(4) 0.2696(4) -0.0598(4)
C3B_2 C 0.7651(5) 0.2462(4) -0.0346(4)
H3B_2 H 0.7601 0.2416 -0.0013
C4B_2 C 0.7909(4) 0.2296(4) -0.0582(4)
H4B_2 H 0.8035 0.2136 -0.0410
C5B_2 C 0.7983(5) 0.2363(4) -0.1070(4)
C6B_2 C 0.7801(6) 0.2598(5) -0.1321(3)
H5B_2 H 0.7851 0.2644 -0.1655
C7B_2 C 0.7543(5) 0.2764(4) -0.1085(4)
H6B_2 H 0.7417 0.2924 -0.1257
C8B_2 C 0.8248(6) 0.2150(5) -0.1302(5)
C9B_2 C 0.8650(5) 0.2192(4) -0.1096(4)
C10B_2 C 0.8871(6) 0.1971(5) -0.1302(5)
C11B_2 C 0.8691(7) 0.1709(6) -0.1714(6)
C12B_2 C 0.8289(8) 0.1667(7) -0.1921(5)
H7B_2 H 0.8166 0.1488 -0.2202
C13B_2 C 0.8068(7) 0.1888(6) -0.1714(5)
H8B_2 H 0.7793 0.1859 -0.1855
C14B_2 C 0.8909(6) 0.1439(5) -0.1946(7)
C15B_2 C 0.8621(6) 0.0971(5) -0.2066(8)
H9B_2 H 0.8291 0.0833 -0.2043
C16B_2 C 0.8817(6) 0.0706(5) -0.2218(7)
H10B_2 H 0.8621 0.0387 -0.2300
C17B_2 C 0.9300(7) 0.0909(6) -0.2251(6)
C18B_2 C 0.9587(7) 0.1376(6) -0.2132(6)
H11B_2 H 0.9917 0.1514 -0.2154
C19B_2 C 0.9392(6) 0.1641(4) -0.1979(6)
H12B_2 H 0.9588 0.1961 -0.1898
C20B_2 C 0.9483(12) 0.0582(10) -0.2422(11)
C21B_2 C 0.9275(8) 0.2360(6) -0.0708(7)
C22B_2 C 0.9639(7) 0.2559(5) -0.0338(6)
C23B_2 C 0.9825(7) 0.3001(5) -0.0168(6)
H13B_2 H 0.9710 0.3195 -0.0283
C24B_2 C 0.9854(8) 0.2304(6) -0.0174(8)
H14B_2 H 0.9780 0.2018 -0.0326
O1D_2 O 1.2947(4) 0.6046(2) 0.0552(3)
O2D_2 O 1.0043(7) 0.0878(5) 0.2399(6)
O3D_2 O 1.2887(6) 0.5642(3) -0.0091(4)
O4D_2 O 1.0789(7) 0.0945(4) 0.2434(6)
N1D_2 N 1.1079(5) 0.3525(3) 0.0740(4)
H1D_2 H 1.1124 0.3761 0.0558
N2D_2 N 1.0747(6) 0.2820(4) 0.1047(5)
H2D_2 H 1.0552 0.2521 0.1096
C1D_2 C 1.2818(6) 0.5678(4) 0.0321(6)
C2D_2 C 1.2532(4) 0.5228(2) 0.0598(4)
C3D_2 C 1.2349(5) 0.4811(3) 0.0346(4)
H3D_2 H 1.2399 0.4815 0.0013
C4D_2 C 1.2091(4) 0.4387(2) 0.0582(4)
H4D_2 H 1.1965 0.4101 0.0410
C5D_2 C 1.2017(5) 0.4380(3) 0.1070(4)
C6D_2 C 1.2199(6) 0.4797(4) 0.1321(3)
H5D_2 H 1.2149 0.4793 0.1655
C7D_2 C 1.2457(5) 0.5221(3) 0.1085(4)
H6D_2 H 1.2583 0.5507 0.1257
C8D_2 C 1.1752(6) 0.3902(3) 0.1302(5)
C9D_2 C 1.1350(5) 0.3542(3) 0.1096(4)
C10D_2 C 1.1129(6) 0.3100(3) 0.1302(5)
C11D_2 C 1.1309(7) 0.3018(3) 0.1714(6)
C12D_2 C 1.1711(8) 0.3378(4) 0.1921(5)
H7D_2 H 1.1834 0.3322 0.2202
C13D_2 C 1.1932(7) 0.3820(4) 0.1714(5)
H8D_2 H 1.2207 0.4066 0.1855
C14D_2 C 1.1091(6) 0.2530(3) 0.1946(7)
C15D_2 C 1.1379(6) 0.2350(4) 0.2066(8)
H9D_2 H 1.1709 0.2542 0.2043
C16D_2 C 1.1183(6) 0.1889(4) 0.2218(7)
H10D_2 H 1.1379 0.1766 0.2300
C17D_2 C 1.0700(7) 0.1609(3) 0.2251(6)
C18D_2 C 1.0413(7) 0.1789(4) 0.2132(6)
H11D_2 H 1.0083 0.1597 0.2154
C19D_2 C 1.0608(6) 0.2249(4) 0.1979(6)
H12D_2 H 1.0412 0.2373 0.1898
C20D_2 C 1.0517(12) 0.1099(6) 0.2422(11)
C21D_2 C 1.0725(8) 0.3085(5) 0.0708(7)
C22D_2 C 1.0361(7) 0.2920(5) 0.0338(6)
C23D_2 C 1.0175(7) 0.3176(5) 0.0168(6)
H13D_2 H 1.0290 0.3485 0.0283
C24D_2 C 1.0146(8) 0.2450(6) 0.0174(8)
H14D_2 H 1.0220 0.2238 0.0326
Zn1C Zn 0.3333 0.6667 0.02709(7)
O5C O 0.3333 0.6667 -0.0411(4)
Zn2L Zn 0.93699(4) 0.97253(5) -0.26681(5)
Zn2M Zn 1.02747(5) 0.96447(6) -0.26681(5)
Zn1_2 Zn 0.6667 1.3333 -0.02709(7)
Zn1C_2 Zn 1.3333 0.6667 0.02709(7)
Zn1C_3 Zn 1.3333 1.6667 0.02709(7)
Zn2A_2 Zn 0.69414(5) 1.29780(6) 0.06652(5)
Zn2C Zn 0.30586(5) 0.60366(4) -0.06652(5)
Zn2C_2 Zn 1.30586(5) 0.60366(4) -0.06652(5)
Zn2C_3 Zn 1.30586(5) 1.60366(4) -0.06652(5)
Zn2D Zn 0.29780(6) 0.69414(5) -0.06652(5)
Zn2E Zn 0.39634(4) 0.70220(6) -0.06652(5)
Zn2I Zn 0.97253(5) 0.93699(4) 0.26681(5)
Zn2J_2 Zn 0.96447(6) 0.02747(5) 0.26681(5)
Zn2K Zn 1.06301(4) 0.03553(6) 0.26681(5)
Zn2K_2 Zn 1.06301(4) 1.03553(6) 0.26681(5)
Zn2L_2 Zn 0.93699(4) -0.02747(5) -0.26681(5)
Zn2N Zn 1.03553(6) 0.06301(4) -0.26681(5)
Zn2N_2 Zn 1.03553(6) 1.06301(4) -0.26681(5)
O1A O 0.6046(2) 0.2947(4) -0.0552(3)
O1D_3 O 0.2947(4) 0.6046(2) 0.0552(3)
O1E O 0.3099(3) 0.7053(4) 0.0552(3)
O2A O 1.0878(5) 1.0043(7) -0.2399(6)
O2F O 0.5832(5) 0.2455(5) 0.0934(6)
O2G O 0.7545(5) 0.3376(7) 0.0934(6)
O2H O 0.6624(7) 0.4168(5) 0.0934(6)
O3A O 0.5642(3) 0.2887(6) 0.0091(4)
O3K O 0.9422(5) 1.0446(6) 0.3242(4)
O3M O 0.8975(3) 0.9554(6) -0.3242(4)
O3N O 1.0446(6) 0.9422(5) -0.3242(4)
O4F O 0.6511(6) 0.2388(4) 0.0899(6)
O4G O 0.7612(4) 0.4122(7) 0.0899(6)
O4H O 0.5878(7) 0.3489(6) 0.0899(6)
O5I O 1.0000 1.0000 0.2922(4)
O5L O 1.0000 1.0000 -0.2922(4)
loop_
_geom_bond_atom_site_label_1
_geom_bond_atom_site_label_2
_geom_bond_site_symmetry_1
_geom_bond_site_symmetry_2
Zn1 O1 1_555 1_555
Zn2 O5 1_555 1_555
O1 C1 1_555 1_555
O2 C20 1_555 1_555
O3 C1 1_555 1_555
O4 C20 1_555 1_555
O5 Zn1 1_555 1_555
N1 H1 1_555 1_555
N2 H2 1_555 1_555
C1 C2 1_555 1_555
C2 C3 1_555 1_555
C3 H3 1_555 1_555
C4 C3 1_555 1_555
H4 C4 1_555 1_555
C5 C4 1_555 1_555
C6 C5 1_555 1_555
H5 C6 1_555 1_555
C7 C2 1_555 1_555
H6 C7 1_555 1_555
C8 C5 1_555 1_555
C9 N1 1_555 1_555
C10 N2 1_555 1_555
C11 C10 1_555 1_555
C12 C11 1_555 1_555
H7 C12 1_555 1_555
C13 C8 1_555 1_555
H8 C13 1_555 1_555
C14 C11 1_555 1_555
C15 C14 1_555 1_555
H9 C15 1_555 1_555
C16 C15 1_555 1_555
H10 C16 1_555 1_555
C17 C16 1_555 1_555
C18 C17 1_555 1_555
H11 C18 1_555 1_555
C19 C14 1_555 1_555
H12 C19 1_555 1_555
C20 C17 1_555 1_555
C21 N1 1_555 1_555
C22 C21 1_555 1_555
C23 C22 1_555 1_555
H13 C23 1_555 1_555
C24 C22 1_555 1_555
H14 C24 1_555 1_555
O6 C25 1_555 1_555
O7 C26 1_555 1_555
O8 C28 1_555 1_555
O9 C30 1_555 1_555
O10 C32 1_555 1_555
O11 C34 1_555 1_555
O12 C36 1_555 1_555
O13 C38 1_555 1_555
C25 H15 1_555 1_555
H16 C25 1_555 1_555
C26 C25 1_555 1_555
H17 C26 1_555 1_555
H18 C26 1_555 1_555
C27 O7 1_555 1_555
H19 C27 1_555 1_555
H20 C27 1_555 1_555
C28 C27 1_555 1_555
H21 C28 1_555 1_555
H22 C28 1_555 1_555
C29 O8 1_555 1_555
H23 C29 1_555 1_555
H24 C29 1_555 1_555
C30 C29 1_555 1_555
H25 C30 1_555 1_555
H26 C30 1_555 1_555
C31 O9 1_555 1_555
H27 C31 1_555 1_555
H28 C31 1_555 1_555
C32 C31 1_555 1_555
H29 C32 1_555 1_555
H30 C32 1_555 1_555
C33 O10 1_555 1_555
H31 C33 1_555 1_555
H32 C33 1_555 1_555
C34 C33 1_555 1_555
H33 C34 1_555 1_555
H34 C34 1_555 1_555
C35 O11 1_555 1_555
H35 C35 1_555 1_555
H36 C35 1_555 1_555
C36 C35 1_555 1_555
H37 C36 1_555 1_555
H38 C36 1_555 1_555
C37 O12 1_555 1_555
H39 C37 1_555 1_555
H40 C37 1_555 1_555
C38 C37 1_555 1_555
H41 C38 1_555 1_555
H42 C38 1_555 1_555
C39 O13 1_555 1_555
H43 C39 1_555 1_555
H44 C39 1_555 1_555
C40 O6 1_555 1_555
H45 C40 1_555 1_555
H46 C40 1_555 1_555
O1C C1C 1_555 1_555
O2C C20C 1_555 1_555
O3C C1C 1_555 1_555
O4C C20C 1_555 1_555
N1C H1C 1_555 1_555
N2C H2C 1_555 1_555
C1C C2C 1_555 1_555
C2C C3C 1_555 1_555
C3C H3C 1_555 1_555
C4C C3C 1_555 1_555
H4C C4C 1_555 1_555
C5C C4C 1_555 1_555
C6C C5C 1_555 1_555
H5C C6C 1_555 1_555
C7C C2C 1_555 1_555
H6C C7C 1_555 1_555
C8C C5C 1_555 1_555
C9C N1C 1_555 1_555
C10C N2C 1_555 1_555
C11C C10C 1_555 1_555
C12C C11C 1_555 1_555
H7C C12C 1_555 1_555
C13C C8C 1_555 1_555
H8C C13C 1_555 1_555
C14C C11C 1_555 1_555
C15C C14C 1_555 1_555
H9C C15C 1_555 1_555
C16C C15C 1_555 1_555
H10C C16C 1_555 1_555
C17C C16C 1_555 1_555
C18C C17C 1_555 1_555
H11C C18C 1_555 1_555
C19C C14C 1_555 1_555
H12C C19C 1_555 1_555
C20C C17C 1_555 1_555
C21C N1C 1_555 1_555
C22C C21C 1_555 1_555
C23C C23 1_555 1_555
H13C C23C 1_555 1_555
C24C C24 1_555 1_555
H14C C24C 1_555 1_555
Zn2A O5 1_555 1_555
Zn2B O3 1_555 1_555
Zn2J O4C 1_555 1_555
O1B C1B 1_555 1_555
O2B C20B 1_555 1_555
O3B C1B 1_555 1_555
O4B C20B 1_555 1_555
N1B H1B 1_555 1_555
N2B H2B 1_555 1_555
C1B C2B 1_555 1_555
C2B C3B 1_555 1_555
C3B H3B 1_555 1_555
C4B C3B 1_555 1_555
H4B C4B 1_555 1_555
C5B C4B 1_555 1_555
C6B C5B 1_555 1_555
H5B C6B 1_555 1_555
C7B C2B 1_555 1_555
H6B C7B 1_555 1_555
C8B C5B 1_555 1_555
C9B N1B 1_555 1_555
C10B N2B 1_555 1_555
C11B C10B 1_555 1_555
C12B C11B 1_555 1_555
H7B C12B 1_555 1_555
C13B C8B 1_555 1_555
H8B C13B 1_555 1_555
C14B C11B 1_555 1_555
C15B C14B 1_555 1_555
H9B C15B 1_555 1_555
C16B C15B 1_555 1_555
H10B C16B 1_555 1_555
C17B C16B 1_555 1_555
C18B C17B 1_555 1_555
H11B C18B 1_555 1_555
C19B C14B 1_555 1_555
H12B C19B 1_555 1_555
C20B C17B 1_555 1_555
C21B N1B 1_555 1_555
C22B C21B 1_555 1_555
C23B C22B 1_555 1_555
H13B C23B 1_555 1_555
C24B C22B 1_555 1_555
H14B C24B 1_555 1_555
O1D C1D 1_555 1_555
O2D Zn2J 1_555 1_555
O3D C1D 1_555 1_555
O4D C20D 1_555 1_555
N1D H1D 1_555 1_555
N2D H2D 1_555 1_555
C1D C2D 1_555 1_555
C2D C3D 1_555 1_555
C3D H3D 1_555 1_555
C4D C3D 1_555 1_555
H4D C4D 1_555 1_555
C5D C4D 1_555 1_555
C6D C5D 1_555 1_555
H5D C6D 1_555 1_555
C7D C2D 1_555 1_555
H6D C7D 1_555 1_555
C8D C5D 1_555 1_555
C9D N1D 1_555 1_555
C10D N2D 1_555 1_555
C11D C10D 1_555 1_555
C12D C11D 1_555 1_555
H7D C12D 1_555 1_555
C13D C8D 1_555 1_555
H8D C13D 1_555 1_555
C14D C11D 1_555 1_555
C15D C14D 1_555 1_555
H9D C15D 1_555 1_555
C16D C15D 1_555 1_555
H10D C16D 1_555 1_555
C17D C16D 1_555 1_555
C18D C17D 1_555 1_555
H11D C18D 1_555 1_555
C19D C14D 1_555 1_555
H12D C19D 1_555 1_555
C20D O2D 1_555 1_555
C21D N1D 1_555 1_555
C22D C21D 1_555 1_555
C23D C23B 1_555 1_555
H13D C23D 1_555 1_555
C24D C24B 1_555 1_555
H14D C24D 1_555 1_555
O1B_2 Zn1 1_555 1_555
O2B_2 C20B_2 1_555 1_555
O3B_2 Zn2A 1_555 1_555
O4B_2 C20B_2 1_555 1_555
N1B_2 H1B_2 1_555 1_555
N2B_2 H2B_2 1_555 1_555
C1B_2 O1B_2 1_555 1_555
C2B_2 C1B_2 1_555 1_555
C3B_2 C2B_2 1_555 1_555
H3B_2 C3B_2 1_555 1_555
C4B_2 C3B_2 1_555 1_555
H4B_2 C4B_2 1_555 1_555
C5B_2 C4B_2 1_555 1_555
C6B_2 C5B_2 1_555 1_555
H5B_2 C6B_2 1_555 1_555
C7B_2 C2B_2 1_555 1_555
H6B_2 C7B_2 1_555 1_555
C8B_2 C5B_2 1_555 1_555
C9B_2 N1B_2 1_555 1_555
C10B_2 N2B_2 1_555 1_555
C11B_2 C10B_2 1_555 1_555
C12B_2 C11B_2 1_555 1_555
H7B_2 C12B_2 1_555 1_555
C13B_2 C8B_2 1_555 1_555
H8B_2 C13B_2 1_555 1_555
C14B_2 C11B_2 1_555 1_555
C15B_2 C14B_2 1_555 1_555
H9B_2 C15B_2 1_555 1_555
C16B_2 C15B_2 1_555 1_555
H10B_2 C16B_2 1_555 1_555
C17B_2 C16B_2 1_555 1_555
C18B_2 C17B_2 1_555 1_555
H11B_2 C18B_2 1_555 1_555
C19B_2 C14B_2 1_555 1_555
H12B_2 C19B_2 1_555 1_555
C20B_2 C17B_2 1_555 1_555
C21B_2 N1B_2 1_555 1_555
C22B_2 C21B_2 1_555 1_555
C23B_2 C22B_2 1_555 1_555
H13B_2 C23B_2 1_555 1_555
C24B_2 C22B_2 1_555 1_555
H14B_2 C24B_2 1_555 1_555
O1D_2 C1D_2 1_555 1_555
O2D_2 C20D_2 1_555 1_555
O3D_2 C1D_2 1_555 1_555
O4D_2 C20D_2 1_555 1_555
N1D_2 H1D_2 1_555 1_555
N2D_2 H2D_2 1_555 1_555
C1D_2 C2D_2 1_555 1_555
C2D_2 C3D_2 1_555 1_555
C3D_2 H3D_2 1_555 1_555
C4D_2 C3D_2 1_555 1_555
H4D_2 C4D_2 1_555 1_555
C5D_2 C4D_2 1_555 1_555
C6D_2 C5D_2 1_555 1_555
H5D_2 C6D_2 1_555 1_555
C7D_2 C2D_2 1_555 1_555
H6D_2 C7D_2 1_555 1_555
C8D_2 C5D_2 1_555 1_555
C9D_2 N1D_2 1_555 1_555
C10D_2 N2D_2 1_555 1_555
C11D_2 C10D_2 1_555 1_555
C12D_2 C11D_2 1_555 1_555
H7D_2 C12D_2 1_555 1_555
C13D_2 C8D_2 1_555 1_555
H8D_2 C13D_2 1_555 1_555
C14D_2 C11D_2 1_555 1_555
C15D_2 C14D_2 1_555 1_555
H9D_2 C15D_2 1_555 1_555
C16D_2 C15D_2 1_555 1_555
H10D_2 C16D_2 1_555 1_555
C17D_2 C16D_2 1_555 1_555
C18D_2 C17D_2 1_555 1_555
H11D_2 C18D_2 1_555 1_555
C19D_2 C14D_2 1_555 1_555
H12D_2 C19D_2 1_555 1_555
C20D_2 C17D_2 1_555 1_555
C21D_2 N1D_2 1_555 1_555
C22D_2 C21D_2 1_555 1_555
C23D_2 C23B_2 1_555 1_555
H13D_2 C23D_2 1_555 1_555
C24D_2 C24B_2 1_555 1_555
H14D_2 C24D_2 1_555 1_555
Zn1C O1C 1_555 1_555
O5C Zn1C 1_555 1_555
Zn2L O2 1_555 1_555
Zn2M O4 1_555 1_555
Zn1_2 O1B 1_555 1_555
Zn1C_2 O1D_2 1_555 1_555
Zn1C_3 O1D 1_555 1_555
Zn2A_2 O3B 1_555 1_555
Zn2C O5C 1_555 1_555
Zn2C_2 O3D_2 1_555 1_555
Zn2C_3 O3D 1_555 1_555
Zn2D O5C 1_555 1_555
Zn2E O3C 1_555 1_555
Zn2I O2C 1_555 1_555
Zn2J_2 O2D_2 1_555 1_555
Zn2K O4D_2 1_555 1_555
Zn2K_2 O4D 1_555 1_555
Zn2L_2 O4B_2 1_555 1_555
Zn2N O2B_2 1_555 1_555
Zn2N_2 O2B 1_555 1_555
O1A Zn1 1_555 1_555
O1D_3 Zn1C 1_555 1_555
O1E Zn1C 1_555 1_555
O2A Zn2M 1_555 1_555
O2F Zn2 1_555 1_555
O2G Zn2A 1_555 1_555
O2H Zn2B 1_555 1_555
O3A Zn2 1_555 1_555
O3K Zn2J 1_555 1_555
O3M Zn2L 1_555 1_555
O3N Zn2M 1_555 1_555
O4F Zn2A 1_555 1_555
O4G Zn2B 1_555 1_555
O4H Zn2 1_555 1_555
O5I Zn2J 1_555 1_555
O5L Zn2L 1_555 1_555
O6J C25J 1_555 1_555
O7J C26J 1_555 1_555
O8J C28J 1_555 1_555
O9J C30J 1_555 1_555
O10J C32J 1_555 1_555
O11J C34J 1_555 1_555
O12J C36J 1_555 1_555
O13J C38J 1_555 1_555
C25J H15J 1_555 1_555
H16J C25J 1_555 1_555
C26J C25J 1_555 1_555
H17J C26J 1_555 1_555
H18J C26J 1_555 1_555
C27J O7J 1_555 1_555
H19J C27J 1_555 1_555
H20J C27J 1_555 1_555
C28J C27J 1_555 1_555
H21J C28J 1_555 1_555
H22J C28J 1_555 1_555
C29J O8J 1_555 1_555
H23J C29J 1_555 1_555
H24J C29J 1_555 1_555
C30J C29J 1_555 1_555
H25J C30J 1_555 1_555
H26J C30J 1_555 1_555
C31J O9J 1_555 1_555
H27J C31J 1_555 1_555
H28J C31J 1_555 1_555
C32J C31J 1_555 1_555
H29J C32J 1_555 1_555
H30J C32J 1_555 1_555
C33J O10J 1_555 1_555
H31J C33J 1_555 1_555
H32J C33J 1_555 1_555
C34J C33J 1_555 1_555
H33J C34J 1_555 1_555
H34J C34J 1_555 1_555
C35J O11J 1_555 1_555
H35J C35J 1_555 1_555
H36J C35J 1_555 1_555
C36J C35J 1_555 1_555
H37J C36J 1_555 1_555
H38J C36J 1_555 1_555
C37J O12J 1_555 1_555
H39J C37J 1_555 1_555
H40J C37J 1_555 1_555
C38J C37J 1_555 1_555
H41J C38J 1_555 1_555
H42J C38J 1_555 1_555
C39J O13J 1_555 1_555
H43J C39J 1_555 1_555
H44J C39J 1_555 1_555
C40J O6J 1_555 1_555
H45J C40J 1_555 1_555
H46J C40J 1_555 1_555
O5 Zn2B 1_555 1_555
N2 C21 1_555 1_555
C6 C7 1_555 1_555
C8 C9 1_555 1_555
C9 C10 1_555 1_555
C12 C13 1_555 1_555
C18 C19 1_555 1_555
C39 C40 1_555 1_555
N2C C21C 1_555 1_555
C6C C7C 1_555 1_555
C8C C9C 1_555 1_555
C9C C10C 1_555 1_555
C12C C13C 1_555 1_555
C18C C19C 1_555 1_555
C22C C23C 1_555 1_555
C22C C24C 1_555 1_555
O4B Zn2L 1_555 1_555
N2B C21B 1_555 1_555
C6B C7B 1_555 1_555
C8B C9B 1_555 1_555
C9B C10B 1_555 1_555
C12B C13B 1_555 1_555
C18B C19B 1_555 1_555
N2D C21D 1_555 1_555
C6D C7D 1_555 1_555
C8D C9D 1_555 1_555
C9D C10D 1_555 1_555
C12D C13D 1_555 1_555
C17D C20D 1_555 1_555
C18D C19D 1_555 1_555
C22D C23D 1_555 1_555
C22D C24D 1_555 1_555
O3B_2 C1B_2 1_555 1_555
N2B_2 C21B_2 1_555 1_555
C6B_2 C7B_2 1_555 1_555
C8B_2 C9B_2 1_555 1_555
C9B_2 C10B_2 1_555 1_555
C12B_2 C13B_2 1_555 1_555
C18B_2 C19B_2 1_555 1_555
N2D_2 C21D_2 1_555 1_555
C6D_2 C7D_2 1_555 1_555
C8D_2 C9D_2 1_555 1_555
C9D_2 C10D_2 1_555 1_555
C12D_2 C13D_2 1_555 1_555
C18D_2 C19D_2 1_555 1_555
C22D_2 C23D_2 1_555 1_555
C22D_2 C24D_2 1_555 1_555
O5C Zn2E 1_555 1_555
Zn2M O5L 1_555 1_555
Zn2I O5I 1_555 1_555
Zn2K_2 O5I 1_555 1_555
Zn2N_2 O5L 1_555 1_555
C39J C40J 1_555 1_555

#END
