
#######################################################################
#
#                 Cambridge Crystallographic Data Centre
#                                CCDC 
#
#######################################################################
#
# If this CIF has been generated from an entry in the Cambridge 
# Structural Database, then it will include bibliographic, chemical, 
# crystal, experimental, refinement or atomic coordinate data resulting 
# from the CCDC's data processing and validation procedures.
#
#######################################################################

data_HAPVAX
_chemical_formula_moiety         '(C12 H13 Ce1 O23 U2)n'
_symmetry_cell_setting           orthorhombic
_symmetry_space_group_name_H-M   'P n m a'
_symmetry_Int_Tables_number      62
_space_group_name_Hall           '-P 2ac 2n'
loop_
_symmetry_equiv_pos_site_id
_symmetry_equiv_pos_as_xyz
1 x,y,z
2 1/2-x,-y,1/2+z
3 -x,1/2+y,-z
4 1/2+x,1/2-y,1/2-z
5 -x,-y,-z
6 1/2+x,y,1/2-z
7 x,1/2-y,z
8 1/2-x,1/2+y,1/2+z
_cell_length_a                   15.5887(5)
_cell_length_b                   11.6182(3)
_cell_length_c                   13.1134(3)
_cell_angle_alpha                90
_cell_angle_beta                 90
_cell_angle_gamma                90
_cell_volume                     2375
loop_
_atom_site_label
_atom_site_type_symbol
_atom_site_fract_x
_atom_site_fract_y
_atom_site_fract_z
U1 U 0.247000(14) 0.2500 0.657054(16)
Ce1 Ce 0.28635(2) 0.2500 0.93879(2)
U2 U 0.0000 0.0000 0.0000
O1 O 0.0768(2) 0.0747(3) 0.1426(3)
O2 O 0.1738(2) 0.1292(3) 0.0303(2)
O3 O 0.0035(2) 0.1296(3) -0.0688(3)
O4 O 0.3877(2) 0.0689(3) 0.3952(2)
O5 O 0.3411(3) 0.2500 0.7336(3)
O6 O 0.1779(3) 0.2500 0.8077(3)
O7 O 0.3145(2) 0.1319(3) 0.5276(2)
O8 O 0.3543(3) 0.1141(4) 1.0689(3)
O9 O 0.4454(4) 0.2500 0.9176(5)
O10 O 0.2614(2) -0.0470(3) 0.1993(2)
O11 O 0.2090(2) -0.0514(3) 0.3590(2)
C1 C 0.2314(3) 0.1298(3) 0.2811(3)
C2 C 0.2339(3) -0.0008(3) 0.2805(3)
C3 C 0.1908(2) 0.1898(3) 0.2029(3)
C4 C 0.1450(3) 0.1266(3) 0.1188(3)
C5 C 0.3272(3) 0.1259(3) 0.4337(3)
C6 C 0.2723(2) 0.1902(3) 0.3596(3)
O13 O 0.1511(4) 0.2500 0.5859(4)
U1A U 0.253000(14) -0.2500 0.157054(16)
U1A_2 U 0.253000(14) 0.7500 0.157054(16)
Ce1_2 Ce 0.28635(2) 0.2500 -0.06121(2)
Ce1A Ce 0.21365(2) -0.2500 0.43879(2)
Ce1A_2 Ce 0.21365(2) 0.7500 0.43879(2)
U2A U 0.5000 0.0000 0.5000
U2B U -0.0000 0.5000 0.0000
U2C U 0.5000 0.5000 0.5000
O1F O 0.0768(2) 0.4253(3) 0.1426(3)
O1D O -0.0768(2) -0.0747(3) -0.1426(3)
O2F O 0.1738(2) 0.3708(3) 0.0303(2)
O2_2 O 0.1738(2) 0.1292(3) 1.0303(2)
O2F_2 O 0.1738(2) 0.3708(3) 1.0303(2)
O3D O -0.0035(2) -0.1296(3) 0.0688(3)
O4F O 0.3877(2) 0.4311(3) 0.3952(2)
O4A O 0.1123(2) -0.0689(3) -0.1048(2)
O4E O -0.1123(2) 0.0689(3) 0.1048(2)
O7F O 0.3145(2) 0.3681(3) 0.5276(2)
O8F O 0.3543(3) 0.3859(4) 1.0689(3)
O10F O 0.2614(2) 0.5470(3) 0.1993(2)
O10A O 0.2386(2) 0.0470(3) 0.6993(2)
O10G O 0.2386(2) 0.4530(3) 0.6993(2)
O11F O 0.2090(2) 0.5514(3) 0.3590(2)
O11A O 0.2910(2) 0.0514(3) 0.8590(2)
O11G O 0.2910(2) 0.4486(3) 0.8590(2)
C1F C 0.2314(3) 0.3702(3) 0.2811(3)
C2F C 0.2339(3) 0.5008(3) 0.2805(3)
C3F C 0.1908(2) 0.3102(3) 0.2029(3)
C4F C 0.1450(3) 0.3734(3) 0.1188(3)
C5F C 0.3272(3) 0.3741(3) 0.4337(3)
C6F C 0.2723(2) 0.3098(3) 0.3596(3)
O12 O 0.5453(13) 0.1049(18) 0.0786(14)
O14 O 0.5176(9) 0.0832(13) 0.7977(11)
O15 O 0.4674(19) 0.2500 0.208(2)
loop_
_geom_bond_atom_site_label_1
_geom_bond_atom_site_label_2
_geom_bond_site_symmetry_1
_geom_bond_site_symmetry_2
U1 O5 1_555 1_555
Ce1 O5 1_555 1_555
U2 O1 1_555 1_555
O1 C4 1_555 1_555
O2 C4 1_555 1_555
O3 U2 1_555 1_555
O4 C5 1_555 1_555
O6 U1 1_555 1_555
O7 U1 1_555 1_555
O8 Ce1 1_555 1_555
O9 Ce1 1_555 1_555
O10 C2 1_555 1_555
O11 C2 1_555 1_555
C1 C2 1_555 1_555
C3 C1 1_555 1_555
C4 C3 1_555 1_555
C5 O7 1_555 1_555
C6 C1 1_555 1_555
O13 U1 1_555 1_555
U1A O10 1_555 1_555
U1A_2 O10F 1_555 1_555
Ce1_2 O2 1_555 1_555
Ce1A O11 1_555 1_555
Ce1A_2 O11F 1_555 1_555
U2A O4 1_555 1_555
U2B O1F 1_555 1_555
U2C O4F 1_555 1_555
O1F C4F 1_555 1_555
O1D U2 1_555 1_555
O2F Ce1_2 1_555 1_555
O2_2 Ce1 1_555 1_555
O2F_2 Ce1 1_555 1_555
O3D U2 1_555 1_555
O4F C5F 1_555 1_555
O4A U2 1_555 1_555
O4E U2 1_555 1_555
O7F U1 1_555 1_555
O8F Ce1 1_555 1_555
O10F C2F 1_555 1_555
O10A U1 1_555 1_555
O10G U1 1_555 1_555
O11F C2F 1_555 1_555
O11A Ce1 1_555 1_555
O11G Ce1 1_555 1_555
C1F C2F 1_555 1_555
C3F C3 1_555 1_555
C4F O2F 1_555 1_555
C5F O7F 1_555 1_555
C6F C6 1_555 1_555
Ce1 O6 1_555 1_555
C5 C6 1_555 1_555
C1F C3F 1_555 1_555
C1F C6F 1_555 1_555
C3F C4F 1_555 1_555
C5F C6F 1_555 1_555

#END
