
#######################################################################
#
#                 Cambridge Crystallographic Data Centre
#                                CCDC 
#
#######################################################################
#
# If this CIF has been generated from an entry in the Cambridge 
# Structural Database, then it will include bibliographic, chemical, 
# crystal, experimental, refinement or atomic coordinate data resulting 
# from the CCDC's data processing and validation procedures.
#
#######################################################################

data_KUVJIW
_chemical_formula_moiety         '(C18 H21 N4 O15 P2 U2 1+)n'
_symmetry_cell_setting           triclinic
_symmetry_space_group_name_H-M   'P -1'
_symmetry_Int_Tables_number      2
_space_group_name_Hall           '-P 1'
loop_
_symmetry_equiv_pos_site_id
_symmetry_equiv_pos_as_xyz
1 x,y,z
2 -x,-y,-z
_cell_length_a                   9.7561(13)
_cell_length_b                   10.2852(14)
_cell_length_c                   11.0465(14)
_cell_angle_alpha                95.127(3)
_cell_angle_beta                 95.109(2)
_cell_angle_gamma                105.974(2)
_cell_volume                     1053.88
loop_
_atom_site_label
_atom_site_type_symbol
_atom_site_fract_x
_atom_site_fract_y
_atom_site_fract_z
U1 U 1.33279(6) 0.38788(6) 0.36936(5)
U2 U 1.13500(6) 0.17206(6) -0.17265(5)
P1 P 1.0542(4) 0.1834(4) 0.1452(3)
P2 P 0.6327(4) 0.5413(4) 0.2904(3)
O1 O 1.3999(13) 0.2477(11) 0.3978(11)
O2 O 1.2643(14) 0.5293(12) 0.3502(11)
O3 O 1.2720(13) 0.1069(13) -0.1136(12)
O4 O 1.0012(12) 0.2437(11) -0.2291(10)
O5 O 1.0338(12) 0.1647(11) 0.0070(9)
O6 O 1.2069(12) 0.2656(11) 0.1964(10)
O7 O 1.0110(12) 0.0491(10) 0.2004(9)
O8 O 1.1128(12) 0.2735(12) 0.4365(11)
O9 O 0.8918(13) 0.1886(14) 0.4798(12)
O10 O 0.6944(12) 0.6868(11) 0.2735(11)
O11 O 0.4884(11) 0.4715(11) 0.2121(9)
O12 O 0.6025(11) 0.5214(11) 0.4224(9)
O13 O 0.6467(15) 0.4060(12) -0.0619(10)
H1 H 0.6526 0.4465 -0.1228
O14 O 0.7361(13) 0.6100(12) 0.0417(10)
O15 O 1.1352(16) 0.0785(12) -0.3899(11)
C1 C 0.9407(16) 0.2864(15) 0.1911(13)
C2 C 0.8722(17) 0.3414(15) 0.0997(14)
H2 H 0.8857 0.3234 0.0183
C3 C 0.7832(16) 0.4237(15) 0.1301(13)
C4 C 0.7536(16) 0.4459(15) 0.2503(12)
C5 C 0.8248(17) 0.3852(15) 0.3415(14)
H3 H 0.8073 0.3979 0.4225
C6 C 0.9154(15) 0.3112(14) 0.3138(13)
C7 C 0.9802(16) 0.2570(16) 0.4181(13)
C8 C 0.7214(17) 0.4868(16) 0.0315(14)
U1_2 U 0.33279(6) 0.38788(6) 0.36936(5)
U1A U 0.66721(6) 0.61212(6) 0.63064(5)
U2A U 0.86500(6) -0.17206(6) 0.17265(5)
U2A_2 U 0.86500(6) 0.82794(6) 0.17265(5)
O7A O 0.9890(12) -0.0491(10) -0.2004(9)
O10A O 1.3056(12) 0.3132(11) -0.2735(11)
O11_2 O 1.4884(11) 0.4715(11) 0.2121(9)
O12_2 O 1.6025(11) 0.5214(11) 0.4224(9)
O12A O 1.3975(11) 0.4786(11) 0.5776(9)
O14A O 1.2639(13) 0.3900(12) -0.0417(10)
C9 C 0.545(3) 0.121(3) 0.636(2)
H4 H 0.5079 0.1693 0.5807
C10 C 0.693(2) 0.054(3) 0.749(3)
H5 H 0.7770 0.0421 0.7867
C11 C 0.470(2) 0.026(3) 0.6988(19)
H6 H 0.3702 -0.0077 0.6928
C12 C 0.534(2) -0.1119(18) 0.8604(18)
H7 H 0.6233 -0.1275 0.8920
H8 H 0.4728 -0.1973 0.8173
C13 C 0.4617(19) -0.0705(17) 0.9668(16)
H9 H 0.4559 -0.1367 1.0248
H10 H 0.3644 -0.0728 0.9369
N1 N 0.690(2) 0.134(2) 0.667(2)
H11 H 0.7615 0.1855 0.6383
N2 N 0.5653(16) -0.0094(14) 0.7715(13)
C9A C 0.455(3) -0.121(3) 1.364(2)
H4A H 0.4921 -0.1693 1.4193
C10A C 0.307(2) -0.054(3) 1.251(3)
H5A H 0.2230 -0.0421 1.2133
C11A C 0.530(2) -0.026(3) 1.3012(19)
H6A H 0.6298 0.0077 1.3072
C12A C 0.466(2) 0.1119(18) 1.1396(18)
H7A H 0.3767 0.1275 1.1080
H8A H 0.5272 0.1973 1.1827
C13A C 0.5383(19) 0.0705(17) 1.0332(16)
H9A H 0.5441 0.1367 0.9752
H10A H 0.6356 0.0728 1.0631
N1A N 0.310(2) -0.134(2) 1.333(2)
H11A H 0.2385 -0.1855 1.3617
N2A N 0.4347(16) 0.0094(14) 1.2285(13)
loop_
_geom_bond_atom_site_label_1
_geom_bond_atom_site_label_2
_geom_bond_site_symmetry_1
_geom_bond_site_symmetry_2
U1 O1 1_555 1_555
U2 O3 1_555 1_555
P1 O5 1_555 1_555
P2 O10 1_555 1_555
O2 U1 1_555 1_555
O4 U2 1_555 1_555
O5 U2 1_555 1_555
O6 U1 1_555 1_555
O7 P1 1_555 1_555
O8 U1 1_555 1_555
O9 C7 1_555 1_555
O10 U2A_2 1_555 1_555
O11 P2 1_555 1_555
O12 P2 1_555 1_555
O13 H1 1_555 1_555
O14 C8 1_555 1_555
O15 U2 1_555 1_555
C1 P1 1_555 1_555
C2 C1 1_555 1_555
H2 C2 1_555 1_555
C3 C2 1_555 1_555
C4 P2 1_555 1_555
C5 C4 1_555 1_555
H3 C5 1_555 1_555
C6 C1 1_555 1_555
C7 O8 1_555 1_555
C8 O13 1_555 1_555
C9 H4 1_555 1_555
C10 H5 1_555 1_555
C11 C9 1_555 1_555
H6 C11 1_555 1_555
C12 H7 1_555 1_555
H8 C12 1_555 1_555
C13 C12 1_555 1_555
H9 C13 1_555 1_555
H10 C13 1_555 1_555
N1 C9 1_555 1_555
H11 N1 1_555 1_555
N2 C10 1_555 1_555
U1_2 O11 1_555 1_555
U1A O12 1_555 1_555
U2A O7 1_555 1_555
U2A_2 O14 1_555 1_555
O7A U2 1_555 1_555
O10A U2 1_555 1_555
O11_2 U1 1_555 1_555
O12_2 U1 1_555 1_555
O12A U1 1_555 1_555
O14A U2 1_555 1_555
C9A H4A 1_555 1_555
C10A H5A 1_555 1_555
C11A C9A 1_555 1_555
H6A C11A 1_555 1_555
C12A H7A 1_555 1_555
H8A C12A 1_555 1_555
C13A C13 1_555 1_555
H9A C13A 1_555 1_555
H10A C13A 1_555 1_555
N1A C9A 1_555 1_555
H11A N1A 1_555 1_555
N2A C10A 1_555 1_555
P1 O6 1_555 1_555
O12 U1_2 1_555 1_555
C3 C4 1_555 1_555
C3 C8 1_555 1_555
C5 C6 1_555 1_555
C6 C7 1_555 1_555
C10 N1 1_555 1_555
C11 N2 1_555 1_555
C12 N2 1_555 1_555
C10A N1A 1_555 1_555
C11A N2A 1_555 1_555
C12A C13A 1_555 1_555
C12A N2A 1_555 1_555

#END
