
#######################################################################
#
#                 Cambridge Crystallographic Data Centre
#                                CCDC 
#
#######################################################################
#
# If this CIF has been generated from an entry in the Cambridge 
# Structural Database, then it will include bibliographic, chemical, 
# crystal, experimental, refinement or atomic coordinate data resulting 
# from the CCDC's data processing and validation procedures.
#
#######################################################################

data_GULVUF
_chemical_formula_moiety         '(C78 H64 O20 Yb2)n'
_symmetry_cell_setting           orthorhombic
_symmetry_space_group_name_H-M   'F d d d'
_symmetry_Int_Tables_number      70
_space_group_name_Hall           '-F 2uv 2vw'
loop_
_symmetry_equiv_pos_site_id
_symmetry_equiv_pos_as_xyz
1 x,y,z
2 3/4-x,3/4-y,z
3 3/4-x,y,3/4-z
4 x,3/4-y,3/4-z
5 x,1/2+y,1/2+z
6 3/4-x,1/4-y,1/2+z
7 3/4-x,1/2+y,1/4-z
8 x,1/4-y,1/4-z
9 1/2+x,y,1/2+z
10 1/4-x,3/4-y,1/2+z
11 1/4-x,y,1/4-z
12 1/2+x,3/4-y,1/4-z
13 1/2+x,1/2+y,z
14 1/4-x,1/4-y,z
15 1/4-x,1/2+y,3/4-z
16 1/2+x,1/4-y,3/4-z
17 -x,-y,-z
18 1/4+x,1/4+y,-z
19 1/4+x,-y,1/4+z
20 -x,1/4+y,1/4+z
21 -x,1/2-y,1/2-z
22 1/4+x,3/4+y,1/2-z
23 1/4+x,1/2-y,3/4+z
24 -x,3/4+y,3/4+z
25 1/2-x,-y,1/2-z
26 3/4+x,1/4+y,1/2-z
27 3/4+x,-y,3/4+z
28 1/2-x,1/4+y,3/4+z
29 1/2-x,1/2-y,-z
30 3/4+x,3/4+y,-z
31 3/4+x,1/2-y,1/4+z
32 1/2-x,3/4+y,1/4+z
_cell_length_a                   16.247(6)
_cell_length_b                   48.939(19)
_cell_length_c                   80.84(3)
_cell_angle_alpha                90
_cell_angle_beta                 90
_cell_angle_gamma                90
_cell_volume                     64276.8
loop_
_atom_site_label
_atom_site_type_symbol
_atom_site_fract_x
_atom_site_fract_y
_atom_site_fract_z
_atom_site_U_iso_or_equiv
_atom_site_thermal_displace_type
Yb1 Yb -0.1250 0.8750 0.630321(5) 0.0880 Uani
Yb2 Yb 0.1250 0.909695(11) 0.6250 0.1100 Uani
O1 O 0.1024(4) 0.87457(14) 0.64142(6) 0.1193 Uani
O2 O -0.0104(4) 0.85173(11) 0.63646(7) 0.1050 Uani
O3 O 0.2946(4) 0.67645(13) 0.85444(8) 0.1380 Uani
O4 O 0.1794(4) 0.65251(13) 0.85141(6) 0.1140 Uani
O5 O 0.0123(9) 0.7268(3) 0.72349(13) 0.3507 Uani
O6 O 0.2655(10) 0.7736(3) 0.76022(14) 0.3353 Uani
O7 O -0.1236(6) 0.90457(14) 0.60877(7) 0.1463 Uani
O8 O 0.0030(5) 0.90563(18) 0.61164(7) 0.1867 Uani
O9 O 0.1134(9) 0.9555(3) 0.50417(15) 0.2937 Uani
O10 O 0.0770(7) 0.9564(2) 0.61628(14) 0.3137 Uani
C1 C 0.0547(7) 0.8554(2) 0.64437(10) 0.1020 Uani
C2 C 0.0743(4) 0.83639(13) 0.65796(6) 0.1127 Uani
C3 C 0.1475(4) 0.84064(13) 0.66650(8) 0.1433 Uani
H1 H 0.1840 0.8541 0.6630 0.1720 Uiso
C4 C 0.1660(4) 0.82482(15) 0.68029(8) 0.1690 Uani
H2 H 0.2149 0.8277 0.6860 0.2030 Uiso
C5 C 0.1114(4) 0.80475(14) 0.68553(7) 0.1693 Uani
C6 C 0.0382(4) 0.80050(13) 0.67700(9) 0.1713 Uani
H3 H 0.0017 0.7871 0.6805 0.2060 Uiso
C7 C 0.0197(4) 0.81631(15) 0.66321(8) 0.1433 Uani
H4 H -0.0292 0.8135 0.6575 0.1720 Uiso
C8 C 0.1296(7) 0.7906(3) 0.70097(15) 0.2170 Uani
H5 H 0.1814 0.7953 0.7049 0.2610 Uiso
C9 C 0.0933(8) 0.7731(3) 0.71080(15) 0.2750 Uani
H6 H 0.0414 0.7674 0.7074 0.3300 Uiso
C10 C 0.1218(6) 0.76140(17) 0.72621(9) 0.2830 Uani
C11 C 0.0808(6) 0.73920(19) 0.73306(10) 0.2920 Uani
C12 C 0.1054(6) 0.72885(17) 0.74829(10) 0.2453 Uani
H7 H 0.0779 0.7140 0.7529 0.2940 Uiso
C13 C 0.1710(6) 0.7407(2) 0.75666(9) 0.2577 Uani
C14 C 0.2121(6) 0.7629(2) 0.74981(11) 0.2877 Uani
C15 C 0.1875(6) 0.77325(19) 0.73458(11) 0.2740 Uani
H8 H 0.2149 0.7881 0.7300 0.3290 Uiso
C16 C 0.1948(9) 0.7317(3) 0.77308(15) 0.2540 Uani
H9 H 0.2355 0.7422 0.7781 0.3050 Uiso
C17 C 0.1680(9) 0.7112(3) 0.78193(16) 0.2810 Uani
H10 H 0.1273 0.7009 0.7767 0.3370 Uiso
C18 C 0.1892(5) 0.70149(17) 0.79797(7) 0.2217 Uani
C19 C 0.2480(5) 0.71405(15) 0.80790(10) 0.2387 Uani
H11 H 0.2764 0.7292 0.8040 0.2860 Uiso
C20 C 0.2641(4) 0.70391(17) 0.82362(9) 0.2027 Uani
H12 H 0.3034 0.7123 0.8303 0.2430 Uiso
C21 C 0.2216(5) 0.68121(17) 0.82942(7) 0.1433 Uani
C22 C 0.1628(5) 0.66865(14) 0.81950(9) 0.1687 Uani
H13 H 0.1344 0.6535 0.8234 0.2020 Uiso
C23 C 0.1467(5) 0.67879(16) 0.80377(8) 0.2173 Uani
H14 H 0.1074 0.6704 0.7971 0.2610 Uiso
C24 C 0.2317(7) 0.6690(2) 0.84640(11) 0.1193 Uani
C25 C -0.0561(9) 0.9111(3) 0.60352(12) 0.1330 Uani
C26 C -0.0491(5) 0.92507(14) 0.58779(6) 0.1200 Uani
C27 C -0.1202(4) 0.93710(16) 0.58160(8) 0.1527 Uani
H15 H -0.1691 0.9360 0.5876 0.1830 Uiso
C28 C -0.1183(4) 0.95069(16) 0.56651(8) 0.1923 Uani
H16 H -0.1659 0.9587 0.5624 0.2310 Uiso
C29 C -0.0452(4) 0.95225(16) 0.55760(7) 0.1940 Uani
C30 C 0.0259(4) 0.94023(18) 0.56380(8) 0.2070 Uani
H17 H 0.0747 0.9413 0.5578 0.2490 Uiso
C31 C 0.0240(4) 0.92664(16) 0.57889(8) 0.1883 Uani
H18 H 0.0715 0.9186 0.5830 0.2260 Uiso
C32 C -0.0466(6) 0.9672(3) 0.54126(14) 0.2240 Uani
H19 H -0.0964 0.9755 0.5387 0.2690 Uiso
C33 C 0.0115(8) 0.9702(3) 0.53022(13) 0.2500 Uani
H20 H 0.0629 0.9628 0.5325 0.3000 Uiso
C34 C 0.0010(8) 0.9848(3) 0.51432(11) 0.2227 Uani
C35 C -0.0537(7) 1.0067(2) 0.51318(10) 0.2237 Uani
H21 H -0.0880 1.0113 0.5220 0.2680 Uiso
C36 C 0.0552(9) 0.9787(3) 0.50153(13) 0.2470 Uani
C37 C -0.0131(12) 0.7026(3) 0.7352(3) 0.4250 Uani
H22 H -0.0586 0.6929 0.7304 0.6370 Uiso
H23 H -0.0290 0.7097 0.7458 0.6370 Uiso
H24 H 0.0327 0.6904 0.7365 0.6370 Uiso
C38 C 0.1665(12) 0.9551(5) 0.4883(2) 0.3727 Uani
H25 H 0.2061 0.9406 0.4890 0.5600 Uiso
H26 H 0.1947 0.9723 0.4872 0.5600 Uiso
H27 H 0.1318 0.9523 0.4789 0.5600 Uiso
C39 C 0.3008(13) 0.7990(3) 0.7490(3) 0.3767 Uani
H28 H 0.3423 0.8087 0.7551 0.5660 Uiso
H29 H 0.2565 0.8112 0.7464 0.5660 Uiso
H30 H 0.3242 0.7920 0.7390 0.5660 Uiso
Yb1T Yb 0.1250 0.6250 0.869679(5) 0.0880 Uani
Yb1P Yb 0.1250 1.1250 0.369679(5) 0.0880 Uani
Yb1X Yb -0.3750 1.1250 0.869679(5) 0.0880 Uani
Yb2U Yb 0.3750 0.659695(11) 0.8750 0.1100 Uani
Yb2P Yb -0.1250 1.090305(11) 0.3750 0.1100 Uani
Yb2A Yb -0.3750 0.840305(11) 0.6250 0.1100 Uani
Yb2R Yb -0.6250 1.090305(11) 0.8750 0.1100 Uani
O1A O -0.3524(4) 0.87543(14) 0.64142(6) 0.1193 Uani
O1J O 0.1476(4) 0.87457(14) 0.60858(6) 0.1193 Uani
O2A O -0.2396(4) 0.89827(11) 0.63646(7) 0.1050 Uani
O3A O -0.5446(4) 1.07355(13) 0.85444(8) 0.1380 Uani
O3Y O 0.0446(4) 0.92645(13) 0.64556(8) 0.1380 Uani
O3AA O 0.2054(4) 0.92645(13) 0.60444(8) 0.1380 Uani
O4A O -0.4294(4) 1.09749(13) 0.85141(6) 0.1140 Uani
O4Y O -0.0706(4) 0.90251(13) 0.64859(6) 0.1140 Uani
O4T O -0.1794(4) 0.84749(13) 0.64859(6) 0.1140 Uani
O5A O -0.2623(9) 1.0232(3) 0.72349(13) 0.3507 Uani
O6A O -0.5155(10) 0.9764(3) 0.76022(14) 0.3353 Uani
O7P O 0.1236(6) 1.09543(14) 0.39123(7) 0.1463 Uani
O7A O -0.1264(6) 0.84543(14) 0.60877(7) 0.1463 Uani
O8P O -0.0030(5) 1.09437(18) 0.38836(7) 0.1867 Uani
O8J O 0.2470(5) 0.90563(18) 0.63836(7) 0.1867 Uani
O9P O -0.1134(9) 1.0445(3) 0.49583(15) 0.2937 Uani
O10J O 0.1730(7) 0.9564(2) 0.63372(14) 0.3137 Uani
C1A C -0.3047(7) 0.8946(2) 0.64437(10) 0.1020 Uani
C2A C -0.3243(4) 0.91361(13) 0.65796(6) 0.1127 Uani
C3A C -0.3975(4) 0.90936(13) 0.66650(8) 0.1433 Uani
H1A H -0.4340 0.8959 0.6630 0.1720 Uiso
C4A C -0.4160(4) 0.92518(15) 0.68029(8) 0.1690 Uani
H2A H -0.4649 0.9223 0.6860 0.2030 Uiso
C5A C -0.3614(4) 0.94525(14) 0.68553(7) 0.1693 Uani
C6A C -0.2882(4) 0.94950(13) 0.67700(9) 0.1713 Uani
H3A H -0.2517 0.9629 0.6805 0.2060 Uiso
C7A C -0.2697(4) 0.93369(15) 0.66321(8) 0.1433 Uani
H4A H -0.2208 0.9365 0.6575 0.1720 Uiso
C8A C -0.3796(7) 0.9594(3) 0.70097(15) 0.2170 Uani
H5A H -0.4314 0.9547 0.7049 0.2610 Uiso
C9A C -0.3433(8) 0.9769(3) 0.71080(15) 0.2750 Uani
H6A H -0.2914 0.9826 0.7074 0.3300 Uiso
C10A C -0.3718(6) 0.98860(17) 0.72621(9) 0.2830 Uani
C11A C -0.3308(6) 1.01080(19) 0.73306(10) 0.2920 Uani
C12A C -0.3554(6) 1.02115(17) 0.74829(10) 0.2453 Uani
H7A H -0.3279 1.0360 0.7529 0.2940 Uiso
C13A C -0.4210(6) 1.0093(2) 0.75666(9) 0.2577 Uani
C14A C -0.4621(6) 0.9871(2) 0.74981(11) 0.2877 Uani
C15A C -0.4375(6) 0.97675(19) 0.73458(11) 0.2740 Uani
H8A H -0.4649 0.9619 0.7300 0.3290 Uiso
C16A C -0.4448(9) 1.0183(3) 0.77308(15) 0.2540 Uani
H9A H -0.4855 1.0078 0.7781 0.3050 Uiso
C17A C -0.4180(9) 1.0388(3) 0.78193(16) 0.2810 Uani
H10A H -0.3773 1.0491 0.7767 0.3370 Uiso
C18A C -0.4392(5) 1.04851(17) 0.79797(7) 0.2217 Uani
C19A C -0.4980(5) 1.03595(15) 0.80790(10) 0.2387 Uani
H11A H -0.5264 1.0208 0.8040 0.2860 Uiso
C20A C -0.5141(4) 1.04609(17) 0.82362(9) 0.2027 Uani
H12A H -0.5534 1.0377 0.8303 0.2430 Uiso
C21A C -0.4716(5) 1.06879(17) 0.82942(7) 0.1433 Uani
C22A C -0.4128(5) 1.08135(14) 0.81950(9) 0.1687 Uani
H13A H -0.3844 1.0965 0.8234 0.2020 Uiso
C23A C -0.3967(5) 1.07121(16) 0.80377(8) 0.2173 Uani
H14A H -0.3574 1.0796 0.7971 0.2610 Uiso
C24A C -0.4817(7) 1.0810(2) 0.84640(11) 0.1193 Uani
C25P C 0.0561(9) 1.0889(3) 0.39648(12) 0.1330 Uani
C26P C 0.0491(5) 1.07493(14) 0.41221(6) 0.1200 Uani
C27P C 0.1202(4) 1.06290(16) 0.41840(8) 0.1527 Uani
H15P H 0.1691 1.0640 0.4124 0.1830 Uiso
C28P C 0.1183(4) 1.04931(16) 0.43349(8) 0.1923 Uani
H16P H 0.1659 1.0413 0.4376 0.2310 Uiso
C29P C 0.0452(4) 1.04775(16) 0.44240(7) 0.1940 Uani
C30P C -0.0259(4) 1.05977(18) 0.43620(8) 0.2070 Uani
H17P H -0.0747 1.0587 0.4422 0.2490 Uiso
C31P C -0.0240(4) 1.07336(16) 0.42111(8) 0.1883 Uani
H18P H -0.0715 1.0814 0.4170 0.2260 Uiso
C32P C 0.0466(6) 1.0328(3) 0.45874(14) 0.2240 Uani
H19P H 0.0964 1.0245 0.4613 0.2690 Uiso
C33P C -0.0115(8) 1.0298(3) 0.46978(13) 0.2500 Uani
H20P H -0.0629 1.0372 0.4675 0.3000 Uiso
C34P C -0.0010(8) 1.0152(3) 0.48568(11) 0.2227 Uani
C35P C 0.0537(7) 0.9933(2) 0.48682(10) 0.2237 Uani
H21P H 0.0880 0.9887 0.4780 0.2680 Uiso
C36P C -0.0552(9) 1.0213(3) 0.49847(13) 0.2470 Uani
C37A C -0.2369(12) 1.0474(3) 0.7352(3) 0.4250 Uani
H22A H -0.1914 1.0571 0.7304 0.6370 Uiso
H23A H -0.2210 1.0403 0.7458 0.6370 Uiso
H24A H -0.2827 1.0596 0.7365 0.6370 Uiso
C38P C -0.1665(12) 1.0449(5) 0.5117(2) 0.3727 Uani
H25P H -0.2061 1.0594 0.5110 0.5600 Uiso
H26P H -0.1947 1.0277 0.5128 0.5600 Uiso
H27P H -0.1318 1.0477 0.5211 0.5600 Uiso
C39A C -0.5508(13) 0.9510(3) 0.7490(3) 0.3767 Uani
H28A H -0.5923 0.9413 0.7551 0.5660 Uiso
H29A H -0.5065 0.9388 0.7464 0.5660 Uiso
H30A H -0.5742 0.9580 0.7390 0.5660 Uiso
loop_
_atom_site_aniso_label
_atom_site_aniso_U_11
_atom_site_aniso_U_22
_atom_site_aniso_U_33
_atom_site_aniso_U_23
_atom_site_aniso_U_13
_atom_site_aniso_U_12
Yb1 0.1193(4) 0.0996(4) 0.0451(3) 0.000 0.000 -0.0023(4)
Yb2 0.1508(6) 0.0980(5) 0.0812(4) 0.000 0.0378(4) 0.000
O1 0.122 0.147 0.089 0.035 -0.002 -0.018
O2 0.121 0.122 0.072 0.028 -0.007 -0.011
O3 0.138 0.145 0.131 0.064 -0.045 -0.039
O4 0.133 0.151 0.058 0.026 -0.008 -0.029
O5 0.507 0.396 0.149 0.034 -0.068 0.055
O6 0.44 0.382 0.184 0.13 -0.012 0.047
O7 0.231(8) 0.143(5) 0.065(4) 0.019(4) 0.038(5) -0.003(6)
O8 0.211(8) 0.293(9) 0.056(4) 0.029(5) -0.008(4) 0.131(7)
O9 0.339(15) 0.331(15) 0.211(9) 0.098(10) -0.039(10) -0.021(11)
O10 0.329(15) 0.273(12) 0.339(17) -0.002(10) 0.017(11) 0.026(10)
C1 0.099 0.137 0.07 0.03 -0.011 0
C2 0.124 0.136 0.078 0.04 -0.003 0.004
C3 0.152 0.194 0.084 0.055 -0.022 0.005
C4 0.168 0.207 0.132 0.085 -0.024 0.01
C5 0.181 0.208 0.119 0.068 -0.017 0.053
C6 0.206 0.157 0.151 0.09 0.024 -0.008
C7 0.16 0.151 0.119 0.069 -0.024 -0.018
C8 0.249 0.239 0.163 0.066 0.066 0.083
C9 0.378 0.285 0.162 0.037 0.009 0.066
C10 0.404 0.34 0.105 0.049 -0.049 0.13
C11 0.412 0.3 0.164 -0.005 -0.043 0.102
C12 0.345 0.311 0.08 0.062 -0.007 0.173
C13 0.35 0.31 0.113 0.085 -0.044 0.125
C14 0.382 0.32 0.161 0.122 -0.038 0.069
C15 0.375 0.337 0.11 0.085 0 0.151
C16 0.35 0.277 0.135 0.074 0.038 0.113
C17 0.325 0.357 0.161 0.081 0.045 0.135
C18 0.205 0.349 0.111 0.121 -0.009 0.094
C19 0.19 0.348 0.178 0.188 0.009 0.031
C20 0.143 0.281 0.184 0.149 -0.018 -0.026
C21 0.124 0.203 0.103 0.076 -0.021 -0.015
C22 0.195 0.229 0.082 0.056 -0.025 0.005
C23 0.242 0.293 0.117 0.049 -0.016 0.038
C24 0.114 0.158 0.086 0.043 -0.025 -0.023
C25 0.173(11) 0.158(9) 0.068(7) 0.024(6) 0.021(7) 0.057(9)
C26 0.126(8) 0.169(8) 0.065(5) 0.046(5) 0.004(5) 0.019(7)
C27 0.153(8) 0.209(10) 0.096(6) 0.067(6) 0.007(7) 0.004(8)
C28 0.185(10) 0.264(12) 0.128(8) 0.088(8) 0.005(8) -0.002(10)
C29 0.213(11) 0.267(11) 0.102(7) 0.114(8) -0.058(7) -0.066(10)
C30 0.149(9) 0.374(15) 0.098(8) 0.088(9) 0.005(7) -0.032(10)
C31 0.142(9) 0.333(13) 0.090(7) 0.072(8) -0.004(6) -0.015(10)
C32 0.254(13) 0.273(13) 0.145(10) 0.096(10) -0.042(9) -0.111(11)
C33 0.322(16) 0.290(14) 0.138(11) 0.086(10) -0.023(10) -0.095(13)
C34 0.308(15) 0.230(14) 0.130(10) 0.121(9) -0.075(9) -0.080(11)
C35 0.339(17) 0.229(15) 0.103(8) 0.109(9) -0.068(9) -0.107(11)
C36 0.265(16) 0.297(17) 0.179(13) 0.090(13) -0.027(11) -0.042(12)
C37 0.66 0.165 0.45 0.126 0.27 0.016
C38 0.34(2) 0.58(3) 0.198(16) -0.08(2) 0.099(15) -0.03(2)
C39 0.41 0.26 0.46 0.073 0.19 0.006
Yb1T 0.1193 0.0996 0.0451 0 0 -0.0023
Yb1P 0.1193 0.0996 0.0451 0 0 -0.0023
Yb1X 0.1193 0.0996 0.0451 0 0 -0.0023
Yb2U 0.1508 0.098 0.0812 0 -0.0378 0
Yb2P 0.1508 0.098 0.0812 0 0.0378 0
Yb2A 0.1508 0.098 0.0812 0 -0.0378 0
Yb2R 0.1508 0.098 0.0812 0 0.0378 0
O1A 0.122 0.147 0.089 -0.035 0.002 -0.018
O1J 0.122(5) 0.147(6) 0.089(4) -0.035(4) -0.002(4) 0.018(5)
O2A 0.121 0.122 0.072 -0.028 0.007 -0.011
O3A 0.138 0.145 0.131 -0.064 0.045 -0.039
O3Y 0.138 0.145 0.131 -0.064 0.045 -0.039
O3AA 0.138 0.145 0.131 0.064 0.045 0.039
O4A 0.133 0.151 0.058 -0.026 0.008 -0.029
O4Y 0.133 0.151 0.058 -0.026 0.008 -0.029
O4T 0.133 0.151 0.058 0.026 -0.008 -0.029
O5A 0.507 0.396 0.149 -0.034 0.068 0.055
O6A 0.44 0.382 0.184 -0.13 0.012 0.047
O7P 0.231 0.143 0.065 0.019 0.038 -0.003
O7A 0.231 0.143 0.065 -0.019 -0.038 -0.003
O8P 0.211 0.293 0.056 0.029 -0.008 0.131
O8J 0.211 0.293 0.056 -0.029 -0.008 -0.131
O9P 0.339 0.331 0.211 0.098 -0.039 -0.021
O10J 0.329 0.273 0.339 0.002 0.017 -0.026
C1A 0.099 0.137 0.07 -0.03 0.011 0
C2A 0.124 0.136 0.078 -0.04 0.003 0.004
C3A 0.152 0.194 0.084 -0.055 0.022 0.005
C4A 0.168 0.207 0.132 -0.085 0.024 0.01
C5A 0.181 0.208 0.119 -0.068 0.017 0.053
C6A 0.206 0.157 0.151 -0.09 -0.024 -0.008
C7A 0.16 0.151 0.119 -0.069 0.024 -0.018
C8A 0.249 0.239 0.163 -0.066 -0.066 0.083
C9A 0.378 0.285 0.162 -0.037 -0.009 0.066
C10A 0.404 0.34 0.105 -0.049 0.049 0.13
C11A 0.412 0.3 0.164 0.005 0.043 0.102
C12A 0.345 0.311 0.08 -0.062 0.007 0.173
C13A 0.35 0.31 0.113 -0.085 0.044 0.125
C14A 0.382 0.32 0.161 -0.122 0.038 0.069
C15A 0.375 0.337 0.11 -0.085 0 0.151
C16A 0.35 0.277 0.135 -0.074 -0.038 0.113
C17A 0.325 0.357 0.161 -0.081 -0.045 0.135
C18A 0.205 0.349 0.111 -0.121 0.009 0.094
C19A 0.19 0.348 0.178 -0.188 -0.009 0.031
C20A 0.143 0.281 0.184 -0.149 0.018 -0.026
C21A 0.124 0.203 0.103 -0.076 0.021 -0.015
C22A 0.195 0.229 0.082 -0.056 0.025 0.005
C23A 0.242 0.293 0.117 -0.049 0.016 0.038
C24A 0.114 0.158 0.086 -0.043 0.025 -0.023
C25P 0.173 0.158 0.068 0.024 0.021 0.057
C26P 0.126 0.169 0.065 0.046 0.004 0.019
C27P 0.153 0.209 0.096 0.067 0.007 0.004
C28P 0.185 0.264 0.128 0.088 0.005 -0.002
C29P 0.213 0.267 0.102 0.114 -0.058 -0.066
C30P 0.149 0.374 0.098 0.088 0.005 -0.032
C31P 0.142 0.333 0.09 0.072 -0.004 -0.015
C32P 0.254 0.273 0.145 0.096 -0.042 -0.111
C33P 0.322 0.29 0.138 0.086 -0.023 -0.095
C34P 0.308 0.23 0.13 0.121 -0.075 -0.08
C35P 0.339 0.229 0.103 0.109 -0.068 -0.107
C36P 0.265 0.297 0.179 0.09 -0.027 -0.042
C37A 0.66 0.165 0.45 -0.126 -0.27 0.016
C38P 0.34 0.58 0.198 -0.08 0.099 -0.03
C39A 0.41 0.26 0.46 -0.073 -0.19 0.006
loop_
_geom_bond_atom_site_label_1
_geom_bond_atom_site_label_2
_geom_bond_site_symmetry_1
_geom_bond_site_symmetry_2
Yb1 O2 1_555 1_555
Yb2 O1 1_555 1_555
O1 C1 1_555 1_555
O2 C1 1_555 1_555
O3 C24 1_555 1_555
O4 C24 1_555 1_555
O5 C11 1_555 1_555
O6 C14 1_555 1_555
O7 Yb1 1_555 1_555
O8 Yb2 1_555 1_555
O9 C36 1_555 1_555
O10 Yb2 1_555 1_555
C1 C2 1_555 1_555
C2 C3 1_555 1_555
C3 H1 1_555 1_555
C4 C3 1_555 1_555
H2 C4 1_555 1_555
C5 C4 1_555 1_555
C6 C5 1_555 1_555
H3 C6 1_555 1_555
C7 C2 1_555 1_555
H4 C7 1_555 1_555
C8 C5 1_555 1_555
H5 C8 1_555 1_555
C9 C8 1_555 1_555
H6 C9 1_555 1_555
C10 C9 1_555 1_555
C11 C10 1_555 1_555
C12 C11 1_555 1_555
H7 C12 1_555 1_555
C13 C12 1_555 1_555
C14 C13 1_555 1_555
C15 C10 1_555 1_555
H8 C15 1_555 1_555
C16 C13 1_555 1_555
H9 C16 1_555 1_555
C17 C16 1_555 1_555
H10 C17 1_555 1_555
C18 C17 1_555 1_555
C19 C18 1_555 1_555
H11 C19 1_555 1_555
C20 C19 1_555 1_555
H12 C20 1_555 1_555
C21 C20 1_555 1_555
C22 C21 1_555 1_555
H13 C22 1_555 1_555
C23 C18 1_555 1_555
H14 C23 1_555 1_555
C24 C21 1_555 1_555
C25 O7 1_555 1_555
C26 C25 1_555 1_555
C27 C26 1_555 1_555
H15 C27 1_555 1_555
C28 C27 1_555 1_555
H16 C28 1_555 1_555
C29 C28 1_555 1_555
C30 C29 1_555 1_555
H17 C30 1_555 1_555
C31 C26 1_555 1_555
H18 C31 1_555 1_555
C32 C29 1_555 1_555
H19 C32 1_555 1_555
C33 C32 1_555 1_555
H20 C33 1_555 1_555
C34 C33 1_555 1_555
C35 C34 1_555 1_555
H21 C35 1_555 1_555
C36 C34 1_555 1_555
C37 O5 1_555 1_555
H22 C37 1_555 1_555
H23 C37 1_555 1_555
H24 C37 1_555 1_555
C38 O9 1_555 1_555
H25 C38 1_555 1_555
H26 C38 1_555 1_555
H27 C38 1_555 1_555
C39 O6 1_555 1_555
H28 C39 1_555 1_555
H29 C39 1_555 1_555
H30 C39 1_555 1_555
Yb1T O4 1_555 1_555
Yb1P O7P 1_555 1_555
Yb1X O4A 1_555 1_555
Yb2U O3 1_555 1_555
Yb2P O8P 1_555 1_555
Yb2A O1A 1_555 1_555
Yb2R O3A 1_555 1_555
O1A C1A 1_555 1_555
O1J Yb2 1_555 1_555
O2A Yb1 1_555 1_555
O3A C24A 1_555 1_555
O3Y Yb2 1_555 1_555
O3AA Yb2 1_555 1_555
O4A C24A 1_555 1_555
O4Y Yb1 1_555 1_555
O4T Yb1 1_555 1_555
O5A C11A 1_555 1_555
O6A C14A 1_555 1_555
O7P C25P 1_555 1_555
O7A Yb1 1_555 1_555
O8P C25P 1_555 1_555
O8J Yb2 1_555 1_555
O9P C36P 1_555 1_555
O10J Yb2 1_555 1_555
C1A O2A 1_555 1_555
C2A C1A 1_555 1_555
C3A C2A 1_555 1_555
H1A C3A 1_555 1_555
C4A C3A 1_555 1_555
H2A C4A 1_555 1_555
C5A C4A 1_555 1_555
C6A C5A 1_555 1_555
H3A C6A 1_555 1_555
C7A C2A 1_555 1_555
H4A C7A 1_555 1_555
C8A C5A 1_555 1_555
H5A C8A 1_555 1_555
C9A C8A 1_555 1_555
H6A C9A 1_555 1_555
C10A C9A 1_555 1_555
C11A C10A 1_555 1_555
C12A C11A 1_555 1_555
H7A C12A 1_555 1_555
C13A C12A 1_555 1_555
C14A C13A 1_555 1_555
C15A C10A 1_555 1_555
H8A C15A 1_555 1_555
C16A C13A 1_555 1_555
H9A C16A 1_555 1_555
C17A C16A 1_555 1_555
H10A C17A 1_555 1_555
C18A C17A 1_555 1_555
C19A C18A 1_555 1_555
H11A C19A 1_555 1_555
C20A C19A 1_555 1_555
H12A C20A 1_555 1_555
C21A C20A 1_555 1_555
C22A C21A 1_555 1_555
H13A C22A 1_555 1_555
C23A C18A 1_555 1_555
H14A C23A 1_555 1_555
C24A C21A 1_555 1_555
C25P C26P 1_555 1_555
C26P C27P 1_555 1_555
C27P H15P 1_555 1_555
C28P C27P 1_555 1_555
H16P C28P 1_555 1_555
C29P C28P 1_555 1_555
C30P C29P 1_555 1_555
H17P C30P 1_555 1_555
C31P C26P 1_555 1_555
H18P C31P 1_555 1_555
C32P C29P 1_555 1_555
H19P C32P 1_555 1_555
C33P C32P 1_555 1_555
H20P C33P 1_555 1_555
C34P C33P 1_555 1_555
C35P C36 1_555 1_555
H21P C35P 1_555 1_555
C36P C35 1_555 1_555
C37A O5A 1_555 1_555
H22A C37A 1_555 1_555
H23A C37A 1_555 1_555
H24A C37A 1_555 1_555
C38P O9P 1_555 1_555
H25P C38P 1_555 1_555
H26P C38P 1_555 1_555
H27P C38P 1_555 1_555
C39A O6A 1_555 1_555
H28A C39A 1_555 1_555
H29A C39A 1_555 1_555
H30A C39A 1_555 1_555
O8 C25 1_555 1_555
C6 C7 1_555 1_555
C14 C15 1_555 1_555
C22 C23 1_555 1_555
C30 C31 1_555 1_555
C6A C7A 1_555 1_555
C14A C15A 1_555 1_555
C22A C23A 1_555 1_555
C30P C31P 1_555 1_555
C34P C35P 1_555 1_555
C34P C36P 1_555 1_555

#END
