
#######################################################################
#
#                 Cambridge Crystallographic Data Centre
#                                CCDC 
#
#######################################################################
#
# If this CIF has been generated from an entry in the Cambridge 
# Structural Database, then it will include bibliographic, chemical, 
# crystal, experimental, refinement or atomic coordinate data resulting 
# from the CCDC's data processing and validation procedures.
#
#######################################################################

data_JUXZOT
_chemical_formula_moiety         '(C27 H25 Cd1 N2 O9 1-)n'
_symmetry_cell_setting           monoclinic
_symmetry_space_group_name_H-M   'C 2/c'
_symmetry_Int_Tables_number      15
_space_group_name_Hall           '-C 2yc'
loop_
_symmetry_equiv_pos_site_id
_symmetry_equiv_pos_as_xyz
1 x,y,z
2 -x,y,1/2-z
3 1/2+x,1/2+y,z
4 1/2-x,1/2+y,1/2-z
5 -x,-y,-z
6 x,-y,1/2+z
7 1/2-x,1/2-y,-z
8 1/2+x,1/2-y,1/2+z
_cell_length_a                   24.308(2)
_cell_length_b                   9.3640(7)
_cell_length_c                   19.1309(18)
_cell_angle_alpha                90
_cell_angle_beta                 125.636(2)
_cell_angle_gamma                90
_cell_volume                     3539.12
loop_
_atom_site_label
_atom_site_type_symbol
_atom_site_fract_x
_atom_site_fract_y
_atom_site_fract_z
_atom_site_U_iso_or_equiv
_atom_site_thermal_displace_type
Cd1 Cd 0.5000 0.49656(3) 0.2500 0.0226 Uani
O1 O 0.62315(10) 0.4652(2) 0.37229(13) 0.0438 Uani
O2 O 0.57286(9) 0.6758(2) 0.34033(12) 0.0440 Uani
O3 O 0.53089(12) 0.5405(3) 0.66387(14) 0.0558 Uani
O4 O 0.54353(11) 0.7682(3) 0.70250(13) 0.0551 Uani
C1 C 0.62379(12) 0.5969(3) 0.38313(15) 0.0283 Uani
C2 C 0.55090(13) 0.6661(3) 0.66683(16) 0.0384 Uani
C3 C 0.73495(12) 0.6856(3) 0.42668(15) 0.0270 Uani
H1 H 0.7246 0.6409 0.3769 0.0320 Uiso
C4 C 0.69011(12) 0.6713(3) 0.44869(14) 0.0246 Uani
C5 C 0.70520(12) 0.7363(3) 0.52448(14) 0.0246 Uani
C6 C 0.66134(12) 0.7213(3) 0.55521(15) 0.0262 Uani
C7 C 0.62844(14) 0.5932(3) 0.54605(17) 0.0340 Uani
H2 H 0.6312 0.5175 0.5168 0.0410 Uiso
C8 C 0.59180(14) 0.5776(3) 0.57998(17) 0.0364 Uani
H3 H 0.5696 0.4919 0.5724 0.0440 Uiso
C9 C 0.58755(13) 0.6879(3) 0.62525(15) 0.0307 Uani
C10 C 0.61882(14) 0.8167(3) 0.63275(17) 0.0367 Uani
H4 H 0.6151 0.8928 0.6610 0.0440 Uiso
C11 C 0.65549(13) 0.8334(3) 0.59862(17) 0.0345 Uani
H5 H 0.6764 0.9202 0.6047 0.0410 Uiso
O1F O 0.87685(10) 1.0348(2) 0.62771(13) 0.0438 Uani
O2F O 0.92714(9) 0.8242(2) 0.65967(12) 0.0440 Uani
O3F O 0.96911(12) 0.9595(3) 0.33613(14) 0.0558 Uani
O4F O 0.95647(11) 0.7318(3) 0.29750(13) 0.0551 Uani
C1F C 0.87621(12) 0.9031(3) 0.61687(15) 0.0283 Uani
C2F C 0.94910(13) 0.8339(3) 0.33317(16) 0.0384 Uani
C3F C 0.76505(12) 0.8144(3) 0.57332(15) 0.0270 Uani
H1F H 0.7754 0.8591 0.6231 0.0320 Uiso
C4F C 0.80989(12) 0.8287(3) 0.55131(14) 0.0246 Uani
C5F C 0.79480(12) 0.7637(3) 0.47552(14) 0.0246 Uani
C6F C 0.83866(12) 0.7787(3) 0.44479(15) 0.0262 Uani
C7F C 0.87156(14) 0.9068(3) 0.45395(17) 0.0340 Uani
H2F H 0.8688 0.9825 0.4832 0.0410 Uiso
C8F C 0.90820(14) 0.9224(3) 0.42002(17) 0.0364 Uani
H3F H 0.9304 1.0081 0.4276 0.0440 Uiso
C9F C 0.91245(13) 0.8121(3) 0.37475(15) 0.0307 Uani
C10F C 0.88118(14) 0.6833(3) 0.36725(17) 0.0367 Uani
H4F H 0.8849 0.6072 0.3390 0.0440 Uiso
C11F C 0.84451(13) 0.6666(3) 0.40138(17) 0.0345 Uani
H5F H 0.8236 0.5798 0.3953 0.0410 Uiso
Cd1B Cd 1.0000 0.99656(3) 0.2500 0.0226 Uani
Cd1D Cd 0.5000 0.50344(3) 0.7500 0.0226 Uani
Cd1F Cd 1.0000 1.00344(3) 0.7500 0.0226 Uani
O1A O 0.37685(10) 0.4652(2) 0.12771(13) 0.0438 Uani
O2A O 0.42714(9) 0.6758(2) 0.15967(12) 0.0440 Uani
O3D O 0.46911(12) 0.4595(3) 0.33613(14) 0.0558 Uani
O3E O 0.53089(12) 0.4595(3) 0.16387(14) 0.0558 Uani
N1 N 0.60115(17) 0.2015(3) 0.61512(18) 0.0666 Uani
O5 O 0.64070(15) 0.2083(3) 0.53280(16) 0.0754 Uani
C12 C 0.5947(2) 0.1938(4) 0.5415(2) 0.0614 Uani
H6 H 0.5516 0.1759 0.4921 0.0740 Uiso
C13 C 0.5423(3) 0.1853(5) 0.6173(3) 0.1043 Uani
H7 H 0.5024 0.1715 0.5599 0.1560 Uiso
H8 H 0.5371 0.2697 0.6415 0.1560 Uiso
H9 H 0.5487 0.1041 0.6520 0.1560 Uiso
C14 C 0.6654(3) 0.2329(6) 0.6935(3) 0.1190 Uani
H10 H 0.7001 0.2262 0.6843 0.1790 Uiso
H11 H 0.6745 0.1658 0.7370 0.1790 Uiso
H12 H 0.6647 0.3279 0.7119 0.1790 Uiso
N2 N 0.62259(15) 0.8459(3) 0.87438(17) 0.0566 Uani
H13 H 0.6246 0.7996 0.9171 0.0680 Uiso
H14 H 0.5954 0.7952 0.8258 0.0680 Uiso
C15 C 0.5921(2) 0.9872(4) 0.8633(3) 0.0807 Uani
H15 H 0.6192 1.0402 0.9159 0.1210 Uiso
H16 H 0.5472 0.9757 0.8486 0.1210 Uiso
H17 H 0.5898 1.0378 0.8181 0.1210 Uiso
C16 C 0.6908(2) 0.8499(5) 0.8943(3) 0.0932 Uani
H18 H 0.6900 0.9050 0.8513 0.1390 Uiso
H19 H 0.7054 0.7544 0.8948 0.1390 Uiso
H20 H 0.7216 0.8929 0.9497 0.1390 Uiso
loop_
_atom_site_aniso_label
_atom_site_aniso_U_11
_atom_site_aniso_U_22
_atom_site_aniso_U_33
_atom_site_aniso_U_23
_atom_site_aniso_U_13
_atom_site_aniso_U_12
Cd1 0.02024(14) 0.02913(15) 0.02209(13) 0.000 0.01434(11) 0.000
O1 0.0353(11) 0.0388(12) 0.0504(12) -0.0135(9) 0.0210(10) -0.0078(8)
O2 0.0280(11) 0.0394(11) 0.0449(11) -0.0034(9) 0.0100(9) -0.0049(9)
O3 0.0636(15) 0.0766(16) 0.0519(13) -0.0111(11) 0.0476(12) -0.0280(12)
O4 0.0594(14) 0.0773(16) 0.0518(12) -0.0044(11) 0.0455(12) 0.0077(12)
C1 0.0259(14) 0.0380(16) 0.0255(13) -0.0022(11) 0.0176(12) -0.0059(12)
C2 0.0293(15) 0.060(2) 0.0284(14) 0.0017(13) 0.0183(13) -0.0036(14)
C3 0.0281(13) 0.0337(14) 0.0216(12) -0.0022(10) 0.0158(11) -0.0035(11)
C4 0.0225(13) 0.0264(13) 0.0254(12) 0.0026(10) 0.0143(11) -0.0008(10)
C5 0.0242(13) 0.0283(13) 0.0246(12) 0.0027(10) 0.0161(11) -0.0006(10)
C6 0.0260(13) 0.0329(14) 0.0256(12) -0.0003(10) 0.0184(11) -0.0020(11)
C7 0.0446(17) 0.0312(15) 0.0410(15) -0.0095(12) 0.0333(14) -0.0081(12)
C8 0.0437(17) 0.0356(16) 0.0421(15) -0.0046(12) 0.0319(14) -0.0135(13)
C9 0.0317(14) 0.0398(16) 0.0291(13) 0.0002(11) 0.0225(12) -0.0013(12)
C10 0.0489(17) 0.0336(15) 0.0446(16) -0.0068(12) 0.0368(15) -0.0022(13)
C11 0.0401(16) 0.0296(15) 0.0441(16) -0.0052(12) 0.0304(14) -0.0084(12)
O1F 0.0353 0.0388 0.0504 -0.0135 0.021 -0.0078
O2F 0.028 0.0394 0.0449 -0.0034 0.01 -0.0049
O3F 0.0636 0.0766 0.0519 -0.0111 0.0476 -0.028
O4F 0.0594 0.0773 0.0518 -0.0044 0.0455 0.0077
C1F 0.0259 0.038 0.0255 -0.0022 0.0176 -0.0059
C2F 0.0293 0.06 0.0284 0.0017 0.0183 -0.0036
C3F 0.0281 0.0337 0.0216 -0.0022 0.0158 -0.0035
C4F 0.0225 0.0264 0.0254 0.0026 0.0143 -0.0008
C5F 0.0242 0.0283 0.0246 0.0027 0.0161 -0.0006
C6F 0.026 0.0329 0.0256 -0.0003 0.0184 -0.002
C7F 0.0446 0.0312 0.041 -0.0095 0.0333 -0.0081
C8F 0.0437 0.0356 0.0421 -0.0046 0.0319 -0.0135
C9F 0.0317 0.0398 0.0291 0.0002 0.0225 -0.0013
C10F 0.0489 0.0336 0.0446 -0.0068 0.0368 -0.0022
C11F 0.0401 0.0296 0.0441 -0.0052 0.0304 -0.0084
Cd1B 0.02024 0.02913 0.02209 0 0.01434 0
Cd1D 0.02024 0.02913 0.02209 0 0.01434 0
Cd1F 0.02024 0.02913 0.02209 0 0.01434 0
O1A 0.0353 0.0388 0.0504 0.0135 0.021 0.0078
O2A 0.028 0.0394 0.0449 0.0034 0.01 0.0049
O3D 0.0636 0.0766 0.0519 -0.0111 0.0476 -0.028
O3E 0.0636 0.0766 0.0519 0.0111 0.0476 0.028
N1 0.103(3) 0.0492(17) 0.0595(19) 0.0010(14) 0.054(2) 0.0061(17)
O5 0.099(2) 0.0713(18) 0.0688(16) 0.0016(13) 0.0562(17) 0.0033(16)
C12 0.074(3) 0.048(2) 0.051(2) 0.0032(16) 0.030(2) 0.0112(19)
C13 0.143(5) 0.090(3) 0.129(4) 0.026(3) 0.107(4) 0.033(3)
C14 0.149(5) 0.121(4) 0.050(3) -0.017(3) 0.037(3) -0.023(4)
N2 0.083(2) 0.0398(15) 0.0468(15) -0.0073(12) 0.0377(16) -0.0156(14)
C15 0.112(4) 0.047(2) 0.067(2) -0.0113(18) 0.043(3) -0.001(2)
C16 0.082(3) 0.102(4) 0.089(3) 0.008(3) 0.046(3) -0.011(3)
loop_
_geom_bond_atom_site_label_1
_geom_bond_atom_site_label_2
_geom_bond_site_symmetry_1
_geom_bond_site_symmetry_2
Cd1 O1 1_555 1_555
O1 C1 1_555 1_555
O2 Cd1 1_555 1_555
O3 C2 1_555 1_555
O4 C2 1_555 1_555
C1 O2 1_555 1_555
C2 C9 1_555 1_555
C3 H1 1_555 1_555
C4 C1 1_555 1_555
C5 C4 1_555 1_555
C6 C5 1_555 1_555
C7 C6 1_555 1_555
H2 C7 1_555 1_555
C8 C7 1_555 1_555
H3 C8 1_555 1_555
C9 C8 1_555 1_555
C10 C9 1_555 1_555
H4 C10 1_555 1_555
C11 C6 1_555 1_555
H5 C11 1_555 1_555
N1 C12 1_555 1_555
O5 C12 1_555 1_555
C12 H6 1_555 1_555
C13 N1 1_555 1_555
H7 C13 1_555 1_555
H8 C13 1_555 1_555
H9 C13 1_555 1_555
C14 N1 1_555 1_555
H10 C14 1_555 1_555
H11 C14 1_555 1_555
H12 C14 1_555 1_555
N2 H13 1_555 1_555
H14 N2 1_555 1_555
C15 N2 1_555 1_555
H15 C15 1_555 1_555
H16 C15 1_555 1_555
H17 C15 1_555 1_555
C16 N2 1_555 1_555
H18 C16 1_555 1_555
H19 C16 1_555 1_555
H20 C16 1_555 1_555
O1F C1F 1_555 1_555
O2F C1F 1_555 1_555
O3F C2F 1_555 1_555
O4F C2F 1_555 1_555
C1F C4F 1_555 1_555
C2F C9F 1_555 1_555
C3F C5 1_555 1_555
H1F C3F 1_555 1_555
C4F C3F 1_555 1_555
C5F C3 1_555 1_555
C6F C5F 1_555 1_555
C7F C6F 1_555 1_555
H2F C7F 1_555 1_555
C8F C7F 1_555 1_555
H3F C8F 1_555 1_555
C9F C8F 1_555 1_555
C10F C9F 1_555 1_555
H4F C10F 1_555 1_555
C11F C6F 1_555 1_555
H5F C11F 1_555 1_555
Cd1B O3F 1_555 1_555
Cd1D O3 1_555 1_555
Cd1F O1F 1_555 1_555
O1A Cd1 1_555 1_555
O2A Cd1 1_555 1_555
O3D Cd1 1_555 1_555
O3E Cd1 1_555 1_555
C3 C4 1_555 1_555
C10 C11 1_555 1_555
O2F Cd1F 1_555 1_555
C4F C5F 1_555 1_555
C10F C11F 1_555 1_555

#END
