
#######################################################################
#
#                 Cambridge Crystallographic Data Centre
#                                CCDC 
#
#######################################################################
#
# If this CIF has been generated from an entry in the Cambridge 
# Structural Database, then it will include bibliographic, chemical, 
# crystal, experimental, refinement or atomic coordinate data resulting 
# from the CCDC's data processing and validation procedures.
#
#######################################################################

data_JUYBEM
_chemical_formula_moiety         'C52 H28 Cd12 O28'
_symmetry_cell_setting           monoclinic
_symmetry_space_group_name_H-M   'C 2/m'
_symmetry_Int_Tables_number      12
_space_group_name_Hall           '-C 2y'
loop_
_symmetry_equiv_pos_site_id
_symmetry_equiv_pos_as_xyz
1 x,y,z
2 -x,y,-z
3 1/2+x,1/2+y,z
4 1/2-x,1/2+y,-z
5 -x,-y,-z
6 x,-y,z
7 1/2-x,1/2-y,-z
8 1/2+x,1/2-y,z
_cell_length_a                   28.286(3)
_cell_length_b                   9.8876(12)
_cell_length_c                   10.4994(6)
_cell_angle_alpha                90
_cell_angle_beta                 108.083(2)
_cell_angle_gamma                90
_cell_volume                     2791.44
loop_
_atom_site_label
_atom_site_type_symbol
_atom_site_fract_x
_atom_site_fract_y
_atom_site_fract_z
Cd1 Cd 0.5000 0.5000 0.5000
Cd2 Cd 0.60066(3) 0.5000 0.79285(7)
O1 O 0.0727(3) 1.0000 0.4620(8)
O2 O 0.1396(3) 1.0000 0.6415(7)
O3 O 0.0915(3) 1.0000 0.0079(8)
O4 O 0.1679(3) 1.0000 -0.0109(7)
O5 O 0.5315(2) 0.6416(7) 0.6799(6)
O6 O 0.59808(19) 0.7454(6) 0.7962(6)
C1 C 0.1185(4) 1.0000 0.5202(11)
C2 C 0.1378(5) 1.0000 0.0605(12)
C3 C 0.1514(4) 1.0000 0.4300(10)
C4 C 0.1286(5) 1.0000 0.2906(11)
H1 H 0.0942 1.0000 0.2533
C5 C 0.1607(4) 1.0000 0.2081(11)
C6 C 0.2128(5) 1.0000 0.2655(12)
H2 H 0.2331 1.0000 0.2108
C7 C 0.2337(4) 1.0000 0.4035(11)
C8 C 0.2032(4) 1.0000 0.4899(10)
H3 H 0.2173 1.0000 0.5825
C9 C 0.5542(3) 0.7499(9) 0.7240(8)
C10 C 0.5516(4) 1.0000 0.7241(10)
H4 H 0.5859 1.0000 0.7640
C11 C 0.5269(3) 0.8797(9) 0.6954(7)
C12 C 0.4750(3) 0.8813(9) 0.6431(7)
H5 H 0.4580 0.7995 0.6254
C13 C 0.4483(4) 1.0000 0.6170(10)
C14 C 0.3936(4) 1.0000 0.5619(11)
C15 C 0.3696(5) 1.1068(19) 0.4797(16)
H6 H 0.3882 1.1772 0.4608
C16 C 0.3165(6) 1.106(2) 0.4222(17)
H7 H 0.3002 1.1731 0.3631
C17 C 0.2899(4) 1.0000 0.4639(12)
C18 C 0.3118(6) 0.904(2) 0.5488(17)
H8 H 0.2928 0.8369 0.5719
C19 C 0.3649(6) 0.896(2) 0.6041(18)
H9 H 0.3799 0.8289 0.6657
O5E O 0.5315(2) 1.3584(7) 0.6799(6)
O6E O 0.59808(19) 1.2546(6) 0.7962(6)
C9E C 0.5542(3) 1.2501(9) 0.7240(8)
C11E C 0.5269(3) 1.1203(9) 0.6954(7)
C12E C 0.4750(3) 1.1187(9) 0.6431(7)
H5E H 0.4580 1.2005 0.6254
C15E C 0.3696(5) 0.8932(19) 0.4797(16)
H6E H 0.3882 0.8228 0.4608
C16E C 0.3165(6) 0.894(2) 0.4222(17)
H7E H 0.3002 0.8269 0.3631
C18E C 0.3118(6) 1.096(2) 0.5488(17)
H8E H 0.2928 1.1631 0.5719
C19E C 0.3649(6) 1.104(2) 0.6041(18)
H9E H 0.3799 1.1711 0.6657
Cd2A Cd 0.39934(3) 0.5000 0.20715(7)
O1A O 0.9273(3) 1.0000 0.5380(8)
O2A O 0.8604(3) 1.0000 0.3585(7)
O3A O 0.9085(3) 1.0000 0.9921(8)
O4A O 0.8321(3) 1.0000 1.0109(7)
O5A O 0.4685(2) 0.6416(7) 0.3201(6)
O6A O 0.40192(19) 0.7454(6) 0.2038(6)
C1A C 0.8815(4) 1.0000 0.4798(11)
C2A C 0.8622(5) 1.0000 0.9395(12)
C3A C 0.8486(4) 1.0000 0.5700(10)
C4A C 0.8714(5) 1.0000 0.7094(11)
H1A H 0.9058 1.0000 0.7467
C5A C 0.8393(4) 1.0000 0.7919(11)
C6A C 0.7872(5) 1.0000 0.7345(12)
H2A H 0.7669 1.0000 0.7892
C7A C 0.7663(4) 1.0000 0.5965(11)
C8A C 0.7968(4) 1.0000 0.5101(10)
H3A H 0.7827 1.0000 0.4175
C9A C 0.4458(3) 0.7499(9) 0.2760(8)
C10A C 0.4484(4) 1.0000 0.2759(10)
H4A H 0.4141 1.0000 0.2360
C11A C 0.4731(3) 0.8797(9) 0.3046(7)
C12A C 0.5250(3) 0.8813(9) 0.3569(7)
H5A H 0.5420 0.7995 0.3746
C13A C 0.5517(4) 1.0000 0.3830(10)
C14A C 0.6064(4) 1.0000 0.4381(11)
C15A C 0.6304(5) 1.1068(19) 0.5203(16)
H6A H 0.6118 1.1772 0.5392
C16A C 0.6835(6) 1.106(2) 0.5778(17)
H7A H 0.6998 1.1731 0.6369
C17A C 0.7101(4) 1.0000 0.5361(12)
C18A C 0.6882(6) 0.904(2) 0.4512(17)
H8A H 0.7072 0.8369 0.4281
C19A C 0.6351(6) 0.896(2) 0.3959(18)
H9A H 0.6201 0.8289 0.3343
O5D O 0.4685(2) 1.3584(7) 0.3201(6)
O6D O 0.40192(19) 1.2546(6) 0.2038(6)
C9D C 0.4458(3) 1.2501(9) 0.2760(8)
C11D C 0.4731(3) 1.1203(9) 0.3046(7)
C12D C 0.5250(3) 1.1187(9) 0.3569(7)
H5D H 0.5420 1.2005 0.3746
C15D C 0.6304(5) 0.8932(19) 0.5203(16)
H6D H 0.6118 0.8228 0.5392
C16D C 0.6835(6) 0.894(2) 0.5778(17)
H7D H 0.6998 0.8269 0.6369
C18D C 0.6882(6) 1.096(2) 0.4512(17)
H8D H 0.7072 1.1631 0.4281
C19D C 0.6351(6) 1.104(2) 0.3959(18)
H9D H 0.6201 1.1711 0.3343
Cd1_2 Cd 0.5000 1.5000 0.5000
Cd1B Cd 0.0000 1.0000 0.5000
Cd1B_2 Cd 1.0000 1.0000 0.5000
Cd2_2 Cd 0.60066(3) 1.5000 0.79285(7)
Cd2A_2 Cd 0.39934(3) 1.5000 0.20715(7)
Cd2B Cd 0.10066(3) 1.0000 -0.20715(7)
Cd2B_2 Cd 0.10066(3) 1.0000 0.79285(7)
Cd2C Cd 0.89934(3) 1.0000 0.20715(7)
Cd2C_2 Cd 0.89934(3) 1.0000 1.20715(7)
O1B O 0.5727(3) 0.5000 0.4620(8)
O1C O 0.4273(3) 0.5000 0.5380(8)
O2B O 0.6396(3) 0.5000 0.6415(7)
O2C O 0.3604(3) 0.5000 0.3585(7)
O3B O 0.5915(3) 0.5000 1.0079(8)
O3C O 0.4085(3) 0.5000 -0.0079(8)
O4B O 0.6679(3) 0.5000 0.9891(7)
O4C O 0.3321(3) 0.5000 0.0109(7)
O5D_2 O 0.4685(2) 0.3584(7) 0.3201(6)
O5E_2 O 0.5315(2) 0.3584(7) 0.6799(6)
O6D_2 O 0.40192(19) 0.2546(6) 0.2038(6)
O6E_2 O 0.59808(19) 0.2546(6) 0.7962(6)
loop_
_geom_bond_atom_site_label_1
_geom_bond_atom_site_label_2
_geom_bond_site_symmetry_1
_geom_bond_site_symmetry_2
Cd1 O5 1_555 1_555
Cd2 O5 1_555 1_555
O1 C1 1_555 1_555
O2 C1 1_555 1_555
O3 C2 1_555 1_555
O4 C2 1_555 1_555
O5 C9 1_555 1_555
O6 Cd2 1_555 1_555
C1 C3 1_555 1_555
C2 C5 1_555 1_555
C3 C4 1_555 1_555
C4 H1 1_555 1_555
C5 C4 1_555 1_555
C6 C5 1_555 1_555
H2 C6 1_555 1_555
C7 C6 1_555 1_555
C8 C3 1_555 1_555
H3 C8 1_555 1_555
C9 O6 1_555 1_555
C10 H4 1_555 1_555
C11 C9 1_555 1_555
C12 C11 1_555 1_555
H5 C12 1_555 1_555
C13 C12 1_555 1_555
C14 C13 1_555 1_555
C15 C14 1_555 1_555
H6 C15 1_555 1_555
C16 C15 1_555 1_555
H7 C16 1_555 1_555
C17 C7 1_555 1_555
C18 C17 1_555 1_555
H8 C18 1_555 1_555
C19 C14 1_555 1_555
H9 C19 1_555 1_555
O5E C9E 1_555 1_555
O6E C9E 1_555 1_555
C9E C11E 1_555 1_555
C11E C10 1_555 1_555
C12E C13 1_555 1_555
H5E C12E 1_555 1_555
C15E C14 1_555 1_555
H6E C15E 1_555 1_555
C16E C17 1_555 1_555
H7E C16E 1_555 1_555
C18E C16 1_555 1_555
H8E C18E 1_555 1_555
C19E C14 1_555 1_555
H9E C19E 1_555 1_555
Cd2A O5A 1_555 1_555
O1A C1A 1_555 1_555
O2A C1A 1_555 1_555
O3A C2A 1_555 1_555
O4A C2A 1_555 1_555
O5A Cd1 1_555 1_555
O6A Cd2A 1_555 1_555
C1A C3A 1_555 1_555
C2A C5A 1_555 1_555
C3A C4A 1_555 1_555
C4A H1A 1_555 1_555
C5A C4A 1_555 1_555
C6A C5A 1_555 1_555
H2A C6A 1_555 1_555
C7A C6A 1_555 1_555
C8A C3A 1_555 1_555
H3A C8A 1_555 1_555
C9A O5A 1_555 1_555
C10A H4A 1_555 1_555
C11A C9A 1_555 1_555
C12A C11A 1_555 1_555
H5A C12A 1_555 1_555
C13A C12A 1_555 1_555
C14A C13A 1_555 1_555
C15A C14A 1_555 1_555
H6A C15A 1_555 1_555
C16A C15A 1_555 1_555
H7A C16A 1_555 1_555
C17A C7A 1_555 1_555
C18A C17A 1_555 1_555
H8A C18A 1_555 1_555
C19A C14A 1_555 1_555
H9A C19A 1_555 1_555
O5D C9D 1_555 1_555
O6D C9D 1_555 1_555
C9D C11D 1_555 1_555
C11D C10A 1_555 1_555
C12D C13A 1_555 1_555
H5D C12D 1_555 1_555
C15D C14A 1_555 1_555
H6D C15D 1_555 1_555
C16D C17A 1_555 1_555
H7D C16D 1_555 1_555
C18D C16A 1_555 1_555
H8D C18D 1_555 1_555
C19D C14A 1_555 1_555
H9D C19D 1_555 1_555
Cd1_2 O5E 1_555 1_555
Cd1B O1 1_555 1_555
Cd1B_2 O1A 1_555 1_555
Cd2_2 O5E 1_555 1_555
Cd2A_2 O5D 1_555 1_555
Cd2B O3 1_555 1_555
Cd2B_2 O2 1_555 1_555
Cd2C O2A 1_555 1_555
Cd2C_2 O3A 1_555 1_555
O1B Cd1 1_555 1_555
O1C Cd1 1_555 1_555
O2B Cd2 1_555 1_555
O2C Cd2A 1_555 1_555
O3B Cd2 1_555 1_555
O3C Cd2A 1_555 1_555
O4B Cd2 1_555 1_555
O4C Cd2A 1_555 1_555
O5D_2 Cd1 1_555 1_555
O5E_2 Cd1 1_555 1_555
O6D_2 Cd2A 1_555 1_555
O6E_2 Cd2 1_555 1_555
Cd2 O5E_2 1_555 1_555
O4 Cd2B 1_555 1_555
C7 C8 1_555 1_555
C10 C11 1_555 1_555
C15 C19E 1_555 1_555
C16 C17 1_555 1_555
C17 C18E 1_555 1_555
C18 C19 1_555 1_555
C18 C16E 1_555 1_555
C19 C15E 1_555 1_555
O6E Cd2_2 1_555 1_555
C11E C12E 1_555 1_555
C15E C16E 1_555 1_555
C18E C19E 1_555 1_555
Cd2A O5D_2 1_555 1_555
O4A Cd2C_2 1_555 1_555
O6A C9A 1_555 1_555
C7A C8A 1_555 1_555
C10A C11A 1_555 1_555
C15A C19D 1_555 1_555
C16A C17A 1_555 1_555
C17A C18D 1_555 1_555
C18A C19A 1_555 1_555
C18A C16D 1_555 1_555
C19A C15D 1_555 1_555
O5D Cd1_2 1_555 1_555
O6D Cd2A_2 1_555 1_555
C11D C12D 1_555 1_555
C15D C16D 1_555 1_555
C18D C19D 1_555 1_555

#END
