
#######################################################################
#
#                 Cambridge Crystallographic Data Centre
#                                CCDC 
#
#######################################################################
#
# If this CIF has been generated from an entry in the Cambridge 
# Structural Database, then it will include bibliographic, chemical, 
# crystal, experimental, refinement or atomic coordinate data resulting 
# from the CCDC's data processing and validation procedures.
#
#######################################################################

data_NARPUU
_chemical_formula_moiety         '(C24 H4 F12 Nd2 O14)n'
_symmetry_cell_setting           monoclinic
_symmetry_space_group_name_H-M   'P 21/c'
_symmetry_Int_Tables_number      14
_space_group_name_Hall           '-P 2ybc'
loop_
_symmetry_equiv_pos_site_id
_symmetry_equiv_pos_as_xyz
1 x,y,z
2 -x,1/2+y,1/2-z
3 -x,-y,-z
4 x,1/2-y,1/2+z
_cell_length_a                   10.205(5)
_cell_length_b                   21.215(5)
_cell_length_c                   7.866(5)
_cell_angle_alpha                90
_cell_angle_beta                 98.642(5)
_cell_angle_gamma                90
_cell_volume                     1683.65
loop_
_atom_site_label
_atom_site_type_symbol
_atom_site_fract_x
_atom_site_fract_y
_atom_site_fract_z
C1 C 0.5000(9) 0.1269(4) -0.3651(10)
C2 C 0.4991(8) 0.0608(4) -0.4302(10)
C3 C 0.6151(10) 0.0299(5) -0.4438(14)
C4 C 0.3835(10) 0.0302(5) -0.4928(13)
C5 C 1.0898(8) 0.2083(4) -0.2794(11)
C6 C 1.1352(7) 0.2705(4) -0.2862(10)
C7 C 1.0520(8) 0.3178(4) -0.2514(11)
C8 C 0.9293(8) 0.3042(4) -0.2070(11)
C9 C 0.8850(7) 0.2433(4) -0.1951(10)
C10 C 0.9694(7) 0.1950(4) -0.2333(10)
C11 C 0.7515(8) 0.2280(4) -0.1430(10)
C12 C 1.2685(8) 0.2837(3) -0.3402(11)
O1 O 0.7453(5) 0.1897(3) -0.0306(7)
O2 O 0.6506(5) 0.2577(3) -0.2170(7)
O3 O 0.5128(8) 0.1696(3) -0.4703(8)
O4 O 0.4884(6) 0.1333(2) -0.2086(6)
O5 O 1.3703(5) 0.2595(3) -0.2534(7)
O6 O 0.5402(7) 0.1195(3) 0.1782(8)
O7 O 1.2755(5) 0.3158(3) -0.4661(7)
F1 F 0.2678(7) 0.0587(4) -0.4836(12)
F2 F 0.7309(7) 0.0590(3) -0.3873(13)
F3 F 0.9312(5) 0.1352(2) -0.2275(8)
F4 F 1.1646(5) 0.1611(2) -0.3236(7)
F5 F 0.8539(5) 0.3521(3) -0.1641(8)
F6 F 1.0892(5) 0.3781(2) -0.2574(8)
Nd1 Nd 0.50925(3) 0.21527(2) 0.00420(4)
C1B C 0.5000(9) -0.1269(4) -0.6349(10)
C2B C 0.5009(8) -0.0608(4) -0.5698(10)
C3B C 0.3849(10) -0.0299(5) -0.5562(14)
C4B C 0.6165(10) -0.0302(5) -0.5072(13)
O4B O 0.5116(6) -0.1333(2) -0.7914(6)
F1B F 0.7322(7) -0.0587(4) -0.5164(12)
F2B F 0.2691(7) -0.0590(3) -0.6127(13)
O3B O 0.4872(8) -0.1696(3) -0.5297(8)
C5B C -0.0898(8) -0.2083(4) -0.7206(11)
C6B C -0.1352(7) -0.2705(4) -0.7138(10)
C7B C -0.0520(8) -0.3178(4) -0.7486(11)
C8B C 0.0707(8) -0.3042(4) -0.7930(11)
C9B C 0.1150(7) -0.2433(4) -0.8049(10)
C10B C 0.0306(7) -0.1950(4) -0.7667(10)
C11B C 0.2485(8) -0.2280(4) -0.8570(10)
C12B C -0.2685(8) -0.2837(3) -0.6598(11)
O1B O 0.2547(5) -0.1897(3) -0.9694(7)
O2B O 0.3494(5) -0.2577(3) -0.7830(7)
O5B O -0.3703(5) -0.2595(3) -0.7466(7)
O6B O 0.4598(7) -0.1195(3) -1.1782(8)
O7B O -0.2755(5) -0.3158(3) -0.5339(7)
F3B F 0.0688(5) -0.1352(2) -0.7725(8)
F4B F -0.1646(5) -0.1611(2) -0.6764(7)
F5B F 0.1461(5) -0.3521(3) -0.8359(8)
F6B F -0.0892(5) -0.3781(2) -0.7426(8)
Nd1B Nd 0.49075(3) -0.21527(2) -1.00420(4)
O2A O 0.3494(5) -0.2423(3) -1.2830(7)
O2C O 0.6506(5) 0.2423(3) 0.2830(7)
O3A O 0.4872(8) -0.3304(3) -1.0297(8)
O3C O 0.5128(8) 0.3304(3) 0.0297(8)
O5_2 O 0.3703(5) 0.2595(3) -0.2534(7)
O5A O 0.6297(5) -0.2405(3) -1.2466(7)
O5B_2 O 0.6297(5) -0.2595(3) -0.7466(7)
O5C O 0.3703(5) 0.2405(3) 0.2466(7)
O7A O 0.7245(5) -0.1842(3) -1.0339(7)
O7C O 0.2755(5) 0.1842(3) 0.0339(7)
Nd1_2 Nd 1.50925(3) 0.21527(2) 0.00420(4)
Nd1A Nd -0.50925(3) -0.28473(2) -0.50420(4)
Nd1A_2 Nd 0.49075(3) -0.28473(2) -0.50420(4)
Nd1B_2 Nd -0.50925(3) -0.21527(2) -1.00420(4)
Nd1C Nd 0.50925(3) 0.28473(2) -0.49580(4)
Nd1C_2 Nd 1.50925(3) 0.28473(2) -0.49580(4)
loop_
_geom_bond_atom_site_label_1
_geom_bond_atom_site_label_2
_geom_bond_site_symmetry_1
_geom_bond_site_symmetry_2
C1 C2 1_555 1_555
C2 C3 1_555 1_555
C3 F2 1_555 1_555
C4 C2 1_555 1_555
C5 C6 1_555 1_555
C6 C7 1_555 1_555
C7 C8 1_555 1_555
C8 C9 1_555 1_555
C9 C10 1_555 1_555
C10 C5 1_555 1_555
C11 C9 1_555 1_555
C12 C6 1_555 1_555
O1 C11 1_555 1_555
O2 C11 1_555 1_555
O3 C1 1_555 1_555
O4 C1 1_555 1_555
O5 C12 1_555 1_555
O6 Nd1 1_555 1_555
O7 C12 1_555 1_555
F1 C4 1_555 1_555
F3 C10 1_555 1_555
F4 C5 1_555 1_555
F5 C8 1_555 1_555
F6 C7 1_555 1_555
Nd1 O1 1_555 1_555
C1B C2B 1_555 1_555
C2B C3B 1_555 1_555
C3B C4 1_555 1_555
C4B C3 1_555 1_555
O4B C1B 1_555 1_555
F1B C4B 1_555 1_555
F2B C3B 1_555 1_555
O3B C1B 1_555 1_555
C5B C6B 1_555 1_555
C6B C7B 1_555 1_555
C7B C8B 1_555 1_555
C8B C9B 1_555 1_555
C9B C10B 1_555 1_555
C10B C5B 1_555 1_555
C11B C9B 1_555 1_555
C12B C6B 1_555 1_555
O1B C11B 1_555 1_555
O2B C11B 1_555 1_555
O5B C12B 1_555 1_555
O6B Nd1B 1_555 1_555
O7B C12B 1_555 1_555
F3B C10B 1_555 1_555
F4B C5B 1_555 1_555
F5B C8B 1_555 1_555
F6B C7B 1_555 1_555
Nd1B O4B 1_555 1_555
O2A Nd1B 1_555 1_555
O2C Nd1 1_555 1_555
O3A Nd1B 1_555 1_555
O3C Nd1 1_555 1_555
O5_2 Nd1 1_555 1_555
O5A Nd1B 1_555 1_555
O5B_2 Nd1B 1_555 1_555
O5C Nd1 1_555 1_555
O7A Nd1B 1_555 1_555
O7C Nd1 1_555 1_555
Nd1_2 O5 1_555 1_555
Nd1A O5B 1_555 1_555
Nd1A_2 O3B 1_555 1_555
Nd1B_2 O5B 1_555 1_555
Nd1C O2 1_555 1_555
Nd1C_2 O5 1_555 1_555
O2 Nd1 1_555 1_555
O3 Nd1C 1_555 1_555
O4 Nd1 1_555 1_555
O7 Nd1C_2 1_555 1_555
C2B C4B 1_555 1_555
O1B Nd1B 1_555 1_555
O2B Nd1B 1_555 1_555
O2B Nd1A_2 1_555 1_555
O7B Nd1A 1_555 1_555
O5_2 Nd1C 1_555 1_555
O5B_2 Nd1A_2 1_555 1_555

#END
