
#######################################################################
#
#                 Cambridge Crystallographic Data Centre
#                                CCDC 
#
#######################################################################
#
# If this CIF has been generated from an entry in the Cambridge 
# Structural Database, then it will include bibliographic, chemical, 
# crystal, experimental, refinement or atomic coordinate data resulting 
# from the CCDC's data processing and validation procedures.
#
#######################################################################

data_NARPOO
_chemical_formula_moiety         '(C24 H4 F12 O14 Pr2)n'
_symmetry_cell_setting           monoclinic
_symmetry_space_group_name_H-M   'P 21/c'
_symmetry_Int_Tables_number      14
_space_group_name_Hall           '-P 2ybc'
loop_
_symmetry_equiv_pos_site_id
_symmetry_equiv_pos_as_xyz
1 x,y,z
2 -x,1/2+y,1/2-z
3 -x,-y,-z
4 x,1/2-y,1/2+z
_cell_length_a                   10.212(5)
_cell_length_b                   21.288(5)
_cell_length_c                   7.905(5)
_cell_angle_alpha                90
_cell_angle_beta                 98.851(5)
_cell_angle_gamma                90
_cell_volume                     1698.03
loop_
_atom_site_label
_atom_site_type_symbol
_atom_site_fract_x
_atom_site_fract_y
_atom_site_fract_z
Pr1 Pr 0.01055(4) 0.21505(2) 0.00493(6)
O1 O -0.1291(6) 0.2405(3) 0.2485(8)
O2 O -0.7536(6) 0.3101(3) 0.4703(8)
O3 O -0.2245(6) 0.1838(3) 0.0338(8)
F1 F -0.4106(6) 0.1227(3) 0.2416(9)
C1 C -0.2309(8) 0.2167(4) 0.1617(11)
O4 O -0.8478(5) 0.2420(3) 0.2829(8)
F2 F -0.3340(5) 0.3388(2) 0.1775(8)
C2 C -0.7471(8) 0.2720(4) 0.3570(11)
O5 O -0.0102(6) 0.1328(3) -0.2089(7)
O6 O 0.0432(7) 0.1187(3) 0.1806(9)
F3 F -0.5681(6) 0.3644(3) 0.2725(9)
F4 F -0.6437(5) 0.1478(3) 0.3378(9)
F5 F 0.2302(7) 0.0590(4) -0.3877(14)
C3 C -0.3637(8) 0.2301(4) 0.2116(11)
C4 C -0.4480(9) 0.1829(4) 0.2503(12)
C5 C 0.0003(9) 0.0602(4) -0.4333(11)
C6 C -0.6126(8) 0.2566(5) 0.3060(11)
C7 C 0.0007(10) 0.1272(4) -0.3636(12)
C8 C -0.5690(8) 0.1963(5) 0.2948(12)
C9 C -0.4089(9) 0.2920(4) 0.2216(11)
O7 O 0.0145(9) 0.1698(3) -0.4693(9)
C10 C 0.1175(10) 0.0296(5) -0.4422(14)
F6 F -0.2307(7) 0.0592(3) -0.4845(13)
C11 C -0.1169(10) 0.0299(4) -0.4916(13)
C12 C -0.5294(8) 0.3036(5) 0.2676(12)
O5B O 0.0102(6) -0.1328(3) -0.7911(7)
F5B F -0.2302(7) -0.0590(4) -0.6123(14)
C5B C -0.0003(9) -0.0602(4) -0.5667(11)
C7B C -0.0007(10) -0.1272(4) -0.6364(12)
C10B C -0.1175(10) -0.0296(5) -0.5578(14)
F6B F 0.2307(7) -0.0592(3) -0.5155(13)
C11B C 0.1169(10) -0.0299(4) -0.5084(13)
O7B O -0.0145(9) -0.1698(3) -0.5307(9)
Pr1B Pr -0.01055(4) -0.21505(2) -1.00493(6)
O1B O 0.1291(6) -0.2405(3) -1.2485(8)
O2B O 0.7536(6) -0.3101(3) -1.4703(8)
O3B O 0.2245(6) -0.1838(3) -1.0338(8)
F1B F 0.4106(6) -0.1227(3) -1.2416(9)
C1B C 0.2309(8) -0.2167(4) -1.1617(11)
O4B O 0.8478(5) -0.2420(3) -1.2829(8)
F2B F 0.3340(5) -0.3388(2) -1.1775(8)
C2B C 0.7471(8) -0.2720(4) -1.3570(11)
O6B O -0.0432(7) -0.1187(3) -1.1806(9)
F3B F 0.5681(6) -0.3644(3) -1.2725(9)
F4B F 0.6437(5) -0.1478(3) -1.3378(9)
C3B C 0.3637(8) -0.2301(4) -1.2116(11)
C4B C 0.4480(9) -0.1829(4) -1.2503(12)
C6B C 0.6126(8) -0.2566(5) -1.3060(11)
C8B C 0.5690(8) -0.1963(5) -1.2948(12)
C9B C 0.4089(9) -0.2920(4) -1.2216(11)
C12B C 0.5294(8) -0.3036(5) -1.2676(12)
Pr1_2 Pr -0.98945(4) 0.21505(2) 0.00493(6)
Pr1A Pr -0.01055(4) -0.28495(2) -1.50493(6)
Pr1A_2 Pr -0.01055(4) -0.28495(2) -0.50493(6)
Pr1A_3 Pr 0.98945(4) -0.28495(2) -1.50493(6)
Pr1B_2 Pr 0.98945(4) -0.21505(2) -1.00493(6)
Pr1C Pr -0.98945(4) 0.28495(2) 0.50493(6)
Pr1C_2 Pr 0.01055(4) 0.28495(2) -0.49507(6)
Pr1C_3 Pr 0.01055(4) 0.28495(2) 0.50493(6)
O1A O 0.1291(6) -0.2595(3) -0.7485(8)
O1C O -0.1291(6) 0.2595(3) -0.2515(8)
O2A O -0.2464(6) -0.1899(3) -0.9703(8)
O2C O 0.2464(6) 0.1899(3) -0.0297(8)
O4_2 O 0.1522(5) 0.2420(3) 0.2829(8)
O4A O -0.1522(5) -0.2580(3) -0.7829(8)
O4B_2 O -0.1522(5) -0.2420(3) -1.2829(8)
O4C O 0.1522(5) 0.2580(3) -0.2171(8)
O7A O -0.0145(9) -0.3302(3) -1.0307(9)
O7C O 0.0145(9) 0.3302(3) 0.0307(9)
loop_
_geom_bond_atom_site_label_1
_geom_bond_atom_site_label_2
_geom_bond_site_symmetry_1
_geom_bond_site_symmetry_2
Pr1 O1 1_555 1_555
O1 C1 1_555 1_555
O2 C2 1_555 1_555
O3 Pr1 1_555 1_555
F1 C4 1_555 1_555
C1 O3 1_555 1_555
O4 C2 1_555 1_555
F2 C9 1_555 1_555
C2 C6 1_555 1_555
O5 Pr1 1_555 1_555
O6 Pr1 1_555 1_555
F3 C12 1_555 1_555
F4 C8 1_555 1_555
F5 C10 1_555 1_555
C3 C1 1_555 1_555
C4 C3 1_555 1_555
C5 C7 1_555 1_555
C6 C8 1_555 1_555
C7 O5 1_555 1_555
C8 C4 1_555 1_555
C9 C3 1_555 1_555
O7 C7 1_555 1_555
C10 C5 1_555 1_555
F6 C11 1_555 1_555
C11 C5 1_555 1_555
C12 C6 1_555 1_555
O5B C7B 1_555 1_555
F5B C10B 1_555 1_555
C5B C7B 1_555 1_555
C7B O7B 1_555 1_555
C10B C11 1_555 1_555
F6B C11B 1_555 1_555
C11B C10 1_555 1_555
O7B Pr1A_2 1_555 1_555
Pr1B O5B 1_555 1_555
O1B Pr1B 1_555 1_555
O2B C2B 1_555 1_555
O3B Pr1B 1_555 1_555
F1B C4B 1_555 1_555
C1B O1B 1_555 1_555
O4B C2B 1_555 1_555
F2B C9B 1_555 1_555
C2B C6B 1_555 1_555
O6B Pr1B 1_555 1_555
F3B C12B 1_555 1_555
F4B C8B 1_555 1_555
C3B C1B 1_555 1_555
C4B C3B 1_555 1_555
C6B C8B 1_555 1_555
C8B C4B 1_555 1_555
C9B C3B 1_555 1_555
C12B C6B 1_555 1_555
Pr1_2 O4 1_555 1_555
Pr1A O1B 1_555 1_555
Pr1A_2 O1A 1_555 1_555
Pr1A_3 O2B 1_555 1_555
Pr1B_2 O4B 1_555 1_555
Pr1C O2 1_555 1_555
Pr1C_2 O7 1_555 1_555
Pr1C_3 O1 1_555 1_555
O1A Pr1B 1_555 1_555
O1C Pr1 1_555 1_555
O2A Pr1B 1_555 1_555
O2C Pr1 1_555 1_555
O4_2 Pr1 1_555 1_555
O4A Pr1B 1_555 1_555
O4B_2 Pr1B 1_555 1_555
O4C Pr1 1_555 1_555
O7A Pr1B 1_555 1_555
O7C Pr1 1_555 1_555
O4 Pr1C 1_555 1_555
C9 C12 1_555 1_555
C5B C10B 1_555 1_555
C5B C11B 1_555 1_555
O3B C1B 1_555 1_555
O4B Pr1A_3 1_555 1_555
C9B C12B 1_555 1_555
Pr1A O4B_2 1_555 1_555
Pr1A_2 O4A 1_555 1_555
Pr1C_2 O1C 1_555 1_555
Pr1C_2 O4C 1_555 1_555
Pr1C_3 O4_2 1_555 1_555

#END
