
#######################################################################
#
#                 Cambridge Crystallographic Data Centre
#                                CCDC 
#
#######################################################################
#
# If this CIF has been generated from an entry in the Cambridge 
# Structural Database, then it will include bibliographic, chemical, 
# crystal, experimental, refinement or atomic coordinate data resulting 
# from the CCDC's data processing and validation procedures.
#
#######################################################################

data_IJAPIU
_chemical_formula_moiety         'C26 H18 N4 O16 Zn8'
_symmetry_cell_setting           rhombohedral
_symmetry_space_group_name_H-M   'R -3 m'
_symmetry_Int_Tables_number      166
_space_group_name_Hall           '-R 3 2"'
loop_
_symmetry_equiv_pos_site_id
_symmetry_equiv_pos_as_xyz
1 x,y,z
2 -y,x-y,z
3 -x+y,-x,z
4 x-y,-y,-z
5 -x,-x+y,-z
6 y,x,-z
7 2/3+x,1/3+y,1/3+z
8 2/3-y,1/3+x-y,1/3+z
9 2/3-x+y,1/3-x,1/3+z
10 2/3+x-y,1/3-y,1/3-z
11 2/3-x,1/3-x+y,1/3-z
12 2/3+y,1/3+x,1/3-z
13 1/3+x,2/3+y,2/3+z
14 1/3-y,2/3+x-y,2/3+z
15 1/3-x+y,2/3-x,2/3+z
16 1/3+x-y,2/3-y,2/3-z
17 1/3-x,2/3-x+y,2/3-z
18 1/3+y,2/3+x,2/3-z
19 -x,-y,-z
20 y,-x+y,-z
21 x-y,x,-z
22 -x+y,y,z
23 x,x-y,z
24 -y,-x,z
25 1/3-x,2/3-y,2/3-z
26 1/3+y,2/3-x+y,2/3-z
27 1/3+x-y,2/3+x,2/3-z
28 1/3-x+y,2/3+y,2/3+z
29 1/3+x,2/3+x-y,2/3+z
30 1/3-y,2/3-x,2/3+z
31 2/3-x,1/3-y,1/3-z
32 2/3+y,1/3-x+y,1/3-z
33 2/3+x-y,1/3+x,1/3-z
34 2/3-x+y,1/3+y,1/3+z
35 2/3+x,1/3+x-y,1/3+z
36 2/3-y,1/3-x,1/3+z
_cell_length_a                   18.869(5)
_cell_length_b                   18.869(5)
_cell_length_c                   38.069(9)
_cell_angle_alpha                90
_cell_angle_beta                 90
_cell_angle_gamma                120
_cell_volume                     11738.2
loop_
_atom_site_label
_atom_site_type_symbol
_atom_site_fract_x
_atom_site_fract_y
_atom_site_fract_z
C1 C 0.09522(16) 0.64015(17) 0.97404(8)
C2 C 0.15345(16) 0.71971(17) 0.95716(7)
C3 C 0.19348(15) 0.80652(15) 0.90544(12)
C4 C 0.17826(18) 0.82174(18) 0.86840(12)
C5 C 0.22399(12) 0.77601(12) 0.97434(10)
H1 H 0.2335 0.7665 0.9974
C6 C 0.13842(19) 0.73535(19) 0.92297(8)
H2 H 0.0906 0.6974 0.9117
C7 C 0.2377(4) 0.8424(4) 0.84347(17)
H3 H 0.2877 0.8484 0.8504
C8 C 0.1062(4) 0.8118(5) 0.85842(18)
O1 O 0.11246(12) 0.62992(12) 1.00510(5)
O2 O 0.03473(13) 0.59172(13) 0.95688(5)
O3 O 0.1066(2) 0.55332(11) 1.07895(8)
N1 N 0.0385(11) 0.8014(10) 0.8832(3)
H4 H 0.0453 0.8017 0.9056
H5 H -0.0066 0.7953 0.8749
Zn1 Zn 0.05117(2) 0.525587(10) 1.032746(9)
C1W C 0.35985(17) 0.90478(16) 0.97404(8)
C2W C 0.28029(17) 0.84655(16) 0.95716(7)
C6W C 0.26465(19) 0.86158(19) 0.92297(8)
H2W H 0.3026 0.9094 0.9117
C7W C 0.1576(4) 0.7623(4) 0.84347(17)
H3W H 0.1516 0.7123 0.8504
C8W C 0.1882(5) 0.8938(4) 0.85842(18)
O1W O 0.37008(12) 0.88754(12) 1.00510(5)
O2W O 0.40828(13) 0.96527(13) 0.95688(5)
N1W N 0.1986(10) 0.9615(11) 0.8832(3)
H4W H 0.1983 0.9547 0.9056
H5W H 0.2047 1.0066 0.8749
C1X C 0.23811(16) 1.02652(17) 0.69263(8)
C2X C 0.17988(16) 0.94696(17) 0.70951(7)
C3Q C 0.13985(15) 0.86015(15) 0.76123(12)
C4Q C 0.15507(18) 0.84493(18) 0.79827(12)
C5Q C 0.10934(12) 0.89066(12) 0.69233(10)
H1Q H 0.0998 0.9002 0.6693
C6X C 0.19491(19) 0.93132(19) 0.74370(8)
H2X H 0.2427 0.9693 0.7550
C7X C 0.0956(4) 0.8243(4) 0.82320(17)
H3X H 0.0456 0.8183 0.8163
C8X C 0.2271(4) 0.8549(5) 0.80825(18)
O1X O 0.22087(12) 1.03675(12) 0.66157(5)
O2X O 0.29860(13) 1.07495(13) 0.70979(5)
N1X N 0.2948(11) 0.8653(10) 0.7835(3)
H4X H 0.2880 0.8650 0.7611
H5X H 0.3399 0.8714 0.7918
C1Q C -0.02652(17) 0.76189(16) 0.69263(8)
C2Q C 0.05304(17) 0.82012(16) 0.70951(7)
C6Q C 0.06868(19) 0.80509(19) 0.74370(8)
H2Q H 0.0307 0.7573 0.7550
C7Q C 0.1757(4) 0.9044(4) 0.82320(17)
H3Q H 0.1817 0.9544 0.8163
C8Q C 0.1451(5) 0.7729(4) 0.80825(18)
O1Q O -0.03675(12) 0.77913(12) 0.66157(5)
O2Q O -0.07495(13) 0.70140(13) 0.70979(5)
N1Q N 0.1347(10) 0.7052(11) 0.7835(3)
H4Q H 0.1350 0.7120 0.7611
H5Q H 0.1286 0.6601 0.7918
O3D O -0.1066(2) 0.44672(23) 0.92105(8)
Zn1D Zn -0.05117(2) 0.474417(22) 0.967254(9)
O1D O -0.11246(12) 0.51746(17) 0.99490(5)
O1R O -0.11246(12) 0.37008(12) 0.99490(5)
O1V O 0.11246(12) 0.48254(17) 1.00510(5)
O2D O -0.03473(13) 0.55699(18) 1.04312(5)
O2R O -0.03473(13) 0.40828(13) 1.04312(5)
O2V O 0.03473(13) 0.44301(18) 0.95688(5)
Zn1B Zn 0.474417(22) 0.94883(2) 1.032746(9)
Zn1E Zn 0.525587(10) 1.05117(2) 0.967254(9)
Zn1L Zn 0.38450(2) 1.192254(10) 0.699413(9)
Zn1N Zn -0.192250(22) 0.61550(2) 0.699413(9)
Zn1P Zn 0.28216(2) 1.141084(22) 0.633921(9)
Zn1Q Zn -0.141080(10) 0.71784(2) 0.633921(9)
loop_
_geom_bond_atom_site_label_1
_geom_bond_atom_site_label_2
_geom_bond_site_symmetry_1
_geom_bond_site_symmetry_2
C1 C2 1_555 1_555
C2 C5 1_555 1_555
C3 C4 1_555 1_555
C4 C7 1_555 1_555
C5 H1 1_555 1_555
C6 C2 1_555 1_555
H2 C6 1_555 1_555
C7 H3 1_555 1_555
C8 C4 1_555 1_555
O1 C1 1_555 1_555
O2 C1 1_555 1_555
O3 Zn1 1_555 1_555
N1 C8 1_555 1_555
H4 N1 1_555 1_555
H5 N1 1_555 1_555
Zn1 O1 1_555 1_555
C1W C2W 1_555 1_555
C2W C5 1_555 1_555
C6W C3 1_555 1_555
H2W C6W 1_555 1_555
C7W C4 1_555 1_555
H3W C7W 1_555 1_555
C8W C4 1_555 1_555
O1W C1W 1_555 1_555
O2W C1W 1_555 1_555
N1W C8W 1_555 1_555
H4W N1W 1_555 1_555
H5W N1W 1_555 1_555
C1X C2X 1_555 1_555
C2X C5Q 1_555 1_555
C3Q C4Q 1_555 1_555
C4Q C7X 1_555 1_555
C5Q H1Q 1_555 1_555
C6X C2X 1_555 1_555
H2X C6X 1_555 1_555
C7X C8 1_555 1_555
H3X C7X 1_555 1_555
C8X C7 1_555 1_555
O1X C1X 1_555 1_555
O2X C1X 1_555 1_555
N1X C8X 1_555 1_555
H4X N1X 1_555 1_555
H5X N1X 1_555 1_555
C1Q C2Q 1_555 1_555
C2Q C5Q 1_555 1_555
C6Q C3Q 1_555 1_555
H2Q C6Q 1_555 1_555
C7Q C8W 1_555 1_555
H3Q C7Q 1_555 1_555
C8Q C7W 1_555 1_555
O1Q C1Q 1_555 1_555
O2Q C1Q 1_555 1_555
N1Q C8Q 1_555 1_555
H4Q N1Q 1_555 1_555
H5Q N1Q 1_555 1_555
O3D Zn1D 1_555 1_555
Zn1D O2 1_555 1_555
O1D Zn1D 1_555 1_555
O1R Zn1D 1_555 1_555
O1V Zn1 1_555 1_555
O2D Zn1 1_555 1_555
O2R Zn1 1_555 1_555
O2V Zn1D 1_555 1_555
Zn1B O1W 1_555 1_555
Zn1E O2W 1_555 1_555
Zn1L O2X 1_555 1_555
Zn1N O2Q 1_555 1_555
Zn1P O1X 1_555 1_555
Zn1Q O1Q 1_555 1_555
C3 C6 1_555 1_555
C2W C6W 1_555 1_555
C3Q C6X 1_555 1_555
C4Q C8X 1_555 1_555
C4Q C7Q 1_555 1_555
C4Q C8Q 1_555 1_555
C2Q C6Q 1_555 1_555

#END
