
#######################################################################
#
#                 Cambridge Crystallographic Data Centre
#                                CCDC 
#
#######################################################################
#
# If this CIF has been generated from an entry in the Cambridge 
# Structural Database, then it will include bibliographic, chemical, 
# crystal, experimental, refinement or atomic coordinate data resulting 
# from the CCDC's data processing and validation procedures.
#
#######################################################################

data_PIZQIA
_chemical_formula_moiety         '(C19 H24 Cu2 N6 O6)n'
_symmetry_cell_setting           tetragonal
_symmetry_space_group_name_H-M   'P 41 21 2'
_symmetry_Int_Tables_number      92
_space_group_name_Hall           'P 4abw 2nw'
loop_
_symmetry_equiv_pos_site_id
_symmetry_equiv_pos_as_xyz
1 x,y,z
2 -x,-y,1/2+z
3 1/2-y,1/2+x,1/4+z
4 1/2+y,1/2-x,3/4+z
5 1/2-x,1/2+y,1/4-z
6 1/2+x,1/2-y,3/4-z
7 y,x,-z
8 -y,-x,1/2-z
_cell_length_a                   13.533(2)
_cell_length_b                   13.533(2)
_cell_length_c                   14.972(4)
_cell_angle_alpha                90
_cell_angle_beta                 90
_cell_angle_gamma                90
_cell_volume                     2742
loop_
_atom_site_label
_atom_site_type_symbol
_atom_site_fract_x
_atom_site_fract_y
_atom_site_fract_z
_atom_site_U_iso_or_equiv
_atom_site_thermal_displace_type
Cu1 Cu 0.47309(4) 0.20446(4) 0.03528(3) 0.0374 Uani
O1 O 0.2954(3) 0.3830(3) -0.1040(2) 0.0476 Uani
O2 O 0.5651(3) 0.1184(3) -0.2060(2) 0.0505 Uani
O3 O 0.5537(3) 0.1396(3) -0.0592(2) 0.0406 Uani
N1 N 0.4155(3) 0.2679(3) -0.0671(2) 0.0396 Uani
C1 C 0.4519(4) 0.2404(4) -0.1547(3) 0.0425 Uani
H1 H 0.3973 0.2136 -0.1901 0.0510 Uiso
C2 C 0.7052(4) 0.1725(3) 0.2175(3) 0.0411 Uani
N2 N 0.5519(3) 0.1230(4) 0.2043(3) 0.0465 Uani
H2 H 0.4961 0.0953 0.2158 0.0560 Uiso
C3 C 0.5295(4) 0.1588(3) -0.1394(3) 0.0381 Uani
C4 C 0.3472(4) 0.3322(3) -0.0504(3) 0.0379 Uani
C5 C 0.6326(5) 0.1155(4) 0.2567(4) 0.0517 Uani
C6 C 0.6623(4) 0.2097(4) 0.1385(3) 0.0440 Uani
N3 N 0.5694(3) 0.1790(3) 0.1315(3) 0.0401 Uani
C7 C 0.8093(4) 0.1907(4) 0.2500 0.0510 Uani
C8 C 0.6308(8) 0.0535(8) 0.3398(6) 0.0950 Uani
H3 H 0.5667 0.0239 0.3465 0.1430 Uiso
H4 H 0.6445 0.0943 0.3908 0.1430 Uiso
H5 H 0.6799 0.0025 0.3355 0.1430 Uiso
C9 C 0.7088(7) 0.2735(9) 0.0680(5) 0.0947 Uani
H6 H 0.6613 0.2869 0.0219 0.1420 Uiso
H7 H 0.7646 0.2398 0.0428 0.1420 Uiso
H8 H 0.7301 0.3345 0.0943 0.1420 Uiso
C10 C 0.4973(9) 0.3283(6) -0.2041(5) 0.0910 Uani
H9 H 0.4478 0.3782 -0.2128 0.1360 Uiso
H10 H 0.5217 0.3068 -0.2610 0.1360 Uiso
H11 H 0.5507 0.3550 -0.1695 0.1360 Uiso
H12 H 0.822(6) 0.157(6) 0.298(4) 0.0510 Uiso
O3F O 0.1396(3) 0.5537(3) 0.0592(2) 0.0406 Uani
N1F N 0.2679(3) 0.4155(3) 0.0671(2) 0.0396 Uani
C1F C 0.2404(4) 0.4519(4) 0.1547(3) 0.0425 Uani
H1F H 0.2136 0.3973 0.1901 0.0510 Uiso
C3F C 0.1588(3) 0.5295(4) 0.1394(3) 0.0381 Uani
C4F C 0.3322(3) 0.3472(4) 0.0504(3) 0.0379 Uani
C10F C 0.3283(6) 0.4973(9) 0.2041(5) 0.0910 Uani
H9F H 0.3782 0.4478 0.2128 0.1360 Uiso
H10F H 0.3068 0.5217 0.2610 0.1360 Uiso
H11F H 0.3550 0.5507 0.1695 0.1360 Uiso
O1F O 0.3830(3) 0.2954(3) 0.1040(2) 0.0476 Uani
O2F O 0.1184(3) 0.5651(3) 0.2060(2) 0.0505 Uani
C2G C 0.8275(3) 0.2948(4) 0.2825(3) 0.0411 Uani
N2G N 0.8770(4) 0.4481(3) 0.2957(3) 0.0465 Uani
H2G H 0.9047 0.5039 0.2842 0.0560 Uiso
C5G C 0.8845(4) 0.3674(5) 0.2433(4) 0.0517 Uani
C6G C 0.7903(4) 0.3377(4) 0.3615(3) 0.0440 Uani
N3G N 0.8210(3) 0.4306(3) 0.3685(3) 0.0401 Uani
C8G C 0.9465(8) 0.3692(8) 0.1602(6) 0.0950 Uani
H3G H 0.9761 0.4333 0.1535 0.1430 Uiso
H4G H 0.9057 0.3555 0.1092 0.1430 Uiso
H5G H 0.9975 0.3201 0.1645 0.1430 Uiso
C9G C 0.7265(9) 0.2912(7) 0.4320(5) 0.0947 Uani
H6G H 0.7131 0.3387 0.4781 0.1420 Uiso
H7G H 0.7602 0.2354 0.4572 0.1420 Uiso
H8G H 0.6655 0.2699 0.4057 0.1420 Uiso
H12G H 0.843(6) 0.178(6) 0.202(4) 0.0510 Uiso
Cu1F Cu 0.20446(4) 0.47309(4) -0.03528(3) 0.0374 Uani
Cu1C Cu 0.70446(4) 0.02691(4) -0.21472(3) 0.0374 Uani
Cu1D Cu 0.02691(4) 0.70446(4) 0.21472(3) 0.0374 Uani
Cu1G Cu 0.79554(4) 0.52691(4) 0.46472(3) 0.0374 Uani
O2B O 0.3816(3) 0.0651(3) 0.0440(2) 0.0505 Uani
O2E O 0.0651(3) 0.3816(3) -0.0440(2) 0.0505 Uani
N3F N 0.1790(3) 0.5694(3) -0.1315(3) 0.0401 Uani
loop_
_atom_site_aniso_label
_atom_site_aniso_U_11
_atom_site_aniso_U_22
_atom_site_aniso_U_33
_atom_site_aniso_U_23
_atom_site_aniso_U_13
_atom_site_aniso_U_12
Cu1 0.0409(3) 0.0396(3) 0.0317(3) 0.00083(18) -0.00006(18) 0.00711(18)
O1 0.058 0.0531 0.0316 0.0006 -0.0013 0.0203
O2 0.055 0.059 0.0375 -0.0077 0.0046 0.0168
O3 0.0428(16) 0.0416(17) 0.0375(14) -0.0002(12) 0.0028(11) 0.0101(12)
N1 0.048(2) 0.0399(18) 0.0308(13) 0.0026(13) 0.0033(14) 0.0103(14)
C1 0.052(3) 0.044(2) 0.0316(16) -0.0013(15) 0.0030(15) 0.0098(18)
C2 0.043(2) 0.0389(19) 0.0414(18) -0.0015(16) -0.0045(16) -0.0042(16)
N2 0.042(2) 0.062(3) 0.0356(16) 0.0070(17) -0.0057(14) -0.0146(18)
C3 0.0388(19) 0.0371(19) 0.0385(17) -0.0024(14) 0.0048(15) 0.0036(15)
C4 0.044(2) 0.040(2) 0.0297(15) -0.0022(13) 0.0023(14) 0.0084(15)
C5 0.059(3) 0.049(3) 0.047(2) 0.008(2) -0.014(2) -0.018(2)
C6 0.044(2) 0.047(2) 0.041(2) 0.0018(18) -0.0007(17) -0.0089(18)
N3 0.0412(18) 0.045(2) 0.0340(15) 0.0019(14) -0.0034(14) -0.0012(15)
C7 0.043(2) 0.043(2) 0.067(5) -0.009(2) -0.009(2) 0.001(3)
C8 0.106(7) 0.101(6) 0.078(5) 0.049(5) -0.053(5) -0.062(5)
C9 0.083(5) 0.141(9) 0.060(4) 0.033(5) -0.016(4) -0.061(6)
C10 0.142(8) 0.062(4) 0.069(4) 0.018(3) 0.059(5) 0.018(5)
O3F 0.0416 0.0428 0.0375 -0.0028 0.0002 0.0101
N1F 0.0399 0.048 0.0308 -0.0033 -0.0026 0.0103
C1F 0.044 0.052 0.0316 -0.003 0.0013 0.0098
C3F 0.0371 0.0388 0.0385 -0.0048 0.0024 0.0036
C4F 0.04 0.044 0.0297 -0.0023 0.0022 0.0084
C10F 0.062 0.142 0.069 -0.059 -0.018 0.018
O1F 0.0531 0.058 0.0316 0.0013 -0.0006 0.0203
O2F 0.059 0.055 0.0375 -0.0046 0.0077 0.0168
C2G 0.0389 0.043 0.0414 -0.0045 -0.0015 -0.0042
N2G 0.062 0.042 0.0356 -0.0057 0.007 -0.0146
C5G 0.049 0.059 0.047 -0.014 0.008 -0.018
C6G 0.047 0.044 0.041 -0.0007 0.0018 -0.0089
N3G 0.045 0.0412 0.034 -0.0034 0.0019 -0.0012
C8G 0.101 0.106 0.078 -0.053 0.049 -0.062
C9G 0.141 0.083 0.06 -0.016 0.033 -0.061
Cu1F 0.0396 0.0409 0.0317 6e-05 -0.00083 0.00711
Cu1C 0.0396 0.0409 0.0317 6e-05 0.00083 -0.00711
Cu1D 0.0409 0.0396 0.0317 -0.00083 -6e-05 -0.00711
Cu1G 0.0396 0.0409 0.0317 -6e-05 0.00083 0.00711
O2B 0.059 0.055 0.0375 0.0046 0.0077 -0.0168
O2E 0.055 0.059 0.0375 -0.0077 -0.0046 -0.0168
N3F 0.045 0.0412 0.034 0.0034 -0.0019 -0.0012
loop_
_geom_bond_atom_site_label_1
_geom_bond_atom_site_label_2
_geom_bond_site_symmetry_1
_geom_bond_site_symmetry_2
Cu1 O3 1_555 1_555
O1 C4 1_555 1_555
O2 C3 1_555 1_555
O3 C3 1_555 1_555
N1 Cu1 1_555 1_555
C1 N1 1_555 1_555
H1 C1 1_555 1_555
C2 C5 1_555 1_555
N2 H2 1_555 1_555
C3 C1 1_555 1_555
C4 N1 1_555 1_555
C5 N2 1_555 1_555
C6 C2 1_555 1_555
N3 Cu1 1_555 1_555
C7 C2 1_555 1_555
C8 C5 1_555 1_555
H3 C8 1_555 1_555
H4 C8 1_555 1_555
H5 C8 1_555 1_555
C9 C6 1_555 1_555
H6 C9 1_555 1_555
H7 C9 1_555 1_555
H8 C9 1_555 1_555
C10 C1 1_555 1_555
H9 C10 1_555 1_555
H10 C10 1_555 1_555
H11 C10 1_555 1_555
H12 C7 1_555 1_555
O3F C3F 1_555 1_555
N1F C1F 1_555 1_555
C1F H1F 1_555 1_555
C3F C1F 1_555 1_555
C4F C4 1_555 1_555
C10F C1F 1_555 1_555
H9F C10F 1_555 1_555
H10F C10F 1_555 1_555
H11F C10F 1_555 1_555
O1F Cu1 1_555 1_555
O2F C3F 1_555 1_555
C2G C7 1_555 1_555
N2G H2G 1_555 1_555
C5G C2G 1_555 1_555
C6G C2G 1_555 1_555
N3G N2G 1_555 1_555
C8G C5G 1_555 1_555
H3G C8G 1_555 1_555
H4G C8G 1_555 1_555
H5G C8G 1_555 1_555
C9G C6G 1_555 1_555
H6G C9G 1_555 1_555
H7G C9G 1_555 1_555
H8G C9G 1_555 1_555
H12G C7 1_555 1_555
Cu1F O1 1_555 1_555
Cu1C O2 1_555 1_555
Cu1D O2F 1_555 1_555
Cu1G N3G 1_555 1_555
O2B Cu1 1_555 1_555
O2E Cu1F 1_555 1_555
N3F Cu1F 1_555 1_555
N2 N3 1_555 1_555
C6 N3 1_555 1_555
O3F Cu1F 1_555 1_555
N1F C4F 1_555 1_555
N1F Cu1F 1_555 1_555
C4F O1F 1_555 1_555
N2G C5G 1_555 1_555
C6G N3G 1_555 1_555

#END
