
#######################################################################
#
#                 Cambridge Crystallographic Data Centre
#                                CCDC 
#
#######################################################################
#
# If this CIF has been generated from an entry in the Cambridge 
# Structural Database, then it will include bibliographic, chemical, 
# crystal, experimental, refinement or atomic coordinate data resulting 
# from the CCDC's data processing and validation procedures.
#
#######################################################################

data_PIZREX
_chemical_formula_moiety         '(C19 H24 Cu2 N6 O6)n'
_symmetry_cell_setting           orthorhombic
_symmetry_space_group_name_H-M   'P 21 21 21'
_symmetry_Int_Tables_number      19
_space_group_name_Hall           'P 2ac 2ab'
loop_
_symmetry_equiv_pos_site_id
_symmetry_equiv_pos_as_xyz
1 x,y,z
2 1/2-x,-y,1/2+z
3 1/2+x,1/2-y,-z
4 -x,1/2+y,1/2-z
_cell_length_a                   13.4134(5)
_cell_length_b                   14.0452(6)
_cell_length_c                   16.3011(8)
_cell_angle_alpha                90
_cell_angle_beta                 90
_cell_angle_gamma                90
_cell_volume                     3071.03
loop_
_atom_site_label
_atom_site_type_symbol
_atom_site_fract_x
_atom_site_fract_y
_atom_site_fract_z
_atom_site_U_iso_or_equiv
_atom_site_thermal_displace_type
Cu1 Cu 0.93567(5) 0.53951(5) 0.08688(4) 0.0332 Uani
Cu2 Cu 1.20969(5) 0.79229(5) 0.16027(4) 0.0336 Uani
N1 N 1.3083(4) 0.8022(4) 0.2484(4) 0.0377 Uani
O1 O 1.2914(3) 0.8527(3) 0.0710(3) 0.0367 Uani
O2 O 1.0178(4) 0.6389(4) 0.0276(3) 0.0440 Uani
C1 C 1.0707(5) 0.6846(4) 0.0788(4) 0.0347 Uani
O3 O 1.1208(4) 0.6989(4) 0.2202(3) 0.0497 Uani
O4 O 0.8807(3) 0.4511(3) 0.1720(3) 0.0387 Uani
C2 C 1.4384(5) 0.7878(4) 0.3345(4) 0.0333 Uani
N2 N 1.5734(4) 0.5491(4) 0.4933(3) 0.0353 Uani
N3 N 1.2840(4) 0.8365(4) 0.3228(3) 0.0373 Uani
H1 H 1.2269 0.8605 0.3348 0.0440 Uiso
O5 O 1.2888(4) 0.8877(4) -0.0626(3) 0.0500 Uani
C3 C 1.0612(5) 0.6587(5) 0.1694(4) 0.0387 Uani
C4 C 0.9015(5) 0.4708(5) 0.2466(4) 0.0393 Uani
N4 N 1.6012(4) 0.5185(4) 0.4182(3) 0.0400 Uani
H2 H 1.6213 0.4615 0.4081 0.0480 Uiso
O6 O 0.8698(4) 0.4279(4) 0.3071(3) 0.0547 Uani
C5 C 1.2528(5) 0.8498(5) -0.0012(4) 0.0363 Uani
N5 N 0.9935(5) 0.5965(4) 0.1825(3) 0.0427 Uani
C6 C 1.1503(5) 0.8019(5) -0.0088(4) 0.0417 Uani
H3 H 1.1505 0.7560 -0.0541 0.0500 Uiso
N6 N 1.1318(4) 0.7540(4) 0.0679(3) 0.0377 Uani
C7 C 1.0696(6) 0.8792(7) -0.0234(5) 0.0603 Uani
H4 H 1.0055 0.8494 -0.0286 0.0910 Uiso
H5 H 1.0846 0.9135 -0.0728 0.0910 Uiso
H6 H 1.0687 0.9225 0.0222 0.0910 Uiso
C8 C 1.5427(5) 0.7657(5) 0.3647(5) 0.0417 Uani
H7 H 1.5884 0.7741 0.3191 0.0500 Uiso
H8 H 1.5602 0.8125 0.4060 0.0500 Uiso
C9 C 1.4037(5) 0.7729(5) 0.2543(4) 0.0397 Uani
C10 C 1.3595(5) 0.8287(5) 0.3758(4) 0.0397 Uani
C11 C 1.5598(4) 0.6671(5) 0.4008(4) 0.0360 Uani
C12 C 1.5477(5) 0.6403(5) 0.4831(4) 0.0397 Uani
C13 C 1.5942(5) 0.5863(6) 0.3616(4) 0.0463 Uani
C14 C 1.5138(9) 0.6978(7) 0.5538(5) 0.0723 Uani
H9 H 1.5138 0.6591 0.6024 0.1090 Uiso
H10 H 1.4475 0.7208 0.5436 0.1090 Uiso
H11 H 1.5580 0.7508 0.5614 0.1090 Uiso
C15 C 1.4536(7) 0.7326(8) 0.1808(5) 0.0720 Uani
H12 H 1.4081 0.7330 0.1354 0.1080 Uiso
H13 H 1.4741 0.6684 0.1920 0.1080 Uiso
H14 H 1.5110 0.7704 0.1675 0.1080 Uiso
C16 C 1.3467(8) 0.8659(7) 0.4609(5) 0.0647 Uani
H15 H 1.2796 0.8884 0.4679 0.0970 Uiso
H16 H 1.3924 0.9174 0.4700 0.0970 Uiso
H17 H 1.3597 0.8159 0.4996 0.0970 Uiso
C17 C 1.6243(10) 0.5635(9) 0.2746(6) 0.0840 Uani
H18 H 1.6444 0.4981 0.2711 0.1260 Uiso
H19 H 1.6788 0.6038 0.2586 0.1260 Uiso
H20 H 1.5687 0.5743 0.2386 0.1260 Uiso
C18 C 0.9644(7) 0.5594(7) 0.2616(5) 0.0623 Uani
H21 H 1.0263 0.5393 0.2912 0.0750 Uiso
C19 C 0.9113(12) 0.6307(13) 0.3114(10) 0.1250 Uiso
H22 H 0.9535 0.6851 0.3195 0.1870 Uiso
H23 H 0.8943 0.6035 0.3636 0.1870 Uiso
H24 H 0.8516 0.6499 0.2834 0.1870 Uiso
Cu1A Cu 1.56433(5) 0.46049(5) 0.58688(4) 0.0332 Uani
Cu1B Cu 1.43567(5) 0.96049(5) -0.08688(4) 0.0332 Uani
Cu2C Cu 0.79031(5) 0.29229(5) 0.33973(4) 0.0336 Uani
N2A N 0.9266(4) 0.4509(4) -0.0067(3) 0.0353 Uani
O5B O 0.7888(4) 0.6123(4) 0.0626(3) 0.0500 Uani
O6C O 1.1302(4) 0.9279(4) 0.1929(3) 0.0547 Uani
loop_
_atom_site_aniso_label
_atom_site_aniso_U_11
_atom_site_aniso_U_22
_atom_site_aniso_U_33
_atom_site_aniso_U_23
_atom_site_aniso_U_13
_atom_site_aniso_U_12
Cu1 0.0371(4) 0.0360(4) 0.0265(4) -0.0024(3) -0.0004(3) -0.0081(3)
Cu2 0.0369(4) 0.0368(4) 0.0270(4) 0.0006(3) -0.0055(3) -0.0082(3)
N1 0.037(3) 0.038(3) 0.038(3) -0.001(2) -0.006(2) 0.006(2)
O1 0.040(2) 0.040(2) 0.030(2) 0.0016(18) -0.0009(19) -0.009(2)
O2 0.052(3) 0.050(3) 0.030(2) -0.001(2) -0.001(2) -0.018(2)
C1 0.038(3) 0.038(3) 0.028(3) -0.002(3) -0.001(3) -0.007(3)
O3 0.059(3) 0.061(3) 0.029(2) 0.005(2) -0.011(2) -0.029(3)
O4 0.045(2) 0.040(2) 0.031(2) -0.001(2) -0.0004(19) -0.010(2)
C2 0.036(3) 0.029(3) 0.035(3) 0.005(3) -0.010(3) 0.002(3)
N2 0.041 0.031 0.034 0.006 0.002 0.004
N3 0.038(3) 0.045(3) 0.029(3) 0.000(2) -0.002(2) 0.010(2)
O5 0.051(3) 0.062(3) 0.037(3) 0.003(2) 0.006(2) -0.021(3)
C3 0.047(3) 0.040(3) 0.029(3) -0.001(3) -0.007(3) -0.011(3)
C4 0.040(3) 0.047(4) 0.031(4) 0.009(3) -0.005(3) -0.012(3)
N4 0.055 0.035 0.03 0.002 -0.001 0.015
O6 0.067(3) 0.064(3) 0.033(3) 0.012(2) -0.003(2) -0.029(3)
C5 0.040(3) 0.037(3) 0.032(3) -0.003(3) 0.001(3) -0.006(3)
N5 0.050(3) 0.052(3) 0.026(3) 0.006(2) -0.003(2) -0.020(3)
C6 0.055(4) 0.042(3) 0.028(3) -0.002(3) -0.005(3) -0.020(3)
N6 0.041(3) 0.044(3) 0.028(3) 0.002(2) -0.004(2) -0.015(2)
C7 0.047(4) 0.081(6) 0.053(5) 0.019(4) -0.017(4) -0.017(4)
C8 0.035(3) 0.040(4) 0.050(4) 0.012(3) -0.010(3) -0.003(3)
C9 0.042(3) 0.038(4) 0.039(4) -0.003(3) -0.004(3) 0.009(3)
C10 0.052(4) 0.038(3) 0.029(3) 0.000(3) -0.014(3) 0.006(3)
C11 0.028 0.042 0.038 0.012 -0.007 0.004
C12 0.045 0.038 0.036 -0.001 -0.002 0.004
C13 0.046 0.055 0.038 0.011 0.002 0.013
C14 0.12 0.056 0.041 0.001 -0.002 0.037
C15 0.063(5) 0.105(8) 0.048(5) 0.001(5) 0.004(4) 0.039(5)
C16 0.084(6) 0.075(6) 0.035(4) -0.012(4) -0.019(4) 0.031(5)
C17 0.114 0.097 0.041 0.007 0.014 0.051
C18 0.080(6) 0.080(6) 0.027(4) 0.006(4) -0.007(3) -0.052(5)
Cu1A 0.0371 0.036 0.0265 0.0024 0.0004 -0.0081
Cu1B 0.0371 0.036 0.0265 -0.0024 0.0004 0.0081
Cu2C 0.0369 0.0368 0.027 -0.0006 -0.0055 0.0082
N2A 0.041 0.031 0.034 -0.006 -0.002 0.004
O5B 0.051 0.062 0.037 0.003 -0.006 0.021
O6C 0.067 0.064 0.033 -0.012 -0.003 0.029
loop_
_geom_bond_atom_site_label_1
_geom_bond_atom_site_label_2
_geom_bond_site_symmetry_1
_geom_bond_site_symmetry_2
Cu1 O2 1_555 1_555
Cu2 N1 1_555 1_555
N1 N3 1_555 1_555
O1 Cu2 1_555 1_555
O2 C1 1_555 1_555
C1 C3 1_555 1_555
O3 Cu2 1_555 1_555
O4 Cu1 1_555 1_555
C2 C8 1_555 1_555
N2 N4 1_555 1_555
N3 H1 1_555 1_555
O5 C5 1_555 1_555
C3 O3 1_555 1_555
C4 O4 1_555 1_555
N4 H2 1_555 1_555
O6 C4 1_555 1_555
C5 O1 1_555 1_555
N5 Cu1 1_555 1_555
C6 C5 1_555 1_555
H3 C6 1_555 1_555
N6 Cu2 1_555 1_555
C7 C6 1_555 1_555
H4 C7 1_555 1_555
H5 C7 1_555 1_555
H6 C7 1_555 1_555
C8 H7 1_555 1_555
H8 C8 1_555 1_555
C9 N1 1_555 1_555
C10 C2 1_555 1_555
C11 C8 1_555 1_555
C12 N2 1_555 1_555
C13 N4 1_555 1_555
C14 C12 1_555 1_555
H9 C14 1_555 1_555
H10 C14 1_555 1_555
H11 C14 1_555 1_555
C15 C9 1_555 1_555
H12 C15 1_555 1_555
H13 C15 1_555 1_555
H14 C15 1_555 1_555
C16 C10 1_555 1_555
H15 C16 1_555 1_555
H16 C16 1_555 1_555
H17 C16 1_555 1_555
C17 C13 1_555 1_555
H18 C17 1_555 1_555
H19 C17 1_555 1_555
H20 C17 1_555 1_555
C18 C4 1_555 1_555
H21 C18 1_555 1_555
C19 C18 1_555 1_555
H22 C19 1_555 1_555
H23 C19 1_555 1_555
H24 C19 1_555 1_555
Cu1A N2 1_555 1_555
Cu1B O5 1_555 1_555
Cu2C O6 1_555 1_555
N2A Cu1 1_555 1_555
O5B Cu1 1_555 1_555
O6C Cu2 1_555 1_555
C1 N6 1_555 1_555
C2 C9 1_555 1_555
N3 C10 1_555 1_555
C3 N5 1_555 1_555
N5 C18 1_555 1_555
C6 N6 1_555 1_555
C11 C12 1_555 1_555
C11 C13 1_555 1_555

#END
