
#######################################################################
#
#                 Cambridge Crystallographic Data Centre
#                                CCDC 
#
#######################################################################
#
# If this CIF has been generated from an entry in the Cambridge 
# Structural Database, then it will include bibliographic, chemical, 
# crystal, experimental, refinement or atomic coordinate data resulting 
# from the CCDC's data processing and validation procedures.
#
#######################################################################

data_PIZROH
_chemical_formula_moiety         '(C19 H24 Cu2 N6 O6)n'
_symmetry_cell_setting           tetragonal
_symmetry_space_group_name_H-M   'P 43 21 2'
_symmetry_Int_Tables_number      96
_space_group_name_Hall           'P 4nw 2abw'
loop_
_symmetry_equiv_pos_site_id
_symmetry_equiv_pos_as_xyz
1 x,y,z
2 1/2-y,1/2+x,3/4+z
3 -x,-y,1/2+z
4 1/2+y,1/2-x,1/4+z
5 1/2+x,1/2-y,1/4-z
6 1/2-x,1/2+y,3/4-z
7 y,x,-z
8 -y,-x,1/2-z
_cell_length_a                   13.5050(4)
_cell_length_b                   13.5050(4)
_cell_length_c                   14.9246(10)
_cell_angle_alpha                90
_cell_angle_beta                 90
_cell_angle_gamma                90
_cell_volume                     2722.02
loop_
_atom_site_label
_atom_site_type_symbol
_atom_site_fract_x
_atom_site_fract_y
_atom_site_fract_z
_atom_site_U_iso_or_equiv
_atom_site_thermal_displace_type
Cu1 Cu 0.29531(3) 0.02687(3) 0.03524(3) 0.0314 Uani
O1 O 0.1170(2) 0.2049(2) -0.10436(16) 0.0407 Uani
O2 O 0.36031(19) -0.05386(19) -0.05982(17) 0.0360 Uani
O3 O 0.3810(2) -0.0656(2) -0.20654(18) 0.0436 Uani
C1 C 0.1676(3) 0.1532(3) -0.0501(2) 0.0307 Uani
C2 C 0.2589(3) 0.0483(3) -0.1550(2) 0.0342 Uani
H1 H 0.2858 0.1030 -0.1906 0.0410 Uiso
C3 C 0.1717(4) 0.0025(5) -0.2048(4) 0.0727 Uani
H2 H 0.1215 0.0519 -0.2139 0.1090 Uiso
H3 H 0.1449 -0.0510 -0.1701 0.1090 Uiso
H4 H 0.1937 -0.0221 -0.2618 0.1090 Uiso
C4 C 0.3401(3) -0.0298(3) -0.1405(2) 0.0314 Uani
C5 C 0.2898(3) -0.1630(3) 0.1392(2) 0.0373 Uani
C6 C 0.3279(3) -0.2055(3) 0.2175(3) 0.0341 Uani
C7 C 0.3854(3) -0.1333(3) 0.2563(3) 0.0437 Uani
C8 C 0.2249(5) -0.2072(4) 0.0695(3) 0.0767 Uani
H5 H 0.2119 -0.1590 0.0237 0.1150 Uiso
H6 H 0.1635 -0.2275 0.0963 0.1150 Uiso
H7 H 0.2572 -0.2636 0.0435 0.1150 Uiso
C9 C 0.4474(5) -0.1316(5) 0.3390(4) 0.0870 Uani
H8 H 0.4781 -0.0678 0.3450 0.1310 Uiso
H9 H 0.4977 -0.1817 0.3349 0.1310 Uiso
H10 H 0.4064 -0.1442 0.3903 0.1310 Uiso
C10 C 0.3102(3) -0.3102(3) 0.2500 0.0431 Uani
H11 H 0.3554 -0.3250 0.2980 0.0520 Uiso
N1 N 0.3206(2) -0.0691(2) 0.1324(2) 0.0347 Uani
N2 N 0.3779(3) -0.0524(2) 0.2039(2) 0.0407 Uani
H12 H 0.4065 0.0031 0.2151 0.0490 Uiso
N3 N 0.2324(2) 0.0846(2) -0.06730(19) 0.0336 Uani
O2F O -0.05386(19) 0.36031(19) 0.05982(17) 0.0360 Uani
C1F C 0.1532(3) 0.1676(3) 0.0501(2) 0.0307 Uani
C2F C 0.0483(3) 0.2589(3) 0.1550(2) 0.0342 Uani
H1F H 0.1030 0.2858 0.1906 0.0410 Uiso
C3F C 0.0025(5) 0.1717(4) 0.2048(4) 0.0727 Uani
H2F H 0.0519 0.1215 0.2139 0.1090 Uiso
H3F H -0.0510 0.1449 0.1701 0.1090 Uiso
H4F H -0.0221 0.1937 0.2618 0.1090 Uiso
C4F C -0.0298(3) 0.3401(3) 0.1405(2) 0.0314 Uani
N3F N 0.0846(2) 0.2324(2) 0.06730(19) 0.0336 Uani
O1F O 0.2049(2) 0.1170(2) 0.10436(16) 0.0407 Uani
O3F O -0.0656(2) 0.3810(2) 0.20654(18) 0.0436 Uani
C5G C 0.1630(3) -0.2898(3) 0.3608(2) 0.0373 Uani
C6G C 0.2055(3) -0.3279(3) 0.2825(3) 0.0341 Uani
C7G C 0.1333(3) -0.3854(3) 0.2437(3) 0.0437 Uani
C8G C 0.2072(4) -0.2249(5) 0.4305(3) 0.0767 Uani
H5G H 0.1590 -0.2119 0.4763 0.1150 Uiso
H6G H 0.2275 -0.1635 0.4037 0.1150 Uiso
H7G H 0.2636 -0.2572 0.4565 0.1150 Uiso
C9G C 0.1316(5) -0.4474(5) 0.1610(4) 0.0870 Uani
H8G H 0.0678 -0.4781 0.1550 0.1310 Uiso
H9G H 0.1817 -0.4977 0.1651 0.1310 Uiso
H10G H 0.1442 -0.4064 0.1097 0.1310 Uiso
H11G H 0.3250 -0.3554 0.2020 0.0520 Uiso
N1G N 0.0691(2) -0.3206(2) 0.3676(2) 0.0347 Uani
N2G N 0.0524(2) -0.3779(3) 0.2961(2) 0.0407 Uani
H12G H -0.0031 -0.4065 0.2849 0.0490 Uiso
Cu1F Cu 0.02687(3) 0.29531(3) -0.03524(3) 0.0314 Uani
Cu1A Cu 0.47313(3) -0.20469(3) -0.21476(3) 0.0314 Uani
Cu1D Cu -0.20469(3) 0.47313(3) 0.21476(3) 0.0314 Uani
Cu1G Cu -0.02687(3) -0.29531(3) 0.46476(3) 0.0314 Uani
O3C O 0.4344(2) 0.1190(2) 0.04346(18) 0.0436 Uani
O3E O 0.1190(2) 0.4344(2) -0.04346(18) 0.0436 Uani
N1F N -0.0691(2) 0.3206(2) -0.1324(2) 0.0347 Uani
loop_
_atom_site_aniso_label
_atom_site_aniso_U_11
_atom_site_aniso_U_22
_atom_site_aniso_U_33
_atom_site_aniso_U_23
_atom_site_aniso_U_13
_atom_site_aniso_U_12
Cu1 0.0332(2) 0.0343(2) 0.0268(2) 0.00016(17) -0.00053(17) 0.00736(16)
O1 0.0492 0.046 0.0268 0.0027 -0.0005 0.0199
O2 0.0374(14) 0.0386(14) 0.0320(13) -0.0025(10) -0.0013(10) 0.0105(10)
O3 0.052 0.0456 0.0333 -0.0035 0.0077 0.0166
C1 0.0318(17) 0.0354(18) 0.0250(16) -0.0007(13) 0.0000(13) 0.0043(13)
C2 0.0365(18) 0.041(2) 0.0251(15) -0.0026(14) -0.0011(14) 0.0065(14)
C3 0.051(3) 0.110(5) 0.057(3) -0.041(3) -0.020(2) 0.017(3)
C4 0.0342(17) 0.0304(16) 0.0296(16) -0.0046(14) 0.0011(14) 0.0027(13)
C5 0.0379(19) 0.0380(18) 0.0360(18) -0.0004(15) 0.0005(16) -0.0075(15)
C6 0.0323(16) 0.0320(16) 0.0379(17) 0.0069(15) 0.0039(15) -0.0056(13)
C7 0.042(2) 0.051(2) 0.0380(19) 0.0158(18) -0.0054(17) -0.0163(18)
C8 0.106(5) 0.068(3) 0.056(3) 0.008(3) -0.029(3) -0.041(3)
C9 0.095(5) 0.094(5) 0.072(4) 0.043(3) -0.046(3) -0.057(4)
C10 0.0367(17) 0.0367(17) 0.056(3) 0.0105(17) 0.0105(17) -0.005(2)
N1 0.0420(18) 0.0299(15) 0.0323(15) 0.0018(12) -0.0027(13) -0.0010(12)
N2 0.053(2) 0.0387(18) 0.0303(16) 0.0043(13) -0.0079(15) -0.0144(14)
N3 0.0363(16) 0.0376(16) 0.0268(13) -0.0035(12) -0.0004(12) 0.0090(12)
O2F 0.0386 0.0374 0.032 0.0013 0.0025 0.0105
C1F 0.0354 0.0318 0.025 0 0.0007 0.0043
C2F 0.041 0.0365 0.0251 0.0011 0.0026 0.0065
C3F 0.11 0.051 0.057 0.02 0.041 0.017
C4F 0.0304 0.0342 0.0296 -0.0011 0.0046 0.0027
N3F 0.0376 0.0363 0.0268 0.0004 0.0035 0.009
O1F 0.046 0.0492 0.0268 0.0005 -0.0027 0.0199
O3F 0.0456 0.052 0.0333 -0.0077 0.0035 0.0166
C5G 0.038 0.0379 0.036 0.0005 -0.0004 -0.0075
C6G 0.032 0.0323 0.0379 0.0039 0.0069 -0.0056
C7G 0.051 0.042 0.038 -0.0054 0.0158 -0.0163
C8G 0.068 0.106 0.056 -0.029 0.008 -0.041
C9G 0.094 0.095 0.072 -0.046 0.043 -0.057
N1G 0.0299 0.042 0.0323 -0.0027 0.0018 -0.001
N2G 0.0387 0.053 0.0303 -0.0079 0.0043 -0.0144
Cu1F 0.0343 0.0332 0.0268 0.00053 -0.00016 0.00736
Cu1A 0.0343 0.0332 0.0268 -0.00053 -0.00016 -0.00736
Cu1D 0.0332 0.0343 0.0268 0.00016 0.00053 -0.00736
Cu1G 0.0343 0.0332 0.0268 -0.00053 0.00016 0.00736
O3C 0.0456 0.052 0.0333 -0.0077 -0.0035 -0.0166
O3E 0.052 0.0456 0.0333 0.0035 0.0077 -0.0166
N1F 0.0299 0.042 0.0323 0.0027 -0.0018 -0.001
loop_
_geom_bond_atom_site_label_1
_geom_bond_atom_site_label_2
_geom_bond_site_symmetry_1
_geom_bond_site_symmetry_2
Cu1 O2 1_555 1_555
O1 C1 1_555 1_555
O2 C4 1_555 1_555
O3 C4 1_555 1_555
C1 N3 1_555 1_555
C2 H1 1_555 1_555
C3 C2 1_555 1_555
H2 C3 1_555 1_555
H3 C3 1_555 1_555
H4 C3 1_555 1_555
C4 C2 1_555 1_555
C5 C6 1_555 1_555
C6 C7 1_555 1_555
C7 C9 1_555 1_555
C8 C5 1_555 1_555
H5 C8 1_555 1_555
H6 C8 1_555 1_555
H7 C8 1_555 1_555
C9 H8 1_555 1_555
H9 C9 1_555 1_555
H10 C9 1_555 1_555
C10 C6 1_555 1_555
H11 C10 1_555 1_555
N1 Cu1 1_555 1_555
N2 C7 1_555 1_555
H12 N2 1_555 1_555
N3 Cu1 1_555 1_555
O2F C4F 1_555 1_555
C1F C1 1_555 1_555
C2F H1F 1_555 1_555
C3F C2F 1_555 1_555
H2F C3F 1_555 1_555
H3F C3F 1_555 1_555
H4F C3F 1_555 1_555
C4F C2F 1_555 1_555
N3F C1F 1_555 1_555
O1F Cu1 1_555 1_555
O3F C4F 1_555 1_555
C5G C6G 1_555 1_555
C6G C10 1_555 1_555
C7G C6G 1_555 1_555
C8G C5G 1_555 1_555
H5G C8G 1_555 1_555
H6G C8G 1_555 1_555
H7G C8G 1_555 1_555
C9G C7G 1_555 1_555
H8G C9G 1_555 1_555
H9G C9G 1_555 1_555
H10G C9G 1_555 1_555
H11G C10 1_555 1_555
N1G C5G 1_555 1_555
N2G C7G 1_555 1_555
H12G N2G 1_555 1_555
Cu1F O1 1_555 1_555
Cu1A O3 1_555 1_555
Cu1D O3F 1_555 1_555
Cu1G N1G 1_555 1_555
O3C Cu1 1_555 1_555
O3E Cu1F 1_555 1_555
N1F Cu1F 1_555 1_555
C2 N3 1_555 1_555
C5 N1 1_555 1_555
N1 N2 1_555 1_555
O2F Cu1F 1_555 1_555
C1F O1F 1_555 1_555
C2F N3F 1_555 1_555
N3F Cu1F 1_555 1_555
N1G N2G 1_555 1_555

#END
