
#######################################################################
#
#                 Cambridge Crystallographic Data Centre
#                                CCDC 
#
#######################################################################
#
# If this CIF has been generated from an entry in the Cambridge 
# Structural Database, then it will include bibliographic, chemical, 
# crystal, experimental, refinement or atomic coordinate data resulting 
# from the CCDC's data processing and validation procedures.
#
#######################################################################

data_PIZRIB
_chemical_formula_moiety         '(C19 H24 Cu2 N6 O6)n'
_symmetry_cell_setting           orthorhombic
_symmetry_space_group_name_H-M   'P 21 21 21'
_symmetry_Int_Tables_number      19
_space_group_name_Hall           'P 2ac 2ab'
loop_
_symmetry_equiv_pos_site_id
_symmetry_equiv_pos_as_xyz
1 x,y,z
2 1/2-x,-y,1/2+z
3 1/2+x,1/2-y,-z
4 -x,1/2+y,1/2-z
_cell_length_a                   13.0844(2)
_cell_length_b                   14.0741(2)
_cell_length_c                   16.4507(3)
_cell_angle_alpha                90
_cell_angle_beta                 90
_cell_angle_gamma                90
_cell_volume                     3029.42
loop_
_atom_site_label
_atom_site_type_symbol
_atom_site_fract_x
_atom_site_fract_y
_atom_site_fract_z
_atom_site_U_iso_or_equiv
_atom_site_thermal_displace_type
Cu1 Cu 0.71444(7) 0.20566(6) 0.34215(5) 0.0359 Uani
Cu2 Cu 0.44125(6) 0.46650(6) 0.41206(5) 0.0371 Uani
O1 O 0.7955(4) 0.1441(3) 0.4311(3) 0.0421 Uani
O2 O 0.6285(4) 0.3015(4) 0.2817(3) 0.0520 Uani
N1 N 1.0961(5) 0.4784(4) 0.0789(3) 0.0453 Uani
O3 O 0.3866(3) 0.5541(3) 0.3268(3) 0.0427 Uani
O4 O 0.5230(4) 0.3655(4) 0.4719(3) 0.0476 Uani
N2 N 0.7856(4) 0.1631(4) 0.1801(3) 0.0403 Uani
H1 H 0.7249 0.1442 0.1684 0.0480 Uiso
C1 C 0.5748(5) 0.3170(4) 0.4218(4) 0.0390 Uani
N3 N 0.8170(4) 0.1899(4) 0.2551(3) 0.0387 Uani
C2 C 0.9464(5) 0.2071(4) 0.1663(4) 0.0387 Uani
C3 C 0.5697(5) 0.3439(4) 0.3325(4) 0.0423 Uani
O5 O 0.7925(4) 0.1099(4) 0.5636(3) 0.0547 Uani
O6 O 0.3763(5) 0.5759(4) 0.1933(3) 0.0587 Uani
N4 N 0.5025(5) 0.4095(4) 0.3191(3) 0.0460 Uani
N5 N 1.0733(4) 0.4452(4) 0.0054(3) 0.0383 Uani
N6 N 0.6340(4) 0.2457(4) 0.4322(3) 0.0417 Uani
C4 C 0.7551(5) 0.1475(4) 0.5026(4) 0.0390 Uani
C5 C 0.4087(5) 0.5327(5) 0.2537(4) 0.0407 Uani
C6 C 0.9140(5) 0.2152(5) 0.2489(4) 0.0407 Uani
C7 C 1.0648(4) 0.3281(4) 0.0985(4) 0.0380 Uani
C8 C 0.6517(5) 0.1980(5) 0.5091(4) 0.0423 Uani
H2 H 0.6528 0.2442 0.5537 0.0510 Uiso
C9 C 1.0553(6) 0.3527(4) 0.0164(4) 0.0443 Uani
C10 C 0.8634(5) 0.1702(5) 0.1257(4) 0.0420 Uani
C11 C 0.4797(8) 0.4488(7) 0.2395(4) 0.0637 Uani
H3 H 0.5422 0.4686 0.2115 0.0770 Uiso
C12 C 0.5686(6) 0.1250(7) 0.5231(5) 0.0617 Uani
H4 H 0.5030 0.1554 0.5203 0.0920 Uiso
H5 H 0.5772 0.0968 0.5758 0.0920 Uiso
H6 H 0.5728 0.0766 0.4822 0.0920 Uiso
C13 C 1.0930(6) 0.4101(5) 0.1355(4) 0.0487 Uani
C14 C 1.0522(5) 0.2291(4) 0.1333(4) 0.0443 Uani
H7 H 1.1015 0.2207 0.1767 0.0530 Uiso
H8 H 1.0682 0.1833 0.0911 0.0530 Uiso
C15 C 1.0362(13) 0.2882(7) -0.0529(5) 0.1003 Uani
H9 H 0.9650 0.2897 -0.0667 0.1510 Uiso
H10 H 1.0553 0.2247 -0.0381 0.1510 Uiso
H11 H 1.0760 0.3084 -0.0988 0.1510 Uiso
C16 C 1.1203(14) 0.4340(9) 0.2217(6) 0.1047 Uani
H12 H 1.1403 0.4996 0.2249 0.1570 Uiso
H13 H 1.1758 0.3945 0.2392 0.1570 Uiso
H14 H 1.0621 0.4234 0.2561 0.1570 Uiso
C17 C 0.8474(8) 0.1364(8) 0.0406(5) 0.0683 Uani
H15 H 0.7803 0.1094 0.0356 0.1020 Uiso
H16 H 0.8977 0.0890 0.0276 0.1020 Uiso
H17 H 0.8540 0.1889 0.0038 0.1020 Uiso
C18 C 0.9741(8) 0.2449(9) 0.3209(5) 0.0767 Uani
H18 H 0.9324 0.2839 0.3555 0.1150 Uiso
H19 H 1.0328 0.2805 0.3035 0.1150 Uiso
H20 H 0.9961 0.1897 0.3504 0.1150 Uiso
H21 H 1.120(5) 0.541(5) 0.091(4) 0.0340 Uiso
C19 C 0.4164(17) 0.3756(10) 0.1864(8) 0.1463 Uani
H22 H 0.4578 0.3208 0.1752 0.2190 Uiso
H23 H 0.3969 0.4051 0.1361 0.2190 Uiso
H24 H 0.3563 0.3565 0.2156 0.2190 Uiso
Cu1C Cu 0.28556(7) 0.70566(6) 0.15785(5) 0.0359 Uani
Cu2A Cu 1.05875(6) 0.53350(6) -0.08794(5) 0.0371 Uani
Cu2B Cu 0.94125(6) 0.03350(6) 0.58794(5) 0.0371 Uani
O5B O 0.2925(4) 0.3901(4) 0.4364(3) 0.0547 Uani
O6C O 0.6237(5) 0.0759(4) 0.3067(3) 0.0587 Uani
N5A N 0.4267(4) 0.5548(4) 0.5054(3) 0.0383 Uani
loop_
_atom_site_aniso_label
_atom_site_aniso_U_11
_atom_site_aniso_U_22
_atom_site_aniso_U_33
_atom_site_aniso_U_23
_atom_site_aniso_U_13
_atom_site_aniso_U_12
Cu1 0.0407(4) 0.0381(4) 0.0290(4) 0.0013(3) 0.0049(3) 0.0085(3)
Cu2 0.0418(4) 0.0408(4) 0.0288(4) -0.0026(3) 0.0000(3) 0.0103(3)
O1 0.047(2) 0.046(2) 0.0334(19) 0.0004(17) 0.0007(18) 0.0130(19)
O2 0.065(3) 0.058(3) 0.033(2) 0.005(2) 0.012(2) 0.029(2)
N1 0.064 0.043 0.029 0.002 -0.001 -0.015
O3 0.050(2) 0.042(2) 0.036(2) 0.0035(17) -0.0016(18) 0.0145(18)
O4 0.057(2) 0.056(3) 0.0297(19) -0.0005(19) 0.0040(19) 0.023(2)
N2 0.038(2) 0.054(3) 0.029(2) -0.002(2) 0.005(2) -0.009(2)
C1 0.046(3) 0.040(3) 0.031(3) 0.001(2) -0.001(2) 0.009(2)
N3 0.043(2) 0.040(3) 0.033(2) -0.004(2) 0.006(2) -0.004(2)
C2 0.039(3) 0.032(2) 0.045(3) 0.006(2) 0.011(3) -0.003(2)
C3 0.053(3) 0.044(3) 0.030(3) 0.001(2) 0.007(3) 0.013(3)
O5 0.062 0.065 0.037 0.006 -0.005 0.024
O6 0.073 0.064 0.039 0.016 0.003 0.029
N4 0.058(3) 0.049(3) 0.031(2) 0.005(2) 0.006(2) 0.021(2)
N5 0.041 0.039 0.035 0.0011 0.001 -0.004
N6 0.050(3) 0.047(3) 0.028(2) 0.000(2) 0.001(2) 0.017(2)
C4 0.048(3) 0.036(3) 0.033(3) 0.000(2) -0.001(2) 0.008(2)
C5 0.042(3) 0.043(3) 0.037(3) 0.006(2) 0.005(2) 0.010(2)
C6 0.042(3) 0.041(3) 0.039(3) 0.001(2) 0.005(2) -0.005(2)
C7 0.034 0.042 0.038 0.008 0.004 -0.005
C8 0.051(3) 0.049(3) 0.027(2) 0.001(3) 0.006(2) 0.014(3)
C9 0.056 0.041 0.036 0 0.002 -0.011
C10 0.047(3) 0.049(3) 0.030(3) -0.001(2) 0.007(2) -0.006(3)
C11 0.087(5) 0.076(5) 0.028(3) 0.008(3) 0.009(3) 0.049(5)
C12 0.056(4) 0.075(5) 0.054(4) 0.007(4) 0.020(3) 0.006(4)
C13 0.06 0.049 0.037 0.005 -0.002 -0.014
C14 0.037(3) 0.043(3) 0.053(3) 0.013(3) 0.011(3) 0.002(2)
C15 0.188 0.068 0.045 -0.01 0.01 -0.057
C16 0.176 0.093 0.045 0.018 -0.029 -0.07
C17 0.076(5) 0.090(6) 0.039(4) -0.008(4) 0.013(4) -0.022(5)
C18 0.076(5) 0.108(7) 0.046(4) -0.007(4) 0.000(4) -0.037(6)
C19 0.25(2) 0.106(9) 0.083(7) -0.059(7) -0.085(11) 0.108(13)
Cu1C 0.0407 0.0381 0.029 -0.0013 0.0049 -0.0085
Cu2A 0.0418 0.0408 0.0288 0.0026 0 0.0103
Cu2B 0.0418 0.0408 0.0288 -0.0026 0 -0.0103
O5B 0.062 0.065 0.037 0.006 0.005 -0.024
O6C 0.073 0.064 0.039 -0.016 0.003 -0.029
N5A 0.041 0.039 0.035 -0.0011 -0.001 -0.004
loop_
_geom_bond_atom_site_label_1
_geom_bond_atom_site_label_2
_geom_bond_site_symmetry_1
_geom_bond_site_symmetry_2
Cu1 O1 1_555 1_555
Cu2 O3 1_555 1_555
O1 C4 1_555 1_555
O2 Cu1 1_555 1_555
N1 N5 1_555 1_555
O3 C5 1_555 1_555
O4 Cu2 1_555 1_555
N2 H1 1_555 1_555
C1 O4 1_555 1_555
N3 Cu1 1_555 1_555
C2 C6 1_555 1_555
C3 O2 1_555 1_555
O5 C4 1_555 1_555
O6 C5 1_555 1_555
N4 Cu2 1_555 1_555
N5 C9 1_555 1_555
N6 Cu1 1_555 1_555
C4 C8 1_555 1_555
C5 C11 1_555 1_555
C6 N3 1_555 1_555
C7 C9 1_555 1_555
C8 N6 1_555 1_555
H2 C8 1_555 1_555
C9 C15 1_555 1_555
C10 N2 1_555 1_555
C11 N4 1_555 1_555
H3 C11 1_555 1_555
C12 C8 1_555 1_555
H4 C12 1_555 1_555
H5 C12 1_555 1_555
H6 C12 1_555 1_555
C13 N1 1_555 1_555
C14 C2 1_555 1_555
H7 C14 1_555 1_555
H8 C14 1_555 1_555
C15 H9 1_555 1_555
H10 C15 1_555 1_555
H11 C15 1_555 1_555
C16 C13 1_555 1_555
H12 C16 1_555 1_555
H13 C16 1_555 1_555
H14 C16 1_555 1_555
C17 C10 1_555 1_555
H15 C17 1_555 1_555
H16 C17 1_555 1_555
H17 C17 1_555 1_555
C18 C6 1_555 1_555
H18 C18 1_555 1_555
H19 C18 1_555 1_555
H20 C18 1_555 1_555
H21 N1 1_555 1_555
C19 C11 1_555 1_555
H22 C19 1_555 1_555
H23 C19 1_555 1_555
H24 C19 1_555 1_555
Cu1C O6 1_555 1_555
Cu2A N5 1_555 1_555
Cu2B O5 1_555 1_555
O5B Cu2 1_555 1_555
O6C Cu1 1_555 1_555
N5A Cu2 1_555 1_555
N2 N3 1_555 1_555
C1 C3 1_555 1_555
C1 N6 1_555 1_555
C2 C10 1_555 1_555
C3 N4 1_555 1_555
C7 C13 1_555 1_555
C7 C14 1_555 1_555

#END
