
#######################################################################
#
#                 Cambridge Crystallographic Data Centre
#                                CCDC 
#
#######################################################################
#
# If this CIF has been generated from an entry in the Cambridge 
# Structural Database, then it will include bibliographic, chemical, 
# crystal, experimental, refinement or atomic coordinate data resulting 
# from the CCDC's data processing and validation procedures.
#
#######################################################################

data_PIZRAT
_chemical_formula_moiety         '(C28 H36 Cu2 N6 O7)n'
_symmetry_cell_setting           orthorhombic
_symmetry_space_group_name_H-M   'P 21 21 21'
_symmetry_Int_Tables_number      19
_space_group_name_Hall           'P 2ac 2ab'
loop_
_symmetry_equiv_pos_site_id
_symmetry_equiv_pos_as_xyz
1 x,y,z
2 1/2-x,-y,1/2+z
3 1/2+x,1/2-y,-z
4 -x,1/2+y,1/2-z
_cell_length_a                   13.492(2)
_cell_length_b                   14.377(2)
_cell_length_c                   16.191(3)
_cell_angle_alpha                90
_cell_angle_beta                 90
_cell_angle_gamma                90
_cell_volume                     3140.64
loop_
_atom_site_label
_atom_site_type_symbol
_atom_site_fract_x
_atom_site_fract_y
_atom_site_fract_z
_atom_site_U_iso_or_equiv
_atom_site_thermal_displace_type
Cu1 Cu -0.70060(4) -0.20674(4) 0.33602(3) 0.0281 Uani
Cu2 Cu -0.42989(4) -0.45121(4) 0.41501(3) 0.0286 Uani
N1 N -0.6218(3) -0.2392(3) 0.4289(2) 0.0323 Uani
N2 N -0.4837(3) -0.3965(3) 0.3176(2) 0.0320 Uani
N3 N -0.7010(3) -0.7977(3) 0.7477(2) 0.0317 Uani
N4 N -0.7192(3) -0.8369(3) 0.6744(2) 0.0353 Uani
H1 H -0.7741 -0.8651 0.6615 0.0420 Uiso
N5 N -0.3998(3) -0.5094(3) 0.5848(3) 0.0357 Uani
H2 H -0.3764 -0.4542 0.5950 0.0430 Uiso
N6 N -0.4319(3) -0.5373(3) 0.5106(2) 0.0322 Uani
C1 C -0.7453(4) -0.1482(3) 0.4984(3) 0.0297 Uani
C2 C -0.5670(5) -0.1186(4) 0.5239(4) 0.0533 Uani
H3 H -0.5021 -0.1472 0.5293 0.0800 Uiso
H4 H -0.5833 -0.0861 0.5746 0.0800 Uiso
H5 H -0.5662 -0.0749 0.4783 0.0800 Uiso
C3 C -0.6443(4) -0.1937(4) 0.5075(3) 0.0360 Uani
H6 H -0.6451 -0.2397 0.5530 0.0430 Uiso
C4 C -0.5592(3) -0.3069(3) 0.4186(3) 0.0283 Uani
C5 C -0.5525(3) -0.3350(3) 0.3290(3) 0.0290 Uani
C6 C -0.4598(4) -0.4379(4) 0.2384(3) 0.0433 Uani
H7 H -0.5217 -0.4549 0.2092 0.0520 Uiso
C7 C -0.3983(7) -0.3719(5) 0.1843(4) 0.0887 Uani
H8 H -0.4367 -0.3165 0.1723 0.1330 Uiso
H9 H -0.3811 -0.4029 0.1331 0.1330 Uiso
H10 H -0.3382 -0.3546 0.2134 0.1330 Uiso
C8 C -0.3994(4) -0.5251(3) 0.2560(3) 0.0323 Uani
C9 C -0.6484(6) -0.8657(5) 0.5360(4) 0.0677 Uani
H11 H -0.7102 -0.8995 0.5302 0.1010 Uiso
H12 H -0.5933 -0.9076 0.5260 0.1010 Uiso
H13 H -0.6465 -0.8152 0.4964 0.1010 Uiso
C10 C -0.6408(4) -0.8267(3) 0.6226(3) 0.0403 Uani
C11 C -0.5701(4) -0.7760(3) 0.6639(3) 0.0323 Uani
C12 C -0.6107(4) -0.7594(3) 0.7424(3) 0.0347 Uani
C13 C -0.5688(5) -0.7102(5) 0.8140(3) 0.0697 Uani
H14 H -0.6156 -0.7121 0.8594 0.1040 Uiso
H15 H -0.5556 -0.6460 0.7992 0.1040 Uiso
H16 H -0.5074 -0.7400 0.8305 0.1040 Uiso
C14 C -0.4662(4) -0.7497(3) 0.6357(4) 0.0417 Uani
H17 H -0.4486 -0.7962 0.5963 0.0500 Uiso
H18 H -0.4284 -0.7924 0.6676 0.0500 Uiso
C15 C -0.5053(5) -0.6782(4) 0.4498(4) 0.0540 Uani
H19 H -0.5046 -0.6401 0.4004 0.0810 Uiso
H20 H -0.5730 -0.6955 0.4629 0.0810 Uiso
H21 H -0.4663 -0.7339 0.4406 0.0810 Uiso
C16 C -0.4624(3) -0.6247(3) 0.5198(3) 0.0327 Uani
C17 C -0.4491(3) -0.6531(3) 0.6023(3) 0.0337 Uani
C18 C -0.4083(4) -0.5772(4) 0.6418(3) 0.0357 Uani
C19 C -0.3765(6) -0.5587(5) 0.7286(4) 0.0633 Uani
H22 H -0.3873 -0.6139 0.7619 0.0950 Uiso
H23 H -0.4148 -0.5075 0.7510 0.0950 Uiso
H24 H -0.3066 -0.5428 0.7294 0.0950 Uiso
O1 O -0.7817(3) -0.1100(3) 0.5588(2) 0.0420 Uani
O2 O -0.7846(2) -0.1490(2) 0.4252(2) 0.0338 Uani
O3 O -0.6114(3) -0.2983(3) 0.2763(2) 0.0401 Uani
O4 O -0.5070(3) -0.3489(2) 0.4717(2) 0.0353 Uani
O5 O -0.3782(2) -0.5426(2) 0.3310(2) 0.0337 Uani
O6 O -0.3728(3) -0.5728(2) 0.1967(2) 0.0460 Uani
Cu1A Cu -0.79940(4) -0.79326(4) 0.83602(3) 0.0281 Uani
Cu1C Cu -0.29940(4) -0.70674(4) 0.16398(3) 0.0281 Uani
Cu2B Cu -0.92989(4) -0.04879(4) 0.58499(3) 0.0286 Uani
N3A N -0.7990(3) -0.2023(3) 0.2477(2) 0.0317 Uani
O1B O -0.2817(3) -0.3900(3) 0.4412(2) 0.0420 Uani
O6C O -0.6272(3) -0.0728(2) 0.3033(2) 0.0460 Uani
C20 C -0.8214(5) -0.5159(5) 0.1601(6) 0.1853 Uani
H25 H -0.8728 -0.4728 0.1519 0.2220 Uiso
C21 C -0.8344(6) -0.5897(6) 0.2145(6) 0.1993 Uani
H26 H -0.8946 -0.5965 0.2431 0.2390 Uiso
C22 C -0.7583(7) -0.6534(5) 0.2268(5) 0.1977 Uani
H27 H -0.7671 -0.7033 0.2636 0.2370 Uiso
C23 C -0.6692(6) -0.6433(5) 0.1846(5) 0.1550 Uani
H28 H -0.6177 -0.6864 0.1928 0.1860 Uiso
C24 C -0.6562(5) -0.5695(6) 0.1302(5) 0.1427 Uani
H29 H -0.5959 -0.5627 0.1016 0.1710 Uiso
C25 C -0.7323(6) -0.5058(5) 0.1179(5) 0.1157 Uani
O7 O -0.6527(7) -0.3575(5) 0.0907(6) 0.1693 Uani
H30 H -0.6524 -0.3503 0.1428 0.2030 Uiso
C26 C -0.7144(11) -0.4329(9) -0.0232(8) 0.1510 Uani
H31 H -0.7387 -0.3773 -0.0517 0.1810 Uiso
H32 H -0.6441 -0.4401 -0.0370 0.1810 Uiso
C27 C -0.7232(12) -0.4182(8) 0.0659(8) 0.1517 Uani
H33 H -0.7869 -0.3850 0.0734 0.1820 Uiso
C28 C -0.7642(14) -0.5076(11) -0.0521(8) 0.2097 Uani
H34 H -0.7516 -0.5145 -0.1107 0.3130 Uiso
H35 H -0.8347 -0.4989 -0.0430 0.3130 Uiso
H36 H -0.7422 -0.5630 -0.0232 0.3130 Uiso
loop_
_atom_site_aniso_label
_atom_site_aniso_U_11
_atom_site_aniso_U_22
_atom_site_aniso_U_33
_atom_site_aniso_U_23
_atom_site_aniso_U_13
_atom_site_aniso_U_12
Cu1 0.0298(3) 0.0289(3) 0.0256(3) 0.0006(2) -0.0034(2) 0.0054(2)
Cu2 0.0311(3) 0.0289(3) 0.0259(3) 0.0001(2) -0.0009(2) 0.0072(2)
N1 0.035(2) 0.040(2) 0.022(2) -0.0004(16) -0.0011(17) 0.0149(17)
N2 0.039(2) 0.0320(19) 0.025(2) -0.0027(16) -0.0028(17) 0.0118(17)
N3 0.0302 0.036 0.029 -0.0055 0.0072 -0.0069
N4 0.035 0.039 0.032 -0.0065 0.007 -0.0126
N5 0.042(2) 0.033(2) 0.032(2) 0.0010(18) -0.001(2) -0.0144(17)
N6 0.038(2) 0.0285(19) 0.030(2) 0.0019(15) -0.0013(18) -0.0031(18)
C1 0.030(2) 0.031(2) 0.028(3) 0.0016(19) 0.003(2) 0.0033(19)
C2 0.043(3) 0.074(4) 0.043(3) -0.020(3) -0.012(3) 0.006(3)
C3 0.045(3) 0.042(3) 0.021(2) 0.002(2) 0.000(2) 0.018(2)
C4 0.026(2) 0.033(2) 0.026(2) -0.0001(18) -0.002(2) 0.0055(18)
C5 0.036(2) 0.027(2) 0.024(2) -0.0004(18) 0.001(2) 0.0067(18)
C6 0.058(3) 0.042(3) 0.030(3) -0.011(2) -0.011(2) 0.027(3)
C7 0.161(9) 0.059(4) 0.046(4) 0.023(3) 0.042(5) 0.043(5)
C8 0.032(2) 0.031(2) 0.034(3) -0.005(2) -0.001(2) 0.0034(18)
C9 0.092 0.066 0.045 -0.021 0.029 -0.042
C10 0.053 0.032 0.036 -0.001 0.02 -0.008
C11 0.033 0.025 0.039 0.004 0.011 -0.0015
C12 0.034 0.038 0.032 0 0.002 -0.009
C13 0.072 0.096 0.041 -0.008 0.002 -0.045
C14 0.036(3) 0.031(2) 0.058(4) 0.017(2) 0.018(3) 0.003(2)
C15 0.068(4) 0.045(3) 0.049(4) -0.004(3) 0.002(3) -0.017(3)
C16 0.030(2) 0.032(2) 0.036(3) 0.0009(19) 0.007(2) -0.0039(18)
C17 0.029(2) 0.033(2) 0.039(3) 0.010(2) 0.007(2) -0.0056(18)
C18 0.035(3) 0.045(3) 0.027(3) 0.009(2) 0.002(2) -0.007(2)
C19 0.080(5) 0.068(4) 0.042(4) 0.010(3) -0.010(3) -0.032(4)
O1 0.0351(19) 0.056(2) 0.035(2) -0.0034(16) 0.0069(16) 0.0157(17)
O2 0.0322(17) 0.0384(17) 0.0307(19) -0.0001(14) -0.0002(15) 0.0097(14)
O3 0.049(2) 0.0462(19) 0.0252(18) -0.0046(15) -0.0089(15) 0.0205(18)
O4 0.0411(19) 0.0393(18) 0.0256(18) -0.0008(14) -0.0019(15) 0.0195(16)
O5 0.0425(18) 0.0328(16) 0.0257(17) -0.0025(14) -0.0015(15) 0.0117(14)
O6 0.061(2) 0.043(2) 0.034(2) -0.0102(15) 0.0028(18) 0.0187(18)
Cu1A 0.0298 0.0289 0.0256 -0.0006 0.0034 0.0054
Cu1C 0.0298 0.0289 0.0256 -0.0006 -0.0034 -0.0054
Cu2B 0.0311 0.0289 0.0259 0.0001 0.0009 -0.0072
N3A 0.0302 0.036 0.029 0.0055 -0.0072 -0.0069
O1B 0.0351 0.056 0.035 -0.0034 -0.0069 -0.0157
O6C 0.061 0.043 0.034 0.0102 0.0028 -0.0187
C20 0.139(9) 0.136(9) 0.281(15) 0.089(10) 0.097(10) 0.046(8)
C21 0.155(9) 0.130(8) 0.313(13) 0.112(9) 0.110(9) 0.048(7)
C22 0.134(10) 0.134(9) 0.325(15) 0.108(10) 0.103(11) 0.041(8)
C23 0.134(11) 0.094(8) 0.237(16) 0.048(9) 0.025(11) 0.019(7)
C24 0.095(8) 0.117(9) 0.216(15) 0.021(10) 0.029(9) 0.001(7)
C25 0.103(8) 0.083(6) 0.161(10) 0.021(7) 0.019(8) 0.006(6)
O7 0.215(8) 0.096(5) 0.197(7) 0.013(5) -0.014(7) -0.058(5)
C26 0.170(10) 0.139(8) 0.144(9) -0.003(8) -0.015(9) -0.064(8)
C27 0.184(8) 0.091(5) 0.180(7) 0.004(6) -0.022(7) -0.059(6)
C28 0.24(2) 0.175(14) 0.214(17) -0.029(13) -0.068(16) -0.056(14)
loop_
_geom_bond_atom_site_label_1
_geom_bond_atom_site_label_2
_geom_bond_site_symmetry_1
_geom_bond_site_symmetry_2
Cu1 N1 1_555 1_555
Cu2 N2 1_555 1_555
N1 C3 1_555 1_555
N2 C5 1_555 1_555
N3 N4 1_555 1_555
N4 H1 1_555 1_555
N5 H2 1_555 1_555
N6 Cu2 1_555 1_555
C1 C3 1_555 1_555
C2 H3 1_555 1_555
H4 C2 1_555 1_555
H5 C2 1_555 1_555
C3 C2 1_555 1_555
H6 C3 1_555 1_555
C4 N1 1_555 1_555
C5 C4 1_555 1_555
C6 N2 1_555 1_555
H7 C6 1_555 1_555
C7 C6 1_555 1_555
H8 C7 1_555 1_555
H9 C7 1_555 1_555
H10 C7 1_555 1_555
C8 C6 1_555 1_555
C9 H11 1_555 1_555
H12 C9 1_555 1_555
H13 C9 1_555 1_555
C10 N4 1_555 1_555
C11 C10 1_555 1_555
C12 N3 1_555 1_555
C13 C12 1_555 1_555
H14 C13 1_555 1_555
H15 C13 1_555 1_555
H16 C13 1_555 1_555
C14 C11 1_555 1_555
H17 C14 1_555 1_555
H18 C14 1_555 1_555
C15 H19 1_555 1_555
H20 C15 1_555 1_555
H21 C15 1_555 1_555
C16 N6 1_555 1_555
C17 C14 1_555 1_555
C18 N5 1_555 1_555
C19 C18 1_555 1_555
H22 C19 1_555 1_555
H23 C19 1_555 1_555
H24 C19 1_555 1_555
O1 C1 1_555 1_555
O2 Cu1 1_555 1_555
O3 Cu1 1_555 1_555
O4 Cu2 1_555 1_555
O5 Cu2 1_555 1_555
O6 C8 1_555 1_555
C20 H25 1_555 1_555
C21 C20 1_555 1_555
H26 C21 1_555 1_555
C22 C21 1_555 1_555
H27 C22 1_555 1_555
C23 C22 1_555 1_555
H28 C23 1_555 1_555
C24 C23 1_555 1_555
H29 C24 1_555 1_555
C25 C20 1_555 1_555
O7 H30 1_555 1_555
C26 H31 1_555 1_555
H32 C26 1_555 1_555
C27 C25 1_555 1_555
H33 C27 1_555 1_555
C28 C26 1_555 1_555
H34 C28 1_555 1_555
H35 C28 1_555 1_555
H36 C28 1_555 1_555
Cu1A N3 1_555 1_555
Cu1C O6 1_555 1_555
Cu2B O1 1_555 1_555
N3A Cu1 1_555 1_555
O1B Cu2 1_555 1_555
O6C Cu1 1_555 1_555
N5 N6 1_555 1_555
C1 O2 1_555 1_555
C4 O4 1_555 1_555
C5 O3 1_555 1_555
C8 O5 1_555 1_555
C9 C10 1_555 1_555
C11 C12 1_555 1_555
C15 C16 1_555 1_555
C16 C17 1_555 1_555
C17 C18 1_555 1_555
C24 C25 1_555 1_555
O7 C27 1_555 1_555
C26 C27 1_555 1_555

#END
