
#######################################################################
#
#                 Cambridge Crystallographic Data Centre
#                                CCDC 
#
#######################################################################
#
# If this CIF has been generated from an entry in the Cambridge 
# Structural Database, then it will include bibliographic, chemical, 
# crystal, experimental, refinement or atomic coordinate data resulting 
# from the CCDC's data processing and validation procedures.
#
#######################################################################

data_JUNBUR
_chemical_formula_moiety         '(C21 H31 Cd1 N4 O10 1+)n'
_symmetry_cell_setting           monoclinic
_symmetry_space_group_name_H-M   'P 21/c'
_symmetry_Int_Tables_number      14
_space_group_name_Hall           '-P 2ybc'
loop_
_symmetry_equiv_pos_site_id
_symmetry_equiv_pos_as_xyz
1 x,y,z
2 -x,1/2+y,1/2-z
3 -x,-y,-z
4 x,1/2-y,1/2+z
_cell_length_a                   10.240(5)
_cell_length_b                   13.772(6)
_cell_length_c                   16.700(6)
_cell_angle_alpha                90
_cell_angle_beta                 127.046(19)
_cell_angle_gamma                90
_cell_volume                     1879.75
loop_
_atom_site_label
_atom_site_type_symbol
_atom_site_fract_x
_atom_site_fract_y
_atom_site_fract_z
Cd1 Cd -0.41780(8) -0.57587(4) -0.06186(5)
O1 O -0.3195(8) -0.4542(5) 0.0533(5)
O2 O -0.5597(9) -0.4477(5) -0.1749(5)
H1 H -0.4863 -0.4124 -0.1707
H2 H -0.6230 -0.4209 -0.1802
O3 O -0.3334(8) -0.3520(5) 0.1484(5)
O4 O 0.2008(8) -0.4529(4) 0.0773(5)
O5 O 0.3876(8) -0.3431(4) 0.1743(5)
O6 O 0.3660(9) -0.1668(5) 0.4273(5)
O7 O 0.1711(9) -0.2059(6) 0.4408(5)
C1 C -0.2600(10) -0.3904(6) 0.1179(7)
C2 C -0.0872(10) -0.3560(6) 0.1661(6)
C3 C -0.0015(10) -0.3848(6) 0.1305(6)
H3 H -0.0515 -0.4247 0.0744
C4 C 0.1582(10) -0.3546(6) 0.1780(6)
C5 C 0.2535(11) -0.3855(6) 0.1402(6)
C6 C 0.2331(11) -0.2961(6) 0.2609(6)
H4 H 0.3391 -0.2741 0.2914
C7 C 0.1484(10) -0.2695(6) 0.2999(6)
C8 C 0.2347(11) -0.2097(6) 0.3957(6)
C9 C -0.0090(10) -0.2989(6) 0.2534(7)
H5 H -0.0645 -0.2812 0.2793
Cd1A Cd 0.41780(8) -0.07587(4) 0.56186(5)
Cd1B Cd -0.58220(8) -0.42413(4) 0.06186(5)
Cd1B_2 Cd 0.41780(8) -0.42413(4) 0.06186(5)
O1B O -0.6805(8) -0.5458(5) -0.0533(5)
O3B O -0.6666(8) -0.6480(5) -0.1484(5)
O4B O -0.2008(8) -0.5471(4) -0.0773(5)
O5B O -0.3876(8) -0.6569(4) -0.1743(5)
O6A O -0.3660(9) -0.6668(5) 0.0727(5)
O7A O -0.1711(9) -0.7059(6) 0.0592(5)
N1 N -0.2250(11) -0.1001(6) 0.0739(6)
N2 N -0.0064(11) -0.0891(6) 0.0832(7)
H6 H 0.0603 -0.0933 0.0681
C10 C -0.2388(18) -0.1697(12) -0.0697(10)
H7 H -0.2943 -0.1218 -0.1219
H8 H -0.3170 -0.2153 -0.0780
H9 H -0.1602 -0.2032 -0.0733
C11 C -0.1544(15) -0.1217(8) 0.0286(9)
C12 C 0.0306(14) -0.0468(8) 0.1685(8)
H10 H 0.1299 -0.0194 0.2202
C13 C -0.1061(14) -0.0531(8) 0.1628(8)
H11 H -0.1187 -0.0299 0.2101
C14 C -0.3882(14) -0.1261(7) 0.0411(9)
H12 H -0.3863 -0.1358 0.0993
H13 H -0.4209 -0.1868 0.0042
C15 C -0.5125(15) -0.0478(8) -0.0253(10)
H14 H -0.5097 -0.0369 -0.0817
H15 H -0.6207 -0.0717 -0.0520
N1B N -0.7750(11) 0.1001(6) -0.0739(6)
N2B N -0.9936(11) 0.0891(6) -0.0832(7)
H6B H -1.0603 0.0933 -0.0681
C10B C -0.7612(18) 0.1697(12) 0.0697(10)
H7B H -0.7057 0.1218 0.1219
H8B H -0.6830 0.2153 0.0780
H9B H -0.8398 0.2032 0.0733
C11B C -0.8456(15) 0.1217(8) -0.0286(9)
C12B C -1.0306(14) 0.0468(8) -0.1685(8)
H10B H -1.1299 0.0194 -0.2202
C13B C -0.8939(14) 0.0531(8) -0.1628(8)
H11B H -0.8813 0.0299 -0.2101
C14B C -0.6118(14) 0.1261(7) -0.0411(9)
H12B H -0.6137 0.1358 -0.0993
H13B H -0.5791 0.1868 -0.0042
C15B C -0.4875(15) 0.0478(8) 0.0253(10)
H14B H -0.4903 0.0369 0.0817
H15B H -0.3793 0.0717 0.0520
O8 O -0.4658(10) -0.1628(5) 0.2277(6)
H16 H -0.4956 -0.2314 0.2200
H17 H -0.3892 -0.1597 0.2194
O9 O -0.1384(9) -0.1195(5) 0.3528(6)
H18 H -0.0453 -0.1487 0.3809
H19 H -0.1209 -0.0596 0.3805
O10 O -0.7835(10) -0.1184(6) 0.0437(6)
H20 H -0.7280 -0.1514 0.1012
loop_
_geom_bond_atom_site_label_1
_geom_bond_atom_site_label_2
_geom_bond_site_symmetry_1
_geom_bond_site_symmetry_2
Cd1 O1 1_555 1_555
O1 C1 1_555 1_555
O2 Cd1 1_555 1_555
H1 O2 1_555 1_555
H2 O2 1_555 1_555
O3 C1 1_555 1_555
O4 C5 1_555 1_555
O5 C5 1_555 1_555
O6 C8 1_555 1_555
O7 C8 1_555 1_555
C1 C2 1_555 1_555
C2 C3 1_555 1_555
C3 H3 1_555 1_555
C4 C3 1_555 1_555
C5 C4 1_555 1_555
C6 C4 1_555 1_555
H4 C6 1_555 1_555
C7 C6 1_555 1_555
C8 C7 1_555 1_555
C9 C2 1_555 1_555
H5 C9 1_555 1_555
N1 C11 1_555 1_555
N2 H6 1_555 1_555
C10 H7 1_555 1_555
H8 C10 1_555 1_555
H9 C10 1_555 1_555
C11 N2 1_555 1_555
C12 N2 1_555 1_555
H10 C12 1_555 1_555
C13 N1 1_555 1_555
H11 C13 1_555 1_555
C14 N1 1_555 1_555
H12 C14 1_555 1_555
H13 C14 1_555 1_555
C15 C14 1_555 1_555
H14 C15 1_555 1_555
H15 C15 1_555 1_555
O8 H16 1_555 1_555
H17 O8 1_555 1_555
O9 H18 1_555 1_555
H19 O9 1_555 1_555
O10 H20 1_555 1_555
Cd1A O6 1_555 1_555
Cd1B O1 1_555 1_555
Cd1B_2 O4 1_555 1_555
O1B Cd1 1_555 1_555
O3B Cd1 1_555 1_555
O4B Cd1 1_555 1_555
O5B Cd1 1_555 1_555
O6A Cd1 1_555 1_555
O7A Cd1 1_555 1_555
N1B C11B 1_555 1_555
N2B H6B 1_555 1_555
C10B H7B 1_555 1_555
H8B C10B 1_555 1_555
H9B C10B 1_555 1_555
C11B N2B 1_555 1_555
C12B N2B 1_555 1_555
H10B C12B 1_555 1_555
C13B N1B 1_555 1_555
H11B C13B 1_555 1_555
C14B N1B 1_555 1_555
H12B C14B 1_555 1_555
H13B C14B 1_555 1_555
C15B C15 1_555 1_555
H14B C15B 1_555 1_555
H15B C15B 1_555 1_555
O3 Cd1B 1_555 1_555
O5 Cd1B_2 1_555 1_555
O7 Cd1A 1_555 1_555
C7 C9 1_555 1_555
C10 C11 1_555 1_555
C12 C13 1_555 1_555
Cd1B O1B 1_555 1_555
C10B C11B 1_555 1_555
C12B C13B 1_555 1_555
C14B C15B 1_555 1_555

#END
