
#######################################################################
#
#                 Cambridge Crystallographic Data Centre
#                                CCDC 
#
#######################################################################
#
# If this CIF has been generated from an entry in the Cambridge 
# Structural Database, then it will include bibliographic, chemical, 
# crystal, experimental, refinement or atomic coordinate data resulting 
# from the CCDC's data processing and validation procedures.
#
#######################################################################

data_QUWYEO
_chemical_formula_moiety         '(C22 H28 Ca1 O6 S1)n'
_symmetry_cell_setting           monoclinic
_symmetry_space_group_name_H-M   'P 21/n'
_symmetry_Int_Tables_number      14
_space_group_name_Hall           '-P 2yn'
loop_
_symmetry_equiv_pos_site_id
_symmetry_equiv_pos_as_xyz
1 x,y,z
2 1/2-x,1/2+y,1/2-z
3 -x,-y,-z
4 1/2+x,1/2-y,1/2+z
_cell_length_a                   11.6884(5)
_cell_length_b                   5.5643(2)
_cell_length_c                   22.8159(10)
_cell_angle_alpha                90
_cell_angle_beta                 100.691(4)
_cell_angle_gamma                90
_cell_volume                     1458.14
loop_
_atom_site_label
_atom_site_type_symbol
_atom_site_fract_x
_atom_site_fract_y
_atom_site_fract_z
Ca1 Ca -0.13742(2) 0.75633(4) 0.27818(2)
S1 S 0.10145(3) 0.96454(5) 0.39330(2)
O1 O 0.23970(8) 0.91505(17) 0.69092(4)
O2 O 0.23621(8) 0.52343(17) 0.67212(4)
O3 O 0.54211(9) 0.91879(18) 0.24461(4)
O4 O 0.51296(8) 0.52383(17) 0.25348(4)
O5 O 0.08446(9) 1.22059(17) 0.38950(4)
O6 O 0.00494(8) 0.80562(17) 0.37030(4)
C1 C 0.14670(11) 0.8909(2) 0.46929(5)
C2 C 0.20595(12) 1.0620(2) 0.50775(6)
H1 H 0.2278 1.2111 0.4928
C3 C 0.23276(12) 1.0122(2) 0.56837(6)
H2 H 0.2722 1.1283 0.5953
C4 C 0.20170(11) 0.7914(2) 0.58960(5)
C5 C 0.14677(12) 0.6188(2) 0.55025(6)
H3 H 0.1287 0.4663 0.5649
C6 C 0.11802(12) 0.6670(2) 0.48962(6)
H4 H 0.0796 0.5499 0.4626
C7 C 0.22619(10) 0.7384(2) 0.65525(5)
C8 C 0.21873(11) 0.8908(2) 0.35811(5)
C9 C 0.30779(12) 1.0591(2) 0.35955(6)
H5 H 0.3071 1.2051 0.3811
C10 C 0.39763(11) 1.0098(2) 0.32897(6)
H6 H 0.4576 1.1245 0.3285
C11 C 0.39952(11) 0.7918(2) 0.29902(6)
C12 C 0.31163(11) 0.6232(2) 0.29972(6)
H7 H 0.3146 0.4732 0.2801
C13 C 0.21940(11) 0.6721(2) 0.32884(6)
H8 H 0.1586 0.5588 0.3287
C14 C 0.49352(11) 0.7410(2) 0.26289(6)
Ca1A Ca 0.63742(2) 0.25633(4) 0.22182(2)
Ca1A_2 Ca 0.63742(2) 1.25633(4) 0.22182(2)
Ca1B Ca 0.13742(2) 0.24367(4) 0.72182(2)
Ca1B_2 Ca 0.13742(2) 1.24367(4) 0.72182(2)
Ca1C Ca 0.36258(2) 0.74367(4) 0.77818(2)
O1B O -0.23970(8) 1.08495(17) 0.30908(4)
O1C O -0.26030(8) 0.58495(17) 0.19092(4)
O2B O -0.23621(8) 0.47657(17) 0.32788(4)
O3A O -0.04211(9) 0.41879(18) 0.25539(4)
O4A O -0.01296(8) 1.02383(17) 0.24652(4)
C15 C 0.5205(14) 0.783(3) 0.5143(9)
H9 H 0.4800 0.9328 0.5010
H10 H 0.5150 0.7521 0.5560
H11 H 0.6026 0.7963 0.5108
C16 C 0.467(2) 0.584(3) 0.4770(9)
H12 H 0.4709 0.6188 0.4349
H13 H 0.3834 0.5746 0.4800
C17 C 0.522(2) 0.344(3) 0.4936(11)
H14 H 0.5018 0.2317 0.4596
H15 H 0.6080 0.3624 0.5023
C18 C 0.4821(18) 0.244(6) 0.5468(12)
H16 H 0.5192 0.0876 0.5570
H17 H 0.5034 0.3542 0.5805
H18 H 0.3973 0.2238 0.5379
C15B C 0.4795(14) 0.217(3) 0.4857(9)
H9B H 0.5200 0.0672 0.4990
H10B H 0.4850 0.2479 0.4440
H11B H 0.3974 0.2037 0.4892
C16B C 0.533(2) 0.416(3) 0.5230(9)
H12B H 0.5291 0.3812 0.5651
H13B H 0.6166 0.4254 0.5200
C17B C 0.478(2) 0.656(3) 0.5064(11)
H14B H 0.4982 0.7683 0.5404
H15B H 0.3920 0.6376 0.4977
C18B C 0.5179(18) 0.756(6) 0.4532(12)
H16B H 0.4808 0.9124 0.4430
H17B H 0.4966 0.6458 0.4195
H18B H 0.6027 0.7762 0.4621
loop_
_geom_bond_atom_site_label_1
_geom_bond_atom_site_label_2
_geom_bond_site_symmetry_1
_geom_bond_site_symmetry_2
Ca1 O6 1_555 1_555
S1 O5 1_555 1_555
O1 C7 1_555 1_555
O2 C7 1_555 1_555
O3 C14 1_555 1_555
O4 C14 1_555 1_555
O6 S1 1_555 1_555
C1 S1 1_555 1_555
C2 C1 1_555 1_555
H1 C2 1_555 1_555
C3 C2 1_555 1_555
H2 C3 1_555 1_555
C4 C3 1_555 1_555
C5 C4 1_555 1_555
H3 C5 1_555 1_555
C6 C1 1_555 1_555
H4 C6 1_555 1_555
C7 C4 1_555 1_555
C8 S1 1_555 1_555
C9 C8 1_555 1_555
H5 C9 1_555 1_555
C10 C9 1_555 1_555
H6 C10 1_555 1_555
C11 C10 1_555 1_555
C12 C11 1_555 1_555
H7 C12 1_555 1_555
C13 C8 1_555 1_555
H8 C13 1_555 1_555
C14 C11 1_555 1_555
C15 H9 1_555 1_555
H10 C15 1_555 1_555
H11 C15 1_555 1_555
C16 C15 1_555 1_555
H12 C16 1_555 1_555
H13 C16 1_555 1_555
C17 C16 1_555 1_555
H14 C17 1_555 1_555
H15 C17 1_555 1_555
C18 C17 1_555 1_555
H16 C18 1_555 1_555
H17 C18 1_555 1_555
H18 C18 1_555 1_555
Ca1A O4 1_555 1_555
Ca1A_2 O3 1_555 1_555
Ca1B O2 1_555 1_555
Ca1B_2 O1 1_555 1_555
Ca1C O1 1_555 1_555
O1B Ca1 1_555 1_555
O1C Ca1 1_555 1_555
O2B Ca1 1_555 1_555
O3A Ca1 1_555 1_555
O4A Ca1 1_555 1_555
C15B H9B 1_555 1_555
H10B C15B 1_555 1_555
H11B C15B 1_555 1_555
C16B C15B 1_555 1_555
H12B C16B 1_555 1_555
H13B C16B 1_555 1_555
C17B C16B 1_555 1_555
H14B C17B 1_555 1_555
H15B C17B 1_555 1_555
C18B C17B 1_555 1_555
H16B C18B 1_555 1_555
H17B C18B 1_555 1_555
H18B C18B 1_555 1_555
C5 C6 1_555 1_555
C12 C13 1_555 1_555

#END
