
#######################################################################
#
#                 Cambridge Crystallographic Data Centre
#                                CCDC 
#
#######################################################################
#
# If this CIF has been generated from an entry in the Cambridge 
# Structural Database, then it will include bibliographic, chemical, 
# crystal, experimental, refinement or atomic coordinate data resulting 
# from the CCDC's data processing and validation procedures.
#
#######################################################################

data_QUXRAE
_chemical_formula_moiety         '(C14 H8 Ca1 O6 S1)n'
_symmetry_cell_setting           monoclinic
_symmetry_space_group_name_H-M   'P 21/n'
_symmetry_Int_Tables_number      14
_space_group_name_Hall           '-P 2yn'
loop_
_symmetry_equiv_pos_site_id
_symmetry_equiv_pos_as_xyz
1 x,y,z
2 1/2-x,1/2+y,1/2-z
3 -x,-y,-z
4 1/2+x,1/2-y,1/2+z
_cell_length_a                   11.7292(13)
_cell_length_b                   5.5685(6)
_cell_length_c                   22.792(3)
_cell_angle_alpha                90
_cell_angle_beta                 100.493(2)
_cell_angle_gamma                90
_cell_volume                     1463.74
loop_
_atom_site_label
_atom_site_type_symbol
_atom_site_fract_x
_atom_site_fract_y
_atom_site_fract_z
Ca1 Ca 0.637486(18) -0.24380(4) 0.222220(9)
S1 S 0.39917(2) -0.03549(5) 0.107138(11)
O1 O 0.26084(7) -0.08443(15) -0.19076(3)
O2 O 0.26461(7) -0.47580(15) -0.17203(3)
O3 O -0.04233(7) -0.08085(16) 0.25482(4)
O4 O -0.01357(7) -0.47637(15) 0.24585(4)
O5 O 0.41621(7) 0.22042(15) 0.11108(4)
O6 O 0.49514(7) -0.19452(15) 0.13020(3)
C1 C 0.35455(10) -0.1085(2) 0.03111(5)
C2 C 0.38241(10) -0.3326(2) 0.01067(5)
H1 H 0.4200 -0.4502 0.0376
C3 C 0.35388(10) -0.3802(2) -0.05007(5)
H2 H 0.3720 -0.5324 -0.0648
C4 C 0.29938(9) -0.2082(2) -0.08941(5)
C5 C 0.26898(11) 0.0122(2) -0.06798(5)
H3 H 0.2301 0.1286 -0.0949
C6 C 0.29539(11) 0.0621(2) -0.00742(5)
H4 H 0.2733 0.2109 0.0076
C7 C 0.27457(9) -0.2614(2) -0.15530(5)
C8 C 0.28174(9) -0.1088(2) 0.14223(5)
C9 C 0.19304(10) 0.0595(2) 0.14080(5)
H5 H 0.1942 0.2058 0.1195
C10 C 0.10297(10) 0.0098(2) 0.17102(5)
H6 H 0.0430 0.1242 0.1713
C11 C 0.10079(9) -0.2080(2) 0.20092(5)
C12 C 0.18833(10) -0.3764(2) 0.20040(5)
H7 H 0.1851 -0.5260 0.2201
C13 C 0.28073(10) -0.3282(2) 0.17139(5)
H8 H 0.3412 -0.4418 0.1715
C14 C 0.00606(9) -0.2594(2) 0.23671(5)
Ca1A Ca -0.137486(18) -0.74380(4) 0.277780(9)
Ca1A_2 Ca -0.137486(18) 0.25620(4) 0.277780(9)
Ca1B Ca 0.362514(18) -0.75620(4) -0.222220(9)
Ca1B_2 Ca 0.362514(18) 0.24380(4) -0.222220(9)
Ca1C Ca 0.137486(18) -0.25620(4) -0.277780(9)
O1B O 0.73916(7) 0.08443(15) 0.19076(3)
O1C O 0.76084(7) -0.41557(15) 0.30924(3)
O2B O 0.73539(7) -0.52420(15) 0.17203(3)
O3A O 0.54233(7) -0.58085(16) 0.24518(4)
O4A O 0.51357(7) 0.02363(15) 0.25415(4)
loop_
_geom_bond_atom_site_label_1
_geom_bond_atom_site_label_2
_geom_bond_site_symmetry_1
_geom_bond_site_symmetry_2
Ca1 O6 1_555 1_555
S1 O5 1_555 1_555
O1 C7 1_555 1_555
O2 C7 1_555 1_555
O3 C14 1_555 1_555
O4 C14 1_555 1_555
O6 S1 1_555 1_555
C1 S1 1_555 1_555
C2 C1 1_555 1_555
H1 C2 1_555 1_555
C3 C2 1_555 1_555
H2 C3 1_555 1_555
C4 C3 1_555 1_555
C5 C4 1_555 1_555
H3 C5 1_555 1_555
C6 C1 1_555 1_555
H4 C6 1_555 1_555
C7 C4 1_555 1_555
C8 S1 1_555 1_555
C9 C8 1_555 1_555
H5 C9 1_555 1_555
C10 C9 1_555 1_555
H6 C10 1_555 1_555
C11 C10 1_555 1_555
C12 C11 1_555 1_555
H7 C12 1_555 1_555
C13 C8 1_555 1_555
H8 C13 1_555 1_555
C14 C11 1_555 1_555
Ca1A O4 1_555 1_555
Ca1A_2 O3 1_555 1_555
Ca1B O2 1_555 1_555
Ca1B_2 O1 1_555 1_555
Ca1C O1 1_555 1_555
O1B Ca1 1_555 1_555
O1C Ca1 1_555 1_555
O2B Ca1 1_555 1_555
O3A Ca1 1_555 1_555
O4A Ca1 1_555 1_555
C5 C6 1_555 1_555
C12 C13 1_555 1_555

#END
