
#######################################################################
#
#                 Cambridge Crystallographic Data Centre
#                                CCDC 
#
#######################################################################
#
# If this CIF has been generated from an entry in the Cambridge 
# Structural Database, then it will include bibliographic, chemical, 
# crystal, experimental, refinement or atomic coordinate data resulting 
# from the CCDC's data processing and validation procedures.
#
#######################################################################

data_ZEXKUK
_chemical_formula_moiety         '(C34 H24 Co1 N4 O5)n'
_symmetry_cell_setting           monoclinic
_symmetry_space_group_name_H-M   'P 2/c'
_symmetry_Int_Tables_number      13
_space_group_name_Hall           '-P 2yc'
loop_
_symmetry_equiv_pos_site_id
_symmetry_equiv_pos_as_xyz
1 x,y,z
2 -x,y,1/2-z
3 -x,-y,-z
4 x,-y,1/2+z
_cell_length_a                   13.262(3)
_cell_length_b                   11.519(2)
_cell_length_c                   9.2992(18)
_cell_angle_alpha                90
_cell_angle_beta                 90.913(4)
_cell_angle_gamma                90
_cell_volume                     1420.41
loop_
_atom_site_label
_atom_site_type_symbol
_atom_site_fract_x
_atom_site_fract_y
_atom_site_fract_z
Co1 Co 0.5000 0.55030(3) 0.7500
O1 O 0.61910(11) 0.56248(12) 0.89669(15)
O2 O 0.60671(11) 0.44689(13) 1.08878(16)
O3 O 1.0000 0.7368(2) 1.2500
N1 N 0.5000 0.7413(2) 0.7500
N2 N 0.5000 1.3592(2) 0.7500
C1 C 0.64871(16) 0.52410(17) 1.0167(2)
C2 C 0.74613(16) 0.57579(18) 1.0744(2)
C3 C 0.79307(17) 0.5285(2) 1.1960(2)
H1 H 0.7660 0.4626 1.2384
C4 C 0.87951(18) 0.5782(2) 1.2546(3)
H2 H 0.9105 0.5461 1.3357
C5 C 0.91891(18) 0.6758(2) 1.1910(3)
C6 C 0.87495(18) 0.7232(2) 1.0687(3)
H3 H 0.9031 0.7882 1.0255
C7 C 0.78855(17) 0.6728(2) 1.0111(2)
H4 H 0.7586 0.7044 0.9289
C8 C 0.54444(19) 0.8024(2) 0.8554(3)
H5 H 0.5744 0.7621 0.9314
C9 C 0.54835(19) 0.9224(2) 0.8576(3)
H6 H 0.5833 0.9605 0.9312
C10 C 0.5000 0.9860(3) 0.7500
C11 C 0.5000 1.1146(3) 0.7500
C12 C 0.57981(18) 1.1778(2) 0.8087(3)
H7 H 0.6348 1.1396 0.8500
C13 C 0.57702(18) 1.2977(2) 0.8054(2)
H8 H 0.6319 1.3380 0.8439
O1A O 1.38090(11) 0.56248(12) 1.60331(15)
C1A C 1.35129(16) 0.52410(17) 1.4833(2)
C2A C 1.25387(16) 0.57579(18) 1.4256(2)
C3A C 1.20693(17) 0.5285(2) 1.3040(2)
H1A H 1.2340 0.4626 1.2616
C4A C 1.12049(18) 0.5782(2) 1.2454(3)
H2A H 1.0895 0.5461 1.1643
C5A C 1.08109(18) 0.6758(2) 1.3090(3)
C6A C 1.12505(18) 0.7232(2) 1.4313(3)
H3A H 1.0969 0.7882 1.4745
C7A C 1.21145(17) 0.6728(2) 1.4889(2)
H4A H 1.2414 0.7044 1.5711
O2A O 1.39329(11) 0.44689(13) 1.41122(16)
C8A C 0.45556(19) 0.8024(2) 0.6446(3)
H5A H 0.4256 0.7621 0.5686
C9A C 0.45165(19) 0.9224(2) 0.6424(3)
H6A H 0.4167 0.9605 0.5688
C12A C 0.42019(18) 1.1778(2) 0.6913(3)
H7A H 0.3652 1.1396 0.6500
C13A C 0.42298(18) 1.2977(2) 0.6946(2)
H8A H 0.3681 1.3380 0.6561
Co1_2 Co 0.5000 1.55030(3) 0.7500
Co1_3 Co 1.5000 0.55030(3) 1.7500
Co1B Co 0.5000 0.44970(3) 1.2500
Co1B_2 Co 1.5000 0.44970(3) 1.2500
O1A_2 O 0.38090(11) 0.56248(12) 0.60331(15)
O2B O 0.39329(11) 0.55311(13) 0.91122(16)
O2C O 0.60671(11) 0.55311(13) 0.58878(16)
N2_2 N 0.5000 0.3592(2) 0.7500
N3 N 0.7577(3) 0.1168(3) 0.0788(4)
C14 C 0.7979(3) 0.0244(4) 0.1411(6)
H9 H 0.7608 -0.0441 0.1390
C15 C 0.8910(3) 0.0223(3) 0.2092(5)
H10 H 0.9148 -0.0460 0.2508
C16 C 0.9492(2) 0.1228(3) 0.2154(3)
C17 C 0.9051(3) 0.2207(3) 0.1560(4)
H11 H 0.9386 0.2916 0.1603
C18 C 0.8116(3) 0.2130(4) 0.0905(5)
H12 H 0.7843 0.2806 0.0515
N3A N 1.2423(3) 0.1168(3) 0.4212(4)
C14A C 1.2021(3) 0.0244(4) 0.3589(6)
H9A H 1.2392 -0.0441 0.3610
C15A C 1.1090(3) 0.0223(3) 0.2908(5)
H10A H 1.0852 -0.0460 0.2492
C16A C 1.0508(2) 0.1228(3) 0.2846(3)
C17A C 1.0949(3) 0.2207(3) 0.3440(4)
H11A H 1.0614 0.2916 0.3397
C18A C 1.1884(3) 0.2130(4) 0.4095(5)
H12A H 1.2157 0.2806 0.4485
loop_
_geom_bond_atom_site_label_1
_geom_bond_atom_site_label_2
_geom_bond_site_symmetry_1
_geom_bond_site_symmetry_2
Co1 O1 1_555 1_555
O1 C1 1_555 1_555
O2 C1 1_555 1_555
O3 C5 1_555 1_555
N1 Co1 1_555 1_555
N2 C13 1_555 1_555
C1 C2 1_555 1_555
C2 C3 1_555 1_555
C3 H1 1_555 1_555
C4 C3 1_555 1_555
H2 C4 1_555 1_555
C5 C4 1_555 1_555
C6 C5 1_555 1_555
H3 C6 1_555 1_555
C7 C2 1_555 1_555
H4 C7 1_555 1_555
C8 N1 1_555 1_555
H5 C8 1_555 1_555
C9 C8 1_555 1_555
H6 C9 1_555 1_555
C10 C9 1_555 1_555
C11 C10 1_555 1_555
C12 C11 1_555 1_555
H7 C12 1_555 1_555
C13 C12 1_555 1_555
H8 C13 1_555 1_555
N3 C14 1_555 1_555
C14 H9 1_555 1_555
C15 C14 1_555 1_555
H10 C15 1_555 1_555
C16 C15 1_555 1_555
C17 C16 1_555 1_555
H11 C17 1_555 1_555
C18 N3 1_555 1_555
H12 C18 1_555 1_555
O1A C1A 1_555 1_555
C1A C2A 1_555 1_555
C2A C3A 1_555 1_555
C3A H1A 1_555 1_555
C4A C3A 1_555 1_555
H2A C4A 1_555 1_555
C5A O3 1_555 1_555
C6A C5A 1_555 1_555
H3A C6A 1_555 1_555
C7A C2A 1_555 1_555
H4A C7A 1_555 1_555
O2A C1A 1_555 1_555
C8A N1 1_555 1_555
H5A C8A 1_555 1_555
C9A C10 1_555 1_555
H6A C9A 1_555 1_555
C12A C11 1_555 1_555
H7A C12A 1_555 1_555
C13A N2 1_555 1_555
H8A C13A 1_555 1_555
Co1_2 N2 1_555 1_555
Co1_3 O1A 1_555 1_555
Co1B O2 1_555 1_555
Co1B_2 O2A 1_555 1_555
O1A_2 Co1 1_555 1_555
O2B Co1 1_555 1_555
O2C Co1 1_555 1_555
N2_2 Co1 1_555 1_555
N3A C14A 1_555 1_555
C14A H9A 1_555 1_555
C15A C14A 1_555 1_555
H10A C15A 1_555 1_555
C16A C16 1_555 1_555
C17A C16A 1_555 1_555
H11A C17A 1_555 1_555
C18A N3A 1_555 1_555
H12A C18A 1_555 1_555
C6 C7 1_555 1_555
C17 C18 1_555 1_555
C4A C5A 1_555 1_555
C6A C7A 1_555 1_555
C8A C9A 1_555 1_555
C12A C13A 1_555 1_555
C15A C16A 1_555 1_555
C17A C18A 1_555 1_555

#END
