
#######################################################################
#
#                 Cambridge Crystallographic Data Centre
#                                CCDC 
#
#######################################################################
#
# If this CIF has been generated from an entry in the Cambridge 
# Structural Database, then it will include bibliographic, chemical, 
# crystal, experimental, refinement or atomic coordinate data resulting 
# from the CCDC's data processing and validation procedures.
#
#######################################################################

data_JUYROM
_chemical_formula_moiety         '(C22 H21 N3 O6 Zn1)n'
_symmetry_cell_setting           monoclinic
_symmetry_space_group_name_H-M   'P 21/c'
_symmetry_Int_Tables_number      14
_space_group_name_Hall           '-P 2ybc'
loop_
_symmetry_equiv_pos_site_id
_symmetry_equiv_pos_as_xyz
1 x,y,z
2 -x,1/2+y,1/2-z
3 -x,-y,-z
4 x,1/2-y,1/2+z
_cell_length_a                   11.4720(14)
_cell_length_b                   19.940(2)
_cell_length_c                   12.0025(14)
_cell_angle_alpha                90
_cell_angle_beta                 101.475(2)
_cell_angle_gamma                90
_cell_volume                     2690.71
loop_
_atom_site_label
_atom_site_type_symbol
_atom_site_fract_x
_atom_site_fract_y
_atom_site_fract_z
O6 O 0.0695(3) 0.41179(15) -0.0697(2)
N3 N 0.1224(4) 0.3213(3) 0.0336(5)
C19 C 0.1166(5) 0.4188(3) 0.1380(4)
H13 H 0.0716 0.4596 0.1280
H14 H 0.1993 0.4289 0.1645
H15 H 0.0891 0.3910 0.1928
C20 C 0.0995(4) 0.3792(3) 0.0171(6)
C21 C 0.1183(7) 0.2852(3) -0.0870(5)
H16 H 0.1075 0.3183 -0.1461
H17 H 0.0533 0.2540 -0.1012
H18 H 0.1916 0.2616 -0.0855
C22 C 0.1530(5) 0.2810(3) 0.1359(5)
H19 H 0.0872 0.2526 0.1424
H20 H 0.1709 0.3100 0.2010
H21 H 0.2213 0.2539 0.1321
Zn1 Zn 0.49513(2) 0.081613(11) 0.08149(2)
O1 O 0.4588(2) 0.40669(9) -0.08147(14)
H1 H 0.4728 0.3774 -0.1232
O2 O 0.45846(17) 0.43014(8) 0.41150(13)
O3 O 0.49499(17) 0.17937(8) 0.09589(15)
O4 O 0.4695(3) 0.19355(9) 0.27137(16)
O5 O 0.47863(15) 0.51335(7) 0.29430(13)
N1 N 0.68513(19) 0.08248(9) 0.08052(17)
N2 N 1.30447(19) 0.07586(9) 0.07875(17)
C1 C 0.4720(2) 0.28910(11) 0.1561(2)
C2 C 0.46805(19) 0.45223(10) 0.31620(18)
C3 C 1.0598(2) 0.08119(12) 0.0816(2)
C4 C 0.4704(2) 0.33465(10) 0.24405(18)
H2 H 0.4725 0.3193 0.3176
C5 C 0.4669(2) 0.31305(11) 0.0463(2)
H3 H 0.4669 0.2830 -0.0130
C6 C 1.1442(3) 0.06613(16) 0.1773(2)
H4 H 1.1207 0.0578 0.2457
C7 C 1.1036(3) 0.09314(15) -0.0165(2)
H5 H 1.0513 0.1027 -0.0843
C8 C 0.4791(2) 0.21475(11) 0.1782(2)
C9 C 0.4618(3) 0.38109(11) 0.0248(2)
C10 C 0.4655(2) 0.40303(10) 0.22148(18)
C11 C 0.9314(2) 0.08321(11) 0.0820(2)
C12 C 0.4622(2) 0.42644(11) 0.1124(2)
H6 H 0.4602 0.4723 0.0979
C13 C 0.7663(2) 0.06969(14) 0.1745(2)
H7 H 0.7392 0.0598 0.2407
C14 C 0.7282(2) 0.09655(13) -0.0126(2)
H8 H 0.6743 0.1064 -0.0793
C15 C 0.8867(3) 0.07011(14) 0.1800(2)
H9 H 0.9385 0.0617 0.2486
C16 C 1.2628(3) 0.06328(16) 0.1724(2)
H10 H 1.3169 0.0519 0.2382
C17 C 0.8469(2) 0.09725(14) -0.0155(2)
H11 H 0.8712 0.1072 -0.0830
C18 C 1.2233(3) 0.09086(15) -0.0136(2)
H12 H 1.2497 0.1004 -0.0803
Zn1_2 Zn 1.49513(2) 0.081613(11) 0.08149(2)
Zn1A Zn 0.50487(2) 0.581613(11) 0.41851(2)
Zn1C Zn 0.49513(2) 0.418387(11) 0.58149(2)
O2C O 0.45846(17) 0.06986(8) -0.08850(13)
O5A O 0.52137(15) 0.01335(7) 0.20570(13)
N2_2 N 0.30447(19) 0.07586(9) 0.07875(17)
loop_
_geom_bond_atom_site_label_1
_geom_bond_atom_site_label_2
_geom_bond_site_symmetry_1
_geom_bond_site_symmetry_2
Zn1 O3 1_555 1_555
O1 H1 1_555 1_555
O2 C2 1_555 1_555
O3 C8 1_555 1_555
O4 C8 1_555 1_555
O5 C2 1_555 1_555
N1 Zn1 1_555 1_555
N2 C16 1_555 1_555
C1 C4 1_555 1_555
C2 C10 1_555 1_555
C3 C6 1_555 1_555
C4 H2 1_555 1_555
C5 C1 1_555 1_555
H3 C5 1_555 1_555
C6 H4 1_555 1_555
C7 C3 1_555 1_555
H5 C7 1_555 1_555
C8 C1 1_555 1_555
C9 O1 1_555 1_555
C10 C4 1_555 1_555
C11 C3 1_555 1_555
C12 C9 1_555 1_555
H6 C12 1_555 1_555
C13 N1 1_555 1_555
H7 C13 1_555 1_555
C14 N1 1_555 1_555
H8 C14 1_555 1_555
C15 C11 1_555 1_555
H9 C15 1_555 1_555
C16 C6 1_555 1_555
H10 C16 1_555 1_555
C17 C11 1_555 1_555
H11 C17 1_555 1_555
C18 N2 1_555 1_555
H12 C18 1_555 1_555
O6 C20 1_555 1_555
N3 C20 1_555 1_555
C19 H13 1_555 1_555
H14 C19 1_555 1_555
H15 C19 1_555 1_555
C20 C19 1_555 1_555
C21 N3 1_555 1_555
H16 C21 1_555 1_555
H17 C21 1_555 1_555
H18 C21 1_555 1_555
C22 N3 1_555 1_555
H19 C22 1_555 1_555
H20 C22 1_555 1_555
H21 C22 1_555 1_555
Zn1_2 N2 1_555 1_555
Zn1A O5 1_555 1_555
Zn1C O2 1_555 1_555
O2C Zn1 1_555 1_555
O5A Zn1 1_555 1_555
N2_2 Zn1 1_555 1_555
C5 C9 1_555 1_555
C7 C18 1_555 1_555
C10 C12 1_555 1_555
C13 C15 1_555 1_555
C14 C17 1_555 1_555

#END
