
#######################################################################
#
#                 Cambridge Crystallographic Data Centre
#                                CCDC 
#
#######################################################################
#
# If this CIF has been generated from an entry in the Cambridge 
# Structural Database, then it will include bibliographic, chemical, 
# crystal, experimental, refinement or atomic coordinate data resulting 
# from the CCDC's data processing and validation procedures.
#
#######################################################################

data_OLEKUL
_chemical_formula_moiety         '(C127 H81 Cu4 N13 Na2 O17 Pd2 2-)n'
_symmetry_cell_setting           triclinic
_symmetry_space_group_name_H-M   'P -1'
_symmetry_Int_Tables_number      2
_space_group_name_Hall           '-P 1'
loop_
_symmetry_equiv_pos_site_id
_symmetry_equiv_pos_as_xyz
1 x,y,z
2 -x,-y,-z
_cell_length_a                   12.8740(2)
_cell_length_b                   13.0790(2)
_cell_length_c                   16.4710(4)
_cell_angle_alpha                86.1930(6)
_cell_angle_beta                 85.9540(6)
_cell_angle_gamma                80.8150(7)
_cell_volume                     2726.7
loop_
_atom_site_label
_atom_site_type_symbol
_atom_site_fract_x
_atom_site_fract_y
_atom_site_fract_z
Cu2 Cu 0.53068(10) 0.04435(7) 0.02566(7)
N6 N 0.5606(4) -0.1031(3) 0.0720(3)
C54 C 0.5161(4) -0.1313(4) 0.1437(3)
H30 H 0.4529 -0.0902 0.1634
C55 C 0.5573(4) -0.2167(3) 0.1903(3)
H31 H 0.5227 -0.2355 0.2406
C56 C 0.6501(4) -0.2747(3) 0.1624(3)
H32 H 0.6804 -0.3348 0.1931
C57 C 0.6987(4) -0.2448(3) 0.0895(3)
H33 H 0.7636 -0.2828 0.0697
C58 C 0.6513(4) -0.1588(3) 0.0461(3)
H34 H 0.6844 -0.1382 -0.0044
N7 N 0.5419(4) 0.1893(5) 0.0754(4)
C59 C 0.5356(4) 0.1958(4) 0.1553(4)
H35 H 0.5449 0.1335 0.1890
C60 C 0.5162(4) 0.2881(4) 0.1914(3)
H36 H 0.5091 0.2893 0.2491
C61 C 0.5069(4) 0.3797(4) 0.1445(4)
H37 H 0.4939 0.4434 0.1707
C62 C 0.5157(5) 0.3816(5) 0.0624(3)
H38 H 0.5092 0.4442 0.0291
C63 C 0.5353(5) 0.2833(7) 0.0306(4)
H39 H 0.5448 0.2809 -0.0270
N6A N 0.4394(4) 0.1031(3) -0.0720(3)
C54A C 0.4839(4) 0.1313(4) -0.1437(3)
H30A H 0.5471 0.0902 -0.1634
C55A C 0.4427(4) 0.2167(3) -0.1903(3)
H31A H 0.4773 0.2355 -0.2406
C56A C 0.3499(4) 0.2747(3) -0.1624(3)
H32A H 0.3196 0.3348 -0.1931
C57A C 0.3013(4) 0.2448(3) -0.0895(3)
H33A H 0.2364 0.2828 -0.0697
C58A C 0.3487(4) 0.1588(3) -0.0461(3)
H34A H 0.3156 0.1382 0.0044
Cu2A Cu 0.46932(10) -0.04435(7) -0.02566(7)
N7A N 0.4581(4) -0.1893(5) -0.0754(4)
C59A C 0.4644(4) -0.1958(4) -0.1553(4)
H35A H 0.4551 -0.1335 -0.1890
C60A C 0.4838(4) -0.2881(4) -0.1914(3)
H36A H 0.4909 -0.2893 -0.2491
C61A C 0.4931(4) -0.3797(4) -0.1445(4)
H37A H 0.5061 -0.4434 -0.1707
C62A C 0.4843(5) -0.3816(5) -0.0624(3)
H38A H 0.4908 -0.4442 -0.0291
C63A C 0.4647(5) -0.2833(7) -0.0306(4)
H39A H 0.4552 -0.2809 0.0270
Na1 Na 0.5000 0.0000 0.5000
Na2 Na 0.60746(13) 0.39761(11) 0.49518(9)
N5 N 0.2055(3) 0.6024(3) 0.5010(2)
C49 C 0.1492(5) 0.6943(5) 0.5224(4)
H25 H 0.1839 0.7380 0.5514
C50 C 0.0450(5) 0.7300(5) 0.5054(4)
H26 H 0.0098 0.7950 0.5229
C51 C -0.0036(6) 0.6706(6) 0.4642(4)
H27 H -0.0746 0.6923 0.4508
C52 C 0.0520(6) 0.5737(6) 0.4402(5)
H28 H 0.0199 0.5302 0.4089
C53 C 0.1545(5) 0.5439(5) 0.4636(4)
H29 H 0.1892 0.4765 0.4514
C64 C 0.9278(7) 0.9998(6) 0.4458(5)
H40 H 0.8781 1.0025 0.4054
C65 C 0.8949(6) 0.9952(5) 0.5242(5)
H41 H 0.8239 0.9894 0.5412
C66 C 1.0320(2) 1.0007(2) 0.42190(17)
H42 H 1.0533 0.9984 0.3655
C66A C 0.9680(2) 0.9993(2) 0.57810(17)
C64A C 1.0722(7) 1.0002(6) 0.5542(5)
H40A H 1.1219 0.9975 0.5946
C65A C 1.1051(6) 1.0048(5) 0.4758(5)
H41A H 1.1761 1.0106 0.4588
H42A H 0.9467 1.0016 0.6345
O9 O 0.3299(2) 0.0994(2) 0.48864(17)
H43 H 0.3046 0.1089 0.4504
H44 H 0.2957 0.1303 0.5225
Pd1 Pd -0.00192(2) 0.77153(2) -0.011609(17)
Cu1 Cu -0.54144(4) 1.23331(3) 0.48954(3)
C1 C -0.0489(3) 0.8453(3) 0.1604(2)
C2 C -0.1211(3) 0.9309(3) 0.1369(2)
C3 C -0.1440(3) 0.9595(3) 0.0566(2)
C4 C -0.2161(3) 1.0500(3) 0.0309(2)
H1 H -0.2497 1.1037 0.0642
C5 C -0.2269(3) 1.0439(3) -0.0495(2)
H2 H -0.2697 1.0929 -0.0830
C6 C -0.1621(3) 0.9502(3) -0.0755(2)
C7 C -0.1599(3) 0.9120(3) -0.1529(2)
C8 C -0.0950(3) 0.8220(3) -0.1773(2)
C9 C -0.0852(3) 0.7870(3) -0.2590(2)
H3 H -0.1254 0.8167 -0.3033
C10 C -0.0078(3) 0.7039(3) -0.2608(2)
H4 H 0.0163 0.6642 -0.3066
C11 C 0.0312(3) 0.6866(3) -0.1806(2)
C12 C 0.1154(3) 0.6106(3) -0.1596(2)
C13 C 0.1537(3) 0.5947(3) -0.0821(2)
C14 C 0.2413(3) 0.5177(3) -0.0599(2)
H5 H 0.2841 0.4719 -0.0954
C15 C 0.2515(3) 0.5223(3) 0.0205(2)
H6 H 0.3022 0.4801 0.0524
C16 C 0.1707(3) 0.6034(3) 0.0486(2)
C17 C 0.1549(3) 0.6307(3) 0.1295(2)
C18 C 0.0775(3) 0.7106(3) 0.1565(2)
C19 C 0.0561(3) 0.7340(3) 0.2407(2)
H7 H 0.0906 0.6988 0.2860
C20 C -0.0229(3) 0.8158(3) 0.2429(2)
H8 H -0.0551 0.8479 0.2904
N1 N 0.0126(2) 0.7785(2) 0.10871(18)
N2 N -0.1106(2) 0.9016(2) -0.00991(18)
N3 N -0.0234(2) 0.7591(2) -0.13058(18)
N4 N 0.1136(3) 0.6476(2) -0.01506(18)
C21 C -0.1815(3) 0.9944(3) 0.2021(2)
C22 C -0.2571(3) 0.9518(3) 0.2528(2)
H9 H -0.2657 0.8817 0.2477
C23 C -0.3198(3) 1.0101(3) 0.3104(2)
H10 H -0.3722 0.9804 0.3432
C24 C -0.3062(3) 1.1123(3) 0.3204(2)
C25 C -0.2281(3) 1.1527(3) 0.2723(2)
H11 H -0.2160 1.2211 0.2799
C26 C -0.1672(3) 1.0952(3) 0.2133(2)
H12 H -0.1152 1.1253 0.1802
C27 C -0.3757(3) 1.1785(3) 0.3795(2)
C28 C -0.2265(3) 0.9745(3) -0.2146(2)
C29 C -0.2032(3) 1.0714(3) -0.2418(3)
H13 H -0.1470 1.0971 -0.2196
C30 C -0.2605(3) 1.1310(3) -0.3005(2)
H14 H -0.2419 1.1963 -0.3193
C31 C -0.3451(3) 1.0968(3) -0.3323(2)
C32 C -0.3686(3) 0.9985(3) -0.3061(2)
H15 H -0.4253 0.9731 -0.3279
C33 C -0.3088(3) 0.9376(3) -0.2478(2)
H16 H -0.3244 0.8706 -0.2308
C34 C -0.4064(3) 1.1662(3) -0.3950(2)
C35 C 0.1650(3) 0.5384(3) -0.2234(2)
C36 C 0.2628(3) 0.5451(3) -0.2616(2)
H17 H 0.3001 0.5979 -0.2478
C37 C 0.3078(3) 0.4765(3) -0.3196(2)
H18 H 0.3752 0.4826 -0.3453
C38 C 0.2537(3) 0.3987(3) -0.3399(2)
C39 C 0.1556(3) 0.3919(3) -0.3020(3)
H19 H 0.1180 0.3393 -0.3159
C40 C 0.1113(3) 0.4607(3) -0.2441(3)
H20 H 0.0439 0.4547 -0.2185
C41 C 0.3002(3) 0.3195(3) -0.4000(2)
C42 C 0.2229(3) 0.5704(3) 0.1914(2)
C43 C 0.2103(3) 0.4693(3) 0.2178(2)
H21 H 0.1607 0.4362 0.1934
C44 C 0.2693(3) 0.4166(3) 0.2791(2)
H22 H 0.2604 0.3476 0.2965
C45 C 0.3416(3) 0.4649(3) 0.3152(2)
C46 C 0.3569(3) 0.5649(3) 0.2882(2)
H23 H 0.4071 0.5977 0.3121
C47 C 0.2983(3) 0.6160(3) 0.2263(2)
H24 H 0.3097 0.6837 0.2072
C48 C 0.4029(3) 0.4102(3) 0.3843(2)
O1 O -0.4540(2) 1.13943(18) 0.41447(16)
O2 O -0.3564(2) 1.26632(19) 0.39121(17)
O3 O -0.3780(2) 1.24984(19) -0.41755(17)
O4 O -0.4861(2) 1.13401(18) -0.42088(15)
O5 O 0.3899(2) 0.33075(19) -0.43297(16)
O6 O 0.2496(3) 0.2498(2) -0.4128(2)
O7 O 0.3935(2) 0.31452(18) 0.39880(15)
O8 O 0.4577(2) 0.45905(19) 0.42226(16)
Cu1_2 Cu -0.54144(4) 1.23331(3) -0.51046(3)
C1_2 C -0.0489(3) 0.8453(3) 1.1604(2)
C2_2 C -0.1211(3) 0.9309(3) 1.1369(2)
C3_2 C -0.1440(3) 0.9595(3) 1.0566(2)
C4_2 C -0.2161(3) 1.0500(3) 1.0309(2)
H1_2 H -0.2497 1.1037 1.0642
C5_2 C -0.2269(3) 1.0439(3) 0.9505(2)
H2_2 H -0.2697 1.0929 0.9170
C6_2 C -0.1621(3) 0.9502(3) 0.9245(2)
C7_2 C -0.1599(3) 0.9120(3) 0.8471(2)
C8_2 C -0.0950(3) 0.8220(3) 0.8227(2)
C9_2 C -0.0852(3) 0.7870(3) 0.7410(2)
H3_2 H -0.1254 0.8167 0.6967
C10_2 C -0.0078(3) 0.7039(3) 0.7392(2)
H4_2 H 0.0163 0.6642 0.6934
C11_2 C 0.0312(3) 0.6866(3) 0.8194(2)
C12_2 C 0.1154(3) 0.6106(3) 0.8404(2)
C13_2 C 0.1537(3) 0.5947(3) 0.9179(2)
C14_2 C 0.2413(3) 0.5177(3) 0.9401(2)
H5_2 H 0.2841 0.4719 0.9046
C15_2 C 0.2515(3) 0.5223(3) 1.0205(2)
H6_2 H 0.3022 0.4801 1.0524
C16_2 C 0.1707(3) 0.6034(3) 1.0486(2)
C17_2 C 0.1549(3) 0.6307(3) 1.1295(2)
C18_2 C 0.0775(3) 0.7106(3) 1.1565(2)
C19_2 C 0.0561(3) 0.7340(3) 1.2407(2)
H7_2 H 0.0906 0.6988 1.2860
C20_2 C -0.0229(3) 0.8158(3) 1.2429(2)
H8_2 H -0.0551 0.8479 1.2904
N1_2 N 0.0126(2) 0.7785(2) 1.10871(18)
N2_2 N -0.1106(2) 0.9016(2) 0.99009(18)
N3_2 N -0.0234(2) 0.7591(2) 0.86942(18)
N4_2 N 0.1136(3) 0.6476(2) 0.98494(18)
C21_2 C -0.1815(3) 0.9944(3) 1.2021(2)
C22_2 C -0.2571(3) 0.9518(3) 1.2528(2)
H9_2 H -0.2657 0.8817 1.2477
C23_2 C -0.3198(3) 1.0101(3) 1.3104(2)
H10_2 H -0.3722 0.9804 1.3432
C24_2 C -0.3062(3) 1.1123(3) 1.3204(2)
C25_2 C -0.2281(3) 1.1527(3) 1.2723(2)
H11_2 H -0.2160 1.2211 1.2799
C26_2 C -0.1672(3) 1.0952(3) 1.2133(2)
H12_2 H -0.1152 1.1253 1.1802
C27_2 C -0.3757(3) 1.1785(3) 1.3795(2)
C28_2 C -0.2265(3) 0.9745(3) 0.7854(2)
C29_2 C -0.2032(3) 1.0714(3) 0.7582(3)
H13_2 H -0.1470 1.0971 0.7804
C30_2 C -0.2605(3) 1.1310(3) 0.6995(2)
H14_2 H -0.2419 1.1963 0.6807
C31_2 C -0.3451(3) 1.0968(3) 0.6677(2)
C32_2 C -0.3686(3) 0.9985(3) 0.6939(2)
H15_2 H -0.4253 0.9731 0.6721
C33_2 C -0.3088(3) 0.9376(3) 0.7522(2)
H16_2 H -0.3244 0.8706 0.7692
C34_2 C -0.4064(3) 1.1662(3) 0.6050(2)
C35_2 C 0.1650(3) 0.5384(3) 0.7766(2)
C36_2 C 0.2628(3) 0.5451(3) 0.7384(2)
H17_2 H 0.3001 0.5979 0.7522
C37_2 C 0.3078(3) 0.4765(3) 0.6804(2)
H18_2 H 0.3752 0.4826 0.6547
C38_2 C 0.2537(3) 0.3987(3) 0.6601(2)
C39_2 C 0.1556(3) 0.3919(3) 0.6980(3)
H19_2 H 0.1180 0.3393 0.6841
C40_2 C 0.1113(3) 0.4607(3) 0.7559(3)
H20_2 H 0.0439 0.4547 0.7815
C41_2 C 0.3002(3) 0.3195(3) 0.6000(2)
C42_2 C 0.2229(3) 0.5704(3) 1.1914(2)
C43_2 C 0.2103(3) 0.4693(3) 1.2178(2)
H21_2 H 0.1607 0.4362 1.1934
C44_2 C 0.2693(3) 0.4166(3) 1.2791(2)
H22_2 H 0.2604 0.3476 1.2965
C45_2 C 0.3416(3) 0.4649(3) 1.3152(2)
C46_2 C 0.3569(3) 0.5649(3) 1.2882(2)
H23_2 H 0.4071 0.5977 1.3121
C47_2 C 0.2983(3) 0.6160(3) 1.2263(2)
H24_2 H 0.3097 0.6837 1.2072
C48_2 C 0.4029(3) 0.4102(3) 1.3843(2)
O1_2 O -0.4540(2) 1.13943(18) 1.41447(16)
O2_2 O -0.3564(2) 1.26632(19) 1.39121(17)
O3_2 O -0.3780(2) 1.24984(19) 0.58245(17)
O4_2 O -0.4861(2) 1.13401(18) 0.57912(15)
O5_2 O 0.3899(2) 0.33075(19) 0.56703(16)
O6_2 O 0.2496(3) 0.2498(2) 0.5872(2)
O7_2 O 0.3935(2) 0.31452(18) 1.39880(15)
O8_2 O 0.4577(2) 0.45905(19) 1.42226(16)
Pd1_2 Pd -0.00192(2) 0.77153(2) 0.988391(17)
O5_3 O -0.6101(2) 1.33075(19) 0.56703(16)
O7_3 O -0.6065(2) 1.31452(18) 0.39880(15)
Cu1_3 Cu 0.45856(4) 0.23331(3) -0.51046(3)
Cu1_4 Cu 0.45856(4) 0.23331(3) 0.48954(3)
O1_3 O -0.4540(2) 1.13943(18) -0.58553(16)
O5_4 O -0.6101(2) 1.33075(19) -0.43297(16)
O7_4 O -0.6065(2) 1.31452(18) -0.60120(15)
Cu1_5 Cu -0.54144(4) 1.23331(3) 1.48954(3)
Cu1_6 Cu 0.45856(4) 0.23331(3) 1.48954(3)
loop_
_geom_bond_atom_site_label_1
_geom_bond_atom_site_label_2
_geom_bond_site_symmetry_1
_geom_bond_site_symmetry_2
Pd1 N1 1_555 1_555
Cu1 O1 1_555 1_555
Cu2 N6 1_555 1_555
C1 C2 1_555 1_555
C2 C3 1_555 1_555
C3 C4 1_555 1_555
C4 H1 1_555 1_555
C5 C4 1_555 1_555
H2 C5 1_555 1_555
C6 C5 1_555 1_555
C7 C6 1_555 1_555
C8 C7 1_555 1_555
C9 C8 1_555 1_555
H3 C9 1_555 1_555
C10 C9 1_555 1_555
H4 C10 1_555 1_555
C11 C10 1_555 1_555
C12 C11 1_555 1_555
C13 C12 1_555 1_555
C14 C13 1_555 1_555
H5 C14 1_555 1_555
C15 C14 1_555 1_555
H6 C15 1_555 1_555
C16 C15 1_555 1_555
C17 C16 1_555 1_555
C18 C17 1_555 1_555
C19 C18 1_555 1_555
H7 C19 1_555 1_555
C20 C1 1_555 1_555
H8 C20 1_555 1_555
N1 C1 1_555 1_555
N2 Pd1 1_555 1_555
N3 Pd1 1_555 1_555
N4 Pd1 1_555 1_555
C21 C2 1_555 1_555
C22 C21 1_555 1_555
H9 C22 1_555 1_555
C23 C22 1_555 1_555
H10 C23 1_555 1_555
C24 C23 1_555 1_555
C25 C24 1_555 1_555
H11 C25 1_555 1_555
C26 C21 1_555 1_555
H12 C26 1_555 1_555
C27 C24 1_555 1_555
C28 C7 1_555 1_555
C29 C28 1_555 1_555
H13 C29 1_555 1_555
C30 C29 1_555 1_555
H14 C30 1_555 1_555
C31 C30 1_555 1_555
C32 C31 1_555 1_555
H15 C32 1_555 1_555
C33 C28 1_555 1_555
H16 C33 1_555 1_555
C34 C31 1_555 1_555
C35 C12 1_555 1_555
C36 C35 1_555 1_555
H17 C36 1_555 1_555
C37 C36 1_555 1_555
H18 C37 1_555 1_555
C38 C37 1_555 1_555
C39 C38 1_555 1_555
H19 C39 1_555 1_555
C40 C35 1_555 1_555
H20 C40 1_555 1_555
C41 C38 1_555 1_555
C42 C17 1_555 1_555
C43 C42 1_555 1_555
H21 C43 1_555 1_555
C44 C43 1_555 1_555
H22 C44 1_555 1_555
C45 C44 1_555 1_555
C46 C45 1_555 1_555
H23 C46 1_555 1_555
C47 C42 1_555 1_555
H24 C47 1_555 1_555
C48 C45 1_555 1_555
O1 C27 1_555 1_555
O2 C27 1_555 1_555
O3 C34 1_555 1_555
O4 C34 1_555 1_555
O5 C41 1_555 1_555
O6 C41 1_555 1_555
O7 C48 1_555 1_555
O8 C48 1_555 1_555
N5 C49 1_555 1_555
C49 H25 1_555 1_555
C50 C49 1_555 1_555
H26 C50 1_555 1_555
C51 C50 1_555 1_555
H27 C51 1_555 1_555
C52 C51 1_555 1_555
H28 C52 1_555 1_555
C53 N5 1_555 1_555
H29 C53 1_555 1_555
N6 C54 1_555 1_555
C54 H30 1_555 1_555
C55 C54 1_555 1_555
H31 C55 1_555 1_555
C56 C55 1_555 1_555
H32 C56 1_555 1_555
C57 C56 1_555 1_555
H33 C57 1_555 1_555
C58 N6 1_555 1_555
H34 C58 1_555 1_555
N7 Cu2 1_555 1_555
C59 N7 1_555 1_555
H35 C59 1_555 1_555
C60 C59 1_555 1_555
H36 C60 1_555 1_555
C61 C60 1_555 1_555
H37 C61 1_555 1_555
C62 C61 1_555 1_555
H38 C62 1_555 1_555
C63 N7 1_555 1_555
H39 C63 1_555 1_555
C64 H40 1_555 1_555
C65 C64 1_555 1_555
H41 C65 1_555 1_555
C66 C64 1_555 1_555
H42 C66 1_555 1_555
O9 H43 1_555 1_555
H44 O9 1_555 1_555
C66A C65 1_555 1_555
C64A C66A 1_555 1_555
H40A C64A 1_555 1_555
C65A C66 1_555 1_555
H41A C65A 1_555 1_555
H42A C66A 1_555 1_555
Cu1_2 O4 1_555 1_555
C1_2 C2_2 1_555 1_555
C2_2 C3_2 1_555 1_555
C3_2 C4_2 1_555 1_555
C4_2 H1_2 1_555 1_555
C5_2 C4_2 1_555 1_555
H2_2 C5_2 1_555 1_555
C6_2 C5_2 1_555 1_555
C7_2 C6_2 1_555 1_555
C8_2 C7_2 1_555 1_555
C9_2 C8_2 1_555 1_555
H3_2 C9_2 1_555 1_555
C10_2 C9_2 1_555 1_555
H4_2 C10_2 1_555 1_555
C11_2 C10_2 1_555 1_555
C12_2 C11_2 1_555 1_555
C13_2 C12_2 1_555 1_555
C14_2 C13_2 1_555 1_555
H5_2 C14_2 1_555 1_555
C15_2 C14_2 1_555 1_555
H6_2 C15_2 1_555 1_555
C16_2 C15_2 1_555 1_555
C17_2 C16_2 1_555 1_555
C18_2 C17_2 1_555 1_555
C19_2 C18_2 1_555 1_555
H7_2 C19_2 1_555 1_555
C20_2 C1_2 1_555 1_555
H8_2 C20_2 1_555 1_555
N1_2 C1_2 1_555 1_555
N2_2 C3_2 1_555 1_555
N3_2 C8_2 1_555 1_555
N4_2 C13_2 1_555 1_555
C21_2 C2_2 1_555 1_555
C22_2 C21_2 1_555 1_555
H9_2 C22_2 1_555 1_555
C23_2 C22_2 1_555 1_555
H10_2 C23_2 1_555 1_555
C24_2 C23_2 1_555 1_555
C25_2 C24_2 1_555 1_555
H11_2 C25_2 1_555 1_555
C26_2 C21_2 1_555 1_555
H12_2 C26_2 1_555 1_555
C27_2 C24_2 1_555 1_555
C28_2 C7_2 1_555 1_555
C29_2 C28_2 1_555 1_555
H13_2 C29_2 1_555 1_555
C30_2 C29_2 1_555 1_555
H14_2 C30_2 1_555 1_555
C31_2 C30_2 1_555 1_555
C32_2 C31_2 1_555 1_555
H15_2 C32_2 1_555 1_555
C33_2 C28_2 1_555 1_555
H16_2 C33_2 1_555 1_555
C34_2 C31_2 1_555 1_555
C35_2 C12_2 1_555 1_555
C36_2 C35_2 1_555 1_555
H17_2 C36_2 1_555 1_555
C37_2 C36_2 1_555 1_555
H18_2 C37_2 1_555 1_555
C38_2 C37_2 1_555 1_555
C39_2 C38_2 1_555 1_555
H19_2 C39_2 1_555 1_555
C40_2 C35_2 1_555 1_555
H20_2 C40_2 1_555 1_555
C41_2 C38_2 1_555 1_555
C42_2 C17_2 1_555 1_555
C43_2 C42_2 1_555 1_555
H21_2 C43_2 1_555 1_555
C44_2 C43_2 1_555 1_555
H22_2 C44_2 1_555 1_555
C45_2 C44_2 1_555 1_555
C46_2 C45_2 1_555 1_555
H23_2 C46_2 1_555 1_555
C47_2 C42_2 1_555 1_555
H24_2 C47_2 1_555 1_555
C48_2 C45_2 1_555 1_555
O1_2 C27_2 1_555 1_555
O2_2 C27_2 1_555 1_555
O3_2 C34_2 1_555 1_555
O4_2 Cu1 1_555 1_555
O5_2 C41_2 1_555 1_555
O6_2 C41_2 1_555 1_555
O7_2 C48_2 1_555 1_555
O8_2 C48_2 1_555 1_555
Pd1_2 N1_2 1_555 1_555
N6A Cu2 1_555 1_555
C54A N6A 1_555 1_555
H30A C54A 1_555 1_555
C55A C54A 1_555 1_555
H31A C55A 1_555 1_555
C56A C55A 1_555 1_555
H32A C56A 1_555 1_555
C57A C56A 1_555 1_555
H33A C57A 1_555 1_555
C58A N6A 1_555 1_555
H34A C58A 1_555 1_555
Cu2A Cu2 1_555 1_555
N7A Cu2A 1_555 1_555
C59A N7A 1_555 1_555
H35A C59A 1_555 1_555
C60A C59A 1_555 1_555
H36A C60A 1_555 1_555
C61A C60A 1_555 1_555
H37A C61A 1_555 1_555
C62A C61A 1_555 1_555
H38A C62A 1_555 1_555
C63A N7A 1_555 1_555
H39A C63A 1_555 1_555
O5_3 Cu1 1_555 1_555
O7_3 Cu1 1_555 1_555
Cu1_3 O5 1_555 1_555
Cu1_4 O7 1_555 1_555
O1_3 Cu1_2 1_555 1_555
O5_4 Cu1_2 1_555 1_555
O7_4 Cu1_2 1_555 1_555
Cu1_5 O1_2 1_555 1_555
Cu1_6 O7_2 1_555 1_555
C3 N2 1_555 1_555
C6 N2 1_555 1_555
C8 N3 1_555 1_555
C11 N3 1_555 1_555
C13 N4 1_555 1_555
C16 N4 1_555 1_555
C18 N1 1_555 1_555
C19 C20 1_555 1_555
C25 C26 1_555 1_555
C32 C33 1_555 1_555
C39 C40 1_555 1_555
C46 C47 1_555 1_555
C52 C53 1_555 1_555
N6 Cu2A 1_555 1_555
C57 C58 1_555 1_555
C62 C63 1_555 1_555
C64A C65A 1_555 1_555
C6_2 N2_2 1_555 1_555
C11_2 N3_2 1_555 1_555
C16_2 N4_2 1_555 1_555
C18_2 N1_2 1_555 1_555
C19_2 C20_2 1_555 1_555
N2_2 Pd1_2 1_555 1_555
N3_2 Pd1_2 1_555 1_555
N4_2 Pd1_2 1_555 1_555
C25_2 C26_2 1_555 1_555
C32_2 C33_2 1_555 1_555
C34_2 O4_2 1_555 1_555
C39_2 C40_2 1_555 1_555
C46_2 C47_2 1_555 1_555
O5_2 Cu1_4 1_555 1_555
N6A Cu2A 1_555 1_555
C57A C58A 1_555 1_555
C62A C63A 1_555 1_555

#END
