
#######################################################################
#
#                 Cambridge Crystallographic Data Centre
#                                CCDC 
#
#######################################################################
#
# If this CIF has been generated from an entry in the Cambridge 
# Structural Database, then it will include bibliographic, chemical, 
# crystal, experimental, refinement or atomic coordinate data resulting 
# from the CCDC's data processing and validation procedures.
#
#######################################################################

data_OLELAS
_chemical_formula_moiety         '(C127 H81 Cu4 N13 Na2 O17 Pt2 2-)n'
_symmetry_cell_setting           triclinic
_symmetry_space_group_name_H-M   'P -1'
_symmetry_Int_Tables_number      2
_space_group_name_Hall           '-P 1'
loop_
_symmetry_equiv_pos_site_id
_symmetry_equiv_pos_as_xyz
1 x,y,z
2 -x,-y,-z
_cell_length_a                   12.9240(3)
_cell_length_b                   13.1370(2)
_cell_length_c                   16.6000(5)
_cell_angle_alpha                85.5750(8)
_cell_angle_beta                 85.4260(8)
_cell_angle_gamma                80.0980(9)
_cell_volume                     2761.78
loop_
_atom_site_label
_atom_site_type_symbol
_atom_site_fract_x
_atom_site_fract_y
_atom_site_fract_z
Cu2 Cu 0.53241(14) 0.04769(12) 0.02780(11)
N6 N 0.5620(6) -0.1027(6) 0.0720(5)
C54 C 0.5173(7) -0.1323(6) 0.1421(5)
H30 H 0.4524 -0.0934 0.1614
C55 C 0.5622(6) -0.2180(5) 0.1885(4)
H31 H 0.5288 -0.2374 0.2390
C56 C 0.6546(6) -0.2744(5) 0.1608(4)
H32 H 0.6865 -0.3340 0.1915
C57 C 0.7014(5) -0.2439(5) 0.0875(4)
H33 H 0.7665 -0.2818 0.0675
C58 C 0.6537(6) -0.1589(5) 0.0440(5)
H34 H 0.6854 -0.1388 -0.0070
N7 N 0.5395(6) 0.1912(7) 0.0770(5)
C59 C 0.5338(6) 0.1982(7) 0.1564(6)
H35 H 0.5412 0.1360 0.1902
C60 C 0.5178(6) 0.2901(7) 0.1920(5)
H36 H 0.5127 0.2913 0.2494
C61 C 0.5091(7) 0.3809(7) 0.1443(6)
H37 H 0.4987 0.4450 0.1691
C62 C 0.5153(7) 0.3808(7) 0.0603(5)
H38 H 0.5086 0.4429 0.0263
C63 C 0.5319(7) 0.2846(9) 0.0298(6)
H39 H 0.5386 0.2814 -0.0274
N6A N 0.4380(6) 0.1027(6) -0.0720(5)
C54A C 0.4827(7) 0.1323(6) -0.1421(5)
H30A H 0.5476 0.0934 -0.1614
C55A C 0.4378(6) 0.2180(5) -0.1885(4)
H31A H 0.4712 0.2374 -0.2390
C56A C 0.3454(6) 0.2744(5) -0.1608(4)
H32A H 0.3135 0.3340 -0.1915
C57A C 0.2986(5) 0.2439(5) -0.0875(4)
H33A H 0.2335 0.2818 -0.0675
C58A C 0.3463(6) 0.1589(5) -0.0440(5)
H34A H 0.3146 0.1388 0.0070
Cu2A Cu 0.46759(14) -0.04769(12) -0.02780(11)
N7A N 0.4605(6) -0.1912(7) -0.0770(5)
C59A C 0.4662(6) -0.1982(7) -0.1564(6)
H35A H 0.4588 -0.1360 -0.1902
C60A C 0.4822(6) -0.2901(7) -0.1920(5)
H36A H 0.4873 -0.2913 -0.2494
C61A C 0.4909(7) -0.3809(7) -0.1443(6)
H37A H 0.5013 -0.4450 -0.1691
C62A C 0.4847(7) -0.3808(7) -0.0603(5)
H38A H 0.4914 -0.4429 -0.0263
C63A C 0.4681(7) -0.2846(9) -0.0298(6)
H39A H 0.4614 -0.2814 0.0274
Na1 Na 0.5000 0.0000 0.5000
Na2 Na 0.60712(19) 0.39808(16) 0.49322(14)
N5 N 0.2057(5) 0.6041(5) 0.5025(4)
C49 C 0.1479(7) 0.6964(7) 0.5246(6)
H25 H 0.1802 0.7382 0.5559
C50 C 0.0460(8) 0.7327(8) 0.5046(6)
H26 H 0.0101 0.7984 0.5200
C51 C -0.0024(8) 0.6702(8) 0.4613(6)
H27 H -0.0729 0.6917 0.4469
C52 C 0.0550(7) 0.5740(8) 0.4388(6)
H28 H 0.0252 0.5300 0.4077
C53 C 0.1567(6) 0.5462(7) 0.4639(5)
H29 H 0.1935 0.4796 0.4518
C64 C 0.9339(15) 1.0021(12) 0.4424(10)
H40 H 0.8909 1.0019 0.3987
C65 C 0.8904(12) 1.0033(13) 0.5156(11)
H41 H 0.8167 1.0071 0.5268
C66 C 1.0428(17) 1.0012(10) 0.4254(8)
H42 H 1.0699 1.0038 0.3705
C66A C 0.9572(17) 0.9988(10) 0.5746(8)
C64A C 1.0661(15) 0.9979(12) 0.5576(10)
H40A H 1.1091 0.9981 0.6013
C65A C 1.1096(12) 0.9967(13) 0.4844(11)
H41A H 1.1833 0.9929 0.4732
H42A H 0.9301 0.9962 0.6295
O9 O 0.3302(3) 0.1045(4) 0.4922(3)
H43 H 0.3037 0.0628 0.4844
H44 H 0.2837 0.1496 0.5166
Pt1 Pt -0.002636(17) 0.773806(16) -0.011804(14)
Cu1 Cu -0.54254(5) 1.23485(5) 0.48986(4)
C1 C -0.0507(4) 0.8480(4) 0.1593(3)
C2 C -0.1229(4) 0.9341(4) 0.1355(4)
C3 C -0.1458(4) 0.9623(4) 0.0557(3)
C4 C -0.2170(5) 1.0516(4) 0.0289(4)
H1 H -0.2504 1.1057 0.0616
C5 C -0.2291(5) 1.0467(5) -0.0504(4)
H2 H -0.2729 1.0955 -0.0835
C6 C -0.1629(5) 0.9535(4) -0.0755(3)
C7 C -0.1603(5) 0.9148(4) -0.1517(4)
C8 C -0.0955(4) 0.8239(4) -0.1766(3)
C9 C -0.0867(5) 0.7885(4) -0.2569(4)
H3 H -0.1275 0.8183 -0.3005
C10 C -0.0095(5) 0.7049(4) -0.2587(4)
H4 H 0.0142 0.6649 -0.3039
C11 C 0.0299(4) 0.6880(4) -0.1793(3)
C12 C 0.1143(4) 0.6109(4) -0.1580(3)
C13 C 0.1532(4) 0.5958(4) -0.0817(4)
C14 C 0.2408(5) 0.5172(4) -0.0589(4)
H5 H 0.2827 0.4700 -0.0937
C15 C 0.2524(5) 0.5229(4) 0.0200(4)
H6 H 0.3042 0.4812 0.0512
C16 C 0.1712(4) 0.6047(4) 0.0485(3)
C17 C 0.1556(4) 0.6326(4) 0.1287(4)
C18 C 0.0777(4) 0.7133(4) 0.1554(3)
C19 C 0.0551(5) 0.7371(4) 0.2390(3)
H7 H 0.0896 0.7017 0.2840
C20 C -0.0239(5) 0.8185(4) 0.2417(4)
H8 H -0.0559 0.8506 0.2889
N1 N 0.0121(4) 0.7811(3) 0.1069(3)
N2 N -0.1110(4) 0.9042(3) -0.0102(3)
N3 N -0.0232(4) 0.7605(3) -0.1291(3)
N4 N 0.1124(4) 0.6487(3) -0.0139(3)
C21 C -0.1835(4) 0.9968(4) 0.2002(3)
C22 C -0.2587(4) 0.9545(4) 0.2520(4)
H9 H -0.2677 0.8850 0.2474
C23 C -0.3194(4) 1.0122(4) 0.3091(4)
H10 H -0.3717 0.9828 0.3420
C24 C -0.3060(5) 1.1134(4) 0.3200(3)
C25 C -0.2293(5) 1.1551(4) 0.2705(4)
H11 H -0.2182 1.2235 0.2772
C26 C -0.1688(5) 1.0974(4) 0.2115(4)
H12 H -0.1168 1.1269 0.1784
C27 C -0.3760(4) 1.1802(4) 0.3802(3)
C28 C -0.2286(4) 0.9774(4) -0.2141(4)
C29 C -0.2068(5) 1.0730(4) -0.2420(4)
H13 H -0.1513 1.0988 -0.2204
C30 C -0.2645(5) 1.1332(4) -0.3017(4)
H14 H -0.2462 1.1979 -0.3218
C31 C -0.3482(4) 1.0984(4) -0.3314(3)
C32 C -0.3711(5) 1.0017(5) -0.3034(4)
H15 H -0.4279 0.9767 -0.3239
C33 C -0.3108(5) 0.9404(5) -0.2448(4)
H16 H -0.3264 0.8741 -0.2264
C34 C -0.4092(5) 1.1675(4) -0.3947(4)
C35 C 0.1636(4) 0.5379(4) -0.2215(3)
C36 C 0.2621(4) 0.5449(4) -0.2602(3)
H17 H 0.2997 0.5968 -0.2468
C37 C 0.3056(4) 0.4759(4) -0.3185(3)
H18 H 0.3723 0.4815 -0.3453
C38 C 0.2516(4) 0.3988(4) -0.3374(4)
C39 C 0.1544(5) 0.3921(4) -0.2985(4)
H19 H 0.1169 0.3401 -0.3115
C40 C 0.1106(5) 0.4608(4) -0.2403(4)
H20 H 0.0440 0.4547 -0.2134
C41 C 0.2988(5) 0.3192(4) -0.3970(4)
C42 C 0.2243(5) 0.5731(4) 0.1906(3)
C43 C 0.2136(5) 0.4712(4) 0.2173(4)
H21 H 0.1656 0.4375 0.1931
C44 C 0.2720(5) 0.4198(4) 0.2781(4)
H22 H 0.2636 0.3510 0.2959
C45 C 0.3439(5) 0.4678(4) 0.3143(3)
C46 C 0.3573(4) 0.5673(4) 0.2865(4)
H23 H 0.4065 0.6005 0.3098
C47 C 0.2983(5) 0.6184(4) 0.2242(4)
H24 H 0.3092 0.6858 0.2043
C48 C 0.4045(5) 0.4129(4) 0.3836(4)
O1 O -0.4536(3) 1.1412(3) 0.4157(2)
O2 O -0.3564(3) 1.2673(3) 0.3910(3)
O3 O -0.3825(3) 1.2508(3) -0.4180(3)
O4 O -0.4879(3) 1.1341(3) -0.4201(2)
O5 O 0.3849(3) 0.3325(3) -0.4337(3)
O6 O 0.2499(4) 0.2476(4) -0.4058(3)
O7 O 0.3955(3) 0.3183(3) 0.3990(2)
O8 O 0.4577(3) 0.4626(3) 0.4211(2)
Cu1_2 Cu -0.54254(5) 1.23485(5) -0.51014(4)
C1_2 C -0.0507(4) 0.8480(4) 1.1593(3)
C2_2 C -0.1229(4) 0.9341(4) 1.1355(4)
C3_2 C -0.1458(4) 0.9623(4) 1.0557(3)
C4_2 C -0.2170(5) 1.0516(4) 1.0289(4)
H1_2 H -0.2504 1.1057 1.0616
C5_2 C -0.2291(5) 1.0467(5) 0.9496(4)
H2_2 H -0.2729 1.0955 0.9165
C6_2 C -0.1629(5) 0.9535(4) 0.9245(3)
C7_2 C -0.1603(5) 0.9148(4) 0.8483(4)
C8_2 C -0.0955(4) 0.8239(4) 0.8234(3)
C9_2 C -0.0867(5) 0.7885(4) 0.7431(4)
H3_2 H -0.1275 0.8183 0.6995
C10_2 C -0.0095(5) 0.7049(4) 0.7413(4)
H4_2 H 0.0142 0.6649 0.6961
C11_2 C 0.0299(4) 0.6880(4) 0.8207(3)
C12_2 C 0.1143(4) 0.6109(4) 0.8420(3)
C13_2 C 0.1532(4) 0.5958(4) 0.9183(4)
C14_2 C 0.2408(5) 0.5172(4) 0.9411(4)
H5_2 H 0.2827 0.4700 0.9063
C15_2 C 0.2524(5) 0.5229(4) 1.0200(4)
H6_2 H 0.3042 0.4812 1.0512
C16_2 C 0.1712(4) 0.6047(4) 1.0485(3)
C17_2 C 0.1556(4) 0.6326(4) 1.1287(4)
C18_2 C 0.0777(4) 0.7133(4) 1.1554(3)
C19_2 C 0.0551(5) 0.7371(4) 1.2390(3)
H7_2 H 0.0896 0.7017 1.2840
C20_2 C -0.0239(5) 0.8185(4) 1.2417(4)
H8_2 H -0.0559 0.8506 1.2889
N1_2 N 0.0121(4) 0.7811(3) 1.1069(3)
N2_2 N -0.1110(4) 0.9042(3) 0.9898(3)
N3_2 N -0.0232(4) 0.7605(3) 0.8709(3)
N4_2 N 0.1124(4) 0.6487(3) 0.9861(3)
C21_2 C -0.1835(4) 0.9968(4) 1.2002(3)
C22_2 C -0.2587(4) 0.9545(4) 1.2520(4)
H9_2 H -0.2677 0.8850 1.2474
C23_2 C -0.3194(4) 1.0122(4) 1.3091(4)
H10_2 H -0.3717 0.9828 1.3420
C24_2 C -0.3060(5) 1.1134(4) 1.3200(3)
C25_2 C -0.2293(5) 1.1551(4) 1.2705(4)
H11_2 H -0.2182 1.2235 1.2772
C26_2 C -0.1688(5) 1.0974(4) 1.2115(4)
H12_2 H -0.1168 1.1269 1.1784
C27_2 C -0.3760(4) 1.1802(4) 1.3802(3)
C28_2 C -0.2286(4) 0.9774(4) 0.7859(4)
C29_2 C -0.2068(5) 1.0730(4) 0.7580(4)
H13_2 H -0.1513 1.0988 0.7796
C30_2 C -0.2645(5) 1.1332(4) 0.6983(4)
H14_2 H -0.2462 1.1979 0.6782
C31_2 C -0.3482(4) 1.0984(4) 0.6686(3)
C32_2 C -0.3711(5) 1.0017(5) 0.6966(4)
H15_2 H -0.4279 0.9767 0.6761
C33_2 C -0.3108(5) 0.9404(5) 0.7552(4)
H16_2 H -0.3264 0.8741 0.7736
C34_2 C -0.4092(5) 1.1675(4) 0.6053(4)
C35_2 C 0.1636(4) 0.5379(4) 0.7785(3)
C36_2 C 0.2621(4) 0.5449(4) 0.7398(3)
H17_2 H 0.2997 0.5968 0.7532
C37_2 C 0.3056(4) 0.4759(4) 0.6815(3)
H18_2 H 0.3723 0.4815 0.6547
C38_2 C 0.2516(4) 0.3988(4) 0.6626(4)
C39_2 C 0.1544(5) 0.3921(4) 0.7015(4)
H19_2 H 0.1169 0.3401 0.6885
C40_2 C 0.1106(5) 0.4608(4) 0.7597(4)
H20_2 H 0.0440 0.4547 0.7866
C41_2 C 0.2988(5) 0.3192(4) 0.6030(4)
C42_2 C 0.2243(5) 0.5731(4) 1.1906(3)
C43_2 C 0.2136(5) 0.4712(4) 1.2173(4)
H21_2 H 0.1656 0.4375 1.1931
C44_2 C 0.2720(5) 0.4198(4) 1.2781(4)
H22_2 H 0.2636 0.3510 1.2959
C45_2 C 0.3439(5) 0.4678(4) 1.3143(3)
C46_2 C 0.3573(4) 0.5673(4) 1.2865(4)
H23_2 H 0.4065 0.6005 1.3098
C47_2 C 0.2983(5) 0.6184(4) 1.2242(4)
H24_2 H 0.3092 0.6858 1.2043
C48_2 C 0.4045(5) 0.4129(4) 1.3836(4)
O1_2 O -0.4536(3) 1.1412(3) 1.4157(2)
O2_2 O -0.3564(3) 1.2673(3) 1.3910(3)
O3_2 O -0.3825(3) 1.2508(3) 0.5820(3)
O4_2 O -0.4879(3) 1.1341(3) 0.5799(2)
O5_2 O 0.3849(3) 0.3325(3) 0.5663(3)
O6_2 O 0.2499(4) 0.2476(4) 0.5942(3)
O7_2 O 0.3955(3) 0.3183(3) 1.3990(2)
O8_2 O 0.4577(3) 0.4626(3) 1.4211(2)
Pt1_2 Pt -0.002636(17) 0.773806(16) 0.988196(14)
O5_3 O -0.6151(3) 1.3325(3) 0.5663(3)
O7_3 O -0.6045(3) 1.3183(3) 0.3990(2)
Cu1_3 Cu 0.45746(5) 0.23485(5) -0.51014(4)
Cu1_4 Cu 0.45746(5) 0.23485(5) 0.48986(4)
O1_3 O -0.4536(3) 1.1412(3) -0.5843(2)
O5_4 O -0.6151(3) 1.3325(3) -0.4337(3)
O7_4 O -0.6045(3) 1.3183(3) -0.6010(2)
Cu1_5 Cu -0.54254(5) 1.23485(5) 1.48986(4)
Cu1_6 Cu 0.45746(5) 0.23485(5) 1.48986(4)
loop_
_geom_bond_atom_site_label_1
_geom_bond_atom_site_label_2
_geom_bond_site_symmetry_1
_geom_bond_site_symmetry_2
Pt1 N1 1_555 1_555
Cu1 O1 1_555 1_555
Cu2 N6 1_555 1_555
C1 C2 1_555 1_555
C2 C3 1_555 1_555
C3 C4 1_555 1_555
C4 H1 1_555 1_555
C5 C4 1_555 1_555
H2 C5 1_555 1_555
C6 C5 1_555 1_555
C7 C6 1_555 1_555
C8 C7 1_555 1_555
C9 C8 1_555 1_555
H3 C9 1_555 1_555
C10 C9 1_555 1_555
H4 C10 1_555 1_555
C11 C10 1_555 1_555
C12 C11 1_555 1_555
C13 C12 1_555 1_555
C14 C13 1_555 1_555
H5 C14 1_555 1_555
C15 C14 1_555 1_555
H6 C15 1_555 1_555
C16 C15 1_555 1_555
C17 C16 1_555 1_555
C18 C17 1_555 1_555
C19 C18 1_555 1_555
H7 C19 1_555 1_555
C20 C1 1_555 1_555
H8 C20 1_555 1_555
N1 C1 1_555 1_555
N2 Pt1 1_555 1_555
N3 Pt1 1_555 1_555
N4 Pt1 1_555 1_555
C21 C2 1_555 1_555
C22 C21 1_555 1_555
H9 C22 1_555 1_555
C23 C22 1_555 1_555
H10 C23 1_555 1_555
C24 C23 1_555 1_555
C25 C24 1_555 1_555
H11 C25 1_555 1_555
C26 C21 1_555 1_555
H12 C26 1_555 1_555
C27 C24 1_555 1_555
C28 C7 1_555 1_555
C29 C28 1_555 1_555
H13 C29 1_555 1_555
C30 C29 1_555 1_555
H14 C30 1_555 1_555
C31 C30 1_555 1_555
C32 C31 1_555 1_555
H15 C32 1_555 1_555
C33 C28 1_555 1_555
H16 C33 1_555 1_555
C34 C31 1_555 1_555
C35 C12 1_555 1_555
C36 C35 1_555 1_555
H17 C36 1_555 1_555
C37 C36 1_555 1_555
H18 C37 1_555 1_555
C38 C37 1_555 1_555
C39 C38 1_555 1_555
H19 C39 1_555 1_555
C40 C35 1_555 1_555
H20 C40 1_555 1_555
C41 C38 1_555 1_555
C42 C17 1_555 1_555
C43 C42 1_555 1_555
H21 C43 1_555 1_555
C44 C43 1_555 1_555
H22 C44 1_555 1_555
C45 C44 1_555 1_555
C46 C45 1_555 1_555
H23 C46 1_555 1_555
C47 C42 1_555 1_555
H24 C47 1_555 1_555
C48 C45 1_555 1_555
O1 C27 1_555 1_555
O2 C27 1_555 1_555
O3 C34 1_555 1_555
O4 C34 1_555 1_555
O5 C41 1_555 1_555
O6 C41 1_555 1_555
O7 C48 1_555 1_555
O8 C48 1_555 1_555
N5 C49 1_555 1_555
C49 H25 1_555 1_555
C50 C49 1_555 1_555
H26 C50 1_555 1_555
C51 C50 1_555 1_555
H27 C51 1_555 1_555
C52 C51 1_555 1_555
H28 C52 1_555 1_555
C53 N5 1_555 1_555
H29 C53 1_555 1_555
N6 C54 1_555 1_555
C54 H30 1_555 1_555
C55 C54 1_555 1_555
H31 C55 1_555 1_555
C56 C55 1_555 1_555
H32 C56 1_555 1_555
C57 C56 1_555 1_555
H33 C57 1_555 1_555
C58 N6 1_555 1_555
H34 C58 1_555 1_555
N7 Cu2 1_555 1_555
C59 N7 1_555 1_555
H35 C59 1_555 1_555
C60 C59 1_555 1_555
H36 C60 1_555 1_555
C61 C60 1_555 1_555
H37 C61 1_555 1_555
C62 C61 1_555 1_555
H38 C62 1_555 1_555
C63 N7 1_555 1_555
H39 C63 1_555 1_555
C64 H40 1_555 1_555
C65 C64 1_555 1_555
H41 C65 1_555 1_555
C66 C64 1_555 1_555
H42 C66 1_555 1_555
O9 H43 1_555 1_555
H44 O9 1_555 1_555
C66A C65 1_555 1_555
C64A C66A 1_555 1_555
H40A C64A 1_555 1_555
C65A C66 1_555 1_555
H41A C65A 1_555 1_555
H42A C66A 1_555 1_555
Cu1_2 O4 1_555 1_555
C1_2 C2_2 1_555 1_555
C2_2 C3_2 1_555 1_555
C3_2 C4_2 1_555 1_555
C4_2 H1_2 1_555 1_555
C5_2 C4_2 1_555 1_555
H2_2 C5_2 1_555 1_555
C6_2 C5_2 1_555 1_555
C7_2 C6_2 1_555 1_555
C8_2 C7_2 1_555 1_555
C9_2 C8_2 1_555 1_555
H3_2 C9_2 1_555 1_555
C10_2 C9_2 1_555 1_555
H4_2 C10_2 1_555 1_555
C11_2 C10_2 1_555 1_555
C12_2 C11_2 1_555 1_555
C13_2 C12_2 1_555 1_555
C14_2 C13_2 1_555 1_555
H5_2 C14_2 1_555 1_555
C15_2 C14_2 1_555 1_555
H6_2 C15_2 1_555 1_555
C16_2 C15_2 1_555 1_555
C17_2 C16_2 1_555 1_555
C18_2 C17_2 1_555 1_555
C19_2 C18_2 1_555 1_555
H7_2 C19_2 1_555 1_555
C20_2 C1_2 1_555 1_555
H8_2 C20_2 1_555 1_555
N1_2 C1_2 1_555 1_555
N2_2 C3_2 1_555 1_555
N3_2 C8_2 1_555 1_555
N4_2 C13_2 1_555 1_555
C21_2 C2_2 1_555 1_555
C22_2 C21_2 1_555 1_555
H9_2 C22_2 1_555 1_555
C23_2 C22_2 1_555 1_555
H10_2 C23_2 1_555 1_555
C24_2 C23_2 1_555 1_555
C25_2 C24_2 1_555 1_555
H11_2 C25_2 1_555 1_555
C26_2 C21_2 1_555 1_555
H12_2 C26_2 1_555 1_555
C27_2 C24_2 1_555 1_555
C28_2 C7_2 1_555 1_555
C29_2 C28_2 1_555 1_555
H13_2 C29_2 1_555 1_555
C30_2 C29_2 1_555 1_555
H14_2 C30_2 1_555 1_555
C31_2 C30_2 1_555 1_555
C32_2 C31_2 1_555 1_555
H15_2 C32_2 1_555 1_555
C33_2 C28_2 1_555 1_555
H16_2 C33_2 1_555 1_555
C34_2 C31_2 1_555 1_555
C35_2 C12_2 1_555 1_555
C36_2 C35_2 1_555 1_555
H17_2 C36_2 1_555 1_555
C37_2 C36_2 1_555 1_555
H18_2 C37_2 1_555 1_555
C38_2 C37_2 1_555 1_555
C39_2 C38_2 1_555 1_555
H19_2 C39_2 1_555 1_555
C40_2 C35_2 1_555 1_555
H20_2 C40_2 1_555 1_555
C41_2 C38_2 1_555 1_555
C42_2 C17_2 1_555 1_555
C43_2 C42_2 1_555 1_555
H21_2 C43_2 1_555 1_555
C44_2 C43_2 1_555 1_555
H22_2 C44_2 1_555 1_555
C45_2 C44_2 1_555 1_555
C46_2 C45_2 1_555 1_555
H23_2 C46_2 1_555 1_555
C47_2 C42_2 1_555 1_555
H24_2 C47_2 1_555 1_555
C48_2 C45_2 1_555 1_555
O1_2 C27_2 1_555 1_555
O2_2 C27_2 1_555 1_555
O3_2 C34_2 1_555 1_555
O4_2 Cu1 1_555 1_555
O5_2 C41_2 1_555 1_555
O6_2 C41_2 1_555 1_555
O7_2 C48_2 1_555 1_555
O8_2 C48_2 1_555 1_555
Pt1_2 N1_2 1_555 1_555
N6A Cu2 1_555 1_555
C54A N6A 1_555 1_555
H30A C54A 1_555 1_555
C55A C54A 1_555 1_555
H31A C55A 1_555 1_555
C56A C55A 1_555 1_555
H32A C56A 1_555 1_555
C57A C56A 1_555 1_555
H33A C57A 1_555 1_555
C58A N6A 1_555 1_555
H34A C58A 1_555 1_555
Cu2A Cu2 1_555 1_555
N7A Cu2A 1_555 1_555
C59A N7A 1_555 1_555
H35A C59A 1_555 1_555
C60A C59A 1_555 1_555
H36A C60A 1_555 1_555
C61A C60A 1_555 1_555
H37A C61A 1_555 1_555
C62A C61A 1_555 1_555
H38A C62A 1_555 1_555
C63A N7A 1_555 1_555
H39A C63A 1_555 1_555
O5_3 Cu1 1_555 1_555
O7_3 Cu1 1_555 1_555
Cu1_3 O5 1_555 1_555
Cu1_4 O7 1_555 1_555
O1_3 Cu1_2 1_555 1_555
O5_4 Cu1_2 1_555 1_555
O7_4 Cu1_2 1_555 1_555
Cu1_5 O1_2 1_555 1_555
Cu1_6 O7_2 1_555 1_555
C3 N2 1_555 1_555
C6 N2 1_555 1_555
C8 N3 1_555 1_555
C11 N3 1_555 1_555
C13 N4 1_555 1_555
C16 N4 1_555 1_555
C18 N1 1_555 1_555
C19 C20 1_555 1_555
C25 C26 1_555 1_555
C32 C33 1_555 1_555
C39 C40 1_555 1_555
C46 C47 1_555 1_555
C52 C53 1_555 1_555
N6 Cu2A 1_555 1_555
C57 C58 1_555 1_555
C62 C63 1_555 1_555
C64A C65A 1_555 1_555
C6_2 N2_2 1_555 1_555
C11_2 N3_2 1_555 1_555
C16_2 N4_2 1_555 1_555
C18_2 N1_2 1_555 1_555
C19_2 C20_2 1_555 1_555
N2_2 Pt1_2 1_555 1_555
N3_2 Pt1_2 1_555 1_555
N4_2 Pt1_2 1_555 1_555
C25_2 C26_2 1_555 1_555
C32_2 C33_2 1_555 1_555
C34_2 O4_2 1_555 1_555
C39_2 C40_2 1_555 1_555
C46_2 C47_2 1_555 1_555
O5_2 Cu1_4 1_555 1_555
N6A Cu2A 1_555 1_555
C57A C58A 1_555 1_555
C62A C63A 1_555 1_555

#END
