
#######################################################################
#
#                 Cambridge Crystallographic Data Centre
#                                CCDC 
#
#######################################################################
#
# If this CIF has been generated from an entry in the Cambridge 
# Structural Database, then it will include bibliographic, chemical, 
# crystal, experimental, refinement or atomic coordinate data resulting 
# from the CCDC's data processing and validation procedures.
#
#######################################################################

data_GIZXET
_chemical_formula_moiety         '(C78 H56 N2 O18 Zn2 2-)n'
_symmetry_cell_setting           orthorhombic
_symmetry_space_group_name_H-M   'P b c a'
_symmetry_Int_Tables_number      61
_space_group_name_Hall           '-P 2ac 2ab'
loop_
_symmetry_equiv_pos_site_id
_symmetry_equiv_pos_as_xyz
1 x,y,z
2 1/2+x,1/2-y,-z
3 -x,1/2+y,1/2-z
4 1/2-x,-y,1/2+z
5 -x,-y,-z
6 1/2-x,1/2+y,z
7 x,1/2-y,1/2+z
8 1/2+x,y,1/2-z
_cell_length_a                   16.442(2)
_cell_length_b                   17.697(3)
_cell_length_c                   27.528(4)
_cell_angle_alpha                90
_cell_angle_beta                 90
_cell_angle_gamma                90
_cell_volume                     8009.93
loop_
_atom_site_label
_atom_site_type_symbol
_atom_site_fract_x
_atom_site_fract_y
_atom_site_fract_z
Zn1 Zn 0.513871(15) 0.249175(11) 0.384131(8)
O1 O 0.61604(9) 0.25093(8) 0.34789(5)
O2 O 0.58926(11) 0.14590(10) 0.30530(7)
O3 O 0.91503(9) 0.21998(8) 0.15165(5)
O4 O 0.95249(10) 0.31589(9) 0.19872(6)
O5 O 0.51520(9) 0.34840(8) 0.41433(5)
O6 O 0.38590(9) 0.34480(8) 0.43957(5)
O7 O 0.50873(9) 0.17342(9) 0.43483(6)
O8 O 0.63531(11) 0.15874(10) 0.46207(7)
C1 C 0.62911(13) 0.20348(12) 0.31394(7)
C2 C 0.70128(13) 0.22083(12) 0.28207(7)
C3 C 0.77848(13) 0.19826(11) 0.29722(7)
C4 C 0.79242(14) 0.16391(12) 0.34388(8)
H7 H 0.7478 0.1546 0.3650
C5 C 0.86853(15) 0.14467(13) 0.35802(8)
H8 H 0.8768 0.1231 0.3892
C6 C 0.93586(15) 0.15621(13) 0.32693(8)
H9 H 0.9888 0.1419 0.3373
C7 C 0.92536(14) 0.18770(12) 0.28232(8)
H10 H 0.9710 0.1942 0.2616
C8 C 0.84707(13) 0.21118(11) 0.26613(7)
C9 C 0.83470(13) 0.24657(11) 0.22105(7)
C10 C 0.75778(13) 0.27026(12) 0.20621(7)
C11 C 0.74471(14) 0.30882(12) 0.16094(7)
H11 H 0.7890 0.3159 0.1392
C12 C 0.67021(15) 0.33518(14) 0.14880(8)
H12 H 0.6626 0.3604 0.1187
C13 C 0.60326(15) 0.32547(14) 0.18083(9)
H13 H 0.5515 0.3453 0.1722
C14 C 0.61237(14) 0.28823(13) 0.22362(8)
H14 H 0.5668 0.2821 0.2445
C15 C 0.68932(13) 0.25824(11) 0.23770(7)
C16 C 0.90634(13) 0.26313(12) 0.18899(7)
C17 C 0.45514(13) 0.37164(11) 0.43938(7)
C18 C 0.47641(12) 0.43821(11) 0.47122(7)
C19 C 0.52271(12) 0.42559(11) 0.51311(7)
C20 C 0.54775(14) 0.35148(11) 0.52757(7)
H15 H 0.5332 0.3093 0.5081
C21 C 0.59197(14) 0.34025(12) 0.56861(8)
H16 H 0.6079 0.2905 0.5775
C22 C 0.61447(13) 0.40246(12) 0.59830(8)
H17 H 0.6446 0.3939 0.6272
C23 C 0.59324(13) 0.47420(11) 0.58568(7)
H18 H 0.6093 0.5153 0.6057
C24 C 0.45291(12) 0.51156(11) 0.45740(7)
C25 C 0.56390(14) 0.13908(12) 0.45808(8)
C26 C 0.53397(13) 0.06655(11) 0.48100(8)
C27 C 0.49042(13) 0.06957(12) 0.52457(8)
C28 C 0.47851(15) 0.13879(13) 0.55074(8)
H19 H 0.5005 0.1844 0.5381
C29 C 0.43671(16) 0.14058(14) 0.59308(9)
H20 H 0.4290 0.1872 0.6096
C30 C 0.40434(16) 0.07294(15) 0.61289(8)
H21 H 0.3759 0.0746 0.6429
C31 C 0.41340(14) 0.00600(14) 0.58951(8)
H22 H 0.3912 -0.0386 0.6034
C32 C 0.54402(13) -0.00145(12) 0.45586(8)
Zn1G Zn 0.013871(15) 0.249175(11) 0.115869(8)
Zn1G_2 Zn 1.013871(15) 0.249175(11) 0.115869(8)
Zn1D Zn 0.486129(15) 0.750825(11) 0.615869(8)
Zn1D_2 Zn 0.486129(15) -0.249175(11) 0.615869(8)
O1G O 0.11604(9) 0.25093(8) 0.15211(5)
O2G O 0.08926(11) 0.14590(10) 0.19470(7)
O3G O 0.41503(9) 0.21998(8) 0.34835(5)
O3_2 O -0.08497(9) 0.21998(8) 0.15165(5)
O4G O 0.45249(10) 0.31589(9) 0.30128(6)
O5D O 0.48480(9) 0.65160(8) 0.58567(5)
O5G O 0.01520(9) 0.34840(8) 0.08567(5)
O6D O 0.61410(9) 0.65520(8) 0.56043(5)
O7D O 0.49127(9) -0.17342(9) 0.56517(6)
O7G O 0.00873(9) 0.17342(9) 0.06517(6)
O8D O 0.36469(11) -0.15874(10) 0.53793(7)
C1G C 0.12911(13) 0.20348(12) 0.18606(7)
C2G C 0.20128(13) 0.22083(12) 0.21793(7)
C3G C 0.27848(13) 0.19826(11) 0.20278(7)
C4G C 0.29242(14) 0.16391(12) 0.15612(8)
H7G H 0.2478 0.1546 0.1350
C5G C 0.36853(15) 0.14467(13) 0.14198(8)
H8G H 0.3768 0.1231 0.1108
C6G C 0.43586(15) 0.15621(13) 0.17307(8)
H9G H 0.4888 0.1419 0.1627
C7G C 0.42536(14) 0.18770(12) 0.21768(8)
H10G H 0.4710 0.1942 0.2384
C8G C 0.34707(13) 0.21118(11) 0.23387(7)
C9G C 0.33470(13) 0.24657(11) 0.27895(7)
C10G C 0.25778(13) 0.27026(12) 0.29379(7)
C11G C 0.24471(14) 0.30882(12) 0.33906(7)
H11G H 0.2890 0.3159 0.3608
C12G C 0.17021(15) 0.33518(14) 0.35120(8)
H12G H 0.1626 0.3604 0.3813
C13G C 0.10326(15) 0.32547(14) 0.31917(9)
H13G H 0.0515 0.3453 0.3278
C14G C 0.11237(14) 0.28823(13) 0.27638(8)
H14G H 0.0668 0.2821 0.2555
C15G C 0.18932(13) 0.25824(11) 0.26230(7)
C16G C 0.40634(13) 0.26313(12) 0.31101(7)
C17D C 0.54486(13) 0.62836(11) 0.56062(7)
C18D C 0.52359(12) 0.56179(11) 0.52878(7)
C19D C 0.47729(12) 0.57441(11) 0.48689(7)
C20D C 0.45225(14) 0.64852(11) 0.47243(7)
H15D H 0.4668 0.6907 0.4919
C21D C 0.40803(14) 0.65975(12) 0.43139(8)
H16D H 0.3921 0.7095 0.4225
C22D C 0.38553(13) 0.59754(12) 0.40170(8)
H17D H 0.3554 0.6061 0.3728
C23D C 0.40676(13) 0.52580(11) 0.41432(7)
H18D H 0.3907 0.4847 0.3943
C24D C 0.54709(12) 0.48844(11) 0.54260(7)
C25D C 0.43610(14) -0.13908(12) 0.54192(8)
C26D C 0.46603(13) -0.06655(11) 0.51900(8)
C27D C 0.50958(13) -0.06957(12) 0.47543(8)
C28D C 0.52149(15) -0.13879(13) 0.44926(8)
H19D H 0.4995 -0.1844 0.4619
C29D C 0.56329(16) -0.14058(14) 0.40692(9)
H20D H 0.5710 -0.1872 0.3904
C30D C 0.59566(16) -0.07294(15) 0.38711(8)
H21D H 0.6241 -0.0746 0.3571
C31D C 0.58660(14) -0.00600(14) 0.41049(8)
H22D H 0.6088 0.0386 0.3966
C32D C 0.45598(13) 0.00145(12) 0.54414(8)
O9 O 0.44662(11) 0.07394(9) 0.32635(6)
H1 H 0.4988(18) 0.0851(16) 0.3204(11)
H2 H 0.4256(18) 0.1172(17) 0.3338(10)
O10 O 0.24285(11) 0.41384(9) 0.47466(7)
H3 H 0.2867(19) 0.3881(17) 0.4665(11)
H4 H 0.2184(18) 0.3893(17) 0.4992(10)
N1 N 0.62862(12) 0.50402(10) 0.24540(7)
H5 H 0.6045(17) 0.5354(15) 0.2183(11)
C33 C 0.48987(15) 0.48332(15) 0.27251(11)
H23 H 0.4803 0.5372 0.2665
H24 H 0.4622 0.4682 0.3025
H25 H 0.4686 0.4537 0.2453
C34 C 0.57888(15) 0.46950(12) 0.27752(8)
C35 C 0.61283(16) 0.42235(13) 0.31170(8)
H26 H 0.5794 0.3977 0.3350
C36 C 0.69614(16) 0.41123(13) 0.31185(8)
H27 H 0.7200 0.3782 0.3350
C37 C 0.74483(16) 0.44800(14) 0.27840(8)
H28 H 0.8020 0.4404 0.2785
C38 C 0.70969(15) 0.49564(13) 0.24490(8)
C39 C 0.75663(16) 0.53850(17) 0.20728(9)
H29 H 0.7609 0.5080 0.1777
H30 H 0.8113 0.5495 0.2196
H31 H 0.7285 0.5860 0.1999
N2 N 0.25633(10) 0.06254(11) 0.49782(6)
H6 H 0.2566(16) 0.0101(18) 0.4915(10)
C40 C 0.33599(15) 0.07580(15) 0.42433(8)
H32 H 0.3271 0.0210 0.4242
H33 H 0.3945 0.0863 0.4245
H34 H 0.3114 0.0981 0.3952
C41 C 0.29788(13) 0.10923(12) 0.46841(8)
C42 C 0.30149(15) 0.18506(13) 0.48044(9)
H35 H 0.3305 0.2196 0.4605
C43 C 0.26236(15) 0.20994(13) 0.52183(9)
H36 H 0.2655 0.2618 0.5306
C44 C 0.21885(15) 0.16083(13) 0.55063(8)
H37 H 0.1906 0.1787 0.5785
C45 C 0.21701(13) 0.08524(12) 0.53840(8)
C46 C 0.17550(15) 0.02527(14) 0.56731(8)
H38 H 0.1539 -0.0134 0.5453
H39 H 0.1308 0.0477 0.5859
H40 H 0.2146 0.0021 0.5897
loop_
_geom_bond_atom_site_label_1
_geom_bond_atom_site_label_2
_geom_bond_site_symmetry_1
_geom_bond_site_symmetry_2
Zn1 O1 1_555 1_555
O1 C1 1_555 1_555
O2 C1 1_555 1_555
O3 C16 1_555 1_555
O4 C16 1_555 1_555
O5 Zn1 1_555 1_555
O6 C17 1_555 1_555
O7 Zn1 1_555 1_555
O8 C25 1_555 1_555
O9 H1 1_555 1_555
H2 O9 1_555 1_555
O10 H3 1_555 1_555
H4 O10 1_555 1_555
N1 H5 1_555 1_555
N2 H6 1_555 1_555
C1 C2 1_555 1_555
C2 C3 1_555 1_555
C3 C4 1_555 1_555
C4 H7 1_555 1_555
C5 C4 1_555 1_555
H8 C5 1_555 1_555
C6 C5 1_555 1_555
H9 C6 1_555 1_555
C7 C6 1_555 1_555
H10 C7 1_555 1_555
C8 C3 1_555 1_555
C9 C8 1_555 1_555
C10 C9 1_555 1_555
C11 C10 1_555 1_555
H11 C11 1_555 1_555
C12 C11 1_555 1_555
H12 C12 1_555 1_555
C13 C12 1_555 1_555
H13 C13 1_555 1_555
C14 C13 1_555 1_555
H14 C14 1_555 1_555
C15 C2 1_555 1_555
C16 C9 1_555 1_555
C17 O5 1_555 1_555
C18 C17 1_555 1_555
C19 C18 1_555 1_555
C20 C19 1_555 1_555
H15 C20 1_555 1_555
C21 C20 1_555 1_555
H16 C21 1_555 1_555
C22 C21 1_555 1_555
H17 C22 1_555 1_555
C23 C22 1_555 1_555
H18 C23 1_555 1_555
C24 C18 1_555 1_555
C25 O7 1_555 1_555
C26 C25 1_555 1_555
C27 C26 1_555 1_555
C28 C27 1_555 1_555
H19 C28 1_555 1_555
C29 C28 1_555 1_555
H20 C29 1_555 1_555
C30 C29 1_555 1_555
H21 C30 1_555 1_555
C31 C30 1_555 1_555
H22 C31 1_555 1_555
C32 C26 1_555 1_555
C33 H23 1_555 1_555
H24 C33 1_555 1_555
H25 C33 1_555 1_555
C34 N1 1_555 1_555
C35 C34 1_555 1_555
H26 C35 1_555 1_555
C36 C35 1_555 1_555
H27 C36 1_555 1_555
C37 C36 1_555 1_555
H28 C37 1_555 1_555
C38 N1 1_555 1_555
C39 C38 1_555 1_555
H29 C39 1_555 1_555
H30 C39 1_555 1_555
H31 C39 1_555 1_555
C40 H32 1_555 1_555
H33 C40 1_555 1_555
H34 C40 1_555 1_555
C41 N2 1_555 1_555
C42 C41 1_555 1_555
H35 C42 1_555 1_555
C43 C42 1_555 1_555
H36 C43 1_555 1_555
C44 C43 1_555 1_555
H37 C44 1_555 1_555
C45 N2 1_555 1_555
C46 C45 1_555 1_555
H38 C46 1_555 1_555
H39 C46 1_555 1_555
H40 C46 1_555 1_555
Zn1G O1G 1_555 1_555
Zn1G_2 O3 1_555 1_555
Zn1D O5D 1_555 1_555
Zn1D_2 O7D 1_555 1_555
O1G C1G 1_555 1_555
O2G C1G 1_555 1_555
O3G Zn1 1_555 1_555
O3_2 Zn1G 1_555 1_555
O4G C16G 1_555 1_555
O5D C17D 1_555 1_555
O5G Zn1G 1_555 1_555
O6D C17D 1_555 1_555
O7D C25D 1_555 1_555
O7G Zn1G 1_555 1_555
O8D C25D 1_555 1_555
C1G C2G 1_555 1_555
C2G C3G 1_555 1_555
C3G C4G 1_555 1_555
C4G H7G 1_555 1_555
C5G C4G 1_555 1_555
H8G C5G 1_555 1_555
C6G C5G 1_555 1_555
H9G C6G 1_555 1_555
C7G C6G 1_555 1_555
H10G C7G 1_555 1_555
C8G C3G 1_555 1_555
C9G C8G 1_555 1_555
C10G C9G 1_555 1_555
C11G C10G 1_555 1_555
H11G C11G 1_555 1_555
C12G C11G 1_555 1_555
H12G C12G 1_555 1_555
C13G C12G 1_555 1_555
H13G C13G 1_555 1_555
C14G C13G 1_555 1_555
H14G C14G 1_555 1_555
C15G C2G 1_555 1_555
C16G O3G 1_555 1_555
C17D C18D 1_555 1_555
C18D C19D 1_555 1_555
C19D C24 1_555 1_555
C20D C19D 1_555 1_555
H15D C20D 1_555 1_555
C21D C20D 1_555 1_555
H16D C21D 1_555 1_555
C22D C21D 1_555 1_555
H17D C22D 1_555 1_555
C23D C24 1_555 1_555
H18D C23D 1_555 1_555
C24D C19 1_555 1_555
C25D C26D 1_555 1_555
C26D C27D 1_555 1_555
C27D C32 1_555 1_555
C28D C27D 1_555 1_555
H19D C28D 1_555 1_555
C29D C28D 1_555 1_555
H20D C29D 1_555 1_555
C30D C29D 1_555 1_555
H21D C30D 1_555 1_555
C31D C32 1_555 1_555
H22D C31D 1_555 1_555
C32D C27 1_555 1_555
C7 C8 1_555 1_555
C10 C15 1_555 1_555
C14 C15 1_555 1_555
C23 C24D 1_555 1_555
C31 C32D 1_555 1_555
C33 C34 1_555 1_555
C37 C38 1_555 1_555
C40 C41 1_555 1_555
C44 C45 1_555 1_555
C7G C8G 1_555 1_555
C9G C16G 1_555 1_555
C10G C15G 1_555 1_555
C14G C15G 1_555 1_555
C18D C24D 1_555 1_555
C22D C23D 1_555 1_555
C26D C32D 1_555 1_555
C30D C31D 1_555 1_555

#END
