
#######################################################################
#
#                 Cambridge Crystallographic Data Centre
#                                CCDC 
#
#######################################################################
#
# If this CIF has been generated from an entry in the Cambridge 
# Structural Database, then it will include bibliographic, chemical, 
# crystal, experimental, refinement or atomic coordinate data resulting 
# from the CCDC's data processing and validation procedures.
#
#######################################################################

data_QURNIC
_chemical_formula_moiety         '(C38 H23 Cl6 Cu3 N7 O16 Zr3)n'
_symmetry_cell_setting           cubic
_symmetry_space_group_name_H-M   'P a -3'
_symmetry_Int_Tables_number      205
_space_group_name_Hall           '-P 2ac 2ab 3'
loop_
_symmetry_equiv_pos_site_id
_symmetry_equiv_pos_as_xyz
1 x,y,z
2 -x,1/2+y,1/2-z
3 1/2-x,-y,1/2+z
4 -y,1/2+z,1/2-x
5 1/2-y,-z,1/2+x
6 -z,1/2+x,1/2-y
7 1/2-z,-x,1/2+y
8 z,x,y
9 1/2+z,1/2-x,-y
10 y,z,x
11 1/2+y,1/2-z,-x
12 1/2+x,1/2-y,-z
13 -x,-y,-z
14 x,1/2-y,1/2+z
15 1/2+x,y,1/2-z
16 y,1/2-z,1/2+x
17 1/2+y,z,1/2-x
18 z,1/2-x,1/2+y
19 1/2+z,x,1/2-y
20 -z,-x,-y
21 1/2-z,1/2+x,y
22 -y,-z,-x
23 1/2-y,1/2+z,x
24 1/2-x,1/2+y,z
_cell_length_a                   26.08867(40)
_cell_length_b                   26.08867(40)
_cell_length_c                   26.08867(40)
_cell_angle_alpha                90
_cell_angle_beta                 90
_cell_angle_gamma                90
_cell_volume                     17756.4
loop_
_atom_site_label
_atom_site_type_symbol
_atom_site_fract_x
_atom_site_fract_y
_atom_site_fract_z
_atom_site_U_iso_or_equiv
_atom_site_thermal_displace_type
Zr1 Zr 0.51544(21) 0.48355(22) 0.40883(14) 0.0196 Uiso
Cu1 Cu 0.20751(49) 0.48054(37) 0.28843(44) 0.0774 Uiso
Cl1 Cl 0.1449(10) 0.5331(13) 0.2899(10) 0.2086 Uiso
Cl2 Cl 0.2028(10) 0.4622(11) 0.36575(94) 0.1670 Uiso
O1 O 0.4646(19) 0.4646(19) 0.4646(19) 0.0104 Uiso
O2 O 0.53878 0.44838 0.47048 0.0104 Uiso
C1 C 0.303743 0.467653 0.231865 0.0192 Uiso
C2 C 0.355065 0.456438 0.228397 0.0192 Uiso
C3 C 0.386297 0.462838 0.270293 0.0192 Uiso
C4 C 0.366208 0.480452 0.315657 0.0192 Uiso
C5 C 0.314887 0.491667 0.319125 0.0192 Uiso
N1 N 0.28443 0.485427 0.278269 0.0192 Uiso
C6 C 0.264053 0.465976 0.200103 0.0192 Uiso
C7 C 0.270725 0.449738 0.150469 0.0192 Uiso
C8 C 0.229641 0.448002 0.117593 0.0192 Uiso
C9 C 0.181886 0.462504 0.134351 0.0192 Uiso
C10 C 0.175214 0.478742 0.183985 0.0192 Uiso
N2 N 0.215277 0.480435 0.216044 0.0192 Uiso
C11 C 0.399114 0.487194 0.359797 0.0192 Uiso
O3 O 0.380577 0.503513 0.401665 0.0192 Uiso
O4 O 0.446488 0.476784 0.356612 0.0192 Uiso
C12 C 0.138602 0.460675 0.099713 0.0192 Uiso
O5 O 0.093334 0.463374 0.117219 0.0192 Uiso
O6 O 0.145937 0.456374 0.051854 0.0192 Uiso
H1 H 0.368960 0.444255 0.197020 0.0192 Uiso
H2 H 0.421795 0.455080 0.267895 0.0192 Uiso
H3 H 0.300992 0.503850 0.350501 0.0192 Uiso
H4 H 0.303756 0.439708 0.138879 0.0192 Uiso
H5 H 0.234256 0.436771 0.083263 0.0192 Uiso
H6 H 0.142183 0.488773 0.195576 0.0192 Uiso
Zr1U Zr 0.51645(22) 0.59117(14) 0.48456(21) 0.0196 Uiso
Cu1U Cu 0.51946(37) 0.71157(44) 0.79249(49) 0.0774 Uiso
Cl1U Cl 0.4669(13) 0.7101(10) 0.8551(10) 0.2086 Uiso
Cl2U Cl 0.5378(11) 0.63425(94) 0.7972(10) 0.1670 Uiso
O2U O 0.55162 0.52952 0.46122 0.0104 Uiso
C1U C 0.532347 0.768135 0.696257 0.0192 Uiso
C2U C 0.543562 0.771603 0.644935 0.0192 Uiso
C3U C 0.537162 0.729707 0.613703 0.0192 Uiso
C4U C 0.519548 0.684343 0.633792 0.0192 Uiso
C5U C 0.508333 0.680875 0.685113 0.0192 Uiso
N1U N 0.514573 0.721731 0.71557 0.0192 Uiso
C6U C 0.534024 0.799897 0.735947 0.0192 Uiso
C7U C 0.550262 0.849531 0.729275 0.0192 Uiso
C8U C 0.551998 0.882407 0.770359 0.0192 Uiso
C9U C 0.537496 0.865649 0.818114 0.0192 Uiso
C10U C 0.521258 0.816015 0.824786 0.0192 Uiso
N2U N 0.519565 0.783956 0.784723 0.0192 Uiso
C11U C 0.512806 0.640203 0.600886 0.0192 Uiso
O3U O 0.496487 0.598335 0.619423 0.0192 Uiso
O4U O 0.523216 0.643388 0.553512 0.0192 Uiso
C12U C 0.539325 0.900287 0.861398 0.0192 Uiso
O5U O 0.536626 0.882781 0.906666 0.0192 Uiso
O6U O 0.543626 0.948146 0.854063 0.0192 Uiso
H1U H 0.555745 0.802980 0.631040 0.0192 Uiso
H2U H 0.544920 0.732105 0.578205 0.0192 Uiso
H3U H 0.496150 0.649499 0.699008 0.0192 Uiso
H4U H 0.560292 0.861121 0.696244 0.0192 Uiso
H5U H 0.563229 0.916737 0.765744 0.0192 Uiso
H6U H 0.511227 0.804424 0.857817 0.0192 Uiso
Zr1S Zr 0.59117(14) 0.48456(21) 0.51645(22) 0.0196 Uiso
Cu1S Cu 0.71157(44) 0.79249(49) 0.51946(37) 0.0774 Uiso
Cl1S Cl 0.7101(10) 0.8551(10) 0.4669(13) 0.2086 Uiso
Cl2S Cl 0.63425(94) 0.7972(10) 0.5378(11) 0.1670 Uiso
O2S O 0.52952 0.46122 0.55162 0.0104 Uiso
C1S C 0.768135 0.696257 0.532347 0.0192 Uiso
C2S C 0.771603 0.644935 0.543562 0.0192 Uiso
C3S C 0.729707 0.613703 0.537162 0.0192 Uiso
C4S C 0.684343 0.633792 0.519548 0.0192 Uiso
C5S C 0.680875 0.685113 0.508333 0.0192 Uiso
N1S N 0.721731 0.71557 0.514573 0.0192 Uiso
C6S C 0.799897 0.735947 0.534024 0.0192 Uiso
C7S C 0.849531 0.729275 0.550262 0.0192 Uiso
C8S C 0.882407 0.770359 0.551998 0.0192 Uiso
C9S C 0.865649 0.818114 0.537496 0.0192 Uiso
C10S C 0.816015 0.824786 0.521258 0.0192 Uiso
N2S N 0.783956 0.784723 0.519565 0.0192 Uiso
C11S C 0.640203 0.600886 0.512806 0.0192 Uiso
O3S O 0.598335 0.619423 0.496487 0.0192 Uiso
O4S O 0.643388 0.553512 0.523216 0.0192 Uiso
C12S C 0.900287 0.861398 0.539325 0.0192 Uiso
O5S O 0.882781 0.906666 0.536626 0.0192 Uiso
O6S O 0.948146 0.854063 0.543626 0.0192 Uiso
H1S H 0.802980 0.631040 0.555745 0.0192 Uiso
H2S H 0.732105 0.578205 0.544920 0.0192 Uiso
H3S H 0.649499 0.699008 0.496150 0.0192 Uiso
H4S H 0.861121 0.696244 0.560292 0.0192 Uiso
H5S H 0.916737 0.765744 0.563229 0.0192 Uiso
H6S H 0.804424 0.857817 0.511227 0.0192 Uiso
Zr1L Zr 0.48456(21) 0.51645(22) 0.59117(14) 0.0196 Uiso
Zr1C Zr 0.51645(22) 0.90883(14) 0.98456(21) 0.0196 Uiso
Zr1V Zr 1.01645(22) 0.90883(14) 0.51544(21) 0.0196 Uiso
Zr1F Zr 0.09117(14) 0.48456(21) -0.01645(22) 0.0196 Uiso
Zr1G Zr 0.40883(14) 0.51544(21) 0.48355(22) 0.0196 Uiso
Zr1H Zr 0.90883(14) 0.98456(21) 0.51645(22) 0.0196 Uiso
Zr1I Zr 0.48355(22) 0.40883(14) 0.51544(21) 0.0196 Uiso
Zr1M Zr 0.51544(21) 1.01645(22) 0.90883(14) 0.0196 Uiso
Zr1N Zr 0.01544(21) 0.48355(22) 0.09117(14) 0.0196 Uiso
O1L O 0.5354(19) 0.5354(19) 0.5354(19) 0.0104 Uiso
O2L O 0.46122 0.55162 0.52952 0.0104 Uiso
O2G O 0.47048 0.53878 0.44838 0.0104 Uiso
O3L O 0.619423 0.496487 0.598335 0.0192 Uiso
O3I O 0.503513 0.401665 0.380577 0.0192 Uiso
O5C O 0.536626 0.617219 0.406666 0.0192 Uiso
O5H O 0.617219 0.406666 0.536626 0.0192 Uiso
O5N O 0.593334 0.463374 0.382781 0.0192 Uiso
O6C O 0.543626 0.551854 0.354063 0.0192 Uiso
O6T O 0.448146 0.645937 0.456374 0.0192 Uiso
O6N O 0.645937 0.456374 0.448146 0.0192 Uiso
N3 N 0.14889 0.58447 0.10905 0.0380 Uiso
C13 C 0.16804 0.60358 0.14403 0.0380 Uiso
C14 C 0.19272 0.62954 0.18677 0.0380 Uiso
loop_
_geom_bond_atom_site_label_1
_geom_bond_atom_site_label_2
_geom_bond_site_symmetry_1
_geom_bond_site_symmetry_2
Zr1 O1 1_555 1_555
Cu1 Cl1 1_555 1_555
Cl2 Cu1 1_555 1_555
O1 Zr1G 1_555 1_555
O2 Zr1 1_555 1_555
C1 C2 1_555 1_555
C2 C3 1_555 1_555
C3 C4 1_555 1_555
C4 C5 1_555 1_555
C5 N1 1_555 1_555
N1 Cu1 1_555 1_555
C6 C1 1_555 1_555
C7 C6 1_555 1_555
C8 C7 1_555 1_555
C9 C8 1_555 1_555
C10 C9 1_555 1_555
N2 Cu1 1_555 1_555
C11 C4 1_555 1_555
O3 C11 1_555 1_555
O4 Zr1 1_555 1_555
C12 C9 1_555 1_555
O5 C12 1_555 1_555
O6 C12 1_555 1_555
H1 C2 1_555 1_555
H2 C3 1_555 1_555
H3 C5 1_555 1_555
H4 C7 1_555 1_555
H5 C8 1_555 1_555
H6 C10 1_555 1_555
N3 C13 1_555 1_555
C13 C14 1_555 1_555
Zr1U O2U 1_555 1_555
Cu1U Cl1U 1_555 1_555
Cl2U Cu1U 1_555 1_555
O2U Zr1 1_555 1_555
C1U C2U 1_555 1_555
C2U C3U 1_555 1_555
C3U C4U 1_555 1_555
C4U C5U 1_555 1_555
C5U N1U 1_555 1_555
N1U Cu1U 1_555 1_555
C6U C1U 1_555 1_555
C7U C6U 1_555 1_555
C8U C7U 1_555 1_555
C9U C8U 1_555 1_555
C10U C9U 1_555 1_555
N2U Cu1U 1_555 1_555
C11U C4U 1_555 1_555
O3U C11U 1_555 1_555
O4U Zr1U 1_555 1_555
C12U C9U 1_555 1_555
O5U C12U 1_555 1_555
O6U C12U 1_555 1_555
H1U C2U 1_555 1_555
H2U C3U 1_555 1_555
H3U C5U 1_555 1_555
H4U C7U 1_555 1_555
H5U C8U 1_555 1_555
H6U C10U 1_555 1_555
Zr1S O2 1_555 1_555
Cu1S Cl1S 1_555 1_555
Cl2S Cu1S 1_555 1_555
O2S Zr1S 1_555 1_555
C1S C2S 1_555 1_555
C2S C3S 1_555 1_555
C3S C4S 1_555 1_555
C4S C5S 1_555 1_555
C5S N1S 1_555 1_555
N1S Cu1S 1_555 1_555
C6S C1S 1_555 1_555
C7S C6S 1_555 1_555
C8S C7S 1_555 1_555
C9S C8S 1_555 1_555
C10S C9S 1_555 1_555
N2S Cu1S 1_555 1_555
C11S C4S 1_555 1_555
O3S Zr1U 1_555 1_555
O4S Zr1S 1_555 1_555
C12S C9S 1_555 1_555
O5S C12S 1_555 1_555
O6S C12S 1_555 1_555
H1S C2S 1_555 1_555
H2S C3S 1_555 1_555
H3S C5S 1_555 1_555
H4S C7S 1_555 1_555
H5S C8S 1_555 1_555
H6S C10S 1_555 1_555
Zr1L O3U 1_555 1_555
Zr1C O5U 1_555 1_555
Zr1V O6S 1_555 1_555
Zr1F O6 1_555 1_555
Zr1G O3 1_555 1_555
Zr1H O5S 1_555 1_555
Zr1I O1 1_555 1_555
Zr1M O6U 1_555 1_555
Zr1N O5 1_555 1_555
O1L Zr1U 1_555 1_555
O2L Zr1U 1_555 1_555
O2G Zr1 1_555 1_555
O3L Zr1S 1_555 1_555
O3I Zr1 1_555 1_555
O5C Zr1U 1_555 1_555
O5H Zr1S 1_555 1_555
O5N Zr1 1_555 1_555
O6C Zr1 1_555 1_555
O6T Zr1U 1_555 1_555
O6N Zr1S 1_555 1_555
O2 Zr1I 1_555 1_555
C1 N1 1_555 1_555
C6 N2 1_555 1_555
C10 N2 1_555 1_555
C11 O4 1_555 1_555
Zr1U O2G 1_555 1_555
O2U Zr1S 1_555 1_555
C1U N1U 1_555 1_555
C6U N2U 1_555 1_555
C10U N2U 1_555 1_555
C11U O4U 1_555 1_555
Zr1S O1L 1_555 1_555
O2S Zr1L 1_555 1_555
O2S Zr1I 1_555 1_555
C1S N1S 1_555 1_555
C6S N2S 1_555 1_555
C10S N2S 1_555 1_555
C11S O3S 1_555 1_555
C11S O4S 1_555 1_555
Zr1L O1L 1_555 1_555
Zr1L O2L 1_555 1_555
Zr1G O2L 1_555 1_555
Zr1G O2G 1_555 1_555

#END
