
#######################################################################
#
#                 Cambridge Crystallographic Data Centre
#                                CCDC 
#
#######################################################################
#
# If this CIF has been generated from an entry in the Cambridge 
# Structural Database, then it will include bibliographic, chemical, 
# crystal, experimental, refinement or atomic coordinate data resulting 
# from the CCDC's data processing and validation procedures.
#
#######################################################################

data_RIPNOV
_chemical_formula_moiety         '(C14 H10 N4 Zn1)n'
_symmetry_cell_setting           rhombohedral
_symmetry_space_group_name_H-M   'R -3'
_symmetry_Int_Tables_number      148
_space_group_name_Hall           '-R 3'
loop_
_symmetry_equiv_pos_site_id
_symmetry_equiv_pos_as_xyz
1 x,y,z
2 -x+y,-x,z
3 -y,x-y,z
4 2/3-x+y,1/3-x,1/3+z
5 2/3-y,1/3+x-y,1/3+z
6 2/3+x,1/3+y,1/3+z
7 1/3-x+y,2/3-x,2/3+z
8 1/3-y,2/3+x-y,2/3+z
9 1/3+x,2/3+y,2/3+z
10 -x,-y,-z
11 x-y,x,-z
12 y,-x+y,-z
13 1/3+x-y,2/3+x,2/3-z
14 1/3+y,2/3-x+y,2/3-z
15 1/3-x,2/3-y,2/3-z
16 2/3+x-y,1/3+x,1/3-z
17 2/3+y,1/3-x+y,1/3-z
18 2/3-x,1/3-y,1/3-z
_cell_length_a                   22.9416(38)
_cell_length_b                   22.9416(38)
_cell_length_c                   15.7488(48)
_cell_angle_alpha                90
_cell_angle_beta                 90
_cell_angle_gamma                120
_cell_volume                     7178.36
loop_
_atom_site_label
_atom_site_type_symbol
_atom_site_fract_x
_atom_site_fract_y
_atom_site_fract_z
_atom_site_U_iso_or_equiv
_atom_site_thermal_displace_type
N1 N 0.973210 0.323613 0.423121 0.0411 Uiso
C1 C 1.00074 0.365537 0.488410 0.0925 Uiso
H1 H 0.997745 0.404293 0.494189 0.0654 Uiso
N2 N 1.033151 0.348489 0.545520 0.0411 Uiso
C2 C 0.990519 0.273904 0.436657 0.0925 Uiso
C3 C 0.975720 0.217123 0.390750 0.0925 Uiso
D1 D 0.951377 0.206768 0.340458 0.0654 Uiso
C4 C 0.998765 0.176670 0.422267 0.0925 Uiso
D2 D 0.990024 0.138206 0.392353 0.0654 Uiso
C5 C 1.035395 0.191691 0.499490 0.0925 Uiso
D3 D 1.050326 0.163056 0.518829 0.0654 Uiso
C6 C 1.02691 0.288913 0.513306 0.0925 Uiso
C7 C 1.049225 0.247478 0.545881 0.0925 Uiso
D4 D 1.072518 0.257142 0.597078 0.0654 Uiso
N3 N 0.924437 0.411501 0.354731 0.0411 Uiso
C8 C 0.945637 0.473830 0.330742 0.0925 Uiso
H2 H 0.976089 0.493387 0.286434 0.0654 Uiso
N4 N 0.921772 0.507306 0.372137 0.0411 Uiso
C9 C 0.878941 0.461641 0.430737 0.0925 Uiso
C10 C 0.838741 0.467525 0.49575 0.0925 Uiso
D5 D 0.838722 0.507577 0.503786 0.0654 Uiso
C11 C 0.879870 0.402870 0.421412 0.0925 Uiso
C12 C 0.840141 0.344854 0.474286 0.0925 Uiso
D6 D 0.841187 0.305106 0.467633 0.0654 Uiso
C13 C 0.800515 0.413259 0.545519 0.0925 Uiso
D7 D 0.773710 0.416728 0.587213 0.0654 Uiso
C14 C 0.800236 0.351577 0.536070 0.0925 Uiso
D8 D 0.773270 0.315394 0.571158 0.0654 Uiso
Zn1 Zn 0.93451 0.339 0.33107 0.0964 Uiso
N2G N 0.984844 0.351329 0.212187 0.0411 Uiso
N4M N 0.840639 0.252201 0.294530 0.0411 Uiso
Zn1C Zn 1.07116 0.39882 0.66440 0.0964 Uiso
Zn1L Zn 0.92884 0.60118 0.33560 0.0964 Uiso
loop_
_geom_bond_atom_site_label_1
_geom_bond_atom_site_label_2
_geom_bond_site_symmetry_1
_geom_bond_site_symmetry_2
N1 C1 1_555 1_555
C1 H1 1_555 1_555
N2 C1 1_555 1_555
C2 N1 1_555 1_555
C3 C2 1_555 1_555
D1 C3 1_555 1_555
C4 C3 1_555 1_555
D2 C4 1_555 1_555
C5 C4 1_555 1_555
D3 C5 1_555 1_555
C6 N2 1_555 1_555
C7 C5 1_555 1_555
D4 C7 1_555 1_555
N3 C8 1_555 1_555
C8 H2 1_555 1_555
N4 C8 1_555 1_555
C9 N4 1_555 1_555
C10 C9 1_555 1_555
D5 C10 1_555 1_555
C11 N3 1_555 1_555
C12 C11 1_555 1_555
D6 C12 1_555 1_555
C13 C10 1_555 1_555
D7 C13 1_555 1_555
C14 C12 1_555 1_555
D8 C14 1_555 1_555
Zn1 N1 1_555 1_555
N2G Zn1 1_555 1_555
N4M Zn1 1_555 1_555
Zn1C N2 1_555 1_555
Zn1L N4 1_555 1_555
C2 C6 1_555 1_555
C6 C7 1_555 1_555
N3 Zn1 1_555 1_555
C9 C11 1_555 1_555
C13 C14 1_555 1_555

#END
