
#######################################################################
#
#                 Cambridge Crystallographic Data Centre
#                                CCDC 
#
#######################################################################
#
# If this CIF has been generated from an entry in the Cambridge 
# Structural Database, then it will include bibliographic, chemical, 
# crystal, experimental, refinement or atomic coordinate data resulting 
# from the CCDC's data processing and validation procedures.
#
#######################################################################

data_PUYHOI
_chemical_formula_moiety         '(C24 H36 Gd2 Ni3 O36)n'
_symmetry_cell_setting           hexagonal
_symmetry_space_group_name_H-M   'P 6/m c c'
_symmetry_Int_Tables_number      192
_space_group_name_Hall           '-P 6 2c'
loop_
_symmetry_equiv_pos_site_id
_symmetry_equiv_pos_as_xyz
1 x,y,z
2 -y,x-y,z
3 -x+y,-x,z
4 -x,-y,z
5 y,-x+y,z
6 x-y,x,z
7 y,x,1/2-z
8 x-y,-y,1/2-z
9 -x,-x+y,1/2-z
10 -y,-x,1/2-z
11 -x+y,y,1/2-z
12 x,x-y,1/2-z
13 -x,-y,-z
14 y,-x+y,-z
15 x-y,x,-z
16 x,y,-z
17 -y,x-y,-z
18 -x+y,-x,-z
19 -y,-x,1/2+z
20 -x+y,y,1/2+z
21 x,x-y,1/2+z
22 y,x,1/2+z
23 x-y,-y,1/2+z
24 -x,-x+y,1/2+z
_cell_length_a                   14.3813(14)
_cell_length_b                   14.3813(14)
_cell_length_c                   15.7699(15)
_cell_angle_alpha                90
_cell_angle_beta                 90
_cell_angle_gamma                120
_cell_volume                     2824.59
loop_
_atom_site_label
_atom_site_type_symbol
_atom_site_fract_x
_atom_site_fract_y
_atom_site_fract_z
Gd1 Gd 0.6667 0.3333 0.2500
Ni1 Ni 1.0000 0.5000 0.0000
O1 O 0.8583(8) 0.5063(9) 0.0000
H1 H 0.8241 0.4710 0.0436
O2 O 0.9458(7) 0.3823(8) 0.0889(5)
C1 C 0.8685(9) 0.3487(9) 0.1380(6)
O3 O 0.8054(7) 0.3858(7) 0.1459(6)
O4 O 0.7659(7) 0.2341(7) 0.2500
C2 C 0.8490(11) 0.2564(12) 0.1918(9)
H2 H 0.8287 0.1927 0.1558
H3 H 0.9155 0.2733 0.2229
H1O H 0.8241 0.4710 -0.0436
O2I O 0.6177(8) 0.0542(7) 0.4111(5)
C1I C 0.6513(9) 0.1315(9) 0.3620(6)
O3I O 0.6142(7) 0.1946(7) 0.3541(6)
C2I C 0.7436(12) 0.1510(11) 0.3082(9)
H2I H 0.8073 0.1713 0.3442
H3I H 0.7267 0.0845 0.2771
Ni1A Ni 0.5000 0.5000 0.0000
O1A O 0.4937(9) 0.3520(12) 0.0000
H1A H 0.5290 0.3531 0.0436
O2A O 0.6177(8) 0.5635(11) 0.0889(5)
C1A C 0.6513(9) 0.5198(13) 0.1380(6)
O3A O 0.6142(7) 0.4196(10) 0.1459(6)
O4A O 0.7659(7) 0.5318(10) 0.2500
C2A C 0.7436(12) 0.5926(16) 0.1918(9)
H2A H 0.8073 0.6360 0.1558
H3A H 0.7267 0.6422 0.2229
H1P H 0.5290 0.3531 -0.0436
O2K O 0.9458(7) 0.5635(11) 0.4111(5)
C1K C 0.8685(9) 0.5198(13) 0.3620(6)
O3K O 0.8054(7) 0.4196(10) 0.3541(6)
C2K C 0.8490(11) 0.5926(16) 0.3082(9)
H2K H 0.8287 0.6360 0.3442
H3K H 0.9155 0.6422 0.2771
Ni1B Ni 0.5000 0.0000 0.0000
O1B O 0.6480(12) 0.1417(8) 0.0000
H1B H 0.6469 0.1759 0.0436
O2B O 0.4365(11) 0.0542(7) 0.0889(5)
C1B C 0.4802(13) 0.1315(9) 0.1380(6)
O3B O 0.5804(10) 0.1946(7) 0.1459(6)
O4B O 0.4682(10) 0.2341(7) 0.2500
C2B C 0.4074(16) 0.1510(11) 0.1918(9)
H2B H 0.3640 0.1713 0.1558
H3B H 0.3578 0.0845 0.2229
H1Q H 0.6469 0.1759 -0.0436
O2J O 0.4365(11) 0.3823(8) 0.4111(5)
C1J C 0.4802(13) 0.3487(9) 0.3620(6)
O3J O 0.5804(10) 0.3858(7) 0.3541(6)
C2J C 0.4074(16) 0.2564(12) 0.3082(9)
H2J H 0.3640 0.1927 0.3442
H3J H 0.3578 0.2733 0.2771
Gd1C Gd 1.3333 0.6667 0.2500
O1C O 1.1417(8) 0.4937(9) 0.0000
H1C H 1.1759 0.5290 0.0436
O2C O 1.0542(7) 0.6177(8) 0.0889(5)
C1C C 1.1315(9) 0.6513(9) 0.1380(6)
O3C O 1.1946(7) 0.6142(7) 0.1459(6)
O4C O 1.2341(7) 0.7659(7) 0.2500
C2C C 1.1510(11) 0.7436(12) 0.1918(9)
H2C H 1.1713 0.8073 0.1558
H3C H 1.0845 0.7267 0.2229
H1L H 1.1759 0.5290 -0.0436
O2F O 1.3823(8) 0.9458(7) 0.4111(5)
C1F C 1.3487(9) 0.8685(9) 0.3620(6)
O3F O 1.3858(7) 0.8054(7) 0.3541(6)
C2F C 1.2564(12) 0.8490(11) 0.3082(9)
H2F H 1.1927 0.8287 0.3442
H3F H 1.2733 0.9155 0.2771
O1D O 0.5063(9) 0.6480(12) 0.0000
H1D H 0.4710 0.6469 0.0436
O2D O 0.3823(8) 0.4365(11) 0.0889(5)
C1D C 0.3487(9) 0.4802(13) 0.1380(6)
O3D O 0.3858(7) 0.5804(10) 0.1459(6)
O4D O 0.2341(7) 0.4682(10) 0.2500
C2D C 0.2564(12) 0.4074(16) 0.1918(9)
H2D H 0.1927 0.3640 0.1558
H3D H 0.2733 0.3578 0.2229
H1M H 0.4710 0.6469 -0.0436
O2H O 0.0542(7) 0.4365(11) 0.4111(5)
C1H C 0.1315(9) 0.4802(13) 0.3620(6)
O3H O 0.1946(7) 0.5804(10) 0.3541(6)
C2H C 0.1510(11) 0.4074(16) 0.3082(9)
H2H H 0.1713 0.3640 0.3442
H3H H 0.0845 0.3578 0.2771
O1E O 0.3520(12) -0.1417(8) 0.0000
H1E H 0.3531 -0.1759 0.0436
O2E O 0.5635(11) -0.0542(7) 0.0889(5)
C1E C 0.5198(13) -0.1315(9) 0.1380(6)
O3E O 0.4196(10) -0.1946(7) 0.1459(6)
O4E O 0.5318(10) -0.2341(7) 0.2500
C2E C 0.5926(16) -0.1510(11) 0.1918(9)
H2E H 0.6360 -0.1713 0.1558
H3E H 0.6422 -0.0845 0.2229
H1N H 0.3531 -0.1759 -0.0436
O2G O 0.5635(11) -0.3823(8) 0.4111(5)
C1G C 0.5198(13) -0.3487(9) 0.3620(6)
O3G O 0.4196(10) -0.3858(7) 0.3541(6)
C2G C 0.5926(16) -0.2564(12) 0.3082(9)
H2G H 0.6360 -0.1927 0.3442
H3G H 0.6422 -0.2733 0.2771
Gd1C_2 Gd 0.3333 -0.3333 0.2500
Gd1C_3 Gd 0.3333 0.6667 0.2500
Ni1F Ni 0.5000 -0.0000 0.5000
Ni1F_2 Ni 1.5000 1.0000 0.5000
Ni1G Ni 0.5000 -0.5000 0.5000
Ni1G_2 Ni 0.5000 0.5000 0.5000
Ni1H Ni 0.0000 0.5000 0.5000
Ni1H_2 Ni 1.0000 0.5000 0.5000
O2L O 1.0542(7) 0.6177(8) -0.0889(5)
O2M O 0.3823(8) 0.4365(11) -0.0889(5)
O2N O 0.5635(11) -0.0542(7) -0.0889(5)
O2O O 0.9458(7) 0.3823(8) -0.0889(5)
O2P O 0.6177(8) 0.5635(11) -0.0889(5)
O2Q O 0.4365(11) 0.0542(7) -0.0889(5)
O3D_2 O 1.3858(7) 0.5804(10) 0.1459(6)
O3E_2 O 1.4196(10) 0.8054(7) 0.1459(6)
O3G_2 O 1.4196(10) 0.6142(7) 0.3541(6)
O3H_2 O 1.1946(7) 0.5804(10) 0.3541(6)
O4D_2 O 1.2341(7) 0.4682(10) 0.2500
O4E_2 O 1.5318(10) 0.7659(7) 0.2500
loop_
_geom_bond_atom_site_label_1
_geom_bond_atom_site_label_2
_geom_bond_site_symmetry_1
_geom_bond_site_symmetry_2
Gd1 O3 1_555 1_555
Ni1 O1 1_555 1_555
O1 H1 1_555 1_555
O2 Ni1 1_555 1_555
C1 O2 1_555 1_555
O3 C1 1_555 1_555
O4 Gd1 1_555 1_555
C2 C1 1_555 1_555
H2 C2 1_555 1_555
H3 C2 1_555 1_555
H1O O1 1_555 1_555
O2I C1I 1_555 1_555
C1I O3I 1_555 1_555
O3I Gd1 1_555 1_555
C2I O4 1_555 1_555
H2I C2I 1_555 1_555
H3I C2I 1_555 1_555
Ni1A O1A 1_555 1_555
O1A H1A 1_555 1_555
O2A Ni1A 1_555 1_555
C1A O2A 1_555 1_555
O3A Gd1 1_555 1_555
O4A Gd1 1_555 1_555
C2A C1A 1_555 1_555
H2A C2A 1_555 1_555
H3A C2A 1_555 1_555
H1P O1A 1_555 1_555
O2K C1K 1_555 1_555
C1K O3K 1_555 1_555
O3K Gd1 1_555 1_555
C2K O4A 1_555 1_555
H2K C2K 1_555 1_555
H3K C2K 1_555 1_555
Ni1B O1B 1_555 1_555
O1B H1B 1_555 1_555
O2B Ni1B 1_555 1_555
C1B O2B 1_555 1_555
O3B Gd1 1_555 1_555
O4B Gd1 1_555 1_555
C2B C1B 1_555 1_555
H2B C2B 1_555 1_555
H3B C2B 1_555 1_555
H1Q O1B 1_555 1_555
O2J C1J 1_555 1_555
C1J O3J 1_555 1_555
O3J Gd1 1_555 1_555
C2J O4B 1_555 1_555
H2J C2J 1_555 1_555
H3J C2J 1_555 1_555
Gd1C O3C 1_555 1_555
O1C Ni1 1_555 1_555
H1C O1C 1_555 1_555
O2C Ni1 1_555 1_555
C1C O2C 1_555 1_555
O3C C1C 1_555 1_555
O4C Gd1C 1_555 1_555
C2C C1C 1_555 1_555
H2C C2C 1_555 1_555
H3C C2C 1_555 1_555
H1L O1C 1_555 1_555
O2F C1F 1_555 1_555
C1F O3F 1_555 1_555
O3F Gd1C 1_555 1_555
C2F O4C 1_555 1_555
H2F C2F 1_555 1_555
H3F C2F 1_555 1_555
O1D Ni1A 1_555 1_555
H1D O1D 1_555 1_555
O2D Ni1A 1_555 1_555
C1D O2D 1_555 1_555
O3D C1D 1_555 1_555
O4D C2D 1_555 1_555
C2D C1D 1_555 1_555
H2D C2D 1_555 1_555
H3D C2D 1_555 1_555
H1M O1D 1_555 1_555
O2H C1H 1_555 1_555
C1H O3H 1_555 1_555
O3H Gd1C_3 1_555 1_555
C2H O4D 1_555 1_555
H2H C2H 1_555 1_555
H3H C2H 1_555 1_555
O1E Ni1B 1_555 1_555
H1E O1E 1_555 1_555
O2E Ni1B 1_555 1_555
C1E O2E 1_555 1_555
O3E C1E 1_555 1_555
O4E C2E 1_555 1_555
C2E C1E 1_555 1_555
H2E C2E 1_555 1_555
H3E C2E 1_555 1_555
H1N O1E 1_555 1_555
O2G C1G 1_555 1_555
C1G O3G 1_555 1_555
O3G Gd1C_2 1_555 1_555
C2G O4E 1_555 1_555
H2G C2G 1_555 1_555
H3G C2G 1_555 1_555
Gd1C_2 O3E 1_555 1_555
Gd1C_3 O3D 1_555 1_555
Ni1F O2I 1_555 1_555
Ni1F_2 O2F 1_555 1_555
Ni1G O2G 1_555 1_555
Ni1G_2 O2J 1_555 1_555
Ni1H O2H 1_555 1_555
Ni1H_2 O2K 1_555 1_555
O2L Ni1 1_555 1_555
O2M Ni1A 1_555 1_555
O2N Ni1B 1_555 1_555
O2O Ni1 1_555 1_555
O2P Ni1A 1_555 1_555
O2Q Ni1B 1_555 1_555
O3D_2 Gd1C 1_555 1_555
O3E_2 Gd1C 1_555 1_555
O3G_2 Gd1C 1_555 1_555
O3H_2 Gd1C 1_555 1_555
O4D_2 Gd1C 1_555 1_555
O4E_2 Gd1C 1_555 1_555
O4 C2 1_555 1_555
C1I C2I 1_555 1_555
C1A O3A 1_555 1_555
O4A C2A 1_555 1_555
C1K C2K 1_555 1_555
C1B O3B 1_555 1_555
O4B C2B 1_555 1_555
C1J C2J 1_555 1_555
O4C C2C 1_555 1_555
C1F C2F 1_555 1_555
O4D Gd1C_3 1_555 1_555
C1H C2H 1_555 1_555
O4E Gd1C_2 1_555 1_555
C1G C2G 1_555 1_555

#END
