
#######################################################################
#
#                 Cambridge Crystallographic Data Centre
#                                CCDC 
#
#######################################################################
#
# If this CIF has been generated from an entry in the Cambridge 
# Structural Database, then it will include bibliographic, chemical, 
# crystal, experimental, refinement or atomic coordinate data resulting 
# from the CCDC's data processing and validation procedures.
#
#######################################################################

data_LAQZOV
_chemical_formula_moiety         '(C22 H18 Ce2 N2 O18)n'
_symmetry_cell_setting           monoclinic
_symmetry_space_group_name_H-M   'C 2/c'
_symmetry_Int_Tables_number      15
_space_group_name_Hall           '-C 2yc'
loop_
_symmetry_equiv_pos_site_id
_symmetry_equiv_pos_as_xyz
1 x,y,z
2 -x,y,1/2-z
3 1/2+x,1/2+y,z
4 1/2-x,1/2+y,1/2-z
5 -x,-y,-z
6 x,-y,1/2+z
7 1/2-x,1/2-y,-z
8 1/2+x,1/2-y,1/2+z
_cell_length_a                   25.5147(15)
_cell_length_b                   13.4137(8)
_cell_length_c                   14.6329(9)
_cell_angle_alpha                90
_cell_angle_beta                 101.9661(9)
_cell_angle_gamma                90
_cell_volume                     4899.24
loop_
_atom_site_label
_atom_site_type_symbol
_atom_site_fract_x
_atom_site_fract_y
_atom_site_fract_z
_atom_site_U_iso_or_equiv
_atom_site_thermal_displace_type
Ce1 Ce 0.32595(2) 0.30895(3) 0.54866(3) 0.0276 Uani
O1 O 0.2238(3) 0.3468(5) 0.4479(5) 0.0414 Uani
O2 O 0.2891(3) 0.4507(5) 0.4429(5) 0.0468 Uani
O3 O 0.2628(3) 0.6444(6) 0.1451(5) 0.0502 Uani
O4 O 0.1871(3) 0.7293(5) 0.1056(5) 0.0467 Uani
O5 O 0.4099(5) 0.3447(9) 0.4767(8) 0.0959 Uani
O6 O 0.4117(5) 0.2008(10) 0.5395(9) 0.1038 Uani
O7 O 0.4718(5) 0.2335(13) 0.4638(11) 0.1424 Uani
O8 O 0.3720(3) 0.4558(6) 0.6250(6) 0.0736 Uani
H1 H 0.4004 0.4649 0.6059 0.1100 Uiso
H2 H 0.3521 0.5060 0.6124 0.1100 Uiso
O9 O 0.3670(4) 0.2562(7) 0.7097(6) 0.0836 Uani
H3 H 0.3967 0.2291 0.7100 0.1250 Uiso
H4 H 0.3714 0.3056 0.7456 0.1250 Uiso
N1 N 0.4314(5) 0.2594(14) 0.4941(10) 0.0852 Uani
C1 C 0.2420(4) 0.4256(7) 0.4179(6) 0.0345 Uani
C2 C 0.2044(4) 0.4866(7) 0.3477(6) 0.0374 Uani
C3 C 0.2263(4) 0.5483(7) 0.2881(7) 0.0394 Uani
H5 H 0.2632 0.5532 0.2950 0.0480 Uiso
C4 C 0.1927(4) 0.6026(7) 0.2183(7) 0.0421 Uani
C5 C 0.1376(4) 0.5967(7) 0.2107(7) 0.0389 Uani
H6 H 0.1154 0.6341 0.1650 0.0470 Uiso
C6 C 0.1148(4) 0.5373(7) 0.2687(7) 0.0374 Uani
C7 C 0.1495(3) 0.4825(7) 0.3398(7) 0.0361 Uani
H7 H 0.1351 0.4437 0.3812 0.0430 Uiso
C8 C 0.2157(4) 0.6635(7) 0.1515(7) 0.0375 Uani
C9 C 0.0559(4) 0.5344(7) 0.2606(7) 0.0388 Uani
C10 C 0.0330(4) 0.5323(8) 0.3371(7) 0.0447 Uani
H8 H 0.0546 0.5308 0.3967 0.0540 Uiso
C11 C -0.0224(4) 0.5325(10) 0.3261(8) 0.0593 Uani
H9 H -0.0373 0.5313 0.3789 0.0720 Uiso
O1A O -0.2238(3) 0.3468(5) 0.0521(5) 0.0414 Uani
O2A O -0.2891(3) 0.4507(5) 0.0571(5) 0.0468 Uani
O3A O -0.2628(3) 0.6444(6) 0.3549(5) 0.0502 Uani
O4A O -0.1871(3) 0.7293(5) 0.3944(5) 0.0467 Uani
C1A C -0.2420(4) 0.4256(7) 0.0821(6) 0.0345 Uani
C2A C -0.2044(4) 0.4866(7) 0.1523(6) 0.0374 Uani
C3A C -0.2263(4) 0.5483(7) 0.2119(7) 0.0394 Uani
H5A H -0.2632 0.5532 0.2050 0.0480 Uiso
C4A C -0.1927(4) 0.6026(7) 0.2817(7) 0.0421 Uani
C5A C -0.1376(4) 0.5967(7) 0.2893(7) 0.0389 Uani
H6A H -0.1154 0.6341 0.3350 0.0470 Uiso
C6A C -0.1148(4) 0.5373(7) 0.2313(7) 0.0374 Uani
C7A C -0.1495(3) 0.4825(7) 0.1602(7) 0.0361 Uani
H7A H -0.1351 0.4437 0.1188 0.0430 Uiso
C8A C -0.2157(4) 0.6635(7) 0.3485(7) 0.0375 Uani
C9A C -0.0559(4) 0.5344(7) 0.2394(7) 0.0388 Uani
C10A C -0.0330(4) 0.5323(8) 0.1629(7) 0.0447 Uani
H8A H -0.0546 0.5308 0.1033 0.0540 Uiso
C11A C 0.0224(4) 0.5325(10) 0.1739(8) 0.0593 Uani
H9A H 0.0373 0.5313 0.1211 0.0720 Uiso
Ce1A Ce -0.32595(2) 0.30895(3) -0.04866(3) 0.0276 Uani
O5A O -0.4099(5) 0.3447(9) 0.0233(8) 0.0959 Uani
O6A O -0.4117(5) 0.2008(10) -0.0395(9) 0.1038 Uani
O7A O -0.4718(5) 0.2335(13) 0.0362(11) 0.1424 Uani
O8A O -0.3720(3) 0.4558(6) -0.1250(6) 0.0736 Uani
H1A H -0.4004 0.4649 -0.1059 0.1100 Uiso
H2A H -0.3521 0.5060 -0.1124 0.1100 Uiso
O9A O -0.3670(4) 0.2562(7) -0.2097(6) 0.0836 Uani
H3A H -0.3967 0.2291 -0.2100 0.1250 Uiso
H4A H -0.3714 0.3056 -0.2456 0.1250 Uiso
N1A N -0.4314(5) 0.2594(14) 0.0059(10) 0.0852 Uani
Ce1B Ce -0.17405(2) 0.80895(3) 0.54866(3) 0.0276 Uani
Ce1C Ce 0.17405(2) 0.80895(3) -0.04866(3) 0.0276 Uani
Ce1D Ce -0.32595(2) 0.69105(3) 0.45134(3) 0.0276 Uani
Ce1E Ce 0.32595(2) 0.69105(3) 0.04866(3) 0.0276 Uani
Ce1F Ce 0.17405(2) 0.19105(3) 0.45134(3) 0.0276 Uani
Ce1G Ce -0.17405(2) 0.19105(3) 0.04866(3) 0.0276 Uani
O1F O 0.2762(3) 0.1532(5) 0.5521(5) 0.0414 Uani
O1G O -0.2762(3) 0.1532(5) -0.0521(5) 0.0414 Uani
O3D O -0.2628(3) 0.3556(6) -0.1451(5) 0.0502 Uani
O3E O 0.2628(3) 0.3556(6) 0.6451(5) 0.0502 Uani
O4B O -0.3129(3) 0.2293(5) 0.1056(5) 0.0467 Uani
O4C O 0.3129(3) 0.2293(5) 0.3944(5) 0.0467 Uani
loop_
_atom_site_aniso_label
_atom_site_aniso_U_11
_atom_site_aniso_U_22
_atom_site_aniso_U_33
_atom_site_aniso_U_23
_atom_site_aniso_U_13
_atom_site_aniso_U_12
Ce1 0.0220(3) 0.0325(3) 0.0280(3) -0.0012(2) 0.0042(2) 0.0003(2)
O1 0.047(4) 0.029(3) 0.047(4) 0.009(3) 0.007(3) 0.000(3)
O2 0.025(4) 0.047(4) 0.063(5) 0.025(3) -0.003(3) 0.002(3)
O3 0.033(4) 0.070(5) 0.048(4) 0.028(4) 0.009(3) 0.010(4)
O4 0.044(4) 0.049(4) 0.049(4) 0.020(3) 0.014(3) 0.008(3)
O5 0.100(8) 0.084(7) 0.129(9) -0.042(7) 0.082(8) -0.047(7)
O6 0.071(7) 0.145(11) 0.101(9) 0.042(8) 0.031(7) 0.052(7)
O7 0.076(8) 0.207(14) 0.161(13) -0.064(12) 0.063(9) 0.011(9)
O8 0.067(6) 0.075(6) 0.082(6) -0.020(5) 0.023(5) -0.019(5)
O9 0.093(7) 0.091(7) 0.057(5) 0.009(5) -0.007(5) 0.026(6)
N1 0.051(8) 0.121(12) 0.085(10) -0.043(9) 0.017(7) -0.011(8)
C1 0.034(6) 0.033(5) 0.038(5) 0.015(4) 0.011(4) 0.016(4)
C2 0.033(5) 0.041(5) 0.039(5) 0.013(4) 0.009(4) 0.004(4)
C3 0.021(5) 0.057(6) 0.041(5) 0.010(5) 0.008(4) -0.002(4)
C4 0.035(6) 0.049(6) 0.041(5) 0.015(4) 0.005(4) 0.005(4)
C5 0.026(5) 0.046(6) 0.043(5) 0.016(4) 0.003(4) 0.010(4)
C6 0.034(5) 0.034(5) 0.047(6) 0.012(4) 0.015(4) 0.008(4)
C7 0.027(5) 0.042(5) 0.043(5) 0.003(4) 0.016(4) -0.004(4)
C8 0.020(5) 0.055(6) 0.038(5) 0.013(4) 0.007(4) -0.004(4)
C9 0.032(5) 0.039(5) 0.048(6) 0.007(4) 0.014(4) 0.002(4)
C10 0.031(6) 0.059(6) 0.043(5) -0.007(5) 0.005(4) -0.003(5)
C11 0.029(6) 0.106(10) 0.047(6) -0.022(6) 0.017(5) -0.003(6)
O1A 0.047 0.029 0.047 -0.009 0.007 0
O2A 0.025 0.047 0.063 -0.025 -0.003 -0.002
O3A 0.033 0.07 0.048 -0.028 0.009 -0.01
O4A 0.044 0.049 0.049 -0.02 0.014 -0.008
C1A 0.034 0.033 0.038 -0.015 0.011 -0.016
C2A 0.033 0.041 0.039 -0.013 0.009 -0.004
C3A 0.021 0.057 0.041 -0.01 0.008 0.002
C4A 0.035 0.049 0.041 -0.015 0.005 -0.005
C5A 0.026 0.046 0.043 -0.016 0.003 -0.01
C6A 0.034 0.034 0.047 -0.012 0.015 -0.008
C7A 0.027 0.042 0.043 -0.003 0.016 0.004
C8A 0.02 0.055 0.038 -0.013 0.007 0.004
C9A 0.032 0.039 0.048 -0.007 0.014 -0.002
C10A 0.031 0.059 0.043 0.007 0.005 0.003
C11A 0.029 0.106 0.047 0.022 0.017 0.003
Ce1A 0.022 0.0325 0.028 0.0012 0.0042 -0.0003
O5A 0.1 0.084 0.129 0.042 0.082 0.047
O6A 0.071 0.145 0.101 -0.042 0.031 -0.052
O7A 0.076 0.207 0.161 0.064 0.063 -0.011
O8A 0.067 0.075 0.082 0.02 0.023 0.019
O9A 0.093 0.091 0.057 -0.009 -0.007 -0.026
N1A 0.051 0.121 0.085 0.043 0.017 0.011
Ce1B 0.022 0.0325 0.028 -0.0012 0.0042 0.0003
Ce1C 0.022 0.0325 0.028 0.0012 0.0042 -0.0003
Ce1D 0.022 0.0325 0.028 -0.0012 0.0042 0.0003
Ce1E 0.022 0.0325 0.028 0.0012 0.0042 -0.0003
Ce1F 0.022 0.0325 0.028 -0.0012 0.0042 0.0003
Ce1G 0.022 0.0325 0.028 0.0012 0.0042 -0.0003
O1F 0.047 0.029 0.047 0.009 0.007 0
O1G 0.047 0.029 0.047 -0.009 0.007 0
O3D 0.033 0.07 0.048 0.028 0.009 0.01
O3E 0.033 0.07 0.048 -0.028 0.009 -0.01
O4B 0.044 0.049 0.049 0.02 0.014 0.008
O4C 0.044 0.049 0.049 -0.02 0.014 -0.008
loop_
_geom_bond_atom_site_label_1
_geom_bond_atom_site_label_2
_geom_bond_site_symmetry_1
_geom_bond_site_symmetry_2
Ce1 O1 1_555 1_555
O1 C1 1_555 1_555
O2 Ce1 1_555 1_555
O3 C8 1_555 1_555
O4 C8 1_555 1_555
O5 Ce1 1_555 1_555
O6 Ce1 1_555 1_555
O7 N1 1_555 1_555
O8 Ce1 1_555 1_555
H1 O8 1_555 1_555
H2 O8 1_555 1_555
O9 Ce1 1_555 1_555
H3 O9 1_555 1_555
H4 O9 1_555 1_555
N1 O5 1_555 1_555
C1 O2 1_555 1_555
C2 C1 1_555 1_555
C3 C2 1_555 1_555
H5 C3 1_555 1_555
C4 C3 1_555 1_555
C5 C4 1_555 1_555
H6 C5 1_555 1_555
C6 C5 1_555 1_555
C7 C2 1_555 1_555
H7 C7 1_555 1_555
C8 C4 1_555 1_555
C9 C6 1_555 1_555
C10 C9 1_555 1_555
H8 C10 1_555 1_555
C11 C10 1_555 1_555
H9 C11 1_555 1_555
O1A C1A 1_555 1_555
O2A C1A 1_555 1_555
O3A C8A 1_555 1_555
O4A C8A 1_555 1_555
C1A C2A 1_555 1_555
C2A C3A 1_555 1_555
C3A H5A 1_555 1_555
C4A C3A 1_555 1_555
C5A C4A 1_555 1_555
H6A C5A 1_555 1_555
C6A C5A 1_555 1_555
C7A C2A 1_555 1_555
H7A C7A 1_555 1_555
C8A C4A 1_555 1_555
C9A C11 1_555 1_555
C10A C9A 1_555 1_555
H8A C10A 1_555 1_555
C11A C9 1_555 1_555
H9A C11A 1_555 1_555
Ce1A O1A 1_555 1_555
O5A Ce1A 1_555 1_555
O6A Ce1A 1_555 1_555
O7A N1A 1_555 1_555
O8A Ce1A 1_555 1_555
H1A O8A 1_555 1_555
H2A O8A 1_555 1_555
O9A Ce1A 1_555 1_555
H3A O9A 1_555 1_555
H4A O9A 1_555 1_555
N1A O5A 1_555 1_555
Ce1B O4A 1_555 1_555
Ce1C O4 1_555 1_555
Ce1D O3A 1_555 1_555
Ce1E O3 1_555 1_555
Ce1F O1 1_555 1_555
Ce1G O1A 1_555 1_555
O1F Ce1 1_555 1_555
O1G Ce1A 1_555 1_555
O3D Ce1A 1_555 1_555
O3E Ce1 1_555 1_555
O4B Ce1A 1_555 1_555
O4C Ce1 1_555 1_555
O6 N1 1_555 1_555
C6 C7 1_555 1_555
O2A Ce1A 1_555 1_555
C6A C7A 1_555 1_555
C6A C9A 1_555 1_555
C10A C11A 1_555 1_555
O6A N1A 1_555 1_555
Ce1F O1F 1_555 1_555
Ce1G O1G 1_555 1_555

#END
