
#######################################################################
#
#                 Cambridge Crystallographic Data Centre
#                                CCDC 
#
#######################################################################
#
# If this CIF has been generated from an entry in the Cambridge 
# Structural Database, then it will include bibliographic, chemical, 
# crystal, experimental, refinement or atomic coordinate data resulting 
# from the CCDC's data processing and validation procedures.
#
#######################################################################

data_QOTWON
_chemical_formula_moiety         '(C18 H32 Mn5 O19)n'
_symmetry_cell_setting           tetragonal
_symmetry_space_group_name_H-M   'I 41/a'
_symmetry_Int_Tables_number      88
_space_group_name_Hall           '-I 4ad'
loop_
_symmetry_equiv_pos_site_id
_symmetry_equiv_pos_as_xyz
1 x,y,z
2 1/2-x,-y,1/2+z
3 3/4-y,1/4+x,1/4+z
4 3/4+y,3/4-x,3/4+z
5 1/2+x,1/2+y,1/2+z
6 -x,1/2-y,z
7 1/4-y,3/4+x,3/4+z
8 1/4+y,1/4-x,1/4+z
9 -x,-y,-z
10 1/2+x,y,1/2-z
11 1/4+y,3/4-x,3/4-z
12 1/4-y,1/4+x,1/4-z
13 1/2-x,1/2-y,1/2-z
14 x,1/2+y,-z
15 3/4+y,1/4-x,1/4-z
16 3/4-y,3/4+x,3/4-z
_cell_length_a                   24.0204(2)
_cell_length_b                   24.0204(2)
_cell_length_c                   12.7228(2)
_cell_angle_alpha                90
_cell_angle_beta                 90
_cell_angle_gamma                90
_cell_volume                     7340.8
loop_
_atom_site_label
_atom_site_type_symbol
_atom_site_fract_x
_atom_site_fract_y
_atom_site_fract_z
_atom_site_U_iso_or_equiv
_atom_site_thermal_displace_type
Mn1 Mn 0.267944(16) 0.049636(16) 0.46969(3) 0.0170 Uani
Mn2 Mn 0.290758(16) 0.117161(16) 0.25595(3) 0.0158 Uani
Mn3 Mn 0.2500 0.2500 0.2500 0.0173 Uani
O1 O 0.22615(7) 0.07441(7) 0.33364(14) 0.0166 Uani
H1 H 0.1990 0.0959 0.3458 0.0250 Uiso
O2 O 0.27235(9) 0.13777(8) 0.51097(15) 0.0241 Uani
O3 O 0.28125(8) 0.18957(7) 0.36614(15) 0.0202 Uani
C1 C 0.27343(12) 0.18321(11) 0.4656(2) 0.0222 Uani
C2 C 0.26522(19) 0.23462(13) 0.5308(3) 0.0430 Uani
H2 H 0.2420 0.2257 0.5918 0.0650 Uiso
H3 H 0.2469 0.2633 0.4884 0.0650 Uiso
H4 H 0.3015 0.2484 0.5548 0.0650 Uiso
O4 O 0.34808(7) 0.07367(8) 0.36532(15) 0.0204 Uani
O5 O 0.41988(7) 0.02608(8) 0.42805(15) 0.0191 Uani
C3 C 0.39879(11) 0.07019(11) 0.3889(2) 0.0184 Uani
C4 C 0.43583(13) 0.11991(13) 0.3700(3) 0.0346 Uani
H5 H 0.4327 0.1316 0.2964 0.0520 Uiso
H6 H 0.4745 0.1099 0.3854 0.0520 Uiso
H7 H 0.4243 0.1506 0.4159 0.0520 Uiso
O6 O 0.30596(8) -0.02803(9) 0.05090(18) 0.0287 Uani
O7 O 0.28617(8) 0.04179(8) 0.15878(15) 0.0207 Uani
C5 C 0.31976(12) 0.01202(12) 0.1066(2) 0.0250 Uani
C6 C 0.38067(15) 0.02455(19) 0.1142(5) 0.0744 Uani
H8 H 0.3966 0.0047 0.1744 0.1120 Uiso
H9 H 0.3860 0.0647 0.1235 0.1120 Uiso
H10 H 0.3993 0.0125 0.0496 0.1120 Uiso
O8 O 0.35411(8) 0.15689(8) 0.17058(17) 0.0257 Uani
O9 O 0.32818(8) 0.24605(8) 0.16405(17) 0.0260 Uani
C7 C 0.36237(12) 0.20695(12) 0.1486(2) 0.0258 Uani
C8 C 0.41832(16) 0.22125(15) 0.1014(4) 0.0580 Uani
H11 H 0.4416 0.1878 0.0989 0.0870 Uiso
H12 H 0.4366 0.2496 0.1447 0.0870 Uiso
H13 H 0.4130 0.2356 0.0300 0.0870 Uiso
Mn1J Mn 0.299636(16) 0.482056(16) 0.28031(3) 0.0170 Uani
Mn2J Mn 0.367161(16) 0.459242(16) 0.49405(3) 0.0158 Uani
O1J O 0.32441(7) 0.52385(7) 0.41636(14) 0.0166 Uani
H1J H 0.3459 0.5510 0.4042 0.0250 Uiso
O2J O 0.38777(8) 0.47765(9) 0.23903(15) 0.0241 Uani
O3J O 0.43957(7) 0.46875(8) 0.38386(15) 0.0202 Uani
C1J C 0.43321(11) 0.47657(12) 0.2844(2) 0.0222 Uani
C2J C 0.48462(13) 0.48478(19) 0.2192(3) 0.0430 Uani
H2J H 0.4757 0.5080 0.1582 0.0650 Uiso
H3J H 0.5133 0.5031 0.2616 0.0650 Uiso
H4J H 0.4984 0.4485 0.1952 0.0650 Uiso
O4J O 0.32367(8) 0.40192(7) 0.38468(15) 0.0204 Uani
O5J O 0.27608(8) 0.33012(7) 0.32195(15) 0.0191 Uani
C3J C 0.32019(11) 0.35121(11) 0.3611(2) 0.0184 Uani
C4J C 0.36991(13) 0.31417(13) 0.3800(3) 0.0346 Uani
H5J H 0.3816 0.3173 0.4536 0.0520 Uiso
H6J H 0.3599 0.2755 0.3646 0.0520 Uiso
H7J H 0.4006 0.3257 0.3341 0.0520 Uiso
O6J O 0.22197(9) 0.44404(8) 0.69910(18) 0.0287 Uani
O7J O 0.29179(8) 0.46383(8) 0.59122(15) 0.0207 Uani
C5J C 0.26202(12) 0.43024(12) 0.6434(2) 0.0250 Uani
C6J C 0.27455(19) 0.36933(15) 0.6358(5) 0.0744 Uani
H8J H 0.2547 0.3534 0.5756 0.1120 Uiso
H9J H 0.3147 0.3640 0.6265 0.1120 Uiso
H10J H 0.2625 0.3507 0.7004 0.1120 Uiso
O8J O 0.40689(8) 0.39589(8) 0.57942(17) 0.0257 Uani
O9J O 0.49605(8) 0.42182(8) 0.58595(17) 0.0260 Uani
C7J C 0.45695(12) 0.38763(12) 0.6014(2) 0.0258 Uani
C8J C 0.47125(15) 0.33168(16) 0.6486(4) 0.0580 Uani
H11J H 0.4378 0.3084 0.6511 0.0870 Uiso
H12J H 0.4996 0.3134 0.6053 0.0870 Uiso
H13J H 0.4856 0.3370 0.7200 0.0870 Uiso
Mn1A Mn 0.232056(16) -0.049636(16) -0.03031(3) 0.0170 Uani
Mn1F Mn 0.200364(16) 0.017944(16) 0.21969(3) 0.0170 Uani
Mn1K Mn 0.200364(16) 0.517944(16) 0.78031(3) 0.0170 Uani
Mn1M Mn 0.267944(16) 0.549636(16) 0.53031(3) 0.0170 Uani
Mn2G Mn 0.367161(16) -0.040758(16) 0.50595(3) 0.0158 Uani
Mn2L Mn 0.209242(16) 0.382839(16) 0.24405(3) 0.0158 Uani
Mn3B Mn 0.5000 0.5000 0.5000 0.0173 Uani
Mn3G Mn 0.5000 0.0000 0.5000 0.0173 Uani
O1G O 0.32441(7) 0.02385(7) 0.58364(14) 0.0166 Uani
O1L O 0.27385(7) 0.42559(7) 0.16636(14) 0.0166 Uani
O3L O 0.21875(8) 0.31043(7) 0.13386(15) 0.0202 Uani
O5F O 0.22392(8) 0.16988(7) 0.17805(15) 0.0191 Uani
O5M O 0.41988(7) 0.52608(8) 0.57195(15) 0.0191 Uani
O6A O 0.19404(8) 0.02803(9) 0.55090(18) 0.0287 Uani
O6K O 0.27803(9) 0.55596(8) 0.19910(18) 0.0287 Uani
O7G O 0.29179(8) -0.03617(8) 0.40878(15) 0.0207 Uani
O7L O 0.21383(8) 0.45821(8) 0.34122(15) 0.0207 Uani
O9L O 0.17182(8) 0.25395(8) 0.33595(17) 0.0260 Uani
O10 O 0.13940(11) 0.14508(9) 0.3802(2) 0.0461 Uani
H14 H 0.1439 0.1798 0.3799 0.0690 Uiso
C9 C 0.1030(3) 0.1299(2) 0.4646(5) 0.0930 Uani
H15 H 0.0966 0.0893 0.4609 0.1120 Uiso
H16 H 0.0667 0.1483 0.4525 0.1120 Uiso
C10 C 0.1209(3) 0.1432(3) 0.5699(6) 0.1233 Uani
H17 H 0.1574 0.1264 0.5830 0.1850 Uiso
H18 H 0.0938 0.1285 0.6205 0.1850 Uiso
H19 H 0.1235 0.1837 0.5778 0.1850 Uiso
loop_
_atom_site_aniso_label
_atom_site_aniso_U_11
_atom_site_aniso_U_22
_atom_site_aniso_U_33
_atom_site_aniso_U_23
_atom_site_aniso_U_13
_atom_site_aniso_U_12
Mn1 0.0163(2) 0.0157(2) 0.0191(2) 0.00336(16) -0.00128(16) 0.00058(15)
Mn2 0.0162(2) 0.01222(19) 0.0190(2) 0.00089(15) -0.00127(16) 0.00013(15)
Mn3 0.0200(3) 0.0111(3) 0.0208(3) 0.0003(2) -0.0023(2) 0.0000(2)
O1 0.0147(8) 0.0149(9) 0.0202(9) 0.0004(7) -0.0016(7) 0.0022(7)
O2 0.0348(11) 0.0155(9) 0.0219(10) 0.0017(8) -0.0032(9) -0.0001(8)
O3 0.0266(10) 0.0149(9) 0.0190(10) -0.0005(7) -0.0035(8) 0.0004(8)
C1 0.0245(14) 0.0197(13) 0.0223(14) -0.0035(11) -0.0055(12) -0.0008(11)
C2 0.082(3) 0.0226(16) 0.0244(17) -0.0043(13) -0.0009(18) 0.0011(17)
O4 0.0151(9) 0.0221(10) 0.0239(10) 0.0070(8) -0.0018(8) -0.0001(7)
O5 0.0133(9) 0.0213(9) 0.0228(10) 0.0067(8) 0.0006(7) 0.0005(7)
C3 0.0181(13) 0.0202(13) 0.0168(13) 0.0037(11) 0.0003(10) -0.0013(10)
C4 0.0255(15) 0.0282(16) 0.050(2) 0.0158(15) -0.0070(15) -0.0105(13)
O6 0.0196(10) 0.0291(11) 0.0373(13) -0.0156(10) -0.0043(9) 0.0032(8)
O7 0.0182(9) 0.0176(9) 0.0263(10) -0.0048(8) 0.0012(8) 0.0010(7)
C5 0.0176(13) 0.0251(14) 0.0324(16) -0.0098(13) -0.0023(12) 0.0017(11)
C6 0.0202(17) 0.071(3) 0.132(4) -0.068(3) 0.004(2) -0.0029(18)
O8 0.0267(10) 0.0193(10) 0.0310(11) 0.0044(9) 0.0060(9) 0.0002(8)
O9 0.0263(10) 0.0186(10) 0.0332(12) 0.0018(9) 0.0052(9) 0.0012(8)
C7 0.0257(15) 0.0243(15) 0.0274(15) 0.0034(12) 0.0035(12) -0.0008(12)
C8 0.039(2) 0.0319(19) 0.103(4) 0.016(2) 0.034(2) 0.0034(16)
Mn1J 0.0157 0.0163 0.0191 -0.00128 -0.00336 -0.00058
Mn2J 0.01222 0.0162 0.019 -0.00127 -0.00089 -0.00013
O1J 0.0149 0.0147 0.0202 -0.0016 -0.0004 -0.0022
O2J 0.0155 0.0348 0.0219 -0.0032 -0.0017 0.0001
O3J 0.0149 0.0266 0.019 -0.0035 0.0005 -0.0004
C1J 0.0197 0.0245 0.0223 -0.0055 0.0035 0.0008
C2J 0.0226 0.082 0.0244 -0.0009 0.0043 -0.0011
O4J 0.0221 0.0151 0.0239 -0.0018 -0.007 0.0001
O5J 0.0213 0.0133 0.0228 0.0006 -0.0067 -0.0005
C3J 0.0202 0.0181 0.0168 0.0003 -0.0037 0.0013
C4J 0.0282 0.0255 0.05 -0.007 -0.0158 0.0105
O6J 0.0291 0.0196 0.0373 -0.0043 0.0156 -0.0032
O7J 0.0176 0.0182 0.0263 0.0012 0.0048 -0.001
C5J 0.0251 0.0176 0.0324 -0.0023 0.0098 -0.0017
C6J 0.071 0.0202 0.132 0.004 0.068 0.0029
O8J 0.0193 0.0267 0.031 0.006 -0.0044 -0.0002
O9J 0.0186 0.0263 0.0332 0.0052 -0.0018 -0.0012
C7J 0.0243 0.0257 0.0274 0.0035 -0.0034 0.0008
C8J 0.0319 0.039 0.103 0.034 -0.016 -0.0034
Mn1A 0.0163 0.0157 0.0191 -0.00336 0.00128 0.00058
Mn1F 0.0157 0.0163 0.0191 -0.00128 -0.00336 -0.00058
Mn1K 0.0157 0.0163 0.0191 0.00128 0.00336 -0.00058
Mn1M 0.0163 0.0157 0.0191 -0.00336 0.00128 0.00058
Mn2G 0.01222 0.0162 0.019 0.00127 0.00089 -0.00013
Mn2L 0.0162 0.01222 0.019 0.00089 -0.00127 0.00013
Mn3B 0.0111 0.02 0.0208 -0.0023 -0.0003 0
Mn3G 0.0111 0.02 0.0208 0.0023 0.0003 0
O1G 0.0149 0.0147 0.0202 0.0016 0.0004 -0.0022
O1L 0.0147 0.0149 0.0202 0.0004 -0.0016 0.0022
O3L 0.0266 0.0149 0.019 -0.0005 -0.0035 0.0004
O5F 0.0213 0.0133 0.0228 0.0006 -0.0067 -0.0005
O5M 0.0133 0.0213 0.0228 -0.0067 -0.0006 0.0005
O6A 0.0196 0.0291 0.0373 0.0156 0.0043 0.0032
O6K 0.0291 0.0196 0.0373 0.0043 -0.0156 -0.0032
O7G 0.0176 0.0182 0.0263 -0.0012 -0.0048 -0.001
O7L 0.0182 0.0176 0.0263 -0.0048 0.0012 0.001
O9L 0.0263 0.0186 0.0332 0.0018 0.0052 0.0012
O10 0.0412(14) 0.0233(11) 0.0738(19) 0.0082(12) 0.0199(13) 0.0046(11)
C9 0.091(4) 0.067(3) 0.121(5) 0.034(4) 0.054(4) 0.026(3)
C10 0.141(7) 0.146(7) 0.083(5) -0.008(5) 0.031(5) 0.043(5)
loop_
_geom_bond_atom_site_label_1
_geom_bond_atom_site_label_2
_geom_bond_site_symmetry_1
_geom_bond_site_symmetry_2
Mn1 O1 1_555 1_555
Mn2 O1 1_555 1_555
Mn3 O3 1_555 1_555
O1 H1 1_555 1_555
O2 Mn1 1_555 1_555
O3 Mn2 1_555 1_555
C1 O2 1_555 1_555
C2 C1 1_555 1_555
H2 C2 1_555 1_555
H3 C2 1_555 1_555
H4 C2 1_555 1_555
O4 Mn1 1_555 1_555
O5 C3 1_555 1_555
C3 O4 1_555 1_555
C4 C3 1_555 1_555
H5 C4 1_555 1_555
H6 C4 1_555 1_555
H7 C4 1_555 1_555
O6 C5 1_555 1_555
O7 Mn2 1_555 1_555
C5 O7 1_555 1_555
C6 C5 1_555 1_555
H8 C6 1_555 1_555
H9 C6 1_555 1_555
H10 C6 1_555 1_555
O8 Mn2 1_555 1_555
O9 Mn3 1_555 1_555
C7 O8 1_555 1_555
C8 C7 1_555 1_555
H11 C8 1_555 1_555
H12 C8 1_555 1_555
H13 C8 1_555 1_555
O10 H14 1_555 1_555
C9 O10 1_555 1_555
H15 C9 1_555 1_555
H16 C9 1_555 1_555
C10 C9 1_555 1_555
H17 C10 1_555 1_555
H18 C10 1_555 1_555
H19 C10 1_555 1_555
Mn1J O1J 1_555 1_555
Mn2J O1J 1_555 1_555
O1J H1J 1_555 1_555
O2J Mn1J 1_555 1_555
O3J Mn2J 1_555 1_555
C1J O2J 1_555 1_555
C2J C1J 1_555 1_555
H2J C2J 1_555 1_555
H3J C2J 1_555 1_555
H4J C2J 1_555 1_555
O4J Mn1J 1_555 1_555
O5J Mn3 1_555 1_555
C3J O4J 1_555 1_555
C4J C3J 1_555 1_555
H5J C4J 1_555 1_555
H6J C4J 1_555 1_555
H7J C4J 1_555 1_555
O6J C5J 1_555 1_555
O7J Mn2J 1_555 1_555
C5J O7J 1_555 1_555
C6J C5J 1_555 1_555
H8J C6J 1_555 1_555
H9J C6J 1_555 1_555
H10J C6J 1_555 1_555
O8J Mn2J 1_555 1_555
O9J C7J 1_555 1_555
C7J O8J 1_555 1_555
C8J C7J 1_555 1_555
H11J C8J 1_555 1_555
H12J C8J 1_555 1_555
H13J C8J 1_555 1_555
Mn1A O6 1_555 1_555
Mn1F O1 1_555 1_555
Mn1K O6J 1_555 1_555
Mn1M O1J 1_555 1_555
Mn2G O5 1_555 1_555
Mn2L O5J 1_555 1_555
Mn3B O3J 1_555 1_555
Mn3G O5 1_555 1_555
O1G Mn1 1_555 1_555
O1L Mn1J 1_555 1_555
O3L Mn3 1_555 1_555
O5F Mn2 1_555 1_555
O5M Mn2J 1_555 1_555
O6A Mn1 1_555 1_555
O6K Mn1J 1_555 1_555
O7G Mn1 1_555 1_555
O7L Mn1J 1_555 1_555
O9L Mn3 1_555 1_555
Mn2 O4 1_555 1_555
Mn3 O5F 1_555 1_555
O3 C1 1_555 1_555
O7 Mn1F 1_555 1_555
O9 C7 1_555 1_555
Mn2J O4J 1_555 1_555
O3J C1J 1_555 1_555
O5J C3J 1_555 1_555
O7J Mn1M 1_555 1_555
O9J Mn3B 1_555 1_555
Mn2G O1G 1_555 1_555
Mn2G O7G 1_555 1_555
Mn2L O1L 1_555 1_555
Mn2L O3L 1_555 1_555
Mn2L O7L 1_555 1_555
Mn3B O5M 1_555 1_555

#END
