
#######################################################################
#
#                 Cambridge Crystallographic Data Centre
#                                CCDC 
#
#######################################################################
#
# If this CIF has been generated from an entry in the Cambridge 
# Structural Database, then it will include bibliographic, chemical, 
# crystal, experimental, refinement or atomic coordinate data resulting 
# from the CCDC's data processing and validation procedures.
#
#######################################################################

data_NERVEN
_chemical_formula_moiety         '(C74 H76 Cd3 N2 O22)n'
_symmetry_cell_setting           rhombohedral
_symmetry_space_group_name_H-M   'R -3 c'
_symmetry_Int_Tables_number      167
_space_group_name_Hall           '-R 3 2"c'
loop_
_symmetry_equiv_pos_site_id
_symmetry_equiv_pos_as_xyz
1 x,y,z
2 -y,x-y,z
3 y,x,1/2-z
4 -x+y,-x,z
5 -x,-x+y,1/2-z
6 x-y,-y,1/2-z
7 1/3+x,2/3+y,2/3+z
8 1/3-y,2/3+x-y,2/3+z
9 1/3+y,2/3+x,1/6-z
10 1/3-x+y,2/3-x,2/3+z
11 1/3-x,2/3-x+y,1/6-z
12 1/3+x-y,2/3-y,1/6-z
13 2/3+x,1/3+y,1/3+z
14 2/3-y,1/3+x-y,1/3+z
15 2/3+y,1/3+x,5/6-z
16 2/3-x+y,1/3-x,1/3+z
17 2/3-x,1/3-x+y,5/6-z
18 2/3+x-y,1/3-y,5/6-z
19 -x,-y,-z
20 y,-x+y,-z
21 -y,-x,1/2+z
22 x-y,x,-z
23 x,x-y,1/2+z
24 -x+y,y,1/2+z
25 2/3-x,1/3-y,1/3-z
26 2/3+y,1/3-x+y,1/3-z
27 2/3-y,1/3-x,5/6+z
28 2/3+x-y,1/3+x,1/3-z
29 2/3+x,1/3+x-y,5/6+z
30 2/3-x+y,1/3+y,5/6+z
31 1/3-x,2/3-y,2/3-z
32 1/3+y,2/3-x+y,2/3-z
33 1/3-y,2/3-x,1/6+z
34 1/3+x-y,2/3+x,2/3-z
35 1/3+x,2/3+x-y,1/6+z
36 1/3-x+y,2/3+y,1/6+z
_cell_length_a                   39.2733(5)
_cell_length_b                   39.2733(5)
_cell_length_c                   60.9934(14)
_cell_angle_alpha                90
_cell_angle_beta                 90
_cell_angle_gamma                120
_cell_volume                     81472
loop_
_atom_site_label
_atom_site_type_symbol
_atom_site_fract_x
_atom_site_fract_y
_atom_site_fract_z
_atom_site_U_iso_or_equiv
_atom_site_thermal_displace_type
Cd1 Cd 0.158638(11) 0.320699(12) 0.025743(7) 0.0553 Uani
Cd2 Cd 0.220519(13) 0.413456(11) -0.006250(7) 0.0621 Uani
Cd3 Cd 0.30067(12) 0.48774(5) -0.04219(6) 0.0801 Uani
C1 C 0.17767(16) 0.32382(17) -0.02448(9) 0.0583 Uani
C2 C 0.17518(15) 0.30258(15) -0.04540(9) 0.0561 Uani
C3 C 0.18485(14) 0.32384(15) -0.06511(9) 0.0533 Uani
H1 H 0.1925 0.3509 -0.0651 0.0640 Uiso
C4 C 0.18324(16) 0.30507(16) -0.08472(9) 0.0576 Uani
C5 C 0.1717(2) 0.26568(18) -0.08481(10) 0.0723 Uani
H2 H 0.1706 0.2530 -0.0983 0.0860 Uiso
C6 C 0.1618(2) 0.24460(19) -0.06562(11) 0.0802 Uani
H3 H 0.1538 0.2174 -0.0659 0.0960 Uiso
C7 C 0.1634(2) 0.26304(17) -0.04571(10) 0.0708 Uani
H4 H 0.1565 0.2484 -0.0324 0.0850 Uiso
C8 C 0.2030(2) 0.36428(18) -0.10521(10) 0.0657 Uani
H5 H 0.2277 0.3803 -0.0970 0.0790 Uiso
H6 H 0.1821 0.3677 -0.0983 0.0790 Uiso
C9 C 0.20819(15) 0.37729(16) -0.12867(9) 0.0546 Uani
C10 C 0.24566(15) 0.39316(16) -0.13852(9) 0.0571 Uani
C11 C 0.25148(15) 0.40908(16) -0.15986(9) 0.0561 Uani
C12 C 0.22009(16) 0.40742(16) -0.17151(9) 0.0569 Uani
C13 C 0.18224(15) 0.38783(16) -0.16246(9) 0.0557 Uani
C14 C 0.17640(15) 0.37317(17) -0.14105(10) 0.0592 Uani
C15 C 0.29110(16) 0.42540(17) -0.17054(9) 0.0621 Uani
H7 H 0.2997 0.4517 -0.1768 0.0740 Uiso
H8 H 0.3110 0.4276 -0.1598 0.0740 Uiso
C16 C 0.31792(15) 0.40367(18) -0.19937(10) 0.0626 Uani
C17 C 0.35663(14) 0.43053(16) -0.19451(8) 0.0528 Uani
H9 H 0.3631 0.4485 -0.1827 0.0630 Uiso
C18 C 0.38592(14) 0.43059(16) -0.20727(8) 0.0538 Uani
C19 C 0.37685(18) 0.4050(2) -0.22458(11) 0.0791 Uani
H10 H 0.3972 0.4045 -0.2328 0.0950 Uiso
C20 C 0.3376(2) 0.3797(3) -0.22998(13) 0.0986 Uani
H11 H 0.3311 0.3629 -0.2424 0.1180 Uiso
C21 C 0.30866(18) 0.3790(2) -0.21753(12) 0.0826 Uani
H12 H 0.2819 0.3615 -0.2212 0.0990 Uiso
C22 C 0.42796(15) 0.45758(15) -0.20158(8) 0.0551 Uani
C23 C 0.14761(18) 0.38118(18) -0.17594(11) 0.0652 Uani
H13 H 0.1534 0.3810 -0.1917 0.0790 Uiso
H14 H 0.1245 0.3555 -0.1722 0.0790 Uiso
C24 C 0.10626(17) 0.40939(18) -0.18106(10) 0.0647 Uani
C25 C 0.09741(18) 0.43908(18) -0.17613(10) 0.0643 Uani
H15 H 0.1141 0.4600 -0.1666 0.0770 Uiso
C26 C 0.06468(18) 0.43783(18) -0.18501(10) 0.0632 Uani
C27 C 0.0396(2) 0.4072(2) -0.19854(11) 0.0766 Uani
H16 H 0.0167 0.4063 -0.2043 0.0920 Uiso
C28 C 0.0480(2) 0.3778(2) -0.20360(13) 0.0840 Uani
H17 H 0.0310 0.3567 -0.2129 0.1010 Uiso
C29 C 0.0816(2) 0.3790(2) -0.19499(12) 0.0790 Uani
H18 H 0.0876 0.3590 -0.1987 0.0950 Uiso
C30 C 0.05588(19) 0.4705(2) -0.18001(11) 0.0681 Uani
C31 C 0.27954(19) 0.3933(2) -0.12609(12) 0.0754 Uani
H19 H 0.2948 0.3867 -0.1362 0.1130 Uiso
H20 H 0.2690 0.3738 -0.1143 0.1130 Uiso
H21 H 0.2966 0.4195 -0.1199 0.1130 Uiso
C32 C 0.2271(2) 0.4259(2) -0.19389(11) 0.0792 Uani
H22 H 0.2237 0.4065 -0.2050 0.1200 Uiso
H23 H 0.2539 0.4484 -0.1947 0.1200 Uiso
H24 H 0.2082 0.4349 -0.1965 0.1200 Uiso
C33 C 0.13513(17) 0.3518(2) -0.13153(12) 0.0802 Uani
H25 H 0.1243 0.3234 -0.1327 0.1200 Uiso
H26 H 0.1184 0.3594 -0.1396 0.1200 Uiso
H27 H 0.1361 0.3590 -0.1161 0.1200 Uiso
C34 C 0.28586(18) 0.4135(3) -0.04081(12) 0.0834 Uani
C35 C 0.28190(17) 0.3737(2) -0.04357(10) 0.0766 Uani
C36 C 0.27180(17) 0.3483(2) -0.02591(10) 0.0694 Uani
H28 H 0.2673 0.3561 -0.0120 0.0830 Uiso
C37 C 0.2683(2) 0.3123(2) -0.02819(11) 0.0784 Uani
C38 C 0.2742(2) 0.3007(3) -0.04944(15) 0.1029 Uani
H29 H 0.2713 0.2754 -0.0515 0.1230 Uiso
C39 C 0.2840(3) 0.3256(4) -0.06656(15) 0.1164 Uani
H30 H 0.2878 0.3174 -0.0806 0.1400 Uiso
C40 C 0.2885(2) 0.3631(3) -0.06430(12) 0.0971 Uani
H31 H 0.2958 0.3806 -0.0764 0.1160 Uiso
C41 C 0.2543(3) 0.2956(2) 0.00982(12) 0.0876 Uani
H32 H 0.2288 0.2950 0.0111 0.1050 Uiso
H33 H 0.2756 0.3227 0.0132 0.1050 Uiso
C42 C 0.2556(2) 0.2670(2) 0.02600(12) 0.0803 Uani
C43 C 0.2214(2) 0.2365(2) 0.03502(14) 0.0871 Uani
C44 C 0.2245(2) 0.2123(2) 0.05018(14) 0.0854 Uani
C45 C 0.2617(2) 0.2172(2) 0.05561(14) 0.0864 Uani
C46 C 0.2949(2) 0.2450(2) 0.04511(12) 0.0778 Uani
C47 C 0.2924(2) 0.2713(2) 0.03071(12) 0.0774 Uani
C48 C 0.1875(3) 0.1768(3) 0.06034(15) 0.0994 Uani
H34 H 0.1646 0.1678 0.0504 0.1200 Uiso
H35 H 0.1922 0.1546 0.0630 0.1200 Uiso
C49 C 0.1597(2) 0.1615(2) 0.09675(14) 0.0908 Uani
C50 C 0.1541(2) 0.17684(19) 0.11651(13) 0.0816 Uani
H36 H 0.1625 0.2040 0.1176 0.0980 Uiso
C51 C 0.1365(2) 0.1526(2) 0.13426(14) 0.0908 Uani
C52 C 0.1241(3) 0.1124(2) 0.13307(19) 0.1192 Uani
H37 H 0.1126 0.0957 0.1454 0.1430 Uiso
C53 C 0.1290(3) 0.0976(3) 0.11330(18) 0.1180 Uiso
H38 H 0.1199 0.0703 0.1121 0.1410 Uiso
C54 C 0.1464(3) 0.1212(3) 0.09547(18) 0.1187 Uani
H39 H 0.1495 0.1103 0.0822 0.1420 Uiso
C55 C 0.1315(3) 0.1702(2) 0.15525(16) 0.0986 Uani
C56 C 0.3334(2) 0.2458(2) 0.04784(13) 0.0883 Uani
H40 H 0.3285 0.2188 0.0506 0.1050 Uiso
H41 H 0.3492 0.2557 0.0343 0.1050 Uiso
C57 C 0.3878(2) 0.2704(2) 0.07274(13) 0.0828 Uani
C58 C 0.4061(2) 0.2539(2) 0.06146(13) 0.0853 Uani
H42 H 0.3964 0.2425 0.0475 0.1030 Uiso
C59 C 0.4389(2) 0.2534(3) 0.07010(14) 0.1026 Uani
C60 C 0.4540(3) 0.2722(4) 0.09018(17) 0.1422 Uani
H43 H 0.4766 0.2732 0.0964 0.1710 Uiso
C61 C 0.4351(3) 0.2896(4) 0.10096(17) 0.1316 Uani
H44 H 0.4451 0.3023 0.1146 0.1580 Uiso
C62 C 0.4027(2) 0.2887(3) 0.09242(14) 0.0978 Uani
H45 H 0.3905 0.3007 0.1001 0.1170 Uiso
C63 C 0.4589(2) 0.2366(3) 0.05755(17) 0.1184 Uani
C64 C 0.1817(3) 0.2310(4) 0.0291(2) 0.1280 Uani
H46 H 0.1639 0.2036 0.0250 0.1920 Uiso
H47 H 0.1845 0.2482 0.0168 0.1920 Uiso
H48 H 0.1708 0.2378 0.0418 0.1920 Uiso
C65 C 0.2655(3) 0.1916(3) 0.07331(17) 0.1141 Uani
H49 H 0.2558 0.1957 0.0873 0.1710 Uiso
H50 H 0.2931 0.1989 0.0749 0.1710 Uiso
H51 H 0.2499 0.1639 0.0691 0.1710 Uiso
C66 C 0.3300(3) 0.3042(3) 0.02069(17) 0.1119 Uani
H52 H 0.3274 0.3275 0.0186 0.1670 Uiso
H53 H 0.3348 0.2956 0.0065 0.1670 Uiso
H54 H 0.3522 0.3107 0.0305 0.1670 Uiso
C67 C 0.0764(2) 0.2412(3) 0.02211(18) 0.1072 Uani
C68 C 0.0648(2) 0.2622(3) 0.00724(17) 0.1072 Uani
H55 H 0.0849 0.2901 0.0072 0.1600 Uiso
H56 H 0.0396 0.2593 0.0120 0.1600 Uiso
H57 H 0.0619 0.2514 -0.0076 0.1600 Uiso
C69 C 0.0085(2) 0.1888(3) 0.02582(18) 0.1072 Uani
H58 H -0.0006 0.2071 0.0298 0.1600 Uiso
H59 H -0.0058 0.1646 0.0345 0.1600 Uiso
H60 H 0.0038 0.1825 0.0102 0.1600 Uiso
C70 C 0.0633(2) 0.1849(3) 0.04388(17) 0.1072 Uani
H61 H 0.0708 0.1695 0.0344 0.1600 Uiso
H62 H 0.0419 0.1671 0.0536 0.1600 Uiso
H63 H 0.0860 0.2032 0.0527 0.1600 Uiso
C71 C 0.1221(4) 0.2845(4) 0.07486(17) 0.1247 Uani
C72 C 0.1568(3) 0.2745(4) 0.08063(17) 0.1247 Uani
H64 H 0.1668 0.2839 0.0954 0.1880 Uiso
H65 H 0.1783 0.2877 0.0700 0.1880 Uiso
H66 H 0.1462 0.2461 0.0799 0.1880 Uiso
C73 C 0.0884(4) 0.2378(4) 0.10254(16) 0.1247 Uani
H67 H 0.1139 0.2395 0.1049 0.1880 Uiso
H68 H 0.0687 0.2107 0.0987 0.1880 Uiso
H69 H 0.0804 0.2455 0.1160 0.1880 Uiso
C74 C 0.0604(3) 0.2727(4) 0.07762(17) 0.1247 Uani
H70 H 0.0652 0.2975 0.0841 0.1880 Uiso
H71 H 0.0348 0.2513 0.0826 0.1880 Uiso
H72 H 0.0604 0.2746 0.0616 0.1880 Uiso
N1 N 0.0504(2) 0.2069(2) 0.03036(14) 0.1072 Uani
N2 N 0.0918(3) 0.2644(3) 0.08455(13) 0.1247 Uani
O1 O 0.16905(15) 0.30366(13) -0.00709(7) 0.0741 Uani
O2 O 0.18773(14) 0.35938(12) -0.02588(7) 0.0687 Uani
O3 O 0.19236(14) 0.32371(12) -0.10466(7) 0.0707 Uani
O4 O 0.28588(11) 0.39802(14) -0.18745(8) 0.0797 Uani
O5 O 0.43837(13) 0.48632(14) -0.18955(8) 0.0793 Uani
O6 O 0.45306(11) 0.44927(13) -0.20903(7) 0.0722 Uani
O7 O 0.13934(12) 0.41281(13) -0.17137(8) 0.0738 Uani
O8 O 0.08237(15) 0.50113(15) -0.17115(9) 0.0848 Uani
O9 O 0.02234(15) 0.46408(16) -0.18577(10) 0.0931 Uani
O10 O 0.29589(18) 0.4361(2) -0.05688(9) 0.1121 Uani
O11 O 0.27947(13) 0.42277(14) -0.02214(8) 0.0789 Uani
O12 O 0.25903(18) 0.28506(16) -0.01228(9) 0.0927 Uani
O13 O 0.1804(2) 0.19063(19) 0.08041(10) 0.1061 Uani
O14 O 0.1336(3) 0.15400(19) 0.17322(12) 0.1743 Uani
O15 O 0.12711(17) 0.19929(14) 0.15378(10) 0.0964 Uani
O16 O 0.35460(17) 0.27090(17) 0.06591(10) 0.0974 Uani
O17 O 0.4840(2) 0.2306(4) 0.06779(17) 0.1971 Uani
O18 O 0.44981(15) 0.22546(17) 0.03806(10) 0.1023 Uani
O19 O 0.11225(16) 0.25519(17) 0.02722(12) 0.1072 Uani
O20 O 0.1307(2) 0.3111(2) 0.06033(11) 0.1247 Uani
O21 O 0.3239(7) 0.5524(7) -0.0468(4) 0.1810 Uiso
O22 O 0.3598(4) 0.5188(6) -0.0588(3) 0.1810 Uiso
Cd1P Cd 0.508029(11) 0.495394(16) -0.192410(7) 0.0553 Uani
Cd1N Cd -0.012634(12) 0.491971(11) -0.192410(7) 0.0553 Uani
Cd2P Cd 0.446148(13) 0.526270(17) -0.160417(7) 0.0621 Uani
Cd2N Cd 0.080123(11) 0.553852(13) -0.160417(7) 0.0621 Uani
Cd2K Cd 0.140396(17) 0.253211(11) 0.172917(7) 0.0621 Uani
Cd2S Cd 0.413456(11) 0.192937(17) 0.006250(7) 0.0621 Uani
Cd3K Cd 0.14626(13) 0.17893(5) 0.20886(6) 0.0801 Uani
Cd3S Cd 0.48774(5) 0.18707(13) 0.04219(6) 0.0801 Uani
O5P O 0.22830(13) 0.38128(19) 0.02288(8) 0.0793 Uani
O6P O 0.21361(11) 0.32954(17) 0.04236(7) 0.0722 Uani
O8N O 0.16780(15) 0.41570(15) 0.00448(9) 0.0848 Uani
O9N O 0.13075(16) 0.35567(15) 0.01910(10) 0.0931 Uani
O14K O 0.31293(36) 0.51267(19) -0.00655(12) 0.1743 Uani
O15K O 0.26115(22) 0.46738(14) 0.01289(10) 0.0964 Uani
O17U O 0.2534(4) 0.4840(2) -0.06779(17) 0.1971 Uani
O18U O 0.22435(23) 0.44981(15) -0.03806(10) 0.1023 Uani
loop_
_atom_site_aniso_label
_atom_site_aniso_U_11
_atom_site_aniso_U_22
_atom_site_aniso_U_33
_atom_site_aniso_U_23
_atom_site_aniso_U_13
_atom_site_aniso_U_12
Cd1 0.0480(2) 0.0575(2) 0.0639(3) 0.00432(16) 0.00042(15) 0.02902(17)
Cd2 0.0633(3) 0.0472(2) 0.0760(3) 0.00094(17) -0.01214(19) 0.02769(18)
Cd3 0.0638(11) 0.0836(7) 0.0727(11) 0.0195(6) 0.0035(9) 0.0217(6)
C1 0.053(3) 0.059(3) 0.063(3) -0.002(2) -0.007(2) 0.028(2)
C2 0.054(3) 0.057(3) 0.059(3) 0.003(2) -0.004(2) 0.029(2)
C3 0.049(2) 0.052(3) 0.060(3) 0.002(2) 0.002(2) 0.026(2)
C4 0.060(3) 0.060(3) 0.058(3) 0.003(2) 0.000(2) 0.034(2)
C5 0.096(5) 0.063(3) 0.065(3) -0.008(3) -0.008(3) 0.045(3)
C6 0.112(5) 0.055(3) 0.078(4) -0.003(3) -0.015(4) 0.045(3)
C7 0.096(4) 0.054(3) 0.059(3) 0.006(2) -0.005(3) 0.035(3)
C8 0.074(4) 0.067(3) 0.061(3) 0.005(3) 0.011(3) 0.039(3)
C9 0.054(3) 0.058(3) 0.057(3) 0.001(2) 0.008(2) 0.032(2)
C10 0.053(3) 0.056(3) 0.066(3) 0.004(2) 0.004(2) 0.030(2)
C11 0.053(3) 0.058(3) 0.063(3) 0.001(2) 0.008(2) 0.032(2)
C12 0.058(3) 0.063(3) 0.060(3) 0.006(2) 0.006(2) 0.038(2)
C13 0.053(3) 0.058(3) 0.067(3) -0.001(2) 0.005(2) 0.036(2)
C14 0.051(3) 0.062(3) 0.071(3) -0.001(2) 0.009(2) 0.033(2)
C15 0.052(3) 0.064(3) 0.065(3) -0.003(2) 0.010(2) 0.025(2)
C16 0.046(3) 0.076(3) 0.065(3) -0.011(3) 0.000(2) 0.030(3)
C17 0.049(2) 0.060(3) 0.049(3) -0.005(2) 0.0002(19) 0.027(2)
C18 0.047(2) 0.066(3) 0.048(2) -0.001(2) 0.0016(19) 0.028(2)
C19 0.055(3) 0.110(5) 0.068(4) -0.033(3) -0.002(3) 0.038(3)
C20 0.066(4) 0.128(6) 0.085(5) -0.058(5) -0.011(3) 0.036(4)
C21 0.049(3) 0.103(5) 0.085(4) -0.039(4) -0.011(3) 0.030(3)
C22 0.050(3) 0.056(3) 0.052(3) 0.001(2) 0.003(2) 0.021(2)
C23 0.063(3) 0.073(3) 0.081(4) -0.010(3) -0.009(3) 0.050(3)
C24 0.063(3) 0.069(3) 0.078(4) 0.000(3) -0.002(3) 0.045(3)
C25 0.064(3) 0.066(3) 0.077(4) 0.002(3) 0.002(3) 0.043(3)
C26 0.066(3) 0.072(3) 0.067(3) 0.013(3) 0.006(3) 0.046(3)
C27 0.067(4) 0.104(5) 0.079(4) -0.004(4) -0.004(3) 0.058(4)
C28 0.069(4) 0.098(5) 0.096(5) -0.020(4) -0.022(3) 0.050(4)
C29 0.080(4) 0.090(5) 0.085(4) -0.016(4) -0.010(3) 0.056(4)
C30 0.072(4) 0.075(4) 0.079(4) 0.015(3) 0.011(3) 0.053(3)
C31 0.063(3) 0.087(4) 0.081(4) 0.004(3) -0.008(3) 0.041(3)
C32 0.089(5) 0.094(5) 0.067(4) 0.019(3) 0.008(3) 0.055(4)
C33 0.052(3) 0.093(5) 0.090(4) 0.009(4) 0.018(3) 0.032(3)
C34 0.045(3) 0.111(6) 0.073(4) 0.020(4) -0.003(3) 0.023(3)
C35 0.049(3) 0.108(5) 0.063(3) -0.003(3) 0.000(2) 0.032(3)
C36 0.056(3) 0.090(4) 0.063(3) -0.013(3) -0.003(2) 0.037(3)
C37 0.069(4) 0.108(5) 0.066(4) -0.020(4) -0.005(3) 0.050(4)
C38 0.086(5) 0.140(8) 0.094(6) -0.045(6) -0.012(4) 0.065(5)
C39 0.091(6) 0.192(12) 0.068(5) -0.029(6) 0.005(4) 0.072(7)
C40 0.069(4) 0.148(8) 0.062(4) -0.010(4) -0.005(3) 0.045(5)
C41 0.115(6) 0.096(5) 0.084(4) 0.002(4) 0.018(4) 0.077(5)
C42 0.094(5) 0.079(4) 0.089(5) -0.008(3) 0.011(4) 0.059(4)
C43 0.087(5) 0.092(5) 0.104(5) 0.002(4) 0.006(4) 0.061(4)
C44 0.089(5) 0.074(4) 0.103(5) -0.001(4) 0.009(4) 0.048(4)
C45 0.093(5) 0.078(4) 0.106(5) -0.001(4) 0.004(4) 0.056(4)
C46 0.087(4) 0.083(4) 0.084(4) -0.019(3) -0.001(3) 0.058(4)
C47 0.084(4) 0.083(4) 0.079(4) -0.013(3) 0.006(3) 0.052(4)
C48 0.107(6) 0.092(5) 0.109(6) -0.018(4) 0.006(5) 0.057(5)
C49 0.073(4) 0.072(4) 0.107(6) -0.016(4) 0.011(4) 0.021(3)
C50 0.067(4) 0.056(3) 0.106(5) -0.011(3) 0.013(3) 0.019(3)
C51 0.084(5) 0.058(3) 0.111(6) -0.011(4) 0.025(4) 0.021(3)
C52 0.115(7) 0.066(4) 0.151(8) -0.016(5) 0.046(6) 0.026(4)
C54 0.117(7) 0.104(6) 0.132(8) -0.037(6) 0.019(6) 0.053(6)
C55 0.102(6) 0.050(3) 0.125(7) -0.006(4) 0.039(5) 0.024(3)
C56 0.087(5) 0.097(5) 0.097(5) -0.034(4) -0.016(4) 0.058(4)
C57 0.079(4) 0.069(4) 0.087(5) -0.017(3) 0.004(3) 0.027(3)
C58 0.068(4) 0.083(4) 0.092(5) -0.030(4) -0.009(3) 0.028(3)
C59 0.065(4) 0.115(6) 0.101(6) -0.051(5) -0.017(4) 0.025(4)
C60 0.097(6) 0.202(12) 0.128(8) -0.102(8) -0.047(6) 0.075(7)
C61 0.110(7) 0.170(10) 0.112(7) -0.085(7) -0.036(6) 0.068(7)
C62 0.088(5) 0.100(6) 0.088(5) -0.035(4) 0.003(4) 0.034(4)
C63 0.056(4) 0.143(8) 0.146(8) -0.091(7) -0.031(4) 0.042(4)
C64 0.103(6) 0.141(9) 0.172(10) 0.018(8) 0.007(7) 0.085(7)
C65 0.146(8) 0.110(7) 0.125(7) 0.011(6) 0.004(6) 0.093(7)
C66 0.101(6) 0.130(8) 0.113(7) 0.005(6) 0.023(5) 0.064(6)
C67 0.0721(16) 0.093(2) 0.139(3) 0.0127(18) -0.0042(17) 0.0281(15)
C68 0.0721(16) 0.093(2) 0.139(3) 0.0127(18) -0.0042(17) 0.0281(15)
C69 0.0721(16) 0.093(2) 0.139(3) 0.0127(18) -0.0042(17) 0.0281(15)
C70 0.0721(16) 0.093(2) 0.139(3) 0.0127(18) -0.0042(17) 0.0281(15)
C71 0.132(3) 0.143(3) 0.094(2) 0.008(2) 0.019(2) 0.065(3)
C72 0.132(3) 0.143(3) 0.094(2) 0.008(2) 0.019(2) 0.065(3)
C73 0.132(3) 0.143(3) 0.094(2) 0.008(2) 0.019(2) 0.065(3)
C74 0.132(3) 0.143(3) 0.094(2) 0.008(2) 0.019(2) 0.065(3)
N1 0.0721(16) 0.093(2) 0.139(3) 0.0127(18) -0.0042(17) 0.0281(15)
N2 0.132(3) 0.143(3) 0.094(2) 0.008(2) 0.019(2) 0.065(3)
O1 0.097(3) 0.073(3) 0.057(2) 0.0055(19) 0.003(2) 0.046(2)
O2 0.082(3) 0.061(2) 0.066(2) -0.0056(18) -0.011(2) 0.038(2)
O3 0.093(3) 0.062(2) 0.060(2) 0.0028(17) 0.009(2) 0.041(2)
O4 0.0430(19) 0.096(3) 0.087(3) -0.028(2) 0.0080(19) 0.025(2)
O5 0.069(3) 0.074(3) 0.086(3) -0.031(2) -0.007(2) 0.029(2)
O6 0.0463(19) 0.083(3) 0.080(3) -0.015(2) 0.0072(18) 0.0268(19)
O7 0.066(2) 0.075(3) 0.100(3) -0.023(2) -0.020(2) 0.050(2)
O8 0.077(3) 0.078(3) 0.121(4) 0.006(3) 0.003(3) 0.055(3)
O9 0.079(3) 0.099(4) 0.130(4) -0.003(3) -0.012(3) 0.066(3)
O10 0.091(4) 0.129(5) 0.087(3) 0.042(3) 0.011(3) 0.033(3)
O11 0.066(2) 0.079(3) 0.078(3) 0.007(2) -0.008(2) 0.026(2)
O12 0.119(4) 0.095(3) 0.090(3) -0.016(3) 0.002(3) 0.073(3)
O13 0.132(5) 0.106(4) 0.093(4) 0.002(3) 0.025(3) 0.069(4)
O14 0.315(13) 0.074(4) 0.123(5) 0.029(4) 0.094(7) 0.089(6)
O15 0.099(4) 0.067(3) 0.120(4) -0.022(3) 0.007(3) 0.039(3)
O16 0.098(4) 0.100(4) 0.115(4) -0.047(3) -0.023(3) 0.065(3)
O17 0.120(6) 0.307(13) 0.206(9) -0.174(9) -0.094(6) 0.138(8)
O18 0.072(3) 0.111(4) 0.111(4) -0.058(3) -0.010(3) 0.036(3)
O19 0.0721(16) 0.093(2) 0.139(3) 0.0127(18) -0.0042(17) 0.0281(15)
O20 0.132(3) 0.143(3) 0.094(2) 0.008(2) 0.019(2) 0.065(3)
Cd1P 0.048 0.04746 0.0639 -0.0039 0.00042 0.01898
Cd1N 0.0575 0.048 0.0639 -0.00042 -0.00432 0.02902
Cd2P 0.0633 0.05512 0.076 -0.01308 -0.01214 0.03561
Cd2N 0.0472 0.0633 0.076 0.01214 -0.00094 0.02769
Cd2K 0.05512 0.0472 0.076 0.00094 0.01308 0.01951
Cd2S 0.0472 0.05512 0.076 -0.01308 -0.00094 0.01951
Cd3K 0.104 0.0836 0.0727 0.0195 0.016 0.0619
Cd3S 0.0836 0.104 0.0727 -0.016 -0.0195 0.0619
O5P 0.069 0.085 0.086 0.024 -0.007 0.04
O6P 0.0463 0.0757 0.08 0.0222 0.0072 0.0195
O8N 0.078 0.077 0.121 -0.003 -0.006 0.055
O9N 0.099 0.079 0.13 0.012 0.003 0.066
O14K 0.211 0.074 0.123 0.029 -0.065 -0.015
O15K 0.088 0.067 0.12 -0.022 -0.029 0.028
O17U 0.151 0.12 0.206 0.094 -0.08 -0.018
O18U 0.111 0.072 0.111 0.01 -0.048 0.036
loop_
_geom_bond_atom_site_label_1
_geom_bond_atom_site_label_2
_geom_bond_site_symmetry_1
_geom_bond_site_symmetry_2
Cd1 O1 1_555 1_555
Cd2 O2 1_555 1_555
Cd3 O10 1_555 1_555
C1 C2 1_555 1_555
C2 C3 1_555 1_555
C3 H1 1_555 1_555
C4 C3 1_555 1_555
C5 C4 1_555 1_555
H2 C5 1_555 1_555
C6 C5 1_555 1_555
H3 C6 1_555 1_555
C7 C2 1_555 1_555
H4 C7 1_555 1_555
C8 H5 1_555 1_555
H6 C8 1_555 1_555
C9 C8 1_555 1_555
C10 C9 1_555 1_555
C11 C10 1_555 1_555
C12 C11 1_555 1_555
C13 C12 1_555 1_555
C14 C9 1_555 1_555
C15 C11 1_555 1_555
H7 C15 1_555 1_555
H8 C15 1_555 1_555
C16 C17 1_555 1_555
C17 H9 1_555 1_555
C18 C17 1_555 1_555
C19 C18 1_555 1_555
H10 C19 1_555 1_555
C20 C19 1_555 1_555
H11 C20 1_555 1_555
C21 C16 1_555 1_555
H12 C21 1_555 1_555
C22 C18 1_555 1_555
C23 C13 1_555 1_555
H13 C23 1_555 1_555
H14 C23 1_555 1_555
C24 C25 1_555 1_555
C25 H15 1_555 1_555
C26 C25 1_555 1_555
C27 C26 1_555 1_555
H16 C27 1_555 1_555
C28 C27 1_555 1_555
H17 C28 1_555 1_555
C29 C24 1_555 1_555
H18 C29 1_555 1_555
C30 C26 1_555 1_555
C31 C10 1_555 1_555
H19 C31 1_555 1_555
H20 C31 1_555 1_555
H21 C31 1_555 1_555
C32 C12 1_555 1_555
H22 C32 1_555 1_555
H23 C32 1_555 1_555
H24 C32 1_555 1_555
C33 C14 1_555 1_555
H25 C33 1_555 1_555
H26 C33 1_555 1_555
H27 C33 1_555 1_555
C34 C35 1_555 1_555
C35 C36 1_555 1_555
C36 H28 1_555 1_555
C37 C36 1_555 1_555
C38 C37 1_555 1_555
H29 C38 1_555 1_555
C39 C38 1_555 1_555
H30 C39 1_555 1_555
C40 C35 1_555 1_555
H31 C40 1_555 1_555
C41 H32 1_555 1_555
H33 C41 1_555 1_555
C42 C41 1_555 1_555
C43 C42 1_555 1_555
C44 C43 1_555 1_555
C45 C44 1_555 1_555
C46 C45 1_555 1_555
C47 C42 1_555 1_555
C48 C44 1_555 1_555
H34 C48 1_555 1_555
H35 C48 1_555 1_555
C49 C50 1_555 1_555
C50 H36 1_555 1_555
C51 C50 1_555 1_555
C52 C51 1_555 1_555
H37 C52 1_555 1_555
C53 C52 1_555 1_555
H38 C53 1_555 1_555
C54 C49 1_555 1_555
H39 C54 1_555 1_555
C55 C51 1_555 1_555
C56 C46 1_555 1_555
H40 C56 1_555 1_555
H41 C56 1_555 1_555
C57 C58 1_555 1_555
C58 H42 1_555 1_555
C59 C58 1_555 1_555
C60 C59 1_555 1_555
H43 C60 1_555 1_555
C61 C60 1_555 1_555
H44 C61 1_555 1_555
C62 C57 1_555 1_555
H45 C62 1_555 1_555
C63 C59 1_555 1_555
C64 C43 1_555 1_555
H46 C64 1_555 1_555
H47 C64 1_555 1_555
H48 C64 1_555 1_555
C65 C45 1_555 1_555
H49 C65 1_555 1_555
H50 C65 1_555 1_555
H51 C65 1_555 1_555
C66 C47 1_555 1_555
H52 C66 1_555 1_555
H53 C66 1_555 1_555
H54 C66 1_555 1_555
C67 C68 1_555 1_555
C68 H55 1_555 1_555
H56 C68 1_555 1_555
H57 C68 1_555 1_555
C69 H58 1_555 1_555
H59 C69 1_555 1_555
H60 C69 1_555 1_555
C70 H61 1_555 1_555
H62 C70 1_555 1_555
H63 C70 1_555 1_555
C71 C72 1_555 1_555
C72 H64 1_555 1_555
H65 C72 1_555 1_555
H66 C72 1_555 1_555
C73 H67 1_555 1_555
H68 C73 1_555 1_555
H69 C73 1_555 1_555
C74 H70 1_555 1_555
H71 C74 1_555 1_555
H72 C74 1_555 1_555
N1 C67 1_555 1_555
N2 C71 1_555 1_555
O1 C1 1_555 1_555
O2 C1 1_555 1_555
O3 C4 1_555 1_555
O4 C15 1_555 1_555
O5 C22 1_555 1_555
O6 C22 1_555 1_555
O7 C23 1_555 1_555
O8 C30 1_555 1_555
O9 C30 1_555 1_555
O10 C34 1_555 1_555
O11 Cd2 1_555 1_555
O12 C37 1_555 1_555
O13 C48 1_555 1_555
O14 C55 1_555 1_555
O15 C55 1_555 1_555
O16 C56 1_555 1_555
O17 C63 1_555 1_555
O18 C63 1_555 1_555
O19 Cd1 1_555 1_555
O20 Cd1 1_555 1_555
O21 Cd3 1_555 1_555
O22 Cd3 1_555 1_555
Cd1P O5 1_555 1_555
Cd1N O9 1_555 1_555
Cd2P O5 1_555 1_555
Cd2N O8 1_555 1_555
Cd2K O15 1_555 1_555
Cd2S O18 1_555 1_555
Cd3K O14 1_555 1_555
Cd3S O17 1_555 1_555
O5P Cd1 1_555 1_555
O6P Cd1 1_555 1_555
O8N Cd2 1_555 1_555
O9N Cd1 1_555 1_555
O14K Cd3 1_555 1_555
O15K Cd2 1_555 1_555
O17U Cd3 1_555 1_555
O18U Cd2 1_555 1_555
Cd2 O5P 1_555 1_555
Cd3 O11 1_555 1_555
Cd3 O18U 1_555 1_555
C6 C7 1_555 1_555
C8 O3 1_555 1_555
C13 C14 1_555 1_555
C16 O4 1_555 1_555
C20 C21 1_555 1_555
C24 O7 1_555 1_555
C28 C29 1_555 1_555
C34 O11 1_555 1_555
C39 C40 1_555 1_555
C41 O12 1_555 1_555
C46 C47 1_555 1_555
C49 O13 1_555 1_555
C53 C54 1_555 1_555
C57 O16 1_555 1_555
C61 C62 1_555 1_555
C67 O19 1_555 1_555
C69 N1 1_555 1_555
C70 N1 1_555 1_555
C71 O20 1_555 1_555
C73 N2 1_555 1_555
C74 N2 1_555 1_555
O6 Cd1P 1_555 1_555
O18 Cd3S 1_555 1_555

#END
