
#######################################################################
#
#                 Cambridge Crystallographic Data Centre
#                                CCDC 
#
#######################################################################
#
# If this CIF has been generated from an entry in the Cambridge 
# Structural Database, then it will include bibliographic, chemical, 
# crystal, experimental, refinement or atomic coordinate data resulting 
# from the CCDC's data processing and validation procedures.
#
#######################################################################

data_KUVMIZ
_chemical_formula_moiety         '(C52 H36 Cu1 N4 O2 Si1 2+)n'
_symmetry_cell_setting           monoclinic
_symmetry_space_group_name_H-M   'C 2/c'
_symmetry_Int_Tables_number      15
_space_group_name_Hall           '-C 2yc'
loop_
_symmetry_equiv_pos_site_id
_symmetry_equiv_pos_as_xyz
1 x,y,z
2 -x,y,1/2-z
3 1/2+x,1/2+y,z
4 1/2-x,1/2+y,1/2-z
5 -x,-y,-z
6 x,-y,1/2+z
7 1/2-x,1/2-y,-z
8 1/2+x,1/2-y,1/2+z
_cell_length_a                   27.104(8)
_cell_length_b                   31.278(9)
_cell_length_c                   34.900(10)
_cell_angle_alpha                90
_cell_angle_beta                 92.100(6)
_cell_angle_gamma                90
_cell_volume                     29566.9
loop_
_atom_site_label
_atom_site_type_symbol
_atom_site_fract_x
_atom_site_fract_y
_atom_site_fract_z
_atom_site_U_iso_or_equiv
_atom_site_thermal_displace_type
Cu1 Cu 0.14314(8) 0.25229(6) 0.82340(5) 0.0896 Uani
O1 O 0.0712(4) 0.3066(3) 0.8176(3) 0.1140 Uiso
O2 O 0.2162(4) 0.2005(3) 0.8286(3) 0.0940 Uiso
Si1 Si -0.10396(14) -0.00909(10) 0.57340(10) 0.0428 Uani
C1 C -0.1448(3) 0.0265(3) 0.5418(2) 0.0570 Uiso
C2 C -0.1941(4) 0.0164(3) 0.5343(3) 0.1170 Uiso
H1 H -0.2081 -0.0081 0.5457 0.1410 Uiso
C3 C -0.2230(3) 0.0422(3) 0.5100(3) 0.1130 Uiso
H2 H -0.2567 0.0353 0.5048 0.1350 Uiso
C4 C -0.2025(3) 0.0780(3) 0.4932(3) 0.0880 Uiso
C5 C -0.1532(4) 0.0881(2) 0.5007(3) 0.0850 Uiso
H3 H -0.1392 0.1126 0.4893 0.1020 Uiso
C6 C -0.1243(3) 0.0623(3) 0.5250(3) 0.0820 Uiso
H4 H -0.0905 0.0692 0.5301 0.0980 Uiso
C7 C -0.2326(5) 0.1061(5) 0.4692(4) 0.0980 Uiso
N1 N -0.3236(4) 0.2081(3) 0.3643(3) 0.0730 Uiso
C8 C -0.2744(5) 0.2068(4) 0.3658(4) 0.0820 Uiso
H5 H -0.2566 0.2241 0.3488 0.0990 Uiso
C9 C -0.2483(5) 0.1803(4) 0.3920(4) 0.0910 Uiso
H6 H -0.2133 0.1782 0.3927 0.1090 Uiso
C10 C -0.2775(5) 0.1572(5) 0.4171(4) 0.0860 Uiso
C11 C -0.3284(5) 0.1600(5) 0.4161(4) 0.1080 Uiso
H7 H -0.3476 0.1439 0.4332 0.1300 Uiso
C12 C -0.3506(5) 0.1876(4) 0.3889(4) 0.0860 Uiso
H8 H -0.3853 0.1916 0.3882 0.1030 Uiso
C13 C -0.2539(6) 0.1292(5) 0.4472(5) 0.1140 Uiso
C14 C -0.0649(3) 0.0278(3) 0.6049(2) 0.0520 Uiso
C15 C -0.0149(3) 0.0209(3) 0.6125(3) 0.1010 Uiso
H9 H 0.0012 -0.0026 0.6010 0.1210 Uiso
C16 C 0.0116(2) 0.0482(3) 0.6370(3) 0.1020 Uiso
H10 H 0.0458 0.0434 0.6422 0.1220 Uiso
C17 C -0.0119(3) 0.0825(3) 0.6539(2) 0.0560 Uiso
C18 C -0.0620(3) 0.0894(2) 0.6463(3) 0.0990 Uiso
H11 H -0.0781 0.1128 0.6579 0.1190 Uiso
C19 C -0.0885(2) 0.0621(3) 0.6218(3) 0.0760 Uiso
H12 H -0.1227 0.0668 0.6166 0.0910 Uiso
C20 C 0.0158(4) 0.1101(4) 0.6798(4) 0.0620 Uiso
N2 N 0.1112(4) 0.2142(3) 0.7827(3) 0.0600 Uiso
C21 C 0.0832(5) 0.2304(4) 0.7540(4) 0.0700 Uiso
H13 H 0.0803 0.2606 0.7525 0.0840 Uiso
C22 C 0.0583(5) 0.2067(4) 0.7263(4) 0.0760 Uiso
H14 H 0.0385 0.2197 0.7065 0.0910 Uiso
C23 C 0.0638(5) 0.1620(4) 0.7290(4) 0.0720 Uiso
C24 C 0.0933(5) 0.1435(4) 0.7586(4) 0.0920 Uiso
H15 H 0.0979 0.1135 0.7605 0.1100 Uiso
C25 C 0.1159(5) 0.1722(4) 0.7855(4) 0.0840 Uiso
H16 H 0.1352 0.1608 0.8063 0.1010 Uiso
C26 C 0.0363(5) 0.1335(4) 0.7016(4) 0.0670 Uiso
C27 C -0.1407(3) -0.0438(3) 0.6054(3) 0.0630 Uiso
C28 C -0.1524(4) -0.0855(4) 0.5946(3) 0.1550 Uiso
H17 H -0.1411 -0.0966 0.5711 0.1860 Uiso
C29 C -0.1807(4) -0.1108(3) 0.6180(3) 0.1820 Uiso
H18 H -0.1887 -0.1393 0.6106 0.2180 Uiso
C30 C -0.1974(3) -0.0945(4) 0.6522(3) 0.0880 Uiso
C31 C -0.1857(4) -0.0529(4) 0.6631(3) 0.1690 Uiso
H19 H -0.1971 -0.0417 0.6865 0.2030 Uiso
C32 C -0.1574(4) -0.0275(3) 0.6397(3) 0.1510 Uiso
H20 H -0.1494 0.0010 0.6471 0.1810 Uiso
C33 C -0.2272(6) -0.1199(5) 0.6780(4) 0.1090 Uiso
N3 N -0.3224(4) -0.2140(4) 0.7808(3) 0.0700 Uiso
C34 C -0.3268(5) -0.1718(4) 0.7811(4) 0.0860 Uiso
H21 H -0.3462 -0.1583 0.7998 0.1030 Uiso
C35 C -0.3029(5) -0.1467(5) 0.7536(4) 0.1070 Uiso
H22 H -0.3058 -0.1165 0.7532 0.1290 Uiso
C36 C -0.2747(6) -0.1683(5) 0.7271(4) 0.1030 Uiso
C37 C -0.2710(6) -0.2131(5) 0.7267(4) 0.1170 Uiso
H23 H -0.2521 -0.2277 0.7083 0.1400 Uiso
C38 C -0.2969(5) -0.2354(4) 0.7551(4) 0.0830 Uiso
H24 H -0.2960 -0.2658 0.7559 0.1000 Uiso
C39 C -0.2486(6) -0.1424(5) 0.6987(5) 0.1170 Uiso
C40 C -0.0658(3) -0.0433(3) 0.5417(3) 0.0500 Uiso
C41 C -0.0726(3) -0.0393(3) 0.5022(3) 0.1360 Uiso
H25 H -0.0950 -0.0187 0.4917 0.1630 Uiso
C42 C -0.0465(4) -0.0656(4) 0.4779(2) 0.1630 Uiso
H26 H -0.0512 -0.0629 0.4509 0.1950 Uiso
C43 C -0.0136(3) -0.0957(3) 0.4931(3) 0.0640 Uiso
C44 C -0.0068(3) -0.0997(3) 0.5327(3) 0.1270 Uiso
H27 H 0.0156 -0.1203 0.5431 0.1530 Uiso
C45 C -0.0329(4) -0.0734(3) 0.5569(2) 0.1220 Uiso
H28 H -0.0282 -0.0761 0.5839 0.1460 Uiso
C46 C 0.0111(5) -0.1262(4) 0.4690(4) 0.0700 Uiso
N4 N 0.1065(4) -0.2191(3) 0.3648(3) 0.0620 Uiso
C47 C 0.0587(5) -0.2155(4) 0.3612(4) 0.0760 Uiso
H29 H 0.0415 -0.2285 0.3400 0.0910 Uiso
C48 C 0.0321(5) -0.1925(4) 0.3884(4) 0.0860 Uiso
H30 H -0.0028 -0.1896 0.3862 0.1030 Uiso
C49 C 0.0601(5) -0.1741(4) 0.4191(4) 0.0730 Uiso
C50 C 0.1111(5) -0.1781(5) 0.4233(4) 0.0950 Uiso
C51 C 0.1339(5) -0.2023(4) 0.3943(4) 0.0880 Uiso
H31 H 0.1686 -0.2068 0.3957 0.1050 Uiso
C52 C 0.0335(5) -0.1474(4) 0.4476(4) 0.0790 Uiso
Cu1B Cu -0.35686(8) -0.24771(6) 0.82340(5) 0.0896 Uani
Cu1E Cu 0.14314(8) -0.25229(6) 0.32340(5) 0.0896 Uani
Cu1G Cu -0.35686(8) 0.24771(6) 0.32340(5) 0.0896 Uani
N1G N 0.1764(4) 0.2919(3) 0.8643(3) 0.0730 Uiso
N3B N 0.1776(4) 0.2860(4) 0.7808(3) 0.0700 Uiso
N4E N 0.1065(4) 0.2191(3) 0.8648(3) 0.0620 Uiso
loop_
_atom_site_aniso_label
_atom_site_aniso_U_11
_atom_site_aniso_U_22
_atom_site_aniso_U_33
_atom_site_aniso_U_23
_atom_site_aniso_U_13
_atom_site_aniso_U_12
Cu1 0.154(2) 0.0845(16) 0.0308(11) 0.0006(11) 0.0094(11) -0.0661(15)
Si1 0.072(3) 0.031(2) 0.026(2) -0.001(2) 0.008(2) 0.004(2)
Cu1B 0.154 0.0845 0.0308 0.0006 0.0094 -0.0661
Cu1E 0.154 0.0845 0.0308 -0.0006 0.0094 0.0661
Cu1G 0.154 0.0845 0.0308 -0.0006 0.0094 0.0661
loop_
_geom_bond_atom_site_label_1
_geom_bond_atom_site_label_2
_geom_bond_site_symmetry_1
_geom_bond_site_symmetry_2
Cu1 O1 1_555 1_555
O2 Cu1 1_555 1_555
Si1 C1 1_555 1_555
C1 C2 1_555 1_555
C2 H1 1_555 1_555
C3 C2 1_555 1_555
H2 C3 1_555 1_555
C4 C3 1_555 1_555
C5 C4 1_555 1_555
H3 C5 1_555 1_555
C6 C1 1_555 1_555
H4 C6 1_555 1_555
C7 C4 1_555 1_555
N1 C8 1_555 1_555
C8 H5 1_555 1_555
C9 C8 1_555 1_555
H6 C9 1_555 1_555
C10 C9 1_555 1_555
C11 C10 1_555 1_555
H7 C11 1_555 1_555
C12 N1 1_555 1_555
H8 C12 1_555 1_555
C13 C7 1_555 1_555
C14 Si1 1_555 1_555
C15 C14 1_555 1_555
H9 C15 1_555 1_555
C16 C15 1_555 1_555
H10 C16 1_555 1_555
C17 C16 1_555 1_555
C18 C17 1_555 1_555
H11 C18 1_555 1_555
C19 C14 1_555 1_555
H12 C19 1_555 1_555
C20 C17 1_555 1_555
N2 Cu1 1_555 1_555
C21 N2 1_555 1_555
H13 C21 1_555 1_555
C22 C21 1_555 1_555
H14 C22 1_555 1_555
C23 C22 1_555 1_555
C24 C23 1_555 1_555
H15 C24 1_555 1_555
C25 N2 1_555 1_555
H16 C25 1_555 1_555
C26 C20 1_555 1_555
C27 Si1 1_555 1_555
C28 C27 1_555 1_555
H17 C28 1_555 1_555
C29 C28 1_555 1_555
H18 C29 1_555 1_555
C30 C29 1_555 1_555
C31 C30 1_555 1_555
H19 C31 1_555 1_555
C32 C27 1_555 1_555
H20 C32 1_555 1_555
C33 C30 1_555 1_555
N3 C34 1_555 1_555
C34 H21 1_555 1_555
C35 C34 1_555 1_555
H22 C35 1_555 1_555
C36 C35 1_555 1_555
C37 C36 1_555 1_555
H23 C37 1_555 1_555
C38 N3 1_555 1_555
H24 C38 1_555 1_555
C39 C33 1_555 1_555
C40 Si1 1_555 1_555
C41 C40 1_555 1_555
H25 C41 1_555 1_555
C42 C41 1_555 1_555
H26 C42 1_555 1_555
C43 C42 1_555 1_555
C44 C43 1_555 1_555
H27 C44 1_555 1_555
C45 C40 1_555 1_555
H28 C45 1_555 1_555
C46 C43 1_555 1_555
N4 C47 1_555 1_555
C47 H29 1_555 1_555
C48 C47 1_555 1_555
H30 C48 1_555 1_555
C49 C48 1_555 1_555
C50 C49 1_555 1_555
C51 N4 1_555 1_555
H31 C51 1_555 1_555
C52 C46 1_555 1_555
Cu1B N3 1_555 1_555
Cu1E N4 1_555 1_555
Cu1G N1 1_555 1_555
N1G Cu1 1_555 1_555
N3B Cu1 1_555 1_555
N4E Cu1 1_555 1_555
C5 C6 1_555 1_555
C10 C13 1_555 1_555
C11 C12 1_555 1_555
C18 C19 1_555 1_555
C23 C26 1_555 1_555
C24 C25 1_555 1_555
C31 C32 1_555 1_555
C36 C39 1_555 1_555
C37 C38 1_555 1_555
C44 C45 1_555 1_555
C49 C52 1_555 1_555
C50 C51 1_555 1_555

#END
