
#######################################################################
#
#                 Cambridge Crystallographic Data Centre
#                                CCDC 
#
#######################################################################
#
# If this CIF has been generated from an entry in the Cambridge 
# Structural Database, then it will include bibliographic, chemical, 
# crystal, experimental, refinement or atomic coordinate data resulting 
# from the CCDC's data processing and validation procedures.
#
#######################################################################

data_KUVMUL
_chemical_formula_moiety         '(C120 H88 Cu4 N8 O16 Si2)n'
_symmetry_cell_setting           triclinic
_symmetry_space_group_name_H-M   'P -1'
_symmetry_Int_Tables_number      2
_space_group_name_Hall           '-P 1'
loop_
_symmetry_equiv_pos_site_id
_symmetry_equiv_pos_as_xyz
1 x,y,z
2 -x,-y,-z
_cell_length_a                   18.695(3)
_cell_length_b                   20.122(3)
_cell_length_c                   21.068(4)
_cell_angle_alpha                111.924(4)
_cell_angle_beta                 92.824(5)
_cell_angle_gamma                94.973(5)
_cell_volume                     7295.91
loop_
_atom_site_label
_atom_site_type_symbol
_atom_site_fract_x
_atom_site_fract_y
_atom_site_fract_z
Si1 Si 1.1019(3) -0.3670(3) 1.5834(2)
C1 C 1.0187(6) -0.3726(8) 1.6278(7)
C2 C 0.9495(7) -0.3777(9) 1.6007(8)
H1 H 0.9418 -0.3847 1.5536
C3 C 0.8904(8) -0.3732(9) 1.6380(7)
H2 H 0.8433 -0.3769 1.6169
C4 C 0.9007(8) -0.3634(10) 1.7066(7)
C5 C 0.9693(8) -0.3578(9) 1.7358(8)
H3 H 0.9768 -0.3495 1.7832
C6 C 1.0272(8) -0.3641(9) 1.6971(7)
H4 H 1.0740 -0.3627 1.7176
C7 C 0.8421(9) -0.3524(11) 1.7484(9)
N1 N 0.6240(8) -0.2854(8) 1.9172(7)
C8 C 0.6743(9) -0.3254(10) 1.9254(9)
H5 H 0.6719 -0.3410 1.9627
C9 C 0.7306(10) -0.3462(10) 1.8828(9)
H6 H 0.7626 -0.3779 1.8890
C10 C 0.7381(9) -0.3193(9) 1.8316(8)
C11 C 0.6866(9) -0.2780(9) 1.8234(9)
H7 H 0.6892 -0.2604 1.7875
C12 C 0.6306(9) -0.2609(9) 1.8661(8)
H8 H 0.5965 -0.2314 1.8590
C13 C 0.7959(9) -0.3386(10) 1.7868(9)
C14 C 1.0825(9) -0.3606(7) 1.4977(6)
C15 C 1.1042(9) -0.2973(7) 1.4880(7)
H9 H 1.1265 -0.2563 1.5257
C16 C 1.0936(10) -0.2935(9) 1.4242(7)
H10 H 1.1079 -0.2496 1.4186
C17 C 1.0626(10) -0.3522(8) 1.3688(7)
C18 C 1.0405(10) -0.4153(8) 1.3766(8)
H11 H 1.0155 -0.4549 1.3393
C19 C 1.0552(10) -0.4203(8) 1.4396(7)
H12 H 1.0463 -0.4659 1.4433
C20 C 1.0557(11) -0.3475(9) 1.3026(8)
N2 N 1.0252(9) -0.2783(9) 1.0804(8)
C21 C 0.9680(10) -0.3124(11) 1.0944(9)
H13 H 0.9231 -0.3200 1.0683
C22 C 0.9745(9) -0.3375(10) 1.1489(9)
H14 H 0.9347 -0.3639 1.1584
C23 C 1.0393(9) -0.3231(10) 1.1874(8)
C24 C 1.0981(9) -0.2892(10) 1.1704(8)
H15 H 1.1438 -0.2808 1.1956
C25 C 1.0885(10) -0.2671(10) 1.1147(9)
H16 H 1.1284 -0.2439 1.1018
C26 C 1.0453(11) -0.3390(10) 1.2501(8)
C27 C 1.1593(7) -0.2822(7) 1.6423(7)
C28 C 1.2333(8) -0.2785(8) 1.6530(8)
H17 H 1.2563 -0.3205 1.6310
C29 C 1.2753(8) -0.2151(8) 1.6951(8)
H18 H 1.3259 -0.2139 1.7034
C30 C 1.2412(8) -0.1546(8) 1.7243(8)
C31 C 1.1672(8) -0.1558(8) 1.7130(8)
H19 H 1.1445 -0.1134 1.7336
C32 C 1.1272(8) -0.2197(7) 1.6715(8)
H20 H 1.0767 -0.2206 1.6627
C33 C 1.2817(9) -0.0878(8) 1.7667(9)
N3 N 1.4186(9) 0.1680(8) 1.9409(7)
C34 C 1.3480(10) 0.1607(10) 1.9262(11)
H21 H 1.3213 0.2004 1.9462
C35 C 1.3123(10) 0.0933(9) 1.8806(10)
H22 H 1.2615 0.0870 1.8704
C36 C 1.3527(8) 0.0373(8) 1.8515(8)
C37 C 1.4262(9) 0.0472(9) 1.8632(9)
H23 H 1.4543 0.0093 1.8411
C38 C 1.4595(9) 0.1157(9) 1.9096(9)
H24 H 1.5105 0.1243 1.9184
C39 C 1.3164(10) -0.0327(9) 1.8043(10)
C40 C 1.1492(8) -0.4495(7) 1.5678(7)
C41 C 1.1311(9) -0.4993(7) 1.5969(8)
H25 H 1.0945 -0.4916 1.6277
C42 C 1.1663(8) -0.5604(8) 1.5811(8)
H26 H 1.1537 -0.5936 1.6022
C43 C 1.2183(9) -0.5749(8) 1.5365(8)
C44 C 1.2381(9) -0.5252(8) 1.5076(8)
H27 H 1.2750 -0.5330 1.4770
C45 C 1.2030(8) -0.4641(8) 1.5241(8)
H28 H 1.2169 -0.4302 1.5041
C46 C 1.2529(10) -0.6385(9) 1.5222(9)
N4 N 1.4030(10) -0.8676(9) 1.4762(9)
C47 C 1.4374(11) -0.8012(11) 1.5001(13)
H29 H 1.4883 -0.7942 1.5097
C48 C 1.3987(11) -0.7409(11) 1.5114(13)
H30 H 1.4231 -0.6935 1.5306
C49 C 1.3261(10) -0.7516(9) 1.4944(11)
C50 C 1.2913(10) -0.8210(10) 1.4649(11)
H31 H 1.2412 -0.8300 1.4508
C51 C 1.3337(10) -0.8777(10) 1.4568(10)
H32 H 1.3110 -0.9258 1.4362
C52 C 1.2847(10) -0.6903(9) 1.5044(10)
Si2 Si 0.8993(3) -0.1369(3) 0.4151(3)
C53 C 0.9168(9) -0.1404(8) 0.5025(6)
C54 C 0.9224(11) -0.0805(9) 0.5618(7)
H33 H 0.9153 -0.0359 0.5582
C55 C 0.9377(10) -0.0804(8) 0.6265(8)
H34 H 0.9467 -0.0362 0.6652
C56 C 0.9397(11) -0.1452(8) 0.6341(7)
C57 C 0.9336(11) -0.2062(9) 0.5761(8)
H35 H 0.9367 -0.2513 0.5803
C58 C 0.9232(11) -0.2045(8) 0.5117(8)
H36 H 0.9204 -0.2482 0.4726
C59 C 0.9511(11) -0.1493(10) 0.7004(8)
N5 N 0.9961(11) -0.2037(10) 0.9280(9)
C60 C 0.9288(11) -0.2035(11) 0.9071(10)
H37 H 0.8905 -0.2149 0.9307
C61 C 0.9141(10) -0.1860(12) 0.8485(10)
H38 H 0.8661 -0.1868 0.8310
C62 C 0.9720(10) -0.1679(11) 0.8183(8)
C63 C 1.0414(10) -0.1637(13) 0.8452(11)
H39 H 1.0810 -0.1476 0.8261
C64 C 1.0524(11) -0.1840(14) 0.9022(11)
H40 H 1.0998 -0.1833 0.9212
C65 C 0.9591(10) -0.1545(10) 0.7548(8)
C66 C 0.8417(8) -0.2224(7) 0.3589(8)
C67 C 0.7674(8) -0.2260(9) 0.3499(10)
H41 H 0.7445 -0.1839 0.3716
C68 C 0.7257(9) -0.2901(9) 0.3097(9)
H42 H 0.6746 -0.2928 0.3055
C69 C 0.7601(8) -0.3495(8) 0.2761(8)
C70 C 0.8333(8) -0.3479(8) 0.2820(8)
H43 H 0.8561 -0.3893 0.2579
C71 C 0.8735(9) -0.2840(8) 0.3244(8)
H44 H 0.9244 -0.2824 0.3299
C72 C 0.7175(10) -0.4134(9) 0.2290(9)
N6 N 0.5377(9) -0.6504(8) 0.0713(7)
C73 C 0.6089(10) -0.6528(10) 0.0664(10)
H45 H 0.6260 -0.6945 0.0347
C74 C 0.6589(10) -0.5930(10) 0.1085(10)
H46 H 0.7094 -0.5960 0.1088
C75 C 0.6321(9) -0.5308(8) 0.1486(9)
C76 C 0.5595(9) -0.5289(9) 0.1531(9)
H47 H 0.5410 -0.4870 0.1830
C77 C 0.5127(9) -0.5910(9) 0.1120(9)
H48 H 0.4621 -0.5900 0.1137
C78 C 0.6798(10) -0.4674(10) 0.1938(10)
C79 C 0.8528(8) -0.0551(7) 0.4255(8)
C80 C 0.8824(9) -0.0012(8) 0.4041(8)
H49 H 0.9261 -0.0066 0.3825
C81 C 0.8483(8) 0.0595(8) 0.4142(8)
H50 H 0.8680 0.0949 0.3983
C82 C 0.7865(8) 0.0691(8) 0.4470(8)
C83 C 0.7565(9) 0.0169(8) 0.4690(9)
H51 H 0.7126 0.0223 0.4902
C84 C 0.7919(8) -0.0428(8) 0.4594(8)
H52 H 0.7731 -0.0770 0.4772
C85 C 0.7490(10) 0.1314(9) 0.4587(9)
N7 N 0.5971(8) 0.3575(7) 0.4914(7)
C86 C 0.5744(10) 0.2917(9) 0.4454(9)
H53 H 0.5310 0.2851 0.4173
C87 C 0.6119(9) 0.2318(9) 0.4367(9)
H54 H 0.5949 0.1857 0.4027
C88 C 0.6742(9) 0.2415(8) 0.4789(8)
C89 C 0.6962(9) 0.3084(8) 0.5289(8)
H55 H 0.7380 0.3161 0.5593
C90 C 0.6549(9) 0.3649(9) 0.5338(9)
H56 H 0.6691 0.4108 0.5691
C91 C 0.7143(9) 0.1805(9) 0.4706(9)
C92 C 0.9852(6) -0.1335(9) 0.3744(7)
C93 C 0.9811(8) -0.1388(9) 0.3058(7)
H57 H 0.9354 -0.1489 0.2803
C94 C 1.0419(8) -0.1294(9) 0.2752(8)
H58 H 1.0382 -0.1324 0.2291
C95 C 1.1083(8) -0.1157(10) 0.3111(8)
C96 C 1.1141(8) -0.1124(9) 0.3779(8)
H59 H 1.1601 -0.1049 0.4023
C97 C 1.0530(7) -0.1201(9) 0.4082(7)
H60 H 1.0574 -0.1159 0.4546
C98 C 1.1718(10) -0.1017(12) 0.2821(10)
N8 N 1.4121(13) -0.0252(15) 0.1847(13)
C99 C 1.4119(12) -0.0086(16) 0.2521(13)
H61 H 1.4525 0.0185 0.2825
C100 C 1.3501(11) -0.0320(13) 0.2774(10)
H62 H 1.3498 -0.0233 0.3249
C101 C 1.2910(10) -0.0670(13) 0.2334(10)
C102 C 1.2911(13) -0.0807(16) 0.1644(11)
H63 H 1.2490 -0.1019 0.1339
C103 C 1.3565(15) -0.0620(19) 0.1404(12)
H64 H 1.3604 -0.0760 0.0925
C104 C 1.2247(10) -0.0878(12) 0.2593(10)
Cu1 Cu 1.46422(17) -0.95054(12) 1.49109(14)
Cu2 Cu 1.46973(16) 0.26075(13) 2.01415(12)
Cu3 Cu 0.53728(14) 0.44702(12) 0.49721(12)
Cu4 Cu 1.0064(3) -0.23919(15) 1.00691(15)
C105 C 1.5957(10) -0.9030(9) 1.5738(10)
C106 C 1.6568(10) -0.8458(10) 1.6218(10)
H65 H 1.6508 -0.8392 1.6697
H66 H 1.6541 -0.7999 1.6162
H67 H 1.7038 -0.8626 1.6097
O1 O 1.5430(7) -0.8840(7) 1.5509(6)
O2 O 1.6060(7) -0.9660(7) 1.5682(6)
C107 C 1.5687(10) -1.0046(10) 1.3997(9)
C108 C 1.6106(11) -1.0119(11) 1.3350(9)
H68 H 1.6452 -1.0472 1.3291
H69 H 1.6365 -0.9650 1.3414
H70 H 1.5764 -1.0279 1.2940
O3 O 1.5204(8) -0.9650(7) 1.4094(7)
O4 O 1.5839(7) -1.0490(7) 1.4243(6)
C109 C 1.4649(14) 0.3158(12) 1.9183(12)
C110 C 1.4277(14) 0.3525(14) 1.8726(13)
H71 H 1.4267 0.3213 1.8240
H72 H 1.4550 0.3992 1.8808
H73 H 1.3783 0.3599 1.8849
O5 O 1.4273(8) 0.3140(7) 1.9633(7)
O6 O 1.5170(9) 0.2865(8) 1.8984(7)
C111 C 1.5607(15) 0.1783(12) 2.0529(12)
C112 C 1.5755(14) 0.1320(13) 2.0975(12)
H74 H 1.5670 0.0806 2.0683
H75 H 1.5431 0.1428 2.1344
H76 H 1.6257 0.1440 2.1176
O7 O 1.5051(9) 0.2059(8) 2.0676(7)
O8 O 1.6088(9) 0.1785(8) 2.0146(8)
C113 C 0.5912(9) 0.5870(8) 0.5866(8)
C114 C 0.6503(9) 0.6404(9) 0.6418(8)
H77 H 0.6289 0.6631 0.6852
H78 H 0.6696 0.6776 0.6257
H79 H 0.6894 0.6137 0.6489
O9 O 0.6032(6) 0.5230(6) 0.5666(5)
O10 O 0.5393(7) 0.6140(6) 0.5717(6)
C115 C 0.4312(8) 0.4813(8) 0.5919(8)
C116 C 0.3912(11) 0.4708(11) 0.6516(9)
H80 H 0.3551 0.5049 0.6654
H81 H 0.4261 0.4795 0.6909
H82 H 0.3672 0.4214 0.6358
O11 O 0.4782(7) 0.4405(6) 0.5714(6)
O12 O 0.4152(7) 0.5324(6) 0.5777(6)
C117 C 0.9838(10) -0.3731(10) 0.9118(10)
C118 C 0.9310(11) -0.4437(10) 0.8683(10)
H83 H 0.8870 -0.4443 0.8916
H84 H 0.9549 -0.4865 0.8640
H85 H 0.9185 -0.4440 0.8225
O13 O 1.0426(10) -0.3750(9) 0.8897(9)
O14 O 0.9484(9) -0.3298(9) 0.9509(9)
C119 C 1.0510(10) -0.1173(10) 1.0856(10)
C120 C 1.0889(12) -0.0370(10) 1.1358(11)
H86 H 1.0649 -0.0003 1.1255
H87 H 1.1400 -0.0322 1.1280
H88 H 1.0844 -0.0303 1.1838
O15 O 1.0995(9) -0.1480(8) 1.0566(8)
O16 O 0.9876(11) -0.1188(11) 1.0980(11)
N1A N 1.3760(8) 0.2854(8) 2.0828(7)
N6_2 N 1.5377(9) 0.3496(8) 2.0713(7)
Cu1A Cu 1.53578(17) -1.04946(12) 1.50891(14)
Cu2_2 Cu 0.46973(16) -0.73925(13) 0.01415(12)
Cu2A Cu 0.53027(16) -0.26075(13) 1.98585(12)
Cu3A Cu 0.46272(14) 0.55298(12) 0.50279(12)
O2A O 1.3940(7) -1.0340(7) 1.4318(6)
O4A O 1.4161(7) -0.9510(7) 1.5757(6)
O10A O 0.4607(7) 0.3860(6) 0.4283(6)
O12A O 0.5848(7) 0.4676(6) 0.4223(6)
loop_
_geom_bond_atom_site_label_1
_geom_bond_atom_site_label_2
_geom_bond_site_symmetry_1
_geom_bond_site_symmetry_2
Si1 C1 1_555 1_555
C1 C2 1_555 1_555
C2 H1 1_555 1_555
C3 C2 1_555 1_555
H2 C3 1_555 1_555
C4 C3 1_555 1_555
C5 C4 1_555 1_555
H3 C5 1_555 1_555
C6 C1 1_555 1_555
H4 C6 1_555 1_555
C7 C4 1_555 1_555
N1 C8 1_555 1_555
C8 H5 1_555 1_555
C9 C8 1_555 1_555
H6 C9 1_555 1_555
C10 C9 1_555 1_555
C11 C10 1_555 1_555
H7 C11 1_555 1_555
C12 N1 1_555 1_555
H8 C12 1_555 1_555
C13 C7 1_555 1_555
C14 Si1 1_555 1_555
C15 C14 1_555 1_555
H9 C15 1_555 1_555
C16 C15 1_555 1_555
H10 C16 1_555 1_555
C17 C16 1_555 1_555
C18 C17 1_555 1_555
H11 C18 1_555 1_555
C19 C14 1_555 1_555
H12 C19 1_555 1_555
C20 C17 1_555 1_555
N2 C21 1_555 1_555
C21 H13 1_555 1_555
C22 C21 1_555 1_555
H14 C22 1_555 1_555
C23 C22 1_555 1_555
C24 C23 1_555 1_555
H15 C24 1_555 1_555
C25 N2 1_555 1_555
H16 C25 1_555 1_555
C26 C20 1_555 1_555
C27 Si1 1_555 1_555
C28 C27 1_555 1_555
H17 C28 1_555 1_555
C29 C28 1_555 1_555
H18 C29 1_555 1_555
C30 C29 1_555 1_555
C31 C30 1_555 1_555
H19 C31 1_555 1_555
C32 C27 1_555 1_555
H20 C32 1_555 1_555
C33 C30 1_555 1_555
N3 C34 1_555 1_555
C34 H21 1_555 1_555
C35 C34 1_555 1_555
H22 C35 1_555 1_555
C36 C35 1_555 1_555
C37 C36 1_555 1_555
H23 C37 1_555 1_555
C38 N3 1_555 1_555
H24 C38 1_555 1_555
C39 C33 1_555 1_555
C40 Si1 1_555 1_555
C41 C40 1_555 1_555
H25 C41 1_555 1_555
C42 C41 1_555 1_555
H26 C42 1_555 1_555
C43 C42 1_555 1_555
C44 C43 1_555 1_555
H27 C44 1_555 1_555
C45 C40 1_555 1_555
H28 C45 1_555 1_555
C46 C43 1_555 1_555
N4 C47 1_555 1_555
C47 H29 1_555 1_555
C48 C47 1_555 1_555
H30 C48 1_555 1_555
C49 C48 1_555 1_555
C50 C49 1_555 1_555
H31 C50 1_555 1_555
C51 N4 1_555 1_555
H32 C51 1_555 1_555
C52 C46 1_555 1_555
Si2 C53 1_555 1_555
C53 C54 1_555 1_555
C54 H33 1_555 1_555
C55 C54 1_555 1_555
H34 C55 1_555 1_555
C56 C55 1_555 1_555
C57 C56 1_555 1_555
H35 C57 1_555 1_555
C58 C53 1_555 1_555
H36 C58 1_555 1_555
C59 C56 1_555 1_555
N5 C60 1_555 1_555
C60 H37 1_555 1_555
C61 C60 1_555 1_555
H38 C61 1_555 1_555
C62 C61 1_555 1_555
C63 C62 1_555 1_555
H39 C63 1_555 1_555
C64 N5 1_555 1_555
H40 C64 1_555 1_555
C65 C59 1_555 1_555
C66 Si2 1_555 1_555
C67 C66 1_555 1_555
H41 C67 1_555 1_555
C68 C67 1_555 1_555
H42 C68 1_555 1_555
C69 C68 1_555 1_555
C70 C69 1_555 1_555
H43 C70 1_555 1_555
C71 C66 1_555 1_555
H44 C71 1_555 1_555
C72 C69 1_555 1_555
N6 C73 1_555 1_555
C73 H45 1_555 1_555
C74 C73 1_555 1_555
H46 C74 1_555 1_555
C75 C74 1_555 1_555
C76 C75 1_555 1_555
H47 C76 1_555 1_555
C77 N6 1_555 1_555
H48 C77 1_555 1_555
C78 C72 1_555 1_555
C79 Si2 1_555 1_555
C80 C79 1_555 1_555
H49 C80 1_555 1_555
C81 C80 1_555 1_555
H50 C81 1_555 1_555
C82 C81 1_555 1_555
C83 C82 1_555 1_555
H51 C83 1_555 1_555
C84 C79 1_555 1_555
H52 C84 1_555 1_555
C85 C82 1_555 1_555
N7 C86 1_555 1_555
C86 H53 1_555 1_555
C87 C86 1_555 1_555
H54 C87 1_555 1_555
C88 C87 1_555 1_555
C89 C88 1_555 1_555
H55 C89 1_555 1_555
C90 N7 1_555 1_555
H56 C90 1_555 1_555
C91 C85 1_555 1_555
C92 Si2 1_555 1_555
C93 C92 1_555 1_555
H57 C93 1_555 1_555
C94 C93 1_555 1_555
H58 C94 1_555 1_555
C95 C94 1_555 1_555
C96 C95 1_555 1_555
H59 C96 1_555 1_555
C97 C92 1_555 1_555
H60 C97 1_555 1_555
C98 C95 1_555 1_555
N8 C99 1_555 1_555
C99 H61 1_555 1_555
C100 C99 1_555 1_555
H62 C100 1_555 1_555
C101 C100 1_555 1_555
C102 C101 1_555 1_555
H63 C102 1_555 1_555
C103 N8 1_555 1_555
H64 C103 1_555 1_555
C104 C98 1_555 1_555
Cu1 N4 1_555 1_555
Cu2 N3 1_555 1_555
Cu3 N7 1_555 1_555
Cu4 N2 1_555 1_555
C105 C106 1_555 1_555
C106 H65 1_555 1_555
H66 C106 1_555 1_555
H67 C106 1_555 1_555
O1 Cu1 1_555 1_555
O2 C105 1_555 1_555
C107 C108 1_555 1_555
C108 H68 1_555 1_555
H69 C108 1_555 1_555
H70 C108 1_555 1_555
O3 Cu1 1_555 1_555
O4 C107 1_555 1_555
C109 C110 1_555 1_555
C110 H71 1_555 1_555
H72 C110 1_555 1_555
H73 C110 1_555 1_555
O5 Cu2 1_555 1_555
O6 C109 1_555 1_555
C111 C112 1_555 1_555
C112 H74 1_555 1_555
H75 C112 1_555 1_555
H76 C112 1_555 1_555
O7 Cu2 1_555 1_555
O8 C111 1_555 1_555
C113 C114 1_555 1_555
C114 H77 1_555 1_555
H78 C114 1_555 1_555
H79 C114 1_555 1_555
O9 Cu3 1_555 1_555
O10 C113 1_555 1_555
C115 C116 1_555 1_555
C116 H80 1_555 1_555
H81 C116 1_555 1_555
H82 C116 1_555 1_555
O11 Cu3 1_555 1_555
O12 C115 1_555 1_555
C117 C118 1_555 1_555
C118 H83 1_555 1_555
H84 C118 1_555 1_555
H85 C118 1_555 1_555
O13 C117 1_555 1_555
O14 Cu4 1_555 1_555
C119 C120 1_555 1_555
C120 H86 1_555 1_555
H87 C120 1_555 1_555
H88 C120 1_555 1_555
O15 Cu4 1_555 1_555
O16 Cu4 1_555 1_555
N1A Cu2 1_555 1_555
N6_2 Cu2 1_555 1_555
Cu1A Cu1 1_555 1_555
Cu2_2 N6 1_555 1_555
Cu2A N1 1_555 1_555
Cu3A Cu3 1_555 1_555
O2A Cu1 1_555 1_555
O4A Cu1 1_555 1_555
O10A Cu3 1_555 1_555
O12A Cu3 1_555 1_555
C5 C6 1_555 1_555
C10 C13 1_555 1_555
C11 C12 1_555 1_555
C18 C19 1_555 1_555
C23 C26 1_555 1_555
C24 C25 1_555 1_555
C31 C32 1_555 1_555
C36 C39 1_555 1_555
C37 C38 1_555 1_555
C44 C45 1_555 1_555
C49 C52 1_555 1_555
C50 C51 1_555 1_555
C57 C58 1_555 1_555
N5 Cu4 1_555 1_555
C62 C65 1_555 1_555
C63 C64 1_555 1_555
C70 C71 1_555 1_555
C75 C78 1_555 1_555
C76 C77 1_555 1_555
C83 C84 1_555 1_555
C88 C91 1_555 1_555
C89 C90 1_555 1_555
C96 C97 1_555 1_555
C101 C104 1_555 1_555
C102 C103 1_555 1_555
C105 O1 1_555 1_555
O2 Cu1A 1_555 1_555
C107 O3 1_555 1_555
O4 Cu1A 1_555 1_555
C109 O5 1_555 1_555
C111 O7 1_555 1_555
C113 O9 1_555 1_555
O10 Cu3A 1_555 1_555
C115 O11 1_555 1_555
O12 Cu3A 1_555 1_555
C117 O14 1_555 1_555
C119 O15 1_555 1_555
C119 O16 1_555 1_555

#END
