
#######################################################################
#
#                 Cambridge Crystallographic Data Centre
#                                CCDC 
#
#######################################################################
#
# If this CIF has been generated from an entry in the Cambridge 
# Structural Database, then it will include bibliographic, chemical, 
# crystal, experimental, refinement or atomic coordinate data resulting 
# from the CCDC's data processing and validation procedures.
#
#######################################################################

data_EKEKIQ
_chemical_formula_moiety         'C38 H12 N5 O11 Zn7'
_symmetry_cell_setting           monoclinic
_symmetry_space_group_name_H-M   'C 2/c'
_symmetry_Int_Tables_number      15
_space_group_name_Hall           '-C 2yc'
loop_
_symmetry_equiv_pos_site_id
_symmetry_equiv_pos_as_xyz
1 x,y,z
2 -x,y,1/2-z
3 1/2+x,1/2+y,z
4 1/2-x,1/2+y,1/2-z
5 -x,-y,-z
6 x,-y,1/2+z
7 1/2-x,1/2-y,-z
8 1/2+x,1/2-y,1/2+z
_cell_length_a                   16.3307(5)
_cell_length_b                   29.0681(8)
_cell_length_c                   9.2803(2)
_cell_angle_alpha                90
_cell_angle_beta                 96.324(3)
_cell_angle_gamma                90
_cell_volume                     4378.57
loop_
_atom_site_label
_atom_site_type_symbol
_atom_site_fract_x
_atom_site_fract_y
_atom_site_fract_z
Zn1 Zn -0.00792(2) 0.230648(14) 0.57077(4)
C1 C 0.0308(3) 0.38894(12) 0.6390(4)
C2 C 0.0000 0.60789(16) 0.7500
O1 O 0.01239(19) 0.29361(8) 0.6341(3)
O2 O -0.38512(16) 0.70960(11) 0.8808(4)
C3 C -0.0735(2) 0.53637(11) 0.7569(4)
C4 C 0.0000 0.31380(15) 0.7500
O3 O -0.42252(17) 0.68845(10) 0.6518(3)
C5 C -0.3732(2) 0.68867(12) 0.7657(4)
C6 C -0.0736(2) 0.58439(11) 0.7565(4)
C7 C -0.1519(2) 0.61032(11) 0.7612(4)
C8 C 0.0000 0.46119(15) 0.7500
C9 C 0.0000 0.36446(15) 0.7500
C10 C 0.0000 0.51185(15) 0.7500
C11 C 0.0309(2) 0.43626(12) 0.6394(4)
C12 C -0.2965(2) 0.66102(12) 0.7660(4)
C13 C -0.2172(3) 0.60432(17) 0.6553(5)
C14 C -0.2879(3) 0.63026(17) 0.6556(5)
C15 C -0.2324(3) 0.66606(18) 0.8749(6)
H1 H -0.2376 0.6864 0.9507
C16 C -0.1609(3) 0.64119(19) 0.8722(6)
H2 H -0.1181 0.6451 0.9458
N1 N 0.0000 0.6537(6) 0.7500
C17 C 0.1136(8) 0.2232(5) 0.2032(16)
C18 C 0.0000 0.23061(18) 0.2500
C19 C 0.1411(15) 0.1893(8) 0.273(3)
C20 C 0.1111(9) 0.2255(5) 0.3450(18)
H3 H 0.051(3) 0.3753(15) 0.566(5)
H4 H -0.333(3) 0.6233(16) 0.589(5)
H5 H -0.211(3) 0.576(2) 0.581(7)
H6 H 0.055(6) 0.457(3) 0.535(7)
N2 N 0.0264(4) 0.2283(2) 0.3718(8)
N3 N -0.0367(4) 0.22867(18) 0.3609(7)
C21 C 0.2498(13) 0.2048(7) 0.326(2)
C22 C 0.1001(8) 0.2444(5) 0.2778(16)
C1A C -0.0308(3) 0.38894(12) 0.8610(4)
O1A O -0.01239(19) 0.29361(8) 0.8659(3)
O2A O 0.38512(16) 0.70960(11) 0.6192(4)
C3A C 0.0735(2) 0.53637(11) 0.7431(4)
O3A O 0.42252(17) 0.68845(10) 0.8482(3)
C5A C 0.3732(2) 0.68867(12) 0.7343(4)
C6A C 0.0736(2) 0.58439(11) 0.7435(4)
C7A C 0.1519(2) 0.61032(11) 0.7388(4)
C11A C -0.0309(2) 0.43626(12) 0.8606(4)
C12A C 0.2965(2) 0.66102(12) 0.7340(4)
C13A C 0.2172(3) 0.60432(17) 0.8447(5)
C14A C 0.2879(3) 0.63026(17) 0.8444(5)
C15A C 0.2324(3) 0.66606(18) 0.6251(6)
H1A H 0.2376 0.6864 0.5493
C16A C 0.1609(3) 0.64119(19) 0.6278(6)
H2A H 0.1181 0.6451 0.5542
H3A H -0.051(3) 0.3753(15) 0.934(5)
H4A H 0.333(3) 0.6233(16) 0.911(5)
H5A H 0.211(3) 0.576(2) 0.919(7)
H6A H -0.055(6) 0.457(3) 0.965(7)
C17A C -0.1136(8) 0.2232(5) 0.2968(16)
C19A C -0.1411(15) 0.1893(8) 0.227(3)
C20A C -0.1111(9) 0.2255(5) 0.1550(18)
N2A N -0.0264(4) 0.2283(2) 0.1282(8)
N3A N 0.0367(4) 0.22867(18) 0.1391(7)
C21A C -0.2498(13) 0.2048(7) 0.174(2)
C22A C -0.1001(8) 0.2444(5) 0.2222(16)
Zn1A Zn 0.00792(2) 0.230648(14) -0.07077(4)
Zn1A_2 Zn 0.00792(2) 0.230648(14) 0.92923(4)
Zn1B Zn -0.50792(2) 0.730648(14) 0.57077(4)
Zn1B_2 Zn 0.49208(2) 0.730648(14) 0.57077(4)
Zn1C Zn -0.49208(2) 0.730648(14) 0.92923(4)
Zn1C_2 Zn 0.50792(2) 0.730648(14) 0.92923(4)
O1A_2 O -0.01239(19) 0.29361(8) -0.1341(3)
O2B O 0.11488(16) 0.20960(11) -0.1192(4)
O2C O -0.11488(16) 0.20960(11) 0.6192(4)
O3B O 0.07748(17) 0.18845(10) 0.6518(3)
O3C O -0.07748(17) 0.18845(10) -0.1518(3)
loop_
_geom_bond_atom_site_label_1
_geom_bond_atom_site_label_2
_geom_bond_site_symmetry_1
_geom_bond_site_symmetry_2
Zn1 O1 1_555 1_555
C1 C9 1_555 1_555
C2 C6 1_555 1_555
O1 C4 1_555 1_555
O2 C5 1_555 1_555
C3 C6 1_555 1_555
C4 C9 1_555 1_555
O3 C5 1_555 1_555
C5 C12 1_555 1_555
C6 C7 1_555 1_555
C7 C13 1_555 1_555
C8 C10 1_555 1_555
C9 C1A 1_555 1_555
C10 C3 1_555 1_555
C11 C1 1_555 1_555
C12 C14 1_555 1_555
C13 C14 1_555 1_555
C14 H4 1_555 1_555
C15 C12 1_555 1_555
H1 C15 1_555 1_555
C16 C7 1_555 1_555
H2 C16 1_555 1_555
N1 C2 1_555 1_555
C17 C20 1_555 1_555
C18 N2 1_555 1_555
C19 C21 1_555 1_555
C20 N2 1_555 1_555
H3 C1 1_555 1_555
H5 C13 1_555 1_555
H6 C11 1_555 1_555
N2 Zn1 1_555 1_555
N3 Zn1 1_555 1_555
C22 C18 1_555 1_555
C1A C11A 1_555 1_555
O1A C4 1_555 1_555
O2A C5A 1_555 1_555
C3A C10 1_555 1_555
O3A C5A 1_555 1_555
C5A C12A 1_555 1_555
C6A C2 1_555 1_555
C7A C6A 1_555 1_555
C11A C8 1_555 1_555
C12A C14A 1_555 1_555
C13A C7A 1_555 1_555
C14A C13A 1_555 1_555
C15A C12A 1_555 1_555
H1A C15A 1_555 1_555
C16A C7A 1_555 1_555
H2A C16A 1_555 1_555
H3A C1A 1_555 1_555
H4A C14A 1_555 1_555
H5A C13A 1_555 1_555
H6A C11A 1_555 1_555
C17A N3 1_555 1_555
C19A C21A 1_555 1_555
C20A C17A 1_555 1_555
N2A C18 1_555 1_555
N3A C17 1_555 1_555
C22A C18 1_555 1_555
Zn1A N2A 1_555 1_555
Zn1A_2 O1A 1_555 1_555
Zn1B O3 1_555 1_555
Zn1B_2 O2A 1_555 1_555
Zn1C O2 1_555 1_555
Zn1C_2 O3A 1_555 1_555
O1A_2 Zn1A 1_555 1_555
O2B Zn1A 1_555 1_555
O2C Zn1 1_555 1_555
O3B Zn1 1_555 1_555
O3C Zn1A 1_555 1_555
C8 C11 1_555 1_555
C15 C16 1_555 1_555
C18 N3 1_555 1_555
C18 N3A 1_555 1_555
C19 C22 1_555 1_555
C3A C6A 1_555 1_555
C15A C16A 1_555 1_555
C19A C22A 1_555 1_555
C20A N2A 1_555 1_555
N3A Zn1A 1_555 1_555

#END
