
#######################################################################
#
#                 Cambridge Crystallographic Data Centre
#                                CCDC 
#
#######################################################################
#
# If this CIF has been generated from an entry in the Cambridge 
# Structural Database, then it will include bibliographic, chemical, 
# crystal, experimental, refinement or atomic coordinate data resulting 
# from the CCDC's data processing and validation procedures.
#
#######################################################################

data_EKEKOW
_chemical_formula_moiety         'C40 H26 N4 O10 Zn7'
_symmetry_cell_setting           monoclinic
_symmetry_space_group_name_H-M   'C 2/c'
_symmetry_Int_Tables_number      15
_space_group_name_Hall           '-C 2yc'
loop_
_symmetry_equiv_pos_site_id
_symmetry_equiv_pos_as_xyz
1 x,y,z
2 -x,y,1/2-z
3 1/2+x,1/2+y,z
4 1/2-x,1/2+y,1/2-z
5 -x,-y,-z
6 x,-y,1/2+z
7 1/2-x,1/2-y,-z
8 1/2+x,1/2-y,1/2+z
_cell_length_a                   17.1126(15)
_cell_length_b                   27.766(3)
_cell_length_c                   9.3275(6)
_cell_angle_alpha                90
_cell_angle_beta                 92.046(7)
_cell_angle_gamma                90
_cell_volume                     4429.12
loop_
_atom_site_label
_atom_site_type_symbol
_atom_site_fract_x
_atom_site_fract_y
_atom_site_fract_z
Zn1 Zn 0.00208(3) 0.29272(2) -0.07171(5)
C1 C 0.0000 0.29386(19) 0.2500
C2 C 0.5000 0.4971(2) -0.2500
C3 C 0.4292(3) 0.42116(16) -0.2476(4)
C4 C 0.5086(4) 0.62545(19) -0.3763(5)
H1 H 0.5147 0.6418 -0.4622
C5 C 0.5000 0.3966(2) -0.2500
C6 C 0.4294(3) 0.47116(17) -0.2473(5)
O1 O 0.5037(3) 0.72458(13) -0.3675(4)
C7 C 0.5000 0.5503(2) -0.2500
C8 C 0.5000 0.6513(2) -0.2500
C9 C 0.5000 0.7044(2) -0.2500
C10 C 0.3531(3) 0.39523(16) -0.2471(5)
C11 C 0.5080(4) 0.57617(18) -0.3754(5)
H2 H 0.5132 0.5596 -0.4613
C12 C 0.2074(3) 0.34955(17) -0.2446(5)
C13 C 0.1289(3) 0.32665(17) -0.2439(5)
O2 O 0.1036(3) 0.3151(3) -0.1291(5)
N1 N -0.0003(7) 0.2808(3) 0.1326(6)
O3 O 0.0923(4) 0.3229(3) -0.3597(5)
C14 C 0.2590(9) 0.3438(7) -0.3456(15)
H3 H 0.2448 0.3244 -0.4234
C15 C 0.2325(13) 0.3809(9) -0.132(2)
H4 H 0.1988 0.3879 -0.0589
C16 C 0.3323(10) 0.3644(7) -0.3440(17)
H5 H 0.3672 0.3560 -0.4140
C17 C 0.3043(11) 0.4005(9) -0.1302(18)
H6 H 0.3220 0.4178 -0.0501
C18 C -0.0685(14) 0.2448(7) 0.183(2)
C19 C 0.0761(16) 0.2480(9) 0.188(2)
N2 N 0.5000 0.3434(8) -0.2500
C20 C -0.2396(17) 0.3477(12) 0.245(2)
C21 C -0.2888(11) 0.3978(11) 0.249(3)
C22 C -0.0760(8) 0.3375(5) 0.249(3)
H7 H -0.0721 0.3568 0.3362
H8 H -0.0720 0.3588 0.1676
C23 C -0.1571(10) 0.3095(13) 0.241(2)
H9 H -0.1588 0.2872 0.3210
H10 H -0.1600 0.2907 0.1533
H11 H -0.2648 0.4213 0.1891
H12 H -0.2891 0.4095 0.3458
H13 H -0.3416 0.3921 0.2146
N1A N 0.0003(7) 0.2808(3) 0.3674(6)
C18A C 0.0685(14) 0.2448(7) 0.317(2)
C19A C -0.0761(16) 0.2480(9) 0.312(2)
C20A C 0.2396(17) 0.3477(12) 0.255(2)
C21A C 0.2888(11) 0.3978(11) 0.251(3)
C22A C 0.0760(8) 0.3375(5) 0.251(3)
H7A H 0.0721 0.3568 0.1638
H8A H 0.0720 0.3588 0.3324
C23A C 0.1571(10) 0.3095(13) 0.259(2)
H9A H 0.1588 0.2872 0.1790
H10A H 0.1600 0.2907 0.3467
H11A H 0.2648 0.4213 0.3109
H12A H 0.2891 0.4095 0.1542
H13A H 0.3416 0.3921 0.2854
C3A C 0.5708(3) 0.42116(16) -0.2524(4)
C4A C 0.4914(4) 0.62545(19) -0.1237(5)
H1A H 0.4853 0.6418 -0.0378
C6A C 0.5706(3) 0.47116(17) -0.2527(5)
O1A O 0.4963(3) 0.72458(13) -0.1325(4)
C10A C 0.6469(3) 0.39523(16) -0.2529(5)
C11A C 0.4920(4) 0.57617(18) -0.1246(5)
H2A H 0.4868 0.5596 -0.0387
C12A C 0.7926(3) 0.34955(17) -0.2554(5)
C13A C 0.8711(3) 0.32665(17) -0.2561(5)
O2A O 0.8964(3) 0.3151(3) -0.3709(5)
O3A O 0.9077(4) 0.3229(3) -0.1403(5)
C14A C 0.7410(9) 0.3438(7) -0.1544(15)
H3A H 0.7552 0.3244 -0.0766
C15A C 0.7675(13) 0.3809(9) -0.368(2)
H4A H 0.8012 0.3879 -0.4411
C16A C 0.6677(10) 0.3644(7) -0.1560(17)
H5A H 0.6328 0.3560 -0.0860
C17A C 0.6957(11) 0.4005(9) -0.3698(18)
H6A H 0.6780 0.4178 -0.4499
Zn1A Zn -0.00208(3) 0.29272(2) -0.42829(5)
Zn1_2 Zn 1.00208(3) 0.29272(2) -0.07171(5)
Zn1A_2 Zn -0.00208(3) 0.29272(2) 0.57171(5)
Zn1A_3 Zn 0.99792(3) 0.29272(2) -0.42829(5)
Zn1B Zn 0.50208(3) 0.79272(2) -0.07171(5)
Zn1C Zn 0.49792(3) 0.79272(2) -0.42829(5)
O1B O 0.0037(3) 0.22458(13) -0.3675(4)
O1C O -0.0037(3) 0.22458(13) -0.1325(4)
O2A_2 O -0.1036(3) 0.3151(3) -0.3709(5)
N1A_2 N 0.0003(7) 0.2808(3) -0.6326(6)
O3A_2 O -0.0923(4) 0.3229(3) -0.1403(5)
loop_
_geom_bond_atom_site_label_1
_geom_bond_atom_site_label_2
_geom_bond_site_symmetry_1
_geom_bond_site_symmetry_2
Zn1 O2 1_555 1_555
C1 N1 1_555 1_555
C2 C6 1_555 1_555
C3 C5 1_555 1_555
C4 H1 1_555 1_555
C5 N2 1_555 1_555
C6 C3 1_555 1_555
O1 C9 1_555 1_555
C7 C2 1_555 1_555
C8 C4 1_555 1_555
C9 C8 1_555 1_555
C10 C3 1_555 1_555
C11 C4 1_555 1_555
H2 C11 1_555 1_555
C12 C13 1_555 1_555
C13 O2 1_555 1_555
N1 Zn1 1_555 1_555
O3 C13 1_555 1_555
C14 C12 1_555 1_555
H3 C14 1_555 1_555
C15 C12 1_555 1_555
H4 C15 1_555 1_555
C16 C10 1_555 1_555
H5 C16 1_555 1_555
C17 C10 1_555 1_555
H6 C17 1_555 1_555
C18 N1 1_555 1_555
C19 N1 1_555 1_555
C20 C21 1_555 1_555
C21 H11 1_555 1_555
C22 C1 1_555 1_555
H7 C22 1_555 1_555
H8 C22 1_555 1_555
C23 C20 1_555 1_555
H9 C23 1_555 1_555
H10 C23 1_555 1_555
H12 C21 1_555 1_555
H13 C21 1_555 1_555
N1A C1 1_555 1_555
C18A C19 1_555 1_555
C19A C18 1_555 1_555
C20A C21A 1_555 1_555
C21A H11A 1_555 1_555
C22A C1 1_555 1_555
H7A C22A 1_555 1_555
H8A C22A 1_555 1_555
C23A C20A 1_555 1_555
H9A C23A 1_555 1_555
H10A C23A 1_555 1_555
H12A C21A 1_555 1_555
H13A C21A 1_555 1_555
C3A C5 1_555 1_555
C4A C8 1_555 1_555
H1A C4A 1_555 1_555
C6A C2 1_555 1_555
O1A C9 1_555 1_555
C10A C3A 1_555 1_555
C11A C7 1_555 1_555
H2A C11A 1_555 1_555
C12A C13A 1_555 1_555
C13A O2A 1_555 1_555
O2A Zn1A_3 1_555 1_555
O3A C13A 1_555 1_555
C14A C12A 1_555 1_555
H3A C14A 1_555 1_555
C15A C12A 1_555 1_555
H4A C15A 1_555 1_555
C16A C10A 1_555 1_555
H5A C16A 1_555 1_555
C17A C10A 1_555 1_555
H6A C17A 1_555 1_555
Zn1A O3 1_555 1_555
Zn1_2 O3A 1_555 1_555
Zn1A_2 N1A 1_555 1_555
Zn1B O1A 1_555 1_555
Zn1C O1 1_555 1_555
O1B Zn1A 1_555 1_555
O1C Zn1 1_555 1_555
O2A_2 Zn1A 1_555 1_555
N1A_2 Zn1A 1_555 1_555
O3A_2 Zn1 1_555 1_555
C7 C11 1_555 1_555
C14 C16 1_555 1_555
C15 C17 1_555 1_555
C22 C23 1_555 1_555
N1A C18A 1_555 1_555
N1A C19A 1_555 1_555
C22A C23A 1_555 1_555
C3A C6A 1_555 1_555
C4A C11A 1_555 1_555
C14A C16A 1_555 1_555
C15A C17A 1_555 1_555

#END
