
#######################################################################
#
#                 Cambridge Crystallographic Data Centre
#                                CCDC 
#
#######################################################################
#
# If this CIF has been generated from an entry in the Cambridge 
# Structural Database, then it will include bibliographic, chemical, 
# crystal, experimental, refinement or atomic coordinate data resulting 
# from the CCDC's data processing and validation procedures.
#
#######################################################################

data_WEGFUL
_chemical_formula_moiety         '(C27 H23 Eu2 N7 O19)n'
_symmetry_cell_setting           monoclinic
_symmetry_space_group_name_H-M   'P 21/c'
_symmetry_Int_Tables_number      14
_space_group_name_Hall           '-P 2ybc'
loop_
_symmetry_equiv_pos_site_id
_symmetry_equiv_pos_as_xyz
1 x,y,z
2 -x,1/2+y,1/2-z
3 -x,-y,-z
4 x,1/2-y,1/2+z
_cell_length_a                   10.2031(10)
_cell_length_b                   17.5346(12)
_cell_length_c                   11.4588(11)
_cell_angle_alpha                90
_cell_angle_beta                 109.874(5)
_cell_angle_gamma                90
_cell_volume                     1927.97
loop_
_atom_site_label
_atom_site_type_symbol
_atom_site_fract_x
_atom_site_fract_y
_atom_site_fract_z
Eu1 Eu 0.50940(3) 0.00728(2) 0.68105(3)
O1 O 0.6470(6) -0.0820(4) 0.8447(5)
O2 O 0.7036(7) 0.0369(4) 0.8816(6)
O3 O 0.5608(6) 0.1410(3) 0.6565(4)
O4 O 0.5255(6) 0.0852(3) 0.4773(5)
O5 O 0.4124(6) 0.4293(3) 0.3170(5)
O6 O 0.7286(6) -0.0151(4) 0.6537(5)
O7 O 0.7103(5) -0.0477(3) 0.4591(4)
O8 O 1.3537(5) -0.0821(3) 0.7255(5)
N1 N 0.7318(9) -0.0319(6) 0.9091(6)
N2 N 0.4460(6) 0.3619(4) 0.3695(6)
N3 N 1.2147(6) -0.0746(4) 0.6892(5)
C1 C 0.5380(7) 0.1440(4) 0.5425(7)
C2 C 0.5086(7) 0.2211(4) 0.4800(6)
C3 C 0.5509(8) 0.2878(4) 0.5498(6)
H1 H 0.5992 0.2851 0.6346
C4 C 0.5204(8) 0.3570(5) 0.4914(6)
H2 H 0.5516 0.4014 0.5367
C5 C 0.4053(9) 0.2981(5) 0.3009(6)
H3 H 0.3550 0.3021 0.2166
C6 C 0.4372(9) 0.2271(5) 0.3541(7)
H4 H 0.4109 0.1834 0.3057
C7 C 0.7771(7) -0.0382(4) 0.5734(7)
C8 C 0.9303(6) -0.0545(4) 0.6169(6)
C9 C 1.0189(8) -0.0314(5) 0.7336(7)
H5 H 0.9816 -0.0086 0.7886
C10 C 1.1610(7) -0.0418(5) 0.7684(7)
H6 H 1.2192 -0.0262 0.8464
C11 C 1.1343(8) -0.1004(5) 0.5786(7)
H7 H 1.1746 -0.1255 0.5277
C12 C 0.9920(8) -0.0902(5) 0.5394(7)
H8 H 0.9368 -0.1070 0.4611
O10 O 0.8318(11) -0.0490(8) 0.9949(8)
Eu1B Eu 0.49060(3) -0.00728(2) 0.31895(3)
Eu1_2 Eu 1.50940(3) 0.00728(2) 0.68105(3)
Eu1A Eu 0.49060(3) -0.49272(2) 0.81895(3)
Eu1B_2 Eu -0.50940(3) -0.00728(2) 0.31895(3)
Eu1C Eu 0.50940(3) 0.49272(2) 0.18105(3)
O1B O 0.3530(6) 0.0820(4) 0.1553(5)
O2B O 0.2964(7) -0.0369(4) 0.1184(6)
O3B O 0.4392(6) -0.1410(3) 0.3435(4)
O4B O 0.4745(6) -0.0852(3) 0.5227(5)
O5B O 0.5876(6) -0.4293(3) 0.6830(5)
O5A O 0.5876(6) -0.0707(3) 0.1830(5)
O5C O 0.4124(6) 0.0707(3) 0.8170(5)
O6B O 0.2714(6) 0.0151(4) 0.3463(5)
O7B O 0.2897(5) 0.0477(3) 0.5409(4)
O8B O -0.3537(5) 0.0821(3) 0.2745(5)
O8_2 O 0.3537(5) -0.0821(3) 0.7255(5)
O8B_2 O 0.6463(5) 0.0821(3) 0.2745(5)
N1B N 0.2682(9) 0.0319(6) 0.0909(6)
N2B N 0.5540(6) -0.3619(4) 0.6305(6)
N3B N -0.2147(6) 0.0746(4) 0.3108(5)
C1B C 0.4620(7) -0.1440(4) 0.4575(7)
C2B C 0.4914(7) -0.2211(4) 0.5200(6)
C3B C 0.4491(8) -0.2878(4) 0.4502(6)
H1B H 0.4008 -0.2851 0.3654
C4B C 0.4796(8) -0.3570(5) 0.5086(6)
H2B H 0.4484 -0.4014 0.4633
C5B C 0.5947(9) -0.2981(5) 0.6991(6)
H3B H 0.6450 -0.3021 0.7834
C6B C 0.5628(9) -0.2271(5) 0.6459(7)
H4B H 0.5891 -0.1834 0.6943
C7B C 0.2229(7) 0.0382(4) 0.4266(7)
C8B C 0.0697(6) 0.0545(4) 0.3831(6)
C9B C -0.0189(8) 0.0314(5) 0.2664(7)
H5B H 0.0184 0.0086 0.2114
C10B C -0.1610(7) 0.0418(5) 0.2316(7)
H6B H -0.2192 0.0262 0.1536
C11B C -0.1343(8) 0.1004(5) 0.4214(7)
H7B H -0.1746 0.1255 0.4723
C12B C 0.0080(8) 0.0902(5) 0.4606(7)
H8B H 0.0632 0.1070 0.5389
O10B O 0.1682(11) 0.0490(8) 0.0051(8)
O9 O 1.072(3) -0.1758(12) 1.3154(15)
N4 N 1.0141(10) -0.1954(6) 1.1122(10)
C13 C 1.098(2) -0.1723(13) 1.2197(18)
H9 H 1.1831 -0.1516 1.2232
C14 C 0.8799(17) -0.2205(12) 1.099(3)
H10 H 0.8238 -0.2209 1.0126
H11 H 0.8390 -0.1867 1.1430
H12 H 0.8846 -0.2711 1.1322
C15 C 1.051(3) -0.1848(11) 1.0035(16)
H13 H 1.0062 -0.1396 0.9608
H14 H 1.0204 -0.2282 0.9499
H15 H 1.1499 -0.1796 1.0269
loop_
_geom_bond_atom_site_label_1
_geom_bond_atom_site_label_2
_geom_bond_site_symmetry_1
_geom_bond_site_symmetry_2
Eu1 O1 1_555 1_555
O1 N1 1_555 1_555
O2 Eu1 1_555 1_555
O3 Eu1 1_555 1_555
O4 Eu1 1_555 1_555
O5 N2 1_555 1_555
O6 Eu1 1_555 1_555
O7 C7 1_555 1_555
O8 N3 1_555 1_555
O9 C13 1_555 1_555
N1 O2 1_555 1_555
N2 C4 1_555 1_555
N3 C10 1_555 1_555
N4 C13 1_555 1_555
C1 O3 1_555 1_555
C2 C1 1_555 1_555
C3 C2 1_555 1_555
H1 C3 1_555 1_555
C4 C3 1_555 1_555
H2 C4 1_555 1_555
C5 N2 1_555 1_555
H3 C5 1_555 1_555
C6 C2 1_555 1_555
H4 C6 1_555 1_555
C7 O6 1_555 1_555
C8 C7 1_555 1_555
C9 C8 1_555 1_555
H5 C9 1_555 1_555
C10 C9 1_555 1_555
H6 C10 1_555 1_555
C11 N3 1_555 1_555
H7 C11 1_555 1_555
C12 C8 1_555 1_555
H8 C12 1_555 1_555
C13 H9 1_555 1_555
C14 N4 1_555 1_555
H10 C14 1_555 1_555
H11 C14 1_555 1_555
H12 C14 1_555 1_555
C15 N4 1_555 1_555
H13 C15 1_555 1_555
H14 C15 1_555 1_555
H15 C15 1_555 1_555
O10 N1 1_555 1_555
Eu1B O4 1_555 1_555
Eu1_2 O8 1_555 1_555
Eu1A O5B 1_555 1_555
Eu1B_2 O8B 1_555 1_555
Eu1C O5 1_555 1_555
O1B Eu1B 1_555 1_555
O2B Eu1B 1_555 1_555
O3B Eu1B 1_555 1_555
O4B Eu1 1_555 1_555
O5B N2B 1_555 1_555
O5A Eu1B 1_555 1_555
O5C Eu1 1_555 1_555
O6B Eu1B 1_555 1_555
O7B Eu1 1_555 1_555
O8B N3B 1_555 1_555
O8_2 Eu1 1_555 1_555
O8B_2 Eu1B 1_555 1_555
N1B O1B 1_555 1_555
N2B C4B 1_555 1_555
N3B C10B 1_555 1_555
C1B O3B 1_555 1_555
C2B C1B 1_555 1_555
C3B C2B 1_555 1_555
H1B C3B 1_555 1_555
C4B C3B 1_555 1_555
H2B C4B 1_555 1_555
C5B N2B 1_555 1_555
H3B C5B 1_555 1_555
C6B C2B 1_555 1_555
H4B C6B 1_555 1_555
C7B O6B 1_555 1_555
C8B C7B 1_555 1_555
C9B C8B 1_555 1_555
H5B C9B 1_555 1_555
C10B C9B 1_555 1_555
H6B C10B 1_555 1_555
C11B N3B 1_555 1_555
H7B C11B 1_555 1_555
C12B C8B 1_555 1_555
H8B C12B 1_555 1_555
O10B N1B 1_555 1_555
O4 C1 1_555 1_555
O7 Eu1B 1_555 1_555
C5 C6 1_555 1_555
C11 C12 1_555 1_555
Eu1B O4B 1_555 1_555
O2B N1B 1_555 1_555
O4B C1B 1_555 1_555
O7B C7B 1_555 1_555
C5B C6B 1_555 1_555
C11B C12B 1_555 1_555

#END
