
#######################################################################
#
#                 Cambridge Crystallographic Data Centre
#                                CCDC 
#
#######################################################################
#
# If this CIF has been generated from an entry in the Cambridge 
# Structural Database, then it will include bibliographic, chemical, 
# crystal, experimental, refinement or atomic coordinate data resulting 
# from the CCDC's data processing and validation procedures.
#
#######################################################################

data_OYAJUV02
_chemical_formula_moiety         'C144 H80 N12 O91 Yb41'
_symmetry_cell_setting           hexagonal
_symmetry_space_group_name_H-M   'P 6/m m m'
_symmetry_Int_Tables_number      191
_space_group_name_Hall           '-P 6 2'
loop_
_symmetry_equiv_pos_site_id
_symmetry_equiv_pos_as_xyz
1 x,y,z
2 x-y,x,z
3 -y,x-y,z
4 -x,-y,z
5 -x+y,-x,z
6 y,-x+y,z
7 x-y,-y,-z
8 -x,-x+y,-z
9 y,x,-z
10 -y,-x,-z
11 -x+y,y,-z
12 x,x-y,-z
13 -x,-y,-z
14 -x+y,-x,-z
15 y,-x+y,-z
16 x,y,-z
17 x-y,x,-z
18 -y,x-y,-z
19 -x+y,y,z
20 x,x-y,z
21 -y,-x,z
22 y,x,z
23 x-y,-y,z
24 -x,-x+y,z
_cell_length_a                   22.7374(5)
_cell_length_b                   22.7374(5)
_cell_length_c                   17.8238(8)
_cell_angle_alpha                90
_cell_angle_beta                 90
_cell_angle_gamma                120
_cell_volume                     7980.18
loop_
_atom_site_label
_atom_site_type_symbol
_atom_site_fract_x
_atom_site_fract_y
_atom_site_fract_z
Yb1 Yb 0.05530(3) 0.11060(6) 0.10793(6)
Yb2 Yb 0.09953(5) 0.19905(10) 0.0000
N1 N 0.0000 0.4121(12) 0.5000
N2 N -0.0000 0.5000 0.3835(15)
H1 H -0.0000 0.5000 0.4317
O1 O 0.0524(10) 0.2386(9) 0.0887(10)
O2 O 0.0000 0.1169(5) 0.0000
O3 O 0.0000 0.0000 0.0725(10)
H2 H 0.0000 0.0000 0.0248
O4 O 0.0417(6) 0.0834(12) 0.2243(12)
O5 O 0.138(2) 0.324(2) 0.0000
C1 C -0.0000 0.2153(9) 0.1281(11)
C2 C -0.0000 0.2622(9) 0.1897(12)
C3 C -0.0571(18) 0.2700(17) 0.1990(18)
H3 H -0.0959 0.2460 0.1669
C4 C -0.0573(19) 0.3128(18) 0.2537(19)
H4 H -0.0962 0.3181 0.2613
C5 C -0.0000 0.3476(10) 0.3002(13)
C6 C -0.0000 0.3927(11) 0.3618(13)
C7 C -0.0000 0.3735(10) 0.4369(13)
C8 C -0.0000 0.3156(10) 0.4631(12)
H5 H -0.0000 0.2822 0.4330
C9 C -0.0000 0.4507(10) 0.3384(13)
C10 C -0.0000 0.4671(9) 0.2628(12)
H6 H -0.0000 0.4424 0.2213
N1C N 0.0000 0.5879(12) 0.5000
O1C O -0.0524(10) 0.7614(9) 0.0887(10)
C1C C -0.0000 0.7847(9) 0.1281(11)
C2C C -0.0000 0.7378(9) 0.1897(12)
C3C C 0.0571(18) 0.7300(17) 0.1990(18)
H3C H 0.0959 0.7540 0.1669
C4C C 0.0573(19) 0.6872(18) 0.2537(19)
H4C H 0.0962 0.6819 0.2613
C5C C -0.0000 0.6524(10) 0.3002(13)
C6C C -0.0000 0.6073(11) 0.3618(13)
C7C C -0.0000 0.6265(10) 0.4369(13)
C8C C -0.0000 0.6844(10) 0.4631(12)
H5C H -0.0000 0.7178 0.4330
C9C C -0.0000 0.5493(10) 0.3384(13)
C10C C -0.0000 0.5329(9) 0.2628(12)
H6C H -0.0000 0.5576 0.2213
N2G N 0.0000 0.5000 0.6165(15)
H1G H 0.0000 0.5000 0.5683
O1G O -0.0524(10) 0.1862(13) 0.9113(10)
C1G C -0.0000 0.2153(9) 0.8719(11)
C2G C 0.0000 0.2622(9) 0.8103(12)
C3G C 0.0571(18) 0.3271(25) 0.8010(18)
H3G H 0.0959 0.3419 0.8331
C4G C 0.0573(19) 0.3701(26) 0.7463(19)
H4G H 0.0962 0.4143 0.7387
C5G C -0.0000 0.3476(10) 0.6998(13)
C6G C -0.0000 0.3927(11) 0.6382(13)
C7G C -0.0000 0.3735(10) 0.5631(13)
C8G C -0.0000 0.3156(10) 0.5369(12)
H5G H -0.0000 0.2822 0.5670
C9G C -0.0000 0.4507(10) 0.6616(13)
C10G C -0.0000 0.4671(9) 0.7372(12)
H6G H -0.0000 0.4424 0.7787
O1K O 0.0524(10) 0.8138(13) 0.9113(10)
C1K C -0.0000 0.7847(9) 0.8719(11)
C2K C -0.0000 0.7378(9) 0.8103(12)
C3K C -0.0571(18) 0.6729(25) 0.8010(18)
H3K H -0.0959 0.6581 0.8331
C4K C -0.0573(19) 0.6299(26) 0.7463(19)
H4K H -0.0962 0.5857 0.7387
C5K C -0.0000 0.6524(10) 0.6998(13)
C6K C -0.0000 0.6073(11) 0.6382(13)
C7K C 0.0000 0.6265(10) 0.5631(13)
C8K C 0.0000 0.6844(10) 0.5369(12)
H5K H -0.0000 0.7178 0.5670
C9K C -0.0000 0.5493(10) 0.6616(13)
C10K C -0.0000 0.5329(9) 0.7372(12)
H6K H -0.0000 0.5576 0.7787
O1L O -0.0524(10) 0.7614(9) 0.9113(10)
C3L C 0.0571(18) 0.7300(17) 0.8010(18)
H3L H 0.0959 0.7540 0.8331
C4L C 0.0573(19) 0.6872(18) 0.7463(19)
H4L H 0.0962 0.6819 0.7387
O1O O 0.0524(10) 0.2386(9) 0.9113(10)
C3O C -0.0571(18) 0.2700(17) 0.8010(18)
H3O H -0.0959 0.2460 0.8331
C4O C -0.0573(19) 0.3128(18) 0.7463(19)
H4O H -0.0962 0.3181 0.7387
O1S O 0.0524(10) 0.8138(13) 0.0887(10)
C3S C -0.0571(18) 0.6729(25) 0.1990(18)
H3S H -0.0959 0.6581 0.1669
C4S C -0.0573(19) 0.6299(26) 0.2537(19)
H4S H -0.0962 0.5857 0.2613
O1W O -0.0524(10) 0.1862(13) 0.0887(10)
C3W C 0.0571(18) 0.3271(25) 0.1990(18)
H3W H 0.0959 0.3419 0.1669
C4W C 0.0573(19) 0.3701(26) 0.2537(19)
H4W H 0.0962 0.4143 0.2613
O3F O 0.0000 -0.0000 -0.0725(10)
H2F H -0.0000 -0.0000 -0.0248
O4A O -0.0417(13) 0.0417(6) 0.2243(12)
O4E O 0.0834(12) 0.0417(13) 0.2243(12)
O4B O -0.0834(12) -0.0417(13) 0.2243(12)
O4D O 0.0417(13) -0.0417(6) 0.2243(12)
O4C O -0.0417(6) -0.0834(12) 0.2243(12)
O5J O 0.186(3) 0.324(2) 0.0000
Yb1A Yb -0.05530(7) 0.05530(3) 0.10793(6)
Yb2A Yb -0.09952(11) 0.09953(5) 0.0000
N1A N -0.4121(12) 0.0000 0.5000
N2A N -0.5000 0.0000 0.3835(15)
H1A H -0.5000 0.0000 0.4317
O1A O -0.1862(13) 0.0524(10) 0.0887(10)
O2A O -0.1169(5) 0.0000 0.0000
O5A O -0.186(3) 0.138(2) 0.0000
C1A C -0.2153(9) 0.0000 0.1281(11)
C2A C -0.2622(9) 0.0000 0.1897(12)
C3A C -0.3271(25) -0.0571(18) 0.1990(18)
H3A H -0.3419 -0.0959 0.1669
C4A C -0.3701(26) -0.0573(19) 0.2537(19)
H4A H -0.4143 -0.0962 0.2613
C5A C -0.3476(10) 0.0000 0.3002(13)
C6A C -0.3927(11) 0.0000 0.3618(13)
C7A C -0.3735(10) 0.0000 0.4369(13)
C8A C -0.3156(10) 0.0000 0.4631(12)
H5A H -0.2822 0.0000 0.4330
C9A C -0.4507(10) 0.0000 0.3384(13)
C10A C -0.4671(9) 0.0000 0.2628(12)
H6A H -0.4424 0.0000 0.2213
N1D N -0.5879(12) 0.0000 0.5000
O1D O -0.8138(13) -0.0524(10) 0.0887(10)
C1D C -0.7847(9) 0.0000 0.1281(11)
C2D C -0.7378(9) 0.0000 0.1897(12)
C3D C -0.6729(25) 0.0571(18) 0.1990(18)
H3D H -0.6581 0.0959 0.1669
C4D C -0.6299(26) 0.0573(19) 0.2537(19)
H4D H -0.5857 0.0962 0.2613
C5D C -0.6524(10) 0.0000 0.3002(13)
C6D C -0.6073(11) 0.0000 0.3618(13)
C7D C -0.6265(10) 0.0000 0.4369(13)
C8D C -0.6844(10) 0.0000 0.4631(12)
H5D H -0.7178 0.0000 0.4330
C9D C -0.5493(10) 0.0000 0.3384(13)
C10D C -0.5329(9) 0.0000 0.2628(12)
H6D H -0.5576 0.0000 0.2213
N2H N -0.5000 0.0000 0.6165(15)
H1H H -0.5000 0.0000 0.5683
O1I O -0.2386(9) -0.0524(10) 0.9113(10)
C1I C -0.2153(9) 0.0000 0.8719(11)
C2I C -0.2622(9) 0.0000 0.8103(12)
C3I C -0.2700(17) 0.0571(18) 0.8010(18)
H3I H -0.2460 0.0959 0.8331
C4I C -0.3128(18) 0.0573(19) 0.7463(19)
H4I H -0.3181 0.0962 0.7387
C5I C -0.3476(10) 0.0000 0.6998(13)
C6I C -0.3927(11) 0.0000 0.6382(13)
C7I C -0.3735(10) 0.0000 0.5631(13)
C8I C -0.3156(10) 0.0000 0.5369(12)
H5I H -0.2822 0.0000 0.5670
C9I C -0.4507(10) 0.0000 0.6616(13)
C10I C -0.4671(9) 0.0000 0.7372(12)
H6I H -0.4424 0.0000 0.7787
O1H O -0.7614(9) 0.0524(10) 0.9113(10)
C1H C -0.7847(9) 0.0000 0.8719(11)
C2H C -0.7378(9) 0.0000 0.8103(12)
C3H C -0.7300(17) -0.0571(18) 0.8010(18)
H3H H -0.7540 -0.0959 0.8331
C4H C -0.6872(18) -0.0573(19) 0.7463(19)
H4H H -0.6819 -0.0962 0.7387
C5H C -0.6524(10) 0.0000 0.6998(13)
C6H C -0.6073(11) 0.0000 0.6382(13)
C7H C -0.6265(10) 0.0000 0.5631(13)
C8H C -0.6844(10) 0.0000 0.5369(12)
H5H H -0.7178 0.0000 0.5670
C9H C -0.5493(10) 0.0000 0.6616(13)
C10H C -0.5329(9) 0.0000 0.7372(12)
H6H H -0.5576 0.0000 0.7787
O1M O -0.8138(13) -0.0524(10) 0.9113(10)
C3M C -0.6729(25) 0.0571(18) 0.8010(18)
H3M H -0.6581 0.0959 0.8331
C4M C -0.6299(26) 0.0573(19) 0.7463(19)
H4M H -0.5857 0.0962 0.7387
O1P O -0.1862(13) 0.0524(10) 0.9113(10)
C3P C -0.3271(25) -0.0571(18) 0.8010(18)
H3P H -0.3419 -0.0959 0.8331
C4P C -0.3701(26) -0.0573(19) 0.7463(19)
H4P H -0.4143 -0.0962 0.7387
O1U O -0.7614(9) 0.0524(10) 0.0887(10)
C3U C -0.7300(17) -0.0571(18) 0.1990(18)
H3U H -0.7540 -0.0959 0.1669
C4U C -0.6872(18) -0.0573(19) 0.2537(19)
H4U H -0.6819 -0.0962 0.2613
O1T O -0.2386(9) -0.0524(10) 0.0887(10)
C3T C -0.2700(17) 0.0571(18) 0.1990(18)
H3T H -0.2460 0.0959 0.1669
C4T C -0.3128(18) 0.0573(19) 0.2537(19)
H4T H -0.3181 0.0962 0.2613
O5G O -0.138(2) 0.186(3) 0.0000
Yb1B Yb -0.11060(6) -0.05530(7) 0.10793(6)
Yb2B Yb -0.19905(10) -0.09952(11) 0.0000
N1B N -0.4121(12) -0.4121(12) 0.5000
N2B N -0.5000 -0.5000 0.3835(15)
H1B H -0.5000 -0.5000 0.4317
O1B O -0.2386(9) -0.1862(13) 0.0887(10)
O2B O -0.1169(5) -0.1169(5) 0.0000
O5B O -0.324(2) -0.186(3) 0.0000
C1B C -0.2153(9) -0.2153(9) 0.1281(11)
C2B C -0.2622(9) -0.2622(9) 0.1897(12)
C3B C -0.2700(17) -0.3271(25) 0.1990(18)
H3B H -0.2460 -0.3419 0.1669
C4B C -0.3128(18) -0.3701(26) 0.2537(19)
H4B H -0.3181 -0.4143 0.2613
C5B C -0.3476(10) -0.3476(10) 0.3002(13)
C6B C -0.3927(11) -0.3927(11) 0.3618(13)
C7B C -0.3735(10) -0.3735(10) 0.4369(13)
C8B C -0.3156(10) -0.3156(10) 0.4631(12)
H5B H -0.2822 -0.2822 0.4330
C9B C -0.4507(10) -0.4507(10) 0.3384(13)
C10B C -0.4671(9) -0.4671(9) 0.2628(12)
H6B H -0.4424 -0.4424 0.2213
N1E N -0.5879(12) -0.5879(12) 0.5000
O1E O -0.7614(9) -0.8138(13) 0.0887(10)
C1E C -0.7847(9) -0.7847(9) 0.1281(11)
C2E C -0.7378(9) -0.7378(9) 0.1897(12)
C3E C -0.7300(17) -0.6729(25) 0.1990(18)
H3E H -0.7540 -0.6581 0.1669
C4E C -0.6872(18) -0.6299(26) 0.2537(19)
H4E H -0.6819 -0.5857 0.2613
C5E C -0.6524(10) -0.6524(10) 0.3002(13)
C6E C -0.6073(11) -0.6073(11) 0.3618(13)
C7E C -0.6265(10) -0.6265(10) 0.4369(13)
C8E C -0.6844(10) -0.6844(10) 0.4631(12)
H5E H -0.7178 -0.7178 0.4330
C9E C -0.5493(10) -0.5493(10) 0.3384(13)
C10E C -0.5329(9) -0.5329(9) 0.2628(12)
H6E H -0.5576 -0.5576 0.2213
N2F N -0.5000 -0.5000 0.6165(15)
H1F H -0.5000 -0.5000 0.5683
O1F O -0.1862(13) -0.2386(9) 0.9113(10)
C1F C -0.2153(9) -0.2153(9) 0.8719(11)
C2F C -0.2622(9) -0.2622(9) 0.8103(12)
C3F C -0.3271(25) -0.2700(17) 0.8010(18)
H3F H -0.3419 -0.2460 0.8331
C4F C -0.3701(26) -0.3128(18) 0.7463(19)
H4F H -0.4143 -0.3181 0.7387
C5F C -0.3476(10) -0.3476(10) 0.6998(13)
C6F C -0.3927(11) -0.3927(11) 0.6382(13)
C7F C -0.3735(10) -0.3735(10) 0.5631(13)
C8F C -0.3156(10) -0.3156(10) 0.5369(12)
H5F H -0.2822 -0.2822 0.5670
C9F C -0.4507(10) -0.4507(10) 0.6616(13)
C10F C -0.4671(9) -0.4671(9) 0.7372(12)
H6F H -0.4424 -0.4424 0.7787
O1J O -0.8138(13) -0.7614(9) 0.9113(10)
C1J C -0.7847(9) -0.7847(9) 0.8719(11)
C2J C -0.7378(9) -0.7378(9) 0.8103(12)
C3J C -0.6729(25) -0.7300(17) 0.8010(18)
H3J H -0.6581 -0.7540 0.8331
C4J C -0.6299(26) -0.6872(18) 0.7463(19)
H4J H -0.5857 -0.6819 0.7387
C5J C -0.6524(10) -0.6524(10) 0.6998(13)
C6J C -0.6073(11) -0.6073(11) 0.6382(13)
C7J C -0.6265(10) -0.6265(10) 0.5631(13)
C8J C -0.6844(10) -0.6844(10) 0.5369(12)
H5J H -0.7178 -0.7178 0.5670
C9J C -0.5493(10) -0.5493(10) 0.6616(13)
C10J C -0.5329(9) -0.5329(9) 0.7372(12)
H6J H -0.5576 -0.5576 0.7787
O1N O -0.7614(9) -0.8138(13) 0.9113(10)
C3N C -0.7300(17) -0.6729(25) 0.8010(18)
H3N H -0.7540 -0.6581 0.8331
C4N C -0.6872(18) -0.6299(26) 0.7463(19)
H4N H -0.6819 -0.5857 0.7387
O1Q O -0.2386(9) -0.1862(13) 0.9113(10)
C3Q C -0.2700(17) -0.3271(25) 0.8010(18)
H3Q H -0.2460 -0.3419 0.8331
C4Q C -0.3128(18) -0.3701(26) 0.7463(19)
H4Q H -0.3181 -0.4143 0.7387
O1R O -0.8138(13) -0.7614(9) 0.0887(10)
C3R C -0.6729(25) -0.7300(17) 0.1990(18)
H3R H -0.6581 -0.7540 0.1669
C4R C -0.6299(26) -0.6872(18) 0.2537(19)
H4R H -0.5857 -0.6819 0.2613
O1V O -0.1862(13) -0.2386(9) 0.0887(10)
C3V C -0.3271(25) -0.2700(17) 0.1990(18)
H3V H -0.3419 -0.2460 0.1669
C4V C -0.3701(26) -0.3128(18) 0.2537(19)
H4V H -0.4143 -0.3181 0.2613
O5I O -0.324(2) -0.138(2) 0.0000
Yb1C Yb -0.05530(3) -0.11060(6) 0.10793(6)
Yb2C Yb -0.09953(5) -0.19905(10) 0.0000
O2C O 0.0000 -0.1169(5) 0.0000
O5C O -0.138(2) -0.324(2) 0.0000
O5F O -0.186(3) -0.324(2) 0.0000
Yb1D Yb -0.94470(7) -0.05530(3) 0.10793(6)
Yb2D Yb -0.90048(11) -0.09953(5) 0.0000
O2D O -0.8831(5) 0.0000 0.0000
O5D O -0.814(3) -0.138(2) 0.0000
O5K O -0.862(2) -0.186(3) 0.0000
Yb1E Yb -0.88940(6) -0.94470(7) 0.10793(6)
Yb2E Yb -0.80095(10) -0.90048(11) 0.0000
O2E O -0.8831(5) -0.8831(5) 0.0000
O5E O -0.676(2) -0.814(3) 0.0000
O5H O -0.676(2) -0.862(2) 0.0000
Yb1F Yb -0.05530(7) -0.11060(6) -0.10793(6)
O4F O -0.0417(13) -0.0834(12) -0.2243(12)
O4K O 0.0417(6) -0.0417(13) -0.2243(12)
O4I O -0.0834(12) -0.0417(6) -0.2243(12)
O4H O 0.0834(12) 0.0417(6) -0.2243(12)
O4G O -0.0417(6) 0.0417(13) -0.2243(12)
O4J O 0.0417(13) 0.0834(12) -0.2243(12)
Yb1K Yb -0.94470(3) -0.05530(7) -0.10793(6)
Yb1H Yb -0.88940(6) -0.94470(3) -0.10793(6)
Yb1J Yb 0.05530(7) 0.11060(6) -0.10793(6)
Yb1G Yb -0.05530(3) 0.05530(7) -0.10793(6)
Yb1I Yb -0.11060(6) -0.05530(3) -0.10793(6)
Yb1_2 Yb -0.94470(3) -0.88940(6) 0.10793(6)
Yb1D_2 Yb 0.05530(7) -0.05530(3) 0.10793(6)
Yb1E_2 Yb -0.88940(6) 0.05530(7) 0.10793(6)
Yb1E_3 Yb 0.11060(6) 0.05530(7) 0.10793(6)
Yb1H_2 Yb -0.88940(6) 0.05530(3) -0.10793(6)
Yb1H_3 Yb 0.11060(6) 0.05530(3) -0.10793(6)
Yb1J_2 Yb -0.94470(7) -0.88940(6) -0.10793(6)
Yb1K_2 Yb 0.05530(3) -0.05530(7) -0.10793(6)
Yb2_2 Yb -0.90047(5) -0.80095(10) 0.0000
Yb2_3 Yb -0.90047(5) -0.80095(10) 1.0000
Yb2_4 Yb 0.09953(5) 0.19905(10) 1.0000
Yb2A_2 Yb -0.09952(11) 0.09953(5) 1.0000
Yb2B_2 Yb -0.19905(10) -0.09952(11) 1.0000
Yb2C_2 Yb -0.09953(5) -0.19905(10) 1.0000
Yb2C_3 Yb -0.09953(5) 0.80095(10) 0.0000
Yb2C_4 Yb -0.09953(5) 0.80095(10) 1.0000
Yb2D_2 Yb -0.90048(11) -0.09953(5) 1.0000
Yb2D_3 Yb 0.09952(11) -0.09953(5) 0.0000
Yb2D_4 Yb 0.09952(11) 0.90047(5) 0.0000
Yb2D_5 Yb 0.09952(11) 0.90047(5) 1.0000
Yb2E_2 Yb -0.80095(10) -0.90048(11) 1.0000
Yb2E_3 Yb -0.80095(10) 0.09952(11) 0.0000
Yb2E_4 Yb -0.80095(10) 0.09952(11) 1.0000
O1C_2 O -0.0524(10) -0.2386(9) 0.0887(10)
O1F_2 O -0.1862(13) -0.2386(9) -0.0887(10)
O1G_2 O -0.0524(10) 0.1862(13) -0.0887(10)
O1H_2 O -0.7614(9) -0.9476(10) -0.0887(10)
O1I_2 O -0.2386(9) -0.0524(10) -0.0887(10)
O1J_2 O 0.1862(13) 0.2386(9) -0.0887(10)
O1K_2 O -0.9476(10) -0.1862(13) -0.0887(10)
O1L_2 O -0.0524(10) -0.2386(9) -0.0887(10)
O1M_2 O -0.8138(13) -0.0524(10) -0.0887(10)
O1N_2 O -0.7614(9) -0.8138(13) -0.0887(10)
O1O_2 O 0.0524(10) 0.2386(9) -0.0887(10)
O1P_2 O -0.1862(13) 0.0524(10) -0.0887(10)
O1Q_2 O -0.2386(9) -0.1862(13) -0.0887(10)
O1R_2 O 0.1862(13) 0.2386(9) 0.0887(10)
O1S_2 O -0.9476(10) -0.1862(13) 0.0887(10)
O1U_2 O -0.7614(9) -0.9476(10) 0.0887(10)
O2C_2 O -1.0000 -0.1169(5) 0.0000
O2D_2 O -0.8831(5) -1.0000 0.0000
O2E_2 O 0.1169(5) 0.1169(5) 0.0000
O3_2 O -1.0000 -1.0000 0.0725(10)
O3_3 O -1.0000 0.0000 0.0725(10)
O3F_2 O -1.0000 -1.0000 -0.0725(10)
O3F_3 O -1.0000 -0.0000 -0.0725(10)
O4_2 O -0.9583(6) -0.9166(12) 0.2243(12)
O4C_2 O -1.0417(6) -0.0834(12) 0.2243(12)
O4D_2 O -0.9583(13) -1.0417(6) 0.2243(12)
O4D_3 O -0.9583(13) -0.0417(6) 0.2243(12)
O4E_2 O -0.9166(12) -0.9583(13) 0.2243(12)
O4E_3 O -0.9166(12) 0.0417(13) 0.2243(12)
O4F_2 O -1.0417(13) -0.0834(12) -0.2243(12)
O4H_2 O -0.9166(12) -0.9583(6) -0.2243(12)
O4H_3 O -0.9166(12) 0.0417(6) -0.2243(12)
O4J_2 O -0.9583(13) -0.9166(12) -0.2243(12)
O4K_2 O -0.9583(6) -1.0417(13) -0.2243(12)
O4K_3 O -0.9583(6) -0.0417(13) -0.2243(12)
loop_
_geom_bond_atom_site_label_1
_geom_bond_atom_site_label_2
_geom_bond_site_symmetry_1
_geom_bond_site_symmetry_2
Yb1 O2 1_555 1_555
Yb2 O1 1_555 1_555
N1 C7 1_555 1_555
N2 H1 1_555 1_555
O1 C1 1_555 1_555
O2 Yb2 1_555 1_555
O3 Yb1 1_555 1_555
H2 O3 1_555 1_555
O4 Yb1 1_555 1_555
O5 Yb2 1_555 1_555
C1 C2 1_555 1_555
C2 C3 1_555 1_555
C3 H3 1_555 1_555
C4 C3 1_555 1_555
H4 C4 1_555 1_555
C5 C4 1_555 1_555
C6 C5 1_555 1_555
C7 C6 1_555 1_555
C8 C7 1_555 1_555
H5 C8 1_555 1_555
C9 N2 1_555 1_555
C10 C9 1_555 1_555
H6 C10 1_555 1_555
N1C C7C 1_555 1_555
O1C C1C 1_555 1_555
C1C C2C 1_555 1_555
C2C C3C 1_555 1_555
C3C H3C 1_555 1_555
C4C C3C 1_555 1_555
H4C C4C 1_555 1_555
C5C C4C 1_555 1_555
C6C C5C 1_555 1_555
C7C C6C 1_555 1_555
C8C C7C 1_555 1_555
H5C C8C 1_555 1_555
C9C N2 1_555 1_555
C10C C10 1_555 1_555
H6C C10C 1_555 1_555
N2G H1G 1_555 1_555
O1G C1G 1_555 1_555
C1G C2G 1_555 1_555
C2G C3G 1_555 1_555
C3G H3G 1_555 1_555
C4G C3G 1_555 1_555
H4G C4G 1_555 1_555
C5G C4G 1_555 1_555
C6G C5G 1_555 1_555
C7G N1 1_555 1_555
C8G C8 1_555 1_555
H5G C8G 1_555 1_555
C9G N2G 1_555 1_555
C10G C9G 1_555 1_555
H6G C10G 1_555 1_555
O1K C1K 1_555 1_555
C1K C2K 1_555 1_555
C2K C3K 1_555 1_555
C3K H3K 1_555 1_555
C4K C3K 1_555 1_555
H4K C4K 1_555 1_555
C5K C4K 1_555 1_555
C6K C5K 1_555 1_555
C7K N1C 1_555 1_555
C8K C8C 1_555 1_555
H5K C8K 1_555 1_555
C9K N2G 1_555 1_555
C10K C10G 1_555 1_555
H6K C10K 1_555 1_555
O1L C1K 1_555 1_555
C3L C2K 1_555 1_555
H3L C3L 1_555 1_555
C4L C5K 1_555 1_555
H4L C4L 1_555 1_555
O1O C1G 1_555 1_555
C3O C2G 1_555 1_555
H3O C3O 1_555 1_555
C4O C5G 1_555 1_555
H4O C4O 1_555 1_555
O1S C1C 1_555 1_555
C3S C2C 1_555 1_555
H3S C3S 1_555 1_555
C4S C5C 1_555 1_555
H4S C4S 1_555 1_555
O1W C1 1_555 1_555
C3W C2 1_555 1_555
H3W C3W 1_555 1_555
C4W C5 1_555 1_555
H4W C4W 1_555 1_555
O3F H2F 1_555 1_555
O4A Yb1 1_555 1_555
O4E Yb1 1_555 1_555
O4B O4A 1_555 1_555
O4D O4E 1_555 1_555
O4C O4B 1_555 1_555
O5J Yb2 1_555 1_555
Yb1A O2 1_555 1_555
Yb2A O2 1_555 1_555
N1A C7A 1_555 1_555
N2A H1A 1_555 1_555
O1A Yb2A 1_555 1_555
O2A Yb1A 1_555 1_555
O5A Yb2A 1_555 1_555
C1A O1A 1_555 1_555
C2A C1A 1_555 1_555
C3A C2A 1_555 1_555
H3A C3A 1_555 1_555
C4A C3A 1_555 1_555
H4A C4A 1_555 1_555
C5A C4A 1_555 1_555
C6A C5A 1_555 1_555
C7A C6A 1_555 1_555
C8A C7A 1_555 1_555
H5A C8A 1_555 1_555
C9A N2A 1_555 1_555
C10A C9A 1_555 1_555
H6A C10A 1_555 1_555
N1D C7D 1_555 1_555
O1D C1D 1_555 1_555
C1D C2D 1_555 1_555
C2D C3D 1_555 1_555
C3D H3D 1_555 1_555
C4D C3D 1_555 1_555
H4D C4D 1_555 1_555
C5D C4D 1_555 1_555
C6D C5D 1_555 1_555
C7D C6D 1_555 1_555
C8D C7D 1_555 1_555
H5D C8D 1_555 1_555
C9D N2A 1_555 1_555
C10D C10A 1_555 1_555
H6D C10D 1_555 1_555
N2H H1H 1_555 1_555
O1I C1I 1_555 1_555
C1I C2I 1_555 1_555
C2I C3I 1_555 1_555
C3I H3I 1_555 1_555
C4I C3I 1_555 1_555
H4I C4I 1_555 1_555
C5I C4I 1_555 1_555
C6I C5I 1_555 1_555
C7I N1A 1_555 1_555
C8I C8A 1_555 1_555
H5I C8I 1_555 1_555
C9I N2H 1_555 1_555
C10I C9I 1_555 1_555
H6I C10I 1_555 1_555
O1H C1H 1_555 1_555
C1H C2H 1_555 1_555
C2H C3H 1_555 1_555
C3H H3H 1_555 1_555
C4H C3H 1_555 1_555
H4H C4H 1_555 1_555
C5H C4H 1_555 1_555
C6H C5H 1_555 1_555
C7H N1D 1_555 1_555
C8H C8D 1_555 1_555
H5H C8H 1_555 1_555
C9H N2H 1_555 1_555
C10H C10I 1_555 1_555
H6H C10H 1_555 1_555
O1M C1H 1_555 1_555
C3M C2H 1_555 1_555
H3M C3M 1_555 1_555
C4M C5H 1_555 1_555
H4M C4M 1_555 1_555
O1P C1I 1_555 1_555
C3P C2I 1_555 1_555
H3P C3P 1_555 1_555
C4P C5I 1_555 1_555
H4P C4P 1_555 1_555
O1U C1D 1_555 1_555
C3U C2D 1_555 1_555
H3U C3U 1_555 1_555
C4U C5D 1_555 1_555
H4U C4U 1_555 1_555
O1T C1A 1_555 1_555
C3T C2A 1_555 1_555
H3T C3T 1_555 1_555
C4T C5A 1_555 1_555
H4T C4T 1_555 1_555
O5G Yb2A 1_555 1_555
Yb1B O3 1_555 1_555
Yb2B O2A 1_555 1_555
N1B C7B 1_555 1_555
N2B H1B 1_555 1_555
O1B Yb2B 1_555 1_555
O2B Yb1B 1_555 1_555
O5B Yb2B 1_555 1_555
C1B O1B 1_555 1_555
C2B C1B 1_555 1_555
C3B C2B 1_555 1_555
H3B C3B 1_555 1_555
C4B C3B 1_555 1_555
H4B C4B 1_555 1_555
C5B C4B 1_555 1_555
C6B C5B 1_555 1_555
C7B C6B 1_555 1_555
C8B C7B 1_555 1_555
H5B C8B 1_555 1_555
C9B N2B 1_555 1_555
C10B C9B 1_555 1_555
H6B C10B 1_555 1_555
N1E C7E 1_555 1_555
O1E C1E 1_555 1_555
C1E C2E 1_555 1_555
C2E C3E 1_555 1_555
C3E H3E 1_555 1_555
C4E C3E 1_555 1_555
H4E C4E 1_555 1_555
C5E C4E 1_555 1_555
C6E C5E 1_555 1_555
C7E C6E 1_555 1_555
C8E C7E 1_555 1_555
H5E C8E 1_555 1_555
C9E N2B 1_555 1_555
C10E C10B 1_555 1_555
H6E C10E 1_555 1_555
N2F H1F 1_555 1_555
O1F C1F 1_555 1_555
C1F C2F 1_555 1_555
C2F C3F 1_555 1_555
C3F H3F 1_555 1_555
C4F C3F 1_555 1_555
H4F C4F 1_555 1_555
C5F C4F 1_555 1_555
C6F C5F 1_555 1_555
C7F N1B 1_555 1_555
C8F C8B 1_555 1_555
H5F C8F 1_555 1_555
C9F N2F 1_555 1_555
C10F C9F 1_555 1_555
H6F C10F 1_555 1_555
O1J C1J 1_555 1_555
C1J C2J 1_555 1_555
C2J C3J 1_555 1_555
C3J H3J 1_555 1_555
C4J C3J 1_555 1_555
H4J C4J 1_555 1_555
C5J C4J 1_555 1_555
C6J C5J 1_555 1_555
C7J N1E 1_555 1_555
C8J C8E 1_555 1_555
H5J C8J 1_555 1_555
C9J N2F 1_555 1_555
C10J C10F 1_555 1_555
H6J C10J 1_555 1_555
O1N C1J 1_555 1_555
C3N C2J 1_555 1_555
H3N C3N 1_555 1_555
C4N C5J 1_555 1_555
H4N C4N 1_555 1_555
O1Q C1F 1_555 1_555
C3Q C2F 1_555 1_555
H3Q C3Q 1_555 1_555
C4Q C5F 1_555 1_555
H4Q C4Q 1_555 1_555
O1R C1E 1_555 1_555
C3R C2E 1_555 1_555
H3R C3R 1_555 1_555
C4R C5E 1_555 1_555
H4R C4R 1_555 1_555
O1V C1B 1_555 1_555
C3V C2B 1_555 1_555
H3V C3V 1_555 1_555
C4V C5B 1_555 1_555
H4V C4V 1_555 1_555
O5I Yb2B 1_555 1_555
Yb1C O3 1_555 1_555
Yb2C O2B 1_555 1_555
O2C Yb1C 1_555 1_555
O5C Yb2C 1_555 1_555
O5F Yb2C 1_555 1_555
Yb1D O2D 1_555 1_555
Yb2D O1D 1_555 1_555
O2D Yb2D 1_555 1_555
O5D Yb2D 1_555 1_555
O5K Yb2D 1_555 1_555
Yb1E O2E 1_555 1_555
Yb2E O1E 1_555 1_555
O2E Yb2E 1_555 1_555
O5E Yb2E 1_555 1_555
O5H Yb2E 1_555 1_555
Yb1F O3F 1_555 1_555
O4F Yb1F 1_555 1_555
O4K Yb1F 1_555 1_555
O4I Yb1F 1_555 1_555
O4H O4K 1_555 1_555
O4G O4I 1_555 1_555
O4J O4H 1_555 1_555
Yb1K O2D 1_555 1_555
Yb1H O2E 1_555 1_555
Yb1J O2 1_555 1_555
Yb1G O2 1_555 1_555
Yb1I O3F 1_555 1_555
Yb1_2 O2E 1_555 1_555
Yb1D_2 O3 1_555 1_555
Yb1E_2 O2D 1_555 1_555
Yb1E_3 O3 1_555 1_555
Yb1H_2 O2D 1_555 1_555
Yb1H_3 O3F 1_555 1_555
Yb1J_2 O2E 1_555 1_555
Yb1K_2 O3F 1_555 1_555
Yb2_2 O1R 1_555 1_555
Yb2_3 O1J 1_555 1_555
Yb2_4 O1O 1_555 1_555
Yb2A_2 O1G 1_555 1_555
Yb2B_2 O1I 1_555 1_555
Yb2C_2 O1F 1_555 1_555
Yb2C_3 O1C 1_555 1_555
Yb2C_4 O1L 1_555 1_555
Yb2D_2 O1M 1_555 1_555
Yb2D_3 O2C 1_555 1_555
Yb2D_4 O1S 1_555 1_555
Yb2D_5 O1K 1_555 1_555
Yb2E_2 O1N 1_555 1_555
Yb2E_3 O1U 1_555 1_555
Yb2E_4 O1H 1_555 1_555
O1C_2 Yb2C 1_555 1_555
O1F_2 Yb2C 1_555 1_555
O1G_2 Yb2A 1_555 1_555
O1H_2 Yb2E 1_555 1_555
O1I_2 Yb2B 1_555 1_555
O1J_2 Yb2 1_555 1_555
O1K_2 Yb2D 1_555 1_555
O1L_2 Yb2C 1_555 1_555
O1M_2 Yb2D 1_555 1_555
O1N_2 Yb2E 1_555 1_555
O1O_2 Yb2 1_555 1_555
O1P_2 Yb2A 1_555 1_555
O1Q_2 Yb2B 1_555 1_555
O1R_2 Yb2 1_555 1_555
O1S_2 Yb2D 1_555 1_555
O1U_2 Yb2E 1_555 1_555
O2C_2 Yb1D 1_555 1_555
O2D_2 Yb1E 1_555 1_555
O2E_2 Yb1 1_555 1_555
O3_2 Yb1E 1_555 1_555
O3_3 Yb1D 1_555 1_555
O3F_2 Yb1H 1_555 1_555
O3F_3 Yb1K 1_555 1_555
O4_2 Yb1E 1_555 1_555
O4C_2 Yb1D 1_555 1_555
O4D_2 Yb1E 1_555 1_555
O4D_3 Yb1D 1_555 1_555
O4E_2 Yb1E 1_555 1_555
O4E_3 Yb1D 1_555 1_555
O4F_2 Yb1K 1_555 1_555
O4H_2 Yb1H 1_555 1_555
O4H_3 Yb1K 1_555 1_555
O4J_2 Yb1H 1_555 1_555
O4K_2 Yb1H 1_555 1_555
O4K_3 Yb1K 1_555 1_555
Yb2 O2E_2 1_555 1_555
O3 Yb1A 1_555 1_555
O4 O4A 1_555 1_555
O4 O4E 1_555 1_555
O4 Yb1A 1_555 1_555
O4 Yb1E_3 1_555 1_555
O5 O5J 1_555 1_555
C6 C9 1_555 1_555
C6C C9C 1_555 1_555
C9C C10C 1_555 1_555
C6G C7G 1_555 1_555
C6G C9G 1_555 1_555
C7G C8G 1_555 1_555
C6K C7K 1_555 1_555
C6K C9K 1_555 1_555
C7K C8K 1_555 1_555
C9K C10K 1_555 1_555
C3L C4L 1_555 1_555
C3O C4O 1_555 1_555
C3S C4S 1_555 1_555
O1W Yb2A 1_555 1_555
C3W C4W 1_555 1_555
O3F Yb1J 1_555 1_555
O3F Yb1G 1_555 1_555
O4A Yb1A 1_555 1_555
O4A Yb1B 1_555 1_555
O4E Yb1D_2 1_555 1_555
O4E Yb1E_3 1_555 1_555
O4B Yb1A 1_555 1_555
O4B Yb1B 1_555 1_555
O4B Yb1C 1_555 1_555
O4D O4C 1_555 1_555
O4D Yb1C 1_555 1_555
O4D Yb1D_2 1_555 1_555
O4D Yb1E_3 1_555 1_555
O4C Yb1B 1_555 1_555
O4C Yb1C 1_555 1_555
O4C Yb1D_2 1_555 1_555
Yb2A O2A 1_555 1_555
O2A Yb1B 1_555 1_555
O2A Yb1G 1_555 1_555
O2A Yb1I 1_555 1_555
O5A O5G 1_555 1_555
C6A C9A 1_555 1_555
C6D C9D 1_555 1_555
C9D C10D 1_555 1_555
C6I C7I 1_555 1_555
C6I C9I 1_555 1_555
C7I C8I 1_555 1_555
C6H C7H 1_555 1_555
C6H C9H 1_555 1_555
C7H C8H 1_555 1_555
C9H C10H 1_555 1_555
C3M C4M 1_555 1_555
O1P Yb2A_2 1_555 1_555
C3P C4P 1_555 1_555
C3U C4U 1_555 1_555
O1T Yb2B 1_555 1_555
C3T C4T 1_555 1_555
Yb2B O2B 1_555 1_555
O2B Yb1C 1_555 1_555
O2B Yb1F 1_555 1_555
O2B Yb1I 1_555 1_555
O5B O5I 1_555 1_555
C6B C9B 1_555 1_555
C6E C9E 1_555 1_555
C9E C10E 1_555 1_555
C6F C7F 1_555 1_555
C6F C9F 1_555 1_555
C7F C8F 1_555 1_555
C6J C7J 1_555 1_555
C6J C9J 1_555 1_555
C7J C8J 1_555 1_555
C9J C10J 1_555 1_555
C3N C4N 1_555 1_555
O1Q Yb2B_2 1_555 1_555
C3Q C4Q 1_555 1_555
C3R C4R 1_555 1_555
O1V Yb2C 1_555 1_555
C3V C4V 1_555 1_555
Yb2C O2C 1_555 1_555
O2C Yb1F 1_555 1_555
O2C Yb1D_2 1_555 1_555
O2C Yb1K_2 1_555 1_555
O5C O5F 1_555 1_555
Yb2D O2C_2 1_555 1_555
O2D Yb2E_3 1_555 1_555
O5D O5K 1_555 1_555
Yb2E O2D_2 1_555 1_555
O2E Yb2_2 1_555 1_555
O5E O5H 1_555 1_555
O4F O4K 1_555 1_555
O4F O4I 1_555 1_555
O4F Yb1I 1_555 1_555
O4F Yb1K_2 1_555 1_555
O4K Yb1H_3 1_555 1_555
O4K Yb1K_2 1_555 1_555
O4I Yb1G 1_555 1_555
O4I Yb1I 1_555 1_555
O4H Yb1J 1_555 1_555
O4H Yb1H_3 1_555 1_555
O4H Yb1K_2 1_555 1_555
O4G O4J 1_555 1_555
O4G Yb1J 1_555 1_555
O4G Yb1G 1_555 1_555
O4G Yb1I 1_555 1_555
O4J Yb1J 1_555 1_555
O4J Yb1G 1_555 1_555
O4J Yb1H_3 1_555 1_555
Yb1K O2C_2 1_555 1_555
Yb1H O2D_2 1_555 1_555
Yb1J O2E_2 1_555 1_555
Yb1_2 O3_2 1_555 1_555
Yb1_2 O4_2 1_555 1_555
Yb1_2 O4E_2 1_555 1_555
Yb1E_2 O3_3 1_555 1_555
Yb1E_2 O4D_3 1_555 1_555
Yb1E_2 O4E_3 1_555 1_555
Yb1E_3 O2E_2 1_555 1_555
Yb1H_2 O3F_3 1_555 1_555
Yb1H_2 O4H_3 1_555 1_555
Yb1H_2 O4K_3 1_555 1_555
Yb1H_3 O2E_2 1_555 1_555
Yb1J_2 O3F_2 1_555 1_555
Yb1J_2 O4H_2 1_555 1_555
Yb1J_2 O4J_2 1_555 1_555
O4_2 O4E_2 1_555 1_555
O4C_2 O4D_3 1_555 1_555
O4D_2 O4E_2 1_555 1_555
O4D_3 O4E_3 1_555 1_555
O4F_2 O4K_3 1_555 1_555
O4H_2 O4J_2 1_555 1_555
O4H_2 O4K_2 1_555 1_555
O4H_3 O4K_3 1_555 1_555

#END
