
#######################################################################
#
#                 Cambridge Crystallographic Data Centre
#                                CCDC 
#
#######################################################################
#
# If this CIF has been generated from an entry in the Cambridge 
# Structural Database, then it will include bibliographic, chemical, 
# crystal, experimental, refinement or atomic coordinate data resulting 
# from the CCDC's data processing and validation procedures.
#
#######################################################################

data_OYAJAB02
_chemical_formula_moiety         'C144 H80 N12 O74 Y34'
_symmetry_cell_setting           hexagonal
_symmetry_space_group_name_H-M   'P 6/m m m'
_symmetry_Int_Tables_number      191
_space_group_name_Hall           '-P 6 2'
loop_
_symmetry_equiv_pos_site_id
_symmetry_equiv_pos_as_xyz
1 x,y,z
2 x-y,x,z
3 -y,x-y,z
4 -x,-y,z
5 -x+y,-x,z
6 y,-x+y,z
7 -y,-x,-z
8 x-y,-y,-z
9 x,x-y,-z
10 y,x,-z
11 -x+y,y,-z
12 -x,-x+y,-z
13 -x,-y,-z
14 -x+y,-x,-z
15 y,-x+y,-z
16 x,y,-z
17 x-y,x,-z
18 -y,x-y,-z
19 y,x,z
20 -x+y,y,z
21 -x,-x+y,z
22 -y,-x,z
23 x-y,-y,z
24 x,x-y,z
_cell_length_a                   22.6495(13)
_cell_length_b                   22.6495(13)
_cell_length_c                   17.9177(12)
_cell_angle_alpha                90
_cell_angle_beta                 90
_cell_angle_gamma                120
_cell_volume                     7960.31
loop_
_atom_site_label
_atom_site_type_symbol
_atom_site_fract_x
_atom_site_fract_y
_atom_site_fract_z
Y1 Y 0.11286(6) 0.05643(3) 0.10709(6)
Y2 Y 0.20418(8) 0.10209(4) 0.0000
N1 N 0.4076(5) 0.0000 0.5000
H1 H 0.4455 0.0000 0.5000
N2 N 0.5000 0.0000 0.3842(7)
O1 O 0.2438(4) 0.0551(5) 0.0884(5)
O2 O 0.1199(2) 0.0000 0.0000
O3 O 0.0000 0.0000 0.0736(4)
H2 H 0.0000 0.0000 0.0262
O4 O 0.0800(6) 0.0400(3) 0.2255(7)
O5 O 0.3286(8) 0.1821(8) 0.0000
C1 C 0.2161(4) 0.0000 0.1324(6)
C2 C 0.2618(4) 0.0000 0.1930(6)
C3 C 0.3462(4) 0.0000 0.3040(6)
C4 C 0.2821(9) -0.0552(10) 0.2959(11)
H3 H 0.2666 -0.0940 0.3283
C5 C 0.2410(7) -0.0546(9) 0.2396(9)
H4 H 0.1963 -0.0933 0.2331
C6 C 0.3922(4) 0.0000 0.3644(6)
C7 C 0.3740(4) 0.0000 0.4391(6)
C8 C 0.3130(4) 0.0000 0.4623(6)
H5 H 0.2800 0.0000 0.4313
C9 C 0.4525(4) 0.0000 0.3407(6)
C10 C 0.4702(4) 0.0000 0.2673(6)
H6 H 0.4458 0.0000 0.2256
N1C N 0.5924(5) 0.0000 0.5000
H1C H 0.5545 0.0000 0.5000
O1C O 0.7562(4) -0.0551(5) 0.0884(5)
C1C C 0.7839(4) 0.0000 0.1324(6)
C2C C 0.7382(4) 0.0000 0.1930(6)
C3C C 0.6538(4) 0.0000 0.3040(6)
C4C C 0.7179(9) 0.0552(10) 0.2959(11)
H3C H 0.7334 0.0940 0.3283
C5C C 0.7590(7) 0.0546(9) 0.2396(9)
H4C H 0.8037 0.0933 0.2331
C6C C 0.6078(4) 0.0000 0.3644(6)
C7C C 0.6260(4) 0.0000 0.4391(6)
C8C C 0.6870(4) 0.0000 0.4623(6)
H5C H 0.7200 0.0000 0.4313
C9C C 0.5475(4) 0.0000 0.3407(6)
C10C C 0.5298(4) 0.0000 0.2673(6)
H6C H 0.5542 0.0000 0.2256
N2G N 0.5000 0.0000 0.6158(7)
O1G O 0.1887(6) -0.0551(5) 0.9116(5)
C1G C 0.2161(4) 0.0000 0.8676(6)
C2G C 0.2618(4) 0.0000 0.8070(6)
C3G C 0.3462(4) 0.0000 0.6960(6)
C4G C 0.3373(13) 0.0552(10) 0.7041(11)
H3G H 0.3606 0.0940 0.6717
C5G C 0.2956(11) 0.0546(9) 0.7604(9)
H4G H 0.2896 0.0933 0.7669
C6G C 0.3922(4) -0.0000 0.6356(6)
C7G C 0.3740(4) 0.0000 0.5609(6)
C8G C 0.3130(4) 0.0000 0.5377(6)
H5G H 0.2800 0.0000 0.5687
C9G C 0.4525(4) 0.0000 0.6593(6)
C10G C 0.4702(4) 0.0000 0.7327(6)
H6G H 0.4458 0.0000 0.7744
O1J O 0.8113(6) 0.0551(5) 0.9116(5)
C1J C 0.7839(4) 0.0000 0.8676(6)
C2J C 0.7382(4) 0.0000 0.8070(6)
C3J C 0.6538(4) 0.0000 0.6960(6)
C4J C 0.6627(13) -0.0552(10) 0.7041(11)
H3J H 0.6394 -0.0940 0.6717
C5J C 0.7044(11) -0.0546(9) 0.7604(9)
H4J H 0.7104 -0.0933 0.7669
C6J C 0.6078(4) -0.0000 0.6356(6)
C7J C 0.6260(4) 0.0000 0.5609(6)
C8J C 0.6870(4) 0.0000 0.5377(6)
H5J H 0.7200 0.0000 0.5687
C9J C 0.5475(4) 0.0000 0.6593(6)
C10J C 0.5298(4) 0.0000 0.7327(6)
H6J H 0.5542 0.0000 0.7744
O1L O 0.7562(4) -0.0551(5) 0.9116(5)
C4L C 0.7179(9) 0.0552(10) 0.7041(11)
H3L H 0.7334 0.0940 0.6717
C5L C 0.7590(7) 0.0546(9) 0.7604(9)
H4L H 0.8037 0.0933 0.7669
O1O O 0.2438(4) 0.0551(5) 0.9116(5)
C4O C 0.2821(9) -0.0552(10) 0.7041(11)
H3O H 0.2666 -0.0940 0.6717
C5O C 0.2410(7) -0.0546(9) 0.7604(9)
H4O H 0.1963 -0.0933 0.7669
O1S O 0.8113(6) 0.0551(5) 0.0884(5)
C4S C 0.6627(13) -0.0552(10) 0.2959(11)
H3S H 0.6394 -0.0940 0.3283
C5S C 0.7044(11) -0.0546(9) 0.2396(9)
H4S H 0.7104 -0.0933 0.2331
O1V O 0.1887(6) -0.0551(5) 0.0884(5)
C4V C 0.3373(13) 0.0552(10) 0.2959(11)
H3V H 0.3606 0.0940 0.3283
C5V C 0.2956(11) 0.0546(9) 0.2396(9)
H4V H 0.2896 0.0933 0.2331
O3F O -0.0000 0.0000 -0.0736(4)
H2F H -0.0000 -0.0000 -0.0262
O4A O 0.0400(7) 0.0800(6) 0.2255(7)
O4E O 0.0400(3) -0.0400(7) 0.2255(7)
O4B O -0.0400(3) 0.0400(7) 0.2255(7)
O4D O -0.0400(7) -0.0800(6) 0.2255(7)
O4C O -0.0800(6) -0.0400(3) 0.2255(7)
O5H O 0.3286(8) 0.1465(11) 0.0000
Y1A Y 0.05643(7) 0.11286(6) 0.10709(6)
Y2A Y 0.10209(9) 0.20418(8) 0.0000
N1A N 0.4076(5) 0.4076(5) 0.5000
H1A H 0.4455 0.4455 0.5000
N2A N 0.5000 0.5000 0.3842(7)
O1A O 0.1887(6) 0.2438(4) 0.0884(5)
O2A O 0.1199(2) 0.1199(2) 0.0000
O5A O 0.1465(11) 0.3286(8) 0.0000
C1A C 0.2161(4) 0.2161(4) 0.1324(6)
C2A C 0.2618(4) 0.2618(4) 0.1930(6)
C3A C 0.3462(4) 0.3462(4) 0.3040(6)
C4A C 0.3373(13) 0.2821(9) 0.2959(11)
H3A H 0.3606 0.2666 0.3283
C5A C 0.2956(11) 0.2410(7) 0.2396(9)
H4A H 0.2896 0.1963 0.2331
C6A C 0.3922(4) 0.3922(4) 0.3644(6)
C7A C 0.3740(4) 0.3740(4) 0.4391(6)
C8A C 0.3130(4) 0.3130(4) 0.4623(6)
H5A H 0.2800 0.2800 0.4313
C9A C 0.4525(4) 0.4525(4) 0.3407(6)
C10A C 0.4702(4) 0.4702(4) 0.2673(6)
H6A H 0.4458 0.4458 0.2256
N1D N 0.5924(5) 0.5924(5) 0.5000
H1D H 0.5545 0.5545 0.5000
O1D O 0.8113(6) 0.7562(4) 0.0884(5)
C1D C 0.7839(4) 0.7839(4) 0.1324(6)
C2D C 0.7382(4) 0.7382(4) 0.1930(6)
C3D C 0.6538(4) 0.6538(4) 0.3040(6)
C4D C 0.6627(13) 0.7179(9) 0.2959(11)
H3D H 0.6394 0.7334 0.3283
C5D C 0.7044(11) 0.7590(7) 0.2396(9)
H4D H 0.7104 0.8037 0.2331
C6D C 0.6078(4) 0.6078(4) 0.3644(6)
C7D C 0.6260(4) 0.6260(4) 0.4391(6)
C8D C 0.6870(4) 0.6870(4) 0.4623(6)
H5D H 0.7200 0.7200 0.4313
C9D C 0.5475(4) 0.5475(4) 0.3407(6)
C10D C 0.5298(4) 0.5298(4) 0.2673(6)
H6D H 0.5542 0.5542 0.2256
N2H N 0.5000 0.5000 0.6158(7)
O1H O 0.2438(4) 0.1887(6) 0.9116(5)
C1H C 0.2161(4) 0.2161(4) 0.8676(6)
C2H C 0.2618(4) 0.2618(4) 0.8070(6)
C3H C 0.3462(4) 0.3462(4) 0.6960(6)
C4H C 0.2821(9) 0.3373(13) 0.7041(11)
H3H H 0.2666 0.3606 0.6717
C5H C 0.2410(7) 0.2956(11) 0.7604(9)
H4H H 0.1963 0.2896 0.7669
C6H C 0.3922(4) 0.3922(4) 0.6356(6)
C7H C 0.3740(4) 0.3740(4) 0.5609(6)
C8H C 0.3130(4) 0.3130(4) 0.5377(6)
H5H H 0.2800 0.2800 0.5687
C9H C 0.4525(4) 0.4525(4) 0.6593(6)
C10H C 0.4702(4) 0.4702(4) 0.7327(6)
H6H H 0.4458 0.4458 0.7744
O1K O 0.7562(4) 0.8113(6) 0.9116(5)
C1K C 0.7839(4) 0.7839(4) 0.8676(6)
C2K C 0.7382(4) 0.7382(4) 0.8070(6)
C3K C 0.6538(4) 0.6538(4) 0.6960(6)
C4K C 0.7179(9) 0.6627(13) 0.7041(11)
H3K H 0.7334 0.6394 0.6717
C5K C 0.7590(7) 0.7044(11) 0.7604(9)
H4K H 0.8037 0.7104 0.7669
C6K C 0.6078(4) 0.6078(4) 0.6356(6)
C7K C 0.6260(4) 0.6260(4) 0.5609(6)
C8K C 0.6870(4) 0.6870(4) 0.5377(6)
H5K H 0.7200 0.7200 0.5687
C9K C 0.5475(4) 0.5475(4) 0.6593(6)
C10K C 0.5298(4) 0.5298(4) 0.7327(6)
H6K H 0.5542 0.5542 0.7744
O1M O 0.8113(6) 0.7562(4) 0.9116(5)
C4M C 0.6627(13) 0.7179(9) 0.7041(11)
H3M H 0.6394 0.7334 0.6717
C5M C 0.7044(11) 0.7590(7) 0.7604(9)
H4M H 0.7104 0.8037 0.7669
O1P O 0.1887(6) 0.2438(4) 0.9116(5)
C4P C 0.3373(13) 0.2821(9) 0.7041(11)
H3P H 0.3606 0.2666 0.6717
C5P C 0.2956(11) 0.2410(7) 0.7604(9)
H4P H 0.2896 0.1963 0.7669
O1T O 0.7562(4) 0.8113(6) 0.0884(5)
C4T C 0.7179(9) 0.6627(13) 0.2959(11)
H3T H 0.7334 0.6394 0.3283
C5T C 0.7590(7) 0.7044(11) 0.2396(9)
H4T H 0.8037 0.7104 0.2331
O1W O 0.2438(4) 0.1887(6) 0.0884(5)
C4W C 0.2821(9) 0.3373(13) 0.2959(11)
H3W H 0.2666 0.3606 0.3283
C5W C 0.2410(7) 0.2956(11) 0.2396(9)
H4W H 0.1963 0.2896 0.2331
O5I O 0.1821(8) 0.3286(8) 0.0000
Y1B Y -0.05643(3) 0.05643(7) 0.10709(6)
Y2B Y -0.10209(4) 0.10209(9) 0.0000
N1B N 0.0000 0.4076(5) 0.5000
H1B H 0.0000 0.4455 0.5000
N2B N -0.0000 0.5000 0.3842(7)
O1B O -0.0551(5) 0.1887(6) 0.0884(5)
O2B O 0.0000 0.1199(2) 0.0000
O5B O -0.1821(8) 0.1465(11) 0.0000
C1B C -0.0000 0.2161(4) 0.1324(6)
C2B C 0.0000 0.2618(4) 0.1930(6)
C3B C -0.0000 0.3462(4) 0.3040(6)
C4B C 0.0552(10) 0.3373(13) 0.2959(11)
H3B H 0.0940 0.3606 0.3283
C5B C 0.0546(9) 0.2956(11) 0.2396(9)
H4B H 0.0933 0.2896 0.2331
C6B C -0.0000 0.3922(4) 0.3644(6)
C7B C 0.0000 0.3740(4) 0.4391(6)
C8B C -0.0000 0.3130(4) 0.4623(6)
H5B H -0.0000 0.2800 0.4313
C9B C -0.0000 0.4525(4) 0.3407(6)
C10B C 0.0000 0.4702(4) 0.2673(6)
H6B H -0.0000 0.4458 0.2256
N1E N 0.0000 0.5924(5) 0.5000
H1E H 0.0000 0.5545 0.5000
O1E O 0.0551(5) 0.8113(6) 0.0884(5)
C1E C -0.0000 0.7839(4) 0.1324(6)
C2E C -0.0000 0.7382(4) 0.1930(6)
C3E C -0.0000 0.6538(4) 0.3040(6)
C4E C -0.0552(10) 0.6627(13) 0.2959(11)
H3E H -0.0940 0.6394 0.3283
C5E C -0.0546(9) 0.7044(11) 0.2396(9)
H4E H -0.0933 0.7104 0.2331
C6E C -0.0000 0.6078(4) 0.3644(6)
C7E C -0.0000 0.6260(4) 0.4391(6)
C8E C -0.0000 0.6870(4) 0.4623(6)
H5E H -0.0000 0.7200 0.4313
C9E C -0.0000 0.5475(4) 0.3407(6)
C10E C -0.0000 0.5298(4) 0.2673(6)
H6E H -0.0000 0.5542 0.2256
N2F N -0.0000 0.5000 0.6158(7)
O1I O 0.0551(5) 0.2438(4) 0.9116(5)
C1I C -0.0000 0.2161(4) 0.8676(6)
C2I C 0.0000 0.2618(4) 0.8070(6)
C3I C -0.0000 0.3462(4) 0.6960(6)
C4I C -0.0552(10) 0.2821(9) 0.7041(11)
H3I H -0.0940 0.2666 0.6717
C5I C -0.0546(9) 0.2410(7) 0.7604(9)
H4I H -0.0933 0.1963 0.7669
C6I C -0.0000 0.3922(4) 0.6356(6)
C7I C 0.0000 0.3740(4) 0.5609(6)
C8I C -0.0000 0.3130(4) 0.5377(6)
H5I H -0.0000 0.2800 0.5687
C9I C 0.0000 0.4525(4) 0.6593(6)
C10I C 0.0000 0.4702(4) 0.7327(6)
H6I H -0.0000 0.4458 0.7744
O1F O -0.0551(5) 0.7562(4) 0.9116(5)
C1F C 0.0000 0.7839(4) 0.8676(6)
C2F C -0.0000 0.7382(4) 0.8070(6)
C3F C 0.0000 0.6538(4) 0.6960(6)
C4F C 0.0552(10) 0.7179(9) 0.7041(11)
H3F H 0.0940 0.7334 0.6717
C5F C 0.0546(9) 0.7590(7) 0.7604(9)
H4F H 0.0933 0.8037 0.7669
C6F C -0.0000 0.6078(4) 0.6356(6)
C7F C 0.0000 0.6260(4) 0.5609(6)
C8F C 0.0000 0.6870(4) 0.5377(6)
H5F H -0.0000 0.7200 0.5687
C9F C -0.0000 0.5475(4) 0.6593(6)
C10F C 0.0000 0.5298(4) 0.7327(6)
H6F H -0.0000 0.5542 0.7744
O1N O 0.0551(5) 0.8113(6) 0.9116(5)
C4N C -0.0552(10) 0.6627(13) 0.7041(11)
H3N H -0.0940 0.6394 0.6717
C5N C -0.0546(9) 0.7044(11) 0.7604(9)
H4N H -0.0933 0.7104 0.7669
O1Q O -0.0551(5) 0.1887(6) 0.9116(5)
C4Q C 0.0552(10) 0.3373(13) 0.7041(11)
H3Q H 0.0940 0.3606 0.6717
C5Q C 0.0546(9) 0.2956(11) 0.7604(9)
H4Q H 0.0933 0.2896 0.7669
O1U O -0.0551(5) 0.7562(4) 0.0884(5)
C4U C 0.0552(10) 0.7179(9) 0.2959(11)
H3U H 0.0940 0.7334 0.3283
C5U C 0.0546(9) 0.7590(7) 0.2396(9)
H4U H 0.0933 0.8037 0.2331
O1R O 0.0551(5) 0.2438(4) 0.0884(5)
C4R C -0.0552(10) 0.2821(9) 0.2959(11)
H3R H -0.0940 0.2666 0.3283
C5R C -0.0546(9) 0.2410(7) 0.2396(9)
H4R H -0.0933 0.1963 0.2331
O5J O -0.1465(11) 0.1821(8) 0.0000
Y1C Y -0.11286(6) -0.05643(3) 0.10709(6)
Y2C Y -0.20418(8) -0.10209(4) 0.0000
O2C O -0.1199(2) 0.0000 0.0000
O5C O -0.3286(8) -0.1821(8) 0.0000
O5K O -0.3286(8) -0.1465(11) 0.0000
Y1D Y -0.05643(7) -0.11286(6) 0.10709(6)
Y2D Y -0.10209(9) -0.20418(8) 0.0000
O2D O -0.1199(2) -0.1199(2) 0.0000
O5D O -0.1465(11) -0.3286(8) 0.0000
O5F O -0.1821(8) -0.3286(8) 0.0000
Y1E Y 0.05643(3) -0.05643(7) 0.10709(6)
Y2E Y 0.10209(4) -0.10209(9) 0.0000
O2E O 0.0000 -0.1199(2) 0.0000
O5E O 0.1821(8) -0.1465(11) 0.0000
O5G O 0.1465(11) -0.1821(8) 0.0000
Y1F Y -0.05643(3) -0.11286(6) -0.10709(6)
O4F O -0.0400(3) -0.0800(6) -0.2255(7)
O4K O -0.0800(6) -0.0400(7) -0.2255(7)
O4G O 0.0400(7) -0.0400(3) -0.2255(7)
O4J O -0.0400(7) 0.0400(3) -0.2255(7)
O4H O 0.0800(6) 0.0400(7) -0.2255(7)
O4I O 0.0400(3) 0.0800(6) -0.2255(7)
Y1G Y 0.05643(7) -0.05643(3) -0.10709(6)
Y1H Y 0.11286(6) 0.05643(7) -0.10709(6)
Y1I Y 0.05643(3) 0.11286(6) -0.10709(6)
Y1J Y -0.05643(7) 0.05643(3) -0.10709(6)
Y1K Y -0.11286(6) -0.05643(7) -0.10709(6)
Y2_2 Y 0.20418(8) 0.10209(4) 1.0000
Y2A_2 Y 0.10209(9) 0.20418(8) 1.0000
Y2B_2 Y -0.10209(4) 0.10209(9) 1.0000
Y2B_3 Y 0.89791(4) 0.10209(9) 0.0000
Y2B_4 Y 0.89791(4) 0.10209(9) 1.0000
Y2C_2 Y 0.79582(8) -0.10209(4) 0.0000
Y2C_3 Y 0.79582(8) -0.10209(4) 1.0000
Y2C_4 Y 0.79582(8) 0.89791(4) 0.0000
Y2C_5 Y 0.79582(8) 0.89791(4) 1.0000
Y2D_2 Y -0.10209(9) 0.79582(8) 0.0000
Y2D_3 Y -0.10209(9) 0.79582(8) 1.0000
Y2D_4 Y 0.89791(9) 0.79582(8) 0.0000
Y2D_5 Y 0.89791(9) 0.79582(8) 1.0000
Y2E_2 Y 0.10209(4) -0.10209(9) 1.0000
Y2E_3 Y 0.10209(4) 0.89791(9) 0.0000
Y2E_4 Y 0.10209(4) 0.89791(9) 1.0000
O1C_2 O -0.2438(4) -0.0551(5) 0.0884(5)
O1D_2 O -0.1887(6) -0.2438(4) 0.0884(5)
O1E_2 O 0.0551(5) -0.1887(6) 0.0884(5)
O1F_2 O -0.0551(5) -0.2438(4) -0.0884(5)
O1G_2 O 0.1887(6) -0.0551(5) -0.0884(5)
O1H_2 O 0.2438(4) 0.1887(6) -0.0884(5)
O1I_2 O 0.0551(5) 0.2438(4) -0.0884(5)
O1J_2 O -0.1887(6) 0.0551(5) -0.0884(5)
O1K_2 O -0.2438(4) -0.1887(6) -0.0884(5)
O1L_2 O -0.2438(4) -0.0551(5) -0.0884(5)
O1M_2 O -0.1887(6) -0.2438(4) -0.0884(5)
O1N_2 O 0.0551(5) -0.1887(6) -0.0884(5)
O1O_2 O 0.2438(4) 0.0551(5) -0.0884(5)
O1P_2 O 0.1887(6) 0.2438(4) -0.0884(5)
O1Q_2 O -0.0551(5) 0.1887(6) -0.0884(5)
O1S_2 O -0.1887(6) 0.0551(5) 0.0884(5)
O1T_2 O -0.2438(4) -0.1887(6) 0.0884(5)
O1U_2 O -0.0551(5) -0.2438(4) 0.0884(5)
loop_
_geom_bond_atom_site_label_1
_geom_bond_atom_site_label_2
_geom_bond_site_symmetry_1
_geom_bond_site_symmetry_2
Y1 O2 1_555 1_555
Y2 O1 1_555 1_555
N1 H1 1_555 1_555
N2 C9 1_555 1_555
O1 C1 1_555 1_555
O2 Y2 1_555 1_555
O3 Y1 1_555 1_555
H2 O3 1_555 1_555
O4 Y1 1_555 1_555
O5 Y2 1_555 1_555
C1 C2 1_555 1_555
C2 C5 1_555 1_555
C3 C4 1_555 1_555
C4 H3 1_555 1_555
C5 C4 1_555 1_555
H4 C5 1_555 1_555
C6 C3 1_555 1_555
C7 N1 1_555 1_555
C8 C7 1_555 1_555
H5 C8 1_555 1_555
C9 C6 1_555 1_555
C10 C9 1_555 1_555
H6 C10 1_555 1_555
N1C H1C 1_555 1_555
O1C C1C 1_555 1_555
C1C C2C 1_555 1_555
C2C C5C 1_555 1_555
C3C C4C 1_555 1_555
C4C H3C 1_555 1_555
C5C C4C 1_555 1_555
H4C C5C 1_555 1_555
C6C C3C 1_555 1_555
C7C N1C 1_555 1_555
C8C C7C 1_555 1_555
H5C C8C 1_555 1_555
C9C N2 1_555 1_555
C10C C10 1_555 1_555
H6C C10C 1_555 1_555
N2G C9G 1_555 1_555
O1G C1G 1_555 1_555
C1G C2G 1_555 1_555
C2G C5G 1_555 1_555
C3G C4G 1_555 1_555
C4G H3G 1_555 1_555
C5G C4G 1_555 1_555
H4G C5G 1_555 1_555
C6G C3G 1_555 1_555
C7G N1 1_555 1_555
C8G C8 1_555 1_555
H5G C8G 1_555 1_555
C9G C6G 1_555 1_555
C10G C9G 1_555 1_555
H6G C10G 1_555 1_555
O1J C1J 1_555 1_555
C1J C2J 1_555 1_555
C2J C5J 1_555 1_555
C3J C4J 1_555 1_555
C4J H3J 1_555 1_555
C5J C4J 1_555 1_555
H4J C5J 1_555 1_555
C6J C3J 1_555 1_555
C7J N1C 1_555 1_555
C8J C8C 1_555 1_555
H5J C8J 1_555 1_555
C9J N2G 1_555 1_555
C10J C10G 1_555 1_555
H6J C10J 1_555 1_555
O1L C1J 1_555 1_555
C4L C3J 1_555 1_555
H3L C4L 1_555 1_555
C5L C2J 1_555 1_555
H4L C5L 1_555 1_555
O1O C1G 1_555 1_555
C4O C3G 1_555 1_555
H3O C4O 1_555 1_555
C5O C2G 1_555 1_555
H4O C5O 1_555 1_555
O1S C1C 1_555 1_555
C4S C3C 1_555 1_555
H3S C4S 1_555 1_555
C5S C2C 1_555 1_555
H4S C5S 1_555 1_555
O1V C1 1_555 1_555
C4V C3 1_555 1_555
H3V C4V 1_555 1_555
C5V C2 1_555 1_555
H4V C5V 1_555 1_555
O3F H2F 1_555 1_555
O4A Y1 1_555 1_555
O4E Y1 1_555 1_555
O4B O4A 1_555 1_555
O4D O4E 1_555 1_555
O4C O4B 1_555 1_555
O5H Y2 1_555 1_555
Y1A O3 1_555 1_555
Y2A O1A 1_555 1_555
N1A H1A 1_555 1_555
N2A C9A 1_555 1_555
O1A C1A 1_555 1_555
O2A Y1 1_555 1_555
O5A Y2A 1_555 1_555
C1A C2A 1_555 1_555
C2A C5A 1_555 1_555
C3A C4A 1_555 1_555
C4A H3A 1_555 1_555
C5A C4A 1_555 1_555
H4A C5A 1_555 1_555
C6A C3A 1_555 1_555
C7A N1A 1_555 1_555
C8A C7A 1_555 1_555
H5A C8A 1_555 1_555
C9A C6A 1_555 1_555
C10A C9A 1_555 1_555
H6A C10A 1_555 1_555
N1D H1D 1_555 1_555
O1D C1D 1_555 1_555
C1D C2D 1_555 1_555
C2D C5D 1_555 1_555
C3D C4D 1_555 1_555
C4D H3D 1_555 1_555
C5D C4D 1_555 1_555
H4D C5D 1_555 1_555
C6D C3D 1_555 1_555
C7D N1D 1_555 1_555
C8D C7D 1_555 1_555
H5D C8D 1_555 1_555
C9D N2A 1_555 1_555
C10D C10A 1_555 1_555
H6D C10D 1_555 1_555
N2H C9H 1_555 1_555
O1H C1H 1_555 1_555
C1H C2H 1_555 1_555
C2H C5H 1_555 1_555
C3H C4H 1_555 1_555
C4H H3H 1_555 1_555
C5H C4H 1_555 1_555
H4H C5H 1_555 1_555
C6H C3H 1_555 1_555
C7H N1A 1_555 1_555
C8H C8A 1_555 1_555
H5H C8H 1_555 1_555
C9H C6H 1_555 1_555
C10H C9H 1_555 1_555
H6H C10H 1_555 1_555
O1K C1K 1_555 1_555
C1K C2K 1_555 1_555
C2K C5K 1_555 1_555
C3K C4K 1_555 1_555
C4K H3K 1_555 1_555
C5K C4K 1_555 1_555
H4K C5K 1_555 1_555
C6K C3K 1_555 1_555
C7K N1D 1_555 1_555
C8K C8D 1_555 1_555
H5K C8K 1_555 1_555
C9K N2H 1_555 1_555
C10K C10H 1_555 1_555
H6K C10K 1_555 1_555
O1M C1K 1_555 1_555
C4M C3K 1_555 1_555
H3M C4M 1_555 1_555
C5M C2K 1_555 1_555
H4M C5M 1_555 1_555
O1P C1H 1_555 1_555
C4P C3H 1_555 1_555
H3P C4P 1_555 1_555
C5P C2H 1_555 1_555
H4P C5P 1_555 1_555
O1T C1D 1_555 1_555
C4T C3D 1_555 1_555
H3T C4T 1_555 1_555
C5T C2D 1_555 1_555
H4T C5T 1_555 1_555
O1W Y2 1_555 1_555
C4W C3A 1_555 1_555
H3W C4W 1_555 1_555
C5W C2A 1_555 1_555
H4W C5W 1_555 1_555
O5I Y2A 1_555 1_555
Y1B O3 1_555 1_555
Y2B O1B 1_555 1_555
N1B H1B 1_555 1_555
N2B C9B 1_555 1_555
O1B C1B 1_555 1_555
O2B Y1A 1_555 1_555
O5B Y2B 1_555 1_555
C1B C2B 1_555 1_555
C2B C5B 1_555 1_555
C3B C4B 1_555 1_555
C4B H3B 1_555 1_555
C5B C4B 1_555 1_555
H4B C5B 1_555 1_555
C6B C3B 1_555 1_555
C7B N1B 1_555 1_555
C8B C7B 1_555 1_555
H5B C8B 1_555 1_555
C9B C6B 1_555 1_555
C10B C9B 1_555 1_555
H6B C10B 1_555 1_555
N1E H1E 1_555 1_555
O1E C1E 1_555 1_555
C1E C2E 1_555 1_555
C2E C5E 1_555 1_555
C3E C4E 1_555 1_555
C4E H3E 1_555 1_555
C5E C4E 1_555 1_555
H4E C5E 1_555 1_555
C6E C3E 1_555 1_555
C7E N1E 1_555 1_555
C8E C7E 1_555 1_555
H5E C8E 1_555 1_555
C9E N2B 1_555 1_555
C10E C10B 1_555 1_555
H6E C10E 1_555 1_555
N2F C9I 1_555 1_555
O1I C1I 1_555 1_555
C1I C2I 1_555 1_555
C2I C5I 1_555 1_555
C3I C4I 1_555 1_555
C4I H3I 1_555 1_555
C5I C4I 1_555 1_555
H4I C5I 1_555 1_555
C6I C3I 1_555 1_555
C7I N1B 1_555 1_555
C8I C8B 1_555 1_555
H5I C8I 1_555 1_555
C9I C6I 1_555 1_555
C10I C9I 1_555 1_555
H6I C10I 1_555 1_555
O1F C1F 1_555 1_555
C1F C2F 1_555 1_555
C2F C5F 1_555 1_555
C3F C4F 1_555 1_555
C4F H3F 1_555 1_555
C5F C4F 1_555 1_555
H4F C5F 1_555 1_555
C6F C3F 1_555 1_555
C7F N1E 1_555 1_555
C8F C8E 1_555 1_555
H5F C8F 1_555 1_555
C9F N2F 1_555 1_555
C10F C10I 1_555 1_555
H6F C10F 1_555 1_555
O1N C1F 1_555 1_555
C4N C3F 1_555 1_555
H3N C4N 1_555 1_555
C5N C2F 1_555 1_555
H4N C5N 1_555 1_555
O1Q C1I 1_555 1_555
C4Q C3I 1_555 1_555
H3Q C4Q 1_555 1_555
C5Q C2I 1_555 1_555
H4Q C5Q 1_555 1_555
O1U C1E 1_555 1_555
C4U C3E 1_555 1_555
H3U C4U 1_555 1_555
C5U C2E 1_555 1_555
H4U C5U 1_555 1_555
O1R Y2A 1_555 1_555
C4R C3B 1_555 1_555
H3R C4R 1_555 1_555
C5R C2B 1_555 1_555
H4R C5R 1_555 1_555
O5J Y2B 1_555 1_555
Y1C O3 1_555 1_555
Y2C O2C 1_555 1_555
O2C Y1B 1_555 1_555
O5C Y2C 1_555 1_555
O5K Y2C 1_555 1_555
Y1D O3 1_555 1_555
Y2D O2D 1_555 1_555
O2D Y1C 1_555 1_555
O5D Y2D 1_555 1_555
O5F Y2D 1_555 1_555
Y1E O2 1_555 1_555
Y2E O2 1_555 1_555
O2E Y1D 1_555 1_555
O5E Y2E 1_555 1_555
O5G Y2E 1_555 1_555
Y1F O3F 1_555 1_555
O4F Y1F 1_555 1_555
O4K Y1F 1_555 1_555
O4G Y1F 1_555 1_555
O4J O4K 1_555 1_555
O4H O4G 1_555 1_555
O4I O4J 1_555 1_555
Y1G O2 1_555 1_555
Y1H O2 1_555 1_555
Y1I O3F 1_555 1_555
Y1J O3F 1_555 1_555
Y1K O3F 1_555 1_555
Y2_2 O1O 1_555 1_555
Y2A_2 O1P 1_555 1_555
Y2B_2 O1Q 1_555 1_555
Y2B_3 O1S 1_555 1_555
Y2B_4 O1J 1_555 1_555
Y2C_2 O1C 1_555 1_555
Y2C_3 O1L 1_555 1_555
Y2C_4 O1T 1_555 1_555
Y2C_5 O1K 1_555 1_555
Y2D_2 O1U 1_555 1_555
Y2D_3 O1F 1_555 1_555
Y2D_4 O1D 1_555 1_555
Y2D_5 O1M 1_555 1_555
Y2E_2 O1G 1_555 1_555
Y2E_3 O1E 1_555 1_555
Y2E_4 O1N 1_555 1_555
O1C_2 Y2C 1_555 1_555
O1D_2 Y2D 1_555 1_555
O1E_2 Y2E 1_555 1_555
O1F_2 Y2D 1_555 1_555
O1G_2 Y2E 1_555 1_555
O1H_2 Y2 1_555 1_555
O1I_2 Y2A 1_555 1_555
O1J_2 Y2B 1_555 1_555
O1K_2 Y2C 1_555 1_555
O1L_2 Y2C 1_555 1_555
O1M_2 Y2D 1_555 1_555
O1N_2 Y2E 1_555 1_555
O1O_2 Y2 1_555 1_555
O1P_2 Y2A 1_555 1_555
O1Q_2 Y2B 1_555 1_555
O1S_2 Y2B 1_555 1_555
O1T_2 Y2C 1_555 1_555
O1U_2 Y2D 1_555 1_555
Y2 O2A 1_555 1_555
O3 Y1E 1_555 1_555
O4 O4A 1_555 1_555
O4 O4E 1_555 1_555
O4 Y1A 1_555 1_555
O4 Y1E 1_555 1_555
O5 O5H 1_555 1_555
C6 C7 1_555 1_555
C6C C7C 1_555 1_555
C6C C9C 1_555 1_555
C9C C10C 1_555 1_555
C6G C7G 1_555 1_555
C7G C8G 1_555 1_555
C6J C7J 1_555 1_555
C6J C9J 1_555 1_555
C7J C8J 1_555 1_555
C9J C10J 1_555 1_555
C4L C5L 1_555 1_555
C4O C5O 1_555 1_555
C4S C5S 1_555 1_555
O1V Y2E 1_555 1_555
C4V C5V 1_555 1_555
O3F Y1G 1_555 1_555
O3F Y1H 1_555 1_555
O4A Y1A 1_555 1_555
O4A Y1B 1_555 1_555
O4E Y1D 1_555 1_555
O4E Y1E 1_555 1_555
O4B Y1A 1_555 1_555
O4B Y1B 1_555 1_555
O4B Y1C 1_555 1_555
O4D O4C 1_555 1_555
O4D Y1C 1_555 1_555
O4D Y1D 1_555 1_555
O4D Y1E 1_555 1_555
O4C Y1B 1_555 1_555
O4C Y1C 1_555 1_555
O4C Y1D 1_555 1_555
Y1A O2A 1_555 1_555
Y2A O2A 1_555 1_555
Y2A O2B 1_555 1_555
O2A Y1H 1_555 1_555
O2A Y1I 1_555 1_555
O5A O5I 1_555 1_555
C1A O1W 1_555 1_555
C6A C7A 1_555 1_555
C6D C7D 1_555 1_555
C6D C9D 1_555 1_555
C9D C10D 1_555 1_555
O1H Y2_2 1_555 1_555
C6H C7H 1_555 1_555
C7H C8H 1_555 1_555
C6K C7K 1_555 1_555
C6K C9K 1_555 1_555
C7K C8K 1_555 1_555
C9K C10K 1_555 1_555
C4M C5M 1_555 1_555
C4P C5P 1_555 1_555
C4T C5T 1_555 1_555
C4W C5W 1_555 1_555
Y1B O2B 1_555 1_555
Y2B O2B 1_555 1_555
Y2B O2C 1_555 1_555
O2B Y1I 1_555 1_555
O2B Y1J 1_555 1_555
O5B O5J 1_555 1_555
C1B O1R 1_555 1_555
C6B C7B 1_555 1_555
C6E C7E 1_555 1_555
C6E C9E 1_555 1_555
C9E C10E 1_555 1_555
O1I Y2A_2 1_555 1_555
C6I C7I 1_555 1_555
C7I C8I 1_555 1_555
C6F C7F 1_555 1_555
C6F C9F 1_555 1_555
C7F C8F 1_555 1_555
C9F C10F 1_555 1_555
C4N C5N 1_555 1_555
C4Q C5Q 1_555 1_555
C4U C5U 1_555 1_555
C4R C5R 1_555 1_555
Y1C O2C 1_555 1_555
Y2C O2D 1_555 1_555
O2C Y1J 1_555 1_555
O2C Y1K 1_555 1_555
O5C O5K 1_555 1_555
Y1D O2D 1_555 1_555
Y2D O2E 1_555 1_555
O2D Y1F 1_555 1_555
O2D Y1K 1_555 1_555
O5D O5F 1_555 1_555
Y1E O2E 1_555 1_555
Y2E O2E 1_555 1_555
O2E Y1F 1_555 1_555
O2E Y1G 1_555 1_555
O5E O5G 1_555 1_555
O4F O4K 1_555 1_555
O4F O4G 1_555 1_555
O4F Y1G 1_555 1_555
O4F Y1K 1_555 1_555
O4K Y1J 1_555 1_555
O4K Y1K 1_555 1_555
O4G Y1G 1_555 1_555
O4G Y1H 1_555 1_555
O4J Y1I 1_555 1_555
O4J Y1J 1_555 1_555
O4J Y1K 1_555 1_555
O4H O4I 1_555 1_555
O4H Y1G 1_555 1_555
O4H Y1H 1_555 1_555
O4H Y1I 1_555 1_555
O4I Y1H 1_555 1_555
O4I Y1I 1_555 1_555
O4I Y1J 1_555 1_555

#END
