
#######################################################################
#
#                 Cambridge Crystallographic Data Centre
#                                CCDC 
#
#######################################################################
#
# If this CIF has been generated from an entry in the Cambridge 
# Structural Database, then it will include bibliographic, chemical, 
# crystal, experimental, refinement or atomic coordinate data resulting 
# from the CCDC's data processing and validation procedures.
#
#######################################################################

data_RANCEQ
_chemical_formula_moiety         'C344 H228 N24 O94 Zn45'
_symmetry_cell_setting           rhombohedral
_symmetry_space_group_name_H-M   'R 3'
_symmetry_Int_Tables_number      146
_space_group_name_Hall           'R 3'
loop_
_symmetry_equiv_pos_site_id
_symmetry_equiv_pos_as_xyz
1 x,y,z
2 -y,x-y,z
3 -x+y,-x,z
4 2/3+x,1/3+y,1/3+z
5 2/3-y,1/3+x-y,1/3+z
6 2/3-x+y,1/3-x,1/3+z
7 1/3+x,2/3+y,2/3+z
8 1/3-y,2/3+x-y,2/3+z
9 1/3-x+y,2/3-x,2/3+z
_cell_length_a                   52.143(4)
_cell_length_b                   52.143(4)
_cell_length_c                   31.870(3)
_cell_angle_alpha                90
_cell_angle_beta                 90
_cell_angle_gamma                120
_cell_volume                     75042.1
loop_
_atom_site_label
_atom_site_type_symbol
_atom_site_fract_x
_atom_site_fract_y
_atom_site_fract_z
Zn1 Zn 0.205821(21) -0.147164(15) 0.73656(7)
Zn2 Zn 0.6667 0.3333 0.65836(8)
Zn3 Zn 0.36857(3) 0.19077(2) 0.08448(7)
Zn4 Zn 0.15013(3) -0.20956(2) 0.72045(7)
Zn5 Zn 0.16566(3) -0.15576(2) 0.65850(8)
Zn6 Zn 0.63571(3) 0.29460(2) 0.73768(7)
O1 O 0.23428(16) -0.11535(11) 0.69932(18)
O2 O 0.63303(10) 0.30009(14) 0.63223(18)
O3 O 0.32724(13) 0.12180(9) 0.12325(18)
O4 O 0.22331(13) -0.17218(10) 0.74402(15)
O5 O 0.18189(16) -0.21491(11) 0.73876(19)
O6 O 0.36989(12) 0.64315(18) 0.1028(2)
O7 O 0.36523(18) 0.21881(13) 0.1119(2)
O8 O 0.19227(24) 0.33367(16) 0.6313(3)
O9 O 0.40156(24) 0.21263(30) 0.0462(3)
O10 O 0.22557(23) 0.36819(16) 0.6697(2)
O11 O 0.61762(16) 0.27168(17) 0.6871(3)
O12 O 0.36727(19) 0.16361(13) 0.1275(3)
O13 O 0.20611(20) -0.12798(14) 0.6430(3)
O14 O 0.16402(12) -0.16912(8) 0.71488(16)
O15 O 0.38560(24) 0.18816(28) -0.0145(3)
O16 O 0.6667 0.3333 0.7175(3)
O17 O 0.31931(18) 0.61548(13) 0.1141(2)
O18 O 0.32703(24) 0.21892(18) 0.0800(3)
O19 O 0.3333 -0.3333 0.8933(5)
H1 H 0.3159 -0.3435 0.9021
O20 O 0.6667 0.3333 -0.1338(5)
H2 H 0.6571 0.3412 -0.1426
O21 O 0.40029(25) 0.44659(17) 0.3302(3)
H3 H 0.4066 0.4622 0.3444
O22 O 0.45151(24) 0.05255(17) 0.4349(3)
H4 H 0.4415 0.0381 0.4189
N1 N 0.26071(19) -0.28354(15) 0.8145(2)
N2 N 0.51958(19) 0.15361(13) 0.5570(2)
N3 N 0.33315(19) -0.02636(14) 0.5282(2)
N4 N 0.41162(17) 0.10913(11) 0.2967(2)
N5 N 0.53748(26) 0.2656(2) -0.0506(3)
N6 N 0.37187(27) 0.53050(18) 0.2148(4)
N7 N 0.3016(4) 0.3972(2) 0.4726(4)
N8 N 0.37030(28) 0.3336(2) 0.2303(4)
C1 C 0.3333 -0.3333 0.8613(4)
C2 C 0.2635(3) 0.3813(2) 0.5211(4)
C3 C 0.30596(23) -0.28899(17) 0.8011(2)
H5 H 0.3123 -0.2759 0.7779
C4 C 0.31467(22) -0.31995(16) 0.8472(3)
C5 C 0.30572(21) -0.04824(15) 0.6358(3)
H6 H 0.3226 -0.0334 0.6500
C6 C 0.23768(16) 0.36420(9) 0.5970(4)
C7 C 0.25694(23) -0.24403(16) 0.7846(2)
C8 C 0.37133(23) 0.28996(11) 0.1903(3)
H7 H 0.3839 0.2964 0.2142
C9 C 0.28055(22) -0.29497(16) 0.8258(3)
C10 C 0.62985(21) 0.31247(9) -0.0956(3)
C11 C 0.37650(24) 0.10931(18) 0.2504(2)
C12 C 0.22621(25) -0.21387(17) 0.7586(2)
C13 C 0.40984(20) 0.04036(15) 0.4690(3)
C14 C 0.29022(24) -0.32402(18) 0.8700(2)
H8 H 0.2850 -0.3361 0.8943
C15 C 0.42848(18) 0.07497(11) 0.4085(2)
C16 C 0.27277(21) -0.31150(15) 0.8599(3)
H9 H 0.2563 -0.3147 0.8765
C17 C 0.39698(19) 0.08678(14) 0.3665(3)
H10 H 0.3785 0.0861 0.3632
C18 C 0.43752(19) 0.22191(7) -0.0060(2)
C19 C 0.47855(19) 0.08388(13) 0.4976(2)
H11 H 0.4787 0.0659 0.4938
C20 C 0.35067(27) 0.13900(18) 0.1384(3)
C21 C 0.32161(21) -0.30504(15) 0.8149(3)
H12 H 0.3373 -0.3037 0.7982
C22 C 0.44146(21) 0.09630(13) 0.3369(2)
H13 H 0.4552 0.1037 0.3144
C23 C 0.39435(22) 0.01058(18) 0.4566(2)
H14 H 0.4018 0.0054 0.4329
C24 C 0.20810(25) -0.19856(19) 0.7466(2)
C25 C 0.48032(19) 0.13673(13) 0.5052(2)
H15 H 0.4809 0.1552 0.5073
C26 C 0.40384(19) 0.07686(11) 0.4054(2)
H16 H 0.3908 0.0717 0.4287
C27 C 0.35971(22) -0.00372(17) 0.5092(3)
C28 C 0.31309(17) 0.40105(8) 0.4013(4)
H17 H 0.2931 0.3855 0.3996
C29 C 0.5589(4) 0.2002(2) 0.6126(5)
H18 H 0.5475 0.1808 0.6238
C30 C 0.40024(18) 0.04854(12) 0.5026(2)
H19 H 0.4102 0.0687 0.5111
C31 C 0.37684(28) 0.43870(19) 0.3204(3)
C32 C 0.5249(5) 0.2659(3) -0.0268(4)
H20 H 0.5361 0.2811 -0.0069
C33 C 0.27959(24) 0.40012(16) 0.5557(4)
H21 H 0.2983 0.4177 0.5526
C34 C 0.2265(3) -0.1143(2) 0.6650(4)
C35 C 0.43734(21) 0.06258(15) 0.4455(2)
C36 C 0.3515(3) 0.5987(2) 0.1431(3)
C37 C 0.37118(21) 0.26680(10) 0.1655(3)
H22 H 0.3834 0.2589 0.1735
C38 C 0.4960(3) 0.2501(2) -0.0166(6)
C39 C 0.34946(23) 0.09503(18) 0.2353(3)
H23 H 0.3349 0.0777 0.2492
C40 C 0.36795(21) -0.01331(14) 0.4761(3)
H24 H 0.3579 -0.0332 0.4665
C41 C 0.27353(21) -0.25921(16) 0.7986(2)
H25 H 0.2944 -0.2495 0.7949
C42 C 0.26410(28) 0.3895(2) 0.5974(3)
H26 H 0.2725 0.4001 0.6226
C43 C 0.3336(4) 0.5501(2) 0.1817(4)
H27 H 0.3171 0.5313 0.1884
C44 C 0.37375(23) 0.02587(18) 0.5269(2)
H28 H 0.3669 0.0306 0.5516
C45 C 0.35526(28) 0.48720(19) 0.2781(3)
H29 H 0.3383 0.4890 0.2834
C46 C 0.25389(21) -0.20056(13) 0.7596(2)
H30 H 0.2644 -0.1804 0.7513
C47 C 0.55294(24) 0.20376(17) 0.5725(3)
C48 C 0.33076(18) -0.02540(13) 0.5674(3)
H31 H 0.3460 -0.0094 0.5828
C49 C 0.35917(28) 0.12973(19) 0.1771(3)
C50 C 0.41722(21) 0.09703(13) 0.3345(3)
C51 C 0.6162(3) 0.2772(2) 0.6513(4)
C52 C 0.3594(3) 0.5558(2) 0.1868(3)
C53 C 0.2262(3) -0.2595(2) 0.7873(3)
H32 H 0.2161 -0.2792 0.7979
C54 C 0.32417(26) 0.41533(19) 0.4374(3)
C55 C 0.45127(35) 0.23771(18) 0.0171(4)
H33 H 0.4421 0.2410 0.0405
C56 C 0.3525(4) 0.5286(3) 0.2158(4)
H34 H 0.3349 0.5148 0.2298
C57 C 0.56681(24) 0.23097(14) 0.5574(3)
H35 H 0.5637 0.2351 0.5294
C58 C 0.2528(3) -0.0911(2) 0.5959(4)
H36 H 0.2343 -0.1034 0.5826
C59 C 0.30418(21) -0.04917(16) 0.5905(3)
C60 C 0.3511(4) 0.2305(2) 0.1037(4)
C61 C 0.59367(34) 0.30665(17) -0.0436(3)
H37 H 0.5900 0.3136 -0.0180
C62 C 0.3976(4) 0.5038(3) 0.2407(4)
H38 H 0.4125 0.5154 0.2208
C63 C 0.49917(23) 0.13134(17) 0.5279(3)
C64 C 0.4834(5) 0.2541(3) 0.0139(4)
H39 H 0.4948 0.2679 0.0352
C65 C 0.34049(33) 0.27132(14) 0.1289(4)
H40 H 0.3280 0.2645 0.1049
C66 C 0.3613(5) 0.3315(4) 0.1982(5)
H41 H 0.3581 0.3456 0.1838
C67 C 0.38581(19) 0.09813(12) 0.2863(2)
H42 H 0.3712 0.0818 0.3017
C68 C 0.2783(3) -0.0728(2) 0.5722(3)
H43 H 0.2781 -0.0764 0.5429
C69 C 0.4035(4) 0.2067(3) 0.0032(5)
C70 C 0.5807(3) 0.2225(2) 0.6409(3)
H44 H 0.5853 0.2181 0.6678
C71 C 0.44697(27) 0.21459(18) -0.0408(3)
H45 H 0.4340 0.2004 -0.0606
C72 C 0.58177(26) 0.27775(16) -0.0993(4)
H46 H 0.5683 0.2620 -0.1166
C73 C 0.6667 0.3333 -0.1018(6)
C74 C 0.2273(4) 0.3514(3) 0.5686(5)
H47 H 0.2086 0.3339 0.5722
C75 C 0.3894(3) 0.1454(2) 0.1901(4)
H48 H 0.4035 0.1623 0.1751
C76 C 0.3783(4) 0.4635(3) 0.2956(3)
C77 C 0.49890(25) 0.10479(19) 0.5260(2)
H49 H 0.5116 0.1009 0.5429
C78 C 0.59417(26) 0.25157(17) 0.6239(3)
C79 C 0.58848(20) 0.25600(14) 0.5871(3)
H50 H 0.5980 0.2757 0.5770
C80 C 0.45875(18) 0.08804(12) 0.47514(19)
C81 C 0.37098(22) 0.41052(12) 0.2937(3)
C82 C 0.62427(26) 0.32200(16) -0.0595(4)
H51 H 0.6396 0.3381 -0.0446
C83 C 0.44784(18) 0.08446(13) 0.3733(3)
H52 H 0.4652 0.0829 0.3740
C84 C 0.39864(27) 0.13417(18) 0.2292(4)
H53 H 0.4186 0.1438 0.2385
C85 C 0.3465(4) 0.6228(2) 0.1139(4)
C86 C 0.34112(20) 0.10518(14) 0.1972(3)
H54 H 0.3216 0.0933 0.1867
C87 C 0.53063(23) 0.18037(15) 0.5450(2)
H55 H 0.5248 0.1851 0.5193
C88 C 0.28056(21) -0.07073(17) 0.6588(2)
H56 H 0.2818 -0.0714 0.6885
C89 C 0.3986(4) 0.4818(2) 0.2656(4)
H57 H 0.4153 0.4792 0.2614
C90 C 0.3297(4) 0.5771(3) 0.1628(3)
H58 H 0.3115 0.5769 0.1662
C91 C 0.3361(4) 0.2943(3) 0.1474(5)
H59 H 0.3235 0.3015 0.1382
C92 C 0.36001(23) 0.43098(17) 0.3639(3)
C93 C 0.2183(5) 0.3560(3) 0.6363(4)
C94 C 0.2384(3) 0.3579(2) 0.5268(6)
H60 H 0.2276 0.3453 0.5040
C95 C 0.3326(3) 0.4101(2) 0.3643(3)
H61 H 0.3245 0.3998 0.3388
C96 C 0.3538(3) 0.4385(2) 0.4405(4)
H62 H 0.3617 0.4487 0.4662
C97 C 0.3867(4) 0.3966(2) 0.3146(3)
H63 H 0.3948 0.4029 0.3419
C98 C 0.37845(36) 0.60218(19) 0.1453(3)
H64 H 0.3959 0.6190 0.1356
C99 C 0.25551(27) -0.0907(2) 0.6396(3)
C100 C 0.2833(5) 0.3928(3) 0.4907(6)
H65 H 0.2766 0.4045 0.4766
C101 C 0.27053(24) -0.21455(19) 0.7728(2)
H66 H 0.2915 -0.2031 0.7734
C102 C 0.36193(34) 0.39800(17) 0.2548(4)
H67 H 0.3516 0.4051 0.2384
C103 C 0.35535(35) 0.30318(18) 0.1828(4)
C104 C 0.3721(4) 0.4463(3) 0.4020(4)
H68 H 0.3921 0.4618 0.4028
C105 C 0.3898(4) 0.3732(3) 0.2932(4)
H69 H 0.3994 0.3643 0.3073
C106 C 0.3659(3) 0.3767(2) 0.2367(4)
H70 H 0.3580 0.3708 0.2093
C107 C 0.3788(4) 0.3638(2) 0.2519(4)
C108 C 0.3719(3) 0.5068(2) 0.2483(3)
C109 C 0.3547(4) 0.4650(3) 0.3041(3)
H71 H 0.3398 0.4533 0.3240
C110 C 0.48127(26) 0.23160(16) -0.0458(3)
H72 H 0.4908 0.2284 -0.0690
C111 C 0.3535(3) 0.2557(2) 0.1301(3)
C112 C 0.6104(4) 0.2926(2) -0.1126(4)
H73 H 0.6148 0.2862 -0.1381
C113 C 0.57007(44) 0.28312(19) -0.0630(3)
C114 C 0.20987(26) -0.2454(2) 0.7740(3)
H74 H 0.1888 -0.2559 0.7748
C115 C 0.45899(21) 0.11334(16) 0.4776(2)
H75 H 0.4454 0.1164 0.4616
C116 C 0.3774(4) 0.5751(3) 0.1654(4)
H76 H 0.3943 0.5733 0.1598
Zn1G Zn 0.480497(15) 0.019652(26) 1.40323(7)
Zn1E Zn 0.313682(26) 0.127512(21) 0.06989(7)
Zn1A Zn 0.147164(15) -0.647015(26) 0.73656(7)
Zn1B Zn 0.647015(26) -0.205821(21) 0.73656(7)
Zn1A_2 Zn 1.147164(15) 0.352985(26) 0.73656(7)
Zn1C Zn 0.872488(21) 0.186169(15) 0.06989(7)
Zn2G Zn 0.0000 0.0001 1.32503(8)
Zn2D Zn 0.3334 0.6667 -0.00831(8)
Zn3G Zn 0.14256(2) -0.15553(4) 0.75115(7)
Zn3B Zn -0.17780(4) -0.36857(3) 0.08448(7)
Zn3B_2 Zn 0.82220(4) 0.63143(3) 0.08448(7)
Zn3A Zn 0.80923(2) 0.17780(4) 0.08448(7)
Zn3E Zn 0.48887(4) -0.03524(3) 1.41781(7)
Zn4A Zn 0.20956(2) -0.64031(4) 0.72045(7)
Zn4B Zn 0.64031(4) -0.15013(3) 0.72045(7)
Zn4A_2 Zn 0.20956(2) 0.35969(4) 0.72045(7)
Zn4E Zn 0.30698(4) 0.18320(3) 0.05378(7)
Zn4D Zn -0.12377(2) -0.30698(4) 0.05378(7)
Zn4H Zn -0.02636(4) -0.48346(3) 1.38712(7)
Zn4G Zn 0.54289(2) 0.02636(4) 1.38712(7)
Zn5G Zn 0.48909(2) -0.01191(4) 1.32517(8)
Zn5A Zn 0.15576(2) 0.32142(4) 0.65850(8)
Zn5E Zn 0.34525(4) 0.16767(3) -0.00817(8)
Zn5D Zn 0.82243(2) 0.65475(4) -0.00817(8)
Zn5C Zn 0.83233(3) 0.17757(2) -0.00817(8)
Zn5A_2 Zn 1.15576(2) 0.32142(4) 0.65850(8)
Zn5H Zn 0.01191(4) -0.49899(3) 1.32517(8)
Zn6G Zn 0.03873(2) 0.00778(4) 1.40435(7)
Zn6D Zn 0.37207(2) 0.67444(4) 0.07101(7)
Zn6B Zn 0.65889(4) 0.36429(3) 0.73768(7)
Zn6A Zn 0.70540(2) 0.34111(4) 0.73768(7)
Zn6C Zn 0.30238(3) 0.62793(2) 0.07101(7)
Zn6C_2 Zn 0.30238(3) -0.37207(2) 0.07101(7)
Zn6E Zn 0.32556(4) -0.30238(3) 0.07101(7)
Zn6B_2 Zn -0.34111(4) -0.63571(3) 0.73768(7)
Zn6A_2 Zn -0.29460(2) -0.65889(4) 0.73768(7)
Zn6F Zn -0.03096(3) -0.03873(2) 1.40435(7)
Zn6H Zn -0.00778(4) 0.03096(3) 1.40435(7)
Zn6E_2 Zn 0.32556(4) 0.69762(3) 0.07101(7)
O1G O 0.44868(11) 0.01630(19) 1.36599(18)
O1A O 1.11535(11) 0.34963(19) 0.69932(18)
O1E O 0.31704(19) 0.09905(16) 0.03265(18)
O2G O 0.03324(14) -0.00039(17) 1.29890(18)
O2A O 0.69991(14) 0.33294(17) 0.63223(18)
O2B O 0.66706(17) 0.36697(10) 0.63223(18)
O2H O 0.00039(17) 0.03364(10) 1.29890(18)
O2F O -0.03364(10) -0.03324(14) 1.29890(18)
O2D O 0.36658(14) 0.66627(17) -0.03444(18)
O2E O 0.33373(17) 0.70030(10) -0.03444(18)
O2C O 0.29970(10) 0.63342(14) -0.03444(18)
O3G O 0.21153(9) -0.12789(16) 0.78992(18)
O3A O 0.87820(9) 0.20544(16) 0.12325(18)
O3E O 0.46123(16) 0.00609(13) 1.45658(18)
O4A O 0.17218(10) -0.60451(16) 0.74402(15)
O4B O 0.60451(16) -0.22331(13) 0.74402(15)
O4G O 0.50551(10) 0.06216(16) 1.41069(15)
O4E O 0.27118(16) 0.11002(13) 0.07735(15)
O5A O 0.21491(11) -0.60320(19) 0.73876(19)
O5B O 0.60320(19) -0.18189(16) 0.73876(19)
O6B O 0.27326(22) -0.36989(12) 0.1028(2)
O6G O -0.30982(18) -0.60659(22) 0.7695(2)
O6H O 0.60659(22) 0.29678(12) 0.7695(2)
O6C O 0.03656(12) -0.02352(18) 1.4361(2)
O7B O -0.14642(22) -0.36523(18) 0.1119(2)
O7G O 0.11452(13) -0.18691(22) 0.7786(2)
O8B O 0.14140(29) -0.19227(24) 0.6313(3)
O8G O -0.00034(16) -0.47473(29) 1.2980(3)
O8F O 0.52560(24) 0.00034(16) 1.2980(3)
O9B O 0.81107(38) 0.59844(24) 0.0462(3)
O9A O 0.78737(30) 0.18893(38) 0.0462(3)
O9G O 0.12070(30) -0.14440(38) 0.7129(3)
O9B_2 O -0.18893(38) -0.40156(24) 0.0462(3)
O10B O 0.14262(28) -0.22557(23) 0.6697(2)
O10G O -0.03486(16) -0.47595(28) 1.3364(2)
O10_2 O 0.22557(23) -0.63181(16) 0.6697(2)
O10A O 0.63181(16) -0.14262(28) 0.6697(2)
O11G O 0.06165(17) 0.01261(23) 1.3538(3)
O11A O 0.72832(17) 0.34594(23) 0.6871(3)
O11D O 0.39499(17) 0.67927(23) 0.0204(3)
O12G O 0.16972(13) -0.12967(23) 0.7942(3)
O12A O 0.83639(13) 0.20366(23) 0.1275(3)
O12B O -0.20366(23) -0.36727(19) 0.1275(3)
O13G O 0.46131(14) 0.00076(24) 1.3097(3)
O13A O 1.12798(14) 0.33409(24) 0.6430(3)
O13A_2 O 0.12798(14) 0.33409(24) 0.6430(3)
O14E O 0.33353(14) 0.16931(12) 0.04821(16)
O14G O 0.50245(8) -0.00019(14) 1.38155(16)
O14A O 0.16912(8) -0.66686(14) 0.71488(16)
O14B O 0.66686(14) -0.16402(12) 0.71488(16)
O14D O -0.16421(8) -0.33353(14) 0.04821(16)
O14A_2 O 0.16912(8) 0.33314(14) 0.71488(16)
O15B O 0.80256(37) 0.61440(24) -0.0145(3)
O15A O 0.81184(28) 0.19744(37) -0.0145(3)
O15G O 0.14517(28) -0.13589(37) 0.6522(3)
O15E O 0.46923(37) -0.05227(24) 1.3188(3)
O15H O 0.13589(37) 0.28107(24) 0.6522(3)
O16G O 0.0000 0.0001 1.3842(3)
O16D O 0.3334 0.6667 0.0508(3)
O17B O 0.29617(22) -0.31931(18) 0.1141(2)
O17G O -0.28215(13) -0.62950(22) 0.7808(2)
O17F O 0.65264(18) 0.28215(13) 0.7808(2)
O17D O 0.05119(13) 0.03716(22) 1.4474(2)
O17A O 0.38452(13) 0.70383(22) 0.1141(2)
O18B O -0.10811(30) -0.32703(24) 0.0800(3)
O18G O 0.11441(18) -0.22522(30) 0.7467(3)
O18H O 0.22522(30) -0.66036(24) 0.7467(3)
O18F O 0.66036(24) -0.11441(18) 0.7467(3)
H1A H 0.3435 -0.3406 0.9021
H1B H 0.3406 -0.3159 0.9021
H2A H 0.6588 0.3159 -0.1426
H2B H 0.6841 0.3429 -0.1426
O21B O 0.04630(30) -0.40029(25) 0.3302(3)
O21G O -0.11326(17) -0.37963(30) 0.9969(3)
H3B H 0.0556 -0.4066 0.3444
H3G H -0.1289 -0.3889 1.0111
O22G O 0.28078(17) 0.06563(29) 1.1016(3)
O22A O 0.94745(17) 0.39896(29) 0.4349(3)
H4G H 0.2952 0.0701 1.0856
H4A H 0.9619 0.4034 0.4189
N1A N 0.28354(15) -0.45575(24) 0.8145(2)
N1B N 0.45575(24) -0.26071(19) 0.8145(2)
N2G N 0.17972(13) 0.03264(23) 1.2237(2)
N2A N 0.84639(13) 0.36597(23) 0.5570(2)
N3G N 0.35969(14) 0.02618(24) 1.1949(2)
N3A N 1.02636(14) 0.35951(24) 0.5282(2)
N4G N 0.22420(11) -0.03084(20) 0.9634(2)
N4A N 0.89087(11) 0.30249(20) 0.2967(2)
N5B N 0.72812(33) 0.46252(26) -0.0506(3)
N5A N 0.7344(2) 0.27188(33) -0.0506(3)
N6B N 0.15863(32) -0.37187(27) 0.2148(4)
N6G N -0.19717(18) -0.49196(32) 0.8815(4)
N7B N 0.0956(4) -0.3016(4) 0.4726(4)
N7G N -0.0639(2) -0.4289(4) 1.1393(4)
N8B N -0.03670(34) -0.37030(28) 0.2303(4)
N8G N -0.0003(2) -0.29663(34) 0.8970(4)
C2B C 0.1178(4) -0.2635(3) 0.5211(4)
C2G C -0.0480(2) -0.4511(4) 1.1878(4)
C3A C 0.28899(17) -0.40505(29) 0.8011(2)
C3B C 0.40505(29) -0.30596(23) 0.8011(2)
H5A H 0.2759 -0.4118 0.7779
H5B H 0.4118 -0.3123 0.7779
C4A C 0.31995(16) -0.36538(27) 0.8472(3)
C4B C 0.36538(27) -0.31467(22) 0.8472(3)
C5G C 0.38157(15) 0.02063(26) 1.3025(3)
C5A C 1.04824(15) 0.35396(26) 0.6358(3)
H6G H 0.3667 0.0227 1.3167
H6A H 1.0334 0.3560 0.6500
C6B C 0.12652(18) -0.23768(16) 0.5970(4)
C6G C -0.03087(9) -0.45985(18) 1.2637(4)
C7A C 0.24403(16) -0.49903(28) 0.7846(2)
C7B C 0.49903(28) -0.25694(23) 0.7846(2)
C8B C -0.08137(25) -0.37133(23) 0.1903(3)
C8G C 0.04337(11) -0.25196(25) 0.8570(3)
H7B H -0.0875 -0.3839 0.2142
H7G H 0.0369 -0.2458 0.8809
C9A C 0.29497(16) -0.42448(27) 0.8258(3)
C9B C 0.42448(27) -0.28055(22) 0.8258(3)
C10B C 0.68262(23) 0.37015(21) -0.0956(3)
C10A C 0.68753(9) 0.31738(23) -0.0956(3)
C11G C 0.22402(18) -0.06614(30) 0.9171(2)
C11A C 0.89069(18) 0.26719(30) 0.2504(2)
C12A C 0.21387(17) -0.55992(30) 0.7586(2)
C12B C 0.55992(30) -0.22621(25) 0.7586(2)
C13G C 0.29297(15) 0.03615(25) 1.1357(3)
C13A C 0.95964(15) 0.36948(25) 0.4690(3)
C14A C 0.32402(18) -0.38576(30) 0.8700(2)
C14B C 0.38576(30) -0.29022(24) 0.8700(2)
H8A H 0.3361 -0.3789 0.8943
H8B H 0.3789 -0.2850 0.8943
C15G C 0.25836(11) 0.02018(21) 1.0752(2)
C15A C 0.92503(11) 0.35351(21) 0.4085(2)
C16A C 0.31150(15) -0.41573(26) 0.8599(3)
C16B C 0.41573(26) -0.27277(21) 0.8599(3)
H9A H 0.3147 -0.4290 0.8765
H9B H 0.4290 -0.2563 0.8765
C17G C 0.24655(14) -0.02313(24) 1.0332(3)
C17A C 0.91322(14) 0.31020(24) 0.3665(3)
H10G H 0.2472 -0.0409 1.0299
H10A H 0.9139 0.2924 0.3632
C18B C 0.78439(20) 0.56248(19) -0.0060(2)
C18A C 0.77809(7) 0.21561(20) -0.0060(2)
C19G C 0.24945(13) 0.06134(23) 1.1643(2)
C19A C 0.91612(13) 0.39467(23) 0.4976(2)
H11G H 0.2674 0.0795 1.1605
H11A H 0.9341 0.4128 0.4938
C20G C 0.19433(18) -0.12166(32) 0.8051(3)
C20A C 0.86100(18) 0.21167(32) 0.1384(3)
C21A C 0.30504(15) -0.37335(26) 0.8149(3)
C21B C 0.37335(26) -0.32161(21) 0.8149(3)
H12A H 0.3037 -0.3590 0.7982
H12B H 0.3590 -0.3373 0.7982
C22G C 0.23703(13) 0.01183(25) 1.0036(2)
C22A C 0.90370(13) 0.34516(25) 0.3369(2)
H13G H 0.2296 0.0182 0.9811
H13A H 0.8963 0.3515 0.3144
C23G C 0.32275(18) 0.05044(28) 1.1233(2)
C23A C 0.98942(18) 0.38377(28) 0.4566(2)
H14G H 0.3279 0.0631 1.0996
H14A H 0.9946 0.3964 0.4329
C24A C 0.19856(19) -0.59334(31) 0.7466(2)
C24B C 0.59334(31) -0.20810(25) 0.7466(2)
C25G C 0.19660(13) 0.01026(23) 1.1719(2)
C25A C 0.86327(13) 0.34359(23) 0.5052(2)
H15G H 0.1781 -0.0076 1.1740
H15A H 0.8448 0.3257 0.5073
C26G C 0.25647(11) -0.00635(22) 1.0721(2)
C26A C 0.92314(11) 0.32698(22) 0.4054(2)
H16G H 0.2616 -0.0142 1.0954
H16A H 0.9283 0.3191 0.4287
C27G C 0.33705(17) 0.03010(28) 1.1759(3)
C27A C 1.00372(17) 0.36343(28) 0.5092(3)
C28B C 0.08796(19) -0.31309(17) 0.4013(4)
C28G C -0.06772(8) -0.42129(19) 1.0680(4)
H17B H 0.0924 -0.2931 0.3996
H17G H -0.0522 -0.4257 1.0663
C29G C 0.1331(2) 0.0254(4) 1.2793(5)
C29A C 0.7998(2) 0.3587(4) 0.6126(5)
H18G H 0.1525 0.0334 1.2905
H18A H 0.8192 0.3667 0.6238
C30G C 0.28479(12) 0.01837(22) 1.1693(2)
C30A C 0.95146(12) 0.35170(22) 0.5026(2)
H19G H 0.2646 0.0082 1.1778
H19A H 0.9313 0.3415 0.5111
C31B C 0.06186(34) -0.37684(28) 0.3204(3)
C31G C -0.10537(19) -0.39519(34) 0.9871(3)
C32B C 0.7410(6) 0.4751(5) -0.0268(4)
C32A C 0.7341(3) 0.2590(6) -0.0268(4)
H20B H 0.7450 0.4639 -0.0069
H20A H 0.7189 0.2550 -0.0069
C33B C 0.12053(29) -0.27959(24) 0.5557(4)
C33G C -0.06679(16) -0.45386(29) 1.2224(4)
H21B H 0.1194 -0.2983 0.5526
H21G H -0.0844 -0.4527 1.2193
C34G C 0.4476(2) 0.0075(4) 1.3317(4)
C34A C 1.1143(2) 0.3408(4) 0.6650(4)
C35G C 0.27075(15) 0.04143(26) 1.1122(2)
C35A C 0.93742(15) 0.37476(26) 0.4455(2)
C36B C 0.2472(4) -0.3515(3) 0.1431(3)
C36G C -0.2654(2) -0.5805(4) 0.8098(3)
C37B C -0.10438(23) -0.37118(21) 0.1655(3)
C37G C 0.06653(10) -0.22895(23) 0.8322(3)
H22B H -0.1245 -0.3834 0.1735
H22G H 0.0744 -0.2088 0.8402
C38B C 0.7541(4) 0.5040(3) -0.0166(6)
C38A C 0.7499(2) 0.2459(4) -0.0166(6)
C39G C 0.23830(18) -0.07890(29) 0.9020(3)
C39A C 0.90497(18) 0.25443(29) 0.2353(3)
H23G H 0.2556 -0.0761 0.9159
H23A H 0.9223 0.2572 0.2492
C40G C 0.34664(14) 0.04793(25) 1.1428(3)
C40A C 1.01331(14) 0.38126(25) 0.4761(3)
H24G H 0.3665 0.0578 1.1332
H24A H 1.0332 0.3911 0.4665
C41A C 0.25921(16) -0.46726(26) 0.7986(2)
C41B C 0.46726(26) -0.27353(21) 0.7986(2)
H25A H 0.2495 -0.4561 0.7949
H25B H 0.4561 -0.2944 0.7949
C42B C 0.12540(34) -0.26410(28) 0.5974(3)
C42G C -0.0562(2) -0.45873(34) 1.2641(3)
H26B H 0.1276 -0.2725 0.6226
H26G H -0.0668 -0.4609 1.2893
C43B C 0.2165(4) -0.3336(4) 0.1817(4)
C43G C -0.2168(2) -0.5498(4) 0.8484(4)
H27B H 0.2142 -0.3171 0.1884
H27G H -0.1980 -0.5475 0.8551
C44G C 0.30746(18) 0.01455(29) 1.1936(2)
C44A C 0.97413(18) 0.34788(29) 0.5269(2)
H28G H 0.3027 0.0030 1.2183
H28A H 0.9694 0.3363 0.5516
C45B C 0.13194(34) -0.35526(28) 0.2781(3)
C45G C -0.15387(19) -0.46527(34) 0.9448(3)
H29B H 0.1507 -0.3383 0.2834
H29G H -0.1557 -0.4840 0.9501
C46A C 0.20056(13) -0.54555(25) 0.7596(2)
C46B C 0.54555(25) -0.25389(21) 0.7596(2)
H30A H 0.1804 -0.5552 0.7513
H30B H 0.5552 -0.2644 0.7513
C47G C 0.12957(17) 0.01585(29) 1.2392(3)
C47A C 0.79624(17) 0.34918(29) 0.5725(3)
C48G C 0.35873(13) 0.02283(22) 1.2341(3)
C48A C 1.02540(13) 0.35616(22) 0.5674(3)
H31G H 0.3427 0.0221 1.2495
H31A H 1.0094 0.3554 0.5828
C49G C 0.20360(19) -0.10389(34) 0.8438(3)
C49A C 0.87027(19) 0.22944(34) 0.1771(3)
C50G C 0.23630(13) -0.01314(25) 1.0012(3)
C50A C 0.90297(13) 0.32019(25) 0.3345(3)
C51G C 0.0561(2) 0.0057(4) 1.3180(4)
C51A C 0.7228(2) 0.3390(4) 0.6513(4)
C52B C 0.1964(4) -0.3594(3) 0.1868(3)
C52G C -0.2225(2) -0.5297(4) 0.8535(3)
C53A C 0.2595(2) -0.5143(4) 0.7873(3)
C53B C 0.5143(4) -0.2262(3) 0.7873(3)
H32A H 0.2792 -0.5047 0.7979
H32B H 0.5047 -0.2161 0.7979
C54B C 0.09116(32) -0.32417(26) 0.4374(3)
C54G C -0.08200(19) -0.42449(32) 1.1041(3)
C55B C 0.78644(39) 0.54873(35) 0.0171(4)
C55A C 0.76229(18) 0.21356(39) 0.0171(4)
H33B H 0.7989 0.5579 0.0405
H33A H 0.7590 0.2011 0.0405
C56B C 0.1761(5) -0.3525(4) 0.2158(4)
C56G C -0.1953(3) -0.5094(5) 0.8825(4)
H34B H 0.1799 -0.3349 0.2298
H34G H -0.1815 -0.5132 0.8965
C57G C 0.10236(14) 0.00251(28) 1.2241(3)
C57A C 0.76903(14) 0.33584(28) 0.5574(3)
H35G H 0.0982 -0.0047 1.1961
H35A H 0.7649 0.3286 0.5294
C58G C 0.4244(2) 0.0106(4) 1.2626(4)
C58A C 1.0911(2) 0.3439(4) 0.5959(4)
H36G H 0.4367 0.0044 1.2493
H36A H 1.1034 0.3377 0.5826
C59G C 0.38250(16) 0.02002(26) 1.2572(3)
C59A C 1.04917(16) 0.35335(26) 0.5905(3)
C60B C -0.1206(4) -0.3511(4) 0.1037(4)
C60G C 0.1028(2) -0.2127(4) 0.7704(4)
C61B C 0.71298(38) 0.40633(34) -0.0436(3)
C61A C 0.69335(17) 0.28702(38) -0.0436(3)
H37B H 0.7236 0.4100 -0.0180
H37A H 0.6864 0.2764 -0.0180
C62B C 0.1062(5) -0.3976(4) 0.2407(4)
C62G C -0.1705(3) -0.4395(5) 0.9074(4)
H38B H 0.1029 -0.4125 0.2208
H38G H -0.1821 -0.4362 0.8875
C63G C 0.20199(17) 0.03450(29) 1.1946(3)
C63A C 0.86866(17) 0.36783(29) 0.5279(3)
C64B C 0.7707(6) 0.5166(5) 0.0139(4)
C64A C 0.7459(3) 0.2293(6) 0.0139(4)
H39B H 0.7731 0.5052 0.0352
H39A H 0.7321 0.2269 0.0352
C65B C -0.06917(36) -0.34049(33) 0.1289(4)
C65G C 0.06201(14) -0.26416(36) 0.7956(4)
H40B H -0.0635 -0.3280 0.1049
H40G H 0.0688 -0.2698 0.7716
C66B C -0.0298(6) -0.3613(5) 0.1982(5)
C66G C 0.0018(4) -0.3035(6) 0.8649(5)
H41B H -0.0125 -0.3581 0.1838
H41G H -0.0123 -0.3208 0.8505
C67G C 0.23520(12) -0.04565(22) 0.9530(2)
C67A C 0.90187(12) 0.28768(22) 0.2863(2)
H42G H 0.2515 -0.0439 0.9684
H42A H 0.9182 0.2894 0.3017
C68G C 0.4061(2) 0.0178(4) 1.2389(3)
C68A C 1.0728(2) 0.3511(4) 0.5722(3)
H43G H 0.4097 0.0212 1.2096
H43A H 1.0764 0.3545 0.5429
C69B C 0.8032(5) 0.5965(4) 0.0032(5)
C69A C 0.7933(3) 0.1968(5) 0.0032(5)
C70G C 0.1108(2) 0.0249(4) 1.3076(3)
C70A C 0.7775(2) 0.3582(4) 0.6409(3)
H44G H 0.1152 0.0339 1.3345
H44A H 0.7819 0.3672 0.6678
C71B C 0.76762(32) 0.55303(27) -0.0408(3)
C71A C 0.78541(18) 0.23238(32) -0.0408(3)
H45B H 0.7664 0.5660 -0.0606
H45A H 0.7996 0.2336 -0.0606
C72B C 0.69598(31) 0.41823(26) -0.0993(4)
C72A C 0.72225(16) 0.30402(31) -0.0993(4)
H46B H 0.6937 0.4317 -0.1166
H46A H 0.7380 0.3063 -0.1166
C74B C 0.1241(5) -0.2273(4) 0.5686(5)
C74G C -0.0181(3) -0.4574(5) 1.2353(5)
H47B H 0.1253 -0.2086 0.5722
H47G H -0.0006 -0.4586 1.2389
C75G C 0.1879(2) -0.0893(4) 0.8568(4)
C75A C 0.8546(2) 0.2440(4) 0.1901(4)
H48G H 0.1710 -0.0921 0.8418
H48A H 0.8377 0.2412 0.1751
C76B C 0.0852(5) -0.3783(4) 0.2956(3)
C76G C -0.1302(3) -0.4185(5) 0.9623(3)
C77G C 0.22854(19) 0.06078(31) 1.1927(2)
C77A C 0.89521(19) 0.39411(31) 0.5260(2)
H49G H 0.2324 0.0774 1.2096
H49A H 0.8991 0.4107 0.5429
C78G C 0.08176(17) 0.00927(31) 1.2906(3)
C78A C 0.74843(17) 0.34260(31) 0.6239(3)
C79G C 0.07733(14) -0.00085(24) 1.2538(3)
C79A C 0.74400(14) 0.33248(24) 0.5871(3)
H50G H 0.0576 -0.0110 1.2437
H50A H 0.7243 0.3223 0.5770
C80G C 0.24529(12) 0.03738(22) 1.14181(19)
C80A C 0.91196(12) 0.37071(22) 0.47514(19)
C81B C 0.03954(25) -0.37098(22) 0.2937(3)
C81G C -0.07719(12) -0.37287(25) 0.9604(3)
C82B C 0.69773(31) 0.37573(26) -0.0595(4)
C82A C 0.67800(16) 0.30227(31) -0.0595(4)
H51B H 0.6985 0.3604 -0.0446
H51A H 0.6619 0.3015 -0.0446
C83G C 0.24887(13) 0.03005(22) 1.0400(3)
C83A C 0.91554(13) 0.36338(22) 0.3733(3)
H52G H 0.2504 0.0490 1.0407
H52A H 0.9171 0.3823 0.3740
C84G C 0.19916(18) -0.06886(32) 0.8959(4)
C84A C 0.86583(18) 0.26447(32) 0.2292(4)
H53G H 0.1895 -0.0585 0.9052
H53A H 0.8562 0.2748 0.2385
C85B C 0.2763(4) -0.3465(4) 0.1139(4)
C85G C -0.2895(2) -0.6096(4) 0.7806(4)
C86G C 0.22815(14) -0.09739(24) 0.8639(3)
C86A C 0.89482(14) 0.23594(24) 0.1972(3)
H54G H 0.2400 -0.1050 0.8534
H54A H 0.9067 0.2283 0.1867
C87G C 0.15296(15) 0.01693(27) 1.2117(2)
C87A C 0.81963(15) 0.35026(27) 0.5450(2)
H55G H 0.1482 0.0064 1.1860
H55A H 0.8149 0.3397 0.5193
C88G C 0.40406(17) 0.01796(27) 1.3255(2)
C88A C 1.07073(17) 0.35129(27) 0.6588(2)
H56G H 0.4047 0.0199 1.3552
H56A H 1.0714 0.3532 0.6885
C89B C 0.0832(4) -0.3986(4) 0.2656(4)
C89G C -0.1485(2) -0.4165(4) 0.9323(4)
H57B H 0.0639 -0.4153 0.2614
H57G H -0.1459 -0.3972 0.9281
C90B C 0.2474(5) -0.3297(4) 0.1628(3)
C90G C -0.2438(3) -0.5807(5) 0.8295(3)
H58B H 0.2654 -0.3115 0.1662
H58G H -0.2436 -0.5987 0.8329
C91B C -0.0418(5) -0.3361(4) 0.1474(5)
C91G C 0.0390(3) -0.2915(5) 0.8141(5)
H59B H -0.0220 -0.3235 0.1382
H59G H 0.0318 -0.3113 0.8049
C92B C 0.07097(29) -0.36001(23) 0.3639(3)
C92G C -0.09765(17) -0.40430(29) 1.0306(3)
C93B C 0.1377(6) -0.2183(5) 0.6363(4)
C93G C -0.0227(3) -0.4710(6) 1.3030(4)
C94B C 0.1195(4) -0.2384(3) 0.5268(6)
C94G C -0.0246(2) -0.4528(4) 1.1935(6)
H60B H 0.1177 -0.2276 0.5040
H60G H -0.0120 -0.4510 1.1707
C95B C 0.0775(4) -0.3326(3) 0.3643(3)
C95G C -0.0768(2) -0.4108(4) 1.0310(3)
H61B H 0.0753 -0.3245 0.3388
H61G H -0.0665 -0.4086 1.0055
C96B C 0.0847(4) -0.3538(3) 0.4405(4)
C96G C -0.1052(2) -0.4180(4) 1.1072(4)
H62B H 0.0870 -0.3617 0.4662
H62G H -0.1154 -0.4203 1.1329
C97B C 0.0099(4) -0.3867(4) 0.3146(3)
C97G C -0.0633(2) -0.3432(4) 0.9813(3)
H63B H 0.0081 -0.3948 0.3419
H63G H -0.0696 -0.3414 1.0086
C98B C 0.22373(41) -0.37845(36) 0.1453(3)
C98G C -0.26885(19) -0.55706(41) 0.8120(3)
H64B H 0.2231 -0.3959 0.1356
H64G H -0.2857 -0.5564 0.8023
C99G C 0.4240(2) 0.01288(34) 1.3063(3)
C99A C 1.0907(2) 0.34621(34) 0.6396(3)
C100B C 0.1095(6) -0.2833(5) 0.4907(6)
C100G C -0.0595(3) -0.4428(6) 1.1574(6)
H65B H 0.1279 -0.2766 0.4766
H65G H -0.0712 -0.4612 1.1433
C101A C 0.21455(19) -0.51492(31) 0.7728(2)
C101B C 0.51492(31) -0.27053(24) 0.7728(2)
H66A H 0.2031 -0.5054 0.7734
H66B H 0.5054 -0.2915 0.7734
C102B C 0.03607(38) -0.36193(34) 0.2548(4)
C102G C -0.06467(17) -0.36940(38) 0.9215(4)
H67B H 0.0535 -0.3516 0.2384
H67G H -0.0718 -0.3868 0.9051
C103B C -0.05217(39) -0.35535(35) 0.1828(4)
C103G C 0.03015(18) -0.28116(39) 0.8495(4)
C104B C 0.0742(5) -0.3721(4) 0.4020(4)
C104G C -0.1130(3) -0.4075(5) 1.0687(4)
H68B H 0.0697 -0.3921 0.4028
H68G H -0.1285 -0.4030 1.0695
C105B C -0.0166(5) -0.3898(4) 0.2932(4)
C105G C -0.0399(3) -0.3167(5) 0.9599(4)
H69B H -0.0351 -0.3994 0.3073
H69G H -0.0310 -0.2982 0.9740
C106B C 0.0108(4) -0.3659(3) 0.2367(4)
C106G C -0.0434(2) -0.3441(4) 0.9034(4)
H70B H 0.0128 -0.3580 0.2093
H70G H -0.0375 -0.3461 0.8760
C107B C -0.0150(4) -0.3788(4) 0.2519(4)
C107G C -0.0305(2) -0.3183(4) 0.9186(4)
C108B C 0.1349(4) -0.3719(3) 0.2483(3)
C108G C -0.1735(2) -0.4682(4) 0.9150(3)
C109B C 0.1103(5) -0.3547(4) 0.3041(3)
C109G C -0.1317(3) -0.4436(5) 0.9708(3)
H71B H 0.1135 -0.3398 0.3240
H71G H -0.1200 -0.4468 0.9907
C110B C 0.75033(31) 0.51873(26) -0.0458(3)
C110A C 0.76840(16) 0.24967(31) -0.0458(3)
H72B H 0.7376 0.5092 -0.0690
H72A H 0.7716 0.2624 -0.0690
C111B C -0.0978(4) -0.3535(3) 0.1301(3)
C111G C 0.0776(2) -0.2355(4) 0.7968(3)
C112B C 0.6822(4) 0.3896(4) -0.1126(4)
C112A C 0.7074(2) 0.3178(4) -0.1126(4)
H73B H 0.6714 0.3852 -0.1381
H73A H 0.7138 0.3286 -0.1381
C113B C 0.71305(48) 0.42993(44) -0.0630(3)
C113A C 0.71688(19) 0.28695(48) -0.0630(3)
C114A C 0.2454(2) -0.54473(33) 0.7740(3)
C114B C 0.54473(33) -0.20987(26) 0.7740(3)
H74A H 0.2559 -0.5553 0.7748
H74B H 0.5553 -0.1888 0.7748
C115G C 0.21999(16) 0.01232(26) 1.1443(2)
C115A C 0.88666(16) 0.34565(26) 0.4776(2)
H75G H 0.2169 -0.0043 1.1283
H75A H 0.8836 0.3290 0.4616
C116B C 0.1977(5) -0.3774(4) 0.1654(4)
C116G C -0.2418(3) -0.5310(5) 0.8321(4)
H76B H 0.1790 -0.3943 0.1598
H76G H -0.2400 -0.5123 0.8265
loop_
_geom_bond_atom_site_label_1
_geom_bond_atom_site_label_2
_geom_bond_site_symmetry_1
_geom_bond_site_symmetry_2
Zn1 O1 1_555 1_555
Zn2 O2 1_555 1_555
Zn3 O7 1_555 1_555
Zn4 O5 1_555 1_555
Zn5 O13 1_555 1_555
Zn6 O11 1_555 1_555
O1 C34 1_555 1_555
O2 C51 1_555 1_555
O3 C20 1_555 1_555
O4 Zn1 1_555 1_555
O5 C24 1_555 1_555
O6 C85 1_555 1_555
O7 C60 1_555 1_555
O8 C93 1_555 1_555
O9 Zn3 1_555 1_555
O10 C93 1_555 1_555
O11 C51 1_555 1_555
O12 Zn3 1_555 1_555
O13 C34 1_555 1_555
O14 Zn1 1_555 1_555
O15 C69 1_555 1_555
O16 Zn2 1_555 1_555
O17 C85 1_555 1_555
O18 C60 1_555 1_555
O19 H1 1_555 1_555
O20 H2 1_555 1_555
O21 H3 1_555 1_555
O22 H4 1_555 1_555
N1 C9 1_555 1_555
N2 C63 1_555 1_555
N3 C27 1_555 1_555
N4 C50 1_555 1_555
N5 C32 1_555 1_555
N6 C56 1_555 1_555
N7 C54 1_555 1_555
N8 C66 1_555 1_555
C1 O19 1_555 1_555
C2 C33 1_555 1_555
C3 H5 1_555 1_555
C4 C1 1_555 1_555
C5 H6 1_555 1_555
C6 C42 1_555 1_555
C7 C41 1_555 1_555
C8 H7 1_555 1_555
C9 C3 1_555 1_555
C10 C73 1_555 1_555
C11 C39 1_555 1_555
C12 C24 1_555 1_555
C13 C23 1_555 1_555
C14 C4 1_555 1_555
H8 C14 1_555 1_555
C15 C26 1_555 1_555
C16 C9 1_555 1_555
H9 C16 1_555 1_555
C17 H10 1_555 1_555
C18 C55 1_555 1_555
C19 H11 1_555 1_555
C20 O12 1_555 1_555
C21 C3 1_555 1_555
H12 C21 1_555 1_555
C22 H13 1_555 1_555
C23 H14 1_555 1_555
C24 O4 1_555 1_555
C25 H15 1_555 1_555
C26 C17 1_555 1_555
H16 C26 1_555 1_555
C27 C40 1_555 1_555
C28 H17 1_555 1_555
C29 H18 1_555 1_555
C30 C13 1_555 1_555
H19 C30 1_555 1_555
C31 O21 1_555 1_555
C32 H20 1_555 1_555
C33 H21 1_555 1_555
C34 C99 1_555 1_555
C35 O22 1_555 1_555
C36 C85 1_555 1_555
C37 C8 1_555 1_555
H22 C37 1_555 1_555
C38 C32 1_555 1_555
C39 H23 1_555 1_555
C40 C23 1_555 1_555
H24 C40 1_555 1_555
C41 N1 1_555 1_555
H25 C41 1_555 1_555
C42 C33 1_555 1_555
H26 C42 1_555 1_555
C43 H27 1_555 1_555
C44 C27 1_555 1_555
H28 C44 1_555 1_555
C45 H29 1_555 1_555
C46 C12 1_555 1_555
H30 C46 1_555 1_555
C47 C29 1_555 1_555
C48 N3 1_555 1_555
H31 C48 1_555 1_555
C49 C20 1_555 1_555
C50 C17 1_555 1_555
C51 C78 1_555 1_555
C52 C43 1_555 1_555
C53 C7 1_555 1_555
H32 C53 1_555 1_555
C54 C28 1_555 1_555
C55 H33 1_555 1_555
C56 C52 1_555 1_555
H34 C56 1_555 1_555
C57 C47 1_555 1_555
H35 C57 1_555 1_555
C58 H36 1_555 1_555
C59 C5 1_555 1_555
C60 C111 1_555 1_555
C61 H37 1_555 1_555
C62 H38 1_555 1_555
C63 C25 1_555 1_555
C64 C38 1_555 1_555
H39 C64 1_555 1_555
C65 H40 1_555 1_555
C66 H41 1_555 1_555
C67 N4 1_555 1_555
H42 C67 1_555 1_555
C68 C58 1_555 1_555
H43 C68 1_555 1_555
C69 O9 1_555 1_555
C70 C29 1_555 1_555
H44 C70 1_555 1_555
C71 C18 1_555 1_555
H45 C71 1_555 1_555
C72 H46 1_555 1_555
C73 O20 1_555 1_555
C74 C6 1_555 1_555
H47 C74 1_555 1_555
C75 C49 1_555 1_555
H48 C75 1_555 1_555
C76 C31 1_555 1_555
C77 C19 1_555 1_555
H49 C77 1_555 1_555
C78 C70 1_555 1_555
C79 C57 1_555 1_555
H50 C79 1_555 1_555
C80 C19 1_555 1_555
C81 C31 1_555 1_555
C82 C10 1_555 1_555
H51 C82 1_555 1_555
C83 C15 1_555 1_555
H52 C83 1_555 1_555
C84 C11 1_555 1_555
H53 C84 1_555 1_555
C86 C39 1_555 1_555
H54 C86 1_555 1_555
C87 N2 1_555 1_555
H55 C87 1_555 1_555
C88 C5 1_555 1_555
H56 C88 1_555 1_555
C89 C62 1_555 1_555
H57 C89 1_555 1_555
C90 C36 1_555 1_555
H58 C90 1_555 1_555
C91 C65 1_555 1_555
H59 C91 1_555 1_555
C92 C31 1_555 1_555
C93 C6 1_555 1_555
C94 C2 1_555 1_555
H60 C94 1_555 1_555
C95 C28 1_555 1_555
H61 C95 1_555 1_555
C96 C54 1_555 1_555
H62 C96 1_555 1_555
C97 C81 1_555 1_555
H63 C97 1_555 1_555
C98 C36 1_555 1_555
H64 C98 1_555 1_555
C99 C58 1_555 1_555
C100 N7 1_555 1_555
H65 C100 1_555 1_555
C101 C7 1_555 1_555
H66 C101 1_555 1_555
C102 C81 1_555 1_555
H67 C102 1_555 1_555
C103 C8 1_555 1_555
C104 C92 1_555 1_555
H68 C104 1_555 1_555
C105 C97 1_555 1_555
H69 C105 1_555 1_555
C106 C102 1_555 1_555
H70 C106 1_555 1_555
C107 N8 1_555 1_555
C108 N6 1_555 1_555
C109 C45 1_555 1_555
H71 C109 1_555 1_555
C110 C38 1_555 1_555
H72 C110 1_555 1_555
C111 C37 1_555 1_555
C112 C10 1_555 1_555
H73 C112 1_555 1_555
C113 N5 1_555 1_555
C114 C12 1_555 1_555
H74 C114 1_555 1_555
C115 C25 1_555 1_555
H75 C115 1_555 1_555
C116 C52 1_555 1_555
H76 C116 1_555 1_555
Zn1G O1G 1_555 1_555
Zn1E O3 1_555 1_555
Zn1A O4A 1_555 1_555
Zn1B O4B 1_555 1_555
Zn1A_2 O1A 1_555 1_555
Zn1C O3A 1_555 1_555
Zn2G O2G 1_555 1_555
Zn2D O2D 1_555 1_555
Zn3G O14 1_555 1_555
Zn3B O7B 1_555 1_555
Zn3B_2 O9B 1_555 1_555
Zn3A O9A 1_555 1_555
Zn3E O14G 1_555 1_555
Zn4A O5A 1_555 1_555
Zn4B O5B 1_555 1_555
Zn4A_2 O10 1_555 1_555
Zn4E O18 1_555 1_555
Zn4D O14D 1_555 1_555
Zn4H O10G 1_555 1_555
Zn4G O14G 1_555 1_555
Zn5G O8F 1_555 1_555
Zn5A O8 1_555 1_555
Zn5E O15 1_555 1_555
Zn5D O15B 1_555 1_555
Zn5C O15A 1_555 1_555
Zn5A_2 O13A 1_555 1_555
Zn5H O8G 1_555 1_555
Zn6G O6C 1_555 1_555
Zn6D O6 1_555 1_555
Zn6B O16 1_555 1_555
Zn6A O16 1_555 1_555
Zn6C O17 1_555 1_555
Zn6C_2 O6B 1_555 1_555
Zn6E O17B 1_555 1_555
Zn6B_2 O6G 1_555 1_555
Zn6A_2 O17G 1_555 1_555
Zn6F O16G 1_555 1_555
Zn6H O16G 1_555 1_555
Zn6E_2 O16D 1_555 1_555
O1G C34G 1_555 1_555
O1A C34A 1_555 1_555
O1E Zn1E 1_555 1_555
O2G C51G 1_555 1_555
O2A Zn2 1_555 1_555
O2B Zn2 1_555 1_555
O2H Zn2G 1_555 1_555
O2F Zn2G 1_555 1_555
O2E Zn2D 1_555 1_555
O2C Zn2D 1_555 1_555
O3G Zn1 1_555 1_555
O3A C20A 1_555 1_555
O3E Zn1G 1_555 1_555
O4A C24A 1_555 1_555
O4B C24B 1_555 1_555
O4G Zn1G 1_555 1_555
O4E Zn1E 1_555 1_555
O5A C24A 1_555 1_555
O5B C24B 1_555 1_555
O6B C85B 1_555 1_555
O6G C85G 1_555 1_555
O6H Zn6 1_555 1_555
O7B C60B 1_555 1_555
O7G Zn3G 1_555 1_555
O8B Zn5 1_555 1_555
O8G C93G 1_555 1_555
O9B C69B 1_555 1_555
O9A C69A 1_555 1_555
O9G Zn3G 1_555 1_555
O9B_2 Zn3B 1_555 1_555
O10B Zn4 1_555 1_555
O10G C93G 1_555 1_555
O10_2 Zn4A 1_555 1_555
O10A Zn4B 1_555 1_555
O11G Zn6G 1_555 1_555
O11A Zn6A 1_555 1_555
O11D Zn6D 1_555 1_555
O12G Zn3G 1_555 1_555
O12A Zn3A 1_555 1_555
O12B Zn3B 1_555 1_555
O13G Zn5G 1_555 1_555
O13A C34A 1_555 1_555
O13A_2 Zn5A 1_555 1_555
O14E Zn3 1_555 1_555
O14G Zn1G 1_555 1_555
O14A Zn1A 1_555 1_555
O14B Zn1B 1_555 1_555
O14D Zn3B 1_555 1_555
O14A_2 Zn4A_2 1_555 1_555
O15B C69B 1_555 1_555
O15A C69A 1_555 1_555
O15G Zn5 1_555 1_555
O15E Zn5G 1_555 1_555
O15H Zn5A 1_555 1_555
O16G Zn2G 1_555 1_555
O16D Zn2D 1_555 1_555
O17B C85B 1_555 1_555
O17G C85G 1_555 1_555
O17F Zn6 1_555 1_555
O17D Zn6G 1_555 1_555
O17A Zn6D 1_555 1_555
O18B Zn4D 1_555 1_555
O18G Zn4 1_555 1_555
O18H Zn4A 1_555 1_555
O18F Zn4B 1_555 1_555
H1A O19 1_555 1_555
H1B O19 1_555 1_555
H2A O20 1_555 1_555
H2B O20 1_555 1_555
O21B H3B 1_555 1_555
O21G H3G 1_555 1_555
O22G H4G 1_555 1_555
O22A H4A 1_555 1_555
N1A C9A 1_555 1_555
N1B C9B 1_555 1_555
N2G C63G 1_555 1_555
N2A C63A 1_555 1_555
N3G C27G 1_555 1_555
N3A C27A 1_555 1_555
N4G C50G 1_555 1_555
N4A C50A 1_555 1_555
N5B C32B 1_555 1_555
N5A C32A 1_555 1_555
N6B C56B 1_555 1_555
N6G C56G 1_555 1_555
N7B C54B 1_555 1_555
N7G C54G 1_555 1_555
N8B C66B 1_555 1_555
N8G C66G 1_555 1_555
C2B C33B 1_555 1_555
C2G C33G 1_555 1_555
C3A H5A 1_555 1_555
C3B H5B 1_555 1_555
C4A C1 1_555 1_555
C4B C1 1_555 1_555
C5G H6G 1_555 1_555
C5A H6A 1_555 1_555
C6B C42B 1_555 1_555
C6G C42G 1_555 1_555
C7A C41A 1_555 1_555
C7B C41B 1_555 1_555
C8B H7B 1_555 1_555
C8G H7G 1_555 1_555
C9A C3A 1_555 1_555
C9B C3B 1_555 1_555
C10B C73 1_555 1_555
C10A C73 1_555 1_555
C11G C39G 1_555 1_555
C11A C39A 1_555 1_555
C12A C24A 1_555 1_555
C12B C24B 1_555 1_555
C13G C23G 1_555 1_555
C13A C23A 1_555 1_555
C14A C4A 1_555 1_555
C14B C4B 1_555 1_555
H8A C14A 1_555 1_555
H8B C14B 1_555 1_555
C15G C26G 1_555 1_555
C15A C26A 1_555 1_555
C16A C9A 1_555 1_555
C16B C9B 1_555 1_555
H9A C16A 1_555 1_555
H9B C16B 1_555 1_555
C17G H10G 1_555 1_555
C17A H10A 1_555 1_555
C18B C55B 1_555 1_555
C18A C55A 1_555 1_555
C19G H11G 1_555 1_555
C19A H11A 1_555 1_555
C20G O3G 1_555 1_555
C20A O12A 1_555 1_555
C21A C3A 1_555 1_555
C21B C3B 1_555 1_555
H12A C21A 1_555 1_555
H12B C21B 1_555 1_555
C22G H13G 1_555 1_555
C22A H13A 1_555 1_555
C23G H14G 1_555 1_555
C23A H14A 1_555 1_555
C25G H15G 1_555 1_555
C25A H15A 1_555 1_555
C26G C17G 1_555 1_555
C26A C17A 1_555 1_555
H16G C26G 1_555 1_555
H16A C26A 1_555 1_555
C27G C40G 1_555 1_555
C27A C40A 1_555 1_555
C28B H17B 1_555 1_555
C28G H17G 1_555 1_555
C29G H18G 1_555 1_555
C29A H18A 1_555 1_555
C30G C13G 1_555 1_555
C30A C13A 1_555 1_555
H19G C30G 1_555 1_555
H19A C30A 1_555 1_555
C31B O21B 1_555 1_555
C31G O21G 1_555 1_555
C32B H20B 1_555 1_555
C32A H20A 1_555 1_555
C33B H21B 1_555 1_555
C33G H21G 1_555 1_555
C34G O13G 1_555 1_555
C34A C99A 1_555 1_555
C35G O22G 1_555 1_555
C35A O22A 1_555 1_555
C36B C85B 1_555 1_555
C36G C85G 1_555 1_555
C37B C8B 1_555 1_555
C37G C8G 1_555 1_555
H22B C37B 1_555 1_555
H22G C37G 1_555 1_555
C38B C32B 1_555 1_555
C38A C32A 1_555 1_555
C39G H23G 1_555 1_555
C39A H23A 1_555 1_555
C40G C23G 1_555 1_555
C40A C23A 1_555 1_555
H24G C40G 1_555 1_555
H24A C40A 1_555 1_555
C41A N1A 1_555 1_555
C41B N1B 1_555 1_555
H25A C41A 1_555 1_555
H25B C41B 1_555 1_555
C42B C33B 1_555 1_555
C42G C33G 1_555 1_555
H26B C42B 1_555 1_555
H26G C42G 1_555 1_555
C43B H27B 1_555 1_555
C43G H27G 1_555 1_555
C44G C27G 1_555 1_555
C44A C27A 1_555 1_555
H28G C44G 1_555 1_555
H28A C44A 1_555 1_555
C45B H29B 1_555 1_555
C45G H29G 1_555 1_555
C46A C12A 1_555 1_555
C46B C12B 1_555 1_555
H30A C46A 1_555 1_555
H30B C46B 1_555 1_555
C47G C29G 1_555 1_555
C47A C29A 1_555 1_555
C48G N3G 1_555 1_555
C48A N3A 1_555 1_555
H31G C48G 1_555 1_555
H31A C48A 1_555 1_555
C49G C20G 1_555 1_555
C49A C20A 1_555 1_555
C50G C17G 1_555 1_555
C50A C17A 1_555 1_555
C51G O11G 1_555 1_555
C51A O2A 1_555 1_555
C52B C43B 1_555 1_555
C52G C43G 1_555 1_555
C53A C7A 1_555 1_555
C53B C7B 1_555 1_555
H32A C53A 1_555 1_555
H32B C53B 1_555 1_555
C54B C28B 1_555 1_555
C54G C28G 1_555 1_555
C55B H33B 1_555 1_555
C55A H33A 1_555 1_555
C56B C52B 1_555 1_555
C56G C52G 1_555 1_555
H34B C56B 1_555 1_555
H34G C56G 1_555 1_555
C57G C47G 1_555 1_555
C57A C47A 1_555 1_555
H35G C57G 1_555 1_555
H35A C57A 1_555 1_555
C58G H36G 1_555 1_555
C58A H36A 1_555 1_555
C59G C5G 1_555 1_555
C59A C5A 1_555 1_555
C60B O18B 1_555 1_555
C60G O7G 1_555 1_555
C61B H37B 1_555 1_555
C61A H37A 1_555 1_555
C62B H38B 1_555 1_555
C62G H38G 1_555 1_555
C63G C25G 1_555 1_555
C63A C25A 1_555 1_555
C64B C38B 1_555 1_555
C64A C38A 1_555 1_555
H39B C64B 1_555 1_555
H39A C64A 1_555 1_555
C65B H40B 1_555 1_555
C65G H40G 1_555 1_555
C66B H41B 1_555 1_555
C66G H41G 1_555 1_555
C67G N4G 1_555 1_555
C67A N4A 1_555 1_555
H42G C67G 1_555 1_555
H42A C67A 1_555 1_555
C68G C58G 1_555 1_555
C68A C58A 1_555 1_555
H43G C68G 1_555 1_555
H43A C68A 1_555 1_555
C69B C18B 1_555 1_555
C69A C18A 1_555 1_555
C70G C29G 1_555 1_555
C70A C29A 1_555 1_555
H44G C70G 1_555 1_555
H44A C70A 1_555 1_555
C71B C18B 1_555 1_555
C71A C18A 1_555 1_555
H45B C71B 1_555 1_555
H45A C71A 1_555 1_555
C72B H46B 1_555 1_555
C72A H46A 1_555 1_555
C74B C6B 1_555 1_555
C74G C6G 1_555 1_555
H47B C74B 1_555 1_555
H47G C74G 1_555 1_555
C75G C49G 1_555 1_555
C75A C49A 1_555 1_555
H48G C75G 1_555 1_555
H48A C75A 1_555 1_555
C76B C31B 1_555 1_555
C76G C31G 1_555 1_555
C77G C19G 1_555 1_555
C77A C19A 1_555 1_555
H49G C77G 1_555 1_555
H49A C77A 1_555 1_555
C78G C51G 1_555 1_555
C78A C51A 1_555 1_555
C79G C57G 1_555 1_555
C79A C57A 1_555 1_555
H50G C79G 1_555 1_555
H50A C79A 1_555 1_555
C80G C19G 1_555 1_555
C80A C19A 1_555 1_555
C81B C31B 1_555 1_555
C81G C31G 1_555 1_555
C82B C10B 1_555 1_555
C82A C10A 1_555 1_555
H51B C82B 1_555 1_555
H51A C82A 1_555 1_555
C83G C15G 1_555 1_555
C83A C15A 1_555 1_555
H52G C83G 1_555 1_555
H52A C83A 1_555 1_555
C84G C11G 1_555 1_555
C84A C11A 1_555 1_555
H53G C84G 1_555 1_555
H53A C84A 1_555 1_555
C86G C39G 1_555 1_555
C86A C39A 1_555 1_555
H54G C86G 1_555 1_555
H54A C86A 1_555 1_555
C87G N2G 1_555 1_555
C87A N2A 1_555 1_555
H55G C87G 1_555 1_555
H55A C87A 1_555 1_555
C88G C5G 1_555 1_555
C88A C5A 1_555 1_555
H56G C88G 1_555 1_555
H56A C88A 1_555 1_555
C89B C62B 1_555 1_555
C89G C62G 1_555 1_555
H57B C89B 1_555 1_555
H57G C89G 1_555 1_555
C90B C36B 1_555 1_555
C90G C36G 1_555 1_555
H58B C90B 1_555 1_555
H58G C90G 1_555 1_555
C91B C65B 1_555 1_555
C91G C65G 1_555 1_555
H59B C91B 1_555 1_555
H59G C91G 1_555 1_555
C92B C31B 1_555 1_555
C92G C31G 1_555 1_555
C93B O8B 1_555 1_555
C93G C6G 1_555 1_555
C94B C2B 1_555 1_555
C94G C2G 1_555 1_555
H60B C94B 1_555 1_555
H60G C94G 1_555 1_555
C95B C28B 1_555 1_555
C95G C28G 1_555 1_555
H61B C95B 1_555 1_555
H61G C95G 1_555 1_555
C96B C54B 1_555 1_555
C96G C54G 1_555 1_555
H62B C96B 1_555 1_555
H62G C96G 1_555 1_555
C97B C81B 1_555 1_555
C97G C81G 1_555 1_555
H63B C97B 1_555 1_555
H63G C97G 1_555 1_555
C98B C36B 1_555 1_555
C98G C36G 1_555 1_555
H64B C98B 1_555 1_555
H64G C98G 1_555 1_555
C99G C34G 1_555 1_555
C99A C58A 1_555 1_555
C100B N7B 1_555 1_555
C100G N7G 1_555 1_555
H65B C100B 1_555 1_555
H65G C100G 1_555 1_555
C101A C7A 1_555 1_555
C101B C7B 1_555 1_555
H66A C101A 1_555 1_555
H66B C101B 1_555 1_555
C102B C81B 1_555 1_555
C102G C81G 1_555 1_555
H67B C102B 1_555 1_555
H67G C102G 1_555 1_555
C103B C8B 1_555 1_555
C103G C8G 1_555 1_555
C104B C92B 1_555 1_555
C104G C92G 1_555 1_555
H68B C104B 1_555 1_555
H68G C104G 1_555 1_555
C105B C97B 1_555 1_555
C105G C97G 1_555 1_555
H69B C105B 1_555 1_555
H69G C105G 1_555 1_555
C106B C102B 1_555 1_555
C106G C102G 1_555 1_555
H70B C106B 1_555 1_555
H70G C106G 1_555 1_555
C107B N8B 1_555 1_555
C107G N8G 1_555 1_555
C108B N6B 1_555 1_555
C108G N6G 1_555 1_555
C109B C45B 1_555 1_555
C109G C45G 1_555 1_555
H71B C109B 1_555 1_555
H71G C109G 1_555 1_555
C110B C38B 1_555 1_555
C110A C38A 1_555 1_555
H72B C110B 1_555 1_555
H72A C110A 1_555 1_555
C111B C37B 1_555 1_555
C111G C37G 1_555 1_555
C112B C10B 1_555 1_555
C112A C10A 1_555 1_555
H73B C112B 1_555 1_555
H73A C112A 1_555 1_555
C113B N5B 1_555 1_555
C113A N5A 1_555 1_555
C114A C12A 1_555 1_555
C114B C12B 1_555 1_555
H74A C114A 1_555 1_555
H74B C114B 1_555 1_555
C115G C25G 1_555 1_555
C115A C25A 1_555 1_555
H75G C115G 1_555 1_555
H75A C115A 1_555 1_555
C116B C52B 1_555 1_555
C116G C52G 1_555 1_555
H76B C116B 1_555 1_555
H76G C116G 1_555 1_555
Zn4 O14 1_555 1_555
Zn5 O14 1_555 1_555
Zn6 O16 1_555 1_555
C2 C100 1_555 1_555
C4 C21 1_555 1_555
C11 C67 1_555 1_555
C13 C35 1_555 1_555
C14 C16 1_555 1_555
C15 C35 1_555 1_555
C18 C69 1_555 1_555
C22 C50 1_555 1_555
C22 C83 1_555 1_555
C30 C44 1_555 1_555
C35 C80 1_555 1_555
C43 C90 1_555 1_555
C45 C108 1_555 1_555
C46 C101 1_555 1_555
C47 C87 1_555 1_555
C48 C59 1_555 1_555
C49 C86 1_555 1_555
C53 C114 1_555 1_555
C55 C64 1_555 1_555
C59 C68 1_555 1_555
C61 C82 1_555 1_555
C61 C113 1_555 1_555
C62 C108 1_555 1_555
C63 C77 1_555 1_555
C65 C111 1_555 1_555
C66 C103 1_555 1_555
C71 C110 1_555 1_555
C72 C112 1_555 1_555
C72 C113 1_555 1_555
C74 C94 1_555 1_555
C75 C84 1_555 1_555
C76 C89 1_555 1_555
C76 C109 1_555 1_555
C78 C79 1_555 1_555
C80 C115 1_555 1_555
C88 C99 1_555 1_555
C91 C103 1_555 1_555
C92 C95 1_555 1_555
C96 C104 1_555 1_555
C98 C116 1_555 1_555
C105 C107 1_555 1_555
C106 C107 1_555 1_555
Zn1E O14E 1_555 1_555
Zn4A O14A 1_555 1_555
Zn4B O14B 1_555 1_555
Zn4E O14E 1_555 1_555
Zn5G O14G 1_555 1_555
Zn5A O14A_2 1_555 1_555
Zn5E O14E 1_555 1_555
Zn6G O16G 1_555 1_555
Zn6D O16D 1_555 1_555
Zn6C O16D 1_555 1_555
O10B C93B 1_555 1_555
O11A C51A 1_555 1_555
O12G C20G 1_555 1_555
O18G C60G 1_555 1_555
C2B C100B 1_555 1_555
C2G C100G 1_555 1_555
C4A C21A 1_555 1_555
C4B C21B 1_555 1_555
C6B C93B 1_555 1_555
C11G C67G 1_555 1_555
C11A C67A 1_555 1_555
C13G C35G 1_555 1_555
C13A C35A 1_555 1_555
C14A C16A 1_555 1_555
C14B C16B 1_555 1_555
C15G C35G 1_555 1_555
C15A C35A 1_555 1_555
C22G C50G 1_555 1_555
C22G C83G 1_555 1_555
C22A C50A 1_555 1_555
C22A C83A 1_555 1_555
C30G C44G 1_555 1_555
C30A C44A 1_555 1_555
C35G C80G 1_555 1_555
C35A C80A 1_555 1_555
C43B C90B 1_555 1_555
C43G C90G 1_555 1_555
C45B C108B 1_555 1_555
C45G C108G 1_555 1_555
C46A C101A 1_555 1_555
C46B C101B 1_555 1_555
C47G C87G 1_555 1_555
C47A C87A 1_555 1_555
C48G C59G 1_555 1_555
C48A C59A 1_555 1_555
C49G C86G 1_555 1_555
C49A C86A 1_555 1_555
C53A C114A 1_555 1_555
C53B C114B 1_555 1_555
C55B C64B 1_555 1_555
C55A C64A 1_555 1_555
C58G C99G 1_555 1_555
C59G C68G 1_555 1_555
C59A C68A 1_555 1_555
C60B C111B 1_555 1_555
C60G C111G 1_555 1_555
C61B C82B 1_555 1_555
C61B C113B 1_555 1_555
C61A C82A 1_555 1_555
C61A C113A 1_555 1_555
C62B C108B 1_555 1_555
C62G C108G 1_555 1_555
C63G C77G 1_555 1_555
C63A C77A 1_555 1_555
C65B C111B 1_555 1_555
C65G C111G 1_555 1_555
C66B C103B 1_555 1_555
C66G C103G 1_555 1_555
C70G C78G 1_555 1_555
C70A C78A 1_555 1_555
C71B C110B 1_555 1_555
C71A C110A 1_555 1_555
C72B C112B 1_555 1_555
C72B C113B 1_555 1_555
C72A C112A 1_555 1_555
C72A C113A 1_555 1_555
C74B C94B 1_555 1_555
C74G C94G 1_555 1_555
C75G C84G 1_555 1_555
C75A C84A 1_555 1_555
C76B C89B 1_555 1_555
C76B C109B 1_555 1_555
C76G C89G 1_555 1_555
C76G C109G 1_555 1_555
C78G C79G 1_555 1_555
C78A C79A 1_555 1_555
C80G C115G 1_555 1_555
C80A C115A 1_555 1_555
C88G C99G 1_555 1_555
C88A C99A 1_555 1_555
C91B C103B 1_555 1_555
C91G C103G 1_555 1_555
C92B C95B 1_555 1_555
C92G C95G 1_555 1_555
C96B C104B 1_555 1_555
C96G C104G 1_555 1_555
C98B C116B 1_555 1_555
C98G C116G 1_555 1_555
C105B C107B 1_555 1_555
C105G C107G 1_555 1_555
C106B C107B 1_555 1_555
C106G C107G 1_555 1_555

#END
