
#######################################################################
#
#                 Cambridge Crystallographic Data Centre
#                                CCDC 
#
#######################################################################
#
# If this CIF has been generated from an entry in the Cambridge 
# Structural Database, then it will include bibliographic, chemical, 
# crystal, experimental, refinement or atomic coordinate data resulting 
# from the CCDC's data processing and validation procedures.
#
#######################################################################

data_IBABOF01
_chemical_formula_moiety         '(C44 H43 Co2 N5 O24 S3)n'
_symmetry_cell_setting           orthorhombic
_symmetry_space_group_name_H-M   'P n a 21'
_symmetry_Int_Tables_number      33
_space_group_name_Hall           'P 2c -2n'
loop_
_symmetry_equiv_pos_site_id
_symmetry_equiv_pos_as_xyz
1 x,y,z
2 -x,-y,1/2+z
3 1/2-x,1/2+y,1/2+z
4 1/2+x,1/2-y,z
_cell_length_a                   17.9598(8)
_cell_length_b                   21.8386(9)
_cell_length_c                   12.6661(5)
_cell_angle_alpha                90
_cell_angle_beta                 90
_cell_angle_gamma                90
_cell_volume                     4967.86
loop_
_atom_site_label
_atom_site_type_symbol
_atom_site_fract_x
_atom_site_fract_y
_atom_site_fract_z
Co1 Co 0.33797(6) 0.72853(5) 0.03432(11)
Co2 Co 0.17465(6) 0.72006(5) 0.02574(11)
N1 N 0.4438(4) 0.7600(3) 0.0530(6)
O1 O 0.3455(4) 0.7032(3) -0.1220(5)
O2 O 0.3164(4) 0.7507(3) 0.1954(5)
O3 O 0.2134(4) 0.3076(3) -0.4980(5)
O4 O 0.1747(4) 1.1393(3) 0.5722(5)
O5 O 0.2221(4) 0.6934(3) -0.1080(5)
O6 O 0.1918(4) 0.7482(3) 0.1738(5)
N2 N 0.5618(4) 0.7929(3) 0.0404(7)
O7 O 0.3353(4) 0.3086(3) -0.5268(5)
O8 O 0.2986(4) 1.1314(3) 0.5837(5)
N3 N 0.4597(4) 0.7990(4) 0.1382(6)
C1 C 0.5056(5) 0.7595(4) -0.0023(7)
C2 C 0.2814(5) 0.6919(4) -0.1600(7)
C3 C 0.2512(6) 0.7555(4) 0.2271(8)
C4 C 0.5307(6) 0.8169(4) 0.1308(7)
N4 N 0.5129(5) 0.7311(4) -0.0966(6)
C5 C 0.2756(5) 0.6719(4) -0.2727(7)
C6 C 0.2385(5) 0.7738(4) 0.3419(7)
N5 N 0.5652(5) 0.8540(4) 0.1976(6)
H1 H 0.4757 0.7120 -0.1237
H2 H 0.5548 0.7323 -0.1295
C7 C 0.2055(6) 0.6669(5) -0.3179(8)
C8 C 0.3386(5) 0.6590(4) -0.3319(7)
C9 C 0.2986(6) 0.7793(5) 0.4083(8)
C10 C 0.1671(6) 0.7848(5) 0.3790(9)
H3 H 0.5416 0.8686 0.2511
H4 H 0.6111 0.8634 0.1876
H5 H 0.1635 0.6769 -0.2788
C11 C 0.1981(6) 0.6471(5) -0.4205(8)
C12 C 0.3326(6) 0.6396(5) -0.4337(8)
H6 H 0.3855 0.6635 -0.3017
H7 H 0.3463 0.7712 0.3833
C13 C 0.2884(6) 0.7970(5) 0.5131(8)
C14 C 0.1566(6) 0.8029(5) 0.4839(8)
H8 H 0.1263 0.7802 0.3344
H9 H 0.1512 0.6426 -0.4507
C15 C 0.2611(5) 0.6341(4) -0.4774(9)
H10 H 0.3747 0.6302 -0.4732
H11 H 0.3289 0.8001 0.5585
C16 C 0.2181(6) 0.8099(4) 0.5481(8)
H12 H 0.1089 0.8100 0.5099
S1 S 0.25130(16) 0.60461(11) -0.6085(2)
S2 S 0.20597(15) 0.83886(11) 0.67811(19)
O9 O 0.1778(4) 0.6192(3) -0.6456(5)
O10 O 0.3144(4) 0.6238(3) -0.6702(5)
C17 C 0.2573(6) 0.5245(4) -0.5880(7)
O11 O 0.1306(4) 0.8255(3) 0.7109(5)
O12 O 0.2679(4) 0.8190(3) 0.7417(5)
C18 C 0.2144(6) 0.9191(5) 0.6583(8)
C19 C 0.1933(6) 0.4931(4) -0.5623(7)
C20 C 0.3259(6) 0.4960(5) -0.5957(8)
C21 C 0.2833(6) 0.9470(5) 0.6679(8)
C22 C 0.1522(7) 0.9526(5) 0.6290(11)
H13 H 0.1476 0.5130 -0.5577
C23 C 0.1992(6) 0.4302(5) -0.5436(8)
C24 C 0.3307(6) 0.4339(4) -0.5754(7)
H14 H 0.3681 0.5182 -0.6141
H15 H 0.3249 0.9244 0.6877
C25 C 0.2893(6) 1.0094(5) 0.6474(8)
C26 C 0.1588(6) 1.0136(5) 0.6090(10)
H16 H 0.1061 0.9335 0.6231
H17 H 0.1568 0.4078 -0.5269
C27 C 0.2672(6) 0.4010(5) -0.5493(7)
H18 H 0.3765 0.4142 -0.5792
H19 H 0.3352 1.0287 0.6544
C28 C 0.2270(6) 1.0432(4) 0.6163(7)
H20 H 0.1168 1.0359 0.5900
C29 C 0.2719(6) 0.3350(4) -0.5242(8)
C30 C 0.2341(6) 1.1095(5) 0.5883(8)
Co1B Co 0.16203(6) 0.22853(5) -0.46568(11)
Co1B_2 Co 0.16203(6) 1.22853(5) 0.53432(11)
Co2B Co 0.32535(6) 0.22006(5) -0.47426(11)
Co2B_2 Co 0.32535(6) 1.22006(5) 0.52574(11)
Co2C Co 0.67465(6) 0.77994(5) 0.02574(11)
O3B O 0.2866(4) 0.8076(3) 0.0020(5)
O4B O 0.3253(4) 0.6393(3) 0.0722(5)
N2C N 0.0618(4) 0.7071(3) 0.0404(7)
O7B O 0.1647(4) 0.8086(3) -0.0268(5)
O8B O 0.2014(4) 0.6314(3) 0.0837(5)
S3 S 0.99259(15) 0.46748(12) 0.3289(2)
O13 O 0.6701(5) 0.6000(6) 0.1988(8)
H21 H 0.7114 0.6127 0.1819
O14 O 0.6267(7) 0.5253(7) 0.2970(15)
O15 O 1.0218(5) 0.2389(4) -0.0258(8)
H22 H 1.0164 0.2328 0.0376
O16 O 1.0282(5) 0.3193(4) -0.1329(6)
O17 O 0.9985(4) 0.4334(4) 0.4257(6)
O18 O 1.0409(4) 0.5187(3) 0.3098(6)
C31 C 0.6776(9) 0.5516(8) 0.2621(14)
C32 C 0.7575(7) 0.5319(7) 0.2808(11)
C33 C 0.7702(7) 0.4806(6) 0.3415(11)
H23 H 0.7302 0.4597 0.3709
C34 C 0.8415(7) 0.4600(5) 0.3589(9)
H24 H 0.8503 0.4249 0.3985
C35 C 0.9002(6) 0.4935(5) 0.3154(9)
C36 C 0.8876(7) 0.5454(5) 0.2552(9)
H25 H 0.9274 0.5668 0.2258
C37 C 0.8182(6) 0.5643(6) 0.2400(10)
H26 H 0.8097 0.5999 0.2015
C38 C 1.0027(6) 0.4159(5) 0.2202(8)
C39 C 1.0016(7) 0.3543(5) 0.2391(9)
H27 H 0.9977 0.3393 0.3076
C40 C 1.0064(7) 0.3145(6) 0.1539(10)
H28 H 1.0047 0.2724 0.1646
C41 C 1.0137(6) 0.3380(5) 0.0525(9)
C42 C 1.0144(6) 0.4008(5) 0.0372(10)
H29 H 1.0188 0.4160 -0.0311
C43 C 1.0089(6) 0.4406(5) 0.1178(9)
H30 H 1.0091 0.4827 0.1065
C44 C 1.0209(7) 0.2995(7) -0.0446(11)
O19 O 1.0432(4) 0.1701(4) -0.1910(8)
D1 D 1.016(6) 0.150(5) -0.152(10)
D2 D 1.084(3) 0.170(6) -0.217(10)
O20 O 0.0029(5) 0.8943(4) 0.7747(8)
D3 D 0.032(7) 0.871(5) 0.748(9)
D4 D -0.023(7) 0.901(6) 0.826(7)
O21 O 0.5473(3) 0.6431(3) 0.1414(5)
H31 H 0.5813 0.6457 0.0950
H32 H 0.5214 0.6756 0.1412
H33 H 0.539(5) 0.610(2) 0.183(7)
O22 O 0.0356(5) 1.0953(3) 0.4799(9)
D5 D 0.067(5) 1.120(4) 0.464(10)
D6 D 0.022(7) 1.061(2) 0.473(10)
O23 O 0.5029(4) 0.5677(3) 0.4202(5)
D7 D 0.541(5) 0.546(6) 0.434(8)
D8 D 0.488(6) 0.565(6) 0.356(4)
O24 O 0.5315(3) 0.4839(3) 0.1158(6)
D9 D 0.529(7) 0.520(2) 0.139(9)
D10 D 0.498(5) 0.470(5) 0.074(9)
loop_
_geom_bond_atom_site_label_1
_geom_bond_atom_site_label_2
_geom_bond_site_symmetry_1
_geom_bond_site_symmetry_2
Co1 N1 1_555 1_555
Co2 O5 1_555 1_555
N1 N3 1_555 1_555
O1 Co1 1_555 1_555
O2 Co1 1_555 1_555
O3 C29 1_555 1_555
O4 C30 1_555 1_555
O5 C2 1_555 1_555
O6 Co2 1_555 1_555
N2 C1 1_555 1_555
O7 C29 1_555 1_555
O8 C30 1_555 1_555
N3 C4 1_555 1_555
C1 N1 1_555 1_555
C2 O1 1_555 1_555
C3 O2 1_555 1_555
C4 N2 1_555 1_555
N4 C1 1_555 1_555
C5 C2 1_555 1_555
C6 C3 1_555 1_555
N5 C4 1_555 1_555
H1 N4 1_555 1_555
H2 N4 1_555 1_555
C7 C5 1_555 1_555
C8 C5 1_555 1_555
C9 C6 1_555 1_555
C10 C6 1_555 1_555
H3 N5 1_555 1_555
H4 N5 1_555 1_555
H5 C7 1_555 1_555
C11 C7 1_555 1_555
C12 C8 1_555 1_555
H6 C8 1_555 1_555
H7 C9 1_555 1_555
C13 C9 1_555 1_555
C14 C10 1_555 1_555
H8 C10 1_555 1_555
H9 C11 1_555 1_555
C15 C11 1_555 1_555
H10 C12 1_555 1_555
H11 C13 1_555 1_555
C16 C13 1_555 1_555
H12 C14 1_555 1_555
S1 C15 1_555 1_555
S2 C16 1_555 1_555
O9 S1 1_555 1_555
O10 S1 1_555 1_555
C17 S1 1_555 1_555
O11 S2 1_555 1_555
O12 S2 1_555 1_555
C18 S2 1_555 1_555
C19 C17 1_555 1_555
C20 C17 1_555 1_555
C21 C18 1_555 1_555
C22 C18 1_555 1_555
H13 C19 1_555 1_555
C23 C19 1_555 1_555
C24 C20 1_555 1_555
H14 C20 1_555 1_555
H15 C21 1_555 1_555
C25 C21 1_555 1_555
C26 C22 1_555 1_555
H16 C22 1_555 1_555
H17 C23 1_555 1_555
C27 C23 1_555 1_555
H18 C24 1_555 1_555
H19 C25 1_555 1_555
C28 C25 1_555 1_555
H20 C26 1_555 1_555
C29 C27 1_555 1_555
C30 C28 1_555 1_555
S3 O17 1_555 1_555
O13 H21 1_555 1_555
O14 C31 1_555 1_555
O15 H22 1_555 1_555
O16 C44 1_555 1_555
O18 S3 1_555 1_555
C31 O13 1_555 1_555
C32 C31 1_555 1_555
C33 C32 1_555 1_555
H23 C33 1_555 1_555
C34 C33 1_555 1_555
H24 C34 1_555 1_555
C35 S3 1_555 1_555
C36 C35 1_555 1_555
H25 C36 1_555 1_555
C37 C32 1_555 1_555
H26 C37 1_555 1_555
C38 S3 1_555 1_555
C39 C38 1_555 1_555
H27 C39 1_555 1_555
C40 C39 1_555 1_555
H28 C40 1_555 1_555
C41 C40 1_555 1_555
C42 C41 1_555 1_555
H29 C42 1_555 1_555
C43 C38 1_555 1_555
H30 C43 1_555 1_555
C44 O15 1_555 1_555
O19 D1 1_555 1_555
D2 O19 1_555 1_555
O20 D3 1_555 1_555
D4 O20 1_555 1_555
O21 H31 1_555 1_555
H32 O21 1_555 1_555
H33 O21 1_555 1_555
O22 D5 1_555 1_555
D6 O22 1_555 1_555
O23 D7 1_555 1_555
D8 O23 1_555 1_555
O24 D9 1_555 1_555
D10 O24 1_555 1_555
Co1B O3 1_555 1_555
Co1B_2 O4 1_555 1_555
Co2B O7 1_555 1_555
Co2B_2 O8 1_555 1_555
Co2C N2 1_555 1_555
O3B Co1 1_555 1_555
O4B Co1 1_555 1_555
N2C Co2 1_555 1_555
O7B Co2 1_555 1_555
O8B Co2 1_555 1_555
O6 C3 1_555 1_555
C12 C15 1_555 1_555
C14 C16 1_555 1_555
C24 C27 1_555 1_555
C26 C28 1_555 1_555
C34 C35 1_555 1_555
C36 C37 1_555 1_555
C41 C44 1_555 1_555
C42 C43 1_555 1_555

#END
