
#######################################################################
#
#                 Cambridge Crystallographic Data Centre
#                                CCDC 
#
#######################################################################
#
# If this CIF has been generated from an entry in the Cambridge 
# Structural Database, then it will include bibliographic, chemical, 
# crystal, experimental, refinement or atomic coordinate data resulting 
# from the CCDC's data processing and validation procedures.
#
#######################################################################

data_IBABUL
_chemical_formula_moiety         '(C47 H45 Co2 N5 O22 S3)n'
_symmetry_cell_setting           orthorhombic
_symmetry_space_group_name_H-M   'P n a 21'
_symmetry_Int_Tables_number      33
_space_group_name_Hall           'P 2c -2n'
loop_
_symmetry_equiv_pos_site_id
_symmetry_equiv_pos_as_xyz
1 x,y,z
2 -x,-y,1/2+z
3 1/2-x,1/2+y,1/2+z
4 1/2+x,1/2-y,z
_cell_length_a                   18.072(2)
_cell_length_b                   21.785(2)
_cell_length_c                   12.6732(14)
_cell_angle_alpha                90
_cell_angle_beta                 90
_cell_angle_gamma                90
_cell_volume                     4989.42
loop_
_atom_site_label
_atom_site_type_symbol
_atom_site_fract_x
_atom_site_fract_y
_atom_site_fract_z
Co1 Co 0.33838(6) 0.72868(5) 0.03295(12)
Co2 Co 0.17469(6) 0.72211(6) 0.02650(12)
S1 S 0.2453(2) 0.60635(12) -0.6066(2)
S2 S 0.20862(16) 0.83997(11) 0.6766(2)
N1 N 0.4438(4) 0.7581(4) 0.0529(6)
N2 N 0.5629(4) 0.7902(3) 0.0418(7)
N3 N 0.4604(5) 0.7984(4) 0.1357(7)
N4 N 0.5145(5) 0.7281(4) -0.0955(6)
H1 H 0.4779 0.7084 -0.1227
H2 H 0.5563 0.7293 -0.1277
N5 N 0.5653(5) 0.8514(4) 0.1969(7)
H3 H 0.5417 0.8664 0.2499
H4 H 0.6113 0.8602 0.1878
O1 O 0.2106(4) 0.3093(3) -0.4972(5)
O2 O 0.1789(4) 1.1409(3) 0.5742(5)
O3 O 0.3449(4) 0.7041(3) -0.1232(5)
O4 O 0.3193(4) 0.7520(3) 0.1937(5)
O5 O 0.2227(4) 0.6950(3) -0.1063(5)
O6 O 0.1952(4) 0.7467(3) 0.1751(5)
O7 O 0.3317(4) 0.3105(3) -0.5278(5)
O8 O 0.3026(4) 1.1321(3) 0.5796(6)
O9 O 0.1718(6) 0.6212(4) -0.6402(7)
O10 O 0.3062(6) 0.6263(3) -0.6687(6)
O11 O 0.1334(5) 0.8265(3) 0.7088(6)
O12 O 0.2694(5) 0.8199(3) 0.7403(6)
C1 C 0.2808(6) 0.6926(5) -0.1588(8)
C2 C 0.2734(6) 0.6747(5) -0.2720(8)
C3 C 0.2039(6) 0.6607(5) -0.3112(9)
H5 H 0.1626 0.6643 -0.2680
C4 C 0.1957(7) 0.6413(6) -0.4151(10)
H6 H 0.1492 0.6322 -0.4421
C5 C 0.2564(6) 0.6359(4) -0.4757(10)
C6 C 0.3256(7) 0.6499(6) -0.4419(8)
H7 H 0.3661 0.6467 -0.4869
C7 C 0.3343(6) 0.6697(5) -0.3364(9)
H8 H 0.3811 0.6792 -0.3107
C8 C 0.2524(7) 0.5244(5) -0.5896(8)
C9 C 0.1906(7) 0.4936(5) -0.5615(9)
H9 H 0.1457 0.5141 -0.5548
C10 C 0.1953(6) 0.4316(5) -0.5432(8)
H10 H 0.1531 0.4094 -0.5255
C11 C 0.2629(6) 0.4021(5) -0.5509(8)
C12 C 0.3251(6) 0.4358(5) -0.5810(9)
H11 H 0.3704 0.4162 -0.5887
C13 C 0.3199(7) 0.4977(5) -0.5994(10)
H12 H 0.3613 0.5206 -0.6180
C14 C 0.2692(6) 0.3359(5) -0.5240(8)
C15 C 0.2534(6) 0.7557(4) 0.2276(8)
C16 C 0.2412(6) 0.7755(5) 0.3419(8)
C17 C 0.3011(6) 0.7918(6) 0.4034(8)
H13 H 0.3484 0.7914 0.3745
C18 C 0.2918(7) 0.8085(7) 0.5059(10)
H14 H 0.3325 0.8178 0.5478
C19 C 0.2211(6) 0.8116(4) 0.5470(8)
C20 C 0.1603(6) 0.7955(6) 0.4852(9)
H15 H 0.1127 0.7982 0.5127
C21 C 0.1709(7) 0.7754(6) 0.3830(9)
H16 H 0.1311 0.7621 0.3425
C22 C 0.2160(6) 0.9204(4) 0.6566(8)
C23 C 0.2843(7) 0.9481(5) 0.6680(9)
H17 H 0.3252 0.9253 0.6893
C24 C 0.2909(6) 1.0103(5) 0.6471(8)
H18 H 0.3365 1.0295 0.6551
C25 C 0.2311(6) 1.0437(4) 0.6150(8)
C26 C 0.1621(7) 1.0161(6) 0.6067(12)
H19 H 0.1205 1.0387 0.5880
C27 C 0.1573(8) 0.9529(5) 0.6275(11)
H20 H 0.1118 0.9333 0.6207
C28 C 0.2377(6) 1.1118(5) 0.5889(8)
C29 C 0.5061(5) 0.7574(4) -0.0020(7)
C30 C 0.5308(5) 0.8147(5) 0.1290(8)
Co1B Co 0.16162(6) 0.22868(5) -0.46705(12)
Co1B_2 Co 0.16162(6) 1.22868(5) 0.53295(12)
Co2B Co 0.32531(6) 0.22211(6) -0.47350(12)
Co2B_2 Co 0.32531(6) 1.22211(6) 0.52650(12)
Co2C Co 0.67469(6) 0.77789(6) 0.02650(12)
N2C N 0.0629(4) 0.7098(3) 0.0418(7)
O1B O 0.2894(4) 0.8093(3) 0.0028(5)
O2B O 0.3211(4) 0.6409(3) 0.0742(5)
O7B O 0.1683(4) 0.8105(3) -0.0278(5)
O8B O 0.1974(4) 0.6321(3) 0.0796(6)
S3 S 0.99098(18) 0.46928(15) 0.3301(3)
O13 O 0.6798(6) 0.6128(5) 0.1954(8)
H21 H 0.7054 0.6410 0.2178
O14 O 0.6302(7) 0.5446(6) 0.3078(13)
O15 O 1.0220(6) 0.2403(5) -0.0153(9)
H22 H 0.9981 0.2206 -0.0587
O16 O 1.0242(5) 0.3205(5) -0.1289(7)
O17 O 0.9957(5) 0.4355(4) 0.4273(7)
O18 O 1.0413(5) 0.5192(4) 0.3115(8)
C31 C 0.6822(9) 0.5658(8) 0.2634(13)
C32 C 0.7613(8) 0.5429(6) 0.2828(11)
C33 C 0.7709(8) 0.4899(8) 0.3441(12)
H23 H 0.7302 0.4695 0.3721
C34 C 0.8426(7) 0.4680(6) 0.3627(9)
H24 H 0.8502 0.4340 0.4058
C35 C 0.9022(7) 0.4977(5) 0.3158(9)
C36 C 0.8911(8) 0.5489(6) 0.2520(10)
H25 H 0.9311 0.5682 0.2201
C37 C 0.8195(7) 0.5712(6) 0.2363(11)
H26 H 0.8118 0.6055 0.1939
C38 C 0.9993(6) 0.4176(7) 0.2225(10)
C39 C 0.9963(7) 0.3558(5) 0.2432(11)
H27 H 0.9901 0.3412 0.3117
C40 C 1.0027(7) 0.3154(6) 0.1575(9)
H28 H 1.0020 0.2732 0.1683
C41 C 1.0103(7) 0.3395(6) 0.0542(10)
C42 C 1.0118(7) 0.4018(6) 0.0419(11)
H29 H 1.0158 0.4175 -0.0261
C43 C 1.0078(7) 0.4421(7) 0.1237(9)
H30 H 1.0106 0.4843 0.1130
C44 C 1.0182(7) 0.3008(8) -0.0391(12)
O19 O 1.0533(9) 0.1796(7) -0.1866(13)
H31 H 1.026(6) 0.147(3) -0.155(8)
H32 H 1.026(6) 0.196(6) -0.245(8)
H33 H 1.100(4) 0.165(5) -0.212(12)
O20 O 0.4874(15) 0.5762(12) -0.623(2)
H34 H 0.4694 0.5475 -0.6565
C45 C 0.494(2) 0.5593(18) -0.513(3)
H35 H 0.5226 0.5899 -0.4769
H36 H 0.5186 0.5203 -0.5079
H37 H 0.4458 0.5566 -0.4824
O21 O 0.464(4) 0.547(3) -0.238(6)
H38 H 0.4279 0.5447 -0.2760
C46 C 0.493(3) 0.6041(13) -0.244(4)
H39 H 0.4576 0.6331 -0.2172
H40 H 0.5036 0.6135 -0.3165
H41 H 0.5374 0.6062 -0.2033
O22 O 0.5494(6) 0.6543(5) 0.1564(9)
H42 H 0.5631 0.6401 0.2130
C47 C 0.5102(11) 0.6090(9) 0.0998(17)
H43 H 0.4627 0.6027 0.1318
H44 H 0.5376 0.5712 0.1010
H45 H 0.5038 0.6221 0.0281
loop_
_geom_bond_atom_site_label_1
_geom_bond_atom_site_label_2
_geom_bond_site_symmetry_1
_geom_bond_site_symmetry_2
Co1 N1 1_555 1_555
Co2 O5 1_555 1_555
S1 O9 1_555 1_555
S2 O11 1_555 1_555
N1 N3 1_555 1_555
N2 C29 1_555 1_555
N3 C30 1_555 1_555
N4 H1 1_555 1_555
H2 N4 1_555 1_555
N5 H3 1_555 1_555
H4 N5 1_555 1_555
O1 C14 1_555 1_555
O2 C28 1_555 1_555
O3 Co1 1_555 1_555
O4 Co1 1_555 1_555
O5 C1 1_555 1_555
O6 Co2 1_555 1_555
O7 C14 1_555 1_555
O8 C28 1_555 1_555
O10 S1 1_555 1_555
O12 S2 1_555 1_555
C1 O3 1_555 1_555
C2 C1 1_555 1_555
C3 C2 1_555 1_555
H5 C3 1_555 1_555
C4 C3 1_555 1_555
H6 C4 1_555 1_555
C5 S1 1_555 1_555
C6 C5 1_555 1_555
H7 C6 1_555 1_555
C7 C2 1_555 1_555
H8 C7 1_555 1_555
C8 S1 1_555 1_555
C9 C8 1_555 1_555
H9 C9 1_555 1_555
C10 C9 1_555 1_555
H10 C10 1_555 1_555
C11 C10 1_555 1_555
C12 C11 1_555 1_555
H11 C12 1_555 1_555
C13 C8 1_555 1_555
H12 C13 1_555 1_555
C14 C11 1_555 1_555
C15 O4 1_555 1_555
C16 C15 1_555 1_555
C17 C16 1_555 1_555
H13 C17 1_555 1_555
C18 C17 1_555 1_555
H14 C18 1_555 1_555
C19 S2 1_555 1_555
C20 C19 1_555 1_555
H15 C20 1_555 1_555
C21 C16 1_555 1_555
H16 C21 1_555 1_555
C22 S2 1_555 1_555
C23 C22 1_555 1_555
H17 C23 1_555 1_555
C24 C23 1_555 1_555
H18 C24 1_555 1_555
C25 C24 1_555 1_555
C26 C25 1_555 1_555
H19 C26 1_555 1_555
C27 C22 1_555 1_555
H20 C27 1_555 1_555
C28 C25 1_555 1_555
C29 N1 1_555 1_555
C30 N2 1_555 1_555
S3 O17 1_555 1_555
O13 H21 1_555 1_555
O14 C31 1_555 1_555
O15 H22 1_555 1_555
O16 C44 1_555 1_555
O18 S3 1_555 1_555
C31 O13 1_555 1_555
C32 C31 1_555 1_555
C33 C32 1_555 1_555
H23 C33 1_555 1_555
C34 C33 1_555 1_555
H24 C34 1_555 1_555
C35 S3 1_555 1_555
C36 C35 1_555 1_555
H25 C36 1_555 1_555
C37 C32 1_555 1_555
H26 C37 1_555 1_555
C38 S3 1_555 1_555
C39 C38 1_555 1_555
H27 C39 1_555 1_555
C40 C39 1_555 1_555
H28 C40 1_555 1_555
C41 C40 1_555 1_555
C42 C41 1_555 1_555
H29 C42 1_555 1_555
C43 C38 1_555 1_555
H30 C43 1_555 1_555
C44 O15 1_555 1_555
O19 H31 1_555 1_555
H32 O19 1_555 1_555
H33 O19 1_555 1_555
O20 H34 1_555 1_555
C45 O20 1_555 1_555
H35 C45 1_555 1_555
H36 C45 1_555 1_555
H37 C45 1_555 1_555
O21 H38 1_555 1_555
C46 O21 1_555 1_555
H39 C46 1_555 1_555
H40 C46 1_555 1_555
H41 C46 1_555 1_555
O22 H42 1_555 1_555
C47 O22 1_555 1_555
H43 C47 1_555 1_555
H44 C47 1_555 1_555
H45 C47 1_555 1_555
Co1B O1 1_555 1_555
Co1B_2 O2 1_555 1_555
Co2B O7 1_555 1_555
Co2B_2 O8 1_555 1_555
Co2C N2 1_555 1_555
N2C Co2 1_555 1_555
O1B Co1 1_555 1_555
O2B Co1 1_555 1_555
O7B Co2 1_555 1_555
O8B Co2 1_555 1_555
N4 C29 1_555 1_555
N5 C30 1_555 1_555
O6 C15 1_555 1_555
C4 C5 1_555 1_555
C6 C7 1_555 1_555
C12 C13 1_555 1_555
C18 C19 1_555 1_555
C20 C21 1_555 1_555
C26 C27 1_555 1_555
C34 C35 1_555 1_555
C36 C37 1_555 1_555
C41 C44 1_555 1_555
C42 C43 1_555 1_555

#END
