
#######################################################################
#
#                 Cambridge Crystallographic Data Centre
#                                CCDC 
#
#######################################################################
#
# If this CIF has been generated from an entry in the Cambridge 
# Structural Database, then it will include bibliographic, chemical, 
# crystal, experimental, refinement or atomic coordinate data resulting 
# from the CCDC's data processing and validation procedures.
#
#######################################################################

data_IBABOF
_chemical_formula_moiety         '(C44 H43 Co2 N5 O24 S3)n'
_symmetry_cell_setting           orthorhombic
_symmetry_space_group_name_H-M   'P n a 21'
_symmetry_Int_Tables_number      33
_space_group_name_Hall           'P 2c -2n'
loop_
_symmetry_equiv_pos_site_id
_symmetry_equiv_pos_as_xyz
1 x,y,z
2 -x,-y,1/2+z
3 1/2-x,1/2+y,1/2+z
4 1/2+x,1/2-y,z
_cell_length_a                   17.9697(6)
_cell_length_b                   21.8405(7)
_cell_length_c                   12.6666(3)
_cell_angle_alpha                90
_cell_angle_beta                 90
_cell_angle_gamma                90
_cell_volume                     4971.23
loop_
_atom_site_label
_atom_site_type_symbol
_atom_site_fract_x
_atom_site_fract_y
_atom_site_fract_z
Co1 Co 0.33730(5) 0.72967(4) 0.03428(8)
Co2 Co 0.17418(5) 0.72165(4) 0.02627(8)
S1 S 0.25065(12) 0.60570(9) -0.60812(14)
S2 S 0.20725(12) 0.84057(9) 0.67729(14)
N1 N 0.4430(3) 0.7603(3) 0.0526(4)
N2 N 0.5616(3) 0.7920(2) 0.0415(5)
N3 N 0.4598(3) 0.7995(3) 0.1376(5)
N4 N 0.5130(4) 0.7311(3) -0.0973(5)
N5 N 0.5645(4) 0.8529(3) 0.1980(5)
O1 O 0.2134(3) 0.3091(2) -0.4991(4)
O2 O 0.1750(3) 1.1404(2) 0.5720(4)
O3 O 0.3445(3) 0.7041(2) -0.1221(4)
O4 O 0.3158(3) 0.7524(2) 0.1947(4)
O5 O 0.2209(3) 0.6948(2) -0.1078(4)
O6 O 0.1916(3) 0.7492(2) 0.1743(4)
O7 O 0.3359(3) 0.3100(2) -0.5266(4)
O8 O 0.2982(3) 1.1331(2) 0.5830(4)
O9 O 0.1773(3) 0.6202(2) -0.6444(4)
O10 O 0.3133(3) 0.6249(2) -0.6689(4)
O11 O 0.1318(3) 0.8271(2) 0.7110(4)
O12 O 0.2685(3) 0.8206(2) 0.7406(4)
C1 C 0.2811(4) 0.6931(3) -0.1591(5)
C2 C 0.2744(4) 0.6730(3) -0.2725(5)
C3 C 0.2050(4) 0.6673(4) -0.3183(6)
H1 H 0.1627 0.6767 -0.2792
C4 C 0.1976(4) 0.6479(4) -0.4209(6)
H2 H 0.1508 0.6437 -0.4512
C5 C 0.2607(4) 0.6348(3) -0.4784(7)
C6 C 0.3314(4) 0.6408(4) -0.4344(6)
H3 H 0.3737 0.6316 -0.4736
C7 C 0.3373(4) 0.6608(4) -0.3313(6)
H4 H 0.3840 0.6660 -0.3011
C8 C 0.2572(5) 0.5251(3) -0.5885(6)
C9 C 0.1931(4) 0.4936(3) -0.5624(6)
H5 H 0.1476 0.5136 -0.5572
C10 C 0.1987(4) 0.4310(3) -0.5442(6)
H6 H 0.1562 0.4085 -0.5282
C11 C 0.2664(4) 0.4021(3) -0.5495(5)
C12 C 0.3307(4) 0.4354(3) -0.5759(6)
H7 H 0.3765 0.4156 -0.5805
C13 C 0.3258(4) 0.4977(3) -0.5950(6)
H8 H 0.3680 0.5204 -0.6118
C14 C 0.2725(4) 0.3354(3) -0.5240(5)
C15 C 0.2500(4) 0.7573(3) 0.2273(6)
C16 C 0.2385(4) 0.7756(3) 0.3415(5)
C17 C 0.2990(5) 0.7828(4) 0.4069(6)
H9 H 0.3469 0.7764 0.3812
C18 C 0.2880(5) 0.7999(4) 0.5122(6)
H10 H 0.3284 0.8032 0.5578
C19 C 0.2186(4) 0.8115(3) 0.5472(6)
C20 C 0.1568(5) 0.8039(4) 0.4834(6)
H11 H 0.1091 0.8109 0.5094
C21 C 0.1674(4) 0.7855(4) 0.3798(6)
H12 H 0.1266 0.7798 0.3358
C22 C 0.2151(5) 0.9203(3) 0.6582(5)
C23 C 0.2838(5) 0.9484(4) 0.6664(6)
H13 H 0.3254 0.9259 0.6862
C24 C 0.2901(4) 1.0105(3) 0.6450(6)
H14 H 0.3363 1.0297 0.6497
C25 C 0.2277(4) 1.0441(3) 0.6166(6)
C26 C 0.1594(5) 1.0156(4) 0.6107(8)
H15 H 0.1174 1.0383 0.5928
C27 C 0.1525(5) 0.9537(4) 0.6310(8)
H16 H 0.1063 0.9346 0.6264
C28 C 0.2345(4) 1.1114(3) 0.5889(5)
C29 C 0.5058(4) 0.7592(3) -0.0021(5)
C30 C 0.5306(4) 0.8162(3) 0.1300(6)
H17 H 0.562(6) 0.719(5) -0.114(8)
H18 H 0.474(6) 0.711(5) -0.104(9)
H19 H 0.549(6) 0.862(5) 0.265(8)
H20 H 0.6116(11) 0.857(5) 0.199(8)
Co1B Co 0.16270(5) 0.22967(4) -0.46572(8)
Co1B_2 Co 0.16270(5) 1.22967(4) 0.53428(8)
Co2B Co 0.32582(5) 0.22165(4) -0.47373(8)
Co2B_2 Co 0.32582(5) 1.22165(4) 0.52627(8)
Co2C Co 0.67418(5) 0.77835(4) 0.02627(8)
N2C N 0.0616(3) 0.7080(2) 0.0415(5)
O1B O 0.2866(3) 0.8091(2) 0.0009(4)
O2B O 0.3250(3) 0.6404(2) 0.0720(4)
O7B O 0.1641(3) 0.8100(2) -0.0266(4)
O8B O 0.2018(3) 0.6331(2) 0.0830(4)
S3 S 0.99245(12) 0.46767(10) 0.32747(17)
O13 O 0.6719(5) 0.5990(5) 0.1994(6)
H21 H 0.6831 0.6299 0.2327
O14 O 0.6277(5) 0.5249(6) 0.2986(12)
O15 O 1.0213(4) 0.2400(3) -0.0215(6)
H22 H 1.0236 0.2202 -0.0765
O16 O 1.0281(4) 0.3192(4) -0.1315(5)
O17 O 0.9998(3) 0.4342(3) 0.4241(4)
O18 O 1.0405(3) 0.5196(3) 0.3079(5)
C31 C 0.6779(7) 0.5498(6) 0.2626(11)
C32 C 0.7574(5) 0.5307(5) 0.2813(8)
C33 C 0.7705(5) 0.4794(5) 0.3413(8)
H23 H 0.7305 0.4583 0.3704
C34 C 0.8424(5) 0.4585(4) 0.3592(7)
H24 H 0.8516 0.4234 0.3988
C35 C 0.9003(5) 0.4928(4) 0.3147(6)
C36 C 0.8879(5) 0.5448(4) 0.2541(7)
H25 H 0.9276 0.5663 0.2249
C37 C 0.8146(5) 0.5641(5) 0.2378(8)
H26 H 0.8047 0.5990 0.1981
C38 C 1.0016(4) 0.4163(4) 0.2205(7)
C39 C 1.0022(5) 0.3543(4) 0.2384(7)
H27 H 0.9990 0.3391 0.3068
C40 C 1.0076(5) 0.3146(4) 0.1539(7)
H28 H 1.0070 0.2725 0.1649
C41 C 1.0139(4) 0.3384(4) 0.0511(7)
C42 C 1.0135(4) 0.4004(4) 0.0360(7)
H29 H 1.0171 0.4159 -0.0323
C43 C 1.0081(5) 0.4394(4) 0.1176(7)
H30 H 1.0086 0.4815 0.1059
C44 C 1.0210(5) 0.2988(6) -0.0437(9)
O19 O 0.0367(4) 1.0959(3) 0.4788(6)
H31 H 0.0644 1.1133 0.4334
H32 H 0.0056 1.0729 0.4476
O20 O 0.0026(3) 0.8918(3) 0.7738(6)
H33 H -0.0182 0.9244 0.7521
H34 H 0.0129 0.8690 0.7214
O21 O 0.5474(2) 0.6435(2) 0.1386(4)
H35 H 0.5943 0.6445 0.1307
H36 H 0.5350 0.6103 0.1688
H37 H 0.5153(15) 0.6713(15) 0.107(2)
O22 O 0.5026(3) 0.5671(2) 0.4167(4)
H38 H 0.4973 0.5787 0.3531
H39 H 0.5306 0.5357 0.4187
O23 O 0.5417(2) 0.4831(2) 0.1236(5)
H40 H 0.5603 0.5171 0.1429
H41 H 0.5159 0.4884 0.0681
O24 O 1.0432(3) 0.1692(3) -0.1890(6)
H42 H 1.0828 0.1546 -0.2158
H43 H 1.0088 0.1691 -0.2351
loop_
_geom_bond_atom_site_label_1
_geom_bond_atom_site_label_2
_geom_bond_site_symmetry_1
_geom_bond_site_symmetry_2
Co1 N1 1_555 1_555
Co2 O5 1_555 1_555
S1 O9 1_555 1_555
S2 O11 1_555 1_555
N1 N3 1_555 1_555
N2 C29 1_555 1_555
N3 C30 1_555 1_555
N4 C29 1_555 1_555
N5 C30 1_555 1_555
O1 C14 1_555 1_555
O2 C28 1_555 1_555
O3 Co1 1_555 1_555
O4 Co1 1_555 1_555
O5 C1 1_555 1_555
O6 Co2 1_555 1_555
O7 C14 1_555 1_555
O8 C28 1_555 1_555
O10 S1 1_555 1_555
O12 S2 1_555 1_555
C1 O3 1_555 1_555
C2 C1 1_555 1_555
C3 C2 1_555 1_555
H1 C3 1_555 1_555
C4 C3 1_555 1_555
H2 C4 1_555 1_555
C5 S1 1_555 1_555
C6 C5 1_555 1_555
H3 C6 1_555 1_555
C7 C2 1_555 1_555
H4 C7 1_555 1_555
C8 S1 1_555 1_555
C9 C8 1_555 1_555
H5 C9 1_555 1_555
C10 C9 1_555 1_555
H6 C10 1_555 1_555
C11 C10 1_555 1_555
C12 C11 1_555 1_555
H7 C12 1_555 1_555
C13 C8 1_555 1_555
H8 C13 1_555 1_555
C14 C11 1_555 1_555
C15 O4 1_555 1_555
C16 C15 1_555 1_555
C17 C16 1_555 1_555
H9 C17 1_555 1_555
C18 C17 1_555 1_555
H10 C18 1_555 1_555
C19 S2 1_555 1_555
C20 C19 1_555 1_555
H11 C20 1_555 1_555
C21 C16 1_555 1_555
H12 C21 1_555 1_555
C22 S2 1_555 1_555
C23 C22 1_555 1_555
H13 C23 1_555 1_555
C24 C23 1_555 1_555
H14 C24 1_555 1_555
C25 C24 1_555 1_555
C26 C25 1_555 1_555
H15 C26 1_555 1_555
C27 C22 1_555 1_555
H16 C27 1_555 1_555
C28 C25 1_555 1_555
C29 N1 1_555 1_555
C30 N2 1_555 1_555
H17 N4 1_555 1_555
H18 N4 1_555 1_555
H19 N5 1_555 1_555
H20 N5 1_555 1_555
S3 O17 1_555 1_555
O13 H21 1_555 1_555
O14 C31 1_555 1_555
O15 H22 1_555 1_555
O16 C44 1_555 1_555
O18 S3 1_555 1_555
C31 O13 1_555 1_555
C32 C31 1_555 1_555
C33 C32 1_555 1_555
H23 C33 1_555 1_555
C34 C33 1_555 1_555
H24 C34 1_555 1_555
C35 S3 1_555 1_555
C36 C35 1_555 1_555
H25 C36 1_555 1_555
C37 C32 1_555 1_555
H26 C37 1_555 1_555
C38 S3 1_555 1_555
C39 C38 1_555 1_555
H27 C39 1_555 1_555
C40 C39 1_555 1_555
H28 C40 1_555 1_555
C41 C40 1_555 1_555
C42 C41 1_555 1_555
H29 C42 1_555 1_555
C43 C38 1_555 1_555
H30 C43 1_555 1_555
C44 O15 1_555 1_555
O19 H31 1_555 1_555
H32 O19 1_555 1_555
O20 H33 1_555 1_555
H34 O20 1_555 1_555
O21 H35 1_555 1_555
H36 O21 1_555 1_555
H37 O21 1_555 1_555
O22 H38 1_555 1_555
H39 O22 1_555 1_555
O23 H40 1_555 1_555
H41 O23 1_555 1_555
O24 H42 1_555 1_555
H43 O24 1_555 1_555
Co1B O1 1_555 1_555
Co1B_2 O2 1_555 1_555
Co2B O7 1_555 1_555
Co2B_2 O8 1_555 1_555
Co2C N2 1_555 1_555
N2C Co2 1_555 1_555
O1B Co1 1_555 1_555
O2B Co1 1_555 1_555
O7B Co2 1_555 1_555
O8B Co2 1_555 1_555
O6 C15 1_555 1_555
C4 C5 1_555 1_555
C6 C7 1_555 1_555
C12 C13 1_555 1_555
C18 C19 1_555 1_555
C20 C21 1_555 1_555
C26 C27 1_555 1_555
C34 C35 1_555 1_555
C36 C37 1_555 1_555
C41 C44 1_555 1_555
C42 C43 1_555 1_555

#END
