
#######################################################################
#
#                 Cambridge Crystallographic Data Centre
#                                CCDC 
#
#######################################################################
#
# If this CIF has been generated from an entry in the Cambridge 
# Structural Database, then it will include bibliographic, chemical, 
# crystal, experimental, refinement or atomic coordinate data resulting 
# from the CCDC's data processing and validation procedures.
#
#######################################################################

data_IBACAS
_chemical_formula_moiety         '(C48 H45 Co2 N5 O21 S3)n'
_symmetry_cell_setting           orthorhombic
_symmetry_space_group_name_H-M   'P n a 21'
_symmetry_Int_Tables_number      33
_space_group_name_Hall           'P 2c -2n'
loop_
_symmetry_equiv_pos_site_id
_symmetry_equiv_pos_as_xyz
1 x,y,z
2 -x,-y,1/2+z
3 1/2-x,1/2+y,1/2+z
4 1/2+x,1/2-y,z
_cell_length_a                   18.0156(15)
_cell_length_b                   21.7598(18)
_cell_length_c                   12.7070(11)
_cell_angle_alpha                90
_cell_angle_beta                 90
_cell_angle_gamma                90
_cell_volume                     4981.35
loop_
_atom_site_label
_atom_site_type_symbol
_atom_site_fract_x
_atom_site_fract_y
_atom_site_fract_z
Co1 Co 0.33485(9) 0.73629(7) 0.03861(16)
Co2 Co 0.17260(9) 0.72688(7) 0.03151(16)
N1 N 0.4404(6) 0.7665(5) 0.0524(9)
O1 O 0.3403(5) 0.7097(4) -0.1167(7)
O2 O 0.3140(5) 0.7612(4) 0.1986(7)
O3 O 0.2197(5) 0.3133(4) -0.4954(7)
O4 O 0.1752(5) 1.1483(4) 0.5815(7)
O5 O 0.2172(5) 0.7009(4) -0.1040(7)
O6 O 0.1900(5) 0.7517(4) 0.1809(8)
N2 N 0.5619(6) 0.7912(4) 0.0464(9)
O7 O 0.3419(5) 0.3165(4) -0.5205(7)
O8 O 0.2987(5) 1.1378(4) 0.5852(7)
N3 N 0.4584(6) 0.8054(5) 0.1374(9)
C1 C 0.5032(7) 0.7614(6) 0.0017(10)
C2 C 0.2764(8) 0.6988(6) -0.1556(10)
C3 C 0.2497(8) 0.7631(6) 0.2329(10)
C4 C 0.5310(8) 0.8177(7) 0.1310(12)
N4 N 0.5085(6) 0.7295(5) -0.0901(9)
C5 C 0.2694(8) 0.6795(6) -0.2691(10)
C6 C 0.2355(8) 0.7823(6) 0.3451(10)
N5 N 0.5668(6) 0.8534(5) 0.1996(9)
H1 H 0.4698 0.7121 -0.1162
H2 H 0.5504 0.7268 -0.1220
C7 C 0.2032(8) 0.6634(7) -0.3080(12)
C8 C 0.3309(10) 0.6749(9) -0.3315(13)
C9 C 0.2948(9) 0.7987(10) 0.4102(13)
C10 C 0.1664(9) 0.7824(7) 0.3862(11)
H3 H 0.5430 0.8698 0.2511
H4 H 0.6135 0.8599 0.1923
H5 H 0.1616 0.6642 -0.2648
C11 C 0.1963(9) 0.6458(8) -0.4104(13)
C12 C 0.3258(9) 0.6568(7) -0.4350(10)
H6 H 0.3772 0.6843 -0.3035
H7 H 0.3428 0.7966 0.3837
C13 C 0.2846(10) 0.8174(7) 0.5106(11)
C14 C 0.1562(10) 0.8012(7) 0.4902(12)
H8 H 0.1261 0.7701 0.3457
H9 H 0.1496 0.6364 -0.4369
C15 C 0.2564(8) 0.6416(7) -0.4747(12)
H10 H 0.3678 0.6547 -0.4773
H11 H 0.3246 0.8297 0.5518
C16 C 0.2133(9) 0.8178(7) 0.5504(12)
H12 H 0.1085 0.8022 0.5181
S1 S 0.2476(3) 0.61212(15) -0.6022(3)
S2 S 0.1999(3) 0.84617(16) 0.6804(3)
O9 O 0.1728(7) 0.6237(5) -0.6376(8)
O10 O 0.3091(7) 0.6343(5) -0.6631(8)
C17 C 0.2581(9) 0.5319(6) -0.5844(11)
O11 O 0.1242(7) 0.8324(4) 0.7115(8)
O12 O 0.2602(7) 0.8261(4) 0.7449(7)
C18 C 0.2078(9) 0.9264(6) 0.6624(11)
C19 C 0.1941(8) 0.4982(6) -0.5614(11)
C20 C 0.3266(9) 0.5049(6) -0.5869(11)
C21 C 0.2771(9) 0.9552(6) 0.6726(11)
C22 C 0.1495(10) 0.9606(7) 0.6354(14)
H13 H 0.1480 0.5172 -0.5587
C23 C 0.2011(8) 0.4344(6) -0.5423(11)
C24 C 0.3335(8) 0.4427(7) -0.5696(11)
H14 H 0.3686 0.5286 -0.6003
H15 H 0.3186 0.9325 0.6926
C25 C 0.2833(8) 1.0159(7) 0.6531(11)
C26 C 0.1550(9) 1.0240(7) 0.6150(13)
H16 H 0.1032 0.9418 0.6299
H17 H 0.1596 0.4104 -0.5279
C27 C 0.2713(8) 0.4085(7) -0.5454(11)
H18 H 0.3797 0.4238 -0.5742
H19 H 0.3295 1.0343 0.6606
C28 C 0.2253(8) 1.0511(6) 0.6233(11)
H20 H 0.1136 1.0471 0.5966
C29 C 0.2787(8) 0.3413(7) -0.5198(11)
C30 C 0.2339(8) 1.1179(6) 0.5961(10)
Co1B Co 0.16515(9) 0.23629(7) -0.46139(16)
Co1B_2 Co 0.16515(9) 1.23629(7) 0.53861(16)
Co2B Co 0.32740(9) 0.22688(7) -0.46849(16)
Co2B_2 Co 0.32740(9) 1.22688(7) 0.53151(16)
Co2C Co 0.67260(9) 0.77312(7) 0.03151(16)
O3B O 0.2803(5) 0.8133(4) 0.0046(7)
O4B O 0.3248(5) 0.6483(4) 0.0815(7)
N2C N 0.0619(6) 0.7088(4) 0.0464(9)
O7B O 0.1581(5) 0.8165(4) -0.0205(7)
O8B O 0.2013(5) 0.6378(4) 0.0852(7)
S3 S 0.9951(3) 0.4647(2) 0.3265(4)
O13 O 0.6735(9) 0.5958(8) 0.2081(15)
H21 H 0.6302 0.5928 0.1887
O14 O 0.6400(12) 0.5454(12) 0.350(2)
O15 O 1.0225(8) 0.2459(9) -0.0272(13)
H22 H 1.0284 0.2253 -0.0805
O16 O 1.0299(9) 0.3249(9) -0.1362(12)
O17 O 1.0038(7) 0.4296(5) 0.4234(9)
O18 O 1.0441(7) 0.5160(6) 0.3096(11)
C31 C 0.6865(14) 0.5554(16) 0.284(2)
C32 C 0.7617(12) 0.5364(10) 0.2938(15)
C33 C 0.7781(13) 0.4823(14) 0.3586(16)
H23 H 0.7395 0.4614 0.3914
C34 C 0.8484(11) 0.4625(9) 0.3711(14)
H24 H 0.8593 0.4293 0.4146
C35 C 0.9049(10) 0.4936(8) 0.3163(13)
C36 C 0.8888(10) 0.5415(8) 0.2492(13)
H25 H 0.9263 0.5610 0.2118
C37 C 0.8180(12) 0.5595(10) 0.2388(15)
H26 H 0.8076 0.5901 0.1899
C38 C 1.0036(10) 0.4148(10) 0.2177(15)
C39 C 0.9982(11) 0.3515(9) 0.2345(17)
H27 H 0.9899 0.3360 0.3017
C40 C 1.0058(10) 0.3110(11) 0.1471(16)
H28 H 1.0047 0.2685 0.1552
C41 C 1.0150(9) 0.3391(10) 0.0464(15)
C42 C 1.0186(10) 0.4016(9) 0.0350(16)
H29 H 1.0235 0.4191 -0.0315
C43 C 1.0151(11) 0.4376(10) 0.1214(14)
H30 H 1.0209 0.4799 0.1136
C44 C 1.0253(12) 0.3013(17) -0.050(2)
O19 O 0.5446(10) 0.6352(8) 0.1315(14)
O20 O -0.049(7) 0.956(4) 0.695(5)
H31 H -0.0362 0.9349 0.6450
C45 C -0.037(3) 0.922(2) 0.795(4)
H32 H -0.0606 0.8823 0.7842
H33 H 0.0160 0.9136 0.7981
C46 C -0.057(5) 0.939(2) 0.902(5)
H34 H -0.0422 0.9075 0.9496
H35 H -0.0321 0.9769 0.9198
H36 H -0.1097 0.9452 0.9058
O21 O 1.0490(9) 0.1769(7) -0.2092(15)
H37 H 1.0876 0.1746 -0.1752
C47 C 0.9941(15) 0.1364(14) -0.164(2)
H38 H 0.9732 0.1154 -0.2247
H39 H 0.9555 0.1639 -0.1398
C48 C 0.9972(16) 0.0877(16) -0.081(3)
H40 H 0.9487 0.0701 -0.0721
H41 H 1.0314 0.0562 -0.1022
H42 H 1.0134 0.1055 -0.0160
loop_
_geom_bond_atom_site_label_1
_geom_bond_atom_site_label_2
_geom_bond_site_symmetry_1
_geom_bond_site_symmetry_2
Co1 N1 1_555 1_555
Co2 O5 1_555 1_555
N1 N3 1_555 1_555
O1 Co1 1_555 1_555
O2 Co1 1_555 1_555
O3 C29 1_555 1_555
O4 C30 1_555 1_555
O5 C2 1_555 1_555
O6 Co2 1_555 1_555
N2 C1 1_555 1_555
O7 C29 1_555 1_555
O8 C30 1_555 1_555
N3 C4 1_555 1_555
C1 N1 1_555 1_555
C2 O1 1_555 1_555
C3 O2 1_555 1_555
C4 N2 1_555 1_555
N4 C1 1_555 1_555
C5 C2 1_555 1_555
C6 C3 1_555 1_555
N5 C4 1_555 1_555
H1 N4 1_555 1_555
H2 N4 1_555 1_555
C7 C5 1_555 1_555
C8 C5 1_555 1_555
C9 C6 1_555 1_555
C10 C6 1_555 1_555
H3 N5 1_555 1_555
H4 N5 1_555 1_555
H5 C7 1_555 1_555
C11 C7 1_555 1_555
C12 C8 1_555 1_555
H6 C8 1_555 1_555
H7 C9 1_555 1_555
C13 C9 1_555 1_555
C14 C10 1_555 1_555
H8 C10 1_555 1_555
H9 C11 1_555 1_555
C15 C11 1_555 1_555
H10 C12 1_555 1_555
H11 C13 1_555 1_555
C16 C13 1_555 1_555
H12 C14 1_555 1_555
S1 C15 1_555 1_555
S2 C16 1_555 1_555
O9 S1 1_555 1_555
O10 S1 1_555 1_555
C17 S1 1_555 1_555
O11 S2 1_555 1_555
O12 S2 1_555 1_555
C18 S2 1_555 1_555
C19 C17 1_555 1_555
C20 C17 1_555 1_555
C21 C18 1_555 1_555
C22 C18 1_555 1_555
H13 C19 1_555 1_555
C23 C19 1_555 1_555
C24 C20 1_555 1_555
H14 C20 1_555 1_555
H15 C21 1_555 1_555
C25 C21 1_555 1_555
C26 C22 1_555 1_555
H16 C22 1_555 1_555
H17 C23 1_555 1_555
C27 C23 1_555 1_555
H18 C24 1_555 1_555
H19 C25 1_555 1_555
C28 C25 1_555 1_555
H20 C26 1_555 1_555
C29 C27 1_555 1_555
C30 C28 1_555 1_555
S3 O17 1_555 1_555
O13 H21 1_555 1_555
O14 C31 1_555 1_555
O15 H22 1_555 1_555
O16 C44 1_555 1_555
O18 S3 1_555 1_555
C31 O13 1_555 1_555
C32 C31 1_555 1_555
C33 C32 1_555 1_555
H23 C33 1_555 1_555
C34 C33 1_555 1_555
H24 C34 1_555 1_555
C35 S3 1_555 1_555
C36 C35 1_555 1_555
H25 C36 1_555 1_555
C37 C32 1_555 1_555
H26 C37 1_555 1_555
C38 S3 1_555 1_555
C39 C38 1_555 1_555
H27 C39 1_555 1_555
C40 C39 1_555 1_555
H28 C40 1_555 1_555
C41 C40 1_555 1_555
C42 C41 1_555 1_555
H29 C42 1_555 1_555
C43 C38 1_555 1_555
H30 C43 1_555 1_555
C44 O15 1_555 1_555
O20 H31 1_555 1_555
C45 O20 1_555 1_555
H32 C45 1_555 1_555
H33 C45 1_555 1_555
C46 C45 1_555 1_555
H34 C46 1_555 1_555
H35 C46 1_555 1_555
H36 C46 1_555 1_555
O21 H37 1_555 1_555
C47 O21 1_555 1_555
H38 C47 1_555 1_555
H39 C47 1_555 1_555
C48 C47 1_555 1_555
H40 C48 1_555 1_555
H41 C48 1_555 1_555
H42 C48 1_555 1_555
Co1B O3 1_555 1_555
Co1B_2 O4 1_555 1_555
Co2B O7 1_555 1_555
Co2B_2 O8 1_555 1_555
Co2C N2 1_555 1_555
O3B Co1 1_555 1_555
O4B Co1 1_555 1_555
N2C Co2 1_555 1_555
O7B Co2 1_555 1_555
O8B Co2 1_555 1_555
O6 C3 1_555 1_555
C12 C15 1_555 1_555
C14 C16 1_555 1_555
C24 C27 1_555 1_555
C26 C28 1_555 1_555
C34 C35 1_555 1_555
C36 C37 1_555 1_555
C41 C44 1_555 1_555
C42 C43 1_555 1_555

#END
