
#######################################################################
#
#                 Cambridge Crystallographic Data Centre
#                                CCDC 
#
#######################################################################
#
# If this CIF has been generated from an entry in the Cambridge 
# Structural Database, then it will include bibliographic, chemical, 
# crystal, experimental, refinement or atomic coordinate data resulting 
# from the CCDC's data processing and validation procedures.
#
#######################################################################

data_GADHIF
_chemical_formula_moiety         '(C62 H44 N14 O13 Zn2)n'
_symmetry_cell_setting           monoclinic
_symmetry_space_group_name_H-M   'C 2/c'
_symmetry_Int_Tables_number      15
_space_group_name_Hall           '-C 2yc'
loop_
_symmetry_equiv_pos_site_id
_symmetry_equiv_pos_as_xyz
1 x,y,z
2 -x,y,1/2-z
3 1/2+x,1/2+y,z
4 1/2-x,1/2+y,1/2-z
5 -x,-y,-z
6 x,-y,1/2+z
7 1/2-x,1/2-y,-z
8 1/2+x,1/2-y,1/2+z
_cell_length_a                   30.8851(18)
_cell_length_b                   17.4665(10)
_cell_length_c                   20.3272(14)
_cell_angle_alpha                90
_cell_angle_beta                 127.705(6)
_cell_angle_gamma                90
_cell_volume                     8675.66
loop_
_atom_site_label
_atom_site_type_symbol
_atom_site_fract_x
_atom_site_fract_y
_atom_site_fract_z
_atom_site_U_iso_or_equiv
_atom_site_thermal_displace_type
C1 C 0.3300(3) 0.9261(4) 0.5864(5) 0.0614 Uani
C2 C 0.3041(3) 1.0020(3) 0.5582(5) 0.0914 Uani
C3 C 0.2630(5) 1.0172(4) 0.4745(5) 0.3255 Uani
H1 H 0.2499 0.9782 0.4355 0.3920 Uiso
C4 C 0.2415(5) 1.0906(5) 0.4493(5) 0.4401 Uani
H2 H 0.2141 1.1008 0.3934 0.5290 Uiso
C5 C 0.2612(4) 1.1488(3) 0.5077(6) 0.1477 Uani
C6 C 0.3022(5) 1.1337(4) 0.5914(6) 0.1470 Uani
H3 H 0.3153 1.1726 0.6304 0.1780 Uiso
C7 C 0.3237(4) 1.0602(4) 0.6166(4) 0.1381 Uani
H4 H 0.3512 1.0501 0.6725 0.1660 Uiso
C8 C 0.3949(3) 0.7062(4) 0.7022(5) 0.0601 Uani
C9 C 0.4182(3) 0.6537(4) 0.7741(5) 0.0514 Uani
C10 C 0.4720(2) 0.6288(4) 0.8229(4) 0.0492 Uani
H5 H 0.4948 0.6450 0.8103 0.0590 Uiso
C11 C 0.4923(3) 0.5812(4) 0.8888(5) 0.0570 Uani
H6 H 0.5283 0.5644 0.9198 0.0690 Uiso
C12 C 0.4595(3) 0.5576(5) 0.9099(7) 0.0942 Uani
C13 C 0.4051(4) 0.5791(8) 0.8621(9) 0.1605 Uani
H7 H 0.3825 0.5629 0.8752 0.1930 Uiso
C14 C 0.3851(4) 0.6262(7) 0.7934(9) 0.1465 Uani
H8 H 0.3483 0.6396 0.7594 0.1760 Uiso
C15 C 0.5582(3) 1.0616(5) 0.6153(5) 0.0689 Uani
C16 C 0.4205(3) 0.9211(5) 0.5498(5) 0.0845 Uani
H9 H 0.3842 0.9363 0.5117 0.1020 Uiso
C17 C 0.4592(3) 0.9675(5) 0.5599(6) 0.0933 Uani
H10 H 0.4494 1.0124 0.5292 0.1110 Uiso
C18 C 0.5140(3) 0.9466(4) 0.6174(4) 0.0505 Uani
C19 C 0.5254(2) 0.8761(3) 0.6590(3) 0.0341 Uani
H11 H 0.5612 0.8587 0.6960 0.0410 Uiso
C20 C 0.4832(2) 0.8338(3) 0.6442(3) 0.0325 Uani
H12 H 0.4915 0.7879 0.6730 0.0390 Uiso
C21 C 0.7538(3) 1.0227(5) 0.8046(7) 0.0878 Uani
C22 C 0.6148(4) 1.0906(5) 0.6510(6) 0.0811 Uani
C23 C 0.6204(4) 1.1633(7) 0.6296(9) 0.1327 Uani
H13 H 0.5901 1.1930 0.5908 0.1600 Uiso
C24 C 0.6742(5) 1.1903(8) 0.6696(11) 0.1570 Uani
H14 H 0.6803 1.2399 0.6604 0.1880 Uiso
C25 C 0.7179(4) 1.1414(7) 0.7229(9) 0.1277 Uani
H15 H 0.7534 1.1559 0.7448 0.1530 Uiso
C26 C 0.7082(4) 1.0714(5) 0.7431(7) 0.0822 Uani
C27 C 0.8553(3) 0.8411(5) 0.9887(9) 0.1180 Uani
H16 H 0.8931 0.8450 1.0288 0.1420 Uiso
C28 C 0.8292(3) 0.8993(5) 0.9308(8) 0.1108 Uani
H17 H 0.8490 0.9395 0.9312 0.1330 Uiso
C29 C 0.7727(3) 0.8963(4) 0.8722(6) 0.0710 Uani
C30 C 0.7466(2) 0.8331(4) 0.8746(5) 0.0516 Uani
H18 H 0.7088 0.8285 0.8359 0.0620 Uiso
C31 C 0.7758(2) 0.7777(4) 0.9335(4) 0.0466 Uani
H19 H 0.7571 0.7361 0.9338 0.0560 Uiso
N1 N 0.43023(19) 0.8544(3) 0.5905(3) 0.0501 Uani
N2 N 0.5586(2) 0.9878(3) 0.6371(4) 0.0540 Uani
N3 N 0.7398(2) 0.9510(4) 0.8111(5) 0.0707 Uani
N4 N 0.8313(2) 0.7807(3) 0.9919(5) 0.0673 Uani
N5 N 0.6568(2) 1.0449(3) 0.7047(4) 0.0569 Uani
N6 N 0.2387(8) 1.2253(5) 0.4799(14) 0.2112 Uani
N7 N 0.4752(3) 0.5063(5) 0.9776(6) 0.1006 Uani
O1 O 0.42607(18) 0.7260(3) 0.6846(3) 0.0632 Uani
O2 O 0.3458(3) 0.7252(4) 0.6579(5) 0.1017 Uani
O3 O 0.3673(2) 0.9139(3) 0.6613(3) 0.0666 Uani
O4 O 0.3134(2) 0.8782(3) 0.5312(4) 0.0711 Uani
O5 O 0.5182(2) 1.1026(3) 0.5727(4) 0.0880 Uani
O6 O 0.8014(2) 1.0492(4) 0.8551(6) 0.1174 Uani
Zn1 Zn 0.37006(3) 0.79669(4) 0.58608(5) 0.0603 Uani
H20 H 0.7075 0.9355 0.7730 0.0910 Uiso
H21 H 0.5832 0.9576 0.6460 0.0910 Uiso
C1F C 0.1700(3) 1.5739(4) 0.4136(5) 0.0614 Uani
C2F C 0.1959(3) 1.4980(3) 0.4418(5) 0.0914 Uani
C3F C 0.2370(5) 1.4828(4) 0.5255(5) 0.3255 Uani
H1F H 0.2501 1.5218 0.5645 0.3920 Uiso
C4F C 0.2585(5) 1.4094(5) 0.5507(5) 0.4401 Uani
H2F H 0.2859 1.3992 0.6066 0.5290 Uiso
C5F C 0.2388(4) 1.3512(3) 0.4923(6) 0.1477 Uani
C6F C 0.1978(5) 1.3663(4) 0.4086(6) 0.1470 Uani
H3F H 0.1847 1.3274 0.3696 0.1780 Uiso
C7F C 0.1763(4) 1.4398(4) 0.3834(4) 0.1381 Uani
H4F H 0.1488 1.4499 0.3275 0.1660 Uiso
N6F N 0.2613(8) 1.2747(5) 0.5201(14) 0.2112 Uani
O3F O 0.1327(2) 1.5861(3) 0.3387(3) 0.0666 Uani
O4F O 0.1866(2) 1.6218(3) 0.4688(4) 0.0711 Uani
C8D C 0.6051(3) 0.2938(4) 1.2978(5) 0.0601 Uani
C9D C 0.5818(3) 0.3463(4) 1.2259(5) 0.0514 Uani
C10D C 0.5280(2) 0.3712(4) 1.1771(4) 0.0492 Uani
H5D H 0.5052 0.3550 1.1897 0.0590 Uiso
C11D C 0.5077(3) 0.4188(4) 1.1112(5) 0.0570 Uani
H6D H 0.4717 0.4356 1.0802 0.0690 Uiso
C12D C 0.5405(3) 0.4424(5) 1.0901(7) 0.0942 Uani
C13D C 0.5949(4) 0.4209(8) 1.1379(9) 0.1605 Uani
H7D H 0.6175 0.4371 1.1248 0.1930 Uiso
C14D C 0.6149(4) 0.3738(7) 1.2066(9) 0.1465 Uani
H8D H 0.6517 0.3604 1.2406 0.1760 Uiso
N7D N 0.5248(3) 0.4937(5) 1.0224(6) 0.1006 Uani
O1D O 0.57393(18) 0.2740(3) 1.3154(3) 0.0632 Uani
O2D O 0.6542(3) 0.2748(4) 1.3421(5) 0.1017 Uani
C15D C 0.4418(3) -0.0616(5) 1.3847(5) 0.0689 Uani
C16D C 0.5795(3) 0.0789(5) 1.4502(5) 0.0845 Uani
H9D H 0.6158 0.0637 1.4883 0.1020 Uiso
C17D C 0.5408(3) 0.0325(5) 1.4401(6) 0.0933 Uani
H10D H 0.5506 -0.0124 1.4708 0.1110 Uiso
C18D C 0.4860(3) 0.0534(4) 1.3826(4) 0.0505 Uani
C19D C 0.4746(2) 0.1239(3) 1.3410(3) 0.0341 Uani
H11D H 0.4388 0.1413 1.3040 0.0410 Uiso
C20D C 0.5168(2) 0.1662(3) 1.3558(3) 0.0325 Uani
H12D H 0.5085 0.2121 1.3270 0.0390 Uiso
C21D C 0.2462(3) -0.0227(5) 1.1954(7) 0.0878 Uani
C22D C 0.3852(4) -0.0906(5) 1.3490(6) 0.0811 Uani
C23D C 0.3796(4) -0.1633(7) 1.3704(9) 0.1327 Uani
H13D H 0.4099 -0.1930 1.4092 0.1600 Uiso
C24D C 0.3258(5) -0.1903(8) 1.3304(11) 0.1570 Uani
H14D H 0.3197 -0.2399 1.3396 0.1880 Uiso
C25D C 0.2821(4) -0.1414(7) 1.2771(9) 0.1277 Uani
H15D H 0.2466 -0.1559 1.2552 0.1530 Uiso
C26D C 0.2918(4) -0.0714(5) 1.2569(7) 0.0822 Uani
C27D C 0.1447(3) 0.1589(5) 1.0113(9) 0.1180 Uani
H16D H 0.1069 0.1550 0.9712 0.1420 Uiso
C28D C 0.1708(3) 0.1007(5) 1.0692(8) 0.1108 Uani
H17D H 0.1510 0.0605 1.0688 0.1330 Uiso
C29D C 0.2273(3) 0.1037(4) 1.1278(6) 0.0710 Uani
C30D C 0.2534(2) 0.1669(4) 1.1254(5) 0.0516 Uani
H18D H 0.2912 0.1715 1.1641 0.0620 Uiso
C31D C 0.2242(2) 0.2223(4) 1.0665(4) 0.0466 Uani
H19D H 0.2429 0.2639 1.0662 0.0560 Uiso
N1D N 0.56977(19) 0.1456(3) 1.4095(3) 0.0501 Uani
N2D N 0.4414(2) 0.0122(3) 1.3629(4) 0.0540 Uani
N3D N 0.2602(2) 0.0490(4) 1.1889(5) 0.0707 Uani
N4D N 0.1687(2) 0.2193(3) 1.0081(5) 0.0673 Uani
N5D N 0.3432(2) -0.0449(3) 1.2953(4) 0.0569 Uani
O5D O 0.4818(2) -0.1026(3) 1.4273(4) 0.0880 Uani
O6D O 0.1986(2) -0.0492(4) 1.1449(6) 0.1174 Uani
Zn1D Zn 0.62994(3) 0.20331(4) 1.41392(5) 0.0603 Uani
H20D H 0.2925 0.0645 1.2270 0.0910 Uiso
H21D H 0.4168 0.0424 1.3540 0.0910 Uiso
N4C N 0.6687(2) 0.2807(3) 1.5081(5) 0.0673 Uani
N4G N 0.3313(2) 0.7193(3) 0.4919(5) 0.0673 Uani
O4D O 0.6866(2) 0.1218(3) 1.4688(4) 0.0711 Uani
Zn1C Zn 0.12994(3) 0.29669(4) 0.91392(5) 0.0603 Uani
Zn1F Zn 0.12994(3) 1.70331(4) 0.41392(5) 0.0603 Uani
Zn1G Zn 0.87006(3) 0.70331(4) 1.08608(5) 0.0603 Uani
O7 O 0.6403(2) 0.8686(4) 0.6811(3) 0.0773 Uani
H22 H 0.6628 0.8416 0.6777 0.0910 Uiso
H23 H 0.6164 0.8688 0.6276 0.0910 Uiso
loop_
_atom_site_aniso_label
_atom_site_aniso_U_11
_atom_site_aniso_U_22
_atom_site_aniso_U_33
_atom_site_aniso_U_23
_atom_site_aniso_U_13
_atom_site_aniso_U_12
C1 0.050(4) 0.045(4) 0.058(5) 0.021(4) 0.017(4) -0.007(3)
C2 0.092(7) 0.057(5) 0.099(7) 0.038(5) 0.045(6) 0.016(5)
C3 0.25(2) 0.051(8) 0.24(2) 0.023(10) -0.073(18) 0.050(10)
C4 0.33(3) 0.044(9) 0.42(4) 0.028(16) -0.04(3) 0.058(14)
C5 0.181(14) 0.034(6) 0.228(17) 0.036(8) 0.125(14) 0.031(7)
C6 0.28(2) 0.074(8) 0.110(9) 0.020(7) 0.131(12) 0.062(10)
C7 0.249(17) 0.059(7) 0.108(9) 0.044(6) 0.110(11) 0.046(9)
C8 0.057(4) 0.043(4) 0.084(5) 0.039(4) 0.045(4) 0.017(3)
C9 0.051(4) 0.046(4) 0.073(5) 0.036(3) 0.046(4) 0.016(3)
C10 0.030(3) 0.046(4) 0.069(4) 0.009(3) 0.029(3) -0.005(3)
C11 0.031(3) 0.038(4) 0.095(6) 0.035(4) 0.035(4) 0.013(3)
C12 0.063(5) 0.089(6) 0.145(9) 0.094(6) 0.071(6) 0.030(5)
C13 0.077(7) 0.211(14) 0.233(15) 0.188(13) 0.115(9) 0.092(8)
C14 0.086(7) 0.183(12) 0.214(13) 0.183(11) 0.114(9) 0.096(8)
C15 0.044(4) 0.081(6) 0.058(5) 0.043(4) 0.019(4) -0.003(4)
C16 0.035(4) 0.075(6) 0.084(6) 0.063(5) 0.006(4) -0.001(4)
C17 0.043(4) 0.077(6) 0.095(6) 0.063(5) 0.009(4) -0.011(4)
C18 0.040(3) 0.062(4) 0.027(3) 0.025(3) 0.009(3) -0.011(3)
C19 0.034(3) 0.038(3) 0.021(3) 0.009(2) 0.012(2) 0.000(2)
C20 0.034(3) 0.030(3) 0.023(3) 0.010(2) 0.012(2) -0.002(2)
C21 0.047(4) 0.058(5) 0.172(10) 0.027(6) 0.074(6) 0.003(4)
C22 0.071(5) 0.067(5) 0.103(7) 0.040(5) 0.052(5) -0.014(4)
C23 0.079(7) 0.108(9) 0.176(12) 0.081(9) 0.060(8) -0.013(6)
C24 0.100(9) 0.115(10) 0.233(17) 0.079(11) 0.090(11) -0.027(8)
C25 0.070(6) 0.113(9) 0.208(14) 0.077(9) 0.089(8) -0.002(6)
C26 0.065(5) 0.071(6) 0.133(8) 0.023(5) 0.072(6) -0.014(4)
C27 0.025(4) 0.049(5) 0.221(13) 0.006(6) 0.045(6) -0.004(3)
C28 0.039(4) 0.049(5) 0.213(13) 0.030(6) 0.061(6) -0.001(4)
C29 0.032(3) 0.047(4) 0.133(8) 0.002(4) 0.050(4) 0.001(3)
C30 0.022(3) 0.041(4) 0.086(5) -0.009(3) 0.030(3) 0.001(3)
C31 0.025(3) 0.034(3) 0.073(5) -0.013(3) 0.026(3) -0.002(2)
N1 0.030(3) 0.048(3) 0.039(3) 0.023(2) 0.004(2) -0.010(2)
N2 0.048(3) 0.050(3) 0.054(3) 0.022(3) 0.026(3) -0.002(3)
N3 0.035(3) 0.055(4) 0.127(6) 0.011(4) 0.052(4) 0.000(3)
N4 0.022(3) 0.043(3) 0.102(5) -0.012(3) 0.020(3) -0.005(2)
N5 0.050(3) 0.053(4) 0.086(4) 0.029(3) 0.051(3) 0.003(3)
N6 0.231(17) 0.043(6) 0.36(3) 0.067(12) 0.181(18) 0.057(10)
N7 0.068(4) 0.117(6) 0.148(7) 0.110(6) 0.082(5) 0.048(4)
O1 0.031(2) 0.072(3) 0.072(3) 0.033(3) 0.024(2) -0.003(2)
O2 0.077(4) 0.110(5) 0.138(6) 0.085(5) 0.076(4) 0.072(4)
O3 0.068(3) 0.066(3) 0.050(3) 0.022(3) 0.028(3) -0.005(3)
O4 0.044(3) 0.046(3) 0.073(4) 0.029(3) 0.010(3) 0.002(2)
O5 0.060(3) 0.070(4) 0.103(5) 0.046(4) 0.034(3) -0.010(3)
O6 0.057(4) 0.081(4) 0.218(9) 0.035(5) 0.086(5) -0.005(3)
Zn1 0.0238(4) 0.0448(5) 0.0707(6) 0.0378(4) 0.0076(4) 0.0021(3)
C1F 0.05 0.045 0.058 0.021 0.017 -0.007
C2F 0.092 0.057 0.099 0.038 0.045 0.016
C3F 0.25 0.051 0.24 0.023 -0.073 0.05
C4F 0.33 0.044 0.42 0.028 -0.04 0.058
C5F 0.181 0.034 0.228 0.036 0.125 0.031
C6F 0.28 0.074 0.11 0.02 0.131 0.062
C7F 0.249 0.059 0.108 0.044 0.11 0.046
N6F 0.231 0.043 0.36 0.067 0.181 0.057
O3F 0.068 0.066 0.05 0.022 0.028 -0.005
O4F 0.044 0.046 0.073 0.029 0.01 0.002
C8D 0.057 0.043 0.084 0.039 0.045 0.017
C9D 0.051 0.046 0.073 0.036 0.046 0.016
C10D 0.03 0.046 0.069 0.009 0.029 -0.005
C11D 0.031 0.038 0.095 0.035 0.035 0.013
C12D 0.063 0.089 0.145 0.094 0.071 0.03
C13D 0.077 0.211 0.233 0.188 0.115 0.092
C14D 0.086 0.183 0.214 0.183 0.114 0.096
N7D 0.068 0.117 0.148 0.11 0.082 0.048
O1D 0.031 0.072 0.072 0.033 0.024 -0.003
O2D 0.077 0.11 0.138 0.085 0.076 0.072
C15D 0.044 0.081 0.058 0.043 0.019 -0.003
C16D 0.035 0.075 0.084 0.063 0.006 -0.001
C17D 0.043 0.077 0.095 0.063 0.009 -0.011
C18D 0.04 0.062 0.027 0.025 0.009 -0.011
C19D 0.034 0.038 0.021 0.009 0.012 0
C20D 0.034 0.03 0.023 0.01 0.012 -0.002
C21D 0.047 0.058 0.172 0.027 0.074 0.003
C22D 0.071 0.067 0.103 0.04 0.052 -0.014
C23D 0.079 0.108 0.176 0.081 0.06 -0.013
C24D 0.1 0.115 0.233 0.079 0.09 -0.027
C25D 0.07 0.113 0.208 0.077 0.089 -0.002
C26D 0.065 0.071 0.133 0.023 0.072 -0.014
C27D 0.025 0.049 0.221 0.006 0.045 -0.004
C28D 0.039 0.049 0.213 0.03 0.061 -0.001
C29D 0.032 0.047 0.133 0.002 0.05 0.001
C30D 0.022 0.041 0.086 -0.009 0.03 0.001
C31D 0.025 0.034 0.073 -0.013 0.026 -0.002
N1D 0.03 0.048 0.039 0.023 0.004 -0.01
N2D 0.048 0.05 0.054 0.022 0.026 -0.002
N3D 0.035 0.055 0.127 0.011 0.052 0
N4D 0.022 0.043 0.102 -0.012 0.02 -0.005
N5D 0.05 0.053 0.086 0.029 0.051 0.003
O5D 0.06 0.07 0.103 0.046 0.034 -0.01
O6D 0.057 0.081 0.218 0.035 0.086 -0.005
Zn1D 0.0238 0.0448 0.0707 0.0378 0.0076 0.0021
N4C 0.022 0.043 0.102 0.012 0.02 0.005
N4G 0.022 0.043 0.102 0.012 0.02 0.005
O4D 0.044 0.046 0.073 0.029 0.01 0.002
Zn1C 0.0238 0.0448 0.0707 -0.0378 0.0076 -0.0021
Zn1F 0.0238 0.0448 0.0707 0.0378 0.0076 0.0021
Zn1G 0.0238 0.0448 0.0707 -0.0378 0.0076 -0.0021
O7 0.075(4) 0.110(5) 0.071(4) -0.012(3) 0.057(3) 0.001(3)
loop_
_geom_bond_atom_site_label_1
_geom_bond_atom_site_label_2
_geom_bond_site_symmetry_1
_geom_bond_site_symmetry_2
C1 C2 1_555 1_555
C2 C3 1_555 1_555
C3 H1 1_555 1_555
C4 C3 1_555 1_555
H2 C4 1_555 1_555
C5 C4 1_555 1_555
C6 C5 1_555 1_555
H3 C6 1_555 1_555
C7 C2 1_555 1_555
H4 C7 1_555 1_555
C8 C9 1_555 1_555
C9 C10 1_555 1_555
C10 H5 1_555 1_555
C11 C10 1_555 1_555
H6 C11 1_555 1_555
C12 C11 1_555 1_555
C13 C12 1_555 1_555
H7 C13 1_555 1_555
C14 C9 1_555 1_555
H8 C14 1_555 1_555
C15 C22 1_555 1_555
C16 H9 1_555 1_555
C17 C16 1_555 1_555
H10 C17 1_555 1_555
C18 C17 1_555 1_555
C19 C18 1_555 1_555
H11 C19 1_555 1_555
C20 C19 1_555 1_555
H12 C20 1_555 1_555
C21 C26 1_555 1_555
C22 C23 1_555 1_555
C23 H13 1_555 1_555
C24 C23 1_555 1_555
H14 C24 1_555 1_555
C25 C24 1_555 1_555
H15 C25 1_555 1_555
C26 C25 1_555 1_555
C27 H16 1_555 1_555
C28 C27 1_555 1_555
H17 C28 1_555 1_555
C29 C28 1_555 1_555
C30 C29 1_555 1_555
H18 C30 1_555 1_555
C31 C30 1_555 1_555
H19 C31 1_555 1_555
N1 C16 1_555 1_555
N2 C15 1_555 1_555
N3 C21 1_555 1_555
N4 C27 1_555 1_555
N5 C22 1_555 1_555
N6 C5 1_555 1_555
N7 C12 1_555 1_555
O1 C8 1_555 1_555
O2 C8 1_555 1_555
O3 C1 1_555 1_555
O4 C1 1_555 1_555
O5 C15 1_555 1_555
O6 C21 1_555 1_555
Zn1 N1 1_555 1_555
H20 N3 1_555 1_555
H21 N2 1_555 1_555
O7 H22 1_555 1_555
H23 O7 1_555 1_555
C1F C2F 1_555 1_555
C2F C3F 1_555 1_555
C3F H1F 1_555 1_555
C4F C3F 1_555 1_555
H2F C4F 1_555 1_555
C5F C4F 1_555 1_555
C6F C5F 1_555 1_555
H3F C6F 1_555 1_555
C7F C2F 1_555 1_555
H4F C7F 1_555 1_555
N6F N6 1_555 1_555
O3F C1F 1_555 1_555
O4F C1F 1_555 1_555
C8D C9D 1_555 1_555
C9D C10D 1_555 1_555
C10D H5D 1_555 1_555
C11D C10D 1_555 1_555
H6D C11D 1_555 1_555
C12D C11D 1_555 1_555
C13D C12D 1_555 1_555
H7D C13D 1_555 1_555
C14D C9D 1_555 1_555
H8D C14D 1_555 1_555
N7D N7 1_555 1_555
O1D C8D 1_555 1_555
O2D C8D 1_555 1_555
C15D C22D 1_555 1_555
C16D H9D 1_555 1_555
C17D C16D 1_555 1_555
H10D C17D 1_555 1_555
C18D C17D 1_555 1_555
C19D C18D 1_555 1_555
H11D C19D 1_555 1_555
C20D C19D 1_555 1_555
H12D C20D 1_555 1_555
C21D C26D 1_555 1_555
C22D C23D 1_555 1_555
C23D H13D 1_555 1_555
C24D C23D 1_555 1_555
H14D C24D 1_555 1_555
C25D C24D 1_555 1_555
H15D C25D 1_555 1_555
C26D C25D 1_555 1_555
C27D H16D 1_555 1_555
C28D C27D 1_555 1_555
H17D C28D 1_555 1_555
C29D C28D 1_555 1_555
C30D C29D 1_555 1_555
H18D C30D 1_555 1_555
C31D C30D 1_555 1_555
H19D C31D 1_555 1_555
N1D C16D 1_555 1_555
N2D C15D 1_555 1_555
N3D C21D 1_555 1_555
N4D C27D 1_555 1_555
N5D C22D 1_555 1_555
O5D C15D 1_555 1_555
O6D C21D 1_555 1_555
Zn1D O1D 1_555 1_555
H20D N3D 1_555 1_555
H21D N2D 1_555 1_555
N4C Zn1D 1_555 1_555
N4G Zn1 1_555 1_555
O4D Zn1D 1_555 1_555
Zn1C N4D 1_555 1_555
Zn1F O4F 1_555 1_555
Zn1G N4 1_555 1_555
C6 C7 1_555 1_555
C13 C14 1_555 1_555
C18 N2 1_555 1_555
C20 N1 1_555 1_555
C26 N5 1_555 1_555
C29 N3 1_555 1_555
C31 N4 1_555 1_555
O1 Zn1 1_555 1_555
O2 Zn1 1_555 1_555
O4 Zn1 1_555 1_555
C5F N6F 1_555 1_555
C6F C7F 1_555 1_555
C12D N7D 1_555 1_555
C13D C14D 1_555 1_555
O2D Zn1D 1_555 1_555
C18D N2D 1_555 1_555
C20D N1D 1_555 1_555
C26D N5D 1_555 1_555
C29D N3D 1_555 1_555
C31D N4D 1_555 1_555
N1D Zn1D 1_555 1_555

#END
