
#######################################################################
#
#                 Cambridge Crystallographic Data Centre
#                                CCDC 
#
#######################################################################
#
# If this CIF has been generated from an entry in the Cambridge 
# Structural Database, then it will include bibliographic, chemical, 
# crystal, experimental, refinement or atomic coordinate data resulting 
# from the CCDC's data processing and validation procedures.
#
#######################################################################

data_OSUGUG
_chemical_formula_moiety         '(C24 H26 Cl1 Cu1 N8 O7 1+)n'
_symmetry_cell_setting           monoclinic
_symmetry_space_group_name_H-M   'C 2/c'
_symmetry_Int_Tables_number      15
_space_group_name_Hall           '-C 2yc'
loop_
_symmetry_equiv_pos_site_id
_symmetry_equiv_pos_as_xyz
1 x,y,z
2 -x,y,1/2-z
3 1/2+x,1/2+y,z
4 1/2-x,1/2+y,1/2-z
5 -x,-y,-z
6 x,-y,1/2+z
7 1/2-x,1/2-y,-z
8 1/2+x,1/2-y,1/2+z
_cell_length_a                   16.159(3)
_cell_length_b                   14.035(3)
_cell_length_c                   15.438(3)
_cell_angle_alpha                90
_cell_angle_beta                 109.09(3)
_cell_angle_gamma                90
_cell_volume                     3308.66
loop_
_atom_site_label
_atom_site_type_symbol
_atom_site_fract_x
_atom_site_fract_y
_atom_site_fract_z
Cu1 Cu 0.5000 0.39685(5) 0.2500
N1 N 0.5387(2) 0.2996(2) 0.3503(2)
N2 N 0.5434(2) 0.1749(2) 0.4378(2)
N3 N 0.4612(2) 0.5022(2) 0.1563(2)
N4 N 0.3865(3) 0.6201(2) 0.0754(3)
O1 O 0.6550(3) 0.3765(3) 0.2447(3)
H1 H 0.6922 0.3340 0.2708
H2 H 0.6886 0.4103 0.2248
C1 C 0.5012(3) 0.2186(3) 0.3580(3)
H3 H 0.4517 0.1944 0.3138
C2 C 0.6095(3) 0.3079(3) 0.4296(3)
H4 H 0.6486 0.3587 0.4438
C3 C 0.6134(3) 0.2312(3) 0.4834(3)
H5 H 0.6552 0.2190 0.5401
C4 C 0.5212(3) 0.0850(3) 0.4692(3)
C5 C 0.5856(3) 0.0223(4) 0.5129(4)
H6 H 0.6438 0.0373 0.5212
C6 C 0.4350(3) 0.0634(4) 0.4551(4)
H7 H 0.3911 0.1059 0.4243
C7 C 0.3883(3) 0.5497(3) 0.1352(3)
H8 H 0.3432 0.5367 0.1585
C8 C 0.5092(3) 0.5429(4) 0.1087(4)
H9 H 0.5648 0.5236 0.1105
C9 C 0.4638(4) 0.6155(4) 0.0585(4)
H10 H 0.4818 0.6550 0.0196
C10 C 0.3165(3) 0.6866(3) 0.0372(3)
C11 C 0.2941(4) 0.7104(4) -0.0539(3)
H11 H 0.3241 0.6836 -0.0901
C12 C 0.2733(3) 0.7256(4) 0.0917(3)
H12 H 0.2891 0.7093 0.1534
N1D N 0.4613(2) -0.2996(2) 0.6497(2)
N2D N 0.4566(2) -0.1749(2) 0.5622(2)
C1D C 0.4988(3) -0.2186(3) 0.6420(3)
H3D H 0.5483 -0.1944 0.6862
C2D C 0.3905(3) -0.3079(3) 0.5704(3)
H4D H 0.3514 -0.3587 0.5562
C3D C 0.3866(3) -0.2312(3) 0.5166(3)
H5D H 0.3448 -0.2190 0.4599
C4D C 0.4788(3) -0.0850(3) 0.5308(3)
C5D C 0.4144(3) -0.0223(4) 0.4871(4)
H6D H 0.3562 -0.0373 0.4788
C6D C 0.5650(3) -0.0634(4) 0.5449(4)
H7D H 0.6089 -0.1059 0.5757
N3F N 0.0388(2) 0.9978(2) -0.1563(2)
N4F N 0.1135(3) 0.8799(2) -0.0754(3)
C7F C 0.1117(3) 0.9503(3) -0.1352(3)
H8F H 0.1568 0.9633 -0.1585
C8F C -0.0092(3) 0.9571(4) -0.1087(4)
H9F H -0.0648 0.9764 -0.1105
C9F C 0.0362(4) 0.8845(4) -0.0585(4)
H10F H 0.0182 0.8450 -0.0196
C10F C 0.1835(3) 0.8134(3) -0.0372(3)
C11F C 0.2059(4) 0.7896(4) 0.0539(3)
H11F H 0.1759 0.8164 0.0901
C12F C 0.2267(3) 0.7744(4) -0.0917(3)
H12F H 0.2109 0.7907 -0.1534
O1A O 0.3450(3) 0.3765(3) 0.2553(3)
H1A H 0.3078 0.3340 0.2292
H2A H 0.3114 0.4103 0.2752
Cu1D Cu 0.5000 -0.39685(5) 0.7500
Cu1F Cu 0.0000 1.10315(5) -0.2500
N1A N 0.4613(2) 0.2996(2) 0.1497(2)
N3A N 0.5388(2) 0.5022(2) 0.3437(2)
Cl1 Cl 0.27719(10) 0.08993(11) 0.18178(10)
O2 O 0.3670(3) 0.0876(4) 0.1968(4)
O3 O 0.2585(4) 0.0416(4) 0.2521(4)
O4 O 0.2554(6) 0.1893(4) 0.1892(5)
O5 O 0.2295(4) 0.0535(4) 0.0945(3)
O6 O 0.4727(16) 0.8495(16) 0.2850(15)
loop_
_geom_bond_atom_site_label_1
_geom_bond_atom_site_label_2
_geom_bond_site_symmetry_1
_geom_bond_site_symmetry_2
Cu1 N1 1_555 1_555
N1 C1 1_555 1_555
N2 C1 1_555 1_555
N3 Cu1 1_555 1_555
N4 C7 1_555 1_555
O1 Cu1 1_555 1_555
H1 O1 1_555 1_555
H2 O1 1_555 1_555
C1 H3 1_555 1_555
C2 N1 1_555 1_555
H4 C2 1_555 1_555
C3 N2 1_555 1_555
H5 C3 1_555 1_555
C4 N2 1_555 1_555
C5 C4 1_555 1_555
H6 C5 1_555 1_555
C6 C4 1_555 1_555
H7 C6 1_555 1_555
C7 N3 1_555 1_555
H8 C7 1_555 1_555
C8 N3 1_555 1_555
H9 C8 1_555 1_555
C9 N4 1_555 1_555
H10 C9 1_555 1_555
C10 N4 1_555 1_555
C11 C10 1_555 1_555
H11 C11 1_555 1_555
C12 C10 1_555 1_555
H12 C12 1_555 1_555
Cl1 O2 1_555 1_555
O3 Cl1 1_555 1_555
O4 Cl1 1_555 1_555
O5 Cl1 1_555 1_555
N1D C1D 1_555 1_555
N2D C1D 1_555 1_555
C1D H3D 1_555 1_555
C2D N1D 1_555 1_555
H4D C2D 1_555 1_555
C3D N2D 1_555 1_555
H5D C3D 1_555 1_555
C4D N2D 1_555 1_555
C5D C6 1_555 1_555
H6D C5D 1_555 1_555
C6D C5 1_555 1_555
H7D C6D 1_555 1_555
N3F C7F 1_555 1_555
N4F C7F 1_555 1_555
C7F H8F 1_555 1_555
C8F N3F 1_555 1_555
H9F C8F 1_555 1_555
C9F N4F 1_555 1_555
H10F C9F 1_555 1_555
C10F N4F 1_555 1_555
C11F C12 1_555 1_555
H11F C11F 1_555 1_555
C12F C11 1_555 1_555
H12F C12F 1_555 1_555
O1A Cu1 1_555 1_555
H1A O1A 1_555 1_555
H2A O1A 1_555 1_555
Cu1D N1D 1_555 1_555
Cu1F N3F 1_555 1_555
N1A Cu1 1_555 1_555
N3A Cu1 1_555 1_555
C2 C3 1_555 1_555
C8 C9 1_555 1_555
C2D C3D 1_555 1_555
C4D C5D 1_555 1_555
C4D C6D 1_555 1_555
C8F C9F 1_555 1_555
C10F C11F 1_555 1_555
C10F C12F 1_555 1_555

#END
