
#######################################################################
#
#                 Cambridge Crystallographic Data Centre
#                                CCDC 
#
#######################################################################
#
# If this CIF has been generated from an entry in the Cambridge 
# Structural Database, then it will include bibliographic, chemical, 
# crystal, experimental, refinement or atomic coordinate data resulting 
# from the CCDC's data processing and validation procedures.
#
#######################################################################

data_HAJPEQ
_chemical_formula_moiety         '(C54 H50 B2 Cu1 F8 N4 O3)n'
_symmetry_cell_setting           tetragonal
_symmetry_space_group_name_H-M   'I 4 2 2'
_symmetry_Int_Tables_number      97
_space_group_name_Hall           'I 4 2'
loop_
_symmetry_equiv_pos_site_id
_symmetry_equiv_pos_as_xyz
1 x,y,z
2 -y,x,z
3 -x,-y,z
4 y,-x,z
5 x,-y,-z
6 -x,y,-z
7 y,x,-z
8 -y,-x,-z
9 1/2+x,1/2+y,1/2+z
10 1/2-y,1/2+x,1/2+z
11 1/2-x,1/2-y,1/2+z
12 1/2+y,1/2-x,1/2+z
13 1/2+x,1/2-y,1/2-z
14 1/2-x,1/2+y,1/2-z
15 1/2+y,1/2+x,1/2-z
16 1/2-y,1/2-x,1/2-z
_cell_length_a                   12.8199(9)
_cell_length_b                   12.8199(9)
_cell_length_c                   32.617(4)
_cell_angle_alpha                90
_cell_angle_beta                 90
_cell_angle_gamma                90
_cell_volume                     5360.6
loop_
_atom_site_label
_atom_site_type_symbol
_atom_site_fract_x
_atom_site_fract_y
_atom_site_fract_z
Cu1 Cu 0.5000 1.0000 0.2500
N1 N 0.4214(10) 0.9213(10) 0.2941(2)
O1 O 0.3552(9) 1.1448(9) 0.2500
C1 C 0.4697(13) 0.8712(13) 0.3230(5)
C2 C 0.3176(13) 0.9210(14) 0.2949(5)
H1 H 0.2984 1.1184 0.2411
C3 C 0.4197(12) 0.8172(12) 0.3542(4)
H2 H 0.5423 0.8716 0.3229
H3 H 0.2813 0.9576 0.2748
C4 C 0.2624(12) 0.8681(15) 0.3245(5)
C5 C 0.3128(13) 0.8150(12) 0.3554(3)
H4 H 0.4584 0.7826 0.3741
H5 H 0.1899 0.8683 0.3237
C6 C 0.2525(9) 0.7565(11) 0.3868(3)
C7 C 0.3002(11) 0.6945(14) 0.4148(4)
C8 C 0.1465(12) 0.7625(14) 0.3890(6)
C9 C 0.2424(10) 0.6373(13) 0.4433(4)
H6 H 0.3726 0.6900 0.4150
C10 C 0.0898(12) 0.7070(15) 0.4179(6)
H7 H 0.1111 0.8051 0.3705
C11 C 0.1338(11) 0.6394(12) 0.4442(3)
H8 H 0.2777 0.5964 0.4623
H9 H 0.0180 0.7172 0.4192
C12 C 0.0689(9) 0.5702(10) 0.4726(3)
C13 C 0.1364(13) 0.5000 0.5000
C14 C -0.0000 0.5000 0.4465(4)
C15 C -0.0000 0.6389(13) 0.5000
H10 H 0.1809 0.4569 0.4829
H11 H 0.0437 0.4571 0.4290
H12 H 0.0436 0.6833 0.5169
O1B O 0.6448(9) 0.8552(9) 0.2500
N1B N 0.5786(10) 1.0787(10) 0.2941(2)
N1N N 0.4213(10) 0.9214(10) 0.2059(2)
N1O N 0.5787(10) 1.0786(10) 0.2059(2)
H1O H 0.3816 1.2016 0.2589
H1B H 0.7016 0.8816 0.2411
H1N H 0.6184 0.7984 0.2589
H10D H 0.1809 0.5431 0.5171
C12D C 0.0689(9) 0.4298(10) 0.5274(3)
H11B H -0.0437 0.5429 0.4290
C12B C -0.0689(9) 0.4298(10) 0.4726(3)
C12E C -0.0689(9) 0.5702(10) 0.5274(3)
H12E H -0.0436 0.6833 0.4831
C15B C -0.0000 0.3611(13) 0.5000
C14D C 0.0000 0.5000 0.5535(4)
C11D C 0.1338(11) 0.3606(12) 0.5558(3)
C13B C -0.1364(13) 0.5000 0.5000
C11B C -0.1338(11) 0.3606(12) 0.4442(3)
C11E C -0.1338(11) 0.6394(12) 0.5558(3)
H12B H -0.0436 0.3167 0.5169
H12D H 0.0436 0.3167 0.4831
H11D H 0.0437 0.5429 0.5710
H11E H -0.0437 0.4571 0.5710
C9D C 0.2424(10) 0.3627(13) 0.5567(4)
C10D C 0.0898(12) 0.2930(15) 0.5821(6)
H10B H -0.1809 0.5431 0.4829
H10E H -0.1809 0.4569 0.5171
C9B C -0.2424(10) 0.3627(13) 0.4433(4)
C10B C -0.0898(12) 0.2930(15) 0.4179(6)
C9E C -0.2424(10) 0.6373(13) 0.5567(4)
C10E C -0.0898(12) 0.7070(15) 0.5821(6)
H8D H 0.2777 0.4036 0.5377
C7D C 0.3002(11) 0.3055(14) 0.5852(4)
H9D H 0.0180 0.2828 0.5808
C8D C 0.1465(12) 0.2375(14) 0.6110(6)
H8B H -0.2777 0.4036 0.4623
C7B C -0.3002(11) 0.3055(14) 0.4148(4)
H9B H -0.0180 0.2828 0.4192
C8B C -0.1465(12) 0.2375(14) 0.3890(6)
H8E H -0.2777 0.5964 0.5377
C7E C -0.3002(11) 0.6945(14) 0.5852(4)
H9E H -0.0180 0.7172 0.5808
C8E C -0.1465(12) 0.7625(14) 0.6110(6)
C6D C 0.2525(9) 0.2435(11) 0.6132(3)
H6D H 0.3726 0.3100 0.5850
H7D H 0.1111 0.1949 0.6295
C6B C -0.2525(9) 0.2435(11) 0.3868(3)
H6B H -0.3726 0.3100 0.4150
H7B H -0.1111 0.1949 0.3705
C6E C -0.2525(9) 0.7565(11) 0.6132(3)
H6E H -0.3726 0.6900 0.5850
H7E H -0.1111 0.8051 0.6295
C5D C 0.3128(13) 0.1850(12) 0.6446(3)
C5B C -0.3128(13) 0.1850(12) 0.3554(3)
C5E C -0.3128(13) 0.8150(12) 0.6446(3)
C3D C 0.4197(12) 0.1828(12) 0.6458(4)
C4D C 0.2624(12) 0.1319(15) 0.6755(5)
C3B C -0.4197(12) 0.1828(12) 0.3542(4)
C4B C -0.2624(12) 0.1319(15) 0.3245(5)
C3E C -0.4197(12) 0.8172(12) 0.6458(4)
C4E C -0.2624(12) 0.8681(15) 0.6755(5)
H4D H 0.4584 0.2174 0.6259
C1D C 0.4697(13) 0.1288(13) 0.6770(5)
C2D C 0.3176(13) 0.0790(14) 0.7051(5)
H5D H 0.1899 0.1317 0.6763
H4B H -0.4584 0.2174 0.3741
C1B C -0.4697(13) 0.1288(13) 0.3230(5)
C2B C -0.3176(13) 0.0790(14) 0.2949(5)
H5B H -0.1899 0.1317 0.3237
H4E H -0.4584 0.7826 0.6259
C1E C -0.4697(13) 0.8712(13) 0.6770(5)
C2E C -0.3176(13) 0.9210(14) 0.7051(5)
H5E H -0.1899 0.8683 0.6763
N1D N 0.4214(10) 0.0787(10) 0.7059(2)
H2D H 0.5423 0.1284 0.6771
H3D H 0.2813 0.0424 0.7252
N1B_2 N -0.4214(10) 0.0787(10) 0.2941(2)
H2B H -0.5423 0.1284 0.3229
H3B H -0.2813 0.0424 0.2748
N1E N -0.4214(10) 0.9213(10) 0.7059(2)
H2E H -0.5423 0.8716 0.6771
H3E H -0.2813 0.9576 0.7252
Cu1D Cu 0.5000 -0.0000 0.7500
Cu1_2 Cu -0.5000 -0.0000 0.2500
Cu1D_2 Cu -0.5000 1.0000 0.7500
B1 B 0.5000 0.5000 0.364(10)
F1 F 0.465(6) 0.420(5) 0.3453(13)
F1A F 0.580(5) 0.465(6) 0.3453(13)
F1B F 0.535(6) 0.580(5) 0.3453(13)
F1C F 0.420(5) 0.535(6) 0.3453(13)
O2 O 0.393(3) 0.347(3) 0.2749(9)
H13 H 0.3380 0.3716 0.2859
H14 H 0.4098 0.3847 0.2544
B2 B 0.5000 0.5000 0.216(9)
F2 F 0.573(4) 0.487(9) 0.2118(15)
F2A F 0.513(9) 0.573(4) 0.2118(15)
F2B F 0.427(4) 0.513(9) 0.2118(15)
F2C F 0.487(9) 0.427(4) 0.2118(15)
loop_
_geom_bond_atom_site_label_1
_geom_bond_atom_site_label_2
_geom_bond_site_symmetry_1
_geom_bond_site_symmetry_2
Cu1 N1 1_555 1_555
N1 C1 1_555 1_555
O1 Cu1 1_555 1_555
C1 C3 1_555 1_555
C2 N1 1_555 1_555
H1 O1 1_555 1_555
C3 C5 1_555 1_555
H2 C1 1_555 1_555
H3 C2 1_555 1_555
C4 C2 1_555 1_555
C5 C4 1_555 1_555
H4 C3 1_555 1_555
H5 C4 1_555 1_555
C6 C5 1_555 1_555
C7 C6 1_555 1_555
C8 C6 1_555 1_555
C9 C7 1_555 1_555
H6 C7 1_555 1_555
C10 C8 1_555 1_555
H7 C8 1_555 1_555
C11 C9 1_555 1_555
H8 C9 1_555 1_555
H9 C10 1_555 1_555
C12 C11 1_555 1_555
C13 C12 1_555 1_555
C14 C12 1_555 1_555
C15 C12 1_555 1_555
H10 C13 1_555 1_555
H11 C14 1_555 1_555
H12 C15 1_555 1_555
B1 F1 1_555 1_555
O2 H13 1_555 1_555
H14 O2 1_555 1_555
B2 F2 1_555 1_555
O1B Cu1 1_555 1_555
N1B Cu1 1_555 1_555
N1N Cu1 1_555 1_555
N1O Cu1 1_555 1_555
H1O O1 1_555 1_555
H1B O1B 1_555 1_555
H1N O1B 1_555 1_555
H10D C13 1_555 1_555
C12D C13 1_555 1_555
H11B C14 1_555 1_555
C12B C14 1_555 1_555
C12E C15 1_555 1_555
H12E C15 1_555 1_555
C15B C12D 1_555 1_555
C14D C12D 1_555 1_555
C11D C12D 1_555 1_555
C13B C12B 1_555 1_555
C11B C12B 1_555 1_555
C11E C12E 1_555 1_555
H12B C15B 1_555 1_555
H12D C15B 1_555 1_555
H11D C14D 1_555 1_555
H11E C14D 1_555 1_555
C9D C11D 1_555 1_555
C10D C11D 1_555 1_555
H10B C13B 1_555 1_555
H10E C13B 1_555 1_555
C9B C11B 1_555 1_555
C10B C11B 1_555 1_555
C9E C11E 1_555 1_555
C10E C11E 1_555 1_555
H8D C9D 1_555 1_555
C7D C9D 1_555 1_555
H9D C10D 1_555 1_555
C8D C10D 1_555 1_555
H8B C9B 1_555 1_555
C7B C9B 1_555 1_555
H9B C10B 1_555 1_555
C8B C10B 1_555 1_555
H8E C9E 1_555 1_555
C7E C9E 1_555 1_555
H9E C10E 1_555 1_555
C8E C10E 1_555 1_555
C6D C7D 1_555 1_555
H6D C7D 1_555 1_555
H7D C8D 1_555 1_555
C6B C7B 1_555 1_555
H6B C7B 1_555 1_555
H7B C8B 1_555 1_555
C6E C7E 1_555 1_555
H6E C7E 1_555 1_555
H7E C8E 1_555 1_555
C5D C6D 1_555 1_555
C5B C6B 1_555 1_555
C5E C6E 1_555 1_555
C3D C5D 1_555 1_555
C4D C5D 1_555 1_555
C3B C5B 1_555 1_555
C4B C5B 1_555 1_555
C3E C5E 1_555 1_555
C4E C5E 1_555 1_555
H4D C3D 1_555 1_555
C1D C3D 1_555 1_555
C2D C4D 1_555 1_555
H5D C4D 1_555 1_555
H4B C3B 1_555 1_555
C1B C3B 1_555 1_555
C2B C4B 1_555 1_555
H5B C4B 1_555 1_555
H4E C3E 1_555 1_555
C1E C3E 1_555 1_555
C2E C4E 1_555 1_555
H5E C4E 1_555 1_555
N1D C1D 1_555 1_555
H2D C1D 1_555 1_555
H3D C2D 1_555 1_555
N1B_2 C1B 1_555 1_555
H2B C1B 1_555 1_555
H3B C2B 1_555 1_555
N1E C1E 1_555 1_555
H2E C1E 1_555 1_555
H3E C2E 1_555 1_555
Cu1D N1D 1_555 1_555
Cu1_2 N1B_2 1_555 1_555
Cu1D_2 N1E 1_555 1_555
F1A B1 1_555 1_555
F1B B1 1_555 1_555
F1C B1 1_555 1_555
F2A B2 1_555 1_555
F2B B2 1_555 1_555
F2C B2 1_555 1_555
C10 C11 1_555 1_555
C12B C15B 1_555 1_555
C12E C14D 1_555 1_555
C12E C13B 1_555 1_555
C8D C6D 1_555 1_555
C8B C6B 1_555 1_555
C8E C6E 1_555 1_555
C2D N1D 1_555 1_555
C2B N1B_2 1_555 1_555
C2E N1E 1_555 1_555

#END
