
#######################################################################
#
#                 Cambridge Crystallographic Data Centre
#                                CCDC 
#
#######################################################################
#
# If this CIF has been generated from an entry in the Cambridge 
# Structural Database, then it will include bibliographic, chemical, 
# crystal, experimental, refinement or atomic coordinate data resulting 
# from the CCDC's data processing and validation procedures.
#
#######################################################################

data_CUKZOY
_chemical_formula_moiety         '(C20 H28 Ag2 N8 O11 V4)n'
_symmetry_cell_setting           monoclinic
_symmetry_space_group_name_H-M   'C 2/c'
_symmetry_Int_Tables_number      15
_space_group_name_Hall           '-C 2yc'
loop_
_symmetry_equiv_pos_site_id
_symmetry_equiv_pos_as_xyz
1 x,y,z
2 -x,y,1/2-z
3 1/2+x,1/2+y,z
4 1/2-x,1/2+y,1/2-z
5 -x,-y,-z
6 x,-y,1/2+z
7 1/2-x,1/2-y,-z
8 1/2+x,1/2-y,1/2+z
_cell_length_a                   13.022(3)
_cell_length_b                   18.755(4)
_cell_length_c                   13.403(3)
_cell_angle_alpha                90
_cell_angle_beta                 107.72(3)
_cell_angle_gamma                90
_cell_volume                     3118.08
loop_
_atom_site_label
_atom_site_type_symbol
_atom_site_fract_x
_atom_site_fract_y
_atom_site_fract_z
Ag1 Ag -0.99787(3) 1.01581(3) -0.11974(4)
V1 V -0.86985(7) 1.17709(5) 0.06813(7)
V2 V -0.90567(7) 1.30559(6) -0.12364(7)
O1 O -0.9034(5) 1.0946(3) 0.0439(5)
O2 O -0.9298(3) 1.2066(3) 0.1481(4)
O3 O -0.9083(4) 1.2281(4) -0.0520(5)
O4 O -1.0000 1.2944(4) -0.2500
O5 O -1.2235(3) 1.3138(3) -0.3693(3)
O6 O -1.0629(4) 1.3721(4) -0.4324(5)
C1 C -0.7571(5) 1.0372(3) -0.2873(5)
H1 H -0.7422 0.9939 -0.3135
C2 C -0.8406(5) 1.1302(4) -0.2571(6)
H2 H -0.8953 1.1625 -0.2590
C3 C -0.7367(5) 1.1376(4) -0.1994(5)
H3 H -0.7063 1.1754 -0.1555
C4 C -0.5690(5) 1.0605(4) -0.1684(5)
H4 H -0.5548 1.0568 -0.0932
H5 H -0.5521 1.0150 -0.1940
C5 C -0.4992(5) 1.1175(4) -0.1921(5)
H6 H -0.4765 1.1636 -0.3246
H7 H -0.5743 1.1107 -0.3524
C6 C -1.1429(4) 0.8897(3) -0.3712(5)
H8 H -1.0805 0.8636 -0.3407
C7 C -1.2509(5) 0.9741(3) -0.4445(5)
H9 H -1.2768 1.0179 -0.4742
C8 C -1.3124(4) 0.9185(3) -0.4345(5)
H10 H -1.3874 0.9169 -0.4554
C9 C -1.2712(5) 0.7912(3) -0.3738(5)
H11 H -1.2120 0.7687 -0.3212
H12 H -1.3339 0.7902 -0.3491
C10 C -1.2956(5) 0.7494(3) -0.4761(5)
H13 H -1.1403 0.7310 -0.4740
H14 H -1.1891 0.7998 -0.5370
N1 N -0.8536(4) 1.0677(3) -0.3127(4)
N2 N -0.6844(4) 1.0775(3) -0.2189(4)
N3 N -1.1440(4) 0.9560(3) -0.4040(4)
N4 N -1.2433(4) 0.8648(3) -0.3876(4)
Ag1A Ag -1.00213(3) 1.01581(3) -0.38026(4)
Ag1_2 Ag 0.00213(3) 1.01581(3) -0.11974(4)
Ag1G Ag -1.49787(3) 0.48419(3) -0.61974(4)
V1A V -1.13015(7) 1.17709(5) -0.56813(7)
V1G V -1.36985(7) 1.32291(5) -0.43187(7)
V1F V -0.63015(7) 1.32291(5) -0.06813(7)
V2A V -1.09433(7) 1.30559(6) -0.37636(7)
O1A O -1.0966(5) 1.0946(3) -0.5439(5)
O2A O -1.0702(3) 1.2066(3) -0.6481(4)
O3A O -1.0917(4) 1.2281(4) -0.4480(5)
O5F O -1.2765(3) 1.1862(3) -0.6307(3)
O5A O -0.7765(3) 1.3138(3) -0.1307(3)
O5G O -0.7235(3) 1.1862(3) 0.1307(3)
O6A O -0.9371(4) 1.3721(4) -0.0676(5)
C1A C -0.2429(5) 1.0372(3) -0.2127(5)
H1A H -0.2578 0.9939 -0.1865
C2A C -0.1594(5) 1.1302(4) -0.2429(6)
H2A H -0.1047 1.1625 -0.2410
C3A C -0.2633(5) 1.1376(4) -0.3006(5)
H3A H -0.2937 1.1754 -0.3445
C4A C -0.4310(5) 1.0605(4) -0.3316(5)
H4A H -0.4452 1.0568 -0.4068
H5A H -0.4479 1.0150 -0.3060
C5A C -0.5008(5) 1.1175(4) -0.3079(5)
H6A H -0.5235 1.1636 -0.1754
H7A H -0.4257 1.1107 -0.1476
C6F C -1.3571(4) 0.6103(3) -0.6288(5)
H8F H -1.4195 0.6364 -0.6593
C7F C -1.2491(5) 0.5259(3) -0.5555(5)
H9F H -1.2232 0.4821 -0.5258
C8F C -1.1876(4) 0.5815(3) -0.5655(5)
H10F H -1.1126 0.5831 -0.5446
C9F C -1.2288(5) 0.7088(3) -0.6262(5)
H11F H -1.2880 0.7313 -0.6788
H12F H -1.1661 0.7098 -0.6509
C10F C -1.2044(5) 0.7506(3) -0.5239(5)
H13F H -1.3597 0.7690 -0.5260
H14F H -1.3109 0.7002 -0.4630
N1A N -0.1464(4) 1.0677(3) -0.1873(4)
N1A_2 N -1.1464(4) 1.0677(3) -0.1873(4)
N2A N -0.3156(4) 1.0775(3) -0.2811(4)
N3A N -0.8560(4) 0.9560(3) -0.0960(4)
N3F N -1.3560(4) 0.5440(3) -0.5960(4)
N4F N -1.2567(4) 0.6352(3) -0.6124(4)
loop_
_geom_bond_atom_site_label_1
_geom_bond_atom_site_label_2
_geom_bond_site_symmetry_1
_geom_bond_site_symmetry_2
Ag1 O1 1_555 1_555
V1 O1 1_555 1_555
V2 O3 1_555 1_555
O2 V1 1_555 1_555
O3 V1 1_555 1_555
O4 V2 1_555 1_555
O5 V1G 1_555 1_555
O6 V2A 1_555 1_555
C1 H1 1_555 1_555
C2 H2 1_555 1_555
C3 C2 1_555 1_555
H3 C3 1_555 1_555
C4 H4 1_555 1_555
H5 C4 1_555 1_555
C5 C4 1_555 1_555
H6 C5A 1_555 1_555
H7 C5A 1_555 1_555
C6 H8 1_555 1_555
C7 H9 1_555 1_555
C8 C7 1_555 1_555
H10 C8 1_555 1_555
C9 H11 1_555 1_555
H12 C9 1_555 1_555
C10 C9 1_555 1_555
H13 C10F 1_555 1_555
H14 C10F 1_555 1_555
N1 C1 1_555 1_555
N2 C1 1_555 1_555
N3 C6 1_555 1_555
N4 C6 1_555 1_555
Ag1A N1 1_555 1_555
Ag1_2 N1A 1_555 1_555
Ag1G N3F 1_555 1_555
V1A O1A 1_555 1_555
V1F O5A 1_555 1_555
V2A O4 1_555 1_555
O1A Ag1A 1_555 1_555
O2A V1A 1_555 1_555
O3A V1A 1_555 1_555
O5F V1A 1_555 1_555
O5A V2 1_555 1_555
O5G V1 1_555 1_555
O6A V2 1_555 1_555
C1A H1A 1_555 1_555
C2A H2A 1_555 1_555
C3A C2A 1_555 1_555
H3A C3A 1_555 1_555
C4A H4A 1_555 1_555
H5A C4A 1_555 1_555
C5A C5 1_555 1_555
H6A C5 1_555 1_555
H7A C5 1_555 1_555
C6F H8F 1_555 1_555
C7F H9F 1_555 1_555
C8F C7F 1_555 1_555
H10F C8F 1_555 1_555
C9F H11F 1_555 1_555
H12F C9F 1_555 1_555
C10F C10 1_555 1_555
H13F C10 1_555 1_555
H14F C10 1_555 1_555
N1A C1A 1_555 1_555
N1A_2 Ag1 1_555 1_555
N2A C1A 1_555 1_555
N3A Ag1 1_555 1_555
N3F C6F 1_555 1_555
N4F C6F 1_555 1_555
O5 V2A 1_555 1_555
C2 N1 1_555 1_555
C3 N2 1_555 1_555
C4 N2 1_555 1_555
C7 N3 1_555 1_555
C8 N4 1_555 1_555
C9 N4 1_555 1_555
N3 Ag1A 1_555 1_555
V2A O3A 1_555 1_555
C2A N1A 1_555 1_555
C3A N2A 1_555 1_555
C4A C5A 1_555 1_555
C4A N2A 1_555 1_555
C7F N3F 1_555 1_555
C8F N4F 1_555 1_555
C9F C10F 1_555 1_555
C9F N4F 1_555 1_555

#END
