
#######################################################################
#
#                 Cambridge Crystallographic Data Centre
#                                CCDC 
#
#######################################################################
#
# If this CIF has been generated from an entry in the Cambridge 
# Structural Database, then it will include bibliographic, chemical, 
# crystal, experimental, refinement or atomic coordinate data resulting 
# from the CCDC's data processing and validation procedures.
#
#######################################################################

data_LAWHEZ01
_chemical_formula_moiety         '(C62 H51 Eu3 N18 O35 Zn6)n'
_symmetry_cell_setting           orthorhombic
_symmetry_space_group_name_H-M   'P n m a'
_symmetry_Int_Tables_number      62
_space_group_name_Hall           '-P 2ac 2n'
loop_
_symmetry_equiv_pos_site_id
_symmetry_equiv_pos_as_xyz
1 x,y,z
2 1/2-x,-y,1/2+z
3 -x,1/2+y,-z
4 1/2+x,1/2-y,1/2-z
5 -x,-y,-z
6 1/2+x,y,1/2-z
7 x,1/2-y,z
8 1/2-x,1/2+y,1/2+z
_cell_length_a                   16.2825(8)
_cell_length_b                   33.8405(17)
_cell_length_c                   16.9649(8)
_cell_angle_alpha                90
_cell_angle_beta                 90
_cell_angle_gamma                90
_cell_volume                     9347.79
loop_
_atom_site_label
_atom_site_type_symbol
_atom_site_fract_x
_atom_site_fract_y
_atom_site_fract_z
Eu1 Eu 0.48219(2) 0.55375(2) 0.44508(2)
Eu2 Eu 0.59508(2) 0.7500 -0.15003(2)
Zn1 Zn 0.73881(5) 0.49087(2) 0.71146(5)
Zn2 Zn 0.56340(5) 0.66551(2) 0.17231(5)
Zn3 Zn 0.26818(4) 0.65984(2) -0.06871(4)
O1 O 0.5654(3) 0.51485(12) 0.5325(2)
O2 O 0.6395(3) 0.48009(12) 0.6140(3)
O3 O 0.5977(3) 0.58822(15) 0.4535(3)
O4 O 0.6772(3) 0.63929(13) 0.4834(3)
O5 O 0.4630(3) 0.58707(13) 0.3312(3)
O6 O 0.4850(3) 0.64148(15) 0.2621(3)
O7 O 0.5597(3) 0.51710(13) 0.3580(2)
O8 O 0.6714(3) 0.49487(13) 0.2985(3)
O9 O 0.6197(3) 0.70824(18) -0.0474(3)
O10 O 0.6322(3) 0.68805(17) 0.0772(3)
O11 O 0.4851(3) 0.70894(18) -0.1548(3)
O12 O 0.3664(3) 0.67651(14) -0.1517(2)
O13 O 0.6305(4) 0.70762(13) -0.2442(3)
O14 O 0.6860(3) 0.66363(12) -0.3262(3)
O15 O 0.4075(4) 0.55158(17) 0.5617(3)
O16 O 0.4292(5) 0.61584(17) 0.4793(4)
O17 O 0.7419(5) 0.7500 -0.1369(5)
O18 O 0.6050(5) 0.70738(19) 0.2460(4)
N1 N 0.7477(3) 0.53903(17) 0.6439(3)
N2 N 0.7635(3) 0.59862(14) 0.5899(3)
N3 N 0.6220(3) 0.61440(16) 0.1954(3)
N4 N 0.6930(3) 0.55866(15) 0.2092(3)
N5 N 0.4718(3) 0.67273(17) 0.0941(3)
N6 N 0.3703(3) 0.66720(15) 0.0065(3)
N7 N 0.7274(3) 0.71701(15) -0.4336(3)
N8 N 0.6493(4) 0.48249(18) 0.7952(3)
N9 N 0.3469(6) 0.4240(3) 1.0754(6)
C1 C 0.6279(4) 0.51216(17) 0.5767(3)
C2 C 0.6872(4) 0.54368(18) 0.5870(4)
C3 C 0.6983(4) 0.58085(17) 0.5540(3)
C4 C 0.6534(4) 0.60439(17) 0.4932(4)
C5 C 0.7910(4) 0.57274(18) 0.6433(4)
C6 C 0.8634(5) 0.5808(2) 0.6960(5)
H1 H 0.9127 0.5816 0.6650
H2 H 0.8678 0.5602 0.7347
H3 H 0.8560 0.6057 0.7220
C7 C 0.5047(4) 0.6073(2) 0.2838(3)
C8 C 0.5821(4) 0.59148(17) 0.2500(3)
C9 C 0.6262(4) 0.55684(16) 0.2597(3)
C10 C 0.6179(4) 0.52102(18) 0.3088(3)
C11 C 0.6887(4) 0.5937(2) 0.1732(4)
C12 C 0.7513(5) 0.6091(2) 0.1169(5)
H4 H 0.7988 0.6178 0.1456
H5 H 0.7286 0.6308 0.0880
H6 H 0.7669 0.5885 0.0810
C13 C 0.5892(4) 0.6951(2) 0.0165(4)
C14 C 0.5010(4) 0.6855(2) 0.0214(4)
C15 C 0.4377(4) 0.68200(18) -0.0320(4)
C16 C 0.4297(4) 0.68982(18) -0.1185(4)
C17 C 0.3920(4) 0.66288(19) 0.0816(4)
C18 C 0.3345(5) 0.6516(3) 0.1464(4)
H7 H 0.3227 0.6744 0.1782
H8 H 0.3594 0.6316 0.1785
H9 H 0.2844 0.6416 0.1242
C19 C 0.6683(4) 0.69888(18) -0.3072(4)
C20 C 0.6927(4) 0.72939(17) -0.3640(3)
C21 C 0.7462(5) 0.7500 -0.4743(5)
C22 C 0.7812(8) 0.7500 -0.5554(6)
C23 C 0.5748(5) 0.4996(2) 0.7960(4)
H10 H 0.5633 0.5190 0.7588
C24 C 0.5139(5) 0.4895(3) 0.8502(4)
H11 H 0.4630 0.5019 0.8481
C25 C 0.5294(5) 0.4610(2) 0.9073(5)
C26 C 0.6083(6) 0.4449(3) 0.9077(6)
H12 H 0.6225 0.4264 0.9458
C27 C 0.6650(6) 0.4561(3) 0.8522(5)
H13 H 0.7171 0.4449 0.8543
C28 C 0.3350(6) 0.4552(3) 1.0289(7)
H14 H 0.2854 0.4686 1.0330
C29 C 0.3925(5) 0.4690(3) 0.9741(5)
H15 H 0.3816 0.4914 0.9440
C30 C 0.4666(5) 0.4487(2) 0.9654(5)
C31 C 0.4785(6) 0.4165(3) 1.0149(6)
H16 H 0.5280 0.4028 1.0128
C32 C 0.4188(7) 0.4045(3) 1.0668(7)
H17 H 0.4282 0.3820 1.0972
O13F O 0.6305(4) 0.79238(13) -0.2442(3)
O14F O 0.6860(3) 0.83637(12) -0.3262(3)
N7F N 0.7274(3) 0.78299(15) -0.4336(3)
C19F C 0.6683(4) 0.80112(18) -0.3072(4)
C20F C 0.6927(4) 0.77061(17) -0.3640(3)
Eu1D Eu 0.51781(2) 0.44625(2) 0.55492(2)
Zn1D Zn 0.26119(5) 0.50913(2) 0.28854(5)
Zn2D Zn 0.43660(5) 0.33449(2) 0.82769(5)
Zn3D Zn 0.73182(4) 0.34016(2) 1.06871(4)
O1D O 0.4346(3) 0.48515(12) 0.4675(2)
O2D O 0.3605(3) 0.51991(12) 0.3860(3)
O3D O 0.4023(3) 0.41178(15) 0.5465(3)
O4D O 0.3228(3) 0.36071(13) 0.5166(3)
O5D O 0.5370(3) 0.41293(13) 0.6688(3)
O6D O 0.5150(3) 0.35852(15) 0.7379(3)
O7D O 0.4403(3) 0.48290(13) 0.6420(2)
O8D O 0.3286(3) 0.50513(13) 0.7015(3)
O9D O 0.3803(3) 0.29176(18) 1.0474(3)
O10D O 0.3678(3) 0.31195(17) 0.9228(3)
O11D O 0.5149(3) 0.29106(18) 1.1548(3)
O12D O 0.6336(3) 0.32349(14) 1.1517(2)
O15D O 0.5925(4) 0.44842(17) 0.4383(3)
O16D O 0.5708(5) 0.38416(17) 0.5207(4)
O18D O 0.3950(5) 0.29262(19) 0.7540(4)
N1D N 0.2523(3) 0.46097(17) 0.3561(3)
N2D N 0.2365(3) 0.40138(14) 0.4101(3)
N3D N 0.3780(3) 0.38560(16) 0.8046(3)
N4D N 0.3070(3) 0.44134(15) 0.7908(3)
N5D N 0.5282(3) 0.32727(17) 0.9059(3)
N6D N 0.6297(3) 0.33280(15) 0.9935(3)
N8D N 0.3507(4) 0.51751(18) 0.2048(3)
N9D N 0.6531(6) 0.5760(3) -0.0754(6)
C1D C 0.3721(4) 0.48784(17) 0.4233(3)
C2D C 0.3128(4) 0.45632(18) 0.4130(4)
C3D C 0.3017(4) 0.41915(17) 0.4460(3)
C4D C 0.3466(4) 0.39561(17) 0.5068(4)
C5D C 0.2090(4) 0.42726(18) 0.3567(4)
C6D C 0.1366(5) 0.4192(2) 0.3040(5)
H1D H 0.0873 0.4184 0.3350
H2D H 0.1322 0.4398 0.2653
H3D H 0.1440 0.3943 0.2780
C7D C 0.4953(4) 0.3927(2) 0.7162(3)
C8D C 0.4179(4) 0.40852(17) 0.7500(3)
C9D C 0.3738(4) 0.44316(16) 0.7403(3)
C10D C 0.3821(4) 0.47898(18) 0.6912(3)
C11D C 0.3113(4) 0.4063(2) 0.8268(4)
C12D C 0.2487(5) 0.3909(2) 0.8831(5)
H4D H 0.2012 0.3822 0.8544
H5D H 0.2714 0.3692 0.9120
H6D H 0.2331 0.4115 0.9190
C13D C 0.4108(4) 0.3049(2) 0.9835(4)
C14D C 0.4990(4) 0.3145(2) 0.9786(4)
C15D C 0.5623(4) 0.31800(18) 1.0320(4)
C16D C 0.5703(4) 0.31018(18) 1.1185(4)
C17D C 0.6080(4) 0.33712(19) 0.9184(4)
C18D C 0.6655(5) 0.3484(3) 0.8536(4)
H7D H 0.6773 0.3256 0.8218
H8D H 0.6406 0.3684 0.8215
H9D H 0.7156 0.3584 0.8758
C23D C 0.4252(5) 0.5004(2) 0.2040(4)
H10D H 0.4367 0.4810 0.2412
C24D C 0.4861(5) 0.5105(3) 0.1498(4)
H11D H 0.5370 0.4981 0.1519
C25D C 0.4706(5) 0.5390(2) 0.0927(5)
C26D C 0.3917(6) 0.5551(3) 0.0923(6)
H12D H 0.3775 0.5736 0.0542
C27D C 0.3350(6) 0.5439(3) 0.1478(5)
H13D H 0.2829 0.5551 0.1457
C28D C 0.6650(6) 0.5448(3) -0.0289(7)
H14D H 0.7146 0.5314 -0.0330
C29D C 0.6075(5) 0.5310(3) 0.0259(5)
H15D H 0.6184 0.5086 0.0560
C30D C 0.5334(5) 0.5513(2) 0.0346(5)
C31D C 0.5215(6) 0.5835(3) -0.0149(6)
H16D H 0.4720 0.5972 -0.0128
C32D C 0.5812(7) 0.5955(3) -0.0668(7)
H17D H 0.5718 0.6180 -0.0972
Eu2B Eu 0.40492(2) 0.2500 1.15003(2)
Zn1A Zn 0.76119(5) 0.50913(2) 0.21146(5)
Zn1E Zn 0.23881(5) 0.49087(2) 0.78854(5)
Zn3A Zn 0.23182(4) 0.34016(2) 0.43129(4)
Zn3C Zn 0.76818(4) 0.84016(2) -0.43129(4)
Zn3E Zn 0.76818(4) 0.65984(2) -0.43129(4)
Zn3E_2 Zn 0.76818(4) 0.65984(2) 0.56871(4)
O4A O 0.8228(3) 0.36071(13) 0.9834(3)
O4E O 0.1772(3) 0.63929(13) 0.0166(3)
O8A O 0.8286(3) 0.50513(13) 0.7985(3)
O8E O 0.1714(3) 0.49487(13) 0.2015(3)
O9F O 0.6197(3) 0.79176(18) -0.0474(3)
O11F O 0.4851(3) 0.79106(18) -0.1548(3)
O14A O 0.8140(3) 0.33637(12) 1.1738(3)
O14E O 0.1860(3) 0.66363(12) -0.1738(3)
N2A N 0.7365(3) 0.40138(14) 1.0899(3)
N2E N 0.2635(3) 0.59862(14) -0.0899(3)
N4A N 0.8070(3) 0.44134(15) 0.7092(3)
N4E N 0.1930(3) 0.55866(15) 0.2908(3)
N7A N 0.7726(3) 0.28299(15) 1.0664(3)
N7E N 0.2274(3) 0.71701(15) -0.0664(3)
loop_
_geom_bond_atom_site_label_1
_geom_bond_atom_site_label_2
_geom_bond_site_symmetry_1
_geom_bond_site_symmetry_2
Eu1 O1 1_555 1_555
Eu2 O9 1_555 1_555
Zn1 O2 1_555 1_555
Zn2 O6 1_555 1_555
Zn3 O12 1_555 1_555
O1 C1 1_555 1_555
O2 C1 1_555 1_555
O3 Eu1 1_555 1_555
O4 C4 1_555 1_555
O5 Eu1 1_555 1_555
O6 C7 1_555 1_555
O7 Eu1 1_555 1_555
O8 C10 1_555 1_555
O9 C13 1_555 1_555
O10 Zn2 1_555 1_555
O11 Eu2 1_555 1_555
O12 C16 1_555 1_555
O13 Eu2 1_555 1_555
O14 C19 1_555 1_555
O15 Eu1 1_555 1_555
O16 Eu1 1_555 1_555
O17 Eu2 1_555 1_555
O18 Zn2 1_555 1_555
N1 Zn1 1_555 1_555
N2 C3 1_555 1_555
N3 Zn2 1_555 1_555
N4 C9 1_555 1_555
N5 Zn2 1_555 1_555
N6 Zn3 1_555 1_555
N7 C20 1_555 1_555
N8 Zn1 1_555 1_555
N9 C28 1_555 1_555
C1 C2 1_555 1_555
C2 N1 1_555 1_555
C3 C2 1_555 1_555
C4 O3 1_555 1_555
C5 N1 1_555 1_555
C6 C5 1_555 1_555
H1 C6 1_555 1_555
H2 C6 1_555 1_555
H3 C6 1_555 1_555
C7 O5 1_555 1_555
C8 N3 1_555 1_555
C9 C8 1_555 1_555
C10 O7 1_555 1_555
C11 N3 1_555 1_555
C12 C11 1_555 1_555
H4 C12 1_555 1_555
H5 C12 1_555 1_555
H6 C12 1_555 1_555
C13 O10 1_555 1_555
C14 N5 1_555 1_555
C15 N6 1_555 1_555
C16 O11 1_555 1_555
C17 N5 1_555 1_555
C18 C17 1_555 1_555
H7 C18 1_555 1_555
H8 C18 1_555 1_555
H9 C18 1_555 1_555
C19 O13 1_555 1_555
C20 C19 1_555 1_555
C21 N7 1_555 1_555
C22 C21 1_555 1_555
C23 N8 1_555 1_555
H10 C23 1_555 1_555
C24 C23 1_555 1_555
H11 C24 1_555 1_555
C25 C24 1_555 1_555
C26 C25 1_555 1_555
H12 C26 1_555 1_555
C27 N8 1_555 1_555
H13 C27 1_555 1_555
C28 H14 1_555 1_555
C29 C28 1_555 1_555
H15 C29 1_555 1_555
C30 C25 1_555 1_555
C31 C30 1_555 1_555
H16 C31 1_555 1_555
C32 N9 1_555 1_555
H17 C32 1_555 1_555
O13F Eu2 1_555 1_555
O14F C19F 1_555 1_555
N7F C21 1_555 1_555
C19F O13F 1_555 1_555
C20F C20 1_555 1_555
Eu1D O1 1_555 1_555
Zn1D O2D 1_555 1_555
Zn2D O6D 1_555 1_555
Zn3D O12D 1_555 1_555
O1D Eu1 1_555 1_555
O2D Eu1 1_555 1_555
O3D Eu1D 1_555 1_555
O4D C4D 1_555 1_555
O5D Eu1D 1_555 1_555
O6D C7D 1_555 1_555
O7D Eu1D 1_555 1_555
O8D C10D 1_555 1_555
O9D C13D 1_555 1_555
O10D Zn2D 1_555 1_555
O11D C16D 1_555 1_555
O12D C16D 1_555 1_555
O15D Eu1D 1_555 1_555
O16D Eu1D 1_555 1_555
O18D Zn2D 1_555 1_555
N1D Zn1D 1_555 1_555
N2D C3D 1_555 1_555
N3D Zn2D 1_555 1_555
N4D C9D 1_555 1_555
N5D Zn2D 1_555 1_555
N6D Zn3D 1_555 1_555
N8D Zn1D 1_555 1_555
N9D C28D 1_555 1_555
C1D O1D 1_555 1_555
C2D N1D 1_555 1_555
C3D C2D 1_555 1_555
C4D O3D 1_555 1_555
C5D N1D 1_555 1_555
C6D C5D 1_555 1_555
H1D C6D 1_555 1_555
H2D C6D 1_555 1_555
H3D C6D 1_555 1_555
C7D O5D 1_555 1_555
C8D N3D 1_555 1_555
C9D C8D 1_555 1_555
C10D O7D 1_555 1_555
C11D N3D 1_555 1_555
C12D C11D 1_555 1_555
H4D C12D 1_555 1_555
H5D C12D 1_555 1_555
H6D C12D 1_555 1_555
C13D O10D 1_555 1_555
C14D N5D 1_555 1_555
C15D N6D 1_555 1_555
C16D C15D 1_555 1_555
C17D N5D 1_555 1_555
C18D C17D 1_555 1_555
H7D C18D 1_555 1_555
H8D C18D 1_555 1_555
H9D C18D 1_555 1_555
C23D N8D 1_555 1_555
H10D C23D 1_555 1_555
C24D C23D 1_555 1_555
H11D C24D 1_555 1_555
C25D C24D 1_555 1_555
C26D C25D 1_555 1_555
H12D C26D 1_555 1_555
C27D N8D 1_555 1_555
H13D C27D 1_555 1_555
C28D H14D 1_555 1_555
C29D C28D 1_555 1_555
H15D C29D 1_555 1_555
C30D C25D 1_555 1_555
C31D C30D 1_555 1_555
H16D C31D 1_555 1_555
C32D N9D 1_555 1_555
H17D C32D 1_555 1_555
Eu2B O9D 1_555 1_555
Zn1A O8 1_555 1_555
Zn1E O8D 1_555 1_555
Zn3A O4D 1_555 1_555
Zn3C O14F 1_555 1_555
Zn3E O14 1_555 1_555
Zn3E_2 O4 1_555 1_555
O4A Zn3D 1_555 1_555
O4E Zn3 1_555 1_555
O8A Zn1 1_555 1_555
O8E Zn1D 1_555 1_555
O9F Eu2 1_555 1_555
O11F Eu2 1_555 1_555
O14A Zn3D 1_555 1_555
O14E Zn3 1_555 1_555
N2A Zn3D 1_555 1_555
N2E Zn3 1_555 1_555
N4A Zn1 1_555 1_555
N4E Zn1D 1_555 1_555
N7A Zn3D 1_555 1_555
N7E Zn3 1_555 1_555
O2 Eu1D 1_555 1_555
N2 C5 1_555 1_555
N2 Zn3E_2 1_555 1_555
N4 C11 1_555 1_555
N4 Zn1A 1_555 1_555
N6 C17 1_555 1_555
N7 Zn3E 1_555 1_555
C3 C4 1_555 1_555
C7 C8 1_555 1_555
C9 C10 1_555 1_555
C13 C14 1_555 1_555
C14 C15 1_555 1_555
C15 C16 1_555 1_555
C26 C27 1_555 1_555
C29 C30 1_555 1_555
C31 C32 1_555 1_555
N7F C20F 1_555 1_555
N7F Zn3C 1_555 1_555
C19F C20F 1_555 1_555
Eu1D O1D 1_555 1_555
O2D C1D 1_555 1_555
O11D Eu2B 1_555 1_555
N2D C5D 1_555 1_555
N2D Zn3A 1_555 1_555
N4D C11D 1_555 1_555
N4D Zn1E 1_555 1_555
N6D C17D 1_555 1_555
C1D C2D 1_555 1_555
C3D C4D 1_555 1_555
C7D C8D 1_555 1_555
C9D C10D 1_555 1_555
C13D C14D 1_555 1_555
C14D C15D 1_555 1_555
C26D C27D 1_555 1_555
C29D C30D 1_555 1_555
C31D C32D 1_555 1_555

#END
