
#######################################################################
#
#                 Cambridge Crystallographic Data Centre
#                                CCDC 
#
#######################################################################
#
# If this CIF has been generated from an entry in the Cambridge 
# Structural Database, then it will include bibliographic, chemical, 
# crystal, experimental, refinement or atomic coordinate data resulting 
# from the CCDC's data processing and validation procedures.
#
#######################################################################

data_CELZEA
_chemical_formula_moiety         '(C8 H14 Mo2 O13 P2)n'
_symmetry_cell_setting           monoclinic
_symmetry_space_group_name_H-M   'C 2/c'
_symmetry_Int_Tables_number      15
_space_group_name_Hall           '-C 2yc'
loop_
_symmetry_equiv_pos_site_id
_symmetry_equiv_pos_as_xyz
1 x,y,z
2 -x,y,1/2-z
3 1/2+x,1/2+y,z
4 1/2-x,1/2+y,1/2-z
5 -x,-y,-z
6 x,-y,1/2+z
7 1/2-x,1/2-y,-z
8 1/2+x,1/2-y,1/2+z
_cell_length_a                   20.8424(8)
_cell_length_b                   10.6114(3)
_cell_length_c                   9.0023(4)
_cell_angle_alpha                90
_cell_angle_beta                 111.686(4)
_cell_angle_gamma                90
_cell_volume                     1850.09
loop_
_atom_site_label
_atom_site_type_symbol
_atom_site_fract_x
_atom_site_fract_y
_atom_site_fract_z
_atom_site_U_iso_or_equiv
_atom_site_thermal_displace_type
Mo1 Mo 0.234976(11) 0.64843(2) 0.23633(2) 0.0102 Uani
P1 P 0.30926(3) 0.40483(6) 0.46108(7) 0.0091 Uani
O1 O 0.28788(8) 0.48920(15) 0.31161(17) 0.0124 Uani
O2 O 0.25240(8) 0.39869(15) 0.52654(17) 0.0117 Uani
O3 O 0.32820(8) 0.27473(15) 0.41328(18) 0.0127 Uani
O4 O 0.30312(8) 0.74517(15) 0.31525(18) 0.0175 Uani
O5 O 0.19576(9) 0.64819(17) 0.37088(19) 0.0214 Uani
O6 O 0.14801(9) 0.50823(16) 0.09369(19) 0.0175 Uani
C1 C 0.38574(12) 0.4670(3) 0.6088(3) 0.0176 Uani
H1 H 0.3747 0.5496 0.6446 0.0210 Uiso
H2 H 0.4005 0.4099 0.7024 0.0210 Uiso
C2 C 0.44540(12) 0.4840(2) 0.5530(3) 0.0164 Uani
C3 C 0.46653(13) 0.6033(2) 0.5299(3) 0.0183 Uani
H3 H 0.4436 0.6750 0.5499 0.0220 Uiso
C4 C 0.52074(13) 0.6198(2) 0.4780(3) 0.0186 Uani
H4 H 0.5349 0.7025 0.4634 0.0220 Uiso
H5 H 0.1210(15) 0.466(3) 0.147(4) 0.0690 Uiso
H6 H 0.1649(19) 0.438(2) 0.049(4) 0.0840 Uiso
P1D P 0.69074(3) 0.59517(6) 0.53892(7) 0.0091 Uani
O1D O 0.71212(8) 0.51080(15) 0.68839(17) 0.0124 Uani
O2D O 0.74760(8) 0.60131(15) 0.47346(17) 0.0117 Uani
O3D O 0.67180(8) 0.72527(15) 0.58672(18) 0.0127 Uani
C1D C 0.61426(12) 0.5330(3) 0.3912(3) 0.0176 Uani
H1D H 0.6253 0.4504 0.3554 0.0210 Uiso
H2D H 0.5995 0.5901 0.2976 0.0210 Uiso
C2D C 0.55460(12) 0.5160(2) 0.4470(3) 0.0164 Uani
C3D C 0.53347(13) 0.3967(2) 0.4701(3) 0.0183 Uani
H3D H 0.5564 0.3250 0.4501 0.0220 Uiso
C4D C 0.47926(13) 0.3802(2) 0.5220(3) 0.0186 Uani
H4D H 0.4651 0.2975 0.5366 0.0220 Uiso
Mo1A Mo 0.765024(11) 0.64843(2) 0.26367(2) 0.0102 Uani
O4A O 0.69688(8) 0.74517(15) 0.18475(18) 0.0175 Uani
O5A O 0.80424(9) 0.64819(17) 0.12912(19) 0.0214 Uani
O6A O 0.85199(9) 0.50823(16) 0.40631(19) 0.0175 Uani
H5A H 0.8790(15) 0.466(3) 0.353(4) 0.0690 Uiso
H6A H 0.8351(19) 0.438(2) 0.451(4) 0.0840 Uiso
Mo1C Mo 0.265024(11) 0.14843(2) 0.26367(2) 0.0102 Uani
Mo1D Mo 0.765024(11) 0.35157(2) 0.76367(2) 0.0102 Uani
Mo1E Mo 0.234976(11) 0.35157(2) 0.73633(2) 0.0102 Uani
Mo1G Mo 0.734976(11) 0.85157(2) 0.73633(2) 0.0102 Uani
O1A O 0.71212(8) 0.48920(15) 0.18839(17) 0.0124 Uani
O2E O 0.25240(8) 0.60131(15) 0.02654(17) 0.0117 Uani
O3B O 0.82820(8) 0.77473(15) 0.41328(18) 0.0127 Uani
O3C O 0.17180(8) 0.77473(15) 0.08672(18) 0.0127 Uani
O7 O 0.07754(13) 0.3995(2) 0.2668(2) 0.0420 Uani
H7 H 0.0373(14) 0.455(3) 0.239(5) 0.0990 Uiso
H8 H 0.099(2) 0.427(4) 0.3778(19) 0.1160 Uiso
loop_
_atom_site_aniso_label
_atom_site_aniso_U_11
_atom_site_aniso_U_22
_atom_site_aniso_U_33
_atom_site_aniso_U_23
_atom_site_aniso_U_13
_atom_site_aniso_U_12
Mo1 0.01321(10) 0.00889(9) 0.01022(9) -0.00051(9) 0.00643(7) 0.00026(10)
P1 0.0096(3) 0.0101(3) 0.0083(3) 0.0005(2) 0.0040(2) -0.0024(2)
O1 0.0151(9) 0.0116(9) 0.0125(8) 0.0031(7) 0.0076(6) 0.0022(7)
O2 0.0107(9) 0.0141(8) 0.0114(8) 0.0004(7) 0.0052(7) -0.0013(7)
O3 0.0128(9) 0.0095(9) 0.0165(8) 0.0001(7) 0.0061(7) -0.0016(7)
O4 0.0197(10) 0.0132(9) 0.0162(8) -0.0005(7) 0.0027(7) -0.0017(8)
O5 0.0283(10) 0.0208(9) 0.0220(9) -0.0005(8) 0.0173(8) 0.0031(9)
O6 0.0158(10) 0.0159(10) 0.0222(9) -0.0007(8) 0.0088(8) -0.0017(8)
C1 0.0129(13) 0.0288(16) 0.0113(11) -0.0047(11) 0.0047(10) -0.0067(11)
C2 0.0096(12) 0.0279(16) 0.0089(11) -0.0045(10) 0.0003(9) -0.0078(11)
C3 0.0122(13) 0.0239(14) 0.0171(12) -0.0058(11) 0.0035(10) -0.0030(10)
C4 0.0156(13) 0.0210(16) 0.0184(12) -0.0017(10) 0.0052(10) -0.0077(11)
P1D 0.0096 0.0101 0.0083 0.0005 0.004 -0.0024
O1D 0.0151 0.0116 0.0125 0.0031 0.0076 0.0022
O2D 0.0107 0.0141 0.0114 0.0004 0.0052 -0.0013
O3D 0.0128 0.0095 0.0165 0.0001 0.0061 -0.0016
C1D 0.0129 0.0288 0.0113 -0.0047 0.0047 -0.0067
C2D 0.0096 0.0279 0.0089 -0.0045 0.0003 -0.0078
C3D 0.0122 0.0239 0.0171 -0.0058 0.0035 -0.003
C4D 0.0156 0.021 0.0184 -0.0017 0.0052 -0.0077
Mo1A 0.01321 0.00889 0.01022 0.00051 0.00643 -0.00026
O4A 0.0197 0.0132 0.0162 0.0005 0.0027 0.0017
O5A 0.0283 0.0208 0.022 0.0005 0.0173 -0.0031
O6A 0.0158 0.0159 0.0222 0.0007 0.0088 0.0017
Mo1C 0.01321 0.00889 0.01022 0.00051 0.00643 -0.00026
Mo1D 0.01321 0.00889 0.01022 -0.00051 0.00643 0.00026
Mo1E 0.01321 0.00889 0.01022 0.00051 0.00643 -0.00026
Mo1G 0.01321 0.00889 0.01022 0.00051 0.00643 -0.00026
O1A 0.0151 0.0116 0.0125 -0.0031 0.0076 -0.0022
O2E 0.0107 0.0141 0.0114 -0.0004 0.0052 0.0013
O3B 0.0128 0.0095 0.0165 0.0001 0.0061 -0.0016
O3C 0.0128 0.0095 0.0165 -0.0001 0.0061 0.0016
O7 0.0417(15) 0.0538(16) 0.0289(12) 0.0035(11) 0.0113(11) -0.0157(12)
loop_
_geom_bond_atom_site_label_1
_geom_bond_atom_site_label_2
_geom_bond_site_symmetry_1
_geom_bond_site_symmetry_2
Mo1 O1 1_555 1_555
P1 O1 1_555 1_555
O2 P1 1_555 1_555
O3 P1 1_555 1_555
O4 Mo1 1_555 1_555
O5 Mo1 1_555 1_555
O6 Mo1 1_555 1_555
C1 P1 1_555 1_555
H1 C1 1_555 1_555
H2 C1 1_555 1_555
C2 C1 1_555 1_555
C3 C2 1_555 1_555
H3 C3 1_555 1_555
C4 C3 1_555 1_555
H4 C4 1_555 1_555
H5 O6 1_555 1_555
H6 O6 1_555 1_555
O7 H7 1_555 1_555
H8 O7 1_555 1_555
P1D O1D 1_555 1_555
O1D Mo1D 1_555 1_555
O2D P1D 1_555 1_555
O3D P1D 1_555 1_555
C1D P1D 1_555 1_555
H1D C1D 1_555 1_555
H2D C1D 1_555 1_555
C2D C4 1_555 1_555
C3D C2D 1_555 1_555
H3D C3D 1_555 1_555
C4D C2 1_555 1_555
H4D C4D 1_555 1_555
Mo1A O2D 1_555 1_555
O4A Mo1A 1_555 1_555
O5A Mo1A 1_555 1_555
O6A Mo1A 1_555 1_555
H5A O6A 1_555 1_555
H6A O6A 1_555 1_555
Mo1C O3 1_555 1_555
Mo1E O2 1_555 1_555
Mo1G O3D 1_555 1_555
O1A Mo1A 1_555 1_555
O2E Mo1 1_555 1_555
O3B Mo1A 1_555 1_555
O3C Mo1 1_555 1_555
C1D C2D 1_555 1_555
C3D C4D 1_555 1_555

#END
