
#######################################################################
#
#                 Cambridge Crystallographic Data Centre
#                                CCDC 
#
#######################################################################
#
# If this CIF has been generated from an entry in the Cambridge 
# Structural Database, then it will include bibliographic, chemical, 
# crystal, experimental, refinement or atomic coordinate data resulting 
# from the CCDC's data processing and validation procedures.
#
#######################################################################

data_CUVHEH
_chemical_formula_moiety         '(C15 H19 I3 N3 Nd1 O9)n'
_symmetry_cell_setting           rhombohedral
_symmetry_space_group_name_H-M   'R -3'
_symmetry_Int_Tables_number      148
_space_group_name_Hall           '-R 3'
loop_
_symmetry_equiv_pos_site_id
_symmetry_equiv_pos_as_xyz
1 x,y,z
2 -y,x-y,z
3 -x+y,-x,z
4 2/3+x,1/3+y,1/3+z
5 2/3-y,1/3+x-y,1/3+z
6 2/3-x+y,1/3-x,1/3+z
7 1/3+x,2/3+y,2/3+z
8 1/3-y,2/3+x-y,2/3+z
9 1/3-x+y,2/3-x,2/3+z
10 -x,-y,-z
11 y,-x+y,-z
12 x-y,x,-z
13 1/3-x,2/3-y,2/3-z
14 1/3+y,2/3-x+y,2/3-z
15 1/3+x-y,2/3+x,2/3-z
16 2/3-x,1/3-y,1/3-z
17 2/3+y,1/3-x+y,1/3-z
18 2/3+x-y,1/3+x,1/3-z
_cell_length_a                   36.405(3)
_cell_length_b                   36.405(3)
_cell_length_c                   11.6941(17)
_cell_angle_alpha                90
_cell_angle_beta                 90
_cell_angle_gamma                120
_cell_volume                     13422.1
loop_
_atom_site_label
_atom_site_type_symbol
_atom_site_fract_x
_atom_site_fract_y
_atom_site_fract_z
_atom_site_U_iso_or_equiv
_atom_site_thermal_displace_type
Nd1 Nd 0.379739(9) 0.149835(8) 0.67494(2) 0.0241 Uani
O2 O 0.41056(13) 0.22510(12) 0.6278(4) 0.0345 Uani
O3 O 0.35941(13) 0.24258(12) 0.6379(4) 0.0349 Uani
O4 O 0.44794(16) 0.40512(16) 0.8066(4) 0.0478 Uani
O5 O 0.51227(16) 0.41441(17) 0.8166(4) 0.0503 Uani
O6 O 0.34083(13) 0.17450(13) 0.7885(3) 0.0325 Uani
O7 O 0.2983(2) 0.1905(2) 0.8777(4) 0.0597 Uani
O8 O 0.45105(16) 0.17374(17) 0.5969(5) 0.0541 Uani
O9 O 0.38179(17) 0.08582(15) 0.6092(5) 0.0504 Uani
C1 C 0.39655(18) 0.25026(16) 0.6235(5) 0.0286 Uani
C2 C 0.42751(18) 0.29674(16) 0.5983(5) 0.0281 Uani
C3 C 0.44286(19) 0.32557(17) 0.6885(5) 0.0309 Uani
C4 C 0.46549(18) 0.36912(17) 0.6688(5) 0.0310 Uani
C5 C 0.4767(2) 0.39922(18) 0.7701(5) 0.0350 Uani
C6 C 0.47359(19) 0.38358(17) 0.5562(5) 0.0321 Uani
C7 C 0.4604(2) 0.35590(18) 0.4615(5) 0.0336 Uani
C8 C 0.43724(19) 0.31199(17) 0.4871(4) 0.0306 Uani
C9 C 0.3276(3) 0.1824(3) 0.8768(5) 0.0467 Uani
C10 C 0.4715(5) 0.2009(5) 0.5285(14) 0.1161 Uani
H1 H 0.4588 0.2148 0.4943 0.1390 Uiso
C11 C 0.5263(13) 0.2418(12) 0.400(3) 0.3100 Uiso
H2 H 0.5095 0.2552 0.3914 0.4690 Uiso
H3 H 0.5243 0.2263 0.3315 0.4690 Uiso
H4 H 0.5554 0.2630 0.4127 0.4690 Uiso
C12 C 0.5299(7) 0.1833(10) 0.546(3) 0.2369 Uani
H5 H 0.5145 0.1683 0.6131 0.3550 Uiso
H6 H 0.5593 0.2012 0.5649 0.3550 Uiso
H7 H 0.5271 0.1634 0.4882 0.3550 Uiso
C13 C 0.3532(3) 0.0506(2) 0.5826(7) 0.0531 Uani
H8 H 0.3261 0.0470 0.5766 0.0640 Uiso
C14 C 0.3974(3) 0.0195(3) 0.5693(11) 0.0808 Uani
H9 H 0.4190 0.0483 0.5838 0.1210 Uiso
H10 H 0.4034 0.0100 0.4988 0.1210 Uiso
H11 H 0.3969 0.0017 0.6308 0.1210 Uiso
C15 C 0.3209(4) -0.0243(3) 0.5408(14) 0.1079 Uani
H12 H 0.2957 -0.0221 0.5371 0.1620 Uiso
H13 H 0.3182 -0.0431 0.6020 0.1620 Uiso
H14 H 0.3246 -0.0353 0.4698 0.1620 Uiso
N1 N 0.4685(2) 0.37037(18) 0.3512(5) 0.0533 Uani
N2 N 0.5106(4) 0.2124(6) 0.4982(17) 0.1718 Uani
N3 N 0.3572(2) 0.0171(2) 0.5615(6) 0.0576 Uani
I1 I 0.43329(2) 0.301897(17) 0.85625(4) 0.0665 Uani
I2 I 0.506275(19) 0.449228(13) 0.52525(4) 0.0556 Uani
I3 I 0.41719(2) 0.268103(15) 0.35274(4) 0.0631 Uani
Nd1O Nd 0.286928(9) 0.183498(8) 0.65839(2) 0.0241 Uani
Nd1M Nd 0.483168(8) 0.436763(12) 0.99173(2) 0.0241 Uani
O3O O 0.30726(13) 0.09075(12) 0.6954(4) 0.0349 Uani
O4N O 0.37615(23) 0.11461(16) 0.8601(4) 0.0478 Uani
O5N O 0.43119(23) 0.17894(16) 0.8501(4) 0.0503 Uani
O6O O 0.32584(13) 0.15883(13) 0.5448(3) 0.0325 Uani
O7O O 0.3684(2) 0.1428(2) 0.4556(4) 0.0597 Uani
O1 O 0.558(2) 0.346(3) 0.656(6) 0.4911 Uani
loop_
_atom_site_aniso_label
_atom_site_aniso_U_11
_atom_site_aniso_U_22
_atom_site_aniso_U_33
_atom_site_aniso_U_23
_atom_site_aniso_U_13
_atom_site_aniso_U_12
Nd1 0.03004(16) 0.02276(15) 0.02472(16) 0.00172(10) 0.00146(10) 0.01709(12)
O2 0.038(2) 0.0252(19) 0.043(2) 0.0037(16) 0.0042(18) 0.0178(17)
O3 0.033(2) 0.0248(19) 0.046(2) 0.0011(17) -0.0010(17) 0.0138(16)
O4 0.044(3) 0.053(3) 0.046(3) -0.023(2) -0.008(2) 0.024(2)
O5 0.042(3) 0.054(3) 0.047(3) -0.019(2) -0.009(2) 0.018(2)
O6 0.040(2) 0.036(2) 0.030(2) 0.0004(16) 0.0034(16) 0.0254(18)
O7 0.081(4) 0.107(5) 0.031(2) -0.009(3) -0.002(2) 0.077(4)
O8 0.041(3) 0.054(3) 0.069(3) 0.009(3) 0.020(2) 0.025(2)
O9 0.058(3) 0.035(2) 0.066(3) -0.007(2) -0.001(2) 0.029(2)
C1 0.037(3) 0.022(2) 0.027(3) 0.0014(19) 0.001(2) 0.015(2)
C2 0.033(3) 0.021(2) 0.031(3) 0.000(2) 0.003(2) 0.014(2)
C3 0.041(3) 0.026(3) 0.022(2) 0.003(2) 0.001(2) 0.014(2)
C4 0.034(3) 0.026(3) 0.029(3) -0.004(2) 0.001(2) 0.012(2)
C5 0.043(3) 0.024(3) 0.029(3) -0.002(2) 0.000(2) 0.010(2)
C6 0.041(3) 0.020(2) 0.031(3) 0.004(2) 0.007(2) 0.012(2)
C7 0.049(3) 0.027(3) 0.026(3) 0.003(2) 0.006(2) 0.020(3)
C8 0.045(3) 0.025(3) 0.021(2) -0.0048(19) 0.001(2) 0.017(2)
C9 0.064(4) 0.070(5) 0.028(3) -0.004(3) -0.002(3) 0.050(4)
C10 0.093(9) 0.120(11) 0.147(13) 0.038(10) 0.048(9) 0.062(9)
C12 0.103(15) 0.31(4) 0.32(4) 0.00(3) 0.035(19) 0.12(2)
C13 0.053(4) 0.046(4) 0.070(5) -0.013(3) -0.007(4) 0.032(4)
C14 0.080(7) 0.062(6) 0.117(9) -0.023(6) -0.011(6) 0.048(5)
C15 0.074(7) 0.050(5) 0.189(15) -0.044(7) -0.020(8) 0.023(5)
N1 0.092(5) 0.032(3) 0.028(3) 0.009(2) 0.014(3) 0.025(3)
N2 0.081(8) 0.208(17) 0.198(16) 0.092(14) 0.066(10) 0.051(10)
N3 0.066(4) 0.039(3) 0.074(5) -0.013(3) 0.000(3) 0.031(3)
I1 0.0984(5) 0.0465(3) 0.0323(2) 0.00511(19) -0.0026(2) 0.0194(3)
I2 0.0821(4) 0.0222(2) 0.0416(3) 0.00324(16) 0.0122(2) 0.0105(2)
I3 0.1110(5) 0.0339(2) 0.0306(2) -0.00818(17) -0.0018(2) 0.0259(3)
Nd1O 0.03004 0.02276 0.02472 0.00172 0.00146 0.01709
Nd1M 0.02276 0.01862 0.02472 -0.00026 -0.00172 0.00567
O3O 0.033 0.0248 0.046 0.0011 -0.001 0.0138
O4N 0.049 0.044 0.046 0.008 -0.015 0.02
O5N 0.06 0.042 0.047 0.009 -0.01 0.024
O6O 0.04 0.036 0.03 0.0004 0.0034 0.0254
O7O 0.081 0.107 0.031 -0.009 -0.002 0.077
O1 0.30(7) 0.91(18) 0.42(9) 0.25(10) 0.16(6) 0.42(10)
loop_
_geom_bond_atom_site_label_1
_geom_bond_atom_site_label_2
_geom_bond_site_symmetry_1
_geom_bond_site_symmetry_2
Nd1 O2 1_555 1_555
O2 C1 1_555 1_555
O3 C1 1_555 1_555
O4 C5 1_555 1_555
O5 C5 1_555 1_555
O6 Nd1 1_555 1_555
O7 C9 1_555 1_555
O8 Nd1 1_555 1_555
O9 Nd1 1_555 1_555
C1 C2 1_555 1_555
C2 C3 1_555 1_555
C3 C4 1_555 1_555
C4 C5 1_555 1_555
C6 C4 1_555 1_555
C7 C6 1_555 1_555
C8 C2 1_555 1_555
C9 O6 1_555 1_555
C10 O8 1_555 1_555
H1 C10 1_555 1_555
C11 H2 1_555 1_555
H3 C11 1_555 1_555
H4 C11 1_555 1_555
C12 H5 1_555 1_555
H6 C12 1_555 1_555
H7 C12 1_555 1_555
C13 O9 1_555 1_555
H8 C13 1_555 1_555
C14 H9 1_555 1_555
H10 C14 1_555 1_555
H11 C14 1_555 1_555
C15 H12 1_555 1_555
H13 C15 1_555 1_555
H14 C15 1_555 1_555
N1 C7 1_555 1_555
N2 C10 1_555 1_555
N3 C13 1_555 1_555
I1 C3 1_555 1_555
I2 C6 1_555 1_555
I3 C8 1_555 1_555
Nd1O O3 1_555 1_555
Nd1M O4 1_555 1_555
O3O Nd1 1_555 1_555
O4N Nd1 1_555 1_555
O5N Nd1 1_555 1_555
O6O Nd1 1_555 1_555
O7O Nd1 1_555 1_555
O5 Nd1M 1_555 1_555
O6 Nd1O 1_555 1_555
O7 Nd1O 1_555 1_555
C7 C8 1_555 1_555
C11 N2 1_555 1_555
C12 N2 1_555 1_555
C14 N3 1_555 1_555
C15 N3 1_555 1_555
Nd1O O6O 1_555 1_555

#END
