
#######################################################################
#
#                 Cambridge Crystallographic Data Centre
#                                CCDC 
#
#######################################################################
#
# If this CIF has been generated from an entry in the Cambridge 
# Structural Database, then it will include bibliographic, chemical, 
# crystal, experimental, refinement or atomic coordinate data resulting 
# from the CCDC's data processing and validation procedures.
#
#######################################################################

data_RULXUS
_chemical_formula_moiety         'C192 H96 Mn34 N24 O75'
_symmetry_cell_setting           cubic
_symmetry_space_group_name_H-M   'I m -3 m'
_symmetry_Int_Tables_number      229
_space_group_name_Hall           '-I 4 2 3'
loop_
_symmetry_equiv_pos_site_id
_symmetry_equiv_pos_as_xyz
1 x,y,z
2 z,x,y
3 y,z,x
4 y,x,-z
5 y,-x,z
6 -y,x,z
7 x,z,-y
8 -x,z,y
9 x,-z,y
10 z,y,-x
11 z,-y,x
12 -z,y,x
13 1/2+x,1/2+y,1/2+z
14 1/2+z,1/2+x,1/2+y
15 1/2+y,1/2+z,1/2+x
16 1/2+y,1/2+x,1/2-z
17 1/2+y,1/2-x,1/2+z
18 1/2-y,1/2+x,1/2+z
19 1/2+x,1/2+z,1/2-y
20 1/2-x,1/2+z,1/2+y
21 1/2+x,1/2-z,1/2+y
22 1/2+z,1/2+y,1/2-x
23 1/2+z,1/2-y,1/2+x
24 1/2-z,1/2+y,1/2+x
25 -x,-y,z
26 -x,y,-z
27 x,-y,-z
28 z,-x,-y
29 -z,-x,y
30 -z,x,-y
31 -y,z,-x
32 y,-z,-x
33 -y,-z,x
34 -y,-x,-z
35 -x,-z,-y
36 -z,-y,-x
37 1/2-x,1/2-y,1/2+z
38 1/2-x,1/2+y,1/2-z
39 1/2+x,1/2-y,1/2-z
40 1/2+z,1/2-x,1/2-y
41 1/2-z,1/2-x,1/2+y
42 1/2-z,1/2+x,1/2-y
43 1/2-y,1/2+z,1/2-x
44 1/2+y,1/2-z,1/2-x
45 1/2-y,1/2-z,1/2+x
46 1/2-y,1/2-x,1/2-z
47 1/2-x,1/2-z,1/2-y
48 1/2-z,1/2-y,1/2-x
49 -x,-y,-z
50 -z,-x,-y
51 -y,-z,-x
52 -y,-x,z
53 -y,x,-z
54 y,-x,-z
55 -x,-z,y
56 x,-z,-y
57 -x,z,-y
58 -z,-y,x
59 -z,y,-x
60 z,-y,-x
61 1/2-x,1/2-y,1/2-z
62 1/2-z,1/2-x,1/2-y
63 1/2-y,1/2-z,1/2-x
64 1/2-y,1/2-x,1/2+z
65 1/2-y,1/2+x,1/2-z
66 1/2+y,1/2-x,1/2-z
67 1/2-x,1/2-z,1/2+y
68 1/2+x,1/2-z,1/2-y
69 1/2-x,1/2+z,1/2-y
70 1/2-z,1/2-y,1/2+x
71 1/2-z,1/2+y,1/2-x
72 1/2+z,1/2-y,1/2-x
73 x,y,-z
74 x,-y,z
75 -x,y,z
76 -z,x,y
77 z,x,-y
78 z,-x,y
79 y,-z,x
80 -y,z,x
81 y,z,-x
82 y,x,z
83 x,z,y
84 z,y,x
85 1/2+x,1/2+y,1/2-z
86 1/2+x,1/2-y,1/2+z
87 1/2-x,1/2+y,1/2+z
88 1/2-z,1/2+x,1/2+y
89 1/2+z,1/2+x,1/2-y
90 1/2+z,1/2-x,1/2+y
91 1/2+y,1/2-z,1/2+x
92 1/2-y,1/2+z,1/2+x
93 1/2+y,1/2+z,1/2-x
94 1/2+y,1/2+x,1/2+z
95 1/2+x,1/2+z,1/2+y
96 1/2+z,1/2+y,1/2+x
_cell_length_a                   25.5155(6)
_cell_length_b                   25.5155(6)
_cell_length_c                   25.5155(6)
_cell_angle_alpha                90
_cell_angle_beta                 90
_cell_angle_gamma                90
_cell_volume                     16611.6
loop_
_atom_site_label
_atom_site_type_symbol
_atom_site_fract_x
_atom_site_fract_y
_atom_site_fract_z
O1 O 0.5000 0.5000 0.0000
C1 C 0.4072(8) 0.4072(8) -0.0766(15)
C2 C 0.3809(3) 0.3809(3) -0.1154(4)
C3 C 0.3998(5) 0.3367(5) -0.1360(5)
H1 H 0.4300 0.3219 -0.1219
C4 C 0.3754(4) 0.3126(5) -0.1779(4)
H2 H 0.3888 0.2810 -0.1900
C5 C 0.3329(3) 0.3329(3) -0.2022(4)
C6 C 0.3124(3) 0.3124(3) -0.2481(3)
N1 N 0.3332(3) 0.2695(3) -0.2695(3)
O2 O 0.4426(2) 0.3911(7) -0.0515(4)
Mn1 Mn 0.5000 0.41401(10) 0.0000
O1A O 1.0000 0.5000 0.5000
O1B O 0.5000 0.0000 0.5000
C1CB C 0.4072(8) 0.0766(15) -0.4072(8)
C1FB C 0.0766(15) 0.4072(8) -0.4072(8)
C1ZA C 0.5928(8) 0.4072(8) 0.0766(15)
C1VA C 0.5928(8) 0.5928(8) 0.0766(15)
C1D C 0.4072(8) 0.5928(8) -0.0766(15)
C1A C 0.9234(15) 0.4072(8) 0.4072(8)
C1BB C 0.5928(8) 0.0766(15) 0.4072(8)
C1G C 0.5928(8) 0.9234(15) 0.4072(8)
C1J C 0.9234(15) 0.5928(8) 0.4072(8)
C1WA C 0.0766(15) 0.5928(8) -0.4072(8)
C1F C 0.4072(8) 0.9234(15) -0.4072(8)
C1FB_2 C 1.0766(15) 0.4072(8) 0.5928(8)
C1WA_2 C 1.0766(15) 0.5928(8) 0.5928(8)
C1CB_2 C 1.4072(8) 0.0766(15) 0.5928(8)
C1_2 C 1.4072(8) 0.4072(8) 0.9234(15)
C1F_2 C 1.4072(8) 0.9234(15) 0.5928(8)
C1D_2 C 1.4072(8) 0.5928(8) 0.9234(15)
C1B C 0.4072(8) -0.0766(15) 0.4072(8)
C1XA C 0.5928(8) 0.0766(15) 0.5928(8)
C1AB C 0.4072(8) -0.4072(8) 0.0766(15)
C1EB C 0.0766(15) -0.4072(8) 0.4072(8)
C1E C 0.5928(8) 0.4072(8) 0.9234(15)
C1I C 0.9234(15) 0.4072(8) 0.5928(8)
C2CB C 0.3809(3) 0.1154(4) -0.3809(3)
C2FB C 0.1154(4) 0.3809(3) -0.3809(3)
C2ZA C 0.6191(3) 0.3809(3) 0.1154(4)
C2VA C 0.6191(3) 0.6191(3) 0.1154(4)
C2D C 0.3809(3) 0.6191(3) -0.1154(4)
C2A C 0.8846(4) 0.3809(3) 0.3809(3)
C2BB C 0.6191(3) 0.1154(4) 0.3809(3)
C2G C 0.6191(3) 0.8846(4) 0.3809(3)
C2J C 0.8846(4) 0.6191(3) 0.3809(3)
C2WA C 0.1154(4) 0.6191(3) -0.3809(3)
C2F C 0.3809(3) 0.8846(4) -0.3809(3)
C2FB_2 C 1.1154(4) 0.3809(3) 0.6191(3)
C2WA_2 C 1.1154(4) 0.6191(3) 0.6191(3)
C2CB_2 C 1.3809(3) 0.1154(4) 0.6191(3)
C2_2 C 1.3809(3) 0.3809(3) 0.8846(4)
C2F_2 C 1.3809(3) 0.8846(4) 0.6191(3)
C2D_2 C 1.3809(3) 0.6191(3) 0.8846(4)
C2B C 0.3809(3) -0.1154(4) 0.3809(3)
C2XA C 0.6191(3) 0.1154(4) 0.6191(3)
C2AB C 0.3809(3) -0.3809(3) 0.1154(4)
C2EB C 0.1154(4) -0.3809(3) 0.3809(3)
C2E C 0.6191(3) 0.3809(3) 0.8846(4)
C2I C 0.8846(4) 0.3809(3) 0.6191(3)
C3CC C 0.3367(5) 0.3998(5) -0.1360(5)
C3CB C 0.3998(5) 0.1360(5) -0.3367(5)
C3EA C 0.3367(5) 0.1360(5) -0.3998(5)
C3CA C 0.1360(5) 0.3998(5) -0.3367(5)
C3FB C 0.1360(5) 0.3367(5) -0.3998(5)
C3ZA C 0.6633(5) 0.3998(5) 0.1360(5)
C3Y C 0.6002(5) 0.3367(5) 0.1360(5)
C3VA C 0.6002(5) 0.6633(5) 0.1360(5)
C3GA C 0.6633(5) 0.6002(5) 0.1360(5)
C3D C 0.3367(5) 0.6002(5) -0.1360(5)
C3UB C 0.3998(5) 0.6633(5) -0.1360(5)
C3A C 0.8640(5) 0.3998(5) 0.3367(5)
C3EC C 0.8640(5) 0.3367(5) 0.3998(5)
C3BB C 0.6002(5) 0.1360(5) 0.3367(5)
C3FA C 0.6633(5) 0.1360(5) 0.3998(5)
C3G C 0.6002(5) 0.8640(5) 0.3367(5)
C3AC C 0.6633(5) 0.8640(5) 0.3998(5)
C3YB C 0.8640(5) 0.6002(5) 0.3367(5)
C3J C 0.8640(5) 0.6633(5) 0.3998(5)
C3WA C 0.1360(5) 0.6002(5) -0.3367(5)
C3IA C 0.1360(5) 0.6633(5) -0.3998(5)
C3F C 0.3998(5) 0.8640(5) -0.3367(5)
C3BC C 0.3367(5) 0.8640(5) -0.3998(5)
C3FB_2 C 1.1360(5) 0.3367(5) 0.6002(5)
C3CA_2 C 1.1360(5) 0.3998(5) 0.6633(5)
C3IA_2 C 1.1360(5) 0.6633(5) 0.6002(5)
C3WA_2 C 1.1360(5) 0.6002(5) 0.6633(5)
C3EA_2 C 1.3367(5) 0.1360(5) 0.6002(5)
C3CB_2 C 1.3998(5) 0.1360(5) 0.6633(5)
C3CC_2 C 1.3367(5) 0.3998(5) 0.8640(5)
C3_2 C 1.3998(5) 0.3367(5) 0.8640(5)
C3BC_2 C 1.3367(5) 0.8640(5) 0.6002(5)
C3F_2 C 1.3998(5) 0.8640(5) 0.6633(5)
C3D_2 C 1.3367(5) 0.6002(5) 0.8640(5)
C3UB_2 C 1.3998(5) 0.6633(5) 0.8640(5)
C3DC C 0.3998(5) -0.1360(5) 0.3367(5)
C3B C 0.3367(5) -0.1360(5) 0.3998(5)
C3HA C 0.6002(5) 0.1360(5) 0.6633(5)
C3XA C 0.6633(5) 0.1360(5) 0.6002(5)
C3Z C 0.3998(5) -0.3367(5) 0.1360(5)
C3AB C 0.3367(5) -0.3998(5) 0.1360(5)
C3EB C 0.1360(5) -0.3367(5) 0.3998(5)
C3BA C 0.1360(5) -0.3998(5) 0.3367(5)
C3VB C 0.6002(5) 0.3367(5) 0.8640(5)
C3E C 0.6633(5) 0.3998(5) 0.8640(5)
C3I C 0.8640(5) 0.3367(5) 0.6002(5)
C3XB C 0.8640(5) 0.3998(5) 0.6633(5)
H1CC H 0.3219 0.4300 -0.1219
H1CB H 0.4300 0.1219 -0.3219
H1EA H 0.3219 0.1219 -0.4300
H1CA H 0.1219 0.4300 -0.3219
H1FB H 0.1219 0.3219 -0.4300
H1ZA H 0.6781 0.4300 0.1219
H1Y H 0.5700 0.3219 0.1219
H1VA H 0.5700 0.6781 0.1219
H1GA H 0.6781 0.5700 0.1219
H1D H 0.3219 0.5700 -0.1219
H1UB H 0.4300 0.6781 -0.1219
H1A H 0.8781 0.4300 0.3219
H1EC H 0.8781 0.3219 0.4300
H1BB H 0.5700 0.1219 0.3219
H1FA H 0.6781 0.1219 0.4300
H1G H 0.5700 0.8781 0.3219
H1AC H 0.6781 0.8781 0.4300
H1YB H 0.8781 0.5700 0.3219
H1J H 0.8781 0.6781 0.4300
H1WA H 0.1219 0.5700 -0.3219
H1IA H 0.1219 0.6781 -0.4300
H1F H 0.4300 0.8781 -0.3219
H1BC H 0.3219 0.8781 -0.4300
H1FB_2 H 1.1219 0.3219 0.5700
H1CA_2 H 1.1219 0.4300 0.6781
H1IA_2 H 1.1219 0.6781 0.5700
H1WA_2 H 1.1219 0.5700 0.6781
H1EA_2 H 1.3219 0.1219 0.5700
H1CB_2 H 1.4300 0.1219 0.6781
H1CC_2 H 1.3219 0.4300 0.8781
H1_2 H 1.4300 0.3219 0.8781
H1BC_2 H 1.3219 0.8781 0.5700
H1F_2 H 1.4300 0.8781 0.6781
H1D_2 H 1.3219 0.5700 0.8781
H1UB_2 H 1.4300 0.6781 0.8781
H1DC H 0.4300 -0.1219 0.3219
H1B H 0.3219 -0.1219 0.4300
H1HA H 0.5700 0.1219 0.6781
H1XA H 0.6781 0.1219 0.5700
H1Z H 0.4300 -0.3219 0.1219
H1AB H 0.3219 -0.4300 0.1219
H1EB H 0.1219 -0.3219 0.4300
H1BA H 0.1219 -0.4300 0.3219
H1VB H 0.5700 0.3219 0.8781
H1E H 0.6781 0.4300 0.8781
H1I H 0.8781 0.3219 0.5700
H1XB H 0.8781 0.4300 0.6781
C4CC C 0.3126(5) 0.3754(4) -0.1779(4)
C4CB C 0.3754(4) 0.1779(4) -0.3126(5)
C4EA C 0.3126(5) 0.1779(4) -0.3754(4)
C4CA C 0.1779(4) 0.3754(4) -0.3126(5)
C4FB C 0.1779(4) 0.3126(5) -0.3754(4)
C4ZA C 0.6874(5) 0.3754(4) 0.1779(4)
C4Y C 0.6246(4) 0.3126(5) 0.1779(4)
C4VA C 0.6246(4) 0.6874(5) 0.1779(4)
C4GA C 0.6874(5) 0.6246(4) 0.1779(4)
C4D C 0.3126(5) 0.6246(4) -0.1779(4)
C4UB C 0.3754(4) 0.6874(5) -0.1779(4)
C4A C 0.8221(4) 0.3754(4) 0.3126(5)
C4EC C 0.8221(4) 0.3126(5) 0.3754(4)
C4BB C 0.6246(4) 0.1779(4) 0.3126(5)
C4FA C 0.6874(5) 0.1779(4) 0.3754(4)
C4G C 0.6246(4) 0.8221(4) 0.3126(5)
C4AC C 0.6874(5) 0.8221(4) 0.3754(4)
C4YB C 0.8221(4) 0.6246(4) 0.3126(5)
C4J C 0.8221(4) 0.6874(5) 0.3754(4)
C4WA C 0.1779(4) 0.6246(4) -0.3126(5)
C4IA C 0.1779(4) 0.6874(5) -0.3754(4)
C4F C 0.3754(4) 0.8221(4) -0.3126(5)
C4BC C 0.3126(5) 0.8221(4) -0.3754(4)
C4FB_2 C 1.1779(4) 0.3126(5) 0.6246(4)
C4CA_2 C 1.1779(4) 0.3754(4) 0.6874(5)
C4IA_2 C 1.1779(4) 0.6874(5) 0.6246(4)
C4WA_2 C 1.1779(4) 0.6246(4) 0.6874(5)
C4EA_2 C 1.3126(5) 0.1779(4) 0.6246(4)
C4CB_2 C 1.3754(4) 0.1779(4) 0.6874(5)
C4CC_2 C 1.3126(5) 0.3754(4) 0.8221(4)
C4_2 C 1.3754(4) 0.3126(5) 0.8221(4)
C4BC_2 C 1.3126(5) 0.8221(4) 0.6246(4)
C4F_2 C 1.3754(4) 0.8221(4) 0.6874(5)
C4D_2 C 1.3126(5) 0.6246(4) 0.8221(4)
C4UB_2 C 1.3754(4) 0.6874(5) 0.8221(4)
C4DC C 0.3754(4) -0.1779(4) 0.3126(5)
C4B C 0.3126(5) -0.1779(4) 0.3754(4)
C4HA C 0.6246(4) 0.1779(4) 0.6874(5)
C4XA C 0.6874(5) 0.1779(4) 0.6246(4)
C4Z C 0.3754(4) -0.3126(5) 0.1779(4)
C4AB C 0.3126(5) -0.3754(4) 0.1779(4)
C4EB C 0.1779(4) -0.3126(5) 0.3754(4)
C4BA C 0.1779(4) -0.3754(4) 0.3126(5)
C4VB C 0.6246(4) 0.3126(5) 0.8221(4)
C4E C 0.6874(5) 0.3754(4) 0.8221(4)
C4I C 0.8221(4) 0.3126(5) 0.6246(4)
C4XB C 0.8221(4) 0.3754(4) 0.6874(5)
H2CC H 0.2810 0.3888 -0.1900
H2CB H 0.3888 0.1900 -0.2810
H2EA H 0.2810 0.1900 -0.3888
H2CA H 0.1900 0.3888 -0.2810
H2FB H 0.1900 0.2810 -0.3888
H2ZA H 0.7190 0.3888 0.1900
H2Y H 0.6112 0.2810 0.1900
H2VA H 0.6112 0.7190 0.1900
H2GA H 0.7190 0.6112 0.1900
H2D H 0.2810 0.6112 -0.1900
H2UB H 0.3888 0.7190 -0.1900
H2A H 0.8100 0.3888 0.2810
H2EC H 0.8100 0.2810 0.3888
H2BB H 0.6112 0.1900 0.2810
H2FA H 0.7190 0.1900 0.3888
H2G H 0.6112 0.8100 0.2810
H2AC H 0.7190 0.8100 0.3888
H2YB H 0.8100 0.6112 0.2810
H2J H 0.8100 0.7190 0.3888
H2WA H 0.1900 0.6112 -0.2810
H2IA H 0.1900 0.7190 -0.3888
H2F H 0.3888 0.8100 -0.2810
H2BC H 0.2810 0.8100 -0.3888
H2FB_2 H 1.1900 0.2810 0.6112
H2CA_2 H 1.1900 0.3888 0.7190
H2IA_2 H 1.1900 0.7190 0.6112
H2WA_2 H 1.1900 0.6112 0.7190
H2EA_2 H 1.2810 0.1900 0.6112
H2CB_2 H 1.3888 0.1900 0.7190
H2CC_2 H 1.2810 0.3888 0.8100
H2_2 H 1.3888 0.2810 0.8100
H2BC_2 H 1.2810 0.8100 0.6112
H2F_2 H 1.3888 0.8100 0.7190
H2D_2 H 1.2810 0.6112 0.8100
H2UB_2 H 1.3888 0.7190 0.8100
H2DC H 0.3888 -0.1900 0.2810
H2B H 0.2810 -0.1900 0.3888
H2HA H 0.6112 0.1900 0.7190
H2XA H 0.7190 0.1900 0.6112
H2Z H 0.3888 -0.2810 0.1900
H2AB H 0.2810 -0.3888 0.1900
H2EB H 0.1900 -0.2810 0.3888
H2BA H 0.1900 -0.3888 0.2810
H2VB H 0.6112 0.2810 0.8100
H2E H 0.7190 0.3888 0.8100
H2I H 0.8100 0.2810 0.6112
H2XB H 0.8100 0.3888 0.7190
C5CB C 0.3329(3) 0.2022(4) -0.3329(3)
C5FB C 0.2022(4) 0.3329(3) -0.3329(3)
C5ZA C 0.6671(3) 0.3329(3) 0.2022(4)
C5VA C 0.6671(3) 0.6671(3) 0.2022(4)
C5D C 0.3329(3) 0.6671(3) -0.2022(4)
C5A C 0.7978(4) 0.3329(3) 0.3329(3)
C5BB C 0.6671(3) 0.2022(4) 0.3329(3)
C5G C 0.6671(3) 0.7978(4) 0.3329(3)
C5J C 0.7978(4) 0.6671(3) 0.3329(3)
C5WA C 0.2022(4) 0.6671(3) -0.3329(3)
C5F C 0.3329(3) 0.7978(4) -0.3329(3)
C5FB_2 C 1.2022(4) 0.3329(3) 0.6671(3)
C5WA_2 C 1.2022(4) 0.6671(3) 0.6671(3)
C5CB_2 C 1.3329(3) 0.2022(4) 0.6671(3)
C5_2 C 1.3329(3) 0.3329(3) 0.7978(4)
C5F_2 C 1.3329(3) 0.7978(4) 0.6671(3)
C5D_2 C 1.3329(3) 0.6671(3) 0.7978(4)
C5B C 0.3329(3) -0.2022(4) 0.3329(3)
C5XA C 0.6671(3) 0.2022(4) 0.6671(3)
C5AB C 0.3329(3) -0.3329(3) 0.2022(4)
C5EB C 0.2022(4) -0.3329(3) 0.3329(3)
C5E C 0.6671(3) 0.3329(3) 0.7978(4)
C5I C 0.7978(4) 0.3329(3) 0.6671(3)
C6CB C 0.3124(3) 0.2481(3) -0.3124(3)
C6FB C 0.2481(3) 0.3124(3) -0.3124(3)
C6ZA C 0.6876(3) 0.3124(3) 0.2481(3)
C6VA C 0.6876(3) 0.6876(3) 0.2481(3)
C6D C 0.3124(3) 0.6876(3) -0.2481(3)
C6A C 0.7519(3) 0.3124(3) 0.3124(3)
C6BB C 0.6876(3) 0.2481(3) 0.3124(3)
C6G C 0.6876(3) 0.7519(3) 0.3124(3)
C6J C 0.7519(3) 0.6876(3) 0.3124(3)
C6WA C 0.2481(3) 0.6876(3) -0.3124(3)
C6F C 0.3124(3) 0.7519(3) -0.3124(3)
C6FB_2 C 1.2481(3) 0.3124(3) 0.6876(3)
C6WA_2 C 1.2481(3) 0.6876(3) 0.6876(3)
C6CB_2 C 1.3124(3) 0.2481(3) 0.6876(3)
C6_2 C 1.3124(3) 0.3124(3) 0.7519(3)
C6F_2 C 1.3124(3) 0.7519(3) 0.6876(3)
C6D_2 C 1.3124(3) 0.6876(3) 0.7519(3)
C6B C 0.3124(3) -0.2481(3) 0.3124(3)
C6XA C 0.6876(3) 0.2481(3) 0.6876(3)
C6AB C 0.3124(3) -0.3124(3) 0.2481(3)
C6EB C 0.2481(3) -0.3124(3) 0.3124(3)
C6E C 0.6876(3) 0.3124(3) 0.7519(3)
C6I C 0.7519(3) 0.3124(3) 0.6876(3)
N1CC N 0.2695(3) 0.3332(3) -0.2695(3)
N1FB N 0.2695(3) 0.2695(3) -0.3332(3)
N1A N 0.7305(3) 0.3332(3) 0.2695(3)
N1BB N 0.6668(3) 0.2695(3) 0.2695(3)
N1G N 0.6668(3) 0.7305(3) 0.2695(3)
N1YB N 0.7305(3) 0.6668(3) 0.2695(3)
N1D N 0.2695(3) 0.6668(3) -0.2695(3)
N1F N 0.3332(3) 0.7305(3) -0.2695(3)
N1EC N 0.7305(3) 0.2695(3) 0.3332(3)
N1J N 0.7305(3) 0.7305(3) 0.3332(3)
N1BC N 0.2695(3) 0.7305(3) -0.3332(3)
N1FB_2 N 1.2695(3) 0.2695(3) 0.6668(3)
N1CC_2 N 1.2695(3) 0.3332(3) 0.7305(3)
N1BC_2 N 1.2695(3) 0.7305(3) 0.6668(3)
N1D_2 N 1.2695(3) 0.6668(3) 0.7305(3)
N1_2 N 1.3332(3) 0.2695(3) 0.7305(3)
N1F_2 N 1.3332(3) 0.7305(3) 0.7305(3)
N1DC N 0.3332(3) -0.2695(3) 0.2695(3)
N1B N 0.2695(3) -0.2695(3) 0.3332(3)
N1VB N 0.6668(3) 0.2695(3) 0.7305(3)
N1I N 0.7305(3) 0.2695(3) 0.6668(3)
N1AB N 0.2695(3) -0.3332(3) 0.2695(3)
N1E N 0.7305(3) 0.3332(3) 0.7305(3)
O2CC O 0.3911(7) 0.4426(2) -0.0515(4)
O2TB O 0.4426(2) 0.3911(7) 0.0515(4)
O2VB O 0.5574(2) 0.3911(7) -0.0515(4)
O2Y O 0.5574(2) 0.3911(7) 0.0515(4)
O2CB O 0.4426(2) 0.0515(4) -0.3911(7)
O2EA O 0.3911(7) 0.0515(4) -0.4426(2)
O2CA O 0.0515(4) 0.4426(2) -0.3911(7)
O2FB O 0.0515(4) 0.3911(7) -0.4426(2)
O2C O 0.3911(7) 0.4426(2) 0.0515(4)
O2D O 0.3911(7) 0.5574(2) -0.0515(4)
O2AB O 0.3911(7) 0.5574(2) 0.0515(4)
O2UB O 0.4426(2) 0.6089(7) -0.0515(4)
O2VA O 0.5574(2) 0.6089(7) 0.0515(4)
O2X O 0.5574(2) 0.6089(7) -0.0515(4)
O2Z O 0.4426(2) 0.6089(7) 0.0515(4)
O2E O 0.6089(7) 0.4426(2) -0.0515(4)
O2YA O 0.6089(7) 0.5574(2) -0.0515(4)
O2ZA O 0.6089(7) 0.4426(2) 0.0515(4)
O2GA O 0.6089(7) 0.5574(2) 0.0515(4)
O2A O 0.9485(4) 0.4426(2) 0.3911(7)
O2EC O 0.9485(4) 0.3911(7) 0.4426(2)
O2BB O 0.5574(2) 0.0515(4) 0.3911(7)
O2FA O 0.6089(7) 0.0515(4) 0.4426(2)
O2G O 0.5574(2) 0.9485(4) 0.3911(7)
O2AC O 0.6089(7) 0.9485(4) 0.4426(2)
O2YB O 0.9485(4) 0.5574(2) 0.3911(7)
O2J O 0.9485(4) 0.6089(7) 0.4426(2)
O2WA O 0.0515(4) 0.5574(2) -0.3911(7)
O2IA O 0.0515(4) 0.6089(7) -0.4426(2)
O2F O 0.4426(2) 0.9485(4) -0.3911(7)
O2BC O 0.3911(7) 0.9485(4) -0.4426(2)
O2WB O 1.0515(4) 0.4426(2) 0.3911(7)
O2BA O 1.0515(4) 0.5574(2) 0.3911(7)
O2EB O 1.0515(4) 0.6089(7) 0.4426(2)
O2GB O 0.9485(4) 0.6089(7) 0.5574(2)
O2IA_2 O 1.0515(4) 0.6089(7) 0.5574(2)
O2I O 0.9485(4) 0.3911(7) 0.5574(2)
O2K O 1.0515(4) 0.3911(7) 0.4426(2)
O2FB_2 O 1.0515(4) 0.3911(7) 0.5574(2)
O2CA_2 O 1.0515(4) 0.4426(2) 0.6089(7)
O2WA_2 O 1.0515(4) 0.5574(2) 0.6089(7)
O2EA_2 O 1.3911(7) 0.0515(4) 0.5574(2)
O2CB_2 O 1.4426(2) 0.0515(4) 0.6089(7)
O2CC_2 O 1.3911(7) 0.4426(2) 0.9485(4)
O2_2 O 1.4426(2) 0.3911(7) 0.9485(4)
O2BC_2 O 1.3911(7) 0.9485(4) 0.5574(2)
O2F_2 O 1.4426(2) 0.9485(4) 0.6089(7)
O2D_2 O 1.3911(7) 0.5574(2) 0.9485(4)
O2UB_2 O 1.4426(2) 0.6089(7) 0.9485(4)
O2XB O 0.9485(4) 0.4426(2) 0.6089(7)
O2AA O 0.9485(4) 0.5574(2) 0.6089(7)
O2G_2 O 0.5574(2) -0.0515(4) 0.3911(7)
O2H O 0.4426(2) 0.0515(4) 0.3911(7)
O2DC O 0.4426(2) -0.0515(4) 0.3911(7)
O2AC_2 O 0.6089(7) -0.0515(4) 0.4426(2)
O2XA O 0.6089(7) 0.0515(4) 0.5574(2)
O2DA O 0.6089(7) -0.0515(4) 0.5574(2)
O2F_3 O 0.4426(2) -0.0515(4) 0.6089(7)
O2CB_3 O 0.4426(2) 0.0515(4) 0.6089(7)
O2DB O 0.5574(2) -0.0515(4) 0.6089(7)
O2HA O 0.5574(2) 0.0515(4) 0.6089(7)
O2B O 0.3911(7) -0.0515(4) 0.4426(2)
O2ZB O 0.3911(7) 0.0515(4) 0.4426(2)
O2BC_3 O 0.3911(7) -0.0515(4) 0.5574(2)
O2EA_3 O 0.3911(7) 0.0515(4) 0.5574(2)
O2Z_2 O 0.4426(2) -0.3911(7) 0.0515(4)
O2AB_2 O 0.3911(7) -0.4426(2) 0.0515(4)
O2EB_2 O 0.0515(4) -0.3911(7) 0.4426(2)
O2BA_2 O 0.0515(4) -0.4426(2) 0.3911(7)
O2VB_2 O 0.5574(2) 0.3911(7) 0.9485(4)
O2E_2 O 0.6089(7) 0.4426(2) 0.9485(4)
Mn1C Mn 0.41401(10) 0.5000 0.0000
Mn1E Mn 0.58599(10) 0.5000 0.0000
Mn1UB Mn 0.5000 0.58599(10) 0.0000
Mn1F Mn 0.5000 0.0000 -0.41401(10)
Mn1B Mn 0.41401(10) 0.0000 -0.5000
Mn1XB Mn 0.0000 0.5000 -0.41401(10)
Mn1I Mn 0.0000 0.41401(10) -0.5000
Mn1A Mn 1.0000 0.5000 0.41401(10)
Mn1I_2 Mn 1.0000 0.41401(10) 0.5000
Mn1G Mn 0.5000 0.0000 0.41401(10)
Mn1AC Mn 0.58599(10) 0.0000 0.5000
Mn1G_2 Mn 0.5000 1.0000 0.41401(10)
Mn1AC_2 Mn 0.58599(10) 1.0000 0.5000
Mn1J Mn 1.0000 0.58599(10) 0.5000
Mn1J_2 Mn 0.0000 0.58599(10) -0.5000
Mn1F_2 Mn 0.5000 1.0000 -0.41401(10)
Mn1B_2 Mn 0.41401(10) 1.0000 -0.5000
Mn1XB_2 Mn 1.0000 0.5000 0.58599(10)
Mn1B_3 Mn 1.41401(10) 0.0000 0.5000
Mn1F_3 Mn 1.5000 0.0000 0.58599(10)
Mn1C_2 Mn 1.41401(10) 0.5000 1.0000
Mn1_2 Mn 1.5000 0.41401(10) 1.0000
Mn1B_4 Mn 1.41401(10) 1.0000 0.5000
Mn1F_4 Mn 1.5000 1.0000 0.58599(10)
Mn1UB_2 Mn 1.5000 0.58599(10) 1.0000
Mn1B_5 Mn 0.41401(10) 0.0000 0.5000
Mn1F_5 Mn 0.5000 0.0000 0.58599(10)
Mn1UB_3 Mn 0.5000 -0.41401(10) 0.0000
Mn1C_3 Mn 0.41401(10) -0.5000 0.0000
Mn1J_3 Mn 0.0000 -0.41401(10) 0.5000
Mn1A_2 Mn -0.0000 -0.5000 0.41401(10)
Mn1_3 Mn 0.5000 0.41401(10) 1.0000
Mn1E_2 Mn 0.58599(10) 0.5000 1.0000
loop_
_geom_bond_atom_site_label_1
_geom_bond_atom_site_label_2
_geom_bond_site_symmetry_1
_geom_bond_site_symmetry_2
O1 Mn1 1_555 1_555
C1 C2 1_555 1_555
C2 C3 1_555 1_555
C3 H1 1_555 1_555
C4 C3 1_555 1_555
H2 C4 1_555 1_555
C5 C4 1_555 1_555
C6 C5 1_555 1_555
N1 C6 1_555 1_555
O2 C1 1_555 1_555
Mn1 O2 1_555 1_555
O1A Mn1A 1_555 1_555
O1B Mn1G 1_555 1_555
C1CB C2CB 1_555 1_555
C1FB C2FB 1_555 1_555
C1ZA C2ZA 1_555 1_555
C1VA C2VA 1_555 1_555
C1D C2D 1_555 1_555
C1A C2A 1_555 1_555
C1BB C2BB 1_555 1_555
C1G C2G 1_555 1_555
C1J C2J 1_555 1_555
C1WA C2WA 1_555 1_555
C1F C2F 1_555 1_555
C1FB_2 C2FB_2 1_555 1_555
C1WA_2 C2WA_2 1_555 1_555
C1CB_2 C2CB_2 1_555 1_555
C1_2 C2_2 1_555 1_555
C1F_2 C2F_2 1_555 1_555
C1D_2 C2D_2 1_555 1_555
C1B C2B 1_555 1_555
C1XA C2XA 1_555 1_555
C1AB C2AB 1_555 1_555
C1EB C2EB 1_555 1_555
C1E C2E 1_555 1_555
C1I C2I 1_555 1_555
C2CB C3CB 1_555 1_555
C2FB C3CA 1_555 1_555
C2ZA C3ZA 1_555 1_555
C2VA C3VA 1_555 1_555
C2D C3D 1_555 1_555
C2A C3A 1_555 1_555
C2BB C3BB 1_555 1_555
C2G C3G 1_555 1_555
C2J C3YB 1_555 1_555
C2WA C3WA 1_555 1_555
C2F C3F 1_555 1_555
C2FB_2 C3FB_2 1_555 1_555
C2WA_2 C3IA_2 1_555 1_555
C2CB_2 C3EA_2 1_555 1_555
C2_2 C3CC_2 1_555 1_555
C2F_2 C3BC_2 1_555 1_555
C2D_2 C3D_2 1_555 1_555
C2B C3DC 1_555 1_555
C2XA C3HA 1_555 1_555
C2AB C3Z 1_555 1_555
C2EB C3EB 1_555 1_555
C2E C3VB 1_555 1_555
C2I C3I 1_555 1_555
C3CC C2 1_555 1_555
C3CB H1CB 1_555 1_555
C3EA C2CB 1_555 1_555
C3CA H1CA 1_555 1_555
C3FB C2FB 1_555 1_555
C3ZA H1ZA 1_555 1_555
C3Y C2ZA 1_555 1_555
C3VA H1VA 1_555 1_555
C3GA C2VA 1_555 1_555
C3D H1D 1_555 1_555
C3UB C2D 1_555 1_555
C3A H1A 1_555 1_555
C3EC C2A 1_555 1_555
C3BB H1BB 1_555 1_555
C3FA C2BB 1_555 1_555
C3G H1G 1_555 1_555
C3AC C2G 1_555 1_555
C3YB H1YB 1_555 1_555
C3J C2J 1_555 1_555
C3WA H1WA 1_555 1_555
C3IA C2WA 1_555 1_555
C3F H1F 1_555 1_555
C3BC C2F 1_555 1_555
C3FB_2 H1FB_2 1_555 1_555
C3CA_2 C2FB_2 1_555 1_555
C3IA_2 H1IA_2 1_555 1_555
C3WA_2 C2WA_2 1_555 1_555
C3EA_2 H1EA_2 1_555 1_555
C3CB_2 C2CB_2 1_555 1_555
C3CC_2 H1CC_2 1_555 1_555
C3_2 C2_2 1_555 1_555
C3BC_2 H1BC_2 1_555 1_555
C3F_2 C2F_2 1_555 1_555
C3D_2 H1D_2 1_555 1_555
C3UB_2 C2D_2 1_555 1_555
C3DC H1DC 1_555 1_555
C3B C2B 1_555 1_555
C3HA H1HA 1_555 1_555
C3XA C2XA 1_555 1_555
C3Z H1Z 1_555 1_555
C3AB C2AB 1_555 1_555
C3EB H1EB 1_555 1_555
C3BA C2EB 1_555 1_555
C3VB H1VB 1_555 1_555
C3E C2E 1_555 1_555
C3I H1I 1_555 1_555
C3XB C2I 1_555 1_555
H1CC C3CC 1_555 1_555
H1EA C3EA 1_555 1_555
H1FB C3FB 1_555 1_555
H1Y C3Y 1_555 1_555
H1GA C3GA 1_555 1_555
H1UB C3UB 1_555 1_555
H1EC C3EC 1_555 1_555
H1FA C3FA 1_555 1_555
H1AC C3AC 1_555 1_555
H1J C3J 1_555 1_555
H1IA C3IA 1_555 1_555
H1BC C3BC 1_555 1_555
H1CA_2 C3CA_2 1_555 1_555
H1WA_2 C3WA_2 1_555 1_555
H1CB_2 C3CB_2 1_555 1_555
H1_2 C3_2 1_555 1_555
H1F_2 C3F_2 1_555 1_555
H1UB_2 C3UB_2 1_555 1_555
H1B C3B 1_555 1_555
H1XA C3XA 1_555 1_555
H1AB C3AB 1_555 1_555
H1BA C3BA 1_555 1_555
H1E C3E 1_555 1_555
H1XB C3XB 1_555 1_555
C4CC C5 1_555 1_555
C4CB C3CB 1_555 1_555
C4EA C3EA 1_555 1_555
C4CA C3CA 1_555 1_555
C4FB C3FB 1_555 1_555
C4ZA C3ZA 1_555 1_555
C4Y C3Y 1_555 1_555
C4VA C3VA 1_555 1_555
C4GA C3GA 1_555 1_555
C4D C3D 1_555 1_555
C4UB C3UB 1_555 1_555
C4A C3A 1_555 1_555
C4EC C3EC 1_555 1_555
C4BB C3BB 1_555 1_555
C4FA C3FA 1_555 1_555
C4G C3G 1_555 1_555
C4AC C3AC 1_555 1_555
C4YB C3YB 1_555 1_555
C4J C3J 1_555 1_555
C4WA C3WA 1_555 1_555
C4IA C3IA 1_555 1_555
C4F C3F 1_555 1_555
C4BC C3BC 1_555 1_555
C4FB_2 C3FB_2 1_555 1_555
C4CA_2 C3CA_2 1_555 1_555
C4IA_2 C3IA_2 1_555 1_555
C4WA_2 C3WA_2 1_555 1_555
C4EA_2 C3EA_2 1_555 1_555
C4CB_2 C3CB_2 1_555 1_555
C4CC_2 C3CC_2 1_555 1_555
C4_2 C3_2 1_555 1_555
C4BC_2 C3BC_2 1_555 1_555
C4F_2 C3F_2 1_555 1_555
C4D_2 C3D_2 1_555 1_555
C4UB_2 C3UB_2 1_555 1_555
C4DC C3DC 1_555 1_555
C4B C3B 1_555 1_555
C4HA C3HA 1_555 1_555
C4XA C3XA 1_555 1_555
C4Z C3Z 1_555 1_555
C4AB C3AB 1_555 1_555
C4EB C3EB 1_555 1_555
C4BA C3BA 1_555 1_555
C4VB C3VB 1_555 1_555
C4E C3E 1_555 1_555
C4I C3I 1_555 1_555
C4XB C3XB 1_555 1_555
H2CC C4CC 1_555 1_555
H2CB C4CB 1_555 1_555
H2EA C4EA 1_555 1_555
H2CA C4CA 1_555 1_555
H2FB C4FB 1_555 1_555
H2ZA C4ZA 1_555 1_555
H2Y C4Y 1_555 1_555
H2VA C4VA 1_555 1_555
H2GA C4GA 1_555 1_555
H2D C4D 1_555 1_555
H2UB C4UB 1_555 1_555
H2A C4A 1_555 1_555
H2EC C4EC 1_555 1_555
H2BB C4BB 1_555 1_555
H2FA C4FA 1_555 1_555
H2G C4G 1_555 1_555
H2AC C4AC 1_555 1_555
H2YB C4YB 1_555 1_555
H2J C4J 1_555 1_555
H2WA C4WA 1_555 1_555
H2IA C4IA 1_555 1_555
H2F C4F 1_555 1_555
H2BC C4BC 1_555 1_555
H2FB_2 C4FB_2 1_555 1_555
H2CA_2 C4CA_2 1_555 1_555
H2IA_2 C4IA_2 1_555 1_555
H2WA_2 C4WA_2 1_555 1_555
H2EA_2 C4EA_2 1_555 1_555
H2CB_2 C4CB_2 1_555 1_555
H2CC_2 C4CC_2 1_555 1_555
H2_2 C4_2 1_555 1_555
H2BC_2 C4BC_2 1_555 1_555
H2F_2 C4F_2 1_555 1_555
H2D_2 C4D_2 1_555 1_555
H2UB_2 C4UB_2 1_555 1_555
H2DC C4DC 1_555 1_555
H2B C4B 1_555 1_555
H2HA C4HA 1_555 1_555
H2XA C4XA 1_555 1_555
H2Z C4Z 1_555 1_555
H2AB C4AB 1_555 1_555
H2EB C4EB 1_555 1_555
H2BA C4BA 1_555 1_555
H2VB C4VB 1_555 1_555
H2E C4E 1_555 1_555
H2I C4I 1_555 1_555
H2XB C4XB 1_555 1_555
C5CB C4CB 1_555 1_555
C5FB C4CA 1_555 1_555
C5ZA C4ZA 1_555 1_555
C5VA C4VA 1_555 1_555
C5D C4D 1_555 1_555
C5A C4A 1_555 1_555
C5BB C4BB 1_555 1_555
C5G C4G 1_555 1_555
C5J C4YB 1_555 1_555
C5WA C4WA 1_555 1_555
C5F C4F 1_555 1_555
C5FB_2 C4FB_2 1_555 1_555
C5WA_2 C4IA_2 1_555 1_555
C5CB_2 C4EA_2 1_555 1_555
C5_2 C4CC_2 1_555 1_555
C5F_2 C4BC_2 1_555 1_555
C5D_2 C4D_2 1_555 1_555
C5B C4DC 1_555 1_555
C5XA C4HA 1_555 1_555
C5AB C4Z 1_555 1_555
C5EB C4EB 1_555 1_555
C5E C4VB 1_555 1_555
C5I C4I 1_555 1_555
C6CB N1 1_555 1_555
C6FB C5FB 1_555 1_555
C6ZA C5ZA 1_555 1_555
C6VA C5VA 1_555 1_555
C6D C5D 1_555 1_555
C6A C5A 1_555 1_555
C6BB C5BB 1_555 1_555
C6G C5G 1_555 1_555
C6J C5J 1_555 1_555
C6WA C5WA 1_555 1_555
C6F C5F 1_555 1_555
C6FB_2 C5FB_2 1_555 1_555
C6WA_2 C5WA_2 1_555 1_555
C6CB_2 C5CB_2 1_555 1_555
C6_2 C5_2 1_555 1_555
C6F_2 C5F_2 1_555 1_555
C6D_2 C5D_2 1_555 1_555
C6B C5B 1_555 1_555
C6XA C5XA 1_555 1_555
C6AB C5AB 1_555 1_555
C6EB C5EB 1_555 1_555
C6E C5E 1_555 1_555
C6I C5I 1_555 1_555
N1CC C6 1_555 1_555
N1FB C6CB 1_555 1_555
N1A C6ZA 1_555 1_555
N1BB C6ZA 1_555 1_555
N1G C6VA 1_555 1_555
N1YB C6VA 1_555 1_555
N1D C6D 1_555 1_555
N1F C6D 1_555 1_555
N1EC C6A 1_555 1_555
N1J C6G 1_555 1_555
N1BC C6WA 1_555 1_555
N1FB_2 C6FB_2 1_555 1_555
N1CC_2 C6FB_2 1_555 1_555
N1BC_2 C6WA_2 1_555 1_555
N1D_2 C6WA_2 1_555 1_555
N1_2 C6CB_2 1_555 1_555
N1F_2 C6F_2 1_555 1_555
N1DC C6B 1_555 1_555
N1B C6B 1_555 1_555
N1VB C6XA 1_555 1_555
N1I C6XA 1_555 1_555
N1AB C6AB 1_555 1_555
N1E C6E 1_555 1_555
O2CC C1 1_555 1_555
O2TB Mn1 1_555 1_555
O2VB Mn1 1_555 1_555
O2Y Mn1 1_555 1_555
O2CB C1CB 1_555 1_555
O2EA C1CB 1_555 1_555
O2CA C1FB 1_555 1_555
O2FB C1FB 1_555 1_555
O2C Mn1C 1_555 1_555
O2D C1D 1_555 1_555
O2AB Mn1C 1_555 1_555
O2UB C1D 1_555 1_555
O2VA C1VA 1_555 1_555
O2X Mn1UB 1_555 1_555
O2Z Mn1UB 1_555 1_555
O2E Mn1E 1_555 1_555
O2YA Mn1E 1_555 1_555
O2ZA C1ZA 1_555 1_555
O2GA C1VA 1_555 1_555
O2A C1A 1_555 1_555
O2EC C1A 1_555 1_555
O2BB C1BB 1_555 1_555
O2FA C1BB 1_555 1_555
O2G C1G 1_555 1_555
O2AC C1G 1_555 1_555
O2YB C1J 1_555 1_555
O2J C1J 1_555 1_555
O2WA C1WA 1_555 1_555
O2IA C1WA 1_555 1_555
O2F C1F 1_555 1_555
O2BC C1F 1_555 1_555
O2WB Mn1A 1_555 1_555
O2BA Mn1A 1_555 1_555
O2EB Mn1J 1_555 1_555
O2GB Mn1J 1_555 1_555
O2IA_2 C1WA_2 1_555 1_555
O2I C1I 1_555 1_555
O2K Mn1I_2 1_555 1_555
O2FB_2 C1FB_2 1_555 1_555
O2CA_2 C1FB_2 1_555 1_555
O2WA_2 C1WA_2 1_555 1_555
O2EA_2 C1CB_2 1_555 1_555
O2CB_2 C1CB_2 1_555 1_555
O2CC_2 C1_2 1_555 1_555
O2_2 C1_2 1_555 1_555
O2BC_2 C1F_2 1_555 1_555
O2F_2 C1F_2 1_555 1_555
O2D_2 C1D_2 1_555 1_555
O2UB_2 C1D_2 1_555 1_555
O2XB C1I 1_555 1_555
O2AA Mn1XB_2 1_555 1_555
O2G_2 Mn1G 1_555 1_555
O2H Mn1G 1_555 1_555
O2DC C1B 1_555 1_555
O2AC_2 Mn1AC 1_555 1_555
O2XA C1XA 1_555 1_555
O2DA Mn1AC 1_555 1_555
O2F_3 Mn1F_5 1_555 1_555
O2CB_3 Mn1F_5 1_555 1_555
O2DB Mn1F_5 1_555 1_555
O2HA C1XA 1_555 1_555
O2B C1B 1_555 1_555
O2ZB Mn1B_5 1_555 1_555
O2BC_3 Mn1B_5 1_555 1_555
O2EA_3 Mn1B_5 1_555 1_555
O2Z_2 C1AB 1_555 1_555
O2AB_2 C1AB 1_555 1_555
O2EB_2 C1EB 1_555 1_555
O2BA_2 C1EB 1_555 1_555
O2VB_2 C1E 1_555 1_555
O2E_2 C1E 1_555 1_555
Mn1C O1 1_555 1_555
Mn1E O1 1_555 1_555
Mn1UB O1 1_555 1_555
Mn1F O2CB 1_555 1_555
Mn1B O2EA 1_555 1_555
Mn1XB O2CA 1_555 1_555
Mn1I O2FB 1_555 1_555
Mn1A O2A 1_555 1_555
Mn1I_2 O1A 1_555 1_555
Mn1G O2BB 1_555 1_555
Mn1AC O1B 1_555 1_555
Mn1G_2 O2G 1_555 1_555
Mn1AC_2 O2AC 1_555 1_555
Mn1J O1A 1_555 1_555
Mn1J_2 O2IA 1_555 1_555
Mn1F_2 O2F 1_555 1_555
Mn1B_2 O2BC 1_555 1_555
Mn1XB_2 O1A 1_555 1_555
Mn1B_3 O2EA_2 1_555 1_555
Mn1F_3 O2CB_2 1_555 1_555
Mn1C_2 O2CC_2 1_555 1_555
Mn1_2 O2_2 1_555 1_555
Mn1B_4 O2BC_2 1_555 1_555
Mn1F_4 O2F_2 1_555 1_555
Mn1UB_2 O2UB_2 1_555 1_555
Mn1B_5 O1B 1_555 1_555
Mn1F_5 O1B 1_555 1_555
Mn1UB_3 O2Z_2 1_555 1_555
Mn1C_3 O2AB_2 1_555 1_555
Mn1J_3 O2EB_2 1_555 1_555
Mn1A_2 O2BA_2 1_555 1_555
Mn1_3 O2VB_2 1_555 1_555
Mn1E_2 O2E_2 1_555 1_555
C1ZA O2Y 1_555 1_555
C3CC C4CC 1_555 1_555
C4EA C5CB 1_555 1_555
C4FB C5FB 1_555 1_555
C4Y C5ZA 1_555 1_555
C4GA C5VA 1_555 1_555
C4UB C5D 1_555 1_555
C4EC C5A 1_555 1_555
C4FA C5BB 1_555 1_555
C4AC C5G 1_555 1_555
C4J C5J 1_555 1_555
C4IA C5WA 1_555 1_555
C4BC C5F 1_555 1_555
C4CA_2 C5FB_2 1_555 1_555
C4WA_2 C5WA_2 1_555 1_555
C4CB_2 C5CB_2 1_555 1_555
C4_2 C5_2 1_555 1_555
C4F_2 C5F_2 1_555 1_555
C4UB_2 C5D_2 1_555 1_555
C4B C5B 1_555 1_555
C4XA C5XA 1_555 1_555
C4AB C5AB 1_555 1_555
C4BA C5EB 1_555 1_555
C4E C5E 1_555 1_555
C4XB C5I 1_555 1_555
C5CB C6CB 1_555 1_555
C6FB N1CC 1_555 1_555
C6FB N1FB 1_555 1_555
C6A N1A 1_555 1_555
C6BB N1BB 1_555 1_555
C6BB N1EC 1_555 1_555
C6G N1G 1_555 1_555
C6J N1YB 1_555 1_555
C6J N1J 1_555 1_555
C6WA N1D 1_555 1_555
C6F N1F 1_555 1_555
C6F N1BC 1_555 1_555
C6CB_2 N1FB_2 1_555 1_555
C6_2 N1CC_2 1_555 1_555
C6_2 N1_2 1_555 1_555
C6F_2 N1BC_2 1_555 1_555
C6D_2 N1D_2 1_555 1_555
C6D_2 N1F_2 1_555 1_555
C6AB N1DC 1_555 1_555
C6EB N1B 1_555 1_555
C6EB N1AB 1_555 1_555
C6E N1VB 1_555 1_555
C6I N1I 1_555 1_555
C6I N1E 1_555 1_555
O2CC Mn1C 1_555 1_555
O2D Mn1C 1_555 1_555
O2UB Mn1UB 1_555 1_555
O2VA Mn1UB 1_555 1_555
O2ZA Mn1E 1_555 1_555
O2GA Mn1E 1_555 1_555
O2EC Mn1I_2 1_555 1_555
O2FA Mn1AC 1_555 1_555
O2YB Mn1A 1_555 1_555
O2J Mn1J 1_555 1_555
O2WA Mn1XB 1_555 1_555
O2IA_2 Mn1J 1_555 1_555
O2I Mn1I_2 1_555 1_555
O2FB_2 Mn1I_2 1_555 1_555
O2CA_2 Mn1XB_2 1_555 1_555
O2WA_2 Mn1XB_2 1_555 1_555
O2D_2 Mn1C_2 1_555 1_555
O2XB Mn1XB_2 1_555 1_555
O2DC Mn1G 1_555 1_555
O2XA Mn1AC 1_555 1_555
O2HA Mn1F_5 1_555 1_555
O2B Mn1B_5 1_555 1_555

#END
