
#######################################################################
#
#                 Cambridge Crystallographic Data Centre
#                                CCDC 
#
#######################################################################
#
# If this CIF has been generated from an entry in the Cambridge 
# Structural Database, then it will include bibliographic, chemical, 
# crystal, experimental, refinement or atomic coordinate data resulting 
# from the CCDC's data processing and validation procedures.
#
#######################################################################

data_JORKAE
_chemical_formula_moiety         'C332 In10 N12 O63 Ru2'
_symmetry_cell_setting           cubic
_symmetry_space_group_name_H-M   'F m -3 m'
_symmetry_Int_Tables_number      225
_space_group_name_Hall           '-F 4 2 3'
loop_
_symmetry_equiv_pos_site_id
_symmetry_equiv_pos_as_xyz
1 x,y,z
2 -y,x,z
3 -x,-y,z
4 y,-x,z
5 x,-z,y
6 x,-y,-z
7 x,z,-y
8 z,y,-x
9 -x,y,-z
10 -z,y,x
11 z,x,y
12 y,z,x
13 -y,-z,x
14 z,-x,-y
15 -y,z,-x
16 -z,-x,y
17 -z,x,-y
18 y,-z,-x
19 y,x,-z
20 -y,-x,-z
21 -x,z,y
22 -x,-z,-y
23 z,-y,x
24 -z,-y,-x
25 x,1/2+y,1/2+z
26 -y,1/2+x,1/2+z
27 -x,1/2-y,1/2+z
28 y,1/2-x,1/2+z
29 x,1/2-z,1/2+y
30 x,1/2-y,1/2-z
31 x,1/2+z,1/2-y
32 z,1/2+y,1/2-x
33 -x,1/2+y,1/2-z
34 -z,1/2+y,1/2+x
35 z,1/2+x,1/2+y
36 y,1/2+z,1/2+x
37 -y,1/2-z,1/2+x
38 z,1/2-x,1/2-y
39 -y,1/2+z,1/2-x
40 -z,1/2-x,1/2+y
41 -z,1/2+x,1/2-y
42 y,1/2-z,1/2-x
43 y,1/2+x,1/2-z
44 -y,1/2-x,1/2-z
45 -x,1/2+z,1/2+y
46 -x,1/2-z,1/2-y
47 z,1/2-y,1/2+x
48 -z,1/2-y,1/2-x
49 1/2+x,y,1/2+z
50 1/2-y,x,1/2+z
51 1/2-x,-y,1/2+z
52 1/2+y,-x,1/2+z
53 1/2+x,-z,1/2+y
54 1/2+x,-y,1/2-z
55 1/2+x,z,1/2-y
56 1/2+z,y,1/2-x
57 1/2-x,y,1/2-z
58 1/2-z,y,1/2+x
59 1/2+z,x,1/2+y
60 1/2+y,z,1/2+x
61 1/2-y,-z,1/2+x
62 1/2+z,-x,1/2-y
63 1/2-y,z,1/2-x
64 1/2-z,-x,1/2+y
65 1/2-z,x,1/2-y
66 1/2+y,-z,1/2-x
67 1/2+y,x,1/2-z
68 1/2-y,-x,1/2-z
69 1/2-x,z,1/2+y
70 1/2-x,-z,1/2-y
71 1/2+z,-y,1/2+x
72 1/2-z,-y,1/2-x
73 1/2+x,1/2+y,z
74 1/2-y,1/2+x,z
75 1/2-x,1/2-y,z
76 1/2+y,1/2-x,z
77 1/2+x,1/2-z,y
78 1/2+x,1/2-y,-z
79 1/2+x,1/2+z,-y
80 1/2+z,1/2+y,-x
81 1/2-x,1/2+y,-z
82 1/2-z,1/2+y,x
83 1/2+z,1/2+x,y
84 1/2+y,1/2+z,x
85 1/2-y,1/2-z,x
86 1/2+z,1/2-x,-y
87 1/2-y,1/2+z,-x
88 1/2-z,1/2-x,y
89 1/2-z,1/2+x,-y
90 1/2+y,1/2-z,-x
91 1/2+y,1/2+x,-z
92 1/2-y,1/2-x,-z
93 1/2-x,1/2+z,y
94 1/2-x,1/2-z,-y
95 1/2+z,1/2-y,x
96 1/2-z,1/2-y,-x
97 -x,-y,-z
98 y,-x,-z
99 x,y,-z
100 -y,x,-z
101 -x,z,-y
102 -x,y,z
103 -x,-z,y
104 -z,-y,x
105 x,-y,z
106 z,-y,-x
107 -z,-x,-y
108 -y,-z,-x
109 y,z,-x
110 -z,x,y
111 y,-z,x
112 z,x,-y
113 z,-x,y
114 -y,z,x
115 -y,-x,z
116 y,x,z
117 x,-z,-y
118 x,z,y
119 -z,y,-x
120 z,y,x
121 -x,1/2-y,1/2-z
122 y,1/2-x,1/2-z
123 x,1/2+y,1/2-z
124 -y,1/2+x,1/2-z
125 -x,1/2+z,1/2-y
126 -x,1/2+y,1/2+z
127 -x,1/2-z,1/2+y
128 -z,1/2-y,1/2+x
129 x,1/2-y,1/2+z
130 z,1/2-y,1/2-x
131 -z,1/2-x,1/2-y
132 -y,1/2-z,1/2-x
133 y,1/2+z,1/2-x
134 -z,1/2+x,1/2+y
135 y,1/2-z,1/2+x
136 z,1/2+x,1/2-y
137 z,1/2-x,1/2+y
138 -y,1/2+z,1/2+x
139 -y,1/2-x,1/2+z
140 y,1/2+x,1/2+z
141 x,1/2-z,1/2-y
142 x,1/2+z,1/2+y
143 -z,1/2+y,1/2-x
144 z,1/2+y,1/2+x
145 1/2-x,-y,1/2-z
146 1/2+y,-x,1/2-z
147 1/2+x,y,1/2-z
148 1/2-y,x,1/2-z
149 1/2-x,z,1/2-y
150 1/2-x,y,1/2+z
151 1/2-x,-z,1/2+y
152 1/2-z,-y,1/2+x
153 1/2+x,-y,1/2+z
154 1/2+z,-y,1/2-x
155 1/2-z,-x,1/2-y
156 1/2-y,-z,1/2-x
157 1/2+y,z,1/2-x
158 1/2-z,x,1/2+y
159 1/2+y,-z,1/2+x
160 1/2+z,x,1/2-y
161 1/2+z,-x,1/2+y
162 1/2-y,z,1/2+x
163 1/2-y,-x,1/2+z
164 1/2+y,x,1/2+z
165 1/2+x,-z,1/2-y
166 1/2+x,z,1/2+y
167 1/2-z,y,1/2-x
168 1/2+z,y,1/2+x
169 1/2-x,1/2-y,-z
170 1/2+y,1/2-x,-z
171 1/2+x,1/2+y,-z
172 1/2-y,1/2+x,-z
173 1/2-x,1/2+z,-y
174 1/2-x,1/2+y,z
175 1/2-x,1/2-z,y
176 1/2-z,1/2-y,x
177 1/2+x,1/2-y,z
178 1/2+z,1/2-y,-x
179 1/2-z,1/2-x,-y
180 1/2-y,1/2-z,-x
181 1/2+y,1/2+z,-x
182 1/2-z,1/2+x,y
183 1/2+y,1/2-z,x
184 1/2+z,1/2+x,-y
185 1/2+z,1/2-x,y
186 1/2-y,1/2+z,x
187 1/2-y,1/2-x,z
188 1/2+y,1/2+x,z
189 1/2+x,1/2-z,-y
190 1/2+x,1/2+z,y
191 1/2-z,1/2+y,-x
192 1/2+z,1/2+y,x
_cell_length_a                   18.16740(10)
_cell_length_b                   18.16740(10)
_cell_length_c                   18.16740(10)
_cell_angle_alpha                90
_cell_angle_beta                 90
_cell_angle_gamma                90
_cell_volume                     5996.23
loop_
_atom_site_label
_atom_site_type_symbol
_atom_site_fract_x
_atom_site_fract_y
_atom_site_fract_z
In1 In 0.5000 0.0000 0.5000
Ru1 Ru 0.5000 0.0000 0.0000
O1 O 0.5000 0.0000 0.3835(3)
N1 N 0.5000 0.0000 0.1125(3)
C1 C 0.5000 -0.0747(5) 0.1348(4)
C2 C 0.5000 -0.0935(4) 0.2089(5)
C3 C 0.5000 -0.0388(5) 0.2626(3)
C4 C 0.5000 0.0354(4) 0.2403(4)
C5 C 0.5000 0.0534(5) 0.1662(5)
C6 C 0.5000 -0.0573(5) 0.3440(5)
O2 O 0.5000 -0.1175(12) 0.3825(12)
C1B C 0.5000 0.0747(5) 0.1348(4)
C2B C 0.5000 0.0935(4) 0.2089(5)
C3B C 0.5000 0.0388(5) 0.2626(3)
C4B C 0.5000 -0.0354(4) 0.2403(4)
C5B C 0.5000 -0.0534(5) 0.1662(5)
C6B C 0.5000 0.0573(5) 0.3440(5)
O2B O 0.5000 0.1175(12) 0.3825(12)
O1F O 0.5000 0.3835(3) 0.0000
N1F N 0.5000 0.1125(3) 0.0000
C1F C 0.5000 0.1348(4) 0.0747(5)
C2F C 0.5000 0.2089(5) 0.0935(4)
C3F C 0.5000 0.2626(3) 0.0388(5)
C4F C 0.5000 0.2403(4) -0.0354(4)
C5F C 0.5000 0.1662(5) -0.0534(5)
C6F C 0.5000 0.3440(5) 0.0573(5)
O2F O 0.5000 0.3825(12) 0.1175(12)
O1D O 0.5000 -0.3835(3) 0.0000
N1D N 0.5000 -0.1125(3) 0.0000
C1U C 0.5000 -0.1348(4) 0.0747(5)
C2U C 0.5000 -0.2089(5) 0.0935(4)
C3U C 0.5000 -0.2626(3) 0.0388(5)
C4U C 0.5000 -0.2403(4) -0.0354(4)
C5U C 0.5000 -0.1662(5) -0.0534(5)
C6U C 0.5000 -0.3440(5) 0.0573(5)
O2U O 0.5000 -0.3825(12) 0.1175(12)
C1UB C 0.5747(5) -0.0000 0.1348(4)
C2UB C 0.5935(4) 0.0000 0.2089(5)
C3UB C 0.5388(5) 0.0000 0.2626(3)
C4UB C 0.4646(4) 0.0000 0.2403(4)
C5UB C 0.4466(5) 0.0000 0.1662(5)
C6UB C 0.5573(5) 0.0000 0.3440(5)
O2MA O 0.6175(12) 0.0000 0.3825(12)
C1WB C 0.4253(5) -0.0000 0.1348(4)
C2WB C 0.4065(4) 0.0000 0.2089(5)
C3WB C 0.4612(5) 0.0000 0.2626(3)
C4WB C 0.5354(4) 0.0000 0.2403(4)
C5WB C 0.5534(5) 0.0000 0.1662(5)
C6WB C 0.4427(5) 0.0000 0.3440(5)
O2HA O 0.3825(12) 0.0000 0.3825(12)
C1D C 0.5000 -0.1348(4) -0.0747(5)
C2D C 0.5000 -0.2089(5) -0.0935(4)
C3D C 0.5000 -0.2626(3) -0.0388(5)
C4D C 0.5000 -0.2403(4) 0.0354(4)
C5D C 0.5000 -0.1662(5) 0.0534(5)
C6D C 0.5000 -0.3440(5) -0.0573(5)
O2D O 0.5000 -0.3825(12) -0.1175(12)
O1E O 0.5000 0.0000 -0.3835(3)
N1E N 0.5000 0.0000 -0.1125(3)
C1H C 0.5000 -0.0747(5) -0.1348(4)
C2H C 0.5000 -0.0935(4) -0.2089(5)
C3H C 0.5000 -0.0388(5) -0.2626(3)
C4H C 0.5000 0.0354(4) -0.2403(4)
C5H C 0.5000 0.0534(5) -0.1662(5)
C6H C 0.5000 -0.0573(5) -0.3440(5)
O2H O 0.5000 -0.1175(12) -0.3825(12)
C1T C 0.5000 0.1348(4) -0.0747(5)
C2T C 0.5000 0.2089(5) -0.0935(4)
C3T C 0.5000 0.2626(3) -0.0388(5)
C4T C 0.5000 0.2403(4) 0.0354(4)
C5T C 0.5000 0.1662(5) 0.0534(5)
C6T C 0.5000 0.3440(5) -0.0573(5)
O2T O 0.5000 0.3825(12) -0.1175(12)
C1GB C 0.4253(5) 0.1348(4) 0.0000
C2GB C 0.4065(4) 0.2089(5) 0.0000
C3GB C 0.4612(5) 0.2626(3) 0.0000
C4GB C 0.5354(4) 0.2403(4) 0.0000
C5GB C 0.5534(5) 0.1662(5) 0.0000
C6GB C 0.4427(5) 0.3440(5) 0.0000
O2EA O 0.3825(12) 0.3825(12) 0.0000
C1HB C 0.5747(5) -0.1348(4) 0.0000
C2HB C 0.5935(4) -0.2089(5) 0.0000
C3HB C 0.5388(5) -0.2626(3) 0.0000
C4HB C 0.4646(4) -0.2403(4) 0.0000
C5HB C 0.4466(5) -0.1662(5) 0.0000
C6HB C 0.5573(5) -0.3440(5) 0.0000
O2UA O 0.6175(12) -0.3825(12) 0.0000
C1JB C 0.5747(5) 0.1348(4) 0.0000
C2JB C 0.5935(4) 0.2089(5) 0.0000
C3JB C 0.5388(5) 0.2626(3) 0.0000
C4JB C 0.4646(4) 0.2403(4) 0.0000
C5JB C 0.4466(5) 0.1662(5) 0.0000
C6JB C 0.5573(5) 0.3440(5) 0.0000
O2GA O 0.6175(12) 0.3825(12) 0.0000
C1MB C 0.4253(5) -0.1348(4) 0.0000
C2MB C 0.4065(4) -0.2089(5) 0.0000
C3MB C 0.4612(5) -0.2626(3) 0.0000
C4MB C 0.5354(4) -0.2403(4) 0.0000
C5MB C 0.5534(5) -0.1662(5) 0.0000
C6MB C 0.4427(5) -0.3440(5) 0.0000
O2TA O 0.3825(12) -0.3825(12) 0.0000
O1CB O 0.8835(3) 0.0000 0.0000
N1CB N 0.6125(3) 0.0000 0.0000
C1RB C 0.6348(4) 0.0747(5) 0.0000
C2RB C 0.7089(5) 0.0935(4) 0.0000
C3RB C 0.7626(3) 0.0388(5) 0.0000
C4RB C 0.7403(4) -0.0354(4) 0.0000
C5RB C 0.6662(5) -0.0534(5) 0.0000
C6RB C 0.8440(5) 0.0573(5) 0.0000
O2OA O 0.8825(12) 0.1175(12) 0.0000
O1EB O 0.1165(3) 0.0000 0.0000
N1EB N 0.3875(3) 0.0000 0.0000
C1SB C 0.3652(4) 0.0747(5) 0.0000
C2SB C 0.2911(5) 0.0935(4) 0.0000
C3SB C 0.2374(3) 0.0388(5) 0.0000
C4SB C 0.2597(4) -0.0354(4) 0.0000
C5SB C 0.3338(5) -0.0534(5) 0.0000
C6SB C 0.1560(5) 0.0573(5) 0.0000
O2JA O 0.1175(12) 0.1175(12) 0.0000
C1DC C 0.6348(4) 0.0000 -0.0747(5)
C2DC C 0.7089(5) 0.0000 -0.0935(4)
C3DC C 0.7626(3) 0.0000 -0.0388(5)
C4DC C 0.7403(4) 0.0000 0.0354(4)
C5DC C 0.6662(5) 0.0000 0.0534(5)
C6DC C 0.8440(5) 0.0000 -0.0573(5)
O2AA O 0.8825(12) 0.0000 -0.1175(12)
C1GC C 0.6348(4) 0.0000 0.0747(5)
C2GC C 0.7089(5) 0.0000 0.0935(4)
C3GC C 0.7626(3) -0.0000 0.0388(5)
C4GC C 0.7403(4) -0.0000 -0.0354(4)
C5GC C 0.6662(5) 0.0000 -0.0534(5)
C6GC C 0.8440(5) 0.0000 0.0573(5)
O2PA O 0.8825(12) 0.0000 0.1175(12)
C1IC C 0.3652(4) 0.0000 -0.0747(5)
C2IC C 0.2911(5) 0.0000 -0.0935(4)
C3IC C 0.2374(3) 0.0000 -0.0388(5)
C4IC C 0.2597(4) 0.0000 0.0354(4)
C5IC C 0.3338(5) 0.0000 0.0534(5)
C6IC C 0.1560(5) 0.0000 -0.0573(5)
O2Y O 0.1175(12) 0.0000 -0.1175(12)
C1JC C 0.3652(4) 0.0000 0.0747(5)
C2JC C 0.2911(5) 0.0000 0.0935(4)
C3JC C 0.2374(3) -0.0000 0.0388(5)
C4JC C 0.2597(4) -0.0000 -0.0354(4)
C5JC C 0.3338(5) 0.0000 -0.0534(5)
C6JC C 0.1560(5) 0.0000 0.0573(5)
O2QA O 0.1175(12) 0.0000 0.1175(12)
C1LC C 0.4253(5) 0.0000 -0.1348(4)
C2LC C 0.4065(4) -0.0000 -0.2089(5)
C3LC C 0.4612(5) 0.0000 -0.2626(3)
C4LC C 0.5354(4) -0.0000 -0.2403(4)
C5LC C 0.5534(5) 0.0000 -0.1662(5)
C6LC C 0.4427(5) 0.0000 -0.3440(5)
O2KA O 0.3825(12) 0.0000 -0.3825(12)
C1MC C 0.5747(5) 0.0000 -0.1348(4)
C2MC C 0.5935(4) -0.0000 -0.2089(5)
C3MC C 0.5388(5) 0.0000 -0.2626(3)
C4MC C 0.4646(4) -0.0000 -0.2403(4)
C5MC C 0.4466(5) 0.0000 -0.1662(5)
C6MC C 0.5573(5) 0.0000 -0.3440(5)
O2NA O 0.6175(12) 0.0000 -0.3825(12)
C1E C 0.5000 0.0747(5) -0.1348(4)
C2E C 0.5000 0.0935(4) -0.2089(5)
C3E C 0.5000 0.0388(5) -0.2626(3)
C4E C 0.5000 -0.0354(4) -0.2403(4)
C5E C 0.5000 -0.0534(5) -0.1662(5)
C6E C 0.5000 0.0573(5) -0.3440(5)
O2E O 0.5000 0.1175(12) -0.3825(12)
C1EB C 0.3652(4) -0.0747(5) 0.0000
C2EB C 0.2911(5) -0.0935(4) 0.0000
C3EB C 0.2374(3) -0.0388(5) 0.0000
C4EB C 0.2597(4) 0.0354(4) 0.0000
C5EB C 0.3338(5) 0.0534(5) 0.0000
C6EB C 0.1560(5) -0.0573(5) 0.0000
O2LA O 0.1175(12) -0.1175(12) 0.0000
C1CB C 0.6348(4) -0.0747(5) 0.0000
C2CB C 0.7089(5) -0.0935(4) 0.0000
C3CB C 0.7626(3) -0.0388(5) 0.0000
C4CB C 0.7403(4) 0.0354(4) 0.0000
C5CB C 0.6662(5) 0.0534(5) 0.0000
C6CB C 0.8440(5) -0.0573(5) 0.0000
O2IA O 0.8825(12) -0.1175(12) 0.0000
O1A O 0.0000 -0.5000 0.3835(3)
N1A N 0.0000 -0.5000 0.1125(3)
C1A C 0.0747(5) -0.5000 0.1348(4)
C2A C 0.0935(4) -0.5000 0.2089(5)
C3A C 0.0388(5) -0.5000 0.2626(3)
C4A C -0.0354(4) -0.5000 0.2403(4)
C5A C -0.0534(5) -0.5000 0.1662(5)
C6A C 0.0573(5) -0.5000 0.3440(5)
O2A O 0.1175(12) -0.5000 0.3825(12)
C1C C -0.0747(5) -0.5000 0.1348(4)
C2C C -0.0935(4) -0.5000 0.2089(5)
C3C C -0.0388(5) -0.5000 0.2626(3)
C4C C 0.0354(4) -0.5000 0.2403(4)
C5C C 0.0534(5) -0.5000 0.1662(5)
C6C C -0.0573(5) -0.5000 0.3440(5)
O2C O -0.1175(12) -0.5000 0.3825(12)
O1O O -0.3835(3) -0.5000 0.0000
N1O N -0.1125(3) -0.5000 0.0000
C1P C -0.1348(4) -0.5000 0.0747(5)
C2P C -0.2089(5) -0.5000 0.0935(4)
C3P C -0.2626(3) -0.5000 0.0388(5)
C4P C -0.2403(4) -0.5000 -0.0354(4)
C5P C -0.1662(5) -0.5000 -0.0534(5)
C6P C -0.3440(5) -0.5000 0.0573(5)
O2P O -0.3825(12) -0.5000 0.1175(12)
O1J O 0.3835(3) -0.5000 0.0000
N1J N 0.1125(3) -0.5000 0.0000
C1M C 0.1348(4) -0.5000 0.0747(5)
C2M C 0.2089(5) -0.5000 0.0935(4)
C3M C 0.2626(3) -0.5000 0.0388(5)
C4M C 0.2403(4) -0.5000 -0.0354(4)
C5M C 0.1662(5) -0.5000 -0.0534(5)
C6M C 0.3440(5) -0.5000 0.0573(5)
O2M O 0.3825(12) -0.5000 0.1175(12)
C1VB C -0.0000 -0.4253(5) 0.1348(4)
C2VB C 0.0000 -0.4065(4) 0.2089(5)
C3VB C 0.0000 -0.4612(5) 0.2626(3)
C4VB C 0.0000 -0.5354(4) 0.2403(4)
C5VB C -0.0000 -0.5534(5) 0.1662(5)
C6VB C -0.0000 -0.4427(5) 0.3440(5)
O2ZA O 0.0000 -0.3825(12) 0.3825(12)
C1TB C 0.0000 -0.5747(5) 0.1348(4)
C2TB C -0.0000 -0.5935(4) 0.2089(5)
C3TB C 0.0000 -0.5388(5) 0.2626(3)
C4TB C 0.0000 -0.4646(4) 0.2403(4)
C5TB C 0.0000 -0.4466(5) 0.1662(5)
C6TB C 0.0000 -0.5573(5) 0.3440(5)
O2PB O 0.0000 -0.6175(12) 0.3825(12)
C1J C 0.1348(4) -0.5000 -0.0747(5)
C2J C 0.2089(5) -0.5000 -0.0935(4)
C3J C 0.2626(3) -0.5000 -0.0388(5)
C4J C 0.2403(4) -0.5000 0.0354(4)
C5J C 0.1662(5) -0.5000 0.0534(5)
C6J C 0.3440(5) -0.5000 -0.0573(5)
O2J O 0.3825(12) -0.5000 -0.1175(12)
O1R O 0.0000 -0.5000 -0.3835(3)
N1R N 0.0000 -0.5000 -0.1125(3)
C1S C 0.0747(5) -0.5000 -0.1348(4)
C2S C 0.0935(4) -0.5000 -0.2089(5)
C3S C 0.0388(5) -0.5000 -0.2626(3)
C4S C -0.0354(4) -0.5000 -0.2403(4)
C5S C -0.0534(5) -0.5000 -0.1662(5)
C6S C 0.0573(5) -0.5000 -0.3440(5)
O2S O 0.1175(12) -0.5000 -0.3825(12)
C1O C -0.1348(4) -0.5000 -0.0747(5)
C2O C -0.2089(5) -0.5000 -0.0935(4)
C3O C -0.2626(3) -0.5000 -0.0388(5)
C4O C -0.2403(4) -0.5000 0.0354(4)
C5O C -0.1662(5) -0.5000 0.0534(5)
C6O C -0.3440(5) -0.5000 -0.0573(5)
O2O O -0.3825(12) -0.5000 -0.1175(12)
C1GA C -0.1348(4) -0.5747(5) 0.0000
C2GA C -0.2089(5) -0.5935(4) 0.0000
C3GA C -0.2626(3) -0.5388(5) 0.0000
C4GA C -0.2403(4) -0.4646(4) 0.0000
C5GA C -0.1662(5) -0.4466(5) 0.0000
C6GA C -0.3440(5) -0.5573(5) 0.0000
O2GA_2 O -0.3825(12) -0.6175(12) 0.0000
C1TA C 0.1348(4) -0.4253(5) 0.0000
C2TA C 0.2089(5) -0.4065(4) 0.0000
C3TA C 0.2626(3) -0.4612(5) 0.0000
C4TA C 0.2403(4) -0.5354(4) 0.0000
C5TA C 0.1662(5) -0.5534(5) 0.0000
C6TA C 0.3440(5) -0.4427(5) 0.0000
C1UA C -0.1348(4) -0.4253(5) 0.0000
C2UA C -0.2089(5) -0.4065(4) 0.0000
C3UA C -0.2626(3) -0.4612(5) 0.0000
C4UA C -0.2403(4) -0.5354(4) 0.0000
C5UA C -0.1662(5) -0.5534(5) 0.0000
C6UA C -0.3440(5) -0.4427(5) 0.0000
O2UA_2 O -0.3825(12) -0.3825(12) 0.0000
C1EA C 0.1348(4) -0.5747(5) 0.0000
C2EA C 0.2089(5) -0.5935(4) 0.0000
C3EA C 0.2626(3) -0.5388(5) 0.0000
C4EA C 0.2403(4) -0.4646(4) 0.0000
C5EA C 0.1662(5) -0.4466(5) 0.0000
C6EA C 0.3440(5) -0.5573(5) 0.0000
O2EA_2 O 0.3825(12) -0.6175(12) 0.0000
O1IA O 0.0000 -0.1165(3) 0.0000
N1IA N 0.0000 -0.3875(3) 0.0000
C1IA C -0.0747(5) -0.3652(4) 0.0000
C2IA C -0.0935(4) -0.2911(5) 0.0000
C3IA C -0.0388(5) -0.2374(3) 0.0000
C4IA C 0.0354(4) -0.2597(4) 0.0000
C5IA C 0.0534(5) -0.3338(5) 0.0000
C6IA C -0.0573(5) -0.1560(5) 0.0000
O2IA_2 O -0.1175(12) -0.1175(12) 0.0000
O1JA O 0.0000 -0.8835(3) 0.0000
N1JA N 0.0000 -0.6125(3) 0.0000
C1OA C -0.0747(5) -0.6348(4) 0.0000
C2OA C -0.0935(4) -0.7089(5) 0.0000
C3OA C -0.0388(5) -0.7626(3) 0.0000
C4OA C 0.0354(4) -0.7403(4) 0.0000
C5OA C 0.0534(5) -0.6662(5) 0.0000
C6OA C -0.0573(5) -0.8440(5) 0.0000
O2OA_2 O -0.1175(12) -0.8825(12) 0.0000
C1NC C -0.0000 -0.3652(4) -0.0747(5)
C2NC C 0.0000 -0.2911(5) -0.0935(4)
C3NC C 0.0000 -0.2374(3) -0.0388(5)
C4NC C 0.0000 -0.2597(4) 0.0354(4)
C5NC C 0.0000 -0.3338(5) 0.0534(5)
C6NC C 0.0000 -0.1560(5) -0.0573(5)
O2VA O -0.0000 -0.1175(12) -0.1175(12)
C1ZB C -0.0000 -0.3652(4) 0.0747(5)
C2ZB C 0.0000 -0.2911(5) 0.0935(4)
C3ZB C 0.0000 -0.2374(3) 0.0388(5)
C4ZB C -0.0000 -0.2597(4) -0.0354(4)
C5ZB C -0.0000 -0.3338(5) -0.0534(5)
C6ZB C 0.0000 -0.1560(5) 0.0573(5)
O2DB O 0.0000 -0.1175(12) 0.1175(12)
C1XB C -0.0000 -0.6348(4) -0.0747(5)
C2XB C 0.0000 -0.7089(5) -0.0935(4)
C3XB C -0.0000 -0.7626(3) -0.0388(5)
C4XB C 0.0000 -0.7403(4) 0.0354(4)
C5XB C 0.0000 -0.6662(5) 0.0534(5)
C6XB C -0.0000 -0.8440(5) -0.0573(5)
O2XA O -0.0000 -0.8825(12) -0.1175(12)
C1OC C -0.0000 -0.6348(4) 0.0747(5)
C2OC C 0.0000 -0.7089(5) 0.0935(4)
C3OC C -0.0000 -0.7626(3) 0.0388(5)
C4OC C 0.0000 -0.7403(4) -0.0354(4)
C5OC C 0.0000 -0.6662(5) -0.0534(5)
C6OC C -0.0000 -0.8440(5) 0.0573(5)
O2AB O 0.0000 -0.8825(12) 0.1175(12)
C1BC C 0.0000 -0.5747(5) -0.1348(4)
C2BC C -0.0000 -0.5935(4) -0.2089(5)
C3BC C 0.0000 -0.5388(5) -0.2626(3)
C4BC C -0.0000 -0.4646(4) -0.2403(4)
C5BC C 0.0000 -0.4466(5) -0.1662(5)
C6BC C 0.0000 -0.5573(5) -0.3440(5)
O2BB O 0.0000 -0.6175(12) -0.3825(12)
C1YB C -0.0000 -0.4253(5) -0.1348(4)
C2YB C 0.0000 -0.4065(4) -0.2089(5)
C3YB C 0.0000 -0.4612(5) -0.2626(3)
C4YB C -0.0000 -0.5354(4) -0.2403(4)
C5YB C -0.0000 -0.5534(5) -0.1662(5)
C6YB C 0.0000 -0.4427(5) -0.3440(5)
O2QB O 0.0000 -0.3825(12) -0.3825(12)
C1R C -0.0747(5) -0.5000 -0.1348(4)
C2R C -0.0935(4) -0.5000 -0.2089(5)
C3R C -0.0388(5) -0.5000 -0.2626(3)
C4R C 0.0354(4) -0.5000 -0.2403(4)
C5R C 0.0534(5) -0.5000 -0.1662(5)
C6R C -0.0573(5) -0.5000 -0.3440(5)
O2R O -0.1175(12) -0.5000 -0.3825(12)
C1JA C 0.0747(5) -0.6348(4) 0.0000
C2JA C 0.0935(4) -0.7089(5) 0.0000
C3JA C 0.0388(5) -0.7626(3) 0.0000
C4JA C -0.0354(4) -0.7403(4) 0.0000
C5JA C -0.0534(5) -0.6662(5) 0.0000
C6JA C 0.0573(5) -0.8440(5) 0.0000
O2JA_2 O 0.1175(12) -0.8825(12) 0.0000
C1LA C 0.0747(5) -0.3652(4) 0.0000
C2LA C 0.0935(4) -0.2911(5) 0.0000
C3LA C 0.0388(5) -0.2374(3) 0.0000
C4LA C -0.0354(4) -0.2597(4) 0.0000
C5LA C -0.0534(5) -0.3338(5) 0.0000
C6LA C 0.0573(5) -0.1560(5) 0.0000
In1_2 In 0.5000 0.0000 -0.5000
In1A In 0.0000 -0.5000 -0.5000
In1A_2 In 0.0000 -0.5000 0.5000
In1D In -0.5000 -0.5000 0.0000
In1D_2 In 0.5000 -0.5000 0.0000
In1D_3 In 0.5000 0.5000 0.0000
In1Y In 0.0000 -1.0000 0.0000
In1Y_2 In 0.0000 0.0000 0.0000
In1Y_3 In 1.0000 0.0000 0.0000
Ru1A Ru 0.0000 -0.5000 0.0000
O1E_2 O 0.5000 0.0000 0.6165(3)
O1G O 0.3835(3) 0.0000 0.5000
O1I O 0.6165(3) 0.0000 0.5000
O1BA O 0.5000 0.1165(3) 0.5000
O1DA O 0.5000 -0.1165(3) 0.5000
C6X C 0.5000 0.4427(5) -0.1560(5)
C6Y C 0.0573(5) 0.0000 -0.1560(5)
C6Z C 0.5000 -0.4427(5) -0.1560(5)
C6AA C 0.9427(5) 0.0000 -0.1560(5)
C6BA C 0.5000 0.1560(5) 0.4427(5)
C6CA C 0.5000 -0.4427(5) 0.1560(5)
C6DA C 0.5000 -0.1560(5) -0.4427(5)
C6EA_2 C 0.3440(5) 0.4427(5) 0.0000
C6FA C 0.5000 0.4427(5) 0.1560(5)
C6GA_2 C 0.6560(5) 0.4427(5) 0.0000
C6HA C 0.3440(5) 0.0000 0.4427(5)
C6IA_2 C 0.9427(5) -0.1560(5) 0.0000
C6JA_2 C 0.0573(5) 0.1560(5) 0.0000
C6KA C 0.3440(5) -0.0000 -0.4427(5)
C6MA C 0.6560(5) 0.0000 0.4427(5)
C6NA C 0.6560(5) -0.0000 -0.4427(5)
C6OA_2 C 0.9427(5) 0.1560(5) 0.0000
C6PA C 0.9427(5) -0.0000 0.1560(5)
C6QA C 0.0573(5) -0.0000 0.1560(5)
C6RA C 0.5000 -0.1560(5) 0.4427(5)
C6SA C 0.5000 0.1560(5) -0.4427(5)
C6UA_2 C 0.6560(5) -0.4427(5) 0.0000
C6VA C 0.0000 -0.0573(5) -0.1560(5)
C6WA C -0.4427(5) -0.5000 -0.1560(5)
C6XA C 0.0000 -0.9427(5) -0.1560(5)
C6YA C 0.4427(5) -0.5000 -0.1560(5)
C6ZA C -0.0000 -0.3440(5) 0.4427(5)
C6AB C -0.0000 -0.9427(5) 0.1560(5)
C6BB C 0.0000 -0.6560(5) -0.4427(5)
C6CB_2 C -0.1560(5) -0.0573(5) 0.0000
C6DB C -0.0000 -0.0573(5) 0.1560(5)
C6FB C -0.1560(5) -0.5000 0.4427(5)
C6GB_2 C 0.4427(5) -0.6560(5) 0.0000
C6HB_2 C -0.4427(5) -0.3440(5) 0.0000
C6IB C -0.1560(5) -0.5000 -0.4427(5)
C6JB_2 C -0.4427(5) -0.6560(5) 0.0000
C6KB C 0.1560(5) -0.5000 0.4427(5)
C6LB C 0.1560(5) -0.5000 -0.4427(5)
C6NB C 0.4427(5) -0.5000 0.1560(5)
C6OB C -0.4427(5) -0.5000 0.1560(5)
C6PB C 0.0000 -0.6560(5) 0.4427(5)
C6QB C 0.0000 -0.3440(5) -0.4427(5)
C6RB_2 C -0.1560(5) -0.9427(5) 0.0000
C6SB_2 C 0.1560(5) -0.9427(5) 0.0000
loop_
_geom_bond_atom_site_label_1
_geom_bond_atom_site_label_2
_geom_bond_site_symmetry_1
_geom_bond_site_symmetry_2
In1 O1 1_555 1_555
Ru1 N1 1_555 1_555
O1 C6 1_555 1_555
N1 C1 1_555 1_555
C1 C2 1_555 1_555
C2 C3 1_555 1_555
C3 C4 1_555 1_555
C4 C5 1_555 1_555
C5 N1 1_555 1_555
C6 C3 1_555 1_555
O2 C6 1_555 1_555
C1B N1 1_555 1_555
C2B C4 1_555 1_555
C3B C5 1_555 1_555
C4B C2 1_555 1_555
C5B N1 1_555 1_555
C6B O1 1_555 1_555
O2B C6B 1_555 1_555
O1F C6F 1_555 1_555
N1F Ru1 1_555 1_555
C1F C1B 1_555 1_555
C2F C1F 1_555 1_555
C3F C2F 1_555 1_555
C4F C3F 1_555 1_555
C5F N1F 1_555 1_555
C6F C3F 1_555 1_555
O2F C6F 1_555 1_555
O1D C6U 1_555 1_555
N1D Ru1 1_555 1_555
C1U C1 1_555 1_555
C2U C1U 1_555 1_555
C3U C2U 1_555 1_555
C4U C3U 1_555 1_555
C5U N1D 1_555 1_555
C6U C3U 1_555 1_555
O2U C6U 1_555 1_555
C1UB N1 1_555 1_555
C2UB C1UB 1_555 1_555
C3UB C2UB 1_555 1_555
C4UB C3UB 1_555 1_555
C5UB N1 1_555 1_555
C6UB O1 1_555 1_555
O2MA C6UB 1_555 1_555
C1WB N1 1_555 1_555
C2WB C4UB 1_555 1_555
C3WB C5UB 1_555 1_555
C4WB C2UB 1_555 1_555
C5WB N1 1_555 1_555
C6WB O1 1_555 1_555
O2HA C6WB 1_555 1_555
C1D N1D 1_555 1_555
C2D C4U 1_555 1_555
C3D C5U 1_555 1_555
C4D C2U 1_555 1_555
C5D N1D 1_555 1_555
C6D O1D 1_555 1_555
O2D C6D 1_555 1_555
O1E C6H 1_555 1_555
N1E Ru1 1_555 1_555
C1H C1D 1_555 1_555
C2H C1H 1_555 1_555
C3H C2H 1_555 1_555
C4H C3H 1_555 1_555
C5H N1E 1_555 1_555
C6H C3H 1_555 1_555
O2H C6H 1_555 1_555
C1T N1F 1_555 1_555
C2T C4F 1_555 1_555
C3T C5F 1_555 1_555
C4T C2F 1_555 1_555
C5T N1F 1_555 1_555
C6T O1F 1_555 1_555
O2T C6T 1_555 1_555
C1GB N1F 1_555 1_555
C2GB C1GB 1_555 1_555
C3GB C2GB 1_555 1_555
C4GB C3GB 1_555 1_555
C5GB N1F 1_555 1_555
C6GB O1F 1_555 1_555
O2EA C6GB 1_555 1_555
C1HB N1D 1_555 1_555
C2HB C1HB 1_555 1_555
C3HB C2HB 1_555 1_555
C4HB C3HB 1_555 1_555
C5HB N1D 1_555 1_555
C6HB O1D 1_555 1_555
O2UA C6HB 1_555 1_555
C1JB N1F 1_555 1_555
C2JB C4GB 1_555 1_555
C3JB C5GB 1_555 1_555
C4JB C2GB 1_555 1_555
C5JB N1F 1_555 1_555
C6JB O1F 1_555 1_555
O2GA C6JB 1_555 1_555
C1MB N1D 1_555 1_555
C2MB C4HB 1_555 1_555
C3MB C5HB 1_555 1_555
C4MB C2HB 1_555 1_555
C5MB N1D 1_555 1_555
C6MB O1D 1_555 1_555
O2TA C6MB 1_555 1_555
O1CB C6RB 1_555 1_555
N1CB Ru1 1_555 1_555
C1RB C1JB 1_555 1_555
C2RB C1RB 1_555 1_555
C3RB C2RB 1_555 1_555
C4RB C3RB 1_555 1_555
C5RB N1CB 1_555 1_555
C6RB C3RB 1_555 1_555
O2OA C6RB 1_555 1_555
O1EB C6SB 1_555 1_555
N1EB Ru1 1_555 1_555
C1SB C1GB 1_555 1_555
C2SB C1SB 1_555 1_555
C3SB C2SB 1_555 1_555
C4SB C3SB 1_555 1_555
C5SB N1EB 1_555 1_555
C6SB C3SB 1_555 1_555
O2JA C6SB 1_555 1_555
C1DC N1CB 1_555 1_555
C2DC C1DC 1_555 1_555
C3DC C2DC 1_555 1_555
C4DC C3DC 1_555 1_555
C5DC N1CB 1_555 1_555
C6DC O1CB 1_555 1_555
O2AA C6DC 1_555 1_555
C1GC C1UB 1_555 1_555
C2GC C4DC 1_555 1_555
C3GC C5DC 1_555 1_555
C4GC C2DC 1_555 1_555
C5GC N1CB 1_555 1_555
C6GC O1CB 1_555 1_555
O2PA C6GC 1_555 1_555
C1IC N1EB 1_555 1_555
C2IC C1IC 1_555 1_555
C3IC C2IC 1_555 1_555
C4IC C3IC 1_555 1_555
C5IC N1EB 1_555 1_555
C6IC O1EB 1_555 1_555
O2Y C6IC 1_555 1_555
C1JC C1WB 1_555 1_555
C2JC C4IC 1_555 1_555
C3JC C5IC 1_555 1_555
C4JC C2IC 1_555 1_555
C5JC N1EB 1_555 1_555
C6JC O1EB 1_555 1_555
O2QA C6JC 1_555 1_555
C1LC N1E 1_555 1_555
C2LC C1LC 1_555 1_555
C3LC C2LC 1_555 1_555
C4LC C3LC 1_555 1_555
C5LC N1E 1_555 1_555
C6LC O1E 1_555 1_555
O2KA C6LC 1_555 1_555
C1MC N1E 1_555 1_555
C2MC C4LC 1_555 1_555
C3MC C5LC 1_555 1_555
C4MC C2LC 1_555 1_555
C5MC N1E 1_555 1_555
C6MC O1E 1_555 1_555
O2NA C6MC 1_555 1_555
C1E N1E 1_555 1_555
C2E C4H 1_555 1_555
C3E C5H 1_555 1_555
C4E C2H 1_555 1_555
C5E N1E 1_555 1_555
C6E O1E 1_555 1_555
O2E C6E 1_555 1_555
C1EB C1MB 1_555 1_555
C2EB C4SB 1_555 1_555
C3EB C5SB 1_555 1_555
C4EB C2SB 1_555 1_555
C5EB N1EB 1_555 1_555
C6EB O1EB 1_555 1_555
O2LA C6EB 1_555 1_555
C1CB C1HB 1_555 1_555
C2CB C4RB 1_555 1_555
C3CB C5RB 1_555 1_555
C4CB C2RB 1_555 1_555
C5CB N1CB 1_555 1_555
C6CB O1CB 1_555 1_555
O2IA C6CB 1_555 1_555
O1A C6A 1_555 1_555
N1A C1A 1_555 1_555
C1A C2A 1_555 1_555
C2A C3A 1_555 1_555
C3A C4A 1_555 1_555
C4A C5A 1_555 1_555
C5A N1A 1_555 1_555
C6A C3A 1_555 1_555
O2A C6A 1_555 1_555
C1C N1A 1_555 1_555
C2C C4A 1_555 1_555
C3C C5A 1_555 1_555
C4C C2A 1_555 1_555
C5C N1A 1_555 1_555
C6C O1A 1_555 1_555
O2C C6C 1_555 1_555
O1O C6P 1_555 1_555
N1O C1P 1_555 1_555
C1P C1C 1_555 1_555
C2P C1P 1_555 1_555
C3P C2P 1_555 1_555
C4P C3P 1_555 1_555
C5P N1O 1_555 1_555
C6P C3P 1_555 1_555
O2P C6P 1_555 1_555
O1J C6M 1_555 1_555
N1J C1M 1_555 1_555
C1M C1A 1_555 1_555
C2M C1M 1_555 1_555
C3M C2M 1_555 1_555
C4M C3M 1_555 1_555
C5M N1J 1_555 1_555
C6M C3M 1_555 1_555
O2M C6M 1_555 1_555
C1VB N1A 1_555 1_555
C2VB C1VB 1_555 1_555
C3VB C2VB 1_555 1_555
C4VB C3VB 1_555 1_555
C5VB N1A 1_555 1_555
C6VB O1A 1_555 1_555
O2ZA C6VB 1_555 1_555
C1TB N1A 1_555 1_555
C2TB C4VB 1_555 1_555
C3TB C5VB 1_555 1_555
C4TB C2VB 1_555 1_555
C5TB N1A 1_555 1_555
C6TB O1A 1_555 1_555
O2PB C6TB 1_555 1_555
C1J N1J 1_555 1_555
C2J C4M 1_555 1_555
C3J C5M 1_555 1_555
C4J C2M 1_555 1_555
C5J N1J 1_555 1_555
C6J O1J 1_555 1_555
O2J C6J 1_555 1_555
O1R C6S 1_555 1_555
N1R C1S 1_555 1_555
C1S C1J 1_555 1_555
C2S C1S 1_555 1_555
C3S C2S 1_555 1_555
C4S C3S 1_555 1_555
C5S N1R 1_555 1_555
C6S C3S 1_555 1_555
O2S C6S 1_555 1_555
C1O N1O 1_555 1_555
C2O C4P 1_555 1_555
C3O C5P 1_555 1_555
C4O C2P 1_555 1_555
C5O N1O 1_555 1_555
C6O O1O 1_555 1_555
O2O C6O 1_555 1_555
C1GA N1O 1_555 1_555
C2GA C1GA 1_555 1_555
C3GA C2GA 1_555 1_555
C4GA C3GA 1_555 1_555
C5GA N1O 1_555 1_555
C6GA O1O 1_555 1_555
O2GA_2 C6GA 1_555 1_555
C1TA N1J 1_555 1_555
C2TA C1TA 1_555 1_555
C3TA C2TA 1_555 1_555
C4TA C3TA 1_555 1_555
C5TA N1J 1_555 1_555
C6TA O2TA 1_555 1_555
C1UA N1O 1_555 1_555
C2UA C4GA 1_555 1_555
C3UA C5GA 1_555 1_555
C4UA C2GA 1_555 1_555
C5UA N1O 1_555 1_555
C6UA O1O 1_555 1_555
O2UA_2 C6UA 1_555 1_555
C1EA N1J 1_555 1_555
C2EA C4TA 1_555 1_555
C3EA C5TA 1_555 1_555
C4EA C2TA 1_555 1_555
C5EA N1J 1_555 1_555
C6EA O1J 1_555 1_555
O2EA_2 C6EA 1_555 1_555
O1IA C6IA 1_555 1_555
N1IA C1IA 1_555 1_555
C1IA C1UA 1_555 1_555
C2IA C1IA 1_555 1_555
C3IA C2IA 1_555 1_555
C4IA C3IA 1_555 1_555
C5IA N1IA 1_555 1_555
C6IA C3IA 1_555 1_555
O2IA_2 C6IA 1_555 1_555
O1JA C6OA 1_555 1_555
N1JA C1OA 1_555 1_555
C1OA C1GA 1_555 1_555
C2OA C1OA 1_555 1_555
C3OA C2OA 1_555 1_555
C4OA C3OA 1_555 1_555
C5OA N1JA 1_555 1_555
C6OA C3OA 1_555 1_555
O2OA_2 C6OA 1_555 1_555
C1NC N1IA 1_555 1_555
C2NC C1NC 1_555 1_555
C3NC C2NC 1_555 1_555
C4NC C3NC 1_555 1_555
C5NC N1IA 1_555 1_555
C6NC O1IA 1_555 1_555
O2VA C6NC 1_555 1_555
C1ZB C1VB 1_555 1_555
C2ZB C4NC 1_555 1_555
C3ZB C5NC 1_555 1_555
C4ZB C2NC 1_555 1_555
C5ZB N1IA 1_555 1_555
C6ZB O1IA 1_555 1_555
O2DB C6ZB 1_555 1_555
C1XB N1JA 1_555 1_555
C2XB C1XB 1_555 1_555
C3XB C2XB 1_555 1_555
C4XB C3XB 1_555 1_555
C5XB N1JA 1_555 1_555
C6XB O1JA 1_555 1_555
O2XA C6XB 1_555 1_555
C1OC C1TB 1_555 1_555
C2OC C4XB 1_555 1_555
C3OC C5XB 1_555 1_555
C4OC C2XB 1_555 1_555
C5OC N1JA 1_555 1_555
C6OC O1JA 1_555 1_555
O2AB C6OC 1_555 1_555
C1BC N1R 1_555 1_555
C2BC C1BC 1_555 1_555
C3BC C2BC 1_555 1_555
C4BC C3BC 1_555 1_555
C5BC N1R 1_555 1_555
C6BC O1R 1_555 1_555
O2BB C6BC 1_555 1_555
C1YB N1R 1_555 1_555
C2YB C4BC 1_555 1_555
C3YB C5BC 1_555 1_555
C4YB C2BC 1_555 1_555
C5YB N1R 1_555 1_555
C6YB O1R 1_555 1_555
O2QB C6YB 1_555 1_555
C1R N1R 1_555 1_555
C2R C4S 1_555 1_555
C3R C5S 1_555 1_555
C4R C2S 1_555 1_555
C5R N1R 1_555 1_555
C6R O1R 1_555 1_555
O2R C6R 1_555 1_555
C1JA C1EA 1_555 1_555
C2JA C4OA 1_555 1_555
C3JA C5OA 1_555 1_555
C4JA C2OA 1_555 1_555
C5JA N1JA 1_555 1_555
C6JA O1JA 1_555 1_555
O2JA_2 C6JA 1_555 1_555
C1LA C1TA 1_555 1_555
C2LA C4IA 1_555 1_555
C3LA C5IA 1_555 1_555
C4LA C2IA 1_555 1_555
C5LA N1IA 1_555 1_555
C6LA O2LA 1_555 1_555
In1_2 O1E 1_555 1_555
In1A O1R 1_555 1_555
In1A_2 O1A 1_555 1_555
In1D O1O 1_555 1_555
In1D_2 O1D 1_555 1_555
In1D_3 O1F 1_555 1_555
In1Y O1JA 1_555 1_555
In1Y_2 O1EB 1_555 1_555
In1Y_3 O1CB 1_555 1_555
Ru1A N1A 1_555 1_555
O1E_2 In1 1_555 1_555
O1G In1 1_555 1_555
O1I In1 1_555 1_555
O1BA In1 1_555 1_555
O1DA In1 1_555 1_555
C6X O2T 1_555 1_555
C6Y O2Y 1_555 1_555
C6Z O2D 1_555 1_555
C6AA O2AA 1_555 1_555
C6BA O2B 1_555 1_555
C6CA O2U 1_555 1_555
C6DA O2H 1_555 1_555
C6EA_2 O2EA 1_555 1_555
C6FA O2F 1_555 1_555
C6GA_2 O2GA 1_555 1_555
C6HA O2HA 1_555 1_555
C6IA_2 O2IA 1_555 1_555
C6JA_2 O2JA 1_555 1_555
C6KA O2KA 1_555 1_555
C6MA O2MA 1_555 1_555
C6NA O2NA 1_555 1_555
C6OA_2 O2OA 1_555 1_555
C6PA O2PA 1_555 1_555
C6QA O2QA 1_555 1_555
C6RA O2 1_555 1_555
C6SA O2E 1_555 1_555
C6UA_2 O2UA 1_555 1_555
C6VA O2VA 1_555 1_555
C6WA O2O 1_555 1_555
C6XA O2XA 1_555 1_555
C6YA O2J 1_555 1_555
C6ZA O2ZA 1_555 1_555
C6AB O2AB 1_555 1_555
C6BB O2BB 1_555 1_555
C6CB_2 O2IA_2 1_555 1_555
C6DB O2DB 1_555 1_555
C6FB O2C 1_555 1_555
C6GB_2 O2EA_2 1_555 1_555
C6HB_2 O2UA_2 1_555 1_555
C6IB O2R 1_555 1_555
C6JB_2 O2GA_2 1_555 1_555
C6KB O2A 1_555 1_555
C6LB O2S 1_555 1_555
C6NB O2M 1_555 1_555
C6OB O2P 1_555 1_555
C6PB O2PB 1_555 1_555
C6QB O2QB 1_555 1_555
C6RB_2 O2OA_2 1_555 1_555
C6SB_2 O2JA_2 1_555 1_555
C1 C5B 1_555 1_555
C1 C5UB 1_555 1_555
C1 C5WB 1_555 1_555
C2 C5B 1_555 1_555
C3 C5B 1_555 1_555
C5 C1B 1_555 1_555
C5 C2B 1_555 1_555
C5 C1UB 1_555 1_555
C5 C5UB 1_555 1_555
C5 C1WB 1_555 1_555
C5 C5WB 1_555 1_555
C6 C6UB 1_555 1_555
C6 C6WB 1_555 1_555
C1B C2B 1_555 1_555
C1B C5UB 1_555 1_555
C1B C5WB 1_555 1_555
C2B C3B 1_555 1_555
C3B C4B 1_555 1_555
C3B C6B 1_555 1_555
C4B C5B 1_555 1_555
C5B C1UB 1_555 1_555
C5B C5UB 1_555 1_555
C5B C1WB 1_555 1_555
C5B C5WB 1_555 1_555
C6B C6UB 1_555 1_555
C6B C6WB 1_555 1_555
N1F C1F 1_555 1_555
C1F C5T 1_555 1_555
C1F C5GB 1_555 1_555
C1F C5JB 1_555 1_555
C2F C5T 1_555 1_555
C3F C5T 1_555 1_555
C4F C5F 1_555 1_555
C5F C1T 1_555 1_555
C5F C2T 1_555 1_555
C5F C1GB 1_555 1_555
C5F C5GB 1_555 1_555
C5F C1JB 1_555 1_555
C5F C5JB 1_555 1_555
C6F C6GB 1_555 1_555
C6F C6JB 1_555 1_555
N1D C1U 1_555 1_555
C1U C5D 1_555 1_555
C1U C5HB 1_555 1_555
C1U C5MB 1_555 1_555
C2U C5D 1_555 1_555
C3U C5D 1_555 1_555
C4U C5U 1_555 1_555
C5U C1D 1_555 1_555
C5U C2D 1_555 1_555
C5U C1HB 1_555 1_555
C5U C5HB 1_555 1_555
C5U C1MB 1_555 1_555
C5U C5MB 1_555 1_555
C6U C6HB 1_555 1_555
C6U C6MB 1_555 1_555
C1UB C5WB 1_555 1_555
C2UB C5WB 1_555 1_555
C3UB C6UB 1_555 1_555
C3UB C5WB 1_555 1_555
C4UB C5UB 1_555 1_555
C5UB C1WB 1_555 1_555
C5UB C2WB 1_555 1_555
C1WB C2WB 1_555 1_555
C2WB C3WB 1_555 1_555
C3WB C4WB 1_555 1_555
C3WB C6WB 1_555 1_555
C4WB C5WB 1_555 1_555
C1D C2D 1_555 1_555
C1D C5HB 1_555 1_555
C1D C5MB 1_555 1_555
C2D C3D 1_555 1_555
C3D C4D 1_555 1_555
C3D C6D 1_555 1_555
C4D C5D 1_555 1_555
C5D C1HB 1_555 1_555
C5D C5HB 1_555 1_555
C5D C1MB 1_555 1_555
C5D C5MB 1_555 1_555
C6D C6HB 1_555 1_555
C6D C6MB 1_555 1_555
N1E C1H 1_555 1_555
C1H C5LC 1_555 1_555
C1H C5MC 1_555 1_555
C1H C5E 1_555 1_555
C2H C5E 1_555 1_555
C3H C5E 1_555 1_555
C4H C5H 1_555 1_555
C5H C1LC 1_555 1_555
C5H C5LC 1_555 1_555
C5H C1MC 1_555 1_555
C5H C5MC 1_555 1_555
C5H C1E 1_555 1_555
C5H C2E 1_555 1_555
C6H C6LC 1_555 1_555
C6H C6MC 1_555 1_555
C1T C2T 1_555 1_555
C1T C5GB 1_555 1_555
C1T C5JB 1_555 1_555
C1T C1E 1_555 1_555
C2T C3T 1_555 1_555
C3T C4T 1_555 1_555
C3T C6T 1_555 1_555
C4T C5T 1_555 1_555
C5T C1GB 1_555 1_555
C5T C5GB 1_555 1_555
C5T C1JB 1_555 1_555
C5T C5JB 1_555 1_555
C6T C6GB 1_555 1_555
C6T C6JB 1_555 1_555
C1GB C5JB 1_555 1_555
C2GB C5JB 1_555 1_555
C3GB C6GB 1_555 1_555
C3GB C5JB 1_555 1_555
C4GB C5GB 1_555 1_555
C5GB C1JB 1_555 1_555
C5GB C2JB 1_555 1_555
C1HB C5MB 1_555 1_555
C2HB C5MB 1_555 1_555
C3HB C6HB 1_555 1_555
C3HB C5MB 1_555 1_555
C4HB C5HB 1_555 1_555
C5HB C1MB 1_555 1_555
C5HB C2MB 1_555 1_555
C1JB C2JB 1_555 1_555
C2JB C3JB 1_555 1_555
C3JB C4JB 1_555 1_555
C3JB C6JB 1_555 1_555
C4JB C5JB 1_555 1_555
C1MB C2MB 1_555 1_555
C2MB C3MB 1_555 1_555
C3MB C4MB 1_555 1_555
C3MB C6MB 1_555 1_555
C4MB C5MB 1_555 1_555
N1CB C1RB 1_555 1_555
N1CB C1GC 1_555 1_555
N1CB C1CB 1_555 1_555
C1RB C5DC 1_555 1_555
C1RB C5GC 1_555 1_555
C1RB C5CB 1_555 1_555
C2RB C5CB 1_555 1_555
C3RB C5CB 1_555 1_555
C4RB C5RB 1_555 1_555
C5RB C1DC 1_555 1_555
C5RB C5DC 1_555 1_555
C5RB C1GC 1_555 1_555
C5RB C5GC 1_555 1_555
C5RB C1CB 1_555 1_555
C5RB C2CB 1_555 1_555
C6RB C6DC 1_555 1_555
C6RB C6GC 1_555 1_555
N1EB C1SB 1_555 1_555
N1EB C1JC 1_555 1_555
N1EB C1EB 1_555 1_555
C1SB C5IC 1_555 1_555
C1SB C5JC 1_555 1_555
C1SB C5EB 1_555 1_555
C2SB C5EB 1_555 1_555
C3SB C5EB 1_555 1_555
C4SB C5SB 1_555 1_555
C5SB C1IC 1_555 1_555
C5SB C5IC 1_555 1_555
C5SB C1JC 1_555 1_555
C5SB C5JC 1_555 1_555
C5SB C1EB 1_555 1_555
C5SB C2EB 1_555 1_555
C6SB C6IC 1_555 1_555
C6SB C6JC 1_555 1_555
C1DC C5GC 1_555 1_555
C1DC C1MC 1_555 1_555
C1DC C5CB 1_555 1_555
C2DC C5GC 1_555 1_555
C3DC C6DC 1_555 1_555
C3DC C5GC 1_555 1_555
C4DC C5DC 1_555 1_555
C5DC C1GC 1_555 1_555
C5DC C2GC 1_555 1_555
C5DC C1CB 1_555 1_555
C5DC C5CB 1_555 1_555
C6DC C6CB 1_555 1_555
C1GC C2GC 1_555 1_555
C1GC C5CB 1_555 1_555
C2GC C3GC 1_555 1_555
C3GC C4GC 1_555 1_555
C3GC C6GC 1_555 1_555
C4GC C5GC 1_555 1_555
C5GC C1CB 1_555 1_555
C5GC C5CB 1_555 1_555
C6GC C6CB 1_555 1_555
C1IC C5JC 1_555 1_555
C1IC C1LC 1_555 1_555
C1IC C5EB 1_555 1_555
C2IC C5JC 1_555 1_555
C3IC C6IC 1_555 1_555
C3IC C5JC 1_555 1_555
C4IC C5IC 1_555 1_555
C5IC C1JC 1_555 1_555
C5IC C2JC 1_555 1_555
C5IC C1EB 1_555 1_555
C5IC C5EB 1_555 1_555
C6IC C6EB 1_555 1_555
C1JC C2JC 1_555 1_555
C1JC C5EB 1_555 1_555
C2JC C3JC 1_555 1_555
C3JC C4JC 1_555 1_555
C3JC C6JC 1_555 1_555
C4JC C5JC 1_555 1_555
C5JC C1EB 1_555 1_555
C5JC C5EB 1_555 1_555
C6JC C6EB 1_555 1_555
C1LC C5MC 1_555 1_555
C1LC C5E 1_555 1_555
C2LC C5MC 1_555 1_555
C3LC C6LC 1_555 1_555
C3LC C5MC 1_555 1_555
C4LC C5LC 1_555 1_555
C5LC C1MC 1_555 1_555
C5LC C2MC 1_555 1_555
C5LC C1E 1_555 1_555
C5LC C5E 1_555 1_555
C6LC C6E 1_555 1_555
C1MC C2MC 1_555 1_555
C1MC C5E 1_555 1_555
C2MC C3MC 1_555 1_555
C3MC C4MC 1_555 1_555
C3MC C6MC 1_555 1_555
C4MC C5MC 1_555 1_555
C5MC C1E 1_555 1_555
C5MC C5E 1_555 1_555
C6MC C6E 1_555 1_555
C1E C2E 1_555 1_555
C2E C3E 1_555 1_555
C3E C4E 1_555 1_555
C3E C6E 1_555 1_555
C4E C5E 1_555 1_555
C1EB C2EB 1_555 1_555
C2EB C3EB 1_555 1_555
C3EB C4EB 1_555 1_555
C3EB C6EB 1_555 1_555
C4EB C5EB 1_555 1_555
C1CB C2CB 1_555 1_555
C2CB C3CB 1_555 1_555
C3CB C4CB 1_555 1_555
C3CB C6CB 1_555 1_555
C4CB C5CB 1_555 1_555
C1A C5C 1_555 1_555
C1A C5VB 1_555 1_555
C1A C5TB 1_555 1_555
C2A C5C 1_555 1_555
C3A C5C 1_555 1_555
C5A C1C 1_555 1_555
C5A C2C 1_555 1_555
C5A C1VB 1_555 1_555
C5A C5VB 1_555 1_555
C5A C1TB 1_555 1_555
C5A C5TB 1_555 1_555
C6A C6VB 1_555 1_555
C6A C6TB 1_555 1_555
C1C C2C 1_555 1_555
C1C C5VB 1_555 1_555
C1C C5TB 1_555 1_555
C2C C3C 1_555 1_555
C3C C4C 1_555 1_555
C3C C6C 1_555 1_555
C4C C5C 1_555 1_555
C5C C1VB 1_555 1_555
C5C C5VB 1_555 1_555
C5C C1TB 1_555 1_555
C5C C5TB 1_555 1_555
C6C C6VB 1_555 1_555
C6C C6TB 1_555 1_555
N1O Ru1A 1_555 1_555
C1P C5O 1_555 1_555
C1P C5GA 1_555 1_555
C1P C5UA 1_555 1_555
C2P C5O 1_555 1_555
C3P C5O 1_555 1_555
C4P C5P 1_555 1_555
C5P C1O 1_555 1_555
C5P C2O 1_555 1_555
C5P C1GA 1_555 1_555
C5P C5GA 1_555 1_555
C5P C1UA 1_555 1_555
C5P C5UA 1_555 1_555
C6P C6GA 1_555 1_555
C6P C6UA 1_555 1_555
O1J C6TA 1_555 1_555
O1J In1D_2 1_555 1_555
N1J Ru1A 1_555 1_555
C1M C5J 1_555 1_555
C1M C5TA 1_555 1_555
C1M C5EA 1_555 1_555
C2M C5J 1_555 1_555
C3M C5J 1_555 1_555
C4M C5M 1_555 1_555
C5M C1J 1_555 1_555
C5M C2J 1_555 1_555
C5M C1TA 1_555 1_555
C5M C5TA 1_555 1_555
C5M C1EA 1_555 1_555
C5M C5EA 1_555 1_555
C6M C6TA 1_555 1_555
C6M C6EA 1_555 1_555
C1VB C5TB 1_555 1_555
C2VB C5TB 1_555 1_555
C3VB C6VB 1_555 1_555
C3VB C5TB 1_555 1_555
C4VB C5VB 1_555 1_555
C5VB C1TB 1_555 1_555
C5VB C2TB 1_555 1_555
C1TB C2TB 1_555 1_555
C2TB C3TB 1_555 1_555
C3TB C4TB 1_555 1_555
C3TB C6TB 1_555 1_555
C4TB C5TB 1_555 1_555
C1J C2J 1_555 1_555
C1J C5TA 1_555 1_555
C1J C5EA 1_555 1_555
C2J C3J 1_555 1_555
C3J C4J 1_555 1_555
C3J C6J 1_555 1_555
C4J C5J 1_555 1_555
C5J C1TA 1_555 1_555
C5J C5TA 1_555 1_555
C5J C1EA 1_555 1_555
C5J C5EA 1_555 1_555
C6J C6TA 1_555 1_555
C6J C6EA 1_555 1_555
N1R Ru1A 1_555 1_555
C1S C5BC 1_555 1_555
C1S C5YB 1_555 1_555
C1S C5R 1_555 1_555
C2S C5R 1_555 1_555
C3S C5R 1_555 1_555
C4S C5S 1_555 1_555
C5S C1BC 1_555 1_555
C5S C5BC 1_555 1_555
C5S C1YB 1_555 1_555
C5S C5YB 1_555 1_555
C5S C1R 1_555 1_555
C5S C2R 1_555 1_555
C6S C6BC 1_555 1_555
C6S C6YB 1_555 1_555
C1O C2O 1_555 1_555
C1O C5GA 1_555 1_555
C1O C5UA 1_555 1_555
C1O C1R 1_555 1_555
C2O C3O 1_555 1_555
C3O C4O 1_555 1_555
C3O C6O 1_555 1_555
C4O C5O 1_555 1_555
C5O C1GA 1_555 1_555
C5O C5GA 1_555 1_555
C5O C1UA 1_555 1_555
C5O C5UA 1_555 1_555
C6O C6GA 1_555 1_555
C6O C6UA 1_555 1_555
C1GA C5UA 1_555 1_555
C2GA C5UA 1_555 1_555
C3GA C6GA 1_555 1_555
C3GA C5UA 1_555 1_555
C4GA C5GA 1_555 1_555
C5GA C1UA 1_555 1_555
C5GA C2UA 1_555 1_555
C1TA C5EA 1_555 1_555
C2TA C5EA 1_555 1_555
C3TA C6TA 1_555 1_555
C3TA C5EA 1_555 1_555
C4TA C5TA 1_555 1_555
C5TA C1EA 1_555 1_555
C5TA C2EA 1_555 1_555
C1UA C2UA 1_555 1_555
C2UA C3UA 1_555 1_555
C3UA C4UA 1_555 1_555
C3UA C6UA 1_555 1_555
C4UA C5UA 1_555 1_555
C1EA C2EA 1_555 1_555
C2EA C3EA 1_555 1_555
C3EA C4EA 1_555 1_555
C3EA C6EA 1_555 1_555
C4EA C5EA 1_555 1_555
O1IA C6LA 1_555 1_555
O1IA In1Y_2 1_555 1_555
N1IA C1ZB 1_555 1_555
N1IA C1LA 1_555 1_555
N1IA Ru1A 1_555 1_555
C1IA C5NC 1_555 1_555
C1IA C5ZB 1_555 1_555
C1IA C5LA 1_555 1_555
C2IA C5LA 1_555 1_555
C3IA C5LA 1_555 1_555
C4IA C5IA 1_555 1_555
C5IA C1NC 1_555 1_555
C5IA C5NC 1_555 1_555
C5IA C1ZB 1_555 1_555
C5IA C5ZB 1_555 1_555
C5IA C1LA 1_555 1_555
C5IA C2LA 1_555 1_555
C6IA C6NC 1_555 1_555
C6IA C6ZB 1_555 1_555
N1JA C1OC 1_555 1_555
N1JA C1JA 1_555 1_555
N1JA Ru1A 1_555 1_555
C1OA C5XB 1_555 1_555
C1OA C5OC 1_555 1_555
C1OA C5JA 1_555 1_555
C2OA C5JA 1_555 1_555
C3OA C5JA 1_555 1_555
C4OA C5OA 1_555 1_555
C5OA C1XB 1_555 1_555
C5OA C5XB 1_555 1_555
C5OA C1OC 1_555 1_555
C5OA C5OC 1_555 1_555
C5OA C1JA 1_555 1_555
C5OA C2JA 1_555 1_555
C6OA C6XB 1_555 1_555
C6OA C6OC 1_555 1_555
C1NC C5ZB 1_555 1_555
C1NC C1YB 1_555 1_555
C1NC C5LA 1_555 1_555
C2NC C5ZB 1_555 1_555
C3NC C6NC 1_555 1_555
C3NC C5ZB 1_555 1_555
C4NC C5NC 1_555 1_555
C5NC C1ZB 1_555 1_555
C5NC C2ZB 1_555 1_555
C5NC C1LA 1_555 1_555
C5NC C5LA 1_555 1_555
C6NC C6LA 1_555 1_555
C1ZB C2ZB 1_555 1_555
C1ZB C5LA 1_555 1_555
C2ZB C3ZB 1_555 1_555
C3ZB C4ZB 1_555 1_555
C3ZB C6ZB 1_555 1_555
C4ZB C5ZB 1_555 1_555
C5ZB C1LA 1_555 1_555
C5ZB C5LA 1_555 1_555
C6ZB C6LA 1_555 1_555
C1XB C5OC 1_555 1_555
C1XB C1BC 1_555 1_555
C1XB C5JA 1_555 1_555
C2XB C5OC 1_555 1_555
C3XB C6XB 1_555 1_555
C3XB C5OC 1_555 1_555
C4XB C5XB 1_555 1_555
C5XB C1OC 1_555 1_555
C5XB C2OC 1_555 1_555
C5XB C1JA 1_555 1_555
C5XB C5JA 1_555 1_555
C6XB C6JA 1_555 1_555
C1OC C2OC 1_555 1_555
C1OC C5JA 1_555 1_555
C2OC C3OC 1_555 1_555
C3OC C4OC 1_555 1_555
C3OC C6OC 1_555 1_555
C4OC C5OC 1_555 1_555
C5OC C1JA 1_555 1_555
C5OC C5JA 1_555 1_555
C6OC C6JA 1_555 1_555
C1BC C5YB 1_555 1_555
C1BC C5R 1_555 1_555
C2BC C5YB 1_555 1_555
C3BC C6BC 1_555 1_555
C3BC C5YB 1_555 1_555
C4BC C5BC 1_555 1_555
C5BC C1YB 1_555 1_555
C5BC C2YB 1_555 1_555
C5BC C1R 1_555 1_555
C5BC C5R 1_555 1_555
C6BC C6R 1_555 1_555
C1YB C2YB 1_555 1_555
C1YB C5R 1_555 1_555
C2YB C3YB 1_555 1_555
C3YB C4YB 1_555 1_555
C3YB C6YB 1_555 1_555
C4YB C5YB 1_555 1_555
C5YB C1R 1_555 1_555
C5YB C5R 1_555 1_555
C6YB C6R 1_555 1_555
C1R C2R 1_555 1_555
C2R C3R 1_555 1_555
C3R C4R 1_555 1_555
C3R C6R 1_555 1_555
C4R C5R 1_555 1_555
C1JA C2JA 1_555 1_555
C2JA C3JA 1_555 1_555
C3JA C4JA 1_555 1_555
C3JA C6JA 1_555 1_555
C4JA C5JA 1_555 1_555
C1LA C2LA 1_555 1_555
C2LA C3LA 1_555 1_555
C3LA C4LA 1_555 1_555
C3LA C6LA 1_555 1_555
C4LA C5LA 1_555 1_555
O1G C6HA 1_555 1_555
O1I C6MA 1_555 1_555
O1BA C6BA 1_555 1_555
O1DA C6RA 1_555 1_555
C6Y C6VA 1_555 1_555
C6Z C6YA 1_555 1_555
C6CA C6NB 1_555 1_555
C6QA C6DB 1_555 1_555

#END
