
#######################################################################
#
#                 Cambridge Crystallographic Data Centre
#                                CCDC 
#
#######################################################################
#
# If this CIF has been generated from an entry in the Cambridge 
# Structural Database, then it will include bibliographic, chemical, 
# crystal, experimental, refinement or atomic coordinate data resulting 
# from the CCDC's data processing and validation procedures.
#
#######################################################################

data_GUKQUZ
_chemical_formula_moiety         '(C144 H142 O85 Zn14)n'
_symmetry_cell_setting           cubic
_symmetry_space_group_name_H-M   'F m -3 m'
_symmetry_Int_Tables_number      225
_space_group_name_Hall           '-F 4 2 3'
loop_
_symmetry_equiv_pos_site_id
_symmetry_equiv_pos_as_xyz
1 x,y,z
2 -y,x,z
3 -x,-y,z
4 y,-x,z
5 x,-z,y
6 x,-y,-z
7 x,z,-y
8 z,y,-x
9 -x,y,-z
10 -z,y,x
11 z,x,y
12 y,z,x
13 -y,-z,x
14 z,-x,-y
15 -y,z,-x
16 -z,-x,y
17 -z,x,-y
18 y,-z,-x
19 y,x,-z
20 -y,-x,-z
21 -x,z,y
22 -x,-z,-y
23 z,-y,x
24 -z,-y,-x
25 x,1/2+y,1/2+z
26 -y,1/2+x,1/2+z
27 -x,1/2-y,1/2+z
28 y,1/2-x,1/2+z
29 x,1/2-z,1/2+y
30 x,1/2-y,1/2-z
31 x,1/2+z,1/2-y
32 z,1/2+y,1/2-x
33 -x,1/2+y,1/2-z
34 -z,1/2+y,1/2+x
35 z,1/2+x,1/2+y
36 y,1/2+z,1/2+x
37 -y,1/2-z,1/2+x
38 z,1/2-x,1/2-y
39 -y,1/2+z,1/2-x
40 -z,1/2-x,1/2+y
41 -z,1/2+x,1/2-y
42 y,1/2-z,1/2-x
43 y,1/2+x,1/2-z
44 -y,1/2-x,1/2-z
45 -x,1/2+z,1/2+y
46 -x,1/2-z,1/2-y
47 z,1/2-y,1/2+x
48 -z,1/2-y,1/2-x
49 1/2+x,y,1/2+z
50 1/2-y,x,1/2+z
51 1/2-x,-y,1/2+z
52 1/2+y,-x,1/2+z
53 1/2+x,-z,1/2+y
54 1/2+x,-y,1/2-z
55 1/2+x,z,1/2-y
56 1/2+z,y,1/2-x
57 1/2-x,y,1/2-z
58 1/2-z,y,1/2+x
59 1/2+z,x,1/2+y
60 1/2+y,z,1/2+x
61 1/2-y,-z,1/2+x
62 1/2+z,-x,1/2-y
63 1/2-y,z,1/2-x
64 1/2-z,-x,1/2+y
65 1/2-z,x,1/2-y
66 1/2+y,-z,1/2-x
67 1/2+y,x,1/2-z
68 1/2-y,-x,1/2-z
69 1/2-x,z,1/2+y
70 1/2-x,-z,1/2-y
71 1/2+z,-y,1/2+x
72 1/2-z,-y,1/2-x
73 1/2+x,1/2+y,z
74 1/2-y,1/2+x,z
75 1/2-x,1/2-y,z
76 1/2+y,1/2-x,z
77 1/2+x,1/2-z,y
78 1/2+x,1/2-y,-z
79 1/2+x,1/2+z,-y
80 1/2+z,1/2+y,-x
81 1/2-x,1/2+y,-z
82 1/2-z,1/2+y,x
83 1/2+z,1/2+x,y
84 1/2+y,1/2+z,x
85 1/2-y,1/2-z,x
86 1/2+z,1/2-x,-y
87 1/2-y,1/2+z,-x
88 1/2-z,1/2-x,y
89 1/2-z,1/2+x,-y
90 1/2+y,1/2-z,-x
91 1/2+y,1/2+x,-z
92 1/2-y,1/2-x,-z
93 1/2-x,1/2+z,y
94 1/2-x,1/2-z,-y
95 1/2+z,1/2-y,x
96 1/2-z,1/2-y,-x
97 -x,-y,-z
98 y,-x,-z
99 x,y,-z
100 -y,x,-z
101 -x,z,-y
102 -x,y,z
103 -x,-z,y
104 -z,-y,x
105 x,-y,z
106 z,-y,-x
107 -z,-x,-y
108 -y,-z,-x
109 y,z,-x
110 -z,x,y
111 y,-z,x
112 z,x,-y
113 z,-x,y
114 -y,z,x
115 -y,-x,z
116 y,x,z
117 x,-z,-y
118 x,z,y
119 -z,y,-x
120 z,y,x
121 -x,1/2-y,1/2-z
122 y,1/2-x,1/2-z
123 x,1/2+y,1/2-z
124 -y,1/2+x,1/2-z
125 -x,1/2+z,1/2-y
126 -x,1/2+y,1/2+z
127 -x,1/2-z,1/2+y
128 -z,1/2-y,1/2+x
129 x,1/2-y,1/2+z
130 z,1/2-y,1/2-x
131 -z,1/2-x,1/2-y
132 -y,1/2-z,1/2-x
133 y,1/2+z,1/2-x
134 -z,1/2+x,1/2+y
135 y,1/2-z,1/2+x
136 z,1/2+x,1/2-y
137 z,1/2-x,1/2+y
138 -y,1/2+z,1/2+x
139 -y,1/2-x,1/2+z
140 y,1/2+x,1/2+z
141 x,1/2-z,1/2-y
142 x,1/2+z,1/2+y
143 -z,1/2+y,1/2-x
144 z,1/2+y,1/2+x
145 1/2-x,-y,1/2-z
146 1/2+y,-x,1/2-z
147 1/2+x,y,1/2-z
148 1/2-y,x,1/2-z
149 1/2-x,z,1/2-y
150 1/2-x,y,1/2+z
151 1/2-x,-z,1/2+y
152 1/2-z,-y,1/2+x
153 1/2+x,-y,1/2+z
154 1/2+z,-y,1/2-x
155 1/2-z,-x,1/2-y
156 1/2-y,-z,1/2-x
157 1/2+y,z,1/2-x
158 1/2-z,x,1/2+y
159 1/2+y,-z,1/2+x
160 1/2+z,x,1/2-y
161 1/2+z,-x,1/2+y
162 1/2-y,z,1/2+x
163 1/2-y,-x,1/2+z
164 1/2+y,x,1/2+z
165 1/2+x,-z,1/2-y
166 1/2+x,z,1/2+y
167 1/2-z,y,1/2-x
168 1/2+z,y,1/2+x
169 1/2-x,1/2-y,-z
170 1/2+y,1/2-x,-z
171 1/2+x,1/2+y,-z
172 1/2-y,1/2+x,-z
173 1/2-x,1/2+z,-y
174 1/2-x,1/2+y,z
175 1/2-x,1/2-z,y
176 1/2-z,1/2-y,x
177 1/2+x,1/2-y,z
178 1/2+z,1/2-y,-x
179 1/2-z,1/2-x,-y
180 1/2-y,1/2-z,-x
181 1/2+y,1/2+z,-x
182 1/2-z,1/2+x,y
183 1/2+y,1/2-z,x
184 1/2+z,1/2+x,-y
185 1/2+z,1/2-x,y
186 1/2-y,1/2+z,x
187 1/2-y,1/2-x,z
188 1/2+y,1/2+x,z
189 1/2+x,1/2-z,-y
190 1/2+x,1/2+z,y
191 1/2-z,1/2+y,-x
192 1/2+z,1/2+y,x
_cell_length_a                   43.622(4)
_cell_length_b                   43.622(4)
_cell_length_c                   43.622(4)
_cell_angle_alpha                90
_cell_angle_beta                 90
_cell_angle_gamma                90
_cell_volume                     83007.4
loop_
_atom_site_label
_atom_site_type_symbol
_atom_site_fract_x
_atom_site_fract_y
_atom_site_fract_z
_atom_site_U_iso_or_equiv
_atom_site_thermal_displace_type
Zn1 Zn 0.26872(5) 0.5000 0.0000 0.0925 Uani
Zn2 Zn 0.20059(6) 0.5000 0.0000 0.0899 Uani
Zn3 Zn 0.16010(4) 0.33990(4) 0.16010(4) 0.1198 Uani
Zn4 Zn 0.11336(3) 0.38664(3) 0.11336(3) 0.1105 Uani
O1 O 0.3144(3) 0.5000 0.0000 0.1957 Uani
O2 O 0.2903(3) 0.3888(3) 0.1112(3) 0.1773 Uani
O3 O 0.2597(2) 0.46755(15) 0.03245(15) 0.1227 Uani
C1 C 0.1782(5) 0.3874(3) 0.1126(3) 0.1260 Uani
O4 O 0.2091(2) 0.46734(14) 0.03266(14) 0.1203 Uani
O5 O 0.1558(2) 0.39677(17) 0.10323(17) 0.1313 Uani
C2 C 0.2351(3) 0.43413(19) 0.06587(19) 0.0900 Uani
C3 C 0.2076(3) 0.4000(3) 0.1000(3) 0.1127 Uani
O6 O 0.1557(5) 0.5000 0.0000 0.1640 Uani
C4 C 0.2077(3) 0.4228(2) 0.0772(2) 0.1020 Uani
H1 H 0.1888 0.4305 0.0695 0.1220 Uiso
C5 C 0.2373(4) 0.3897(2) 0.1103(2) 0.1250 Uani
H2 H 0.2385 0.3743 0.1257 0.1500 Uiso
C6 C 0.2631(3) 0.4237(2) 0.0763(2) 0.1030 Uiso
H3 H 0.2817 0.4317 0.0683 0.1230 Uiso
O7 O 0.1827(3) 0.3675(2) 0.1325(2) 0.1640 Uani
C7 C 0.2636(4) 0.4018(3) 0.0982(3) 0.1290 Uiso
O8 O 0.0874(4) 0.4126(4) 0.0874(4) 0.2740 Uani
C8 C 0.2356(3) 0.4578(2) 0.0422(2) 0.0990 Uiso
O9 O 0.1935(3) 0.3065(3) 0.1502(10) 0.5667 Uani
C9 C 0.3398(5) 0.3787(3) 0.1213(3) 0.1867 Uani
C10 C 0.3527(3) 0.3527(3) 0.1082(6) 0.2320 Uani
C11 C 0.3395(5) 0.3395(5) 0.0779(6) 0.2727 Uani
H4 H 0.3299 0.3560 0.0661 0.4070 Uiso
H5 H 0.3241 0.3238 0.0827 0.4070 Uiso
C12 C 0.3155(6) 0.3992(5) 0.1008(5) 0.2727 Uani
H6 H 0.3178 0.4214 0.1048 0.3250 Uiso
O2OA O 0.3888(3) 0.3888(3) 0.2097(3) 0.1773 Uani
O3OA O 0.46755(15) 0.46755(15) 0.2403(2) 0.1227 Uani
C1OA C 0.3874(3) 0.3874(3) 0.3218(5) 0.1260 Uani
O4OA O 0.46734(14) 0.46734(14) 0.2909(2) 0.1203 Uani
O5OA O 0.39677(17) 0.39677(17) 0.3442(2) 0.1313 Uani
C2OA C 0.43413(19) 0.43413(19) 0.2649(3) 0.0900 Uani
C3OA C 0.4000(3) 0.4000(3) 0.2924(3) 0.1127 Uani
C4OA C 0.4228(2) 0.4228(2) 0.2923(3) 0.1020 Uani
H1OA H 0.4305 0.4305 0.3112 0.1220 Uiso
C5OA C 0.3897(2) 0.3897(2) 0.2627(4) 0.1250 Uani
H2OA H 0.3743 0.3743 0.2615 0.1500 Uiso
C6OA C 0.4237(2) 0.4237(2) 0.2369(3) 0.1030 Uiso
H3OA H 0.4317 0.4317 0.2183 0.1230 Uiso
O7OA O 0.3675(2) 0.3675(2) 0.3173(3) 0.1640 Uani
C7OA C 0.4018(3) 0.4018(3) 0.2364(4) 0.1290 Uiso
C8OA C 0.4578(2) 0.4578(2) 0.2644(3) 0.0990 Uiso
C9OA C 0.3787(3) 0.3787(3) 0.1602(5) 0.1867 Uani
C10OA C 0.3527(3) 0.3918(6) 0.1473(3) 0.2320 Uani
C11OA C 0.3395(5) 0.4221(6) 0.1605(5) 0.2727 Uani
H4OA H 0.3560 0.4339 0.1701 0.4070 Uiso
H5OA H 0.3238 0.4173 0.1759 0.4070 Uiso
C12OA C 0.3992(5) 0.3992(5) 0.1845(6) 0.2727 Uani
H6OA H 0.4214 0.3952 0.1822 0.3250 Uiso
O2LB O 0.3888(3) 0.2903(3) 0.1112(3) 0.1773 Uani
O3LB O 0.46755(15) 0.2597(2) 0.03245(15) 0.1227 Uani
C1LB C 0.3874(3) 0.1782(5) 0.1126(3) 0.1260 Uani
O4LB O 0.46734(14) 0.2091(2) 0.03266(14) 0.1203 Uani
O5LB O 0.39677(17) 0.1558(2) 0.10323(17) 0.1313 Uani
C2LB C 0.43413(19) 0.2351(3) 0.06587(19) 0.0900 Uani
C3LB C 0.4000(3) 0.2076(3) 0.1000(3) 0.1127 Uani
C4LB C 0.4228(2) 0.2077(3) 0.0772(2) 0.1020 Uani
H1LB H 0.4305 0.1888 0.0695 0.1220 Uiso
C5LB C 0.3897(2) 0.2373(4) 0.1103(2) 0.1250 Uani
H2LB H 0.3743 0.2385 0.1257 0.1500 Uiso
C6LB C 0.4237(2) 0.2631(3) 0.0763(2) 0.1030 Uiso
H3LB H 0.4317 0.2817 0.0683 0.1230 Uiso
O7LB O 0.3675(2) 0.1827(3) 0.1325(2) 0.1640 Uani
C7LB C 0.4018(3) 0.2636(4) 0.0982(3) 0.1290 Uiso
C8LB C 0.4578(2) 0.2356(3) 0.0422(2) 0.0990 Uiso
C9LB C 0.3787(3) 0.3398(5) 0.1213(3) 0.1867 Uani
C10LB C 0.3918(6) 0.3527(3) 0.1473(3) 0.2320 Uani
C11LB C 0.4221(6) 0.3395(5) 0.1605(5) 0.2727 Uani
H4LB H 0.4339 0.3299 0.1440 0.4070 Uiso
H5LB H 0.4173 0.3241 0.1762 0.4070 Uiso
C12LB C 0.3992(5) 0.3155(6) 0.1008(5) 0.2727 Uani
H6LB H 0.3952 0.3178 0.0786 0.3250 Uiso
H4KD H 0.3560 0.3299 0.0661 0.4070 Uiso
H6KD H 0.4214 0.3178 0.1048 0.3250 Uiso
H4JE H 0.3299 0.4339 0.1440 0.4070 Uiso
H6JE H 0.3178 0.3952 0.0786 0.3250 Uiso
H4JF H 0.4339 0.3560 0.1701 0.4070 Uiso
H6JF H 0.3952 0.4214 0.1822 0.3250 Uiso
Zn1A Zn 0.5000 0.26872(5) 0.0000 0.0925 Uani
Zn2A Zn 0.5000 0.20059(6) 0.0000 0.0899 Uani
O1A O 0.5000 0.3144(3) 0.0000 0.1957 Uani
O2A O 0.6112(3) 0.2903(3) 0.1112(3) 0.1773 Uani
O3A O 0.53245(15) 0.2597(2) 0.03245(15) 0.1227 Uani
C1A C 0.6126(3) 0.1782(5) 0.1126(3) 0.1260 Uani
O4A O 0.53266(14) 0.2091(2) 0.03266(14) 0.1203 Uani
O5A O 0.60323(17) 0.1558(2) 0.10323(17) 0.1313 Uani
C2A C 0.56587(19) 0.2351(3) 0.06587(19) 0.0900 Uani
C3A C 0.6000(3) 0.2076(3) 0.1000(3) 0.1127 Uani
O6A O 0.5000 0.1557(5) 0.0000 0.1640 Uani
C4A C 0.5772(2) 0.2077(3) 0.0772(2) 0.1020 Uani
H1A H 0.5695 0.1888 0.0695 0.1220 Uiso
C5A C 0.6103(2) 0.2373(4) 0.1103(2) 0.1250 Uani
H2A H 0.6257 0.2385 0.1257 0.1500 Uiso
C6A C 0.5763(2) 0.2631(3) 0.0763(2) 0.1030 Uiso
H3A H 0.5683 0.2817 0.0683 0.1230 Uiso
O7A O 0.6325(2) 0.1827(3) 0.1325(2) 0.1640 Uani
C7A C 0.5982(3) 0.2636(4) 0.0982(3) 0.1290 Uiso
C8A C 0.5422(2) 0.2356(3) 0.0422(2) 0.0990 Uiso
C9A C 0.6213(3) 0.3398(5) 0.1213(3) 0.1867 Uani
C10A C 0.6473(3) 0.3527(3) 0.1082(6) 0.2320 Uani
C11A C 0.6605(5) 0.3395(5) 0.0779(6) 0.2727 Uani
H4A H 0.6440 0.3299 0.0661 0.4070 Uiso
H5A H 0.6762 0.3241 0.0827 0.4070 Uiso
C12A C 0.6008(5) 0.3155(6) 0.1008(5) 0.2727 Uani
H6A H 0.5786 0.3178 0.1048 0.3250 Uiso
O2CB O 0.6112(3) 0.3888(3) 0.2097(3) 0.1773 Uani
O3CB O 0.53245(15) 0.46755(15) 0.2403(2) 0.1227 Uani
C1CB C 0.6126(3) 0.3874(3) 0.3218(5) 0.1260 Uani
O4CB O 0.53266(14) 0.46734(14) 0.2909(2) 0.1203 Uani
O5CB O 0.60323(17) 0.39677(17) 0.3442(2) 0.1313 Uani
C2CB C 0.56587(19) 0.43413(19) 0.2649(3) 0.0900 Uani
C3CB C 0.6000(3) 0.4000(3) 0.2924(3) 0.1127 Uani
C4CB C 0.5772(2) 0.4228(2) 0.2923(3) 0.1020 Uani
H1CB H 0.5695 0.4305 0.3112 0.1220 Uiso
C5CB C 0.6103(2) 0.3897(2) 0.2627(4) 0.1250 Uani
H2CB H 0.6257 0.3743 0.2615 0.1500 Uiso
C6CB C 0.5763(2) 0.4237(2) 0.2369(3) 0.1030 Uiso
H3CB H 0.5683 0.4317 0.2183 0.1230 Uiso
O7CB O 0.6325(2) 0.3675(2) 0.3173(3) 0.1640 Uani
C7CB C 0.5982(3) 0.4018(3) 0.2364(4) 0.1290 Uiso
C8CB C 0.5422(2) 0.4578(2) 0.2644(3) 0.0990 Uiso
C9CB C 0.6213(3) 0.3787(3) 0.1602(5) 0.1867 Uani
C10CB C 0.6082(6) 0.3527(3) 0.1473(3) 0.2320 Uani
C11CB C 0.5779(6) 0.3395(5) 0.1605(5) 0.2727 Uani
H4CB H 0.5661 0.3560 0.1701 0.4070 Uiso
H5CB H 0.5827 0.3238 0.1759 0.4070 Uiso
C12CB C 0.6008(5) 0.3992(5) 0.1845(6) 0.2727 Uani
H6CB H 0.6048 0.4214 0.1822 0.3250 Uiso
O2SA O 0.7097(3) 0.3888(3) 0.1112(3) 0.1773 Uani
O3SA O 0.7403(2) 0.46755(15) 0.03245(15) 0.1227 Uani
C1SA C 0.8218(5) 0.3874(3) 0.1126(3) 0.1260 Uani
O4SA O 0.7909(2) 0.46734(14) 0.03266(14) 0.1203 Uani
O5SA O 0.8442(2) 0.39677(17) 0.10323(17) 0.1313 Uani
C2SA C 0.7649(3) 0.43413(19) 0.06587(19) 0.0900 Uani
C3SA C 0.7924(3) 0.4000(3) 0.1000(3) 0.1127 Uani
C4SA C 0.7923(3) 0.4228(2) 0.0772(2) 0.1020 Uani
H1SA H 0.8112 0.4305 0.0695 0.1220 Uiso
C5SA C 0.7627(4) 0.3897(2) 0.1103(2) 0.1250 Uani
H2SA H 0.7615 0.3743 0.1257 0.1500 Uiso
C6SA C 0.7369(3) 0.4237(2) 0.0763(2) 0.1030 Uiso
H3SA H 0.7183 0.4317 0.0683 0.1230 Uiso
O7SA O 0.8173(3) 0.3675(2) 0.1325(2) 0.1640 Uani
C7SA C 0.7364(4) 0.4018(3) 0.0982(3) 0.1290 Uiso
C8SA C 0.7644(3) 0.4578(2) 0.0422(2) 0.0990 Uiso
C9SA C 0.6602(5) 0.3787(3) 0.1213(3) 0.1867 Uani
C10SA C 0.6473(3) 0.3918(6) 0.1473(3) 0.2320 Uani
C11SA C 0.6605(5) 0.4221(6) 0.1605(5) 0.2727 Uani
H4SA H 0.6701 0.4339 0.1440 0.4070 Uiso
H5SA H 0.6759 0.4173 0.1762 0.4070 Uiso
C12SA C 0.6845(6) 0.3992(5) 0.1008(5) 0.2727 Uani
H6SA H 0.6822 0.3952 0.0786 0.3250 Uiso
H4WC H 0.6701 0.3560 0.0661 0.4070 Uiso
H6WC H 0.6822 0.4214 0.1048 0.3250 Uiso
H4CF H 0.5661 0.3299 0.1440 0.4070 Uiso
H6CF H 0.6048 0.3178 0.0786 0.3250 Uiso
H4AE H 0.6440 0.4339 0.1701 0.4070 Uiso
H6AE H 0.5786 0.3952 0.1822 0.3250 Uiso
Zn1C Zn 0.5000 0.73128(5) 0.0000 0.0925 Uani
Zn2C Zn 0.5000 0.79941(6) 0.0000 0.0899 Uani
O1C O 0.5000 0.6856(3) 0.0000 0.1957 Uani
O2C O 0.3888(3) 0.7097(3) 0.1112(3) 0.1773 Uani
O3C O 0.46755(15) 0.7403(2) 0.03245(15) 0.1227 Uani
C1C C 0.3874(3) 0.8218(5) 0.1126(3) 0.1260 Uani
O4C O 0.46734(14) 0.7909(2) 0.03266(14) 0.1203 Uani
O5C O 0.39677(17) 0.8442(2) 0.10323(17) 0.1313 Uani
C2C C 0.43413(19) 0.7649(3) 0.06587(19) 0.0900 Uani
C3C C 0.4000(3) 0.7924(3) 0.1000(3) 0.1127 Uani
O6C O 0.5000 0.8443(5) 0.0000 0.1640 Uani
C4C C 0.4228(2) 0.7923(3) 0.0772(2) 0.1020 Uani
H1C H 0.4305 0.8112 0.0695 0.1220 Uiso
C5C C 0.3897(2) 0.7627(4) 0.1103(2) 0.1250 Uani
H2C H 0.3743 0.7615 0.1257 0.1500 Uiso
C6C C 0.4237(2) 0.7369(3) 0.0763(2) 0.1030 Uiso
H3C H 0.4317 0.7183 0.0683 0.1230 Uiso
O7C O 0.3675(2) 0.8173(3) 0.1325(2) 0.1640 Uani
C7C C 0.4018(3) 0.7364(4) 0.0982(3) 0.1290 Uiso
C8C C 0.4578(2) 0.7644(3) 0.0422(2) 0.0990 Uiso
C9C C 0.3787(3) 0.6602(5) 0.1213(3) 0.1867 Uani
C10C C 0.3527(3) 0.6473(3) 0.1082(6) 0.2320 Uani
C11C C 0.3395(5) 0.6605(5) 0.0779(6) 0.2727 Uani
H4C H 0.3560 0.6701 0.0661 0.4070 Uiso
H5C H 0.3238 0.6759 0.0827 0.4070 Uiso
C12C C 0.3992(5) 0.6845(6) 0.1008(5) 0.2727 Uani
H6C H 0.4214 0.6822 0.1048 0.3250 Uiso
O2SB O 0.3888(3) 0.6112(3) 0.2097(3) 0.1773 Uani
O3SB O 0.46755(15) 0.53245(15) 0.2403(2) 0.1227 Uani
C1SB C 0.3874(3) 0.6126(3) 0.3218(5) 0.1260 Uani
O4SB O 0.46734(14) 0.53266(14) 0.2909(2) 0.1203 Uani
O5SB O 0.39677(17) 0.60323(17) 0.3442(2) 0.1313 Uani
C2SB C 0.43413(19) 0.56587(19) 0.2649(3) 0.0900 Uani
C3SB C 0.4000(3) 0.6000(3) 0.2924(3) 0.1127 Uani
C4SB C 0.4228(2) 0.5772(2) 0.2923(3) 0.1020 Uani
H1SB H 0.4305 0.5695 0.3112 0.1220 Uiso
C5SB C 0.3897(2) 0.6103(2) 0.2627(4) 0.1250 Uani
H2SB H 0.3743 0.6257 0.2615 0.1500 Uiso
C6SB C 0.4237(2) 0.5763(2) 0.2369(3) 0.1030 Uiso
H3SB H 0.4317 0.5683 0.2183 0.1230 Uiso
O7SB O 0.3675(2) 0.6325(2) 0.3173(3) 0.1640 Uani
C7SB C 0.4018(3) 0.5982(3) 0.2364(4) 0.1290 Uiso
C8SB C 0.4578(2) 0.5422(2) 0.2644(3) 0.0990 Uiso
C9SB C 0.3787(3) 0.6213(3) 0.1602(5) 0.1867 Uani
C10SB C 0.3918(6) 0.6473(3) 0.1473(3) 0.2320 Uani
C11SB C 0.4221(6) 0.6605(5) 0.1605(5) 0.2727 Uani
H4SB H 0.4339 0.6440 0.1701 0.4070 Uiso
H5SB H 0.4173 0.6762 0.1759 0.4070 Uiso
C12SB C 0.3992(5) 0.6008(5) 0.1845(6) 0.2727 Uani
H6SB H 0.3952 0.5786 0.1822 0.3250 Uiso
O2DA O 0.2903(3) 0.6112(3) 0.1112(3) 0.1773 Uani
O3DA O 0.2597(2) 0.53245(15) 0.03245(15) 0.1227 Uani
C1DA C 0.1782(5) 0.6126(3) 0.1126(3) 0.1260 Uani
O4DA O 0.2091(2) 0.53266(14) 0.03266(14) 0.1203 Uani
O5DA O 0.1558(2) 0.60323(17) 0.10323(17) 0.1313 Uani
C2DA C 0.2351(3) 0.56587(19) 0.06587(19) 0.0900 Uani
C3DA C 0.2076(3) 0.6000(3) 0.1000(3) 0.1127 Uani
C4DA C 0.2077(3) 0.5772(2) 0.0772(2) 0.1020 Uani
H1DA H 0.1888 0.5695 0.0695 0.1220 Uiso
C5DA C 0.2373(4) 0.6103(2) 0.1103(2) 0.1250 Uani
H2DA H 0.2385 0.6257 0.1257 0.1500 Uiso
C6DA C 0.2631(3) 0.5763(2) 0.0763(2) 0.1030 Uiso
H3DA H 0.2817 0.5683 0.0683 0.1230 Uiso
O7DA O 0.1827(3) 0.6325(2) 0.1325(2) 0.1640 Uani
C7DA C 0.2636(4) 0.5982(3) 0.0982(3) 0.1290 Uiso
C8DA C 0.2356(3) 0.5422(2) 0.0422(2) 0.0990 Uiso
C9DA C 0.3398(5) 0.6213(3) 0.1213(3) 0.1867 Uani
C10DA C 0.3527(3) 0.6082(6) 0.1473(3) 0.2320 Uani
C11DA C 0.3395(5) 0.5779(6) 0.1605(5) 0.2727 Uani
H4DA H 0.3299 0.5661 0.1440 0.4070 Uiso
H5DA H 0.3241 0.5827 0.1762 0.4070 Uiso
C12DA C 0.3155(6) 0.6008(5) 0.1008(5) 0.2727 Uani
H6DA H 0.3178 0.6048 0.0786 0.3250 Uiso
H4ZC H 0.3299 0.6440 0.0661 0.4070 Uiso
H6ZC H 0.3178 0.5786 0.1048 0.3250 Uiso
H4XE H 0.4339 0.6701 0.1440 0.4070 Uiso
H6XE H 0.3952 0.6822 0.0786 0.3250 Uiso
H4BE H 0.3560 0.5661 0.1701 0.4070 Uiso
H6BE H 0.4214 0.6048 0.1822 0.3250 Uiso
Zn3E Zn 0.16010(4) 0.66010(4) -0.16010(4) 0.1198 Uani
Zn4E Zn 0.11336(3) 0.61336(3) -0.11336(3) 0.1105 Uani
O2E O 0.2903(3) 0.6112(3) -0.1112(3) 0.1773 Uani
O3E O 0.2597(2) 0.53245(15) -0.03245(15) 0.1227 Uani
C1E C 0.1782(5) 0.6126(3) -0.1126(3) 0.1260 Uani
O4E O 0.2091(2) 0.53266(14) -0.03266(14) 0.1203 Uani
O5E O 0.1558(2) 0.60323(17) -0.10323(17) 0.1313 Uani
C2E C 0.2351(3) 0.56587(19) -0.06587(19) 0.0900 Uani
C3E C 0.2076(3) 0.6000(3) -0.1000(3) 0.1127 Uani
C4E C 0.2077(3) 0.5772(2) -0.0772(2) 0.1020 Uani
H1E H 0.1888 0.5695 -0.0695 0.1220 Uiso
C5E C 0.2373(4) 0.6103(2) -0.1103(2) 0.1250 Uani
H2E H 0.2385 0.6257 -0.1257 0.1500 Uiso
C6E C 0.2631(3) 0.5763(2) -0.0763(2) 0.1030 Uiso
H3E H 0.2817 0.5683 -0.0683 0.1230 Uiso
O7E O 0.1827(3) 0.6325(2) -0.1325(2) 0.1640 Uani
C7E C 0.2636(4) 0.5982(3) -0.0982(3) 0.1290 Uiso
O8E O 0.0874(4) 0.5874(4) -0.0874(4) 0.2740 Uani
C8E C 0.2356(3) 0.5422(2) -0.0422(2) 0.0990 Uiso
O9E O 0.1935(3) 0.6935(3) -0.1502(10) 0.5667 Uani
C9E C 0.3398(5) 0.6213(3) -0.1213(3) 0.1867 Uani
C10E C 0.3527(3) 0.6473(3) -0.1082(6) 0.2320 Uani
C11E C 0.3395(5) 0.6605(5) -0.0779(6) 0.2727 Uani
H4E H 0.3299 0.6440 -0.0661 0.4070 Uiso
H5E H 0.3241 0.6762 -0.0827 0.4070 Uiso
C12E C 0.3155(6) 0.6008(5) -0.1008(5) 0.2727 Uani
H6E H 0.3178 0.5786 -0.1048 0.3250 Uiso
O2IA O 0.3888(3) 0.6112(3) -0.2097(3) 0.1773 Uani
O3IA O 0.46755(15) 0.53245(15) -0.2403(2) 0.1227 Uani
C1IA C 0.3874(3) 0.6126(3) -0.3218(5) 0.1260 Uani
O4IA O 0.46734(14) 0.53266(14) -0.2909(2) 0.1203 Uani
O5IA O 0.39677(17) 0.60323(17) -0.3442(2) 0.1313 Uani
C2IA C 0.43413(19) 0.56587(19) -0.2649(3) 0.0900 Uani
C3IA C 0.4000(3) 0.6000(3) -0.2924(3) 0.1127 Uani
C4IA C 0.4228(2) 0.5772(2) -0.2923(3) 0.1020 Uani
H1IA H 0.4305 0.5695 -0.3112 0.1220 Uiso
C5IA C 0.3897(2) 0.6103(2) -0.2627(4) 0.1250 Uani
H2IA H 0.3743 0.6257 -0.2615 0.1500 Uiso
C6IA C 0.4237(2) 0.5763(2) -0.2369(3) 0.1030 Uiso
H3IA H 0.4317 0.5683 -0.2183 0.1230 Uiso
O7IA O 0.3675(2) 0.6325(2) -0.3173(3) 0.1640 Uani
C7IA C 0.4018(3) 0.5982(3) -0.2364(4) 0.1290 Uiso
C8IA C 0.4578(2) 0.5422(2) -0.2644(3) 0.0990 Uiso
C9IA C 0.3787(3) 0.6213(3) -0.1602(5) 0.1867 Uani
C10IA C 0.3527(3) 0.6082(6) -0.1473(3) 0.2320 Uani
C11IA C 0.3395(5) 0.5779(6) -0.1605(5) 0.2727 Uani
H4IA H 0.3560 0.5661 -0.1701 0.4070 Uiso
H5IA H 0.3238 0.5827 -0.1759 0.4070 Uiso
C12IA C 0.3992(5) 0.6008(5) -0.1845(6) 0.2727 Uani
H6IA H 0.4214 0.6048 -0.1822 0.3250 Uiso
O2KB O 0.3888(3) 0.7097(3) -0.1112(3) 0.1773 Uani
O3KB O 0.46755(15) 0.7403(2) -0.03245(15) 0.1227 Uani
C1KB C 0.3874(3) 0.8218(5) -0.1126(3) 0.1260 Uani
O4KB O 0.46734(14) 0.7909(2) -0.03266(14) 0.1203 Uani
O5KB O 0.39677(17) 0.8442(2) -0.10323(17) 0.1313 Uani
C2KB C 0.43413(19) 0.7649(3) -0.06587(19) 0.0900 Uani
C3KB C 0.4000(3) 0.7924(3) -0.1000(3) 0.1127 Uani
C4KB C 0.4228(2) 0.7923(3) -0.0772(2) 0.1020 Uani
H1KB H 0.4305 0.8112 -0.0695 0.1220 Uiso
C5KB C 0.3897(2) 0.7627(4) -0.1103(2) 0.1250 Uani
H2KB H 0.3743 0.7615 -0.1257 0.1500 Uiso
C6KB C 0.4237(2) 0.7369(3) -0.0763(2) 0.1030 Uiso
H3KB H 0.4317 0.7183 -0.0683 0.1230 Uiso
O7KB O 0.3675(2) 0.8173(3) -0.1325(2) 0.1640 Uani
C7KB C 0.4018(3) 0.7364(4) -0.0982(3) 0.1290 Uiso
C8KB C 0.4578(2) 0.7644(3) -0.0422(2) 0.0990 Uiso
C9KB C 0.3787(3) 0.6602(5) -0.1213(3) 0.1867 Uani
C10KB C 0.3918(6) 0.6473(3) -0.1473(3) 0.2320 Uani
C11KB C 0.4221(6) 0.6605(5) -0.1605(5) 0.2727 Uani
H4KB H 0.4339 0.6701 -0.1440 0.4070 Uiso
H5KB H 0.4173 0.6759 -0.1762 0.4070 Uiso
C12KB C 0.3992(5) 0.6845(6) -0.1008(5) 0.2727 Uani
H6KB H 0.3952 0.6822 -0.0786 0.3250 Uiso
H4SC H 0.3560 0.6701 -0.0661 0.4070 Uiso
H6SC H 0.4214 0.6822 -0.1048 0.3250 Uiso
H4KE H 0.3299 0.5661 -0.1440 0.4070 Uiso
H6KE H 0.3178 0.6048 -0.0786 0.3250 Uiso
H4UE H 0.4339 0.6440 -0.1701 0.4070 Uiso
H6UE H 0.3952 0.5786 -0.1822 0.3250 Uiso
Zn3V Zn 0.16010(4) 0.66010(4) 0.16010(4) 0.1198 Uani
Zn4V Zn 0.11336(3) 0.61336(3) 0.11336(3) 0.1105 Uani
O8V O 0.0874(4) 0.5874(4) 0.0874(4) 0.2740 Uani
O9DA O 0.1935(3) 0.6502(10) 0.1935(3) 0.5667 Uani
Zn3OA Zn 0.33990(4) 0.33990(4) 0.33990(4) 0.1198 Uani
O9IC O 0.3498(10) 0.3065(3) 0.3065(3) 0.5667 Uani
Zn4OA Zn 0.38664(3) 0.38664(3) 0.38664(3) 0.1105 Uani
O8OA O 0.4126(4) 0.4126(4) 0.4126(4) 0.2740 Uani
O9KA O 0.1502(10) 0.3065(3) 0.1935(3) 0.5667 Uani
O9FC O 0.1935(3) 0.3498(10) 0.1935(3) 0.5667 Uani
O9HC O 0.1935(3) 0.6502(10) -0.1935(3) 0.5667 Uani
O9HA O 0.1502(10) 0.6935(3) -0.1935(3) 0.5667 Uani
O9V O 0.1502(10) 0.6935(3) 0.1935(3) 0.5667 Uani
O9UB O 0.1935(3) 0.6935(3) 0.1502(10) 0.5667 Uani
O9OA O 0.3065(3) 0.3498(10) 0.3065(3) 0.5667 Uani
O9DB O 0.3065(3) 0.3065(3) 0.3498(10) 0.5667 Uani
Zn1B Zn 0.73128(5) 0.5000 0.0000 0.0925 Uani
Zn1IA Zn 0.5000 0.5000 -0.23128(5) 0.0925 Uani
Zn1LA Zn 0.5000 0.5000 0.23128(5) 0.0925 Uani
Zn2B Zn 0.79941(6) 0.5000 0.0000 0.0899 Uani
Zn2IA Zn 0.5000 0.5000 -0.29941(6) 0.0899 Uani
Zn2LA Zn 0.5000 0.5000 0.29941(6) 0.0899 Uani
Zn3A Zn 0.66010(4) 0.16010(4) 0.16010(4) 0.1198 Uani
Zn3C Zn 0.33990(4) 0.83990(4) 0.16010(4) 0.1198 Uani
Zn3I Zn 0.83990(4) 0.33990(4) 0.16010(4) 0.1198 Uani
Zn3K Zn 0.33990(4) 0.16010(4) 0.16010(4) 0.1198 Uani
Zn3Q Zn 0.33990(4) 0.83990(4) -0.16010(4) 0.1198 Uani
Zn3IA Zn 0.33990(4) 0.66010(4) -0.33990(4) 0.1198 Uani
Zn3PA Zn 0.33990(4) 0.66010(4) 0.33990(4) 0.1198 Uani
Zn3QA Zn 0.66010(4) 0.33990(4) 0.33990(4) 0.1198 Uani
Zn4A Zn 0.61336(3) 0.11336(3) 0.11336(3) 0.1105 Uani
Zn4C Zn 0.38664(3) 0.88664(3) 0.11336(3) 0.1105 Uani
Zn4I Zn 0.88664(3) 0.38664(3) 0.11336(3) 0.1105 Uani
Zn4K Zn 0.38664(3) 0.11336(3) 0.11336(3) 0.1105 Uani
Zn4Q Zn 0.38664(3) 0.88664(3) -0.11336(3) 0.1105 Uani
Zn4IA Zn 0.38664(3) 0.61336(3) -0.38664(3) 0.1105 Uani
Zn4PA Zn 0.38664(3) 0.61336(3) 0.38664(3) 0.1105 Uani
Zn4QA Zn 0.61336(3) 0.38664(3) 0.38664(3) 0.1105 Uani
O3R O 0.46755(15) 0.2597(2) -0.03245(15) 0.1227 Uani
O3S O 0.53245(15) 0.7403(2) -0.03245(15) 0.1227 Uani
O3BA O 0.2597(2) 0.46755(15) -0.03245(15) 0.1227 Uani
O3FB O 0.53245(15) 0.2597(2) -0.03245(15) 0.1227 Uani
O3IB O 0.53245(15) 0.7403(2) 0.03245(15) 0.1227 Uani
O4R O 0.46734(14) 0.2091(2) -0.03266(14) 0.1203 Uani
O4S O 0.53266(14) 0.7909(2) -0.03266(14) 0.1203 Uani
O4BA O 0.2091(2) 0.46734(14) -0.03266(14) 0.1203 Uani
O4FB O 0.53266(14) 0.2091(2) -0.03266(14) 0.1203 Uani
O4IB O 0.53266(14) 0.7909(2) 0.03266(14) 0.1203 Uani
O5V O 0.10323(17) 0.60323(17) 0.1558(2) 0.1313 Uani
O5HA O 0.10323(17) 0.6558(2) -0.10323(17) 0.1313 Uani
O5KA O 0.10323(17) 0.3442(2) 0.10323(17) 0.1313 Uani
O5DB O 0.3442(2) 0.39677(17) 0.39677(17) 0.1313 Uani
O5UB O 0.10323(17) 0.6558(2) 0.10323(17) 0.1313 Uani
O5FC O 0.10323(17) 0.39677(17) 0.1558(2) 0.1313 Uani
O5HC O 0.10323(17) 0.60323(17) -0.1558(2) 0.1313 Uani
O5IC O 0.39677(17) 0.3442(2) 0.39677(17) 0.1313 Uani
O7V O 0.1325(2) 0.6325(2) 0.1827(3) 0.1640 Uani
O7HA O 0.1325(2) 0.6827(3) -0.1325(2) 0.1640 Uani
O7KA O 0.1325(2) 0.3173(3) 0.1325(2) 0.1640 Uani
O7DB O 0.3173(3) 0.3675(2) 0.3675(2) 0.1640 Uani
O7UB O 0.1325(2) 0.6827(3) 0.1325(2) 0.1640 Uani
O7FC O 0.1325(2) 0.3675(2) 0.1827(3) 0.1640 Uani
O7HC O 0.1325(2) 0.6325(2) -0.1827(3) 0.1640 Uani
O7IC O 0.3675(2) 0.3173(3) 0.3675(2) 0.1640 Uani
O10 O 0.2679(7) 0.3748(9) 0.0000 0.4120 Uiso
O11 O 0.1543(8) 0.4043(9) 0.0000 0.4490 Uiso
O12 O 0.0000 0.5000 0.0000 0.3800 Uiso
loop_
_atom_site_aniso_label
_atom_site_aniso_U_11
_atom_site_aniso_U_22
_atom_site_aniso_U_33
_atom_site_aniso_U_23
_atom_site_aniso_U_13
_atom_site_aniso_U_12
Zn1 0.0586(15) 0.1095(15) 0.1095(15) 0.000 0.000 0.000
Zn2 0.0625(16) 0.1036(14) 0.1036(14) 0.000 0.000 0.000
Zn3 0.1198(13) 0.1198(13) 0.1198(13) 0.0125(9) -0.0125(9) 0.0125(9)
Zn4 0.1105(12) 0.1105(12) 0.1105(12) 0.0135(8) -0.0135(8) 0.0135(8)
O1 0.027(8) 0.28(2) 0.28(2) 0.000 0.000 0.000
O2 0.092(7) 0.220(9) 0.220(9) -0.032(10) -0.018(6) 0.018(6)
O3 0.112(7) 0.128(5) 0.128(5) 0.041(6) 0.007(3) -0.007(3)
C1 0.144(16) 0.117(8) 0.117(8) 0.034(9) 0.003(7) -0.003(7)
O4 0.145(8) 0.108(4) 0.108(4) 0.017(5) 0.005(4) -0.005(4)
O5 0.104(7) 0.145(6) 0.145(6) 0.034(7) -0.005(4) 0.005(4)
C2 0.090(8) 0.090(5) 0.090(5) 0.005(6) -0.013(4) 0.013(4)
C3 0.116(11) 0.111(6) 0.111(6) -0.018(8) -0.003(7) 0.003(7)
O6 0.128(17) 0.182(14) 0.182(14) 0.000 0.000 0.000
C4 0.096(9) 0.105(6) 0.105(6) -0.004(8) 0.003(5) -0.003(5)
C5 0.159(15) 0.108(7) 0.108(7) 0.008(8) -0.020(7) 0.020(7)
O7 0.142(9) 0.175(7) 0.175(7) 0.042(9) -0.005(5) 0.005(5)
O8 0.274(16) 0.274(16) 0.274(16) 0.042(14) -0.042(14) 0.042(14)
O9 0.32(2) 0.32(2) 1.06(9) 0.100(19) -0.100(19) 0.21(2)
C9 0.184(11) 0.188(8) 0.188(8) -0.010(9) -0.023(6) 0.023(6)
C10 0.231(10) 0.231(10) 0.234(13) -0.019(7) -0.019(7) 0.011(9)
C11 0.274(17) 0.274(17) 0.27(2) -0.167(16) -0.167(16) 0.123(19)
C12 0.274(17) 0.274(17) 0.27(2) -0.167(16) -0.167(16) 0.123(19)
O2OA 0.22 0.22 0.092 -0.018 -0.018 0.032
O3OA 0.128 0.128 0.112 0.007 0.007 -0.041
C1OA 0.117 0.117 0.144 0.003 0.003 -0.034
O4OA 0.108 0.108 0.145 0.005 0.005 -0.017
O5OA 0.145 0.145 0.104 -0.005 -0.005 -0.034
C2OA 0.09 0.09 0.09 -0.013 -0.013 -0.005
C3OA 0.111 0.111 0.116 -0.003 -0.003 0.018
C4OA 0.105 0.105 0.096 0.003 0.003 0.004
C5OA 0.108 0.108 0.159 -0.02 -0.02 -0.008
O7OA 0.175 0.175 0.142 -0.005 -0.005 -0.042
C9OA 0.188 0.188 0.184 -0.023 -0.023 0.01
C10OA 0.231 0.234 0.231 -0.019 -0.011 0.019
C11OA 0.274 0.27 0.274 -0.167 -0.123 0.167
C12OA 0.274 0.27 0.274 -0.167 -0.123 0.167
O2LB 0.22 0.092 0.22 -0.018 -0.032 0.018
O3LB 0.128 0.112 0.128 0.007 0.041 -0.007
C1LB 0.117 0.144 0.117 0.003 0.034 -0.003
O4LB 0.108 0.145 0.108 0.005 0.017 -0.005
O5LB 0.145 0.104 0.145 -0.005 0.034 0.005
C2LB 0.09 0.09 0.09 -0.013 0.005 0.013
C3LB 0.111 0.116 0.111 -0.003 -0.018 0.003
C4LB 0.105 0.096 0.105 0.003 -0.004 -0.003
C5LB 0.108 0.159 0.108 -0.02 0.008 0.02
O7LB 0.175 0.142 0.175 -0.005 0.042 0.005
C9LB 0.188 0.184 0.188 -0.023 -0.01 0.023
C10LB 0.234 0.231 0.231 -0.011 -0.019 0.019
C11LB 0.27 0.274 0.274 -0.123 -0.167 0.167
C12LB 0.27 0.274 0.274 -0.123 -0.167 0.167
Zn1A 0.1095 0.0586 0.1095 0 0 0
Zn2A 0.1036 0.0625 0.1036 0 0 0
O1A 0.28 0.027 0.28 0 0 0
O2A 0.22 0.092 0.22 -0.018 0.032 -0.018
O3A 0.128 0.112 0.128 0.007 -0.041 0.007
C1A 0.117 0.144 0.117 0.003 -0.034 0.003
O4A 0.108 0.145 0.108 0.005 -0.017 0.005
O5A 0.145 0.104 0.145 -0.005 -0.034 -0.005
C2A 0.09 0.09 0.09 -0.013 -0.005 -0.013
C3A 0.111 0.116 0.111 -0.003 0.018 -0.003
O6A 0.182 0.128 0.182 0 0 0
C4A 0.105 0.096 0.105 0.003 0.004 0.003
C5A 0.108 0.159 0.108 -0.02 -0.008 -0.02
O7A 0.175 0.142 0.175 -0.005 -0.042 -0.005
C9A 0.188 0.184 0.188 -0.023 0.01 -0.023
C10A 0.231 0.231 0.234 -0.019 0.019 -0.011
C11A 0.274 0.274 0.27 -0.167 0.167 -0.123
C12A 0.274 0.274 0.27 -0.167 0.167 -0.123
O2CB 0.22 0.22 0.092 -0.018 0.018 -0.032
O3CB 0.128 0.128 0.112 0.007 -0.007 0.041
C1CB 0.117 0.117 0.144 0.003 -0.003 0.034
O4CB 0.108 0.108 0.145 0.005 -0.005 0.017
O5CB 0.145 0.145 0.104 -0.005 0.005 0.034
C2CB 0.09 0.09 0.09 -0.013 0.013 0.005
C3CB 0.111 0.111 0.116 -0.003 0.003 -0.018
C4CB 0.105 0.105 0.096 0.003 -0.003 -0.004
C5CB 0.108 0.108 0.159 -0.02 0.02 0.008
O7CB 0.175 0.175 0.142 -0.005 0.005 0.042
C9CB 0.188 0.188 0.184 -0.023 0.023 -0.01
C10CB 0.234 0.231 0.231 -0.011 0.019 -0.019
C11CB 0.27 0.274 0.274 -0.123 0.167 -0.167
C12CB 0.27 0.274 0.274 -0.123 0.167 -0.167
O2SA 0.092 0.22 0.22 -0.032 0.018 -0.018
O3SA 0.112 0.128 0.128 0.041 -0.007 0.007
C1SA 0.144 0.117 0.117 0.034 -0.003 0.003
O4SA 0.145 0.108 0.108 0.017 -0.005 0.005
O5SA 0.104 0.145 0.145 0.034 0.005 -0.005
C2SA 0.09 0.09 0.09 0.005 0.013 -0.013
C3SA 0.116 0.111 0.111 -0.018 0.003 -0.003
C4SA 0.096 0.105 0.105 -0.004 -0.003 0.003
C5SA 0.159 0.108 0.108 0.008 0.02 -0.02
O7SA 0.142 0.175 0.175 0.042 0.005 -0.005
C9SA 0.184 0.188 0.188 -0.01 0.023 -0.023
C10SA 0.231 0.234 0.231 -0.019 0.011 -0.019
C11SA 0.274 0.27 0.274 -0.167 0.123 -0.167
C12SA 0.274 0.27 0.274 -0.167 0.123 -0.167
Zn1C 0.1095 0.0586 0.1095 0 0 0
Zn2C 0.1036 0.0625 0.1036 0 0 0
O1C 0.28 0.027 0.28 0 0 0
O2C 0.22 0.092 0.22 0.018 -0.032 -0.018
O3C 0.128 0.112 0.128 -0.007 0.041 0.007
C1C 0.117 0.144 0.117 -0.003 0.034 0.003
O4C 0.108 0.145 0.108 -0.005 0.017 0.005
O5C 0.145 0.104 0.145 0.005 0.034 -0.005
C2C 0.09 0.09 0.09 0.013 0.005 -0.013
C3C 0.111 0.116 0.111 0.003 -0.018 -0.003
O6C 0.182 0.128 0.182 0 0 0
C4C 0.105 0.096 0.105 -0.003 -0.004 0.003
C5C 0.108 0.159 0.108 0.02 0.008 -0.02
O7C 0.175 0.142 0.175 0.005 0.042 -0.005
C9C 0.188 0.184 0.188 0.023 -0.01 -0.023
C10C 0.231 0.231 0.234 0.019 -0.019 -0.011
C11C 0.274 0.274 0.27 0.167 -0.167 -0.123
C12C 0.274 0.274 0.27 0.167 -0.167 -0.123
O2SB 0.22 0.22 0.092 0.018 -0.018 -0.032
O3SB 0.128 0.128 0.112 -0.007 0.007 0.041
C1SB 0.117 0.117 0.144 -0.003 0.003 0.034
O4SB 0.108 0.108 0.145 -0.005 0.005 0.017
O5SB 0.145 0.145 0.104 0.005 -0.005 0.034
C2SB 0.09 0.09 0.09 0.013 -0.013 0.005
C3SB 0.111 0.111 0.116 0.003 -0.003 -0.018
C4SB 0.105 0.105 0.096 -0.003 0.003 -0.004
C5SB 0.108 0.108 0.159 0.02 -0.02 0.008
O7SB 0.175 0.175 0.142 0.005 -0.005 0.042
C9SB 0.188 0.188 0.184 0.023 -0.023 -0.01
C10SB 0.234 0.231 0.231 0.011 -0.019 -0.019
C11SB 0.27 0.274 0.274 0.123 -0.167 -0.167
C12SB 0.27 0.274 0.274 0.123 -0.167 -0.167
O2DA 0.092 0.22 0.22 0.032 -0.018 -0.018
O3DA 0.112 0.128 0.128 -0.041 0.007 0.007
C1DA 0.144 0.117 0.117 -0.034 0.003 0.003
O4DA 0.145 0.108 0.108 -0.017 0.005 0.005
O5DA 0.104 0.145 0.145 -0.034 -0.005 -0.005
C2DA 0.09 0.09 0.09 -0.005 -0.013 -0.013
C3DA 0.116 0.111 0.111 0.018 -0.003 -0.003
C4DA 0.096 0.105 0.105 0.004 0.003 0.003
C5DA 0.159 0.108 0.108 -0.008 -0.02 -0.02
O7DA 0.142 0.175 0.175 -0.042 -0.005 -0.005
C9DA 0.184 0.188 0.188 0.01 -0.023 -0.023
C10DA 0.231 0.234 0.231 0.019 -0.011 -0.019
C11DA 0.274 0.27 0.274 0.167 -0.123 -0.167
C12DA 0.274 0.27 0.274 0.167 -0.123 -0.167
Zn3E 0.1198 0.1198 0.1198 0.0125 0.0125 -0.0125
Zn4E 0.1105 0.1105 0.1105 0.0135 0.0135 -0.0135
O2E 0.092 0.22 0.22 -0.032 0.018 -0.018
O3E 0.112 0.128 0.128 0.041 -0.007 0.007
C1E 0.144 0.117 0.117 0.034 -0.003 0.003
O4E 0.145 0.108 0.108 0.017 -0.005 0.005
O5E 0.104 0.145 0.145 0.034 0.005 -0.005
C2E 0.09 0.09 0.09 0.005 0.013 -0.013
C3E 0.116 0.111 0.111 -0.018 0.003 -0.003
C4E 0.096 0.105 0.105 -0.004 -0.003 0.003
C5E 0.159 0.108 0.108 0.008 0.02 -0.02
O7E 0.142 0.175 0.175 0.042 0.005 -0.005
O8E 0.274 0.274 0.274 0.042 0.042 -0.042
O9E 0.32 0.32 1.06 0.1 0.1 -0.21
C9E 0.184 0.188 0.188 -0.01 0.023 -0.023
C10E 0.231 0.231 0.234 -0.019 0.019 -0.011
C11E 0.274 0.274 0.27 -0.167 0.167 -0.123
C12E 0.274 0.274 0.27 -0.167 0.167 -0.123
O2IA 0.22 0.22 0.092 -0.018 0.018 -0.032
O3IA 0.128 0.128 0.112 0.007 -0.007 0.041
C1IA 0.117 0.117 0.144 0.003 -0.003 0.034
O4IA 0.108 0.108 0.145 0.005 -0.005 0.017
O5IA 0.145 0.145 0.104 -0.005 0.005 0.034
C2IA 0.09 0.09 0.09 -0.013 0.013 0.005
C3IA 0.111 0.111 0.116 -0.003 0.003 -0.018
C4IA 0.105 0.105 0.096 0.003 -0.003 -0.004
C5IA 0.108 0.108 0.159 -0.02 0.02 0.008
O7IA 0.175 0.175 0.142 -0.005 0.005 0.042
C9IA 0.188 0.188 0.184 -0.023 0.023 -0.01
C10IA 0.231 0.234 0.231 -0.019 0.011 -0.019
C11IA 0.274 0.27 0.274 -0.167 0.123 -0.167
C12IA 0.274 0.27 0.274 -0.167 0.123 -0.167
O2KB 0.22 0.092 0.22 -0.018 0.032 -0.018
O3KB 0.128 0.112 0.128 0.007 -0.041 0.007
C1KB 0.117 0.144 0.117 0.003 -0.034 0.003
O4KB 0.108 0.145 0.108 0.005 -0.017 0.005
O5KB 0.145 0.104 0.145 -0.005 -0.034 -0.005
C2KB 0.09 0.09 0.09 -0.013 -0.005 -0.013
C3KB 0.111 0.116 0.111 -0.003 0.018 -0.003
C4KB 0.105 0.096 0.105 0.003 0.004 0.003
C5KB 0.108 0.159 0.108 -0.02 -0.008 -0.02
O7KB 0.175 0.142 0.175 -0.005 -0.042 -0.005
C9KB 0.188 0.184 0.188 -0.023 0.01 -0.023
C10KB 0.234 0.231 0.231 -0.011 0.019 -0.019
C11KB 0.27 0.274 0.274 -0.123 0.167 -0.167
C12KB 0.27 0.274 0.274 -0.123 0.167 -0.167
Zn3V 0.1198 0.1198 0.1198 -0.0125 -0.0125 -0.0125
Zn4V 0.1105 0.1105 0.1105 -0.0135 -0.0135 -0.0135
O8V 0.274 0.274 0.274 -0.042 -0.042 -0.042
O9DA 0.32 1.06 0.32 -0.1 -0.21 -0.1
Zn3OA 0.1198 0.1198 0.1198 -0.0125 -0.0125 -0.0125
O9IC 1.06 0.32 0.32 -0.21 -0.1 -0.1
Zn4OA 0.1105 0.1105 0.1105 -0.0135 -0.0135 -0.0135
O8OA 0.274 0.274 0.274 -0.042 -0.042 -0.042
O9KA 1.06 0.32 0.32 0.21 -0.1 0.1
O9FC 0.32 1.06 0.32 0.1 -0.21 0.1
O9HC 0.32 1.06 0.32 0.1 0.21 -0.1
O9HA 1.06 0.32 0.32 0.21 0.1 -0.1
O9V 1.06 0.32 0.32 -0.21 -0.1 -0.1
O9UB 0.32 0.32 1.06 -0.1 -0.1 -0.21
O9OA 0.32 1.06 0.32 -0.1 -0.21 -0.1
O9DB 0.32 0.32 1.06 -0.1 -0.1 -0.21
Zn1B 0.0586 0.1095 0.1095 0 0 0
Zn1IA 0.1095 0.1095 0.0586 0 0 0
Zn1LA 0.1095 0.1095 0.0586 0 0 0
Zn2B 0.0625 0.1036 0.1036 0 0 0
Zn2IA 0.1036 0.1036 0.0625 0 0 0
Zn2LA 0.1036 0.1036 0.0625 0 0 0
Zn3A 0.1198 0.1198 0.1198 -0.0125 -0.0125 -0.0125
Zn3C 0.1198 0.1198 0.1198 0.0125 0.0125 -0.0125
Zn3I 0.1198 0.1198 0.1198 0.0125 0.0125 -0.0125
Zn3K 0.1198 0.1198 0.1198 -0.0125 0.0125 0.0125
Zn3Q 0.1198 0.1198 0.1198 -0.0125 -0.0125 -0.0125
Zn3IA 0.1198 0.1198 0.1198 -0.0125 0.0125 0.0125
Zn3PA 0.1198 0.1198 0.1198 0.0125 -0.0125 0.0125
Zn3QA 0.1198 0.1198 0.1198 -0.0125 0.0125 0.0125
Zn4A 0.1105 0.1105 0.1105 -0.0135 -0.0135 -0.0135
Zn4C 0.1105 0.1105 0.1105 0.0135 0.0135 -0.0135
Zn4I 0.1105 0.1105 0.1105 0.0135 0.0135 -0.0135
Zn4K 0.1105 0.1105 0.1105 -0.0135 0.0135 0.0135
Zn4Q 0.1105 0.1105 0.1105 -0.0135 -0.0135 -0.0135
Zn4IA 0.1105 0.1105 0.1105 -0.0135 0.0135 0.0135
Zn4PA 0.1105 0.1105 0.1105 0.0135 -0.0135 0.0135
Zn4QA 0.1105 0.1105 0.1105 -0.0135 0.0135 0.0135
O3R 0.128 0.112 0.128 -0.007 -0.041 -0.007
O3S 0.128 0.112 0.128 0.007 0.041 -0.007
O3BA 0.112 0.128 0.128 -0.041 -0.007 -0.007
O3FB 0.128 0.112 0.128 -0.007 0.041 0.007
O3IB 0.128 0.112 0.128 -0.007 -0.041 -0.007
O4R 0.108 0.145 0.108 -0.005 -0.017 -0.005
O4S 0.108 0.145 0.108 0.005 0.017 -0.005
O4BA 0.145 0.108 0.108 -0.017 -0.005 -0.005
O4FB 0.108 0.145 0.108 -0.005 0.017 0.005
O4IB 0.108 0.145 0.108 -0.005 -0.017 -0.005
O5V 0.145 0.145 0.104 -0.005 -0.005 -0.034
O5HA 0.145 0.104 0.145 0.005 0.034 -0.005
O5KA 0.145 0.104 0.145 0.005 -0.034 0.005
O5DB 0.104 0.145 0.145 -0.034 -0.005 -0.005
O5UB 0.145 0.104 0.145 -0.005 -0.034 -0.005
O5FC 0.145 0.145 0.104 0.005 -0.005 0.034
O5HC 0.145 0.145 0.104 0.005 0.005 -0.034
O5IC 0.145 0.104 0.145 -0.005 -0.034 -0.005
O7V 0.175 0.175 0.142 -0.005 -0.005 -0.042
O7HA 0.175 0.142 0.175 0.005 0.042 -0.005
O7KA 0.175 0.142 0.175 0.005 -0.042 0.005
O7DB 0.142 0.175 0.175 -0.042 -0.005 -0.005
O7UB 0.175 0.142 0.175 -0.005 -0.042 -0.005
O7FC 0.175 0.175 0.142 0.005 -0.005 0.042
O7HC 0.175 0.175 0.142 0.005 0.005 -0.042
O7IC 0.175 0.142 0.175 -0.005 -0.042 -0.005
loop_
_geom_bond_atom_site_label_1
_geom_bond_atom_site_label_2
_geom_bond_site_symmetry_1
_geom_bond_site_symmetry_2
Zn1 O1 1_555 1_555
Zn2 O4 1_555 1_555
Zn3 O7 1_555 1_555
Zn4 O5 1_555 1_555
O2 C7 1_555 1_555
O3 Zn1 1_555 1_555
C1 O5 1_555 1_555
O4 C8 1_555 1_555
C2 C4 1_555 1_555
C3 C1 1_555 1_555
O6 Zn2 1_555 1_555
C4 C3 1_555 1_555
H1 C4 1_555 1_555
C5 C3 1_555 1_555
H2 C5 1_555 1_555
C6 C2 1_555 1_555
H3 C6 1_555 1_555
O7 C1 1_555 1_555
C7 C5 1_555 1_555
O8 Zn4 1_555 1_555
C8 O3 1_555 1_555
O9 Zn3 1_555 1_555
C9 C10 1_555 1_555
C10 C11 1_555 1_555
C11 H4 1_555 1_555
H5 C11 1_555 1_555
C12 O2 1_555 1_555
H6 C12 1_555 1_555
O2OA C7OA 1_555 1_555
O3OA C8OA 1_555 1_555
C1OA O5OA 1_555 1_555
O4OA C8OA 1_555 1_555
O5OA Zn4OA 1_555 1_555
C2OA C4OA 1_555 1_555
C3OA C1OA 1_555 1_555
C4OA C3OA 1_555 1_555
H1OA C4OA 1_555 1_555
C5OA C3OA 1_555 1_555
H2OA C5OA 1_555 1_555
C6OA C2OA 1_555 1_555
H3OA C6OA 1_555 1_555
O7OA C1OA 1_555 1_555
C7OA C5OA 1_555 1_555
C8OA C2OA 1_555 1_555
C9OA C10OA 1_555 1_555
C10OA C9 1_555 1_555
C11OA C10OA 1_555 1_555
H4OA C11OA 1_555 1_555
H5OA C11OA 1_555 1_555
C12OA O2OA 1_555 1_555
H6OA C12OA 1_555 1_555
O2LB C7LB 1_555 1_555
O3LB C8LB 1_555 1_555
C1LB O5LB 1_555 1_555
O4LB C8LB 1_555 1_555
O5LB Zn4K 1_555 1_555
C2LB C4LB 1_555 1_555
C3LB C1LB 1_555 1_555
C4LB C3LB 1_555 1_555
H1LB C4LB 1_555 1_555
C5LB C3LB 1_555 1_555
H2LB C5LB 1_555 1_555
C6LB C2LB 1_555 1_555
H3LB C6LB 1_555 1_555
O7LB C1LB 1_555 1_555
C7LB C5LB 1_555 1_555
C8LB C2LB 1_555 1_555
C9LB C10 1_555 1_555
C10LB C9OA 1_555 1_555
C11LB C10LB 1_555 1_555
H4LB C11LB 1_555 1_555
H5LB C11LB 1_555 1_555
C12LB O2LB 1_555 1_555
H6LB C12LB 1_555 1_555
H4KD C11 1_555 1_555
H6KD C12LB 1_555 1_555
H4JE C11OA 1_555 1_555
H6JE C12 1_555 1_555
H4JF C11LB 1_555 1_555
H6JF C12OA 1_555 1_555
Zn1A O3LB 1_555 1_555
Zn2A O4LB 1_555 1_555
O1A Zn1A 1_555 1_555
O2A C7A 1_555 1_555
O3A Zn1A 1_555 1_555
C1A O5A 1_555 1_555
O4A Zn2A 1_555 1_555
O5A Zn4A 1_555 1_555
C2A C4A 1_555 1_555
C3A C1A 1_555 1_555
O6A Zn2A 1_555 1_555
C4A C3A 1_555 1_555
H1A C4A 1_555 1_555
C5A C3A 1_555 1_555
H2A C5A 1_555 1_555
C6A C2A 1_555 1_555
H3A C6A 1_555 1_555
O7A C1A 1_555 1_555
C7A C5A 1_555 1_555
C8A O3A 1_555 1_555
C9A C10A 1_555 1_555
C10A C11A 1_555 1_555
C11A H4A 1_555 1_555
H5A C11A 1_555 1_555
C12A O2A 1_555 1_555
H6A C12A 1_555 1_555
O2CB C7CB 1_555 1_555
O3CB C8CB 1_555 1_555
C1CB O5CB 1_555 1_555
O4CB C8CB 1_555 1_555
O5CB Zn4QA 1_555 1_555
C2CB C4CB 1_555 1_555
C3CB C1CB 1_555 1_555
C4CB C3CB 1_555 1_555
H1CB C4CB 1_555 1_555
C5CB C3CB 1_555 1_555
H2CB C5CB 1_555 1_555
C6CB C2CB 1_555 1_555
H3CB C6CB 1_555 1_555
O7CB C1CB 1_555 1_555
C7CB C5CB 1_555 1_555
C8CB C2CB 1_555 1_555
C9CB C10CB 1_555 1_555
C10CB C9A 1_555 1_555
C11CB C10CB 1_555 1_555
H4CB C11CB 1_555 1_555
H5CB C11CB 1_555 1_555
C12CB O2CB 1_555 1_555
H6CB C12CB 1_555 1_555
O2SA C7SA 1_555 1_555
O3SA C8SA 1_555 1_555
C1SA O5SA 1_555 1_555
O4SA C8SA 1_555 1_555
O5SA Zn4I 1_555 1_555
C2SA C4SA 1_555 1_555
C3SA C1SA 1_555 1_555
C4SA C3SA 1_555 1_555
H1SA C4SA 1_555 1_555
C5SA C3SA 1_555 1_555
H2SA C5SA 1_555 1_555
C6SA C2SA 1_555 1_555
H3SA C6SA 1_555 1_555
O7SA C1SA 1_555 1_555
C7SA C5SA 1_555 1_555
C8SA C2SA 1_555 1_555
C9SA C10A 1_555 1_555
C10SA C9CB 1_555 1_555
C11SA C10SA 1_555 1_555
H4SA C11SA 1_555 1_555
H5SA C11SA 1_555 1_555
C12SA O2SA 1_555 1_555
H6SA C12SA 1_555 1_555
H4WC C11A 1_555 1_555
H6WC C12SA 1_555 1_555
H4CF C11CB 1_555 1_555
H6CF C12A 1_555 1_555
H4AE C11SA 1_555 1_555
H6AE C12CB 1_555 1_555
Zn1C O1C 1_555 1_555
Zn2C O4C 1_555 1_555
O2C C7C 1_555 1_555
O3C Zn1C 1_555 1_555
C1C O5C 1_555 1_555
O4C C8C 1_555 1_555
O5C Zn4C 1_555 1_555
C2C C4C 1_555 1_555
C3C C1C 1_555 1_555
O6C Zn2C 1_555 1_555
C4C C3C 1_555 1_555
H1C C4C 1_555 1_555
C5C C3C 1_555 1_555
H2C C5C 1_555 1_555
C6C C2C 1_555 1_555
H3C C6C 1_555 1_555
O7C C1C 1_555 1_555
C7C C5C 1_555 1_555
C8C O3C 1_555 1_555
C9C C10C 1_555 1_555
C10C C11C 1_555 1_555
C11C H4C 1_555 1_555
H5C C11C 1_555 1_555
C12C O2C 1_555 1_555
H6C C12C 1_555 1_555
O2SB C7SB 1_555 1_555
O3SB C8SB 1_555 1_555
C1SB O5SB 1_555 1_555
O4SB C8SB 1_555 1_555
O5SB Zn4PA 1_555 1_555
C2SB C4SB 1_555 1_555
C3SB C1SB 1_555 1_555
C4SB C3SB 1_555 1_555
H1SB C4SB 1_555 1_555
C5SB C3SB 1_555 1_555
H2SB C5SB 1_555 1_555
C6SB C2SB 1_555 1_555
H3SB C6SB 1_555 1_555
O7SB C1SB 1_555 1_555
C7SB C5SB 1_555 1_555
C8SB C2SB 1_555 1_555
C9SB C10SB 1_555 1_555
C10SB C9C 1_555 1_555
C11SB C10SB 1_555 1_555
H4SB C11SB 1_555 1_555
H5SB C11SB 1_555 1_555
C12SB O2SB 1_555 1_555
H6SB C12SB 1_555 1_555
O2DA C7DA 1_555 1_555
O3DA Zn1 1_555 1_555
C1DA O5DA 1_555 1_555
O4DA Zn2 1_555 1_555
O5DA Zn4V 1_555 1_555
C2DA C4DA 1_555 1_555
C3DA C1DA 1_555 1_555
C4DA C3DA 1_555 1_555
H1DA C4DA 1_555 1_555
C5DA C3DA 1_555 1_555
H2DA C5DA 1_555 1_555
C6DA C2DA 1_555 1_555
H3DA C6DA 1_555 1_555
O7DA C1DA 1_555 1_555
C7DA C5DA 1_555 1_555
C8DA O3DA 1_555 1_555
C9DA C10C 1_555 1_555
C10DA C9SB 1_555 1_555
C11DA C10DA 1_555 1_555
H4DA C11DA 1_555 1_555
H5DA C11DA 1_555 1_555
C12DA O2DA 1_555 1_555
H6DA C12DA 1_555 1_555
H4ZC C11C 1_555 1_555
H6ZC C12DA 1_555 1_555
H4XE C11SB 1_555 1_555
H6XE C12C 1_555 1_555
H4BE C11DA 1_555 1_555
H6BE C12SB 1_555 1_555
Zn3E O7E 1_555 1_555
Zn4E O5E 1_555 1_555
O2E C7E 1_555 1_555
O3E Zn1 1_555 1_555
C1E O5E 1_555 1_555
O4E Zn2 1_555 1_555
C2E C4E 1_555 1_555
C3E C1E 1_555 1_555
C4E C3E 1_555 1_555
H1E C4E 1_555 1_555
C5E C3E 1_555 1_555
H2E C5E 1_555 1_555
C6E C2E 1_555 1_555
H3E C6E 1_555 1_555
O7E C1E 1_555 1_555
C7E C5E 1_555 1_555
O8E Zn4E 1_555 1_555
C8E O3E 1_555 1_555
O9E Zn3E 1_555 1_555
C9E C10E 1_555 1_555
C10E C11E 1_555 1_555
C11E H4E 1_555 1_555
H5E C11E 1_555 1_555
C12E O2E 1_555 1_555
H6E C12E 1_555 1_555
O2IA C7IA 1_555 1_555
O3IA C8IA 1_555 1_555
C1IA O5IA 1_555 1_555
O4IA C8IA 1_555 1_555
O5IA Zn4IA 1_555 1_555
C2IA C4IA 1_555 1_555
C3IA C1IA 1_555 1_555
C4IA C3IA 1_555 1_555
H1IA C4IA 1_555 1_555
C5IA C3IA 1_555 1_555
H2IA C5IA 1_555 1_555
C6IA C2IA 1_555 1_555
H3IA C6IA 1_555 1_555
O7IA C1IA 1_555 1_555
C7IA C5IA 1_555 1_555
C8IA C2IA 1_555 1_555
C9IA C10IA 1_555 1_555
C10IA C9E 1_555 1_555
C11IA C10IA 1_555 1_555
H4IA C11IA 1_555 1_555
H5IA C11IA 1_555 1_555
C12IA O2IA 1_555 1_555
H6IA C12IA 1_555 1_555
O2KB C7KB 1_555 1_555
O3KB Zn1C 1_555 1_555
C1KB O5KB 1_555 1_555
O4KB Zn2C 1_555 1_555
O5KB Zn4Q 1_555 1_555
C2KB C4KB 1_555 1_555
C3KB C1KB 1_555 1_555
C4KB C3KB 1_555 1_555
H1KB C4KB 1_555 1_555
C5KB C3KB 1_555 1_555
H2KB C5KB 1_555 1_555
C6KB C2KB 1_555 1_555
H3KB C6KB 1_555 1_555
O7KB C1KB 1_555 1_555
C7KB C5KB 1_555 1_555
C8KB O3KB 1_555 1_555
C9KB C10E 1_555 1_555
C10KB C9IA 1_555 1_555
C11KB C10KB 1_555 1_555
H4KB C11KB 1_555 1_555
H5KB C11KB 1_555 1_555
C12KB O2KB 1_555 1_555
H6KB C12KB 1_555 1_555
H4SC C11E 1_555 1_555
H6SC C12KB 1_555 1_555
H4KE C11IA 1_555 1_555
H6KE C12E 1_555 1_555
H4UE C11KB 1_555 1_555
H6UE C12IA 1_555 1_555
Zn3V O7DA 1_555 1_555
Zn4V O8V 1_555 1_555
O9DA Zn3V 1_555 1_555
Zn3OA O7OA 1_555 1_555
O9IC Zn3OA 1_555 1_555
Zn4OA O8OA 1_555 1_555
O9KA Zn3 1_555 1_555
O9FC Zn3 1_555 1_555
O9HC Zn3E 1_555 1_555
O9HA Zn3E 1_555 1_555
O9V Zn3V 1_555 1_555
O9UB Zn3V 1_555 1_555
O9OA Zn3OA 1_555 1_555
O9DB Zn3OA 1_555 1_555
Zn1B O3SA 1_555 1_555
Zn1IA O3IA 1_555 1_555
Zn1LA O3OA 1_555 1_555
Zn2B O4SA 1_555 1_555
Zn2IA O4IA 1_555 1_555
Zn2LA O4OA 1_555 1_555
Zn3A O7A 1_555 1_555
Zn3C O7C 1_555 1_555
Zn3I O7SA 1_555 1_555
Zn3K O7LB 1_555 1_555
Zn3Q O7KB 1_555 1_555
Zn3IA O7IA 1_555 1_555
Zn3PA O7SB 1_555 1_555
Zn3QA O7CB 1_555 1_555
O3R Zn1A 1_555 1_555
O3S Zn1C 1_555 1_555
O3BA Zn1 1_555 1_555
O3FB Zn1A 1_555 1_555
O3IB Zn1C 1_555 1_555
O4R Zn2A 1_555 1_555
O4S Zn2C 1_555 1_555
O4BA Zn2 1_555 1_555
O4FB Zn2A 1_555 1_555
O4IB Zn2C 1_555 1_555
O5V Zn4V 1_555 1_555
O5HA Zn4E 1_555 1_555
O5KA Zn4 1_555 1_555
O5DB Zn4OA 1_555 1_555
O5UB Zn4V 1_555 1_555
O5FC Zn4 1_555 1_555
O5HC Zn4E 1_555 1_555
O5IC Zn4OA 1_555 1_555
O7V Zn3V 1_555 1_555
O7HA Zn3E 1_555 1_555
O7KA Zn3 1_555 1_555
O7DB Zn3OA 1_555 1_555
O7UB Zn3V 1_555 1_555
O7FC Zn3 1_555 1_555
O7HC Zn3E 1_555 1_555
O7IC Zn3OA 1_555 1_555
C2 C8 1_555 1_555
C6 C7 1_555 1_555
C9 C12 1_555 1_555
C6OA C7OA 1_555 1_555
C9OA C12OA 1_555 1_555
C6LB C7LB 1_555 1_555
C9LB C10LB 1_555 1_555
C9LB C12LB 1_555 1_555
O4A C8A 1_555 1_555
C2A C8A 1_555 1_555
C6A C7A 1_555 1_555
C9A C12A 1_555 1_555
O3CB Zn1LA 1_555 1_555
O4CB Zn2LA 1_555 1_555
C6CB C7CB 1_555 1_555
C9CB C12CB 1_555 1_555
C6SA C7SA 1_555 1_555
C9SA C10SA 1_555 1_555
C9SA C12SA 1_555 1_555
C2C C8C 1_555 1_555
C6C C7C 1_555 1_555
C9C C12C 1_555 1_555
O3SB Zn1LA 1_555 1_555
O4SB Zn2LA 1_555 1_555
C6SB C7SB 1_555 1_555
C9SB C12SB 1_555 1_555
O4DA C8DA 1_555 1_555
C2DA C8DA 1_555 1_555
C6DA C7DA 1_555 1_555
C9DA C10DA 1_555 1_555
C9DA C12DA 1_555 1_555
O4E C8E 1_555 1_555
C2E C8E 1_555 1_555
C6E C7E 1_555 1_555
C9E C12E 1_555 1_555
C6IA C7IA 1_555 1_555
C9IA C12IA 1_555 1_555
O4KB C8KB 1_555 1_555
C2KB C8KB 1_555 1_555
C6KB C7KB 1_555 1_555
C9KB C10KB 1_555 1_555
C9KB C12KB 1_555 1_555

#END
