
#######################################################################
#
#                 Cambridge Crystallographic Data Centre
#                                CCDC 
#
#######################################################################
#
# If this CIF has been generated from an entry in the Cambridge 
# Structural Database, then it will include bibliographic, chemical, 
# crystal, experimental, refinement or atomic coordinate data resulting 
# from the CCDC's data processing and validation procedures.
#
#######################################################################

data_BACGAQ
_chemical_formula_moiety         '(C86 H70 Cd2 N12 O8)n'
_symmetry_cell_setting           triclinic
_symmetry_space_group_name_H-M   'P -1'
_symmetry_Int_Tables_number      2
_space_group_name_Hall           '-P 1'
loop_
_symmetry_equiv_pos_site_id
_symmetry_equiv_pos_as_xyz
1 x,y,z
2 -x,-y,-z
_cell_length_a                   10.312(2)
_cell_length_b                   13.919(3)
_cell_length_c                   14.174(3)
_cell_angle_alpha                88.350(3)
_cell_angle_beta                 69.287(4)
_cell_angle_gamma                74.727(4)
_cell_volume                     1831.05
loop_
_atom_site_label
_atom_site_type_symbol
_atom_site_fract_x
_atom_site_fract_y
_atom_site_fract_z
O1 O -0.4459(4) 0.5733(3) 0.7544(3)
Cd1 Cd 0.56096(3) 0.44682(2) 0.36614(2)
N1 N 0.5648(4) 0.2965(2) 0.4382(3)
N2 N 0.6467(4) 0.1752(2) 0.5250(3)
N3 N 0.7752(4) 0.3538(2) 0.2420(3)
N4 N 0.9225(4) 0.2657(2) 0.0971(3)
O2 O 0.3475(3) 0.5042(2) 0.5227(2)
O3 O 0.2822(3) 0.4243(2) 0.6606(2)
O4 O -0.4178(3) 0.4264(2) 0.6913(2)
C1 C 0.2789(4) 0.4455(3) 0.5766(3)
C2 C 0.1926(5) 0.4025(4) 0.5305(3)
H1 H 0.1411 0.4557 0.5007
H2 H 0.2591 0.3534 0.4761
C3 C 0.0855(4) 0.3540(3) 0.6024(3)
C4 C 0.1171(6) 0.2515(4) 0.6086(4)
H3 H 0.2056 0.2113 0.5667
C5 C 0.0196(7) 0.2084(4) 0.6756(5)
H4 H 0.0434 0.1395 0.6789
C6 C -0.1123(6) 0.2654(4) 0.7379(4)
H5 H -0.1780 0.2350 0.7821
C7 C -0.1478(5) 0.3690(4) 0.7347(3)
C8 C -0.0478(4) 0.4106(3) 0.6665(3)
H6 H -0.0709 0.4796 0.6635
C9 C -0.2921(5) 0.4345(5) 0.8006(4)
H7 H -0.3399 0.3950 0.8519
H8 H -0.2767 0.4874 0.8349
C10 C -0.3902(4) 0.4809(4) 0.7448(3)
C11 C 0.6104(5) 0.2742(3) 0.5138(3)
H9 H 0.6170 0.3218 0.5553
C12 C 0.5707(4) 0.2050(3) 0.3963(3)
C13 C 0.5354(5) 0.1827(3) 0.3148(3)
H10 H 0.4988 0.2328 0.2788
C14 C 0.5569(5) 0.0835(4) 0.2897(4)
H11 H 0.5331 0.0664 0.2362
C15 C 0.6131(5) 0.0082(3) 0.3420(4)
H12 H 0.6279 -0.0579 0.3215
C16 C 0.6474(5) 0.0284(3) 0.4229(4)
H13 H 0.6844 -0.0222 0.4583
C17 C 0.6238(4) 0.1289(3) 0.4494(3)
C18 C 0.7089(5) 0.1270(3) 0.5979(3)
H14 H 0.6489 0.0867 0.6386
H15 H 0.7103 0.1777 0.6427
C19 C 0.9550(6) 0.0876(4) 0.4610(4)
H16 H 0.9254 0.1467 0.4328
C20 C 0.8608(5) 0.0612(3) 0.5464(3)
C21 C 0.9058(6) -0.0270(4) 0.5838(4)
H17 H 0.8422 -0.0472 0.6404
C22 C 0.7880(5) 0.3220(3) 0.1521(3)
H18 H 0.7122 0.3366 0.1282
C23 C 0.9122(5) 0.3158(3) 0.2469(3)
C24 C 0.9630(5) 0.3254(3) 0.3243(4)
H19 H 0.9024 0.3606 0.3856
C25 C 1.1061(6) 0.2807(4) 0.3062(4)
H20 H 1.1432 0.2871 0.3560
C26 C 1.1974(6) 0.2257(4) 0.2151(5)
H21 H 1.2935 0.1963 0.2059
C27 C 1.1480(5) 0.2142(3) 0.1390(4)
H22 H 1.2079 0.1771 0.0786
C28 C 1.0049(5) 0.2605(3) 0.1569(3)
C29 C 0.9692(6) 0.2146(3) -0.0030(3)
H23 H 1.0609 0.2253 -0.0449
H24 H 0.8996 0.2437 -0.0346
C30 C 0.9213(5) 0.0593(3) 0.0879(3)
H25 H 0.8694 0.0987 0.1481
C31 C 0.9849(5) 0.1024(3) 0.0011(3)
C32 C 1.0663(5) 0.0417(3) -0.0863(3)
H26 H 1.1133 0.0693 -0.1448
N1A N 1.4352(4) -0.2965(2) 0.5618(3)
N2A N 1.3533(4) -0.1752(2) 0.4750(3)
C11A C 1.3896(5) -0.2742(3) 0.4862(3)
H9A H 1.3830 -0.3218 0.4447
C12A C 1.4293(4) -0.2050(3) 0.6037(3)
C13A C 1.4646(5) -0.1827(3) 0.6852(3)
H10A H 1.5012 -0.2328 0.7212
C14A C 1.4431(5) -0.0835(4) 0.7103(4)
H11A H 1.4669 -0.0664 0.7638
C15A C 1.3869(5) -0.0082(3) 0.6580(4)
H12A H 1.3721 0.0579 0.6785
C16A C 1.3526(5) -0.0284(3) 0.5771(4)
H13A H 1.3156 0.0222 0.5417
C17A C 1.3762(4) -0.1289(3) 0.5506(3)
C18A C 1.2911(5) -0.1270(3) 0.4021(3)
H14A H 1.3511 -0.0867 0.3614
H15A H 1.2897 -0.1777 0.3573
C19A C 1.0450(6) -0.0876(4) 0.5390(4)
H16A H 1.0746 -0.1467 0.5672
C20A C 1.1392(5) -0.0612(3) 0.4536(3)
C21A C 1.0942(6) 0.0270(4) 0.4162(4)
H17A H 1.1578 0.0472 0.3596
N3A N 1.2248(4) -0.3538(2) -0.2420(3)
N4A N 1.0775(4) -0.2657(2) -0.0971(3)
C22A C 1.2120(5) -0.3220(3) -0.1521(3)
H18A H 1.2878 -0.3366 -0.1282
C23A C 1.0878(5) -0.3158(3) -0.2469(3)
C24A C 1.0370(5) -0.3254(3) -0.3243(4)
H19A H 1.0976 -0.3606 -0.3856
C25A C 0.8939(6) -0.2807(4) -0.3062(4)
H20A H 0.8568 -0.2871 -0.3560
C26A C 0.8026(6) -0.2257(4) -0.2151(5)
H21A H 0.7065 -0.1963 -0.2059
C27A C 0.8520(5) -0.2142(3) -0.1390(4)
H22A H 0.7921 -0.1771 -0.0786
C28A C 0.9951(5) -0.2605(3) -0.1569(3)
C29A C 1.0308(6) -0.2146(3) 0.0030(3)
H23A H 0.9391 -0.2253 0.0449
H24A H 1.1004 -0.2437 0.0346
C30A C 1.0787(5) -0.0593(3) -0.0879(3)
H25A H 1.1306 -0.0987 -0.1481
C31A C 1.0151(5) -0.1024(3) -0.0011(3)
C32A C 0.9337(5) -0.0417(3) 0.0863(3)
H26A H 0.8867 -0.0693 0.1448
O1A O 0.4459(4) 0.4267(3) 0.2456(3)
Cd1A Cd -0.56096(3) 0.55318(2) 0.63386(2)
O2A O -0.3475(3) 0.4958(2) 0.4773(2)
O3A O -0.2822(3) 0.5757(2) 0.3394(2)
O4A O 0.4178(3) 0.5736(2) 0.3087(2)
C1A C -0.2789(4) 0.5545(3) 0.4234(3)
C2A C -0.1926(5) 0.5975(4) 0.4695(3)
H1A H -0.1411 0.5443 0.4993
H2A H -0.2591 0.6466 0.5239
C3A C -0.0855(4) 0.6460(3) 0.3976(3)
C4A C -0.1171(6) 0.7485(4) 0.3914(4)
H3A H -0.2056 0.7887 0.4333
C5A C -0.0196(7) 0.7916(4) 0.3244(5)
H4A H -0.0434 0.8605 0.3211
C6A C 0.1123(6) 0.7346(4) 0.2621(4)
H5A H 0.1780 0.7650 0.2179
C7A C 0.1478(5) 0.6310(4) 0.2653(3)
C8A C 0.0478(4) 0.5894(3) 0.3335(3)
H6A H 0.0709 0.5204 0.3365
C9A C 0.2921(5) 0.5655(5) 0.1994(4)
H7A H 0.3399 0.6050 0.1481
H8A H 0.2767 0.5126 0.1651
C10A C 0.3902(4) 0.5191(4) 0.2552(3)
Cd1_2 Cd -0.43904(3) 0.44682(2) 0.36614(2)
Cd1A_2 Cd 0.43904(3) 0.55318(2) 0.63386(2)
Cd1A_3 Cd 1.43904(3) -0.44682(2) -0.36614(2)
Cd1A_4 Cd 1.43904(3) -0.44682(2) 0.63386(2)
N1A_2 N -0.5648(4) 0.7035(2) 0.5618(3)
N3A_2 N -0.7752(4) 0.6462(2) 0.7580(3)
O2_2 O -0.6525(3) 0.5042(2) 0.5227(2)
O2A_2 O 0.6525(3) 0.4958(2) 0.4773(2)
O3_2 O -0.7178(3) 0.4243(2) 0.6606(2)
O3A_2 O 0.7178(3) 0.5757(2) 0.3394(2)
N5 N 0.5788(5) 0.8391(3) 0.1909(3)
N6 N 0.6372(4) 0.6863(3) 0.1167(3)
C33 C 0.6489(5) 0.7454(4) 0.1858(4)
H27 H 0.7027 0.7212 0.2262
C34 C 0.5124(5) 0.8423(3) 0.1207(4)
C35 C 0.4201(6) 0.9224(4) 0.0969(5)
H28 H 0.3945 0.9854 0.1293
C36 C 0.3671(7) 0.9065(4) 0.0240(5)
H29 H 0.3045 0.9591 0.0067
C37 C 0.4067(7) 0.8121(5) -0.0237(4)
H30 H 0.3697 0.8034 -0.0730
C38 C 0.4977(5) 0.7312(4) -0.0020(4)
H31 H 0.5241 0.6688 -0.0358
C39 C 0.5484(5) 0.7471(3) 0.0732(3)
C40 C 0.6912(5) 0.5770(3) 0.1029(4)
H32 H 0.6439 0.5521 0.0646
H33 H 0.6654 0.5498 0.1687
C41 C 0.9420(5) 0.5200(4) 0.1032(3)
H34 H 0.9043 0.5328 0.1731
C42 C 0.8521(4) 0.5398(3) 0.0491(3)
C43 C 0.9123(5) 0.5188(4) -0.0544(4)
H35 H 0.8526 0.5313 -0.0920
N5A N 1.4212(5) 0.1609(3) -0.1909(3)
N6A N 1.3628(4) 0.3137(3) -0.1167(3)
C33A C 1.3511(5) 0.2546(4) -0.1858(4)
H27A H 1.2973 0.2788 -0.2262
C34A C 1.4876(5) 0.1577(3) -0.1207(4)
C35A C 1.5799(6) 0.0776(4) -0.0969(5)
H28A H 1.6055 0.0146 -0.1293
C36A C 1.6329(7) 0.0935(4) -0.0240(5)
H29A H 1.6955 0.0409 -0.0067
C37A C 1.5933(7) 0.1879(5) 0.0237(4)
H30A H 1.6303 0.1966 0.0730
C38A C 1.5023(5) 0.2688(4) 0.0020(4)
H31A H 1.4759 0.3312 0.0358
C39A C 1.4516(5) 0.2529(3) -0.0732(3)
C40A C 1.3088(5) 0.4230(3) -0.1029(4)
H32A H 1.3561 0.4479 -0.0646
H33A H 1.3346 0.4502 -0.1687
C41A C 1.0580(5) 0.4800(4) -0.1032(3)
H34A H 1.0957 0.4672 -0.1731
C42A C 1.1479(4) 0.4602(3) -0.0491(3)
C43A C 1.0877(5) 0.4812(4) 0.0544(4)
H35A H 1.1474 0.4687 0.0920
loop_
_geom_bond_atom_site_label_1
_geom_bond_atom_site_label_2
_geom_bond_site_symmetry_1
_geom_bond_site_symmetry_2
O1 C10 1_555 1_555
Cd1 N1 1_555 1_555
N1 C11 1_555 1_555
N2 C11 1_555 1_555
N3 Cd1 1_555 1_555
N4 C22 1_555 1_555
O2 Cd1 1_555 1_555
O3 C1 1_555 1_555
O4 C10 1_555 1_555
C1 O2 1_555 1_555
C2 C1 1_555 1_555
H1 C2 1_555 1_555
H2 C2 1_555 1_555
C3 C2 1_555 1_555
C4 C3 1_555 1_555
H3 C4 1_555 1_555
C5 C4 1_555 1_555
H4 C5 1_555 1_555
C6 C5 1_555 1_555
H5 C6 1_555 1_555
C7 C6 1_555 1_555
C8 C3 1_555 1_555
H6 C8 1_555 1_555
C9 C7 1_555 1_555
H7 C9 1_555 1_555
H8 C9 1_555 1_555
C10 C9 1_555 1_555
C11 H9 1_555 1_555
C12 N1 1_555 1_555
C13 C12 1_555 1_555
H10 C13 1_555 1_555
C14 C13 1_555 1_555
H11 C14 1_555 1_555
C15 C14 1_555 1_555
H12 C15 1_555 1_555
C16 C15 1_555 1_555
H13 C16 1_555 1_555
C17 N2 1_555 1_555
C18 N2 1_555 1_555
H14 C18 1_555 1_555
H15 C18 1_555 1_555
C19 H16 1_555 1_555
C20 C18 1_555 1_555
C21 C20 1_555 1_555
H17 C21 1_555 1_555
C22 N3 1_555 1_555
H18 C22 1_555 1_555
C23 N3 1_555 1_555
C24 C23 1_555 1_555
H19 C24 1_555 1_555
C25 C24 1_555 1_555
H20 C25 1_555 1_555
C26 C25 1_555 1_555
H21 C26 1_555 1_555
C27 C26 1_555 1_555
H22 C27 1_555 1_555
C28 N4 1_555 1_555
C29 N4 1_555 1_555
H23 C29 1_555 1_555
H24 C29 1_555 1_555
C30 H25 1_555 1_555
C31 C29 1_555 1_555
C32 C31 1_555 1_555
H26 C32 1_555 1_555
N5 C33 1_555 1_555
N6 C33 1_555 1_555
C33 H27 1_555 1_555
C34 N5 1_555 1_555
C35 C34 1_555 1_555
H28 C35 1_555 1_555
C36 C35 1_555 1_555
H29 C36 1_555 1_555
C37 C36 1_555 1_555
H30 C37 1_555 1_555
C38 C37 1_555 1_555
H31 C38 1_555 1_555
C39 N6 1_555 1_555
C40 N6 1_555 1_555
H32 C40 1_555 1_555
H33 C40 1_555 1_555
C41 H34 1_555 1_555
C42 C40 1_555 1_555
C43 C42 1_555 1_555
H35 C43 1_555 1_555
N1A C11A 1_555 1_555
N2A C11A 1_555 1_555
C11A H9A 1_555 1_555
C12A N1A 1_555 1_555
C13A C12A 1_555 1_555
H10A C13A 1_555 1_555
C14A C13A 1_555 1_555
H11A C14A 1_555 1_555
C15A C14A 1_555 1_555
H12A C15A 1_555 1_555
C16A C15A 1_555 1_555
H13A C16A 1_555 1_555
C17A N2A 1_555 1_555
C18A N2A 1_555 1_555
H14A C18A 1_555 1_555
H15A C18A 1_555 1_555
C19A C21 1_555 1_555
H16A C19A 1_555 1_555
C20A C18A 1_555 1_555
C21A C19 1_555 1_555
H17A C21A 1_555 1_555
N3A C22A 1_555 1_555
N4A C22A 1_555 1_555
C22A H18A 1_555 1_555
C23A N3A 1_555 1_555
C24A C23A 1_555 1_555
H19A C24A 1_555 1_555
C25A C24A 1_555 1_555
H20A C25A 1_555 1_555
C26A C25A 1_555 1_555
H21A C26A 1_555 1_555
C27A C26A 1_555 1_555
H22A C27A 1_555 1_555
C28A N4A 1_555 1_555
C29A N4A 1_555 1_555
H23A C29A 1_555 1_555
H24A C29A 1_555 1_555
C30A C32 1_555 1_555
H25A C30A 1_555 1_555
C31A C29A 1_555 1_555
C32A C30 1_555 1_555
H26A C32A 1_555 1_555
O1A Cd1 1_555 1_555
Cd1A O1 1_555 1_555
O2A Cd1A 1_555 1_555
O3A C1A 1_555 1_555
O4A Cd1 1_555 1_555
C1A O2A 1_555 1_555
C2A C1A 1_555 1_555
H1A C2A 1_555 1_555
H2A C2A 1_555 1_555
C3A C2A 1_555 1_555
C4A C3A 1_555 1_555
H3A C4A 1_555 1_555
C5A C4A 1_555 1_555
H4A C5A 1_555 1_555
C6A C5A 1_555 1_555
H5A C6A 1_555 1_555
C7A C6A 1_555 1_555
C8A C3A 1_555 1_555
H6A C8A 1_555 1_555
C9A C7A 1_555 1_555
H7A C9A 1_555 1_555
H8A C9A 1_555 1_555
C10A O1A 1_555 1_555
Cd1_2 O2A 1_555 1_555
Cd1A_2 O2 1_555 1_555
Cd1A_3 N3A 1_555 1_555
Cd1A_4 N1A 1_555 1_555
N1A_2 Cd1A 1_555 1_555
N3A_2 Cd1A 1_555 1_555
O2_2 Cd1A 1_555 1_555
O2A_2 Cd1 1_555 1_555
O3_2 Cd1A 1_555 1_555
O3A_2 Cd1 1_555 1_555
N5A C33A 1_555 1_555
N6A C33A 1_555 1_555
C33A H27A 1_555 1_555
C34A N5A 1_555 1_555
C35A C34A 1_555 1_555
H28A C35A 1_555 1_555
C36A C35A 1_555 1_555
H29A C36A 1_555 1_555
C37A C36A 1_555 1_555
H30A C37A 1_555 1_555
C38A C37A 1_555 1_555
H31A C38A 1_555 1_555
C39A N6A 1_555 1_555
C40A N6A 1_555 1_555
H32A C40A 1_555 1_555
H33A C40A 1_555 1_555
C41A C43 1_555 1_555
H34A C41A 1_555 1_555
C42A C40A 1_555 1_555
C43A C41 1_555 1_555
H35A C43A 1_555 1_555
O3 Cd1A_2 1_555 1_555
O4 Cd1A 1_555 1_555
C7 C8 1_555 1_555
C12 C17 1_555 1_555
C16 C17 1_555 1_555
C19 C20 1_555 1_555
C23 C28 1_555 1_555
C27 C28 1_555 1_555
C30 C31 1_555 1_555
C34 C39 1_555 1_555
C38 C39 1_555 1_555
C41 C42 1_555 1_555
C12A C17A 1_555 1_555
C16A C17A 1_555 1_555
C19A C20A 1_555 1_555
C20A C21A 1_555 1_555
C23A C28A 1_555 1_555
C27A C28A 1_555 1_555
C30A C31A 1_555 1_555
C31A C32A 1_555 1_555
O3A Cd1_2 1_555 1_555
O4A C10A 1_555 1_555
C7A C8A 1_555 1_555
C9A C10A 1_555 1_555
Cd1_2 O2_2 1_555 1_555
Cd1A_2 O2A_2 1_555 1_555
C34A C39A 1_555 1_555
C38A C39A 1_555 1_555
C41A C42A 1_555 1_555
C42A C43A 1_555 1_555

#END
