
#######################################################################
#
#                 Cambridge Crystallographic Data Centre
#                                CCDC 
#
#######################################################################
#
# If this CIF has been generated from an entry in the Cambridge 
# Structural Database, then it will include bibliographic, chemical, 
# crystal, experimental, refinement or atomic coordinate data resulting 
# from the CCDC's data processing and validation procedures.
#
#######################################################################

data_HUYKOB
_chemical_formula_moiety         'C73 H48 N6 Ni5 O21'
_symmetry_cell_setting           cubic
_symmetry_space_group_name_H-M   'I 41 3 2'
_symmetry_Int_Tables_number      214
_space_group_name_Hall           'I 4bd 2c 3'
loop_
_symmetry_equiv_pos_site_id
_symmetry_equiv_pos_as_xyz
1 x,y,z
2 y,z,x
3 z,x,y
4 1/4-y,3/4+x,1/4+z
5 1/4-z,3/4+y,1/4+x
6 1/4-x,3/4+z,1/4+y
7 1/2-x,-y,1/2+z
8 -z,1/2+x,1/2-y
9 -x,1/2+y,1/2-z
10 1/2-y,-z,1/2+x
11 1/2-z,-x,1/2+y
12 1/4+y,1/4-x,3/4+z
13 1/4+z,1/4-y,3/4+x
14 1/4+x,1/4-z,3/4+y
15 -y,1/2+z,1/2-x
16 3/4-z,3/4-y,3/4-x
17 3/4-x,3/4-z,3/4-y
18 3/4-y,3/4-x,3/4-z
19 1/2+y,1/2-z,-x
20 3/4+y,1/4+x,1/4-z
21 3/4+z,1/4+y,1/4-x
22 3/4+x,1/4+z,1/4-y
23 1/2+x,1/2-y,-z
24 1/2+z,1/2-x,-y
25 1/2+x,1/2+y,1/2+z
26 1/2+y,1/2+z,1/2+x
27 1/2+z,1/2+x,1/2+y
28 3/4-y,1/4+x,3/4+z
29 3/4-z,1/4+y,3/4+x
30 3/4-x,1/4+z,3/4+y
31 -x,1/2-y,z
32 1/2-z,x,-y
33 1/2-x,y,-z
34 -y,1/2-z,x
35 -z,1/2-x,y
36 3/4+y,3/4-x,1/4+z
37 3/4+z,3/4-y,1/4+x
38 3/4+x,3/4-z,1/4+y
39 1/2-y,z,-x
40 1/4-z,1/4-y,1/4-x
41 1/4-x,1/4-z,1/4-y
42 1/4-y,1/4-x,1/4-z
43 y,-z,1/2-x
44 1/4+y,3/4+x,3/4-z
45 1/4+z,3/4+y,3/4-x
46 1/4+x,3/4+z,3/4-y
47 x,-y,1/2-z
48 z,-x,1/2-y
_cell_length_a                   28.8037(18)
_cell_length_b                   28.8037(18)
_cell_length_c                   28.8037(18)
_cell_angle_alpha                90
_cell_angle_beta                 90
_cell_angle_gamma                90
_cell_volume                     23897.1
loop_
_atom_site_label
_atom_site_type_symbol
_atom_site_fract_x
_atom_site_fract_y
_atom_site_fract_z
_atom_site_U_iso_or_equiv
_atom_site_thermal_displace_type
C1 C 0.9650(3) 0.5735(3) 0.9015(3) 0.0693 Uani
C2 C 1.0062(2) 0.5589(2) 0.9295(3) 0.0583 Uani
C3 C 1.0196(3) 0.5839(2) 0.9678(3) 0.0623 Uani
H1 H 1.0026 0.6098 0.9767 0.0750 Uiso
C4 C 0.8393(5) 0.5834(4) 0.8472(5) 0.1607 Uani
H2 H 0.8169 0.6041 0.8320 0.1930 Uiso
C5 C 0.8349(13) 0.5354(10) 0.8251(11) 0.1990 Uiso
C6 C 0.8389(18) 0.532(2) 0.7717(13) 0.2700 Uiso
C7 C 0.8770(18) 0.532(2) 0.7352(18) 0.3100 Uiso
C8 C 0.9245(3) 0.6940(4) 0.9663(5) 0.1057 Uani
H3 H 0.9211 0.6629 0.9743 0.1270 Uiso
C9 C 0.9342(4) 0.7264(6) 1.0030(5) 0.1267 Uani
H4 H 0.9361 0.7171 1.0338 0.1520 Uiso
C10 C 0.9404(5) 0.7705(7) 0.9905(8) 0.1483 Uani
H5 H 0.9480 0.7924 1.0129 0.1780 Uiso
C11 C 0.9360(4) 0.7832(5) 0.9479(8) 0.1500 Uani
H6 H 0.9394 0.8144 0.9401 0.1800 Uiso
C12 C 0.9256(3) 0.7488(4) 0.9113(5) 0.1113 Uani
H7 H 0.9230 0.7583 0.8806 0.1340 Uiso
N1 N 0.9201(2) 0.7053(3) 0.9217(3) 0.0887 Uani
O1 O 0.94836(18) 0.6124(2) 0.91144(19) 0.0867 Uani
O2 O 0.94951(18) 0.54710(18) 0.8699(2) 0.0797 Uani
O3 O 0.8835(2) 0.59721(18) 0.8344(2) 0.0973 Uani
H8 H 0.9026 0.5798 0.8463 0.1460 Uiso
Ni1 Ni 0.90407(3) 0.65407(3) 0.8750 0.0785 Uani
C2R C 1.0589(2) 0.5705(3) 0.9938(2) 0.0583 Uani
C1R C 1.0735(3) 0.5985(3) 1.0350(3) 0.0693 Uani
O1R O 1.1124(2) 0.58856(19) 1.05164(18) 0.0867 Uani
O2R O 1.04710(18) 0.6301(2) 1.05049(18) 0.0797 Uani
C3R C 1.0839(2) 0.5322(3) 0.9804(3) 0.0623 Uani
C2G C 1.0705(3) 0.5062(2) 0.9411(2) 0.0583 Uani
C1G C 1.0985(3) 0.4650(3) 0.9265(3) 0.0693 Uani
O1G O 1.08856(19) 0.44836(18) 0.8876(2) 0.0867 Uani
O2G O 1.1301(2) 0.44951(18) 0.95290(18) 0.0797 Uani
C3G C 1.0322(3) 0.5196(3) 0.9161(2) 0.0623 Uani
H1G H 1.0233 0.5026 0.8902 0.0750 Uiso
H1R H 1.1098 0.5233 0.9974 0.0750 Uiso
C4QA C 0.8334(4) 0.5893(5) 0.9028(5) 0.1607 Uani
H2QA H 0.8541 0.5669 0.9180 0.1930 Uiso
C5QA C 0.7854(10) 0.5849(13) 0.9249(11) 0.1990 Uiso
C6QA C 0.782(2) 0.5889(18) 0.9783(13) 0.2700 Uiso
C7QA C 0.782(2) 0.6270(18) 1.0148(18) 0.3100 Uiso
O3QA O 0.84721(18) 0.6335(2) 0.9156(2) 0.0973 Uani
H8QA H 0.8298 0.6526 0.9037 0.1460 Uiso
C8QA C 0.9440(4) 0.6745(3) 0.7837(5) 0.1057 Uani
H3QA H 0.9129 0.6711 0.7757 0.1270 Uiso
C9QA C 0.9764(6) 0.6842(4) 0.7470(5) 0.1267 Uani
H4QA H 0.9671 0.6861 0.7162 0.1520 Uiso
C10QA C 1.0205(7) 0.6904(5) 0.7595(8) 0.1483 Uani
H5QA H 1.0424 0.6980 0.7371 0.1780 Uiso
C11QA C 1.0332(5) 0.6860(4) 0.8021(8) 0.1500 Uani
H6QA H 1.0644 0.6894 0.8099 0.1800 Uiso
C12QA C 0.9988(4) 0.6756(3) 0.8387(5) 0.1113 Uani
H7QA H 1.0083 0.6730 0.8694 0.1340 Uiso
N1QA N 0.9553(3) 0.6701(2) 0.8283(3) 0.0887 Uani
C1QA C 0.8235(3) 0.7150(3) 0.8485(3) 0.0693 Uani
C2QA C 0.8089(2) 0.7562(2) 0.8205(3) 0.0583 Uani
C3QA C 0.8339(2) 0.7696(3) 0.7822(3) 0.0623 Uani
H1QA H 0.8598 0.7526 0.7733 0.0750 Uiso
O1QA O 0.8624(2) 0.69836(18) 0.83856(19) 0.0867 Uani
O2QA O 0.79710(18) 0.69951(18) 0.8801(2) 0.0797 Uani
C2BA C 0.8205(3) 0.8089(2) 0.7562(2) 0.0583 Uani
C1BA C 0.8485(3) 0.8235(3) 0.7150(3) 0.0693 Uani
O1BA O 0.83856(19) 0.8624(2) 0.69836(18) 0.0867 Uani
O2BA O 0.8801(2) 0.79710(18) 0.69951(18) 0.0797 Uani
C3BA C 0.7822(3) 0.8339(2) 0.7696(3) 0.0623 Uani
C2KA C 0.7562(2) 0.8205(3) 0.8089(2) 0.0583 Uani
C1KA C 0.7150(3) 0.8485(3) 0.8235(3) 0.0693 Uani
O1KA O 0.69836(18) 0.83856(19) 0.8624(2) 0.0867 Uani
O2KA O 0.69951(18) 0.8801(2) 0.79710(18) 0.0797 Uani
C3KA C 0.7696(3) 0.7822(3) 0.8339(2) 0.0623 Uani
H1KA H 0.7526 0.7733 0.8598 0.0750 Uiso
H1BA H 0.7733 0.8598 0.7526 0.0750 Uiso
Ni1R Ni 1.15407(3) 0.6250 1.09593(3) 0.0785 Uani
Ni1G Ni 1.1250 0.40407(3) 0.84593(3) 0.0785 Uani
C8R C 1.1940(4) 0.5337(5) 1.0755(3) 0.1057 Uani
H3R H 1.1629 0.5257 1.0789 0.1270 Uiso
C9R C 1.2264(6) 0.4970(5) 1.0658(4) 0.1267 Uani
H4R H 1.2171 0.4662 1.0639 0.1520 Uiso
C10R C 1.2705(7) 0.5095(8) 1.0596(5) 0.1483 Uani
H5R H 1.2924 0.4871 1.0520 0.1780 Uiso
C11R C 1.2832(5) 0.5521(8) 1.0640(4) 0.1500 Uani
H6R H 1.3144 0.5599 1.0606 0.1800 Uiso
C12R C 1.2488(4) 0.5887(5) 1.0744(3) 0.1113 Uani
H7R H 1.2583 0.6194 1.0770 0.1340 Uiso
N1R N 1.2053(3) 0.5783(3) 1.0799(2) 0.0887 Uani
C8SA C 1.1745(3) 0.7163(5) 1.0560(4) 0.1057 Uani
H3SA H 1.1711 0.7243 1.0871 0.1270 Uiso
C9SA C 1.1842(4) 0.7530(5) 1.0236(6) 0.1267 Uani
H4SA H 1.1861 0.7838 1.0329 0.1520 Uiso
C10SA C 1.1904(5) 0.7405(8) 0.9795(7) 0.1483 Uani
H5SA H 1.1980 0.7629 0.9576 0.1780 Uiso
C11SA C 1.1860(4) 0.6979(8) 0.9668(5) 0.1500 Uani
H6SA H 1.1894 0.6901 0.9356 0.1800 Uiso
C12SA C 1.1756(3) 0.6613(5) 1.0012(4) 0.1113 Uani
H7SA H 1.1730 0.6306 0.9917 0.1340 Uiso
N1SA N 1.1701(2) 0.6717(3) 1.0447(3) 0.0887 Uani
C4R C 1.0834(4) 0.6528(5) 1.1607(5) 0.1607 Uani
H2R H 1.1041 0.6680 1.1831 0.1930 Uiso
C5R C 1.0354(10) 0.6749(11) 1.1651(13) 0.1990 Uiso
C6R C 1.032(2) 0.7283(13) 1.1611(18) 0.2700 Uiso
C7R C 1.032(2) 0.7648(18) 1.1230(18) 0.3100 Uiso
O3R O 1.09721(18) 0.6656(2) 1.1165(2) 0.0973 Uani
H8R H 1.0798 0.6537 1.0974 0.1460 Uiso
C4SA C 1.0893(5) 0.5972(5) 1.1666(4) 0.1607 Uani
H2SA H 1.0669 0.5820 1.1459 0.1930 Uiso
C5SA C 1.0849(13) 0.5751(11) 1.2146(10) 0.1990 Uiso
C6SA C 1.0889(18) 0.5217(13) 1.218(2) 0.2700 Uiso
C7SA C 1.1270(18) 0.4852(18) 1.218(2) 0.3100 Uiso
O3SA O 1.1335(2) 0.5844(2) 1.15279(18) 0.0973 Uani
H8SA H 1.1526 0.5963 1.1702 0.1460 Uiso
C8G C 1.0337(5) 0.4245(3) 0.8060(4) 0.1057 Uani
H3G H 1.0257 0.4211 0.8371 0.1270 Uiso
C9G C 0.9970(5) 0.4342(4) 0.7736(6) 0.1267 Uani
H4G H 0.9662 0.4361 0.7829 0.1520 Uiso
C10G C 1.0095(8) 0.4404(5) 0.7295(7) 0.1483 Uani
H5G H 0.9871 0.4480 0.7076 0.1780 Uiso
C11G C 1.0521(8) 0.4360(4) 0.7168(5) 0.1500 Uani
H6G H 1.0599 0.4394 0.6856 0.1800 Uiso
C12G C 1.0887(5) 0.4256(3) 0.7512(4) 0.1113 Uani
H7G H 1.1194 0.4230 0.7417 0.1340 Uiso
N1G N 1.0783(3) 0.4201(2) 0.7947(3) 0.0887 Uani
C8RA C 1.2163(5) 0.4440(4) 0.8255(3) 0.1057 Uani
H3RA H 1.2243 0.4129 0.8289 0.1270 Uiso
C9RA C 1.2530(5) 0.4764(6) 0.8158(4) 0.1267 Uani
H4RA H 1.2838 0.4671 0.8139 0.1520 Uiso
C10RA C 1.2405(8) 0.5205(7) 0.8096(5) 0.1483 Uani
H5RA H 1.2629 0.5424 0.8020 0.1780 Uiso
C11RA C 1.1979(8) 0.5332(5) 0.8140(4) 0.1500 Uani
H6RA H 1.1901 0.5644 0.8106 0.1800 Uiso
C12RA C 1.1613(5) 0.4988(4) 0.8244(3) 0.1113 Uani
H7RA H 1.1306 0.5083 0.8270 0.1340 Uiso
N1RA N 1.1717(3) 0.4553(3) 0.8299(2) 0.0887 Uani
C4G C 1.1528(5) 0.3393(5) 0.9166(4) 0.1607 Uani
H2G H 1.1680 0.3169 0.8959 0.1930 Uiso
C5G C 1.1749(11) 0.3349(13) 0.9646(10) 0.1990 Uiso
C6G C 1.2283(13) 0.3389(18) 0.968(2) 0.2700 Uiso
C7G C 1.2648(18) 0.3770(18) 0.968(2) 0.3100 Uiso
O3G O 1.1656(2) 0.3835(2) 0.90279(18) 0.0973 Uani
H8G H 1.1537 0.4026 0.9202 0.1460 Uiso
C4RA C 1.0972(5) 0.3334(4) 0.9107(5) 0.1607 Uani
H2RA H 1.0820 0.3541 0.9331 0.1930 Uiso
C5RA C 1.0751(11) 0.2854(10) 0.9151(13) 0.1990 Uiso
C6RA C 1.0217(13) 0.282(2) 0.9111(18) 0.2700 Uiso
C7RA C 0.9852(18) 0.282(2) 0.8730(18) 0.3100 Uiso
O3RA O 1.0844(2) 0.34721(18) 0.8665(2) 0.0973 Uani
H8RA H 1.0963 0.3298 0.8474 0.1460 Uiso
Ni1B Ni 0.8750 0.90407(3) 0.65407(3) 0.0785 Uani
Ni1A Ni 0.65407(3) 0.8750 0.90407(3) 0.0785 Uani
O1SA O 1.19836(18) 0.66144(19) 1.1376(2) 0.0867 Uani
O1RA O 1.16144(19) 0.3624(2) 0.80164(18) 0.0867 Uani
C13 C 0.9198(15) 0.4461(16) 0.9388(14) 0.4300 Uiso
O4 O 0.9313(9) 0.4500(9) 0.8795(10) 0.3740 Uiso
loop_
_atom_site_aniso_label
_atom_site_aniso_U_11
_atom_site_aniso_U_22
_atom_site_aniso_U_33
_atom_site_aniso_U_23
_atom_site_aniso_U_13
_atom_site_aniso_U_12
C1 0.066(6) 0.063(6) 0.079(6) 0.008(5) -0.001(5) -0.001(5)
C2 0.060(5) 0.052(5) 0.063(5) -0.001(4) 0.000(5) 0.002(4)
C3 0.064(5) 0.055(4) 0.068(5) -0.003(4) 0.009(5) -0.001(4)
C4 0.109(10) 0.095(8) 0.278(17) 0.011(11) -0.074(12) -0.016(6)
C8 0.073(6) 0.087(7) 0.157(11) -0.029(8) 0.005(6) 0.013(5)
C9 0.098(7) 0.126(10) 0.156(10) -0.047(10) -0.017(7) 0.022(7)
C10 0.088(8) 0.125(14) 0.232(19) -0.051(13) 0.023(10) -0.001(8)
C11 0.082(7) 0.088(10) 0.28(2) -0.006(13) 0.040(11) -0.015(6)
C12 0.093(7) 0.062(7) 0.179(11) -0.015(7) 0.030(7) -0.008(5)
N1 0.074(5) 0.076(6) 0.116(7) -0.004(4) -0.001(4) -0.003(4)
O1 0.082(4) 0.072(4) 0.106(4) -0.013(3) -0.031(3) 0.016(3)
O2 0.079(4) 0.074(3) 0.086(4) -0.009(3) -0.017(3) 0.005(3)
O3 0.084(4) 0.084(4) 0.124(5) 0.007(3) -0.041(3) -0.007(3)
Ni1 0.0643(8) 0.0643(8) 0.1069(12) 0.0101(6) -0.0101(6) 0.0000(7)
C2R 0.052 0.063 0.06 0 -0.002 0.001
C1R 0.063 0.079 0.066 -0.001 0.001 -0.008
O1R 0.072 0.106 0.082 -0.031 -0.016 0.013
O2R 0.074 0.086 0.079 -0.017 -0.005 0.009
C3R 0.055 0.068 0.064 0.009 0.001 0.003
C2G 0.063 0.06 0.052 -0.002 -0.001 0
C1G 0.079 0.066 0.063 0.001 0.008 0.001
O1G 0.106 0.082 0.072 -0.016 -0.013 0.031
O2G 0.086 0.079 0.074 -0.005 -0.009 0.017
C3G 0.068 0.064 0.055 0.001 -0.003 -0.009
C4QA 0.095 0.109 0.278 0.074 -0.011 -0.016
O3QA 0.084 0.084 0.124 0.041 -0.007 -0.007
C8QA 0.087 0.073 0.157 -0.005 0.029 0.013
C9QA 0.126 0.098 0.156 0.017 0.047 0.022
C10QA 0.125 0.088 0.232 -0.023 0.051 -0.001
C11QA 0.088 0.082 0.28 -0.04 0.006 -0.015
C12QA 0.062 0.093 0.179 -0.03 0.015 -0.008
N1QA 0.076 0.074 0.116 0.001 0.004 -0.003
C1QA 0.063 0.066 0.079 0.001 -0.008 -0.001
C2QA 0.052 0.06 0.063 0 0.001 0.002
C3QA 0.055 0.064 0.068 -0.009 0.003 -0.001
O1QA 0.072 0.082 0.106 0.031 0.013 0.016
O2QA 0.074 0.079 0.086 0.017 0.009 0.005
C2BA 0.063 0.052 0.06 0.002 0 0.001
C1BA 0.079 0.063 0.066 -0.001 0.001 -0.008
O1BA 0.106 0.072 0.082 0.016 0.031 0.013
O2BA 0.086 0.074 0.079 0.005 0.017 0.009
C3BA 0.068 0.055 0.064 -0.001 -0.009 0.003
C2KA 0.06 0.063 0.052 0.001 0.002 0
C1KA 0.066 0.079 0.063 -0.008 -0.001 0.001
O1KA 0.082 0.106 0.072 0.013 0.016 0.031
O2KA 0.079 0.086 0.074 0.009 0.005 0.017
C3KA 0.064 0.068 0.055 0.003 -0.001 -0.009
Ni1R 0.0643 0.1069 0.0643 -0.0101 0 -0.0101
Ni1G 0.1069 0.0643 0.0643 0 0.0101 0.0101
C8R 0.087 0.157 0.073 0.005 -0.013 0.029
C9R 0.126 0.156 0.098 -0.017 -0.022 0.047
C10R 0.125 0.232 0.088 0.023 0.001 0.051
C11R 0.088 0.28 0.082 0.04 0.015 0.006
C12R 0.062 0.179 0.093 0.03 0.008 0.015
N1R 0.076 0.116 0.074 -0.001 0.003 0.004
C8SA 0.073 0.157 0.087 0.029 -0.013 0.005
C9SA 0.098 0.156 0.126 0.047 -0.022 -0.017
C10SA 0.088 0.232 0.125 0.051 0.001 0.023
C11SA 0.082 0.28 0.088 0.006 0.015 0.04
C12SA 0.093 0.179 0.062 0.015 0.008 0.03
N1SA 0.074 0.116 0.076 0.004 0.003 -0.001
C4R 0.095 0.278 0.109 -0.074 0.016 -0.011
O3R 0.084 0.124 0.084 -0.041 0.007 -0.007
C4SA 0.109 0.278 0.095 -0.011 0.016 -0.074
O3SA 0.084 0.124 0.084 -0.007 0.007 -0.041
C8G 0.157 0.073 0.087 -0.013 -0.029 -0.005
C9G 0.156 0.098 0.126 -0.022 -0.047 0.017
C10G 0.232 0.088 0.125 0.001 -0.051 -0.023
C11G 0.28 0.082 0.088 0.015 -0.006 -0.04
C12G 0.179 0.093 0.062 0.008 -0.015 -0.03
N1G 0.116 0.074 0.076 0.003 -0.004 0.001
C8RA 0.157 0.087 0.073 -0.013 -0.005 -0.029
C9RA 0.156 0.126 0.098 -0.022 0.017 -0.047
C10RA 0.232 0.125 0.088 0.001 -0.023 -0.051
C11RA 0.28 0.088 0.082 0.015 -0.04 -0.006
C12RA 0.179 0.062 0.093 0.008 -0.03 -0.015
N1RA 0.116 0.076 0.074 0.003 0.001 -0.004
C4G 0.278 0.109 0.095 0.016 0.011 0.074
O3G 0.124 0.084 0.084 0.007 0.007 0.041
C4RA 0.278 0.095 0.109 0.016 0.074 0.011
O3RA 0.124 0.084 0.084 0.007 0.041 0.007
Ni1B 0.1069 0.0643 0.0643 0 0.0101 -0.0101
Ni1A 0.0643 0.1069 0.0643 -0.0101 0 0.0101
O1SA 0.082 0.106 0.072 0.013 -0.016 -0.031
O1RA 0.106 0.072 0.082 -0.016 0.031 -0.013
loop_
_geom_bond_atom_site_label_1
_geom_bond_atom_site_label_2
_geom_bond_site_symmetry_1
_geom_bond_site_symmetry_2
C1 C2 1_555 1_555
C2 C3 1_555 1_555
C3 H1 1_555 1_555
C4 H2 1_555 1_555
C5 C4 1_555 1_555
C6 C5 1_555 1_555
C7 C6 1_555 1_555
C8 H3 1_555 1_555
C9 C8 1_555 1_555
H4 C9 1_555 1_555
C10 C9 1_555 1_555
H5 C10 1_555 1_555
C11 C10 1_555 1_555
H6 C11 1_555 1_555
C12 C11 1_555 1_555
H7 C12 1_555 1_555
C13 O4 1_555 1_555
N1 C8 1_555 1_555
O1 C1 1_555 1_555
O2 C1 1_555 1_555
O3 C4 1_555 1_555
H8 O3 1_555 1_555
Ni1 N1 1_555 1_555
C2R C3 1_555 1_555
C1R C2R 1_555 1_555
O1R C1R 1_555 1_555
O2R C1R 1_555 1_555
C3R C2R 1_555 1_555
C2G C3R 1_555 1_555
C1G C2G 1_555 1_555
O1G C1G 1_555 1_555
O2G C1G 1_555 1_555
C3G C2 1_555 1_555
H1G C3G 1_555 1_555
H1R C3R 1_555 1_555
C4QA C4 1_555 1_555
H2QA C4QA 1_555 1_555
C5QA C4QA 1_555 1_555
C6QA C5QA 1_555 1_555
C7QA C6QA 1_555 1_555
O3QA Ni1 1_555 1_555
H8QA O3QA 1_555 1_555
C8QA H3QA 1_555 1_555
C9QA C8QA 1_555 1_555
H4QA C9QA 1_555 1_555
C10QA C9QA 1_555 1_555
H5QA C10QA 1_555 1_555
C11QA C10QA 1_555 1_555
H6QA C11QA 1_555 1_555
C12QA C11QA 1_555 1_555
H7QA C12QA 1_555 1_555
N1QA Ni1 1_555 1_555
C1QA C2QA 1_555 1_555
C2QA C3QA 1_555 1_555
C3QA H1QA 1_555 1_555
O1QA Ni1 1_555 1_555
O2QA C1QA 1_555 1_555
C2BA C3QA 1_555 1_555
C1BA C2BA 1_555 1_555
O1BA C1BA 1_555 1_555
O2BA C1BA 1_555 1_555
C3BA C2BA 1_555 1_555
C2KA C3BA 1_555 1_555
C1KA C2KA 1_555 1_555
O1KA C1KA 1_555 1_555
O2KA C1KA 1_555 1_555
C3KA C2QA 1_555 1_555
H1KA C3KA 1_555 1_555
H1BA C3BA 1_555 1_555
Ni1R O1R 1_555 1_555
Ni1G O1G 1_555 1_555
C8R H3R 1_555 1_555
C9R C8R 1_555 1_555
H4R C9R 1_555 1_555
C10R C9R 1_555 1_555
H5R C10R 1_555 1_555
C11R C10R 1_555 1_555
H6R C11R 1_555 1_555
C12R C11R 1_555 1_555
H7R C12R 1_555 1_555
N1R Ni1R 1_555 1_555
C8SA H3SA 1_555 1_555
C9SA C8SA 1_555 1_555
H4SA C9SA 1_555 1_555
C10SA C9SA 1_555 1_555
H5SA C10SA 1_555 1_555
C11SA C10SA 1_555 1_555
H6SA C11SA 1_555 1_555
C12SA C11SA 1_555 1_555
H7SA C12SA 1_555 1_555
N1SA Ni1R 1_555 1_555
C4R H2R 1_555 1_555
C5R C4R 1_555 1_555
C6R C5R 1_555 1_555
C7R C6R 1_555 1_555
O3R Ni1R 1_555 1_555
H8R O3R 1_555 1_555
C4SA C4R 1_555 1_555
H2SA C4SA 1_555 1_555
C5SA C4SA 1_555 1_555
C6SA C5SA 1_555 1_555
C7SA C6SA 1_555 1_555
O3SA Ni1R 1_555 1_555
H8SA O3SA 1_555 1_555
C8G H3G 1_555 1_555
C9G C8G 1_555 1_555
H4G C9G 1_555 1_555
C10G C9G 1_555 1_555
H5G C10G 1_555 1_555
C11G C10G 1_555 1_555
H6G C11G 1_555 1_555
C12G C11G 1_555 1_555
H7G C12G 1_555 1_555
N1G Ni1G 1_555 1_555
C8RA H3RA 1_555 1_555
C9RA C8RA 1_555 1_555
H4RA C9RA 1_555 1_555
C10RA C9RA 1_555 1_555
H5RA C10RA 1_555 1_555
C11RA C10RA 1_555 1_555
H6RA C11RA 1_555 1_555
C12RA C11RA 1_555 1_555
H7RA C12RA 1_555 1_555
N1RA Ni1G 1_555 1_555
C4G H2G 1_555 1_555
C5G C4G 1_555 1_555
C6G C5G 1_555 1_555
C7G C6G 1_555 1_555
O3G Ni1G 1_555 1_555
H8G O3G 1_555 1_555
C4RA C4G 1_555 1_555
H2RA C4RA 1_555 1_555
C5RA C4RA 1_555 1_555
C6RA C5RA 1_555 1_555
C7RA C6RA 1_555 1_555
O3RA Ni1G 1_555 1_555
H8RA O3RA 1_555 1_555
Ni1B O1BA 1_555 1_555
Ni1A O1KA 1_555 1_555
O1SA Ni1R 1_555 1_555
O1RA Ni1G 1_555 1_555
C12 N1 1_555 1_555
O1 Ni1 1_555 1_555
O3 Ni1 1_555 1_555
C2G C3G 1_555 1_555
C4QA O3QA 1_555 1_555
C8QA N1QA 1_555 1_555
C12QA N1QA 1_555 1_555
C1QA O1QA 1_555 1_555
C2KA C3KA 1_555 1_555
C8R N1R 1_555 1_555
C12R N1R 1_555 1_555
C8SA N1SA 1_555 1_555
C12SA N1SA 1_555 1_555
C4R O3R 1_555 1_555
C4SA O3SA 1_555 1_555
C8G N1G 1_555 1_555
C12G N1G 1_555 1_555
C8RA N1RA 1_555 1_555
C12RA N1RA 1_555 1_555
C4G O3G 1_555 1_555
C4RA O3RA 1_555 1_555

#END
