
#######################################################################
#
#                 Cambridge Crystallographic Data Centre
#                                CCDC 
#
#######################################################################
#
# If this CIF has been generated from an entry in the Cambridge 
# Structural Database, then it will include bibliographic, chemical, 
# crystal, experimental, refinement or atomic coordinate data resulting 
# from the CCDC's data processing and validation procedures.
#
#######################################################################

data_CEGDUO
_chemical_formula_moiety         '(C22 H26 Ag4 N8)n'
_symmetry_cell_setting           orthorhombic
_symmetry_space_group_name_H-M   'P n n a'
_symmetry_Int_Tables_number      52
_space_group_name_Hall           '-P 2a 2bc'
loop_
_symmetry_equiv_pos_site_id
_symmetry_equiv_pos_as_xyz
1 x,y,z
2 1/2-x,-y,z
3 1/2-x,1/2+y,1/2-z
4 x,1/2-y,1/2-z
5 -x,-y,-z
6 1/2+x,y,-z
7 1/2+x,1/2-y,1/2+z
8 -x,1/2+y,1/2+z
_cell_length_a                   19.6228(8)
_cell_length_b                   10.4307(4)
_cell_length_c                   12.7867(5)
_cell_angle_alpha                90
_cell_angle_beta                 90
_cell_angle_gamma                90
_cell_volume                     2617.18
loop_
_atom_site_label
_atom_site_type_symbol
_atom_site_fract_x
_atom_site_fract_y
_atom_site_fract_z
_atom_site_U_iso_or_equiv
_atom_site_thermal_displace_type
Ag1 Ag 0.666340(14) -0.2500 -0.2500 0.0245 Uani
Ag2 Ag 0.535213(10) -0.14245(2) -0.673022(15) 0.0268 Uani
Ag3 Ag 0.2500 0.0000 -0.82958(2) 0.0251 Uani
N1 N 0.65927(11) -0.2219(2) -0.41080(17) 0.0251 Uani
N2 N 0.60954(11) -0.1920(2) -0.56543(18) 0.0302 Uani
N3 N 0.45772(11) -0.0856(2) -0.77320(17) 0.0253 Uani
N4 N 0.35339(11) -0.0399(2) -0.82979(16) 0.0239 Uani
C1 C 0.60075(13) -0.1977(3) -0.4618(2) 0.0258 Uani
C2 C 0.67773(15) -0.2146(3) -0.5817(2) 0.0366 Uani
H1 H 0.6998 -0.2172 -0.6478 0.0440 Uiso
C3 C 0.70814(14) -0.2326(3) -0.4874(2) 0.0309 Uani
H2 H 0.7551 -0.2496 -0.4763 0.0370 Uiso
C4 C 0.53315(14) -0.1845(3) -0.4101(2) 0.0349 Uani
H3 H 0.5387 -0.1913 -0.3342 0.0520 Uiso
H4 H 0.5028 -0.2527 -0.4347 0.0520 Uiso
H5 H 0.5134 -0.1009 -0.4275 0.0520 Uiso
C5 C 0.39134(12) -0.0797(2) -0.74923(19) 0.0242 Uani
C6 C 0.39879(13) -0.0183(3) -0.9106(2) 0.0278 Uani
H6 H 0.3874 0.0115 -0.9786 0.0330 Uiso
C7 C 0.46232(13) -0.0468(3) -0.8759(2) 0.0277 Uani
H7 H 0.5031 -0.0411 -0.9158 0.0330 Uiso
C8 C 0.36284(15) -0.1153(3) -0.6449(2) 0.0333 Uani
H8 H 0.3133 -0.1030 -0.6453 0.0500 Uiso
H9 H 0.3832 -0.0609 -0.5908 0.0500 Uiso
H10 H 0.3732 -0.2054 -0.6301 0.0500 Uiso
Ag2C Ag 0.535213(10) -0.35755(2) 0.173022(15) 0.0268 Uani
Ag3B Ag 0.2500 -0.5000 0.32958(2) 0.0251 Uani
N1C N 0.65927(11) -0.2781(2) -0.08920(17) 0.0251 Uani
N2C N 0.60954(11) -0.3080(2) 0.06543(18) 0.0302 Uani
N3C N 0.45772(11) -0.4144(2) 0.27320(17) 0.0253 Uani
N4C N 0.35339(11) -0.4601(2) 0.32979(16) 0.0239 Uani
N4A N 0.14661(11) 0.0399(2) -0.82979(16) 0.0239 Uani
C1C C 0.60075(13) -0.3023(3) -0.0382(2) 0.0258 Uani
C2C C 0.67773(15) -0.2854(3) 0.0817(2) 0.0366 Uani
H1C H 0.6998 -0.2828 0.1478 0.0440 Uiso
C3C C 0.70814(14) -0.2674(3) -0.0126(2) 0.0309 Uani
H2C H 0.7551 -0.2504 -0.0237 0.0370 Uiso
C4C C 0.53315(14) -0.3155(3) -0.0899(2) 0.0349 Uani
H3C H 0.5387 -0.3087 -0.1658 0.0520 Uiso
H4C H 0.5028 -0.2473 -0.0653 0.0520 Uiso
H5C H 0.5134 -0.3991 -0.0725 0.0520 Uiso
C5C C 0.39134(12) -0.4203(2) 0.24923(19) 0.0242 Uani
C6C C 0.39879(13) -0.4817(3) 0.4106(2) 0.0278 Uani
H6C H 0.3874 -0.5115 0.4786 0.0330 Uiso
C7C C 0.46232(13) -0.4532(3) 0.3759(2) 0.0277 Uani
H7C H 0.5031 -0.4589 0.4158 0.0330 Uiso
C8C C 0.36284(15) -0.3847(3) 0.1449(2) 0.0333 Uani
H8C H 0.3133 -0.3970 0.1453 0.0500 Uiso
H9C H 0.3832 -0.4391 0.0908 0.0500 Uiso
H10C H 0.3732 -0.2946 0.1301 0.0500 Uiso
C9 C 0.85640(18) -0.37776(15) -0.7194(2) 0.0647 Uani
H11 H 0.8567 -0.4651 -0.6985 0.0780 Uiso
C10 C 0.85634(14) -0.2812(3) -0.64443(11) 0.0600 Uani
H12 H 0.8565 -0.3028 -0.5722 0.0720 Uiso
C11 C 0.85600(18) -0.3462(2) -0.82527(19) 0.0613 Uani
H13 H 0.8555 -0.4121 -0.8766 0.0730 Uiso
C9C C 0.85640(18) -0.12224(15) -0.7806(2) 0.0647 Uani
H11C H 0.8567 -0.0349 -0.8015 0.0780 Uiso
C10C C 0.85634(14) -0.2188(3) -0.85557(11) 0.0600 Uani
H12C H 0.8565 -0.1972 -0.9278 0.0720 Uiso
C11C C 0.85600(18) -0.1538(2) -0.67473(19) 0.0613 Uani
H13C H 0.8555 -0.0879 -0.6234 0.0730 Uiso
loop_
_atom_site_aniso_label
_atom_site_aniso_U_11
_atom_site_aniso_U_22
_atom_site_aniso_U_33
_atom_site_aniso_U_23
_atom_site_aniso_U_13
_atom_site_aniso_U_12
Ag1 0.02747(14) 0.02758(15) 0.01847(13) -0.00139(10) 0.000 0.000
Ag2 0.02666(12) 0.03172(13) 0.02206(11) -0.00032(8) -0.00486(7) 0.00111(8)
Ag3 0.02086(14) 0.02504(15) 0.02939(15) 0.000 0.000 0.00021(10)
N1 0.0260(10) 0.0291(12) 0.0201(10) -0.0027(9) -0.0030(8) -0.0006(9)
N2 0.0285(11) 0.0395(14) 0.0225(11) -0.0008(10) -0.0034(8) -0.0006(10)
N3 0.0251(10) 0.0264(11) 0.0243(11) 0.0010(9) -0.0008(8) 0.0019(9)
N4 0.0221(10) 0.0242(11) 0.0253(11) 0.0004(9) 0.0014(8) 0.0007(9)
C1 0.0278(13) 0.0255(13) 0.0242(12) -0.0023(11) -0.0050(9) 0.0003(11)
C2 0.0295(13) 0.058(2) 0.0222(13) 0.0000(13) 0.0007(10) -0.0015(13)
C3 0.0239(12) 0.0444(17) 0.0243(13) -0.0022(12) -0.0005(10) -0.0011(12)
C4 0.0308(14) 0.0432(18) 0.0307(14) -0.0018(13) 0.0011(11) 0.0086(12)
C5 0.0265(12) 0.0222(12) 0.0239(12) -0.0007(10) 0.0022(10) -0.0037(10)
C6 0.0301(13) 0.0316(14) 0.0217(12) 0.0019(11) 0.0007(10) 0.0041(11)
C7 0.0271(13) 0.0339(15) 0.0222(12) 0.0029(11) 0.0049(9) 0.0017(11)
C8 0.0343(15) 0.0369(16) 0.0286(13) 0.0052(13) 0.0068(11) -0.0012(12)
Ag2C 0.02666 0.03172 0.02206 -0.00032 0.00486 -0.00111
Ag3B 0.02086 0.02504 0.02939 0 0 -0.00021
N1C 0.026 0.0291 0.0201 -0.0027 0.003 0.0006
N2C 0.0285 0.0395 0.0225 -0.0008 0.0034 0.0006
N3C 0.0251 0.0264 0.0243 0.001 0.0008 -0.0019
N4C 0.0221 0.0242 0.0253 0.0004 -0.0014 -0.0007
N4A 0.0221 0.0242 0.0253 -0.0004 -0.0014 0.0007
C1C 0.0278 0.0255 0.0242 -0.0023 0.005 -0.0003
C2C 0.0295 0.058 0.0222 0 -0.0007 0.0015
C3C 0.0239 0.0444 0.0243 -0.0022 0.0005 0.0011
C4C 0.0308 0.0432 0.0307 -0.0018 -0.0011 -0.0086
C5C 0.0265 0.0222 0.0239 -0.0007 -0.0022 0.0037
C6C 0.0301 0.0316 0.0217 0.0019 -0.0007 -0.0041
C7C 0.0271 0.0339 0.0222 0.0029 -0.0049 -0.0017
C8C 0.0343 0.0369 0.0286 0.0052 -0.0068 0.0012
C9 0.059(2) 0.077(3) 0.058(2) 0.014(2) 0.012(2) 0.028(2)
C10 0.051(2) 0.092(3) 0.0369(18) 0.011(2) 0.0071(16) 0.021(2)
C11 0.051 0.086 0.047 -0.003 0.0007 0.01
C9C 0.059 0.077 0.058 0.014 -0.012 -0.028
C10C 0.051 0.092 0.0369 0.011 -0.0071 -0.021
C11C 0.051(2) 0.086(3) 0.047(2) -0.003(2) -0.0007(16) -0.010(2)
loop_
_geom_bond_atom_site_label_1
_geom_bond_atom_site_label_2
_geom_bond_site_symmetry_1
_geom_bond_site_symmetry_2
Ag1 N1 1_555 1_555
Ag2 N2 1_555 1_555
Ag3 N4 1_555 1_555
N1 C1 1_555 1_555
N2 C1 1_555 1_555
N3 Ag2 1_555 1_555
N4 C5 1_555 1_555
C1 C4 1_555 1_555
C2 N2 1_555 1_555
H1 C2 1_555 1_555
C3 N1 1_555 1_555
H2 C3 1_555 1_555
C4 H3 1_555 1_555
H4 C4 1_555 1_555
H5 C4 1_555 1_555
C5 N3 1_555 1_555
C6 N4 1_555 1_555
H6 C6 1_555 1_555
C7 N3 1_555 1_555
H7 C7 1_555 1_555
C8 C5 1_555 1_555
H8 C8 1_555 1_555
H9 C8 1_555 1_555
H10 C8 1_555 1_555
C9 H11 1_555 1_555
C10 C9 1_555 1_555
H12 C10 1_555 1_555
C11 C9 1_555 1_555
H13 C11 1_555 1_555
Ag2C N2C 1_555 1_555
Ag3B N4C 1_555 1_555
N1C Ag1 1_555 1_555
N2C C1C 1_555 1_555
N3C Ag2C 1_555 1_555
N4C C5C 1_555 1_555
N4A Ag3 1_555 1_555
C1C N1C 1_555 1_555
C2C N2C 1_555 1_555
H1C C2C 1_555 1_555
C3C N1C 1_555 1_555
H2C C3C 1_555 1_555
C4C C1C 1_555 1_555
H3C C4C 1_555 1_555
H4C C4C 1_555 1_555
H5C C4C 1_555 1_555
C5C N3C 1_555 1_555
C6C N4C 1_555 1_555
H6C C6C 1_555 1_555
C7C N3C 1_555 1_555
H7C C7C 1_555 1_555
C8C C5C 1_555 1_555
H8C C8C 1_555 1_555
H9C C8C 1_555 1_555
H10C C8C 1_555 1_555
C9C H11C 1_555 1_555
C10C C11 1_555 1_555
H12C C10C 1_555 1_555
C11C C10 1_555 1_555
H13C C11C 1_555 1_555
C2 C3 1_555 1_555
C6 C7 1_555 1_555
C2C C3C 1_555 1_555
C6C C7C 1_555 1_555
C9C C10C 1_555 1_555
C9C C11C 1_555 1_555

#END
