
#######################################################################
#
#                 Cambridge Crystallographic Data Centre
#                                CCDC 
#
#######################################################################
#
# If this CIF has been generated from an entry in the Cambridge 
# Structural Database, then it will include bibliographic, chemical, 
# crystal, experimental, refinement or atomic coordinate data resulting 
# from the CCDC's data processing and validation procedures.
#
#######################################################################

data_QETHUT
_chemical_formula_moiety         '(C5 H9 Al3 F1 N2 O12 P3)n'
_symmetry_cell_setting           triclinic
_symmetry_space_group_name_H-M   'P -1'
_symmetry_Int_Tables_number      2
_space_group_name_Hall           '-P 1'
loop_
_symmetry_equiv_pos_site_id
_symmetry_equiv_pos_as_xyz
1 x,y,z
2 -x,-y,-z
_cell_length_a                   9.074(3)
_cell_length_b                   9.230(3)
_cell_length_c                   9.309(3)
_cell_angle_alpha                76.446(5)
_cell_angle_beta                 87.343(5)
_cell_angle_gamma                89.388(5)
_cell_volume                     757.128
loop_
_atom_site_label
_atom_site_type_symbol
_atom_site_fract_x
_atom_site_fract_y
_atom_site_fract_z
P1 P 1.18744(6) 0.38185(7) 0.90258(7)
P2 P 0.61755(6) 0.37170(7) 0.67634(6)
P3 P 0.64606(7) 0.16819(7) 1.14566(7)
Al1 Al 0.83934(8) 0.37467(8) 0.92586(8)
Al2 Al 0.43433(8) 0.13220(8) 0.91193(8)
Al3 Al 0.61903(8) 0.39099(8) 1.34189(8)
F1 F 0.39419(15) -0.01361(15) 1.08364(14)
O1 O 0.50263(18) 0.25482(19) 0.73720(18)
O2 O 0.65206(18) -0.00086(19) 1.18779(18)
O3 O 1.26206(18) 0.23280(19) 0.92873(18)
O4 O 0.53321(19) 0.23326(19) 1.03311(18)
O5 O 0.6179(2) 0.2237(2) 1.28875(18)
O6 O 0.75284(18) 0.3573(2) 0.76943(18)
O7 O 1.02464(19) 0.3618(2) 0.8773(2)
O8 O 0.67540(19) 0.3551(2) 0.52280(18)
O9 O 1.1980(2) 0.4525(2) 1.03565(19)
O10 O 0.79995(18) 0.2304(2) 1.08065(19)
O11 O 0.55445(19) 0.5285(2) 0.6619(2)
O12 O 1.2503(2) 0.4901(2) 0.76322(19)
Al1A Al 1.16066(8) 0.62533(8) 1.07414(8)
Al2A Al 0.56567(8) -0.13220(8) 1.08807(8)
Al2_2 Al 1.43433(8) 0.13220(8) 0.91193(8)
Al3_2 Al 0.61903(8) 0.39099(8) 0.34189(8)
Al3A Al 0.38097(8) 0.60901(8) 0.65811(8)
Al3A_2 Al 1.38097(8) 0.60901(8) 0.65811(8)
F1A F 0.60581(15) 0.01361(15) 0.91636(14)
O2A O 0.34794(18) 0.00086(19) 0.81221(18)
O3_2 O 0.26206(18) 0.23280(19) 0.92873(18)
O8_2 O 0.67540(19) 0.3551(2) 1.52280(18)
O9A O 0.8020(2) 0.5475(2) 0.96435(19)
O11A O 0.44555(19) 0.4715(2) 1.3381(2)
O12A O 0.7497(2) 0.5099(2) 1.23678(19)
N1 N 0.8867(3) 0.9424(3) 0.7034(3)
N2 N 0.8805(3) 0.7897(4) 0.5608(3)
C1 C 0.9350(4) 1.0178(4) 0.8144(4)
H1 H 0.8892 0.9703 0.9112
H2 H 0.9058 1.1229 0.7874
H3 H 1.0426 1.0109 0.8193
C2 C 0.9535(4) 0.8288(4) 0.6650(4)
H4 H 1.0408 0.7822 0.7060
C3 C 0.7624(5) 0.9760(5) 0.6218(4)
H5 H 0.6930 1.0526 0.6270
C4 C 0.7580(5) 0.8795(5) 0.5332(4)
H6 H 0.6846 0.8746 0.4650
C5 C 0.9200(5) 0.6666(5) 0.4930(5)
H7 H 1.0271 0.6656 0.4740
H8 H 0.8705 0.6792 0.3995
H9 H 0.8889 0.5723 0.5600
loop_
_geom_bond_atom_site_label_1
_geom_bond_atom_site_label_2
_geom_bond_site_symmetry_1
_geom_bond_site_symmetry_2
P1 O3 1_555 1_555
P2 O1 1_555 1_555
P3 O2 1_555 1_555
Al1 O6 1_555 1_555
Al2 F1 1_555 1_555
Al3 O5 1_555 1_555
F1 Al2A 1_555 1_555
O1 Al2 1_555 1_555
O2 Al2A 1_555 1_555
O3 Al2_2 1_555 1_555
O4 P3 1_555 1_555
O5 P3 1_555 1_555
O6 P2 1_555 1_555
O7 P1 1_555 1_555
O8 P2 1_555 1_555
O9 P1 1_555 1_555
O10 P3 1_555 1_555
O11 P2 1_555 1_555
O12 P1 1_555 1_555
N1 C1 1_555 1_555
N2 C2 1_555 1_555
C1 H1 1_555 1_555
H2 C1 1_555 1_555
H3 C1 1_555 1_555
C2 N1 1_555 1_555
H4 C2 1_555 1_555
C3 N1 1_555 1_555
H5 C3 1_555 1_555
C4 N2 1_555 1_555
H6 C4 1_555 1_555
C5 N2 1_555 1_555
H7 C5 1_555 1_555
H8 C5 1_555 1_555
H9 C5 1_555 1_555
Al1A O9 1_555 1_555
Al2A F1A 1_555 1_555
Al3_2 O8 1_555 1_555
Al3A O11 1_555 1_555
Al3A_2 O12 1_555 1_555
F1A Al2 1_555 1_555
O2A Al2 1_555 1_555
O3_2 Al2 1_555 1_555
O8_2 Al3 1_555 1_555
O9A Al1 1_555 1_555
O11A Al3 1_555 1_555
O12A Al3 1_555 1_555
Al1 O7 1_555 1_555
Al1 O10 1_555 1_555
Al2 O4 1_555 1_555
C3 C4 1_555 1_555

#END
