
#######################################################################
#
#                 Cambridge Crystallographic Data Centre
#                                CCDC 
#
#######################################################################
#
# If this CIF has been generated from an entry in the Cambridge 
# Structural Database, then it will include bibliographic, chemical, 
# crystal, experimental, refinement or atomic coordinate data resulting 
# from the CCDC's data processing and validation procedures.
#
#######################################################################

data_DARVAW
_chemical_formula_moiety         '(C8 H16 Co2 N8 O12)n'
_symmetry_cell_setting           monoclinic
_symmetry_space_group_name_H-M   'P 21/c'
_symmetry_Int_Tables_number      14
_space_group_name_Hall           '-P 2ybc'
loop_
_symmetry_equiv_pos_site_id
_symmetry_equiv_pos_as_xyz
1 x,y,z
2 -x,1/2+y,1/2-z
3 -x,-y,-z
4 x,1/2-y,1/2+z
_cell_length_a                   9.1332(9)
_cell_length_b                   13.8397(12)
_cell_length_c                   9.0847(8)
_cell_angle_alpha                90
_cell_angle_beta                 117.392(5)
_cell_angle_gamma                90
_cell_volume                     1019.56
loop_
_atom_site_label
_atom_site_type_symbol
_atom_site_fract_x
_atom_site_fract_y
_atom_site_fract_z
Co1 Co 0.27759(15) 0.59584(9) 0.22192(13)
O1 O 0.0208(7) 0.6087(4) 0.1064(6)
O2 O -0.2063(7) 0.5330(4) -0.0763(6)
C1 C -0.0545(10) 0.5399(5) 0.0090(9)
O3 O 0.5261(7) 0.5555(4) 0.3408(6)
O4 O 0.7120(7) 0.4844(4) 0.5727(6)
C2 C 0.5707(10) 0.5114(6) 0.4762(9)
N1 N 0.3131(9) 0.7236(5) 0.3579(8)
N2 N 0.4320(10) 0.7894(5) 0.3835(9)
H1 H 0.4958 0.7895 0.3346
N3 N 0.3173(8) 0.8321(5) 0.5394(8)
C3 C 0.2480(10) 0.7522(6) 0.4535(9)
H2 H 0.1603 0.7192 0.4605
C4 C 0.4371(11) 0.8542(5) 0.4950(9)
N4 N 0.542(2) 0.9266(11) 0.540(2)
H3 H 0.6103 0.9329 0.4968
H4 H 0.5443 0.9688 0.6136
O1B O -0.0208(7) 0.3913(4) -0.1064(6)
O2B O 0.2063(7) 0.4670(4) 0.0763(6)
C1B C 0.0545(10) 0.4601(5) -0.0090(9)
O3B O 0.4739(7) 0.4445(4) 0.6592(6)
O4B O 0.2880(7) 0.5156(4) 0.4273(6)
C2B C 0.4293(10) 0.4886(6) 0.5238(9)
Co1B Co -0.27759(15) 0.40416(9) -0.22192(13)
N1B N -0.3131(9) 0.2764(5) -0.3579(8)
N2B N -0.4320(10) 0.2106(5) -0.3835(9)
H1B H -0.4958 0.2105 -0.3346
N3B N -0.3173(8) 0.1679(5) -0.5394(8)
C3B C -0.2480(10) 0.2478(6) -0.4535(9)
H2B H -0.1603 0.2808 -0.4605
C4B C -0.4371(11) 0.1458(5) -0.4950(9)
N4B N -0.542(2) 0.0734(11) -0.540(2)
H3B H -0.6103 0.0671 -0.4968
H4B H -0.5443 0.0312 -0.6136
Co1A Co -0.27759(15) 0.09584(9) -0.72192(13)
Co1B_2 Co 0.72241(15) 0.40416(9) 0.77808(13)
Co1C Co 0.27759(15) 0.90416(9) 0.72192(13)
O3B_2 O -0.5261(7) 0.4445(4) -0.3408(6)
O4_2 O -0.2880(7) 0.4844(4) -0.4273(6)
N3A N -0.3173(8) 0.3321(5) -0.0394(8)
N3C N 0.3173(8) 0.6679(5) 0.0394(8)
O5 O 0.6305(17) 0.8046(9) 0.2433(16)
O6 O 0.8504(19) 0.6837(13) 0.292(2)
O7 O 0.920(2) 0.6503(17) 0.628(2)
O8 O 0.825(2) 1.0195(16) 0.809(3)
loop_
_geom_bond_atom_site_label_1
_geom_bond_atom_site_label_2
_geom_bond_site_symmetry_1
_geom_bond_site_symmetry_2
Co1 O1 1_555 1_555
O1 C1 1_555 1_555
O2 C1 1_555 1_555
C1 C1B 1_555 1_555
O3 Co1 1_555 1_555
O4 C2 1_555 1_555
C2 O3 1_555 1_555
N1 Co1 1_555 1_555
N2 N1 1_555 1_555
H1 N2 1_555 1_555
N3 C3 1_555 1_555
C3 N1 1_555 1_555
H2 C3 1_555 1_555
C4 N2 1_555 1_555
N4 C4 1_555 1_555
H3 N4 1_555 1_555
H4 N4 1_555 1_555
O1B C1B 1_555 1_555
O2B Co1 1_555 1_555
C1B O2B 1_555 1_555
O3B C2B 1_555 1_555
O4B Co1 1_555 1_555
C2B C2 1_555 1_555
Co1B O2 1_555 1_555
N1B Co1B 1_555 1_555
N2B N1B 1_555 1_555
H1B N2B 1_555 1_555
N3B C3B 1_555 1_555
C3B N1B 1_555 1_555
H2B C3B 1_555 1_555
C4B N2B 1_555 1_555
N4B C4B 1_555 1_555
H3B N4B 1_555 1_555
H4B N4B 1_555 1_555
Co1A N3B 1_555 1_555
Co1B_2 O4 1_555 1_555
Co1C N3 1_555 1_555
O3B_2 Co1B 1_555 1_555
O4_2 Co1B 1_555 1_555
N3A Co1B 1_555 1_555
N3C Co1 1_555 1_555
N3 C4 1_555 1_555
O1B Co1B 1_555 1_555
O3B Co1B_2 1_555 1_555
O4B C2B 1_555 1_555
N3B C4B 1_555 1_555

#END
