
#######################################################################
#
#                 Cambridge Crystallographic Data Centre
#                                CCDC 
#
#######################################################################
#
# If this CIF has been generated from an entry in the Cambridge 
# Structural Database, then it will include bibliographic, chemical, 
# crystal, experimental, refinement or atomic coordinate data resulting 
# from the CCDC's data processing and validation procedures.
#
#######################################################################

data_UKAPUS
_chemical_formula_moiety         '(C48 H38 N2 Nd2 O16 P2)n'
_symmetry_cell_setting           triclinic
_symmetry_space_group_name_H-M   'P -1'
_symmetry_Int_Tables_number      2
_space_group_name_Hall           '-P 1'
loop_
_symmetry_equiv_pos_site_id
_symmetry_equiv_pos_as_xyz
1 x,y,z
2 -x,-y,-z
_cell_length_a                   10.7298(3)
_cell_length_b                   11.9079(4)
_cell_length_c                   14.7678(4)
_cell_angle_alpha                73.0570(10)
_cell_angle_beta                 71.5280(10)
_cell_angle_gamma                66.4560(10)
_cell_volume                     1610.92
loop_
_atom_site_label
_atom_site_type_symbol
_atom_site_fract_x
_atom_site_fract_y
_atom_site_fract_z
Nd1 Nd -0.014953(18) 0.549450(15) 0.628288(13)
P1 P 0.14072(10) 0.71810(9) 0.72648(7)
O1 O -0.0489(3) 0.5813(3) 1.2146(2)
O2 O 0.7613(3) 0.5661(3) 0.4053(2)
O3 O -0.0724(3) 1.3201(3) 0.5193(2)
O4 O 0.1734(3) 0.4596(3) 1.1997(2)
O5 O -0.0425(3) 1.3485(3) 0.6538(2)
C1 C 0.1284(4) 0.6657(4) 0.8544(3)
C2 C 0.4839(4) 0.6415(4) 0.5086(3)
H1 H 0.5023 0.6374 0.4422
C3 C 0.0760(4) 0.8865(3) 0.7013(3)
C4 C 0.3210(4) 0.6750(3) 0.6621(3)
C5 C -0.0151(4) 0.9449(4) 0.6396(3)
H2 H -0.0498 0.8972 0.6186
C6 C 0.3481(4) 0.6676(4) 0.5647(3)
H3 H 0.2737 0.6804 0.5368
C7 C 0.5940(4) 0.6210(3) 0.5500(3)
C8 C 0.0276(5) 0.7430(5) 0.9173(3)
H4 H -0.0278 0.8247 0.8925
C9 C 0.5664(4) 0.6289(4) 0.6472(3)
H5 H 0.6409 0.6147 0.6754
C10 C 0.4297(5) 0.6575(5) 0.7032(3)
H6 H 0.4106 0.6651 0.7689
C11 C 0.1226(5) 0.9563(4) 0.7358(3)
H7 H 0.1848 0.9159 0.7782
C12 C 0.0927(4) 0.5798(4) 1.0543(3)
C13 C 0.0702(4) 0.5372(4) 1.1626(3)
C14 C 0.1926(4) 0.5032(4) 0.9915(3)
H8 H 0.2497 0.4225 1.0166
C15 C 0.0095(5) 0.6981(4) 1.0174(3)
H9 H -0.0606 0.7491 1.0608
O6 O 0.8406(3) 0.5771(3) 0.5225(2)
C16 C -0.0086(4) 1.1437(4) 0.6415(3)
C17 C -0.0554(4) 1.0731(4) 0.6086(3)
H10 H -0.1154 1.1130 0.5647
C18 C 0.0771(5) 1.0867(4) 0.7073(3)
H11 H 0.1046 1.1356 0.7328
C19 C -0.0449(4) 1.2824(3) 0.6022(3)
C20 C 0.7394(4) 0.5873(4) 0.4890(3)
O7 O 0.0609(3) 0.6703(3) 0.6889(2)
C21 C 0.2088(4) 0.5452(4) 0.8910(3)
H12 H 0.2744 0.4918 0.8477
O8 O -0.2020(3) 0.7583(3) 0.6303(3)
C22 C -0.2983(8) 0.8286(7) 0.6691(7)
H13 H -0.3292 0.8044 0.7372
N1 N -0.3732(7) 0.9442(6) 0.6262(6)
C23 C -0.3297(10) 0.9883(11) 0.5226(8)
H14 H -0.2682 1.0358 0.5117
H15 H -0.4122 1.0421 0.4965
H16 H -0.2795 0.9168 0.4897
C24 C -0.4980(15) 1.0238(14) 0.6807(13)
H17 H -0.5771 1.0429 0.6524
H18 H -0.4845 1.1015 0.6781
H19 H -0.5171 0.9810 0.7485
Nd1A Nd 0.014953(18) 0.450550(15) 1.371712(13)
Nd1_2 Nd -1.014953(18) 0.549450(15) 1.628288(13)
Nd1_3 Nd -0.014953(18) -0.450550(15) 1.628288(13)
Nd1_4 Nd -0.014953(18) 1.549450(15) 0.628288(13)
Nd1_5 Nd 0.985047(18) 0.549450(15) 0.628288(13)
Nd1A_2 Nd -0.985047(18) 0.450550(15) 1.371712(13)
Nd1A_3 Nd 0.014953(18) -0.549450(15) 1.371712(13)
Nd1A_4 Nd 0.014953(18) 1.450550(15) 0.371712(13)
Nd1A_5 Nd 1.014953(18) 0.450550(15) 0.371712(13)
P1A P -0.14072(10) 0.28190(9) 1.27352(7)
O1A O 0.0489(3) 0.4187(3) 0.7854(2)
O2A O -0.7613(3) 0.4339(3) 1.5947(2)
O2_2 O -0.2387(3) 0.5661(3) 1.4053(2)
O2A_2 O 0.2387(3) 0.4339(3) 0.5947(2)
O3A O 0.0724(3) -0.3201(3) 1.4807(2)
O3_2 O -0.0724(3) 0.3201(3) 1.5193(2)
O3A_2 O 0.0724(3) 0.6799(3) 0.4807(2)
O4A O -0.1734(3) 0.5404(3) 0.8003(2)
O5A O 0.0425(3) -0.3485(3) 1.3462(2)
O5_2 O -0.0425(3) 0.3485(3) 0.6538(2)
O5A_2 O 0.0425(3) 0.6515(3) 1.3462(2)
C1A C -0.1284(4) 0.3343(4) 1.1456(3)
C2A C -0.4839(4) 0.3585(4) 1.4914(3)
H1A H -0.5023 0.3626 1.5578
C3A C -0.0760(4) 0.1135(3) 1.2987(3)
C4A C -0.3210(4) 0.3250(3) 1.3379(3)
C5A C 0.0151(4) 0.0551(4) 1.3604(3)
H2A H 0.0498 0.1028 1.3814
C6A C -0.3481(4) 0.3324(4) 1.4353(3)
H3A H -0.2737 0.3196 1.4632
C7A C -0.5940(4) 0.3790(3) 1.4500(3)
C8A C -0.0276(5) 0.2570(5) 1.0827(3)
H4A H 0.0278 0.1753 1.1075
C9A C -0.5664(4) 0.3711(4) 1.3528(3)
H5A H -0.6409 0.3853 1.3246
C10A C -0.4297(5) 0.3425(5) 1.2968(3)
H6A H -0.4106 0.3349 1.2311
C11A C -0.1226(5) 0.0437(4) 1.2642(3)
H7A H -0.1848 0.0841 1.2218
C12A C -0.0927(4) 0.4202(4) 0.9457(3)
C13A C -0.0702(4) 0.4628(4) 0.8374(3)
C14A C -0.1926(4) 0.4968(4) 1.0085(3)
H8A H -0.2497 0.5775 0.9834
C15A C -0.0095(5) 0.3019(4) 0.9826(3)
H9A H 0.0606 0.2509 0.9392
O6A O -0.8406(3) 0.4229(3) 1.4775(2)
O6_2 O -0.1594(3) 0.5771(3) 0.5225(2)
O6_3 O -0.1594(3) 0.5771(3) 1.5225(2)
O6A_2 O 0.1594(3) 0.4229(3) 0.4775(2)
O6A_3 O 0.1594(3) 0.4229(3) 1.4775(2)
C16A C 0.0086(4) -0.1437(4) 1.3585(3)
C17A C 0.0554(4) -0.0731(4) 1.3914(3)
H10A H 0.1154 -0.1130 1.4353
C18A C -0.0771(5) -0.0867(4) 1.2927(3)
H11A H -0.1046 -0.1356 1.2672
C19A C 0.0449(4) -0.2824(3) 1.3978(3)
C20A C -0.7394(4) 0.4127(4) 1.5110(3)
O7A O -0.0609(3) 0.3297(3) 1.3111(2)
C21A C -0.2088(4) 0.4548(4) 1.1090(3)
H12A H -0.2744 0.5082 1.1523
O8A O 0.2020(3) 0.2417(3) 1.3697(3)
C22A C 0.2983(8) 0.1714(7) 1.3309(7)
H13A H 0.3292 0.1956 1.2628
N1A N 0.3732(7) 0.0558(6) 1.3738(6)
C23A C 0.3297(10) 0.0117(11) 1.4774(8)
H14A H 0.2682 -0.0358 1.4883
H15A H 0.4122 -0.0421 1.5035
H16A H 0.2795 0.0832 1.5103
C24A C 0.4980(15) -0.0238(14) 1.3193(13)
H17A H 0.5771 -0.0429 1.3476
H18A H 0.4845 -0.1015 1.3219
H19A H 0.5171 0.0190 1.2515
loop_
_geom_bond_atom_site_label_1
_geom_bond_atom_site_label_2
_geom_bond_site_symmetry_1
_geom_bond_site_symmetry_2
Nd1 O7 1_555 1_555
P1 C1 1_555 1_555
O1 C13 1_555 1_555
O2 C20 1_555 1_555
O3 C19 1_555 1_555
O4 C13 1_555 1_555
O5 C19 1_555 1_555
C1 C8 1_555 1_555
C2 H1 1_555 1_555
C3 P1 1_555 1_555
C4 P1 1_555 1_555
C5 C3 1_555 1_555
H2 C5 1_555 1_555
C6 C2 1_555 1_555
H3 C6 1_555 1_555
C7 C2 1_555 1_555
C8 H4 1_555 1_555
C9 C7 1_555 1_555
H5 C9 1_555 1_555
C10 C4 1_555 1_555
H6 C10 1_555 1_555
C11 C3 1_555 1_555
H7 C11 1_555 1_555
C12 C13 1_555 1_555
C14 C12 1_555 1_555
H8 C14 1_555 1_555
C15 C8 1_555 1_555
H9 C15 1_555 1_555
O6 C20 1_555 1_555
C16 C17 1_555 1_555
C17 C5 1_555 1_555
H10 C17 1_555 1_555
C18 C11 1_555 1_555
H11 C18 1_555 1_555
C19 C16 1_555 1_555
C20 C7 1_555 1_555
O7 P1 1_555 1_555
C21 C1 1_555 1_555
H12 C21 1_555 1_555
O8 Nd1 1_555 1_555
C22 O8 1_555 1_555
H13 C22 1_555 1_555
N1 C22 1_555 1_555
C23 N1 1_555 1_555
H14 C23 1_555 1_555
H15 C23 1_555 1_555
H16 C23 1_555 1_555
C24 N1 1_555 1_555
H17 C24 1_555 1_555
H18 C24 1_555 1_555
H19 C24 1_555 1_555
Nd1A O1 1_555 1_555
Nd1_2 O2A 1_555 1_555
Nd1_3 O3A 1_555 1_555
Nd1_4 O5 1_555 1_555
Nd1_5 O6 1_555 1_555
Nd1A_2 O6A 1_555 1_555
Nd1A_3 O5A 1_555 1_555
Nd1A_4 O3 1_555 1_555
Nd1A_5 O2 1_555 1_555
P1A C1A 1_555 1_555
O1A Nd1 1_555 1_555
O2A C20A 1_555 1_555
O2_2 Nd1A 1_555 1_555
O2A_2 Nd1 1_555 1_555
O3A C19A 1_555 1_555
O3_2 Nd1A 1_555 1_555
O3A_2 Nd1 1_555 1_555
O4A Nd1 1_555 1_555
O5A C19A 1_555 1_555
O5_2 Nd1 1_555 1_555
O5A_2 Nd1A 1_555 1_555
C1A C8A 1_555 1_555
C2A H1A 1_555 1_555
C3A P1A 1_555 1_555
C4A P1A 1_555 1_555
C5A C3A 1_555 1_555
H2A C5A 1_555 1_555
C6A C2A 1_555 1_555
H3A C6A 1_555 1_555
C7A C2A 1_555 1_555
C8A H4A 1_555 1_555
C9A C7A 1_555 1_555
H5A C9A 1_555 1_555
C10A C4A 1_555 1_555
H6A C10A 1_555 1_555
C11A C3A 1_555 1_555
H7A C11A 1_555 1_555
C12A C13A 1_555 1_555
C13A O1A 1_555 1_555
C14A C12A 1_555 1_555
H8A C14A 1_555 1_555
C15A C8A 1_555 1_555
H9A C15A 1_555 1_555
O6A Nd1_2 1_555 1_555
O6_2 Nd1 1_555 1_555
O6_3 Nd1A 1_555 1_555
O6A_2 Nd1 1_555 1_555
O6A_3 Nd1A 1_555 1_555
C16A C17A 1_555 1_555
C17A C5A 1_555 1_555
H10A C17A 1_555 1_555
C18A C11A 1_555 1_555
H11A C18A 1_555 1_555
C19A C16A 1_555 1_555
C20A C7A 1_555 1_555
O7A Nd1A 1_555 1_555
C21A C1A 1_555 1_555
H12A C21A 1_555 1_555
O8A Nd1A 1_555 1_555
C22A O8A 1_555 1_555
H13A C22A 1_555 1_555
N1A C22A 1_555 1_555
C23A N1A 1_555 1_555
H14A C23A 1_555 1_555
H15A C23A 1_555 1_555
H16A C23A 1_555 1_555
C24A N1A 1_555 1_555
H17A C24A 1_555 1_555
H18A C24A 1_555 1_555
H19A C24A 1_555 1_555
O4 Nd1A 1_555 1_555
C4 C6 1_555 1_555
C9 C10 1_555 1_555
C12 C15 1_555 1_555
C14 C21 1_555 1_555
O6 Nd1A_5 1_555 1_555
C16 C18 1_555 1_555
P1A O7A 1_555 1_555
O4A C13A 1_555 1_555
C4A C6A 1_555 1_555
C9A C10A 1_555 1_555
C12A C15A 1_555 1_555
C14A C21A 1_555 1_555
O6A C20A 1_555 1_555
C16A C18A 1_555 1_555

#END
