
#######################################################################
#
#                 Cambridge Crystallographic Data Centre
#                                CCDC 
#
#######################################################################
#
# If this CIF has been generated from an entry in the Cambridge 
# Structural Database, then it will include bibliographic, chemical, 
# crystal, experimental, refinement or atomic coordinate data resulting 
# from the CCDC's data processing and validation procedures.
#
#######################################################################

data_FEQSIF
_chemical_formula_moiety         '(C37 H40 Co4 O30)n'
_symmetry_cell_setting           tetragonal
_symmetry_space_group_name_H-M   'P -4 21 m'
_symmetry_Int_Tables_number      113
_space_group_name_Hall           'P -4 2ab'
loop_
_symmetry_equiv_pos_site_id
_symmetry_equiv_pos_as_xyz
1 x,y,z
2 y,-x,-z
3 -x,-y,z
4 -y,x,-z
5 1/2+x,1/2-y,-z
6 1/2-x,1/2+y,-z
7 1/2-y,1/2-x,z
8 1/2+y,1/2+x,z
_cell_length_a                   20.078(4)
_cell_length_b                   20.078(4)
_cell_length_c                   11.252(2)
_cell_angle_alpha                90
_cell_angle_beta                 90
_cell_angle_gamma                90
_cell_volume                     4535.97
loop_
_atom_site_label
_atom_site_type_symbol
_atom_site_fract_x
_atom_site_fract_y
_atom_site_fract_z
Co1 Co 0.74464(3) 0.24464(3) 0.46357(7)
Co2 Co 0.62774(4) 0.12774(4) 0.58011(10)
O1 O 0.75989(19) 0.15360(16) 0.3852(3)
O2 O 0.6914(2) 0.07946(18) 0.4696(4)
O3 O 0.76332(18) -0.16167(15) 0.4599(3)
O4 O 0.8298(4) -0.1899(2) 0.3093(6)
O5 O 0.9143(2) 0.02202(18) 0.1399(4)
O6 O 0.69711(16) 0.19711(16) 0.6152(4)
H1 H 0.6807 0.2291 0.6552
O7 O 0.78954(18) 0.28954(18) 0.3172(4)
H2 H 0.7735 0.3212 0.2758
O8 O 0.5563(2) 0.0563(2) 0.5453(7)
H3 H 0.5633 0.0156 0.5283
O9 O 0.6649(4) 0.0663(4) 0.7255(6)
H4 H 0.7052 0.0535 0.7213
H5 H 0.6425 0.0304 0.7259
C1 C 0.7408(3) 0.0963(2) 0.4058(5)
C2 C 0.7801(3) 0.0405(3) 0.3531(5)
C3 C 0.8286(3) 0.0544(2) 0.2725(5)
H6 H 0.8370 0.0996 0.2521
C4 C 0.8676(3) 0.0026(2) 0.2170(4)
C5 C 0.8546(3) -0.0597(3) 0.2492(5)
H7 H 0.8776 -0.0950 0.2110
C6 C 0.8080(3) -0.0748(3) 0.3377(6)
C7 C 0.7696(3) -0.0258(2) 0.3864(5)
H8 H 0.7360 -0.0366 0.4426
C8 C 0.7989(4) -0.1482(3) 0.3722(6)
C9 C 0.9456(3) -0.0304(2) 0.0791(5)
H9 H 0.9128 -0.0547 0.0299
H10 H 0.9656 -0.0620 0.1364
C10 C 1.0000 0.0000 0.0000
Co1C Co 0.75536(3) -0.25536(3) -0.46357(7)
Co1C_2 Co 0.75536(3) -0.25536(3) 0.53643(7)
Co1B Co 1.25536(3) -0.24464(3) -0.53643(7)
Co1B_2 Co 1.25536(3) -0.24464(3) 0.46357(7)
Co1A Co 1.24464(3) 0.25536(3) 0.53643(7)
Co1A_2 Co 1.24464(3) 0.25536(3) -0.46357(7)
Co1_2 Co 0.74464(3) 0.24464(3) -0.53643(7)
Co2C Co 0.87226(4) -0.37226(4) -0.58011(10)
Co2B Co 1.37226(4) -0.12774(4) 0.58011(10)
Co2A Co 1.12774(4) 0.37226(4) -0.58011(10)
O1C O 0.84640(16) -0.24011(19) -0.3852(3)
O1B O 1.24011(19) -0.15360(16) 0.3852(3)
O1A O 1.15360(16) 0.24011(19) -0.3852(3)
O1G O 0.65360(16) 0.25989(19) 0.3852(3)
O1E O 0.74011(19) -0.34640(16) -0.3852(3)
O2C O 0.92054(18) -0.3086(2) -0.4696(4)
O2B O 1.3086(2) -0.07946(18) 0.4696(4)
O2A O 1.07946(18) 0.3086(2) -0.4696(4)
O2G O 0.57946(18) 0.1914(2) 0.4696(4)
O2E O 0.8086(2) -0.42054(18) -0.4696(4)
O3C O 1.16167(15) -0.23668(18) -0.4599(3)
O3B O 1.23668(18) 0.16167(15) 0.4599(3)
O3A O 0.83833(15) 0.23668(18) -0.4599(3)
O3A_2 O 0.83833(15) 0.23668(18) 0.5401(3)
O3E O 0.73668(18) 0.33833(15) 0.5401(3)
O3_2 O 0.76332(18) -0.16167(15) -0.5401(3)
O3F O 0.66167(15) -0.26332(18) -0.5401(3)
O4C O 1.1899(2) -0.1702(4) -0.3093(6)
O4B O 1.1702(4) 0.1899(2) 0.3093(6)
O4A O 0.8101(2) 0.1702(4) -0.3093(6)
O5C O 0.97798(18) -0.0857(2) -0.1399(4)
O5B O 1.0857(2) -0.02202(18) 0.1399(4)
O5A O 1.02202(18) 0.0857(2) -0.1399(4)
O6C O 0.80289(16) -0.30289(16) -0.6152(4)
H1G H 0.7291 0.1807 0.6552
H1C H 0.7709 -0.3193 -0.6552
H1E H 0.8193 -0.2709 -0.6552
O7C O 0.71046(18) -0.21046(18) -0.3172(4)
H2G H 0.8212 0.2735 0.2758
H2C H 0.6788 -0.2265 -0.2758
H2E H 0.7265 -0.1788 -0.2758
O8C O 0.9437(2) -0.4437(2) -0.5453(7)
H3G H 0.5156 0.0633 0.5283
H3C H 0.9844 -0.4367 -0.5283
H3E H 0.9367 -0.4844 -0.5283
O9G O 0.5663(4) 0.1649(4) 0.7255(6)
O9C O 0.9337(4) -0.3351(4) -0.7255(6)
O9E O 0.8351(4) -0.4337(4) -0.7255(6)
H4G H 0.5535 0.2052 0.7213
H4C H 0.9465 -0.2948 -0.7213
H4E H 0.7948 -0.4465 -0.7213
H5G H 0.5304 0.1425 0.7259
H5C H 0.9696 -0.3575 -0.7259
H5E H 0.8575 -0.4696 -0.7259
C1C C 0.9037(2) -0.2592(3) -0.4058(5)
C1B C 1.2592(3) -0.0963(2) 0.4058(5)
C1A C 1.0963(2) 0.2592(3) -0.4058(5)
C2C C 0.9595(3) -0.2199(3) -0.3531(5)
C2B C 1.2199(3) -0.0405(3) 0.3531(5)
C2A C 1.0405(3) 0.2199(3) -0.3531(5)
C3C C 0.9456(2) -0.1714(3) -0.2725(5)
C3B C 1.1714(3) -0.0544(2) 0.2725(5)
C3A C 1.0544(2) 0.1714(3) -0.2725(5)
H6C H 0.9004 -0.1630 -0.2521
H6B H 1.1630 -0.0996 0.2521
H6A H 1.0996 0.1630 -0.2521
C4C C 0.9974(2) -0.1324(3) -0.2170(4)
C4B C 1.1324(3) -0.0026(2) 0.2170(4)
C4A C 1.0026(2) 0.1324(3) -0.2170(4)
C5C C 1.0597(3) -0.1454(3) -0.2492(5)
C5B C 1.1454(3) 0.0597(3) 0.2492(5)
C5A C 0.9403(3) 0.1454(3) -0.2492(5)
H7C H 1.0950 -0.1224 -0.2110
H7B H 1.1224 0.0950 0.2110
H7A H 0.9050 0.1224 -0.2110
C6C C 1.0748(3) -0.1920(3) -0.3377(6)
C6B C 1.1920(3) 0.0748(3) 0.3377(6)
C6A C 0.9252(3) 0.1920(3) -0.3377(6)
C7C C 1.0258(2) -0.2304(3) -0.3864(5)
C7B C 1.2304(3) 0.0258(2) 0.3864(5)
C7A C 0.9742(2) 0.2304(3) -0.3864(5)
H8C H 1.0366 -0.2640 -0.4426
H8B H 1.2640 0.0366 0.4426
H8A H 0.9634 0.2640 -0.4426
C8C C 1.1482(3) -0.2011(4) -0.3722(6)
C8B C 1.2011(4) 0.1482(3) 0.3722(6)
C8A C 0.8518(3) 0.2011(4) -0.3722(6)
C9C C 1.0304(2) -0.0544(3) -0.0791(5)
C9B C 1.0544(3) 0.0304(2) 0.0791(5)
C9A C 0.9696(2) 0.0544(3) -0.0791(5)
H9C H 1.0547 -0.0872 -0.0299
H9B H 1.0872 0.0547 0.0299
H9A H 0.9453 0.0872 -0.0299
H10C H 1.0620 -0.0344 -0.1364
H10B H 1.0344 0.0620 0.1364
H10A H 0.9380 0.0344 -0.1364
loop_
_geom_bond_atom_site_label_1
_geom_bond_atom_site_label_2
_geom_bond_site_symmetry_1
_geom_bond_site_symmetry_2
Co1 O1 1_555 1_555
Co2 O2 1_555 1_555
O1 C1 1_555 1_555
O2 C1 1_555 1_555
O3 C8 1_555 1_555
O4 C8 1_555 1_555
O5 C4 1_555 1_555
O6 Co1 1_555 1_555
H1 O6 1_555 1_555
O7 Co1 1_555 1_555
H2 O7 1_555 1_555
O8 Co2 1_555 1_555
H3 O8 1_555 1_555
O9 Co2 1_555 1_555
H4 O9 1_555 1_555
H5 O9 1_555 1_555
C1 C2 1_555 1_555
C2 C3 1_555 1_555
C3 H6 1_555 1_555
C4 C3 1_555 1_555
C5 C4 1_555 1_555
H7 C5 1_555 1_555
C6 C5 1_555 1_555
C7 C2 1_555 1_555
H8 C7 1_555 1_555
C8 C6 1_555 1_555
C9 O5 1_555 1_555
H9 C9 1_555 1_555
H10 C9 1_555 1_555
C10 C9 1_555 1_555
Co1C O1C 1_555 1_555
Co1C_2 O3 1_555 1_555
Co1B O3C 1_555 1_555
Co1B_2 O1B 1_555 1_555
Co1A O3B 1_555 1_555
Co1A_2 O1A 1_555 1_555
Co1_2 O3A 1_555 1_555
Co2C O2C 1_555 1_555
Co2B O2B 1_555 1_555
Co2A O2A 1_555 1_555
O1C C1C 1_555 1_555
O1B C1B 1_555 1_555
O1A C1A 1_555 1_555
O1G Co1 1_555 1_555
O1E Co1C 1_555 1_555
O2C C1C 1_555 1_555
O2B C1B 1_555 1_555
O2A C1A 1_555 1_555
O2G Co2 1_555 1_555
O2E Co2C 1_555 1_555
O3C C8C 1_555 1_555
O3B C8B 1_555 1_555
O3A C8A 1_555 1_555
O3A_2 Co1 1_555 1_555
O3E Co1 1_555 1_555
O3_2 Co1C 1_555 1_555
O3F Co1C 1_555 1_555
O4C C8C 1_555 1_555
O4B C8B 1_555 1_555
O4A C8A 1_555 1_555
O5C C4C 1_555 1_555
O5B C4B 1_555 1_555
O5A C4A 1_555 1_555
O6C Co1C 1_555 1_555
H1G O6 1_555 1_555
H1C O6C 1_555 1_555
H1E O6C 1_555 1_555
O7C Co1C 1_555 1_555
H2G O7 1_555 1_555
H2C O7C 1_555 1_555
H2E O7C 1_555 1_555
O8C Co2C 1_555 1_555
H3G O8 1_555 1_555
H3C O8C 1_555 1_555
H3E O8C 1_555 1_555
O9G Co2 1_555 1_555
O9C Co2C 1_555 1_555
O9E Co2C 1_555 1_555
H4G O9G 1_555 1_555
H4C O9C 1_555 1_555
H4E O9E 1_555 1_555
H5G O9G 1_555 1_555
H5C O9C 1_555 1_555
H5E O9E 1_555 1_555
C1C C2C 1_555 1_555
C1B C2B 1_555 1_555
C1A C2A 1_555 1_555
C2C C3C 1_555 1_555
C2B C3B 1_555 1_555
C2A C3A 1_555 1_555
C3C H6C 1_555 1_555
C3B H6B 1_555 1_555
C3A H6A 1_555 1_555
C4C C3C 1_555 1_555
C4B C3B 1_555 1_555
C4A C3A 1_555 1_555
C5C C4C 1_555 1_555
C5B C4B 1_555 1_555
C5A C4A 1_555 1_555
H7C C5C 1_555 1_555
H7B C5B 1_555 1_555
H7A C5A 1_555 1_555
C6C C5C 1_555 1_555
C6B C5B 1_555 1_555
C6A C5A 1_555 1_555
C7C C2C 1_555 1_555
C7B C2B 1_555 1_555
C7A C2A 1_555 1_555
H8C C7C 1_555 1_555
H8B C7B 1_555 1_555
H8A C7A 1_555 1_555
C8C C6C 1_555 1_555
C8B C6B 1_555 1_555
C8A C6A 1_555 1_555
C9C C10 1_555 1_555
C9B C10 1_555 1_555
C9A C10 1_555 1_555
H9C C9C 1_555 1_555
H9B C9B 1_555 1_555
H9A C9A 1_555 1_555
H10C C9C 1_555 1_555
H10B C9B 1_555 1_555
H10A C9A 1_555 1_555
Co2 O6 1_555 1_555
C6 C7 1_555 1_555
Co2C O6C 1_555 1_555
O5C C9C 1_555 1_555
O5B C9B 1_555 1_555
O5A C9A 1_555 1_555
C6C C7C 1_555 1_555
C6B C7B 1_555 1_555
C6A C7A 1_555 1_555

#END
