
#######################################################################
#
#                 Cambridge Crystallographic Data Centre
#                                CCDC 
#
#######################################################################
#
# If this CIF has been generated from an entry in the Cambridge 
# Structural Database, then it will include bibliographic, chemical, 
# crystal, experimental, refinement or atomic coordinate data resulting 
# from the CCDC's data processing and validation procedures.
#
#######################################################################

data_WITKIV
_chemical_formula_moiety         'C168 H96 N12 O102 P12 Zn29'
_symmetry_cell_setting           rhombohedral
_symmetry_space_group_name_H-M   'R -3 c'
_symmetry_Int_Tables_number      167
_space_group_name_Hall           '-R 3 2"c'
loop_
_symmetry_equiv_pos_site_id
_symmetry_equiv_pos_as_xyz
1 x,y,z
2 -y,x-y,z
3 -x+y,-x,z
4 y,x,1/2-z
5 -x,-x+y,1/2-z
6 x-y,-y,1/2-z
7 2/3+x,1/3+y,1/3+z
8 2/3-y,1/3+x-y,1/3+z
9 2/3-x+y,1/3-x,1/3+z
10 2/3+y,1/3+x,5/6-z
11 2/3-x,1/3-x+y,5/6-z
12 2/3+x-y,1/3-y,5/6-z
13 1/3+x,2/3+y,2/3+z
14 1/3-y,2/3+x-y,2/3+z
15 1/3-x+y,2/3-x,2/3+z
16 1/3+y,2/3+x,1/6-z
17 1/3-x,2/3-x+y,1/6-z
18 1/3+x-y,2/3-y,1/6-z
19 -x,-y,-z
20 y,-x+y,-z
21 x-y,x,-z
22 -y,-x,1/2+z
23 x,x-y,1/2+z
24 -x+y,y,1/2+z
25 1/3-x,2/3-y,2/3-z
26 1/3+y,2/3-x+y,2/3-z
27 1/3+x-y,2/3+x,2/3-z
28 1/3-y,2/3-x,1/6+z
29 1/3+x,2/3+x-y,1/6+z
30 1/3-x+y,2/3+y,1/6+z
31 2/3-x,1/3-y,1/3-z
32 2/3+y,1/3-x+y,1/3-z
33 2/3+x-y,1/3+x,1/3-z
34 2/3-y,1/3-x,5/6+z
35 2/3+x,1/3+x-y,5/6+z
36 2/3-x+y,1/3+y,5/6+z
_cell_length_a                   34.0012(30)
_cell_length_b                   34.0012(30)
_cell_length_c                   154.0023(50)
_cell_angle_alpha                90
_cell_angle_beta                 90
_cell_angle_gamma                120
_cell_volume                     154186
loop_
_atom_site_label
_atom_site_type_symbol
_atom_site_fract_x
_atom_site_fract_y
_atom_site_fract_z
Zn1 Zn 0.38662(6) 0.66593(6) 0.509400(9)
Zn2 Zn 0.3333 0.6667 0.526341(15)
Zn3 Zn 0.47997(6) 0.66598(6) 0.502052(9)
Zn4 Zn 0.6667 0.3333 0.449853(15)
Zn5 Zn 0.51858(9) 0.53547(10) 0.405600(16)
O1 O 0.6408(3) 0.3687(3) 0.47071(5)
O2 O 0.6241(4) 0.3446(4) 0.45660(6)
O3 O 0.5364(4) 0.5438(5) 0.41706(7)
O4 O 0.4640(5) 0.4983(6) 0.42457(11)
O5 O 0.6268(3) 0.3946(3) 0.49105(5)
O6 O 0.5663(3) 0.3959(3) 0.49751(5)
O7 O 0.4978(6) 0.6621(7) 0.48466(13)
O8 O 0.5356(3) 0.6683(3) 0.49847(7)
O9 O 0.8033(3) 0.4910(3) 0.48622(5)
O10 O 0.7323(3) 0.4323(3) 0.48269(5)
O11 O 0.6616(7) 0.7505(7) 0.43214(9)
O12 O 0.6747(7) 0.7911(6) 0.44645(11)
O13 O 0.3968(4) 0.6925(3) 0.49820(6)
O14 O 0.4684(4) 0.7024(4) 0.49496(7)
O15 O 0.5605(9) 0.7235(8) 0.42728(13)
O16 O 0.6011(7) 0.7997(7) 0.43217(10)
O17 O 0.5861(5) 0.5129(5) 0.45981(6)
O18 O 0.5969(4) 0.5848(4) 0.45662(7)
O19 O 0.6834(3) 0.5990(3) 0.48377(7)
O20 O 0.6831(3) 0.6590(4) 0.47612(7)
O21 O 0.7465(4) 0.5856(4) 0.45688(6)
O22 O 0.7411(4) 0.6465(5) 0.45245(7)
C1 C 0.5941(4) 0.4769(4) 0.46044(8)
C2 C 0.5976(4) 0.4619(4) 0.46879(7)
H1 H 0.5934 0.4753 0.4737
C3 C 0.6071(4) 0.4274(4) 0.46956(7)
H2 H 0.6098 0.4171 0.4750
C4 C 0.6126(4) 0.4080(4) 0.46197(7)
C5 C 0.6061(5) 0.4204(5) 0.45389(7)
H3 H 0.6063 0.4044 0.4490
C6 C 0.5991(5) 0.4570(5) 0.45311(8)
H4 H 0.5979 0.4680 0.4476
C7 C 0.6258(4) 0.3745(4) 0.46281(7)
C8 C 0.5764(6) 0.5712(6) 0.44850(9)
C9 C 0.6024(5) 0.5808(6) 0.44130(10)
H5 H 0.6339 0.5968 0.4417
C10 C 0.5811(5) 0.5663(7) 0.43321(10)
H6 H 0.5981 0.5713 0.4282
C11 C 0.5343(6) 0.5443(6) 0.43290(8)
C12 C 0.5083(5) 0.5318(8) 0.44028(9)
H7 H 0.4769 0.5135 0.4400
C13 C 0.5303(5) 0.5475(8) 0.44829(10)
H8 H 0.5136 0.5417 0.4534
C14 C 0.5111(5) 0.5284(5) 0.42477(8)
C15 C 0.6642(5) 0.5539(4) 0.48644(7)
C16 C 0.6875(4) 0.5323(4) 0.48485(6)
H9 H 0.7156 0.5472 0.4821
C17 C 0.6687(4) 0.4869(4) 0.48742(6)
H10 H 0.6841 0.4711 0.4865
C18 C 0.6269(4) 0.4667(3) 0.49128(6)
C19 C 0.6038(4) 0.4885(4) 0.49304(7)
H11 H 0.5760 0.4741 0.4959
C20 C 0.6229(4) 0.5331(4) 0.49041(8)
H12 H 0.6076 0.5490 0.4913
C21 C 0.6069(4) 0.4192(4) 0.49325(6)
C22 C 0.6477(5) 0.6629(4) 0.48002(11)
C23 C 0.6165(6) 0.6634(6) 0.47395(12)
H13 H 0.6212 0.6629 0.4680
C24 C 0.5793(6) 0.6648(7) 0.47706(11)
H14 H 0.5582 0.6654 0.4733
C25 C 0.5743(6) 0.6654(6) 0.48583(12)
C26 C 0.6058(5) 0.6670(6) 0.49199(10)
H15 H 0.6024 0.6698 0.4979
C27 C 0.6437(6) 0.6640(6) 0.48849(11)
H16 H 0.6648 0.6628 0.4922
C28 C 0.5350(6) 0.6655(6) 0.48940(9)
C29 C 0.7519(5) 0.5575(5) 0.46288(7)
C30 C 0.7887(4) 0.5762(4) 0.46832(7)
H17 H 0.8095 0.6072 0.4681
C31 C 0.7950(4) 0.5487(4) 0.47416(7)
H18 H 0.8205 0.5606 0.4777
C32 C 0.7630(4) 0.5042(4) 0.47458(6)
C33 C 0.7258(4) 0.4838(4) 0.46902(6)
H19 H 0.7050 0.4528 0.4693
C34 C 0.7211(4) 0.5116(4) 0.46309(7)
H20 H 0.6970 0.4993 0.4592
C35 C 0.7657(4) 0.4761(4) 0.48128(7)
C36 C 0.7238(5) 0.6738(5) 0.44956(12)
C37 C 0.7160(6) 0.6990(6) 0.45581(10)
H21 H 0.7207 0.6964 0.4617
C38 C 0.7008(7) 0.7281(6) 0.45290(10)
H22 H 0.6957 0.7458 0.4568
C39 C 0.6936(6) 0.7304(6) 0.44426(11)
C40 C 0.7009(8) 0.7039(7) 0.43812(10)
H23 H 0.6943 0.7040 0.4323
C41 C 0.7187(6) 0.6775(6) 0.44133(10)
H24 H 0.7271 0.6621 0.4374
C42 C 0.6771(5) 0.7593(6) 0.44090(10)
C43 C 0.4196(5) 0.7421(4) 0.46739(7)
C44 C 0.3856(4) 0.7364(4) 0.47341(7)
H25 H 0.3613 0.7403 0.4719
C45 C 0.3912(4) 0.7244(4) 0.48184(8)
H26 H 0.3699 0.7198 0.4861
C46 C 0.4274(4) 0.7194(4) 0.48387(7)
C47 C 0.4608(4) 0.7259(5) 0.47792(8)
H27 H 0.4863 0.7241 0.4795
C48 C 0.4532(5) 0.7354(6) 0.46941(8)
H28 H 0.4728 0.7370 0.4650
C49 C 0.4317(5) 0.7063(4) 0.49250(7)
C50 C 0.4375(6) 0.7467(8) 0.44046(9)
C51 C 0.4750(6) 0.7892(6) 0.44101(11)
H29 H 0.4733 0.8132 0.4435
C52 C 0.5168(6) 0.7951(7) 0.43761(12)
H30 H 0.5430 0.8235 0.4378
C53 C 0.5176(6) 0.7583(7) 0.43412(10)
C54 C 0.4773(7) 0.7157(7) 0.43349(13)
H31 H 0.4777 0.6911 0.4309
C55 C 0.4383(7) 0.7112(7) 0.43667(14)
H32 H 0.4116 0.6834 0.4362
C56 C 0.5586(6) 0.7605(7) 0.43114(10)
P1 P 0.6233(3) 0.5639(3) 0.46099(4)
N1 N 0.7203(4) 0.6212(5) 0.46835(11)
P2 P 0.6780(3) 0.6117(3) 0.47409(4)
N2 N 0.6650(6) 0.5713(6) 0.45527(7)
P3 P 0.7133(3) 0.6031(3) 0.45866(4)
N3 N 0.6310(6) 0.5796(6) 0.47063(9)
P4 P 0.3760(4) 0.7131(4) 0.45270(3)
N4 N 0.3837(9) 0.6729(13) 0.45382(10)
O23 O 0.4143(5) 0.7543(5) 0.45899(6)
O24 O 0.3963(5) 0.7394(5) 0.44372(6)
O25 O 0.3333 0.6667 0.51364(7)
O26 O 0.7080(4) 0.3154(4) 0.44212(6)
O27 O 0.5042(7) 0.4668(6) 0.40297(14)
O13A O 0.3075(3) 0.7043(5) 0.49820(6)
O14A O 0.2976(4) 0.7660(6) 0.49496(7)
O15A O 0.2765(8) 0.8370(12) 0.42728(13)
O16A O 0.2003(7) 0.8014(10) 0.43217(10)
C43A C 0.2579(4) 0.6775(6) 0.46739(7)
C44A C 0.2636(4) 0.6492(6) 0.47341(7)
H25A H 0.2597 0.6210 0.4719
C45A C 0.2756(4) 0.6668(6) 0.48184(8)
H26A H 0.2802 0.6501 0.4861
C46A C 0.2806(4) 0.7080(6) 0.48387(7)
C47A C 0.2741(5) 0.7349(6) 0.47792(8)
H27A H 0.2759 0.7622 0.4795
C48A C 0.2646(6) 0.7178(8) 0.46941(8)
H28A H 0.2630 0.7358 0.4650
C49A C 0.2937(4) 0.7254(6) 0.49250(7)
C50A C 0.2533(8) 0.6908(10) 0.44046(9)
C51A C 0.2108(6) 0.6858(8) 0.44101(11)
H29A H 0.1868 0.6601 0.4435
C52A C 0.2049(7) 0.7217(9) 0.43761(12)
H30A H 0.1765 0.7195 0.4378
C53A C 0.2417(7) 0.7593(9) 0.43412(10)
C54A C 0.2843(7) 0.7616(10) 0.43349(13)
H31A H 0.3089 0.7866 0.4309
C55A C 0.2888(7) 0.7271(10) 0.43667(14)
H32A H 0.3166 0.7282 0.4362
C56A C 0.2395(7) 0.7981(9) 0.43114(10)
P4A P 0.2869(4) 0.6629(6) 0.45270(3)
N4A N 0.3271(13) 0.7108(16) 0.45382(10)
O23A O 0.2457(5) 0.6600(7) 0.45899(6)
O24A O 0.2606(5) 0.6569(7) 0.44372(6)
O13B O 0.2957(5) 0.6032(4) 0.49820(6)
O14B O 0.2340(6) 0.5316(4) 0.49496(7)
O15B O 0.1630(12) 0.4395(9) 0.42728(13)
O16B O 0.1986(10) 0.3989(7) 0.43217(10)
C43B C 0.3225(6) 0.5804(5) 0.46739(7)
C44B C 0.3508(6) 0.6144(4) 0.47341(7)
H25B H 0.3790 0.6387 0.4719
C45B C 0.3332(6) 0.6088(4) 0.48184(8)
H26B H 0.3499 0.6301 0.4861
C46B C 0.2920(6) 0.5726(4) 0.48387(7)
C47B C 0.2651(6) 0.5392(4) 0.47792(8)
H27B H 0.2378 0.5137 0.4795
C48B C 0.2822(8) 0.5468(5) 0.46941(8)
H28B H 0.2642 0.5272 0.4650
C49B C 0.2746(6) 0.5683(5) 0.49250(7)
C50B C 0.3092(10) 0.5625(6) 0.44046(9)
C51B C 0.3142(8) 0.5250(6) 0.44101(11)
H29B H 0.3399 0.5267 0.4435
C52B C 0.2783(9) 0.4832(6) 0.43761(12)
H30B H 0.2805 0.4570 0.4378
C53B C 0.2407(9) 0.4824(6) 0.43412(10)
C54B C 0.2384(10) 0.5227(7) 0.43349(13)
H31B H 0.2134 0.5223 0.4309
C55B C 0.2729(10) 0.5617(7) 0.43667(14)
H32B H 0.2718 0.5884 0.4362
C56B C 0.2019(9) 0.4414(6) 0.43114(10)
P4B P 0.3371(6) 0.6240(4) 0.45270(3)
N4B N 0.2892(16) 0.6163(9) 0.45382(10)
O23B O 0.3400(7) 0.5857(5) 0.45899(6)
O24B O 0.3431(7) 0.6037(5) 0.44372(6)
Zn3A Zn 0.33402(6) -0.18601(8) 0.502052(9)
Zn5A Zn 0.46453(10) -0.01689(13) 0.405600(16)
O1A O 0.6313(3) 0.2721(4) 0.47071(5)
O2A O 0.6554(4) 0.2795(6) 0.45660(6)
O3A O 0.4562(5) -0.0074(6) 0.41706(7)
O4A O 0.5017(6) -0.0343(8) 0.42457(11)
O5A O 0.6054(3) 0.2322(4) 0.49105(5)
O6A O 0.6041(3) 0.1704(4) 0.49751(5)
O7A O 0.3379(7) -0.1643(9) 0.48466(13)
O8A O 0.3317(3) -0.1327(4) 0.49847(7)
O9A O 0.5090(3) 0.3123(4) 0.48622(5)
O10A O 0.5677(3) 0.3000(4) 0.48269(5)
O11A O 0.2495(7) -0.0889(10) 0.43214(9)
O12A O 0.2089(6) -0.1164(9) 0.44645(11)
O17A O 0.4871(5) 0.0732(7) 0.45981(6)
O18A O 0.4152(4) 0.0121(6) 0.45662(7)
O19A O 0.4010(3) 0.0844(4) 0.48377(7)
O20A O 0.3410(4) 0.0241(5) 0.47612(7)
O21A O 0.4144(4) 0.1609(6) 0.45688(6)
O22A O 0.3535(5) 0.0946(6) 0.45245(7)
C1A C 0.5231(4) 0.1172(6) 0.46044(8)
C2A C 0.5381(4) 0.1357(6) 0.46879(7)
H1A H 0.5247 0.1181 0.4737
C3A C 0.5726(4) 0.1797(6) 0.46956(7)
H2A H 0.5829 0.1927 0.4750
C4A C 0.5920(4) 0.2046(6) 0.46197(7)
C5A C 0.5796(5) 0.1857(7) 0.45389(7)
H3A H 0.5956 0.2019 0.4490
C6A C 0.5430(5) 0.1421(7) 0.45311(8)
H4A H 0.5320 0.1299 0.4476
C7A C 0.6255(4) 0.2513(6) 0.46281(7)
C8A C 0.4288(6) 0.0052(8) 0.44850(9)
C9A C 0.4192(6) 0.0216(8) 0.44130(10)
H5A H 0.4032 0.0371 0.4417
C10A C 0.4337(7) 0.0148(9) 0.43321(10)
H6A H 0.4287 0.0268 0.4282
C11A C 0.4557(6) -0.0100(8) 0.43290(8)
C12A C 0.4682(8) -0.0235(9) 0.44028(9)
H7A H 0.4865 -0.0366 0.4400
C13A C 0.4525(8) -0.0172(9) 0.44829(10)
H8A H 0.4583 -0.0281 0.4534
C14A C 0.4716(5) -0.0173(7) 0.42477(8)
C15A C 0.4461(4) 0.1103(6) 0.48644(7)
C16A C 0.4677(4) 0.1552(6) 0.48485(6)
H9A H 0.4528 0.1684 0.4821
C17A C 0.5131(4) 0.1818(6) 0.48742(6)
H10A H 0.5289 0.2130 0.4865
C18A C 0.5333(3) 0.1602(5) 0.49128(6)
C19A C 0.5115(4) 0.1153(6) 0.49304(7)
H11A H 0.5259 0.1019 0.4959
C20A C 0.4669(4) 0.0898(6) 0.49041(8)
H12A H 0.4510 0.0586 0.4913
C21A C 0.5808(4) 0.1877(6) 0.49325(6)
C22A C 0.3371(4) -0.0152(6) 0.48002(11)
C23A C 0.3366(6) -0.0469(8) 0.47395(12)
H13A H 0.3371 -0.0417 0.4680
C24A C 0.3352(7) -0.0855(9) 0.47706(11)
H14A H 0.3346 -0.1072 0.4733
C25A C 0.3346(6) -0.0911(8) 0.48583(12)
C26A C 0.3330(6) -0.0612(8) 0.49199(10)
H15A H 0.3302 -0.0674 0.4979
C27A C 0.3360(6) -0.0203(8) 0.48849(11)
H16A H 0.3372 0.0020 0.4922
C28A C 0.3345(6) -0.1305(8) 0.48940(9)
C29A C 0.4425(5) 0.1944(7) 0.46288(7)
C30A C 0.4238(4) 0.2125(6) 0.46832(7)
H17A H 0.3928 0.2023 0.4681
C31A C 0.4513(4) 0.2463(6) 0.47416(7)
H18A H 0.4394 0.2599 0.4777
C32A C 0.4958(4) 0.2588(6) 0.47458(6)
C33A C 0.5162(4) 0.2420(6) 0.46902(6)
H19A H 0.5472 0.2522 0.4693
C34A C 0.4884(4) 0.2095(6) 0.46309(7)
H20A H 0.5007 0.1977 0.4592
C35A C 0.5239(4) 0.2896(6) 0.48128(7)
C36A C 0.3262(5) 0.0500(7) 0.44956(12)
C37A C 0.3010(6) 0.0170(8) 0.45581(10)
H21A H 0.3036 0.0243 0.4617
C38A C 0.2719(6) -0.0273(9) 0.45290(10)
H22A H 0.2542 -0.0501 0.4568
C39A C 0.2696(6) -0.0368(8) 0.44426(11)
C40A C 0.2961(7) -0.0030(11) 0.43812(10)
H23A H 0.2960 -0.0097 0.4323
C41A C 0.3225(6) 0.0412(8) 0.44133(10)
H24A H 0.3379 0.0650 0.4374
C42A C 0.2407(6) -0.0822(8) 0.44090(10)
P1A P 0.4361(3) 0.0594(4) 0.46099(4)
N1A N 0.3788(5) 0.0991(6) 0.46835(11)
P2A P 0.3883(3) 0.0663(4) 0.47409(4)
N2A N 0.4287(6) 0.0937(8) 0.45527(7)
P3A P 0.3969(3) 0.1102(4) 0.45866(4)
N3A N 0.4204(6) 0.0514(8) 0.47063(9)
O26A O 0.6846(4) 0.3926(6) 0.44212(6)
O27A O 0.5332(6) 0.0374(9) 0.40297(14)
Zn1B Zn 0.27931(8) 0.61338(6) 0.509400(9)
Zn3B Zn 0.18601(8) 0.52003(6) 0.502052(9)
Zn5B Zn 0.01689(13) 0.48142(9) 0.405600(16)
O1B O -0.2721(4) 0.3592(3) 0.47071(5)
O2B O -0.2795(6) 0.3759(4) 0.45660(6)
O3B O 0.0074(6) 0.4636(4) 0.41706(7)
O4B O 0.0343(8) 0.5360(5) 0.42457(11)
O5B O -0.2322(4) 0.3732(3) 0.49105(5)
O6B O -0.1704(4) 0.4337(3) 0.49751(5)
O7B O 0.1643(9) 0.5022(6) 0.48466(13)
O8B O 0.1327(4) 0.4644(3) 0.49847(7)
O9B O -0.3123(4) 0.1967(3) 0.48622(5)
O10B O -0.3000(4) 0.2677(3) 0.48269(5)
O11B O 0.0889(10) 0.3384(7) 0.43214(9)
O12B O 0.1164(9) 0.3253(7) 0.44645(11)
O17B O -0.0732(7) 0.4139(5) 0.45981(6)
O18B O -0.0121(6) 0.4031(4) 0.45662(7)
O19B O -0.0844(4) 0.3166(3) 0.48377(7)
O20B O -0.0241(5) 0.3169(3) 0.47612(7)
O21B O -0.1609(6) 0.2535(4) 0.45688(6)
O22B O -0.0946(6) 0.2589(4) 0.45245(7)
C1B C -0.1172(6) 0.4059(4) 0.46044(8)
C2B C -0.1357(6) 0.4024(4) 0.46879(7)
H1B H -0.1181 0.4066 0.4737
C3B C -0.1797(6) 0.3929(4) 0.46956(7)
H2B H -0.1927 0.3902 0.4750
C4B C -0.2046(6) 0.3874(4) 0.46197(7)
C5B C -0.1857(7) 0.3939(5) 0.45389(7)
H3B H -0.2019 0.3937 0.4490
C6B C -0.1421(7) 0.4009(5) 0.45311(8)
H4B H -0.1299 0.4021 0.4476
C7B C -0.2513(6) 0.3742(4) 0.46281(7)
C8B C -0.0052(8) 0.4236(6) 0.44850(9)
C9B C -0.0216(8) 0.3976(5) 0.44130(10)
H5B H -0.0371 0.3661 0.4417
C10B C -0.0148(9) 0.4189(5) 0.43321(10)
H6B H -0.0268 0.4019 0.4282
C11B C 0.0100(8) 0.4657(6) 0.43290(8)
C12B C 0.0235(9) 0.4917(5) 0.44028(9)
H7B H 0.0366 0.5231 0.4400
C13B C 0.0172(9) 0.4697(5) 0.44829(10)
H8B H 0.0281 0.4864 0.4534
C14B C 0.0173(7) 0.4889(5) 0.42477(8)
C15B C -0.1103(6) 0.3358(5) 0.48644(7)
C16B C -0.1552(6) 0.3125(4) 0.48485(6)
H9B H -0.1684 0.2844 0.4821
C17B C -0.1818(6) 0.3313(4) 0.48742(6)
H10B H -0.2130 0.3159 0.4865
C18B C -0.1602(5) 0.3731(4) 0.49128(6)
C19B C -0.1153(6) 0.3962(4) 0.49304(7)
H11B H -0.1019 0.4240 0.4959
C20B C -0.0898(6) 0.3771(4) 0.49041(8)
H12B H -0.0586 0.3924 0.4913
C21B C -0.1877(6) 0.3931(4) 0.49325(6)
C22B C 0.0152(6) 0.3523(5) 0.48002(11)
C23B C 0.0469(8) 0.3835(6) 0.47395(12)
H13B H 0.0417 0.3788 0.4680
C24B C 0.0855(9) 0.4207(6) 0.47706(11)
H14B H 0.1072 0.4418 0.4733
C25B C 0.0911(8) 0.4257(6) 0.48583(12)
C26B C 0.0612(8) 0.3942(5) 0.49199(10)
H15B H 0.0674 0.3976 0.4979
C27B C 0.0203(8) 0.3563(6) 0.48849(11)
H16B H -0.0020 0.3352 0.4922
C28B C 0.1305(8) 0.4650(6) 0.48940(9)
C29B C -0.1944(7) 0.2481(5) 0.46288(7)
C30B C -0.2125(6) 0.2113(4) 0.46832(7)
H17B H -0.2023 0.1905 0.4681
C31B C -0.2463(6) 0.2050(4) 0.47416(7)
H18B H -0.2599 0.1795 0.4777
C32B C -0.2588(6) 0.2370(4) 0.47458(6)
C33B C -0.2420(6) 0.2742(4) 0.46902(6)
H19B H -0.2522 0.2950 0.4693
C34B C -0.2095(6) 0.2789(4) 0.46309(7)
H20B H -0.1977 0.3030 0.4592
C35B C -0.2896(6) 0.2343(4) 0.48128(7)
C36B C -0.0500(7) 0.2762(5) 0.44956(12)
C37B C -0.0170(8) 0.2840(6) 0.45581(10)
H21B H -0.0243 0.2793 0.4617
C38B C 0.0273(9) 0.2992(7) 0.45290(10)
H22B H 0.0501 0.3043 0.4568
C39B C 0.0368(8) 0.3064(6) 0.44426(11)
C40B C 0.0030(11) 0.2991(8) 0.43812(10)
H23B H 0.0097 0.3057 0.4323
C41B C -0.0412(8) 0.2813(6) 0.44133(10)
H24B H -0.0650 0.2729 0.4374
C42B C 0.0822(8) 0.3229(5) 0.44090(10)
P1B P -0.0594(4) 0.3767(3) 0.46099(4)
N1B N -0.0991(6) 0.2797(4) 0.46835(11)
P2B P -0.0663(4) 0.3220(3) 0.47409(4)
N2B N -0.0937(8) 0.3350(6) 0.45527(7)
P3B P -0.1102(4) 0.2867(3) 0.45866(4)
N3B N -0.0514(8) 0.3690(6) 0.47063(9)
O27B O -0.0374(9) 0.4958(7) 0.40297(14)
Zn1R Zn 0.61338(6) 0.33407(6) 0.490600(9)
O26B O 0.6074(6) 0.2920(4) 0.44212(6)
Zn1A Zn 0.33407(6) 0.72069(8) 0.509400(9)
Zn1S Zn -0.33407(6) 0.27931(8) 0.490600(9)
Zn1S_2 Zn 0.66593(6) 0.27931(8) 0.490600(9)
Zn1T Zn -0.27931(8) 0.38662(6) 0.490600(9)
Zn1T_2 Zn 0.72069(8) 0.38662(6) 0.490600(9)
Zn2R Zn -0.3333 0.3333 0.473659(15)
Zn2R_2 Zn 0.6667 0.3333 0.473659(15)
Zn3A_2 Zn 0.33402(6) 0.81399(8) 0.502052(9)
Zn3R Zn 0.52003(6) 0.33402(6) 0.497948(9)
Zn3S Zn -0.33402(6) 0.18601(8) 0.497948(9)
Zn3S_2 Zn 0.66598(6) 0.18601(8) 0.497948(9)
Zn3T Zn -0.18601(8) 0.47997(6) 0.497948(9)
Zn3T_2 Zn 0.81399(8) 0.47997(6) 0.497948(9)
Zn4_2 Zn -0.3333 0.3333 0.449853(15)
Zn5I Zn 0.20214(10) -0.14809(9) 0.427733(16)
Zn5I_2 Zn 0.20214(10) 0.85191(9) 0.427733(16)
Zn5J Zn 0.14809(9) 0.35022(13) 0.427733(16)
Zn5K Zn 0.64978(13) 0.79786(10) 0.427733(16)
O1R O 0.3592(3) 0.6313(3) 0.52929(5)
O1S O 0.3687(3) 0.7279(4) 0.52929(5)
O1T O 0.2721(4) 0.6408(3) 0.52929(5)
O2B_2 O 0.7205(6) 0.3759(4) 0.45660(6)
O5R O 0.3732(3) 0.6054(3) 0.50895(5)
O5T O 0.2322(4) 0.6268(3) 0.50895(5)
O6R O 0.4337(3) 0.6041(3) 0.50249(5)
O6S O 0.3959(3) -0.1704(4) 0.50249(5)
O6T O 0.1704(4) 0.5663(3) 0.50249(5)
O9R O 0.1967(3) 0.5090(3) 0.51378(5)
O9S O 0.4910(3) 0.6877(4) 0.51378(5)
O9T O 0.3123(4) -0.1967(3) 0.51378(5)
O10R O 0.2677(3) 0.5677(3) 0.51731(5)
O10S O 0.4323(3) 0.7000(4) 0.51731(5)
O11I O 0.4172(7) -0.0051(7) 0.40119(9)
O11J O 0.0051(7) 0.4222(10) 0.40119(9)
O11K O 0.5778(10) 0.5828(7) 0.40119(9)
O13R O 0.6032(4) 0.3075(3) 0.50180(6)
O14A_2 O 0.2976(4) -0.2340(6) 0.49496(7)
O16I O 0.4664(7) -0.0656(7) 0.40116(10)
O16J O 0.0656(7) 0.5319(10) 0.40116(10)
O16K O 0.4681(10) 0.5336(7) 0.40116(10)
O25R O 0.6667 0.3333 0.48636(7)
loop_
_geom_bond_atom_site_label_1
_geom_bond_atom_site_label_2
_geom_bond_site_symmetry_1
_geom_bond_site_symmetry_2
Zn1 O13 1_555 1_555
Zn2 O25 1_555 1_555
Zn3 O8 1_555 1_555
Zn4 O2 1_555 1_555
Zn5 O3 1_555 1_555
O1 C7 1_555 1_555
O2 C7 1_555 1_555
O3 C14 1_555 1_555
O4 C14 1_555 1_555
O5 C21 1_555 1_555
O6 C21 1_555 1_555
O7 C28 1_555 1_555
O8 C28 1_555 1_555
O9 C35 1_555 1_555
O10 C35 1_555 1_555
O11 C42 1_555 1_555
O12 C42 1_555 1_555
O13 C49 1_555 1_555
O14 Zn3 1_555 1_555
O15 C56 1_555 1_555
O16 C56 1_555 1_555
O17 C1 1_555 1_555
O18 C8 1_555 1_555
O19 C15 1_555 1_555
O20 C22 1_555 1_555
O21 C29 1_555 1_555
O22 C36 1_555 1_555
C1 C2 1_555 1_555
C2 H1 1_555 1_555
C3 C2 1_555 1_555
H2 C3 1_555 1_555
C4 C3 1_555 1_555
C5 C4 1_555 1_555
H3 C5 1_555 1_555
C6 C1 1_555 1_555
H4 C6 1_555 1_555
C7 C4 1_555 1_555
C8 C9 1_555 1_555
C9 H5 1_555 1_555
C10 C9 1_555 1_555
H6 C10 1_555 1_555
C11 C10 1_555 1_555
C12 C11 1_555 1_555
H7 C12 1_555 1_555
C13 C8 1_555 1_555
H8 C13 1_555 1_555
C14 C11 1_555 1_555
C15 C16 1_555 1_555
C16 H9 1_555 1_555
C17 C16 1_555 1_555
H10 C17 1_555 1_555
C18 C17 1_555 1_555
C19 C18 1_555 1_555
H11 C19 1_555 1_555
C20 C15 1_555 1_555
H12 C20 1_555 1_555
C21 C18 1_555 1_555
C22 C23 1_555 1_555
C23 H13 1_555 1_555
C24 C23 1_555 1_555
H14 C24 1_555 1_555
C25 C24 1_555 1_555
C26 C25 1_555 1_555
H15 C26 1_555 1_555
C27 C22 1_555 1_555
H16 C27 1_555 1_555
C28 C25 1_555 1_555
C29 C30 1_555 1_555
C30 H17 1_555 1_555
C31 C30 1_555 1_555
H18 C31 1_555 1_555
C32 C31 1_555 1_555
C33 C32 1_555 1_555
H19 C33 1_555 1_555
C34 C29 1_555 1_555
H20 C34 1_555 1_555
C35 C32 1_555 1_555
C36 C37 1_555 1_555
C37 H21 1_555 1_555
C38 C37 1_555 1_555
H22 C38 1_555 1_555
C39 C38 1_555 1_555
C40 C39 1_555 1_555
H23 C40 1_555 1_555
C41 C36 1_555 1_555
H24 C41 1_555 1_555
C42 C39 1_555 1_555
C43 C44 1_555 1_555
C44 H25 1_555 1_555
C45 C44 1_555 1_555
H26 C45 1_555 1_555
C46 C45 1_555 1_555
C47 C46 1_555 1_555
H27 C47 1_555 1_555
C48 C43 1_555 1_555
H28 C48 1_555 1_555
C49 O14 1_555 1_555
C50 C51 1_555 1_555
C51 H29 1_555 1_555
C52 C51 1_555 1_555
H30 C52 1_555 1_555
C53 C52 1_555 1_555
C54 C53 1_555 1_555
H31 C54 1_555 1_555
C55 C50 1_555 1_555
H32 C55 1_555 1_555
C56 C53 1_555 1_555
P1 O17 1_555 1_555
N1 P2 1_555 1_555
P2 O19 1_555 1_555
N2 P1 1_555 1_555
P3 O21 1_555 1_555
N3 P1 1_555 1_555
P4 N4 1_555 1_555
N4 P4B 1_555 1_555
O23 C43 1_555 1_555
O24 C50 1_555 1_555
O25 Zn1 1_555 1_555
O26 Zn4 1_555 1_555
O27 Zn5 1_555 1_555
O13A C49A 1_555 1_555
O14A C49A 1_555 1_555
O15A C56A 1_555 1_555
O16A C56A 1_555 1_555
C43A C44A 1_555 1_555
C44A H25A 1_555 1_555
C45A C44A 1_555 1_555
H26A C45A 1_555 1_555
C46A C45A 1_555 1_555
C47A C46A 1_555 1_555
H27A C47A 1_555 1_555
C48A C43A 1_555 1_555
H28A C48A 1_555 1_555
C49A C46A 1_555 1_555
C50A C51A 1_555 1_555
C51A H29A 1_555 1_555
C52A C51A 1_555 1_555
H30A C52A 1_555 1_555
C53A C52A 1_555 1_555
C54A C53A 1_555 1_555
H31A C54A 1_555 1_555
C55A C50A 1_555 1_555
H32A C55A 1_555 1_555
C56A C53A 1_555 1_555
P4A N4A 1_555 1_555
N4A P4 1_555 1_555
O23A C43A 1_555 1_555
O24A C50A 1_555 1_555
O13B C49B 1_555 1_555
O14B C49B 1_555 1_555
O15B C56B 1_555 1_555
O16B C56B 1_555 1_555
C43B C44B 1_555 1_555
C44B H25B 1_555 1_555
C45B C44B 1_555 1_555
H26B C45B 1_555 1_555
C46B C45B 1_555 1_555
C47B C46B 1_555 1_555
H27B C47B 1_555 1_555
C48B C43B 1_555 1_555
H28B C48B 1_555 1_555
C49B C46B 1_555 1_555
C50B C51B 1_555 1_555
C51B H29B 1_555 1_555
C52B C51B 1_555 1_555
H30B C52B 1_555 1_555
C53B C52B 1_555 1_555
C54B C53B 1_555 1_555
H31B C54B 1_555 1_555
C55B C50B 1_555 1_555
H32B C55B 1_555 1_555
C56B C53B 1_555 1_555
P4B N4B 1_555 1_555
N4B P4A 1_555 1_555
O23B C43B 1_555 1_555
O24B C50B 1_555 1_555
Zn3A O8A 1_555 1_555
Zn5A O3A 1_555 1_555
O1A C7A 1_555 1_555
O2A Zn4 1_555 1_555
O3A C14A 1_555 1_555
O4A C14A 1_555 1_555
O5A C21A 1_555 1_555
O6A C21A 1_555 1_555
O7A C28A 1_555 1_555
O8A C28A 1_555 1_555
O9A C35A 1_555 1_555
O10A C35A 1_555 1_555
O11A C42A 1_555 1_555
O12A C42A 1_555 1_555
O17A C1A 1_555 1_555
O18A C8A 1_555 1_555
O19A C15A 1_555 1_555
O20A C22A 1_555 1_555
O21A C29A 1_555 1_555
O22A C36A 1_555 1_555
C1A C2A 1_555 1_555
C2A H1A 1_555 1_555
C3A C2A 1_555 1_555
H2A C3A 1_555 1_555
C4A C3A 1_555 1_555
C5A C4A 1_555 1_555
H3A C5A 1_555 1_555
C6A C1A 1_555 1_555
H4A C6A 1_555 1_555
C7A O2A 1_555 1_555
C8A C9A 1_555 1_555
C9A H5A 1_555 1_555
C10A C9A 1_555 1_555
H6A C10A 1_555 1_555
C11A C10A 1_555 1_555
C12A C11A 1_555 1_555
H7A C12A 1_555 1_555
C13A C8A 1_555 1_555
H8A C13A 1_555 1_555
C14A C11A 1_555 1_555
C15A C16A 1_555 1_555
C16A H9A 1_555 1_555
C17A C16A 1_555 1_555
H10A C17A 1_555 1_555
C18A C17A 1_555 1_555
C19A C18A 1_555 1_555
H11A C19A 1_555 1_555
C20A C15A 1_555 1_555
H12A C20A 1_555 1_555
C21A C18A 1_555 1_555
C22A C23A 1_555 1_555
C23A H13A 1_555 1_555
C24A C23A 1_555 1_555
H14A C24A 1_555 1_555
C25A C24A 1_555 1_555
C26A C25A 1_555 1_555
H15A C26A 1_555 1_555
C27A C22A 1_555 1_555
H16A C27A 1_555 1_555
C28A C25A 1_555 1_555
C29A C30A 1_555 1_555
C30A H17A 1_555 1_555
C31A C30A 1_555 1_555
H18A C31A 1_555 1_555
C32A C31A 1_555 1_555
C33A C32A 1_555 1_555
H19A C33A 1_555 1_555
C34A C29A 1_555 1_555
H20A C34A 1_555 1_555
C35A C32A 1_555 1_555
C36A C37A 1_555 1_555
C37A H21A 1_555 1_555
C38A C37A 1_555 1_555
H22A C38A 1_555 1_555
C39A C38A 1_555 1_555
C40A C39A 1_555 1_555
H23A C40A 1_555 1_555
C41A C36A 1_555 1_555
H24A C41A 1_555 1_555
C42A C39A 1_555 1_555
P1A O17A 1_555 1_555
N1A P2A 1_555 1_555
P2A O19A 1_555 1_555
N2A P1A 1_555 1_555
P3A O21A 1_555 1_555
N3A P1A 1_555 1_555
O26A Zn4 1_555 1_555
O27A Zn5A 1_555 1_555
Zn1B O25 1_555 1_555
Zn3B O14B 1_555 1_555
Zn5B O3B 1_555 1_555
O1B C7B 1_555 1_555
O2B C7B 1_555 1_555
O3B C14B 1_555 1_555
O4B C14B 1_555 1_555
O5B C21B 1_555 1_555
O6B C21B 1_555 1_555
O7B C28B 1_555 1_555
O8B Zn3B 1_555 1_555
O9B C35B 1_555 1_555
O10B C35B 1_555 1_555
O11B C42B 1_555 1_555
O12B C42B 1_555 1_555
O17B C1B 1_555 1_555
O18B C8B 1_555 1_555
O19B C15B 1_555 1_555
O20B C22B 1_555 1_555
O21B C29B 1_555 1_555
O22B C36B 1_555 1_555
C1B C2B 1_555 1_555
C2B H1B 1_555 1_555
C3B C2B 1_555 1_555
H2B C3B 1_555 1_555
C4B C3B 1_555 1_555
C5B C4B 1_555 1_555
H3B C5B 1_555 1_555
C6B C1B 1_555 1_555
H4B C6B 1_555 1_555
C7B C4B 1_555 1_555
C8B C9B 1_555 1_555
C9B H5B 1_555 1_555
C10B C9B 1_555 1_555
H6B C10B 1_555 1_555
C11B C10B 1_555 1_555
C12B C11B 1_555 1_555
H7B C12B 1_555 1_555
C13B C8B 1_555 1_555
H8B C13B 1_555 1_555
C14B C11B 1_555 1_555
C15B C16B 1_555 1_555
C16B H9B 1_555 1_555
C17B C16B 1_555 1_555
H10B C17B 1_555 1_555
C18B C17B 1_555 1_555
C19B C18B 1_555 1_555
H11B C19B 1_555 1_555
C20B C15B 1_555 1_555
H12B C20B 1_555 1_555
C21B C18B 1_555 1_555
C22B C23B 1_555 1_555
C23B H13B 1_555 1_555
C24B C23B 1_555 1_555
H14B C24B 1_555 1_555
C25B C24B 1_555 1_555
C26B C25B 1_555 1_555
H15B C26B 1_555 1_555
C27B C22B 1_555 1_555
H16B C27B 1_555 1_555
C28B O8B 1_555 1_555
C29B C30B 1_555 1_555
C30B H17B 1_555 1_555
C31B C30B 1_555 1_555
H18B C31B 1_555 1_555
C32B C31B 1_555 1_555
C33B C32B 1_555 1_555
H19B C33B 1_555 1_555
C34B C29B 1_555 1_555
H20B C34B 1_555 1_555
C35B C32B 1_555 1_555
C36B C37B 1_555 1_555
C37B H21B 1_555 1_555
C38B C37B 1_555 1_555
H22B C38B 1_555 1_555
C39B C38B 1_555 1_555
C40B C39B 1_555 1_555
H23B C40B 1_555 1_555
C41B C36B 1_555 1_555
H24B C41B 1_555 1_555
C42B C39B 1_555 1_555
P1B O17B 1_555 1_555
N1B P2B 1_555 1_555
P2B O19B 1_555 1_555
N2B P1B 1_555 1_555
P3B O21B 1_555 1_555
N3B P1B 1_555 1_555
O27B Zn5B 1_555 1_555
Zn1R O5 1_555 1_555
O26B Zn4 1_555 1_555
Zn1A O25 1_555 1_555
Zn1S O10B 1_555 1_555
Zn1S_2 O5A 1_555 1_555
Zn1T O5B 1_555 1_555
Zn1T_2 O10 1_555 1_555
Zn2R O1B 1_555 1_555
Zn2R_2 O1 1_555 1_555
Zn3A_2 O14A 1_555 1_555
Zn3R O6 1_555 1_555
Zn3S O9B 1_555 1_555
Zn3S_2 O6A 1_555 1_555
Zn3T O6B 1_555 1_555
Zn3T_2 O9 1_555 1_555
Zn4_2 O2B 1_555 1_555
Zn5I O11A 1_555 1_555
Zn5I_2 O16A 1_555 1_555
Zn5J O16B 1_555 1_555
Zn5K O11 1_555 1_555
O1R Zn2 1_555 1_555
O1S Zn2 1_555 1_555
O1T Zn2 1_555 1_555
O2B_2 Zn4 1_555 1_555
O5R Zn1 1_555 1_555
O5T Zn1B 1_555 1_555
O6R Zn3 1_555 1_555
O6S Zn3A 1_555 1_555
O6T Zn3B 1_555 1_555
O9R Zn3B 1_555 1_555
O9S Zn3 1_555 1_555
O9T Zn3A 1_555 1_555
O10R Zn1B 1_555 1_555
O10S Zn1 1_555 1_555
O11I Zn5A 1_555 1_555
O11J Zn5B 1_555 1_555
O11K Zn5 1_555 1_555
O13R Zn1R 1_555 1_555
O14A_2 Zn3A 1_555 1_555
O16I Zn5A 1_555 1_555
O16J Zn5B 1_555 1_555
O16K Zn5 1_555 1_555
O25R Zn1R 1_555 1_555
O16 Zn5K 1_555 1_555
O18 P1 1_555 1_555
O20 P2 1_555 1_555
O22 P3 1_555 1_555
C5 C6 1_555 1_555
C12 C13 1_555 1_555
C19 C20 1_555 1_555
C26 C27 1_555 1_555
C33 C34 1_555 1_555
C40 C41 1_555 1_555
C46 C49 1_555 1_555
C47 C48 1_555 1_555
C54 C55 1_555 1_555
N1 P3 1_555 1_555
P2 N3 1_555 1_555
N2 P3 1_555 1_555
P4 O23 1_555 1_555
P4 O24 1_555 1_555
O13A Zn1A 1_555 1_555
C47A C48A 1_555 1_555
C54A C55A 1_555 1_555
P4A O23A 1_555 1_555
P4A O24A 1_555 1_555
O13B Zn1B 1_555 1_555
C47B C48B 1_555 1_555
C54B C55B 1_555 1_555
P4B O23B 1_555 1_555
P4B O24B 1_555 1_555
O1A Zn2R_2 1_555 1_555
O9A Zn3R 1_555 1_555
O10A Zn1R 1_555 1_555
O18A P1A 1_555 1_555
O20A P2A 1_555 1_555
O22A P3A 1_555 1_555
C4A C7A 1_555 1_555
C5A C6A 1_555 1_555
C12A C13A 1_555 1_555
C19A C20A 1_555 1_555
C26A C27A 1_555 1_555
C33A C34A 1_555 1_555
C40A C41A 1_555 1_555
N1A P3A 1_555 1_555
P2A N3A 1_555 1_555
N2A P3A 1_555 1_555
O11B Zn5J 1_555 1_555
O18B P1B 1_555 1_555
O20B P2B 1_555 1_555
O22B P3B 1_555 1_555
C5B C6B 1_555 1_555
C12B C13B 1_555 1_555
C19B C20B 1_555 1_555
C25B C28B 1_555 1_555
C26B C27B 1_555 1_555
C33B C34B 1_555 1_555
C40B C41B 1_555 1_555
N1B P3B 1_555 1_555
P2B N3B 1_555 1_555
N2B P3B 1_555 1_555
Zn1S_2 O25R 1_555 1_555
Zn1T_2 O25R 1_555 1_555
Zn2R_2 O25R 1_555 1_555

#END
