
#######################################################################
#
#                 Cambridge Crystallographic Data Centre
#                                CCDC 
#
#######################################################################
#
# If this CIF has been generated from an entry in the Cambridge 
# Structural Database, then it will include bibliographic, chemical, 
# crystal, experimental, refinement or atomic coordinate data resulting 
# from the CCDC's data processing and validation procedures.
#
#######################################################################

data_GUBSED
_chemical_formula_moiety         '(C27 H29 Cd2 N7 O15)n'
_symmetry_cell_setting           monoclinic
_symmetry_space_group_name_H-M   'P 21/c'
_symmetry_Int_Tables_number      14
_space_group_name_Hall           '-P 2ybc'
loop_
_symmetry_equiv_pos_site_id
_symmetry_equiv_pos_as_xyz
1 x,y,z
2 -x,1/2+y,1/2-z
3 -x,-y,-z
4 x,1/2-y,1/2+z
_cell_length_a                   15.5653(18)
_cell_length_b                   15.3856(18)
_cell_length_c                   14.8364(17)
_cell_angle_alpha                90
_cell_angle_beta                 109.7250(10)
_cell_angle_gamma                90
_cell_volume                     3344.56
loop_
_atom_site_label
_atom_site_type_symbol
_atom_site_fract_x
_atom_site_fract_y
_atom_site_fract_z
_atom_site_U_iso_or_equiv
_atom_site_thermal_displace_type
Cd1 Cd 0.62229(8) 0.85035(8) 0.74346(8) 0.0334 Uani
Cd2 Cd 0.82242(8) 0.67823(8) 0.76684(8) 0.0308 Uani
N1 N 0.4714(9) 0.2545(9) 0.3518(10) 0.0375 Uani
N2 N 0.7279(9) 0.9431(9) 0.8465(9) 0.0361 Uani
N3 N 0.7393(9) 0.5756(9) 0.6615(9) 0.0330 Uani
N4 N 0.8194(8) 0.5952(9) 0.9042(8) 0.0297 Uani
N5 N 1.0659(9) 1.2286(9) 1.1379(10) 0.0378 Uani
N6 N 0.9865(11) 0.6216(12) 0.7302(11) 0.0531 Uani
C1 C 0.4856(12) 0.3306(11) 0.3181(12) 0.0378 Uani
H1 H 0.4573 0.3418 0.2532 0.0460 Uiso
C2 C 0.5406(11) 0.3944(11) 0.3748(11) 0.0372 Uani
H2 H 0.5478 0.4473 0.3480 0.0450 Uiso
C3 C 0.5849(11) 0.3792(11) 0.4718(12) 0.0356 Uani
C4 C 0.5715(12) 0.2986(12) 0.5049(12) 0.0422 Uani
H3 H 0.6011 0.2842 0.5687 0.0500 Uiso
C5 C 0.5145(12) 0.2389(12) 0.4443(12) 0.0434 Uani
H4 H 0.5058 0.1854 0.4691 0.0520 Uiso
C6 C 0.7910(11) 0.9175(11) 0.9279(12) 0.0401 Uani
H5 H 0.7910 0.8596 0.9458 0.0480 Uiso
C7 C 0.8559(11) 0.9718(12) 0.9869(12) 0.0405 Uani
H6 H 0.8994 0.9498 1.0418 0.0480 Uiso
C8 C 0.8569(11) 1.0590(11) 0.9648(12) 0.0347 Uani
C9 C 0.7902(11) 1.0868(12) 0.8809(12) 0.0436 Uani
H7 H 0.7871 1.1449 0.8632 0.0520 Uiso
C10 C 0.7287(12) 1.0280(12) 0.8242(13) 0.0440 Uani
H8 H 0.6856 1.0479 0.7678 0.0530 Uiso
C11 C 1.0249(12) 1.2420(13) 1.0438(12) 0.0440 Uani
H9 H 1.0435 1.2892 1.0157 0.0530 Uiso
C12 C 0.9565(12) 1.1892(12) 0.9867(12) 0.0442 Uani
H10 H 0.9301 1.2014 0.9218 0.0530 Uiso
C13 C 0.9273(11) 1.1188(11) 1.0253(12) 0.0362 Uani
C14 C 0.9690(12) 1.1054(13) 1.1233(12) 0.0463 Uani
H11 H 0.9512 1.0591 1.1532 0.0560 Uiso
C15 C 1.0367(12) 1.1610(12) 1.1757(13) 0.0453 Uani
H12 H 1.0635 1.1509 1.2411 0.0540 Uiso
C16 C 0.6721(11) 0.5966(11) 0.5806(11) 0.0358 Uani
H13 H 0.6589 0.6549 0.5662 0.0430 Uiso
C17 C 0.6215(11) 0.5343(11) 0.5177(11) 0.0347 Uani
H14 H 0.5749 0.5512 0.4625 0.0420 Uiso
C18 C 0.6399(11) 0.4467(11) 0.5366(11) 0.0346 Uani
C19 C 0.7117(12) 0.4259(11) 0.6190(12) 0.0427 Uani
H15 H 0.7282 0.3681 0.6334 0.0510 Uiso
C20 C 0.7583(12) 0.4909(12) 0.6794(12) 0.0434 Uani
H16 H 0.8051 0.4755 0.7352 0.0520 Uiso
C21 C 0.7040(10) 0.7024(11) 0.9049(11) 0.0303 Uani
C22 C 0.7711(10) 0.6309(10) 0.9550(10) 0.0282 Uani
C23 C 0.7784(10) 0.6033(10) 1.0466(11) 0.0302 Uani
C24 C 0.8342(12) 0.5321(12) 1.0827(12) 0.0429 Uani
H17 H 0.8401 0.5106 1.1430 0.0510 Uiso
C25 C 0.8809(12) 0.4934(11) 1.0294(12) 0.0407 Uani
H18 H 0.9178 0.4452 1.0527 0.0490 Uiso
C26 C 0.8719(11) 0.5274(11) 0.9413(11) 0.0377 Uani
H19 H 0.9042 0.5016 0.9059 0.0450 Uiso
C27 C 0.7325(11) 0.6456(11) 1.1107(11) 0.0342 Uani
O1 O 0.7124(7) 0.7342(7) 0.8284(7) 0.0341 Uani
O2 O 0.6458(8) 0.7236(9) 0.9397(8) 0.0480 Uani
O3 O 0.5263(10) 0.8430(11) 0.8335(11) 0.0654 Uani
H20 H 0.5065 0.7868 0.8405 0.0970 Uiso
H21 H 0.4731 0.8749 0.8067 0.0970 Uiso
O4 O 0.5116(10) 0.9621(10) 0.6784(10) 0.0652 Uani
H22 H 0.5365 1.0142 0.6930 0.0980 Uiso
H23 H 0.4661 0.9585 0.7013 0.0980 Uiso
O5 O 0.6688(9) 0.6022(9) 1.1228(9) 0.0501 Uani
O6 O 0.7646(9) 0.7139(9) 1.1515(9) 0.0549 Uani
O7 O 0.9384(10) 0.6802(10) 0.6791(10) 0.0591 Uani
O8 O 0.9564(9) 0.5821(10) 0.7864(9) 0.0580 Uani
O9 O 1.0606(12) 0.6019(16) 0.7246(15) 0.1116 Uani
Cd1B Cd 0.37771(8) 0.14965(8) 0.25654(8) 0.0334 Uani
Cd1C Cd 0.62229(8) 0.64965(8) 1.24346(8) 0.0334 Uani
Cd2B Cd 1.17758(8) 1.32177(8) 1.23316(8) 0.0308 Uani
Cd2C Cd 0.82242(8) 0.82177(8) 1.26684(8) 0.0308 Uani
N1B N 0.5286(9) 0.7455(9) 0.6482(10) 0.0375 Uani
N5B N 0.9341(9) 0.7714(9) 0.8621(10) 0.0378 Uani
O5C O 0.6688(9) 0.8978(9) 0.6228(9) 0.0501 Uani
O6C O 0.7646(9) 0.7861(9) 0.6515(9) 0.0549 Uani
N7 N 0.3031(19) 0.837(2) 0.668(2) 0.1170 Uani
O10 O 0.3397(19) 0.908(2) 0.651(3) 0.1850 Uani
O11 O 0.2254(16) 0.818(2) 0.626(3) 0.1943 Uani
O12 O 0.3517(15) 0.7885(18) 0.7343(17) 0.1248 Uani
O13 O 0.597(4) 0.449(4) 0.043(4) 0.3379 Uani
H24 H 0.6134 0.4118 0.0099 0.5090 Uiso
H25 H 0.6401 0.4854 0.0667 0.5090 Uiso
O14 O 0.764(6) 0.185(5) 0.607(10) 0.4658 Uani
H26 H 0.7476 0.2317 0.6278 0.7340 Uani
H27 H 0.7797 0.1981 0.5592 0.6006 Uani
O15 O 0.9215(9) 0.3476(8) 0.8237(9) 0.0500 Uani
H28 H 0.8975 0.3881 0.8461 0.0600 Uiso
H29 H 0.9793 0.3448 0.8408 0.0600 Uiso
loop_
_atom_site_aniso_label
_atom_site_aniso_U_11
_atom_site_aniso_U_22
_atom_site_aniso_U_33
_atom_site_aniso_U_23
_atom_site_aniso_U_13
_atom_site_aniso_U_12
Cd1 0.0331(7) 0.0345(8) 0.0295(7) -0.0071(5) 0.0065(5) -0.0080(5)
Cd2 0.0327(7) 0.0323(8) 0.0234(7) -0.0042(5) 0.0043(5) -0.0070(5)
N1 0.038(5) 0.037(5) 0.033(5) -0.007(5) 0.006(4) -0.010(5)
N2 0.032(5) 0.038(5) 0.035(5) -0.008(4) 0.007(4) -0.007(4)
N3 0.042(4) 0.029(4) 0.024(4) -0.005(4) 0.006(4) -0.003(4)
N4 0.031(4) 0.034(4) 0.022(4) -0.001(4) 0.006(3) -0.001(4)
N5 0.038(5) 0.041(6) 0.033(5) -0.012(5) 0.010(4) -0.014(5)
N6 0.049(6) 0.071(6) 0.042(6) 0.005(6) 0.019(5) 0.007(6)
C1 0.038(5) 0.042(6) 0.028(5) -0.004(5) 0.004(5) -0.011(5)
C2 0.037(5) 0.036(5) 0.034(5) -0.002(5) 0.006(4) -0.011(5)
C3 0.031(5) 0.037(5) 0.035(5) -0.006(4) 0.006(4) -0.003(4)
C4 0.049(5) 0.040(5) 0.029(5) -0.003(5) 0.002(4) -0.006(5)
C5 0.052(6) 0.029(6) 0.041(5) -0.001(5) 0.005(5) -0.007(5)
C6 0.042(5) 0.030(5) 0.042(5) -0.006(4) 0.006(4) -0.012(4)
C7 0.033(5) 0.048(5) 0.032(5) -0.003(5) 0.000(4) -0.005(5)
C8 0.032(5) 0.033(5) 0.039(5) -0.011(4) 0.012(4) -0.011(4)
C9 0.041(5) 0.041(5) 0.042(5) -0.001(5) 0.005(4) -0.011(5)
C10 0.036(5) 0.051(5) 0.037(5) -0.005(5) 0.002(5) -0.003(5)
C11 0.054(6) 0.047(6) 0.032(5) -0.006(5) 0.016(5) -0.021(5)
C12 0.047(5) 0.051(5) 0.028(5) -0.010(5) 0.004(5) -0.017(5)
C13 0.032(5) 0.039(5) 0.035(5) -0.004(4) 0.008(4) -0.009(4)
C14 0.049(5) 0.046(5) 0.040(5) -0.005(5) 0.010(5) -0.017(5)
C15 0.043(6) 0.055(6) 0.032(5) -0.001(5) 0.005(5) -0.016(5)
C16 0.039(5) 0.030(5) 0.035(5) -0.001(5) 0.008(4) -0.003(5)
C17 0.032(5) 0.038(5) 0.028(5) -0.001(5) 0.002(4) -0.004(5)
C18 0.040(5) 0.037(5) 0.024(4) -0.005(4) 0.007(4) -0.004(4)
C19 0.051(5) 0.027(5) 0.040(5) -0.004(5) 0.002(5) -0.002(5)
C20 0.044(5) 0.045(5) 0.026(4) -0.001(4) -0.008(4) -0.004(4)
C21 0.027(4) 0.034(4) 0.024(4) -0.003(4) 0.001(4) -0.006(4)
C22 0.028(4) 0.030(4) 0.021(4) 0.002(4) 0.001(4) -0.005(4)
C23 0.032(4) 0.029(5) 0.026(4) 0.001(4) 0.005(4) -0.002(4)
C24 0.045(5) 0.049(5) 0.033(5) 0.007(5) 0.011(4) 0.010(5)
C25 0.043(5) 0.032(5) 0.045(5) 0.008(5) 0.012(5) 0.012(5)
C26 0.037(4) 0.042(5) 0.034(4) -0.003(4) 0.012(4) 0.006(4)
C27 0.036(5) 0.038(5) 0.022(5) 0.008(5) 0.001(4) 0.015(5)
O1 0.038(4) 0.036(4) 0.024(4) 0.005(4) 0.005(3) -0.001(4)
O2 0.045(5) 0.060(6) 0.041(5) 0.010(5) 0.017(5) 0.021(5)
O3 0.065(7) 0.073(7) 0.067(7) -0.016(6) 0.034(6) -0.012(6)
O4 0.062(7) 0.060(7) 0.069(7) 0.001(6) 0.016(6) 0.013(6)
O5 0.062(5) 0.049(5) 0.050(5) 0.005(4) 0.033(4) 0.004(4)
O6 0.064(5) 0.047(5) 0.043(5) -0.018(4) 0.004(4) 0.002(5)
O7 0.067(6) 0.066(6) 0.045(5) 0.009(5) 0.020(5) 0.017(5)
O8 0.049(4) 0.079(5) 0.052(5) 0.014(4) 0.025(4) 0.001(4)
O9 0.076(8) 0.162(11) 0.123(10) 0.072(9) 0.068(8) 0.056(8)
Cd1B 0.0331 0.0345 0.0295 -0.0071 0.0065 -0.008
Cd1C 0.0331 0.0345 0.0295 0.0071 0.0065 0.008
Cd2B 0.0327 0.0323 0.0234 -0.0042 0.0043 -0.007
Cd2C 0.0327 0.0323 0.0234 0.0042 0.0043 0.007
N1B 0.038 0.037 0.033 -0.007 0.006 -0.01
N5B 0.038 0.041 0.033 -0.012 0.01 -0.014
O5C 0.062 0.049 0.05 -0.005 0.033 -0.004
O6C 0.064 0.047 0.043 0.018 0.004 -0.002
N7 0.079(10) 0.120(11) 0.133(11) 0.000(10) 0.011(9) 0.015(9)
O10 0.118(10) 0.160(11) 0.269(12) 0.078(10) 0.055(9) 0.005(10)
O11 0.070(10) 0.158(12) 0.274(13) 0.054(11) -0.048(10) -0.036(10)
O12 0.095(9) 0.155(11) 0.111(10) -0.013(9) 0.017(8) 0.019(9)
O13 0.48(2) 0.307(19) 0.29(2) -0.211(14) 0.213(15) -0.279(15)
O14 0.412(14) 0.267(13) 0.585(14) 0.031(12) -0.007(11) 0.183(12)
H26 0.6(19) 1(2) 0.6(17) 0.0(14) 0.2(13) 0.0(15)
H27 0.6(18) 0.6(17) 0.6(17) 0.0(15) 0.2(14) 0.0(13)
O15 0.050(6) 0.050(6) 0.050(6) 0.000(5) 0.017(5) 0.000(5)
loop_
_geom_bond_atom_site_label_1
_geom_bond_atom_site_label_2
_geom_bond_site_symmetry_1
_geom_bond_site_symmetry_2
Cd1 N2 1_555 1_555
Cd2 N3 1_555 1_555
N1 C1 1_555 1_555
N2 C6 1_555 1_555
N3 C16 1_555 1_555
N4 Cd2 1_555 1_555
N5 C11 1_555 1_555
N6 O7 1_555 1_555
C1 H1 1_555 1_555
C2 C1 1_555 1_555
H2 C2 1_555 1_555
C3 C2 1_555 1_555
C4 C3 1_555 1_555
H3 C4 1_555 1_555
C5 N1 1_555 1_555
H4 C5 1_555 1_555
C6 H5 1_555 1_555
C7 C6 1_555 1_555
H6 C7 1_555 1_555
C8 C7 1_555 1_555
C9 C8 1_555 1_555
H7 C9 1_555 1_555
C10 N2 1_555 1_555
H8 C10 1_555 1_555
C11 H9 1_555 1_555
C12 C11 1_555 1_555
H10 C12 1_555 1_555
C13 C8 1_555 1_555
C14 C13 1_555 1_555
H11 C14 1_555 1_555
C15 N5 1_555 1_555
H12 C15 1_555 1_555
C16 H13 1_555 1_555
C17 C16 1_555 1_555
H14 C17 1_555 1_555
C18 C3 1_555 1_555
C19 C18 1_555 1_555
H15 C19 1_555 1_555
C20 N3 1_555 1_555
H16 C20 1_555 1_555
C21 C22 1_555 1_555
C22 N4 1_555 1_555
C23 C22 1_555 1_555
C24 C23 1_555 1_555
H17 C24 1_555 1_555
C25 C24 1_555 1_555
H18 C25 1_555 1_555
C26 N4 1_555 1_555
H19 C26 1_555 1_555
C27 C23 1_555 1_555
O1 Cd1 1_555 1_555
O2 C21 1_555 1_555
O3 Cd1 1_555 1_555
H20 O3 1_555 1_555
H21 O3 1_555 1_555
O4 Cd1 1_555 1_555
H22 O4 1_555 1_555
H23 O4 1_555 1_555
O5 C27 1_555 1_555
O6 C27 1_555 1_555
O7 Cd2 1_555 1_555
O8 Cd2 1_555 1_555
O9 N6 1_555 1_555
N7 O10 1_555 1_555
O11 N7 1_555 1_555
O12 N7 1_555 1_555
O13 H24 1_555 1_555
H25 O13 1_555 1_555
O14 H26 1_555 1_555
H27 O14 1_555 1_555
O15 H28 1_555 1_555
H29 O15 1_555 1_555
Cd1B N1 1_555 1_555
Cd1C O5 1_555 1_555
Cd2B N5 1_555 1_555
Cd2C O6 1_555 1_555
N1B Cd1 1_555 1_555
N5B Cd2 1_555 1_555
O5C Cd1 1_555 1_555
O6C Cd2 1_555 1_555
Cd2 O1 1_555 1_555
N6 O8 1_555 1_555
C4 C5 1_555 1_555
C9 C10 1_555 1_555
C12 C13 1_555 1_555
C14 C15 1_555 1_555
C17 C18 1_555 1_555
C19 C20 1_555 1_555
C21 O1 1_555 1_555
C25 C26 1_555 1_555

#END
