
#######################################################################
#
#                 Cambridge Crystallographic Data Centre
#                                CCDC 
#
#######################################################################
#
# If this CIF has been generated from an entry in the Cambridge 
# Structural Database, then it will include bibliographic, chemical, 
# crystal, experimental, refinement or atomic coordinate data resulting 
# from the CCDC's data processing and validation procedures.
#
#######################################################################

data_MATWUC
_chemical_formula_moiety         '(C26 H15 N6 O11 Zn2 1-)n'
_symmetry_cell_setting           monoclinic
_symmetry_space_group_name_H-M   'C 2'
_symmetry_Int_Tables_number      5
_space_group_name_Hall           'C 2y'
loop_
_symmetry_equiv_pos_site_id
_symmetry_equiv_pos_as_xyz
1 x,y,z
2 -x,y,-z
3 1/2+x,1/2+y,z
4 1/2-x,1/2+y,-z
_cell_length_a                   18.8984(18)
_cell_length_b                   17.7031(18)
_cell_length_c                   14.4754(14)
_cell_angle_alpha                90
_cell_angle_beta                 96.602(2)
_cell_angle_gamma                90
_cell_volume                     4810.78
loop_
_atom_site_label
_atom_site_type_symbol
_atom_site_fract_x
_atom_site_fract_y
_atom_site_fract_z
Zn1 Zn 0.29021(3) 0.24716(3) 0.07397(4)
Zn2 Zn 0.16559(3) 0.31171(3) -0.11686(4)
O1 O -0.0985(2) 0.3344(3) 0.2297(3)
O2 O -0.0347(2) 0.3230(3) 0.1157(3)
O3 O 0.25392(17) 0.3114(3) 0.8197(2)
O4 O 0.3235(2) 0.3064(3) 0.9556(2)
O5 O 0.6269(2) 0.2770(3) 0.8436(3)
O6 O 0.5706(2) 0.1929(3) 0.9208(3)
O7 O 0.1822(2) 0.4024(2) -0.0370(3)
O8 O 0.21228(17) 0.3221(2) 0.0787(2)
O9 O 0.2435(3) 0.6662(3) 0.0086(4)
O10 O 0.3412(2) 0.7002(2) 0.0973(3)
O11 O 0.2556(4) 0.1789(4) 0.1815(5)
N1 N 0.4126(2) 0.4174(3) 0.4503(3)
N2 N 0.3225(2) 0.3623(4) 0.5326(3)
N3 N 0.2927(2) 0.4128(3) 0.3784(3)
N4 N 0.4414(2) 0.3720(3) 0.5960(3)
N5 N 0.3809(2) 0.4697(3) 0.3099(3)
N6 N 0.2084(2) 0.3534(3) 0.4635(3)
C1 C 0.1499(3) 0.3525(6) 0.3943(4)
C2 C 0.1541(4) 0.3502(7) 0.3006(5)
H1 H 0.1983 0.3506 0.2784
C3 C 0.0933(3) 0.3474(6) 0.2393(4)
H2 H 0.0978 0.3490 0.1761
C4 C 0.0276(3) 0.3425(5) 0.2653(4)
C5 C 0.0213(3) 0.3555(5) 0.3634(4)
H3 H -0.0227 0.3619 0.3852
C6 C 0.0834(3) 0.3577(5) 0.4215(4)
H4 H 0.0801 0.3631 0.4848
C7 C -0.0379(3) 0.3336(4) 0.2003(4)
C8 C 0.4378(3) 0.3382(3) 0.6834(3)
C9 C 0.3772(3) 0.3369(4) 0.7282(4)
H5 H 0.3348 0.3565 0.6988
C10 C 0.3792(3) 0.3059(4) 0.8190(3)
C11 C 0.4412(3) 0.2738(3) 0.8604(3)
H6 H 0.4420 0.2503 0.9180
C12 C 0.5017(3) 0.2764(3) 0.8168(3)
C13 C 0.5009(3) 0.3102(4) 0.7274(3)
H7 H 0.5425 0.3134 0.6990
C14 C 0.3140(3) 0.3063(4) 0.8684(3)
C15 C 0.5710(3) 0.2466(4) 0.8637(3)
C16 C 0.3369(3) 0.4879(3) 0.2243(3)
C17 C 0.2951(3) 0.4311(3) 0.1788(3)
H8 H 0.2945 0.3827 0.2039
C18 C 0.2543(3) 0.4482(3) 0.0954(3)
C19 C 0.2542(3) 0.5202(3) 0.0585(4)
H9 H 0.2260 0.5315 0.0033
C20 C 0.2973(3) 0.5762(3) 0.1058(4)
C21 C 0.3384(3) 0.5585(3) 0.1888(3)
H10 H 0.3670 0.5953 0.2201
C22 C 0.2130(3) 0.3874(3) 0.0441(3)
C23 C 0.2943(3) 0.6538(3) 0.0665(4)
C24 C 0.2780(3) 0.3766(5) 0.4551(4)
C25 C 0.3881(3) 0.3857(4) 0.5249(3)
C26 C 0.3597(3) 0.4315(3) 0.3807(3)
Zn1_2 Zn 0.29021(3) 0.24716(3) 1.07397(4)
Zn1A Zn 0.70979(3) 0.24716(3) 0.92603(4)
Zn1C Zn 0.20979(3) 0.74716(3) -0.07397(4)
Zn2_2 Zn 0.16559(3) 0.31171(3) 0.88314(4)
Zn2A Zn -0.16559(3) 0.31171(3) 0.11686(4)
Zn2C Zn 0.33441(3) 0.81171(3) 0.11686(4)
O1A O 0.0985(2) 0.3344(3) -0.2297(3)
O2A O 0.0347(2) 0.3230(3) -0.1157(3)
O3_2 O 0.25392(17) 0.3114(3) -0.1803(2)
O4_2 O 0.3235(2) 0.3064(3) -0.0444(2)
O5A O 0.3731(2) 0.2770(3) 0.1564(3)
O9C O 0.2565(3) 0.1662(3) -0.0086(4)
O10C O 0.1588(2) 0.2002(2) -0.0973(3)
loop_
_geom_bond_atom_site_label_1
_geom_bond_atom_site_label_2
_geom_bond_site_symmetry_1
_geom_bond_site_symmetry_2
Zn1 O8 1_555 1_555
Zn2 O7 1_555 1_555
O1 C7 1_555 1_555
O2 C7 1_555 1_555
O3 C14 1_555 1_555
O4 C14 1_555 1_555
O5 C15 1_555 1_555
O6 C15 1_555 1_555
O7 C22 1_555 1_555
O8 C22 1_555 1_555
O9 C23 1_555 1_555
O10 C23 1_555 1_555
O11 Zn1 1_555 1_555
N1 C25 1_555 1_555
N2 C24 1_555 1_555
N3 C24 1_555 1_555
N4 C8 1_555 1_555
N5 C16 1_555 1_555
N6 C1 1_555 1_555
C1 C2 1_555 1_555
C2 H1 1_555 1_555
C3 C2 1_555 1_555
H2 C3 1_555 1_555
C4 C3 1_555 1_555
C5 C4 1_555 1_555
H3 C5 1_555 1_555
C6 C1 1_555 1_555
H4 C6 1_555 1_555
C7 C4 1_555 1_555
C8 C9 1_555 1_555
C9 H5 1_555 1_555
C10 C9 1_555 1_555
C11 C10 1_555 1_555
H6 C11 1_555 1_555
C12 C11 1_555 1_555
C13 C8 1_555 1_555
H7 C13 1_555 1_555
C14 C10 1_555 1_555
C15 C12 1_555 1_555
C16 C17 1_555 1_555
C17 H8 1_555 1_555
C18 C17 1_555 1_555
C19 C18 1_555 1_555
H9 C19 1_555 1_555
C20 C19 1_555 1_555
C21 C16 1_555 1_555
H10 C21 1_555 1_555
C22 C18 1_555 1_555
C23 C20 1_555 1_555
C24 N6 1_555 1_555
C25 N2 1_555 1_555
C26 N1 1_555 1_555
Zn1_2 O4 1_555 1_555
Zn1A O5 1_555 1_555
Zn1C O9 1_555 1_555
Zn2_2 O3 1_555 1_555
Zn2A O1 1_555 1_555
Zn2C O10 1_555 1_555
O1A Zn2 1_555 1_555
O2A Zn2 1_555 1_555
O3_2 Zn2 1_555 1_555
O4_2 Zn1 1_555 1_555
O5A Zn1 1_555 1_555
O9C Zn1 1_555 1_555
O10C Zn2 1_555 1_555
O2 Zn2A 1_555 1_555
N3 C26 1_555 1_555
N4 C25 1_555 1_555
N5 C26 1_555 1_555
C5 C6 1_555 1_555
C12 C13 1_555 1_555
C20 C21 1_555 1_555

#END
