
#######################################################################
#
#                 Cambridge Crystallographic Data Centre
#                                CCDC 
#
#######################################################################
#
# If this CIF has been generated from an entry in the Cambridge 
# Structural Database, then it will include bibliographic, chemical, 
# crystal, experimental, refinement or atomic coordinate data resulting 
# from the CCDC's data processing and validation procedures.
#
#######################################################################

data_MATXAJ
_chemical_formula_moiety         '(C26 H15 N6 O11 Zn2 1-)n'
_symmetry_cell_setting           monoclinic
_symmetry_space_group_name_H-M   'C 2/c'
_symmetry_Int_Tables_number      15
_space_group_name_Hall           '-C 2yc'
loop_
_symmetry_equiv_pos_site_id
_symmetry_equiv_pos_as_xyz
1 x,y,z
2 -x,y,1/2-z
3 1/2+x,1/2+y,z
4 1/2-x,1/2+y,1/2-z
5 -x,-y,-z
6 x,-y,1/2+z
7 1/2-x,1/2-y,-z
8 1/2+x,1/2-y,1/2+z
_cell_length_a                   31.855(11)
_cell_length_b                   17.268(3)
_cell_length_c                   30.293(14)
_cell_angle_alpha                90
_cell_angle_beta                 116.25(3)
_cell_angle_gamma                90
_cell_volume                     14944.9
loop_
_atom_site_label
_atom_site_type_symbol
_atom_site_fract_x
_atom_site_fract_y
_atom_site_fract_z
_atom_site_U_iso_or_equiv
_atom_site_thermal_displace_type
Zn1 Zn 0.89642(3) 0.49896(7) 1.01722(2) 0.0445 Uani
Zn2 Zn 0.86615(3) 0.34363(8) 1.06906(3) 0.0479 Uani
O1 O 0.4239(3) 0.1098(8) 0.5462(3) 0.1080 Uani
O2 O 0.43468(18) 0.1898(5) 0.60282(19) 0.0527 Uani
O3 O 0.6128(2) 0.1015(6) 0.5300(2) 0.0747 Uani
O4 O 0.5596(2) 0.0138(5) 0.5191(3) 0.0582 Uani
O5 O 0.6352(2) 0.2213(6) 0.83953(16) 0.0861 Uani
O6 O 0.6734(2) 0.2315(5) 0.92160(16) 0.0694 Uani
O7 O 0.8223(3) 0.3583(6) 0.99982(18) 0.0934 Uani
O8 O 0.8471(2) 0.4425(5) 0.95872(16) 0.0618 Uani
O9 O 0.8602(2) 0.5596(5) 0.60051(16) 0.0639 Uani
O10 O 0.8504(4) 0.4725(7) 0.5431(2) 0.0992 Uani
O11 O 0.9529(4) 0.5505(8) 1.0795(3) 0.1101 Uani
N1 N 0.6620(2) 0.2900(6) 0.6467(2) 0.0582 Uani
N2 N 0.6716(3) 0.3229(6) 0.72682(19) 0.0645 Uani
N3 N 0.7287(3) 0.3616(6) 0.70206(19) 0.0718 Uani
N4 N 0.6069(2) 0.2599(7) 0.67399(19) 0.0679 Uani
H1 H 0.5975 0.2703 0.6959 0.0820 Uiso
N5 N 0.7403(3) 0.3802(6) 0.78107(18) 0.0615 Uani
H2 H 0.7612 0.4134 0.7830 0.0740 Uiso
N6 N 0.7145(3) 0.3292(6) 0.6209(2) 0.0689 Uani
H3 H 0.6978 0.3008 0.5959 0.0830 Uiso
C1 C 0.6471(3) 0.2895(7) 0.6818(2) 0.0519 Uani
C2 C 0.7015(3) 0.3249(8) 0.6581(2) 0.0658 Uani
C3 C 0.7103(3) 0.3525(7) 0.7349(3) 0.0449 Uani
C4 C 0.5760(3) 0.2123(7) 0.6342(2) 0.0512 Uani
C5 C 0.5315(3) 0.2026(7) 0.6275(2) 0.0477 Uani
H4 H 0.5212 0.2290 0.6477 0.0570 Uiso
C6 C 0.5004(3) 0.1531(6) 0.5905(2) 0.0337 Uani
C7 C 0.5175(3) 0.1152(8) 0.5610(3) 0.0568 Uani
H5 H 0.4978 0.0828 0.5358 0.0680 Uiso
C8 C 0.5609(3) 0.1249(7) 0.5684(2) 0.0548 Uani
C9 C 0.5932(3) 0.1749(8) 0.6050(3) 0.0621 Uani
H6 H 0.6237 0.1819 0.6090 0.0740 Uiso
C10 C 0.5792(2) 0.0752(10) 0.5376(3) 0.0685 Uani
C11 C 0.4502(3) 0.1394(7) 0.5806(3) 0.0515 Uani
C12 C 0.7388(3) 0.3575(7) 0.8254(2) 0.0520 Uani
C13 C 0.7037(3) 0.3161(7) 0.8295(2) 0.0569 Uani
H7 H 0.6779 0.3007 0.8010 0.0690 Uiso
C14 C 0.7057(3) 0.2967(7) 0.8750(2) 0.0521 Uani
C15 C 0.6697(3) 0.2471(8) 0.8782(2) 0.0717 Uani
C16 C 0.7428(3) 0.3219(7) 0.9175(3) 0.0460 Uani
H8 H 0.7444 0.3099 0.9481 0.0550 Uiso
C17 C 0.7781(3) 0.3661(7) 0.9138(3) 0.0486 Uani
C18 C 0.8206(4) 0.3915(9) 0.9607(2) 0.0815 Uani
C19 C 0.7772(3) 0.3829(7) 0.8689(2) 0.0633 Uani
H9 H 0.8015 0.4107 0.8673 0.0760 Uiso
C20 C 0.7485(4) 0.3694(9) 0.6155(2) 0.0768 Uani
C21 C 0.7742(3) 0.4328(7) 0.6440(3) 0.0582 Uani
H10 H 0.7697 0.4492 0.6709 0.0700 Uiso
C22 C 0.8052(4) 0.4698(9) 0.6323(3) 0.0794 Uani
H11 H 0.8225 0.5105 0.6521 0.0950 Uiso
C23 C 0.8122(3) 0.4487(8) 0.5912(3) 0.0559 Uani
C24 C 0.7901(4) 0.3849(9) 0.5659(4) 0.0663 Uani
H12 H 0.7963 0.3677 0.5403 0.0800 Uiso
C25 C 0.7595(4) 0.3454(8) 0.5766(3) 0.0587 Uani
H13 H 0.7450 0.3016 0.5584 0.0710 Uiso
C26 C 0.8434(4) 0.5023(8) 0.5767(3) 0.0573 Uani
Zn1C Zn 0.60358(3) -0.00104(7) 0.48278(2) 0.0445 Uani
Zn1E Zn 0.89642(3) 0.50104(7) 0.51722(2) 0.0445 Uani
Zn1G Zn 0.39642(3) 0.00104(7) 0.51722(2) 0.0445 Uani
Zn2E Zn 0.86615(3) 0.65637(8) 0.56906(3) 0.0479 Uani
Zn2F Zn 0.63385(3) 0.15637(8) 0.93094(3) 0.0479 Uani
Zn2G Zn 0.36615(3) 0.15637(8) 0.56906(3) 0.0479 Uani
O1G O 0.9239(3) 0.3902(8) 1.0462(3) 0.1080 Uani
O2G O 0.93468(18) 0.3102(5) 1.10282(19) 0.0527 Uani
O3C O 0.8872(2) 0.6015(6) 0.9700(2) 0.0747 Uani
O4C O 0.9404(2) 0.5138(5) 0.9809(3) 0.0582 Uani
O6F O 0.8266(2) 0.2685(5) 1.07840(16) 0.0694 Uani
O9E O 0.8602(2) 0.4404(5) 1.10051(16) 0.0639 Uani
O10E O 0.8504(4) 0.5275(7) 1.0431(2) 0.0992 Uani
loop_
_atom_site_aniso_label
_atom_site_aniso_U_11
_atom_site_aniso_U_22
_atom_site_aniso_U_33
_atom_site_aniso_U_23
_atom_site_aniso_U_13
_atom_site_aniso_U_12
Zn1 0.0323(4) 0.0766(10) 0.0236(4) 0.0005(3) 0.0114(3) -0.0048(5)
Zn2 0.0296(4) 0.0758(11) 0.0376(4) 0.0030(4) 0.0143(3) -0.0045(5)
O1 0.054(4) 0.150(13) 0.139(7) -0.101(8) 0.060(4) -0.027(6)
O2 0.032(2) 0.077(7) 0.057(3) -0.015(3) 0.027(2) -0.004(3)
O3 0.051(3) 0.137(10) 0.050(3) -0.028(4) 0.035(3) -0.036(5)
O4 0.054(4) 0.053(8) 0.089(4) -0.033(4) 0.051(3) -0.020(4)
O5 0.063(4) 0.166(10) 0.020(2) -0.007(3) 0.010(2) -0.061(5)
O6 0.056(3) 0.115(8) 0.018(2) 0.009(3) -0.001(2) -0.025(4)
O7 0.096(5) 0.152(10) 0.024(2) 0.000(3) 0.019(3) -0.082(6)
O8 0.053(3) 0.110(8) 0.029(2) -0.008(3) 0.024(2) -0.039(4)
O9 0.070(4) 0.096(8) 0.029(2) -0.004(3) 0.025(2) -0.033(4)
O10 0.128(7) 0.147(11) 0.055(4) -0.040(4) 0.070(4) -0.061(7)
O11 0.112(4) 0.110(4) 0.106(3) -0.003(2) 0.046(2) -0.003(2)
N1 0.046(4) 0.105(10) 0.033(3) -0.013(3) 0.026(3) -0.024(5)
N2 0.063(4) 0.112(10) 0.022(3) -0.013(3) 0.022(3) -0.032(5)
N3 0.061(4) 0.138(11) 0.018(3) -0.023(3) 0.019(3) -0.035(5)
N4 0.045(3) 0.140(11) 0.024(3) -0.015(3) 0.020(2) -0.034(5)
N5 0.059(4) 0.108(9) 0.022(3) -0.010(3) 0.022(2) -0.043(5)
N6 0.071(5) 0.117(10) 0.026(3) -0.020(3) 0.028(3) -0.052(6)
C1 0.054(5) 0.084(10) 0.025(3) -0.011(3) 0.024(3) -0.026(5)
C2 0.058(5) 0.121(12) 0.023(3) -0.019(4) 0.022(3) -0.041(6)
C3 0.046(2) 0.046(2) 0.0430(19) 0.0004(10) 0.0200(11) -0.0013(10)
C4 0.047(4) 0.082(9) 0.023(3) -0.017(3) 0.014(3) -0.012(5)
C5 0.038(4) 0.080(9) 0.027(3) -0.008(3) 0.016(3) 0.004(5)
C6 0.038(3) 0.028(7) 0.042(3) -0.002(3) 0.024(3) 0.002(4)
C7 0.035(4) 0.086(10) 0.047(4) -0.019(4) 0.016(3) 0.012(5)
C8 0.032(3) 0.100(11) 0.034(3) -0.014(4) 0.016(3) -0.013(5)
C9 0.046(4) 0.103(12) 0.043(4) -0.008(4) 0.025(3) -0.007(6)
C10 0.020(3) 0.150(15) 0.037(4) -0.003(5) 0.014(3) 0.011(6)
C11 0.051(2) 0.053(2) 0.051(2) -0.0004(10) 0.0229(12) 0.0004(10)
C12 0.047(4) 0.085(10) 0.019(3) 0.003(3) 0.010(3) -0.026(5)
C13 0.045(4) 0.101(11) 0.027(3) -0.001(3) 0.018(3) -0.032(6)
C14 0.049(4) 0.087(10) 0.027(3) -0.003(3) 0.023(3) -0.032(5)
C15 0.035(4) 0.162(14) 0.020(3) 0.009(4) 0.014(3) -0.027(6)
C16 0.047(2) 0.047(2) 0.0443(19) -0.0003(10) 0.0205(11) -0.0017(10)
C17 0.049(2) 0.050(2) 0.047(2) 0.0004(10) 0.0215(12) -0.0024(10)
C18 0.074(6) 0.147(14) 0.016(3) -0.013(4) 0.013(3) -0.027(8)
C19 0.058(5) 0.097(11) 0.030(3) -0.012(4) 0.015(3) -0.046(6)
C20 0.082(7) 0.125(13) 0.024(3) -0.006(4) 0.024(4) -0.043(8)
C21 0.078(6) 0.075(11) 0.042(4) -0.020(4) 0.045(4) -0.040(6)
C22 0.095(8) 0.113(14) 0.042(4) -0.007(5) 0.041(5) -0.036(9)
C23 0.057(2) 0.058(2) 0.055(2) 0.0002(10) 0.0268(13) -0.0013(10)
C24 0.067(3) 0.068(3) 0.066(3) 0.0000(10) 0.0313(14) -0.0012(10)
C25 0.060(2) 0.060(3) 0.058(2) -0.0009(10) 0.0279(13) -0.0013(10)
C26 0.058(3) 0.059(3) 0.056(2) -0.0003(10) 0.0262(13) -0.0006(10)
Zn1C 0.0323 0.0766 0.0236 -0.0005 0.0114 0.0048
Zn1E 0.0323 0.0766 0.0236 -0.0005 0.0114 0.0048
Zn1G 0.0323 0.0766 0.0236 -0.0005 0.0114 0.0048
Zn2E 0.0296 0.0758 0.0376 -0.003 0.0143 0.0045
Zn2F 0.0296 0.0758 0.0376 0.003 0.0143 -0.0045
Zn2G 0.0296 0.0758 0.0376 -0.003 0.0143 0.0045
O1G 0.054 0.15 0.139 0.101 0.06 0.027
O2G 0.032 0.077 0.057 0.015 0.027 0.004
O3C 0.051 0.137 0.05 0.028 0.035 0.036
O4C 0.054 0.053 0.089 0.033 0.051 0.02
O6F 0.056 0.115 0.018 0.009 -0.001 -0.025
O9E 0.07 0.096 0.029 0.004 0.025 0.033
O10E 0.128 0.147 0.055 0.04 0.07 0.061
loop_
_geom_bond_atom_site_label_1
_geom_bond_atom_site_label_2
_geom_bond_site_symmetry_1
_geom_bond_site_symmetry_2
Zn1 O8 1_555 1_555
Zn2 O7 1_555 1_555
O1 C11 1_555 1_555
O2 C11 1_555 1_555
O3 C10 1_555 1_555
O4 C10 1_555 1_555
O5 C15 1_555 1_555
O6 C15 1_555 1_555
O7 C18 1_555 1_555
O8 C18 1_555 1_555
O9 C26 1_555 1_555
O10 C26 1_555 1_555
O11 Zn1 1_555 1_555
N1 C1 1_555 1_555
N2 C1 1_555 1_555
N3 C2 1_555 1_555
N4 H1 1_555 1_555
N5 H2 1_555 1_555
N6 H3 1_555 1_555
C1 N4 1_555 1_555
C2 N1 1_555 1_555
C3 N2 1_555 1_555
C4 N4 1_555 1_555
C5 C4 1_555 1_555
H4 C5 1_555 1_555
C6 C5 1_555 1_555
C7 C6 1_555 1_555
H5 C7 1_555 1_555
C8 C7 1_555 1_555
C9 C4 1_555 1_555
H6 C9 1_555 1_555
C10 C8 1_555 1_555
C11 C6 1_555 1_555
C12 N5 1_555 1_555
C13 C12 1_555 1_555
H7 C13 1_555 1_555
C14 C13 1_555 1_555
C15 C14 1_555 1_555
C16 C14 1_555 1_555
H8 C16 1_555 1_555
C17 C16 1_555 1_555
C18 C17 1_555 1_555
C19 C12 1_555 1_555
H9 C19 1_555 1_555
C20 N6 1_555 1_555
C21 C20 1_555 1_555
H10 C21 1_555 1_555
C22 C21 1_555 1_555
H11 C22 1_555 1_555
C23 C22 1_555 1_555
C24 C23 1_555 1_555
H12 C24 1_555 1_555
C25 C20 1_555 1_555
H13 C25 1_555 1_555
C26 C23 1_555 1_555
Zn1C O3 1_555 1_555
Zn1E O10 1_555 1_555
Zn1G O1 1_555 1_555
Zn2E O9 1_555 1_555
Zn2F O6 1_555 1_555
Zn2G O1 1_555 1_555
O1G Zn1 1_555 1_555
O2G Zn2 1_555 1_555
O3C Zn1 1_555 1_555
O4C Zn1 1_555 1_555
O6F Zn2 1_555 1_555
O9E Zn2 1_555 1_555
O10E Zn1 1_555 1_555
Zn2 O1G 1_555 1_555
O2 Zn2G 1_555 1_555
O4 Zn1C 1_555 1_555
N3 C3 1_555 1_555
N5 C3 1_555 1_555
N6 C2 1_555 1_555
C8 C9 1_555 1_555
C17 C19 1_555 1_555
C24 C25 1_555 1_555

#END
