
#######################################################################
#
#                 Cambridge Crystallographic Data Centre
#                                CCDC 
#
#######################################################################
#
# If this CIF has been generated from an entry in the Cambridge 
# Structural Database, then it will include bibliographic, chemical, 
# crystal, experimental, refinement or atomic coordinate data resulting 
# from the CCDC's data processing and validation procedures.
#
#######################################################################

data_JUWBIO
_chemical_formula_moiety         '(C6 H6 N6 O5 Zn2)n'
_symmetry_cell_setting           monoclinic
_symmetry_space_group_name_H-M   'P 21/c'
_symmetry_Int_Tables_number      14
_space_group_name_Hall           '-P 2ybc'
loop_
_symmetry_equiv_pos_site_id
_symmetry_equiv_pos_as_xyz
1 x,y,z
2 -x,1/2+y,1/2-z
3 -x,-y,-z
4 x,1/2-y,1/2+z
_cell_length_a                   8.9147(3)
_cell_length_b                   9.7297(3)
_cell_length_c                   9.5179(4)
_cell_angle_alpha                90
_cell_angle_beta                 115.745(5)
_cell_angle_gamma                90
_cell_volume                     743.609
loop_
_atom_site_label
_atom_site_type_symbol
_atom_site_fract_x
_atom_site_fract_y
_atom_site_fract_z
Zn1 Zn 0.82463(6) 0.05862(4) 0.06330(5)
O1 O 0.6745(4) -0.0286(3) 0.1731(4)
O2 O 0.4094(4) -0.0773(3) 0.1086(4)
N1 N 0.8983(5) 0.2120(3) 0.2233(4)
N2 N 1.0274(4) 0.3920(4) 0.3643(4)
N3 N 0.9069(4) 0.3531(3) 0.4084(4)
C1 C 0.5241(5) -0.0313(4) 0.0816(5)
C2 C 1.0177(6) 0.3056(4) 0.2539(5)
H1 H 1.0862 0.3095 0.2031
C3 C 0.8347(5) 0.2449(4) 0.3237(5)
H2 H 0.7492 0.1964 0.3322
O1B O 0.3255(4) 0.0286(3) -0.1731(4)
O2B O 0.5906(4) 0.0773(3) -0.1086(4)
C1B C 0.4759(5) 0.0313(4) -0.0816(5)
Zn1B Zn 0.17537(6) -0.05862(4) -0.06330(5)
N1B N 0.1017(5) -0.2120(3) -0.2233(4)
N2B N -0.0274(4) -0.3920(4) -0.3643(4)
N3B N 0.0931(4) -0.3531(3) -0.4084(4)
C2B C -0.0177(6) -0.3056(4) -0.2539(5)
H1B H -0.0862 -0.3095 -0.2031
C3B C 0.1653(5) -0.2449(4) -0.3237(5)
H2B H 0.2508 -0.1964 -0.3322
Zn1A Zn 0.17537(6) -0.44138(4) -0.56330(5)
Zn1A_2 Zn 1.17537(6) 0.55862(4) 0.43670(5)
Zn1C Zn -0.17537(6) -0.55862(4) -0.43670(5)
Zn1C_2 Zn 0.82463(6) 0.44138(4) 0.56330(5)
N2A N 0.9726(4) -0.1080(4) 0.1357(4)
N2C N 0.0274(4) 0.1080(4) -0.1357(4)
N3A N 0.0931(4) -0.1469(3) 0.0916(4)
N3C N 0.9069(4) 0.1469(3) -0.0916(4)
O3 O 0.5000 1.0000 0.5000
loop_
_geom_bond_atom_site_label_1
_geom_bond_atom_site_label_2
_geom_bond_site_symmetry_1
_geom_bond_site_symmetry_2
Zn1 O1 1_555 1_555
O1 C1 1_555 1_555
O2 C1 1_555 1_555
N1 Zn1 1_555 1_555
N2 N3 1_555 1_555
N3 C3 1_555 1_555
C1 C1B 1_555 1_555
C2 N1 1_555 1_555
H1 C2 1_555 1_555
C3 N1 1_555 1_555
H2 C3 1_555 1_555
O1B C1B 1_555 1_555
O2B Zn1 1_555 1_555
C1B O2B 1_555 1_555
Zn1B O2 1_555 1_555
N1B Zn1B 1_555 1_555
N2B N3B 1_555 1_555
N3B C3B 1_555 1_555
C2B N1B 1_555 1_555
H1B C2B 1_555 1_555
C3B N1B 1_555 1_555
H2B C3B 1_555 1_555
Zn1A N3B 1_555 1_555
Zn1A_2 N2 1_555 1_555
Zn1C N2B 1_555 1_555
Zn1C_2 N3 1_555 1_555
N2A Zn1 1_555 1_555
N2C Zn1B 1_555 1_555
N3A Zn1B 1_555 1_555
N3C Zn1 1_555 1_555
N2 C2 1_555 1_555
O1B Zn1B 1_555 1_555
N2B C2B 1_555 1_555

#END
