
#######################################################################
#
#                 Cambridge Crystallographic Data Centre
#                                CCDC 
#
#######################################################################
#
# If this CIF has been generated from an entry in the Cambridge 
# Structural Database, then it will include bibliographic, chemical, 
# crystal, experimental, refinement or atomic coordinate data resulting 
# from the CCDC's data processing and validation procedures.
#
#######################################################################

data_RAMSAC
_chemical_formula_moiety         '(C24 H46 N28 O7 Zn4)n'
_symmetry_cell_setting           monoclinic
_symmetry_space_group_name_H-M   'P 21'
_symmetry_Int_Tables_number      4
_space_group_name_Hall           'P 2yb'
loop_
_symmetry_equiv_pos_site_id
_symmetry_equiv_pos_as_xyz
1 x,y,z
2 -x,1/2+y,-z
_cell_length_a                   10.175(4)
_cell_length_b                   21.481(10)
_cell_length_c                   10.493(5)
_cell_angle_alpha                90
_cell_angle_beta                 93.144(9)
_cell_angle_gamma                90
_cell_volume                     2289.99
loop_
_atom_site_label
_atom_site_type_symbol
_atom_site_fract_x
_atom_site_fract_y
_atom_site_fract_z
Zn1 Zn 0.4893(2) 0.42656(11) 0.3209(2)
Zn2 Zn 0.5282(2) 0.65311(11) 0.4850(2)
Zn3 Zn -0.0240(2) 0.47007(11) 0.0156(3)
Zn4 Zn 0.0145(2) 0.69784(11) 0.1835(2)
O1 O 0.5273(15) 0.5530(7) 0.4202(14)
O2 O 0.4706(18) 0.4600(8) 0.4956(16)
O3 O -0.0178(17) 0.5707(9) 0.0855(15)
O4 O 0.0348(17) 0.6634(9) 0.0190(16)
N1 N 0.8455(17) 0.4518(10) 0.1469(19)
N2 N 0.8597(19) 0.3999(10) 0.2236(19)
N3 N 0.7514(17) 0.3885(11) 0.2914(18)
N4 N 0.6709(14) 0.4335(9) 0.2554(16)
N5 N 0.4566(19) 0.3369(10) 0.3592(18)
N6 N 0.3722(19) 0.3051(10) 0.2815(19)
N7 N 0.3733(19) 0.2482(11) 0.327(2)
N8 N 0.4547(18) 0.2432(10) 0.4328(19)
N9 N 0.3557(16) 0.4504(10) 0.1875(18)
N10 N 0.3681(18) 0.4383(12) 0.0639(18)
N11 N 0.2548(19) 0.4506(8) -0.0025(18)
N12 N 0.1653(15) 0.4616(10) 0.0869(17)
N13 N -0.0477(17) 0.2885(9) -0.1493(17)
N14 N -0.1370(17) 0.3227(9) -0.2199(18)
N15 N -0.1391(17) 0.3793(7) -0.1777(17)
N16 N -0.0494(17) 0.3840(9) -0.0776(16)
N17 N 0.8407(16) 0.6860(10) 0.2527(19)
N18 N 0.7383(17) 0.7299(11) 0.2236(19)
N19 N 0.6407(16) 0.7199(12) 0.282(2)
N20 N 0.6682(16) 0.6710(9) 0.3593(16)
N21 N 0.1541(16) 0.6699(9) 0.3132(17)
N22 N 0.1314(17) 0.6803(11) 0.4398(18)
N23 N 0.2416(16) 0.6793(11) 0.5024(15)
N24 N 0.3384(15) 0.6582(10) 0.4251(15)
N25 N 0.554(2) 0.6060(11) 0.6432(18)
H1 H 0.6387 0.5969 0.6566
H2 H 0.5296 0.6292 0.7081
N26 N -0.051(2) 0.5239(9) -0.151(2)
H3 H -0.0123 0.5047 -0.2143
H4 H -0.1362 0.5265 -0.1723
C1 C 0.723(2) 0.4739(13) 0.169(2)
C2 C 0.6560(19) 0.5313(10) 0.114(2)
H5 H 0.5700 0.5350 0.1465
H6 H 0.7073 0.5674 0.1374
H7 H 0.6479 0.5279 0.0225
C3 C 0.503(2) 0.2986(11) 0.447(2)
C4 C 0.597(2) 0.3178(12) 0.5514(19)
H8 H 0.6191 0.3609 0.5414
H9 H 0.5580 0.3119 0.6317
H10 H 0.6757 0.2931 0.5493
C5 C 0.2249(15) 0.4667(10) 0.1939(18)
C6 C 0.159(2) 0.4837(14) 0.312(2)
H11 H 0.2233 0.4849 0.3830
H12 H 0.1188 0.5239 0.3019
H13 H 0.0931 0.4533 0.3288
C7 C 0.006(2) 0.3273(11) -0.059(2)
C8 C 0.109(3) 0.3092(13) 0.040(2)
H14 H 0.1294 0.2659 0.0306
H15 H 0.1863 0.3338 0.0298
H16 H 0.0767 0.3164 0.1229
C9 C 0.7849(17) 0.6526(9) 0.3376(17)
C10 C 0.852(3) 0.6024(13) 0.403(3)
H17 H 0.9376 0.5973 0.3707
H18 H 0.8606 0.6115 0.4928
H19 H 0.8022 0.5647 0.3899
C11 C 0.274(2) 0.6592(10) 0.304(2)
C12 C 0.337(2) 0.6429(15) 0.184(2)
H20 H 0.4297 0.6369 0.2010
H21 H 0.2986 0.6052 0.1493
H22 H 0.3229 0.6760 0.1231
C13 C 0.499(3) 0.5185(12) 0.505(2)
C14 C 0.473(2) 0.5452(10) 0.6383(17)
H23 H 0.3794 0.5563 0.6390
C15 C 0.503(3) 0.5001(9) 0.7466(15)
H24 H 0.4487 0.4639 0.7356
H25 H 0.5943 0.4880 0.7467
H26 H 0.4869 0.5198 0.8263
C16 C 0.010(3) 0.6077(14) -0.004(3)
C17 C 0.002(2) 0.5852(12) -0.138(2)
H27 H -0.0490 0.6143 -0.1933
C18 C 0.140(2) 0.5767(11) -0.186(2)
H28 H 0.1856 0.6158 -0.1814
H29 H 0.1870 0.5468 -0.1330
H30 H 0.1336 0.5623 -0.2723
Zn2A Zn 0.4718(2) 0.15311(11) 0.5150(2)
Zn3_2 Zn 0.9760(2) 0.47007(11) 0.0156(3)
Zn4_2 Zn 1.0145(2) 0.69784(11) 0.1835(2)
Zn4A Zn -0.0145(2) 0.19784(11) -0.1835(2)
N1_2 N -0.1545(17) 0.4518(10) 0.1469(19)
N8A N 0.5453(18) 0.7432(10) 0.5672(19)
N13A N 0.0477(17) 0.7885(9) 0.1493(17)
N17_2 N -0.1593(16) 0.6860(10) 0.2527(19)
O5 O 0.511(2) 0.6534(12) 0.8995(16)
N27 N 0.414(4) 0.7489(19) 0.937(3)
C19 C 0.525(4) 0.708(2) 0.943(3)
H31 H 0.6066 0.7214 0.9776
C20 C 0.299(3) 0.742(2) 0.848(4)
H32 H 0.2372 0.7752 0.8622
H33 H 0.3263 0.7451 0.7617
H34 H 0.2576 0.7029 0.8603
C21 C 0.419(3) 0.8103(15) 1.006(3)
H35 H 0.3368 0.8315 0.9918
H36 H 0.4365 0.8033 1.0955
H37 H 0.4885 0.8353 0.9737
O6 O 0.005(2) 0.4673(14) -0.393(2)
N28 N 0.077(3) 0.3724(14) -0.437(2)
C22 C 0.002(3) 0.418(2) -0.446(2)
H38 H -0.0684 0.4124 -0.5051
C23 C 0.204(3) 0.3854(13) -0.372(3)
H39 H 0.2557 0.3481 -0.3684
H40 H 0.2482 0.4169 -0.4181
H41 H 0.1909 0.3998 -0.2869
C24 C 0.046(4) 0.317(2) -0.502(4)
H42 H 0.1143 0.2873 -0.4838
H43 H -0.0361 0.3013 -0.4752
H44 H 0.0390 0.3254 -0.5921
O7 O 0.7463(18) 0.4905(9) 0.6471(18)
H45 H 0.8253 0.4965 0.6262
H46 H 0.7111 0.4752 0.5785
loop_
_geom_bond_atom_site_label_1
_geom_bond_atom_site_label_2
_geom_bond_site_symmetry_1
_geom_bond_site_symmetry_2
Zn1 O2 1_555 1_555
Zn2 O1 1_555 1_555
Zn3 O3 1_555 1_555
Zn4 O4 1_555 1_555
O1 C13 1_555 1_555
O2 C13 1_555 1_555
O3 C16 1_555 1_555
O4 C16 1_555 1_555
N1 N2 1_555 1_555
N2 N3 1_555 1_555
N3 N4 1_555 1_555
N4 Zn1 1_555 1_555
N5 Zn1 1_555 1_555
N6 N5 1_555 1_555
N7 N6 1_555 1_555
N8 N7 1_555 1_555
N9 Zn1 1_555 1_555
N10 N9 1_555 1_555
N11 N10 1_555 1_555
N12 Zn3 1_555 1_555
N13 N14 1_555 1_555
N14 N15 1_555 1_555
N15 N16 1_555 1_555
N16 Zn3 1_555 1_555
N17 N18 1_555 1_555
N18 N19 1_555 1_555
N19 N20 1_555 1_555
N20 Zn2 1_555 1_555
N21 Zn4 1_555 1_555
N22 N21 1_555 1_555
N23 N22 1_555 1_555
N24 Zn2 1_555 1_555
N25 Zn2 1_555 1_555
H1 N25 1_555 1_555
H2 N25 1_555 1_555
N26 Zn3 1_555 1_555
H3 N26 1_555 1_555
H4 N26 1_555 1_555
C1 N1 1_555 1_555
C2 C1 1_555 1_555
H5 C2 1_555 1_555
H6 C2 1_555 1_555
H7 C2 1_555 1_555
C3 N5 1_555 1_555
C4 C3 1_555 1_555
H8 C4 1_555 1_555
H9 C4 1_555 1_555
H10 C4 1_555 1_555
C5 N9 1_555 1_555
C6 C5 1_555 1_555
H11 C6 1_555 1_555
H12 C6 1_555 1_555
H13 C6 1_555 1_555
C7 N13 1_555 1_555
C8 C7 1_555 1_555
H14 C8 1_555 1_555
H15 C8 1_555 1_555
H16 C8 1_555 1_555
C9 N17 1_555 1_555
C10 C9 1_555 1_555
H17 C10 1_555 1_555
H18 C10 1_555 1_555
H19 C10 1_555 1_555
C11 N21 1_555 1_555
C12 C11 1_555 1_555
H20 C12 1_555 1_555
H21 C12 1_555 1_555
H22 C12 1_555 1_555
C13 C14 1_555 1_555
C14 N25 1_555 1_555
H23 C14 1_555 1_555
C15 C14 1_555 1_555
H24 C15 1_555 1_555
H25 C15 1_555 1_555
H26 C15 1_555 1_555
C16 C17 1_555 1_555
C17 N26 1_555 1_555
H27 C17 1_555 1_555
C18 C17 1_555 1_555
H28 C18 1_555 1_555
H29 C18 1_555 1_555
H30 C18 1_555 1_555
O5 C19 1_555 1_555
N27 C19 1_555 1_555
C19 H31 1_555 1_555
C20 N27 1_555 1_555
H32 C20 1_555 1_555
H33 C20 1_555 1_555
H34 C20 1_555 1_555
C21 N27 1_555 1_555
H35 C21 1_555 1_555
H36 C21 1_555 1_555
H37 C21 1_555 1_555
O6 C22 1_555 1_555
N28 C22 1_555 1_555
C22 H38 1_555 1_555
C23 N28 1_555 1_555
H39 C23 1_555 1_555
H40 C23 1_555 1_555
H41 C23 1_555 1_555
C24 N28 1_555 1_555
H42 C24 1_555 1_555
H43 C24 1_555 1_555
H44 C24 1_555 1_555
O7 H45 1_555 1_555
H46 O7 1_555 1_555
Zn2A N8 1_555 1_555
Zn3_2 N1 1_555 1_555
Zn4_2 N17 1_555 1_555
Zn4A N13 1_555 1_555
N1_2 Zn3 1_555 1_555
N8A Zn2 1_555 1_555
N13A Zn4 1_555 1_555
N17_2 Zn4 1_555 1_555
N4 C1 1_555 1_555
N8 C3 1_555 1_555
N11 N12 1_555 1_555
N12 C5 1_555 1_555
N16 C7 1_555 1_555
N20 C9 1_555 1_555
N23 N24 1_555 1_555
N24 C11 1_555 1_555

#END
