
#######################################################################
#
#                 Cambridge Crystallographic Data Centre
#                                CCDC 
#
#######################################################################
#
# If this CIF has been generated from an entry in the Cambridge 
# Structural Database, then it will include bibliographic, chemical, 
# crystal, experimental, refinement or atomic coordinate data resulting 
# from the CCDC's data processing and validation procedures.
#
#######################################################################

data_CUXFIL
_chemical_formula_moiety         '(C84 H64 Mn6 N4 O28)n'
_symmetry_cell_setting           triclinic
_symmetry_space_group_name_H-M   'P -1'
_symmetry_Int_Tables_number      2
_space_group_name_Hall           '-P 1'
loop_
_symmetry_equiv_pos_site_id
_symmetry_equiv_pos_as_xyz
1 x,y,z
2 -x,-y,-z
_cell_length_a                   12.283(3)
_cell_length_b                   13.386(3)
_cell_length_c                   13.931(3)
_cell_angle_alpha                102.14(3)
_cell_angle_beta                 101.47(3)
_cell_angle_gamma                95.13(3)
_cell_volume                     2173.91
loop_
_atom_site_label
_atom_site_type_symbol
_atom_site_fract_x
_atom_site_fract_y
_atom_site_fract_z
Mn1 Mn 0.0000 0.0000 0.0000
Mn2 Mn -0.10143(3) -0.11659(3) -0.24925(3)
Mn3 Mn -0.91310(3) -0.24289(3) -0.39220(3)
Mn4 Mn 0.0000 -0.5000 0.5000
O1 O -0.16227(13) -0.00827(13) -0.10538(13)
O2 O -0.27715(14) -0.10655(15) -0.24275(14)
O3 O -0.94640(13) -0.02538(13) -0.14500(12)
O4 O -0.90054(13) -0.10328(12) -0.28331(13)
O5 O -0.02478(14) -0.16153(12) -0.00750(13)
O6 O -0.08929(15) -0.23406(13) -0.17271(13)
O7 O -0.11250(15) -0.67947(13) 0.27620(13)
O8 O -0.04018(15) -0.51304(13) 0.34331(13)
O9 O -0.06831(13) -0.35285(12) -0.47447(13)
O10 O -0.12730(14) -0.21842(13) -0.39101(13)
O11 O -0.85070(13) -0.39170(13) -0.49761(13)
O12 O -0.74340(14) -0.24548(14) -0.41261(14)
C1 C -0.46492(19) -0.03139(18) -0.17892(19)
H1 H -0.4785 -0.0899 -0.2340
C2 C -0.35621(19) 0.01031(18) -0.13095(19)
C3 C -0.33521(19) 0.09941(18) -0.05033(19)
H2 H -0.2601 0.1281 -0.0174
C4 C -0.4220(2) 0.14429(18) -0.01976(19)
H3 H -0.4066 0.2048 0.0332
C5 C -0.62708(19) 0.14314(18) -0.03293(19)
H4 H -0.6137 0.2041 0.0194
C6 C -0.73435(19) 0.09679(17) -0.07509(18)
H5 H -0.7949 0.1249 -0.0511
C7 C -0.75605(18) 0.00681(17) -0.15451(18)
C8 C -0.66937(19) -0.03352(18) -0.19133(18)
H6 H -0.6849 -0.0920 -0.2466
C9 C -0.55708(19) 0.01172(18) -0.14728(18)
C10 C -0.53509(19) 0.10148(18) -0.06627(18)
C11 C -0.25994(19) -0.03905(18) -0.16182(19)
C12 C -0.87336(18) -0.04438(16) -0.19662(18)
C13 C -0.0749(2) -0.35663(19) 0.03498(19)
H7 H -0.0262 -0.3056 0.0875
C14 C -0.1074(2) -0.33713(18) -0.05836(19)
C15 C -0.1813(2) -0.4129(2) -0.1361(2)
H8 H -0.2030 -0.4000 -0.2012
C16 C -0.2215(3) -0.5036(2) -0.1187(2)
H9 H -0.2727 -0.5525 -0.1713
C17 C -0.2283(3) -0.6212(2) -0.0026(2)
H10 H -0.2797 -0.6715 -0.0537
C18 C -0.1931(2) -0.6402(2) 0.0905(2)
H11 H -0.2188 -0.7045 0.1028
C19 C -0.1194(2) -0.56570(19) 0.16857(19)
C20 C -0.0804(2) -0.47404(19) 0.15063(19)
H12 H -0.0306 -0.4242 0.2034
C21 C -0.1130(2) -0.45213(19) 0.05427(19)
C22 C -0.1883(2) -0.5264(2) -0.0236(2)
C23 C -0.0697(2) -0.23593(18) -0.08111(19)
C24 C -0.08693(19) -0.58856(19) 0.27068(19)
C25 C -0.35249(18) -0.30647(17) -0.47196(18)
H13 H -0.3376 -0.2486 -0.4162
C26 C -0.26482(18) -0.34578(17) -0.50811(17)
C27 C -0.28593(19) -0.42883(18) -0.59415(18)
H14 H -0.2251 -0.4541 -0.6199
C28 C -0.39382(19) -0.47307(18) -0.64056(19)
H15 H -0.4072 -0.5280 -0.6989
C29 C -0.59721(19) -0.48663(18) -0.64258(18)
H16 H -0.6123 -0.5435 -0.6994
C30 C -0.68325(19) -0.45357(18) -0.60122(18)
H17 H -0.7573 -0.4886 -0.6284
C31 C -0.66299(19) -0.36736(18) -0.51800(18)
C32 C -0.55583(19) -0.31684(18) -0.47735(18)
H18 H -0.5430 -0.2584 -0.4223
C33 C -0.46417(19) -0.35132(18) -0.51695(18)
C34 C -0.48576(19) -0.43725(18) -0.60193(18)
C35 C -0.14757(19) -0.30340(18) -0.45409(17)
C36 C -0.75788(19) -0.33275(19) -0.47234(19)
O13 O -0.11406(17) 0.01122(15) -0.32138(15)
N1 N -0.2105(2) 0.1464(2) -0.3159(2)
C37 C -0.1301(2) 0.0970(2) -0.2786(2)
H19 H -0.0821 0.1294 -0.2152
C38 C -0.2888(3) 0.0992(3) -0.4099(3)
H20 H -0.2942 0.0240 -0.4213
H21 H -0.3628 0.1202 -0.4071
H22 H -0.2627 0.1213 -0.4652
C39 C -0.2183(4) 0.2512(3) -0.2663(4)
H23 H -0.1930 0.2988 -0.3045
H24 H -0.2963 0.2576 -0.2626
H25 H -0.1709 0.2681 -0.1980
O14 O -0.95475(15) -0.16878(15) -0.51678(14)
N2 N -1.1205(2) -0.1688(3) -0.6225(3)
C40 C -1.0254(4) -0.2193(4) -0.5957(4)
H26 H -1.0157 -0.2846 -0.6331
C41 C -1.1962(6) -0.2420(5) -0.7271(5)
H27 H -1.1989 -0.2052 -0.7812
H28 H -1.1628 -0.3053 -0.7445
H29 H -1.2724 -0.2596 -0.7188
C42 C -1.1501(9) -0.0868(5) -0.5847(5)
H30 H -1.1195 -0.0314 -0.6119
H31 H -1.2322 -0.0931 -0.6006
H32 H -1.1222 -0.0706 -0.5114
Mn1_2 Mn -1.0000 0.0000 0.0000
Mn1_3 Mn 1.0000 0.0000 0.0000
Mn2A Mn 0.10143(3) 0.11659(3) 0.24925(3)
Mn2_2 Mn -1.10143(3) -0.11659(3) -0.24925(3)
Mn2A_2 Mn 1.10143(3) 0.11659(3) 0.24925(3)
Mn3A Mn 0.91310(3) 0.24289(3) 0.39220(3)
Mn3A_2 Mn -0.08690(3) -0.75711(3) 0.39220(3)
Mn3_2 Mn 0.08690(3) -0.24289(3) -0.39220(3)
Mn3_3 Mn 0.08690(3) 0.75711(3) -0.39220(3)
Mn3_4 Mn -1.91310(3) -0.24289(3) -0.39220(3)
Mn4_2 Mn -0.0000 -0.5000 -0.5000
Mn4_3 Mn -1.0000 -0.5000 -0.5000
Mn4_4 Mn -0.0000 0.5000 -0.5000
Mn4_5 Mn -2.0000 -0.5000 -0.5000
O1A O 0.16227(13) 0.00827(13) 0.10538(13)
O2A O 0.27715(14) 0.10655(15) 0.24275(14)
O3A O 0.94640(13) 0.02538(13) 0.14500(12)
O3_2 O 0.05360(13) -0.02538(13) -0.14500(12)
O3A_2 O -0.05360(13) 0.02538(13) 0.14500(12)
O4A O 0.90054(13) 0.10328(12) 0.28331(13)
O5A O 0.02478(14) 0.16153(12) 0.00750(13)
O6A O 0.08929(15) 0.23406(13) 0.17271(13)
O7A O 0.11250(15) 0.67947(13) -0.27620(13)
O7A_2 O -0.88750(15) -0.32053(13) -0.27620(13)
O7_2 O 0.88750(15) 0.32053(13) 0.27620(13)
O8A O 0.04018(15) 0.51304(13) -0.34331(13)
O8A_2 O 0.04018(15) -0.48696(13) 0.65669(13)
O9_2 O -1.06831(13) -0.35285(12) -0.47447(13)
O9_3 O -0.06831(13) -0.35285(12) 0.52553(13)
O9A O 0.06831(13) -0.64715(12) 0.47447(13)
O9A_2 O 1.06831(13) 0.35285(12) 0.47447(13)
O10_2 O -1.12730(14) -0.21842(13) -0.39101(13)
O10A O 0.12730(14) 0.21842(13) 0.39101(13)
O11_2 O -1.85070(13) -0.39170(13) -0.49761(13)
O11_3 O 0.14930(13) -0.39170(13) 0.50239(13)
O11A O -0.14930(13) -0.60830(13) 0.49761(13)
O11A_2 O 0.85070(13) 0.39170(13) 0.49761(13)
O12_2 O -1.74340(14) -0.24548(14) -0.41261(14)
O12A O 0.74340(14) 0.24548(14) 0.41261(14)
C1A C 0.46492(19) 0.03139(18) 0.17892(19)
H1A H 0.4785 0.0899 0.2340
C2A C 0.35621(19) -0.01031(18) 0.13095(19)
C3A C 0.33521(19) -0.09941(18) 0.05033(19)
H2A H 0.2601 -0.1281 0.0174
C4A C 0.4220(2) -0.14429(18) 0.01976(19)
H3A H 0.4066 -0.2048 -0.0332
C5A C 0.62708(19) -0.14314(18) 0.03293(19)
H4A H 0.6137 -0.2041 -0.0194
C6A C 0.73435(19) -0.09679(17) 0.07509(18)
H5A H 0.7949 -0.1249 0.0511
C7A C 0.75605(18) -0.00681(17) 0.15451(18)
C8A C 0.66937(19) 0.03352(18) 0.19133(18)
H6A H 0.6849 0.0920 0.2466
C9A C 0.55708(19) -0.01172(18) 0.14728(18)
C10A C 0.53509(19) -0.10148(18) 0.06627(18)
C11A C 0.25994(19) 0.03905(18) 0.16182(19)
C12A C 0.87336(18) 0.04438(16) 0.19662(18)
C13A C 0.0749(2) 0.35663(19) -0.03498(19)
H7A H 0.0262 0.3056 -0.0875
C14A C 0.1074(2) 0.33713(18) 0.05836(19)
C15A C 0.1813(2) 0.4129(2) 0.1361(2)
H8A H 0.2030 0.4000 0.2012
C16A C 0.2215(3) 0.5036(2) 0.1187(2)
H9A H 0.2727 0.5525 0.1713
C17A C 0.2283(3) 0.6212(2) 0.0026(2)
H10A H 0.2797 0.6715 0.0537
C18A C 0.1931(2) 0.6402(2) -0.0905(2)
H11A H 0.2188 0.7045 -0.1028
C19A C 0.1194(2) 0.56570(19) -0.16857(19)
C20A C 0.0804(2) 0.47404(19) -0.15063(19)
H12A H 0.0306 0.4242 -0.2034
C21A C 0.1130(2) 0.45213(19) -0.05427(19)
C22A C 0.1883(2) 0.5264(2) 0.0236(2)
C23A C 0.0697(2) 0.23593(18) 0.08111(19)
C24A C 0.08693(19) 0.58856(19) -0.27068(19)
C25_2 C -1.35249(18) -0.30647(17) -0.47196(18)
H13_2 H -1.3376 -0.2486 -0.4162
C26_2 C -1.26482(18) -0.34578(17) -0.50811(17)
C27_2 C -1.28593(19) -0.42883(18) -0.59415(18)
H14_2 H -1.2251 -0.4541 -0.6199
C28_2 C -1.39382(19) -0.47307(18) -0.64056(19)
H15_2 H -1.4072 -0.5280 -0.6989
C29_2 C -1.59721(19) -0.48663(18) -0.64258(18)
H16_2 H -1.6123 -0.5435 -0.6994
C30_2 C -1.68325(19) -0.45357(18) -0.60122(18)
H17_2 H -1.7573 -0.4886 -0.6284
C31_2 C -1.66299(19) -0.36736(18) -0.51800(18)
C32_2 C -1.55583(19) -0.31684(18) -0.47735(18)
H18_2 H -1.5430 -0.2584 -0.4223
C33_2 C -1.46417(19) -0.35132(18) -0.51695(18)
C34_2 C -1.48576(19) -0.43725(18) -0.60193(18)
C35_2 C -1.14757(19) -0.30340(18) -0.45409(17)
C36_2 C -1.75788(19) -0.33275(19) -0.47234(19)
O13A O 0.11406(17) -0.01122(15) 0.32138(15)
N1A N 0.2105(2) -0.1464(2) 0.3159(2)
C37A C 0.1301(2) -0.0970(2) 0.2786(2)
H19A H 0.0821 -0.1294 0.2152
C38A C 0.2888(3) -0.0992(3) 0.4099(3)
H20A H 0.2942 -0.0240 0.4213
H21A H 0.3628 -0.1202 0.4071
H22A H 0.2627 -0.1213 0.4652
C39A C 0.2183(4) -0.2512(3) 0.2663(4)
H23A H 0.1930 -0.2988 0.3045
H24A H 0.2963 -0.2576 0.2626
H25A H 0.1709 -0.2681 0.1980
O14A O 0.95475(15) 0.16878(15) 0.51678(14)
N2A N 1.1205(2) 0.1688(3) 0.6225(3)
C40A C 1.0254(4) 0.2193(4) 0.5957(4)
H26A H 1.0157 0.2846 0.6331
C41A C 1.1962(6) 0.2420(5) 0.7271(5)
H27A H 1.1989 0.2052 0.7812
H28A H 1.1628 0.3053 0.7445
H29A H 1.2724 0.2596 0.7188
C42A C 1.1501(9) 0.0868(5) 0.5847(5)
H30A H 1.1195 0.0314 0.6119
H31A H 1.2322 0.0931 0.6006
H32A H 1.1222 0.0706 0.5114
loop_
_geom_bond_atom_site_label_1
_geom_bond_atom_site_label_2
_geom_bond_site_symmetry_1
_geom_bond_site_symmetry_2
Mn1 O1 1_555 1_555
Mn2 O1 1_555 1_555
Mn3 O4 1_555 1_555
Mn4 O8 1_555 1_555
O1 C11 1_555 1_555
O2 Mn2 1_555 1_555
O3 C12 1_555 1_555
O4 C12 1_555 1_555
O5 Mn1 1_555 1_555
O6 Mn2 1_555 1_555
O7 C24 1_555 1_555
O8 C24 1_555 1_555
O9 C35 1_555 1_555
O10 Mn2 1_555 1_555
O11 Mn3 1_555 1_555
O12 Mn3 1_555 1_555
C1 H1 1_555 1_555
C2 C1 1_555 1_555
C3 C2 1_555 1_555
H2 C3 1_555 1_555
C4 C3 1_555 1_555
H3 C4 1_555 1_555
C5 H4 1_555 1_555
C6 C5 1_555 1_555
H5 C6 1_555 1_555
C7 C6 1_555 1_555
C8 C7 1_555 1_555
H6 C8 1_555 1_555
C9 C1 1_555 1_555
C10 C4 1_555 1_555
C11 O2 1_555 1_555
C12 C7 1_555 1_555
C13 H7 1_555 1_555
C14 C13 1_555 1_555
C15 C14 1_555 1_555
H8 C15 1_555 1_555
C16 C15 1_555 1_555
H9 C16 1_555 1_555
C17 H10 1_555 1_555
C18 C17 1_555 1_555
H11 C18 1_555 1_555
C19 C18 1_555 1_555
C20 C19 1_555 1_555
H12 C20 1_555 1_555
C21 C13 1_555 1_555
C22 C16 1_555 1_555
C23 O5 1_555 1_555
C24 C19 1_555 1_555
C25 H13 1_555 1_555
C26 C25 1_555 1_555
C27 C26 1_555 1_555
H14 C27 1_555 1_555
C28 C27 1_555 1_555
H15 C28 1_555 1_555
C29 H16 1_555 1_555
C30 C29 1_555 1_555
H17 C30 1_555 1_555
C31 C30 1_555 1_555
C32 C31 1_555 1_555
H18 C32 1_555 1_555
C33 C25 1_555 1_555
C34 C28 1_555 1_555
C35 O10 1_555 1_555
C36 O11 1_555 1_555
O13 Mn2 1_555 1_555
N1 C37 1_555 1_555
C37 O13 1_555 1_555
H19 C37 1_555 1_555
C38 N1 1_555 1_555
H20 C38 1_555 1_555
H21 C38 1_555 1_555
H22 C38 1_555 1_555
C39 N1 1_555 1_555
H23 C39 1_555 1_555
H24 C39 1_555 1_555
H25 C39 1_555 1_555
O14 Mn3 1_555 1_555
N2 C40 1_555 1_555
C40 O14 1_555 1_555
H26 C40 1_555 1_555
C41 N2 1_555 1_555
H27 C41 1_555 1_555
H28 C41 1_555 1_555
H29 C41 1_555 1_555
C42 N2 1_555 1_555
H30 C42 1_555 1_555
H31 C42 1_555 1_555
H32 C42 1_555 1_555
Mn1_2 O3 1_555 1_555
Mn1_3 O3A 1_555 1_555
Mn2A O1A 1_555 1_555
Mn2_2 O3 1_555 1_555
Mn2A_2 O3A 1_555 1_555
Mn3A O4A 1_555 1_555
Mn3A_2 O7 1_555 1_555
Mn3_2 O9 1_555 1_555
Mn3_3 O7A 1_555 1_555
Mn3_4 O11_2 1_555 1_555
Mn4_2 O9 1_555 1_555
Mn4_3 O11 1_555 1_555
Mn4_4 O8A 1_555 1_555
Mn4_5 O11_2 1_555 1_555
O1A Mn1 1_555 1_555
O2A Mn2A 1_555 1_555
O3A C12A 1_555 1_555
O3_2 Mn1 1_555 1_555
O3A_2 Mn1 1_555 1_555
O4A C12A 1_555 1_555
O5A Mn1 1_555 1_555
O6A Mn2A 1_555 1_555
O7A C24A 1_555 1_555
O7A_2 Mn3 1_555 1_555
O7_2 Mn3A 1_555 1_555
O8A C24A 1_555 1_555
O8A_2 Mn4 1_555 1_555
O9_2 Mn3 1_555 1_555
O9_3 Mn4 1_555 1_555
O9A Mn4 1_555 1_555
O9A_2 Mn3A 1_555 1_555
O10_2 Mn2_2 1_555 1_555
O10A Mn2A 1_555 1_555
O11_2 C36_2 1_555 1_555
O11_3 Mn4 1_555 1_555
O11A Mn4 1_555 1_555
O11A_2 Mn3A 1_555 1_555
O12_2 Mn3_4 1_555 1_555
O12A Mn3A 1_555 1_555
C1A H1A 1_555 1_555
C2A C1A 1_555 1_555
C3A C2A 1_555 1_555
H2A C3A 1_555 1_555
C4A C3A 1_555 1_555
H3A C4A 1_555 1_555
C5A H4A 1_555 1_555
C6A C5A 1_555 1_555
H5A C6A 1_555 1_555
C7A C6A 1_555 1_555
C8A C7A 1_555 1_555
H6A C8A 1_555 1_555
C9A C1A 1_555 1_555
C10A C4A 1_555 1_555
C11A O1A 1_555 1_555
C12A C7A 1_555 1_555
C13A H7A 1_555 1_555
C14A C13A 1_555 1_555
C15A C14A 1_555 1_555
H8A C15A 1_555 1_555
C16A C15A 1_555 1_555
H9A C16A 1_555 1_555
C17A H10A 1_555 1_555
C18A C17A 1_555 1_555
H11A C18A 1_555 1_555
C19A C18A 1_555 1_555
C20A C19A 1_555 1_555
H12A C20A 1_555 1_555
C21A C13A 1_555 1_555
C22A C16A 1_555 1_555
C23A O5A 1_555 1_555
C24A C19A 1_555 1_555
C25_2 H13_2 1_555 1_555
C26_2 C25_2 1_555 1_555
C27_2 C26_2 1_555 1_555
H14_2 C27_2 1_555 1_555
C28_2 C27_2 1_555 1_555
H15_2 C28_2 1_555 1_555
C29_2 H16_2 1_555 1_555
C30_2 C29_2 1_555 1_555
H17_2 C30_2 1_555 1_555
C31_2 C30_2 1_555 1_555
C32_2 C31_2 1_555 1_555
H18_2 C32_2 1_555 1_555
C33_2 C25_2 1_555 1_555
C34_2 C28_2 1_555 1_555
C35_2 O9_2 1_555 1_555
C36_2 O12_2 1_555 1_555
O13A Mn2A 1_555 1_555
N1A C37A 1_555 1_555
C37A O13A 1_555 1_555
H19A C37A 1_555 1_555
C38A N1A 1_555 1_555
H20A C38A 1_555 1_555
H21A C38A 1_555 1_555
H22A C38A 1_555 1_555
C39A N1A 1_555 1_555
H23A C39A 1_555 1_555
H24A C39A 1_555 1_555
H25A C39A 1_555 1_555
O14A Mn3A 1_555 1_555
N2A C40A 1_555 1_555
C40A O14A 1_555 1_555
H26A C40A 1_555 1_555
C41A N2A 1_555 1_555
H27A C41A 1_555 1_555
H28A C41A 1_555 1_555
H29A C41A 1_555 1_555
C42A N2A 1_555 1_555
H30A C42A 1_555 1_555
H31A C42A 1_555 1_555
H32A C42A 1_555 1_555
Mn2 O3_2 1_555 1_555
O6 C23 1_555 1_555
O12 C36 1_555 1_555
C2 C11 1_555 1_555
C5 C10 1_555 1_555
C8 C9 1_555 1_555
C9 C10 1_555 1_555
C14 C23 1_555 1_555
C17 C22 1_555 1_555
C20 C21 1_555 1_555
C21 C22 1_555 1_555
C26 C35 1_555 1_555
C29 C34 1_555 1_555
C31 C36 1_555 1_555
C32 C33 1_555 1_555
C33 C34 1_555 1_555
Mn2A O3A_2 1_555 1_555
Mn3A_2 O9A 1_555 1_555
Mn3A_2 O11A 1_555 1_555
Mn4_3 O9_2 1_555 1_555
O2A C11A 1_555 1_555
O6A C23A 1_555 1_555
O10_2 C35_2 1_555 1_555
C2A C11A 1_555 1_555
C5A C10A 1_555 1_555
C8A C9A 1_555 1_555
C9A C10A 1_555 1_555
C14A C23A 1_555 1_555
C17A C22A 1_555 1_555
C20A C21A 1_555 1_555
C21A C22A 1_555 1_555
C26_2 C35_2 1_555 1_555
C29_2 C34_2 1_555 1_555
C31_2 C36_2 1_555 1_555
C32_2 C33_2 1_555 1_555
C33_2 C34_2 1_555 1_555

#END
