
#######################################################################
#
#                 Cambridge Crystallographic Data Centre
#                                CCDC 
#
#######################################################################
#
# If this CIF has been generated from an entry in the Cambridge 
# Structural Database, then it will include bibliographic, chemical, 
# crystal, experimental, refinement or atomic coordinate data resulting 
# from the CCDC's data processing and validation procedures.
#
#######################################################################

data_JORQAK
_chemical_formula_moiety         '(C22 H6 Fe4 O17 Pd1)n'
_symmetry_cell_setting           hexagonal
_symmetry_space_group_name_H-M   'P 63/m m c'
_symmetry_Int_Tables_number      194
_space_group_name_Hall           '-P 6c 2c'
loop_
_symmetry_equiv_pos_site_id
_symmetry_equiv_pos_as_xyz
1 x,y,z
2 x-y,x,1/2+z
3 y,-x+y,1/2+z
4 -y,x-y,z
5 -x+y,-x,z
6 x-y,-y,-z
7 -x,-x+y,-z
8 -x,-y,1/2+z
9 y,x,-z
10 -y,-x,1/2-z
11 -x+y,y,1/2-z
12 x,x-y,1/2-z
13 -x,-y,-z
14 -x+y,-x,1/2-z
15 -y,x-y,1/2-z
16 y,-x+y,-z
17 x-y,x,-z
18 -x+y,y,z
19 x,x-y,z
20 x,y,1/2-z
21 -y,-x,z
22 y,x,1/2+z
23 x-y,-y,1/2+z
24 -x,-x+y,1/2+z
_cell_length_a                   19.9724(9)
_cell_length_b                   19.9724(9)
_cell_length_c                   26.0567(9)
_cell_angle_alpha                90
_cell_angle_beta                 90
_cell_angle_gamma                120
_cell_volume                     9001.41
loop_
_atom_site_label
_atom_site_type_symbol
_atom_site_fract_x
_atom_site_fract_y
_atom_site_fract_z
_atom_site_U_iso_or_equiv
_atom_site_thermal_displace_type
C1 C 0.8217(4) 0.6435(8) 0.6708(4) 0.0490 Uani
C2 C 0.8054(5) 0.6108(9) 0.6180(5) 0.0623 Uani
C3 C 0.8546(5) 0.5901(5) 0.5937(3) 0.0511 Uani
H1 H 0.8987(5) 0.5981(5) 0.6109(3) 0.0610 Uiso
C4 C 0.8409(5) 0.5586(5) 0.5457(3) 0.0453 Uani
C5 C 0.8983(5) 0.5396(5) 0.5217(3) 0.0452 Uani
C6 C 0.5781(7) 0.6120(8) 0.750000 0.0509 Uani
C7 C 0.4751(4) 0.5249(4) 0.6757(5) 0.0468 Uani
Fe1 Fe 1.03962(8) 0.51981(4) 0.55057(5) 0.0308 Uani
Fe2 Fe 0.76585(10) 0.71473(11) 0.750000 0.0492 Uani
O1 O 0.6424(8) 0.6608(7) 0.750000 0.0879 Uani
O2 O 0.4741(3) 0.5259(3) 0.6287(4) 0.0646 Uani
O3 O 0.9524(4) 0.5495(4) 0.5502(3) 0.0614 Uani
O4 O 0.8849(4) 0.5135(4) 0.4781(3) 0.0618 Uani
Pd1 Pd 0.47600(4) 0.52400(4) 0.750000 0.0477 Uani
O5 O 0.7740(4) 0.6560(5) 0.6894(3) 0.0761 Uani
O6 O 0.8945(4) 0.7890(7) 0.750000 0.0641 Uani
C8 C 0.7727(3) 0.5454(7) 0.5195(4) 0.0492 Uani
C3Q C 0.7355(7) 0.5901(5) 0.5937(3) 0.0511 Uani
H1Q H 0.6994(7) 0.5981(5) 0.6109(3) 0.0610 Uiso
C4Q C 0.7177(7) 0.5586(5) 0.5457(3) 0.0453 Uani
C5Q C 0.6413(7) 0.5396(5) 0.5217(3) 0.0452 Uani
O3Q O 0.5971(6) 0.5495(4) 0.5502(3) 0.0614 Uani
O4Q O 0.6286(6) 0.5135(4) 0.4781(3) 0.0618 Uani
O5Q O 0.8820(6) 0.6560(5) 0.6894(3) 0.0761 Uani
C1C C 0.3565(8) 0.1782(9) 0.6708(4) 0.0490 Uani
C2C C 0.3892(9) 0.1946(10) 0.6180(5) 0.0623 Uani
C3C C 0.4099(5) 0.2645(7) 0.5937(3) 0.0511 Uani
H1C H 0.4019(5) 0.3006(7) 0.6109(3) 0.0610 Uiso
C4C C 0.4414(5) 0.2823(7) 0.5457(3) 0.0453 Uani
C5C C 0.4604(5) 0.3587(7) 0.5217(3) 0.0452 Uani
C6C C 0.3880(8) -0.0339(11) 0.750000 0.0509 Uani
Fe1C Fe 0.48019(4) 0.51981(9) 0.55057(5) 0.0308 Uani
Fe2C Fe 0.28527(11) 0.05112(15) 0.750000 0.0492 Uani
O1C O 0.3392(7) -0.0184(11) 0.750000 0.0879 Uani
O3C O 0.4505(4) 0.4029(6) 0.5502(3) 0.0614 Uani
O4C O 0.4865(4) 0.3714(6) 0.4781(3) 0.0618 Uani
O5C O 0.3440(5) 0.1180(6) 0.6894(3) 0.0761 Uani
C8C C 0.4546(7) 0.2273(8) 0.5195(4) 0.0492 Uani
C3T C 0.4099(5) 0.1454(5) 0.5937(3) 0.0511 Uani
H1T H 0.4019(5) 0.1013(5) 0.6109(3) 0.0610 Uiso
C4T C 0.4414(5) 0.1591(5) 0.5457(3) 0.0453 Uani
C5T C 0.4604(5) 0.1017(5) 0.5217(3) 0.0452 Uani
O3T O 0.4505(4) 0.0476(4) 0.5502(3) 0.0614 Uani
O4T O 0.4865(4) 0.1151(4) 0.4781(3) 0.0618 Uani
O5T O 0.3440(5) 0.2260(4) 0.6894(3) 0.0761 Uani
C7D C 1.0498(6) 0.5249(4) 0.6757(5) 0.0468 Uani
O2D O 1.0518(4) 0.5259(3) 0.6287(4) 0.0646 Uani
C6I C 0.3880(8) 0.4219(7) 0.750000 0.0509 Uani
C7I C 0.4751(4) 0.5249(4) 0.8243(5) 0.0468 Uani
Fe1D Fe 0.48019(9) -0.03962(8) 0.55057(5) 0.0308 Uani
Fe1E Fe 0.51981(9) 0.48019(4) 0.44943(5) 0.0308 Uani
Fe1F Fe 0.96038(8) 0.48019(9) 0.44943(5) 0.0308 Uani
Fe1H Fe 0.51981(4) 0.03962(8) 0.44943(5) 0.0308 Uani
Fe2I Fe 0.28527(11) 0.23415(10) 0.750000 0.0492 Uani
Fe2J Fe 0.94888(15) 0.71473(11) 0.750000 0.0492 Uani
O3R O 0.9524(4) 0.4029(6) 0.5502(3) 0.0614 Uani
O4E O 0.3714(6) 0.4865(4) 0.5219(3) 0.0618 Uani
O4F O 1.1151(4) 0.6286(6) 0.5219(3) 0.0618 Uani
O4L O 1.1151(4) 0.4865(4) 0.5219(3) 0.0618 Uani
O4O O 0.5135(4) 0.6286(6) 0.5219(3) 0.0618 Uani
Pd1C Pd 0.47600(4) -0.04800(6) 0.750000 0.0477 Uani
Pd1D Pd 1.04800(6) 0.52400(4) 0.750000 0.0477 Uani
O5N O 0.3440(5) 0.1180(6) 0.8106(3) 0.0761 Uani
O5S O 0.7740(4) 0.6560(5) 0.8106(3) 0.0761 Uani
O6C O 0.2110(7) 0.1055(8) 0.750000 0.0641 Uani
loop_
_atom_site_aniso_label
_atom_site_aniso_U_11
_atom_site_aniso_U_22
_atom_site_aniso_U_33
_atom_site_aniso_U_23
_atom_site_aniso_U_13
_atom_site_aniso_U_12
C1 0.053(5) 0.063(8) 0.035(7) -0.020(6) -0.010(3) 0.032(4)
C2 0.061(5) 0.093(11) 0.043(8) -0.014(7) -0.007(3) 0.046(5)
C3 0.058(5) 0.062(5) 0.044(5) -0.002(4) 0.000(4) 0.038(5)
C4 0.042(4) 0.054(5) 0.040(5) -0.008(4) -0.002(4) 0.024(4)
C5 0.056(5) 0.051(5) 0.037(5) -0.008(4) -0.001(4) 0.033(4)
C6 0.031(6) 0.056(8) 0.042(7) 0.000000 0.000000 0.004(6)
C7 0.044(5) 0.044(5) 0.039(7) 0.000(3) 0.000(3) 0.012(5)
Fe1 0.0317(8) 0.0394(7) 0.0188(8) -0.0001(3) -0.0002(5) 0.0158(4)
Fe2 0.0451(10) 0.0642(12) 0.0435(11) 0.000000 0.000000 0.0313(9)
O1 0.111(10) 0.103(9) 0.073(7) 0.000000 0.000000 0.071(8)
O2 0.078(5) 0.078(5) 0.039(6) 0.001(2) -0.001(2) 0.040(6)
O3 0.057(4) 0.080(4) 0.063(4) 0.007(3) 0.005(3) 0.046(4)
O4 0.053(4) 0.066(4) 0.068(5) -0.017(3) 0.005(3) 0.031(3)
Pd1 0.0516(7) 0.0516(7) 0.0320(8) 0.000000 0.000000 0.0199(7)
O5 0.066(4) 0.103(6) 0.063(5) -0.036(4) -0.006(3) 0.045(4)
O6 0.073(7) 0.055(8) 0.059(8) 0.000000 0.000000 0.028(4)
C8 0.051(5) 0.052(7) 0.045(7) -0.002(5) -0.001(3) 0.026(3)
C3Q 0.044 0.062 0.044 -0.002 -0.002 0.024
C4Q 0.048 0.054 0.04 -0.008 -0.006 0.03
C5Q 0.041 0.051 0.037 -0.008 -0.007 0.018
O3Q 0.045 0.08 0.063 0.007 0.002 0.034
O4Q 0.057 0.066 0.068 -0.017 -0.022 0.035
O5Q 0.079 0.103 0.063 -0.036 -0.03 0.058
C1C 0.063 0.052 0.035 0.01 0.02 0.031
C2C 0.093 0.062 0.043 0.007 0.014 0.047
C3C 0.062 0.044 0.044 0.002 0.002 0.024
C4C 0.054 0.048 0.04 0.006 0.008 0.03
C5C 0.051 0.041 0.037 0.007 0.008 0.018
C6C 0.056 0.079 0.042 0 0 0.052
Fe1C 0.0394 0.0395 0.0188 -0.0001 0.0001 0.0236
Fe2C 0.0642 0.0467 0.0435 0 0 0.0329
O1C 0.103 0.072 0.073 0 0 0.032
O3C 0.08 0.045 0.063 -0.002 -0.007 0.034
O4C 0.066 0.057 0.068 0.022 0.017 0.035
O5C 0.103 0.079 0.063 0.03 0.036 0.058
C8C 0.052 0.051 0.045 0.001 0.002 0.026
C3T 0.062 0.058 0.044 0 0.002 0.038
C4T 0.054 0.042 0.04 0.002 0.008 0.024
C5T 0.051 0.056 0.037 0.001 0.008 0.033
O3T 0.08 0.057 0.063 -0.005 -0.007 0.046
O4T 0.066 0.053 0.068 -0.005 0.017 0.031
O5T 0.103 0.066 0.063 0.006 0.036 0.045
C7D 0.064 0.044 0.039 0 0 0.032
O2D 0.076 0.078 0.039 0.001 0.002 0.038
C6I 0.056 0.031 0.042 0 0 0.004
C7I 0.044 0.044 0.039 0 0 0.012
Fe1D 0.0395 0.0317 0.0188 0.0002 0.0001 0.0159
Fe1E 0.0395 0.0394 0.0188 -0.0001 0.0001 0.0236
Fe1F 0.0317 0.0395 0.0188 -0.0001 -0.0002 0.0159
Fe1H 0.0394 0.0317 0.0188 0.0002 0.0001 0.0158
Fe2I 0.0642 0.0451 0.0435 0 0 0.0313
Fe2J 0.0467 0.0642 0.0435 0 0 0.0329
O3R 0.057 0.045 0.063 -0.002 0.005 0.011
O4E 0.057 0.066 0.068 -0.017 -0.022 0.035
O4F 0.053 0.057 0.068 0.022 0.005 0.022
O4L 0.053 0.066 0.068 -0.017 0.005 0.031
O4O 0.066 0.057 0.068 0.022 0.017 0.035
Pd1C 0.0516 0.0634 0.032 0 0 0.0317
Pd1D 0.0634 0.0516 0.032 0 0 0.0317
O5N 0.103 0.079 0.063 -0.03 -0.036 0.058
O5S 0.066 0.103 0.063 0.036 0.006 0.045
O6C 0.055 0.072 0.059 0 0 0.027
loop_
_geom_bond_atom_site_label_1
_geom_bond_atom_site_label_2
_geom_bond_site_symmetry_1
_geom_bond_site_symmetry_2
C1 C2 1_555 1_555
C2 C3 1_555 1_555
C3 H1 1_555 1_555
C4 C3 1_555 1_555
C5 C4 1_555 1_555
C6 O1 1_555 1_555
C7 O2 1_555 1_555
Fe1 O3 1_555 1_555
Fe2 O1 1_555 1_555
O2 Fe1C 1_555 1_555
O3 C5 1_555 1_555
O4 C5 1_555 1_555
Pd1 C6 1_555 1_555
O5 C1 1_555 1_555
O6 Fe2 1_555 1_555
C8 C4 1_555 1_555
C3Q C2 1_555 1_555
H1Q C3Q 1_555 1_555
C4Q C8 1_555 1_555
C5Q C4Q 1_555 1_555
O3Q C5Q 1_555 1_555
O4Q C5Q 1_555 1_555
O5Q C1 1_555 1_555
C1C C2C 1_555 1_555
C2C C3C 1_555 1_555
C3C H1C 1_555 1_555
C4C C3C 1_555 1_555
C5C C4C 1_555 1_555
C6C O1C 1_555 1_555
Fe1C O3Q 1_555 1_555
Fe2C O1C 1_555 1_555
O3C C5C 1_555 1_555
O4C C5C 1_555 1_555
O5C C1C 1_555 1_555
C8C C4C 1_555 1_555
C3T C2C 1_555 1_555
H1T C3T 1_555 1_555
C4T C8C 1_555 1_555
C5T C4T 1_555 1_555
O3T C5T 1_555 1_555
O4T C5T 1_555 1_555
O5T C1C 1_555 1_555
C7D O2D 1_555 1_555
O2D Fe1 1_555 1_555
C6I Pd1 1_555 1_555
C7I Pd1 1_555 1_555
Fe1D O3T 1_555 1_555
Fe1E O4Q 1_555 1_555
Fe1F Fe1 1_555 1_555
Fe1H O4T 1_555 1_555
Fe2I O5T 1_555 1_555
Fe2J O6 1_555 1_555
O3R Fe1 1_555 1_555
O4E Fe1C 1_555 1_555
O4F Fe1 1_555 1_555
O4L Fe1 1_555 1_555
O4O Fe1C 1_555 1_555
Pd1C C6C 1_555 1_555
Pd1D C7D 1_555 1_555
O5N Fe2C 1_555 1_555
O5S Fe2 1_555 1_555
O6C Fe2C 1_555 1_555
C7 Pd1 1_555 1_555
Fe2 O5 1_555 1_555
O4 Fe1F 1_555 1_555
C3Q C4Q 1_555 1_555
O5Q Fe2J 1_555 1_555
Fe1C O3C 1_555 1_555
Fe1C Fe1E 1_555 1_555
Fe2C O5C 1_555 1_555
O4C Fe1E 1_555 1_555
C3T C4T 1_555 1_555
Fe1D Fe1H 1_555 1_555
Fe2I O6C 1_555 1_555

#END
