
#######################################################################
#
#                 Cambridge Crystallographic Data Centre
#                                CCDC 
#
#######################################################################
#
# If this CIF has been generated from an entry in the Cambridge 
# Structural Database, then it will include bibliographic, chemical, 
# crystal, experimental, refinement or atomic coordinate data resulting 
# from the CCDC's data processing and validation procedures.
#
#######################################################################

data_HAZWIP
_chemical_formula_moiety         '(C12 H28 Cl2 Cu1 N8 Ni1 O17 2+)n'
_symmetry_cell_setting           tetragonal
_symmetry_space_group_name_H-M   'P 43 21 2'
_symmetry_Int_Tables_number      96
_space_group_name_Hall           'P 4nw 2abw'
loop_
_symmetry_equiv_pos_site_id
_symmetry_equiv_pos_as_xyz
1 x,y,z
2 -x,-y,1/2+z
3 1/2-y,1/2+x,3/4+z
4 1/2+y,1/2-x,1/4+z
5 1/2-x,1/2+y,3/4-z
6 1/2+x,1/2-y,1/4-z
7 y,x,-z
8 -y,-x,1/2-z
_cell_length_a                   11.0763(2)
_cell_length_b                   11.0763(2)
_cell_length_c                   27.4307(5)
_cell_angle_alpha                90
_cell_angle_beta                 90
_cell_angle_gamma                90
_cell_volume                     3365.32
loop_
_atom_site_label
_atom_site_type_symbol
_atom_site_fract_x
_atom_site_fract_y
_atom_site_fract_z
_atom_site_U_iso_or_equiv
_atom_site_thermal_displace_type
Cu1 Cu -0.48391(4) -0.48391(4) 1.0000 0.0262 Uani
Ni1 Ni -0.47164(5) -0.52836(5) 0.7500 0.0386 Uani
O1 O -0.6109(2) -0.6109(2) 1.0000 0.0352 Uani
H1 H -0.6097 -0.7000 1.0086 0.0530 Uiso
O2 O -0.6302(3) -0.3438(3) 0.99145(11) 0.0513 Uani
H2 H -0.6971 -0.3733 0.9777 0.0770 Uiso
H3 H -0.6482 -0.3162 1.0212 0.0770 Uiso
O3 O -0.6109(6) -0.3891(6) 0.7500 0.1013 Uani
H4 H -0.6590 -0.3943 0.7814 0.1520 Uiso
O4 O -0.3500(3) -0.3972(3) 0.74526(10) 0.0529 Uani
H5 H -0.2890 -0.4020 0.7546 0.0790 Uiso
H6 H -0.3668 -0.3206 0.7374 0.0790 Uiso
N1 N -0.4661(3) -0.4972(3) 0.92688(10) 0.0256 Uani
N2 N -0.4065(3) -0.2937(3) 0.91961(10) 0.0294 Uani
N3 N -0.3540(2) -0.3540(2) 1.0000 0.0218 Uani
N4 N -0.4649(3) -0.5154(3) 0.82564(11) 0.0318 Uani
N5 N -0.1755(3) -0.1755(3) 1.0000 0.0271 Uani
C1 C -0.4878(3) -0.6032(3) 0.90407(12) 0.0294 Uani
H7 H -0.5041 -0.6730 0.9231 0.0350 Uiso
C2 C -0.4871(4) -0.6128(3) 0.85424(13) 0.0306 Uani
H8 H -0.5023 -0.6889 0.8395 0.0370 Uiso
C3 C -0.4415(4) -0.4116(4) 0.84807(12) 0.0328 Uani
H9 H -0.4262 -0.3417 0.8290 0.0400 Uiso
C4 C -0.4386(3) -0.4020(3) 0.89911(12) 0.0278 Uani
C5 C -0.3378(3) -0.2792(3) 0.96204(12) 0.0256 Uani
C6 C -0.2523(3) -0.1877(3) 0.96293(13) 0.0277 Uani
H10 H -0.1325 -0.2483 1.0635 0.0330 Uiso
Ni1C Ni -0.02836(5) -0.02836(5) 1.0000 0.0386 Uani
Ni1A Ni -0.52836(5) -0.47164(5) 1.2500 0.0386 Uani
H1F H -0.7000 -0.6097 0.9914 0.0530 Uiso
O2F O -0.3438(3) -0.6302(3) 1.00855(11) 0.0513 Uani
H2F H -0.3733 -0.6971 1.0223 0.0770 Uiso
H3F H -0.3162 -0.6482 0.9788 0.0770 Uiso
H4G H -0.6057 -0.3410 0.7186 0.1520 Uiso
O4G O -0.6028(3) -0.6500(3) 0.75474(10) 0.0529 Uani
H5G H -0.5980 -0.7110 0.7454 0.0790 Uiso
H6G H -0.6794 -0.6332 0.7626 0.0790 Uiso
N1F N -0.4972(3) -0.4661(3) 1.07312(10) 0.0256 Uani
N2F N -0.2937(3) -0.4065(3) 1.08039(10) 0.0294 Uani
N4G N -0.4846(3) -0.5351(3) 0.67436(11) 0.0318 Uani
N4F N -0.5154(3) -0.4649(3) 1.17436(11) 0.0318 Uani
N5B N -0.3245(3) -0.6755(3) 0.7500 0.0271 Uani
C1F C -0.6032(3) -0.4878(3) 1.09593(12) 0.0294 Uani
H7F H -0.6730 -0.5041 1.0769 0.0350 Uiso
C2F C -0.6128(3) -0.4871(4) 1.14576(13) 0.0306 Uani
H8F H -0.6889 -0.5023 1.1605 0.0370 Uiso
C3F C -0.4116(4) -0.4415(4) 1.15193(12) 0.0328 Uani
H9F H -0.3417 -0.4262 1.1710 0.0400 Uiso
C4F C -0.4020(3) -0.4386(3) 1.10089(12) 0.0278 Uani
C5F C -0.2792(3) -0.3378(3) 1.03796(12) 0.0256 Uani
C6F C -0.1877(3) -0.2523(3) 1.03707(13) 0.0277 Uani
H10F H -0.2483 -0.1325 0.9365 0.0330 Uiso
Cl1 Cl 0.14354(12) 0.27114(12) 0.12028(5) 0.0559 Uani
O5 O 0.2217(5) 0.1755(5) 0.1100(3) 0.1640 Uani
O6 O 0.1750(6) 0.3206(6) 0.16653(18) 0.1297 Uani
O7 O 0.1562(5) 0.3636(4) 0.08542(16) 0.0873 Uani
O8 O 0.0227(3) 0.2279(3) 0.12246(14) 0.0637 Uani
Cl2 Cl -0.51805(11) -1.12079(9) 0.09133(4) 0.0437 Uani
O9 O -0.4755(4) -1.1078(4) 0.04333(13) 0.0705 Uani
O10 O -0.6149(4) -1.2058(4) 0.09212(16) 0.0813 Uani
O11 O -0.5652(4) -1.0105(3) 0.11015(16) 0.0697 Uani
O12 O -0.4233(5) -1.1661(5) 0.12093(16) 0.0953 Uani
O13 O -0.5873(5) -0.8276(4) 0.21491(19) 0.0970 Uani
H11 H -0.6632 -0.8494 0.2114 0.1460 Uiso
H12 H -0.5296 -0.8798 0.2022 0.1460 Uiso
O14 O -0.5836(7) -0.8432(5) 0.0254(2) 0.1427 Uani
H13 H -0.6628 -0.8618 0.0301 0.2140 Uiso
H14 H -0.5458 -0.8278 0.0538 0.2140 Uiso
O15 O -0.3878(7) -1.1250(6) 0.22212(17) 0.1240 Uani
H15 H -0.4462 -1.1037 0.2007 0.1860 Uiso
H16 H -0.3862 -1.0859 0.2517 0.1860 Uiso
loop_
_atom_site_aniso_label
_atom_site_aniso_U_11
_atom_site_aniso_U_22
_atom_site_aniso_U_33
_atom_site_aniso_U_23
_atom_site_aniso_U_13
_atom_site_aniso_U_12
Cu1 0.0324 0.0324 0.0138 -0.00038 0.00038 -0.0005
Ni1 0.0524 0.0524 0.0109 -0.00057 -0.00057 -0.0215
O1 0.0413 0.0413 0.0231 -0.0023 0.0023 -0.0073
O2 0.0391 0.079 0.0359 -0.003 0.0005 0.0045
O3 0.138 0.138 0.028 0 0 -0.049
O4 0.085 0.051 0.0228 -0.0007 0.0004 -0.0304
N1 0.0295 0.0309 0.0165 -0.0026 -0.0001 0.0001
N2 0.0407 0.0332 0.0143 -0.0002 -0.006 -0.0021
N3 0.0255 0.0255 0.0143 -0.0008 0.0008 0.0029
N4 0.0355 0.0435 0.0163 -0.0039 0.0038 -0.0093
N5 0.0301 0.0301 0.021 -0.0037 0.0037 -0.0014
C1 0.034 0.0332 0.0209 -0.0026 0.0022 -0.0004
C2 0.0288 0.039 0.0239 -0.0064 0.0028 -0.0029
C3 0.039 0.043 0.0165 0.0002 -0.001 -0.0092
C4 0.0303 0.037 0.016 0.0007 -0.0011 -0.0015
C5 0.0318 0.0325 0.0124 -0.0029 0 0.0046
C6 0.034 0.034 0.0151 0 0.0013 0.0031
Ni1C 0.0524 0.0524 0.0109 0.00057 -0.00057 0.0215
Ni1A 0.0524 0.0524 0.0109 0.00057 0.00057 -0.0215
O2F 0.079 0.0391 0.0359 -0.0005 0.003 0.0045
O4G 0.051 0.085 0.0228 0.0004 -0.0007 -0.0304
N1F 0.0309 0.0295 0.0165 0.0001 0.0026 0.0001
N2F 0.0332 0.0407 0.0143 0.006 0.0002 -0.0021
N4G 0.0435 0.0355 0.0163 0.0038 -0.0039 -0.0093
N4F 0.0435 0.0355 0.0163 -0.0038 0.0039 -0.0093
N5B 0.0301 0.0301 0.021 0.0037 0.0037 0.0014
C1F 0.0332 0.034 0.0209 -0.0022 0.0026 -0.0004
C2F 0.039 0.0288 0.0239 -0.0028 0.0064 -0.0029
C3F 0.043 0.039 0.0165 0.001 -0.0002 -0.0092
C4F 0.037 0.0303 0.016 0.0011 -0.0007 -0.0015
C5F 0.0325 0.0318 0.0124 0 0.0029 0.0046
C6F 0.034 0.034 0.0151 -0.0013 0 0.0031
Cl1 0.0568(8) 0.0476(6) 0.0632(7) 0.0085(6) -0.0017(6) -0.0190(6)
O5 0.085(4) 0.062(3) 0.345(11) 0.006(4) 0.094(5) -0.004(3)
O6 0.149(6) 0.166(6) 0.074(3) 0.025(4) -0.047(3) -0.098(5)
O7 0.100(3) 0.088(3) 0.074(3) 0.034(2) -0.003(2) -0.043(3)
O8 0.054(2) 0.057(2) 0.080(3) 0.0038(18) 0.0025(18) -0.0254(18)
Cl2 0.0553(6) 0.0373(5) 0.0386(5) 0.0055(4) 0.0145(5) 0.0093(5)
O9 0.082(3) 0.085(3) 0.0445(19) 0.0095(18) 0.0302(19) 0.003(2)
O10 0.089(3) 0.065(3) 0.090(3) -0.003(2) 0.044(3) -0.023(2)
O11 0.082(3) 0.048(2) 0.079(3) -0.0042(18) 0.023(2) 0.020(2)
O12 0.109(4) 0.096(3) 0.081(3) 0.001(3) -0.029(3) 0.055(3)
O13 0.116(4) 0.059(3) 0.116(4) -0.003(3) 0.044(3) 0.002(3)
O14 0.163(6) 0.100(4) 0.165(6) 0.080(4) -0.059(5) -0.041(4)
O15 0.181(6) 0.117(4) 0.074(3) 0.034(3) -0.030(4) -0.045(4)
loop_
_geom_bond_atom_site_label_1
_geom_bond_atom_site_label_2
_geom_bond_site_symmetry_1
_geom_bond_site_symmetry_2
Cu1 O1 1_555 1_555
Ni1 O3 1_555 1_555
O1 H1 1_555 1_555
O2 Cu1 1_555 1_555
H2 O2 1_555 1_555
H3 O2 1_555 1_555
O3 H4 1_555 1_555
O4 Ni1 1_555 1_555
H5 O4 1_555 1_555
H6 O4 1_555 1_555
N1 Cu1 1_555 1_555
N2 C4 1_555 1_555
N3 Cu1 1_555 1_555
N4 Ni1 1_555 1_555
N5 C6 1_555 1_555
C1 N1 1_555 1_555
H7 C1 1_555 1_555
C2 N4 1_555 1_555
H8 C2 1_555 1_555
C3 N4 1_555 1_555
H9 C3 1_555 1_555
C4 N1 1_555 1_555
C5 N2 1_555 1_555
C6 C5 1_555 1_555
H10 C6F 1_555 1_555
Cl1 O5 1_555 1_555
O6 Cl1 1_555 1_555
O7 Cl1 1_555 1_555
O8 Cl1 1_555 1_555
Cl2 O9 1_555 1_555
O10 Cl2 1_555 1_555
O11 Cl2 1_555 1_555
O12 Cl2 1_555 1_555
O13 H11 1_555 1_555
H12 O13 1_555 1_555
O14 H13 1_555 1_555
H14 O14 1_555 1_555
O15 H15 1_555 1_555
H16 O15 1_555 1_555
Ni1C N5 1_555 1_555
Ni1A N4F 1_555 1_555
H1F O1 1_555 1_555
O2F Cu1 1_555 1_555
H2F O2F 1_555 1_555
H3F O2F 1_555 1_555
H4G O3 1_555 1_555
O4G Ni1 1_555 1_555
H5G O4G 1_555 1_555
H6G O4G 1_555 1_555
N1F Cu1 1_555 1_555
N2F C4F 1_555 1_555
N4G Ni1 1_555 1_555
N4F C2F 1_555 1_555
N5B Ni1 1_555 1_555
C1F N1F 1_555 1_555
H7F C1F 1_555 1_555
C2F C1F 1_555 1_555
H8F C2F 1_555 1_555
C3F N4F 1_555 1_555
H9F C3F 1_555 1_555
C4F N1F 1_555 1_555
C5F N3 1_555 1_555
C6F N5 1_555 1_555
H10F C6 1_555 1_555
N3 C5 1_555 1_555
C1 C2 1_555 1_555
C3 C4 1_555 1_555
N2F C5F 1_555 1_555
C3F C4F 1_555 1_555
C5F C6F 1_555 1_555

#END
