
#######################################################################
#
#                 Cambridge Crystallographic Data Centre
#                                CCDC 
#
#######################################################################
#
# If this CIF has been generated from an entry in the Cambridge 
# Structural Database, then it will include bibliographic, chemical, 
# crystal, experimental, refinement or atomic coordinate data resulting 
# from the CCDC's data processing and validation procedures.
#
#######################################################################

data_WITKOB
_chemical_formula_moiety         '(C24 H15 Ag1 N3 O6 1+)n'
_symmetry_cell_setting           monoclinic
_symmetry_space_group_name_H-M   'C 2/c'
_symmetry_Int_Tables_number      15
_space_group_name_Hall           '-C 2yc'
loop_
_symmetry_equiv_pos_site_id
_symmetry_equiv_pos_as_xyz
1 x,y,z
2 -x,y,1/2-z
3 1/2+x,1/2+y,z
4 1/2-x,1/2+y,1/2-z
5 -x,-y,-z
6 x,-y,1/2+z
7 1/2-x,1/2-y,-z
8 1/2+x,1/2-y,1/2+z
_cell_length_a                   10.284(3)
_cell_length_b                   31.388(10)
_cell_length_c                   20.904(7)
_cell_angle_alpha                90
_cell_angle_beta                 103.189(9)
_cell_angle_gamma                90
_cell_volume                     6569.7
loop_
_atom_site_label
_atom_site_type_symbol
_atom_site_fract_x
_atom_site_fract_y
_atom_site_fract_z
_atom_site_U_iso_or_equiv
_atom_site_thermal_displace_type
Ag1 Ag 0.42511(6) 0.193373(15) 0.54063(3) 0.0802 Uani
C1 C -0.3740(7) 0.06140(18) 0.1837(3) 0.0694 Uani
C2 C -0.2576(7) 0.0717(2) 0.2266(3) 0.0785 Uani
H1 H -0.1927 0.0512 0.2423 0.0940 Uiso
C3 C -0.2404(7) 0.1140(2) 0.2458(3) 0.0669 Uani
C4 C -0.3348(6) 0.14437(18) 0.2208(3) 0.0587 Uani
H2 H -0.3223 0.1728 0.2335 0.0710 Uiso
C5 C -0.4480(6) 0.13154(18) 0.1766(3) 0.0584 Uani
C6 C -0.4713(7) 0.08985(18) 0.1579(3) 0.0697 Uani
H3 H -0.5498 0.0815 0.1290 0.0830 Uiso
O1 O -0.3451(9) -0.01075(19) 0.2590(4) 0.1795 Uani
O2 O -0.3952(5) 0.01956(14) 0.1595(2) 0.0921 Uani
N1 N -0.4960(7) -0.12995(19) 0.0975(3) 0.0974 Uani
C7 C -0.5075(10) -0.0949(3) 0.0659(5) 0.1237 Uani
H4 H -0.5420 -0.0953 0.0207 0.1490 Uiso
C8 C -0.4688(10) -0.0545(3) 0.0977(4) 0.1231 Uani
H5 H -0.4775 -0.0291 0.0743 0.1480 Uiso
C9 C -0.4204(8) -0.0555(2) 0.1618(4) 0.0892 Uani
C10 C -0.3968(10) -0.0911(3) 0.1949(4) 0.1424 Uani
H6 H -0.3504 -0.0920 0.2386 0.1710 Uiso
C11 C -0.4462(11) -0.1279(3) 0.1599(5) 0.1434 Uani
H7 H -0.4429 -0.1531 0.1837 0.1720 Uiso
C12 C -0.3792(10) -0.0128(3) 0.1974(5) 0.1243 Uani
O3 O -0.1225(4) 0.12761(12) 0.2900(2) 0.0704 Uani
O4 O -0.1929(6) 0.09865(18) 0.3727(3) 0.1065 Uani
N2 N 0.2342(6) 0.16916(18) 0.4772(3) 0.0755 Uani
C13 C 0.1997(8) 0.1816(2) 0.4149(4) 0.0792 Uani
H8 H 0.2517 0.2018 0.3997 0.0950 Uiso
C14 C 0.0896(7) 0.1654(2) 0.3724(3) 0.0685 Uani
H9 H 0.0680 0.1742 0.3288 0.0820 Uiso
C15 C 0.0118(6) 0.13640(19) 0.3944(3) 0.0576 Uani
C16 C 0.0476(8) 0.1231(2) 0.4579(4) 0.0870 Uani
H10 H -0.0020 0.1028 0.4744 0.1040 Uiso
C17 C 0.1590(8) 0.1407(2) 0.4960(3) 0.0826 Uani
H11 H 0.1837 0.1317 0.5395 0.0990 Uiso
C18 C -0.1121(9) 0.1178(2) 0.3530(3) 0.0781 Uani
O5 O -0.5639(5) 0.15043(17) 0.0503(2) 0.1038 Uani
O6 O -0.5474(4) 0.16256(12) 0.1565(2) 0.0745 Uani
N3 N -0.9285(6) 0.25523(15) 0.0594(3) 0.0751 Uani
C19 C -0.8366(8) 0.25570(19) 0.1173(3) 0.0832 Uani
H12 H -0.8466 0.2751 0.1495 0.1000 Uiso
C20 C -0.7313(7) 0.22895(19) 0.1299(3) 0.0766 Uani
H13 H -0.6700 0.2303 0.1702 0.0920 Uiso
C21 C -0.7140(7) 0.19980(17) 0.0838(3) 0.0616 Uani
C22 C -0.8076(8) 0.19883(18) 0.0239(3) 0.0711 Uani
H14 H -0.8001 0.1797 -0.0090 0.0850 Uiso
C23 C -0.9105(6) 0.22722(19) 0.0157(3) 0.0636 Uani
H15 H -0.9730 0.2266 -0.0242 0.0760 Uiso
C24 C -0.6039(8) 0.1684(2) 0.0913(4) 0.0738 Uani
Ag1E Ag -0.57489(6) -0.193373(15) 0.04063(3) 0.0802 Uani
Ag1G Ag -1.07489(6) 0.306627(15) 0.04063(3) 0.0802 Uani
N1E N 0.5040(7) 0.12995(19) 0.5975(3) 0.0974 Uani
N3G N 0.5715(6) 0.24477(15) 0.5594(3) 0.0751 Uani
loop_
_atom_site_aniso_label
_atom_site_aniso_U_11
_atom_site_aniso_U_22
_atom_site_aniso_U_33
_atom_site_aniso_U_23
_atom_site_aniso_U_13
_atom_site_aniso_U_12
Ag1 0.0747(6) 0.0693(3) 0.0846(4) -0.0089(3) -0.0068(3) -0.0157(3)
C1 0.069(6) 0.045(4) 0.083(5) -0.013(3) -0.006(4) 0.010(3)
C2 0.086(7) 0.060(4) 0.073(4) -0.007(3) -0.016(4) 0.021(4)
C3 0.056(6) 0.069(4) 0.066(4) 0.004(3) -0.006(4) 0.005(4)
C4 0.046(5) 0.061(4) 0.059(4) -0.011(3) -0.009(3) -0.007(3)
C5 0.047(6) 0.052(4) 0.068(4) 0.000(3) -0.004(4) 0.012(3)
C6 0.077(6) 0.060(4) 0.059(4) -0.004(3) -0.012(3) 0.001(4)
O1 0.295(10) 0.109(5) 0.113(5) -0.008(4) 0.002(6) -0.048(5)
O2 0.103(4) 0.052(3) 0.099(4) -0.001(3) -0.023(3) 0.016(3)
N1 0.127(6) 0.067(4) 0.090(5) -0.022(4) 0.008(4) 0.000(4)
C7 0.166(10) 0.078(6) 0.115(7) -0.009(5) 0.007(6) 0.000(6)
C8 0.175(9) 0.084(6) 0.099(7) -0.006(5) 0.008(6) 0.005(6)
C9 0.112(7) 0.075(5) 0.072(5) 0.011(4) 0.003(5) 0.019(4)
C10 0.174(10) 0.116(8) 0.105(7) 0.001(6) -0.035(6) 0.021(7)
C11 0.231(12) 0.082(6) 0.106(7) -0.030(5) 0.015(7) -0.018(6)
C12 0.139(9) 0.101(7) 0.111(8) -0.034(6) -0.017(6) -0.004(6)
O3 0.050(4) 0.086(3) 0.064(3) 0.000(2) -0.010(2) -0.011(2)
O4 0.104(5) 0.123(4) 0.079(4) 0.012(3) -0.007(3) -0.045(4)
N2 0.082(5) 0.075(4) 0.062(4) 0.000(3) 0.001(3) -0.014(3)
C13 0.079(7) 0.083(5) 0.073(5) 0.001(4) 0.012(4) -0.022(4)
C14 0.051(6) 0.089(5) 0.058(4) -0.002(3) -0.003(4) -0.019(4)
C15 0.032(6) 0.063(4) 0.068(4) -0.005(3) -0.009(4) -0.002(3)
C16 0.079(7) 0.079(5) 0.090(5) 0.006(4) -0.008(5) -0.026(4)
C17 0.086(7) 0.074(5) 0.083(5) 0.011(4) 0.009(5) -0.013(4)
C18 0.105(8) 0.067(5) 0.059(5) 0.013(4) 0.012(5) 0.005(4)
O5 0.124(5) 0.125(4) 0.065(3) 0.010(3) 0.027(3) 0.052(3)
O6 0.080(4) 0.061(3) 0.073(3) -0.004(2) -0.002(3) 0.012(2)
N3 0.086(5) 0.053(3) 0.075(4) -0.003(3) -0.005(3) 0.007(3)
C19 0.099(7) 0.059(4) 0.079(5) -0.004(3) -0.006(4) 0.039(4)
C20 0.079(6) 0.066(4) 0.064(4) -0.011(3) -0.027(4) -0.004(4)
C21 0.070(6) 0.047(4) 0.063(4) 0.007(3) 0.005(4) 0.008(3)
C22 0.095(7) 0.045(4) 0.069(4) -0.008(3) 0.010(4) 0.001(4)
C23 0.066(6) 0.055(4) 0.055(4) 0.004(3) -0.017(3) -0.002(4)
C24 0.087(7) 0.062(4) 0.070(5) 0.010(4) 0.013(5) 0.018(4)
Ag1E 0.0747 0.0693 0.0846 0.0089 -0.0068 0.0157
Ag1G 0.0747 0.0693 0.0846 0.0089 -0.0068 0.0157
N1E 0.127 0.067 0.09 0.022 0.008 0
N3G 0.086 0.053 0.075 0.003 -0.005 -0.007
loop_
_geom_bond_atom_site_label_1
_geom_bond_atom_site_label_2
_geom_bond_site_symmetry_1
_geom_bond_site_symmetry_2
Ag1 N2 1_555 1_555
C1 C2 1_555 1_555
C2 H1 1_555 1_555
C3 C2 1_555 1_555
C4 C3 1_555 1_555
H2 C4 1_555 1_555
C5 C4 1_555 1_555
C6 C1 1_555 1_555
H3 C6 1_555 1_555
O1 C12 1_555 1_555
O2 C1 1_555 1_555
N1 C7 1_555 1_555
C7 H4 1_555 1_555
C8 C7 1_555 1_555
H5 C8 1_555 1_555
C9 C8 1_555 1_555
C10 C9 1_555 1_555
H6 C10 1_555 1_555
C11 N1 1_555 1_555
H7 C11 1_555 1_555
C12 O2 1_555 1_555
O3 C3 1_555 1_555
O4 C18 1_555 1_555
N2 C13 1_555 1_555
C13 H8 1_555 1_555
C14 C13 1_555 1_555
H9 C14 1_555 1_555
C15 C14 1_555 1_555
C16 C15 1_555 1_555
H10 C16 1_555 1_555
C17 N2 1_555 1_555
H11 C17 1_555 1_555
C18 O3 1_555 1_555
O5 C24 1_555 1_555
O6 C5 1_555 1_555
N3 C19 1_555 1_555
C19 H12 1_555 1_555
C20 C19 1_555 1_555
H13 C20 1_555 1_555
C21 C20 1_555 1_555
C22 C21 1_555 1_555
H14 C22 1_555 1_555
C23 N3 1_555 1_555
H15 C23 1_555 1_555
C24 O6 1_555 1_555
Ag1E N1 1_555 1_555
Ag1G N3 1_555 1_555
N1E Ag1 1_555 1_555
N3G Ag1 1_555 1_555
C5 C6 1_555 1_555
C9 C12 1_555 1_555
C10 C11 1_555 1_555
C15 C18 1_555 1_555
C16 C17 1_555 1_555
C21 C24 1_555 1_555
C22 C23 1_555 1_555

#END
