
#######################################################################
#
#                 Cambridge Crystallographic Data Centre
#                                CCDC 
#
#######################################################################
#
# If this CIF has been generated from an entry in the Cambridge 
# Structural Database, then it will include bibliographic, chemical, 
# crystal, experimental, refinement or atomic coordinate data resulting 
# from the CCDC's data processing and validation procedures.
#
#######################################################################

data_VEJYUF02
_chemical_formula_moiety         '(C15 H19 N9 O1 Zn2)n'
_symmetry_cell_setting           orthorhombic
_symmetry_space_group_name_H-M   'P b c a'
_symmetry_Int_Tables_number      61
_space_group_name_Hall           '-P 2ac 2ab'
loop_
_symmetry_equiv_pos_site_id
_symmetry_equiv_pos_as_xyz
1 x,y,z
2 1/2+x,1/2-y,-z
3 -x,1/2+y,1/2-z
4 1/2-x,-y,1/2+z
5 -x,-y,-z
6 1/2-x,1/2+y,z
7 x,1/2-y,1/2+z
8 1/2+x,y,1/2-z
_cell_length_a                   15.3486(14)
_cell_length_b                   15.1069(17)
_cell_length_c                   18.3430(19)
_cell_angle_alpha                90
_cell_angle_beta                 90
_cell_angle_gamma                90
_cell_volume                     4253.19
loop_
_atom_site_label
_atom_site_type_symbol
_atom_site_fract_x
_atom_site_fract_y
_atom_site_fract_z
_atom_site_U_iso_or_equiv
_atom_site_thermal_displace_type
Zn1 Zn 0.20565(15) 0.13848(17) 0.40844(13) 0.0737 Uani
Zn2 Zn 0.51268(15) 0.33706(17) 0.31330(13) 0.0733 Uani
N1 N 0.4461(8) 0.2344(10) 0.3538(8) 0.0763 Uani
N2 N 0.3306(6) 0.1608(9) 0.3901(9) 0.0753 Uani
N3 N 0.1058(8) 0.1310(11) 0.6165(6) 0.0757 Uani
N4 N 0.1790(10) 0.1225(13) 0.5127(6) 0.0887 Uani
N5 N 0.0759(9) -0.0669(10) 0.3053(8) 0.0780 Uani
N6 N 0.1630(10) 0.0369(10) 0.3492(7) 0.0740 Uani
N7 N 0.0644(11) 0.3127(10) 0.2824(7) 0.0853 Uani
N8 N 0.1395(10) 0.2406(9) 0.3660(7) 0.0733 Uani
C1 C 0.3614(8) 0.2341(10) 0.3611(10) 0.0740 Uani
C2 C 0.4004(9) 0.1135(10) 0.4048(12) 0.0960 Uani
C3 C 0.4718(7) 0.1586(12) 0.3826(12) 0.0907 Uani
C4 C 0.1096(10) 0.1520(13) 0.5474(7) 0.0800 Uani
C5 C 0.2223(12) 0.0812(18) 0.5639(9) 0.1230 Uani
C6 C 0.1790(13) 0.0874(18) 0.6278(7) 0.1143 Uani
C7 C 0.0966(11) -0.0157(12) 0.3606(7) 0.0787 Uani
C8 C 0.1898(12) 0.0146(14) 0.2834(9) 0.1050 Uani
C9 C 0.1353(13) -0.0473(14) 0.2564(8) 0.1000 Uani
C10 C 0.1033(13) 0.2385(10) 0.3011(8) 0.0870 Uani
C11 C 0.0791(16) 0.3661(9) 0.3374(10) 0.1060 Uani
C12 C 0.1217(15) 0.3208(11) 0.3899(8) 0.1003 Uani
H1 H 0.3261 0.2811 0.3469 0.0888 Uiso
H2 H 0.4007 0.0582 0.4271 0.1151 Uiso
H3 H 0.5291 0.1394 0.3866 0.1092 Uiso
H4 H 0.0668 0.1855 0.5244 0.0956 Uiso
H5 H 0.2752 0.0523 0.5573 0.1461 Uiso
H6 H 0.1973 0.0643 0.6723 0.1374 Uiso
H7 H 0.0662 -0.0168 0.4045 0.0943 Uiso
H8 H 0.2384 0.0376 0.2598 0.1261 Uiso
H9 H 0.1391 -0.0719 0.2100 0.1197 Uiso
H10 H 0.1054 0.1890 0.2710 0.1045 Uiso
H11 H 0.0633 0.4254 0.3396 0.1272 Uiso
H12 H 0.1358 0.3428 0.4358 0.1203 Uiso
Zn2E Zn -0.01268(15) -0.16294(17) 0.31330(13) 0.0733 Uani
Zn2A Zn 0.01268(15) 0.16294(17) 0.68670(13) 0.0733 Uani
Zn2G Zn 0.01268(15) 0.33706(17) 0.18670(13) 0.0733 Uani
N3A N 0.6058(8) 0.3690(11) 0.3835(6) 0.0757 Uani
N5E N 0.4241(9) 0.4331(10) 0.3053(8) 0.0780 Uani
N7G N 0.5644(11) 0.3127(10) 0.2176(7) 0.0853 Uani
N9 N 0.8223(18) 0.1775(18) 0.3981(16) 0.2133 Uani
C13 C 0.7287(19) 0.162(3) 0.3868(17) 0.2333 Uani
C14 C 0.867(3) 0.192(3) 0.327(2) 0.3367 Uani
C15 C 0.869(2) 0.157(4) 0.465(2) 0.3633 Uani
O1 O 0.6902(16) 0.128(2) 0.4332(17) 0.2633 Uani
H13 H 0.7013 0.1794 0.3439 0.2806 Uiso
H14 H 0.9279 0.2014 0.3344 0.4067 Uiso
H15 H 0.8420 0.2424 0.3028 0.4067 Uiso
H16 H 0.8589 0.1404 0.2963 0.4067 Uiso
H17 H 0.9296 0.1728 0.4590 0.4368 Uiso
H18 H 0.8450 0.1903 0.5047 0.4368 Uiso
H19 H 0.8648 0.0950 0.4751 0.4368 Uiso
loop_
_atom_site_aniso_label
_atom_site_aniso_U_11
_atom_site_aniso_U_22
_atom_site_aniso_U_33
_atom_site_aniso_U_23
_atom_site_aniso_U_13
_atom_site_aniso_U_12
Zn1 0.0627(18) 0.0884(19) 0.0701(17) 0.0032(13) 0.0024(11) -0.0043(13)
Zn2 0.0603(17) 0.092(2) 0.0676(16) -0.0014(13) 0.0049(12) 0.0012(12)
N1 0.043(7) 0.099(12) 0.087(11) 0.003(8) 0.020(8) -0.004(6)
N2 0.031(7) 0.071(11) 0.124(12) -0.008(9) 0.001(8) -0.003(5)
N3 0.055(9) 0.107(13) 0.065(8) 0.005(8) -0.007(6) 0.015(8)
N4 0.071(12) 0.136(15) 0.059(8) 0.019(9) -0.004(6) 0.022(9)
N5 0.080(11) 0.081(12) 0.073(10) 0.001(8) 0.016(7) -0.016(7)
N6 0.067(11) 0.100(13) 0.055(8) 0.006(7) 0.001(7) -0.015(7)
N7 0.095(13) 0.084(12) 0.077(10) 0.015(7) -0.027(8) -0.009(8)
N8 0.072(11) 0.078(10) 0.070(9) 0.005(7) -0.007(7) 0.014(8)
C1 0.039(7) 0.092(12) 0.091(13) 0.008(10) 0.002(9) 0.000(7)
C2 0.041(10) 0.101(12) 0.146(16) 0.028(12) 0.031(11) 0.018(7)
C3 0.036(7) 0.104(14) 0.132(16) 0.008(12) 0.022(11) 0.009(7)
C4 0.068(12) 0.109(16) 0.063(9) 0.001(10) -0.015(7) 0.020(9)
C5 0.097(15) 0.20(2) 0.072(11) 0.041(14) 0.014(9) 0.074(13)
C6 0.090(15) 0.19(2) 0.063(9) 0.027(13) 0.003(9) 0.068(13)
C7 0.065(13) 0.100(15) 0.071(10) -0.008(9) 0.023(8) -0.010(8)
C8 0.117(16) 0.115(17) 0.083(12) -0.012(10) 0.046(10) -0.048(11)
C9 0.108(16) 0.111(17) 0.081(11) -0.024(10) 0.039(10) -0.030(10)
C10 0.096(15) 0.096(12) 0.069(11) -0.012(9) -0.011(10) 0.023(11)
C11 0.127(17) 0.075(11) 0.116(15) -0.005(8) -0.057(13) 0.019(12)
C12 0.129(17) 0.074(12) 0.098(12) -0.011(9) -0.055(12) 0.010(11)
Zn2E 0.0603 0.092 0.0676 -0.0014 -0.0049 -0.0012
Zn2A 0.0603 0.092 0.0676 -0.0014 -0.0049 -0.0012
Zn2G 0.0603 0.092 0.0676 0.0014 -0.0049 0.0012
N3A 0.055 0.107 0.065 0.005 0.007 -0.015
N5E 0.08 0.081 0.073 0.001 -0.016 0.016
N7G 0.095 0.084 0.077 -0.015 0.027 -0.009
N9 0.27(3) 0.18(2) 0.19(3) 0.00(2) 0.02(2) 0.08(3)
C13 0.26(3) 0.20(3) 0.24(3) 0.02(3) 0.03(3) 0.09(3)
C14 0.41(5) 0.30(5) 0.30(4) 0.08(5) 0.13(4) -0.05(5)
C15 0.44(5) 0.38(6) 0.27(4) -0.03(5) -0.11(4) 0.09(5)
O1 0.27(3) 0.28(4) 0.24(3) 0.01(3) 0.08(2) 0.10(3)
loop_
_geom_bond_atom_site_label_1
_geom_bond_atom_site_label_2
_geom_bond_site_symmetry_1
_geom_bond_site_symmetry_2
Zn1 N2 1_555 1_555
Zn2 N1 1_555 1_555
N1 C1 1_555 1_555
N2 C1 1_555 1_555
N3 C4 1_555 1_555
N4 Zn1 1_555 1_555
N5 C7 1_555 1_555
N6 Zn1 1_555 1_555
N7 C10 1_555 1_555
N8 Zn1 1_555 1_555
C1 H1 1_555 1_555
C2 N2 1_555 1_555
C3 N1 1_555 1_555
C4 N4 1_555 1_555
C5 N4 1_555 1_555
C6 N3 1_555 1_555
C7 N6 1_555 1_555
C8 N6 1_555 1_555
C9 N5 1_555 1_555
C10 N8 1_555 1_555
C11 N7 1_555 1_555
C12 N8 1_555 1_555
H2 C2 1_555 1_555
H3 C3 1_555 1_555
H4 C4 1_555 1_555
H5 C5 1_555 1_555
H6 C6 1_555 1_555
H7 C7 1_555 1_555
H8 C8 1_555 1_555
H9 C9 1_555 1_555
H10 C10 1_555 1_555
H11 C11 1_555 1_555
H12 C12 1_555 1_555
N9 C13 1_555 1_555
C13 O1 1_555 1_555
C14 N9 1_555 1_555
C15 N9 1_555 1_555
H13 C13 1_555 1_555
H14 C14 1_555 1_555
H15 C14 1_555 1_555
H16 C14 1_555 1_555
H17 C15 1_555 1_555
H18 C15 1_555 1_555
H19 C15 1_555 1_555
Zn2E N5 1_555 1_555
Zn2A N3 1_555 1_555
Zn2G N7 1_555 1_555
N3A Zn2 1_555 1_555
N5E Zn2 1_555 1_555
N7G Zn2 1_555 1_555
C2 C3 1_555 1_555
C5 C6 1_555 1_555
C8 C9 1_555 1_555
C11 C12 1_555 1_555

#END
