
#######################################################################
#
#                 Cambridge Crystallographic Data Centre
#                                CCDC 
#
#######################################################################
#
# If this CIF has been generated from an entry in the Cambridge 
# Structural Database, then it will include bibliographic, chemical, 
# crystal, experimental, refinement or atomic coordinate data resulting 
# from the CCDC's data processing and validation procedures.
#
#######################################################################

data_EXIDOF
_chemical_formula_moiety         '(C45 H32 Co2 N4 O20)n'
_symmetry_cell_setting           tetragonal
_symmetry_space_group_name_H-M   'I 41/a c d'
_symmetry_Int_Tables_number      142
_space_group_name_Hall           '-I 4bd 2c'
loop_
_symmetry_equiv_pos_site_id
_symmetry_equiv_pos_as_xyz
1 x,y,z
2 -x,1/2-y,z
3 x,-y,1/2-z
4 1/2-x,y,-z
5 1/4-y,1/4-x,1/4-z
6 3/4+y,1/4+x,1/4-z
7 1/4+y,1/4-x,3/4+z
8 1/4-y,3/4+x,1/4+z
9 1/2+x,1/2+y,1/2+z
10 1/2-x,-y,1/2+z
11 1/2+x,1/2-y,-z
12 -x,1/2+y,1/2-z
13 3/4-y,3/4-x,3/4-z
14 1/4+y,3/4+x,3/4-z
15 3/4+y,3/4-x,1/4+z
16 3/4-y,1/4+x,3/4+z
17 -x,-y,-z
18 x,1/2+y,-z
19 -x,y,1/2+z
20 1/2+x,-y,z
21 3/4+y,3/4+x,3/4+z
22 1/4-y,3/4-x,3/4+z
23 3/4-y,3/4+x,1/4-z
24 3/4+y,1/4-x,3/4-z
25 1/2-x,1/2-y,1/2-z
26 1/2+x,y,1/2-z
27 1/2-x,1/2+y,z
28 x,1/2-y,1/2+z
29 1/4+y,1/4+x,1/4+z
30 3/4-y,1/4-x,1/4+z
31 1/4-y,1/4+x,3/4-z
32 1/4+y,3/4-x,1/4-z
_cell_length_a                   16.272(5)
_cell_length_b                   16.272(5)
_cell_length_c                   29.936(5)
_cell_angle_alpha                90
_cell_angle_beta                 90
_cell_angle_gamma                90
_cell_volume                     7926.39
loop_
_atom_site_label
_atom_site_type_symbol
_atom_site_fract_x
_atom_site_fract_y
_atom_site_fract_z
Co1 Co 0.72069(2) -0.47069(2) 0.1250
O1 O 0.66026(13) -0.80416(12) 0.10176(7)
O2 O 0.75592(11) -0.65486(11) 0.11925(6)
O3 O 0.72390(10) -0.54866(12) 0.07592(6)
C1 C 0.7500 -0.8020(2) 0.0000
H1 H 0.7500 -0.8592 0.0000
C2 C 0.74363(15) -0.67564(15) 0.04069(9)
O4 O 0.77859(10) -0.86975(12) 0.08884(6)
C3 C 0.74044(15) -0.62424(16) 0.08271(9)
C5 C 0.74192(15) -0.76174(15) 0.04072(8)
C7 C 0.7500 -0.6351(2) 0.0000
H3 H 0.7500 -0.5780 0.0000
C8 C 0.72460(18) -0.81441(15) 0.08144(9)
Co1C Co 0.77931(2) -0.47069(2) -0.1250
Co1Z Co 0.77931(2) -0.97069(2) 0.1250
Co1Q Co 0.72069(2) -0.97069(2) -0.1250
Co1Z_2 Co 0.77931(2) 0.02931(2) 0.1250
Co1Q_2 Co 0.72069(2) 0.02931(2) -0.1250
O1C O 0.83974(13) -0.80416(12) -0.10176(7)
O1Z O 0.83974(13) -0.30416(12) 0.10176(7)
O1Q O 0.66026(13) -0.30416(12) -0.10176(7)
O2C O 0.74408(11) -0.65486(11) -0.11925(6)
O2Z O 0.74408(11) -0.15486(11) 0.11925(6)
O2Q O 0.75592(11) -0.15486(11) -0.11925(6)
O3C O 0.77610(10) -0.54866(12) -0.07592(6)
O3Z O 0.77610(10) -0.04866(12) 0.07592(6)
O3Q O 0.72390(10) -0.04866(12) -0.07592(6)
O3D O 0.79866(12) -0.47390(10) 0.17408(6)
O3F O 0.70134(12) -0.47390(10) -0.17408(6)
C1Q C 0.7500 -0.3020(2) 0.0000
H1Q H 0.7500 -0.3592 0.0000
C2C C 0.75637(15) -0.67564(15) -0.04069(9)
C2Z C 0.75637(15) -0.17564(15) 0.04069(9)
C2Q C 0.74363(15) -0.17564(15) -0.04069(9)
O4C O 0.72141(10) -0.86975(12) -0.08884(6)
O4Z O 0.72141(10) -0.36975(12) 0.08884(6)
O4Q O 0.77859(10) -0.36975(12) -0.08884(6)
O4V O 0.61975(12) -0.47141(10) 0.16116(6)
O4T O 0.88025(12) -0.47141(10) -0.16116(6)
C3C C 0.75956(15) -0.62424(16) -0.08271(9)
C3Z C 0.75956(15) -0.12424(16) 0.08271(9)
C3Q C 0.74044(15) -0.12424(16) -0.08271(9)
C5C C 0.75808(15) -0.76174(15) -0.04072(8)
C5Z C 0.75808(15) -0.26174(15) 0.04072(8)
C5Q C 0.74192(15) -0.26174(15) -0.04072(8)
C7Q C 0.7500 -0.1351(2) 0.0000
H3Q H 0.7500 -0.0780 0.0000
C8C C 0.77540(18) -0.81441(15) -0.08144(9)
C8Z C 0.77540(18) -0.31441(15) 0.08144(9)
C8Q C 0.72460(18) -0.31441(15) -0.08144(9)
N1 N 1.16919(18) -0.21633(18) -0.31098(10)
C4 C 1.1195(2) -0.2783(2) -0.30060(13)
H2 H 1.1013 -0.3136 -0.3230
C6 C 1.0000 -0.2500 -0.1250
C9 C 1.1196(2) -0.2375(2) -0.22472(12)
C10 C 1.0948(2) -0.2907(2) -0.25775(14)
H4 H 1.0611 -0.3350 -0.2508
C11 C 1.1935(2) -0.1644(2) -0.28035(14)
H5 H 1.2271 -0.1208 -0.2885
C12 C 1.1707(2) -0.1726(2) -0.23649(13)
H6 H 1.1890 -0.1355 -0.2151
O6 O 1.1104(3) -0.2228(3) -0.18000(16)
C13 C 1.0706(4) -0.2145(4) -0.1519(2)
N1L N 0.96633(18) -0.41919(18) 0.06098(10)
N1M N 1.03367(18) -0.08081(18) 0.06098(10)
N1A N 0.83081(18) -0.28367(18) -0.31098(10)
C4L C 1.0283(2) -0.3695(2) 0.05060(13)
C4M C 0.9717(2) -0.1305(2) 0.05060(13)
C4A C 0.8805(2) -0.2217(2) -0.30060(13)
H2L H 1.0636 -0.3513 0.0730
H2M H 0.9364 -0.1487 0.0730
H2A H 0.8987 -0.1864 -0.3230
C9L C 0.9875(2) -0.3696(2) -0.02528(12)
C9M C 1.0125(2) -0.1304(2) -0.02528(12)
C9A C 0.8804(2) -0.2625(2) -0.22472(12)
C10L C 1.0407(2) -0.3448(2) 0.00775(14)
C10M C 0.9593(2) -0.1552(2) 0.00775(14)
C10A C 0.9052(2) -0.2093(2) -0.25775(14)
H4L H 1.0850 -0.3111 0.0008
H4M H 0.9150 -0.1889 0.0008
H4A H 0.9389 -0.1650 -0.2508
C11L C 0.9144(2) -0.4435(2) 0.03035(14)
C11M C 1.0856(2) -0.0565(2) 0.03035(14)
C11A C 0.8065(2) -0.3356(2) -0.28035(14)
H5L H 0.8708 -0.4771 0.0385
H5M H 1.1292 -0.0229 0.0385
H5A H 0.7729 -0.3792 -0.2885
C12L C 0.9226(2) -0.4207(2) -0.01351(13)
C12M C 1.0774(2) -0.0793(2) -0.01351(13)
C12A C 0.8293(2) -0.3274(2) -0.23649(13)
H6L H 0.8855 -0.4390 -0.0349
H6M H 1.1145 -0.0610 -0.0349
H6A H 0.8110 -0.3645 -0.2151
O6L O 0.9728(3) -0.3604(3) -0.07000(16)
O6M O 1.0272(3) -0.1396(3) -0.07000(16)
O6A O 0.8896(3) -0.2772(3) -0.18000(16)
C13L C 0.9645(4) -0.3206(4) -0.0981(2)
C13M C 1.0355(4) -0.1794(4) -0.0981(2)
C13A C 0.9294(4) -0.2855(4) -0.1519(2)
loop_
_geom_bond_atom_site_label_1
_geom_bond_atom_site_label_2
_geom_bond_site_symmetry_1
_geom_bond_site_symmetry_2
Co1 O3 1_555 1_555
O1 C8 1_555 1_555
O2 C3 1_555 1_555
O3 C3 1_555 1_555
C1 H1 1_555 1_555
C2 C3 1_555 1_555
N1 C4 1_555 1_555
O4 C8 1_555 1_555
C4 H2 1_555 1_555
C5 C1 1_555 1_555
C6 C13 1_555 1_555
C7 C2 1_555 1_555
H3 C7 1_555 1_555
C8 C5 1_555 1_555
C9 C10 1_555 1_555
C10 C4 1_555 1_555
H4 C10 1_555 1_555
C11 N1 1_555 1_555
H5 C11 1_555 1_555
C12 C9 1_555 1_555
H6 C12 1_555 1_555
O6 C9 1_555 1_555
C13 O6 1_555 1_555
Co1C O3C 1_555 1_555
Co1Z O4 1_555 1_555
Co1Q O4C 1_555 1_555
Co1Z_2 O3Z 1_555 1_555
Co1Q_2 O3Q 1_555 1_555
O1C C8C 1_555 1_555
O1Z C8Z 1_555 1_555
O1Q C8Q 1_555 1_555
O2C C3C 1_555 1_555
O2Z C3Z 1_555 1_555
O2Q C3Q 1_555 1_555
O3C C3C 1_555 1_555
O3Z C3Z 1_555 1_555
O3Q C3Q 1_555 1_555
O3D Co1 1_555 1_555
O3F Co1C 1_555 1_555
C1Q H1Q 1_555 1_555
C2C C7 1_555 1_555
C2Z C3Z 1_555 1_555
C2Q C3Q 1_555 1_555
N1L C4L 1_555 1_555
N1M C4M 1_555 1_555
N1A C4A 1_555 1_555
O4C C8C 1_555 1_555
O4Z Co1 1_555 1_555
O4Q Co1C 1_555 1_555
O4V Co1 1_555 1_555
O4T Co1C 1_555 1_555
C3C C2C 1_555 1_555
C4L H2L 1_555 1_555
C4M H2M 1_555 1_555
C4A H2A 1_555 1_555
C5C C1 1_555 1_555
C5Z C1Q 1_555 1_555
C5Q C1Q 1_555 1_555
C7Q C2Z 1_555 1_555
H3Q C7Q 1_555 1_555
C8C C5C 1_555 1_555
C8Z O4Z 1_555 1_555
C8Q O4Q 1_555 1_555
C9L C10L 1_555 1_555
C9M C10M 1_555 1_555
C9A C10A 1_555 1_555
C10L C4L 1_555 1_555
C10M C4M 1_555 1_555
C10A C4A 1_555 1_555
H4L C10L 1_555 1_555
H4M C10M 1_555 1_555
H4A C10A 1_555 1_555
C11L N1L 1_555 1_555
C11M N1M 1_555 1_555
C11A N1A 1_555 1_555
H5L C11L 1_555 1_555
H5M C11M 1_555 1_555
H5A C11A 1_555 1_555
C12L C9L 1_555 1_555
C12M C9M 1_555 1_555
C12A C9A 1_555 1_555
H6L C12L 1_555 1_555
H6M C12M 1_555 1_555
H6A C12A 1_555 1_555
O6L C9L 1_555 1_555
O6M C9M 1_555 1_555
O6A C9A 1_555 1_555
C13L C6 1_555 1_555
C13M C6 1_555 1_555
C13A C6 1_555 1_555
C2 C5 1_555 1_555
C11 C12 1_555 1_555
C2C C5C 1_555 1_555
C2Z C5Z 1_555 1_555
C2Q C5Q 1_555 1_555
C2Q C7Q 1_555 1_555
C5Z C8Z 1_555 1_555
C5Q C8Q 1_555 1_555
C11L C12L 1_555 1_555
C11M C12M 1_555 1_555
C11A C12A 1_555 1_555
O6L C13L 1_555 1_555
O6M C13M 1_555 1_555
O6A C13A 1_555 1_555

#END
