
#######################################################################
#
#                 Cambridge Crystallographic Data Centre
#                                CCDC 
#
#######################################################################
#
# If this CIF has been generated from an entry in the Cambridge 
# Structural Database, then it will include bibliographic, chemical, 
# crystal, experimental, refinement or atomic coordinate data resulting 
# from the CCDC's data processing and validation procedures.
#
#######################################################################

data_ZURQOS
_chemical_formula_moiety         '(C24 H12 Cd1 N6 Ni1)n'
_symmetry_cell_setting           triclinic
_symmetry_space_group_name_H-M   'P -1'
_symmetry_Int_Tables_number      2
_space_group_name_Hall           '-P 1'
loop_
_symmetry_equiv_pos_site_id
_symmetry_equiv_pos_as_xyz
1 x,y,z
2 -x,-y,-z
_cell_length_a                   6.960(2)
_cell_length_b                   7.718(2)
_cell_length_c                   9.693(2)
_cell_angle_alpha                90.61(2)
_cell_angle_beta                 91.72(2)
_cell_angle_gamma                90.17(2)
_cell_volume                     520.415
loop_
_atom_site_label
_atom_site_type_symbol
_atom_site_fract_x
_atom_site_fract_y
_atom_site_fract_z
C7 C -0.078(4) 0.478(2) -0.573(4)
C8 C -0.087(3) 0.445(1) -0.427(2)
C9 C -0.012(5) 0.547(4) -0.697(2)
C10 C -0.207(3) 0.446(2) -0.663(2)
C11 C -0.237(4) 0.399(2) -0.504(6)
C12 C -0.145(10) 0.378(5) -0.355(4)
C8A C 0.087(3) 0.555(1) -0.573(2)
C7A C 0.078(4) 0.522(2) -0.427(4)
C9A C 0.012(5) 0.453(4) -0.303(2)
C12A C 0.145(10) 0.622(5) -0.645(4)
C11A C 0.237(4) 0.601(2) -0.496(6)
C10A C 0.207(3) 0.554(2) -0.337(2)
Cd1 Cd 0.00000 0.00000 0.00000
Ni1 Ni 0.50000 0.50000 0.00000
N1 N 0.1983(4) 0.2366(3) 0.0630(3)
N2 N 0.7631(4) 0.2020(4) -0.0513(4)
N3 N 0.1184(4) 0.0042(4) -0.2253(3)
C1 C 0.3104(4) 0.3397(4) 0.0418(3)
C2 C 0.6644(4) 0.3173(4) -0.0326(3)
C3 C 0.3229(6) 0.0523(7) -0.2333(4)
C4 C 0.4112(5) 0.0235(5) -0.3734(3)
C5 C 0.3245(6) 0.0857(6) -0.4935(4)
C6 C 0.5858(6) -0.0624(6) -0.3804(4)
H1 H 0.04100 0.08945 -0.28026
H3 H 0.33699 0.19076 -0.20662
H4 H 0.40481 -0.02472 -0.15713
H5 H 0.18828 0.15192 -0.48980
H6 H 0.65331 -0.11192 -0.28713
N1A N -0.1983(4) -0.2366(3) -0.0630(3)
N2A N 0.2369(4) -0.2020(4) 0.0513(4)
N3A N -0.1184(4) -0.0042(4) 0.2253(3)
C1A C 0.6896(4) 0.6603(4) -0.0418(3)
C2A C 0.3356(4) 0.6827(4) 0.0326(3)
C6A C 0.4142(6) 0.0624(6) -0.6196(4)
C5A C 0.6755(6) -0.0857(6) -0.5065(4)
H1A H -0.04100 -0.08945 0.28026
N1A_2 N 0.8017(4) 0.7634(3) -0.0630(3)
N2_2 N -0.2369(4) 0.2020(4) -0.0513(4)
N2A_2 N 0.2369(4) 0.7980(4) 0.0513(4)
C4A C 0.5888(5) -0.0235(5) -0.6266(3)
H6A H 0.34669 0.11192 -0.71287
H5A H 0.81172 -0.15192 -0.51020
Cd1_2 Cd 1.00000 1.00000 0.00000
Cd1_3 Cd 1.00000 0.00000 0.00000
Cd1_4 Cd 0.00000 1.00000 0.00000
C3A C 0.6771(6) -0.0523(7) -0.7667(4)
N3A_2 N 0.8816(4) -0.0042(4) -0.7747(3)
H3A H 0.66301 -0.19076 -0.79338
H4A H 0.59519 0.02472 -0.84287
Cd1_5 Cd 1.00000 0.00000 -1.00000
H1A_2 H 0.95900 -0.08945 -0.71974
loop_
_geom_bond_atom_site_label_1
_geom_bond_atom_site_label_2
_geom_bond_site_symmetry_1
_geom_bond_site_symmetry_2
Cd1 N1 1_555 1_555
Ni1 C1 1_555 1_555
N1 C1 1_555 1_555
N2 C2 1_555 1_555
N3 Cd1 1_555 1_555
C2 Ni1 1_555 1_555
C3 N3 1_555 1_555
C4 C3 1_555 1_555
C5 C4 1_555 1_555
C6 C4 1_555 1_555
C7 C8 1_555 1_555
C8 C11 1_555 1_555
C9 C7 1_555 1_555
C10 C7 1_555 1_555
C11 C7 1_555 1_555
C12 C8 1_555 1_555
H1 N3 1_555 1_555
H3 C3 1_555 1_555
H4 C3 1_555 1_555
H5 C5 1_555 1_555
H6 C6 1_555 1_555
N1A Cd1 1_555 1_555
N2A Cd1 1_555 1_555
N3A Cd1 1_555 1_555
C1A Ni1 1_555 1_555
C2A Ni1 1_555 1_555
C6A C5 1_555 1_555
C5A C6 1_555 1_555
C8A C7 1_555 1_555
C7A C8 1_555 1_555
C9A C8 1_555 1_555
C12A C9 1_555 1_555
H1A N3A 1_555 1_555
N1A_2 C1A 1_555 1_555
N2_2 Cd1 1_555 1_555
N2A_2 C2A 1_555 1_555
C4A C6A 1_555 1_555
H6A C6A 1_555 1_555
H5A C5A 1_555 1_555
C11A C8A 1_555 1_555
C10A C7A 1_555 1_555
Cd1_2 N1A_2 1_555 1_555
Cd1_3 N2 1_555 1_555
Cd1_4 N2A_2 1_555 1_555
C3A C4A 1_555 1_555
N3A_2 C3A 1_555 1_555
H3A C3A 1_555 1_555
H4A C3A 1_555 1_555
Cd1_5 N3A_2 1_555 1_555
H1A_2 N3A_2 1_555 1_555
C9 C8A 1_555 1_555
C9 C10 1_555 1_555
C10 C11 1_555 1_555
C11 C12 1_555 1_555
C12 C9A 1_555 1_555
C5A C4A 1_555 1_555
C8A C7A 1_555 1_555
C8A C12A 1_555 1_555
C7A C9A 1_555 1_555
C7A C11A 1_555 1_555
C9A C10A 1_555 1_555
C12A C11A 1_555 1_555
C11A C10A 1_555 1_555

#END
