
#######################################################################
#
#                 Cambridge Crystallographic Data Centre
#                                CCDC 
#
#######################################################################
#
# If this CIF has been generated from an entry in the Cambridge 
# Structural Database, then it will include bibliographic, chemical, 
# crystal, experimental, refinement or atomic coordinate data resulting 
# from the CCDC's data processing and validation procedures.
#
#######################################################################

data_GUXRAT
_chemical_formula_moiety         '(C35 H19 O10 Zn2 1-)n'
_symmetry_cell_setting           hexagonal
_symmetry_space_group_name_H-M   'P 65 2 2'
_symmetry_Int_Tables_number      179
_space_group_name_Hall           'P 65 2 (0 0 1)'
loop_
_symmetry_equiv_pos_site_id
_symmetry_equiv_pos_as_xyz
1 x,y,z
2 x-y,x,5/6+z
3 -y,x-y,2/3+z
4 -x,-y,1/2+z
5 -x+y,-x,1/3+z
6 y,-x+y,1/6+z
7 -y,-x,1/6-z
8 x-y,-y,-z
9 x,x-y,5/6-z
10 y,x,2/3-z
11 -x+y,y,1/2-z
12 -x,-x+y,1/3-z
_cell_length_a                   16.5748(7)
_cell_length_b                   16.5748(7)
_cell_length_c                   28.129(2)
_cell_angle_alpha                90
_cell_angle_beta                 90
_cell_angle_gamma                120
_cell_volume                     6692.39
loop_
_atom_site_label
_atom_site_type_symbol
_atom_site_fract_x
_atom_site_fract_y
_atom_site_fract_z
Zn1 Zn 0.50631(5) 0.49813(5) 0.14223(2)
C1 C 0.3359(5) 0.4194(5) 0.0859(3)
C2 C 0.2320(2) 0.3699(4) 0.08385(17)
C3 C 0.1841(3) 0.3789(4) 0.04552(15)
H1 H 0.2167 0.4202 0.0210
C4 C 0.0875(3) 0.3263(4) 0.04380(15)
H2 H 0.0554 0.3323 0.0182
C5 C 0.0387(2) 0.2646(3) 0.08040(17)
C6 C 0.0865(3) 0.2556(4) 0.11872(15)
H3 H 0.0539 0.2143 0.1432
C7 C 0.1832(3) 0.3083(4) 0.12045(15)
H4 H 0.2152 0.3023 0.1461
C8 C -0.0642(4) 0.2139(4) 0.0806(2)
C9 C -0.1162(3) 0.1162(3) 0.0833
H5 H -0.0838 0.0838 0.0833
C10 C -0.1128(4) 0.2590(4) 0.0791(2)
H6 H -0.0811 0.3233 0.0752
C11 C -0.2109(3) 0.2109(3) 0.0833
C12 C -0.2626(3) 0.2626(3) 0.0833
C13 C -0.2382(6) 0.3363(6) 0.0521(3)
H7 H -0.1888 0.3551 0.0310
C14 C -0.2901(6) 0.3808(6) 0.0535(3)
H8 H -0.2745 0.4288 0.0318
C15 C -0.3609(4) 0.3609(4) 0.0833
C16 C -0.4129(4) 0.4129(4) 0.0833
C17 C 0.5628(6) 0.5553(8) 0.2317(3)
C18 C 0.5560(8) 0.5504(8) 0.2846(3)
C19 C 0.6298(9) 0.6272(9) 0.3090(2)
H9 H 0.6789 0.6747 0.2922
C20 C 0.4845(8) 0.4792(9) 0.3083(3)
H10 H 0.4396 0.4275 0.2919
O1 O 0.3721(3) 0.4218(4) 0.12312(19)
O2 O 0.3776(4) 0.4577(4) 0.04896(18)
O3 O -0.4445(5) 0.4192(5) 0.12219(18)
O4 O 0.4973(4) 0.4943(4) 0.2108(2)
O5 O 0.6342(8) 0.5894(11) 0.2084(3)
Zn1F Zn -0.49813(5) -0.50631(5) 0.02444(2)
Zn1F_2 Zn 0.50187(5) 0.49369(5) 0.02444(2)
Zn1_2 Zn -0.49369(5) 0.49813(5) 0.14223(2)
Zn1_3 Zn -0.49369(5) -0.50187(5) 0.14223(2)
Zn1F_3 Zn -0.49813(5) 0.49369(5) 0.02444(2)
Zn1I Zn 0.49813(5) 0.50631(5) 0.52444(2)
C1F C -0.4194(5) -0.3359(5) 0.0808(3)
C2F C -0.3699(4) -0.2320(2) 0.08282(17)
C3F C -0.3789(4) -0.1841(3) 0.12115(15)
H1F H -0.4202 -0.2167 0.1457
C4F C -0.3263(4) -0.0875(3) 0.12287(15)
H2F H -0.3323 -0.0554 0.1485
C5F C -0.2646(3) -0.0387(2) 0.08627(17)
C6F C -0.2556(4) -0.0865(3) 0.04795(15)
H3F H -0.2143 -0.0539 0.0235
C7F C -0.3083(4) -0.1832(3) 0.04622(15)
H4F H -0.3023 -0.2152 0.0206
C8F C -0.2139(4) 0.0642(4) 0.0861(2)
C10F C -0.2590(4) 0.1128(4) 0.0876(2)
H6F H -0.3233 0.0811 0.0915
C13F C -0.3363(6) 0.2382(6) 0.1146(3)
H7F H -0.3551 0.1888 0.1357
C14F C -0.3808(6) 0.2901(6) 0.1132(3)
H8F H -0.4288 0.2745 0.1349
C17I C 0.5553(8) 0.5628(6) 0.4350(3)
C18I C 0.5504(8) 0.5560(8) 0.3821(3)
C19I C 0.6272(9) 0.6298(9) 0.3577(2)
H9I H 0.6747 0.6789 0.3745
C20I C 0.4792(9) 0.4845(8) 0.3584(3)
H10I H 0.4275 0.4396 0.3748
O1F O -0.4218(4) -0.3721(3) 0.04355(19)
O2F O -0.4577(4) -0.3776(4) 0.11771(18)
O2F_2 O 0.5423(4) 0.6224(4) 0.11771(18)
O2_2 O -0.6224(4) -0.5423(4) 0.04896(18)
O3F O -0.4192(5) 0.4445(5) 0.04448(18)
O3_2 O 0.5555(5) 0.4192(5) 0.12219(18)
O3F_2 O -0.4192(5) -0.5555(5) 0.04448(18)
O4I O 0.4943(4) 0.4973(4) 0.4559(2)
O4F O -0.4943(4) -0.4973(4) -0.0441(2)
O5I O 0.5894(11) 0.6342(8) 0.4583(3)
loop_
_geom_bond_atom_site_label_1
_geom_bond_atom_site_label_2
_geom_bond_site_symmetry_1
_geom_bond_site_symmetry_2
Zn1 O1 1_555 1_555
C1 C2 1_555 1_555
C2 C3 1_555 1_555
C3 H1 1_555 1_555
C4 C3 1_555 1_555
H2 C4 1_555 1_555
C5 C4 1_555 1_555
C6 C5 1_555 1_555
H3 C6 1_555 1_555
C7 C2 1_555 1_555
H4 C7 1_555 1_555
C8 C5 1_555 1_555
C9 C8 1_555 1_555
H5 C9 1_555 1_555
C10 C8 1_555 1_555
H6 C10 1_555 1_555
C11 C10 1_555 1_555
C12 C11 1_555 1_555
C13 C12 1_555 1_555
H7 C13 1_555 1_555
C14 C13 1_555 1_555
H8 C14 1_555 1_555
C15 C14 1_555 1_555
C16 C15 1_555 1_555
C17 C18 1_555 1_555
C18 C19 1_555 1_555
C19 H9 1_555 1_555
C20 C18 1_555 1_555
H10 C20 1_555 1_555
O1 C1 1_555 1_555
O2 C1 1_555 1_555
O3 C16 1_555 1_555
O4 Zn1 1_555 1_555
O5 C17 1_555 1_555
Zn1F O1F 1_555 1_555
Zn1F_2 O2 1_555 1_555
Zn1_2 O3 1_555 1_555
Zn1_3 O2F 1_555 1_555
Zn1F_3 O3F 1_555 1_555
Zn1I O4I 1_555 1_555
C1F C2F 1_555 1_555
C2F C3F 1_555 1_555
C3F H1F 1_555 1_555
C4F C3F 1_555 1_555
H2F C4F 1_555 1_555
C5F C4F 1_555 1_555
C6F C5F 1_555 1_555
H3F C6F 1_555 1_555
C7F C2F 1_555 1_555
H4F C7F 1_555 1_555
C8F C9 1_555 1_555
C10F C11 1_555 1_555
H6F C10F 1_555 1_555
C13F C12 1_555 1_555
H7F C13F 1_555 1_555
C14F C15 1_555 1_555
H8F C14F 1_555 1_555
C17I C18I 1_555 1_555
C18I C19I 1_555 1_555
C19I C19 1_555 1_555
H9I C19I 1_555 1_555
C20I C20 1_555 1_555
H10I C20I 1_555 1_555
O1F C1F 1_555 1_555
O2F C1F 1_555 1_555
O2F_2 Zn1 1_555 1_555
O2_2 Zn1F 1_555 1_555
O3F C16 1_555 1_555
O3_2 Zn1 1_555 1_555
O3F_2 Zn1F 1_555 1_555
O4I C17I 1_555 1_555
O4F Zn1F 1_555 1_555
O5I C17I 1_555 1_555
C6 C7 1_555 1_555
C17 O4 1_555 1_555
C5F C8F 1_555 1_555
C6F C7F 1_555 1_555
C8F C10F 1_555 1_555
C13F C14F 1_555 1_555
C18I C20I 1_555 1_555

#END
