
#######################################################################
#
#                 Cambridge Crystallographic Data Centre
#                                CCDC 
#
#######################################################################
#
# If this CIF has been generated from an entry in the Cambridge 
# Structural Database, then it will include bibliographic, chemical, 
# crystal, experimental, refinement or atomic coordinate data resulting 
# from the CCDC's data processing and validation procedures.
#
#######################################################################

data_FALZAU
_chemical_formula_moiety         'C11 Ga12 N3 O33 P6'
_symmetry_cell_setting           orthorhombic
_symmetry_space_group_name_H-M   'P b c n'
_symmetry_Int_Tables_number      60
_space_group_name_Hall           '-P 2n 2ab'
loop_
_symmetry_equiv_pos_site_id
_symmetry_equiv_pos_as_xyz
1 x,y,z
2 1/2-x,1/2-y,1/2+z
3 -x,y,1/2-z
4 1/2+x,1/2-y,-z
5 -x,-y,-z
6 1/2+x,1/2+y,1/2-z
7 x,-y,1/2+z
8 1/2-x,1/2+y,z
_cell_length_a                   25.158(5)
_cell_length_b                   9.0536(18)
_cell_length_c                   10.166(2)
_cell_angle_alpha                90
_cell_angle_beta                 90
_cell_angle_gamma                90
_cell_volume                     2315.51
loop_
_atom_site_label
_atom_site_type_symbol
_atom_site_fract_x
_atom_site_fract_y
_atom_site_fract_z
Ga1 Ga -0.11665(2) 0.12231(5) 0.31131(5)
Ga2 Ga -0.23265(2) 0.66977(5) 0.51069(4)
P1 P -0.00530(10) 0.1134(3) 0.1784(2)
P2 P -0.16125(5) 0.04568(12) 0.03839(11)
P3 P -0.19784(5) 0.38883(12) 0.32008(11)
O1 O -0.14347(12) 0.3081(3) 0.3313(3)
O2 O -0.27938(12) 0.7901(3) 0.6294(3)
O3 O -0.19244(12) 0.5265(3) 0.4037(3)
O4 O -0.04825(13) 0.1666(3) 0.2687(3)
O5 O -0.14865(13) 0.0129(3) 0.1835(3)
O6 O -0.20717(13) 0.4311(3) 0.1746(3)
O7 O -0.11271(12) -0.0064(4) -0.0420(3)
O8 O -0.16860(12) 0.2109(3) 0.0207(3)
O9 O -0.24277(13) 0.2843(3) 0.3624(3)
O10 O -0.0125(3) 0.1843(7) 0.0416(6)
O11 O -0.0090(3) -0.0563(6) 0.1677(6)
O12 O -0.20882(12) -0.0391(3) -0.0062(3)
Ga1B Ga 0.11665(2) 0.12231(5) 0.18869(5)
Ga1F Ga -0.11665(2) -0.12231(5) -0.18869(5)
Ga1F_2 Ga -0.11665(2) -0.12231(5) 0.81131(5)
Ga1F_3 Ga -0.11665(2) 0.87769(5) 0.81131(5)
Ga2F Ga -0.23265(2) 0.33023(5) 0.01069(4)
Ga2G Ga -0.26735(2) 0.16977(5) 0.51069(4)
Ga2A Ga -0.26735(2) -0.16977(5) 0.01069(4)
Ga2_2 Ga -0.23265(2) -0.33023(5) 0.51069(4)
Ga2F_2 Ga -0.23265(2) 0.33023(5) 1.01069(4)
Ga2A_2 Ga -0.26735(2) 0.83023(5) 1.01069(4)
P1B P 0.00530(10) 0.1134(3) 0.3216(2)
P2F P -0.16125(5) -0.04568(12) 0.53839(11)
P3F P -0.19784(5) 0.61117(12) 0.82008(11)
O1F O -0.14347(12) 0.6919(3) 0.8313(3)
O1B O 0.14347(12) 0.3081(3) 0.1687(3)
O2F O -0.27938(12) 0.2099(3) 0.1294(3)
O3F O -0.19244(12) 0.4735(3) 0.9037(3)
O3F_2 O -0.19244(12) 0.4735(3) -0.0963(3)
O4B O 0.04825(13) 0.1666(3) 0.2313(3)
O5F O -0.14865(13) -0.0129(3) 0.6835(3)
O5B O 0.14865(13) 0.0129(3) 0.3165(3)
O6F O -0.20717(13) 0.5689(3) 0.6746(3)
O7F O -0.11271(12) 0.0064(4) 0.4580(3)
O7D O 0.11271(12) 0.0064(4) 0.0420(3)
O8F O -0.16860(12) -0.2109(3) 0.5207(3)
O8F_2 O -0.16860(12) 0.7891(3) 0.5207(3)
O9F O -0.24277(13) 0.7157(3) 0.8624(3)
O9G O -0.25723(13) 0.7843(3) 0.3624(3)
O9A O -0.25723(13) 0.2157(3) -0.1376(3)
O10B O 0.0125(3) 0.1843(7) 0.4584(6)
O11B O 0.0090(3) -0.0563(6) 0.3323(6)
O12F O -0.20882(12) 0.0391(3) 0.4938(3)
O12A O -0.29118(12) 0.5391(3) 0.4938(3)
O12G O -0.29118(12) 0.4609(3) -0.0062(3)
C1 C -0.0830(5) 0.3163(11) -0.2256(5)
C2 C -0.0878(6) 0.3851(12) -0.0859(5)
C3 C -0.0925(3) 0.4375(6) 0.0537(5)
C4 C -0.0558(2) 0.5665(8) 0.0478(12)
C5 C 0.0019(3) 0.5251(15) 0.0606(13)
N1 N -0.0890(4) 0.3102(10) -0.3730(6)
N2 N -0.0786(6) 0.3201(10) 0.1460(9)
C1F C -0.0830(5) 0.6837(11) 0.2744(5)
C3F C -0.0925(3) 0.5625(6) -0.4463(5)
C4F C -0.0558(2) 0.4335(8) -0.4522(12)
C4D C 0.0558(2) 0.4335(8) -0.0478(12)
C5D C -0.0019(3) 0.4749(15) -0.0606(13)
C5F C 0.0019(3) 0.4749(15) -0.4394(13)
N1F N -0.0890(4) 0.6898(10) 0.1270(6)
loop_
_geom_bond_atom_site_label_1
_geom_bond_atom_site_label_2
_geom_bond_site_symmetry_1
_geom_bond_site_symmetry_2
Ga1 O1 1_555 1_555
Ga2 O2 1_555 1_555
P1 O4 1_555 1_555
P2 O5 1_555 1_555
P3 O1 1_555 1_555
O3 Ga2 1_555 1_555
O4 Ga1 1_555 1_555
O5 Ga1 1_555 1_555
O6 P3 1_555 1_555
O7 P2 1_555 1_555
O8 P2 1_555 1_555
O9 P3 1_555 1_555
O10 P1 1_555 1_555
O11 P1 1_555 1_555
O12 P2 1_555 1_555
C1 C2 1_555 1_555
C2 C3 1_555 1_555
C3 C4 1_555 1_555
C4 C5 1_555 1_555
C5 C5D 1_555 1_555
N1 C1 1_555 1_555
N2 C3 1_555 1_555
Ga1B O1B 1_555 1_555
Ga1F O7 1_555 1_555
Ga1F_2 O5F 1_555 1_555
Ga1F_3 O1F 1_555 1_555
Ga2F O6 1_555 1_555
Ga2G O9 1_555 1_555
Ga2A O12 1_555 1_555
Ga2_2 O8F 1_555 1_555
Ga2F_2 O3F 1_555 1_555
Ga2A_2 O9F 1_555 1_555
P1B P1 1_555 1_555
P2F O5F 1_555 1_555
P3F O1F 1_555 1_555
O2F Ga2F 1_555 1_555
O3F P3F 1_555 1_555
O3F_2 Ga2F 1_555 1_555
O4B P1 1_555 1_555
O5B Ga1B 1_555 1_555
O6F Ga2 1_555 1_555
O7F Ga1 1_555 1_555
O7D Ga1B 1_555 1_555
O8F P2F 1_555 1_555
O8F_2 Ga2 1_555 1_555
O9F P3F 1_555 1_555
O9G Ga2 1_555 1_555
O9A Ga2F 1_555 1_555
O10B P1B 1_555 1_555
O11B O11 1_555 1_555
O12F Ga2G 1_555 1_555
O12A Ga2 1_555 1_555
O12G Ga2F 1_555 1_555
C1F N1F 1_555 1_555
C3F C4F 1_555 1_555
C4F N1 1_555 1_555
C4D C5D 1_555 1_555
C5F C4F 1_555 1_555
N1F C4 1_555 1_555
P3 O3 1_555 1_555
O4 P1B 1_555 1_555
O8 Ga2F 1_555 1_555
Ga1B O4B 1_555 1_555
P1B O4B 1_555 1_555
P1B O11B 1_555 1_555
P2F O7F 1_555 1_555
P2F O12F 1_555 1_555
P3F O6F 1_555 1_555

#END
