
#######################################################################
#
#                 Cambridge Crystallographic Data Centre
#                                CCDC 
#
#######################################################################
#
# If this CIF has been generated from an entry in the Cambridge 
# Structural Database, then it will include bibliographic, chemical, 
# crystal, experimental, refinement or atomic coordinate data resulting 
# from the CCDC's data processing and validation procedures.
#
#######################################################################

data_XEWDUA
_chemical_formula_moiety         'C54 H84 Cu3 Gd7 N12 O35'
_symmetry_cell_setting           triclinic
_symmetry_space_group_name_H-M   'P -1'
_symmetry_Int_Tables_number      2
_space_group_name_Hall           '-P 1'
loop_
_symmetry_equiv_pos_site_id
_symmetry_equiv_pos_as_xyz
1 x,y,z
2 -x,-y,-z
_cell_length_a                   8.8492(9)
_cell_length_b                   17.245(2)
_cell_length_c                   17.791(2)
_cell_angle_alpha                115.275(3)
_cell_angle_beta                 95.662(3)
_cell_angle_gamma                103.865(3)
_cell_volume                     2320.25
loop_
_atom_site_label
_atom_site_type_symbol
_atom_site_fract_x
_atom_site_fract_y
_atom_site_fract_z
Gd1 Gd 0.81422(4) 0.78035(2) 0.62472(2)
Cu1 Cu 1.0000 0.5000 0.5000
Cu2 Cu 1.5000 1.0000 0.5000
Cu3 Cu 0.5000 1.0000 1.0000
O1 O 0.9143(5) 0.6299(3) 0.5402(3)
O2 O 0.8481(6) 0.7092(3) 0.4793(3)
O3 O 0.3995(5) 0.3511(3) 0.4212(3)
O4 O 0.4136(6) 0.3903(4) 0.3176(4)
O5 O 1.1033(5) 0.8289(3) 0.6475(3)
O6 O 0.9851(5) 0.9040(3) 0.6021(3)
O7 O 1.3670(7) 1.1834(4) 0.4469(4)
O8 O 1.4716(7) 1.1235(4) 0.5139(4)
O9 O 0.8566(6) 0.9198(3) 0.7604(3)
O10 O 0.6220(6) 0.8174(3) 0.7161(3)
O11 O 0.7260(6) 1.1105(3) 1.0242(3)
O12 O 0.9815(6) 1.1648(4) 1.0959(4)
N1 N 1.0341(6) 0.5282(3) 0.4015(3)
N2 N 0.7676(6) 0.4084(3) 0.4342(3)
N3 N 1.3455(8) 0.9456(5) 0.3875(5)
N4 N 1.2726(7) 0.9691(4) 0.5501(4)
N5 N 0.6581(6) 0.9720(4) 1.0686(3)
N6 N 0.5374(7) 0.9096(4) 0.8768(4)
C1 C 0.9026(7) 0.6455(4) 0.4787(4)
C2 C 0.9501(8) 0.5926(4) 0.3983(4)
H1 H 1.0191 0.6347 0.3841
H2 H 0.8546 0.5588 0.3525
C3 C 0.9908(8) 0.4465(4) 0.3170(4)
H3 H 1.0600 0.4110 0.3184
H4 H 1.0121 0.4656 0.2741
C4 C 0.8201(9) 0.3869(5) 0.2899(4)
H5 H 0.8028 0.3395 0.2320
H6 H 0.7513 0.4226 0.2884
C5 C 0.7661(9) 0.3419(4) 0.3460(4)
H7 H 0.6588 0.3000 0.3187
H8 H 0.8364 0.3076 0.3496
C6 C 0.6465(7) 0.4552(4) 0.4309(4)
H9 H 0.6799 0.4914 0.4025
H10 H 0.6467 0.4962 0.4889
C7 C 0.4734(8) 0.3926(4) 0.3847(5)
C8 C 1.2092(7) 0.5722(5) 0.4211(4)
H11 H 1.2335 0.6024 0.3865
H12 H 1.2639 0.5271 0.4079
C9 C 1.2656(7) 0.6402(4) 0.5149(4)
H13 H 1.3793 0.6711 0.5283
H14 H 1.2099 0.6848 0.5283
C10 C 1.1024(8) 0.8770(4) 0.6122(5)
C11 C 1.2481(8) 0.8975(5) 0.5753(5)
H15 H 1.3430 0.9121 0.6173
H16 H 1.2420 0.8422 0.5255
C12 C 1.1505(9) 0.9463(7) 0.4769(6)
H17 H 1.0477 0.9153 0.4815
H18 H 1.1436 1.0013 0.4760
C13 C 1.1872(10) 0.8887(8) 0.3975(6)
H19 H 1.1000 0.8691 0.3494
H20 H 1.2024 0.8356 0.3995
C14 C 1.3316(12) 1.0263(6) 0.3769(7)
H21 H 1.3866 1.0290 0.3331
H22 H 1.2195 1.0161 0.3560
C15 C 1.3953(8) 1.1156(7) 0.4540(6)
C16 C 1.6139(12) 1.1213(6) 0.6820(7)
H23 H 1.6196 1.1726 0.6715
H24 H 1.6930 1.1421 0.7340
C17 C 1.4423(11) 1.0872(6) 0.6967(7)
H25 H 1.4378 1.0355 0.7064
H26 H 1.4318 1.1345 0.7488
C18 C 1.2898(12) 1.0588(6) 0.6230(6)
H27 H 1.1942 1.0557 0.6454
H28 H 1.3026 1.1039 0.6032
C19 C 0.7242(8) 0.8906(5) 0.7731(4)
C20 C 0.6897(8) 0.9457(5) 0.8585(4)
H29 H 0.7756 0.9555 0.9030
H30 H 0.6943 1.0045 0.8632
C21 C 0.3978(9) 0.9030(5) 0.8162(5)
H31 H 0.4167 0.8811 0.7591
H32 H 0.3014 0.8607 0.8148
C22 C 0.5249(9) 0.8221(5) 0.8761(5)
H33 H 0.5314 0.7799 0.8200
H34 H 0.4198 0.7990 0.8841
C23 C 0.6489(9) 0.8232(5) 0.9424(5)
H35 H 0.6401 0.7613 0.9288
H36 H 0.7543 0.8509 0.9376
C24 C 0.6364(10) 0.8728(5) 1.0346(5)
H37 H 0.5322 0.8439 1.0397
H38 H 0.7162 0.8658 1.0706
C25 C 0.6228(9) 1.0056(5) 1.1543(4)
H39 H 0.7096 1.0089 1.1946
H40 H 0.5259 0.9636 1.1527
C26 C 0.8279(8) 1.0232(5) 1.0762(5)
H41 H 0.8908 1.0412 1.1322
H42 H 0.8721 0.9829 1.0341
C27 C 0.8447(9) 1.1053(6) 1.0643(5)
O13 O 0.8751(5) 0.7359(3) 0.7328(3)
O1A O 1.0857(5) 0.3701(3) 0.4598(3)
O2A O 1.1519(6) 0.2908(3) 0.5207(3)
O3A O 1.6005(5) 0.6489(3) 0.5788(3)
O4A O 1.5864(6) 0.6097(4) 0.6824(4)
N1A N 0.9659(6) 0.4718(3) 0.5985(3)
N2A N 1.2324(6) 0.5916(3) 0.5658(3)
C1A C 1.0974(7) 0.3545(4) 0.5213(4)
C2A C 1.0499(8) 0.4074(4) 0.6017(4)
H1A H 0.9809 0.3653 0.6159
H2A H 1.1454 0.4412 0.6475
C3A C 1.0092(8) 0.5535(4) 0.6830(4)
H3A H 0.9400 0.5890 0.6816
H4A H 0.9879 0.5344 0.7259
C4A C 1.1799(9) 0.6131(5) 0.7101(4)
H5A H 1.1972 0.6605 0.7680
H6A H 1.2487 0.5774 0.7116
C5A C 1.2339(9) 0.6581(4) 0.6540(4)
H7A H 1.3412 0.7000 0.6813
H8A H 1.1636 0.6924 0.6504
C6A C 1.3535(7) 0.5448(4) 0.5691(4)
H9A H 1.3201 0.5086 0.5975
H10A H 1.3533 0.5038 0.5111
C7A C 1.5266(8) 0.6074(4) 0.6153(5)
C8A C 0.7908(7) 0.4278(5) 0.5789(4)
H11A H 0.7665 0.3976 0.6135
H12A H 0.7361 0.4729 0.5921
C9A C 0.7344(7) 0.3598(4) 0.4851(4)
H13A H 0.6207 0.3289 0.4717
H14A H 0.7901 0.3152 0.4717
O5A O 1.8967(5) 1.1711(3) 0.3525(3)
O6A O 2.0149(5) 1.0960(3) 0.3979(3)
O7A O 1.6330(7) 0.8166(4) 0.5531(4)
O8A O 1.5284(7) 0.8765(4) 0.4861(4)
N3A N 1.6545(8) 1.0544(5) 0.6125(5)
N4A N 1.7274(7) 1.0309(4) 0.4499(4)
C10A C 1.8976(8) 1.1230(4) 0.3878(5)
C11A C 1.7519(8) 1.1025(5) 0.4247(5)
H15A H 1.6570 1.0879 0.3827
H16A H 1.7580 1.1578 0.4745
C12A C 1.8495(9) 1.0537(7) 0.5231(6)
H17A H 1.9523 1.0847 0.5185
H18A H 1.8564 0.9987 0.5240
C13A C 1.8128(10) 1.1113(8) 0.6025(6)
H19A H 1.9000 1.1309 0.6506
H20A H 1.7976 1.1644 0.6005
C14A C 1.6684(12) 0.9737(6) 0.6231(7)
H21A H 1.6134 0.9710 0.6669
H22A H 1.7805 0.9839 0.6440
C15A C 1.6047(8) 0.8844(7) 0.5460(6)
C16A C 1.3861(12) 0.8787(6) 0.3180(7)
H23A H 1.3804 0.8274 0.3285
H24A H 1.3070 0.8579 0.2660
C17A C 1.5577(11) 0.9128(6) 0.3033(7)
H25A H 1.5622 0.9645 0.2936
H26A H 1.5682 0.8655 0.2512
C18A C 1.7102(12) 0.9412(6) 0.3770(6)
H27A H 1.8058 0.9443 0.3546
H28A H 1.6974 0.8961 0.3968
O9A O 0.1434(6) 1.0802(3) 1.2396(3)
O10A O 0.3780(6) 1.1826(3) 1.2839(3)
O11A O 0.2740(6) 0.8895(3) 0.9758(3)
O12A O 0.0185(6) 0.8352(4) 0.9041(4)
N5A N 0.3419(6) 1.0280(4) 0.9314(3)
N6A N 0.4626(7) 1.0904(4) 1.1232(4)
C19A C 0.2758(8) 1.1094(5) 1.2269(4)
C20A C 0.3103(8) 1.0543(5) 1.1415(4)
H29A H 0.2244 1.0445 1.0970
H30A H 0.3057 0.9955 1.1368
C21A C 0.6022(9) 1.0970(5) 1.1838(5)
H31A H 0.5833 1.1189 1.2409
H32A H 0.6986 1.1393 1.1852
C22A C 0.4751(9) 1.1779(5) 1.1239(5)
H33A H 0.4686 1.2201 1.1800
H34A H 0.5802 1.2010 1.1159
C23A C 0.3511(9) 1.1768(5) 1.0576(5)
H35A H 0.3599 1.2387 1.0712
H36A H 0.2457 1.1491 1.0624
C24A C 0.3636(10) 1.1272(5) 0.9654(5)
H37A H 0.4678 1.1561 0.9603
H38A H 0.2838 1.1342 0.9294
C25A C 0.3772(9) 0.9944(5) 0.8457(4)
H39A H 0.2904 0.9911 0.8054
H40A H 0.4741 1.0364 0.8473
C26A C 0.1721(8) 0.9768(5) 0.9238(5)
H41A H 0.1092 0.9588 0.8678
H42A H 0.1279 1.0171 0.9659
C27A C 0.1553(9) 0.8947(6) 0.9357(5)
Gd1A Gd 0.18578(4) 0.21965(2) 0.37528(2)
O13A O 0.1249(5) 0.2641(3) 0.2672(3)
Gd1_2 Gd 1.81422(4) 0.78035(2) 0.62472(2)
Gd1A_2 Gd 0.18578(4) 1.21965(2) 1.37528(2)
Gd1A_3 Gd 1.18578(4) 0.21965(2) 0.37528(2)
Gd1A_4 Gd 1.18578(4) 1.21965(2) 0.37528(2)
Gd1A_5 Gd 2.18578(4) 1.21965(2) 0.37528(2)
O1A_2 O 0.0857(5) 0.3701(3) 0.4598(3)
O2A_2 O 0.1519(6) 0.2908(3) 0.5207(3)
O3A_2 O 0.6005(5) 0.6489(3) 0.5788(3)
O5A_2 O -0.1033(5) 0.1711(3) 0.3525(3)
O6A_2 O 0.0149(5) 0.0960(3) 0.3979(3)
O7_2 O 0.3670(7) 0.1834(4) 0.4469(4)
O7A_2 O 0.6330(7) 0.8166(4) 0.5531(4)
O9A_2 O 0.1434(6) 0.0802(3) 0.2396(3)
O10A_2 O 0.3780(6) 0.1826(3) 0.2839(3)
loop_
_geom_bond_atom_site_label_1
_geom_bond_atom_site_label_2
_geom_bond_site_symmetry_1
_geom_bond_site_symmetry_2
Gd1 O1 1_555 1_555
Cu1 O1 1_555 1_555
Cu2 O8 1_555 1_555
Cu3 O11 1_555 1_555
O1 C1 1_555 1_555
O2 Gd1 1_555 1_555
O3 C7 1_555 1_555
O4 C7 1_555 1_555
O5 Gd1 1_555 1_555
O6 Gd1 1_555 1_555
O7 C15 1_555 1_555
O8 C15 1_555 1_555
O9 Gd1 1_555 1_555
O10 Gd1 1_555 1_555
O11 C27 1_555 1_555
O12 C27 1_555 1_555
N1 Cu1 1_555 1_555
N2 Cu1 1_555 1_555
N3 Cu2 1_555 1_555
N4 Cu2 1_555 1_555
N5 Cu3 1_555 1_555
N6 Cu3 1_555 1_555
C1 O2 1_555 1_555
C2 N1 1_555 1_555
H1 C2 1_555 1_555
H2 C2 1_555 1_555
C3 N1 1_555 1_555
H3 C3 1_555 1_555
H4 C3 1_555 1_555
C4 C3 1_555 1_555
H5 C4 1_555 1_555
H6 C4 1_555 1_555
C5 N2 1_555 1_555
H7 C5 1_555 1_555
H8 C5 1_555 1_555
C6 N2 1_555 1_555
H9 C6 1_555 1_555
H10 C6 1_555 1_555
C7 C6 1_555 1_555
C8 N1 1_555 1_555
H11 C8 1_555 1_555
H12 C8 1_555 1_555
C9 C8 1_555 1_555
H13 C9 1_555 1_555
H14 C9 1_555 1_555
C10 O5 1_555 1_555
C11 N4 1_555 1_555
H15 C11 1_555 1_555
H16 C11 1_555 1_555
C12 N4 1_555 1_555
H17 C12 1_555 1_555
H18 C12 1_555 1_555
C13 N3 1_555 1_555
H19 C13 1_555 1_555
H20 C13 1_555 1_555
C14 N3 1_555 1_555
H21 C14 1_555 1_555
H22 C14 1_555 1_555
C15 C14 1_555 1_555
C16 H23 1_555 1_555
H24 C16 1_555 1_555
C17 C16 1_555 1_555
H25 C17 1_555 1_555
H26 C17 1_555 1_555
C18 N4 1_555 1_555
H27 C18 1_555 1_555
H28 C18 1_555 1_555
C19 O9 1_555 1_555
C20 N6 1_555 1_555
H29 C20 1_555 1_555
H30 C20 1_555 1_555
C21 N6 1_555 1_555
H31 C21 1_555 1_555
H32 C21 1_555 1_555
C22 N6 1_555 1_555
H33 C22 1_555 1_555
H34 C22 1_555 1_555
C23 C22 1_555 1_555
H35 C23 1_555 1_555
H36 C23 1_555 1_555
C24 N5 1_555 1_555
H37 C24 1_555 1_555
H38 C24 1_555 1_555
C25 N5 1_555 1_555
H39 C25 1_555 1_555
H40 C25 1_555 1_555
C26 N5 1_555 1_555
H41 C26 1_555 1_555
H42 C26 1_555 1_555
C27 C26 1_555 1_555
O13 Gd1 1_555 1_555
O1A Cu1 1_555 1_555
O2A C1A 1_555 1_555
O3A C7A 1_555 1_555
O4A C7A 1_555 1_555
N1A Cu1 1_555 1_555
N2A Cu1 1_555 1_555
C1A O1A 1_555 1_555
C2A N1A 1_555 1_555
H1A C2A 1_555 1_555
H2A C2A 1_555 1_555
C3A N1A 1_555 1_555
H3A C3A 1_555 1_555
H4A C3A 1_555 1_555
C4A C3A 1_555 1_555
H5A C4A 1_555 1_555
H6A C4A 1_555 1_555
C5A N2A 1_555 1_555
H7A C5A 1_555 1_555
H8A C5A 1_555 1_555
C6A N2A 1_555 1_555
H9A C6A 1_555 1_555
H10A C6A 1_555 1_555
C7A C6A 1_555 1_555
C8A N1A 1_555 1_555
H11A C8A 1_555 1_555
H12A C8A 1_555 1_555
C9A N2 1_555 1_555
H13A C9A 1_555 1_555
H14A C9A 1_555 1_555
O5A C10A 1_555 1_555
O6A C10A 1_555 1_555
O7A C15A 1_555 1_555
O8A Cu2 1_555 1_555
N3A Cu2 1_555 1_555
N4A Cu2 1_555 1_555
C10A C11A 1_555 1_555
C11A N4A 1_555 1_555
H15A C11A 1_555 1_555
H16A C11A 1_555 1_555
C12A N4A 1_555 1_555
H17A C12A 1_555 1_555
H18A C12A 1_555 1_555
C13A N3A 1_555 1_555
H19A C13A 1_555 1_555
H20A C13A 1_555 1_555
C14A N3A 1_555 1_555
H21A C14A 1_555 1_555
H22A C14A 1_555 1_555
C15A O8A 1_555 1_555
C16A N3 1_555 1_555
H23A C16A 1_555 1_555
H24A C16A 1_555 1_555
C17A C16A 1_555 1_555
H25A C17A 1_555 1_555
H26A C17A 1_555 1_555
C18A N4A 1_555 1_555
H27A C18A 1_555 1_555
H28A C18A 1_555 1_555
O9A C19A 1_555 1_555
O10A C19A 1_555 1_555
O11A Cu3 1_555 1_555
O12A C27A 1_555 1_555
N5A Cu3 1_555 1_555
N6A Cu3 1_555 1_555
C19A C20A 1_555 1_555
C20A N6A 1_555 1_555
H29A C20A 1_555 1_555
H30A C20A 1_555 1_555
C21A C25 1_555 1_555
H31A C21A 1_555 1_555
H32A C21A 1_555 1_555
C22A N6A 1_555 1_555
H33A C22A 1_555 1_555
H34A C22A 1_555 1_555
C23A C22A 1_555 1_555
H35A C23A 1_555 1_555
H36A C23A 1_555 1_555
C24A N5A 1_555 1_555
H37A C24A 1_555 1_555
H38A C24A 1_555 1_555
C25A C21 1_555 1_555
H39A C25A 1_555 1_555
H40A C25A 1_555 1_555
C26A N5A 1_555 1_555
H41A C26A 1_555 1_555
H42A C26A 1_555 1_555
C27A O11A 1_555 1_555
Gd1A O3 1_555 1_555
O13A Gd1A 1_555 1_555
Gd1_2 O3A 1_555 1_555
Gd1A_2 O9A 1_555 1_555
Gd1A_3 O1A 1_555 1_555
Gd1A_4 O7 1_555 1_555
Gd1A_5 O5A 1_555 1_555
O1A_2 Gd1A 1_555 1_555
O2A_2 Gd1A 1_555 1_555
O3A_2 Gd1 1_555 1_555
O5A_2 Gd1A 1_555 1_555
O6A_2 Gd1A 1_555 1_555
O7_2 Gd1A 1_555 1_555
O7A_2 Gd1 1_555 1_555
O9A_2 Gd1A 1_555 1_555
O10A_2 Gd1A 1_555 1_555
O6 C10 1_555 1_555
O10 C19 1_555 1_555
C1 C2 1_555 1_555
C4 C5 1_555 1_555
C9 N2A 1_555 1_555
C10 C11 1_555 1_555
C12 C13 1_555 1_555
C16 N3A 1_555 1_555
C17 C18 1_555 1_555
C19 C20 1_555 1_555
C23 C24 1_555 1_555
O2A Gd1A_3 1_555 1_555
C1A C2A 1_555 1_555
C4A C5A 1_555 1_555
C8A C9A 1_555 1_555
O6A Gd1A_5 1_555 1_555
O7A Gd1_2 1_555 1_555
C12A C13A 1_555 1_555
C14A C15A 1_555 1_555
C17A C18A 1_555 1_555
O10A Gd1A_2 1_555 1_555
N5A C25A 1_555 1_555
N6A C21A 1_555 1_555
C23A C24A 1_555 1_555
C26A C27A 1_555 1_555

#END
