
#######################################################################
#
#                 Cambridge Crystallographic Data Centre
#                                CCDC 
#
#######################################################################
#
# If this CIF has been generated from an entry in the Cambridge 
# Structural Database, then it will include bibliographic, chemical, 
# crystal, experimental, refinement or atomic coordinate data resulting 
# from the CCDC's data processing and validation procedures.
#
#######################################################################

data_LONVAN
_chemical_formula_moiety         '(C6 H6 Cl2 Mn2 N6 O2)n'
_symmetry_cell_setting           rhombohedral
_symmetry_space_group_name_H-M   'R -3 m'
_symmetry_Int_Tables_number      166
_space_group_name_Hall           '-R 3 2"'
loop_
_symmetry_equiv_pos_site_id
_symmetry_equiv_pos_as_xyz
1 x,y,z
2 -y,x-y,z
3 -x+y,-x,z
4 y,x,-z
5 x-y,-y,-z
6 -x,-x+y,-z
7 2/3+x,1/3+y,1/3+z
8 2/3-y,1/3+x-y,1/3+z
9 2/3-x+y,1/3-x,1/3+z
10 2/3+y,1/3+x,1/3-z
11 2/3+x-y,1/3-y,1/3-z
12 2/3-x,1/3-x+y,1/3-z
13 1/3+x,2/3+y,2/3+z
14 1/3-y,2/3+x-y,2/3+z
15 1/3-x+y,2/3-x,2/3+z
16 1/3+y,2/3+x,2/3-z
17 1/3+x-y,2/3-y,2/3-z
18 1/3-x,2/3-x+y,2/3-z
19 -x,-y,-z
20 y,-x+y,-z
21 x-y,x,-z
22 -y,-x,z
23 -x+y,y,z
24 x,x-y,z
25 1/3-x,2/3-y,2/3-z
26 1/3+y,2/3-x+y,2/3-z
27 1/3+x-y,2/3+x,2/3-z
28 1/3-y,2/3-x,2/3+z
29 1/3-x+y,2/3+y,2/3+z
30 1/3+x,2/3+x-y,2/3+z
31 2/3-x,1/3-y,1/3-z
32 2/3+y,1/3-x+y,1/3-z
33 2/3+x-y,1/3+x,1/3-z
34 2/3-y,1/3-x,1/3+z
35 2/3-x+y,1/3+y,1/3+z
36 2/3+x,1/3+x-y,1/3+z
_cell_length_a                   25.004(4)
_cell_length_b                   25.004(4)
_cell_length_c                   8.6253(13)
_cell_angle_alpha                90
_cell_angle_beta                 90
_cell_angle_gamma                120
_cell_volume                     4670.07
loop_
_atom_site_label
_atom_site_type_symbol
_atom_site_fract_x
_atom_site_fract_y
_atom_site_fract_z
Mn1 Mn 0.94663(3) 0.3333 0.3333
Cl1 Cl 1.0000 0.42874(5) 0.5000
N1 N 0.92156(13) 0.27664(13) 0.5505(3)
N2 N 0.96238(15) 0.29571(15) 0.6667
C1 C 0.87290(15) 0.22026(15) 0.5927(4)
C2 C 0.81882(11) 0.18118(11) 0.5128(5)
H1 H 0.8095 0.1905 0.4132
O1 O 0.85452(16) 0.3333 0.3333
H2 H 0.8416 0.3302 0.4259
N1I N 0.94331(13) 0.25489(13) 0.7828(3)
C1I C 0.88693(15) 0.20623(15) 0.7406(4)
C2I C 0.84785(11) 0.15215(11) 0.8205(5)
H1I H 0.8572 0.1428 0.9201
N1U N 0.72336(13) 0.07844(13) 0.5505(3)
N2U N 0.70429(15) 0.03762(15) 0.6667
C1U C 0.77974(15) 0.12710(15) 0.5927(4)
N1DA N 0.74511(13) 0.05669(13) 0.7828(3)
C1DA C 0.79377(15) 0.11307(15) 0.7406(4)
H2P H 0.8447 0.3365 0.2408
Mn1U Mn 0.6667 0.05337(3) 0.3333
O1U O 0.6667 0.14548(16) 0.3333
H2U H 0.6698 0.1584 0.4259
H2Y H 0.6635 0.1553 0.2408
Cl1M Cl 0.90459(5) 0.23793(5) 0.1667
Mn1E Mn 1.05337(3) 0.38667(3) 0.6667
Mn1I Mn 1.0000 0.27996(3) 0.0000
Mn1I_2 Mn 1.0000 0.27996(3) 1.0000
Mn1T Mn 0.61333(3) -0.05337(3) 0.6667
Mn1DA Mn 0.72004(3) 0.0000 1.0000
Cl1T Cl 0.57126(5) 0.0000 0.5000
Cl1Y Cl 0.76207(5) 0.09541(5) 0.1667
N1P N 0.97825(18) 0.39003(13) 0.1162(3)
N1Y N 0.60997(13) 0.02175(18) 0.1162(3)
N2E N 1.03762(15) 0.33333(21) 0.3333
N2T N 0.66667(21) -0.03762(15) 0.3333
loop_
_geom_bond_atom_site_label_1
_geom_bond_atom_site_label_2
_geom_bond_site_symmetry_1
_geom_bond_site_symmetry_2
Mn1 Cl1 1_555 1_555
Cl1 Mn1E 1_555 1_555
N1 Mn1 1_555 1_555
N2 N1 1_555 1_555
C1 N1 1_555 1_555
C2 C1 1_555 1_555
H1 C2 1_555 1_555
O1 Mn1 1_555 1_555
H2 O1 1_555 1_555
N1I N2 1_555 1_555
C1I C1 1_555 1_555
C2I C1I 1_555 1_555
H1I C2I 1_555 1_555
N1U N2U 1_555 1_555
N2U N1DA 1_555 1_555
C1U C2 1_555 1_555
N1DA C1DA 1_555 1_555
C1DA C2I 1_555 1_555
H2P O1 1_555 1_555
Mn1U N1U 1_555 1_555
O1U Mn1U 1_555 1_555
H2U O1U 1_555 1_555
H2Y O1U 1_555 1_555
Cl1M Mn1 1_555 1_555
Mn1E N2 1_555 1_555
Mn1I Cl1M 1_555 1_555
Mn1I_2 N1I 1_555 1_555
Mn1T N2U 1_555 1_555
Mn1DA N1DA 1_555 1_555
Cl1T Mn1U 1_555 1_555
Cl1Y Mn1U 1_555 1_555
N1P Mn1 1_555 1_555
N1Y Mn1U 1_555 1_555
N2E Mn1 1_555 1_555
N2T Mn1U 1_555 1_555
N1I C1I 1_555 1_555
N1U C1U 1_555 1_555
C1U C1DA 1_555 1_555
Mn1T Cl1T 1_555 1_555

#END
