
#######################################################################
#
#                 Cambridge Crystallographic Data Centre
#                                CCDC 
#
#######################################################################
#
# If this CIF has been generated from an entry in the Cambridge 
# Structural Database, then it will include bibliographic, chemical, 
# crystal, experimental, refinement or atomic coordinate data resulting 
# from the CCDC's data processing and validation procedures.
#
#######################################################################

data_NUYWOU
_chemical_formula_moiety         '(C25 H23 Cd1 N5 O6)n'
_symmetry_cell_setting           tetragonal
_symmetry_space_group_name_H-M   'P 43 21 2'
_symmetry_Int_Tables_number      96
_space_group_name_Hall           'P 4nw 2abw'
loop_
_symmetry_equiv_pos_site_id
_symmetry_equiv_pos_as_xyz
1 x,y,z
2 -x,-y,1/2+z
3 1/2+x,1/2-y,1/4-z
4 1/2-x,1/2+y,3/4-z
5 -y,-x,1/2-z
6 y,x,-z
7 1/2+y,1/2-x,1/4+z
8 1/2-y,1/2+x,3/4+z
_cell_length_a                   14.865(5)
_cell_length_b                   14.865(5)
_cell_length_c                   13.139(4)
_cell_angle_alpha                90
_cell_angle_beta                 90
_cell_angle_gamma                90
_cell_volume                     2903.3
loop_
_atom_site_label
_atom_site_type_symbol
_atom_site_fract_x
_atom_site_fract_y
_atom_site_fract_z
_atom_site_U_iso_or_equiv
_atom_site_thermal_displace_type
Cd1 Cd 0.26947(5) 0.26947(5) 0.5000 0.0260 Uani
O1 O 0.1406(5) 0.7180(5) 1.1013(5) 0.0340 Uani
O2 O 0.2554(5) 0.6352(5) 1.1525(5) 0.0350 Uani
N1 N 0.1801(5) 0.3442(6) 0.6128(6) 0.0280 Uani
N2 N 0.1428(5) 0.4234(5) 0.7473(7) 0.0277 Uani
N3 N 0.3802(6) 0.3802(6) 0.5000 0.0380 Uani
C1 C 0.0864(7) 0.3430(7) 0.6239(7) 0.0293 Uani
H1 H 0.0465 0.3130 0.5813 0.0350 Uiso
C2 C 0.0632(7) 0.3923(7) 0.7061(8) 0.0293 Uani
H2 H 0.0054 0.4031 0.7301 0.0360 Uiso
C3 C 0.2113(6) 0.3927(7) 0.6888(7) 0.0293 Uani
H3 H 0.2718 0.4042 0.7006 0.0350 Uiso
C4 C 0.1541(6) 0.4787(6) 0.8359(7) 0.0240 Uani
C5 C 0.0960(7) 0.5501(7) 0.8498(8) 0.0293 Uani
H4 H 0.0496 0.5604 0.8038 0.0350 Uiso
C6 C 0.1077(7) 0.6070(7) 0.9340(7) 0.0293 Uani
H5 H 0.0688 0.6551 0.9444 0.0350 Uiso
C7 C 0.1775(6) 0.5911(6) 1.0016(8) 0.0260 Uani
C8 C 0.2340(7) 0.5180(7) 0.9868(8) 0.0303 Uani
H6 H 0.2793 0.5062 1.0337 0.0360 Uiso
C9 C 0.2237(8) 0.4616(7) 0.9022(8) 0.0327 Uani
H7 H 0.2628 0.4138 0.8911 0.0390 Uiso
C10 C 0.1926(7) 0.6518(7) 1.0919(7) 0.0290 Uani
C11 C 0.4636(14) 0.3580(15) 0.525(2) 0.0777 Uani
H8 H 0.4755 0.2987 0.5434 0.1500 Uiso
C12 C 0.5377(15) 0.4225(13) 0.526(2) 0.0923 Uani
H9 H 0.5968 0.4073 0.5410 0.1400 Uiso
C13 C 0.5099(14) 0.5099(14) 0.5000 0.0800 Uani
H10 H 0.5541 0.5541 0.5000 0.1200 Uiso
Cd1C Cd 0.23053(5) 0.76947(5) 1.2500 0.0260 Uani
Cd1B Cd -0.23053(5) 0.23053(5) -0.2500 0.0260 Uani
O1F O 0.2180(5) 0.3594(5) 0.3513(5) 0.0340 Uani
O1C O 0.3594(5) 0.2180(5) 0.6487(5) 0.0340 Uani
O2F O 0.1352(5) 0.2446(5) 0.4025(5) 0.0350 Uani
O2C O 0.2446(5) 0.1352(5) 0.5975(5) 0.0350 Uani
N1F N -0.1558(6) 0.3199(5) -0.1372(6) 0.0280 Uani
N1E N 0.3442(6) 0.1801(5) 0.3872(6) 0.0280 Uani
N2F N -0.0766(5) 0.3572(5) -0.0027(7) 0.0277 Uani
C1F C -0.1570(7) 0.4136(7) -0.1261(7) 0.0293 Uani
H1F H -0.1870 0.4535 -0.1687 0.0350 Uiso
C2F C -0.1077(7) 0.4368(7) -0.0439(8) 0.0293 Uani
H2F H -0.0969 0.4946 -0.0199 0.0360 Uiso
C3F C -0.1073(7) 0.2887(6) -0.0612(7) 0.0293 Uani
H3F H -0.0958 0.2282 -0.0494 0.0350 Uiso
C4F C -0.0213(6) 0.3459(6) 0.0859(7) 0.0240 Uani
C5F C 0.0501(7) 0.4040(7) 0.0998(8) 0.0293 Uani
H4F H 0.0604 0.4504 0.0538 0.0350 Uiso
C6F C 0.1070(7) 0.3923(7) 0.1840(7) 0.0293 Uani
H5F H 0.1551 0.4312 0.1944 0.0350 Uiso
C7F C 0.0911(6) 0.3225(6) 0.2516(8) 0.0260 Uani
C8F C 0.0180(7) 0.2660(7) 0.2368(8) 0.0303 Uani
H6F H 0.0062 0.2207 0.2837 0.0360 Uiso
C9F C -0.0384(7) 0.2763(8) 0.1522(8) 0.0327 Uani
H7F H -0.0862 0.2372 0.1411 0.0390 Uiso
C10F C 0.1518(7) 0.3074(7) 0.3419(7) 0.0290 Uani
C11E C 0.3580(15) 0.4636(14) 0.475(2) 0.0777 Uani
H8E H 0.2987 0.4755 0.4566 0.1500 Uiso
C12E C 0.4225(13) 0.5377(15) 0.474(2) 0.0923 Uani
H9E H 0.4073 0.5968 0.4590 0.1400 Uiso
O3 O 0.4071(7) 0.3536(7) 0.7924(8) 0.0640 Uani
O4 O 0.5837(12) 0.4163(12) 0.7500 0.0500 Uiso
loop_
_atom_site_aniso_label
_atom_site_aniso_U_11
_atom_site_aniso_U_22
_atom_site_aniso_U_33
_atom_site_aniso_U_23
_atom_site_aniso_U_13
_atom_site_aniso_U_12
Cd1 0.0294(4) 0.0294(4) 0.0192(5) -0.0003(3) 0.0003(3) 0.0054(4)
O1 0.032(4) 0.037(4) 0.033(4) -0.014(3) 0.003(3) -0.002(3)
O2 0.043(5) 0.037(4) 0.025(3) -0.006(3) -0.004(3) -0.003(3)
N1 0.025(4) 0.034(4) 0.025(4) -0.004(3) -0.003(3) 0.003(3)
N2 0.029(4) 0.032(4) 0.022(4) -0.005(4) -0.002(4) 0.003(3)
N3 0.040(4) 0.040(4) 0.034(6) 0.009(5) -0.009(5) 0.004(5)
C1 0.032(5) 0.033(5) 0.023(5) -0.004(4) -0.005(4) 0.000(4)
C2 0.023(5) 0.035(5) 0.030(5) -0.002(4) 0.001(4) 0.005(4)
C3 0.022(5) 0.037(5) 0.029(5) -0.006(4) -0.002(4) 0.003(4)
C4 0.024(5) 0.027(5) 0.021(4) -0.003(4) 0.004(4) -0.001(4)
C5 0.028(5) 0.035(5) 0.025(5) 0.002(4) 0.003(4) -0.001(4)
C6 0.031(5) 0.029(5) 0.028(5) -0.001(4) 0.001(4) -0.002(4)
C7 0.029(4) 0.028(4) 0.021(4) -0.004(4) 0.008(5) -0.010(3)
C8 0.025(4) 0.037(5) 0.029(5) -0.006(4) -0.001(5) -0.005(4)
C9 0.030(5) 0.032(5) 0.036(5) -0.006(4) 0.002(5) 0.001(4)
C10 0.037(5) 0.029(5) 0.021(4) -0.003(4) 0.005(4) -0.007(4)
C11 0.096(16) 0.097(16) 0.04(3) 0.047(18) 0.005(18) 0.024(13)
C12 0.107(19) 0.12(2) 0.05(2) 0.000(16) 0.000(15) 0.000(17)
C13 0.100(13) 0.100(13) 0.04(2) 0.000(15) 0.000(15) 0.000(16)
Cd1C 0.0294 0.0294 0.0192 0.0003 0.0003 -0.0054
Cd1B 0.0294 0.0294 0.0192 -0.0003 -0.0003 -0.0054
O1F 0.037 0.032 0.033 -0.003 -0.014 0.002
O1C 0.032 0.037 0.033 0.014 0.003 0.002
O2F 0.037 0.043 0.025 0.004 -0.006 0.003
O2C 0.043 0.037 0.025 0.006 -0.004 0.003
N1F 0.034 0.025 0.025 0.003 -0.004 -0.003
N1E 0.034 0.025 0.025 0.003 0.004 0.003
N2F 0.032 0.029 0.022 0.002 -0.005 -0.003
C1F 0.033 0.032 0.023 0.005 -0.004 0
C2F 0.035 0.023 0.03 -0.001 -0.002 -0.005
C3F 0.037 0.022 0.029 0.002 -0.006 -0.003
C4F 0.027 0.024 0.021 -0.004 -0.003 0.001
C5F 0.035 0.028 0.025 -0.003 0.002 0.001
C6F 0.029 0.031 0.028 -0.001 -0.001 0.002
C7F 0.028 0.029 0.021 -0.008 -0.004 0.01
C8F 0.037 0.025 0.029 0.001 -0.006 0.005
C9F 0.032 0.03 0.036 -0.002 -0.006 -0.001
C10F 0.029 0.037 0.021 -0.005 -0.003 0.007
C11E 0.097 0.096 0.04 -0.005 -0.047 0.024
C12E 0.12 0.107 0.05 0 0 0
O3 0.059(6) 0.065(6) 0.068(6) -0.005(5) -0.017(5) 0.007(5)
loop_
_geom_bond_atom_site_label_1
_geom_bond_atom_site_label_2
_geom_bond_site_symmetry_1
_geom_bond_site_symmetry_2
Cd1 N1 1_555 1_555
O1 C10 1_555 1_555
O2 C10 1_555 1_555
N1 C1 1_555 1_555
N2 C2 1_555 1_555
N3 Cd1 1_555 1_555
C1 H1 1_555 1_555
C2 C1 1_555 1_555
H2 C2 1_555 1_555
C3 N1 1_555 1_555
H3 C3 1_555 1_555
C4 N2 1_555 1_555
C5 C4 1_555 1_555
H4 C5 1_555 1_555
C6 C5 1_555 1_555
H5 C6 1_555 1_555
C7 C6 1_555 1_555
C8 C7 1_555 1_555
H6 C8 1_555 1_555
C9 C4 1_555 1_555
H7 C9 1_555 1_555
C10 C7 1_555 1_555
C11 N3 1_555 1_555
H8 C11 1_555 1_555
C12 C11 1_555 1_555
H9 C12 1_555 1_555
C13 C12 1_555 1_555
H10 C13 1_555 1_555
Cd1C O1 1_555 1_555
Cd1B N1F 1_555 1_555
O1F Cd1 1_555 1_555
O1C Cd1 1_555 1_555
O2F Cd1 1_555 1_555
O2C Cd1 1_555 1_555
N1F C1F 1_555 1_555
N1E Cd1 1_555 1_555
N2F C2F 1_555 1_555
C1F H1F 1_555 1_555
C2F C1F 1_555 1_555
H2F C2F 1_555 1_555
C3F N1F 1_555 1_555
H3F C3F 1_555 1_555
C4F N2F 1_555 1_555
C5F C4F 1_555 1_555
H4F C5F 1_555 1_555
C6F C5F 1_555 1_555
H5F C6F 1_555 1_555
C7F C6F 1_555 1_555
C8F C7F 1_555 1_555
H6F C8F 1_555 1_555
C9F C4F 1_555 1_555
H7F C9F 1_555 1_555
C10F O1F 1_555 1_555
C11E N3 1_555 1_555
H8E C11E 1_555 1_555
C12E C13 1_555 1_555
H9E C12E 1_555 1_555
O2 Cd1C 1_555 1_555
N2 C3 1_555 1_555
C8 C9 1_555 1_555
O2F C10F 1_555 1_555
N2F C3F 1_555 1_555
C7F C10F 1_555 1_555
C8F C9F 1_555 1_555
C11E C12E 1_555 1_555

#END
