
#######################################################################
#
#                 Cambridge Crystallographic Data Centre
#                                CCDC 
#
#######################################################################
#
# If this CIF has been generated from an entry in the Cambridge 
# Structural Database, then it will include bibliographic, chemical, 
# crystal, experimental, refinement or atomic coordinate data resulting 
# from the CCDC's data processing and validation procedures.
#
#######################################################################

data_EWEDOB
_chemical_formula_moiety         'C318 H144 O106 Zr40'
_symmetry_cell_setting           cubic
_symmetry_space_group_name_H-M   'P m -3 n'
_symmetry_Int_Tables_number      223
_space_group_name_Hall           '-P 4n 2 3'
loop_
_symmetry_equiv_pos_site_id
_symmetry_equiv_pos_as_xyz
1 x,y,z
2 1/2-y,1/2+x,1/2+z
3 -x,-y,z
4 1/2+y,1/2-x,1/2+z
5 1/2+x,1/2-z,1/2+y
6 x,-y,-z
7 1/2+x,1/2+z,1/2-y
8 1/2+z,1/2+y,1/2-x
9 -x,y,-z
10 1/2-z,1/2+y,1/2+x
11 z,x,y
12 y,z,x
13 -y,-z,x
14 z,-x,-y
15 -y,z,-x
16 -z,-x,y
17 -z,x,-y
18 y,-z,-x
19 1/2+y,1/2+x,1/2-z
20 1/2-y,1/2-x,1/2-z
21 1/2-x,1/2+z,1/2+y
22 1/2-x,1/2-z,1/2-y
23 1/2+z,1/2-y,1/2+x
24 1/2-z,1/2-y,1/2-x
25 -x,-y,-z
26 1/2+y,1/2-x,1/2-z
27 x,y,-z
28 1/2-y,1/2+x,1/2-z
29 1/2-x,1/2+z,1/2-y
30 -x,y,z
31 1/2-x,1/2-z,1/2+y
32 1/2-z,1/2-y,1/2+x
33 x,-y,z
34 1/2+z,1/2-y,1/2-x
35 -z,-x,-y
36 -y,-z,-x
37 y,z,-x
38 -z,x,y
39 y,-z,x
40 z,x,-y
41 z,-x,y
42 -y,z,x
43 1/2-y,1/2-x,1/2+z
44 1/2+y,1/2+x,1/2+z
45 1/2+x,1/2-z,1/2-y
46 1/2+x,1/2+z,1/2+y
47 1/2-z,1/2+y,1/2-x
48 1/2+z,1/2+y,1/2+x
_cell_length_a                   41.512(4)
_cell_length_b                   41.512(4)
_cell_length_c                   41.512(4)
_cell_angle_alpha                90
_cell_angle_beta                 90
_cell_angle_gamma                90
_cell_volume                     71535.4
loop_
_atom_site_label
_atom_site_type_symbol
_atom_site_fract_x
_atom_site_fract_y
_atom_site_fract_z
Zr1 Zr 0.45785(2) 0.2500 0.04215(2)
Zr2 Zr 0.5000 0.19011(3) 0.0000
Zr3 Zr 0.03314(6) 0.03314(6) -0.03314(6)
O1 O 0.5000 0.28329(15) 0.04803(14)
O2 O 0.43986(12) 0.20381(12) -0.06127(11)
O3 O 0.25200(12) -0.02723(12) -0.40659(11)
O4 O 0.0282(3) -0.0000 -0.0505(3)
O5 O 0.46837(11) 0.16440(13) -0.03408(13)
O6 O 0.5000 0.22480(14) 0.03495(13)
C1 C 0.2647(3) 0.0000 -0.3587(2)
C2 C 0.2559(2) 0.0000 -0.3924(2)
C3 C 0.2800(2) -0.0283(2) -0.31114(19)
H1 H 0.2837 -0.0483 -0.3006
C4 C 0.3094(3) 0.0000 -0.1942(3)
C5 C 0.2843(3) 0.0000 -0.2939(3)
C6 C 0.2927(4) 0.0000 -0.2611(3)
C7 C 0.2706(2) -0.0286(2) -0.34289(19)
H2 H 0.2682 -0.0485 -0.3539
C8 C 0.3730(2) 0.07846(19) -0.1197(2)
C9 C 0.38287(17) 0.0612(2) -0.1466(2)
H3 H 0.4033 0.0654 -0.1561
C10 C 0.3629(2) 0.0377(2) -0.15974(19)
H4 H 0.3697 0.0259 -0.1781
C11 C 0.3330(2) 0.0315(2) -0.1459(2)
C12 C 0.32314(18) 0.0488(3) -0.1190(2)
H5 H 0.3027 0.0445 -0.1096
C13 C 0.3431(2) 0.0723(2) -0.1059(2)
H6 H 0.3363 0.0841 -0.0875
C14 C 0.2832(4) 0.0000 -0.1423(3)
C15 C 0.39438(15) 0.10334(14) -0.10594(16)
C16 C 0.38794(14) 0.13581(16) -0.11099(16)
H7 H 0.3712 0.1421 -0.1253
C17 C 0.40593(16) 0.15912(12) -0.09506(17)
H8 H 0.4015 0.1813 -0.0985
C18 C 0.43037(14) 0.14997(14) -0.07409(15)
C19 C 0.43682(14) 0.11751(15) -0.06904(16)
H9 H 0.4535 0.1113 -0.0547
C20 C 0.41883(17) 0.09419(12) -0.08496(18)
H10 H 0.4232 0.0720 -0.0815
C21 C 0.44801(18) 0.1750(2) -0.0553(2)
C22 C 0.3152(3) 0.0000 -0.1582(3)
C23 C 0.2185(6) 0.0000 -0.1146(7)
C24 C 0.1864(6) 0.0000 -0.0972(7)
O7 O 0.0787(4) 0.0254(4) -0.0551(5)
C25 C 0.0914(10) 0.0000 -0.0601(11)
C26 C 0.1243(9) 0.0000 -0.0745(9)
C27 C 0.2616(4) 0.0243(3) -0.1406(5)
C28 C 0.1344(5) -0.0283(5) -0.0883(5)
H11 H 0.1212 -0.0468 -0.0907
C29 C 0.2293(4) 0.0247(4) -0.1254(5)
C30 C 0.1713(5) -0.0265(4) -0.1001(5)
H12 H 0.1816 -0.0449 -0.1089
C31 C 0.2961(5) -0.0246(3) -0.2426(3)
C32 C 0.3085(6) -0.0255(3) -0.2118(3)
O2FA O 0.43986(12) -0.20381(12) -0.06127(11)
O3FA O 0.25200(12) 0.02723(12) -0.40659(11)
O5FA O 0.46837(11) -0.16440(13) -0.03408(13)
C3FA C 0.2800(2) 0.0283(2) -0.31114(19)
H1FA H 0.2837 0.0483 -0.3006
C7FA C 0.2706(2) 0.0286(2) -0.34289(19)
H2FA H 0.2682 0.0485 -0.3539
C8FA C 0.3730(2) -0.07846(19) -0.1197(2)
C9FA C 0.38287(17) -0.0612(2) -0.1466(2)
H3FA H 0.4033 -0.0654 -0.1561
C10FA C 0.3629(2) -0.0377(2) -0.15974(19)
H4FA H 0.3697 -0.0259 -0.1781
C11FA C 0.3330(2) -0.0315(2) -0.1459(2)
C12FA C 0.32314(18) -0.0488(3) -0.1190(2)
H5FA H 0.3027 -0.0445 -0.1096
C13FA C 0.3431(2) -0.0723(2) -0.1059(2)
H6FA H 0.3363 -0.0841 -0.0875
C15FA C 0.39438(15) -0.10334(14) -0.10594(16)
C16FA C 0.38794(14) -0.13581(16) -0.11099(16)
H7FA H 0.3712 -0.1421 -0.1253
C17FA C 0.40593(16) -0.15912(12) -0.09506(17)
H8FA H 0.4015 -0.1813 -0.0985
C18FA C 0.43037(14) -0.14997(14) -0.07409(15)
C19FA C 0.43682(14) -0.11751(15) -0.06904(16)
H9FA H 0.4535 -0.1113 -0.0547
C20FA C 0.41883(17) -0.09419(12) -0.08496(18)
H10FA H 0.4232 -0.0720 -0.0815
C21FA C 0.44801(18) -0.1750(2) -0.0553(2)
O7FA O 0.0787(4) -0.0254(4) -0.0551(5)
C27FA C 0.2616(4) -0.0243(3) -0.1406(5)
C28FA C 0.1344(5) 0.0283(5) -0.0883(5)
H11FA H 0.1212 0.0468 -0.0907
C29FA C 0.2293(4) -0.0247(4) -0.1254(5)
C30FA C 0.1713(5) 0.0265(4) -0.1001(5)
H12FA H 0.1816 0.0449 -0.1089
C31FA C 0.2961(5) 0.0246(3) -0.2426(3)
C32FA C 0.3085(6) 0.0255(3) -0.2118(3)
Zr2B Zr 0.5000 -0.19011(3) 0.0000
O2B O 0.56014(12) -0.20381(12) -0.06127(11)
O3B O 0.74800(12) 0.02723(12) -0.40659(11)
O5B O 0.53163(11) -0.16440(13) -0.03408(13)
O6B O 0.5000 -0.22480(14) 0.03495(13)
C1B C 0.7353(3) 0.0000 -0.3587(2)
C2B C 0.7441(2) 0.0000 -0.3924(2)
C3B C 0.7200(2) 0.0283(2) -0.31114(19)
H1B H 0.7163 0.0483 -0.3006
C4B C 0.6906(3) 0.0000 -0.1942(3)
C5B C 0.7157(3) 0.0000 -0.2939(3)
C6B C 0.7073(4) 0.0000 -0.2611(3)
C7B C 0.7294(2) 0.0286(2) -0.34289(19)
H2B H 0.7318 0.0485 -0.3539
C8B C 0.6270(2) -0.07846(19) -0.1197(2)
C9B C 0.61713(17) -0.0612(2) -0.1466(2)
H3B H 0.5967 -0.0654 -0.1561
C10B C 0.6371(2) -0.0377(2) -0.15974(19)
H4B H 0.6303 -0.0259 -0.1781
C11B C 0.6670(2) -0.0315(2) -0.1459(2)
C12B C 0.67686(18) -0.0488(3) -0.1190(2)
H5B H 0.6973 -0.0445 -0.1096
C13B C 0.6569(2) -0.0723(2) -0.1059(2)
H6B H 0.6637 -0.0841 -0.0875
C14B C 0.7168(4) 0.0000 -0.1423(3)
C15B C 0.60562(15) -0.10334(14) -0.10594(16)
C16B C 0.61206(14) -0.13581(16) -0.11099(16)
H7B H 0.6288 -0.1421 -0.1253
C17B C 0.59407(16) -0.15912(12) -0.09506(17)
H8B H 0.5985 -0.1813 -0.0985
C18B C 0.56963(14) -0.14997(14) -0.07409(15)
C19B C 0.56318(14) -0.11751(15) -0.06904(16)
H9B H 0.5465 -0.1113 -0.0547
C20B C 0.58117(17) -0.09419(12) -0.08496(18)
H10B H 0.5768 -0.0720 -0.0815
C21B C 0.55199(18) -0.1750(2) -0.0553(2)
C22B C 0.6848(3) 0.0000 -0.1582(3)
C23B C 0.7815(6) 0.0000 -0.1146(7)
C24B C 0.8136(6) 0.0000 -0.0972(7)
O7B O 0.9213(4) -0.0254(4) -0.0551(5)
C25B C 0.9086(10) 0.0000 -0.0601(11)
C26B C 0.8757(9) 0.0000 -0.0745(9)
C27B C 0.7384(4) -0.0243(3) -0.1406(5)
C28B C 0.8656(5) 0.0283(5) -0.0883(5)
H11B H 0.8788 0.0468 -0.0907
C29B C 0.7707(4) -0.0247(4) -0.1254(5)
C30B C 0.8287(5) 0.0265(4) -0.1001(5)
H12B H 0.8184 0.0449 -0.1089
C31B C 0.7039(5) 0.0246(3) -0.2426(3)
C32B C 0.6915(6) 0.0255(3) -0.2118(3)
O2CA O 0.56014(12) 0.20381(12) -0.06127(11)
O3CA O 0.74800(12) -0.02723(12) -0.40659(11)
O5CA O 0.53163(11) 0.16440(13) -0.03408(13)
C3CA C 0.7200(2) -0.0283(2) -0.31114(19)
H1CA H 0.7163 -0.0483 -0.3006
C7CA C 0.7294(2) -0.0286(2) -0.34289(19)
H2CA H 0.7318 -0.0485 -0.3539
C8CA C 0.6270(2) 0.07846(19) -0.1197(2)
C9CA C 0.61713(17) 0.0612(2) -0.1466(2)
H3CA H 0.5967 0.0654 -0.1561
C10CA C 0.6371(2) 0.0377(2) -0.15974(19)
H4CA H 0.6303 0.0259 -0.1781
C11CA C 0.6670(2) 0.0315(2) -0.1459(2)
C12CA C 0.67686(18) 0.0488(3) -0.1190(2)
H5CA H 0.6973 0.0445 -0.1096
C13CA C 0.6569(2) 0.0723(2) -0.1059(2)
H6CA H 0.6637 0.0841 -0.0875
C15CA C 0.60562(15) 0.10334(14) -0.10594(16)
C16CA C 0.61206(14) 0.13581(16) -0.11099(16)
H7CA H 0.6288 0.1421 -0.1253
C17CA C 0.59407(16) 0.15912(12) -0.09506(17)
H8CA H 0.5985 0.1813 -0.0985
C18CA C 0.56963(14) 0.14997(14) -0.07409(15)
C19CA C 0.56318(14) 0.11751(15) -0.06904(16)
H9CA H 0.5465 0.1113 -0.0547
C20CA C 0.58117(17) 0.09419(12) -0.08496(18)
H10CA H 0.5768 0.0720 -0.0815
C21CA C 0.55199(18) 0.1750(2) -0.0553(2)
O7CA O 0.9213(4) 0.0254(4) -0.0551(5)
C27CA C 0.7384(4) 0.0243(3) -0.1406(5)
C28CA C 0.8656(5) -0.0283(5) -0.0883(5)
H11CA H 0.8788 -0.0468 -0.0907
C29CA C 0.7707(4) 0.0247(4) -0.1254(5)
C30CA C 0.8287(5) -0.0265(4) -0.1001(5)
H12CA H 0.8184 -0.0449 -0.1089
C31CA C 0.7039(5) -0.0246(3) -0.2426(3)
C32CA C 0.6915(6) -0.0255(3) -0.2118(3)
Zr3E Zr 0.03314(6) -0.03314(6) 0.03314(6)
O2E O 0.43986(12) -0.20381(12) 0.06127(11)
O3E O 0.25200(12) 0.02723(12) 0.40659(11)
O4E O 0.0282(3) 0.0000 0.0505(3)
O5E O 0.46837(11) -0.16440(13) 0.03408(13)
O6E O 0.5000 -0.22480(14) -0.03495(13)
C1E C 0.2647(3) 0.0000 0.3587(2)
C2E C 0.2559(2) 0.0000 0.3924(2)
C3E C 0.2800(2) 0.0283(2) 0.31114(19)
H1E H 0.2837 0.0483 0.3006
C4E C 0.3094(3) 0.0000 0.1942(3)
C5E C 0.2843(3) 0.0000 0.2939(3)
C6E C 0.2927(4) 0.0000 0.2611(3)
C7E C 0.2706(2) 0.0286(2) 0.34289(19)
H2E H 0.2682 0.0485 0.3539
C8E C 0.3730(2) -0.07846(19) 0.1197(2)
C9E C 0.38287(17) -0.0612(2) 0.1466(2)
H3E H 0.4033 -0.0654 0.1561
C10E C 0.3629(2) -0.0377(2) 0.15974(19)
H4E H 0.3697 -0.0259 0.1781
C11E C 0.3330(2) -0.0315(2) 0.1459(2)
C12E C 0.32314(18) -0.0488(3) 0.1190(2)
H5E H 0.3027 -0.0445 0.1096
C13E C 0.3431(2) -0.0723(2) 0.1059(2)
H6E H 0.3363 -0.0841 0.0875
C14E C 0.2832(4) 0.0000 0.1423(3)
C15E C 0.39438(15) -0.10334(14) 0.10594(16)
C16E C 0.38794(14) -0.13581(16) 0.11099(16)
H7E H 0.3712 -0.1421 0.1253
C17E C 0.40593(16) -0.15912(12) 0.09506(17)
H8E H 0.4015 -0.1813 0.0985
C18E C 0.43037(14) -0.14997(14) 0.07409(15)
C19E C 0.43682(14) -0.11751(15) 0.06904(16)
H9E H 0.4535 -0.1113 0.0547
C20E C 0.41883(17) -0.09419(12) 0.08496(18)
H10E H 0.4232 -0.0720 0.0815
C21E C 0.44801(18) -0.1750(2) 0.0553(2)
C22E C 0.3152(3) -0.0000 0.1582(3)
C23E C 0.2185(6) 0.0000 0.1146(7)
C24E C 0.1864(6) 0.0000 0.0972(7)
O7E O 0.0787(4) -0.0254(4) 0.0551(5)
C25E C 0.0914(10) 0.0000 0.0601(11)
C26E C 0.1243(9) -0.0000 0.0745(9)
C27E C 0.2616(4) -0.0243(3) 0.1406(5)
C28E C 0.1344(5) 0.0283(5) 0.0883(5)
H11E H 0.1212 0.0468 0.0907
C29E C 0.2293(4) -0.0247(4) 0.1254(5)
C30E C 0.1713(5) 0.0265(4) 0.1001(5)
H12E H 0.1816 0.0449 0.1089
C31E C 0.2961(5) 0.0246(3) 0.2426(3)
C32E C 0.3085(6) 0.0255(3) 0.2118(3)
O2Z O 0.43986(12) 0.20381(12) 0.06127(11)
O3Z O 0.25200(12) -0.02723(12) 0.40659(11)
O5Z O 0.46837(11) 0.16440(13) 0.03408(13)
C3Z C 0.2800(2) -0.0283(2) 0.31114(19)
H1Z H 0.2837 -0.0483 0.3006
C7Z C 0.2706(2) -0.0286(2) 0.34289(19)
H2Z H 0.2682 -0.0485 0.3539
C8Z C 0.3730(2) 0.07846(19) 0.1197(2)
C9Z C 0.38287(17) 0.0612(2) 0.1466(2)
H3Z H 0.4033 0.0654 0.1561
C10Z C 0.3629(2) 0.0377(2) 0.15974(19)
H4Z H 0.3697 0.0259 0.1781
C11Z C 0.3330(2) 0.0315(2) 0.1459(2)
C12Z C 0.32314(18) 0.0488(3) 0.1190(2)
H5Z H 0.3027 0.0445 0.1096
C13Z C 0.3431(2) 0.0723(2) 0.1059(2)
H6Z H 0.3363 0.0841 0.0875
C15Z C 0.39438(15) 0.10334(14) 0.10594(16)
C16Z C 0.38794(14) 0.13581(16) 0.11099(16)
H7Z H 0.3712 0.1421 0.1253
C17Z C 0.40593(16) 0.15912(12) 0.09506(17)
H8Z H 0.4015 0.1813 0.0985
C18Z C 0.43037(14) 0.14997(14) 0.07409(15)
C19Z C 0.43682(14) 0.11751(15) 0.06904(16)
H9Z H 0.4535 0.1113 0.0547
C20Z C 0.41883(17) 0.09419(12) 0.08496(18)
H10Z H 0.4232 0.0720 0.0815
C21Z C 0.44801(18) 0.1750(2) 0.0553(2)
O7Z O 0.0787(4) 0.0254(4) 0.0551(5)
C27Z C 0.2616(4) 0.0243(3) 0.1406(5)
C28Z C 0.1344(5) -0.0283(5) 0.0883(5)
H11Z H 0.1212 -0.0468 0.0907
C29Z C 0.2293(4) 0.0247(4) 0.1254(5)
C30Z C 0.1713(5) -0.0265(4) 0.1001(5)
H12Z H 0.1816 -0.0449 0.1089
C31Z C 0.2961(5) -0.0246(3) 0.2426(3)
C32Z C 0.3085(6) -0.0255(3) 0.2118(3)
Zr1H Zr 0.54215(2) 0.2500 -0.04215(2)
O1H O 0.5000 0.28329(15) -0.04803(14)
O2H O 0.56014(12) 0.20381(12) 0.06127(11)
O3H O 0.74800(12) -0.02723(12) 0.40659(11)
O5H O 0.53163(11) 0.16440(13) 0.03408(13)
O6H O 0.5000 0.22480(14) -0.03495(13)
C1H C 0.7353(3) 0.0000 0.3587(2)
C2H C 0.7441(2) 0.0000 0.3924(2)
C3H C 0.7200(2) -0.0283(2) 0.31114(19)
H1H H 0.7163 -0.0483 0.3006
C4H C 0.6906(3) 0.0000 0.1942(3)
C5H C 0.7157(3) 0.0000 0.2939(3)
C6H C 0.7073(4) 0.0000 0.2611(3)
C7H C 0.7294(2) -0.0286(2) 0.34289(19)
H2H H 0.7318 -0.0485 0.3539
C8H C 0.6270(2) 0.07846(19) 0.1197(2)
C9H C 0.61713(17) 0.0612(2) 0.1466(2)
H3H H 0.5967 0.0654 0.1561
C10H C 0.6371(2) 0.0377(2) 0.15974(19)
H4H H 0.6303 0.0259 0.1781
C11H C 0.6670(2) 0.0315(2) 0.1459(2)
C12H C 0.67686(18) 0.0488(3) 0.1190(2)
H5H H 0.6973 0.0445 0.1096
C13H C 0.6569(2) 0.0723(2) 0.1059(2)
H6H H 0.6637 0.0841 0.0875
C14H C 0.7168(4) 0.0000 0.1423(3)
C15H C 0.60562(15) 0.10334(14) 0.10594(16)
C16H C 0.61206(14) 0.13581(16) 0.11099(16)
H7H H 0.6288 0.1421 0.1253
C17H C 0.59407(16) 0.15912(12) 0.09506(17)
H8H H 0.5985 0.1813 0.0985
C18H C 0.56963(14) 0.14997(14) 0.07409(15)
C19H C 0.56318(14) 0.11751(15) 0.06904(16)
H9H H 0.5465 0.1113 0.0547
C20H C 0.58117(17) 0.09419(12) 0.08496(18)
H10H H 0.5768 0.0720 0.0815
C21H C 0.55199(18) 0.1750(2) 0.0553(2)
C22H C 0.6848(3) -0.0000 0.1582(3)
C23H C 0.7815(6) 0.0000 0.1146(7)
C24H C 0.8136(6) 0.0000 0.0972(7)
O7H O 0.9213(4) 0.0254(4) 0.0551(5)
C25H C 0.9086(10) 0.0000 0.0601(11)
C26H C 0.8757(9) -0.0000 0.0745(9)
C27H C 0.7384(4) 0.0243(3) 0.1406(5)
C28H C 0.8656(5) -0.0283(5) 0.0883(5)
H11H H 0.8788 -0.0468 0.0907
C29H C 0.7707(4) 0.0247(4) 0.1254(5)
C30H C 0.8287(5) -0.0265(4) 0.1001(5)
H12H H 0.8184 -0.0449 0.1089
C31H C 0.7039(5) -0.0246(3) 0.2426(3)
C32H C 0.6915(6) -0.0255(3) 0.2118(3)
O2X O 0.56014(12) -0.20381(12) 0.06127(11)
O3X O 0.74800(12) 0.02723(12) 0.40659(11)
O5X O 0.53163(11) -0.16440(13) 0.03408(13)
C3X C 0.7200(2) 0.0283(2) 0.31114(19)
H1X H 0.7163 0.0483 0.3006
C7X C 0.7294(2) 0.0286(2) 0.34289(19)
H2X H 0.7318 0.0485 0.3539
C8X C 0.6270(2) -0.07846(19) 0.1197(2)
C9X C 0.61713(17) -0.0612(2) 0.1466(2)
H3X H 0.5967 -0.0654 0.1561
C10X C 0.6371(2) -0.0377(2) 0.15974(19)
H4X H 0.6303 -0.0259 0.1781
C11X C 0.6670(2) -0.0315(2) 0.1459(2)
C12X C 0.67686(18) -0.0488(3) 0.1190(2)
H5X H 0.6973 -0.0445 0.1096
C13X C 0.6569(2) -0.0723(2) 0.1059(2)
H6X H 0.6637 -0.0841 0.0875
C15X C 0.60562(15) -0.10334(14) 0.10594(16)
C16X C 0.61206(14) -0.13581(16) 0.11099(16)
H7X H 0.6288 -0.1421 0.1253
C17X C 0.59407(16) -0.15912(12) 0.09506(17)
H8X H 0.5985 -0.1813 0.0985
C18X C 0.56963(14) -0.14997(14) 0.07409(15)
C19X C 0.56318(14) -0.11751(15) 0.06904(16)
H9X H 0.5465 -0.1113 0.0547
C20X C 0.58117(17) -0.09419(12) 0.08496(18)
H10X H 0.5768 -0.0720 0.0815
C21X C 0.55199(18) -0.1750(2) 0.0553(2)
O7X O 0.9213(4) -0.0254(4) 0.0551(5)
C27X C 0.7384(4) -0.0243(3) 0.1406(5)
C28X C 0.8656(5) 0.0283(5) 0.0883(5)
H11X H 0.8788 0.0468 0.0907
C29X C 0.7707(4) -0.0247(4) 0.1254(5)
C30X C 0.8287(5) 0.0265(4) 0.1001(5)
H12X H 0.8184 0.0449 0.1089
C31X C 0.7039(5) 0.0246(3) 0.2426(3)
C32X C 0.6915(6) 0.0255(3) 0.2118(3)
Zr1K Zr 0.2500 0.04215(2) 0.45785(2)
O1K O 0.28329(15) 0.04803(14) 0.5000
O2K O 0.20381(12) -0.06127(11) 0.43986(12)
O3K O -0.02723(12) -0.40659(11) 0.25200(12)
O4K O 0.0000 -0.0505(3) 0.0282(3)
O5K O 0.16440(13) -0.03408(13) 0.46837(11)
O6K O 0.22480(14) 0.03495(13) 0.5000
C1K C 0.0000 -0.3587(2) 0.2647(3)
C2K C 0.0000 -0.3924(2) 0.2559(2)
C3K C -0.0283(2) -0.31114(19) 0.2800(2)
H1K H -0.0483 -0.3006 0.2837
C4K C 0.0000 -0.1942(3) 0.3094(3)
C5K C 0.0000 -0.2939(3) 0.2843(3)
C6K C 0.0000 -0.2611(3) 0.2927(4)
C7K C -0.0286(2) -0.34289(19) 0.2706(2)
H2K H -0.0485 -0.3539 0.2682
C8K C 0.07846(19) -0.1197(2) 0.3730(2)
C9K C 0.0612(2) -0.1466(2) 0.38287(17)
H3K H 0.0654 -0.1561 0.4033
C10K C 0.0377(2) -0.15974(19) 0.3629(2)
H4K H 0.0259 -0.1781 0.3697
C11K C 0.0315(2) -0.1459(2) 0.3330(2)
C12K C 0.0488(3) -0.1190(2) 0.32314(18)
H5K H 0.0445 -0.1096 0.3027
C13K C 0.0723(2) -0.1059(2) 0.3431(2)
H6K H 0.0841 -0.0875 0.3363
C14K C 0.0000 -0.1423(3) 0.2832(4)
C15K C 0.10334(14) -0.10594(16) 0.39438(15)
C16K C 0.13581(16) -0.11099(16) 0.38794(14)
H7K H 0.1421 -0.1253 0.3712
C17K C 0.15912(12) -0.09506(17) 0.40593(16)
H8K H 0.1813 -0.0985 0.4015
C18K C 0.14997(14) -0.07409(15) 0.43037(14)
C19K C 0.11751(15) -0.06904(16) 0.43682(14)
H9K H 0.1113 -0.0547 0.4535
C20K C 0.09419(12) -0.08496(18) 0.41883(17)
H10K H 0.0720 -0.0815 0.4232
C21K C 0.1750(2) -0.0553(2) 0.44801(18)
C22K C 0.0000 -0.1582(3) 0.3152(3)
C23K C -0.0000 -0.1146(7) 0.2185(6)
C24K C 0.0000 -0.0972(7) 0.1864(6)
O7K O 0.0254(4) -0.0551(5) 0.0787(4)
C25K C 0.0000 -0.0601(11) 0.0914(10)
C26K C 0.0000 -0.0745(9) 0.1243(9)
C27K C 0.0243(3) -0.1406(5) 0.2616(4)
C28K C -0.0283(5) -0.0883(5) 0.1344(5)
H11K H -0.0468 -0.0907 0.1212
C29K C 0.0247(4) -0.1254(5) 0.2293(4)
C30K C -0.0265(4) -0.1001(5) 0.1713(5)
H12K H -0.0449 -0.1089 0.1816
C31K C -0.0246(3) -0.2426(3) 0.2961(5)
C32K C -0.0255(3) -0.2118(3) 0.3085(6)
O2OA O -0.20381(12) -0.06127(11) 0.43986(12)
O3OA O 0.02723(12) -0.40659(11) 0.25200(12)
O5OA O -0.16440(13) -0.03408(13) 0.46837(11)
C3OA C 0.0283(2) -0.31114(19) 0.2800(2)
H1OA H 0.0483 -0.3006 0.2837
C7OA C 0.0286(2) -0.34289(19) 0.2706(2)
H2OA H 0.0485 -0.3539 0.2682
C8OA C -0.07846(19) -0.1197(2) 0.3730(2)
C9OA C -0.0612(2) -0.1466(2) 0.38287(17)
H3OA H -0.0654 -0.1561 0.4033
C10OA C -0.0377(2) -0.15974(19) 0.3629(2)
H4OA H -0.0259 -0.1781 0.3697
C11OA C -0.0315(2) -0.1459(2) 0.3330(2)
C12OA C -0.0488(3) -0.1190(2) 0.32314(18)
H5OA H -0.0445 -0.1096 0.3027
C13OA C -0.0723(2) -0.1059(2) 0.3431(2)
H6OA H -0.0841 -0.0875 0.3363
C15OA C -0.10334(14) -0.10594(16) 0.39438(15)
C16OA C -0.13581(16) -0.11099(16) 0.38794(14)
H7OA H -0.1421 -0.1253 0.3712
C17OA C -0.15912(12) -0.09506(17) 0.40593(16)
H8OA H -0.1813 -0.0985 0.4015
C18OA C -0.14997(14) -0.07409(15) 0.43037(14)
C19OA C -0.11751(15) -0.06904(16) 0.43682(14)
H9OA H -0.1113 -0.0547 0.4535
C20OA C -0.09419(12) -0.08496(18) 0.41883(17)
H10OA H -0.0720 -0.0815 0.4232
C21OA C -0.1750(2) -0.0553(2) 0.44801(18)
O7OA O -0.0254(4) -0.0551(5) 0.0787(4)
C27OA C -0.0243(3) -0.1406(5) 0.2616(4)
C28OA C 0.0283(5) -0.0883(5) 0.1344(5)
H11OA H 0.0468 -0.0907 0.1212
C29OA C -0.0247(4) -0.1254(5) 0.2293(4)
C30OA C 0.0265(4) -0.1001(5) 0.1713(5)
H12OA H 0.0449 -0.1089 0.1816
C31OA C 0.0246(3) -0.2426(3) 0.2961(5)
C32OA C 0.0255(3) -0.2118(3) 0.3085(6)
Zr3H Zr -0.03314(6) 0.03314(6) 0.03314(6)
O2L O -0.20381(12) 0.06127(11) 0.43986(12)
O3L O 0.02723(12) 0.40659(11) 0.25200(12)
O4L O 0.0000 0.0505(3) 0.0282(3)
O5L O -0.16440(13) 0.03408(13) 0.46837(11)
C1L C 0.0000 0.3587(2) 0.2647(3)
C2L C 0.0000 0.3924(2) 0.2559(2)
C3L C 0.0283(2) 0.31114(19) 0.2800(2)
H1L H 0.0483 0.3006 0.2837
C4L C 0.0000 0.1942(3) 0.3094(3)
C5L C 0.0000 0.2939(3) 0.2843(3)
C6L C 0.0000 0.2611(3) 0.2927(4)
C7L C 0.0286(2) 0.34289(19) 0.2706(2)
H2L H 0.0485 0.3539 0.2682
C8L C -0.07846(19) 0.1197(2) 0.3730(2)
C9L C -0.0612(2) 0.1466(2) 0.38287(17)
H3L H -0.0654 0.1561 0.4033
C10L C -0.0377(2) 0.15974(19) 0.3629(2)
H4L H -0.0259 0.1781 0.3697
C11L C -0.0315(2) 0.1459(2) 0.3330(2)
C12L C -0.0488(3) 0.1190(2) 0.32314(18)
H5L H -0.0445 0.1096 0.3027
C13L C -0.0723(2) 0.1059(2) 0.3431(2)
H6L H -0.0841 0.0875 0.3363
C14L C 0.0000 0.1423(3) 0.2832(4)
C15L C -0.10334(14) 0.10594(16) 0.39438(15)
C16L C -0.13581(16) 0.11099(16) 0.38794(14)
H7L H -0.1421 0.1253 0.3712
C17L C -0.15912(12) 0.09506(17) 0.40593(16)
H8L H -0.1813 0.0985 0.4015
C18L C -0.14997(14) 0.07409(15) 0.43037(14)
C19L C -0.11751(15) 0.06904(16) 0.43682(14)
H9L H -0.1113 0.0547 0.4535
C20L C -0.09419(12) 0.08496(18) 0.41883(17)
H10L H -0.0720 0.0815 0.4232
C21L C -0.1750(2) 0.0553(2) 0.44801(18)
C22L C 0.0000 0.1582(3) 0.3152(3)
C23L C -0.0000 0.1146(7) 0.2185(6)
C24L C 0.0000 0.0972(7) 0.1864(6)
O7L O -0.0254(4) 0.0551(5) 0.0787(4)
C25L C 0.0000 0.0601(11) 0.0914(10)
C26L C 0.0000 0.0745(9) 0.1243(9)
C27L C -0.0243(3) 0.1406(5) 0.2616(4)
C28L C 0.0283(5) 0.0883(5) 0.1344(5)
H11L H 0.0468 0.0907 0.1212
C29L C -0.0247(4) 0.1254(5) 0.2293(4)
C30L C 0.0265(4) 0.1001(5) 0.1713(5)
H12L H 0.0449 0.1089 0.1816
C31L C 0.0246(3) 0.2426(3) 0.2961(5)
C32L C 0.0255(3) 0.2118(3) 0.3085(6)
O2LA O 0.20381(12) 0.06127(11) 0.43986(12)
O3LA O -0.02723(12) 0.40659(11) 0.25200(12)
O5LA O 0.16440(13) 0.03408(13) 0.46837(11)
C3LA C -0.0283(2) 0.31114(19) 0.2800(2)
H1LA H -0.0483 0.3006 0.2837
C7LA C -0.0286(2) 0.34289(19) 0.2706(2)
H2LA H -0.0485 0.3539 0.2682
C8LA C 0.07846(19) 0.1197(2) 0.3730(2)
C9LA C 0.0612(2) 0.1466(2) 0.38287(17)
H3LA H 0.0654 0.1561 0.4033
C10LA C 0.0377(2) 0.15974(19) 0.3629(2)
H4LA H 0.0259 0.1781 0.3697
C11LA C 0.0315(2) 0.1459(2) 0.3330(2)
C12LA C 0.0488(3) 0.1190(2) 0.32314(18)
H5LA H 0.0445 0.1096 0.3027
C13LA C 0.0723(2) 0.1059(2) 0.3431(2)
H6LA H 0.0841 0.0875 0.3363
C15LA C 0.10334(14) 0.10594(16) 0.39438(15)
C16LA C 0.13581(16) 0.11099(16) 0.38794(14)
H7LA H 0.1421 0.1253 0.3712
C17LA C 0.15912(12) 0.09506(17) 0.40593(16)
H8LA H 0.1813 0.0985 0.4015
C18LA C 0.14997(14) 0.07409(15) 0.43037(14)
C19LA C 0.11751(15) 0.06904(16) 0.43682(14)
H9LA H 0.1113 0.0547 0.4535
C20LA C 0.09419(12) 0.08496(18) 0.41883(17)
H10LA H 0.0720 0.0815 0.4232
C21LA C 0.1750(2) 0.0553(2) 0.44801(18)
O7LA O 0.0254(4) 0.0551(5) 0.0787(4)
C27LA C 0.0243(3) 0.1406(5) 0.2616(4)
C28LA C -0.0283(5) 0.0883(5) 0.1344(5)
H11LA H -0.0468 0.0907 0.1212
C29LA C 0.0247(4) 0.1254(5) 0.2293(4)
C30LA C -0.0265(4) 0.1001(5) 0.1713(5)
H12LA H -0.0449 0.1089 0.1816
C31LA C -0.0246(3) 0.2426(3) 0.2961(5)
C32LA C -0.0255(3) 0.2118(3) 0.3085(6)
Zr2V Zr 0.5000 0.30989(3) 0.0000
Zr1Z Zr 0.45785(2) 0.2500 -0.04215(2)
O1W O 0.45197(14) 0.21671(15) 0.0000
O4Q O 0.0000 0.0505(3) -0.0282(3)
O1V O 0.54803(14) 0.21671(15) 0.0000
O4P O 0.0505(3) 0.0282(3) 0.0000
O1I O 0.45197(14) -0.21671(15) 0.0000
O6W O 0.46505(13) 0.27520(14) 0.0000
Zr1CA Zr 0.54215(2) 0.2500 0.04215(2)
Zr3FA Zr 0.03314(6) -0.03314(6) -0.03314(6)
Zr1A Zr 0.2500 -0.04215(2) -0.45785(2)
Zr1B Zr 0.54215(2) -0.2500 0.04215(2)
Zr1C Zr 0.7500 0.04215(2) -0.45785(2)
Zr1E Zr 0.45785(2) -0.2500 -0.04215(2)
Zr1F Zr -0.04215(2) -0.45785(2) 0.2500
Zr1J Zr 0.04215(2) 0.45785(2) 0.2500
Zr1L Zr -0.2500 -0.04215(2) 0.45785(2)
Zr1L_2 Zr 0.7500 -0.04215(2) 0.45785(2)
Zr1X Zr 0.54215(2) -0.2500 -0.04215(2)
Zr1Y Zr -0.2500 0.04215(2) 0.45785(2)
Zr1Y_2 Zr 0.7500 0.04215(2) 0.45785(2)
Zr1AA Zr 0.2500 -0.04215(2) 0.45785(2)
Zr1BA Zr 0.04215(2) -0.45785(2) 0.2500
Zr1FA Zr 0.45785(2) -0.2500 0.04215(2)
Zr1IA Zr 0.7500 -0.04215(2) -0.45785(2)
Zr1JA Zr 0.2500 0.04215(2) -0.45785(2)
Zr1JA_2 Zr 0.2500 0.04215(2) 0.54215(2)
Zr1KA Zr -0.04215(2) 0.45785(2) 0.2500
Zr2A Zr 0.30989(3) 0.0000 0.5000
Zr2K Zr 0.19011(3) 0.0000 0.5000
Zr2L Zr -0.19011(3) 0.0000 0.5000
Zr3B Zr 0.96686(6) -0.03314(6) -0.03314(6)
Zr3H_2 Zr 0.96686(6) 0.03314(6) 0.03314(6)
Zr3X Zr -0.03314(6) -0.03314(6) 0.03314(6)
Zr3X_2 Zr 0.96686(6) -0.03314(6) 0.03314(6)
Zr3Z Zr 0.03314(6) 0.03314(6) 0.03314(6)
Zr3CA Zr -0.03314(6) 0.03314(6) -0.03314(6)
Zr3CA_2 Zr 0.96686(6) 0.03314(6) -0.03314(6)
O1A O 0.21671(15) 0.0000 -0.45197(14)
O1G O 0.54803(14) -0.21671(15) 0.0000
O1Q O 0.28329(15) -0.04803(14) -0.5000
O1S O 0.21671(15) 0.0000 0.45197(14)
O2V O 0.43873(11) 0.29619(12) -0.06014(12)
O2W O 0.56127(11) 0.29619(12) 0.06014(12)
O2AA O 0.29619(12) -0.06014(12) -0.43873(11)
O2EA O 0.56127(11) 0.29619(12) -0.06014(12)
O2GA O 0.43873(11) 0.29619(12) 0.06014(12)
O2JA O 0.20381(12) -0.06127(11) -0.43986(12)
O2PA O 0.29619(12) 0.06014(12) 0.43873(11)
O3C O 0.47277(12) 0.24800(12) 0.09341(11)
O3J O 0.59341(11) 0.25200(12) -0.02723(12)
O3P O 0.40659(11) 0.25200(12) 0.02723(12)
O3S O 0.52723(12) 0.24800(12) -0.09341(11)
O3T O 0.24800(12) 0.09341(11) 0.47277(12)
O3U O 0.24800(12) -0.09341(11) -0.47277(12)
O3Y O 0.47277(12) 0.24800(12) -0.09341(11)
O3KA O 0.40659(11) 0.25200(12) -0.02723(12)
O3MA O 0.59341(11) 0.25200(12) 0.02723(12)
O3PA O 0.52723(12) 0.24800(12) 0.09341(11)
O4H O -0.0282(3) 0.0000 0.0505(3)
O4J O -0.0505(3) 0.0282(3) 0.0000
O4N O -0.0000 -0.0505(3) -0.0282(3)
O4O O 0.0505(3) -0.0282(3) 0.0000
O5V O 0.46592(13) 0.33560(13) -0.03163(11)
O5W O 0.53408(13) 0.33560(13) 0.03163(11)
O5EA O 0.53408(13) 0.33560(13) -0.03163(11)
O5GA O 0.46592(13) 0.33560(13) 0.03163(11)
O6A O 0.27520(14) 0.0000 -0.46505(13)
O6Q O 0.22480(14) -0.03495(13) -0.5000
O6S O 0.27520(14) 0.0000 0.46505(13)
O6V O 0.53495(13) 0.27520(14) 0.0000
O7H_2 O -0.0787(4) 0.0254(4) 0.0551(5)
O7J O -0.0551(5) 0.0787(4) 0.0254(4)
O7O O 0.0551(5) -0.0787(4) 0.0254(4)
O7P O 0.0551(5) 0.0787(4) -0.0254(4)
O7Q O 0.0254(4) 0.0551(5) -0.0787(4)
O7HA O 0.0551(5) -0.0787(4) -0.0254(4)
O7JA O 0.0254(4) -0.0551(5) -0.0787(4)
loop_
_geom_bond_atom_site_label_1
_geom_bond_atom_site_label_2
_geom_bond_site_symmetry_1
_geom_bond_site_symmetry_2
Zr1 O1 1_555 1_555
Zr2 O5 1_555 1_555
Zr3 O4 1_555 1_555
O1 Zr2V 1_555 1_555
O2 C21 1_555 1_555
O3 C2 1_555 1_555
O4 Zr3FA 1_555 1_555
O5 C21 1_555 1_555
O6 Zr1 1_555 1_555
C1 C2 1_555 1_555
C2 O3FA 1_555 1_555
C3 H1 1_555 1_555
C4 C22 1_555 1_555
C5 C3 1_555 1_555
C6 C5 1_555 1_555
C7 C1 1_555 1_555
H2 C7 1_555 1_555
C8 C9 1_555 1_555
C9 H3 1_555 1_555
C10 C9 1_555 1_555
H4 C10 1_555 1_555
C11 C10 1_555 1_555
C12 C11 1_555 1_555
H5 C12 1_555 1_555
C13 C8 1_555 1_555
H6 C13 1_555 1_555
C14 C22 1_555 1_555
C15 C8 1_555 1_555
C16 C15 1_555 1_555
H7 C16 1_555 1_555
C17 C16 1_555 1_555
H8 C17 1_555 1_555
C18 C17 1_555 1_555
C19 C18 1_555 1_555
H9 C19 1_555 1_555
C20 C15 1_555 1_555
H10 C20 1_555 1_555
C21 C18 1_555 1_555
C22 C11 1_555 1_555
C23 C24 1_555 1_555
C24 C30 1_555 1_555
O7 Zr3 1_555 1_555
C25 O7 1_555 1_555
C26 C25 1_555 1_555
C27 C14 1_555 1_555
C28 C26 1_555 1_555
H11 C28 1_555 1_555
C29 C23 1_555 1_555
C30 C28 1_555 1_555
H12 C30 1_555 1_555
C31 C6 1_555 1_555
C32 C4 1_555 1_555
O2FA C21FA 1_555 1_555
O3FA Zr1JA 1_555 1_555
O5FA C21FA 1_555 1_555
C3FA C5 1_555 1_555
H1FA C3FA 1_555 1_555
C7FA C1 1_555 1_555
H2FA C7FA 1_555 1_555
C8FA C9FA 1_555 1_555
C9FA H3FA 1_555 1_555
C10FA C9FA 1_555 1_555
H4FA C10FA 1_555 1_555
C11FA C22 1_555 1_555
C12FA C11FA 1_555 1_555
H5FA C12FA 1_555 1_555
C13FA C8FA 1_555 1_555
H6FA C13FA 1_555 1_555
C15FA C8FA 1_555 1_555
C16FA C15FA 1_555 1_555
H7FA C16FA 1_555 1_555
C17FA C16FA 1_555 1_555
H8FA C17FA 1_555 1_555
C18FA C17FA 1_555 1_555
C19FA C18FA 1_555 1_555
H9FA C19FA 1_555 1_555
C20FA C15FA 1_555 1_555
H10FA C20FA 1_555 1_555
C21FA C18FA 1_555 1_555
O7FA C25 1_555 1_555
C27FA C14 1_555 1_555
C28FA C26 1_555 1_555
H11FA C28FA 1_555 1_555
C29FA C23 1_555 1_555
C30FA C24 1_555 1_555
H12FA C30FA 1_555 1_555
C31FA C6 1_555 1_555
C32FA C4 1_555 1_555
Zr2B O5FA 1_555 1_555
O2B C21B 1_555 1_555
O3B C2B 1_555 1_555
O5B Zr2B 1_555 1_555
O6B Zr2B 1_555 1_555
C1B C2B 1_555 1_555
C2B O3CA 1_555 1_555
C3B H1B 1_555 1_555
C4B C22B 1_555 1_555
C5B C3B 1_555 1_555
C6B C5B 1_555 1_555
C7B C1B 1_555 1_555
H2B C7B 1_555 1_555
C8B C9B 1_555 1_555
C9B H3B 1_555 1_555
C10B C9B 1_555 1_555
H4B C10B 1_555 1_555
C11B C10B 1_555 1_555
C12B C11B 1_555 1_555
H5B C12B 1_555 1_555
C13B C8B 1_555 1_555
H6B C13B 1_555 1_555
C14B C22B 1_555 1_555
C15B C8B 1_555 1_555
C16B C15B 1_555 1_555
H7B C16B 1_555 1_555
C17B C16B 1_555 1_555
H8B C17B 1_555 1_555
C18B C17B 1_555 1_555
C19B C18B 1_555 1_555
H9B C19B 1_555 1_555
C20B C15B 1_555 1_555
H10B C20B 1_555 1_555
C21B O5B 1_555 1_555
C22B C11B 1_555 1_555
C23B C24B 1_555 1_555
C24B C30B 1_555 1_555
O7B C25B 1_555 1_555
C25B C26B 1_555 1_555
C26B C28B 1_555 1_555
C27B C14B 1_555 1_555
C28B H11B 1_555 1_555
C29B C23B 1_555 1_555
C30B C28B 1_555 1_555
H12B C30B 1_555 1_555
C31B C6B 1_555 1_555
C32B C4B 1_555 1_555
O2CA C21CA 1_555 1_555
O3CA Zr1IA 1_555 1_555
O5CA Zr2 1_555 1_555
C3CA C5B 1_555 1_555
H1CA C3CA 1_555 1_555
C7CA C1B 1_555 1_555
H2CA C7CA 1_555 1_555
C8CA C9CA 1_555 1_555
C9CA H3CA 1_555 1_555
C10CA C9CA 1_555 1_555
H4CA C10CA 1_555 1_555
C11CA C22B 1_555 1_555
C12CA C11CA 1_555 1_555
H5CA C12CA 1_555 1_555
C13CA C8CA 1_555 1_555
H6CA C13CA 1_555 1_555
C15CA C8CA 1_555 1_555
C16CA C15CA 1_555 1_555
H7CA C16CA 1_555 1_555
C17CA C16CA 1_555 1_555
H8CA C17CA 1_555 1_555
C18CA C17CA 1_555 1_555
C19CA C18CA 1_555 1_555
H9CA C19CA 1_555 1_555
C20CA C15CA 1_555 1_555
H10CA C20CA 1_555 1_555
C21CA O5CA 1_555 1_555
O7CA C25B 1_555 1_555
C27CA C14B 1_555 1_555
C28CA C26B 1_555 1_555
H11CA C28CA 1_555 1_555
C29CA C23B 1_555 1_555
C30CA C24B 1_555 1_555
H12CA C30CA 1_555 1_555
C31CA C6B 1_555 1_555
C32CA C4B 1_555 1_555
Zr3E O4E 1_555 1_555
O2E C21E 1_555 1_555
O3E C2E 1_555 1_555
O4E Zr3Z 1_555 1_555
O5E Zr2B 1_555 1_555
O6E Zr2B 1_555 1_555
C1E C2E 1_555 1_555
C2E O3Z 1_555 1_555
C3E H1E 1_555 1_555
C4E C22E 1_555 1_555
C5E C3E 1_555 1_555
C6E C5E 1_555 1_555
C7E C1E 1_555 1_555
H2E C7E 1_555 1_555
C8E C9E 1_555 1_555
C9E H3E 1_555 1_555
C10E C9E 1_555 1_555
H4E C10E 1_555 1_555
C11E C10E 1_555 1_555
C12E C11E 1_555 1_555
H5E C12E 1_555 1_555
C13E C8E 1_555 1_555
H6E C13E 1_555 1_555
C14E C22E 1_555 1_555
C15E C8E 1_555 1_555
C16E C15E 1_555 1_555
H7E C16E 1_555 1_555
C17E C16E 1_555 1_555
H8E C17E 1_555 1_555
C18E C17E 1_555 1_555
C19E C18E 1_555 1_555
H9E C19E 1_555 1_555
C20E C15E 1_555 1_555
H10E C20E 1_555 1_555
C21E O5E 1_555 1_555
C22E C11E 1_555 1_555
C23E C24E 1_555 1_555
C24E C30E 1_555 1_555
O7E Zr3E 1_555 1_555
C25E O7E 1_555 1_555
C26E C25E 1_555 1_555
C27E C14E 1_555 1_555
C28E C26E 1_555 1_555
H11E C28E 1_555 1_555
C29E C23E 1_555 1_555
C30E C28E 1_555 1_555
H12E C30E 1_555 1_555
C31E C6E 1_555 1_555
C32E C4E 1_555 1_555
O2Z Zr1 1_555 1_555
O3Z Zr1AA 1_555 1_555
O5Z Zr2 1_555 1_555
C3Z C5E 1_555 1_555
H1Z C3Z 1_555 1_555
C7Z C1E 1_555 1_555
H2Z C7Z 1_555 1_555
C8Z C9Z 1_555 1_555
C9Z H3Z 1_555 1_555
C10Z C9Z 1_555 1_555
H4Z C10Z 1_555 1_555
C11Z C22E 1_555 1_555
C12Z C11Z 1_555 1_555
H5Z C12Z 1_555 1_555
C13Z C8Z 1_555 1_555
H6Z C13Z 1_555 1_555
C15Z C8Z 1_555 1_555
C16Z C15Z 1_555 1_555
H7Z C16Z 1_555 1_555
C17Z C16Z 1_555 1_555
H8Z C17Z 1_555 1_555
C18Z C17Z 1_555 1_555
C19Z C18Z 1_555 1_555
H9Z C19Z 1_555 1_555
C20Z C15Z 1_555 1_555
H10Z C20Z 1_555 1_555
C21Z O2Z 1_555 1_555
O7Z C25E 1_555 1_555
C27Z C14E 1_555 1_555
C28Z C26E 1_555 1_555
H11Z C28Z 1_555 1_555
C29Z C23E 1_555 1_555
C30Z C24E 1_555 1_555
H12Z C30Z 1_555 1_555
C31Z C6E 1_555 1_555
C32Z C4E 1_555 1_555
Zr1H O2CA 1_555 1_555
O1H Zr1H 1_555 1_555
O2H C21H 1_555 1_555
O3H C2H 1_555 1_555
O5H Zr2 1_555 1_555
O6H Zr2 1_555 1_555
C1H C2H 1_555 1_555
C2H O3X 1_555 1_555
C3H H1H 1_555 1_555
C4H C22H 1_555 1_555
C5H C3H 1_555 1_555
C6H C5H 1_555 1_555
C7H C1H 1_555 1_555
H2H C7H 1_555 1_555
C8H C9H 1_555 1_555
C9H H3H 1_555 1_555
C10H C9H 1_555 1_555
H4H C10H 1_555 1_555
C11H C10H 1_555 1_555
C12H C11H 1_555 1_555
H5H C12H 1_555 1_555
C13H C8H 1_555 1_555
H6H C13H 1_555 1_555
C14H C22H 1_555 1_555
C15H C8H 1_555 1_555
C16H C15H 1_555 1_555
H7H C16H 1_555 1_555
C17H C16H 1_555 1_555
H8H C17H 1_555 1_555
C18H C17H 1_555 1_555
C19H C18H 1_555 1_555
H9H C19H 1_555 1_555
C20H C15H 1_555 1_555
H10H C20H 1_555 1_555
C21H O5H 1_555 1_555
C22H C11H 1_555 1_555
C23H C24H 1_555 1_555
C24H C30H 1_555 1_555
O7H C25H 1_555 1_555
C25H C26H 1_555 1_555
C26H C28H 1_555 1_555
C27H C14H 1_555 1_555
C28H H11H 1_555 1_555
C29H C23H 1_555 1_555
C30H C28H 1_555 1_555
H12H C30H 1_555 1_555
C31H C6H 1_555 1_555
C32H C4H 1_555 1_555
O2X C21X 1_555 1_555
O3X Zr1Y_2 1_555 1_555
O5X Zr2B 1_555 1_555
C3X C5H 1_555 1_555
H1X C3X 1_555 1_555
C7X C1H 1_555 1_555
H2X C7X 1_555 1_555
C8X C9X 1_555 1_555
C9X H3X 1_555 1_555
C10X C9X 1_555 1_555
H4X C10X 1_555 1_555
C11X C22H 1_555 1_555
C12X C11X 1_555 1_555
H5X C12X 1_555 1_555
C13X C8X 1_555 1_555
H6X C13X 1_555 1_555
C15X C8X 1_555 1_555
C16X C15X 1_555 1_555
H7X C16X 1_555 1_555
C17X C16X 1_555 1_555
H8X C17X 1_555 1_555
C18X C17X 1_555 1_555
C19X C18X 1_555 1_555
H9X C19X 1_555 1_555
C20X C15X 1_555 1_555
H10X C20X 1_555 1_555
C21X O5X 1_555 1_555
O7X C25H 1_555 1_555
C27X C14H 1_555 1_555
C28X C26H 1_555 1_555
H11X C28X 1_555 1_555
C29X C23H 1_555 1_555
C30X C24H 1_555 1_555
H12X C30X 1_555 1_555
C31X C6H 1_555 1_555
C32X C4H 1_555 1_555
Zr1K O3E 1_555 1_555
O1K Zr1K 1_555 1_555
O2K C21K 1_555 1_555
O3K C2K 1_555 1_555
O4K Zr3E 1_555 1_555
O5K C21K 1_555 1_555
O6K Zr1K 1_555 1_555
C1K C2K 1_555 1_555
C2K O3OA 1_555 1_555
C3K H1K 1_555 1_555
C4K C22K 1_555 1_555
C5K C3K 1_555 1_555
C6K C5K 1_555 1_555
C7K C1K 1_555 1_555
H2K C7K 1_555 1_555
C8K C9K 1_555 1_555
C9K H3K 1_555 1_555
C10K C9K 1_555 1_555
H4K C10K 1_555 1_555
C11K C10K 1_555 1_555
C12K C11K 1_555 1_555
H5K C12K 1_555 1_555
C13K C8K 1_555 1_555
H6K C13K 1_555 1_555
C14K C22K 1_555 1_555
C15K C8K 1_555 1_555
C16K C15K 1_555 1_555
H7K C16K 1_555 1_555
C17K C16K 1_555 1_555
H8K C17K 1_555 1_555
C18K C17K 1_555 1_555
C19K C18K 1_555 1_555
H9K C19K 1_555 1_555
C20K C15K 1_555 1_555
H10K C20K 1_555 1_555
C21K C18K 1_555 1_555
C22K C11K 1_555 1_555
C23K C24K 1_555 1_555
C24K C30K 1_555 1_555
O7K Zr3E 1_555 1_555
C25K O7K 1_555 1_555
C26K C25K 1_555 1_555
C27K C14K 1_555 1_555
C28K C26K 1_555 1_555
H11K C28K 1_555 1_555
C29K C23K 1_555 1_555
C30K C28K 1_555 1_555
H12K C30K 1_555 1_555
C31K C6K 1_555 1_555
C32K C4K 1_555 1_555
O2OA C21OA 1_555 1_555
O3OA Zr1BA 1_555 1_555
O5OA C21OA 1_555 1_555
C3OA C5K 1_555 1_555
H1OA C3OA 1_555 1_555
C7OA C1K 1_555 1_555
H2OA C7OA 1_555 1_555
C8OA C9OA 1_555 1_555
C9OA H3OA 1_555 1_555
C10OA C9OA 1_555 1_555
H4OA C10OA 1_555 1_555
C11OA C22K 1_555 1_555
C12OA C11OA 1_555 1_555
H5OA C12OA 1_555 1_555
C13OA C8OA 1_555 1_555
H6OA C13OA 1_555 1_555
C15OA C8OA 1_555 1_555
C16OA C15OA 1_555 1_555
H7OA C16OA 1_555 1_555
C17OA C16OA 1_555 1_555
H8OA C17OA 1_555 1_555
C18OA C17OA 1_555 1_555
C19OA C18OA 1_555 1_555
H9OA C19OA 1_555 1_555
C20OA C15OA 1_555 1_555
H10OA C20OA 1_555 1_555
C21OA C18OA 1_555 1_555
O7OA C25K 1_555 1_555
C27OA C14K 1_555 1_555
C28OA C26K 1_555 1_555
H11OA C28OA 1_555 1_555
C29OA C23K 1_555 1_555
C30OA C24K 1_555 1_555
H12OA C30OA 1_555 1_555
C31OA C6K 1_555 1_555
C32OA C4K 1_555 1_555
Zr3H O4L 1_555 1_555
O2L C21L 1_555 1_555
O3L C2L 1_555 1_555
O4L Zr3Z 1_555 1_555
O5L C21L 1_555 1_555
C1L C2L 1_555 1_555
C2L O3LA 1_555 1_555
C3L H1L 1_555 1_555
C4L C22L 1_555 1_555
C5L C3L 1_555 1_555
C6L C5L 1_555 1_555
C7L C1L 1_555 1_555
H2L C7L 1_555 1_555
C8L C9L 1_555 1_555
C9L H3L 1_555 1_555
C10L C9L 1_555 1_555
H4L C10L 1_555 1_555
C11L C10L 1_555 1_555
C12L C11L 1_555 1_555
H5L C12L 1_555 1_555
C13L C8L 1_555 1_555
H6L C13L 1_555 1_555
C14L C22L 1_555 1_555
C15L C8L 1_555 1_555
C16L C15L 1_555 1_555
H7L C16L 1_555 1_555
C17L C16L 1_555 1_555
H8L C17L 1_555 1_555
C18L C17L 1_555 1_555
C19L C18L 1_555 1_555
H9L C19L 1_555 1_555
C20L C15L 1_555 1_555
H10L C20L 1_555 1_555
C21L C18L 1_555 1_555
C22L C11L 1_555 1_555
C23L C24L 1_555 1_555
C24L C30L 1_555 1_555
O7L Zr3H 1_555 1_555
C25L O7L 1_555 1_555
C26L C25L 1_555 1_555
C27L C14L 1_555 1_555
C28L C26L 1_555 1_555
H11L C28L 1_555 1_555
C29L C23L 1_555 1_555
C30L C28L 1_555 1_555
H12L C30L 1_555 1_555
C31L C6L 1_555 1_555
C32L C4L 1_555 1_555
O2LA Zr1K 1_555 1_555
O3LA Zr1KA 1_555 1_555
O5LA C21LA 1_555 1_555
C3LA C5L 1_555 1_555
H1LA C3LA 1_555 1_555
C7LA C1L 1_555 1_555
H2LA C7LA 1_555 1_555
C8LA C9LA 1_555 1_555
C9LA H3LA 1_555 1_555
C10LA C9LA 1_555 1_555
H4LA C10LA 1_555 1_555
C11LA C22L 1_555 1_555
C12LA C11LA 1_555 1_555
H5LA C12LA 1_555 1_555
C13LA C8LA 1_555 1_555
H6LA C13LA 1_555 1_555
C15LA C8LA 1_555 1_555
C16LA C15LA 1_555 1_555
H7LA C16LA 1_555 1_555
C17LA C16LA 1_555 1_555
H8LA C17LA 1_555 1_555
C18LA C17LA 1_555 1_555
C19LA C18LA 1_555 1_555
H9LA C19LA 1_555 1_555
C20LA C15LA 1_555 1_555
H10LA C20LA 1_555 1_555
C21LA O2LA 1_555 1_555
O7LA C25L 1_555 1_555
C27LA C14L 1_555 1_555
C28LA C26L 1_555 1_555
H11LA C28LA 1_555 1_555
C29LA C23L 1_555 1_555
C30LA C24L 1_555 1_555
H12LA C30LA 1_555 1_555
C31LA C6L 1_555 1_555
C32LA C4L 1_555 1_555
Zr2V O1H 1_555 1_555
Zr1Z O2 1_555 1_555
O1W Zr1 1_555 1_555
O4Q Zr3 1_555 1_555
O1V Zr2 1_555 1_555
O4P Zr3 1_555 1_555
O1I Zr2B 1_555 1_555
O6W Zr1 1_555 1_555
Zr1CA O1 1_555 1_555
Zr3FA O7FA 1_555 1_555
Zr1A O3 1_555 1_555
Zr1B O6B 1_555 1_555
Zr1C O3B 1_555 1_555
Zr1E O2FA 1_555 1_555
Zr1F O3K 1_555 1_555
Zr1J O3L 1_555 1_555
Zr1L O2OA 1_555 1_555
Zr1L_2 O3H 1_555 1_555
Zr1X O2B 1_555 1_555
Zr1Y O2L 1_555 1_555
Zr1AA O2K 1_555 1_555
Zr1FA O6B 1_555 1_555
Zr1JA O1A 1_555 1_555
Zr1JA_2 O1K 1_555 1_555
Zr2A O1K 1_555 1_555
Zr2K O5K 1_555 1_555
Zr2L O5OA 1_555 1_555
Zr3B O7B 1_555 1_555
Zr3H_2 O7H 1_555 1_555
Zr3X O4K 1_555 1_555
Zr3X_2 O7X 1_555 1_555
Zr3Z O7Z 1_555 1_555
Zr3CA O4Q 1_555 1_555
Zr3CA_2 O7CA 1_555 1_555
O1A Zr1A 1_555 1_555
O1G Zr2B 1_555 1_555
O1Q Zr1A 1_555 1_555
O1S Zr1K 1_555 1_555
O2V Zr1Z 1_555 1_555
O2W Zr1CA 1_555 1_555
O2AA Zr1A 1_555 1_555
O2EA Zr1H 1_555 1_555
O2GA Zr1 1_555 1_555
O2JA Zr1A 1_555 1_555
O2PA Zr1K 1_555 1_555
O3C Zr1 1_555 1_555
O3J Zr1H 1_555 1_555
O3P Zr1 1_555 1_555
O3S Zr1H 1_555 1_555
O3T Zr1K 1_555 1_555
O3U Zr1A 1_555 1_555
O3Y Zr1Z 1_555 1_555
O3KA Zr1Z 1_555 1_555
O3MA Zr1CA 1_555 1_555
O3PA Zr1CA 1_555 1_555
O4H Zr3H 1_555 1_555
O4J Zr3H 1_555 1_555
O4N Zr3FA 1_555 1_555
O4O Zr3E 1_555 1_555
O5V Zr2V 1_555 1_555
O5W Zr2V 1_555 1_555
O5EA Zr2V 1_555 1_555
O5GA Zr2V 1_555 1_555
O6A Zr1A 1_555 1_555
O6Q Zr1A 1_555 1_555
O6S Zr1K 1_555 1_555
O6V Zr1H 1_555 1_555
O7H_2 Zr3H 1_555 1_555
O7J Zr3H 1_555 1_555
O7O Zr3E 1_555 1_555
O7P Zr3 1_555 1_555
O7Q Zr3 1_555 1_555
O7HA Zr3FA 1_555 1_555
O7JA Zr3FA 1_555 1_555
Zr2 O6 1_555 1_555
Zr2 O1W 1_555 1_555
O6 Zr1CA 1_555 1_555
C3 C7 1_555 1_555
C12 C13 1_555 1_555
C19 C20 1_555 1_555
C27 C29 1_555 1_555
C31 C32 1_555 1_555
C3FA C7FA 1_555 1_555
C10FA C11FA 1_555 1_555
C12FA C13FA 1_555 1_555
C19FA C20FA 1_555 1_555
C27FA C29FA 1_555 1_555
C28FA C30FA 1_555 1_555
C31FA C32FA 1_555 1_555
C3B C7B 1_555 1_555
C12B C13B 1_555 1_555
C18B C21B 1_555 1_555
C19B C20B 1_555 1_555
C27B C29B 1_555 1_555
C31B C32B 1_555 1_555
C3CA C7CA 1_555 1_555
C10CA C11CA 1_555 1_555
C12CA C13CA 1_555 1_555
C18CA C21CA 1_555 1_555
C19CA C20CA 1_555 1_555
C27CA C29CA 1_555 1_555
C28CA C30CA 1_555 1_555
C31CA C32CA 1_555 1_555
O2E Zr1FA 1_555 1_555
O6E Zr1E 1_555 1_555
O6E Zr1X 1_555 1_555
C3E C7E 1_555 1_555
C12E C13E 1_555 1_555
C18E C21E 1_555 1_555
C19E C20E 1_555 1_555
C27E C29E 1_555 1_555
C31E C32E 1_555 1_555
O5Z C21Z 1_555 1_555
C3Z C7Z 1_555 1_555
C10Z C11Z 1_555 1_555
C12Z C13Z 1_555 1_555
C18Z C21Z 1_555 1_555
C19Z C20Z 1_555 1_555
C27Z C29Z 1_555 1_555
C28Z C30Z 1_555 1_555
C31Z C32Z 1_555 1_555
Zr1H O6H 1_555 1_555
Zr1H O1V 1_555 1_555
O1H Zr1Z 1_555 1_555
O2H Zr1CA 1_555 1_555
O6H Zr1Z 1_555 1_555
C3H C7H 1_555 1_555
C12H C13H 1_555 1_555
C18H C21H 1_555 1_555
C19H C20H 1_555 1_555
C27H C29H 1_555 1_555
C31H C32H 1_555 1_555
O2X Zr1B 1_555 1_555
C3X C7X 1_555 1_555
C10X C11X 1_555 1_555
C12X C13X 1_555 1_555
C18X C21X 1_555 1_555
C19X C20X 1_555 1_555
C27X C29X 1_555 1_555
C28X C30X 1_555 1_555
C31X C32X 1_555 1_555
O6K Zr1JA_2 1_555 1_555
O6K Zr2K 1_555 1_555
C3K C7K 1_555 1_555
C12K C13K 1_555 1_555
C19K C20K 1_555 1_555
C27K C29K 1_555 1_555
C31K C32K 1_555 1_555
C3OA C7OA 1_555 1_555
C10OA C11OA 1_555 1_555
C12OA C13OA 1_555 1_555
C19OA C20OA 1_555 1_555
O7OA Zr3X 1_555 1_555
C27OA C29OA 1_555 1_555
C28OA C30OA 1_555 1_555
C31OA C32OA 1_555 1_555
O5L Zr2L 1_555 1_555
C3L C7L 1_555 1_555
C12L C13L 1_555 1_555
C19L C20L 1_555 1_555
C27L C29L 1_555 1_555
C31L C32L 1_555 1_555
O5LA Zr2K 1_555 1_555
C3LA C7LA 1_555 1_555
C10LA C11LA 1_555 1_555
C12LA C13LA 1_555 1_555
C18LA C21LA 1_555 1_555
C19LA C20LA 1_555 1_555
O7LA Zr3Z 1_555 1_555
C27LA C29LA 1_555 1_555
C28LA C30LA 1_555 1_555
C31LA C32LA 1_555 1_555
Zr2V O6W 1_555 1_555
Zr2V O6V 1_555 1_555
Zr1Z O1W 1_555 1_555
Zr1Z O6W 1_555 1_555
O1V Zr1CA 1_555 1_555
O4P Zr3Z 1_555 1_555
O1I Zr1E 1_555 1_555
O1I Zr1FA 1_555 1_555
Zr1CA O6V 1_555 1_555
Zr3FA O4O 1_555 1_555
Zr1B O1G 1_555 1_555
Zr1X O1G 1_555 1_555
Zr1AA O1S 1_555 1_555
Zr1AA O6S 1_555 1_555
Zr1JA O6A 1_555 1_555
Zr2A O6S 1_555 1_555
Zr2K O1S 1_555 1_555
Zr3X O4H 1_555 1_555
Zr3CA O4J 1_555 1_555

#END
