
#######################################################################
#
#                 Cambridge Crystallographic Data Centre
#                                CCDC 
#
#######################################################################
#
# If this CIF has been generated from an entry in the Cambridge 
# Structural Database, then it will include bibliographic, chemical, 
# crystal, experimental, refinement or atomic coordinate data resulting 
# from the CCDC's data processing and validation procedures.
#
#######################################################################

data_EWEDIV
_chemical_formula_moiety         'C318 Hf44 O102'
_symmetry_cell_setting           cubic
_symmetry_space_group_name_H-M   'P m -3 n'
_symmetry_Int_Tables_number      223
_space_group_name_Hall           '-P 4n 2 3'
loop_
_symmetry_equiv_pos_site_id
_symmetry_equiv_pos_as_xyz
1 x,y,z
2 -x,-y,z
3 -x,y,-z
4 x,-y,-z
5 z,x,y
6 z,-x,-y
7 -z,-x,y
8 -z,x,-y
9 y,z,x
10 -y,z,-x
11 y,-z,-x
12 -y,-z,x
13 1/2+y,1/2+x,1/2-z
14 1/2-y,1/2-x,1/2-z
15 1/2+y,1/2-x,1/2+z
16 1/2-y,1/2+x,1/2+z
17 1/2+x,1/2+z,1/2-y
18 1/2-x,1/2+z,1/2+y
19 1/2-x,1/2-z,1/2-y
20 1/2+x,1/2-z,1/2+y
21 1/2+z,1/2+y,1/2-x
22 1/2+z,1/2-y,1/2+x
23 1/2-z,1/2+y,1/2+x
24 1/2-z,1/2-y,1/2-x
25 -x,-y,-z
26 x,y,-z
27 x,-y,z
28 -x,y,z
29 -z,-x,-y
30 -z,x,y
31 z,x,-y
32 z,-x,y
33 -y,-z,-x
34 y,-z,x
35 -y,z,x
36 y,z,-x
37 1/2-y,1/2-x,1/2+z
38 1/2+y,1/2+x,1/2+z
39 1/2-y,1/2+x,1/2-z
40 1/2+y,1/2-x,1/2-z
41 1/2-x,1/2-z,1/2+y
42 1/2+x,1/2-z,1/2-y
43 1/2+x,1/2+z,1/2+y
44 1/2-x,1/2+z,1/2-y
45 1/2-z,1/2-y,1/2+x
46 1/2-z,1/2+y,1/2-x
47 1/2+z,1/2-y,1/2-x
48 1/2+z,1/2+y,1/2+x
_cell_length_a                   41.516(2)
_cell_length_b                   41.516(2)
_cell_length_c                   41.516(2)
_cell_angle_alpha                90
_cell_angle_beta                 90
_cell_angle_gamma                90
_cell_volume                     71556.1
loop_
_atom_site_label
_atom_site_type_symbol
_atom_site_fract_x
_atom_site_fract_y
_atom_site_fract_z
Hf1 Hf 0.95805(2) 0.54195(2) 0.7500
Hf2 Hf 1.0000 0.5000 0.69042(3)
O1 O 0.7958(2) 0.93881(19) 0.5599(2)
O2 O 0.9532(2) 0.5000 0.7172(3)
O3 O 1.0000 0.5354(3) 0.7238(3)
O4 O 0.9726(2) 0.59318(19) 0.7478(2)
O5 O 0.8352(2) 0.9657(2) 0.5317(2)
C1 C 0.8498(4) 0.9261(4) 0.5691(4)
C2 C 0.9052(4) 0.9155(5) 0.5810(6)
C3 C 0.8825(4) 0.9307(5) 0.5614(5)
C4 C 0.8397(4) 0.9030(5) 0.5940(5)
C5 C 0.8641(5) 0.8900(5) 0.6141(5)
C6 C 0.8970(5) 0.8943(5) 0.6066(5)
C7 C 0.8249(4) 0.9459(3) 0.5510(4)
C8 C 1.0000 0.6073(4) 0.7441(4)
C9 C 1.0000 0.7062(5) 0.7166(4)
C10 C 1.0000 0.6406(4) 0.7349(4)
C11 C 1.0000 0.7393(5) 0.7074(5)
C12 C 1.0296(3) 0.6572(3) 0.7298(4)
C13 C 0.9194(3) 0.8803(4) 0.6281(4)
C14 C 0.9228(4) 0.8910(4) 0.6597(4)
C15 C 0.9460(5) 0.8771(4) 0.6795(3)
C16 C 0.9657(4) 0.8527(4) 0.6678(4)
C17 C 0.9622(4) 0.8421(4) 0.6362(4)
C18 C 0.9391(4) 0.8559(4) 0.6164(3)
C19 C 1.0287(4) 0.6898(3) 0.7212(4)
Hf3 Hf 0.96708(7) 0.96708(7) 0.96708(7)
O6 O 1.0000 0.9503(3) 0.9682(5)
O7 O 0.9757(8) 0.9408(9) 0.9220(7)
C20 C 1.0000 0.8065(5) 0.6908(6)
C21 C 1.0000 0.8591(5) 0.7180(7)
C22 C 1.0000 0.8430(5) 0.6865(6)
C23 C 0.9772(7) 0.8699(8) 0.7718(7)
C24 C 1.0000 0.9064(12) 0.8110(9)
C25 C 1.0000 0.8905(10) 0.7802(12)
C26 C 0.9750(6) 0.8518(8) 0.7397(7)
C27 C 1.0000 0.9274(17) 0.8764(12)
C28 C 1.0000 0.952(2) 0.902(2)
C29 C 0.9737(9) 0.9036(10) 0.8299(10)
C30 C 0.9752(4) 0.7567(4) 0.7052(6)
C31 C 0.9747(4) 0.7902(4) 0.6966(6)
C32 C 0.9730(7) 0.9135(9) 0.8622(8)
O1AA O 1.2042(2) 0.93881(19) 0.5599(2)
O4AA O 1.0274(2) 0.59318(19) 0.7478(2)
O5AA O 1.1648(2) 0.9657(2) 0.5317(2)
C1AA C 1.1502(4) 0.9261(4) 0.5691(4)
C2AA C 1.0948(4) 0.9155(5) 0.5810(6)
C3AA C 1.1175(4) 0.9307(5) 0.5614(5)
C4AA C 1.1603(4) 0.9030(5) 0.5940(5)
C5AA C 1.1359(5) 0.8900(5) 0.6141(5)
C6AA C 1.1030(5) 0.8943(5) 0.6066(5)
C7AA C 1.1751(4) 0.9459(3) 0.5510(4)
C12AA C 0.9704(3) 0.6572(3) 0.7298(4)
C13AA C 1.0806(3) 0.8803(4) 0.6281(4)
C14AA C 1.0772(4) 0.8910(4) 0.6597(4)
C15AA C 1.0540(5) 0.8771(4) 0.6795(3)
C16AA C 1.0343(4) 0.8527(4) 0.6678(4)
C17AA C 1.0378(4) 0.8421(4) 0.6362(4)
C18AA C 1.0609(4) 0.8559(4) 0.6164(3)
C19AA C 0.9713(4) 0.6898(3) 0.7212(4)
O7AA O 1.0243(8) 0.9408(9) 0.9220(7)
C23AA C 1.0228(7) 0.8699(8) 0.7718(7)
C26AA C 1.0250(6) 0.8518(8) 0.7397(7)
C29AA C 1.0263(9) 0.9036(10) 0.8299(10)
C30AA C 1.0248(4) 0.7567(4) 0.7052(6)
C31AA C 1.0253(4) 0.7902(4) 0.6966(6)
C32AA C 1.0270(7) 0.9135(9) 0.8622(8)
Hf1A Hf 1.04195(2) 0.45805(2) 0.7500
O1A O 1.2042(2) 0.06119(19) 0.5599(2)
O2A O 1.0468(2) 0.5000 0.7172(3)
O3A O 1.0000 0.4646(3) 0.7238(3)
O4A O 1.0274(2) 0.40682(19) 0.7478(2)
O5A O 1.1648(2) 0.0343(2) 0.5317(2)
C1A C 1.1502(4) 0.0739(4) 0.5691(4)
C2A C 1.0948(4) 0.0845(5) 0.5810(6)
C3A C 1.1175(4) 0.0693(5) 0.5614(5)
C4A C 1.1603(4) 0.0970(5) 0.5940(5)
C5A C 1.1359(5) 0.1100(5) 0.6141(5)
C6A C 1.1030(5) 0.1057(5) 0.6066(5)
C7A C 1.1751(4) 0.0541(3) 0.5510(4)
C8A C 1.0000 0.3927(4) 0.7441(4)
C9A C 1.0000 0.2938(5) 0.7166(4)
C10A C 1.0000 0.3594(4) 0.7349(4)
C11A C 1.0000 0.2607(5) 0.7074(5)
C12A C 0.9704(3) 0.3428(3) 0.7298(4)
C13A C 1.0806(3) 0.1197(4) 0.6281(4)
C14A C 1.0772(4) 0.1090(4) 0.6597(4)
C15A C 1.0540(5) 0.1229(4) 0.6795(3)
C16A C 1.0343(4) 0.1473(4) 0.6678(4)
C17A C 1.0378(4) 0.1579(4) 0.6362(4)
C18A C 1.0609(4) 0.1441(4) 0.6164(3)
C19A C 0.9713(4) 0.3102(3) 0.7212(4)
O7A O 1.0243(8) 0.0592(9) 0.9220(7)
C20A C 1.0000 0.1935(5) 0.6908(6)
C21A C 1.0000 0.1409(5) 0.7180(7)
C22A C 1.0000 0.1570(5) 0.6865(6)
C23A C 1.0228(7) 0.1301(8) 0.7718(7)
C24A C 1.0000 0.0936(12) 0.8110(9)
C25A C 1.0000 0.1095(10) 0.7802(12)
C26A C 1.0250(6) 0.1482(8) 0.7397(7)
C27A C 1.0000 0.0726(17) 0.8764(12)
C28A C 1.0000 0.048(2) 0.902(2)
C29A C 1.0263(9) 0.0964(10) 0.8299(10)
C30A C 1.0248(4) 0.2433(4) 0.7052(6)
C31A C 1.0253(4) 0.2098(4) 0.6966(6)
C32A C 1.0270(7) 0.0865(9) 0.8622(8)
O1Z O 0.7958(2) 0.06119(19) 0.5599(2)
O4Z O 0.9726(2) 0.40682(19) 0.7478(2)
O5Z O 0.8352(2) 0.0343(2) 0.5317(2)
C1Z C 0.8498(4) 0.0739(4) 0.5691(4)
C2Z C 0.9052(4) 0.0845(5) 0.5810(6)
C3Z C 0.8825(4) 0.0693(5) 0.5614(5)
C4Z C 0.8397(4) 0.0970(5) 0.5940(5)
C5Z C 0.8641(5) 0.1100(5) 0.6141(5)
C6Z C 0.8970(5) 0.1057(5) 0.6066(5)
C7Z C 0.8249(4) 0.0541(3) 0.5510(4)
C12Z C 1.0296(3) 0.3428(3) 0.7298(4)
C13Z C 0.9194(3) 0.1197(4) 0.6281(4)
C14Z C 0.9228(4) 0.1090(4) 0.6597(4)
C15Z C 0.9460(5) 0.1229(4) 0.6795(3)
C16Z C 0.9657(4) 0.1473(4) 0.6678(4)
C17Z C 0.9622(4) 0.1579(4) 0.6362(4)
C18Z C 0.9391(4) 0.1441(4) 0.6164(3)
C19Z C 1.0287(4) 0.3102(3) 0.7212(4)
O7Z O 0.9757(8) 0.0592(9) 0.9220(7)
C23Z C 0.9772(7) 0.1301(8) 0.7718(7)
C26Z C 0.9750(6) 0.1482(8) 0.7397(7)
C29Z C 0.9737(9) 0.0964(10) 0.8299(10)
C30Z C 0.9752(4) 0.2433(4) 0.7052(6)
C31Z C 0.9747(4) 0.2098(4) 0.6966(6)
C32Z C 0.9730(7) 0.0865(9) 0.8622(8)
Hf1D Hf 0.7500 0.95805(2) 0.54195(2)
O1D O 0.5599(2) 0.7958(2) 0.93881(19)
O2D O 0.7172(3) 0.9532(2) 0.5000
O3D O 0.7238(3) 1.0000 0.5354(3)
O4D O 0.7478(2) 0.9726(2) 0.59318(19)
O5D O 0.5317(2) 0.8352(2) 0.9657(2)
C1D C 0.5691(4) 0.8498(4) 0.9261(4)
C2D C 0.5810(6) 0.9052(4) 0.9155(5)
C3D C 0.5614(5) 0.8825(4) 0.9307(5)
C4D C 0.5940(5) 0.8397(4) 0.9030(5)
C5D C 0.6141(5) 0.8641(5) 0.8900(5)
C6D C 0.6066(5) 0.8970(5) 0.8943(5)
C7D C 0.5510(4) 0.8249(4) 0.9459(3)
C8D C 0.7441(4) 1.0000 0.6073(4)
C9D C 0.7166(4) 1.0000 0.7062(5)
C10D C 0.7349(4) 1.0000 0.6406(4)
C11D C 0.7074(5) 1.0000 0.7393(5)
C12D C 0.7298(4) 1.0296(3) 0.6572(3)
C13D C 0.6281(4) 0.9194(3) 0.8803(4)
C14D C 0.6597(4) 0.9228(4) 0.8910(4)
C15D C 0.6795(3) 0.9460(5) 0.8771(4)
C16D C 0.6678(4) 0.9657(4) 0.8527(4)
C17D C 0.6362(4) 0.9622(4) 0.8421(4)
C18D C 0.6164(3) 0.9391(4) 0.8559(4)
C19D C 0.7212(4) 1.0287(4) 0.6898(3)
O6D O 0.9682(5) 1.0000 0.9503(3)
O7D O 0.9220(7) 0.9757(8) 0.9408(9)
C20D C 0.6908(6) 1.0000 0.8065(5)
C21D C 0.7180(7) 1.0000 0.8591(5)
C22D C 0.6865(6) 1.0000 0.8430(5)
C23D C 0.7718(7) 0.9772(7) 0.8699(8)
C24D C 0.8110(9) 1.0000 0.9064(12)
C25D C 0.7802(12) 1.0000 0.8905(10)
C26D C 0.7397(7) 0.9750(6) 0.8518(8)
C27D C 0.8764(12) 1.0000 0.9274(17)
C28D C 0.902(2) 1.0000 0.952(2)
C29D C 0.8299(10) 0.9737(9) 0.9036(10)
C30D C 0.7052(6) 0.9752(4) 0.7567(4)
C31D C 0.6966(6) 0.9747(4) 0.7902(4)
C32D C 0.8622(8) 0.9730(7) 0.9135(9)
O1EA O 0.5599(2) 1.2042(2) 0.93881(19)
O4EA O 0.7478(2) 1.0274(2) 0.59318(19)
O5EA O 0.5317(2) 1.1648(2) 0.9657(2)
C1EA C 0.5691(4) 1.1502(4) 0.9261(4)
C2EA C 0.5810(6) 1.0948(4) 0.9155(5)
C3EA C 0.5614(5) 1.1175(4) 0.9307(5)
C4EA C 0.5940(5) 1.1603(4) 0.9030(5)
C5EA C 0.6141(5) 1.1359(5) 0.8900(5)
C6EA C 0.6066(5) 1.1030(5) 0.8943(5)
C7EA C 0.5510(4) 1.1751(4) 0.9459(3)
C12EA C 0.7298(4) 0.9704(3) 0.6572(3)
C13EA C 0.6281(4) 1.0806(3) 0.8803(4)
C14EA C 0.6597(4) 1.0772(4) 0.8910(4)
C15EA C 0.6795(3) 1.0540(5) 0.8771(4)
C16EA C 0.6678(4) 1.0343(4) 0.8527(4)
C17EA C 0.6362(4) 1.0378(4) 0.8421(4)
C18EA C 0.6164(3) 1.0609(4) 0.8559(4)
C19EA C 0.7212(4) 0.9713(4) 0.6898(3)
O7EA O 0.9220(7) 1.0243(8) 0.9408(9)
C23EA C 0.7718(7) 1.0228(7) 0.8699(8)
C26EA C 0.7397(7) 1.0250(6) 0.8518(8)
C29EA C 0.8299(10) 1.0263(9) 0.9036(10)
C30EA C 0.7052(6) 1.0248(4) 0.7567(4)
C31EA C 0.6966(6) 1.0253(4) 0.7902(4)
C32EA C 0.8622(8) 1.0270(7) 0.9135(9)
Hf1H Hf 0.54195(2) 0.7500 0.95805(2)
O1H O 0.93881(19) 0.5599(2) 0.7958(2)
O2H O 0.5000 0.7172(3) 0.9532(2)
O3H O 0.5354(3) 0.7238(3) 1.0000
O4H O 0.59318(19) 0.7478(2) 0.9726(2)
O5H O 0.9657(2) 0.5317(2) 0.8352(2)
C1H C 0.9261(4) 0.5691(4) 0.8498(4)
C2H C 0.9155(5) 0.5810(6) 0.9052(4)
C3H C 0.9307(5) 0.5614(5) 0.8825(4)
C4H C 0.9030(5) 0.5940(5) 0.8397(4)
C5H C 0.8900(5) 0.6141(5) 0.8641(5)
C6H C 0.8943(5) 0.6066(5) 0.8970(5)
C7H C 0.9459(3) 0.5510(4) 0.8249(4)
C8H C 0.6073(4) 0.7441(4) 1.0000
C9H C 0.7062(5) 0.7166(4) 1.0000
C10H C 0.6406(4) 0.7349(4) 1.0000
C11H C 0.7393(5) 0.7074(5) 1.0000
C12H C 0.6572(3) 0.7298(4) 1.0296(3)
C13H C 0.8803(4) 0.6281(4) 0.9194(3)
C14H C 0.8910(4) 0.6597(4) 0.9228(4)
C15H C 0.8771(4) 0.6795(3) 0.9460(5)
C16H C 0.8527(4) 0.6678(4) 0.9657(4)
C17H C 0.8421(4) 0.6362(4) 0.9622(4)
C18H C 0.8559(4) 0.6164(3) 0.9391(4)
C19H C 0.6898(3) 0.7212(4) 1.0287(4)
O6H O 0.9503(3) 0.9682(5) 1.0000
O7H O 0.9408(9) 0.9220(7) 0.9757(8)
C20H C 0.8065(5) 0.6908(6) 1.0000
C21H C 0.8591(5) 0.7180(7) 1.0000
C22H C 0.8430(5) 0.6865(6) 1.0000
C23H C 0.8699(8) 0.7718(7) 0.9772(7)
C24H C 0.9064(12) 0.8110(9) 1.0000
C25H C 0.8905(10) 0.7802(12) 1.0000
C26H C 0.8518(8) 0.7397(7) 0.9750(6)
C27H C 0.9274(17) 0.8764(12) 1.0000
C28H C 0.952(2) 0.902(2) 1.0000
C29H C 0.9036(10) 0.8299(10) 0.9737(9)
C30H C 0.7567(4) 0.7052(6) 0.9752(4)
C31H C 0.7902(4) 0.6966(6) 0.9747(4)
C32H C 0.9135(9) 0.8622(8) 0.9730(7)
O1IA O 0.93881(19) 0.5599(2) 1.2042(2)
O4IA O 0.59318(19) 0.7478(2) 1.0274(2)
O5IA O 0.9657(2) 0.5317(2) 1.1648(2)
C1IA C 0.9261(4) 0.5691(4) 1.1502(4)
C2IA C 0.9155(5) 0.5810(6) 1.0948(4)
C3IA C 0.9307(5) 0.5614(5) 1.1175(4)
C4IA C 0.9030(5) 0.5940(5) 1.1603(4)
C5IA C 0.8900(5) 0.6141(5) 1.1359(5)
C6IA C 0.8943(5) 0.6066(5) 1.1030(5)
C7IA C 0.9459(3) 0.5510(4) 1.1751(4)
C12IA C 0.6572(3) 0.7298(4) 0.9704(3)
C13IA C 0.8803(4) 0.6281(4) 1.0806(3)
C14IA C 0.8910(4) 0.6597(4) 1.0772(4)
C15IA C 0.8771(4) 0.6795(3) 1.0540(5)
C16IA C 0.8527(4) 0.6678(4) 1.0343(4)
C17IA C 0.8421(4) 0.6362(4) 1.0378(4)
C18IA C 0.8559(4) 0.6164(3) 1.0609(4)
C19IA C 0.6898(3) 0.7212(4) 0.9713(4)
O7IA O 0.9408(9) 0.9220(7) 1.0243(8)
C23IA C 0.8699(8) 0.7718(7) 1.0228(7)
C26IA C 0.8518(8) 0.7397(7) 1.0250(6)
C29IA C 0.9036(10) 0.8299(10) 1.0263(9)
C30IA C 0.7567(4) 0.7052(6) 1.0248(4)
C31IA C 0.7902(4) 0.6966(6) 1.0253(4)
C32IA C 0.9135(9) 0.8622(8) 1.0270(7)
Hf2L Hf 1.0000 0.5000 0.80958(3)
O1L O 1.43881(19) 0.2958(2) 0.9401(2)
O2L O 1.0000 0.4532(2) 0.7828(3)
O3L O 1.0354(3) 0.5000 0.7762(3)
O4L O 1.09318(19) 0.4726(2) 0.7522(2)
O5L O 1.4657(2) 0.3352(2) 0.9683(2)
C1L C 1.4261(4) 0.3498(4) 0.9309(4)
C2L C 1.4155(5) 0.4052(4) 0.9190(6)
C3L C 1.4307(5) 0.3825(4) 0.9386(5)
C4L C 1.4030(5) 0.3397(4) 0.9060(5)
C5L C 1.3900(5) 0.3641(5) 0.8859(5)
C6L C 1.3943(5) 0.3970(5) 0.8934(5)
C7L C 1.4459(3) 0.3249(4) 0.9490(4)
C8L C 1.1073(4) 0.5000 0.7559(4)
C9L C 1.2062(5) 0.5000 0.7834(4)
C10L C 1.1406(4) 0.5000 0.7651(4)
C11L C 1.2393(5) 0.5000 0.7926(5)
C12L C 1.1572(3) 0.5296(3) 0.7702(4)
C13L C 1.3803(4) 0.4194(3) 0.8719(4)
C14L C 1.3910(4) 0.4228(4) 0.8403(4)
C15L C 1.3771(4) 0.4460(5) 0.8205(3)
C16L C 1.3527(4) 0.4657(4) 0.8322(4)
C17L C 1.3421(4) 0.4622(4) 0.8638(4)
C18L C 1.3559(4) 0.4391(4) 0.8836(3)
C19L C 1.1898(3) 0.5287(4) 0.7788(4)
O7L O 1.4408(9) 0.4757(8) 0.5780(7)
C20L C 1.3065(5) 0.5000 0.8092(6)
C21L C 1.3591(5) 0.5000 0.7820(7)
C22L C 1.3430(5) 0.5000 0.8135(6)
C23L C 1.3699(8) 0.4772(7) 0.7282(7)
C24L C 1.4064(12) 0.5000 0.6890(9)
C25L C 1.3905(10) 0.5000 0.7198(12)
C26L C 1.3518(8) 0.4750(6) 0.7603(7)
C27L C 1.4274(17) 0.5000 0.6236(12)
C28L C 1.452(2) 0.5000 0.598(2)
C29L C 1.4036(10) 0.4737(9) 0.6701(10)
C30L C 1.2567(4) 0.4752(4) 0.7948(6)
C31L C 1.2902(4) 0.4747(4) 0.8034(6)
C32L C 1.4135(9) 0.4730(7) 0.6378(8)
O1MA O 1.43881(19) 0.7042(2) 0.9401(2)
O4MA O 1.09318(19) 0.5274(2) 0.7522(2)
O5MA O 1.4657(2) 0.6648(2) 0.9683(2)
C1MA C 1.4261(4) 0.6502(4) 0.9309(4)
C2MA C 1.4155(5) 0.5948(4) 0.9190(6)
C3MA C 1.4307(5) 0.6175(4) 0.9386(5)
C4MA C 1.4030(5) 0.6603(4) 0.9060(5)
C5MA C 1.3900(5) 0.6359(5) 0.8859(5)
C6MA C 1.3943(5) 0.6030(5) 0.8934(5)
C7MA C 1.4459(3) 0.6751(4) 0.9490(4)
C12MA C 1.1572(3) 0.4704(3) 0.7702(4)
C13MA C 1.3803(4) 0.5806(3) 0.8719(4)
C14MA C 1.3910(4) 0.5772(4) 0.8403(4)
C15MA C 1.3771(4) 0.5540(5) 0.8205(3)
C16MA C 1.3527(4) 0.5343(4) 0.8322(4)
C17MA C 1.3421(4) 0.5378(4) 0.8638(4)
C18MA C 1.3559(4) 0.5609(4) 0.8836(3)
C19MA C 1.1898(3) 0.4713(4) 0.7788(4)
O7MA O 1.4408(9) 0.5243(8) 0.5780(7)
C23MA C 1.3699(8) 0.5228(7) 0.7282(7)
C26MA C 1.3518(8) 0.5250(6) 0.7603(7)
C29MA C 1.4036(10) 0.5263(9) 0.6701(10)
C30MA C 1.2567(4) 0.5248(4) 0.7948(6)
C31MA C 1.2902(4) 0.5253(4) 0.8034(6)
C32MA C 1.4135(9) 0.5270(7) 0.6378(8)
O1M O 0.56119(19) 0.7042(2) 0.9401(2)
O2M O 1.0000 0.5468(2) 0.7828(3)
O3M O 0.9646(3) 0.5000 0.7762(3)
O4M O 0.90682(19) 0.5274(2) 0.7522(2)
O5M O 0.5343(2) 0.6648(2) 0.9683(2)
C1M C 0.5739(4) 0.6502(4) 0.9309(4)
C2M C 0.5845(5) 0.5948(4) 0.9190(6)
C3M C 0.5693(5) 0.6175(4) 0.9386(5)
C4M C 0.5970(5) 0.6603(4) 0.9060(5)
C5M C 0.6100(5) 0.6359(5) 0.8859(5)
C6M C 0.6057(5) 0.6030(5) 0.8934(5)
C7M C 0.5541(3) 0.6751(4) 0.9490(4)
C8M C 0.8927(4) 0.5000 0.7559(4)
C9M C 0.7938(5) 0.5000 0.7834(4)
C10M C 0.8594(4) 0.5000 0.7651(4)
C11M C 0.7607(5) 0.5000 0.7926(5)
C12M C 0.8428(3) 0.4704(3) 0.7702(4)
C13M C 0.6197(4) 0.5806(3) 0.8719(4)
C14M C 0.6090(4) 0.5772(4) 0.8403(4)
C15M C 0.6229(4) 0.5540(5) 0.8205(3)
C16M C 0.6473(4) 0.5343(4) 0.8322(4)
C17M C 0.6579(4) 0.5378(4) 0.8638(4)
C18M C 0.6441(4) 0.5609(4) 0.8836(3)
C19M C 0.8102(3) 0.4713(4) 0.7788(4)
Hf3M Hf 0.53292(7) 0.53292(7) 0.53292(7)
O6M O 0.5497(3) 0.5000 0.5318(5)
O7M O 0.5592(9) 0.5243(8) 0.5780(7)
C20M C 0.6935(5) 0.5000 0.8092(6)
C21M C 0.6409(5) 0.5000 0.7820(7)
C22M C 0.6570(5) 0.5000 0.8135(6)
C23M C 0.6301(8) 0.5228(7) 0.7282(7)
C24M C 0.5936(12) 0.5000 0.6890(9)
C25M C 0.6095(10) 0.5000 0.7198(12)
C26M C 0.6482(8) 0.5250(6) 0.7603(7)
C27M C 0.5726(17) 0.5000 0.6236(12)
C28M C 0.548(2) 0.5000 0.598(2)
C29M C 0.5964(10) 0.5263(9) 0.6701(10)
C30M C 0.7433(4) 0.5248(4) 0.7948(6)
C31M C 0.7098(4) 0.5253(4) 0.8034(6)
C32M C 0.5865(9) 0.5270(7) 0.6378(8)
O1LA O 0.56119(19) 0.2958(2) 0.9401(2)
O4LA O 0.90682(19) 0.4726(2) 0.7522(2)
O5LA O 0.5343(2) 0.3352(2) 0.9683(2)
C1LA C 0.5739(4) 0.3498(4) 0.9309(4)
C2LA C 0.5845(5) 0.4052(4) 0.9190(6)
C3LA C 0.5693(5) 0.3825(4) 0.9386(5)
C4LA C 0.5970(5) 0.3397(4) 0.9060(5)
C5LA C 0.6100(5) 0.3641(5) 0.8859(5)
C6LA C 0.6057(5) 0.3970(5) 0.8934(5)
C7LA C 0.5541(3) 0.3249(4) 0.9490(4)
C12LA C 0.8428(3) 0.5296(3) 0.7702(4)
C13LA C 0.6197(4) 0.4194(3) 0.8719(4)
C14LA C 0.6090(4) 0.4228(4) 0.8403(4)
C15LA C 0.6229(4) 0.4460(5) 0.8205(3)
C16LA C 0.6473(4) 0.4657(4) 0.8322(4)
C17LA C 0.6579(4) 0.4622(4) 0.8638(4)
C18LA C 0.6441(4) 0.4391(4) 0.8836(3)
C19LA C 0.8102(3) 0.5287(4) 0.7788(4)
O7LA O 0.5592(9) 0.4757(8) 0.5780(7)
C23LA C 0.6301(8) 0.4772(7) 0.7282(7)
C26LA C 0.6482(8) 0.4750(6) 0.7603(7)
C29LA C 0.5964(10) 0.4737(9) 0.6701(10)
C30LA C 0.7433(4) 0.4752(4) 0.7948(6)
C31LA C 0.7098(4) 0.4747(4) 0.8034(6)
C32LA C 0.5865(9) 0.4730(7) 0.6378(8)
Hf3Y Hf 0.96708(7) 0.96708(7) 1.03292(7)
Hf1Z Hf 0.95805(2) 0.45805(2) 0.7500
Hf1AA Hf 1.04195(2) 0.54195(2) 0.7500
O6R O 0.5000 0.5318(5) 0.5497(3)
O6W O 0.5318(5) 0.5497(3) 0.5000
Hf2V Hf 0.80958(3) 1.0000 0.5000
Hf3AA Hf 1.03292(7) 0.96708(7) 0.96708(7)
Hf1F Hf 1.2500 0.04195(2) 0.54195(2)
Hf1K Hf 1.45805(2) 0.2500 0.95805(2)
Hf1Y Hf 0.95805(2) 0.54195(2) 1.2500
Hf1CA Hf 1.2500 0.95805(2) 0.54195(2)
Hf1DA Hf 0.7500 0.95805(2) 0.45805(2)
Hf1EA Hf 0.7500 0.04195(2) 0.54195(2)
Hf1EA_2 Hf 0.7500 1.04195(2) 0.54195(2)
Hf1GA Hf 0.54195(2) 0.2500 0.95805(2)
Hf1GA_2 Hf 0.54195(2) 1.2500 0.95805(2)
Hf1HA Hf 0.45805(2) 0.7500 0.95805(2)
Hf1HA_2 Hf 1.45805(2) 0.7500 0.95805(2)
Hf1IA Hf 0.54195(2) 0.7500 1.04195(2)
Hf2D Hf 0.69042(3) 1.0000 0.5000
Hf2H Hf 0.5000 0.69042(3) 1.0000
Hf2H_2 Hf 1.5000 0.69042(3) 1.0000
Hf2J Hf 0.5000 0.30958(3) 1.0000
Hf2J_2 Hf 1.5000 0.30958(3) 1.0000
Hf2N Hf 1.0000 0.5000 1.19042(3)
Hf2P Hf 0.5000 1.19042(3) 1.0000
Hf2R Hf 0.5000 0.80958(3) 1.0000
Hf2T Hf 1.19042(3) 0.0000 0.5000
Hf2T_2 Hf 1.19042(3) 1.0000 0.5000
Hf2V_2 Hf 0.80958(3) 0.0000 0.5000
O1K O 1.06119(19) 0.4401(2) 0.7958(2)
O1R O 0.7042(2) 0.9401(2) 0.56119(19)
O1T O 1.0599(2) 0.43881(19) 0.7042(2)
O1W O 0.9401(2) 0.56119(19) 0.7042(2)
O1GA O 0.93881(19) 0.4401(2) 0.7958(2)
O1HA O 1.06119(19) 0.5599(2) 0.7958(2)
O1SA O 0.9401(2) 0.43881(19) 0.7042(2)
O1TA O 1.0599(2) 0.56119(19) 0.7042(2)
O2R O 0.5468(2) 0.7828(3) 1.0000
O2V O 0.7828(3) 1.0000 0.4532(2)
O2W O 0.7828(3) 1.0000 0.5468(2)
O3R O 0.5000 0.7762(3) 0.9646(3)
O3V O 0.7762(3) 1.0354(3) 0.5000
O3W O 0.7762(3) 0.9646(3) 0.5000
O4R O 0.5274(2) 0.7522(2) 0.90682(19)
O4W O 0.7522(2) 0.90682(19) 0.5274(2)
O5C O 0.8352(2) 1.0343(2) 0.4683(2)
O5K O 1.0343(2) 0.4683(2) 0.8352(2)
O5T O 1.0317(2) 0.4657(2) 0.6648(2)
O5W O 0.9683(2) 0.5343(2) 0.6648(2)
O5Y O 0.8352(2) 0.9657(2) 0.4683(2)
O5Z_2 O 0.8352(2) 1.0343(2) 0.5317(2)
O5GA O 0.9657(2) 0.4683(2) 0.8352(2)
O5HA O 1.0343(2) 0.5317(2) 0.8352(2)
O5SA O 0.9683(2) 0.4657(2) 0.6648(2)
O5TA O 1.0317(2) 0.5343(2) 0.6648(2)
Hf3A Hf 1.03292(7) 0.03292(7) 0.96708(7)
Hf3L Hf 1.46708(7) 0.46708(7) 0.53292(7)
Hf3Z Hf 0.96708(7) 0.03292(7) 0.96708(7)
Hf3Z_2 Hf 0.96708(7) 1.03292(7) 0.96708(7)
Hf3JA Hf 0.53292(7) 0.53292(7) 0.46708(7)
Hf3LA Hf 0.53292(7) 0.46708(7) 0.53292(7)
Hf3MA Hf 0.46708(7) 0.53292(7) 0.53292(7)
Hf3MA_2 Hf 1.46708(7) 0.53292(7) 0.53292(7)
O6B O 1.0000 0.9503(3) 1.0318(5)
O6E O 0.9682(5) 1.0000 1.0497(3)
O6F O 1.0318(5) 1.0000 0.9503(3)
O6I O 1.0497(3) 0.9682(5) 1.0000
O7R O 0.5243(8) 0.5780(7) 0.5592(9)
O7W O 0.5780(7) 0.5592(9) 0.5243(8)
O7Y O 0.9757(8) 0.9408(9) 1.0780(7)
O7CA O 1.0780(7) 0.9757(8) 0.9408(9)
O7DA O 0.9220(7) 0.9757(8) 1.0592(9)
O7HA O 1.0592(9) 0.9220(7) 0.9757(8)
loop_
_geom_bond_atom_site_label_1
_geom_bond_atom_site_label_2
_geom_bond_site_symmetry_1
_geom_bond_site_symmetry_2
Hf1 O2 1_555 1_555
Hf2 O2 1_555 1_555
O1 C7 1_555 1_555
O2 Hf1Z 1_555 1_555
O3 Hf1 1_555 1_555
O4 Hf1 1_555 1_555
O5 C7 1_555 1_555
C1 C3 1_555 1_555
C2 C3 1_555 1_555
C4 C1 1_555 1_555
C5 C4 1_555 1_555
C6 C2 1_555 1_555
C7 C1 1_555 1_555
C8 O4 1_555 1_555
C9 C11 1_555 1_555
C10 C8 1_555 1_555
C11 C30 1_555 1_555
C12 C10 1_555 1_555
C13 C6 1_555 1_555
C14 C13 1_555 1_555
C15 C14 1_555 1_555
C16 C15 1_555 1_555
C17 C16 1_555 1_555
C18 C13 1_555 1_555
C19 C9 1_555 1_555
Hf3 O6 1_555 1_555
O6 Hf3AA 1_555 1_555
O7 Hf3 1_555 1_555
C20 C22 1_555 1_555
C21 C22 1_555 1_555
C22 C16 1_555 1_555
C23 C25 1_555 1_555
C24 C25 1_555 1_555
C25 C23AA 1_555 1_555
C26 C21 1_555 1_555
C27 C28 1_555 1_555
C28 O7 1_555 1_555
C29 C24 1_555 1_555
C30 C31 1_555 1_555
C31 C20 1_555 1_555
C32 C27 1_555 1_555
O1AA C7AA 1_555 1_555
O4AA C8 1_555 1_555
O5AA C7AA 1_555 1_555
C1AA C3AA 1_555 1_555
C2AA C3AA 1_555 1_555
C4AA C1AA 1_555 1_555
C5AA C4AA 1_555 1_555
C6AA C2AA 1_555 1_555
C7AA C1AA 1_555 1_555
C12AA C10 1_555 1_555
C13AA C6AA 1_555 1_555
C14AA C13AA 1_555 1_555
C15AA C14AA 1_555 1_555
C16AA C22 1_555 1_555
C17AA C16AA 1_555 1_555
C18AA C13AA 1_555 1_555
C19AA C9 1_555 1_555
O7AA C28 1_555 1_555
C23AA C26AA 1_555 1_555
C26AA C21 1_555 1_555
C29AA C24 1_555 1_555
C30AA C11 1_555 1_555
C31AA C20 1_555 1_555
C32AA C27 1_555 1_555
Hf1A O2A 1_555 1_555
O1A C7A 1_555 1_555
O2A Hf2 1_555 1_555
O3A Hf2 1_555 1_555
O4A Hf1A 1_555 1_555
O5A C7A 1_555 1_555
C1A C3A 1_555 1_555
C2A C3A 1_555 1_555
C4A C1A 1_555 1_555
C5A C4A 1_555 1_555
C6A C2A 1_555 1_555
C7A C1A 1_555 1_555
C8A O4A 1_555 1_555
C9A C11A 1_555 1_555
C10A C8A 1_555 1_555
C11A C30A 1_555 1_555
C12A C10A 1_555 1_555
C13A C6A 1_555 1_555
C14A C13A 1_555 1_555
C15A C14A 1_555 1_555
C16A C15A 1_555 1_555
C17A C16A 1_555 1_555
C18A C13A 1_555 1_555
C19A C9A 1_555 1_555
O7A C28A 1_555 1_555
C20A C22A 1_555 1_555
C21A C22A 1_555 1_555
C22A C16A 1_555 1_555
C23A C25A 1_555 1_555
C24A C25A 1_555 1_555
C25A C23Z 1_555 1_555
C26A C21A 1_555 1_555
C27A C28A 1_555 1_555
C28A O7Z 1_555 1_555
C29A C24A 1_555 1_555
C30A C31A 1_555 1_555
C31A C20A 1_555 1_555
C32A C27A 1_555 1_555
O1Z C7Z 1_555 1_555
O4Z C8A 1_555 1_555
O5Z C7Z 1_555 1_555
C1Z C3Z 1_555 1_555
C2Z C3Z 1_555 1_555
C4Z C1Z 1_555 1_555
C5Z C4Z 1_555 1_555
C6Z C2Z 1_555 1_555
C7Z C1Z 1_555 1_555
C12Z C10A 1_555 1_555
C13Z C6Z 1_555 1_555
C14Z C13Z 1_555 1_555
C15Z C14Z 1_555 1_555
C16Z C22A 1_555 1_555
C17Z C16Z 1_555 1_555
C18Z C13Z 1_555 1_555
C19Z C9A 1_555 1_555
O7Z Hf3Z 1_555 1_555
C23Z C26Z 1_555 1_555
C26Z C21A 1_555 1_555
C29Z C24A 1_555 1_555
C30Z C11A 1_555 1_555
C31Z C20A 1_555 1_555
C32Z C27A 1_555 1_555
Hf1D O1 1_555 1_555
O1D C7D 1_555 1_555
O2D Hf1D 1_555 1_555
O3D Hf1D 1_555 1_555
O4D Hf1D 1_555 1_555
O5D C7D 1_555 1_555
C1D C3D 1_555 1_555
C2D C3D 1_555 1_555
C4D C1D 1_555 1_555
C5D C4D 1_555 1_555
C6D C2D 1_555 1_555
C7D C1D 1_555 1_555
C8D O4D 1_555 1_555
C9D C11D 1_555 1_555
C10D C8D 1_555 1_555
C11D C30D 1_555 1_555
C12D C10D 1_555 1_555
C13D C6D 1_555 1_555
C14D C13D 1_555 1_555
C15D C14D 1_555 1_555
C16D C15D 1_555 1_555
C17D C16D 1_555 1_555
C18D C13D 1_555 1_555
C19D C9D 1_555 1_555
O6D Hf3 1_555 1_555
O7D Hf3 1_555 1_555
C20D C22D 1_555 1_555
C21D C22D 1_555 1_555
C22D C16D 1_555 1_555
C23D C25D 1_555 1_555
C24D C25D 1_555 1_555
C25D C23EA 1_555 1_555
C26D C21D 1_555 1_555
C27D C28D 1_555 1_555
C28D O7D 1_555 1_555
C29D C24D 1_555 1_555
C30D C31D 1_555 1_555
C31D C20D 1_555 1_555
C32D C27D 1_555 1_555
O1EA C7EA 1_555 1_555
O4EA C8D 1_555 1_555
O5EA C7EA 1_555 1_555
C1EA C3EA 1_555 1_555
C2EA C3EA 1_555 1_555
C4EA C1EA 1_555 1_555
C5EA C4EA 1_555 1_555
C6EA C2EA 1_555 1_555
C7EA C1EA 1_555 1_555
C12EA C10D 1_555 1_555
C13EA C6EA 1_555 1_555
C14EA C13EA 1_555 1_555
C15EA C14EA 1_555 1_555
C16EA C22D 1_555 1_555
C17EA C16EA 1_555 1_555
C18EA C13EA 1_555 1_555
C19EA C9D 1_555 1_555
O7EA C28D 1_555 1_555
C23EA C26EA 1_555 1_555
C26EA C21D 1_555 1_555
C29EA C24D 1_555 1_555
C30EA C11D 1_555 1_555
C31EA C20D 1_555 1_555
C32EA C27D 1_555 1_555
Hf1H O1D 1_555 1_555
O1H Hf1 1_555 1_555
O2H Hf1H 1_555 1_555
O3H Hf1H 1_555 1_555
O4H Hf1H 1_555 1_555
O5H C7H 1_555 1_555
C1H C3H 1_555 1_555
C2H C3H 1_555 1_555
C4H C1H 1_555 1_555
C5H C4H 1_555 1_555
C6H C2H 1_555 1_555
C7H O1H 1_555 1_555
C8H O4H 1_555 1_555
C9H C11H 1_555 1_555
C10H C8H 1_555 1_555
C11H C30H 1_555 1_555
C12H C10H 1_555 1_555
C13H C6H 1_555 1_555
C14H C13H 1_555 1_555
C15H C14H 1_555 1_555
C16H C15H 1_555 1_555
C17H C16H 1_555 1_555
C18H C13H 1_555 1_555
C19H C9H 1_555 1_555
O6H Hf3 1_555 1_555
O7H Hf3 1_555 1_555
C20H C22H 1_555 1_555
C21H C22H 1_555 1_555
C22H C16H 1_555 1_555
C23H C25H 1_555 1_555
C24H C25H 1_555 1_555
C25H C23IA 1_555 1_555
C26H C21H 1_555 1_555
C27H C28H 1_555 1_555
C28H O7H 1_555 1_555
C29H C24H 1_555 1_555
C30H C31H 1_555 1_555
C31H C20H 1_555 1_555
C32H C27H 1_555 1_555
O1IA C7IA 1_555 1_555
O4IA C8H 1_555 1_555
O5IA C7IA 1_555 1_555
C1IA C3IA 1_555 1_555
C2IA C3IA 1_555 1_555
C4IA C1IA 1_555 1_555
C5IA C4IA 1_555 1_555
C6IA C2IA 1_555 1_555
C7IA C1IA 1_555 1_555
C12IA C10H 1_555 1_555
C13IA C6IA 1_555 1_555
C14IA C13IA 1_555 1_555
C15IA C14IA 1_555 1_555
C16IA C22H 1_555 1_555
C17IA C16IA 1_555 1_555
C18IA C13IA 1_555 1_555
C19IA C9H 1_555 1_555
O7IA C28H 1_555 1_555
C23IA C26IA 1_555 1_555
C26IA C21H 1_555 1_555
C29IA C24H 1_555 1_555
C30IA C11H 1_555 1_555
C31IA C20H 1_555 1_555
C32IA C27H 1_555 1_555
Hf2L O5H 1_555 1_555
O1L C7L 1_555 1_555
O2L Hf1A 1_555 1_555
O3L Hf1A 1_555 1_555
O4L Hf1A 1_555 1_555
O5L C7L 1_555 1_555
C1L C3L 1_555 1_555
C2L C3L 1_555 1_555
C4L C1L 1_555 1_555
C5L C4L 1_555 1_555
C6L C2L 1_555 1_555
C7L C1L 1_555 1_555
C8L O4L 1_555 1_555
C9L C11L 1_555 1_555
C10L C8L 1_555 1_555
C11L C30L 1_555 1_555
C12L C10L 1_555 1_555
C13L C6L 1_555 1_555
C14L C13L 1_555 1_555
C15L C14L 1_555 1_555
C16L C15L 1_555 1_555
C17L C16L 1_555 1_555
C18L C13L 1_555 1_555
C19L C9L 1_555 1_555
O7L C28L 1_555 1_555
C20L C22L 1_555 1_555
C21L C22L 1_555 1_555
C22L C16L 1_555 1_555
C23L C25L 1_555 1_555
C24L C25L 1_555 1_555
C25L C23MA 1_555 1_555
C26L C21L 1_555 1_555
C27L C28L 1_555 1_555
C28L O7MA 1_555 1_555
C29L C24L 1_555 1_555
C30L C31L 1_555 1_555
C31L C20L 1_555 1_555
C32L C27L 1_555 1_555
O1MA C7MA 1_555 1_555
O4MA C8L 1_555 1_555
O5MA C7MA 1_555 1_555
C1MA C3MA 1_555 1_555
C2MA C3MA 1_555 1_555
C4MA C1MA 1_555 1_555
C5MA C4MA 1_555 1_555
C6MA C2MA 1_555 1_555
C7MA C1MA 1_555 1_555
C12MA C10L 1_555 1_555
C13MA C6MA 1_555 1_555
C14MA C13MA 1_555 1_555
C15MA C14MA 1_555 1_555
C16MA C22L 1_555 1_555
C17MA C16MA 1_555 1_555
C18MA C13MA 1_555 1_555
C19MA C9L 1_555 1_555
O7MA Hf3MA_2 1_555 1_555
C23MA C26MA 1_555 1_555
C26MA C21L 1_555 1_555
C29MA C24L 1_555 1_555
C30MA C11L 1_555 1_555
C31MA C20L 1_555 1_555
C32MA C27L 1_555 1_555
O1M Hf1H 1_555 1_555
O2M Hf1 1_555 1_555
O3M Hf1 1_555 1_555
O4M Hf1 1_555 1_555
O5M C7M 1_555 1_555
C1M C3M 1_555 1_555
C2M C3M 1_555 1_555
C4M C1M 1_555 1_555
C5M C4M 1_555 1_555
C6M C2M 1_555 1_555
C7M O1M 1_555 1_555
C8M O4M 1_555 1_555
C9M C11M 1_555 1_555
C10M C8M 1_555 1_555
C11M C30M 1_555 1_555
C12M C10M 1_555 1_555
C13M C6M 1_555 1_555
C14M C13M 1_555 1_555
C15M C14M 1_555 1_555
C16M C15M 1_555 1_555
C17M C16M 1_555 1_555
C18M C13M 1_555 1_555
C19M C9M 1_555 1_555
Hf3M O6M 1_555 1_555
O6M Hf3LA 1_555 1_555
O7M Hf3M 1_555 1_555
C20M C22M 1_555 1_555
C21M C22M 1_555 1_555
C22M C16M 1_555 1_555
C23M C25M 1_555 1_555
C24M C25M 1_555 1_555
C25M C23LA 1_555 1_555
C26M C21M 1_555 1_555
C27M C28M 1_555 1_555
C28M O7M 1_555 1_555
C29M C24M 1_555 1_555
C30M C31M 1_555 1_555
C31M C20M 1_555 1_555
C32M C27M 1_555 1_555
O1LA C7LA 1_555 1_555
O4LA C8M 1_555 1_555
O5LA C7LA 1_555 1_555
C1LA C3LA 1_555 1_555
C2LA C3LA 1_555 1_555
C4LA C1LA 1_555 1_555
C5LA C4LA 1_555 1_555
C6LA C2LA 1_555 1_555
C7LA C1LA 1_555 1_555
C12LA C10M 1_555 1_555
C13LA C6LA 1_555 1_555
C14LA C13LA 1_555 1_555
C15LA C14LA 1_555 1_555
C16LA C22M 1_555 1_555
C17LA C16LA 1_555 1_555
C18LA C13LA 1_555 1_555
C19LA C9M 1_555 1_555
O7LA C28M 1_555 1_555
C23LA C26LA 1_555 1_555
C26LA C21M 1_555 1_555
C29LA C24M 1_555 1_555
C30LA C11M 1_555 1_555
C31LA C20M 1_555 1_555
C32LA C27M 1_555 1_555
Hf3Y O6H 1_555 1_555
Hf1Z O3A 1_555 1_555
Hf1AA O3 1_555 1_555
O6R Hf3M 1_555 1_555
O6W Hf3M 1_555 1_555
Hf2V O5 1_555 1_555
Hf3AA O7AA 1_555 1_555
Hf1F O1A 1_555 1_555
Hf1K O1L 1_555 1_555
Hf1Y O1IA 1_555 1_555
Hf1CA O1AA 1_555 1_555
Hf1DA O2D 1_555 1_555
Hf1EA O1Z 1_555 1_555
Hf1EA_2 O3D 1_555 1_555
Hf1GA O1LA 1_555 1_555
Hf1GA_2 O1EA 1_555 1_555
Hf1HA O2H 1_555 1_555
Hf1HA_2 O1MA 1_555 1_555
Hf1IA O3H 1_555 1_555
Hf2D O2D 1_555 1_555
Hf2H O2H 1_555 1_555
Hf2H_2 O5MA 1_555 1_555
Hf2J O5LA 1_555 1_555
Hf2J_2 O5L 1_555 1_555
Hf2N O5IA 1_555 1_555
Hf2P O5EA 1_555 1_555
Hf2R O5D 1_555 1_555
Hf2T O5A 1_555 1_555
Hf2T_2 O5AA 1_555 1_555
Hf2V_2 O5Z 1_555 1_555
O1K Hf1A 1_555 1_555
O1R Hf1D 1_555 1_555
O1T Hf1A 1_555 1_555
O1W Hf1 1_555 1_555
O1GA Hf1Z 1_555 1_555
O1HA Hf1AA 1_555 1_555
O1SA Hf1Z 1_555 1_555
O1TA Hf1AA 1_555 1_555
O2R Hf1H 1_555 1_555
O2V Hf2V 1_555 1_555
O2W Hf1D 1_555 1_555
O3R Hf1H 1_555 1_555
O3V Hf2V 1_555 1_555
O3W Hf1D 1_555 1_555
O4R Hf1H 1_555 1_555
O4W Hf1D 1_555 1_555
O5C Hf2V 1_555 1_555
O5K Hf2L 1_555 1_555
O5T Hf2 1_555 1_555
O5W Hf2 1_555 1_555
O5Y Hf2V 1_555 1_555
O5Z_2 Hf2V 1_555 1_555
O5GA Hf2L 1_555 1_555
O5HA Hf2L 1_555 1_555
O5SA Hf2 1_555 1_555
O5TA Hf2 1_555 1_555
Hf3A O7A 1_555 1_555
Hf3L O7L 1_555 1_555
Hf3Z_2 O6D 1_555 1_555
Hf3JA O6W 1_555 1_555
Hf3LA O7LA 1_555 1_555
Hf3MA O6R 1_555 1_555
O6B Hf3Y 1_555 1_555
O6E Hf3Y 1_555 1_555
O6F Hf3AA 1_555 1_555
O6I Hf3AA 1_555 1_555
O7R Hf3M 1_555 1_555
O7W Hf3M 1_555 1_555
O7Y Hf3Y 1_555 1_555
O7CA Hf3AA 1_555 1_555
O7DA Hf3Y 1_555 1_555
O7HA Hf3AA 1_555 1_555
Hf2 O3 1_555 1_555
C5 C6 1_555 1_555
C12 C19 1_555 1_555
C17 C18 1_555 1_555
C23 C26 1_555 1_555
C29 C32 1_555 1_555
O4AA Hf1AA 1_555 1_555
C5AA C6AA 1_555 1_555
C12AA C19AA 1_555 1_555
C15AA C16AA 1_555 1_555
C17AA C18AA 1_555 1_555
C29AA C32AA 1_555 1_555
C30AA C31AA 1_555 1_555
Hf1A O3A 1_555 1_555
O2A Hf1AA 1_555 1_555
C5A C6A 1_555 1_555
C12A C19A 1_555 1_555
C17A C18A 1_555 1_555
C23A C26A 1_555 1_555
C29A C32A 1_555 1_555
O4Z Hf1Z 1_555 1_555
C5Z C6Z 1_555 1_555
C12Z C19Z 1_555 1_555
C15Z C16Z 1_555 1_555
C17Z C18Z 1_555 1_555
C29Z C32Z 1_555 1_555
C30Z C31Z 1_555 1_555
O3D Hf2D 1_555 1_555
C5D C6D 1_555 1_555
C12D C19D 1_555 1_555
C17D C18D 1_555 1_555
C23D C26D 1_555 1_555
C29D C32D 1_555 1_555
O4EA Hf1EA_2 1_555 1_555
C5EA C6EA 1_555 1_555
C12EA C19EA 1_555 1_555
C15EA C16EA 1_555 1_555
C17EA C18EA 1_555 1_555
O7EA Hf3Z_2 1_555 1_555
C29EA C32EA 1_555 1_555
C30EA C31EA 1_555 1_555
O3H Hf2H 1_555 1_555
C1H C7H 1_555 1_555
C5H C6H 1_555 1_555
C12H C19H 1_555 1_555
C17H C18H 1_555 1_555
C23H C26H 1_555 1_555
C29H C32H 1_555 1_555
O4IA Hf1IA 1_555 1_555
C5IA C6IA 1_555 1_555
C12IA C19IA 1_555 1_555
C15IA C16IA 1_555 1_555
C17IA C18IA 1_555 1_555
O7IA Hf3Y 1_555 1_555
C29IA C32IA 1_555 1_555
C30IA C31IA 1_555 1_555
Hf2L O2L 1_555 1_555
Hf2L O3L 1_555 1_555
Hf2L O2M 1_555 1_555
Hf2L O3M 1_555 1_555
O2L Hf1Z 1_555 1_555
O3L Hf1AA 1_555 1_555
C5L C6L 1_555 1_555
C12L C19L 1_555 1_555
C17L C18L 1_555 1_555
C23L C26L 1_555 1_555
C29L C32L 1_555 1_555
O4MA Hf1AA 1_555 1_555
C5MA C6MA 1_555 1_555
C12MA C19MA 1_555 1_555
C15MA C16MA 1_555 1_555
C17MA C18MA 1_555 1_555
C29MA C32MA 1_555 1_555
C30MA C31MA 1_555 1_555
O2M Hf1AA 1_555 1_555
O3M Hf1Z 1_555 1_555
O5M Hf2H 1_555 1_555
C1M C7M 1_555 1_555
C5M C6M 1_555 1_555
C12M C19M 1_555 1_555
C17M C18M 1_555 1_555
C23M C26M 1_555 1_555
C29M C32M 1_555 1_555
O4LA Hf1Z 1_555 1_555
C5LA C6LA 1_555 1_555
C12LA C19LA 1_555 1_555
C15LA C16LA 1_555 1_555
C17LA C18LA 1_555 1_555
C29LA C32LA 1_555 1_555
C30LA C31LA 1_555 1_555
Hf2V O2W 1_555 1_555
Hf2V O3W 1_555 1_555
Hf1DA O2V 1_555 1_555
Hf1DA O3W 1_555 1_555
Hf1EA_2 O2W 1_555 1_555
Hf1EA_2 O3V 1_555 1_555
Hf1HA O3R 1_555 1_555
Hf1IA O2R 1_555 1_555
Hf2R O2R 1_555 1_555
Hf2R O3R 1_555 1_555

#END
