
#######################################################################
#
#                 Cambridge Crystallographic Data Centre
#                                CCDC 
#
#######################################################################
#
# If this CIF has been generated from an entry in the Cambridge 
# Structural Database, then it will include bibliographic, chemical, 
# crystal, experimental, refinement or atomic coordinate data resulting 
# from the CCDC's data processing and validation procedures.
#
#######################################################################

data_EWEDUH
_chemical_formula_moiety         'C318 O106 Zr39'
_symmetry_cell_setting           cubic
_symmetry_space_group_name_H-M   'P m -3 n'
_symmetry_Int_Tables_number      223
_space_group_name_Hall           '-P 4n 2 3'
loop_
_symmetry_equiv_pos_site_id
_symmetry_equiv_pos_as_xyz
1 x,y,z
2 -x,-y,z
3 -x,y,-z
4 x,-y,-z
5 z,x,y
6 z,-x,-y
7 -z,-x,y
8 -z,x,-y
9 y,z,x
10 -y,z,-x
11 y,-z,-x
12 -y,-z,x
13 1/2+y,1/2+x,1/2-z
14 1/2-y,1/2-x,1/2-z
15 1/2+y,1/2-x,1/2+z
16 1/2-y,1/2+x,1/2+z
17 1/2+x,1/2+z,1/2-y
18 1/2-x,1/2+z,1/2+y
19 1/2-x,1/2-z,1/2-y
20 1/2+x,1/2-z,1/2+y
21 1/2+z,1/2+y,1/2-x
22 1/2+z,1/2-y,1/2+x
23 1/2-z,1/2+y,1/2+x
24 1/2-z,1/2-y,1/2-x
25 -x,-y,-z
26 x,y,-z
27 x,-y,z
28 -x,y,z
29 -z,-x,-y
30 -z,x,y
31 z,x,-y
32 z,-x,y
33 -y,-z,-x
34 y,-z,x
35 -y,z,x
36 y,z,-x
37 1/2-y,1/2-x,1/2+z
38 1/2+y,1/2+x,1/2+z
39 1/2-y,1/2+x,1/2-z
40 1/2+y,1/2-x,1/2-z
41 1/2-x,1/2-z,1/2+y
42 1/2+x,1/2-z,1/2-y
43 1/2+x,1/2+z,1/2+y
44 1/2-x,1/2+z,1/2-y
45 1/2-z,1/2-y,1/2+x
46 1/2-z,1/2+y,1/2-x
47 1/2+z,1/2-y,1/2-x
48 1/2+z,1/2+y,1/2+x
_cell_length_a                   41.616(4)
_cell_length_b                   41.616(4)
_cell_length_c                   41.616(4)
_cell_angle_alpha                90
_cell_angle_beta                 90
_cell_angle_gamma                90
_cell_volume                     72074.4
loop_
_atom_site_label
_atom_site_type_symbol
_atom_site_fract_x
_atom_site_fract_y
_atom_site_fract_z
Zr1 Zr 0.45797(2) 0.2500 0.04203(2)
Zr2 Zr 0.5000 0.30968(3) 0.0000
O1 O 0.43862(11) 0.29568(12) 0.05976(11)
O2 O 0.5000 0.28309(16) -0.04692(14)
O3 O 0.46414(16) 0.27510(15) 0.0000
O4 O 0.09375(11) 0.47276(11) 0.24779(11)
O5 O 0.46512(13) 0.33535(13) 0.03228(12)
C1 C 0.1404(3) 0.5000 0.2320(3)
C2 C 0.2389(3) 0.5000 0.2049(3)
C3 C 0.1066(2) 0.5000 0.2440(3)
C4 C 0.18810(19) 0.4705(2) 0.2182(2)
C5 C 0.2052(3) 0.5000 0.2136(3)
C6 C 0.15683(19) 0.47130(19) 0.2275(2)
C7 C 0.42467(15) 0.34965(12) 0.06841(13)
C8 C 0.40458(15) 0.34059(11) 0.09351(16)
C9 C 0.38879(15) 0.36389(15) 0.11150(15)
C10 C 0.39310(17) 0.39624(14) 0.10439(16)
C11 C 0.4132(2) 0.40529(11) 0.07930(18)
C12 C 0.42899(19) 0.38200(14) 0.06131(15)
C13 C 0.4444(2) 0.3249(2) 0.05298(19)
C14 C 0.3056(3) 0.5000 0.1898(3)
C15 C 0.3419(3) 0.5000 0.1846(3)
C16 C 0.3571(2) 0.5000 0.2187(3)
C17 C 0.2566(3) 0.4750(3) 0.2002(6)
C18 C 0.3966(3) 0.5000 0.3140(5)
C19 C 0.3828(3) 0.5000 0.2808(4)
C20 C 0.4231(6) 0.5000 0.3761(8)
C21 C 0.4371(9) 0.5000 0.4113(10)
C22 C 0.4158(5) 0.5269(5) 0.3630(5)
C23 C 0.3481(4) 0.4771(4) 0.2414(4)
Zr3 Zr 0.46634(6) 0.53366(6) 0.46634(6)
O6 O 0.45001(17) 0.5000 0.46812(18)
O7 O 0.4481(5) 0.5244(3) 0.4198(4)
C24 C 0.4019(5) 0.5299(5) 0.3306(5)
C25 C 0.2897(3) 0.4761(3) 0.1959(6)
C26 C 0.3619(4) 0.4772(4) 0.2729(4)
C27 C 0.37517(15) 0.41875(12) 0.12602(11)
C28 C 0.35696(15) 0.44326(13) 0.11247(9)
C29 C 0.34534(13) 0.46800(11) 0.13167(12)
C30 C 0.35193(13) 0.46823(11) 0.16442(11)
C31 C 0.37013(13) 0.44372(13) 0.17796(9)
C32 C 0.38175(13) 0.41898(11) 0.15876(12)
O1Z O 0.43862(11) 0.70432(12) 0.05976(11)
O4Z O 0.09375(11) 0.52724(11) 0.24779(11)
O5Z O 0.46512(13) 0.66465(13) 0.03228(12)
C4Z C 0.18810(19) 0.5295(2) 0.2182(2)
C6Z C 0.15683(19) 0.52870(19) 0.2275(2)
C7Z C 0.42467(15) 0.65035(12) 0.06841(13)
C8Z C 0.40458(15) 0.65941(11) 0.09351(16)
C9Z C 0.38879(15) 0.63611(15) 0.11150(15)
C10Z C 0.39310(17) 0.60376(14) 0.10439(16)
C11Z C 0.4132(2) 0.59471(11) 0.07930(18)
C12Z C 0.42899(19) 0.61800(14) 0.06131(15)
C13Z C 0.4444(2) 0.6751(2) 0.05298(19)
C17Z C 0.2566(3) 0.5250(3) 0.2002(6)
C22Z C 0.4158(5) 0.4731(5) 0.3630(5)
C23Z C 0.3481(4) 0.5229(4) 0.2414(4)
O7Z O 0.4481(5) 0.4756(3) 0.4198(4)
C24Z C 0.4019(5) 0.4701(5) 0.3306(5)
C25Z C 0.2897(3) 0.5239(3) 0.1959(6)
C26Z C 0.3619(4) 0.5228(4) 0.2729(4)
C27Z C 0.37517(15) 0.58125(12) 0.12602(11)
C28Z C 0.35696(15) 0.55674(13) 0.11247(9)
C29Z C 0.34534(13) 0.53200(11) 0.13167(12)
C30Z C 0.35193(13) 0.53177(11) 0.16442(11)
C31Z C 0.37013(13) 0.55628(13) 0.17796(9)
C32Z C 0.38175(13) 0.58102(11) 0.15876(12)
Zr2A Zr 0.5000 0.69032(3) 0.0000
O1A O 0.56138(11) 0.70432(12) 0.05976(11)
O2A O 0.5000 0.71691(16) -0.04692(14)
O3A O 0.53586(16) 0.72490(15) 0.0000
O4A O 0.90625(11) 0.52724(11) 0.24779(11)
O5A O 0.53488(13) 0.66465(13) 0.03228(12)
C1A C 0.8596(3) 0.5000 0.2320(3)
C2A C 0.7611(3) 0.5000 0.2049(3)
C3A C 0.8934(2) 0.5000 0.2440(3)
C4A C 0.81190(19) 0.5295(2) 0.2182(2)
C5A C 0.7948(3) 0.5000 0.2136(3)
C6A C 0.84317(19) 0.52870(19) 0.2275(2)
C7A C 0.57533(15) 0.65035(12) 0.06841(13)
C8A C 0.59542(15) 0.65941(11) 0.09351(16)
C9A C 0.61121(15) 0.63611(15) 0.11150(15)
C10A C 0.60690(17) 0.60376(14) 0.10439(16)
C11A C 0.5868(2) 0.59471(11) 0.07930(18)
C12A C 0.57101(19) 0.61800(14) 0.06131(15)
C13A C 0.5556(2) 0.6751(2) 0.05298(19)
C14A C 0.6944(3) 0.5000 0.1898(3)
C15A C 0.6581(3) 0.5000 0.1846(3)
C16A C 0.6429(2) 0.5000 0.2187(3)
C17A C 0.7434(3) 0.5250(3) 0.2002(6)
C18A C 0.6034(3) 0.5000 0.3140(5)
C19A C 0.6172(3) 0.5000 0.2808(4)
C20A C 0.5769(6) 0.5000 0.3761(8)
C21A C 0.5629(9) 0.5000 0.4113(10)
C22A C 0.5842(5) 0.4731(5) 0.3630(5)
C23A C 0.6519(4) 0.5229(4) 0.2414(4)
Zr3A Zr 0.53366(6) 0.46634(6) 0.46634(6)
O6A O 0.54999(17) 0.5000 0.46812(18)
O7A O 0.5519(5) 0.4756(3) 0.4198(4)
C24A C 0.5981(5) 0.4701(5) 0.3306(5)
C25A C 0.7103(3) 0.5239(3) 0.1959(6)
C26A C 0.6381(4) 0.5228(4) 0.2729(4)
C27A C 0.62483(15) 0.58125(12) 0.12602(11)
C28A C 0.64304(15) 0.55674(13) 0.11247(9)
C29A C 0.65466(13) 0.53200(11) 0.13167(12)
C30A C 0.64807(13) 0.53177(11) 0.16442(11)
C31A C 0.62987(13) 0.55628(13) 0.17796(9)
C32A C 0.61825(13) 0.58102(11) 0.15876(12)
O1AA O 0.56138(11) 0.29568(12) 0.05976(11)
O4AA O 0.90625(11) 0.47276(11) 0.24779(11)
O5AA O 0.53488(13) 0.33535(13) 0.03228(12)
C4AA C 0.81190(19) 0.4705(2) 0.2182(2)
C6AA C 0.84317(19) 0.47130(19) 0.2275(2)
C7AA C 0.57533(15) 0.34965(12) 0.06841(13)
C8AA C 0.59542(15) 0.34059(11) 0.09351(16)
C9AA C 0.61121(15) 0.36389(15) 0.11150(15)
C10AA C 0.60690(17) 0.39624(14) 0.10439(16)
C11AA C 0.5868(2) 0.40529(11) 0.07930(18)
C12AA C 0.57101(19) 0.38200(14) 0.06131(15)
C13AA C 0.5556(2) 0.3249(2) 0.05298(19)
C17AA C 0.7434(3) 0.4750(3) 0.2002(6)
C22AA C 0.5842(5) 0.5269(5) 0.3630(5)
C23AA C 0.6519(4) 0.4771(4) 0.2414(4)
O7AA O 0.5519(5) 0.5244(3) 0.4198(4)
C24AA C 0.5981(5) 0.5299(5) 0.3306(5)
C25AA C 0.7103(3) 0.4761(3) 0.1959(6)
C26AA C 0.6381(4) 0.4772(4) 0.2729(4)
C27AA C 0.62483(15) 0.41875(12) 0.12602(11)
C28AA C 0.64304(15) 0.44326(13) 0.11247(9)
C29AA C 0.65466(13) 0.46800(11) 0.13167(12)
C30AA C 0.64807(13) 0.46823(11) 0.16442(11)
C31AA C 0.62987(13) 0.44372(13) 0.17796(9)
C32AA C 0.61825(13) 0.41898(11) 0.15876(12)
Zr1B Zr 0.54203(2) 0.2500 -0.04203(2)
O1B O 0.56138(11) 0.29568(12) -0.05976(11)
O2B O 0.5000 0.28309(16) 0.04692(14)
O3B O 0.53586(16) 0.27510(15) 0.0000
O4B O 0.90625(11) 0.47276(11) -0.24779(11)
O5B O 0.53488(13) 0.33535(13) -0.03228(12)
C1B C 0.8596(3) 0.5000 -0.2320(3)
C2B C 0.7611(3) 0.5000 -0.2049(3)
C3B C 0.8934(2) 0.5000 -0.2440(3)
C4B C 0.81190(19) 0.4705(2) -0.2182(2)
C5B C 0.7948(3) 0.5000 -0.2136(3)
C6B C 0.84317(19) 0.47130(19) -0.2275(2)
C7B C 0.57533(15) 0.34965(12) -0.06841(13)
C8B C 0.59542(15) 0.34059(11) -0.09351(16)
C9B C 0.61121(15) 0.36389(15) -0.11150(15)
C10B C 0.60690(17) 0.39624(14) -0.10439(16)
C11B C 0.5868(2) 0.40529(11) -0.07930(18)
C12B C 0.57101(19) 0.38200(14) -0.06131(15)
C13B C 0.5556(2) 0.3249(2) -0.05298(19)
C14B C 0.6944(3) 0.5000 -0.1898(3)
C15B C 0.6581(3) 0.5000 -0.1846(3)
C16B C 0.6429(2) 0.5000 -0.2187(3)
C17B C 0.7434(3) 0.4750(3) -0.2002(6)
C18B C 0.6034(3) 0.5000 -0.3140(5)
C19B C 0.6172(3) 0.5000 -0.2808(4)
C20B C 0.5769(6) 0.5000 -0.3761(8)
C21B C 0.5629(9) 0.5000 -0.4113(10)
C22B C 0.5842(5) 0.5269(5) -0.3630(5)
C23B C 0.6519(4) 0.4771(4) -0.2414(4)
O7B O 0.5519(5) 0.5244(3) -0.4198(4)
C24B C 0.5981(5) 0.5299(5) -0.3306(5)
C25B C 0.7103(3) 0.4761(3) -0.1959(6)
C26B C 0.6381(4) 0.4772(4) -0.2729(4)
C27B C 0.62483(15) 0.41875(12) -0.12602(11)
C28B C 0.64304(15) 0.44326(13) -0.11247(9)
C29B C 0.65466(13) 0.46800(11) -0.13167(12)
C30B C 0.64807(13) 0.46823(11) -0.16442(11)
C31B C 0.62987(13) 0.44372(13) -0.17796(9)
C32B C 0.61825(13) 0.41898(11) -0.15876(12)
O1X O 0.56138(11) 0.70432(12) -0.05976(11)
O4X O 0.90625(11) 0.52724(11) -0.24779(11)
O5X O 0.53488(13) 0.66465(13) -0.03228(12)
C4X C 0.81190(19) 0.5295(2) -0.2182(2)
C6X C 0.84317(19) 0.52870(19) -0.2275(2)
C7X C 0.57533(15) 0.65035(12) -0.06841(13)
C8X C 0.59542(15) 0.65941(11) -0.09351(16)
C9X C 0.61121(15) 0.63611(15) -0.11150(15)
C10X C 0.60690(17) 0.60376(14) -0.10439(16)
C11X C 0.5868(2) 0.59471(11) -0.07930(18)
C12X C 0.57101(19) 0.61800(14) -0.06131(15)
C13X C 0.5556(2) 0.6751(2) -0.05298(19)
C17X C 0.7434(3) 0.5250(3) -0.2002(6)
C22X C 0.5842(5) 0.4731(5) -0.3630(5)
C23X C 0.6519(4) 0.5229(4) -0.2414(4)
O7X O 0.5519(5) 0.4756(3) -0.4198(4)
C24X C 0.5981(5) 0.4701(5) -0.3306(5)
C25X C 0.7103(3) 0.5239(3) -0.1959(6)
C26X C 0.6381(4) 0.5228(4) -0.2729(4)
C27X C 0.62483(15) 0.58125(12) -0.12602(11)
C28X C 0.64304(15) 0.55674(13) -0.11247(9)
C29X C 0.65466(13) 0.53200(11) -0.13167(12)
C30X C 0.64807(13) 0.53177(11) -0.16442(11)
C31X C 0.62987(13) 0.55628(13) -0.17796(9)
C32X C 0.61825(13) 0.58102(11) -0.15876(12)
O1C O 0.43862(11) 0.70432(12) -0.05976(11)
O2C O 0.5000 0.71691(16) 0.04692(14)
O3C O 0.46414(16) 0.72490(15) 0.0000
O4C O 0.09375(11) 0.52724(11) -0.24779(11)
O5C O 0.46512(13) 0.66465(13) -0.03228(12)
C1C C 0.1404(3) 0.5000 -0.2320(3)
C2C C 0.2389(3) 0.5000 -0.2049(3)
C3C C 0.1066(2) 0.5000 -0.2440(3)
C4C C 0.18810(19) 0.5295(2) -0.2182(2)
C5C C 0.2052(3) 0.5000 -0.2136(3)
C6C C 0.15683(19) 0.52870(19) -0.2275(2)
C7C C 0.42467(15) 0.65035(12) -0.06841(13)
C8C C 0.40458(15) 0.65941(11) -0.09351(16)
C9C C 0.38879(15) 0.63611(15) -0.11150(15)
C10C C 0.39310(17) 0.60376(14) -0.10439(16)
C11C C 0.4132(2) 0.59471(11) -0.07930(18)
C12C C 0.42899(19) 0.61800(14) -0.06131(15)
C13C C 0.4444(2) 0.6751(2) -0.05298(19)
C14C C 0.3056(3) 0.5000 -0.1898(3)
C15C C 0.3419(3) 0.5000 -0.1846(3)
C16C C 0.3571(2) 0.5000 -0.2187(3)
C17C C 0.2566(3) 0.5250(3) -0.2002(6)
C18C C 0.3966(3) 0.5000 -0.3140(5)
C19C C 0.3828(3) 0.5000 -0.2808(4)
C20C C 0.4231(6) 0.5000 -0.3761(8)
C21C C 0.4371(9) 0.5000 -0.4113(10)
C22C C 0.4158(5) 0.4731(5) -0.3630(5)
C23C C 0.3481(4) 0.5229(4) -0.2414(4)
O7C O 0.4481(5) 0.4756(3) -0.4198(4)
C24C C 0.4019(5) 0.4701(5) -0.3306(5)
C25C C 0.2897(3) 0.5239(3) -0.1959(6)
C26C C 0.3619(4) 0.5228(4) -0.2729(4)
C27C C 0.37517(15) 0.58125(12) -0.12602(11)
C28C C 0.35696(15) 0.55674(13) -0.11247(9)
C29C C 0.34534(13) 0.53200(11) -0.13167(12)
C30C C 0.35193(13) 0.53177(11) -0.16442(11)
C31C C 0.37013(13) 0.55628(13) -0.17796(9)
C32C C 0.38175(13) 0.58102(11) -0.15876(12)
O1Y O 0.43862(11) 0.29568(12) -0.05976(11)
O4Y O 0.09375(11) 0.47276(11) -0.24779(11)
O5Y O 0.46512(13) 0.33535(13) -0.03228(12)
C4Y C 0.18810(19) 0.4705(2) -0.2182(2)
C6Y C 0.15683(19) 0.47130(19) -0.2275(2)
C7Y C 0.42467(15) 0.34965(12) -0.06841(13)
C8Y C 0.40458(15) 0.34059(11) -0.09351(16)
C9Y C 0.38879(15) 0.36389(15) -0.11150(15)
C10Y C 0.39310(17) 0.39624(14) -0.10439(16)
C11Y C 0.4132(2) 0.40529(11) -0.07930(18)
C12Y C 0.42899(19) 0.38200(14) -0.06131(15)
C13Y C 0.4444(2) 0.3249(2) -0.05298(19)
C17Y C 0.2566(3) 0.4750(3) -0.2002(6)
C22Y C 0.4158(5) 0.5269(5) -0.3630(5)
C23Y C 0.3481(4) 0.4771(4) -0.2414(4)
O7Y O 0.4481(5) 0.5244(3) -0.4198(4)
C24Y C 0.4019(5) 0.5299(5) -0.3306(5)
C25Y C 0.2897(3) 0.4761(3) -0.1959(6)
C26Y C 0.3619(4) 0.4772(4) -0.2729(4)
C27Y C 0.37517(15) 0.41875(12) -0.12602(11)
C28Y C 0.35696(15) 0.44326(13) -0.11247(9)
C29Y C 0.34534(13) 0.46800(11) -0.13167(12)
C30Y C 0.35193(13) 0.46823(11) -0.16442(11)
C31Y C 0.37013(13) 0.44372(13) -0.17796(9)
C32Y C 0.38175(13) 0.41898(11) -0.15876(12)
Zr1D Zr 0.04203(2) 0.45797(2) 0.2500
O1D O 0.05976(11) 0.43862(11) 0.29568(12)
O3D O 0.0000 0.46414(16) 0.27510(15)
O4D O 0.24779(11) 0.09375(11) 0.47276(11)
O5D O 0.03228(12) 0.46512(13) 0.33535(13)
C1D C 0.2320(3) 0.1404(3) 0.5000
C2D C 0.2049(3) 0.2389(3) 0.5000
C3D C 0.2440(3) 0.1066(2) 0.5000
C4D C 0.2182(2) 0.18810(19) 0.4705(2)
C5D C 0.2136(3) 0.2052(3) 0.5000
C6D C 0.2275(2) 0.15683(19) 0.47130(19)
C7D C 0.06841(13) 0.42467(15) 0.34965(12)
C8D C 0.09351(16) 0.40458(15) 0.34059(11)
C9D C 0.11150(15) 0.38879(15) 0.36389(15)
C10D C 0.10439(16) 0.39310(17) 0.39624(14)
C11D C 0.07930(18) 0.4132(2) 0.40529(11)
C12D C 0.06131(15) 0.42899(19) 0.38200(14)
C13D C 0.05298(19) 0.4444(2) 0.3249(2)
C14D C 0.1898(3) 0.3056(3) 0.5000
C15D C 0.1846(3) 0.3419(3) 0.5000
C16D C 0.2187(3) 0.3571(2) 0.5000
C17D C 0.2002(6) 0.2566(3) 0.4750(3)
C18D C 0.3140(5) 0.3966(3) 0.5000
C19D C 0.2808(4) 0.3828(3) 0.5000
C20D C 0.3761(8) 0.4231(6) 0.5000
C21D C 0.4113(10) 0.4371(9) 0.5000
C22D C 0.3630(5) 0.4158(5) 0.5269(5)
C23D C 0.2414(4) 0.3481(4) 0.4771(4)
Zr3C Zr 0.46634(6) 0.46634(6) 0.53366(6)
O6D O 0.46812(18) 0.45001(17) 0.5000
O7D O 0.4198(4) 0.4481(5) 0.5244(3)
C24D C 0.3306(5) 0.4019(5) 0.5299(5)
C25D C 0.1959(6) 0.2897(3) 0.4761(3)
C26D C 0.2729(4) 0.3619(4) 0.4772(4)
C27D C 0.12602(11) 0.37517(15) 0.41875(12)
C28D C 0.11247(9) 0.35696(15) 0.44326(13)
C29D C 0.13167(12) 0.34534(13) 0.46800(11)
C30D C 0.16442(11) 0.35193(13) 0.46823(11)
C31D C 0.17796(9) 0.37013(13) 0.44372(13)
C32D C 0.15876(12) 0.38175(13) 0.41898(11)
O1DA O 0.05976(11) 0.43862(11) 0.70432(12)
O4DA O 0.24779(11) 0.09375(11) 0.52724(11)
O5DA O 0.03228(12) 0.46512(13) 0.66465(13)
C4DA C 0.2182(2) 0.18810(19) 0.5295(2)
C6DA C 0.2275(2) 0.15683(19) 0.52870(19)
C7DA C 0.06841(13) 0.42467(15) 0.65035(12)
C8DA C 0.09351(16) 0.40458(15) 0.65941(11)
C9DA C 0.11150(15) 0.38879(15) 0.63611(15)
C10DA C 0.10439(16) 0.39310(17) 0.60376(14)
C11DA C 0.07930(18) 0.4132(2) 0.59471(11)
C12DA C 0.06131(15) 0.42899(19) 0.61800(14)
C13DA C 0.05298(19) 0.4444(2) 0.6751(2)
C17DA C 0.2002(6) 0.2566(3) 0.5250(3)
C22DA C 0.3630(5) 0.4158(5) 0.4731(5)
C23DA C 0.2414(4) 0.3481(4) 0.5229(4)
O7DA O 0.4198(4) 0.4481(5) 0.4756(3)
C24DA C 0.3306(5) 0.4019(5) 0.4701(5)
C25DA C 0.1959(6) 0.2897(3) 0.5239(3)
C26DA C 0.2729(4) 0.3619(4) 0.5228(4)
C27DA C 0.12602(11) 0.37517(15) 0.58125(12)
C28DA C 0.11247(9) 0.35696(15) 0.55674(13)
C29DA C 0.13167(12) 0.34534(13) 0.53200(11)
C30DA C 0.16442(11) 0.35193(13) 0.53177(11)
C31DA C 0.17796(9) 0.37013(13) 0.55628(13)
C32DA C 0.15876(12) 0.38175(13) 0.58102(11)
O1E O 0.05976(11) 0.56138(11) 0.70432(12)
O4E O 0.24779(11) 0.90625(11) 0.52724(11)
O5E O 0.03228(12) 0.53488(13) 0.66465(13)
C1E C 0.2320(3) 0.8596(3) 0.5000
C2E C 0.2049(3) 0.7611(3) 0.5000
C3E C 0.2440(3) 0.8934(2) 0.5000
C4E C 0.2182(2) 0.81190(19) 0.5295(2)
C5E C 0.2136(3) 0.7948(3) 0.5000
C6E C 0.2275(2) 0.84317(19) 0.52870(19)
C7E C 0.06841(13) 0.57533(15) 0.65035(12)
C8E C 0.09351(16) 0.59542(15) 0.65941(11)
C9E C 0.11150(15) 0.61121(15) 0.63611(15)
C10E C 0.10439(16) 0.60690(17) 0.60376(14)
C11E C 0.07930(18) 0.5868(2) 0.59471(11)
C12E C 0.06131(15) 0.57101(19) 0.61800(14)
C13E C 0.05298(19) 0.5556(2) 0.6751(2)
C14E C 0.1898(3) 0.6944(3) 0.5000
C15E C 0.1846(3) 0.6581(3) 0.5000
C16E C 0.2187(3) 0.6429(2) 0.5000
C17E C 0.2002(6) 0.7434(3) 0.5250(3)
C18E C 0.3140(5) 0.6034(3) 0.5000
C19E C 0.2808(4) 0.6172(3) 0.5000
C20E C 0.3761(8) 0.5769(6) 0.5000
C21E C 0.4113(10) 0.5629(9) 0.5000
C22E C 0.3630(5) 0.5842(5) 0.4731(5)
C23E C 0.2414(4) 0.6519(4) 0.5229(4)
O6E O 0.46812(18) 0.54999(17) 0.5000
O7E O 0.4198(4) 0.5519(5) 0.4756(3)
C24E C 0.3306(5) 0.5981(5) 0.4701(5)
C25E C 0.1959(6) 0.7103(3) 0.5239(3)
C26E C 0.2729(4) 0.6381(4) 0.5228(4)
C27E C 0.12602(11) 0.62483(15) 0.58125(12)
C28E C 0.11247(9) 0.64304(15) 0.55674(13)
C29E C 0.13167(12) 0.65466(13) 0.53200(11)
C30E C 0.16442(11) 0.64807(13) 0.53177(11)
C31E C 0.17796(9) 0.62987(13) 0.55628(13)
C32E C 0.15876(12) 0.61825(13) 0.58102(11)
O1EA O 0.05976(11) 0.56138(11) 0.29568(12)
O4EA O 0.24779(11) 0.90625(11) 0.47276(11)
O5EA O 0.03228(12) 0.53488(13) 0.33535(13)
C4EA C 0.2182(2) 0.81190(19) 0.4705(2)
C6EA C 0.2275(2) 0.84317(19) 0.47130(19)
C7EA C 0.06841(13) 0.57533(15) 0.34965(12)
C8EA C 0.09351(16) 0.59542(15) 0.34059(11)
C9EA C 0.11150(15) 0.61121(15) 0.36389(15)
C10EA C 0.10439(16) 0.60690(17) 0.39624(14)
C11EA C 0.07930(18) 0.5868(2) 0.40529(11)
C12EA C 0.06131(15) 0.57101(19) 0.38200(14)
C13EA C 0.05298(19) 0.5556(2) 0.3249(2)
C17EA C 0.2002(6) 0.7434(3) 0.4750(3)
C22EA C 0.3630(5) 0.5842(5) 0.5269(5)
C23EA C 0.2414(4) 0.6519(4) 0.4771(4)
O7EA O 0.4198(4) 0.5519(5) 0.5244(3)
C24EA C 0.3306(5) 0.5981(5) 0.5299(5)
C25EA C 0.1959(6) 0.7103(3) 0.4761(3)
C26EA C 0.2729(4) 0.6381(4) 0.4772(4)
C27EA C 0.12602(11) 0.62483(15) 0.41875(12)
C28EA C 0.11247(9) 0.64304(15) 0.44326(13)
C29EA C 0.13167(12) 0.65466(13) 0.46800(11)
C30EA C 0.16442(11) 0.64807(13) 0.46823(11)
C31EA C 0.17796(9) 0.62987(13) 0.44372(13)
C32EA C 0.15876(12) 0.61825(13) 0.41898(11)
Zr1H Zr 0.2500 0.04203(2) 0.45797(2)
Zr1Y Zr 0.45797(2) 0.2500 -0.04203(2)
O6K O 0.5000 0.53188(18) 0.45001(17)
O6G O 0.53188(18) 0.45001(17) 0.5000
O2U O 0.45308(14) 0.21691(16) 0.0000
O2W O 0.54692(14) 0.21691(16) 0.0000
O3W O 0.5000 0.22490(15) 0.03586(16)
Zr3Z Zr 0.46634(6) 0.46634(6) 0.46634(6)
Zr2D Zr 0.0000 0.5000 0.30968(3)
Zr1Z Zr 0.45797(2) 0.7500 0.04203(2)
Zr1A Zr 0.54203(2) 0.7500 0.04203(2)
Zr1C Zr 0.45797(2) 0.7500 -0.04203(2)
Zr1E Zr 0.04203(2) 0.54203(2) -0.2500
Zr1E_2 Zr 0.04203(2) 0.54203(2) 0.7500
Zr1F Zr 0.95797(2) 0.54203(2) 0.2500
Zr1G Zr 0.95797(2) 0.45797(2) -0.2500
Zr1J Zr 0.2500 0.95797(2) 0.54203(2)
Zr1X Zr 0.54203(2) 0.7500 -0.04203(2)
Zr1AA Zr 0.54203(2) 0.2500 0.04203(2)
Zr1BA Zr 0.95797(2) 0.54203(2) -0.2500
Zr1CA Zr -0.04203(2) 0.45797(2) 0.2500
Zr1CA_2 Zr 0.95797(2) 0.45797(2) 0.2500
Zr1DA Zr 0.04203(2) 0.45797(2) -0.2500
Zr1DA_2 Zr 0.04203(2) 0.45797(2) 0.7500
Zr1EA Zr 0.04203(2) 0.54203(2) 0.2500
Zr1GA Zr 0.2500 0.95797(2) 0.45797(2)
Zr1IA Zr 0.2500 0.04203(2) 0.54203(2)
Zr2E Zr 0.0000 0.5000 0.69032(3)
Zr2U Zr 0.5000 0.19032(3) 0.0000
O1H O 0.29568(12) 0.05976(11) 0.43862(11)
O1M O 0.20432(12) 0.06138(11) 0.44024(11)
O1R O 0.06138(11) 0.44024(11) 0.20432(12)
O1U O 0.55976(11) 0.20432(12) -0.06138(11)
O1W O 0.44024(11) 0.20432(12) 0.06138(11)
O1RA O 0.44024(11) 0.20432(12) -0.06138(11)
O1SA O 0.44024(11) 0.79568(12) 0.06138(11)
O2D O -0.04692(14) 0.5000 0.28309(16)
O2F O 0.04692(14) 0.5000 0.28309(16)
O2J O 0.28309(16) 0.04692(14) 0.5000
O2O O 0.21691(16) 0.0000 0.45308(14)
O2P O 0.0000 0.45308(14) 0.21691(16)
O2T O 0.45308(14) 0.78309(16) 0.0000
O3F O 0.0000 0.53586(16) 0.27510(15)
O3H O 0.27510(15) 0.0000 0.46414(16)
O3M O 0.22490(15) 0.03586(16) 0.5000
O3R O 0.03586(16) 0.5000 0.22490(15)
O3T O 0.5000 0.77510(15) 0.03586(16)
O3U O 0.5000 0.22490(15) -0.03586(16)
O4H O 0.47276(11) 0.24779(11) 0.09375(11)
O4I O 0.52724(11) 0.24779(11) -0.09375(11)
O4M O 0.02724(11) 0.40625(11) 0.25221(11)
O4R O 0.40625(11) 0.25221(11) 0.02724(11)
O4S O 0.59375(11) 0.25221(11) -0.02724(11)
O4W O 0.25221(11) 0.02724(11) 0.40625(11)
O4GA O 0.47276(11) 0.75221(11) 0.09375(11)
O4IA O 0.47276(11) 0.24779(11) -0.09375(11)
O4NA O 0.40625(11) 0.25221(11) -0.02724(11)
O4QA O 0.40625(11) 0.74779(11) 0.02724(11)
O5F O -0.03228(12) 0.53488(13) 0.33535(13)
O5CA O -0.03228(12) 0.46512(13) 0.33535(13)
Zr3B Zr 0.53366(6) 0.53366(6) -0.46634(6)
Zr3C_2 Zr 0.46634(6) 0.46634(6) -0.46634(6)
Zr3X Zr 0.53366(6) 0.46634(6) -0.46634(6)
Zr3X_2 Zr 0.53366(6) 0.46634(6) 0.53366(6)
Zr3Y Zr 0.46634(6) 0.53366(6) -0.46634(6)
Zr3Y_2 Zr 0.46634(6) 0.53366(6) 0.53366(6)
Zr3AA Zr 0.53366(6) 0.53366(6) 0.46634(6)
O6C O 0.45001(17) 0.5000 0.53188(18)
O6H O 0.5000 0.46812(18) 0.45001(17)
O6I O 0.5000 0.46812(18) 0.54999(17)
O7C_2 O 0.4481(5) 0.4756(3) 0.5802(4)
O7G O 0.5802(4) 0.4481(5) 0.4756(3)
O7H O 0.5244(3) 0.4198(4) 0.4481(5)
O7I O 0.4756(3) 0.4198(4) 0.5519(5)
O7K O 0.4756(3) 0.5802(4) 0.4481(5)
O7HA O 0.4756(3) 0.4198(4) 0.4481(5)
loop_
_geom_bond_atom_site_label_1
_geom_bond_atom_site_label_2
_geom_bond_site_symmetry_1
_geom_bond_site_symmetry_2
Zr1 O1 1_555 1_555
Zr2 O2 1_555 1_555
O1 C13 1_555 1_555
O2 Zr1B 1_555 1_555
O3 Zr1 1_555 1_555
O4 C3 1_555 1_555
O5 Zr2 1_555 1_555
C1 C3 1_555 1_555
C2 C5 1_555 1_555
C3 O4Z 1_555 1_555
C4 C5 1_555 1_555
C5 C4Z 1_555 1_555
C6 C1 1_555 1_555
C7 C8 1_555 1_555
C8 C9 1_555 1_555
C9 C10 1_555 1_555
C10 C11 1_555 1_555
C11 C12 1_555 1_555
C12 C7 1_555 1_555
C13 O5 1_555 1_555
C14 C15 1_555 1_555
C15 C16 1_555 1_555
C16 C23 1_555 1_555
C17 C2 1_555 1_555
C18 C19 1_555 1_555
C19 C26 1_555 1_555
C20 C21 1_555 1_555
C21 O7 1_555 1_555
C22 C20 1_555 1_555
C23 C26 1_555 1_555
Zr3 O6 1_555 1_555
O6 Zr3Z 1_555 1_555
O7 Zr3 1_555 1_555
C24 C18 1_555 1_555
C25 C14 1_555 1_555
C27 C10 1_555 1_555
C28 C27 1_555 1_555
C29 C28 1_555 1_555
C30 C15 1_555 1_555
C31 C30 1_555 1_555
C32 C27 1_555 1_555
O1Z C13Z 1_555 1_555
O4Z Zr1EA 1_555 1_555
O5Z C13Z 1_555 1_555
C4Z C6Z 1_555 1_555
C6Z C1 1_555 1_555
C7Z C8Z 1_555 1_555
C8Z C9Z 1_555 1_555
C9Z C10Z 1_555 1_555
C10Z C11Z 1_555 1_555
C11Z C12Z 1_555 1_555
C12Z C7Z 1_555 1_555
C13Z C7Z 1_555 1_555
C17Z C2 1_555 1_555
C22Z C20 1_555 1_555
C23Z C16 1_555 1_555
O7Z C21 1_555 1_555
C24Z C18 1_555 1_555
C25Z C14 1_555 1_555
C26Z C19 1_555 1_555
C27Z C10Z 1_555 1_555
C28Z C27Z 1_555 1_555
C29Z C28Z 1_555 1_555
C30Z C15 1_555 1_555
C31Z C30Z 1_555 1_555
C32Z C27Z 1_555 1_555
Zr2A O5Z 1_555 1_555
O1A C13A 1_555 1_555
O2A Zr2A 1_555 1_555
O3A Zr2A 1_555 1_555
O4A C3A 1_555 1_555
O5A Zr2A 1_555 1_555
C1A C3A 1_555 1_555
C2A C5A 1_555 1_555
C3A O4AA 1_555 1_555
C4A C5A 1_555 1_555
C5A C4AA 1_555 1_555
C6A C1A 1_555 1_555
C7A C8A 1_555 1_555
C8A C9A 1_555 1_555
C9A C10A 1_555 1_555
C10A C11A 1_555 1_555
C11A C12A 1_555 1_555
C12A C7A 1_555 1_555
C13A O5A 1_555 1_555
C14A C15A 1_555 1_555
C15A C16A 1_555 1_555
C16A C23A 1_555 1_555
C17A C2A 1_555 1_555
C18A C19A 1_555 1_555
C19A C26A 1_555 1_555
C20A C21A 1_555 1_555
C21A O7A 1_555 1_555
C22A C20A 1_555 1_555
C23A C26A 1_555 1_555
Zr3A O6A 1_555 1_555
O6A Zr3AA 1_555 1_555
O7A Zr3A 1_555 1_555
C24A C18A 1_555 1_555
C25A C14A 1_555 1_555
C27A C10A 1_555 1_555
C28A C27A 1_555 1_555
C29A C28A 1_555 1_555
C30A C15A 1_555 1_555
C31A C30A 1_555 1_555
C32A C27A 1_555 1_555
O1AA C13AA 1_555 1_555
O4AA Zr1CA_2 1_555 1_555
O5AA Zr2 1_555 1_555
C4AA C6AA 1_555 1_555
C6AA C1A 1_555 1_555
C7AA C8AA 1_555 1_555
C8AA C9AA 1_555 1_555
C9AA C10AA 1_555 1_555
C10AA C11AA 1_555 1_555
C11AA C12AA 1_555 1_555
C12AA C7AA 1_555 1_555
C13AA O5AA 1_555 1_555
C17AA C2A 1_555 1_555
C22AA C20A 1_555 1_555
C23AA C16A 1_555 1_555
O7AA C21A 1_555 1_555
C24AA C18A 1_555 1_555
C25AA C14A 1_555 1_555
C26AA C19A 1_555 1_555
C27AA C10AA 1_555 1_555
C28AA C27AA 1_555 1_555
C29AA C28AA 1_555 1_555
C30AA C15A 1_555 1_555
C31AA C30AA 1_555 1_555
C32AA C27AA 1_555 1_555
Zr1B O1B 1_555 1_555
O1B C13B 1_555 1_555
O2B Zr1 1_555 1_555
O3B Zr2 1_555 1_555
O4B C3B 1_555 1_555
O5B Zr2 1_555 1_555
C1B C3B 1_555 1_555
C2B C5B 1_555 1_555
C3B O4X 1_555 1_555
C4B C5B 1_555 1_555
C5B C4X 1_555 1_555
C6B C1B 1_555 1_555
C7B C8B 1_555 1_555
C8B C9B 1_555 1_555
C9B C10B 1_555 1_555
C10B C11B 1_555 1_555
C11B C12B 1_555 1_555
C12B C7B 1_555 1_555
C13B O5B 1_555 1_555
C14B C15B 1_555 1_555
C15B C16B 1_555 1_555
C16B C23B 1_555 1_555
C17B C2B 1_555 1_555
C18B C19B 1_555 1_555
C19B C26B 1_555 1_555
C20B C21B 1_555 1_555
C21B O7B 1_555 1_555
C22B C20B 1_555 1_555
C23B C26B 1_555 1_555
O7B Zr3B 1_555 1_555
C24B C18B 1_555 1_555
C25B C14B 1_555 1_555
C27B C10B 1_555 1_555
C28B C27B 1_555 1_555
C29B C28B 1_555 1_555
C30B C15B 1_555 1_555
C31B C30B 1_555 1_555
C32B C27B 1_555 1_555
O1X C13X 1_555 1_555
O4X Zr1BA 1_555 1_555
O5X Zr2A 1_555 1_555
C4X C6X 1_555 1_555
C6X C1B 1_555 1_555
C7X C8X 1_555 1_555
C8X C9X 1_555 1_555
C9X C10X 1_555 1_555
C10X C11X 1_555 1_555
C11X C12X 1_555 1_555
C12X C7X 1_555 1_555
C13X O5X 1_555 1_555
C17X C2B 1_555 1_555
C22X C20B 1_555 1_555
C23X C16B 1_555 1_555
O7X C21B 1_555 1_555
C24X C18B 1_555 1_555
C25X C14B 1_555 1_555
C26X C19B 1_555 1_555
C27X C10X 1_555 1_555
C28X C27X 1_555 1_555
C29X C28X 1_555 1_555
C30X C15B 1_555 1_555
C31X C30X 1_555 1_555
C32X C27X 1_555 1_555
O1C C13C 1_555 1_555
O2C Zr2A 1_555 1_555
O3C Zr2A 1_555 1_555
O4C C3C 1_555 1_555
O5C Zr2A 1_555 1_555
C1C C3C 1_555 1_555
C2C C5C 1_555 1_555
C3C O4Y 1_555 1_555
C4C C5C 1_555 1_555
C5C C4Y 1_555 1_555
C6C C1C 1_555 1_555
C7C C8C 1_555 1_555
C8C C9C 1_555 1_555
C9C C10C 1_555 1_555
C10C C11C 1_555 1_555
C11C C12C 1_555 1_555
C12C C7C 1_555 1_555
C13C O5C 1_555 1_555
C14C C15C 1_555 1_555
C15C C16C 1_555 1_555
C16C C23C 1_555 1_555
C17C C2C 1_555 1_555
C18C C19C 1_555 1_555
C19C C26C 1_555 1_555
C20C C21C 1_555 1_555
C21C O7C 1_555 1_555
C22C C20C 1_555 1_555
C23C C26C 1_555 1_555
O7C Zr3C_2 1_555 1_555
C24C C18C 1_555 1_555
C25C C14C 1_555 1_555
C27C C10C 1_555 1_555
C28C C27C 1_555 1_555
C29C C28C 1_555 1_555
C30C C15C 1_555 1_555
C31C C30C 1_555 1_555
C32C C27C 1_555 1_555
O1Y C13Y 1_555 1_555
O4Y Zr1DA 1_555 1_555
O5Y Zr2 1_555 1_555
C4Y C6Y 1_555 1_555
C6Y C1C 1_555 1_555
C7Y C8Y 1_555 1_555
C8Y C9Y 1_555 1_555
C9Y C10Y 1_555 1_555
C10Y C11Y 1_555 1_555
C11Y C12Y 1_555 1_555
C12Y C7Y 1_555 1_555
C13Y O5Y 1_555 1_555
C17Y C2C 1_555 1_555
C22Y C20C 1_555 1_555
C23Y C16C 1_555 1_555
O7Y C21C 1_555 1_555
C24Y C18C 1_555 1_555
C25Y C14C 1_555 1_555
C26Y C19C 1_555 1_555
C27Y C10Y 1_555 1_555
C28Y C27Y 1_555 1_555
C29Y C28Y 1_555 1_555
C30Y C15C 1_555 1_555
C31Y C30Y 1_555 1_555
C32Y C27Y 1_555 1_555
Zr1D O4 1_555 1_555
O1D Zr1D 1_555 1_555
O3D Zr1D 1_555 1_555
O4D C3D 1_555 1_555
O5D C13D 1_555 1_555
C1D C3D 1_555 1_555
C2D C5D 1_555 1_555
C3D O4DA 1_555 1_555
C4D C5D 1_555 1_555
C5D C4DA 1_555 1_555
C6D C1D 1_555 1_555
C7D C8D 1_555 1_555
C8D C9D 1_555 1_555
C9D C10D 1_555 1_555
C10D C11D 1_555 1_555
C11D C12D 1_555 1_555
C12D C7D 1_555 1_555
C13D O1D 1_555 1_555
C14D C15D 1_555 1_555
C15D C16D 1_555 1_555
C16D C23D 1_555 1_555
C17D C2D 1_555 1_555
C18D C19D 1_555 1_555
C19D C26D 1_555 1_555
C20D C21D 1_555 1_555
C21D O7D 1_555 1_555
C22D C20D 1_555 1_555
C23D C26D 1_555 1_555
Zr3C O6D 1_555 1_555
O6D Zr3Z 1_555 1_555
O7D Zr3C 1_555 1_555
C24D C18D 1_555 1_555
C25D C14D 1_555 1_555
C27D C10D 1_555 1_555
C28D C27D 1_555 1_555
C29D C28D 1_555 1_555
C30D C15D 1_555 1_555
C31D C30D 1_555 1_555
C32D C27D 1_555 1_555
O1DA C13DA 1_555 1_555
O4DA Zr1IA 1_555 1_555
O5DA C13DA 1_555 1_555
C4DA C6DA 1_555 1_555
C6DA C1D 1_555 1_555
C7DA C8DA 1_555 1_555
C8DA C9DA 1_555 1_555
C9DA C10DA 1_555 1_555
C10DA C11DA 1_555 1_555
C11DA C12DA 1_555 1_555
C12DA C7DA 1_555 1_555
C13DA C7DA 1_555 1_555
C17DA C2D 1_555 1_555
C22DA C20D 1_555 1_555
C23DA C16D 1_555 1_555
O7DA C21D 1_555 1_555
C24DA C18D 1_555 1_555
C25DA C14D 1_555 1_555
C26DA C19D 1_555 1_555
C27DA C10DA 1_555 1_555
C28DA C27DA 1_555 1_555
C29DA C28DA 1_555 1_555
C30DA C15D 1_555 1_555
C31DA C30DA 1_555 1_555
C32DA C27DA 1_555 1_555
O1E C13E 1_555 1_555
O4E C3E 1_555 1_555
O5E C13E 1_555 1_555
C1E C3E 1_555 1_555
C2E C5E 1_555 1_555
C3E O4EA 1_555 1_555
C4E C5E 1_555 1_555
C5E C4EA 1_555 1_555
C6E C1E 1_555 1_555
C7E C8E 1_555 1_555
C8E C9E 1_555 1_555
C9E C10E 1_555 1_555
C10E C11E 1_555 1_555
C11E C12E 1_555 1_555
C12E C7E 1_555 1_555
C13E C7E 1_555 1_555
C14E C15E 1_555 1_555
C15E C16E 1_555 1_555
C16E C23E 1_555 1_555
C17E C2E 1_555 1_555
C18E C19E 1_555 1_555
C19E C26E 1_555 1_555
C20E C21E 1_555 1_555
C21E O7E 1_555 1_555
C22E C20E 1_555 1_555
C23E C26E 1_555 1_555
O6E Zr3 1_555 1_555
O7E Zr3 1_555 1_555
C24E C18E 1_555 1_555
C25E C14E 1_555 1_555
C27E C10E 1_555 1_555
C28E C27E 1_555 1_555
C29E C28E 1_555 1_555
C30E C15E 1_555 1_555
C31E C30E 1_555 1_555
C32E C27E 1_555 1_555
O1EA C13EA 1_555 1_555
O4EA Zr1GA 1_555 1_555
O5EA C13EA 1_555 1_555
C4EA C6EA 1_555 1_555
C6EA C1E 1_555 1_555
C7EA C8EA 1_555 1_555
C8EA C9EA 1_555 1_555
C9EA C10EA 1_555 1_555
C10EA C11EA 1_555 1_555
C11EA C12EA 1_555 1_555
C12EA C7EA 1_555 1_555
C13EA C7EA 1_555 1_555
C17EA C2E 1_555 1_555
C22EA C20E 1_555 1_555
C23EA C16E 1_555 1_555
O7EA C21E 1_555 1_555
C24EA C18E 1_555 1_555
C25EA C14E 1_555 1_555
C26EA C19E 1_555 1_555
C27EA C10EA 1_555 1_555
C28EA C27EA 1_555 1_555
C29EA C28EA 1_555 1_555
C30EA C15E 1_555 1_555
C31EA C30EA 1_555 1_555
C32EA C27EA 1_555 1_555
Zr1H O4D 1_555 1_555
Zr1Y O2 1_555 1_555
O6K Zr3 1_555 1_555
O6G Zr3A 1_555 1_555
O2U Zr1 1_555 1_555
O2W Zr1B 1_555 1_555
O3W Zr1 1_555 1_555
Zr3Z O7Z 1_555 1_555
Zr2D O3D 1_555 1_555
Zr1Z O1Z 1_555 1_555
Zr1A O1A 1_555 1_555
Zr1C O2A 1_555 1_555
Zr1E O4C 1_555 1_555
Zr1E_2 O1E 1_555 1_555
Zr1F O4A 1_555 1_555
Zr1G O4B 1_555 1_555
Zr1J O4E 1_555 1_555
Zr1X O2A 1_555 1_555
Zr1AA O1AA 1_555 1_555
Zr1CA O3D 1_555 1_555
Zr1DA_2 O1DA 1_555 1_555
Zr1EA O1EA 1_555 1_555
Zr1IA O2J 1_555 1_555
Zr2E O5DA 1_555 1_555
Zr2U O2U 1_555 1_555
O1H Zr1H 1_555 1_555
O1M Zr1H 1_555 1_555
O1R Zr1D 1_555 1_555
O1U Zr1B 1_555 1_555
O1W Zr1 1_555 1_555
O1RA Zr1Y 1_555 1_555
O1SA Zr1Z 1_555 1_555
O2D Zr2D 1_555 1_555
O2F Zr1D 1_555 1_555
O2J Zr1H 1_555 1_555
O2O Zr1H 1_555 1_555
O2P Zr1D 1_555 1_555
O2T Zr1Z 1_555 1_555
O3F Zr2D 1_555 1_555
O3H Zr1H 1_555 1_555
O3M Zr1H 1_555 1_555
O3R Zr1D 1_555 1_555
O3T Zr1Z 1_555 1_555
O3U Zr1B 1_555 1_555
O4H Zr1 1_555 1_555
O4I Zr1B 1_555 1_555
O4M Zr1D 1_555 1_555
O4R Zr1 1_555 1_555
O4S Zr1B 1_555 1_555
O4W Zr1H 1_555 1_555
O4GA Zr1Z 1_555 1_555
O4IA Zr1Y 1_555 1_555
O4NA Zr1Y 1_555 1_555
O4QA Zr1Z 1_555 1_555
O5F Zr2D 1_555 1_555
O5CA Zr2D 1_555 1_555
Zr3X O7X 1_555 1_555
Zr3X_2 O6G 1_555 1_555
Zr3Y O7Y 1_555 1_555
Zr3Y_2 O6E 1_555 1_555
Zr3AA O7AA 1_555 1_555
O6C Zr3C 1_555 1_555
O6H Zr3A 1_555 1_555
O6I Zr3C 1_555 1_555
O7C_2 Zr3C 1_555 1_555
O7G Zr3A 1_555 1_555
O7H Zr3A 1_555 1_555
O7I Zr3C 1_555 1_555
O7K Zr3 1_555 1_555
O7HA Zr3Z 1_555 1_555
Zr2 O3 1_555 1_555
Zr2 O2B 1_555 1_555
O3 Zr1Y 1_555 1_555
C4 C6 1_555 1_555
C7 C13 1_555 1_555
C17 C25 1_555 1_555
C22 C24 1_555 1_555
C29 C30 1_555 1_555
C31 C32 1_555 1_555
C17Z C25Z 1_555 1_555
C22Z C24Z 1_555 1_555
C23Z C26Z 1_555 1_555
C29Z C30Z 1_555 1_555
C31Z C32Z 1_555 1_555
O3A Zr1A 1_555 1_555
O3A Zr1X 1_555 1_555
C4A C6A 1_555 1_555
C7A C13A 1_555 1_555
C17A C25A 1_555 1_555
C22A C24A 1_555 1_555
C29A C30A 1_555 1_555
C31A C32A 1_555 1_555
C7AA C13AA 1_555 1_555
C17AA C25AA 1_555 1_555
C22AA C24AA 1_555 1_555
C23AA C26AA 1_555 1_555
C29AA C30AA 1_555 1_555
C31AA C32AA 1_555 1_555
Zr1B O3B 1_555 1_555
O2B Zr1AA 1_555 1_555
O3B Zr1AA 1_555 1_555
C4B C6B 1_555 1_555
C7B C13B 1_555 1_555
C17B C25B 1_555 1_555
C22B C24B 1_555 1_555
C29B C30B 1_555 1_555
C31B C32B 1_555 1_555
O1X Zr1X 1_555 1_555
C7X C13X 1_555 1_555
C17X C25X 1_555 1_555
C22X C24X 1_555 1_555
C23X C26X 1_555 1_555
C29X C30X 1_555 1_555
C31X C32X 1_555 1_555
O1C Zr1C 1_555 1_555
O2C Zr1Z 1_555 1_555
O2C Zr1A 1_555 1_555
O3C Zr1Z 1_555 1_555
O3C Zr1C 1_555 1_555
C4C C6C 1_555 1_555
C7C C13C 1_555 1_555
C17C C25C 1_555 1_555
C22C C24C 1_555 1_555
C29C C30C 1_555 1_555
C31C C32C 1_555 1_555
O1Y Zr1Y 1_555 1_555
C7Y C13Y 1_555 1_555
C17Y C25Y 1_555 1_555
C22Y C24Y 1_555 1_555
C23Y C26Y 1_555 1_555
C29Y C30Y 1_555 1_555
C31Y C32Y 1_555 1_555
O5D Zr2D 1_555 1_555
C4D C6D 1_555 1_555
C7D C13D 1_555 1_555
C17D C25D 1_555 1_555
C22D C24D 1_555 1_555
C29D C30D 1_555 1_555
C31D C32D 1_555 1_555
C17DA C25DA 1_555 1_555
C22DA C24DA 1_555 1_555
C23DA C26DA 1_555 1_555
O7DA Zr3Z 1_555 1_555
C29DA C30DA 1_555 1_555
C31DA C32DA 1_555 1_555
O5E Zr2E 1_555 1_555
C4E C6E 1_555 1_555
C17E C25E 1_555 1_555
C22E C24E 1_555 1_555
C29E C30E 1_555 1_555
C31E C32E 1_555 1_555
O5EA Zr2D 1_555 1_555
C17EA C25EA 1_555 1_555
C22EA C24EA 1_555 1_555
C23EA C26EA 1_555 1_555
O7EA Zr3Y_2 1_555 1_555
C29EA C30EA 1_555 1_555
C31EA C32EA 1_555 1_555
Zr1Y O2U 1_555 1_555
Zr1Y O3U 1_555 1_555
O6K Zr3AA 1_555 1_555
O2W Zr1AA 1_555 1_555
O2W Zr2U 1_555 1_555
O3W Zr1AA 1_555 1_555
O3W Zr2U 1_555 1_555
Zr3Z O6H 1_555 1_555
Zr2D O2F 1_555 1_555
Zr1A O3T 1_555 1_555
Zr1C O2T 1_555 1_555
Zr1CA O2D 1_555 1_555
Zr1CA O2P 1_555 1_555
Zr1EA O2F 1_555 1_555
Zr1EA O3F 1_555 1_555
Zr1EA O3R 1_555 1_555
Zr1IA O3M 1_555 1_555
Zr2U O3U 1_555 1_555
Zr3X_2 O6I 1_555 1_555
Zr3Y_2 O6C 1_555 1_555

#END
