
#######################################################################
#
#                 Cambridge Crystallographic Data Centre
#                                CCDC 
#
#######################################################################
#
# If this CIF has been generated from an entry in the Cambridge 
# Structural Database, then it will include bibliographic, chemical, 
# crystal, experimental, refinement or atomic coordinate data resulting 
# from the CCDC's data processing and validation procedures.
#
#######################################################################

data_NUMPAO
_chemical_formula_moiety         '(C48 H52 N2 O13 Zn2)n'
_symmetry_cell_setting           orthorhombic
_symmetry_space_group_name_H-M   'P n a m'
_symmetry_Int_Tables_number      62
_space_group_name_Hall           '-P 2c 2n'
loop_
_symmetry_equiv_pos_site_id
_symmetry_equiv_pos_as_xyz
1 x,y,z
2 -x,-y,1/2+z
3 1/2+x,1/2-y,1/2-z
4 1/2-x,1/2+y,-z
5 -x,-y,-z
6 x,y,1/2-z
7 1/2-x,1/2+y,1/2+z
8 1/2+x,1/2-y,z
_cell_length_a                   8.6538(4)
_cell_length_b                   14.4144(4)
_cell_length_c                   37.4884(11)
_cell_angle_alpha                90
_cell_angle_beta                 90
_cell_angle_gamma                90
_cell_volume                     4676.28
loop_
_atom_site_label
_atom_site_type_symbol
_atom_site_fract_x
_atom_site_fract_y
_atom_site_fract_z
Zn1 Zn 0.06017(3) 0.283940(15) 0.141430(6)
O1 O 0.1289(2) 0.21802(10) 0.18447(4)
O2 O 0.1821(2) 0.39597(11) 0.13842(4)
O3 O 0.0591(2) 0.42982(12) 0.08822(5)
O4 O 0.34314(18) 0.18818(11) 0.15502(4)
N1 N 0.0335(2) 0.20111(12) 0.09847(5)
C1 C 0.2694(3) 0.52679(14) 0.10625(6)
C2 C 0.3460(3) 0.71651(16) 0.03992(7)
C3 C 0.4984(3) 0.61086(15) 0.12588(6)
C4 C 0.3599(3) 0.65719(15) 0.07239(6)
C5 C -0.0587(3) 0.03638(17) 0.00502(6)
H1 H -0.1574 0.0060 0.0088
H2 H -0.0708 0.0785 -0.0150
C6 C -0.0745(3) 0.22362(16) 0.07458(7)
H3 H -0.1318 0.2773 0.0784
C7 C 0.1596(3) 0.44594(15) 0.11064(6)
C8 C 0.2535(3) 0.58569(15) 0.07734(6)
H4 H 0.1725 0.5777 0.0613
C9 C -0.0209(3) 0.09270(15) 0.03782(6)
C10 C 0.1153(3) 0.12424(15) 0.09204(6)
H5 H 0.1906 0.1068 0.1084
C11 C 0.0931(3) 0.06961(16) 0.06227(6)
H6 H 0.1543 0.0175 0.0586
O5 O 0.4257(3) 0.79374(16) 0.04199(7)
C12 C 0.6368(3) 0.62445(17) 0.15114(7)
C13 C 0.3905(3) 0.53985(15) 0.13012(6)
H7 H 0.3997 0.5000 0.1495
C14 C -0.1055(3) 0.17222(17) 0.04487(6)
H8 H -0.1835 0.1906 0.0293
O6 O 0.2749(3) 0.69461(14) 0.01372(6)
C15 C 0.4797(3) 0.66913(16) 0.09648(6)
H9 H 0.5495 0.7173 0.0930
C16 C 0.7875(3) 0.6050(2) 0.13061(10)
H10 H 0.7889 0.5415 0.1229
H11 H 0.8744 0.6165 0.1459
H12 H 0.7933 0.6450 0.1102
C17 C 0.6315(4) 0.5586(2) 0.18288(9)
H13 H 0.5396 0.5702 0.1965
H14 H 0.7207 0.5685 0.1976
H15 H 0.6308 0.4957 0.1745
C18 C 0.6409(4) 0.7248(2) 0.16409(10)
H16 H 0.6531 0.7656 0.1440
H17 H 0.7261 0.7329 0.1802
H18 H 0.5461 0.7391 0.1762
C19 C 0.3344(2) 0.15620(14) 0.21807(5)
C20 C 0.2664(3) 0.18951(14) 0.18370(5)
C21 C 0.2672(4) 0.1838(2) 0.2500
H19 H 0.1785 0.2202 0.2500
C22 C 0.5254(4) 0.0651(2) 0.2500
C23 C 0.6655(4) -0.0003(2) 0.2500
C24 C 0.4618(3) 0.09746(14) 0.21819(5)
H20 H 0.5055 0.0794 0.1966
C25 C 0.6644(4) -0.0627(2) 0.28272(9)
H21 H 0.6723 -0.0253 0.3038
H22 H 0.7504 -0.1047 0.2816
H23 H 0.5698 -0.0974 0.2833
C26 C 0.8108(5) 0.0582(4) 0.2500
H24 H 0.427(4) 0.823(3) 0.0241(11)
O1E O 0.1289(2) 0.21802(10) 0.31553(4)
O4E O 0.34314(18) 0.18818(11) 0.34498(4)
C19E C 0.3344(2) 0.15620(14) 0.28193(5)
C20E C 0.2664(3) 0.18951(14) 0.31630(5)
C24E C 0.4618(3) 0.09746(14) 0.28181(5)
H20E H 0.5055 0.0794 0.3034
C25E C 0.6644(4) -0.0627(2) 0.21728(9)
H21E H 0.6723 -0.0253 0.1962
H22E H 0.7504 -0.1047 0.2184
H23E H 0.5698 -0.0974 0.2167
N1D N -0.0335(2) -0.20111(12) -0.09847(5)
C5D C 0.0587(3) -0.03638(17) -0.00502(6)
H1D H 0.1574 -0.0060 -0.0088
H2D H 0.0708 -0.0785 0.0150
C6D C 0.0745(3) -0.22362(16) -0.07458(7)
H3D H 0.1318 -0.2773 -0.0784
C9D C 0.0209(3) -0.09270(15) -0.03782(6)
C10D C -0.1153(3) -0.12424(15) -0.09204(6)
H5D H -0.1906 -0.1068 -0.1084
C11D C -0.0931(3) -0.06961(16) -0.06227(6)
H6D H -0.1543 -0.0175 -0.0586
C14D C 0.1055(3) -0.17222(17) -0.04487(6)
H8D H 0.1835 -0.1906 -0.0293
Zn1D Zn -0.06017(3) -0.283940(15) -0.141430(6)
O2D O -0.1821(2) -0.39597(11) -0.13842(4)
O3D O -0.0591(2) -0.42982(12) -0.08822(5)
C1D C -0.2694(3) -0.52679(14) -0.10625(6)
C2D C -0.3460(3) -0.71651(16) -0.03992(7)
C3D C -0.4984(3) -0.61086(15) -0.12588(6)
C4D C -0.3599(3) -0.65719(15) -0.07239(6)
C7D C -0.1596(3) -0.44594(15) -0.11064(6)
C8D C -0.2535(3) -0.58569(15) -0.07734(6)
H4D H -0.1725 -0.5777 -0.0613
O5D O -0.4257(3) -0.79374(16) -0.04199(7)
C12D C -0.6368(3) -0.62445(17) -0.15114(7)
C13D C -0.3905(3) -0.53985(15) -0.13012(6)
H7D H -0.3997 -0.5000 -0.1495
O6D O -0.2749(3) -0.69461(14) -0.01372(6)
C15D C -0.4797(3) -0.66913(16) -0.09648(6)
H9D H -0.5495 -0.7173 -0.0930
C16D C -0.7875(3) -0.6050(2) -0.13061(10)
H10D H -0.7889 -0.5415 -0.1229
H11D H -0.8744 -0.6165 -0.1459
H12D H -0.7933 -0.6450 -0.1102
C17D C -0.6315(4) -0.5586(2) -0.18288(9)
H13D H -0.5396 -0.5702 -0.1965
H14D H -0.7207 -0.5685 -0.1976
H15D H -0.6308 -0.4957 -0.1745
C18D C -0.6409(4) -0.7248(2) -0.16409(10)
H16D H -0.6531 -0.7656 -0.1440
H17D H -0.7261 -0.7329 -0.1802
H18D H -0.5461 -0.7391 -0.1762
H24D H -0.427(4) -0.823(3) -0.0241(11)
Zn1B Zn 0.56017(3) 0.216060(15) 0.358570(6)
Zn1E Zn 0.06017(3) 0.283940(15) 0.358570(6)
Zn1G Zn 0.56017(3) 0.216060(15) 0.141430(6)
O1D O -0.1289(2) -0.21802(10) -0.18447(4)
O4C O 0.15686(18) -0.31182(11) -0.15502(4)
O4G O -0.15686(18) 0.31182(11) 0.15502(4)
O7 O 0.4756(3) 0.90736(14) -0.01411(5)
loop_
_geom_bond_atom_site_label_1
_geom_bond_atom_site_label_2
_geom_bond_site_symmetry_1
_geom_bond_site_symmetry_2
Zn1 O1 1_555 1_555
O1 C20 1_555 1_555
O2 Zn1 1_555 1_555
O3 C7 1_555 1_555
O4 C20 1_555 1_555
N1 Zn1 1_555 1_555
C1 C7 1_555 1_555
C2 C4 1_555 1_555
C3 C12 1_555 1_555
C4 C8 1_555 1_555
C5 H1 1_555 1_555
H2 C5 1_555 1_555
C6 N1 1_555 1_555
H3 C6 1_555 1_555
C7 O2 1_555 1_555
C8 C1 1_555 1_555
H4 C8 1_555 1_555
C9 C5 1_555 1_555
C10 N1 1_555 1_555
H5 C10 1_555 1_555
C11 C9 1_555 1_555
H6 C11 1_555 1_555
O5 C2 1_555 1_555
C12 C16 1_555 1_555
C13 C1 1_555 1_555
H7 C13 1_555 1_555
C14 C6 1_555 1_555
H8 C14 1_555 1_555
O6 C2 1_555 1_555
C15 C3 1_555 1_555
H9 C15 1_555 1_555
C16 H10 1_555 1_555
H11 C16 1_555 1_555
H12 C16 1_555 1_555
C17 C12 1_555 1_555
H13 C17 1_555 1_555
H14 C17 1_555 1_555
H15 C17 1_555 1_555
C18 C12 1_555 1_555
H16 C18 1_555 1_555
H17 C18 1_555 1_555
H18 C18 1_555 1_555
C19 C20 1_555 1_555
C21 C19 1_555 1_555
H19 C21 1_555 1_555
C22 C23 1_555 1_555
C23 C25 1_555 1_555
C24 C19 1_555 1_555
H20 C24 1_555 1_555
C25 H21 1_555 1_555
H22 C25 1_555 1_555
H23 C25 1_555 1_555
C26 C23 1_555 1_555
H24 O5 1_555 1_555
O1E C20E 1_555 1_555
O4E C20E 1_555 1_555
C19E C21 1_555 1_555
C20E C19E 1_555 1_555
C24E C22 1_555 1_555
H20E C24E 1_555 1_555
C25E C23 1_555 1_555
H21E C25E 1_555 1_555
H22E C25E 1_555 1_555
H23E C25E 1_555 1_555
N1D C6D 1_555 1_555
C5D C5 1_555 1_555
H1D C5D 1_555 1_555
H2D C5D 1_555 1_555
C6D H3D 1_555 1_555
C9D C5D 1_555 1_555
C10D N1D 1_555 1_555
H5D C10D 1_555 1_555
C11D C9D 1_555 1_555
H6D C11D 1_555 1_555
C14D C6D 1_555 1_555
H8D C14D 1_555 1_555
Zn1D N1D 1_555 1_555
O2D Zn1D 1_555 1_555
O3D C7D 1_555 1_555
C1D C7D 1_555 1_555
C2D C4D 1_555 1_555
C3D C12D 1_555 1_555
C4D C8D 1_555 1_555
C7D O2D 1_555 1_555
C8D C1D 1_555 1_555
H4D C8D 1_555 1_555
O5D C2D 1_555 1_555
C12D C16D 1_555 1_555
C13D C1D 1_555 1_555
H7D C13D 1_555 1_555
O6D C2D 1_555 1_555
C15D C3D 1_555 1_555
H9D C15D 1_555 1_555
C16D H10D 1_555 1_555
H11D C16D 1_555 1_555
H12D C16D 1_555 1_555
C17D C12D 1_555 1_555
H13D C17D 1_555 1_555
H14D C17D 1_555 1_555
H15D C17D 1_555 1_555
C18D C12D 1_555 1_555
H16D C18D 1_555 1_555
H17D C18D 1_555 1_555
H18D C18D 1_555 1_555
H24D O5D 1_555 1_555
Zn1B O4E 1_555 1_555
Zn1E O1E 1_555 1_555
Zn1G O4 1_555 1_555
O1D Zn1D 1_555 1_555
O4C Zn1D 1_555 1_555
O4G Zn1 1_555 1_555
C3 C13 1_555 1_555
C4 C15 1_555 1_555
C9 C14 1_555 1_555
C10 C11 1_555 1_555
C22 C24 1_555 1_555
C19E C24E 1_555 1_555
C9D C14D 1_555 1_555
C10D C11D 1_555 1_555
C3D C13D 1_555 1_555
C4D C15D 1_555 1_555

#END
