
#######################################################################
#
#                 Cambridge Crystallographic Data Centre
#                                CCDC 
#
#######################################################################
#
# If this CIF has been generated from an entry in the Cambridge 
# Structural Database, then it will include bibliographic, chemical, 
# crystal, experimental, refinement or atomic coordinate data resulting 
# from the CCDC's data processing and validation procedures.
#
#######################################################################

data_SEQSOY
_chemical_formula_moiety         '(C26 H20 Co2 N2 O11)n'
_symmetry_cell_setting           trigonal
_symmetry_space_group_name_H-M   'P 32 2 1'
_symmetry_Int_Tables_number      154
_space_group_name_Hall           'P 32 2"'
loop_
_symmetry_equiv_pos_site_id
_symmetry_equiv_pos_as_xyz
1 x,y,z
2 -y,x-y,2/3+z
3 -x+y,-x,1/3+z
4 y,x,-z
5 x-y,-y,1/3-z
6 -x,-x+y,2/3-z
_cell_length_a                   11.0778(3)
_cell_length_b                   11.0778(3)
_cell_length_c                   27.8793(15)
_cell_angle_alpha                90
_cell_angle_beta                 90
_cell_angle_gamma                120
_cell_volume                     2962.92
loop_
_atom_site_label
_atom_site_type_symbol
_atom_site_fract_x
_atom_site_fract_y
_atom_site_fract_z
Co1 Co 0.07985(6) 0.25060(6) -0.029198(19)
O1 O 0.0964(5) 0.7190(4) 0.03978(13)
O2 O 0.2316(4) 0.9070(3) -0.00530(11)
O3 O 0.6465(3) 0.8320(4) -0.30121(11)
O4 O 0.7760(4) 1.0249(3) -0.25884(11)
O5 O -0.0579(4) 0.1456(4) -0.08813(11)
O6 O 0.0477(4) 0.0477(4) 0.0000
N1 N 0.1510(4) 0.4623(4) -0.05370(12)
C1 C 0.1291(5) 0.5457(5) -0.02496(15)
H1 H 0.0643 0.5057 -0.0003
C2 C 0.1991(5) 0.6900(5) -0.03023(16)
C3 C 0.2943(5) 0.7489(5) -0.06794(15)
H2 H 0.3426 0.8450 -0.0723
C4 C 0.3163(5) 0.6642(5) -0.09859(15)
C5 C 0.2414(4) 0.5208(4) -0.08999(15)
H3 H 0.2549 0.4627 -0.1106
C6 C 0.4135(5) 0.7210(5) -0.14004(15)
C7 C 0.3875(5) 0.6460(5) -0.18254(15)
H4 H 0.3110 0.5564 -0.1846
C8 C 0.4746(5) 0.7035(5) -0.22203(15)
H5 H 0.4553 0.6524 -0.2503
C9 C 0.5890(5) 0.8353(5) -0.21969(16)
C10 C 0.6196(5) 0.9084(5) -0.17679(16)
H6 H 0.6989 0.9960 -0.1745
C11 C 0.5334(5) 0.8524(5) -0.13744(17)
H7 H 0.5553 0.9026 -0.1089
C12 C 0.1732(5) 0.7781(5) 0.00499(17)
C13 C 0.6792(5) 0.9035(5) -0.26363(15)
Co1C Co 0.25060(6) 0.07985(6) 0.029198(19)
O1C O 0.7190(4) 0.0964(5) -0.03978(13)
O2C O 0.9070(3) 0.2316(4) 0.00530(11)
O3C O 0.8320(4) 0.6465(3) 0.30121(11)
O4C O 1.0249(3) 0.7760(4) 0.25884(11)
O5C O 0.1456(4) -0.0579(4) 0.08813(11)
N1C N 0.4623(4) 0.1510(4) 0.05370(12)
C1C C 0.5457(5) 0.1291(5) 0.02496(15)
H1C H 0.5057 0.0643 0.0003
C2C C 0.6900(5) 0.1991(5) 0.03023(16)
C3C C 0.7489(5) 0.2943(5) 0.06794(15)
H2C H 0.8450 0.3426 0.0723
C4C C 0.6642(5) 0.3163(5) 0.09859(15)
C5C C 0.5208(4) 0.2414(4) 0.08999(15)
H3C H 0.4627 0.2549 0.1106
C6C C 0.7210(5) 0.4135(5) 0.14004(15)
C7C C 0.6460(5) 0.3875(5) 0.18254(15)
H4C H 0.5564 0.3110 0.1846
C8C C 0.7035(5) 0.4746(5) 0.22203(15)
H5C H 0.6524 0.4553 0.2503
C9C C 0.8353(5) 0.5890(5) 0.21969(16)
C10C C 0.9084(5) 0.6196(5) 0.17679(16)
H6C H 0.9960 0.6989 0.1745
C11C C 0.8524(5) 0.5334(5) 0.13744(17)
H7C H 0.9026 0.5553 0.1089
C12C C 0.7781(5) 0.1732(5) -0.00499(17)
C13C C 0.9035(5) 0.6792(5) 0.26363(15)
Co1_2 Co 1.07985(6) 0.25060(6) -0.029198(19)
Co1A Co 0.74940(6) 0.82925(8) -0.362531(19)
Co1B Co 1.17075(8) 0.92015(6) 0.304135(19)
Co1C_2 Co 0.25060(6) 1.07985(6) 0.029198(19)
Co1D Co 0.82925(8) 0.74940(6) 0.362531(19)
Co1E Co 0.92015(6) 1.17075(8) -0.304135(19)
O2_2 O 0.2316(4) -0.0930(3) -0.00530(11)
O2C_2 O -0.0930(3) 0.2316(4) 0.00530(11)
O3B O 0.1855(5) 0.3535(3) 0.03212(11)
O3E O 0.3535(3) 0.1855(5) -0.03212(11)
O4B O 0.2489(5) 0.2240(4) 0.07449(11)
O4E O 0.2240(4) 0.2489(5) -0.07449(11)
loop_
_geom_bond_atom_site_label_1
_geom_bond_atom_site_label_2
_geom_bond_site_symmetry_1
_geom_bond_site_symmetry_2
Co1 O5 1_555 1_555
O1 C12 1_555 1_555
O2 C12 1_555 1_555
O3 C13 1_555 1_555
O4 C13 1_555 1_555
O6 Co1 1_555 1_555
N1 Co1 1_555 1_555
C1 N1 1_555 1_555
H1 C1 1_555 1_555
C2 C1 1_555 1_555
C3 C2 1_555 1_555
H2 C3 1_555 1_555
C4 C3 1_555 1_555
C5 N1 1_555 1_555
H3 C5 1_555 1_555
C6 C4 1_555 1_555
C7 C6 1_555 1_555
H4 C7 1_555 1_555
C8 C7 1_555 1_555
H5 C8 1_555 1_555
C9 C8 1_555 1_555
C10 C9 1_555 1_555
H6 C10 1_555 1_555
C11 C6 1_555 1_555
H7 C11 1_555 1_555
C12 C2 1_555 1_555
C13 C9 1_555 1_555
Co1C O6 1_555 1_555
O1C C12C 1_555 1_555
O2C C12C 1_555 1_555
O3C C13C 1_555 1_555
O4C C13C 1_555 1_555
O5C Co1C 1_555 1_555
N1C Co1C 1_555 1_555
C1C N1C 1_555 1_555
H1C C1C 1_555 1_555
C2C C1C 1_555 1_555
C3C C2C 1_555 1_555
H2C C3C 1_555 1_555
C4C C3C 1_555 1_555
C5C N1C 1_555 1_555
H3C C5C 1_555 1_555
C6C C4C 1_555 1_555
C7C C6C 1_555 1_555
H4C C7C 1_555 1_555
C8C C7C 1_555 1_555
H5C C8C 1_555 1_555
C9C C8C 1_555 1_555
C10C C9C 1_555 1_555
H6C C10C 1_555 1_555
C11C C6C 1_555 1_555
H7C C11C 1_555 1_555
C12C C2C 1_555 1_555
C13C C9C 1_555 1_555
Co1_2 O2C 1_555 1_555
Co1A O3 1_555 1_555
Co1B O4C 1_555 1_555
Co1C_2 O2 1_555 1_555
Co1D O3C 1_555 1_555
Co1E O4 1_555 1_555
O2_2 Co1C 1_555 1_555
O2C_2 Co1 1_555 1_555
O3B Co1 1_555 1_555
O3E Co1C 1_555 1_555
O4B Co1C 1_555 1_555
O4E Co1 1_555 1_555
C4 C5 1_555 1_555
C10 C11 1_555 1_555
C4C C5C 1_555 1_555
C10C C11C 1_555 1_555

#END
