
#######################################################################
#
#                 Cambridge Crystallographic Data Centre
#                                CCDC 
#
#######################################################################
#
# If this CIF has been generated from an entry in the Cambridge 
# Structural Database, then it will include bibliographic, chemical, 
# crystal, experimental, refinement or atomic coordinate data resulting 
# from the CCDC's data processing and validation procedures.
#
#######################################################################

data_KAVLID
_chemical_formula_moiety         '(C24 H20 N2 Ni1 O7)n'
_symmetry_cell_setting           monoclinic
_symmetry_space_group_name_H-M   'C 2/c'
_symmetry_Int_Tables_number      15
_space_group_name_Hall           '-C 2yc'
loop_
_symmetry_equiv_pos_site_id
_symmetry_equiv_pos_as_xyz
1 x,y,z
2 1/2+x,1/2+y,z
3 -x,y,1/2-z
4 1/2-x,1/2+y,1/2-z
5 -x,-y,-z
6 1/2-x,1/2-y,-z
7 x,-y,1/2+z
8 1/2+x,1/2-y,1/2+z
_cell_length_a                   18.911(4)
_cell_length_b                   12.318(5)
_cell_length_c                   19.885(4)
_cell_angle_alpha                90
_cell_angle_beta                 95.58(3)
_cell_angle_gamma                90
_cell_volume                     4610.18
loop_
_atom_site_label
_atom_site_type_symbol
_atom_site_fract_x
_atom_site_fract_y
_atom_site_fract_z
_atom_site_U_iso_or_equiv
_atom_site_thermal_displace_type
Ni1 Ni 0.05732(3) -0.91706(4) 0.92530(3) 0.0367 Uani
O1 O 0.11713(17) -0.7704(3) 0.92968(19) 0.0470 Uani
O2 O 0.07444(17) -0.8370(3) 0.83151(19) 0.0486 Uani
O3 O 0.21550(19) -0.3936(3) 0.7437(2) 0.0676 Uani
N1 N -0.03662(18) -0.8264(3) 0.9238(2) 0.0423 Uani
N2 N -0.34996(18) -0.5094(3) 0.9223(2) 0.0371 Uani
C1 C -0.0872(2) -0.8332(4) 0.8720(3) 0.0466 Uani
H1 H -0.0795 -0.8802 0.8355 0.0560 Uiso
C2 C -0.1502(2) -0.7752(4) 0.8688(3) 0.0486 Uani
H2 H -0.1851 -0.7841 0.8315 0.0580 Uiso
C3 C -0.1617(2) -0.7036(4) 0.9210(3) 0.0424 Uani
C4 C -0.1088(3) -0.6962(4) 0.9736(3) 0.0574 Uani
H3 H -0.1143 -0.6484 1.0102 0.0690 Uiso
C5 C -0.0477(2) -0.7582(4) 0.9733(3) 0.0554 Uani
H4 H -0.0122 -0.7516 1.0103 0.0670 Uiso
C6 C -0.2278(2) -0.6371(4) 0.9202(3) 0.0406 Uani
C7 C -0.2444(3) -0.5866(5) 0.9777(3) 0.0710 Uani
H5 H -0.2141 -0.5940 1.0184 0.0850 Uiso
C8 C -0.3056(3) -0.5246(5) 0.9766(3) 0.0679 Uani
H6 H -0.3162 -0.4911 1.0174 0.0810 Uiso
C9 C -0.3330(3) -0.5555(5) 0.8668(3) 0.0655 Uani
H7 H -0.3631 -0.5443 0.8263 0.0790 Uiso
C10 C -0.2732(3) -0.6200(5) 0.8642(3) 0.0707 Uani
H8 H -0.2640 -0.6526 0.8227 0.0850 Uiso
C11 C 0.0909(2) -0.1736(4) 0.6263(3) 0.0397 Uani
C12 C 0.1455(2) -0.2294(4) 0.6002(3) 0.0452 Uani
H9 H 0.1556 -0.2158 0.5551 0.0540 Uiso
C13 C 0.1857(3) -0.3050(4) 0.6388(3) 0.0540 Uani
H10 H 0.2231 -0.3430 0.6204 0.0650 Uiso
C14 C 0.1710(3) -0.3244(4) 0.7038(3) 0.0517 Uani
C15 C 0.1162(3) -0.2710(5) 0.7304(3) 0.0687 Uani
H11 H 0.1060 -0.2855 0.7754 0.0830 Uiso
C16 C 0.0759(3) -0.1962(5) 0.6914(3) 0.0635 Uani
H12 H 0.0377 -0.1602 0.7096 0.0760 Uiso
C17 C 0.0488(2) -0.0896(3) 0.5846(3) 0.0371 Uani
C18 C 0.1848(3) -0.4829(4) 0.7718(3) 0.0515 Uani
C19 C 0.2153(3) -0.5151(4) 0.8346(3) 0.0566 Uani
H13 H 0.2537 -0.4752 0.8569 0.0680 Uiso
C20 C 0.1894(3) -0.6055(4) 0.8646(3) 0.0484 Uani
H14 H 0.2096 -0.6272 0.9081 0.0580 Uiso
C21 C 0.1340(2) -0.6658(4) 0.8319(3) 0.0423 Uani
C22 C 0.1050(3) -0.6323(4) 0.7689(3) 0.0506 Uani
H15 H 0.0675 -0.6730 0.7458 0.0610 Uiso
C23 C 0.1301(3) -0.5396(5) 0.7390(3) 0.0588 Uani
H16 H 0.1091 -0.5162 0.6961 0.0700 Uiso
C24 C 0.1070(2) -0.7640(4) 0.8653(3) 0.0416 Uani
O6 O 0.06823(15) -0.0667(2) 0.52775(17) 0.0436 Uani
O7 O -0.00268(16) -0.0475(2) 0.61052(18) 0.0436 Uani
Ni1A Ni -0.44268(3) -0.41706(4) 0.92530(3) 0.0367 Uani
Ni1F Ni 0.05732(3) -0.08294(4) 0.42530(3) 0.0367 Uani
Ni1B Ni -0.05732(3) 0.08294(4) 0.57470(3) 0.0367 Uani
N2A N 0.15004(18) -1.0094(3) 0.9223(2) 0.0371 Uani
O6F O 0.06823(15) -0.9333(2) 1.02775(17) 0.0436 Uani
O7B O 0.00268(16) -1.0475(2) 0.88948(18) 0.0436 Uani
O4 O 0.0879(3) -0.5671(4) 0.9884(3) 0.0964 Uani
O5 O -0.0037(4) -0.4500(6) 0.8991(4) 0.1509 Uani
loop_
_atom_site_aniso_label
_atom_site_aniso_U_11
_atom_site_aniso_U_22
_atom_site_aniso_U_33
_atom_site_aniso_U_23
_atom_site_aniso_U_13
_atom_site_aniso_U_12
Ni1 0.0250(3) 0.0268(3) 0.0579(4) -0.0017(3) 0.0018(2) 0.0050(2)
O1 0.0441(18) 0.0357(18) 0.060(3) 0.0042(16) -0.0008(17) -0.0014(14)
O2 0.0450(18) 0.0356(18) 0.064(2) -0.0034(17) -0.0009(17) -0.0004(14)
O3 0.047(2) 0.065(3) 0.088(3) 0.043(2) -0.007(2) 0.0001(17)
N1 0.0284(18) 0.030(2) 0.068(3) -0.0056(19) 0.0024(19) 0.0072(14)
N2 0.0281(18) 0.032(2) 0.051(3) -0.0022(18) 0.0025(18) 0.0052(14)
C1 0.033(2) 0.047(3) 0.059(3) -0.011(2) 0.000(2) 0.012(2)
C2 0.037(2) 0.042(3) 0.066(4) -0.003(2) 0.001(2) 0.012(2)
C3 0.027(2) 0.035(2) 0.065(4) -0.007(2) 0.003(2) 0.0065(18)
C4 0.043(3) 0.047(3) 0.079(4) -0.024(3) -0.011(3) 0.017(2)
C5 0.035(2) 0.048(3) 0.080(4) -0.017(3) -0.011(3) 0.019(2)
C6 0.024(2) 0.033(2) 0.064(3) -0.004(2) 0.000(2) 0.0068(17)
C7 0.048(3) 0.100(5) 0.062(4) -0.024(4) -0.010(3) 0.031(3)
C8 0.045(3) 0.089(4) 0.067(4) -0.029(3) -0.008(3) 0.032(3)
C9 0.050(3) 0.084(4) 0.060(4) -0.011(3) -0.008(3) 0.037(3)
C10 0.053(3) 0.090(5) 0.067(4) -0.025(4) -0.005(3) 0.037(3)
C11 0.034(2) 0.032(2) 0.053(3) 0.008(2) 0.003(2) -0.0031(17)
C12 0.042(3) 0.044(3) 0.050(3) 0.013(2) 0.006(2) 0.002(2)
C13 0.041(3) 0.052(3) 0.069(4) 0.013(3) 0.006(3) 0.008(2)
C14 0.046(3) 0.048(3) 0.059(4) 0.018(3) -0.006(3) 0.000(2)
C15 0.073(4) 0.078(4) 0.057(4) 0.027(3) 0.016(3) 0.012(3)
C16 0.062(3) 0.069(4) 0.062(4) 0.025(3) 0.019(3) 0.021(3)
C17 0.026(2) 0.027(2) 0.058(3) 0.003(2) 0.003(2) -0.0066(17)
C18 0.047(3) 0.043(3) 0.063(4) 0.022(3) -0.002(3) 0.001(2)
C19 0.052(3) 0.049(3) 0.066(4) 0.015(3) -0.008(3) -0.011(2)
C20 0.049(3) 0.041(3) 0.052(3) 0.009(2) -0.011(2) -0.002(2)
C21 0.041(2) 0.035(3) 0.050(3) 0.003(2) 0.000(2) 0.0029(19)
C22 0.046(3) 0.054(3) 0.050(3) 0.007(3) -0.004(2) -0.005(2)
C23 0.051(3) 0.063(4) 0.060(4) 0.016(3) -0.007(3) -0.006(3)
C24 0.028(2) 0.033(2) 0.063(4) 0.002(2) 0.000(2) 0.0056(18)
O6 0.0331(16) 0.0429(19) 0.055(2) 0.0102(16) 0.0057(16) -0.0043(13)
O7 0.0353(16) 0.0302(16) 0.066(2) 0.0062(15) 0.0086(16) -0.0004(12)
Ni1A 0.025 0.0268 0.0579 -0.0017 0.0018 0.005
Ni1F 0.025 0.0268 0.0579 0.0017 0.0018 -0.005
Ni1B 0.025 0.0268 0.0579 0.0017 0.0018 -0.005
N2A 0.0281 0.032 0.051 -0.0022 0.0025 0.0052
O6F 0.0331 0.0429 0.055 -0.0102 0.0057 0.0043
O7B 0.0353 0.0302 0.066 -0.0062 0.0086 0.0004
O4 0.100(4) 0.061(3) 0.126(5) -0.019(3) 0.000(3) 0.010(2)
O5 0.166(7) 0.158(6) 0.121(6) -0.015(5) -0.026(5) 0.045(5)
loop_
_geom_bond_atom_site_label_1
_geom_bond_atom_site_label_2
_geom_bond_site_symmetry_1
_geom_bond_site_symmetry_2
Ni1 O1 1_555 1_555
O1 C24 1_555 1_555
O2 Ni1 1_555 1_555
O3 C14 1_555 1_555
N1 Ni1 1_555 1_555
N2 C8 1_555 1_555
C1 N1 1_555 1_555
H1 C1 1_555 1_555
C2 C1 1_555 1_555
H2 C2 1_555 1_555
C3 C2 1_555 1_555
C4 C3 1_555 1_555
H3 C4 1_555 1_555
C5 N1 1_555 1_555
H4 C5 1_555 1_555
C6 C3 1_555 1_555
C7 C6 1_555 1_555
H5 C7 1_555 1_555
C8 C7 1_555 1_555
H6 C8 1_555 1_555
C9 N2 1_555 1_555
H7 C9 1_555 1_555
C10 C6 1_555 1_555
H8 C10 1_555 1_555
C11 C12 1_555 1_555
C12 H9 1_555 1_555
C13 C12 1_555 1_555
H10 C13 1_555 1_555
C14 C13 1_555 1_555
C15 C14 1_555 1_555
H11 C15 1_555 1_555
C16 C11 1_555 1_555
H12 C16 1_555 1_555
C17 C11 1_555 1_555
C18 O3 1_555 1_555
C19 C18 1_555 1_555
H13 C19 1_555 1_555
C20 C19 1_555 1_555
H14 C20 1_555 1_555
C21 C20 1_555 1_555
C22 C21 1_555 1_555
H15 C22 1_555 1_555
C23 C18 1_555 1_555
H16 C23 1_555 1_555
C24 O2 1_555 1_555
O6 C17 1_555 1_555
O7 C17 1_555 1_555
Ni1A N2 1_555 1_555
Ni1F O6 1_555 1_555
Ni1B O7 1_555 1_555
N2A Ni1 1_555 1_555
O6F Ni1 1_555 1_555
O7B Ni1 1_555 1_555
C4 C5 1_555 1_555
C9 C10 1_555 1_555
C15 C16 1_555 1_555
C21 C24 1_555 1_555
C22 C23 1_555 1_555

#END
