
#######################################################################
#
#                 Cambridge Crystallographic Data Centre
#                                CCDC 
#
#######################################################################
#
# If this CIF has been generated from an entry in the Cambridge 
# Structural Database, then it will include bibliographic, chemical, 
# crystal, experimental, refinement or atomic coordinate data resulting 
# from the CCDC's data processing and validation procedures.
#
#######################################################################

data_FISGOF
_chemical_formula_moiety         '(C30 H18 Cu2 O10)n'
_symmetry_cell_setting           rhombohedral
_symmetry_space_group_name_H-M   'R 3 m'
_symmetry_Int_Tables_number      160
_space_group_name_Hall           'R 3 -2"'
loop_
_symmetry_equiv_pos_site_id
_symmetry_equiv_pos_as_xyz
1 x,y,z
2 -y,x-y,z
3 -x+y,-x,z
4 -y,-x,z
5 x,x-y,z
6 -x+y,y,z
7 2/3+x,1/3+y,1/3+z
8 2/3-y,1/3+x-y,1/3+z
9 2/3-x+y,1/3-x,1/3+z
10 2/3-y,1/3-x,1/3+z
11 2/3+x,1/3+x-y,1/3+z
12 2/3-x+y,1/3+y,1/3+z
13 1/3+x,2/3+y,2/3+z
14 1/3-y,2/3+x-y,2/3+z
15 1/3-x+y,2/3-x,2/3+z
16 1/3-y,2/3-x,2/3+z
17 1/3+x,2/3+x-y,2/3+z
18 1/3-x+y,2/3+y,2/3+z
_cell_length_a                   26.2119(14)
_cell_length_b                   26.2119(14)
_cell_length_c                   36.423(3)
_cell_angle_alpha                90
_cell_angle_beta                 90
_cell_angle_gamma                120
_cell_volume                     21672.2
loop_
_atom_site_label
_atom_site_type_symbol
_atom_site_fract_x
_atom_site_fract_y
_atom_site_fract_z
_atom_site_U_iso_or_equiv
_atom_site_thermal_displace_type
Cu1 Cu 0.19773(3) 0.39545(5) 0.03009(3) 0.0604 Uani
Cu2 Cu 0.22983(3) 0.45967(5) -0.03008(3) 0.0601 Uani
O1 O 0.3048(3) 0.5056(2) -0.00536(16) 0.0840 Uani
O2 O 0.2738(2) 0.4481(2) 0.04740(17) 0.0989 Uani
O3 O 0.8188(2) 0.7385(2) 0.28687(14) 0.0836 Uani
O4 O 0.7900(2) 0.6833(2) 0.33838(15) 0.0817 Uani
O5 O 0.2567(2) 0.5133(5) -0.0815(2) 0.1314 Uani
O6 O 0.17423(17) 0.3485(3) 0.0810(2) 0.1083 Uani
C1 C 0.3096(4) 0.4897(4) 0.0297(2) 0.0844 Uani
C2 C 0.4098(2) 0.5902(2) 0.0252(3) 0.0702 Uani
H1 H 0.4017 0.5983 0.0017 0.0840 Uiso
C3 C 0.3714(3) 0.5372(3) 0.0463(2) 0.0773 Uani
C4 C 0.3847(3) 0.5233(3) 0.0812(2) 0.0786 Uani
H2 H 0.3579 0.4891 0.0934 0.0950 Uiso
C5 C 0.4383(3) 0.5617(3) 0.0967(3) 0.1108 Uani
C6 C 0.4515(4) 0.5485(4) 0.1285(4) 0.1188 Uani
C7 C 0.4633(4) 0.5367(4) 0.1545(5) 0.1249 Uani
C8 C 0.4811(4) 0.5189(4) 0.1900(4) 0.1226 Uani
C9 C 0.5344(5) 0.5535(4) 0.2079(3) 0.1273 Uani
H3 H 0.5606 0.5888 0.1965 0.1530 Uiso
C10 C 0.5530(4) 0.5410(4) 0.2412(3) 0.0997 Uani
C11 C 0.5130(3) 0.4870(3) 0.2588(3) 0.1083 Uani
H4 H 0.5220 0.4780 0.2817 0.1300 Uiso
C12 C 0.6135(5) 0.5833(5) 0.2600(3) 0.1008 Uani
C13 C 0.6579(6) 0.6269(5) 0.2401(3) 0.1480 Uani
H5 H 0.6510 0.6304 0.2154 0.1770 Uiso
C14 C 0.7123(5) 0.6661(5) 0.2543(3) 0.1288 Uani
H6 H 0.7413 0.6972 0.2409 0.1540 Uiso
C15 C 0.7195(4) 0.6553(4) 0.2891(2) 0.0730 Uani
C16 C 0.6791(5) 0.6131(5) 0.3094(3) 0.1292 Uani
H7 H 0.6887 0.6058 0.3327 0.1550 Uiso
C17 C 0.6190(5) 0.5776(5) 0.2954(3) 0.1412 Uani
H8 H 0.5873 0.5530 0.3103 0.1690 Uiso
C18 C 0.7809(3) 0.6931(3) 0.3060(2) 0.0583 Uani
O1C O 0.4944(2) 0.6952(3) -0.00536(16) 0.0840 Uani
O2C O 0.5519(2) 0.7262(2) 0.04740(17) 0.0989 Uani
O3C O 0.2615(2) 0.1812(2) 0.28687(14) 0.0836 Uani
O4C O 0.3167(2) 0.2100(2) 0.33838(15) 0.0817 Uani
C1C C 0.5103(4) 0.6904(4) 0.0297(2) 0.0844 Uani
C3C C 0.4628(3) 0.6286(3) 0.0463(2) 0.0773 Uani
C4C C 0.4767(3) 0.6153(3) 0.0812(2) 0.0786 Uani
H2C H 0.5109 0.6421 0.0934 0.0950 Uiso
C9C C 0.4465(4) 0.4656(5) 0.2079(3) 0.1273 Uani
H3C H 0.4112 0.4394 0.1965 0.1530 Uiso
C10C C 0.4590(4) 0.4470(4) 0.2412(3) 0.0997 Uani
C12C C 0.4167(5) 0.3865(5) 0.2600(3) 0.1008 Uani
C13C C 0.3731(5) 0.3421(6) 0.2401(3) 0.1480 Uani
H5C H 0.3696 0.3490 0.2154 0.1770 Uiso
C14C C 0.3339(5) 0.2877(5) 0.2543(3) 0.1288 Uani
H6C H 0.3028 0.2587 0.2409 0.1540 Uiso
C15C C 0.3447(4) 0.2805(4) 0.2891(2) 0.0730 Uani
C16C C 0.3869(5) 0.3209(5) 0.3094(3) 0.1292 Uani
H7C H 0.3942 0.3113 0.3327 0.1550 Uiso
C17C C 0.4224(5) 0.3810(5) 0.2954(3) 0.1412 Uani
H8C H 0.4470 0.4127 0.3103 0.1690 Uiso
C18C C 0.3069(3) 0.2191(3) 0.3060(2) 0.0583 Uani
Cu1A Cu 0.60455(5) 0.80228(6) 0.03009(3) 0.0604 Uani
Cu1F Cu 0.86440(3) 0.72878(5) 0.36342(3) 0.0604 Uani
Cu1G Cu 0.27122(5) 0.13561(6) 0.36342(3) 0.0604 Uani
Cu2A Cu 0.54033(5) 0.77016(6) -0.03008(3) 0.0601 Uani
Cu2F Cu 0.89650(3) 0.79300(5) 0.30325(3) 0.0601 Uani
Cu2G Cu 0.20700(5) 0.10349(6) 0.30325(3) 0.0601 Uani
O1E O 0.2008(4) 0.5056(2) -0.00536(16) 0.0840 Uani
O2E O 0.1743(3) 0.4481(2) 0.04740(17) 0.0989 Uani
O3L O 0.1521(2) 0.4052(2) -0.04646(14) 0.0836 Uani
O3Q O 0.2530(3) 0.4052(2) -0.04646(14) 0.0836 Uani
O4L O 0.1233(2) 0.3500(2) 0.00505(15) 0.0817 Uani
O4Q O 0.2266(3) 0.3500(2) 0.00505(15) 0.0817 Uani
loop_
_atom_site_aniso_label
_atom_site_aniso_U_11
_atom_site_aniso_U_22
_atom_site_aniso_U_33
_atom_site_aniso_U_23
_atom_site_aniso_U_13
_atom_site_aniso_U_12
Cu1 0.0632(6) 0.0437(8) 0.0676(8) -0.0005(7) -0.0003(3) 0.0218(4)
Cu2 0.0630(7) 0.0458(8) 0.0657(7) 0.0008(7) 0.0004(3) 0.0229(4)
O1 0.088(4) 0.081(4) 0.088(4) -0.007(3) -0.005(3) 0.046(4)
O2 0.075(4) 0.045(4) 0.150(6) 0.049(4) 0.023(4) 0.010(3)
O3 0.084(4) 0.067(4) 0.076(4) 0.002(3) -0.018(3) 0.020(3)
O4 0.075(4) 0.072(4) 0.085(4) -0.003(3) -0.015(3) 0.027(3)
O5 0.139(6) 0.193(10) 0.081(5) 0.039(6) 0.019(3) 0.097(5)
O6 0.135(6) 0.073(6) 0.097(5) 0.024(5) 0.012(2) 0.037(3)
C1 0.094(6) 0.107(6) 0.084(5) -0.058(5) -0.062(5) 0.074(5)
C2 0.048(5) 0.048(5) 0.092(7) 0.006(3) -0.006(3) 0.007(6)
C3 0.023(4) 0.056(5) 0.140(7) 0.010(5) -0.010(5) 0.010(4)
C4 0.043(5) 0.061(5) 0.097(6) 0.029(5) -0.037(5) 0.000(4)
C5 0.084(6) 0.084(6) 0.075(8) 0.053(5) -0.053(5) -0.025(7)
C6 0.121(9) 0.121(9) 0.091(10) 0.023(5) -0.023(5) 0.043(10)
C7 0.120(9) 0.120(9) 0.128(13) 0.006(6) -0.006(6) 0.055(11)
C8 0.089(7) 0.089(7) 0.133(13) -0.003(6) 0.003(6) 0.002(9)
C9 0.130(9) 0.093(8) 0.122(8) 0.028(7) 0.008(8) 0.028(7)
C10 0.104(8) 0.086(7) 0.095(6) 0.023(6) 0.007(6) 0.037(6)
C11 0.109(8) 0.109(8) 0.105(10) 0.005(4) -0.005(4) 0.053(10)
C12 0.082(8) 0.095(8) 0.109(8) 0.004(7) -0.015(7) 0.032(7)
C13 0.112(10) 0.133(11) 0.140(10) 0.017(9) 0.006(9) 0.017(9)
C14 0.109(10) 0.126(10) 0.117(9) -0.010(7) -0.035(8) 0.033(8)
C15 0.068(6) 0.073(6) 0.067(5) -0.004(5) -0.021(5) 0.027(5)
C16 0.100(8) 0.113(9) 0.129(8) 0.041(8) -0.013(8) 0.019(7)
C17 0.123(10) 0.135(10) 0.121(9) 0.032(8) -0.026(8) 0.031(8)
C18 0.066(6) 0.052(5) 0.059(5) 0.006(4) 0.010(5) 0.031(4)
O1C 0.081 0.088 0.088 0.005 0.007 0.046
O2C 0.045 0.075 0.15 -0.023 -0.049 0.01
O3C 0.067 0.084 0.076 0.018 -0.002 0.02
O4C 0.072 0.075 0.085 0.015 0.003 0.027
C1C 0.107 0.094 0.084 0.062 0.058 0.074
C3C 0.056 0.023 0.14 0.01 -0.01 0.01
C4C 0.061 0.043 0.097 0.037 -0.029 0
C9C 0.093 0.13 0.122 -0.008 -0.028 0.028
C10C 0.086 0.104 0.095 -0.007 -0.023 0.037
C12C 0.095 0.082 0.109 0.015 -0.004 0.032
C13C 0.133 0.112 0.14 -0.006 -0.017 0.017
C14C 0.126 0.109 0.117 0.035 0.01 0.033
C15C 0.073 0.068 0.067 0.021 0.004 0.027
C16C 0.113 0.1 0.129 0.013 -0.041 0.019
C17C 0.135 0.123 0.121 0.026 -0.032 0.031
C18C 0.052 0.066 0.059 -0.01 -0.006 0.031
Cu1A 0.0437 0.0633 0.0676 0.0002 0.0005 0.0219
Cu1F 0.0632 0.0437 0.0676 -0.0005 -0.0003 0.0218
Cu1G 0.0437 0.0633 0.0676 0.0002 0.0005 0.0219
Cu2A 0.0458 0.063 0.0657 -0.0004 -0.0008 0.0229
Cu2F 0.063 0.0458 0.0657 0.0008 0.0004 0.0229
Cu2G 0.0458 0.063 0.0657 -0.0004 -0.0008 0.0229
O1E 0.077 0.081 0.088 -0.007 -0.002 0.035
O2E 0.1 0.045 0.15 0.049 0.026 0.035
O3L 0.084 0.067 0.076 0.002 -0.018 0.02
O3Q 0.111 0.067 0.076 0.002 0.02 0.047
O4L 0.075 0.072 0.085 -0.003 -0.015 0.027
O4Q 0.093 0.072 0.085 -0.003 0.012 0.045
loop_
_geom_bond_atom_site_label_1
_geom_bond_atom_site_label_2
_geom_bond_site_symmetry_1
_geom_bond_site_symmetry_2
Cu1 Cu2 1_555 1_555
Cu2 O1 1_555 1_555
O1 C1 1_555 1_555
O2 Cu1 1_555 1_555
O3 C18 1_555 1_555
O4 C18 1_555 1_555
O5 Cu2 1_555 1_555
O6 Cu1 1_555 1_555
C1 O2 1_555 1_555
C2 H1 1_555 1_555
C3 C1 1_555 1_555
C4 C3 1_555 1_555
H2 C4 1_555 1_555
C5 C4 1_555 1_555
C6 C5 1_555 1_555
C7 C6 1_555 1_555
C8 C7 1_555 1_555
C9 C8 1_555 1_555
H3 C9 1_555 1_555
C10 C9 1_555 1_555
C11 C10 1_555 1_555
H4 C11 1_555 1_555
C12 C10 1_555 1_555
C13 C12 1_555 1_555
H5 C13 1_555 1_555
C14 C13 1_555 1_555
H6 C14 1_555 1_555
C15 C14 1_555 1_555
C16 C15 1_555 1_555
H7 C16 1_555 1_555
C17 C12 1_555 1_555
H8 C17 1_555 1_555
C18 C15 1_555 1_555
O1C C1C 1_555 1_555
O2C C1C 1_555 1_555
O3C C18C 1_555 1_555
O4C C18C 1_555 1_555
C1C C3C 1_555 1_555
C3C C2 1_555 1_555
C4C C5 1_555 1_555
H2C C4C 1_555 1_555
C9C C8 1_555 1_555
H3C C9C 1_555 1_555
C10C C11 1_555 1_555
C12C C10C 1_555 1_555
C13C C12C 1_555 1_555
H5C C13C 1_555 1_555
C14C C13C 1_555 1_555
H6C C14C 1_555 1_555
C15C C14C 1_555 1_555
C16C C15C 1_555 1_555
H7C C16C 1_555 1_555
C17C C12C 1_555 1_555
H8C C17C 1_555 1_555
C18C C15C 1_555 1_555
Cu1A O2C 1_555 1_555
Cu1F O4 1_555 1_555
Cu1G O4C 1_555 1_555
Cu2A O1C 1_555 1_555
Cu2F O3 1_555 1_555
Cu2G O3C 1_555 1_555
O1E Cu2 1_555 1_555
O2E Cu1 1_555 1_555
O3L Cu2 1_555 1_555
O3Q Cu2 1_555 1_555
O4L Cu1 1_555 1_555
O4Q Cu1 1_555 1_555
C2 C3 1_555 1_555
C16 C17 1_555 1_555
C3C C4C 1_555 1_555
C9C C10C 1_555 1_555
C16C C17C 1_555 1_555
Cu1A Cu2A 1_555 1_555
Cu1F Cu2F 1_555 1_555
Cu1G Cu2G 1_555 1_555

#END
