
#######################################################################
#
#                 Cambridge Crystallographic Data Centre
#                                CCDC 
#
#######################################################################
#
# If this CIF has been generated from an entry in the Cambridge 
# Structural Database, then it will include bibliographic, chemical, 
# crystal, experimental, refinement or atomic coordinate data resulting 
# from the CCDC's data processing and validation procedures.
#
#######################################################################

data_IHAZOH
_chemical_formula_moiety         '(C24 H24 Cl1 Fe3 O19)n'
_symmetry_cell_setting           cubic
_symmetry_space_group_name_H-M   'P a -3'
_symmetry_Int_Tables_number      205
_space_group_name_Hall           '-P 2ac 2ab 3'
loop_
_symmetry_equiv_pos_site_id
_symmetry_equiv_pos_as_xyz
1 x,y,z
2 1/2-x,-y,1/2+z
3 -x,1/2+y,1/2-z
4 1/2+x,1/2-y,-z
5 z,x,y
6 1/2+z,1/2-x,-y
7 1/2-z,-x,1/2+y
8 -z,1/2+x,1/2-y
9 y,z,x
10 -y,1/2+z,1/2-x
11 1/2+y,1/2-z,-x
12 1/2-y,-z,1/2+x
13 -x,-y,-z
14 1/2+x,y,1/2-z
15 x,1/2-y,1/2+z
16 1/2-x,1/2+y,z
17 -z,-x,-y
18 1/2-z,1/2+x,y
19 1/2+z,x,1/2-y
20 z,1/2-x,1/2+y
21 -y,-z,-x
22 y,1/2-z,1/2+x
23 1/2-y,1/2+z,x
24 1/2+y,z,1/2-x
_cell_length_a                   19.2108(5)
_cell_length_b                   19.2108(5)
_cell_length_c                   19.2108(5)
_cell_angle_alpha                90
_cell_angle_beta                 90
_cell_angle_gamma                90
_cell_volume                     7089.84
loop_
_atom_site_label
_atom_site_type_symbol
_atom_site_fract_x
_atom_site_fract_y
_atom_site_fract_z
_atom_site_U_iso_or_equiv
_atom_site_thermal_displace_type
Fe1 Fe 0.85955(3) 0.25738(3) 0.10740(3) 0.0187 Uani
C1 C 0.7681(3) 0.4431(3) -0.1731(3) 0.0417 Uani
H1 H 0.7424 0.4809 -0.1891 0.0500 Uiso
C2 C 0.7706(3) 0.4296(3) -0.1028(3) 0.0353 Uani
H2 H 0.7466 0.4577 -0.0715 0.0420 Uiso
C3 C 0.8097(3) 0.3734(2) -0.0790(2) 0.0250 Uani
C4 C 0.8441(2) 0.3308(2) -0.1256(2) 0.0223 Uani
H3 H 0.8700 0.2932 -0.1095 0.0270 Uiso
C5 C 0.8399(3) 0.3441(2) -0.1967(2) 0.0240 Uani
C6 C 0.8031(3) 0.4015(3) -0.2202(3) 0.0330 Uani
H4 H 0.8019 0.4119 -0.2675 0.0400 Uiso
C7 C 0.8117(2) 0.3570(2) -0.0029(2) 0.0220 Uani
C8 C 0.8710(2) 0.2938(2) -0.2467(2) 0.0230 Uani
O1 O 0.84928(18) 0.30658(18) 0.01617(17) 0.0280 Uani
O2 O 0.88563(19) 0.17178(19) 0.04673(18) 0.0322 Uani
O3 O 0.77604(19) 0.39451(18) 0.03761(17) 0.0297 Uani
O5 O 0.8670(2) 0.30826(18) -0.31067(17) 0.0331 Uani
O7 O 0.89845(19) 0.23927(17) -0.22286(18) 0.0307 Uani
O8 O 0.83642(16) 0.33642(16) 0.16358(16) 0.0197 Uani
Fe1G Fe 0.89260(3) 0.35955(3) 0.24262(3) 0.0187 Uani
Fe1J Fe 0.75738(3) 0.39260(3) 0.14045(3) 0.0187 Uani
Fe1N Fe 0.85955(3) 0.24262(3) -0.39260(3) 0.0187 Uani
Fe1P Fe 0.89260(3) 0.14045(3) -0.25738(3) 0.0187 Uani
Fe1Q Fe 1.39260(3) 0.35955(3) 0.25738(3) 0.0187 Uani
Fe1U Fe 1.25738(3) 0.39260(3) 0.35955(3) 0.0187 Uani
Fe1T Fe 0.74262(3) 0.89260(3) 0.14045(3) 0.0187 Uani
Fe1O Fe 0.64045(3) 0.75738(3) 0.10740(3) 0.0187 Uani
C1G C 1.1731(3) 0.2681(3) 0.0569(3) 0.0417 Uani
C1J C 0.9431(3) 0.6731(3) 0.2319(3) 0.0417 Uani
H1G H 1.1891 0.2424 0.0191 0.0500 Uiso
H1J H 0.9809 0.6891 0.2576 0.0500 Uiso
C2G C 1.1028(3) 0.2706(3) 0.0704(3) 0.0353 Uani
C2J C 0.9296(3) 0.6028(3) 0.2294(3) 0.0353 Uani
H2G H 1.0715 0.2466 0.0423 0.0420 Uiso
H2J H 0.9577 0.5715 0.2534 0.0420 Uiso
C3G C 1.0790(2) 0.3097(3) 0.1266(2) 0.0250 Uani
C3J C 0.8734(2) 0.5790(2) 0.1903(3) 0.0250 Uani
C4G C 1.1256(2) 0.3441(2) 0.1692(2) 0.0223 Uani
C4J C 0.8308(2) 0.6256(2) 0.1559(2) 0.0223 Uani
H3G H 1.1095 0.3700 0.2068 0.0270 Uiso
H3J H 0.7932 0.6095 0.1300 0.0270 Uiso
C5G C 1.1967(2) 0.3399(3) 0.1559(2) 0.0240 Uani
C5J C 0.8441(2) 0.6967(2) 0.1601(3) 0.0240 Uani
C6G C 1.2202(3) 0.3031(3) 0.0985(3) 0.0330 Uani
C6J C 0.9015(3) 0.7202(3) 0.1969(3) 0.0330 Uani
H4G H 1.2675 0.3019 0.0881 0.0400 Uiso
H4J H 0.9119 0.7675 0.1981 0.0400 Uiso
C7G C 1.0029(2) 0.3117(2) 0.1430(2) 0.0220 Uani
C7J C 0.8570(2) 0.5029(2) 0.1883(2) 0.0220 Uani
C8G C 1.2467(2) 0.3710(2) 0.2062(2) 0.0230 Uani
C8J C 0.7938(2) 0.7467(2) 0.1290(2) 0.0230 Uani
O1G O 0.98383(17) 0.34928(18) 0.19342(18) 0.0280 Uani
O1J O 0.80658(18) 0.48383(17) 0.15072(18) 0.0280 Uani
O2G O 0.95327(18) 0.38563(19) 0.32822(19) 0.0322 Uani
O2J O 0.67178(19) 0.45327(18) 0.11437(19) 0.0322 Uani
O3G O 0.96239(17) 0.27604(19) 0.10549(18) 0.0297 Uani
O3J O 0.89451(18) 0.46239(17) 0.22396(19) 0.0297 Uani
O5G O 1.31067(17) 0.3670(2) 0.19174(18) 0.0331 Uani
O5N O 0.8670(2) 0.19174(18) 0.18933(17) 0.0331 Uani
O5Q O 0.81067(17) 0.3670(2) 0.30826(18) 0.0331 Uani
O5T O 0.69174(18) 0.31067(17) 0.1330(2) 0.0331 Uani
O5J O 0.80826(18) 0.81067(17) 0.1330(2) 0.0331 Uani
O7G O 1.22286(18) 0.39845(19) 0.26073(17) 0.0307 Uani
O7N O 0.89845(19) 0.26073(17) 0.27714(18) 0.0307 Uani
O7T O 0.76073(17) 0.22286(18) 0.10155(19) 0.0307 Uani
O7Q O 0.72286(18) 0.39845(19) 0.23927(17) 0.0307 Uani
O7J O 0.73927(17) 0.72286(18) 0.10155(19) 0.0307 Uani
O4 O 0.8648(3) 0.5528(3) -0.0070(3) 0.0720 Uani
O6 O 0.9440(3) 0.4440(3) 0.0560(3) 0.0670 Uani
O9 O 0.7865(2) 0.0631(2) 0.0208(2) 0.0470 Uani
Cl1 Cl 0.9686(11) 0.0823(12) 0.1178(11) 0.1627 Uani
loop_
_atom_site_aniso_label
_atom_site_aniso_U_11
_atom_site_aniso_U_22
_atom_site_aniso_U_33
_atom_site_aniso_U_23
_atom_site_aniso_U_13
_atom_site_aniso_U_12
Fe1 0.0194(3) 0.0196(3) 0.0170(3) 0.0011(2) -0.0003(2) -0.0003(2)
C1 0.064(4) 0.033(3) 0.028(3) 0.004(2) -0.008(3) 0.025(3)
C2 0.049(3) 0.031(3) 0.026(2) -0.002(2) 0.000(2) 0.013(2)
C3 0.032(2) 0.025(2) 0.018(2) 0.0018(17) -0.0016(18) 0.0014(19)
C4 0.026(2) 0.020(2) 0.021(2) 0.0005(16) 0.0005(17) 0.0014(17)
C5 0.034(2) 0.020(2) 0.018(2) -0.0017(17) -0.0019(18) 0.0025(18)
C6 0.051(3) 0.028(2) 0.020(2) 0.0020(19) -0.002(2) 0.006(2)
C7 0.025(2) 0.024(2) 0.017(2) 0.0004(17) -0.0038(17) -0.0026(17)
C8 0.028(2) 0.020(2) 0.021(2) -0.0044(17) -0.0040(17) -0.0068(17)
O1 0.0341(19) 0.0307(18) 0.0193(16) 0.0040(13) -0.0002(13) 0.0057(15)
O2 0.038(2) 0.0307(18) 0.0278(18) -0.0075(14) 0.0018(15) 0.0060(15)
O3 0.040(2) 0.0314(18) 0.0178(16) -0.0025(13) 0.0024(14) 0.0073(15)
O5 0.056(2) 0.0240(17) 0.0194(16) -0.0036(13) 0.0008(16) -0.0024(16)
O7 0.041(2) 0.0231(17) 0.0279(17) -0.0070(14) -0.0069(15) 0.0035(15)
O8 0.0197(11) 0.0197(11) 0.0197(11) 0.0002(12) 0.0002(12) -0.0002(12)
Fe1G 0.017 0.0194 0.0196 0.0003 0.0011 0.0003
Fe1J 0.0196 0.017 0.0194 -0.0003 0.0003 -0.0011
Fe1N 0.0194 0.0196 0.017 -0.0011 -0.0003 0.0003
Fe1P 0.017 0.0194 0.0196 -0.0003 0.0011 -0.0003
Fe1Q 0.017 0.0194 0.0196 -0.0003 -0.0011 0.0003
Fe1U 0.0196 0.017 0.0194 0.0003 -0.0003 -0.0011
Fe1T 0.0196 0.017 0.0194 -0.0003 -0.0003 0.0011
Fe1O 0.0194 0.0196 0.017 0.0011 0.0003 0.0003
C1G 0.028 0.064 0.033 -0.025 0.004 0.008
C1J 0.033 0.028 0.064 -0.008 -0.025 -0.004
C2G 0.026 0.049 0.031 -0.013 -0.002 0
C2J 0.031 0.026 0.049 0 -0.013 0.002
C3G 0.018 0.032 0.025 -0.0014 0.0018 0.0016
C3J 0.025 0.018 0.032 -0.0016 -0.0014 -0.0018
C4G 0.021 0.026 0.02 -0.0014 0.0005 -0.0005
C4J 0.02 0.021 0.026 0.0005 -0.0014 -0.0005
C5G 0.018 0.034 0.02 -0.0025 -0.0017 0.0019
C5J 0.02 0.018 0.034 -0.0019 -0.0025 0.0017
C6G 0.02 0.051 0.028 -0.006 0.002 0.002
C6J 0.028 0.02 0.051 -0.002 -0.006 -0.002
C7G 0.017 0.025 0.024 0.0026 0.0004 0.0038
C7J 0.024 0.017 0.025 -0.0038 0.0026 -0.0004
C8G 0.021 0.028 0.02 0.0068 -0.0044 0.004
C8J 0.02 0.021 0.028 -0.004 0.0068 0.0044
O1G 0.0193 0.0341 0.0307 -0.0057 0.004 0.0002
O1J 0.0307 0.0193 0.0341 -0.0002 -0.0057 -0.004
O2G 0.0278 0.038 0.0307 -0.006 -0.0075 -0.0018
O2J 0.0307 0.0278 0.038 0.0018 -0.006 0.0075
O3G 0.0178 0.04 0.0314 -0.0073 -0.0025 -0.0024
O3J 0.0314 0.0178 0.04 0.0024 -0.0073 0.0025
O5G 0.0194 0.056 0.024 0.0024 -0.0036 -0.0008
O5N 0.056 0.024 0.0194 0.0036 0.0008 0.0024
O5Q 0.0194 0.056 0.024 -0.0024 0.0036 -0.0008
O5T 0.024 0.0194 0.056 0.0008 -0.0024 -0.0036
O5J 0.024 0.0194 0.056 0.0008 0.0024 0.0036
O7G 0.0279 0.041 0.0231 -0.0035 -0.007 0.0069
O7N 0.041 0.0231 0.0279 0.007 -0.0069 -0.0035
O7T 0.0231 0.0279 0.041 -0.0069 0.0035 -0.007
O7Q 0.0279 0.041 0.0231 0.0035 0.007 0.0069
O7J 0.0231 0.0279 0.041 -0.0069 -0.0035 0.007
O4 0.087(4) 0.067(3) 0.062(3) 0.004(3) 0.000(3) -0.005(3)
O6 0.067(2) 0.067(2) 0.067(2) -0.002(3) -0.002(3) 0.002(3)
O9 0.050(3) 0.030(2) 0.061(3) -0.0059(19) 0.005(2) -0.0115(18)
Cl1 0.136(14) 0.162(14) 0.19(2) 0.049(14) 0.026(11) 0.059(10)
loop_
_geom_bond_atom_site_label_1
_geom_bond_atom_site_label_2
_geom_bond_site_symmetry_1
_geom_bond_site_symmetry_2
Fe1 O1 1_555 1_555
C1 H1 1_555 1_555
C2 C1 1_555 1_555
H2 C2 1_555 1_555
C3 C2 1_555 1_555
C4 C3 1_555 1_555
H3 C4 1_555 1_555
C5 C4 1_555 1_555
C6 C1 1_555 1_555
H4 C6 1_555 1_555
C7 C3 1_555 1_555
C8 C5 1_555 1_555
O1 C7 1_555 1_555
O2 Fe1 1_555 1_555
O3 C7 1_555 1_555
O5 C8 1_555 1_555
O7 C8 1_555 1_555
O8 Fe1 1_555 1_555
Fe1G O8 1_555 1_555
Fe1J O3 1_555 1_555
Fe1N O5 1_555 1_555
Fe1P O7 1_555 1_555
Fe1Q O5G 1_555 1_555
Fe1U O7G 1_555 1_555
Fe1T O5J 1_555 1_555
Fe1O O7J 1_555 1_555
C1G H1G 1_555 1_555
C1J H1J 1_555 1_555
C2G C1G 1_555 1_555
C2J C1J 1_555 1_555
H2G C2G 1_555 1_555
H2J C2J 1_555 1_555
C3G C2G 1_555 1_555
C3J C2J 1_555 1_555
C4G C3G 1_555 1_555
C4J C3J 1_555 1_555
H3G C4G 1_555 1_555
H3J C4J 1_555 1_555
C5G C4G 1_555 1_555
C5J C4J 1_555 1_555
C6G C1G 1_555 1_555
C6J C1J 1_555 1_555
H4G C6G 1_555 1_555
H4J C6J 1_555 1_555
C7G C3G 1_555 1_555
C7J C3J 1_555 1_555
C8G C5G 1_555 1_555
C8J C5J 1_555 1_555
O1G Fe1G 1_555 1_555
O1J Fe1J 1_555 1_555
O2G Fe1G 1_555 1_555
O2J Fe1J 1_555 1_555
O3G Fe1 1_555 1_555
O3J Fe1G 1_555 1_555
O5G C8G 1_555 1_555
O5N Fe1 1_555 1_555
O5Q Fe1G 1_555 1_555
O5T Fe1J 1_555 1_555
O5J C8J 1_555 1_555
O7G C8G 1_555 1_555
O7N Fe1G 1_555 1_555
O7T Fe1 1_555 1_555
O7Q Fe1J 1_555 1_555
O7J C8J 1_555 1_555
C5 C6 1_555 1_555
O8 Fe1J 1_555 1_555
C5G C6G 1_555 1_555
C5J C6J 1_555 1_555
C7G O1G 1_555 1_555
C7G O3G 1_555 1_555
C7J O1J 1_555 1_555
C7J O3J 1_555 1_555

#END
