
#######################################################################
#
#                 Cambridge Crystallographic Data Centre
#                                CCDC 
#
#######################################################################
#
# If this CIF has been generated from an entry in the Cambridge 
# Structural Database, then it will include bibliographic, chemical, 
# crystal, experimental, refinement or atomic coordinate data resulting 
# from the CCDC's data processing and validation procedures.
#
#######################################################################

data_KEPPIF
_chemical_formula_moiety         '(C13 H32 O34 Zn6 4+)n'
_symmetry_cell_setting           cubic
_symmetry_space_group_name_H-M   'P 21 3'
_symmetry_Int_Tables_number      198
_space_group_name_Hall           'P 2ac 2ab 3'
loop_
_symmetry_equiv_pos_site_id
_symmetry_equiv_pos_as_xyz
1 x,y,z
2 1/2+x,1/2-y,-z
3 -x,1/2+y,1/2-z
4 1/2-x,-y,1/2+z
5 z,x,y
6 1/2+z,1/2-x,-y
7 -z,1/2+x,1/2-y
8 1/2-z,-x,1/2+y
9 y,z,x
10 1/2+y,1/2-z,-x
11 -y,1/2+z,1/2-x
12 1/2-y,-z,1/2+x
_cell_length_a                   16.807(8)
_cell_length_b                   16.807(8)
_cell_length_c                   16.807(8)
_cell_angle_alpha                90
_cell_angle_beta                 90
_cell_angle_gamma                90
_cell_volume                     4747.56
loop_
_atom_site_label
_atom_site_type_symbol
_atom_site_fract_x
_atom_site_fract_y
_atom_site_fract_z
_atom_site_U_iso_or_equiv
_atom_site_thermal_displace_type
C1 C 0.8208(14) 0.3910(14) 0.3413(16) 0.0400 Uani
C2 C 0.8760(12) 0.4573(12) 0.3021(14) 0.0327 Uani
C3 C 0.9467(14) 0.4140(13) 0.2623(12) 0.0243 Uani
C4 C 1.0424(14) 0.4576(14) 0.5424(14) 0.0350 Uiso
C5 C 0.9904(15) 0.3864(15) 0.5734(15) 0.0443 Uani
O1 O 0.7885(10) 0.3434(8) 0.2944(10) 0.0400 Uani
O2 O 0.9046(8) 0.5067(8) 0.3642(9) 0.0337 Uani
O3 O 0.8144(11) 0.3901(12) 0.4148(9) 0.0563 Uani
O4 O 1.0163(9) 0.4335(10) 0.2884(10) 0.0480 Uani
O5 O 0.9932(8) 0.5068(8) 0.4932(8) 0.0270 Uani
O6 O 0.9351(9) 0.3642(10) 0.2102(10) 0.0430 Uani
O7 O 0.7518(12) 0.6044(14) 0.3415(14) 0.1003 Uani
O8 O 0.9214(10) 0.3789(10) 0.5489(11) 0.0520 Uani
O9 O 1.0260(11) 0.3346(12) 0.6168(13) 0.0830 Uani
O10 O 1.1272(15) 0.3310(15) 0.7687(12) 0.1220 Uani
Zn1 Zn 0.82182(17) 0.32182(17) 0.17818(17) 0.0254 Uani
Zn2 Zn 0.87464(18) 0.47271(18) 0.48276(17) 0.0308 Uani
Zn3 Zn 0.87119(18) 0.62881(18) 0.37119(18) 0.0343 Uani
Zn4 Zn 1.1475(2) 0.3525(2) 0.6475(2) 0.0680 Uani
C1F C 0.6587(16) 0.3208(14) 0.1090(14) 0.0400 Uani
C1I C 0.8910(14) 0.1587(16) 0.1792(14) 0.0400 Uani
C2F C 0.6979(14) 0.3760(12) 0.0427(12) 0.0327 Uani
C2I C 0.9573(12) 0.1979(14) 0.1240(12) 0.0327 Uani
C3F C 0.7377(12) 0.4467(14) 0.0860(13) 0.0243 Uani
C3I C 0.9140(13) 0.2377(12) 0.0533(14) 0.0243 Uani
C5E C 1.0734(15) 0.5096(15) 0.6136(15) 0.0443 Uani
C5K C 1.1136(15) 0.4266(15) 0.4904(15) 0.0443 Uani
O1F O 0.7056(10) 0.2885(10) 0.1566(8) 0.0400 Uani
O1I O 0.8434(8) 0.2056(10) 0.2115(10) 0.0400 Uani
O2F O 0.6358(9) 0.4046(8) -0.0067(8) 0.0337 Uani
O2I O 1.0067(8) 0.1358(9) 0.0954(8) 0.0337 Uani
O2E O 0.8642(9) 0.5954(8) 0.4933(8) 0.0337 Uani
O2K O 0.9933(8) 0.6358(9) 0.4046(8) 0.0337 Uani
O2H O 0.5067(8) 0.3642(9) -0.0954(8) 0.0337 Uani
O2B O 1.0954(8) 0.0067(8) 0.1358(9) 0.0337 Uani
O3F O 0.5852(9) 0.3144(11) 0.1099(12) 0.0563 Uani
O3I O 0.8901(12) 0.0852(9) 0.1856(11) 0.0563 Uani
O4F O 0.7116(10) 0.5163(9) 0.0665(10) 0.0480 Uani
O4I O 0.9335(10) 0.2116(10) -0.0163(9) 0.0480 Uani
O4E O 0.7884(10) 0.4837(9) 0.5665(10) 0.0480 Uani
O4H O 0.4335(10) 0.2884(10) 0.0163(9) 0.0480 Uani
O4B O 0.9837(9) -0.0665(10) 0.2116(10) 0.0480 Uani
O5C O 0.5068(8) 0.4932(8) -0.0068(8) 0.0270 Uani
O5B O 1.0068(8) 0.0068(8) 0.0068(8) 0.0270 Uani
O6F O 0.7898(10) 0.4351(9) 0.1358(10) 0.0430 Uani
O6I O 0.8642(10) 0.2898(10) 0.0649(9) 0.0430 Uani
O7E O 0.8415(14) 0.7482(12) 0.3956(14) 0.1003 Uani
O7K O 0.8956(14) 0.6585(14) 0.2518(12) 0.1003 Uani
O8E O 1.0489(11) 0.5786(10) 0.6211(10) 0.0520 Uani
O8K O 1.1211(10) 0.4511(11) 0.4214(10) 0.0520 Uani
O8F O 0.4511(11) 0.4214(10) 0.1211(10) 0.0520 Uani
O8I O 0.8789(10) -0.0489(11) 0.0786(10) 0.0520 Uani
O9E O 1.1168(13) 0.4740(11) 0.6654(12) 0.0830 Uani
O9K O 1.1654(12) 0.3832(13) 0.5260(11) 0.0830 Uani
O10E O 1.2687(12) 0.3728(15) 0.6690(15) 0.1220 Uani
O10K O 1.1690(15) 0.2313(12) 0.6272(15) 0.1220 Uani
Zn2F Zn 0.51724(17) 0.37464(18) 0.02729(18) 0.0308 Uani
Zn2I Zn 0.97271(18) 0.01724(17) 0.12536(18) 0.0308 Uani
Zn2K Zn 1.02729(18) 0.51724(17) 0.37464(18) 0.0308 Uani
Zn2E Zn 0.98276(17) 0.62536(18) 0.52729(18) 0.0308 Uani
Zn2C Zn 0.62536(18) 0.52729(18) -0.01724(17) 0.0308 Uani
Zn2G Zn 1.01724(17) 0.12536(18) -0.02729(18) 0.0308 Uani
Zn3C Zn 0.62881(18) 0.37119(18) -0.12881(18) 0.0343 Uani
Zn3B Zn 1.12881(18) 0.12881(18) 0.12881(18) 0.0343 Uani
O11 O 0.810(3) 0.204(3) -0.126(3) 0.1200 Uiso
O12 O 0.872(4) 0.576(3) 0.116(4) 0.0400 Uiso
O13 O 0.800(4) 0.696(4) 0.035(4) 0.0700 Uiso
O14 O 0.799(12) 0.178(11) 0.448(11) 0.0900 Uiso
O15 O 0.977(9) 0.261(8) 0.407(7) 0.1100 Uiso
O16 O 0.977(6) 0.179(6) 0.507(6) 0.0800 Uiso
loop_
_atom_site_aniso_label
_atom_site_aniso_U_11
_atom_site_aniso_U_22
_atom_site_aniso_U_33
_atom_site_aniso_U_23
_atom_site_aniso_U_13
_atom_site_aniso_U_12
C1 0.032(14) 0.028(14) 0.060(19) -0.009(13) 0.015(14) -0.016(13)
C2 0.022(12) 0.020(12) 0.056(16) -0.016(12) 0.026(13) -0.019(11)
C3 0.045(16) 0.013(11) 0.015(12) 0.002(10) 0.009(11) 0.011(11)
C5 0.045(17) 0.048(17) 0.040(15) 0.002(14) -0.016(14) 0.008(15)
O1 0.058(11) 0.017(8) 0.045(10) -0.016(8) 0.008(9) -0.007(8)
O2 0.033(9) 0.026(9) 0.042(10) -0.018(8) -0.003(8) -0.014(7)
O3 0.069(13) 0.078(14) 0.022(9) 0.006(10) 0.020(10) -0.002(12)
O4 0.023(8) 0.057(12) 0.064(12) -0.021(10) 0.018(9) -0.029(9)
O5 0.027(6) 0.027(6) 0.027(6) 0.000(7) 0.000(7) 0.000(7)
O6 0.028(9) 0.048(11) 0.053(11) -0.027(10) 0.007(8) -0.007(9)
O7 0.061(14) 0.12(2) 0.12(2) 0.028(17) -0.031(14) 0.008(14)
O8 0.033(9) 0.057(12) 0.066(12) 0.025(10) -0.007(9) 0.013(9)
O9 0.040(11) 0.087(16) 0.122(18) 0.053(15) -0.030(13) 0.003(12)
O10 0.16(3) 0.14(2) 0.066(15) 0.065(16) 0.029(17) 0.07(2)
Zn1 0.0254(12) 0.0254(12) 0.0254(12) -0.0012(15) -0.0012(15) 0.0012(15)
Zn2 0.0332(18) 0.0320(18) 0.0272(17) -0.0041(15) -0.0001(15) -0.0011(16)
Zn3 0.0343(14) 0.0343(14) 0.0343(14) -0.0017(16) 0.0017(16) -0.0017(16)
Zn4 0.068(2) 0.068(2) 0.068(2) 0.016(2) -0.016(2) 0.016(2)
C1F 0.06 0.032 0.028 0.016 -0.009 -0.015
C1I 0.028 0.06 0.032 0.015 0.016 0.009
C2F 0.056 0.022 0.02 0.019 -0.016 -0.026
C2I 0.02 0.056 0.022 0.026 0.019 0.016
C3F 0.015 0.045 0.013 -0.011 0.002 -0.009
C3I 0.013 0.015 0.045 0.009 -0.011 -0.002
C5E 0.04 0.045 0.048 0.008 -0.002 0.016
C5K 0.048 0.04 0.045 0.016 -0.008 0.002
O1F 0.045 0.058 0.017 0.007 -0.016 -0.008
O1I 0.017 0.045 0.058 0.008 0.007 0.016
O2F 0.042 0.033 0.026 0.014 -0.018 0.003
O2I 0.026 0.042 0.033 -0.003 0.014 0.018
O2E 0.042 0.033 0.026 -0.014 0.018 0.003
O2K 0.026 0.042 0.033 0.003 0.014 -0.018
O2H 0.026 0.042 0.033 -0.003 -0.014 -0.018
O2B 0.033 0.026 0.042 0.018 -0.003 0.014
O3F 0.022 0.069 0.078 0.002 0.006 -0.02
O3I 0.078 0.022 0.069 0.02 0.002 -0.006
O4F 0.064 0.023 0.057 0.029 -0.021 -0.018
O4I 0.057 0.064 0.023 0.018 0.029 0.021
O4E 0.064 0.023 0.057 -0.029 0.021 -0.018
O4H 0.057 0.064 0.023 0.018 -0.029 -0.021
O4B 0.023 0.057 0.064 0.021 0.018 0.029
O5C 0.027 0.027 0.027 0 0 0
O5B 0.027 0.027 0.027 0 0 0
O6F 0.053 0.028 0.048 0.007 -0.027 -0.007
O6I 0.048 0.053 0.028 0.007 0.007 0.027
O7E 0.12 0.061 0.12 0.008 -0.028 0.031
O7K 0.12 0.12 0.061 0.031 -0.008 0.028
O8E 0.066 0.033 0.057 0.013 -0.025 0.007
O8K 0.057 0.066 0.033 0.007 -0.013 0.025
O8F 0.066 0.033 0.057 -0.013 0.025 0.007
O8I 0.057 0.066 0.033 -0.007 -0.013 -0.025
O9E 0.122 0.04 0.087 0.003 -0.053 0.03
O9K 0.087 0.122 0.04 0.03 -0.003 0.053
O10E 0.066 0.16 0.14 0.07 -0.065 -0.029
O10K 0.14 0.066 0.16 -0.029 -0.07 0.065
Zn2F 0.0272 0.0332 0.032 0.0011 -0.0041 0.0001
Zn2I 0.032 0.0272 0.0332 -0.0001 0.0011 0.0041
Zn2K 0.032 0.0272 0.0332 0.0001 0.0011 -0.0041
Zn2E 0.0272 0.0332 0.032 -0.0011 0.0041 0.0001
Zn2C 0.0332 0.032 0.0272 0.0041 0.0001 -0.0011
Zn2G 0.0272 0.0332 0.032 0.0011 0.0041 -0.0001
Zn3C 0.0343 0.0343 0.0343 0.0017 -0.0017 -0.0017
Zn3B 0.0343 0.0343 0.0343 0.0017 0.0017 0.0017
loop_
_geom_bond_atom_site_label_1
_geom_bond_atom_site_label_2
_geom_bond_site_symmetry_1
_geom_bond_site_symmetry_2
C1 C2 1_555 1_555
C2 C3 1_555 1_555
C3 O4 1_555 1_555
C4 C5 1_555 1_555
C5 O8 1_555 1_555
O1 C1 1_555 1_555
O2 C2 1_555 1_555
O3 C1 1_555 1_555
O4 Zn2K 1_555 1_555
O5 C4 1_555 1_555
O6 C3 1_555 1_555
O7 Zn3 1_555 1_555
O8 Zn2 1_555 1_555
O9 C5 1_555 1_555
O10 Zn4 1_555 1_555
Zn1 O1 1_555 1_555
Zn2 O2 1_555 1_555
Zn3 O2 1_555 1_555
Zn4 O9 1_555 1_555
C1F C2F 1_555 1_555
C1I C2I 1_555 1_555
C2F C3F 1_555 1_555
C2I C3I 1_555 1_555
C3F O4F 1_555 1_555
C3I O4I 1_555 1_555
C5E C4 1_555 1_555
C5K C4 1_555 1_555
O1F Zn1 1_555 1_555
O1I Zn1 1_555 1_555
O2F C2F 1_555 1_555
O2I C2I 1_555 1_555
O2E Zn2 1_555 1_555
O2K Zn3 1_555 1_555
O2H Zn2F 1_555 1_555
O2B Zn2I 1_555 1_555
O3F C1F 1_555 1_555
O3I C1I 1_555 1_555
O4F Zn2C 1_555 1_555
O4I Zn2G 1_555 1_555
O4E Zn2 1_555 1_555
O4H Zn2F 1_555 1_555
O4B Zn2I 1_555 1_555
O5C Zn2F 1_555 1_555
O5B Zn2I 1_555 1_555
O6F Zn1 1_555 1_555
O6I Zn1 1_555 1_555
O7E Zn3 1_555 1_555
O7K Zn3 1_555 1_555
O8E C5E 1_555 1_555
O8K C5K 1_555 1_555
O8F Zn2F 1_555 1_555
O8I Zn2I 1_555 1_555
O9E Zn4 1_555 1_555
O9K Zn4 1_555 1_555
O10E Zn4 1_555 1_555
O10K Zn4 1_555 1_555
Zn2F O2F 1_555 1_555
Zn2I O2I 1_555 1_555
Zn2K O2 1_555 1_555
Zn2E O5 1_555 1_555
Zn2C O2F 1_555 1_555
Zn2G O2I 1_555 1_555
Zn3C O2F 1_555 1_555
Zn3B O2I 1_555 1_555
O3 Zn2 1_555 1_555
O5 Zn2 1_555 1_555
O5 Zn2K 1_555 1_555
O6 Zn1 1_555 1_555
Zn3 O2E 1_555 1_555
C1F O1F 1_555 1_555
C1I O1I 1_555 1_555
C3F O6F 1_555 1_555
C3I O6I 1_555 1_555
C5E O9E 1_555 1_555
C5K O9K 1_555 1_555
O2E Zn2E 1_555 1_555
O2K Zn2K 1_555 1_555
O2K Zn2E 1_555 1_555
O2H Zn3C 1_555 1_555
O2B Zn3B 1_555 1_555
O3F Zn2F 1_555 1_555
O3I Zn2I 1_555 1_555
O5C Zn2C 1_555 1_555
O5B Zn2G 1_555 1_555
O8E Zn2E 1_555 1_555
O8K Zn2K 1_555 1_555

#END
