
#######################################################################
#
#                 Cambridge Crystallographic Data Centre
#                                CCDC 
#
#######################################################################
#
# If this CIF has been generated from an entry in the Cambridge 
# Structural Database, then it will include bibliographic, chemical, 
# crystal, experimental, refinement or atomic coordinate data resulting 
# from the CCDC's data processing and validation procedures.
#
#######################################################################

data_POSGUB
_chemical_formula_moiety         '(C20 H14 Co1 N4 O4)n'
_symmetry_cell_setting           orthorhombic
_symmetry_space_group_name_H-M   'P n n a'
_symmetry_Int_Tables_number      52
_space_group_name_Hall           '-P 2a 2bc'
loop_
_symmetry_equiv_pos_site_id
_symmetry_equiv_pos_as_xyz
1 x,y,z
2 1/2-x,-y,z
3 1/2-x,1/2+y,1/2-z
4 x,1/2-y,1/2-z
5 -x,-y,-z
6 1/2+x,y,-z
7 1/2+x,1/2-y,1/2+z
8 -x,1/2+y,1/2+z
_cell_length_a                   15.9834(15)
_cell_length_b                   15.2006(14)
_cell_length_c                   11.3984(11)
_cell_angle_alpha                90
_cell_angle_beta                 90
_cell_angle_gamma                90
_cell_volume                     2769.32
loop_
_atom_site_label
_atom_site_type_symbol
_atom_site_fract_x
_atom_site_fract_y
_atom_site_fract_z
C1 C 0.44756(14) 0.24425(14) 0.5847(2)
C2 C 0.52964(16) 0.21691(16) 0.6046(2)
H1 H 0.5394 0.1647 0.6450
C3 C 0.59557(15) 0.26519(17) 0.5660(2)
H2 H 0.6496 0.2452 0.5806
C4 C 0.58470(14) 0.34342(14) 0.5055(2)
C5 C 0.50282(14) 0.37207(15) 0.4877(2)
H3 H 0.4935 0.4248 0.4484
C6 C 0.43615(15) 0.32452(15) 0.5267(2)
H4 H 0.3823 0.3457 0.5146
C7 C 0.37645(14) 0.19226(14) 0.6276(2)
C8 C 0.24681(14) 0.15634(19) 0.6651(2)
H5 H 0.1887 0.1582 0.6662
C9 C 0.37312(14) 0.11710(14) 0.6942(2)
H6 H 0.4193 0.0852 0.7196
C10 C 0.65695(14) 0.39430(14) 0.4593(2)
Co1 Co 0.2500 -0.0000 0.82802(4)
N1 N 0.29139(12) 0.09623(11) 0.71759(17)
N2 N 0.29489(12) 0.21502(12) 0.60936(18)
H7 H 0.2775 0.2593 0.5692
O1 O 0.64228(11) 0.46140(12) 0.39679(17)
O2 O 0.73046(10) 0.37006(11) 0.48056(19)
C1A C 0.05244(14) -0.24425(14) 0.5847(2)
C2A C -0.02964(16) -0.21691(16) 0.6046(2)
H1A H -0.0394 -0.1647 0.6450
C3A C -0.09557(15) -0.26519(17) 0.5660(2)
H2A H -0.1496 -0.2452 0.5806
C4A C -0.08470(14) -0.34342(14) 0.5055(2)
C5A C -0.00282(14) -0.37207(15) 0.4877(2)
H3A H 0.0065 -0.4248 0.4484
C6A C 0.06385(15) -0.32452(15) 0.5267(2)
H4A H 0.1177 -0.3457 0.5146
C7A C 0.12355(14) -0.19226(14) 0.6276(2)
C8A C 0.25319(14) -0.15634(19) 0.6651(2)
H5A H 0.3113 -0.1582 0.6662
C9A C 0.12688(14) -0.11710(14) 0.6942(2)
H6A H 0.0807 -0.0852 0.7196
C10A C -0.15695(14) -0.39430(14) 0.4593(2)
N1A N 0.20861(12) -0.09623(11) 0.71759(17)
N2A N 0.20511(12) -0.21502(12) 0.60936(18)
H7A H 0.2225 -0.2593 0.5692
O1A O -0.14228(11) -0.46140(12) 0.39679(17)
O2A O -0.23046(10) -0.37006(11) 0.48056(19)
Co1F Co -0.2500 -0.5000 0.32802(4)
Co1F_2 Co 0.7500 0.5000 0.32802(4)
O1F O 0.14228(11) 0.03860(12) 0.89679(17)
O1G O 0.35772(11) -0.03860(12) 0.89679(17)
loop_
_geom_bond_atom_site_label_1
_geom_bond_atom_site_label_2
_geom_bond_site_symmetry_1
_geom_bond_site_symmetry_2
C1 C2 1_555 1_555
C2 H1 1_555 1_555
C3 C2 1_555 1_555
H2 C3 1_555 1_555
C4 C3 1_555 1_555
C5 C4 1_555 1_555
H3 C5 1_555 1_555
C6 C1 1_555 1_555
H4 C6 1_555 1_555
C7 C1 1_555 1_555
C8 H5 1_555 1_555
C9 C7 1_555 1_555
H6 C9 1_555 1_555
C10 C4 1_555 1_555
Co1 N1 1_555 1_555
N1 C8 1_555 1_555
N2 C7 1_555 1_555
H7 N2 1_555 1_555
O1 C10 1_555 1_555
O2 C10 1_555 1_555
C1A C2A 1_555 1_555
C2A H1A 1_555 1_555
C3A C2A 1_555 1_555
H2A C3A 1_555 1_555
C4A C3A 1_555 1_555
C5A C4A 1_555 1_555
H3A C5A 1_555 1_555
C6A C1A 1_555 1_555
H4A C6A 1_555 1_555
C7A C1A 1_555 1_555
C8A H5A 1_555 1_555
C9A C7A 1_555 1_555
H6A C9A 1_555 1_555
C10A C4A 1_555 1_555
N1A Co1 1_555 1_555
N2A C7A 1_555 1_555
H7A N2A 1_555 1_555
O1A C10A 1_555 1_555
O2A C10A 1_555 1_555
Co1F O1A 1_555 1_555
Co1F_2 O1 1_555 1_555
O1F Co1 1_555 1_555
O1G Co1 1_555 1_555
C5 C6 1_555 1_555
C8 N2 1_555 1_555
C9 N1 1_555 1_555
C5A C6A 1_555 1_555
C8A N1A 1_555 1_555
C8A N2A 1_555 1_555
C9A N1A 1_555 1_555

#END
