
#######################################################################
#
#                 Cambridge Crystallographic Data Centre
#                                CCDC 
#
#######################################################################
#
# If this CIF has been generated from an entry in the Cambridge 
# Structural Database, then it will include bibliographic, chemical, 
# crystal, experimental, refinement or atomic coordinate data resulting 
# from the CCDC's data processing and validation procedures.
#
#######################################################################

data_POSGAH
_chemical_formula_moiety         '(C20 H14 Cd1 N4 O4)n'
_symmetry_cell_setting           orthorhombic
_symmetry_space_group_name_H-M   'P n n a'
_symmetry_Int_Tables_number      52
_space_group_name_Hall           '-P 2a 2bc'
loop_
_symmetry_equiv_pos_site_id
_symmetry_equiv_pos_as_xyz
1 x,y,z
2 1/2-x,-y,z
3 1/2-x,1/2+y,1/2-z
4 x,1/2-y,1/2-z
5 -x,-y,-z
6 1/2+x,y,-z
7 1/2+x,1/2-y,1/2+z
8 -x,1/2+y,1/2+z
_cell_length_a                   16.1322(18)
_cell_length_b                   15.7981(18)
_cell_length_c                   11.6042(13)
_cell_angle_alpha                90
_cell_angle_beta                 90
_cell_angle_gamma                90
_cell_volume                     2957.42
loop_
_atom_site_label
_atom_site_type_symbol
_atom_site_fract_x
_atom_site_fract_y
_atom_site_fract_z
C1 C 0.64334(18) 0.4013(2) -0.0515(3)
C2 C 0.57298(18) 0.35150(18) 0.0006(3)
C3 C 0.5873(2) 0.2754(2) 0.0570(3)
H1 H 0.6414 0.2567 0.0676
C4 C 0.52162(19) 0.2267(2) 0.0977(3)
H2 H 0.5321 0.1761 0.1361
C5 C 0.43967(18) 0.25368(18) 0.0812(2)
C6 C 0.4254(2) 0.3305(2) 0.0263(3)
H3 H 0.3713 0.3494 0.0159
C7 C 0.49124(18) 0.3797(2) -0.0136(3)
H4 H 0.4809 0.4313 -0.0495
C8 C 0.37027(18) 0.20214(19) 0.1218(3)
C9 C 0.37134(19) 0.12614(19) 0.1809(2)
H5 H 0.4185 0.0962 0.2025
C10 C 0.2430(2) 0.1656(2) 0.1623(3)
H6 H 0.1857 0.1680 0.1698
Cd1 Cd 0.7500 0.5000 -0.17472(2)
N1 N 0.29016(16) 0.10222(16) 0.2025(2)
N2 N 0.28824(16) 0.22415(16) 0.1108(2)
H7 H 0.2696 0.2684 0.0764
O1 O 0.71710(13) 0.37680(14) -0.03653(17)
O2 O 0.62562(13) 0.46625(14) -0.10859(18)
C1A C 0.85666(18) 0.5987(2) -0.0515(3)
C2A C 0.92702(18) 0.64850(18) 0.0006(3)
C3A C 0.9127(2) 0.7246(2) 0.0570(3)
H1A H 0.8586 0.7433 0.0676
C4A C 0.97838(19) 0.7733(2) 0.0977(3)
H2A H 0.9679 0.8239 0.1361
C5A C 1.06033(18) 0.74632(18) 0.0812(2)
C6A C 1.0746(2) 0.6695(2) 0.0263(3)
H3A H 1.1287 0.6506 0.0159
C7A C 1.00876(18) 0.6203(2) -0.0136(3)
H4A H 1.0191 0.5687 -0.0495
C8A C 1.12973(18) 0.79786(19) 0.1218(3)
C9A C 1.12866(19) 0.87386(19) 0.1809(2)
H5A H 1.0815 0.9038 0.2025
C10A C 1.2570(2) 0.8344(2) 0.1623(3)
H6A H 1.3143 0.8320 0.1698
N1A N 1.20984(16) 0.89778(16) 0.2025(2)
N2A N 1.21176(16) 0.77585(16) 0.1108(2)
H7A H 1.2304 0.7316 0.0764
O1A O 0.78290(13) 0.62320(14) -0.03653(17)
O2A O 0.87438(13) 0.53375(14) -0.10859(18)
Cd1F Cd 0.2500 0.0000 0.32528(2)
Cd1F_2 Cd 1.2500 1.0000 0.32528(2)
N1F N 0.79016(16) 0.39778(16) -0.2975(2)
N1G N 0.70984(16) 0.60222(16) -0.2975(2)
loop_
_geom_bond_atom_site_label_1
_geom_bond_atom_site_label_2
_geom_bond_site_symmetry_1
_geom_bond_site_symmetry_2
C1 C2 1_555 1_555
C2 C3 1_555 1_555
C3 H1 1_555 1_555
C4 C3 1_555 1_555
H2 C4 1_555 1_555
C5 C4 1_555 1_555
C6 C5 1_555 1_555
H3 C6 1_555 1_555
C7 C2 1_555 1_555
H4 C7 1_555 1_555
C8 C5 1_555 1_555
C9 C8 1_555 1_555
H5 C9 1_555 1_555
C10 H6 1_555 1_555
Cd1 O1 1_555 1_555
N1 C9 1_555 1_555
N2 C8 1_555 1_555
H7 N2 1_555 1_555
O1 C1 1_555 1_555
O2 C1 1_555 1_555
C1A C2A 1_555 1_555
C2A C3A 1_555 1_555
C3A H1A 1_555 1_555
C4A C3A 1_555 1_555
H2A C4A 1_555 1_555
C5A C4A 1_555 1_555
C6A C5A 1_555 1_555
H3A C6A 1_555 1_555
C7A C2A 1_555 1_555
H4A C7A 1_555 1_555
C8A C5A 1_555 1_555
C9A C8A 1_555 1_555
H5A C9A 1_555 1_555
C10A H6A 1_555 1_555
N1A C9A 1_555 1_555
N2A C8A 1_555 1_555
H7A N2A 1_555 1_555
O1A Cd1 1_555 1_555
O2A Cd1 1_555 1_555
Cd1F N1 1_555 1_555
Cd1F_2 N1A 1_555 1_555
N1F Cd1 1_555 1_555
N1G Cd1 1_555 1_555
C6 C7 1_555 1_555
C10 N1 1_555 1_555
C10 N2 1_555 1_555
Cd1 O2 1_555 1_555
C1A O1A 1_555 1_555
C1A O2A 1_555 1_555
C6A C7A 1_555 1_555
C10A N1A 1_555 1_555
C10A N2A 1_555 1_555

#END
