
#######################################################################
#
#                 Cambridge Crystallographic Data Centre
#                                CCDC 
#
#######################################################################
#
# If this CIF has been generated from an entry in the Cambridge 
# Structural Database, then it will include bibliographic, chemical, 
# crystal, experimental, refinement or atomic coordinate data resulting 
# from the CCDC's data processing and validation procedures.
#
#######################################################################

data_POSGEL
_chemical_formula_moiety         '(C20 H16 Cd1 N4 O5)n'
_symmetry_cell_setting           monoclinic
_symmetry_space_group_name_H-M   'C c'
_symmetry_Int_Tables_number      9
_space_group_name_Hall           'C -2yc'
loop_
_symmetry_equiv_pos_site_id
_symmetry_equiv_pos_as_xyz
1 x,y,z
2 x,-y,1/2+z
3 1/2+x,1/2+y,z
4 1/2+x,1/2-y,1/2+z
_cell_length_a                   13.202(4)
_cell_length_b                   27.475(8)
_cell_length_c                   7.641(2)
_cell_angle_alpha                90
_cell_angle_beta                 123.254(4)
_cell_angle_gamma                90
_cell_volume                     2317.73
loop_
_atom_site_label
_atom_site_type_symbol
_atom_site_fract_x
_atom_site_fract_y
_atom_site_fract_z
_atom_site_U_iso_or_equiv
_atom_site_thermal_displace_type
C1 C -0.0750(9) 0.2836(5) -0.5026(14) 0.0699 Uani
H1 H -0.0529 0.3121 -0.5391 0.0840 Uiso
C2 C -0.1310(8) 0.2464(4) -0.6457(14) 0.0556 Uani
H2 H -0.1517 0.2506 -0.7823 0.0670 Uiso
C3 C -0.1567(7) 0.2026(3) -0.5868(12) 0.0520 Uani
C4 C -0.1300(7) 0.1975(3) -0.3849(14) 0.0433 Uani
H3 H -0.1500 0.1688 -0.3461 0.0520 Uiso
C5 C -0.0727(11) 0.2355(4) -0.2387(15) 0.0642 Uani
H4 H -0.0497 0.2313 -0.1008 0.0770 Uiso
C6 C -0.0518(9) 0.2780(4) -0.3019(14) 0.0612 Uani
C7 C -0.0005(9) 0.3215(3) -0.1547(15) 0.0482 Uani
C8 C 0.0445(9) 0.3257(4) 0.0491(15) 0.0539 Uani
H5 H 0.0540 0.2999 0.1357 0.0650 Uiso
C9 C 0.0458(8) 0.3962(3) -0.0477(13) 0.0520 Uani
H6 H 0.0558 0.4297 -0.0493 0.0620 Uiso
C10 C -0.2212(8) 0.1605(3) -0.7348(15) 0.0515 Uani
C11 C 0.6087(8) 0.5631(4) 0.6752(13) 0.0553 Uani
H7 H 0.5516 0.5874 0.6402 0.0660 Uiso
C12 C 0.7285(8) 0.5750(3) 0.7538(14) 0.0503 Uani
H8 H 0.7530 0.6073 0.7840 0.0610 Uiso
C13 C 0.8154(8) 0.5381(4) 0.7893(13) 0.0512 Uani
C14 C 0.7789(10) 0.4909(4) 0.7563(17) 0.0525 Uani
H9 H 0.8351 0.4663 0.7899 0.0630 Uiso
C15 C 0.6613(9) 0.4795(3) 0.6748(14) 0.0456 Uani
H10 H 0.6372 0.4474 0.6338 0.0550 Uiso
C16 C 0.5743(9) 0.5126(4) 0.6487(13) 0.0468 Uani
C17 C 0.4512(9) 0.4986(4) 0.5626(15) 0.0518 Uani
C18 C 0.4037(9) 0.4534(4) 0.5667(15) 0.0490 Uani
H11 H 0.4476 0.4246 0.6187 0.0590 Uiso
C19 C 0.2549(7) 0.5063(3) 0.4298(12) 0.0446 Uani
H12 H 0.1776 0.5195 0.3666 0.0530 Uiso
C20 C 0.9449(10) 0.5523(4) 0.8611(14) 0.0462 Uani
Cd1 Cd 0.15111(6) 0.402067(18) 0.43916(8) 0.0405 Uani
N1 N 0.0746(7) 0.3727(4) 0.1141(13) 0.0535 Uani
N2 N -0.0004(6) 0.3683(3) -0.2162(10) 0.0459 Uani
H13 H -0.0256 0.3778 -0.3410 0.0540 Uiso
N3 N 0.2834(8) 0.4584(3) 0.4824(13) 0.0465 Uani
N4 N 0.3556(6) 0.5314(3) 0.4836(9) 0.0466 Uani
H14 H 0.3601 0.5623 0.4713 0.0560 Uiso
O1 O -0.2680(6) 0.1722(2) -0.9324(9) 0.0588 Uani
O2 O -0.2264(6) 0.1219(3) -0.6915(12) 0.0502 Uani
O3 O 1.0109(7) 0.5237(3) 0.8500(14) 0.0595 Uani
O4 O 0.9733(5) 0.5962(3) 0.9221(9) 0.0564 Uani
Cd1A Cd 1.15111(6) 0.597933(18) 0.93916(8) 0.0405 Uani
Cd1C Cd -0.34889(6) 0.097933(18) -1.06084(8) 0.0405 Uani
O1C O 0.2320(6) 0.3278(2) 0.5676(9) 0.0588 Uani
O2C O 0.2736(6) 0.3781(3) 0.8085(12) 0.0502 Uani
O3A O 0.0109(7) 0.4763(3) 0.3500(14) 0.0595 Uani
O4A O -0.0267(5) 0.4038(3) 0.4221(9) 0.0564 Uani
O5 O 0.6269(16) 0.3332(7) 0.787(3) 0.0511 Uani
H15 H 0.6825 0.3427 0.7704 0.0610 Uiso
H16 H 0.6152 0.3546 0.8539 0.0610 Uiso
loop_
_atom_site_aniso_label
_atom_site_aniso_U_11
_atom_site_aniso_U_22
_atom_site_aniso_U_33
_atom_site_aniso_U_23
_atom_site_aniso_U_13
_atom_site_aniso_U_12
C1 0.069(6) 0.080(8) 0.047(5) -0.028(5) 0.023(5) -0.037(6)
C2 0.062(5) 0.069(6) 0.048(4) -0.017(5) 0.038(4) -0.018(5)
C3 0.039(4) 0.044(5) 0.035(4) -0.011(4) -0.004(3) -0.011(4)
C4 0.033(4) 0.031(5) 0.058(5) -0.008(4) 0.020(4) 0.001(4)
C5 0.080(7) 0.057(7) 0.039(4) -0.018(4) 0.022(5) -0.019(6)
C6 0.060(6) 0.049(6) 0.033(4) -0.006(4) -0.001(4) 0.006(5)
C7 0.066(5) 0.032(4) 0.062(5) -0.004(4) 0.045(5) -0.014(4)
C8 0.051(5) 0.042(6) 0.048(5) -0.015(4) 0.014(4) -0.008(4)
C9 0.051(4) 0.045(5) 0.043(4) -0.004(4) 0.015(4) -0.017(4)
C10 0.047(5) 0.027(5) 0.063(6) -0.009(4) 0.019(4) -0.016(4)
C11 0.046(4) 0.056(6) 0.044(4) 0.029(5) 0.012(3) 0.016(4)
C12 0.057(5) 0.038(5) 0.056(5) -0.010(4) 0.031(4) -0.013(4)
C13 0.052(5) 0.046(6) 0.044(5) -0.009(4) 0.019(4) -0.015(4)
C14 0.039(5) 0.049(7) 0.050(5) 0.010(5) 0.012(4) 0.015(5)
C15 0.050(5) 0.039(5) 0.047(4) -0.018(4) 0.026(4) -0.009(4)
C16 0.041(6) 0.048(6) 0.029(4) -0.002(4) 0.005(4) -0.013(5)
C17 0.042(5) 0.042(6) 0.056(5) 0.000(4) 0.017(4) -0.004(4)
C18 0.038(5) 0.045(6) 0.041(5) 0.013(4) 0.007(4) 0.002(4)
C19 0.039(4) 0.035(5) 0.041(4) 0.014(4) 0.010(3) 0.005(4)
C20 0.044(5) 0.056(7) 0.027(4) -0.006(4) 0.012(4) 0.009(5)
Cd1 0.0382(2) 0.0372(3) 0.0375(2) 0.0002(4) 0.01529(17) -0.0017(4)
N1 0.041(4) 0.062(6) 0.040(4) -0.012(4) 0.011(3) -0.024(4)
N2 0.040(3) 0.044(4) 0.043(3) 0.000(3) 0.016(3) -0.002(3)
N3 0.046(4) 0.030(4) 0.046(4) 0.012(3) 0.014(4) 0.007(4)
N4 0.042(4) 0.042(4) 0.034(3) 0.011(3) 0.007(3) 0.011(3)
O1 0.056(3) 0.042(3) 0.049(3) -0.012(3) 0.010(3) -0.015(3)
O2 0.045(4) 0.036(4) 0.056(4) -0.013(3) 0.019(3) -0.005(3)
O3 0.046(4) 0.045(5) 0.077(5) 0.005(4) 0.027(3) 0.008(4)
O4 0.043(3) 0.066(4) 0.051(3) -0.019(3) 0.020(3) -0.020(3)
Cd1A 0.0382 0.0372 0.0375 -0.0002 0.01529 0.0017
Cd1C 0.0382 0.0372 0.0375 -0.0002 0.01529 0.0017
O1C 0.056 0.042 0.049 0.012 0.01 0.015
O2C 0.045 0.036 0.056 0.013 0.019 0.005
O3A 0.046 0.045 0.077 -0.005 0.027 -0.008
O4A 0.043 0.066 0.051 0.019 0.02 0.02
O5 0.035(9) 0.040(10) 0.042(9) -0.002(9) -0.002(7) 0.015(8)
loop_
_geom_bond_atom_site_label_1
_geom_bond_atom_site_label_2
_geom_bond_site_symmetry_1
_geom_bond_site_symmetry_2
C1 H1 1_555 1_555
C2 C1 1_555 1_555
H2 C2 1_555 1_555
C3 C2 1_555 1_555
C4 C3 1_555 1_555
H3 C4 1_555 1_555
C5 C4 1_555 1_555
H4 C5 1_555 1_555
C6 C1 1_555 1_555
C7 C6 1_555 1_555
C8 C7 1_555 1_555
H5 C8 1_555 1_555
C9 H6 1_555 1_555
C10 C3 1_555 1_555
C11 H7 1_555 1_555
C12 C11 1_555 1_555
H8 C12 1_555 1_555
C13 C12 1_555 1_555
C14 C13 1_555 1_555
H9 C14 1_555 1_555
C15 C14 1_555 1_555
H10 C15 1_555 1_555
C16 C11 1_555 1_555
C17 C16 1_555 1_555
C18 C17 1_555 1_555
H11 C18 1_555 1_555
C19 H12 1_555 1_555
C20 C13 1_555 1_555
Cd1 N1 1_555 1_555
N1 C8 1_555 1_555
N2 C7 1_555 1_555
H13 N2 1_555 1_555
N3 C18 1_555 1_555
N4 C17 1_555 1_555
H14 N4 1_555 1_555
O1 C10 1_555 1_555
O2 C10 1_555 1_555
O3 C20 1_555 1_555
O4 C20 1_555 1_555
O5 H15 1_555 1_555
H16 O5 1_555 1_555
Cd1A O3 1_555 1_555
Cd1C O1 1_555 1_555
O1C Cd1 1_555 1_555
O2C Cd1 1_555 1_555
O3A Cd1 1_555 1_555
O4A Cd1 1_555 1_555
C5 C6 1_555 1_555
C9 N1 1_555 1_555
C9 N2 1_555 1_555
C15 C16 1_555 1_555
C19 N3 1_555 1_555
C19 N4 1_555 1_555
Cd1 N3 1_555 1_555
O2 Cd1C 1_555 1_555
O4 Cd1A 1_555 1_555

#END
