
#######################################################################
#
#                 Cambridge Crystallographic Data Centre
#                                CCDC 
#
#######################################################################
#
# If this CIF has been generated from an entry in the Cambridge 
# Structural Database, then it will include bibliographic, chemical, 
# crystal, experimental, refinement or atomic coordinate data resulting 
# from the CCDC's data processing and validation procedures.
#
#######################################################################

data_BADZAK
_chemical_formula_moiety         '(C32 H16 O16 Zn3 2-)n'
_symmetry_cell_setting           monoclinic
_symmetry_space_group_name_H-M   'C 2/c'
_symmetry_Int_Tables_number      15
_space_group_name_Hall           '-C 2yc'
loop_
_symmetry_equiv_pos_site_id
_symmetry_equiv_pos_as_xyz
1 x,y,z
2 -x,y,1/2-z
3 1/2+x,1/2+y,z
4 1/2-x,1/2+y,1/2-z
5 -x,-y,-z
6 x,-y,1/2+z
7 1/2-x,1/2-y,-z
8 1/2+x,1/2-y,1/2+z
_cell_length_a                   33.2338(17)
_cell_length_b                   9.7575(5)
_cell_length_c                   18.2013(7)
_cell_angle_alpha                90
_cell_angle_beta                 93.461(4)
_cell_angle_gamma                90
_cell_volume                     5891.53
loop_
_atom_site_label
_atom_site_type_symbol
_atom_site_fract_x
_atom_site_fract_y
_atom_site_fract_z
Zn1 Zn 0.152849(14) 0.30074(5) 0.48450(3)
Zn2 Zn 0.2500 0.2500 0.5000
O1 O 0.22652(9) 0.1887(3) 0.39891(15)
O2 O 0.15948(9) 0.1805(3) 0.39938(16)
O3 O 0.15393(9) -0.1890(3) 0.07496(16)
O4 O 0.20226(8) 0.4125(3) 0.50518(17)
O5 O 0.21626(8) -0.1169(3) 0.05596(16)
C1 C 0.18595(13) -0.1229(5) 0.0931(2)
O6 O 0.09639(10) 0.3485(4) 0.4632(2)
C2 C 0.22619(12) 0.6366(5) 0.4813(2)
C3 C 0.24973(14) 0.6392(5) 0.5471(3)
H1 H 0.2494 0.5653 0.5793
C4 C 0.19035(13) 0.0841(5) 0.2995(2)
C5 C 0.19972(14) 0.5168(5) 0.4624(3)
C6 C 0.19291(13) 0.1577(5) 0.3723(2)
C7 C 0.15524(14) 0.0322(5) 0.2698(3)
H2 H 0.1319 0.0413 0.2950
C8 C 0.18737(13) -0.0486(5) 0.1639(2)
C9 C 0.22645(15) 0.7486(5) 0.4354(3)
H3 H 0.2103 0.7485 0.3919
O7 O 0.17600(12) 0.5198(4) 0.4080(2)
C10 C 0.22307(13) 0.0053(5) 0.1935(2)
H4 H 0.2463 -0.0022 0.1678
C11 C 0.15367(14) -0.0339(6) 0.2028(3)
H5 H 0.1292 -0.0692 0.1837
C12 C 0.22448(14) 0.0701(5) 0.2608(3)
H6 H 0.2489 0.1050 0.2805
O8 O 0.10790(12) 0.4825(6) 0.5596(3)
C13 C 0.04081(16) 0.4669(7) 0.5044(3)
C14 C 0.08487(17) 0.4291(7) 0.5103(4)
C15 C 0.01479(18) 0.4111(8) 0.4529(4)
H7 H 0.0247 0.3489 0.4197
C16 C -0.02508(19) 0.4417(8) 0.4473(4)
H8 H -0.0418 0.4009 0.4109
O4F O 0.29774(8) 1.0875(3) 0.49482(17)
C2F C 0.27381(12) 0.8634(5) 0.5187(2)
C3F C 0.25027(14) 0.8608(5) 0.4529(3)
H1F H 0.2506 0.9347 0.4207
C5F C 0.30028(14) 0.9832(5) 0.5376(3)
C9F C 0.27355(15) 0.7514(5) 0.5646(3)
H3F H 0.2897 0.7515 0.6081
O7F O 0.32400(12) 0.9802(4) 0.5920(2)
O6D O -0.09639(10) 0.6515(4) 0.5368(2)
O8D O -0.10790(12) 0.5175(6) 0.4404(3)
C13D C -0.04081(16) 0.5331(7) 0.4956(3)
C14D C -0.08487(17) 0.5709(7) 0.4897(4)
C15D C -0.01479(18) 0.5889(8) 0.5471(4)
H7D H -0.0247 0.6511 0.5803
C16D C 0.02508(19) 0.5583(8) 0.5527(4)
H8D H 0.0418 0.5991 0.5891
Zn1D Zn -0.152849(14) 0.69926(5) 0.51550(3)
O1D O -0.22652(9) 0.8113(3) 0.60109(15)
O2D O -0.15948(9) 0.8195(3) 0.60062(16)
O3D O -0.15393(9) 1.1890(3) 0.92504(16)
O5D O -0.21626(8) 1.1169(3) 0.94404(16)
C1D C -0.18595(13) 1.1229(5) 0.9069(2)
C4D C -0.19035(13) 0.9159(5) 0.7005(2)
C6D C -0.19291(13) 0.8423(5) 0.6277(2)
C7D C -0.15524(14) 0.9678(5) 0.7302(3)
H2D H -0.1319 0.9587 0.7050
C8D C -0.18737(13) 1.0486(5) 0.8361(2)
C10D C -0.22307(13) 0.9947(5) 0.8065(2)
H4D H -0.2463 1.0022 0.8322
C11D C -0.15367(14) 1.0339(6) 0.7972(3)
H5D H -0.1292 1.0692 0.8163
C12D C -0.22448(14) 0.9299(5) 0.7392(3)
H6D H -0.2489 0.8950 0.7195
Zn1A Zn -0.152849(14) 1.30074(5) 1.01550(3)
Zn1E Zn 0.152849(14) -0.30074(5) -0.01550(3)
Zn1F Zn 0.347151(14) 1.19926(5) 0.51550(3)
Zn2_2 Zn 0.2500 1.2500 0.5000
Zn2A Zn -0.2500 1.2500 1.0000
Zn2B Zn -0.2500 0.7500 0.5000
Zn2C Zn 0.2500 -0.2500 0.0000
O1F O 0.27348(9) 0.3113(3) 0.60109(15)
O3A O -0.15393(9) 0.8110(3) 0.42504(16)
O3E O 0.15393(9) 0.1890(3) 0.57496(16)
O4D O -0.20226(8) 0.5875(3) 0.49482(17)
O4F_2 O 0.29774(8) 0.0875(3) 0.49482(17)
O5C O 0.28374(8) 0.3831(3) 0.44404(16)
O5E O 0.21626(8) 0.1169(3) 0.55596(16)
loop_
_geom_bond_atom_site_label_1
_geom_bond_atom_site_label_2
_geom_bond_site_symmetry_1
_geom_bond_site_symmetry_2
Zn1 O2 1_555 1_555
Zn2 O1 1_555 1_555
O1 C6 1_555 1_555
O2 C6 1_555 1_555
O3 C1 1_555 1_555
O4 Zn1 1_555 1_555
O5 C1 1_555 1_555
C1 C8 1_555 1_555
O6 Zn1 1_555 1_555
C2 C3 1_555 1_555
C3 H1 1_555 1_555
C4 C6 1_555 1_555
C5 O4 1_555 1_555
C7 C4 1_555 1_555
H2 C7 1_555 1_555
C8 C10 1_555 1_555
C9 C2 1_555 1_555
H3 C9 1_555 1_555
O7 C5 1_555 1_555
C10 H4 1_555 1_555
C11 C7 1_555 1_555
H5 C11 1_555 1_555
C12 C4 1_555 1_555
H6 C12 1_555 1_555
O8 C14 1_555 1_555
C13 C14 1_555 1_555
C14 O6 1_555 1_555
C15 C13 1_555 1_555
H7 C15 1_555 1_555
C16 C15 1_555 1_555
H8 C16 1_555 1_555
O4F C5F 1_555 1_555
C2F C3F 1_555 1_555
C3F C9 1_555 1_555
H1F C3F 1_555 1_555
C5F C2F 1_555 1_555
C9F C3 1_555 1_555
H3F C9F 1_555 1_555
O7F C5F 1_555 1_555
O6D C14D 1_555 1_555
O8D C14D 1_555 1_555
C13D C16 1_555 1_555
C14D C13D 1_555 1_555
C15D C13D 1_555 1_555
H7D C15D 1_555 1_555
C16D C13 1_555 1_555
H8D C16D 1_555 1_555
Zn1D O6D 1_555 1_555
O1D C6D 1_555 1_555
O2D Zn1D 1_555 1_555
O3D C1D 1_555 1_555
O5D C1D 1_555 1_555
C1D C8D 1_555 1_555
C4D C6D 1_555 1_555
C6D O2D 1_555 1_555
C7D C4D 1_555 1_555
H2D C7D 1_555 1_555
C8D C10D 1_555 1_555
C10D H4D 1_555 1_555
C11D C7D 1_555 1_555
H5D C11D 1_555 1_555
C12D C4D 1_555 1_555
H6D C12D 1_555 1_555
Zn1A O3D 1_555 1_555
Zn1E O3 1_555 1_555
Zn1F O4F 1_555 1_555
Zn2_2 O4F 1_555 1_555
Zn2A O5D 1_555 1_555
Zn2B O1D 1_555 1_555
Zn2C O5 1_555 1_555
O1F Zn2 1_555 1_555
O3A Zn1D 1_555 1_555
O3E Zn1 1_555 1_555
O4D Zn1D 1_555 1_555
O4F_2 Zn2 1_555 1_555
O5C Zn2 1_555 1_555
O5E Zn2 1_555 1_555
Zn2 O4 1_555 1_555
C2 C5 1_555 1_555
C8 C11 1_555 1_555
C10 C12 1_555 1_555
C2F C9F 1_555 1_555
C15D C16D 1_555 1_555
C8D C11D 1_555 1_555
C10D C12D 1_555 1_555
Zn2B O4D 1_555 1_555

#END
