
#######################################################################
#
#                 Cambridge Crystallographic Data Centre
#                                CCDC 
#
#######################################################################
#
# If this CIF has been generated from an entry in the Cambridge 
# Structural Database, then it will include bibliographic, chemical, 
# crystal, experimental, refinement or atomic coordinate data resulting 
# from the CCDC's data processing and validation procedures.
#
#######################################################################

data_DABFET
_chemical_formula_moiety         '(C121 H87 Ag2 B2 F8 N25 Ni2 O2 4+)n'
_symmetry_cell_setting           cubic
_symmetry_space_group_name_H-M   'P 21 3'
_symmetry_Int_Tables_number      198
_space_group_name_Hall           'P 2ac 2ab 3'
loop_
_symmetry_equiv_pos_site_id
_symmetry_equiv_pos_as_xyz
1 x,y,z
2 1/2-x,-y,1/2+z
3 1/2+x,1/2-y,-z
4 -x,1/2+y,1/2-z
5 z,x,y
6 1/2-z,-x,1/2+y
7 1/2+z,1/2-x,-y
8 -z,1/2+x,1/2-y
9 y,z,x
10 1/2+y,1/2-z,-x
11 -y,1/2+z,1/2-x
12 1/2-y,-z,1/2+x
_cell_length_a                   23.0065(2)
_cell_length_b                   23.0065(2)
_cell_length_c                   23.0065(2)
_cell_angle_alpha                90
_cell_angle_beta                 90
_cell_angle_gamma                90
_cell_volume                     12177.3
loop_
_atom_site_label
_atom_site_type_symbol
_atom_site_fract_x
_atom_site_fract_y
_atom_site_fract_z
_atom_site_U_iso_or_equiv
_atom_site_thermal_displace_type
Ag1 Ag 0.48961(4) 0.51039(4) 1.01039(4) 0.0521 Uani
Ni1 Ni 0.61095(4) 0.88905(4) 1.11095(4) 0.0325 Uani
N1 N 0.70171(15) 0.8985(2) 1.1137(2) 0.0380 Uani
C1 C 0.7283(2) 0.9025(2) 1.05957(17) 0.0400 Uani
C2 C 0.7883(2) 0.9085(3) 1.0558(2) 0.0473 Uani
H1 H 0.8065 0.9113 1.0188 0.0570 Uiso
C3 C 0.82172(15) 0.9104(3) 1.1061(3) 0.0577 Uani
H2 H 0.8627 0.9145 1.1034 0.0690 Uiso
C4 C 0.7951(2) 0.9063(3) 1.1602(2) 0.0567 Uani
H3 H 0.8180 0.9076 1.1945 0.0680 Uiso
C5 C 0.7351(2) 0.9004(3) 1.16397(17) 0.0463 Uani
H4 H 0.7170 0.8976 1.2009 0.0550 Uiso
N2 N 0.6045(2) 0.8982(2) 0.9662(2) 0.0453 Uani
N3 N 0.6319(2) 0.8952(2) 1.02146(16) 0.0370 Uani
C6 C 0.69267(19) 0.9018(3) 1.0130(2) 0.0400 Uani
C7 C 0.7028(2) 0.9089(3) 0.9525(3) 0.0650 Uani
H5 H 0.7396 0.9142 0.9345 0.0780 Uiso
C8 C 0.6483(3) 0.9066(3) 0.92361(16) 0.0477 Uani
H6 H 0.6423 0.9101 0.8829 0.0570 Uiso
C9 C 0.5464(4) 0.8843(4) 0.9585(4) 0.0467 Uani
H7 H 0.5318 0.9043 0.9233 0.0560 Uiso
H8 H 0.5239 0.8988 0.9922 0.0560 Uiso
C10 C 0.5356(2) 0.81742(15) 0.9519(2) 0.0410 Uani
C11 C 0.58248(16) 0.7795(2) 0.9545(2) 0.0393 Uani
H9 H 0.6208 0.7943 0.9588 0.0470 Uiso
C12 C 0.5734(2) 0.71985(19) 0.9507(3) 0.0470 Uani
H10 H 0.6054 0.6939 0.9525 0.0560 Uiso
C13 C 0.5173(2) 0.69821(15) 0.9444(3) 0.0543 Uani
C14 C 0.47038(18) 0.7362(2) 0.9418(2) 0.0437 Uani
C15 C 0.47950(17) 0.7958(2) 0.9456(2) 0.0437 Uani
C16 C 0.4153(2) 0.7126(2) 0.9338(5) 0.0657 Uani
H11 H 0.4108 0.6718 0.9296 0.0790 Uiso
C17 C 0.36694(19) 0.7487(3) 0.9318(6) 0.0713 Uani
H12 H 0.3287 0.7332 0.9310 0.0860 Uiso
C18 C 0.37659(18) 0.8083(3) 0.9311(4) 0.0630 Uani
H13 H 0.3448 0.8337 0.9239 0.0760 Uiso
C19 C 0.4315(2) 0.83215(18) 0.9407(4) 0.0543 Uani
H14 H 0.4361 0.8731 0.9438 0.0650 Uiso
C20 C 0.5112(6) 0.6376(6) 0.9479(5) 0.0693 Uani
N4 N 0.5040(5) 0.5836(4) 0.9497(5) 0.0710 Uani
Ni1C Ni 0.38905(4) 0.38905(4) 1.38905(4) 0.0325 Uani
Ni1B Ni 0.11095(4) 0.61095(4) 0.88905(4) 0.0325 Uani
N1E N 0.3863(2) 0.29829(15) 1.3985(2) 0.0380 Uani
N1J N 0.1015(2) 0.6137(2) 0.79829(15) 0.0380 Uani
N1F N 0.6137(2) 0.79829(15) 1.1015(2) 0.0380 Uani
N1K N 0.6015(2) 0.8863(2) 1.20171(15) 0.0380 Uani
C1E C 0.44043(17) 0.2717(2) 1.4025(2) 0.0400 Uani
C1J C 0.0975(2) 0.55957(17) 0.7717(2) 0.0400 Uani
C2E C 0.4442(2) 0.2117(2) 1.4085(3) 0.0473 Uani
C2J C 0.0915(3) 0.5558(2) 0.7117(2) 0.0473 Uani
H1E H 0.4812 0.1935 1.4113 0.0570 Uiso
H1J H 0.0887 0.5188 0.6935 0.0570 Uiso
C3E C 0.3939(3) 0.17828(15) 1.4104(3) 0.0577 Uani
C3J C 0.0896(3) 0.6061(3) 0.67828(15) 0.0577 Uani
H2E H 0.3966 0.1373 1.4145 0.0690 Uiso
H2J H 0.0855 0.6034 0.6373 0.0690 Uiso
C4E C 0.3398(2) 0.2049(2) 1.4063(3) 0.0567 Uani
C4J C 0.0937(3) 0.6602(2) 0.7049(2) 0.0567 Uani
H3E H 0.3055 0.1820 1.4076 0.0680 Uiso
H3J H 0.0924 0.6945 0.6820 0.0680 Uiso
C5E C 0.33603(17) 0.2649(2) 1.4004(3) 0.0463 Uani
C5J C 0.0996(3) 0.66397(17) 0.7649(2) 0.0463 Uani
H4E H 0.2991 0.2830 1.3976 0.0550 Uiso
H4J H 0.1024 0.7009 0.7830 0.0550 Uiso
N2E N 0.5338(2) 0.3955(2) 1.3982(2) 0.0453 Uani
N2J N 0.1018(2) 0.4662(2) 0.8955(2) 0.0453 Uani
N3E N 0.47854(16) 0.3681(2) 1.3952(2) 0.0370 Uani
N3J N 0.1048(2) 0.52146(16) 0.8681(2) 0.0370 Uani
N3F N 0.52146(16) 0.8681(2) 1.1048(2) 0.0370 Uani
N3K N 0.6048(2) 0.97854(16) 1.1319(2) 0.0370 Uani
C6E C 0.4870(2) 0.30733(19) 1.4018(3) 0.0400 Uani
C6J C 0.0982(3) 0.5130(2) 0.80733(19) 0.0400 Uani
C7E C 0.5475(3) 0.2972(2) 1.4089(3) 0.0650 Uani
C7J C 0.0911(3) 0.4525(3) 0.7972(2) 0.0650 Uani
H5E H 0.5655 0.2604 1.4142 0.0780 Uiso
H5J H 0.0858 0.4345 0.7604 0.0780 Uiso
C8E C 0.57639(16) 0.3517(3) 1.4066(3) 0.0477 Uani
C8J C 0.0934(3) 0.42361(16) 0.8517(3) 0.0477 Uani
H6E H 0.6171 0.3577 1.4101 0.0570 Uiso
H6J H 0.0899 0.3829 0.8577 0.0570 Uiso
C9E C 0.5415(4) 0.4536(4) 1.3843(4) 0.0467 Uani
C9J C 0.1157(4) 0.4585(4) 0.9536(4) 0.0467 Uani
H7E H 0.5767 0.4682 1.4043 0.0560 Uiso
H7J H 0.0957 0.4233 0.9682 0.0560 Uiso
H8E H 0.5078 0.4761 1.3988 0.0560 Uiso
H8J H 0.1012 0.4922 0.9761 0.0560 Uiso
C10E C 0.5481(2) 0.4644(2) 1.31742(15) 0.0410 Uani
C10J C 0.18258(15) 0.4519(2) 0.9644(2) 0.0410 Uani
C11E C 0.5455(2) 0.41752(16) 1.2795(2) 0.0393 Uani
C11J C 0.2205(2) 0.4545(2) 0.91752(16) 0.0393 Uani
H9E H 0.5412 0.3792 1.2943 0.0470 Uiso
H9J H 0.2057 0.4588 0.8792 0.0470 Uiso
C12E C 0.5493(3) 0.4266(2) 1.21985(19) 0.0470 Uani
C12J C 0.28015(19) 0.4507(3) 0.9266(2) 0.0470 Uani
H10E H 0.5475 0.3946 1.1939 0.0560 Uiso
H10J H 0.3061 0.4525 0.8946 0.0560 Uiso
C13E C 0.5556(3) 0.4827(2) 1.19821(15) 0.0543 Uani
C13J C 0.30179(15) 0.4444(3) 0.9827(2) 0.0543 Uani
C14E C 0.5582(2) 0.52962(18) 1.2362(2) 0.0437 Uani
C14J C 0.2638(2) 0.4418(2) 1.02962(18) 0.0437 Uani
C15E C 0.5544(2) 0.52050(17) 1.2958(2) 0.0437 Uani
C15J C 0.2042(2) 0.4456(2) 1.02050(17) 0.0437 Uani
C16E C 0.5662(5) 0.5847(2) 1.2126(2) 0.0657 Uani
C16J C 0.2874(2) 0.4338(5) 1.0847(2) 0.0657 Uani
H11E H 0.5704 0.5892 1.1718 0.0790 Uiso
H11J H 0.3282 0.4296 1.0892 0.0790 Uiso
C17E C 0.5682(6) 0.63306(19) 1.2487(3) 0.0713 Uani
C17J C 0.2513(3) 0.4318(6) 1.13306(19) 0.0713 Uani
H12E H 0.5690 0.6713 1.2332 0.0860 Uiso
H12J H 0.2668 0.4310 1.1713 0.0860 Uiso
C18E C 0.5689(4) 0.62341(18) 1.3083(3) 0.0630 Uani
C18J C 0.1917(3) 0.4311(4) 1.12341(18) 0.0630 Uani
H13E H 0.5761 0.6552 1.3337 0.0760 Uiso
H13J H 0.1663 0.4239 1.1552 0.0760 Uiso
C19E C 0.5593(4) 0.5685(2) 1.33215(18) 0.0543 Uani
C19J C 0.16785(18) 0.4407(4) 1.0685(2) 0.0543 Uani
H14E H 0.5562 0.5639 1.3731 0.0650 Uiso
H14J H 0.1269 0.4438 1.0639 0.0650 Uiso
C20E C 0.5521(5) 0.4888(6) 1.1376(6) 0.0693 Uani
C20J C 0.3624(6) 0.4479(5) 0.9888(6) 0.0693 Uani
N4E N 0.5503(5) 0.4960(5) 1.0836(4) 0.0710 Uani
N4J N 0.4164(4) 0.4497(5) 0.9960(5) 0.0710 Uani
Ag2 Ag 0.75736(6) 0.75736(6) 0.75736(6) 0.0773 Uani
Ni2 Ni 0.61829(4) 0.38171(4) 0.88171(4) 0.0320 Uani
N5 N 0.6122(2) 0.3681(2) 0.97231(16) 0.0430 Uani
C21 C 0.6653(2) 0.3624(2) 1.0006(2) 0.0423 Uani
C22 C 0.6668(3) 0.3501(3) 1.0597(2) 0.0533 Uani
H15 H 0.7031 0.3462 1.0791 0.0640 Uiso
C23 C 0.6153(3) 0.3434(3) 1.09056(16) 0.0640 Uani
H16 H 0.6163 0.3350 1.1310 0.0770 Uiso
C24 C 0.5622(3) 0.3491(3) 1.0623(2) 0.0667 Uani
H17 H 0.5270 0.3445 1.0833 0.0800 Uiso
C25 C 0.5607(2) 0.3614(3) 1.0031(2) 0.0530 Uani
H18 H 0.5244 0.3653 0.9838 0.0640 Uiso
N6 N 0.7624(2) 0.3722(2) 0.88015(19) 0.0463 Uani
N7 N 0.70622(16) 0.3718(2) 0.90568(19) 0.0347 Uani
C26 C 0.7130(2) 0.3653(3) 0.96667(18) 0.0413 Uani
C27 C 0.7734(3) 0.3616(3) 0.9788(2) 0.0517 Uani
H19 H 0.7904 0.3570 1.0162 0.0620 Uiso
C28 C 0.80395(16) 0.3658(3) 0.9254(3) 0.0523 Uani
H20 H 0.8450 0.3647 0.9207 0.0630 Uiso
C29 C 0.7736(3) 0.3865(4) 0.8233(4) 0.0427 Uani
H21 H 0.7407 0.3727 0.7992 0.0510 Uiso
H22 H 0.8087 0.3649 0.8107 0.0510 Uiso
C30 C 0.7831(2) 0.45004(17) 0.8104(2) 0.0443 Uani
C31 C 0.7864(2) 0.4888(2) 0.85662(15) 0.0447 Uani
H23 H 0.7835 0.4750 0.8954 0.0530 Uiso
C32 C 0.7941(2) 0.5478(2) 0.8461(2) 0.0477 Uani
H24 H 0.7963 0.5743 0.8777 0.0580 Uiso
C33 C 0.7984(2) 0.56804(17) 0.7893(2) 0.0507 Uani
C34 C 0.7951(2) 0.5293(2) 0.74310(17) 0.0487 Uani
C35 C 0.7875(2) 0.4703(2) 0.75363(18) 0.0517 Uani
C36 C 0.7937(5) 0.5502(2) 0.68644(19) 0.0627 Uani
H25 H 0.7944 0.5909 0.6795 0.0750 Uiso
C37 C 0.7912(5) 0.5117(4) 0.6400(2) 0.0720 Uani
H26 H 0.7921 0.5258 0.6012 0.0870 Uiso
C38 C 0.7874(5) 0.4523(4) 0.65052(17) 0.0677 Uani
H27 H 0.7851 0.4259 0.6189 0.0810 Uiso
C39 C 0.7868(4) 0.4314(2) 0.7074(2) 0.0613 Uani
H28 H 0.7860 0.3908 0.7145 0.0730 Uiso
C40 C 0.8058(6) 0.6290(6) 0.7838(7) 0.0757 Uani
N8 N 0.8127(6) 0.6790(4) 0.7780(6) 0.0913 Uani
Ni2A Ni 0.88171(4) 0.61829(4) 0.38171(4) 0.0320 Uani
Ni2C Ni 0.38171(4) 0.88171(4) 0.61829(4) 0.0320 Uani
N5D N 0.97231(16) 0.6122(2) 0.3681(2) 0.0430 Uani
N5H N 0.3681(2) 0.97231(16) 0.6122(2) 0.0430 Uani
N5E N 0.52769(16) 0.3878(2) 0.8681(2) 0.0430 Uani
N5J N 0.6319(2) 0.47231(16) 0.8878(2) 0.0430 Uani
C21D C 1.0006(2) 0.6653(2) 0.3624(2) 0.0423 Uani
C21H C 0.3624(2) 1.0006(2) 0.6653(2) 0.0423 Uani
C22D C 1.0597(2) 0.6668(3) 0.3501(3) 0.0533 Uani
C22H C 0.3501(3) 1.0597(2) 0.6668(3) 0.0533 Uani
H15D H 1.0791 0.7031 0.3462 0.0640 Uiso
H15H H 0.3462 1.0791 0.7031 0.0640 Uiso
C23D C 1.09056(16) 0.6153(3) 0.3434(3) 0.0640 Uani
C23H C 0.3434(3) 1.09056(16) 0.6153(3) 0.0640 Uani
H16D H 1.1310 0.6163 0.3350 0.0770 Uiso
H16H H 0.3350 1.1310 0.6163 0.0770 Uiso
C24D C 1.0623(2) 0.5622(3) 0.3491(3) 0.0667 Uani
C24H C 0.3491(3) 1.0623(2) 0.5622(3) 0.0667 Uani
H17D H 1.0833 0.5270 0.3445 0.0800 Uiso
H17H H 0.3445 1.0833 0.5270 0.0800 Uiso
C25D C 1.0031(2) 0.5607(2) 0.3614(3) 0.0530 Uani
C25H C 0.3614(3) 1.0031(2) 0.5607(2) 0.0530 Uani
H18D H 0.9838 0.5244 0.3653 0.0640 Uiso
H18H H 0.3653 0.9838 0.5244 0.0640 Uiso
N6D N 0.88015(19) 0.7624(2) 0.3722(2) 0.0463 Uani
N6H N 0.3722(2) 0.88015(19) 0.7624(2) 0.0463 Uani
N7D N 0.90568(19) 0.70622(16) 0.3718(2) 0.0347 Uani
N7H N 0.3718(2) 0.90568(19) 0.70622(16) 0.0347 Uani
N7E N 0.59432(19) 0.29378(16) 0.8718(2) 0.0347 Uani
N7J N 0.6282(2) 0.40568(19) 0.79378(16) 0.0347 Uani
C26D C 0.96667(18) 0.7130(2) 0.3653(3) 0.0413 Uani
C26H C 0.3653(3) 0.96667(18) 0.7130(2) 0.0413 Uani
C27D C 0.9788(2) 0.7734(3) 0.3616(3) 0.0517 Uani
C27H C 0.3616(3) 0.9788(2) 0.7734(3) 0.0517 Uani
H19D H 1.0162 0.7904 0.3570 0.0620 Uiso
H19H H 0.3570 1.0162 0.7904 0.0620 Uiso
C28D C 0.9254(3) 0.80395(16) 0.3658(3) 0.0523 Uani
C28H C 0.3658(3) 0.9254(3) 0.80395(16) 0.0523 Uani
H20D H 0.9207 0.8450 0.3647 0.0630 Uiso
H20H H 0.3647 0.9207 0.8450 0.0630 Uiso
C29D C 0.8233(4) 0.7736(3) 0.3865(4) 0.0427 Uani
C29H C 0.3865(4) 0.8233(4) 0.7736(3) 0.0427 Uani
H21D H 0.7992 0.7407 0.3727 0.0510 Uiso
H21H H 0.3727 0.7992 0.7407 0.0510 Uiso
H22D H 0.8107 0.8087 0.3649 0.0510 Uiso
H22H H 0.3649 0.8107 0.8087 0.0510 Uiso
C30D C 0.8104(2) 0.7831(2) 0.45004(17) 0.0443 Uani
C30H C 0.45004(17) 0.8104(2) 0.7831(2) 0.0443 Uani
C31D C 0.85662(15) 0.7864(2) 0.4888(2) 0.0447 Uani
C31H C 0.4888(2) 0.85662(15) 0.7864(2) 0.0447 Uani
H23D H 0.8954 0.7835 0.4750 0.0530 Uiso
H23H H 0.4750 0.8954 0.7835 0.0530 Uiso
C32D C 0.8461(2) 0.7941(2) 0.5478(2) 0.0477 Uani
C32H C 0.5478(2) 0.8461(2) 0.7941(2) 0.0477 Uani
H24D H 0.8777 0.7963 0.5743 0.0580 Uiso
H24H H 0.5743 0.8777 0.7963 0.0580 Uiso
C33D C 0.7893(2) 0.7984(2) 0.56804(17) 0.0507 Uani
C33H C 0.56804(17) 0.7893(2) 0.7984(2) 0.0507 Uani
C34D C 0.74310(17) 0.7951(2) 0.5293(2) 0.0487 Uani
C34H C 0.5293(2) 0.74310(17) 0.7951(2) 0.0487 Uani
C35D C 0.75363(18) 0.7875(2) 0.4703(2) 0.0517 Uani
C35H C 0.4703(2) 0.75363(18) 0.7875(2) 0.0517 Uani
C36D C 0.68644(19) 0.7937(5) 0.5502(2) 0.0627 Uani
C36H C 0.5502(2) 0.68644(19) 0.7937(5) 0.0627 Uani
H25D H 0.6795 0.7944 0.5909 0.0750 Uiso
H25H H 0.5909 0.6795 0.7944 0.0750 Uiso
C37D C 0.6400(2) 0.7912(5) 0.5117(4) 0.0720 Uani
C37H C 0.5117(4) 0.6400(2) 0.7912(5) 0.0720 Uani
H26D H 0.6012 0.7921 0.5258 0.0870 Uiso
H26H H 0.5258 0.6012 0.7921 0.0870 Uiso
C38D C 0.65052(17) 0.7874(5) 0.4523(4) 0.0677 Uani
C38H C 0.4523(4) 0.65052(17) 0.7874(5) 0.0677 Uani
H27D H 0.6189 0.7851 0.4259 0.0810 Uiso
H27H H 0.4259 0.6189 0.7851 0.0810 Uiso
C39D C 0.7074(2) 0.7868(4) 0.4314(2) 0.0613 Uani
C39H C 0.4314(2) 0.7074(2) 0.7868(4) 0.0613 Uani
H28D H 0.7145 0.7860 0.3908 0.0730 Uiso
H28H H 0.3908 0.7145 0.7860 0.0730 Uiso
C40D C 0.7838(7) 0.8058(6) 0.6290(6) 0.0757 Uani
C40H C 0.6290(6) 0.7838(7) 0.8058(6) 0.0757 Uani
N8D N 0.7780(6) 0.8127(6) 0.6790(4) 0.0913 Uani
N8H N 0.6790(4) 0.7780(6) 0.8127(6) 0.0913 Uani
B1 B 0.7588(2) 0.2412(2) 0.7412(2) 0.0678 Uani
F1 F 0.7326(3) 0.2344(3) 0.6877(2) 0.0690 Uani
F2 F 0.7241(2) 0.2759(2) 0.7759(2) 0.0683 Uani
F1E F 0.8123(2) 0.2674(3) 0.7344(3) 0.0690 Uani
F1J F 0.7656(3) 0.1877(2) 0.7674(3) 0.0690 Uani
B2 B 0.5586(3) 0.0152(3) 0.7990(3) 0.1062 Uiso
F3 F 0.5509(4) 0.0647(3) 0.8318(4) 0.1072 Uiso
F4 F 0.6057(4) 0.0225(4) 0.7625(4) 0.1074 Uiso
F5 F 0.5685(5) -0.0315(3) 0.8352(4) 0.1077 Uiso
F6 F 0.5094(3) 0.0050(4) 0.7662(4) 0.1062 Uiso
O1 O 0.8021(9) 0.7403(16) 0.9340(14) 0.1700 Uiso
O2 O 0.7397(10) 0.7668(10) 0.9958(8) 0.0730 Uiso
N9 N 0.7489(7) 0.7368(7) 0.9499(7) 0.0430 Uiso
C41 C 0.7050(12) 0.7032(15) 0.9200(14) 0.0810 Uiso
H29 H 0.6919 0.7245 0.8854 0.1220 Uiso
H30 H 0.6719 0.6967 0.9460 0.1220 Uiso
H31 H 0.7213 0.6657 0.9081 0.1220 Uiso
loop_
_atom_site_aniso_label
_atom_site_aniso_U_11
_atom_site_aniso_U_22
_atom_site_aniso_U_33
_atom_site_aniso_U_23
_atom_site_aniso_U_13
_atom_site_aniso_U_12
Ag1 0.0521(4) 0.0521(4) 0.0521(4) 0.0052(3) -0.0052(3) -0.0052(3)
Ni1 0.0325(4) 0.0325(4) 0.0325(4) -0.0003(4) 0.0003(4) -0.0003(4)
N1 0.031(3) 0.038(3) 0.045(4) -0.003(3) -0.002(3) 0.002(3)
C1 0.040(4) 0.034(4) 0.046(5) -0.010(3) 0.003(3) 0.000(3)
C2 0.051(5) 0.029(4) 0.062(6) -0.008(4) 0.014(4) -0.002(4)
C3 0.041(5) 0.034(4) 0.098(9) -0.009(5) 0.007(5) -0.001(4)
C4 0.043(5) 0.066(6) 0.061(6) -0.012(5) -0.007(4) 0.011(4)
C5 0.036(4) 0.054(5) 0.049(5) 0.010(4) -0.009(4) 0.007(4)
N2 0.064(5) 0.030(3) 0.042(4) 0.005(3) 0.002(3) -0.007(3)
N3 0.049(4) 0.033(3) 0.029(3) -0.007(2) 0.002(3) -0.004(3)
C6 0.051(5) 0.032(4) 0.037(4) -0.010(3) 0.008(4) -0.001(3)
C7 0.102(9) 0.030(4) 0.063(6) -0.004(4) 0.047(6) -0.020(5)
C8 0.074(6) 0.035(4) 0.034(4) -0.003(3) -0.001(4) -0.005(4)
C9 0.073(6) 0.032(4) 0.035(4) -0.003(3) -0.014(4) -0.009(4)
C10 0.064(6) 0.033(4) 0.026(4) -0.010(3) 0.008(4) -0.001(4)
C11 0.056(5) 0.031(4) 0.031(4) 0.000(3) 0.010(3) -0.008(3)
C12 0.067(6) 0.034(4) 0.040(4) -0.002(3) 0.010(4) 0.001(4)
C13 0.080(7) 0.044(5) 0.039(5) -0.002(4) 0.002(5) -0.012(5)
C14 0.063(6) 0.044(5) 0.024(4) -0.001(3) 0.001(3) -0.010(4)
C15 0.051(5) 0.050(5) 0.030(4) 0.005(3) -0.002(3) -0.005(4)
C16 0.094(9) 0.033(5) 0.070(7) 0.011(5) -0.007(6) -0.007(5)
C17 0.051(6) 0.080(8) 0.083(8) 0.005(6) 0.014(6) -0.021(6)
C18 0.069(7) 0.075(7) 0.045(5) 0.010(5) -0.006(5) 0.005(6)
C19 0.069(6) 0.067(6) 0.027(4) 0.003(4) -0.009(4) -0.017(5)
C20 0.072(7) 0.074(8) 0.062(7) 0.005(5) -0.021(6) -0.001(6)
N4 0.088(8) 0.037(4) 0.088(7) -0.001(4) 0.023(6) -0.007(4)
Ni1C 0.0325 0.0325 0.0325 0.0003 0.0003 0.0003
Ni1B 0.0325 0.0325 0.0325 -0.0003 -0.0003 0.0003
N1E 0.045 0.031 0.038 -0.002 0.003 -0.002
N1J 0.038 0.045 0.031 0.002 0.002 0.003
N1F 0.045 0.031 0.038 0.002 0.003 0.002
N1K 0.038 0.045 0.031 0.002 -0.002 -0.003
C1E 0.046 0.04 0.034 0 0.01 0.003
C1J 0.034 0.046 0.04 -0.003 0 0.01
C2E 0.062 0.051 0.029 0.002 0.008 0.014
C2J 0.029 0.062 0.051 -0.014 -0.002 0.008
C3E 0.098 0.041 0.034 0.001 0.009 0.007
C3J 0.034 0.098 0.041 -0.007 -0.001 0.009
C4E 0.061 0.043 0.066 -0.011 0.012 -0.007
C4J 0.066 0.061 0.043 0.007 0.011 0.012
C5E 0.049 0.036 0.054 -0.007 -0.01 -0.009
C5J 0.054 0.049 0.036 0.009 0.007 -0.01
N2E 0.042 0.064 0.03 0.007 -0.005 0.002
N2J 0.03 0.042 0.064 -0.002 -0.007 -0.005
N3E 0.029 0.049 0.033 0.004 0.007 0.002
N3J 0.033 0.029 0.049 -0.002 -0.004 0.007
N3F 0.029 0.049 0.033 -0.004 0.007 -0.002
N3K 0.033 0.029 0.049 -0.002 0.004 -0.007
C6E 0.037 0.051 0.032 0.001 0.01 0.008
C6J 0.032 0.037 0.051 -0.008 -0.001 0.01
C7E 0.063 0.102 0.03 0.02 0.004 0.047
C7J 0.03 0.063 0.102 -0.047 -0.02 0.004
C8E 0.034 0.074 0.035 0.005 0.003 -0.001
C8J 0.035 0.034 0.074 0.001 -0.005 0.003
C9E 0.035 0.073 0.032 0.009 0.003 -0.014
C9J 0.032 0.035 0.073 0.014 -0.009 0.003
C10E 0.026 0.064 0.033 0.001 0.01 0.008
C10J 0.033 0.026 0.064 -0.008 -0.001 0.01
C11E 0.031 0.056 0.031 0.008 0 0.01
C11J 0.031 0.031 0.056 -0.01 -0.008 0
C12E 0.04 0.067 0.034 -0.001 0.002 0.01
C12J 0.034 0.04 0.067 -0.01 0.001 0.002
C13E 0.039 0.08 0.044 0.012 0.002 0.002
C13J 0.044 0.039 0.08 -0.002 -0.012 0.002
C14E 0.024 0.063 0.044 0.01 0.001 0.001
C14J 0.044 0.024 0.063 -0.001 -0.01 0.001
C15E 0.03 0.051 0.05 0.005 -0.005 -0.002
C15J 0.05 0.03 0.051 0.002 -0.005 -0.005
C16E 0.07 0.094 0.033 0.007 -0.011 -0.007
C16J 0.033 0.07 0.094 0.007 -0.007 -0.011
C17E 0.083 0.051 0.08 0.021 -0.005 0.014
C17J 0.08 0.083 0.051 -0.014 -0.021 -0.005
C18E 0.045 0.069 0.075 -0.005 -0.01 -0.006
C18J 0.075 0.045 0.069 0.006 0.005 -0.01
C19E 0.027 0.069 0.067 0.017 -0.003 -0.009
C19J 0.067 0.027 0.069 0.009 -0.017 -0.003
C20E 0.062 0.072 0.074 0.001 -0.005 -0.021
C20J 0.074 0.062 0.072 0.021 -0.001 -0.005
N4E 0.088 0.088 0.037 0.007 0.001 0.023
N4J 0.037 0.088 0.088 -0.023 -0.007 0.001
Ag2 0.0773(5) 0.0773(5) 0.0773(5) 0.0144(6) 0.0144(6) 0.0144(6)
Ni2 0.0320(4) 0.0320(4) 0.0320(4) 0.0024(4) -0.0024(4) -0.0024(4)
N5 0.057(4) 0.029(3) 0.043(4) -0.004(3) 0.011(3) -0.011(3)
C21 0.070(6) 0.026(4) 0.031(4) 0.000(3) -0.008(4) -0.003(3)
C22 0.076(7) 0.040(5) 0.044(5) -0.003(4) -0.008(5) -0.004(5)
C23 0.108(10) 0.044(5) 0.040(5) -0.007(4) -0.002(6) 0.007(6)
C24 0.092(9) 0.073(7) 0.035(5) -0.019(5) 0.024(5) -0.022(6)
C25 0.068(6) 0.041(5) 0.050(6) -0.003(4) 0.008(4) -0.007(4)
N6 0.026(3) 0.039(3) 0.074(5) 0.001(3) -0.016(3) 0.001(3)
N7 0.041(4) 0.029(3) 0.034(3) 0.000(2) 0.000(3) -0.003(3)
C26 0.054(5) 0.028(4) 0.042(4) 0.004(3) -0.015(4) -0.002(3)
C27 0.056(6) 0.046(5) 0.053(5) 0.009(4) -0.025(4) 0.006(4)
C28 0.050(5) 0.039(5) 0.068(6) -0.002(4) -0.031(5) 0.000(4)
C29 0.031(4) 0.035(4) 0.062(5) -0.003(4) 0.000(3) 0.010(3)
C30 0.024(4) 0.054(5) 0.055(5) 0.005(4) -0.009(3) 0.001(3)
C31 0.033(4) 0.047(5) 0.054(5) -0.006(4) 0.011(4) -0.007(4)
C32 0.030(4) 0.043(5) 0.070(6) -0.012(4) -0.003(4) 0.000(3)
C33 0.024(4) 0.049(5) 0.079(7) 0.016(5) -0.005(4) 0.004(3)
C34 0.026(4) 0.071(6) 0.049(5) 0.001(4) 0.008(3) 0.008(4)
C35 0.026(4) 0.065(6) 0.064(6) 0.020(5) 0.007(4) 0.024(4)
C36 0.042(5) 0.076(7) 0.070(7) 0.021(6) -0.004(5) 0.002(5)
C37 0.060(7) 0.105(10) 0.051(6) 0.003(6) 0.000(5) 0.018(7)
C38 0.059(6) 0.092(9) 0.052(6) -0.003(6) -0.003(5) 0.014(6)
C39 0.049(6) 0.065(7) 0.070(7) -0.001(5) 0.007(5) 0.030(5)
C40 0.075(8) 0.061(7) 0.091(9) -0.002(6) -0.033(7) 0.004(6)
N8 0.115(10) 0.033(5) 0.126(11) 0.011(5) -0.016(8) -0.009(5)
Ni2A 0.032 0.032 0.032 -0.0024 0.0024 -0.0024
Ni2C 0.032 0.032 0.032 -0.0024 -0.0024 0.0024
N5D 0.043 0.057 0.029 -0.011 -0.004 0.011
N5H 0.029 0.043 0.057 0.011 -0.011 -0.004
N5E 0.043 0.057 0.029 0.011 0.004 0.011
N5J 0.029 0.043 0.057 -0.011 -0.011 0.004
C21D 0.031 0.07 0.026 -0.003 0 -0.008
C21H 0.026 0.031 0.07 -0.008 -0.003 0
C22D 0.044 0.076 0.04 -0.004 -0.003 -0.008
C22H 0.04 0.044 0.076 -0.008 -0.004 -0.003
C23D 0.04 0.108 0.044 0.007 -0.007 -0.002
C23H 0.044 0.04 0.108 -0.002 0.007 -0.007
C24D 0.035 0.092 0.073 -0.022 -0.019 0.024
C24H 0.073 0.035 0.092 0.024 -0.022 -0.019
C25D 0.05 0.068 0.041 -0.007 -0.003 0.008
C25H 0.041 0.05 0.068 0.008 -0.007 -0.003
N6D 0.074 0.026 0.039 0.001 0.001 -0.016
N6H 0.039 0.074 0.026 -0.016 0.001 0.001
N7D 0.034 0.041 0.029 -0.003 0 0
N7H 0.029 0.034 0.041 0 -0.003 0
N7E 0.034 0.041 0.029 0.003 0 0
N7J 0.029 0.034 0.041 0 -0.003 0
C26D 0.042 0.054 0.028 -0.002 0.004 -0.015
C26H 0.028 0.042 0.054 -0.015 -0.002 0.004
C27D 0.053 0.056 0.046 0.006 0.009 -0.025
C27H 0.046 0.053 0.056 -0.025 0.006 0.009
C28D 0.068 0.05 0.039 0 -0.002 -0.031
C28H 0.039 0.068 0.05 -0.031 0 -0.002
C29D 0.062 0.031 0.035 0.01 -0.003 0
C29H 0.035 0.062 0.031 0 0.01 -0.003
C30D 0.055 0.024 0.054 0.001 0.005 -0.009
C30H 0.054 0.055 0.024 -0.009 0.001 0.005
C31D 0.054 0.033 0.047 -0.007 -0.006 0.011
C31H 0.047 0.054 0.033 0.011 -0.007 -0.006
C32D 0.07 0.03 0.043 0 -0.012 -0.003
C32H 0.043 0.07 0.03 -0.003 0 -0.012
C33D 0.079 0.024 0.049 0.004 0.016 -0.005
C33H 0.049 0.079 0.024 -0.005 0.004 0.016
C34D 0.049 0.026 0.071 0.008 0.001 0.008
C34H 0.071 0.049 0.026 0.008 0.008 0.001
C35D 0.064 0.026 0.065 0.024 0.02 0.007
C35H 0.065 0.064 0.026 0.007 0.024 0.02
C36D 0.07 0.042 0.076 0.002 0.021 -0.004
C36H 0.076 0.07 0.042 -0.004 0.002 0.021
C37D 0.051 0.06 0.105 0.018 0.003 0
C37H 0.105 0.051 0.06 0 0.018 0.003
C38D 0.052 0.059 0.092 0.014 -0.003 -0.003
C38H 0.092 0.052 0.059 -0.003 0.014 -0.003
C39D 0.07 0.049 0.065 0.03 -0.001 0.007
C39H 0.065 0.07 0.049 0.007 0.03 -0.001
C40D 0.091 0.075 0.061 0.004 -0.002 -0.033
C40H 0.061 0.091 0.075 -0.033 0.004 -0.002
N8D 0.126 0.115 0.033 -0.009 0.011 -0.016
N8H 0.033 0.126 0.115 -0.016 -0.009 0.011
B1 0.0678(15) 0.0678(15) 0.0678(15) -0.0057(15) 0.0057(15) 0.0057(15)
F1 0.0693(17) 0.0693(16) 0.0683(16) -0.0054(16) 0.0050(16) 0.0053(17)
F2 0.0683(15) 0.0683(15) 0.0683(15) -0.0059(15) 0.0059(15) 0.0059(15)
F1E 0.0683 0.0693 0.0693 -0.0053 0.0054 0.005
F1J 0.0693 0.0683 0.0693 -0.005 0.0053 0.0054
loop_
_geom_bond_atom_site_label_1
_geom_bond_atom_site_label_2
_geom_bond_site_symmetry_1
_geom_bond_site_symmetry_2
Ag1 N4 1_555 1_555
Ni1 N1 1_555 1_555
N1 C1 1_555 1_555
C1 C2 1_555 1_555
C2 H1 1_555 1_555
C3 C2 1_555 1_555
H2 C3 1_555 1_555
C4 C3 1_555 1_555
H3 C4 1_555 1_555
C5 N1 1_555 1_555
H4 C5 1_555 1_555
N2 N3 1_555 1_555
N3 Ni1 1_555 1_555
C6 C1 1_555 1_555
C7 C6 1_555 1_555
H5 C7 1_555 1_555
C8 N2 1_555 1_555
H6 C8 1_555 1_555
C9 N2 1_555 1_555
H7 C9 1_555 1_555
H8 C9 1_555 1_555
C10 C9 1_555 1_555
C11 C10 1_555 1_555
H9 C11 1_555 1_555
C12 C11 1_555 1_555
H10 C12 1_555 1_555
C13 C12 1_555 1_555
C14 C13 1_555 1_555
C15 C10 1_555 1_555
C16 C14 1_555 1_555
H11 C16 1_555 1_555
C17 C16 1_555 1_555
H12 C17 1_555 1_555
C18 C17 1_555 1_555
H13 C18 1_555 1_555
C19 C15 1_555 1_555
H14 C19 1_555 1_555
C20 C13 1_555 1_555
N4 C20 1_555 1_555
Ag2 N8 1_555 1_555
Ni2 N5 1_555 1_555
N5 C21 1_555 1_555
C21 C22 1_555 1_555
C22 H15 1_555 1_555
C23 C22 1_555 1_555
H16 C23 1_555 1_555
C24 C23 1_555 1_555
H17 C24 1_555 1_555
C25 N5 1_555 1_555
H18 C25 1_555 1_555
N6 N7 1_555 1_555
N7 Ni2 1_555 1_555
C26 C21 1_555 1_555
C27 C26 1_555 1_555
H19 C27 1_555 1_555
C28 N6 1_555 1_555
H20 C28 1_555 1_555
C29 N6 1_555 1_555
H21 C29 1_555 1_555
H22 C29 1_555 1_555
C30 C29 1_555 1_555
C31 C30 1_555 1_555
H23 C31 1_555 1_555
C32 C31 1_555 1_555
H24 C32 1_555 1_555
C33 C32 1_555 1_555
C34 C33 1_555 1_555
C35 C30 1_555 1_555
C36 C34 1_555 1_555
H25 C36 1_555 1_555
C37 C36 1_555 1_555
H26 C37 1_555 1_555
C38 C37 1_555 1_555
H27 C38 1_555 1_555
C39 C35 1_555 1_555
H28 C39 1_555 1_555
C40 C33 1_555 1_555
N8 C40 1_555 1_555
B1 F1 1_555 1_555
F2 B1 1_555 1_555
B2 F3 1_555 1_555
F4 B2 1_555 1_555
F5 B2 1_555 1_555
F6 B2 1_555 1_555
O1 N9 1_555 1_555
O2 N9 1_555 1_555
N9 C41 1_555 1_555
C41 H29 1_555 1_555
H30 C41 1_555 1_555
H31 C41 1_555 1_555
Ni1C N1E 1_555 1_555
Ni1B N1J 1_555 1_555
N1E C1E 1_555 1_555
N1J C1J 1_555 1_555
N1F Ni1 1_555 1_555
N1K Ni1 1_555 1_555
C1E C2E 1_555 1_555
C1J C2J 1_555 1_555
C2E H1E 1_555 1_555
C2J H1J 1_555 1_555
C3E C2E 1_555 1_555
C3J C2J 1_555 1_555
H2E C3E 1_555 1_555
H2J C3J 1_555 1_555
C4E C3E 1_555 1_555
C4J C3J 1_555 1_555
H3E C4E 1_555 1_555
H3J C4J 1_555 1_555
C5E N1E 1_555 1_555
C5J N1J 1_555 1_555
H4E C5E 1_555 1_555
H4J C5J 1_555 1_555
N2E N3E 1_555 1_555
N2J N3J 1_555 1_555
N3E Ni1C 1_555 1_555
N3J Ni1B 1_555 1_555
N3F Ni1 1_555 1_555
N3K Ni1 1_555 1_555
C6E C1E 1_555 1_555
C6J C1J 1_555 1_555
C7E C6E 1_555 1_555
C7J C6J 1_555 1_555
H5E C7E 1_555 1_555
H5J C7J 1_555 1_555
C8E N2E 1_555 1_555
C8J N2J 1_555 1_555
H6E C8E 1_555 1_555
H6J C8J 1_555 1_555
C9E N2E 1_555 1_555
C9J N2J 1_555 1_555
H7E C9E 1_555 1_555
H7J C9J 1_555 1_555
H8E C9E 1_555 1_555
H8J C9J 1_555 1_555
C10E C9E 1_555 1_555
C10J C9J 1_555 1_555
C11E C10E 1_555 1_555
C11J C10J 1_555 1_555
H9E C11E 1_555 1_555
H9J C11J 1_555 1_555
C12E C11E 1_555 1_555
C12J C11J 1_555 1_555
H10E C12E 1_555 1_555
H10J C12J 1_555 1_555
C13E C12E 1_555 1_555
C13J C12J 1_555 1_555
C14E C13E 1_555 1_555
C14J C13J 1_555 1_555
C15E C10E 1_555 1_555
C15J C10J 1_555 1_555
C16E C14E 1_555 1_555
C16J C14J 1_555 1_555
H11E C16E 1_555 1_555
H11J C16J 1_555 1_555
C17E C16E 1_555 1_555
C17J C16J 1_555 1_555
H12E C17E 1_555 1_555
H12J C17J 1_555 1_555
C18E C17E 1_555 1_555
C18J C17J 1_555 1_555
H13E C18E 1_555 1_555
H13J C18J 1_555 1_555
C19E C15E 1_555 1_555
C19J C15J 1_555 1_555
H14E C19E 1_555 1_555
H14J C19J 1_555 1_555
C20E C13E 1_555 1_555
C20J C13J 1_555 1_555
N4E Ag1 1_555 1_555
N4J Ag1 1_555 1_555
Ni2A N5D 1_555 1_555
Ni2C N5H 1_555 1_555
N5D C21D 1_555 1_555
N5H C21H 1_555 1_555
N5E Ni2 1_555 1_555
N5J Ni2 1_555 1_555
C21D C22D 1_555 1_555
C21H C22H 1_555 1_555
C22D H15D 1_555 1_555
C22H H15H 1_555 1_555
C23D C22D 1_555 1_555
C23H C22H 1_555 1_555
H16D C23D 1_555 1_555
H16H C23H 1_555 1_555
C24D C23D 1_555 1_555
C24H C23H 1_555 1_555
H17D C24D 1_555 1_555
H17H C24H 1_555 1_555
C25D N5D 1_555 1_555
C25H N5H 1_555 1_555
H18D C25D 1_555 1_555
H18H C25H 1_555 1_555
N6D N7D 1_555 1_555
N6H N7H 1_555 1_555
N7D Ni2A 1_555 1_555
N7H Ni2C 1_555 1_555
N7E Ni2 1_555 1_555
N7J Ni2 1_555 1_555
C26D C21D 1_555 1_555
C26H C21H 1_555 1_555
C27D C26D 1_555 1_555
C27H C26H 1_555 1_555
H19D C27D 1_555 1_555
H19H C27H 1_555 1_555
C28D N6D 1_555 1_555
C28H N6H 1_555 1_555
H20D C28D 1_555 1_555
H20H C28H 1_555 1_555
C29D N6D 1_555 1_555
C29H N6H 1_555 1_555
H21D C29D 1_555 1_555
H21H C29H 1_555 1_555
H22D C29D 1_555 1_555
H22H C29H 1_555 1_555
C30D C29D 1_555 1_555
C30H C29H 1_555 1_555
C31D C30D 1_555 1_555
C31H C30H 1_555 1_555
H23D C31D 1_555 1_555
H23H C31H 1_555 1_555
C32D C31D 1_555 1_555
C32H C31H 1_555 1_555
H24D C32D 1_555 1_555
H24H C32H 1_555 1_555
C33D C32D 1_555 1_555
C33H C32H 1_555 1_555
C34D C33D 1_555 1_555
C34H C33H 1_555 1_555
C35D C30D 1_555 1_555
C35H C30H 1_555 1_555
C36D C34D 1_555 1_555
C36H C34H 1_555 1_555
H25D C36D 1_555 1_555
H25H C36H 1_555 1_555
C37D C36D 1_555 1_555
C37H C36H 1_555 1_555
H26D C37D 1_555 1_555
H26H C37H 1_555 1_555
C38D C37D 1_555 1_555
C38H C37H 1_555 1_555
H27D C38D 1_555 1_555
H27H C38H 1_555 1_555
C39D C35D 1_555 1_555
C39H C35H 1_555 1_555
H28D C39D 1_555 1_555
H28H C39H 1_555 1_555
C40D C33D 1_555 1_555
C40H C33H 1_555 1_555
N8D Ag2 1_555 1_555
N8H Ag2 1_555 1_555
F1E B1 1_555 1_555
F1J B1 1_555 1_555
C4 C5 1_555 1_555
N3 C6 1_555 1_555
C7 C8 1_555 1_555
C14 C15 1_555 1_555
C18 C19 1_555 1_555
C24 C25 1_555 1_555
N7 C26 1_555 1_555
C27 C28 1_555 1_555
C34 C35 1_555 1_555
C38 C39 1_555 1_555
C4E C5E 1_555 1_555
C4J C5J 1_555 1_555
N3E C6E 1_555 1_555
N3J C6J 1_555 1_555
C7E C8E 1_555 1_555
C7J C8J 1_555 1_555
C14E C15E 1_555 1_555
C14J C15J 1_555 1_555
C18E C19E 1_555 1_555
C18J C19J 1_555 1_555
C20E N4E 1_555 1_555
C20J N4J 1_555 1_555
C24D C25D 1_555 1_555
C24H C25H 1_555 1_555
N7D C26D 1_555 1_555
N7H C26H 1_555 1_555
C27D C28D 1_555 1_555
C27H C28H 1_555 1_555
C34D C35D 1_555 1_555
C34H C35H 1_555 1_555
C38D C39D 1_555 1_555
C38H C39H 1_555 1_555
C40D N8D 1_555 1_555
C40H N8H 1_555 1_555

#END
