
#######################################################################
#
#                 Cambridge Crystallographic Data Centre
#                                CCDC 
#
#######################################################################
#
# If this CIF has been generated from an entry in the Cambridge 
# Structural Database, then it will include bibliographic, chemical, 
# crystal, experimental, refinement or atomic coordinate data resulting 
# from the CCDC's data processing and validation procedures.
#
#######################################################################

data_HUYXUV
_chemical_formula_moiety         '(C40 H36 Co2 N8 O10)n'
_symmetry_cell_setting           monoclinic
_symmetry_space_group_name_H-M   'P 21/c'
_symmetry_Int_Tables_number      14
_space_group_name_Hall           '-P 2ybc'
loop_
_symmetry_equiv_pos_site_id
_symmetry_equiv_pos_as_xyz
1 x,y,z
2 -x,1/2+y,1/2-z
3 -x,-y,-z
4 x,1/2-y,1/2+z
_cell_length_a                   17.884(4)
_cell_length_b                   11.797(2)
_cell_length_c                   20.243(4)
_cell_angle_alpha                90
_cell_angle_beta                 111.77(3)
_cell_angle_gamma                90
_cell_volume                     3966.22
loop_
_atom_site_label
_atom_site_type_symbol
_atom_site_fract_x
_atom_site_fract_y
_atom_site_fract_z
C1 C 0.5097(3) 0.3682(4) 0.4012(2)
H1 H 0.5093 0.2898 0.4056
C2 C 0.5160(3) 0.3192(4) 0.1023(3)
H2 H 0.5185 0.3974 0.1083
C3 C 0.5054(3) 0.5786(4) 0.2324(3)
H3 H 0.4810 0.5741 0.2657
C4 C -0.3188(3) 0.1076(5) 0.0781(3)
H4 H -0.3312 0.1333 0.0319
C5 C -0.3298(3) 0.0519(5) 0.1745(3)
H5 H -0.3517 0.0325 0.2081
C6 C -0.2512(3) 0.0474(5) 0.1848(3)
H6 H -0.2095 0.0235 0.2258
C7 C -0.1717(3) 0.0911(4) 0.1085(3)
C8 C -0.1098(3) 0.0171(5) 0.1404(3)
H7 H -0.1146 -0.0379 0.1716
C9 C -0.0401(3) 0.0244(5) 0.1261(3)
H8 H 0.0016 -0.0264 0.1479
C10 C -0.0304(3) 0.1052(4) 0.0803(3)
C11 C -0.0939(3) 0.1794(5) 0.0498(3)
H9 H -0.0895 0.2348 0.0188
C12 C -0.1635(3) 0.1738(5) 0.0639(3)
H10 H -0.2047 0.2259 0.0434
C13 C 0.3312(3) 0.1020(4) 0.0551(3)
H11 H 0.3456 0.0623 0.0978
C14 C 0.3367(3) 0.1854(5) -0.0363(3)
H12 H 0.3563 0.2146 -0.0694
C15 C 0.2605(3) 0.1940(6) -0.0403(3)
H13 H 0.2183 0.2296 -0.0762
C16 C 0.1855(3) 0.1311(4) 0.0357(3)
C17 C 0.1236(3) 0.2058(5) 0.0069(3)
H14 H 0.1281 0.2634 -0.0228
C18 C 0.0550(3) 0.1967(5) 0.0213(3)
H15 H 0.0137 0.2487 0.0010
C19 C 0.0449(3) 0.1132(4) 0.0650(3)
C20 C 0.1088(3) 0.0392(5) 0.0942(4)
H16 H 0.1050 -0.0177 0.1247
C21 C 0.1782(3) 0.0476(6) 0.0794(4)
H17 H 0.2199 -0.0038 0.0993
C22 C 0.3318(3) 0.3041(4) 0.2281(3)
H18 H 0.3448 0.2609 0.2692
C23 C 0.3410(3) 0.4009(5) 0.1419(3)
H19 H 0.3627 0.4379 0.1125
C24 C 0.2625(3) 0.3957(5) 0.1306(3)
H20 H 0.2205 0.4272 0.0926
C25 C 0.1834(3) 0.3151(4) 0.2004(3)
C26 C 0.1170(3) 0.3821(5) 0.1667(3)
H21 H 0.1182 0.4357 0.1334
C27 C 0.0487(3) 0.3696(5) 0.1823(3)
H22 H 0.0042 0.4152 0.1592
C28 C 0.0445(3) 0.2904(4) 0.2320(3)
C29 C 0.1119(3) 0.2225(5) 0.2636(3)
H23 H 0.1107 0.1677 0.2962
C30 C 0.1805(3) 0.2337(5) 0.2482(3)
H24 H 0.2246 0.1866 0.2699
C31 C -0.3082(3) 0.3190(4) 0.2688(3)
H25 H -0.3191 0.3608 0.2273
C32 C -0.3207(3) 0.2343(5) 0.3571(3)
H26 H -0.3429 0.2057 0.3885
C33 C -0.2436(3) 0.2212(5) 0.3640(3)
H27 H -0.2037 0.1829 0.4004
C34 C -0.1648(3) 0.2790(4) 0.2888(3)
C35 C -0.1639(3) 0.3466(5) 0.2338(3)
H28 H -0.2081 0.3918 0.2093
C36 C -0.0975(3) 0.3470(5) 0.2154(3)
H29 H -0.0986 0.3911 0.1770
C37 C -0.0282(3) 0.2844(4) 0.2517(3)
C38 C -0.0310(3) 0.2182(5) 0.3075(3)
H30 H 0.0137 0.1746 0.3333
C39 C -0.0978(3) 0.2152(5) 0.3260(3)
H31 H -0.0976 0.1699 0.3636
Co1 Co 0.51216(3) 0.32728(5) 0.25097(3)
Co2 Co 0.50435(4) 0.10795(6) 0.05348(3)
N1 N -0.3725(2) 0.0895(4) 0.1071(2)
N2 N -0.2442(2) 0.0847(3) 0.1234(2)
N3 N 0.3812(2) 0.1272(4) 0.0236(2)
N4 N 0.2564(2) 0.1406(3) 0.0182(2)
N5 N 0.3849(2) 0.3439(3) 0.2030(2)
N6 N 0.2558(2) 0.3344(3) 0.1863(2)
N7 N -0.3622(2) 0.2960(3) 0.2971(2)
N8 N -0.2349(2) 0.2749(3) 0.3072(2)
O1 O 0.50710(18) 0.4286(3) 0.45231(16)
O2 O 0.5126(2) 0.4085(3) 0.34623(17)
O3 O 0.5161(2) 0.2801(3) 0.04508(18)
O4 O 0.5128(2) 0.2597(3) 0.15190(17)
O5 O 0.5305(2) 0.4886(2) 0.21652(17)
O6 O 0.5096(2) 0.6737(2) 0.20834(18)
Co1_2 Co -0.48784(3) 0.32728(5) 0.25097(3)
Co1A Co 0.48784(3) 0.82728(5) 0.24903(3)
Co2C Co 0.50435(4) 0.39205(6) 0.55348(3)
Co2A Co 0.49565(4) 0.60795(6) 0.44652(3)
Co2_2 Co -0.49565(4) 0.10795(6) 0.05348(3)
N1_2 N 0.6275(2) 0.0895(4) 0.1071(2)
N7_2 N 0.6378(2) 0.2960(3) 0.2971(2)
O1A O 0.49290(18) -0.0714(3) 0.04769(16)
O1C O 0.50710(18) 0.0714(3) -0.04769(16)
O6A O 0.4904(2) 0.1737(2) 0.29166(18)
O7 O 0.0798(6) 0.5550(9) 1.0222(4)
O8 O 0.1803(8) 0.5530(11) 0.9876(6)
C40 C 0.1118(9) 0.5169(16) 0.9818(11)
H32 H 0.0992 0.4729 0.9392
O9 O 0.3543(5) 0.0938(8) 0.3444(5)
H33 H 0.3272 0.0460 0.3118
H34 H 0.3872 0.1369 0.3731
O10 O 0.5890(7) 0.4085(10) 0.9668(7)
H35 H 0.6331 0.3719 0.9818
H36 H 0.6024 0.4623 0.9968
loop_
_geom_bond_atom_site_label_1
_geom_bond_atom_site_label_2
_geom_bond_site_symmetry_1
_geom_bond_site_symmetry_2
C1 H1 1_555 1_555
C2 H2 1_555 1_555
C3 H3 1_555 1_555
C4 H4 1_555 1_555
C5 H5 1_555 1_555
C6 C5 1_555 1_555
H6 C6 1_555 1_555
C7 C8 1_555 1_555
C8 H7 1_555 1_555
C9 C8 1_555 1_555
H8 C9 1_555 1_555
C10 C9 1_555 1_555
C11 C10 1_555 1_555
H9 C11 1_555 1_555
C12 C7 1_555 1_555
H10 C12 1_555 1_555
C13 H11 1_555 1_555
C14 H12 1_555 1_555
C15 C14 1_555 1_555
H13 C15 1_555 1_555
C16 C17 1_555 1_555
C17 H14 1_555 1_555
C18 C17 1_555 1_555
H15 C18 1_555 1_555
C19 C10 1_555 1_555
C20 C19 1_555 1_555
H16 C20 1_555 1_555
C21 C16 1_555 1_555
H17 C21 1_555 1_555
C22 H18 1_555 1_555
C23 H19 1_555 1_555
C24 C23 1_555 1_555
H20 C24 1_555 1_555
C25 C26 1_555 1_555
C26 H21 1_555 1_555
C27 C26 1_555 1_555
H22 C27 1_555 1_555
C28 C27 1_555 1_555
C29 C28 1_555 1_555
H23 C29 1_555 1_555
C30 C25 1_555 1_555
H24 C30 1_555 1_555
C31 H25 1_555 1_555
C32 H26 1_555 1_555
C33 C32 1_555 1_555
H27 C33 1_555 1_555
C34 C35 1_555 1_555
C35 H28 1_555 1_555
C36 C35 1_555 1_555
H29 C36 1_555 1_555
C37 C28 1_555 1_555
C38 C37 1_555 1_555
H30 C38 1_555 1_555
C39 C34 1_555 1_555
H31 C39 1_555 1_555
Co1 N5 1_555 1_555
Co2 N3 1_555 1_555
N1 C4 1_555 1_555
N2 C4 1_555 1_555
N3 C13 1_555 1_555
N4 C13 1_555 1_555
N5 C22 1_555 1_555
N6 C22 1_555 1_555
N7 C31 1_555 1_555
N8 C31 1_555 1_555
O1 C1 1_555 1_555
O2 C1 1_555 1_555
O3 C2 1_555 1_555
O4 C2 1_555 1_555
O5 C3 1_555 1_555
O6 C3 1_555 1_555
O7 C40 1_555 1_555
O8 C40 1_555 1_555
C40 H32 1_555 1_555
O9 H33 1_555 1_555
O10 H35 1_555 1_555
H34 O9 1_555 1_555
H36 O10 1_555 1_555
Co1_2 N7 1_555 1_555
Co1A O6 1_555 1_555
Co2C O1 1_555 1_555
Co2A O1 1_555 1_555
Co2_2 N1 1_555 1_555
N1_2 Co2 1_555 1_555
N7_2 Co1 1_555 1_555
O1A Co2 1_555 1_555
O1C Co2 1_555 1_555
O6A Co1 1_555 1_555
C5 N1 1_555 1_555
C6 N2 1_555 1_555
C7 N2 1_555 1_555
C11 C12 1_555 1_555
C14 N3 1_555 1_555
C15 N4 1_555 1_555
C16 N4 1_555 1_555
C18 C19 1_555 1_555
C20 C21 1_555 1_555
C23 N5 1_555 1_555
C24 N6 1_555 1_555
C25 N6 1_555 1_555
C29 C30 1_555 1_555
C32 N7 1_555 1_555
C33 N8 1_555 1_555
C34 N8 1_555 1_555
C36 C37 1_555 1_555
C38 C39 1_555 1_555
Co1 O2 1_555 1_555
Co1 O4 1_555 1_555
Co1 O5 1_555 1_555
Co2 O3 1_555 1_555

#END
