
#######################################################################
#
#                 Cambridge Crystallographic Data Centre
#                                CCDC 
#
#######################################################################
#
# If this CIF has been generated from an entry in the Cambridge 
# Structural Database, then it will include bibliographic, chemical, 
# crystal, experimental, refinement or atomic coordinate data resulting 
# from the CCDC's data processing and validation procedures.
#
#######################################################################

data_OYEYOH
_chemical_formula_moiety         'C132 H96 Ag8 Mo2 N40 O13 2-'
_symmetry_cell_setting           cubic
_symmetry_space_group_name_H-M   'I -4 3 d'
_symmetry_Int_Tables_number      220
_space_group_name_Hall           'I -4bd 2c 3'
loop_
_symmetry_equiv_pos_site_id
_symmetry_equiv_pos_as_xyz
1 x,y,z
2 -x,1/2-y,z
3 x,-y,1/2-z
4 1/2-x,y,-z
5 z,x,y
6 y,z,x
7 -z,1/2-x,y
8 1/2-y,z,-x
9 z,-x,1/2-y
10 -y,1/2-z,x
11 1/2-z,x,-y
12 y,-z,1/2-x
13 1/4+y,1/4+x,1/4+z
14 3/4-y,1/4-x,1/4+z
15 1/4-y,1/4+x,3/4-z
16 1/4+y,3/4-x,1/4-z
17 1/4+x,1/4+z,1/4+y
18 1/4+z,1/4+y,1/4+x
19 3/4-x,1/4-z,1/4+y
20 1/4+z,3/4-y,1/4-x
21 1/4-x,1/4+z,3/4-y
22 3/4-z,1/4-y,1/4+x
23 1/4+x,3/4-z,1/4-y
24 1/4-z,1/4+y,3/4-x
25 1/2+x,1/2+y,1/2+z
26 1/2-x,-y,1/2+z
27 1/2+x,1/2-y,-z
28 -x,1/2+y,1/2-z
29 1/2+z,1/2+x,1/2+y
30 1/2+y,1/2+z,1/2+x
31 1/2-z,-x,1/2+y
32 -y,1/2+z,1/2-x
33 1/2+z,1/2-x,-y
34 1/2-y,-z,1/2+x
35 -z,1/2+x,1/2-y
36 1/2+y,1/2-z,-x
37 3/4+y,3/4+x,3/4+z
38 1/4-y,3/4-x,3/4+z
39 3/4-y,3/4+x,1/4-z
40 3/4+y,1/4-x,3/4-z
41 3/4+x,3/4+z,3/4+y
42 3/4+z,3/4+y,3/4+x
43 1/4-x,3/4-z,3/4+y
44 3/4+z,1/4-y,3/4-x
45 3/4-x,3/4+z,1/4-y
46 1/4-z,3/4-y,3/4+x
47 3/4+x,1/4-z,3/4-y
48 3/4-z,3/4+y,1/4-x
_cell_length_a                   30.56780(10)
_cell_length_b                   30.56780(10)
_cell_length_c                   30.56780(10)
_cell_angle_alpha                90
_cell_angle_beta                 90
_cell_angle_gamma                90
_cell_volume                     28562.3
loop_
_atom_site_label
_atom_site_type_symbol
_atom_site_fract_x
_atom_site_fract_y
_atom_site_fract_z
_atom_site_U_iso_or_equiv
_atom_site_thermal_displace_type
Mo1 Mo 0.23295(2) 0.76705(2) 0.26705(2) 0.0374 Uani
Mo2 Mo 0.16394(5) 0.83606(5) 0.33606(5) 0.1541 Uani
O1 O 0.2268(3) 0.7145(2) 0.2807(3) 0.0597 Uani
O2 O 0.1985(4) 0.8015(4) 0.3015(4) 0.1370 Uani
O3 O 0.1847(17) 0.8895(10) 0.345(2) 0.2167 Uani
O1DA O 0.2193(3) 0.7732(3) 0.2145(2) 0.0597 Uani
O1EA O 0.2855(2) 0.7807(3) 0.2732(3) 0.0597 Uani
O3DA O 0.155(2) 0.8153(17) 0.3895(10) 0.2167 Uani
O3EA O 0.1105(10) 0.845(2) 0.3153(17) 0.2167 Uani
Ag1 Ag -0.21123(2) 1.18794(4) 0.13048(3) 0.0773 Uani
C1 C 0.0387(2) 1.0975(2) 0.0935(2) 0.0263 Uani
C2 C 0.0326(3) 1.1034(3) 0.1378(2) 0.0393 Uani
H1 H 0.0541 1.0946 0.1574 0.0470 Uiso
C3 C -0.0055(2) 1.1226(3) 0.1534(2) 0.0357 Uani
H2 H -0.0098 1.1258 0.1834 0.0430 Uiso
C4 C -0.0364(2) 1.1365(2) 0.1248(2) 0.0273 Uani
C5 C -0.0304(3) 1.1323(3) 0.0797(2) 0.0410 Uani
H3 H -0.0513 1.1427 0.0602 0.0490 Uiso
C6 C 0.0072(3) 1.1123(3) 0.0648(2) 0.0410 Uani
H4 H 0.0114 1.1088 0.0349 0.0490 Uiso
C7 C -0.0813(3) 1.1770(3) 0.1802(3) 0.0523 Uani
H5 H -0.0599 1.1814 0.2014 0.0630 Uiso
C8 C -0.1241(3) 1.1898(4) 0.1817(3) 0.0583 Uani
H6 H -0.1372 1.2039 0.2053 0.0700 Uiso
C9 C -0.1149(3) 1.1575(3) 0.1209(3) 0.0473 Uani
H7 H -0.1206 1.1448 0.0938 0.0570 Uiso
C10 C -0.3087(4) 1.2039(3) 0.1503(3) 0.0487 Uani
H8 H -0.3018 1.2077 0.1796 0.0590 Uiso
C11 C -0.3028(4) 1.1935(4) 0.0802(6) 0.0773 Uani
H9 H -0.2910 1.1888 0.0525 0.0930 Uiso
C12 C -0.3463(3) 1.1999(4) 0.0903(5) 0.0660 Uani
H10 H -0.3697 1.1998 0.0710 0.0790 Uiso
C13 C -0.3873(2) 1.2164(2) 0.1583(3) 0.0347 Uani
C14 C -0.3850(3) 1.2471(2) 0.1923(3) 0.0423 Uani
H11 H -0.3583 1.2599 0.1994 0.0510 Uiso
C15 C -0.4221(3) 1.2582(3) 0.2152(4) 0.0563 Uani
H12 H -0.4208 1.2790 0.2374 0.0680 Uiso
C16 C -0.4619(3) 1.2381(3) 0.2048(4) 0.0533 Uani
C17 C -0.4630(3) 1.2078(3) 0.1705(4) 0.0503 Uani
H13 H -0.4893 1.1944 0.1633 0.0610 Uiso
C18 C -0.4263(3) 1.1974(3) 0.1475(3) 0.0403 Uani
H14 H -0.4278 1.1775 0.1246 0.0490 Uiso
C19 C -0.5000(4) 1.2500 0.2745 0.0537 Uani
C20 C -0.4892(3) 1.2122(4) 0.2967(5) 0.0697 Uani
H15 H -0.4819 1.1867 0.2817 0.0840 Uiso
C21 C -0.4894(4) 1.2133(4) 0.3423(5) 0.0713 Uani
H16 H -0.4821 1.1882 0.3578 0.0860 Uiso
C22 C -0.5000(4) 1.2500 0.3645 0.0593 Uani
C23 C -0.5248(4) 1.2755(5) 0.4377(5) 0.0793 Uani
N1 N -0.1445(3) 1.1792(3) 0.1444(3) 0.0613 Uani
N2 N -0.07660(19) 1.1564(2) 0.1407(2) 0.0330 Uani
N3 N 0.0774(2) 1.0774(2) 0.0774(2) 0.0260 Uani
N4 N -0.2804(3) 1.1953(3) 0.1189(4) 0.0657 Uani
N5 N -0.3479(2) 1.2064(2) 0.1338(3) 0.0417 Uani
N6 N -0.5000(3) 1.2500 0.4119 0.0687 Uani
N7 N -0.5140(3) 1.2657(4) 0.4792(6) 0.0987 Uani
N8 N -0.5000(4) 1.2500 0.2275 0.0587 Uani
O4 O -0.1828(4) 1.2368(3) 0.0971(3) 0.0890 Uani
Ag1E Ag 0.18794(4) 1.13048(3) -0.21123(2) 0.0773 Uani
Ag1D Ag 0.13048(3) 0.78877(2) 0.18794(4) 0.0773 Uani
Ag1A Ag -0.78877(2) 1.31206(4) 0.13048(3) 0.0773 Uani
Ag1I Ag -1.18794(4) 1.36952(3) -0.21123(2) 0.0773 Uani
Ag1F Ag -1.13048(3) 1.71123(2) 0.18794(4) 0.0773 Uani
Ag1G Ag 0.31206(4) 1.13048(3) -0.78877(2) 0.0773 Uani
Ag1H Ag 0.13048(3) 0.21123(2) 0.31206(4) 0.0773 Uani
C1E C 0.0975(2) 1.0935(2) 0.0387(2) 0.0263 Uani
C1D C 0.0935(2) 1.0387(2) 0.0975(2) 0.0263 Uani
C1A C -1.0387(2) 1.4025(2) 0.0935(2) 0.0263 Uani
C1I C -1.0975(2) 1.4065(2) 0.0387(2) 0.0263 Uani
C1F C -1.0935(2) 1.4613(2) 0.0975(2) 0.0263 Uani
C2E C 0.1034(3) 1.1378(2) 0.0326(3) 0.0393 Uani
C2D C 0.1378(2) 1.0326(3) 0.1034(3) 0.0393 Uani
C2A C -1.0326(3) 1.3966(3) 0.1378(2) 0.0393 Uani
C2I C -1.1034(3) 1.3622(2) 0.0326(3) 0.0393 Uani
C2F C -1.1378(2) 1.4674(3) 0.1034(3) 0.0393 Uani
H1E H 0.0946 1.1574 0.0541 0.0470 Uiso
H1D H 0.1574 1.0541 0.0946 0.0470 Uiso
H1A H -1.0541 1.4054 0.1574 0.0470 Uiso
H1I H -1.0946 1.3426 0.0541 0.0470 Uiso
H1F H -1.1574 1.4459 0.0946 0.0470 Uiso
C3E C 0.1226(3) 1.1534(2) -0.0055(2) 0.0357 Uani
C3D C 0.1534(2) 0.9945(2) 0.1226(3) 0.0357 Uani
C3A C -0.9945(2) 1.3774(3) 0.1534(2) 0.0357 Uani
C3I C -1.1226(3) 1.3466(2) -0.0055(2) 0.0357 Uani
C3F C -1.1534(2) 1.5055(2) 0.1226(3) 0.0357 Uani
H2E H 0.1258 1.1834 -0.0098 0.0430 Uiso
H2D H 0.1834 0.9902 0.1258 0.0430 Uiso
H2A H -0.9902 1.3742 0.1834 0.0430 Uiso
H2I H -1.1258 1.3166 -0.0098 0.0430 Uiso
H2F H -1.1834 1.5098 0.1258 0.0430 Uiso
C4E C 0.1365(2) 1.1248(2) -0.0364(2) 0.0273 Uani
C4D C 0.1248(2) 0.9636(2) 0.1365(2) 0.0273 Uani
C4A C -0.9636(2) 1.3635(2) 0.1248(2) 0.0273 Uani
C4I C -1.1365(2) 1.3752(2) -0.0364(2) 0.0273 Uani
C4F C -1.1248(2) 1.5364(2) 0.1365(2) 0.0273 Uani
C5E C 0.1323(3) 1.0797(2) -0.0304(3) 0.0410 Uani
C5D C 0.0797(2) 0.9696(3) 0.1323(3) 0.0410 Uani
C5A C -0.9696(3) 1.3677(3) 0.0797(2) 0.0410 Uani
C5I C -1.1323(3) 1.4203(2) -0.0304(3) 0.0410 Uani
C5F C -1.0797(2) 1.5304(3) 0.1323(3) 0.0410 Uani
H3E H 0.1427 1.0602 -0.0513 0.0490 Uiso
H3D H 0.0602 0.9487 0.1427 0.0490 Uiso
H3A H -0.9487 1.3573 0.0602 0.0490 Uiso
H3I H -1.1427 1.4398 -0.0513 0.0490 Uiso
H3F H -1.0602 1.5513 0.1427 0.0490 Uiso
C6E C 0.1123(3) 1.0648(2) 0.0072(3) 0.0410 Uani
C6D C 0.0648(2) 1.0072(3) 0.1123(3) 0.0410 Uani
C6A C -1.0072(3) 1.3877(3) 0.0648(2) 0.0410 Uani
C6I C -1.1123(3) 1.4352(2) 0.0072(3) 0.0410 Uani
C6F C -1.0648(2) 1.4928(3) 0.1123(3) 0.0410 Uani
H4E H 0.1088 1.0349 0.0114 0.0490 Uiso
H4D H 0.0349 1.0114 0.1088 0.0490 Uiso
H4A H -1.0114 1.3912 0.0349 0.0490 Uiso
H4I H -1.1088 1.4651 0.0114 0.0490 Uiso
H4F H -1.0349 1.4886 0.1088 0.0490 Uiso
C7E C 0.1770(3) 1.1802(3) -0.0813(3) 0.0523 Uani
C7D C 0.1802(3) 0.9187(3) 0.1770(3) 0.0523 Uani
C7A C -0.9187(3) 1.3230(3) 0.1802(3) 0.0523 Uani
C7I C -1.1770(3) 1.3198(3) -0.0813(3) 0.0523 Uani
C7F C -1.1802(3) 1.5813(3) 0.1770(3) 0.0523 Uani
H5E H 0.1814 1.2014 -0.0599 0.0630 Uiso
H5D H 0.2014 0.9401 0.1814 0.0630 Uiso
H5A H -0.9401 1.3186 0.2014 0.0630 Uiso
H5I H -1.1814 1.2986 -0.0599 0.0630 Uiso
H5F H -1.2014 1.5599 0.1814 0.0630 Uiso
C8E C 0.1898(4) 1.1817(3) -0.1241(3) 0.0583 Uani
C8D C 0.1817(3) 0.8759(3) 0.1898(4) 0.0583 Uani
C8A C -0.8759(3) 1.3102(4) 0.1817(3) 0.0583 Uani
C8I C -1.1898(4) 1.3183(3) -0.1241(3) 0.0583 Uani
C8F C -1.1817(3) 1.6241(3) 0.1898(4) 0.0583 Uani
H6E H 0.2039 1.2053 -0.1372 0.0700 Uiso
H6D H 0.2053 0.8628 0.2039 0.0700 Uiso
H6A H -0.8628 1.2961 0.2053 0.0700 Uiso
H6I H -1.2039 1.2947 -0.1372 0.0700 Uiso
H6F H -1.2053 1.6372 0.2039 0.0700 Uiso
C9E C 0.1575(3) 1.1209(3) -0.1149(3) 0.0473 Uani
C9D C 0.1209(3) 0.8851(3) 0.1575(3) 0.0473 Uani
C9A C -0.8851(3) 1.3425(3) 0.1209(3) 0.0473 Uani
C9I C -1.1575(3) 1.3791(3) -0.1149(3) 0.0473 Uani
C9F C -1.1209(3) 1.6149(3) 0.1575(3) 0.0473 Uani
H7E H 0.1448 1.0938 -0.1206 0.0570 Uiso
H7D H 0.0938 0.8794 0.1448 0.0570 Uiso
H7A H -0.8794 1.3552 0.0938 0.0570 Uiso
H7I H -1.1448 1.4062 -0.1206 0.0570 Uiso
H7F H -1.0938 1.6206 0.1448 0.0570 Uiso
C10A C -0.6913(4) 1.2961(3) 0.1503(3) 0.0487 Uani
C10E C 0.2039(3) 1.1503(3) -0.3087(4) 0.0487 Uani
C10G C 0.2961(3) 1.1503(3) -0.6913(4) 0.0487 Uani
C10D C 0.1503(3) 0.6913(4) 0.2039(3) 0.0487 Uani
C10H C 0.1503(3) 0.3087(4) 0.2961(3) 0.0487 Uani
H8A H -0.6982 1.2923 0.1796 0.0590 Uiso
H8E H 0.2077 1.1796 -0.3018 0.0590 Uiso
H8G H 0.2923 1.1796 -0.6982 0.0590 Uiso
H8D H 0.1796 0.6982 0.2077 0.0590 Uiso
H8H H 0.1796 0.3018 0.2923 0.0590 Uiso
C11A C -0.6972(4) 1.3065(4) 0.0802(6) 0.0773 Uani
C11E C 0.1935(4) 1.0802(6) -0.3028(4) 0.0773 Uani
C11G C 0.3065(4) 1.0802(6) -0.6972(4) 0.0773 Uani
C11D C 0.0802(6) 0.6972(4) 0.1935(4) 0.0773 Uani
C11H C 0.0802(6) 0.3028(4) 0.3065(4) 0.0773 Uani
H9A H -0.7090 1.3112 0.0525 0.0930 Uiso
H9E H 0.1888 1.0525 -0.2910 0.0930 Uiso
H9G H 0.3112 1.0525 -0.7090 0.0930 Uiso
H9D H 0.0525 0.7090 0.1888 0.0930 Uiso
H9H H 0.0525 0.2910 0.3112 0.0930 Uiso
C12A C -0.6537(3) 1.3001(4) 0.0903(5) 0.0660 Uani
C12E C 0.1999(4) 1.0903(5) -0.3463(3) 0.0660 Uani
C12G C 0.3001(4) 1.0903(5) -0.6537(3) 0.0660 Uani
C12D C 0.0903(5) 0.6537(3) 0.1999(4) 0.0660 Uani
C12H C 0.0903(5) 0.3463(3) 0.3001(4) 0.0660 Uani
H10A H -0.6303 1.3002 0.0710 0.0790 Uiso
H10E H 0.1998 1.0710 -0.3697 0.0790 Uiso
H10G H 0.3002 1.0710 -0.6303 0.0790 Uiso
H10D H 0.0710 0.6303 0.1998 0.0790 Uiso
H10H H 0.0710 0.3697 0.3002 0.0790 Uiso
C13A C -0.6127(2) 1.2836(2) 0.1583(3) 0.0347 Uani
C13E C 0.2164(2) 1.1583(3) -0.3873(2) 0.0347 Uani
C13G C 0.2836(2) 1.1583(3) -0.6127(2) 0.0347 Uani
C13D C 0.1583(3) 0.6127(2) 0.2164(2) 0.0347 Uani
C13H C 0.1583(3) 0.3873(2) 0.2836(2) 0.0347 Uani
C14A C -0.6150(3) 1.2529(2) 0.1923(3) 0.0423 Uani
C14E C 0.2471(2) 1.1923(3) -0.3850(3) 0.0423 Uani
C14G C 0.2529(2) 1.1923(3) -0.6150(3) 0.0423 Uani
C14D C 0.1923(3) 0.6150(3) 0.2471(2) 0.0423 Uani
C14H C 0.1923(3) 0.3850(3) 0.2529(2) 0.0423 Uani
H11A H -0.6417 1.2401 0.1994 0.0510 Uiso
H11E H 0.2599 1.1994 -0.3583 0.0510 Uiso
H11G H 0.2401 1.1994 -0.6417 0.0510 Uiso
H11D H 0.1994 0.6417 0.2599 0.0510 Uiso
H11H H 0.1994 0.3583 0.2401 0.0510 Uiso
C15A C -0.5779(3) 1.2418(3) 0.2152(4) 0.0563 Uani
C15E C 0.2582(3) 1.2152(4) -0.4221(3) 0.0563 Uani
C15G C 0.2418(3) 1.2152(4) -0.5779(3) 0.0563 Uani
C15D C 0.2152(4) 0.5779(3) 0.2582(3) 0.0563 Uani
C15H C 0.2152(4) 0.4221(3) 0.2418(3) 0.0563 Uani
H12A H -0.5792 1.2210 0.2374 0.0680 Uiso
H12E H 0.2790 1.2374 -0.4208 0.0680 Uiso
H12G H 0.2210 1.2374 -0.5792 0.0680 Uiso
H12D H 0.2374 0.5792 0.2790 0.0680 Uiso
H12H H 0.2374 0.4208 0.2210 0.0680 Uiso
C16A C -0.5381(3) 1.2619(3) 0.2048(4) 0.0533 Uani
C16E C 0.2381(3) 1.2048(4) -0.4619(3) 0.0533 Uani
C16G C 0.2619(3) 1.2048(4) -0.5381(3) 0.0533 Uani
C16D C 0.2048(4) 0.5381(3) 0.2381(3) 0.0533 Uani
C16H C 0.2048(4) 0.4619(3) 0.2619(3) 0.0533 Uani
C17A C -0.5370(3) 1.2922(3) 0.1705(4) 0.0503 Uani
C17E C 0.2078(3) 1.1705(4) -0.4630(3) 0.0503 Uani
C17G C 0.2922(3) 1.1705(4) -0.5370(3) 0.0503 Uani
C17D C 0.1705(4) 0.5370(3) 0.2078(3) 0.0503 Uani
C17H C 0.1705(4) 0.4630(3) 0.2922(3) 0.0503 Uani
H13A H -0.5107 1.3056 0.1633 0.0610 Uiso
H13E H 0.1944 1.1633 -0.4893 0.0610 Uiso
H13G H 0.3056 1.1633 -0.5107 0.0610 Uiso
H13D H 0.1633 0.5107 0.1944 0.0610 Uiso
H13H H 0.1633 0.4893 0.3056 0.0610 Uiso
C18A C -0.5737(3) 1.3026(3) 0.1475(3) 0.0403 Uani
C18E C 0.1974(3) 1.1475(3) -0.4263(3) 0.0403 Uani
C18G C 0.3026(3) 1.1475(3) -0.5737(3) 0.0403 Uani
C18D C 0.1475(3) 0.5737(3) 0.1974(3) 0.0403 Uani
C18H C 0.1475(3) 0.4263(3) 0.3026(3) 0.0403 Uani
H14A H -0.5722 1.3225 0.1246 0.0490 Uiso
H14E H 0.1775 1.1246 -0.4278 0.0490 Uiso
H14G H 0.3225 1.1246 -0.5722 0.0490 Uiso
H14D H 0.1246 0.5722 0.1775 0.0490 Uiso
H14H H 0.1246 0.4278 0.3225 0.0490 Uiso
C19E C 0.2500 1.2745 -0.5000(4) 0.0537 Uani
C19D C 0.2745 0.5000(4) 0.2500 0.0537 Uani
C20A C -0.5108(3) 1.2878(4) 0.2967(5) 0.0697 Uani
C20E C 0.2122(4) 1.2967(5) -0.4892(3) 0.0697 Uani
C20G C 0.2878(4) 1.2967(5) -0.5108(3) 0.0697 Uani
C20D C 0.2967(5) 0.5108(3) 0.2122(4) 0.0697 Uani
C20H C 0.2967(5) 0.4892(3) 0.2878(4) 0.0697 Uani
H15A H -0.5181 1.3133 0.2817 0.0840 Uiso
H15E H 0.1867 1.2817 -0.4819 0.0840 Uiso
H15G H 0.3133 1.2817 -0.5181 0.0840 Uiso
H15D H 0.2817 0.5181 0.1867 0.0840 Uiso
H15H H 0.2817 0.4819 0.3133 0.0840 Uiso
C21A C -0.5106(4) 1.2867(4) 0.3423(5) 0.0713 Uani
C21E C 0.2133(4) 1.3423(5) -0.4894(4) 0.0713 Uani
C21G C 0.2867(4) 1.3423(5) -0.5106(4) 0.0713 Uani
C21D C 0.3423(5) 0.5106(4) 0.2133(4) 0.0713 Uani
C21H C 0.3423(5) 0.4894(4) 0.2867(4) 0.0713 Uani
H16A H -0.5179 1.3118 0.3578 0.0860 Uiso
H16E H 0.1882 1.3578 -0.4821 0.0860 Uiso
H16G H 0.3118 1.3578 -0.5179 0.0860 Uiso
H16D H 0.3578 0.5179 0.1882 0.0860 Uiso
H16H H 0.3578 0.4821 0.3118 0.0860 Uiso
C22E C 0.2500 1.3645 -0.5000(4) 0.0593 Uani
C22D C 0.3645 0.5000(4) 0.2500 0.0593 Uani
C23A C -0.4752(4) 1.2245(5) 0.4377(5) 0.0793 Uani
C23E C 0.2755(5) 1.4377(5) -0.5248(4) 0.0793 Uani
C23G C 0.2245(5) 1.4377(5) -0.4752(4) 0.0793 Uani
C23D C 0.4377(5) 0.4752(4) 0.2755(5) 0.0793 Uani
C23H C 0.4377(5) 0.5248(4) 0.2245(5) 0.0793 Uani
N1E N 0.1792(3) 1.1444(3) -0.1445(3) 0.0613 Uani
N1D N 0.1444(3) 0.8555(3) 0.1792(3) 0.0613 Uani
N1A N -0.8555(3) 1.3208(3) 0.1444(3) 0.0613 Uani
N1I N -1.1792(3) 1.3556(3) -0.1445(3) 0.0613 Uani
N1F N -1.1444(3) 1.6445(3) 0.1792(3) 0.0613 Uani
N2E N 0.1564(2) 1.1407(2) -0.07660(19) 0.0330 Uani
N2D N 0.1407(2) 0.92340(19) 0.1564(2) 0.0330 Uani
N2A N -0.92340(19) 1.3436(2) 0.1407(2) 0.0330 Uani
N2I N -1.1564(2) 1.3593(2) -0.07660(19) 0.0330 Uani
N2F N -1.1407(2) 1.57660(19) 0.1564(2) 0.0330 Uani
N3A N -1.0774(2) 1.4226(2) 0.0774(2) 0.0260 Uani
N4A N -0.7196(3) 1.3047(3) 0.1189(4) 0.0657 Uani
N4E N 0.1953(3) 1.1189(4) -0.2804(3) 0.0657 Uani
N4G N 0.3047(3) 1.1189(4) -0.7196(3) 0.0657 Uani
N4D N 0.1189(4) 0.7196(3) 0.1953(3) 0.0657 Uani
N4H N 0.1189(4) 0.2804(3) 0.3047(3) 0.0657 Uani
N4I N -1.1953(3) 1.3811(4) -0.2804(3) 0.0657 Uani
N4F N -1.1189(4) 1.7804(3) 0.1953(3) 0.0657 Uani
N5A N -0.6521(2) 1.2936(2) 0.1338(3) 0.0417 Uani
N5E N 0.2064(2) 1.1338(3) -0.3479(2) 0.0417 Uani
N5G N 0.2936(2) 1.1338(3) -0.6521(2) 0.0417 Uani
N5D N 0.1338(3) 0.6521(2) 0.2064(2) 0.0417 Uani
N5H N 0.1338(3) 0.3479(2) 0.2936(2) 0.0417 Uani
N6E N 0.2500 1.4119 -0.5000(3) 0.0687 Uani
N6D N 0.4119 0.5000(3) 0.2500 0.0687 Uani
N7A N -0.4860(3) 1.2343(4) 0.4792(6) 0.0987 Uani
N7E N 0.2657(4) 1.4792(6) -0.5140(3) 0.0987 Uani
N7G N 0.2343(4) 1.4792(6) -0.4860(3) 0.0987 Uani
N7D N 0.4792(6) 0.4860(3) 0.2657(4) 0.0987 Uani
N7H N 0.4792(6) 0.5140(3) 0.2343(4) 0.0987 Uani
N8E N 0.2500 1.2275 -0.5000(4) 0.0587 Uani
N8D N 0.2275 0.5000(4) 0.2500 0.0587 Uani
O4E O 0.2368(3) 1.0971(3) -0.1828(4) 0.0890 Uani
O4D O 0.0971(3) 0.8172(4) 0.2368(3) 0.0890 Uani
O4A O -0.8172(4) 1.2632(3) 0.0971(3) 0.0890 Uani
O4I O -1.2368(3) 1.4029(3) -0.1828(4) 0.0890 Uani
O4F O -1.0971(3) 1.6828(4) 0.2368(3) 0.0890 Uani
loop_
_atom_site_aniso_label
_atom_site_aniso_U_11
_atom_site_aniso_U_22
_atom_site_aniso_U_33
_atom_site_aniso_U_23
_atom_site_aniso_U_13
_atom_site_aniso_U_12
Mo1 0.0374(3) 0.0374(3) 0.0374(3) -0.0027(2) 0.0027(2) 0.0027(2)
Mo2 0.1541(17) 0.1541(17) 0.1541(17) -0.0571(11) 0.0571(11) 0.0571(11)
O1 0.067 0.038 0.074 0.013 -0.023 -0.012
O2 0.137(9) 0.137(9) 0.137(9) -0.036(8) 0.036(8) 0.036(8)
O3 0.22 0.22 0.21 0.004 -0.003 -0.011
O1DA 0.074(5) 0.067(4) 0.038(3) 0.012(3) -0.013(3) -0.023(4)
O1EA 0.038 0.074 0.067 0.023 -0.012 -0.013
O3DA 0.21(3) 0.22(3) 0.22(3) 0.011(9) -0.004(9) -0.003(9)
O3EA 0.22 0.21 0.22 0.003 -0.011 -0.004
Ag1 0.0385 0.1098 0.0835 0.0041 0.0154 0.0302
C1 0.028 0.025 0.026 0.008 0.015 0.01
C2 0.041 0.055 0.022 0.007 0.007 0.016
C3 0.035 0.042 0.03 0.001 0.003 0.01
C4 0.022 0.034 0.026 0.003 0.015 0.007
C5 0.034 0.063 0.026 0.013 0.003 0.023
C6 0.037 0.065 0.021 0.012 0.006 0.026
C7 0.034 0.064 0.059 -0.018 0.012 0.006
C8 0.049 0.073 0.053 -0.019 0.016 0.004
C9 0.026 0.06 0.056 -0.013 0.009 0.02
C10 0.022 0.051 0.073 0.004 0.015 0.009
C11 0.042 0.142 0.048 0.005 0.003 0.024
C12 0.049 0.117 0.032 -0.015 0.004 0.008
C13 0.024 0.051 0.029 0.004 0.004 0.011
C14 0.014 0.075 0.038 -0.02 0.003 0.006
C15 0.026 0.108 0.035 -0.012 -0.002 0.017
C16 0.023 0.108 0.029 0.002 -0.002 0.014
C17 0.025 0.088 0.038 -0.002 -0.003 0
C18 0.03 0.054 0.037 0.005 -0.001 -0.003
C19 0.027 0.105 0.029 0 0 0.003
C20 0.06 0.112 0.037 0.005 0.003 0.031
C21 0.049 0.117 0.048 0.021 -0.005 -0.005
C22 0.024 0.127 0.027 0 0 -0.005
C23 0.088 0.099 0.051 -0.021 0.023 -0.035
N1 0.037 0.079 0.068 -0.009 0.012 0.018
N2 0.02 0.033 0.046 0.002 0.014 0.01
N3 0.026(2) 0.026(2) 0.026(2) 0.017(2) 0.017(2) 0.017(2)
N4 0.042 0.1 0.055 -0.006 0.011 0.014
N5 0.035 0.058 0.032 -0.005 0.004 0
N6 0.071 0.098 0.037 0 0 -0.037
N7 0.077 0.179 0.04 -0.012 0.006 -0.048
N8 0.034 0.105 0.037 0 0 0.016
O4 0.087 0.067 0.113 0.004 -0.019 0.051
Ag1E 0.1098 0.0835 0.0385 0.0154 0.0302 0.0041
Ag1D 0.0835(6) 0.0385(4) 0.1098(8) 0.0302(4) 0.0041(5) 0.0154(4)
Ag1A 0.0385 0.1098 0.0835 -0.0041 -0.0154 0.0302
Ag1I 0.1098 0.0835 0.0385 -0.0154 -0.0302 0.0041
Ag1F 0.0835 0.0385 0.1098 -0.0302 -0.0041 0.0154
Ag1G 0.1098 0.0835 0.0385 -0.0154 0.0302 -0.0041
Ag1H 0.0835 0.0385 0.1098 0.0302 -0.0041 -0.0154
C1E 0.025 0.026 0.028 0.015 0.01 0.008
C1D 0.026(3) 0.028(3) 0.025(3) 0.010(3) 0.008(2) 0.015(3)
C1A 0.028 0.025 0.026 -0.008 -0.015 0.01
C1I 0.025 0.026 0.028 -0.015 -0.01 0.008
C1F 0.026 0.028 0.025 -0.01 -0.008 0.015
C2E 0.055 0.022 0.041 0.007 0.016 0.007
C2D 0.022(3) 0.041(4) 0.055(5) 0.016(4) 0.007(3) 0.007(3)
C2A 0.041 0.055 0.022 -0.007 -0.007 0.016
C2I 0.055 0.022 0.041 -0.007 -0.016 0.007
C2F 0.022 0.041 0.055 -0.016 -0.007 0.007
C3E 0.042 0.03 0.035 0.003 0.01 0.001
C3D 0.030(3) 0.035(4) 0.042(4) 0.010(3) 0.001(3) 0.003(3)
C3A 0.035 0.042 0.03 -0.001 -0.003 0.01
C3I 0.042 0.03 0.035 -0.003 -0.01 0.001
C3F 0.03 0.035 0.042 -0.01 -0.001 0.003
C4E 0.034 0.026 0.022 0.015 0.007 0.003
C4D 0.026(3) 0.022(3) 0.034(3) 0.007(3) 0.003(3) 0.015(3)
C4A 0.022 0.034 0.026 -0.003 -0.015 0.007
C4I 0.034 0.026 0.022 -0.015 -0.007 0.003
C4F 0.026 0.022 0.034 -0.007 -0.003 0.015
C5E 0.063 0.026 0.034 0.003 0.023 0.013
C5D 0.026(3) 0.034(4) 0.063(5) 0.023(4) 0.013(3) 0.003(3)
C5A 0.034 0.063 0.026 -0.013 -0.003 0.023
C5I 0.063 0.026 0.034 -0.003 -0.023 0.013
C5F 0.026 0.034 0.063 -0.023 -0.013 0.003
C6E 0.065 0.021 0.037 0.006 0.026 0.012
C6D 0.021(3) 0.037(4) 0.065(5) 0.026(4) 0.012(3) 0.006(3)
C6A 0.037 0.065 0.021 -0.012 -0.006 0.026
C6I 0.065 0.021 0.037 -0.006 -0.026 0.012
C6F 0.021 0.037 0.065 -0.026 -0.012 0.006
C7E 0.064 0.059 0.034 0.012 0.006 -0.018
C7D 0.059(5) 0.034(4) 0.064(5) 0.006(4) -0.018(5) 0.012(4)
C7A 0.034 0.064 0.059 0.018 -0.012 0.006
C7I 0.064 0.059 0.034 -0.012 -0.006 -0.018
C7F 0.059 0.034 0.064 -0.006 0.018 0.012
C8E 0.073 0.053 0.049 0.016 0.004 -0.019
C8D 0.053(5) 0.049(5) 0.073(6) 0.004(5) -0.019(5) 0.016(4)
C8A 0.049 0.073 0.053 0.019 -0.016 0.004
C8I 0.073 0.053 0.049 -0.016 -0.004 -0.019
C8F 0.053 0.049 0.073 -0.004 0.019 0.016
C9E 0.06 0.056 0.026 0.009 0.02 -0.013
C9D 0.056(4) 0.026(3) 0.060(5) 0.020(3) -0.013(4) 0.009(3)
C9A 0.026 0.06 0.056 0.013 -0.009 0.02
C9I 0.06 0.056 0.026 -0.009 -0.02 -0.013
C9F 0.056 0.026 0.06 -0.02 0.013 0.009
C10A 0.022 0.051 0.073 -0.004 -0.015 0.009
C10E 0.051 0.073 0.022 0.015 0.009 0.004
C10G 0.051 0.073 0.022 -0.015 0.009 -0.004
C10D 0.073(6) 0.022(4) 0.051(5) 0.009(3) 0.004(4) 0.015(4)
C10H 0.073 0.022 0.051 0.009 -0.004 -0.015
C11A 0.042 0.142 0.048 -0.005 -0.003 0.024
C11E 0.142 0.048 0.042 0.003 0.024 0.005
C11G 0.142 0.048 0.042 -0.003 0.024 -0.005
C11D 0.048(5) 0.042(5) 0.142(12) 0.024(6) 0.005(7) 0.003(4)
C11H 0.048 0.042 0.142 0.024 -0.005 -0.003
C12A 0.049 0.117 0.032 0.015 -0.004 0.008
C12E 0.117 0.032 0.049 0.004 0.008 -0.015
C12G 0.117 0.032 0.049 -0.004 0.008 0.015
C12D 0.032(4) 0.049(5) 0.117(10) 0.008(6) -0.015(5) 0.004(4)
C12H 0.032 0.049 0.117 0.008 0.015 -0.004
C13A 0.024 0.051 0.029 -0.004 -0.004 0.011
C13E 0.051 0.029 0.024 0.004 0.011 0.004
C13G 0.051 0.029 0.024 -0.004 0.011 -0.004
C13D 0.029(3) 0.024(3) 0.051(4) 0.011(3) 0.004(3) 0.004(3)
C13H 0.029 0.024 0.051 0.011 -0.004 -0.004
C14A 0.014 0.075 0.038 0.02 -0.003 0.006
C14E 0.075 0.038 0.014 0.003 0.006 -0.02
C14G 0.075 0.038 0.014 -0.003 0.006 0.02
C14D 0.038(4) 0.014(3) 0.075(6) 0.006(3) -0.020(4) 0.003(3)
C14H 0.038 0.014 0.075 0.006 0.02 -0.003
C15A 0.026 0.108 0.035 0.012 0.002 0.017
C15E 0.108 0.035 0.026 -0.002 0.017 -0.012
C15G 0.108 0.035 0.026 0.002 0.017 0.012
C15D 0.035(4) 0.026(4) 0.108(8) 0.017(5) -0.012(5) -0.002(3)
C15H 0.035 0.026 0.108 0.017 0.012 0.002
C16A 0.023 0.108 0.029 -0.002 0.002 0.014
C16E 0.108 0.029 0.023 -0.002 0.014 0.002
C16G 0.108 0.029 0.023 0.002 0.014 -0.002
C16D 0.029(4) 0.023(4) 0.108(8) 0.014(4) 0.002(4) -0.002(3)
C16H 0.029 0.023 0.108 0.014 -0.002 0.002
C17A 0.025 0.088 0.038 0.002 0.003 0
C17E 0.088 0.038 0.025 -0.003 0 -0.002
C17G 0.088 0.038 0.025 0.003 0 0.002
C17D 0.038(4) 0.025(4) 0.088(7) 0.000(4) -0.002(4) -0.003(3)
C17H 0.038 0.025 0.088 0 0.002 0.003
C18A 0.03 0.054 0.037 -0.005 0.001 -0.003
C18E 0.054 0.037 0.03 -0.001 -0.003 0.005
C18G 0.054 0.037 0.03 0.001 -0.003 -0.005
C18D 0.037(4) 0.030(4) 0.054(5) -0.003(3) 0.005(3) -0.001(3)
C18H 0.037 0.03 0.054 -0.003 -0.005 0.001
C19E 0.105 0.029 0.027 0 0.003 0
C19D 0.029(5) 0.027(5) 0.105(11) 0.003(6) 0.000 0.000
C20A 0.06 0.112 0.037 -0.005 -0.003 0.031
C20E 0.112 0.037 0.06 0.003 0.031 0.005
C20G 0.112 0.037 0.06 -0.003 0.031 -0.005
C20D 0.037(5) 0.060(6) 0.112(10) 0.031(6) 0.005(5) 0.003(4)
C20H 0.037 0.06 0.112 0.031 -0.005 -0.003
C21A 0.049 0.117 0.048 -0.021 0.005 -0.005
C21E 0.117 0.048 0.049 -0.005 -0.005 0.021
C21G 0.117 0.048 0.049 0.005 -0.005 -0.021
C21D 0.048(6) 0.049(6) 0.117(10) -0.005(6) 0.021(6) -0.005(4)
C21H 0.048 0.049 0.117 -0.005 -0.021 0.005
C22E 0.127 0.027 0.024 0 -0.005 0
C22D 0.027(6) 0.024(5) 0.127(14) -0.005(7) 0.000 0.000
C23A 0.088 0.099 0.051 0.021 -0.023 -0.035
C23E 0.099 0.051 0.088 0.023 -0.035 -0.021
C23G 0.099 0.051 0.088 -0.023 -0.035 0.021
C23D 0.051(6) 0.088(8) 0.099(9) -0.035(7) -0.021(6) 0.023(6)
C23H 0.051 0.088 0.099 -0.035 0.021 -0.023
N1E 0.079 0.068 0.037 0.012 0.018 -0.009
N1D 0.068(5) 0.037(4) 0.079(6) 0.018(4) -0.009(5) 0.012(4)
N1A 0.037 0.079 0.068 0.009 -0.012 0.018
N1I 0.079 0.068 0.037 -0.012 -0.018 -0.009
N1F 0.068 0.037 0.079 -0.018 0.009 0.012
N2E 0.033 0.046 0.02 0.014 0.01 0.002
N2D 0.046(4) 0.020(3) 0.033(3) 0.010(2) 0.002(3) 0.014(3)
N2A 0.02 0.033 0.046 -0.002 -0.014 0.01
N2I 0.033 0.046 0.02 -0.014 -0.01 0.002
N2F 0.046 0.02 0.033 -0.01 -0.002 0.014
N3A 0.026 0.026 0.026 -0.017 -0.017 0.017
N4A 0.042 0.1 0.055 0.006 -0.011 0.014
N4E 0.1 0.055 0.042 0.011 0.014 -0.006
N4G 0.1 0.055 0.042 -0.011 0.014 0.006
N4D 0.055(5) 0.042(4) 0.100(7) 0.014(5) -0.006(5) 0.011(4)
N4H 0.055 0.042 0.1 0.014 0.006 -0.011
N4I 0.1 0.055 0.042 -0.011 -0.014 -0.006
N4F 0.055 0.042 0.1 -0.014 0.006 0.011
N5A 0.035 0.058 0.032 0.005 -0.004 0
N5E 0.058 0.032 0.035 0.004 0 -0.005
N5G 0.058 0.032 0.035 -0.004 0 0.005
N5D 0.032(3) 0.035(3) 0.058(4) 0.000(3) -0.005(3) 0.004(3)
N5H 0.032 0.035 0.058 0 0.005 -0.004
N6E 0.098 0.037 0.071 0 -0.037 0
N6D 0.037(6) 0.071(8) 0.098(10) -0.037(8) 0.000 0.000
N7A 0.077 0.179 0.04 0.012 -0.006 -0.048
N7E 0.179 0.04 0.077 0.006 -0.048 -0.012
N7G 0.179 0.04 0.077 -0.006 -0.048 0.012
N7D 0.040(5) 0.077(9) 0.179(18) -0.048(9) -0.012(7) 0.006(4)
N7H 0.04 0.077 0.179 -0.048 0.012 -0.006
N8E 0.105 0.037 0.034 0 0.016 0
N8D 0.037(4) 0.034(4) 0.105(7) 0.016(5) 0.000 0.000
O4E 0.067 0.113 0.087 -0.019 0.051 0.004
O4D 0.113(6) 0.087(5) 0.067(4) 0.051(4) 0.004(4) -0.019(4)
O4A 0.087 0.067 0.113 -0.004 0.019 0.051
O4I 0.067 0.113 0.087 0.019 -0.051 0.004
O4F 0.113 0.087 0.067 -0.051 -0.004 -0.019
loop_
_geom_bond_atom_site_label_1
_geom_bond_atom_site_label_2
_geom_bond_site_symmetry_1
_geom_bond_site_symmetry_2
Ag1 N1 1_555 1_555
Mo1 O1 1_555 1_555
Mo2 O2 1_555 1_555
C1 C2 1_555 1_555
C2 H1 1_555 1_555
C3 C2 1_555 1_555
H2 C3 1_555 1_555
C4 C3 1_555 1_555
C5 C4 1_555 1_555
H3 C5 1_555 1_555
C6 C1 1_555 1_555
H4 C6 1_555 1_555
C7 H5 1_555 1_555
C8 C7 1_555 1_555
H6 C8 1_555 1_555
C9 H7 1_555 1_555
C10 H8 1_555 1_555
C11 H9 1_555 1_555
C12 C11 1_555 1_555
H10 C12 1_555 1_555
C13 C14 1_555 1_555
C14 H11 1_555 1_555
C15 C14 1_555 1_555
H12 C15 1_555 1_555
C16 C15 1_555 1_555
C17 C16 1_555 1_555
H13 C17 1_555 1_555
C18 C13 1_555 1_555
H14 C18 1_555 1_555
C19 C20 1_555 1_555
C20 H15 1_555 1_555
C21 C20 1_555 1_555
H16 C21 1_555 1_555
C22 C21 1_555 1_555
C23 N6 1_555 1_555
N1 C8 1_555 1_555
N2 C4 1_555 1_555
N3 C1 1_555 1_555
N4 Ag1 1_555 1_555
N5 C10 1_555 1_555
N6 C22 1_555 1_555
N7 C23 1_555 1_555
N8 C16 1_555 1_555
O2 Mo1 1_555 1_555
O3 Mo2 1_555 1_555
O4 Ag1 1_555 1_555
Ag1E N1E 1_555 1_555
Ag1D N1D 1_555 1_555
Ag1A N1A 1_555 1_555
Ag1I N1I 1_555 1_555
Ag1F N1F 1_555 1_555
Ag1G N4G 1_555 1_555
Ag1H N4H 1_555 1_555
C1E N3 1_555 1_555
C1D N3 1_555 1_555
C1A C2A 1_555 1_555
C1I C2I 1_555 1_555
C1F C2F 1_555 1_555
C2E C1E 1_555 1_555
C2D C1D 1_555 1_555
C2A H1A 1_555 1_555
C2I H1I 1_555 1_555
C2F H1F 1_555 1_555
H1E C2E 1_555 1_555
H1D C2D 1_555 1_555
C3E C2E 1_555 1_555
C3D C2D 1_555 1_555
C3A C2A 1_555 1_555
C3I C2I 1_555 1_555
C3F C2F 1_555 1_555
H2E C3E 1_555 1_555
H2D C3D 1_555 1_555
H2A C3A 1_555 1_555
H2I C3I 1_555 1_555
H2F C3F 1_555 1_555
C4E C3E 1_555 1_555
C4D C3D 1_555 1_555
C4A C3A 1_555 1_555
C4I C3I 1_555 1_555
C4F C3F 1_555 1_555
C5E C4E 1_555 1_555
C5D C4D 1_555 1_555
C5A C4A 1_555 1_555
C5I C4I 1_555 1_555
C5F C4F 1_555 1_555
H3E C5E 1_555 1_555
H3D C5D 1_555 1_555
H3A C5A 1_555 1_555
H3I C5I 1_555 1_555
H3F C5F 1_555 1_555
C6E C1E 1_555 1_555
C6D C1D 1_555 1_555
C6A C1A 1_555 1_555
C6I C1I 1_555 1_555
C6F C1F 1_555 1_555
H4E C6E 1_555 1_555
H4D C6D 1_555 1_555
H4A C6A 1_555 1_555
H4I C6I 1_555 1_555
H4F C6F 1_555 1_555
C7E H5E 1_555 1_555
C7D H5D 1_555 1_555
C7A H5A 1_555 1_555
C7I H5I 1_555 1_555
C7F H5F 1_555 1_555
C8E C7E 1_555 1_555
C8D C7D 1_555 1_555
C8A C7A 1_555 1_555
C8I C7I 1_555 1_555
C8F C7F 1_555 1_555
H6E C8E 1_555 1_555
H6D C8D 1_555 1_555
H6A C8A 1_555 1_555
H6I C8I 1_555 1_555
H6F C8F 1_555 1_555
C9E H7E 1_555 1_555
C9D H7D 1_555 1_555
C9A H7A 1_555 1_555
C9I H7I 1_555 1_555
C9F H7F 1_555 1_555
C10A H8A 1_555 1_555
C10E H8E 1_555 1_555
C10G H8G 1_555 1_555
C10D H8D 1_555 1_555
C10H H8H 1_555 1_555
C11A H9A 1_555 1_555
C11E H9E 1_555 1_555
C11G H9G 1_555 1_555
C11D H9D 1_555 1_555
C11H H9H 1_555 1_555
C12A C11A 1_555 1_555
C12E C11E 1_555 1_555
C12G C11G 1_555 1_555
C12D C11D 1_555 1_555
C12H C11H 1_555 1_555
H10A C12A 1_555 1_555
H10E C12E 1_555 1_555
H10G C12G 1_555 1_555
H10D C12D 1_555 1_555
H10H C12H 1_555 1_555
C13A C14A 1_555 1_555
C13E C14E 1_555 1_555
C13G C14G 1_555 1_555
C13D C14D 1_555 1_555
C13H C14H 1_555 1_555
C14A H11A 1_555 1_555
C14E H11E 1_555 1_555
C14G H11G 1_555 1_555
C14D H11D 1_555 1_555
C14H H11H 1_555 1_555
C15A C14A 1_555 1_555
C15E C14E 1_555 1_555
C15G C14G 1_555 1_555
C15D C14D 1_555 1_555
C15H C14H 1_555 1_555
H12A C15A 1_555 1_555
H12E C15E 1_555 1_555
H12G C15G 1_555 1_555
H12D C15D 1_555 1_555
H12H C15H 1_555 1_555
C16A N8 1_555 1_555
C16E C15E 1_555 1_555
C16G C15G 1_555 1_555
C16D C15D 1_555 1_555
C16H C15H 1_555 1_555
C17A C16A 1_555 1_555
C17E C16E 1_555 1_555
C17G C16G 1_555 1_555
C17D C16D 1_555 1_555
C17H C16H 1_555 1_555
H13A C17A 1_555 1_555
H13E C17E 1_555 1_555
H13G C17G 1_555 1_555
H13D C17D 1_555 1_555
H13H C17H 1_555 1_555
C18A C13A 1_555 1_555
C18E C13E 1_555 1_555
C18G C13G 1_555 1_555
C18D C13D 1_555 1_555
C18H C13H 1_555 1_555
H14A C18A 1_555 1_555
H14E C18E 1_555 1_555
H14G C18G 1_555 1_555
H14D C18D 1_555 1_555
H14H C18H 1_555 1_555
C19E C20E 1_555 1_555
C19D C20D 1_555 1_555
C20A C19 1_555 1_555
C20E H15E 1_555 1_555
C20G C19E 1_555 1_555
C20D H15D 1_555 1_555
C20H C19D 1_555 1_555
H15A C20A 1_555 1_555
H15G C20G 1_555 1_555
H15H C20H 1_555 1_555
C21A C22 1_555 1_555
C21E C20E 1_555 1_555
C21G C20G 1_555 1_555
C21D C20D 1_555 1_555
C21H C20H 1_555 1_555
H16A C21A 1_555 1_555
H16E C21E 1_555 1_555
H16G C21G 1_555 1_555
H16D C21D 1_555 1_555
H16H C21H 1_555 1_555
C22E C21E 1_555 1_555
C22D C21D 1_555 1_555
C23A N6 1_555 1_555
C23E N6E 1_555 1_555
C23G N6E 1_555 1_555
C23D N6D 1_555 1_555
C23H N6D 1_555 1_555
N1E C8E 1_555 1_555
N1D C8D 1_555 1_555
N1A C8A 1_555 1_555
N1I C8I 1_555 1_555
N1F C8F 1_555 1_555
N2E C4E 1_555 1_555
N2D C4D 1_555 1_555
N2A C4A 1_555 1_555
N2I C4I 1_555 1_555
N2F C4F 1_555 1_555
N3A C1A 1_555 1_555
N4A Ag1A 1_555 1_555
N4E Ag1E 1_555 1_555
N4G C10G 1_555 1_555
N4D Ag1D 1_555 1_555
N4H C10H 1_555 1_555
N4I Ag1I 1_555 1_555
N4F Ag1F 1_555 1_555
N5A C10A 1_555 1_555
N5E C10E 1_555 1_555
N5G C10G 1_555 1_555
N5D C10D 1_555 1_555
N5H C10H 1_555 1_555
N6E C22E 1_555 1_555
N6D C22D 1_555 1_555
N7A N7 1_555 1_555
N7E C23E 1_555 1_555
N7G C23G 1_555 1_555
N7D C23D 1_555 1_555
N7H C23H 1_555 1_555
N8E C16E 1_555 1_555
N8D C16D 1_555 1_555
O1DA Mo1 1_555 1_555
O1EA Mo1 1_555 1_555
O3DA Mo2 1_555 1_555
O3EA Mo2 1_555 1_555
O4E Ag1E 1_555 1_555
O4D Ag1D 1_555 1_555
O4A Ag1A 1_555 1_555
O4I Ag1I 1_555 1_555
O4F Ag1F 1_555 1_555
C5 C6 1_555 1_555
C7 N2 1_555 1_555
C9 N1 1_555 1_555
C9 N2 1_555 1_555
C10 N4 1_555 1_555
C11 N4 1_555 1_555
C12 N5 1_555 1_555
C13 N5 1_555 1_555
C17 C18 1_555 1_555
C19 N8 1_555 1_555
C1I N3A 1_555 1_555
C1F N3A 1_555 1_555
C5E C6E 1_555 1_555
C5D C6D 1_555 1_555
C5A C6A 1_555 1_555
C5I C6I 1_555 1_555
C5F C6F 1_555 1_555
C7E N2E 1_555 1_555
C7D N2D 1_555 1_555
C7A N2A 1_555 1_555
C7I N2I 1_555 1_555
C7F N2F 1_555 1_555
C9E N1E 1_555 1_555
C9E N2E 1_555 1_555
C9D N1D 1_555 1_555
C9D N2D 1_555 1_555
C9A N1A 1_555 1_555
C9A N2A 1_555 1_555
C9I N1I 1_555 1_555
C9I N2I 1_555 1_555
C9F N1F 1_555 1_555
C9F N2F 1_555 1_555
C10A N4A 1_555 1_555
C10E N4E 1_555 1_555
C10D N4D 1_555 1_555
C11A N4A 1_555 1_555
C11E N4E 1_555 1_555
C11G N4G 1_555 1_555
C11D N4D 1_555 1_555
C11H N4H 1_555 1_555
C12A N5A 1_555 1_555
C12E N5E 1_555 1_555
C12G N5G 1_555 1_555
C12D N5D 1_555 1_555
C12H N5H 1_555 1_555
C13A N5A 1_555 1_555
C13E N5E 1_555 1_555
C13G N5G 1_555 1_555
C13D N5D 1_555 1_555
C13H N5H 1_555 1_555
C15A C16A 1_555 1_555
C16G N8E 1_555 1_555
C16H N8D 1_555 1_555
C17A C18A 1_555 1_555
C17E C18E 1_555 1_555
C17G C18G 1_555 1_555
C17D C18D 1_555 1_555
C17H C18H 1_555 1_555
C19E N8E 1_555 1_555
C19D N8D 1_555 1_555
C20A C21A 1_555 1_555
C21G C22E 1_555 1_555
C21H C22D 1_555 1_555
C23A N7A 1_555 1_555
N7E N7G 1_555 1_555
N7D N7H 1_555 1_555

#END
