
#######################################################################
#
#                 Cambridge Crystallographic Data Centre
#                                CCDC 
#
#######################################################################
#
# If this CIF has been generated from an entry in the Cambridge 
# Structural Database, then it will include bibliographic, chemical, 
# crystal, experimental, refinement or atomic coordinate data resulting 
# from the CCDC's data processing and validation procedures.
#
#######################################################################

data_QUQHEQ
_chemical_formula_moiety         '(C18 H15 N3 O8 Zn2)n'
_symmetry_cell_setting           orthorhombic
_symmetry_space_group_name_H-M   'P 21 21 21'
_symmetry_Int_Tables_number      19
_space_group_name_Hall           'P 2ac 2ab'
loop_
_symmetry_equiv_pos_site_id
_symmetry_equiv_pos_as_xyz
1 x,y,z
2 1/2-x,-y,1/2+z
3 1/2+x,1/2-y,-z
4 -x,1/2+y,1/2-z
_cell_length_a                   10.0245(4)
_cell_length_b                   10.8912(4)
_cell_length_c                   20.7145(8)
_cell_angle_alpha                90
_cell_angle_beta                 90
_cell_angle_gamma                90
_cell_volume                     2261.58
loop_
_atom_site_label
_atom_site_type_symbol
_atom_site_fract_x
_atom_site_fract_y
_atom_site_fract_z
N1 N 1.1210(8) 0.9687(4) 0.2642(3)
H1 H 1.1167(5) 1.0551(5) 0.2528(9)
O1 O 1.3196(8) 0.8880(9) 0.1891(3)
C1 C 1.3476(8) 0.9087(9) 0.2472(4)
O2 O 1.4658(7) 0.9013(8) 0.2673(3)
C2 C 1.2434(7) 0.9332(7) 0.2967(4)
H2 H 1.2253 0.8538 0.3194
C3 C 1.2926(9) 1.0244(8) 0.3475(4)
H3 H 1.2248 1.0321 0.3821
H4 H 1.3759 0.9931 0.3672
O3 O 1.3178(9) 1.1688(7) 0.2604(4)
C4 C 1.3183(12) 1.1488(9) 0.3184(5)
O4 O 1.3603(15) 1.2327(9) 0.3570(6)
O5 O 0.9085(7) 0.9082(7) 0.1900(3)
C5 C 0.8794(10) 0.9236(16) 0.2490(4)
O6 O 0.7574(7) 0.9256(8) 0.2699(4)
C6 C 0.9871(9) 0.9383(8) 0.2986(5)
H5 H 0.9987 0.8566 0.3198
C7 C 0.9528(11) 1.0301(8) 0.3518(5)
H6 H 0.8750 0.9994 0.3765
H7 H 1.0291 1.0366 0.3820
O7 O 0.9353(10) 1.1801(8) 0.2677(5)
C8 C 0.9208(11) 1.1561(8) 0.3253(6)
O8 O 0.8948(9) 1.2402(8) 0.3659(5)
Zn1 Zn 1.11579(14) 0.89327(9) 0.17239(5)
N2 N 1.1168(10) 1.0319(7) 0.1049(4)
C9 C 1.0397(14) 1.0244(11) 0.0527(6)
H8 H 0.9935 0.9496 0.0451
C10 C 1.0228(13) 1.1199(11) 0.0084(7)
H9 H 0.9524 1.1191 -0.0223
C11 C 1.1123(11) 1.2146(8) 0.0114(4)
C12 C 1.1969(15) 1.2210(11) 0.0624(6)
H10 H 1.2541 1.2901 0.0669
C13 C 1.2009(14) 1.1276(10) 0.1082(5)
H11 H 1.2641 1.1317 0.1423
N3 N 1.1178(10) 1.4894(7) -0.1392(3)
C14 C 1.1688(13) 1.5101(10) -0.0801(5)
H12 H 1.2047 1.5891 -0.0713
C15 C 1.1721(12) 1.4225(8) -0.0311(5)
H13 H 1.2133 1.4396 0.0092
C16 C 1.1141(12) 1.3109(8) -0.0429(4)
C17 C 1.0640(11) 1.2871(9) -0.1020(5)
H14 H 1.0301 1.2077 -0.1115
C18 C 1.0614(12) 1.3774(9) -0.1491(5)
H15 H 1.0192 1.3607 -0.1892
Zn2 Zn 1.62237(11) 0.87934(9) 0.20751(5)
O3C O 1.6822(9) 0.6688(7) 0.2396(4)
O4C O 1.6397(15) 0.7327(9) 0.1430(6)
O6_2 O 1.7574(7) 0.9256(8) 0.2699(4)
O7C O 1.0647(10) 0.6801(8) 0.2323(5)
O8C O 1.1052(9) 0.7402(8) 0.1341(5)
Zn1C Zn 0.88421(14) 1.39327(9) 0.32761(5)
N3B N 1.6178(10) 1.0106(7) 0.1392(3)
Zn2C Zn 1.37763(11) 1.37934(9) 0.29249(5)
Zn2_2 Zn 0.62237(11) 0.87934(9) 0.20751(5)
Zn2B Zn 1.12237(11) 1.62066(9) -0.20751(5)
loop_
_geom_bond_atom_site_label_1
_geom_bond_atom_site_label_2
_geom_bond_site_symmetry_1
_geom_bond_site_symmetry_2
N1 H1 1_555 1_555
O1 C1 1_555 1_555
C1 O2 1_555 1_555
O2 Zn2 1_555 1_555
C2 N1 1_555 1_555
H2 C2 1_555 1_555
C3 C2 1_555 1_555
H3 C3 1_555 1_555
H4 C3 1_555 1_555
O3 C4 1_555 1_555
C4 C3 1_555 1_555
O4 C4 1_555 1_555
O5 C5 1_555 1_555
C5 O6 1_555 1_555
O6 Zn2_2 1_555 1_555
C6 N1 1_555 1_555
H5 C6 1_555 1_555
C7 C6 1_555 1_555
H6 C7 1_555 1_555
H7 C7 1_555 1_555
O7 C8 1_555 1_555
C8 C7 1_555 1_555
O8 C8 1_555 1_555
Zn1 N1 1_555 1_555
N2 Zn1 1_555 1_555
C9 N2 1_555 1_555
H8 C9 1_555 1_555
C10 C9 1_555 1_555
H9 C10 1_555 1_555
C11 C10 1_555 1_555
C12 C11 1_555 1_555
H10 C12 1_555 1_555
C13 N2 1_555 1_555
H11 C13 1_555 1_555
N3 C14 1_555 1_555
C14 H12 1_555 1_555
C15 C14 1_555 1_555
H13 C15 1_555 1_555
C16 C11 1_555 1_555
C17 C16 1_555 1_555
H14 C17 1_555 1_555
C18 N3 1_555 1_555
H15 C18 1_555 1_555
Zn2 O3C 1_555 1_555
O4C Zn2 1_555 1_555
O6_2 Zn2 1_555 1_555
O7C Zn1 1_555 1_555
O8C Zn1 1_555 1_555
Zn1C O7 1_555 1_555
N3B Zn2 1_555 1_555
Zn2C O3 1_555 1_555
Zn2B N3 1_555 1_555
O1 Zn1 1_555 1_555
C1 C2 1_555 1_555
O4 Zn2C 1_555 1_555
O5 Zn1 1_555 1_555
C5 C6 1_555 1_555
O8 Zn1C 1_555 1_555
C12 C13 1_555 1_555
C15 C16 1_555 1_555
C17 C18 1_555 1_555

#END
