
#######################################################################
#
#                 Cambridge Crystallographic Data Centre
#                                CCDC 
#
#######################################################################
#
# If this CIF has been generated from an entry in the Cambridge 
# Structural Database, then it will include bibliographic, chemical, 
# crystal, experimental, refinement or atomic coordinate data resulting 
# from the CCDC's data processing and validation procedures.
#
#######################################################################

data_NIBXUT
_chemical_formula_moiety         '(C8 H27 Gd3 O32 P4)n'
_symmetry_cell_setting           orthorhombic
_symmetry_space_group_name_H-M   'P c a n'
_symmetry_Int_Tables_number      60
_space_group_name_Hall           '-P 2n 2c'
loop_
_symmetry_equiv_pos_site_id
_symmetry_equiv_pos_as_xyz
1 x,y,z
2 1/2-x,1/2-y,1/2+z
3 x,-y,1/2-z
4 1/2-x,1/2+y,-z
5 -x,-y,-z
6 1/2+x,1/2+y,1/2-z
7 -x,y,1/2+z
8 1/2+x,1/2-y,z
_cell_length_a                   13.0433(2)
_cell_length_b                   25.7014(3)
_cell_length_c                   11.07570(10)
_cell_angle_alpha                90
_cell_angle_beta                 90
_cell_angle_gamma                90
_cell_volume                     3712.92
loop_
_atom_site_label
_atom_site_type_symbol
_atom_site_fract_x
_atom_site_fract_y
_atom_site_fract_z
_atom_site_U_iso_or_equiv
_atom_site_thermal_displace_type
Gd1 Gd 0.342968(16) 0.781217(8) 1.020585(19) 0.0061 Uani
P1 P 0.18856(9) 0.69604(4) 0.84725(10) 0.0080 Uani
O1 O 0.2911(2) 0.71915(11) 0.8785(3) 0.0084 Uani
O2 O 0.1724(3) 0.64054(12) 0.9013(3) 0.0142 Uani
O3 O 0.1622(2) 0.69278(12) 0.7167(3) 0.0107 Uani
C1 C 0.0927(3) 0.73830(18) 0.9182(4) 0.0100 Uani
H1 H 0.1094 0.7754 0.8994 0.0120 Uiso
O4 O -0.0086(2) 0.72726(12) 0.8779(3) 0.0109 Uani
H2 H -0.0084 0.7251 0.8048 0.0160 Uiso
C2 C 0.0983(4) 0.73011(17) 1.0549(4) 0.0103 Uani
O5 O 0.1853(2) 0.73552(12) 1.1027(3) 0.0103 Uani
O6 O 0.0173(2) 0.71891(11) 1.1107(3) 0.0094 Uani
Gd2 Gd 0.50787(3) 1.0000 0.7500 0.0108 Uani
P2 P 0.29826(10) 0.91835(5) 0.68901(10) 0.0115 Uani
O7 O 0.3822(3) 0.95379(11) 0.6419(3) 0.0125 Uani
O8 O 0.2205(3) 0.94952(13) 0.7656(3) 0.0172 Uani
O9 O 0.2422(3) 0.88759(12) 0.5920(3) 0.0130 Uani
C3 C 0.3652(4) 0.87055(17) 0.7842(4) 0.0107 Uani
H3 H 0.4263 0.8585 0.7374 0.0120 Uiso
O10 O 0.3073(3) 0.82488(12) 0.8145(3) 0.0108 Uani
H4 H 0.3141 0.8077 0.7520 0.0160 Uiso
C4 C 0.4059(4) 0.89520(17) 0.9011(4) 0.0113 Uani
O11 O 0.4423(3) 0.93961(12) 0.8956(3) 0.0153 Uani
O12 O 0.3989(3) 0.86844(12) 0.9965(3) 0.0114 Uani
O13 O 0.3905(3) 0.69734(12) 1.1065(3) 0.0157 Uani
O14 O 0.1910(3) 0.83909(14) 1.0340(3) 0.0175 Uani
O15 O 0.5952(3) 0.92009(13) 0.7101(3) 0.0196 Uani
O16 O 0.6324(3) 0.98844(13) 0.9085(3) 0.0205 Uani
Gd1B Gd 0.342968(16) 1.218783(8) 0.479415(19) 0.0061 Uani
P1B P 0.18856(9) 1.30396(4) 0.65275(10) 0.0080 Uani
O1B O 0.2911(2) 1.28085(11) 0.6215(3) 0.0084 Uani
O2B O 0.1724(3) 1.35946(12) 0.5987(3) 0.0142 Uani
O3B O 0.1622(2) 1.30722(12) 0.7833(3) 0.0107 Uani
C1B C 0.0927(3) 1.26170(18) 0.5818(4) 0.0100 Uani
H1B H 0.1094 1.2246 0.6006 0.0120 Uiso
O4B O -0.0086(2) 1.27274(12) 0.6221(3) 0.0109 Uani
H2B H -0.0084 1.2749 0.6952 0.0160 Uiso
C2B C 0.0983(4) 1.26989(17) 0.4451(4) 0.0103 Uani
O5B O 0.1853(2) 1.26448(12) 0.3973(3) 0.0103 Uani
O6B O 0.0173(2) 1.28109(11) 0.3893(3) 0.0094 Uani
P2B P 0.29826(10) 1.08165(5) 0.81099(10) 0.0115 Uani
O7B O 0.3822(3) 1.04621(11) 0.8581(3) 0.0125 Uani
O8B O 0.2205(3) 1.05048(13) 0.7344(3) 0.0172 Uani
O9B O 0.2422(3) 1.11241(12) 0.9080(3) 0.0130 Uani
C3B C 0.3652(4) 1.12945(17) 0.7158(4) 0.0107 Uani
H3B H 0.4263 1.1415 0.7626 0.0120 Uiso
O10B O 0.3073(3) 1.17512(12) 0.6855(3) 0.0108 Uani
H4B H 0.3141 1.1923 0.7480 0.0160 Uiso
C4B C 0.4059(4) 1.10480(17) 0.5989(4) 0.0113 Uani
O11B O 0.4423(3) 1.06039(12) 0.6044(3) 0.0153 Uani
O12B O 0.3989(3) 1.13156(12) 0.5035(3) 0.0114 Uani
O13B O 0.3905(3) 1.30266(12) 0.3935(3) 0.0157 Uani
O14B O 0.1910(3) 1.16091(14) 0.4660(3) 0.0175 Uani
O15B O 0.5952(3) 1.07991(13) 0.7899(3) 0.0196 Uani
O16B O 0.6324(3) 1.01156(13) 0.5915(3) 0.0205 Uani
Gd1A Gd 0.157032(16) 0.718783(8) 0.520585(19) 0.0061 Uani
Gd1C Gd 0.157032(16) 1.281217(8) 0.979415(19) 0.0061 Uani
Gd1E Gd -0.157032(16) 1.281217(8) 0.479415(19) 0.0061 Uani
Gd1G Gd -0.157032(16) 0.718783(8) 1.020585(19) 0.0061 Uani
O3A O 0.3378(2) 0.80722(12) 1.2167(3) 0.0107 Uani
O3C O 0.3378(2) 1.19278(12) 0.2833(3) 0.0107 Uani
O4E O 0.4914(2) 1.22726(12) 0.6221(3) 0.0109 Uani
O4G O 0.4914(2) 0.77274(12) 0.8779(3) 0.0109 Uani
O6E O 0.5173(2) 1.21891(11) 0.3893(3) 0.0094 Uani
O6G O 0.5173(2) 0.78109(11) 1.1107(3) 0.0094 Uani
loop_
_atom_site_aniso_label
_atom_site_aniso_U_11
_atom_site_aniso_U_22
_atom_site_aniso_U_33
_atom_site_aniso_U_23
_atom_site_aniso_U_13
_atom_site_aniso_U_12
Gd1 0.00640(13) 0.00800(12) 0.00396(12) 0.00030(8) -0.00010(8) -0.00092(8)
P1 0.0085(6) 0.0101(6) 0.0055(5) 0.0005(4) -0.0007(4) -0.0021(5)
O1 0.0086(17) 0.0092(15) 0.0073(15) -0.0031(12) 0.0014(13) -0.0020(13)
O2 0.0181(18) 0.0119(16) 0.0127(17) 0.0015(13) -0.0027(14) -0.0053(14)
O3 0.0131(17) 0.0129(16) 0.0060(15) -0.0007(12) -0.0010(13) -0.0008(14)
C1 0.006(2) 0.014(2) 0.010(2) 0.0022(18) -0.0014(18) -0.0009(19)
O4 0.0074(16) 0.0205(17) 0.0048(15) 0.0008(13) -0.0009(12) -0.0010(14)
C2 0.016(3) 0.008(2) 0.007(2) -0.0012(17) -0.0010(19) -0.0016(19)
O5 0.0073(17) 0.0167(17) 0.0070(15) -0.0022(12) 0.0002(13) -0.0001(14)
O6 0.0084(17) 0.0125(15) 0.0072(15) -0.0001(12) 0.0010(13) 0.0006(13)
Gd2 0.01685(18) 0.00816(16) 0.00731(16) 0.00091(11) 0.000 0.000
P2 0.0169(6) 0.0102(6) 0.0073(6) -0.0004(4) -0.0015(5) 0.0003(5)
O7 0.0191(18) 0.0080(15) 0.0105(16) 0.0016(12) -0.0031(14) 0.0001(14)
O8 0.0199(19) 0.0176(18) 0.0141(17) -0.0039(13) 0.0018(14) 0.0002(15)
O9 0.0153(17) 0.0142(16) 0.0094(16) -0.0007(13) -0.0015(13) -0.0019(14)
C3 0.015(2) 0.007(2) 0.010(2) 0.0012(17) 0.0007(19) -0.0029(19)
O10 0.0178(17) 0.0089(15) 0.0056(15) 0.0006(12) -0.0014(13) -0.0043(14)
C4 0.012(2) 0.013(2) 0.009(2) 0.0001(18) -0.0018(18) 0.000(2)
O11 0.026(2) 0.0108(17) 0.0091(16) 0.0021(13) -0.0034(14) -0.0064(15)
O12 0.0189(18) 0.0084(15) 0.0068(16) 0.0006(12) 0.0001(13) -0.0052(14)
O13 0.0144(18) 0.0111(16) 0.0215(18) 0.0045(13) -0.0072(15) -0.0006(14)
O14 0.0137(17) 0.0241(19) 0.0148(17) 0.0020(14) -0.0005(14) 0.0039(15)
O15 0.034(2) 0.0132(17) 0.0115(17) 0.0009(13) 0.0016(16) 0.0050(16)
O16 0.027(2) 0.0224(19) 0.0121(17) 0.0044(14) -0.0045(15) -0.0051(16)
Gd1B 0.0064 0.008 0.00396 0.0003 0.0001 0.00092
P1B 0.0085 0.0101 0.0055 0.0005 0.0007 0.0021
O1B 0.0086 0.0092 0.0073 -0.0031 -0.0014 0.002
O2B 0.0181 0.0119 0.0127 0.0015 0.0027 0.0053
O3B 0.0131 0.0129 0.006 -0.0007 0.001 0.0008
C1B 0.006 0.014 0.01 0.0022 0.0014 0.0009
O4B 0.0074 0.0205 0.0048 0.0008 0.0009 0.001
C2B 0.016 0.008 0.007 -0.0012 0.001 0.0016
O5B 0.0073 0.0167 0.007 -0.0022 -0.0002 0.0001
O6B 0.0084 0.0125 0.0072 -0.0001 -0.001 -0.0006
P2B 0.0169 0.0102 0.0073 -0.0004 0.0015 -0.0003
O7B 0.0191 0.008 0.0105 0.0016 0.0031 -0.0001
O8B 0.0199 0.0176 0.0141 -0.0039 -0.0018 -0.0002
O9B 0.0153 0.0142 0.0094 -0.0007 0.0015 0.0019
C3B 0.015 0.007 0.01 0.0012 -0.0007 0.0029
O10B 0.0178 0.0089 0.0056 0.0006 0.0014 0.0043
C4B 0.012 0.013 0.009 0.0001 0.0018 0
O11B 0.026 0.0108 0.0091 0.0021 0.0034 0.0064
O12B 0.0189 0.0084 0.0068 0.0006 -0.0001 0.0052
O13B 0.0144 0.0111 0.0215 0.0045 0.0072 0.0006
O14B 0.0137 0.0241 0.0148 0.002 0.0005 -0.0039
O15B 0.034 0.0132 0.0115 0.0009 -0.0016 -0.005
O16B 0.027 0.0224 0.0121 0.0044 0.0045 0.0051
Gd1A 0.0064 0.008 0.00396 -0.0003 0.0001 -0.00092
Gd1C 0.0064 0.008 0.00396 -0.0003 -0.0001 0.00092
Gd1E 0.0064 0.008 0.00396 -0.0003 0.0001 -0.00092
Gd1G 0.0064 0.008 0.00396 -0.0003 -0.0001 0.00092
O3A 0.0131 0.0129 0.006 0.0007 0.001 -0.0008
O3C 0.0131 0.0129 0.006 0.0007 -0.001 0.0008
O4E 0.0074 0.0205 0.0048 -0.0008 0.0009 -0.001
O4G 0.0074 0.0205 0.0048 -0.0008 -0.0009 0.001
O6E 0.0084 0.0125 0.0072 0.0001 -0.001 0.0006
O6G 0.0084 0.0125 0.0072 0.0001 0.001 -0.0006
loop_
_geom_bond_atom_site_label_1
_geom_bond_atom_site_label_2
_geom_bond_site_symmetry_1
_geom_bond_site_symmetry_2
Gd1 O1 1_555 1_555
P1 O1 1_555 1_555
O2 P1 1_555 1_555
O3 P1 1_555 1_555
C1 P1 1_555 1_555
H1 C1 1_555 1_555
O4 C1 1_555 1_555
H2 O4 1_555 1_555
C2 C1 1_555 1_555
O5 Gd1 1_555 1_555
O6 C2 1_555 1_555
Gd2 O7 1_555 1_555
P2 O7 1_555 1_555
O8 P2 1_555 1_555
O9 P2 1_555 1_555
C3 P2 1_555 1_555
H3 C3 1_555 1_555
O10 Gd1 1_555 1_555
H4 O10 1_555 1_555
C4 C3 1_555 1_555
O11 Gd2 1_555 1_555
O12 Gd1 1_555 1_555
O13 Gd1 1_555 1_555
O14 Gd1 1_555 1_555
O15 Gd2 1_555 1_555
O16 Gd2 1_555 1_555
Gd1B O1B 1_555 1_555
P1B O1B 1_555 1_555
O2B P1B 1_555 1_555
O3B P1B 1_555 1_555
C1B P1B 1_555 1_555
H1B C1B 1_555 1_555
O4B C1B 1_555 1_555
H2B O4B 1_555 1_555
C2B C1B 1_555 1_555
O5B Gd1B 1_555 1_555
O6B C2B 1_555 1_555
P2B O7B 1_555 1_555
O7B Gd2 1_555 1_555
O8B P2B 1_555 1_555
O9B P2B 1_555 1_555
C3B P2B 1_555 1_555
H3B C3B 1_555 1_555
O10B Gd1B 1_555 1_555
H4B O10B 1_555 1_555
C4B C3B 1_555 1_555
O11B Gd2 1_555 1_555
O12B Gd1B 1_555 1_555
O13B Gd1B 1_555 1_555
O14B Gd1B 1_555 1_555
O15B Gd2 1_555 1_555
O16B Gd2 1_555 1_555
Gd1A O3 1_555 1_555
Gd1C O3B 1_555 1_555
Gd1E O4B 1_555 1_555
Gd1G O4 1_555 1_555
O3A Gd1 1_555 1_555
O3C Gd1B 1_555 1_555
O4E Gd1B 1_555 1_555
O4G Gd1 1_555 1_555
O6E Gd1B 1_555 1_555
O6G Gd1 1_555 1_555
C2 O5 1_555 1_555
O6 Gd1G 1_555 1_555
C3 O10 1_555 1_555
C4 O11 1_555 1_555
C4 O12 1_555 1_555
C2B O5B 1_555 1_555
O6B Gd1E 1_555 1_555
C3B O10B 1_555 1_555
C4B O11B 1_555 1_555
C4B O12B 1_555 1_555

#END
