
#######################################################################
#
#                 Cambridge Crystallographic Data Centre
#                                CCDC 
#
#######################################################################
#
# If this CIF has been generated from an entry in the Cambridge 
# Structural Database, then it will include bibliographic, chemical, 
# crystal, experimental, refinement or atomic coordinate data resulting 
# from the CCDC's data processing and validation procedures.
#
#######################################################################

data_FAHTUE
_chemical_formula_moiety         '(C42 H34 Eu2 Mn3 N6 O32)n'
_symmetry_cell_setting           hexagonal
_symmetry_space_group_name_H-M   'P 6/m c c'
_symmetry_Int_Tables_number      192
_space_group_name_Hall           '-P 6 2c'
loop_
_symmetry_equiv_pos_site_id
_symmetry_equiv_pos_as_xyz
1 x,y,z
2 -y,x-y,z
3 -x+y,-x,z
4 y,-x+y,z
5 x-y,x,z
6 y,x,1/2-z
7 -x+y,y,1/2-z
8 x,x-y,1/2-z
9 -x,-y,z
10 x-y,-y,1/2-z
11 -x,-x+y,1/2-z
12 -y,-x,1/2-z
13 -x,-y,-z
14 y,-x+y,-z
15 x-y,x,-z
16 -y,x-y,-z
17 -x+y,-x,-z
18 -y,-x,1/2+z
19 x-y,-y,1/2+z
20 -x,-x+y,1/2+z
21 x,y,-z
22 -x+y,y,1/2+z
23 x,x-y,1/2+z
24 y,x,1/2+z
_cell_length_a                   15.288(3)
_cell_length_b                   15.288(3)
_cell_length_c                   15.663(6)
_cell_angle_alpha                90
_cell_angle_beta                 90
_cell_angle_gamma                120
_cell_volume                     3170.35
loop_
_atom_site_label
_atom_site_type_symbol
_atom_site_fract_x
_atom_site_fract_y
_atom_site_fract_z
N1 N 0.52244(15) -0.23878(15) 0.2500
O1 O 0.4146(2) -0.1988(2) 0.35635(18)
O2 O 0.3843(3) -0.0633(2) -0.0938(2)
O3 O 0.4913(3) 0.1434(3) 0.0000
C1 C 0.5739(3) -0.2638(3) 0.1967(3)
C2 C 0.6771(4) -0.2136(4) 0.1951(4)
H1 H 0.7114 -0.2325 0.1571
C3 C 0.7288(2) -0.1356(2) 0.2500
H2 H 0.7990 -0.1005 0.2500
C4 C 0.5095(3) -0.1388(3) 0.3600(3)
Eu1 Eu 0.3333 -0.3333 0.2500
Mn1 Mn 0.5000 0.0000 0.0000
N1A N 0.23878(15) -0.23878(21) 0.2500
N1B N 0.23878(21) -0.52244(15) 0.2500
N1U N 0.23878(21) -0.23878(15) -0.2500
N1T N 0.52244(15) -0.23878(15) -0.2500
N1P N 0.23878(21) -0.52244(15) -0.2500
N1H N 0.47756(15) -0.76122(15) 0.2500
N1L N 0.47756(15) -0.76122(15) -0.2500
O1F O 0.3866(3) -0.1988(2) 0.14365(18)
O1B O 0.3866(3) -0.4146(2) 0.35635(18)
O1U O 0.3866(3) -0.1988(2) -0.14365(18)
O1V O 0.4146(2) -0.3866(3) -0.14365(18)
O1G O 0.4146(2) -0.3866(3) 0.14365(18)
O1K O 0.1988(2) -0.4146(2) 0.14365(18)
O1Q O 0.1988(2) -0.4146(2) -0.14365(18)
O1T O 0.4146(2) -0.1988(2) -0.35635(18)
O1P O 0.3866(3) -0.4146(2) -0.35635(18)
O1O O 0.1988(2) -0.3866(3) -0.35635(18)
O1A O 0.1988(2) -0.3866(3) 0.35635(18)
O1J O 0.5854(2) -0.6134(3) 0.14365(18)
O1S O 0.5854(2) -0.6134(3) -0.14365(18)
O1H O 0.5854(2) -0.8012(2) 0.35635(18)
O1L O 0.5854(2) -0.8012(2) -0.35635(18)
O2T O 0.3843(3) -0.0633(2) 0.0938(2)
O2B O 0.5524(4) -0.3843(3) -0.0938(2)
O2P O 0.5524(4) -0.3843(3) 0.0938(2)
O2A O 0.0633(2) -0.5524(4) -0.0938(2)
O2F O 0.5524(4) -0.0633(2) -0.4062(2)
O2U O 0.5524(4) -0.0633(2) -0.5938(2)
O2R O 0.4476(4) 0.0633(2) -0.5938(2)
O2I O 0.4476(4) 0.0633(2) -0.4062(2)
O2H O 0.6157(3) 0.0633(2) -0.0938(2)
O2L O 0.6157(3) 0.0633(2) 0.0938(2)
O2N O 0.4476(4) -0.6157(3) 0.0938(2)
O2D O 0.4476(4) -0.6157(3) -0.0938(2)
O2U_2 O 0.5524(4) -0.0633(2) 0.4062(2)
O2G O 0.3843(3) -0.5524(4) -0.4062(2)
O2K O 0.0633(2) -0.3843(3) -0.4062(2)
O2R_2 O 0.4476(4) -0.9367(2) 0.4062(2)
O2I_2 O 0.4476(4) -0.9367(2) -0.4062(2)
O3F O 0.6521(4) 0.1434(3) -0.5000
O3R O 0.3479(4) -0.1434(3) -0.5000
O3L O 0.5087(3) -0.1434(3) 0.0000
O3B O 0.6521(4) -0.4913(3) 0.0000
O3D O 0.3479(4) -0.5087(3) 0.0000
C1G C 0.5739(3) -0.1623(4) 0.3033(3)
C1V C 0.5739(3) -0.1623(4) -0.3033(3)
C1P C 0.1623(4) -0.5739(3) -0.1967(3)
C1T C 0.5739(3) -0.2638(3) -0.1967(3)
C1O C 0.2638(3) -0.1623(4) -0.1967(3)
C1U C 0.1623(4) -0.2638(3) -0.3033(3)
C1Q C 0.2638(3) -0.5739(3) -0.3033(3)
C1H C 0.4261(3) -0.7362(3) 0.1967(3)
C1L C 0.4261(3) -0.7362(3) -0.1967(3)
C1J C 0.4261(3) -0.8377(4) 0.3033(3)
C1S C 0.4261(3) -0.8377(4) -0.3033(3)
C2G C 0.6771(4) -0.1093(6) 0.3049(4)
C2O C 0.2136(4) -0.1093(6) -0.1951(4)
C2T C 0.6771(4) -0.2136(4) -0.1951(4)
C2V C 0.6771(4) -0.1093(6) -0.3049(4)
C2P C 0.1093(6) -0.6771(4) -0.1951(4)
C2Q C 0.2136(4) -0.6771(4) -0.3049(4)
C2U C 0.1093(6) -0.2136(4) -0.3049(4)
C2H C 0.3229(4) -0.7864(4) 0.1951(4)
C2L C 0.3229(4) -0.7864(4) -0.1951(4)
C2J C 0.3229(4) -0.8907(6) 0.3049(4)
C2S C 0.3229(4) -0.8907(6) -0.3049(4)
H1G H 0.7114 -0.0561 0.3429
H1O H 0.2325 -0.0561 -0.1571
H1T H 0.7114 -0.2325 -0.1571
H1V H 0.7114 -0.0561 -0.3429
H1P H 0.0561 -0.7114 -0.1571
H1Q H 0.2325 -0.7114 -0.3429
H1U H 0.0561 -0.2325 -0.3429
H1H H 0.2886 -0.7675 0.1571
H1L H 0.2886 -0.7675 -0.1571
H1J H 0.2886 -0.9439 0.3429
H1S H 0.2886 -0.9439 -0.3429
C3U C 0.1356(3) -0.1356(2) -0.2500
C3T C 0.7288(2) -0.1356(2) -0.2500
C3P C 0.1356(3) -0.7288(2) -0.2500
C3H C 0.2712(2) -0.8644(2) 0.2500
C3L C 0.2712(2) -0.8644(2) -0.2500
H2U H 0.1005 -0.1005 -0.2500
H2T H 0.7990 -0.1005 -0.2500
H2P H 0.1005 -0.7990 -0.2500
H2H H 0.2010 -0.8995 0.2500
H2L H 0.2010 -0.8995 -0.2500
C4U C 0.3517(4) -0.1388(3) -0.1400(3)
C4V C 0.5095(3) -0.3517(4) -0.1400(3)
C4G C 0.5095(3) -0.3517(4) 0.1400(3)
C4Q C 0.1388(3) -0.5095(3) -0.1400(3)
C4T C 0.5095(3) -0.1388(3) -0.3600(3)
C4P C 0.3517(4) -0.5095(3) -0.3600(3)
C4O C 0.1388(3) -0.3517(4) -0.3600(3)
C4J C 0.4905(3) -0.6483(4) 0.1400(3)
C4S C 0.4905(3) -0.6483(4) -0.1400(3)
C4H C 0.4905(3) -0.8612(3) 0.3600(3)
C4L C 0.4905(3) -0.8612(3) -0.3600(3)
Eu1T Eu 0.3333 -0.3333 -0.2500
Eu1C Eu 0.6667 -0.6666 0.2500
Eu1W Eu 0.6667 -0.6667 -0.2500
Mn1B Mn 0.5000 -0.5000 0.0000
Mn1A Mn 0.0000 -0.5000 0.0000
Mn1F Mn 0.5000 0.0000 -0.5000
Mn1F_2 Mn 0.5000 0.0000 0.5000
Mn1G Mn 0.5000 -0.5000 -0.5000
Mn1E Mn 0.0000 -0.5000 -0.5000
Mn1F_3 Mn 0.5000 -1.0000 0.5000
Mn1F_4 Mn 0.5000 -1.0000 -0.5000
O4 O 0.0000 0.0000 0.2500
O5 O 0.2590(12) 0.0326(14) 0.0000
loop_
_geom_bond_atom_site_label_1
_geom_bond_atom_site_label_2
_geom_bond_site_symmetry_1
_geom_bond_site_symmetry_2
N1 C1 1_555 1_555
O1 C4 1_555 1_555
O2 Mn1 1_555 1_555
O3 Mn1 1_555 1_555
C1 C2 1_555 1_555
C2 H1 1_555 1_555
C3 C2 1_555 1_555
H2 C3 1_555 1_555
C4 O2U_2 1_555 1_555
Eu1 N1 1_555 1_555
Mn1 O2T 1_555 1_555
N1A Eu1 1_555 1_555
N1B Eu1 1_555 1_555
N1U C1O 1_555 1_555
N1T C1V 1_555 1_555
N1P C1P 1_555 1_555
N1H C1H 1_555 1_555
N1L C1L 1_555 1_555
O1F Eu1 1_555 1_555
O1B Eu1 1_555 1_555
O1U C4U 1_555 1_555
O1V C4V 1_555 1_555
O1G Eu1 1_555 1_555
O1K Eu1 1_555 1_555
O1Q C4Q 1_555 1_555
O1T C4T 1_555 1_555
O1P C4P 1_555 1_555
O1O C4O 1_555 1_555
O1A Eu1 1_555 1_555
O1J C4J 1_555 1_555
O1S C4S 1_555 1_555
O1H C4H 1_555 1_555
O1L C4L 1_555 1_555
O2B C4V 1_555 1_555
O2P C4G 1_555 1_555
O2A C4Q 1_555 1_555
O2F C4T 1_555 1_555
O2U Mn1F 1_555 1_555
O2R Mn1F 1_555 1_555
O2I Mn1F 1_555 1_555
O2H Mn1 1_555 1_555
O2L Mn1 1_555 1_555
O2N C4J 1_555 1_555
O2D C4S 1_555 1_555
O2U_2 Mn1F_2 1_555 1_555
O2G C4P 1_555 1_555
O2K C4O 1_555 1_555
O2R_2 C4H 1_555 1_555
O2I_2 C4L 1_555 1_555
O3F Mn1F 1_555 1_555
O3R Mn1F 1_555 1_555
O3L Mn1 1_555 1_555
O3B Mn1B 1_555 1_555
O3D Mn1B 1_555 1_555
C1G N1 1_555 1_555
C1V C2V 1_555 1_555
C1P C2P 1_555 1_555
C1T N1T 1_555 1_555
C1O C2O 1_555 1_555
C1U N1U 1_555 1_555
C1Q N1P 1_555 1_555
C1H C2H 1_555 1_555
C1L C2L 1_555 1_555
C1J N1H 1_555 1_555
C1S N1L 1_555 1_555
C2G C3 1_555 1_555
C2O H1O 1_555 1_555
C2T C1T 1_555 1_555
C2V H1V 1_555 1_555
C2P H1P 1_555 1_555
C2Q C1Q 1_555 1_555
C2U C1U 1_555 1_555
C2H H1H 1_555 1_555
C2L H1L 1_555 1_555
C2J C1J 1_555 1_555
C2S C1S 1_555 1_555
H1G C2G 1_555 1_555
H1T C2T 1_555 1_555
H1Q C2Q 1_555 1_555
H1U C2U 1_555 1_555
H1J C2J 1_555 1_555
H1S C2S 1_555 1_555
C3U C2O 1_555 1_555
C3T C2T 1_555 1_555
C3P C2P 1_555 1_555
C3H C2H 1_555 1_555
C3L C2L 1_555 1_555
H2U C3U 1_555 1_555
H2T C3T 1_555 1_555
H2P C3P 1_555 1_555
H2H C3H 1_555 1_555
H2L C3L 1_555 1_555
C4U O2 1_555 1_555
C4V C1T 1_555 1_555
C4G C1 1_555 1_555
C4Q C1P 1_555 1_555
C4T C1V 1_555 1_555
C4P C1Q 1_555 1_555
C4O C1U 1_555 1_555
C4J C1H 1_555 1_555
C4S C1L 1_555 1_555
C4H C1J 1_555 1_555
C4L C1S 1_555 1_555
Eu1T N1U 1_555 1_555
Eu1C N1H 1_555 1_555
Eu1W N1L 1_555 1_555
Mn1B O2B 1_555 1_555
Mn1A O2A 1_555 1_555
Mn1F O2F 1_555 1_555
Mn1G O2G 1_555 1_555
Mn1E O2K 1_555 1_555
Mn1F_3 O2R_2 1_555 1_555
Mn1F_4 O2I_2 1_555 1_555
O1 Eu1 1_555 1_555
C4 C1G 1_555 1_555
N1T Eu1T 1_555 1_555
N1P Eu1T 1_555 1_555
O1U Eu1T 1_555 1_555
O1V Eu1T 1_555 1_555
O1G C4G 1_555 1_555
O1Q Eu1T 1_555 1_555
O1T Eu1T 1_555 1_555
O1P Eu1T 1_555 1_555
O1O Eu1T 1_555 1_555
O1J Eu1C 1_555 1_555
O1S Eu1W 1_555 1_555
O1H Eu1C 1_555 1_555
O1L Eu1W 1_555 1_555
O2P Mn1B 1_555 1_555
O2N Mn1B 1_555 1_555
O2D Mn1B 1_555 1_555
C1G C2G 1_555 1_555
C1O C4U 1_555 1_555
C2V C3T 1_555 1_555
C2Q C3P 1_555 1_555
C2U C3U 1_555 1_555
C2J C3H 1_555 1_555
C2S C3L 1_555 1_555

#END
