
#######################################################################
#
#                 Cambridge Crystallographic Data Centre
#                                CCDC 
#
#######################################################################
#
# If this CIF has been generated from an entry in the Cambridge 
# Structural Database, then it will include bibliographic, chemical, 
# crystal, experimental, refinement or atomic coordinate data resulting 
# from the CCDC's data processing and validation procedures.
#
#######################################################################

data_FAHVAM
_chemical_formula_moiety         '(C42 H34 Mn3 N6 O32 Tb2)n'
_symmetry_cell_setting           hexagonal
_symmetry_space_group_name_H-M   'P 6/m c c'
_symmetry_Int_Tables_number      192
_space_group_name_Hall           '-P 6 2c'
loop_
_symmetry_equiv_pos_site_id
_symmetry_equiv_pos_as_xyz
1 x,y,z
2 -y,x-y,z
3 -x+y,-x,z
4 y,-x+y,z
5 x-y,x,z
6 y,x,1/2-z
7 -x+y,y,1/2-z
8 x,x-y,1/2-z
9 -x,-y,z
10 x-y,-y,1/2-z
11 -x,-x+y,1/2-z
12 -y,-x,1/2-z
13 -x,-y,-z
14 y,-x+y,-z
15 x-y,x,-z
16 -y,x-y,-z
17 -x+y,-x,-z
18 -y,-x,1/2+z
19 x-y,-y,1/2+z
20 -x,-x+y,1/2+z
21 x,y,-z
22 -x+y,y,1/2+z
23 x,x-y,1/2+z
24 y,x,1/2+z
_cell_length_a                   15.351(4)
_cell_length_b                   15.351(4)
_cell_length_c                   15.812(8)
_cell_angle_alpha                90
_cell_angle_beta                 90
_cell_angle_gamma                120
_cell_volume                     3226.94
loop_
_atom_site_label
_atom_site_type_symbol
_atom_site_fract_x
_atom_site_fract_y
_atom_site_fract_z
Mn1 Mn 0.5000 0.5000 0.0000
N1 N 0.47923(5) 0.23961(2) 0.2500
O1 O 0.44922(3) 0.38422(3) 0.09331(3)
O2 O 0.58720(3) 0.38758(3) 0.14458(3)
O3 O 0.65349(4) 0.50911(4) 0.0000
C1 C 0.49385(4) 0.35265(4) 0.13999(4)
C2 C 0.42750(4) 0.26544(4) 0.19739(4)
C3 C 0.32513(5) 0.21513(5) 0.19464(5)
H1 H 0.2913 0.2335 0.1562
C4 C 0.27244(7) 0.13622(3) 0.2500
H2 H 0.2025 0.1012 0.2500
Tb1 Tb 0.6667 0.3333 0.2500
Mn1G Mn 0.5000 0.0000 0.5000
Mn1F Mn 1.0000 0.5000 0.5000
Mn1B Mn 1.0000 0.5000 0.0000
Mn1G_2 Mn 0.5000 1.0000 -0.5000
Mn1G_3 Mn 0.5000 0.0000 -0.5000
Mn1A Mn 0.5000 0.0000 0.0000
Mn1E Mn 0.5000 0.5000 0.5000
Mn1G_4 Mn 0.5000 1.0000 0.5000
N1B N 0.76038(5) 0.52077(5) 0.2500
N1P N 0.76038(5) 0.52077(5) -0.2500
N1S N 0.52077(5) 0.76038(5) -0.2500
N1O N 0.76039(2) 0.23962(5) -0.2500
N1T N 0.47923(5) 0.23961(2) -0.2500
N1A N 0.76039(2) 0.23962(5) 0.2500
N1H N 0.52077(5) 0.76039(2) 0.2500
O1G O 0.44922(3) 0.06500(4) 0.40669(3)
O1V O 0.44922(3) 0.06500(4) 0.59331(3)
O1F O 0.93500(4) 0.38422(3) 0.40669(3)
O1B O 0.93500(4) 0.55078(3) 0.09331(3)
O1P O 0.93500(4) 0.55078(3) -0.09331(3)
O1S O 0.55078(3) 0.93500(4) -0.40669(3)
O1N O 1.06500(4) 0.44922(3) -0.09331(3)
O1D O 1.06500(4) 0.44922(3) 0.09331(3)
O1S_2 O 0.55078(3) -0.06500(4) 0.59331(3)
O1J O 0.55078(3) -0.06500(4) 0.40669(3)
O1T O 0.44922(3) 0.38422(3) -0.09331(3)
O1L O 0.55078(3) 0.61578(3) -0.09331(3)
O1H O 0.55078(3) 0.61578(3) 0.09331(3)
O1V_2 O 0.44922(3) 0.06500(4) -0.40669(3)
O1K O 0.61578(3) 0.55078(3) 0.40669(3)
O1A O 0.61578(3) 0.06500(4) 0.09331(3)
O1J_2 O 0.55078(3) 0.93500(4) 0.40669(3)
O2F O 0.80038(4) 0.38758(3) 0.35542(3)
O2P O 0.80038(4) 0.41280(3) -0.14458(3)
O2S O 0.41280(3) 0.80038(4) -0.35542(3)
O2L O 0.41280(3) 0.61242(3) -0.14458(3)
O2Q O 0.61242(3) 0.41280(3) -0.35542(3)
O2O O 0.61242(3) 0.19962(4) -0.14458(3)
O2T O 0.58720(3) 0.38758(3) -0.14458(3)
O2V O 0.58720(3) 0.19962(4) -0.35542(3)
O2U O 0.80038(4) 0.38758(3) -0.35542(3)
O2B O 0.80038(4) 0.41280(3) 0.14458(3)
O2A O 0.61242(3) 0.19962(4) 0.14458(3)
O2G O 0.58720(3) 0.19962(4) 0.35542(3)
O2K O 0.61242(3) 0.41280(3) 0.35542(3)
O2H O 0.41280(3) 0.61242(3) 0.14458(3)
O2J O 0.41280(3) 0.80038(4) 0.35542(3)
O3B O 0.85562(6) 0.34651(4) 0.0000
O3D O 1.14438(6) 0.65349(4) 0.0000
O3G O 0.65349(4) 0.14438(6) 0.5000
O3S O 0.34651(4) -0.14438(6) 0.5000
O3L O 0.34651(4) 0.49089(4) 0.0000
C1G C 0.49385(4) 0.14120(6) 0.36001(4)
C1F C 0.85880(6) 0.35265(4) 0.36001(4)
C1B C 0.85880(6) 0.50615(4) 0.13999(4)
C1S C 0.50615(4) 0.85880(6) -0.36001(4)
C1T C 0.49385(4) 0.35265(4) -0.13999(4)
C1V C 0.49385(4) 0.14120(6) -0.36001(4)
C1L C 0.50615(4) 0.64735(4) -0.13999(4)
C1K C 0.64735(4) 0.50615(4) 0.36001(4)
C1A C 0.64735(4) 0.14120(6) 0.13999(4)
C1H C 0.50615(4) 0.64735(4) 0.13999(4)
C1J C 0.50615(4) 0.85880(6) 0.36001(4)
C2G C 0.42750(4) 0.16206(6) 0.30261(4)
C2B C 0.83794(6) 0.57250(4) 0.19739(4)
C2S C 0.57250(4) 0.83794(6) -0.30261(4)
C2T C 0.42750(4) 0.26544(4) -0.19739(4)
C2V C 0.42750(4) 0.16206(6) -0.30261(4)
C2K C 0.73456(4) 0.57250(4) 0.30261(4)
C2F C 0.83794(6) 0.26544(4) 0.30261(4)
C2L C 0.57250(4) 0.73456(4) -0.19739(4)
C2A C 0.73456(4) 0.16206(6) 0.19739(4)
C2H C 0.57250(4) 0.73456(4) 0.19739(4)
C2J C 0.57250(4) 0.83794(6) 0.30261(4)
C3G C 0.32513(5) 0.11000(7) 0.30536(5)
C3B C 0.89000(7) 0.67487(5) 0.19464(5)
C3S C 0.67487(5) 0.89000(7) -0.30536(5)
C3T C 0.32513(5) 0.21513(5) -0.19464(5)
C3V C 0.32513(5) 0.11000(7) -0.30536(5)
C3F C 0.89000(7) 0.21513(5) 0.30536(5)
C3K C 0.78487(5) 0.67487(5) 0.30536(5)
C3L C 0.67487(5) 0.78487(5) -0.19464(5)
C3A C 0.78487(5) 0.11000(7) 0.19464(5)
C3H C 0.67487(5) 0.78487(5) 0.19464(5)
C3J C 0.67487(5) 0.89000(7) 0.30536(5)
H1G H 0.2913 0.0578 0.3438
H1B H 0.9422 0.7087 0.1562
H1S H 0.7087 0.9422 -0.3438
H1T H 0.2913 0.2335 -0.1562
H1V H 0.2913 0.0578 -0.3438
H1F H 0.9422 0.2335 0.3438
H1K H 0.7665 0.7087 0.3438
H1L H 0.7087 0.7665 -0.1562
H1A H 0.7665 0.0578 0.1562
H1H H 0.7087 0.7665 0.1562
H1J H 0.7087 0.9422 0.3438
C4B C 0.86378(8) 0.72756(7) 0.2500
C4L C 0.72756(7) 0.86378(3) -0.2500
C4T C 0.27244(7) 0.13622(3) -0.2500
C4A C 0.86378(3) 0.13622(8) 0.2500
C4H C 0.72756(7) 0.86378(3) 0.2500
H2B H 0.8987 0.7975 0.2500
H2L H 0.7975 0.8988 -0.2500
H2T H 0.2025 0.1012 -0.2500
H2A H 0.8988 0.1013 0.2500
H2H H 0.7975 0.8988 0.2500
Tb1U Tb 0.6666 0.3333 -0.2500
Tb1M Tb 0.3333 0.6666 -0.2500
Tb1C Tb 0.3333 0.6666 0.2500
O4 O 0.79131(16) 0.72648(15) 0.0000
O5 O 0.00000(7) 0.00000(3) 0.2500
loop_
_geom_bond_atom_site_label_1
_geom_bond_atom_site_label_2
_geom_bond_site_symmetry_1
_geom_bond_site_symmetry_2
Mn1 O1 1_555 1_555
N1 C2 1_555 1_555
O1 C1 1_555 1_555
O2 C1 1_555 1_555
O3 Mn1 1_555 1_555
C1 C2 1_555 1_555
C2 C3 1_555 1_555
C3 H1 1_555 1_555
C4 C3 1_555 1_555
H2 C4 1_555 1_555
Tb1 N1 1_555 1_555
Mn1G O1G 1_555 1_555
Mn1F O1F 1_555 1_555
Mn1B O1B 1_555 1_555
Mn1G_2 O1S 1_555 1_555
Mn1G_3 O1V_2 1_555 1_555
Mn1A O1A 1_555 1_555
Mn1E O1K 1_555 1_555
Mn1G_4 O1J_2 1_555 1_555
N1B Tb1 1_555 1_555
N1P Tb1U 1_555 1_555
N1S C2S 1_555 1_555
N1O Tb1U 1_555 1_555
N1T C2T 1_555 1_555
N1A Tb1 1_555 1_555
N1H C2H 1_555 1_555
O1G C1G 1_555 1_555
O1V Mn1G 1_555 1_555
O1F C1F 1_555 1_555
O1B C1B 1_555 1_555
O1P Mn1B 1_555 1_555
O1S C1S 1_555 1_555
O1N Mn1B 1_555 1_555
O1D Mn1B 1_555 1_555
O1S_2 Mn1G 1_555 1_555
O1J Mn1G 1_555 1_555
O1T Mn1 1_555 1_555
O1L Mn1 1_555 1_555
O1H Mn1 1_555 1_555
O1V_2 C1V 1_555 1_555
O1K C1K 1_555 1_555
O1A C1A 1_555 1_555
O1J_2 C1J 1_555 1_555
O2F Tb1 1_555 1_555
O2P Tb1U 1_555 1_555
O2S C1S 1_555 1_555
O2L C1L 1_555 1_555
O2Q Tb1U 1_555 1_555
O2O Tb1U 1_555 1_555
O2T C1T 1_555 1_555
O2V C1V 1_555 1_555
O2U Tb1U 1_555 1_555
O2B Tb1 1_555 1_555
O2A Tb1 1_555 1_555
O2G Tb1 1_555 1_555
O2K Tb1 1_555 1_555
O2H C1H 1_555 1_555
O2J C1J 1_555 1_555
O3B Mn1B 1_555 1_555
O3D Mn1B 1_555 1_555
O3G Mn1G 1_555 1_555
O3S Mn1G 1_555 1_555
O3L Mn1 1_555 1_555
C1G O2G 1_555 1_555
C1F O2F 1_555 1_555
C1B O2B 1_555 1_555
C1S C2S 1_555 1_555
C1T O1T 1_555 1_555
C1V C2V 1_555 1_555
C1L O1L 1_555 1_555
C1K O2K 1_555 1_555
C1A O2A 1_555 1_555
C1H O1H 1_555 1_555
C1J C2J 1_555 1_555
C2G N1 1_555 1_555
C2B N1B 1_555 1_555
C2S C3S 1_555 1_555
C2T C1T 1_555 1_555
C2V N1T 1_555 1_555
C2K N1B 1_555 1_555
C2F N1A 1_555 1_555
C2L N1S 1_555 1_555
C2A N1A 1_555 1_555
C2H C1H 1_555 1_555
C2J N1H 1_555 1_555
C3G C4 1_555 1_555
C3B C2B 1_555 1_555
C3S H1S 1_555 1_555
C3T C2T 1_555 1_555
C3V C2V 1_555 1_555
C3F C2F 1_555 1_555
C3K C2K 1_555 1_555
C3L C2L 1_555 1_555
C3A C2A 1_555 1_555
C3H C2H 1_555 1_555
C3J C2J 1_555 1_555
H1G C3G 1_555 1_555
H1B C3B 1_555 1_555
H1T C3T 1_555 1_555
H1V C3V 1_555 1_555
H1F C3F 1_555 1_555
H1K C3K 1_555 1_555
H1L C3L 1_555 1_555
H1A C3A 1_555 1_555
H1H C3H 1_555 1_555
H1J C3J 1_555 1_555
C4B C3B 1_555 1_555
C4L C3S 1_555 1_555
C4T C3T 1_555 1_555
C4A C3F 1_555 1_555
C4H C3H 1_555 1_555
H2B C4B 1_555 1_555
H2L C4L 1_555 1_555
H2T C4T 1_555 1_555
H2A C4A 1_555 1_555
H2H C4H 1_555 1_555
Tb1U N1T 1_555 1_555
Tb1M N1S 1_555 1_555
Tb1C N1H 1_555 1_555
O2 Tb1 1_555 1_555
O2S Tb1M 1_555 1_555
O2L Tb1M 1_555 1_555
O2T Tb1U 1_555 1_555
O2V Tb1U 1_555 1_555
O2H Tb1C 1_555 1_555
O2J Tb1C 1_555 1_555
C1G C2G 1_555 1_555
C1F C2F 1_555 1_555
C1B C2B 1_555 1_555
C1L C2L 1_555 1_555
C1K C2K 1_555 1_555
C1A C2A 1_555 1_555
C2G C3G 1_555 1_555
C3V C4T 1_555 1_555
C3K C4B 1_555 1_555
C3L C4L 1_555 1_555
C3A C4A 1_555 1_555
C3J C4H 1_555 1_555

#END
