
#######################################################################
#
#                 Cambridge Crystallographic Data Centre
#                                CCDC 
#
#######################################################################
#
# If this CIF has been generated from an entry in the Cambridge 
# Structural Database, then it will include bibliographic, chemical, 
# crystal, experimental, refinement or atomic coordinate data resulting 
# from the CCDC's data processing and validation procedures.
#
#######################################################################

data_PEBNEP
_chemical_formula_moiety         '(C36 H40 Cl6 Co1 Cu2 N12 O2)n'
_symmetry_cell_setting           monoclinic
_symmetry_space_group_name_H-M   'C 2/c'
_symmetry_Int_Tables_number      15
_space_group_name_Hall           '-C 2yc'
loop_
_symmetry_equiv_pos_site_id
_symmetry_equiv_pos_as_xyz
1 x,y,z
2 1/2+x,1/2+y,z
3 -x,y,1/2-z
4 1/2-x,1/2+y,1/2-z
5 -x,-y,-z
6 1/2-x,1/2-y,-z
7 x,-y,1/2+z
8 1/2+x,1/2-y,1/2+z
_cell_length_a                   7.474(3)
_cell_length_b                   22.137(7)
_cell_length_c                   28.155(10)
_cell_angle_alpha                90
_cell_angle_beta                 96.21(3)
_cell_angle_gamma                90
_cell_volume                     4630.96
loop_
_atom_site_label
_atom_site_type_symbol
_atom_site_fract_x
_atom_site_fract_y
_atom_site_fract_z
Co1 Co 0.5000 0.38098(11) 0.2500
Cu1 Cu 0.52221(21) 0.06658(7) 0.03193(5)
Cl1 Cl 0.2707(7) 0.42777(23) 0.20950(17)
Cl2 Cl 0.6693(5) 0.13312(15) 0.08367(12)
Cl3 Cl 0.2910(4) 0.03183(13) -0.02706(11)
N1 N 0.3984(12) 0.0337(4) 0.0857(3)
N2 N 0.2341(13) 0.0484(4) 0.0996(3)
N3 N 0.6035(13) 0.1606(4) -0.0368(3)
N4 N 0.6470(12) 0.1045(4) -0.0198(3)
N5 N 0.5491(12) 0.2709(4) 0.1884(3)
N6 N 0.6170(13) 0.3233(5) 0.2089(3)
C1 C 0.4673(18) -0.0043(5) 0.1191(4)
C2 C 0.3482(21) -0.0139(6) 0.1532(4)
C3 C 0.2040(19) 0.0205(6) 0.1403(4)
C4 C 0.1209(16) 0.0933(5) 0.0725(4)
C5 C 0.1601(15) 0.1588(5) 0.0840(4)
C6 C 0.1058(14) 0.2010(5) 0.0501(4)
C7 C 0.1339(15) 0.2645(5) 0.0603(4)
C8 C 0.0601(18) 0.3105(6) 0.0233(4)
C9 C 0.7236(17) 0.1800(6) -0.0644(4)
C10 C 0.8543(17) 0.1362(6) -0.0658(4)
C11 C 0.7990(15) 0.0915(5) -0.0374(4)
C12 C 0.2163(16) 0.2820(5) 0.1042(4)
C13 C 0.2737(15) 0.2374(5) 0.1388(4)
C14 C 0.2449(14) 0.1778(5) 0.1277(4)
C15 C 0.3555(16) 0.2565(6) 0.1875(4)
C16 C 0.6723(18) 0.2349(7) 0.1751(5)
C17 C 0.8335(17) 0.2636(8) 0.1835(5)
C18 C 0.7926(19) 0.3169(7) 0.2041(4)
H1 H 0.584 -0.025 0.119
H2 H 0.368 -0.036 0.180
H3 H 0.084 0.021 0.154
H4 H 0.128 0.086 0.038
H5 H -0.007 0.085 0.077
H6 H -0.006 0.223 0.053
H7 H 0.157 0.342 0.020
H8 H 0.042 0.293 -0.009
H9 H 0.721 0.221 -0.079
H11 H 0.870 0.053 -0.030
H13 H 0.287 0.146 0.152
H14 H 0.341 0.224 0.210
H15 H 0.292 0.291 0.198
H16 H 0.651 0.192 0.160
H17 H 0.957 0.246 0.176
H18 H 0.8891 0.344 0.209
Cl1B Cl 0.7293(7) 0.42777(23) 0.29050(17)
Cu1D Cu 0.47779(21) -0.06658(7) -0.03193(5)
Cl2D Cl 0.3307(5) -0.13312(15) -0.08367(12)
Cl3D Cl 0.7090(4) -0.03183(13) 0.02706(11)
C8E C 0.4399(18) 0.1895(6) -0.0233(4)
C7E C 0.3661(15) 0.2355(5) -0.0603(4)
C6E C 0.3942(14) 0.2990(5) -0.0501(4)
C5E C 0.3399(15) 0.3412(5) -0.0840(4)
C4E C 0.3791(16) 0.4067(5) -0.0725(4)
N2E N 0.2659(13) 0.4516(4) -0.0996(3)
N1E N 0.1016(12) 0.4663(4) -0.0857(3)
Cu1E Cu -0.02221(21) 0.43342(7) -0.03193(5)
N4E N -0.1470(12) 0.3955(4) 0.0198(3)
N3E N -0.1035(13) 0.3394(4) 0.0368(3)
C9E C -0.2236(17) 0.3200(6) 0.0644(4)
C10E C -0.3543(17) 0.3638(6) 0.0658(4)
C11E C -0.2990(15) 0.4085(5) 0.0374(4)
H11E H -0.370 0.447 0.030
H9E H -0.221 0.279 0.079
C1E C 0.0327(18) 0.5043(5) -0.1191(4)
C2E C 0.1518(21) 0.5139(6) -0.1532(4)
C3E C 0.2960(19) 0.4795(6) -0.1403(4)
H3E H 0.416 0.479 -0.154
H2E H 0.132 0.536 -0.180
H1E H -0.084 0.525 -0.119
H4E H 0.372 0.414 -0.038
H5E H 0.507 0.415 -0.077
C14E C 0.2551(14) 0.3222(5) -0.1277(4)
C13E C 0.2263(15) 0.2626(5) -0.1388(4)
C12E C 0.2837(16) 0.2180(5) -0.1042(4)
C15E C 0.1445(16) 0.2435(6) -0.1875(4)
N5E N -0.0491(12) 0.2291(4) -0.1884(3)
N6E N -0.1170(13) 0.1767(5) -0.2089(3)
Co1E Co -0.0000 0.11902(11) -0.2500
C18E C -0.2926(19) 0.1831(7) -0.2041(4)
C17E C -0.3335(17) 0.2364(8) -0.1835(5)
C16E C -0.1723(18) 0.2651(7) -0.1751(5)
H16E H -0.151 0.308 -0.160
H17E H -0.457 0.254 -0.176
H18E H -0.3891 0.156 -0.209
H14E H 0.159 0.276 -0.210
H15E H 0.208 0.209 -0.198
H13E H 0.213 0.354 -0.152
H6E H 0.506 0.277 -0.053
H7E H 0.343 0.158 -0.020
H8E H 0.458 0.207 0.009
N1D N 0.6016(12) -0.0337(4) -0.0857(3)
N4D N 0.3530(12) -0.1045(4) 0.0198(3)
N6B N 0.3830(13) 0.3233(5) 0.2911(3)
O1 O 0.50000 0.1234(9) 0.2500
H19 H 0.583 0.090 0.243
H19B H 0.417 0.090 0.257
O2 O 0.793(4) 0.0823(12) 0.2172(8)
H20 H 0.804 0.071 0.185
H21 H 0.873 0.077 0.243
loop_
_geom_bond_atom_site_label_1
_geom_bond_atom_site_label_2
_geom_bond_site_symmetry_1
_geom_bond_site_symmetry_2
Co1 Cl1 1_555 1_555
Cu1 Cl2 1_555 1_555
Cl3 Cu1 1_555 1_555
N1 Cu1 1_555 1_555
N2 N1 1_555 1_555
N3 N4 1_555 1_555
N4 Cu1 1_555 1_555
N5 N6 1_555 1_555
N6 Co1 1_555 1_555
C1 N1 1_555 1_555
C2 C1 1_555 1_555
C3 N2 1_555 1_555
C4 N2 1_555 1_555
C5 C4 1_555 1_555
C6 C5 1_555 1_555
C7 C6 1_555 1_555
C8 C7 1_555 1_555
C9 N3 1_555 1_555
C10 C9 1_555 1_555
C11 N4 1_555 1_555
C12 C7 1_555 1_555
C13 C12 1_555 1_555
C14 C5 1_555 1_555
C15 N5 1_555 1_555
C16 N5 1_555 1_555
C17 C16 1_555 1_555
C18 N6 1_555 1_555
O1 H19 1_555 1_555
O2 H20 1_555 1_555
H1 C1 1_555 1_555
H2 C2 1_555 1_555
H3 C3 1_555 1_555
H4 C4 1_555 1_555
H5 C4 1_555 1_555
H6 C6 1_555 1_555
H7 C8 1_555 1_555
H8 C8 1_555 1_555
H9 C9 1_555 1_555
H11 C11 1_555 1_555
H13 C14 1_555 1_555
H14 C15 1_555 1_555
H15 C15 1_555 1_555
H16 C16 1_555 1_555
H17 C17 1_555 1_555
H18 C18 1_555 1_555
H21 O2 1_555 1_555
Cl1B Co1 1_555 1_555
Cu1D Cl3 1_555 1_555
Cl2D Cu1D 1_555 1_555
Cl3D Cu1 1_555 1_555
C8E N3 1_555 1_555
C7E C8E 1_555 1_555
C6E C7E 1_555 1_555
C5E C6E 1_555 1_555
C4E C5E 1_555 1_555
N2E C4E 1_555 1_555
N1E N2E 1_555 1_555
Cu1E N1E 1_555 1_555
N4E Cu1E 1_555 1_555
N3E C8 1_555 1_555
C9E N3E 1_555 1_555
C10E C9E 1_555 1_555
C11E N4E 1_555 1_555
H11E C11E 1_555 1_555
H9E C9E 1_555 1_555
C1E N1E 1_555 1_555
C2E C1E 1_555 1_555
C3E N2E 1_555 1_555
H3E C3E 1_555 1_555
H2E C2E 1_555 1_555
H1E C1E 1_555 1_555
H4E C4E 1_555 1_555
H5E C4E 1_555 1_555
C14E C5E 1_555 1_555
C13E C14E 1_555 1_555
C12E C7E 1_555 1_555
C15E C13E 1_555 1_555
N5E C15E 1_555 1_555
N6E N5E 1_555 1_555
Co1E N6E 1_555 1_555
C18E N6E 1_555 1_555
C17E C18E 1_555 1_555
C16E N5E 1_555 1_555
H16E C16E 1_555 1_555
H17E C17E 1_555 1_555
H18E C18E 1_555 1_555
H14E C15E 1_555 1_555
H15E C15E 1_555 1_555
H13E C14E 1_555 1_555
H6E C6E 1_555 1_555
H7E C8E 1_555 1_555
H8E C8E 1_555 1_555
N1D Cu1D 1_555 1_555
N4D Cu1D 1_555 1_555
N6B Co1 1_555 1_555
H19B O1 1_555 1_555
C2 C3 1_555 1_555
C10 C11 1_555 1_555
C13 C15 1_555 1_555
C13 C14 1_555 1_555
C17 C18 1_555 1_555
Cu1D Cl3D 1_555 1_555
N4E N3E 1_555 1_555
C10E C11E 1_555 1_555
C2E C3E 1_555 1_555
C13E C12E 1_555 1_555
C17E C16E 1_555 1_555

#END
