
#######################################################################
#
#                 Cambridge Crystallographic Data Centre
#                                CCDC 
#
#######################################################################
#
# If this CIF has been generated from an entry in the Cambridge 
# Structural Database, then it will include bibliographic, chemical, 
# crystal, experimental, refinement or atomic coordinate data resulting 
# from the CCDC's data processing and validation procedures.
#
#######################################################################

data_OKIQEG
_chemical_formula_moiety         '(C41 H31 Cd3 N8 O18 1-)n'
_symmetry_cell_setting           monoclinic
_symmetry_space_group_name_H-M   'C 2/c'
_symmetry_Int_Tables_number      15
_space_group_name_Hall           '-C 2yc'
loop_
_symmetry_equiv_pos_site_id
_symmetry_equiv_pos_as_xyz
1 x,y,z
2 -x,y,1/2-z
3 1/2+x,1/2+y,z
4 1/2-x,1/2+y,1/2-z
5 -x,-y,-z
6 x,-y,1/2+z
7 1/2-x,1/2-y,-z
8 1/2+x,1/2-y,1/2+z
_cell_length_a                   18.944(4)
_cell_length_b                   23.156(5)
_cell_length_c                   14.411(3)
_cell_angle_alpha                90
_cell_angle_beta                 126.63(3)
_cell_angle_gamma                90
_cell_volume                     5073.14
loop_
_atom_site_label
_atom_site_type_symbol
_atom_site_fract_x
_atom_site_fract_y
_atom_site_fract_z
Cd1 Cd 0.442515(16) 1.153136(13) 0.99642(2)
Cd2 Cd 0.5000 1.0000 1.0000
O1 O 0.3369(2) 1.10661(18) 0.9929(4)
O2 O 0.44901(16) 1.04981(16) 1.0922(3)
O3 O 0.43593(18) 0.92068(15) 1.3734(3)
O4 O 0.3197(3) 0.8655(2) 1.2787(4)
O5 O -0.37605(17) 0.95430(15) 0.5998(3)
O6 O -0.4112(2) 0.86246(17) 0.6015(3)
O7 O -0.1738(2) 0.73461(19) 0.9081(3)
O8 O -0.0488(2) 0.74243(16) 0.9338(3)
O9 O 0.4823(3) 1.2002(2) 1.1610(3)
N1 N 0.0411(2) 0.94320(17) 0.9280(3)
N2 N 0.0330(2) 1.0344(2) 0.8880(4)
H1 H 0.0477 1.0693 0.8862
N3 N -0.0532(2) 1.0137(2) 0.8299(4)
C1 C 0.3731(2) 1.0628(2) 1.0530(4)
C2 C 0.3199(2) 1.0245(2) 1.0730(4)
C3 C 0.2295(2) 1.0264(2) 1.0000(4)
H2 H 0.2010 1.0511 0.9367
C4 C 0.1808(3) 0.9912(2) 1.0206(4)
C5 C 0.2231(3) 0.9530(2) 1.1108(4)
H3 H 0.1908 0.9285 1.1234
C6 C 0.3139(3) 0.9509(2) 1.1831(4)
C7 C 0.3629(3) 0.9875(2) 1.1685(4)
H4 H 0.4239 0.9878 1.2212
C8 C 0.3585(3) 0.9100(3) 1.2865(4)
C9 C 0.0849(3) 0.9934(2) 0.9429(3)
C10 C -0.0445(2) 0.9603(2) 0.8569(4)
C11 C -0.1108(3) 0.9160(2) 0.8246(4)
C12 C -0.1995(2) 0.9309(2) 0.7458(4)
H5 H -0.2162 0.9676 0.7129
C13 C -0.2622(2) 0.8892(2) 0.7185(4)
C14 C -0.2371(3) 0.8348(2) 0.7677(5)
H6 H -0.2800 0.8077 0.7486
C15 C -0.1496(3) 0.8201(2) 0.8446(4)
C16 C -0.0870(3) 0.8613(2) 0.8702(4)
H7 H -0.0277 0.8517 0.9193
C17 C -0.3584(3) 0.9033(2) 0.6321(4)
C18 C -0.1232(3) 0.7612(2) 0.8966(4)
C19 C 0.5000 1.1758(4) 1.2500
H8 H 0.5000 1.1356 1.2500
O9A O 0.5177(3) 1.2002(2) 1.3390(3)
Cd1A Cd -0.442515(16) 1.153136(13) 0.50358(2)
O1A O -0.3369(2) 1.10661(18) 0.5071(4)
O2A O -0.44901(16) 1.04981(16) 0.4078(3)
O3A O -0.43593(18) 0.92068(15) 0.1266(3)
O4A O -0.3197(3) 0.8655(2) 0.2213(4)
O5A O 0.37605(17) 0.95430(15) 0.9002(3)
O6A O 0.4112(2) 0.86246(17) 0.8985(3)
O7A O 0.1738(2) 0.73461(19) 0.5919(3)
O8A O 0.0488(2) 0.74243(16) 0.5662(3)
N1A N -0.0411(2) 0.94320(17) 0.5720(3)
N2A N -0.0330(2) 1.0344(2) 0.6120(4)
H1A H -0.0477 1.0693 0.6138
N3A N 0.0532(2) 1.0137(2) 0.6701(4)
C1A C -0.3731(2) 1.0628(2) 0.4470(4)
C2A C -0.3199(2) 1.0245(2) 0.4270(4)
C3A C -0.2295(2) 1.0264(2) 0.5000(4)
H2A H -0.2010 1.0511 0.5633
C4A C -0.1808(3) 0.9912(2) 0.4794(4)
C5A C -0.2231(3) 0.9530(2) 0.3892(4)
H3A H -0.1908 0.9285 0.3766
C6A C -0.3139(3) 0.9509(2) 0.3169(4)
C7A C -0.3629(3) 0.9875(2) 0.3315(4)
H4A H -0.4239 0.9878 0.2788
C8A C -0.3585(3) 0.9100(3) 0.2135(4)
C9A C -0.0849(3) 0.9934(2) 0.5571(3)
C10A C 0.0445(2) 0.9603(2) 0.6431(4)
C11A C 0.1108(3) 0.9160(2) 0.6754(4)
C12A C 0.1995(2) 0.9309(2) 0.7542(4)
H5A H 0.2162 0.9676 0.7871
C13A C 0.2622(2) 0.8892(2) 0.7815(4)
C14A C 0.2371(3) 0.8348(2) 0.7323(5)
H6A H 0.2800 0.8077 0.7514
C15A C 0.1496(3) 0.8201(2) 0.6554(4)
C16A C 0.0870(3) 0.8613(2) 0.6298(4)
H7A H 0.0277 0.8517 0.5807
C17A C 0.3584(3) 0.9033(2) 0.8679(4)
C18A C 0.1232(3) 0.7612(2) 0.6034(4)
Cd1A_2 Cd 0.557485(16) 1.153136(13) 1.50358(2)
Cd1B Cd -0.057485(16) 0.653136(13) 0.99642(2)
Cd1C Cd 0.057485(16) 0.653136(13) 0.50358(2)
Cd1D Cd -0.442515(16) 0.846864(13) 0.00358(2)
Cd1D_2 Cd 0.557485(16) 0.846864(13) 1.00358(2)
Cd1E Cd -0.557485(16) 0.846864(13) 0.49642(2)
Cd1E_2 Cd 0.442515(16) 0.846864(13) 1.49642(2)
Cd2_2 Cd -0.5000 1.0000 0.0000
Cd2A Cd -0.5000 1.0000 0.5000
Cd2A_2 Cd 0.5000 1.0000 1.5000
O2D O 0.55099(16) 0.95019(16) 0.9078(3)
O3A_2 O 0.56407(18) 0.92068(15) 1.1266(3)
O3D O -0.43593(18) 1.07932(15) 0.6266(3)
O3E O 0.43593(18) 1.07932(15) 0.8734(3)
O4D O -0.3197(3) 1.1345(2) 0.7213(4)
O4E O 0.3197(3) 1.1345(2) 0.7787(4)
O5E O 0.62395(17) 1.04570(15) 1.0998(3)
O6D O -0.5888(2) 1.13754(17) 0.3985(3)
O6E O 0.5888(2) 1.13754(17) 1.1015(3)
O7B O 0.3262(2) 1.23461(19) 0.9081(3)
O7C O -0.3262(2) 1.23461(19) 0.5919(3)
O8B O 0.4512(2) 1.24243(16) 0.9338(3)
O8C O -0.4512(2) 1.24243(16) 0.5662(3)
O9A_2 O -0.4823(3) 1.2002(2) 0.3390(3)
N4 N 0.1642(10) 0.7142(6) 0.945(2)
C20 C 0.1922(13) 0.7672(6) 0.978(3)
C21 C 0.0823(11) 0.7040(10) 0.858(3)
N5 N 0.1649(11) 0.8225(8) 0.2971(14)
H9 H 0.1908 0.8573 0.3122
H10 H 0.2077 0.7962 0.3217
C22 C 0.1132(14) 0.8180(10) 0.1853(18)
H11 H 0.0780 0.8523 0.1526
H12 H 0.0755 0.7851 0.1635
H13 H 0.1478 0.8134 0.1572
C23 C 0.1415(13) 0.8175(10) 0.3691(18)
H14 H 0.0944 0.8439 0.3454
H15 H 0.1911 0.8264 0.4467
H16 H 0.1224 0.7787 0.3662
loop_
_geom_bond_atom_site_label_1
_geom_bond_atom_site_label_2
_geom_bond_site_symmetry_1
_geom_bond_site_symmetry_2
Cd1 O1 1_555 1_555
Cd2 O2 1_555 1_555
O1 C1 1_555 1_555
O2 Cd1 1_555 1_555
O3 C8 1_555 1_555
O4 C8 1_555 1_555
O5 C17 1_555 1_555
O6 C17 1_555 1_555
O7 C18 1_555 1_555
O8 C18 1_555 1_555
O9 Cd1 1_555 1_555
N1 C9 1_555 1_555
N2 H1 1_555 1_555
N3 N2 1_555 1_555
C1 O2 1_555 1_555
C2 C1 1_555 1_555
C3 C2 1_555 1_555
H2 C3 1_555 1_555
C4 C3 1_555 1_555
C5 C4 1_555 1_555
H3 C5 1_555 1_555
C6 C5 1_555 1_555
C7 C2 1_555 1_555
H4 C7 1_555 1_555
C8 C6 1_555 1_555
C9 N2 1_555 1_555
C10 N1 1_555 1_555
C11 C10 1_555 1_555
C12 C11 1_555 1_555
H5 C12 1_555 1_555
C13 C12 1_555 1_555
C14 C13 1_555 1_555
H6 C14 1_555 1_555
C15 C14 1_555 1_555
C16 C11 1_555 1_555
H7 C16 1_555 1_555
C17 C13 1_555 1_555
C18 C15 1_555 1_555
C19 O9 1_555 1_555
H8 C19 1_555 1_555
N4 C20 1_555 1_555
C21 N4 1_555 1_555
N5 H9 1_555 1_555
H10 N5 1_555 1_555
C22 N5 1_555 1_555
H11 C22 1_555 1_555
H12 C22 1_555 1_555
H13 C22 1_555 1_555
C23 N5 1_555 1_555
H14 C23 1_555 1_555
H15 C23 1_555 1_555
H16 C23 1_555 1_555
O9A C19 1_555 1_555
Cd1A O1A 1_555 1_555
O1A C1A 1_555 1_555
O2A Cd1A 1_555 1_555
O3A C8A 1_555 1_555
O4A C8A 1_555 1_555
O5A Cd2 1_555 1_555
O6A C17A 1_555 1_555
O7A C18A 1_555 1_555
O8A C18A 1_555 1_555
N1A C9A 1_555 1_555
N2A H1A 1_555 1_555
N3A N2A 1_555 1_555
C1A O2A 1_555 1_555
C2A C1A 1_555 1_555
C3A C2A 1_555 1_555
H2A C3A 1_555 1_555
C4A C3A 1_555 1_555
C5A C4A 1_555 1_555
H3A C5A 1_555 1_555
C6A C5A 1_555 1_555
C7A C2A 1_555 1_555
H4A C7A 1_555 1_555
C8A C6A 1_555 1_555
C9A N2A 1_555 1_555
C10A N1A 1_555 1_555
C11A C10A 1_555 1_555
C12A C11A 1_555 1_555
H5A C12A 1_555 1_555
C13A C12A 1_555 1_555
C14A C13A 1_555 1_555
H6A C14A 1_555 1_555
C15A C14A 1_555 1_555
C16A C11A 1_555 1_555
H7A C16A 1_555 1_555
C17A O5A 1_555 1_555
C18A C15A 1_555 1_555
Cd1A_2 O9A 1_555 1_555
Cd1B O7 1_555 1_555
Cd1C O7A 1_555 1_555
Cd1D O3A 1_555 1_555
Cd1D_2 O6A 1_555 1_555
Cd1E O6 1_555 1_555
Cd1E_2 O3 1_555 1_555
Cd2_2 O3A 1_555 1_555
Cd2A O5 1_555 1_555
Cd2A_2 O3 1_555 1_555
O2D Cd2 1_555 1_555
O3A_2 Cd2 1_555 1_555
O3D Cd1A 1_555 1_555
O3E Cd1 1_555 1_555
O4D Cd1A 1_555 1_555
O4E Cd1 1_555 1_555
O5E Cd2 1_555 1_555
O6D Cd1A 1_555 1_555
O6E Cd1 1_555 1_555
O7B Cd1 1_555 1_555
O7C Cd1A 1_555 1_555
O8B Cd1 1_555 1_555
O8C Cd1A 1_555 1_555
O9A_2 Cd1A 1_555 1_555
Cd2 O3E 1_555 1_555
O4 Cd1E_2 1_555 1_555
O8 Cd1B 1_555 1_555
N3 C10 1_555 1_555
C4 C9 1_555 1_555
C6 C7 1_555 1_555
C15 C16 1_555 1_555
O2A Cd2A 1_555 1_555
O4A Cd1D 1_555 1_555
O8A Cd1C 1_555 1_555
N3A C10A 1_555 1_555
C4A C9A 1_555 1_555
C6A C7A 1_555 1_555
C13A C17A 1_555 1_555
C15A C16A 1_555 1_555
Cd1D_2 O2D 1_555 1_555
Cd1D_2 O3A_2 1_555 1_555
Cd2A O3D 1_555 1_555

#END
