
#######################################################################
#
#                 Cambridge Crystallographic Data Centre
#                                CCDC 
#
#######################################################################
#
# If this CIF has been generated from an entry in the Cambridge 
# Structural Database, then it will include bibliographic, chemical, 
# crystal, experimental, refinement or atomic coordinate data resulting 
# from the CCDC's data processing and validation procedures.
#
#######################################################################

data_ARUYOB
_chemical_formula_moiety         '(C8 H18 N2 O12 P4 Zn3)n'
_symmetry_cell_setting           monoclinic
_symmetry_space_group_name_H-M   'P 21/c'
_symmetry_Int_Tables_number      14
_space_group_name_Hall           '-P 2ybc'
loop_
_symmetry_equiv_pos_site_id
_symmetry_equiv_pos_as_xyz
1 x,y,z
2 x,1/2-y,1/2+z
3 -x,-y,-z
4 -x,1/2+y,1/2-z
_cell_length_a                   9.5467(10)
_cell_length_b                   26.405(2)
_cell_length_c                   7.9946(8)
_cell_angle_alpha                90
_cell_angle_beta                 99.472(2)
_cell_angle_gamma                90
_cell_volume                     1987.81
loop_
_atom_site_label
_atom_site_type_symbol
_atom_site_fract_x
_atom_site_fract_y
_atom_site_fract_z
Zn1 Zn 0.60496(6) 0.56847(2) 0.49235(7)
Zn2 Zn 0.36762(6) 0.76380(2) 0.25171(7)
Zn3 Zn 0.17504(6) 0.55587(2) 0.98787(7)
P1 P 0.42150(15) 0.52027(5) 0.75679(16)
H1 H 0.543(4) 0.5277(16) 0.873(5)
P2 P 0.54598(14) 0.68781(5) 0.48545(16)
H2 H 0.654(6) 0.696(2) 0.573(7)
P3 P 0.20489(14) 0.67683(5) 0.02240(16)
H3 H 0.074(6) 0.685(3) -0.058(7)
P4 P 0.87725(14) 0.52931(6) 0.74344(16)
H4 H 0.967(6) 0.509(2) 0.656(7)
O1 O 0.4396(4) 0.54841(15) 0.5950(5)
O2 O 0.3854(4) 0.46561(15) 0.7220(4)
O3 O 0.5521(4) 0.63643(14) 0.4036(4)
O4 O 0.5407(4) 0.73046(16) 0.3594(5)
O5 O 0.4224(4) 0.69005(16) 0.5840(5)
O6 O 0.2251(4) 0.71489(15) 0.1655(5)
O7 O 0.3023(5) 0.68519(16) -0.1057(5)
O8 O 0.2193(4) 0.62310(14) 0.0892(4)
O9 O 0.3233(6) 0.54721(18) 0.8520(6)
O10 O 0.9858(5) 0.55594(19) 0.8706(6)
O11 O 0.7766(4) 0.56769(15) 0.6501(5)
O12 O 0.8012(5) 0.48684(18) 0.8147(5)
O2B O 0.6146(4) 0.53439(15) 0.2780(4)
O5A O 0.4224(4) 0.80995(16) 0.0840(5)
O7A O 0.3023(5) 0.81481(16) 0.3943(5)
O8_2 O 0.2193(4) 0.62310(14) 1.0892(4)
O10_2 O -0.0142(5) 0.55594(19) 0.8706(6)
O12B O 0.1988(5) 0.51316(18) 1.1853(5)
Zn1B Zn 0.39504(6) 0.43153(2) 0.50765(7)
Zn2A Zn 0.36762(6) 0.73620(2) 0.75171(7)
Zn2A_2 Zn 0.36762(6) 0.73620(2) -0.24829(7)
Zn3_2 Zn 0.17504(6) 0.55587(2) -0.01213(7)
Zn3_3 Zn 1.17504(6) 0.55587(2) 0.98787(7)
Zn3B Zn 0.82496(6) 0.44413(2) 1.01213(7)
C1 C -0.0201(5) 0.6442(2) 0.3804(7)
C2 C -0.0205(6) 0.6968(3) 0.3954(8)
H5 H 0.0391 0.7127 0.4837
C3 C -0.1106(7) 0.7252(3) 0.2774(10)
H6 H -0.1100 0.7604 0.2857
C4 C -0.2003(6) 0.7021(3) 0.1490(8)
H7 H -0.2593 0.7215 0.0698
C5 C -0.2035(6) 0.6496(2) 0.1363(7)
C6 C -0.1135(5) 0.6210(2) 0.2504(6)
H8 H -0.1149 0.5859 0.2410
C7 C 0.0841(6) 0.6121(3) 0.4963(7)
H9 H 0.0890 0.6237 0.6122
H10 H 0.0519 0.5772 0.4905
C8 C -0.3129(6) 0.6247(3) 0.0020(8)
H11 H -0.3183 0.6432 -0.1036
H12 H -0.2829 0.5904 -0.0171
N1 N 0.2267(5) 0.61490(17) 0.4479(5)
H13 H 0.2868 0.5957 0.5177
H14 H 0.2569 0.6468 0.4549
H15 H 0.2225 0.6039 0.3420
N2 N -0.4520(5) 0.62345(19) 0.0513(5)
H16 H -0.5131 0.6084 -0.0296
H17 H -0.4809 0.6549 0.0662
H18 H -0.4476 0.6062 0.1477
loop_
_geom_bond_atom_site_label_1
_geom_bond_atom_site_label_2
_geom_bond_site_symmetry_1
_geom_bond_site_symmetry_2
Zn1 O1 1_555 1_555
Zn2 O4 1_555 1_555
Zn3 O9 1_555 1_555
P1 H1 1_555 1_555
P2 H2 1_555 1_555
P3 H3 1_555 1_555
P4 H4 1_555 1_555
O1 P1 1_555 1_555
O2 P1 1_555 1_555
O3 Zn1 1_555 1_555
O4 P2 1_555 1_555
O5 P2 1_555 1_555
O6 Zn2 1_555 1_555
O7 P3 1_555 1_555
O8 P3 1_555 1_555
O9 P1 1_555 1_555
O10 P4 1_555 1_555
O11 Zn1 1_555 1_555
O12 P4 1_555 1_555
C1 C2 1_555 1_555
C2 H5 1_555 1_555
C3 C2 1_555 1_555
H6 C3 1_555 1_555
C4 C3 1_555 1_555
H7 C4 1_555 1_555
C5 C4 1_555 1_555
C6 C1 1_555 1_555
H8 C6 1_555 1_555
C7 C1 1_555 1_555
H9 C7 1_555 1_555
H10 C7 1_555 1_555
C8 C5 1_555 1_555
H11 C8 1_555 1_555
H12 C8 1_555 1_555
N1 C7 1_555 1_555
H13 N1 1_555 1_555
H14 N1 1_555 1_555
H15 N1 1_555 1_555
N2 C8 1_555 1_555
H16 N2 1_555 1_555
H17 N2 1_555 1_555
H18 N2 1_555 1_555
O2B Zn1 1_555 1_555
O5A Zn2 1_555 1_555
O7A Zn2 1_555 1_555
O8_2 Zn3 1_555 1_555
O10_2 Zn3 1_555 1_555
O12B Zn3 1_555 1_555
Zn1B O2 1_555 1_555
Zn2A O5 1_555 1_555
Zn2A_2 O7 1_555 1_555
Zn3_2 O8 1_555 1_555
Zn3_3 O10 1_555 1_555
Zn3B O12 1_555 1_555
P2 O3 1_555 1_555
P3 O6 1_555 1_555
P4 O11 1_555 1_555
C5 C6 1_555 1_555

#END
