
#######################################################################
#
#                 Cambridge Crystallographic Data Centre
#                                CCDC 
#
#######################################################################
#
# If this CIF has been generated from an entry in the Cambridge 
# Structural Database, then it will include bibliographic, chemical, 
# crystal, experimental, refinement or atomic coordinate data resulting 
# from the CCDC's data processing and validation procedures.
#
#######################################################################

data_HUVGEM
_chemical_formula_moiety         '(C42 H26 O20 Zn5)n'
_symmetry_cell_setting           triclinic
_symmetry_space_group_name_H-M   'P -1'
_symmetry_Int_Tables_number      2
_space_group_name_Hall           '-P 1'
loop_
_symmetry_equiv_pos_site_id
_symmetry_equiv_pos_as_xyz
1 x,y,z
2 -x,-y,-z
_cell_length_a                   6.327
_cell_length_b                   12.671
_cell_length_c                   15.684
_cell_angle_alpha                95.69
_cell_angle_beta                 99.77
_cell_angle_gamma                98.01
_cell_volume                     1217.3
loop_
_atom_site_label
_atom_site_type_symbol
_atom_site_fract_x
_atom_site_fract_y
_atom_site_fract_z
C1 C 0.7246(7) 0.8266(4) 0.4366(3)
C2 C 0.7196(8) 0.7274(4) 0.3762(3)
C3 C 0.9097(8) 0.6905(4) 0.3624(4)
H1 H 1.0429 0.7278 0.3923
C4 C 0.9045(8) 0.6003(4) 0.3057(4)
H2 H 1.0331 0.5770 0.2969
C5 C 0.7061(8) 0.5440(4) 0.2616(3)
C6 C 0.5136(8) 0.5785(4) 0.2746(4)
H3 H 0.3805 0.5405 0.2453
C7 C 0.5223(8) 0.6695(4) 0.3314(3)
H4 H 0.3936 0.6929 0.3400
C8 C 0.8645(8) 0.4074(4) 0.1908(3)
C9 C 0.9274(8) 0.3318(4) 0.2423(3)
H5 H 0.8576 0.3154 0.2881
C10 C 1.0990(8) 0.2796(4) 0.2244(3)
C11 C 1.2016(8) 0.3033(4) 0.1561(3)
H6 H 1.3159 0.2686 0.1447
C12 C 1.1321(8) 0.3796(4) 0.1047(3)
C13 C 0.9643(9) 0.4337(4) 0.1220(3)
H7 H 0.9205 0.4860 0.0883
C14 C 1.2558(8) 0.3288(4) -0.0243(3)
C15 C 1.0816(9) 0.2510(5) -0.0617(4)
H8 H 0.9515 0.2486 -0.0413
C16 C 1.0992(9) 0.1769(5) -0.1290(4)
H9 H 0.9788 0.1271 -0.1563
C17 C 1.2956(8) 0.1762(4) -0.1563(3)
C18 C 1.4682(8) 0.2536(5) -0.1177(4)
H10 H 1.6006 0.2531 -0.1358
C19 C 1.4516(9) 0.3316(5) -0.0533(4)
H11 H 1.5687 0.3852 -0.0295
C20 C 1.1689(8) 0.1969(4) 0.2801(3)
C21 C 1.3167(8) 0.0933(4) -0.2277(3)
O1 O 0.5469(5) 0.8490(3) 0.4523(2)
O2 O 0.9090(5) 0.8843(3) 0.4683(2)
O3 O 0.6807(5) 0.4539(3) 0.2024(2)
O4 O 1.2384(6) 0.4105(3) 0.0383(2)
O5 O 1.1469(6) 0.0454(3) -0.2777(2)
O6 O 1.5072(6) 0.0772(3) -0.2344(2)
O7 O 1.3170(6) 0.1484(3) 0.2568(3)
O8 O 1.0807(6) 0.1810(3) 0.3439(2)
O9 O 1.2497(5) -0.0189(3) 0.3922(2)
O10 O 0.6873(5) 0.0823(3) 0.4130(2)
Zn1 Zn 0.97993(8) 0.04627(5) 0.39948(3)
Zn2 Zn 1.44116(9) 0.03790(5) 0.31402(4)
Zn3 Zn 1.5000 0.0000 0.5000
H12 H 1.204(13) -0.086(2) 0.380(5)
H13 H 0.71(2) 0.150(2) 0.428(9)
C1A C 1.2754(7) -0.8266(4) -0.4366(3)
C2A C 1.2804(8) -0.7274(4) -0.3762(3)
C3A C 1.0903(8) -0.6905(4) -0.3624(4)
H1A H 0.9571 -0.7278 -0.3923
C4A C 1.0955(8) -0.6003(4) -0.3057(4)
H2A H 0.9669 -0.5770 -0.2969
C5A C 1.2939(8) -0.5440(4) -0.2616(3)
C6A C 1.4864(8) -0.5785(4) -0.2746(4)
H3A H 1.6195 -0.5405 -0.2453
C7A C 1.4777(8) -0.6695(4) -0.3314(3)
H4A H 1.6064 -0.6929 -0.3400
C8A C 1.1355(8) -0.4074(4) -0.1908(3)
C9A C 1.0726(8) -0.3318(4) -0.2423(3)
H5A H 1.1424 -0.3154 -0.2881
C10A C 0.9010(8) -0.2796(4) -0.2244(3)
C11A C 0.7984(8) -0.3033(4) -0.1561(3)
H6A H 0.6841 -0.2686 -0.1447
C12A C 0.8679(8) -0.3796(4) -0.1047(3)
C13A C 1.0357(9) -0.4337(4) -0.1220(3)
H7A H 1.0795 -0.4860 -0.0883
C14A C 0.7442(8) -0.3288(4) 0.0243(3)
C15A C 0.9184(9) -0.2510(5) 0.0617(4)
H8A H 1.0485 -0.2486 0.0413
C16A C 0.9008(9) -0.1769(5) 0.1290(4)
H9A H 1.0212 -0.1271 0.1563
C17A C 0.7044(8) -0.1762(4) 0.1563(3)
C18A C 0.5318(8) -0.2536(5) 0.1177(4)
H10A H 0.3994 -0.2531 0.1358
C19A C 0.5484(9) -0.3316(5) 0.0533(4)
H11A H 0.4313 -0.3852 0.0295
C20A C 0.8311(8) -0.1969(4) -0.2801(3)
C21A C 0.6833(8) -0.0933(4) 0.2277(3)
O1A O 1.4531(5) -0.8490(3) -0.4523(2)
O2A O 1.0910(5) -0.8843(3) -0.4683(2)
O3A O 1.3193(5) -0.4539(3) -0.2024(2)
O4A O 0.7616(6) -0.4105(3) -0.0383(2)
O5A O 0.8531(6) -0.0454(3) 0.2777(2)
O6A O 0.4928(6) -0.0772(3) 0.2344(2)
O7A O 0.6830(6) -0.1484(3) -0.2568(3)
O8A O 0.9193(6) -0.1810(3) -0.3439(2)
O9A O 0.7503(5) 0.0189(3) -0.3922(2)
O10A O 1.3127(5) -0.0823(3) -0.4130(2)
Zn1A Zn 1.02007(8) -0.04627(5) -0.39948(3)
Zn2A Zn 0.55884(9) -0.03790(5) -0.31402(4)
H12A H 0.796(13) 0.086(2) -0.380(5)
H13A H 1.29(2) -0.150(2) -0.428(9)
O1_2 O 1.5469(5) -0.1510(3) 0.4523(2)
O1A_2 O 1.4531(5) 0.1510(3) 0.5477(2)
O2_2 O 0.9090(5) -0.1157(3) -0.5317(2)
O2_3 O 0.9090(5) -0.1157(3) 0.4683(2)
O2A_2 O 1.0910(5) 0.1157(3) -0.4683(2)
O2A_3 O 1.0910(5) 0.1157(3) 0.5317(2)
O6_2 O 0.5072(6) 0.0772(3) -0.2344(2)
O6A_2 O 1.4928(6) -0.0772(3) 0.2344(2)
O9A_2 O 1.7503(5) 0.0189(3) 0.6078(2)
O10_2 O 1.6873(5) 0.0823(3) 0.4130(2)
O10A_2 O 0.3127(5) -0.0823(3) -0.4130(2)
O10A_3 O 1.3127(5) -0.0823(3) 0.5870(2)
Zn1_2 Zn 0.97993(8) -0.95373(5) -0.60052(3)
Zn1_3 Zn 0.97993(8) 1.04627(5) 0.39948(3)
Zn1A_2 Zn 1.02007(8) -1.04627(5) -0.39948(3)
Zn1A_3 Zn 1.02007(8) 0.95373(5) 0.60052(3)
Zn2_2 Zn 0.44116(9) 0.03790(5) 0.31402(4)
Zn2A_2 Zn 1.55884(9) -0.03790(5) -0.31402(4)
Zn3_2 Zn 0.5000 -0.0000 -0.5000
Zn3_3 Zn 0.5000 0.0000 0.5000
Zn3_4 Zn 0.5000 1.0000 0.5000
Zn3_5 Zn 1.5000 -1.0000 -0.5000
Zn3_6 Zn 1.5000 -0.0000 -0.5000
loop_
_geom_bond_atom_site_label_1
_geom_bond_atom_site_label_2
_geom_bond_site_symmetry_1
_geom_bond_site_symmetry_2
C1 C2 1_555 1_555
C2 C3 1_555 1_555
C3 H1 1_555 1_555
C4 C3 1_555 1_555
H2 C4 1_555 1_555
C5 C4 1_555 1_555
C6 C5 1_555 1_555
H3 C6 1_555 1_555
C7 C2 1_555 1_555
H4 C7 1_555 1_555
C8 C9 1_555 1_555
C9 H5 1_555 1_555
C10 C9 1_555 1_555
C11 C10 1_555 1_555
H6 C11 1_555 1_555
C12 C11 1_555 1_555
C13 C8 1_555 1_555
H7 C13 1_555 1_555
C14 C15 1_555 1_555
C15 H8 1_555 1_555
C16 C15 1_555 1_555
H9 C16 1_555 1_555
C17 C16 1_555 1_555
C18 C17 1_555 1_555
H10 C18 1_555 1_555
C19 C14 1_555 1_555
H11 C19 1_555 1_555
C20 C10 1_555 1_555
C21 C17 1_555 1_555
O1 C1 1_555 1_555
O2 C1 1_555 1_555
O3 C5 1_555 1_555
O4 C12 1_555 1_555
O5 C21 1_555 1_555
O6 C21 1_555 1_555
O7 C20 1_555 1_555
O8 C20 1_555 1_555
O9 Zn1 1_555 1_555
O10 Zn1 1_555 1_555
Zn1 O8 1_555 1_555
Zn2 O7 1_555 1_555
Zn3 O9 1_555 1_555
H12 O9 1_555 1_555
H13 O10 1_555 1_555
C1A C2A 1_555 1_555
C2A C3A 1_555 1_555
C3A H1A 1_555 1_555
C4A C3A 1_555 1_555
H2A C4A 1_555 1_555
C5A C4A 1_555 1_555
C6A C5A 1_555 1_555
H3A C6A 1_555 1_555
C7A C2A 1_555 1_555
H4A C7A 1_555 1_555
C8A C9A 1_555 1_555
C9A H5A 1_555 1_555
C10A C9A 1_555 1_555
C11A C10A 1_555 1_555
H6A C11A 1_555 1_555
C12A C11A 1_555 1_555
C13A C8A 1_555 1_555
H7A C13A 1_555 1_555
C14A C15A 1_555 1_555
C15A H8A 1_555 1_555
C16A C15A 1_555 1_555
H9A C16A 1_555 1_555
C17A C16A 1_555 1_555
C18A C17A 1_555 1_555
H10A C18A 1_555 1_555
C19A C14A 1_555 1_555
H11A C19A 1_555 1_555
C20A C10A 1_555 1_555
C21A C17A 1_555 1_555
O1A C1A 1_555 1_555
O2A C1A 1_555 1_555
O3A C5A 1_555 1_555
O4A C12A 1_555 1_555
O5A Zn1 1_555 1_555
O6A C21A 1_555 1_555
O7A C20A 1_555 1_555
O8A C20A 1_555 1_555
O9A Zn1A 1_555 1_555
O10A Zn1A 1_555 1_555
Zn1A O5 1_555 1_555
Zn2A O7A 1_555 1_555
H12A O9A 1_555 1_555
H13A O10A 1_555 1_555
O1_2 Zn3 1_555 1_555
O1A_2 Zn3 1_555 1_555
O2_2 Zn1A 1_555 1_555
O2_3 Zn1 1_555 1_555
O2A_2 Zn1A 1_555 1_555
O2A_3 Zn1 1_555 1_555
O6_2 Zn2A 1_555 1_555
O6A_2 Zn2 1_555 1_555
O9A_2 Zn3 1_555 1_555
O10_2 Zn2 1_555 1_555
O10A_2 Zn2A 1_555 1_555
O10A_3 Zn3 1_555 1_555
Zn1_2 O2A 1_555 1_555
Zn1_3 O2 1_555 1_555
Zn1A_2 O2A 1_555 1_555
Zn1A_3 O2 1_555 1_555
Zn2_2 O10 1_555 1_555
Zn2A_2 O6 1_555 1_555
Zn3_2 O9A 1_555 1_555
Zn3_3 O10 1_555 1_555
Zn3_4 O1 1_555 1_555
Zn3_5 O1A 1_555 1_555
Zn3_6 O10A 1_555 1_555
C6 C7 1_555 1_555
C8 O3 1_555 1_555
C12 C13 1_555 1_555
C14 O4 1_555 1_555
C18 C19 1_555 1_555
O9 Zn2 1_555 1_555
Zn3 O10_2 1_555 1_555
C6A C7A 1_555 1_555
C8A O3A 1_555 1_555
C12A C13A 1_555 1_555
C14A O4A 1_555 1_555
C18A C19A 1_555 1_555
C21A O5A 1_555 1_555
O6A Zn2_2 1_555 1_555
O8A Zn1A 1_555 1_555
O9A Zn2A 1_555 1_555
O10A Zn2A_2 1_555 1_555
O10A_2 Zn3_2 1_555 1_555

#END
