
#######################################################################
#
#                 Cambridge Crystallographic Data Centre
#                                CCDC 
#
#######################################################################
#
# If this CIF has been generated from an entry in the Cambridge 
# Structural Database, then it will include bibliographic, chemical, 
# crystal, experimental, refinement or atomic coordinate data resulting 
# from the CCDC's data processing and validation procedures.
#
#######################################################################

data_HAVVUX
_chemical_formula_moiety         '(C18 H14 Cu7 I4 N15 O1)n'
_symmetry_cell_setting           trigonal
_symmetry_space_group_name_H-M   'P -3 c 1'
_symmetry_Int_Tables_number      165
_space_group_name_Hall           '-P 3 2"c'
loop_
_symmetry_equiv_pos_site_id
_symmetry_equiv_pos_as_xyz
1 x,y,z
2 -y,x-y,z
3 -x+y,-x,z
4 y,x,1/2-z
5 x-y,-y,1/2-z
6 -x,-x+y,1/2-z
7 -x,-y,-z
8 y,-x+y,-z
9 x-y,x,-z
10 -y,-x,1/2+z
11 -x+y,y,1/2+z
12 x,x-y,1/2+z
_cell_length_a                   14.849(8)
_cell_length_b                   14.849(8)
_cell_length_c                   21.806(13)
_cell_angle_alpha                90
_cell_angle_beta                 90
_cell_angle_gamma                120
_cell_volume                     4163.91
loop_
_atom_site_label
_atom_site_type_symbol
_atom_site_fract_x
_atom_site_fract_y
_atom_site_fract_z
_atom_site_U_iso_or_equiv
_atom_site_thermal_displace_type
I1 I -0.28871(6) 0.18518(4) 1.24093(2) 0.0240 Uani
I2 I -0.3334 0.3333 1.06988(4) 0.0277 Uani
Cu1 Cu -0.13657(8) 0.37898(11) 1.25162(4) 0.0241 Uani
Cu2 Cu -0.23964(13) 0.23465(8) 1.11806(4) 0.0278 Uani
Cu3 Cu -0.3334 0.3333 1.28341(8) 0.0250 Uani
N1 N -0.0494(8) 0.3903(5) 1.1758(3) 0.0223 Uani
N2 N 0.0525(5) 0.4569(8) 1.1712(3) 0.0229 Uani
N3 N 0.0824(9) 0.4606(6) 1.1123(3) 0.0282 Uani
N4 N -0.0876(8) 0.3482(6) 1.1207(3) 0.0252 Uani
N5 N 0.0907(6) 0.4056(8) 0.9217(3) 0.0263 Uani
C1 C 0.0851(10) 0.4243(7) 0.9816(4) 0.0251 Uani
H1 H 0.1456 0.4724 1.0016 0.0300 Uiso
C2 C -0.0055(10) 0.3937(7) 1.0824(3) 0.0234 Uani
C3 C -0.0087(11) 0.3740(7) 1.0155(4) 0.0300 Uani
C4 C 0.0013(13) 0.3415(9) 0.8914(4) 0.0396 Uani
H2 H 0.0046 0.3266 0.8504 0.0470 Uiso
C5 C -0.0963(15) 0.2970(10) 0.9205(5) 0.0476 Uani
H3 H -0.1570 0.2583 0.8980 0.0570 Uiso
C6 C -0.1010(14) 0.3114(9) 0.9832(5) 0.0467 Uani
H4 H -0.1647 0.2799 1.0034 0.0560 Uiso
O1 O -0.3334 0.3333 1.3785(6) 0.0621 Uani
I1B I -0.52611(7) 0.28871(6) 1.24093(2) 0.0240 Uani
I1A I -0.18518(4) 0.52611(7) 1.24093(2) 0.0240 Uani
Cu1B Cu -0.48445(14) 0.13657(8) 1.25162(4) 0.0241 Uani
Cu1A Cu -0.37898(11) 0.48445(14) 1.25162(4) 0.0241 Uani
Cu1E Cu 0.13657(8) 0.51555(14) 1.24838(4) 0.0241 Uani
Cu1H Cu -0.51555(14) -0.13657(8) 0.74838(4) 0.0241 Uani
Cu1I Cu -0.37898(11) 0.13657(8) 0.75162(4) 0.0241 Uani
Cu2B Cu -0.52571(15) 0.23964(13) 1.11806(4) 0.0278 Uani
Cu2A Cu -0.23465(8) 0.52571(15) 1.11806(4) 0.0278 Uani
Cu2G Cu 0.23465(8) 0.47429(15) 0.88194(4) 0.0278 Uani
Cu2E Cu 0.23964(13) 0.47429(15) 1.38194(4) 0.0278 Uani
Cu2I Cu -0.23465(8) 0.23964(13) 1.61806(4) 0.0278 Uani
Cu2H Cu -0.47429(15) -0.23964(13) 0.88194(4) 0.0278 Uani
N1E N 0.0494(8) 0.4397(9) 1.3242(3) 0.0223 Uani
N1H N -0.4397(9) -0.0494(8) 0.8242(3) 0.0223 Uani
N1B N -0.5603(9) 0.0494(8) 1.1758(3) 0.0223 Uani
N1A N -0.3903(5) 0.5603(9) 1.1758(3) 0.0223 Uani
N2E N -0.0525(5) 0.4044(9) 1.3288(3) 0.0229 Uani
N2H N -0.4044(9) 0.0525(5) 0.8288(3) 0.0229 Uani
N2C N -0.5431(8) 0.0525(5) 1.3288(3) 0.0229 Uani
N2D N -0.4044(9) 0.5431(8) 1.3288(3) 0.0229 Uani
N3E N -0.0824(9) 0.3782(11) 1.3877(3) 0.0282 Uani
N3H N -0.3782(11) 0.0824(9) 0.8877(3) 0.0282 Uani
N4E N 0.0876(8) 0.4358(10) 1.3793(3) 0.0252 Uani
N4H N -0.4358(10) -0.0876(8) 0.8793(3) 0.0252 Uani
N4B N -0.5642(10) 0.0876(8) 1.1207(3) 0.0252 Uani
N4A N -0.3482(6) 0.5642(10) 1.1207(3) 0.0252 Uani
N5E N -0.0907(6) 0.3149(10) 1.5783(3) 0.0263 Uani
N5H N -0.3149(10) 0.0907(6) 1.0783(3) 0.0263 Uani
N5G N -0.5944(8) 0.3149(10) 1.0783(3) 0.0263 Uani
N5F N -0.0907(6) 0.5944(8) 1.0783(3) 0.0263 Uani
C1E C -0.0851(10) 0.3392(12) 1.5184(4) 0.0251 Uani
C1H C -0.3392(12) 0.0851(10) 1.0184(4) 0.0251 Uani
H1E H -0.1456 0.3268 1.4984 0.0300 Uiso
H1H H -0.3268 0.1456 0.9984 0.0300 Uiso
C2E C 0.0055(10) 0.3992(12) 1.4176(3) 0.0234 Uani
C2H C -0.3992(12) -0.0055(10) 0.9176(3) 0.0234 Uani
C3E C 0.0087(11) 0.3827(13) 1.4845(4) 0.0300 Uani
C3H C -0.3827(13) -0.0087(11) 0.9845(4) 0.0300 Uani
C4E C -0.0013(13) 0.3402(16) 1.6086(4) 0.0396 Uani
C4H C -0.3402(16) 0.0013(13) 1.1086(4) 0.0396 Uani
H2E H -0.0046 0.3220 1.6496 0.0470 Uiso
H2H H -0.3220 0.0046 1.1496 0.0470 Uiso
C5E C 0.0963(15) 0.3933(18) 1.5795(5) 0.0476 Uani
C5H C -0.3933(18) -0.0963(15) 1.0795(5) 0.0476 Uani
H3E H 0.1570 0.4153 1.6020 0.0570 Uiso
H3H H -0.4153 -0.1570 1.1020 0.0570 Uiso
C6E C 0.1010(14) 0.4124(17) 1.5168(5) 0.0467 Uani
C6H C -0.4124(17) -0.1010(14) 1.0168(5) 0.0467 Uani
H4E H 0.1647 0.4446 1.4966 0.0560 Uiso
H4H H -0.4446 -0.1647 0.9966 0.0560 Uiso
loop_
_atom_site_aniso_label
_atom_site_aniso_U_11
_atom_site_aniso_U_22
_atom_site_aniso_U_33
_atom_site_aniso_U_23
_atom_site_aniso_U_13
_atom_site_aniso_U_12
I1 0.0278 0.0282 0.013 -0.00079 0.00165 0.0118
I2 0.0327 0.0327 0.0176 0 0 0.01633
Cu1 0.0248 0.036 0.0116 -0.0008 -0.0002 0.0153
Cu2 0.0287 0.0301 0.0141 -0.0017 -0.0027 0.0069
Cu3 0.0296 0.0296 0.0159 0 0 0.0148
N1 0.027 0.025 0.011 -0.002 -0.002 0.01
N2 0.023 0.026 0.014 -0.002 0.002 0.008
N3 0.024 0.041 0.01 -0.002 0.002 0.009
N4 0.025 0.034 0.013 -0.003 4.75044e-19 0.012
N5 0.025 0.036 0.015 -0.001 0.001 0.013
C1 0.022 0.037 0.014 -0.002 0.003 0.013
C2 0.024 0.032 0.013 0 0.003 0.013
C3 0.027 0.039 0.014 -0.003 0.002 0.009
C4 0.047 0.047 0.012 -0.002 0.001 0.014
C5 0.035 0.06 0.024 -0.01 0.002 0.006
C6 0.03 0.055 0.024 -0.007 0.005 -0.002
O1 0.083 0.083 0.021 0 0 0.042
I1B 0.0324 0.0278 0.013 -0.00165 -0.00244 0.016
I1A 0.0282 0.0324 0.013 0.00244 0.00079 0.0164
Cu1B 0.0302 0.0248 0.0116 0.0002 -0.0006 0.0095
Cu1A 0.036 0.0302 0.0116 0.0006 0.0008 0.0207
Cu1E 0.0248 0.0302 0.0116 0.0006 -0.0002 0.0095
Cu1H 0.0302 0.0248 0.0116 0.0002 -0.0006 0.0095
Cu1I 0.036 0.0248 0.0116 0.0002 0.0008 0.0153
Cu2B 0.045 0.0287 0.0141 0.0027 0.001 0.0218
Cu2A 0.0301 0.045 0.0141 -0.001 0.0017 0.0232
Cu2G 0.0301(6) 0.0450(7) 0.0141(5) -0.0010(4) 0.0017(4) 0.0232(5)
Cu2E 0.0287 0.045 0.0141 -0.001 -0.0027 0.0218
Cu2I 0.0301 0.0287 0.0141 0.0027 0.0017 0.0069
Cu2H 0.045 0.0287 0.0141 0.0027 0.001 0.0218
N1E 0.027 0.032 0.011 0 -0.002 0.017
N1H 0.032 0.027 0.011 0.002 0 0.017
N1B 0.032 0.027 0.011 0.002 0 0.017
N1A 0.025 0.032 0.011 0 0.002 0.015
N2E 0.023 0.033 0.014 0.004 0.002 0.015
N2H 0.033 0.023 0.014 -0.002 -0.004 0.015
N2C 0.026 0.023 0.014 -0.002 0.002 0.008
N2D 0.033 0.026 0.014 -0.002 -0.004 0.018
N3E 0.024 0.047 0.01 0.004 0.002 0.015
N3H 0.047 0.024 0.01 -0.002 -0.004 0.015
N4E 0.025 0.035 0.013 0.003 4.75044e-19 0.013
N4H 0.035 0.025 0.013 -4.75044e-19 -0.003 0.013
N4B 0.035 0.025 0.013 -4.75044e-19 -0.003 0.013
N4A 0.034 0.035 0.013 0.003 0.003 0.022
N5E 0.025 0.035 0.015 0.002 0.001 0.012
N5H 0.035 0.025 0.015 -0.001 -0.002 0.012
N5G 0.036 0.035 0.015 0.002 0.001 0.023
N5F 0.025 0.036 0.015 -0.001 0.001 0.013
C1E 0.022 0.033 0.014 0.005 0.003 0.009
C1H 0.033 0.022 0.014 -0.003 -0.005 0.009
C2E 0.024 0.03 0.013 0.003 0.003 0.011
C2H 0.03 0.024 0.013 -0.003 -0.003 0.011
C3E 0.027 0.048 0.014 0.005 0.002 0.018
C3H 0.048 0.027 0.014 -0.002 -0.005 0.018
C4E 0.047 0.066 0.012 0.003 0.001 0.033
C4H 0.066 0.047 0.012 -0.001 -0.003 0.033
C5E 0.035 0.083 0.024 0.012 0.002 0.029
C5H 0.083 0.035 0.024 -0.002 -0.012 0.029
C6E 0.03 0.089 0.024 0.012 0.005 0.032
C6H 0.089 0.03 0.024 -0.005 -0.012 0.032
loop_
_geom_bond_atom_site_label_1
_geom_bond_atom_site_label_2
_geom_bond_site_symmetry_1
_geom_bond_site_symmetry_2
I1 Cu1 1_555 1_555
I2 Cu2 1_555 1_555
Cu1 Cu3 1_555 1_555
Cu2 I1 1_555 1_555
Cu3 I1 1_555 1_555
N1 Cu1 1_555 1_555
N2 N1 1_555 1_555
N3 N2 1_555 1_555
N4 Cu2 1_555 1_555
N5 C1 1_555 1_555
C1 H1 1_555 1_555
C2 N3 1_555 1_555
C3 C1 1_555 1_555
C4 N5 1_555 1_555
H2 C4 1_555 1_555
C5 C4 1_555 1_555
H3 C5 1_555 1_555
C6 C3 1_555 1_555
H4 C6 1_555 1_555
O1 Cu3 1_555 1_555
I1B Cu3 1_555 1_555
I1A Cu1 1_555 1_555
Cu1B I1 1_555 1_555
Cu1A Cu3 1_555 1_555
Cu1E N2 1_555 1_555
Cu1H N1H 1_555 1_555
Cu1I N2H 1_555 1_555
Cu2B I2 1_555 1_555
Cu2A I2 1_555 1_555
Cu2G N5 1_555 1_555
Cu2E N4E 1_555 1_555
Cu2I N5E 1_555 1_555
Cu2H N4H 1_555 1_555
N1E Cu1E 1_555 1_555
N1H N2H 1_555 1_555
N1B Cu1B 1_555 1_555
N1A Cu1A 1_555 1_555
N2E Cu1 1_555 1_555
N2H N3H 1_555 1_555
N2C Cu1B 1_555 1_555
N2D Cu1A 1_555 1_555
N3E N2E 1_555 1_555
N3H C2H 1_555 1_555
N4E N1E 1_555 1_555
N4H N1H 1_555 1_555
N4B Cu2B 1_555 1_555
N4A Cu2A 1_555 1_555
N5E C1E 1_555 1_555
N5H Cu2 1_555 1_555
N5G Cu2B 1_555 1_555
N5F Cu2A 1_555 1_555
C1E H1E 1_555 1_555
C1H N5H 1_555 1_555
H1H C1H 1_555 1_555
C2E N3E 1_555 1_555
C2H N4H 1_555 1_555
C3E C1E 1_555 1_555
C3H C1H 1_555 1_555
C4E N5E 1_555 1_555
C4H N5H 1_555 1_555
H2E C4E 1_555 1_555
H2H C4H 1_555 1_555
C5E C4E 1_555 1_555
C5H C4H 1_555 1_555
H3E C5E 1_555 1_555
H3H C5H 1_555 1_555
C6E C3E 1_555 1_555
C6H C3H 1_555 1_555
H4E C6E 1_555 1_555
H4H C6H 1_555 1_555
Cu3 I1A 1_555 1_555
Cu3 Cu1B 1_555 1_555
N1 N4 1_555 1_555
N4 C2 1_555 1_555
C2 C3 1_555 1_555
C5 C6 1_555 1_555
I1B Cu1B 1_555 1_555
I1B Cu1A 1_555 1_555
I1B Cu2B 1_555 1_555
I1A Cu1A 1_555 1_555
I1A Cu2A 1_555 1_555
N1E N2E 1_555 1_555
N1B N4B 1_555 1_555
N1A N4A 1_555 1_555
N4E C2E 1_555 1_555
C2E C3E 1_555 1_555
C2H C3H 1_555 1_555
C5E C6E 1_555 1_555
C5H C6H 1_555 1_555

#END
