
#######################################################################
#
#                 Cambridge Crystallographic Data Centre
#                                CCDC 
#
#######################################################################
#
# If this CIF has been generated from an entry in the Cambridge 
# Structural Database, then it will include bibliographic, chemical, 
# crystal, experimental, refinement or atomic coordinate data resulting 
# from the CCDC's data processing and validation procedures.
#
#######################################################################

data_IKETEY
_chemical_formula_moiety         '(C14 H20 N4 O20 Sm2)n'
_symmetry_cell_setting           triclinic
_symmetry_space_group_name_H-M   'P -1'
_symmetry_Int_Tables_number      2
_space_group_name_Hall           '-P 1'
loop_
_symmetry_equiv_pos_site_id
_symmetry_equiv_pos_as_xyz
1 x,y,z
2 -x,-y,-z
_cell_length_a                   6.1139(12)
_cell_length_b                   9.9830(19)
_cell_length_c                   13.413(3)
_cell_angle_alpha                68.931(2)
_cell_angle_beta                 80.960(2)
_cell_angle_gamma                76.689(2)
_cell_volume                     740.914
loop_
_atom_site_label
_atom_site_type_symbol
_atom_site_fract_x
_atom_site_fract_y
_atom_site_fract_z
Sm1 Sm 1.16918(6) 1.38542(4) -0.19641(3)
C1 C 0.7137(11) 1.2328(7) -0.1404(5)
C2 C 0.8675(10) 1.1047(7) -0.0684(5)
C3 C 0.8102(10) 0.9686(7) -0.0151(5)
H1 H 0.6775 0.9504 -0.0290
C4 C 1.0516(12) 1.6165(8) -0.4395(5)
C5 C 1.2884(11) 1.5561(7) -0.4728(5)
C6 C 1.3838(12) 1.6022(8) -0.5782(5)
H2 H 1.2980 1.6742 -0.6306
C7 C 0.9108(11) 1.5593(7) -0.0333(5)
N1 N 1.0611(8) 1.1353(6) -0.0546(4)
N2 N 1.4062(9) 1.4538(6) -0.3941(4)
O1 O 0.7871(8) 1.3483(5) -0.1843(4)
O2 O 0.5225(7) 1.2150(5) -0.1509(4)
O3 O 0.9857(8) 1.5689(5) -0.3423(4)
O4 O 0.9332(9) 1.7093(6) -0.5099(4)
O5 O 0.9165(8) 1.5695(5) -0.1296(4)
O6 O 0.7763(8) 1.6376(5) 0.0133(4)
O7 O 1.1741(9) 1.2087(5) -0.2842(4)
H3 H 1.1331 1.2186 -0.3451
H4 H 1.2918 1.1418 -0.2815
O8 O 1.4089(8) 1.5645(5) -0.2195(4)
H5 H 1.5407 1.5156 -0.2116
H6 H 1.4310 1.6377 -0.2712
Sm1A Sm 0.83082(6) 0.61458(4) 0.19641(3)
Sm1_2 Sm 0.16918(6) 1.38542(4) -0.19641(3)
Sm1A_2 Sm 0.83082(6) 1.61458(4) 0.19641(3)
Sm1A_3 Sm 1.83082(6) 0.61458(4) 0.19641(3)
Sm1A_4 Sm 1.83082(6) 1.61458(4) -0.80359(3)
C1A C 1.2863(11) 0.7672(7) 0.1404(5)
C2A C 1.1325(10) 0.8953(7) 0.0684(5)
C3A C 1.1898(10) 1.0314(7) 0.0151(5)
H1A H 1.3225 1.0496 0.0290
C4A C 1.9484(12) 1.3835(8) -0.5605(5)
C5A C 1.7116(11) 1.4439(7) -0.5272(5)
C6A C 1.6162(12) 1.3978(8) -0.4218(5)
H2A H 1.7020 1.3258 -0.3694
C7A C 1.0892(11) 1.4407(7) 0.0333(5)
N1A N 0.9389(8) 0.8647(6) 0.0546(4)
N2A N 1.5938(9) 1.5462(6) -0.6059(4)
N2A_2 N 0.5938(9) 0.5462(6) 0.3941(4)
O1A O 1.2129(8) 0.6517(5) 0.1843(4)
O2A O 1.4775(7) 0.7850(5) 0.1509(4)
O2_2 O 1.5225(7) 1.2150(5) -0.1509(4)
O2A_2 O 0.4775(7) 0.7850(5) 0.1509(4)
O3A O 2.0143(8) 1.4311(5) -0.6577(4)
O3A_2 O 1.0143(8) 0.4311(5) 0.3423(4)
O4A O 2.0668(9) 1.2907(6) -0.4901(4)
O5A O 1.0835(8) 1.4305(5) 0.1296(4)
O5A_2 O 1.0835(8) 0.4305(5) 0.1296(4)
O6A O 1.2237(8) 1.3624(5) -0.0133(4)
O6_2 O 0.7763(8) 0.6376(5) 0.0133(4)
O7A O 0.8259(9) 0.7913(5) 0.2842(4)
H3A H 0.8669 0.7814 0.3451
H4A H 0.7082 0.8582 0.2815
O8A O 0.5911(8) 0.4355(5) 0.2195(4)
H5A H 0.4593 0.4844 0.2116
H6A H 0.5690 0.3623 0.2712
O9 O 0.6350(13) 0.2813(10) 0.0843(7)
H7 H 0.6223 0.2007 0.1359
H8 H 0.6872 0.2453 0.0339
O10 O 0.5068(15) 0.2056(10) 0.4133(7)
H9 H 0.4581 0.1320 0.4618
H10 H 0.6348 0.1590 0.3950
O11 O 0.532(3) 0.0399(12) 0.2651(12)
H11 H 0.4761 -0.0164 0.3240
H12 H 0.4110 0.1030 0.2455
O12 O 0.069(3) 0.1202(13) 0.2678(13)
H13 H -0.0508 0.1290 0.2380
H14 H 0.0722 0.2118 0.2486
loop_
_geom_bond_atom_site_label_1
_geom_bond_atom_site_label_2
_geom_bond_site_symmetry_1
_geom_bond_site_symmetry_2
Sm1 N1 1_555 1_555
C1 C2 1_555 1_555
C2 C3 1_555 1_555
C3 H1 1_555 1_555
C4 C5 1_555 1_555
C5 C6 1_555 1_555
C6 H2 1_555 1_555
C7 O5 1_555 1_555
N1 C2 1_555 1_555
N2 Sm1 1_555 1_555
O1 Sm1 1_555 1_555
O2 C1 1_555 1_555
O3 Sm1 1_555 1_555
O4 C4 1_555 1_555
O5 Sm1 1_555 1_555
O6 C7 1_555 1_555
O7 Sm1 1_555 1_555
H3 O7 1_555 1_555
H4 O7 1_555 1_555
O8 Sm1 1_555 1_555
H5 O8 1_555 1_555
H6 O8 1_555 1_555
O9 H7 1_555 1_555
H8 O9 1_555 1_555
O10 H9 1_555 1_555
H10 O10 1_555 1_555
O11 H11 1_555 1_555
H12 O11 1_555 1_555
O12 H13 1_555 1_555
H14 O12 1_555 1_555
Sm1A N1A 1_555 1_555
Sm1_2 O2 1_555 1_555
Sm1A_2 O6 1_555 1_555
Sm1A_3 O2A 1_555 1_555
Sm1A_4 N2A 1_555 1_555
C1A C2A 1_555 1_555
C2A C3A 1_555 1_555
C3A N1 1_555 1_555
H1A C3A 1_555 1_555
C4A C5A 1_555 1_555
C5A C6A 1_555 1_555
C6A N2 1_555 1_555
H2A C6A 1_555 1_555
C7A C7 1_555 1_555
N1A C3 1_555 1_555
N2A C6 1_555 1_555
N2A_2 Sm1A 1_555 1_555
O1A Sm1A 1_555 1_555
O2A C1A 1_555 1_555
O2_2 Sm1 1_555 1_555
O2A_2 Sm1A 1_555 1_555
O3A Sm1A_4 1_555 1_555
O3A_2 Sm1A 1_555 1_555
O4A C4A 1_555 1_555
O5A Sm1A_2 1_555 1_555
O5A_2 Sm1A 1_555 1_555
O6A Sm1 1_555 1_555
O6_2 Sm1A 1_555 1_555
O7A Sm1A 1_555 1_555
H3A O7A 1_555 1_555
H4A O7A 1_555 1_555
O8A Sm1A 1_555 1_555
H5A O8A 1_555 1_555
H6A O8A 1_555 1_555
C1 O1 1_555 1_555
C4 O3 1_555 1_555
C5 N2 1_555 1_555
C1A O1A 1_555 1_555
C2A N1A 1_555 1_555
C4A O3A 1_555 1_555
C5A N2A 1_555 1_555
C7A O5A 1_555 1_555
C7A O6A 1_555 1_555

#END
