
#######################################################################
#
#                 Cambridge Crystallographic Data Centre
#                                CCDC 
#
#######################################################################
#
# If this CIF has been generated from an entry in the Cambridge 
# Structural Database, then it will include bibliographic, chemical, 
# crystal, experimental, refinement or atomic coordinate data resulting 
# from the CCDC's data processing and validation procedures.
#
#######################################################################

data_IKETOI
_chemical_formula_moiety         '(C14 H20 Gd2 N4 O20)n'
_symmetry_cell_setting           triclinic
_symmetry_space_group_name_H-M   'P -1'
_symmetry_Int_Tables_number      2
_space_group_name_Hall           '-P 1'
loop_
_symmetry_equiv_pos_site_id
_symmetry_equiv_pos_as_xyz
1 x,y,z
2 -x,-y,-z
_cell_length_a                   6.0922(5)
_cell_length_b                   9.9633(9)
_cell_length_c                   13.3598(12)
_cell_angle_alpha                68.8530(10)
_cell_angle_beta                 81.1040(10)
_cell_angle_gamma                76.8480(10)
_cell_volume                     734.118
loop_
_atom_site_label
_atom_site_type_symbol
_atom_site_fract_x
_atom_site_fract_y
_atom_site_fract_z
Gd1 Gd 1.16786(3) 1.385710(17) -0.195715(13)
C1 C 0.7117(6) 1.2339(4) -0.1410(3)
C2 C 0.8660(6) 1.1066(4) -0.0687(3)
C3 C 0.8079(6) 0.9702(4) -0.0152(3)
H1 H 0.6731 0.9529 -0.0281
C4 C 1.0493(7) 1.6174(4) -0.4395(3)
C5 C 1.2899(6) 1.5559(4) -0.4728(3)
C6 C 1.3828(7) 1.6024(4) -0.5776(3)
H2 H 1.2960 1.6752 -0.6297
C7 C 0.9112(6) 1.5601(4) -0.0345(3)
N1 N 1.0599(5) 1.1363(3) -0.0542(2)
N2 N 1.4066(5) 1.4535(3) -0.3933(2)
O1 O 0.7858(4) 1.3507(3) -0.1837(2)
O2 O 0.5201(4) 1.2166(3) -0.1514(2)
O3 O 0.9858(5) 1.5685(3) -0.3418(2)
O4 O 0.9309(5) 1.7094(4) -0.5102(2)
O5 O 0.9153(5) 1.5705(3) -0.1303(2)
O6 O 0.7770(4) 1.6388(3) 0.0127(2)
O7 O 1.1716(5) 1.2109(3) -0.2834(2)
H3 H 1.1306 1.2208 -0.3443
H4 H 1.2893 1.1440 -0.2807
O8 O 1.4058(5) 1.5638(3) -0.2194(2)
H5 H 1.5376 1.5148 -0.2115
H6 H 1.4279 1.6369 -0.2711
Gd1A Gd 0.83214(3) 0.614290(17) 0.195715(13)
Gd1_2 Gd 0.16786(3) 1.385710(17) -0.195715(13)
Gd1A_2 Gd 0.83214(3) 1.614290(17) 0.195715(13)
Gd1A_3 Gd 1.83214(3) 0.614290(17) 0.195715(13)
Gd1A_4 Gd 1.83214(3) 1.614290(17) -0.804285(13)
C1A C 1.2883(6) 0.7661(4) 0.1410(3)
C2A C 1.1340(6) 0.8934(4) 0.0687(3)
C3A C 1.1921(6) 1.0298(4) 0.0152(3)
H1A H 1.3269 1.0471 0.0281
C4A C 1.9507(7) 1.3826(4) -0.5605(3)
C5A C 1.7101(6) 1.4441(4) -0.5272(3)
C6A C 1.6172(7) 1.3976(4) -0.4224(3)
H2A H 1.7040 1.3248 -0.3703
C7A C 1.0888(6) 1.4399(4) 0.0345(3)
N1A N 0.9401(5) 0.8637(3) 0.0542(2)
N2A N 1.5934(5) 1.5465(3) -0.6067(2)
N2A_2 N 0.5934(5) 0.5465(3) 0.3933(2)
O1A O 1.2142(4) 0.6493(3) 0.1837(2)
O2A O 1.4799(4) 0.7834(3) 0.1514(2)
O2_2 O 1.5201(4) 1.2166(3) -0.1514(2)
O2A_2 O 0.4799(4) 0.7834(3) 0.1514(2)
O3A O 2.0142(5) 1.4315(3) -0.6582(2)
O3A_2 O 1.0142(5) 0.4315(3) 0.3418(2)
O4A O 2.0691(5) 1.2906(4) -0.4898(2)
O5A O 1.0847(5) 1.4295(3) 0.1303(2)
O5A_2 O 1.0847(5) 0.4295(3) 0.1303(2)
O6A O 1.2230(4) 1.3612(3) -0.0127(2)
O6_2 O 0.7770(4) 0.6388(3) 0.0127(2)
O7A O 0.8284(5) 0.7891(3) 0.2834(2)
H3A H 0.8694 0.7792 0.3443
H4A H 0.7107 0.8560 0.2807
O8A O 0.5942(5) 0.4362(3) 0.2194(2)
H5A H 0.4624 0.4852 0.2115
H6A H 0.5721 0.3631 0.2711
O9 O 0.6375(7) 0.2805(6) 0.0844(4)
H7 H 0.6249 0.1999 0.1359
H8 H 0.6897 0.2445 0.0340
O10 O 0.5127(10) 0.2034(6) 0.4128(4)
H9 H 0.4641 0.1298 0.4613
H10 H 0.6407 0.1568 0.3945
O11 O 0.5317(16) 0.0372(7) 0.2660(7)
H11 H 0.4755 -0.0191 0.3249
H12 H 0.4105 0.1002 0.2464
O12 O 0.0685(17) 0.1183(8) 0.2673(8)
H13 H -0.0513 0.1271 0.2376
H14 H 0.0716 0.2099 0.2481
loop_
_geom_bond_atom_site_label_1
_geom_bond_atom_site_label_2
_geom_bond_site_symmetry_1
_geom_bond_site_symmetry_2
Gd1 N1 1_555 1_555
C1 C2 1_555 1_555
C2 C3 1_555 1_555
C3 H1 1_555 1_555
C4 C5 1_555 1_555
C5 C6 1_555 1_555
C6 H2 1_555 1_555
C7 O5 1_555 1_555
N1 C2 1_555 1_555
N2 Gd1 1_555 1_555
O1 Gd1 1_555 1_555
O2 C1 1_555 1_555
O3 Gd1 1_555 1_555
O4 C4 1_555 1_555
O5 Gd1 1_555 1_555
O6 C7 1_555 1_555
O7 Gd1 1_555 1_555
H3 O7 1_555 1_555
H4 O7 1_555 1_555
O8 Gd1 1_555 1_555
H5 O8 1_555 1_555
H6 O8 1_555 1_555
O9 H7 1_555 1_555
H8 O9 1_555 1_555
O10 H9 1_555 1_555
H10 O10 1_555 1_555
O11 H11 1_555 1_555
H12 O11 1_555 1_555
O12 H13 1_555 1_555
H14 O12 1_555 1_555
Gd1A N1A 1_555 1_555
Gd1_2 O2 1_555 1_555
Gd1A_2 O6 1_555 1_555
Gd1A_3 O2A 1_555 1_555
Gd1A_4 N2A 1_555 1_555
C1A C2A 1_555 1_555
C2A C3A 1_555 1_555
C3A N1 1_555 1_555
H1A C3A 1_555 1_555
C4A C5A 1_555 1_555
C5A C6A 1_555 1_555
C6A N2 1_555 1_555
H2A C6A 1_555 1_555
C7A C7 1_555 1_555
N1A C3 1_555 1_555
N2A C6 1_555 1_555
N2A_2 Gd1A 1_555 1_555
O1A Gd1A 1_555 1_555
O2A C1A 1_555 1_555
O2_2 Gd1 1_555 1_555
O2A_2 Gd1A 1_555 1_555
O3A Gd1A_4 1_555 1_555
O3A_2 Gd1A 1_555 1_555
O4A C4A 1_555 1_555
O5A Gd1A_2 1_555 1_555
O5A_2 Gd1A 1_555 1_555
O6A Gd1 1_555 1_555
O6_2 Gd1A 1_555 1_555
O7A Gd1A 1_555 1_555
H3A O7A 1_555 1_555
H4A O7A 1_555 1_555
O8A Gd1A 1_555 1_555
H5A O8A 1_555 1_555
H6A O8A 1_555 1_555
C1 O1 1_555 1_555
C4 O3 1_555 1_555
C5 N2 1_555 1_555
C1A O1A 1_555 1_555
C2A N1A 1_555 1_555
C4A O3A 1_555 1_555
C5A N2A 1_555 1_555
C7A O5A 1_555 1_555
C7A O6A 1_555 1_555

#END
