
#######################################################################
#
#                 Cambridge Crystallographic Data Centre
#                                CCDC 
#
#######################################################################
#
# If this CIF has been generated from an entry in the Cambridge 
# Structural Database, then it will include bibliographic, chemical, 
# crystal, experimental, refinement or atomic coordinate data resulting 
# from the CCDC's data processing and validation procedures.
#
#######################################################################

data_IKETAU
_chemical_formula_moiety         '(C14 H20 N4 Nd2 O20)n'
_symmetry_cell_setting           triclinic
_symmetry_space_group_name_H-M   'P -1'
_symmetry_Int_Tables_number      2
_space_group_name_Hall           '-P 1'
loop_
_symmetry_equiv_pos_site_id
_symmetry_equiv_pos_as_xyz
1 x,y,z
2 -x,-y,-z
_cell_length_a                   6.1645(12)
_cell_length_b                   10.074(2)
_cell_length_c                   13.503(3)
_cell_angle_alpha                68.951(2)
_cell_angle_beta                 80.872(2)
_cell_angle_gamma                76.667(2)
_cell_volume                     758.846
loop_
_atom_site_label
_atom_site_type_symbol
_atom_site_fract_x
_atom_site_fract_y
_atom_site_fract_z
Nd1 Nd 1.17122(4) 1.38459(3) -0.196655(19)
C1 C 0.7162(9) 1.2305(6) -0.1405(4)
C2 C 0.8664(8) 1.1050(6) -0.0682(4)
C3 C 0.8094(9) 0.9706(6) -0.0145(4)
H1 H 0.6761 0.9531 -0.0268
C4 C 1.0531(10) 1.6158(6) -0.4409(4)
C5 C 1.2898(9) 1.5549(6) -0.4730(4)
C6 C 1.3836(9) 1.6012(6) -0.5775(4)
H2 H 1.2984 1.6729 -0.6293
C7 C 0.9127(9) 1.5597(6) -0.0338(4)
N1 N 1.0598(7) 1.1341(5) -0.0544(3)
N2 N 1.4076(8) 1.4543(5) -0.3946(3)
O1 O 0.7879(7) 1.3457(4) -0.1846(3)
O2 O 0.5262(6) 1.2124(4) -0.1496(3)
O3 O 0.9882(7) 1.5691(5) -0.3438(3)
O4 O 0.9353(8) 1.7075(6) -0.5114(3)
O5 O 0.9171(7) 1.5692(4) -0.1289(3)
O6 O 0.7794(7) 1.6369(4) 0.0122(3)
O7 O 1.1791(8) 1.2068(5) -0.2858(3)
H3 H 1.2888 1.1418 -0.2815
H4 H 1.1301 1.2186 -0.3451
O8 O 1.4158(7) 1.5637(4) -0.2197(3)
H5 H 1.5476 1.5147 -0.2117
H6 H 1.4379 1.6368 -0.2713
Nd1A Nd 0.82878(4) 0.61541(3) 0.196655(19)
Nd1_2 Nd 0.17122(4) 1.38459(3) -0.196655(19)
Nd1A_2 Nd 0.82878(4) 1.61541(3) 0.196655(19)
Nd1A_3 Nd 1.82878(4) 0.61541(3) 0.196655(19)
Nd1A_4 Nd 1.82878(4) 1.61541(3) -0.803345(19)
C1A C 1.2838(9) 0.7695(6) 0.1405(4)
C2A C 1.1336(8) 0.8950(6) 0.0682(4)
C3A C 1.1906(9) 1.0294(6) 0.0145(4)
H1A H 1.3239 1.0469 0.0268
C4A C 1.9469(10) 1.3842(6) -0.5591(4)
C5A C 1.7102(9) 1.4451(6) -0.5270(4)
C6A C 1.6164(9) 1.3988(6) -0.4225(4)
H2A H 1.7016 1.3271 -0.3707
C7A C 1.0873(9) 1.4403(6) 0.0338(4)
N1A N 0.9402(7) 0.8659(5) 0.0544(3)
N2A N 1.5924(8) 1.5457(5) -0.6054(3)
N2A_2 N 0.5924(8) 0.5457(5) 0.3946(3)
O1A O 1.2121(7) 0.6543(4) 0.1846(3)
O2A O 1.4738(6) 0.7876(4) 0.1496(3)
O2_2 O 1.5262(6) 1.2124(4) -0.1496(3)
O2A_2 O 0.4738(6) 0.7876(4) 0.1496(3)
O3A O 2.0118(7) 1.4309(5) -0.6562(3)
O3A_2 O 1.0118(7) 0.4309(5) 0.3438(3)
O4A O 2.0647(8) 1.2925(6) -0.4886(3)
O5A O 1.0829(7) 1.4308(4) 0.1289(3)
O5A_2 O 1.0829(7) 0.4308(4) 0.1289(3)
O6A O 1.2206(7) 1.3631(4) -0.0122(3)
O6_2 O 0.7794(7) 0.6369(4) 0.0122(3)
O7A O 0.8209(8) 0.7932(5) 0.2858(3)
H3A H 0.7112 0.8582 0.2815
H4A H 0.8699 0.7814 0.3451
O8A O 0.5842(7) 0.4363(4) 0.2197(3)
H5A H 0.4524 0.4853 0.2117
H6A H 0.5621 0.3632 0.2713
O9 O 0.6347(11) 0.2865(9) 0.0806(6)
H7 H 0.6221 0.2059 0.1322
H8 H 0.6869 0.2505 0.0302
O10 O 0.5053(15) 0.2077(10) 0.4125(7)
H9 H 0.4566 0.1341 0.4610
H10 H 0.6333 0.1611 0.3942
O11 O 0.550(4) 0.0446(12) 0.2603(14)
H11 H 0.4938 -0.0117 0.3192
H12 H 0.4288 0.1076 0.2408
O12 O 0.077(3) 0.1227(14) 0.2671(13)
H13 H -0.0427 0.1315 0.2373
H14 H 0.0803 0.2143 0.2479
loop_
_geom_bond_atom_site_label_1
_geom_bond_atom_site_label_2
_geom_bond_site_symmetry_1
_geom_bond_site_symmetry_2
Nd1 N1 1_555 1_555
C1 C2 1_555 1_555
C2 C3 1_555 1_555
C3 H1 1_555 1_555
C4 C5 1_555 1_555
C5 C6 1_555 1_555
C6 H2 1_555 1_555
C7 O5 1_555 1_555
N1 C2 1_555 1_555
N2 Nd1 1_555 1_555
O1 Nd1 1_555 1_555
O2 C1 1_555 1_555
O3 Nd1 1_555 1_555
O4 C4 1_555 1_555
O5 Nd1 1_555 1_555
O6 C7 1_555 1_555
O7 Nd1 1_555 1_555
H3 O7 1_555 1_555
H4 O7 1_555 1_555
O8 Nd1 1_555 1_555
H5 O8 1_555 1_555
H6 O8 1_555 1_555
O9 H7 1_555 1_555
H8 O9 1_555 1_555
O10 H9 1_555 1_555
H10 O10 1_555 1_555
O11 H11 1_555 1_555
H12 O11 1_555 1_555
O12 H13 1_555 1_555
H14 O12 1_555 1_555
Nd1A N1A 1_555 1_555
Nd1_2 O2 1_555 1_555
Nd1A_2 O6 1_555 1_555
Nd1A_3 O2A 1_555 1_555
Nd1A_4 N2A 1_555 1_555
C1A C2A 1_555 1_555
C2A C3A 1_555 1_555
C3A N1 1_555 1_555
H1A C3A 1_555 1_555
C4A C5A 1_555 1_555
C5A C6A 1_555 1_555
C6A N2 1_555 1_555
H2A C6A 1_555 1_555
C7A C7 1_555 1_555
N1A C3 1_555 1_555
N2A C6 1_555 1_555
N2A_2 Nd1A 1_555 1_555
O1A Nd1A 1_555 1_555
O2A C1A 1_555 1_555
O2_2 Nd1 1_555 1_555
O2A_2 Nd1A 1_555 1_555
O3A Nd1A_4 1_555 1_555
O3A_2 Nd1A 1_555 1_555
O4A C4A 1_555 1_555
O5A Nd1A_2 1_555 1_555
O5A_2 Nd1A 1_555 1_555
O6A Nd1 1_555 1_555
O6_2 Nd1A 1_555 1_555
O7A Nd1A 1_555 1_555
H3A O7A 1_555 1_555
H4A O7A 1_555 1_555
O8A Nd1A 1_555 1_555
H5A O8A 1_555 1_555
H6A O8A 1_555 1_555
C1 O1 1_555 1_555
C4 O3 1_555 1_555
C5 N2 1_555 1_555
C1A O1A 1_555 1_555
C2A N1A 1_555 1_555
C4A O3A 1_555 1_555
C5A N2A 1_555 1_555
C7A O5A 1_555 1_555
C7A O6A 1_555 1_555

#END
