
#######################################################################
#
#                 Cambridge Crystallographic Data Centre
#                                CCDC 
#
#######################################################################
#
# If this CIF has been generated from an entry in the Cambridge 
# Structural Database, then it will include bibliographic, chemical, 
# crystal, experimental, refinement or atomic coordinate data resulting 
# from the CCDC's data processing and validation procedures.
#
#######################################################################

data_IKETIC
_chemical_formula_moiety         '(C14 H20 Eu2 N4 O20)n'
_symmetry_cell_setting           triclinic
_symmetry_space_group_name_H-M   'P -1'
_symmetry_Int_Tables_number      2
_space_group_name_Hall           '-P 1'
loop_
_symmetry_equiv_pos_site_id
_symmetry_equiv_pos_as_xyz
1 x,y,z
2 -x,-y,-z
_cell_length_a                   6.1009(8)
_cell_length_b                   9.9758(16)
_cell_length_c                   13.3825(18)
_cell_angle_alpha                68.8710(10)
_cell_angle_beta                 81.033(2)
_cell_angle_gamma                76.750(2)
_cell_volume                     737.086
loop_
_atom_site_label
_atom_site_type_symbol
_atom_site_fract_x
_atom_site_fract_y
_atom_site_fract_z
Eu1 Eu 1.16836(5) 1.38563(3) -0.19600(2)
C1 C 0.7134(9) 1.2322(6) -0.1416(4)
C2 C 0.8675(9) 1.1050(6) -0.0681(4)
C3 C 0.8095(9) 0.9706(6) -0.0154(4)
H1 H 0.6752 0.9536 -0.0288
C4 C 1.0493(10) 1.6164(6) -0.4398(5)
C5 C 1.2903(10) 1.5562(6) -0.4730(4)
C6 C 1.3816(10) 1.6025(6) -0.5770(4)
H2 H 1.2940 1.6747 -0.6289
C7 C 0.9124(10) 1.5607(6) -0.0345(5)
N1 N 1.0605(7) 1.1356(5) -0.0542(3)
N2 N 1.4061(8) 1.4530(5) -0.3936(4)
O1 O 0.7856(7) 1.3498(4) -0.1843(3)
O2 O 0.5215(6) 1.2157(4) -0.1509(3)
O3 O 0.9858(7) 1.5697(5) -0.3426(3)
O4 O 0.9318(8) 1.7096(5) -0.5102(3)
O5 O 0.9156(7) 1.5707(4) -0.1301(3)
O6 O 0.7765(7) 1.6375(4) 0.0133(3)
O7 O 1.1736(8) 1.2096(5) -0.2838(3)
H3 H 1.1326 1.2194 -0.3446
H4 H 1.2913 1.1426 -0.2811
O8 O 1.4081(7) 1.5632(4) -0.2192(3)
H5 H 1.5399 1.5143 -0.2112
H6 H 1.4302 1.6364 -0.2708
Eu1A Eu 0.83164(5) 0.61437(3) 0.19600(2)
Eu1_2 Eu 0.16836(5) 1.38563(3) -0.19600(2)
Eu1A_2 Eu 0.83164(5) 1.61437(3) 0.19600(2)
Eu1A_3 Eu 1.83164(5) 0.61437(3) 0.19600(2)
Eu1A_4 Eu 1.83164(5) 1.61437(3) -0.80400(2)
C1A C 1.2866(9) 0.7678(6) 0.1416(4)
C2A C 1.1325(9) 0.8950(6) 0.0681(4)
C3A C 1.1905(9) 1.0294(6) 0.0154(4)
H1A H 1.3248 1.0464 0.0288
C4A C 1.9507(10) 1.3836(6) -0.5602(5)
C5A C 1.7097(10) 1.4438(6) -0.5270(4)
C6A C 1.6184(10) 1.3975(6) -0.4230(4)
H2A H 1.7060 1.3253 -0.3711
C7A C 1.0876(10) 1.4393(6) 0.0345(5)
N1A N 0.9395(7) 0.8644(5) 0.0542(3)
N2A N 1.5939(8) 1.5470(5) -0.6064(4)
N2A_2 N 0.5939(8) 0.5470(5) 0.3936(4)
O1A O 1.2144(7) 0.6502(4) 0.1843(3)
O2A O 1.4785(6) 0.7843(4) 0.1509(3)
O2_2 O 1.5215(6) 1.2157(4) -0.1509(3)
O2A_2 O 0.4785(6) 0.7843(4) 0.1509(3)
O3A O 2.0142(7) 1.4303(5) -0.6574(3)
O3A_2 O 1.0142(7) 0.4303(5) 0.3426(3)
O4A O 2.0682(8) 1.2904(5) -0.4898(3)
O5A O 1.0844(7) 1.4293(4) 0.1301(3)
O5A_2 O 1.0844(7) 0.4293(4) 0.1301(3)
O6A O 1.2235(7) 1.3625(4) -0.0133(3)
O6_2 O 0.7765(7) 0.6375(4) 0.0133(3)
O7A O 0.8264(8) 0.7904(5) 0.2838(3)
H3A H 0.8674 0.7806 0.3446
H4A H 0.7087 0.8574 0.2811
O8A O 0.5919(7) 0.4368(4) 0.2192(3)
H5A H 0.4601 0.4857 0.2112
H6A H 0.5698 0.3636 0.2708
O9 O 0.6365(10) 0.2808(8) 0.0845(5)
H7 H 0.6239 0.2003 0.1360
H8 H 0.6887 0.2448 0.0340
O10 O 0.5091(13) 0.2019(9) 0.4138(6)
H9 H 0.4604 0.1282 0.4624
H10 H 0.6371 0.1552 0.3955
O11 O 0.535(2) 0.0393(9) 0.2638(9)
H11 H 0.4792 -0.0170 0.3228
H12 H 0.4142 0.1023 0.2443
O12 O 0.070(2) 0.1190(10) 0.2687(9)
H13 H -0.0494 0.1278 0.2390
H14 H 0.0736 0.2106 0.2495
loop_
_geom_bond_atom_site_label_1
_geom_bond_atom_site_label_2
_geom_bond_site_symmetry_1
_geom_bond_site_symmetry_2
Eu1 N1 1_555 1_555
C1 C2 1_555 1_555
C2 C3 1_555 1_555
C3 H1 1_555 1_555
C4 C5 1_555 1_555
C5 C6 1_555 1_555
C6 H2 1_555 1_555
C7 O5 1_555 1_555
N1 C2 1_555 1_555
N2 Eu1 1_555 1_555
O1 Eu1 1_555 1_555
O2 C1 1_555 1_555
O3 Eu1 1_555 1_555
O4 C4 1_555 1_555
O5 Eu1 1_555 1_555
O6 C7 1_555 1_555
O7 Eu1 1_555 1_555
H3 O7 1_555 1_555
H4 O7 1_555 1_555
O8 Eu1 1_555 1_555
H5 O8 1_555 1_555
H6 O8 1_555 1_555
O9 H7 1_555 1_555
H8 O9 1_555 1_555
O10 H9 1_555 1_555
H10 O10 1_555 1_555
O11 H11 1_555 1_555
H12 O11 1_555 1_555
O12 H13 1_555 1_555
H14 O12 1_555 1_555
Eu1A N1A 1_555 1_555
Eu1_2 O2 1_555 1_555
Eu1A_2 O6 1_555 1_555
Eu1A_3 O2A 1_555 1_555
Eu1A_4 N2A 1_555 1_555
C1A C2A 1_555 1_555
C2A C3A 1_555 1_555
C3A N1 1_555 1_555
H1A C3A 1_555 1_555
C4A C5A 1_555 1_555
C5A C6A 1_555 1_555
C6A N2 1_555 1_555
H2A C6A 1_555 1_555
C7A C7 1_555 1_555
N1A C3 1_555 1_555
N2A C6 1_555 1_555
N2A_2 Eu1A 1_555 1_555
O1A Eu1A 1_555 1_555
O2A C1A 1_555 1_555
O2_2 Eu1 1_555 1_555
O2A_2 Eu1A 1_555 1_555
O3A Eu1A_4 1_555 1_555
O3A_2 Eu1A 1_555 1_555
O4A C4A 1_555 1_555
O5A Eu1A_2 1_555 1_555
O5A_2 Eu1A 1_555 1_555
O6A Eu1 1_555 1_555
O6_2 Eu1A 1_555 1_555
O7A Eu1A 1_555 1_555
H3A O7A 1_555 1_555
H4A O7A 1_555 1_555
O8A Eu1A 1_555 1_555
H5A O8A 1_555 1_555
H6A O8A 1_555 1_555
C1 O1 1_555 1_555
C4 O3 1_555 1_555
C5 N2 1_555 1_555
C1A O1A 1_555 1_555
C2A N1A 1_555 1_555
C4A O3A 1_555 1_555
C5A N2A 1_555 1_555
C7A O5A 1_555 1_555
C7A O6A 1_555 1_555

#END
