
#######################################################################
#
#                 Cambridge Crystallographic Data Centre
#                                CCDC 
#
#######################################################################
#
# If this CIF has been generated from an entry in the Cambridge 
# Structural Database, then it will include bibliographic, chemical, 
# crystal, experimental, refinement or atomic coordinate data resulting 
# from the CCDC's data processing and validation procedures.
#
#######################################################################

data_GAWMOJ
_chemical_formula_moiety         '(C33 H26 O13 Zn2)n'
_symmetry_cell_setting           tetragonal
_symmetry_space_group_name_H-M   'P -4 n 2'
_symmetry_Int_Tables_number      118
_space_group_name_Hall           'P -4 -2n'
loop_
_symmetry_equiv_pos_site_id
_symmetry_equiv_pos_as_xyz
1 x,y,z
2 -x,-y,z
3 1/2-y,1/2-x,1/2-z
4 1/2+y,1/2+x,1/2-z
5 1/2-x,1/2+y,1/2+z
6 1/2+x,1/2-y,1/2+z
7 -y,x,-z
8 y,-x,-z
_cell_length_a                   28.598(5)
_cell_length_b                   28.598(5)
_cell_length_c                   17.074(5)
_cell_angle_alpha                90
_cell_angle_beta                 90
_cell_angle_gamma                90
_cell_volume                     13963.9
loop_
_atom_site_label
_atom_site_type_symbol
_atom_site_fract_x
_atom_site_fract_y
_atom_site_fract_z
Zn1 Zn 0.177198(19) 0.06671(2) 0.36751(4)
Zn2 Zn 0.281212(18) 0.12308(2) 0.38132(3)
O1 O 0.17637(13) 0.22653(16) -0.0312(3)
O2 O 0.13208(15) 0.21377(14) -0.2314(2)
O3 O 0.05381(15) 0.29225(19) -0.0768(3)
O4 O 0.13898(15) 0.34795(14) -0.1412(3)
C1 C 0.12808(16) 0.26653(17) -0.1217(3)
O5 O 0.18796(19) 0.10135(18) 0.2726(3)
O6 O 0.27495(13) 0.52012(15) -0.1148(3)
C2 C 0.1527(2) 0.1957(2) -0.2985(3)
C3 C 0.07606(17) 0.2736(2) -0.1455(3)
H1 H 0.0619 0.2440 -0.1605
H2 H 0.0735 0.2952 -0.1890
O7 O -0.15850(13) 0.34815(14) -0.1306(3)
O8 O 0.24564(16) 0.14214(18) -0.5281(2)
C4 C 0.20693(18) 0.47482(19) -0.1275(3)
C5 C 0.1865(2) 0.1567(2) -0.4356(4)
C6 C 0.18284(19) 0.2014(2) 0.0367(3)
O9 O 0.24901(16) 0.14593(18) 0.2878(2)
C7 C -0.0219(2) 0.2973(2) -0.1427(4)
H3 H -0.0115 0.2809 -0.1863
O10 O 0.17641(19) 0.1082(3) -0.5425(3)
C8 C -0.06715(19) 0.3142(2) -0.1390(4)
H4 H -0.0867 0.3090 -0.1816
C9 C 0.1501(2) 0.3109(2) -0.0916(3)
H5 H 0.1387 0.3175 -0.0392
H6 H 0.1838 0.3072 -0.0890
C10 C -0.1340(2) 0.3533(3) -0.0724(5)
O11 O 0.20755(15) 0.55619(14) -0.1357(3)
C11 C 0.1553(2) 0.25258(19) -0.1959(3)
H7 H 0.1564 0.2787 -0.2321
H8 H 0.1871 0.2440 -0.1822
C12 C 0.2041(2) 0.1571(3) 0.1772(4)
C13 C 0.2371(2) 0.1862(2) 0.1390(4)
H9 H 0.2666 0.1899 0.1609
C14 C 0.1293(2) 0.2290(2) -0.0600(3)
H10 H 0.1080 0.2366 -0.0177
H11 H 0.1201 0.1992 -0.0823
C15 C 0.23160(18) 0.51983(19) -0.1257(3)
C16 C 0.2143(2) 0.1334(3) 0.2510(4)
C17 C 0.2121(2) 0.1877(2) -0.3944(4)
H12 H 0.2415 0.1958 -0.4131
C18 C 0.1632(2) 0.3891(2) -0.1334(3)
C19 C 0.2289(2) 0.4359(2) -0.1018(5)
H13 H 0.2592 0.4383 -0.0821
C20 C 0.0071(2) 0.3055(3) -0.0806(4)
C21 C 0.2041(2) 0.1346(2) -0.5076(4)
C22 C 0.2267(2) 0.2087(3) 0.0716(4)
H14 H 0.2483 0.2287 0.0486
C23 C 0.1512(2) 0.1736(3) 0.0710(4)
H15 H 0.1223 0.1690 0.0471
C24 C 0.1962(2) 0.2087(2) -0.3235(4)
H16 H 0.2144 0.2301 -0.2958
C25 C 0.1606(2) 0.1517(3) 0.1407(4)
H17 H 0.1378 0.1331 0.1640
O12 O -0.1480(2) 0.3734(3) -0.0162(4)
C26 C 0.1245(2) 0.1647(3) -0.3402(4)
H18 H 0.0947 0.1574 -0.3223
C27 C 0.1633(3) 0.4712(2) -0.1590(4)
H19 H 0.1486 0.4977 -0.1788
C28 C 0.1414(2) 0.1449(3) -0.4085(4)
H20 H 0.1230 0.1239 -0.4366
C29 C 0.2071(2) 0.3925(2) -0.1044(4)
H21 H 0.2226 0.3659 -0.0863
C30 C -0.0838(2) 0.3369(3) -0.0794(4)
C31 C 0.1408(2) 0.4285(2) -0.1619(4)
H22 H 0.1108 0.4262 -0.1828
C32 C -0.0088(3) 0.3282(4) -0.0192(4)
H23 H 0.0116 0.3345 0.0219
C33 C -0.0528(3) 0.3424(5) -0.0138(6)
H24 H -0.0636 0.3559 0.0324
O13 O 0.1139(2) 0.0386(4) 0.3596(5)
Zn1_2 Zn 0.177198(19) 0.06671(2) -0.63249(4)
Zn1D Zn 0.322802(19) 0.56671(2) -0.13249(4)
Zn2_2 Zn 0.281212(18) 0.12308(2) -0.61868(3)
Zn2D Zn 0.218788(18) 0.62308(2) -0.11868(3)
Zn2E Zn -0.218788(18) 0.37692(2) -0.11868(3)
O6D O 0.22505(13) 0.02012(15) 0.3852(3)
O7E O 0.34150(13) 0.15185(14) 0.3694(3)
O8_2 O 0.24564(16) 0.14214(18) 0.4719(2)
O10_2 O 0.17641(19) 0.1082(3) 0.4575(3)
O11D O 0.29245(15) 0.05619(14) 0.3643(3)
loop_
_geom_bond_atom_site_label_1
_geom_bond_atom_site_label_2
_geom_bond_site_symmetry_1
_geom_bond_site_symmetry_2
Zn1 O5 1_555 1_555
Zn2 O9 1_555 1_555
O1 C6 1_555 1_555
O2 C2 1_555 1_555
O3 C3 1_555 1_555
O4 C9 1_555 1_555
C1 C3 1_555 1_555
O5 C16 1_555 1_555
O6 C15 1_555 1_555
C2 C24 1_555 1_555
C3 H1 1_555 1_555
H2 C3 1_555 1_555
O7 C10 1_555 1_555
O8 C21 1_555 1_555
C4 C15 1_555 1_555
C5 C17 1_555 1_555
C6 C22 1_555 1_555
O9 C16 1_555 1_555
C7 H3 1_555 1_555
O10 C21 1_555 1_555
C8 C7 1_555 1_555
H4 C8 1_555 1_555
C9 C1 1_555 1_555
H5 C9 1_555 1_555
H6 C9 1_555 1_555
C10 O12 1_555 1_555
O11 C15 1_555 1_555
C11 O2 1_555 1_555
H7 C11 1_555 1_555
H8 C11 1_555 1_555
C12 C13 1_555 1_555
C13 H9 1_555 1_555
C14 O1 1_555 1_555
H10 C14 1_555 1_555
H11 C14 1_555 1_555
C16 C12 1_555 1_555
C17 H12 1_555 1_555
C18 O4 1_555 1_555
C19 C4 1_555 1_555
H13 C19 1_555 1_555
C20 O3 1_555 1_555
C21 C5 1_555 1_555
C22 C13 1_555 1_555
H14 C22 1_555 1_555
C23 C6 1_555 1_555
H15 C23 1_555 1_555
C24 C17 1_555 1_555
H16 C24 1_555 1_555
C25 C12 1_555 1_555
H17 C25 1_555 1_555
C26 C2 1_555 1_555
H18 C26 1_555 1_555
C27 C4 1_555 1_555
H19 C27 1_555 1_555
C28 C5 1_555 1_555
H20 C28 1_555 1_555
C29 C18 1_555 1_555
H21 C29 1_555 1_555
C30 C8 1_555 1_555
C31 C18 1_555 1_555
H22 C31 1_555 1_555
C32 C20 1_555 1_555
H23 C32 1_555 1_555
C33 C30 1_555 1_555
H24 C33 1_555 1_555
O13 Zn1 1_555 1_555
Zn1_2 O10 1_555 1_555
Zn1D O6 1_555 1_555
Zn2_2 O8 1_555 1_555
Zn2D O11 1_555 1_555
Zn2E O7 1_555 1_555
O6D Zn1 1_555 1_555
O7E Zn2 1_555 1_555
O8_2 Zn2 1_555 1_555
O10_2 Zn1 1_555 1_555
O11D Zn2 1_555 1_555
C1 C11 1_555 1_555
C1 C14 1_555 1_555
C7 C20 1_555 1_555
C10 C30 1_555 1_555
C19 C29 1_555 1_555
C23 C25 1_555 1_555
C26 C28 1_555 1_555
C27 C31 1_555 1_555
C32 C33 1_555 1_555

#END
