
#######################################################################
#
#                 Cambridge Crystallographic Data Centre
#                                CCDC 
#
#######################################################################
#
# If this CIF has been generated from an entry in the Cambridge 
# Structural Database, then it will include bibliographic, chemical, 
# crystal, experimental, refinement or atomic coordinate data resulting 
# from the CCDC's data processing and validation procedures.
#
#######################################################################

data_AGARUW
_chemical_formula_moiety         '(C11 H18 La2 N4 O18)n'
_symmetry_cell_setting           orthorhombic
_symmetry_space_group_name_H-M   'P n m a'
_symmetry_Int_Tables_number      62
_space_group_name_Hall           '-P 2ac 2n'
loop_
_symmetry_equiv_pos_site_id
_symmetry_equiv_pos_as_xyz
1 x,y,z
2 1/2-x,-y,1/2+z
3 -x,1/2+y,-z
4 1/2+x,1/2-y,1/2-z
5 -x,-y,-z
6 1/2+x,y,1/2-z
7 x,1/2-y,z
8 1/2-x,1/2+y,1/2+z
_cell_length_a                   8.521(2)
_cell_length_b                   18.477(4)
_cell_length_c                   15.380(4)
_cell_angle_alpha                90
_cell_angle_beta                 90
_cell_angle_gamma                90
_cell_volume                     2421.47
loop_
_atom_site_label
_atom_site_type_symbol
_atom_site_fract_x
_atom_site_fract_y
_atom_site_fract_z
La1 La 0.34396(5) 0.61676(2) 0.28446(3)
O1 O 0.3897(7) 0.4901(4) 0.1754(4)
O2 O 0.5890(7) 0.5458(3) 0.2341(4)
C1 C 0.5309(9) 0.5035(5) 0.1781(5)
C2 C 0.6409(9) 0.4719(4) 0.1150(5)
C3 C 0.6167(9) 0.4310(4) 0.0403(5)
H1 H 0.5204 0.4137 0.0190
C4 C 0.7627(9) 0.4211(4) 0.0040(5)
C5 C 0.8141(9) 0.3878(5) -0.0786(5)
N1 N 0.8658(8) 0.4549(4) 0.0577(5)
H2 H 0.9667 0.4558 0.0490
N2 N 0.7957(8) 0.4864(4) 0.1250(4)
O3 O 0.9572(7) 0.3909(3) -0.0941(4)
O4 O 0.7100(7) 0.3613(3) -0.1253(4)
C6 C 0.5303(13) 0.7500 0.2491(8)
O5 O 0.5867(6) 0.6892(3) 0.2265(4)
O6 O 0.4036(9) 0.7500 0.2943(6)
O7 O 0.2200(8) 0.6445(4) 0.4312(4)
H3 H 0.1886 0.6880 0.4347
H4 H 0.2808 0.6348 0.4735
La1E La -0.15604(5) 0.61676(2) 0.21554(3)
La1E_2 La 0.84396(5) 0.61676(2) 0.21554(3)
La1A La 1.15604(5) 0.38324(2) -0.21554(3)
La1D La 0.65604(5) 0.38324(2) -0.28446(3)
La1F La 0.34396(5) 0.88324(2) 0.28446(3)
La1C La 0.84396(5) 0.88324(2) 0.21554(3)
La1D_2 La 0.65604(5) 0.38324(2) 0.71554(3)
La1A_2 La 0.15604(5) 0.38324(2) 0.78446(3)
O1E O -0.1103(7) 0.4901(4) 0.3246(4)
O2E O 0.0890(7) 0.5458(3) 0.2659(4)
O2_2 O -0.4110(7) 0.5458(3) 0.2341(4)
C1E C 0.0309(9) 0.5035(5) 0.3219(5)
C2E C 0.1409(9) 0.4719(4) 0.3850(5)
C3E C 0.1167(9) 0.4310(4) 0.4597(5)
H1E H 0.0204 0.4137 0.4810
C4E C 0.2627(9) 0.4211(4) 0.4960(5)
C5E C 0.3141(9) 0.3878(5) 0.5786(5)
N1E N 0.3658(8) 0.4549(4) 0.4423(5)
H2E H 0.4667 0.4558 0.4510
N2E N 0.2957(8) 0.4864(4) 0.3750(4)
N2_2 N -0.2043(8) 0.4864(4) 0.1250(4)
O3E O 0.4572(7) 0.3909(3) 0.5941(4)
O3A O 0.5428(7) 0.6091(3) 0.4059(4)
O3D O 0.0428(7) 0.6091(3) 0.0941(4)
O4E O 0.2100(7) 0.3613(3) 0.6253(4)
O4D O 0.2900(7) 0.6387(3) 0.1253(4)
O4A O -0.2100(7) 0.6387(3) 0.3747(4)
O5F O 0.5867(6) 0.8108(3) 0.2265(4)
O5E O 0.0867(6) 0.6892(3) 0.2735(4)
O5_2 O -0.4133(6) 0.6892(3) 0.2265(4)
O6E O -0.0964(9) 0.7500 0.2057(6)
O7E O -0.2800(8) 0.6445(4) 0.0688(4)
H3E H -0.3114 0.6880 0.0653
H4E H -0.2192 0.6348 0.0265
O8 O 0.0294(15) 0.2500 0.5357(7)
H5 H 0.1006 0.2500 0.5744
H6 H 0.0633 0.2500 0.4837
O9 O 0.3212(8) 0.5927(4) 0.5885(5)
H7 H 0.3245 0.6254 0.6272
H8 H 0.2596 0.5594 0.6055
O10 O 0.535(3) 0.6571(15) 0.7218(15)
H9 H 0.5819 0.6184 0.7368
H10 H 0.5983 0.6848 0.6950
O11 O 0.494(3) 0.7500 0.5128(18)
H11 H 0.5085 0.7873 0.4815
H12 H 0.5085 0.7127 0.4815
O12 O 0.222(7) 0.2500 0.368(3)
loop_
_geom_bond_atom_site_label_1
_geom_bond_atom_site_label_2
_geom_bond_site_symmetry_1
_geom_bond_site_symmetry_2
La1 O1 1_555 1_555
O1 C1 1_555 1_555
O2 La1 1_555 1_555
C1 O2 1_555 1_555
C2 C1 1_555 1_555
C3 C2 1_555 1_555
H1 C3 1_555 1_555
C4 C3 1_555 1_555
C5 C4 1_555 1_555
N1 C4 1_555 1_555
H2 N1 1_555 1_555
N2 C2 1_555 1_555
O3 C5 1_555 1_555
O4 C5 1_555 1_555
C6 O5 1_555 1_555
O5 La1 1_555 1_555
O6 La1 1_555 1_555
O7 La1 1_555 1_555
H3 O7 1_555 1_555
H4 O7 1_555 1_555
O8 H5 1_555 1_555
H6 O8 1_555 1_555
O9 H7 1_555 1_555
H8 O9 1_555 1_555
O10 H9 1_555 1_555
H10 O10 1_555 1_555
O11 H11 1_555 1_555
H12 O11 1_555 1_555
La1E O1E 1_555 1_555
La1E_2 O2 1_555 1_555
La1A O3 1_555 1_555
La1D O4 1_555 1_555
La1F O6 1_555 1_555
La1C O5F 1_555 1_555
La1D_2 O3E 1_555 1_555
La1A_2 O4E 1_555 1_555
O1E C1E 1_555 1_555
O2E La1 1_555 1_555
O2_2 La1E 1_555 1_555
C1E O2E 1_555 1_555
C2E C1E 1_555 1_555
C3E C2E 1_555 1_555
H1E C3E 1_555 1_555
C4E C3E 1_555 1_555
C5E C4E 1_555 1_555
N1E C4E 1_555 1_555
H2E N1E 1_555 1_555
N2E La1 1_555 1_555
N2_2 La1E 1_555 1_555
O3E C5E 1_555 1_555
O3A La1 1_555 1_555
O3D La1E 1_555 1_555
O4E C5E 1_555 1_555
O4D La1 1_555 1_555
O4A La1E 1_555 1_555
O5F C6 1_555 1_555
O5E La1 1_555 1_555
O5_2 La1E 1_555 1_555
O6E La1E 1_555 1_555
O7E La1E 1_555 1_555
H3E O7E 1_555 1_555
H4E O7E 1_555 1_555
N1 N2 1_555 1_555
N2 La1E_2 1_555 1_555
C6 O6 1_555 1_555
O5 La1E_2 1_555 1_555
La1E O2E 1_555 1_555
La1E O5E 1_555 1_555
La1F O5F 1_555 1_555
C2E N2E 1_555 1_555
N1E N2E 1_555 1_555

#END
