
#######################################################################
#
#                 Cambridge Crystallographic Data Centre
#                                CCDC 
#
#######################################################################
#
# If this CIF has been generated from an entry in the Cambridge 
# Structural Database, then it will include bibliographic, chemical, 
# crystal, experimental, refinement or atomic coordinate data resulting 
# from the CCDC's data processing and validation procedures.
#
#######################################################################

data_ABIYIV
_chemical_formula_moiety         '(C40 H34 Co3 N10 O11)n'
_symmetry_cell_setting           orthorhombic
_symmetry_space_group_name_H-M   'P c c n'
_symmetry_Int_Tables_number      56
_space_group_name_Hall           '-P 2ab 2ac'
loop_
_symmetry_equiv_pos_site_id
_symmetry_equiv_pos_as_xyz
1 x,y,z
2 1/2-x,1/2-y,z
3 -x,1/2+y,1/2-z
4 1/2+x,-y,1/2-z
5 -x,-y,-z
6 1/2+x,1/2+y,-z
7 x,1/2-y,1/2+z
8 1/2-x,y,1/2+z
_cell_length_a                   11.1040(3)
_cell_length_b                   19.8834(5)
_cell_length_c                   21.3025(5)
_cell_angle_alpha                90
_cell_angle_beta                 90
_cell_angle_gamma                90
_cell_volume                     4703.28
loop_
_atom_site_label
_atom_site_type_symbol
_atom_site_fract_x
_atom_site_fract_y
_atom_site_fract_z
_atom_site_U_iso_or_equiv
_atom_site_thermal_displace_type
Co1 Co -0.30595(4) 0.46297(3) 0.22352(2) 0.0212 Uani
Co2 Co 0.0000 0.5000 0.0000 0.0200 Uani
O1 O -0.15285(17) 0.45761(11) 0.04362(9) 0.0235 Uani
O2 O -0.14093(18) 0.44416(11) 0.26619(10) 0.0242 Uani
N1 N 0.0434(2) 0.51193(12) 0.09282(12) 0.0227 Uani
O3 O -0.25072(19) 0.45318(11) 0.13352(9) 0.0258 Uani
N2 N -0.3660(2) 0.35820(13) 0.21639(13) 0.0276 Uani
N3 N -0.2626(2) 0.57186(13) 0.22295(13) 0.0262 Uani
N4 N 0.0896(2) 0.40326(13) -0.00009(12) 0.0269 Uani
C1 C -0.1566(3) 0.46437(16) 0.10307(14) 0.0221 Uani
C2 C -0.2529(3) 0.71258(16) 0.22423(17) 0.0295 Uani
C3 C 0.0366(3) 0.34603(17) -0.01683(16) 0.0326 Uani
H1 H -0.0457 0.3474 -0.0291 0.0390 Uiso
C4 C -0.2288(3) 0.60567(17) 0.27411(16) 0.0297 Uani
H2 H -0.2081 0.5808 0.3107 0.0360 Uiso
C5 C -0.0439(3) 0.48836(15) 0.13278(15) 0.0220 Uani
C6 C -0.2917(3) 0.60849(17) 0.17200(16) 0.0314 Uani
H3 H -0.3164 0.5854 0.1351 0.0380 Uiso
C7 C 0.2052(3) 0.40099(18) 0.01700(17) 0.0344 Uani
H4 H 0.2438 0.4416 0.0290 0.0410 Uiso
C8 C -0.2874(3) 0.67742(17) 0.17064(16) 0.0317 Uani
H5 H -0.3079 0.7010 0.1334 0.0380 Uiso
C9 C 0.2166(3) 0.28192(17) 0.00020(15) 0.0287 Uani
C10 C -0.3844(4) 0.32029(19) 0.26745(19) 0.0430 Uani
H6 H -0.3741 0.3405 0.3075 0.0510 Uiso
C11 C 0.1330(3) 0.53256(16) 0.13024(14) 0.0248 Uani
H7 H 0.2060 0.5513 0.1149 0.0300 Uiso
C12 C 0.0950(3) 0.28500(18) -0.01723(16) 0.0337 Uani
H8 H 0.0533 0.2453 -0.0292 0.0400 Uiso
C13 C -0.2222(3) 0.67489(17) 0.27654(17) 0.0317 Uani
H9 H -0.1967 0.6967 0.3139 0.0380 Uiso
C14 C 0.2709(3) 0.34209(17) 0.01803(17) 0.0353 Uani
H10 H 0.3529 0.3426 0.0308 0.0420 Uiso
C15 C -0.4176(4) 0.2535(2) 0.2649(2) 0.0550 Uani
H11 H -0.4293 0.2286 0.3025 0.0660 Uiso
C16 C -0.4182(4) 0.2621(2) 0.1546(2) 0.0580 Uani
H12 H -0.4306 0.2432 0.1142 0.0690 Uiso
C17 C -0.3843(4) 0.32920(19) 0.16099(19) 0.0437 Uani
H13 H -0.3738 0.3554 0.1241 0.0520 Uiso
C18 C -0.4337(4) 0.2235(2) 0.2077(2) 0.0553 Uani
H14 H -0.4548 0.1773 0.2047 0.0660 Uiso
C19 C -0.0026(3) 0.49567(15) 0.19412(14) 0.0197 Uani
C20 C -0.0455(3) 0.47847(15) 0.25811(14) 0.0221 Uani
O4 O 0.01911(18) 0.49902(11) 0.30279(9) 0.0250 Uani
N5 N 0.1098(2) 0.52414(13) 0.19119(12) 0.0231 Uani
Co1D Co 0.30595(4) 0.53703(3) -0.22352(2) 0.0212 Uani
Co1C Co 0.19405(4) 0.53703(3) 0.27648(2) 0.0212 Uani
Co1A Co -0.19405(4) 1.03703(3) 0.22352(2) 0.0212 Uani
Co1G Co -0.19405(4) 0.46297(3) -0.27648(2) 0.0212 Uani
Co2A Co 0.5000 0.0000 0.0000 0.0200 Uani
O1D O 0.15285(17) 0.54239(11) -0.04362(9) 0.0235 Uani
O2D O 0.14093(18) 0.55584(11) -0.26619(10) 0.0242 Uani
N1D N -0.0434(2) 0.48807(12) -0.09282(12) 0.0227 Uani
O3D O 0.25072(19) 0.54682(11) -0.13352(9) 0.0258 Uani
N2D N 0.3660(2) 0.64180(13) -0.21639(13) 0.0276 Uani
N3A N -0.2374(2) 0.92814(13) 0.22295(13) 0.0262 Uani
N3D N 0.2626(2) 0.42814(13) -0.22295(13) 0.0262 Uani
N4A N 0.4104(2) 0.09674(13) -0.00009(12) 0.0269 Uani
N4D N -0.0896(2) 0.59674(13) 0.00009(12) 0.0269 Uani
C1D C 0.1566(3) 0.53563(16) -0.10307(14) 0.0221 Uani
C2A C -0.2471(3) 0.78742(16) 0.22423(17) 0.0295 Uani
C3A C 0.4634(3) 0.15397(17) -0.01683(16) 0.0326 Uani
H1A H 0.5457 0.1526 -0.0291 0.0390 Uiso
C4A C -0.2712(3) 0.89433(17) 0.27411(16) 0.0297 Uani
H2A H -0.2919 0.9192 0.3107 0.0360 Uiso
C5D C 0.0439(3) 0.51164(15) -0.13278(15) 0.0220 Uani
C6A C -0.2083(3) 0.89151(17) 0.17200(16) 0.0314 Uani
H3A H -0.1836 0.9146 0.1351 0.0380 Uiso
C7A C 0.2948(3) 0.09901(18) 0.01700(17) 0.0344 Uani
H4A H 0.2562 0.0584 0.0290 0.0410 Uiso
C8A C -0.2126(3) 0.82258(17) 0.17064(16) 0.0317 Uani
H5A H -0.1921 0.7990 0.1334 0.0380 Uiso
C9A C 0.2834(3) 0.21808(17) 0.00020(15) 0.0287 Uani
C10D C 0.3844(4) 0.67971(19) -0.26745(19) 0.0430 Uani
H6D H 0.3741 0.6595 -0.3075 0.0510 Uiso
C11D C -0.1330(3) 0.46744(16) -0.13024(14) 0.0248 Uani
H7D H -0.2060 0.4487 -0.1149 0.0300 Uiso
C12A C 0.4050(3) 0.21500(18) -0.01723(16) 0.0337 Uani
H8A H 0.4467 0.2547 -0.0292 0.0400 Uiso
C13A C -0.2778(3) 0.82511(17) 0.27654(17) 0.0317 Uani
H9A H -0.3033 0.8033 0.3139 0.0380 Uiso
C14A C 0.2291(3) 0.15791(17) 0.01803(17) 0.0353 Uani
H10A H 0.1471 0.1574 0.0308 0.0420 Uiso
C15D C 0.4176(4) 0.7465(2) -0.2649(2) 0.0550 Uani
H11D H 0.4293 0.7714 -0.3025 0.0660 Uiso
C16D C 0.4182(4) 0.7379(2) -0.1546(2) 0.0580 Uani
H12D H 0.4306 0.7568 -0.1142 0.0690 Uiso
C17D C 0.3843(4) 0.67080(19) -0.16099(19) 0.0437 Uani
H13D H 0.3738 0.6446 -0.1241 0.0520 Uiso
C18D C 0.4337(4) 0.7765(2) -0.2077(2) 0.0553 Uani
H14D H 0.4548 0.8227 -0.2047 0.0660 Uiso
C19D C 0.0026(3) 0.50433(15) -0.19412(14) 0.0197 Uani
C20D C 0.0455(3) 0.52153(15) -0.25811(14) 0.0221 Uani
O4D O -0.01911(18) 0.50098(11) -0.30279(9) 0.0250 Uani
O4C O -0.48089(18) 0.50098(11) 0.19721(9) 0.0250 Uani
O4G O 0.48089(18) 0.49902(11) -0.19721(9) 0.0250 Uani
N5D N -0.1098(2) 0.47586(13) -0.19119(12) 0.0231 Uani
N5C N -0.3902(2) 0.47586(13) 0.30881(12) 0.0231 Uani
N5G N 0.3902(2) 0.52414(13) -0.30881(12) 0.0231 Uani
O5 O 0.8771(2) 0.07199(14) -0.00613(11) 0.0464 Uani
H15 H 0.8093 0.0601 0.0080 0.0690 Uiso
H16 H 0.9299 0.0693 0.0228 0.0690 Uiso
O6 O 0.6058(3) 0.14410(14) 0.38139(14) 0.0608 Uani
H17 H 0.5969 0.1252 0.4169 0.0910 Uiso
H18 H 0.6070 0.1143 0.3527 0.0910 Uiso
O8 O 0.5539(2) -0.03922(14) 0.42084(11) 0.0438 Uani
H21 H 0.5719 -0.0010 0.4369 0.0660 Uiso
H22 H 0.5309 -0.0326 0.3832 0.0660 Uiso
loop_
_atom_site_aniso_label
_atom_site_aniso_U_11
_atom_site_aniso_U_22
_atom_site_aniso_U_33
_atom_site_aniso_U_23
_atom_site_aniso_U_13
_atom_site_aniso_U_12
Co1 0.0227 0.0224 0.0186 -0.0007 0.0013 -0.0001
Co2 0.0234 0.0201 0.0165 0.0005 0.001 0.0017
O1 0.0253 0.0293 0.0159 -0.0031 0.0013 -0.0025
O2 0.0233 0.0276 0.0216 0.0028 -0.0012 -0.0011
N1 0.0262 0.0207 0.0211 0.0006 0.0019 0.0008
O3 0.0265 0.0309 0.0201 -0.0035 0.0027 -0.0041
N2 0.0282 0.0219 0.0327 0.0006 -0.0007 0.0004
N3 0.0291 0.0248 0.0247 0.0018 0.0042 0.0012
N4 0.0315 0.0214 0.0278 0 -0.0005 0.0029
C1 0.0288 0.0162 0.0213 0.0012 -0.0003 0.0017
C2 0.0301 0.0234 0.035 0.0031 0.0034 0.0027
C3 0.0299 0.027 0.041 -0.003 -0.0027 0.0042
C4 0.0315 0.031 0.0267 -0.0002 -0.0042 -0.0004
C5 0.0236 0.019 0.0235 0.001 0.0014 -0.0002
C6 0.04 0.0283 0.0259 -0.0031 0.0019 -0.002
C7 0.0351 0.026 0.042 -0.0036 -0.0084 0.002
C8 0.04 0.027 0.028 0.0043 -0.004 -0.0033
C9 0.036 0.0223 0.0279 -0.0005 0.0015 0.0062
C10 0.053 0.032 0.044 0.009 -0.003 -0.0038
C11 0.022 0.0288 0.0237 0.0039 0.002 -0.0012
C12 0.035 0.024 0.042 -0.0023 0.0016 -0.0002
C13 0.041 0.023 0.031 -0.003 -0.0014 -0.0005
C14 0.031 0.03 0.045 -0.0029 -0.0091 0.0069
C15 0.063 0.032 0.07 0.025 -0.007 -0.01
C16 0.074 0.034 0.066 -0.011 0.002 -0.017
C17 0.053 0.037 0.041 0 0.0017 -0.011
C18 0.052 0.026 0.088 -0.002 -0.002 -0.006
C19 0.0198 0.0192 0.0202 -0.0016 -0.0024 -0.0014
C20 0.0255 0.0179 0.023 0.0011 0.0036 0.0053
O4 0.0276 0.032 0.0155 -0.0031 -0.0022 -0.0011
N5 0.0264 0.0252 0.0176 -0.0006 0.0006 0.0003
Co1D 0.0227 0.0224 0.0186 -0.0007 0.0013 -0.0001
Co1C 0.0227 0.0224 0.0186 -0.0007 -0.0013 0.0001
Co1A 0.0227 0.0224 0.0186 0.0007 -0.0013 -0.0001
Co1G 0.0227 0.0224 0.0186 -0.0007 -0.0013 0.0001
Co2A 0.0234(4) 0.0201(4) 0.0165(3) -0.0005(3) -0.0010(3) 0.0017(3)
O1D 0.0253 0.0293 0.0159 -0.0031 0.0013 -0.0025
O2D 0.0233 0.0276 0.0216 0.0028 -0.0012 -0.0011
N1D 0.0262 0.0207 0.0211 0.0006 0.0019 0.0008
O3D 0.0265 0.0309 0.0201 -0.0035 0.0027 -0.0041
N2D 0.0282 0.0219 0.0327 0.0006 -0.0007 0.0004
N3A 0.0291 0.0248 0.0247 -0.0018 -0.0042 0.0012
N3D 0.0291 0.0248 0.0247 0.0018 0.0042 0.0012
N4A 0.0315(15) 0.0214(15) 0.0278(15) 0.0000(13) 0.0005(12) 0.0029(13)
N4D 0.0315 0.0214 0.0278 0 -0.0005 0.0029
C1D 0.0288 0.0162 0.0213 0.0012 -0.0003 0.0017
C2A 0.0301 0.0234 0.035 -0.0031 -0.0034 0.0027
C3A 0.0299(18) 0.027(2) 0.041(2) 0.0030(17) 0.0027(16) 0.0042(16)
C4A 0.0315 0.031 0.0267 0.0002 0.0042 -0.0004
C5D 0.0236 0.019 0.0235 0.001 0.0014 -0.0002
C6A 0.04 0.0283 0.0259 0.0031 -0.0019 -0.002
C7A 0.0351(19) 0.026(2) 0.042(2) 0.0036(17) 0.0084(17) 0.0020(17)
C8A 0.04 0.027 0.028 -0.0043 0.004 -0.0033
C9A 0.036(2) 0.0223(18) 0.0279(19) 0.0005(17) -0.0015(15) 0.0062(15)
C10D 0.053 0.032 0.044 0.009 -0.003 -0.0038
C11D 0.022 0.0288 0.0237 0.0039 0.002 -0.0012
C12A 0.035(2) 0.024(2) 0.042(2) 0.0023(17) -0.0016(16) -0.0002(17)
C13A 0.041 0.023 0.031 0.003 0.0014 -0.0005
C14A 0.031(2) 0.030(2) 0.045(2) 0.0029(18) 0.0091(16) 0.0069(17)
C15D 0.063 0.032 0.07 0.025 -0.007 -0.01
C16D 0.074 0.034 0.066 -0.011 0.002 -0.017
C17D 0.053 0.037 0.041 0 0.0017 -0.011
C18D 0.052 0.026 0.088 -0.002 -0.002 -0.006
C19D 0.0198 0.0192 0.0202 -0.0016 -0.0024 -0.0014
C20D 0.0255 0.0179 0.023 0.0011 0.0036 0.0053
O4D 0.0276 0.032 0.0155 -0.0031 -0.0022 -0.0011
O4C 0.0276 0.032 0.0155 -0.0031 0.0022 0.0011
O4G 0.0276 0.032 0.0155 -0.0031 0.0022 0.0011
N5D 0.0264 0.0252 0.0176 -0.0006 0.0006 0.0003
N5C 0.0264 0.0252 0.0176 -0.0006 -0.0006 -0.0003
N5G 0.0264 0.0252 0.0176 -0.0006 -0.0006 -0.0003
O5 0.0371(14) 0.067(2) 0.0350(15) 0.0114(14) 0.0060(12) -0.0011(13)
O6 0.095(2) 0.0392(16) 0.0482(18) 0.0074(15) -0.0156(17) -0.0031(17)
O8 0.0415(14) 0.0569(18) 0.0330(14) 0.0068(13) -0.0056(12) 0.0023(14)
loop_
_geom_bond_atom_site_label_1
_geom_bond_atom_site_label_2
_geom_bond_site_symmetry_1
_geom_bond_site_symmetry_2
Co1 O2 1_555 1_555
Co2 O1 1_555 1_555
O1 C1 1_555 1_555
O2 C20 1_555 1_555
N1 Co2 1_555 1_555
O3 Co1 1_555 1_555
N2 Co1 1_555 1_555
N3 Co1 1_555 1_555
N4 Co2 1_555 1_555
C1 O3 1_555 1_555
C2 C8 1_555 1_555
C3 N4 1_555 1_555
H1 C3 1_555 1_555
C4 N3 1_555 1_555
H2 C4 1_555 1_555
C5 N1 1_555 1_555
C6 N3 1_555 1_555
H3 C6 1_555 1_555
C7 N4 1_555 1_555
H4 C7 1_555 1_555
C8 C6 1_555 1_555
H5 C8 1_555 1_555
C9 C12 1_555 1_555
C10 N2 1_555 1_555
H6 C10 1_555 1_555
C11 N1 1_555 1_555
H7 C11 1_555 1_555
C12 C3 1_555 1_555
H8 C12 1_555 1_555
C13 C2 1_555 1_555
H9 C13 1_555 1_555
C14 C7 1_555 1_555
H10 C14 1_555 1_555
C15 C10 1_555 1_555
H11 C15 1_555 1_555
C16 H12 1_555 1_555
C17 N2 1_555 1_555
H13 C17 1_555 1_555
C18 C15 1_555 1_555
H14 C18 1_555 1_555
C19 C5 1_555 1_555
C20 C19 1_555 1_555
O4 C20 1_555 1_555
N5 C11 1_555 1_555
O5 H15 1_555 1_555
H16 O5 1_555 1_555
O6 H17 1_555 1_555
H18 O6 1_555 1_555
O8 H21 1_555 1_555
H22 O8 1_555 1_555
Co1D O2D 1_555 1_555
Co1C O4 1_555 1_555
Co1A N3A 1_555 1_555
Co1G O4D 1_555 1_555
Co2A N4A 1_555 1_555
O1D Co2 1_555 1_555
O2D C20D 1_555 1_555
N1D Co2 1_555 1_555
O3D Co1D 1_555 1_555
N2D Co1D 1_555 1_555
N3A C4A 1_555 1_555
N3D Co1D 1_555 1_555
N4A C3A 1_555 1_555
N4D Co2 1_555 1_555
C1D O1D 1_555 1_555
C2A C2 1_555 1_555
C3A H1A 1_555 1_555
C4A H2A 1_555 1_555
C5D N1D 1_555 1_555
C6A N3A 1_555 1_555
H3A C6A 1_555 1_555
C7A N4A 1_555 1_555
H4A C7A 1_555 1_555
C8A C2A 1_555 1_555
H5A C8A 1_555 1_555
C9A C9 1_555 1_555
C10D N2D 1_555 1_555
H6D C10D 1_555 1_555
C11D N1D 1_555 1_555
H7D C11D 1_555 1_555
C12A C3A 1_555 1_555
H8A C12A 1_555 1_555
C13A C2A 1_555 1_555
H9A C13A 1_555 1_555
C14A C7A 1_555 1_555
H10A C14A 1_555 1_555
C15D C10D 1_555 1_555
H11D C15D 1_555 1_555
C16D H12D 1_555 1_555
C17D N2D 1_555 1_555
H13D C17D 1_555 1_555
C18D C15D 1_555 1_555
H14D C18D 1_555 1_555
C19D C5D 1_555 1_555
C20D C19D 1_555 1_555
O4D C20D 1_555 1_555
O4C Co1 1_555 1_555
O4G Co1D 1_555 1_555
N5D Co1G 1_555 1_555
N5C Co1 1_555 1_555
N5G Co1D 1_555 1_555
C1 C5 1_555 1_555
C4 C13 1_555 1_555
C9 C14 1_555 1_555
C16 C17 1_555 1_555
C16 C18 1_555 1_555
C19 N5 1_555 1_555
N5 Co1C 1_555 1_555
O3D C1D 1_555 1_555
C1D C5D 1_555 1_555
C4A C13A 1_555 1_555
C6A C8A 1_555 1_555
C9A C12A 1_555 1_555
C9A C14A 1_555 1_555
C11D N5D 1_555 1_555
C16D C17D 1_555 1_555
C16D C18D 1_555 1_555
C19D N5D 1_555 1_555

#END
