
#######################################################################
#
#                 Cambridge Crystallographic Data Centre
#                                CCDC 
#
#######################################################################
#
# If this CIF has been generated from an entry in the Cambridge 
# Structural Database, then it will include bibliographic, chemical, 
# crystal, experimental, refinement or atomic coordinate data resulting 
# from the CCDC's data processing and validation procedures.
#
#######################################################################

data_AFOYEB
_chemical_formula_moiety         '(C13 H16 Co2 O17)n'
_symmetry_cell_setting           tetragonal
_symmetry_space_group_name_H-M   'P 41 21 2'
_symmetry_Int_Tables_number      92
_space_group_name_Hall           'P 4abw 2nw'
loop_
_symmetry_equiv_pos_site_id
_symmetry_equiv_pos_as_xyz
1 x,y,z
2 -x,-y,1/2+z
3 1/2+x,1/2-y,3/4-z
4 1/2-x,1/2+y,1/4-z
5 -y,-x,1/2-z
6 y,x,-z
7 1/2+y,1/2-x,3/4+z
8 1/2-y,1/2+x,1/4+z
_cell_length_a                   18.968(1)
_cell_length_b                   18.968(1)
_cell_length_c                   5.773(1)
_cell_angle_alpha                90
_cell_angle_beta                 90
_cell_angle_gamma                90
_cell_volume                     2077.04
loop_
_atom_site_label
_atom_site_type_symbol
_atom_site_fract_x
_atom_site_fract_y
_atom_site_fract_z
O9 O 0.091(6) 0.498(6) 0.92(2)
C7 C 0.069(9) 0.555(8) 0.70(3)
Co1 Co 0.27032(16) 0.72968(16) 0.7500
Co2 Co 0.27992(15) 0.27992(15) 1.0000
O1 O 0.2426(9) 0.6854(9) 0.434(3)
O2 O 0.2244(9) 0.5928(8) 0.231(3)
C1 C 0.2384(14) 0.6250(13) 0.408(5)
C2 C 0.2499(14) 0.5757(14) 0.632(5)
H1 H 0.2062 0.5478 0.6643
O3 O 0.2639(9) 0.6261(8) 0.825(3)
C3 C 0.3152(13) 0.5256(14) 0.615(5)
H2 H 0.3069 0.4945 0.4776
O4 O 0.3736(9) 0.5622(9) 0.570(3)
C4 C 0.3161(13) 0.4786(13) 0.823(4)
H3 H 0.3243 0.5088 0.9621
O5 O 0.3798(9) 0.4314(9) 0.793(3)
C5 C 0.2520(14) 0.4292(13) 0.876(4)
H4 H 0.2100 0.4586 0.9158
O6 O 0.2711(9) 0.3864(9) 1.073(3)
C6 C 0.2372(14) 0.3887(13) 0.669(5)
O7 O 0.2455(9) 0.3204(9) 0.689(3)
O8 O 0.2142(9) 0.4222(9) 0.482(3)
O1D O 0.3146(9) 0.7574(9) 1.066(3)
O2D O 0.4072(8) 0.7756(9) 1.269(3)
C1D C 0.3750(13) 0.7616(14) 1.092(5)
C2D C 0.4243(14) 0.7501(14) 0.868(5)
H1D H 0.4522 0.7938 0.8357
O3D O 0.3739(8) 0.7361(9) 0.675(3)
C3D C 0.4744(14) 0.6848(13) 0.885(5)
H2D H 0.5055 0.6931 1.0224
O4D O 0.4378(9) 0.6264(9) 0.930(3)
C4D C 0.5214(13) 0.6839(13) 0.677(4)
H3D H 0.4912 0.6757 0.5379
O5D O 0.5686(9) 0.6202(9) 0.707(3)
C5D C 0.5708(13) 0.7480(14) 0.624(4)
H4D H 0.5414 0.7900 0.5842
O6D O 0.6136(9) 0.7289(9) 0.427(3)
C6D C 0.6113(13) 0.7628(14) 0.831(5)
O7D O 0.6796(9) 0.7545(9) 0.811(3)
O8D O 0.5778(9) 0.7858(9) 1.018(3)
Co1B Co 0.77032(16) 0.77032(16) 1.0000
Co1C Co 0.22968(16) 0.22968(16) 0.5000
Co2A Co 0.72008(15) 0.72008(15) 0.5000
Co2C Co 0.22008(15) 0.77992(15) 0.2500
Co2C_2 Co 0.22008(15) 0.77992(15) 1.2500
O1C O 0.2574(9) 0.1854(9) 0.816(3)
O1F O 0.1854(9) 0.2574(9) 1.184(3)
O6E O 0.3864(9) 0.2711(9) 0.927(3)
O7C O 0.2545(9) 0.8204(9) 0.561(3)
O7E O 0.3204(9) 0.2455(9) 1.311(3)
O7G O 0.1796(9) 0.7455(9) 0.939(3)
loop_
_geom_bond_atom_site_label_1
_geom_bond_atom_site_label_2
_geom_bond_site_symmetry_1
_geom_bond_site_symmetry_2
Co1 O1 1_555 1_555
Co2 O6 1_555 1_555
O1 C1 1_555 1_555
O2 C1 1_555 1_555
C1 C2 1_555 1_555
C2 H1 1_555 1_555
O3 Co1 1_555 1_555
C3 C2 1_555 1_555
H2 C3 1_555 1_555
O4 C3 1_555 1_555
C4 C3 1_555 1_555
H3 C4 1_555 1_555
O5 C4 1_555 1_555
C5 C4 1_555 1_555
H4 C5 1_555 1_555
O6 C5 1_555 1_555
C6 C5 1_555 1_555
O7 Co2 1_555 1_555
O8 C6 1_555 1_555
O9 C7 1_555 1_555
O1D Co1 1_555 1_555
O2D C1D 1_555 1_555
C1D O1D 1_555 1_555
C2D C1D 1_555 1_555
H1D C2D 1_555 1_555
O3D Co1 1_555 1_555
C3D C2D 1_555 1_555
H2D C3D 1_555 1_555
O4D C3D 1_555 1_555
C4D C3D 1_555 1_555
H3D C4D 1_555 1_555
O5D C4D 1_555 1_555
C5D C4D 1_555 1_555
H4D C5D 1_555 1_555
O6D C5D 1_555 1_555
C6D C5D 1_555 1_555
O7D C6D 1_555 1_555
O8D C6D 1_555 1_555
Co1B O7D 1_555 1_555
Co1C O7 1_555 1_555
Co2A O6D 1_555 1_555
Co2C O1 1_555 1_555
Co2C_2 O1D 1_555 1_555
O1C Co2 1_555 1_555
O1F Co2 1_555 1_555
O6E Co2 1_555 1_555
O7C Co1 1_555 1_555
O7E Co2 1_555 1_555
O7G Co1 1_555 1_555
C2 O3 1_555 1_555
C6 O7 1_555 1_555
C2D O3D 1_555 1_555
O7D Co2A 1_555 1_555
Co1C O1C 1_555 1_555
Co2C O7C 1_555 1_555
Co2C_2 O7G 1_555 1_555

#END
