
#######################################################################
#
#                 Cambridge Crystallographic Data Centre
#                                CCDC 
#
#######################################################################
#
# If this CIF has been generated from an entry in the Cambridge 
# Structural Database, then it will include bibliographic, chemical, 
# crystal, experimental, refinement or atomic coordinate data resulting 
# from the CCDC's data processing and validation procedures.
#
#######################################################################

data_ASOHUL
_chemical_formula_moiety         '(C22 H5 O11 V1)n'
_symmetry_cell_setting           orthorhombic
_symmetry_space_group_name_H-M   'P n m a'
_symmetry_Int_Tables_number      62
_space_group_name_Hall           '-P 2ac 2n'
loop_
_symmetry_equiv_pos_site_id
_symmetry_equiv_pos_as_xyz
1 x,y,z
2 1/2-x,-y,1/2+z
3 -x,1/2+y,-z
4 1/2+x,1/2-y,1/2-z
5 -x,-y,-z
6 1/2+x,y,1/2-z
7 x,1/2-y,z
8 1/2-x,1/2+y,1/2+z
_cell_length_a                   17.6956(19)
_cell_length_b                   6.8745(7)
_cell_length_c                   11.9303(12)
_cell_angle_alpha                90
_cell_angle_beta                 90
_cell_angle_gamma                90
_cell_volume                     1451.3
loop_
_atom_site_label
_atom_site_type_symbol
_atom_site_fract_x
_atom_site_fract_y
_atom_site_fract_z
V1 V 0.0000 0.0000 0.0000
O4 O 0.07407(18) 0.0864(5) -0.1169(3)
O5 O 0.0064(2) 0.2500 0.0738(5)
O6 O 0.41147(18) 0.0859(5) -0.4090(3)
C6 C 0.1009(4) 0.2500 -0.1429(6)
C7 C 0.1726(4) 0.2500 -0.2104(6)
C8 C 0.2068(3) 0.0743(8) -0.2394(6)
C9 C 0.2743(3) 0.0743(9) -0.2971(5)
C10 C 0.3083(4) 0.2500 -0.3253(6)
C11 C 0.3836(4) 0.2500 -0.3864(6)
O4F O 0.07407(18) 0.4136(5) -0.1169(3)
C8F C 0.2068(3) 0.4257(8) -0.2394(6)
C9F C 0.2743(3) 0.4257(9) -0.2971(5)
O6F O 0.41147(18) 0.4141(5) -0.4090(3)
O4D O -0.07407(18) -0.0864(5) 0.1169(3)
O5D O -0.0064(2) -0.2500 -0.0738(5)
O6E O -0.08853(18) 0.0859(5) -0.0910(3)
V1F V 0.0000 0.5000 0.0000
O6A O 0.08853(18) -0.0859(5) 0.0910(3)
V1E V 0.5000 0.0000 -0.5000
V1G V 0.5000 0.5000 -0.5000
C1 C 0.3610(9) 0.0012(16) -0.0243(13)
C2 C 0.3703(18) 0.2500 -0.035(2)
C3 C 0.4664(9) 0.0001(15) -0.1363(14)
O1 O 0.4689(11) 0.2500 -0.1500(16)
O2 O 0.3669(18) -0.2500 -0.033(3)
O3 O 0.4664(13) -0.2500 -0.153(2)
C4 C 0.4138(9) 0.126(5) -0.0842(16)
C5 C 0.4133(9) -0.124(5) -0.0845(16)
C4F C 0.4138(9) 0.374(5) -0.0842(16)
C1F C 0.3610(9) 0.4988(16) -0.0243(13)
C3F C 0.4664(9) 0.4999(15) -0.1363(14)
C5F C 0.4133(9) -0.376(5) -0.0845(16)
C1F_2 C 0.3610(9) -0.5012(16) -0.0243(13)
C3F_2 C 0.4664(9) -0.5001(15) -0.1363(14)
C5F_2 C 0.4133(9) 0.624(5) -0.0845(16)
O2_2 O 0.3669(18) 0.7500 -0.033(3)
O3_2 O 0.4664(13) 0.7500 -0.153(2)
C4F_2 C 0.4138(9) -0.626(5) -0.0842(16)
C2_2 C 0.3703(18) -0.7500 -0.035(2)
O1_2 O 0.4689(11) -0.7500 -0.1500(16)
loop_
_geom_bond_atom_site_label_1
_geom_bond_atom_site_label_2
_geom_bond_site_symmetry_1
_geom_bond_site_symmetry_2
C1 C2 1_555 1_555
C2 C4 1_555 1_555
C3 O1 1_555 1_555
O1 C4 1_555 1_555
O2 C1 1_555 1_555
O3 C3 1_555 1_555
C4 C1 1_555 1_555
C5 C1 1_555 1_555
V1 O4 1_555 1_555
O4 C6 1_555 1_555
O5 V1 1_555 1_555
O6 C11 1_555 1_555
C6 C7 1_555 1_555
C7 C8 1_555 1_555
C8 C9 1_555 1_555
C9 C10 1_555 1_555
C10 C11 1_555 1_555
C11 O6F 1_555 1_555
C4F C2 1_555 1_555
C1F C2 1_555 1_555
C3F O1 1_555 1_555
C5F O2 1_555 1_555
C1F_2 O2 1_555 1_555
C3F_2 O3 1_555 1_555
C5F_2 C4F 1_555 1_555
O2_2 C1F 1_555 1_555
O3_2 C3F 1_555 1_555
C4F_2 C5F 1_555 1_555
C2_2 C1F_2 1_555 1_555
O1_2 C3F_2 1_555 1_555
O4F C6 1_555 1_555
C8F C7 1_555 1_555
C9F C10 1_555 1_555
O6F V1G 1_555 1_555
O4D V1 1_555 1_555
O5D V1 1_555 1_555
O6E V1 1_555 1_555
V1F O5 1_555 1_555
O6A V1 1_555 1_555
V1E O6 1_555 1_555
C3 C4 1_555 1_555
C3 C5 1_555 1_555
O1 C4F 1_555 1_555
O2 C5 1_555 1_555
O3 C5 1_555 1_555
O3 C5F 1_555 1_555
C4 C5 1_555 1_555
C4 C4F 1_555 1_555
C5 C5F 1_555 1_555
C4F C1F 1_555 1_555
C4F C3F 1_555 1_555
C1F C5F_2 1_555 1_555
C3F C5F_2 1_555 1_555
C5F C1F_2 1_555 1_555
C5F C3F_2 1_555 1_555
C1F_2 C4F_2 1_555 1_555
C3F_2 C4F_2 1_555 1_555
C5F_2 O2_2 1_555 1_555
C5F_2 O3_2 1_555 1_555
C4F_2 C2_2 1_555 1_555
C4F_2 O1_2 1_555 1_555
O4F V1F 1_555 1_555
C8F C9F 1_555 1_555

#END
