
#######################################################################
#
#                 Cambridge Crystallographic Data Centre
#                                CCDC 
#
#######################################################################
#
# If this CIF has been generated from an entry in the Cambridge 
# Structural Database, then it will include bibliographic, chemical, 
# crystal, experimental, refinement or atomic coordinate data resulting 
# from the CCDC's data processing and validation procedures.
#
#######################################################################

data_AWEVIJ
_chemical_formula_moiety         '(C110 H103 Cl2 N11 O19 Zn2 2+)n'
_symmetry_cell_setting           monoclinic
_symmetry_space_group_name_H-M   'I 2/a'
_symmetry_Int_Tables_number      15
_space_group_name_Hall           '-I 2ya'
loop_
_symmetry_equiv_pos_site_id
_symmetry_equiv_pos_as_xyz
1 x,y,z
2 1/2-x,y,-z
3 1/2+x,1/2+y,1/2+z
4 -x,1/2+y,1/2-z
5 -x,-y,-z
6 1/2+x,-y,z
7 1/2-x,1/2-y,1/2-z
8 x,1/2-y,1/2+z
_cell_length_a                   38.531(2)
_cell_length_b                   20.8400(10)
_cell_length_c                   38.688(2)
_cell_angle_alpha                90
_cell_angle_beta                 91.60(2)
_cell_angle_gamma                90
_cell_volume                     31053.8
loop_
_atom_site_label
_atom_site_type_symbol
_atom_site_fract_x
_atom_site_fract_y
_atom_site_fract_z
_atom_site_U_iso_or_equiv
_atom_site_thermal_displace_type
O12 O 0.2938(3) 0.7351(5) -0.0599(3) 0.0678 Uani
O13 O 0.3363(3) 0.7126(7) -0.0993(3) 0.0944 Uani
O14 O 0.3470(4) 0.6899(6) -0.0403(4) 0.1069 Uani
O15 O 0.3474(3) 0.7952(5) -0.0585(4) 0.1013 Uani
Cl1 Cl 0.33044(13) 0.7322(2) -0.06455(13) 0.0700 Uani
O16 O 0.1880(3) 0.9941(5) -0.1041(4) 0.0981 Uani
O17 O 0.1447(3) 1.0629(6) -0.0877(3) 0.0821 Uani
O18 O 0.2025(5) 1.1021(6) -0.1033(4) 0.1270 Uani
O19 O 0.1927(3) 1.0492(5) -0.0511(3) 0.0718 Uani
Cl2 Cl 0.18215(13) 1.0543(2) -0.08579(14) 0.0770 Uani
C107 C 0.3714(8) 1.403(2) -0.0570(11) 0.1304 Uani
C108 C 0.3642(6) 1.3459(12) -0.0625(7) 0.0742 Uani
H89 H 0.3541 1.3414 -0.0859 0.1130 Uiso
H90 H 0.3853 1.3198 -0.0604 0.1130 Uiso
H91 H 0.3474 1.3313 -0.0457 0.1130 Uiso
N10 N 0.3819(9) 1.4585(19) -0.0437(11) 0.1768 Uani
N11 N 0.3129(11) 0.3251(18) 0.1263(7) 0.1583 Uani
C109 C 0.3168(7) 0.4418(12) 0.1151(7) 0.0662 Uani
H92 H 0.3395 0.4615 0.1199 0.0990 Uiso
H93 H 0.3103 0.4477 0.0907 0.0990 Uiso
H94 H 0.2994 0.462 0.1296 0.0990 Uiso
C110 C 0.3184(10) 0.3849(19) 0.1216(8) 0.1065 Uani
C1 C 0.3087(4) 0.4705(4) 0.0222(3) 0.0814 Uani
H1 H 0.3099 0.4293 0.0118 0.0980 Uiso
C2 C 0.3387(3) 0.5066(6) 0.0273(3) 0.0900 Uani
H2 H 0.3604 0.49 0.0205 0.1080 Uiso
C3 C 0.3369(3) 0.5669(5) 0.0425(3) 0.0805 Uani
C4 C 0.3051(3) 0.5911(4) 0.0525(3) 0.0713 Uani
C5 C 0.2751(2) 0.5550(6) 0.0473(3) 0.0615 Uani
C6 C 0.2769(3) 0.4947(5) 0.0322(3) 0.0754 Uani
H3 H 0.2563 0.47 0.0286 0.0900 Uiso
O1 O 0.3024(3) 0.6558(5) 0.0585(3) 0.0692 Uani
C7 C 0.2918(4) 0.6924(9) 0.0295(4) 0.0709 Uani
H4 H 0.2662 0.691 0.0263 0.0850 Uiso
H5 H 0.3023 0.6751 0.0083 0.0850 Uiso
C8 C 0.3044(5) 0.7639(6) 0.0361(4) 0.0534 Uani
C9 C 0.2820(5) 0.8140(7) 0.0440(4) 0.0647 Uani
H6 H 0.2578 0.8064 0.0455 0.0780 Uiso
C10 C 0.2950(4) 0.8732(6) 0.0495(4) 0.0496 Uani
H7 H 0.2804 0.9075 0.0562 0.0590 Uiso
C11 C 0.3305(5) 0.8831(8) 0.0452(4) 0.0569 Uani
H8 H 0.3398 0.9241 0.051 0.0690 Uiso
N1 N 0.3527(4) 0.8379(7) 0.0334(3) 0.0678 Uani
C12 C 0.3386(4) 0.7759(7) 0.0291(4) 0.0479 Uani
H9 H 0.3528 0.742 0.0214 0.0570 Uiso
C13 C 0.2401(4) 0.5760(9) 0.0593(5) 0.0741 Uani
H10 H 0.2223 0.5682 0.0408 0.0890 Uiso
H11 H 0.2405 0.6225 0.0645 0.0890 Uiso
C14 C 0.2046(3) 0.4456(4) 0.1169(3) 0.0674 Uani
H12 H 0.191 0.4078 0.1145 0.0810 Uiso
C15 C 0.2111(3) 0.4832(5) 0.0881(2) 0.0706 Uani
H13 H 0.202 0.471 0.066 0.0850 Uiso
C16 C 0.2310(3) 0.5385(4) 0.0917(2) 0.0607 Uani
C17 C 0.2444(3) 0.5564(4) 0.1240(3) 0.0604 Uani
C18 C 0.2378(3) 0.5188(5) 0.1528(2) 0.0673 Uani
C19 C 0.2179(3) 0.4634(4) 0.1492(2) 0.0693 Uani
H14 H 0.2134 0.4378 0.1689 0.0830 Uiso
O2 O 0.2629(3) 0.6103(5) 0.1280(3) 0.0693 Uani
C20 C 0.3096(5) 0.7889(8) 0.1296(5) 0.0803 Uani
H15 H 0.3338 0.7923 0.126 0.0960 Uiso
C21 C 0.2943(4) 0.7301(7) 0.1306(4) 0.0515 Uani
H16 H 0.3077 0.692 0.1289 0.0620 Uiso
C22 C 0.2603(4) 0.7275(7) 0.1340(4) 0.0473 Uani
C23 C 0.2409(5) 0.7812(7) 0.1400(4) 0.0612 Uani
H17 H 0.2169 0.7768 0.1445 0.0730 Uiso
N2 N 0.2556(4) 0.8419(5) 0.1395(3) 0.0551 Uani
C24 C 0.2898(5) 0.8441(8) 0.1339(4) 0.0691 Uani
H18 H 0.3009 0.8847 0.1328 0.0830 Uiso
C25 C 0.2378(5) 0.6625(7) 0.1349(6) 0.0923 Uani
H19 H 0.2274 0.6567 0.1578 0.1110 Uiso
H20 H 0.219 0.6634 0.1169 0.1110 Uiso
C26 C 0.2536(5) 0.5356(7) 0.1885(4) 0.0777 Uani
H21 H 0.239 0.5162 0.2065 0.0930 Uiso
H22 H 0.2528 0.5827 0.1916 0.0930 Uiso
C27 C 0.3285(4) 0.4210(4) 0.2050(3) 0.0981 Uani
H23 H 0.3311 0.3765 0.2097 0.1180 Uiso
C28 C 0.2954(3) 0.4474(6) 0.2014(3) 0.0954 Uani
H24 H 0.2755 0.4209 0.2036 0.1140 Uiso
C29 C 0.2915(3) 0.5125(6) 0.1945(3) 0.0803 Uani
C30 C 0.3206(4) 0.5512(4) 0.1913(3) 0.0846 Uani
C31 C 0.3536(3) 0.5249(5) 0.1950(3) 0.0872 Uani
C32 C 0.3575(3) 0.4598(6) 0.2018(3) 0.1001 Uani
H25 H 0.3801 0.4418 0.2044 0.1200 Uiso
O3 O 0.3151(4) 0.6162(6) 0.1855(3) 0.0891 Uani
C33 C 0.3232(5) 0.6544(8) 0.2164(5) 0.0807 Uani
H26 H 0.3436 0.636 0.229 0.0970 Uiso
H27 H 0.3289 0.699 0.2097 0.0970 Uiso
C34 C 0.2920(7) 0.6545(10) 0.2398(5) 0.0772 Uani
C35 C 0.2612(7) 0.6799(10) 0.2310(6) 0.0875 Uani
H28 H 0.2599 0.7064 0.211 0.1050 Uiso
C36 C 0.2306(7) 0.6708(8) 0.2489(5) 0.0882 Uani
H29 H 0.2084 0.6847 0.2406 0.1050 Uiso
C37 C 0.2365(9) 0.6367(11) 0.2826(7) 0.1190 Uani
H30 H 0.2178 0.6325 0.2978 0.1450 Uiso
N3 N 0.2686(5) 0.6112(6) 0.2923(4) 0.0695 Uani
C38 C 0.2961(5) 0.6179(8) 0.2721(6) 0.0790 Uani
H31 H 0.3178 0.5993 0.2785 0.0950 Uiso
C39 C 0.3853(6) 0.5615(10) 0.1854(5) 0.0963 Uani
H32 H 0.4046 0.5511 0.2018 0.1170 Uiso
H33 H 0.3806 0.6081 0.187 0.1170 Uiso
C40 C 0.4194(4) 0.4706(5) 0.1067(5) 0.1088 Uani
H34 H 0.432 0.4326 0.1019 0.1320 Uiso
C41 C 0.4145(4) 0.4891(6) 0.1407(4) 0.0973 Uani
H35 H 0.4237 0.4637 0.1592 0.1160 Uiso
C42 C 0.3960(3) 0.5447(7) 0.1478(3) 0.0886 Uani
C43 C 0.3825(3) 0.5818(5) 0.1207(4) 0.0752 Uani
C44 C 0.3874(3) 0.5634(6) 0.0867(3) 0.1145 Uani
C45 C 0.4058(4) 0.5078(7) 0.0797(4) 0.0973 Uani
H36 H 0.4092 0.4952 0.0564 0.1180 Uiso
O4 O 0.3693(3) 0.6423(5) 0.1260(3) 0.0833 Uani
C46 C 0.3961(5) 0.6918(12) 0.1354(5) 0.0992 Uani
H37 H 0.3847 0.731 0.144 0.1190 Uiso
H38 H 0.412 0.6752 0.1538 0.1190 Uiso
C47 C 0.4148(5) 0.7063(7) 0.1058(5) 0.0635 Uani
C48 C 0.4436(6) 0.6722(9) 0.0957(6) 0.0876 Uani
H39 H 0.4533 0.6395 0.1101 0.1050 Uiso
C49 C 0.4587(5) 0.6873(9) 0.0624(7) 0.0937 Uani
H40 H 0.4766 0.6616 0.0532 0.1130 Uiso
C50 C 0.4460(5) 0.7399(9) 0.0450(5) 0.0772 Uani
H41 H 0.4568 0.7509 0.0241 0.0930 Uiso
N4 N 0.4196(4) 0.7774(5) 0.0546(4) 0.0606 Uani
C51 C 0.4065(4) 0.7607(9) 0.0849(5) 0.0682 Uani
H42 H 0.3895 0.7888 0.0937 0.0820 Uiso
C52 C 0.3693(5) 0.5984(10) 0.0539(5) 0.0828 Uani
H43 H 0.3644 0.6436 0.0599 0.0990 Uiso
H44 H 0.3856 0.5985 0.0346 0.0990 Uiso
C53 C 0.3702(3) 1.3426(4) 0.0476(3) 0.0819 Uani
H45 H 0.3695 1.3812 0.0607 0.0980 Uiso
C54 C 0.4016(3) 1.3201(5) 0.0357(3) 0.0762 Uani
H46 H 0.4224 1.3433 0.0407 0.0910 Uiso
C55 C 0.4027(2) 1.2637(5) 0.0167(3) 0.0765 Uani
C56 C 0.3723(3) 1.2297(4) 0.0095(3) 0.0657 Uani
C57 C 0.3408(2) 1.2522(5) 0.0214(3) 0.0553 Uani
C58 C 0.3398(3) 1.3086(5) 0.0405(3) 0.0835 Uani
H47 H 0.3183 1.324 0.0486 0.1000 Uiso
O5 O 0.3738(2) 1.1741(4) -0.0110(3) 0.0564 Uani
C59 C 0.3792(5) 1.1176(9) 0.0124(5) 0.0783 Uani
H48 H 0.4012 1.1226 0.026 0.0940 Uiso
H49 H 0.36 1.1147 0.0288 0.0940 Uiso
C60 C 0.3805(4) 1.0616(8) -0.0076(6) 0.0660 Uani
C61 C 0.3767(5) 1.0557(8) -0.0421(6) 0.0748 Uani
H50 H 0.3726 1.0937 -0.0551 0.0900 Uiso
C62 C 0.3784(4) 0.9991(8) -0.0597(4) 0.0583 Uani
H51 H 0.376 0.9968 -0.0842 0.0700 Uiso
C63 C 0.3842(5) 0.9436(9) -0.0385(6) 0.0825 Uani
H52 H 0.3851 0.9027 -0.0493 0.0990 Uiso
N5 N 0.3884(3) 0.9467(5) -0.0043(4) 0.0477 Uani
C64 C 0.3860(4) 1.0042(7) 0.0100(5) 0.0680 Uani
H53 H 0.3883 1.0065 0.0345 0.0820 Uiso
C65 C 0.3064(6) 1.2158(9) 0.0101(5) 0.0982 Uani
H54 H 0.3108 1.1692 0.0085 0.1180 Uiso
H55 H 0.2884 1.2228 0.0275 0.1180 Uiso
C66 C 0.2694(3) 1.3271(4) -0.0614(4) 0.0854 Uani
H56 H 0.2596 1.3688 -0.0635 0.1020 Uiso
C67 C 0.2792(3) 1.3034(5) -0.0290(3) 0.0898 Uani
H57 H 0.2761 1.3289 -0.009 0.1080 Uiso
C68 C 0.2935(3) 1.2424(6) -0.0259(3) 0.0787 Uani
C69 C 0.2981(3) 1.2051(4) -0.0552(3) 0.0844 Uani
C70 C 0.2883(3) 1.2288(5) -0.0876(3) 0.0760 Uani
C71 C 0.2740(3) 1.2898(6) -0.0907(3) 0.0860 Uani
H58 H 0.2673 1.3061 -0.1129 0.1030 Uiso
O6 O 0.3062(3) 1.1373(6) -0.0548(3) 0.0709 Uani
C72 C 0.2753(6) 1.1007(9) -0.0455(5) 0.0974 Uani
H59 H 0.2719 1.1024 -0.0203 0.1170 Uiso
H60 H 0.2543 1.1182 -0.0575 0.1170 Uiso
C73 C 0.2816(5) 1.0350(9) -0.0566(5) 0.0779 Uani
C74 C 0.2930(4) 0.9841(9) -0.0331(5) 0.0730 Uani
H61 H 0.2973 0.994 -0.0094 0.0880 Uiso
C75 C 0.2975(4) 0.9224(9) -0.0443(5) 0.0711 Uani
H62 H 0.3048 0.8904 -0.0282 0.0850 Uiso
C76 C 0.2916(4) 0.9059(8) -0.0782(5) 0.0676 Uani
H63 H 0.2944 0.8627 -0.0854 0.0810 Uiso
N6 N 0.2815(3) 0.9524(6) -0.1020(4) 0.0652 Uani
C77 C 0.2768(4) 1.0176(8) -0.0922(5) 0.0642 Uani
H64 H 0.2705 1.0491 -0.109 0.0770 Uiso
C78 C 0.2990(5) 1.1933(8) -0.1225(5) 0.0792 Uani
H65 H 0.3067 1.149 -0.1173 0.0950 Uiso
H66 H 0.2788 1.1912 -0.1388 0.0950 Uiso
C79 C 0.3532(4) 1.3266(5) -0.1664(3) 0.0895 Uani
H67 H 0.3498 1.3661 -0.1783 0.1070 Uiso
C80 C 0.3247(3) 1.2906(6) -0.1566(3) 0.0888 Uani
H68 H 0.3019 1.3055 -0.1617 0.1070 Uiso
C81 C 0.3297(3) 1.2327(6) -0.1393(3) 0.0990 Uani
C82 C 0.3632(4) 1.2109(4) -0.1318(3) 0.0837 Uani
C83 C 0.3917(3) 1.2469(6) -0.1416(3) 0.0865 Uani
C84 C 0.3866(3) 1.3047(5) -0.1590(3) 0.0956 Uani
H69 H 0.4061 1.3293 -0.1657 0.1140 Uiso
O7 O 0.3709(4) 1.1517(6) -0.1169(3) 0.0850 Uani
C85 C 0.3800(5) 1.1010(9) -0.1425(5) 0.0796 Uani
H70 H 0.3985 1.1174 -0.1574 0.0960 Uiso
H71 H 0.3892 1.063 -0.1299 0.0960 Uiso
C86 C 0.3522(5) 1.0830(8) -0.1627(6) 0.0799 Uani
C87 C 0.3371(7) 1.1177(9) -0.1952(5) 0.0924 Uani
H72 H 0.3482 1.1542 -0.2046 0.1120 Uiso
C88 C 0.3067(6) 1.0930(11) -0.2098(6) 0.0909 Uani
H73 H 0.2971 1.1149 -0.2294 0.1090 Uiso
C89 C 0.2903(5) 1.0433(9) -0.1994(5) 0.0749 Uani
H74 H 0.2689 1.032 -0.2106 0.0900 Uiso
N7 N 0.3034(4) 1.0042(6) -0.1714(4) 0.0633 Uani
C90 C 0.3317(6) 1.0238(9) -0.1559(5) 0.0785 Uani
H75 H 0.3405 0.9971 -0.1378 0.0940 Uiso
C91 C 0.4303(5) 1.2307(9) -0.1310(5) 0.0851 Uani
H76 H 0.4329 1.1836 -0.1291 0.1020 Uiso
H77 H 0.4456 1.2456 -0.1495 0.1020 Uiso
C92 C 0.4560(3) 1.3624(4) -0.0683(3) 0.0797 Uani
H78 H 0.4619 1.4065 -0.0697 0.0960 Uiso
C93 C 0.4506(3) 1.3268(5) -0.0984(3) 0.0836 Uani
H79 H 0.4529 1.3466 -0.1203 0.1000 Uiso
C94 C 0.4419(3) 1.2622(5) -0.0963(3) 0.0829 Uani
C95 C 0.4386(3) 1.2332(4) -0.0642(3) 0.0820 Uani
C96 C 0.4440(3) 1.2688(5) -0.0342(3) 0.0745 Uani
C97 C 0.4527(3) 1.3334(5) -0.0362(3) 0.0781 Uani
H80 H 0.4564 1.3577 -0.0157 0.0940 Uiso
O8 O 0.4316(3) 1.1682(5) -0.0604(3) 0.0733 Uani
C98 C 0.4576(5) 1.1264(8) -0.0714(5) 0.0775 Uani
C99 C 0.4969(5) 1.0759(8) 0.0163(5) 0.0724 Uani
C100 C 0.4736(5) 1.0834(8) -0.0112(5) 0.0738 Uani
H81 H 0.4502 1.0704 -0.0087 0.0880 Uiso
C101 C 0.4834(4) 1.1096(6) -0.0426(4) 0.0510 Uani
C102 C 0.5178(5) 1.1227(8) -0.0438(5) 0.0672 Uani
H82 H 0.525 1.1402 -0.0651 0.0810 Uiso
N8 N 0.5445(4) 1.1148(6) -0.0188(4) 0.0690 Uani
C103 C 0.5316(5) 1.0915(6) 0.0132(4) 0.0574 Uani
H83 H 0.547 1.0868 0.0326 0.0690 Uiso
C104 C 0.4369(4) 1.2403(9) 0.0018(5) 0.0713 Uani
H84 H 0.4364 1.1929 0.000 0.0860 Uiso
H85 H 0.4563 1.252 0.018 0.0860 Uiso
O9 O 0.2289(3) 0.9819(4) -0.1618(3) 0.0759 Uani
O10 O 0.4077(3) 0.9143(6) 0.0740(4) 0.0952 Uani
O11 O 0.4061(3) 0.8029(5) -0.0188(3) 0.0692 Uani
Zn1 Zn 0.27351(6) 0.92524(9) -0.15565(5) 0.0658 Uani
Zn2 Zn 0.40501(5) 0.86133(8) 0.02588(6) 0.0612 Uani
N9 N 0.3236(5) 0.8731(7) -0.1488(5) 0.0810 Uani
C105 C 0.3483(8) 0.8520(16) -0.1455(8) 0.1317 Uani
C106 C 0.3837(7) 0.8225(11) -0.1376(8) 0.1489 Uani
H86 H 0.4019 0.8516 -0.1453 0.2260 Uiso
H87 H 0.3856 0.7814 -0.1498 0.2260 Uiso
H88 H 0.3866 0.8152 -0.1127 0.2260 Uiso
N2A N 0.2444(4) 0.8419(5) -0.1395(3) 0.0551 Uani
N3G N 0.2686(5) 0.8888(6) -0.2077(4) 0.0695 Uani
N8D N 0.4555(4) 0.8852(6) 0.0188(4) 0.0690 Uani
Zn1A Zn 0.22649(6) 0.92524(9) 0.15565(5) 0.0658 Uani
Zn1G Zn 0.27351(6) 0.57476(9) 0.34435(5) 0.0658 Uani
Zn2D Zn 0.59499(5) 1.13867(8) -0.02588(6) 0.0612 Uani
loop_
_atom_site_aniso_label
_atom_site_aniso_U_11
_atom_site_aniso_U_22
_atom_site_aniso_U_33
_atom_site_aniso_U_23
_atom_site_aniso_U_13
_atom_site_aniso_U_12
O12 0.038(8) 0.084(8) 0.083(8) 0.006(6) 0.029(6) 0.009(6)
O13 0.053(9) 0.140(12) 0.092(10) -0.037(9) 0.033(7) -0.013(8)
O14 0.092(11) 0.052(8) 0.179(14) 0.016(9) 0.044(10) -0.005(7)
O15 0.059(9) 0.051(8) 0.194(14) 0.026(8) 0.005(8) -0.031(6)
Cl1 0.076(4) 0.048(3) 0.087(4) 0.003(2) 0.021(3) 0.011(2)
O16 0.069(9) 0.029(6) 0.198(14) -0.029(7) 0.035(8) 0.001(6)
O17 0.030(8) 0.092(9) 0.126(11) -0.014(8) 0.032(7) 0.011(6)
O18 0.215(18) 0.065(9) 0.105(11) -0.010(7) 0.074(10) -0.082(10)
O19 0.100(10) 0.045(7) 0.072(9) -0.019(6) 0.033(7) -0.011(6)
Cl2 0.083(4) 0.053(3) 0.097(4) -0.016(3) 0.040(3) 0.012(2)
C107 0.052(19) 0.12(2) 0.22(3) -0.03(2) 0.020(19) 0.002(19)
C108 0.026(15) 0.058(16) 0.14(2) -0.018(16) 0.028(14) -0.022(12)
N10 0.14(3) 0.16(3) 0.23(3) -0.01(3) 0.00(2) 0.00(2)
N11 0.28(3) 0.15(3) 0.048(16) -0.020(18) 0.062(18) -0.05(3)
C109 0.076(19) 0.046(15) 0.079(18) 0.041(14) 0.043(14) 0.002(14)
C110 0.18(3) 0.09(2) 0.052(17) -0.032(18) 0.046(16) -0.03(2)
C1 0.074(12) 0.079(10) 0.092(11) 0.017(9) 0.018(10) -0.030(9)
C2 0.092(12) 0.080(11) 0.099(12) 0.030(10) 0.023(10) -0.013(10)
C3 0.081(12) 0.063(10) 0.099(11) 0.029(9) 0.030(10) 0.007(9)
C4 0.055(11) 0.082(11) 0.078(10) 0.027(9) 0.023(9) 0.001(9)
C5 0.037(8) 0.061(8) 0.088(9) 0.036(8) 0.028(8) -0.012(7)
C6 0.071(11) 0.068(10) 0.088(11) 0.012(9) 0.017(9) -0.022(9)
O1 0.099(10) 0.032(6) 0.079(9) -0.006(6) 0.045(7) -0.007(6)
C7 0.061(13) 0.116(16) 0.037(10) 0.035(11) 0.022(8) 0.014(11)
C8 0.067(14) 0.019(9) 0.075(12) 0.021(8) 0.015(9) -0.018(9)
C9 0.074(14) 0.035(11) 0.088(13) 0.000(9) 0.052(10) 0.028(10)
C10 0.054(13) 0.017(9) 0.079(12) 0.003(7) 0.024(9) 0.004(7)
C11 0.055(14) 0.048(10) 0.069(12) 0.010(9) 0.023(9) -0.012(10)
N1 0.075(11) 0.063(10) 0.067(10) -0.004(7) 0.030(8) 0.039(9)
C12 0.043(12) 0.039(10) 0.062(11) -0.007(8) 0.008(8) -0.019(8)
C13 0.018(9) 0.097(12) 0.108(12) 0.006(10) 0.013(9) -0.010(9)
C14 0.069(10) 0.034(8) 0.101(11) -0.007(8) 0.032(9) -0.015(7)
C15 0.080(11) 0.035(8) 0.098(11) 0.000(8) 0.023(9) -0.029(8)
C16 0.057(10) 0.020(7) 0.107(11) 0.001(8) 0.035(9) -0.011(7)
C17 0.062(10) 0.037(9) 0.084(11) 0.002(8) 0.036(8) -0.023(8)
C18 0.094(10) 0.034(8) 0.076(9) -0.009(7) 0.042(8) -0.007(8)
C19 0.088(11) 0.029(8) 0.093(11) -0.007(8) 0.042(9) 0.003(8)
O2 0.067(8) 0.036(6) 0.106(9) 0.004(6) 0.020(7) -0.016(6)
C20 0.088 0.062 0.092 -0.004 0.023 0.001
C21 0.057 0.031 0.068 0.006 0.027 -0.002
C22 0.039 0.041 0.063 0 0.021 -0.012
C23 0.079 0.049 0.056 0.008 0.008 0.007
N2 0.073 0.018 0.075 -0.011 0.015 0.014
C24 0.081 0.049 0.079 -0.001 0.03 0.012
C25 0.079(15) 0.020(9) 0.18(2) 0.005(10) 0.041(13) 0.002(9)
C26 0.127(14) 0.029(8) 0.080(11) -0.011(8) 0.057(10) 0.021(9)
C27 0.137(15) 0.081(11) 0.077(10) 0.007(9) 0.016(11) -0.013(11)
C28 0.149(14) 0.056(10) 0.082(10) -0.010(9) 0.020(11) -0.037(10)
C29 0.141(14) 0.057(9) 0.045(9) -0.024(8) 0.039(9) -0.010(10)
C30 0.142(15) 0.041(10) 0.072(10) -0.012(8) 0.024(11) -0.008(9)
C31 0.133(14) 0.037(9) 0.093(11) -0.008(8) 0.028(11) -0.008(10)
C32 0.133(14) 0.063(10) 0.105(12) 0.018(9) 0.018(11) 0.001(10)
O3 0.135 0.055 0.079 0 0.035 -0.017
C33 0.122 0.044 0.077 0.012 0.021 -0.018
C34 0.093 0.085 0.055 -0.012 0.029 -0.026
C35 0.1 0.075 0.089 0.002 0.028 0
C36 0.15 0.051 0.065 0.003 0.026 0.012
C37 0.17 0.07 0.12 -0.076 0.06 -0.054
N3 0.095 0.032 0.083 -0.022 0.031 -0.01
C38 0.07 0.043 0.126 -0.002 0.036 -0.027
C39 0.14(2) 0.087(15) 0.064(14) -0.011(11) 0.040(12) -0.034(14)
C40 0.14(2) 0.067(15) 0.12(2) 0.027(16) 0.014(17) 0.030(13)
C41 0.112(19) 0.042(12) 0.14(2) 0.016(12) 0.040(15) 0.013(12)
C42 0.044(13) 0.096(16) 0.127(19) 0.048(15) 0.022(12) -0.010(11)
C43 0.066(14) 0.101(17) 0.060(13) 0.025(13) 0.029(10) 0.006(12)
C44 0.072(17) 0.093(18) 0.18(3) 0.062(18) 0.033(16) -0.040(14)
C45 0.121(19) 0.033(11) 0.14(2) -0.021(13) 0.039(15) 0.001(12)
O4 0.087(10) 0.046(7) 0.118(11) 0.026(7) 0.025(8) -0.001(7)
C46 0.060(15) 0.15(2) 0.089(16) -0.019(14) 0.025(12) -0.020(14)
C47 0.060(14) 0.031(10) 0.101(16) -0.026(10) 0.031(11) -0.013(9)
C48 0.105(19) 0.045(11) 0.113(18) 0.020(11) 0.005(14) -0.009(12)
C49 0.046(14) 0.046(12) 0.19(3) -0.002(14) 0.021(14) -0.009(10)
C50 0.045(13) 0.062(13) 0.124(17) 0.022(12) -0.009(11) -0.005(11)
N4 0.045(10) 0.030(7) 0.108(13) -0.002(7) 0.022(8) 0.003(7)
C51 0.050(12) 0.087(14) 0.069(13) 0.034(11) 0.027(10) 0.006(10)
C52 0.064(14) 0.114(16) 0.072(13) 0.021(12) 0.031(10) 0.012(12)
C53 0.097(12) 0.038(9) 0.112(12) 0.002(8) 0.027(10) 0.018(9)
C54 0.090(12) 0.020(8) 0.119(12) 0.003(8) 0.010(10) 0.016(8)
C55 0.056(11) 0.050(9) 0.124(12) 0.027(9) 0.012(10) -0.002(8)
C56 0.055(11) 0.042(9) 0.101(11) 0.011(8) 0.016(9) 0.004(8)
C57 0.045(10) 0.029(8) 0.093(10) 0.027(7) 0.020(8) 0.012(7)
C58 0.111(12) 0.052(9) 0.089(11) 0.012(9) 0.028(10) -0.010(9)
O5 0.043(7) 0.029(6) 0.099(8) 0.019(6) 0.035(6) -0.010(5)
C59 0.075(15) 0.064(13) 0.097(15) -0.029(12) 0.023(11) -0.018(10)
C60 0.045(12) 0.048(14) 0.107(18) 0.033(12) 0.038(11) -0.010(8)
C61 0.085(16) 0.033(12) 0.108(18) 0.023(12) 0.031(12) -0.016(9)
C62 0.058(12) 0.051(12) 0.067(12) 0.008(10) 0.021(9) 0.000(9)
C63 0.070(15) 0.074(15) 0.105(18) 0.014(14) 0.030(12) 0.021(10)
N5 0.021(8) 0.028(8) 0.095(12) -0.001(7) 0.018(7) -0.010(5)
C64 0.043(12) 0.020(10) 0.144(17) -0.019(11) 0.058(10) -0.009(7)
C65 0.14(2) 0.064(13) 0.093(16) -0.010(11) 0.044(14) 0.040(13)
C66 0.080(11) 0.059(10) 0.119(13) 0.006(9) 0.036(11) 0.011(9)
C67 0.070(11) 0.066(10) 0.136(13) -0.022(10) 0.047(10) 0.011(9)
C68 0.072(11) 0.058(9) 0.109(12) -0.027(9) 0.053(9) -0.033(9)
C69 0.070(11) 0.084(11) 0.102(12) 0.001(10) 0.054(10) -0.007(9)
C70 0.082(11) 0.069(10) 0.079(11) -0.010(9) 0.040(9) -0.011(9)
C71 0.071(11) 0.056(10) 0.132(13) -0.003(9) 0.023(10) 0.011(9)
O6 0.042(8) 0.073(8) 0.100(9) -0.014(7) 0.043(6) -0.010(6)
C72 0.101(19) 0.082(15) 0.109(17) -0.061(13) 0.001(13) 0.035(13)
C73 0.047(10) 0.091(11) 0.098(12) -0.009(10) 0.041(9) -0.013(9)
C74 0.056(10) 0.076(10) 0.088(11) 0.003(9) 0.018(9) -0.017(9)
C75 0.057(10) 0.071(10) 0.087(11) 0.017(9) 0.030(9) -0.003(8)
C76 0.049(10) 0.060(9) 0.096(11) 0.019(9) 0.040(9) -0.007(8)
N6 0.043(8) 0.060(8) 0.094(9) 0.001(7) 0.026(7) -0.009(6)
C77 0.049(9) 0.050(9) 0.095(11) 0.000(8) 0.027(9) 0.002(7)
C78 0.060(14) 0.061(11) 0.118(16) -0.040(11) 0.025(11) -0.032(10)
C79 0.13(2) 0.070(13) 0.071(14) 0.025(10) 0.045(13) -0.001(15)
C80 0.086(16) 0.050(11) 0.133(18) 0.064(12) 0.048(13) 0.046(11)
C81 0.028(13) 0.119(19) 0.15(2) -0.026(16) 0.004(12) -0.017(12)
C82 0.097(19) 0.115(18) 0.041(11) 0.009(11) 0.036(11) -0.021(15)
C83 0.12(2) 0.042(11) 0.102(15) 0.009(10) 0.086(14) 0.004(11)
C84 0.15(2) 0.026(11) 0.113(17) 0.022(10) 0.041(15) 0.011(11)
O7 0.126(12) 0.056(8) 0.075(9) 0.014(7) 0.037(8) 0.008(7)
C85 0.056(15) 0.076(14) 0.108(16) 0.017(12) 0.025(12) -0.011(11)
C86 0.051(14) 0.041(11) 0.15(2) 0.013(12) 0.045(14) -0.006(10)
C87 0.16(2) 0.039(11) 0.080(15) 0.007(11) 0.034(15) -0.008(14)
C88 0.100(19) 0.075(16) 0.100(17) -0.001(13) 0.045(15) 0.002(14)
C89 0.074(14) 0.055(12) 0.099(16) -0.013(11) 0.061(12) -0.034(11)
N7 0.080(13) 0.051(9) 0.061(10) 0.014(8) 0.041(9) -0.003(9)
C90 0.069(16) 0.083(15) 0.084(15) 0.003(11) 0.010(12) -0.008(12)
C91 0.045(13) 0.084(14) 0.128(18) -0.002(12) 0.033(11) 0.005(10)
C92 0.044(7) 0.040(7) 0.157(11) 0.026(7) 0.037(8) 0.004(6)
C93 0.043(7) 0.051(7) 0.159(11) 0.030(7) 0.043(8) 0.005(6)
C94 0.037(7) 0.061(7) 0.153(11) 0.023(7) 0.046(8) 0.018(7)
C95 0.035(7) 0.059(8) 0.154(11) 0.024(7) 0.041(8) 0.011(7)
C96 0.033(7) 0.041(7) 0.151(11) 0.014(7) 0.030(8) 0.012(6)
C97 0.044(7) 0.036(7) 0.156(11) 0.017(7) 0.032(8) 0.005(6)
O8 0.059(8) 0.048(7) 0.115(10) 0.015(6) 0.041(7) 0.020(6)
C98 0.044(13) 0.052(11) 0.138(18) 0.007(11) 0.030(12) -0.002(9)
C99 0.067 0.058 0.093 0.007 0.018 0.006
C100 0.053 0.064 0.105 0.005 0.014 -0.01
C101 0.047 0.03 0.077 0.003 0.017 -0.009
C102 0.075 0.051 0.077 0 0.026 0.009
N8 0.101 0.041 0.065 -0.003 0.002 0.023
C103 0.072 0.033 0.068 0.001 0.017 0.011
C104 0.023(11) 0.083(12) 0.108(15) 0.010(11) 0.003(9) -0.003(9)
O9 0.056(8) 0.028(6) 0.145(11) 0.000(6) 0.027(7) 0.013(5)
O10 0.073(10) 0.064(8) 0.150(12) -0.021(8) 0.029(8) -0.002(7)
O11 0.051(8) 0.051(6) 0.108(9) 0.009(6) 0.045(6) 0.004(5)
Zn1 0.0807(18) 0.0306(11) 0.0880(17) -0.0063(10) 0.0357(12) 0.0034(10)
Zn2 0.0443(14) 0.0336(11) 0.1072(18) 0.0070(10) 0.0280(11) 0.0003(9)
N9 0.055(13) 0.047(9) 0.144(15) 0.010(9) 0.056(12) 0.019(8)
C105 0.09(2) 0.15(3) 0.16(3) -0.03(2) 0.09(2) -0.03(2)
C106 0.11(2) 0.092(18) 0.25(3) 0.002(19) 0.10(2) -0.002(16)
N2A 0.073 0.018 0.075 0.011 0.015 -0.014
N3G 0.095 0.032 0.083 0.022 0.031 0.01
N8D 0.101 0.041 0.065 -0.003 0.002 0.023
Zn1A 0.0807 0.0306 0.088 0.0063 0.0357 -0.0034
Zn1G 0.0807 0.0306 0.088 0.0063 0.0357 -0.0034
Zn2D 0.0443 0.0336 0.1072 0.007 0.028 0.0003
loop_
_geom_bond_atom_site_label_1
_geom_bond_atom_site_label_2
_geom_bond_site_symmetry_1
_geom_bond_site_symmetry_2
C1 H1 1_555 1_555
C2 C1 1_555 1_555
H2 C2 1_555 1_555
C3 C2 1_555 1_555
C4 C3 1_555 1_555
C5 C4 1_555 1_555
C6 C1 1_555 1_555
H3 C6 1_555 1_555
O1 C4 1_555 1_555
C7 O1 1_555 1_555
H4 C7 1_555 1_555
H5 C7 1_555 1_555
C8 C7 1_555 1_555
C9 C8 1_555 1_555
H6 C9 1_555 1_555
C10 C9 1_555 1_555
H7 C10 1_555 1_555
C11 C10 1_555 1_555
H8 C11 1_555 1_555
N1 C11 1_555 1_555
C12 C8 1_555 1_555
H9 C12 1_555 1_555
C13 C5 1_555 1_555
H10 C13 1_555 1_555
H11 C13 1_555 1_555
C14 H12 1_555 1_555
C15 C14 1_555 1_555
H13 C15 1_555 1_555
C16 C13 1_555 1_555
C17 C16 1_555 1_555
C18 C17 1_555 1_555
C19 C14 1_555 1_555
H14 C19 1_555 1_555
O2 C17 1_555 1_555
C20 H15 1_555 1_555
C21 C20 1_555 1_555
H16 C21 1_555 1_555
C22 C21 1_555 1_555
C23 C22 1_555 1_555
H17 C23 1_555 1_555
N2 C23 1_555 1_555
C24 C20 1_555 1_555
H18 C24 1_555 1_555
C25 O2 1_555 1_555
H19 C25 1_555 1_555
H20 C25 1_555 1_555
C26 C18 1_555 1_555
H21 C26 1_555 1_555
H22 C26 1_555 1_555
C27 H23 1_555 1_555
C28 C27 1_555 1_555
H24 C28 1_555 1_555
C29 C26 1_555 1_555
C30 C29 1_555 1_555
C31 C30 1_555 1_555
C32 C27 1_555 1_555
H25 C32 1_555 1_555
O3 C30 1_555 1_555
C33 O3 1_555 1_555
H26 C33 1_555 1_555
H27 C33 1_555 1_555
C34 C33 1_555 1_555
C35 C34 1_555 1_555
H28 C35 1_555 1_555
C36 C35 1_555 1_555
H29 C36 1_555 1_555
C37 C36 1_555 1_555
H30 C37 1_555 1_555
N3 C37 1_555 1_555
C38 C34 1_555 1_555
H31 C38 1_555 1_555
C39 C31 1_555 1_555
H32 C39 1_555 1_555
H33 C39 1_555 1_555
C40 H34 1_555 1_555
C41 C40 1_555 1_555
H35 C41 1_555 1_555
C42 C39 1_555 1_555
C43 C42 1_555 1_555
C44 C43 1_555 1_555
C45 C40 1_555 1_555
H36 C45 1_555 1_555
O4 C43 1_555 1_555
C46 O4 1_555 1_555
H37 C46 1_555 1_555
H38 C46 1_555 1_555
C47 C46 1_555 1_555
C48 C47 1_555 1_555
H39 C48 1_555 1_555
C49 C48 1_555 1_555
H40 C49 1_555 1_555
C50 C49 1_555 1_555
H41 C50 1_555 1_555
N4 C50 1_555 1_555
C51 C47 1_555 1_555
H42 C51 1_555 1_555
C52 C3 1_555 1_555
H43 C52 1_555 1_555
H44 C52 1_555 1_555
C53 H45 1_555 1_555
C54 C53 1_555 1_555
H46 C54 1_555 1_555
C55 C54 1_555 1_555
C56 C55 1_555 1_555
C57 C56 1_555 1_555
C58 C53 1_555 1_555
H47 C58 1_555 1_555
O5 C56 1_555 1_555
C59 O5 1_555 1_555
H48 C59 1_555 1_555
H49 C59 1_555 1_555
C60 C59 1_555 1_555
C61 C60 1_555 1_555
H50 C61 1_555 1_555
C62 C61 1_555 1_555
H51 C62 1_555 1_555
C63 C62 1_555 1_555
H52 C63 1_555 1_555
N5 C63 1_555 1_555
C64 C60 1_555 1_555
H53 C64 1_555 1_555
C65 C57 1_555 1_555
H54 C65 1_555 1_555
H55 C65 1_555 1_555
C66 H56 1_555 1_555
C67 C66 1_555 1_555
H57 C67 1_555 1_555
C68 C65 1_555 1_555
C69 C68 1_555 1_555
C70 C69 1_555 1_555
C71 C66 1_555 1_555
H58 C71 1_555 1_555
O6 C69 1_555 1_555
C72 O6 1_555 1_555
H59 C72 1_555 1_555
H60 C72 1_555 1_555
C73 C72 1_555 1_555
C74 C73 1_555 1_555
H61 C74 1_555 1_555
C75 C74 1_555 1_555
H62 C75 1_555 1_555
C76 C75 1_555 1_555
H63 C76 1_555 1_555
N6 C76 1_555 1_555
C77 C73 1_555 1_555
H64 C77 1_555 1_555
C78 C70 1_555 1_555
H65 C78 1_555 1_555
H66 C78 1_555 1_555
C79 H67 1_555 1_555
C80 C79 1_555 1_555
H68 C80 1_555 1_555
C81 C78 1_555 1_555
C82 C81 1_555 1_555
C83 C82 1_555 1_555
C84 C79 1_555 1_555
H69 C84 1_555 1_555
O7 C82 1_555 1_555
C85 O7 1_555 1_555
H70 C85 1_555 1_555
H71 C85 1_555 1_555
C86 C85 1_555 1_555
C87 C86 1_555 1_555
H72 C87 1_555 1_555
C88 C87 1_555 1_555
H73 C88 1_555 1_555
C89 C88 1_555 1_555
H74 C89 1_555 1_555
N7 C89 1_555 1_555
C90 C86 1_555 1_555
H75 C90 1_555 1_555
C91 C83 1_555 1_555
H76 C91 1_555 1_555
H77 C91 1_555 1_555
C92 H78 1_555 1_555
C93 C92 1_555 1_555
H79 C93 1_555 1_555
C94 C91 1_555 1_555
C95 C94 1_555 1_555
C96 C95 1_555 1_555
C97 C92 1_555 1_555
H80 C97 1_555 1_555
O8 C95 1_555 1_555
C98 O8 1_555 1_555
C99 C100 1_555 1_555
C100 H81 1_555 1_555
C101 C98 1_555 1_555
C102 C101 1_555 1_555
H82 C102 1_555 1_555
N8 C102 1_555 1_555
C103 C99 1_555 1_555
H83 C103 1_555 1_555
C104 C55 1_555 1_555
H84 C104 1_555 1_555
H85 C104 1_555 1_555
O9 Zn1 1_555 1_555
O10 Zn2 1_555 1_555
O11 Zn2 1_555 1_555
Zn1 N6 1_555 1_555
Zn2 N1 1_555 1_555
N9 Zn1 1_555 1_555
C105 N9 1_555 1_555
C106 C105 1_555 1_555
H86 C106 1_555 1_555
H87 C106 1_555 1_555
H88 C106 1_555 1_555
O12 Cl1 1_555 1_555
O13 Cl1 1_555 1_555
O14 Cl1 1_555 1_555
O15 Cl1 1_555 1_555
O16 Cl2 1_555 1_555
O17 Cl2 1_555 1_555
O18 Cl2 1_555 1_555
O19 Cl2 1_555 1_555
C107 C108 1_555 1_555
C108 H89 1_555 1_555
H90 C108 1_555 1_555
H91 C108 1_555 1_555
N10 C107 1_555 1_555
N11 C110 1_555 1_555
C109 H92 1_555 1_555
H93 C109 1_555 1_555
H94 C109 1_555 1_555
C110 C109 1_555 1_555
N2A Zn1 1_555 1_555
N3G Zn1 1_555 1_555
N8D Zn2 1_555 1_555
Zn1A N2 1_555 1_555
Zn1G N3 1_555 1_555
Zn2D N8 1_555 1_555
C5 C6 1_555 1_555
N1 C12 1_555 1_555
C15 C16 1_555 1_555
C18 C19 1_555 1_555
C22 C25 1_555 1_555
N2 C24 1_555 1_555
C28 C29 1_555 1_555
C31 C32 1_555 1_555
N3 C38 1_555 1_555
C41 C42 1_555 1_555
C44 C45 1_555 1_555
C44 C52 1_555 1_555
N4 C51 1_555 1_555
N4 Zn2 1_555 1_555
C57 C58 1_555 1_555
N5 C64 1_555 1_555
N5 Zn2 1_555 1_555
C67 C68 1_555 1_555
C70 C71 1_555 1_555
N6 C77 1_555 1_555
C80 C81 1_555 1_555
C83 C84 1_555 1_555
N7 C90 1_555 1_555
N7 Zn1 1_555 1_555
C93 C94 1_555 1_555
C96 C97 1_555 1_555
C96 C104 1_555 1_555
C100 C101 1_555 1_555
N8 C103 1_555 1_555

#END
