
#######################################################################
#
#                 Cambridge Crystallographic Data Centre
#                                CCDC 
#
#######################################################################
#
# If this CIF has been generated from an entry in the Cambridge 
# Structural Database, then it will include bibliographic, chemical, 
# crystal, experimental, refinement or atomic coordinate data resulting 
# from the CCDC's data processing and validation procedures.
#
#######################################################################

data_AYOYEU
_chemical_formula_moiety         '(C82 H86 Co4 N16 O21)n'
_symmetry_cell_setting           triclinic
_symmetry_space_group_name_H-M   'P -1'
_symmetry_Int_Tables_number      2
_space_group_name_Hall           '-P 1'
loop_
_symmetry_equiv_pos_site_id
_symmetry_equiv_pos_as_xyz
1 x,y,z
2 -x,-y,-z
_cell_length_a                   12.4970(14)
_cell_length_b                   12.5646(15)
_cell_length_c                   15.1697(15)
_cell_angle_alpha                75.523(4)
_cell_angle_beta                 77.748(4)
_cell_angle_gamma                85.439(4)
_cell_volume                     2252.9
loop_
_atom_site_label
_atom_site_type_symbol
_atom_site_fract_x
_atom_site_fract_y
_atom_site_fract_z
C1 C 0.5460(4) 0.5272(3) 0.7843(3)
C2 C 0.5660(4) 0.5303(4) 0.8769(3)
H1 H 0.6315 0.5577 0.8805
C3 C 0.4926(4) 0.4949(4) 0.9549(3)
H2 H 0.4297 0.4626 0.9516
C4 C 0.4424(3) 0.7728(3) 0.6158(3)
H3 H 0.5167 0.7835 0.6095
C5 C 0.3703(3) 0.8634(3) 0.6163(3)
C6 C 0.2597(4) 0.8466(4) 0.6242(4)
H4 H 0.2093 0.9053 0.6232
C7 C 0.2257(4) 0.7422(4) 0.6334(4)
H5 H 0.1520 0.7294 0.6392
C8 C 0.3023(4) 0.6565(4) 0.6339(4)
H6 H 0.2785 0.5860 0.6414
C9 C 0.4090(3) 0.9740(3) 0.6108(3)
C10 C 0.6349(4) 1.0862(3) 0.6371(3)
C11 C 0.7143(4) 0.9903(4) 0.6502(4)
H7 H 0.7824 1.0146 0.6569
H8 H 0.6847 0.9358 0.7049
H9 H 0.7266 0.9591 0.5971
C12 C 0.7399(4) 1.4032(4) 0.6216(4)
H10 H 0.7633 1.4733 0.6164
C13 C 0.7826(4) 1.2128(4) 0.6317(4)
H11 H 0.8329 1.1540 0.6346
C14 C 0.6732(4) 1.1961(3) 0.6338(3)
C15 C 0.6019(3) 1.2876(3) 0.6313(3)
H12 H 0.5283 1.2775 0.6340
C16 C -0.1166(4) 0.2261(4) 1.1255(3)
H13 H -0.0467 0.2493 1.1220
C17 C -0.2027(4) 0.3024(4) 1.1281(4)
H14 H -0.1909 0.3752 1.1261
C18 C -0.3068(4) 0.2675(4) 1.1338(4)
H15 H -0.3662 0.3170 1.1365
C19 C -0.3229(4) 0.1584(4) 1.1354(3)
C20 C -0.2303(3) 0.0879(4) 1.1326(3)
H16 H -0.2395 0.0147 1.1343
C21 C -0.4331(4) 0.1192(4) 1.1389(3)
C22 C -0.5303(4) 0.1940(4) 1.1572(4)
H17 H -0.5065 0.2609 1.1656
H18 H -0.5666 0.2104 1.1053
H19 H -0.5801 0.1586 1.2123
C23 C -0.5461(3) -0.1052(4) 1.1137(3)
C24 C -0.4490(4) -0.1798(4) 1.0938(5)
H20 H -0.4731 -0.2466 1.0855
H21 H -0.4001 -0.1440 1.0383
H22 H -0.4116 -0.1965 1.1450
C25 C -0.7474(3) -0.0718(3) 1.1172(3)
H23 H -0.7371 0.0017 1.1140
C26 C -0.6563(4) -0.1429(4) 1.1169(3)
C27 C -0.6728(4) -0.2525(4) 1.1193(4)
H24 H -0.6141 -0.3029 1.1183
C28 C -0.7770(4) -0.2852(4) 1.1233(4)
H25 H -0.7892 -0.3577 1.1245
C29 C -0.8634(4) -0.2087(4) 1.1254(4)
H26 H -0.9335 -0.2317 1.1293
C30 C 0.1815(3) 0.2359(3) 0.8921(3)
H27 H 0.2171 0.2840 0.9132
C31 C 0.1914(3) 0.2472(3) 0.8013(3)
H28 H 0.1484 0.2038 0.7821
C32 C 0.2644(3) 0.3224(3) 0.7298(3)
H29 H 0.3058 0.3693 0.7470
C33 C 0.2733(3) 0.3255(3) 0.6405(3)
H30 H 0.2255 0.2848 0.6237
C34 C 0.3570(3) 0.3918(3) 0.5658(3)
C35 C 0.3356(4) 1.0717(4) 0.5858(4)
H31 H 0.2691 1.0482 0.5752
H32 H 0.3187 1.1085 0.6356
H33 H 0.3718 1.1213 0.5303
C36 C -0.0134(3) -0.0229(4) 1.3013(3)
C37 C -0.0295(4) -0.0501(4) 1.4044(3)
H34 H -0.0656 -0.1140 1.4383
C38 C 0.0055(3) 0.0129(4) 1.4501(3)
H35 H 0.0392 0.0779 1.4158
C39 C 0.1142(3) 0.1473(3) 0.9608(3)
N1 N 0.4096(3) 0.6712(3) 0.6241(2)
N2 N 0.6334(3) 1.3895(3) 0.6250(2)
N3 N -0.8495(3) -0.1026(3) 1.1219(2)
N4 N -0.1288(3) 0.1205(3) 1.1278(2)
N5 N 0.5361(3) 1.0822(3) 0.6261(3)
N6 N 0.5047(3) 0.9761(3) 0.6294(3)
N7 N -0.5423(3) -0.0095(3) 1.1282(3)
N8 N -0.4362(3) 0.0224(3) 1.1246(3)
O1 O 0.6090(3) 0.5832(3) 0.7135(2)
O2 O 0.4701(3) 0.4736(3) 0.7764(2)
O3 O 0.4116(3) 0.4578(3) 0.5861(2)
O4 O 0.3672(2) 0.3774(2) 0.4853(2)
O5 O 0.0423(3) 0.0578(3) 1.2513(2)
O6 O -0.0550(3) -0.0850(3) 1.2646(2)
O7 O 0.1124(2) 0.1377(3) 1.0461(2)
O8 O 0.0624(3) 0.0853(3) 0.9336(2)
Co1 Co 0.52394(4) 0.53148(4) 0.62335(4)
Co2 Co 0.01125(4) 0.00965(4) 1.12617(4)
C40 C 0.8163(4) 1.3169(4) 0.6254(5)
H36 H 0.8892 1.3289 0.6237
C1A C 0.4540(4) 0.4728(3) 1.2157(3)
C2A C 0.4340(4) 0.4697(4) 1.1231(3)
H1A H 0.3685 0.4423 1.1195
C3A C 0.5074(4) 0.5051(4) 1.0451(3)
H2A H 0.5703 0.5374 1.0484
O1A O 0.3910(3) 0.4168(3) 1.2865(2)
O2A O 0.5299(3) 0.5264(3) 1.2236(2)
C36A C 0.0134(3) 0.0229(4) 1.6987(3)
C37A C 0.0295(4) 0.0501(4) 1.5956(3)
H34A H 0.0656 0.1140 1.5617
C38A C -0.0055(3) -0.0129(4) 1.5499(3)
H35A H -0.0392 -0.0779 1.5842
O5A O -0.0423(3) -0.0578(3) 1.7487(2)
O6A O 0.0550(3) 0.0850(3) 1.7354(2)
C4A C -0.4424(3) -0.7728(3) 1.3842(3)
H3A H -0.5167 -0.7835 1.3905
C5A C -0.3703(3) -0.8634(3) 1.3837(3)
C6A C -0.2597(4) -0.8466(4) 1.3758(4)
H4A H -0.2093 -0.9053 1.3768
C7A C -0.2257(4) -0.7422(4) 1.3666(4)
H5A H -0.1520 -0.7294 1.3608
C8A C -0.3023(4) -0.6565(4) 1.3661(4)
H6A H -0.2785 -0.5860 1.3586
C9A C -0.4090(3) -0.9740(3) 1.3892(3)
C10A C -0.6349(4) -1.0862(3) 1.3629(3)
C11A C -0.7143(4) -0.9903(4) 1.3498(4)
H7A H -0.7824 -1.0146 1.3431
H8A H -0.6847 -0.9358 1.2951
H9A H -0.7266 -0.9591 1.4029
C12A C -0.7399(4) -1.4032(4) 1.3784(4)
H10A H -0.7633 -1.4733 1.3836
C13A C -0.7826(4) -1.2128(4) 1.3683(4)
H11A H -0.8329 -1.1540 1.3654
C14A C -0.6732(4) -1.1961(3) 1.3662(3)
C15A C -0.6019(3) -1.2876(3) 1.3687(3)
H12A H -0.5283 -1.2775 1.3660
C16A C 0.1166(4) -0.2261(4) 0.8745(3)
H13A H 0.0467 -0.2493 0.8780
C17A C 0.2027(4) -0.3024(4) 0.8719(4)
H14A H 0.1909 -0.3752 0.8739
C18A C 0.3068(4) -0.2675(4) 0.8662(4)
H15A H 0.3662 -0.3170 0.8635
C19A C 0.3229(4) -0.1584(4) 0.8646(3)
C20A C 0.2303(3) -0.0879(4) 0.8674(3)
H16A H 0.2395 -0.0147 0.8657
C21A C 0.4331(4) -0.1192(4) 0.8611(3)
C22A C 0.5303(4) -0.1940(4) 0.8428(4)
H17A H 0.5065 -0.2609 0.8344
H18A H 0.5666 -0.2104 0.8947
H19A H 0.5801 -0.1586 0.7877
C23A C 0.5461(3) 0.1052(4) 0.8863(3)
C24A C 0.4490(4) 0.1798(4) 0.9062(5)
H20A H 0.4731 0.2466 0.9145
H21A H 0.4001 0.1440 0.9617
H22A H 0.4116 0.1965 0.8550
C25A C 0.7474(3) 0.0718(3) 0.8828(3)
H23A H 0.7371 -0.0017 0.8860
C26A C 0.6563(4) 0.1429(4) 0.8831(3)
C27A C 0.6728(4) 0.2525(4) 0.8807(4)
H24A H 0.6141 0.3029 0.8817
C28A C 0.7770(4) 0.2852(4) 0.8767(4)
H25A H 0.7892 0.3577 0.8755
C29A C 0.8634(4) 0.2087(4) 0.8746(4)
H26A H 0.9335 0.2317 0.8707
C30A C -0.1815(3) -0.2359(3) 1.1079(3)
H27A H -0.2171 -0.2840 1.0868
C31A C -0.1914(3) -0.2472(3) 1.1987(3)
H28A H -0.1484 -0.2038 1.2179
C32A C -0.2644(3) -0.3224(3) 1.2702(3)
H29A H -0.3058 -0.3693 1.2530
C33A C -0.2733(3) -0.3255(3) 1.3595(3)
H30A H -0.2255 -0.2848 1.3763
C34A C -0.3570(3) -0.3918(3) 1.4342(3)
C35A C -0.3356(4) -1.0717(4) 1.4142(4)
H31A H -0.2691 -1.0482 1.4248
H32A H -0.3187 -1.1085 1.3644
H33A H -0.3718 -1.1213 1.4697
C39A C -0.1142(3) -0.1473(3) 1.0392(3)
N1A N -0.4096(3) -0.6712(3) 1.3759(2)
N2A N -0.6334(3) -1.3895(3) 1.3750(2)
N3A N 0.8495(3) 0.1026(3) 0.8781(2)
N4A N 0.1288(3) -0.1205(3) 0.8722(2)
N5A N -0.5361(3) -1.0822(3) 1.3739(3)
N6A N -0.5047(3) -0.9761(3) 1.3706(3)
N7A N 0.5423(3) 0.0095(3) 0.8718(3)
N8A N 0.4362(3) -0.0224(3) 0.8754(3)
O3A O -0.4116(3) -0.4578(3) 1.4139(2)
O4A O -0.3672(2) -0.3774(2) 1.5147(2)
O7A O -0.1124(2) -0.1377(3) 0.9539(2)
O8A O -0.0624(3) -0.0853(3) 1.0664(2)
Co1A Co -0.52394(4) -0.53148(4) 1.37665(4)
Co2A Co -0.01125(4) -0.00965(4) 0.87383(4)
C40A C -0.8163(4) -1.3169(4) 1.3746(5)
H36A H -0.8892 -1.3289 1.3763
N2_2 N 0.6334(3) 0.3895(3) 0.6250(2)
N2A_2 N -0.6334(3) -0.3895(3) 1.3750(2)
N3_2 N 0.1505(3) -0.1026(3) 1.1219(2)
N3A_2 N -0.1505(3) 0.1026(3) 0.8781(2)
O1A_2 O -0.6090(3) -0.5832(3) 1.2865(2)
O2A_2 O -0.4701(3) -0.4736(3) 1.2236(2)
O4_2 O -0.6328(2) -0.6226(2) 1.4853(2)
O4A_2 O 0.6328(2) 0.6226(2) 0.5147(2)
O5A_2 O -0.0423(3) -0.0578(3) 0.7487(2)
O6A_2 O 0.0550(3) 0.0850(3) 0.7354(2)
Co1_2 Co -0.47606(4) -0.46852(4) 1.62335(4)
Co1_3 Co 0.52394(4) 1.53148(4) 0.62335(4)
Co1A_2 Co -0.52394(4) -1.53148(4) 1.37665(4)
Co1A_3 Co 0.47606(4) 0.46852(4) 0.37665(4)
Co1A_4 Co 0.47606(4) 0.46852(4) 1.37665(4)
Co2_2 Co -0.98875(4) 0.00965(4) 1.12617(4)
Co2A_2 Co -0.01125(4) -0.00965(4) 1.87383(4)
Co2A_3 Co 0.98875(4) -0.00965(4) 0.87383(4)
C41 C 0.0068(7) 0.5113(7) 0.2906(8)
H37 H -0.0244 0.5840 0.2693
H38 H 0.0859 0.5165 0.2780
C42 C -0.0375(12) 0.4670(10) 0.3991(8)
H39 H -0.0177 0.5164 0.4317
H40 H -0.1158 0.4627 0.4112
H41 H -0.0058 0.3954 0.4198
O9 O -0.0223(7) 0.4393(7) 0.2438(6)
H42 H 0.0004 0.4618 0.1878
O10 O 0.0672(9) 0.4926(9) 0.0632(8)
H43 H 0.0338 0.4677 0.0296
H44 H 0.0208 0.5124 0.1063
O11 O 0.8152(9) 0.7299(10) 0.5503(7)
O13 O 0.7852(5) 0.6904(5) 0.9107(3)
H45 H 0.8121 0.7071 0.8528
H46 H 0.8240 0.7169 0.9393
O14 O 0.8891(6) 0.7478(5) 0.7232(3)
H47 H 0.8594 0.7233 0.6871
H48 H 0.8817 0.8175 0.7113
loop_
_geom_bond_atom_site_label_1
_geom_bond_atom_site_label_2
_geom_bond_site_symmetry_1
_geom_bond_site_symmetry_2
C1 C2 1_555 1_555
C2 H1 1_555 1_555
C3 C2 1_555 1_555
H2 C3 1_555 1_555
C4 H3 1_555 1_555
C5 C4 1_555 1_555
C6 C5 1_555 1_555
H4 C6 1_555 1_555
C7 C6 1_555 1_555
H5 C7 1_555 1_555
C8 C7 1_555 1_555
H6 C8 1_555 1_555
C9 C5 1_555 1_555
C10 C11 1_555 1_555
C11 H7 1_555 1_555
H8 C11 1_555 1_555
H9 C11 1_555 1_555
C12 H10 1_555 1_555
C13 H11 1_555 1_555
C14 C10 1_555 1_555
C15 C14 1_555 1_555
H12 C15 1_555 1_555
C16 H13 1_555 1_555
C17 C16 1_555 1_555
H14 C17 1_555 1_555
C18 C17 1_555 1_555
H15 C18 1_555 1_555
C19 C18 1_555 1_555
C20 C19 1_555 1_555
H16 C20 1_555 1_555
C21 C19 1_555 1_555
C22 C21 1_555 1_555
H17 C22 1_555 1_555
H18 C22 1_555 1_555
H19 C22 1_555 1_555
C23 C24 1_555 1_555
C24 H20 1_555 1_555
H21 C24 1_555 1_555
H22 C24 1_555 1_555
C25 H23 1_555 1_555
C26 C23 1_555 1_555
C27 C26 1_555 1_555
H24 C27 1_555 1_555
C28 C27 1_555 1_555
H25 C28 1_555 1_555
C29 C28 1_555 1_555
H26 C29 1_555 1_555
C30 H27 1_555 1_555
C31 C30 1_555 1_555
H28 C31 1_555 1_555
C32 C31 1_555 1_555
H29 C32 1_555 1_555
C33 C32 1_555 1_555
H30 C33 1_555 1_555
C34 C33 1_555 1_555
C35 C9 1_555 1_555
H31 C35 1_555 1_555
H32 C35 1_555 1_555
H33 C35 1_555 1_555
C36 C37 1_555 1_555
C37 H34 1_555 1_555
C38 C37 1_555 1_555
H35 C38 1_555 1_555
C39 C30 1_555 1_555
N1 C4 1_555 1_555
N2 C12 1_555 1_555
N3 C25 1_555 1_555
N4 C16 1_555 1_555
N5 C10 1_555 1_555
N6 C9 1_555 1_555
N7 C23 1_555 1_555
N8 C21 1_555 1_555
O1 C1 1_555 1_555
O2 C1 1_555 1_555
O3 C34 1_555 1_555
O4 C34 1_555 1_555
O5 C36 1_555 1_555
O6 C36 1_555 1_555
O7 C39 1_555 1_555
O8 C39 1_555 1_555
Co1 N1 1_555 1_555
Co2 N4 1_555 1_555
C40 C12 1_555 1_555
H36 C40 1_555 1_555
C41 H37 1_555 1_555
H38 C41 1_555 1_555
C42 C41 1_555 1_555
H39 C42 1_555 1_555
H40 C42 1_555 1_555
H41 C42 1_555 1_555
O9 C41 1_555 1_555
H42 O9 1_555 1_555
O10 H43 1_555 1_555
H44 O10 1_555 1_555
O13 H45 1_555 1_555
H46 O13 1_555 1_555
O14 H47 1_555 1_555
H48 O14 1_555 1_555
C1A C2A 1_555 1_555
C2A H1A 1_555 1_555
C3A C3 1_555 1_555
H2A C3A 1_555 1_555
O1A C1A 1_555 1_555
O2A C1A 1_555 1_555
C36A C37A 1_555 1_555
C37A H34A 1_555 1_555
C38A C38 1_555 1_555
H35A C38A 1_555 1_555
O5A C36A 1_555 1_555
O6A C36A 1_555 1_555
C4A H3A 1_555 1_555
C5A C4A 1_555 1_555
C6A C5A 1_555 1_555
H4A C6A 1_555 1_555
C7A C6A 1_555 1_555
H5A C7A 1_555 1_555
C8A C7A 1_555 1_555
H6A C8A 1_555 1_555
C9A C5A 1_555 1_555
C10A C11A 1_555 1_555
C11A H7A 1_555 1_555
H8A C11A 1_555 1_555
H9A C11A 1_555 1_555
C12A H10A 1_555 1_555
C13A H11A 1_555 1_555
C14A C10A 1_555 1_555
C15A C14A 1_555 1_555
H12A C15A 1_555 1_555
C16A H13A 1_555 1_555
C17A C16A 1_555 1_555
H14A C17A 1_555 1_555
C18A C17A 1_555 1_555
H15A C18A 1_555 1_555
C19A C18A 1_555 1_555
C20A C19A 1_555 1_555
H16A C20A 1_555 1_555
C21A C19A 1_555 1_555
C22A C21A 1_555 1_555
H17A C22A 1_555 1_555
H18A C22A 1_555 1_555
H19A C22A 1_555 1_555
C23A C24A 1_555 1_555
C24A H20A 1_555 1_555
H21A C24A 1_555 1_555
H22A C24A 1_555 1_555
C25A H23A 1_555 1_555
C26A C23A 1_555 1_555
C27A C26A 1_555 1_555
H24A C27A 1_555 1_555
C28A C27A 1_555 1_555
H25A C28A 1_555 1_555
C29A C28A 1_555 1_555
H26A C29A 1_555 1_555
C30A H27A 1_555 1_555
C31A C30A 1_555 1_555
H28A C31A 1_555 1_555
C32A C31A 1_555 1_555
H29A C32A 1_555 1_555
C33A C32A 1_555 1_555
H30A C33A 1_555 1_555
C34A C33A 1_555 1_555
C35A C9A 1_555 1_555
H31A C35A 1_555 1_555
H32A C35A 1_555 1_555
H33A C35A 1_555 1_555
C39A C30A 1_555 1_555
N1A C4A 1_555 1_555
N2A C12A 1_555 1_555
N3A C25A 1_555 1_555
N4A C16A 1_555 1_555
N5A C10A 1_555 1_555
N6A C9A 1_555 1_555
N7A C23A 1_555 1_555
N8A C21A 1_555 1_555
O3A C34A 1_555 1_555
O4A C34A 1_555 1_555
O7A C39A 1_555 1_555
O8A Co2 1_555 1_555
Co1A N1A 1_555 1_555
Co2A O8 1_555 1_555
C40A C12A 1_555 1_555
H36A C40A 1_555 1_555
N2_2 Co1 1_555 1_555
N2A_2 Co1A 1_555 1_555
N3_2 Co2 1_555 1_555
N3A_2 Co2A 1_555 1_555
O1A_2 Co1A 1_555 1_555
O2A_2 Co1A 1_555 1_555
O4_2 Co1A 1_555 1_555
O4A_2 Co1 1_555 1_555
O5A_2 Co2A 1_555 1_555
O6A_2 Co2A 1_555 1_555
Co1_2 O4A 1_555 1_555
Co1_3 N2 1_555 1_555
Co1A_2 N2A 1_555 1_555
Co1A_3 O4 1_555 1_555
Co1A_4 O1A 1_555 1_555
Co2_2 N3 1_555 1_555
Co2A_2 O5A 1_555 1_555
Co2A_3 N3A 1_555 1_555
C8 N1 1_555 1_555
C13 C14 1_555 1_555
C13 C40 1_555 1_555
C15 N2 1_555 1_555
C20 N4 1_555 1_555
C25 C26 1_555 1_555
C29 N3 1_555 1_555
N5 N6 1_555 1_555
N7 N8 1_555 1_555
O1 Co1 1_555 1_555
O2 Co1 1_555 1_555
O3 Co1 1_555 1_555
O5 Co2 1_555 1_555
O6 Co2 1_555 1_555
O7 Co2 1_555 1_555
C2A C3A 1_555 1_555
O2A Co1A_4 1_555 1_555
C37A C38A 1_555 1_555
O6A Co2A_2 1_555 1_555
C8A N1A 1_555 1_555
C13A C14A 1_555 1_555
C13A C40A 1_555 1_555
C15A N2A 1_555 1_555
C20A N4A 1_555 1_555
C25A C26A 1_555 1_555
C29A N3A 1_555 1_555
C39A O8A 1_555 1_555
N4A Co2A 1_555 1_555
N5A N6A 1_555 1_555
N7A N8A 1_555 1_555
O3A Co1A 1_555 1_555
O7A Co2A 1_555 1_555

#END
