
#######################################################################
#
#                 Cambridge Crystallographic Data Centre
#                                CCDC 
#
#######################################################################
#
# If this CIF has been generated from an entry in the Cambridge 
# Structural Database, then it will include bibliographic, chemical, 
# crystal, experimental, refinement or atomic coordinate data resulting 
# from the CCDC's data processing and validation procedures.
#
#######################################################################

data_BANMAG
_chemical_formula_moiety         '(C20 H34 Co3 Nd2 O32)n'
_symmetry_cell_setting           hexagonal
_symmetry_space_group_name_H-M   'P 6/m c c'
_symmetry_Int_Tables_number      192
_space_group_name_Hall           '-P 6 2c'
loop_
_symmetry_equiv_pos_site_id
_symmetry_equiv_pos_as_xyz
1 x,y,z
2 -y,x-y,z
3 -x+y,-x,z
4 -x,-y,z
5 y,-x+y,z
6 x-y,x,z
7 y,x,1/2-z
8 x-y,-y,1/2-z
9 -x,-x+y,1/2-z
10 -y,-x,1/2-z
11 -x+y,y,1/2-z
12 x,x-y,1/2-z
13 -x,-y,-z
14 y,-x+y,-z
15 x-y,x,-z
16 x,y,-z
17 -y,x-y,-z
18 -x+y,-x,-z
19 -y,-x,1/2+z
20 -x+y,y,1/2+z
21 x,x-y,1/2+z
22 y,x,1/2+z
23 x-y,-y,1/2+z
24 -x,-x+y,1/2+z
_cell_length_a                   15.0841(7)
_cell_length_b                   15.0841(7)
_cell_length_c                   15.4276(13)
_cell_angle_alpha                90
_cell_angle_beta                 90
_cell_angle_gamma                120
_cell_volume                     3039.96
loop_
_atom_site_label
_atom_site_type_symbol
_atom_site_fract_x
_atom_site_fract_y
_atom_site_fract_z
Nd1 Nd 0.6667 0.3333 0.2500
Co1 Co 0.5000 0.0000 0.0000
O1 O 0.6164(3) 0.1947(3) 0.1435(2)
O2 O 0.6118(3) 0.0533(3) 0.0942(3)
O3 O 0.76395(18) 0.23605(18) 0.2500
C1 C 0.6470(4) 0.1310(4) 0.1411(3)
C2 C 0.7348(5) 0.1497(5) 0.1987(5)
H1 H 0.7148 0.0906 0.2356
H2 H 0.7923 0.1595 0.1636
O4 O 0.5084(3) -0.1383(3) 0.0000
H3 H 0.4748 -0.1664 -0.0446
Nd1O Nd 0.6667 0.3333 -0.2500
Co1F Co 1.0000 0.5000 0.5000
Co1A Co 1.0000 0.5000 0.0000
Co1H Co 0.5000 0.5000 0.5000
Co1B Co 0.5000 0.5000 0.0000
Co1G Co 0.5000 0.0000 0.5000
Co1F_2 Co 1.0000 0.5000 -0.5000
Co1H_2 Co 0.5000 0.5000 -0.5000
O1I O 0.8053(3) 0.3836(3) 0.3565(2)
O1A O 0.8053(3) 0.4217(4) 0.1435(2)
O1K O 0.6164(3) 0.4217(4) 0.3565(2)
O1B O 0.5783(4) 0.3836(3) 0.1435(2)
O1J O 0.5783(4) 0.1947(3) 0.3565(2)
O1O O 0.6164(3) 0.1947(3) -0.1435(2)
O1R O 0.8053(3) 0.3836(3) -0.3565(2)
O1P O 0.8053(3) 0.4217(4) -0.1435(2)
O1T O 0.6164(3) 0.4217(4) -0.3565(2)
O1Q O 0.5783(4) 0.3836(3) -0.1435(2)
O1S O 0.5783(4) 0.1947(3) -0.3565(2)
O2I O 0.9467(3) 0.3882(3) 0.4058(3)
O2A O 0.9467(3) 0.5585(4) 0.0942(3)
O2K O 0.6118(3) 0.5585(4) 0.4058(3)
O2B O 0.4415(4) 0.3882(3) 0.0942(3)
O2J O 0.4415(4) 0.0533(3) 0.4058(3)
O2C O 0.3882(3) -0.0533(3) 0.0942(3)
O2L O 0.3882(3) -0.0533(3) -0.0942(3)
O2O O 0.6118(3) 0.0533(3) -0.0942(3)
O2R O 0.9467(3) 0.3882(3) -0.4058(3)
O2F O 1.0533(3) 0.6118(3) 0.4058(3)
O2U O 1.0533(3) 0.6118(3) 0.5942(3)
O2R_2 O 0.9467(3) 0.3882(3) 0.5942(3)
O2P O 0.9467(3) 0.5585(4) -0.0942(3)
O2T O 0.6118(3) 0.5585(4) -0.4058(3)
O2E O 0.5585(4) 0.6118(3) 0.0942(3)
O2N O 0.5585(4) 0.6118(3) -0.0942(3)
O2Q O 0.4415(4) 0.3882(3) -0.0942(3)
O3A O 0.76395(18) 0.52790(25) 0.2500
O3B O 0.47210(25) 0.23605(18) 0.2500
O3O O 0.76395(18) 0.23605(18) -0.2500
O3P O 0.76395(18) 0.52790(25) -0.2500
O3Q O 0.47210(25) 0.23605(18) -0.2500
C1I C 0.8690(4) 0.3530(4) 0.3589(3)
C1A C 0.8690(4) 0.5160(6) 0.1411(3)
C1K C 0.6470(4) 0.5160(6) 0.3589(3)
C1B C 0.4840(6) 0.3530(4) 0.1411(3)
C1J C 0.4840(6) 0.1310(4) 0.3589(3)
C1O C 0.6470(4) 0.1310(4) -0.1411(3)
C1R C 0.8690(4) 0.3530(4) -0.3589(3)
C1P C 0.8690(4) 0.5160(6) -0.1411(3)
C1T C 0.6470(4) 0.5160(6) -0.3589(3)
C2I C 0.8503(5) 0.2652(5) 0.3013(5)
C2A C 0.8503(5) 0.5851(7) 0.1987(5)
C2K C 0.7348(5) 0.5851(7) 0.3013(5)
C2B C 0.4149(7) 0.2652(5) 0.1987(5)
C2J C 0.4149(7) 0.1497(5) 0.3013(5)
C2O C 0.7348(5) 0.1497(5) -0.1987(5)
C2R C 0.8503(5) 0.2652(5) -0.3013(5)
C2P C 0.8503(5) 0.5851(7) -0.1987(5)
C2T C 0.7348(5) 0.5851(7) -0.3013(5)
H1I H 0.9094 0.2852 0.2644
H1A H 0.9094 0.6242 0.2356
H1K H 0.7148 0.6242 0.2644
H1B H 0.3758 0.2852 0.2356
H1J H 0.3758 0.0906 0.2644
H1O H 0.7148 0.0906 -0.2356
H1R H 0.9094 0.2852 -0.2644
H1P H 0.9094 0.6242 -0.2356
H1T H 0.7148 0.6242 -0.2644
H2I H 0.8405 0.2077 0.3364
H2A H 0.8405 0.6328 0.1636
H2K H 0.7923 0.6328 0.3364
H2B H 0.3672 0.2077 0.1636
H2J H 0.3672 0.1595 0.3364
H2O H 0.7923 0.1595 -0.1636
H2R H 0.8405 0.2077 -0.3364
H2P H 0.8405 0.6328 -0.1636
H2T H 0.7923 0.6328 -0.3364
O4C O 0.4916(3) 0.1383(3) 0.0000
O4I O 1.1383(3) 0.4916(3) 0.5000
O4F O 0.8617(3) 0.5084(3) 0.5000
O4B O 0.3533(4) 0.4916(3) 0.0000
O4E O 0.6467(4) 0.5084(3) 0.0000
H3O H 0.4748 -0.1664 0.0446
H3C H 0.5252 0.1664 -0.0446
H3L H 0.5252 0.1664 0.0446
H3I H 1.1664 0.5252 0.5446
H3R H 1.1664 0.5252 0.4554
H3F H 0.8336 0.4748 0.5446
H3U H 0.8336 0.4748 0.4554
H3B H 0.3588 0.5252 -0.0446
H3Q H 0.3588 0.5252 0.0446
H3E H 0.6412 0.4748 -0.0446
H3N H 0.6412 0.4748 0.0446
O5 O 0.755(3) 0.965(3) 0.0000
H4 H 0.8036 1.0245 0.0000
H5 H 0.6993 0.9641 0.0000
loop_
_geom_bond_atom_site_label_1
_geom_bond_atom_site_label_2
_geom_bond_site_symmetry_1
_geom_bond_site_symmetry_2
Nd1 O1 1_555 1_555
Co1 O2 1_555 1_555
O1 C1 1_555 1_555
O2 C1 1_555 1_555
O3 Nd1 1_555 1_555
C1 C2 1_555 1_555
C2 O3 1_555 1_555
H1 C2 1_555 1_555
H2 C2 1_555 1_555
O4 Co1 1_555 1_555
H3 O4 1_555 1_555
O5 H4 1_555 1_555
H5 O5 1_555 1_555
Nd1O O1O 1_555 1_555
Co1F O2I 1_555 1_555
Co1A O2A 1_555 1_555
Co1H O2K 1_555 1_555
Co1B O2B 1_555 1_555
Co1G O2J 1_555 1_555
Co1F_2 O2R 1_555 1_555
Co1H_2 O2T 1_555 1_555
O1I Nd1 1_555 1_555
O1A Nd1 1_555 1_555
O1K Nd1 1_555 1_555
O1B Nd1 1_555 1_555
O1J Nd1 1_555 1_555
O1O C1O 1_555 1_555
O1R Nd1O 1_555 1_555
O1P Nd1O 1_555 1_555
O1T Nd1O 1_555 1_555
O1Q Nd1O 1_555 1_555
O1S Nd1O 1_555 1_555
O2I C1I 1_555 1_555
O2A C1A 1_555 1_555
O2K C1K 1_555 1_555
O2B C1B 1_555 1_555
O2J C1J 1_555 1_555
O2C Co1 1_555 1_555
O2L Co1 1_555 1_555
O2O Co1 1_555 1_555
O2R C1R 1_555 1_555
O2F Co1F 1_555 1_555
O2U Co1F 1_555 1_555
O2R_2 Co1F 1_555 1_555
O2P Co1A 1_555 1_555
O2T C1T 1_555 1_555
O2E Co1B 1_555 1_555
O2N Co1B 1_555 1_555
O2Q Co1B 1_555 1_555
O3A Nd1 1_555 1_555
O3B Nd1 1_555 1_555
O3O Nd1O 1_555 1_555
O3P Nd1O 1_555 1_555
O3Q Nd1O 1_555 1_555
C1I O1I 1_555 1_555
C1A O1A 1_555 1_555
C1K O1K 1_555 1_555
C1B O1B 1_555 1_555
C1J O1J 1_555 1_555
C1O O2O 1_555 1_555
C1R O1R 1_555 1_555
C1P O1P 1_555 1_555
C1T O1T 1_555 1_555
C2I O3 1_555 1_555
C2A O3A 1_555 1_555
C2K O3A 1_555 1_555
C2B O3B 1_555 1_555
C2J O3B 1_555 1_555
C2O O3O 1_555 1_555
C2R O3O 1_555 1_555
C2P O3P 1_555 1_555
C2T O3P 1_555 1_555
H1I C2I 1_555 1_555
H1A C2A 1_555 1_555
H1K C2K 1_555 1_555
H1B C2B 1_555 1_555
H1J C2J 1_555 1_555
H1O C2O 1_555 1_555
H1R C2R 1_555 1_555
H1P C2P 1_555 1_555
H1T C2T 1_555 1_555
H2I C2I 1_555 1_555
H2A C2A 1_555 1_555
H2K C2K 1_555 1_555
H2B C2B 1_555 1_555
H2J C2J 1_555 1_555
H2O C2O 1_555 1_555
H2R C2R 1_555 1_555
H2P C2P 1_555 1_555
H2T C2T 1_555 1_555
O4C Co1 1_555 1_555
O4I Co1F 1_555 1_555
O4F Co1F 1_555 1_555
O4B Co1B 1_555 1_555
O4E Co1B 1_555 1_555
H3O O4 1_555 1_555
H3C O4C 1_555 1_555
H3L O4C 1_555 1_555
H3I O4I 1_555 1_555
H3R O4I 1_555 1_555
H3F O4F 1_555 1_555
H3U O4F 1_555 1_555
H3B O4B 1_555 1_555
H3Q O4B 1_555 1_555
H3E O4E 1_555 1_555
H3N O4E 1_555 1_555
O2P C1P 1_555 1_555
C1I C2I 1_555 1_555
C1A C2A 1_555 1_555
C1K C2K 1_555 1_555
C1B C2B 1_555 1_555
C1J C2J 1_555 1_555
C1O C2O 1_555 1_555
C1R C2R 1_555 1_555
C1P C2P 1_555 1_555
C1T C2T 1_555 1_555

#END
