
#######################################################################
#
#                 Cambridge Crystallographic Data Centre
#                                CCDC 
#
#######################################################################
#
# If this CIF has been generated from an entry in the Cambridge 
# Structural Database, then it will include bibliographic, chemical, 
# crystal, experimental, refinement or atomic coordinate data resulting 
# from the CCDC's data processing and validation procedures.
#
#######################################################################

data_BOYYOF
_chemical_formula_moiety         '(C15 H13 Cd1 N1 O5)n'
_symmetry_cell_setting           tetragonal
_symmetry_space_group_name_H-M   'I 41/a'
_symmetry_Int_Tables_number      88
_space_group_name_Hall           '-I 4ad'
loop_
_symmetry_equiv_pos_site_id
_symmetry_equiv_pos_as_xyz
1 x,y,z
2 1/2-x,-y,1/2+z
3 3/4-y,1/4+x,1/4+z
4 3/4+y,3/4-x,3/4+z
5 1/2+x,1/2+y,1/2+z
6 -x,1/2-y,z
7 1/4-y,3/4+x,3/4+z
8 1/4+y,1/4-x,1/4+z
9 -x,-y,-z
10 1/2+x,y,1/2-z
11 1/4+y,3/4-x,3/4-z
12 1/4-y,1/4+x,1/4-z
13 1/2-x,1/2-y,1/2-z
14 x,1/2+y,-z
15 3/4+y,1/4-x,1/4-z
16 3/4-y,3/4+x,3/4-z
_cell_length_a                   19.109(2)
_cell_length_b                   19.109(2)
_cell_length_c                   24.317(7)
_cell_angle_alpha                90
_cell_angle_beta                 90
_cell_angle_gamma                90
_cell_volume                     8879.45
loop_
_atom_site_label
_atom_site_type_symbol
_atom_site_fract_x
_atom_site_fract_y
_atom_site_fract_z
_atom_site_U_iso_or_equiv
_atom_site_thermal_displace_type
Cd1 Cd 0.15917(2) 0.678081(19) 1.005244(14) 0.0467 Uani
O1 O 0.34313(18) 0.65895(19) 0.79908(15) 0.0537 Uani
O2 O 0.33598(18) 0.54468(19) 0.80337(15) 0.0523 Uani
O3 O 0.01854(18) 0.65507(19) 0.78347(15) 0.0550 Uani
O4 O 0.02754(18) 0.54008(19) 0.78485(16) 0.0553 Uani
O5 O 0.1511(4) 0.7490(3) 1.0863(2) 0.1310 Uani
H1 H 0.1081 0.7577 1.0917 0.1570 Uiso
H2 H 0.1608 0.7092 1.1000 0.1570 Uiso
N1 N 0.16981(19) 0.6259(2) 0.91784(15) 0.0377 Uani
C1 C 0.3112(2) 0.6045(3) 0.81223(19) 0.0400 Uani
C2 C 0.0496(2) 0.5996(3) 0.79694(19) 0.0387 Uani
C3 C 0.1155(2) 0.6064(2) 0.83025(19) 0.0377 Uani
C4 C 0.1114(2) 0.6168(2) 0.88690(19) 0.0363 Uani
C5 C 0.0416(3) 0.6199(3) 0.9163(2) 0.0527 Uani
H3 H 0.0453 0.5967 0.9511 0.0790 Uiso
H4 H 0.0066 0.5972 0.8943 0.0790 Uiso
H5 H 0.0287 0.6679 0.9220 0.0790 Uiso
C6 C 0.2328(2) 0.6213(2) 0.89378(19) 0.0380 Uani
C7 C 0.2957(3) 0.6287(3) 0.9307(2) 0.0563 Uani
H6 H 0.3023 0.6771 0.9399 0.0840 Uiso
H7 H 0.3365 0.6116 0.9120 0.0840 Uiso
H8 H 0.2885 0.6021 0.9637 0.0840 Uiso
C8 C 0.2404(2) 0.6098(2) 0.83720(18) 0.0377 Uani
C9 C 0.1806(2) 0.6036(2) 0.80472(18) 0.0360 Uani
C10 C 0.1850(2) 0.5970(3) 0.7436(2) 0.0453 Uani
C11 C 0.1853(3) 0.6554(4) 0.7106(2) 0.0710 Uani
H9 H 0.1843 0.6995 0.7267 0.0850 Uiso
C12 C 0.1869(4) 0.6502(5) 0.6546(3) 0.0940 Uani
H10 H 0.1871 0.6907 0.6334 0.1130 Uiso
C13 C 0.1881(4) 0.5882(6) 0.6297(3) 0.0953 Uani
H11 H 0.1881 0.5856 0.5915 0.1140 Uiso
C14 C 0.1894(4) 0.5291(5) 0.6599(3) 0.1013 Uani
H12 H 0.1920 0.4858 0.6425 0.1220 Uiso
C15 C 0.1868(4) 0.5326(4) 0.7182(3) 0.0783 Uani
H13 H 0.1862 0.4918 0.7390 0.0940 Uiso
Cd1C Cd 0.428081(19) 0.59083(2) 0.755244(14) 0.0467 Uani
Cd1J Cd -0.071919(19) 0.59083(2) 0.744756(14) 0.0467 Uani
O1B O 0.09105(19) 0.59313(18) 1.04908(15) 0.0537 Uani
O2B O 0.20532(19) 0.58598(18) 1.05337(15) 0.0523 Uani
O3O O 0.09493(19) 0.76854(18) 0.96653(15) 0.0550 Uani
O4O O 0.20992(19) 0.77754(18) 0.96515(16) 0.0553 Uani
loop_
_atom_site_aniso_label
_atom_site_aniso_U_11
_atom_site_aniso_U_22
_atom_site_aniso_U_33
_atom_site_aniso_U_23
_atom_site_aniso_U_13
_atom_site_aniso_U_12
Cd1 0.0691(3) 0.0367(2) 0.0344(2) 0.00433(15) 0.00046(18) 0.00060(18)
O1 0.044 0.062 0.055 -0.0028 0.0133 -0.0075
O2 0.047 0.052 0.058 0.0033 0.0152 0.0035
O3 0.043 0.057 0.065 0.0104 -0.0105 0.0007
O4 0.043 0.057 0.066 -0.0146 -0.0096 0.0022
O5 0.193(4) 0.107(3) 0.093(3) -0.028(3) -0.007(3) 0.015(3)
N1 0.036(2) 0.045(2) 0.032(2) 0.0012(17) 0.0003(17) 0.0007(18)
C1 0.03 0.059 0.031 -0.004 0.0011 0.001
C2 0.037 0.051 0.028 -0.008 0 0.001
C3 0.038 0.038 0.037 -0.001 0.001 0
C4 0.033(3) 0.041(3) 0.035(3) 0.002(2) 0.002(2) -0.001(2)
C5 0.037(3) 0.081(4) 0.040(3) -0.006(3) 0.002(2) 0.000(3)
C6 0.037(3) 0.042(3) 0.035(3) -0.001(2) -0.003(2) -0.001(2)
C7 0.040(3) 0.088(4) 0.041(3) -0.005(3) -0.002(2) 0.002(3)
C8 0.036(3) 0.045(3) 0.032(2) 0.000(2) 0.003(2) 0.001(2)
C9 0.037(3) 0.042(3) 0.029(2) 0.000(2) 0.0027(19) 0.003(2)
C10 0.034(3) 0.065(4) 0.037(3) -0.002(3) 0.004(2) -0.001(2)
C11 0.093(5) 0.079(4) 0.041(3) 0.010(3) -0.001(3) 0.005(4)
C12 0.093(6) 0.142(8) 0.047(4) 0.025(5) 0.000(4) 0.001(5)
C13 0.062(5) 0.189(10) 0.035(4) -0.007(5) 0.001(3) -0.009(5)
C14 0.099(6) 0.146(8) 0.059(5) -0.054(5) 0.006(4) -0.013(5)
C15 0.101(5) 0.085(5) 0.049(4) -0.022(3) 0.006(3) -0.004(4)
Cd1C 0.0367 0.0691 0.0344 -0.00046 0.00433 -0.0006
Cd1J 0.0367 0.0691 0.0344 0.00046 -0.00433 -0.0006
O1B 0.062 0.044 0.055 0.0133 0.0028 0.0075
O2B 0.052 0.047 0.058 0.0152 -0.0033 -0.0035
O3O 0.057 0.043 0.065 0.0105 0.0104 -0.0007
O4O 0.057 0.043 0.066 0.0096 -0.0146 -0.0022
loop_
_geom_bond_atom_site_label_1
_geom_bond_atom_site_label_2
_geom_bond_site_symmetry_1
_geom_bond_site_symmetry_2
Cd1 O5 1_555 1_555
O1 C1 1_555 1_555
O2 C1 1_555 1_555
O3 C2 1_555 1_555
O4 C2 1_555 1_555
O5 H1 1_555 1_555
H2 O5 1_555 1_555
N1 Cd1 1_555 1_555
C1 C8 1_555 1_555
C2 C3 1_555 1_555
C3 C4 1_555 1_555
C4 N1 1_555 1_555
C5 C4 1_555 1_555
H3 C5 1_555 1_555
H4 C5 1_555 1_555
H5 C5 1_555 1_555
C6 N1 1_555 1_555
C7 C6 1_555 1_555
H6 C7 1_555 1_555
H7 C7 1_555 1_555
H8 C7 1_555 1_555
C8 C6 1_555 1_555
C9 C3 1_555 1_555
C10 C9 1_555 1_555
C11 C10 1_555 1_555
H9 C11 1_555 1_555
C12 C11 1_555 1_555
H10 C12 1_555 1_555
C13 C12 1_555 1_555
H11 C13 1_555 1_555
C14 C13 1_555 1_555
H12 C14 1_555 1_555
C15 C10 1_555 1_555
H13 C15 1_555 1_555
Cd1C O1 1_555 1_555
Cd1J O3 1_555 1_555
O1B Cd1 1_555 1_555
O2B Cd1 1_555 1_555
O3O Cd1 1_555 1_555
O4O Cd1 1_555 1_555
O2 Cd1C 1_555 1_555
O4 Cd1J 1_555 1_555
C8 C9 1_555 1_555
C14 C15 1_555 1_555

#END
