
#######################################################################
#
#                 Cambridge Crystallographic Data Centre
#                                CCDC 
#
#######################################################################
#
# If this CIF has been generated from an entry in the Cambridge 
# Structural Database, then it will include bibliographic, chemical, 
# crystal, experimental, refinement or atomic coordinate data resulting 
# from the CCDC's data processing and validation procedures.
#
#######################################################################

data_CUSZIB
_chemical_formula_moiety         '(C24 H32 Cu1 N5)n'
_symmetry_cell_setting           orthorhombic
_symmetry_space_group_name_H-M   'P c c n'
_symmetry_Int_Tables_number      56
_space_group_name_Hall           '-P 2ab 2ac'
loop_
_symmetry_equiv_pos_site_id
_symmetry_equiv_pos_as_xyz
1 x,y,z
2 1/2-x,1/2-y,z
3 -x,1/2+y,1/2-z
4 1/2+x,-y,1/2-z
5 -x,-y,-z
6 1/2+x,1/2+y,-z
7 x,1/2-y,1/2+z
8 1/2-x,y,1/2+z
_cell_length_a                   9.7563(2)
_cell_length_b                   11.2413(3)
_cell_length_c                   21.5957(5)
_cell_angle_alpha                90
_cell_angle_beta                 90
_cell_angle_gamma                90
_cell_volume                     2368.48
loop_
_atom_site_label
_atom_site_type_symbol
_atom_site_fract_x
_atom_site_fract_y
_atom_site_fract_z
_atom_site_U_iso_or_equiv
_atom_site_thermal_displace_type
C1 C 0.1057(3) 0.9407(3) 0.33258(14) 0.0315 Uani
C2 C 0.0256(3) 1.0199(3) 0.36700(14) 0.0306 Uani
C3 C -0.0476(3) 1.1040(3) 0.33329(13) 0.0310 Uani
C4 C 0.0120(3) 1.0093(3) 0.43475(14) 0.0277 Uani
C5 C 0.0841(3) 0.9231(3) 0.46788(14) 0.0332 Uani
H1 H 0.1411 0.8706 0.4467 0.0400 Uiso
C6 C -0.0725(3) 1.0861(3) 0.46823(14) 0.0320 Uani
H2 H -0.1219 1.1444 0.4474 0.0380 Uiso
N1 N 0.1693(3) 0.8753(3) 0.30336(12) 0.0376 Uani
N2 N -0.1090(3) 1.1724(3) 0.30458(12) 0.0391 Uani
Cu1 Cu 0.2500 0.7500 0.24919(3) 0.0354 Uani
C1D C -0.1057(3) 1.0593(3) 0.66742(14) 0.0315 Uani
C2D C -0.0256(3) 0.9801(3) 0.63300(14) 0.0306 Uani
C4D C -0.0120(3) 0.9907(3) 0.56525(14) 0.0277 Uani
C5D C -0.0841(3) 1.0769(3) 0.53212(14) 0.0332 Uani
H1D H -0.1411 1.1294 0.5533 0.0400 Uiso
C6D C 0.0725(3) 0.9139(3) 0.53177(14) 0.0320 Uani
H2D H 0.1219 0.8556 0.5526 0.0380 Uiso
N1D N -0.1693(3) 1.1247(3) 0.69664(12) 0.0376 Uani
C3D C 0.0476(3) 0.8960(3) 0.66671(13) 0.0310 Uani
N2D N 0.1090(3) 0.8276(3) 0.69542(12) 0.0391 Uani
N1A N 0.3307(3) 0.6247(3) 0.30336(12) 0.0376 Uani
N2B N 0.1090(3) 0.6724(3) 0.19542(12) 0.0391 Uani
N2C N 0.3910(3) 0.8276(3) 0.19542(12) 0.0391 Uani
Cu1B Cu -0.2500 1.2500 0.25081(3) 0.0354 Uani
Cu1D Cu -0.2500 1.2500 0.75081(3) 0.0354 Uani
Cu1F Cu 0.2500 0.7500 0.74919(3) 0.0354 Uani
C7 C 0.1958(5) 0.3462(4) 0.24873(19) 0.0520 Uani
H3 H 0.1220 0.3155 0.2734 0.0780 Uiso
H4 H 0.1628 0.4108 0.2238 0.0780 Uiso
H5 H 0.2677 0.3743 0.2753 0.0780 Uiso
C8 C 0.1294(5) 0.2050(5) 0.1703(2) 0.0637 Uani
H6 H 0.0533 0.1919 0.1984 0.0770 Uiso
H7 H 0.1021 0.2672 0.1417 0.0770 Uiso
C9 C 0.1525(7) 0.0925(6) 0.1339(4) 0.1160 Uani
H8 H 0.1972 0.0339 0.1600 0.1390 Uiso
H9 H 0.2122 0.1091 0.0991 0.1390 Uiso
C10 C 0.0120(6) 0.0411(6) 0.1097(3) 0.0963 Uani
H10 H -0.0534 0.0429 0.1435 0.1160 Uiso
H11 H -0.0222 0.0934 0.0775 0.1160 Uiso
C11 C 0.0171(7) -0.0800(6) 0.0851(4) 0.0950 Uani
H12 H 0.0784 -0.0809 0.0497 0.1140 Uiso
H13 H 0.0560 -0.1317 0.1164 0.1140 Uiso
C12 C -0.1146(7) -0.1287(6) 0.0660(4) 0.1053 Uani
H14 H -0.1745 -0.1332 0.1011 0.1580 Uiso
H15 H -0.1014 -0.2068 0.0491 0.1580 Uiso
H16 H -0.1547 -0.0780 0.0351 0.1580 Uiso
N3 N 0.2500 0.2500 0.2078(2) 0.0437 Uani
C7A C 0.3042(5) 0.1538(4) 0.24873(19) 0.0520 Uani
H3A H 0.3780 0.1845 0.2734 0.0780 Uiso
H4A H 0.3372 0.0892 0.2238 0.0780 Uiso
H5A H 0.2323 0.1257 0.2753 0.0780 Uiso
C8A C 0.3706(5) 0.2950(5) 0.1703(2) 0.0637 Uani
H6A H 0.4467 0.3081 0.1984 0.0770 Uiso
H7A H 0.3979 0.2328 0.1417 0.0770 Uiso
C9A C 0.3475(7) 0.4075(6) 0.1339(4) 0.1160 Uani
H8A H 0.3028 0.4661 0.1600 0.1390 Uiso
H9A H 0.2878 0.3909 0.0991 0.1390 Uiso
C10A C 0.4880(6) 0.4589(6) 0.1097(3) 0.0963 Uani
H10A H 0.5534 0.4571 0.1435 0.1160 Uiso
H11A H 0.5222 0.4066 0.0775 0.1160 Uiso
C11A C 0.4829(7) 0.5800(6) 0.0851(4) 0.0950 Uani
H12A H 0.4216 0.5809 0.0497 0.1140 Uiso
H13A H 0.4440 0.6317 0.1164 0.1140 Uiso
C12A C 0.6146(7) 0.6287(6) 0.0660(4) 0.1053 Uani
H14A H 0.6745 0.6332 0.1011 0.1580 Uiso
H15A H 0.6014 0.7068 0.0491 0.1580 Uiso
H16A H 0.6547 0.5780 0.0351 0.1580 Uiso
loop_
_atom_site_aniso_label
_atom_site_aniso_U_11
_atom_site_aniso_U_22
_atom_site_aniso_U_33
_atom_site_aniso_U_23
_atom_site_aniso_U_13
_atom_site_aniso_U_12
C1 0.0376(16) 0.0315(15) 0.0255(14) 0.0033(12) -0.0018(12) -0.0039(13)
C2 0.0364(15) 0.0314(15) 0.0241(14) 0.0017(12) 0.0000(12) 0.0024(13)
C3 0.0365 0.0341 0.0224 -0.003 0.0026 -0.0018
C4 0.0284(14) 0.0297(14) 0.0249(14) 0.0008(11) -0.0001(11) 0.0004(12)
C5 0.0367(16) 0.0341(16) 0.0288(15) -0.0002(12) 0.0026(13) 0.0103(13)
C6 0.0351(16) 0.0334(15) 0.0276(15) 0.0030(12) -0.0005(12) 0.0099(13)
N1 0.0464(16) 0.0351(14) 0.0312(13) -0.0020(12) 0.0040(12) 0.0054(13)
N2 0.0475 0.0429 0.0269 0.0014 -0.0054 0.008
Cu1 0.0412(4) 0.0335(4) 0.0315(4) 0.000 0.000 -0.0010(3)
C1D 0.0376 0.0315 0.0255 0.0033 -0.0018 -0.0039
C2D 0.0364 0.0314 0.0241 0.0017 0 0.0024
C4D 0.0284 0.0297 0.0249 0.0008 -0.0001 0.0004
C5D 0.0367 0.0341 0.0288 -0.0002 0.0026 0.0103
C6D 0.0351 0.0334 0.0276 0.003 -0.0005 0.0099
N1D 0.0464 0.0351 0.0312 -0.002 0.004 0.0054
C3D 0.0365 0.0341 0.0224 -0.003 0.0026 -0.0018
N2D 0.0475 0.0429 0.0269 0.0014 -0.0054 0.008
N1A 0.0464 0.0351 0.0312 0.002 -0.004 0.0054
N2B 0.0475 0.0429 0.0269 -0.0014 -0.0054 -0.008
N2C 0.0475 0.0429 0.0269 0.0014 0.0054 -0.008
Cu1B 0.0412 0.0335 0.0315 0 0 0.001
Cu1D 0.0412 0.0335 0.0315 0 0 -0.001
Cu1F 0.0412 0.0335 0.0315 0 0 0.001
C7 0.052(2) 0.044(2) 0.060(3) -0.0099(18) 0.0009(18) 0.0033(19)
C8 0.053(2) 0.071(3) 0.067(3) -0.027(2) -0.019(2) 0.023(2)
C9 0.092(4) 0.120(5) 0.136(6) -0.079(5) -0.059(4) 0.058(4)
C10 0.081(4) 0.101(5) 0.107(5) -0.052(4) -0.030(4) 0.023(3)
C11 0.089(4) 0.075(4) 0.121(5) 0.013(4) -0.027(4) 0.005(3)
C12 0.078(4) 0.081(4) 0.157(7) 0.005(5) 0.014(4) -0.004(3)
N3 0.043(2) 0.043(2) 0.045(2) 0.000 0.000 0.0068(19)
C7A 0.052 0.044 0.06 0.0099 -0.0009 0.0033
C8A 0.053 0.071 0.067 0.027 0.019 0.023
C9A 0.092 0.12 0.136 0.079 0.059 0.058
C10A 0.081 0.101 0.107 0.052 0.03 0.023
C11A 0.089 0.075 0.121 -0.013 0.027 0.005
C12A 0.078 0.081 0.157 -0.005 -0.014 -0.004
loop_
_geom_bond_atom_site_label_1
_geom_bond_atom_site_label_2
_geom_bond_site_symmetry_1
_geom_bond_site_symmetry_2
C1 C2 1_555 1_555
C2 C3 1_555 1_555
C3 N2 1_555 1_555
C4 C2 1_555 1_555
C5 C4 1_555 1_555
H1 C5 1_555 1_555
C6 C4 1_555 1_555
H2 C6 1_555 1_555
N1 C1 1_555 1_555
N2 Cu1B 1_555 1_555
Cu1 N1 1_555 1_555
C7 H3 1_555 1_555
H4 C7 1_555 1_555
H5 C7 1_555 1_555
C8 H6 1_555 1_555
H7 C8 1_555 1_555
C9 C8 1_555 1_555
H8 C9 1_555 1_555
H9 C9 1_555 1_555
C10 C9 1_555 1_555
H10 C10 1_555 1_555
H11 C10 1_555 1_555
C11 C10 1_555 1_555
H12 C11 1_555 1_555
H13 C11 1_555 1_555
C12 C11 1_555 1_555
H14 C12 1_555 1_555
H15 C12 1_555 1_555
H16 C12 1_555 1_555
N3 C7 1_555 1_555
C1D C2D 1_555 1_555
C2D C4D 1_555 1_555
C4D C5D 1_555 1_555
C5D C6 1_555 1_555
H1D C5D 1_555 1_555
C6D C5 1_555 1_555
H2D C6D 1_555 1_555
N1D C1D 1_555 1_555
C3D C2D 1_555 1_555
N2D C3D 1_555 1_555
N1A Cu1 1_555 1_555
N2B Cu1 1_555 1_555
N2C Cu1 1_555 1_555
Cu1D N1D 1_555 1_555
Cu1F N2D 1_555 1_555
C7A N3 1_555 1_555
H3A C7A 1_555 1_555
H4A C7A 1_555 1_555
H5A C7A 1_555 1_555
C8A N3 1_555 1_555
H6A C8A 1_555 1_555
H7A C8A 1_555 1_555
C9A C8A 1_555 1_555
H8A C9A 1_555 1_555
H9A C9A 1_555 1_555
C10A C9A 1_555 1_555
H10A C10A 1_555 1_555
H11A C10A 1_555 1_555
C11A C10A 1_555 1_555
H12A C11A 1_555 1_555
H13A C11A 1_555 1_555
C12A C11A 1_555 1_555
H14A C12A 1_555 1_555
H15A C12A 1_555 1_555
H16A C12A 1_555 1_555
C8 N3 1_555 1_555
C4D C6D 1_555 1_555

#END
