
#######################################################################
#
#                 Cambridge Crystallographic Data Centre
#                                CCDC 
#
#######################################################################
#
# If this CIF has been generated from an entry in the Cambridge 
# Structural Database, then it will include bibliographic, chemical, 
# crystal, experimental, refinement or atomic coordinate data resulting 
# from the CCDC's data processing and validation procedures.
#
#######################################################################

data_CUSZEX
_chemical_formula_moiety         '(C24 H17 Cu1 N6)n'
_symmetry_cell_setting           monoclinic
_symmetry_space_group_name_H-M   'P 21/n'
_symmetry_Int_Tables_number      14
_space_group_name_Hall           '-P 2yn'
loop_
_symmetry_equiv_pos_site_id
_symmetry_equiv_pos_as_xyz
1 x,y,z
2 1/2-x,1/2+y,1/2-z
3 -x,-y,-z
4 1/2+x,1/2-y,1/2+z
_cell_length_a                   12.5255(3)
_cell_length_b                   8.1701(3)
_cell_length_c                   20.9474(6)
_cell_angle_alpha                90
_cell_angle_beta                 96.835(3)
_cell_angle_gamma                90
_cell_volume                     2128.41
loop_
_atom_site_label
_atom_site_type_symbol
_atom_site_fract_x
_atom_site_fract_y
_atom_site_fract_z
_atom_site_U_iso_or_equiv
_atom_site_thermal_displace_type
C1 C 0.6441(6) 0.3366(8) 0.1538(3) 0.0444 Uani
H1 H 0.6226 0.3733 0.1934 0.0530 Uiso
C2 C 0.7087(6) 0.2283(9) 0.0370(3) 0.0432 Uani
H2 H 0.7297 0.1908 -0.0026 0.0520 Uiso
C3 C 0.8150(5) 0.4811(8) 0.1758(3) 0.0385 Uani
H3 H 0.7940 0.5174 0.2155 0.0460 Uiso
N1 N 0.9105(5) 0.5249(6) 0.1601(2) 0.0379 Uani
C4 C 0.9431(6) 0.4785(8) 0.1019(3) 0.0413 Uani
H4 H 1.0108 0.5136 0.0906 0.0500 Uiso
C5 C 0.8784(5) 0.3828(8) 0.0610(3) 0.0390 Uani
H5 H 0.9015 0.3507 0.0213 0.0470 Uiso
C6 C 0.7450(5) 0.3839(8) 0.1358(3) 0.0360 Uani
C7 C 0.7768(5) 0.3299(8) 0.0765(3) 0.0369 Uani
C8 C 0.5782(6) 0.2387(9) 0.1144(3) 0.0459 Uani
H6 H 0.5102 0.2078 0.1263 0.0550 Uiso
C9 C 0.9849(6) 0.6225(8) 0.2043(3) 0.0455 Uani
H7 H 1.0510 0.6428 0.1848 0.0680 Uiso
H8 H 1.0022 0.5627 0.2448 0.0680 Uiso
H9 H 0.9510 0.7272 0.2129 0.0680 Uiso
C10 C 0.6105(6) 0.1817(9) 0.0553(3) 0.0476 Uani
H10 H 0.5645 0.1116 0.0283 0.0570 Uiso
C11 C 0.6653(4) -0.4286(7) -0.1668(2) 0.0281 Uani
Cu1 Cu 0.99885(5) 0.14147(10) 0.24513(3) 0.0228 Uani
N2 N 0.9031(3) -0.2507(6) -0.1928(2) 0.0263 Uani
N3 N 0.5946(4) -0.4931(7) -0.1973(2) 0.0355 Uani
C12 C 0.7502(4) -0.3459(6) -0.1308(2) 0.0248 Uani
C13 C 0.7387(4) -0.2045(6) 0.0667(2) 0.0222 Uani
C14 C 0.8121(4) -0.0504(6) 0.1654(2) 0.0236 Uani
C15 C 0.8302(4) -0.2090(7) -0.0294(2) 0.0241 Uani
H11 H 0.8894 -0.1759 -0.0507 0.0290 Uiso
C16 C 0.7324(4) -0.1509(7) 0.1330(2) 0.0262 Uani
C17 C 0.6619(4) -0.3511(7) -0.0291(2) 0.0253 Uani
H12 H 0.6055 -0.4163 -0.0501 0.0300 Uiso
N4 N 0.8807(3) 0.0291(6) 0.1924(2) 0.0273 Uani
N5 N 0.5731(4) -0.2150(6) 0.1946(2) 0.0293 Uani
C18 C 0.8256(4) -0.1621(7) 0.0340(2) 0.0261 Uani
H13 H 0.8830 -0.0998 0.0556 0.0320 Uiso
C19 C 0.6456(4) -0.1848(7) 0.1661(2) 0.0250 Uani
C20 C 0.6578(4) -0.3027(6) 0.0341(2) 0.0232 Uani
H14 H 0.5991 -0.3366 0.0557 0.0280 Uiso
C21 C 0.7479(4) -0.3052(6) -0.0625(2) 0.0215 Uani
C22 C 0.8326(4) -0.2947(6) -0.1648(2) 0.0234 Uani
Cu1A Cu 0.50115(5) -0.35853(10) 0.25487(3) 0.0228 Uani
Cu1B Cu 1.00115(5) -0.14147(10) -0.24513(3) 0.0228 Uani
Cu1C Cu 0.49885(5) -0.64147(10) -0.25487(3) 0.0228 Uani
N2B N 1.0969(3) 0.2507(6) 0.1928(2) 0.0263 Uani
N3C N 1.0946(4) -0.0069(7) 0.3027(2) 0.0355 Uani
N5A N 0.9269(4) 0.2850(6) 0.3054(2) 0.0293 Uani
C23 C 0.2007(7) -0.1594(10) 0.1249(4) 0.0531 Uani
C24 C 0.2943(7) -0.0841(11) 0.1586(4) 0.0657 Uani
H15 H 0.3452 -0.1690 0.1756 0.0980 Uiso
H16 H 0.2734 -0.0181 0.1942 0.0980 Uiso
H17 H 0.3284 -0.0136 0.1290 0.0980 Uiso
N6 N 0.1303(7) -0.2234(12) 0.0951(4) 0.0831 Uani
loop_
_atom_site_aniso_label
_atom_site_aniso_U_11
_atom_site_aniso_U_22
_atom_site_aniso_U_33
_atom_site_aniso_U_23
_atom_site_aniso_U_13
_atom_site_aniso_U_12
C1 0.058(4) 0.044(4) 0.033(3) 0.008(3) 0.013(3) 0.023(3)
C2 0.055(4) 0.042(4) 0.033(3) 0.000(3) 0.007(3) 0.012(3)
C3 0.050(3) 0.039(3) 0.027(3) 0.007(2) 0.007(2) 0.014(3)
N1 0.053(3) 0.035(3) 0.026(2) 0.004(2) 0.006(2) 0.012(2)
C4 0.052(4) 0.044(3) 0.029(3) 0.006(3) 0.009(3) 0.014(3)
C5 0.048(3) 0.045(3) 0.025(3) 0.003(2) 0.009(2) 0.018(3)
C6 0.048(3) 0.034(3) 0.027(3) 0.005(2) 0.008(2) 0.019(3)
C7 0.046(3) 0.038(3) 0.027(3) 0.005(2) 0.006(2) 0.018(3)
C8 0.048(4) 0.048(4) 0.043(3) 0.007(3) 0.011(3) 0.012(3)
C9 0.063(4) 0.037(3) 0.036(3) 0.001(3) 0.004(3) 0.004(3)
C10 0.050(4) 0.044(4) 0.048(4) -0.002(3) 0.002(3) 0.008(3)
C11 0.029 0.036 0.021 -0.002 0.01 -0.008
Cu1 0.0180(4) 0.0286(5) 0.0225(4) 0.0009(3) 0.0050(3) 0.0001(3)
N2 0.024 0.033 0.0224 -0.0035 0.0045 -0.0041
N3 0.028 0.052 0.028 -0.011 0.0094 -0.013
C12 0.026 0.027 0.022 -0.0024 0.0054 -0.005
C13 0.020(2) 0.026(2) 0.021(2) -0.0001(19) 0.0037(17) 0.0008(19)
C14 0.023(2) 0.027(2) 0.022(2) 0.0021(19) 0.0076(18) 0.002(2)
C15 0.02 0.029 0.024 0 0.005 -0.003
C16 0.025(2) 0.033(3) 0.021(2) 0.000(2) 0.0043(19) -0.005(2)
C17 0.025 0.028 0.023 -0.0003 0.003 -0.006
N4 0.025(2) 0.033(2) 0.024(2) -0.0013(18) 0.0035(16) -0.0025(19)
N5 0.026(2) 0.040(3) 0.023(2) -0.0032(19) 0.0073(17) -0.007(2)
C18 0.023(2) 0.030(3) 0.026(2) -0.001(2) 0.0055(19) -0.006(2)
C19 0.026(2) 0.029(3) 0.020(2) -0.0022(19) 0.0027(19) -0.002(2)
C20 0.020(2) 0.027(2) 0.023(2) 0.0012(19) 0.0042(17) -0.0022(19)
C21 0.02 0.026 0.019 0.0006 0.0043 -0.0013
C22 0.023 0.028 0.019 -0.0015 0.0021 -0.002
Cu1A 0.018 0.0286 0.0225 -0.0009 0.005 -0.0001
Cu1B 0.018 0.0286 0.0225 0.0009 0.005 0.0001
Cu1C 0.018 0.0286 0.0225 -0.0009 0.005 -0.0001
N2B 0.024 0.033 0.0224 -0.0035 0.0045 -0.0041
N3C 0.028 0.052 0.028 0.011 0.0094 0.013
N5A 0.026 0.04 0.023 0.0032 0.0073 0.007
C23 0.061(5) 0.048(4) 0.052(4) 0.004(3) 0.014(4) 0.003(4)
C24 0.066(5) 0.054(5) 0.070(5) 0.007(4) -0.021(4) 0.011(4)
N6 0.089(6) 0.107(7) 0.058(4) -0.022(4) 0.028(4) -0.053(5)
loop_
_geom_bond_atom_site_label_1
_geom_bond_atom_site_label_2
_geom_bond_site_symmetry_1
_geom_bond_site_symmetry_2
C1 H1 1_555 1_555
C2 H2 1_555 1_555
C3 H3 1_555 1_555
N1 C3 1_555 1_555
C4 N1 1_555 1_555
H4 C4 1_555 1_555
C5 C4 1_555 1_555
H5 C5 1_555 1_555
C6 C1 1_555 1_555
C7 C2 1_555 1_555
C8 C1 1_555 1_555
H6 C8 1_555 1_555
C9 N1 1_555 1_555
H7 C9 1_555 1_555
H8 C9 1_555 1_555
H9 C9 1_555 1_555
C10 C2 1_555 1_555
H10 C10 1_555 1_555
C11 N3 1_555 1_555
Cu1 N4 1_555 1_555
N2 C22 1_555 1_555
N3 Cu1C 1_555 1_555
C12 C11 1_555 1_555
C13 C16 1_555 1_555
C14 C16 1_555 1_555
C15 H11 1_555 1_555
C16 C19 1_555 1_555
C17 H12 1_555 1_555
N4 C14 1_555 1_555
N5 C19 1_555 1_555
C18 C13 1_555 1_555
H13 C18 1_555 1_555
C20 C13 1_555 1_555
H14 C20 1_555 1_555
C21 C12 1_555 1_555
C22 C12 1_555 1_555
C23 C24 1_555 1_555
C24 H15 1_555 1_555
H16 C24 1_555 1_555
H17 C24 1_555 1_555
N6 C23 1_555 1_555
Cu1A N5 1_555 1_555
Cu1B N2 1_555 1_555
N2B Cu1 1_555 1_555
N3C Cu1 1_555 1_555
N5A Cu1 1_555 1_555
C3 C6 1_555 1_555
C5 C7 1_555 1_555
C6 C7 1_555 1_555
C8 C10 1_555 1_555
C15 C18 1_555 1_555
C15 C21 1_555 1_555
C17 C20 1_555 1_555
C17 C21 1_555 1_555

#END
