
#######################################################################
#
#                 Cambridge Crystallographic Data Centre
#                                CCDC 
#
#######################################################################
#
# If this CIF has been generated from an entry in the Cambridge 
# Structural Database, then it will include bibliographic, chemical, 
# crystal, experimental, refinement or atomic coordinate data resulting 
# from the CCDC's data processing and validation procedures.
#
#######################################################################

data_CUTCAX
_chemical_formula_moiety         'C46 H38 Mn8 N20 O6'
_symmetry_cell_setting           monoclinic
_symmetry_space_group_name_H-M   'P 21/n'
_symmetry_Int_Tables_number      14
_space_group_name_Hall           '-P 2yn'
loop_
_symmetry_equiv_pos_site_id
_symmetry_equiv_pos_as_xyz
1 x,y,z
2 1/2-x,1/2+y,1/2-z
3 -x,-y,-z
4 1/2+x,1/2-y,1/2+z
_cell_length_a                   7.5135(4)
_cell_length_b                   37.1568(16)
_cell_length_c                   11.1499(5)
_cell_angle_alpha                90
_cell_angle_beta                 98.647(4)
_cell_angle_gamma                90
_cell_volume                     3077.42
loop_
_atom_site_label
_atom_site_type_symbol
_atom_site_fract_x
_atom_site_fract_y
_atom_site_fract_z
O1 O 0.8316(4) 0.17503(9) 0.5717(3)
O2 O 1.2943(5) 0.15392(10) 0.3852(3)
Mn1 Mn 0.5000 0.0000 0.0000
O3 O 0.2577(4) 0.01999(8) 0.0667(3)
C1 C 0.7371(8) 0.14701(18) 0.6265(5)
H1 H 0.7691 0.1235 0.5961
H2 H 0.6070 0.1508 0.6057
H3 H 0.7710 0.1478 0.7148
C2 C 1.3603(17) 0.1241(3) 0.3526(11)
H4 H 1.3484 0.1055 0.4131
H5 H 1.4879 0.1275 0.3461
H6 H 1.2950 0.1167 0.2737
Mn2 Mn 1.06554(9) 0.16588(2) 0.47811(6)
C3 C 0.9318(5) 0.02683(10) 0.4141(4)
C4 C 0.9080(5) -0.01008(10) 0.3888(4)
H7 H 0.8455 -0.0173 0.3122
N1 N 0.6743(5) 0.03395(9) 0.1279(3)
C5 C 1.0271(5) 0.03587(10) 0.5278(4)
H8 H 1.0474 0.0605 0.5478
N2 N 0.9242(5) 0.11976(9) 0.3828(3)
N3 N 1.9409(5) 0.20219(9) 1.3326(3)
N4 N 1.1876(5) 0.13076(9) 0.6296(3)
C6 C 0.7585(5) 0.04473(11) 0.2158(4)
N5 N 1.4682(5) 0.04597(9) 0.8702(3)
C7 C 1.4357(5) 0.07517(10) 0.8422(3)
C8 C 1.4936(5) 0.13956(10) 0.8967(4)
C9 C 1.5858(5) 0.13107(10) 1.0115(4)
H9 H 1.5940 0.1067 1.0370
C10 C 1.6557(5) 0.19399(10) 1.0562(4)
C11 C 0.8913(6) 0.09062(10) 0.3525(4)
C12 C 1.6653(5) 0.15754(10) 1.0888(4)
H10 H 1.7280 0.1508 1.1660
C13 C 1.8523(5) 0.21237(11) 1.2465(4)
C14 C 1.2856(5) 0.12077(11) 0.7119(4)
C15 C 1.5641(5) 0.20236(11) 0.9412(4)
H11 H 1.5564 0.2268 0.9157
N6 N 1.7020(5) 0.28715(9) 1.0709(3)
C16 C 1.4846(5) 0.17611(10) 0.8639(4)
H12 H 1.4224 0.1829 0.7867
C17 C 1.7242(5) 0.25829(10) 1.1057(4)
C18 C 0.8605(5) 0.05448(10) 0.3258(4)
C19 C 1.4057(5) 0.11170(10) 0.8147(4)
C20 C 1.7430(5) 0.22192(10) 1.1376(4)
C21 C 0.2334(19) 0.0515(4) 0.0932(13)
C22 C 0.1019(14) 0.1089(3) 0.0761(10)
H13 H 0.1793 0.1118 0.1545
H14 H -0.0233 0.1139 0.0856
H15 H 0.1401 0.1258 0.0174
N7 N 0.1158(10) 0.0740(2) 0.0347(7)
H16 H 0.3072 0.0606 0.1633
C23 C 0.0125(14) 0.0630(3) -0.0646(10)
H17 H -0.1118 0.0607 -0.0489
H18 H 0.0553 0.0396 -0.0891
H19 H 0.0174 0.0805 -0.1297
C3B C 1.0682(5) -0.02683(10) 0.5859(4)
C4B C 1.0920(5) 0.01008(10) 0.6112(4)
H7B H 1.1545 0.0173 0.6878
N1B N 1.3257(5) -0.03395(9) 0.8721(3)
C5B C 0.9729(5) -0.03587(10) 0.4722(4)
H8B H 0.9526 -0.0605 0.4522
N2B N 1.0758(5) -0.11976(9) 0.6172(3)
C6B C 1.2415(5) -0.04473(11) 0.7842(4)
C11B C 1.1087(6) -0.09062(10) 0.6475(4)
C18B C 1.1395(5) -0.05448(10) 0.6742(4)
O3B O 0.7423(4) -0.01999(8) -0.0667(3)
C21B C 0.7666(19) -0.0515(4) -0.0932(13)
C22B C 0.8981(14) -0.1089(3) -0.0761(10)
H13B H 0.8207 -0.1118 -0.1545
H14B H 1.0233 -0.1139 -0.0856
H15B H 0.8599 -0.1258 -0.0174
N7B N 0.8842(10) -0.0740(2) -0.0347(7)
H16B H 0.6928 -0.0606 -0.1633
C23B C 0.9875(14) -0.0630(3) 0.0646(10)
H17B H 1.1118 -0.0607 0.0489
H18B H 0.9447 -0.0396 0.0891
H19B H 0.9826 -0.0805 0.1297
O1B O 1.1684(4) -0.17503(9) 0.4283(3)
O2B O 0.7057(5) -0.15392(10) 0.6148(3)
C1B C 1.2629(8) -0.14701(18) 0.3735(5)
H1B H 1.2309 -0.1235 0.4039
H2B H 1.3930 -0.1508 0.3943
H3B H 1.2290 -0.1478 0.2852
C2B C 0.6397(17) -0.1241(3) 0.6474(11)
H4B H 0.6516 -0.1055 0.5869
H5B H 0.5121 -0.1275 0.6539
H6B H 0.7050 -0.1167 0.7263
Mn2B Mn 0.93446(9) -0.16588(2) 0.52189(6)
N3B N 0.0591(5) -0.20219(9) -0.3326(3)
N4B N 0.8124(5) -0.13076(9) 0.3704(3)
N5B N 0.5318(5) -0.04597(9) 0.1298(3)
C7B C 0.5643(5) -0.07517(10) 0.1578(3)
C8B C 0.5064(5) -0.13956(10) 0.1033(4)
C9B C 0.4142(5) -0.13107(10) -0.0115(4)
H9B H 0.4060 -0.1067 -0.0370
C10B C 0.3443(5) -0.19399(10) -0.0562(4)
C12B C 0.3347(5) -0.15754(10) -0.0888(4)
H10B H 0.2720 -0.1508 -0.1660
C13B C 0.1477(5) -0.21237(11) -0.2465(4)
C14B C 0.7144(5) -0.12077(11) 0.2881(4)
C15B C 0.4359(5) -0.20236(11) 0.0588(4)
H11B H 0.4436 -0.2268 0.0843
N6B N 0.2980(5) -0.28715(9) -0.0709(3)
C16B C 0.5154(5) -0.17611(10) 0.1361(4)
H12B H 0.5776 -0.1829 0.2133
C17B C 0.2758(5) -0.25829(10) -0.1057(4)
C19B C 0.5943(5) -0.11170(10) 0.1853(4)
C20B C 0.2570(5) -0.22192(10) -0.1376(4)
Mn1_2 Mn 1.5000 -0.0000 1.0000
Mn2_2 Mn 2.06554(9) 0.16588(2) 1.47811(6)
Mn2A Mn 0.43446(9) -0.33412(2) 0.02189(6)
Mn2B_2 Mn -0.06554(9) -0.16588(2) -0.47811(6)
Mn2C Mn 1.56554(9) 0.33412(2) 0.97811(6)
N1B_2 N 0.3257(5) -0.03395(9) -0.1279(3)
N3_2 N 0.9409(5) 0.20219(9) 0.3326(3)
N3B_2 N 1.0591(5) -0.20219(9) 0.6674(3)
N5_2 N 0.4682(5) 0.04597(9) -0.1298(3)
N6A N 0.7980(5) -0.21285(9) 0.4291(3)
N6C N 1.2020(5) 0.21285(9) 0.5709(3)
loop_
_geom_bond_atom_site_label_1
_geom_bond_atom_site_label_2
_geom_bond_site_symmetry_1
_geom_bond_site_symmetry_2
O1 C1 1_555 1_555
O2 C2 1_555 1_555
Mn1 O3 1_555 1_555
O3 C21 1_555 1_555
C1 H1 1_555 1_555
H2 C1 1_555 1_555
H3 C1 1_555 1_555
C2 H4 1_555 1_555
H5 C2 1_555 1_555
H6 C2 1_555 1_555
Mn2 O1 1_555 1_555
C3 C4 1_555 1_555
C4 H7 1_555 1_555
N1 Mn1 1_555 1_555
C5 C3 1_555 1_555
H8 C5 1_555 1_555
N2 Mn2 1_555 1_555
N3 C13 1_555 1_555
N4 Mn2 1_555 1_555
C6 N1 1_555 1_555
N5 C7 1_555 1_555
C7 C19 1_555 1_555
C8 C9 1_555 1_555
C9 H9 1_555 1_555
C10 C12 1_555 1_555
C11 N2 1_555 1_555
C12 C9 1_555 1_555
H10 C12 1_555 1_555
C13 C20 1_555 1_555
C14 N4 1_555 1_555
C15 C10 1_555 1_555
H11 C15 1_555 1_555
N6 C17 1_555 1_555
C16 C8 1_555 1_555
H12 C16 1_555 1_555
C17 C20 1_555 1_555
C18 C3 1_555 1_555
C19 C8 1_555 1_555
C20 C10 1_555 1_555
C21 N7 1_555 1_555
C22 H13 1_555 1_555
H14 C22 1_555 1_555
H15 C22 1_555 1_555
N7 C22 1_555 1_555
H16 C21 1_555 1_555
C23 N7 1_555 1_555
H17 C23 1_555 1_555
H18 C23 1_555 1_555
H19 C23 1_555 1_555
C3B C4B 1_555 1_555
C4B C5 1_555 1_555
H7B C4B 1_555 1_555
N1B C6B 1_555 1_555
C5B C4 1_555 1_555
H8B C5B 1_555 1_555
N2B C11B 1_555 1_555
C6B C18B 1_555 1_555
C11B C18B 1_555 1_555
C18B C3B 1_555 1_555
O3B Mn1 1_555 1_555
C21B O3B 1_555 1_555
C22B H13B 1_555 1_555
H14B C22B 1_555 1_555
H15B C22B 1_555 1_555
N7B C21B 1_555 1_555
H16B C21B 1_555 1_555
C23B N7B 1_555 1_555
H17B C23B 1_555 1_555
H18B C23B 1_555 1_555
H19B C23B 1_555 1_555
O1B C1B 1_555 1_555
O2B C2B 1_555 1_555
C1B H1B 1_555 1_555
H2B C1B 1_555 1_555
H3B C1B 1_555 1_555
C2B H4B 1_555 1_555
H5B C2B 1_555 1_555
H6B C2B 1_555 1_555
Mn2B N2B 1_555 1_555
N3B C13B 1_555 1_555
N4B Mn2B 1_555 1_555
N5B Mn1 1_555 1_555
C7B N5B 1_555 1_555
C8B C9B 1_555 1_555
C9B H9B 1_555 1_555
C10B C12B 1_555 1_555
C12B C9B 1_555 1_555
H10B C12B 1_555 1_555
C13B C20B 1_555 1_555
C14B N4B 1_555 1_555
C15B C10B 1_555 1_555
H11B C15B 1_555 1_555
N6B C17B 1_555 1_555
C16B C8B 1_555 1_555
H12B C16B 1_555 1_555
C17B C20B 1_555 1_555
C19B C7B 1_555 1_555
C20B C10B 1_555 1_555
Mn1_2 N5 1_555 1_555
Mn2_2 N3 1_555 1_555
Mn2A N6B 1_555 1_555
Mn2B_2 N3B 1_555 1_555
Mn2C N6 1_555 1_555
N1B_2 Mn1 1_555 1_555
N3_2 Mn2 1_555 1_555
N3B_2 Mn2B 1_555 1_555
N5_2 Mn1 1_555 1_555
N6A Mn2B 1_555 1_555
N6C Mn2 1_555 1_555
O2 Mn2 1_555 1_555
C6 C18 1_555 1_555
C11 C18 1_555 1_555
C14 C19 1_555 1_555
C15 C16 1_555 1_555
C3B C5B 1_555 1_555
N1B Mn1_2 1_555 1_555
C22B N7B 1_555 1_555
O1B Mn2B 1_555 1_555
O2B Mn2B 1_555 1_555
C8B C19B 1_555 1_555
C14B C19B 1_555 1_555
C15B C16B 1_555 1_555

#END
