
#######################################################################
#
#                 Cambridge Crystallographic Data Centre
#                                CCDC 
#
#######################################################################
#
# If this CIF has been generated from an entry in the Cambridge 
# Structural Database, then it will include bibliographic, chemical, 
# crystal, experimental, refinement or atomic coordinate data resulting 
# from the CCDC's data processing and validation procedures.
#
#######################################################################

data_CUXLEO
_chemical_formula_moiety         '(C23 H10 Cu1 F4 N7 O2)n'
_symmetry_cell_setting           monoclinic
_symmetry_space_group_name_H-M   'C c'
_symmetry_Int_Tables_number      9
_space_group_name_Hall           'C -2yc'
loop_
_symmetry_equiv_pos_site_id
_symmetry_equiv_pos_as_xyz
1 x,y,z
2 x,-y,1/2+z
3 1/2+x,1/2+y,z
4 1/2+x,1/2-y,1/2+z
_cell_length_a                   9.2630(2)
_cell_length_b                   11.0891(2)
_cell_length_c                   21.1717(3)
_cell_angle_alpha                90
_cell_angle_beta                 100.104(2)
_cell_angle_gamma                90
_cell_volume                     2140.99
loop_
_atom_site_label
_atom_site_type_symbol
_atom_site_fract_x
_atom_site_fract_y
_atom_site_fract_z
_atom_site_U_iso_or_equiv
_atom_site_thermal_displace_type
Cu1 Cu 0.83814(4) 0.37908(4) 0.64904(3) 0.0212 Uani
F1 F 0.0910(2) 0.6044(2) 0.34151(10) 0.0272 Uani
F2 F 0.2027(2) 0.6704(2) 0.45931(11) 0.0295 Uani
F3 F 0.6139(2) 0.4208(2) 0.45463(10) 0.0266 Uani
F4 F 0.5005(2) 0.3524(2) 0.33706(11) 0.0285 Uani
N1 N -0.0000(3) 0.5268(3) 0.19842(14) 0.0237 Uani
N2 N 0.4212(3) 0.7852(3) 0.58022(15) 0.0267 Uani
N3 N 0.6615(3) 0.4630(3) 0.60593(14) 0.0226 Uani
N4 N 0.3022(4) 0.2543(3) 0.20755(16) 0.0323 Uani
C1 C 0.4838(4) 0.4678(3) 0.42762(17) 0.0188 Uani
C2 C 0.2889(4) 0.4721(3) 0.33362(16) 0.0187 Uani
C3 C 0.4159(4) 0.5500(3) 0.46275(15) 0.0176 Uani
C4 C 0.4756(4) 0.5855(3) 0.52844(17) 0.0195 Uani
C5 C 0.5793(4) 0.5167(3) 0.56906(17) 0.0197 Uani
C6 C 0.4229(4) 0.4315(3) 0.36626(17) 0.0204 Uani
C7 C 0.0999(4) 0.4877(3) 0.23203(17) 0.0201 Uani
C8 C 0.2216(4) 0.5574(3) 0.36823(17) 0.0197 Uani
C9 C 0.2815(4) 0.5929(3) 0.42943(17) 0.0195 Uani
C10 C 0.4416(4) 0.6965(3) 0.55469(16) 0.0214 Uani
C11 C 0.2245(4) 0.4341(3) 0.26887(17) 0.0205 Uani
C12 C 0.2743(4) 0.3342(3) 0.23767(17) 0.0240 Uani
Cu1A Cu -0.16186(4) 0.62092(4) 0.14904(3) 0.0212 Uani
Cu1B Cu 0.33814(4) 0.87908(4) 0.64904(3) 0.0212 Uani
Cu1C Cu 0.33814(4) 0.12092(4) 0.14904(3) 0.0212 Uani
N1A N 1.0000(3) 0.4732(3) 0.69842(14) 0.0237 Uani
N2B N 0.9212(3) 0.2852(3) 0.58022(15) 0.0267 Uani
N4C N 0.8022(4) 0.2457(3) 0.70755(16) 0.0323 Uani
O1 O 0.9482(3) 0.4580(3) 0.43081(14) 0.0352 Uani
O2 O 0.7835(3) 0.5540(3) 0.36500(13) 0.0353 Uani
N5 N 0.8265(3) 0.8232(2) 0.68207(14) 0.0210 Uani
N6 N 0.8610(4) 0.5418(3) 0.41785(15) 0.0281 Uani
C13 C 0.7537(4) 0.7257(3) 0.45382(17) 0.0256 Uani
H1 H 0.7031 0.7380 0.4112 0.0310 Uiso
C14 C 0.7350(4) 0.8049(3) 0.50280(17) 0.0242 Uani
H2 H 0.6706 0.8718 0.4938 0.0290 Uiso
C15 C 0.7352(4) 0.7446(3) 0.70399(18) 0.0258 Uani
H3 H 0.6434 0.7251 0.6783 0.0310 Uiso
C16 C 0.8108(4) 0.7862(3) 0.56520(16) 0.0221 Uani
N7 N 0.9101(4) 0.7257(4) 0.80123(18) 0.0425 Uani
C17 C 0.9990(4) 0.8079(4) 0.77763(18) 0.0302 Uani
H4 H 1.0894 0.8321 0.8030 0.0360 Uiso
C18 C 0.9558(4) 0.8546(3) 0.71718(18) 0.0262 Uani
H5 H 1.0178 0.9094 0.7002 0.0310 Uiso
C19 C 0.8475(4) 0.6290(3) 0.46862(17) 0.0253 Uani
C20 C 0.7821(4) 0.8728(3) 0.61624(17) 0.0252 Uani
H6 H 0.8365 0.9485 0.6125 0.0300 Uiso
H7 H 0.6762 0.8924 0.6092 0.0300 Uiso
C21 C 0.9253(5) 0.6097(4) 0.52905(19) 0.0313 Uani
H8 H 0.9905 0.5432 0.5375 0.0380 Uiso
C22 C 0.9070(4) 0.6891(4) 0.57771(18) 0.0295 Uani
H9 H 0.9605 0.6772 0.6198 0.0350 Uiso
C23 C 0.7757(5) 0.6926(4) 0.76373(19) 0.0319 Uani
H10 H 0.7137 0.6356 0.7792 0.0380 Uiso
loop_
_atom_site_aniso_label
_atom_site_aniso_U_11
_atom_site_aniso_U_22
_atom_site_aniso_U_33
_atom_site_aniso_U_23
_atom_site_aniso_U_13
_atom_site_aniso_U_12
Cu1 0.0222(2) 0.0221(2) 0.0180(2) 0.0012(2) -0.00003(15) 0.0010(2)
F1 0.0237(11) 0.0335(10) 0.0215(10) -0.0034(9) -0.0044(8) 0.0143(9)
F2 0.0267(10) 0.0354(11) 0.0246(10) -0.0100(9) -0.0003(8) 0.0142(9)
F3 0.0211(10) 0.0334(11) 0.0232(10) -0.0041(9) -0.0022(8) 0.0088(9)
F4 0.0257(11) 0.0343(11) 0.0244(10) -0.0105(9) 0.0011(8) 0.0111(9)
N1 0.0268(16) 0.0233(14) 0.0182(14) -0.0006(11) -0.0040(12) 0.0016(12)
N2 0.0291(15) 0.0289(16) 0.0198(13) -0.0043(12) -0.0018(11) 0.0048(12)
N3 0.0244(15) 0.0242(14) 0.0179(14) 0.0001(11) -0.0002(12) 0.0041(12)
N4 0.0328(17) 0.0355(17) 0.0261(16) -0.0106(14) -0.0015(13) 0.0114(14)
C1 0.0152(14) 0.0202(14) 0.0201(15) 0.0014(12) 0.0002(12) 0.0025(12)
C2 0.0219(16) 0.0174(14) 0.0169(15) -0.0006(12) 0.0037(12) -0.0023(12)
C3 0.0172(15) 0.0191(15) 0.0165(16) 0.0006(12) 0.0026(12) 0.0016(12)
C4 0.0187(15) 0.0234(15) 0.0159(14) 0.0003(13) 0.0020(12) 0.0018(13)
C5 0.0202(15) 0.0201(16) 0.0190(16) -0.0036(13) 0.0040(13) -0.0034(13)
C6 0.0214(16) 0.0192(15) 0.0213(16) -0.0023(12) 0.0057(13) 0.0009(12)
C7 0.0245(17) 0.0186(15) 0.0176(15) -0.0020(13) 0.0048(13) -0.0041(13)
C8 0.0163(14) 0.0238(16) 0.0186(16) 0.0018(12) 0.0020(12) 0.0048(12)
C9 0.0189(15) 0.0215(15) 0.0177(15) -0.0022(12) 0.0025(12) 0.0052(13)
C10 0.0207(15) 0.0268(17) 0.0154(14) 0.0005(13) -0.0008(12) 0.0005(13)
C11 0.0219(16) 0.0195(16) 0.0188(16) -0.0017(13) 0.0001(12) 0.0007(13)
C12 0.0225(15) 0.0277(18) 0.0200(15) -0.0008(14) -0.0015(12) 0.0035(14)
Cu1A 0.0222 0.0221 0.018 -0.0012 -3e-05 -0.001
Cu1B 0.0222 0.0221 0.018 0.0012 -3e-05 0.001
Cu1C 0.0222 0.0221 0.018 -0.0012 -3e-05 -0.001
N1A 0.0268 0.0233 0.0182 0.0006 -0.004 -0.0016
N2B 0.0291 0.0289 0.0198 -0.0043 -0.0018 0.0048
N4C 0.0328 0.0355 0.0261 0.0106 -0.0015 -0.0114
O1 0.0387(17) 0.0365(14) 0.0290(14) -0.0020(11) 0.0020(12) 0.0157(13)
O2 0.0340(15) 0.0497(17) 0.0205(12) -0.0046(12) -0.0002(10) 0.0101(13)
N5 0.0216(13) 0.0196(13) 0.0221(14) 0.0001(10) 0.0043(11) 0.0028(10)
N6 0.0265(15) 0.0337(16) 0.0235(14) -0.0014(12) 0.0026(12) 0.0036(13)
C13 0.0261(16) 0.0320(17) 0.0177(15) 0.0038(13) 0.0008(12) 0.0027(14)
C14 0.0240(16) 0.0223(15) 0.0251(17) 0.0035(13) 0.0012(13) 0.0023(14)
C15 0.0253(17) 0.0262(16) 0.0267(17) 0.0002(14) 0.0071(14) -0.0015(14)
C16 0.0209(15) 0.0241(15) 0.0217(16) 0.0053(12) 0.0049(12) 0.0004(13)
N7 0.048(2) 0.050(2) 0.0299(18) 0.0002(16) 0.0076(16) 0.0146(18)
C17 0.0286(18) 0.0353(19) 0.0247(17) -0.0053(15) -0.0012(14) 0.0045(16)
C18 0.0255(17) 0.0264(16) 0.0272(18) -0.0042(14) 0.0060(14) -0.0015(14)
C19 0.0219(16) 0.0313(18) 0.0235(17) 0.0013(13) 0.0065(13) -0.0014(13)
C20 0.0275(18) 0.0254(17) 0.0224(18) 0.0054(13) 0.0032(15) 0.0033(14)
C21 0.034(2) 0.036(2) 0.0230(17) 0.0038(15) 0.0023(15) 0.0148(15)
C22 0.0334(19) 0.0324(18) 0.0212(17) 0.0031(14) 0.0003(14) 0.0122(15)
C23 0.038(2) 0.0321(19) 0.0281(19) 0.0066(15) 0.0129(16) 0.0040(17)
loop_
_geom_bond_atom_site_label_1
_geom_bond_atom_site_label_2
_geom_bond_site_symmetry_1
_geom_bond_site_symmetry_2
Cu1 N3 1_555 1_555
F1 C8 1_555 1_555
F2 C9 1_555 1_555
F3 C1 1_555 1_555
F4 C6 1_555 1_555
N1 C7 1_555 1_555
N2 C10 1_555 1_555
N3 C5 1_555 1_555
N4 C12 1_555 1_555
C1 C3 1_555 1_555
C2 C6 1_555 1_555
C3 C4 1_555 1_555
C4 C5 1_555 1_555
C6 C1 1_555 1_555
C7 C11 1_555 1_555
C8 C2 1_555 1_555
C9 C3 1_555 1_555
C10 C4 1_555 1_555
C11 C2 1_555 1_555
C12 C11 1_555 1_555
O1 N6 1_555 1_555
O2 N6 1_555 1_555
N5 C15 1_555 1_555
N6 C19 1_555 1_555
C13 H1 1_555 1_555
C14 C13 1_555 1_555
H2 C14 1_555 1_555
C15 H3 1_555 1_555
C16 C14 1_555 1_555
N7 C17 1_555 1_555
C17 H4 1_555 1_555
C18 N5 1_555 1_555
H5 C18 1_555 1_555
C19 C13 1_555 1_555
C20 N5 1_555 1_555
H6 C20 1_555 1_555
H7 C20 1_555 1_555
C21 C19 1_555 1_555
H8 C21 1_555 1_555
C22 C16 1_555 1_555
H9 C22 1_555 1_555
C23 C15 1_555 1_555
H10 C23 1_555 1_555
Cu1A N1 1_555 1_555
Cu1B N2 1_555 1_555
Cu1C N4 1_555 1_555
N1A Cu1 1_555 1_555
N2B Cu1 1_555 1_555
N4C Cu1 1_555 1_555
C8 C9 1_555 1_555
C16 C20 1_555 1_555
N7 C23 1_555 1_555
C17 C18 1_555 1_555
C21 C22 1_555 1_555

#END
