
#######################################################################
#
#                 Cambridge Crystallographic Data Centre
#                                CCDC 
#
#######################################################################
#
# If this CIF has been generated from an entry in the Cambridge 
# Structural Database, then it will include bibliographic, chemical, 
# crystal, experimental, refinement or atomic coordinate data resulting 
# from the CCDC's data processing and validation procedures.
#
#######################################################################

data_DABMUR
_chemical_formula_moiety         '(C50 H59 Cu2 F8 N11)n'
_symmetry_cell_setting           monoclinic
_symmetry_space_group_name_H-M   'P 21/c'
_symmetry_Int_Tables_number      14
_space_group_name_Hall           '-P 2ybc'
loop_
_symmetry_equiv_pos_site_id
_symmetry_equiv_pos_as_xyz
1 x,y,z
2 -x,1/2+y,1/2-z
3 -x,-y,-z
4 x,1/2-y,1/2+z
_cell_length_a                   21.8518(11)
_cell_length_b                   14.1610(8)
_cell_length_c                   17.9185(10)
_cell_angle_alpha                90
_cell_angle_beta                 108.165(5)
_cell_angle_gamma                90
_cell_volume                     5268.42
loop_
_atom_site_label
_atom_site_type_symbol
_atom_site_fract_x
_atom_site_fract_y
_atom_site_fract_z
F1 F 0.91719(10) 0.45798(15) 0.72994(14)
Cu1 Cu 0.81063(3) 0.38194(4) 0.47626(3)
Cu2 Cu 0.75179(2) 0.89546(4) 0.58471(3)
F2 F 1.02449(10) 0.45921(16) 0.84971(14)
F3 F 0.93462(10) 0.78807(15) 0.70343(14)
F4 F 1.04117(10) 0.78880(16) 0.82299(14)
F5 F 0.59428(12) 0.4358(3) 0.35870(14)
F6 F 0.58148(11) 0.4531(2) 0.09173(14)
N1 N 0.31310(15) 0.3917(3) 0.0199(2)
N2 N 0.74352(16) 0.3975(3) 0.3780(2)
F7 F 0.46817(12) 0.4215(3) 0.31862(15)
N3 N 1.14484(16) 0.7659(3) 0.9899(2)
C1 C 0.49490(19) 0.4289(3) 0.2607(2)
F8 F 0.45596(12) 0.4438(3) 0.05153(14)
C2 C 1.00387(17) 0.5417(3) 0.8132(2)
C3 C 0.34747(17) 0.4059(3) 0.0815(2)
C4 C 0.86121(17) 0.6225(3) 0.6448(2)
N4 N 0.78824(16) 0.7684(3) 0.6172(2)
N5 N 0.71827(16) 0.5427(3) 0.1633(2)
C5 C 1.10036(17) 0.6226(3) 0.9040(2)
N6 N 1.17673(15) 0.4818(3) 0.9202(2)
C6 C 0.92075(17) 0.6226(3) 0.7098(2)
C7 C 1.12433(17) 0.7017(3) 0.9509(2)
C8 C 0.95558(17) 0.7052(3) 0.7385(2)
C9 C 1.14190(17) 0.5445(3) 0.9138(2)
C10 C 0.66458(18) 0.4523(3) 0.2488(2)
C11 C 1.03934(17) 0.6239(3) 0.8409(2)
C12 C 0.70658(17) 0.4213(3) 0.3210(2)
C13 C 0.55470(18) 0.4463(3) 0.1501(2)
C14 C 0.56090(19) 0.4362(3) 0.2810(2)
C15 C 0.45501(18) 0.4310(3) 0.1830(2)
C16 C 1.01158(17) 0.7053(3) 0.8010(2)
C17 C 0.48864(19) 0.4408(3) 0.1291(2)
C18 C 0.94828(17) 0.5414(3) 0.7510(2)
C19 C 0.84479(18) 0.5477(3) 0.5920(2)
C20 C 0.82011(18) 0.7020(3) 0.6290(2)
N7 N 0.83158(18) 0.4871(3) 0.5465(2)
C21 C 0.69391(17) 0.5010(3) 0.2015(2)
C22 C 0.38505(19) 0.4220(3) 0.1591(2)
C23 C 0.59410(17) 0.4447(3) 0.2274(2)
C24 C 0.3500(2) 0.4275(4) 0.2127(3)
N8 N 0.3171(2) 0.4296(5) 0.2521(3)
Cu1A Cu 1.18937(3) 0.88194(4) 1.02374(3)
Cu2A Cu 0.24821(2) 0.39546(4) -0.08471(3)
Cu2A_2 Cu 1.24821(2) 0.39546(4) 0.91529(3)
Cu2C Cu 0.75179(2) 0.60454(4) 0.08471(3)
N1A N 0.68690(15) 0.8917(3) 0.4801(2)
N3A N 0.85516(16) 0.2659(3) 0.5101(2)
N5C N 0.71827(16) 0.9573(3) 0.6633(2)
N6A N 0.82327(15) 0.9818(3) 0.5798(2)
C25 C 0.3681(3) 0.5162(4) 0.4472(4)
H1 H 0.3817 0.5470 0.4994
H2 H 0.4058 0.5129 0.4278
C26 C 0.1658(3) 0.7558(6) 0.2417(4)
H3 H 0.1746 0.8237 0.2477
H4 H 0.1203 0.7443 0.2357
H5 H 0.1756 0.7327 0.1952
C27 C 0.2069(3) 0.7052(5) 0.3128(4)
H6 H 0.1980 0.7297 0.3602
H7 H 0.1964 0.6369 0.3082
C28 C 0.3419(4) 0.4152(5) 0.4535(4)
H8 H 0.3074 0.4188 0.4774
H9 H 0.3769 0.3756 0.4860
H10 H 0.3251 0.3876 0.4008
C29 C 0.4066(3) 0.6648(5) 0.3134(6)
H11 H 0.3817 0.7011 0.2666
H12 H 0.3936 0.5976 0.3049
C30 C 0.4791(4) 0.6744(6) 0.3248(8)
H13 H 0.4934 0.7382 0.3432
H14 H 0.4871 0.6628 0.2748
H15 H 0.5029 0.6282 0.3638
C31 C 0.3923(3) 0.7020(5) 0.3861(6)
H16 H 0.4249 0.6760 0.4332
H17 H 0.3974 0.7715 0.3876
N9 N 0.3265(2) 0.6789(3) 0.3910(3)
C32 C 0.3145(3) 0.5721(4) 0.3906(3)
H18 H 0.2742 0.5610 0.4036
H19 H 0.3078 0.5478 0.3369
C33 C 0.3085(3) 0.8463(4) 0.5551(4)
H20 H 0.2730 0.8110 0.5643
H21 H 0.3009 0.9142 0.5583
H22 H 0.3490 0.8290 0.5950
C34 C 0.3175(3) 0.7172(4) 0.4679(4)
H23 H 0.2780 0.6888 0.4741
H24 H 0.3543 0.6955 0.5126
C35 C 0.2762(3) 0.7188(5) 0.3209(4)
H25 H 0.2839 0.7876 0.3201
H26 H 0.2836 0.6918 0.2735
C36 C 0.3127(3) 0.8224(4) 0.4730(5)
H27 H 0.2738 0.8456 0.4320
H28 H 0.3509 0.8529 0.4651
C37 C 0.4081(4) 0.2041(6) 0.3828(6)
H29 H 0.3882 0.2572 0.3489
H30 H 0.3923 0.2022 0.4284
H31 H 0.3968 0.1449 0.3533
C38 C 0.4732(5) 0.2149(9) 0.4078(8)
N10 N 0.5240(12) 0.2057(19) 0.4001(16)
N12 N 0.84910(16) 0.7626(2) 0.89752(19)
C39 C 0.8673(2) 0.8298(3) 0.8422(2)
H32 H 0.8344 0.8248 0.7900
H33 H 0.9087 0.8084 0.8364
C40 C 0.89835(19) 0.7647(3) 0.9787(2)
H34 H 0.8846 0.7195 1.0125
H35 H 0.8980 0.8285 1.0011
C41 C 0.8452(2) 0.6660(3) 0.8606(3)
H36 H 0.8863 0.6537 0.8500
H37 H 0.8108 0.6673 0.8093
C42 C 0.9675(2) 0.7409(4) 0.9827(3)
H38 H 0.9695 0.6756 0.9637
H39 H 0.9821 0.7845 0.9485
C43 C 0.8321(2) 0.5841(3) 0.9082(3)
H40 H 0.8650 0.5836 0.9608
H41 H 0.7894 0.5925 0.9155
C44 C 0.8995(3) 0.9880(4) 0.8087(3)
H42 H 0.8701 0.9798 0.7552
H43 H 0.9423 0.9644 0.8116
H44 H 0.9023 1.0551 0.8226
C45 C 0.78520(19) 0.7910(3) 0.9090(3)
H45 H 0.7745 0.7441 0.9440
H46 H 0.7911 0.8527 0.9362
C46 C 0.6694(2) 0.8310(4) 0.8566(4)
H47 H 0.6768 0.8945 0.8792
H48 H 0.6615 0.7872 0.8949
H49 H 0.6318 0.8318 0.8091
C47 C 1.0111(2) 0.7500(4) 1.0672(3)
H50 H 0.9959 0.7076 1.1009
H51 H 1.0102 0.8153 1.0849
H52 H 1.0552 0.7330 1.0701
C48 C 0.8741(2) 0.9330(3) 0.8658(3)
H53 H 0.9042 0.9395 0.9198
H54 H 0.8317 0.9586 0.8650
C49 C 0.8338(3) 0.4908(4) 0.8675(3)
H55 H 0.8771 0.4802 0.8638
H56 H 0.8026 0.4923 0.8146
H57 H 0.8227 0.4394 0.8977
C50 C 0.7291(2) 0.7986(4) 0.8352(3)
H58 H 0.7206 0.7365 0.8085
H59 H 0.7389 0.8446 0.7990
loop_
_geom_bond_atom_site_label_1
_geom_bond_atom_site_label_2
_geom_bond_site_symmetry_1
_geom_bond_site_symmetry_2
F1 C18 1_555 1_555
Cu1 N2 1_555 1_555
Cu2 N4 1_555 1_555
F2 C2 1_555 1_555
F3 C8 1_555 1_555
F4 C16 1_555 1_555
F5 C14 1_555 1_555
F6 C13 1_555 1_555
N1 C3 1_555 1_555
N2 C12 1_555 1_555
F7 C1 1_555 1_555
N3 C7 1_555 1_555
C1 C14 1_555 1_555
F8 C17 1_555 1_555
C2 C11 1_555 1_555
C3 C22 1_555 1_555
C4 C6 1_555 1_555
N4 C20 1_555 1_555
N5 C21 1_555 1_555
C5 C7 1_555 1_555
N6 C9 1_555 1_555
C6 C8 1_555 1_555
C8 C16 1_555 1_555
C9 C5 1_555 1_555
C10 C12 1_555 1_555
C11 C5 1_555 1_555
C13 C17 1_555 1_555
C14 C23 1_555 1_555
C15 C1 1_555 1_555
C16 C11 1_555 1_555
C17 C15 1_555 1_555
C18 C2 1_555 1_555
C19 C4 1_555 1_555
C20 C4 1_555 1_555
N7 Cu1 1_555 1_555
C21 C10 1_555 1_555
C22 C15 1_555 1_555
C23 C10 1_555 1_555
C24 C22 1_555 1_555
N8 C24 1_555 1_555
C25 H1 1_555 1_555
H2 C25 1_555 1_555
C26 H3 1_555 1_555
H4 C26 1_555 1_555
H5 C26 1_555 1_555
C27 C26 1_555 1_555
H6 C27 1_555 1_555
H7 C27 1_555 1_555
C28 C25 1_555 1_555
H8 C28 1_555 1_555
H9 C28 1_555 1_555
H10 C28 1_555 1_555
C29 H11 1_555 1_555
H12 C29 1_555 1_555
C30 C29 1_555 1_555
H13 C30 1_555 1_555
H14 C30 1_555 1_555
H15 C30 1_555 1_555
C31 C29 1_555 1_555
H16 C31 1_555 1_555
H17 C31 1_555 1_555
N9 C31 1_555 1_555
C32 C25 1_555 1_555
H18 C32 1_555 1_555
H19 C32 1_555 1_555
C33 H20 1_555 1_555
H21 C33 1_555 1_555
H22 C33 1_555 1_555
C34 N9 1_555 1_555
H23 C34 1_555 1_555
H24 C34 1_555 1_555
C35 C27 1_555 1_555
H25 C35 1_555 1_555
H26 C35 1_555 1_555
C36 C33 1_555 1_555
H27 C36 1_555 1_555
H28 C36 1_555 1_555
C37 H29 1_555 1_555
H30 C37 1_555 1_555
H31 C37 1_555 1_555
C38 C37 1_555 1_555
N10 C38 1_555 1_555
N12 C39 1_555 1_555
C39 H32 1_555 1_555
H33 C39 1_555 1_555
C40 N12 1_555 1_555
H34 C40 1_555 1_555
H35 C40 1_555 1_555
C41 N12 1_555 1_555
H36 C41 1_555 1_555
H37 C41 1_555 1_555
C42 C40 1_555 1_555
H38 C42 1_555 1_555
H39 C42 1_555 1_555
C43 C41 1_555 1_555
H40 C43 1_555 1_555
H41 C43 1_555 1_555
C44 H42 1_555 1_555
H43 C44 1_555 1_555
H44 C44 1_555 1_555
C45 N12 1_555 1_555
H45 C45 1_555 1_555
H46 C45 1_555 1_555
C46 H47 1_555 1_555
H48 C46 1_555 1_555
H49 C46 1_555 1_555
C47 C42 1_555 1_555
H50 C47 1_555 1_555
H51 C47 1_555 1_555
H52 C47 1_555 1_555
C48 C39 1_555 1_555
H53 C48 1_555 1_555
H54 C48 1_555 1_555
C49 C43 1_555 1_555
H55 C49 1_555 1_555
H56 C49 1_555 1_555
H57 C49 1_555 1_555
C50 C45 1_555 1_555
H58 C50 1_555 1_555
H59 C50 1_555 1_555
Cu1A N3 1_555 1_555
Cu2A N1 1_555 1_555
Cu2A_2 N6 1_555 1_555
Cu2C N5 1_555 1_555
N1A Cu2 1_555 1_555
N3A Cu1 1_555 1_555
N5C Cu2 1_555 1_555
N6A Cu2 1_555 1_555
C6 C18 1_555 1_555
C13 C23 1_555 1_555
C19 N7 1_555 1_555
N9 C32 1_555 1_555
N9 C35 1_555 1_555
C34 C36 1_555 1_555
C44 C48 1_555 1_555
C46 C50 1_555 1_555

#END
