
#######################################################################
#
#                 Cambridge Crystallographic Data Centre
#                                CCDC 
#
#######################################################################
#
# If this CIF has been generated from an entry in the Cambridge 
# Structural Database, then it will include bibliographic, chemical, 
# crystal, experimental, refinement or atomic coordinate data resulting 
# from the CCDC's data processing and validation procedures.
#
#######################################################################

data_DUNXUH12
_chemical_formula_moiety         '(C14 H14 N2 O7 S1 Zn1)n'
_symmetry_cell_setting           monoclinic
_symmetry_space_group_name_H-M   'P 21/c'
_symmetry_Int_Tables_number      14
_space_group_name_Hall           '-P 2ybc'
loop_
_symmetry_equiv_pos_site_id
_symmetry_equiv_pos_as_xyz
1 x,y,z
2 -x,1/2+y,1/2-z
3 -x,-y,-z
4 x,1/2-y,1/2+z
_cell_length_a                   11.2208(6)
_cell_length_b                   11.7575(6)
_cell_length_c                   16.2014(7)
_cell_angle_alpha                90
_cell_angle_beta                 129.170(2)
_cell_angle_gamma                90
_cell_volume                     1657.09
loop_
_atom_site_label
_atom_site_type_symbol
_atom_site_fract_x
_atom_site_fract_y
_atom_site_fract_z
_atom_site_U_iso_or_equiv
_atom_site_thermal_displace_type
C1 C 0.14139(19) 0.89786(15) 0.76811(13) 0.0159 Uani
C2 C 0.08262(19) 0.80964(15) 0.69543(13) 0.0159 Uani
H1 H -0.0229 0.7896 0.6535 0.0190 Uiso
C3 C 0.17933(18) 0.75022(14) 0.68409(13) 0.0139 Uani
C4 C 0.11735(19) 0.65260(14) 0.60829(13) 0.0146 Uani
C5 C 0.33324(18) 0.78111(14) 0.74456(13) 0.0145 Uani
H2 H 0.3988 0.7411 0.7364 0.0170 Uiso
C6 C 0.39137(18) 0.87056(15) 0.81701(13) 0.0152 Uani
C7 C 0.29608(19) 0.92870(15) 0.82979(13) 0.0163 Uani
H3 H 0.3358 0.9888 0.8800 0.0200 Uiso
C8 C 0.55629(19) 0.90426(16) 0.88083(13) 0.0177 Uani
O1 O 0.06257(14) 0.92962(11) 0.88580(10) 0.0196 Uani
O2 O -0.13457(16) 0.94593(16) 0.69587(11) 0.0375 Uani
O3 O 0.0627(2) 1.09171(13) 0.79465(15) 0.0393 Uani
O4 O 0.21356(14) 0.57973(11) 0.62538(10) 0.0189 Uani
O5 O -0.02505(13) 0.64972(11) 0.53341(9) 0.0171 Uani
O6 O 0.64157(14) 0.85206(12) 0.86877(11) 0.0240 Uani
O7 O 0.60741(15) 0.98591(13) 0.94572(11) 0.0276 Uani
S1 S 0.02166(5) 0.97378(4) 0.78514(4) 0.0192 Uani
Zn1 Zn 0.17658(2) 1.02717(2) 1.01763(2) 0.0133 Uani
O4C O 0.21356(14) 0.92027(11) 1.12538(10) 0.0189 Uani
O5A O 0.02505(13) 1.14972(11) 0.96659(9) 0.0171 Uani
O6B O 0.35843(14) 1.14794(12) 1.13123(11) 0.0240 Uani
O7B O 0.39259(15) 1.01409(13) 1.05428(11) 0.0276 Uani
Zn1A Zn -0.17658(2) 0.52717(2) 0.48237(2) 0.0133 Uani
Zn1B Zn 0.82342(2) 0.97283(2) 0.98237(2) 0.0133 Uani
Zn1C Zn 0.17658(2) 0.47283(2) 0.51763(2) 0.0133 Uani
C9 C 0.2945(4) 0.2409(2) 0.7794(3) 0.0533 Uani
H4 H 0.2216 0.2861 0.7152 0.0800 Uiso
H5 H 0.2461 0.2175 0.8102 0.0800 Uiso
H6 H 0.3243 0.1732 0.7609 0.0800 Uiso
C10 C 0.6614(3) 0.3603(2) 0.9988(2) 0.0493 Uani
H7 H 0.7625 0.3600 1.0652 0.0590 Uiso
C11 C 0.5646(4) 0.2715(2) 0.9522(2) 0.0488 Uani
H8 H 0.5847 0.1965 0.9798 0.0590 Uiso
C12 C 0.7873(4) 0.5609(3) 0.9463(2) 0.0576 Uani
H9 H 0.8692 0.5148 1.0067 0.0870 Uiso
H10 H 0.8258 0.6380 0.9528 0.0870 Uiso
H11 H 0.7547 0.5265 0.8798 0.0870 Uiso
C13 C 0.6517(3) 0.5664(2) 0.94561(18) 0.0446 Uani
H12 H 0.6855 0.5995 1.0136 0.0530 Uiso
H13 H 0.5716 0.6167 0.8871 0.0530 Uiso
C14 C 0.4472(3) 0.41863(19) 0.84652(17) 0.0319 Uani
H14 H 0.3722 0.4653 0.7879 0.0380 Uiso
N1 N 0.4310(3) 0.30905(16) 0.85695(16) 0.0371 Uani
N2 N 0.5856(2) 0.45228(16) 0.93154(15) 0.0360 Uani
loop_
_atom_site_aniso_label
_atom_site_aniso_U_11
_atom_site_aniso_U_22
_atom_site_aniso_U_33
_atom_site_aniso_U_23
_atom_site_aniso_U_13
_atom_site_aniso_U_12
C1 0.0151(8) 0.0178(8) 0.0169(8) 0.0015(6) 0.0111(7) 0.0022(6)
C2 0.0123(7) 0.0183(8) 0.0165(8) 0.0009(6) 0.0088(6) -0.0003(6)
C3 0.0136(7) 0.0142(8) 0.0136(7) -0.0003(6) 0.0084(6) -0.0009(6)
C4 0.0149(7) 0.0150(8) 0.0143(8) 0.0002(6) 0.0094(7) -0.0020(6)
C5 0.0133(7) 0.0154(8) 0.0153(8) 0.0010(6) 0.0092(6) 0.0010(6)
C6 0.0126(7) 0.0179(8) 0.0133(7) -0.0006(6) 0.0073(6) -0.0020(6)
C7 0.0166(8) 0.0175(8) 0.0141(8) -0.0023(6) 0.0093(7) -0.0010(7)
C8 0.0128(7) 0.0223(9) 0.0135(8) 0.0016(7) 0.0062(6) -0.0026(7)
O1 0.0201(6) 0.0228(6) 0.0183(6) -0.0041(5) 0.0132(5) -0.0035(5)
O2 0.0163(6) 0.0702(12) 0.0200(7) -0.0037(7) 0.0086(6) 0.0128(7)
O3 0.0647(11) 0.0201(7) 0.0678(11) 0.0071(7) 0.0584(10) 0.0100(7)
O4 0.0172(6) 0.0176(6) 0.0176(6) -0.0034(5) 0.0089(5) 0.0010(5)
O5 0.0121(5) 0.0180(6) 0.0153(6) -0.0008(5) 0.0058(5) -0.0028(5)
O6 0.0128(6) 0.0227(7) 0.0323(7) -0.0039(6) 0.0123(5) -0.0013(5)
O7 0.0196(6) 0.0393(8) 0.0245(7) -0.0182(6) 0.0142(6) -0.0151(6)
S1 0.0186(2) 0.0232(2) 0.0194(2) 0.00116(17) 0.01374(18) 0.00523(17)
Zn1 0.00984(10) 0.01383(10) 0.01422(10) 0.00100(7) 0.00668(8) 0.00039(7)
O4C 0.0172 0.0176 0.0176 0.0034 0.0089 -0.001
O5A 0.0121 0.018 0.0153 0.0008 0.0058 0.0028
O6B 0.0128 0.0227 0.0323 -0.0039 0.0123 -0.0013
O7B 0.0196 0.0393 0.0245 -0.0182 0.0142 -0.0151
Zn1A 0.00984 0.01383 0.01422 -0.001 0.00668 -0.00039
Zn1B 0.00984 0.01383 0.01422 0.001 0.00668 0.00039
Zn1C 0.00984 0.01383 0.01422 -0.001 0.00668 -0.00039
C9 0.0682(19) 0.0426(15) 0.0685(19) -0.0148(14) 0.0524(17) -0.0233(14)
C10 0.0641(17) 0.0323(13) 0.0329(13) 0.0135(10) 0.0218(13) 0.0076(12)
C11 0.081(2) 0.0281(12) 0.0480(15) 0.0100(11) 0.0458(15) 0.0060(13)
C12 0.082(2) 0.0465(16) 0.0405(15) -0.0093(13) 0.0369(15) -0.0242(15)
C13 0.0538(15) 0.0245(11) 0.0228(11) -0.0003(9) 0.0087(11) -0.0044(11)
C14 0.0441(12) 0.0277(11) 0.0277(10) -0.0002(9) 0.0245(10) 0.0005(9)
N1 0.0563(12) 0.0300(10) 0.0405(11) -0.0034(8) 0.0379(10) -0.0069(9)
N2 0.0476(11) 0.0246(9) 0.0224(9) 0.0043(7) 0.0157(9) 0.0028(8)
loop_
_geom_bond_atom_site_label_1
_geom_bond_atom_site_label_2
_geom_bond_site_symmetry_1
_geom_bond_site_symmetry_2
C1 C2 1_555 1_555
C2 H1 1_555 1_555
C3 C2 1_555 1_555
C4 C3 1_555 1_555
C5 C3 1_555 1_555
H2 C5 1_555 1_555
C6 C5 1_555 1_555
C7 C1 1_555 1_555
H3 C7 1_555 1_555
C8 C6 1_555 1_555
O1 S1 1_555 1_555
O2 S1 1_555 1_555
O3 S1 1_555 1_555
O4 C4 1_555 1_555
O5 C4 1_555 1_555
O6 C8 1_555 1_555
O7 C8 1_555 1_555
S1 C1 1_555 1_555
Zn1 O1 1_555 1_555
C9 H4 1_555 1_555
H5 C9 1_555 1_555
H6 C9 1_555 1_555
C10 H7 1_555 1_555
C11 C10 1_555 1_555
H8 C11 1_555 1_555
C12 H9 1_555 1_555
H10 C12 1_555 1_555
H11 C12 1_555 1_555
C13 C12 1_555 1_555
H12 C13 1_555 1_555
H13 C13 1_555 1_555
C14 H14 1_555 1_555
N1 C9 1_555 1_555
N2 C10 1_555 1_555
O4C Zn1 1_555 1_555
O5A Zn1 1_555 1_555
O6B Zn1 1_555 1_555
O7B Zn1 1_555 1_555
Zn1A O5 1_555 1_555
Zn1B O6 1_555 1_555
Zn1C O4 1_555 1_555
C6 C7 1_555 1_555
O7 Zn1B 1_555 1_555
C11 N1 1_555 1_555
C13 N2 1_555 1_555
C14 N1 1_555 1_555
C14 N2 1_555 1_555

#END
