
#######################################################################
#
#                 Cambridge Crystallographic Data Centre
#                                CCDC 
#
#######################################################################
#
# If this CIF has been generated from an entry in the Cambridge 
# Structural Database, then it will include bibliographic, chemical, 
# crystal, experimental, refinement or atomic coordinate data resulting 
# from the CCDC's data processing and validation procedures.
#
#######################################################################

data_DUNXUH15
_chemical_formula_moiety         '(C14 H14 N2 O7 S1 Zn1)n'
_symmetry_cell_setting           monoclinic
_symmetry_space_group_name_H-M   'P 21/c'
_symmetry_Int_Tables_number      14
_space_group_name_Hall           '-P 2ybc'
loop_
_symmetry_equiv_pos_site_id
_symmetry_equiv_pos_as_xyz
1 x,y,z
2 -x,1/2+y,1/2-z
3 -x,-y,-z
4 x,1/2-y,1/2+z
_cell_length_a                   11.2896(14)
_cell_length_b                   12.1049(15)
_cell_length_c                   16.1579(15)
_cell_angle_alpha                90
_cell_angle_beta                 129.914(6)
_cell_angle_gamma                90
_cell_volume                     1693.65
loop_
_atom_site_label
_atom_site_type_symbol
_atom_site_fract_x
_atom_site_fract_y
_atom_site_fract_z
_atom_site_U_iso_or_equiv
_atom_site_thermal_displace_type
C1 C 0.1424(2) 0.88760(16) 0.76817(16) 0.0323 Uani
C2 C 0.0841(2) 0.79981(16) 0.69741(16) 0.0316 Uani
H1 H -0.0187 0.7789 0.6573 0.0380 Uiso
C3 C 0.1806(2) 0.74280(15) 0.68670(16) 0.0284 Uani
C4 C 0.1188(2) 0.64697(15) 0.61139(16) 0.0296 Uani
C5 C 0.3332(2) 0.77595(16) 0.74595(16) 0.0309 Uani
H2 H 0.3975 0.7382 0.7383 0.0370 Uiso
C6 C 0.3906(2) 0.86466(17) 0.81628(16) 0.0317 Uani
C7 C 0.2952(2) 0.92008(17) 0.82820(17) 0.0339 Uani
H3 H 0.3334 0.9788 0.8762 0.0410 Uiso
C8 C 0.5548(2) 0.90091(18) 0.87808(17) 0.0384 Uani
O1 O 0.07275(18) 0.92555(13) 0.88927(13) 0.0446 Uani
O2 O -0.1331(2) 0.9295(2) 0.69747(16) 0.0771 Uani
O3 O 0.0555(3) 1.07636(15) 0.7855(2) 0.0758 Uani
O4 O 0.21577(17) 0.57855(12) 0.62742(12) 0.0420 Uani
O5 O -0.02400(16) 0.64136(11) 0.53737(11) 0.0367 Uani
O6 O 0.63801(18) 0.85421(15) 0.86478(16) 0.0584 Uani
O7 O 0.6055(2) 0.98005(17) 0.94240(16) 0.0654 Uani
S1 S 0.02288(7) 0.96245(5) 0.78418(5) 0.0421 Uani
Zn1 Zn 0.17868(2) 1.02471(2) 1.01903(2) 0.0291 Uani
O4C O 0.21577(17) 0.92145(12) 1.12742(12) 0.0420 Uani
O5A O 0.02400(16) 1.14136(11) 0.96263(11) 0.0367 Uani
O6B O 0.36199(18) 1.14579(15) 1.13522(16) 0.0584 Uani
O7B O 0.3945(2) 1.01995(17) 1.05760(16) 0.0654 Uani
Zn1A Zn -0.17868(2) 0.52471(2) 0.48097(2) 0.0291 Uani
Zn1B Zn 0.82132(2) 0.97529(2) 0.98097(2) 0.0291 Uani
Zn1C Zn 0.17868(2) 0.47529(2) 0.51903(2) 0.0291 Uani
C9 C 0.3139(7) 0.2285(4) 0.7975(5) 0.1507 Uani
H4 H 0.2363 0.2683 0.7326 0.2260 Uiso
H5 H 0.2736 0.2071 0.8324 0.2260 Uiso
H6 H 0.3431 0.1638 0.7800 0.2260 Uiso
C10 C 0.6785(6) 0.3591(4) 1.0010(4) 0.1185 Uani
H7 H 0.7812 0.3635 1.0635 0.1420 Uiso
C11 C 0.5904(7) 0.2693(4) 0.9611(4) 0.1167 Uani
H8 H 0.6207 0.1987 0.9906 0.1410 Uiso
C12 C 0.7638(10) 0.5629(5) 0.9337(6) 0.1914 Uani
H9 H 0.8465 0.5148 0.9872 0.2860 Uiso
H10 H 0.8017 0.6372 0.9462 0.2860 Uiso
H11 H 0.7238 0.5394 0.8633 0.2860 Uiso
C13 C 0.6378(6) 0.5587(4) 0.9408(3) 0.1170 Uani
H12 H 0.6747 0.5899 1.0090 0.1400 Uiso
H13 H 0.5506 0.6024 0.8830 0.1400 Uiso
C14 C 0.4510(5) 0.4044(3) 0.8540(3) 0.0743 Uani
H14 H 0.3683 0.4452 0.7966 0.0890 Uiso
N1 N 0.4485(5) 0.2988(2) 0.8696(3) 0.0897 Uani
N2 N 0.5886(4) 0.4438(2) 0.9323(2) 0.0842 Uani
loop_
_atom_site_aniso_label
_atom_site_aniso_U_11
_atom_site_aniso_U_22
_atom_site_aniso_U_33
_atom_site_aniso_U_23
_atom_site_aniso_U_13
_atom_site_aniso_U_12
C1 0.0297(11) 0.0360(10) 0.0329(11) -0.0014(9) 0.0209(9) 0.0017(8)
C2 0.0211(9) 0.0369(10) 0.0324(10) -0.0027(9) 0.0151(8) -0.0038(8)
C3 0.0241(9) 0.0291(9) 0.0296(10) -0.0025(8) 0.0161(8) -0.0033(8)
C4 0.0269(10) 0.0301(9) 0.0310(10) -0.0016(8) 0.0182(9) -0.0044(8)
C5 0.0236(10) 0.0351(10) 0.0337(11) -0.0024(9) 0.0183(9) -0.0012(8)
C6 0.0233(10) 0.0370(10) 0.0306(10) -0.0042(9) 0.0154(9) -0.0068(8)
C7 0.0316(11) 0.0357(10) 0.0318(11) -0.0087(9) 0.0192(9) -0.0063(9)
C8 0.0268(11) 0.0478(12) 0.0326(11) -0.0003(10) 0.0154(9) -0.0106(9)
O1 0.0463(9) 0.0504(9) 0.0437(9) -0.0109(8) 0.0319(8) -0.0079(8)
O2 0.0302(10) 0.1311(18) 0.0545(11) -0.0233(13) 0.0201(9) 0.0140(11)
O3 0.1156(18) 0.0423(10) 0.1168(18) 0.0104(11) 0.0962(17) 0.0191(11)
O4 0.0328(8) 0.0385(8) 0.0407(8) -0.0118(7) 0.0172(7) 0.0010(7)
O5 0.0246(7) 0.0369(7) 0.0350(8) -0.0050(6) 0.0129(6) -0.0085(6)
O6 0.0267(9) 0.0588(10) 0.0820(13) -0.0118(10) 0.0314(9) -0.0073(8)
O7 0.0458(11) 0.0915(14) 0.0623(12) -0.0440(11) 0.0363(10) -0.0397(10)
S1 0.0356(3) 0.0510(3) 0.0424(3) -0.0038(3) 0.0262(3) 0.0078(2)
Zn1 0.01943(13) 0.02993(14) 0.03356(15) 0.00322(10) 0.01497(11) 0.00089(9)
O4C 0.0328 0.0385 0.0407 0.0118 0.0172 -0.001
O5A 0.0246 0.0369 0.035 0.005 0.0129 0.0085
O6B 0.0267 0.0588 0.082 -0.0118 0.0314 -0.0073
O7B 0.0458 0.0915 0.0623 -0.044 0.0363 -0.0397
Zn1A 0.01943 0.02993 0.03356 -0.00322 0.01497 -0.00089
Zn1B 0.01943 0.02993 0.03356 0.00322 0.01497 0.00089
Zn1C 0.01943 0.02993 0.03356 -0.00322 0.01497 -0.00089
C9 0.197(6) 0.093(3) 0.244(7) -0.049(4) 0.179(6) -0.053(4)
C10 0.132(4) 0.089(3) 0.080(3) 0.034(2) 0.043(3) 0.026(3)
C11 0.190(5) 0.071(3) 0.114(4) 0.038(3) 0.109(4) 0.034(3)
C12 0.320(10) 0.142(5) 0.187(6) -0.055(5) 0.197(7) -0.103(6)
C13 0.137(4) 0.071(2) 0.070(2) 0.000(2) 0.033(3) -0.011(3)
C14 0.097(3) 0.0618(18) 0.071(2) 0.0053(17) 0.057(2) 0.0083(18)
N1 0.140(3) 0.0606(16) 0.120(3) -0.0009(18) 0.107(3) -0.0048(19)
N2 0.097(2) 0.0668(16) 0.0573(16) 0.0147(14) 0.0351(17) 0.0091(16)
loop_
_geom_bond_atom_site_label_1
_geom_bond_atom_site_label_2
_geom_bond_site_symmetry_1
_geom_bond_site_symmetry_2
C1 C2 1_555 1_555
C2 H1 1_555 1_555
C3 C2 1_555 1_555
C4 C3 1_555 1_555
C5 C3 1_555 1_555
H2 C5 1_555 1_555
C6 C5 1_555 1_555
C7 C1 1_555 1_555
H3 C7 1_555 1_555
C8 C6 1_555 1_555
O1 S1 1_555 1_555
O2 S1 1_555 1_555
O3 S1 1_555 1_555
O4 C4 1_555 1_555
O5 C4 1_555 1_555
O6 C8 1_555 1_555
O7 C8 1_555 1_555
S1 C1 1_555 1_555
Zn1 O1 1_555 1_555
C9 H4 1_555 1_555
H5 C9 1_555 1_555
H6 C9 1_555 1_555
C10 H7 1_555 1_555
C11 C10 1_555 1_555
H8 C11 1_555 1_555
C12 H9 1_555 1_555
H10 C12 1_555 1_555
H11 C12 1_555 1_555
C13 C12 1_555 1_555
H12 C13 1_555 1_555
H13 C13 1_555 1_555
C14 H14 1_555 1_555
N1 C9 1_555 1_555
N2 C10 1_555 1_555
O4C Zn1 1_555 1_555
O5A Zn1 1_555 1_555
O6B Zn1 1_555 1_555
O7B Zn1 1_555 1_555
Zn1A O5 1_555 1_555
Zn1B O6 1_555 1_555
Zn1C O4 1_555 1_555
C6 C7 1_555 1_555
O7 Zn1B 1_555 1_555
C11 N1 1_555 1_555
C13 N2 1_555 1_555
C14 N1 1_555 1_555
C14 N2 1_555 1_555

#END
