
#######################################################################
#
#                 Cambridge Crystallographic Data Centre
#                                CCDC 
#
#######################################################################
#
# If this CIF has been generated from an entry in the Cambridge 
# Structural Database, then it will include bibliographic, chemical, 
# crystal, experimental, refinement or atomic coordinate data resulting 
# from the CCDC's data processing and validation procedures.
#
#######################################################################

data_DUNXUH21
_chemical_formula_moiety         '(C14 H14 N2 O7 S1 Zn1)n'
_symmetry_cell_setting           monoclinic
_symmetry_space_group_name_H-M   'P 21/c'
_symmetry_Int_Tables_number      14
_space_group_name_Hall           '-P 2ybc'
loop_
_symmetry_equiv_pos_site_id
_symmetry_equiv_pos_as_xyz
1 x,y,z
2 -x,1/2+y,1/2-z
3 -x,-y,-z
4 x,1/2-y,1/2+z
_cell_length_a                   11.3504(13)
_cell_length_b                   12.1923(13)
_cell_length_c                   16.1827(13)
_cell_angle_alpha                90
_cell_angle_beta                 130.491(5)
_cell_angle_gamma                90
_cell_volume                     1703.14
loop_
_atom_site_label
_atom_site_type_symbol
_atom_site_fract_x
_atom_site_fract_y
_atom_site_fract_z
_atom_site_U_iso_or_equiv
_atom_site_thermal_displace_type
C1 C 0.1427(2) 0.88482(18) 0.76806(18) 0.0382 Uani
C2 C 0.0852(2) 0.79696(18) 0.69817(17) 0.0371 Uani
H1 H -0.0174 0.7754 0.6583 0.0440 Uiso
C3 C 0.1812(2) 0.74074(17) 0.68764(17) 0.0342 Uani
C4 C 0.1196(2) 0.64502(17) 0.61218(17) 0.0346 Uani
C5 C 0.3339(2) 0.77456(18) 0.74681(17) 0.0373 Uani
H2 H 0.3983 0.7373 0.7396 0.0450 Uiso
C6 C 0.3904(2) 0.86353(19) 0.81638(17) 0.0382 Uani
C7 C 0.2951(2) 0.91824(18) 0.82787(18) 0.0403 Uani
H3 H 0.3331 0.9772 0.8755 0.0480 Uiso
C8 C 0.5542(3) 0.9006(2) 0.87800(19) 0.0472 Uani
O1 O 0.0750(2) 0.92386(15) 0.88926(14) 0.0542 Uani
O2 O -0.1326(2) 0.9260(2) 0.69668(17) 0.0891 Uani
O3 O 0.0551(3) 1.07284(17) 0.7841(2) 0.0889 Uani
O4 O 0.21706(18) 0.57836(14) 0.62812(13) 0.0506 Uani
O5 O -0.02370(17) 0.63849(13) 0.53821(12) 0.0436 Uani
O6 O 0.6377(2) 0.85459(17) 0.86589(18) 0.0710 Uani
O7 O 0.6042(2) 0.98007(19) 0.94123(18) 0.0779 Uani
S1 S 0.02350(7) 0.95935(6) 0.78361(5) 0.0502 Uani
Zn1 Zn 0.17931(3) 1.02369(2) 1.01883(2) 0.0345 Uani
O4C O 0.21706(18) 0.92164(14) 1.12812(13) 0.0506 Uani
O5A O 0.02370(17) 1.13849(13) 0.96179(12) 0.0436 Uani
O6B O 0.3623(2) 1.14541(17) 1.13411(18) 0.0710 Uani
O7B O 0.3958(2) 1.01993(19) 1.05877(18) 0.0779 Uani
Zn1A Zn -0.17931(3) 0.52369(2) 0.48117(2) 0.0345 Uani
Zn1B Zn 0.82069(3) 0.97631(2) 0.98117(2) 0.0345 Uani
Zn1C Zn 0.17931(3) 0.47631(2) 0.51883(2) 0.0345 Uani
C9 C 0.3127(8) 0.2256(4) 0.7975(6) 0.1767 Uani
H4 H 0.2291 0.2675 0.7364 0.2660 Uiso
H5 H 0.2823 0.1969 0.8365 0.2660 Uiso
H6 H 0.3377 0.1660 0.7724 0.2660 Uiso
C10 C 0.6801(7) 0.3576(5) 0.9981(4) 0.1381 Uani
H7 H 0.7847 0.3625 1.0590 0.1660 Uiso
C11 C 0.5939(8) 0.2686(4) 0.9605(5) 0.1343 Uani
H8 H 0.6267 0.1989 0.9909 0.1610 Uiso
C12 C 0.7545(14) 0.5616(7) 0.9290(8) 0.2471 Uani
H9 H 0.8332 0.5079 0.9760 0.3710 Uiso
H10 H 0.7999 0.6335 0.9497 0.3710 Uiso
H11 H 0.7091 0.5472 0.8552 0.3710 Uiso
C13 C 0.6331(8) 0.5556(4) 0.9383(4) 0.1481 Uani
H12 H 0.6724 0.5864 1.0074 0.1780 Uiso
H13 H 0.5438 0.5983 0.8807 0.1780 Uiso
C14 C 0.4500(5) 0.4008(3) 0.8541(3) 0.0879 Uani
H14 H 0.3655 0.4408 0.7966 0.1050 Uiso
N1 N 0.4491(5) 0.2963(3) 0.8697(4) 0.1031 Uani
N2 N 0.5868(4) 0.4410(3) 0.9308(3) 0.1004 Uani
loop_
_atom_site_aniso_label
_atom_site_aniso_U_11
_atom_site_aniso_U_22
_atom_site_aniso_U_33
_atom_site_aniso_U_23
_atom_site_aniso_U_13
_atom_site_aniso_U_12
C1 0.0340(11) 0.0408(12) 0.0414(12) -0.0037(9) 0.0252(10) -0.0001(9)
C2 0.0252(10) 0.0415(12) 0.0386(12) -0.0043(9) 0.0181(9) -0.0049(9)
C3 0.0263(10) 0.0355(11) 0.0353(11) -0.0044(9) 0.0175(9) -0.0046(8)
C4 0.0316(11) 0.0355(11) 0.0335(11) -0.0023(9) 0.0197(10) -0.0046(9)
C5 0.0278(11) 0.0417(12) 0.0421(12) -0.0051(9) 0.0225(10) -0.0025(9)
C6 0.0283(11) 0.0466(12) 0.0361(11) -0.0065(10) 0.0193(10) -0.0096(9)
C7 0.0360(12) 0.0410(12) 0.0394(12) -0.0102(10) 0.0225(10) -0.0078(9)
C8 0.0318(12) 0.0619(15) 0.0386(12) -0.0037(11) 0.0187(11) -0.0144(11)
O1 0.0563(11) 0.0607(11) 0.0543(10) -0.0123(9) 0.0398(10) -0.0077(9)
O2 0.0359(11) 0.149(2) 0.0643(13) -0.0276(14) 0.0245(10) 0.0142(12)
O3 0.134(2) 0.0491(12) 0.136(2) 0.0105(13) 0.111(2) 0.0207(13)
O4 0.0397(9) 0.0464(9) 0.0490(10) -0.0149(8) 0.0214(8) 0.0014(7)
O5 0.0299(8) 0.0431(9) 0.0421(9) -0.0068(7) 0.0164(7) -0.0104(6)
O6 0.0328(9) 0.0737(13) 0.0975(16) -0.0160(11) 0.0383(11) -0.0103(9)
O7 0.0560(13) 0.1057(17) 0.0772(14) -0.0541(13) 0.0456(12) -0.0492(12)
S1 0.0410(3) 0.0609(4) 0.0505(4) -0.0063(3) 0.0305(3) 0.0076(3)
Zn1 0.02285(14) 0.03552(15) 0.03969(16) 0.00399(10) 0.01783(12) 0.00096(9)
O4C 0.0397 0.0464 0.049 0.0149 0.0214 -0.0014
O5A 0.0299 0.0431 0.0421 0.0068 0.0164 0.0104
O6B 0.0328 0.0737 0.0975 -0.016 0.0383 -0.0103
O7B 0.056 0.1057 0.0772 -0.0541 0.0456 -0.0492
Zn1A 0.02285 0.03552 0.03969 -0.00399 0.01783 -0.00096
Zn1B 0.02285 0.03552 0.03969 0.00399 0.01783 0.00096
Zn1C 0.02285 0.03552 0.03969 -0.00399 0.01783 -0.00096
C9 0.221(7) 0.106(4) 0.297(9) -0.048(5) 0.210(7) -0.053(4)
C10 0.141(5) 0.109(4) 0.094(3) 0.035(3) 0.045(3) 0.030(3)
C11 0.205(6) 0.088(3) 0.133(4) 0.050(3) 0.120(5) 0.047(4)
C12 0.408(15) 0.189(8) 0.249(9) -0.077(7) 0.260(11) -0.132(9)
C13 0.174(6) 0.095(3) 0.089(3) -0.004(3) 0.047(4) -0.016(4)
C14 0.107(3) 0.076(2) 0.082(3) 0.010(2) 0.062(3) 0.015(2)
N1 0.153(3) 0.071(2) 0.138(3) 0.008(2) 0.118(3) 0.005(2)
N2 0.111(3) 0.083(2) 0.0646(19) 0.0149(17) 0.038(2) 0.009(2)
loop_
_geom_bond_atom_site_label_1
_geom_bond_atom_site_label_2
_geom_bond_site_symmetry_1
_geom_bond_site_symmetry_2
C1 C2 1_555 1_555
C2 H1 1_555 1_555
C3 C2 1_555 1_555
C4 C3 1_555 1_555
C5 C3 1_555 1_555
H2 C5 1_555 1_555
C6 C5 1_555 1_555
C7 C1 1_555 1_555
H3 C7 1_555 1_555
C8 C6 1_555 1_555
O1 S1 1_555 1_555
O2 S1 1_555 1_555
O3 S1 1_555 1_555
O4 C4 1_555 1_555
O5 C4 1_555 1_555
O6 C8 1_555 1_555
O7 C8 1_555 1_555
S1 C1 1_555 1_555
Zn1 O1 1_555 1_555
C9 H4 1_555 1_555
H5 C9 1_555 1_555
H6 C9 1_555 1_555
C10 H7 1_555 1_555
C11 C10 1_555 1_555
H8 C11 1_555 1_555
C12 H9 1_555 1_555
H10 C12 1_555 1_555
H11 C12 1_555 1_555
C13 C12 1_555 1_555
H12 C13 1_555 1_555
H13 C13 1_555 1_555
C14 H14 1_555 1_555
N1 C9 1_555 1_555
N2 C10 1_555 1_555
O4C Zn1 1_555 1_555
O5A Zn1 1_555 1_555
O6B Zn1 1_555 1_555
O7B Zn1 1_555 1_555
Zn1A O5 1_555 1_555
Zn1B O6 1_555 1_555
Zn1C O4 1_555 1_555
C6 C7 1_555 1_555
O7 Zn1B 1_555 1_555
C11 N1 1_555 1_555
C13 N2 1_555 1_555
C14 N1 1_555 1_555
C14 N2 1_555 1_555

#END
