
#######################################################################
#
#                 Cambridge Crystallographic Data Centre
#                                CCDC 
#
#######################################################################
#
# If this CIF has been generated from an entry in the Cambridge 
# Structural Database, then it will include bibliographic, chemical, 
# crystal, experimental, refinement or atomic coordinate data resulting 
# from the CCDC's data processing and validation procedures.
#
#######################################################################

data_DUNXUH14
_chemical_formula_moiety         '(C14 H14 N2 O7 S1 Zn1)n'
_symmetry_cell_setting           monoclinic
_symmetry_space_group_name_H-M   'P 21/c'
_symmetry_Int_Tables_number      14
_space_group_name_Hall           '-P 2ybc'
loop_
_symmetry_equiv_pos_site_id
_symmetry_equiv_pos_as_xyz
1 x,y,z
2 -x,1/2+y,1/2-z
3 -x,-y,-z
4 x,1/2-y,1/2+z
_cell_length_a                   11.2582(6)
_cell_length_b                   11.8812(6)
_cell_length_c                   16.2122(7)
_cell_angle_alpha                90
_cell_angle_beta                 129.572(2)
_cell_angle_gamma                90
_cell_volume                     1671.58
loop_
_atom_site_label
_atom_site_type_symbol
_atom_site_fract_x
_atom_site_fract_y
_atom_site_fract_z
_atom_site_U_iso_or_equiv
_atom_site_thermal_displace_type
C1 C 0.1417(2) 0.89378(16) 0.76829(14) 0.0226 Uani
C2 C 0.0831(2) 0.80567(16) 0.69634(14) 0.0229 Uani
H1 H -0.0211 0.7852 0.6553 0.0270 Uiso
C3 C 0.17952(19) 0.74726(15) 0.68498(14) 0.0205 Uani
C4 C 0.1179(2) 0.65034(15) 0.60947(14) 0.0216 Uani
C5 C 0.33302(19) 0.77904(15) 0.74508(14) 0.0213 Uani
H2 H 0.3980 0.7400 0.7373 0.0260 Uiso
C6 C 0.39090(19) 0.86837(16) 0.81667(14) 0.0221 Uani
C7 C 0.2957(2) 0.92530(16) 0.82933(14) 0.0233 Uani
H3 H 0.3349 0.9847 0.8787 0.0280 Uiso
C8 C 0.5558(2) 0.90342(17) 0.87993(15) 0.0266 Uani
O1 O 0.06653(16) 0.92820(12) 0.88699(11) 0.0305 Uani
O2 O -0.13423(17) 0.93933(19) 0.69636(13) 0.0544 Uani
O3 O 0.0600(2) 1.08601(14) 0.79104(17) 0.0564 Uani
O4 O 0.21448(15) 0.57927(12) 0.62625(11) 0.0289 Uani
O5 O -0.02511(14) 0.64654(11) 0.53464(10) 0.0261 Uani
O6 O 0.64042(15) 0.85290(13) 0.86767(13) 0.0390 Uani
O7 O 0.60626(17) 0.98427(15) 0.94421(13) 0.0440 Uani
S1 S 0.02221(5) 0.96954(5) 0.78479(4) 0.0290 Uani
Zn1 Zn 0.17720(2) 1.02597(2) 1.01796(2) 0.0203 Uani
O4C O 0.21448(15) 0.92073(12) 1.12625(11) 0.0289 Uani
O5A O 0.02511(14) 1.14654(11) 0.96536(10) 0.0261 Uani
O6B O 0.35958(15) 1.14710(13) 1.13233(13) 0.0390 Uani
O7B O 0.39374(17) 1.01573(15) 1.05579(13) 0.0440 Uani
Zn1A Zn -0.17720(2) 0.52597(2) 0.48204(2) 0.0203 Uani
Zn1B Zn 0.82280(2) 0.97403(2) 0.98204(2) 0.0203 Uani
Zn1C Zn 0.17720(2) 0.47403(2) 0.51796(2) 0.0203 Uani
C9 C 0.3016(5) 0.2360(3) 0.7854(3) 0.0839 Uani
H4 H 0.2550 0.2143 0.8168 0.1260 Uiso
H5 H 0.3317 0.1691 0.7685 0.1260 Uiso
H6 H 0.2278 0.2787 0.7205 0.1260 Uiso
C10 C 0.6686(4) 0.3598(3) 1.0004(2) 0.0741 Uani
H7 H 0.7701 0.3612 1.0655 0.0890 Uiso
C11 C 0.5745(5) 0.2708(3) 0.9557(3) 0.0728 Uani
H8 H 0.5981 0.1975 0.9840 0.0870 Uiso
C12 C 0.7811(6) 0.5616(4) 0.9427(3) 0.1031 Uani
H9 H 0.8639 0.5159 1.0015 0.1550 Uiso
H10 H 0.8178 0.6377 0.9501 0.1550 Uiso
H11 H 0.7468 0.5299 0.8755 0.1550 Uiso
C13 C 0.6481(4) 0.5634(3) 0.9441(2) 0.0713 Uani
H12 H 0.6827 0.5960 1.0118 0.0860 Uiso
H13 H 0.5656 0.6112 0.8857 0.0860 Uiso
C14 C 0.4490(3) 0.4135(2) 0.8491(2) 0.0478 Uani
H14 H 0.3714 0.4580 0.7908 0.0570 Uiso
N1 N 0.4375(3) 0.30532(19) 0.8614(2) 0.0553 Uani
N2 N 0.5872(3) 0.44888(18) 0.93206(17) 0.0541 Uani
loop_
_atom_site_aniso_label
_atom_site_aniso_U_11
_atom_site_aniso_U_22
_atom_site_aniso_U_33
_atom_site_aniso_U_23
_atom_site_aniso_U_13
_atom_site_aniso_U_12
C1 0.0210(8) 0.0261(9) 0.0233(9) 0.0003(7) 0.0153(7) 0.0019(7)
C2 0.0164(8) 0.0264(9) 0.0237(9) -0.0010(7) 0.0117(7) -0.0015(7)
C3 0.0180(8) 0.0210(9) 0.0205(8) -0.0018(7) 0.0114(7) -0.0023(7)
C4 0.0206(8) 0.0229(9) 0.0206(8) 0.0001(7) 0.0128(7) -0.0024(7)
C5 0.0178(8) 0.0235(9) 0.0232(9) -0.0012(7) 0.0134(7) -0.0003(7)
C6 0.0169(8) 0.0261(9) 0.0201(8) -0.0023(7) 0.0103(7) -0.0035(7)
C7 0.0229(8) 0.0248(9) 0.0209(9) -0.0047(7) 0.0134(7) -0.0030(7)
C8 0.0173(8) 0.0348(11) 0.0202(9) 0.0009(8) 0.0085(7) -0.0056(8)
O1 0.0314(7) 0.0349(8) 0.0297(7) -0.0066(6) 0.0215(6) -0.0047(6)
O2 0.0221(7) 0.0989(15) 0.0319(8) -0.0102(9) 0.0124(7) 0.0150(9)
O3 0.0891(14) 0.0297(9) 0.0922(15) 0.0091(9) 0.0773(13) 0.0145(9)
O4 0.0236(6) 0.0268(7) 0.0268(7) -0.0063(6) 0.0116(6) 0.0021(6)
O5 0.0181(6) 0.0272(7) 0.0238(7) -0.0020(5) 0.0090(5) -0.0051(5)
O6 0.0186(6) 0.0377(9) 0.0542(10) -0.0077(7) 0.0202(7) -0.0038(6)
O7 0.0308(8) 0.0626(11) 0.0410(9) -0.0305(8) 0.0240(7) -0.0260(8)
S1 0.0263(2) 0.0350(3) 0.0293(2) -0.0005(2) 0.0194(2) 0.0065(2)
Zn1 0.01418(10) 0.02135(11) 0.02216(11) 0.00197(8) 0.01012(8) 0.00054(8)
O4C 0.0236 0.0268 0.0268 0.0063 0.0116 -0.0021
O5A 0.0181 0.0272 0.0238 0.002 0.009 0.0051
O6B 0.0186 0.0377 0.0542 -0.0077 0.0202 -0.0038
O7B 0.0308 0.0626 0.041 -0.0305 0.024 -0.026
Zn1A 0.01418 0.02135 0.02216 -0.00197 0.01012 -0.00054
Zn1B 0.01418 0.02135 0.02216 0.00197 0.01012 0.00054
Zn1C 0.01418 0.02135 0.02216 -0.00197 0.01012 -0.00054
C9 0.100(3) 0.066(2) 0.111(3) -0.022(2) 0.079(3) -0.033(2)
C10 0.087(2) 0.0540(19) 0.0473(17) 0.0194(14) 0.0269(17) 0.0109(17)
C11 0.116(3) 0.0449(17) 0.066(2) 0.0191(15) 0.062(2) 0.0130(18)
C12 0.155(4) 0.079(3) 0.085(3) -0.025(2) 0.081(3) -0.053(3)
C13 0.084(2) 0.0414(15) 0.0390(15) 0.0003(12) 0.0161(15) -0.0073(15)
C14 0.0631(16) 0.0416(14) 0.0408(13) 0.0012(11) 0.0341(13) 0.0032(12)
N1 0.0795(17) 0.0446(13) 0.0640(15) -0.0027(11) 0.0560(14) -0.0081(12)
N2 0.0668(15) 0.0390(12) 0.0325(11) 0.0060(9) 0.0204(11) 0.0027(11)
loop_
_geom_bond_atom_site_label_1
_geom_bond_atom_site_label_2
_geom_bond_site_symmetry_1
_geom_bond_site_symmetry_2
C1 C2 1_555 1_555
C2 H1 1_555 1_555
C3 C2 1_555 1_555
C4 C3 1_555 1_555
C5 C3 1_555 1_555
H2 C5 1_555 1_555
C6 C5 1_555 1_555
C7 C1 1_555 1_555
H3 C7 1_555 1_555
C8 C6 1_555 1_555
O1 S1 1_555 1_555
O2 S1 1_555 1_555
O3 S1 1_555 1_555
O4 C4 1_555 1_555
O5 C4 1_555 1_555
O6 C8 1_555 1_555
O7 C8 1_555 1_555
S1 C1 1_555 1_555
Zn1 O1 1_555 1_555
C9 H4 1_555 1_555
H5 C9 1_555 1_555
H6 C9 1_555 1_555
C10 H7 1_555 1_555
C11 C10 1_555 1_555
H8 C11 1_555 1_555
C12 H9 1_555 1_555
H10 C12 1_555 1_555
H11 C12 1_555 1_555
C13 C12 1_555 1_555
H12 C13 1_555 1_555
H13 C13 1_555 1_555
C14 H14 1_555 1_555
N1 C9 1_555 1_555
N2 C10 1_555 1_555
O4C Zn1 1_555 1_555
O5A Zn1 1_555 1_555
O6B Zn1 1_555 1_555
O7B Zn1 1_555 1_555
Zn1A O5 1_555 1_555
Zn1B O6 1_555 1_555
Zn1C O4 1_555 1_555
C6 C7 1_555 1_555
O7 Zn1B 1_555 1_555
C11 N1 1_555 1_555
C13 N2 1_555 1_555
C14 N1 1_555 1_555
C14 N2 1_555 1_555

#END
