
#######################################################################
#
#                 Cambridge Crystallographic Data Centre
#                                CCDC 
#
#######################################################################
#
# If this CIF has been generated from an entry in the Cambridge 
# Structural Database, then it will include bibliographic, chemical, 
# crystal, experimental, refinement or atomic coordinate data resulting 
# from the CCDC's data processing and validation procedures.
#
#######################################################################

data_DUNXUH13
_chemical_formula_moiety         '(C14 H14 N2 O7 S1 Zn1)n'
_symmetry_cell_setting           monoclinic
_symmetry_space_group_name_H-M   'P 21/c'
_symmetry_Int_Tables_number      14
_space_group_name_Hall           '-P 2ybc'
loop_
_symmetry_equiv_pos_site_id
_symmetry_equiv_pos_as_xyz
1 x,y,z
2 -x,1/2+y,1/2-z
3 -x,-y,-z
4 x,1/2-y,1/2+z
_cell_length_a                   11.2499(6)
_cell_length_b                   11.7888(6)
_cell_length_c                   16.2271(6)
_cell_angle_alpha                90
_cell_angle_beta                 129.399(2)
_cell_angle_gamma                90
_cell_volume                     1663.01
loop_
_atom_site_label
_atom_site_type_symbol
_atom_site_fract_x
_atom_site_fract_y
_atom_site_fract_z
_atom_site_U_iso_or_equiv
_atom_site_thermal_displace_type
C1 C 0.14176(19) 0.89649(15) 0.76824(14) 0.0190 Uani
C2 C 0.08292(19) 0.80827(15) 0.69581(14) 0.0193 Uani
H1 H -0.0225 0.7880 0.6540 0.0230 Uiso
C3 C 0.17924(19) 0.74918(15) 0.68447(13) 0.0171 Uani
C4 C 0.11732(19) 0.65186(15) 0.60859(13) 0.0178 Uani
C5 C 0.33305(19) 0.78057(15) 0.74481(13) 0.0174 Uani
H2 H 0.3985 0.7409 0.7367 0.0210 Uiso
C6 C 0.39113(19) 0.86987(15) 0.81698(14) 0.0182 Uani
C7 C 0.2959(2) 0.92767(15) 0.82970(14) 0.0192 Uani
H3 H 0.3356 0.9878 0.8798 0.0230 Uiso
C8 C 0.55614(19) 0.90437(17) 0.88058(14) 0.0217 Uani
O1 O 0.06394(15) 0.92905(12) 0.88594(10) 0.0247 Uani
O2 O -0.13431(16) 0.94440(17) 0.69572(12) 0.0449 Uani
O3 O 0.0625(2) 1.09001(13) 0.79374(16) 0.0472 Uani
O4 O 0.21382(14) 0.57968(11) 0.62553(10) 0.0234 Uani
O5 O -0.02512(13) 0.64863(11) 0.53378(10) 0.0213 Uani
O6 O 0.64131(15) 0.85239(12) 0.86892(12) 0.0308 Uani
O7 O 0.60675(16) 0.98594(14) 0.94495(12) 0.0351 Uani
S1 S 0.02222(5) 0.97259(4) 0.78504(4) 0.0234 Uani
Zn1 Zn 0.17668(2) 1.02649(2) 1.01745(2) 0.0164 Uani
O4C O 0.21382(14) 0.92032(11) 1.12553(10) 0.0234 Uani
O5A O 0.02512(13) 1.14863(11) 0.96622(10) 0.0213 Uani
O6B O 0.35869(15) 1.14761(12) 1.13108(12) 0.0308 Uani
O7B O 0.39325(16) 1.01406(14) 1.05505(12) 0.0351 Uani
Zn1A Zn -0.17668(2) 0.52649(2) 0.48255(2) 0.0164 Uani
Zn1B Zn 0.82332(2) 0.97351(2) 0.98255(2) 0.0164 Uani
Zn1C Zn 0.17668(2) 0.47351(2) 0.51745(2) 0.0164 Uani
C9 C 0.2960(4) 0.2396(3) 0.7809(3) 0.0624 Uani
H4 H 0.2222 0.2844 0.7165 0.0940 Uiso
H5 H 0.2487 0.2162 0.8122 0.0940 Uiso
H6 H 0.3257 0.1722 0.7624 0.0940 Uiso
C10 C 0.6631(4) 0.3601(2) 0.9990(2) 0.0582 Uani
H7 H 0.7646 0.3602 1.0655 0.0700 Uiso
C11 C 0.5674(4) 0.2713(2) 0.9530(2) 0.0564 Uani
H8 H 0.5885 0.1965 0.9808 0.0670 Uiso
C12 C 0.7861(5) 0.5605(3) 0.9456(3) 0.0756 Uani
H9 H 0.8679 0.5138 1.0056 0.1130 Uiso
H10 H 0.8250 0.6374 0.9530 0.1130 Uiso
H11 H 0.7527 0.5272 0.8786 0.1130 Uiso
C13 C 0.6510(3) 0.5655(2) 0.9451(2) 0.0560 Uani
H12 H 0.6851 0.5986 1.0132 0.0670 Uiso
H13 H 0.5702 0.6153 0.8864 0.0670 Uiso
C14 C 0.4476(3) 0.4171(2) 0.84691(18) 0.0375 Uani
H14 H 0.3716 0.4633 0.7881 0.0450 Uiso
N1 N 0.4327(3) 0.30817(17) 0.85804(17) 0.0425 Uani
N2 N 0.5861(3) 0.45133(17) 0.93142(15) 0.0438 Uani
loop_
_atom_site_aniso_label
_atom_site_aniso_U_11
_atom_site_aniso_U_22
_atom_site_aniso_U_33
_atom_site_aniso_U_23
_atom_site_aniso_U_13
_atom_site_aniso_U_12
C1 0.0178(8) 0.0223(9) 0.0188(8) 0.0009(7) 0.0125(7) 0.0017(7)
C2 0.0151(7) 0.0215(9) 0.0206(8) 0.0000(7) 0.0110(7) -0.0010(7)
C3 0.0150(7) 0.0185(8) 0.0166(8) -0.0004(7) 0.0095(7) -0.0013(6)
C4 0.0173(8) 0.0188(8) 0.0172(8) 0.0002(7) 0.0109(7) -0.0017(7)
C5 0.0142(7) 0.0195(8) 0.0189(8) -0.0001(7) 0.0107(7) 0.0003(6)
C6 0.0148(8) 0.0211(9) 0.0163(8) -0.0007(7) 0.0088(7) -0.0021(7)
C7 0.0194(8) 0.0200(8) 0.0171(8) -0.0034(7) 0.0110(7) -0.0016(7)
C8 0.0150(8) 0.0280(10) 0.0162(8) 0.0009(7) 0.0071(7) -0.0039(7)
O1 0.0250(6) 0.0290(7) 0.0236(7) -0.0052(6) 0.0170(6) -0.0040(6)
O2 0.0199(7) 0.0824(14) 0.0253(8) -0.0056(8) 0.0110(6) 0.0145(8)
O3 0.0755(12) 0.0249(8) 0.0797(13) 0.0070(8) 0.0673(12) 0.0113(8)
O4 0.0204(6) 0.0220(7) 0.0214(6) -0.0049(5) 0.0103(5) 0.0014(5)
O5 0.0150(6) 0.0223(7) 0.0189(6) -0.0018(5) 0.0072(5) -0.0037(5)
O6 0.0154(6) 0.0295(8) 0.0423(8) -0.0055(6) 0.0159(6) -0.0020(5)
O7 0.0245(7) 0.0504(10) 0.0317(8) -0.0231(7) 0.0185(6) -0.0195(7)
S1 0.0222(2) 0.0279(2) 0.0241(2) 0.00074(19) 0.01651(19) 0.00580(18)
Zn1 0.01188(10) 0.01727(11) 0.01757(11) 0.00147(8) 0.00816(8) 0.00043(7)
O4C 0.0204 0.022 0.0214 0.0049 0.0103 -0.0014
O5A 0.015 0.0223 0.0189 0.0018 0.0072 0.0037
O6B 0.0154 0.0295 0.0423 -0.0055 0.0159 -0.002
O7B 0.0245 0.0504 0.0317 -0.0231 0.0185 -0.0195
Zn1A 0.01188 0.01727 0.01757 -0.00147 0.00816 -0.00043
Zn1B 0.01188 0.01727 0.01757 0.00147 0.00816 0.00043
Zn1C 0.01188 0.01727 0.01757 -0.00147 0.00816 -0.00043
C9 0.072(2) 0.0522(18) 0.080(2) -0.0164(16) 0.0563(19) -0.0248(15)
C10 0.0702(19) 0.0408(15) 0.0359(14) 0.0143(11) 0.0207(14) 0.0067(14)
C11 0.086(2) 0.0360(14) 0.0516(16) 0.0145(12) 0.0457(16) 0.0076(14)
C12 0.108(3) 0.061(2) 0.0570(19) -0.0161(16) 0.052(2) -0.037(2)
C13 0.0642(18) 0.0325(13) 0.0292(12) -0.0002(10) 0.0099(12) -0.0062(12)
C14 0.0489(13) 0.0340(12) 0.0310(11) 0.0009(9) 0.0260(11) 0.0012(10)
N1 0.0595(13) 0.0364(11) 0.0457(12) -0.0022(9) 0.0400(11) -0.0059(10)
N2 0.0533(12) 0.0311(10) 0.0267(10) 0.0053(8) 0.0159(9) 0.0019(9)
loop_
_geom_bond_atom_site_label_1
_geom_bond_atom_site_label_2
_geom_bond_site_symmetry_1
_geom_bond_site_symmetry_2
C1 C2 1_555 1_555
C2 H1 1_555 1_555
C3 C2 1_555 1_555
C4 C3 1_555 1_555
C5 C3 1_555 1_555
H2 C5 1_555 1_555
C6 C5 1_555 1_555
C7 C1 1_555 1_555
H3 C7 1_555 1_555
C8 C6 1_555 1_555
O1 S1 1_555 1_555
O2 S1 1_555 1_555
O3 S1 1_555 1_555
O4 C4 1_555 1_555
O5 C4 1_555 1_555
O6 C8 1_555 1_555
O7 C8 1_555 1_555
S1 C1 1_555 1_555
Zn1 O1 1_555 1_555
C9 H4 1_555 1_555
H5 C9 1_555 1_555
H6 C9 1_555 1_555
C10 H7 1_555 1_555
C11 C10 1_555 1_555
H8 C11 1_555 1_555
C12 H9 1_555 1_555
H10 C12 1_555 1_555
H11 C12 1_555 1_555
C13 C12 1_555 1_555
H12 C13 1_555 1_555
H13 C13 1_555 1_555
C14 H14 1_555 1_555
N1 C9 1_555 1_555
N2 C10 1_555 1_555
O4C Zn1 1_555 1_555
O5A Zn1 1_555 1_555
O6B Zn1 1_555 1_555
O7B Zn1 1_555 1_555
Zn1A O5 1_555 1_555
Zn1B O6 1_555 1_555
Zn1C O4 1_555 1_555
C6 C7 1_555 1_555
O7 Zn1B 1_555 1_555
C11 N1 1_555 1_555
C13 N2 1_555 1_555
C14 N1 1_555 1_555
C14 N2 1_555 1_555

#END
