
#######################################################################
#
#                 Cambridge Crystallographic Data Centre
#                                CCDC 
#
#######################################################################
#
# If this CIF has been generated from an entry in the Cambridge 
# Structural Database, then it will include bibliographic, chemical, 
# crystal, experimental, refinement or atomic coordinate data resulting 
# from the CCDC's data processing and validation procedures.
#
#######################################################################

data_DUQYEU01
_chemical_formula_moiety         '(C10 H18 Dy2 N1 O21 1-)n'
_symmetry_cell_setting           monoclinic
_symmetry_space_group_name_H-M   'P 21/c'
_symmetry_Int_Tables_number      14
_space_group_name_Hall           '-P 2ybc'
loop_
_symmetry_equiv_pos_site_id
_symmetry_equiv_pos_as_xyz
1 x,y,z
2 -x,1/2+y,1/2-z
3 -x,-y,-z
4 x,1/2-y,1/2+z
_cell_length_a                   9.6191(3)
_cell_length_b                   11.6023(5)
_cell_length_c                   14.3044(4)
_cell_angle_alpha                90
_cell_angle_beta                 122.456(2)
_cell_angle_gamma                90
_cell_volume                     1347.07
loop_
_atom_site_label
_atom_site_type_symbol
_atom_site_fract_x
_atom_site_fract_y
_atom_site_fract_z
Dy1 Dy 0.38234(2) -0.48702(2) -0.332400(17)
O1 O 0.6032(4) -0.3630(3) -0.2068(3)
O2 O 0.3840(4) -0.1063(3) -0.2965(3)
O3 O 0.2952(4) -0.2883(3) -0.3434(3)
O4 O 0.4800(4) -0.3823(3) -0.4330(3)
O5 O 0.6933(3) -0.1820(3) -0.1714(2)
O6 O 0.3953(5) -0.4801(3) -0.1570(3)
H1 H 0.4312 -0.4193 -0.1098
H2 H 0.3653 -0.5379 -0.1285
O7 O 0.5383(4) -0.3887(3) -0.5639(3)
O8 O 0.1111(4) -0.4895(3) -0.3565(3)
O9 O -0.1608(4) -0.5114(3) -0.4783(3)
C1 C 0.5834(5) -0.2571(4) -0.2166(4)
C2 C 0.5056(4) -0.4342(4) -0.4991(3)
C3 C 0.4034(5) -0.2132(4) -0.2931(4)
C4 C -0.0155(6) -0.5002(4) -0.4528(4)
O4B O 0.5200(4) -0.6177(3) -0.5670(3)
O7B O 0.4617(4) -0.6113(3) -0.4361(3)
C2B C 0.4944(4) -0.5658(4) -0.5009(3)
O8B O -0.1111(4) -0.5105(3) -0.6435(3)
O9B O 0.1608(4) -0.4886(3) -0.5217(3)
C4B C 0.0155(6) -0.4998(4) -0.5472(4)
Dy1B Dy -0.38234(2) -0.51298(2) -0.667600(17)
O1B O -0.6032(4) -0.6370(3) -0.7932(3)
O2B O -0.3840(4) -0.8937(3) -0.7035(3)
O3B O -0.2952(4) -0.7117(3) -0.6566(3)
O5B O -0.6933(3) -0.8180(3) -0.8286(2)
O6B O -0.3953(5) -0.5199(3) -0.8430(3)
H1B H -0.4312 -0.5807 -0.8902
H2B H -0.3653 -0.4621 -0.8715
C1B C -0.5834(5) -0.7429(4) -0.7834(4)
C3B C -0.4034(5) -0.7868(4) -0.7069(4)
Dy1A Dy 0.61766(2) 0.01298(2) -0.167600(17)
Dy1B_2 Dy 0.61766(2) -0.51298(2) -0.667600(17)
Dy1C Dy -0.61766(2) -1.01298(2) -0.832400(17)
O2A O 0.6160(4) -0.6063(3) -0.2035(3)
O2C O -0.6160(4) -0.3937(3) -0.7965(3)
O4B_2 O -0.4800(4) -0.6177(3) -0.5670(3)
O5A O 0.3067(3) -0.6820(3) -0.3286(2)
O5C O -0.3067(3) -0.3180(3) -0.6714(2)
O7_2 O -0.4617(4) -0.3887(3) -0.5639(3)
N1 N 0.0754(5) -0.3695(5) -0.1948(4)
H3 H 0.1092 -0.4037 -0.2357
H4 H 0.1164 -0.4103 -0.1318
C5 C -0.1041(7) -0.3747(8) -0.2556(6)
H5 H -0.1495 -0.3365 -0.3257
H6 H -0.1420 -0.3373 -0.2134
H7 H -0.1389 -0.4538 -0.2678
C6 C 0.1452(10) -0.2525(8) -0.1662(6)
H8 H 0.1040 -0.2083 -0.2328
H9 H 0.2631 -0.2568 -0.1273
H10 H 0.1139 -0.2160 -0.1199
O10 O 0.8389(8) -0.5052(4) 0.0072(5)
H11 H 0.7349 -0.5122 -0.0340
H12 H 0.8810 -0.5132 -0.0316
O11 O 0.6185(5) -0.3451(4) 0.0330(4)
H13 H 0.6243 -0.2771 0.0569
H14 H 0.7031 -0.3586 0.0301
O12 O -0.0513(6) -0.2186(5) -0.4653(4)
H15 H 0.051(4) -0.237(10) -0.435(7)
H16 H -0.106(7) -0.257(6) -0.526(4)
loop_
_geom_bond_atom_site_label_1
_geom_bond_atom_site_label_2
_geom_bond_site_symmetry_1
_geom_bond_site_symmetry_2
Dy1 O1 1_555 1_555
O1 C1 1_555 1_555
O2 C3 1_555 1_555
O3 Dy1 1_555 1_555
O4 Dy1 1_555 1_555
O5 C1 1_555 1_555
O6 Dy1 1_555 1_555
H1 O6 1_555 1_555
H2 O6 1_555 1_555
O7 C2 1_555 1_555
O8 Dy1 1_555 1_555
O9 C4 1_555 1_555
C1 C3 1_555 1_555
C2 O4 1_555 1_555
C3 O3 1_555 1_555
C4 O8 1_555 1_555
N1 H3 1_555 1_555
H4 N1 1_555 1_555
C5 N1 1_555 1_555
H5 C5 1_555 1_555
H6 C5 1_555 1_555
H7 C5 1_555 1_555
C6 N1 1_555 1_555
H8 C6 1_555 1_555
H9 C6 1_555 1_555
H10 C6 1_555 1_555
O10 H11 1_555 1_555
H12 O10 1_555 1_555
O11 H13 1_555 1_555
H14 O11 1_555 1_555
O12 H15 1_555 1_555
H16 O12 1_555 1_555
O4B C2B 1_555 1_555
O7B Dy1 1_555 1_555
C2B C2 1_555 1_555
O8B C4B 1_555 1_555
O9B Dy1 1_555 1_555
C4B C4 1_555 1_555
Dy1B O9 1_555 1_555
O1B Dy1B 1_555 1_555
O2B C3B 1_555 1_555
O3B Dy1B 1_555 1_555
O5B C1B 1_555 1_555
O6B Dy1B 1_555 1_555
H1B O6B 1_555 1_555
H2B O6B 1_555 1_555
C1B O1B 1_555 1_555
C3B O3B 1_555 1_555
Dy1A O2 1_555 1_555
Dy1B_2 O7 1_555 1_555
Dy1C O2B 1_555 1_555
O2A Dy1 1_555 1_555
O2C Dy1B 1_555 1_555
O4B_2 Dy1B 1_555 1_555
O5A Dy1 1_555 1_555
O5C Dy1B 1_555 1_555
O7_2 Dy1B 1_555 1_555
O5 Dy1A 1_555 1_555
O4B Dy1B_2 1_555 1_555
O7B C2B 1_555 1_555
O8B Dy1B 1_555 1_555
O9B C4B 1_555 1_555
O5B Dy1C 1_555 1_555
C1B C3B 1_555 1_555

#END
