
#######################################################################
#
#                 Cambridge Crystallographic Data Centre
#                                CCDC 
#
#######################################################################
#
# If this CIF has been generated from an entry in the Cambridge 
# Structural Database, then it will include bibliographic, chemical, 
# crystal, experimental, refinement or atomic coordinate data resulting 
# from the CCDC's data processing and validation procedures.
#
#######################################################################

data_EMAMUC
_chemical_formula_moiety         '(C32 H36 N8 Ni2 O14)n'
_symmetry_cell_setting           monoclinic
_symmetry_space_group_name_H-M   'C 2/c'
_symmetry_Int_Tables_number      15
_space_group_name_Hall           '-C 2yc'
loop_
_symmetry_equiv_pos_site_id
_symmetry_equiv_pos_as_xyz
1 x,y,z
2 -x,y,1/2-z
3 1/2+x,1/2+y,z
4 1/2-x,1/2+y,1/2-z
5 -x,-y,-z
6 x,-y,1/2+z
7 1/2-x,1/2-y,-z
8 1/2+x,1/2-y,1/2+z
_cell_length_a                   35.0241(16)
_cell_length_b                   13.3396(6)
_cell_length_c                   9.1834(4)
_cell_angle_alpha                90
_cell_angle_beta                 104.116(2)
_cell_angle_gamma                90
_cell_volume                     4161
loop_
_atom_site_label
_atom_site_type_symbol
_atom_site_fract_x
_atom_site_fract_y
_atom_site_fract_z
_atom_site_U_iso_or_equiv
_atom_site_thermal_displace_type
Ni1 Ni 0.36843(2) 0.21665(4) 0.04755(6) 0.0237 Uani
C1 C 0.34988(14) 0.2045(4) 0.3511(5) 0.0338 Uani
H1 H 0.3763 0.1864 0.3825 0.0410 Uiso
O1 O 0.40436(10) 0.2103(2) -0.1021(4) 0.0332 Uani
H2 H 0.4015 0.2574 -0.1787 0.0400 Uiso
H3 H 0.4233 0.1603 -0.0925 0.0400 Uiso
N1 N 0.33481(11) 0.2220(3) 0.2042(4) 0.0255 Uani
O2 O 0.36746(11) 0.3663(3) -0.2421(4) 0.0437 Uani
O3 O 0.17504(10) 0.6306(3) -0.4129(4) 0.0335 Uani
O4 O 0.39530(10) 0.0817(3) 0.1394(4) 0.0409 Uani
H4 H 0.3838 0.0205 0.1055 0.0490 Uiso
H5 H 0.4187 0.0834 0.2139 0.0490 Uiso
O5 O 0.33864(9) 0.3395(2) -0.0524(4) 0.0305 Uani
O6 O 0.13924(11) 0.5551(3) -0.2748(5) 0.0484 Uani
N2 N 0.41153(12) 0.3035(3) 0.1907(5) 0.0338 Uani
N3 N 0.26805(11) 0.2416(3) 0.5251(4) 0.0320 Uani
C2 C 0.30689(15) 0.4458(4) -0.2496(6) 0.0360 Uani
H6 H 0.3085 0.4810 -0.3353 0.0430 Uiso
C3 C 0.20706(14) 0.5166(3) -0.2273(5) 0.0288 Uani
H7 H 0.2061 0.4839 -0.1389 0.0350 Uiso
C4 C 0.29636(12) 0.2469(3) 0.1613(5) 0.0257 Uani
H8 H 0.2855 0.2595 0.0601 0.0310 Uiso
C5 C 0.28884(13) 0.2365(3) 0.4100(5) 0.0280 Uani
C6 C 0.27235(13) 0.2547(3) 0.2588(5) 0.0262 Uani
H9 H 0.2459 0.2716 0.2247 0.0310 Uiso
C7 C 0.27523(13) 0.4568(3) -0.1977(5) 0.0299 Uani
H10 H 0.2753 0.4269 -0.1062 0.0360 Uiso
C8 C 0.32853(14) 0.2120(4) 0.4568(5) 0.0354 Uani
H11 H 0.3403 0.2009 0.5578 0.0420 Uiso
C9 C 0.17148(14) 0.5715(3) -0.3112(5) 0.0288 Uani
C10 C 0.34049(15) 0.3788(3) -0.1762(5) 0.0323 Uani
C11 C 0.24021(14) 0.5124(3) -0.2731(5) 0.0291 Uani
H12 H 0.2411 0.5474 -0.3597 0.0350 Uiso
C12 C 0.4338(2) 0.4588(6) 0.3090(9) 0.0677 Uani
H13 H 0.4293 0.5268 0.3193 0.0810 Uiso
C13 C 0.4674(2) 0.4144(7) 0.3906(8) 0.0721 Uani
C14 C 0.40645(18) 0.3997(4) 0.2100(7) 0.0499 Uani
H14 H 0.3835 0.4298 0.1549 0.0600 Uiso
N4 N 0.5038(2) 0.4599(5) 0.5145(8) 0.0779 Uani
C15 C 0.47305(19) 0.3145(7) 0.3738(9) 0.0722 Uani
H15 H 0.4955 0.2826 0.4300 0.0870 Uiso
C16 C 0.44495(16) 0.2616(6) 0.2719(7) 0.0546 Uani
H16 H 0.4492 0.1938 0.2585 0.0660 Uiso
C1F C 0.15012(14) 0.2955(4) 0.6489(5) 0.0338 Uani
H1F H 0.1237 0.3136 0.6175 0.0410 Uiso
N1F N 0.16519(11) 0.2780(3) 0.7958(4) 0.0255 Uani
N3F N 0.23195(11) 0.2584(3) 0.4749(4) 0.0320 Uani
C4F C 0.20364(12) 0.2531(3) 0.8387(5) 0.0257 Uani
H8F H 0.2145 0.2405 0.9399 0.0310 Uiso
C5F C 0.21116(13) 0.2635(3) 0.5900(5) 0.0280 Uani
C6F C 0.22765(13) 0.2453(3) 0.7412(5) 0.0262 Uani
H9F H 0.2541 0.2284 0.7753 0.0310 Uiso
C8F C 0.17147(14) 0.2880(4) 0.5432(5) 0.0354 Uani
H11F H 0.1597 0.2991 0.4422 0.0420 Uiso
N2D N 0.58847(12) 0.6965(3) 0.8093(5) 0.0338 Uani
C12D C 0.5662(2) 0.5412(6) 0.6910(9) 0.0677 Uani
H13D H 0.5707 0.4732 0.6807 0.0810 Uiso
C13D C 0.5326(2) 0.5856(7) 0.6094(8) 0.0721 Uani
C14D C 0.59355(18) 0.6003(4) 0.7900(7) 0.0499 Uani
H14D H 0.6165 0.5702 0.8451 0.0600 Uiso
N4D N 0.4962(2) 0.5401(5) 0.4855(8) 0.0779 Uani
C15D C 0.52695(19) 0.6855(7) 0.6262(9) 0.0722 Uani
H15D H 0.5045 0.7174 0.5700 0.0870 Uiso
C16D C 0.55505(16) 0.7384(6) 0.7281(7) 0.0546 Uani
H16D H 0.5508 0.8062 0.7415 0.0660 Uiso
Ni1D Ni 0.63157(2) 0.78335(4) 0.95245(6) 0.0237 Uani
O1D O 0.59564(10) 0.7897(2) 1.1021(4) 0.0332 Uani
H2D H 0.5985 0.7426 1.1787 0.0400 Uiso
H3D H 0.5767 0.8397 1.0925 0.0400 Uiso
O2D O 0.63254(11) 0.6337(3) 1.2421(4) 0.0437 Uani
O3D O 0.82496(10) 0.3694(3) 1.4129(4) 0.0335 Uani
O4D O 0.60470(10) 0.9183(3) 0.8606(4) 0.0409 Uani
H4D H 0.6162 0.9795 0.8945 0.0490 Uiso
H5D H 0.5813 0.9166 0.7861 0.0490 Uiso
O5D O 0.66136(9) 0.6605(2) 1.0524(4) 0.0305 Uani
O6D O 0.86076(11) 0.4449(3) 1.2748(5) 0.0484 Uani
C2D C 0.69311(15) 0.5542(4) 1.2496(6) 0.0360 Uani
H6D H 0.6915 0.5190 1.3353 0.0430 Uiso
C3D C 0.79294(14) 0.4834(3) 1.2273(5) 0.0288 Uani
H7D H 0.7939 0.5161 1.1389 0.0350 Uiso
C7D C 0.72477(13) 0.5432(3) 1.1977(5) 0.0299 Uani
H10D H 0.7247 0.5731 1.1062 0.0360 Uiso
C9D C 0.82852(14) 0.4285(3) 1.3112(5) 0.0288 Uani
C10D C 0.65951(15) 0.6212(3) 1.1762(5) 0.0323 Uani
C11D C 0.75979(14) 0.4876(3) 1.2731(5) 0.0291 Uani
H12D H 0.7589 0.4526 1.3597 0.0350 Uiso
Ni1C Ni 0.13157(2) 0.71665(4) -0.54755(6) 0.0237 Uani
Ni1F Ni 0.13157(2) 0.28335(4) 0.95245(6) 0.0237 Uani
Ni1G Ni 0.86843(2) 0.28335(4) 1.54755(6) 0.0237 Uani
N1D N 0.66519(11) 0.7780(3) 0.7958(4) 0.0255 Uani
O3C O 0.32496(10) 0.1306(3) -0.0871(4) 0.0335 Uani
O3G O 0.67504(10) 0.8694(3) 1.0871(4) 0.0335 Uani
O7 O 0.4847(13) 0.127(3) 0.655(4) 0.5900 Uiso
O8 O 0.4671(7) -0.018(2) 0.473(3) 0.4150 Uiso
loop_
_atom_site_aniso_label
_atom_site_aniso_U_11
_atom_site_aniso_U_22
_atom_site_aniso_U_33
_atom_site_aniso_U_23
_atom_site_aniso_U_13
_atom_site_aniso_U_12
Ni1 0.0223(3) 0.0194(3) 0.0246(3) -0.0010(2) -0.0037(2) -0.0019(2)
C1 0.027(2) 0.040(3) 0.028(2) -0.0013(19) -0.0055(18) -0.0006(19)
O1 0.0340(17) 0.0308(17) 0.0337(18) 0.0019(13) 0.0060(14) 0.0007(13)
N1 0.0236(17) 0.0228(17) 0.0258(18) -0.0009(14) -0.0021(14) -0.0005(14)
O2 0.045(2) 0.045(2) 0.044(2) 0.0131(17) 0.0162(17) 0.0120(17)
O3 0.0334 0.0323 0.0314 0.0111 0.0013 0.0074
O4 0.0316(17) 0.0298(18) 0.058(2) 0.0143(16) 0.0045(16) 0.0032(14)
O5 0.0319(16) 0.0257(16) 0.0312(17) 0.0052(13) 0.0024(13) 0.0040(13)
O6 0.037 0.039 0.069 0.0277 0.0125 0.005
N2 0.030(2) 0.038(2) 0.031(2) -0.0076(17) 0.0029(16) -0.0099(17)
N3 0.034(2) 0.033(2) 0.0268(19) -0.0036(16) 0.0034(15) -0.0010(16)
C2 0.041(3) 0.030(2) 0.032(2) 0.0088(19) -0.001(2) 0.004(2)
C3 0.036 0.0187 0.026 0.004 -0.0037 0.0012
C4 0.026(2) 0.0202(18) 0.025(2) -0.0007(15) -0.0054(16) -0.0015(16)
C5 0.031(2) 0.023(2) 0.027(2) -0.0030(16) 0.0012(17) -0.0022(17)
C6 0.027(2) 0.0184(18) 0.029(2) -0.0003(16) -0.0015(17) -0.0029(16)
C7 0.034(2) 0.020(2) 0.028(2) 0.0010(16) -0.0071(18) -0.0016(17)
C8 0.033(2) 0.045(3) 0.023(2) -0.0005(19) -0.0034(18) 0.000(2)
C9 0.037 0.0196 0.026 0.0029 0.0005 0.0008
C10 0.039(3) 0.022(2) 0.029(2) 0.0033(17) -0.0048(19) -0.0006(18)
C11 0.039 0.0175 0.024 0.0012 -0.0056 0.0007
C12 0.072(5) 0.055(4) 0.078(5) -0.035(4) 0.022(4) -0.033(4)
C13 0.043(3) 0.113(7) 0.060(4) -0.038(4) 0.012(3) -0.045(4)
C14 0.050(3) 0.036(3) 0.057(4) -0.014(3) 0.000(3) -0.011(2)
N4 0.094(5) 0.070(4) 0.075(4) 0.021(3) 0.031(4) 0.043(4)
C15 0.032(3) 0.114(7) 0.063(4) -0.039(4) -0.003(3) -0.015(4)
C16 0.028(3) 0.071(4) 0.055(4) -0.021(3) -0.009(2) -0.005(3)
C1F 0.027 0.04 0.028 -0.0013 -0.0055 -0.0006
N1F 0.0236 0.0228 0.0258 -0.0009 -0.0021 -0.0005
N3F 0.034 0.033 0.0268 -0.0036 0.0034 -0.001
C4F 0.026 0.0202 0.025 -0.0007 -0.0054 -0.0015
C5F 0.031 0.023 0.027 -0.003 0.0012 -0.0022
C6F 0.027 0.0184 0.029 -0.0003 -0.0015 -0.0029
C8F 0.033 0.045 0.023 -0.0005 -0.0034 0
N2D 0.03 0.038 0.031 -0.0076 0.0029 -0.0099
C12D 0.072 0.055 0.078 -0.035 0.022 -0.033
C13D 0.043 0.113 0.06 -0.038 0.012 -0.045
C14D 0.05 0.036 0.057 -0.014 0 -0.011
N4D 0.094 0.07 0.075 0.021 0.031 0.043
C15D 0.032 0.114 0.063 -0.039 -0.003 -0.015
C16D 0.028 0.071 0.055 -0.021 -0.009 -0.005
Ni1D 0.0223 0.0194 0.0246 -0.001 -0.0037 -0.0019
O1D 0.034 0.0308 0.0337 0.0019 0.006 0.0007
O2D 0.045 0.045 0.044 0.0131 0.0162 0.012
O3D 0.0334 0.0323 0.0314 0.0111 0.0013 0.0074
O4D 0.0316 0.0298 0.058 0.0143 0.0045 0.0032
O5D 0.0319 0.0257 0.0312 0.0052 0.0024 0.004
O6D 0.037 0.039 0.069 0.0277 0.0125 0.005
C2D 0.041 0.03 0.032 0.0088 -0.001 0.004
C3D 0.036 0.0187 0.026 0.004 -0.0037 0.0012
C7D 0.034 0.02 0.028 0.001 -0.0071 -0.0016
C9D 0.037 0.0196 0.026 0.0029 0.0005 0.0008
C10D 0.039 0.022 0.029 0.0033 -0.0048 -0.0006
C11D 0.039 0.0175 0.024 0.0012 -0.0056 0.0007
Ni1C 0.0223 0.0194 0.0246 0.001 -0.0037 0.0019
Ni1F 0.0223 0.0194 0.0246 -0.001 -0.0037 -0.0019
Ni1G 0.0223 0.0194 0.0246 0.001 -0.0037 0.0019
N1D 0.0236 0.0228 0.0258 -0.0009 -0.0021 -0.0005
O3C 0.0334 0.0323 0.0314 -0.0111 0.0013 -0.0074
O3G 0.0334 0.0323 0.0314 -0.0111 0.0013 -0.0074
loop_
_geom_bond_atom_site_label_1
_geom_bond_atom_site_label_2
_geom_bond_site_symmetry_1
_geom_bond_site_symmetry_2
Ni1 O1 1_555 1_555
C1 H1 1_555 1_555
O1 H2 1_555 1_555
H3 O1 1_555 1_555
N1 Ni1 1_555 1_555
O2 C10 1_555 1_555
O3 C9 1_555 1_555
O4 Ni1 1_555 1_555
H4 O4 1_555 1_555
H5 O4 1_555 1_555
O5 Ni1 1_555 1_555
O6 C9 1_555 1_555
N2 Ni1 1_555 1_555
N3 C5 1_555 1_555
C2 H6 1_555 1_555
C3 H7 1_555 1_555
C4 N1 1_555 1_555
H8 C4 1_555 1_555
C5 C6 1_555 1_555
C6 C4 1_555 1_555
H9 C6 1_555 1_555
C7 C2 1_555 1_555
H10 C7 1_555 1_555
C8 C1 1_555 1_555
H11 C8 1_555 1_555
C9 C3 1_555 1_555
C10 O5 1_555 1_555
C11 C3 1_555 1_555
H12 C11 1_555 1_555
C12 H13 1_555 1_555
C13 C12 1_555 1_555
C14 N2 1_555 1_555
H14 C14 1_555 1_555
N4 C13 1_555 1_555
C15 C13 1_555 1_555
H15 C15 1_555 1_555
C16 N2 1_555 1_555
H16 C16 1_555 1_555
C1F H1F 1_555 1_555
N1F C1F 1_555 1_555
N3F N3 1_555 1_555
C4F N1F 1_555 1_555
H8F C4F 1_555 1_555
C5F N3F 1_555 1_555
C6F C4F 1_555 1_555
H9F C6F 1_555 1_555
C8F C1F 1_555 1_555
H11F C8F 1_555 1_555
N2D C14D 1_555 1_555
C12D H13D 1_555 1_555
C13D C12D 1_555 1_555
C14D C12D 1_555 1_555
H14D C14D 1_555 1_555
N4D N4 1_555 1_555
C15D C13D 1_555 1_555
H15D C15D 1_555 1_555
C16D N2D 1_555 1_555
H16D C16D 1_555 1_555
Ni1D N2D 1_555 1_555
O1D Ni1D 1_555 1_555
H2D O1D 1_555 1_555
H3D O1D 1_555 1_555
O2D C10D 1_555 1_555
O3D C9D 1_555 1_555
O4D Ni1D 1_555 1_555
H4D O4D 1_555 1_555
H5D O4D 1_555 1_555
O5D Ni1D 1_555 1_555
O6D C9D 1_555 1_555
C2D H6D 1_555 1_555
C3D H7D 1_555 1_555
C7D C2D 1_555 1_555
H10D C7D 1_555 1_555
C9D C3D 1_555 1_555
C10D O5D 1_555 1_555
C11D C3D 1_555 1_555
H12D C11D 1_555 1_555
Ni1C O3 1_555 1_555
Ni1F N1F 1_555 1_555
Ni1G O3D 1_555 1_555
N1D Ni1D 1_555 1_555
O3C Ni1 1_555 1_555
O3G Ni1D 1_555 1_555
C1 N1 1_555 1_555
C2 C10 1_555 1_555
C5 C8 1_555 1_555
C7 C11 1_555 1_555
C12 C14 1_555 1_555
C15 C16 1_555 1_555
C5F C6F 1_555 1_555
C5F C8F 1_555 1_555
C13D N4D 1_555 1_555
C15D C16D 1_555 1_555
C2D C10D 1_555 1_555
C7D C11D 1_555 1_555

#END
