
#######################################################################
#
#                 Cambridge Crystallographic Data Centre
#                                CCDC 
#
#######################################################################
#
# If this CIF has been generated from an entry in the Cambridge 
# Structural Database, then it will include bibliographic, chemical, 
# crystal, experimental, refinement or atomic coordinate data resulting 
# from the CCDC's data processing and validation procedures.
#
#######################################################################

data_EROJUS02
_chemical_formula_moiety         '(C13 H12 Cd1 N2 O2)n'
_symmetry_cell_setting           tetragonal
_symmetry_space_group_name_H-M   'I 41/a'
_symmetry_Int_Tables_number      88
_space_group_name_Hall           '-I 4ad'
loop_
_symmetry_equiv_pos_site_id
_symmetry_equiv_pos_as_xyz
1 x,y,z
2 3/4-y,1/4+x,1/4+z
3 -x,1/2-y,z
4 1/4+y,1/4-x,1/4+z
5 1/2+x,1/2+y,1/2+z
6 1/4-y,3/4+x,3/4+z
7 1/2-x,-y,1/2+z
8 3/4+y,3/4-x,3/4+z
9 -x,-y,-z
10 1/4+y,3/4-x,3/4-z
11 x,1/2+y,-z
12 3/4-y,3/4+x,3/4-z
13 1/2-x,1/2-y,1/2-z
14 3/4+y,1/4-x,1/4-z
15 1/2+x,y,1/2-z
16 1/4-y,1/4+x,1/4-z
_cell_length_a                   24.5830(4)
_cell_length_b                   24.5830(4)
_cell_length_c                   10.8704(3)
_cell_angle_alpha                90
_cell_angle_beta                 90
_cell_angle_gamma                90
_cell_volume                     6569.24
loop_
_atom_site_label
_atom_site_type_symbol
_atom_site_fract_x
_atom_site_fract_y
_atom_site_fract_z
_atom_site_U_iso_or_equiv
_atom_site_thermal_displace_type
Cd1 Cd 0.27577(2) 0.44786(2) 0.04171(4) 0.0458 Uani
C1 C 0.3603(2) 0.5410(3) -0.2184(6) 0.0493 Uani
C2 C 0.4620(3) 0.5902(3) -0.2276(9) 0.0673 Uani
C3 C 0.4512(3) 0.5509(4) -0.1422(11) 0.0923 Uani
H1 H 0.4780 0.5408 -0.0861 0.1110 Uiso
C4 C 0.4222(3) 0.6037(4) -0.3092(10) 0.0863 Uani
H2 H 0.4293 0.6295 -0.3698 0.1040 Uiso
C5 C 0.4003(3) 0.5257(4) -0.1383(10) 0.0813 Uani
H3 H 0.3937 0.4984 -0.0810 0.0980 Uiso
C6 C 0.3716(3) 0.5797(4) -0.3031(9) 0.0803 Uani
H4 H 0.3447 0.5903 -0.3582 0.0960 Uiso
O1 O 0.29839(19) 0.46998(19) -0.1622(4) 0.0540 Uani
C7 C 0.3044(2) 0.5163(3) -0.2117(6) 0.0443 Uani
O2 O 0.26496(16) 0.54176(19) -0.2575(4) 0.0497 Uani
C8 C 0.5658(2) 0.5867(3) -0.2034(8) 0.0583 Uani
C9 C 0.5841(3) 0.5419(3) -0.2694(8) 0.0617 Uani
C10 C 0.5605(4) 0.5134(5) -0.3772(11) 0.0997 Uani
H5 H 0.5277 0.4950 -0.3529 0.1490 Uiso
H6 H 0.5862 0.4873 -0.4081 0.1490 Uiso
H7 H 0.5522 0.5393 -0.4405 0.1490 Uiso
C11 C 0.5161(3) 0.6200(4) -0.2314(12) 0.0897 Uani
H8 H 0.5204 0.6357 -0.3127 0.1080 Uiso
H9 H 0.5145 0.6499 -0.1732 0.1080 Uiso
N1 N 0.6324(2) 0.5258(2) -0.2226(5) 0.0503 Uani
N2 N 0.6453(2) 0.5598(2) -0.1283(6) 0.0517 Uani
C12 C 0.6051(3) 0.5966(3) -0.1164(8) 0.0583 Uani
C13 C 0.6084(4) 0.6388(4) -0.0196(11) 0.0977 Uani
H10 H 0.6123 0.6739 -0.0573 0.1460 Uiso
H11 H 0.6392 0.6318 0.0322 0.1460 Uiso
H12 H 0.5758 0.6381 0.0289 0.1460 Uiso
Cd1F Cd 0.22423(2) 0.55214(2) -0.45829(4) 0.0458 Uani
Cd1G Cd 0.19786(2) 0.47423(2) -0.20829(4) 0.0458 Uani
Cd1H Cd 0.72423(2) 0.55214(2) -0.04171(4) 0.0458 Uani
Cd1I Cd 0.69786(2) 0.47423(2) -0.29171(4) 0.0458 Uani
O1A O 0.28002(19) 0.54839(19) 0.0878(4) 0.0540 Uani
O2A O 0.20824(19) 0.51496(16) -0.0075(4) 0.0497 Uani
O2F O 0.23504(16) 0.45824(19) 0.2425(4) 0.0497 Uani
N1K N 0.2242(2) 0.3824(2) -0.0274(5) 0.0503 Uani
N2H N 0.3547(2) 0.4402(2) 0.1283(6) 0.0517 Uani
loop_
_atom_site_aniso_label
_atom_site_aniso_U_11
_atom_site_aniso_U_22
_atom_site_aniso_U_33
_atom_site_aniso_U_23
_atom_site_aniso_U_13
_atom_site_aniso_U_12
Cd1 0.0418(2) 0.0419(2) 0.0537(3) -0.00160(18) -0.00362(18) 0.00547(16)
C1 0.036(3) 0.054(3) 0.058(4) 0.003(3) 0.000(3) -0.002(2)
C2 0.037(3) 0.056(4) 0.109(7) 0.019(4) -0.007(4) 0.002(3)
C3 0.044(4) 0.108(7) 0.125(8) 0.050(7) -0.024(5) -0.011(4)
C4 0.049(4) 0.079(5) 0.131(8) 0.055(6) -0.011(5) -0.015(4)
C5 0.044(3) 0.086(6) 0.114(7) 0.051(6) -0.010(4) -0.011(4)
C6 0.050(4) 0.092(6) 0.099(6) 0.043(5) -0.017(4) -0.011(4)
O1 0.052(2) 0.051(2) 0.059(3) 0.002(2) 0.010(2) -0.003(2)
C7 0.037(3) 0.048(3) 0.048(3) 0.001(3) -0.001(2) -0.003(2)
O2 0.0350(19) 0.056(2) 0.058(2) 0.000(2) -0.0044(18) -0.0030(17)
C8 0.032(3) 0.053(3) 0.090(5) 0.016(4) 0.000(3) -0.001(2)
C9 0.040(3) 0.069(4) 0.076(5) 0.014(4) -0.012(3) -0.015(3)
C10 0.077(6) 0.105(7) 0.117(8) -0.004(7) -0.039(6) -0.009(5)
C11 0.041(4) 0.062(4) 0.166(10) 0.035(6) -0.010(5) -0.005(3)
N1 0.033(2) 0.058(3) 0.060(3) 0.003(3) 0.004(2) 0.003(2)
N2 0.038(2) 0.058(3) 0.059(3) 0.001(3) 0.000(2) 0.007(2)
C12 0.040(3) 0.053(3) 0.082(5) 0.006(4) 0.006(3) 0.008(3)
C13 0.078(6) 0.080(6) 0.135(9) -0.030(6) -0.002(6) 0.025(5)
Cd1F 0.0418 0.0419 0.0537 0.0016 0.00362 0.00547
Cd1G 0.0419 0.0418 0.0537 0.00362 -0.0016 -0.00547
Cd1H 0.0418 0.0419 0.0537 -0.0016 -0.00362 0.00547
Cd1I 0.0419 0.0418 0.0537 -0.00362 0.0016 -0.00547
O1A 0.051 0.052 0.059 0.01 -0.002 0.003
O2A 0.056 0.035 0.058 -0.0044 0 0.003
O2F 0.035 0.056 0.058 0 0.0044 -0.003
N1K 0.058 0.033 0.06 -0.004 0.003 -0.003
N2H 0.038 0.058 0.059 0.001 0 0.007
loop_
_geom_bond_atom_site_label_1
_geom_bond_atom_site_label_2
_geom_bond_site_symmetry_1
_geom_bond_site_symmetry_2
Cd1 O1 1_555 1_555
C1 C5 1_555 1_555
C2 C3 1_555 1_555
C3 H1 1_555 1_555
C4 C2 1_555 1_555
H2 C4 1_555 1_555
C5 C3 1_555 1_555
H3 C5 1_555 1_555
C6 C1 1_555 1_555
H4 C6 1_555 1_555
O1 C7 1_555 1_555
C7 C1 1_555 1_555
O2 C7 1_555 1_555
C8 C9 1_555 1_555
C9 C10 1_555 1_555
C10 H5 1_555 1_555
H6 C10 1_555 1_555
H7 C10 1_555 1_555
C11 C2 1_555 1_555
H8 C11 1_555 1_555
H9 C11 1_555 1_555
N1 C9 1_555 1_555
N2 N1 1_555 1_555
C12 C8 1_555 1_555
C13 C12 1_555 1_555
H10 C13 1_555 1_555
H11 C13 1_555 1_555
H12 C13 1_555 1_555
Cd1F O2 1_555 1_555
Cd1G O1 1_555 1_555
Cd1H N2 1_555 1_555
Cd1I N1 1_555 1_555
O1A Cd1 1_555 1_555
O2A Cd1 1_555 1_555
O2F Cd1 1_555 1_555
N1K Cd1 1_555 1_555
N2H Cd1 1_555 1_555
C4 C6 1_555 1_555
O2 Cd1G 1_555 1_555
C8 C11 1_555 1_555
N2 C12 1_555 1_555
Cd1G O2A 1_555 1_555

#END
