
#######################################################################
#
#                 Cambridge Crystallographic Data Centre
#                                CCDC 
#
#######################################################################
#
# If this CIF has been generated from an entry in the Cambridge 
# Structural Database, then it will include bibliographic, chemical, 
# crystal, experimental, refinement or atomic coordinate data resulting 
# from the CCDC's data processing and validation procedures.
#
#######################################################################

data_EROJUS04
_chemical_formula_moiety         '(C13 H12 Cd1 N2 O2)n'
_symmetry_cell_setting           tetragonal
_symmetry_space_group_name_H-M   'I 41/a'
_symmetry_Int_Tables_number      88
_space_group_name_Hall           '-I 4ad'
loop_
_symmetry_equiv_pos_site_id
_symmetry_equiv_pos_as_xyz
1 x,y,z
2 3/4-y,1/4+x,1/4+z
3 -x,1/2-y,z
4 1/4+y,1/4-x,1/4+z
5 1/2+x,1/2+y,1/2+z
6 1/4-y,3/4+x,3/4+z
7 1/2-x,-y,1/2+z
8 3/4+y,3/4-x,3/4+z
9 -x,-y,-z
10 1/4+y,3/4-x,3/4-z
11 x,1/2+y,-z
12 3/4-y,3/4+x,3/4-z
13 1/2-x,1/2-y,1/2-z
14 3/4+y,1/4-x,1/4-z
15 1/2+x,y,1/2-z
16 1/4-y,1/4+x,1/4-z
_cell_length_a                   24.6108(3)
_cell_length_b                   24.6108(3)
_cell_length_c                   10.76785(17)
_cell_angle_alpha                90
_cell_angle_beta                 90
_cell_angle_gamma                90
_cell_volume                     6521.99
loop_
_atom_site_label
_atom_site_type_symbol
_atom_site_fract_x
_atom_site_fract_y
_atom_site_fract_z
_atom_site_U_iso_or_equiv
_atom_site_thermal_displace_type
C1 C 0.30380(9) 0.51572(10) 0.2792(2) 0.0185 Uani
C2 C 0.35940(10) 0.54020(10) 0.2738(2) 0.0201 Uani
C3 C 0.39957(11) 0.52490(12) 0.3565(3) 0.0347 Uani
H1 H 0.3927 0.4979 0.4148 0.0420 Uiso
C4 C 0.45025(11) 0.54975(14) 0.3526(3) 0.0398 Uani
H2 H 0.4768 0.5398 0.4098 0.0480 Uiso
C5 C 0.46174(10) 0.58940(10) 0.2642(3) 0.0265 Uani
C6 C 0.42169(11) 0.60316(12) 0.1801(3) 0.0332 Uani
H3 H 0.4291 0.6289 0.1191 0.0400 Uiso
C7 C 0.37081(11) 0.57939(12) 0.1850(3) 0.0305 Uani
H4 H 0.3442 0.5897 0.1285 0.0370 Uiso
C8 C 0.51609(11) 0.61901(12) 0.2606(3) 0.0353 Uani
H5 H 0.5211 0.6338 0.1779 0.0420 Uiso
H6 H 0.5144 0.6494 0.3178 0.0420 Uiso
C9 C 0.56527(10) 0.58529(10) 0.2928(3) 0.0253 Uani
C10 C 0.60390(10) 0.59590(10) 0.3836(3) 0.0243 Uani
C11 C 0.60589(13) 0.63977(13) 0.4795(3) 0.0406 Uani
H7 H 0.6141 0.6738 0.4403 0.0610 Uiso
H8 H 0.6335 0.6314 0.5395 0.0610 Uiso
H9 H 0.5713 0.6422 0.5204 0.0610 Uiso
C12 C 0.58405(10) 0.53928(11) 0.2309(3) 0.0250 Uani
C13 C 0.56062(13) 0.51021(13) 0.1212(3) 0.0401 Uani
H10 H 0.5266 0.4940 0.1441 0.0600 Uiso
H11 H 0.5854 0.4824 0.0944 0.0600 Uiso
H12 H 0.5549 0.5356 0.0548 0.0600 Uiso
Cd1 Cd 0.22255(2) 0.55203(2) 0.03510(2) 0.0174 Uani
N1 N 0.63119(8) 0.52310(8) 0.28170(19) 0.0208 Uani
N2 N 0.64364(8) 0.55851(8) 0.37630(19) 0.0203 Uani
O1 O 0.26372(7) 0.54178(7) 0.23507(15) 0.0198 Uani
O2 O 0.29759(7) 0.46901(7) 0.32866(16) 0.0210 Uani
Cd1A Cd 0.19797(2) 0.47255(2) 0.28510(2) 0.0174 Uani
Cd1F Cd 0.27745(2) 0.44797(2) 0.53510(2) 0.0174 Uani
Cd1N Cd 0.72255(2) 0.55203(2) 0.46490(2) 0.0174 Uani
Cd1O Cd 0.69797(2) 0.47255(2) 0.21490(2) 0.0174 Uani
N1M N 0.27310(8) 0.61881(8) -0.03170(19) 0.0208 Uani
N2N N 0.14364(8) 0.55851(8) 0.12370(19) 0.0203 Uani
O1G O 0.29178(7) 0.48628(7) -0.01493(15) 0.0198 Uani
O2F O 0.20241(7) 0.53099(7) -0.17134(16) 0.0210 Uani
O2G O 0.21901(7) 0.45241(7) 0.07866(16) 0.0210 Uani
loop_
_atom_site_aniso_label
_atom_site_aniso_U_11
_atom_site_aniso_U_22
_atom_site_aniso_U_33
_atom_site_aniso_U_23
_atom_site_aniso_U_13
_atom_site_aniso_U_12
C1 0.0192(11) 0.0217(11) 0.0146(11) -0.0032(9) 0.0009(9) -0.0003(9)
C2 0.0182(11) 0.0204(11) 0.0218(11) 0.0019(10) 0.0014(10) 0.0014(9)
C3 0.0235(13) 0.0393(15) 0.0412(16) 0.0207(14) -0.0047(12) -0.0023(11)
C4 0.0214(13) 0.0507(18) 0.0473(18) 0.0238(16) -0.0106(13) -0.0026(12)
C5 0.0177(12) 0.0232(12) 0.0386(15) 0.0074(11) 0.0003(11) 0.0008(9)
C6 0.0235(13) 0.0311(14) 0.0451(16) 0.0180(13) -0.0044(12) -0.0024(11)
C7 0.0217(13) 0.0341(14) 0.0357(15) 0.0129(12) -0.0059(11) -0.0026(11)
C8 0.0193(13) 0.0284(14) 0.0582(19) 0.0147(14) -0.0048(13) -0.0013(10)
C9 0.0155(11) 0.0247(12) 0.0356(14) 0.0092(11) 0.0007(11) -0.0017(9)
C10 0.0179(11) 0.0241(12) 0.0308(13) 0.0044(11) 0.0037(10) 0.0017(9)
C11 0.0317(15) 0.0391(16) 0.0509(18) -0.0139(15) -0.0016(14) 0.0116(12)
C12 0.0190(12) 0.0294(13) 0.0267(12) 0.0093(11) -0.0035(10) -0.0062(10)
C13 0.0356(16) 0.0419(17) 0.0429(17) -0.0021(15) -0.0152(14) -0.0043(13)
Cd1 0.01738(10) 0.01783(9) 0.01710(9) 0.00032(6) 0.00112(6) 0.00213(6)
N1 0.0165(9) 0.0243(10) 0.0216(10) 0.0009(9) 0.0016(8) -0.0005(8)
N2 0.0190(10) 0.0216(10) 0.0203(9) 0.0003(8) 0.0011(8) 0.0026(7)
O1 0.0166(8) 0.0245(8) 0.0183(8) -0.0019(7) -0.0009(7) -0.0007(6)
O2 0.0222(8) 0.0211(8) 0.0197(8) -0.0004(7) 0.0014(7) -0.0027(7)
Cd1A 0.01783 0.01738 0.0171 0.00112 -0.00032 -0.00213
Cd1F 0.01738 0.01783 0.0171 -0.00032 -0.00112 0.00213
Cd1N 0.01738 0.01783 0.0171 -0.00032 -0.00112 0.00213
Cd1O 0.01783 0.01738 0.0171 -0.00112 0.00032 -0.00213
N1M 0.0243 0.0165 0.0216 0.0016 -0.0009 0.0005
N2N 0.019 0.0216 0.0203 -0.0003 -0.0011 0.0026
O1G 0.0245 0.0166 0.0183 0.0009 -0.0019 0.0007
O2F 0.0222 0.0211 0.0197 0.0004 -0.0014 -0.0027
O2G 0.0211 0.0222 0.0197 -0.0014 -0.0004 0.0027
loop_
_geom_bond_atom_site_label_1
_geom_bond_atom_site_label_2
_geom_bond_site_symmetry_1
_geom_bond_site_symmetry_2
C1 C2 1_555 1_555
C2 C3 1_555 1_555
C3 H1 1_555 1_555
C4 C3 1_555 1_555
H2 C4 1_555 1_555
C5 C4 1_555 1_555
C6 C5 1_555 1_555
H3 C6 1_555 1_555
C7 C2 1_555 1_555
H4 C7 1_555 1_555
C8 C5 1_555 1_555
H5 C8 1_555 1_555
H6 C8 1_555 1_555
C9 C8 1_555 1_555
C10 C9 1_555 1_555
C11 C10 1_555 1_555
H7 C11 1_555 1_555
H8 C11 1_555 1_555
H9 C11 1_555 1_555
C12 C9 1_555 1_555
C13 C12 1_555 1_555
H10 C13 1_555 1_555
H11 C13 1_555 1_555
H12 C13 1_555 1_555
Cd1 O1 1_555 1_555
N1 C12 1_555 1_555
N2 C10 1_555 1_555
O1 C1 1_555 1_555
O2 C1 1_555 1_555
Cd1A O1 1_555 1_555
Cd1F O2 1_555 1_555
Cd1N N2 1_555 1_555
Cd1O N1 1_555 1_555
N1M Cd1 1_555 1_555
N2N Cd1 1_555 1_555
O1G Cd1 1_555 1_555
O2F Cd1 1_555 1_555
O2G Cd1 1_555 1_555
C6 C7 1_555 1_555
N1 N2 1_555 1_555
O2 Cd1A 1_555 1_555
Cd1A O2G 1_555 1_555

#END
