
#######################################################################
#
#                 Cambridge Crystallographic Data Centre
#                                CCDC 
#
#######################################################################
#
# If this CIF has been generated from an entry in the Cambridge 
# Structural Database, then it will include bibliographic, chemical, 
# crystal, experimental, refinement or atomic coordinate data resulting 
# from the CCDC's data processing and validation procedures.
#
#######################################################################

data_EROJUS
_chemical_formula_moiety         '(C13 H12 Cd1 N2 O2)n'
_symmetry_cell_setting           tetragonal
_symmetry_space_group_name_H-M   'I 41/a'
_symmetry_Int_Tables_number      88
_space_group_name_Hall           '-I 4ad'
loop_
_symmetry_equiv_pos_site_id
_symmetry_equiv_pos_as_xyz
1 x,y,z
2 3/4-y,1/4+x,1/4+z
3 -x,1/2-y,z
4 1/4+y,1/4-x,1/4+z
5 1/2+x,1/2+y,1/2+z
6 1/4-y,3/4+x,3/4+z
7 1/2-x,-y,1/2+z
8 3/4+y,3/4-x,3/4+z
9 -x,-y,-z
10 1/4+y,3/4-x,3/4-z
11 x,1/2+y,-z
12 3/4-y,3/4+x,3/4-z
13 1/2-x,1/2-y,1/2-z
14 3/4+y,1/4-x,1/4-z
15 1/2+x,y,1/2-z
16 1/4-y,1/4+x,1/4-z
_cell_length_a                   24.0290(5)
_cell_length_b                   24.0290(5)
_cell_length_c                   10.5501(3)
_cell_angle_alpha                90
_cell_angle_beta                 90
_cell_angle_gamma                90
_cell_volume                     6091.55
loop_
_atom_site_label
_atom_site_type_symbol
_atom_site_fract_x
_atom_site_fract_y
_atom_site_fract_z
_atom_site_U_iso_or_equiv
_atom_site_thermal_displace_type
C1 C 0.30120(14) 0.52205(14) 0.3010(3) 0.0255 Uani
C2 C 0.35638(14) 0.55030(15) 0.3129(3) 0.0282 Uani
C3 C 0.39725(15) 0.53018(16) 0.3941(4) 0.0327 Uani
H1 H 0.3909 0.4970 0.4408 0.0390 Uiso
C4 C 0.44728(15) 0.55830(17) 0.4073(4) 0.0372 Uani
H2 H 0.4745 0.5446 0.4645 0.0450 Uiso
C5 C 0.45810(14) 0.60597(15) 0.3383(4) 0.0350 Uani
C6 C 0.41752(18) 0.62506(18) 0.2562(5) 0.0510 Uani
H3 H 0.4244 0.6575 0.2073 0.0610 Uiso
C7 C 0.36682(18) 0.59774(19) 0.2438(5) 0.0483 Uani
H4 H 0.3394 0.6118 0.1876 0.0580 Uiso
C8 C 0.51225(16) 0.63764(17) 0.3523(5) 0.0438 Uani
H5 H 0.5146 0.6653 0.2830 0.0530 Uiso
H6 H 0.5111 0.6585 0.4333 0.0530 Uiso
C9 C 0.56395(15) 0.60314(15) 0.3505(4) 0.0322 Uani
C10 C 0.57771(14) 0.55876(15) 0.2700(3) 0.0303 Uani
C11 C 0.54448(17) 0.53105(18) 0.1688(4) 0.0419 Uani
H7 H 0.5152 0.5083 0.2077 0.0630 Uiso
H8 H 0.5689 0.5072 0.1179 0.0630 Uiso
H9 H 0.5275 0.5594 0.1143 0.0630 Uiso
C12 C 0.61120(15) 0.61132(15) 0.4239(4) 0.0315 Uani
C13 C 0.62181(19) 0.6521(2) 0.5287(5) 0.0523 Uani
H10 H 0.6296 0.6889 0.4924 0.0780 Uiso
H11 H 0.6539 0.6398 0.5788 0.0780 Uiso
H12 H 0.5889 0.6544 0.5834 0.0780 Uiso
Cd1 Cd 0.23413(2) 0.56038(2) 0.03891(2) 0.0242 Uani
N1 N 0.65101(12) 0.57448(12) 0.3894(3) 0.0277 Uani
N2 N 0.63012(11) 0.54217(11) 0.2950(3) 0.0251 Uani
O1 O 0.26037(10) 0.54987(10) 0.2543(2) 0.0266 Uani
O2 O 0.29460(10) 0.47286(10) 0.3403(2) 0.0277 Uani
Cd1A Cd 0.18962(2) 0.48413(2) 0.28891(2) 0.0242 Uani
Cd1F Cd 0.26587(2) 0.43962(2) 0.53891(2) 0.0242 Uani
Cd1N Cd 0.73413(2) 0.56038(2) 0.46109(2) 0.0242 Uani
Cd1O Cd 0.68962(2) 0.48413(2) 0.21109(2) 0.0242 Uani
N1N N 0.15101(12) 0.57448(12) 0.1106(3) 0.0277 Uani
N2M N 0.29217(11) 0.61988(11) -0.0450(3) 0.0251 Uani
O1G O 0.29987(10) 0.48963(10) 0.0043(2) 0.0266 Uani
O2F O 0.20540(10) 0.52714(10) -0.1597(2) 0.0277 Uani
O2G O 0.22286(10) 0.45540(10) 0.0903(2) 0.0277 Uani
loop_
_atom_site_aniso_label
_atom_site_aniso_U_11
_atom_site_aniso_U_22
_atom_site_aniso_U_33
_atom_site_aniso_U_23
_atom_site_aniso_U_13
_atom_site_aniso_U_12
C1 0.0244(16) 0.0316(17) 0.0205(14) -0.0049(13) 0.0012(12) -0.0022(13)
C2 0.0246(16) 0.0271(16) 0.0328(16) 0.0000(14) 0.0019(14) 0.0002(13)
C3 0.0258(17) 0.0323(18) 0.0399(19) 0.0060(15) 0.0013(15) -0.0012(14)
C4 0.0246(17) 0.042(2) 0.045(2) 0.0057(17) -0.0047(16) 0.0055(15)
C5 0.0202(16) 0.0288(18) 0.056(2) -0.0023(17) 0.0000(16) 0.0028(13)
C6 0.039(2) 0.036(2) 0.078(3) 0.025(2) -0.015(2) -0.0145(18)
C7 0.035(2) 0.045(2) 0.065(3) 0.019(2) -0.016(2) -0.0060(18)
C8 0.0262(18) 0.0313(19) 0.074(3) -0.002(2) -0.0029(19) -0.0021(15)
C9 0.0235(17) 0.0271(17) 0.046(2) 0.0004(15) 0.0014(15) -0.0041(13)
C10 0.0241(16) 0.0310(18) 0.0358(18) 0.0069(15) -0.0008(14) -0.0062(13)
C11 0.0307(19) 0.045(2) 0.050(2) -0.0072(19) -0.0079(17) -0.0018(16)
C12 0.0253(17) 0.0267(17) 0.0426(19) -0.0009(15) 0.0018(15) 0.0065(13)
C13 0.036(2) 0.052(3) 0.069(3) -0.026(2) -0.004(2) 0.0070(19)
Cd1 0.02259(13) 0.02358(13) 0.02641(13) 0.00096(8) 0.00117(8) 0.00149(8)
N1 0.0242(14) 0.0267(14) 0.0323(14) -0.0009(12) 0.0016(11) 0.0016(11)
N2 0.0208(13) 0.0240(13) 0.0306(13) -0.0015(11) 0.0026(11) 0.0044(10)
O1 0.0227(11) 0.0283(12) 0.0287(11) -0.0017(9) -0.0024(9) -0.0011(9)
O2 0.0280(12) 0.0271(12) 0.0279(11) -0.0015(10) 0.0020(10) -0.0020(9)
Cd1A 0.02358 0.02259 0.02641 0.00117 -0.00096 -0.00149
Cd1F 0.02259 0.02358 0.02641 -0.00096 -0.00117 0.00149
Cd1N 0.02259 0.02358 0.02641 -0.00096 -0.00117 0.00149
Cd1O 0.02358 0.02259 0.02641 -0.00117 0.00096 -0.00149
N1N 0.0242 0.0267 0.0323 0.0009 -0.0016 0.0016
N2M 0.024 0.0208 0.0306 0.0026 0.0015 -0.0044
O1G 0.0283 0.0227 0.0287 0.0024 -0.0017 0.0011
O2F 0.028 0.0271 0.0279 0.0015 -0.002 -0.002
O2G 0.0271 0.028 0.0279 -0.002 -0.0015 0.002
loop_
_geom_bond_atom_site_label_1
_geom_bond_atom_site_label_2
_geom_bond_site_symmetry_1
_geom_bond_site_symmetry_2
C1 C2 1_555 1_555
C2 C3 1_555 1_555
C3 H1 1_555 1_555
C4 C3 1_555 1_555
H2 C4 1_555 1_555
C5 C4 1_555 1_555
C6 C5 1_555 1_555
H3 C6 1_555 1_555
C7 C2 1_555 1_555
H4 C7 1_555 1_555
C8 C5 1_555 1_555
H5 C8 1_555 1_555
H6 C8 1_555 1_555
C9 C8 1_555 1_555
C10 C9 1_555 1_555
C11 C10 1_555 1_555
H7 C11 1_555 1_555
H8 C11 1_555 1_555
H9 C11 1_555 1_555
C12 C9 1_555 1_555
C13 C12 1_555 1_555
H10 C13 1_555 1_555
H11 C13 1_555 1_555
H12 C13 1_555 1_555
Cd1 O1 1_555 1_555
N1 C12 1_555 1_555
N2 C10 1_555 1_555
O1 C1 1_555 1_555
O2 C1 1_555 1_555
Cd1A O1 1_555 1_555
Cd1F O2 1_555 1_555
Cd1N N1 1_555 1_555
Cd1O N2 1_555 1_555
N1N Cd1 1_555 1_555
N2M Cd1 1_555 1_555
O1G Cd1 1_555 1_555
O2F Cd1 1_555 1_555
O2G Cd1 1_555 1_555
C6 C7 1_555 1_555
N1 N2 1_555 1_555
O2 Cd1A 1_555 1_555
Cd1A O2G 1_555 1_555

#END
