
#######################################################################
#
#                 Cambridge Crystallographic Data Centre
#                                CCDC 
#
#######################################################################
#
# If this CIF has been generated from an entry in the Cambridge 
# Structural Database, then it will include bibliographic, chemical, 
# crystal, experimental, refinement or atomic coordinate data resulting 
# from the CCDC's data processing and validation procedures.
#
#######################################################################

data_FAQGIO
_chemical_formula_moiety         '(C4 H22 F6 N4 O8 P2 Sc2)n'
_symmetry_cell_setting           monoclinic
_symmetry_space_group_name_H-M   'C 2/c'
_symmetry_Int_Tables_number      15
_space_group_name_Hall           '-C 2yc'
loop_
_symmetry_equiv_pos_site_id
_symmetry_equiv_pos_as_xyz
1 x,y,z
2 1/2+x,1/2+y,z
3 -x,y,1/2-z
4 1/2-x,1/2+y,1/2-z
5 -x,-y,-z
6 1/2-x,1/2-y,-z
7 x,-y,1/2+z
8 1/2+x,1/2-y,1/2+z
_cell_length_a                   20.2996(16)
_cell_length_b                   9.4001(6)
_cell_length_c                   9.6941(10)
_cell_angle_alpha                90
_cell_angle_beta                 111.31(1)
_cell_angle_gamma                90
_cell_volume                     1723.34
loop_
_atom_site_label
_atom_site_type_symbol
_atom_site_fract_x
_atom_site_fract_y
_atom_site_fract_z
Sc1 Sc 0.50000 0.62667(6) 0.25000
Sc2 Sc 0.25000 0.25000 0.00000
P1 P 0.39466(3) 0.41990(6) -0.03574(6)
F1 F 0.31292(8) 0.12274(16) 0.16309(16)
O1 O 0.44000(8) 0.45586(19) 0.12312(17)
O2 O 0.43845(9) 0.3662(2) -0.12175(19)
F2 F 0.55997(7) 0.78084(16) 0.38300(15)
F3 F 0.26405(8) 0.40722(16) 0.14605(16)
O3 O 0.33953(9) 0.3078(2) -0.04452(19)
O4 O 0.35762(11) 0.5626(2) -0.1039(2)
H1 H 0.3315(19) 0.564(4) -0.177(4)
Sc1D Sc 0.50000 0.37333(6) -0.25000
Sc1D_2 Sc 0.50000 0.37333(6) 0.75000
Sc2B Sc 0.75000 0.25000 0.50000
P1B P 0.60534(3) 0.41990(6) 0.53574(6)
F1E F 0.18708(8) 0.37726(16) -0.16309(16)
O1B O 0.56000(8) 0.45586(19) 0.37688(17)
O2B O 0.56155(9) 0.3662(2) 0.62175(19)
O2F O 0.43845(9) 0.6338(2) 0.37825(19)
O2D O 0.56155(9) 0.6338(2) 0.12175(19)
F2B F 0.44003(7) 0.78084(16) 0.11700(15)
F3E F 0.23595(8) 0.09278(16) -0.14605(16)
O3B O 0.66047(9) 0.3078(2) 0.54452(19)
O3E O 0.16047(9) 0.1922(2) 0.04452(19)
O4B O 0.64238(11) 0.5626(2) 0.6039(2)
H1B H 0.6685(19) 0.564(4) 0.677(4)
N1 N 0.44377(12) 0.2174(3) 0.3317(3)
H2 H 0.4504(19) 0.303(5) 0.296(4)
H3 H 0.4016(17) 0.187(4) 0.271(3)
H4 H 0.4455(19) 0.224(4) 0.423(4)
C1 C 0.49514(14) 0.1076(3) 0.3236(3)
H5 H 0.5397(16) 0.122(3) 0.404(3)
H6 H 0.4771(17) 0.022(4) 0.338(4)
N1B N 0.55623(12) 0.2174(3) 0.1683(3)
H2B H 0.5496(19) 0.303(5) 0.204(4)
H3B H 0.5984(17) 0.187(4) 0.229(3)
H4B H 0.5545(19) 0.224(4) 0.077(4)
C1B C 0.50486(14) 0.1076(3) 0.1764(3)
H5B H 0.4603(16) 0.122(3) 0.096(3)
H6B H 0.5229(17) 0.022(4) 0.162(4)
N2 N 0.31815(12) -0.1703(3) 0.1701(3)
H7 H 0.358(2) -0.178(4) 0.143(4)
H8 H 0.3029(18) -0.079(4) 0.156(4)
H9 H 0.3309(18) -0.190(4) 0.269(4)
C2 C 0.26382(15) -0.2729(3) 0.0804(3)
H10 H 0.2254(17) -0.272(3) 0.118(3)
H11 H 0.2863(16) -0.361(4) 0.096(3)
N2E N 0.18185(12) -0.3297(3) -0.1701(3)
H7E H 0.142(2) -0.322(4) -0.143(4)
H8E H 0.1971(18) -0.421(4) -0.156(4)
H9E H 0.1691(18) -0.310(4) -0.269(4)
C2E C 0.23618(15) -0.2271(3) -0.0804(3)
H10E H 0.2746(17) -0.228(3) -0.118(3)
H11E H 0.2137(16) -0.139(4) -0.096(3)
loop_
_geom_bond_atom_site_label_1
_geom_bond_atom_site_label_2
_geom_bond_site_symmetry_1
_geom_bond_site_symmetry_2
Sc1 O1 1_555 1_555
Sc2 F1 1_555 1_555
P1 O1 1_555 1_555
O2 P1 1_555 1_555
F2 Sc1 1_555 1_555
F3 Sc2 1_555 1_555
O3 Sc2 1_555 1_555
O4 P1 1_555 1_555
H1 O4 1_555 1_555
N1 H2 1_555 1_555
H3 N1 1_555 1_555
H4 N1 1_555 1_555
C1 N1 1_555 1_555
H5 C1 1_555 1_555
H6 C1 1_555 1_555
N2 H7 1_555 1_555
H8 N2 1_555 1_555
H9 N2 1_555 1_555
C2 N2 1_555 1_555
H10 C2 1_555 1_555
H11 C2 1_555 1_555
Sc1D O2 1_555 1_555
Sc1D_2 O2B 1_555 1_555
Sc2B O3B 1_555 1_555
P1B O1B 1_555 1_555
F1E Sc2 1_555 1_555
O1B Sc1 1_555 1_555
O2B P1B 1_555 1_555
O2F Sc1 1_555 1_555
O2D Sc1 1_555 1_555
F2B Sc1 1_555 1_555
F3E Sc2 1_555 1_555
O3B P1B 1_555 1_555
O3E Sc2 1_555 1_555
O4B P1B 1_555 1_555
H1B O4B 1_555 1_555
N1B H2B 1_555 1_555
H3B N1B 1_555 1_555
H4B N1B 1_555 1_555
C1B C1 1_555 1_555
H5B C1B 1_555 1_555
H6B C1B 1_555 1_555
N2E H7E 1_555 1_555
H8E N2E 1_555 1_555
H9E N2E 1_555 1_555
C2E C2 1_555 1_555
H10E C2E 1_555 1_555
H11E C2E 1_555 1_555
P1 O3 1_555 1_555
N1B C1B 1_555 1_555
N2E C2E 1_555 1_555

#END
