
#######################################################################
#
#                 Cambridge Crystallographic Data Centre
#                                CCDC 
#
#######################################################################
#
# If this CIF has been generated from an entry in the Cambridge 
# Structural Database, then it will include bibliographic, chemical, 
# crystal, experimental, refinement or atomic coordinate data resulting 
# from the CCDC's data processing and validation procedures.
#
#######################################################################

data_FEDKAB
_chemical_formula_moiety         '(C32 H34 Cd1 Cl2 N4 O17)n'
_symmetry_cell_setting           tetragonal
_symmetry_space_group_name_H-M   'P -4 n 2'
_symmetry_Int_Tables_number      118
_space_group_name_Hall           'P -4 -2n'
loop_
_symmetry_equiv_pos_site_id
_symmetry_equiv_pos_as_xyz
1 x,y,z
2 -x,-y,z
3 y,-x,-z
4 -y,x,-z
5 1/2+x,1/2-y,1/2+z
6 1/2-x,1/2+y,1/2+z
7 1/2+y,1/2+x,1/2-z
8 1/2-y,1/2-x,1/2-z
_cell_length_a                   12.7732(18)
_cell_length_b                   12.7732(18)
_cell_length_c                   11.645(2)
_cell_angle_alpha                90
_cell_angle_beta                 90
_cell_angle_gamma                90
_cell_volume                     1899.94
loop_
_atom_site_label
_atom_site_type_symbol
_atom_site_fract_x
_atom_site_fract_y
_atom_site_fract_z
Cd1 Cd 0.5000 0.5000 0.5000
O1 O 0.38658(17) 0.5488(2) 0.36202(18)
O2 O 0.48800(17) 0.6884(3) 0.3755(2)
C1 C 0.4211(2) 0.6338(3) 0.3259(2)
C2 C 0.3758(2) 0.6746(2) 0.2133(2)
C3 C 0.2837(2) 0.6343(2) 0.1693(2)
H1 H 0.2501 0.5789 0.2058
C4 C 0.2422(2) 0.6774(2) 0.0707(2)
H2 H 0.1797 0.6515 0.0413
N1 N 0.29119(17) 0.75660(17) 0.01659(17)
C5 C 0.3828(2) 0.7936(2) 0.0554(3)
H3 H 0.4174 0.8460 0.0150
C6 C 0.4260(2) 0.7541(2) 0.1551(2)
H4 H 0.4887 0.7811 0.1829
C7 C 0.2469(2) 0.8014(2) -0.09113(19)
H5 H 0.2619 0.8758 -0.0945
H6 H 0.1715 0.7925 -0.0914
C8 C 0.2935(2) 0.7476(2) -0.1951(2)
H7 H 0.2786 0.6732 -0.1917
H8 H 0.3689 0.7567 -0.1950
Cd1D Cd 0.0000 1.0000 -1.0000
Cd1D_2 Cd 1.0000 -0.0000 -1.0000
O1F O 0.0488(2) 0.88658(17) -0.86202(18)
O1A O 0.61342(17) 0.4512(2) 0.36202(18)
O1G O 0.9512(2) 0.11342(17) -0.86202(18)
O1B O 0.5488(2) 0.61342(17) 0.63798(18)
O1C O 0.4512(2) 0.38658(17) 0.63798(18)
O2F O 0.1884(3) 0.98800(17) -0.8755(2)
O2A O 0.51200(17) 0.3116(3) 0.3755(2)
O2G O 0.8116(3) 0.01200(17) -0.8755(2)
C1F C 0.1338(3) 0.9211(2) -0.8259(2)
C1A C 0.5789(2) 0.3662(3) 0.3259(2)
C1G C 0.8662(3) 0.0789(2) -0.8259(2)
C2F C 0.1746(2) 0.8758(2) -0.7133(2)
C2A C 0.6242(2) 0.3254(2) 0.2133(2)
C2G C 0.8254(2) 0.1242(2) -0.7133(2)
C3F C 0.1343(2) 0.7837(2) -0.6693(2)
C3A C 0.7163(2) 0.3657(2) 0.1693(2)
C3G C 0.8657(2) 0.2163(2) -0.6693(2)
H1F H 0.0789 0.7501 -0.7058
H1A H 0.7499 0.4211 0.2058
H1G H 0.9211 0.2499 -0.7058
C4F C 0.1774(2) 0.7422(2) -0.5707(2)
C4A C 0.7578(2) 0.3226(2) 0.0707(2)
C4G C 0.8226(2) 0.2578(2) -0.5707(2)
H2F H 0.1515 0.6797 -0.5413
H2A H 0.8203 0.3485 0.0413
H2G H 0.8485 0.3203 -0.5413
N1F N 0.25660(17) 0.79119(17) -0.51659(17)
N1A N 0.70881(17) 0.24340(17) 0.01659(17)
N1G N 0.74340(17) 0.20881(17) -0.51659(17)
C5F C 0.2936(2) 0.8828(2) -0.5554(3)
C5A C 0.6172(2) 0.2064(2) 0.0554(3)
C5G C 0.7064(2) 0.1172(2) -0.5554(3)
H3F H 0.3460 0.9174 -0.5150
H3A H 0.5826 0.1540 0.0150
H3G H 0.6540 0.0826 -0.5150
C6F C 0.2541(2) 0.9260(2) -0.6551(2)
C6A C 0.5740(2) 0.2459(2) 0.1551(2)
C6G C 0.7459(2) 0.0740(2) -0.6551(2)
H4F H 0.2811 0.9887 -0.6829
H4A H 0.5113 0.2189 0.1829
H4G H 0.7189 0.0113 -0.6829
C7F C 0.3014(2) 0.7469(2) -0.40887(19)
C7A C 0.7531(2) 0.1986(2) -0.09113(19)
C7G C 0.6986(2) 0.2531(2) -0.40887(19)
H5F H 0.3758 0.7619 -0.4055
H5A H 0.7381 0.1242 -0.0945
H5G H 0.6242 0.2381 -0.4055
H6F H 0.2925 0.6715 -0.4086
H6A H 0.8285 0.2075 -0.0914
H6G H 0.7075 0.3285 -0.4086
C8F C 0.2476(2) 0.7935(2) -0.3049(2)
C8A C 0.7065(2) 0.2524(2) -0.1951(2)
C8G C 0.7524(2) 0.2065(2) -0.3049(2)
H7F H 0.1732 0.7786 -0.3083
H7A H 0.7214 0.3268 -0.1917
H7G H 0.8268 0.2214 -0.3083
H8F H 0.2567 0.8689 -0.3050
H8A H 0.6311 0.2433 -0.1950
H8G H 0.7433 0.1311 -0.3050
O3 O 0.5566(2) 0.8996(2) 0.3707(3)
H9 H 0.5165 0.8215 0.3657
H10 H 0.5337 0.9143 0.4381
Cl1 Cl 0.5000 0.5000 0.0000
O4 O 0.5714(2) 0.5587(2) 0.07009(18)
O4A O 0.4286(2) 0.4413(2) 0.07009(18)
O4B O 0.5587(2) 0.4286(2) -0.07009(18)
O4C O 0.4413(2) 0.5714(2) -0.07009(18)
Cl2 Cl 0.0000 0.5000 0.2500
O5 O -0.0021(3) 0.4092(4) 0.1795(4)
O5A O 0.0021(3) 0.5908(4) 0.1795(4)
O5F O -0.0908(4) 0.4979(3) 0.3205(4)
O5G O 0.0908(4) 0.5021(3) 0.3205(4)
loop_
_geom_bond_atom_site_label_1
_geom_bond_atom_site_label_2
_geom_bond_site_symmetry_1
_geom_bond_site_symmetry_2
Cd1 O1 1_555 1_555
O1 C1 1_555 1_555
O2 C1 1_555 1_555
C1 C2 1_555 1_555
C2 C3 1_555 1_555
C3 H1 1_555 1_555
C4 C3 1_555 1_555
H2 C4 1_555 1_555
N1 C4 1_555 1_555
C5 N1 1_555 1_555
H3 C5 1_555 1_555
C6 C2 1_555 1_555
H4 C6 1_555 1_555
C7 N1 1_555 1_555
H5 C7 1_555 1_555
H6 C7 1_555 1_555
C8 C7 1_555 1_555
H7 C8 1_555 1_555
H8 C8 1_555 1_555
O3 H9 1_555 1_555
Cl1 O4 1_555 1_555
Cl2 O5 1_555 1_555
H10 O3 1_555 1_555
Cd1D O1F 1_555 1_555
Cd1D_2 O1G 1_555 1_555
O1F C1F 1_555 1_555
O1A Cd1 1_555 1_555
O1G C1G 1_555 1_555
O1B Cd1 1_555 1_555
O1C Cd1 1_555 1_555
O2F C1F 1_555 1_555
O2A C1A 1_555 1_555
O2G C1G 1_555 1_555
C1F C2F 1_555 1_555
C1A O1A 1_555 1_555
C1G C2G 1_555 1_555
C2F C3F 1_555 1_555
C2A C1A 1_555 1_555
C2G C3G 1_555 1_555
C3F H1F 1_555 1_555
C3A C2A 1_555 1_555
C3G H1G 1_555 1_555
H1A C3A 1_555 1_555
C4F C3F 1_555 1_555
C4A C3A 1_555 1_555
C4G C3G 1_555 1_555
H2F C4F 1_555 1_555
H2A C4A 1_555 1_555
H2G C4G 1_555 1_555
N1F C4F 1_555 1_555
N1A C4A 1_555 1_555
N1G C4G 1_555 1_555
C5F N1F 1_555 1_555
C5A N1A 1_555 1_555
C5G N1G 1_555 1_555
H3F C5F 1_555 1_555
H3A C5A 1_555 1_555
H3G C5G 1_555 1_555
C6F C2F 1_555 1_555
C6A C2A 1_555 1_555
C6G C2G 1_555 1_555
H4F C6F 1_555 1_555
H4A C6A 1_555 1_555
H4G C6G 1_555 1_555
C7F N1F 1_555 1_555
C7A N1A 1_555 1_555
C7G N1G 1_555 1_555
H5F C7F 1_555 1_555
H5A C7A 1_555 1_555
H5G C7G 1_555 1_555
H6F C7F 1_555 1_555
H6A C7A 1_555 1_555
H6G C7G 1_555 1_555
C8F C8 1_555 1_555
C8A C7A 1_555 1_555
C8G C7G 1_555 1_555
H7F C8F 1_555 1_555
H7A C8A 1_555 1_555
H7G C8G 1_555 1_555
H8F C8F 1_555 1_555
H8A C8A 1_555 1_555
H8G C8G 1_555 1_555
O4A Cl1 1_555 1_555
O4B Cl1 1_555 1_555
O4C Cl1 1_555 1_555
O5A Cl2 1_555 1_555
O5F Cl2 1_555 1_555
O5G Cl2 1_555 1_555
C5 C6 1_555 1_555
C5F C6F 1_555 1_555
C5A C6A 1_555 1_555
C5G C6G 1_555 1_555
C7F C8F 1_555 1_555
C8A C8G 1_555 1_555

#END
