
#######################################################################
#
#                 Cambridge Crystallographic Data Centre
#                                CCDC 
#
#######################################################################
#
# If this CIF has been generated from an entry in the Cambridge 
# Structural Database, then it will include bibliographic, chemical, 
# crystal, experimental, refinement or atomic coordinate data resulting 
# from the CCDC's data processing and validation procedures.
#
#######################################################################

data_GACBIY
_chemical_formula_moiety         'C24 H12 Cu8 O20'
_symmetry_cell_setting           hexagonal
_symmetry_space_group_name_H-M   'P 63/m m c'
_symmetry_Int_Tables_number      194
_space_group_name_Hall           '-P 6c 2c'
loop_
_symmetry_equiv_pos_site_id
_symmetry_equiv_pos_as_xyz
1 x,y,z
2 x-y,x,1/2+z
3 -y,x-y,z
4 -x,-y,1/2+z
5 -x+y,-x,z
6 y,-x+y,1/2+z
7 -y,-x,1/2-z
8 x-y,-y,-z
9 x,x-y,1/2-z
10 y,x,-z
11 -x+y,y,1/2-z
12 -x,-x+y,-z
13 -x,-y,-z
14 -x+y,-x,1/2-z
15 y,-x+y,-z
16 x,y,1/2-z
17 x-y,x,-z
18 -y,x-y,1/2-z
19 y,x,1/2+z
20 -x+y,y,z
21 -x,-x+y,1/2+z
22 -y,-x,z
23 x-y,-y,1/2+z
24 x,x-y,z
_cell_length_a                   18.5085(6)
_cell_length_b                   18.5085(6)
_cell_length_c                   22.9306(11)
_cell_angle_alpha                90
_cell_angle_beta                 90
_cell_angle_gamma                120
_cell_volume                     6802.81
loop_
_atom_site_label
_atom_site_type_symbol
_atom_site_fract_x
_atom_site_fract_y
_atom_site_fract_z
_atom_site_U_iso_or_equiv
_atom_site_thermal_displace_type
Cu1 Cu 0.47648(3) 0.52352(3) 0.45188(5) 0.1004 Uani
O1 O 0.5186(2) 0.6284(2) 0.4935(2) 0.1243 Uani
O2 O 0.5602(3) 0.5901(2) 0.5738(2) 0.1220 Uani
O3 O 0.449(2) 0.551(2) 0.3643(16) 0.1603 Uani
H1 H 0.4228 0.5772 0.3582 0.2410 Uiso
H2 H 0.4618 0.5382 0.3318 0.2410 Uiso
C1 C 0.5506(4) 0.6415(4) 0.5435(3) 0.1093 Uani
C2 C 0.5805(3) 0.7257(3) 0.5691(3) 0.1091 Uani
C3 C 0.6306(4) 0.7514(4) 0.6175(3) 0.1137 Uani
H3 H 0.6476 0.7163 0.6337 0.1360 Uiso
C4 C 0.5570(5) 0.7785(2) 0.5438(4) 0.1101 Uani
H4 H 0.5254 0.7627 0.5098 0.1320 Uiso
C5 C 0.6565(5) 0.8283(2) 0.6426(4) 0.1130 Uani
C6 C 0.7073(5) 0.8537(2) 0.6987(4) 0.1120 Uani
C7 C 0.6645(8) 0.8322(4) 0.7500 0.1107 Uani
H5 H 0.6065 0.8032 0.7500 0.1330 Uiso
C8 C 0.7930(6) 0.8965(3) 0.6976(5) 0.1590 Uani
C9 C 0.8323(10) 0.9161(5) 0.7500 0.1903 Uani
H6 H 0.8903 0.9451 0.7500 0.2280 Uiso
O4 O 0.8255(15) 0.9127(7) 0.5890(10) 0.3916 Uani
C10 C 0.8446(12) 0.9223(6) 0.6423(8) 0.2021 Uani
O5 O 0.9194(13) 0.9597(6) 0.6578(12) 0.5744 Uani
O1H O 0.5186(2) 0.8902(3) 1.0065(2) 0.1243 Uani
O2H O 0.5602(3) 0.9701(4) 0.9262(2) 0.1220 Uani
C1H C 0.5506(4) 0.9091(6) 0.9565(3) 0.1093 Uani
C2H C 0.5805(3) 0.8548(4) 0.9309(3) 0.1091 Uani
C3H C 0.6306(4) 0.8792(6) 0.8825(3) 0.1137 Uani
H3H H 0.6476 0.9313 0.8663 0.1360 Uiso
C4H C 0.5570(5) 0.7785(5) 0.9562(4) 0.1101 Uani
H4H H 0.5254 0.7627 0.9902 0.1320 Uiso
C5H C 0.6565(5) 0.8282(5) 0.8574(4) 0.1130 Uani
C6H C 0.7073(5) 0.8536(5) 0.8013(4) 0.1120 Uani
C8H C 0.7930(6) 0.8965(7) 0.8024(5) 0.1590 Uani
O4H O 0.8255(15) 0.9128(17) 0.9110(10) 0.3916 Uani
C10H C 0.8446(12) 0.9223(13) 0.8577(8) 0.2021 Uani
O5H O 0.9194(13) 0.9597(14) 0.8422(12) 0.5744 Uani
O1O O 0.5186(2) 0.6284(2) 1.0065(2) 0.1243 Uani
O2O O 0.5602(3) 0.5901(2) 0.9262(2) 0.1220 Uani
C1O C 0.5506(4) 0.6415(4) 0.9565(3) 0.1093 Uani
C2O C 0.5805(3) 0.7257(3) 0.9309(3) 0.1091 Uani
C3O C 0.6306(4) 0.7514(4) 0.8825(3) 0.1137 Uani
H3O H 0.6476 0.7163 0.8663 0.1360 Uiso
O1W O 0.5186(2) 0.8902(3) 0.4935(2) 0.1243 Uani
O2W O 0.5602(3) 0.9701(4) 0.5738(2) 0.1220 Uani
C1W C 0.5506(4) 0.9091(6) 0.5435(3) 0.1093 Uani
C2W C 0.5805(3) 0.8548(4) 0.5691(3) 0.1091 Uani
C3W C 0.6306(4) 0.8792(6) 0.6175(3) 0.1137 Uani
H3W H 0.6476 0.9313 0.6337 0.1360 Uiso
Cu1B Cu 0.47648(3) 0.95296(4) 0.45188(5) 0.1004 Uani
O3B O 0.449(2) 0.898(3) 0.3643(16) 0.1603 Uani
H1B H 0.4228 0.8456 0.3582 0.2410 Uiso
H2B H 0.4618 0.9236 0.3318 0.2410 Uiso
Cu1C Cu 0.52352(3) 0.47648(3) 0.95188(5) 0.1004 Uani
Cu1E Cu 0.52352(3) 1.04704(4) 0.95188(5) 0.1004 Uani
Cu1F Cu 0.47648(3) 0.52352(3) 1.04812(5) 0.1004 Uani
Cu1H Cu 0.47648(3) 0.95296(4) 1.04812(5) 0.1004 Uani
Cu1I Cu 0.52352(3) 0.47648(3) 0.54812(5) 0.1004 Uani
Cu1K Cu 0.52352(3) 1.04704(4) 0.54812(5) 0.1004 Uani
O1B O 0.3716(2) 0.8902(3) 0.4935(2) 0.1243 Uani
O1U O 0.3716(2) 0.4814(2) 0.4935(2) 0.1243 Uani
O2I O 0.5901(2) 0.5602(3) 0.4262(2) 0.1220 Uani
O2K O 0.4398(3) 1.0299(4) 0.4262(2) 0.1220 Uani
O2L O 0.4398(3) 0.4099(2) 0.4262(2) 0.1220 Uani
O2N O 0.5901(2) 1.0299(4) 0.4262(2) 0.1220 Uani
loop_
_atom_site_aniso_label
_atom_site_aniso_U_11
_atom_site_aniso_U_22
_atom_site_aniso_U_33
_atom_site_aniso_U_23
_atom_site_aniso_U_13
_atom_site_aniso_U_12
Cu1 0.0908(7) 0.0908(7) 0.1436(13) 0.0038(2) -0.0038(2) 0.0634(6)
O1 0.135(3) 0.099(2) 0.165(4) -0.005(2) -0.010(3) 0.078(2)
O2 0.122(3) 0.095(2) 0.166(3) -0.001(2) -0.011(3) 0.067(2)
O3 0.182(10) 0.182(10) 0.157(10) 0.010(6) -0.010(6) 0.121(14)
C1 0.105(4) 0.096(3) 0.144(4) 0.000(3) 0.006(3) 0.063(3)
C2 0.105(3) 0.090(3) 0.146(4) 0.005(3) 0.006(3) 0.059(3)
C3 0.115(4) 0.100(3) 0.141(4) 0.007(3) 0.007(3) 0.065(3)
C4 0.095(5) 0.085(3) 0.153(6) 0.002(2) 0.003(4) 0.047(2)
C5 0.104(5) 0.089(3) 0.151(6) 0.003(2) 0.006(4) 0.052(2)
C6 0.105(4) 0.091(3) 0.144(6) 0.0010(17) 0.002(3) 0.052(2)
C7 0.104(7) 0.092(5) 0.140(7) 0.000 0.000 0.052(3)
C8 0.095(5) 0.172(7) 0.185(9) 0.000(2) 0.001(4) 0.048(2)
C9 0.107(9) 0.237(15) 0.183(11) 0.000 0.000 0.053(4)
O4 0.23(2) 0.58(5) 0.248(14) 0.010(6) 0.020(12) 0.115(10)
C10 0.118(11) 0.23(2) 0.221(12) 0.021(4) 0.042(9) 0.059(5)
O5 0.131(11) 1.01(9) 0.29(2) 0.021(6) 0.041(11) 0.066(5)
O1H 0.135 0.078 0.165 0.005 0.01 0.057
O2H 0.122 0.083 0.166 0.01 0.011 0.055
C1H 0.105 0.075 0.144 -0.006 -0.006 0.042
C2H 0.105 0.077 0.146 -0.001 -0.006 0.046
C3H 0.115 0.085 0.141 0 -0.007 0.05
C4H 0.095 0.086 0.153 -0.001 -0.003 0.048
C5H 0.104 0.089 0.151 -0.003 -0.006 0.052
C6H 0.105 0.092 0.144 -0.001 -0.002 0.053
C8H 0.095 0.171 0.185 -0.001 -0.001 0.047
O4H 0.23 0.58 0.248 -0.01 -0.02 0.115
C10H 0.118 0.23 0.221 -0.021 -0.042 0.059
O5H 0.131 1.009 0.29 -0.02 -0.041 0.065
O1O 0.135 0.099 0.165 0.005 0.01 0.078
O2O 0.122 0.095 0.166 0.001 0.011 0.067
C1O 0.105 0.096 0.144 0 -0.006 0.063
C2O 0.105 0.09 0.146 -0.005 -0.006 0.059
C3O 0.115 0.1 0.141 -0.007 -0.007 0.065
O1W 0.135 0.078 0.165 -0.005 -0.01 0.057
O2W 0.122 0.083 0.166 -0.01 -0.011 0.055
C1W 0.105 0.075 0.144 0.006 0.006 0.042
C2W 0.105 0.077 0.146 0.001 0.006 0.046
C3W 0.115 0.085 0.141 0 0.007 0.05
Cu1B 0.0908 0.0548 0.1436 -0.0076 -0.0038 0.0274
O3B 0.182 0.122 0.157 -0.02 -0.01 0.061
Cu1C 0.0908 0.0908 0.1436 -0.0038 0.0038 0.0634
Cu1E 0.0908 0.0548 0.1436 0.0076 0.0038 0.0274
Cu1F 0.0908 0.0908 0.1436 -0.0038 0.0038 0.0634
Cu1H 0.0908 0.0548 0.1436 0.0076 0.0038 0.0274
Cu1I 0.0908 0.0908 0.1436 0.0038 -0.0038 0.0634
Cu1K 0.0908 0.0548 0.1436 -0.0076 -0.0038 0.0274
O1B 0.099 0.078 0.165 -0.005 0.005 0.021
O1U 0.099 0.135 0.165 0.01 0.005 0.078
O2I 0.095 0.122 0.166 0.011 0.001 0.067
O2K 0.122 0.083 0.166 -0.01 -0.011 0.055
O2L 0.122 0.095 0.166 -0.001 -0.011 0.067
O2N 0.095 0.083 0.166 -0.01 0.001 0.028
loop_
_geom_bond_atom_site_label_1
_geom_bond_atom_site_label_2
_geom_bond_site_symmetry_1
_geom_bond_site_symmetry_2
Cu1 O1 1_555 1_555
O1 C1 1_555 1_555
O2 C1 1_555 1_555
O3 Cu1 1_555 1_555
H1 O3 1_555 1_555
H2 O3 1_555 1_555
C1 C2 1_555 1_555
C2 C3 1_555 1_555
C3 H3 1_555 1_555
C4 C2 1_555 1_555
H4 C4 1_555 1_555
C5 C3 1_555 1_555
C6 C5 1_555 1_555
C7 C6 1_555 1_555
H5 C7 1_555 1_555
C8 C6 1_555 1_555
C9 C8 1_555 1_555
H6 C9 1_555 1_555
O4 C10 1_555 1_555
C10 C8 1_555 1_555
O5 C10 1_555 1_555
O1H C1H 1_555 1_555
O2H C1H 1_555 1_555
C1H C2H 1_555 1_555
C2H C3H 1_555 1_555
C3H H3H 1_555 1_555
C4H C2H 1_555 1_555
H4H C4H 1_555 1_555
C5H C3H 1_555 1_555
C6H C7 1_555 1_555
C8H C9 1_555 1_555
O4H C10H 1_555 1_555
C10H C8H 1_555 1_555
O5H C10H 1_555 1_555
O1O C1O 1_555 1_555
O2O C1O 1_555 1_555
C1O C2O 1_555 1_555
C2O C4H 1_555 1_555
C3O C5H 1_555 1_555
H3O C3O 1_555 1_555
O1W C1W 1_555 1_555
O2W C1W 1_555 1_555
C1W C2W 1_555 1_555
C2W C4 1_555 1_555
C3W C5 1_555 1_555
H3W C3W 1_555 1_555
Cu1B O1W 1_555 1_555
O3B Cu1B 1_555 1_555
H1B O3B 1_555 1_555
H2B O3B 1_555 1_555
Cu1C O2O 1_555 1_555
Cu1E O2H 1_555 1_555
Cu1F O1O 1_555 1_555
Cu1H O1H 1_555 1_555
Cu1I Cu1 1_555 1_555
Cu1K O2W 1_555 1_555
O1B Cu1B 1_555 1_555
O1U Cu1 1_555 1_555
O2I Cu1 1_555 1_555
O2K Cu1B 1_555 1_555
O2L Cu1 1_555 1_555
O2N Cu1B 1_555 1_555
O2 Cu1I 1_555 1_555
C5H C6H 1_555 1_555
C6H C8H 1_555 1_555
C2O C3O 1_555 1_555
C2W C3W 1_555 1_555
Cu1B Cu1K 1_555 1_555
Cu1C Cu1F 1_555 1_555
Cu1E Cu1H 1_555 1_555

#END
