
#######################################################################
#
#                 Cambridge Crystallographic Data Centre
#                                CCDC 
#
#######################################################################
#
# If this CIF has been generated from an entry in the Cambridge 
# Structural Database, then it will include bibliographic, chemical, 
# crystal, experimental, refinement or atomic coordinate data resulting 
# from the CCDC's data processing and validation procedures.
#
#######################################################################

data_GARSUQ
_chemical_formula_moiety         '(C13 H11 Eu1 N2 O8)n'
_symmetry_cell_setting           triclinic
_symmetry_space_group_name_H-M   'P -1'
_symmetry_Int_Tables_number      2
_space_group_name_Hall           '-P 1'
loop_
_symmetry_equiv_pos_site_id
_symmetry_equiv_pos_as_xyz
1 x,y,z
2 -x,-y,-z
_cell_length_a                   9.0968(6)
_cell_length_b                   9.6763(7)
_cell_length_c                   11.5065(9)
_cell_angle_alpha                106.914(7)
_cell_angle_beta                 93.967(6)
_cell_angle_gamma                108.270(6)
_cell_volume                     905.726
loop_
_atom_site_label
_atom_site_type_symbol
_atom_site_fract_x
_atom_site_fract_y
_atom_site_fract_z
Eu1 Eu 0.27846(6) 1.02824(5) -0.00841(5)
O1 O 0.4190(8) 0.8872(8) 0.0472(7)
O2 O 0.1712(9) 0.9809(8) 0.1734(7)
O3 O -0.0872(8) 0.2279(8) 0.0793(6)
O4 O 0.1209(9) 0.9889(8) 0.7914(7)
O5 O 0.1344(8) 0.1810(8) 0.0457(7)
O6 O 0.5732(8) 0.7603(9) 0.0771(7)
O7 O 0.3041(8) 0.8842(8) 0.7860(6)
O8 O 0.4585(9) 1.2217(9) 0.1742(7)
C1 C 0.0124(16) 0.8360(15) 0.5340(12)
C2 C 0.1819(15) 0.6923(15) 0.5381(12)
C3 C 0.1260(15) 0.6094(14) 0.4136(11)
C4 C 0.2867(12) 0.5004(12) 0.0686(9)
C5 C 0.1235(13) 0.8067(12) 0.5988(10)
N1 N 0.0881(9) 0.5524(9) 0.1449(7)
N2 N 0.1897(10) 0.6891(9) 0.1446(8)
C6 C 0.0579(11) 0.2697(10) 0.0757(8)
C7 C 0.1440(11) 0.4362(11) 0.0987(9)
C8 C 0.3104(11) 0.6550(11) 0.0981(9)
C9 C 0.0155(12) 0.6432(13) 0.3462(10)
C10 C -0.0413(12) 0.5585(12) 0.2110(9)
C11 C 0.1879(12) 0.9000(12) 0.7315(9)
C12 C -0.0412(17) 0.7566(17) 0.4082(12)
C13 C 0.4423(11) 0.7748(10) 0.0737(8)
H1 H 0.187(16) 0.556(15) 0.383(12)
H2 H 0.258(15) 0.648(14) 0.575(12)
H3 H -0.075(15) 0.865(14) 0.583(12)
H4 H -0.102(16) 0.784(15) 0.358(12)
H5 H -0.128(15) 0.462(15) 0.194(12)
H6 H -0.110(15) 0.622(14) 0.180(12)
H7 H 0.352(7) 0.445(4) 0.034(10)
Eu1_2 Eu 0.27846(6) 0.02824(5) -0.00841(5)
Eu1_3 Eu 0.27846(6) 1.02824(5) 0.99159(5)
Eu1A Eu -0.27846(6) -0.02824(5) 0.00841(5)
Eu1A_2 Eu 0.72154(6) 0.97176(5) 0.00841(5)
O1A O 0.5810(8) 1.1128(8) -0.0472(7)
O3A O 0.0872(8) 0.7721(8) -0.0793(6)
O4_2 O 0.1209(9) 0.9889(8) -0.2086(7)
O5_2 O 0.1344(8) 1.1810(8) 0.0457(7)
O6A O 0.4268(8) 1.2397(9) -0.0771(7)
O7_2 O 0.3041(8) 0.8842(8) -0.2140(6)
loop_
_geom_bond_atom_site_label_1
_geom_bond_atom_site_label_2
_geom_bond_site_symmetry_1
_geom_bond_site_symmetry_2
Eu1 O1 1_555 1_555
O1 C13 1_555 1_555
O2 Eu1 1_555 1_555
O3 C6 1_555 1_555
O4 C11 1_555 1_555
O5 C6 1_555 1_555
O6 C13 1_555 1_555
O7 C11 1_555 1_555
O8 Eu1 1_555 1_555
C1 C5 1_555 1_555
C2 C3 1_555 1_555
C3 C9 1_555 1_555
C4 C7 1_555 1_555
C5 C2 1_555 1_555
N1 N2 1_555 1_555
N2 C8 1_555 1_555
C6 C7 1_555 1_555
C7 N1 1_555 1_555
C8 C4 1_555 1_555
C9 C10 1_555 1_555
C10 N1 1_555 1_555
C11 C5 1_555 1_555
C12 C1 1_555 1_555
C13 C8 1_555 1_555
H1 C3 1_555 1_555
H2 C2 1_555 1_555
H3 C1 1_555 1_555
H4 C12 1_555 1_555
H5 C10 1_555 1_555
H6 C10 1_555 1_555
H7 C4 1_555 1_555
Eu1_2 O5 1_555 1_555
Eu1_3 O4 1_555 1_555
Eu1A O3 1_555 1_555
Eu1A_2 O1 1_555 1_555
O1A Eu1 1_555 1_555
O3A Eu1 1_555 1_555
O4_2 Eu1 1_555 1_555
O5_2 Eu1 1_555 1_555
O6A Eu1 1_555 1_555
O7_2 Eu1 1_555 1_555
O6 Eu1A_2 1_555 1_555
O7 Eu1_3 1_555 1_555
C9 C12 1_555 1_555
Eu1A_2 O1A 1_555 1_555

#END
