
#######################################################################
#
#                 Cambridge Crystallographic Data Centre
#                                CCDC 
#
#######################################################################
#
# If this CIF has been generated from an entry in the Cambridge 
# Structural Database, then it will include bibliographic, chemical, 
# crystal, experimental, refinement or atomic coordinate data resulting 
# from the CCDC's data processing and validation procedures.
#
#######################################################################

data_GARTAX
_chemical_formula_moiety         '(C13 H11 Gd1 N2 O8)n'
_symmetry_cell_setting           triclinic
_symmetry_space_group_name_H-M   'P -1'
_symmetry_Int_Tables_number      2
_space_group_name_Hall           '-P 1'
loop_
_symmetry_equiv_pos_site_id
_symmetry_equiv_pos_as_xyz
1 x,y,z
2 -x,-y,-z
_cell_length_a                   9.1283(4)
_cell_length_b                   9.6603(6)
_cell_length_c                   11.5482(8)
_cell_angle_alpha                106.829(6)
_cell_angle_beta                 93.772(5)
_cell_angle_gamma                108.027(5)
_cell_volume                     913.277
loop_
_atom_site_label
_atom_site_type_symbol
_atom_site_fract_x
_atom_site_fract_y
_atom_site_fract_z
Gd1 Gd 0.27849(7) -0.47124(7) -0.00916(6)
O1 O 0.1309(11) -0.3186(11) 0.0433(10)
O2 O 0.4228(12) 0.3898(10) 0.0513(9)
O3 O 0.1190(12) 0.4861(11) 0.7894(9)
O4 O -0.0888(11) -0.2686(10) 0.0795(9)
O5 O 0.1721(11) -0.5170(10) 0.1747(9)
O6 O 0.3040(11) 0.3830(12) 0.7854(10)
O7 O 0.5729(12) 0.2562(11) 0.0806(9)
O8 O 0.4585(13) -0.2737(13) 0.1735(12)
C1 C 0.011(2) 0.335(2) 0.5344(17)
H1 H -0.032002 0.409685 0.576150
C2 C -0.040(3) 0.259(2) 0.4107(17)
H2 H -0.115045 0.284139 0.367603
N1 N 0.0920(13) 0.0564(13) 0.1472(11)
C3 C 0.4445(16) 0.2754(15) 0.0770(13)
N2 N 0.1902(12) 0.1907(13) 0.1457(10)
C4 C 0.0535(15) -0.2283(14) 0.0737(11)
C5 C 0.1220(16) 0.3040(17) 0.5984(14)
C6 C 0.3118(15) 0.1548(16) 0.0996(13)
C7 C 0.2864(15) 0.0008(15) 0.0696(13)
H3 H 0.353481 -0.051811 0.034559
C8 C 0.1468(15) -0.0611(15) 0.0999(11)
C9 C -0.0411(16) 0.0611(18) 0.2121(13)
H4 H -0.110813 -0.045287 0.199803
H5 H -0.102030 0.113038 0.177464
C10 C 0.0151(16) 0.1467(17) 0.3485(14)
C11 C 0.1895(18) 0.3996(17) 0.7308(13)
C12 C 0.182(2) 0.1942(19) 0.5354(15)
H6 H 0.262306 0.174261 0.577596
C13 C 0.128(2) 0.114(2) 0.4124(15)
H7 H 0.166552 0.035686 0.371129
Gd1_2 Gd 0.27849(7) 0.52876(7) -0.00916(6)
Gd1_3 Gd 0.27849(7) 0.52876(7) 0.99084(6)
Gd1A Gd -0.27849(7) -0.52876(7) 0.00916(6)
Gd1A_2 Gd 0.72151(7) 0.47124(7) 0.00916(6)
O2_2 O 0.4228(12) -0.6102(10) 0.0513(9)
O2A O 0.5772(12) -0.3898(10) -0.0513(9)
O3_2 O 0.1190(12) -0.5139(11) -0.2106(9)
O4A O 0.0888(11) -0.7314(10) -0.0795(9)
O6_2 O 0.3040(11) -0.6170(12) -0.2146(10)
O7A O 0.4271(12) -0.2562(11) -0.0806(9)
loop_
_geom_bond_atom_site_label_1
_geom_bond_atom_site_label_2
_geom_bond_site_symmetry_1
_geom_bond_site_symmetry_2
Gd1 O1 1_555 1_555
O1 C4 1_555 1_555
O2 C3 1_555 1_555
O3 C11 1_555 1_555
O4 C4 1_555 1_555
O5 Gd1 1_555 1_555
O6 C11 1_555 1_555
O7 C3 1_555 1_555
O8 Gd1 1_555 1_555
C1 H1 1_555 1_555
C2 C1 1_555 1_555
H2 C2 1_555 1_555
N1 N2 1_555 1_555
C3 C6 1_555 1_555
N2 C6 1_555 1_555
C4 C8 1_555 1_555
C5 C1 1_555 1_555
C6 C7 1_555 1_555
C7 H3 1_555 1_555
C8 N1 1_555 1_555
C9 N1 1_555 1_555
H4 C9 1_555 1_555
H5 C9 1_555 1_555
C10 C2 1_555 1_555
C11 C5 1_555 1_555
C12 C5 1_555 1_555
H6 C12 1_555 1_555
C13 C10 1_555 1_555
H7 C13 1_555 1_555
Gd1_2 O2 1_555 1_555
Gd1_3 O3 1_555 1_555
Gd1A O4 1_555 1_555
Gd1A_2 O2 1_555 1_555
O2_2 Gd1 1_555 1_555
O2A Gd1 1_555 1_555
O3_2 Gd1 1_555 1_555
O4A Gd1 1_555 1_555
O6_2 Gd1 1_555 1_555
O7A Gd1 1_555 1_555
O6 Gd1_3 1_555 1_555
O7 Gd1A_2 1_555 1_555
C7 C8 1_555 1_555
C9 C10 1_555 1_555
C12 C13 1_555 1_555

#END
