
#######################################################################
#
#                 Cambridge Crystallographic Data Centre
#                                CCDC 
#
#######################################################################
#
# If this CIF has been generated from an entry in the Cambridge 
# Structural Database, then it will include bibliographic, chemical, 
# crystal, experimental, refinement or atomic coordinate data resulting 
# from the CCDC's data processing and validation procedures.
#
#######################################################################

data_GARTIF
_chemical_formula_moiety         '(C13 H11 Dy1 N2 O8)n'
_symmetry_cell_setting           triclinic
_symmetry_space_group_name_H-M   'P -1'
_symmetry_Int_Tables_number      2
_space_group_name_Hall           '-P 1'
loop_
_symmetry_equiv_pos_site_id
_symmetry_equiv_pos_as_xyz
1 x,y,z
2 -x,-y,-z
_cell_length_a                   9.0912(6)
_cell_length_b                   9.6445(9)
_cell_length_c                   11.5135(11)
_cell_angle_alpha                106.894(8)
_cell_angle_beta                 93.993(6)
_cell_angle_gamma                108.215(7)
_cell_volume                     903.121
loop_
_atom_site_label
_atom_site_type_symbol
_atom_site_fract_x
_atom_site_fract_y
_atom_site_fract_z
Dy1 Dy 0.27898(8) -0.47175(8) -0.00858(7)
O1 O 0.1363(11) -0.3185(11) 0.0451(8)
O2 O 0.1179(11) 0.4863(11) 0.7899(8)
O3 O 0.4550(12) -0.2792(13) 0.1728(10)
O4 O 0.4189(11) 0.3887(11) 0.0474(9)
O5 O -0.0854(11) -0.2735(11) 0.0786(9)
O6 O 0.5723(12) 0.2585(12) 0.0776(9)
O7 O 0.3041(12) 0.3851(12) 0.7881(9)
O8 O 0.1732(13) -0.5169(12) 0.1722(9)
C1 C 0.2858(15) -0.0024(16) 0.0696(12)
C2 C 0.1450(14) -0.0622(14) 0.0987(10)
N1 N 0.0911(12) 0.0532(13) 0.1451(9)
C3 C 0.0539(16) -0.2340(16) 0.0724(12)
N2 N 0.1881(13) 0.1876(13) 0.1446(10)
C4 C 0.4420(17) 0.2760(17) 0.0735(12)
C5 C -0.044(2) 0.254(2) 0.4076(16)
C6 C 0.3138(16) 0.1558(16) 0.0966(12)
C7 C 0.0142(17) 0.1435(17) 0.3492(13)
C8 C 0.010(2) 0.334(2) 0.5340(15)
C9 C 0.1257(17) 0.3081(17) 0.5990(13)
C10 C 0.1886(16) 0.3997(16) 0.7329(12)
C11 C -0.0414(15) 0.0563(15) 0.2120(11)
C12 C 0.1266(19) 0.1085(19) 0.4133(14)
C13 C 0.1839(18) 0.1919(19) 0.5388(14)
H1 H 0.359(10) -0.035(10) 0.001(11)
H2 H -0.12(3) -0.04(2) 0.184(19)
H3 H 0.164(15) 0.025(17) 0.345(5)
H4 H -0.046(10) 0.391(19) 0.607(5)
H5 H 0.278(15) 0.194(17) 0.606(5)
H6 H -0.07(2) 0.292(8) 0.329(4)
H7 H -0.11(2) 0.106(19) 0.163(15)
Dy1_2 Dy 0.27898(8) 0.52825(8) -0.00858(7)
Dy1_3 Dy 0.27898(8) 0.52825(8) 0.99142(7)
Dy1A Dy -0.27898(8) -0.52825(8) 0.00858(7)
Dy1A_2 Dy 0.72102(8) 0.47175(8) 0.00858(7)
O2_2 O 0.1179(11) -0.5137(11) -0.2101(8)
O4_2 O 0.4189(11) -0.6113(11) 0.0474(9)
O4A O 0.5811(11) -0.3887(11) -0.0474(9)
O5A O 0.0854(11) -0.7265(11) -0.0786(9)
O6A O 0.4277(12) -0.2585(12) -0.0776(9)
O7_2 O 0.3041(12) -0.6149(12) -0.2119(9)
loop_
_geom_bond_atom_site_label_1
_geom_bond_atom_site_label_2
_geom_bond_site_symmetry_1
_geom_bond_site_symmetry_2
Dy1 O1 1_555 1_555
O1 C3 1_555 1_555
O2 C10 1_555 1_555
O3 Dy1 1_555 1_555
O4 C4 1_555 1_555
O5 C3 1_555 1_555
O6 C4 1_555 1_555
O7 C10 1_555 1_555
O8 Dy1 1_555 1_555
C1 C2 1_555 1_555
C2 N1 1_555 1_555
N1 N2 1_555 1_555
C3 C2 1_555 1_555
N2 C6 1_555 1_555
C4 C6 1_555 1_555
C5 C7 1_555 1_555
C6 C1 1_555 1_555
C7 C11 1_555 1_555
C8 C5 1_555 1_555
C9 C8 1_555 1_555
C10 C9 1_555 1_555
C11 N1 1_555 1_555
C12 C7 1_555 1_555
C13 C9 1_555 1_555
H1 C1 1_555 1_555
H2 C11 1_555 1_555
H3 C12 1_555 1_555
H4 C8 1_555 1_555
H5 C13 1_555 1_555
H6 C5 1_555 1_555
H7 C11 1_555 1_555
Dy1_2 O4 1_555 1_555
Dy1_3 O2 1_555 1_555
Dy1A O5 1_555 1_555
Dy1A_2 O4 1_555 1_555
O2_2 Dy1 1_555 1_555
O4_2 Dy1 1_555 1_555
O4A Dy1 1_555 1_555
O5A Dy1 1_555 1_555
O6A Dy1 1_555 1_555
O7_2 Dy1 1_555 1_555
O6 Dy1A_2 1_555 1_555
O7 Dy1_3 1_555 1_555
C12 C13 1_555 1_555

#END
