
#######################################################################
#
#                 Cambridge Crystallographic Data Centre
#                                CCDC 
#
#######################################################################
#
# If this CIF has been generated from an entry in the Cambridge 
# Structural Database, then it will include bibliographic, chemical, 
# crystal, experimental, refinement or atomic coordinate data resulting 
# from the CCDC's data processing and validation procedures.
#
#######################################################################

data_GIHBII
_chemical_formula_moiety         '(H2 Ga3 O13 P3)n'
_symmetry_cell_setting           monoclinic
_symmetry_space_group_name_H-M   'P 21/n'
_symmetry_Int_Tables_number      14
_space_group_name_Hall           '-P 2yn'
loop_
_symmetry_equiv_pos_site_id
_symmetry_equiv_pos_as_xyz
1 x,y,z
2 1/2-x,1/2+y,1/2-z
3 -x,-y,-z
4 1/2+x,1/2-y,1/2+z
_cell_length_a                   8.669(2)
_cell_length_b                   17.932(4)
_cell_length_c                   9.097(2)
_cell_angle_alpha                90
_cell_angle_beta                 108.32(1)
_cell_angle_gamma                90
_cell_volume                     1342.48
loop_
_atom_site_label
_atom_site_type_symbol
_atom_site_fract_x
_atom_site_fract_y
_atom_site_fract_z
Ga1 Ga 0.1327(1) -0.3918(1) -0.3340(1)
Ga2 Ga 0.0692(1) -0.2062(1) -0.2007(1)
Ga3 Ga 0.5130(1) -0.1743(1) -0.3010(1)
P1 P 0.3395(2) -0.0702(1) -0.1282(2)
P2 P 0.2983(2) -0.2874(1) -0.5177(2)
P3 P 0.2539(2) -0.3360(1) 0.0070(2)
O1 O 0.1058(5) -0.3564(3) 0.0566(5)
O2 O 0.2491(5) -0.3904(2) -0.1252(4)
O3 O 0.2804(5) 0.0085(2) -0.1676(4)
O4 O 0.2657(5) -0.3589(3) -0.4454(5)
O5 O 0.1913(5) -0.1197(3) -0.1784(5)
O6 O 0.4241(5) -0.0777(3) 0.0466(5)
O7 O 0.2477(5) -0.2547(2) -0.0461(4)
O8 O 0.4501(5) -0.2996(3) -0.5621(5)
O9 O 0.4109(5) -0.3488(3) 0.1376(5)
O10 O 0.3249(5) -0.2221(3) -0.4019(5)
O11 O 0.1508(5) -0.2656(3) -0.6568(3)
O12 O 0.4608(5) -0.0905(3) -0.2144(5)
O13 O 0.0298(5) -0.2944(2) -0.3206(2)
Ga2C Ga 0.5692(1) -0.2938(1) -0.7007(1)
Ga2C_2 Ga 0.5692(1) -0.2938(1) 0.2993(1)
O8C O -0.0499(5) -0.2004(3) -0.0621(5)
O9C O -0.0891(5) -0.1512(3) -0.3624(5)
Ga3C Ga 0.0130(1) -0.3257(1) -0.8010(1)
Ga3C_2 Ga 0.0130(1) -0.3257(1) 0.1990(1)
O1C O 0.6058(5) -0.1436(3) -0.4434(5)
O11C O 0.6508(5) -0.2344(3) -0.1568(3)
O3A O 0.2196(5) -0.4915(2) -0.3324(4)
O6C O -0.0759(5) -0.4223(3) -0.4534(5)
Ga1A Ga 0.3673(1) 0.1082(1) -0.1660(1)
Ga1C Ga 0.6327(1) -0.1082(1) 0.1660(1)
loop_
_geom_bond_atom_site_label_1
_geom_bond_atom_site_label_2
_geom_bond_site_symmetry_1
_geom_bond_site_symmetry_2
Ga1 O2 1_555 1_555
Ga2 O5 1_555 1_555
Ga3 O10 1_555 1_555
P1 O3 1_555 1_555
P2 O4 1_555 1_555
P3 O1 1_555 1_555
O1 Ga3C_2 1_555 1_555
O2 P3 1_555 1_555
O3 Ga1A 1_555 1_555
O4 Ga1 1_555 1_555
O5 P1 1_555 1_555
O6 P1 1_555 1_555
O7 Ga2 1_555 1_555
O8 P2 1_555 1_555
O9 P3 1_555 1_555
O10 P2 1_555 1_555
O11 P2 1_555 1_555
O12 Ga3 1_555 1_555
O13 Ga1 1_555 1_555
Ga2C O8 1_555 1_555
Ga2C_2 O9 1_555 1_555
O8C Ga2 1_555 1_555
O9C Ga2 1_555 1_555
Ga3C O11 1_555 1_555
O1C Ga3 1_555 1_555
O11C Ga3 1_555 1_555
O3A Ga1 1_555 1_555
O6C Ga1 1_555 1_555
Ga1C O6 1_555 1_555
Ga2 O13 1_555 1_555
P1 O12 1_555 1_555
P3 O7 1_555 1_555

#END
