
#######################################################################
#
#                 Cambridge Crystallographic Data Centre
#                                CCDC 
#
#######################################################################
#
# If this CIF has been generated from an entry in the Cambridge 
# Structural Database, then it will include bibliographic, chemical, 
# crystal, experimental, refinement or atomic coordinate data resulting 
# from the CCDC's data processing and validation procedures.
#
#######################################################################

data_HOGTOM
_chemical_formula_moiety         '(C24 H30 Cu3 N6 O24 Pr2)n'
_symmetry_cell_setting           trigonal
_symmetry_space_group_name_H-M   'P -3 c 1'
_symmetry_Int_Tables_number      165
_space_group_name_Hall           '-P 3 2"c'
loop_
_symmetry_equiv_pos_site_id
_symmetry_equiv_pos_as_xyz
1 x,y,z
2 -y,x-y,z
3 y,x,1/2-z
4 -x+y,-x,z
5 -x,-x+y,1/2-z
6 x-y,-y,1/2-z
7 -x,-y,-z
8 y,-x+y,-z
9 -y,-x,1/2+z
10 x-y,x,-z
11 x,x-y,1/2+z
12 -x+y,y,1/2+z
_cell_length_a                   13.424(4)
_cell_length_b                   13.424(4)
_cell_length_c                   14.752(6)
_cell_angle_alpha                90
_cell_angle_beta                 90
_cell_angle_gamma                120
_cell_volume                     2302.21
loop_
_atom_site_label
_atom_site_type_symbol
_atom_site_fract_x
_atom_site_fract_y
_atom_site_fract_z
Pr1 Pr 0.333 -0.334 0.16880(7)
Cu1 Cu 0.5000 -0.5000 0.00000
O1 O 0.1985(7) -0.5576(7) 0.1278(6)
O2 O 0.3614(7) -0.4510(7) 0.0593(7)
O3 O 0.4363(7) -0.3856(7) -0.2260(7)
O4 O 0.5288(7) -0.4007(7) -0.1045(7)
N1 N 0.3480(7) -0.6124(7) -0.0570(7)
C1 C 0.2706(9) -0.5505(9) 0.0699(9)
C2 C 0.2568(9) -0.646(1) 0.008(1)
C3 C 0.339(1) -0.552(1) -0.140(1)
C4 C 0.4362(9) -0.4409(9) -0.1580(8)
O2F O 0.6386(7) -0.5490(7) -0.0593(7)
N1F N 0.6520(7) -0.3876(7) 0.0570(7)
O4F O 0.4712(7) -0.5993(7) 0.1045(7)
Cu1A Cu 0.5000 0.0000 0.00000
O1A O 0.5576(7) -0.2439(10) 0.1278(6)
O2A O 0.4510(7) -0.1876(10) 0.0593(7)
O3A O 0.3856(7) -0.1781(10) -0.2260(7)
O4A O 0.4007(7) -0.0705(10) -0.1045(7)
N1A N 0.6124(7) -0.0396(10) -0.0570(7)
C1A C 0.5505(9) -0.1789(13) 0.0699(9)
C2A C 0.646(1) -0.0972(13) 0.008(1)
C3A C 0.552(1) -0.109(1) -0.140(1)
C4A C 0.4409(9) -0.1229(13) -0.1580(8)
O2G O 0.5490(7) 0.1876(10) -0.0593(7)
N1G N 0.3876(7) 0.0396(10) 0.0570(7)
O4G O 0.5993(7) 0.0705(10) 0.1045(7)
Cu1C Cu 0.0000 -0.5000 0.00000
O1C O 0.2439(10) -0.1985(7) 0.1278(6)
O2C O 0.1876(10) -0.3614(7) 0.0593(7)
O3C O 0.1781(10) -0.4363(7) -0.2260(7)
O4C O 0.0705(10) -0.5288(7) -0.1045(7)
N1C N 0.0396(10) -0.3480(7) -0.0570(7)
C1C C 0.1789(13) -0.2706(9) 0.0699(9)
C2C C 0.0972(13) -0.2568(9) 0.008(1)
C3C C 0.109(1) -0.339(1) -0.140(1)
C4C C 0.1229(13) -0.4362(9) -0.1580(8)
O2I O -0.1876(10) -0.6386(7) -0.0593(7)
N1I N -0.0396(10) -0.6520(7) 0.0570(7)
O4I O -0.0705(10) -0.4712(7) 0.1045(7)
O3H O 0.3856(7) -0.4363(7) 0.2740(7)
O3J O 0.4363(7) -0.1781(10) 0.2740(7)
O3K O 0.1781(10) -0.3856(7) 0.2740(7)
Pr1H Pr 0.334 -0.333 -0.33120(7)
Cu1B Cu 0.5000 -0.5000 -0.50000
O2H O 0.4510(7) -0.3614(7) -0.4407(7)
C1H C 0.5505(9) -0.2706(9) -0.4301(9)
O1H O 0.5576(7) -0.1985(7) -0.3722(6)
C2H C 0.646(1) -0.2568(9) -0.492(1)
N1H N 0.6124(7) -0.3480(7) -0.5570(7)
O4H O 0.4007(7) -0.5288(7) -0.6045(7)
C4H C 0.4409(9) -0.4362(9) -0.6580(8)
O3H_2 O 0.3856(7) -0.4363(7) -0.7260(7)
C3H C 0.552(1) -0.339(1) -0.640(1)
Cu1D Cu 0.5000 0.0000 -0.50000
O2J O 0.3614(7) -0.1876(10) -0.4407(7)
C1J C 0.2706(9) -0.1789(13) -0.4301(9)
O1J O 0.1985(7) -0.2439(10) -0.3722(6)
C2J C 0.2568(9) -0.0972(13) -0.492(1)
N1J N 0.3480(7) -0.0396(10) -0.5570(7)
O4J O 0.5288(7) -0.0705(10) -0.6045(7)
C4J C 0.4362(9) -0.1229(13) -0.6580(8)
O3J_2 O 0.4363(7) -0.1781(10) -0.7260(7)
C3J C 0.339(1) -0.109(1) -0.640(1)
Cu1E Cu 0.0000 -0.5000 -0.50000
O2K O 0.1876(10) -0.4510(7) -0.4407(7)
C1K C 0.1789(13) -0.5505(9) -0.4301(9)
O1K O 0.2439(10) -0.5576(7) -0.3722(6)
C2K C 0.0972(13) -0.646(1) -0.492(1)
N1K N 0.0396(10) -0.6124(7) -0.5570(7)
O4K O 0.0705(10) -0.4007(7) -0.6045(7)
C4K C 0.1229(13) -0.4409(9) -0.6580(8)
O3K_2 O 0.1781(10) -0.3856(7) -0.7260(7)
C3K C 0.109(1) -0.552(1) -0.640(1)
Pr1_2 Pr 0.333 -0.334 -0.83120(7)
loop_
_geom_bond_atom_site_label_1
_geom_bond_atom_site_label_2
_geom_bond_site_symmetry_1
_geom_bond_site_symmetry_2
Pr1 O1 1_555 1_555
Cu1 O2 1_555 1_555
O1 C1 1_555 1_555
O2 Pr1 1_555 1_555
O3 C4 1_555 1_555
O4 Cu1 1_555 1_555
N1 Cu1 1_555 1_555
C1 O2 1_555 1_555
C2 N1 1_555 1_555
C3 N1 1_555 1_555
C4 O4 1_555 1_555
O2F Cu1 1_555 1_555
N1F Cu1 1_555 1_555
O4F Cu1 1_555 1_555
Cu1A O2A 1_555 1_555
O1A Pr1 1_555 1_555
O2A Pr1 1_555 1_555
O3A C4A 1_555 1_555
O4A Cu1A 1_555 1_555
N1A Cu1A 1_555 1_555
C1A O1A 1_555 1_555
C2A N1A 1_555 1_555
C3A N1A 1_555 1_555
C4A O4A 1_555 1_555
O2G Cu1A 1_555 1_555
N1G Cu1A 1_555 1_555
O4G Cu1A 1_555 1_555
Cu1C O2C 1_555 1_555
O1C Pr1 1_555 1_555
O2C Pr1 1_555 1_555
O3C C4C 1_555 1_555
O4C Cu1C 1_555 1_555
N1C Cu1C 1_555 1_555
C1C O1C 1_555 1_555
C2C N1C 1_555 1_555
C3C N1C 1_555 1_555
C4C O4C 1_555 1_555
O2I Cu1C 1_555 1_555
N1I Cu1C 1_555 1_555
O4I Cu1C 1_555 1_555
O3H Pr1 1_555 1_555
O3J Pr1 1_555 1_555
O3K Pr1 1_555 1_555
Pr1H O3 1_555 1_555
Cu1B O2H 1_555 1_555
O2H Pr1H 1_555 1_555
C1H O2H 1_555 1_555
O1H Pr1H 1_555 1_555
C2H C1H 1_555 1_555
N1H Cu1B 1_555 1_555
O4H Cu1B 1_555 1_555
C4H O4H 1_555 1_555
O3H_2 C4H 1_555 1_555
C3H N1H 1_555 1_555
Cu1D O2J 1_555 1_555
O2J Pr1H 1_555 1_555
C1J O2J 1_555 1_555
O1J Pr1H 1_555 1_555
C2J C1J 1_555 1_555
N1J Cu1D 1_555 1_555
O4J Cu1D 1_555 1_555
C4J O4J 1_555 1_555
O3J_2 C4J 1_555 1_555
C3J N1J 1_555 1_555
Cu1E O2K 1_555 1_555
O2K Pr1H 1_555 1_555
C1K O2K 1_555 1_555
O1K Pr1H 1_555 1_555
C2K C1K 1_555 1_555
N1K Cu1E 1_555 1_555
O4K Cu1E 1_555 1_555
C4K O4K 1_555 1_555
O3K_2 C4K 1_555 1_555
C3K N1K 1_555 1_555
Pr1_2 O3H_2 1_555 1_555
C1 C2 1_555 1_555
C3 C4 1_555 1_555
O2A C1A 1_555 1_555
O3A Pr1H 1_555 1_555
C1A C2A 1_555 1_555
C3A C4A 1_555 1_555
O2C C1C 1_555 1_555
O3C Pr1H 1_555 1_555
C1C C2C 1_555 1_555
C3C C4C 1_555 1_555
C1H O1H 1_555 1_555
C2H N1H 1_555 1_555
C4H C3H 1_555 1_555
C1J O1J 1_555 1_555
C2J N1J 1_555 1_555
C4J C3J 1_555 1_555
O3J_2 Pr1_2 1_555 1_555
C1K O1K 1_555 1_555
C2K N1K 1_555 1_555
C4K C3K 1_555 1_555
O3K_2 Pr1_2 1_555 1_555

#END
