
#######################################################################
#
#                 Cambridge Crystallographic Data Centre
#                                CCDC 
#
#######################################################################
#
# If this CIF has been generated from an entry in the Cambridge 
# Structural Database, then it will include bibliographic, chemical, 
# crystal, experimental, refinement or atomic coordinate data resulting 
# from the CCDC's data processing and validation procedures.
#
#######################################################################

data_HUHBET
_chemical_formula_moiety         '(C32 H60 Mn6 Na4 O28 1+)n'
_symmetry_cell_setting           orthorhombic
_symmetry_space_group_name_H-M   'P b c n'
_symmetry_Int_Tables_number      60
_space_group_name_Hall           '-P 2n 2ab'
loop_
_symmetry_equiv_pos_site_id
_symmetry_equiv_pos_as_xyz
1 x,y,z
2 1/2-x,1/2-y,1/2+z
3 -x,y,1/2-z
4 1/2+x,1/2-y,-z
5 -x,-y,-z
6 1/2+x,1/2+y,1/2-z
7 x,-y,1/2+z
8 1/2-x,1/2+y,z
_cell_length_a                   24.4252(6)
_cell_length_b                   19.0425(5)
_cell_length_c                   26.7153(7)
_cell_angle_alpha                90
_cell_angle_beta                 90
_cell_angle_gamma                90
_cell_volume                     12425.7
loop_
_atom_site_label
_atom_site_type_symbol
_atom_site_fract_x
_atom_site_fract_y
_atom_site_fract_z
_atom_site_U_iso_or_equiv
_atom_site_thermal_displace_type
Mn1 Mn 0.86911(3) 0.73950(4) 0.87022(3) 0.0250 Uani
Mn2 Mn 0.77205(4) 0.81987(5) 0.92449(3) 0.0309 Uani
Mn3 Mn 0.84852(3) 0.95066(4) 0.94610(3) 0.0265 Uani
Mn4 Mn 0.83223(3) 0.89114(5) 0.83900(4) 0.0325 Uani
Mn5 Mn 0.94578(3) 0.87106(4) 0.89032(3) 0.0307 Uani
Mn6 Mn 0.88583(4) 0.79640(6) 0.98259(5) 0.0585 Uani
O1 O 0.85439(14) 0.84770(19) 0.90383(14) 0.0264 Uani
C1 C 0.9924(2) 0.7104(3) 0.9255(2) 0.0283 Uani
C2 C 0.9411(2) 0.6701(3) 0.9424(2) 0.0310 Uani
H1 H 0.9388 0.6257 0.9232 0.0370 Uiso
H2 H 0.9451 0.6578 0.9782 0.0370 Uiso
O2 O 0.89122(14) 0.70843(18) 0.93580(13) 0.0249 Uani
C3 C 0.9889(2) 0.7289(3) 0.8704(2) 0.0313 Uani
H3 H 1.0235 0.7518 0.8602 0.0370 Uiso
H4 H 0.9852 0.6851 0.8508 0.0370 Uiso
O3 O 0.94411(14) 0.77462(19) 0.85838(14) 0.0271 Uani
C4 C 1.0030(2) 0.7757(3) 0.9568(2) 0.0290 Uani
H5 H 1.0080 0.7613 0.9921 0.0340 Uiso
H6 H 1.0378 0.7972 0.9454 0.0340 Uiso
O4 O 0.96142(14) 0.82743(18) 0.95466(14) 0.0263 Uani
C5 C 1.0415(2) 0.6602(3) 0.9323(2) 0.0397 Uani
H7 H 1.0749 0.6830 0.9201 0.0600 Uiso
H8 H 1.0351 0.6170 0.9133 0.0600 Uiso
H9 H 1.0458 0.6489 0.9679 0.0600 Uiso
C6 C 0.9140(2) 1.0380(3) 0.8531(2) 0.0287 Uani
C7 C 0.9270(2) 0.9814(3) 0.8146(2) 0.0320 Uani
H10 H 0.9080 0.9933 0.7829 0.0380 Uiso
H11 H 0.9668 0.9823 0.8078 0.0380 Uiso
O5 O 0.91183(15) 0.91134(19) 0.82875(14) 0.0307 Uani
C8 C 0.8529(2) 1.0454(3) 0.8616(2) 0.0317 Uani
H12 H 0.8466 1.0855 0.8845 0.0380 Uiso
H13 H 0.8353 1.0570 0.8292 0.0380 Uiso
O6 O 0.82690(14) 0.98498(18) 0.88186(14) 0.0273 Uani
C9 C 0.9432(2) 1.0243(3) 0.9023(2) 0.0313 Uani
H14 H 0.9831 1.0222 0.8959 0.0380 Uiso
H15 H 0.9364 1.0644 0.9250 0.0380 Uiso
O7 O 0.92695(14) 0.96067(18) 0.92742(13) 0.0250 Uani
C10 C 0.9354(3) 1.1082(3) 0.8319(3) 0.0407 Uani
H16 H 0.9172 1.1181 0.7999 0.0610 Uiso
H17 H 0.9750 1.1049 0.8266 0.0610 Uiso
H18 H 0.9276 1.1461 0.8556 0.0610 Uiso
C11 C 0.7491(2) 0.7503(3) 0.8079(2) 0.0337 Uani
C12 C 0.7539(2) 0.7027(3) 0.8530(2) 0.0357 Uani
H19 H 0.7173 0.6977 0.8686 0.0430 Uiso
H20 H 0.7657 0.6556 0.8417 0.0430 Uiso
O8 O 0.79165(15) 0.7276(2) 0.89003(15) 0.0333 Uani
C13 C 0.7258(2) 0.8215(3) 0.8220(2) 0.0340 Uani
H21 H 0.7227 0.8504 0.7913 0.0410 Uiso
H22 H 0.6884 0.8147 0.8355 0.0410 Uiso
O9 O 0.75775(15) 0.85998(19) 0.85842(14) 0.0310 Uani
C14 C 0.8038(2) 0.7575(3) 0.7803(2) 0.0357 Uani
H23 H 0.8154 0.7105 0.7686 0.0430 Uiso
H24 H 0.7982 0.7873 0.7504 0.0430 Uiso
O10 O 0.84673(14) 0.78712(19) 0.80999(14) 0.0284 Uani
C15 C 0.7086(3) 0.7158(4) 0.7712(3) 0.0453 Uani
H25 H 0.6723 0.7132 0.7868 0.0680 Uiso
H26 H 0.7213 0.6684 0.7630 0.0680 Uiso
H27 H 0.7065 0.7440 0.7406 0.0680 Uiso
C16 C 0.7787(3) 0.8830(3) 1.0442(2) 0.0380 Uani
C17 C 0.7489(3) 0.9247(3) 1.0046(2) 0.0380 Uani
H28 H 0.7103 0.9089 1.0032 0.0450 Uiso
H29 H 0.7489 0.9749 1.0142 0.0450 Uiso
O11 O 0.77273(15) 0.9178(2) 0.95568(14) 0.0307 Uani
C18 C 0.8379(3) 0.9084(3) 1.0493(2) 0.0413 Uani
H30 H 0.8374 0.9585 1.0592 0.0490 Uiso
H31 H 0.8556 0.8818 1.0768 0.0490 Uiso
O12 O 0.87068(16) 0.9011(2) 1.00510(14) 0.0313 Uani
C19 C 0.7753(3) 0.8037(3) 1.0332(2) 0.0413 Uani
H32 H 0.7939 0.7782 1.0606 0.0500 Uiso
H33 H 0.7363 0.7896 1.0336 0.0500 Uiso
O13 O 0.7987(2) 0.7818(2) 0.98676(15) 0.0443 Uani
C20 C 0.7503(3) 0.8946(4) 1.0943(2) 0.0567 Uani
H34 H 0.7552 0.9435 1.1048 0.0850 Uiso
H35 H 0.7663 0.8633 1.1195 0.0850 Uiso
H36 H 0.7112 0.8845 1.0909 0.0850 Uiso
C21 C 0.8100(3) 1.0914(3) 0.9840(2) 0.0340 Uani
C22 C 0.8187(3) 1.1549(4) 1.0157(3) 0.0600 Uani
H37 H 0.7889 1.1588 1.0402 0.0890 Uiso
H38 H 0.8192 1.1969 0.9945 0.0890 Uiso
H39 H 0.8538 1.1509 1.0334 0.0890 Uiso
O14 O 0.84906(15) 1.04568(19) 0.98449(14) 0.0303 Uani
O15 O 0.76795(16) 1.0848(2) 0.95948(16) 0.0417 Uani
C23 C 1.0540(2) 0.8880(3) 0.8366(2) 0.0330 Uani
C24 C 1.1119(3) 0.9122(6) 0.8362(3) 0.0840 Uani
H40 H 1.1316 0.8893 0.8088 0.1260 Uiso
H41 H 1.1293 0.9000 0.8681 0.1260 Uiso
H42 H 1.1130 0.9632 0.8316 0.1260 Uiso
O16 O 1.02773(15) 0.8991(2) 0.87753(14) 0.0313 Uani
O17 O 1.03307(15) 0.8610(2) 0.79908(14) 0.0320 Uani
C25 C 0.8686(2) 0.5833(3) 0.8506(2) 0.0347 Uani
C26 C 0.8913(3) 0.5220(3) 0.8217(3) 0.0557 Uani
H43 H 0.8863 0.4788 0.8411 0.0840 Uiso
H44 H 0.9304 0.5296 0.8155 0.0840 Uiso
H45 H 0.8720 0.5179 0.7897 0.0840 Uiso
O18 O 0.88282(16) 0.6442(2) 0.83392(14) 0.0330 Uani
O19 O 0.83906(16) 0.5732(2) 0.88761(15) 0.0343 Uani
C27 C 0.7718(3) 0.9797(4) 0.7693(3) 0.0487 Uani
C28 C 0.7690(4) 1.0109(5) 0.7205(3) 0.0827 Uani
H46 H 0.7438 1.0510 0.7212 0.1240 Uiso
H47 H 0.7558 0.9760 0.6963 0.1240 Uiso
H48 H 0.8055 1.0270 0.7105 0.1240 Uiso
O20 O 0.81175(17) 0.9339(2) 0.77687(16) 0.0430 Uani
O21 O 0.73964(17) 0.9981(2) 0.80196(16) 0.0460 Uani
C29 C 0.9406(4) 0.7784(5) 1.0804(3) 0.0633 Uani
C30 C 0.9540(5) 0.7420(8) 1.1288(6) 0.1730 Uani
H49 H 0.9443 0.7726 1.1570 0.2600 Uiso
H50 H 0.9932 0.7314 1.1300 0.2600 Uiso
H51 H 0.9330 0.6982 1.1311 0.2600 Uiso
O22 O 0.9094(3) 0.7533(3) 1.0482(3) 0.0837 Uani
O23 O 0.9670(2) 0.8394(3) 1.0740(2) 0.0777 Uani
C31 C 0.6514(3) 0.8371(4) 0.9269(3) 0.0450 Uani
C32 C 0.5972(3) 0.8002(5) 0.9264(4) 0.0817 Uani
H52 H 0.5677 0.8349 0.9271 0.1220 Uiso
H53 H 0.5944 0.7696 0.9558 0.1220 Uiso
H54 H 0.5942 0.7718 0.8959 0.1220 Uiso
O24 O 0.6929(2) 0.7975(2) 0.93663(16) 0.0490 Uani
O25 O 0.65403(19) 0.8993(2) 0.91632(18) 0.0527 Uani
Na1 Na 0.93910(9) 0.81533(12) 0.77456(8) 0.0346 Uani
Na2 Na 0.96809(9) 0.92324(11) 1.01192(8) 0.0326 Uani
Na3 Na 0.72500(9) 0.98193(12) 0.88983(9) 0.0366 Uani
Na4 Na 0.81052(9) 0.64605(13) 0.95665(9) 0.0392 Uani
O26 O 0.94953(14) 1.04282(19) 1.02970(14) 0.0290 Uani
H55 H 0.9513 1.0608 1.0583 0.0440 Uiso
H56 H 0.9185 1.0529 1.0182 0.0440 Uiso
O27 O 0.94210(19) 0.6955(2) 0.75104(17) 0.0513 Uani
H57 H 0.9244 0.6730 0.7728 0.0770 Uiso
H58 H 0.9224 0.6934 0.7255 0.0770 Uiso
O28 O 0.8461(2) 0.6329(3) 1.0358(2) 0.0737 Uani
H59 H 0.8419 0.6298 1.0672 0.1110 Uiso
H60 H 0.8616 0.6721 1.0375 0.1110 Uiso
O15G O 0.73205(16) 0.5848(2) 0.95948(16) 0.0417 Uani
O17B O 0.96693(15) 0.8610(2) 0.70092(14) 0.0320 Uani
O19G O 0.66094(16) 1.0732(2) 0.88761(15) 0.0343 Uani
Na1B Na 1.06090(9) 0.81533(12) 0.72544(8) 0.0346 Uani
Na2D Na 1.03191(9) 1.07676(11) 0.98808(8) 0.0326 Uani
Na3G Na 0.77500(9) 0.48193(12) 0.88983(9) 0.0366 Uani
Na4G Na 0.68948(9) 1.14605(13) 0.95665(9) 0.0392 Uani
O26D O 1.05047(14) 0.95718(19) 0.97030(14) 0.0290 Uani
loop_
_atom_site_aniso_label
_atom_site_aniso_U_11
_atom_site_aniso_U_22
_atom_site_aniso_U_33
_atom_site_aniso_U_23
_atom_site_aniso_U_13
_atom_site_aniso_U_12
Mn1 0.0231(4) 0.0209(4) 0.0311(5) 0.0011(4) -0.0001(4) -0.0022(3)
Mn2 0.0358(5) 0.0244(5) 0.0325(5) -0.0040(4) -0.0065(4) 0.0019(4)
Mn3 0.0253(4) 0.0237(5) 0.0306(5) -0.0031(4) -0.0039(4) 0.0017(4)
Mn4 0.0247(5) 0.0275(5) 0.0454(6) -0.0039(4) 0.0002(4) 0.0002(4)
Mn5 0.0307(5) 0.0213(5) 0.0400(5) -0.0019(4) -0.0084(4) 0.0017(4)
Mn6 0.0432(6) 0.0464(7) 0.0860(9) -0.0193(6) -0.0040(6) -0.0017(5)
O1 0.0213(19) 0.026(2) 0.032(2) -0.0002(17) 0.0033(16) -0.0014(16)
C1 0.028(3) 0.021(3) 0.036(3) 0.002(2) -0.002(2) -0.001(2)
C2 0.034(3) 0.021(3) 0.038(3) 0.002(2) -0.005(3) 0.001(2)
O2 0.0236(19) 0.025(2) 0.026(2) 0.0032(16) 0.0003(16) -0.0005(16)
C3 0.023(3) 0.033(3) 0.038(3) -0.003(3) 0.001(2) 0.004(2)
O3 0.0223(19) 0.027(2) 0.032(2) 0.0047(17) 0.0010(16) 0.0003(16)
C4 0.022(3) 0.025(3) 0.040(3) 0.003(3) -0.002(2) 0.002(2)
O4 0.0229(19) 0.024(2) 0.032(2) -0.0012(16) -0.0035(16) 0.0023(16)
C5 0.037(3) 0.032(3) 0.050(4) 0.003(3) -0.001(3) 0.011(3)
C6 0.026(3) 0.019(3) 0.041(3) 0.003(2) 0.003(3) -0.001(2)
C7 0.034(3) 0.023(3) 0.039(3) 0.003(3) 0.007(3) -0.001(2)
O5 0.030(2) 0.021(2) 0.041(2) -0.0014(17) 0.0103(18) -0.0029(16)
C8 0.037(3) 0.023(3) 0.035(3) 0.002(3) 0.001(3) 0.005(3)
O6 0.027(2) 0.023(2) 0.032(2) 0.0019(17) -0.0003(16) 0.0023(16)
C9 0.032(3) 0.020(3) 0.042(4) 0.001(3) 0.002(3) -0.006(2)
O7 0.0260(19) 0.022(2) 0.027(2) -0.0003(16) -0.0007(16) 0.0009(16)
C10 0.040(4) 0.024(3) 0.058(4) 0.009(3) 0.008(3) -0.003(3)
C11 0.027(3) 0.035(3) 0.039(3) -0.007(3) -0.001(3) -0.004(3)
C12 0.028(3) 0.033(3) 0.046(4) -0.006(3) -0.008(3) -0.006(3)
O8 0.034(2) 0.025(2) 0.041(2) 0.0001(18) -0.0069(18) -0.0062(17)
C13 0.025(3) 0.040(4) 0.037(3) -0.004(3) -0.010(3) -0.001(3)
O9 0.025(2) 0.027(2) 0.041(2) -0.0028(18) -0.0076(17) 0.0011(17)
C14 0.035(3) 0.034(3) 0.038(4) -0.007(3) -0.007(3) -0.003(3)
O10 0.0231(19) 0.029(2) 0.033(2) -0.0015(17) 0.0005(16) -0.0024(16)
C15 0.039(4) 0.047(4) 0.050(4) -0.008(3) -0.011(3) -0.003(3)
C16 0.052(4) 0.037(4) 0.025(3) -0.004(3) 0.003(3) -0.006(3)
C17 0.045(4) 0.038(4) 0.031(3) -0.008(3) 0.010(3) -0.004(3)
O11 0.036(2) 0.028(2) 0.028(2) -0.0028(17) 0.0058(17) 0.0026(18)
C18 0.065(4) 0.031(3) 0.028(3) 0.000(3) -0.008(3) -0.006(3)
O12 0.040(2) 0.028(2) 0.026(2) 0.0047(17) -0.0067(18) -0.0068(18)
C19 0.060(4) 0.032(4) 0.032(4) 0.002(3) 0.007(3) -0.009(3)
O13 0.076(3) 0.027(2) 0.030(2) -0.0016(18) 0.002(2) -0.005(2)
C20 0.079(5) 0.048(4) 0.043(4) -0.006(3) 0.013(4) -0.012(4)
C21 0.039(4) 0.026(3) 0.037(4) 0.002(3) 0.004(3) 0.009(3)
C22 0.072(5) 0.044(4) 0.064(5) -0.014(4) -0.014(4) 0.024(4)
O14 0.032(2) 0.024(2) 0.035(2) -0.0050(17) -0.0068(17) 0.0065(17)
O15 0.029(2) 0.045(3) 0.051(3) 0.001(2) -0.008(2) 0.012(2)
C23 0.032(3) 0.033(3) 0.034(4) 0.008(3) 0.003(3) 0.000(3)
C24 0.047(5) 0.154(10) 0.051(5) -0.009(5) 0.005(4) -0.040(5)
O16 0.035(2) 0.028(2) 0.031(2) -0.0007(17) 0.0012(18) -0.0014(17)
O17 0.034(2) 0.033(2) 0.029(2) -0.0052(18) 0.0011(18) -0.0034(18)
C25 0.032(3) 0.033(4) 0.039(4) -0.007(3) -0.003(3) -0.001(3)
C26 0.055(4) 0.031(4) 0.081(5) -0.013(4) 0.021(4) -0.001(3)
O18 0.039(2) 0.023(2) 0.037(2) -0.0008(18) 0.0024(18) -0.0049(18)
O19 0.038(2) 0.024(2) 0.041(2) -0.0049(18) 0.003(2) -0.0097(18)
C27 0.045(4) 0.041(4) 0.060(5) -0.002(3) 0.011(4) -0.005(3)
C28 0.096(7) 0.092(7) 0.060(6) -0.006(5) -0.020(5) 0.036(6)
O20 0.037(2) 0.045(3) 0.047(3) -0.006(2) 0.008(2) 0.003(2)
O21 0.039(2) 0.056(3) 0.043(3) 0.000(2) 0.004(2) 0.009(2)
C29 0.071(6) 0.063(5) 0.056(5) 0.024(4) -0.014(4) 0.010(5)
C30 0.099(9) 0.217(17) 0.203(16) 0.132(14) -0.047(10) -0.063(10)
O22 0.072(4) 0.059(4) 0.120(6) 0.005(4) 0.017(4) -0.005(3)
O23 0.061(3) 0.084(4) 0.088(4) 0.050(4) -0.012(3) -0.018(3)
C31 0.061(5) 0.031(4) 0.043(4) 0.000(3) 0.008(3) -0.005(3)
C32 0.066(6) 0.085(7) 0.094(7) -0.014(5) 0.027(5) -0.022(5)
O24 0.076(3) 0.033(3) 0.038(3) -0.001(2) 0.004(2) -0.005(2)
O25 0.055(3) 0.041(3) 0.062(3) 0.005(2) 0.002(2) -0.006(2)
Na1 0.0334(12) 0.0344(13) 0.0359(13) 0.0036(10) 0.0063(10) -0.0004(10)
Na2 0.0354(12) 0.0240(12) 0.0385(13) -0.0032(10) -0.0059(10) -0.0033(10)
Na3 0.0321(12) 0.0341(13) 0.0436(14) 0.0030(11) 0.0001(10) 0.0106(10)
Na4 0.0393(13) 0.0427(14) 0.0355(13) -0.0002(11) 0.0043(11) -0.0198(11)
O26 0.026(2) 0.025(2) 0.036(2) -0.0083(17) -0.0084(17) 0.0009(16)
O27 0.064(3) 0.047(3) 0.043(3) -0.002(2) 0.007(2) -0.003(2)
O28 0.077(4) 0.092(4) 0.052(3) 0.012(3) -0.007(3) -0.022(3)
O15G 0.029 0.045 0.051 0.001 0.008 -0.012
O17B 0.034 0.033 0.029 0.0052 0.0011 0.0034
O19G 0.038 0.024 0.041 -0.0049 -0.003 0.0097
Na1B 0.0334 0.0344 0.0359 -0.0036 0.0063 0.0004
Na2D 0.0354 0.024 0.0385 -0.0032 -0.0059 -0.0033
Na3G 0.0321 0.0341 0.0436 0.003 -0.0001 -0.0106
Na4G 0.0393 0.0427 0.0355 -0.0002 -0.0043 0.0198
O26D 0.026 0.025 0.036 -0.0083 -0.0084 0.0009
loop_
_geom_bond_atom_site_label_1
_geom_bond_atom_site_label_2
_geom_bond_site_symmetry_1
_geom_bond_site_symmetry_2
Mn1 O1 1_555 1_555
Mn2 O1 1_555 1_555
Mn3 O1 1_555 1_555
Mn4 O1 1_555 1_555
Mn5 O1 1_555 1_555
Mn6 O1 1_555 1_555
C1 C2 1_555 1_555
C2 H1 1_555 1_555
H2 C2 1_555 1_555
O2 Mn1 1_555 1_555
C3 C1 1_555 1_555
H3 C3 1_555 1_555
H4 C3 1_555 1_555
O3 Mn1 1_555 1_555
C4 C1 1_555 1_555
H5 C4 1_555 1_555
H6 C4 1_555 1_555
O4 Mn5 1_555 1_555
C5 C1 1_555 1_555
H7 C5 1_555 1_555
H8 C5 1_555 1_555
H9 C5 1_555 1_555
C6 C7 1_555 1_555
C7 H10 1_555 1_555
H11 C7 1_555 1_555
O5 Mn4 1_555 1_555
C8 C6 1_555 1_555
H12 C8 1_555 1_555
H13 C8 1_555 1_555
O6 Mn3 1_555 1_555
C9 C6 1_555 1_555
H14 C9 1_555 1_555
H15 C9 1_555 1_555
O7 Mn3 1_555 1_555
C10 C6 1_555 1_555
H16 C10 1_555 1_555
H17 C10 1_555 1_555
H18 C10 1_555 1_555
C11 C12 1_555 1_555
C12 H19 1_555 1_555
H20 C12 1_555 1_555
O8 Mn1 1_555 1_555
C13 C11 1_555 1_555
H21 C13 1_555 1_555
H22 C13 1_555 1_555
O9 Mn2 1_555 1_555
C14 C11 1_555 1_555
H23 C14 1_555 1_555
H24 C14 1_555 1_555
O10 Mn1 1_555 1_555
C15 C11 1_555 1_555
H25 C15 1_555 1_555
H26 C15 1_555 1_555
H27 C15 1_555 1_555
C16 C17 1_555 1_555
C17 H28 1_555 1_555
H29 C17 1_555 1_555
O11 Mn2 1_555 1_555
C18 C16 1_555 1_555
H30 C18 1_555 1_555
H31 C18 1_555 1_555
O12 Mn3 1_555 1_555
C19 C16 1_555 1_555
H32 C19 1_555 1_555
H33 C19 1_555 1_555
O13 Mn2 1_555 1_555
C20 C16 1_555 1_555
H34 C20 1_555 1_555
H35 C20 1_555 1_555
H36 C20 1_555 1_555
C21 C22 1_555 1_555
C22 H37 1_555 1_555
H38 C22 1_555 1_555
H39 C22 1_555 1_555
O14 Mn3 1_555 1_555
O15 C21 1_555 1_555
C23 C24 1_555 1_555
C24 H40 1_555 1_555
H41 C24 1_555 1_555
H42 C24 1_555 1_555
O16 Mn5 1_555 1_555
O17 C23 1_555 1_555
C25 C26 1_555 1_555
C26 H43 1_555 1_555
H44 C26 1_555 1_555
H45 C26 1_555 1_555
O18 Mn1 1_555 1_555
O19 C25 1_555 1_555
C27 C28 1_555 1_555
C28 H46 1_555 1_555
H47 C28 1_555 1_555
H48 C28 1_555 1_555
O20 Mn4 1_555 1_555
O21 C27 1_555 1_555
C29 C30 1_555 1_555
C30 H49 1_555 1_555
H50 C30 1_555 1_555
H51 C30 1_555 1_555
O22 Mn6 1_555 1_555
O23 C29 1_555 1_555
C31 C32 1_555 1_555
C32 H52 1_555 1_555
H53 C32 1_555 1_555
H54 C32 1_555 1_555
O24 Mn2 1_555 1_555
O25 C31 1_555 1_555
Na1 O3 1_555 1_555
Na2 O4 1_555 1_555
Na3 O6 1_555 1_555
Na4 O2 1_555 1_555
O26 Na2 1_555 1_555
H55 O26 1_555 1_555
H56 O26 1_555 1_555
O27 Na1 1_555 1_555
H57 O27 1_555 1_555
H58 O27 1_555 1_555
O28 Na4 1_555 1_555
H59 O28 1_555 1_555
H60 O28 1_555 1_555
O15G Na4 1_555 1_555
O17B Na1 1_555 1_555
O19G Na3 1_555 1_555
Na1B O17 1_555 1_555
Na2D O26 1_555 1_555
Na3G O19 1_555 1_555
Na4G O15 1_555 1_555
O26D Na2 1_555 1_555
Mn2 O8 1_555 1_555
Mn3 O11 1_555 1_555
Mn4 O6 1_555 1_555
Mn4 O9 1_555 1_555
Mn4 O10 1_555 1_555
Mn5 O3 1_555 1_555
Mn5 O5 1_555 1_555
Mn5 O7 1_555 1_555
Mn6 O2 1_555 1_555
Mn6 O4 1_555 1_555
Mn6 O12 1_555 1_555
Mn6 O13 1_555 1_555
C2 O2 1_555 1_555
C3 O3 1_555 1_555
C4 O4 1_555 1_555
C7 O5 1_555 1_555
O5 Na1 1_555 1_555
C8 O6 1_555 1_555
C9 O7 1_555 1_555
O7 Na2 1_555 1_555
C12 O8 1_555 1_555
O8 Na4 1_555 1_555
C13 O9 1_555 1_555
O9 Na3 1_555 1_555
C14 O10 1_555 1_555
O10 Na1 1_555 1_555
C17 O11 1_555 1_555
O11 Na3 1_555 1_555
C18 O12 1_555 1_555
O12 Na2 1_555 1_555
C19 O13 1_555 1_555
O13 Na4 1_555 1_555
C21 O14 1_555 1_555
O15 Na3 1_555 1_555
C23 O16 1_555 1_555
O17 Na1 1_555 1_555
C25 O18 1_555 1_555
O19 Na4 1_555 1_555
C27 O20 1_555 1_555
O21 Na3 1_555 1_555
C29 O22 1_555 1_555
O23 Na2 1_555 1_555
C31 O24 1_555 1_555
O25 Na3 1_555 1_555
O15G Na3G 1_555 1_555
O17B Na1B 1_555 1_555
O19G Na4G 1_555 1_555
Na2D O26D 1_555 1_555

#END
