
#######################################################################
#
#                 Cambridge Crystallographic Data Centre
#                                CCDC 
#
#######################################################################
#
# If this CIF has been generated from an entry in the Cambridge 
# Structural Database, then it will include bibliographic, chemical, 
# crystal, experimental, refinement or atomic coordinate data resulting 
# from the CCDC's data processing and validation procedures.
#
#######################################################################

data_HULTEP
_chemical_formula_moiety         '(C30 H24 B1 Co1 F4 N18 1+)n'
_symmetry_cell_setting           rhombohedral
_symmetry_space_group_name_H-M   'R -3 c'
_symmetry_Int_Tables_number      167
_space_group_name_Hall           '-R 3 2"c'
loop_
_symmetry_equiv_pos_site_id
_symmetry_equiv_pos_as_xyz
1 x,y,z
2 -y,x-y,z
3 -x+y,-x,z
4 y,x,1/2-z
5 x-y,-y,1/2-z
6 -x,-x+y,1/2-z
7 2/3+x,1/3+y,1/3+z
8 2/3-y,1/3+x-y,1/3+z
9 2/3-x+y,1/3-x,1/3+z
10 2/3+y,1/3+x,5/6-z
11 2/3+x-y,1/3-y,5/6-z
12 2/3-x,1/3-x+y,5/6-z
13 1/3+x,2/3+y,2/3+z
14 1/3-y,2/3+x-y,2/3+z
15 1/3-x+y,2/3-x,2/3+z
16 1/3+y,2/3+x,1/6-z
17 1/3+x-y,2/3-y,1/6-z
18 1/3-x,2/3-x+y,1/6-z
19 -x,-y,-z
20 y,-x+y,-z
21 x-y,x,-z
22 -y,-x,1/2+z
23 -x+y,y,1/2+z
24 x,x-y,1/2+z
25 1/3-x,2/3-y,2/3-z
26 1/3+y,2/3-x+y,2/3-z
27 1/3+x-y,2/3+x,2/3-z
28 1/3-y,2/3-x,1/6+z
29 1/3-x+y,2/3+y,1/6+z
30 1/3+x,2/3+x-y,1/6+z
31 2/3-x,1/3-y,1/3-z
32 2/3+y,1/3-x+y,1/3-z
33 2/3+x-y,1/3+x,1/3-z
34 2/3-y,1/3-x,5/6+z
35 2/3-x+y,1/3+y,5/6+z
36 2/3+x,1/3+x-y,5/6+z
_cell_length_a                   13.717(4)
_cell_length_b                   13.717(4)
_cell_length_c                   58.97(2)
_cell_angle_alpha                90
_cell_angle_beta                 90
_cell_angle_gamma                120
_cell_volume                     9609.04
loop_
_atom_site_label
_atom_site_type_symbol
_atom_site_fract_x
_atom_site_fract_y
_atom_site_fract_z
B1 B 0.6667 0.3333 0.0377(5)
F1 F 0.7705(5) 0.3615(5) 0.03878(14)
F2 F 0.6667 0.3333 0.0147(4)
F1A F 0.6385(5) 0.4090(7) 0.03878(14)
F1B F 0.5910(7) 0.2295(5) 0.03878(14)
C1 C 0.8533(4) 0.0188(4) 0.03903(7)
H1 H 0.8414 -0.0481 0.0455
C2 C 0.9100(6) 0.1603(5) 0.01742(9)
H2 H 0.9459 0.2114 0.0057
C3 C 0.8432(6) 0.1695(5) 0.03295(10)
H3 H 0.8255 0.2265 0.0341
C4 C 0.7335(5) 0.0510(4) 0.06584(8)
C5 C 0.7010(6) 0.1209(5) 0.07431(10)
H4 H 0.7254 0.1913 0.0679
Co1 Co 1.0000 0.0000 0.0000
N1 N 0.9181(3) 0.0670(3) 0.02104(5)
N2 N 0.8070(4) 0.0787(3) 0.04666(6)
N3 N 0.7002(5) -0.0482(4) 0.07378(8)
C1Q C 0.4800(4) -0.1678(6) 0.12764(7)
H1Q H 0.4919 -0.2228 0.1212
C2Q C 0.4233(6) -0.0830(8) 0.14925(9)
H2Q H 0.3874 -0.0678 0.1610
C3Q C 0.4901(6) -0.0070(8) 0.13372(10)
H3Q H 0.5078 0.0677 0.1326
C4Q C 0.5998(5) -0.0158(6) 0.10083(8)
C5Q C 0.6323(6) 0.0866(8) 0.09236(10)
H4Q H 0.6079 0.1326 0.0988
N1Q N 0.4152(3) -0.1844(4) 0.14563(5)
N2Q N 0.5263(4) -0.0616(5) 0.12001(6)
N3Q N 0.6331(5) -0.0817(6) 0.09289(8)
C1A C 0.9812(4) -0.1655(6) 0.03903(7)
H1A H 1.0481 -0.1105 0.0455
C2A C 0.8397(5) -0.2503(8) 0.01742(9)
H2A H 0.7886 -0.2655 0.0057
C3A C 0.8305(5) -0.3263(8) 0.03295(10)
H3A H 0.7735 -0.4010 0.0341
C4A C 0.9490(4) -0.3175(6) 0.06584(8)
C5A C 0.8791(5) -0.4199(8) 0.07431(10)
H4A H 0.8087 -0.4659 0.0679
N1A N 0.9330(3) -0.1489(4) 0.02104(5)
N2A N 0.9213(3) -0.2717(5) 0.04666(6)
N3A N 1.0482(4) -0.2516(6) 0.07378(8)
C1P C 1.1678(6) -0.3521(4) 0.12764(7)
H1P H 1.2228 -0.2852 0.1212
C2P C 1.0830(8) -0.4936(5) 0.14925(9)
H2P H 1.0678 -0.5447 0.1610
C3P C 1.0070(8) -0.5028(5) 0.13372(10)
H3P H 0.9323 -0.5598 0.1326
C4P C 1.0158(6) -0.3843(4) 0.10083(8)
C5P C 0.9134(8) -0.4542(5) 0.09236(10)
H4P H 0.8674 -0.5246 0.0988
N1P N 1.1844(4) -0.4003(3) 0.14563(5)
N2P N 1.0616(5) -0.4120(3) 0.12001(6)
N3P N 1.0817(6) -0.2851(4) 0.09289(8)
C1B C 1.1655(6) 0.1467(4) 0.03903(7)
H1B H 1.1105 0.1586 0.0455
C2B C 1.2503(8) 0.0900(6) 0.01742(9)
H2B H 1.2655 0.0541 0.0057
C3B C 1.3263(8) 0.1568(6) 0.03295(10)
H3B H 1.4010 0.1745 0.0341
C4B C 1.3175(6) 0.2665(5) 0.06584(8)
C5B C 1.4199(8) 0.2990(6) 0.07431(10)
H4B H 1.4659 0.2746 0.0679
N1B N 1.1489(4) 0.0819(3) 0.02104(5)
N2B N 1.2717(5) 0.1930(4) 0.04666(6)
N3B N 1.2516(6) 0.2998(5) 0.07378(8)
C1O C 1.3521(4) 0.5200(4) 0.12764(7)
H1O H 1.2852 0.5081 0.1212
C2O C 1.4936(5) 0.5767(6) 0.14925(9)
H2O H 1.5447 0.6126 0.1610
C3O C 1.5028(5) 0.5099(6) 0.13372(10)
H3O H 1.5598 0.4922 0.1326
C4O C 1.3843(4) 0.4002(5) 0.10083(8)
C5O C 1.4542(5) 0.3677(6) 0.09236(10)
H4O H 1.5246 0.3921 0.0988
N1O N 1.4003(3) 0.5848(3) 0.14563(5)
N2O N 1.4120(3) 0.4737(4) 0.12001(6)
N3O N 1.2851(4) 0.3669(5) 0.09289(8)
Co1O Co 0.3333 -0.3333 0.1667
Co1O_2 Co 1.3333 -0.3333 0.1667
Co1O_3 Co 1.3333 0.6667 0.1667
N1R N 1.0819(3) -0.0670(3) -0.02104(5)
N1S N 1.0670(3) 0.1489(4) -0.02104(5)
N1T N 0.8511(4) -0.0819(3) -0.02104(5)
loop_
_geom_bond_atom_site_label_1
_geom_bond_atom_site_label_2
_geom_bond_site_symmetry_1
_geom_bond_site_symmetry_2
B1 F1 1_555 1_555
F2 B1 1_555 1_555
C1 H1 1_555 1_555
C2 H2 1_555 1_555
C3 C2 1_555 1_555
H3 C3 1_555 1_555
C4 C5 1_555 1_555
C5 H4 1_555 1_555
Co1 N1 1_555 1_555
N1 C1 1_555 1_555
N2 C1 1_555 1_555
N3 C4 1_555 1_555
F1A B1 1_555 1_555
F1B B1 1_555 1_555
C1Q H1Q 1_555 1_555
C2Q H2Q 1_555 1_555
C3Q C2Q 1_555 1_555
H3Q C3Q 1_555 1_555
C4Q C5Q 1_555 1_555
C5Q C5 1_555 1_555
H4Q C5Q 1_555 1_555
N1Q C1Q 1_555 1_555
N2Q C1Q 1_555 1_555
N3Q N3 1_555 1_555
C1A H1A 1_555 1_555
C2A H2A 1_555 1_555
C3A C2A 1_555 1_555
H3A C3A 1_555 1_555
C4A C5A 1_555 1_555
C5A H4A 1_555 1_555
N1A Co1 1_555 1_555
N2A C1A 1_555 1_555
N3A C4A 1_555 1_555
C1P H1P 1_555 1_555
C2P H2P 1_555 1_555
C3P C2P 1_555 1_555
H3P C3P 1_555 1_555
C4P C5P 1_555 1_555
C5P C5A 1_555 1_555
H4P C5P 1_555 1_555
N1P C1P 1_555 1_555
N2P C1P 1_555 1_555
N3P N3A 1_555 1_555
C1B H1B 1_555 1_555
C2B H2B 1_555 1_555
C3B C2B 1_555 1_555
H3B C3B 1_555 1_555
C4B C5B 1_555 1_555
C5B H4B 1_555 1_555
N1B Co1 1_555 1_555
N2B C1B 1_555 1_555
N3B C4B 1_555 1_555
C1O H1O 1_555 1_555
C2O H2O 1_555 1_555
C3O C2O 1_555 1_555
H3O C3O 1_555 1_555
C4O C5O 1_555 1_555
C5O C5B 1_555 1_555
H4O C5O 1_555 1_555
N1O C1O 1_555 1_555
N2O C1O 1_555 1_555
N3O N3B 1_555 1_555
Co1O N1Q 1_555 1_555
Co1O_2 N1P 1_555 1_555
Co1O_3 N1O 1_555 1_555
N1R Co1 1_555 1_555
N1S Co1 1_555 1_555
N1T Co1 1_555 1_555
C2 N1 1_555 1_555
C3 N2 1_555 1_555
C4 N2 1_555 1_555
C2Q N1Q 1_555 1_555
C3Q N2Q 1_555 1_555
C4Q N2Q 1_555 1_555
C4Q N3Q 1_555 1_555
C1A N1A 1_555 1_555
C2A N1A 1_555 1_555
C3A N2A 1_555 1_555
C4A N2A 1_555 1_555
C2P N1P 1_555 1_555
C3P N2P 1_555 1_555
C4P N2P 1_555 1_555
C4P N3P 1_555 1_555
C1B N1B 1_555 1_555
C2B N1B 1_555 1_555
C3B N2B 1_555 1_555
C4B N2B 1_555 1_555
C2O N1O 1_555 1_555
C3O N2O 1_555 1_555
C4O N2O 1_555 1_555
C4O N3O 1_555 1_555

#END
