
#######################################################################
#
#                 Cambridge Crystallographic Data Centre
#                                CCDC 
#
#######################################################################
#
# If this CIF has been generated from an entry in the Cambridge 
# Structural Database, then it will include bibliographic, chemical, 
# crystal, experimental, refinement or atomic coordinate data resulting 
# from the CCDC's data processing and validation procedures.
#
#######################################################################

data_IFAHEC
_chemical_formula_moiety         '(C12 H46 F7 Ga14 N4 O69 P16 Zn2 4-)n'
_symmetry_cell_setting           orthorhombic
_symmetry_space_group_name_H-M   'P 21 21 2'
_symmetry_Int_Tables_number      18
_space_group_name_Hall           'P 2 2ab'
loop_
_symmetry_equiv_pos_site_id
_symmetry_equiv_pos_as_xyz
1 x,y,z
2 -x,-y,z
3 1/2+x,1/2-y,-z
4 1/2-x,1/2+y,-z
_cell_length_a                   24.814(13)
_cell_length_b                   18.458(5)
_cell_length_c                   10.2572(18)
_cell_angle_alpha                90
_cell_angle_beta                 90
_cell_angle_gamma                90
_cell_volume                     4697.97
loop_
_atom_site_label
_atom_site_type_symbol
_atom_site_fract_x
_atom_site_fract_y
_atom_site_fract_z
Ga1 Ga 0.43750(5) -0.08422(6) 0.11277(13)
Ga2 Ga 0.33839(6) 0.15286(8) -0.0723(3)
Zn1 Zn 0.55936(5) -0.06966(6) 0.37861(14)
Ga3 Ga 0.23536(5) 0.08295(6) -0.39829(12)
Ga4 Ga 0.34615(5) -0.17279(6) 0.59097(14)
Ga5 Ga 0.24147(4) -0.10688(6) -0.10238(12)
Ga6 Ga 0.27631(5) -0.29764(6) -0.08158(12)
Ga7 Ga 0.23191(5) -0.22809(6) 0.42260(12)
P1 P 0.23253(10) 0.06490(12) -0.1040(3)
P2 P 0.43785(9) -0.09608(12) 0.4149(3)
P3 P 0.43573(10) 0.08428(12) 0.0802(3)
P4 P 0.23462(10) -0.08970(12) 0.6054(2)
P5 P 0.36066(9) -0.16826(12) -0.0943(3)
P6 P 0.64541(10) -0.14489(13) 0.5789(3)
P7 P 0.30016(11) -0.32010(13) 0.6223(3)
P8 P 0.29142(10) 0.29451(12) -0.1246(2)
F1 F 0.2467(3) -0.2117(3) -0.1671(6)
F2 F 0.2374(3) 0.1878(3) -0.3331(5)
F3 F 0.3071(2) -0.1877(3) 0.4185(7)
F4 F 0.5000 0.0000 0.2617(10)
O1 O 0.2917(3) 0.0860(4) -0.1319(8)
O2 O 0.2040(3) 0.0641(4) -0.2388(7)
O3 O 0.2320(3) -0.0100(4) -0.0417(7)
O4 O 0.2025(3) 0.1177(4) -0.0161(7)
O5 O 0.4961(3) -0.0950(4) 0.4653(7)
O6 O 0.4122(3) -0.0205(3) 0.4192(8)
O7 O 0.4363(3) -0.1269(3) 0.2764(7)
O8 O 0.4086(3) -0.1459(4) 0.5056(8)
O9 O 0.4040(3) 0.1313(4) -0.0134(7)
O10 O 0.4285(3) 0.1144(4) 0.2196(8)
O11 O 0.4133(3) 0.0065(4) 0.0726(8)
O12 O 0.4944(3) 0.0899(4) 0.0367(8)
O13 O 0.2066(3) -0.1446(3) 0.5195(7)
O14 O 0.2949(3) -0.1048(4) 0.6286(7)
O15 O 0.2281(3) -0.0158(3) 0.5415(7)
O16 O 0.2070(3) -0.0914(3) 0.7415(7)
O17 O 0.3450(3) -0.2461(4) -0.0698(8)
O18 O 0.4069(3) -0.1513(4) -0.0006(8)
O19 O 0.3805(3) -0.1559(4) -0.2338(7)
O20 O 0.3146(3) -0.1141(4) -0.0633(7)
O21 O 0.6922(3) -0.0908(3) 0.5586(7)
O22 O 0.6617(3) -0.2234(4) 0.5735(7)
O23 O 0.6195(4) -0.1300(4) 0.7132(9)
O24 O 0.6040(3) -0.1325(4) 0.4724(9)
O25 O 0.3500(3) -0.2721(4) 0.6098(7)
O26 O 0.2500(3) -0.2775(3) 0.5833(7)
O27 O 0.3083(3) -0.3866(3) 0.5354(7)
O28 O 0.2944(3) -0.3474(4) 0.7623(7)
O29 O 0.2834(3) 0.3227(3) -0.2623(7)
O30 O 0.3422(3) 0.2473(4) -0.1182(7)
O31 O 0.3005(3) 0.3603(4) -0.0361(7)
O32 O 0.2435(3) 0.2501(3) -0.0805(7)
O33 O 0.3003(3) 0.1658(4) 0.0962(9)
P3A P 0.56427(10) -0.08428(12) 0.0802(3)
O9A O 0.5960(3) -0.1313(4) -0.0134(7)
O10A O 0.5715(3) -0.1144(4) 0.2196(8)
O11A O 0.5867(3) -0.0065(4) 0.0726(8)
O12A O 0.5056(3) -0.0899(4) 0.0367(8)
Ga1A Ga 0.56250(5) 0.08422(6) 0.11277(13)
Ga2A Ga 0.66161(6) -0.15286(8) -0.0723(3)
Zn1A Zn 0.44064(5) 0.06966(6) 0.37861(14)
Ga4_2 Ga 0.34615(5) -0.17279(6) -0.40903(14)
P2A P 0.56215(9) 0.09608(12) 0.4149(3)
O5A O 0.5039(3) 0.0950(4) 0.4653(7)
O6A O 0.5878(3) 0.0205(3) 0.4192(8)
O7A O 0.5637(3) 0.1269(3) 0.2764(7)
O8A O 0.5914(3) 0.1459(4) 0.5056(8)
P5_2 P 0.36066(9) -0.16826(12) 0.9057(3)
O17_2 O 0.3450(3) -0.2461(4) 0.9302(8)
O18_2 O 0.4069(3) -0.1513(4) 0.9994(8)
O19_2 O 0.3805(3) -0.1559(4) 0.7662(7)
O20_2 O 0.3146(3) -0.1141(4) 0.9367(7)
P4_2 P 0.23462(10) -0.08970(12) -0.3946(2)
O13_2 O 0.2066(3) -0.1446(3) -0.4805(7)
O14_2 O 0.2949(3) -0.1048(4) -0.3714(7)
O15_2 O 0.2281(3) -0.0158(3) -0.4585(7)
O16_2 O 0.2070(3) -0.0914(3) -0.2585(7)
P8C P 0.20858(10) -0.20549(12) 0.1246(2)
O29C O 0.2166(3) -0.1773(3) 0.2623(7)
O30C O 0.1578(3) -0.2527(4) 0.1182(7)
O31C O 0.1995(3) -0.1397(4) 0.0361(7)
O32C O 0.2565(3) -0.2499(3) 0.0805(7)
P1C P 0.26747(10) -0.43510(12) 0.1040(3)
O1C O 0.2083(3) -0.4140(4) 0.1319(8)
O2C O 0.2960(3) -0.4359(4) 0.2388(7)
O3C O 0.2680(3) -0.5100(4) 0.0417(7)
O4C O 0.2975(3) -0.3823(4) 0.0161(7)
P7_2 P 0.30016(11) -0.32010(13) -0.3777(3)
O25_2 O 0.3500(3) -0.2721(4) -0.3902(7)
O26_2 O 0.2500(3) -0.2775(3) -0.4167(7)
O27_2 O 0.3083(3) -0.3866(3) -0.4646(7)
O28_2 O 0.2944(3) -0.3474(4) -0.2377(7)
O33C O 0.1997(3) -0.3342(4) -0.0962(9)
P6A P 0.35459(10) 0.14489(13) 0.5789(3)
O21A O 0.3078(3) 0.0908(3) 0.5586(7)
O22A O 0.3383(3) 0.2234(4) 0.5735(7)
O23A O 0.3805(4) 0.1300(4) 0.7132(9)
O24A O 0.3960(3) 0.1325(4) 0.4724(9)
Ga3C Ga 0.26464(5) -0.41705(6) 0.39829(12)
Ga5C Ga 0.25853(4) -0.60688(6) 0.10238(12)
Ga6C Ga 0.22369(5) 0.20236(6) 0.08158(12)
Ga7_2 Ga 0.23191(5) -0.22809(6) -0.57740(12)
F2C F 0.2626(3) -0.3122(3) 0.3331(5)
O21A_2 O 0.3078(3) 0.0908(3) -0.4414(7)
O27C O 0.1917(3) 0.1134(3) -0.5354(7)
O22B O 0.1617(3) -0.2766(4) 0.4265(7)
Ga7C Ga 0.26809(5) 0.27191(6) -0.42260(12)
Ga3_2 Ga 0.23536(5) 0.08295(6) 0.60171(12)
Ga5_2 Ga 0.24147(4) -0.10688(6) 0.89762(12)
Ga3A Ga 0.76464(5) -0.08295(6) 0.60171(12)
Ga7B Ga 0.73191(5) -0.27191(6) 0.57740(12)
Ga6_2 Ga 0.27631(5) -0.29764(6) 0.91842(12)
Ga5C_2 Ga 0.25853(4) 0.39312(6) 0.10238(12)
O18A O 0.5931(3) 0.1513(4) -0.0006(8)
O1A O 0.7083(3) -0.0860(4) -0.1319(8)
O30A O 0.6578(3) -0.2473(4) -0.1182(7)
O33A O 0.6997(3) -0.1658(4) 0.0962(9)
F3_2 F 0.3071(2) -0.1877(3) -0.5815(7)
O8_2 O 0.4086(3) -0.1459(4) -0.4944(8)
Ga4A Ga 0.65385(5) 0.17279(6) 0.59097(14)
Ga1_2 Ga 0.43750(5) -0.08422(6) 1.11277(13)
Ga2C Ga 0.16161(6) -0.34714(8) 0.0723(3)
Ga3C_2 Ga 0.26464(5) -0.41705(6) -0.60171(12)
Ga7C_2 Ga 0.26809(5) 0.27191(6) 0.57740(12)
O15C O 0.2719(3) -0.5158(3) 0.4585(7)
O21B O 0.1922(3) -0.4092(3) 0.4414(7)
F1C F 0.2533(3) -0.7117(3) 0.1671(6)
O16C O 0.2930(3) -0.5914(3) 0.2585(7)
O20C O 0.1854(3) -0.6141(4) 0.0633(7)
O31_2 O 0.3005(3) -0.6397(4) -0.0361(7)
F1C_2 F 0.2533(3) 0.2883(3) 0.1671(6)
O17C O 0.1550(3) 0.2539(4) 0.0698(8)
O28C O 0.2056(3) 0.1526(4) 0.2377(7)
F2C_2 F 0.2626(3) -0.3122(3) -0.6669(5)
O22B_2 O 0.1617(3) -0.2766(4) -0.5735(7)
O29C_2 O 0.2166(3) -0.1773(3) -0.7377(7)
O34 O 0.1949(4) -0.4513(6) 0.7221(11)
O35 O 0.3301(6) -0.0833(8) 0.1965(15)
O36 O 0.0934(9) -0.5072(10) 0.242(2)
N1 N 0.1901(4) -0.0172(6) 0.2574(12)
H1 H 0.2136 -0.0004 0.1994
H2 H 0.1944 -0.0648 0.2663
H3 H 0.1955 0.0043 0.3339
N2 N 0.0014(5) -0.3367(6) 0.2423(15)
H4 H -0.0059 -0.3624 0.1711
H5 H -0.0259 -0.3403 0.2981
H6 H 0.0313 -0.3535 0.2794
C1 C 0.1360(8) -0.0023(11) 0.213(2)
H7 H 0.1310 -0.0241 0.1281
H8 H 0.1317 0.0497 0.2035
C2 C 0.0925(13) -0.0305(17) 0.305(3)
H9 H 0.0604 -0.0009 0.2984
H10 H 0.1052 -0.0288 0.3946
C3 C 0.0799(14) -0.1088(18) 0.266(4)
H11 H 0.1041 -0.1404 0.3137
H12 H 0.0882 -0.1142 0.1741
C4 C 0.0219(13) -0.1358(16) 0.288(4)
H13 H 0.0012 -0.1293 0.2088
H14 H 0.0052 -0.1071 0.3562
C5 C 0.0210(13) -0.2177(14) 0.328(3)
H15 H 0.0555 -0.2320 0.3642
H16 H -0.0067 -0.2263 0.3930
C6 C 0.0092(10) -0.2602(12) 0.206(2)
H17 H -0.0231 -0.2416 0.1646
H18 H 0.0389 -0.2558 0.1455
N3 N 0.1416(4) -0.2465(6) 0.7130(11)
H19 H 0.1667 -0.2648 0.7657
H20 H 0.1574 -0.2196 0.6518
H21 H 0.1235 -0.2825 0.6756
C7 C 0.1043(10) -0.2012(15) 0.789(3)
H22 H 0.1245 -0.1614 0.8270
H23 H 0.0900 -0.2299 0.8603
C8 C 0.0566(13) -0.1696(18) 0.710(3)
H24 H 0.0314 -0.2068 0.6831
H25 H 0.0686 -0.1422 0.6352
C9 C 0.0320(12) -0.1189(18) 0.821(3)
H26 H 0.0235 -0.1433 0.9017
H27 H 0.0516 -0.0741 0.8351
C10 C -0.0147(11) -0.1130(17) 0.725(3)
H28 H -0.0073 -0.1305 0.6377
H29 H -0.0333 -0.0668 0.7248
C11 C -0.0381(11) -0.171(3) 0.823(4)
H30 H -0.0179 -0.2163 0.8180
H31 H -0.0377 -0.1537 0.9116
C12 C -0.0945(4) -0.1818(6) 0.7749(10)
H32 H -0.1120 -0.1377 0.8045
H33 H -0.0904 -0.1754 0.6816
N4 N -0.1370(4) -0.2325(6) 0.7817(10)
H34 H -0.1505 -0.2346 0.8687
H35 H -0.1654 -0.2176 0.7250
H36 H -0.1247 -0.2789 0.7564
loop_
_geom_bond_atom_site_label_1
_geom_bond_atom_site_label_2
_geom_bond_site_symmetry_1
_geom_bond_site_symmetry_2
Ga1 O7 1_555 1_555
Ga2 O1 1_555 1_555
Zn1 F4 1_555 1_555
Ga3 F2 1_555 1_555
Ga4 F3 1_555 1_555
Ga5 F1 1_555 1_555
Ga6 F1 1_555 1_555
Ga7 F3 1_555 1_555
P1 O1 1_555 1_555
P2 O5 1_555 1_555
P3 O9 1_555 1_555
P4 O13 1_555 1_555
P5 O17 1_555 1_555
P6 O21 1_555 1_555
P7 O25 1_555 1_555
P8 O29 1_555 1_555
F2 Ga7C 1_555 1_555
F4 Zn1A 1_555 1_555
O2 Ga3 1_555 1_555
O3 Ga5 1_555 1_555
O4 P1 1_555 1_555
O5 Zn1 1_555 1_555
O6 P2 1_555 1_555
O7 P2 1_555 1_555
O8 Ga4 1_555 1_555
O9 Ga2 1_555 1_555
O10 P3 1_555 1_555
O11 Ga1 1_555 1_555
O12 P3 1_555 1_555
O13 Ga7 1_555 1_555
O14 Ga4 1_555 1_555
O15 P4 1_555 1_555
O16 P4 1_555 1_555
O17 Ga6 1_555 1_555
O18 Ga1 1_555 1_555
O19 P5 1_555 1_555
O20 Ga5 1_555 1_555
O21 Ga3A 1_555 1_555
O22 P6 1_555 1_555
O23 P6 1_555 1_555
O24 Zn1 1_555 1_555
O25 Ga4 1_555 1_555
O26 Ga7 1_555 1_555
O27 P7 1_555 1_555
O28 P7 1_555 1_555
O29 Ga7C 1_555 1_555
O30 Ga2 1_555 1_555
O31 P8 1_555 1_555
O32 P8 1_555 1_555
O33 Ga2 1_555 1_555
N1 H1 1_555 1_555
H2 N1 1_555 1_555
H3 N1 1_555 1_555
N2 H4 1_555 1_555
H5 N2 1_555 1_555
H6 N2 1_555 1_555
C1 N1 1_555 1_555
H7 C1 1_555 1_555
H8 C1 1_555 1_555
C2 C1 1_555 1_555
H9 C2 1_555 1_555
H10 C2 1_555 1_555
C3 C2 1_555 1_555
H11 C3 1_555 1_555
H12 C3 1_555 1_555
C4 C3 1_555 1_555
H13 C4 1_555 1_555
H14 C4 1_555 1_555
C5 C4 1_555 1_555
H15 C5 1_555 1_555
H16 C5 1_555 1_555
C6 N2 1_555 1_555
H17 C6 1_555 1_555
H18 C6 1_555 1_555
N3 H19 1_555 1_555
H20 N3 1_555 1_555
H21 N3 1_555 1_555
C7 N3 1_555 1_555
H22 C7 1_555 1_555
H23 C7 1_555 1_555
C8 C7 1_555 1_555
H24 C8 1_555 1_555
H25 C8 1_555 1_555
C9 C8 1_555 1_555
H26 C9 1_555 1_555
H27 C9 1_555 1_555
C10 C9 1_555 1_555
H28 C10 1_555 1_555
H29 C10 1_555 1_555
C11 C10 1_555 1_555
H30 C11 1_555 1_555
H31 C11 1_555 1_555
C12 C11 1_555 1_555
H32 C12 1_555 1_555
H33 C12 1_555 1_555
N4 C12 1_555 1_555
H34 N4 1_555 1_555
H35 N4 1_555 1_555
H36 N4 1_555 1_555
P3A O9A 1_555 1_555
O9A Ga2A 1_555 1_555
O10A Zn1 1_555 1_555
O11A P3A 1_555 1_555
O12A Ga1 1_555 1_555
Ga1A O12 1_555 1_555
Ga2A O1A 1_555 1_555
Zn1A O6 1_555 1_555
Ga4_2 O19 1_555 1_555
P2A O5A 1_555 1_555
O5A Zn1A 1_555 1_555
O6A Zn1 1_555 1_555
O7A Ga1A 1_555 1_555
O8A P2A 1_555 1_555
P5_2 O17_2 1_555 1_555
O17_2 Ga6_2 1_555 1_555
O18_2 P5_2 1_555 1_555
O19_2 Ga4 1_555 1_555
O20_2 P5_2 1_555 1_555
P4_2 O13_2 1_555 1_555
O13_2 Ga7_2 1_555 1_555
O14_2 Ga4_2 1_555 1_555
O15_2 Ga3 1_555 1_555
O16_2 Ga5 1_555 1_555
P8C O29C 1_555 1_555
O29C Ga7 1_555 1_555
O30C P8C 1_555 1_555
O31C Ga5 1_555 1_555
O32C Ga6 1_555 1_555
P1C O1C 1_555 1_555
O1C Ga2C 1_555 1_555
O2C P1C 1_555 1_555
O3C P1C 1_555 1_555
O4C Ga6 1_555 1_555
P7_2 O25_2 1_555 1_555
O25_2 Ga4_2 1_555 1_555
O26_2 P7_2 1_555 1_555
O27_2 P7_2 1_555 1_555
O28_2 Ga6 1_555 1_555
O33C Ga6 1_555 1_555
P6A O21A 1_555 1_555
O21A Ga3_2 1_555 1_555
O22A P6A 1_555 1_555
O23A P6A 1_555 1_555
O24A Zn1A 1_555 1_555
Ga3C O27 1_555 1_555
Ga5C O3C 1_555 1_555
Ga6C O4 1_555 1_555
Ga7_2 O26_2 1_555 1_555
F2C Ga7 1_555 1_555
O21A_2 Ga3 1_555 1_555
O27C Ga3 1_555 1_555
O22B Ga7 1_555 1_555
Ga3_2 O15 1_555 1_555
Ga5_2 O16 1_555 1_555
Ga7B O22 1_555 1_555
Ga6_2 O28 1_555 1_555
Ga5C_2 O31 1_555 1_555
O18A Ga1A 1_555 1_555
O30A Ga2A 1_555 1_555
O33A Ga2A 1_555 1_555
F3_2 Ga4_2 1_555 1_555
O8_2 Ga4_2 1_555 1_555
Ga4A O8A 1_555 1_555
Ga1_2 O18_2 1_555 1_555
Ga2C O30C 1_555 1_555
Ga3C_2 O27_2 1_555 1_555
Ga7C_2 O22A 1_555 1_555
O15C Ga3C 1_555 1_555
O21B Ga3C 1_555 1_555
F1C Ga5C 1_555 1_555
O16C Ga5C 1_555 1_555
O20C Ga5C 1_555 1_555
O31_2 Ga5C 1_555 1_555
F1C_2 Ga6C 1_555 1_555
O17C Ga6C 1_555 1_555
O28C Ga6C 1_555 1_555
F2C_2 Ga7_2 1_555 1_555
O22B_2 Ga7_2 1_555 1_555
O29C_2 Ga7_2 1_555 1_555
P1 O2 1_555 1_555
P1 O3 1_555 1_555
P2 O8 1_555 1_555
P3 O11 1_555 1_555
P4 O14 1_555 1_555
P5 O18 1_555 1_555
P5 O20 1_555 1_555
P6 O24 1_555 1_555
P7 O26 1_555 1_555
P8 O30 1_555 1_555
O10 Zn1A 1_555 1_555
O32 Ga6C 1_555 1_555
O33 Ga6C 1_555 1_555
C5 C6 1_555 1_555
P3A O10A 1_555 1_555
P3A O12A 1_555 1_555
O11A Ga1A 1_555 1_555
P2A O6A 1_555 1_555
P2A O7A 1_555 1_555
P5_2 O19_2 1_555 1_555
O20_2 Ga5_2 1_555 1_555
P4_2 O14_2 1_555 1_555
P4_2 O15_2 1_555 1_555
P4_2 O16_2 1_555 1_555
P8C O31C 1_555 1_555
P8C O32C 1_555 1_555
P1C O4C 1_555 1_555
O2C Ga3C 1_555 1_555
P7_2 O28_2 1_555 1_555
O33C Ga2C 1_555 1_555
P6A O24A 1_555 1_555
Ga3C F2C 1_555 1_555
Ga7_2 F3_2 1_555 1_555
Ga5C_2 F1C_2 1_555 1_555
Ga3C_2 F2C_2 1_555 1_555

#END
