
#######################################################################
#
#                 Cambridge Crystallographic Data Centre
#                                CCDC 
#
#######################################################################
#
# If this CIF has been generated from an entry in the Cambridge 
# Structural Database, then it will include bibliographic, chemical, 
# crystal, experimental, refinement or atomic coordinate data resulting 
# from the CCDC's data processing and validation procedures.
#
#######################################################################

data_IFOSIG
_chemical_formula_moiety         '(C8 H10 Ce1 O21 Zr1)n'
_symmetry_cell_setting           trigonal
_symmetry_space_group_name_H-M   'P 32 2 1'
_symmetry_Int_Tables_number      154
_space_group_name_Hall           'P 32 2"'
loop_
_symmetry_equiv_pos_site_id
_symmetry_equiv_pos_as_xyz
1 x,y,z
2 -y,x-y,2/3+z
3 -x+y,-x,1/3+z
4 y,x,-z
5 x-y,-y,1/3-z
6 -x,-x+y,2/3-z
_cell_length_a                   9.1034(4)
_cell_length_b                   9.1034(4)
_cell_length_c                   25.4708(9)
_cell_angle_alpha                90
_cell_angle_beta                 90
_cell_angle_gamma                120
_cell_volume                     1828.02
loop_
_atom_site_label
_atom_site_type_symbol
_atom_site_fract_x
_atom_site_fract_y
_atom_site_fract_z
O1 O 0.480(4) 0.480(4) 0.5000
O2 O 0.277(4) 0.742(3) 0.4946(9)
O3 O 0.303(3) 0.492(3) 0.7562(8)
Ce1 Ce 0.49987(11) 0.0000 0.6667
Zr1 Zr 1.00006(17) 0.00006(17) 0.5000
O4 O 0.8117(16) 0.1480(15) 0.6303(4)
O5 O 0.5520(14) -0.1310(15) 0.5845(4)
O6 O 0.9856(14) 0.1459(14) 0.5681(4)
O7 O 0.7357(11) -0.1254(14) 0.5269(3)
O8 O 0.2638(11) 0.1245(12) 0.5260(3)
O9 O 0.0135(14) -0.1493(14) 0.5677(4)
O10 O 0.4462(12) 0.1298(14) 0.5852(4)
O11 O 0.1872(17) -0.1465(14) 0.6315(4)
O12 O 0.337(2) -0.3208(15) 0.6682(5)
C1 C 0.8456(15) 0.0866(17) 0.5916(5)
C2 C 0.6956(17) -0.0689(16) 0.5662(4)
C3 C 0.3019(19) 0.0695(17) 0.5666(4)
C4 C 0.1552(18) -0.0911(17) 0.5905(6)
Zr1_2 Zr 0.00006(17) 0.00006(17) 0.5000
Zr1B Zr 1.00000(24) -0.00006(17) 0.8333
Zr1B_2 Zr -0.00000(24) -0.00006(17) 0.8333
O4D O 0.6637(22) -0.1480(15) 0.7030(4)
O5D O 0.6830(21) 0.1310(15) 0.7488(4)
O6D O 0.8397(20) -0.1459(14) 0.7652(4)
O6C O 1.1459(14) -0.0144(14) 0.4319(4)
O7D O 0.8611(18) 0.1254(14) 0.8064(3)
O7C O 0.8746(14) -0.2643(11) 0.4731(3)
O8D O 0.1393(16) -0.1245(12) 0.8073(3)
O8_2 O 1.2638(11) 0.1245(12) 0.5260(3)
O8C O 1.1245(12) 0.2638(11) 0.4740(3)
O9D O 0.1628(20) 0.1493(14) 0.7656(4)
O9_2 O 1.0135(14) -0.1493(14) 0.5677(4)
O9C O 0.8507(14) 0.0135(14) 0.4323(4)
O10D O 0.3164(18) -0.1298(14) 0.7481(4)
O11D O 0.3337(22) 0.1465(14) 0.7018(4)
O12D O 0.6578(25) 0.3208(15) 0.6651(5)
C1D C 0.7590(23) -0.0866(17) 0.7417(5)
C2D C 0.7645(23) 0.0689(16) 0.7671(4)
C3D C 0.2324(25) -0.0695(17) 0.7667(4)
C4D C 0.2463(25) 0.0911(17) 0.7428(6)
loop_
_geom_bond_atom_site_label_1
_geom_bond_atom_site_label_2
_geom_bond_site_symmetry_1
_geom_bond_site_symmetry_2
Ce1 O4 1_555 1_555
Zr1 O6 1_555 1_555
O4 C1 1_555 1_555
O5 Ce1 1_555 1_555
O6 C1 1_555 1_555
O7 Zr1 1_555 1_555
O8 C3 1_555 1_555
O9 C4 1_555 1_555
O10 Ce1 1_555 1_555
O11 Ce1 1_555 1_555
O12 Ce1 1_555 1_555
C1 C2 1_555 1_555
C2 O5 1_555 1_555
C3 O10 1_555 1_555
C4 O11 1_555 1_555
Zr1_2 O8 1_555 1_555
Zr1B O6D 1_555 1_555
Zr1B_2 O8D 1_555 1_555
O4D Ce1 1_555 1_555
O5D Ce1 1_555 1_555
O6D C1D 1_555 1_555
O6C Zr1 1_555 1_555
O7D Zr1B 1_555 1_555
O7C Zr1 1_555 1_555
O8D C3D 1_555 1_555
O8_2 Zr1 1_555 1_555
O8C Zr1 1_555 1_555
O9D Zr1B_2 1_555 1_555
O9_2 Zr1 1_555 1_555
O9C Zr1 1_555 1_555
O10D Ce1 1_555 1_555
O11D Ce1 1_555 1_555
O12D Ce1 1_555 1_555
C1D O4D 1_555 1_555
C2D O5D 1_555 1_555
C3D O10D 1_555 1_555
C4D O9D 1_555 1_555
O7 C2 1_555 1_555
O9 Zr1_2 1_555 1_555
C3 C4 1_555 1_555
O7D C2D 1_555 1_555
O11D C4D 1_555 1_555
C1D C2D 1_555 1_555
C3D C4D 1_555 1_555

#END
