
#######################################################################
#
#                 Cambridge Crystallographic Data Centre
#                                CCDC 
#
#######################################################################
#
# If this CIF has been generated from an entry in the Cambridge 
# Structural Database, then it will include bibliographic, chemical, 
# crystal, experimental, refinement or atomic coordinate data resulting 
# from the CCDC's data processing and validation procedures.
#
#######################################################################

data_INEPEY
_chemical_formula_moiety         '(C36 H48 N24 O24 Zn6)n'
_symmetry_cell_setting           monoclinic
_symmetry_space_group_name_H-M   'P 21/m'
_symmetry_Int_Tables_number      11
_space_group_name_Hall           '-P 2yb'
loop_
_symmetry_equiv_pos_site_id
_symmetry_equiv_pos_as_xyz
1 x,y,z
2 -x,1/2+y,-z
3 -x,-y,-z
4 x,1/2-y,z
_cell_length_a                   10.2293(3)
_cell_length_b                   34.4803(10)
_cell_length_c                   10.7355(3)
_cell_angle_alpha                90
_cell_angle_beta                 109.985(3)
_cell_angle_gamma                90
_cell_volume                     3558.5
loop_
_atom_site_label
_atom_site_type_symbol
_atom_site_fract_x
_atom_site_fract_y
_atom_site_fract_z
O2 O 0.575(3) -0.0053(10) 0.478(4)
O3 O 0.507(6) -0.0249(17) 0.348(6)
O4 O 0.2471(4) 0.04104(13) 0.8369(4)
C1 C 0.3587(7) 0.0312(2) 0.8173(11)
H1 H 0.4111 0.0489 0.7856
C2 C 0.3277(12) -0.0374(3) 0.8998(13)
H2 H 0.2467 -0.0252 0.9127
H3 H 0.3907 -0.0471 0.9849
H4 H 0.2968 -0.0590 0.8374
C3 C 0.5296(10) -0.0216(3) 0.8277(13)
H5 H 0.5723 0.0004 0.7984
H6 H 0.5083 -0.0421 0.7604
H7 H 0.5942 -0.0316 0.9116
N1 N 0.4004(8) -0.0088(2) 0.8466(10)
C4 C -0.4295(5) 0.11748(17) 0.5246(5)
C5 C 0.0446(5) 0.13250(18) 0.4472(5)
C6 C 0.0215(5) 0.17776(14) 0.8453(5)
C7 C 0.0421(5) 0.21492(15) 0.9222(5)
C8 C 0.1095(5) 0.21496(14) 1.0602(5)
C9 C 0.1325(6) 0.17782(15) 1.1383(5)
C10 C 0.0071(8) 0.2500 0.8549(7)
H8 H -0.0412 0.2500 0.7620
C11 C 0.1433(8) 0.2500 1.1282(7)
H9 H 0.1898 0.2500 1.2215
C12 C -0.0967(5) 0.06999(15) 0.8426(5)
C13 C -0.0394(5) 0.03481(14) 0.9279(5)
C14 C -0.1100(5) 0.00008(14) 0.8823(5)
H10 H -0.1855 0.0001 0.8007
C15 C -0.0736(5) -0.03457(15) 0.9523(5)
C16 C -0.1584(5) -0.06995(14) 0.8925(5)
C17 C 0.4312(6) 0.14330(17) 0.9929(6)
H11 H 0.3674 0.1504 1.0358
C18 C 0.6568(8) 0.1519(3) 0.9715(9)
H12 H 0.6502 0.1244 0.9470
H13 H 0.7492 0.1572 1.0361
H14 H 0.6420 0.1678 0.8923
C19 C 0.5835(8) 0.1925(2) 1.1278(8)
H15 H 0.6049 0.2163 1.0885
H16 H 0.6638 0.1852 1.2051
H17 H 0.5028 0.1970 1.1554
N2 N -0.3014(4) 0.11731(14) 0.5184(4)
N3 N -0.3206(5) 0.11653(19) 0.3866(5)
N4 N -0.4521(5) 0.11611(19) 0.3191(5)
N5 N -0.5255(4) 0.11689(15) 0.4041(4)
N6 N -0.4540(5) 0.12172(19) 0.6402(5)
H18 H -0.3789 0.1129 0.7079
H19 H -0.5301 0.1074 0.6359
N7 N 0.0303(4) 0.12419(14) 0.5648(4)
N8 N 0.1562(4) 0.11135(13) 0.6432(4)
N9 N 0.2426(4) 0.11134(13) 0.5790(4)
N10 N 0.1763(4) 0.12455(13) 0.4543(4)
N11 N -0.0563(5) 0.14633(19) 0.3407(5)
H20 H -0.1338 0.1315 0.3252
H21 H -0.0276 0.1452 0.2694
N12 N 0.5519(5) 0.16103(16) 1.0293(5)
O5 O 0.1235(4) 0.15594(10) 0.8670(3)
O6 O -0.0984(4) 0.17244(10) 0.7576(4)
O7 O 0.0317(4) 0.15520(11) 1.1202(4)
O8 O 0.2541(4) 0.17227(11) 1.2234(4)
O9 O -0.0236(3) 0.08396(10) 0.7772(3)
O10 O -0.2144(4) 0.08145(11) 0.8311(4)
O11 O -0.1881(4) -0.07359(10) 0.7688(3)
O12 O -0.1993(4) -0.09288(10) 0.9607(3)
O13 O 0.3947(4) 0.11776(11) 0.9056(4)
Zn1 Zn -0.11793(6) 0.126130(18) 0.64898(6)
Zn2 Zn 0.19428(6) 0.097944(17) 0.84884(6)
Zn3 Zn 0.26865(5) 0.122792(17) 0.31482(5)
C6C C 0.0215(5) 0.32224(14) 0.8453(5)
C7C C 0.0421(5) 0.28508(15) 0.9222(5)
C8C C 0.1095(5) 0.28504(14) 1.0602(5)
C9C C 0.1325(6) 0.32218(15) 1.1383(5)
O5C O 0.1235(4) 0.34406(10) 0.8670(3)
O6C O -0.0984(4) 0.32756(10) 0.7576(4)
O7C O 0.0317(4) 0.34480(11) 1.1202(4)
O8C O 0.2541(4) 0.32773(11) 1.2234(4)
C12B C 0.0967(5) -0.06999(15) 1.1574(5)
C13B C 0.0394(5) -0.03481(14) 1.0721(5)
C14B C 0.1100(5) -0.00008(14) 1.1177(5)
H10B H 0.1855 -0.0001 1.1993
C15B C 0.0736(5) 0.03457(15) 1.0477(5)
C16B C 0.1584(5) 0.06995(14) 1.1075(5)
O9B O 0.0236(3) -0.08396(10) 1.2228(3)
O10B O 0.2144(4) -0.08145(11) 1.1689(4)
O11B O 0.1881(4) 0.07359(10) 1.2312(3)
O12B O 0.1993(4) 0.09288(10) 1.0393(3)
O4B O -0.2471(4) -0.04104(13) 0.1631(4)
C1B C -0.3587(7) -0.0312(2) 0.1827(11)
H1B H -0.4111 -0.0489 0.2144
C2B C -0.3277(12) 0.0374(3) 0.1002(13)
H2B H -0.2467 0.0252 0.0873
H3B H -0.3907 0.0471 0.0151
H4B H -0.2968 0.0590 0.1626
C3B C -0.5296(10) 0.0216(3) 0.1723(13)
H5B H -0.5723 -0.0004 0.2016
H6B H -0.5083 0.0421 0.2396
H7B H -0.5942 0.0316 0.0884
N1B N -0.4004(8) 0.0088(2) 0.1534(10)
C4B C 0.4295(5) -0.11748(17) 0.4754(5)
C5B C -0.0446(5) -0.13250(18) 0.5528(5)
C17B C -0.4312(6) -0.14330(17) 0.0071(6)
H11B H -0.3674 -0.1504 -0.0358
C18B C -0.6568(8) -0.1519(3) 0.0285(9)
H12B H -0.6502 -0.1244 0.0530
H13B H -0.7492 -0.1572 -0.0361
H14B H -0.6420 -0.1678 0.1077
C19B C -0.5835(8) -0.1925(2) -0.1278(8)
H15B H -0.6049 -0.2163 -0.0885
H16B H -0.6638 -0.1852 -0.2051
H17B H -0.5028 -0.1970 -0.1554
N2B N 0.3014(4) -0.11731(14) 0.4816(4)
N3B N 0.3206(5) -0.11653(19) 0.6134(5)
N4B N 0.4521(5) -0.11611(19) 0.6809(5)
N5B N 0.5255(4) -0.11689(15) 0.5959(4)
N6B N 0.4540(5) -0.12172(19) 0.3598(5)
H18B H 0.3789 -0.1129 0.2921
H19B H 0.5301 -0.1074 0.3641
N7B N -0.0303(4) -0.12419(14) 0.4352(4)
N8B N -0.1562(4) -0.11135(13) 0.3568(4)
N9B N -0.2426(4) -0.11134(13) 0.4210(4)
N10B N -0.1763(4) -0.12455(13) 0.5457(4)
N11B N 0.0563(5) -0.14633(19) 0.6593(5)
H20B H 0.1338 -0.1315 0.6748
H21B H 0.0276 -0.1452 0.7306
N12B N -0.5519(5) -0.16103(16) -0.0293(5)
O13B O -0.3947(4) -0.11776(11) 0.0944(4)
Zn1B Zn 0.11793(6) -0.126130(18) 0.35102(6)
Zn2B Zn -0.19428(6) -0.097944(17) 0.15116(6)
Zn3B Zn -0.26865(5) -0.122792(17) 0.68518(5)
N5_2 N 0.4745(4) 0.11689(15) 0.4041(4)
N5B_2 N -0.4745(4) -0.11689(15) 0.5959(4)
O5B O -0.1235(4) -0.15594(10) 0.1330(3)
O6B O 0.0984(4) -0.17244(10) 0.2424(4)
O8_2 O 0.2541(4) 0.17227(11) 0.2234(4)
O8B O -0.2541(4) -0.17227(11) 0.7766(4)
O9B_2 O 0.0236(3) -0.08396(10) 0.2228(3)
O11B_2 O 0.1881(4) 0.07359(10) 0.2312(3)
O12_2 O -0.1993(4) -0.09288(10) -0.0393(3)
Zn1B_2 Zn 0.11793(6) -0.126130(18) 1.35102(6)
Zn1C Zn -0.11793(6) 0.373870(18) 0.64898(6)
Zn2B_2 Zn -0.19428(6) -0.097944(17) 1.15116(6)
Zn2C Zn 0.19428(6) 0.402056(17) 0.84884(6)
Zn3_2 Zn -0.73135(5) 0.122792(17) 0.31482(5)
Zn3_3 Zn 0.26865(5) 0.122792(17) 1.31482(5)
Zn3B_2 Zn 0.73135(5) -0.122792(17) 0.68518(5)
Zn3C Zn 0.26865(5) 0.377208(17) 1.31482(5)
O14 O -0.051(2) -0.0017(7) 0.506(3)
O1 O 0.7678(16) 0.0145(5) 0.5338(16)
loop_
_geom_bond_atom_site_label_1
_geom_bond_atom_site_label_2
_geom_bond_site_symmetry_1
_geom_bond_site_symmetry_2
O4 C1 1_555 1_555
C1 H1 1_555 1_555
C2 H2 1_555 1_555
H3 C2 1_555 1_555
H4 C2 1_555 1_555
C3 H5 1_555 1_555
H6 C3 1_555 1_555
H7 C3 1_555 1_555
N1 C1 1_555 1_555
C4 N2 1_555 1_555
C5 N7 1_555 1_555
C6 C7 1_555 1_555
C7 C8 1_555 1_555
C8 C9 1_555 1_555
C9 O7 1_555 1_555
C10 C7 1_555 1_555
H8 C10 1_555 1_555
C11 C8 1_555 1_555
H9 C11 1_555 1_555
C12 C13 1_555 1_555
C13 C14 1_555 1_555
C14 H10 1_555 1_555
C15 C14 1_555 1_555
C16 C15 1_555 1_555
C17 H11 1_555 1_555
C18 H12 1_555 1_555
H13 C18 1_555 1_555
H14 C18 1_555 1_555
C19 H15 1_555 1_555
H16 C19 1_555 1_555
H17 C19 1_555 1_555
N2 N3 1_555 1_555
N3 N4 1_555 1_555
N4 N5 1_555 1_555
N5 C4 1_555 1_555
N6 C4 1_555 1_555
H18 N6 1_555 1_555
H19 N6 1_555 1_555
N7 N8 1_555 1_555
N8 N9 1_555 1_555
N9 N10 1_555 1_555
N10 C5 1_555 1_555
N11 C5 1_555 1_555
H20 N11 1_555 1_555
H21 N11 1_555 1_555
N12 C17 1_555 1_555
O5 C6 1_555 1_555
O6 C6 1_555 1_555
O8 C9 1_555 1_555
O9 C12 1_555 1_555
O10 C12 1_555 1_555
O11 C16 1_555 1_555
O12 C16 1_555 1_555
O13 C17 1_555 1_555
Zn1 N2 1_555 1_555
Zn2 O4 1_555 1_555
Zn3 N10 1_555 1_555
C6C C7C 1_555 1_555
C7C C10 1_555 1_555
C8C C11 1_555 1_555
C9C C8C 1_555 1_555
O5C C6C 1_555 1_555
O6C C6C 1_555 1_555
O7C C9C 1_555 1_555
O8C C9C 1_555 1_555
C12B C13B 1_555 1_555
C13B C15 1_555 1_555
C14B C13B 1_555 1_555
H10B C14B 1_555 1_555
C15B C13 1_555 1_555
C16B C15B 1_555 1_555
O9B C12B 1_555 1_555
O10B C12B 1_555 1_555
O11B C16B 1_555 1_555
O12B Zn2 1_555 1_555
O4B C1B 1_555 1_555
C1B H1B 1_555 1_555
C2B H2B 1_555 1_555
H3B C2B 1_555 1_555
H4B C2B 1_555 1_555
C3B H5B 1_555 1_555
H6B C3B 1_555 1_555
H7B C3B 1_555 1_555
N1B C1B 1_555 1_555
C4B N2B 1_555 1_555
C5B N7B 1_555 1_555
C17B H11B 1_555 1_555
C18B H12B 1_555 1_555
H13B C18B 1_555 1_555
H14B C18B 1_555 1_555
C19B H15B 1_555 1_555
H16B C19B 1_555 1_555
H17B C19B 1_555 1_555
N2B N3B 1_555 1_555
N3B N4B 1_555 1_555
N4B N5B 1_555 1_555
N5B C4B 1_555 1_555
N6B C4B 1_555 1_555
H18B N6B 1_555 1_555
H19B N6B 1_555 1_555
N7B N8B 1_555 1_555
N8B N9B 1_555 1_555
N9B N10B 1_555 1_555
N10B C5B 1_555 1_555
N11B C5B 1_555 1_555
H20B N11B 1_555 1_555
H21B N11B 1_555 1_555
N12B C17B 1_555 1_555
O13B C17B 1_555 1_555
Zn1B N2B 1_555 1_555
Zn2B O4B 1_555 1_555
Zn3B O11 1_555 1_555
N5_2 Zn3 1_555 1_555
N5B_2 Zn3B 1_555 1_555
O5B Zn2B 1_555 1_555
O6B Zn1B 1_555 1_555
O8_2 Zn3 1_555 1_555
O8B Zn3B 1_555 1_555
O9B_2 Zn1B 1_555 1_555
O11B_2 Zn3 1_555 1_555
O12_2 Zn2B 1_555 1_555
Zn1B_2 O9B 1_555 1_555
Zn1C O6C 1_555 1_555
Zn2B_2 O12 1_555 1_555
Zn2C O5C 1_555 1_555
Zn3_2 N5 1_555 1_555
Zn3_3 O8 1_555 1_555
Zn3B_2 N5B 1_555 1_555
Zn3C O8C 1_555 1_555
C2 N1 1_555 1_555
C3 N1 1_555 1_555
C18 N12 1_555 1_555
C19 N12 1_555 1_555
N7 Zn1 1_555 1_555
N8 Zn2 1_555 1_555
O5 Zn2 1_555 1_555
O6 Zn1 1_555 1_555
O9 Zn1 1_555 1_555
O9 Zn2 1_555 1_555
O13 Zn2 1_555 1_555
C7C C8C 1_555 1_555
C14B C15B 1_555 1_555
C16B O12B 1_555 1_555
O9B Zn2B_2 1_555 1_555
O11B Zn3_3 1_555 1_555
C2B N1B 1_555 1_555
C3B N1B 1_555 1_555
C18B N12B 1_555 1_555
C19B N12B 1_555 1_555
N7B Zn1B 1_555 1_555
N8B Zn2B 1_555 1_555
N10B Zn3B 1_555 1_555
O13B Zn2B 1_555 1_555
Zn2B O9B_2 1_555 1_555

#END
