
#######################################################################
#
#                 Cambridge Crystallographic Data Centre
#                                CCDC 
#
#######################################################################
#
# If this CIF has been generated from an entry in the Cambridge 
# Structural Database, then it will include bibliographic, chemical, 
# crystal, experimental, refinement or atomic coordinate data resulting 
# from the CCDC's data processing and validation procedures.
#
#######################################################################

data_INEXOQ
_chemical_formula_moiety         '(C28 H26 Mn2 N2 O12)n'
_symmetry_cell_setting           monoclinic
_symmetry_space_group_name_H-M   'P 21/c'
_symmetry_Int_Tables_number      14
_space_group_name_Hall           '-P 2ybc'
loop_
_symmetry_equiv_pos_site_id
_symmetry_equiv_pos_as_xyz
1 x,y,z
2 -x,1/2+y,1/2-z
3 -x,-y,-z
4 x,1/2-y,1/2+z
_cell_length_a                   10.6150(16)
_cell_length_b                   9.6419(14)
_cell_length_c                   28.480(4)
_cell_angle_alpha                90
_cell_angle_beta                 94.819(3)
_cell_angle_gamma                90
_cell_volume                     2904.59
loop_
_atom_site_label
_atom_site_type_symbol
_atom_site_fract_x
_atom_site_fract_y
_atom_site_fract_z
Mn1 Mn 1.55212(4) 0.19468(5) 1.09425(2)
Mn2 Mn 0.76770(4) 0.26041(5) 0.69087(2)
O1 O 1.35143(19) 0.1487(2) 1.09054(7)
O2 O 1.5864(2) -0.0066(2) 1.06123(8)
H1 H 1.6566 0.0015 1.0423
H2 H 1.5124 -0.0338 1.0417
O3 O 1.3438(2) 0.0051(3) 1.02878(8)
O4 O 0.9044(2) 0.2153(3) 1.14198(8)
O5 O 0.7484(2) 0.2343(3) 1.08571(8)
O6 O 0.4728(2) 0.6201(2) 0.86720(9)
O7 O 0.2975(2) 0.5557(2) 0.82418(8)
O8 O 0.3877(2) -0.1042(2) 0.83569(7)
O9 O 0.2414(2) 0.0299(2) 0.80041(8)
O10 O 0.9107(2) 0.2099(3) 0.75057(8)
O11 O 0.7190(2) 0.2571(3) 0.76477(8)
O12 O 1.5167(3) 0.2961(3) 1.02548(10)
N1 N 1.3391(3) 0.3993(3) 0.99237(10)
C1 C 1.2951(3) 0.0922(3) 1.05434(10)
C2 C 1.1609(3) 0.1344(3) 1.04084(10)
C3 C 1.0792(3) 0.1648(3) 1.07546(10)
H3 H 1.1089 0.1636 1.1071
C4 C 0.9540(3) 0.1967(3) 1.06252(10)
C5 C 0.9118(3) 0.2053(3) 1.01461(10)
H4 H 0.8281 0.2293 1.0061
C6 C 0.9916(3) 0.1790(3) 0.97957(10)
C7 C 1.1164(3) 0.1396(3) 0.99386(10)
H5 H 1.1706 0.1164 0.9711
C8 C 0.8619(3) 0.2171(3) 1.09947(11)
C9 C 0.9487(3) 0.1879(3) 0.92823(10)
C10 C 0.8212(3) 0.2082(3) 0.91309(10)
H6 H 0.7632 0.2169 0.9356
C11 C 0.7773(3) 0.2159(3) 0.86545(10)
C12 C 0.8642(3) 0.2062(3) 0.83139(11)
C13 C 0.9914(3) 0.1830(4) 0.84621(11)
H7 H 1.0495 0.1735 0.8237
C14 C 1.0326(3) 0.1741(4) 0.89301(11)
H8 H 1.1179 0.1585 0.9016
C15 C 0.6379(3) 0.2343(3) 0.85398(10)
C16 C 0.5846(3) 0.3659(3) 0.85524(10)
H9 H 0.6361 0.4417 0.8634
C17 C 0.4548(3) 0.3865(3) 0.84440(10)
C18 C 0.3779(3) 0.2723(3) 0.83303(11)
H10 H 0.2919 0.2848 0.8251
C19 C 0.4296(3) 0.1397(3) 0.83356(10)
C20 C 0.5594(3) 0.1215(3) 0.84351(10)
H11 H 0.5937 0.0328 0.8431
C21 C 0.4038(3) 0.5314(3) 0.84537(11)
C22 C 0.3469(3) 0.0157(3) 0.82223(10)
C23 C 0.8287(3) 0.2247(3) 0.77952(11)
C24 C 1.4417(4) 0.3225(4) 0.99136(14)
H12 H 1.4588 0.2853 0.9624
C25 C 1.3069(5) 0.4647(5) 1.03562(16)
H13 H 1.2297 0.5160 1.0297
H14 H 1.2960 0.3948 1.0589
H15 H 1.3736 0.5265 1.0469
C26 C 1.2607(4) 0.4307(5) 0.94911(16)
H16 H 1.1905 0.4873 0.9564
H17 H 1.3102 0.4796 0.9277
H18 H 1.2298 0.3458 0.9347
Mn1_2 Mn 0.55212(4) 0.19468(5) 1.09425(2)
Mn1B Mn 0.44788(4) -0.19468(5) 0.90575(2)
Mn1B_2 Mn 0.44788(4) 0.80532(5) 0.90575(2)
Mn2A Mn 0.23230(4) -0.23959(5) 0.80913(2)
Mn2A_2 Mn 0.23230(4) 0.76041(5) 0.80913(2)
Mn2C Mn 0.76770(4) 0.23959(5) 1.19087(2)
O4C O 0.9044(2) 0.2847(3) 0.64198(8)
O5_2 O 1.7484(2) 0.2343(3) 1.08571(8)
O6B O 1.5272(2) 0.3799(2) 1.13280(9)
O7A O 0.7025(2) 0.0557(2) 0.67582(8)
O8A O 0.6123(2) 0.3958(2) 0.66431(7)
O8B O 1.6123(2) 0.1042(2) 1.16431(7)
N2 N 0.1667(5) 0.2066(5) 0.72487(15)
H19 H 0.0966 0.1920 0.7392
H20 H 0.2308 0.1805 0.7451
C27 C 0.1632(9) 0.1083(9) 0.6862(2)
H21 H 0.1556 0.0159 0.6983
H22 H 0.0920 0.1282 0.6642
H23 H 0.2397 0.1156 0.6707
C28 C 0.1777(8) 0.3556(7) 0.7203(3)
H24 H 0.1780 0.3979 0.7508
H25 H 0.2551 0.3775 0.7067
H26 H 0.1074 0.3901 0.7002
loop_
_geom_bond_atom_site_label_1
_geom_bond_atom_site_label_2
_geom_bond_site_symmetry_1
_geom_bond_site_symmetry_2
Mn1 O1 1_555 1_555
Mn2 O10 1_555 1_555
O1 C1 1_555 1_555
O2 Mn1 1_555 1_555
H1 O2 1_555 1_555
H2 O2 1_555 1_555
O3 C1 1_555 1_555
O4 C8 1_555 1_555
O5 C8 1_555 1_555
O6 C21 1_555 1_555
O7 C21 1_555 1_555
O8 C22 1_555 1_555
O9 C22 1_555 1_555
O10 C23 1_555 1_555
O11 Mn2 1_555 1_555
O12 Mn1 1_555 1_555
N1 C24 1_555 1_555
C1 C2 1_555 1_555
C2 C3 1_555 1_555
C3 H3 1_555 1_555
C4 C3 1_555 1_555
C5 C4 1_555 1_555
H4 C5 1_555 1_555
C6 C5 1_555 1_555
C7 C2 1_555 1_555
H5 C7 1_555 1_555
C8 C4 1_555 1_555
C9 C6 1_555 1_555
C10 C9 1_555 1_555
H6 C10 1_555 1_555
C11 C10 1_555 1_555
C12 C11 1_555 1_555
C13 C12 1_555 1_555
H7 C13 1_555 1_555
C14 C9 1_555 1_555
H8 C14 1_555 1_555
C15 C11 1_555 1_555
C16 C15 1_555 1_555
H9 C16 1_555 1_555
C17 C16 1_555 1_555
C18 C17 1_555 1_555
H10 C18 1_555 1_555
C19 C18 1_555 1_555
C20 C15 1_555 1_555
H11 C20 1_555 1_555
C21 C17 1_555 1_555
C22 C19 1_555 1_555
C23 O11 1_555 1_555
C24 O12 1_555 1_555
H12 C24 1_555 1_555
C25 N1 1_555 1_555
H13 C25 1_555 1_555
H14 C25 1_555 1_555
H15 C25 1_555 1_555
C26 N1 1_555 1_555
H16 C26 1_555 1_555
H17 C26 1_555 1_555
H18 C26 1_555 1_555
N2 H19 1_555 1_555
H20 N2 1_555 1_555
C27 N2 1_555 1_555
H21 C27 1_555 1_555
H22 C27 1_555 1_555
H23 C27 1_555 1_555
C28 N2 1_555 1_555
H24 C28 1_555 1_555
H25 C28 1_555 1_555
H26 C28 1_555 1_555
Mn1_2 O5 1_555 1_555
Mn1B O8 1_555 1_555
Mn1B_2 O6 1_555 1_555
Mn2A O8 1_555 1_555
Mn2A_2 O7 1_555 1_555
Mn2C O4 1_555 1_555
O4C Mn2 1_555 1_555
O5_2 Mn1 1_555 1_555
O6B Mn1 1_555 1_555
O7A Mn2 1_555 1_555
O8A Mn2 1_555 1_555
O8B Mn1 1_555 1_555
C6 C7 1_555 1_555
C12 C23 1_555 1_555
C13 C14 1_555 1_555
C19 C20 1_555 1_555

#END
