
#######################################################################
#
#                 Cambridge Crystallographic Data Centre
#                                CCDC 
#
#######################################################################
#
# If this CIF has been generated from an entry in the Cambridge 
# Structural Database, then it will include bibliographic, chemical, 
# crystal, experimental, refinement or atomic coordinate data resulting 
# from the CCDC's data processing and validation procedures.
#
#######################################################################

data_INEXIK
_chemical_formula_moiety         '(C25 H19 Co2 N1 O11)n'
_symmetry_cell_setting           monoclinic
_symmetry_space_group_name_H-M   'P 21/c'
_symmetry_Int_Tables_number      14
_space_group_name_Hall           '-P 2ybc'
loop_
_symmetry_equiv_pos_site_id
_symmetry_equiv_pos_as_xyz
1 x,y,z
2 -x,1/2+y,1/2-z
3 -x,-y,-z
4 x,1/2-y,1/2+z
_cell_length_a                   10.230(3)
_cell_length_b                   9.468(3)
_cell_length_c                   28.006(9)
_cell_angle_alpha                90
_cell_angle_beta                 98.048(6)
_cell_angle_gamma                90
_cell_volume                     2685.88
loop_
_atom_site_label
_atom_site_type_symbol
_atom_site_fract_x
_atom_site_fract_y
_atom_site_fract_z
Co1 Co 0.77973(12) 1.38336(14) 0.69352(4)
Co2 Co 0.55644(12) 1.43970(15) 0.59720(4)
O1 O 0.5327(8) 1.2463(8) 0.6264(3)
O2 O 0.5785(9) 1.6409(10) 0.5642(3)
H1 H 0.5015 1.6514 0.5694
H2 H 0.5886 1.6337 0.5347
O3 O 0.7099(7) 1.1869(8) 0.6778(3)
O4 O 0.7825(7) 0.6527(8) 0.7059(3)
O5 O 0.6326(7) 0.5183(7) 0.6660(2)
O6 O 0.2877(8) 0.8780(10) 0.7350(3)
O7 O 0.0812(7) 0.8486(9) 0.7452(2)
O8 O -0.4103(7) 0.6259(10) 0.4642(3)
O9 O -0.3479(6) 0.5388(8) 0.3992(2)
O10 O 0.1006(7) 0.6078(9) 0.3590(2)
O11 O 0.2626(7) 0.6108(10) 0.4219(3)
C1 C 0.6030(10) 1.1590(11) 0.6520(4)
C2 C 0.5518(9) 1.0101(10) 0.6533(4)
C3 C 0.6357(10) 0.8988(11) 0.6678(4)
H3 H 0.7255 0.9144 0.6770
C4 C 0.5837(10) 0.7629(11) 0.6687(3)
C5 C 0.4491(10) 0.7417(11) 0.6579(3)
H4 H 0.4149 0.6513 0.6601
C6 C 0.3639(9) 0.8537(11) 0.6437(4)
C7 C 0.4157(10) 0.9846(12) 0.6403(4)
H5 H 0.3603 1.0591 0.6293
C8 C 0.6739(10) 0.6395(10) 0.6811(3)
C9 C 0.2190(9) 0.8246(11) 0.6314(4)
C10 C 0.1307(10) 0.8252(11) 0.6649(3)
C11 C -0.0018(10) 0.7915(14) 0.6487(3)
H6 H -0.0611 0.7926 0.6710
C12 C -0.0497(10) 0.7563(15) 0.6008(4)
H7 H -0.1380 0.7331 0.5916
C13 C 0.0392(9) 0.7572(11) 0.5674(3)
C14 C 0.1692(9) 0.7928(12) 0.5838(3)
H8 H 0.2278 0.7956 0.5612
C15 C 0.1712(10) 0.8528(11) 0.7180(3)
C16 C -0.0052(9) 0.7130(12) 0.5166(4)
C17 C -0.1377(10) 0.6819(12) 0.5005(4)
H9 H -0.2000 0.6965 0.5212
C18 C -0.1779(10) 0.6308(11) 0.4553(3)
C19 C -0.0875(9) 0.6087(11) 0.4232(3)
H10 H -0.1157 0.5726 0.3926
C20 C 0.0444(10) 0.6405(12) 0.4370(3)
C21 C 0.0849(9) 0.6890(11) 0.4844(4)
H11 H 0.1741 0.7055 0.4944
C22 C 0.1466(10) 0.6159(11) 0.4042(4)
C23 C -0.3209(10) 0.5951(11) 0.4379(4)
Co1_2 Co 0.77973(12) 0.38336(14) 0.69352(4)
Co1A Co 0.22027(12) 0.88336(14) 0.80648(4)
Co1B Co 0.22027(12) 0.61664(14) 0.30648(4)
Co2_2 Co 0.55644(12) 0.43970(15) 0.59720(4)
Co2B Co -0.55644(12) 0.56030(15) 0.40280(4)
Co2B_2 Co 0.44356(12) 0.56030(15) 0.40280(4)
O5_2 O 0.6326(7) 1.5183(7) 0.6660(2)
O6A O 0.7123(8) 1.3780(10) 0.7650(3)
O7A O 0.9188(7) 1.3486(9) 0.7548(2)
O8B O 0.4103(7) 1.3741(10) 0.5358(3)
O9B O 0.3479(6) 1.4612(8) 0.6008(2)
O10B O 0.8994(7) 1.3922(9) 0.6410(2)
O11B O 0.7374(7) 1.3892(10) 0.5781(3)
N1 N 0.8425(14) 0.8419(14) 0.7891(4)
H12 H 0.8585 0.8078 0.7609
H13 H 0.9151 0.8307 0.8103
C24 C 0.812(2) 0.989(2) 0.7841(7)
H14 H 0.7813 1.0228 0.8130
H15 H 0.7444 1.0030 0.7571
H16 H 0.8898 1.0404 0.7790
C25 C 0.737(3) 0.764(3) 0.8049(8)
H17 H 0.6560 0.7841 0.7840
H18 H 0.7273 0.7916 0.8373
H19 H 0.7552 0.6650 0.8041
loop_
_geom_bond_atom_site_label_1
_geom_bond_atom_site_label_2
_geom_bond_site_symmetry_1
_geom_bond_site_symmetry_2
Co1 O3 1_555 1_555
Co2 O1 1_555 1_555
O1 C1 1_555 1_555
O2 Co2 1_555 1_555
H1 O2 1_555 1_555
H2 O2 1_555 1_555
O3 C1 1_555 1_555
O4 C8 1_555 1_555
O5 C8 1_555 1_555
O6 C15 1_555 1_555
O7 C15 1_555 1_555
O8 C23 1_555 1_555
O9 C23 1_555 1_555
O10 C22 1_555 1_555
O11 C22 1_555 1_555
C1 C2 1_555 1_555
C2 C3 1_555 1_555
C3 H3 1_555 1_555
C4 C3 1_555 1_555
C5 C4 1_555 1_555
H4 C5 1_555 1_555
C6 C5 1_555 1_555
C7 C2 1_555 1_555
H5 C7 1_555 1_555
C8 C4 1_555 1_555
C9 C6 1_555 1_555
C10 C9 1_555 1_555
C11 C10 1_555 1_555
H6 C11 1_555 1_555
C12 C11 1_555 1_555
H7 C12 1_555 1_555
C13 C12 1_555 1_555
C14 C9 1_555 1_555
H8 C14 1_555 1_555
C15 C10 1_555 1_555
C16 C13 1_555 1_555
C17 C16 1_555 1_555
H9 C17 1_555 1_555
C18 C17 1_555 1_555
C19 C18 1_555 1_555
H10 C19 1_555 1_555
C20 C19 1_555 1_555
C21 C16 1_555 1_555
H11 C21 1_555 1_555
C22 C20 1_555 1_555
C23 C18 1_555 1_555
N1 H12 1_555 1_555
H13 N1 1_555 1_555
C24 N1 1_555 1_555
H14 C24 1_555 1_555
H15 C24 1_555 1_555
H16 C24 1_555 1_555
C25 N1 1_555 1_555
H17 C25 1_555 1_555
H18 C25 1_555 1_555
H19 C25 1_555 1_555
Co1_2 O5 1_555 1_555
Co1A O6 1_555 1_555
Co1B O10 1_555 1_555
Co2_2 O5 1_555 1_555
Co2B O8 1_555 1_555
Co2B_2 O11 1_555 1_555
O5_2 Co1 1_555 1_555
O6A Co1 1_555 1_555
O7A Co1 1_555 1_555
O8B Co2 1_555 1_555
O9B Co2 1_555 1_555
O10B Co1 1_555 1_555
O11B Co2 1_555 1_555
Co2 O5_2 1_555 1_555
O7 Co1A 1_555 1_555
O9 Co2B 1_555 1_555
C6 C7 1_555 1_555
C13 C14 1_555 1_555
C20 C21 1_555 1_555

#END
