
#######################################################################
#
#                 Cambridge Crystallographic Data Centre
#                                CCDC 
#
#######################################################################
#
# If this CIF has been generated from an entry in the Cambridge 
# Structural Database, then it will include bibliographic, chemical, 
# crystal, experimental, refinement or atomic coordinate data resulting 
# from the CCDC's data processing and validation procedures.
#
#######################################################################

data_INEXEG
_chemical_formula_moiety         '(C29 H26 Co2 N2 O11)n'
_symmetry_cell_setting           monoclinic
_symmetry_space_group_name_H-M   'P 21/n'
_symmetry_Int_Tables_number      14
_space_group_name_Hall           '-P 2yn'
loop_
_symmetry_equiv_pos_site_id
_symmetry_equiv_pos_as_xyz
1 x,y,z
2 1/2-x,1/2+y,1/2-z
3 -x,-y,-z
4 1/2+x,1/2-y,1/2+z
_cell_length_a                   10.162(2)
_cell_length_b                   15.986(4)
_cell_length_c                   23.971(6)
_cell_angle_alpha                90
_cell_angle_beta                 99.582(4)
_cell_angle_gamma                90
_cell_volume                     3839.75
loop_
_atom_site_label
_atom_site_type_symbol
_atom_site_fract_x
_atom_site_fract_y
_atom_site_fract_z
Co1 Co 1.16900(4) 0.49825(3) 0.66578(2)
Co2 Co 0.98648(5) 0.61151(3) 0.75450(2)
O1 O 0.9951(3) 0.44422(18) 0.63900(14)
O2 O 0.9049(3) 0.5273(2) 0.69528(13)
O3 O 0.4064(3) 0.52590(19) 0.68027(14)
O4 O 0.2937(2) 0.42929(17) 0.62922(12)
O5 O 0.4866(4) 0.17974(17) 0.66629(12)
O6 O 0.6464(4) 0.0893(2) 0.68479(13)
O7 O 0.6134(3) -0.02442(16) 0.30258(11)
O8 O 0.7068(3) 0.04886(19) 0.24208(11)
O9 O 0.8614(3) 0.33199(16) 0.28078(10)
O10 O 0.8533(3) 0.38731(14) 0.36527(11)
O11 O 0.8342(7) 0.6865(4) 0.7104(3)
N1 N 0.6922(12) 0.7888(7) 0.6866(5)
C1 C 0.8987(3) 0.4697(2) 0.66071(15)
C2 C 0.7671(3) 0.4263(2) 0.64447(14)
C3 C 0.7623(3) 0.3496(2) 0.61688(14)
H1 H 0.8405 0.3257 0.6089
C4 C 0.6413(3) 0.3084(2) 0.60116(13)
C5 C 0.5249(3) 0.3459(2) 0.61233(13)
H2 H 0.4434 0.3190 0.6017
C6 C 0.5290(3) 0.4229(2) 0.63904(14)
C7 C 0.6510(3) 0.4620(2) 0.65624(14)
H3 H 0.6546 0.5125 0.6758
C8 C 0.4032(4) 0.4628(2) 0.65085(15)
C9 C 0.6388(4) 0.2273(2) 0.56948(14)
C10 C 0.6721(4) 0.2294(2) 0.51589(14)
H4 H 0.6903 0.2809 0.5009
C11 C 0.6797(4) 0.1586(2) 0.48350(15)
C12 C 0.6572(6) 0.0821(2) 0.50787(18)
H5 H 0.6641 0.0330 0.4877
C13 C 0.6249(6) 0.0779(2) 0.56150(18)
H6 H 0.6098 0.0261 0.5768
C14 C 0.6145(4) 0.1496(2) 0.59282(16)
C15 C 0.5797(5) 0.1393(2) 0.65217(17)
C16 C 0.7109(4) 0.1649(2) 0.42457(15)
C17 C 0.7641(4) 0.2384(2) 0.40593(15)
H7 H 0.7818 0.2831 0.4308
C18 C 0.7912(3) 0.2465(2) 0.35113(14)
C19 C 0.7650(4) 0.1789(2) 0.31413(14)
H8 H 0.7840 0.1831 0.2776
C20 C 0.7110(4) 0.10577(19) 0.33121(14)
C21 C 0.6836(4) 0.0989(2) 0.38597(15)
H9 H 0.6466 0.0497 0.3971
C22 C 0.8398(3) 0.3272(2) 0.33056(15)
C23 C 0.6739(4) 0.0368(2) 0.28881(14)
C24 C 0.7974(6) 0.7585(3) 0.7104(2)
C25 C 0.5968(15) 0.7275(12) 0.6625(8)
H10 H 0.6336 0.6725 0.6701
H11 H 0.5755 0.7359 0.6223
H12 H 0.5172 0.7329 0.6789
C26 C 0.9141(10) 0.8226(6) 0.7314(4)
H13 H 0.9312 0.8236 0.7720
H14 H 0.8884 0.8774 0.7174
H15 H 0.9934 0.8055 0.7176
C27 C 0.6548(8) 0.8802(5) 0.6930(4)
H16 H 0.5687 0.8908 0.6709
H17 H 0.6521 0.8918 0.7321
H18 H 0.7200 0.9155 0.6801
Co1_2 Co 0.16900(4) 0.49825(3) 0.66578(2)
Co1B Co 0.83100(4) 0.50175(3) 0.33422(2)
Co1C Co 0.66900(4) 0.00175(3) 0.16578(2)
Co2A Co 0.51352(5) 0.11151(3) 0.74550(2)
Co2B Co 1.01352(5) 0.38849(3) 0.24550(2)
Co2C Co 0.48648(5) -0.11151(3) 0.25450(2)
O3_2 O 1.4064(3) 0.52590(19) 0.68027(14)
O4_2 O 1.2937(2) 0.42929(17) 0.62922(12)
O5A O 1.0134(4) 0.67974(17) 0.83371(12)
O6A O 0.8536(4) 0.5893(2) 0.81521(13)
O7C O 1.1134(3) 0.52442(16) 0.80258(11)
O8C O 1.2068(3) 0.45114(19) 0.74208(11)
O9B O 1.1386(3) 0.66801(16) 0.71922(10)
O10B O 1.1467(3) 0.61269(14) 0.63473(11)
N3 N 0.6731(11) 0.3378(7) 0.1596(5)
H28 H 0.6672 0.3547 0.1239
H29 H 0.7534 0.3520 0.1779
C30 C 0.5617(16) 0.3842(10) 0.1879(7)
H30 H 0.5023 0.4140 0.1593
H31 H 0.6037 0.4230 0.2159
H32 H 0.5121 0.3437 0.2054
C31 C 0.6593(11) 0.2503(6) 0.1607(4)
H33 H 0.5910 0.2330 0.1303
H34 H 0.6351 0.2337 0.1962
H35 H 0.7424 0.2245 0.1565
loop_
_geom_bond_atom_site_label_1
_geom_bond_atom_site_label_2
_geom_bond_site_symmetry_1
_geom_bond_site_symmetry_2
Co1 O1 1_555 1_555
Co2 O2 1_555 1_555
O1 C1 1_555 1_555
O2 C1 1_555 1_555
O3 C8 1_555 1_555
O4 C8 1_555 1_555
O5 C15 1_555 1_555
O6 C15 1_555 1_555
O7 C23 1_555 1_555
O8 C23 1_555 1_555
O9 C22 1_555 1_555
O10 C22 1_555 1_555
O11 Co2 1_555 1_555
N1 C24 1_555 1_555
C1 C2 1_555 1_555
C2 C3 1_555 1_555
C3 H1 1_555 1_555
C4 C3 1_555 1_555
C5 C4 1_555 1_555
H2 C5 1_555 1_555
C6 C5 1_555 1_555
C7 C2 1_555 1_555
H3 C7 1_555 1_555
C8 C6 1_555 1_555
C9 C4 1_555 1_555
C10 C9 1_555 1_555
H4 C10 1_555 1_555
C11 C10 1_555 1_555
C12 C11 1_555 1_555
H5 C12 1_555 1_555
C13 C12 1_555 1_555
H6 C13 1_555 1_555
C14 C9 1_555 1_555
C15 C14 1_555 1_555
C16 C11 1_555 1_555
C17 C16 1_555 1_555
H7 C17 1_555 1_555
C18 C17 1_555 1_555
C19 C18 1_555 1_555
H8 C19 1_555 1_555
C20 C19 1_555 1_555
C21 C16 1_555 1_555
H9 C21 1_555 1_555
C22 C18 1_555 1_555
C23 C20 1_555 1_555
C24 O11 1_555 1_555
C25 N1 1_555 1_555
H10 C25 1_555 1_555
H11 C25 1_555 1_555
H12 C25 1_555 1_555
C26 C24 1_555 1_555
H13 C26 1_555 1_555
H14 C26 1_555 1_555
H15 C26 1_555 1_555
C27 N1 1_555 1_555
H16 C27 1_555 1_555
H17 C27 1_555 1_555
H18 C27 1_555 1_555
N3 H28 1_555 1_555
H29 N3 1_555 1_555
C30 N3 1_555 1_555
H30 C30 1_555 1_555
H31 C30 1_555 1_555
H32 C30 1_555 1_555
C31 N3 1_555 1_555
H33 C31 1_555 1_555
H34 C31 1_555 1_555
H35 C31 1_555 1_555
Co1_2 O3 1_555 1_555
Co1B O10 1_555 1_555
Co1C O8 1_555 1_555
Co2A O5 1_555 1_555
Co2B O9 1_555 1_555
Co2C O7 1_555 1_555
O3_2 Co1 1_555 1_555
O4_2 Co1 1_555 1_555
O5A Co2 1_555 1_555
O6A Co2 1_555 1_555
O7C Co2 1_555 1_555
O8C Co1 1_555 1_555
O9B Co2 1_555 1_555
O10B Co1 1_555 1_555
O4 Co1_2 1_555 1_555
O6 Co2A 1_555 1_555
C6 C7 1_555 1_555
C13 C14 1_555 1_555
C20 C21 1_555 1_555

#END
