
#######################################################################
#
#                 Cambridge Crystallographic Data Centre
#                                CCDC 
#
#######################################################################
#
# If this CIF has been generated from an entry in the Cambridge 
# Structural Database, then it will include bibliographic, chemical, 
# crystal, experimental, refinement or atomic coordinate data resulting 
# from the CCDC's data processing and validation procedures.
#
#######################################################################

data_IYOSUM
_chemical_formula_moiety         '(C30 H26 Dy1 N5 O8)n'
_symmetry_cell_setting           monoclinic
_symmetry_space_group_name_H-M   'C 2/c'
_symmetry_Int_Tables_number      15
_space_group_name_Hall           '-C 2yc'
loop_
_symmetry_equiv_pos_site_id
_symmetry_equiv_pos_as_xyz
1 x,y,z
2 -x,y,1/2-z
3 1/2+x,1/2+y,z
4 1/2-x,1/2+y,1/2-z
5 -x,-y,-z
6 x,-y,1/2+z
7 1/2-x,1/2-y,-z
8 1/2+x,1/2-y,1/2+z
_cell_length_a                   33.138(10)
_cell_length_b                   9.893(3)
_cell_length_c                   26.959(8)
_cell_angle_alpha                90
_cell_angle_beta                 106.751(5)
_cell_angle_gamma                90
_cell_volume                     8463.05
loop_
_atom_site_label
_atom_site_type_symbol
_atom_site_fract_x
_atom_site_fract_y
_atom_site_fract_z
_atom_site_U_iso_or_equiv
_atom_site_thermal_displace_type
Dy1 Dy 0.05278(2) 0.11324(2) 0.50190(2) 0.0199 Uani
O1 O 0.11743(9) 0.1819(3) 0.56821(12) 0.0304 Uani
O2 O 0.12118(10) 0.0069(4) 0.52020(13) 0.0400 Uani
O3 O 0.47512(11) -0.4063(4) 0.52923(14) 0.0371 Uani
O4 O 0.52258(10) -0.2444(4) 0.55245(14) 0.0399 Uani
O5 O 0.44095(9) 0.4800(3) 0.92472(12) 0.0299 Uani
O6 O 0.49249(10) 0.3256(4) 0.93747(13) 0.0378 Uani
N1 N 0.33318(13) 0.1234(5) 0.69899(19) 0.0476 Uani
C1 C 0.45832(15) 0.3791(5) 0.91174(19) 0.0310 Uani
C2 C 0.18400(14) 0.0757(5) 0.58299(18) 0.0294 Uani
C3 C 0.13787(14) 0.0894(5) 0.55624(18) 0.0261 Uani
N2 N 0.33942(13) -0.0143(5) 0.62961(18) 0.0477 Uani
C4 C 0.27083(15) 0.0621(6) 0.6310(2) 0.0374 Uani
C5 C 0.48733(15) -0.2966(6) 0.55119(19) 0.0386 Uani
C6 C 0.39522(16) 0.3474(6) 0.8336(2) 0.0440 Uani
H1 H 0.3811 0.4163 0.8466 0.0530 Uiso
C7 C 0.31689(15) 0.0563(6) 0.6541(2) 0.0422 Uani
C8 C 0.20314(15) 0.1600(6) 0.6249(2) 0.0459 Uani
H2 H 0.1866 0.2230 0.6372 0.0550 Uiso
C9 C 0.47599(17) -0.1164(6) 0.6112(3) 0.0572 Uani
H3 H 0.5046 -0.0899 0.6175 0.0690 Uiso
C10 C 0.43619(15) 0.3115(6) 0.86107(19) 0.0387 Uani
C11 C 0.45992(15) -0.2215(6) 0.5771(2) 0.0441 Uani
C12 C 0.25181(15) -0.0231(6) 0.5900(2) 0.0476 Uani
H4 H 0.2684 -0.0857 0.5777 0.0570 Uiso
C13 C 0.24609(17) 0.1515(7) 0.6484(2) 0.0554 Uani
H5 H 0.2587 0.2085 0.6770 0.0670 Uiso
O7 O 0.07134(14) 0.3341(5) 0.48221(19) 0.0661 Uani
O8 O 0.07106(15) 0.1004(6) 0.42258(17) 0.0783 Uani
N3 N 0.40074(14) 0.0514(6) 0.6959(2) 0.0684 Uani
C14 C 0.37541(16) 0.1171(7) 0.7179(3) 0.0566 Uani
C15 C 0.20864(16) -0.0172(7) 0.5670(2) 0.0529 Uani
H6 H 0.1958 -0.0782 0.5399 0.0640 Uiso
C16 C 0.45653(17) 0.2098(7) 0.8426(2) 0.0543 Uani
H7 H 0.4842 0.1831 0.8618 0.0650 Uiso
C17 C 0.41748(15) -0.2582(6) 0.5673(2) 0.0451 Uani
H8 H 0.4065 -0.3313 0.5445 0.0540 Uiso
C18 C 0.39145(16) -0.1883(6) 0.5905(2) 0.0509 Uani
H9 H 0.3625 -0.2112 0.5830 0.0610 Uiso
C19 C 0.37472(16) 0.2833(7) 0.7872(2) 0.0520 Uani
H10 H 0.3467 0.3077 0.7687 0.0620 Uiso
C20 C 0.43658(17) 0.1469(8) 0.7962(3) 0.0715 Uani
H11 H 0.4508 0.0782 0.7832 0.0860 Uiso
C21 C 0.38102(16) -0.0128(7) 0.6517(2) 0.0580 Uani
C22 C 0.39554(16) 0.1839(7) 0.7683(2) 0.0577 Uani
C23 C 0.40835(17) -0.0846(7) 0.6249(2) 0.0566 Uani
C24 C 0.45082(17) -0.0508(8) 0.6356(3) 0.0663 Uani
H12 H 0.4623 0.0183 0.6600 0.0800 Uiso
N4 N 0.1055(2) 0.5099(7) 0.5252(3) 0.0858 Uani
C25 C 0.0739(3) 0.4339(8) 0.5042(4) 0.0796 Uani
C26 C 0.0614(3) 0.1114(10) 0.3810(3) 0.0851 Uani
C27 C 0.1473(3) 0.4672(10) 0.5205(4) 0.1008 Uani
H13 H 0.1687 0.5331 0.5381 0.1510 Uiso
H14 H 0.1545 0.3782 0.5365 0.1510 Uiso
H15 H 0.1461 0.4623 0.4838 0.1510 Uiso
C28 C 0.1064(5) 0.6322(12) 0.5551(5) 0.1562 Uani
H16 H 0.1352 0.6679 0.5661 0.2340 Uiso
H17 H 0.0876 0.6996 0.5337 0.2340 Uiso
H18 H 0.0971 0.6118 0.5856 0.2340 Uiso
N5 N 0.0826(4) 0.0529(12) 0.3506(4) 0.0690 Uani
C29 C 0.0626(5) -0.0241(19) 0.3028(6) 0.1016 Uani
H19 H 0.0844 -0.0564 0.2876 0.1520 Uiso
H20 H 0.0473 -0.1015 0.3111 0.1520 Uiso
H21 H 0.0429 0.0346 0.2779 0.1520 Uiso
C30 C 0.1266(6) 0.069(2) 0.3666(7) 0.1156 Uani
H22 H 0.1336 0.1598 0.3811 0.1740 Uiso
H23 H 0.1376 0.0571 0.3369 0.1740 Uiso
H24 H 0.1392 0.0014 0.3931 0.1740 Uiso
Dy1B Dy 0.55278(2) -0.38676(2) 0.50190(2) 0.0199 Uani
Dy1C Dy 0.44722(2) 0.61324(2) 0.99810(2) 0.0199 Uani
Dy1F Dy 0.44722(2) -0.61324(2) 0.49810(2) 0.0199 Uani
Dy1G Dy 0.55278(2) 0.38676(2) 1.00190(2) 0.0199 Uani
O3F O 0.02488(11) -0.0937(4) 0.47077(14) 0.0371 Uani
O4B O 0.02258(10) 0.2556(4) 0.55245(14) 0.0399 Uani
O5C O 0.05905(9) -0.0200(3) 0.57528(12) 0.0299 Uani
O6G O -0.00751(10) 0.1744(4) 0.43747(13) 0.0378 Uani
loop_
_atom_site_aniso_label
_atom_site_aniso_U_11
_atom_site_aniso_U_22
_atom_site_aniso_U_33
_atom_site_aniso_U_23
_atom_site_aniso_U_13
_atom_site_aniso_U_12
Dy1 0.01248(11) 0.03041(14) 0.01533(13) 0.00149(8) 0.00179(8) 0.00058(8)
O1 0.0172(15) 0.034(2) 0.0339(18) -0.0037(15) -0.0024(13) 0.0011(13)
O2 0.0153(16) 0.063(3) 0.0378(19) -0.0221(18) 0.0015(14) 0.0030(16)
O3 0.0237 0.042 0.038 -0.0218 -0.0031 0.0102
O4 0.0226 0.046 0.047 -0.0149 0.0033 0.0083
O5 0.0206 0.036 0.0286 -0.0103 -0.0002 0.0043
O6 0.022 0.037 0.042 -0.0174 -0.0104 0.0076
N1 0.017(2) 0.068(4) 0.046(3) -0.038(2) -0.0099(19) 0.010(2)
C1 0.019 0.035 0.03 -0.012 -0.0074 0.0006
C2 0.015(2) 0.040(3) 0.030(2) -0.007(2) 0.0015(18) 0.0015(19)
C3 0.016(2) 0.037(3) 0.024(2) -0.0013(19) 0.0039(18) 0.0002(18)
N2 0.017(2) 0.063(3) 0.053(3) -0.039(2) -0.0062(19) 0.008(2)
C4 0.016(2) 0.054(3) 0.036(3) -0.019(2) -0.0023(19) 0.004(2)
C5 0.024 0.048 0.037 -0.018 -0.002 0.013
C6 0.024 0.062 0.035 -0.028 -0.009 0.013
C7 0.017(2) 0.059(4) 0.042(3) -0.031(3) -0.005(2) 0.004(2)
C8 0.021(2) 0.060(4) 0.049(3) -0.034(3) -0.002(2) 0.009(2)
C9 0.017 0.072 0.075 -0.051 0.001 0.003
C10 0.024 0.049 0.034 -0.022 -0.006 0.009
C11 0.022 0.05 0.053 -0.031 -0.001 0.011
C12 0.019(2) 0.067(4) 0.051(3) -0.039(3) 0.001(2) 0.005(2)
C13 0.025(3) 0.073(4) 0.053(4) -0.048(3) -0.013(2) 0.014(3)
O7 0.048(3) 0.054(3) 0.078(3) 0.035(3) -0.011(2) -0.023(2)
O8 0.046(3) 0.170(6) 0.025(2) 0.008(3) 0.020(2) 0.013(3)
N3 0.020(2) 0.097(4) 0.074(4) -0.066(3) -0.009(2) 0.013(3)
C14 0.016(2) 0.075(5) 0.064(4) -0.050(3) -0.012(2) 0.011(3)
C15 0.022(3) 0.079(5) 0.050(3) -0.033(3) -0.002(2) 0.006(3)
C16 0.023 0.07 0.053 -0.032 -0.016 0.012
C17 0.021 0.054 0.054 -0.036 0.001 0.002
C18 0.016(2) 0.065(4) 0.061(4) -0.039(3) -0.006(2) 0.008(2)
C19 0.018(2) 0.075(4) 0.050(3) -0.038(3) -0.011(2) 0.015(3)
C20 0.021 0.102 0.074 -0.069 -0.014 0.018
C21 0.016(2) 0.080(5) 0.065(4) -0.048(4) -0.009(2) 0.012(3)
C22 0.019(2) 0.084(5) 0.057(4) -0.046(3) -0.010(2) 0.013(3)
C23 0.019(3) 0.084(5) 0.058(4) -0.047(3) -0.003(2) 0.010(3)
C24 0.024 0.085 0.077 -0.067 -0.006 0.006
N4 0.056(4) 0.056(4) 0.124(6) 0.031(4) -0.008(4) -0.006(3)
C25 0.077(6) 0.043(4) 0.110(7) 0.027(5) 0.013(5) -0.006(4)
C26 0.062(5) 0.152(10) 0.043(5) -0.001(4) 0.018(4) 0.033(5)
C27 0.063(6) 0.082(7) 0.134(8) 0.018(6) -0.009(5) -0.016(5)
C28 0.243(19) 0.084(9) 0.127(11) 0.011(7) 0.030(11) 0.024(9)
N5 0.107(10) 0.079(8) 0.038(5) 0.006(5) 0.048(6) 0.008(7)
C29 0.104(14) 0.108(14) 0.089(11) -0.009(10) 0.022(10) -0.003(11)
C30 0.103(15) 0.156(18) 0.092(12) 0.035(12) 0.035(11) 0.004(13)
Dy1B 0.01248 0.03041 0.01533 0.00149 0.00179 0.00058
Dy1C 0.01248 0.03041 0.01533 -0.00149 0.00179 -0.00058
Dy1F 0.01248 0.03041 0.01533 0.00149 0.00179 0.00058
Dy1G 0.01248 0.03041 0.01533 -0.00149 0.00179 -0.00058
O3F 0.0237 0.042 0.038 -0.0218 -0.0031 0.0102
O4B 0.0226 0.046 0.047 -0.0149 0.0033 0.0083
O5C 0.0206 0.036 0.0286 0.0103 -0.0002 -0.0043
O6G 0.022 0.037 0.042 0.0174 -0.0104 -0.0076
loop_
_geom_bond_atom_site_label_1
_geom_bond_atom_site_label_2
_geom_bond_site_symmetry_1
_geom_bond_site_symmetry_2
Dy1 O1 1_555 1_555
O1 C3 1_555 1_555
O2 Dy1 1_555 1_555
O3 C5 1_555 1_555
O4 C5 1_555 1_555
O5 C1 1_555 1_555
O6 C1 1_555 1_555
N1 C7 1_555 1_555
C1 C10 1_555 1_555
C2 C3 1_555 1_555
C3 O2 1_555 1_555
N2 C7 1_555 1_555
C4 C7 1_555 1_555
C5 C11 1_555 1_555
C6 H1 1_555 1_555
C8 C2 1_555 1_555
H2 C8 1_555 1_555
C9 H3 1_555 1_555
C10 C6 1_555 1_555
C11 C9 1_555 1_555
C12 C4 1_555 1_555
H4 C12 1_555 1_555
C13 C4 1_555 1_555
H5 C13 1_555 1_555
O7 Dy1 1_555 1_555
O8 Dy1 1_555 1_555
N3 C14 1_555 1_555
C14 N1 1_555 1_555
C15 C2 1_555 1_555
H6 C15 1_555 1_555
C16 C10 1_555 1_555
H7 C16 1_555 1_555
C17 C11 1_555 1_555
H8 C17 1_555 1_555
C18 C17 1_555 1_555
H9 C18 1_555 1_555
C19 C6 1_555 1_555
H10 C19 1_555 1_555
C20 C16 1_555 1_555
H11 C20 1_555 1_555
C21 N2 1_555 1_555
C22 C14 1_555 1_555
C23 C18 1_555 1_555
C24 C9 1_555 1_555
H12 C24 1_555 1_555
N4 C25 1_555 1_555
C25 O7 1_555 1_555
C26 O8 1_555 1_555
C27 N4 1_555 1_555
H13 C27 1_555 1_555
H14 C27 1_555 1_555
H15 C27 1_555 1_555
C28 N4 1_555 1_555
H16 C28 1_555 1_555
H17 C28 1_555 1_555
H18 C28 1_555 1_555
N5 C26 1_555 1_555
C29 N5 1_555 1_555
H19 C29 1_555 1_555
H20 C29 1_555 1_555
H21 C29 1_555 1_555
C30 N5 1_555 1_555
H22 C30 1_555 1_555
H23 C30 1_555 1_555
H24 C30 1_555 1_555
Dy1B O4 1_555 1_555
Dy1C O5 1_555 1_555
Dy1F O3 1_555 1_555
Dy1G O6 1_555 1_555
O3F Dy1 1_555 1_555
O4B Dy1 1_555 1_555
O5C Dy1 1_555 1_555
O6G Dy1 1_555 1_555
C8 C13 1_555 1_555
C12 C15 1_555 1_555
N3 C21 1_555 1_555
C19 C22 1_555 1_555
C20 C22 1_555 1_555
C21 C23 1_555 1_555
C23 C24 1_555 1_555

#END
