
#######################################################################
#
#                 Cambridge Crystallographic Data Centre
#                                CCDC 
#
#######################################################################
#
# If this CIF has been generated from an entry in the Cambridge 
# Structural Database, then it will include bibliographic, chemical, 
# crystal, experimental, refinement or atomic coordinate data resulting 
# from the CCDC's data processing and validation procedures.
#
#######################################################################

data_IYOTAT
_chemical_formula_moiety         '(C30 H26 N5 O8 Tb1)n'
_symmetry_cell_setting           monoclinic
_symmetry_space_group_name_H-M   'C 2/c'
_symmetry_Int_Tables_number      15
_space_group_name_Hall           '-C 2yc'
loop_
_symmetry_equiv_pos_site_id
_symmetry_equiv_pos_as_xyz
1 x,y,z
2 -x,y,1/2-z
3 1/2+x,1/2+y,z
4 1/2-x,1/2+y,1/2-z
5 -x,-y,-z
6 x,-y,1/2+z
7 1/2-x,1/2-y,-z
8 1/2+x,1/2-y,1/2+z
_cell_length_a                   33.137(7)
_cell_length_b                   9.7145(17)
_cell_length_c                   27.314(6)
_cell_angle_alpha                90
_cell_angle_beta                 107.642(3)
_cell_angle_gamma                90
_cell_volume                     8379.1
loop_
_atom_site_label
_atom_site_type_symbol
_atom_site_fract_x
_atom_site_fract_y
_atom_site_fract_z
_atom_site_U_iso_or_equiv
_atom_site_thermal_displace_type
Tb1 Tb 0.05228(2) 0.11314(2) 0.50238(2) 0.0239 Uani
C1 C 0.37642(15) 0.1146(6) 0.7176(2) 0.0551 Uani
N1 N 0.34090(12) -0.0187(5) 0.62906(16) 0.0442 Uani
N2 N 0.33419(12) 0.1211(5) 0.69799(17) 0.0484 Uani
C2 C 0.31809(14) 0.0524(6) 0.65359(19) 0.0432 Uani
N3 N 0.40183(13) 0.0497(6) 0.69557(19) 0.0620 Uani
C3 C 0.38248(15) -0.0155(6) 0.6517(2) 0.0508 Uani
O1 O 0.11825(9) 0.1799(3) 0.56719(12) 0.0346 Uani
O2 O 0.47755(10) -0.4034(3) 0.52943(12) 0.0357 Uani
O3 O 0.52448(10) -0.2382(4) 0.55432(14) 0.0419 Uani
O4 O 0.12095(9) 0.0015(4) 0.51977(13) 0.0421 Uani
O5 O 0.07093(12) 0.3372(4) 0.48285(16) 0.0585 Uani
C4 C 0.13832(13) 0.0854(5) 0.55488(17) 0.0305 Uani
C5 C 0.46147(14) -0.2199(5) 0.57813(19) 0.0393 Uani
C6 C 0.48944(14) -0.2918(5) 0.55206(19) 0.0391 Uani
C7 C 0.39362(14) -0.1899(6) 0.5909(2) 0.0454 Uani
H1 H 0.3645 -0.2133 0.5827 0.0540 Uiso
C8 C 0.27171(14) 0.0575(6) 0.62978(19) 0.0417 Uani
C9 C 0.18476(13) 0.0709(5) 0.58212(17) 0.0348 Uani
C10 C 0.41913(14) -0.2591(5) 0.5677(2) 0.0441 Uani
H2 H 0.4080 -0.3330 0.5447 0.0530 Uiso
C11 C 0.47754(15) -0.1152(6) 0.6123(2) 0.0536 Uani
H3 H 0.5062 -0.0877 0.6189 0.0650 Uiso
C12 C 0.24725(16) 0.1433(7) 0.6485(2) 0.0601 Uani
H4 H 0.2599 0.1976 0.6781 0.0720 Uiso
O6 O 0.43968(9) 0.4750(3) 0.92443(12) 0.0367 Uani
O7 O 0.49186(9) 0.3211(4) 0.93705(12) 0.0400 Uani
C13 C 0.45731(14) 0.3750(5) 0.91192(18) 0.0353 Uani
C14 C 0.39431(15) 0.3415(6) 0.83341(19) 0.0483 Uani
H5 H 0.3795 0.4086 0.8466 0.0580 Uiso
C15 C 0.20363(15) 0.1516(6) 0.6243(2) 0.0527 Uani
H6 H 0.1869 0.2132 0.6371 0.0640 Uiso
C16 C 0.41004(15) -0.0872(6) 0.6257(2) 0.0470 Uani
C17 C 0.43561(14) 0.3073(6) 0.86082(19) 0.0442 Uani
C18 C 0.25292(14) -0.0261(6) 0.5878(2) 0.0502 Uani
H7 H 0.2698 -0.0875 0.5753 0.0600 Uiso
C19 C 0.20939(15) -0.0204(6) 0.5639(2) 0.0524 Uani
H8 H 0.1965 -0.0781 0.5353 0.0630 Uiso
C20 C 0.45253(15) -0.0502(7) 0.6370(2) 0.0601 Uani
H9 H 0.4641 0.0196 0.6616 0.0720 Uiso
C21 C 0.37461(15) 0.2781(6) 0.7868(2) 0.0528 Uani
H10 H 0.3461 0.3004 0.7685 0.0640 Uiso
C22 C 0.45708(15) 0.2093(7) 0.8419(2) 0.0591 Uani
H11 H 0.4852 0.1845 0.8610 0.0710 Uiso
C23 C 0.39625(15) 0.1829(7) 0.7670(2) 0.0564 Uani
C24 C 0.43777(16) 0.1473(7) 0.7952(2) 0.0662 Uani
H12 H 0.4527 0.0803 0.7821 0.0790 Uiso
N4 N 0.1089(2) 0.5133(6) 0.5249(3) 0.0846 Uani
C25 C 0.0756(3) 0.4406(8) 0.5069(3) 0.0795 Uani
C26 C 0.1490(3) 0.4614(11) 0.5161(5) 0.1339 Uani
H13 H 0.1722 0.5254 0.5316 0.2010 Uiso
H14 H 0.1560 0.3703 0.5318 0.2010 Uiso
H15 H 0.1449 0.4546 0.4791 0.2010 Uiso
C27 C 0.1140(5) 0.6348(10) 0.5555(4) 0.1479 Uani
H16 H 0.1432 0.6676 0.5635 0.2220 Uiso
H17 H 0.0946 0.7062 0.5365 0.2220 Uiso
H18 H 0.1076 0.6143 0.5875 0.2220 Uiso
O8 O 0.06932(17) 0.0992(6) 0.42338(17) 0.0810 Uani
C28 C 0.0616(3) 0.1068(12) 0.3836(4) 0.1067 Uani
N5 N 0.0849(5) 0.0539(12) 0.3536(4) 0.0976 Uani
C29 C 0.1328(9) 0.058(3) 0.3649(11) 0.2249 Uani
H19 H 0.1405 0.0124 0.3370 0.3370 Uiso
H20 H 0.1424 0.1537 0.3678 0.3370 Uiso
H21 H 0.1462 0.0098 0.3973 0.3370 Uiso
C30 C 0.0598(7) -0.017(3) 0.3061(8) 0.1739 Uani
H22 H 0.0788 -0.0512 0.2875 0.2590 Uiso
H23 H 0.0446 -0.0951 0.3151 0.2590 Uiso
H24 H 0.0394 0.0472 0.2843 0.2590 Uiso
Tb1B Tb 0.55228(2) -0.38686(2) 0.50238(2) 0.0239 Uani
Tb1C Tb 0.44772(2) 0.61314(2) 0.99762(2) 0.0239 Uani
Tb1F Tb 0.44772(2) -0.61314(2) 0.49762(2) 0.0239 Uani
Tb1G Tb 0.55228(2) 0.38686(2) 1.00238(2) 0.0239 Uani
O2B O -0.02245(10) 0.0966(3) 0.52943(12) 0.0357 Uani
O2F O 0.02245(10) -0.0966(3) 0.47057(12) 0.0357 Uani
O3B O 0.02448(10) 0.2618(4) 0.55432(14) 0.0419 Uani
O6C O 0.06032(9) -0.0250(3) 0.57557(12) 0.0367 Uani
O7G O -0.00814(9) 0.1789(4) 0.43705(12) 0.0400 Uani
loop_
_atom_site_aniso_label
_atom_site_aniso_U_11
_atom_site_aniso_U_22
_atom_site_aniso_U_33
_atom_site_aniso_U_23
_atom_site_aniso_U_13
_atom_site_aniso_U_12
Tb1 0.01357(10) 0.03586(13) 0.01994(12) 0.00140(7) 0.00148(7) 0.00160(7)
C1 0.02 0.079 0.053 -0.041 -0.009 0.011
N1 0.0189 0.061 0.047 -0.029 0.0015 0.0038
N2 0.0162 0.076 0.044 -0.032 -0.0042 0.0098
C2 0.017 0.062 0.041 -0.025 -0.0056 0.004
N3 0.022 0.091 0.063 -0.05 -0.0023 0.01
C3 0.019 0.073 0.052 -0.034 -0.002 0.007
O1 0.0181(14) 0.0382(17) 0.0402(17) -0.0094(14) -0.0019(12) 0.0021(12)
O2 0.0232 0.0433 0.037 -0.0152 0.0036 0.0057
O3 0.0234 0.049 0.053 -0.0138 0.0112 0.002
O4 0.0166(14) 0.060(2) 0.0441(19) -0.0196(16) 0.0006(13) 0.0028(14)
O5 0.049(2) 0.052(2) 0.061(2) 0.022(2) -0.0034(19) -0.0194(19)
C4 0.0147(18) 0.044(2) 0.029(2) -0.0003(18) 0.0009(16) -0.0014(16)
C5 0.025 0.043 0.046 -0.018 0.005 0.0031
C6 0.022 0.049 0.044 -0.018 0.0064 0.0065
C7 0.021 0.058 0.05 -0.031 0 -0.0002
C8 0.017(2) 0.063(3) 0.039(3) -0.020(2) -0.0008(18) -0.001(2)
C9 0.0170(19) 0.050(3) 0.032(2) -0.011(2) -0.0006(17) 0.0000(18)
C10 0.027 0.049 0.053 -0.026 0.007 0.0029
C11 0.016 0.068 0.07 -0.035 0.003 0.003
C12 0.023(2) 0.087(4) 0.055(3) -0.045(3) -0.011(2) 0.012(2)
O6 0.0218 0.0498 0.0321 -0.0134 -0.0012 0.0058
O7 0.0232 0.0465 0.0382 -0.0117 -0.0088 0.0048
C13 0.02 0.048 0.031 -0.0119 -0.0028 -0.0016
C14 0.022 0.072 0.041 -0.027 -0.0053 0.013
C15 0.020(2) 0.076(4) 0.051(3) -0.037(3) -0.006(2) 0.013(2)
C16 0.019 0.066 0.049 -0.027 0 0.01
C17 0.022 0.064 0.038 -0.022 -0.0037 0.004
C18 0.017(2) 0.076(4) 0.049(3) -0.034(3) -0.003(2) 0.004(2)
C19 0.020(2) 0.073(4) 0.057(3) -0.032(3) 0.001(2) 0.002(2)
C20 0.023 0.078 0.073 -0.054 0.005 0.001
C21 0.021 0.08 0.046 -0.037 -0.007 0.01
C22 0.019 0.084 0.061 -0.038 -0.008 0.013
C23 0.019 0.089 0.049 -0.039 -0.008 0.011
C24 0.023 0.104 0.058 -0.051 -0.008 0.017
N4 0.080(4) 0.052(3) 0.093(5) 0.014(3) -0.017(3) -0.012(3)
C25 0.078(5) 0.055(4) 0.094(6) 0.026(4) 0.009(4) -0.005(4)
C26 0.059(5) 0.121(8) 0.193(11) 0.069(8) -0.005(6) -0.019(5)
C27 0.233(16) 0.065(6) 0.109(8) -0.005(5) -0.003(9) -0.020(7)
O8 0.074(3) 0.146(5) 0.033(2) 0.018(3) 0.031(2) 0.031(3)
C28 0.083(6) 0.181(12) 0.062(6) 0.003(6) 0.031(5) 0.028(6)
N5 0.162(13) 0.098(8) 0.061(6) -0.001(6) 0.076(8) -0.014(8)
C29 0.19(2) 0.23(3) 0.22(3) 0.08(2) 0.01(2) -0.08(2)
C30 0.152(19) 0.20(2) 0.139(16) -0.008(16) -0.002(14) -0.029(16)
Tb1B 0.01357 0.03586 0.01994 0.0014 0.00148 0.0016
Tb1C 0.01357 0.03586 0.01994 -0.0014 0.00148 -0.0016
Tb1F 0.01357 0.03586 0.01994 0.0014 0.00148 0.0016
Tb1G 0.01357 0.03586 0.01994 -0.0014 0.00148 -0.0016
O2B 0.0232 0.0433 0.037 -0.0152 0.0036 0.0057
O2F 0.0232 0.0433 0.037 -0.0152 0.0036 0.0057
O3B 0.0234 0.049 0.053 -0.0138 0.0112 0.002
O6C 0.0218 0.0498 0.0321 0.0134 -0.0012 -0.0058
O7G 0.0232 0.0465 0.0382 0.0117 -0.0088 -0.0048
loop_
_geom_bond_atom_site_label_1
_geom_bond_atom_site_label_2
_geom_bond_site_symmetry_1
_geom_bond_site_symmetry_2
Tb1 O1 1_555 1_555
C1 N2 1_555 1_555
N1 C2 1_555 1_555
N2 C2 1_555 1_555
C2 C8 1_555 1_555
N3 C1 1_555 1_555
C3 N1 1_555 1_555
O1 C4 1_555 1_555
O2 C6 1_555 1_555
O3 C6 1_555 1_555
O4 Tb1 1_555 1_555
O5 Tb1 1_555 1_555
C4 O4 1_555 1_555
C5 C6 1_555 1_555
C7 H1 1_555 1_555
C8 C12 1_555 1_555
C9 C4 1_555 1_555
C10 C5 1_555 1_555
H2 C10 1_555 1_555
C11 C5 1_555 1_555
H3 C11 1_555 1_555
C12 H4 1_555 1_555
O6 C13 1_555 1_555
O7 C13 1_555 1_555
C13 C17 1_555 1_555
C14 H5 1_555 1_555
C15 C9 1_555 1_555
H6 C15 1_555 1_555
C16 C3 1_555 1_555
C17 C14 1_555 1_555
C18 C8 1_555 1_555
H7 C18 1_555 1_555
C19 C9 1_555 1_555
H8 C19 1_555 1_555
C20 C11 1_555 1_555
H9 C20 1_555 1_555
C21 C14 1_555 1_555
H10 C21 1_555 1_555
C22 C17 1_555 1_555
H11 C22 1_555 1_555
C23 C1 1_555 1_555
C24 C22 1_555 1_555
H12 C24 1_555 1_555
N4 C25 1_555 1_555
C25 O5 1_555 1_555
C26 N4 1_555 1_555
H13 C26 1_555 1_555
H14 C26 1_555 1_555
H15 C26 1_555 1_555
C27 N4 1_555 1_555
H16 C27 1_555 1_555
H17 C27 1_555 1_555
H18 C27 1_555 1_555
O8 Tb1 1_555 1_555
C28 O8 1_555 1_555
N5 C28 1_555 1_555
C29 N5 1_555 1_555
H19 C29 1_555 1_555
H20 C29 1_555 1_555
H21 C29 1_555 1_555
C30 N5 1_555 1_555
H22 C30 1_555 1_555
H23 C30 1_555 1_555
H24 C30 1_555 1_555
Tb1B O2 1_555 1_555
Tb1C O6 1_555 1_555
Tb1F O2 1_555 1_555
Tb1G O7 1_555 1_555
O2B Tb1 1_555 1_555
O2F Tb1 1_555 1_555
O3B Tb1 1_555 1_555
O6C Tb1 1_555 1_555
O7G Tb1 1_555 1_555
N3 C3 1_555 1_555
O3 Tb1B 1_555 1_555
C7 C10 1_555 1_555
C7 C16 1_555 1_555
C12 C15 1_555 1_555
C16 C20 1_555 1_555
C18 C19 1_555 1_555
C21 C23 1_555 1_555
C23 C24 1_555 1_555

#END
