
#######################################################################
#
#                 Cambridge Crystallographic Data Centre
#                                CCDC 
#
#######################################################################
#
# If this CIF has been generated from an entry in the Cambridge 
# Structural Database, then it will include bibliographic, chemical, 
# crystal, experimental, refinement or atomic coordinate data resulting 
# from the CCDC's data processing and validation procedures.
#
#######################################################################

data_JOFKIA01
_chemical_formula_moiety         '(C3 H6 Cu1 N4 O4)n'
_symmetry_cell_setting           rhombohedral
_symmetry_space_group_name_H-M   'R -3'
_symmetry_Int_Tables_number      148
_space_group_name_Hall           '-R 3'
loop_
_symmetry_equiv_pos_site_id
_symmetry_equiv_pos_as_xyz
1 x,y,z
2 -y,x-y,z
3 -x+y,-x,z
4 2/3+x,1/3+y,1/3+z
5 2/3-y,1/3+x-y,1/3+z
6 2/3-x+y,1/3-x,1/3+z
7 1/3+x,2/3+y,2/3+z
8 1/3-y,2/3+x-y,2/3+z
9 1/3-x+y,2/3-x,2/3+z
10 -x,-y,-z
11 y,-x+y,-z
12 x-y,x,-z
13 1/3-x,2/3-y,2/3-z
14 1/3+y,2/3-x+y,2/3-z
15 1/3+x-y,2/3+x,2/3-z
16 2/3-x,1/3-y,1/3-z
17 2/3+y,1/3-x+y,1/3-z
18 2/3+x-y,1/3+x,1/3-z
_cell_length_a                   21.5373(5)
_cell_length_b                   21.5373(5)
_cell_length_c                   8.8753(7)
_cell_angle_alpha                90
_cell_angle_beta                 90
_cell_angle_gamma                120
_cell_volume                     3565.3
loop_
_atom_site_label
_atom_site_type_symbol
_atom_site_fract_x
_atom_site_fract_y
_atom_site_fract_z
_atom_site_U_iso_or_equiv
_atom_site_thermal_displace_type
Cu1 Cu 0.29680(2) 0.174452(19) 0.46447(4) 0.0164 Uani
C1 C 0.26583(16) 0.00983(16) 0.7500(4) 0.0170 Uani
C2 C 0.24627(16) 0.03249(16) 0.5304(4) 0.0169 Uani
C3 C 0.21595(18) 0.03069(18) 0.3796(4) 0.0223 Uani
H1 H 0.399(2) 0.224(2) 0.212(2) 0.0410 Uiso
H2 H 0.4279(16) 0.220(2) 0.351(4) 0.0440 Uiso
N1 N 0.30355(14) 0.08123(13) 0.7343(3) 0.0159 Uani
N2 N 0.26587(16) -0.02519(15) 0.8773(3) 0.0284 Uani
H3 H 0.2911 -0.0014 0.9537 0.0340 Uiso
H4 H 0.2407 -0.0712 0.8815 0.0340 Uiso
N3 N 0.29009(14) 0.09467(14) 0.5901(3) 0.0162 Uani
N4 N 0.23016(14) -0.02297(13) 0.6235(3) 0.0164 Uani
O1 O 0.23797(13) 0.09324(12) 0.3251(3) 0.0258 Uani
O2 O 0.17315(16) -0.02691(13) 0.3221(3) 0.0383 Uani
O3 O 0.39332(15) 0.21320(16) 0.3023(3) 0.0363 Uani
Cu1J Cu 0.174452(19) -0.122348(28) 0.53553(4) 0.0164 Uani
Cu1O Cu 0.36987(2) 0.158881(19) 0.86886(4) 0.0164 Uani
N1O N 0.36312(14) 0.25210(13) 0.5990(3) 0.0159 Uani
N4K N 0.25313(19) 0.23016(14) 0.3765(3) 0.0164 Uani
O4 O 0.1393(2) 0.0863(2) 0.9292(5) 0.0747 Uani
H5 H 0.102(3) 0.090(5) 0.931(10) 0.1700 Uiso
H6 H 0.135(4) 0.054(4) 0.863(8) 0.1600 Uiso
loop_
_atom_site_aniso_label
_atom_site_aniso_U_11
_atom_site_aniso_U_22
_atom_site_aniso_U_33
_atom_site_aniso_U_23
_atom_site_aniso_U_13
_atom_site_aniso_U_12
Cu1 0.0238(2) 0.0123(2) 0.0149(2) -0.00149(14) -0.00549(15) 0.01040(18)
C1 0.0187(16) 0.0134(15) 0.0175(16) 0.0011(12) 0.0003(12) 0.0070(13)
C2 0.0180(16) 0.0143(15) 0.0187(16) -0.0005(12) -0.0020(13) 0.0083(13)
C3 0.0246(17) 0.0204(17) 0.0225(17) -0.0042(14) -0.0060(14) 0.0118(15)
N1 0.0218(14) 0.0122(13) 0.0138(13) 0.0004(10) -0.0022(11) 0.0085(11)
N2 0.0368(18) 0.0148(14) 0.0219(15) 0.0046(12) -0.0085(13) 0.0041(13)
N3 0.0205(14) 0.0124(13) 0.0156(14) 0.0003(10) -0.0034(11) 0.0082(11)
N4 0.0176(13) 0.0121(13) 0.0164(14) -0.0014(10) -0.0020(11) 0.0052(11)
O1 0.0395(15) 0.0189(12) 0.0192(12) -0.0028(9) -0.0117(11) 0.0147(11)
O2 0.0495(17) 0.0216(13) 0.0366(15) -0.0085(11) -0.0241(13) 0.0123(13)
O3 0.0343(16) 0.0572(19) 0.0200(15) 0.0001(13) 0.0017(12) 0.0249(15)
Cu1J 0.0123 0.0153 0.0149 -0.004 0.00149 0.0019
Cu1O 0.0238 0.0123 0.0149 -0.00149 -0.00549 0.0104
N1O 0.0218 0.0122 0.0138 0.0004 -0.0022 0.0085
N4K 0.0193 0.0176 0.0164 0.002 0.0006 0.0124
O4 0.061(2) 0.088(3) 0.076(3) 0.025(2) 0.002(2) 0.038(2)
loop_
_geom_bond_atom_site_label_1
_geom_bond_atom_site_label_2
_geom_bond_site_symmetry_1
_geom_bond_site_symmetry_2
Cu1 N3 1_555 1_555
C1 N1 1_555 1_555
C2 C3 1_555 1_555
C3 O1 1_555 1_555
H1 O3 1_555 1_555
H2 O3 1_555 1_555
N1 N3 1_555 1_555
N2 C1 1_555 1_555
H3 N2 1_555 1_555
H4 N2 1_555 1_555
N3 C2 1_555 1_555
N4 C1 1_555 1_555
O1 Cu1 1_555 1_555
O2 C3 1_555 1_555
O3 Cu1 1_555 1_555
O4 H5 1_555 1_555
H6 O4 1_555 1_555
Cu1J N4 1_555 1_555
Cu1O N1 1_555 1_555
N1O Cu1 1_555 1_555
N4K Cu1 1_555 1_555
C2 N4 1_555 1_555

#END
