
#######################################################################
#
#                 Cambridge Crystallographic Data Centre
#                                CCDC 
#
#######################################################################
#
# If this CIF has been generated from an entry in the Cambridge 
# Structural Database, then it will include bibliographic, chemical, 
# crystal, experimental, refinement or atomic coordinate data resulting 
# from the CCDC's data processing and validation procedures.
#
#######################################################################

data_JOGHEU
_chemical_formula_moiety         'C13 H13 N3 Ni3 O8'
_symmetry_cell_setting           monoclinic
_symmetry_space_group_name_H-M   'C 2/c'
_symmetry_Int_Tables_number      15
_space_group_name_Hall           '-C 2yc'
loop_
_symmetry_equiv_pos_site_id
_symmetry_equiv_pos_as_xyz
1 x,y,z
2 -x,y,1/2-z
3 1/2+x,1/2+y,z
4 1/2-x,1/2+y,1/2-z
5 -x,-y,-z
6 x,-y,1/2+z
7 1/2-x,1/2-y,-z
8 1/2+x,1/2-y,1/2+z
_cell_length_a                   10.456(3)
_cell_length_b                   20.017(6)
_cell_length_c                   8.1077(19)
_cell_angle_alpha                90
_cell_angle_beta                 102.602(4)
_cell_angle_gamma                90
_cell_volume                     1656.04
loop_
_atom_site_label
_atom_site_type_symbol
_atom_site_fract_x
_atom_site_fract_y
_atom_site_fract_z
_atom_site_U_iso_or_equiv
_atom_site_thermal_displace_type
O4 O 0.1489(5) 0.0883(3) 0.1252(6) 0.0336 Uani
H7 H 0.1202 0.0485 0.1142 0.0400 Uiso
H8 H 0.1551 0.1011 0.2267 0.0400 Uiso
N1 N 0.6515(3) 0.15722(15) -0.0095(4) 0.0371 Uani
C1 C 0.7100(4) 0.10032(19) -0.0554(5) 0.0376 Uani
H1 H 0.7900 0.1032 -0.0872 0.0450 Uiso
C2 C 0.6516(4) 0.04173(19) -0.0539(5) 0.0396 Uani
H2 H 0.6917 0.0042 -0.0874 0.0480 Uiso
C3 C 0.5317(4) 0.03355(18) -0.0040(5) 0.0335 Uani
C4 C 0.4753(4) 0.0938(2) 0.0450(5) 0.0410 Uani
H3 H 0.3961 0.0919 0.0792 0.0490 Uiso
C5 C 0.5347(4) 0.1521(2) 0.0421(5) 0.0362 Uani
H4 H 0.4968 0.1904 0.0755 0.0430 Uiso
C6 C 1.0000 0.2320(3) 0.2500 0.0329 Uani
H5 H 1.0000 0.2784 0.2500 0.0390 Uiso
C7 C 0.6872(9) 0.2754(4) 0.3679(11) 0.0416 Uani
H6 H 0.7376 0.2429 0.4340 0.0500 Uiso
Ni1 Ni 0.7500 0.2500 0.0000 0.0325 Uani
O1 O 0.9136(3) 0.20160(12) 0.1466(3) 0.0373 Uani
O2 O 0.6824(4) 0.2777(2) 0.2156(6) 0.0254 Uani
O3 O 0.6255(6) 0.3160(3) 0.4332(8) 0.0515 Uani
N1D N 0.3485(3) -0.15722(15) 0.0095(4) 0.0371 Uani
C1D C 0.2900(4) -0.10032(19) 0.0554(5) 0.0376 Uani
H1D H 0.2100 -0.1032 0.0872 0.0450 Uiso
C2D C 0.3484(4) -0.04173(19) 0.0539(5) 0.0396 Uani
H2D H 0.3083 -0.0042 0.0874 0.0480 Uiso
C3D C 0.4683(4) -0.03355(18) 0.0040(5) 0.0335 Uani
C4D C 0.5247(4) -0.0938(2) -0.0450(5) 0.0410 Uani
H3D H 0.6039 -0.0919 -0.0792 0.0490 Uiso
C5D C 0.4653(4) -0.1521(2) -0.0421(5) 0.0362 Uani
H4D H 0.5032 -0.1904 -0.0755 0.0430 Uiso
O1A O 1.0864(3) 0.20160(12) 0.3534(3) 0.0373 Uani
C7F C 0.8128(9) 0.2246(4) -0.3679(11) 0.0416 Uani
H6F H 0.7624 0.2571 -0.4340 0.0500 Uiso
O2F O 0.8176(4) 0.2223(2) -0.2156(6) 0.0254 Uani
O3F O 0.8745(6) 0.1840(3) -0.4332(8) 0.0515 Uani
N1F N 0.8485(3) 0.34278(15) 0.0095(4) 0.0371 Uani
Ni1A Ni 1.2500 0.2500 0.5000 0.0325 Uani
Ni1B Ni 0.2500 -0.2500 0.0000 0.0325 Uani
O1F O 0.5864(3) 0.29840(12) -0.1466(3) 0.0373 Uani
loop_
_atom_site_aniso_label
_atom_site_aniso_U_11
_atom_site_aniso_U_22
_atom_site_aniso_U_33
_atom_site_aniso_U_23
_atom_site_aniso_U_13
_atom_site_aniso_U_12
O4 0.034(3) 0.032(3) 0.032(3) 0.014(2) 0.001(2) 0.012(2)
N1 0.0394(18) 0.0331(18) 0.0369(17) 0.0058(14) 0.0039(14) 0.0059(14)
C1 0.036(2) 0.0338(19) 0.046(2) 0.0185(17) 0.0154(16) 0.0012(16)
C2 0.047(2) 0.029(2) 0.042(2) -0.0001(16) 0.0079(17) 0.0031(17)
C3 0.039(2) 0.029(2) 0.032(2) 0.0063(15) 0.0069(15) -0.0046(16)
C4 0.039(2) 0.042(2) 0.041(2) -0.0019(18) 0.0066(16) -0.0068(18)
C5 0.033(2) 0.040(2) 0.036(2) -0.0059(17) 0.0082(16) 0.0079(16)
C6 0.026(2) 0.035(3) 0.035(3) 0.000 0.001(2) 0.000
C7 0.069(6) 0.013(3) 0.045(5) 0.013(3) 0.017(4) 0.002(3)
Ni1 0.0317(3) 0.0327(4) 0.0307(3) 0.0040(3) 0.0018(2) -0.0024(3)
O1 0.0381(15) 0.0394(15) 0.0333(14) 0.0077(12) 0.0053(11) -0.0036(12)
O2 0.022(2) 0.029(2) 0.024(2) 0.0005(19) 0.0025(18) -0.0043(18)
O3 0.056(4) 0.046(3) 0.052(4) 0.018(3) 0.011(3) 0.007(3)
N1D 0.0394 0.0331 0.0369 0.0058 0.0039 0.0059
C1D 0.036 0.0338 0.046 0.0185 0.0154 0.0012
C2D 0.047 0.029 0.042 -0.0001 0.0079 0.0031
C3D 0.039 0.029 0.032 0.0063 0.0069 -0.0046
C4D 0.039 0.042 0.041 -0.0019 0.0066 -0.0068
C5D 0.033 0.04 0.036 -0.0059 0.0082 0.0079
O1A 0.0381 0.0394 0.0333 -0.0077 0.0053 0.0036
C7F 0.069 0.013 0.045 0.013 0.017 0.002
O2F 0.022 0.029 0.024 0.0005 0.0025 -0.0043
O3F 0.056 0.046 0.052 0.018 0.011 0.007
N1F 0.0394 0.0331 0.0369 0.0058 0.0039 0.0059
Ni1A 0.0317 0.0327 0.0307 -0.004 0.0018 0.0024
Ni1B 0.0317 0.0327 0.0307 0.004 0.0018 -0.0024
O1F 0.0381 0.0394 0.0333 0.0077 0.0053 -0.0036
loop_
_geom_bond_atom_site_label_1
_geom_bond_atom_site_label_2
_geom_bond_site_symmetry_1
_geom_bond_site_symmetry_2
N1 C1 1_555 1_555
C1 H1 1_555 1_555
C2 C1 1_555 1_555
H2 C2 1_555 1_555
C3 C2 1_555 1_555
C4 C3 1_555 1_555
H3 C4 1_555 1_555
C5 N1 1_555 1_555
H4 C5 1_555 1_555
C6 H5 1_555 1_555
C7 H6 1_555 1_555
Ni1 N1 1_555 1_555
O1 C6 1_555 1_555
O2 C7 1_555 1_555
O3 C7 1_555 1_555
O4 H7 1_555 1_555
H8 O4 1_555 1_555
N1D C1D 1_555 1_555
C1D H1D 1_555 1_555
C2D C1D 1_555 1_555
H2D C2D 1_555 1_555
C3D C3 1_555 1_555
C4D C3D 1_555 1_555
H3D C4D 1_555 1_555
C5D N1D 1_555 1_555
H4D C5D 1_555 1_555
O1A C6 1_555 1_555
C7F H6F 1_555 1_555
O2F Ni1 1_555 1_555
O3F C7F 1_555 1_555
N1F Ni1 1_555 1_555
Ni1A O1A 1_555 1_555
Ni1B N1D 1_555 1_555
O1F Ni1 1_555 1_555
C4 C5 1_555 1_555
Ni1 O1 1_555 1_555
Ni1 O2 1_555 1_555
C2D C3D 1_555 1_555
C4D C5D 1_555 1_555
C7F O2F 1_555 1_555

#END
