
#######################################################################
#
#                 Cambridge Crystallographic Data Centre
#                                CCDC 
#
#######################################################################
#
# If this CIF has been generated from an entry in the Cambridge 
# Structural Database, then it will include bibliographic, chemical, 
# crystal, experimental, refinement or atomic coordinate data resulting 
# from the CCDC's data processing and validation procedures.
#
#######################################################################

data_JOGHIY
_chemical_formula_moiety         'C13 H13 Co3 N3 O8'
_symmetry_cell_setting           monoclinic
_symmetry_space_group_name_H-M   'C 2/c'
_symmetry_Int_Tables_number      15
_space_group_name_Hall           '-C 2yc'
loop_
_symmetry_equiv_pos_site_id
_symmetry_equiv_pos_as_xyz
1 x,y,z
2 -x,y,1/2-z
3 1/2+x,1/2+y,z
4 1/2-x,1/2+y,1/2-z
5 -x,-y,-z
6 x,-y,1/2+z
7 1/2-x,1/2-y,-z
8 1/2+x,1/2-y,1/2+z
_cell_length_a                   10.476(3)
_cell_length_b                   20.205(6)
_cell_length_c                   8.109(2)
_cell_angle_alpha                90
_cell_angle_beta                 102.265(4)
_cell_angle_gamma                90
_cell_volume                     1677.24
loop_
_atom_site_label
_atom_site_type_symbol
_atom_site_fract_x
_atom_site_fract_y
_atom_site_fract_z
_atom_site_U_iso_or_equiv
_atom_site_thermal_displace_type
O4 O 0.5202(5) 0.5172(3) 0.8710(7) 0.0417 Uani
H7 H 0.4749 0.4863 0.9013 0.0500 Uiso
H8 H 0.5844 0.5261 0.9512 0.0500 Uiso
C1 C 0.7919(4) 0.40012(17) 0.0505(4) 0.0319 Uani
H1 H 0.7108 0.3966 0.0793 0.0380 Uiso
C2 C 0.8465(4) 0.45715(19) 0.0531(5) 0.0356 Uani
H2 H 0.8061 0.4948 0.0838 0.0430 Uiso
C3 C 0.9678(3) 0.46665(19) 0.0030(5) 0.0350 Uani
C4 C 1.0242(4) 0.40642(19) -0.0446(5) 0.0368 Uani
H3 H 1.1044 0.4099 -0.0759 0.0440 Uiso
C5 C 0.9685(3) 0.34955(19) -0.0401(5) 0.0329 Uani
H4 H 1.0090 0.3116 -0.0687 0.0400 Uiso
C6 C 0.6711(7) 0.2759(4) 0.3565(11) 0.0384 Uani
H5 H 0.7137 0.2458 0.4364 0.0460 Uiso
C7 C 1.0000 0.2272(3) 0.2500 0.0359 Uani
H6 H 1.0000 0.2732 0.2500 0.0430 Uiso
Co1 Co 0.7500 0.2500 0.0000 0.0320 Uani
N1 N 0.8511(3) 0.34447(16) 0.0061(4) 0.0344 Uani
O1 O 0.6834(4) 0.2725(2) 0.2124(6) 0.0318 Uani
O2 O 0.5992(6) 0.3209(3) 0.3983(7) 0.0510 Uani
O3 O 0.9115(2) 0.20153(14) 0.1501(3) 0.0395 Uani
C1D C 1.2081(4) 0.59988(17) -0.0505(4) 0.0319 Uani
H1D H 1.2892 0.6034 -0.0793 0.0380 Uiso
C2D C 1.1535(4) 0.54285(19) -0.0531(5) 0.0356 Uani
H2D H 1.1939 0.5052 -0.0838 0.0430 Uiso
C3D C 1.0322(3) 0.53335(19) -0.0030(5) 0.0350 Uani
C4D C 0.9758(4) 0.59358(19) 0.0446(5) 0.0368 Uani
H3D H 0.8956 0.5901 0.0759 0.0440 Uiso
C5D C 1.0315(3) 0.65045(19) 0.0401(5) 0.0329 Uani
H4D H 0.9910 0.6884 0.0687 0.0400 Uiso
N1D N 1.1489(3) 0.65553(16) -0.0061(4) 0.0344 Uani
O3A O 1.0885(2) 0.20153(14) 0.3499(3) 0.0395 Uani
C6F C 0.8289(7) 0.2241(4) -0.3565(11) 0.0384 Uani
H5F H 0.7863 0.2542 -0.4364 0.0460 Uiso
O1F O 0.8166(4) 0.2275(2) -0.2124(6) 0.0318 Uani
O2F O 0.9008(6) 0.1791(3) -0.3983(7) 0.0510 Uani
Co1A Co 1.2500 0.2500 0.5000 0.0320 Uani
Co1B Co 1.2500 0.7500 0.0000 0.0320 Uani
N1F N 0.6489(3) 0.15553(16) -0.0061(4) 0.0344 Uani
O3F O 0.5885(2) 0.29847(14) -0.1501(3) 0.0395 Uani
loop_
_atom_site_aniso_label
_atom_site_aniso_U_11
_atom_site_aniso_U_22
_atom_site_aniso_U_33
_atom_site_aniso_U_23
_atom_site_aniso_U_13
_atom_site_aniso_U_12
O4 0.041(3) 0.034(3) 0.043(3) 0.018(2) -0.007(2) -0.006(2)
C1 0.036(2) 0.0256(18) 0.031(2) 0.0082(15) -0.0001(15) 0.0057(16)
C2 0.036(2) 0.030(2) 0.037(2) -0.0024(16) -0.0011(16) 0.0064(16)
C3 0.035(2) 0.035(2) 0.0309(19) 0.0066(16) -0.0021(17) 0.0038(17)
C4 0.036(2) 0.032(2) 0.040(2) 0.0150(17) 0.0024(17) 0.0069(17)
C5 0.0343(18) 0.027(2) 0.032(2) -0.0099(15) -0.0049(15) -0.0020(16)
C6 0.040(4) 0.025(4) 0.038(5) -0.001(3) -0.019(3) -0.002(3)
C7 0.046(3) 0.027(3) 0.037(3) 0.000 0.014(3) 0.000
Co1 0.0331(4) 0.0287(4) 0.0305(4) -0.0042(4) -0.0017(3) 0.0032(4)
N1 0.0311(15) 0.0336(19) 0.0369(17) 0.0026(14) 0.0034(13) 0.0022(14)
O1 0.029(2) 0.032(3) 0.026(3) -0.005(2) -0.013(2) 0.004(2)
O2 0.050(4) 0.051(4) 0.046(4) 0.009(3) -0.003(3) 0.013(3)
O3 0.0325(14) 0.0430(16) 0.0436(16) 0.0123(13) 0.0092(12) 0.0115(12)
C1D 0.036 0.0256 0.031 0.0082 -0.0001 0.0057
C2D 0.036 0.03 0.037 -0.0024 -0.0011 0.0064
C3D 0.035 0.035 0.0309 0.0066 -0.0021 0.0038
C4D 0.036 0.032 0.04 0.015 0.0024 0.0069
C5D 0.0343 0.027 0.032 -0.0099 -0.0049 -0.002
N1D 0.0311 0.0336 0.0369 0.0026 0.0034 0.0022
O3A 0.0325 0.043 0.0436 -0.0123 0.0092 -0.0115
C6F 0.04 0.025 0.038 -0.001 -0.019 -0.002
O1F 0.029 0.032 0.026 -0.005 -0.013 0.004
O2F 0.05 0.051 0.046 0.009 -0.003 0.013
Co1A 0.0331 0.0287 0.0305 0.0042 -0.0017 -0.0032
Co1B 0.0331 0.0287 0.0305 -0.0042 -0.0017 0.0032
N1F 0.0311 0.0336 0.0369 0.0026 0.0034 0.0022
O3F 0.0325 0.043 0.0436 0.0123 0.0092 0.0115
loop_
_geom_bond_atom_site_label_1
_geom_bond_atom_site_label_2
_geom_bond_site_symmetry_1
_geom_bond_site_symmetry_2
C1 H1 1_555 1_555
C2 C1 1_555 1_555
H2 C2 1_555 1_555
C3 C2 1_555 1_555
C4 C3 1_555 1_555
H3 C4 1_555 1_555
C5 C4 1_555 1_555
H4 C5 1_555 1_555
C6 H5 1_555 1_555
C7 H6 1_555 1_555
Co1 N1 1_555 1_555
N1 C1 1_555 1_555
O1 C6 1_555 1_555
O2 C6 1_555 1_555
O3 C7 1_555 1_555
O4 H7 1_555 1_555
H8 O4 1_555 1_555
C1D H1D 1_555 1_555
C2D C1D 1_555 1_555
H2D C2D 1_555 1_555
C3D C3 1_555 1_555
C4D C3D 1_555 1_555
H3D C4D 1_555 1_555
C5D C4D 1_555 1_555
H4D C5D 1_555 1_555
N1D C1D 1_555 1_555
O3A C7 1_555 1_555
C6F H5F 1_555 1_555
O1F Co1 1_555 1_555
O2F C6F 1_555 1_555
Co1A O3A 1_555 1_555
Co1B N1D 1_555 1_555
N1F Co1 1_555 1_555
O3F Co1 1_555 1_555
C5 N1 1_555 1_555
Co1 O1 1_555 1_555
Co1 O3 1_555 1_555
C2D C3D 1_555 1_555
C5D N1D 1_555 1_555
C6F O1F 1_555 1_555

#END
