
#######################################################################
#
#                 Cambridge Crystallographic Data Centre
#                                CCDC 
#
#######################################################################
#
# If this CIF has been generated from an entry in the Cambridge 
# Structural Database, then it will include bibliographic, chemical, 
# crystal, experimental, refinement or atomic coordinate data resulting 
# from the CCDC's data processing and validation procedures.
#
#######################################################################

data_JOHQUT
_chemical_formula_moiety         'C12 H16 N3 O22 Pr1 Sb1'
_symmetry_cell_setting           orthorhombic
_symmetry_space_group_name_H-M   'P n n 2'
_symmetry_Int_Tables_number      34
_space_group_name_Hall           'P 2 -2n'
loop_
_symmetry_equiv_pos_site_id
_symmetry_equiv_pos_as_xyz
1 x,y,z
2 -x,-y,z
3 1/2+x,1/2-y,1/2+z
4 1/2-x,1/2+y,1/2+z
_cell_length_a                   10.7031(2)
_cell_length_b                   23.0805(4)
_cell_length_c                   7.2343(2)
_cell_angle_alpha                90
_cell_angle_beta                 90
_cell_angle_gamma                90
_cell_volume                     1787.11
loop_
_atom_site_label
_atom_site_type_symbol
_atom_site_fract_x
_atom_site_fract_y
_atom_site_fract_z
_atom_site_U_iso_or_equiv
_atom_site_thermal_displace_type
O3 O 0.7321(4) 0.4329(2) 0.5939(6) 0.0840 Uani
O4 O 0.0960(5) 0.4486(3) 0.9194(14) 0.1483 Uani
Pr1 Pr 0.5000 0.5000 1.10300(4) 0.0161 Uani
Sb1 Sb 0.274395(16) 0.258604(8) 0.79884(3) 0.0188 Uani
O5 O 0.3358(2) 0.35930(11) 0.9168(3) 0.0348 Uani
O6 O 0.4634(2) 0.43182(10) 0.8436(3) 0.0291 Uani
O7 O 0.09170(19) 0.27814(10) 0.7054(3) 0.0260 Uani
O8 O -0.0332(3) 0.34121(15) 0.5674(5) 0.0491 Uani
O9 O 0.4691(2) 0.23955(12) 0.7175(4) 0.0332 Uani
O10 O 0.5950(2) 0.17154(15) 0.6036(5) 0.0464 Uani
O11 O 0.1804(2) 0.16422(10) 0.8615(3) 0.0301 Uani
O12 O 0.5716(2) 0.40784(10) 1.2375(3) 0.0314 Uani
O13 O 0.7052(2) 0.47305(12) 0.9439(4) 0.0326 Uani
O14 O 0.3102(3) 0.43886(18) 1.2078(5) 0.0323 Uani
O15 O 0.5000 0.5000 1.4588(7) 0.0733 Uani
N2 N 0.3057(2) 0.32507(11) 0.5631(3) 0.0173 Uani
N3 N 0.2655(2) 0.20215(11) 0.5358(3) 0.0158 Uani
C1 C 0.4070(3) 0.36664(12) 0.6075(5) 0.0217 Uani
H1 H 0.4018 0.3995 0.5242 0.0260 Uiso
H2 H 0.4872 0.3480 0.5880 0.0260 Uiso
C2 C 0.3997(2) 0.38810(11) 0.8054(5) 0.0201 Uani
C3 C 0.1846(3) 0.35700(13) 0.5387(5) 0.0249 Uani
H3 H 0.1738 0.3659 0.4087 0.0300 Uiso
H4 H 0.1894 0.3934 0.6052 0.0300 Uiso
C4 C 0.0718(3) 0.32414(14) 0.6052(6) 0.0259 Uani
C5 C 0.3412(3) 0.29279(12) 0.3920(4) 0.0202 Uani
H5 H 0.4283 0.2814 0.3996 0.0240 Uiso
H6 H 0.3315 0.3179 0.2855 0.0240 Uiso
C6 C 0.2610(3) 0.23946(13) 0.3674(6) 0.0226 Uani
H7 H 0.1753 0.2510 0.3438 0.0270 Uiso
H8 H 0.2903 0.2176 0.2615 0.0270 Uiso
C7 C 0.3789(3) 0.16447(14) 0.5366(5) 0.0260 Uani
H9 H 0.3993 0.1538 0.4104 0.0310 Uiso
H10 H 0.3605 0.1291 0.6039 0.0310 Uiso
C8 C 0.4910(3) 0.19369(18) 0.6237(6) 0.0289 Uani
C9 C 0.1528(3) 0.16439(13) 0.5373(4) 0.0210 Uani
H11 H 0.1622 0.1341 0.4454 0.0250 Uiso
H12 H 0.0798 0.1872 0.5053 0.0250 Uiso
C10 C 0.6343(3) 0.36271(13) 1.2257(4) 0.0212 Uani
O6A O 0.5366(2) 0.56818(10) 0.8436(3) 0.0291 Uani
O11B O 0.6804(2) 0.33578(10) 1.3615(3) 0.0301 Uani
O12A O 0.4284(2) 0.59216(10) 1.2375(3) 0.0314 Uani
O13A O 0.2948(2) 0.52695(12) 0.9439(4) 0.0326 Uani
O14A O 0.6898(3) 0.56114(18) 1.2078(5) 0.0323 Uani
C9B C 0.6528(3) 0.33561(13) 1.0373(4) 0.0210 Uani
C10B C 0.1343(3) 0.13729(13) 0.7257(4) 0.0212 Uani
N1 N -0.0000 0.5000 0.3909(16) 0.1097 Uani
O1 O 0.0450(11) 0.4989(8) 0.5494(16) 0.1513 Uani
O2 O -0.1146(3) 0.5020(6) 0.371(2) 0.1183 Uani
O1A O -0.0450(11) 0.5011(8) 0.5494(16) 0.1513 Uani
O2A O 0.1146(3) 0.4980(6) 0.371(2) 0.1183 Uani
loop_
_atom_site_aniso_label
_atom_site_aniso_U_11
_atom_site_aniso_U_22
_atom_site_aniso_U_33
_atom_site_aniso_U_23
_atom_site_aniso_U_13
_atom_site_aniso_U_12
O3 0.073(3) 0.117(4) 0.062(3) -0.047(3) 0.012(2) -0.012(2)
O4 0.081(3) 0.113(5) 0.251(9) -0.037(5) 0.008(5) -0.041(3)
Pr1 0.02203(11) 0.00877(10) 0.01743(11) 0.000 0.000 0.00138(8)
Sb1 0.01960(10) 0.02179(11) 0.01502(10) 0.00095(9) -0.00072(8) -0.00661(6)
O5 0.0448(14) 0.0342(13) 0.0254(12) -0.0053(10) 0.0084(11) -0.0207(11)
O6 0.0329(11) 0.0194(10) 0.0351(15) -0.0091(9) -0.0011(10) -0.0091(9)
O7 0.0179(9) 0.0291(11) 0.0309(12) 0.0010(10) 0.0051(9) -0.0039(9)
O8 0.0205(12) 0.0609(19) 0.066(2) 0.0135(17) 0.0024(13) 0.0114(13)
O9 0.0205(11) 0.0425(15) 0.0365(14) 0.0026(11) -0.0087(10) -0.0059(10)
O10 0.0198(11) 0.077(2) 0.0423(15) -0.0001(17) -0.0053(12) 0.0135(12)
O11 0.0390(12) 0.0262(11) 0.0250(11) -0.0016(9) -0.0028(9) -0.0143(10)
O12 0.0407 0.022 0.0316 0.0046 0.0085 0.0166
O13 0.0295(12) 0.0321(13) 0.0361(14) -0.0101(10) 0.0065(10) -0.0041(10)
O14 0.0350(15) 0.032(2) 0.030(2) 0.0073(18) 0.0047(14) -0.0055(13)
O15 0.174(7) 0.019(2) 0.027(2) 0.000 0.000 -0.011(3)
N2 0.0189(11) 0.0161(11) 0.0169(12) 0.0000(9) 0.0006(9) -0.0037(10)
N3 0.0126(11) 0.0160(11) 0.0188(12) 0.0004(9) -0.0014(8) -0.0029(9)
C1 0.0222(12) 0.0199(12) 0.0229(13) -0.0003(12) 0.0020(13) -0.0098(11)
C2 0.0156(10) 0.0171(11) 0.0275(13) -0.0037(14) -0.0018(13) -0.0023(9)
C3 0.0233(15) 0.0217(14) 0.0298(15) 0.0023(12) -0.0010(12) 0.0030(13)
C4 0.0229(13) 0.0281(14) 0.0267(15) -0.0040(14) 0.0032(14) 0.0023(12)
C5 0.0246(13) 0.0200(13) 0.0161(13) -0.0013(11) 0.0017(10) -0.0042(11)
C6 0.0278(15) 0.0216(16) 0.0183(14) -0.0004(13) 0.0031(13) -0.0056(12)
C7 0.0225(17) 0.0245(15) 0.0310(17) -0.0005(13) 0.0010(12) 0.0057(13)
C8 0.0225(14) 0.0424(19) 0.0217(17) 0.0094(16) -0.0012(11) 0.0007(13)
C9 0.0208(14) 0.0173(13) 0.0250(15) -0.0020(11) -0.0015(10) -0.0069(11)
C10 0.0205 0.0166 0.0265 0.0031 0.0031 0.0051
O6A 0.0329 0.0194 0.0351 0.0091 0.0011 -0.0091
O11B 0.039 0.0262 0.025 0.0016 -0.0028 0.0143
O12A 0.0407 0.022 0.0316 -0.0046 -0.0085 0.0166
O13A 0.0295 0.0321 0.0361 0.0101 -0.0065 -0.0041
O14A 0.035 0.032 0.03 -0.0073 -0.0047 -0.0055
C9B 0.0208 0.0173 0.025 0.002 -0.0015 0.0069
C10B 0.0205(13) 0.0166(13) 0.0265(14) -0.0031(11) 0.0031(11) -0.0051(11)
N1 0.092(8) 0.131(10) 0.106(9) 0.000 0.000 -0.013(6)
O1 0.085(6) 0.241(14) 0.128(11) 0.038(10) -0.017(7) -0.035(8)
O2 0.044(5) 0.141(11) 0.170(15) 0.073(9) -0.011(7) 0.013(5)
O1A 0.085 0.241 0.128 -0.038 0.017 -0.035
O2A 0.044 0.141 0.17 -0.073 0.011 0.013
loop_
_geom_bond_atom_site_label_1
_geom_bond_atom_site_label_2
_geom_bond_site_symmetry_1
_geom_bond_site_symmetry_2
N1 O1 1_555 1_555
O1 O1A 1_555 1_555
O2 N1 1_555 1_555
Pr1 O6 1_555 1_555
Sb1 O5 1_555 1_555
O5 C2 1_555 1_555
O6 C2 1_555 1_555
O7 Sb1 1_555 1_555
O8 C4 1_555 1_555
O9 Sb1 1_555 1_555
O10 C8 1_555 1_555
O11 Sb1 1_555 1_555
O12 Pr1 1_555 1_555
O13 Pr1 1_555 1_555
O14 Pr1 1_555 1_555
O15 Pr1 1_555 1_555
N2 Sb1 1_555 1_555
N3 Sb1 1_555 1_555
C1 N2 1_555 1_555
H1 C1 1_555 1_555
H2 C1 1_555 1_555
C2 C1 1_555 1_555
C3 N2 1_555 1_555
H3 C3 1_555 1_555
H4 C3 1_555 1_555
C4 O7 1_555 1_555
C5 N2 1_555 1_555
H5 C5 1_555 1_555
H6 C5 1_555 1_555
C6 N3 1_555 1_555
H7 C6 1_555 1_555
H8 C6 1_555 1_555
C7 N3 1_555 1_555
H9 C7 1_555 1_555
H10 C7 1_555 1_555
C8 O9 1_555 1_555
C9 N3 1_555 1_555
H11 C9 1_555 1_555
H12 C9 1_555 1_555
C10 O12 1_555 1_555
O1A N1 1_555 1_555
O2A N1 1_555 1_555
O6A Pr1 1_555 1_555
O11B C10 1_555 1_555
O12A Pr1 1_555 1_555
O13A Pr1 1_555 1_555
O14A Pr1 1_555 1_555
C9B C10 1_555 1_555
C10B O11 1_555 1_555
O1 O2A 1_555 1_555
O2 O1A 1_555 1_555
C3 C4 1_555 1_555
C5 C6 1_555 1_555
C7 C8 1_555 1_555
C9 C10B 1_555 1_555

#END
