
#######################################################################
#
#                 Cambridge Crystallographic Data Centre
#                                CCDC 
#
#######################################################################
#
# If this CIF has been generated from an entry in the Cambridge 
# Structural Database, then it will include bibliographic, chemical, 
# crystal, experimental, refinement or atomic coordinate data resulting 
# from the CCDC's data processing and validation procedures.
#
#######################################################################

data_JOKXOW
_chemical_formula_moiety         '(C14 H20 Cd2 N12 Ni2)n'
_symmetry_cell_setting           monoclinic
_symmetry_space_group_name_H-M   'A 1 1 2/a'
_symmetry_Int_Tables_number      15
_space_group_name_Hall           '-A 2a'
loop_
_symmetry_equiv_pos_site_id
_symmetry_equiv_pos_as_xyz
1 x,y,z
2 x,1/2+y,1/2+z
3 1/2-x,-y,z
4 1/2-x,1/2-y,1/2+z
5 -x,-y,-z
6 -x,1/2-y,1/2-z
7 1/2+x,y,-z
8 1/2+x,1/2+y,1/2-z
_cell_length_a                   14.014(5)
_cell_length_b                   26.963(5)
_cell_length_c                   7.576(4)
_cell_angle_alpha                90
_cell_angle_beta                 90
_cell_angle_gamma                91.74(1)
_cell_volume                     2861.34
loop_
_atom_site_label
_atom_site_type_symbol
_atom_site_fract_x
_atom_site_fract_y
_atom_site_fract_z
Cd1 Cd 0.27484(2) 0.13543(1) -0.11896(4)
Ni1 Ni 0.25000 -0.00000 0.3744(1)
Ni2 Ni 0.50000 0.25000 0.2500
N1 N 0.2544(4) 0.0796(2) 0.0990(6)
N2 N 0.2488(4) 0.0779(2) 0.6555(6)
N3 N 0.3259(3) 0.1998(2) 0.0900(7)
N4 N 0.1234(3) 0.1680(2) -0.1285(7)
N5 N 0.4410(3) 0.1257(2) -0.1630(6)
N6 N 0.3178(4) 0.1926(2) -0.3475(7)
C1 C 0.2520(4) 0.0492(2) 0.2023(7)
C2 C 0.2494(4) 0.0486(2) 0.5496(7)
C3 C 0.3919(4) 0.2188(2) 0.1529(7)
C4 C 0.0754(3) 0.1983(2) -0.1741(7)
C5 C 0.4738(5) 0.1570(4) -0.306(1)
C6 C 0.4191(6) 0.1908(4) -0.374(2)
C7 C 0.5795(5) 0.1574(3) -0.344(1)
N1B N 0.2456(4) -0.0796(2) 0.0990(6)
C1B C 0.2480(4) -0.0492(2) 0.2023(7)
N2B N 0.2512(4) -0.0779(2) 0.6555(6)
C2B C 0.2506(4) -0.0486(2) 0.5496(7)
Cd1B Cd 0.22516(2) -0.13543(1) -0.11896(4)
N3B N 0.1741(3) -0.1998(2) 0.0900(7)
C3B C 0.1081(4) -0.2188(2) 0.1529(7)
N4B N 0.3766(3) -0.1680(2) -0.1285(7)
C4B C 0.4246(3) -0.1983(2) -0.1741(7)
N5B N 0.0590(3) -0.1257(2) -0.1630(6)
N6B N 0.1822(4) -0.1926(2) -0.3475(7)
C5B C 0.0262(5) -0.1570(4) -0.306(1)
C6B C 0.0809(6) -0.1908(4) -0.374(2)
C7B C -0.0795(5) -0.1574(3) -0.344(1)
N2_2 N 0.2488(4) 0.0779(2) -0.3445(6)
C3E C 0.6081(4) 0.2812(2) 0.3471(7)
C4C C 0.4246(3) 0.3017(2) 0.3259(7)
C4F C 0.5754(3) 0.1983(2) 0.1741(7)
Cd1_2 Cd 0.27484(2) 0.13543(1) 0.88104(4)
Ni2C Ni -0.00000 0.25000 -0.2500
Cd1B_2 Cd 0.22516(2) -0.13543(1) 0.88104(4)
N2B_2 N 0.2512(4) -0.0779(2) -0.3445(6)
Ni2B Ni 0.00000 -0.25000 0.2500
Ni2A Ni 0.50000 -0.25000 -0.2500
loop_
_geom_bond_atom_site_label_1
_geom_bond_atom_site_label_2
_geom_bond_site_symmetry_1
_geom_bond_site_symmetry_2
Cd1 N1 1_555 1_555
Ni1 C1 1_555 1_555
Ni2 C3 1_555 1_555
N1 C1 1_555 1_555
N2 C2 1_555 1_555
N3 Cd1 1_555 1_555
N4 Cd1 1_555 1_555
N5 Cd1 1_555 1_555
N6 Cd1 1_555 1_555
C2 Ni1 1_555 1_555
C3 N3 1_555 1_555
C4 N4 1_555 1_555
C5 N5 1_555 1_555
C6 N6 1_555 1_555
C7 C5 1_555 1_555
N1B C1B 1_555 1_555
C1B Ni1 1_555 1_555
N2B C2B 1_555 1_555
C2B Ni1 1_555 1_555
Cd1B N1B 1_555 1_555
N3B Cd1B 1_555 1_555
C3B N3B 1_555 1_555
N4B Cd1B 1_555 1_555
C4B N4B 1_555 1_555
N5B Cd1B 1_555 1_555
N6B Cd1B 1_555 1_555
C5B N5B 1_555 1_555
C6B N6B 1_555 1_555
C7B C5B 1_555 1_555
N2_2 Cd1 1_555 1_555
C3E Ni2 1_555 1_555
C4C Ni2 1_555 1_555
C4F Ni2 1_555 1_555
Cd1_2 N2 1_555 1_555
Ni2C C4 1_555 1_555
Cd1B_2 N2B 1_555 1_555
N2B_2 Cd1B 1_555 1_555
Ni2B C3B 1_555 1_555
Ni2A C4B 1_555 1_555
C5 C6 1_555 1_555
C5B C6B 1_555 1_555

#END
