
#######################################################################
#
#                 Cambridge Crystallographic Data Centre
#                                CCDC 
#
#######################################################################
#
# If this CIF has been generated from an entry in the Cambridge 
# Structural Database, then it will include bibliographic, chemical, 
# crystal, experimental, refinement or atomic coordinate data resulting 
# from the CCDC's data processing and validation procedures.
#
#######################################################################

data_JOKXAI
_chemical_formula_moiety         '(C21 H20 Cd2 N12 Ni2)n'
_symmetry_cell_setting           monoclinic
_symmetry_space_group_name_H-M   'A 1 1 2/a'
_symmetry_Int_Tables_number      15
_space_group_name_Hall           '-A 2a'
loop_
_symmetry_equiv_pos_site_id
_symmetry_equiv_pos_as_xyz
1 x,y,z
2 x,1/2+y,1/2+z
3 1/2-x,-y,z
4 1/2-x,1/2-y,1/2+z
5 -x,-y,-z
6 -x,1/2-y,1/2-z
7 1/2+x,y,-z
8 1/2+x,1/2+y,1/2-z
_cell_length_a                   14.083(1)
_cell_length_b                   27.047(2)
_cell_length_c                   7.616(1)
_cell_angle_alpha                90
_cell_angle_beta                 90
_cell_angle_gamma                90.16(1)
_cell_volume                     2900.95
loop_
_atom_site_label
_atom_site_type_symbol
_atom_site_fract_x
_atom_site_fract_y
_atom_site_fract_z
Cd1 Cd 0.21597(2) 0.13462(1) 0.12613(4)
Ni1 Ni 0.25000 0.00000 -0.36530(9)
Ni2 Ni 0.50000 0.25000 0.25000
N1 N 0.2386(3) 0.0786(1) -0.0868(5)
N2 N 0.2408(3) 0.0786(1) -0.6447(5)
N3 N 0.3672(3) 0.1692(1) 0.1330(6)
N4 N 0.1675(3) 0.1974(2) -0.0884(6)
N5 N 0.1758(3) 0.1932(2) 0.3484(6)
N6 N 0.0493(3) 0.1247(1) 0.1686(5)
C5 C 0.2437(3) 0.0487(1) -0.1925(5)
C6 C 0.2445(3) 0.0485(1) -0.5384(5)
C7 C 0.4188(3) 0.1994(2) 0.1765(6)
C8 C 0.1045(3) 0.2174(2) -0.1521(6)
C9 C 0.0739(5) 0.1920(4) 0.371(1)
C10 C 0.0171(5) 0.1586(4) 0.304(1)
C11 C -0.0888(4) 0.1590(3) 0.3388(9)
N1B N 0.2614(3) -0.0786(1) -0.0868(5)
C5B C 0.2563(3) -0.0487(1) -0.1925(5)
N2B N 0.2592(3) -0.0786(1) -0.6447(5)
C6B C 0.2555(3) -0.0485(1) -0.5384(5)
Cd1B Cd 0.28403(2) -0.13462(1) 0.12613(4)
N3B N 0.1328(3) -0.1692(1) 0.1330(6)
C7B C 0.0812(3) -0.1994(2) 0.1765(6)
N4B N 0.3325(3) -0.1974(2) -0.0884(6)
C8B C 0.3955(3) -0.2174(2) -0.1521(6)
N5B N 0.3242(3) -0.1932(2) 0.3484(6)
N6B N 0.4507(3) -0.1247(1) 0.1686(5)
C9B C 0.4261(5) -0.1920(4) 0.371(1)
C10B C 0.4829(5) -0.1586(4) 0.304(1)
C11B C 0.5888(4) -0.1590(3) 0.3388(9)
N2_2 N 0.2408(3) 0.0786(1) 0.3553(5)
C7E C 0.5812(3) 0.3006(2) 0.3235(6)
C8C C 0.3955(3) 0.2826(2) 0.3479(6)
C8F C 0.6045(3) 0.2174(2) 0.1521(6)
Cd1_2 Cd 0.21597(2) 0.13462(1) -0.87387(4)
Ni2C Ni -0.00000 0.25000 -0.25000
Cd1B_2 Cd 0.28403(2) -0.13462(1) -0.87387(4)
N2B_2 N 0.2592(3) -0.0786(1) 0.3553(5)
Ni2B Ni 0.00000 -0.25000 0.25000
Ni2A Ni 0.50000 -0.25000 -0.25000
C1 C 0.4776(7) 0.0447(5) 0.204(2)
C2 C 0.486(1) 0.0064(5) 0.314(2)
C3 C 0.4920(9) 0.0366(5) 0.383(3)
C4 C 0.5000 0.0000 0.50000
C2D C 0.514(1) -0.0064(5) 0.686(2)
C1D C 0.5224(7) -0.0447(5) 0.796(2)
C3D C 0.5080(9) -0.0366(5) 0.617(3)
loop_
_geom_bond_atom_site_label_1
_geom_bond_atom_site_label_2
_geom_bond_site_symmetry_1
_geom_bond_site_symmetry_2
C1 C2 1_555 1_555
C2 C3 1_555 1_555
C3 C1 1_555 1_555
C4 C2 1_555 1_555
Cd1 N1 1_555 1_555
Ni1 C5 1_555 1_555
Ni2 C7 1_555 1_555
N1 C5 1_555 1_555
N2 C6 1_555 1_555
N3 Cd1 1_555 1_555
N4 Cd1 1_555 1_555
N5 Cd1 1_555 1_555
N6 Cd1 1_555 1_555
C6 Ni1 1_555 1_555
C7 N3 1_555 1_555
C8 N4 1_555 1_555
C9 N5 1_555 1_555
C10 N6 1_555 1_555
C11 C10 1_555 1_555
C2D C4 1_555 1_555
C1D C2D 1_555 1_555
C3D C4 1_555 1_555
N1B C5B 1_555 1_555
C5B Ni1 1_555 1_555
N2B C6B 1_555 1_555
C6B Ni1 1_555 1_555
Cd1B N1B 1_555 1_555
N3B Cd1B 1_555 1_555
C7B N3B 1_555 1_555
N4B Cd1B 1_555 1_555
C8B N4B 1_555 1_555
N5B Cd1B 1_555 1_555
N6B Cd1B 1_555 1_555
C9B N5B 1_555 1_555
C10B N6B 1_555 1_555
C11B C10B 1_555 1_555
N2_2 Cd1 1_555 1_555
C7E Ni2 1_555 1_555
C8C Ni2 1_555 1_555
C8F Ni2 1_555 1_555
Cd1_2 N2 1_555 1_555
Ni2C C8 1_555 1_555
Cd1B_2 N2B 1_555 1_555
N2B_2 Cd1B 1_555 1_555
Ni2B C7B 1_555 1_555
Ni2A C8B 1_555 1_555
C3 C4 1_555 1_555
C9 C10 1_555 1_555
C2D C3D 1_555 1_555
C1D C3D 1_555 1_555
C9B C10B 1_555 1_555

#END
