
#######################################################################
#
#                 Cambridge Crystallographic Data Centre
#                                CCDC 
#
#######################################################################
#
# If this CIF has been generated from an entry in the Cambridge 
# Structural Database, then it will include bibliographic, chemical, 
# crystal, experimental, refinement or atomic coordinate data resulting 
# from the CCDC's data processing and validation procedures.
#
#######################################################################

data_JOKYEN
_chemical_formula_moiety         '(C18 H20 Cd2 Cl2 N12 Ni2)n'
_symmetry_cell_setting           orthorhombic
_symmetry_space_group_name_H-M   'P n m a'
_symmetry_Int_Tables_number      62
_space_group_name_Hall           '-P 2ac 2n'
loop_
_symmetry_equiv_pos_site_id
_symmetry_equiv_pos_as_xyz
1 x,y,z
2 1/2-x,-y,1/2+z
3 1/2+x,1/2-y,1/2-z
4 -x,1/2+y,-z
5 -x,-y,-z
6 1/2+x,y,1/2-z
7 1/2-x,1/2+y,1/2+z
8 x,1/2-y,z
_cell_length_a                   14.183(1)
_cell_length_b                   26.983(2)
_cell_length_c                   7.615(1)
_cell_angle_alpha                90
_cell_angle_beta                 90
_cell_angle_gamma                90
_cell_volume                     2914.26
loop_
_atom_site_label
_atom_site_type_symbol
_atom_site_fract_x
_atom_site_fract_y
_atom_site_fract_z
Cd1 Cd 0.21721(4) 0.11490(2) 0.12333(8)
Ni1 Ni 0.2458(1) 0.25000 -0.3861(2)
Ni2 Ni 0.0000 0.00000 0.5000
N1 N 0.2400(7) 0.1711(3) -0.106(1)
N2 N 0.2437(7) 0.1712(3) -0.665(1)
N3 N 0.1655(6) 0.0531(3) 0.339(1)
N4 N 0.3668(6) 0.0796(3) 0.117(1)
N5 N 0.1753(7) 0.0562(3) -0.097(1)
N6 N 0.0526(6) 0.1265(3) 0.079(1)
C5 C 0.2407(7) 0.2009(3) -0.211(1)
C6 C 0.2465(7) 0.2011(3) -0.559(1)
C7 C 0.1032(7) 0.0330(3) 0.401(1)
C8 C 0.4183(6) 0.0500(3) 0.074(1)
C9 C 0.075(1) 0.0578(7) -0.124(3)
C10 C 0.022(1) 0.0942(7) -0.062(3)
C11 C -0.0849(8) 0.0929(6) -0.094(2)
N1G N 0.2400(7) 0.3289(3) -0.106(1)
C5G C 0.2407(7) 0.2991(3) -0.211(1)
N2G N 0.2437(7) 0.3288(3) -0.665(1)
C6G C 0.2465(7) 0.2989(3) -0.559(1)
Cd1G Cd 0.21721(4) 0.38510(2) 0.12333(8)
N3G N 0.1655(6) 0.4469(3) 0.339(1)
C7G C 0.1032(7) 0.4670(3) 0.401(1)
N4G N 0.3668(6) 0.4204(3) 0.117(1)
C8G C 0.4183(6) 0.4500(3) 0.074(1)
N5G N 0.1753(7) 0.4438(3) -0.097(1)
N6G N 0.0526(6) 0.3735(3) 0.079(1)
C9G C 0.075(1) 0.4422(7) -0.124(3)
C10G C 0.022(1) 0.4058(7) -0.062(3)
C11G C -0.0849(8) 0.4071(6) -0.094(2)
N2_2 N 0.2437(7) 0.1712(3) 0.335(1)
C7D C -0.1032(7) -0.0330(3) 0.599(1)
C8A C 0.0817(6) -0.0500(3) 0.574(1)
C8E C -0.0817(6) 0.0500(3) 0.426(1)
Cd1_2 Cd 0.21721(4) 0.11490(2) -0.87667(8)
Ni2A Ni 0.5000 0.00000 0.0000
Cd1G_2 Cd 0.21721(4) 0.38510(2) -0.87667(8)
N2G_2 N 0.2437(7) 0.3288(3) 0.335(1)
Ni2G Ni -0.0000 0.50000 0.5000
Ni2F Ni 0.5000 0.50000 0.0000
C1 C -0.018(1) 0.2500 0.807(3)
Cl1 Cl -0.008(2) 0.1848(7) 0.495(3)
C2 C -0.005(3) 0.2500 0.61(1)
C3 C -0.053(2) 0.2500 0.42(1)
C4 C -0.007(3) 0.2500 0.205(4)
Cl1G Cl -0.008(2) 0.3152(7) 0.495(3)
loop_
_geom_bond_atom_site_label_1
_geom_bond_atom_site_label_2
_geom_bond_site_symmetry_1
_geom_bond_site_symmetry_2
C1 C2 1_555 1_555
Cl1 C2 1_555 1_555
C2 C3 1_555 1_555
C3 Cl1 1_555 1_555
C4 C3 1_555 1_555
Cd1 N1 1_555 1_555
Ni1 C5 1_555 1_555
Ni2 C7 1_555 1_555
N1 C5 1_555 1_555
N2 C6 1_555 1_555
N3 Cd1 1_555 1_555
N4 Cd1 1_555 1_555
N5 Cd1 1_555 1_555
N6 Cd1 1_555 1_555
C6 Ni1 1_555 1_555
C7 N3 1_555 1_555
C8 N4 1_555 1_555
C9 N5 1_555 1_555
C10 N6 1_555 1_555
C11 C10 1_555 1_555
Cl1G C2 1_555 1_555
N1G C5G 1_555 1_555
C5G Ni1 1_555 1_555
N2G C6G 1_555 1_555
C6G Ni1 1_555 1_555
Cd1G N1G 1_555 1_555
N3G Cd1G 1_555 1_555
C7G N3G 1_555 1_555
N4G Cd1G 1_555 1_555
C8G N4G 1_555 1_555
N5G Cd1G 1_555 1_555
N6G Cd1G 1_555 1_555
C9G N5G 1_555 1_555
C10G N6G 1_555 1_555
C11G C10G 1_555 1_555
N2_2 Cd1 1_555 1_555
C7D Ni2 1_555 1_555
C8A Ni2 1_555 1_555
C8E Ni2 1_555 1_555
Cd1_2 N2 1_555 1_555
Ni2A C8 1_555 1_555
Cd1G_2 N2G 1_555 1_555
N2G_2 Cd1G 1_555 1_555
Ni2G C7G 1_555 1_555
Ni2F C8G 1_555 1_555
C3 Cl1G 1_555 1_555
C9 C10 1_555 1_555
C9G C10G 1_555 1_555

#END
