
#######################################################################
#
#                 Cambridge Crystallographic Data Centre
#                                CCDC 
#
#######################################################################
#
# If this CIF has been generated from an entry in the Cambridge 
# Structural Database, then it will include bibliographic, chemical, 
# crystal, experimental, refinement or atomic coordinate data resulting 
# from the CCDC's data processing and validation procedures.
#
#######################################################################

data_JOKYIR
_chemical_formula_moiety         '(C18 H20 Cd2 Cl3 N12 Ni2)n'
_symmetry_cell_setting           orthorhombic
_symmetry_space_group_name_H-M   'P n m a'
_symmetry_Int_Tables_number      62
_space_group_name_Hall           '-P 2ac 2n'
loop_
_symmetry_equiv_pos_site_id
_symmetry_equiv_pos_as_xyz
1 x,y,z
2 1/2-x,-y,1/2+z
3 1/2+x,1/2-y,1/2-z
4 -x,1/2+y,-z
5 -x,-y,-z
6 1/2+x,y,1/2-z
7 1/2-x,1/2+y,1/2+z
8 x,1/2-y,z
_cell_length_a                   14.104(3)
_cell_length_b                   26.799(1)
_cell_length_c                   7.657(1)
_cell_angle_alpha                90
_cell_angle_beta                 90
_cell_angle_gamma                90
_cell_volume                     2894.14
loop_
_atom_site_label
_atom_site_type_symbol
_atom_site_fract_x
_atom_site_fract_y
_atom_site_fract_z
Cd1 Cd 0.21640(5) 0.11507(3) 0.1234(1)
Ni1 Ni 0.2464(1) 0.2500 -0.3855(3)
Ni2 Ni 0.0000 -0.0000 0.5000
N1 N 0.2410(8) 0.1716(4) -0.103(1)
N2 N 0.2414(8) 0.1711(3) -0.665(1)
N3 N 0.1654(7) 0.0527(4) 0.336(1)
N4 N 0.3686(7) 0.0807(4) 0.119(2)
N5 N 0.1756(8) 0.0560(4) -0.097(2)
N6 N 0.0521(7) 0.1275(4) 0.078(1)
C4 C 0.2435(8) 0.2009(3) -0.213(1)
C5 C 0.2454(9) 0.2013(4) -0.558(1)
C6 C 0.1041(8) 0.0329(4) 0.401(1)
C7 C 0.4183(8) 0.0502(4) 0.075(1)
C8 C 0.074(1) 0.0597(8) -0.126(3)
C9 C 0.020(1) 0.0940(8) -0.061(3)
C10 C -0.0869(9) 0.0943(7) -0.092(2)
N1G N 0.2410(8) 0.3284(4) -0.103(1)
C4G C 0.2435(8) 0.2991(3) -0.213(1)
N2G N 0.2414(8) 0.3289(3) -0.665(1)
C5G C 0.2454(9) 0.2987(4) -0.558(1)
Cd1G Cd 0.21640(5) 0.38493(3) 0.1234(1)
N3G N 0.1654(7) 0.4473(4) 0.336(1)
C6G C 0.1041(8) 0.4671(4) 0.401(1)
N4G N 0.3686(7) 0.4193(4) 0.119(2)
C7G C 0.4183(8) 0.4498(4) 0.075(1)
N5G N 0.1756(8) 0.4440(4) -0.097(2)
N6G N 0.0521(7) 0.3725(4) 0.078(1)
C8G C 0.074(1) 0.4403(8) -0.126(3)
C9G C 0.020(1) 0.4060(8) -0.061(3)
C10G C -0.0869(9) 0.4057(7) -0.092(2)
N2_2 N 0.2414(8) 0.1711(3) 0.335(1)
C6D C -0.1041(8) -0.0329(4) 0.599(1)
C7A C 0.0817(8) -0.0502(4) 0.575(1)
C7E C -0.0817(8) 0.0502(4) 0.425(1)
Cd1_2 Cd 0.21640(5) 0.11507(3) -0.8766(1)
Ni2A Ni 0.5000 0.0000 0.0000
Cd1G_2 Cd 0.21640(5) 0.38493(3) -0.8766(1)
N2G_2 N 0.2414(8) 0.3289(3) 0.335(1)
Ni2G Ni 0.0000 0.5000 0.5000
Ni2F Ni 0.5000 0.5000 0.0000
Cl1 Cl -0.0237(6) 0.2500 0.826(1)
Cl2 Cl -0.000(1) 0.3150(6) 0.507(2)
C1 C -0.009(3) 0.272(1) 0.613(7)
C2 C -0.056(2) 0.2500 0.456(6)
C3 C -0.022(1) 0.2500 0.250(3)
Cl2G Cl -0.000(1) 0.1850(6) 0.507(2)
C1G C -0.009(3) 0.228(1) 0.613(7)
loop_
_geom_bond_atom_site_label_1
_geom_bond_atom_site_label_2
_geom_bond_site_symmetry_1
_geom_bond_site_symmetry_2
Cl1 C1 1_555 1_555
Cl2 C1 1_555 1_555
C1 C2 1_555 1_555
C2 Cl2 1_555 1_555
C3 C2 1_555 1_555
Cd1 N1 1_555 1_555
Ni1 C4 1_555 1_555
Ni2 C6 1_555 1_555
N1 C4 1_555 1_555
N2 C5 1_555 1_555
N3 Cd1 1_555 1_555
N4 Cd1 1_555 1_555
N5 Cd1 1_555 1_555
N6 Cd1 1_555 1_555
C5 Ni1 1_555 1_555
C6 N3 1_555 1_555
C7 N4 1_555 1_555
C8 N5 1_555 1_555
C9 N6 1_555 1_555
C10 C9 1_555 1_555
Cl2G C2 1_555 1_555
C1G Cl1 1_555 1_555
N1G C4G 1_555 1_555
C4G Ni1 1_555 1_555
N2G C5G 1_555 1_555
C5G Ni1 1_555 1_555
Cd1G N1G 1_555 1_555
N3G Cd1G 1_555 1_555
C6G N3G 1_555 1_555
N4G Cd1G 1_555 1_555
C7G N4G 1_555 1_555
N5G Cd1G 1_555 1_555
N6G Cd1G 1_555 1_555
C8G N5G 1_555 1_555
C9G N6G 1_555 1_555
C10G C9G 1_555 1_555
N2_2 Cd1 1_555 1_555
C6D Ni2 1_555 1_555
C7A Ni2 1_555 1_555
C7E Ni2 1_555 1_555
Cd1_2 N2 1_555 1_555
Ni2A C7 1_555 1_555
Cd1G_2 N2G 1_555 1_555
N2G_2 Cd1G 1_555 1_555
Ni2G C6G 1_555 1_555
Ni2F C7G 1_555 1_555
C1 C1G 1_555 1_555
C2 C1G 1_555 1_555
C8 C9 1_555 1_555
Cl2G C1G 1_555 1_555
C8G C9G 1_555 1_555

#END
