
#######################################################################
#
#                 Cambridge Crystallographic Data Centre
#                                CCDC 
#
#######################################################################
#
# If this CIF has been generated from an entry in the Cambridge 
# Structural Database, then it will include bibliographic, chemical, 
# crystal, experimental, refinement or atomic coordinate data resulting 
# from the CCDC's data processing and validation procedures.
#
#######################################################################

data_JOKYOX
_chemical_formula_moiety         '(C17 H20 Cd2 N12 Ni2 O2)n'
_symmetry_cell_setting           orthorhombic
_symmetry_space_group_name_H-M   'P n m a'
_symmetry_Int_Tables_number      62
_space_group_name_Hall           '-P 2ac 2n'
loop_
_symmetry_equiv_pos_site_id
_symmetry_equiv_pos_as_xyz
1 x,y,z
2 1/2-x,-y,1/2+z
3 1/2+x,1/2-y,1/2-z
4 -x,1/2+y,-z
5 -x,-y,-z
6 1/2+x,y,1/2-z
7 1/2-x,1/2+y,1/2+z
8 x,1/2-y,z
_cell_length_a                   14.157(3)
_cell_length_b                   26.699(2)
_cell_length_c                   7.586(2)
_cell_angle_alpha                90
_cell_angle_beta                 90
_cell_angle_gamma                90
_cell_volume                     2867.34
loop_
_atom_site_label
_atom_site_type_symbol
_atom_site_fract_x
_atom_site_fract_y
_atom_site_fract_z
Cd1 Cd 0.21894(4) 0.11414(2) 0.13075(7)
Ni1 Ni 0.2489(1) 0.2500 -0.3759(2)
Ni2 Ni -0.0000 0.0000 0.5000
N1 N 0.2490(6) 0.1714(3) -0.095(1)
N2 N 0.2421(6) 0.1707(2) -0.6548(9)
N3 N 0.1670(5) 0.0515(3) 0.338(1)
N4 N 0.3696(5) 0.080(3) 0.126(1)
N5 N 0.1765(5) 0.0570(3) -0.099(1)
N6 N 0.0563(5) 0.1295(3) 0.0800(9)
C4 C 0.2490(6) 0.2014(3) -0.202(1)
C5 C 0.2465(6) 0.2008(3) -0.5487(9)
C6 C 0.1043(6) 0.0316(3) 0.401(1)
C7 C 0.4201(4) 0.0502(3) 0.0807(9)
C8 C 0.0753(8) 0.0604(6) -0.123(2)
C9 C 0.0255(8) 0.0986(7) -0.064(2)
C10 C -0.0796(7) 0.1005(6) -0.0104(2)
N1G N 0.2490(6) 0.3286(3) -0.095(1)
C4G C 0.2490(6) 0.2986(3) -0.202(1)
N2G N 0.2421(6) 0.3293(2) -0.6548(9)
C5G C 0.2465(6) 0.2992(3) -0.5487(9)
Cd1G Cd 0.21894(4) 0.38586(2) 0.13075(7)
N3G N 0.1670(5) 0.4485(3) 0.338(1)
C6G C 0.1043(6) 0.4684(3) 0.401(1)
N4G N 0.3696(5) 0.420(3) 0.126(1)
C7G C 0.4201(4) 0.4498(3) 0.0807(9)
N5G N 0.1765(5) 0.4430(3) -0.099(1)
N6G N 0.0563(5) 0.3705(3) 0.0800(9)
C8G C 0.0753(8) 0.4396(6) -0.123(2)
C9G C 0.0255(8) 0.4014(7) -0.064(2)
C10G C -0.0796(7) 0.3995(6) -0.0104(2)
N2_2 N 0.2421(6) 0.1707(2) 0.3452(9)
C6D C -0.1043(6) -0.0316(3) 0.599(1)
C7A C 0.0799(4) -0.0502(3) 0.5807(9)
C7E C -0.0799(4) 0.0502(3) 0.4193(9)
Cd1_2 Cd 0.21894(4) 0.11414(2) -0.86925(7)
Ni2A Ni 0.5000 0.0000 0.0000
Cd1G_2 Cd 0.21894(4) 0.38586(2) -0.86925(7)
N2G_2 N 0.2421(6) 0.3293(2) 0.3452(9)
Ni2G Ni 0.0000 0.5000 0.5000
Ni2F Ni 0.5000 0.5000 0.0000
C1 C -0.049(2) 0.2500 0.339(7)
C2 C 0.034(3) 0.2500 0.23(1)
C3 C -0.015(3) 0.2500 0.556(9)
O1 O -0.020(2) 0.199(1) 0.442(5)
O1G O -0.020(2) 0.301(1) 0.442(5)
loop_
_geom_bond_atom_site_label_1
_geom_bond_atom_site_label_2
_geom_bond_site_symmetry_1
_geom_bond_site_symmetry_2
C1 C2 1_555 1_555
C3 C1 1_555 1_555
O1 C1 1_555 1_555
Cd1 N1 1_555 1_555
Ni1 C4 1_555 1_555
Ni2 C6 1_555 1_555
N1 C4 1_555 1_555
N2 C5 1_555 1_555
N3 Cd1 1_555 1_555
N4 Cd1 1_555 1_555
N5 Cd1 1_555 1_555
N6 Cd1 1_555 1_555
C5 Ni1 1_555 1_555
C6 N3 1_555 1_555
C7 N4 1_555 1_555
C8 N5 1_555 1_555
C9 N6 1_555 1_555
C10 C9 1_555 1_555
O1G C1 1_555 1_555
N1G C4G 1_555 1_555
C4G Ni1 1_555 1_555
N2G C5G 1_555 1_555
C5G Ni1 1_555 1_555
Cd1G N1G 1_555 1_555
N3G Cd1G 1_555 1_555
C6G N3G 1_555 1_555
N4G Cd1G 1_555 1_555
C7G N4G 1_555 1_555
N5G Cd1G 1_555 1_555
N6G Cd1G 1_555 1_555
C8G N5G 1_555 1_555
C9G N6G 1_555 1_555
C10G C9G 1_555 1_555
N2_2 Cd1 1_555 1_555
C6D Ni2 1_555 1_555
C7A Ni2 1_555 1_555
C7E Ni2 1_555 1_555
Cd1_2 N2 1_555 1_555
Ni2A C7 1_555 1_555
Cd1G_2 N2G 1_555 1_555
N2G_2 Cd1G 1_555 1_555
Ni2G C6G 1_555 1_555
Ni2F C7G 1_555 1_555
C3 O1 1_555 1_555
C3 O1G 1_555 1_555
C8 C9 1_555 1_555
C8G C9G 1_555 1_555

#END
