
#######################################################################
#
#                 Cambridge Crystallographic Data Centre
#                                CCDC 
#
#######################################################################
#
# If this CIF has been generated from an entry in the Cambridge 
# Structural Database, then it will include bibliographic, chemical, 
# crystal, experimental, refinement or atomic coordinate data resulting 
# from the CCDC's data processing and validation procedures.
#
#######################################################################

data_KAPGEP
_chemical_formula_moiety         '(C28 H32 Ag1 F6 N4 O4 Sb1)n'
_symmetry_cell_setting           orthorhombic
_symmetry_space_group_name_H-M   'P n n n'
_symmetry_Int_Tables_number      48
_space_group_name_Hall           '-P 2ab 2bc'
loop_
_symmetry_equiv_pos_site_id
_symmetry_equiv_pos_as_xyz
1 x,y,z
2 1/2-x,1/2-y,z
3 1/2-x,y,1/2-z
4 x,1/2-y,1/2-z
5 -x,-y,-z
6 1/2+x,1/2+y,-z
7 1/2+x,-y,1/2+z
8 -x,1/2+y,1/2+z
_cell_length_a                   14.348(3)
_cell_length_b                   14.475(3)
_cell_length_c                   14.983(3)
_cell_angle_alpha                90
_cell_angle_beta                 90
_cell_angle_gamma                90
_cell_volume                     3111.78
loop_
_atom_site_label
_atom_site_type_symbol
_atom_site_fract_x
_atom_site_fract_y
_atom_site_fract_z
_atom_site_U_iso_or_equiv
_atom_site_thermal_displace_type
Ag1 Ag 0.2500 0.2500 0.50177(11) 0.1007 Uani
C1 C 0.0364(5) 0.1996(5) 0.2475(5) 0.0577 Uani
H1 H -0.0204 0.1751 0.2735 0.0690 Uiso
H2 H 0.0399 0.1797 0.1858 0.0690 Uiso
C2 C 0.1298(6) 0.0731(6) 0.3049(5) 0.0587 Uani
C3 C 0.0711(7) 0.0067(7) 0.2694(7) 0.0743 Uani
H3 H 0.0193 0.0237 0.2359 0.0890 Uiso
C4 C 0.0919(8) -0.0877(7) 0.2851(8) 0.0907 Uani
H4 H 0.0543 -0.1342 0.2620 0.1090 Uiso
C5 C 0.1707(9) -0.1089(9) 0.3364(8) 0.0967 Uani
H5 H 0.1834 -0.1706 0.3489 0.1160 Uiso
C6 C 0.2285(9) -0.0441(9) 0.3682(7) 0.0893 Uani
H6 H 0.2822 -0.0624 0.3981 0.1070 Uiso
C7 C 0.2106(7) 0.0492(7) 0.3578(6) 0.0773 Uani
C8 C 0.0338(5) 0.2777(4) 0.5364(4) 0.0423 Uani
C9 C -0.0018(6) 0.3673(4) 0.5233(5) 0.0600 Uani
H7 H 0.0286 0.4174 0.5491 0.0720 Uiso
C10 C -0.0800(6) 0.3821(5) 0.4734(6) 0.0650 Uani
H8 H -0.1013 0.4421 0.4646 0.0780 Uiso
C11 C -0.1275(5) 0.3098(5) 0.4362(6) 0.0607 Uani
H9 H -0.1811 0.3203 0.4028 0.0730 Uiso
C12 C -0.0952(5) 0.2213(4) 0.4486(5) 0.0487 Uani
H10 H -0.1277 0.1719 0.4240 0.0580 Uiso
C13 C -0.0156(4) 0.2052(4) 0.4968(4) 0.0393 Uani
C14 C -0.0259(4) 0.0400(4) 0.4829(4) 0.0353 Uani
H11 H -0.0293 0.0380 0.4183 0.0420 Uiso
H12 H -0.0888 0.0404 0.5066 0.0420 Uiso
N1 N 0.2698(5) 0.1253(7) 0.3877(4) 0.0907 Uani
H13 H 0.2830 0.1563 0.3371 0.1090 Uiso
H14 H 0.3234 0.0975 0.4035 0.1090 Uiso
N2 N 0.1161(4) 0.2587(4) 0.5834(4) 0.0507 Uani
H15 H 0.1086 0.2047 0.6123 0.0610 Uiso
H16 H 0.1236 0.3028 0.6251 0.0610 Uiso
O1 O 0.0237(3) 0.1199(3) 0.5115(3) 0.0417 Uani
O2 O 0.1169(3) 0.1664(3) 0.2967(3) 0.0547 Uani
Ag1B Ag 0.2500 0.2500 -0.00177(11) 0.1007 Uani
Ag1D Ag -0.2500 -0.2500 0.49823(11) 0.1007 Uani
C1C C 0.0364(5) 0.3004(5) 0.2525(5) 0.0577 Uani
H1C H -0.0204 0.3249 0.2265 0.0690 Uiso
H2C H 0.0399 0.3203 0.3142 0.0690 Uiso
C2C C 0.1298(6) 0.4269(6) 0.1951(5) 0.0587 Uani
C3C C 0.0711(7) 0.4933(7) 0.2306(7) 0.0743 Uani
H3C H 0.0193 0.4763 0.2641 0.0890 Uiso
C4C C 0.0919(8) 0.5877(7) 0.2149(8) 0.0907 Uani
H4C H 0.0543 0.6342 0.2380 0.1090 Uiso
C5C C 0.1707(9) 0.6089(9) 0.1636(8) 0.0967 Uani
H5C H 0.1834 0.6706 0.1511 0.1160 Uiso
C6C C 0.2285(9) 0.5441(9) 0.1318(7) 0.0893 Uani
H6C H 0.2822 0.5624 0.1019 0.1070 Uiso
C7C C 0.2106(7) 0.4508(7) 0.1422(6) 0.0773 Uani
C8D C -0.0338(5) -0.2777(4) 0.4636(4) 0.0423 Uani
C9D C 0.0018(6) -0.3673(4) 0.4767(5) 0.0600 Uani
H7D H -0.0286 -0.4174 0.4509 0.0720 Uiso
C10D C 0.0800(6) -0.3821(5) 0.5266(6) 0.0650 Uani
H8D H 0.1013 -0.4421 0.5354 0.0780 Uiso
C11D C 0.1275(5) -0.3098(5) 0.5638(6) 0.0607 Uani
H9D H 0.1811 -0.3203 0.5972 0.0730 Uiso
C12D C 0.0952(5) -0.2213(4) 0.5514(5) 0.0487 Uani
H10D H 0.1277 -0.1719 0.5760 0.0580 Uiso
C13D C 0.0156(4) -0.2052(4) 0.5032(4) 0.0393 Uani
C14D C 0.0259(4) -0.0400(4) 0.5171(4) 0.0353 Uani
H11D H 0.0293 -0.0380 0.5817 0.0420 Uiso
H12D H 0.0888 -0.0404 0.4934 0.0420 Uiso
N1C N 0.2698(5) 0.3747(7) 0.1123(4) 0.0907 Uani
N1A N 0.2302(5) 0.3747(7) 0.3877(4) 0.0907 Uani
H13C H 0.2830 0.3437 0.1629 0.1090 Uiso
H13A H 0.2170 0.3437 0.3371 0.1090 Uiso
H14C H 0.3234 0.4025 0.0965 0.1090 Uiso
H14A H 0.1766 0.4025 0.4035 0.1090 Uiso
N2D N -0.1161(4) -0.2587(4) 0.4166(4) 0.0507 Uani
N2A N 0.3839(4) 0.2413(4) 0.5834(4) 0.0507 Uani
H15D H -0.1086 -0.2047 0.3877 0.0610 Uiso
H15A H 0.3914 0.2953 0.6123 0.0610 Uiso
H16D H -0.1236 -0.3028 0.3749 0.0610 Uiso
H16A H 0.3764 0.1972 0.6251 0.0610 Uiso
O1D O -0.0237(3) -0.1199(3) 0.4885(3) 0.0417 Uani
O2C O 0.1169(3) 0.3336(3) 0.2033(3) 0.0547 Uani
Sb1 Sb 0.2500 0.03112(4) 0.7500 0.0347 Uani
F1 F 0.2650(6) 0.0362(5) 0.6253(5) 0.0803 Uani
F2 F 0.1622(6) 0.1253(4) 0.7367(5) 0.1260 Uani
F3 F 0.1640(5) -0.0615(5) 0.7304(6) 0.1327 Uani
F1B F 0.2350(6) 0.0362(5) 0.8747(5) 0.0803 Uani
F2B F 0.3378(6) 0.1253(4) 0.7633(5) 0.1260 Uani
F3B F 0.3360(5) -0.0615(5) 0.7696(6) 0.1327 Uani
loop_
_atom_site_aniso_label
_atom_site_aniso_U_11
_atom_site_aniso_U_22
_atom_site_aniso_U_33
_atom_site_aniso_U_23
_atom_site_aniso_U_13
_atom_site_aniso_U_12
Ag1 0.068(7) 0.19(3) 0.0441(9) 0.000 0.000 0.056(15)
C1 0.047(4) 0.067(5) 0.059(4) 0.002(4) 0.007(3) 0.000(4)
C2 0.065(5) 0.066(5) 0.045(4) 0.006(4) 0.025(4) 0.007(4)
C3 0.060(5) 0.073(6) 0.090(7) 0.007(5) 0.027(5) 0.006(5)
C4 0.099(8) 0.070(6) 0.103(8) 0.002(6) 0.056(7) -0.013(6)
C5 0.100(8) 0.096(8) 0.094(8) 0.043(7) 0.059(7) 0.046(7)
C6 0.109(9) 0.101(8) 0.058(6) 0.031(6) 0.036(6) 0.037(7)
C7 0.079(6) 0.098(7) 0.055(5) 0.039(5) 0.040(5) 0.053(6)
C8 0.047(4) 0.031(3) 0.049(4) -0.003(3) 0.009(3) -0.010(3)
C9 0.079(6) 0.022(3) 0.079(5) -0.010(3) 0.023(5) -0.010(3)
C10 0.052(5) 0.028(3) 0.115(7) 0.004(4) 0.019(5) 0.003(3)
C11 0.043(4) 0.046(4) 0.093(6) 0.012(4) 0.008(4) 0.002(3)
C12 0.044(4) 0.034(3) 0.068(5) 0.008(3) 0.007(3) -0.003(3)
C13 0.044(3) 0.030(3) 0.044(3) -0.001(3) 0.006(3) -0.007(3)
C14 0.035(3) 0.026(3) 0.045(3) -0.005(2) 0.008(3) -0.008(2)
N1 0.044(4) 0.183(9) 0.045(4) -0.058(5) -0.003(3) 0.007(5)
N2 0.065(4) 0.041(3) 0.046(3) -0.006(2) -0.003(3) -0.017(3)
O1 0.044(2) 0.0211(18) 0.060(3) -0.0004(18) -0.007(2) -0.0058(18)
O2 0.058(3) 0.063(3) 0.043(3) 0.010(2) 0.004(2) 0.005(3)
Ag1B 0.068 0.19 0.0441 0 0 -0.056
Ag1D 0.068 0.19 0.0441 0 0 0.056
C1C 0.047 0.067 0.059 0.002 -0.007 0
C2C 0.065 0.066 0.045 0.006 -0.025 -0.007
C3C 0.06 0.073 0.09 0.007 -0.027 -0.006
C4C 0.099 0.07 0.103 0.002 -0.056 0.013
C5C 0.1 0.096 0.094 0.043 -0.059 -0.046
C6C 0.109 0.101 0.058 0.031 -0.036 -0.037
C7C 0.079 0.098 0.055 0.039 -0.04 -0.053
C8D 0.047 0.031 0.049 -0.003 0.009 -0.01
C9D 0.079 0.022 0.079 -0.01 0.023 -0.01
C10D 0.052 0.028 0.115 0.004 0.019 0.003
C11D 0.043 0.046 0.093 0.012 0.008 0.002
C12D 0.044 0.034 0.068 0.008 0.007 -0.003
C13D 0.044 0.03 0.044 -0.001 0.006 -0.007
C14D 0.035 0.026 0.045 -0.005 0.008 -0.008
N1C 0.044 0.183 0.045 -0.058 0.003 -0.007
N1A 0.044 0.183 0.045 0.058 0.003 0.007
N2D 0.065 0.041 0.046 -0.006 -0.003 -0.017
N2A 0.065 0.041 0.046 0.006 0.003 -0.017
O1D 0.044 0.0211 0.06 -0.0004 -0.007 -0.0058
O2C 0.058 0.063 0.043 0.01 -0.004 -0.005
Sb1 0.0335(3) 0.0319(3) 0.0387(4) 0.000 0.0042(2) 0.000
F1 0.105(6) 0.090(6) 0.046(4) 0.005(3) 0.005(4) 0.000(4)
F2 0.128(6) 0.074(4) 0.176(7) -0.001(4) -0.040(5) 0.044(4)
F3 0.109(5) 0.083(4) 0.206(8) 0.015(5) -0.068(5) -0.046(4)
F1B 0.105 0.09 0.046 -0.005 0.005 0
F2B 0.128 0.074 0.176 0.001 -0.04 -0.044
F3B 0.109 0.083 0.206 -0.015 -0.068 0.046
loop_
_geom_bond_atom_site_label_1
_geom_bond_atom_site_label_2
_geom_bond_site_symmetry_1
_geom_bond_site_symmetry_2
Ag1 N1 1_555 1_555
Sb1 F1 1_555 1_555
F2 Sb1 1_555 1_555
F3 Sb1 1_555 1_555
C1 H1 1_555 1_555
H2 C1 1_555 1_555
C2 C3 1_555 1_555
C3 H3 1_555 1_555
C4 C3 1_555 1_555
H4 C4 1_555 1_555
C5 C4 1_555 1_555
H5 C5 1_555 1_555
C6 C5 1_555 1_555
H6 C6 1_555 1_555
C7 C2 1_555 1_555
C8 C9 1_555 1_555
C9 H7 1_555 1_555
C10 C9 1_555 1_555
H8 C10 1_555 1_555
C11 C10 1_555 1_555
H9 C11 1_555 1_555
C12 C11 1_555 1_555
H10 C12 1_555 1_555
C13 C8 1_555 1_555
C14 H11 1_555 1_555
H12 C14 1_555 1_555
N1 C7 1_555 1_555
H13 N1 1_555 1_555
H14 N1 1_555 1_555
N2 Ag1 1_555 1_555
H15 N2 1_555 1_555
H16 N2 1_555 1_555
O1 C13 1_555 1_555
O2 C1 1_555 1_555
Ag1B N1C 1_555 1_555
Ag1D N2D 1_555 1_555
F1B Sb1 1_555 1_555
F2B Sb1 1_555 1_555
F3B Sb1 1_555 1_555
C1C C1 1_555 1_555
H1C C1C 1_555 1_555
H2C C1C 1_555 1_555
C2C C3C 1_555 1_555
C3C H3C 1_555 1_555
C4C C3C 1_555 1_555
H4C C4C 1_555 1_555
C5C C4C 1_555 1_555
H5C C5C 1_555 1_555
C6C C5C 1_555 1_555
H6C C6C 1_555 1_555
C7C C2C 1_555 1_555
C8D C9D 1_555 1_555
C9D H7D 1_555 1_555
C10D C9D 1_555 1_555
H8D C10D 1_555 1_555
C11D C10D 1_555 1_555
H9D C11D 1_555 1_555
C12D C11D 1_555 1_555
H10D C12D 1_555 1_555
C13D C8D 1_555 1_555
C14D C14 1_555 1_555
H11D C14D 1_555 1_555
H12D C14D 1_555 1_555
N1C C7C 1_555 1_555
N1A Ag1 1_555 1_555
H13C N1C 1_555 1_555
H13A N1A 1_555 1_555
H14C N1C 1_555 1_555
H14A N1A 1_555 1_555
N2D C8D 1_555 1_555
N2A Ag1 1_555 1_555
H15D N2D 1_555 1_555
H15A N2A 1_555 1_555
H16D N2D 1_555 1_555
H16A N2A 1_555 1_555
O1D C13D 1_555 1_555
O2C C1C 1_555 1_555
C2 O2 1_555 1_555
C6 C7 1_555 1_555
C8 N2 1_555 1_555
C12 C13 1_555 1_555
C14 O1 1_555 1_555
C2C O2C 1_555 1_555
C6C C7C 1_555 1_555
C12D C13D 1_555 1_555
C14D O1D 1_555 1_555

#END
