
#######################################################################
#
#                 Cambridge Crystallographic Data Centre
#                                CCDC 
#
#######################################################################
#
# If this CIF has been generated from an entry in the Cambridge 
# Structural Database, then it will include bibliographic, chemical, 
# crystal, experimental, refinement or atomic coordinate data resulting 
# from the CCDC's data processing and validation procedures.
#
#######################################################################

data_KODPUP
_chemical_formula_moiety         '(C28 H36 N2 Nd2 O14)n'
_symmetry_cell_setting           orthorhombic
_symmetry_space_group_name_H-M   'P b c n'
_symmetry_Int_Tables_number      60
_space_group_name_Hall           '-P 2n 2ab'
loop_
_symmetry_equiv_pos_site_id
_symmetry_equiv_pos_as_xyz
1 x,y,z
2 1/2-x,1/2-y,1/2+z
3 1/2+x,1/2-y,-z
4 -x,y,1/2-z
5 -x,-y,-z
6 1/2+x,1/2+y,1/2-z
7 1/2-x,1/2+y,z
8 x,-y,1/2+z
_cell_length_a                   22.012(6)
_cell_length_b                   7.778(2)
_cell_length_c                   19.724(5)
_cell_angle_alpha                90
_cell_angle_beta                 90
_cell_angle_gamma                90
_cell_volume                     3376.93
loop_
_atom_site_label
_atom_site_type_symbol
_atom_site_fract_x
_atom_site_fract_y
_atom_site_fract_z
Nd1 Nd 0.2811(1) 0.4228(1) 0.0552(1)
O1 O 0.2376(2) 0.1924(5) 0.1243(2)
O2 O 0.1803(2) 0.0015(6) 0.1746(2)
O3 O 0.2507(2) 0.3321(6) 0.4807(2)
O4 O 0.1794(2) 0.1654(5) 0.4391(3)
C1 C 0.2006(3) 0.1495(8) 0.1717(3)
C2 C 0.1974(5) 0.2888(14) 0.2286(5)
C3 C 0.1533(4) 0.2403(12) 0.2838(4)
O5 O 0.3610(2) 0.2164(5) 0.0753(2)
C4 C 0.4380(2) 0.0041(8) 0.0704(3)
O6 O 0.3710(2) 0.6080(5) 0.0361(2)
C5 C 0.1409(4) 0.3801(14) 0.3351(4)
C6 C 0.1942(7) 0.4269(13) 0.3799(5)
C7 C 0.2080(2) 0.3018(7) 0.4366(3)
O7 O 0.3323(1) -0.0533(5) 0.0557(2)
C8 C 0.3721(2) 0.0606(8) 0.0682(3)
C9 C 0.4666(2) 0.0255(8) 0.0011(3)
Nd1F Nd 0.2189(1) 0.9228(1) 0.0552(1)
Nd1F_2 Nd 0.2189(1) -0.0772(1) 0.0552(1)
Nd1A Nd 0.2189(1) 0.0772(1) 0.5552(1)
Nd1G Nd 0.2811(1) 0.5772(1) 0.5552(1)
Nd1D Nd 0.7189(1) -0.4228(1) -0.0552(1)
Nd1B Nd 0.7811(1) 0.0772(1) -0.0552(1)
Nd1A_2 Nd 0.2189(1) 1.0772(1) 0.5552(1)
O1F O 0.2624(2) 0.6924(5) 0.1243(2)
O1_2 O 0.2376(2) 1.1924(5) 0.1243(2)
O2F O 0.3197(2) 0.5015(6) 0.1746(2)
O2_2 O 0.1803(2) 1.0015(6) 0.1746(2)
O3F O 0.2493(2) 0.8321(6) 0.4807(2)
O3A O 0.2493(2) 0.1679(6) -0.0193(2)
O3G O 0.2507(2) 0.6679(6) -0.0193(2)
O3A_2 O 0.2493(2) 1.1679(6) -0.0193(2)
O4F O 0.3206(2) 0.6654(5) 0.4391(3)
O4A O 0.3206(2) 0.3346(5) -0.0609(3)
O4G O 0.1794(2) 0.8346(5) -0.0609(3)
C1F C 0.2994(3) 0.6495(8) 0.1717(3)
C2F C 0.3026(5) 0.7888(14) 0.2286(5)
C3F C 0.3467(4) 0.7403(12) 0.2838(4)
O5D O 0.6390(2) -0.2164(5) -0.0753(2)
O5F O 0.1390(2) 0.7164(5) 0.0753(2)
C4D C 0.5620(2) -0.0041(8) -0.0704(3)
O6F O 0.1290(2) 1.1080(5) 0.0361(2)
C5F C 0.3591(4) 0.8801(14) 0.3351(4)
C6F C 0.3058(7) 0.9269(13) 0.3799(5)
C7F C 0.2920(2) 0.8018(7) 0.4366(3)
O7D O 0.6677(1) 0.0533(5) -0.0557(2)
O7F O 0.1677(1) 0.4467(5) 0.0557(2)
O7_2 O 0.3323(1) 0.9467(5) 0.0557(2)
C8D C 0.6279(2) -0.0606(8) -0.0682(3)
C9D C 0.5334(2) -0.0255(8) -0.0011(3)
N1 N 0.0635(2) 0.0944(8) 0.9158(3)
C10 C 0.0744(3) 0.1335(9) 0.7959(4)
C11 C -0.0219(3) 0.0609(9) 0.8410(3)
C12 C 0.0963(3) 0.1294(9) 0.8611(4)
C13 C 0.0131(2) 0.0990(8) 0.7850(3)
C14 C 0.0047(3) 0.0622(10) 0.9045(3)
N1C N -0.0635(2) 0.0944(8) 0.5842(3)
C10C C -0.0744(3) 0.1335(9) 0.7041(4)
C11C C 0.0219(3) 0.0609(9) 0.6590(3)
C12C C -0.0963(3) 0.1294(9) 0.6389(4)
C13C C -0.0131(2) 0.0990(8) 0.7150(3)
C14C C -0.0047(3) 0.0622(10) 0.5955(3)
loop_
_geom_bond_atom_site_label_1
_geom_bond_atom_site_label_2
_geom_bond_site_symmetry_1
_geom_bond_site_symmetry_2
Nd1 O1 1_555 1_555
O1 C1 1_555 1_555
O2 C1 1_555 1_555
O3 C7 1_555 1_555
O4 C7 1_555 1_555
C1 C2 1_555 1_555
C2 C3 1_555 1_555
C3 C5 1_555 1_555
O5 Nd1 1_555 1_555
C4 C8 1_555 1_555
O6 Nd1 1_555 1_555
C5 C6 1_555 1_555
C6 C7 1_555 1_555
O7 C8 1_555 1_555
C8 O5 1_555 1_555
C9 C4 1_555 1_555
N1 C12 1_555 1_555
C10 C12 1_555 1_555
C11 C13 1_555 1_555
C13 C10 1_555 1_555
C14 N1 1_555 1_555
Nd1F O1F 1_555 1_555
Nd1F_2 O1 1_555 1_555
Nd1A O3 1_555 1_555
Nd1G O3 1_555 1_555
Nd1D O5D 1_555 1_555
Nd1B O7D 1_555 1_555
Nd1A_2 O3F 1_555 1_555
O1F Nd1 1_555 1_555
O1_2 Nd1F 1_555 1_555
O2F Nd1 1_555 1_555
O2_2 Nd1F 1_555 1_555
O3F Nd1G 1_555 1_555
O3A Nd1 1_555 1_555
O3G Nd1 1_555 1_555
O3A_2 Nd1F 1_555 1_555
O4F Nd1G 1_555 1_555
O4A Nd1 1_555 1_555
O4G Nd1F 1_555 1_555
C1F O1F 1_555 1_555
C2F C1F 1_555 1_555
C3F C2F 1_555 1_555
O5D C8D 1_555 1_555
O5F Nd1F 1_555 1_555
C4D C8D 1_555 1_555
O6F Nd1F 1_555 1_555
C5F C3F 1_555 1_555
C6F C5F 1_555 1_555
C7F O3F 1_555 1_555
O7D C8D 1_555 1_555
O7F Nd1 1_555 1_555
O7_2 Nd1F 1_555 1_555
C9D C9 1_555 1_555
N1C C12C 1_555 1_555
C10C C12C 1_555 1_555
C11C C13C 1_555 1_555
C13C C13 1_555 1_555
C14C N1C 1_555 1_555
O2 Nd1F_2 1_555 1_555
O4 Nd1A 1_555 1_555
O7 Nd1F_2 1_555 1_555
C11 C14 1_555 1_555
Nd1F O3G 1_555 1_555
Nd1F_2 O3A 1_555 1_555
O2F C1F 1_555 1_555
O4F C7F 1_555 1_555
C4D C9D 1_555 1_555
C6F C7F 1_555 1_555
C10C C13C 1_555 1_555
C11C C14C 1_555 1_555

#END
