
#######################################################################
#
#                 Cambridge Crystallographic Data Centre
#                                CCDC 
#
#######################################################################
#
# If this CIF has been generated from an entry in the Cambridge 
# Structural Database, then it will include bibliographic, chemical, 
# crystal, experimental, refinement or atomic coordinate data resulting 
# from the CCDC's data processing and validation procedures.
#
#######################################################################

data_KUXTUT
_chemical_formula_moiety         '(C15 H12 Cu1 N4 O4)n'
_symmetry_cell_setting           monoclinic
_symmetry_space_group_name_H-M   'C 2/c'
_symmetry_Int_Tables_number      15
_space_group_name_Hall           '-C 2yc'
loop_
_symmetry_equiv_pos_site_id
_symmetry_equiv_pos_as_xyz
1 x,y,z
2 -x,y,1/2-z
3 1/2+x,1/2+y,z
4 1/2-x,1/2+y,1/2-z
5 -x,-y,-z
6 x,-y,1/2+z
7 1/2-x,1/2-y,-z
8 1/2+x,1/2-y,1/2+z
_cell_length_a                   21.4622(8)
_cell_length_b                   4.9469(2)
_cell_length_c                   15.6955(4)
_cell_angle_alpha                90
_cell_angle_beta                 102.591(1)
_cell_angle_gamma                90
_cell_volume                     1626.34
loop_
_atom_site_label
_atom_site_type_symbol
_atom_site_fract_x
_atom_site_fract_y
_atom_site_fract_z
_atom_site_U_iso_or_equiv
_atom_site_thermal_displace_type
Cu1 Cu 0.5000 0.0000 0.5000 0.0161 Uani
O1 O 0.58478(5) 0.1627(2) 0.51957(7) 0.0229 Uani
O2 O 0.60129(6) -0.1189(3) 0.41612(8) 0.0291 Uani
N1 N 0.46747(6) 0.2504(3) 0.40232(8) 0.0187 Uani
N2 N 0.46984(7) 0.5656(3) 0.30486(9) 0.0197 Uani
C1 C 0.41064(8) 0.2433(4) 0.34011(10) 0.0238 Uani
H1 H 0.3762 0.1226 0.3403 0.0280 Uiso
C2 C 0.41191(8) 0.4351(4) 0.27914(11) 0.0245 Uani
H2 H 0.3795 0.4726 0.2288 0.0290 Uiso
C3 C 0.50161(8) 0.4460(3) 0.37835(10) 0.0187 Uani
H3 H 0.5432 0.4959 0.4090 0.0230 Uiso
C4 C 0.5000 0.7386(4) 0.2500 0.0202 Uani
H4 H 0.5324 0.8557 0.2869 0.0240 Uiso
C5 C 0.72859(9) 0.0506(4) 0.43856(13) 0.0308 Uani
H5 H 0.7139 -0.0853 0.3962 0.0370 Uiso
C6 C 0.68740(7) 0.1588(3) 0.48694(10) 0.0204 Uani
C7 C 0.70885(8) 0.3587(4) 0.54766(12) 0.0302 Uani
H6 H 0.6806 0.4344 0.5802 0.0360 Uiso
C8 C 0.61966(8) 0.0560(4) 0.47157(11) 0.0211 Uani
Cu1B Cu 1.0000 0.5000 0.5000 0.0161 Uani
Cu1A Cu 0.5000 0.0000 0.0000 0.0161 Uani
O1F O 0.91522(5) 0.3373(2) 0.48043(7) 0.0229 Uani
O1D O 0.41522(5) -0.1627(2) 0.48043(7) 0.0229 Uani
O2F O 0.89871(6) 0.6189(3) 0.58388(8) 0.0291 Uani
N1A N 0.53253(6) 0.2504(3) 0.09768(8) 0.0187 Uani
N1D N 0.53253(6) -0.2504(3) 0.59768(8) 0.0187 Uani
N2A N 0.53016(7) 0.5656(3) 0.19514(9) 0.0197 Uani
C1A C 0.58936(8) 0.2433(4) 0.15989(10) 0.0238 Uani
H1A H 0.6238 0.1226 0.1597 0.0280 Uiso
C2A C 0.58809(8) 0.4351(4) 0.22086(11) 0.0245 Uani
H2A H 0.6205 0.4726 0.2712 0.0290 Uiso
C3A C 0.49839(8) 0.4460(3) 0.12165(10) 0.0187 Uani
H3A H 0.4568 0.4959 0.0910 0.0230 Uiso
H4A H 0.4676 0.8557 0.2131 0.0240 Uiso
C5F C 0.77141(9) 0.4494(4) 0.56144(13) 0.0308 Uani
H5F H 0.7861 0.5853 0.6038 0.0370 Uiso
C6F C 0.81260(7) 0.3412(3) 0.51306(10) 0.0204 Uani
C7F C 0.79115(8) 0.1413(4) 0.45234(12) 0.0302 Uani
H6F H 0.8194 0.0656 0.4198 0.0360 Uiso
C8F C 0.88034(8) 0.4440(4) 0.52843(11) 0.0211 Uani
loop_
_atom_site_aniso_label
_atom_site_aniso_U_11
_atom_site_aniso_U_22
_atom_site_aniso_U_33
_atom_site_aniso_U_23
_atom_site_aniso_U_13
_atom_site_aniso_U_12
Cu1 0.00966(15) 0.01959(16) 0.01990(16) 0.00037(9) 0.00507(10) -0.00323(9)
O1 0.0123(5) 0.0292(6) 0.0277(6) 0.0036(5) 0.0056(4) -0.0059(4)
O2 0.0177(6) 0.0325(7) 0.0360(7) -0.0050(6) 0.0036(5) -0.0100(5)
N1 0.0136(6) 0.0223(6) 0.0207(6) -0.0010(5) 0.0046(5) -0.0019(5)
N2 0.0186(7) 0.0201(6) 0.0205(6) -0.0002(5) 0.0048(5) 0.0001(5)
C1 0.0146(7) 0.0303(8) 0.0262(8) -0.0016(7) 0.0039(6) -0.0032(7)
C2 0.0168(8) 0.0322(8) 0.0233(8) -0.0010(7) 0.0017(6) 0.0000(7)
C3 0.0179(8) 0.0193(7) 0.0196(7) -0.0023(6) 0.0053(6) -0.0015(6)
C4 0.0247(11) 0.0177(10) 0.0191(9) 0.000 0.0066(8) 0.000
C5 0.0192(9) 0.0363(9) 0.0386(10) -0.0152(8) 0.0098(7) -0.0101(7)
C6 0.0125(7) 0.0235(8) 0.0253(7) 0.0024(6) 0.0042(6) -0.0045(6)
C7 0.0174(8) 0.0379(10) 0.0380(9) -0.0126(8) 0.0122(7) -0.0071(7)
C8 0.0129(7) 0.0240(7) 0.0257(8) 0.0061(6) 0.0026(6) -0.0044(6)
Cu1B 0.00966 0.01959 0.0199 0.00037 0.00507 -0.00323
Cu1A 0.00966 0.01959 0.0199 -0.00037 0.00507 0.00323
O1F 0.0123 0.0292 0.0277 0.0036 0.0056 -0.0059
O1D 0.0123 0.0292 0.0277 0.0036 0.0056 -0.0059
O2F 0.0177 0.0325 0.036 -0.005 0.0036 -0.01
N1A 0.0136 0.0223 0.0207 0.001 0.0046 0.0019
N1D 0.0136 0.0223 0.0207 -0.001 0.0046 -0.0019
N2A 0.0186 0.0201 0.0205 0.0002 0.0048 -0.0001
C1A 0.0146 0.0303 0.0262 0.0016 0.0039 0.0032
C2A 0.0168 0.0322 0.0233 0.001 0.0017 0
C3A 0.0179 0.0193 0.0196 0.0023 0.0053 0.0015
C5F 0.0192 0.0363 0.0386 -0.0152 0.0098 -0.0101
C6F 0.0125 0.0235 0.0253 0.0024 0.0042 -0.0045
C7F 0.0174 0.0379 0.038 -0.0126 0.0122 -0.0071
C8F 0.0129 0.024 0.0257 0.0061 0.0026 -0.0044
loop_
_geom_bond_atom_site_label_1
_geom_bond_atom_site_label_2
_geom_bond_site_symmetry_1
_geom_bond_site_symmetry_2
Cu1 O1 1_555 1_555
O1 C8 1_555 1_555
O2 C8 1_555 1_555
N1 Cu1 1_555 1_555
N2 C2 1_555 1_555
C1 N1 1_555 1_555
H1 C1 1_555 1_555
C2 C1 1_555 1_555
H2 C2 1_555 1_555
C3 N1 1_555 1_555
H3 C3 1_555 1_555
C4 N2 1_555 1_555
H4 C4 1_555 1_555
C5 H5 1_555 1_555
C6 C5 1_555 1_555
C7 C6 1_555 1_555
H6 C7 1_555 1_555
C8 C6 1_555 1_555
Cu1B O1F 1_555 1_555
Cu1A N1A 1_555 1_555
O1F C8F 1_555 1_555
O1D Cu1 1_555 1_555
O2F C8F 1_555 1_555
N1A C1A 1_555 1_555
N1D Cu1 1_555 1_555
N2A C4 1_555 1_555
C1A H1A 1_555 1_555
C2A N2A 1_555 1_555
H2A C2A 1_555 1_555
C3A N1A 1_555 1_555
H3A C3A 1_555 1_555
H4A C4 1_555 1_555
C5F C7 1_555 1_555
H5F C5F 1_555 1_555
C6F C5F 1_555 1_555
C7F C5 1_555 1_555
H6F C7F 1_555 1_555
C8F C6F 1_555 1_555
N2 C3 1_555 1_555
N2A C3A 1_555 1_555
C1A C2A 1_555 1_555
C6F C7F 1_555 1_555

#END
