
#######################################################################
#
#                 Cambridge Crystallographic Data Centre
#                                CCDC 
#
#######################################################################
#
# If this CIF has been generated from an entry in the Cambridge 
# Structural Database, then it will include bibliographic, chemical, 
# crystal, experimental, refinement or atomic coordinate data resulting 
# from the CCDC's data processing and validation procedures.
#
#######################################################################

data_KUZZAI
_chemical_formula_moiety         '(C51 H38 N10 O8 Zn2)n'
_symmetry_cell_setting           triclinic
_symmetry_space_group_name_H-M   'P -1'
_symmetry_Int_Tables_number      2
_space_group_name_Hall           '-P 1'
loop_
_symmetry_equiv_pos_site_id
_symmetry_equiv_pos_as_xyz
1 x,y,z
2 -x,-y,-z
_cell_length_a                   15.5285(7)
_cell_length_b                   15.7542(7)
_cell_length_c                   15.8691(7)
_cell_angle_alpha                107.604(4)
_cell_angle_beta                 109.573(4)
_cell_angle_gamma                109.808(4)
_cell_volume                     3039.05
loop_
_atom_site_label
_atom_site_type_symbol
_atom_site_fract_x
_atom_site_fract_y
_atom_site_fract_z
C50 C 1.2195(6) 0.7667(5) 0.9485(5)
H31 H 1.2148 0.7306 0.8849
H32 H 1.1572 0.7279 0.9493
H33 H 1.2795 0.7761 1.0026
C51 C 1.1235(13) 0.8576(12) 0.9132(10)
H34 H 1.1265 0.9030 0.8839
H35 H 1.1027 0.8756 0.9636
H36 H 1.0734 0.7886 0.8612
N10 N 1.2302(10) 0.8666(8) 0.9617(8)
H37 H 1.2637 0.9062 1.0347
H38 H 1.2776 0.8945 0.9381
Zn1 Zn 1.04769(5) 1.30589(4) -0.07109(4)
Zn2 Zn 0.40677(5) 0.25939(5) -0.11686(4)
O1 O 0.5381(3) 0.3248(3) 0.0093(3)
C1 C 0.3116(6) 0.5918(4) -0.6975(4)
H1 H 0.3241 0.6410 -0.7194
O2 O 0.9248(3) 1.1721(3) -0.1403(3)
O3 O 1.0260(3) 1.1299(3) -0.0467(3)
O4 O 0.1913(5) 0.5243(4) -0.9051(3)
C2 C 0.3761(5) 0.6179(4) -0.5987(4)
H2 H 0.4310 0.6845 -0.5553
C3 C 0.2290(4) 0.4941(4) -0.7641(4)
N1 N 0.9942(4) 0.3664(3) 0.8377(3)
C4 C 1.0746(7) 0.7953(6) 0.5831(7)
H3 H 1.0115 0.7592 0.5228
O5 O 0.4339(4) 0.2297(4) 0.0478(3)
C5 C 0.2128(4) 0.4237(4) -0.7278(4)
H4 H 0.1571 0.3575 -0.7712
C6 C 0.8627(4) 0.9295(4) -0.1375(4)
H5 H 0.9273 0.9459 -0.0879
C7 C 0.2751(4) 0.4479(4) -0.6314(4)
H6 H 0.2613 0.3986 -0.6099
N2 N 0.4571(3) 0.3432(3) -0.1847(3)
C8 C 0.9550(4) 0.4988(4) 0.6384(4)
C9 C 0.7006(5) 0.4378(4) 0.2137(4)
H7 H 0.7066 0.4679 0.1723
C10 C 1.1334(6) 0.8895(6) 0.6115(8)
H8 H 1.1107 0.9206 0.5744
C11 C 0.7791(4) 0.4835(4) 0.3105(4)
H9 H 0.8377 0.5452 0.3342
N3 N 0.9366(3) 0.5879(3) 0.5118(3)
C12 C 0.7751(4) 0.4418(4) 0.3746(4)
N4 N 0.2344(4) 0.2231(5) -0.0171(5)
H10 H 0.2825 0.2067 0.0009
H11 H 0.1856 0.2059 -0.0012
N5 N 0.5210(3) 0.6691(3) -0.4078(3)
C13 C 0.7790(4) 0.8325(4) -0.1851(4)
H12 H 0.7875 0.7849 -0.1651
O6 O 0.0920(3) 0.3729(3) -0.9287(3)
C14 C 0.6103(4) 0.3452(4) 0.1759(4)
C15 C 0.3609(4) 0.5471(4) -0.5632(3)
C16 C 1.0987(5) 0.7430(4) 0.6363(4)
C17 C 0.4867(4) 0.4706(4) -0.2739(4)
C18 C 0.6829(4) 0.8036(4) -0.2616(4)
C19 C 0.5846(4) 0.6356(3) -0.2696(4)
H13 H 0.6357 0.6590 -0.2040
N6 N 0.2051(5) 0.3716(6) -0.1332(6)
C20 C 1.1977(5) 0.7933(4) 0.7185(5)
H14 H 1.2200 0.7602 0.7533
C21 C 0.4990(4) 0.5381(4) -0.3220(4)
N7 N 0.2853(6) 0.3677(6) -0.1375(6)
C22 C 0.6043(4) 0.3030(4) 0.2397(4)
H15 H 0.5449 0.2421 0.2164
C23 C 0.6851(4) 0.3496(4) 0.3377(4)
H16 H 0.6797 0.3197 0.3794
C24 C 0.5938(4) 0.6983(4) -0.3153(4)
C25 C 0.7532(4) 0.9742(4) -0.2405(5)
H17 H 0.7440 1.0217 -0.2603
C26 C 0.9660(4) 0.4521(4) 0.7079(4)
C27 C 0.8639(4) 0.4943(4) 0.4806(4)
C28 C 0.5366(4) 0.5079(4) -0.1704(4)
H18 H 0.5818 0.5776 -0.1281
C29 C 0.6724(5) 0.8794(4) -0.2867(5)
H19 H 0.6080 0.8633 -0.3364
C30 C 1.2352(8) 0.9475(5) 0.7016(8)
C31 C 0.1672(5) 0.4628(5) -0.8750(4)
C32 C 0.8692(4) 0.4463(4) 0.5421(4)
H20 H 0.8165 0.3808 0.5188
C33 C 0.8503(4) 1.0036(4) -0.1641(4)
C34 C 0.4237(6) 0.3652(4) -0.3313(4)
H21 H 0.3900 0.3355 -0.4016
C35 C 0.9326(5) 0.3492(4) 0.6722(4)
H22 H 0.8995 0.3062 0.6030
C36 C 0.4367(4) 0.5743(4) -0.4601(3)
C37 C 0.5196(5) 0.4422(4) -0.1294(4)
H23 H 0.5540 0.4693 -0.0593
N8 N 0.3056(4) 0.3053(4) -0.0981(4)
C38 C 1.0119(5) 0.5080(4) 0.8099(4)
H24 H 1.0347 0.5778 0.8377
C39 C 1.0257(5) 0.4657(4) 0.8725(4)
H25 H 1.0581 0.5073 0.9420
C40 C 1.0292(4) 0.5950(4) 0.6701(3)
H26 H 1.0861 0.6318 0.7353
C41 C 0.5215(5) 0.2965(5) 0.0720(4)
C42 C 0.4243(4) 0.5081(4) -0.4191(4)
H27 H 0.3658 0.4433 -0.4565
C43 C 0.9415(5) 1.1079(4) -0.1130(4)
C44 C 1.0207(4) 0.6390(4) 0.6057(4)
N9 N 0.1707(4) 0.3136(4) -0.0908(4)
C45 C 1.2652(6) 0.8977(5) 0.7490(5)
H28 H 1.3324 0.9319 0.8039
C46 C 0.9485(6) 0.3109(4) 0.7389(4)
H29 H 0.9257 0.2412 0.7130
C47 C 0.4111(6) 0.3057(4) -0.2857(4)
H30 H 0.3685 0.2354 -0.3262
C48 C 0.2352(4) 0.2752(5) -0.0698(4)
O7 O 1.3786(6) 1.1053(5) 0.8171(5)
C49 C 1.2914(6) 1.0512(4) 0.7329(6)
O8 O 1.2603(7) 1.0989(7) 0.6873(8)
Zn1_2 Zn 0.04769(5) 0.30589(4) -1.07109(4)
Zn1_3 Zn 0.04769(5) 0.30589(4) -0.07109(4)
Zn1_4 Zn 1.04769(5) 0.30589(4) 0.92891(4)
Zn2_2 Zn 1.40677(5) 1.25939(5) 0.88314(4)
N1_2 N 0.9942(4) 1.3664(3) -0.1623(3)
O6_2 O 1.0920(3) 1.3729(3) 0.0713(3)
N9_2 N 1.1707(4) 1.3136(4) -0.0908(4)
O7_2 O 0.3786(6) 0.1053(5) -0.1829(5)
loop_
_geom_bond_atom_site_label_1
_geom_bond_atom_site_label_2
_geom_bond_site_symmetry_1
_geom_bond_site_symmetry_2
Zn1 O2 1_555 1_555
Zn2 O1 1_555 1_555
O1 C41 1_555 1_555
C1 H1 1_555 1_555
O2 C43 1_555 1_555
O3 C43 1_555 1_555
O4 C31 1_555 1_555
C2 C1 1_555 1_555
H2 C2 1_555 1_555
C3 C1 1_555 1_555
N1 C39 1_555 1_555
C4 H3 1_555 1_555
O5 C41 1_555 1_555
C5 C3 1_555 1_555
H4 C5 1_555 1_555
C6 H5 1_555 1_555
C7 C5 1_555 1_555
H6 C7 1_555 1_555
N2 Zn2 1_555 1_555
C8 C26 1_555 1_555
C9 H7 1_555 1_555
C10 C4 1_555 1_555
H8 C10 1_555 1_555
C11 C9 1_555 1_555
H9 C11 1_555 1_555
N3 C27 1_555 1_555
C12 C11 1_555 1_555
N4 H10 1_555 1_555
H11 N4 1_555 1_555
N5 C24 1_555 1_555
C13 C6 1_555 1_555
H12 C13 1_555 1_555
O6 C31 1_555 1_555
C14 C9 1_555 1_555
C15 C2 1_555 1_555
C16 C4 1_555 1_555
C17 C21 1_555 1_555
C18 C13 1_555 1_555
C19 H13 1_555 1_555
N6 N7 1_555 1_555
C20 C16 1_555 1_555
H14 C20 1_555 1_555
C21 C19 1_555 1_555
N7 N8 1_555 1_555
C22 C14 1_555 1_555
H15 C22 1_555 1_555
C23 C12 1_555 1_555
H16 C23 1_555 1_555
C24 C18 1_555 1_555
C25 H17 1_555 1_555
C26 C35 1_555 1_555
C27 C12 1_555 1_555
C28 C17 1_555 1_555
H18 C28 1_555 1_555
C29 C18 1_555 1_555
H19 C29 1_555 1_555
C30 C10 1_555 1_555
C31 C3 1_555 1_555
C32 C8 1_555 1_555
H20 C32 1_555 1_555
C33 C6 1_555 1_555
C34 C17 1_555 1_555
H21 C34 1_555 1_555
C35 H22 1_555 1_555
C36 N5 1_555 1_555
C37 N2 1_555 1_555
H23 C37 1_555 1_555
N8 Zn2 1_555 1_555
C38 C26 1_555 1_555
H24 C38 1_555 1_555
C39 C38 1_555 1_555
H25 C39 1_555 1_555
C40 C8 1_555 1_555
H26 C40 1_555 1_555
C41 C14 1_555 1_555
C42 C21 1_555 1_555
H27 C42 1_555 1_555
C43 C33 1_555 1_555
C44 N3 1_555 1_555
N9 N6 1_555 1_555
C45 C20 1_555 1_555
H28 C45 1_555 1_555
C46 N1 1_555 1_555
H29 C46 1_555 1_555
C47 N2 1_555 1_555
H30 C47 1_555 1_555
C48 N4 1_555 1_555
O7 C49 1_555 1_555
C49 C30 1_555 1_555
O8 C49 1_555 1_555
C50 H31 1_555 1_555
H32 C50 1_555 1_555
H33 C50 1_555 1_555
C51 H34 1_555 1_555
H35 C51 1_555 1_555
H36 C51 1_555 1_555
N10 C50 1_555 1_555
H37 N10 1_555 1_555
H38 N10 1_555 1_555
Zn1_2 O6 1_555 1_555
Zn1_3 N9 1_555 1_555
Zn1_4 N1 1_555 1_555
Zn2_2 O7 1_555 1_555
N1_2 Zn1 1_555 1_555
O6_2 Zn1 1_555 1_555
N9_2 Zn1 1_555 1_555
O7_2 Zn2 1_555 1_555
C7 C15 1_555 1_555
C15 C36 1_555 1_555
C16 C44 1_555 1_555
C19 C24 1_555 1_555
C22 C23 1_555 1_555
C25 C29 1_555 1_555
C25 C33 1_555 1_555
C27 C32 1_555 1_555
C28 C37 1_555 1_555
C30 C45 1_555 1_555
C34 C47 1_555 1_555
C35 C46 1_555 1_555
C36 C42 1_555 1_555
N8 C48 1_555 1_555
C40 C44 1_555 1_555
N9 C48 1_555 1_555
C51 N10 1_555 1_555

#END
