
#######################################################################
#
#                 Cambridge Crystallographic Data Centre
#                                CCDC 
#
#######################################################################
#
# If this CIF has been generated from an entry in the Cambridge 
# Structural Database, then it will include bibliographic, chemical, 
# crystal, experimental, refinement or atomic coordinate data resulting 
# from the CCDC's data processing and validation procedures.
#
#######################################################################

data_LATCIS
_chemical_formula_moiety         'C74 Cd14 O10'
_symmetry_cell_setting           monoclinic
_symmetry_space_group_name_H-M   'C 2/c'
_symmetry_Int_Tables_number      15
_space_group_name_Hall           '-C 2yc'
loop_
_symmetry_equiv_pos_site_id
_symmetry_equiv_pos_as_xyz
1 x,y,z
2 1/2+x,1/2+y,z
3 -x,y,1/2-z
4 1/2-x,1/2+y,1/2-z
5 -x,-y,-z
6 1/2-x,1/2-y,-z
7 x,-y,1/2+z
8 1/2+x,1/2-y,1/2+z
_cell_length_a                   14.251(3)
_cell_length_b                   17.797(2)
_cell_length_c                   13.043(2)
_cell_angle_alpha                90
_cell_angle_beta                 111.247(8)
_cell_angle_gamma                90
_cell_volume                     3083.17
loop_
_atom_site_label
_atom_site_type_symbol
_atom_site_fract_x
_atom_site_fract_y
_atom_site_fract_z
Cd1 Cd 0.50000 0.14766(4) 0.25000
Cd2 Cd 0.07893(4) 0.13959(3) 0.08502(4)
O1 O 0.4960(5) 0.0510(4) 0.1228(6)
C1 C 0.2500(6) 0.1342(4) 0.1611(6)
C2 C 0.3307(4) 0.1346(4) 0.1942(6)
C3 C 0.0166(5) 0.0279(4) 0.0186(6)
C4 C 0.4902(5) 0.2341(4) 0.1185(5)
C5 C 0.0160(5) 0.1563(4) 0.2155(5)
C6 C 0.0274(5) 0.2247(5) -0.0511(6)
O1B O 0.5040(5) 0.0510(4) 0.3772(6)
C2B C 0.6693(4) 0.1346(4) 0.3058(6)
C4B C 0.5098(5) 0.2341(4) 0.3815(5)
C3D C -0.0166(5) -0.0279(4) -0.0186(6)
C6E C 0.4726(5) 0.2753(5) 0.0511(6)
C5B C -0.0160(5) 0.1563(4) 0.2845(5)
C4E C 0.0098(5) 0.2659(4) -0.1185(5)
C1B C 0.7500(6) 0.1342(4) 0.3389(6)
C6G C 0.5274(5) 0.2753(5) 0.4489(6)
Cd2D Cd -0.07893(4) -0.13959(3) -0.08502(4)
Cd2E Cd 0.42107(4) 0.36041(3) -0.08502(4)
Cd2B Cd -0.07893(4) 0.13959(3) 0.41498(4)
Cd1E Cd 0.00000 0.35234(4) -0.25000
Cd2B_2 Cd 0.92107(4) 0.13959(3) 0.41498(4)
Cd2G Cd 0.57893(4) 0.36041(3) 0.58502(4)
C1D C -0.2500(6) -0.1342(4) -0.1611(6)
C5D C -0.0160(5) -0.1563(4) -0.2155(5)
C6D C -0.0274(5) -0.2247(5) 0.0511(6)
C1E C 0.2500(6) 0.3658(4) -0.1611(6)
C3E C 0.4834(5) 0.4721(4) -0.0186(6)
C5E C 0.4840(5) 0.3437(4) -0.2155(5)
C1B_2 C -0.2500(6) 0.1342(4) 0.3389(6)
C3B C -0.0166(5) 0.0279(4) 0.4814(6)
C6B C -0.0274(5) 0.2247(5) 0.5511(6)
O1E O 0.0040(5) 0.4490(4) -0.1228(6)
O1G O -0.0040(5) 0.4490(4) -0.3772(6)
C2E C 0.1693(4) 0.3654(4) -0.1942(6)
C2G C -0.1693(4) 0.3654(4) -0.3058(6)
C4G C -0.0098(5) 0.2659(4) -0.3815(5)
C1G C 0.7500(6) 0.3658(4) 0.6611(6)
C3G C 0.5166(5) 0.4721(4) 0.5186(6)
C5G C 0.5160(5) 0.3437(4) 0.7155(5)
C2D C -0.3307(4) -0.1346(4) -0.1942(6)
C5F C 0.0160(5) -0.1563(4) -0.2845(5)
C4A C -0.0098(5) -0.2659(4) 0.1185(5)
C3A C 0.5166(5) 0.5279(4) 0.0186(6)
C5G_2 C 0.5160(5) 0.3437(4) -0.2845(5)
C3F C 0.0166(5) -0.0279(4) 0.5186(6)
C4G_2 C -0.0098(5) 0.2659(4) 0.6185(5)
C1G_2 C -0.2500(6) 0.3658(4) -0.3389(6)
C6B_2 C -0.0274(5) 0.2247(5) -0.4489(6)
C2G_2 C 0.8307(4) 0.3654(4) 0.6942(6)
C3C C 0.4834(5) 0.5279(4) 0.4814(6)
C5E_2 C 0.4840(5) 0.3437(4) 0.7845(5)
Cd1D Cd -0.50000 -0.14766(4) -0.25000
Cd2F Cd 0.07893(4) -0.13959(3) -0.41498(4)
Cd1A Cd -0.00000 -0.35234(4) 0.25000
Cd2A Cd 0.57893(4) 0.63959(3) 0.08502(4)
Cd2F_2 Cd 0.07893(4) -0.13959(3) 0.58502(4)
Cd2C Cd 0.42107(4) 0.63959(3) 0.41498(4)
O1D O -0.4960(5) -0.0510(4) -0.1228(6)
O1F O -0.5040(5) -0.0510(4) -0.3772(6)
C2F C -0.6693(4) -0.1346(4) -0.3058(6)
C4D C -0.4902(5) -0.2341(4) -0.1185(5)
C4F C -0.5098(5) -0.2341(4) -0.3815(5)
C1F C 0.2500(6) -0.1342(4) -0.3389(6)
C3F_2 C 0.0166(5) -0.0279(4) -0.4814(6)
C6F C 0.0274(5) -0.2247(5) -0.5511(6)
O1A O -0.0040(5) -0.4490(4) 0.1228(6)
O1C O 0.0040(5) -0.4490(4) 0.3772(6)
C2A C -0.1693(4) -0.3654(4) 0.1942(6)
C2C C 0.1693(4) -0.3654(4) 0.3058(6)
C4C C 0.0098(5) -0.2659(4) 0.3815(5)
C1A C 0.7500(6) 0.6342(4) 0.1611(6)
C5A C 0.5160(5) 0.6563(4) 0.2155(5)
C6A C 0.5274(5) 0.7247(5) -0.0511(6)
C1C C 0.2500(6) 0.6342(4) 0.3389(6)
C5C C 0.4840(5) 0.6563(4) 0.2845(5)
C6C C 0.4726(5) 0.7247(5) 0.5511(6)
C1F_2 C -0.7500(6) -0.1342(4) -0.3389(6)
C6A_2 C -0.4726(5) -0.2753(5) -0.0511(6)
C6C_2 C -0.5274(5) -0.2753(5) -0.4489(6)
C2F_2 C 0.3307(4) -0.1346(4) -0.3058(6)
C4C_2 C 0.0098(5) -0.2659(4) -0.6185(5)
C1A_2 C -0.2500(6) -0.3658(4) 0.1611(6)
C1C_2 C 0.2500(6) -0.3658(4) 0.3389(6)
C6F_2 C 0.0274(5) -0.2247(5) 0.4489(6)
C2A_2 C 0.8307(4) 0.6346(4) 0.1942(6)
C4D_2 C 0.5098(5) 0.7659(4) -0.1185(5)
C2C_2 C 0.1693(4) 0.6346(4) 0.3058(6)
C4F_2 C 0.4902(5) 0.7659(4) 0.6185(5)
O2 O 0.637 -0.042 0.525
O3 O 0.658 0.031 0.594
C7 C 0.596 -0.152 0.395
C8 C 0.669 -0.120 0.514
C9 C 0.765 -0.097 0.488
C10 C 0.737 0.152 0.654
C11 C 0.747 0.055 0.677
C12 C 0.851 0.044 0.708
loop_
_geom_bond_atom_site_label_1
_geom_bond_atom_site_label_2
_geom_bond_site_symmetry_1
_geom_bond_site_symmetry_2
Cd1 O1 1_555 1_555
Cd2 C1 1_555 1_555
C1 C2 1_555 1_555
C2 Cd1 1_555 1_555
C3 Cd2 1_555 1_555
C4 Cd1 1_555 1_555
C5 Cd2 1_555 1_555
C6 Cd2 1_555 1_555
O2 O3 1_555 1_555
O3 C11 1_555 1_555
C7 C8 1_555 1_555
C8 O2 1_555 1_555
C9 C8 1_555 1_555
C10 C11 1_555 1_555
C11 C12 1_555 1_555
O1B Cd1 1_555 1_555
C2B Cd1 1_555 1_555
C4B Cd1 1_555 1_555
C3D C3 1_555 1_555
C6E C4 1_555 1_555
C5B C5 1_555 1_555
C4E C6 1_555 1_555
C1B C2B 1_555 1_555
C6G C4B 1_555 1_555
Cd2D C3D 1_555 1_555
Cd2E C6E 1_555 1_555
Cd2B C5B 1_555 1_555
Cd1E C4E 1_555 1_555
Cd2B_2 C1B 1_555 1_555
Cd2G C6G 1_555 1_555
C1D Cd2D 1_555 1_555
C5D Cd2D 1_555 1_555
C6D Cd2D 1_555 1_555
C1E Cd2E 1_555 1_555
C3E Cd2E 1_555 1_555
C5E Cd2E 1_555 1_555
C1B_2 Cd2B 1_555 1_555
C3B Cd2B 1_555 1_555
C6B Cd2B 1_555 1_555
O1E Cd1E 1_555 1_555
O1G Cd1E 1_555 1_555
C2E Cd1E 1_555 1_555
C2G Cd1E 1_555 1_555
C4G Cd1E 1_555 1_555
C1G Cd2G 1_555 1_555
C3G Cd2G 1_555 1_555
C5G Cd2G 1_555 1_555
C2D C1D 1_555 1_555
C5F C5D 1_555 1_555
C4A C6D 1_555 1_555
C3A C3E 1_555 1_555
C5G_2 C5E 1_555 1_555
C3F C3B 1_555 1_555
C4G_2 C6B 1_555 1_555
C1G_2 C2G 1_555 1_555
C6B_2 C4G 1_555 1_555
C2G_2 C1G 1_555 1_555
C3C C3G 1_555 1_555
C5E_2 C5G 1_555 1_555
Cd1D C2D 1_555 1_555
Cd2F C5F 1_555 1_555
Cd1A C4A 1_555 1_555
Cd2A C3A 1_555 1_555
Cd2F_2 C3F 1_555 1_555
Cd2C C3C 1_555 1_555
O1D Cd1D 1_555 1_555
O1F Cd1D 1_555 1_555
C2F Cd1D 1_555 1_555
C4D Cd1D 1_555 1_555
C4F Cd1D 1_555 1_555
C1F Cd2F 1_555 1_555
C3F_2 Cd2F 1_555 1_555
C6F Cd2F 1_555 1_555
O1A Cd1A 1_555 1_555
O1C Cd1A 1_555 1_555
C2A Cd1A 1_555 1_555
C2C Cd1A 1_555 1_555
C4C Cd1A 1_555 1_555
C1A Cd2A 1_555 1_555
C5A Cd2A 1_555 1_555
C6A Cd2A 1_555 1_555
C1C Cd2C 1_555 1_555
C5C Cd2C 1_555 1_555
C6C Cd2C 1_555 1_555
C1F_2 C2F 1_555 1_555
C6A_2 C4D 1_555 1_555
C6C_2 C4F 1_555 1_555
C2F_2 C1F 1_555 1_555
C4C_2 C6F 1_555 1_555
C1A_2 C2A 1_555 1_555
C1C_2 C2C 1_555 1_555
C6F_2 C4C 1_555 1_555
C2A_2 C1A 1_555 1_555
C4D_2 C6A 1_555 1_555
C2C_2 C1C 1_555 1_555
C4F_2 C6C 1_555 1_555
C1E C2E 1_555 1_555
C5A C5C 1_555 1_555

#END
