
#######################################################################
#
#                 Cambridge Crystallographic Data Centre
#                                CCDC 
#
#######################################################################
#
# If this CIF has been generated from an entry in the Cambridge 
# Structural Database, then it will include bibliographic, chemical, 
# crystal, experimental, refinement or atomic coordinate data resulting 
# from the CCDC's data processing and validation procedures.
#
#######################################################################

data_LATCEO
_chemical_formula_moiety         'C63 H8 Cd14 O7'
_symmetry_cell_setting           monoclinic
_symmetry_space_group_name_H-M   'C 2/m'
_symmetry_Int_Tables_number      12
_space_group_name_Hall           '-C 2y'
loop_
_symmetry_equiv_pos_site_id
_symmetry_equiv_pos_as_xyz
1 x,y,z
2 1/2+x,1/2+y,z
3 -x,y,-z
4 1/2-x,1/2+y,-z
5 -x,-y,-z
6 1/2-x,1/2-y,-z
7 x,-y,z
8 1/2+x,1/2-y,z
_cell_length_a                   15.176(5)
_cell_length_b                   25.732(3)
_cell_length_c                   8.464(2)
_cell_angle_alpha                90
_cell_angle_beta                 132.722(9)
_cell_angle_gamma                90
_cell_volume                     2428.23
loop_
_atom_site_label
_atom_site_type_symbol
_atom_site_fract_x
_atom_site_fract_y
_atom_site_fract_z
O2 O 0.085(1) 0.1995(9) 0.904(2)
C4 C 0.093(1) 0.172(1) 0.814(2)
C5 C 0.174(1) 0.1653(8) 0.825(2)
C6 C 0.1759(9) 0.1351(5) 0.658(2)
Cd1 Cd 0.0000 0.0000 0.0000
Cd2 Cd 0.34084(4) 0.15140(2) 0.56041(7)
O3 O 0.0252(5) 0.0000 -0.2445(9)
C7 C 0.1424(4) 0.0618(2) 0.2160(8)
C8 C 0.2090(4) 0.0912(3) 0.3357(8)
C9 C 0.4672(4) 0.1593(3) 0.5119(8)
C10 C 0.2680(4) 0.2298(2) 0.5112(8)
C11 C 0.4662(4) 0.1387(2) 0.9092(7)
O3D O -0.0252(5) 0.0000 0.2445(9)
C7D C -0.1424(4) -0.0618(2) -0.2160(8)
C7B C -0.1424(4) 0.0618(2) -0.2160(8)
C7F C 0.1424(4) -0.0618(2) 0.2160(8)
C9B C 0.5328(4) 0.1593(3) 0.4881(8)
C10E C 0.2320(4) 0.2702(2) 0.4888(8)
C11B C 0.5338(4) 0.1387(2) 1.0908(7)
C8D C -0.2090(4) -0.0912(3) -0.3357(8)
C8B C -0.2090(4) 0.0912(3) -0.3357(8)
C8F C 0.2090(4) -0.0912(3) 0.3357(8)
Cd2B Cd 0.65916(4) 0.15140(2) 0.43959(7)
Cd2E Cd 0.15916(4) 0.34860(2) 0.43959(7)
Cd2B_2 Cd 0.65916(4) 0.15140(2) 1.43959(7)
Cd2D Cd -0.34084(4) -0.15140(2) -0.56041(7)
Cd2B_3 Cd -0.34084(4) 0.15140(2) -0.56041(7)
Cd2F Cd 0.34084(4) -0.15140(2) 0.56041(7)
C8B_2 C 0.7910(4) 0.0912(3) 0.6643(8)
C10B C 0.7320(4) 0.2298(2) 0.4888(8)
C11B_2 C 0.5338(4) 0.1387(2) 0.0908(7)
C8E C 0.2910(4) 0.4088(3) 0.6643(8)
C9E C 0.0328(4) 0.3407(3) 0.4881(8)
C11E C 0.0338(4) 0.3613(2) 0.0908(7)
C9D C -0.4672(4) -0.1593(3) -0.5119(8)
C10D C -0.2680(4) -0.2298(2) -0.5112(8)
C11D C -0.4662(4) -0.1387(2) -0.9092(7)
C9F C 0.4672(4) -0.1593(3) 0.5119(8)
C10F C 0.2680(4) -0.2298(2) 0.5112(8)
C11F C 0.4662(4) -0.1387(2) 0.9092(7)
C10G C 0.7680(4) 0.2702(2) 0.5112(8)
C7E C 0.3576(4) 0.4382(2) 0.7840(8)
C9G C -0.0328(4) 0.3407(3) 0.5119(8)
C11G C -0.0338(4) 0.3613(2) -0.0908(7)
C9F_2 C -0.5328(4) -0.1593(3) -0.4881(8)
C10A C -0.2320(4) -0.2702(2) -0.4888(8)
C11F_2 C -0.5338(4) -0.1387(2) -1.0908(7)
C9D_2 C 0.5328(4) -0.1593(3) 0.4881(8)
C10C C 0.2320(4) -0.2702(2) 0.4888(8)
C11D_2 C 0.5338(4) -0.1387(2) 1.0908(7)
Cd2G Cd 0.84084(4) 0.34860(2) 0.56041(7)
Cd1A Cd 0.5000 0.5000 1.0000
Cd2G_2 Cd -0.15916(4) 0.34860(2) 0.56041(7)
Cd2G_3 Cd -0.15916(4) 0.34860(2) -0.43959(7)
Cd2A Cd -0.15916(4) -0.34860(2) -0.43959(7)
Cd2C Cd 0.15916(4) -0.34860(2) 0.43959(7)
C8G C 0.7090(4) 0.4088(3) 0.3357(8)
C9G_2 C 0.9672(4) 0.3407(3) 0.5119(8)
C11G_2 C 0.9662(4) 0.3613(2) 0.9092(7)
O3A O 0.5252(5) 0.5000 0.7555(9)
O3E O 0.4748(5) 0.5000 1.2445(9)
C7A C 0.6424(4) 0.5618(2) 1.2160(8)
C7C C 0.3576(4) 0.5618(2) 0.7840(8)
C7G C 0.6424(4) 0.4382(2) 1.2160(8)
C8A C -0.2910(4) -0.4088(3) -0.6643(8)
C9A C -0.0328(4) -0.3407(3) -0.4881(8)
C11A C -0.0338(4) -0.3613(2) -0.0908(7)
C8C C 0.2910(4) -0.4088(3) 0.6643(8)
C9C C 0.0328(4) -0.3407(3) 0.4881(8)
C11C C 0.0338(4) -0.3613(2) 0.0908(7)
C7G_2 C 0.6424(4) 0.4382(2) 0.2160(8)
C8A_2 C 0.7090(4) 0.5912(3) 1.3357(8)
C8C_2 C 0.2910(4) 0.5912(3) 0.6643(8)
C8G_2 C 0.7090(4) 0.4088(3) 1.3357(8)
C7A_2 C -0.3576(4) -0.4382(2) -0.7840(8)
C9C_2 C 0.0328(4) -0.3407(3) -0.5119(8)
C7C_2 C 0.3576(4) -0.4382(2) 0.7840(8)
C9A_2 C -0.0328(4) -0.3407(3) 0.5119(8)
O1 O 0.1750(8) 0.0292(5) 0.697(2)
C1 C 0.288(1) 0.0000 0.824(3)
C2 C 0.351(1) 0.021(1) 1.070(4)
C3 C 0.456(2) 0.0000 1.213(3)
O1F O 0.1750(8) -0.0292(5) 0.697(2)
C2F C 0.351(1) -0.021(1) 1.070(4)
loop_
_geom_bond_atom_site_label_1
_geom_bond_atom_site_label_2
_geom_bond_site_symmetry_1
_geom_bond_site_symmetry_2
O1 C1 1_555 1_555
C1 C2 1_555 1_555
C2 C3 1_555 1_555
C3 C2F 1_555 1_555
O2 C4 1_555 1_555
C4 C5 1_555 1_555
C5 C6 1_555 1_555
Cd1 O3 1_555 1_555
Cd2 C8 1_555 1_555
C7 Cd1 1_555 1_555
C8 C7 1_555 1_555
C9 Cd2 1_555 1_555
C10 Cd2 1_555 1_555
C11 Cd2 1_555 1_555
O1F O1 1_555 1_555
C2F C1 1_555 1_555
O3D Cd1 1_555 1_555
C7D Cd1 1_555 1_555
C7B Cd1 1_555 1_555
C7F Cd1 1_555 1_555
C9B C9 1_555 1_555
C10E C10 1_555 1_555
C11B C11 1_555 1_555
C8D C7D 1_555 1_555
C8B C7B 1_555 1_555
C8F C7F 1_555 1_555
Cd2B C9B 1_555 1_555
Cd2E C10E 1_555 1_555
Cd2B_2 C11B 1_555 1_555
Cd2D C8D 1_555 1_555
Cd2B_3 C8B 1_555 1_555
Cd2F C8F 1_555 1_555
C8B_2 Cd2B 1_555 1_555
C10B Cd2B 1_555 1_555
C11B_2 Cd2B 1_555 1_555
C8E Cd2E 1_555 1_555
C9E Cd2E 1_555 1_555
C11E Cd2E 1_555 1_555
C9D Cd2D 1_555 1_555
C10D Cd2D 1_555 1_555
C11D Cd2D 1_555 1_555
C9F Cd2F 1_555 1_555
C10F Cd2F 1_555 1_555
C11F Cd2F 1_555 1_555
C10G C10B 1_555 1_555
C7E C8E 1_555 1_555
C9G C9E 1_555 1_555
C11G C11E 1_555 1_555
C9F_2 C9D 1_555 1_555
C10A C10D 1_555 1_555
C11F_2 C11D 1_555 1_555
C9D_2 C9F 1_555 1_555
C10C C10F 1_555 1_555
C11D_2 C11F 1_555 1_555
Cd2G C10G 1_555 1_555
Cd1A C7E 1_555 1_555
Cd2G_2 C9G 1_555 1_555
Cd2G_3 C11G 1_555 1_555
Cd2A C10A 1_555 1_555
Cd2C C10C 1_555 1_555
C8G Cd2G 1_555 1_555
C9G_2 Cd2G 1_555 1_555
C11G_2 Cd2G 1_555 1_555
O3A Cd1A 1_555 1_555
O3E Cd1A 1_555 1_555
C7A Cd1A 1_555 1_555
C7C Cd1A 1_555 1_555
C7G Cd1A 1_555 1_555
C8A Cd2A 1_555 1_555
C9A Cd2A 1_555 1_555
C11A Cd2A 1_555 1_555
C8C Cd2C 1_555 1_555
C9C Cd2C 1_555 1_555
C11C Cd2C 1_555 1_555
C7G_2 C8G 1_555 1_555
C8A_2 C7A 1_555 1_555
C8C_2 C7C 1_555 1_555
C8G_2 C7G 1_555 1_555
C7A_2 C8A 1_555 1_555
C9C_2 C9A 1_555 1_555
C7C_2 C8C 1_555 1_555
C9A_2 C9C 1_555 1_555
C1 O1F 1_555 1_555
C2 C2F 1_555 1_555
C11A C11C 1_555 1_555

#END
