
#######################################################################
#
#                 Cambridge Crystallographic Data Centre
#                                CCDC 
#
#######################################################################
#
# If this CIF has been generated from an entry in the Cambridge 
# Structural Database, then it will include bibliographic, chemical, 
# crystal, experimental, refinement or atomic coordinate data resulting 
# from the CCDC's data processing and validation procedures.
#
#######################################################################

data_LOMLUV
_chemical_formula_moiety         '(C3 H26 Ga4 N2 O23 P6)n'
_symmetry_cell_setting           monoclinic
_symmetry_space_group_name_H-M   'P 21/n'
_symmetry_Int_Tables_number      14
_space_group_name_Hall           '-P 2yn'
loop_
_symmetry_equiv_pos_site_id
_symmetry_equiv_pos_as_xyz
1 x,y,z
2 1/2-x,1/2+y,1/2-z
3 -x,-y,-z
4 1/2+x,1/2-y,1/2+z
_cell_length_a                   11.3184(5)
_cell_length_b                   11.0159(4)
_cell_length_c                   18.7519(7)
_cell_angle_alpha                90
_cell_angle_beta                 92.569(3)
_cell_angle_gamma                90
_cell_volume                     2335.68
loop_
_atom_site_label
_atom_site_type_symbol
_atom_site_fract_x
_atom_site_fract_y
_atom_site_fract_z
Ga1 Ga 0.25726(4) -0.05062(4) 0.29273(2)
Ga2 Ga 0.28187(4) -0.09420(4) 0.10824(2)
Ga3 Ga 0.24389(4) 0.07338(4) 0.79232(2)
Ga4 Ga 0.21404(4) 0.12080(4) 0.60747(2)
P1 P 0.03804(10) -0.02904(10) 0.18280(6)
H1 H 0.028(4) 0.084(4) 0.180(2)
P2 P 0.32460(10) 0.16643(10) 0.18670(6)
H2 H 0.456(6) 0.183(6) 0.199(4)
P3 P 0.19204(10) 0.11854(10) 0.43401(6)
H3 H 0.076(6) 0.135(6) 0.431(3)
P4 P 0.26222(10) -0.09081(10) -0.06877(6)
H4 H 0.141(4) -0.107(4) -0.083(3)
P5 P 0.46612(10) 0.12111(10) 0.69123(6)
H5 H 0.505(3) 0.225(4) 0.701(2)
P6 P 0.17970(10) -0.13921(10) 0.68215(6)
H6 H 0.052(6) -0.153(6) 0.684(4)
O1 O 0.3092(3) -0.1336(3) 0.20829(15)
H7 H 0.309(5) -0.2088(18) 0.211(3)
O2 O 0.0900(3) -0.0540(3) 0.25790(16)
O3 O 0.2741(3) 0.1158(3) 0.25434(16)
O4 O 0.2121(3) 0.0151(3) 0.38341(16)
O5 O 0.2674(3) 0.2854(3) 0.16330(16)
O6 O 0.5728(3) 0.0450(3) 0.67170(16)
O7 O 0.1140(3) -0.0751(3) 0.12306(15)
O8 O 0.3167(3) 0.0764(3) 0.12580(16)
O9 O 0.2782(3) -0.0499(3) 0.00837(15)
O10 O 0.2534(3) 0.2349(3) 0.41408(16)
O11 O 0.4586(3) -0.1255(3) 0.10533(18)
H8 H 0.492(6) -0.098(6) 0.143(2)
H9 H 0.506(5) -0.112(6) 0.074(3)
O12 O 0.1822(3) 0.1521(3) 0.70516(16)
H10 H 0.171(5) 0.228(2) 0.705(3)
O13 O -0.0844(3) -0.0824(3) 0.17037(16)
O14 O 0.4073(3) 0.0725(3) 0.75665(16)
O15 O 0.2336(3) -0.2612(3) 0.66554(17)
O16 O 0.3062(2) 0.0078(3) -0.11750(15)
O17 O 0.2153(3) -0.0922(3) 0.75597(16)
O18 O 0.3828(3) 0.1346(3) 0.62530(16)
O19 O 0.2296(3) 0.0744(3) 0.50895(15)
O20 O 0.3233(3) -0.2121(3) -0.08094(16)
O21 O 0.2098(3) -0.0528(3) 0.62288(16)
O22 O 0.0231(3) 0.1018(3) 0.5947(2)
Ga1A Ga 0.24274(4) 0.44938(4) 0.20727(2)
Ga1B Ga 0.74274(4) 0.05062(4) 0.70727(2)
Ga2A Ga 0.21813(4) 0.40580(4) 0.39176(2)
Ga3_2 Ga 0.24389(4) 0.07338(4) -0.20768(2)
Ga3B Ga -0.24389(4) -0.07338(4) 0.20768(2)
Ga3A Ga 0.25611(4) -0.42662(4) 0.70768(2)
Ga4A Ga 0.28596(4) -0.37920(4) -0.10747(2)
O5A O 0.2326(3) -0.2146(3) 0.33670(16)
O6B O 0.4272(3) -0.0450(3) 0.32830(16)
O10A O 0.2466(3) -0.2651(3) 0.08592(16)
O13B O 0.0844(3) 0.0824(3) 0.82963(16)
O15A O 0.2664(3) 0.2388(3) 0.83446(17)
O16_2 O 0.3062(2) 0.0078(3) 0.88250(15)
O20A O 0.1767(3) 0.2879(3) 0.58094(16)
O23 O -0.4474(3) -0.1733(4) -0.0196(2)
N1 N -0.2696(4) 0.1876(4) 0.5046(3)
N2 N -0.4977(4) 0.1824(4) 0.3814(2)
H11 H -0.5360 0.1277 0.3541
H12 H -0.4323 0.2055 0.3605
H13 H -0.5441 0.2465 0.3872
C1 C -0.4001(8) 0.1970(8) 0.5108(4)
C2 C -0.4658(5) 0.1282(4) 0.4517(3)
C3 C -0.4350(5) 0.3322(5) 0.5141(3)
loop_
_geom_bond_atom_site_label_1
_geom_bond_atom_site_label_2
_geom_bond_site_symmetry_1
_geom_bond_site_symmetry_2
Ga1 O1 1_555 1_555
Ga2 O1 1_555 1_555
Ga3 O12 1_555 1_555
Ga4 O12 1_555 1_555
P1 H1 1_555 1_555
P2 H2 1_555 1_555
P3 H3 1_555 1_555
P4 H4 1_555 1_555
P5 H5 1_555 1_555
P6 H6 1_555 1_555
O1 H7 1_555 1_555
O2 Ga1 1_555 1_555
O3 Ga1 1_555 1_555
O4 Ga1 1_555 1_555
O5 P2 1_555 1_555
O6 P5 1_555 1_555
O7 Ga2 1_555 1_555
O8 Ga2 1_555 1_555
O9 Ga2 1_555 1_555
O10 P3 1_555 1_555
O11 Ga2 1_555 1_555
H8 O11 1_555 1_555
H9 O11 1_555 1_555
O12 H10 1_555 1_555
O13 P1 1_555 1_555
O14 Ga3 1_555 1_555
O15 P6 1_555 1_555
O16 P4 1_555 1_555
O17 Ga3 1_555 1_555
O18 Ga4 1_555 1_555
O19 Ga4 1_555 1_555
O20 P4 1_555 1_555
O21 Ga4 1_555 1_555
O22 Ga4 1_555 1_555
N1 C1 1_555 1_555
N2 H11 1_555 1_555
H12 N2 1_555 1_555
H13 N2 1_555 1_555
C1 C2 1_555 1_555
C2 N2 1_555 1_555
C3 C1 1_555 1_555
Ga1A O5 1_555 1_555
Ga1B O6 1_555 1_555
Ga2A O10 1_555 1_555
Ga3_2 O16 1_555 1_555
Ga3B O13 1_555 1_555
Ga3A O15 1_555 1_555
Ga4A O20 1_555 1_555
O5A Ga1 1_555 1_555
O6B Ga1 1_555 1_555
O10A Ga2 1_555 1_555
O13B Ga3 1_555 1_555
O15A Ga3 1_555 1_555
O16_2 Ga3 1_555 1_555
O20A Ga4 1_555 1_555
P1 O2 1_555 1_555
P1 O7 1_555 1_555
P2 O3 1_555 1_555
P2 O8 1_555 1_555
P3 O4 1_555 1_555
P3 O19 1_555 1_555
P4 O9 1_555 1_555
P5 O14 1_555 1_555
P5 O18 1_555 1_555
P6 O17 1_555 1_555
P6 O21 1_555 1_555

#END
