
#######################################################################
#
#                 Cambridge Crystallographic Data Centre
#                                CCDC 
#
#######################################################################
#
# If this CIF has been generated from an entry in the Cambridge 
# Structural Database, then it will include bibliographic, chemical, 
# crystal, experimental, refinement or atomic coordinate data resulting 
# from the CCDC's data processing and validation procedures.
#
#######################################################################

data_MESGIB
_chemical_formula_moiety         '(C32 H34 Ag4 F18 N16 O1 P3 1+)n'
_symmetry_cell_setting           orthorhombic
_symmetry_space_group_name_H-M   'C m c 21'
_symmetry_Int_Tables_number      36
_space_group_name_Hall           'C 2c -2'
loop_
_symmetry_equiv_pos_site_id
_symmetry_equiv_pos_as_xyz
1 x,y,z
2 -x,-y,1/2+z
3 x,-y,1/2+z
4 -x,y,z
5 1/2+x,1/2+y,z
6 1/2-x,1/2-y,1/2+z
7 1/2+x,1/2-y,1/2+z
8 1/2-x,1/2+y,z
_cell_length_a                   21.8529(6)
_cell_length_b                   15.5019(5)
_cell_length_c                   16.8985(5)
_cell_angle_alpha                90
_cell_angle_beta                 90
_cell_angle_gamma                90
_cell_volume                     5724.56
loop_
_atom_site_label
_atom_site_type_symbol
_atom_site_fract_x
_atom_site_fract_y
_atom_site_fract_z
_atom_site_U_iso_or_equiv
_atom_site_thermal_displace_type
Ag1 Ag 0.14122(2) 0.29449(4) 0.4534(3) 0.0525 Uani
Ag2 Ag 0.14678(2) -0.03320(4) 0.2401(3) 0.0489 Uani
N1 N 0.1148(3) 0.2368(4) 0.3305(5) 0.0423 Uani
N2 N 0.1106(3) 0.1097(4) 0.2516(5) 0.0450 Uani
N3 N 0.1959(3) 0.1753(4) 0.5202(5) 0.0403 Uani
N4 N 0.1992(3) 0.0863(4) 0.6361(5) 0.0400 Uani
N5 N 0.2313(3) 0.3732(4) 0.4453(5) 0.0430 Uani
N6 N 0.3105(3) 0.4323(4) 0.3667(5) 0.0443 Uani
N7 N 0.0542(2) 0.3195(4) 0.5243(5) 0.0390 Uani
N8 N 0.0548(3) -0.1047(4) 0.2728(5) 0.0407 Uani
C1 C 0.0936(4) 0.2810(5) 0.2707(7) 0.0517 Uani
H1 H 0.0866(4) 0.3411(5) 0.2771(7) 0.0620 Uiso
C2 C 0.0808(4) 0.2434(7) 0.1981(7) 0.0707 Uani
H2 H 0.0669(4) 0.2765(7) 0.1543(7) 0.0850 Uiso
C3 C 0.0894(4) 0.1569(6) 0.1928(6) 0.0607 Uani
H3 H 0.0795(4) 0.1289(6) 0.1445(6) 0.0730 Uiso
C4 C 0.1225(3) 0.1534(6) 0.3184(6) 0.0437 Uani
H4 H 0.1382(3) 0.1208(6) 0.3615(6) 0.0530 Uiso
C5 C 0.2556(4) 0.1578(5) 0.5066(6) 0.0540 Uani
H5 H 0.2750(4) 0.1817(5) 0.4613(6) 0.0650 Uiso
C6 C 0.2889(4) 0.1059(6) 0.5571(6) 0.0597 Uani
H6 H 0.3309(4) 0.0939(6) 0.5476(6) 0.0720 Uiso
C7 C 0.2589(4) 0.0719(5) 0.6220(6) 0.0477 Uani
H7 H 0.2813(4) 0.0370(5) 0.6580(6) 0.0570 Uiso
C8 C 0.1718(3) 0.1373(5) 0.5841(6) 0.0447 Uani
H8 H 0.1296(3) 0.1483(5) 0.5934(6) 0.0540 Uiso
C9 C 0.2668(4) 0.3813(6) 0.5085(6) 0.0600 Uani
H9 H 0.2521(4) 0.3617(6) 0.5583(6) 0.0720 Uiso
C10 C 0.3243(4) 0.4171(6) 0.5043(6) 0.0693 Uani
H10 H 0.3489(4) 0.4253(6) 0.5501(6) 0.0830 Uiso
C11 C 0.3442(4) 0.4405(5) 0.4301(5) 0.0490 Uani
H11 H 0.3842(4) 0.4637(5) 0.4248(5) 0.0590 Uiso
C12 C 0.2537(4) 0.4010(5) 0.3774(5) 0.0410 Uani
H12 H 0.2276(4) 0.3987(5) 0.3325(5) 0.0490 Uiso
C13 C 0.0542(3) 0.3501(6) 0.5974(6) 0.0533 Uani
H13 H 0.0920(3) 0.3614(6) 0.6230(6) 0.0640 Uiso
C14 C -0.0000 0.3659(8) 0.6372(8) 0.0627 Uani
H14 H -0.0000 0.3869(8) 0.6900(8) 0.0750 Uiso
C15 C -0.0000 0.3054(7) 0.4903(7) 0.0407 Uani
H15 H -0.0000 0.2837(7) 0.4378(7) 0.0490 Uiso
C16 C 0.0536(4) -0.1814(5) 0.3100(6) 0.0553 Uani
H16 H 0.0914(4) -0.2080(5) 0.3233(6) 0.0670 Uiso
C17 C -0.0000 -0.2231(8) 0.3296(10) 0.0737 Uani
H17 H 0.0000 -0.2776(8) 0.3553(10) 0.0890 Uiso
C18 C -0.0000 -0.0696(6) 0.2597(7) 0.0327 Uani
H18 H 0.0000 -0.0129(6) 0.2385(7) 0.0390 Uiso
Ag1C Ag -0.14122(2) 0.29449(4) 0.4534(3) 0.0525 Uani
Ag1B Ag 0.14122(2) -0.29449(4) -0.0466(3) 0.0525 Uani
Ag1G Ag 0.35878(2) -0.20551(4) 0.4534(3) 0.0525 Uani
Ag2B Ag 0.14678(2) 0.03320(4) 0.7401(3) 0.0489 Uani
Ag2G Ag 0.35322(2) 0.46680(4) 0.2401(3) 0.0489 Uani
Ag2C Ag -0.14678(2) -0.03320(4) 0.2401(3) 0.0489 Uani
N1C N -0.1148(3) 0.2368(4) 0.3305(5) 0.0423 Uani
N2C N -0.1106(3) 0.1097(4) 0.2516(5) 0.0450 Uani
N2B N 0.1106(3) -0.1097(4) 0.7516(5) 0.0450 Uani
N3B N 0.1959(3) -0.1753(4) 0.0202(5) 0.0403 Uani
N3C N -0.1959(3) 0.1753(4) 0.5202(5) 0.0403 Uani
N4B N 0.1992(3) -0.0863(4) 0.1361(5) 0.0400 Uani
N5G N 0.2687(3) -0.1268(4) 0.4453(5) 0.0430 Uani
N5C N -0.2313(3) 0.3732(4) 0.4453(5) 0.0430 Uani
N6G N 0.1895(3) -0.0677(4) 0.3667(5) 0.0443 Uani
N6E N 0.1895(3) 0.0677(4) 0.8667(5) 0.0443 Uani
N7C N -0.0542(2) 0.3195(4) 0.5243(5) 0.0390 Uani
N8C N -0.0548(3) -0.1047(4) 0.2728(5) 0.0407 Uani
N8B N 0.0548(3) 0.1047(4) 0.7728(5) 0.0407 Uani
C1C C -0.0936(4) 0.2810(5) 0.2707(7) 0.0517 Uani
H1C H -0.0866(4) 0.3411(5) 0.2771(7) 0.0620 Uiso
C2C C -0.0808(4) 0.2434(7) 0.1981(7) 0.0707 Uani
H2C H -0.0669(4) 0.2765(7) 0.1543(7) 0.0850 Uiso
C3C C -0.0894(4) 0.1569(6) 0.1928(6) 0.0607 Uani
H3C H -0.0795(4) 0.1289(6) 0.1445(6) 0.0730 Uiso
C4C C -0.1225(3) 0.1534(6) 0.3184(6) 0.0437 Uani
H4C H -0.1382(3) 0.1208(6) 0.3615(6) 0.0530 Uiso
C5B C 0.2556(4) -0.1578(5) 0.0066(6) 0.0540 Uani
H5B H 0.2750(4) -0.1817(5) -0.0387(6) 0.0650 Uiso
C6B C 0.2889(4) -0.1059(6) 0.0571(6) 0.0597 Uani
H6B H 0.3309(4) -0.0939(6) 0.0476(6) 0.0720 Uiso
C7B C 0.2589(4) -0.0719(5) 0.1220(6) 0.0477 Uani
H7B H 0.2813(4) -0.0370(5) 0.1580(6) 0.0570 Uiso
C8B C 0.1718(3) -0.1373(5) 0.0841(6) 0.0447 Uani
H8B H 0.1296(3) -0.1483(5) 0.0934(6) 0.0540 Uiso
C9G C 0.2332(4) -0.1187(6) 0.5085(6) 0.0600 Uani
H9G H 0.2479(4) -0.1383(6) 0.5583(6) 0.0720 Uiso
C10G C 0.1757(4) -0.0829(6) 0.5043(6) 0.0693 Uani
H10G H 0.1511(4) -0.0747(6) 0.5501(6) 0.0830 Uiso
C11G C 0.1558(4) -0.0595(5) 0.4301(5) 0.0490 Uani
H11G H 0.1158(4) -0.0363(5) 0.4248(5) 0.0590 Uiso
C12G C 0.2463(4) -0.0990(5) 0.3774(5) 0.0410 Uani
H12G H 0.2724(4) -0.1013(5) 0.3325(5) 0.0490 Uiso
C13C C -0.0542(3) 0.3501(6) 0.5974(6) 0.0533 Uani
H13C H -0.0920(3) 0.3614(6) 0.6230(6) 0.0640 Uiso
C16C C -0.0536(4) -0.1814(5) 0.3100(6) 0.0553 Uani
H16C H -0.0914(4) -0.2080(5) 0.3233(6) 0.0670 Uiso
P1 P 0.0000 -0.0524(2) 0.0217(3) 0.0380 Uani
F1 F 0.0000 -0.1307(3) 0.0828(5) 0.0500 Uani
F2 F 0.0000 0.0263(4) -0.0391(5) 0.0660 Uani
F3 F -0.0520(2) -0.0995(3) -0.0287(4) 0.0597 Uani
F4 F -0.0518(2) -0.0053(3) 0.0737(4) 0.0607 Uani
F3C F 0.0520(2) -0.0995(3) -0.0287(4) 0.0597 Uani
F4C F 0.0518(2) -0.0053(3) 0.0737(4) 0.0607 Uani
P2 P -0.0000 0.3992(2) 0.0146(3) 0.0497 Uani
F5 F -0.0000 0.4938(7) -0.0143(8) 0.0837 Uani
F6 F 0.0000 0.2997(6) 0.0416(8) 0.0783 Uani
F7 F 0.0508(4) 0.3729(5) -0.0475(7) 0.0987 Uani
F8 F 0.0508(4) 0.4201(5) 0.0760(6) 0.0917 Uani
F7C F -0.0508(4) 0.3729(5) -0.0475(7) 0.0987 Uani
F8C F -0.0508(4) 0.4201(5) 0.0760(6) 0.0917 Uani
P3 P 0.29617(11) 0.1617(2) 0.2570(3) 0.0559 Uani
F13 F 0.3332(3) 0.2326(4) 0.2110(4) 0.1107 Uani
F14 F 0.2610(3) 0.0899(4) 0.3042(5) 0.1187 Uani
F15 F 0.2369(5) 0.2012(9) 0.2136(9) 0.1343 Uani
F16 F 0.3105(6) 0.1161(10) 0.1764(9) 0.1303 Uani
F17 F 0.3603(4) 0.1339(7) 0.2869(9) 0.1083 Uani
F18 F 0.2858(8) 0.2301(8) 0.3240(9) 0.1463 Uani
O1 O 0.1033(4) 0.4692(4) 0.3586(6) 0.1207 Uani
loop_
_atom_site_aniso_label
_atom_site_aniso_U_11
_atom_site_aniso_U_22
_atom_site_aniso_U_33
_atom_site_aniso_U_23
_atom_site_aniso_U_13
_atom_site_aniso_U_12
Ag1 0.0317(3) 0.0651(4) 0.0606(4) -0.0025(4) 0.0081(4) -0.0054(3)
Ag2 0.0355(3) 0.0676(4) 0.0435(4) -0.0074(4) 0.0031(4) 0.0075(3)
N1 0.050(4) 0.031(4) 0.046(5) 0.002(4) 0.002(3) 0.005(3)
N2 0.033(3) 0.060(4) 0.042(5) 0.005(4) 0.006(3) 0.012(3)
N3 0.028(3) 0.051(4) 0.042(4) 0.000(4) 0.005(3) 0.000(3)
N4 0.035(4) 0.048(4) 0.037(4) 0.001(3) -0.005(3) 0.004(3)
N5 0.042(4) 0.051(4) 0.036(4) 0.000(4) 0.002(4) -0.013(3)
N6 0.033(4) 0.061(5) 0.039(4) -0.003(4) 0.004(3) -0.012(3)
N7 0.030(3) 0.040(4) 0.047(4) 0.007(4) 0.002(3) 0.002(3)
N8 0.036(4) 0.042(4) 0.044(4) 0.000(3) -0.003(3) 0.009(3)
C1 0.045(5) 0.044(5) 0.066(7) 0.003(5) -0.005(4) 0.008(4)
C2 0.087(8) 0.068(7) 0.057(8) 0.015(7) -0.021(6) 0.016(6)
C3 0.050(6) 0.083(8) 0.049(6) -0.003(6) -0.013(5) 0.007(5)
C4 0.035(5) 0.062(6) 0.034(6) -0.002(5) -0.001(3) -0.001(4)
C5 0.052(6) 0.065(6) 0.045(6) 0.010(5) 0.011(5) 0.005(5)
C6 0.023(5) 0.094(7) 0.062(7) 0.012(6) 0.016(4) 0.012(5)
C7 0.041(5) 0.051(6) 0.051(6) 0.012(5) -0.003(4) 0.013(4)
C8 0.026(4) 0.053(6) 0.055(6) -0.005(5) 0.004(4) -0.013(4)
C9 0.071(7) 0.069(6) 0.040(6) 0.000(6) 0.011(5) -0.031(5)
C10 0.078(7) 0.090(7) 0.040(7) 0.001(6) -0.018(5) -0.036(6)
C11 0.045(5) 0.061(5) 0.041(6) 0.002(4) 0.005(4) -0.022(4)
C12 0.040(5) 0.047(6) 0.036(6) 0.009(4) -0.003(4) 0.004(4)
C13 0.034(4) 0.083(7) 0.043(6) -0.003(5) -0.014(5) -0.004(5)
C14 0.065(10) 0.090(11) 0.033(8) -0.004(8) 0.000 0.000
C15 0.029(6) 0.049(7) 0.044(7) -0.004(5) 0.000 0.000
C16 0.061(6) 0.038(5) 0.067(7) -0.004(5) -0.010(5) 0.022(5)
C17 0.076(10) 0.041(8) 0.104(13) 0.017(8) 0.000 0.000
C18 0.022(5) 0.039(6) 0.037(8) 0.011(5) 0.000 0.000
Ag1C 0.0317 0.0651 0.0606 -0.0025 -0.0081 0.0054
Ag1B 0.0317 0.0651 0.0606 0.0025 0.0081 0.0054
Ag1G 0.0317 0.0651 0.0606 -0.0025 -0.0081 0.0054
Ag2B 0.0355 0.0676 0.0435 0.0074 0.0031 -0.0075
Ag2G 0.0355 0.0676 0.0435 -0.0074 -0.0031 -0.0075
Ag2C 0.0355 0.0676 0.0435 -0.0074 -0.0031 -0.0075
N1C 0.05 0.031 0.046 0.002 -0.002 -0.005
N2C 0.033 0.06 0.042 0.005 -0.006 -0.012
N2B 0.033 0.06 0.042 -0.005 0.006 -0.012
N3B 0.028 0.051 0.042 0 0.005 0
N3C 0.028 0.051 0.042 0 -0.005 0
N4B 0.035 0.048 0.037 -0.001 -0.005 -0.004
N5G 0.042 0.051 0.036 0 -0.002 0.013
N5C 0.042 0.051 0.036 0 -0.002 0.013
N6G 0.033 0.061 0.039 -0.003 -0.004 0.012
N6E 0.033 0.061 0.039 0.003 -0.004 -0.012
N7C 0.03 0.04 0.047 0.007 -0.002 -0.002
N8C 0.036 0.042 0.044 0 0.003 -0.009
N8B 0.036 0.042 0.044 0 -0.003 -0.009
C1C 0.045 0.044 0.066 0.003 0.005 -0.008
C2C 0.087 0.068 0.057 0.015 0.021 -0.016
C3C 0.05 0.083 0.049 -0.003 0.013 -0.007
C4C 0.035 0.062 0.034 -0.002 0.001 0.001
C5B 0.052 0.065 0.045 -0.01 0.011 -0.005
C6B 0.023 0.094 0.062 -0.012 0.016 -0.012
C7B 0.041 0.051 0.051 -0.012 -0.003 -0.013
C8B 0.026 0.053 0.055 0.005 0.004 0.013
C9G 0.071 0.069 0.04 0 -0.011 0.031
C10G 0.078 0.09 0.04 0.001 0.018 0.036
C11G 0.045 0.061 0.041 0.002 -0.005 0.022
C12G 0.04 0.047 0.036 0.009 0.003 -0.004
C13C 0.034 0.083 0.043 -0.003 0.014 0.004
C16C 0.061 0.038 0.067 -0.004 0.01 -0.022
P1 0.029(2) 0.043(2) 0.042(2) -0.001(2) 0.000 0.000
F1 0.061(4) 0.041(4) 0.048(4) 0.005(3) 0.000 0.000
F2 0.060(4) 0.068(5) 0.070(5) 0.031(5) 0.000 0.000
F3 0.050(3) 0.078(3) 0.051(3) -0.012(3) -0.022(2) -0.011(2)
F4 0.040(3) 0.072(3) 0.070(4) -0.005(3) 0.011(2) 0.018(2)
F3C 0.05 0.078 0.051 -0.012 0.022 0.011
F4C 0.04 0.072 0.07 -0.005 -0.011 -0.018
P2 0.051(2) 0.049(2) 0.049(2) 0.007(2) 0.000 0.000
F5 0.143(9) 0.029(5) 0.079(8) 0.002(5) 0.000 0.000
F6 0.112(9) 0.055(7) 0.068(9) 0.017(7) 0.000 0.000
F7 0.101(6) 0.085(5) 0.110(7) -0.011(7) 0.066(7) -0.008(5)
F8 0.085(6) 0.096(6) 0.094(7) -0.015(6) -0.039(5) 0.008(5)
F7C 0.101 0.085 0.11 -0.011 -0.066 0.008
F8C 0.085 0.096 0.094 -0.015 0.039 -0.008
P3 0.0556(14) 0.065(2) 0.047(2) -0.0093(14) 0.0065(12) -0.0068(13)
F13 0.106(4) 0.120(4) 0.106(6) 0.054(4) 0.025(3) -0.013(4)
F14 0.085(5) 0.108(5) 0.163(7) 0.042(5) -0.010(4) -0.045(4)
F15 0.048(7) 0.223(14) 0.132(14) 0.102(12) 0.012(7) 0.030(8)
F16 0.127(12) 0.200(14) 0.064(9) -0.067(9) 0.036(9) -0.038(11)
F17 0.046(6) 0.113(9) 0.166(12) 0.083(9) -0.004(7) 0.013(6)
F18 0.291(20) 0.088(9) 0.060(9) -0.021(8) 0.061(11) -0.025(11)
O1 0.145(7) 0.066(5) 0.151(8) -0.023(5) 0.051(6) 0.005(5)
loop_
_geom_bond_atom_site_label_1
_geom_bond_atom_site_label_2
_geom_bond_site_symmetry_1
_geom_bond_site_symmetry_2
Ag1 N1 1_555 1_555
Ag2 N2 1_555 1_555
P1 F1 1_555 1_555
P2 F5 1_555 1_555
P3 F13 1_555 1_555
F2 P1 1_555 1_555
F3 P1 1_555 1_555
F4 P1 1_555 1_555
F6 P2 1_555 1_555
F7 P2 1_555 1_555
F8 P2 1_555 1_555
F14 P3 1_555 1_555
F15 P3 1_555 1_555
F16 P3 1_555 1_555
F17 P3 1_555 1_555
F18 P3 1_555 1_555
N1 C1 1_555 1_555
N2 C3 1_555 1_555
N3 Ag1 1_555 1_555
N4 C7 1_555 1_555
N5 Ag1 1_555 1_555
N6 C11 1_555 1_555
N7 Ag1 1_555 1_555
N8 Ag2 1_555 1_555
C1 H1 1_555 1_555
C2 C1 1_555 1_555
H2 C2 1_555 1_555
C3 C2 1_555 1_555
H3 C3 1_555 1_555
C4 N1 1_555 1_555
H4 C4 1_555 1_555
C5 N3 1_555 1_555
H5 C5 1_555 1_555
C6 C5 1_555 1_555
H6 C6 1_555 1_555
C7 C6 1_555 1_555
H7 C7 1_555 1_555
C8 N3 1_555 1_555
H8 C8 1_555 1_555
C9 N5 1_555 1_555
H9 C9 1_555 1_555
C10 C9 1_555 1_555
H10 C10 1_555 1_555
C11 C10 1_555 1_555
H11 C11 1_555 1_555
C12 N5 1_555 1_555
H12 C12 1_555 1_555
C13 N7 1_555 1_555
H13 C13 1_555 1_555
C14 C13 1_555 1_555
H14 C14 1_555 1_555
C15 N7 1_555 1_555
H15 C15 1_555 1_555
C16 N8 1_555 1_555
H16 C16 1_555 1_555
C17 C16 1_555 1_555
H17 C17 1_555 1_555
C18 N8 1_555 1_555
H18 C18 1_555 1_555
Ag1C N1C 1_555 1_555
Ag1B N3B 1_555 1_555
Ag1G N5G 1_555 1_555
Ag2B N4 1_555 1_555
Ag2G N6 1_555 1_555
Ag2C N2C 1_555 1_555
F3C P1 1_555 1_555
F4C P1 1_555 1_555
F7C P2 1_555 1_555
F8C P2 1_555 1_555
N1C C1C 1_555 1_555
N2C C3C 1_555 1_555
N2B Ag2B 1_555 1_555
N3B C5B 1_555 1_555
N3C Ag1C 1_555 1_555
N4B Ag2 1_555 1_555
N5G C9G 1_555 1_555
N5C Ag1C 1_555 1_555
N6G Ag2 1_555 1_555
N6E Ag2B 1_555 1_555
N7C C15 1_555 1_555
N8C C18 1_555 1_555
N8B Ag2B 1_555 1_555
C1C H1C 1_555 1_555
C2C C1C 1_555 1_555
H2C C2C 1_555 1_555
C3C C2C 1_555 1_555
H3C C3C 1_555 1_555
C4C N1C 1_555 1_555
H4C C4C 1_555 1_555
C5B H5B 1_555 1_555
C6B C5B 1_555 1_555
H6B C6B 1_555 1_555
C7B N4B 1_555 1_555
H7B C7B 1_555 1_555
C8B N3B 1_555 1_555
H8B C8B 1_555 1_555
C9G H9G 1_555 1_555
C10G C9G 1_555 1_555
H10G C10G 1_555 1_555
C11G N6G 1_555 1_555
H11G C11G 1_555 1_555
C12G N5G 1_555 1_555
H12G C12G 1_555 1_555
C13C C14 1_555 1_555
H13C C13C 1_555 1_555
C16C C17 1_555 1_555
H16C C16C 1_555 1_555
N2 C4 1_555 1_555
N4 C8 1_555 1_555
N6 C12 1_555 1_555
Ag1C N7C 1_555 1_555
Ag2C N8C 1_555 1_555
N2C C4C 1_555 1_555
N4B C8B 1_555 1_555
N6G C12G 1_555 1_555
N7C C13C 1_555 1_555
N8C C16C 1_555 1_555
C6B C7B 1_555 1_555
C10G C11G 1_555 1_555

#END
