
#######################################################################
#
#                 Cambridge Crystallographic Data Centre
#                                CCDC 
#
#######################################################################
#
# If this CIF has been generated from an entry in the Cambridge 
# Structural Database, then it will include bibliographic, chemical, 
# crystal, experimental, refinement or atomic coordinate data resulting 
# from the CCDC's data processing and validation procedures.
#
#######################################################################

data_MIMDAP
_chemical_formula_moiety         '(C30 H46 Mo8 N30 Ni2 O29)n'
_symmetry_cell_setting           triclinic
_symmetry_space_group_name_H-M   'P -1'
_symmetry_Int_Tables_number      2
_space_group_name_Hall           '-P 1'
loop_
_symmetry_equiv_pos_site_id
_symmetry_equiv_pos_as_xyz
1 x,y,z
2 -x,-y,-z
_cell_length_a                   10.661(5)
_cell_length_b                   11.998(5)
_cell_length_c                   13.878(5)
_cell_angle_alpha                72.774(5)
_cell_angle_beta                 79.859(5)
_cell_angle_gamma                81.106(5)
_cell_volume                     1659.09
loop_
_atom_site_label
_atom_site_type_symbol
_atom_site_fract_x
_atom_site_fract_y
_atom_site_fract_z
Mo1 Mo 0.85183(7) -0.01247(6) 0.46817(5)
Ni1 Ni 0.0000 0.5000 0.5000
C1 C 0.2380(10) 0.5376(9) 0.3314(8)
H1 H 0.2573 0.6017 0.3484
C2 C 0.1435(9) 0.4003(8) 0.3284(7)
H2 H 0.0842 0.3467 0.3408
C3 C 0.9513(10) -0.2519(9) 0.0137(7)
H3 H 0.8805 -0.2229 -0.0205
C4 C 0.2947(9) 0.3253(8) 0.1968(7)
H4 H 0.3594 0.3609 0.1428
H5 H 0.2249 0.3137 0.1657
C5 C 0.3518(10) 0.2076(9) 0.2581(8)
H6 H 0.2894 0.1748 0.3155
H7 H 0.3726 0.1539 0.2159
C6 C 0.5873(9) 0.2090(8) 0.2508(7)
H8 H 0.6123 0.1926 0.1883
C7 C 0.4254(10) 0.2246(10) 0.6739(9)
H9 H 0.4609 0.2506 0.7223
H10 H 0.4811 0.2443 0.6094
C8 C 0.1268(14) 0.3858(11) 0.6983(9)
H11 H 0.0594 0.4222 0.7343
C9 C 0.2377(10) 0.3296(9) 0.5791(7)
H12 H 0.2684 0.3148 0.5166
C10 C 0.9481(12) -0.4665(9) 0.0298(8)
H13 H 0.8737 -0.4414 -0.0059
H14 H 0.9219 -0.5181 0.0965
C11 C 0.2301(10) 0.0397(9) 0.8345(7)
H15 H 0.1772 0.0476 0.7857
C12 C 0.4253(10) 0.0910(9) 0.7117(7)
H16 H 0.3880 0.0643 0.6646
H17 H 0.5129 0.0542 0.7134
C13 C 1.1109(12) -0.2670(9) 0.0881(8)
H18 H 1.1740 -0.2481 0.1172
C14 C 0.2986(13) 0.0085(16) 0.9698(9)
H19 H 0.3037 -0.0098 1.0390
C15 C 0.5855(10) 0.2410(9) 0.3907(7)
H20 H 0.6137 0.2506 0.4472
N1 N 0.4647(8) 0.2423(8) 0.3867(6)
N2 N 1.0987(11) -0.3744(8) 0.0882(7)
N3 N 0.4013(10) 0.0345(14) 0.8983(8)
N4 N 0.1295(7) 0.3935(6) 0.5979(6)
N5 N 0.3112(8) 0.4934(8) 0.2597(7)
N6 N 0.2464(7) 0.4050(7) 0.2612(6)
N7 N 0.9960(9) -0.3627(7) 0.0418(6)
N8 N 0.2240(11) 0.3245(10) 0.7403(7)
N9 N 0.2972(8) 0.2892(8) 0.6603(6)
N10 N 0.3518(8) 0.0551(7) 0.8140(6)
N11 N 0.1919(8) 0.0109(7) 0.9353(5)
N12 N 1.0206(8) -0.1865(7) 0.0405(6)
N13 N 0.1348(7) 0.4819(6) 0.3764(5)
N14 N 0.4689(8) 0.2201(7) 0.2955(6)
N15 N 0.6679(8) 0.2254(7) 0.3098(5)
O1 O 0.9028(6) -0.1611(5) 0.5004(4)
O2 O 1.0894(6) -0.0227(5) 0.4191(4)
O3 O 0.7163(6) 0.2330(6) 0.5855(4)
O4 O 1.2518(6) -0.0063(6) 0.2291(5)
O5 O 0.8374(6) 0.2259(6) 0.1501(5)
O6 O 1.0457(6) 0.0011(5) 0.1398(4)
O7 O 0.9198(6) 0.3558(5) 0.5002(4)
O8 O 0.6917(6) -0.0047(5) 0.4984(5)
O9 O 1.0540(6) 0.1667(5) 0.2458(4)
O10 O 0.8661(6) 0.1734(5) 0.4242(4)
O11 O 0.9327(6) 0.1608(5) 0.6775(4)
O12 O 0.8792(6) 0.0288(5) 0.3247(4)
O13 O 0.8852(7) 0.3651(6) 0.2581(5)
Mo2 Mo 0.87851(8) 0.22137(7) 0.26338(5)
Ni2 Ni 1.0000 0.0000 0.0000
Mo3 Mo 0.87685(7) 0.21404(6) 0.54577(5)
Mo4 Mo 1.09085(7) -0.00061(6) 0.25373(5)
C3A C 1.0487(10) -0.7481(9) -0.0137(7)
H3A H 1.1195 -0.7771 0.0205
C10A C 1.0519(12) -0.5335(9) -0.0298(8)
H13A H 1.1263 -0.5586 0.0059
H14A H 1.0781 -0.4819 -0.0965
C13A C 0.8891(12) -0.7330(9) -0.0881(8)
H18A H 0.8260 -0.7519 -0.1172
N2A N 0.9013(11) -0.6256(8) -0.0882(7)
N7A N 1.0040(9) -0.6373(7) -0.0418(6)
N12A N 0.9794(8) -0.8135(7) -0.0405(6)
Mo1A Mo -0.85183(7) 1.01247(6) 0.53183(5)
C1A C -0.2380(10) 0.4624(9) 0.6686(8)
H1A H -0.2573 0.3983 0.6516
C2A C -0.1435(9) 0.5997(8) 0.6716(7)
H2A H -0.0842 0.6533 0.6592
C4A C -0.2947(9) 0.6747(8) 0.8032(7)
H4A H -0.3594 0.6391 0.8572
H5A H -0.2249 0.6863 0.8343
C5A C -0.3518(10) 0.7924(9) 0.7419(8)
H6A H -0.2894 0.8252 0.6845
H7A H -0.3726 0.8461 0.7841
C6A C -0.5873(9) 0.7910(8) 0.7492(7)
H8A H -0.6123 0.8074 0.8117
C7A C -0.4254(10) 0.7754(10) 0.3261(9)
H9A H -0.4609 0.7494 0.2777
H10A H -0.4811 0.7557 0.3906
C8A C -0.1268(14) 0.6142(11) 0.3017(9)
H11A H -0.0594 0.5778 0.2657
C9A C -0.2377(10) 0.6704(9) 0.4209(7)
H12A H -0.2684 0.6852 0.4834
C11A C -0.2301(10) 0.9603(9) 0.1655(7)
H15A H -0.1772 0.9524 0.2143
C12A C -0.4253(10) 0.9090(9) 0.2883(7)
H16A H -0.3880 0.9357 0.3354
H17A H -0.5129 0.9458 0.2866
C14A C -0.2986(13) 0.9915(16) 0.0302(9)
H19A H -0.3037 1.0098 -0.0390
C15A C -0.5855(10) 0.7590(9) 0.6093(7)
H20A H -0.6137 0.7494 0.5528
N1A N -0.4647(8) 0.7577(8) 0.6133(6)
N3A N -0.4013(10) 0.9655(14) 0.1017(8)
N4A N -0.1295(7) 0.6065(6) 0.4021(6)
N5A N -0.3112(8) 0.5066(8) 0.7403(7)
N6A N -0.2464(7) 0.5950(7) 0.7388(6)
N8A N -0.2240(11) 0.6755(10) 0.2597(7)
N9A N -0.2972(8) 0.7108(8) 0.3397(6)
N10A N -0.3518(8) 0.9449(7) 0.1860(6)
N11A N -0.1919(8) 0.9891(7) 0.0647(5)
N13A N -0.1348(7) 0.5181(6) 0.6236(5)
N14A N -0.4689(8) 0.7799(7) 0.7045(6)
N15A N -0.6679(8) 0.7746(7) 0.6902(5)
O1A O -0.9028(6) 1.1611(5) 0.4996(4)
O2A O -1.0894(6) 1.0227(5) 0.5809(4)
O3A O -0.7163(6) 0.7670(6) 0.4145(4)
O4A O -1.2518(6) 1.0063(6) 0.7709(5)
O5A O -0.8374(6) 0.7741(6) 0.8499(5)
O6A O -1.0457(6) 0.9989(5) 0.8602(4)
O7A O -0.9198(6) 0.6442(5) 0.4998(4)
O8A O -0.6917(6) 1.0047(5) 0.5016(5)
O9A O -1.0540(6) 0.8333(5) 0.7542(4)
O10A O -0.8661(6) 0.8266(5) 0.5758(4)
O11A O -0.9327(6) 0.8392(5) 0.3225(4)
O12A O -0.8792(6) 0.9712(5) 0.6753(4)
O13A O -0.8852(7) 0.6349(6) 0.7419(5)
Mo2A Mo -0.87851(8) 0.77863(7) 0.73662(5)
Mo3A Mo -0.87685(7) 0.78596(6) 0.45423(5)
Mo4A Mo -1.09085(7) 1.00061(6) 0.74627(5)
Mo1_2 Mo -1.14817(7) 0.98753(6) 0.46817(5)
Mo1A_2 Mo 1.14817(7) 0.01247(6) 0.53183(5)
Ni1_2 Ni -1.0000 0.5000 0.5000
Ni1_3 Ni 1.0000 0.5000 0.5000
N11_2 N 1.1919(8) 0.0109(7) -0.0647(5)
N11A_2 N 0.8081(8) -0.0109(7) 0.0647(5)
N12A_2 N 0.9794(8) 0.1865(7) -0.0405(6)
O1_2 O -1.0972(6) 0.8389(5) 0.5004(4)
O1A_2 O 1.0972(6) 0.1611(5) 0.4996(4)
O2_2 O -0.9106(6) 0.9773(5) 0.4191(4)
O2A_2 O 0.9106(6) 0.0227(5) 0.5809(4)
O6A_2 O 0.9543(6) -0.0011(5) -0.1398(4)
O7_2 O -0.0802(6) 0.3558(5) 0.5002(4)
O7A_2 O 0.0802(6) 0.6442(5) 0.4998(4)
O11_2 O -1.0673(6) 1.1608(5) 0.6775(4)
O11A_2 O 1.0673(6) -0.1608(5) 0.3225(4)
Ni2_2 Ni -1.0000 1.0000 1.0000
Ni2_3 Ni 0.0000 -0.0000 1.0000
Ni2_4 Ni 0.0000 1.0000 0.0000
Ni2_5 Ni 1.0000 -1.0000 0.0000
Mo3_2 Mo -1.12315(7) 1.21404(6) 0.54577(5)
Mo3A_2 Mo 1.12315(7) -0.21404(6) 0.45423(5)
Mo4_2 Mo -0.90915(7) 0.99939(6) 0.25373(5)
Mo4A_2 Mo 0.90915(7) 0.00061(6) 0.74627(5)
O14 O 0.685(2) -0.325(2) 0.0662(18)
O15 O 0.622(2) 0.423(2) 0.043(2)
O16 O 0.441(8) 0.228(4) 1.018(3)
loop_
_geom_bond_atom_site_label_1
_geom_bond_atom_site_label_2
_geom_bond_site_symmetry_1
_geom_bond_site_symmetry_2
Mo1 O1 1_555 1_555
Ni1 N4 1_555 1_555
C1 H1 1_555 1_555
C2 H2 1_555 1_555
C3 H3 1_555 1_555
C4 H4 1_555 1_555
H5 C4 1_555 1_555
C5 C4 1_555 1_555
H6 C5 1_555 1_555
H7 C5 1_555 1_555
C6 H8 1_555 1_555
C7 H9 1_555 1_555
H10 C7 1_555 1_555
C8 H11 1_555 1_555
C9 H12 1_555 1_555
C10 H13 1_555 1_555
H14 C10 1_555 1_555
C11 H15 1_555 1_555
C12 C7 1_555 1_555
H16 C12 1_555 1_555
H17 C12 1_555 1_555
C13 H18 1_555 1_555
C14 H19 1_555 1_555
C15 H20 1_555 1_555
N1 C15 1_555 1_555
N2 C13 1_555 1_555
N3 C14 1_555 1_555
N4 C8 1_555 1_555
N5 C1 1_555 1_555
N6 C2 1_555 1_555
N7 C3 1_555 1_555
N8 C8 1_555 1_555
N9 C7 1_555 1_555
N10 C11 1_555 1_555
N11 C11 1_555 1_555
N12 C3 1_555 1_555
N13 Ni1 1_555 1_555
N14 C5 1_555 1_555
N15 C6 1_555 1_555
O1 Mo3A_2 1_555 1_555
O2 Mo1 1_555 1_555
O3 Mo3 1_555 1_555
O4 Mo4 1_555 1_555
O5 Mo2 1_555 1_555
O6 Ni2 1_555 1_555
O7 Mo3 1_555 1_555
O8 Mo1 1_555 1_555
O9 Mo2 1_555 1_555
O10 Mo1 1_555 1_555
O11 Mo3 1_555 1_555
O12 Mo1 1_555 1_555
O13 Mo2 1_555 1_555
Mo2 N15 1_555 1_555
Ni2 N12 1_555 1_555
Mo3 O10 1_555 1_555
Mo4 O2 1_555 1_555
C3A H3A 1_555 1_555
C10A C10 1_555 1_555
H13A C10A 1_555 1_555
H14A C10A 1_555 1_555
C13A H18A 1_555 1_555
N2A C13A 1_555 1_555
N7A C3A 1_555 1_555
N12A C3A 1_555 1_555
Mo1A O1A 1_555 1_555
C1A H1A 1_555 1_555
C2A H2A 1_555 1_555
C4A H4A 1_555 1_555
H5A C4A 1_555 1_555
C5A C4A 1_555 1_555
H6A C5A 1_555 1_555
H7A C5A 1_555 1_555
C6A H8A 1_555 1_555
C7A H9A 1_555 1_555
H10A C7A 1_555 1_555
C8A H11A 1_555 1_555
C9A H12A 1_555 1_555
C11A H15A 1_555 1_555
C12A C7A 1_555 1_555
H16A C12A 1_555 1_555
H17A C12A 1_555 1_555
C14A H19A 1_555 1_555
C15A H20A 1_555 1_555
N1A C15A 1_555 1_555
N3A C14A 1_555 1_555
N4A Ni1 1_555 1_555
N5A C1A 1_555 1_555
N6A C2A 1_555 1_555
N8A C8A 1_555 1_555
N9A C7A 1_555 1_555
N10A C11A 1_555 1_555
N11A C11A 1_555 1_555
N13A Ni1 1_555 1_555
N14A C5A 1_555 1_555
N15A C6A 1_555 1_555
O1A Mo3_2 1_555 1_555
O2A Mo1A 1_555 1_555
O3A Mo3A 1_555 1_555
O4A Mo4A 1_555 1_555
O5A Mo2A 1_555 1_555
O6A Mo4A 1_555 1_555
O7A Mo3A 1_555 1_555
O8A Mo1A 1_555 1_555
O9A Mo2A 1_555 1_555
O10A Mo1A 1_555 1_555
O11A Mo3A 1_555 1_555
O12A Mo1A 1_555 1_555
O13A Mo2A 1_555 1_555
Mo2A N15A 1_555 1_555
Mo3A O10A 1_555 1_555
Mo4A O2A 1_555 1_555
Mo1_2 O2A 1_555 1_555
Mo1A_2 O2 1_555 1_555
Ni1_2 O7A 1_555 1_555
Ni1_3 O7 1_555 1_555
N11_2 Ni2 1_555 1_555
N11A_2 Ni2 1_555 1_555
N12A_2 Ni2 1_555 1_555
O1_2 Mo3A 1_555 1_555
O1A_2 Mo3 1_555 1_555
O2_2 Mo1A 1_555 1_555
O2A_2 Mo1 1_555 1_555
O6A_2 Ni2 1_555 1_555
O7_2 Ni1 1_555 1_555
O7A_2 Ni1 1_555 1_555
O11_2 Mo4A 1_555 1_555
O11A_2 Mo4 1_555 1_555
Ni2_2 O6A 1_555 1_555
Ni2_3 N11 1_555 1_555
Ni2_4 N11A 1_555 1_555
Ni2_5 N12A 1_555 1_555
Mo3_2 O2A 1_555 1_555
Mo3A_2 O2 1_555 1_555
Mo4_2 O11A 1_555 1_555
Mo4A_2 O11 1_555 1_555
C1 N13 1_555 1_555
C2 N13 1_555 1_555
C4 N6 1_555 1_555
C6 N14 1_555 1_555
C9 N4 1_555 1_555
C9 N9 1_555 1_555
C10 N7 1_555 1_555
C12 N10 1_555 1_555
C13 N12 1_555 1_555
C14 N11 1_555 1_555
C15 N15 1_555 1_555
N1 N14 1_555 1_555
N2 N7 1_555 1_555
N3 N10 1_555 1_555
N5 N6 1_555 1_555
N8 N9 1_555 1_555
O6 Mo4 1_555 1_555
O9 Mo4 1_555 1_555
O10 Mo2 1_555 1_555
O12 Mo2 1_555 1_555
O12 Mo4 1_555 1_555
Mo3 O2A_2 1_555 1_555
C10A N7A 1_555 1_555
C13A N12A 1_555 1_555
N2A N7A 1_555 1_555
C1A N13A 1_555 1_555
C2A N13A 1_555 1_555
C4A N6A 1_555 1_555
C6A N14A 1_555 1_555
C8A N4A 1_555 1_555
C9A N4A 1_555 1_555
C9A N9A 1_555 1_555
C12A N10A 1_555 1_555
C14A N11A 1_555 1_555
C15A N15A 1_555 1_555
N1A N14A 1_555 1_555
N3A N10A 1_555 1_555
N5A N6A 1_555 1_555
N8A N9A 1_555 1_555
O9A Mo4A 1_555 1_555
O10A Mo2A 1_555 1_555
O12A Mo2A 1_555 1_555
O12A Mo4A 1_555 1_555
Mo3A O2_2 1_555 1_555
Mo1_2 O1_2 1_555 1_555
Mo1_2 O2_2 1_555 1_555
Mo1A_2 O1A_2 1_555 1_555
Mo1A_2 O2A_2 1_555 1_555
O2_2 Mo4_2 1_555 1_555
O2A_2 Mo4A_2 1_555 1_555
O11_2 Mo3_2 1_555 1_555
O11A_2 Mo3A_2 1_555 1_555

#END
