
#######################################################################
#
#                 Cambridge Crystallographic Data Centre
#                                CCDC 
#
#######################################################################
#
# If this CIF has been generated from an entry in the Cambridge 
# Structural Database, then it will include bibliographic, chemical, 
# crystal, experimental, refinement or atomic coordinate data resulting 
# from the CCDC's data processing and validation procedures.
#
#######################################################################

data_MUNDEG
_chemical_formula_moiety         '(C84 H66 Cu14 I8 N8 O30)n'
_symmetry_cell_setting           hexagonal
_symmetry_space_group_name_H-M   'P 63/m'
_symmetry_Int_Tables_number      176
_space_group_name_Hall           '-P 6c'
loop_
_symmetry_equiv_pos_site_id
_symmetry_equiv_pos_as_xyz
1 x,y,z
2 -y,x-y,z
3 -x+y,-x,z
4 -x,-y,1/2+z
5 y,-x+y,1/2+z
6 x-y,x,1/2+z
7 -x,-y,-z
8 y,-x+y,-z
9 x-y,x,-z
10 x,y,1/2-z
11 -y,x-y,1/2-z
12 -x+y,-x,1/2-z
_cell_length_a                   27.538(4)
_cell_length_b                   27.538(4)
_cell_length_c                   20.139(4)
_cell_angle_alpha                90
_cell_angle_beta                 90
_cell_angle_gamma                120
_cell_volume                     13226.1
loop_
_atom_site_label
_atom_site_type_symbol
_atom_site_fract_x
_atom_site_fract_y
_atom_site_fract_z
I1 I 0.22672(2) 0.63420(2) 0.54931(2)
I2 I 0.3333 0.6667 0.36496(3)
Cu1 Cu 0.28777(3) 0.60524(3) 0.47476(4)
Cu2 Cu 0.3333 0.6667 0.58258(6)
Cu3 Cu 0.23443(3) 0.33287(3) 0.2500
Cu4 Cu 0.32881(3) 0.43117(3) 0.2500
O1 O 0.21137(14) 0.36887(14) 0.31983(16)
O2 O 0.29103(15) 0.45132(14) 0.31759(17)
O3 O -0.04092(14) 0.27229(15) 0.68097(17)
O4 O -0.04542(15) 0.35125(15) 0.68229(19)
O5 O 0.1582(2) 0.2548(2) 0.2500
O6 O 0.4049(2) 0.5157(3) 0.2500
N1 N 0.23769(19) 0.52387(18) 0.4501(2)
N2 N 0.3333 0.6667 0.6854(4)
C1 C 0.2515(2) 0.4981(2) 0.4032(2)
H1 H 0.2836 0.5199 0.3781
C2 C 0.2208(2) 0.4410(2) 0.3900(2)
C3 C 0.1737(2) 0.4080(2) 0.4275(2)
H2 H 0.1525 0.3696 0.4200
C4 C 0.1585(2) 0.4333(2) 0.4770(3)
C5 C 0.1917(2) 0.4905(3) 0.4857(3)
H3 H 0.1815 0.5072 0.5188
C6 C 0.2423(2) 0.4178(2) 0.3384(2)
C7 C 0.1079(2) 0.4023(2) 0.5203(3)
C8 C 0.0929(2) 0.3493(3) 0.5420(3)
H4 H 0.1120 0.3315 0.5271
C9 C 0.0479(2) 0.3223(2) 0.5871(3)
H5 H 0.0371 0.2861 0.6014
C10 C 0.0196(2) 0.3488(2) 0.6108(3)
C11 C 0.0336(3) 0.4008(3) 0.5858(3)
H6 H 0.0136 0.4182 0.5989
C12 C 0.0776(3) 0.4271(3) 0.5410(3)
H7 H 0.0868 0.4622 0.5245
C13 C -0.0264(2) 0.3214(3) 0.6624(3)
C14 C 0.3901(2) 0.6864(3) 0.7115(3)
H8 H 0.4152 0.7241 0.6955
H9 H 0.4038 0.6622 0.6955
C14A C 0.3136(3) 0.7037(4) 0.7115(3)
H8A H 0.2759 0.6911 0.6955
H9A H 0.3378 0.7416 0.6955
C14B C 0.2963(4) 0.6099(2) 0.7115(3)
H8B H 0.3089 0.5848 0.6955
H9B H 0.2584 0.5962 0.6955
N2I N 0.3333 0.6667 0.8146(4)
C14I C 0.3901(2) 0.6864(3) 0.7885(3)
H8I H 0.4152 0.7241 0.8045
H9I H 0.4038 0.6622 0.8045
C14J C 0.3136(3) 0.7037(4) 0.7885(3)
H8J H 0.2759 0.6911 0.8045
H9J H 0.3378 0.7416 0.8045
C14K C 0.2963(4) 0.6099(2) 0.7885(3)
H8K H 0.3089 0.5848 0.8045
H9K H 0.2584 0.5962 0.8045
I1A I 0.36580(2) 0.59252(3) 0.54931(2)
Cu1A Cu 0.39476(3) 0.68253(4) 0.47476(4)
Cu3A Cu 0.66713(3) 0.90156(4) 0.2500
Cu4A Cu 0.56883(3) 0.89764(4) 0.2500
O1A O 0.63113(14) 0.84250(20) 0.31983(16)
O2A O 0.54868(14) 0.83971(21) 0.31759(17)
O3A O 0.72771(15) 0.68679(21) 0.68097(17)
O4A O 0.64875(15) 0.60333(21) 0.68229(19)
O5A O 0.7452(2) 0.9034(3) 0.2500
O6A O 0.4843(3) 0.8892(4) 0.2500
N1A N 0.47613(18) 0.71382(26) 0.4501(2)
C1A C 0.5019(2) 0.7534(3) 0.4032(2)
H1A H 0.4801 0.7637 0.3781
C2A C 0.5590(2) 0.7798(3) 0.3900(2)
C3A C 0.5920(2) 0.7657(3) 0.4275(2)
H2A H 0.6304 0.7829 0.4200
C4A C 0.5667(2) 0.7252(3) 0.4770(3)
C5A C 0.5095(3) 0.7012(4) 0.4857(3)
H3A H 0.4928 0.6743 0.5188
C6A C 0.5822(2) 0.8245(3) 0.3384(2)
C7A C 0.5977(2) 0.7056(3) 0.5203(3)
C8A C 0.6507(3) 0.7436(4) 0.5420(3)
H4A H 0.6685 0.7805 0.5271
C9A C 0.6777(2) 0.7256(3) 0.5871(3)
H5A H 0.7139 0.7510 0.6014
C10A C 0.6512(2) 0.6708(3) 0.6108(3)
C11A C 0.5992(3) 0.6328(4) 0.5858(3)
H6A H 0.5818 0.5954 0.5989
C12A C 0.5729(3) 0.6505(4) 0.5410(3)
H7A H 0.5378 0.6246 0.5245
C13A C 0.6786(3) 0.6522(4) 0.6624(3)
I1B I 0.40748(3) 0.77328(2) 0.54931(2)
Cu1B Cu 0.31747(4) 0.71223(3) 0.47476(4)
Cu3B Cu 0.09844(4) 0.76557(3) 0.2500
Cu4B Cu 0.10236(4) 0.67119(3) 0.2500
O1B O 0.15750(20) 0.78863(14) 0.31983(16)
O2B O 0.16029(21) 0.70897(15) 0.31759(17)
O3B O 0.31321(21) 1.04092(14) 0.68097(17)
O4B O 0.39667(21) 1.04542(15) 0.68229(19)
O5B O 0.0966(3) 0.8418(2) 0.2500
O6B O 0.1108(4) 0.5951(2) 0.2500
N1B N 0.28618(26) 0.76231(19) 0.4501(2)
C1B C 0.2466(3) 0.7485(2) 0.4032(2)
H1B H 0.2363 0.7164 0.3781
C2B C 0.2202(3) 0.7792(2) 0.3900(2)
C3B C 0.2343(3) 0.8263(2) 0.4275(2)
H2B H 0.2171 0.8475 0.4200
C4B C 0.2748(3) 0.8415(2) 0.4770(3)
C5B C 0.2988(4) 0.8083(2) 0.4857(3)
H3B H 0.3257 0.8185 0.5188
C6B C 0.1755(3) 0.7577(2) 0.3384(2)
C7B C 0.2944(3) 0.8921(2) 0.5203(3)
C8B C 0.2564(4) 0.9071(2) 0.5420(3)
H4B H 0.2195 0.8880 0.5271
C9B C 0.2744(3) 0.9521(2) 0.5871(3)
H5B H 0.2490 0.9629 0.6014
C10B C 0.3292(3) 0.9804(2) 0.6108(3)
C11B C 0.3672(4) 0.9664(3) 0.5858(3)
H6B H 0.4046 0.9864 0.5989
C12B C 0.3495(4) 0.9224(3) 0.5410(3)
H7B H 0.3754 0.9132 0.5245
C13B C 0.3478(4) 1.0264(2) 0.6624(3)
I1F I -0.22672(2) 0.36580(2) 0.45069(2)
I2F I -0.3333 0.3333 0.63504(3)
Cu1F Cu -0.28777(3) 0.39476(3) 0.52524(4)
Cu2F Cu -0.3333 0.3333 0.41742(6)
O1F O -0.21137(14) 0.63113(14) 0.68017(16)
O2F O -0.29103(15) 0.54868(14) 0.68241(17)
O3F O 0.04092(14) 0.72771(15) 0.31903(17)
O4F O 0.04542(15) 0.64875(15) 0.31771(19)
N1F N -0.23769(19) 0.47613(18) 0.5499(2)
C1F C -0.2515(2) 0.5019(2) 0.5968(2)
H1F H -0.2836 0.4801 0.6219
C2F C -0.2208(2) 0.5590(2) 0.6100(2)
C3F C -0.1737(2) 0.5920(2) 0.5725(2)
H2F H -0.1525 0.6304 0.5800
C4F C -0.1585(2) 0.5667(2) 0.5230(3)
C5F C -0.1917(2) 0.5095(3) 0.5143(3)
H3F H -0.1815 0.4928 0.4812
C6F C -0.2423(2) 0.5822(2) 0.6616(2)
C7F C -0.1079(2) 0.5977(2) 0.4797(3)
C8F C -0.0929(2) 0.6507(3) 0.4580(3)
H4F H -0.1120 0.6685 0.4729
C9F C -0.0479(2) 0.6777(2) 0.4129(3)
H5F H -0.0371 0.7139 0.3986
C10F C -0.0196(2) 0.6512(2) 0.3892(3)
C11F C -0.0336(3) 0.5992(3) 0.4142(3)
H6F H -0.0136 0.5818 0.4011
C12F C -0.0776(3) 0.5729(3) 0.4590(3)
H7F H -0.0868 0.5378 0.4755
C13F C 0.0264(2) 0.6786(3) 0.3376(3)
I1G I 0.63420(2) 0.40748(3) 0.45069(2)
Cu1G Cu 0.60524(3) 0.31747(4) 0.52524(4)
O1G O 0.36887(14) 0.15750(20) 0.68017(16)
O2G O 0.45132(14) 0.16029(21) 0.68241(17)
O3G O 0.27229(15) 0.31321(21) 0.31903(17)
O4G O 0.35125(15) 0.39667(21) 0.31771(19)
N1G N 0.52387(18) 0.28618(26) 0.5499(2)
C1G C 0.4981(2) 0.2466(3) 0.5968(2)
H1G H 0.5199 0.2363 0.6219
C2G C 0.4410(2) 0.2202(3) 0.6100(2)
C3G C 0.4080(2) 0.2343(3) 0.5725(2)
H2G H 0.3696 0.2171 0.5800
C4G C 0.4333(2) 0.2748(3) 0.5230(3)
C5G C 0.4905(3) 0.2988(4) 0.5143(3)
H3G H 0.5072 0.3257 0.4812
C6G C 0.4178(2) 0.1755(3) 0.6616(2)
C7G C 0.4023(2) 0.2944(3) 0.4797(3)
C8G C 0.3493(3) 0.2564(4) 0.4580(3)
H4G H 0.3315 0.2195 0.4729
C9G C 0.3223(2) 0.2744(3) 0.4129(3)
H5G H 0.2861 0.2490 0.3986
C10G C 0.3488(2) 0.3292(3) 0.3892(3)
C11G C 0.4008(3) 0.3672(4) 0.4142(3)
H6G H 0.4182 0.4046 0.4011
C12G C 0.4271(3) 0.3495(4) 0.4590(3)
H7G H 0.4622 0.3754 0.4755
C13G C 0.3214(3) 0.3478(4) 0.3376(3)
I1H I -0.40748(3) 0.22672(2) 0.45069(2)
Cu1H Cu -0.31747(4) 0.28777(3) 0.52524(4)
O1H O -0.15750(20) 0.21137(14) 0.68017(16)
O2H O -0.16029(21) 0.29103(15) 0.68241(17)
O3H O -0.31321(21) -0.04092(14) 0.31903(17)
O4H O -0.39667(21) -0.04542(15) 0.31771(19)
N1H N -0.28618(26) 0.23769(19) 0.5499(2)
C1H C -0.2466(3) 0.2515(2) 0.5968(2)
H1H H -0.2363 0.2836 0.6219
C2H C -0.2202(3) 0.2208(2) 0.6100(2)
C3H C -0.2343(3) 0.1737(2) 0.5725(2)
H2H H -0.2171 0.1525 0.5800
C4H C -0.2748(3) 0.1585(2) 0.5230(3)
C5H C -0.2988(4) 0.1917(2) 0.5143(3)
H3H H -0.3257 0.1815 0.4812
C6H C -0.1755(3) 0.2423(2) 0.6616(2)
C7H C -0.2944(3) 0.1079(2) 0.4797(3)
C8H C -0.2564(4) 0.0929(2) 0.4580(3)
H4H H -0.2195 0.1120 0.4729
C9H C -0.2744(3) 0.0479(2) 0.4129(3)
H5H H -0.2490 0.0371 0.3986
C10H C -0.3292(3) 0.0196(2) 0.3892(3)
C11H C -0.3672(4) 0.0336(3) 0.4142(3)
H6H H -0.4046 0.0136 0.4011
C12H C -0.3495(4) 0.0776(3) 0.4590(3)
H7H H -0.3754 0.0868 0.4755
C13H C -0.3478(4) -0.0264(2) 0.3376(3)
I1G_2 I -0.36580(2) 0.40748(3) 0.45069(2)
I1H_2 I 0.59252(3) 0.22672(2) 0.45069(2)
I2F_2 I 0.6667 0.3333 0.63504(3)
Cu1F_2 Cu 0.71223(3) 0.39476(3) 0.52524(4)
Cu1G_2 Cu -0.39476(3) 0.31747(4) 0.52524(4)
Cu2F_2 Cu 0.6667 0.3333 0.41742(6)
Cu2I Cu 0.3333 0.6667 0.91742(6)
Cu3A_2 Cu -0.33287(3) -0.09844(4) 0.2500
Cu3C Cu -0.23443(3) 0.66713(3) 0.7500
Cu3C_2 Cu 0.76557(3) 0.66713(3) 0.7500
Cu3D Cu 0.33287(3) 0.09844(4) 0.7500
Cu3D_2 Cu 0.33287(3) 1.09844(4) 0.7500
Cu3E Cu -0.09844(4) 0.23443(3) 0.7500
Cu4A_2 Cu -0.43117(3) -0.10236(4) 0.2500
Cu4C Cu -0.32881(3) 0.56883(3) 0.7500
Cu4C_2 Cu 0.67119(3) 0.56883(3) 0.7500
Cu4D Cu 0.43117(3) 0.10236(4) 0.7500
Cu4D_2 Cu 0.43117(3) 1.10236(4) 0.7500
Cu4E Cu -0.10236(4) 0.32881(3) 0.7500
O1I O 0.21137(14) 0.36887(14) 0.18017(16)
O1J O 0.63113(14) 0.84250(20) 0.18017(16)
O1K O 0.15750(20) 0.78863(14) 0.18017(16)
O2I O 0.29103(15) 0.45132(14) 0.18241(17)
O2J O 0.54868(14) 0.83971(21) 0.18241(17)
O2K O 0.16029(21) 0.70897(15) 0.18241(17)
O3C O 0.04092(14) 0.72771(15) 0.18097(17)
O3D O 0.27229(15) 0.31321(21) 0.18097(17)
O3E O 0.68679(21) 0.95908(14) 0.18097(17)
O3H_2 O 0.68679(21) 0.95908(14) 0.31903(17)
O4C O 0.04542(15) 0.64875(15) 0.18229(19)
O4D O 0.35125(15) 0.39667(21) 0.18229(19)
O4E O 0.60333(21) 0.95458(15) 0.18229(19)
O4H_2 O 0.60333(21) 0.95458(15) 0.31771(19)
N2F N -0.3333 0.3333 0.3146(4)
loop_
_geom_bond_atom_site_label_1
_geom_bond_atom_site_label_2
_geom_bond_site_symmetry_1
_geom_bond_site_symmetry_2
I1 Cu1 1_555 1_555
I2 Cu1 1_555 1_555
Cu1 N1 1_555 1_555
Cu2 I1 1_555 1_555
Cu3 O1 1_555 1_555
Cu4 O2 1_555 1_555
O1 C6 1_555 1_555
O2 C6 1_555 1_555
O3 C13 1_555 1_555
O4 C13 1_555 1_555
O5 Cu3 1_555 1_555
O6 Cu4 1_555 1_555
N1 C1 1_555 1_555
N2 Cu2 1_555 1_555
C1 H1 1_555 1_555
C2 C1 1_555 1_555
C3 C2 1_555 1_555
H2 C3 1_555 1_555
C4 C3 1_555 1_555
C5 N1 1_555 1_555
H3 C5 1_555 1_555
C6 C2 1_555 1_555
C7 C4 1_555 1_555
C8 C7 1_555 1_555
H4 C8 1_555 1_555
C9 C8 1_555 1_555
H5 C9 1_555 1_555
C10 C9 1_555 1_555
C11 C10 1_555 1_555
H6 C11 1_555 1_555
C12 C7 1_555 1_555
H7 C12 1_555 1_555
C13 C10 1_555 1_555
C14 N2 1_555 1_555
H8 C14 1_555 1_555
H9 C14 1_555 1_555
C14A N2 1_555 1_555
H8A C14A 1_555 1_555
H9A C14A 1_555 1_555
C14B N2 1_555 1_555
H8B C14B 1_555 1_555
H9B C14B 1_555 1_555
N2I C14I 1_555 1_555
C14I C14 1_555 1_555
H8I C14I 1_555 1_555
H9I C14I 1_555 1_555
C14J C14A 1_555 1_555
H8J C14J 1_555 1_555
H9J C14J 1_555 1_555
C14K C14B 1_555 1_555
H8K C14K 1_555 1_555
H9K C14K 1_555 1_555
I1A Cu1 1_555 1_555
Cu1A I2 1_555 1_555
Cu3A O1A 1_555 1_555
Cu4A O2A 1_555 1_555
O1A C6A 1_555 1_555
O2A C6A 1_555 1_555
O3A C13A 1_555 1_555
O4A C13A 1_555 1_555
O5A Cu3A 1_555 1_555
O6A Cu4A 1_555 1_555
N1A Cu1A 1_555 1_555
C1A N1A 1_555 1_555
H1A C1A 1_555 1_555
C2A C1A 1_555 1_555
C3A C2A 1_555 1_555
H2A C3A 1_555 1_555
C4A C3A 1_555 1_555
C5A N1A 1_555 1_555
H3A C5A 1_555 1_555
C6A C2A 1_555 1_555
C7A C4A 1_555 1_555
C8A C7A 1_555 1_555
H4A C8A 1_555 1_555
C9A C8A 1_555 1_555
H5A C9A 1_555 1_555
C10A C9A 1_555 1_555
C11A C10A 1_555 1_555
H6A C11A 1_555 1_555
C12A C7A 1_555 1_555
H7A C12A 1_555 1_555
C13A C10A 1_555 1_555
I1B Cu2 1_555 1_555
Cu1B I1 1_555 1_555
Cu3B O1B 1_555 1_555
Cu4B O2B 1_555 1_555
O1B C6B 1_555 1_555
O2B C6B 1_555 1_555
O3B C13B 1_555 1_555
O4B C13B 1_555 1_555
O5B Cu3B 1_555 1_555
O6B Cu4B 1_555 1_555
N1B Cu1B 1_555 1_555
C1B N1B 1_555 1_555
H1B C1B 1_555 1_555
C2B C1B 1_555 1_555
C3B C2B 1_555 1_555
H2B C3B 1_555 1_555
C4B C3B 1_555 1_555
C5B N1B 1_555 1_555
H3B C5B 1_555 1_555
C6B C2B 1_555 1_555
C7B C4B 1_555 1_555
C8B C7B 1_555 1_555
H4B C8B 1_555 1_555
C9B C8B 1_555 1_555
H5B C9B 1_555 1_555
C10B C9B 1_555 1_555
C11B C10B 1_555 1_555
H6B C11B 1_555 1_555
C12B C7B 1_555 1_555
H7B C12B 1_555 1_555
C13B C10B 1_555 1_555
I1F Cu1F 1_555 1_555
I2F Cu1F 1_555 1_555
Cu1F N1F 1_555 1_555
Cu2F I1F 1_555 1_555
O1F C6F 1_555 1_555
O2F C6F 1_555 1_555
O3F Cu3B 1_555 1_555
O4F Cu4B 1_555 1_555
N1F C1F 1_555 1_555
C1F H1F 1_555 1_555
C2F C1F 1_555 1_555
C3F C2F 1_555 1_555
H2F C3F 1_555 1_555
C4F C3F 1_555 1_555
C5F N1F 1_555 1_555
H3F C5F 1_555 1_555
C6F C2F 1_555 1_555
C7F C4F 1_555 1_555
C8F C7F 1_555 1_555
H4F C8F 1_555 1_555
C9F C8F 1_555 1_555
H5F C9F 1_555 1_555
C10F C9F 1_555 1_555
C11F C10F 1_555 1_555
H6F C11F 1_555 1_555
C12F C7F 1_555 1_555
H7F C12F 1_555 1_555
C13F O3F 1_555 1_555
I1G Cu1G 1_555 1_555
Cu1G N1G 1_555 1_555
O1G C6G 1_555 1_555
O2G C6G 1_555 1_555
O3G Cu3 1_555 1_555
O4G Cu4 1_555 1_555
N1G C1G 1_555 1_555
C1G H1G 1_555 1_555
C2G C1G 1_555 1_555
C3G C2G 1_555 1_555
H2G C3G 1_555 1_555
C4G C3G 1_555 1_555
C5G N1G 1_555 1_555
H3G C5G 1_555 1_555
C6G C2G 1_555 1_555
C7G C4G 1_555 1_555
C8G C7G 1_555 1_555
H4G C8G 1_555 1_555
C9G C8G 1_555 1_555
H5G C9G 1_555 1_555
C10G C9G 1_555 1_555
C11G C10G 1_555 1_555
H6G C11G 1_555 1_555
C12G C7G 1_555 1_555
H7G C12G 1_555 1_555
C13G O3G 1_555 1_555
I1H Cu2F 1_555 1_555
Cu1H I1F 1_555 1_555
O1H C6H 1_555 1_555
O2H C6H 1_555 1_555
O3H C13H 1_555 1_555
O4H C13H 1_555 1_555
N1H Cu1H 1_555 1_555
C1H N1H 1_555 1_555
H1H C1H 1_555 1_555
C2H C1H 1_555 1_555
C3H C2H 1_555 1_555
H2H C3H 1_555 1_555
C4H C3H 1_555 1_555
C5H N1H 1_555 1_555
H3H C5H 1_555 1_555
C6H C2H 1_555 1_555
C7H C4H 1_555 1_555
C8H C7H 1_555 1_555
H4H C8H 1_555 1_555
C9H C8H 1_555 1_555
H5H C9H 1_555 1_555
C10H C9H 1_555 1_555
C11H C10H 1_555 1_555
H6H C11H 1_555 1_555
C12H C7H 1_555 1_555
H7H C12H 1_555 1_555
C13H C10H 1_555 1_555
I1G_2 Cu1F 1_555 1_555
I1H_2 Cu1G 1_555 1_555
I2F_2 Cu1G 1_555 1_555
Cu1F_2 I1G 1_555 1_555
Cu1G_2 I2F 1_555 1_555
Cu2F_2 I1G 1_555 1_555
Cu2I N2I 1_555 1_555
Cu3A_2 O3H 1_555 1_555
Cu3C O1F 1_555 1_555
Cu3C_2 O3A 1_555 1_555
Cu3D O1G 1_555 1_555
Cu3D_2 O3B 1_555 1_555
Cu3E O3 1_555 1_555
Cu4A_2 O4H 1_555 1_555
Cu4C O2F 1_555 1_555
Cu4C_2 O4A 1_555 1_555
Cu4D O2G 1_555 1_555
Cu4D_2 O4B 1_555 1_555
Cu4E O4 1_555 1_555
O1I Cu3 1_555 1_555
O1J Cu3A 1_555 1_555
O1K Cu3B 1_555 1_555
O2I Cu4 1_555 1_555
O2J Cu4A 1_555 1_555
O2K Cu4B 1_555 1_555
O3C Cu3B 1_555 1_555
O3D Cu3 1_555 1_555
O3E Cu3A 1_555 1_555
O3H_2 Cu3A 1_555 1_555
O4C Cu4B 1_555 1_555
O4D Cu4 1_555 1_555
O4E Cu4A 1_555 1_555
O4H_2 Cu4A 1_555 1_555
N2F Cu2F 1_555 1_555
I2 Cu1B 1_555 1_555
Cu2 I1A 1_555 1_555
C4 C5 1_555 1_555
C11 C12 1_555 1_555
N2I C14J 1_555 1_555
N2I C14K 1_555 1_555
I1A Cu1A 1_555 1_555
Cu1A I1B 1_555 1_555
C4A C5A 1_555 1_555
C11A C12A 1_555 1_555
I1B Cu1B 1_555 1_555
C4B C5B 1_555 1_555
C11B C12B 1_555 1_555
I2F Cu1H 1_555 1_555
Cu2F I1G_2 1_555 1_555
O4F C13F 1_555 1_555
C4F C5F 1_555 1_555
C10F C13F 1_555 1_555
C11F C12F 1_555 1_555
O4G C13G 1_555 1_555
C4G C5G 1_555 1_555
C10G C13G 1_555 1_555
C11G C12G 1_555 1_555
I1H Cu1H 1_555 1_555
I1H Cu1G_2 1_555 1_555
O1H Cu3E 1_555 1_555
O2H Cu4E 1_555 1_555
C4H C5H 1_555 1_555
C11H C12H 1_555 1_555
I1G_2 Cu1G_2 1_555 1_555
I1H_2 Cu2F_2 1_555 1_555
I2F_2 Cu1F_2 1_555 1_555

#END
