
#######################################################################
#
#                 Cambridge Crystallographic Data Centre
#                                CCDC 
#
#######################################################################
#
# If this CIF has been generated from an entry in the Cambridge 
# Structural Database, then it will include bibliographic, chemical, 
# crystal, experimental, refinement or atomic coordinate data resulting 
# from the CCDC's data processing and validation procedures.
#
#######################################################################

data_MUNDAC
_chemical_formula_moiety         'C11 H3 Cu7 I3 N2 O8'
_symmetry_cell_setting           tetragonal
_symmetry_space_group_name_H-M   'P 4/n m m'
_symmetry_Int_Tables_number      129
_space_group_name_Hall           '-P 4a 2a'
loop_
_symmetry_equiv_pos_site_id
_symmetry_equiv_pos_as_xyz
1 x,y,z
2 1/2-x,1/2-y,z
3 1/2-y,x,z
4 y,1/2-x,z
5 -x,1/2+y,-z
6 1/2+x,-y,-z
7 1/2+y,1/2+x,-z
8 -y,-x,-z
9 -x,-y,-z
10 1/2+x,1/2+y,-z
11 1/2+y,-x,-z
12 -y,1/2+x,-z
13 x,1/2-y,z
14 1/2-x,y,z
15 1/2-y,1/2-x,z
16 y,x,z
_cell_length_a                   19.209(3)
_cell_length_b                   19.209(3)
_cell_length_c                   10.991(2)
_cell_angle_alpha                90
_cell_angle_beta                 90
_cell_angle_gamma                90
_cell_volume                     4055.52
loop_
_atom_site_label
_atom_site_type_symbol
_atom_site_fract_x
_atom_site_fract_y
_atom_site_fract_z
_atom_site_U_iso_or_equiv
_atom_site_thermal_displace_type
I1 I 0.12918(2) 0.7500 1.63633(3) 0.0515 Uani
Cu1 Cu 0.18123(4) 0.7500 1.41381(6) 0.0521 Uani
Cu2 Cu 0.03068(2) 0.46932(2) 1.09488(4) 0.0254 Uani
O1 O 0.03581(12) 0.56636(10) 1.14944(19) 0.0434 Uani
O2 O -0.01653(12) 0.61855(10) 0.9923(2) 0.0417 Uani
O3 O 0.07148(15) 0.42852(15) 1.2591(3) 0.0639 Uani
N1 N 0.1028(2) 0.7500 1.2893(4) 0.0472 Uani
C1 C 0.07923(18) 0.69078(15) 1.2412(3) 0.0433 Uani
H1 H 0.0941 0.6490 1.2752 0.0520 Uiso
C2 C 0.03399(15) 0.68817(15) 1.1438(3) 0.0354 Uani
C3 C 0.0117(2) 0.7500 1.0934(4) 0.0360 Uani
H2 H -0.0178 0.7500 1.0264 0.0430 Uiso
C4 C 0.01547(15) 0.61866(14) 1.0912(3) 0.0336 Uani
N2 N 0.0743(5) 0.4257(5) 1.4639(12) 0.1783 Uani
C5 C 0.0917(6) 0.4564(6) 1.3413(11) 0.0923 Uani
C6 C 0.0266(12) 0.3920(13) 1.5519(19) 0.1940 Uiso
O1L O 0.03581(12) 0.93364(10) 1.14944(19) 0.0434 Uani
O2L O -0.01653(12) 0.88145(10) 0.9923(2) 0.0417 Uani
C1L C 0.07923(18) 0.80922(15) 1.2412(3) 0.0433 Uani
H1L H 0.0941 0.8510 1.2752 0.0520 Uiso
C2L C 0.03399(15) 0.81183(15) 1.1438(3) 0.0354 Uani
C4L C 0.01547(15) 0.88134(14) 1.0912(3) 0.0336 Uani
C5N C 0.0436(6) 0.4083(6) 1.3413(11) 0.0923 Uani
C6N C 0.1080(13) 0.4734(12) 1.5519(19) 0.1940 Uiso
I1F I 0.2500 0.62918(2) 1.36367(3) 0.0515 Uani
I1G I 0.2500 0.87082(2) 1.36367(3) 0.0515 Uani
Cu1F Cu 0.2500 0.68123(4) 1.58619(6) 0.0521 Uani
Cu1G Cu 0.2500 0.81877(4) 1.58619(6) 0.0521 Uani
Cu2B Cu 0.03068(2) 1.03068(2) 1.09488(4) 0.0254 Uani
Cu2D Cu -0.03068(2) 0.96932(2) 0.90512(4) 0.0254 Uani
Cu2F Cu -0.03068(2) 0.53068(2) 0.90512(4) 0.0254 Uani
O1N O -0.06636(10) 0.46419(12) 1.14944(19) 0.0434 Uani
O2F O 0.11855(10) 0.48347(12) 1.0077(2) 0.0417 Uani
O2H O 0.01653(12) 0.38145(10) 1.0077(2) 0.0417 Uani
loop_
_atom_site_aniso_label
_atom_site_aniso_U_11
_atom_site_aniso_U_22
_atom_site_aniso_U_33
_atom_site_aniso_U_23
_atom_site_aniso_U_13
_atom_site_aniso_U_12
I1 0.02981(17) 0.0635(2) 0.0613(2) 0.000 0.00404(13) 0.000
Cu1 0.0659(4) 0.0385(3) 0.0518(4) 0.000 -0.0288(3) 0.000
Cu2 0.02279(17) 0.02279(17) 0.0306(3) 0.00620(12) -0.00620(12) -0.00434(16)
O1 0.0576(14) 0.0253(10) 0.0473(12) 0.0003(9) -0.0151(10) -0.0049(9)
O2 0.0512 0.0263 0.0477 -0.0022 -0.0181 -0.003
O3 0.0740(16) 0.0740(16) 0.0437(19) 0.0215(13) -0.0215(13) 0.001(2)
N1 0.062(3) 0.0256(18) 0.054(2) 0.000 -0.028(2) 0.000
C1 0.0570(19) 0.0257(14) 0.0471(17) 0.0023(13) -0.0182(15) 0.0003(13)
C2 0.0371(16) 0.0262(15) 0.0430(16) -0.0021(12) -0.0074(12) -0.0023(11)
C3 0.036(2) 0.030(2) 0.042(2) 0.000 -0.0110(18) 0.000
C4 0.0314(14) 0.0250(14) 0.0444(16) 0.0009(12) -0.0046(13) -0.0046(11)
N2 0.1790(16) 0.1790(16) 0.177(2) 0.0001(7) -0.0001(7) -0.0002(10)
C5 0.093(3) 0.092(3) 0.092(3) 0.0009(10) -0.0008(10) -0.0007(10)
O1L 0.0576 0.0253 0.0473 -0.0003 -0.0151 0.0049
O2L 0.0512 0.0263 0.0477 0.0022 -0.0181 0.003
C1L 0.057 0.0257 0.0471 -0.0023 -0.0182 -0.0003
C2L 0.0371 0.0262 0.043 0.0021 -0.0074 0.0023
C4L 0.0314 0.025 0.0444 -0.0009 -0.0046 0.0046
C5N 0.092 0.093 0.092 0.0008 -0.0009 -0.0007
I1F 0.0635 0.02981 0.0613 -0.00404 0 0
I1G 0.0635 0.02981 0.0613 0.00404 0 0
Cu1F 0.0385 0.0659 0.0518 0.0288 0 0
Cu1G 0.0385 0.0659 0.0518 -0.0288 0 0
Cu2B 0.02279 0.02279 0.0306 -0.0062 -0.0062 0.00434
Cu2D 0.02279 0.02279 0.0306 -0.0062 -0.0062 0.00434
Cu2F 0.02279 0.02279 0.0306 0.0062 -0.0062 -0.00434
O1N 0.0253 0.0576 0.0473 0.0151 -0.0003 -0.0049
O2F 0.0263 0.0512 0.0477 0.0181 0.0022 -0.003
O2H 0.0512 0.0263 0.0477 -0.0022 -0.0181 -0.003
loop_
_geom_bond_atom_site_label_1
_geom_bond_atom_site_label_2
_geom_bond_site_symmetry_1
_geom_bond_site_symmetry_2
I1 Cu1 1_555 1_555
Cu1 N1 1_555 1_555
Cu2 O1 1_555 1_555
O1 C4 1_555 1_555
O2 C4 1_555 1_555
O3 Cu2 1_555 1_555
N1 C1 1_555 1_555
C1 H1 1_555 1_555
C2 C1 1_555 1_555
C3 C2 1_555 1_555
H2 C3 1_555 1_555
C4 C2 1_555 1_555
N2 C5 1_555 1_555
C5 O3 1_555 1_555
C6 N2 1_555 1_555
O1L C4L 1_555 1_555
O2L C4L 1_555 1_555
C1L N1 1_555 1_555
H1L C1L 1_555 1_555
C2L C3 1_555 1_555
C4L C2L 1_555 1_555
C5N O3 1_555 1_555
C6N N2 1_555 1_555
I1F Cu1 1_555 1_555
I1G Cu1 1_555 1_555
Cu1F I1 1_555 1_555
Cu1G I1 1_555 1_555
Cu2B O1L 1_555 1_555
Cu2D O2L 1_555 1_555
Cu2F O2 1_555 1_555
O1N Cu2 1_555 1_555
O2F Cu2 1_555 1_555
O2H Cu2 1_555 1_555
N2 C5N 1_555 1_555
C1L C2L 1_555 1_555
I1F Cu1F 1_555 1_555
I1G Cu1G 1_555 1_555

#END
