
#######################################################################
#
#                 Cambridge Crystallographic Data Centre
#                                CCDC 
#
#######################################################################
#
# If this CIF has been generated from an entry in the Cambridge 
# Structural Database, then it will include bibliographic, chemical, 
# crystal, experimental, refinement or atomic coordinate data resulting 
# from the CCDC's data processing and validation procedures.
#
#######################################################################

data_MUQSAU
_chemical_formula_moiety         '(C28 H20 N2 O10 Zn2)n'
_symmetry_cell_setting           orthorhombic
_symmetry_space_group_name_H-M   'A b a 2'
_symmetry_Int_Tables_number      41
_space_group_name_Hall           'A 2 -2ab'
loop_
_symmetry_equiv_pos_site_id
_symmetry_equiv_pos_as_xyz
1 x,y,z
2 -x,-y,z
3 1/2-x,y,1/2+z
4 1/2+x,-y,1/2+z
5 x,1/2+y,1/2+z
6 -x,1/2-y,1/2+z
7 1/2-x,1/2+y,z
8 1/2+x,1/2-y,z
_cell_length_a                   29.647(6)
_cell_length_b                   24.669(5)
_cell_length_c                   9.7421(19)
_cell_angle_alpha                90
_cell_angle_beta                 90
_cell_angle_gamma                90
_cell_volume                     7125
loop_
_atom_site_label
_atom_site_type_symbol
_atom_site_fract_x
_atom_site_fract_y
_atom_site_fract_z
_atom_site_U_iso_or_equiv
_atom_site_thermal_displace_type
Zn1 Zn 0.458118(12) 0.239262(16) 0.97830(5) 0.0181 Uani
Zn2 Zn 0.796531(13) 0.189141(18) 0.86100(5) 0.0211 Uani
O1 O 0.72317(8) 0.22102(11) 0.8357(3) 0.0227 Uani
O2 O 0.74316(8) 0.13711(11) 0.8755(4) 0.0305 Uani
O3 O 0.66737(9) 0.25530(12) 1.2807(3) 0.0224 Uani
O4 O 0.69947(8) 0.20015(12) 1.1343(3) 0.0222 Uani
O5 O 0.56286(9) 0.29070(12) 0.6514(3) 0.0246 Uani
O6 O 0.61675(9) 0.22966(12) 0.6275(3) 0.0282 Uani
O7 O 0.79878(10) 0.21635(18) 1.0556(4) 0.0451 Uani
O8 O 0.41948(9) 0.22240(12) 0.8152(3) 0.0264 Uani
N1 N 0.65256(9) 0.63056(13) 0.8652(4) 0.0240 Uani
N2 N 0.47645(10) 0.31768(12) 0.9736(4) 0.0231 Uani
O9 O 0.50976(8) 0.19522(11) 0.9141(3) 0.0226 Uani
O10 O 0.55102(9) 0.23509(12) 1.0783(3) 0.0251 Uani
C1 C 0.54704(10) 0.20375(14) 0.9787(5) 0.0180 Uani
C2 C 0.58608(11) 0.17020(15) 0.9296(4) 0.0174 Uani
C3 C 0.57710(12) 0.11442(16) 0.9081(4) 0.0219 Uani
H1 H 0.5478 0.1013 0.9165 0.0260 Uiso
C4 C 0.61180(12) 0.07968(15) 0.8747(5) 0.0243 Uani
H2 H 0.6061 0.0430 0.8614 0.0290 Uiso
C5 C 0.65578(12) 0.09977(15) 0.8608(5) 0.0236 Uani
H3 H 0.6792 0.0761 0.8397 0.0280 Uiso
C6 C 0.66481(11) 0.15516(14) 0.8783(4) 0.0184 Uani
C7 C 0.71332(11) 0.17271(15) 0.8629(5) 0.0211 Uani
C8 C 0.62978(11) 0.19152(14) 0.9113(4) 0.0145 Uani
C9 C 0.67547(11) 0.24082(15) 1.1576(4) 0.0178 Uani
C10 C 0.65542(11) 0.27478(15) 1.0446(4) 0.0174 Uani
C11 C 0.65581(12) 0.33162(16) 1.0640(4) 0.0218 Uani
H4 H 0.6679 0.3466 1.1435 0.0260 Uiso
C12 C 0.63795(12) 0.36455(16) 0.9630(5) 0.0259 Uani
H5 H 0.6388 0.4020 0.9740 0.0310 Uiso
C13 C 0.61898(11) 0.34294(16) 0.8467(5) 0.0242 Uani
H6 H 0.6066 0.3658 0.7807 0.0290 Uiso
C14 C 0.61823(11) 0.28747(16) 0.8271(4) 0.0188 Uani
C15 C 0.59874(12) 0.26636(15) 0.6934(4) 0.0191 Uani
C16 C 0.63644(12) 0.25184(15) 0.9257(4) 0.0168 Uani
C17 C 0.48771(12) 0.34237(17) 0.8555(5) 0.0261 Uani
H7 H 0.4805 0.3255 0.7729 0.0310 Uiso
C18 C 0.50946(13) 0.39163(17) 0.8522(5) 0.0287 Uani
H8 H 0.5159 0.4079 0.7683 0.0340 Uiso
C19 C 0.52176(12) 0.41709(16) 0.9733(5) 0.0276 Uani
C20 C 0.50862(16) 0.39239(19) 1.0959(5) 0.0350 Uani
H9 H 0.5146 0.4091 1.1795 0.0420 Uiso
C21 C 0.48664(16) 0.34292(18) 1.0921(5) 0.0333 Uani
H10 H 0.4786 0.3265 1.1745 0.0400 Uiso
C22 C 0.63740(17) 0.6074(2) 0.7536(5) 0.0440 Uani
H11 H 0.6461 0.6222 0.6698 0.0530 Uiso
C23 C 0.60941(19) 0.5626(2) 0.7511(6) 0.0543 Uani
H12 H 0.6005 0.5474 0.6682 0.0650 Uiso
C24 C 0.59489(12) 0.54099(16) 0.8741(5) 0.0276 Uani
C25 C 0.60874(15) 0.56593(17) 0.9921(6) 0.0380 Uani
H13 H 0.5987 0.5534 1.0767 0.0460 Uiso
C26 C 0.63789(16) 0.61010(17) 0.9860(6) 0.0377 Uani
H14 H 0.6476 0.6260 1.0673 0.0450 Uiso
C27 C 0.56582(13) 0.49247(18) 0.8714(5) 0.0340 Uani
H15 H 0.5588 0.4782 0.7856 0.0410 Uiso
C28 C 0.54877(13) 0.46720(15) 0.9805(6) 0.0284 Uani
H16 H 0.5542 0.4821 1.0666 0.0340 Uiso
Zn1E Zn 0.541882(12) 0.260738(16) 0.47830(5) 0.0181 Uani
Zn2B Zn 0.703469(13) 0.189141(18) 1.36100(5) 0.0211 Uani
Zn2F Zn 0.703469(13) 0.689141(18) 0.86100(5) 0.0211 Uani
O3B O 0.83263(9) 0.25530(12) 0.7807(3) 0.0224 Uani
O4B O 0.80053(8) 0.20015(12) 0.6343(3) 0.0222 Uani
O5E O 0.43714(9) 0.20930(12) 1.1514(3) 0.0246 Uani
N1F N 0.84744(9) 0.13056(13) 0.8652(4) 0.0240 Uani
loop_
_atom_site_aniso_label
_atom_site_aniso_U_11
_atom_site_aniso_U_22
_atom_site_aniso_U_33
_atom_site_aniso_U_23
_atom_site_aniso_U_13
_atom_site_aniso_U_12
Zn1 0.01612(19) 0.0230(2) 0.0152(2) 0.0006(2) 0.00141(18) -0.00063(15)
Zn2 0.01447(18) 0.0298(2) 0.0189(2) 0.0046(2) 0.00185(19) 0.00005(16)
O1 0.0152(12) 0.0355(16) 0.0175(16) 0.0015(13) -0.0002(11) -0.0034(11)
O2 0.0139(11) 0.0287(14) 0.049(2) 0.0006(16) 0.0030(14) 0.0046(10)
O3 0.0203(13) 0.0340(16) 0.0129(15) 0.0028(12) 0.0003(11) 0.0031(11)
O4 0.0192(14) 0.0299(15) 0.0174(16) 0.0020(12) 0.0000(11) 0.0038(11)
O5 0.0207(13) 0.0354(16) 0.0178(15) -0.0017(13) -0.0080(11) 0.0030(12)
O6 0.0306(15) 0.0372(17) 0.0167(16) -0.0078(13) -0.0012(12) 0.0104(12)
O7 0.0304(17) 0.092(3) 0.0128(17) -0.0046(19) 0.0045(13) 0.0059(16)
O8 0.0177(13) 0.0439(18) 0.0176(15) 0.0018(13) -0.0011(11) -0.0006(12)
N1 0.0135(13) 0.0317(17) 0.0267(19) 0.0038(18) -0.0021(15) -0.0035(12)
N2 0.0230(15) 0.0223(15) 0.0239(19) 0.0014(17) 0.0095(15) -0.0016(11)
O9 0.0126(12) 0.0336(16) 0.0217(15) -0.0078(12) -0.0021(11) -0.0022(10)
O10 0.0230(13) 0.0383(17) 0.0141(15) -0.0095(13) -0.0045(12) 0.0000(11)
C1 0.0161(15) 0.0246(16) 0.0132(17) -0.0001(19) 0.0010(16) -0.0027(13)
C2 0.0131(16) 0.0231(19) 0.0159(19) 0.0009(15) -0.0012(14) -0.0022(14)
C3 0.0167(17) 0.027(2) 0.022(2) 0.0011(17) 0.0012(15) -0.0039(14)
C4 0.0269(18) 0.0221(18) 0.024(2) -0.0006(19) -0.0016(18) -0.0037(14)
C5 0.0239(17) 0.0209(17) 0.026(2) -0.005(2) -0.0050(19) 0.0030(13)
C6 0.0163(15) 0.0220(17) 0.017(2) 0.0000(16) 0.0013(15) -0.0009(13)
C7 0.0169(16) 0.0316(19) 0.0147(19) 0.001(2) -0.0041(17) -0.0027(14)
C8 0.0107(15) 0.0212(18) 0.0116(18) 0.0006(14) -0.0010(13) -0.0004(13)
C9 0.0133(17) 0.0202(18) 0.020(2) 0.0010(16) -0.0009(15) -0.0044(13)
C10 0.0101(16) 0.027(2) 0.015(2) 0.0043(16) -0.0006(14) -0.0002(13)
C11 0.0223(19) 0.026(2) 0.017(2) -0.0042(17) -0.0039(16) -0.0018(15)
C12 0.0280(19) 0.0218(18) 0.028(3) -0.0043(19) -0.0078(19) 0.0046(15)
C13 0.0219(17) 0.0276(19) 0.023(2) -0.0014(19) -0.0061(17) -0.0005(14)
C14 0.0124(16) 0.029(2) 0.015(2) 0.0034(16) -0.0018(14) 0.0003(14)
C15 0.0172(18) 0.025(2) 0.0151(19) 0.0018(16) -0.0012(15) 0.0017(14)
C16 0.0110(16) 0.0205(18) 0.019(2) -0.0004(15) -0.0020(14) -0.0024(13)
C17 0.0254(19) 0.032(2) 0.021(2) 0.006(2) 0.0028(19) 0.0007(15)
C18 0.030(2) 0.034(2) 0.022(2) 0.001(2) 0.000(2) -0.0024(16)
C19 0.0246(18) 0.0273(19) 0.031(2) -0.001(2) 0.004(2) 0.0024(15)
C20 0.051(3) 0.035(3) 0.019(2) -0.008(2) 0.002(2) -0.010(2)
C21 0.052(3) 0.028(2) 0.020(2) 0.0003(19) 0.006(2) -0.0162(19)
C22 0.049(3) 0.064(3) 0.019(2) 0.014(2) -0.004(2) -0.034(3)
C23 0.068(4) 0.076(4) 0.019(3) 0.009(3) -0.010(3) -0.040(3)
C24 0.0227(18) 0.029(2) 0.031(3) 0.008(2) 0.0013(19) -0.0032(15)
C25 0.050(3) 0.035(2) 0.029(3) 0.003(2) 0.010(2) -0.0153(19)
C26 0.057(3) 0.035(2) 0.021(2) 0.002(2) 0.002(2) -0.021(2)
C27 0.033(2) 0.036(2) 0.033(3) 0.002(2) 0.006(2) -0.0080(17)
C28 0.0294(19) 0.0239(18) 0.032(2) 0.000(2) 0.000(2) -0.0062(14)
Zn1E 0.01612 0.023 0.0152 -0.0006 -0.00141 -0.00063
Zn2B 0.01447 0.0298 0.0189 0.0046 -0.00185 -5e-05
Zn2F 0.01447 0.0298 0.0189 0.0046 -0.00185 -5e-05
O3B 0.0203 0.034 0.0129 0.0028 -0.0003 -0.0031
O4B 0.0192 0.0299 0.0174 0.002 0 -0.0038
O5E 0.0207 0.0354 0.0178 0.0017 0.008 0.003
N1F 0.0135 0.0317 0.0267 0.0038 0.0021 0.0035
loop_
_geom_bond_atom_site_label_1
_geom_bond_atom_site_label_2
_geom_bond_site_symmetry_1
_geom_bond_site_symmetry_2
Zn1 O8 1_555 1_555
Zn2 O1 1_555 1_555
O1 C7 1_555 1_555
O2 Zn2 1_555 1_555
O3 C9 1_555 1_555
O4 C9 1_555 1_555
O5 C15 1_555 1_555
O6 C15 1_555 1_555
O7 Zn2 1_555 1_555
N1 C22 1_555 1_555
N2 Zn1 1_555 1_555
O9 Zn1 1_555 1_555
O10 C1 1_555 1_555
C1 O9 1_555 1_555
C2 C1 1_555 1_555
C3 C2 1_555 1_555
H1 C3 1_555 1_555
C4 C3 1_555 1_555
H2 C4 1_555 1_555
C5 C4 1_555 1_555
H3 C5 1_555 1_555
C6 C5 1_555 1_555
C7 O2 1_555 1_555
C8 C2 1_555 1_555
C9 C10 1_555 1_555
C10 C11 1_555 1_555
C11 H4 1_555 1_555
C12 C11 1_555 1_555
H5 C12 1_555 1_555
C13 C12 1_555 1_555
H6 C13 1_555 1_555
C14 C13 1_555 1_555
C15 C14 1_555 1_555
C16 C8 1_555 1_555
C17 N2 1_555 1_555
H7 C17 1_555 1_555
C18 C17 1_555 1_555
H8 C18 1_555 1_555
C19 C18 1_555 1_555
C20 C19 1_555 1_555
H9 C20 1_555 1_555
C21 N2 1_555 1_555
H10 C21 1_555 1_555
C22 H11 1_555 1_555
C23 C22 1_555 1_555
H12 C23 1_555 1_555
C24 C23 1_555 1_555
C25 C24 1_555 1_555
H13 C25 1_555 1_555
C26 N1 1_555 1_555
H14 C26 1_555 1_555
C27 C24 1_555 1_555
H15 C27 1_555 1_555
C28 C19 1_555 1_555
H16 C28 1_555 1_555
Zn1E O5 1_555 1_555
Zn2B O3 1_555 1_555
Zn2F N1 1_555 1_555
O3B Zn2 1_555 1_555
O4B Zn2 1_555 1_555
O5E Zn1 1_555 1_555
N1F Zn2 1_555 1_555
O4 Zn2B 1_555 1_555
C6 C7 1_555 1_555
C6 C8 1_555 1_555
C10 C16 1_555 1_555
C14 C16 1_555 1_555
C20 C21 1_555 1_555
C25 C26 1_555 1_555
C27 C28 1_555 1_555

#END
