
#######################################################################
#
#                 Cambridge Crystallographic Data Centre
#                                CCDC 
#
#######################################################################
#
# If this CIF has been generated from an entry in the Cambridge 
# Structural Database, then it will include bibliographic, chemical, 
# crystal, experimental, refinement or atomic coordinate data resulting 
# from the CCDC's data processing and validation procedures.
#
#######################################################################

data_MUSCAG
_chemical_formula_moiety         '(C32 H72 N8 O32 S1 Zn6 2+)n'
_symmetry_cell_setting           orthorhombic
_symmetry_space_group_name_H-M   'C 2 2 21'
_symmetry_Int_Tables_number      20
_space_group_name_Hall           'C 2c 2'
loop_
_symmetry_equiv_pos_site_id
_symmetry_equiv_pos_as_xyz
1 x,y,z
2 -x,-y,1/2+z
3 -x,y,1/2-z
4 x,-y,-z
5 1/2+x,1/2+y,z
6 1/2-x,1/2-y,1/2+z
7 1/2-x,1/2+y,1/2-z
8 1/2+x,1/2-y,-z
_cell_length_a                   12.6846(12)
_cell_length_b                   21.7379(19)
_cell_length_c                   21.2802(19)
_cell_angle_alpha                90
_cell_angle_beta                 90
_cell_angle_gamma                90
_cell_volume                     5867.73
loop_
_atom_site_label
_atom_site_type_symbol
_atom_site_fract_x
_atom_site_fract_y
_atom_site_fract_z
_atom_site_U_iso_or_equiv
_atom_site_thermal_displace_type
C1 C 0.8704(4) 0.0164(2) 0.0947(2) 0.0200 Uani
C2 C 0.7904(4) -0.0059(2) 0.1416(2) 0.0240 Uani
H1 H 0.7283 -0.0205 0.1195 0.0290 Uiso
H2 H 0.8195 -0.0401 0.1651 0.0290 Uiso
C3 C 0.6561(4) 0.0302(2) 0.2151(2) 0.0217 Uani
H3 H 0.6044 0.0229 0.1823 0.0260 Uiso
H4 H 0.6334 0.0658 0.2390 0.0260 Uiso
C4 C 0.6603(4) -0.0254(2) 0.2583(2) 0.0230 Uani
H5 H 0.5914 -0.0312 0.2771 0.0270 Uiso
H6 H 0.6759 -0.0616 0.2333 0.0270 Uiso
C5 C 0.8430(4) -0.0047(2) 0.2810(2) 0.0233 Uani
H7 H 0.8688 -0.0400 0.2577 0.0280 Uiso
H8 H 0.8930 0.0038 0.3144 0.0280 Uiso
C6 C 0.8383(4) 0.0509(2) 0.2368(2) 0.0197 Uani
H9 H 0.8209 0.0873 0.2610 0.0240 Uiso
H10 H 0.9075 0.0573 0.2184 0.0240 Uiso
C7 C 0.7079(4) 0.0247(2) 0.3571(2) 0.0233 Uani
H11 H 0.6766 0.0601 0.3367 0.0280 Uiso
H12 H 0.7696 0.0385 0.3800 0.0280 Uiso
C8 C 0.6294(4) -0.0028(2) 0.4028(2) 0.0190 Uani
C9 C 0.3390(4) 0.0916(2) 0.4906(2) 0.0183 Uani
C10 C 0.2584(5) 0.13825(18) 0.51262(19) 0.0207 Uani
H13 H 0.1913 0.1180 0.5196 0.0250 Uiso
H14 H 0.2812 0.1561 0.5521 0.0250 Uiso
C11 C 0.3420(4) 0.2250(2) 0.4677(2) 0.0210 Uani
H15 H 0.4023 0.2002 0.4557 0.0250 Uiso
H16 H 0.3532 0.2396 0.5102 0.0250 Uiso
C12 C 0.3321(4) 0.2796(2) 0.4233(2) 0.0223 Uani
H17 H 0.3966 0.3035 0.4253 0.0270 Uiso
H18 H 0.3252 0.2643 0.3806 0.0270 Uiso
C13 C 0.1464(4) 0.2828(2) 0.4403(2) 0.0203 Uani
H19 H 0.1287 0.2687 0.3984 0.0250 Uiso
H20 H 0.0888 0.3084 0.4549 0.0250 Uiso
C14 C 0.1552(4) 0.2270(2) 0.4834(2) 0.0207 Uani
H21 H 0.1642 0.2408 0.5264 0.0250 Uiso
H22 H 0.0905 0.2033 0.4812 0.0250 Uiso
C15 C 0.2601(5) 0.35747(17) 0.49344(19) 0.0217 Uani
H23 H 0.2868 0.3314 0.5268 0.0260 Uiso
H24 H 0.1940 0.3754 0.5074 0.0260 Uiso
C16 C 0.3396(4) 0.4087(2) 0.4793(2) 0.0187 Uani
N1 N 0.7598(3) 0.04356(15) 0.18557(15) 0.0189 Uani
N2 N 0.7398(4) -0.02044(15) 0.30931(15) 0.0187 Uani
N3 N 0.2457(4) 0.18720(14) 0.46538(15) 0.0175 Uani
N4 N 0.2423(4) 0.32067(14) 0.43661(16) 0.0177 Uani
O1 O 0.8808(3) 0.07191(15) 0.08318(16) 0.0232 Uani
O2 O 0.9240(3) -0.02531(14) 0.06808(15) 0.0253 Uani
O3 O 0.6199(3) -0.05874(15) 0.40802(16) 0.0227 Uani
O4 O 0.5795(3) 0.03629(14) 0.43616(16) 0.0235 Uani
O5 O 0.3905(3) 0.06435(14) 0.53304(14) 0.0227 Uani
O6 O 0.3496(3) 0.08180(15) 0.43350(16) 0.0230 Uani
O7 O 0.3899(3) 0.43054(14) 0.52547(15) 0.0217 Uani
O8 O 0.3488(3) 0.42781(15) 0.42521(16) 0.0214 Uani
O9 O 0.6392(3) 0.16519(17) 0.17440(18) 0.0290 Uani
H25 H 0.6457 0.1960 0.1987 0.0440 Uiso
H26 H 0.5755 0.1680 0.1624 0.0440 Uiso
O10 O 0.8721(3) 0.17618(16) 0.16942(18) 0.0273 Uani
H27 H 0.8662 0.1918 0.2059 0.0410 Uiso
H28 H 0.9378 0.1708 0.1638 0.0410 Uiso
O11 O 0.6269(3) -0.15370(16) 0.30937(17) 0.0270 Uani
H29 H 0.6232 -0.1799 0.2798 0.0410 Uiso
H30 H 0.5672 -0.1471 0.3262 0.0410 Uiso
O12 O 0.8599(3) -0.14253(17) 0.30382(17) 0.0287 Uani
H31 H 0.8578 -0.1744 0.2808 0.0430 Uiso
H32 H 0.9159 -0.1502 0.3243 0.0430 Uiso
Zn1 Zn 1.01961(7) 0.0000 0.0000 0.0191 Uani
Zn2 Zn 0.75917(5) 0.12803(2) 0.12517(2) 0.0198 Uani
Zn3 Zn 0.74004(5) -0.11035(2) 0.35921(2) 0.0199 Uani
Zn4 Zn 0.48620(6) 0.0000 0.5000 0.0185 Uani
C1B C 0.1296(4) 0.0164(2) 0.4053(2) 0.0200 Uani
C2B C 0.2096(4) -0.0059(2) 0.3584(2) 0.0240 Uani
H1B H 0.2717 -0.0205 0.3805 0.0290 Uiso
H2B H 0.1805 -0.0401 0.3349 0.0290 Uiso
C3B C 0.3439(4) 0.0302(2) 0.2849(2) 0.0217 Uani
H3B H 0.3956 0.0229 0.3177 0.0260 Uiso
H4B H 0.3666 0.0658 0.2610 0.0260 Uiso
C4B C 0.3397(4) -0.0254(2) 0.2417(2) 0.0230 Uani
H5B H 0.4086 -0.0312 0.2229 0.0270 Uiso
H6B H 0.3241 -0.0616 0.2667 0.0270 Uiso
C5B C 0.1570(4) -0.0047(2) 0.2190(2) 0.0233 Uani
H7B H 0.1312 -0.0400 0.2423 0.0280 Uiso
H8B H 0.1070 0.0038 0.1856 0.0280 Uiso
C6B C 0.1617(4) 0.0509(2) 0.2632(2) 0.0197 Uani
H9B H 0.1791 0.0873 0.2390 0.0240 Uiso
H10B H 0.0925 0.0573 0.2816 0.0240 Uiso
C7B C 0.2921(4) 0.0247(2) 0.1429(2) 0.0233 Uani
H11B H 0.3234 0.0601 0.1633 0.0280 Uiso
H12B H 0.2304 0.0385 0.1200 0.0280 Uiso
C8B C 0.3706(4) -0.0028(2) 0.0972(2) 0.0190 Uani
C9B C 0.6610(4) 0.0916(2) 0.0094(2) 0.0183 Uani
C10B C 0.7416(5) 0.13825(18) -0.01262(19) 0.0207 Uani
H13B H 0.8087 0.1180 -0.0196 0.0250 Uiso
H14B H 0.7188 0.1561 -0.0521 0.0250 Uiso
C11B C 0.6580(4) 0.2250(2) 0.0323(2) 0.0210 Uani
H15B H 0.5977 0.2002 0.0443 0.0250 Uiso
H16B H 0.6468 0.2396 -0.0102 0.0250 Uiso
C12B C 0.6679(4) 0.2796(2) 0.0767(2) 0.0223 Uani
H17B H 0.6034 0.3035 0.0747 0.0270 Uiso
H18B H 0.6748 0.2643 0.1194 0.0270 Uiso
C13B C 0.8536(4) 0.2828(2) 0.0597(2) 0.0203 Uani
H19B H 0.8713 0.2687 0.1016 0.0250 Uiso
H20B H 0.9112 0.3084 0.0451 0.0250 Uiso
C14B C 0.8448(4) 0.2270(2) 0.0166(2) 0.0207 Uani
H21B H 0.8358 0.2408 -0.0264 0.0250 Uiso
H22B H 0.9095 0.2033 0.0188 0.0250 Uiso
C15B C 0.7399(5) 0.35747(17) 0.00656(19) 0.0217 Uani
H23B H 0.7132 0.3314 -0.0268 0.0260 Uiso
H24B H 0.8060 0.3754 -0.0074 0.0260 Uiso
C16B C 0.6604(4) 0.4087(2) 0.0207(2) 0.0187 Uani
N1B N 0.2402(3) 0.04356(15) 0.31443(15) 0.0189 Uani
N2B N 0.2602(4) -0.02044(15) 0.19069(15) 0.0187 Uani
N3B N 0.7543(4) 0.18720(14) 0.03462(15) 0.0175 Uani
N4B N 0.7577(4) 0.32067(14) 0.06339(16) 0.0177 Uani
O1B O 0.1192(3) 0.07191(15) 0.41682(16) 0.0232 Uani
O2B O 0.0760(3) -0.02531(14) 0.43192(15) 0.0253 Uani
O3B O 0.3801(3) -0.05874(15) 0.09198(16) 0.0227 Uani
O4B O 0.4205(3) 0.03629(14) 0.06384(16) 0.0235 Uani
O5B O 0.6095(3) 0.06435(14) -0.03304(14) 0.0227 Uani
O6B O 0.6504(3) 0.08180(15) 0.06650(16) 0.0230 Uani
O7B O 0.6101(3) 0.43054(14) -0.02547(15) 0.0217 Uani
O8B O 0.6512(3) 0.42781(15) 0.07479(16) 0.0214 Uani
O9B O 0.3608(3) 0.16519(17) 0.32560(18) 0.0290 Uani
H25B H 0.3543 0.1960 0.3013 0.0440 Uiso
H26B H 0.4245 0.1680 0.3376 0.0440 Uiso
O10B O 0.1279(3) 0.17618(16) 0.33058(18) 0.0273 Uani
H27B H 0.1338 0.1918 0.2941 0.0410 Uiso
H28B H 0.0622 0.1708 0.3362 0.0410 Uiso
O11B O 0.3731(3) -0.15370(16) 0.19063(17) 0.0270 Uani
H29B H 0.3768 -0.1799 0.2202 0.0410 Uiso
H30B H 0.4328 -0.1471 0.1738 0.0410 Uiso
O12B O 0.1401(3) -0.14253(17) 0.19618(17) 0.0287 Uani
H31B H 0.1422 -0.1744 0.2192 0.0430 Uiso
H32B H 0.0841 -0.1502 0.1757 0.0430 Uiso
Zn2B Zn 0.24083(5) 0.12803(2) 0.37483(2) 0.0198 Uani
Zn3B Zn 0.25996(5) -0.11035(2) 0.14079(2) 0.0199 Uani
N4D N 0.7423(4) -0.17933(14) 0.43661(16) 0.0177 Uani
N4F N 0.2577(4) -0.17933(14) 0.06339(16) 0.0177 Uani
O2C O 0.9240(3) 0.02531(14) -0.06808(15) 0.0253 Uani
O4C O 0.5795(3) -0.03629(14) 0.56384(16) 0.0235 Uani
O5C O 0.3905(3) -0.06435(14) 0.46696(14) 0.0227 Uani
O7E O 1.1101(3) 0.06946(14) 0.02547(15) 0.0217 Uani
O7F O 1.1101(3) -0.06946(14) -0.02547(15) 0.0217 Uani
O8D O 0.8488(3) -0.07219(15) 0.42521(16) 0.0214 Uani
O8F O 0.1512(3) -0.07219(15) 0.07479(16) 0.0214 Uani
Zn1A Zn -0.01961(7) 0.0000 0.5000 0.0191 Uani
Zn1D Zn 0.51961(7) 0.5000 0.0000 0.0191 Uani
Zn1E Zn 0.48039(7) 0.5000 0.5000 0.0191 Uani
Zn3D Zn 0.24004(5) 0.38965(2) 0.35921(2) 0.0199 Uani
Zn3F Zn 0.75996(5) 0.38965(2) 0.14079(2) 0.0199 Uani
Zn4A Zn 0.51380(6) 0.0000 0.0000 0.0185 Uani
O13 O 0.7427(4) 0.1975(2) 0.3469(2) 0.0643 Uani
O14 O 0.7438(4) 0.30863(18) 0.3416(2) 0.0563 Uani
O15 O 0.6581(3) 0.2514(2) 0.26266(18) 0.0390 Uani
O16 O 0.8473(3) 0.2491(2) 0.27003(17) 0.0324 Uani
S1 S 0.74871(10) 0.25139(5) 0.30652(5) 0.0255 Uani
O17 O 0.4542(4) 0.1593(2) 0.1138(2) 0.0563 Uani
H33 H 0.3936 0.1708 0.1262 0.0840 Uiso
H34 H 0.4425 0.1236 0.0991 0.0840 Uiso
O18 O 0.0642(4) 0.1395(3) 0.1390(3) 0.0793 Uani
H35 H 0.0871 0.1683 0.1624 0.1190 Uiso
H36 H 0.0630 0.1212 0.1038 0.1190 Uiso
O19 O 0.4345(4) 0.8731(2) 0.3493(2) 0.0587 Uani
H37 H 0.4320 0.8879 0.3863 0.0880 Uiso
H38 H 0.4126 0.8416 0.3296 0.0880 Uiso
O20 O 0.0460(3) 0.8618(2) 0.3629(3) 0.0630 Uani
H39 H 0.1025 0.8409 0.3598 0.0940 Uiso
H40 H -0.0067 0.8797 0.3793 0.0940 Uiso
loop_
_atom_site_aniso_label
_atom_site_aniso_U_11
_atom_site_aniso_U_22
_atom_site_aniso_U_33
_atom_site_aniso_U_23
_atom_site_aniso_U_13
_atom_site_aniso_U_12
C1 0.022(3) 0.022(3) 0.016(2) 0.0016(19) -0.003(2) 0.003(2)
C2 0.036(3) 0.015(2) 0.021(2) 0.0023(19) 0.002(2) 0.003(2)
C3 0.023(3) 0.024(3) 0.018(3) 0.002(2) 0.001(2) 0.001(2)
C4 0.018(3) 0.031(3) 0.020(3) 0.002(2) 0.000(2) -0.006(2)
C5 0.022(3) 0.032(3) 0.016(2) 0.004(2) 0.002(2) 0.008(2)
C6 0.020(3) 0.021(2) 0.018(2) -0.002(2) -0.002(2) 0.001(2)
C7 0.025(3) 0.019(2) 0.026(2) 0.001(2) 0.003(2) -0.004(2)
C8 0.018(3) 0.026(3) 0.013(2) 0.002(2) -0.0021(18) -0.001(2)
C9 0.021(3) 0.016(2) 0.018(2) 0.0041(19) 0.000(2) -0.0023(19)
C10 0.024(3) 0.020(2) 0.018(2) 0.0002(16) -0.002(2) 0.002(2)
C11 0.018(2) 0.022(3) 0.023(3) -0.001(2) -0.004(2) 0.001(2)
C12 0.024(3) 0.017(2) 0.026(3) -0.004(2) -0.001(2) -0.003(2)
C13 0.016(2) 0.016(2) 0.029(3) -0.004(2) 0.002(2) 0.002(2)
C14 0.022(3) 0.018(3) 0.022(3) -0.001(2) 0.002(2) 0.001(2)
C15 0.031(3) 0.018(2) 0.016(2) -0.0017(16) -0.006(2) -0.002(2)
C16 0.023(3) 0.010(2) 0.023(3) 0.0003(18) -0.001(2) 0.0037(19)
N1 0.017(2) 0.0245(18) 0.0152(17) -0.0012(14) 0.0052(19) -0.0003(19)
N2 0.020(2) 0.0216(17) 0.0146(17) 0.0000(13) 0.0046(19) 0.0008(19)
N3 0.015(2) 0.0168(16) 0.0208(17) 0.0012(13) 0.0022(19) 0.0032(19)
N4 0.019(2) 0.0148(16) 0.0192(17) -0.0021(13) -0.0016(19) -0.0035(18)
O1 0.028(2) 0.0173(18) 0.0244(19) 0.0005(15) 0.0053(16) -0.0001(16)
O2 0.030(2) 0.0223(17) 0.0235(18) 0.0010(15) 0.0091(16) 0.0053(16)
O3 0.028(2) 0.0190(19) 0.0212(18) 0.0033(15) 0.0077(16) 0.0009(15)
O4 0.028(2) 0.0198(17) 0.0226(17) 0.0020(14) 0.0134(16) 0.0026(15)
O5 0.031(2) 0.0215(17) 0.0155(16) -0.0039(14) -0.0054(15) 0.0094(15)
O6 0.029(2) 0.0195(18) 0.0205(19) -0.0024(15) 0.0016(16) 0.0037(16)
O7 0.028(2) 0.0178(17) 0.0193(17) 0.0005(14) -0.0015(15) -0.0102(15)
O8 0.023(2) 0.0199(18) 0.0212(19) -0.0002(14) 0.0008(15) -0.0049(15)
O9 0.025(2) 0.030(2) 0.032(2) -0.0071(17) 0.0023(17) 0.0062(16)
O10 0.027(2) 0.029(2) 0.026(2) -0.0098(17) -0.0010(17) -0.0052(17)
O11 0.031(2) 0.027(2) 0.023(2) -0.0082(16) 0.0006(17) -0.0038(17)
O12 0.033(2) 0.027(2) 0.026(2) -0.0011(16) 0.0026(17) 0.0016(17)
Zn1 0.0223(5) 0.0161(4) 0.0190(5) 0.0000(3) 0.000 0.000
Zn2 0.0222(3) 0.0187(2) 0.0184(2) -0.00212(18) -0.0006(3) 0.0012(3)
Zn3 0.0230(3) 0.0176(2) 0.0192(2) 0.00019(18) -0.0004(3) 0.0004(3)
Zn4 0.0214(5) 0.0169(4) 0.0173(5) 0.0002(3) 0.000 0.000
C1B 0.022 0.022 0.016 -0.0016 -0.003 -0.003
C2B 0.036 0.015 0.021 -0.0023 0.002 -0.003
C3B 0.023 0.024 0.018 -0.002 0.001 -0.001
C4B 0.018 0.031 0.02 -0.002 0 0.006
C5B 0.022 0.032 0.016 -0.004 0.002 -0.008
C6B 0.02 0.021 0.018 0.002 -0.002 -0.001
C7B 0.025 0.019 0.026 -0.001 0.003 0.004
C8B 0.018 0.026 0.013 -0.002 -0.0021 0.001
C9B 0.021 0.016 0.018 -0.0041 0 0.0023
C10B 0.024 0.02 0.018 -0.0002 -0.002 -0.002
C11B 0.018 0.022 0.023 0.001 -0.004 -0.001
C12B 0.024 0.017 0.026 0.004 -0.001 0.003
C13B 0.016 0.016 0.029 0.004 0.002 -0.002
C14B 0.022 0.018 0.022 0.001 0.002 -0.001
C15B 0.031 0.018 0.016 0.0017 -0.006 0.002
C16B 0.023 0.01 0.023 -0.0003 -0.001 -0.0037
N1B 0.017 0.0245 0.0152 0.0012 0.0052 0.0003
N2B 0.02 0.0216 0.0146 0 0.0046 -0.0008
N3B 0.015 0.0168 0.0208 -0.0012 0.0022 -0.0032
N4B 0.019 0.0148 0.0192 0.0021 -0.0016 0.0035
O1B 0.028 0.0173 0.0244 -0.0005 0.0053 0.0001
O2B 0.03 0.0223 0.0235 -0.001 0.0091 -0.0053
O3B 0.028 0.019 0.0212 -0.0033 0.0077 -0.0009
O4B 0.028 0.0198 0.0226 -0.002 0.0134 -0.0026
O5B 0.031 0.0215 0.0155 0.0039 -0.0054 -0.0094
O6B 0.029 0.0195 0.0205 0.0024 0.0016 -0.0037
O7B 0.028 0.0178 0.0193 -0.0005 -0.0015 0.0102
O8B 0.023 0.0199 0.0212 0.0002 0.0008 0.0049
O9B 0.025 0.03 0.032 0.0071 0.0023 -0.0062
O10B 0.027 0.029 0.026 0.0098 -0.001 0.0052
O11B 0.031 0.027 0.023 0.0082 0.0006 0.0038
O12B 0.033 0.027 0.026 0.0011 0.0026 -0.0016
Zn2B 0.0222 0.0187 0.0184 0.00212 -0.0006 -0.0012
Zn3B 0.023 0.0176 0.0192 -0.00019 -0.0004 -0.0004
N4D 0.019 0.0148 0.0192 -0.0021 -0.0016 -0.0035
N4F 0.019 0.0148 0.0192 0.0021 -0.0016 0.0035
O2C 0.03 0.0223 0.0235 0.001 -0.0091 -0.0053
O4C 0.028 0.0198 0.0226 0.002 -0.0134 -0.0026
O5C 0.031 0.0215 0.0155 -0.0039 0.0054 -0.0094
O7E 0.028 0.0178 0.0193 -0.0005 0.0015 -0.0102
O7F 0.028 0.0178 0.0193 -0.0005 -0.0015 0.0102
O8D 0.023 0.0199 0.0212 -0.0002 0.0008 -0.0049
O8F 0.023 0.0199 0.0212 0.0002 0.0008 0.0049
Zn1A 0.0223 0.0161 0.019 0 0 0
Zn1D 0.0223 0.0161 0.019 0 0 0
Zn1E 0.0223 0.0161 0.019 0 0 0
Zn3D 0.023 0.0176 0.0192 0.00019 -0.0004 0.0004
Zn3F 0.023 0.0176 0.0192 -0.00019 -0.0004 -0.0004
Zn4A 0.0214 0.0169 0.0173 -0.0002 0 0
O13 0.033(3) 0.084(3) 0.076(3) 0.053(2) 0.007(3) 0.011(3)
O14 0.040(3) 0.066(3) 0.063(3) -0.039(2) 0.007(3) 0.000(3)
O15 0.041(2) 0.036(2) 0.040(2) -0.008(2) -0.0109(18) 0.003(2)
O16 0.0370(19) 0.029(2) 0.0313(19) 0.000(2) 0.0121(17) 0.001(2)
S1 0.0273(6) 0.0281(5) 0.0211(5) 0.0007(4) 0.0003(5) 0.0007(7)
O17 0.030(3) 0.052(3) 0.087(4) -0.033(3) 0.003(3) -0.003(2)
O18 0.037(3) 0.117(5) 0.084(4) -0.072(4) 0.010(3) -0.014(3)
O19 0.037(3) 0.087(4) 0.052(3) -0.036(3) 0.010(2) -0.015(3)
O20 0.018(2) 0.062(3) 0.109(5) -0.048(3) -0.002(3) 0.009(2)
loop_
_geom_bond_atom_site_label_1
_geom_bond_atom_site_label_2
_geom_bond_site_symmetry_1
_geom_bond_site_symmetry_2
C1 C2 1_555 1_555
C2 H1 1_555 1_555
H2 C2 1_555 1_555
C3 H3 1_555 1_555
H4 C3 1_555 1_555
C4 C3 1_555 1_555
H5 C4 1_555 1_555
H6 C4 1_555 1_555
C5 H7 1_555 1_555
H8 C5 1_555 1_555
C6 C5 1_555 1_555
H9 C6 1_555 1_555
H10 C6 1_555 1_555
C7 H11 1_555 1_555
H12 C7 1_555 1_555
C8 C7 1_555 1_555
C9 C10 1_555 1_555
C10 H13 1_555 1_555
H14 C10 1_555 1_555
C11 H15 1_555 1_555
H16 C11 1_555 1_555
C12 C11 1_555 1_555
H17 C12 1_555 1_555
H18 C12 1_555 1_555
C13 H19 1_555 1_555
H20 C13 1_555 1_555
C14 C13 1_555 1_555
H21 C14 1_555 1_555
H22 C14 1_555 1_555
C15 H23 1_555 1_555
H24 C15 1_555 1_555
C16 C15 1_555 1_555
N1 C2 1_555 1_555
N2 C4 1_555 1_555
N3 C10 1_555 1_555
N4 C12 1_555 1_555
O1 C1 1_555 1_555
O2 C1 1_555 1_555
O3 C8 1_555 1_555
O4 C8 1_555 1_555
O5 C9 1_555 1_555
O6 C9 1_555 1_555
O7 C16 1_555 1_555
O8 C16 1_555 1_555
O9 H25 1_555 1_555
H26 O9 1_555 1_555
O10 H27 1_555 1_555
H28 O10 1_555 1_555
O11 H29 1_555 1_555
H30 O11 1_555 1_555
O12 H31 1_555 1_555
H32 O12 1_555 1_555
Zn1 O2 1_555 1_555
Zn2 N1 1_555 1_555
Zn3 N2 1_555 1_555
Zn4 O4 1_555 1_555
O13 S1 1_555 1_555
O14 S1 1_555 1_555
O15 S1 1_555 1_555
O16 S1 1_555 1_555
O17 H33 1_555 1_555
H34 O17 1_555 1_555
O18 H35 1_555 1_555
H36 O18 1_555 1_555
O19 H37 1_555 1_555
H38 O19 1_555 1_555
O20 H39 1_555 1_555
H40 O20 1_555 1_555
C1B C2B 1_555 1_555
C2B H1B 1_555 1_555
H2B C2B 1_555 1_555
C3B H3B 1_555 1_555
H4B C3B 1_555 1_555
C4B C3B 1_555 1_555
H5B C4B 1_555 1_555
H6B C4B 1_555 1_555
C5B H7B 1_555 1_555
H8B C5B 1_555 1_555
C6B C5B 1_555 1_555
H9B C6B 1_555 1_555
H10B C6B 1_555 1_555
C7B H11B 1_555 1_555
H12B C7B 1_555 1_555
C8B C7B 1_555 1_555
C9B C10B 1_555 1_555
C10B H13B 1_555 1_555
H14B C10B 1_555 1_555
C11B H15B 1_555 1_555
H16B C11B 1_555 1_555
C12B C11B 1_555 1_555
H17B C12B 1_555 1_555
H18B C12B 1_555 1_555
C13B H19B 1_555 1_555
H20B C13B 1_555 1_555
C14B C13B 1_555 1_555
H21B C14B 1_555 1_555
H22B C14B 1_555 1_555
C15B H23B 1_555 1_555
H24B C15B 1_555 1_555
C16B C15B 1_555 1_555
N1B C2B 1_555 1_555
N2B C4B 1_555 1_555
N3B Zn2 1_555 1_555
N4B C12B 1_555 1_555
O1B C1B 1_555 1_555
O2B C1B 1_555 1_555
O3B C8B 1_555 1_555
O4B C8B 1_555 1_555
O5B C9B 1_555 1_555
O6B Zn2 1_555 1_555
O7B C16B 1_555 1_555
O8B C16B 1_555 1_555
O9B H25B 1_555 1_555
H26B O9B 1_555 1_555
O10B H27B 1_555 1_555
H28B O10B 1_555 1_555
O11B H29B 1_555 1_555
H30B O11B 1_555 1_555
O12B H31B 1_555 1_555
H32B O12B 1_555 1_555
Zn2B N3 1_555 1_555
Zn3B N2B 1_555 1_555
N4D Zn3 1_555 1_555
N4F Zn3B 1_555 1_555
O2C Zn1 1_555 1_555
O4C Zn4 1_555 1_555
O5C Zn4 1_555 1_555
O7E Zn1 1_555 1_555
O7F Zn1 1_555 1_555
O8D Zn3 1_555 1_555
O8F Zn3B 1_555 1_555
Zn1A O2B 1_555 1_555
Zn1D O7B 1_555 1_555
Zn1E O7 1_555 1_555
Zn3D N4 1_555 1_555
Zn3F N4B 1_555 1_555
Zn4A O4B 1_555 1_555
C3 N1 1_555 1_555
C5 N2 1_555 1_555
C6 N1 1_555 1_555
C7 N2 1_555 1_555
C11 N3 1_555 1_555
C13 N4 1_555 1_555
C14 N3 1_555 1_555
C15 N4 1_555 1_555
O1 Zn2 1_555 1_555
O3 Zn3 1_555 1_555
O5 Zn4 1_555 1_555
O6 Zn2B 1_555 1_555
O8 Zn3D 1_555 1_555
O9 Zn2 1_555 1_555
O10 Zn2 1_555 1_555
O11 Zn3 1_555 1_555
O12 Zn3 1_555 1_555
C3B N1B 1_555 1_555
C5B N2B 1_555 1_555
C6B N1B 1_555 1_555
C7B N2B 1_555 1_555
C9B O6B 1_555 1_555
C10B N3B 1_555 1_555
C11B N3B 1_555 1_555
C13B N4B 1_555 1_555
C14B N3B 1_555 1_555
C15B N4B 1_555 1_555
N1B Zn2B 1_555 1_555
O1B Zn2B 1_555 1_555
O3B Zn3B 1_555 1_555
O5B Zn4A 1_555 1_555
O8B Zn3F 1_555 1_555
O9B Zn2B 1_555 1_555
O10B Zn2B 1_555 1_555
O11B Zn3B 1_555 1_555
O12B Zn3B 1_555 1_555

#END
