
#######################################################################
#
#                 Cambridge Crystallographic Data Centre
#                                CCDC 
#
#######################################################################
#
# If this CIF has been generated from an entry in the Cambridge 
# Structural Database, then it will include bibliographic, chemical, 
# crystal, experimental, refinement or atomic coordinate data resulting 
# from the CCDC's data processing and validation procedures.
#
#######################################################################

data_NAFRUI
_chemical_formula_moiety         '(C9 Ga9 N4 O48 P12 9-)n'
_symmetry_cell_setting           cubic
_symmetry_space_group_name_H-M   'I -4 3 m'
_symmetry_Int_Tables_number      217
_space_group_name_Hall           'I -4 2 3'
loop_
_symmetry_equiv_pos_site_id
_symmetry_equiv_pos_as_xyz
1 x,y,z
2 -x,-y,z
3 -x,y,-z
4 x,-y,-z
5 z,x,y
6 z,-x,-y
7 -z,-x,y
8 -z,x,-y
9 y,z,x
10 -y,z,-x
11 y,-z,-x
12 -y,-z,x
13 y,x,z
14 -y,-x,z
15 y,-x,-z
16 -y,x,-z
17 x,z,y
18 -x,z,-y
19 -x,-z,y
20 x,-z,-y
21 z,y,x
22 z,-y,-x
23 -z,y,-x
24 -z,-y,x
25 1/2+x,1/2+y,1/2+z
26 1/2-x,1/2-y,1/2+z
27 1/2-x,1/2+y,1/2-z
28 1/2+x,1/2-y,1/2-z
29 1/2+z,1/2+x,1/2+y
30 1/2+z,1/2-x,1/2-y
31 1/2-z,1/2-x,1/2+y
32 1/2-z,1/2+x,1/2-y
33 1/2+y,1/2+z,1/2+x
34 1/2-y,1/2+z,1/2-x
35 1/2+y,1/2-z,1/2-x
36 1/2-y,1/2-z,1/2+x
37 1/2+y,1/2+x,1/2+z
38 1/2-y,1/2-x,1/2+z
39 1/2+y,1/2-x,1/2-z
40 1/2-y,1/2+x,1/2-z
41 1/2+x,1/2+z,1/2+y
42 1/2-x,1/2+z,1/2-y
43 1/2-x,1/2-z,1/2+y
44 1/2+x,1/2-z,1/2-y
45 1/2+z,1/2+y,1/2+x
46 1/2+z,1/2-y,1/2-x
47 1/2-z,1/2+y,1/2-x
48 1/2-z,1/2-y,1/2+x
_cell_length_a                   16.8552(3)
_cell_length_b                   16.8552(3)
_cell_length_c                   16.8552(3)
_cell_angle_alpha                90
_cell_angle_beta                 90
_cell_angle_gamma                90
_cell_volume                     4788.52
loop_
_atom_site_label
_atom_site_type_symbol
_atom_site_fract_x
_atom_site_fract_y
_atom_site_fract_z
Ga1 Ga 0.0000 0.5000 0.0000
Ga2 Ga 0.2500 0.5000 0.0000
P1 P 0.12361(8) 0.56640(12) 0.12361(8)
O1 O 0.0589(2) 0.5716(4) 0.0589(2)
O2 O 0.1944(2) 0.5173(3) 0.0946(3)
O3 O 0.1458(3) 0.6486(4) 0.1458(3)
O2C O 0.1944(2) 0.4827(3) -0.0946(3)
O2OA O 0.3056(2) 0.5946(3) -0.0173(3)
O2PA O 0.3056(2) 0.4054(3) 0.0173(3)
O2T O 0.0946(3) 0.5173(3) 0.1944(2)
Ga2A Ga -0.2500 0.5000 0.0000
P1A P -0.12361(8) 0.43360(12) 0.12361(8)
O1A O -0.0589(2) 0.4284(4) 0.0589(2)
O2A O -0.1944(2) 0.4827(3) 0.0946(3)
O3A O -0.1458(3) 0.3514(4) 0.1458(3)
O2B O -0.1944(2) 0.5173(3) -0.0946(3)
O2QA O -0.3056(2) 0.4054(3) -0.0173(3)
O2NA O -0.3056(2) 0.5946(3) 0.0173(3)
O2W O -0.0946(3) 0.4827(3) 0.1944(2)
P1B P -0.12361(8) 0.56640(12) -0.12361(8)
O1B O -0.0589(2) 0.5716(4) -0.0589(2)
O3B O -0.1458(3) 0.6486(4) -0.1458(3)
O2V O -0.0946(3) 0.5173(3) -0.1944(2)
P1C P 0.12361(8) 0.43360(12) -0.12361(8)
O1C O 0.0589(2) 0.4284(4) -0.0589(2)
O3C O 0.1458(3) 0.3514(4) -0.1458(3)
O2U O 0.0946(3) 0.4827(3) -0.1944(2)
Ga2T Ga 0.0000 0.5000 0.2500
O2GA O -0.0173(3) 0.5946(3) 0.3056(2)
O2HA O 0.0173(3) 0.4054(3) 0.3056(2)
Ga2U Ga 0.0000 0.5000 -0.2500
O2IA O -0.0173(3) 0.4054(3) -0.3056(2)
O2FA O 0.0173(3) 0.5946(3) -0.3056(2)
P1CA P -0.37639(8) 0.37639(8) -0.06640(12)
P1BA P -0.37639(8) 0.62361(8) 0.06640(12)
P1IA P -0.06640(12) 0.37639(8) -0.37639(8)
P1FA P 0.06640(12) 0.62361(8) -0.37639(8)
P1EA P 0.37639(8) 0.62361(8) -0.06640(12)
P1DA P 0.37639(8) 0.37639(8) 0.06640(12)
P1GA P -0.06640(12) 0.62361(8) 0.37639(8)
P1HA P 0.06640(12) 0.37639(8) 0.37639(8)
O1CA O -0.4411(2) 0.4411(2) -0.0716(4)
O2CA O -0.4054(3) 0.3056(2) -0.0173(3)
O3CA O -0.3542(3) 0.3542(3) -0.1486(4)
O1BA O -0.4411(2) 0.5589(2) 0.0716(4)
O2BA O -0.4054(3) 0.6944(2) 0.0173(3)
O3BA O -0.3542(3) 0.6458(3) 0.1486(4)
O1IA O -0.0716(4) 0.4411(2) -0.4411(2)
O2KA O -0.0173(3) 0.3056(2) -0.4054(3)
O3IA O -0.1486(4) 0.3542(3) -0.3542(3)
O1FA O 0.0716(4) 0.5589(2) -0.4411(2)
O2JA O 0.0173(3) 0.6944(2) -0.4054(3)
O3FA O 0.1486(4) 0.6458(3) -0.3542(3)
O1EA O 0.4411(2) 0.5589(2) -0.0716(4)
O2EA O 0.4054(3) 0.6944(2) -0.0173(3)
O3EA O 0.3542(3) 0.6458(3) -0.1486(4)
O1DA O 0.4411(2) 0.4411(2) 0.0716(4)
O2DA O 0.4054(3) 0.3056(2) 0.0173(3)
O3DA O 0.3542(3) 0.3542(3) 0.1486(4)
O1GA O -0.0716(4) 0.5589(2) 0.4411(2)
O2MA O -0.0173(3) 0.6944(2) 0.4054(3)
O3GA O -0.1486(4) 0.6458(3) 0.3542(3)
O1HA O 0.0716(4) 0.4411(2) 0.4411(2)
O2LA O 0.0173(3) 0.3056(2) 0.4054(3)
O3HA O 0.1486(4) 0.3542(3) 0.3542(3)
Ga1FA Ga 0.0000 0.5000 -0.5000
Ga2E Ga 0.0000 0.7500 -0.5000
Ga2D Ga 0.0000 0.2500 -0.5000
Ga1BA Ga 0.5000 0.5000 0.0000
Ga2M Ga 0.5000 0.7500 0.0000
Ga2L Ga 0.5000 0.2500 0.0000
Ga1BA_2 Ga -0.5000 0.5000 0.0000
Ga2L_2 Ga -0.5000 0.2500 0.0000
Ga2M_2 Ga -0.5000 0.7500 0.0000
Ga1FA_2 Ga 0.0000 0.5000 0.5000
Ga2E_2 Ga 0.0000 0.7500 0.5000
Ga2D_2 Ga 0.0000 0.2500 0.5000
O1GA_2 O -0.0716(4) 0.5589(2) -0.5589(2)
O1HA_2 O 0.0716(4) 0.4411(2) -0.5589(2)
O2E O 0.0946(3) 0.8056(2) -0.5173(3)
O2F O -0.0946(3) 0.8056(2) -0.4827(3)
O2MA_2 O -0.0173(3) 0.6944(2) -0.5946(3)
O2D O 0.0946(3) 0.1944(2) -0.4827(3)
O2G O -0.0946(3) 0.1944(2) -0.5173(3)
O2LA_2 O 0.0173(3) 0.3056(2) -0.5946(3)
O1BA_2 O 0.5589(2) 0.5589(2) 0.0716(4)
O1CA_2 O 0.5589(2) 0.4411(2) -0.0716(4)
O2M O 0.4827(3) 0.8056(2) 0.0946(3)
O2N O 0.5173(3) 0.8056(2) -0.0946(3)
O2BA_2 O 0.5946(3) 0.6944(2) 0.0173(3)
O2L O 0.5173(3) 0.1944(2) 0.0946(3)
O2O O 0.4827(3) 0.1944(2) -0.0946(3)
O2CA_2 O 0.5946(3) 0.3056(2) -0.0173(3)
C1 C 0.1416(4) 0.3240(6) 0.1416(4)
C2 C 0.1293(9) 0.2398(9) 0.1734(9)
N1 N 0.1933(3) 0.3738(5) 0.1933(3)
N2 N 0.1967(4) 0.1967(4) 0.1967(4)
C2T C 0.1734(9) 0.2398(9) 0.1293(9)
C2P C 0.1293(9) 0.1734(9) 0.2398(9)
C2H C 0.2398(9) 0.1734(9) 0.1293(9)
C2D C 0.1734(9) 0.1293(9) 0.2398(9)
C2L C 0.2398(9) 0.1293(9) 0.1734(9)
C1D C 0.1416(4) 0.1416(4) 0.3240(6)
C1H C 0.3240(6) 0.1416(4) 0.1416(4)
N1D N 0.1933(3) 0.1933(3) 0.3738(5)
N1H N 0.3738(5) 0.1933(3) 0.1933(3)
loop_
_geom_bond_atom_site_label_1
_geom_bond_atom_site_label_2
_geom_bond_site_symmetry_1
_geom_bond_site_symmetry_2
C1 C2 1_555 1_555
C2 N2 1_555 1_555
N1 C1 1_555 1_555
N2 C2T 1_555 1_555
Ga1 O1 1_555 1_555
Ga2 O2 1_555 1_555
P1 O1 1_555 1_555
O2 P1 1_555 1_555
O3 P1 1_555 1_555
C2T C1 1_555 1_555
C2P C2 1_555 1_555
C2H N2 1_555 1_555
C2D N2 1_555 1_555
C2L N2 1_555 1_555
C1D C2P 1_555 1_555
C1H C2H 1_555 1_555
N1D C1D 1_555 1_555
N1H C1H 1_555 1_555
O2C Ga2 1_555 1_555
O2OA Ga2 1_555 1_555
O2PA Ga2 1_555 1_555
O2T P1 1_555 1_555
Ga2A O2A 1_555 1_555
P1A O1A 1_555 1_555
O1A Ga1 1_555 1_555
O2A P1A 1_555 1_555
O3A P1A 1_555 1_555
O2B Ga2A 1_555 1_555
O2QA Ga2A 1_555 1_555
O2NA Ga2A 1_555 1_555
O2W P1A 1_555 1_555
P1B O2B 1_555 1_555
O1B Ga1 1_555 1_555
O3B P1B 1_555 1_555
O2V P1B 1_555 1_555
P1C O2C 1_555 1_555
O1C Ga1 1_555 1_555
O3C P1C 1_555 1_555
O2U P1C 1_555 1_555
Ga2T O2T 1_555 1_555
O2GA Ga2T 1_555 1_555
O2HA Ga2T 1_555 1_555
Ga2U O2V 1_555 1_555
O2IA Ga2U 1_555 1_555
O2FA Ga2U 1_555 1_555
P1CA O2QA 1_555 1_555
P1BA O2NA 1_555 1_555
P1IA O2IA 1_555 1_555
P1FA O2FA 1_555 1_555
P1EA O2OA 1_555 1_555
P1DA O2PA 1_555 1_555
P1GA O2GA 1_555 1_555
P1HA O2HA 1_555 1_555
O1CA P1CA 1_555 1_555
O2CA P1CA 1_555 1_555
O3CA P1CA 1_555 1_555
O1BA P1BA 1_555 1_555
O2BA P1BA 1_555 1_555
O3BA P1BA 1_555 1_555
O1IA P1IA 1_555 1_555
O2KA P1IA 1_555 1_555
O3IA P1IA 1_555 1_555
O1FA P1FA 1_555 1_555
O2JA P1FA 1_555 1_555
O3FA P1FA 1_555 1_555
O1EA P1EA 1_555 1_555
O2EA P1EA 1_555 1_555
O3EA P1EA 1_555 1_555
O1DA P1DA 1_555 1_555
O2DA P1DA 1_555 1_555
O3DA P1DA 1_555 1_555
O1GA P1GA 1_555 1_555
O2MA P1GA 1_555 1_555
O3GA P1GA 1_555 1_555
O1HA P1HA 1_555 1_555
O2LA P1HA 1_555 1_555
O3HA P1HA 1_555 1_555
Ga1FA O1IA 1_555 1_555
Ga2E O2JA 1_555 1_555
Ga2D O2KA 1_555 1_555
Ga1BA O1EA 1_555 1_555
Ga2M O2EA 1_555 1_555
Ga2L O2DA 1_555 1_555
Ga1BA_2 O1CA 1_555 1_555
Ga2L_2 O2CA 1_555 1_555
Ga2M_2 O2BA 1_555 1_555
Ga1FA_2 O1GA 1_555 1_555
Ga2E_2 O2MA 1_555 1_555
Ga2D_2 O2LA 1_555 1_555
O1GA_2 Ga1FA 1_555 1_555
O1HA_2 Ga1FA 1_555 1_555
O2E Ga2E 1_555 1_555
O2F Ga2E 1_555 1_555
O2MA_2 Ga2E 1_555 1_555
O2D Ga2D 1_555 1_555
O2G Ga2D 1_555 1_555
O2LA_2 Ga2D 1_555 1_555
O1BA_2 Ga1BA 1_555 1_555
O1CA_2 Ga1BA 1_555 1_555
O2M Ga2M 1_555 1_555
O2N Ga2M 1_555 1_555
O2BA_2 Ga2M 1_555 1_555
O2L Ga2L 1_555 1_555
O2O Ga2L 1_555 1_555
O2CA_2 Ga2L 1_555 1_555
C2 C2T 1_555 1_555
N2 C2P 1_555 1_555
C2T C2H 1_555 1_555
C2P C2D 1_555 1_555
C2H C2L 1_555 1_555
C2D C2L 1_555 1_555
C2D C1D 1_555 1_555
C2L C1H 1_555 1_555
O2W Ga2T 1_555 1_555
P1B O1B 1_555 1_555
P1C O1C 1_555 1_555
O2U Ga2U 1_555 1_555
O1BA Ga1BA_2 1_555 1_555
O1FA Ga1FA 1_555 1_555
O1DA Ga1BA 1_555 1_555
O1HA Ga1FA_2 1_555 1_555

#END
