
#######################################################################
#
#                 Cambridge Crystallographic Data Centre
#                                CCDC 
#
#######################################################################
#
# If this CIF has been generated from an entry in the Cambridge 
# Structural Database, then it will include bibliographic, chemical, 
# crystal, experimental, refinement or atomic coordinate data resulting 
# from the CCDC's data processing and validation procedures.
#
#######################################################################

data_NEYYIZ
_chemical_formula_moiety         '(C6 Cr1 N6 Rb1 2-)n'
_symmetry_cell_setting           rhombohedral
_symmetry_space_group_name_H-M   'R -3 m'
_symmetry_Int_Tables_number      166
_space_group_name_Hall           '-R 3 2"'
loop_
_symmetry_equiv_pos_site_id
_symmetry_equiv_pos_as_xyz
1 x,y,z
2 -y,x-y,z
3 y,x,-z
4 -x+y,-x,z
5 -x,-x+y,-z
6 x-y,-y,-z
7 1/3+x,2/3+y,2/3+z
8 1/3-y,2/3+x-y,2/3+z
9 1/3+y,2/3+x,2/3-z
10 1/3-x+y,2/3-x,2/3+z
11 1/3-x,2/3-x+y,2/3-z
12 1/3+x-y,2/3-y,2/3-z
13 2/3+x,1/3+y,1/3+z
14 2/3-y,1/3+x-y,1/3+z
15 2/3+y,1/3+x,1/3-z
16 2/3-x+y,1/3-x,1/3+z
17 2/3-x,1/3-x+y,1/3-z
18 2/3+x-y,1/3-y,1/3-z
19 -x,-y,-z
20 y,-x+y,-z
21 -y,-x,z
22 x-y,x,-z
23 x,x-y,z
24 -x+y,y,z
25 2/3-x,1/3-y,1/3-z
26 2/3+y,1/3-x+y,1/3-z
27 2/3-y,1/3-x,1/3+z
28 2/3+x-y,1/3+x,1/3-z
29 2/3+x,1/3+x-y,1/3+z
30 2/3-x+y,1/3+y,1/3+z
31 1/3-x,2/3-y,2/3-z
32 1/3+y,2/3-x+y,2/3-z
33 1/3-y,2/3-x,2/3+z
34 1/3+x-y,2/3+x,2/3-z
35 1/3+x,2/3+x-y,2/3+z
36 1/3-x+y,2/3+y,2/3+z
_cell_length_a                   8.959(1)
_cell_length_b                   8.959(1)
_cell_length_c                   21.764(4)
_cell_angle_alpha                90
_cell_angle_beta                 90
_cell_angle_gamma                120
_cell_volume                     1512.82
loop_
_atom_site_label
_atom_site_type_symbol
_atom_site_fract_x
_atom_site_fract_y
_atom_site_fract_z
Rb1 Rb -0.0000 0.0000 0.5000
Cr1 Cr 0.3333 -0.3333 0.6667
C1 C 0.2247(5) -0.2247(5) 0.6115(4)
N1 N 0.1637(5) -0.1637(5) 0.5800(4)
N1A N 0.1637(5) 0.3274(7) 0.5800(4)
N1B N -0.1637(5) 0.1637(5) 0.4200(4)
N1C N -0.3274(7) -0.1637(5) 0.5800(4)
N1D N -0.1637(5) -0.3274(7) 0.4200(4)
N1E N 0.3274(7) 0.1637(5) 0.4200(4)
C1A C 0.2247(5) -0.5506(7) 0.6115(4)
C1C C 0.5506(7) -0.2247(5) 0.6115(4)
C1N C 0.4420(5) -0.4420(5) 0.7218(4)
C1P C 0.4420(5) -0.1161(7) 0.7218(4)
C1Q C 0.1161(7) -0.4420(5) 0.7218(4)
N1A_2 N 0.1637(5) -0.6726(7) 0.5800(4)
N1C_2 N 0.6726(7) -0.1637(5) 0.5800(4)
N1N N 0.5030(5) -0.5030(5) 0.7533(4)
N1P N 0.5030(5) 0.0059(7) 0.7533(4)
N1Q N -0.0059(7) -0.5030(5) 0.7533(4)
Rb1_2 Rb -0.0000 -1.0000 0.5000
Rb1_3 Rb 1.0000 0.0000 0.5000
Rb1L Rb 0.6667 -0.6667 0.8333
Rb1L_2 Rb 0.6667 0.3333 0.8333
Rb1L_3 Rb -0.3333 -0.6667 0.8333
loop_
_geom_bond_atom_site_label_1
_geom_bond_atom_site_label_2
_geom_bond_site_symmetry_1
_geom_bond_site_symmetry_2
Rb1 N1 1_555 1_555
Cr1 C1 1_555 1_555
C1 N1 1_555 1_555
N1A Rb1 1_555 1_555
N1B Rb1 1_555 1_555
N1C Rb1 1_555 1_555
N1D Rb1 1_555 1_555
N1E Rb1 1_555 1_555
C1A Cr1 1_555 1_555
C1C Cr1 1_555 1_555
C1N Cr1 1_555 1_555
C1P Cr1 1_555 1_555
C1Q Cr1 1_555 1_555
N1A_2 C1A 1_555 1_555
N1C_2 C1C 1_555 1_555
N1N C1N 1_555 1_555
N1P C1P 1_555 1_555
N1Q C1Q 1_555 1_555
Rb1_2 N1A_2 1_555 1_555
Rb1_3 N1C_2 1_555 1_555
Rb1L N1N 1_555 1_555
Rb1L_2 N1P 1_555 1_555
Rb1L_3 N1Q 1_555 1_555

#END
