
#######################################################################
#
#                 Cambridge Crystallographic Data Centre
#                                CCDC 
#
#######################################################################
#
# If this CIF has been generated from an entry in the Cambridge 
# Structural Database, then it will include bibliographic, chemical, 
# crystal, experimental, refinement or atomic coordinate data resulting 
# from the CCDC's data processing and validation procedures.
#
#######################################################################

data_NIGNUO
_chemical_formula_moiety         'C216 H120 Co40 O101'
_symmetry_cell_setting           cubic
_symmetry_space_group_name_H-M   'I m -3'
_symmetry_Int_Tables_number      204
_space_group_name_Hall           '-I 2 2 3'
loop_
_symmetry_equiv_pos_site_id
_symmetry_equiv_pos_as_xyz
1 x,y,z
2 -x,-y,z
3 x,-y,-z
4 -x,y,-z
5 z,x,y
6 -z,-x,y
7 z,-x,-y
8 -z,x,-y
9 y,z,x
10 y,-z,-x
11 -y,z,-x
12 -y,-z,x
13 1/2+x,1/2+y,1/2+z
14 1/2-x,1/2-y,1/2+z
15 1/2+x,1/2-y,1/2-z
16 1/2-x,1/2+y,1/2-z
17 1/2+z,1/2+x,1/2+y
18 1/2-z,1/2-x,1/2+y
19 1/2+z,1/2-x,1/2-y
20 1/2-z,1/2+x,1/2-y
21 1/2+y,1/2+z,1/2+x
22 1/2+y,1/2-z,1/2-x
23 1/2-y,1/2+z,1/2-x
24 1/2-y,1/2-z,1/2+x
25 -x,-y,-z
26 x,y,-z
27 -x,y,z
28 x,-y,z
29 -z,-x,-y
30 z,x,-y
31 -z,x,y
32 z,-x,y
33 -y,-z,-x
34 -y,z,x
35 y,-z,x
36 y,z,-x
37 1/2-x,1/2-y,1/2-z
38 1/2+x,1/2+y,1/2-z
39 1/2-x,1/2+y,1/2+z
40 1/2+x,1/2-y,1/2+z
41 1/2-z,1/2-x,1/2-y
42 1/2+z,1/2+x,1/2-y
43 1/2-z,1/2+x,1/2+y
44 1/2+z,1/2-x,1/2+y
45 1/2-y,1/2-z,1/2-x
46 1/2-y,1/2+z,1/2+x
47 1/2+y,1/2-z,1/2+x
48 1/2+y,1/2+z,1/2-x
_cell_length_a                   27.3838(3)
_cell_length_b                   27.3838(3)
_cell_length_c                   27.3838(3)
_cell_angle_alpha                90
_cell_angle_beta                 90
_cell_angle_gamma                90
_cell_volume                     20534.4
loop_
_atom_site_label
_atom_site_type_symbol
_atom_site_fract_x
_atom_site_fract_y
_atom_site_fract_z
C1 C 0.17124(8) 0.22720(8) 0.23825(9)
H1 H 0.1443 0.2375 0.2563
C2 C 0.19719(8) 0.18490(8) 0.25358(8)
C3 C 0.18228(9) 0.15805(9) 0.29756(8)
C4 C 0.13246(9) 0.15391(10) 0.31084(9)
H2 H 0.1087 0.1684 0.2914
C5 C 0.11882(9) 0.12877(9) 0.35194(10)
H3 H 0.0860 0.1271 0.3607
C6 C 0.15402(9) 0.10570(8) 0.38070(9)
C7 C 0.20258(8) 0.11037(8) 0.36882(8)
H4 H 0.2261 0.0965 0.3890
C8 C 0.21694(8) 0.13539(9) 0.32729(9)
H5 H 0.2499 0.1371 0.3192
C9 C 0.13885(9) 0.07653(9) 0.42463(9)
Co1 Co 0.059143(17) 0.054877(16) 0.5000
Co2 Co 0.16879(2) 0.0000 0.5000
O1 O 0.17085(6) 0.05370(7) 0.44626(6)
O2 O 0.09424(6) 0.07976(7) 0.43831(7)
O3 O 0.0000 0.10111(12) 0.5000
O4 O 0.0000 0.0000 0.5000
O5 O 0.08965(11) 0.0000 0.5000
O6 O 0.24406(12) 0.0000 0.5000
C1D C 0.23825(9) 0.17124(8) 0.22720(8)
H1D H 0.2563 0.1443 0.2375
C2D C 0.25358(8) 0.19719(8) 0.18490(8)
C3D C 0.29756(8) 0.18228(9) 0.15805(9)
C4D C 0.31084(9) 0.13246(9) 0.15391(10)
H2D H 0.2914 0.1087 0.1684
C5D C 0.35194(10) 0.11882(9) 0.12877(9)
H3D H 0.3607 0.0860 0.1271
C6D C 0.38070(9) 0.15402(9) 0.10570(8)
C7D C 0.36882(8) 0.20258(8) 0.11037(8)
H4D H 0.3890 0.2261 0.0965
C8D C 0.32729(9) 0.21694(8) 0.13539(9)
H5D H 0.3192 0.2499 0.1371
C9D C 0.42463(9) 0.13885(9) 0.07653(9)
O1D O 0.44626(6) 0.17085(6) 0.05370(7)
O2D O 0.43831(7) 0.09424(6) 0.07976(7)
C1H C 0.22720(8) 0.23825(9) 0.17124(8)
H1H H 0.2375 0.2563 0.1443
C2H C 0.18490(8) 0.25358(8) 0.19719(8)
C3H C 0.15805(9) 0.29756(8) 0.18228(9)
C4H C 0.15391(10) 0.31084(9) 0.13246(9)
H2H H 0.1684 0.2914 0.1087
C5H C 0.12877(9) 0.35194(10) 0.11882(9)
H3H H 0.1271 0.3607 0.0860
C6H C 0.10570(8) 0.38070(9) 0.15402(9)
C7H C 0.11037(8) 0.36882(8) 0.20258(8)
H4H H 0.0965 0.3890 0.2261
C8H C 0.13539(9) 0.32729(9) 0.21694(8)
H5H H 0.1371 0.3192 0.2499
C9H C 0.07653(9) 0.42463(9) 0.13885(9)
O1H O 0.05370(7) 0.44626(6) 0.17085(6)
O2H O 0.07976(7) 0.43831(7) 0.09424(6)
C1A C -0.17124(8) -0.22720(8) 0.23825(9)
H1A H -0.1443 -0.2375 0.2563
C2A C -0.19719(8) -0.18490(8) 0.25358(8)
C3A C -0.18228(9) -0.15805(9) 0.29756(8)
C4A C -0.13246(9) -0.15391(10) 0.31084(9)
H2A H -0.1087 -0.1684 0.2914
C5A C -0.11882(9) -0.12877(9) 0.35194(10)
H3A H -0.0860 -0.1271 0.3607
C6A C -0.15402(9) -0.10570(8) 0.38070(9)
C7A C -0.20258(8) -0.11037(8) 0.36882(8)
H4A H -0.2261 -0.0965 0.3890
C8A C -0.21694(8) -0.13539(9) 0.32729(9)
H5A H -0.2499 -0.1371 0.3192
C9A C -0.13885(9) -0.07653(9) 0.42463(9)
Co1A Co -0.059143(17) -0.054877(16) 0.5000
Co2A Co -0.16879(2) 0.0000 0.5000
O1A O -0.17085(6) -0.05370(7) 0.44626(6)
O2A O -0.09424(6) -0.07976(7) 0.43831(7)
O3A O -0.0000 -0.10111(12) 0.5000
O5A O -0.08965(11) 0.0000 0.5000
O6A O -0.24406(12) 0.0000 0.5000
C1E C -0.23825(9) -0.17124(8) 0.22720(8)
H1E H -0.2563 -0.1443 0.2375
C2E C -0.25358(8) -0.19719(8) 0.18490(8)
C3E C -0.29756(8) -0.18228(9) 0.15805(9)
C4E C -0.31084(9) -0.13246(9) 0.15391(10)
H2E H -0.2914 -0.1087 0.1684
C5E C -0.35194(10) -0.11882(9) 0.12877(9)
H3E H -0.3607 -0.0860 0.1271
C6E C -0.38070(9) -0.15402(9) 0.10570(8)
C7E C -0.36882(8) -0.20258(8) 0.11037(8)
H4E H -0.3890 -0.2261 0.0965
C8E C -0.32729(9) -0.21694(8) 0.13539(9)
H5E H -0.3192 -0.2499 0.1371
C9E C -0.42463(9) -0.13885(9) 0.07653(9)
O1E O -0.44626(6) -0.17085(6) 0.05370(7)
O2E O -0.43831(7) -0.09424(6) 0.07976(7)
C1K C -0.22720(8) -0.23825(9) 0.17124(8)
H1K H -0.2375 -0.2563 0.1443
C2K C -0.18490(8) -0.25358(8) 0.19719(8)
C3K C -0.15805(9) -0.29756(8) 0.18228(9)
C4K C -0.15391(10) -0.31084(9) 0.13246(9)
H2K H -0.1684 -0.2914 0.1087
C5K C -0.12877(9) -0.35194(10) 0.11882(9)
H3K H -0.1271 -0.3607 0.0860
C6K C -0.10570(8) -0.38070(9) 0.15402(9)
C7K C -0.11037(8) -0.36882(8) 0.20258(8)
H4K H -0.0965 -0.3890 0.2261
C8K C -0.13539(9) -0.32729(9) 0.21694(8)
H5K H -0.1371 -0.3192 0.2499
C9K C -0.07653(9) -0.42463(9) 0.13885(9)
O1K O -0.05370(7) -0.44626(6) 0.17085(6)
O2K O -0.07976(7) -0.43831(7) 0.09424(6)
Co1B Co 0.059143(17) -0.054877(16) 0.5000
Co1C Co -0.059143(17) 0.054877(16) 0.5000
Co1D Co 0.5000 0.059143(17) 0.054877(16)
Co2D Co 0.5000 0.16879(2) 0.0000
O3D O 0.5000 0.0000 0.10111(12)
O4D O 0.5000 0.0000 0.0000
O5D O 0.5000 0.08965(11) 0.0000
O6D O 0.5000 0.24406(12) 0.0000
C1F C 0.23825(9) -0.17124(8) -0.22720(8)
H1F H 0.2563 -0.1443 -0.2375
C2F C 0.25358(8) -0.19719(8) -0.18490(8)
C3F C 0.29756(8) -0.18228(9) -0.15805(9)
C4F C 0.31084(9) -0.13246(9) -0.15391(10)
H2F H 0.2914 -0.1087 -0.1684
C5F C 0.35194(10) -0.11882(9) -0.12877(9)
H3F H 0.3607 -0.0860 -0.1271
C6F C 0.38070(9) -0.15402(9) -0.10570(8)
C7F C 0.36882(8) -0.20258(8) -0.11037(8)
H4F H 0.3890 -0.2261 -0.0965
C8F C 0.32729(9) -0.21694(8) -0.13539(9)
H5F H 0.3192 -0.2499 -0.1371
C9F C 0.42463(9) -0.13885(9) -0.07653(9)
Co1F Co 0.5000 -0.059143(17) -0.054877(16)
Co2E Co 0.5000 -0.16879(2) 0.0000
O1F O 0.44626(6) -0.17085(6) -0.05370(7)
O2F O 0.43831(7) -0.09424(6) -0.07976(7)
O3F O 0.5000 0.0000 -0.10111(12)
O5E O 0.5000 -0.08965(11) 0.0000
O6E O 0.5000 -0.24406(12) 0.0000
C1I C 0.22720(8) -0.23825(9) -0.17124(8)
H1I H 0.2375 -0.2563 -0.1443
C2I C 0.18490(8) -0.25358(8) -0.19719(8)
C3I C 0.15805(9) -0.29756(8) -0.18228(9)
C4I C 0.15391(10) -0.31084(9) -0.13246(9)
H2I H 0.1684 -0.2914 -0.1087
C5I C 0.12877(9) -0.35194(10) -0.11882(9)
H3I H 0.1271 -0.3607 -0.0860
C6I C 0.10570(8) -0.38070(9) -0.15402(9)
C7I C 0.11037(8) -0.36882(8) -0.20258(8)
H4I H 0.0965 -0.3890 -0.2261
C8I C 0.13539(9) -0.32729(9) -0.21694(8)
H5I H 0.1371 -0.3192 -0.2499
C9I C 0.07653(9) -0.42463(9) -0.13885(9)
O1I O 0.05370(7) -0.44626(6) -0.17085(6)
O2I O 0.07976(7) -0.43831(7) -0.09424(6)
C1B C 0.17124(8) -0.22720(8) -0.23825(9)
H1B H 0.1443 -0.2375 -0.2563
C2B C 0.19719(8) -0.18490(8) -0.25358(8)
C3B C 0.18228(9) -0.15805(9) -0.29756(8)
C4B C 0.13246(9) -0.15391(10) -0.31084(9)
H2B H 0.1087 -0.1684 -0.2914
C5B C 0.11882(9) -0.12877(9) -0.35194(10)
H3B H 0.0860 -0.1271 -0.3607
C6B C 0.15402(9) -0.10570(8) -0.38070(9)
C7B C 0.20258(8) -0.11037(8) -0.36882(8)
H4B H 0.2261 -0.0965 -0.3890
C8B C 0.21694(8) -0.13539(9) -0.32729(9)
H5B H 0.2499 -0.1371 -0.3192
C9B C 0.13885(9) -0.07653(9) -0.42463(9)
O1B O 0.17085(6) -0.05370(7) -0.44626(6)
O2B O 0.09424(6) -0.07976(7) -0.43831(7)
Co1H Co 0.054877(16) 0.5000 0.059143(17)
Co2H Co -0.0000 0.5000 0.16879(2)
O3H O 0.10111(12) 0.5000 0.0000
O4H O 0.0000 0.5000 0.0000
O5H O 0.0000 0.5000 0.08965(11)
O6H O -0.0000 0.5000 0.24406(12)
C1J C -0.22720(8) 0.23825(9) -0.17124(8)
H1J H -0.2375 0.2563 -0.1443
C2J C -0.18490(8) 0.25358(8) -0.19719(8)
C3J C -0.15805(9) 0.29756(8) -0.18228(9)
C4J C -0.15391(10) 0.31084(9) -0.13246(9)
H2J H -0.1684 0.2914 -0.1087
C5J C -0.12877(9) 0.35194(10) -0.11882(9)
H3J H -0.1271 0.3607 -0.0860
C6J C -0.10570(8) 0.38070(9) -0.15402(9)
C7J C -0.11037(8) 0.36882(8) -0.20258(8)
H4J H -0.0965 0.3890 -0.2261
C8J C -0.13539(9) 0.32729(9) -0.21694(8)
H5J H -0.1371 0.3192 -0.2499
C9J C -0.07653(9) 0.42463(9) -0.13885(9)
Co1J Co -0.054877(16) 0.5000 -0.059143(17)
Co2I Co -0.0000 0.5000 -0.16879(2)
O1J O -0.05370(7) 0.44626(6) -0.17085(6)
O2J O -0.07976(7) 0.43831(7) -0.09424(6)
O3J O -0.10111(12) 0.5000 0.0000
O5I O 0.0000 0.5000 -0.08965(11)
O6I O 0.0000 0.5000 -0.24406(12)
C1C C -0.17124(8) 0.22720(8) -0.23825(9)
H1C H -0.1443 0.2375 -0.2563
C2C C -0.19719(8) 0.18490(8) -0.25358(8)
C3C C -0.18228(9) 0.15805(9) -0.29756(8)
C4C C -0.13246(9) 0.15391(10) -0.31084(9)
H2C H -0.1087 0.1684 -0.2914
C5C C -0.11882(9) 0.12877(9) -0.35194(10)
H3C H -0.0860 0.1271 -0.3607
C6C C -0.15402(9) 0.10570(8) -0.38070(9)
C7C C -0.20258(8) 0.11037(8) -0.36882(8)
H4C H -0.2261 0.0965 -0.3890
C8C C -0.21694(8) 0.13539(9) -0.32729(9)
H5C H -0.2499 0.1371 -0.3192
C9C C -0.13885(9) 0.07653(9) -0.42463(9)
O1C O -0.17085(6) 0.05370(7) -0.44626(6)
O2C O -0.09424(6) 0.07976(7) -0.43831(7)
C1G C -0.23825(9) 0.17124(8) -0.22720(8)
H1G H -0.2563 0.1443 -0.2375
C2G C -0.25358(8) 0.19719(8) -0.18490(8)
C3G C -0.29756(8) 0.18228(9) -0.15805(9)
C4G C -0.31084(9) 0.13246(9) -0.15391(10)
H2G H -0.2914 0.1087 -0.1684
C5G C -0.35194(10) 0.11882(9) -0.12877(9)
H3G H -0.3607 0.0860 -0.1271
C6G C -0.38070(9) 0.15402(9) -0.10570(8)
C7G C -0.36882(8) 0.20258(8) -0.11037(8)
H4G H -0.3890 0.2261 -0.0965
C8G C -0.32729(9) 0.21694(8) -0.13539(9)
H5G H -0.3192 0.2499 -0.1371
C9G C -0.42463(9) 0.13885(9) -0.07653(9)
O1G O -0.44626(6) 0.17085(6) -0.05370(7)
O2G O -0.43831(7) 0.09424(6) -0.07976(7)
C1X C -0.17124(8) -0.22720(8) 0.76175(9)
H1X H -0.1443 -0.2375 0.7437
C2X C -0.19719(8) -0.18490(8) 0.74642(8)
C3X C -0.18228(9) -0.15805(9) 0.70244(8)
C4X C -0.13246(9) -0.15391(10) 0.68916(9)
H2X H -0.1087 -0.1684 0.7086
C5X C -0.11882(9) -0.12877(9) 0.64806(10)
H3X H -0.0860 -0.1271 0.6393
C6X C -0.15402(9) -0.10570(8) 0.61930(9)
C7X C -0.20258(8) -0.11037(8) 0.63118(8)
H4X H -0.2261 -0.0965 0.6110
C8X C -0.21694(8) -0.13539(9) 0.67271(9)
H5X H -0.2499 -0.1371 0.6808
C9X C -0.13885(9) -0.07653(9) 0.57537(9)
O1X O -0.17085(6) -0.05370(7) 0.55374(6)
O2X O -0.09424(6) -0.07976(7) 0.56169(7)
C1BA C -0.23825(9) -0.17124(8) 0.77280(8)
H1BA H -0.2563 -0.1443 0.7625
C2BA C -0.25358(8) -0.19719(8) 0.81510(8)
C3BA C -0.29756(8) -0.18228(9) 0.84195(9)
C4BA C -0.31084(9) -0.13246(9) 0.84609(10)
H2BA H -0.2914 -0.1087 0.8316
C5BA C -0.35194(10) -0.11882(9) 0.87123(9)
H3BA H -0.3607 -0.0860 0.8729
C6BA C -0.38070(9) -0.15402(9) 0.89430(8)
C7BA C -0.36882(8) -0.20258(8) 0.88963(8)
H4BA H -0.3890 -0.2261 0.9035
C8BA C -0.32729(9) -0.21694(8) 0.86461(9)
H5BA H -0.3192 -0.2499 0.8629
C9BA C -0.42463(9) -0.13885(9) 0.92347(9)
O1BA O -0.44626(6) -0.17085(6) 0.94630(7)
O2BA O -0.43831(7) -0.09424(6) 0.92024(7)
C1FA C -0.22720(8) -0.23825(9) 0.82876(8)
H1FA H -0.2375 -0.2563 0.8557
C2FA C -0.18490(8) -0.25358(8) 0.80281(8)
C3FA C -0.15805(9) -0.29756(8) 0.81772(9)
C4FA C -0.15391(10) -0.31084(9) 0.86754(9)
H2FA H -0.1684 -0.2914 0.8913
C5FA C -0.12877(9) -0.35194(10) 0.88118(9)
H3FA H -0.1271 -0.3607 0.9140
C6FA C -0.10570(8) -0.38070(9) 0.84598(9)
C7FA C -0.11037(8) -0.36882(8) 0.79742(8)
H4FA H -0.0965 -0.3890 0.7739
C8FA C -0.13539(9) -0.32729(9) 0.78306(8)
H5FA H -0.1371 -0.3192 0.7501
C9FA C -0.07653(9) -0.42463(9) 0.86115(9)
O1FA O -0.05370(7) -0.44626(6) 0.82915(6)
O2FA O -0.07976(7) -0.43831(7) 0.90576(6)
C1Y C 0.17124(8) 0.22720(8) 0.76175(9)
H1Y H 0.1443 0.2375 0.7437
C2Y C 0.19719(8) 0.18490(8) 0.74642(8)
C3Y C 0.18228(9) 0.15805(9) 0.70244(8)
C4Y C 0.13246(9) 0.15391(10) 0.68916(9)
H2Y H 0.1087 0.1684 0.7086
C5Y C 0.11882(9) 0.12877(9) 0.64806(10)
H3Y H 0.0860 0.1271 0.6393
C6Y C 0.15402(9) 0.10570(8) 0.61930(9)
C7Y C 0.20258(8) 0.11037(8) 0.63118(8)
H4Y H 0.2261 0.0965 0.6110
C8Y C 0.21694(8) 0.13539(9) 0.67271(9)
H5Y H 0.2499 0.1371 0.6808
C9Y C 0.13885(9) 0.07653(9) 0.57537(9)
O1Y O 0.17085(6) 0.05370(7) 0.55374(6)
O2Y O 0.09424(6) 0.07976(7) 0.56169(7)
C1CA C 0.23825(9) 0.17124(8) 0.77280(8)
H1CA H 0.2563 0.1443 0.7625
C2CA C 0.25358(8) 0.19719(8) 0.81510(8)
C3CA C 0.29756(8) 0.18228(9) 0.84195(9)
C4CA C 0.31084(9) 0.13246(9) 0.84609(10)
H2CA H 0.2914 0.1087 0.8316
C5CA C 0.35194(10) 0.11882(9) 0.87123(9)
H3CA H 0.3607 0.0860 0.8729
C6CA C 0.38070(9) 0.15402(9) 0.89430(8)
C7CA C 0.36882(8) 0.20258(8) 0.88963(8)
H4CA H 0.3890 0.2261 0.9035
C8CA C 0.32729(9) 0.21694(8) 0.86461(9)
H5CA H 0.3192 0.2499 0.8629
C9CA C 0.42463(9) 0.13885(9) 0.92347(9)
O1CA O 0.44626(6) 0.17085(6) 0.94630(7)
O2CA O 0.43831(7) 0.09424(6) 0.92024(7)
C1IA C 0.22720(8) 0.23825(9) 0.82876(8)
H1IA H 0.2375 0.2563 0.8557
C2IA C 0.18490(8) 0.25358(8) 0.80281(8)
C3IA C 0.15805(9) 0.29756(8) 0.81772(9)
C4IA C 0.15391(10) 0.31084(9) 0.86754(9)
H2IA H 0.1684 0.2914 0.8913
C5IA C 0.12877(9) 0.35194(10) 0.88118(9)
H3IA H 0.1271 0.3607 0.9140
C6IA C 0.10570(8) 0.38070(9) 0.84598(9)
C7IA C 0.11037(8) 0.36882(8) 0.79742(8)
H4IA H 0.0965 0.3890 0.7739
C8IA C 0.13539(9) 0.32729(9) 0.78306(8)
H5IA H 0.1371 0.3192 0.7501
C9IA C 0.07653(9) 0.42463(9) 0.86115(9)
O1IA O 0.05370(7) 0.44626(6) 0.82915(6)
O2IA O 0.07976(7) 0.43831(7) 0.90576(6)
C1Z C -0.17124(8) 0.22720(8) 0.23825(9)
H1Z H -0.1443 0.2375 0.2563
C2Z C -0.19719(8) 0.18490(8) 0.25358(8)
C3Z C -0.18228(9) 0.15805(9) 0.29756(8)
C4Z C -0.13246(9) 0.15391(10) 0.31084(9)
H2Z H -0.1087 0.1684 0.2914
C5Z C -0.11882(9) 0.12877(9) 0.35194(10)
H3Z H -0.0860 0.1271 0.3607
C6Z C -0.15402(9) 0.10570(8) 0.38070(9)
C7Z C -0.20258(8) 0.11037(8) 0.36882(8)
H4Z H -0.2261 0.0965 0.3890
C8Z C -0.21694(8) 0.13539(9) 0.32729(9)
H5Z H -0.2499 0.1371 0.3192
C9Z C -0.13885(9) 0.07653(9) 0.42463(9)
O1Z O -0.17085(6) 0.05370(7) 0.44626(6)
O2Z O -0.09424(6) 0.07976(7) 0.43831(7)
C1DA C -0.23825(9) 0.17124(8) 0.22720(8)
H1DA H -0.2563 0.1443 0.2375
C2DA C -0.25358(8) 0.19719(8) 0.18490(8)
C3DA C -0.29756(8) 0.18228(9) 0.15805(9)
C4DA C -0.31084(9) 0.13246(9) 0.15391(10)
H2DA H -0.2914 0.1087 0.1684
C5DA C -0.35194(10) 0.11882(9) 0.12877(9)
H3DA H -0.3607 0.0860 0.1271
C6DA C -0.38070(9) 0.15402(9) 0.10570(8)
C7DA C -0.36882(8) 0.20258(8) 0.11037(8)
H4DA H -0.3890 0.2261 0.0965
C8DA C -0.32729(9) 0.21694(8) 0.13539(9)
H5DA H -0.3192 0.2499 0.1371
C9DA C -0.42463(9) 0.13885(9) 0.07653(9)
O1DA O -0.44626(6) 0.17085(6) 0.05370(7)
O2DA O -0.43831(7) 0.09424(6) 0.07976(7)
C1GA C -0.22720(8) 0.23825(9) 0.17124(8)
H1GA H -0.2375 0.2563 0.1443
C2GA C -0.18490(8) 0.25358(8) 0.19719(8)
C3GA C -0.15805(9) 0.29756(8) 0.18228(9)
C4GA C -0.15391(10) 0.31084(9) 0.13246(9)
H2GA H -0.1684 0.2914 0.1087
C5GA C -0.12877(9) 0.35194(10) 0.11882(9)
H3GA H -0.1271 0.3607 0.0860
C6GA C -0.10570(8) 0.38070(9) 0.15402(9)
C7GA C -0.11037(8) 0.36882(8) 0.20258(8)
H4GA H -0.0965 0.3890 0.2261
C8GA C -0.13539(9) 0.32729(9) 0.21694(8)
H5GA H -0.1371 0.3192 0.2499
C9GA C -0.07653(9) 0.42463(9) 0.13885(9)
O1GA O -0.05370(7) 0.44626(6) 0.17085(6)
O2GA O -0.07976(7) 0.43831(7) 0.09424(6)
C1AA C 0.17124(8) -0.22720(8) 0.23825(9)
H1AA H 0.1443 -0.2375 0.2563
C2AA C 0.19719(8) -0.18490(8) 0.25358(8)
C3AA C 0.18228(9) -0.15805(9) 0.29756(8)
C4AA C 0.13246(9) -0.15391(10) 0.31084(9)
H2AA H 0.1087 -0.1684 0.2914
C5AA C 0.11882(9) -0.12877(9) 0.35194(10)
H3AA H 0.0860 -0.1271 0.3607
C6AA C 0.15402(9) -0.10570(8) 0.38070(9)
C7AA C 0.20258(8) -0.11037(8) 0.36882(8)
H4AA H 0.2261 -0.0965 0.3890
C8AA C 0.21694(8) -0.13539(9) 0.32729(9)
H5AA H 0.2499 -0.1371 0.3192
C9AA C 0.13885(9) -0.07653(9) 0.42463(9)
O1AA O 0.17085(6) -0.05370(7) 0.44626(6)
O2AA O 0.09424(6) -0.07976(7) 0.43831(7)
C1EA C 0.23825(9) -0.17124(8) 0.22720(8)
H1EA H 0.2563 -0.1443 0.2375
C2EA C 0.25358(8) -0.19719(8) 0.18490(8)
C3EA C 0.29756(8) -0.18228(9) 0.15805(9)
C4EA C 0.31084(9) -0.13246(9) 0.15391(10)
H2EA H 0.2914 -0.1087 0.1684
C5EA C 0.35194(10) -0.11882(9) 0.12877(9)
H3EA H 0.3607 -0.0860 0.1271
C6EA C 0.38070(9) -0.15402(9) 0.10570(8)
C7EA C 0.36882(8) -0.20258(8) 0.11037(8)
H4EA H 0.3890 -0.2261 0.0965
C8EA C 0.32729(9) -0.21694(8) 0.13539(9)
H5EA H 0.3192 -0.2499 0.1371
C9EA C 0.42463(9) -0.13885(9) 0.07653(9)
O1EA O 0.44626(6) -0.17085(6) 0.05370(7)
O2EA O 0.43831(7) -0.09424(6) 0.07976(7)
C1HA C 0.22720(8) -0.23825(9) 0.17124(8)
H1HA H 0.2375 -0.2563 0.1443
C2HA C 0.18490(8) -0.25358(8) 0.19719(8)
C3HA C 0.15805(9) -0.29756(8) 0.18228(9)
C4HA C 0.15391(10) -0.31084(9) 0.13246(9)
H2HA H 0.1684 -0.2914 0.1087
C5HA C 0.12877(9) -0.35194(10) 0.11882(9)
H3HA H 0.1271 -0.3607 0.0860
C6HA C 0.10570(8) -0.38070(9) 0.15402(9)
C7HA C 0.11037(8) -0.36882(8) 0.20258(8)
H4HA H 0.0965 -0.3890 0.2261
C8HA C 0.13539(9) -0.32729(9) 0.21694(8)
H5HA H 0.1371 -0.3192 0.2499
C9HA C 0.07653(9) -0.42463(9) 0.13885(9)
O1HA O 0.05370(7) -0.44626(6) 0.17085(6)
O2HA O 0.07976(7) -0.43831(7) 0.09424(6)
Co1G Co 0.5000 0.059143(17) -0.054877(16)
Co1G_2 Co 0.5000 0.059143(17) 0.945123(16)
Co1D_2 Co -0.5000 0.059143(17) 0.054877(16)
Co1I Co 0.054877(16) 0.5000 0.940857(17)
Co1B_2 Co 0.059143(17) -0.054877(16) -0.5000
Co1C_2 Co -0.059143(17) 0.054877(16) -0.5000
Co1E Co -0.5000 -0.059143(17) 0.054877(16)
Co1E_2 Co 0.5000 -0.059143(17) 0.054877(16)
Co1F_2 Co -0.5000 -0.059143(17) 0.945123(16)
Co1G_3 Co -0.5000 0.059143(17) -0.054877(16)
Co1H_2 Co 0.054877(16) -0.5000 0.059143(17)
Co1I_2 Co 0.054877(16) -0.5000 -0.059143(17)
Co1I_3 Co 0.054877(16) 0.5000 -0.059143(17)
Co1J_2 Co -0.054877(16) -0.5000 0.940857(17)
Co1K Co -0.054877(16) -0.5000 0.059143(17)
Co1K_2 Co -0.054877(16) 0.5000 0.059143(17)
Co2_2 Co 0.16879(2) 0.0000 -0.5000
Co2A_2 Co -0.16879(2) 0.0000 -0.5000
Co2D_2 Co -0.5000 0.16879(2) 0.0000
Co2D_3 Co 0.5000 0.16879(2) 1.0000
Co2E_2 Co -0.5000 -0.16879(2) 0.0000
Co2E_3 Co -0.5000 -0.16879(2) 1.0000
Co2H_2 Co 0.0000 -0.5000 0.16879(2)
Co2I_2 Co 0.0000 -0.5000 -0.16879(2)
Co2I_3 Co -0.0000 -0.5000 0.83121(2)
Co2I_4 Co -0.0000 0.5000 0.83121(2)
O1B_2 O 0.17085(6) -0.05370(7) 0.55374(6)
O1C_2 O -0.17085(6) 0.05370(7) 0.55374(6)
O1E_2 O 0.55374(6) -0.17085(6) 0.05370(7)
O1G_2 O 0.55374(6) 0.17085(6) -0.05370(7)
O1I_2 O 0.05370(7) 0.55374(6) -0.17085(6)
O1K_2 O -0.05370(7) 0.55374(6) 0.17085(6)
O1BA_2 O 0.55374(6) -0.17085(6) -0.05370(7)
O1CA_2 O 0.44626(6) 0.17085(6) -0.05370(7)
O1DA_2 O 0.55374(6) 0.17085(6) 0.05370(7)
O1FA_2 O -0.05370(7) 0.55374(6) -0.17085(6)
O1HA_2 O 0.05370(7) 0.55374(6) 0.17085(6)
O1IA_2 O 0.05370(7) 0.44626(6) -0.17085(6)
O2B_2 O 0.09424(6) -0.07976(7) 0.56169(7)
O2C_2 O -0.09424(6) 0.07976(7) 0.56169(7)
O2D_2 O -0.56169(7) 0.09424(6) 0.07976(7)
O2G_2 O 0.56169(7) 0.09424(6) -0.07976(7)
O2G_3 O 0.56169(7) 0.09424(6) 0.92024(7)
O2I_2 O 0.07976(7) 0.56169(7) 0.90576(6)
O2BA_2 O 0.56169(7) -0.09424(6) -0.07976(7)
O2CA_2 O 0.43831(7) 0.09424(6) -0.07976(7)
O2DA_2 O 0.56169(7) 0.09424(6) 0.07976(7)
O2FA_2 O -0.07976(7) 0.56169(7) -0.09424(6)
O2HA_2 O 0.07976(7) 0.56169(7) 0.09424(6)
O3D_2 O -0.5000 0.0000 0.10111(12)
O3F_2 O 0.5000 -0.0000 0.89889(12)
O3H_2 O 0.10111(12) 0.5000 1.0000
O4D_2 O -0.5000 0.0000 0.0000
O4D_3 O 0.5000 0.0000 1.0000
O4H_2 O -0.0000 0.5000 1.0000
O5D_2 O -0.5000 0.08965(11) 0.0000
O5D_3 O 0.5000 0.08965(11) 1.0000
O5I_2 O -0.0000 0.5000 0.91035(11)
loop_
_geom_bond_atom_site_label_1
_geom_bond_atom_site_label_2
_geom_bond_site_symmetry_1
_geom_bond_site_symmetry_2
C1 H1 1_555 1_555
C2 C1 1_555 1_555
C3 C2 1_555 1_555
C4 C3 1_555 1_555
H2 C4 1_555 1_555
C5 C4 1_555 1_555
H3 C5 1_555 1_555
C6 C5 1_555 1_555
C7 C6 1_555 1_555
H4 C7 1_555 1_555
C8 C3 1_555 1_555
H5 C8 1_555 1_555
C9 C6 1_555 1_555
Co1 O2 1_555 1_555
Co2 O1 1_555 1_555
O1 C9 1_555 1_555
O2 C9 1_555 1_555
O3 Co1 1_555 1_555
O4 Co1 1_555 1_555
O5 Co1 1_555 1_555
O6 Co2 1_555 1_555
C1D C2 1_555 1_555
H1D C1D 1_555 1_555
C2D C1D 1_555 1_555
C3D C2D 1_555 1_555
C4D C3D 1_555 1_555
H2D C4D 1_555 1_555
C5D C4D 1_555 1_555
H3D C5D 1_555 1_555
C6D C5D 1_555 1_555
C7D C6D 1_555 1_555
H4D C7D 1_555 1_555
C8D C3D 1_555 1_555
H5D C8D 1_555 1_555
C9D C6D 1_555 1_555
O1D C9D 1_555 1_555
O2D C9D 1_555 1_555
C1H C2D 1_555 1_555
H1H C1H 1_555 1_555
C2H C1 1_555 1_555
C3H C2H 1_555 1_555
C4H C3H 1_555 1_555
H2H C4H 1_555 1_555
C5H C4H 1_555 1_555
H3H C5H 1_555 1_555
C6H C5H 1_555 1_555
C7H C6H 1_555 1_555
H4H C7H 1_555 1_555
C8H C3H 1_555 1_555
H5H C8H 1_555 1_555
C9H C6H 1_555 1_555
O1H C9H 1_555 1_555
O2H C9H 1_555 1_555
C1A H1A 1_555 1_555
C2A C1A 1_555 1_555
C3A C2A 1_555 1_555
C4A C3A 1_555 1_555
H2A C4A 1_555 1_555
C5A C4A 1_555 1_555
H3A C5A 1_555 1_555
C6A C5A 1_555 1_555
C7A C6A 1_555 1_555
H4A C7A 1_555 1_555
C8A C3A 1_555 1_555
H5A C8A 1_555 1_555
C9A C6A 1_555 1_555
Co1A O4 1_555 1_555
Co2A O1A 1_555 1_555
O1A C9A 1_555 1_555
O2A C9A 1_555 1_555
O3A Co1A 1_555 1_555
O5A Co1A 1_555 1_555
O6A Co2A 1_555 1_555
C1E C2A 1_555 1_555
H1E C1E 1_555 1_555
C2E C1E 1_555 1_555
C3E C2E 1_555 1_555
C4E C3E 1_555 1_555
H2E C4E 1_555 1_555
C5E C4E 1_555 1_555
H3E C5E 1_555 1_555
C6E C5E 1_555 1_555
C7E C6E 1_555 1_555
H4E C7E 1_555 1_555
C8E C3E 1_555 1_555
H5E C8E 1_555 1_555
C9E C6E 1_555 1_555
O1E C9E 1_555 1_555
O2E C9E 1_555 1_555
C1K C2E 1_555 1_555
H1K C1K 1_555 1_555
C2K C1A 1_555 1_555
C3K C2K 1_555 1_555
C4K C3K 1_555 1_555
H2K C4K 1_555 1_555
C5K C4K 1_555 1_555
H3K C5K 1_555 1_555
C6K C5K 1_555 1_555
C7K C6K 1_555 1_555
H4K C7K 1_555 1_555
C8K C3K 1_555 1_555
H5K C8K 1_555 1_555
C9K C6K 1_555 1_555
O1K C9K 1_555 1_555
O2K C9K 1_555 1_555
Co1B O4 1_555 1_555
Co1C O3 1_555 1_555
Co1D O2D 1_555 1_555
Co2D O1D 1_555 1_555
O3D Co1D 1_555 1_555
O4D Co1D 1_555 1_555
O5D Co1D 1_555 1_555
O6D Co2D 1_555 1_555
C1F H1F 1_555 1_555
C2F C1F 1_555 1_555
C3F C2F 1_555 1_555
C4F C3F 1_555 1_555
H2F C4F 1_555 1_555
C5F C4F 1_555 1_555
H3F C5F 1_555 1_555
C6F C5F 1_555 1_555
C7F C6F 1_555 1_555
H4F C7F 1_555 1_555
C8F C3F 1_555 1_555
H5F C8F 1_555 1_555
C9F C6F 1_555 1_555
Co1F O4D 1_555 1_555
Co2E O1F 1_555 1_555
O1F C9F 1_555 1_555
O2F C9F 1_555 1_555
O3F Co1F 1_555 1_555
O5E Co1F 1_555 1_555
O6E Co2E 1_555 1_555
C1I C2F 1_555 1_555
H1I C1I 1_555 1_555
C2I C1I 1_555 1_555
C3I C2I 1_555 1_555
C4I C3I 1_555 1_555
H2I C4I 1_555 1_555
C5I C4I 1_555 1_555
H3I C5I 1_555 1_555
C6I C5I 1_555 1_555
C7I C6I 1_555 1_555
H4I C7I 1_555 1_555
C8I C3I 1_555 1_555
H5I C8I 1_555 1_555
C9I C6I 1_555 1_555
O1I C9I 1_555 1_555
O2I C9I 1_555 1_555
C1B C2I 1_555 1_555
H1B C1B 1_555 1_555
C2B C1F 1_555 1_555
C3B C2B 1_555 1_555
C4B C3B 1_555 1_555
H2B C4B 1_555 1_555
C5B C4B 1_555 1_555
H3B C5B 1_555 1_555
C6B C5B 1_555 1_555
C7B C6B 1_555 1_555
H4B C7B 1_555 1_555
C8B C3B 1_555 1_555
H5B C8B 1_555 1_555
C9B C6B 1_555 1_555
O1B C9B 1_555 1_555
O2B C9B 1_555 1_555
Co1H O2H 1_555 1_555
Co2H O1H 1_555 1_555
O3H Co1H 1_555 1_555
O4H Co1H 1_555 1_555
O5H Co1H 1_555 1_555
O6H Co2H 1_555 1_555
C1J H1J 1_555 1_555
C2J C1J 1_555 1_555
C3J C2J 1_555 1_555
C4J C3J 1_555 1_555
H2J C4J 1_555 1_555
C5J C4J 1_555 1_555
H3J C5J 1_555 1_555
C6J C5J 1_555 1_555
C7J C6J 1_555 1_555
H4J C7J 1_555 1_555
C8J C3J 1_555 1_555
H5J C8J 1_555 1_555
C9J C6J 1_555 1_555
Co1J O4H 1_555 1_555
Co2I O1J 1_555 1_555
O1J C9J 1_555 1_555
O2J C9J 1_555 1_555
O3J Co1J 1_555 1_555
O5I Co1J 1_555 1_555
O6I Co2I 1_555 1_555
C1C C2J 1_555 1_555
H1C C1C 1_555 1_555
C2C C1C 1_555 1_555
C3C C2C 1_555 1_555
C4C C3C 1_555 1_555
H2C C4C 1_555 1_555
C5C C4C 1_555 1_555
H3C C5C 1_555 1_555
C6C C5C 1_555 1_555
C7C C6C 1_555 1_555
H4C C7C 1_555 1_555
C8C C3C 1_555 1_555
H5C C8C 1_555 1_555
C9C C6C 1_555 1_555
O1C C9C 1_555 1_555
O2C C9C 1_555 1_555
C1G C2C 1_555 1_555
H1G C1G 1_555 1_555
C2G C1J 1_555 1_555
C3G C2G 1_555 1_555
C4G C3G 1_555 1_555
H2G C4G 1_555 1_555
C5G C4G 1_555 1_555
H3G C5G 1_555 1_555
C6G C5G 1_555 1_555
C7G C6G 1_555 1_555
H4G C7G 1_555 1_555
C8G C3G 1_555 1_555
H5G C8G 1_555 1_555
C9G C6G 1_555 1_555
O1G C9G 1_555 1_555
O2G C9G 1_555 1_555
C1X H1X 1_555 1_555
C2X C1X 1_555 1_555
C3X C2X 1_555 1_555
C4X C3X 1_555 1_555
H2X C4X 1_555 1_555
C5X C4X 1_555 1_555
H3X C5X 1_555 1_555
C6X C5X 1_555 1_555
C7X C6X 1_555 1_555
H4X C7X 1_555 1_555
C8X C3X 1_555 1_555
H5X C8X 1_555 1_555
C9X C6X 1_555 1_555
O1X Co2A 1_555 1_555
O2X Co1A 1_555 1_555
C1BA C2X 1_555 1_555
H1BA C1BA 1_555 1_555
C2BA C1BA 1_555 1_555
C3BA C2BA 1_555 1_555
C4BA C3BA 1_555 1_555
H2BA C4BA 1_555 1_555
C5BA C4BA 1_555 1_555
H3BA C5BA 1_555 1_555
C6BA C5BA 1_555 1_555
C7BA C6BA 1_555 1_555
H4BA C7BA 1_555 1_555
C8BA C3BA 1_555 1_555
H5BA C8BA 1_555 1_555
C9BA C6BA 1_555 1_555
O1BA C9BA 1_555 1_555
O2BA C9BA 1_555 1_555
C1FA C2BA 1_555 1_555
H1FA C1FA 1_555 1_555
C2FA C1X 1_555 1_555
C3FA C2FA 1_555 1_555
C4FA C3FA 1_555 1_555
H2FA C4FA 1_555 1_555
C5FA C4FA 1_555 1_555
H3FA C5FA 1_555 1_555
C6FA C5FA 1_555 1_555
C7FA C6FA 1_555 1_555
H4FA C7FA 1_555 1_555
C8FA C3FA 1_555 1_555
H5FA C8FA 1_555 1_555
C9FA C6FA 1_555 1_555
O1FA C9FA 1_555 1_555
O2FA C9FA 1_555 1_555
C1Y H1Y 1_555 1_555
C2Y C1Y 1_555 1_555
C3Y C2Y 1_555 1_555
C4Y C3Y 1_555 1_555
H2Y C4Y 1_555 1_555
C5Y C4Y 1_555 1_555
H3Y C5Y 1_555 1_555
C6Y C5Y 1_555 1_555
C7Y C6Y 1_555 1_555
H4Y C7Y 1_555 1_555
C8Y C3Y 1_555 1_555
H5Y C8Y 1_555 1_555
C9Y C6Y 1_555 1_555
O1Y Co2 1_555 1_555
O2Y Co1 1_555 1_555
C1CA C2Y 1_555 1_555
H1CA C1CA 1_555 1_555
C2CA C1CA 1_555 1_555
C3CA C2CA 1_555 1_555
C4CA C3CA 1_555 1_555
H2CA C4CA 1_555 1_555
C5CA C4CA 1_555 1_555
H3CA C5CA 1_555 1_555
C6CA C5CA 1_555 1_555
C7CA C6CA 1_555 1_555
H4CA C7CA 1_555 1_555
C8CA C3CA 1_555 1_555
H5CA C8CA 1_555 1_555
C9CA C6CA 1_555 1_555
O1CA C9CA 1_555 1_555
O2CA C9CA 1_555 1_555
C1IA C2CA 1_555 1_555
H1IA C1IA 1_555 1_555
C2IA C1Y 1_555 1_555
C3IA C2IA 1_555 1_555
C4IA C3IA 1_555 1_555
H2IA C4IA 1_555 1_555
C5IA C4IA 1_555 1_555
H3IA C5IA 1_555 1_555
C6IA C5IA 1_555 1_555
C7IA C6IA 1_555 1_555
H4IA C7IA 1_555 1_555
C8IA C3IA 1_555 1_555
H5IA C8IA 1_555 1_555
C9IA C6IA 1_555 1_555
O1IA C9IA 1_555 1_555
O2IA C9IA 1_555 1_555
C1Z H1Z 1_555 1_555
C2Z C1Z 1_555 1_555
C3Z C2Z 1_555 1_555
C4Z C3Z 1_555 1_555
H2Z C4Z 1_555 1_555
C5Z C4Z 1_555 1_555
H3Z C5Z 1_555 1_555
C6Z C5Z 1_555 1_555
C7Z C6Z 1_555 1_555
H4Z C7Z 1_555 1_555
C8Z C3Z 1_555 1_555
H5Z C8Z 1_555 1_555
C9Z C6Z 1_555 1_555
O1Z Co2A 1_555 1_555
O2Z Co1C 1_555 1_555
C1DA C2Z 1_555 1_555
H1DA C1DA 1_555 1_555
C2DA C1DA 1_555 1_555
C3DA C2DA 1_555 1_555
C4DA C3DA 1_555 1_555
H2DA C4DA 1_555 1_555
C5DA C4DA 1_555 1_555
H3DA C5DA 1_555 1_555
C6DA C5DA 1_555 1_555
C7DA C6DA 1_555 1_555
H4DA C7DA 1_555 1_555
C8DA C3DA 1_555 1_555
H5DA C8DA 1_555 1_555
C9DA C6DA 1_555 1_555
O1DA C9DA 1_555 1_555
O2DA C9DA 1_555 1_555
C1GA C2DA 1_555 1_555
H1GA C1GA 1_555 1_555
C2GA C1Z 1_555 1_555
C3GA C2GA 1_555 1_555
C4GA C3GA 1_555 1_555
H2GA C4GA 1_555 1_555
C5GA C4GA 1_555 1_555
H3GA C5GA 1_555 1_555
C6GA C5GA 1_555 1_555
C7GA C6GA 1_555 1_555
H4GA C7GA 1_555 1_555
C8GA C3GA 1_555 1_555
H5GA C8GA 1_555 1_555
C9GA C6GA 1_555 1_555
O1GA Co2H 1_555 1_555
O2GA C9GA 1_555 1_555
C1AA H1AA 1_555 1_555
C2AA C1AA 1_555 1_555
C3AA C2AA 1_555 1_555
C4AA C3AA 1_555 1_555
H2AA C4AA 1_555 1_555
C5AA C4AA 1_555 1_555
H3AA C5AA 1_555 1_555
C6AA C5AA 1_555 1_555
C7AA C6AA 1_555 1_555
H4AA C7AA 1_555 1_555
C8AA C3AA 1_555 1_555
H5AA C8AA 1_555 1_555
C9AA C6AA 1_555 1_555
O1AA Co2 1_555 1_555
O2AA Co1B 1_555 1_555
C1EA C2AA 1_555 1_555
H1EA C1EA 1_555 1_555
C2EA C1EA 1_555 1_555
C3EA C2EA 1_555 1_555
C4EA C3EA 1_555 1_555
H2EA C4EA 1_555 1_555
C5EA C4EA 1_555 1_555
H3EA C5EA 1_555 1_555
C6EA C5EA 1_555 1_555
C7EA C6EA 1_555 1_555
H4EA C7EA 1_555 1_555
C8EA C3EA 1_555 1_555
H5EA C8EA 1_555 1_555
C9EA C6EA 1_555 1_555
O1EA Co2E 1_555 1_555
O2EA C9EA 1_555 1_555
C1HA C2EA 1_555 1_555
H1HA C1HA 1_555 1_555
C2HA C1AA 1_555 1_555
C3HA C2HA 1_555 1_555
C4HA C3HA 1_555 1_555
H2HA C4HA 1_555 1_555
C5HA C4HA 1_555 1_555
H3HA C5HA 1_555 1_555
C6HA C5HA 1_555 1_555
C7HA C6HA 1_555 1_555
H4HA C7HA 1_555 1_555
C8HA C3HA 1_555 1_555
H5HA C8HA 1_555 1_555
C9HA C6HA 1_555 1_555
O1HA C9HA 1_555 1_555
O2HA C9HA 1_555 1_555
Co1G O4D 1_555 1_555
Co1G_2 O2CA 1_555 1_555
Co1D_2 O2DA 1_555 1_555
Co1I O2IA 1_555 1_555
Co1B_2 O2B 1_555 1_555
Co1C_2 O2C 1_555 1_555
Co1E O2E 1_555 1_555
Co1E_2 O3D 1_555 1_555
Co1F_2 O2BA 1_555 1_555
Co1G_3 O2G 1_555 1_555
Co1H_2 O2HA 1_555 1_555
Co1I_2 O2I 1_555 1_555
Co1I_3 O3H 1_555 1_555
Co1J_2 O2FA 1_555 1_555
Co1K O2K 1_555 1_555
Co1K_2 O4H 1_555 1_555
Co2_2 O1B 1_555 1_555
Co2A_2 O1C 1_555 1_555
Co2D_2 O1G 1_555 1_555
Co2D_3 O1CA 1_555 1_555
Co2E_2 O1E 1_555 1_555
Co2E_3 O1BA 1_555 1_555
Co2H_2 O1K 1_555 1_555
Co2I_2 O1I 1_555 1_555
Co2I_3 O1FA 1_555 1_555
Co2I_4 O1IA 1_555 1_555
O1B_2 Co2 1_555 1_555
O1C_2 Co2A 1_555 1_555
O1E_2 Co2E 1_555 1_555
O1G_2 Co2D 1_555 1_555
O1I_2 Co2I 1_555 1_555
O1K_2 Co2H 1_555 1_555
O1BA_2 Co2E 1_555 1_555
O1CA_2 Co2D 1_555 1_555
O1DA_2 Co2D 1_555 1_555
O1FA_2 Co2I 1_555 1_555
O1HA_2 Co2H 1_555 1_555
O1IA_2 Co2I 1_555 1_555
O2B_2 Co1B 1_555 1_555
O2C_2 Co1C 1_555 1_555
O2D_2 Co1D_2 1_555 1_555
O2G_2 Co1G 1_555 1_555
O2G_3 Co1G_2 1_555 1_555
O2I_2 Co1I 1_555 1_555
O2BA_2 Co1F 1_555 1_555
O2CA_2 Co1G 1_555 1_555
O2DA_2 Co1D 1_555 1_555
O2FA_2 Co1J 1_555 1_555
O2HA_2 Co1H 1_555 1_555
O3D_2 Co1D_2 1_555 1_555
O3F_2 Co1G_2 1_555 1_555
O3H_2 Co1I 1_555 1_555
O4D_2 Co1D_2 1_555 1_555
O4D_3 Co1G_2 1_555 1_555
O4H_2 Co1I 1_555 1_555
O5D_2 Co1D_2 1_555 1_555
O5D_3 Co1G_2 1_555 1_555
O5I_2 Co1I 1_555 1_555
C7 C8 1_555 1_555
Co2 O5 1_555 1_555
O4 Co1C 1_555 1_555
O5 Co1B 1_555 1_555
C7D C8D 1_555 1_555
C1H C2H 1_555 1_555
C7H C8H 1_555 1_555
C7A C8A 1_555 1_555
Co1A O2A 1_555 1_555
Co2A O5A 1_555 1_555
O3A Co1B 1_555 1_555
O5A Co1C 1_555 1_555
C7E C8E 1_555 1_555
C1K C2K 1_555 1_555
C7K C8K 1_555 1_555
Co2D O5D 1_555 1_555
O4D Co1E_2 1_555 1_555
O5D Co1G 1_555 1_555
C7F C8F 1_555 1_555
Co1F O2F 1_555 1_555
Co2E O5E 1_555 1_555
O3F Co1G 1_555 1_555
O5E Co1E_2 1_555 1_555
C7I C8I 1_555 1_555
C1B C2B 1_555 1_555
C7B C8B 1_555 1_555
Co2H O5H 1_555 1_555
O4H Co1I_3 1_555 1_555
O5H Co1K_2 1_555 1_555
C7J C8J 1_555 1_555
Co1J O2J 1_555 1_555
Co2I O5I 1_555 1_555
O3J Co1K_2 1_555 1_555
O5I Co1I_3 1_555 1_555
C7C C8C 1_555 1_555
C1G C2G 1_555 1_555
C7G C8G 1_555 1_555
C7X C8X 1_555 1_555
C9X O1X 1_555 1_555
C9X O2X 1_555 1_555
C7BA C8BA 1_555 1_555
C1FA C2FA 1_555 1_555
C7FA C8FA 1_555 1_555
C7Y C8Y 1_555 1_555
C9Y O1Y 1_555 1_555
C9Y O2Y 1_555 1_555
C7CA C8CA 1_555 1_555
C1IA C2IA 1_555 1_555
C7IA C8IA 1_555 1_555
C7Z C8Z 1_555 1_555
C9Z O1Z 1_555 1_555
C9Z O2Z 1_555 1_555
C7DA C8DA 1_555 1_555
O1DA Co2D_2 1_555 1_555
C1GA C2GA 1_555 1_555
C7GA C8GA 1_555 1_555
C9GA O1GA 1_555 1_555
O2GA Co1K_2 1_555 1_555
C7AA C8AA 1_555 1_555
C9AA O1AA 1_555 1_555
C9AA O2AA 1_555 1_555
C7EA C8EA 1_555 1_555
C9EA O1EA 1_555 1_555
O2EA Co1E_2 1_555 1_555
C1HA C2HA 1_555 1_555
C7HA C8HA 1_555 1_555
O1HA Co2H_2 1_555 1_555
Co1E O3D_2 1_555 1_555
Co1E O4D_2 1_555 1_555
Co1G_3 O4D_2 1_555 1_555
Co1G_3 O5D_2 1_555 1_555
Co2D_2 O5D_2 1_555 1_555
Co2D_3 O5D_3 1_555 1_555
Co2I_4 O5I_2 1_555 1_555

#END
