
#######################################################################
#
#                 Cambridge Crystallographic Data Centre
#                                CCDC 
#
#######################################################################
#
# If this CIF has been generated from an entry in the Cambridge 
# Structural Database, then it will include bibliographic, chemical, 
# crystal, experimental, refinement or atomic coordinate data resulting 
# from the CCDC's data processing and validation procedures.
#
#######################################################################

data_NIWZIE18
_chemical_formula_moiety         '(C3 H7 Mg1 N1 O6)n'
_symmetry_cell_setting           hexagonal
_symmetry_space_group_name_H-M   'P 63 2 2'
_symmetry_Int_Tables_number      182
_space_group_name_Hall           'P 6c 2c'
loop_
_symmetry_equiv_pos_site_id
_symmetry_equiv_pos_as_xyz
1 x,y,z
2 -y,x-y,z
3 -x+y,-x,z
4 -x,-y,1/2+z
5 y,-x+y,1/2+z
6 x-y,x,1/2+z
7 y,x,-z
8 x-y,-y,-z
9 -x,-x+y,-z
10 -y,-x,1/2-z
11 -x+y,y,1/2-z
12 x,x-y,1/2-z
_cell_length_a                   7.2840(2)
_cell_length_b                   7.2840(2)
_cell_length_c                   8.2088(4)
_cell_angle_alpha                90
_cell_angle_beta                 90
_cell_angle_gamma                120
_cell_volume                     377.181
loop_
_atom_site_label
_atom_site_type_symbol
_atom_site_fract_x
_atom_site_fract_y
_atom_site_fract_z
Mg1 Mg 0.3333 0.6667 0.2500
O1 O 0.10958(16) 0.68967(18) 0.10596(12)
C1 C 0.0000 0.5606(3) 0.0000
H1 H 0.0000 0.4329 0.0000
O1H O -0.10958(16) 0.58009(24) -0.10596(12)
O1A O 0.31033(18) 0.41991(24) 0.10596(12)
C1A C 0.4394(3) 0.4394(3) 0.0000
H1A H 0.5671 0.5671 0.0000
O1G O 0.41991(24) 0.31033(18) -0.10596(12)
O1B O 0.58009(24) 0.89042(16) 0.10596(12)
C1B C 0.5606(3) 1.0000 0.0000
H1B H 0.4329 1.0000 0.0000
O1F O 0.68967(18) 1.10958(16) -0.10596(12)
Mg1C Mg -0.3333 0.3333 -0.2500
Mg1C_2 Mg 0.6667 0.3333 -0.2500
Mg1C_3 Mg 0.6667 1.3333 -0.2500
O1I O 0.31033(18) 0.89042(16) 0.39404(12)
O1J O 0.58009(24) 0.68967(18) 0.39404(12)
O1K O 0.10958(16) 0.41991(24) 0.39404(12)
N1 N -0.0000 1.0000 0.2500
loop_
_geom_bond_atom_site_label_1
_geom_bond_atom_site_label_2
_geom_bond_site_symmetry_1
_geom_bond_site_symmetry_2
Mg1 O1 1_555 1_555
O1 C1 1_555 1_555
C1 H1 1_555 1_555
O1H C1 1_555 1_555
O1A Mg1 1_555 1_555
C1A O1A 1_555 1_555
H1A C1A 1_555 1_555
O1G C1A 1_555 1_555
O1B Mg1 1_555 1_555
C1B O1B 1_555 1_555
H1B C1B 1_555 1_555
O1F C1B 1_555 1_555
Mg1C O1H 1_555 1_555
Mg1C_2 O1G 1_555 1_555
Mg1C_3 O1F 1_555 1_555
O1I Mg1 1_555 1_555
O1J Mg1 1_555 1_555
O1K Mg1 1_555 1_555

#END
