
#######################################################################
#
#                 Cambridge Crystallographic Data Centre
#                                CCDC 
#
#######################################################################
#
# If this CIF has been generated from an entry in the Cambridge 
# Structural Database, then it will include bibliographic, chemical, 
# crystal, experimental, refinement or atomic coordinate data resulting 
# from the CCDC's data processing and validation procedures.
#
#######################################################################

data_NUJCEA
_chemical_formula_moiety         '(C22 H20 Cd2 N12 Ni2)n'
_symmetry_cell_setting           monoclinic
_symmetry_space_group_name_H-M   'P 1 1 21/n'
_symmetry_Int_Tables_number      14
_space_group_name_Hall           '-P 2n'
loop_
_symmetry_equiv_pos_site_id
_symmetry_equiv_pos_as_xyz
1 x,y,z
2 1/2-x,1/2-y,1/2+z
3 -x,-y,-z
4 1/2+x,1/2+y,1/2-z
_cell_length_a                   13.838(6)
_cell_length_b                   26.893(5)
_cell_length_c                   7.543(5)
_cell_angle_alpha                90
_cell_angle_beta                 90
_cell_angle_gamma                90.92(3)
_cell_volume                     2806.73
loop_
_atom_site_label
_atom_site_type_symbol
_atom_site_fract_x
_atom_site_fract_y
_atom_site_fract_z
Cd1 Cd 0.26592(5) -0.63040(2) 0.37952(9)
Cd2 Cd 0.19154(5) -0.36297(2) 0.37937(9)
Ni1 Ni 0.19669(9) -0.49994(3) -0.1277(2)
Ni2 Ni -0.00410(8) -0.76394(4) 0.2604(2)
N1 N 0.2220(8) -0.5785(3) 0.148(1)
N2 N 0.2097(7) -0.5773(3) 0.587(1)
N3 N 0.1302(6) -0.6816(3) 0.372(1)
N4 N 0.3342(6) -0.6838(3) 0.602(1)
N5 N 0.3266(7) -0.6861(3) 0.157(1)
N6 N 0.4288(7) -0.60757 0.338(1)
N7 N 0.2052(7) -0.4243(3) 0.163(1)
N8 N 0.1861(7) -0.4179(3) 0.604(1)
N9 N -0.1466(6) -0.8421(3) 0.130(1)
N10 N -0.1679(7) -0.7070(3) 0.420(1)
N11 N 0.1687(7) -0.3056(3) 0.144(1)
N12 N 0.0238(6) -0.3654(3) 0.326(1)
C5 C 0.2116(9) -0.5494(3) 0.044(1)
C6 C 0.2010(8) -0.5481(3) 0.694(1)
C7 C 0.0789(6) -0.7131(3) 0.333(1)
C8 C 0.3992(7) -0.7031(3) 0.664(1)
C9 C 0.2006(8) -0.4523(3) 0.051(1)
C10 C 0.1883(7) -0.4490(3) 0.704(1)
C11 C -0.0903(6) -0.8132(3) 0.181(1)
C12 C -0.1060(7) -0.7291(3) 0.358(1)
C13 C 0.429(1) -0.6788(6) 0.148(3)
C14 C 0.470(1) -0.6332(7) 0.189(3)
C15 C 0.580(1) -0.6270(6) 0.167(2)
C16 C 0.068(1) -0.3029(8) 0.114(3)
C17 C -0.0009(9) -0.3302(7) 0.187(2)
C18 C -0.1056(8) -0.3239(5) 0.147(2)
C6_2 C 0.2010(8) -0.5481(3) -0.306(1)
C8A C 0.1008(7) -0.7969(3) 0.164(1)
C10_2 C 0.1883(7) -0.4490(3) -0.296(1)
Ni1_2 Ni 0.19669(9) -0.49994(3) 0.8723(2)
Ni2A Ni 0.50410(8) -0.73606(4) 0.7604(2)
N9C N 0.3534(6) -0.3421(3) 0.370(1)
N10B N 0.1679(7) -0.2930(3) 0.580(1)
Cd2C Cd -0.30846(5) -0.86297(2) 0.12063(9)
Cd2B Cd -0.19154(5) -0.63703(2) 0.62063(9)
C1 C 0.513(2) -0.5174(6) 0.635(4)
C2 C 0.427(1) -0.5011(7) 0.609(5)
C3 C 0.601(2) -0.5138(9) 0.520(6)
C4 C 0.542(2) -0.5337(8) 0.770(4)
C3B C 0.399(2) -0.4862(9) 0.480(6)
C2B C 0.573(1) -0.4989(7) 0.391(5)
C1B C 0.487(2) -0.4826(6) 0.365(4)
C4B C 0.458(2) -0.4663(8) 0.230(4)
loop_
_geom_bond_atom_site_label_1
_geom_bond_atom_site_label_2
_geom_bond_site_symmetry_1
_geom_bond_site_symmetry_2
C1 C2 1_555 1_555
C2 C3B 1_555 1_555
C3 C1 1_555 1_555
C4 C1 1_555 1_555
Cd1 N1 1_555 1_555
Cd2 N7 1_555 1_555
Ni1 C5 1_555 1_555
Ni2 C7 1_555 1_555
N1 C5 1_555 1_555
N2 Cd1 1_555 1_555
N3 Cd1 1_555 1_555
N4 Cd1 1_555 1_555
N5 Cd1 1_555 1_555
N6 Cd1 1_555 1_555
N7 C9 1_555 1_555
N8 Cd2 1_555 1_555
N9 C11 1_555 1_555
N10 C12 1_555 1_555
N11 Cd2 1_555 1_555
N12 Cd2 1_555 1_555
C6 N2 1_555 1_555
C7 N3 1_555 1_555
C8 N4 1_555 1_555
C9 Ni1 1_555 1_555
C10 N8 1_555 1_555
C11 Ni2 1_555 1_555
C12 Ni2 1_555 1_555
C13 N5 1_555 1_555
C14 N6 1_555 1_555
C15 C14 1_555 1_555
C16 N11 1_555 1_555
C17 N12 1_555 1_555
C18 C17 1_555 1_555
C3B C1B 1_555 1_555
C2B C3 1_555 1_555
C1B C2B 1_555 1_555
C4B C1B 1_555 1_555
C6_2 Ni1 1_555 1_555
C8A Ni2 1_555 1_555
C10_2 Ni1 1_555 1_555
Ni1_2 C6 1_555 1_555
Ni2A C8 1_555 1_555
N9C Cd2 1_555 1_555
N10B Cd2 1_555 1_555
Cd2C N9 1_555 1_555
Cd2B N10 1_555 1_555
C10 Ni1_2 1_555 1_555
C13 C14 1_555 1_555
C16 C17 1_555 1_555

#END
