
#######################################################################
#
#                 Cambridge Crystallographic Data Centre
#                                CCDC 
#
#######################################################################
#
# If this CIF has been generated from an entry in the Cambridge 
# Structural Database, then it will include bibliographic, chemical, 
# crystal, experimental, refinement or atomic coordinate data resulting 
# from the CCDC's data processing and validation procedures.
#
#######################################################################

data_OBAFIJ
_chemical_formula_moiety         '(C21 H19 Cu4 I8 N4 O7 Tb1)n'
_symmetry_cell_setting           monoclinic
_symmetry_space_group_name_H-M   'P 21/n'
_symmetry_Int_Tables_number      14
_space_group_name_Hall           '-P 2yn'
loop_
_symmetry_equiv_pos_site_id
_symmetry_equiv_pos_as_xyz
1 x,y,z
2 1/2-x,1/2+y,1/2-z
3 -x,-y,-z
4 1/2+x,1/2-y,1/2+z
_cell_length_a                   15.318(2)
_cell_length_b                   8.0546(13)
_cell_length_c                   29.444(5)
_cell_angle_alpha                90
_cell_angle_beta                 99.920(2)
_cell_angle_gamma                90
_cell_volume                     3578.5
loop_
_atom_site_label
_atom_site_type_symbol
_atom_site_fract_x
_atom_site_fract_y
_atom_site_fract_z
Tb1 Tb 1.04775(4) -0.25444(7) 0.50960(2)
Cu1 Cu 1.57051(11) 0.5779(2) 0.75201(5)
Cu2 Cu 1.64402(10) 0.3058(2) 0.71545(5)
Cu3 Cu 1.49341(10) 0.4277(2) 0.67191(6)
Cu4 Cu 1.64929(10) 0.6231(2) 0.68094(6)
I1 I 1.62658(5) 0.33490(10) 0.62510(3)
I2 I 1.74951(5) 0.54561(10) 0.76144(3)
I3 I 1.50263(5) 0.27190(11) 0.75243(3)
I4 I 1.49067(5) 0.75368(10) 0.67525(3)
O1 O 0.9739(6) -0.5045(11) 0.5427(3)
O2 O 1.1466(6) -0.0521(11) 0.5477(3)
O3 O 0.9611(6) -0.1124(12) 0.5514(3)
O4 O 0.8850(6) 0.1222(11) 0.5474(3)
O5 O 1.0777(6) -0.3740(11) 0.5899(3)
O6 O 1.1833(6) -0.3880(12) 0.5119(3)
O7 O 1.0821(6) 0.2000(12) 0.5435(3)
N1 N 0.7307(7) -0.2522(14) 0.6448(4)
N2 N 0.9553(7) -0.7770(13) 0.6962(4)
N3 N 1.3817(7) 0.3225(14) 0.6355(4)
C1 C 1.0176(9) -0.4822(16) 0.5835(4)
C2 C 0.8419(8) -0.0965(16) 0.5923(5)
N4 N 1.3282(8) -0.4554(17) 0.5176(4)
C3 C 0.9971(8) -0.5837(16) 0.6231(4)
C4 C 0.9104(8) -0.6427(16) 0.6225(4)
H1 H 0.8645 -0.6190 0.5972
C5 C 0.9000(8) -0.0202(16) 0.5617(4)
C6 C 1.0375(9) -0.7169(18) 0.6962(5)
H2 H 1.0826 -0.7428 0.7216
C7 C 1.2305(8) 0.1776(17) 0.5849(4)
C8 C 1.0596(9) -0.6197(18) 0.6612(5)
H3 H 1.1182 -0.5777 0.6635
C9 C 1.3798(9) 0.1617(19) 0.6246(5)
H4 H 1.4313 0.0967 0.6346
C10 C 0.8932(8) -0.7357(16) 0.6594(5)
H5 H 0.8343 -0.7730 0.6590
C11 C 1.2639(9) -0.3600(18) 0.5267(5)
H6 H 1.2791 -0.2648 0.5455
C12 C 1.3057(8) 0.0853(17) 0.5992(4)
H7 H 1.3069 -0.0294 0.5919
C13 C 1.3080(8) 0.4098(17) 0.6226(5)
H8 H 1.3076 0.5232 0.6314
C14 C 0.7539(8) -0.0514(16) 0.5889(5)
H9 H 0.7301 0.0348 0.5685
C15 C 0.7007(9) -0.1321(17) 0.6154(5)
H10 H 0.6403 -0.1003 0.6123
C16 C 1.2308(8) 0.3430(16) 0.5966(4)
H11 H 1.1799 0.4102 0.5872
C17 C 1.1457(8) 0.1003(18) 0.5555(5)
C18 C 0.8735(9) -0.2197(16) 0.6236(5)
H12 H 0.9336 -0.2541 0.6272
C19 C 0.8164(9) -0.2927(18) 0.6498(5)
H13 H 0.8392 -0.3742 0.6720
C20 C 1.4179(12) -0.426(3) 0.5410(7)
H14 H 1.4578 -0.5071 0.5305
H15 H 1.4362 -0.3136 0.5341
H16 H 1.4205 -0.4376 0.5744
C21 C 1.3124(11) -0.602(2) 0.4882(6)
H17 H 1.3692 -0.6548 0.4860
H18 H 1.2750 -0.6803 0.5016
H19 H 1.2826 -0.5689 0.4574
Tb1B Tb 0.95225(4) -0.74556(7) 0.49040(2)
Tb1B_2 Tb 0.95225(4) 0.25444(7) 0.49040(2)
Cu1A Cu 0.92949(11) -0.9221(2) 0.74799(5)
Cu2A Cu 1.85598(10) 0.8058(2) 0.78455(5)
Cu4_2 Cu 0.64929(10) -0.3769(2) 0.68094(6)
I2A I 1.75049(5) 0.04561(10) 0.73856(3)
O1B O 1.0261(6) -0.4955(11) 0.4573(3)
O4B O 1.1150(6) -0.1222(11) 0.4526(3)
O7B O 0.9179(6) -0.2000(12) 0.4565(3)
N1_2 N 1.7307(7) 0.7478(14) 0.6448(4)
N2A N 1.5447(7) 0.7230(13) 0.8038(4)
I5 I 0.67492(6) 0.67728(11) 0.16544(3)
I6 I 0.76122(7) 0.47195(13) 0.22984(4)
I7 I 1.02790(7) -0.59538(14) 0.03860(3)
I7B I 0.97210(7) -0.40462(14) -0.03860(3)
loop_
_geom_bond_atom_site_label_1
_geom_bond_atom_site_label_2
_geom_bond_site_symmetry_1
_geom_bond_site_symmetry_2
Tb1 O1 1_555 1_555
Cu1 I2 1_555 1_555
Cu2 I1 1_555 1_555
Cu3 I1 1_555 1_555
Cu4 I1 1_555 1_555
I2 Cu2 1_555 1_555
I3 Cu1 1_555 1_555
I4 Cu1 1_555 1_555
O1 C1 1_555 1_555
O2 Tb1 1_555 1_555
O3 Tb1 1_555 1_555
O4 C5 1_555 1_555
O5 Tb1 1_555 1_555
O6 Tb1 1_555 1_555
O7 C17 1_555 1_555
N1 C15 1_555 1_555
N2 C6 1_555 1_555
N3 Cu3 1_555 1_555
C1 O5 1_555 1_555
C2 C5 1_555 1_555
N4 C11 1_555 1_555
C3 C1 1_555 1_555
C4 C3 1_555 1_555
H1 C4 1_555 1_555
C5 O3 1_555 1_555
C6 H2 1_555 1_555
C7 C12 1_555 1_555
C8 C3 1_555 1_555
H3 C8 1_555 1_555
C9 N3 1_555 1_555
H4 C9 1_555 1_555
C10 N2 1_555 1_555
H5 C10 1_555 1_555
C11 O6 1_555 1_555
H6 C11 1_555 1_555
C12 C9 1_555 1_555
H7 C12 1_555 1_555
C13 N3 1_555 1_555
H8 C13 1_555 1_555
C14 C2 1_555 1_555
H9 C14 1_555 1_555
C15 C14 1_555 1_555
H10 C15 1_555 1_555
C16 C7 1_555 1_555
H11 C16 1_555 1_555
C17 O2 1_555 1_555
C18 C2 1_555 1_555
H12 C18 1_555 1_555
C19 N1 1_555 1_555
H13 C19 1_555 1_555
C20 N4 1_555 1_555
H14 C20 1_555 1_555
H15 C20 1_555 1_555
H16 C20 1_555 1_555
C21 N4 1_555 1_555
H17 C21 1_555 1_555
H18 C21 1_555 1_555
H19 C21 1_555 1_555
I5 I6 1_555 1_555
I7 I7B 1_555 1_555
Tb1B O1 1_555 1_555
Tb1B_2 O4 1_555 1_555
Cu1A N2 1_555 1_555
Cu2A I2 1_555 1_555
Cu4_2 N1 1_555 1_555
I2A Cu2 1_555 1_555
O1B Tb1 1_555 1_555
O4B Tb1 1_555 1_555
O7B Tb1 1_555 1_555
N1_2 Cu4 1_555 1_555
N2A Cu1 1_555 1_555
Cu2 I3 1_555 1_555
Cu3 I3 1_555 1_555
Cu3 I4 1_555 1_555
Cu4 I2 1_555 1_555
Cu4 I4 1_555 1_555
O7 Tb1B_2 1_555 1_555
C4 C10 1_555 1_555
C6 C8 1_555 1_555
C7 C17 1_555 1_555
C13 C16 1_555 1_555
C18 C19 1_555 1_555
Tb1B O1B 1_555 1_555

#END
