
#######################################################################
#
#                 Cambridge Crystallographic Data Centre
#                                CCDC 
#
#######################################################################
#
# If this CIF has been generated from an entry in the Cambridge 
# Structural Database, then it will include bibliographic, chemical, 
# crystal, experimental, refinement or atomic coordinate data resulting 
# from the CCDC's data processing and validation procedures.
#
#######################################################################

data_OBAFEF
_chemical_formula_moiety         '(C21 H19 Cu4 I4 N4 O7 Tb1)n'
_symmetry_cell_setting           monoclinic
_symmetry_space_group_name_H-M   'P 21/n'
_symmetry_Int_Tables_number      14
_space_group_name_Hall           '-P 2yn'
loop_
_symmetry_equiv_pos_site_id
_symmetry_equiv_pos_as_xyz
1 x,y,z
2 1/2-x,1/2+y,1/2-z
3 -x,-y,-z
4 1/2+x,1/2-y,1/2+z
_cell_length_a                   15.005(4)
_cell_length_b                   8.341(2)
_cell_length_c                   29.272(8)
_cell_angle_alpha                90
_cell_angle_beta                 101.167(4)
_cell_angle_gamma                90
_cell_volume                     3594.22
loop_
_atom_site_label
_atom_site_type_symbol
_atom_site_fract_x
_atom_site_fract_y
_atom_site_fract_z
Tb1 Tb -0.441308(13) -0.22505(2) -0.485420(7)
Cu1 Cu -0.36120(4) 0.17930(7) -0.779719(19)
Cu2 Cu -0.42150(4) -0.11136(7) -0.748267(18)
Cu3 Cu -0.36324(4) -0.10650(7) -0.826050(19)
Cu4 Cu -0.51796(4) 0.05050(7) -0.817787(19)
I1 I -0.238874(19) -0.05702(3) -0.744360(9)
I2 I -0.39966(2) 0.17308(4) -0.873231(10)
I3 I -0.522387(19) -0.26026(4) -0.825974(10)
I4 I -0.49460(2) 0.17230(4) -0.731297(10)
O1 O -0.5547(2) -0.2016(4) -0.55292(10)
O2 O -0.6276(2) 0.0329(4) -0.56601(10)
O3 O -0.4264(2) -0.4487(4) -0.53036(10)
O4 O -0.5319(2) -0.6058(4) -0.57327(10)
O5 O -0.6621(2) 0.1056(4) -0.47195(11)
O6 O -0.5640(2) -0.0960(4) -0.46338(10)
O7 O -0.2931(2) -0.3285(4) -0.45602(11)
N1 N -0.1508(3) -0.3636(6) -0.47320(15)
N2 N -0.86099(15) -0.3449(3) -0.65100(9)
C1 C -0.79008(18) -0.4360(2) -0.62638(10)
H1 H -0.7945 -0.5496 -0.6262
C2 C -0.71262(15) -0.3609(3) -0.60198(9)
H2 H -0.6641 -0.4231 -0.5851
C3 C -0.70607(15) -0.1946(3) -0.60219(9)
C4 C -0.77699(19) -0.1035(2) -0.62681(11)
H3 H -0.7725 0.0101 -0.6270
C5 C -0.85445(16) -0.1786(3) -0.65122(10)
H4 H -0.9029 -0.1164 -0.6680
C6 C -0.6218(3) -0.1153(6) -0.57113(14)
N3 N -0.43242(18) -0.2585(3) -0.69438(7)
C7 C -0.36770(15) -0.2453(3) -0.65359(8)
H5 H -0.3150 -0.1817 -0.6530
C8 C -0.38012(16) -0.3251(4) -0.61361(7)
H6 H -0.3359 -0.3160 -0.5857
C9 C -0.45727(19) -0.4181(3) -0.61441(7)
C10 C -0.52199(16) -0.4314(4) -0.65521(9)
H7 H -0.5747 -0.4950 -0.6558
C11 C -0.50957(16) -0.3516(4) -0.69519(7)
H8 H -0.5538 -0.3606 -0.7231
C12 C -0.4729(3) -0.4959(5) -0.56900(14)
N4 N -0.79021(16) -0.2588(3) -0.36430(8)
C13 C -0.83025(14) -0.1385(3) -0.39425(10)
H9 H -0.8917 -0.1091 -0.3950
C14 C -0.78042(18) -0.0613(3) -0.42311(9)
H10 H -0.8078 0.0209 -0.4436
C15 C -0.69055(17) -0.1044(3) -0.42202(9)
C16 C -0.65050(14) -0.2247(3) -0.39208(9)
H11 H -0.5891 -0.2542 -0.3913
C17 C -0.70034(17) -0.3019(3) -0.36322(9)
H12 H -0.6730 -0.3842 -0.3428
C18 C -0.6349(3) -0.0271(6) -0.45506(14)
C19 C -0.2146(3) -0.2802(6) -0.45706(16)
H13 H -0.1988 -0.1755 -0.4454
C20 C -0.1722(5) -0.5205(8) -0.4940(2)
H14 H -0.2367 -0.5440 -0.4953
H15 H -0.1351 -0.6020 -0.4751
H16 H -0.1594 -0.5213 -0.5256
C21 C -0.0573(4) -0.3027(9) -0.4704(2)
H17 H -0.0528 -0.1939 -0.4576
H18 H -0.0428 -0.3010 -0.5016
H19 H -0.0144 -0.3729 -0.4502
Tb1B Tb -0.558692(13) -0.77495(2) -0.514580(7)
Tb1B_2 Tb -0.558692(13) 0.22505(2) -0.514580(7)
Cu1A Cu -0.13880(4) -0.32070(7) -0.720281(19)
Cu3C Cu -0.86324(4) -0.39350(7) -0.326050(19)
Cu4A Cu -0.98204(4) -0.44950(7) -0.682213(19)
I1A I -0.261126(19) 0.44298(3) -0.755640(9)
O2B O -0.3724(2) -0.0329(4) -0.43399(10)
O4B O -0.4681(2) -0.3942(4) -0.42673(10)
O5B O -0.3379(2) -0.1056(4) -0.52805(11)
N2A N -0.63901(15) 0.1551(3) -0.84900(9)
N4C N -0.29021(16) -0.2412(3) -0.86430(8)
loop_
_geom_bond_atom_site_label_1
_geom_bond_atom_site_label_2
_geom_bond_site_symmetry_1
_geom_bond_site_symmetry_2
Tb1 O1 1_555 1_555
Cu1 I1 1_555 1_555
Cu2 I1 1_555 1_555
Cu3 I1 1_555 1_555
Cu4 I2 1_555 1_555
I1 Cu1A 1_555 1_555
I2 Cu1 1_555 1_555
I3 Cu2 1_555 1_555
I4 Cu1 1_555 1_555
O1 C6 1_555 1_555
O2 C6 1_555 1_555
O3 Tb1 1_555 1_555
O4 C12 1_555 1_555
O5 C18 1_555 1_555
O6 Tb1 1_555 1_555
O7 Tb1 1_555 1_555
N1 C19 1_555 1_555
N2 C1 1_555 1_555
C1 H1 1_555 1_555
C2 C1 1_555 1_555
H2 C2 1_555 1_555
C3 C2 1_555 1_555
C4 C3 1_555 1_555
H3 C4 1_555 1_555
C5 N2 1_555 1_555
H4 C5 1_555 1_555
C6 C3 1_555 1_555
N3 Cu2 1_555 1_555
C7 N3 1_555 1_555
H5 C7 1_555 1_555
C8 C7 1_555 1_555
H6 C8 1_555 1_555
C9 C8 1_555 1_555
C10 C9 1_555 1_555
H7 C10 1_555 1_555
C11 N3 1_555 1_555
H8 C11 1_555 1_555
C12 O3 1_555 1_555
N4 C13 1_555 1_555
C13 H9 1_555 1_555
C14 C13 1_555 1_555
H10 C14 1_555 1_555
C15 C14 1_555 1_555
C16 C15 1_555 1_555
H11 C16 1_555 1_555
C17 N4 1_555 1_555
H12 C17 1_555 1_555
C18 O6 1_555 1_555
C19 O7 1_555 1_555
H13 C19 1_555 1_555
C20 N1 1_555 1_555
H14 C20 1_555 1_555
H15 C20 1_555 1_555
H16 C20 1_555 1_555
C21 N1 1_555 1_555
H17 C21 1_555 1_555
H18 C21 1_555 1_555
H19 C21 1_555 1_555
Tb1B O4 1_555 1_555
Tb1B_2 O2 1_555 1_555
Cu3C N4 1_555 1_555
Cu4A N2 1_555 1_555
I1A Cu1 1_555 1_555
O2B Tb1 1_555 1_555
O4B Tb1 1_555 1_555
O5B Tb1 1_555 1_555
N2A Cu4 1_555 1_555
N4C Cu3 1_555 1_555
Cu2 I4 1_555 1_555
Cu3 I2 1_555 1_555
Cu3 I3 1_555 1_555
Cu4 I3 1_555 1_555
Cu4 I4 1_555 1_555
O5 Tb1B_2 1_555 1_555
C4 C5 1_555 1_555
C9 C12 1_555 1_555
C10 C11 1_555 1_555
C15 C18 1_555 1_555
C16 C17 1_555 1_555

#END
