
#######################################################################
#
#                 Cambridge Crystallographic Data Centre
#                                CCDC 
#
#######################################################################
#
# If this CIF has been generated from an entry in the Cambridge 
# Structural Database, then it will include bibliographic, chemical, 
# crystal, experimental, refinement or atomic coordinate data resulting 
# from the CCDC's data processing and validation procedures.
#
#######################################################################

data_OBOGUK
_chemical_formula_moiety         '(C23 H16 O16 Zn3)n'
_symmetry_cell_setting           orthorhombic
_symmetry_space_group_name_H-M   'P m n 21'
_symmetry_Int_Tables_number      31
_space_group_name_Hall           'P 2ac -2'
loop_
_symmetry_equiv_pos_site_id
_symmetry_equiv_pos_as_xyz
1 x,y,z
2 1/2-x,-y,1/2+z
3 1/2+x,-y,1/2+z
4 -x,y,z
_cell_length_a                   16.4071(8)
_cell_length_b                   11.8075(5)
_cell_length_c                   15.2832(7)
_cell_angle_alpha                90
_cell_angle_beta                 90
_cell_angle_gamma                90
_cell_volume                     2960.77
loop_
_atom_site_label
_atom_site_type_symbol
_atom_site_fract_x
_atom_site_fract_y
_atom_site_fract_z
Zn1 Zn 0.09964(3) 0.59755(4) 0.17098(3)
Zn2 Zn -0.0000 0.35077(6) 0.11828(5)
O1 O 0.0858(4) 0.3435(4) 0.2080(4)
O2 O 0.1484(2) 0.4964(3) 0.2565(2)
O3 O 0.3096(4) 0.4802(4) 0.5267(4)
O4 O 0.3251(2) 0.3215(3) 0.5937(2)
O5 O 0.1454(3) 0.0474(3) 0.4387(3)
O6 O 0.0659(2) -0.2775(3) 0.2503(2)
O7 O 0.0000 0.5363(3) 0.1140(3)
H1 H 0.0000 0.5602 0.0525
O8 O 0.0936(4) 0.3460(5) 0.0270(4)
H2 H 0.0736 0.3409 -0.0241
H3 H 0.1230 0.2879 0.0362
O9 O 0.0000 0.1700(5) 0.1149(6)
H4 H 0.0420 0.1472 0.0875
C1 C 0.1603(3) 0.3307(5) 0.3368(3)
C2 C 0.2131(3) 0.3811(4) 0.4003(4)
H5 H 0.2277 0.4567 0.3940
C3 C 0.2426(3) 0.3212(4) 0.4700(4)
C4 C 0.2163(3) 0.2085(4) 0.4814(3)
H6 H 0.2342 0.1678 0.5298
C5 C 0.1657(3) 0.1587(4) 0.4234(3)
C6 C 0.1389(3) 0.2170(4) 0.3495(3)
H7 H 0.1066 0.1802 0.3083
C7 C 0.1294(4) 0.3963(5) 0.2637(4)
C8 C 0.2981(4) 0.3770(5) 0.5333(4)
C9 C 0.0710(3) 0.0069(4) 0.4106(3)
C10 C 0.0000 0.0527(6) 0.4365(4)
H8 H 0.0000 0.1163 0.4725
C11 C 0.0731(3) -0.0883(4) 0.3559(3)
H9 H 0.1225 -0.1187 0.3374
C12 C 0.0000 -0.1357(6) 0.3303(4)
C13 C 0.0000 -0.2416(6) 0.2723(4)
O1C O -0.0858(4) 0.3435(4) 0.2080(4)
O2C O -0.1484(2) 0.4964(3) 0.2565(2)
O3C O -0.3096(4) 0.4802(4) 0.5267(4)
O4C O -0.3251(2) 0.3215(3) 0.5937(2)
O5C O -0.1454(3) 0.0474(3) 0.4387(3)
O6C O -0.0659(2) -0.2775(3) 0.2503(2)
C1C C -0.1603(3) 0.3307(5) 0.3368(3)
C2C C -0.2131(3) 0.3811(4) 0.4003(4)
H5C H -0.2277 0.4567 0.3940
C3C C -0.2426(3) 0.3212(4) 0.4700(4)
C4C C -0.2163(3) 0.2085(4) 0.4814(3)
H6C H -0.2342 0.1678 0.5298
C5C C -0.1657(3) 0.1587(4) 0.4234(3)
C6C C -0.1389(3) 0.2170(4) 0.3495(3)
H7C H -0.1066 0.1802 0.3083
C7C C -0.1294(4) 0.3963(5) 0.2637(4)
C8C C -0.2981(4) 0.3770(5) 0.5333(4)
C9C C -0.0710(3) 0.0069(4) 0.4106(3)
C11C C -0.0731(3) -0.0883(4) 0.3559(3)
H9C H -0.1225 -0.1187 0.3374
H4C H -0.0420 0.1472 0.0875
Zn1C Zn -0.09964(3) 0.59755(4) 0.17098(3)
O8C O -0.0936(4) 0.3460(5) 0.0270(4)
H2C H -0.0736 0.3409 -0.0241
H3C H -0.1230 0.2879 0.0362
Zn1_2 Zn 0.09964(3) -0.40245(4) 0.17098(3)
Zn1A Zn 0.40036(3) 0.40245(4) 0.67098(3)
Zn1B Zn -0.40036(3) 0.40245(4) 0.67098(3)
Zn1C_2 Zn -0.09964(3) -0.40245(4) 0.17098(3)
O4A O 0.1749(2) 0.6785(3) 0.0937(2)
O4B O -0.1749(2) 0.6785(3) 0.0937(2)
O6_2 O 0.0659(2) 0.7225(3) 0.2503(2)
O6C_2 O -0.0659(2) 0.7225(3) 0.2503(2)
loop_
_geom_bond_atom_site_label_1
_geom_bond_atom_site_label_2
_geom_bond_site_symmetry_1
_geom_bond_site_symmetry_2
Zn1 O2 1_555 1_555
Zn2 O1 1_555 1_555
O1 C7 1_555 1_555
O2 C7 1_555 1_555
O3 C8 1_555 1_555
O4 C8 1_555 1_555
O5 C5 1_555 1_555
O6 C13 1_555 1_555
O7 Zn1 1_555 1_555
H1 O7 1_555 1_555
O8 Zn2 1_555 1_555
H2 O8 1_555 1_555
H3 O8 1_555 1_555
O9 Zn2 1_555 1_555
H4 O9 1_555 1_555
C1 C2 1_555 1_555
C2 H5 1_555 1_555
C3 C2 1_555 1_555
C4 C3 1_555 1_555
H6 C4 1_555 1_555
C5 C4 1_555 1_555
C6 C1 1_555 1_555
H7 C6 1_555 1_555
C7 C1 1_555 1_555
C8 C3 1_555 1_555
C9 O5 1_555 1_555
C10 C9 1_555 1_555
H8 C10 1_555 1_555
C11 C9 1_555 1_555
H9 C11 1_555 1_555
C12 C11 1_555 1_555
C13 C12 1_555 1_555
O1C Zn2 1_555 1_555
O2C C7C 1_555 1_555
O3C C8C 1_555 1_555
O4C C8C 1_555 1_555
O5C C5C 1_555 1_555
O6C C13 1_555 1_555
C1C C2C 1_555 1_555
C2C H5C 1_555 1_555
C3C C2C 1_555 1_555
C4C C3C 1_555 1_555
H6C C4C 1_555 1_555
C5C C4C 1_555 1_555
C6C C1C 1_555 1_555
H7C C6C 1_555 1_555
C7C O1C 1_555 1_555
C8C C3C 1_555 1_555
C9C C10 1_555 1_555
C11C C12 1_555 1_555
H9C C11C 1_555 1_555
H4C O9 1_555 1_555
Zn1C O7 1_555 1_555
O8C Zn2 1_555 1_555
H2C O8C 1_555 1_555
H3C O8C 1_555 1_555
Zn1_2 O6 1_555 1_555
Zn1A O4 1_555 1_555
Zn1B O4C 1_555 1_555
Zn1C_2 O6C 1_555 1_555
O4A Zn1 1_555 1_555
O4B Zn1C 1_555 1_555
O6_2 Zn1 1_555 1_555
O6C_2 Zn1C 1_555 1_555
Zn2 O7 1_555 1_555
C5 C6 1_555 1_555
O2C Zn1C 1_555 1_555
O5C C9C 1_555 1_555
C1C C7C 1_555 1_555
C5C C6C 1_555 1_555
C9C C11C 1_555 1_555

#END
