
#######################################################################
#
#                 Cambridge Crystallographic Data Centre
#                                CCDC 
#
#######################################################################
#
# If this CIF has been generated from an entry in the Cambridge 
# Structural Database, then it will include bibliographic, chemical, 
# crystal, experimental, refinement or atomic coordinate data resulting 
# from the CCDC's data processing and validation procedures.
#
#######################################################################

data_OCUGEZ
_chemical_formula_moiety         '(C24 H46 Nd2 O22)n'
_symmetry_cell_setting           triclinic
_symmetry_space_group_name_H-M   'P -1'
_symmetry_Int_Tables_number      2
_space_group_name_Hall           '-P 1'
loop_
_symmetry_equiv_pos_site_id
_symmetry_equiv_pos_as_xyz
1 x,y,z
2 -x,-y,-z
_cell_length_a                   8.6266(17)
_cell_length_b                   9.919(2)
_cell_length_c                   11.694(2)
_cell_angle_alpha                74.70(3)
_cell_angle_beta                 69.75(3)
_cell_angle_gamma                85.92(3)
_cell_volume                     905.278
loop_
_atom_site_label
_atom_site_type_symbol
_atom_site_fract_x
_atom_site_fract_y
_atom_site_fract_z
Nd1 Nd 0.754465(12) 0.522407(11) 0.988160(10)
O1 O 0.5690(2) 0.4647(2) 0.88962(17)
O2 O 0.4002(2) 0.3844(2) 0.81989(17)
O3 O 0.9230(2) 0.4559(2) 0.12717(17)
O4 O 1.0764(2) 0.3933(2) 0.24590(17)
O5 O 0.6371(2) 0.7462(2) 0.9025(2)
O6 O 0.8590(2) 0.7803(2) 0.9423(2)
O9 O 0.6286(2) 0.2990(2) 1.1522(2)
O10 O 0.8740(3) 0.3044(2) 0.9126(2)
C1 C 0.5450(3) 0.4154(3) 0.8074(2)
C2 C 0.6915(3) 0.3961(4) 0.6974(2)
H1 H 0.7680 0.4743 0.6718
H2 H 0.7471 0.3121 0.7256
C3 C 0.6545(3) 0.3846(4) 0.5832(3)
H3 H 0.5946 0.2975 0.6032
H4 H 0.5847 0.4609 0.5612
C4 C 0.8122(3) 0.3893(4) 0.4714(2)
H5 H 0.8778 0.3092 0.4924
H6 H 0.8757 0.4728 0.4567
C5 C 0.7834(3) 0.3889(3) 0.3512(2)
H7 H 0.7051 0.4609 0.3369
H8 H 0.7331 0.2997 0.3627
C6 C 0.9353(3) 0.4126(3) 0.2358(2)
C7 C 0.7393(3) 0.8278(3) 0.9076(3)
C8 C 0.7130(4) 0.9829(3) 0.8737(4)
H9 H 0.7499 1.0175 0.7826
H10 H 0.7798 1.0291 0.9046
C9 C 0.5325(4) 1.0205(3) 0.9286(3)
H11 H 0.5215 1.1205 0.8990
H12 H 0.4657 0.9739 0.8980
Nd1A Nd 0.245535(12) 0.477593(11) 1.011840(10)
Nd1_2 Nd 0.754465(12) 0.522407(11) -0.011840(10)
Nd1A_2 Nd 1.245535(12) 0.477593(11) 0.011840(10)
Nd1A_3 Nd 0.245535(12) 1.477593(11) 1.011840(10)
Nd1_3 Nd -0.245535(12) 0.522407(11) 1.988160(10)
Nd1A_4 Nd 0.245535(12) 0.477593(11) 2.011840(10)
O1A O 0.4310(2) 0.5353(2) 1.11038(17)
O2A O 0.5998(2) 0.6156(2) 1.18011(17)
O3A O 0.0770(2) 0.5441(2) 1.87283(17)
O3_2 O 0.9230(2) 0.4559(2) 1.12717(17)
O3A_2 O 1.0770(2) 0.5441(2) 0.87283(17)
O3_3 O -0.0770(2) 0.4559(2) 1.12717(17)
O3A_3 O 0.0770(2) 0.5441(2) 0.87283(17)
O4A O -0.0764(2) 0.6067(2) 1.75410(17)
O4A_2 O 0.9236(2) 0.6067(2) 0.75410(17)
O4_2 O 0.0764(2) 0.3933(2) 1.24590(17)
O5A O 0.3629(2) 1.2538(2) 1.0975(2)
O5A_2 O 0.3629(2) 0.2538(2) 1.0975(2)
O6A O 0.1410(2) 1.2197(2) 1.0577(2)
O6A_2 O 0.1410(2) 0.2197(2) 1.0577(2)
O9A O 0.3714(2) 0.7010(2) 0.8478(2)
O10A O 0.1260(3) 0.6956(2) 1.0874(2)
C1A C 0.4550(3) 0.5846(3) 1.1926(2)
C2A C 0.3085(3) 0.6039(4) 1.3026(2)
H1A H 0.2320 0.5257 1.3282
H2A H 0.2529 0.6879 1.2744
C3A C 0.3455(3) 0.6154(4) 1.4168(3)
H3A H 0.4054 0.7025 1.3968
H4A H 0.4153 0.5391 1.4388
C4A C 0.1878(3) 0.6107(4) 1.5286(2)
H5A H 0.1222 0.6908 1.5076
H6A H 0.1243 0.5272 1.5433
C5A C 0.2166(3) 0.6111(3) 1.6488(2)
H7A H 0.2949 0.5391 1.6631
H8A H 0.2669 0.7003 1.6373
C6A C 0.0647(3) 0.5874(3) 1.7642(2)
C7A C 0.2607(3) 1.1722(3) 1.0924(3)
C8A C 0.2870(4) 1.0171(3) 1.1263(4)
H9A H 0.2501 0.9825 1.2174
H10A H 0.2202 0.9709 1.0954
C9A C 0.4675(4) 0.9795(3) 1.0714(3)
H11A H 0.4785 0.8795 1.1010
H12A H 0.5343 1.0261 1.1020
O7 O 0.2406(6) 0.2505(4) 1.5081(4)
O8 O 0.1600(4) 0.1555(3) 1.3863(3)
C10 C 0.2215(5) 0.1491(4) 1.4757(3)
C11 C 0.2622(5) 0.0042(4) 1.5343(4)
H13 H 0.2644 -0.0548 1.4795
H14 H 0.1737 -0.0310 1.6136
C12 C 0.4246(5) -0.0107(5) 1.5595(4)
H15 H 0.4276 -0.1032 1.6132
H16 H 0.4295 0.0569 1.6049
O7A O 0.7594(6) -0.2505(4) 1.4919(4)
O8A O 0.8400(4) -0.1555(3) 1.6137(3)
C10A C 0.7785(5) -0.1491(4) 1.5243(3)
C11A C 0.7378(5) -0.0042(4) 1.4657(4)
H13A H 0.7356 0.0548 1.5205
H14A H 0.8263 0.0310 1.3864
C12A C 0.5754(5) 0.0107(5) 1.4405(4)
H15A H 0.5724 0.1032 1.3868
H16A H 0.5705 -0.0569 1.3951
O11 O 0.1878(3) 0.2228(3) 0.7686(2)
O12 O 0.8494(3) 0.0791(3) 1.1275(3)
loop_
_geom_bond_atom_site_label_1
_geom_bond_atom_site_label_2
_geom_bond_site_symmetry_1
_geom_bond_site_symmetry_2
Nd1 O1 1_555 1_555
O1 C1 1_555 1_555
O2 C1 1_555 1_555
O3 C6 1_555 1_555
O4 C6 1_555 1_555
O5 Nd1 1_555 1_555
O6 Nd1 1_555 1_555
O7 C10 1_555 1_555
O8 C10 1_555 1_555
O9 Nd1 1_555 1_555
O10 Nd1 1_555 1_555
C1 C2 1_555 1_555
C2 H1 1_555 1_555
H2 C2 1_555 1_555
C3 C2 1_555 1_555
H3 C3 1_555 1_555
H4 C3 1_555 1_555
C4 C3 1_555 1_555
H5 C4 1_555 1_555
H6 C4 1_555 1_555
C5 C4 1_555 1_555
H7 C5 1_555 1_555
H8 C5 1_555 1_555
C6 C5 1_555 1_555
C7 O5 1_555 1_555
C8 C7 1_555 1_555
H9 C8 1_555 1_555
H10 C8 1_555 1_555
C9 C8 1_555 1_555
H11 C9 1_555 1_555
H12 C9 1_555 1_555
C10 C11 1_555 1_555
C11 H13 1_555 1_555
H14 C11 1_555 1_555
C12 C11 1_555 1_555
H15 C12 1_555 1_555
H16 C12 1_555 1_555
Nd1A O1 1_555 1_555
Nd1_2 O3 1_555 1_555
Nd1A_2 O3 1_555 1_555
Nd1A_3 O5A 1_555 1_555
Nd1_3 O3A 1_555 1_555
Nd1A_4 O3A 1_555 1_555
O1A Nd1 1_555 1_555
O2A Nd1 1_555 1_555
O3A C6A 1_555 1_555
O3_2 Nd1 1_555 1_555
O3A_2 Nd1 1_555 1_555
O3_3 Nd1A 1_555 1_555
O3A_3 Nd1A 1_555 1_555
O4A Nd1_3 1_555 1_555
O4A_2 Nd1 1_555 1_555
O4_2 Nd1A 1_555 1_555
O5A C7A 1_555 1_555
O5A_2 Nd1A 1_555 1_555
O6A Nd1A_3 1_555 1_555
O6A_2 Nd1A 1_555 1_555
O7A C10A 1_555 1_555
O8A C10A 1_555 1_555
O9A Nd1A 1_555 1_555
O10A Nd1A 1_555 1_555
C1A O1A 1_555 1_555
C2A C1A 1_555 1_555
H1A C2A 1_555 1_555
H2A C2A 1_555 1_555
C3A C2A 1_555 1_555
H3A C3A 1_555 1_555
H4A C3A 1_555 1_555
C4A C3A 1_555 1_555
H5A C4A 1_555 1_555
H6A C4A 1_555 1_555
C5A C4A 1_555 1_555
H7A C5A 1_555 1_555
H8A C5A 1_555 1_555
C6A O4A 1_555 1_555
C7A O6A 1_555 1_555
C8A C7A 1_555 1_555
H9A C8A 1_555 1_555
H10A C8A 1_555 1_555
C9A C9 1_555 1_555
H11A C9A 1_555 1_555
H12A C9A 1_555 1_555
C10A C11A 1_555 1_555
C11A H13A 1_555 1_555
H14A C11A 1_555 1_555
C12A C12 1_555 1_555
H15A C12A 1_555 1_555
H16A C12A 1_555 1_555
O2 Nd1A 1_555 1_555
O4 Nd1A_2 1_555 1_555
O6 C7 1_555 1_555
Nd1A O1A 1_555 1_555
O2A C1A 1_555 1_555
C5A C6A 1_555 1_555
C8A C9A 1_555 1_555
C11A C12A 1_555 1_555

#END
