
#######################################################################
#
#                 Cambridge Crystallographic Data Centre
#                                CCDC 
#
#######################################################################
#
# If this CIF has been generated from an entry in the Cambridge 
# Structural Database, then it will include bibliographic, chemical, 
# crystal, experimental, refinement or atomic coordinate data resulting 
# from the CCDC's data processing and validation procedures.
#
#######################################################################

data_OJORUC
_chemical_formula_moiety         '(C72 H72 N10 O18 Zn4)n'
_symmetry_cell_setting           monoclinic
_symmetry_space_group_name_H-M   'P 21/c'
_symmetry_Int_Tables_number      14
_space_group_name_Hall           '-P 2ybc'
loop_
_symmetry_equiv_pos_site_id
_symmetry_equiv_pos_as_xyz
1 x,y,z
2 -x,1/2+y,1/2-z
3 -x,-y,-z
4 x,1/2-y,1/2+z
_cell_length_a                   15.954(2)
_cell_length_b                   19.226(3)
_cell_length_c                   16.734(3)
_cell_angle_alpha                90
_cell_angle_beta                 96.828(14)
_cell_angle_gamma                90
_cell_volume                     5096.44
loop_
_atom_site_label
_atom_site_type_symbol
_atom_site_fract_x
_atom_site_fract_y
_atom_site_fract_z
Zn1 Zn 0.53449(4) 0.42732(3) 0.53330(4)
Zn2 Zn 0.33372(4) 0.43102(3) 0.50184(4)
O1 O 0.4861(3) 0.3574(2) 0.6084(3)
O2 O 0.3454(3) 0.3661(2) 0.5961(2)
O3 O 0.4887(2) 0.1242(2) 0.9268(2)
O4 O 0.3496(2) 0.1349(2) 0.9153(2)
O5 O 0.2149(2) 0.4520(2) 0.4750(3)
O6 O 0.2231(3) 0.5001(3) 0.5951(3)
O7 O 0.6130(3) 0.4731(2) 0.6288(3)
O8 O 0.6372(3) 0.3582(3) 0.5284(3)
O9 O 0.4273(2) 0.49431(18) 0.5370(2)
N1 N 0.5768(4) 0.1976(3) 0.8291(4)
H1 H 0.5772 0.1580 0.8530
N2 N 0.2606(3) 0.3015(3) 0.7004(4)
H2 H 0.2621 0.3381 0.6710
N3 N -0.0822(3) 0.4655(3) 0.3472(4)
H3 H -0.1318 0.4479 0.3469
N4 N 0.6565(5) 0.5221(4) 0.7482(4)
N5 N 0.7647(6) 0.3157(6) 0.5638(6)
C1 C 0.7267(5) 0.1852(4) 0.8427(5)
H4 H 0.7192 0.1381 0.8519
C2 C 0.8074(6) 0.2111(6) 0.8454(6)
H5 H 0.8539 0.1817 0.8546
C3 C 0.8177(7) 0.2808(7) 0.8341(7)
H6 H 0.8717 0.2995 0.8368
C4 C 0.7471(8) 0.3242(6) 0.8185(7)
H7 H 0.7553 0.3713 0.8091
C5 C 0.6654(6) 0.2992(5) 0.8165(5)
H8 H 0.6192 0.3289 0.8086
C6 C 0.6550(5) 0.2283(5) 0.8265(5)
C7 C 0.4967(4) 0.2227(3) 0.7980(4)
C8 C 0.4219(4) 0.2021(3) 0.8267(4)
C9 C 0.3453(4) 0.2268(3) 0.7916(4)
H9 H 0.2963 0.2117 0.8112
C10 C 0.3389(4) 0.2724(3) 0.7295(4)
C11 C 0.4136(4) 0.2939(3) 0.6980(3)
C12 C 0.4901(4) 0.2684(3) 0.7335(4)
H10 H 0.5392 0.2825 0.7132
C13 C 0.4215(4) 0.1491(3) 0.8962(3)
C14 C 0.4152(4) 0.3428(3) 0.6291(4)
C15 C 0.1799(4) 0.2781(4) 0.7134(4)
C16 C 0.1166(6) 0.3230(5) 0.7212(6)
H11 H 0.1271 0.3705 0.7211
C17 C 0.0362(6) 0.2993(6) 0.7294(7)
H12 H -0.0070 0.3309 0.7341
C18 C 0.0201(6) 0.2301(6) 0.7307(7)
H13 H -0.0336 0.2145 0.7380
C19 C 0.0822(6) 0.1837(5) 0.7215(6)
H14 H 0.0710 0.1362 0.7213
C20 C 0.1607(5) 0.2071(4) 0.7126(5)
H15 H 0.2030 0.1750 0.7057
C21 C 0.1802(4) 0.4811(3) 0.5336(4)
C22 C 0.0887(3) 0.4898(3) 0.5189(3)
C23 C 0.0453(4) 0.4746(3) 0.4445(4)
H16 H 0.0768 0.4568 0.4059
C24 C -0.0409(4) 0.4834(4) 0.4216(4)
C25 C -0.0525(6) 0.4728(5) 0.2716(5)
C26 C -0.1044(7) 0.4412(5) 0.2073(6)
H17 H -0.1526 0.4166 0.2162
C27 C -0.0022(10) 0.4906(7) 0.1221(8)
H18 H 0.0148 0.4973 0.0714
C28 C -0.0797(9) 0.4486(7) 0.1274(8)
H19 H -0.1102 0.4285 0.0824
C29 C 0.0430(8) 0.5182(6) 0.1828(8)
H20 H 0.0913 0.5433 0.1754
C30 C 0.0186(6) 0.5102(5) 0.2609(6)
H21 H 0.0508 0.5302 0.3050
C31 C 0.5975(6) 0.4934(5) 0.6934(5)
H22 H 0.5426 0.4892 0.7062
C32 C 0.6292(8) 0.5511(7) 0.8227(7)
H23 H 0.5694 0.5449 0.8218
H24 H 0.6425 0.5998 0.8261
H25 H 0.6580 0.5274 0.8684
C33 C 0.7432(6) 0.5254(5) 0.7327(5)
H26 H 0.7558 0.4861 0.7007
H27 H 0.7794 0.5247 0.7828
H28 H 0.7524 0.5675 0.7042
C34 C 0.7026(8) 0.3614(6) 0.5467(6)
H29 H 0.7214 0.4071 0.5522
C35 C 0.7436(9) 0.2458(9) 0.5702(9)
H30 H 0.7540 0.2217 0.5221
H31 H 0.6850 0.2419 0.5773
H32 H 0.7773 0.2256 0.6157
C36 C 0.8475(10) 0.3416(8) 0.5706(9)
H33 H 0.8499 0.3856 0.5979
H34 H 0.8645 0.3475 0.5179
H35 H 0.8849 0.3093 0.6007
O5B O -0.2149(2) 0.5480(2) 0.5250(3)
O6B O -0.2231(3) 0.4999(3) 0.4049(3)
N3B N 0.0822(3) 0.5345(3) 0.6528(4)
H3B H 0.1318 0.5521 0.6531
C21B C -0.1802(4) 0.5189(3) 0.4664(4)
C22B C -0.0887(3) 0.5102(3) 0.4811(3)
C23B C -0.0453(4) 0.5254(3) 0.5555(4)
H16B H -0.0768 0.5432 0.5941
C24B C 0.0409(4) 0.5166(4) 0.5784(4)
C25B C 0.0525(6) 0.5272(5) 0.7284(5)
C26B C 0.1044(7) 0.5588(5) 0.7927(6)
H17B H 0.1526 0.5834 0.7838
C27B C 0.0022(10) 0.5094(7) 0.8779(8)
H18B H -0.0148 0.5027 0.9286
C28B C 0.0797(9) 0.5514(7) 0.8726(8)
H19B H 0.1102 0.5715 0.9176
C29B C -0.0430(8) 0.4818(6) 0.8172(8)
H20B H -0.0913 0.4567 0.8246
C30B C -0.0186(6) 0.4898(5) 0.7391(6)
H21B H -0.0508 0.4698 0.6950
Zn1B Zn -0.53449(4) 0.57268(3) 0.46670(4)
Zn2B Zn -0.33372(4) 0.56898(3) 0.49816(4)
O1B O -0.4861(3) 0.6426(2) 0.3916(3)
O2B O -0.3454(3) 0.6339(2) 0.4039(2)
O3B O -0.4887(2) 0.8758(2) 0.0732(2)
O4B O -0.3496(2) 0.8651(2) 0.0847(2)
O7B O -0.6130(3) 0.5269(2) 0.3712(3)
O8B O -0.6372(3) 0.6418(3) 0.4716(3)
O9B O -0.4273(2) 0.50569(18) 0.4630(2)
N1B N -0.5768(4) 0.8024(3) 0.1709(4)
H1B H -0.5772 0.8420 0.1470
N2B N -0.2606(3) 0.6985(3) 0.2996(4)
H2B H -0.2621 0.6619 0.3290
N4B N -0.6565(5) 0.4779(4) 0.2518(4)
N5B N -0.7647(6) 0.6843(6) 0.4362(6)
C1B C -0.7267(5) 0.8148(4) 0.1573(5)
H4B H -0.7192 0.8619 0.1481
C2B C -0.8074(6) 0.7889(6) 0.1546(6)
H5B H -0.8539 0.8183 0.1454
C3B C -0.8177(7) 0.7192(7) 0.1659(7)
H6B H -0.8717 0.7005 0.1632
C4B C -0.7471(8) 0.6758(6) 0.1815(7)
H7B H -0.7553 0.6287 0.1909
C5B C -0.6654(6) 0.7008(5) 0.1835(5)
H8B H -0.6192 0.6711 0.1914
C6B C -0.6550(5) 0.7717(5) 0.1735(5)
C7B C -0.4967(4) 0.7773(3) 0.2020(4)
C8B C -0.4219(4) 0.7979(3) 0.1733(4)
C9B C -0.3453(4) 0.7732(3) 0.2084(4)
H9B H -0.2963 0.7883 0.1888
C10B C -0.3389(4) 0.7276(3) 0.2705(4)
C11B C -0.4136(4) 0.7061(3) 0.3020(3)
C12B C -0.4901(4) 0.7316(3) 0.2665(4)
H10B H -0.5392 0.7175 0.2868
C13B C -0.4215(4) 0.8509(3) 0.1038(3)
C14B C -0.4152(4) 0.6572(3) 0.3709(4)
C15B C -0.1799(4) 0.7219(4) 0.2866(4)
C16B C -0.1166(6) 0.6770(5) 0.2788(6)
H11B H -0.1271 0.6295 0.2789
C17B C -0.0362(6) 0.7007(6) 0.2706(7)
H12B H 0.0070 0.6691 0.2659
C18B C -0.0201(6) 0.7699(6) 0.2693(7)
H13B H 0.0336 0.7855 0.2620
C19B C -0.0822(6) 0.8163(5) 0.2785(6)
H14B H -0.0710 0.8638 0.2787
C20B C -0.1607(5) 0.7929(4) 0.2874(5)
H15B H -0.2030 0.8250 0.2943
C31B C -0.5975(6) 0.5066(5) 0.3066(5)
H22B H -0.5426 0.5108 0.2938
C32B C -0.6292(8) 0.4489(7) 0.1773(7)
H23B H -0.5694 0.4551 0.1782
H24B H -0.6425 0.4002 0.1739
H25B H -0.6580 0.4726 0.1316
C33B C -0.7432(6) 0.4746(5) 0.2673(5)
H26B H -0.7558 0.5139 0.2993
H27B H -0.7794 0.4753 0.2172
H28B H -0.7524 0.4325 0.2958
C34B C -0.7026(8) 0.6386(6) 0.4533(6)
H29B H -0.7214 0.5929 0.4478
C35B C -0.7436(9) 0.7542(9) 0.4298(9)
H30B H -0.7540 0.7783 0.4779
H31B H -0.6850 0.7581 0.4227
H32B H -0.7773 0.7744 0.3843
C36B C -0.8475(10) 0.6584(8) 0.4294(9)
H33B H -0.8499 0.6144 0.4021
H34B H -0.8645 0.6525 0.4821
H35B H -0.8849 0.6907 0.3993
Zn1_2 Zn -0.46551(4) 0.42732(3) 0.53330(4)
Zn1A Zn -0.53449(4) 0.92732(3) -0.03330(4)
Zn1B_2 Zn 0.46551(4) 0.57268(3) 0.46670(4)
Zn1C Zn 0.53449(4) 0.07268(3) 1.03330(4)
Zn2A Zn -0.33372(4) 0.93102(3) -0.00184(4)
Zn2C Zn 0.33372(4) 0.06898(3) 1.00184(4)
O3A O -0.4887(2) 0.6242(2) 0.5732(2)
O3C O 0.4887(2) 0.3758(2) 0.4268(2)
O4A O -0.3496(2) 0.6349(2) 0.5847(2)
O4C O 0.3496(2) 0.3651(2) 0.4153(2)
O9_2 O -0.5727(2) 0.49431(18) 0.5370(2)
O9B_2 O 0.5727(2) 0.50569(18) 0.4630(2)
loop_
_geom_bond_atom_site_label_1
_geom_bond_atom_site_label_2
_geom_bond_site_symmetry_1
_geom_bond_site_symmetry_2
Zn1 O1 1_555 1_555
Zn2 O2 1_555 1_555
O1 C14 1_555 1_555
O2 C14 1_555 1_555
O3 C13 1_555 1_555
O4 C13 1_555 1_555
O5 Zn2 1_555 1_555
O6 C21 1_555 1_555
O7 Zn1 1_555 1_555
O8 Zn1 1_555 1_555
O9 Zn1 1_555 1_555
N1 H1 1_555 1_555
N2 H2 1_555 1_555
N3 H3 1_555 1_555
N4 C31 1_555 1_555
N5 C34 1_555 1_555
C1 H4 1_555 1_555
C2 C1 1_555 1_555
H5 C2 1_555 1_555
C3 C2 1_555 1_555
H6 C3 1_555 1_555
C4 C3 1_555 1_555
H7 C4 1_555 1_555
C5 C4 1_555 1_555
H8 C5 1_555 1_555
C6 N1 1_555 1_555
C7 N1 1_555 1_555
C8 C7 1_555 1_555
C9 C8 1_555 1_555
H9 C9 1_555 1_555
C10 N2 1_555 1_555
C11 C10 1_555 1_555
C12 C7 1_555 1_555
H10 C12 1_555 1_555
C13 C8 1_555 1_555
C14 C11 1_555 1_555
C15 N2 1_555 1_555
C16 C15 1_555 1_555
H11 C16 1_555 1_555
C17 C16 1_555 1_555
H12 C17 1_555 1_555
C18 C17 1_555 1_555
H13 C18 1_555 1_555
C19 C18 1_555 1_555
H14 C19 1_555 1_555
C20 C15 1_555 1_555
H15 C20 1_555 1_555
C21 O5 1_555 1_555
C22 C21 1_555 1_555
C23 C22 1_555 1_555
H16 C23 1_555 1_555
C24 N3 1_555 1_555
C25 N3 1_555 1_555
C26 C25 1_555 1_555
H17 C26 1_555 1_555
C27 H18 1_555 1_555
C28 C26 1_555 1_555
H19 C28 1_555 1_555
C29 C27 1_555 1_555
H20 C29 1_555 1_555
C30 C25 1_555 1_555
H21 C30 1_555 1_555
C31 O7 1_555 1_555
H22 C31 1_555 1_555
C32 N4 1_555 1_555
H23 C32 1_555 1_555
H24 C32 1_555 1_555
H25 C32 1_555 1_555
C33 N4 1_555 1_555
H26 C33 1_555 1_555
H27 C33 1_555 1_555
H28 C33 1_555 1_555
C34 O8 1_555 1_555
H29 C34 1_555 1_555
C35 N5 1_555 1_555
H30 C35 1_555 1_555
H31 C35 1_555 1_555
H32 C35 1_555 1_555
C36 N5 1_555 1_555
H33 C36 1_555 1_555
H34 C36 1_555 1_555
H35 C36 1_555 1_555
O5B C21B 1_555 1_555
O6B C21B 1_555 1_555
N3B H3B 1_555 1_555
C21B C22B 1_555 1_555
C22B C24 1_555 1_555
C23B C22B 1_555 1_555
H16B C23B 1_555 1_555
C24B C22 1_555 1_555
C25B N3B 1_555 1_555
C26B C25B 1_555 1_555
H17B C26B 1_555 1_555
C27B H18B 1_555 1_555
C28B C26B 1_555 1_555
H19B C28B 1_555 1_555
C29B C27B 1_555 1_555
H20B C29B 1_555 1_555
C30B C25B 1_555 1_555
H21B C30B 1_555 1_555
Zn1B O1B 1_555 1_555
Zn2B O5B 1_555 1_555
O1B C14B 1_555 1_555
O2B Zn2B 1_555 1_555
O3B C13B 1_555 1_555
O4B C13B 1_555 1_555
O7B Zn1B 1_555 1_555
O8B Zn1B 1_555 1_555
O9B Zn1B 1_555 1_555
N1B H1B 1_555 1_555
N2B H2B 1_555 1_555
N4B C31B 1_555 1_555
N5B C34B 1_555 1_555
C1B H4B 1_555 1_555
C2B C1B 1_555 1_555
H5B C2B 1_555 1_555
C3B C2B 1_555 1_555
H6B C3B 1_555 1_555
C4B C3B 1_555 1_555
H7B C4B 1_555 1_555
C5B C4B 1_555 1_555
H8B C5B 1_555 1_555
C6B N1B 1_555 1_555
C7B N1B 1_555 1_555
C8B C7B 1_555 1_555
C9B C8B 1_555 1_555
H9B C9B 1_555 1_555
C10B N2B 1_555 1_555
C11B C10B 1_555 1_555
C12B C7B 1_555 1_555
H10B C12B 1_555 1_555
C13B C8B 1_555 1_555
C14B O2B 1_555 1_555
C15B N2B 1_555 1_555
C16B C15B 1_555 1_555
H11B C16B 1_555 1_555
C17B C16B 1_555 1_555
H12B C17B 1_555 1_555
C18B C17B 1_555 1_555
H13B C18B 1_555 1_555
C19B C18B 1_555 1_555
H14B C19B 1_555 1_555
C20B C15B 1_555 1_555
H15B C20B 1_555 1_555
C31B O7B 1_555 1_555
H22B C31B 1_555 1_555
C32B N4B 1_555 1_555
H23B C32B 1_555 1_555
H24B C32B 1_555 1_555
H25B C32B 1_555 1_555
C33B N4B 1_555 1_555
H26B C33B 1_555 1_555
H27B C33B 1_555 1_555
H28B C33B 1_555 1_555
C34B O8B 1_555 1_555
H29B C34B 1_555 1_555
C35B N5B 1_555 1_555
H30B C35B 1_555 1_555
H31B C35B 1_555 1_555
H32B C35B 1_555 1_555
C36B N5B 1_555 1_555
H33B C36B 1_555 1_555
H34B C36B 1_555 1_555
H35B C36B 1_555 1_555
Zn1_2 O9B 1_555 1_555
Zn1A O3B 1_555 1_555
Zn1B_2 O9 1_555 1_555
Zn1C O3 1_555 1_555
Zn2A O4B 1_555 1_555
Zn2C O4 1_555 1_555
O3A Zn1B 1_555 1_555
O3C Zn1 1_555 1_555
O4A Zn2B 1_555 1_555
O4C Zn2 1_555 1_555
O9_2 Zn1B 1_555 1_555
O9B_2 Zn1 1_555 1_555
Zn2 O9 1_555 1_555
C1 C6 1_555 1_555
C5 C6 1_555 1_555
C9 C10 1_555 1_555
C11 C12 1_555 1_555
C19 C20 1_555 1_555
C23 C24 1_555 1_555
C27 C28 1_555 1_555
C29 C30 1_555 1_555
N3B C24B 1_555 1_555
C23B C24B 1_555 1_555
C27B C28B 1_555 1_555
C29B C30B 1_555 1_555
Zn2B O9B 1_555 1_555
C1B C6B 1_555 1_555
C5B C6B 1_555 1_555
C9B C10B 1_555 1_555
C11B C12B 1_555 1_555
C11B C14B 1_555 1_555
C19B C20B 1_555 1_555
Zn1_2 O9_2 1_555 1_555
Zn1B_2 O9B_2 1_555 1_555

#END
