
#######################################################################
#
#                 Cambridge Crystallographic Data Centre
#                                CCDC 
#
#######################################################################
#
# If this CIF has been generated from an entry in the Cambridge 
# Structural Database, then it will include bibliographic, chemical, 
# crystal, experimental, refinement or atomic coordinate data resulting 
# from the CCDC's data processing and validation procedures.
#
#######################################################################

data_OJOZOE
_chemical_formula_moiety         '(C14 H26 Gd2 O25)n'
_symmetry_cell_setting           triclinic
_symmetry_space_group_name_H-M   'P -1'
_symmetry_Int_Tables_number      2
_space_group_name_Hall           '-P 1'
loop_
_symmetry_equiv_pos_site_id
_symmetry_equiv_pos_as_xyz
1 x,y,z
2 -x,-y,-z
_cell_length_a                   6.1139(4)
_cell_length_b                   8.7718(5)
_cell_length_c                   13.1543(8)
_cell_angle_alpha                101.048(2)
_cell_angle_beta                 101.805(2)
_cell_angle_gamma                96.546(2)
_cell_volume                     669.072
loop_
_atom_site_label
_atom_site_type_symbol
_atom_site_fract_x
_atom_site_fract_y
_atom_site_fract_z
Gd1 Gd 0.74716(4) 0.21931(3) 0.724571(17)
O1 O 0.5017(5) -0.1998(4) 0.4515(2)
O2 O 0.0650(5) 0.1066(4) 0.8005(2)
O3 O 0.7669(5) 0.3569(4) 0.9097(2)
H1 H 0.683(7) 0.330(4) 0.951(2)
O4 O 1.0673(5) 0.4551(4) 0.8137(2)
H2 H 1.173(5) 0.509(3) 0.791(3)
O5 O 0.6595(5) 0.4792(4) 0.7124(2)
O6 O 0.6302(5) 0.0290(4) 0.8293(2)
H3 H 0.674(5) -0.064(2) 0.825(3)
O7 O 0.5053(5) 0.2127(4) 1.0103(3)
H4 H 0.4596 0.2464 1.0651
O8 O 0.6583(5) 0.7138(4) 0.8154(3)
O9 O 0.3639(5) 0.2007(4) 0.7442(2)
O10 O 0.9927(5) 0.2535(4) 0.6107(3)
H5 H 0.9408 0.1871 0.5498
H6 H 1.1265 0.2368 0.6398
O11 O 0.6780(5) -0.0414(4) 0.6099(2)
C1 C 0.4084(7) 0.0083(6) 0.8505(3)
H7 H 0.3355 -0.1037 0.8203
C2 C 0.2678(7) 0.1152(5) 0.7940(3)
C3 C 0.4172(7) 0.0479(5) 0.9704(3)
H8 H 0.2624 0.0239 0.9830
C4 C 0.8955(7) 0.5079(5) 0.9587(3)
H9 H 0.8006 0.5772 0.9937
C5 C 0.5503(8) -0.0714(6) 0.5177(4)
C6 C 0.7436(7) 0.5913(6) 0.7916(4)
C7 C 0.9607(8) 0.5717(6) 0.8674(4)
H10 H 1.0660 0.6740 0.8947
O1A O 0.4983(5) 0.1998(4) 0.5485(2)
O11A O 0.3220(5) 0.0414(4) 0.3901(2)
C5A C 0.4497(8) 0.0714(6) 0.4823(4)
O2A O 0.9350(5) -0.1066(4) 1.1995(2)
O6A O 0.3698(5) -0.0290(4) 1.1707(2)
H3A H 0.326(5) 0.064(2) 1.175(3)
O7A O 0.4947(5) -0.2127(4) 0.9897(3)
H4A H 0.5404 -0.2464 0.9349
O9A O 0.6361(5) -0.2007(4) 1.2558(2)
C1A C 0.5916(7) -0.0083(6) 1.1495(3)
H7A H 0.6645 0.1037 1.1797
C2A C 0.7322(7) -0.1152(5) 1.2060(3)
C3A C 0.5828(7) -0.0479(5) 1.0296(3)
H8A H 0.7376 -0.0239 1.0170
O3A O 1.2331(5) 0.6431(4) 1.0903(2)
H1A H 1.317(7) 0.670(4) 1.049(2)
O4A O 0.9327(5) 0.5449(4) 1.1863(2)
H2A H 0.827(5) 0.491(3) 1.209(3)
O5A O 1.3405(5) 0.5208(4) 1.2876(2)
O8A O 1.3417(5) 0.2862(4) 1.1846(3)
C4A C 1.1045(7) 0.4921(5) 1.0413(3)
H9A H 1.1994 0.4228 1.0063
C6A C 1.2564(7) 0.4087(6) 1.2084(4)
C7A C 1.0393(8) 0.4283(6) 1.1326(4)
H10A H 0.9340 0.3260 1.1053
Gd1A Gd 0.25284(4) -0.21931(3) 0.275429(17)
O10A O 0.0073(5) -0.2535(4) 0.3893(3)
H5A H 0.0592 -0.1871 0.4502
H6A H -0.1265 -0.2368 0.3602
Gd1_2 Gd -0.25284(4) 0.21931(3) 0.724571(17)
Gd1A_2 Gd 0.25284(4) -0.21931(3) 1.275429(17)
Gd1A_3 Gd 1.25284(4) -0.21931(3) 1.275429(17)
Gd1A_4 Gd 1.25284(4) 0.78069(3) 1.275429(17)
O2_2 O 1.0650(5) 0.1066(4) 0.8005(2)
O2A_2 O -0.0650(5) -0.1066(4) 0.1995(2)
O3A_2 O 0.2331(5) -0.3569(4) 0.0903(2)
O4A_2 O -0.0673(5) -0.4551(4) 0.1863(2)
O5A_2 O 0.3405(5) -0.4792(4) 0.2876(2)
O6A_2 O 0.3698(5) -0.0290(4) 0.1707(2)
O9A_2 O 0.6361(5) -0.2007(4) 0.2558(2)
O12 O 0.2172(5) 0.6077(4) 0.6786(3)
H11 H 0.1508 0.5276 0.6271
H12 H 0.3605 0.6023 0.6973
O13 O 0.8906(6) 0.1321(4) 0.4025(3)
H13 H 1.0165 0.1049 0.3897
H14 H 0.8758 0.2231 0.3871
O14 O 0.2458(7) 0.4390(6) 0.4864(3)
H15 H 0.3772 0.4342 0.5253
H16 H 0.2628 0.4614 0.4266
loop_
_geom_bond_atom_site_label_1
_geom_bond_atom_site_label_2
_geom_bond_site_symmetry_1
_geom_bond_site_symmetry_2
Gd1 O3 1_555 1_555
O1 C5 1_555 1_555
O2 C2 1_555 1_555
O3 H1 1_555 1_555
O4 Gd1 1_555 1_555
H2 O4 1_555 1_555
O5 Gd1 1_555 1_555
O6 Gd1 1_555 1_555
H3 O6 1_555 1_555
O7 H4 1_555 1_555
O8 C6 1_555 1_555
O9 Gd1 1_555 1_555
O10 Gd1 1_555 1_555
H5 O10 1_555 1_555
H6 O10 1_555 1_555
O11 Gd1 1_555 1_555
C1 O6 1_555 1_555
H7 C1 1_555 1_555
C2 O9 1_555 1_555
C3 O7 1_555 1_555
H8 C3 1_555 1_555
C4 O3 1_555 1_555
H9 C4 1_555 1_555
C5 O11 1_555 1_555
C6 O5 1_555 1_555
C7 O4 1_555 1_555
H10 C7 1_555 1_555
O12 H11 1_555 1_555
H12 O12 1_555 1_555
O13 H13 1_555 1_555
H14 O13 1_555 1_555
O14 H15 1_555 1_555
H16 O14 1_555 1_555
O1A Gd1 1_555 1_555
O11A C5A 1_555 1_555
C5A C5 1_555 1_555
O2A C2A 1_555 1_555
O6A H3A 1_555 1_555
O7A H4A 1_555 1_555
O9A C2A 1_555 1_555
C1A O6A 1_555 1_555
H7A C1A 1_555 1_555
C2A C1A 1_555 1_555
C3A C3 1_555 1_555
H8A C3A 1_555 1_555
O3A H1A 1_555 1_555
O4A H2A 1_555 1_555
O5A C6A 1_555 1_555
O8A C6A 1_555 1_555
C4A C4 1_555 1_555
H9A C4A 1_555 1_555
C6A C7A 1_555 1_555
C7A O4A 1_555 1_555
H10A C7A 1_555 1_555
Gd1A O1 1_555 1_555
O10A Gd1A 1_555 1_555
H5A O10A 1_555 1_555
H6A O10A 1_555 1_555
Gd1_2 O2 1_555 1_555
Gd1A_2 O6A 1_555 1_555
Gd1A_3 O2A 1_555 1_555
Gd1A_4 O3A 1_555 1_555
O2_2 Gd1 1_555 1_555
O2A_2 Gd1A 1_555 1_555
O3A_2 Gd1A 1_555 1_555
O4A_2 Gd1A 1_555 1_555
O5A_2 Gd1A 1_555 1_555
O6A_2 Gd1A 1_555 1_555
O9A_2 Gd1A 1_555 1_555
C1 C2 1_555 1_555
C1 C3 1_555 1_555
C4 C7 1_555 1_555
C6 C7 1_555 1_555
O1A C5A 1_555 1_555
O11A Gd1A 1_555 1_555
O7A C3A 1_555 1_555
O9A Gd1A_2 1_555 1_555
C1A C3A 1_555 1_555
O3A C4A 1_555 1_555
O4A Gd1A_4 1_555 1_555
O5A Gd1A_4 1_555 1_555
C4A C7A 1_555 1_555

#END
