
#######################################################################
#
#                 Cambridge Crystallographic Data Centre
#                                CCDC 
#
#######################################################################
#
# If this CIF has been generated from an entry in the Cambridge 
# Structural Database, then it will include bibliographic, chemical, 
# crystal, experimental, refinement or atomic coordinate data resulting 
# from the CCDC's data processing and validation procedures.
#
#######################################################################

data_OPIPOT
_chemical_formula_moiety         '(C20 H20 Co2 N4 O8)n'
_symmetry_cell_setting           monoclinic
_symmetry_space_group_name_H-M   'P 21'
_symmetry_Int_Tables_number      4
_space_group_name_Hall           'P 2yb'
loop_
_symmetry_equiv_pos_site_id
_symmetry_equiv_pos_as_xyz
1 x,y,z
2 -x,1/2+y,-z
_cell_length_a                   6.5597(2)
_cell_length_b                   25.4447(8)
_cell_length_c                   7.9129(2)
_cell_angle_alpha                90
_cell_angle_beta                 91.950(1)
_cell_angle_gamma                90
_cell_volume                     1319.97
loop_
_atom_site_label
_atom_site_type_symbol
_atom_site_fract_x
_atom_site_fract_y
_atom_site_fract_z
Co1 Co 0.62539(6) 0.512672(12) 0.71232(5)
O1 O 0.7927(4) 0.47981(10) 0.9069(3)
O2 O 0.9370(4) 0.40428(11) 1.0005(3)
C1 C 0.8148(5) 0.43019(15) 0.9044(4)
C2 C 0.6769(5) 0.40198(11) 0.7749(4)
H1 H 0.6230 0.3692 0.8267
N1 N 0.5027(4) 0.43538(13) 0.7155(3)
H2 H 0.3968 0.4332 0.7885
H3 H 0.4565 0.4254 0.6092
C3 C 0.7943(5) 0.38761(12) 0.6190(4)
H4 H 0.7106 0.3625 0.5509
H5 H 0.9203 0.3690 0.6568
C4 C 0.8552(5) 0.43336(15) 0.5019(4)
O3 O 0.8332(4) 0.48010(10) 0.5365(3)
O4 O 0.9437(4) 0.41507(10) 0.3759(3)
Co2 Co 1.12881(6) 0.443930(12) 1.20086(5)
O5 O 0.2996(3) 0.46998(10) 1.0043(3)
O6 O 0.4202(4) 0.54342(9) 0.8893(3)
C5 C 0.3130(5) 0.52027(16) 0.9910(4)
C6 C 0.1813(4) 0.55208(11) 1.1091(3)
H6 H 0.1249 0.5832 1.0461
N2 N 0.0102(4) 0.52093(13) 1.1726(3)
H7 H -0.0991 0.5214 1.0966
H8 H -0.0309 0.5339 1.2745
C7 C 0.3160(5) 0.57147(10) 1.2577(3)
H9 H 0.2422 0.5999 1.3154
H10 H 0.4406 0.5872 1.2118
C8 C 0.3821(5) 0.53027(14) 1.3914(4)
O7 O 0.3437(4) 0.48279(10) 1.3734(3)
O8 O 0.4746(4) 0.54992(10) 1.5172(3)
N3 N 0.8098(4) 0.58248(13) 0.7458(3)
C9 C 0.9987(5) 0.58438(15) 0.6859(4)
H11 H 1.0505 0.5538 0.6335
C10 C 1.1220(5) 0.62851(17) 0.6963(4)
H12 H 1.2525 0.6284 0.6478
C11 C 1.0523(5) 0.67334(15) 0.7790(4)
C12 C 0.8614(6) 0.67013(16) 0.8497(5)
H13 H 0.8097 0.6992 0.9101
C13 C 0.7457(5) 0.62431(16) 0.8320(4)
H14 H 0.6168 0.6227 0.8830
C14 C 1.1695(5) 0.72292(16) 0.7916(4)
H15 H 1.1175 0.7497 0.8618
C15 C 1.3411(5) 0.73328(16) 0.7135(4)
H16 H 1.3923 0.7067 0.6420
C16 C 1.7708(5) 0.82955(15) 0.6959(4)
H17 H 1.9087 0.8292 0.6629
C17 C 1.6547(6) 0.78481(16) 0.6717(5)
H18 H 1.7104 0.7554 0.6155
C18 C 1.4582(6) 0.78242(15) 0.7284(4)
C19 C 1.3812(5) 0.82813(17) 0.8007(4)
H19 H 1.2458 0.8291 0.8396
C20 C 1.5044(5) 0.87165(15) 0.8147(4)
H20 H 1.4494 0.9024 0.8636
N4 N 1.6966(4) 0.87355(12) 0.7642(3)
Co1_2 Co 0.62539(6) 0.512672(12) 1.71232(5)
O4_2 O 0.9437(4) 0.41507(10) 1.3759(3)
Co2_2 Co 1.12881(6) 0.443930(12) 0.20086(5)
Co2_3 Co 0.12881(6) 0.443930(12) 1.20086(5)
Co2A Co 1.87119(6) 0.943930(12) 0.79914(5)
O5_2 O 1.2996(3) 0.46998(10) 1.0043(3)
N2_2 N 1.0102(4) 0.52093(13) 1.1726(3)
H7_2 H 0.9009 0.5214 1.0966
H8_2 H 0.9691 0.5339 1.2745
O7_2 O 1.3437(4) 0.48279(10) 1.3734(3)
O8_2 O 0.4746(4) 0.54992(10) 0.5172(3)
N4A N 1.3034(4) 0.37355(12) 1.2358(3)
loop_
_geom_bond_atom_site_label_1
_geom_bond_atom_site_label_2
_geom_bond_site_symmetry_1
_geom_bond_site_symmetry_2
Co1 O1 1_555 1_555
O1 C1 1_555 1_555
O2 C1 1_555 1_555
C1 C2 1_555 1_555
C2 H1 1_555 1_555
N1 Co1 1_555 1_555
H2 N1 1_555 1_555
H3 N1 1_555 1_555
C3 C2 1_555 1_555
H4 C3 1_555 1_555
H5 C3 1_555 1_555
C4 C3 1_555 1_555
O3 Co1 1_555 1_555
O4 C4 1_555 1_555
Co2 O2 1_555 1_555
O5 C5 1_555 1_555
O6 Co1 1_555 1_555
C5 O6 1_555 1_555
C6 C5 1_555 1_555
H6 C6 1_555 1_555
N2 C6 1_555 1_555
H7 N2 1_555 1_555
H8 N2 1_555 1_555
C7 C6 1_555 1_555
H9 C7 1_555 1_555
H10 C7 1_555 1_555
C8 C7 1_555 1_555
O7 C8 1_555 1_555
O8 C8 1_555 1_555
N3 Co1 1_555 1_555
C9 N3 1_555 1_555
H11 C9 1_555 1_555
C10 C9 1_555 1_555
H12 C10 1_555 1_555
C11 C10 1_555 1_555
C12 C11 1_555 1_555
H13 C12 1_555 1_555
C13 N3 1_555 1_555
H14 C13 1_555 1_555
C14 C11 1_555 1_555
H15 C14 1_555 1_555
C15 C14 1_555 1_555
H16 C15 1_555 1_555
C16 H17 1_555 1_555
C17 C16 1_555 1_555
H18 C17 1_555 1_555
C18 C15 1_555 1_555
C19 C18 1_555 1_555
H19 C19 1_555 1_555
C20 C19 1_555 1_555
H20 C20 1_555 1_555
N4 C16 1_555 1_555
Co1_2 O8 1_555 1_555
O4_2 Co2 1_555 1_555
Co2_2 O4 1_555 1_555
Co2_3 O5 1_555 1_555
Co2A N4 1_555 1_555
O5_2 Co2 1_555 1_555
N2_2 Co2 1_555 1_555
H7_2 N2_2 1_555 1_555
H8_2 N2_2 1_555 1_555
O7_2 Co2 1_555 1_555
O8_2 Co1 1_555 1_555
N4A Co2 1_555 1_555
C2 N1 1_555 1_555
C4 O3 1_555 1_555
N2 Co2_3 1_555 1_555
O7 Co2_3 1_555 1_555
C12 C13 1_555 1_555
C17 C18 1_555 1_555
C20 N4 1_555 1_555

#END
