
#######################################################################
#
#                 Cambridge Crystallographic Data Centre
#                                CCDC 
#
#######################################################################
#
# If this CIF has been generated from an entry in the Cambridge 
# Structural Database, then it will include bibliographic, chemical, 
# crystal, experimental, refinement or atomic coordinate data resulting 
# from the CCDC's data processing and validation procedures.
#
#######################################################################

data_OYEWIA
_chemical_formula_moiety         'C47 H35 Al11 N2 O35 1-'
_symmetry_cell_setting           orthorhombic
_symmetry_space_group_name_H-M   'P n n m'
_symmetry_Int_Tables_number      58
_space_group_name_Hall           '-P 2 2n'
loop_
_symmetry_equiv_pos_site_id
_symmetry_equiv_pos_as_xyz
1 x,y,z
2 -x,-y,z
3 1/2+x,1/2-y,1/2-z
4 1/2-x,1/2+y,1/2-z
5 -x,-y,-z
6 x,y,-z
7 1/2-x,1/2+y,1/2+z
8 1/2+x,1/2-y,1/2+z
_cell_length_a                   16.2796(7)
_cell_length_b                   16.7554(9)
_cell_length_c                   33.2117(12)
_cell_angle_alpha                90
_cell_angle_beta                 90
_cell_angle_gamma                90
_cell_volume                     9059.2
loop_
_atom_site_label
_atom_site_type_symbol
_atom_site_fract_x
_atom_site_fract_y
_atom_site_fract_z
C24 C 0.0863(5) 0.9320(5) 0.5000
H18 H 0.1325 0.9646 0.5000
O14 O 0.0613(3) 0.9144(2) 0.46748(11)
O14E O 0.0613(3) 0.9144(2) 0.53252(11)
Al1 Al 0.35705(5) 0.61657(4) 0.09137(2)
O1 O 0.39311(15) 0.64412(12) 0.04026(5)
O2 O 0.28927(14) 0.70900(12) 0.09323(6)
O3 O 0.2642(2) 0.5604(2) 0.07015(12)
O4 O 0.31729(14) 0.59462(12) 0.14495(6)
O5 O 0.44171(13) 0.68295(11) 0.11441(6)
O6 O 0.42205(13) 0.52722(11) 0.09238(5)
H1 H 0.4381 0.6217 0.0346
Al2 Al 0.35382(8) 0.70892(6) 0.0000
C1 C 0.29790(19) 0.77573(17) 0.07544(8)
C2 C 0.2406(4) 0.4890(3) 0.07746(19)
O7 O 0.31177(18) 0.78340(12) 0.03838(6)
O8 O 0.4545(4) 0.7725(4) 0.0000
O9 O 0.2491(2) 0.6535(2) 0.0000
C3 C 0.2932(2) 0.84790(18) 0.10028(9)
H2 H 0.2728 0.4595 0.0952
O10 O 0.1815(3) 0.4562(3) 0.06386(15)
C4 C 0.5218(8) 0.7761(8) 0.0165(4)
H3 H 0.2512 0.6121 0.0154
C5 C 0.2913(3) 0.84248(19) 0.14222(10)
C6 C 0.2940(3) 0.92364(19) 0.08284(10)
H4 H 0.5326 0.7482 0.0401
O11 O 0.5756(4) 0.8193(4) 0.0000
C7 C 0.2939(3) 0.9103(2) 0.16552(9)
H5 H 0.2884 0.7927 0.1545
C8 C 0.2948(3) 0.9913(2) 0.10642(11)
H6 H 0.2940 0.9285 0.0549
H7 H 0.2946 0.9055 0.1934
C9 C 0.2955(3) 0.9855(2) 0.14830(10)
H8 H 0.2948 1.0414 0.0943
N1 N 0.2977(3) 1.0543(2) 0.17181(10)
C10 C 0.2600(2) 1.05604(19) 0.21052(10)
C11 C 0.3446(3) 1.12170(19) 0.15903(11)
C12 C 0.3004(3) 1.0925(2) 0.24298(12)
C13 C 0.1820(3) 1.0233(2) 0.21596(11)
C14 C 0.3111(3) 1.1978(2) 0.16389(14)
C15 C 0.4233(3) 1.1142(2) 0.14307(13)
C16 C 0.2636(3) 1.0937(2) 0.28040(11)
H9 H 0.3517 1.1158 0.2393
C17 C 0.1459(2) 1.0241(2) 0.25424(10)
H10 H 0.1541 1.0011 0.1943
H11 H 0.2581 1.2038 0.1740
C18 C 0.3568(3) 1.2641(2) 0.15371(14)
C19 C 0.4685(3) 1.1803(2) 0.13258(11)
H12 H 0.4456 1.0637 0.1394
C20 C 0.1861(2) 1.06010(17) 0.28602(9)
H13 H 0.2907 1.1171 0.3020
H14 H 0.0950 1.0003 0.2582
C21 C 0.4356(2) 1.25669(17) 0.13720(10)
H15 H 0.3349 1.3147 0.1579
H16 H 0.5212 1.1741 0.1223
C22 C 0.1444(2) 1.06148(16) 0.32642(9)
C23 C 0.48572(19) 1.32890(16) 0.12742(8)
O12 O 0.07363(14) 1.02969(13) 0.32790(6)
O13 O 0.45224(14) 1.39540(12) 0.13323(6)
Al3 Al -0.0000 1.0000 0.36977(3)
H17 H 0.0849 0.9935 0.4262
O1E O 0.39311(15) 0.64412(12) -0.04026(5)
O7E O 0.31177(18) 0.78340(12) -0.03838(6)
C4E C 0.5218(8) 0.7761(8) -0.0165(4)
H3E H 0.2512 0.6121 -0.0154
H4E H 0.5326 0.7482 -0.0401
O4C O 0.18271(14) 1.09462(12) 0.35505(6)
O5A O 0.55829(13) 1.31705(11) 0.11441(6)
O13C O 0.04776(14) 0.89540(12) 0.36677(6)
Al1C Al 0.14295(5) 1.11657(4) 0.40863(2)
Al1A Al 0.64295(5) 1.38343(4) 0.09137(2)
Al3B Al 0.5000 1.5000 0.13023(3)
Al1B Al -0.14295(5) 0.88343(4) 0.40863(2)
O6C O 0.07795(13) 1.02722(11) 0.40762(5)
O12A O -0.07363(14) 0.97031(13) 0.32790(6)
O6B O -0.07795(13) 0.97278(11) 0.40762(5)
O13B O -0.04776(14) 1.10460(12) 0.36677(6)
O4B O -0.18271(14) 0.90538(12) 0.35505(6)
C22A C -0.1444(2) 0.93852(16) 0.32642(9)
H17A H -0.0849 1.0065 0.4262
C20A C -0.1861(2) 0.93990(17) 0.28602(9)
C16A C -0.2636(3) 0.9063(2) 0.28040(11)
C17A C -0.1459(2) 0.9759(2) 0.25424(10)
C12A C -0.3004(3) 0.9075(2) 0.24298(12)
H13A H -0.2907 0.8829 0.3020
C13A C -0.1820(3) 0.9767(2) 0.21596(11)
H14A H -0.0950 0.9997 0.2582
C10A C -0.2600(2) 0.94396(19) 0.21052(10)
H9A H -0.3517 0.8842 0.2393
H10A H -0.1541 0.9989 0.1943
N1A N -0.2977(3) 0.9457(2) 0.17181(10)
C9A C -0.2955(3) 1.0145(2) 0.14830(10)
C11A C -0.3446(3) 0.87830(19) 0.15903(11)
C7A C -0.2939(3) 1.0897(2) 0.16552(9)
C8A C -0.2948(3) 1.0087(2) 0.10642(11)
C14A C -0.3111(3) 0.8022(2) 0.16389(14)
C15A C -0.4233(3) 0.8858(2) 0.14307(13)
C5A C -0.2913(3) 1.15752(19) 0.14222(10)
H7A H -0.2946 1.0945 0.1934
C6A C -0.2940(3) 1.07636(19) 0.08284(10)
H8A H -0.2948 0.9586 0.0943
H11A H -0.2581 0.7962 0.1740
C18A C -0.3568(3) 0.7359(2) 0.15371(14)
C19A C -0.4685(3) 0.8197(2) 0.13258(11)
H12A H -0.4456 0.9363 0.1394
C3A C -0.2932(2) 1.15210(18) 0.10028(9)
H5A H -0.2884 1.2073 0.1545
H6A H -0.2940 1.0715 0.0549
C21A C -0.4356(2) 0.74331(17) 0.13720(10)
H15A H -0.3349 0.6853 0.1579
H16A H -0.5212 0.8259 0.1223
C1A C -0.29790(19) 1.22427(17) 0.07544(8)
C23A C -0.48572(19) 0.67110(16) 0.12742(8)
O2A O -0.28927(14) 1.29100(12) 0.09323(6)
O7A O -0.31177(18) 1.21660(12) 0.03838(6)
O5_2 O -0.55829(13) 0.68295(11) 0.11441(6)
O13A O -0.45224(14) 0.60460(12) 0.13323(6)
O4A O -0.31729(14) 1.40538(12) 0.14495(6)
Al1A_2 Al -0.35705(5) 1.38343(4) 0.09137(2)
Al2A Al -0.35382(8) 1.29108(6) 0.0000
Al1_2 Al -0.64295(5) 0.61657(4) 0.09137(2)
Al3B_2 Al -0.5000 0.5000 0.13023(3)
O1A O -0.39311(15) 1.35588(12) 0.04026(5)
O3A O -0.2642(2) 1.4396(2) 0.07015(12)
O5A_2 O -0.44171(13) 1.31705(11) 0.11441(6)
O6A O -0.42205(13) 1.47278(11) 0.09238(5)
H1A H -0.4381 1.3783 0.0346
C2A C -0.2406(4) 1.5110(3) 0.07746(19)
H2A H -0.2728 1.5405 0.0952
O10A O -0.1815(3) 1.5438(3) 0.06386(15)
loop_
_geom_bond_atom_site_label_1
_geom_bond_atom_site_label_2
_geom_bond_site_symmetry_1
_geom_bond_site_symmetry_2
Al1 O1 1_555 1_555
O1 H1 1_555 1_555
O2 Al1 1_555 1_555
O3 Al1 1_555 1_555
O4 Al1 1_555 1_555
O5 Al1 1_555 1_555
O6 Al1 1_555 1_555
Al2 O1 1_555 1_555
C1 O2 1_555 1_555
C2 O3 1_555 1_555
O7 Al2 1_555 1_555
O8 Al2 1_555 1_555
O9 Al2 1_555 1_555
C3 C1 1_555 1_555
H2 C2 1_555 1_555
O10 C2 1_555 1_555
C4 O8 1_555 1_555
H3 O9 1_555 1_555
C5 C3 1_555 1_555
C6 C3 1_555 1_555
H4 C4 1_555 1_555
O11 C4 1_555 1_555
C7 C5 1_555 1_555
H5 C5 1_555 1_555
C8 C6 1_555 1_555
H6 C6 1_555 1_555
H7 C7 1_555 1_555
C9 C7 1_555 1_555
H8 C8 1_555 1_555
N1 C9 1_555 1_555
C10 N1 1_555 1_555
C11 N1 1_555 1_555
C12 C10 1_555 1_555
C13 C10 1_555 1_555
C14 C11 1_555 1_555
C15 C11 1_555 1_555
C16 C12 1_555 1_555
H9 C12 1_555 1_555
C17 C13 1_555 1_555
H10 C13 1_555 1_555
H11 C14 1_555 1_555
C18 C14 1_555 1_555
C19 C15 1_555 1_555
H12 C15 1_555 1_555
C20 C16 1_555 1_555
H13 C16 1_555 1_555
H14 C17 1_555 1_555
C21 C18 1_555 1_555
H15 C18 1_555 1_555
H16 C19 1_555 1_555
C22 C20 1_555 1_555
C23 C21 1_555 1_555
O12 C22 1_555 1_555
O13 C23 1_555 1_555
Al3 O12 1_555 1_555
H17 O6C 1_555 1_555
C24 H18 1_555 1_555
O14 C24 1_555 1_555
O1E Al2 1_555 1_555
O7E Al2 1_555 1_555
C4E O8 1_555 1_555
H3E O9 1_555 1_555
H4E C4E 1_555 1_555
O4C C22 1_555 1_555
O5A C23 1_555 1_555
O13C Al3 1_555 1_555
Al1C O4C 1_555 1_555
Al1A O5A 1_555 1_555
Al3B O13 1_555 1_555
Al1B O6B 1_555 1_555
O6C Al3 1_555 1_555
O12A Al3 1_555 1_555
O6B Al3 1_555 1_555
O13B Al3 1_555 1_555
O4B Al1B 1_555 1_555
C22A O12A 1_555 1_555
H17A O6B 1_555 1_555
C20A C22A 1_555 1_555
C16A C20A 1_555 1_555
C17A C20A 1_555 1_555
C12A C16A 1_555 1_555
H13A C16A 1_555 1_555
C13A C17A 1_555 1_555
H14A C17A 1_555 1_555
C10A C12A 1_555 1_555
H9A C12A 1_555 1_555
H10A C13A 1_555 1_555
N1A C10A 1_555 1_555
C9A N1A 1_555 1_555
C11A N1A 1_555 1_555
C7A C9A 1_555 1_555
C8A C9A 1_555 1_555
C14A C11A 1_555 1_555
C15A C11A 1_555 1_555
C5A C7A 1_555 1_555
H7A C7A 1_555 1_555
C6A C8A 1_555 1_555
H8A C8A 1_555 1_555
H11A C14A 1_555 1_555
C18A C14A 1_555 1_555
C19A C15A 1_555 1_555
H12A C15A 1_555 1_555
C3A C5A 1_555 1_555
H5A C5A 1_555 1_555
H6A C6A 1_555 1_555
C21A C18A 1_555 1_555
H15A C18A 1_555 1_555
H16A C19A 1_555 1_555
C1A C3A 1_555 1_555
C23A C21A 1_555 1_555
O2A C1A 1_555 1_555
O7A C1A 1_555 1_555
O5_2 C23A 1_555 1_555
O13A C23A 1_555 1_555
O4A Al1A_2 1_555 1_555
Al1A_2 O2A 1_555 1_555
Al2A O7A 1_555 1_555
Al1_2 O5_2 1_555 1_555
Al3B_2 O13A 1_555 1_555
O1A Al1A_2 1_555 1_555
O3A Al1A_2 1_555 1_555
O5A_2 Al1A_2 1_555 1_555
O6A Al1A_2 1_555 1_555
H1A O1A 1_555 1_555
C2A O3A 1_555 1_555
H2A C2A 1_555 1_555
O10A C2A 1_555 1_555
O14E C24 1_555 1_555
C1 O7 1_555 1_555
C4 C4E 1_555 1_555
O11 C4E 1_555 1_555
C8 C9 1_555 1_555
C17 C20 1_555 1_555
C19 C21 1_555 1_555
Al1C O6C 1_555 1_555
O4B C22A 1_555 1_555
C13A C10A 1_555 1_555
C6A C3A 1_555 1_555
C19A C21A 1_555 1_555
Al2A O1A 1_555 1_555

#END
