
#######################################################################
#
#                 Cambridge Crystallographic Data Centre
#                                CCDC 
#
#######################################################################
#
# If this CIF has been generated from an entry in the Cambridge 
# Structural Database, then it will include bibliographic, chemical, 
# crystal, experimental, refinement or atomic coordinate data resulting 
# from the CCDC's data processing and validation procedures.
#
#######################################################################

data_PAPRUU
_chemical_formula_moiety         '(C24 H34 La2 N6 Ni3 O26)n'
_symmetry_cell_setting           trigonal
_symmetry_space_group_name_H-M   'P -3'
_symmetry_Int_Tables_number      147
_space_group_name_Hall           '-P 3'
loop_
_symmetry_equiv_pos_site_id
_symmetry_equiv_pos_as_xyz
1 x,y,z
2 -y,x-y,z
3 -x+y,-x,z
4 -x,-y,-z
5 y,-x+y,-z
6 x-y,x,-z
_cell_length_a                   13.2539(19)
_cell_length_b                   13.2539(19)
_cell_length_c                   7.4881(15)
_cell_angle_alpha                90
_cell_angle_beta                 90
_cell_angle_gamma                120
_cell_volume                     1139.17
loop_
_atom_site_label
_atom_site_type_symbol
_atom_site_fract_x
_atom_site_fract_y
_atom_site_fract_z
La1 La 0.3333 -0.3333 0.66949(3)
Ni1 Ni 0.5000 0.0000 1.0000
O1 O 0.4342(2) -0.1761(2) 0.4605(3)
O2 O 0.52356(18) -0.08028(19) 0.2149(3)
C1 C 0.4396(2) -0.1202(2) 0.3234(3)
C2 C 0.3401(3) -0.0990(3) 0.2924(4)
H1 H 0.2688 -0.1737 0.2853
H2 H 0.3335 -0.0579 0.3948
N1 N 0.34986(19) -0.03210(18) 0.1305(3)
H3 H 0.3545 0.0365 0.1611
C3 C 0.2555(2) -0.0939(3) 0.0015(4)
H4 H 0.2443 -0.0379 -0.0663
H5 H 0.1837 -0.1441 0.0649
C4 C 0.2822(2) -0.1667(2) -0.1258(4)
O3 O 0.37973(15) -0.16222(16) -0.1105(3)
O4 O 0.20988(16) -0.22885(17) -0.2394(3)
La1_2 La 0.3333 -0.3333 1.66949(3)
La1_3 La 0.3333 -0.3333 -0.33051(3)
Ni1A Ni -0.0000 -0.5000 0.0000
Ni1B Ni 0.5000 -0.5000 0.0000
Ni1_2 Ni 0.5000 0.0000 0.0000
Ni1A_2 Ni -0.0000 -0.5000 1.0000
Ni1B_2 Ni 0.5000 -0.5000 1.0000
O1A O 0.1761(2) -0.3897(3) 0.4605(3)
O1B O 0.3897(3) -0.4342(2) 0.4605(3)
O1_2 O 0.4342(2) -0.1761(2) 1.4605(3)
O1A_2 O 0.1761(2) -0.3897(3) 1.4605(3)
O1B_2 O 0.3897(3) -0.4342(2) 1.4605(3)
O1_3 O 0.4342(2) -0.1761(2) -0.5395(3)
O1A_3 O 0.1761(2) -0.3897(3) -0.5395(3)
O1B_3 O 0.3897(3) -0.4342(2) -0.5395(3)
O2A O 0.08028(19) -0.39616(26) 0.2149(3)
O2B O 0.39616(26) -0.52356(18) 0.2149(3)
O2_2 O 0.52356(18) -0.08028(19) 1.2149(3)
O2A_2 O 0.08028(19) -0.39616(26) 1.2149(3)
O2B_2 O 0.39616(26) -0.52356(18) 1.2149(3)
O2C O 0.47644(18) 0.08028(19) 0.7851(3)
O2D O -0.08028(19) -0.60384(26) 0.7851(3)
O2E O 0.60384(26) -0.47644(18) 0.7851(3)
C1A C 0.1202(2) -0.4402(3) 0.3234(3)
C1B C 0.4402(3) -0.4396(2) 0.3234(3)
C1_2 C 0.4396(2) -0.1202(2) 1.3234(3)
C1A_2 C 0.1202(2) -0.4402(3) 1.3234(3)
C1B_2 C 0.4402(3) -0.4396(2) 1.3234(3)
C2A C 0.0990(3) -0.5609(4) 0.2924(4)
C2B C 0.5609(4) -0.3401(3) 0.2924(4)
C2_2 C 0.3401(3) -0.0990(3) 1.2924(4)
C2A_2 C 0.0990(3) -0.5609(4) 1.2924(4)
C2B_2 C 0.5609(4) -0.3401(3) 1.2924(4)
H1A H 0.1737 -0.5575 0.2853
H1B H 0.5575 -0.2688 0.2853
H1_2 H 0.2688 -0.1737 1.2853
H1A_2 H 0.1737 -0.5575 1.2853
H1B_2 H 0.5575 -0.2688 1.2853
H2A H 0.0579 -0.6086 0.3948
H2B H 0.6086 -0.3335 0.3948
H2_2 H 0.3335 -0.0579 1.3948
H2A_2 H 0.0579 -0.6086 1.3948
H2B_2 H 0.6086 -0.3335 1.3948
N1A N 0.03210(18) -0.61804(26) 0.1305(3)
N1B N 0.61804(26) -0.34986(19) 0.1305(3)
N1_2 N 0.34986(19) -0.03210(18) 1.1305(3)
N1A_2 N 0.03210(18) -0.61804(26) 1.1305(3)
N1B_2 N 0.61804(26) -0.34986(19) 1.1305(3)
N1C N 0.65014(19) 0.03210(18) 0.8695(3)
N1D N -0.03210(18) -0.38196(26) 0.8695(3)
N1E N 0.38196(26) -0.65014(19) 0.8695(3)
H3A H -0.0365 -0.6820 0.1611
H3B H 0.6820 -0.3545 0.1611
H3_2 H 0.3545 0.0365 1.1611
H3A_2 H -0.0365 -0.6820 1.1611
H3B_2 H 0.6820 -0.3545 1.1611
H3C H 0.6455 -0.0365 0.8389
H3D H 0.0365 -0.3180 0.8389
H3E H 0.3180 -0.6455 0.8389
C3A C 0.0939(3) -0.6506(4) 0.0015(4)
C3B C 0.6506(4) -0.2555(2) 0.0015(4)
C3_2 C 0.2555(2) -0.0939(3) 1.0015(4)
C3A_2 C 0.0939(3) -0.6506(4) 1.0015(4)
C3B_2 C 0.6506(4) -0.2555(2) 1.0015(4)
H4A H 0.0379 -0.7178 -0.0663
H4B H 0.7178 -0.2443 -0.0663
H4_2 H 0.2443 -0.0379 0.9337
H4A_2 H 0.0379 -0.7178 0.9337
H4B_2 H 0.7178 -0.2443 0.9337
H5A H 0.1441 -0.6722 0.0649
H5B H 0.6722 -0.1837 0.0649
H5_2 H 0.1837 -0.1441 1.0649
H5A_2 H 0.1441 -0.6722 1.0649
H5B_2 H 0.6722 -0.1837 1.0649
C4A C 0.1667(2) -0.5511(3) -0.1258(4)
C4B C 0.5511(3) -0.2822(2) -0.1258(4)
C4_2 C 0.2822(2) -0.1667(2) 0.8742(4)
C4A_2 C 0.1667(2) -0.5511(3) 0.8742(4)
C4B_2 C 0.5511(3) -0.2822(2) 0.8742(4)
O3A O 0.16222(16) -0.45805(22) -0.1105(3)
O3B O 0.45805(22) -0.37973(15) -0.1105(3)
O3_2 O 0.37973(15) -0.16222(16) 0.8895(3)
O3A_2 O 0.16222(16) -0.45805(22) 0.8895(3)
O3B_2 O 0.45805(22) -0.37973(15) 0.8895(3)
O3C O 0.62027(15) 0.16222(16) 1.1105(3)
O3D O -0.16222(16) -0.54195(22) 1.1105(3)
O3E O 0.54195(22) -0.62027(15) 1.1105(3)
O4A O 0.22885(17) -0.56127(23) -0.2394(3)
O4B O 0.56127(23) -0.20988(16) -0.2394(3)
O4_2 O 0.20988(16) -0.22885(17) 0.7606(3)
O4A_2 O 0.22885(17) -0.56127(23) 0.7606(3)
O4B_2 O 0.56127(23) -0.20988(16) 0.7606(3)
O5 O 0.191(2) 0.077(2) 0.375(4)
O6 O 0.2649(12) 0.0625(9) 0.582(2)
loop_
_geom_bond_atom_site_label_1
_geom_bond_atom_site_label_2
_geom_bond_site_symmetry_1
_geom_bond_site_symmetry_2
La1 O1 1_555 1_555
Ni1 O2_2 1_555 1_555
O1 C1 1_555 1_555
O2 C1 1_555 1_555
C1 C2 1_555 1_555
C2 H1 1_555 1_555
H2 C2 1_555 1_555
N1 C2 1_555 1_555
H3 N1 1_555 1_555
C3 N1 1_555 1_555
H4 C3 1_555 1_555
H5 C3 1_555 1_555
C4 C3 1_555 1_555
O3 C4 1_555 1_555
O4 C4 1_555 1_555
La1_2 O1_2 1_555 1_555
La1_3 O3 1_555 1_555
Ni1A O2A 1_555 1_555
Ni1B O2B 1_555 1_555
Ni1_2 O2 1_555 1_555
Ni1A_2 O2A_2 1_555 1_555
Ni1B_2 O2B_2 1_555 1_555
O1A La1 1_555 1_555
O1B La1 1_555 1_555
O1_2 C1_2 1_555 1_555
O1A_2 La1_2 1_555 1_555
O1B_2 La1_2 1_555 1_555
O1_3 La1_3 1_555 1_555
O1A_3 La1_3 1_555 1_555
O1B_3 La1_3 1_555 1_555
O2A C1A 1_555 1_555
O2B C1B 1_555 1_555
O2_2 C1_2 1_555 1_555
O2A_2 C1A_2 1_555 1_555
O2B_2 C1B_2 1_555 1_555
O2C Ni1 1_555 1_555
O2D Ni1A_2 1_555 1_555
O2E Ni1B_2 1_555 1_555
C1A O1A 1_555 1_555
C1B O1B 1_555 1_555
C1_2 C2_2 1_555 1_555
C1A_2 O1A_2 1_555 1_555
C1B_2 O1B_2 1_555 1_555
C2A C1A 1_555 1_555
C2B C1B 1_555 1_555
C2_2 H1_2 1_555 1_555
C2A_2 C1A_2 1_555 1_555
C2B_2 C1B_2 1_555 1_555
H1A C2A 1_555 1_555
H1B C2B 1_555 1_555
H1A_2 C2A_2 1_555 1_555
H1B_2 C2B_2 1_555 1_555
H2A C2A 1_555 1_555
H2B C2B 1_555 1_555
H2_2 C2_2 1_555 1_555
H2A_2 C2A_2 1_555 1_555
H2B_2 C2B_2 1_555 1_555
N1A Ni1A 1_555 1_555
N1B Ni1B 1_555 1_555
N1_2 Ni1 1_555 1_555
N1A_2 Ni1A_2 1_555 1_555
N1B_2 Ni1B_2 1_555 1_555
N1C Ni1 1_555 1_555
N1D Ni1A_2 1_555 1_555
N1E Ni1B_2 1_555 1_555
H3A N1A 1_555 1_555
H3B N1B 1_555 1_555
H3_2 N1_2 1_555 1_555
H3A_2 N1A_2 1_555 1_555
H3B_2 N1B_2 1_555 1_555
H3C N1C 1_555 1_555
H3D N1D 1_555 1_555
H3E N1E 1_555 1_555
C3A N1A 1_555 1_555
C3B N1B 1_555 1_555
C3_2 N1_2 1_555 1_555
C3A_2 N1A_2 1_555 1_555
C3B_2 N1B_2 1_555 1_555
H4A C3A 1_555 1_555
H4B C3B 1_555 1_555
H4_2 C3_2 1_555 1_555
H4A_2 C3A_2 1_555 1_555
H4B_2 C3B_2 1_555 1_555
H5A C3A 1_555 1_555
H5B C3B 1_555 1_555
H5_2 C3_2 1_555 1_555
H5A_2 C3A_2 1_555 1_555
H5B_2 C3B_2 1_555 1_555
C4A C3A 1_555 1_555
C4B C3B 1_555 1_555
C4_2 C3_2 1_555 1_555
C4A_2 C3A_2 1_555 1_555
C4B_2 C3B_2 1_555 1_555
O3A La1_3 1_555 1_555
O3B La1_3 1_555 1_555
O3_2 La1 1_555 1_555
O3A_2 La1 1_555 1_555
O3B_2 La1 1_555 1_555
O3C Ni1 1_555 1_555
O3D Ni1A_2 1_555 1_555
O3E Ni1B_2 1_555 1_555
O4A La1_3 1_555 1_555
O4B La1_3 1_555 1_555
O4_2 La1 1_555 1_555
O4A_2 La1 1_555 1_555
O4B_2 La1 1_555 1_555
Ni1 O3_2 1_555 1_555
N1 Ni1_2 1_555 1_555
O3 Ni1_2 1_555 1_555
O4 La1_3 1_555 1_555
Ni1A O3A 1_555 1_555
Ni1B O3B 1_555 1_555
Ni1A_2 O3A_2 1_555 1_555
Ni1B_2 O3B_2 1_555 1_555
C2A N1A 1_555 1_555
C2B N1B 1_555 1_555
C2_2 N1_2 1_555 1_555
C2A_2 N1A_2 1_555 1_555
C2B_2 N1B_2 1_555 1_555
C4A O3A 1_555 1_555
C4A O4A 1_555 1_555
C4B O3B 1_555 1_555
C4B O4B 1_555 1_555
C4_2 O3_2 1_555 1_555
C4_2 O4_2 1_555 1_555
C4A_2 O3A_2 1_555 1_555
C4A_2 O4A_2 1_555 1_555
C4B_2 O3B_2 1_555 1_555
C4B_2 O4B_2 1_555 1_555

#END
