
#######################################################################
#
#                 Cambridge Crystallographic Data Centre
#                                CCDC 
#
#######################################################################
#
# If this CIF has been generated from an entry in the Cambridge 
# Structural Database, then it will include bibliographic, chemical, 
# crystal, experimental, refinement or atomic coordinate data resulting 
# from the CCDC's data processing and validation procedures.
#
#######################################################################

data_PEXBIF01
_chemical_formula_moiety         '(C34 H40 Cd2 N10 O11)n'
_symmetry_cell_setting           monoclinic
_symmetry_space_group_name_H-M   'I 2/a'
_symmetry_Int_Tables_number      15
_space_group_name_Hall           '-I 2ya'
loop_
_symmetry_equiv_pos_site_id
_symmetry_equiv_pos_as_xyz
1 x,y,z
2 1/2-x,y,-z
3 1/2+x,1/2+y,1/2+z
4 -x,1/2+y,1/2-z
5 -x,-y,-z
6 1/2+x,-y,z
7 1/2-x,1/2-y,1/2-z
8 x,1/2-y,1/2+z
_cell_length_a                   16.6620(19)
_cell_length_b                   14.8610(17)
_cell_length_c                   17.9777(15)
_cell_angle_alpha                90
_cell_angle_beta                 113.117(8)
_cell_angle_gamma                90
_cell_volume                     4094.09
loop_
_atom_site_label
_atom_site_type_symbol
_atom_site_fract_x
_atom_site_fract_y
_atom_site_fract_z
_atom_site_U_iso_or_equiv
_atom_site_thermal_displace_type
C1 C 0.2825(2) -0.0336(2) 0.41061(19) 0.0308 Uani
H1 H 0.2725 0.0278 0.4011 0.0370 Uiso
C2 C 0.2736(2) -0.1763(2) 0.39731(19) 0.0333 Uani
H2 H 0.2552 -0.2333 0.3762 0.0400 Uiso
C3 C 0.3405(2) -0.1599(2) 0.46762(19) 0.0327 Uani
H3 H 0.3764 -0.2021 0.5035 0.0390 Uiso
C4 C 0.4095(2) -0.0186(2) 0.54304(18) 0.0315 Uani
H4 H 0.4146 -0.0457 0.5938 0.0380 Uiso
H5 H 0.3892 0.0427 0.5421 0.0380 Uiso
C5 C 0.4987(2) -0.0171(2) 0.53876(18) 0.0331 Uani
H6 H 0.5371 0.0200 0.5827 0.0400 Uiso
H7 H 0.5220 -0.0777 0.5478 0.0400 Uiso
C6 C 0.1224(2) 0.0283(2) 0.09532(19) 0.0345 Uani
H8 H 0.1312 0.0823 0.1235 0.0410 Uiso
C7 C 0.1030(2) -0.1114(2) 0.0648(2) 0.0348 Uani
H9 H 0.0953 -0.1730 0.0684 0.0420 Uiso
C8 C 0.1034(3) -0.0676(2) -0.0010(2) 0.0422 Uani
H10 H 0.0971 -0.0935 -0.0501 0.0510 Uiso
C9 C 0.1252(2) 0.0962(2) -0.0310(2) 0.0345 Uani
H11 H 0.1218 0.1526 -0.0052 0.0410 Uiso
H12 H 0.0779 0.0950 -0.0840 0.0410 Uiso
C10 C 0.2103(2) 0.0916(2) -0.0404(2) 0.0337 Uani
H13 H 0.2145 0.1426 -0.0723 0.0400 Uiso
H14 H 0.2114 0.0374 -0.0699 0.0400 Uiso
C11 C -0.0764(2) -0.0447(2) 0.24426(19) 0.0303 Uani
H15 H -0.0788 -0.1072 0.2424 0.0360 Uiso
C12 C -0.1501(2) 0.0028(2) 0.23683(18) 0.0311 Uani
H16 H -0.2014 -0.0269 0.2311 0.0370 Uiso
C13 C -0.1461(2) 0.0956(2) 0.2381(2) 0.0327 Uani
H17 H -0.1952 0.1291 0.2331 0.0390 Uiso
C14 C -0.0695(2) 0.1392(2) 0.24671(19) 0.0324 Uani
C15 C 0.0047(2) 0.0879(2) 0.2579(2) 0.0323 Uani
C16 C 0.0951(2) 0.1265(2) 0.2798(2) 0.0325 Uani
C17 C -0.0694(2) 0.2409(2) 0.24284(19) 0.0319 Uani
Cd1 Cd 0.118046(15) -0.075851(15) 0.249497(14) 0.0305 Uani
N1 N 0.11564(18) -0.05028(19) 0.12545(16) 0.0343 Uani
N2 N 0.23631(17) -0.09834(18) 0.36119(15) 0.0289 Uani
N3 N -0.00114(16) -0.00348(18) 0.25410(15) 0.0311 Uani
N4 N 0.11475(17) 0.02058(18) 0.01782(16) 0.0330 Uani
N5 N 0.3451(2) -0.06908(17) 0.47563(18) 0.0314 Uani
O1 O -0.08646(16) 0.28140(15) 0.29541(15) 0.0379 Uani
O2 O -0.06098(15) 0.27982(15) 0.18631(15) 0.0367 Uani
O3 O 0.15231(17) 0.07845(13) 0.27351(16) 0.0326 Uani
O4 O 0.10523(15) 0.20463(14) 0.30458(14) 0.0347 Uani
C1D C 0.7175(2) 0.0336(2) 0.58939(19) 0.0308 Uani
H1D H 0.7275 -0.0278 0.5989 0.0370 Uiso
C2D C 0.7264(2) 0.1763(2) 0.60269(19) 0.0333 Uani
H2D H 0.7448 0.2333 0.6238 0.0400 Uiso
C3D C 0.6595(2) 0.1599(2) 0.53238(19) 0.0327 Uani
H3D H 0.6236 0.2021 0.4965 0.0390 Uiso
C4D C 0.5905(2) 0.0186(2) 0.45696(18) 0.0315 Uani
H4D H 0.5854 0.0457 0.4062 0.0380 Uiso
H5D H 0.6108 -0.0427 0.4579 0.0380 Uiso
C5D C 0.5013(2) 0.0171(2) 0.46124(18) 0.0331 Uani
H6D H 0.4629 -0.0200 0.4173 0.0400 Uiso
H7D H 0.4780 0.0777 0.4522 0.0400 Uiso
N2D N 0.76369(17) 0.09834(18) 0.63881(15) 0.0289 Uani
N5D N 0.6549(2) 0.06908(17) 0.52437(18) 0.0314 Uani
C6A C 0.3776(2) 0.0283(2) -0.09532(19) 0.0345 Uani
H8A H 0.3688 0.0823 -0.1235 0.0410 Uiso
C7A C 0.3970(2) -0.1114(2) -0.0648(2) 0.0348 Uani
H9A H 0.4047 -0.1730 -0.0684 0.0420 Uiso
C8A C 0.3966(3) -0.0676(2) 0.0010(2) 0.0422 Uani
H10A H 0.4029 -0.0935 0.0501 0.0510 Uiso
C9A C 0.3748(2) 0.0962(2) 0.0310(2) 0.0345 Uani
H11A H 0.3782 0.1526 0.0052 0.0410 Uiso
H12A H 0.4221 0.0950 0.0840 0.0410 Uiso
C10A C 0.2897(2) 0.0916(2) 0.0404(2) 0.0337 Uani
H13A H 0.2855 0.1426 0.0723 0.0400 Uiso
H14A H 0.2886 0.0374 0.0699 0.0400 Uiso
N1A N 0.38436(18) -0.05028(19) -0.12545(16) 0.0343 Uani
N4A N 0.38525(17) 0.02058(18) -0.01782(16) 0.0330 Uani
C11A C 0.5764(2) -0.0447(2) -0.24426(19) 0.0303 Uani
H15A H 0.5788 -0.1072 -0.2424 0.0360 Uiso
C12A C 0.6501(2) 0.0028(2) -0.23683(18) 0.0311 Uani
H16A H 0.7014 -0.0269 -0.2311 0.0370 Uiso
C13A C 0.6461(2) 0.0956(2) -0.2381(2) 0.0327 Uani
H17A H 0.6952 0.1291 -0.2331 0.0390 Uiso
C14A C 0.5695(2) 0.1392(2) -0.24671(19) 0.0324 Uani
C15A C 0.4953(2) 0.0879(2) -0.2579(2) 0.0323 Uani
C16A C 0.4049(2) 0.1265(2) -0.2798(2) 0.0325 Uani
C17A C 0.5694(2) 0.2409(2) -0.24284(19) 0.0319 Uani
Cd1A Cd 0.381954(15) -0.075851(15) -0.249497(14) 0.0305 Uani
N3A N 0.50114(16) -0.00348(18) -0.25410(15) 0.0311 Uani
O1A O 0.58646(16) 0.28140(15) -0.29541(15) 0.0379 Uani
O2A O 0.56098(15) 0.27982(15) -0.18631(15) 0.0367 Uani
O3A O 0.34769(17) 0.07845(13) -0.27351(16) 0.0326 Uani
O4A O 0.39477(15) 0.20463(14) -0.30458(14) 0.0347 Uani
Cd1B Cd 0.618046(15) 0.424149(15) -0.250503(14) 0.0305 Uani
Cd1C Cd -0.118046(15) 0.424149(15) 0.250503(14) 0.0305 Uani
Cd1D Cd 0.881954(15) 0.075851(15) 0.750503(14) 0.0305 Uani
N2A N 0.26369(17) -0.09834(18) -0.36119(15) 0.0289 Uani
O1B O 0.41354(16) -0.21860(15) -0.20459(15) 0.0379 Uani
O1C O 0.08646(16) -0.21860(15) 0.20459(15) 0.0379 Uani
O2B O 0.43902(15) -0.22018(15) -0.31369(15) 0.0367 Uani
O2C O 0.06098(15) -0.22018(15) 0.31369(15) 0.0367 Uani
O5 O 0.4318(3) 0.2005(3) 0.5451(3) 0.0384 Uani
H18 H 0.3963 0.1974 0.4960 0.0460 Uiso
H19 H 0.4055 0.1869 0.5756 0.0460 Uiso
O6 O 0.29906(16) 0.18820(16) 0.36176(15) 0.0407 Uani
H20 H 0.2456 0.2029 0.3467 0.0490 Uiso
H21 H 0.2997 0.1389 0.3380 0.0490 Uiso
O7 O 0.2500 0.1701(2) 0.5000 0.0365 Uani
H22 H 0.2326 0.2120 0.5223 0.0440 Uiso
H22A H 0.2674 0.2120 0.4777 0.0440 Uiso
loop_
_atom_site_aniso_label
_atom_site_aniso_U_11
_atom_site_aniso_U_22
_atom_site_aniso_U_33
_atom_site_aniso_U_23
_atom_site_aniso_U_13
_atom_site_aniso_U_12
C1 0.0356(16) 0.0274(14) 0.0299(15) 0.0051(12) 0.0135(13) -0.0010(11)
C2 0.0437(18) 0.0274(14) 0.0300(15) -0.0061(12) 0.0158(14) -0.0014(12)
C3 0.0350(17) 0.0323(15) 0.0287(15) 0.0100(13) 0.0104(13) -0.0038(12)
C4 0.0304(16) 0.0380(17) 0.0259(14) 0.0047(13) 0.0108(13) -0.0026(12)
C5 0.0372(17) 0.0358(16) 0.0282(16) 0.0045(13) 0.0149(14) -0.0031(12)
C6 0.0384(17) 0.0362(17) 0.0272(15) -0.0089(13) 0.0109(13) -0.0163(13)
C7 0.0464(19) 0.0292(16) 0.0317(16) -0.0072(13) 0.0184(15) 0.0005(13)
C8 0.058(2) 0.046(2) 0.0317(18) -0.0106(14) 0.0274(18) -0.0198(16)
C9 0.047(2) 0.0322(15) 0.0292(16) -0.0048(13) 0.0201(15) -0.0137(14)
C10 0.0440(19) 0.0295(14) 0.0294(16) 0.0099(12) 0.0165(15) 0.0003(13)
C11 0.0297(16) 0.0328(15) 0.0299(15) 0.0075(13) 0.0134(13) -0.0030(12)
C12 0.0322(15) 0.0312(16) 0.0297(15) 0.0102(13) 0.0118(12) -0.0031(12)
C13 0.0373(17) 0.0317(15) 0.0311(16) 0.0122(13) 0.0157(14) 0.0024(13)
C14 0.0376(17) 0.0315(16) 0.0318(15) 0.0122(13) 0.0177(14) 0.0013(12)
C15 0.0352(17) 0.0330(15) 0.0295(16) 0.0090(12) 0.0136(14) -0.0025(12)
C16 0.0362(17) 0.0286(15) 0.0338(16) 0.0131(12) 0.0148(14) 0.0031(12)
C17 0.0388(17) 0.0314(15) 0.0284(15) 0.0079(12) 0.0164(13) 0.0013(12)
Cd1 0.03280(18) 0.02979(16) 0.02962(16) 0.00774(8) 0.01317(12) -0.00196(7)
N1 0.0398(16) 0.0400(14) 0.0238(13) -0.0088(11) 0.0134(12) -0.0102(11)
N2 0.0302(13) 0.0314(12) 0.0244(12) 0.0064(10) 0.0100(11) -0.0028(10)
N3 0.0339(14) 0.0305(12) 0.0297(13) 0.0110(11) 0.0134(11) 0.0007(10)
N4 0.0343(14) 0.0360(14) 0.0279(13) 0.0101(11) 0.0112(11) -0.0022(11)
N5 0.0364(16) 0.0327(14) 0.0286(14) -0.0093(10) 0.0165(12) -0.0018(10)
O1 0.0504(14) 0.0295(11) 0.0353(12) -0.0056(10) 0.0183(11) 0.0006(10)
O2 0.0394(12) 0.0325(11) 0.0444(13) 0.0182(10) 0.0231(11) 0.0035(9)
O3 0.0325(13) 0.0315(12) 0.0343(12) -0.0095(9) 0.0135(11) -0.0001(8)
O4 0.0412(13) 0.0274(11) 0.0382(13) 0.0108(9) 0.0184(10) 0.0013(9)
C1D 0.0356 0.0274 0.0299 0.0051 0.0135 -0.001
C2D 0.0437 0.0274 0.03 -0.0061 0.0158 -0.0014
C3D 0.035 0.0323 0.0287 0.01 0.0104 -0.0038
C4D 0.0304 0.038 0.0259 0.0047 0.0108 -0.0026
C5D 0.0372 0.0358 0.0282 0.0045 0.0149 -0.0031
N2D 0.0302 0.0314 0.0244 0.0064 0.01 -0.0028
N5D 0.0364 0.0327 0.0286 -0.0093 0.0165 -0.0018
C6A 0.0384 0.0362 0.0272 0.0089 0.0109 0.0163
C7A 0.0464 0.0292 0.0317 0.0072 0.0184 -0.0005
C8A 0.058 0.046 0.0317 0.0106 0.0274 0.0198
C9A 0.047 0.0322 0.0292 0.0048 0.0201 0.0137
C10A 0.044 0.0295 0.0294 -0.0099 0.0165 -0.0003
N1A 0.0398 0.04 0.0238 0.0088 0.0134 0.0102
N4A 0.0343 0.036 0.0279 -0.0101 0.0112 0.0022
C11A 0.0297 0.0328 0.0299 -0.0075 0.0134 0.003
C12A 0.0322 0.0312 0.0297 -0.0102 0.0118 0.0031
C13A 0.0373 0.0317 0.0311 -0.0122 0.0157 -0.0024
C14A 0.0376 0.0315 0.0318 -0.0122 0.0177 -0.0013
C15A 0.0352 0.033 0.0295 -0.009 0.0136 0.0025
C16A 0.0362 0.0286 0.0338 -0.0131 0.0148 -0.0031
C17A 0.0388 0.0314 0.0284 -0.0079 0.0164 -0.0013
Cd1A 0.0328 0.02979 0.02962 -0.00774 0.01317 0.00196
N3A 0.0339 0.0305 0.0297 -0.011 0.0134 -0.0007
O1A 0.0504 0.0295 0.0353 0.0056 0.0183 -0.0006
O2A 0.0394 0.0325 0.0444 -0.0182 0.0231 -0.0035
O3A 0.0325 0.0315 0.0343 0.0095 0.0135 0.0001
O4A 0.0412 0.0274 0.0382 -0.0108 0.0184 -0.0013
Cd1B 0.0328 0.02979 0.02962 0.00774 0.01317 -0.00196
Cd1C 0.0328 0.02979 0.02962 -0.00774 0.01317 0.00196
Cd1D 0.0328 0.02979 0.02962 0.00774 0.01317 -0.00196
N2A 0.0302 0.0314 0.0244 -0.0064 0.01 0.0028
O1B 0.0504 0.0295 0.0353 -0.0056 0.0183 0.0006
O1C 0.0504 0.0295 0.0353 0.0056 0.0183 -0.0006
O2B 0.0394 0.0325 0.0444 0.0182 0.0231 0.0035
O2C 0.0394 0.0325 0.0444 -0.0182 0.0231 -0.0035
O5 0.054(3) 0.029(2) 0.037(2) 0.0110(19) 0.023(2) -0.0012(19)
O6 0.0456(14) 0.0394(12) 0.0401(13) -0.0068(10) 0.0202(11) 0.0007(10)
O7 0.0460(18) 0.0328(16) 0.0363(17) 0.000 0.0223(15) 0.000
loop_
_geom_bond_atom_site_label_1
_geom_bond_atom_site_label_2
_geom_bond_site_symmetry_1
_geom_bond_site_symmetry_2
C1 H1 1_555 1_555
C2 H2 1_555 1_555
C3 C2 1_555 1_555
H3 C3 1_555 1_555
C4 H4 1_555 1_555
H5 C4 1_555 1_555
C5 C4 1_555 1_555
H6 C5 1_555 1_555
H7 C5 1_555 1_555
C6 H8 1_555 1_555
C7 H9 1_555 1_555
C8 C7 1_555 1_555
H10 C8 1_555 1_555
C9 H11 1_555 1_555
H12 C9 1_555 1_555
C10 C9 1_555 1_555
H13 C10 1_555 1_555
H14 C10 1_555 1_555
C11 H15 1_555 1_555
C12 C11 1_555 1_555
H16 C12 1_555 1_555
C13 C12 1_555 1_555
H17 C13 1_555 1_555
C14 C13 1_555 1_555
C15 C14 1_555 1_555
C16 C15 1_555 1_555
C17 C14 1_555 1_555
Cd1 N1 1_555 1_555
N1 C6 1_555 1_555
N2 C1 1_555 1_555
N3 C11 1_555 1_555
N4 C6 1_555 1_555
N5 C1 1_555 1_555
O1 C17 1_555 1_555
O2 C17 1_555 1_555
O3 C16 1_555 1_555
O4 C16 1_555 1_555
O5 H18 1_555 1_555
H19 O5 1_555 1_555
O6 H20 1_555 1_555
H21 O6 1_555 1_555
O7 H22 1_555 1_555
C1D H1D 1_555 1_555
C2D H2D 1_555 1_555
C3D C2D 1_555 1_555
H3D C3D 1_555 1_555
C4D H4D 1_555 1_555
H5D C4D 1_555 1_555
C5D C5 1_555 1_555
H6D C5D 1_555 1_555
H7D C5D 1_555 1_555
N2D C1D 1_555 1_555
N5D C1D 1_555 1_555
C6A H8A 1_555 1_555
C7A H9A 1_555 1_555
C8A C7A 1_555 1_555
H10A C8A 1_555 1_555
C9A H11A 1_555 1_555
H12A C9A 1_555 1_555
C10A C10 1_555 1_555
H13A C10A 1_555 1_555
H14A C10A 1_555 1_555
N1A C6A 1_555 1_555
N4A C6A 1_555 1_555
C11A H15A 1_555 1_555
C12A C11A 1_555 1_555
H16A C12A 1_555 1_555
C13A C12A 1_555 1_555
H17A C13A 1_555 1_555
C14A C13A 1_555 1_555
C15A C14A 1_555 1_555
C16A C15A 1_555 1_555
C17A C14A 1_555 1_555
Cd1A N1A 1_555 1_555
N3A C11A 1_555 1_555
O1A C17A 1_555 1_555
O2A C17A 1_555 1_555
O3A C16A 1_555 1_555
O4A C16A 1_555 1_555
Cd1B O1A 1_555 1_555
Cd1C O1 1_555 1_555
Cd1D N2D 1_555 1_555
N2A Cd1A 1_555 1_555
O1B Cd1A 1_555 1_555
O1C Cd1 1_555 1_555
O2B Cd1A 1_555 1_555
O2C Cd1 1_555 1_555
H22A O7 1_555 1_555
C2 N2 1_555 1_555
C3 N5 1_555 1_555
C4 N5 1_555 1_555
C7 N1 1_555 1_555
C8 N4 1_555 1_555
C9 N4 1_555 1_555
C15 N3 1_555 1_555
Cd1 N2 1_555 1_555
Cd1 N3 1_555 1_555
Cd1 O3 1_555 1_555
O2 Cd1C 1_555 1_555
C2D N2D 1_555 1_555
C3D N5D 1_555 1_555
C4D C5D 1_555 1_555
C4D N5D 1_555 1_555
C7A N1A 1_555 1_555
C8A N4A 1_555 1_555
C9A C10A 1_555 1_555
C9A N4A 1_555 1_555
C15A N3A 1_555 1_555
Cd1A N3A 1_555 1_555
Cd1A O3A 1_555 1_555
O2A Cd1B 1_555 1_555

#END
