
#######################################################################
#
#                 Cambridge Crystallographic Data Centre
#                                CCDC 
#
#######################################################################
#
# If this CIF has been generated from an entry in the Cambridge 
# Structural Database, then it will include bibliographic, chemical, 
# crystal, experimental, refinement or atomic coordinate data resulting 
# from the CCDC's data processing and validation procedures.
#
#######################################################################

data_PEXTUI
_chemical_formula_moiety         '(C36 H34 Cd5 O35)n'
_symmetry_cell_setting           monoclinic
_symmetry_space_group_name_H-M   'P 21/c'
_symmetry_Int_Tables_number      14
_space_group_name_Hall           '-P 2ybc'
loop_
_symmetry_equiv_pos_site_id
_symmetry_equiv_pos_as_xyz
1 x,y,z
2 -x,1/2+y,1/2-z
3 -x,-y,-z
4 x,1/2-y,1/2+z
_cell_length_a                   10.226(2)
_cell_length_b                   10.814(2)
_cell_length_c                   29.876(6)
_cell_angle_alpha                90
_cell_angle_beta                 99.437(3)
_cell_angle_gamma                90
_cell_volume                     3259.09
loop_
_atom_site_label
_atom_site_type_symbol
_atom_site_fract_x
_atom_site_fract_y
_atom_site_fract_z
Cd1 Cd -0.02927(4) 0.79663(4) 0.103330(14)
Cd2 Cd 0.27186(4) 0.62628(4) 0.150910(13)
Cd3 Cd 0.5000 1.5000 0.0000
C1 C 0.2347(5) 0.8506(5) 0.07856(19)
C2 C 0.3506(5) 0.9235(5) 0.06872(19)
C3 C 0.3323(5) 1.0440(5) 0.0524(2)
H1 H 0.2471 1.0768 0.0461
C4 C 0.4391(6) 1.1150(5) 0.04560(19)
C5 C 0.5668(5) 1.0659(5) 0.0551(2)
H2 H 0.6391 1.1137 0.0505
C6 C 0.5863(5) 0.9464(5) 0.0713(2)
C7 C 0.4785(5) 0.8748(5) 0.0783(2)
H3 H 0.4916 0.7945 0.0893
C8 C 0.4189(6) 1.2467(6) 0.0292(2)
C9 C 0.7248(5) 0.8958(6) 0.0830(2)
C10 C 0.0184(6) 0.5655(6) 0.1744(2)
C11 C -0.0962(5) 0.5311(6) 0.1976(2)
C12 C -0.2246(6) 0.5630(6) 0.1794(2)
H4 H -0.2415 0.6059 0.1521
C13 C -0.3292(6) 0.5312(7) 0.2019(2)
C14 C -0.3041(6) 0.4637(7) 0.2413(2)
H5 H -0.3744 0.4392 0.2555
C15 C -0.1757(6) 0.4315(6) 0.2604(2)
C16 C -0.0719(6) 0.4664(7) 0.2384(2)
H6 H 0.0148 0.4464 0.2511
C17 C -0.4710(6) 0.5668(7) 0.1833(2)
C18 C -0.1491(7) 0.3598(7) 0.3042(2)
O1 O 0.2480(4) 0.7343(4) 0.08447(14)
O2 O 0.1303(4) 0.9078(5) 0.0804(2)
O3 O 0.5212(5) 1.3116(4) 0.0292(2)
O4 O 0.3061(6) 1.2858(5) 0.0167(3)
O5 O 0.8200(4) 0.9650(5) 0.0803(2)
O6 O 0.7410(4) 0.7862(4) 0.09632(17)
O7 O -0.0038(5) 0.6024(5) 0.13415(16)
O8 O 0.1328(5) 0.5533(7) 0.1966(2)
O9 O -0.4992(5) 0.6079(6) 0.14396(19)
O10 O -0.5558(5) 0.5531(8) 0.2076(2)
O11 O -0.0320(5) 0.3559(6) 0.32387(18)
O12 O -0.2492(5) 0.3131(6) 0.31743(18)
O13 O -0.0628(7) 0.7129(10) 0.0315(2)
O14 O 0.2536(9) 0.4408(6) 0.1111(3)
O15 O 0.6164(5) 1.5659(4) 0.06830(16)
O16 O 0.2999(6) 1.5516(5) 0.0250(2)
Cd1B Cd 1.02927(4) 2.20337(4) -0.103330(14)
Cd1_2 Cd 0.97073(4) 0.79663(4) 0.103330(14)
Cd1A Cd 0.02927(4) 0.29663(4) 0.396670(14)
Cd1B_2 Cd 0.02927(4) 2.20337(4) -0.103330(14)
Cd1A_2 Cd 0.02927(4) 1.29663(4) 0.396670(14)
Cd2B Cd 0.72814(4) 2.37372(4) -0.150910(13)
Cd2_2 Cd -0.72814(4) 0.62628(4) 0.150910(13)
Cd2A Cd -0.27186(4) 0.12628(4) 0.349090(13)
Cd2A_2 Cd -0.27186(4) 1.12628(4) 0.349090(13)
Cd2A_3 Cd 0.72814(4) 1.12628(4) 0.349090(13)
C1B C 0.7653(5) 2.1494(5) -0.07856(19)
C2B C 0.6494(5) 2.0765(5) -0.06872(19)
C3B C 0.6677(5) 1.9560(5) -0.0524(2)
H1B H 0.7529 1.9232 -0.0461
C4B C 0.5609(6) 1.8850(5) -0.04560(19)
C5B C 0.4332(5) 1.9341(5) -0.0551(2)
H2B H 0.3609 1.8863 -0.0505
C6B C 0.4137(5) 2.0536(5) -0.0713(2)
C7B C 0.5215(5) 2.1252(5) -0.0783(2)
H3B H 0.5084 2.2055 -0.0893
C8B C 0.5811(6) 1.7533(6) -0.0292(2)
C9B C 0.2752(5) 2.1042(6) -0.0830(2)
C10A C -0.0184(6) 1.0655(6) 0.3256(2)
C11A C 0.0962(5) 1.0311(6) 0.3024(2)
C12A C 0.2246(6) 1.0630(6) 0.3206(2)
H4A H 0.2415 1.1059 0.3479
C13A C 0.3292(6) 1.0312(7) 0.2981(2)
C14A C 0.3041(6) 0.9637(7) 0.2587(2)
H5A H 0.3744 0.9392 0.2445
C15A C 0.1757(6) 0.9315(6) 0.2396(2)
C16A C 0.0719(6) 0.9664(7) 0.2616(2)
H6A H -0.0148 0.9464 0.2489
C17A C 0.4710(6) 1.0668(7) 0.3167(2)
C18A C 0.1491(7) 0.8598(7) 0.1958(2)
O1B O 0.7520(4) 2.2657(4) -0.08447(14)
O2B O 0.8697(4) 2.0922(5) -0.0804(2)
O3B O 0.4788(5) 1.6884(4) -0.0292(2)
O4B O 0.6939(6) 1.7142(5) -0.0167(3)
O5B O 0.1800(4) 2.0350(5) -0.0803(2)
O5_2 O -0.1800(4) 0.9650(5) 0.0803(2)
O5B_2 O 1.1800(4) 2.0350(5) -0.0803(2)
O6B O 0.2590(4) 2.2138(4) -0.09632(17)
O6_2 O -0.2590(4) 0.7862(4) 0.09632(17)
O6B_2 O 1.2590(4) 2.2138(4) -0.09632(17)
O7A O 0.0038(5) 1.1024(5) 0.36585(16)
O7B O 1.0038(5) 2.3976(5) -0.13415(16)
O8A O -0.1328(5) 1.0533(7) 0.3034(2)
O8B O 0.8672(5) 2.4467(7) -0.1966(2)
O9A O 0.4992(5) 1.1079(6) 0.35604(19)
O9_2 O 0.5008(5) 0.6079(6) 0.14396(19)
O9B O 0.4992(5) 2.3921(6) -0.14396(19)
O10A O 0.5558(5) 1.0531(8) 0.2924(2)
O10_2 O 0.4442(5) 0.5531(8) 0.2076(2)
O10B O 0.5558(5) 2.4469(8) -0.2076(2)
O11A O 0.0320(5) 0.8559(6) 0.17613(18)
O11C O 0.9680(5) 2.1441(6) -0.17613(18)
O12A O 0.2492(5) 0.8131(6) 0.18257(18)
O12C O 0.7508(5) 2.1869(6) -0.18257(18)
O13B O 1.0628(7) 2.2871(10) -0.0315(2)
O14B O 0.7464(9) 2.5592(6) -0.1111(3)
O15B O 0.3836(5) 1.4341(4) -0.06830(16)
O16B O 0.7001(6) 1.4484(5) -0.0250(2)
O17 O 0.902(3) 0.399(3) 0.0558(12)
O18 O 0.924(2) 0.175(2) 0.0304(8)
O19 O 0.268(4) 0.271(6) 0.2179(16)
loop_
_geom_bond_atom_site_label_1
_geom_bond_atom_site_label_2
_geom_bond_site_symmetry_1
_geom_bond_site_symmetry_2
Cd1 O2 1_555 1_555
Cd2 O1 1_555 1_555
Cd3 O3 1_555 1_555
C1 C2 1_555 1_555
C2 C3 1_555 1_555
C3 H1 1_555 1_555
C4 C3 1_555 1_555
C5 C4 1_555 1_555
H2 C5 1_555 1_555
C6 C5 1_555 1_555
C7 C2 1_555 1_555
H3 C7 1_555 1_555
C8 C4 1_555 1_555
C9 C6 1_555 1_555
C10 C11 1_555 1_555
C11 C12 1_555 1_555
C12 H4 1_555 1_555
C13 C12 1_555 1_555
C14 C13 1_555 1_555
H5 C14 1_555 1_555
C15 C14 1_555 1_555
C16 C11 1_555 1_555
H6 C16 1_555 1_555
C17 C13 1_555 1_555
C18 C15 1_555 1_555
O1 C1 1_555 1_555
O2 C1 1_555 1_555
O3 C8 1_555 1_555
O4 C8 1_555 1_555
O5 C9 1_555 1_555
O6 C9 1_555 1_555
O7 Cd1 1_555 1_555
O8 Cd2 1_555 1_555
O9 C17 1_555 1_555
O10 C17 1_555 1_555
O11 C18 1_555 1_555
O12 C18 1_555 1_555
O13 Cd1 1_555 1_555
O14 Cd2 1_555 1_555
O15 Cd3 1_555 1_555
O16 Cd3 1_555 1_555
Cd1B O2B 1_555 1_555
Cd1_2 O5 1_555 1_555
Cd1A O11 1_555 1_555
Cd1B_2 O5B 1_555 1_555
Cd1A_2 O7A 1_555 1_555
Cd2B O1B 1_555 1_555
Cd2_2 O9 1_555 1_555
Cd2A O12 1_555 1_555
Cd2A_2 O8A 1_555 1_555
Cd2A_3 O9A 1_555 1_555
C1B C2B 1_555 1_555
C2B C3B 1_555 1_555
C3B H1B 1_555 1_555
C4B C3B 1_555 1_555
C5B C4B 1_555 1_555
H2B C5B 1_555 1_555
C6B C5B 1_555 1_555
C7B C2B 1_555 1_555
H3B C7B 1_555 1_555
C8B C4B 1_555 1_555
C9B C6B 1_555 1_555
C10A C11A 1_555 1_555
C11A C12A 1_555 1_555
C12A H4A 1_555 1_555
C13A C12A 1_555 1_555
C14A C13A 1_555 1_555
H5A C14A 1_555 1_555
C15A C14A 1_555 1_555
C16A C11A 1_555 1_555
H6A C16A 1_555 1_555
C17A C13A 1_555 1_555
C18A C15A 1_555 1_555
O1B C1B 1_555 1_555
O2B C1B 1_555 1_555
O3B Cd3 1_555 1_555
O4B C8B 1_555 1_555
O5B C9B 1_555 1_555
O5_2 Cd1 1_555 1_555
O5B_2 Cd1B 1_555 1_555
O6B Cd1B_2 1_555 1_555
O6_2 Cd1 1_555 1_555
O6B_2 Cd1B 1_555 1_555
O7A C10A 1_555 1_555
O7B Cd1B 1_555 1_555
O8A C10A 1_555 1_555
O8B Cd2B 1_555 1_555
O9A C17A 1_555 1_555
O9_2 Cd2 1_555 1_555
O9B Cd2B 1_555 1_555
O10A Cd2A_3 1_555 1_555
O10_2 Cd2 1_555 1_555
O10B Cd2B 1_555 1_555
O11A Cd1 1_555 1_555
O11C Cd1B 1_555 1_555
O12A Cd2 1_555 1_555
O12C Cd2B 1_555 1_555
O13B Cd1B 1_555 1_555
O14B Cd2B 1_555 1_555
O15B Cd3 1_555 1_555
O16B Cd3 1_555 1_555
C6 C7 1_555 1_555
C10 O7 1_555 1_555
C10 O8 1_555 1_555
C15 C16 1_555 1_555
O6 Cd1_2 1_555 1_555
O10 Cd2_2 1_555 1_555
C6B C7B 1_555 1_555
C8B O3B 1_555 1_555
C9B O6B 1_555 1_555
C15A C16A 1_555 1_555
C17A O10A 1_555 1_555
C18A O11A 1_555 1_555
C18A O12A 1_555 1_555

#END
