
#######################################################################
#
#                 Cambridge Crystallographic Data Centre
#                                CCDC 
#
#######################################################################
#
# If this CIF has been generated from an entry in the Cambridge 
# Structural Database, then it will include bibliographic, chemical, 
# crystal, experimental, refinement or atomic coordinate data resulting 
# from the CCDC's data processing and validation procedures.
#
#######################################################################

data_PUYZUF
_chemical_formula_moiety         '(C22 H24 Cd2 N1 S6 1-)n'
_symmetry_cell_setting           triclinic
_symmetry_space_group_name_H-M   'P -1'
_symmetry_Int_Tables_number      2
_space_group_name_Hall           '-P 1'
loop_
_symmetry_equiv_pos_site_id
_symmetry_equiv_pos_as_xyz
1 x,y,z
2 -x,-y,-z
_cell_length_a                   11.49545(56)
_cell_length_b                   10.67562(51)
_cell_length_c                   8.70190(36)
_cell_angle_alpha                58.5230(20)
_cell_angle_beta                 106.4984(32)
_cell_angle_gamma                110.9806(28)
_cell_volume                     844.045
loop_
_atom_site_label
_atom_site_type_symbol
_atom_site_fract_x
_atom_site_fract_y
_atom_site_fract_z
_atom_site_U_iso_or_equiv
_atom_site_thermal_displace_type
Cd1 Cd 0.15569 0.11661 0.97645 0.1169 Uiso
S1 S 0.03308 -0.11616 0.93426 0.0742 Uiso
S2 S 0.33517 0.03562 1.20534 0.0742 Uiso
S3 S 0.22588 0.35553 0.72429 0.0742 Uiso
C1 C 0.01379 -0.04844 0.68108 0.0742 Uiso
C2 C 0.10615 -0.04023 0.60522 0.0742 Uiso
C3 C -0.09235 -0.00821 0.57586 0.0742 Uiso
C4 C 0.52875 -0.04609 1.18090 0.0742 Uiso
C5 C 0.40078 0.06132 0.90688 0.0742 Uiso
C6 C 0.42954 0.01523 1.08778 0.0742 Uiso
C7 C -0.01337 0.35086 0.55826 0.0742 Uiso
C8 C 0.09804 0.43729 0.59735 0.0742 Uiso
C9 C 0.11141 0.58643 0.53909 0.0742 Uiso
H1 H 0.18436 -0.06987 0.68276 0.0742 Uiso
H2 H -0.16041 -0.01426 0.63176 0.0742 Uiso
H3 H 0.54994 -0.08005 1.31421 0.0742 Uiso
H4 H 0.32767 0.10650 0.83826 0.0742 Uiso
H5 H -0.02323 0.24095 0.60119 0.0742 Uiso
H6 H 0.19352 0.65013 0.56790 0.0742 Uiso
Cd1A Cd -0.15569 -0.11661 0.02355 0.1169 Uiso
Cd1A_2 Cd -0.15569 -0.11661 1.02355 0.1169 Uiso
Cd1_2 Cd 0.15569 0.11661 -0.02355 0.1169 Uiso
Cd1A_3 Cd 0.84431 -0.11661 1.02355 0.1169 Uiso
Cd1A_4 Cd -0.15569 0.88339 0.02355 0.1169 Uiso
S1A S -0.03308 0.11616 0.06574 0.0742 Uiso
S1A_2 S -0.03308 0.11616 1.06574 0.0742 Uiso
S1_2 S 0.03308 -0.11616 -0.06574 0.0742 Uiso
S2A S 0.66483 -0.03562 0.79466 0.0742 Uiso
S2A_2 S -0.33517 -0.03562 -0.20534 0.0742 Uiso
S3A S -0.22588 0.64447 0.27571 0.0742 Uiso
S3A_2 S -0.22588 -0.35553 0.27571 0.0742 Uiso
C1A C -0.01379 0.04844 0.31892 0.0742 Uiso
C2A C -0.10615 0.04023 0.39478 0.0742 Uiso
C3A C 0.09235 0.00821 0.42414 0.0742 Uiso
C4A C 0.47125 0.04609 0.81910 0.0742 Uiso
C5A C 0.59922 -0.06132 1.09312 0.0742 Uiso
C6A C 0.57046 -0.01523 0.91222 0.0742 Uiso
C7A C 0.01337 0.64914 0.44174 0.0742 Uiso
C8A C -0.09804 0.56271 0.40265 0.0742 Uiso
C9A C -0.11141 0.41357 0.46091 0.0742 Uiso
H1A H -0.18436 0.06987 0.31724 0.0742 Uiso
H2A H 0.16041 0.01426 0.36824 0.0742 Uiso
H3A H 0.45006 0.08005 0.68579 0.0742 Uiso
H4A H 0.67233 -0.10650 1.16174 0.0742 Uiso
H5A H 0.02323 0.75905 0.39881 0.0742 Uiso
H6A H -0.19352 0.34987 0.43210 0.0742 Uiso
N1 N 0.29935 0.53382 0.16186 0.2530 Uiso
C10 C 0.31406 0.57706 -0.02784 0.2530 Uiso
C11 C 0.29382 0.67105 0.16596 0.2530 Uiso
C12 C 0.40254 0.46834 0.30299 0.2530 Uiso
C13 C 0.17744 0.41183 0.19218 0.2530 Uiso
H7 H 0.33427 0.49260 -0.02600 0.2530 Uiso
H8 H 0.23683 0.60472 -0.11123 0.2530 Uiso
H9 H 0.37835 0.67636 -0.07839 0.2530 Uiso
H10 H 0.33675 0.66800 0.28477 0.2530 Uiso
H11 H 0.33006 0.76539 0.05846 0.2530 Uiso
H12 H 0.20450 0.67558 0.14001 0.2530 Uiso
H13 H 0.40969 0.48327 0.40992 0.2530 Uiso
H14 H 0.38635 0.35956 0.33450 0.2530 Uiso
H15 H 0.48224 0.51447 0.24692 0.2530 Uiso
H16 H 0.16294 0.36177 0.32185 0.2530 Uiso
H17 H 0.10799 0.45682 0.10371 0.2530 Uiso
H18 H 0.17881 0.33950 0.15296 0.2530 Uiso
loop_
_geom_bond_atom_site_label_1
_geom_bond_atom_site_label_2
_geom_bond_site_symmetry_1
_geom_bond_site_symmetry_2
Cd1 S1 1_555 1_555
S1 C1 1_555 1_555
S2 Cd1 1_555 1_555
S3 Cd1 1_555 1_555
C1 C2 1_555 1_555
C2 H1 1_555 1_555
C3 C1 1_555 1_555
C4 C6 1_555 1_555
C5 C6 1_555 1_555
C6 S2 1_555 1_555
C7 C8 1_555 1_555
C8 S3 1_555 1_555
C9 C8 1_555 1_555
N1 C10 1_555 1_555
C10 H7 1_555 1_555
C11 N1 1_555 1_555
C12 N1 1_555 1_555
C13 N1 1_555 1_555
H2 C3 1_555 1_555
H3 C4 1_555 1_555
H4 C5 1_555 1_555
H5 C7 1_555 1_555
H6 C9 1_555 1_555
H8 C10 1_555 1_555
H9 C10 1_555 1_555
H10 C11 1_555 1_555
H11 C11 1_555 1_555
H12 C11 1_555 1_555
H13 C12 1_555 1_555
H14 C12 1_555 1_555
H15 C12 1_555 1_555
H16 C13 1_555 1_555
H17 C13 1_555 1_555
H18 C13 1_555 1_555
Cd1A S1A 1_555 1_555
Cd1A_2 S1 1_555 1_555
Cd1_2 S1A 1_555 1_555
Cd1A_3 S2A 1_555 1_555
Cd1A_4 S3A 1_555 1_555
S1A C1A 1_555 1_555
S1A_2 Cd1 1_555 1_555
S1_2 Cd1A 1_555 1_555
S2A C6A 1_555 1_555
S2A_2 Cd1A 1_555 1_555
S3A C8A 1_555 1_555
S3A_2 Cd1A 1_555 1_555
C1A C2A 1_555 1_555
C2A C3 1_555 1_555
C3A C2 1_555 1_555
C4A C5 1_555 1_555
C5A C4 1_555 1_555
C6A C4A 1_555 1_555
C7A C9 1_555 1_555
C8A C7A 1_555 1_555
C9A C7 1_555 1_555
H1A C2A 1_555 1_555
H2A C3A 1_555 1_555
H3A C4A 1_555 1_555
H4A C5A 1_555 1_555
H5A C7A 1_555 1_555
H6A C9A 1_555 1_555
Cd1A_2 S1A_2 1_555 1_555
Cd1_2 S1_2 1_555 1_555
C1A C3A 1_555 1_555
C5A C6A 1_555 1_555
C8A C9A 1_555 1_555

#END
