
#######################################################################
#
#                 Cambridge Crystallographic Data Centre
#                                CCDC 
#
#######################################################################
#
# If this CIF has been generated from an entry in the Cambridge 
# Structural Database, then it will include bibliographic, chemical, 
# crystal, experimental, refinement or atomic coordinate data resulting 
# from the CCDC's data processing and validation procedures.
#
#######################################################################

data_QAVPOU
_chemical_formula_moiety         '(C12 H42 F11 Ga16 N4 O66 P16 5-)n'
_symmetry_cell_setting           orthorhombic
_symmetry_space_group_name_H-M   'P 21 21 2'
_symmetry_Int_Tables_number      18
_space_group_name_Hall           'P 2 2ab'
loop_
_symmetry_equiv_pos_site_id
_symmetry_equiv_pos_as_xyz
1 x,y,z
2 -x,-y,z
3 1/2+x,1/2-y,-z
4 1/2-x,1/2+y,-z
_cell_length_a                   18.425(4)
_cell_length_b                   24.573(5)
_cell_length_c                   10.236(2)
_cell_angle_alpha                90
_cell_angle_beta                 90
_cell_angle_gamma                90
_cell_volume                     4634.43
loop_
_atom_site_label
_atom_site_type_symbol
_atom_site_fract_x
_atom_site_fract_y
_atom_site_fract_z
F1 F 0.32403(10) 0.73614(9) 0.83244(18)
F2 F 0.72177(10) 0.74790(9) 0.66966(18)
F3 F 0.5000 1.0000 1.2211(3)
F4 F 0.70045(11) 0.81059(8) 1.0816(2)
F5 F 0.84400(12) 0.70127(9) 0.5899(3)
F6 F 0.58869(19) 0.84442(15) 0.3190(3)
Ga1 Ga 0.683007(19) 0.848515(14) 0.90985(4)
Ga2 Ga 0.617839(18) 0.742130(15) 0.60406(3)
Ga3 Ga 0.427930(18) 0.733990(15) 0.89796(3)
Ga4 Ga 0.43752(2) 0.941242(15) 1.11700(4)
Ga5 Ga 0.59041(2) 0.932047(16) 0.38503(4)
Ga6 Ga 0.738654(18) 0.734411(15) 1.07847(3)
Ga7 Ga 0.808149(19) 0.777900(14) 0.58217(4)
Ga8 Ga 0.85860(4) 0.65747(3) 0.39099(7)
P1 P 0.83098(5) 0.80193(4) 0.87822(9)
P2 P 0.36453(5) 0.85337(3) 0.91651(9)
P3 P 0.60026(4) 0.73544(4) 0.89586(8)
P4 P 0.44601(4) 0.73160(4) 0.60423(8)
P5 P 0.67844(4) 0.86282(3) 0.59791(8)
P6 P 0.41924(5) 0.93701(4) 1.41643(9)
P7 P 0.60103(4) 0.94001(3) 1.08184(8)
P8 P 0.71550(5) 0.71201(4) 0.37503(8)
O1 O 0.52600(12) 0.72784(10) 0.9594(2)
O2 O 0.44620(13) 0.70206(10) 0.7371(2)
O3 O 0.41963(13) 0.80757(10) 0.9383(2)
O4 O 0.89744(13) 0.81110(11) 0.9665(2)
O5 O 0.28563(12) 0.83643(9) 0.9220(2)
O6 O 0.78913(12) 0.75123(9) 0.9177(2)
O7 O 0.65658(13) 0.70801(10) 0.9825(2)
O8 O 0.65450(13) 0.91166(10) 0.9925(2)
O9 O 0.85934(13) 0.79530(11) 0.7374(2)
O10 O 0.78165(12) 0.85263(10) 0.8891(3)
O11 O 0.66631(13) 0.88300(10) 0.7375(2)
O12 O 0.61455(13) 0.79689(10) 0.8718(2)
O13 O 0.60183(13) 0.70765(10) 0.7604(2)
O14 O 0.62457(12) 0.81589(10) 0.5659(2)
O15 O 0.52145(13) 0.73135(11) 0.5412(2)
O16 O 0.75804(12) 0.84810(9) 0.5732(2)
O17 O 0.65971(13) 0.90992(10) 0.5033(2)
O18 O 0.39271(13) 0.70151(10) 0.5150(2)
O19 O 0.75968(12) 0.76103(10) 0.4209(2)
O20 O 0.42475(14) 0.79149(10) 0.6324(3)
O21 O 0.37115(15) 0.90474(11) 1.5088(3)
O22 O 0.76252(13) 0.66033(10) 0.3770(2)
O23 O 0.40632(16) 0.99604(11) 1.4496(3)
O24 O 0.49758(15) 0.91873(12) 1.4363(3)
O25 O 0.63140(13) 0.94136(11) 1.2204(2)
O26 O 0.52676(13) 0.91130(10) 1.0780(3)
O27 O 0.39563(14) 0.92422(11) 1.2766(2)
O28 O 0.59603(15) 0.99808(10) 1.0281(2)
O29 O 0.68573(13) 0.72151(10) 0.2378(2)
O30 O 0.37962(16) 0.88013(13) 0.7821(3)
O31 O 0.37569(14) 0.89434(11) 1.0249(3)
O32 O 0.65020(13) 0.70132(10) 0.4640(2)
F1B F 0.82403(10) 0.76386(9) 1.16756(18)
F2B F 1.22177(10) 0.75210(9) 1.33034(18)
F2B_2 F 0.22177(10) 0.75210(9) 1.33034(18)
F4A F 0.29955(11) 1.18941(8) 1.0816(2)
F4B F 0.20045(11) 0.68941(8) 0.9184(2)
F5B F 0.34400(12) 0.79873(9) 1.4101(3)
F6_2 F 0.58869(19) 0.84442(15) 1.3190(3)
Ga1A Ga 0.316993(19) 1.151485(14) 0.90985(4)
Ga1B Ga 0.183007(19) 0.651485(14) 1.09015(4)
Ga1B_2 Ga 1.183007(19) 0.651485(14) 1.09015(4)
Ga1_2 Ga 0.683007(19) 0.848515(14) 1.90985(4)
Ga2B Ga 1.117839(18) 0.757870(15) 1.39594(3)
Ga2_2 Ga 0.617839(18) 0.742130(15) 1.60406(3)
Ga2B_2 Ga 1.117839(18) 0.757870(15) 0.39594(3)
Ga3B Ga 0.927930(18) 0.766010(15) 1.10204(3)
Ga3B_2 Ga 0.927930(18) 0.766010(15) 0.10204(3)
Ga4A Ga 0.56248(2) 1.058758(15) 1.11700(4)
Ga4A_2 Ga 0.56248(2) 1.058758(15) 0.11700(4)
Ga4B Ga 0.93752(2) 0.558758(15) 0.88300(4)
Ga5_2 Ga 0.59041(2) 0.932047(16) 1.38503(4)
Ga5A Ga 0.40959(2) 1.067953(16) 1.38503(4)
Ga5A_2 Ga 0.40959(2) 1.067953(16) 0.38503(4)
Ga6B Ga 0.238654(18) 0.765589(15) 0.92153(3)
Ga6_2 Ga 0.738654(18) 0.734411(15) 0.07847(3)
Ga6B_2 Ga 1.238654(18) 0.765589(15) 0.92153(3)
Ga6A Ga 0.261346(18) 1.265589(15) 1.07847(3)
Ga7B Ga 0.308149(19) 0.722100(14) 1.41783(4)
Ga7B_2 Ga 0.308149(19) 0.722100(14) 0.41783(4)
Ga7_2 Ga 0.808149(19) 0.777900(14) 1.58217(4)
Ga7B_3 Ga 1.308149(19) 0.722100(14) 1.41783(4)
Ga8B Ga 0.35860(4) 0.84253(3) 1.60901(7)
Ga8B_2 Ga 0.35860(4) 0.84253(3) 0.60901(7)
Ga8C Ga 0.64140(4) 1.15747(3) 0.60901(7)
Ga8_2 Ga 0.85860(4) 0.65747(3) 1.39099(7)
P1B P 0.33098(5) 0.69807(4) 1.12178(9)
P2B P 0.86453(5) 0.64663(3) 1.08349(9)
P3B P 1.10026(4) 0.76456(4) 1.10414(8)
P4B P 0.94601(4) 0.76840(4) 0.39577(8)
P5_2 P 0.67844(4) 0.86282(3) 1.59791(8)
P6A P 0.58076(5) 1.06299(4) 0.41643(9)
P7A P 0.39897(4) 1.05999(3) 1.08184(8)
P8_2 P 0.71550(5) 0.71201(4) 1.37503(8)
O1B O 1.02600(12) 0.77216(10) 1.0406(2)
O2B O 0.94620(13) 0.79794(10) 0.2629(2)
O2B_2 O 0.94620(13) 0.79794(10) 1.2629(2)
O3B O 0.91963(13) 0.69243(10) 1.0617(2)
O4B O 0.39744(13) 0.68890(11) 1.0335(2)
O5B O 0.78563(12) 0.66357(9) 1.0780(2)
O6B O 0.28913(12) 0.74877(9) 1.0823(2)
O7B O 1.15658(13) 0.79199(10) 1.0175(2)
O7B_2 O 0.15658(13) 0.79199(10) 1.0175(2)
O8A O 0.34550(13) 1.08834(10) 0.9925(2)
O9B O 0.35934(13) 0.70470(11) 1.2626(2)
O10B O 0.28165(12) 0.64737(10) 1.1109(3)
O10A O 0.21835(12) 1.14737(10) 0.8891(3)
O11_2 O 0.66631(13) 0.88300(10) 1.7375(2)
O11A O 0.33369(13) 1.11700(10) 0.7375(2)
O12B O 1.11455(13) 0.70311(10) 1.1282(2)
O12A O 0.38545(13) 1.20311(10) 0.8718(2)
O13B O 1.10183(13) 0.79235(10) 1.2396(2)
O14_2 O 0.62457(12) 0.81589(10) 1.5659(2)
O14B O 1.12457(12) 0.68411(10) 1.4341(2)
O15B O 1.02145(13) 0.76865(11) 0.4588(2)
O15B_2 O 1.02145(13) 0.76865(11) 1.4588(2)
O16_2 O 0.75804(12) 0.84810(9) 1.5732(2)
O16B O 0.25804(12) 0.65190(9) 1.4268(2)
O17_2 O 0.65971(13) 0.90992(10) 1.5033(2)
O18B O 0.89271(13) 0.79849(10) 0.4850(2)
O18_2 O 0.39271(13) 0.70151(10) 1.5150(2)
O19_2 O 0.75968(12) 0.76103(10) 1.4209(2)
O19B O 0.25968(12) 0.73897(10) 1.5791(2)
O20B O 0.92475(14) 0.70851(10) 0.3676(3)
O20_2 O 0.42475(14) 0.79149(10) 1.6324(3)
O21A O 0.62885(15) 1.09526(11) 0.5088(3)
O21B O 0.87115(15) 0.59526(11) 0.4912(3)
O22_2 O 0.76252(13) 0.66033(10) 1.3770(2)
O22B O 0.26252(13) 0.83967(10) 1.6230(2)
O23A O 0.59368(16) 1.00396(11) 0.4496(3)
O23A_2 O 0.59368(16) 1.00396(11) 1.4496(3)
O24A O 0.50242(15) 1.08127(12) 0.4363(3)
O24_2 O 0.49758(15) 0.91873(12) 0.4363(3)
O25A O 0.36860(13) 1.05864(11) 1.2204(2)
O25_2 O 0.63140(13) 0.94136(11) 0.2204(2)
O26A O 0.47324(13) 1.08870(10) 1.0780(3)
O27A O 0.60437(14) 1.07578(11) 0.2766(2)
O27A_2 O 0.60437(14) 1.07578(11) 1.2766(2)
O28A O 0.40397(15) 1.00192(10) 1.0281(2)
O29_2 O 0.68573(13) 0.72151(10) 1.2378(2)
O29B O 0.18573(13) 0.77849(10) 0.7622(2)
O30B O 0.87962(16) 0.61987(13) 1.2179(3)
O30B_2 O 0.87962(16) 0.61987(13) 0.2179(3)
O30_2 O 0.37962(16) 0.88013(13) 1.7821(3)
O31B O 0.87569(14) 0.60566(11) 0.9751(3)
O31A O 0.62431(14) 1.10566(11) 1.0249(3)
O32_2 O 0.65020(13) 0.70132(10) 1.4640(2)
O32B O 1.15020(13) 0.79868(10) 1.5360(2)
O33 O 0.96469(18) 0.69882(14) 0.7800(3)
O34 O 0.9859(4) 0.4223(5) 0.2460(9)
N1 N 0.5268(3) 0.6862(2) 0.2421(5)
N2 N 0.8273(3) 0.5046(2) 0.2610(5)
C1 C 0.7536(5) 0.5170(4) 0.3234(9)
C2 C 0.7037(5) 0.5394(3) 0.2304(8)
C3 C 0.6298(5) 0.5606(4) 0.2776(9)
C4 C 0.5906(5) 0.6017(4) 0.2039(8)
C5 C 0.5265(5) 0.6273(4) 0.2627(10)
C6 C 0.6903(11) 0.4950(6) 0.1344(14)
N3 N 0.2434(2) 0.35692(16) 0.7878(4)
N4 N 0.2912(3) 0.63610(19) 0.7154(4)
C7 C 0.3167(6) 0.5834(4) 0.7780(10)
C8 C 0.3401(6) 0.5475(6) 0.6826(11)
C9 C 0.3490(6) 0.4872(5) 0.7335(11)
C10 C 0.2888(5) 0.4524(4) 0.7759(8)
C11 C 0.2925(5) 0.3968(3) 0.7205(8)
C12 C 0.4080(7) 0.5612(6) 0.5947(14)
loop_
_geom_bond_atom_site_label_1
_geom_bond_atom_site_label_2
_geom_bond_site_symmetry_1
_geom_bond_site_symmetry_2
F1 Ga3 1_555 1_555
F2 Ga2 1_555 1_555
F3 Ga4 1_555 1_555
F4 Ga1 1_555 1_555
F5 Ga7 1_555 1_555
F6 Ga5 1_555 1_555
Ga1 O8 1_555 1_555
Ga2 O13 1_555 1_555
Ga3 O1 1_555 1_555
Ga4 O26 1_555 1_555
Ga5 O17 1_555 1_555
Ga6 F4 1_555 1_555
Ga7 F2 1_555 1_555
Ga8 F5 1_555 1_555
P1 O4 1_555 1_555
P2 O3 1_555 1_555
P3 O1 1_555 1_555
P4 O2 1_555 1_555
P5 O11 1_555 1_555
P6 O21 1_555 1_555
P7 O8 1_555 1_555
P8 O19 1_555 1_555
O2 Ga3 1_555 1_555
O3 Ga3 1_555 1_555
O4 Ga3B 1_555 1_555
O5 P2 1_555 1_555
O6 Ga6 1_555 1_555
O7 Ga6 1_555 1_555
O9 Ga7 1_555 1_555
O10 Ga1 1_555 1_555
O11 Ga1 1_555 1_555
O12 Ga1 1_555 1_555
O13 P3 1_555 1_555
O14 Ga2 1_555 1_555
O15 Ga2 1_555 1_555
O16 Ga7 1_555 1_555
O17 P5 1_555 1_555
O18 P4 1_555 1_555
O19 Ga7 1_555 1_555
O20 P4 1_555 1_555
O21 Ga8B 1_555 1_555
O22 Ga8 1_555 1_555
O23 P6 1_555 1_555
O24 P6 1_555 1_555
O25 P7 1_555 1_555
O26 P7 1_555 1_555
O27 Ga4 1_555 1_555
O28 P7 1_555 1_555
O29 P8 1_555 1_555
O30 P2 1_555 1_555
O31 Ga4 1_555 1_555
O32 Ga2 1_555 1_555
N1 C5 1_555 1_555
N2 C1 1_555 1_555
N3 C11 1_555 1_555
N4 C7 1_555 1_555
C1 C2 1_555 1_555
C2 C3 1_555 1_555
C3 C4 1_555 1_555
C4 C5 1_555 1_555
C6 C2 1_555 1_555
C7 C8 1_555 1_555
C8 C9 1_555 1_555
C9 C10 1_555 1_555
C10 C11 1_555 1_555
C12 C8 1_555 1_555
F1B Ga6 1_555 1_555
F2B Ga2B 1_555 1_555
F2B_2 Ga7B 1_555 1_555
F4A Ga1A 1_555 1_555
F4B Ga1B 1_555 1_555
F5B Ga7B 1_555 1_555
F6_2 Ga5_2 1_555 1_555
Ga1A O8A 1_555 1_555
Ga1B O10B 1_555 1_555
Ga1B_2 O12B 1_555 1_555
Ga1_2 O11_2 1_555 1_555
Ga2B O13B 1_555 1_555
Ga2_2 O14_2 1_555 1_555
Ga2B_2 O15B 1_555 1_555
Ga3B F1B 1_555 1_555
Ga3B_2 O2B 1_555 1_555
Ga4A F3 1_555 1_555
Ga4A_2 O27A 1_555 1_555
Ga4B O31B 1_555 1_555
Ga5_2 O24 1_555 1_555
Ga5A O23 1_555 1_555
Ga5A_2 O24A 1_555 1_555
Ga6B F1 1_555 1_555
Ga6_2 O29 1_555 1_555
Ga6B_2 O7B 1_555 1_555
Ga6A F4A 1_555 1_555
Ga7B O9B 1_555 1_555
Ga7B_2 O18 1_555 1_555
Ga7_2 O16_2 1_555 1_555
Ga7B_3 F2B 1_555 1_555
Ga8B F5B 1_555 1_555
Ga8B_2 O20 1_555 1_555
Ga8C O21A 1_555 1_555
Ga8_2 O22_2 1_555 1_555
P1B O4B 1_555 1_555
P2B O3B 1_555 1_555
P3B O1B 1_555 1_555
P4B O2B 1_555 1_555
P5_2 O11_2 1_555 1_555
P6A O21A 1_555 1_555
P7A O8A 1_555 1_555
P8_2 O19_2 1_555 1_555
O1B Ga3B 1_555 1_555
O2B_2 Ga3B 1_555 1_555
O3B Ga3B 1_555 1_555
O4B Ga3 1_555 1_555
O5B Ga6 1_555 1_555
O6B Ga6B 1_555 1_555
O7B P3B 1_555 1_555
O7B_2 Ga6B 1_555 1_555
O9B P1B 1_555 1_555
O10B P1B 1_555 1_555
O10A Ga1A 1_555 1_555
O11A Ga1A 1_555 1_555
O12B P3B 1_555 1_555
O12A Ga1A 1_555 1_555
O13B P3B 1_555 1_555
O14_2 P5_2 1_555 1_555
O14B Ga2B 1_555 1_555
O15B P4B 1_555 1_555
O15B_2 Ga2B 1_555 1_555
O16_2 P5_2 1_555 1_555
O16B Ga7B 1_555 1_555
O17_2 Ga5_2 1_555 1_555
O18B Ga7 1_555 1_555
O18_2 Ga7B 1_555 1_555
O19_2 Ga7_2 1_555 1_555
O19B Ga7B 1_555 1_555
O20B Ga8 1_555 1_555
O20_2 Ga8B 1_555 1_555
O21B Ga8 1_555 1_555
O22_2 P8_2 1_555 1_555
O22B Ga8B 1_555 1_555
O23A Ga5 1_555 1_555
O23A_2 Ga5_2 1_555 1_555
O24A P6A 1_555 1_555
O24_2 Ga5 1_555 1_555
O25A Ga5A 1_555 1_555
O25_2 Ga5 1_555 1_555
O26A Ga4A 1_555 1_555
O27A P6A 1_555 1_555
O27A_2 Ga4A 1_555 1_555
O28A Ga4 1_555 1_555
O29_2 Ga6 1_555 1_555
O29B Ga6B 1_555 1_555
O30B Ga8_2 1_555 1_555
O30B_2 Ga8 1_555 1_555
O30_2 Ga8B 1_555 1_555
O31B P2B 1_555 1_555
O31A Ga4A 1_555 1_555
O32_2 Ga2_2 1_555 1_555
O32B Ga2B 1_555 1_555
P1 O6 1_555 1_555
P1 O9 1_555 1_555
P1 O10 1_555 1_555
P2 O31 1_555 1_555
P3 O7 1_555 1_555
P3 O12 1_555 1_555
P4 O15 1_555 1_555
P5 O14 1_555 1_555
P5 O16 1_555 1_555
P6 O27 1_555 1_555
P8 O22 1_555 1_555
P8 O32 1_555 1_555
O5 Ga6B 1_555 1_555
O25 Ga5_2 1_555 1_555
O28 Ga4A 1_555 1_555
O30 Ga8B_2 1_555 1_555
F4B Ga6B 1_555 1_555
P1B O6B 1_555 1_555
P2B O5B 1_555 1_555
P2B O30B 1_555 1_555
P4B O18B 1_555 1_555
P4B O20B 1_555 1_555
P5_2 O17_2 1_555 1_555
P6A O23A 1_555 1_555
P7A O25A 1_555 1_555
P7A O26A 1_555 1_555
P7A O28A 1_555 1_555
P8_2 O29_2 1_555 1_555
P8_2 O32_2 1_555 1_555

#END
