
#######################################################################
#
#                 Cambridge Crystallographic Data Centre
#                                CCDC 
#
#######################################################################
#
# If this CIF has been generated from an entry in the Cambridge 
# Structural Database, then it will include bibliographic, chemical, 
# crystal, experimental, refinement or atomic coordinate data resulting 
# from the CCDC's data processing and validation procedures.
#
#######################################################################

data_QEQZUH
_chemical_formula_moiety         'C11 H8 Np2 O31'
_symmetry_cell_setting           trigonal
_symmetry_space_group_name_H-M   'P 3'
_symmetry_Int_Tables_number      143
_space_group_name_Hall           'P 3'
loop_
_symmetry_equiv_pos_site_id
_symmetry_equiv_pos_as_xyz
1 x,y,z
2 -y,x-y,z
3 -x+y,-x,z
_cell_length_a                   11.001(2)
_cell_length_b                   11.001(2)
_cell_length_c                   6.333(2)
_cell_angle_alpha                90
_cell_angle_beta                 90
_cell_angle_gamma                120
_cell_volume                     663.75
loop_
_atom_site_label
_atom_site_type_symbol
_atom_site_fract_x
_atom_site_fract_y
_atom_site_fract_z
O2 O 0.441(4) 0.111(4) 0.310(10)
O3 O -0.126(7) -0.444(8) 0.330(10)
O4 O 0.6667 0.333 -0.06(6)
Np1 Np 0.0000 -0.0000 -0.0083(1)
Np2 Np 0.3333 -0.3333 -0.0083(2)
O5 O 0.015(3) -0.196(2) 0.124(5)
O6 O 0.197(5) -0.022(5) 0.124(7)
O7 O -0.074(3) 0.071(3) -0.332(3)
O8 O -0.132(2) -0.063(6) 0.318(3)
O9 O 0.345(3) -0.101(3) -0.050(7)
O10 O 0.103(5) -0.349(6) -0.070(10)
O11 O 0.269(4) -0.466(2) 0.315(3)
O12 O 0.401(3) -0.407(3) -0.332(4)
C1 C 0.111(2) -0.220(3) 0.049(5)
C2 C 0.228(3) -0.104(3) 0.045(4)
C3 C -0.059(4) 0.021(5) -0.506(3)
C4 C 0.322(7) -0.406(5) 0.494(7)
O5A O 0.196(2) 0.211(4) 0.124(5)
O5B O -0.211(4) -0.015(3) 0.124(5)
O6A O 0.022(5) 0.219(7) 0.124(7)
O6B O -0.219(7) -0.197(5) 0.124(7)
O7A O -0.071(3) -0.145(4) -0.332(3)
O7B O 0.145(4) 0.074(3) -0.332(3)
O8A O 0.063(6) -0.069(6) 0.318(3)
O8B O 0.069(6) 0.132(2) 0.318(3)
O9A O 0.101(3) -0.554(4) -0.050(7)
O9B O 0.554(4) -0.345(3) -0.050(7)
O10A O 0.349(6) -0.548(8) -0.070(10)
O10B O 0.548(8) -0.103(5) -0.070(10)
O11A O 0.466(2) -0.265(4) 0.315(3)
O11B O 0.265(4) -0.269(4) 0.315(3)
O12A O 0.407(3) -0.192(4) -0.332(4)
O12B O 0.192(4) -0.401(3) -0.332(4)
C3_2 C -0.059(4) 0.021(5) 0.494(3)
C3A C -0.021(5) -0.080(6) 0.494(3)
C4_2 C 0.322(7) -0.406(5) -0.506(7)
C3A_2 C -0.021(5) -0.080(6) -0.506(3)
C3B C 0.080(6) 0.059(4) -0.506(3)
O8_2 O -0.132(2) -0.063(6) -0.682(3)
O8B_2 O 0.069(6) 0.132(2) -0.682(3)
C4A C 0.406(5) -0.272(9) 0.494(7)
C4B C 0.272(9) -0.322(7) 0.494(7)
O12_2 O 0.401(3) -0.407(3) 0.668(4)
O1 O 0.434(5) 0.102(8) -0.40(3)
loop_
_geom_bond_atom_site_label_1
_geom_bond_atom_site_label_2
_geom_bond_site_symmetry_1
_geom_bond_site_symmetry_2
Np1 O5 1_555 1_555
Np2 O9 1_555 1_555
O5 C1 1_555 1_555
O6 Np1 1_555 1_555
O7 Np1 1_555 1_555
O8 Np1 1_555 1_555
O9 C2 1_555 1_555
O10 Np2 1_555 1_555
O11 Np2 1_555 1_555
O12 Np2 1_555 1_555
C1 O10 1_555 1_555
C2 O6 1_555 1_555
C3 O7 1_555 1_555
C4 O11 1_555 1_555
O5A Np1 1_555 1_555
O5B Np1 1_555 1_555
O6A Np1 1_555 1_555
O6B Np1 1_555 1_555
O7A Np1 1_555 1_555
O7B Np1 1_555 1_555
O8A Np1 1_555 1_555
O8B Np1 1_555 1_555
O9A Np2 1_555 1_555
O9B Np2 1_555 1_555
O10A Np2 1_555 1_555
O10B Np2 1_555 1_555
O11A Np2 1_555 1_555
O11B Np2 1_555 1_555
O12A Np2 1_555 1_555
O12B Np2 1_555 1_555
C3_2 O8 1_555 1_555
C3A O8 1_555 1_555
C4_2 O12 1_555 1_555
C3A_2 C3 1_555 1_555
C3B C3 1_555 1_555
O8_2 C3 1_555 1_555
O8B_2 C3 1_555 1_555
C4A C4 1_555 1_555
C4B C4 1_555 1_555
O12_2 C4 1_555 1_555
O5 O8A 1_555 1_555
O8 O5B 1_555 1_555
C1 C2 1_555 1_555
O5A O8B 1_555 1_555
O7A C3A_2 1_555 1_555
O7B C3B 1_555 1_555
O8A C3A 1_555 1_555
O8B C3_2 1_555 1_555
O11A C4A 1_555 1_555
O11B C4B 1_555 1_555
C3_2 C3A 1_555 1_555
C3A_2 C3B 1_555 1_555
C3A_2 O8_2 1_555 1_555
C3B O8B_2 1_555 1_555
C4A C4B 1_555 1_555

#END
