
#######################################################################
#
#                 Cambridge Crystallographic Data Centre
#                                CCDC 
#
#######################################################################
#
# If this CIF has been generated from an entry in the Cambridge 
# Structural Database, then it will include bibliographic, chemical, 
# crystal, experimental, refinement or atomic coordinate data resulting 
# from the CCDC's data processing and validation procedures.
#
#######################################################################

data_QUMFUB
_chemical_formula_moiety         '(C30 H22 Mn3 N3 O22)n'
_symmetry_cell_setting           triclinic
_symmetry_space_group_name_H-M   'P -1'
_symmetry_Int_Tables_number      2
_space_group_name_Hall           '-P 1'
loop_
_symmetry_equiv_pos_site_id
_symmetry_equiv_pos_as_xyz
1 x,y,z
2 -x,-y,-z
_cell_length_a                   9.4491(4)
_cell_length_b                   10.0762(4)
_cell_length_c                   11.5763(6)
_cell_angle_alpha                73.093(4)
_cell_angle_beta                 89.597(4)
_cell_angle_gamma                80.097(4)
_cell_volume                     1037.76
loop_
_atom_site_label
_atom_site_type_symbol
_atom_site_fract_x
_atom_site_fract_y
_atom_site_fract_z
N1 N -0.3594(4) -0.0185(6) -0.0157(4)
N2 N 0.5582(7) 0.5344(6) 0.2679(7)
C13 C 0.5879(12) 0.6772(7) 0.2253(11)
C14 C 0.6783(8) 0.4442(10) 0.3312(13)
C15 C 0.4345(9) 0.5605(16) 0.3365(12)
O11 O 0.6862(12) 0.7015(13) 0.1548(11)
O12 O 0.1457(7) 0.4664(5) -0.0051(4)
N3 N 0.3889(7) 0.4628(5) 0.0503(5)
C16 C 0.2839(15) 0.3777(19) 0.0533(18)
C17 C 0.3496(14) 0.4853(14) 0.1651(7)
C18 C 0.4489(15) 0.5909(12) -0.0052(16)
Mn1 Mn -0.0000 0.0000 0.5000
Mn2 Mn 0.00947(4) 1.08932(4) 0.16786(4)
O1 O 0.0326(2) 0.21219(19) 0.41233(17)
O2 O -0.0188(2) 0.2850(2) 0.21232(18)
O3 O 0.0697(2) 0.8989(2) 0.12465(19)
O4 O -0.0087(2) 0.7770(2) 0.01132(17)
O5 O 0.0211(2) 0.54476(19) 0.19814(16)
O6 O 0.10431(18) 0.0118(2) 0.66595(16)
O7 O 0.2381(2) -0.0814(3) 0.8341(2)
O8 O 0.7720(2) -0.0493(2) 0.75945(19)
O9 O 0.80125(19) 0.0827(2) 0.57070(18)
O10 O 0.48060(19) -0.0022(2) 0.71107(18)
C1 C 0.0190(3) 0.3012(3) 0.3111(3)
C2 C 0.0493(3) 0.4420(3) 0.3062(2)
C3 C 0.0960(4) 0.4953(3) 0.3898(3)
H1 H 0.1234 0.4457 0.4719
C4 C 0.0962(4) 0.6407(3) 0.3310(3)
H2 H 0.1231 0.7071 0.3666
C5 C 0.0513(3) 0.6658(3) 0.2156(3)
C6 C 0.0345(3) 0.7909(3) 0.1095(2)
C7 C 0.2235(3) -0.0136(3) 0.7249(3)
C8 C 0.3441(3) 0.0456(3) 0.6580(3)
C9 C 0.3456(3) 0.1415(3) 0.5503(3)
H3 H 0.2652 0.1903 0.4968
C10 C 0.4906(3) 0.1552(3) 0.5323(3)
H4 H 0.5264 0.2157 0.4636
C11 C 0.5691(3) 0.0677(3) 0.6291(3)
C12 C 0.7271(3) 0.0300(3) 0.6565(3)
Mn2A Mn -0.00947(4) -1.08932(4) 0.83214(4)
O1A O -0.0326(2) -0.21219(19) 0.58767(17)
O2A O 0.0188(2) -0.2850(2) 0.78768(18)
O3A O -0.0697(2) -0.8989(2) 0.87535(19)
O4A O 0.0087(2) -0.7770(2) 0.98868(17)
O5A O -0.0211(2) -0.54476(19) 0.80186(16)
O6A O -0.10431(18) -0.0118(2) 0.33405(16)
O7A O -0.2381(2) 0.0814(3) 0.1659(2)
O8A O -0.7720(2) 0.0493(2) 0.24055(19)
O9A O -0.80125(19) -0.0827(2) 0.42930(18)
O10A O -0.48060(19) 0.0022(2) 0.28893(18)
C1A C -0.0190(3) -0.3012(3) 0.6889(3)
C2A C -0.0493(3) -0.4420(3) 0.6938(2)
C3A C -0.0960(4) -0.4953(3) 0.6102(3)
H1A H -0.1234 -0.4457 0.5281
C4A C -0.0962(4) -0.6407(3) 0.6690(3)
H2A H -0.1231 -0.7071 0.6334
C5A C -0.0513(3) -0.6658(3) 0.7844(3)
C6A C -0.0345(3) -0.7909(3) 0.8905(2)
C7A C -0.2235(3) 0.0136(3) 0.2751(3)
C8A C -0.3441(3) -0.0456(3) 0.3420(3)
C9A C -0.3456(3) -0.1415(3) 0.4497(3)
H3A H -0.2652 -0.1903 0.5032
C10A C -0.4906(3) -0.1552(3) 0.4677(3)
H4A H -0.5264 -0.2157 0.5364
C11A C -0.5691(3) -0.0677(3) 0.3709(3)
C12A C -0.7271(3) -0.0300(3) 0.3435(3)
Mn1_2 Mn -1.0000 0.0000 0.5000
Mn1_3 Mn 1.0000 0.0000 0.5000
Mn2_2 Mn -0.99053(4) 0.08932(4) 0.16786(4)
Mn2_3 Mn 0.00947(4) -0.91068(4) 1.16786(4)
Mn2_4 Mn 0.00947(4) 0.08932(4) 0.16786(4)
Mn2A_2 Mn -0.00947(4) -0.08932(4) 0.83214(4)
Mn2A_3 Mn -0.00947(4) 0.91068(4) -0.16786(4)
Mn2A_4 Mn 0.99053(4) -0.08932(4) 0.83214(4)
O2_2 O -0.0188(2) 1.2850(2) 0.21232(18)
O2A_2 O 0.0188(2) -1.2850(2) 0.78768(18)
O4_2 O -0.0087(2) -1.2230(2) 1.01132(17)
O4A_2 O 0.0087(2) 1.2230(2) -0.01132(17)
O6_2 O 0.10431(18) -0.9882(2) 0.66595(16)
O6A_2 O -0.10431(18) 0.9882(2) 0.33405(16)
O7_2 O 0.2381(2) -1.0814(3) 0.8341(2)
O7A_2 O -0.2381(2) 1.0814(3) 0.1659(2)
O8_2 O -0.2280(2) -1.0493(2) 0.75945(19)
O8A_2 O 0.2280(2) 1.0493(2) 0.24055(19)
O9_2 O -0.19875(19) 0.0827(2) 0.57070(18)
O9A_2 O 0.19875(19) -0.0827(2) 0.42930(18)
loop_
_geom_bond_atom_site_label_1
_geom_bond_atom_site_label_2
_geom_bond_site_symmetry_1
_geom_bond_site_symmetry_2
Mn1 O1 1_555 1_555
Mn2 O3 1_555 1_555
O1 C1 1_555 1_555
O2 C1 1_555 1_555
O3 C6 1_555 1_555
O4 C6 1_555 1_555
O5 C2 1_555 1_555
O6 Mn1 1_555 1_555
O7 C7 1_555 1_555
O8 C12 1_555 1_555
O9 C12 1_555 1_555
O10 C8 1_555 1_555
C1 C2 1_555 1_555
C2 C3 1_555 1_555
C3 H1 1_555 1_555
C4 C3 1_555 1_555
H2 C4 1_555 1_555
C5 O5 1_555 1_555
C6 C5 1_555 1_555
C7 O6 1_555 1_555
C8 C7 1_555 1_555
C9 C8 1_555 1_555
H3 C9 1_555 1_555
C10 C9 1_555 1_555
H4 C10 1_555 1_555
C11 O10 1_555 1_555
C12 C11 1_555 1_555
N2 C13 1_555 1_555
C13 O11 1_555 1_555
C14 N2 1_555 1_555
C15 N2 1_555 1_555
O12 C16 1_555 1_555
N3 C16 1_555 1_555
C17 N3 1_555 1_555
C18 N3 1_555 1_555
Mn2A O3A 1_555 1_555
O1A Mn1 1_555 1_555
O2A C1A 1_555 1_555
O3A C6A 1_555 1_555
O4A C6A 1_555 1_555
O5A C2A 1_555 1_555
O6A Mn1 1_555 1_555
O7A C7A 1_555 1_555
O8A C12A 1_555 1_555
O9A C12A 1_555 1_555
O10A C8A 1_555 1_555
C1A O1A 1_555 1_555
C2A C1A 1_555 1_555
C3A C2A 1_555 1_555
H1A C3A 1_555 1_555
C4A C3A 1_555 1_555
H2A C4A 1_555 1_555
C5A O5A 1_555 1_555
C6A C5A 1_555 1_555
C7A O6A 1_555 1_555
C8A C7A 1_555 1_555
C9A C8A 1_555 1_555
H3A C9A 1_555 1_555
C10A C9A 1_555 1_555
H4A C10A 1_555 1_555
C11A O10A 1_555 1_555
C12A C11A 1_555 1_555
Mn1_2 O9A 1_555 1_555
Mn1_3 O9 1_555 1_555
Mn2_2 O8A 1_555 1_555
Mn2_3 O4A 1_555 1_555
Mn2_4 O2 1_555 1_555
Mn2A_2 O6 1_555 1_555
Mn2A_3 O4 1_555 1_555
Mn2A_4 O8 1_555 1_555
O2_2 Mn2 1_555 1_555
O2A_2 Mn2A 1_555 1_555
O4_2 Mn2A 1_555 1_555
O4A_2 Mn2 1_555 1_555
O6_2 Mn2A 1_555 1_555
O6A_2 Mn2 1_555 1_555
O7_2 Mn2A 1_555 1_555
O7A_2 Mn2 1_555 1_555
O8_2 Mn2A 1_555 1_555
O8A_2 Mn2 1_555 1_555
O9_2 Mn1 1_555 1_555
O9A_2 Mn1 1_555 1_555
O7 Mn2A_2 1_555 1_555
C4 C5 1_555 1_555
C10 C11 1_555 1_555
O2A Mn2A_2 1_555 1_555
O6A Mn2_4 1_555 1_555
O7A Mn2_4 1_555 1_555
C4A C5A 1_555 1_555
C10A C11A 1_555 1_555

#END
