
#######################################################################
#
#                 Cambridge Crystallographic Data Centre
#                                CCDC 
#
#######################################################################
#
# If this CIF has been generated from an entry in the Cambridge 
# Structural Database, then it will include bibliographic, chemical, 
# crystal, experimental, refinement or atomic coordinate data resulting 
# from the CCDC's data processing and validation procedures.
#
#######################################################################

data_QUQSAY
_chemical_formula_moiety         '(C56 H34 Co4 N6 O16)n'
_symmetry_cell_setting           triclinic
_symmetry_space_group_name_H-M   'P -1'
_symmetry_Int_Tables_number      2
_space_group_name_Hall           '-P 1'
loop_
_symmetry_equiv_pos_site_id
_symmetry_equiv_pos_as_xyz
1 x,y,z
2 -x,-y,-z
_cell_length_a                   9.6496(15)
_cell_length_b                   13.681(2)
_cell_length_c                   15.425(2)
_cell_angle_alpha                90.037(7)
_cell_angle_beta                 75.488(7)
_cell_angle_gamma                77.576(7)
_cell_volume                     1922.01
loop_
_atom_site_label
_atom_site_type_symbol
_atom_site_fract_x
_atom_site_fract_y
_atom_site_fract_z
C1 C 0.7498(10) 0.2021(6) 0.0083(5)
H1 H 0.7047 0.181 -0.0327
C2 C 0.7540(9) -0.2835(5) 0.0410(5)
H2 H 0.7085 -0.3079 0.0018
C3 C 0.5595(9) 0.0098(5) 0.4718(5)
H3 H 0.6357 -0.0441 0.4457
C4 C 0.3639(6) 0.5277(4) 0.4211(3)
C5 C -0.0629(7) 0.4729(5) 0.3165(3)
C6 C 0.5780(8) 0.1121(5) 0.4480(5)
C7 C 0.7307(8) 0.2209(5) 0.3756(5)
H4 H 0.8204 0.2287 0.3399
C8 C 0.8727(7) 0.2747(5) 0.1239(4)
H5 H 0.914 0.2995 0.1651
C9 C 0.7129(8) 0.1242(5) 0.3928(5)
H6 H 0.788 0.0689 0.3685
C10 C 0.4969(7) 0.2894(5) 0.4576(4)
H7 H 0.4218 0.3456 0.479
C11 C 0.8777(8) -0.3070(4) 0.1479(5)
H8 H 0.9211 -0.3492 0.1856
C12 C 0.8803(10) -0.2076(6) 0.1527(6)
H9 H 0.9224 -0.1843 0.1943
C13 C 0.7589(8) 0.3001(5) 0.0138(4)
H10 H 0.72 0.3433 -0.0249
C14 C 0.8056(9) 0.1364(5) 0.0617(5)
C15 C 0.8717(9) 0.1736(5) 0.1229(5)
H11 H 0.9133 0.1315 0.1613
C16 C 0.4700(8) 0.1973(5) 0.4785(5)
H12 H 0.3785 0.1919 0.5135
C17 C 0.7532(10) -0.1809(5) 0.0433(5)
H13 H 0.7055 -0.1385 0.0075
C18 C 0.8235(9) -0.1432(6) 0.0987(5)
C19 C 0.8332(10) -0.0383(6) 0.1063(6)
H14 H 0.8713 -0.0201 0.1521
C20 C 0.7942(10) 0.0300(6) 0.0560(6)
H15 H 0.7544 0.0116 0.0111
C21 C 0.1136(6) 0.4792(4) 0.1203(4)
C22 C 0.5606(6) 0.4890(4) 0.2168(4)
C23 C 0.3954(6) 0.4948(4) 0.2504(3)
C24 C 0.3099(6) 0.5043(4) 0.3406(3)
C25 C 0.1645(6) 0.4959(4) 0.3563(3)
H16 H 0.109 0.4991 0.4154
C26 C 0.0981(6) 0.4831(4) 0.2881(3)
C27 C 0.1791(6) 0.4809(4) 0.1987(3)
C28 C 0.3275(6) 0.4862(4) 0.1819(3)
H17 H 0.3823 0.4838 0.1227
Co1 Co 0.81482(8) 0.49447(5) 0.08337(4)
Co2 Co 0.68532(8) 0.44297(6) 0.38150(5)
N1 N 0.8162(6) -0.3471(3) 0.0918(3)
N2 N 0.8189(6) 0.3374(3) 0.0703(3)
N3 N 0.6270(6) 0.3033(4) 0.4071(3)
O1 O -0.0142(4) 0.4646(3) 0.1367(2)
O2 O -0.1632(4) 0.5493(3) 0.3339(3)
O3 O -0.0855(4) 0.3856(3) 0.3267(2)
O4 O 0.1911(4) 0.4948(3) 0.0449(2)
O5 O 0.4889(4) 0.5435(3) 0.4097(2)
O6 O 0.2707(4) 0.5349(3) 0.4962(2)
O7 O 0.5998(4) 0.5316(3) 0.1456(3)
O8 O 0.6524(4) 0.4400(3) 0.2532(3)
C3A C 0.4405(9) -0.0098(5) 0.5282(5)
H3A H 0.3643 0.0441 0.5543
C6A C 0.4220(8) -0.1121(5) 0.5520(5)
C7A C 0.2693(8) -0.2209(5) 0.6244(5)
H4A H 0.1796 -0.2287 0.6601
C9A C 0.2871(8) -0.1242(5) 0.6072(5)
H6A H 0.212 -0.0689 0.6315
C10A C 0.5031(7) -0.2894(5) 0.5424(4)
H7A H 0.5782 -0.3456 0.521
C16A C 0.5300(8) -0.1973(5) 0.5215(5)
H12A H 0.6215 -0.1919 0.4865
N3A N 0.3730(6) -0.3033(4) 0.5929(3)
C1A C 0.2502(10) -0.2021(6) 0.9917(5)
H1A H 0.2953 -0.181 1.0327
C2A C 0.2460(9) 0.2835(5) 0.9590(5)
H2A H 0.2915 0.3079 0.9982
C4A C 0.6361(6) -0.5277(4) 0.5789(3)
C5A C 1.0629(7) -0.4729(5) 0.6835(3)
C8A C 0.1273(7) -0.2747(5) 0.8761(4)
H5A H 0.086 -0.2995 0.8349
C11A C 0.1223(8) 0.3070(4) 0.8521(5)
H8A H 0.0789 0.3492 0.8144
C12A C 0.1197(10) 0.2076(6) 0.8473(6)
H9A H 0.0776 0.1843 0.8057
C13A C 0.2411(8) -0.3001(5) 0.9862(4)
H10A H 0.28 -0.3433 1.0249
C14A C 0.1944(9) -0.1364(5) 0.9383(5)
C15A C 0.1283(9) -0.1736(5) 0.8771(5)
H11A H 0.0867 -0.1315 0.8387
C17A C 0.2468(10) 0.1809(5) 0.9567(5)
H13A H 0.2945 0.1385 0.9925
C18A C 0.1765(9) 0.1432(6) 0.9013(5)
C19A C 0.1668(10) 0.0383(6) 0.8937(6)
H14A H 0.1287 0.0201 0.8479
C20A C 0.2058(10) -0.0300(6) 0.9440(6)
H15A H 0.2456 -0.0116 0.9889
C21A C 0.8864(6) -0.4792(4) 0.8797(4)
C22A C 0.4394(6) -0.4890(4) 0.7832(4)
C23A C 0.6046(6) -0.4948(4) 0.7496(3)
C24A C 0.6901(6) -0.5043(4) 0.6594(3)
C25A C 0.8355(6) -0.4959(4) 0.6437(3)
H16A H 0.891 -0.4991 0.5846
C26A C 0.9019(6) -0.4831(4) 0.7119(3)
C27A C 0.8209(6) -0.4809(4) 0.8013(3)
C28A C 0.6725(6) -0.4862(4) 0.8181(3)
H17A H 0.6177 -0.4838 0.8773
Co1A Co 0.18518(8) -0.49447(5) 0.91663(4)
Co2A Co 0.31468(8) -0.44297(6) 0.61850(5)
N1A N 0.1838(6) 0.3471(3) 0.9082(3)
N2A N 0.1811(6) -0.3374(3) 0.9297(3)
O1A O 1.0142(4) -0.4646(3) 0.8633(2)
O2A O 1.1632(4) -0.5493(3) 0.6661(3)
O3A O 1.0855(4) -0.3856(3) 0.6733(2)
O4A O 0.8089(4) -0.4948(3) 0.9551(2)
O5A O 0.5111(4) -0.5435(3) 0.5903(2)
O6A O 0.7293(4) -0.5349(3) 0.5038(2)
O7A O 0.4002(4) -0.5316(3) 0.8544(3)
O8A O 0.3476(4) -0.4400(3) 0.7468(3)
Co1_2 Co -0.18518(8) 0.49447(5) 0.08337(4)
Co1_3 Co 0.81482(8) -0.50553(5) 0.08337(4)
Co1_4 Co 0.81482(8) -0.50553(5) 1.08337(4)
Co1A_2 Co 0.18518(8) 0.50553(5) -0.08337(4)
Co1A_3 Co 0.18518(8) 0.50553(5) 0.91663(4)
Co1A_4 Co 1.18518(8) -0.49447(5) 0.91663(4)
Co2_2 Co -0.31468(8) 0.44297(6) 0.38150(5)
Co2_3 Co 0.68532(8) -0.55703(6) 0.38150(5)
Co2A_2 Co 0.31468(8) 0.55703(6) 0.61850(5)
Co2A_3 Co 1.31468(8) -0.44297(6) 0.61850(5)
N1_2 N 0.8162(6) 0.6529(3) 0.0918(3)
N1A_2 N 0.1838(6) -0.6529(3) 0.9082(3)
O1_2 O 0.9858(4) 0.4646(3) 0.1367(2)
O1A_2 O 0.0142(4) -0.4646(3) 0.8633(2)
O2_2 O 0.8368(4) 0.5493(3) 0.3339(3)
O2A_2 O 0.1632(4) -0.5493(3) 0.6661(3)
O3_2 O 0.9145(4) 0.3856(3) 0.3267(2)
O3A_2 O 0.0855(4) -0.3856(3) 0.6733(2)
O4_2 O 0.1911(4) -0.5052(3) 1.0449(2)
O4A_2 O 0.8089(4) 0.5052(3) -0.0449(2)
O6_2 O 0.2707(4) -0.4651(3) 0.4962(2)
O6A_2 O 0.7293(4) 0.4651(3) 0.5038(2)
loop_
_geom_bond_atom_site_label_1
_geom_bond_atom_site_label_2
_geom_bond_site_symmetry_1
_geom_bond_site_symmetry_2
C1 H1 1_555 1_555
C2 H2 1_555 1_555
C3 H3 1_555 1_555
C4 C24 1_555 1_555
C5 C26 1_555 1_555
C6 C3 1_555 1_555
C7 H4 1_555 1_555
C8 H5 1_555 1_555
C9 C6 1_555 1_555
H6 C9 1_555 1_555
C10 H7 1_555 1_555
C11 H8 1_555 1_555
C12 C11 1_555 1_555
H9 C12 1_555 1_555
C13 C1 1_555 1_555
H10 C13 1_555 1_555
C14 C1 1_555 1_555
C15 C8 1_555 1_555
H11 C15 1_555 1_555
C16 C6 1_555 1_555
H12 C16 1_555 1_555
C17 C2 1_555 1_555
H13 C17 1_555 1_555
C18 C12 1_555 1_555
C19 C18 1_555 1_555
H14 C19 1_555 1_555
C20 C14 1_555 1_555
H15 C20 1_555 1_555
C21 C27 1_555 1_555
C22 C23 1_555 1_555
C23 C24 1_555 1_555
C24 C25 1_555 1_555
C25 H16 1_555 1_555
C26 C25 1_555 1_555
C27 C26 1_555 1_555
C28 C23 1_555 1_555
H17 C28 1_555 1_555
Co1 N2 1_555 1_555
Co2 N3 1_555 1_555
N1 C2 1_555 1_555
N2 C8 1_555 1_555
N3 C7 1_555 1_555
O1 C21 1_555 1_555
O2 C5 1_555 1_555
O3 C5 1_555 1_555
O4 C21 1_555 1_555
O5 C4 1_555 1_555
O6 C4 1_555 1_555
O7 C22 1_555 1_555
O8 C22 1_555 1_555
C3A C3 1_555 1_555
H3A C3A 1_555 1_555
C6A C3A 1_555 1_555
C7A H4A 1_555 1_555
C9A C6A 1_555 1_555
H6A C9A 1_555 1_555
C10A H7A 1_555 1_555
C16A C6A 1_555 1_555
H12A C16A 1_555 1_555
N3A C7A 1_555 1_555
C1A H1A 1_555 1_555
C2A H2A 1_555 1_555
C4A C24A 1_555 1_555
C5A C26A 1_555 1_555
C8A H5A 1_555 1_555
C11A H8A 1_555 1_555
C12A C11A 1_555 1_555
H9A C12A 1_555 1_555
C13A C1A 1_555 1_555
H10A C13A 1_555 1_555
C14A C1A 1_555 1_555
C15A C8A 1_555 1_555
H11A C15A 1_555 1_555
C17A C2A 1_555 1_555
H13A C17A 1_555 1_555
C18A C12A 1_555 1_555
C19A C18A 1_555 1_555
H14A C19A 1_555 1_555
C20A C14A 1_555 1_555
H15A C20A 1_555 1_555
C21A C27A 1_555 1_555
C22A C23A 1_555 1_555
C23A C24A 1_555 1_555
C24A C25A 1_555 1_555
C25A H16A 1_555 1_555
C26A C25A 1_555 1_555
C27A C26A 1_555 1_555
C28A C23A 1_555 1_555
H17A C28A 1_555 1_555
Co1A N2A 1_555 1_555
Co2A N3A 1_555 1_555
N1A C2A 1_555 1_555
N2A C8A 1_555 1_555
O1A C21A 1_555 1_555
O2A C5A 1_555 1_555
O3A C5A 1_555 1_555
O4A C21A 1_555 1_555
O5A C4A 1_555 1_555
O6A C4A 1_555 1_555
O7A C22A 1_555 1_555
O8A C22A 1_555 1_555
Co1_2 O1 1_555 1_555
Co1_3 N1 1_555 1_555
Co1_4 O4A 1_555 1_555
Co1A_2 O4 1_555 1_555
Co1A_3 N1A 1_555 1_555
Co1A_4 O1A 1_555 1_555
Co2_2 O2 1_555 1_555
Co2_3 O6A 1_555 1_555
Co2A_2 O6 1_555 1_555
Co2A_3 O2A 1_555 1_555
N1_2 Co1 1_555 1_555
N1A_2 Co1A 1_555 1_555
O1_2 Co1 1_555 1_555
O1A_2 Co1A 1_555 1_555
O2_2 Co2 1_555 1_555
O2A_2 Co2A 1_555 1_555
O3_2 Co2 1_555 1_555
O3A_2 Co2A 1_555 1_555
O4_2 Co1A 1_555 1_555
O4A_2 Co1 1_555 1_555
O6_2 Co2A 1_555 1_555
O6A_2 Co2 1_555 1_555
C7 C9 1_555 1_555
C10 C16 1_555 1_555
C10 N3 1_555 1_555
C11 N1 1_555 1_555
C13 N2 1_555 1_555
C14 C15 1_555 1_555
C17 C18 1_555 1_555
C19 C20 1_555 1_555
C27 C28 1_555 1_555
Co1 O7 1_555 1_555
Co2 O5 1_555 1_555
Co2 O8 1_555 1_555
O3 Co2_2 1_555 1_555
C7A C9A 1_555 1_555
C10A C16A 1_555 1_555
C10A N3A 1_555 1_555
C11A N1A 1_555 1_555
C13A N2A 1_555 1_555
C14A C15A 1_555 1_555
C17A C18A 1_555 1_555
C19A C20A 1_555 1_555
C27A C28A 1_555 1_555
Co1A O7A 1_555 1_555
Co2A O5A 1_555 1_555
Co2A O8A 1_555 1_555
O3A Co2A_3 1_555 1_555

#END
