
#######################################################################
#
#                 Cambridge Crystallographic Data Centre
#                                CCDC 
#
#######################################################################
#
# If this CIF has been generated from an entry in the Cambridge 
# Structural Database, then it will include bibliographic, chemical, 
# crystal, experimental, refinement or atomic coordinate data resulting 
# from the CCDC's data processing and validation procedures.
#
#######################################################################

data_QUTTII01
_chemical_formula_moiety         '(C20 H14 Co5 O22)n'
_symmetry_cell_setting           monoclinic
_symmetry_space_group_name_H-M   'P 21/n'
_symmetry_Int_Tables_number      14
_space_group_name_Hall           '-P 2yn'
loop_
_symmetry_equiv_pos_site_id
_symmetry_equiv_pos_as_xyz
1 x,y,z
2 1/2-x,1/2+y,1/2-z
3 -x,-y,-z
4 1/2+x,1/2-y,1/2+z
_cell_length_a                   7.4120(2)
_cell_length_b                   16.4666(3)
_cell_length_c                   14.5028(3)
_cell_angle_alpha                90
_cell_angle_beta                 95.352(2)
_cell_angle_gamma                90
_cell_volume                     1762.36
loop_
_atom_site_label
_atom_site_type_symbol
_atom_site_fract_x
_atom_site_fract_y
_atom_site_fract_z
Co1 Co 1.0000 0.0000 0.5000
Co2 Co 0.70914(5) 0.01325(3) 0.67671(3)
Co3 Co 0.68901(5) 0.12792(2) 0.47337(3)
O1 O 0.7411(3) 0.01656(12) 0.54000(13)
O2 O 1.5140(3) 0.10296(14) 0.68147(15)
O3 O 1.4630(3) 0.15546(15) 0.53953(14)
O4 O 1.0193(3) 0.41761(13) 0.86439(14)
O5 O 1.1021(3) 0.09416(13) 0.58245(14)
O6 O 0.9314(3) 0.45194(14) 0.72250(14)
O7 O 1.4006(3) 0.41528(13) 0.89689(14)
O8 O 0.8731(3) 0.18302(14) 0.56473(17)
O9 O 1.5923(3) 0.42304(16) 0.78864(16)
O10 O 0.6566(4) 0.25352(17) 0.42281(18)
O11 O 0.8723(3) 0.08739(17) 0.76343(19)
C1 C 1.4426(4) 0.15208(18) 0.6247(2)
C2 C 1.3373(4) 0.34009(17) 0.75787(19)
C3 C 1.1441(4) 0.22485(17) 0.64697(19)
C4 C 1.4525(4) 0.39785(17) 0.81845(19)
C5 C 1.3314(4) 0.21897(17) 0.66296(19)
C6 C 1.0566(4) 0.28984(18) 0.68348(19)
H1 H 0.9323 0.2956 0.6692
C7 C 1.0316(4) 0.16223(18) 0.59279(19)
C8 C 1.4260(4) 0.27748(18) 0.71695(19)
H2 H 1.5517 0.2746 0.7258
C9 C 1.1476(4) 0.34654(17) 0.74038(19)
C10 C 1.0301(4) 0.41013(18) 0.77859(19)
Co2B Co 1.29086(5) -0.01325(3) 0.32329(3)
Co3B Co 1.31099(5) -0.12792(2) 0.52663(3)
O1B O 1.2589(3) -0.01656(12) 0.46000(13)
O2B O 0.4860(3) -0.10296(14) 0.31853(15)
O3B O 0.5370(3) -0.15546(15) 0.46047(14)
O4B O 0.9807(3) -0.41761(13) 0.13561(14)
O5B O 0.8979(3) -0.09416(13) 0.41755(14)
O6B O 1.0686(3) -0.45194(14) 0.27750(14)
O7B O 0.5994(3) -0.41528(13) 0.10311(14)
O8B O 1.1269(3) -0.18302(14) 0.43527(17)
O9B O 0.4077(3) -0.42304(16) 0.21136(16)
O10B O 1.3434(4) -0.25352(17) 0.57719(18)
O11B O 1.1277(3) -0.08739(17) 0.23657(19)
C1B C 0.5574(4) -0.15208(18) 0.3753(2)
C2B C 0.6627(4) -0.34009(17) 0.24213(19)
C3B C 0.8559(4) -0.22485(17) 0.35303(19)
C4B C 0.5475(4) -0.39785(17) 0.18155(19)
C5B C 0.6686(4) -0.21897(17) 0.33704(19)
C6B C 0.9434(4) -0.28984(18) 0.31652(19)
H1B H 1.0677 -0.2956 0.3308
C7B C 0.9684(4) -0.16223(18) 0.40721(19)
C8B C 0.5740(4) -0.27748(18) 0.28305(19)
H2B H 0.4483 -0.2746 0.2742
C9B C 0.8524(4) -0.34654(17) 0.25962(19)
C10B C 0.9699(4) -0.41013(18) 0.22141(19)
Co1A Co 0.5000 -0.5000 0.0000
Co1A_2 Co 1.5000 0.5000 1.0000
Co2_2 Co 1.70914(5) 0.01325(3) 0.67671(3)
Co2A Co 0.79086(5) 0.51325(3) 0.82329(3)
Co2A_2 Co 1.79086(5) 0.51325(3) 0.82329(3)
Co2B_2 Co 0.29086(5) -0.01325(3) 0.32329(3)
Co2C Co 0.20914(5) -0.51325(3) 0.17671(3)
Co2C_2 Co 1.20914(5) -0.51325(3) 0.17671(3)
Co3_2 Co 1.68901(5) 0.12792(2) 0.47337(3)
Co3A Co 0.81099(5) -0.37208(2) 0.02663(3)
Co3B_2 Co 0.31099(5) -0.12792(2) 0.52663(3)
Co3C Co 1.18901(5) 0.37208(2) 0.97337(3)
O2_2 O 0.5140(3) 0.10296(14) 0.68147(15)
O2B_2 O 1.4860(3) -0.10296(14) 0.31853(15)
O3_2 O 0.4630(3) 0.15546(15) 0.53953(14)
O3B_2 O 1.5370(3) -0.15546(15) 0.46047(14)
O4A O 0.4807(3) -0.08239(13) 0.63561(14)
O4A_2 O 1.4807(3) -0.08239(13) 0.63561(14)
O4C O 0.5193(3) 0.08239(13) 0.36439(14)
O4C_2 O 1.5193(3) 0.08239(13) 0.36439(14)
O6A O 0.5686(3) -0.04806(14) 0.77750(14)
O6C O 1.4314(3) 0.04806(14) 0.22250(14)
O7A O 1.0994(3) -0.08472(13) 0.60311(14)
O7C O 0.9006(3) 0.08472(13) 0.39689(14)
O9A O 0.9077(3) -0.07696(16) 0.71136(16)
O9C O 1.0923(3) 0.07696(16) 0.28864(16)
loop_
_geom_bond_atom_site_label_1
_geom_bond_atom_site_label_2
_geom_bond_site_symmetry_1
_geom_bond_site_symmetry_2
Co1 O1 1_555 1_555
Co2 O1 1_555 1_555
Co3 O1 1_555 1_555
O2 C1 1_555 1_555
O3 C1 1_555 1_555
O4 C10 1_555 1_555
O5 Co1 1_555 1_555
O6 C10 1_555 1_555
O7 C4 1_555 1_555
O8 Co3 1_555 1_555
O9 C4 1_555 1_555
O10 Co3 1_555 1_555
O11 Co2 1_555 1_555
C1 C5 1_555 1_555
C2 C4 1_555 1_555
C3 C5 1_555 1_555
C5 C8 1_555 1_555
C6 C3 1_555 1_555
H1 C6 1_555 1_555
C7 O5 1_555 1_555
C8 C2 1_555 1_555
H2 C8 1_555 1_555
C9 C2 1_555 1_555
C10 C9 1_555 1_555
Co2B O1B 1_555 1_555
Co3B O1B 1_555 1_555
O1B Co1 1_555 1_555
O2B C1B 1_555 1_555
O3B C1B 1_555 1_555
O4B C10B 1_555 1_555
O5B Co1 1_555 1_555
O6B C10B 1_555 1_555
O7B C4B 1_555 1_555
O8B Co3B 1_555 1_555
O9B C4B 1_555 1_555
O10B Co3B 1_555 1_555
O11B Co2B 1_555 1_555
C1B C5B 1_555 1_555
C2B C4B 1_555 1_555
C3B C5B 1_555 1_555
C5B C8B 1_555 1_555
C6B C3B 1_555 1_555
H1B C6B 1_555 1_555
C7B O5B 1_555 1_555
C8B C2B 1_555 1_555
H2B C8B 1_555 1_555
C9B C2B 1_555 1_555
C10B C9B 1_555 1_555
Co1A O7B 1_555 1_555
Co1A_2 O7 1_555 1_555
Co2_2 O2 1_555 1_555
Co2A O4 1_555 1_555
Co2A_2 O9 1_555 1_555
Co2B_2 O2B 1_555 1_555
Co2C O9B 1_555 1_555
Co2C_2 O4B 1_555 1_555
Co3_2 O3 1_555 1_555
Co3A O4B 1_555 1_555
Co3B_2 O3B 1_555 1_555
Co3C O4 1_555 1_555
O2_2 Co2 1_555 1_555
O2B_2 Co2B 1_555 1_555
O3_2 Co3 1_555 1_555
O3B_2 Co3B 1_555 1_555
O4A Co2 1_555 1_555
O4A_2 Co3B 1_555 1_555
O4C Co3 1_555 1_555
O4C_2 Co2B 1_555 1_555
O6A Co2 1_555 1_555
O6C Co2B 1_555 1_555
O7A Co1 1_555 1_555
O7C Co1 1_555 1_555
O9A Co2 1_555 1_555
O9C Co2B 1_555 1_555
Co3 O7C 1_555 1_555
O6 Co2A 1_555 1_555
O7 Co3C 1_555 1_555
O8 C7 1_555 1_555
C3 C7 1_555 1_555
C6 C9 1_555 1_555
Co3B O7A 1_555 1_555
O6B Co2C_2 1_555 1_555
O7B Co3A 1_555 1_555
O8B C7B 1_555 1_555
C3B C7B 1_555 1_555
C6B C9B 1_555 1_555
Co2_2 O4A_2 1_555 1_555
Co2B_2 O4C 1_555 1_555
Co3_2 O4C_2 1_555 1_555
Co3B_2 O4A 1_555 1_555

#END
