
#######################################################################
#
#                 Cambridge Crystallographic Data Centre
#                                CCDC 
#
#######################################################################
#
# If this CIF has been generated from an entry in the Cambridge 
# Structural Database, then it will include bibliographic, chemical, 
# crystal, experimental, refinement or atomic coordinate data resulting 
# from the CCDC's data processing and validation procedures.
#
#######################################################################

data_ROKRIU
_chemical_formula_moiety         'C64 H64 Cl1 Cu12 N33 O35'
_symmetry_cell_setting           tetragonal
_symmetry_space_group_name_H-M   'P 4/m n c'
_symmetry_Int_Tables_number      128
_space_group_name_Hall           '-P 4 2n'
loop_
_symmetry_equiv_pos_site_id
_symmetry_equiv_pos_as_xyz
1 x,y,z
2 -y,x,z
3 -x,-y,z
4 y,-x,z
5 1/2+x,1/2-y,1/2-z
6 1/2-x,1/2+y,1/2-z
7 1/2+y,1/2+x,1/2-z
8 1/2-y,1/2-x,1/2-z
9 -x,-y,-z
10 y,-x,-z
11 x,y,-z
12 -y,x,-z
13 1/2-x,1/2+y,1/2+z
14 1/2+x,1/2-y,1/2+z
15 1/2-y,1/2-x,1/2+z
16 1/2+y,1/2+x,1/2+z
_cell_length_a                   13.3088(4)
_cell_length_b                   13.3088(4)
_cell_length_c                   20.4387(8)
_cell_angle_alpha                90
_cell_angle_beta                 90
_cell_angle_gamma                90
_cell_volume                     3620.19
loop_
_atom_site_label
_atom_site_type_symbol
_atom_site_fract_x
_atom_site_fract_y
_atom_site_fract_z
Cu1 Cu 0.01707(6) 0.19180(6) 0.5000
Cl1 Cl -0.0000 -0.0000 0.5000
N1 N 0.1304(18) 0.1744(14) 0.4351(10)
N2 N 0.1929(14) 0.0928(15) 0.4336(9)
O1 O 0.0316(9) 0.3659(7) 0.4864(2)
H1 H 0.0022 0.3862 0.4487
H2 H 0.0997 0.3845 0.4967
C1 C 0.2510(6) 0.2164(7) 0.2810(4)
C2 C 0.2334(8) 0.3162(8) 0.2595(5)
H3 H 0.2198 0.3832 0.2460
C3 C 0.2465(7) 0.1029(8) 0.3787(5)
H4 H 0.3000 0.0592 0.3668
C4 C 0.1430(8) 0.2290(8) 0.3801(5)
H5 H 0.1079 0.2890 0.3697
N3 N 0.2160(15) 0.1832(13) 0.3411(11)
C5 C 0.2727(10) 0.1243(11) 0.3000(5)
C6 C 0.3482(7) 0.1953(8) 0.2619(5)
H6 H 0.3937 0.1607 0.2897
H7 H 0.2871 0.0576 0.3136
C7 C 0.2042(10) 0.2815(12) 0.3202(6)
H8 H 0.1693 0.3270 0.3479
C8 C 0.1845(8) 0.1480(11) 0.4055(6)
O2 O 0.1129(13) 0.1992(11) 0.4274(7)
O3 O 0.2211(11) 0.0741(13) 0.4268(7)
N1G N 0.3256(14) 0.3696(18) 0.0649(10)
N2G N 0.4072(15) 0.3071(14) 0.0664(9)
C1G C 0.2836(7) 0.2490(6) 0.2190(4)
C2G C 0.1838(8) 0.2666(8) 0.2405(5)
H3G H 0.1168 0.2802 0.2540
C3G C 0.3971(8) 0.2535(7) 0.1213(5)
H4G H 0.4408 0.2000 0.1332
C4G C 0.2710(8) 0.3570(8) 0.1199(5)
H5G H 0.2110 0.3921 0.1303
N3G N 0.3168(13) 0.2840(15) 0.1589(11)
C5G C 0.3757(11) 0.2273(10) 0.2000(5)
C6G C 0.3047(8) 0.1518(7) 0.2381(5)
H6G H 0.3393 0.1063 0.2103
H7G H 0.4424 0.2129 0.1864
C7G C 0.2185(12) 0.2958(10) 0.1798(6)
H8G H 0.1730 0.3307 0.1521
C8G C 0.3520(11) 0.3155(8) 0.0945(6)
O2G O 0.3008(11) 0.3871(13) 0.0726(7)
O3G O 0.4259(13) 0.2789(11) 0.0732(7)
O1J O 0.0316(9) 0.3659(7) 0.5136(2)
H1J H 0.0022 0.3862 0.5513
H2J H 0.0997 0.3845 0.5033
Cu1A Cu -0.19180(6) 0.01707(6) 0.5000
N1A N -0.1744(14) 0.1304(18) 0.4351(10)
N2A N -0.0928(15) 0.1929(14) 0.4336(9)
O1A O -0.3659(7) 0.0316(9) 0.4864(2)
H1A H -0.3862 0.0022 0.4487
H2A H -0.3845 0.0997 0.4967
C1A C -0.2164(7) 0.2510(6) 0.2810(4)
C2A C -0.3162(8) 0.2334(8) 0.2595(5)
H3A H -0.3832 0.2198 0.2460
C3A C -0.1029(8) 0.2465(7) 0.3787(5)
H4A H -0.0592 0.3000 0.3668
C4A C -0.2290(8) 0.1430(8) 0.3801(5)
H5A H -0.2890 0.1079 0.3697
N3A N -0.1832(13) 0.2160(15) 0.3411(11)
C5A C -0.1243(11) 0.2727(10) 0.3000(5)
C6A C -0.1953(8) 0.3482(7) 0.2619(5)
H6A H -0.1607 0.3937 0.2897
H7A H -0.0576 0.2871 0.3136
C7A C -0.2815(12) 0.2042(10) 0.3202(6)
H8A H -0.3270 0.1693 0.3479
C8A C -0.1480(11) 0.1845(8) 0.4055(6)
O2A O -0.1992(11) 0.1129(13) 0.4274(7)
O3A O -0.0741(13) 0.2211(11) 0.4268(7)
N1D N -0.3696(18) 0.3256(14) 0.0649(10)
N2D N -0.3071(14) 0.4072(15) 0.0664(9)
C1D C -0.2490(6) 0.2836(7) 0.2190(4)
C2D C -0.2666(8) 0.1838(8) 0.2405(5)
H3D H -0.2802 0.1168 0.2540
C3D C -0.2535(7) 0.3971(8) 0.1213(5)
H4D H -0.2000 0.4408 0.1332
C4D C -0.3570(8) 0.2710(8) 0.1199(5)
H5D H -0.3921 0.2110 0.1303
N3D N -0.2840(15) 0.3168(13) 0.1589(11)
C5D C -0.2273(10) 0.3757(11) 0.2000(5)
C6D C -0.1518(7) 0.3047(8) 0.2381(5)
H6D H -0.1063 0.3393 0.2103
H7D H -0.2129 0.4424 0.1864
C7D C -0.2958(10) 0.2185(12) 0.1798(6)
H8D H -0.3307 0.1730 0.1521
C8D C -0.3155(8) 0.3520(11) 0.0945(6)
O2D O -0.3871(13) 0.3008(11) 0.0726(7)
O3D O -0.2789(11) 0.4259(13) 0.0732(7)
O1K O -0.3659(7) 0.0316(9) 0.5136(2)
H1K H -0.3862 0.0022 0.5513
H2K H -0.3845 0.0997 0.5033
Cu1B Cu -0.01707(6) -0.19180(6) 0.5000
N1B N -0.1304(18) -0.1744(14) 0.4351(10)
N2B N -0.1929(14) -0.0928(15) 0.4336(9)
O1B O -0.0316(9) -0.3659(7) 0.4864(2)
H1B H -0.0022 -0.3862 0.4487
H2B H -0.0997 -0.3845 0.4967
C1B C -0.2510(6) -0.2164(7) 0.2810(4)
C2B C -0.2334(8) -0.3162(8) 0.2595(5)
H3B H -0.2198 -0.3832 0.2460
C3B C -0.2465(7) -0.1029(8) 0.3787(5)
H4B H -0.3000 -0.0592 0.3668
C4B C -0.1430(8) -0.2290(8) 0.3801(5)
H5B H -0.1079 -0.2890 0.3697
N3B N -0.2160(15) -0.1832(13) 0.3411(11)
C5B C -0.2727(10) -0.1243(11) 0.3000(5)
C6B C -0.3482(7) -0.1953(8) 0.2619(5)
H6B H -0.3937 -0.1607 0.2897
H7B H -0.2871 -0.0576 0.3136
C7B C -0.2042(10) -0.2815(12) 0.3202(6)
H8B H -0.1693 -0.3270 0.3479
C8B C -0.1845(8) -0.1480(11) 0.4055(6)
O2B O -0.1129(13) -0.1992(11) 0.4274(7)
O3B O -0.2211(11) -0.0741(13) 0.4268(7)
N1F N -0.3256(14) -0.3696(18) 0.0649(10)
N2F N -0.4072(15) -0.3071(14) 0.0664(9)
C1F C -0.2836(7) -0.2490(6) 0.2190(4)
C2F C -0.1838(8) -0.2666(8) 0.2405(5)
H3F H -0.1168 -0.2802 0.2540
C3F C -0.3971(8) -0.2535(7) 0.1213(5)
H4F H -0.4408 -0.2000 0.1332
C4F C -0.2710(8) -0.3570(8) 0.1199(5)
H5F H -0.2110 -0.3921 0.1303
N3F N -0.3168(13) -0.2840(15) 0.1589(11)
C5F C -0.3757(11) -0.2273(10) 0.2000(5)
C6F C -0.3047(8) -0.1518(7) 0.2381(5)
H6F H -0.3393 -0.1063 0.2103
H7F H -0.4424 -0.2129 0.1864
C7F C -0.2185(12) -0.2958(10) 0.1798(6)
H8F H -0.1730 -0.3307 0.1521
C8F C -0.3520(11) -0.3155(8) 0.0945(6)
O2F O -0.3008(11) -0.3871(13) 0.0726(7)
O3F O -0.4259(13) -0.2789(11) 0.0732(7)
O1H O -0.0316(9) -0.3659(7) 0.5136(2)
H1H H -0.0022 -0.3862 0.5513
H2H H -0.0997 -0.3845 0.5033
Cu1C Cu 0.19180(6) -0.01707(6) 0.5000
N1C N 0.1744(14) -0.1304(18) 0.4351(10)
N2C N 0.0928(15) -0.1929(14) 0.4336(9)
O1C O 0.3659(7) -0.0316(9) 0.4864(2)
H1C H 0.3862 -0.0022 0.4487
H2C H 0.3845 -0.0997 0.4967
C1C C 0.2164(7) -0.2510(6) 0.2810(4)
C2C C 0.3162(8) -0.2334(8) 0.2595(5)
H3C H 0.3832 -0.2198 0.2460
C3C C 0.1029(8) -0.2465(7) 0.3787(5)
H4C H 0.0592 -0.3000 0.3668
C4C C 0.2290(8) -0.1430(8) 0.3801(5)
H5C H 0.2890 -0.1079 0.3697
N3C N 0.1832(13) -0.2160(15) 0.3411(11)
C5C C 0.1243(11) -0.2727(10) 0.3000(5)
C6C C 0.1953(8) -0.3482(7) 0.2619(5)
H6C H 0.1607 -0.3937 0.2897
H7C H 0.0576 -0.2871 0.3136
C7C C 0.2815(12) -0.2042(10) 0.3202(6)
H8C H 0.3270 -0.1693 0.3479
C8C C 0.1480(11) -0.1845(8) 0.4055(6)
O2C O 0.1992(11) -0.1129(13) 0.4274(7)
O3C O 0.0741(13) -0.2211(11) 0.4268(7)
N1E N 0.3696(18) -0.3256(14) 0.0649(10)
N2E N 0.3071(14) -0.4072(15) 0.0664(9)
C1E C 0.2490(6) -0.2836(7) 0.2190(4)
C2E C 0.2666(8) -0.1838(8) 0.2405(5)
H3E H 0.2802 -0.1168 0.2540
C3E C 0.2535(7) -0.3971(8) 0.1213(5)
H4E H 0.2000 -0.4408 0.1332
C4E C 0.3570(8) -0.2710(8) 0.1199(5)
H5E H 0.3921 -0.2110 0.1303
N3E N 0.2840(15) -0.3168(13) 0.1589(11)
C5E C 0.2273(10) -0.3757(11) 0.2000(5)
C6E C 0.1518(7) -0.3047(8) 0.2381(5)
H6E H 0.1063 -0.3393 0.2103
H7E H 0.2129 -0.4424 0.1864
C7E C 0.2958(10) -0.2185(12) 0.1798(6)
H8E H 0.3307 -0.1730 0.1521
C8E C 0.3155(8) -0.3520(11) 0.0945(6)
O2E O 0.3871(13) -0.3008(11) 0.0726(7)
O3E O 0.2789(11) -0.4259(13) 0.0732(7)
O1I O 0.3659(7) -0.0316(9) 0.5136(2)
H1I H 0.3862 -0.0022 0.5513
H2I H 0.3845 -0.0997 0.5033
Cu1D Cu -0.48293(6) 0.30820(6) 0.0000
Cu1D_2 Cu 0.51707(6) 0.30820(6) 0.0000
Cu1E Cu -0.51707(6) -0.30820(6) 0.0000
Cu1E_2 Cu 0.48293(6) -0.30820(6) 0.0000
Cu1F Cu -0.30820(6) -0.48293(6) 0.0000
Cu1F_2 Cu -0.30820(6) 0.51707(6) 0.0000
Cu1G Cu 0.30820(6) -0.51707(6) 0.0000
Cu1G_2 Cu 0.30820(6) 0.48293(6) 0.0000
N1H N -0.1304(18) -0.1744(14) 0.5649(10)
N1I N 0.1744(14) -0.1304(18) 0.5649(10)
N1J N 0.1304(18) 0.1744(14) 0.5649(10)
N1K N -0.1744(14) 0.1304(18) 0.5649(10)
N2H N -0.1929(14) -0.0928(15) 0.5664(9)
N2I N 0.0928(15) -0.1929(14) 0.5664(9)
N2J N 0.1929(14) 0.0928(15) 0.5664(9)
N2K N -0.0928(15) 0.1929(14) 0.5664(9)
O2H O -0.1129(13) -0.1992(11) 0.5726(7)
O2I O 0.1992(11) -0.1129(13) 0.5726(7)
O2J O 0.1129(13) 0.1992(11) 0.5726(7)
O2K O -0.1992(11) 0.1129(13) 0.5726(7)
O3H O -0.2211(11) -0.0741(13) 0.5732(7)
O3I O 0.0741(13) -0.2211(11) 0.5732(7)
O3J O 0.2211(11) 0.0741(13) 0.5732(7)
O3K O -0.0741(13) 0.2211(11) 0.5732(7)
O4 O 0.0368(8) 0.4296(7) 0.3156(6)
O5 O -0.0000 0.5000 0.3997(11)
N4 N -0.0000 0.5000 0.3416(10)
O4B O -0.0368(8) 0.5704(7) 0.3156(6)
loop_
_geom_bond_atom_site_label_1
_geom_bond_atom_site_label_2
_geom_bond_site_symmetry_1
_geom_bond_site_symmetry_2
Cu1 Cl1 1_555 1_555
Cl1 Cu1A 1_555 1_555
N1 Cu1 1_555 1_555
N2 N1 1_555 1_555
O1 Cu1 1_555 1_555
H1 O1 1_555 1_555
H2 O1 1_555 1_555
C1 C2 1_555 1_555
C2 H3 1_555 1_555
C3 N2 1_555 1_555
H4 C3 1_555 1_555
C4 N1 1_555 1_555
H5 C4 1_555 1_555
N3 C1 1_555 1_555
C5 C1 1_555 1_555
C6 C1 1_555 1_555
H6 C6 1_555 1_555
H7 C5 1_555 1_555
C7 C1 1_555 1_555
H8 C7 1_555 1_555
C8 N1 1_555 1_555
O2 Cu1 1_555 1_555
O3 N1 1_555 1_555
O4 N4 1_555 1_555
O5 N4 1_555 1_555
N4 O4B 1_555 1_555
N1G N2G 1_555 1_555
N2G C3G 1_555 1_555
C1G C1 1_555 1_555
C2G C1 1_555 1_555
H3G C2G 1_555 1_555
C3G H4G 1_555 1_555
C4G N1G 1_555 1_555
H5G C4G 1_555 1_555
N3G C1G 1_555 1_555
C5G C6 1_555 1_555
C6G C1 1_555 1_555
H6G C6G 1_555 1_555
H7G C5G 1_555 1_555
C7G C2 1_555 1_555
H8G C7G 1_555 1_555
C8G N1G 1_555 1_555
O2G N2G 1_555 1_555
O3G N1G 1_555 1_555
O1J Cu1 1_555 1_555
H1J O1J 1_555 1_555
H2J O1 1_555 1_555
Cu1A N1A 1_555 1_555
N1A N2A 1_555 1_555
N2A Cu1 1_555 1_555
O1A Cu1A 1_555 1_555
H1A O1A 1_555 1_555
H2A O1A 1_555 1_555
C1A C2A 1_555 1_555
C2A H3A 1_555 1_555
C3A N2A 1_555 1_555
H4A C3A 1_555 1_555
C4A N1A 1_555 1_555
H5A C4A 1_555 1_555
N3A C1A 1_555 1_555
C5A C1A 1_555 1_555
C6A C1A 1_555 1_555
H6A C6A 1_555 1_555
H7A C5A 1_555 1_555
C7A C1A 1_555 1_555
H8A C7A 1_555 1_555
C8A N1A 1_555 1_555
O2A Cu1A 1_555 1_555
O3A Cu1 1_555 1_555
N1D N2D 1_555 1_555
N2D C3D 1_555 1_555
C1D C1A 1_555 1_555
C2D C1A 1_555 1_555
H3D C2D 1_555 1_555
C3D H4D 1_555 1_555
C4D N1D 1_555 1_555
H5D C4D 1_555 1_555
N3D C1D 1_555 1_555
C5D C6A 1_555 1_555
C6D C1A 1_555 1_555
H6D C6D 1_555 1_555
H7D C5D 1_555 1_555
C7D C2A 1_555 1_555
H8D C7D 1_555 1_555
C8D N1D 1_555 1_555
O2D N2D 1_555 1_555
O3D N1D 1_555 1_555
O1K Cu1A 1_555 1_555
H1K O1K 1_555 1_555
H2K O1A 1_555 1_555
Cu1B Cl1 1_555 1_555
N1B Cu1B 1_555 1_555
N2B Cu1A 1_555 1_555
O1B Cu1B 1_555 1_555
H1B O1B 1_555 1_555
H2B O1B 1_555 1_555
C1B C2B 1_555 1_555
C2B H3B 1_555 1_555
C3B N2B 1_555 1_555
H4B C3B 1_555 1_555
C4B N1B 1_555 1_555
H5B C4B 1_555 1_555
N3B C1B 1_555 1_555
C5B C1B 1_555 1_555
C6B C1B 1_555 1_555
H6B C6B 1_555 1_555
H7B C5B 1_555 1_555
C7B C1B 1_555 1_555
H8B C7B 1_555 1_555
C8B N1B 1_555 1_555
O2B Cu1B 1_555 1_555
O3B Cu1A 1_555 1_555
N1F N2F 1_555 1_555
N2F C3F 1_555 1_555
C1F C1B 1_555 1_555
C2F C1B 1_555 1_555
H3F C2F 1_555 1_555
C3F H4F 1_555 1_555
C4F N1F 1_555 1_555
H5F C4F 1_555 1_555
N3F C1F 1_555 1_555
C5F C6B 1_555 1_555
C6F C1B 1_555 1_555
H6F C6F 1_555 1_555
H7F C5F 1_555 1_555
C7F C2B 1_555 1_555
H8F C7F 1_555 1_555
C8F N1F 1_555 1_555
O2F N2F 1_555 1_555
O3F N1F 1_555 1_555
O1H Cu1B 1_555 1_555
H1H O1H 1_555 1_555
H2H O1B 1_555 1_555
Cu1C Cl1 1_555 1_555
N1C Cu1C 1_555 1_555
N2C Cu1B 1_555 1_555
O1C Cu1C 1_555 1_555
H1C O1C 1_555 1_555
H2C O1C 1_555 1_555
C1C C2C 1_555 1_555
C2C H3C 1_555 1_555
C3C N2C 1_555 1_555
H4C C3C 1_555 1_555
C4C N1C 1_555 1_555
H5C C4C 1_555 1_555
N3C C1C 1_555 1_555
C5C C1C 1_555 1_555
C6C C1C 1_555 1_555
H6C C6C 1_555 1_555
H7C C5C 1_555 1_555
C7C C1C 1_555 1_555
H8C C7C 1_555 1_555
C8C N1C 1_555 1_555
O2C Cu1C 1_555 1_555
O3C Cu1B 1_555 1_555
N1E N2E 1_555 1_555
N2E C3E 1_555 1_555
C1E C1C 1_555 1_555
C2E C1C 1_555 1_555
H3E C2E 1_555 1_555
C3E H4E 1_555 1_555
C4E N1E 1_555 1_555
H5E C4E 1_555 1_555
N3E C1E 1_555 1_555
C5E C6C 1_555 1_555
C6E C1C 1_555 1_555
H6E C6E 1_555 1_555
H7E C5E 1_555 1_555
C7E C2C 1_555 1_555
H8E C7E 1_555 1_555
C8E N1E 1_555 1_555
O2E N2E 1_555 1_555
O3E N1E 1_555 1_555
O1I Cu1C 1_555 1_555
H1I O1I 1_555 1_555
H2I O1C 1_555 1_555
Cu1D N1D 1_555 1_555
Cu1D_2 N2G 1_555 1_555
Cu1E N2F 1_555 1_555
Cu1E_2 N1E 1_555 1_555
Cu1F N1F 1_555 1_555
Cu1F_2 N2D 1_555 1_555
Cu1G N2E 1_555 1_555
Cu1G_2 N1G 1_555 1_555
N1H Cu1B 1_555 1_555
N1I Cu1C 1_555 1_555
N1J Cu1 1_555 1_555
N1K Cu1A 1_555 1_555
N2H Cu1A 1_555 1_555
N2I Cu1B 1_555 1_555
N2J Cu1C 1_555 1_555
N2K Cu1 1_555 1_555
O2H Cu1B 1_555 1_555
O2I Cu1C 1_555 1_555
O2J Cu1 1_555 1_555
O2K Cu1A 1_555 1_555
O3H Cu1A 1_555 1_555
O3I Cu1B 1_555 1_555
O3J Cu1C 1_555 1_555
O3K Cu1 1_555 1_555
N2 C8 1_555 1_555
N2 O2 1_555 1_555
N2 Cu1C 1_555 1_555
O1 O1J 1_555 1_555
H2 O1J 1_555 1_555
C2 C7 1_555 1_555
C2 C1G 1_555 1_555
C2 C2G 1_555 1_555
C3 N3 1_555 1_555
C3 C5 1_555 1_555
C3 C8 1_555 1_555
C3 O3 1_555 1_555
C4 N3 1_555 1_555
C4 C7 1_555 1_555
C4 C8 1_555 1_555
C4 O2 1_555 1_555
N3 C5 1_555 1_555
N3 C7 1_555 1_555
N3 C8 1_555 1_555
C5 C6 1_555 1_555
C5 C6G 1_555 1_555
C6 C1G 1_555 1_555
C6 C6G 1_555 1_555
C7 C2G 1_555 1_555
C8 O2 1_555 1_555
C8 O3 1_555 1_555
O3 Cu1C 1_555 1_555
N2G C8G 1_555 1_555
C1G C2G 1_555 1_555
C1G C5G 1_555 1_555
C1G C6G 1_555 1_555
C1G C7G 1_555 1_555
C2G C7G 1_555 1_555
C3G N3G 1_555 1_555
C3G C5G 1_555 1_555
C3G C8G 1_555 1_555
C3G O3G 1_555 1_555
C4G N3G 1_555 1_555
C4G C7G 1_555 1_555
C4G C8G 1_555 1_555
C4G O2G 1_555 1_555
N3G C5G 1_555 1_555
N3G C7G 1_555 1_555
N3G C8G 1_555 1_555
C5G C6G 1_555 1_555
C8G O2G 1_555 1_555
C8G O3G 1_555 1_555
O2G Cu1G_2 1_555 1_555
O3G Cu1D_2 1_555 1_555
O1J H2J 1_555 1_555
N1A O3A 1_555 1_555
N2A C8A 1_555 1_555
N2A O2A 1_555 1_555
O1A O1K 1_555 1_555
H2A O1K 1_555 1_555
C2A C7A 1_555 1_555
C2A C1D 1_555 1_555
C2A C2D 1_555 1_555
C3A N3A 1_555 1_555
C3A C5A 1_555 1_555
C3A C8A 1_555 1_555
C3A O3A 1_555 1_555
C4A N3A 1_555 1_555
C4A C7A 1_555 1_555
C4A C8A 1_555 1_555
C4A O2A 1_555 1_555
N3A C5A 1_555 1_555
N3A C7A 1_555 1_555
N3A C8A 1_555 1_555
C5A C6A 1_555 1_555
C5A C6D 1_555 1_555
C6A C1D 1_555 1_555
C6A C6D 1_555 1_555
C7A C2D 1_555 1_555
C8A O2A 1_555 1_555
C8A O3A 1_555 1_555
N2D C8D 1_555 1_555
C1D C2D 1_555 1_555
C1D C5D 1_555 1_555
C1D C6D 1_555 1_555
C1D C7D 1_555 1_555
C2D C7D 1_555 1_555
C3D N3D 1_555 1_555
C3D C5D 1_555 1_555
C3D C8D 1_555 1_555
C3D O3D 1_555 1_555
C4D N3D 1_555 1_555
C4D C7D 1_555 1_555
C4D C8D 1_555 1_555
C4D O2D 1_555 1_555
N3D C5D 1_555 1_555
N3D C7D 1_555 1_555
N3D C8D 1_555 1_555
C5D C6D 1_555 1_555
C8D O2D 1_555 1_555
C8D O3D 1_555 1_555
O2D Cu1D 1_555 1_555
O3D Cu1F_2 1_555 1_555
O1K H2K 1_555 1_555
N1B N2B 1_555 1_555
N1B O3B 1_555 1_555
N2B C8B 1_555 1_555
N2B O2B 1_555 1_555
O1B O1H 1_555 1_555
H2B O1H 1_555 1_555
C2B C7B 1_555 1_555
C2B C1F 1_555 1_555
C2B C2F 1_555 1_555
C3B N3B 1_555 1_555
C3B C5B 1_555 1_555
C3B C8B 1_555 1_555
C3B O3B 1_555 1_555
C4B N3B 1_555 1_555
C4B C7B 1_555 1_555
C4B C8B 1_555 1_555
C4B O2B 1_555 1_555
N3B C5B 1_555 1_555
N3B C7B 1_555 1_555
N3B C8B 1_555 1_555
C5B C6B 1_555 1_555
C5B C6F 1_555 1_555
C6B C1F 1_555 1_555
C6B C6F 1_555 1_555
C7B C2F 1_555 1_555
C8B O2B 1_555 1_555
C8B O3B 1_555 1_555
N2F C8F 1_555 1_555
C1F C2F 1_555 1_555
C1F C5F 1_555 1_555
C1F C6F 1_555 1_555
C1F C7F 1_555 1_555
C2F C7F 1_555 1_555
C3F N3F 1_555 1_555
C3F C5F 1_555 1_555
C3F C8F 1_555 1_555
C3F O3F 1_555 1_555
C4F N3F 1_555 1_555
C4F C7F 1_555 1_555
C4F C8F 1_555 1_555
C4F O2F 1_555 1_555
N3F C5F 1_555 1_555
N3F C7F 1_555 1_555
N3F C8F 1_555 1_555
C5F C6F 1_555 1_555
C8F O2F 1_555 1_555
C8F O3F 1_555 1_555
O2F Cu1F 1_555 1_555
O3F Cu1E 1_555 1_555
O1H H2H 1_555 1_555
N1C N2C 1_555 1_555
N1C O3C 1_555 1_555
N2C C8C 1_555 1_555
N2C O2C 1_555 1_555
O1C O1I 1_555 1_555
H2C O1I 1_555 1_555
C2C C7C 1_555 1_555
C2C C1E 1_555 1_555
C2C C2E 1_555 1_555
C3C N3C 1_555 1_555
C3C C5C 1_555 1_555
C3C C8C 1_555 1_555
C3C O3C 1_555 1_555
C4C N3C 1_555 1_555
C4C C7C 1_555 1_555
C4C C8C 1_555 1_555
C4C O2C 1_555 1_555
N3C C5C 1_555 1_555
N3C C7C 1_555 1_555
N3C C8C 1_555 1_555
C5C C6C 1_555 1_555
C5C C6E 1_555 1_555
C6C C1E 1_555 1_555
C6C C6E 1_555 1_555
C7C C2E 1_555 1_555
C8C O2C 1_555 1_555
C8C O3C 1_555 1_555
N2E C8E 1_555 1_555
C1E C2E 1_555 1_555
C1E C5E 1_555 1_555
C1E C6E 1_555 1_555
C1E C7E 1_555 1_555
C2E C7E 1_555 1_555
C3E N3E 1_555 1_555
C3E C5E 1_555 1_555
C3E C8E 1_555 1_555
C3E O3E 1_555 1_555
C4E N3E 1_555 1_555
C4E C7E 1_555 1_555
C4E C8E 1_555 1_555
C4E O2E 1_555 1_555
N3E C5E 1_555 1_555
N3E C7E 1_555 1_555
N3E C8E 1_555 1_555
C5E C6E 1_555 1_555
C8E O2E 1_555 1_555
C8E O3E 1_555 1_555
O2E Cu1E_2 1_555 1_555
O3E Cu1G 1_555 1_555
O1I H2I 1_555 1_555
N1H N2H 1_555 1_555
N1H O3H 1_555 1_555
N1I N2I 1_555 1_555
N1I O3I 1_555 1_555
N1J N2J 1_555 1_555
N1J O3J 1_555 1_555
N1K N2K 1_555 1_555
N1K O3K 1_555 1_555
N2H O2H 1_555 1_555
N2I O2I 1_555 1_555
N2J O2J 1_555 1_555
N2K O2K 1_555 1_555

#END
