
#######################################################################
#
#                 Cambridge Crystallographic Data Centre
#                                CCDC 
#
#######################################################################
#
# If this CIF has been generated from an entry in the Cambridge 
# Structural Database, then it will include bibliographic, chemical, 
# crystal, experimental, refinement or atomic coordinate data resulting 
# from the CCDC's data processing and validation procedures.
#
#######################################################################

data_SALLAT
_chemical_formula_moiety         '(C9 H8 Cd1 N6 O3)n'
_symmetry_cell_setting           monoclinic
_symmetry_space_group_name_H-M   'C 2/c'
_symmetry_Int_Tables_number      15
_space_group_name_Hall           '-C 2yc'
loop_
_symmetry_equiv_pos_site_id
_symmetry_equiv_pos_as_xyz
1 x,y,z
2 x,-y,1/2+z
3 1/2+x,1/2+y,z
4 1/2+x,1/2-y,1/2+z
5 -x,-y,-z
6 -x,y,1/2-z
7 1/2-x,1/2-y,-z
8 1/2-x,1/2+y,1/2-z
_cell_length_a                   15.686(3)
_cell_length_b                   8.1650(18)
_cell_length_c                   13.119(3)
_cell_angle_alpha                90
_cell_angle_beta                 119.334(2)
_cell_angle_gamma                90
_cell_volume                     1464.79
loop_
_atom_site_label
_atom_site_type_symbol
_atom_site_fract_x
_atom_site_fract_y
_atom_site_fract_z
Cd1 Cd 0.0000 0.42541(4) 0.2500
N1 N 0.2122(2) 0.3054(4) 0.8518(2)
H1 H 0.1851 0.3056 0.8951
H2 H 0.2733 0.2825 0.8818
N2 N 0.1053(2) 0.4136(3) 0.4523(2)
N3 N 0.3836(2) 0.2507(4) 0.7473(2)
O1 O 0.07036(15) 0.3741(3) 0.69401(18)
C1 C 0.1599(2) 0.3404(4) 0.7391(3)
C2 C 0.2060(2) 0.3377(4) 0.6680(2)
C3 C 0.1503(2) 0.3802(4) 0.5494(3)
C4 C 0.3035(2) 0.2893(4) 0.7114(2)
N1E N -0.2122(2) 0.3054(4) -0.3518(2)
H1E H -0.1851 0.3056 -0.3951
H2E H -0.2733 0.2825 -0.3818
N2E N -0.1053(2) 0.4136(3) 0.0477(2)
N3E N -0.3836(2) 0.2507(4) -0.2473(2)
O1E O -0.07036(15) 0.3741(3) -0.19401(18)
C1E C -0.1599(2) 0.3404(4) -0.2391(3)
C2E C -0.2060(2) 0.3377(4) -0.1680(2)
C3E C -0.1503(2) 0.3802(4) -0.0494(3)
C4E C -0.3035(2) 0.2893(4) -0.2114(2)
N3C N -0.1164(2) 0.2493(4) 0.2473(2)
N3F N 0.1164(2) 0.2493(4) 0.2527(2)
O1A O 0.07036(15) 0.6259(3) 0.19401(18)
O1D O -0.07036(15) 0.6259(3) 0.30599(18)
Cd1C Cd 0.5000 0.07459(4) 0.7500
Cd1A Cd 0.0000 0.57459(4) 0.7500
Cd1C_2 Cd -0.5000 0.07459(4) -0.2500
Cd1A_2 Cd 0.0000 0.57459(4) -0.2500
O2 O 0.90805(18) 0.8010(3) 0.0324(2)
C5 C 0.9281(5) 0.9595(7) 0.0754(6)
H3 H 0.962(2) 0.740(5) 0.058(4)
H4 H 0.918(3) 0.974(3) 0.143(2)
H5 H 0.9954(12) 0.997(3) 0.105(3)
H6 H 0.887(2) 1.045(2) 0.021(2)
loop_
_geom_bond_atom_site_label_1
_geom_bond_atom_site_label_2
_geom_bond_site_symmetry_1
_geom_bond_site_symmetry_2
Cd1 N2 1_555 1_555
N1 H1 1_555 1_555
H2 N1 1_555 1_555
N2 C3 1_555 1_555
N3 C4 1_555 1_555
O1 C1 1_555 1_555
O2 C5 1_555 1_555
C1 N1 1_555 1_555
C2 C1 1_555 1_555
C3 C2 1_555 1_555
C4 C2 1_555 1_555
C5 H4 1_555 1_555
H3 O2 1_555 1_555
H5 C5 1_555 1_555
H6 C5 1_555 1_555
N1E H1E 1_555 1_555
H2E N1E 1_555 1_555
N2E Cd1 1_555 1_555
N3E C4E 1_555 1_555
O1E C1E 1_555 1_555
C1E N1E 1_555 1_555
C2E C1E 1_555 1_555
C3E N2E 1_555 1_555
C4E C2E 1_555 1_555
N3C Cd1 1_555 1_555
N3F Cd1 1_555 1_555
O1A Cd1 1_555 1_555
O1D Cd1 1_555 1_555
Cd1C N3 1_555 1_555
Cd1A O1 1_555 1_555
Cd1C_2 N3E 1_555 1_555
Cd1A_2 O1E 1_555 1_555
C2E C3E 1_555 1_555

#END
