
#######################################################################
#
#                 Cambridge Crystallographic Data Centre
#                                CCDC 
#
#######################################################################
#
# If this CIF has been generated from an entry in the Cambridge 
# Structural Database, then it will include bibliographic, chemical, 
# crystal, experimental, refinement or atomic coordinate data resulting 
# from the CCDC's data processing and validation procedures.
#
#######################################################################

data_TEBCEK
_chemical_formula_moiety         '(C48 H42 Co3 N8 O14)n'
_symmetry_cell_setting           triclinic
_symmetry_space_group_name_H-M   'P -1'
_symmetry_Int_Tables_number      2
_space_group_name_Hall           '-P 1'
loop_
_symmetry_equiv_pos_site_id
_symmetry_equiv_pos_as_xyz
1 x,y,z
2 -x,-y,-z
_cell_length_a                   9.141
_cell_length_b                   9.667
_cell_length_c                   13.855
_cell_angle_alpha                100.83
_cell_angle_beta                 90.81
_cell_angle_gamma                100.94
_cell_volume                     1179.08
loop_
_atom_site_label
_atom_site_type_symbol
_atom_site_fract_x
_atom_site_fract_y
_atom_site_fract_z
C1 C 0.4522(10) 0.7271(10) 0.7790(7)
H1 H 0.5404 0.7973 0.8030
H2 H 0.4106 0.6838 0.8320
Co1 Co 0.0000 0.0000 0.5000
Co2 Co 0.15055(6) -1.03944(5) -0.26753(4)
N1 N 0.0449(4) -0.9398(4) -0.1548(2)
N2 N 0.0126(4) -0.7898(4) -0.0201(2)
N3 N 0.1398(4) -0.2816(3) 0.2647(2)
N4 N 0.1121(4) -0.1081(4) 0.3873(2)
O1 O 0.1940(3) 0.0401(3) 0.6080(2)
O2 O 0.3308(4) 0.1810(4) 0.7308(2)
O3 O 0.9254(3) 0.8006(3) 0.5350(2)
O4 O 0.9976(6) 0.7885(4) 0.6861(3)
O6 O 0.311(3) 0.908(3) 0.8181(12)
O8 O 0.2997(16) 0.7747(15) 0.6547(6)
C2 C -0.0944(5) -0.9850(4) -0.1216(3)
H3 H -0.1631 -1.0661 -0.1516
C3 C -0.1158(5) -0.8935(5) -0.0386(3)
H4 H -0.2001 -0.8994 -0.0015
C4 C 0.1060(5) -0.8227(4) -0.0919(3)
H5 H 0.2009 -0.7695 -0.0963
C5 C 0.0427(4) -0.6655(4) 0.0570(3)
C6 C 0.1876(5) -0.6097(5) 0.0917(3)
H6 H 0.2638 -0.6569 0.0690
C7 C 0.2194(5) -0.4826(5) 0.1608(3)
H7 H 0.3173 -0.4436 0.1841
C8 C 0.1053(4) -0.4144(4) 0.1949(3)
C9 C -0.0416(5) -0.4735(4) 0.1620(3)
H8 H -0.1183 -0.4286 0.1867
C10 C -0.0733(5) -0.5996(4) 0.0923(3)
H9 H -0.1712 -0.6396 0.0695
C11 C 0.2662(5) -0.1771(5) 0.2726(3)
H10 H 0.3484 -0.1788 0.2339
C12 C 0.2479(5) -0.0713(5) 0.3474(3)
H11 H 0.3167 0.0136 0.3689
C13 C 0.0514(5) -0.2349(4) 0.3357(3)
H12 H -0.0416 -0.2863 0.3467
C14 C 0.3026(4) 0.1461(4) 0.6414(3)
C15 C 0.3925(5) 0.2175(5) 0.5683(3)
H13 H 0.3253 0.2194 0.5140
H14 H 0.4624 0.1576 0.5423
C16 C 0.4791(5) 0.3674(4) 0.6041(3)
C17 C 0.4128(7) 0.4736(6) 0.6543(6)
H15 H 0.3129 0.4512 0.6686
C18 C 0.4896(7) 0.6114(6) 0.6839(6)
C19 C 0.6363(7) 0.6467(5) 0.6620(4)
H16 H 0.6884 0.7407 0.6816
C20 C 0.7064(4) 0.5441(4) 0.6114(3)
C21 C 0.6263(4) 0.4051(4) 0.5832(3)
H17 H 0.6734 0.3350 0.5490
C22 C 0.8673(4) 0.5768(4) 0.5852(3)
H18 H 0.8739 0.5363 0.5162
H19 H 0.9252 0.5295 0.6232
C23 C 0.9360(4) 0.7347(4) 0.6032(3)
C26 C 0.3397(15) 0.7980(12) 0.7371(10)
C1A C -0.4522(10) -0.7271(10) 0.2210(7)
H1A H -0.5404 -0.7973 0.1970
H2A H -0.4106 -0.6838 0.1680
Co1_2 Co 1.0000 1.0000 0.5000
Co1_3 Co -1.0000 -1.0000 0.5000
Co2A Co -0.15055(6) 1.03944(5) 1.26753(4)
Co2_2 Co 0.15055(6) -0.03944(5) 0.73247(4)
Co2_3 Co 1.15055(6) 0.96056(5) 0.73247(4)
Co2_4 Co 0.15055(6) 0.96056(5) 0.73247(4)
Co2A_2 Co -0.15055(6) 0.03944(5) 0.26753(4)
Co2A_3 Co -1.15055(6) -0.96056(5) 0.26753(4)
Co2A_4 Co -0.15055(6) -0.96056(5) 0.26753(4)
N1A N -0.0449(4) 0.9398(4) 1.1548(2)
N2A N -0.0126(4) 0.7898(4) 1.0201(2)
N3A N -0.1398(4) 0.2816(3) 0.7353(2)
N4A N -0.1121(4) 0.1081(4) 0.6127(2)
O1A O -0.1940(3) -0.0401(3) 0.3920(2)
O1_2 O 0.1940(3) -0.9599(3) -0.3920(2)
O1A_2 O -0.1940(3) 0.9599(3) 1.3920(2)
O2A O -0.3308(4) -0.1810(4) 0.2692(2)
O3A O -0.9254(3) -0.8006(3) 0.4650(2)
O3_2 O -0.0746(3) -0.1994(3) 0.5350(2)
O3A_2 O 0.0746(3) 0.1994(3) 0.4650(2)
O4A O -0.9976(6) -0.7885(4) 0.3139(3)
O4_2 O -0.0024(6) -1.2115(4) -0.3139(3)
O4A_2 O 0.0024(6) 1.2115(4) 1.3139(3)
O6A O -0.311(3) -0.908(3) 0.1819(12)
O6_2 O 0.311(3) -1.092(3) -0.1819(12)
O6A_2 O -0.311(3) 1.092(3) 1.1819(12)
O8A O -0.2997(16) -0.7747(15) 0.3453(6)
C2A C 0.0944(5) 0.9850(4) 1.1216(3)
H3A H 0.1631 1.0661 1.1516
C3A C 0.1158(5) 0.8935(5) 1.0386(3)
H4A H 0.2001 0.8994 1.0015
C4A C -0.1060(5) 0.8227(4) 1.0919(3)
H5A H -0.2009 0.7695 1.0963
C5A C -0.0427(4) 0.6655(4) 0.9430(3)
C6A C -0.1876(5) 0.6097(5) 0.9083(3)
H6A H -0.2638 0.6569 0.9310
C7A C -0.2194(5) 0.4826(5) 0.8392(3)
H7A H -0.3173 0.4436 0.8159
C8A C -0.1053(4) 0.4144(4) 0.8051(3)
C9A C 0.0416(5) 0.4735(4) 0.8380(3)
H8A H 0.1183 0.4286 0.8133
C10A C 0.0733(5) 0.5996(4) 0.9077(3)
H9A H 0.1712 0.6396 0.9305
C11A C -0.2662(5) 0.1771(5) 0.7274(3)
H10A H -0.3484 0.1788 0.7661
C12A C -0.2479(5) 0.0713(5) 0.6526(3)
H11A H -0.3167 -0.0136 0.6311
C13A C -0.0514(5) 0.2349(4) 0.6643(3)
H12A H 0.0416 0.2863 0.6533
C14A C -0.3026(4) -0.1461(4) 0.3586(3)
C15A C -0.3925(5) -0.2175(5) 0.4317(3)
H13A H -0.3253 -0.2194 0.4860
H14A H -0.4624 -0.1576 0.4577
C16A C -0.4791(5) -0.3674(4) 0.3959(3)
C17A C -0.4128(7) -0.4736(6) 0.3457(6)
H15A H -0.3129 -0.4512 0.3314
C18A C -0.4896(7) -0.6114(6) 0.3161(6)
C19A C -0.6363(7) -0.6467(5) 0.3380(4)
H16A H -0.6884 -0.7407 0.3184
C20A C -0.7064(4) -0.5441(4) 0.3886(3)
C21A C -0.6263(4) -0.4051(4) 0.4168(3)
H17A H -0.6734 -0.3350 0.4510
C22A C -0.8673(4) -0.5768(4) 0.4148(3)
H18A H -0.8739 -0.5363 0.4838
H19A H -0.9252 -0.5295 0.3768
C23A C -0.9360(4) -0.7347(4) 0.3968(3)
C26A C -0.3397(15) -0.7980(12) 0.2629(10)
O9 O 0.5116(10) 0.8466(12) 0.0598(6)
O10 O 0.4152(7) 0.4313(10) 0.8892(7)
H22 H 0.3879 0.4558 0.8371
H23 H 0.4237 0.4910 0.9435
loop_
_geom_bond_atom_site_label_1
_geom_bond_atom_site_label_2
_geom_bond_site_symmetry_1
_geom_bond_site_symmetry_2
C1 H1 1_555 1_555
H2 C1 1_555 1_555
Co1 N4 1_555 1_555
Co2 N1 1_555 1_555
N1 C2 1_555 1_555
N2 C3 1_555 1_555
N3 C8 1_555 1_555
N4 C12 1_555 1_555
O1 Co1 1_555 1_555
O2 C14 1_555 1_555
O3 C23 1_555 1_555
O4 C23 1_555 1_555
O6 C26 1_555 1_555
O8 C26 1_555 1_555
C2 H3 1_555 1_555
C3 C2 1_555 1_555
H4 C3 1_555 1_555
C4 N1 1_555 1_555
H5 C4 1_555 1_555
C5 N2 1_555 1_555
C6 C5 1_555 1_555
H6 C6 1_555 1_555
C7 C6 1_555 1_555
H7 C7 1_555 1_555
C8 C7 1_555 1_555
C9 C8 1_555 1_555
H8 C9 1_555 1_555
C10 C5 1_555 1_555
H9 C10 1_555 1_555
C11 N3 1_555 1_555
H10 C11 1_555 1_555
C12 C11 1_555 1_555
H11 C12 1_555 1_555
C13 N3 1_555 1_555
H12 C13 1_555 1_555
C14 O1 1_555 1_555
C15 C14 1_555 1_555
H13 C15 1_555 1_555
H14 C15 1_555 1_555
C16 C15 1_555 1_555
C17 C16 1_555 1_555
H15 C17 1_555 1_555
C18 C1 1_555 1_555
C19 C18 1_555 1_555
H16 C19 1_555 1_555
C20 C19 1_555 1_555
C21 C16 1_555 1_555
H17 C21 1_555 1_555
C22 C20 1_555 1_555
H18 C22 1_555 1_555
H19 C22 1_555 1_555
C23 C22 1_555 1_555
C26 C1 1_555 1_555
O10 H22 1_555 1_555
H23 O10 1_555 1_555
C1A H1A 1_555 1_555
H2A C1A 1_555 1_555
Co1_2 O3 1_555 1_555
Co1_3 O3A 1_555 1_555
Co2A N1A 1_555 1_555
Co2_2 O1 1_555 1_555
Co2_3 O4 1_555 1_555
Co2_4 O6 1_555 1_555
Co2A_2 O1A 1_555 1_555
Co2A_3 O4A 1_555 1_555
Co2A_4 O6A 1_555 1_555
N1A C2A 1_555 1_555
N2A C3A 1_555 1_555
N3A C8A 1_555 1_555
N4A Co1 1_555 1_555
O1A Co1 1_555 1_555
O1_2 Co2 1_555 1_555
O1A_2 Co2A 1_555 1_555
O2A C14A 1_555 1_555
O3A C23A 1_555 1_555
O3_2 Co1 1_555 1_555
O3A_2 Co1 1_555 1_555
O4A C23A 1_555 1_555
O4_2 Co2 1_555 1_555
O4A_2 Co2A 1_555 1_555
O6A C26A 1_555 1_555
O6_2 Co2 1_555 1_555
O6A_2 Co2A 1_555 1_555
O8A C26A 1_555 1_555
C2A H3A 1_555 1_555
C3A C2A 1_555 1_555
H4A C3A 1_555 1_555
C4A N1A 1_555 1_555
H5A C4A 1_555 1_555
C5A N2A 1_555 1_555
C6A C5A 1_555 1_555
H6A C6A 1_555 1_555
C7A C6A 1_555 1_555
H7A C7A 1_555 1_555
C8A C7A 1_555 1_555
C9A C8A 1_555 1_555
H8A C9A 1_555 1_555
C10A C5A 1_555 1_555
H9A C10A 1_555 1_555
C11A N3A 1_555 1_555
H10A C11A 1_555 1_555
C12A N4A 1_555 1_555
H11A C12A 1_555 1_555
C13A N3A 1_555 1_555
H12A C13A 1_555 1_555
C14A O1A 1_555 1_555
C15A C14A 1_555 1_555
H13A C15A 1_555 1_555
H14A C15A 1_555 1_555
C16A C15A 1_555 1_555
C17A C16A 1_555 1_555
H15A C17A 1_555 1_555
C18A C1A 1_555 1_555
C19A C18A 1_555 1_555
H16A C19A 1_555 1_555
C20A C19A 1_555 1_555
C21A C16A 1_555 1_555
H17A C21A 1_555 1_555
C22A C20A 1_555 1_555
H18A C22A 1_555 1_555
H19A C22A 1_555 1_555
C23A C22A 1_555 1_555
C26A C1A 1_555 1_555
N2 C4 1_555 1_555
N4 C13 1_555 1_555
C9 C10 1_555 1_555
C17 C18 1_555 1_555
C20 C21 1_555 1_555
N2A C4A 1_555 1_555
N4A C13A 1_555 1_555
C9A C10A 1_555 1_555
C11A C12A 1_555 1_555
C17A C18A 1_555 1_555
C20A C21A 1_555 1_555

#END
