
#######################################################################
#
#                 Cambridge Crystallographic Data Centre
#                                CCDC 
#
#######################################################################
#
# If this CIF has been generated from an entry in the Cambridge 
# Structural Database, then it will include bibliographic, chemical, 
# crystal, experimental, refinement or atomic coordinate data resulting 
# from the CCDC's data processing and validation procedures.
#
#######################################################################

data_UKAQIH
_chemical_formula_moiety         '(C48 H38 Gd2 N2 O16 P2)n'
_symmetry_cell_setting           triclinic
_symmetry_space_group_name_H-M   'P -1'
_symmetry_Int_Tables_number      2
_space_group_name_Hall           '-P 1'
loop_
_symmetry_equiv_pos_site_id
_symmetry_equiv_pos_as_xyz
1 x,y,z
2 -x,-y,-z
_cell_length_a                   10.7961(5)
_cell_length_b                   11.8333(6)
_cell_length_c                   14.5779(7)
_cell_angle_alpha                73.7880(10)
_cell_angle_beta                 72.0830(10)
_cell_angle_gamma                67.0490(10)
_cell_volume                     1604.61
loop_
_atom_site_label
_atom_site_type_symbol
_atom_site_fract_x
_atom_site_fract_y
_atom_site_fract_z
Gd1 Gd -0.010738(14) 0.552294(12) 0.628151(10)
P1 P 0.14563(8) 0.71967(7) 0.72562(6)
O1 O -0.0567(2) 0.5743(2) 1.21636(16)
O2 O 0.7668(2) 0.5592(2) 0.41245(16)
O3 O -0.0656(2) 1.3199(2) 0.51880(16)
O4 O 0.1639(2) 0.4588(2) 1.20432(17)
O5 O -0.0272(3) 1.3505(2) 0.65197(17)
C1 C 0.1317(3) 0.6670(3) 0.8552(2)
C2 C 0.4911(3) 0.6384(3) 0.5115(2)
H1 H 0.5118 0.6311 0.4448
C3 C 0.0811(3) 0.8881(3) 0.7023(2)
C4 C 0.3251(3) 0.6785(3) 0.6630(2)
C5 C -0.0089(4) 0.9458(3) 0.6395(2)
H2 H -0.0435 0.8977 0.6178
C6 C 0.3552(3) 0.6656(3) 0.5656(2)
H3 H 0.2835 0.6752 0.5363
C7 C 0.5964(3) 0.6220(3) 0.5546(2)
C8 C 0.0247(4) 0.7389(3) 0.9188(3)
H4 H -0.0331 0.8186 0.8936
C9 C 0.5658(4) 0.6349(3) 0.6518(2)
H5 H 0.6378 0.6236 0.6814
C10 C 0.4298(4) 0.6644(4) 0.7056(2)
H6 H 0.4089 0.6748 0.7716
C11 C 0.1274(4) 0.9596(3) 0.7373(3)
H7 H 0.1884 0.9201 0.7806
C12 C 0.0881(3) 0.5791(3) 1.0568(2)
C13 C 0.0641(3) 0.5344(3) 1.1658(2)
C14 C 0.1928(4) 0.5061(3) 0.9930(3)
H8 H 0.2511 0.4266 1.0181
C15 C 0.0025(4) 0.6939(4) 1.0193(3)
H9 H -0.0719 0.7424 1.0625
O6 O 0.8388(2) 0.5753(2) 0.53352(18)
C16 C -0.0008(3) 1.1458(3) 0.6421(2)
C17 C -0.0479(4) 1.0750(3) 0.6086(2)
H10 H -0.1074 1.1146 0.5642
C18 C 0.0841(4) 1.0881(3) 0.7088(3)
H11 H 0.1124 1.1370 0.7347
C19 C -0.0347(3) 1.2839(3) 0.6017(2)
C20 C 0.7430(3) 0.5853(3) 0.4956(2)
O7 O 0.0692(2) 0.6713(2) 0.68493(16)
C21 C 0.2121(4) 0.5497(3) 0.8920(3)
H12 H 0.2812 0.4981 0.8484
O8 O -0.1920(3) 0.7583(2) 0.6339(2)
C22 C -0.2806(9) 0.8216(6) 0.6776(8)
H13 H -0.3008 0.7966 0.7469
N1 N -0.3662(7) 0.9387(6) 0.6358(8)
C23 C -0.3353(10) 0.9896(10) 0.5333(10)
H14 H -0.3127 1.0651 0.5244
H15 H -0.4156 1.0105 0.5061
H16 H -0.2563 0.9280 0.4994
C24 C -0.4923(19) 1.0056(15) 0.6958(16)
H17 H -0.5676 1.0337 0.6619
H18 H -0.4817 1.0781 0.7084
H19 H -0.5137 0.9507 0.7582
Gd1A Gd 0.010738(14) 0.447706(12) 1.371849(10)
Gd1_2 Gd -1.010738(14) 0.552294(12) 1.628151(10)
Gd1_3 Gd -0.010738(14) -0.447706(12) 1.628151(10)
Gd1_4 Gd -0.010738(14) 1.552294(12) 0.628151(10)
Gd1_5 Gd 0.989262(14) 0.552294(12) 0.628151(10)
Gd1A_2 Gd -0.989262(14) 0.447706(12) 1.371849(10)
Gd1A_3 Gd 0.010738(14) -0.552294(12) 1.371849(10)
Gd1A_4 Gd 0.010738(14) 1.447706(12) 0.371849(10)
Gd1A_5 Gd 1.010738(14) 0.447706(12) 0.371849(10)
P1A P -0.14563(8) 0.28033(7) 1.27438(6)
O1A O 0.0567(2) 0.4257(2) 0.78364(16)
O2A O -0.7668(2) 0.4408(2) 1.58755(16)
O2_2 O -0.2332(2) 0.5592(2) 1.41245(16)
O2A_2 O 0.2332(2) 0.4408(2) 0.58755(16)
O3A O 0.0656(2) -0.3199(2) 1.48120(16)
O3_2 O -0.0656(2) 0.3199(2) 1.51880(16)
O3A_2 O 0.0656(2) 0.6801(2) 0.48120(16)
O4A O -0.1639(2) 0.5412(2) 0.79568(17)
O5A O 0.0272(3) -0.3505(2) 1.34803(17)
O5_2 O -0.0272(3) 0.3505(2) 0.65197(17)
O5A_2 O 0.0272(3) 0.6495(2) 1.34803(17)
C1A C -0.1317(3) 0.3330(3) 1.1448(2)
C2A C -0.4911(3) 0.3616(3) 1.4885(2)
H1A H -0.5118 0.3689 1.5552
C3A C -0.0811(3) 0.1119(3) 1.2977(2)
C4A C -0.3251(3) 0.3215(3) 1.3370(2)
C5A C 0.0089(4) 0.0542(3) 1.3605(2)
H2A H 0.0435 0.1023 1.3822
C6A C -0.3552(3) 0.3344(3) 1.4344(2)
H3A H -0.2835 0.3248 1.4637
C7A C -0.5964(3) 0.3780(3) 1.4454(2)
C8A C -0.0247(4) 0.2611(3) 1.0812(3)
H4A H 0.0331 0.1814 1.1064
C9A C -0.5658(4) 0.3651(3) 1.3482(2)
H5A H -0.6378 0.3764 1.3186
C10A C -0.4298(4) 0.3356(4) 1.2944(2)
H6A H -0.4089 0.3252 1.2284
C11A C -0.1274(4) 0.0404(3) 1.2627(3)
H7A H -0.1884 0.0799 1.2194
C12A C -0.0881(3) 0.4209(3) 0.9432(2)
C13A C -0.0641(3) 0.4656(3) 0.8342(2)
C14A C -0.1928(4) 0.4939(3) 1.0070(3)
H8A H -0.2511 0.5734 0.9819
C15A C -0.0025(4) 0.3061(4) 0.9807(3)
H9A H 0.0719 0.2576 0.9375
O6A O -0.8388(2) 0.4247(2) 1.46648(18)
O6_2 O -0.1612(2) 0.5753(2) 0.53352(18)
O6_3 O -0.1612(2) 0.5753(2) 1.53352(18)
O6A_2 O 0.1612(2) 0.4247(2) 0.46648(18)
O6A_3 O 0.1612(2) 0.4247(2) 1.46648(18)
C16A C 0.0008(3) -0.1458(3) 1.3579(2)
C17A C 0.0479(4) -0.0750(3) 1.3914(2)
H10A H 0.1074 -0.1146 1.4358
C18A C -0.0841(4) -0.0881(3) 1.2912(3)
H11A H -0.1124 -0.1370 1.2653
C19A C 0.0347(3) -0.2839(3) 1.3983(2)
C20A C -0.7430(3) 0.4147(3) 1.5044(2)
O7A O -0.0692(2) 0.3287(2) 1.31507(16)
C21A C -0.2121(4) 0.4503(3) 1.1080(3)
H12A H -0.2812 0.5019 1.1516
O8A O 0.1920(3) 0.2417(2) 1.3661(2)
C22A C 0.2806(9) 0.1784(6) 1.3224(8)
H13A H 0.3008 0.2034 1.2531
N1A N 0.3662(7) 0.0613(6) 1.3642(8)
C23A C 0.3353(10) 0.0104(10) 1.4667(10)
H14A H 0.3127 -0.0651 1.4756
H15A H 0.4156 -0.0105 1.4939
H16A H 0.2563 0.0720 1.5006
C24A C 0.4923(19) -0.0056(15) 1.3042(16)
H17A H 0.5676 -0.0337 1.3381
H18A H 0.4817 -0.0781 1.2916
H19A H 0.5137 0.0493 1.2418
loop_
_geom_bond_atom_site_label_1
_geom_bond_atom_site_label_2
_geom_bond_site_symmetry_1
_geom_bond_site_symmetry_2
Gd1 O7 1_555 1_555
P1 C1 1_555 1_555
O1 C13 1_555 1_555
O2 C20 1_555 1_555
O3 C19 1_555 1_555
O4 C13 1_555 1_555
O5 C19 1_555 1_555
C1 C8 1_555 1_555
C2 H1 1_555 1_555
C3 P1 1_555 1_555
C4 P1 1_555 1_555
C5 C3 1_555 1_555
H2 C5 1_555 1_555
C6 C2 1_555 1_555
H3 C6 1_555 1_555
C7 C2 1_555 1_555
C8 H4 1_555 1_555
C9 C7 1_555 1_555
H5 C9 1_555 1_555
C10 C4 1_555 1_555
H6 C10 1_555 1_555
C11 C3 1_555 1_555
H7 C11 1_555 1_555
C12 C13 1_555 1_555
C14 C12 1_555 1_555
H8 C14 1_555 1_555
C15 C8 1_555 1_555
H9 C15 1_555 1_555
O6 C20 1_555 1_555
C16 C17 1_555 1_555
C17 C5 1_555 1_555
H10 C17 1_555 1_555
C18 C11 1_555 1_555
H11 C18 1_555 1_555
C19 C16 1_555 1_555
C20 C7 1_555 1_555
O7 P1 1_555 1_555
C21 C1 1_555 1_555
H12 C21 1_555 1_555
O8 Gd1 1_555 1_555
C22 O8 1_555 1_555
H13 C22 1_555 1_555
N1 C22 1_555 1_555
C23 N1 1_555 1_555
H14 C23 1_555 1_555
H15 C23 1_555 1_555
H16 C23 1_555 1_555
C24 N1 1_555 1_555
H17 C24 1_555 1_555
H18 C24 1_555 1_555
H19 C24 1_555 1_555
Gd1A O1 1_555 1_555
Gd1_2 O2A 1_555 1_555
Gd1_3 O3A 1_555 1_555
Gd1_4 O5 1_555 1_555
Gd1_5 O6 1_555 1_555
Gd1A_2 O6A 1_555 1_555
Gd1A_3 O5A 1_555 1_555
Gd1A_4 O3 1_555 1_555
Gd1A_5 O2 1_555 1_555
P1A C1A 1_555 1_555
O1A Gd1 1_555 1_555
O2A C20A 1_555 1_555
O2_2 Gd1A 1_555 1_555
O2A_2 Gd1 1_555 1_555
O3A C19A 1_555 1_555
O3_2 Gd1A 1_555 1_555
O3A_2 Gd1 1_555 1_555
O4A Gd1 1_555 1_555
O5A C19A 1_555 1_555
O5_2 Gd1 1_555 1_555
O5A_2 Gd1A 1_555 1_555
C1A C8A 1_555 1_555
C2A H1A 1_555 1_555
C3A P1A 1_555 1_555
C4A P1A 1_555 1_555
C5A C3A 1_555 1_555
H2A C5A 1_555 1_555
C6A C2A 1_555 1_555
H3A C6A 1_555 1_555
C7A C2A 1_555 1_555
C8A H4A 1_555 1_555
C9A C7A 1_555 1_555
H5A C9A 1_555 1_555
C10A C4A 1_555 1_555
H6A C10A 1_555 1_555
C11A C3A 1_555 1_555
H7A C11A 1_555 1_555
C12A C13A 1_555 1_555
C13A O1A 1_555 1_555
C14A C12A 1_555 1_555
H8A C14A 1_555 1_555
C15A C8A 1_555 1_555
H9A C15A 1_555 1_555
O6A Gd1_2 1_555 1_555
O6_2 Gd1 1_555 1_555
O6_3 Gd1A 1_555 1_555
O6A_2 Gd1 1_555 1_555
O6A_3 Gd1A 1_555 1_555
C16A C17A 1_555 1_555
C17A C5A 1_555 1_555
H10A C17A 1_555 1_555
C18A C11A 1_555 1_555
H11A C18A 1_555 1_555
C19A C16A 1_555 1_555
C20A C7A 1_555 1_555
O7A Gd1A 1_555 1_555
C21A C1A 1_555 1_555
H12A C21A 1_555 1_555
O8A Gd1A 1_555 1_555
C22A O8A 1_555 1_555
H13A C22A 1_555 1_555
N1A C22A 1_555 1_555
C23A N1A 1_555 1_555
H14A C23A 1_555 1_555
H15A C23A 1_555 1_555
H16A C23A 1_555 1_555
C24A N1A 1_555 1_555
H17A C24A 1_555 1_555
H18A C24A 1_555 1_555
H19A C24A 1_555 1_555
O4 Gd1A 1_555 1_555
C4 C6 1_555 1_555
C9 C10 1_555 1_555
C12 C15 1_555 1_555
C14 C21 1_555 1_555
O6 Gd1A_5 1_555 1_555
C16 C18 1_555 1_555
P1A O7A 1_555 1_555
O4A C13A 1_555 1_555
C4A C6A 1_555 1_555
C9A C10A 1_555 1_555
C12A C15A 1_555 1_555
C14A C21A 1_555 1_555
O6A C20A 1_555 1_555
C16A C18A 1_555 1_555

#END
