
#######################################################################
#
#                 Cambridge Crystallographic Data Centre
#                                CCDC 
#
#######################################################################
#
# If this CIF has been generated from an entry in the Cambridge 
# Structural Database, then it will include bibliographic, chemical, 
# crystal, experimental, refinement or atomic coordinate data resulting 
# from the CCDC's data processing and validation procedures.
#
#######################################################################

data_VEWXAY
_chemical_formula_moiety         '(C52 H54 Cd2 N10 O16)n'
_symmetry_cell_setting           orthorhombic
_symmetry_space_group_name_H-M   'C c c a'
_symmetry_Int_Tables_number      68
_space_group_name_Hall           '-C 2a 2ac'
loop_
_symmetry_equiv_pos_site_id
_symmetry_equiv_pos_as_xyz
1 x,y,z
2 1/2-x,-y,z
3 -x,y,1/2-z
4 1/2+x,-y,1/2-z
5 1/2+x,1/2+y,z
6 -x,1/2-y,z
7 1/2-x,1/2+y,1/2-z
8 x,1/2-y,1/2-z
9 -x,-y,-z
10 1/2+x,y,-z
11 x,-y,1/2+z
12 1/2-x,y,1/2+z
13 1/2-x,1/2-y,-z
14 x,1/2+y,-z
15 1/2+x,1/2-y,1/2+z
16 -x,1/2+y,1/2+z
_cell_length_a                   17.125(2)
_cell_length_b                   40.751(3)
_cell_length_c                   24.938(2)
_cell_angle_alpha                90
_cell_angle_beta                 90
_cell_angle_gamma                90
_cell_volume                     17403.3
loop_
_atom_site_label
_atom_site_type_symbol
_atom_site_fract_x
_atom_site_fract_y
_atom_site_fract_z
_atom_site_U_iso_or_equiv
_atom_site_thermal_displace_type
C1 C 0.2077(2) 0.06110(8) 0.48394(14) 0.0443 Uani
H1 H 0.1633 0.0614 0.5055 0.0530 Uiso
C2 C 0.2135(2) 0.08419(9) 0.44309(14) 0.0448 Uani
H2 H 0.1744 0.0998 0.4383 0.0540 Uiso
C3 C 0.2763(2) 0.08380(9) 0.41036(15) 0.0443 Uani
C4 C 0.3323(2) 0.06089(9) 0.42106(16) 0.0464 Uani
H3 H 0.3772 0.0599 0.4002 0.0560 Uiso
C5 C 0.3222(2) 0.03928(9) 0.46272(14) 0.0413 Uani
H4 H 0.3613 0.0239 0.4691 0.0500 Uiso
C6 C 0.2262(2) 0.12659(9) 0.35441(15) 0.0437 Uani
H5 H 0.2108 0.1393 0.3855 0.0520 Uiso
H6 H 0.1809 0.1150 0.3409 0.0520 Uiso
C7 C 0.25963(19) 0.14872(8) 0.31155(13) 0.0389 Uani
C8 C 0.3266(2) 0.16916(9) 0.33364(14) 0.0434 Uani
H7 H 0.3687 0.1551 0.3460 0.0520 Uiso
H8 H 0.3468 0.1838 0.3063 0.0520 Uiso
C9 C 0.3428(2) 0.19909(9) 0.41584(15) 0.0442 Uani
C10 C 0.4224(2) 0.19914(9) 0.41355(16) 0.0467 Uani
H9 H 0.4483 0.1908 0.3837 0.0560 Uiso
C11 C 0.4636(2) 0.21171(9) 0.45622(15) 0.0449 Uani
H10 H 0.5179 0.2119 0.4543 0.0540 Uiso
C12 C 0.3525(2) 0.22296(8) 0.50193(15) 0.0436 Uani
H11 H 0.3279 0.2307 0.5327 0.0520 Uiso
C13 C 0.3059(2) 0.21143(8) 0.46034(15) 0.0431 Uani
H12 H 0.2517 0.2120 0.4626 0.0520 Uiso
C14 C 0.2955(2) 0.12829(9) 0.26441(14) 0.0423 Uani
H13 H 0.3161 0.1424 0.2365 0.0510 Uiso
H14 H 0.3366 0.1138 0.2770 0.0510 Uiso
C15 C 0.2403(2) 0.08732(9) 0.20658(15) 0.0419 Uani
C16 C 0.3071(2) 0.07962(9) 0.18490(15) 0.0456 Uani
H15 H 0.3529 0.0895 0.1968 0.0550 Uiso
C17 C 0.3094(2) 0.05623(9) 0.14329(15) 0.0440 Uani
H16 H 0.3570 0.0521 0.1267 0.0530 Uiso
C18 C 0.1851(2) 0.04664(9) 0.15010(15) 0.0483 Uani
H17 H 0.1406 0.0352 0.1396 0.0580 Uiso
C19 C 0.1767(2) 0.07007(9) 0.19116(15) 0.0451 Uani
H18 H 0.1285 0.0736 0.2073 0.0540 Uiso
C20 C 0.1938(2) 0.16981(9) 0.29214(15) 0.0422 Uani
H19 H 0.1544 0.1563 0.2750 0.0510 Uiso
H20 H 0.1698 0.1810 0.3222 0.0510 Uiso
C21 C 0.17460(19) 0.20651(8) 0.21815(13) 0.0396 Uani
C22 C 0.0981(2) 0.19846(10) 0.21303(16) 0.0479 Uani
H21 H 0.0752 0.1834 0.2363 0.0580 Uiso
C23 C 0.0548(2) 0.21285(9) 0.17304(15) 0.0438 Uani
H22 H 0.0022 0.2074 0.1707 0.0530 Uiso
C24 C 0.1561(2) 0.24356(9) 0.14550(14) 0.0409 Uani
H23 H 0.1765 0.2598 0.1233 0.0490 Uiso
C25 C 0.2027(2) 0.23051(9) 0.18487(14) 0.0456 Uani
H24 H 0.2537 0.2380 0.1890 0.0550 Uiso
C26 C 0.4446(2) 0.02211(9) 0.55671(15) 0.0487 Uani
H25 H 0.4774 0.0188 0.5260 0.0730 Uiso
H26 H 0.4762 0.0232 0.5884 0.0730 Uiso
H27 H 0.4161 0.0422 0.5526 0.0730 Uiso
Cd1 Cd -0.0000 0.2500 0.067738(13) 0.0417 Uani
Cd2 Cd 0.2500 0.0000 0.560708(14) 0.0387 Uani
N1 N 0.26133(17) 0.03901(7) 0.49365(13) 0.0445 Uani
N2 N 0.42910(17) 0.22368(7) 0.50050(12) 0.0417 Uani
N3 N 0.08271(17) 0.23377(7) 0.13790(11) 0.0409 Uani
N4 N 0.24741(17) 0.03997(7) 0.12671(12) 0.0451 Uani
N5 N -0.09365(19) 0.18245(8) 0.05952(12) 0.0433 Uani
O1 O 0.28773(14) 0.10362(6) 0.36851(10) 0.0457 Uani
O2 O 0.29445(14) 0.18742(6) 0.37729(10) 0.0440 Uani
O3 O 0.22589(16) 0.10928(6) 0.24520(11) 0.0504 Uani
O4 O 0.22420(15) 0.19377(6) 0.25393(10) 0.0447 Uani
O5 O 0.38999(15) -0.00511(6) 0.56141(10) 0.0463 Uani
O6 O -0.05204(15) 0.17851(6) 0.09135(11) 0.0487 Uani
O7 O -0.12531(16) 0.15886(6) 0.04365(11) 0.0494 Uani
O8 O -0.10092(14) 0.20992(6) 0.04693(10) 0.0449 Uani
C1A C 0.2923(2) -0.06110(8) 0.48394(14) 0.0443 Uani
H1A H 0.3367 -0.0614 0.5055 0.0530 Uiso
C2A C 0.2865(2) -0.08419(9) 0.44309(14) 0.0448 Uani
H2A H 0.3256 -0.0998 0.4383 0.0540 Uiso
C3A C 0.2237(2) -0.08380(9) 0.41036(15) 0.0443 Uani
C4A C 0.1677(2) -0.06089(9) 0.42106(16) 0.0464 Uani
H3A H 0.1228 -0.0599 0.4002 0.0560 Uiso
C5A C 0.1778(2) -0.03928(9) 0.46272(14) 0.0413 Uani
H4A H 0.1387 -0.0239 0.4691 0.0500 Uiso
C6A C 0.2738(2) -0.12659(9) 0.35441(15) 0.0437 Uani
H5A H 0.2892 -0.1393 0.3855 0.0520 Uiso
H6A H 0.3191 -0.1150 0.3409 0.0520 Uiso
C7A C 0.24037(19) -0.14872(8) 0.31155(13) 0.0389 Uani
C8A C 0.1734(2) -0.16916(9) 0.33364(14) 0.0434 Uani
H7A H 0.1313 -0.1551 0.3460 0.0520 Uiso
H8A H 0.1532 -0.1838 0.3063 0.0520 Uiso
C9A C 0.1572(2) -0.19909(9) 0.41584(15) 0.0442 Uani
C10A C 0.0776(2) -0.19914(9) 0.41355(16) 0.0467 Uani
H9A H 0.0517 -0.1908 0.3837 0.0560 Uiso
C11A C 0.0364(2) -0.21171(9) 0.45622(15) 0.0449 Uani
H10A H -0.0179 -0.2119 0.4543 0.0540 Uiso
C12A C 0.1475(2) -0.22296(8) 0.50193(15) 0.0436 Uani
H11A H 0.1721 -0.2307 0.5327 0.0520 Uiso
C13A C 0.1941(2) -0.21143(8) 0.46034(15) 0.0431 Uani
H12A H 0.2483 -0.2120 0.4626 0.0520 Uiso
C14A C 0.2045(2) -0.12829(9) 0.26441(14) 0.0423 Uani
H13A H 0.1839 -0.1424 0.2365 0.0510 Uiso
H14A H 0.1634 -0.1138 0.2770 0.0510 Uiso
C15A C 0.2597(2) -0.08732(9) 0.20658(15) 0.0419 Uani
C16A C 0.1929(2) -0.07962(9) 0.18490(15) 0.0456 Uani
H15A H 0.1471 -0.0895 0.1968 0.0550 Uiso
C17A C 0.1906(2) -0.05623(9) 0.14329(15) 0.0440 Uani
H16A H 0.1430 -0.0521 0.1267 0.0530 Uiso
C18A C 0.3149(2) -0.04664(9) 0.15010(15) 0.0483 Uani
H17A H 0.3594 -0.0352 0.1396 0.0580 Uiso
C19A C 0.3233(2) -0.07007(9) 0.19116(15) 0.0451 Uani
H18A H 0.3715 -0.0736 0.2073 0.0540 Uiso
C20A C 0.3062(2) -0.16981(9) 0.29214(15) 0.0422 Uani
H19A H 0.3456 -0.1563 0.2750 0.0510 Uiso
H20A H 0.3302 -0.1810 0.3222 0.0510 Uiso
C21A C 0.32540(19) -0.20651(8) 0.21815(13) 0.0396 Uani
C22A C 0.4019(2) -0.19846(10) 0.21303(16) 0.0479 Uani
H21A H 0.4248 -0.1834 0.2363 0.0580 Uiso
C23A C 0.4452(2) -0.21285(9) 0.17304(15) 0.0438 Uani
H22A H 0.4978 -0.2074 0.1707 0.0530 Uiso
C24A C 0.3439(2) -0.24356(9) 0.14550(14) 0.0409 Uani
H23A H 0.3235 -0.2598 0.1233 0.0490 Uiso
C25A C 0.2973(2) -0.23051(9) 0.18487(14) 0.0456 Uani
H24A H 0.2463 -0.2380 0.1890 0.0550 Uiso
C26A C 0.0554(2) -0.02211(9) 0.55671(15) 0.0487 Uani
H25A H 0.0226 -0.0188 0.5260 0.0730 Uiso
H26A H 0.0238 -0.0232 0.5884 0.0730 Uiso
H27A H 0.0839 -0.0422 0.5526 0.0730 Uiso
N1A N 0.23867(17) -0.03901(7) 0.49365(13) 0.0445 Uani
N2A N 0.07090(17) -0.22368(7) 0.50050(12) 0.0417 Uani
N3A N 0.41729(17) -0.23377(7) 0.13790(11) 0.0409 Uani
N4A N 0.25259(17) -0.03997(7) 0.12671(12) 0.0451 Uani
O1A O 0.21227(14) -0.10362(6) 0.36851(10) 0.0457 Uani
O2A O 0.20555(14) -0.18742(6) 0.37729(10) 0.0440 Uani
O3A O 0.27411(16) -0.10928(6) 0.24520(11) 0.0504 Uani
O4A O 0.27580(15) -0.19377(6) 0.25393(10) 0.0447 Uani
O5A O 0.11001(15) 0.00511(6) 0.56141(10) 0.0463 Uani
N5E N 0.09365(19) 0.31755(8) 0.05952(12) 0.0433 Uani
O6E O 0.05204(15) 0.32149(6) 0.09135(11) 0.0487 Uani
O7E O 0.12531(16) 0.34114(6) 0.04365(11) 0.0494 Uani
O8E O 0.10092(14) 0.29008(6) 0.04693(10) 0.0449 Uani
Cd1A Cd 0.5000 -0.2500 0.067738(13) 0.0417 Uani
Cd1J Cd 0.0000 -0.2500 0.567738(13) 0.0417 Uani
Cd1K Cd 0.5000 0.2500 0.567738(13) 0.0417 Uani
Cd2J Cd 0.2500 0.0000 0.060708(14) 0.0387 Uani
N2K N 0.07090(17) 0.22368(7) 0.00050(12) 0.0417 Uani
N2N N -0.07090(17) 0.27632(7) 0.00050(12) 0.0417 Uani
N3E N -0.08271(17) 0.26623(7) 0.13790(11) 0.0409 Uani
N4J N 0.24741(17) -0.03997(7) 0.62671(12) 0.0451 Uani
N4K N 0.25259(17) 0.03997(7) 0.62671(12) 0.0451 Uani
loop_
_atom_site_aniso_label
_atom_site_aniso_U_11
_atom_site_aniso_U_22
_atom_site_aniso_U_33
_atom_site_aniso_U_23
_atom_site_aniso_U_13
_atom_site_aniso_U_12
C1 0.051(2) 0.0399(18) 0.042(2) 0.0137(14) 0.0133(16) 0.0118(15)
C2 0.047(2) 0.0464(19) 0.041(2) 0.0146(15) 0.0113(15) 0.0165(16)
C3 0.0445(18) 0.0445(19) 0.044(2) 0.0187(16) 0.0059(15) 0.0138(15)
C4 0.0475(19) 0.0397(19) 0.052(2) 0.0184(16) 0.0152(16) 0.0173(15)
C5 0.0454(19) 0.0392(17) 0.0393(19) 0.0155(14) 0.0132(14) 0.0163(14)
C6 0.0399(17) 0.0443(19) 0.047(2) 0.0055(15) -0.0004(15) 0.0149(14)
C7 0.0406(18) 0.0367(17) 0.0393(18) -0.0017(13) -0.0167(14) 0.0028(13)
C8 0.0465(19) 0.0461(19) 0.0376(18) -0.0146(15) -0.0183(14) 0.0119(15)
C9 0.0436(18) 0.047(2) 0.0420(19) -0.0179(16) -0.0124(15) 0.0017(15)
C10 0.046(2) 0.050(2) 0.044(2) -0.0130(16) -0.0021(16) 0.0013(15)
C11 0.047(2) 0.0456(19) 0.042(2) -0.0137(15) -0.0008(15) -0.0098(15)
C12 0.044(2) 0.0445(19) 0.0424(18) -0.0135(15) 0.0069(14) -0.0172(14)
C13 0.0440(18) 0.0404(18) 0.045(2) -0.0132(15) -0.0140(15) 0.0021(14)
C14 0.0424(18) 0.0463(19) 0.0383(18) -0.0100(15) -0.0083(14) -0.0080(15)
C15 0.0455(19) 0.0393(18) 0.0409(18) -0.0129(14) 0.0022(14) -0.0127(14)
C16 0.047(2) 0.0427(19) 0.047(2) -0.0163(15) -0.0071(15) -0.0098(15)
C17 0.0410(18) 0.0459(19) 0.045(2) -0.0172(15) 0.0044(15) -0.0086(14)
C18 0.050(2) 0.049(2) 0.046(2) -0.0149(16) 0.0047(16) -0.0155(16)
C19 0.0414(19) 0.0428(19) 0.051(2) -0.0207(16) 0.0098(15) -0.0125(14)
C20 0.0450(19) 0.0421(18) 0.0396(18) 0.0114(14) -0.0098(14) 0.0049(15)
C21 0.0371(17) 0.0462(18) 0.0354(18) 0.0043(14) -0.0164(13) 0.0065(14)
C22 0.0428(19) 0.052(2) 0.049(2) 0.0184(17) -0.0072(16) -0.0024(16)
C23 0.0424(19) 0.0440(19) 0.045(2) 0.0153(15) -0.0043(15) 0.0018(14)
C24 0.0414(18) 0.0414(18) 0.0398(18) 0.0025(14) -0.0032(14) 0.0030(14)
C25 0.0458(19) 0.047(2) 0.044(2) 0.0051(15) -0.0153(15) -0.0038(15)
C26 0.047(2) 0.049(2) 0.050(2) 0.0109(16) 0.0116(16) 0.0139(16)
Cd1 0.0454(2) 0.0519(2) 0.0278(2) 0.000 0.000 0.01355(15)
Cd2 0.0434(2) 0.0358(2) 0.0370(2) 0.000 0.000 0.01802(14)
N1 0.0449(16) 0.0413(16) 0.0474(17) 0.0119(13) 0.0078(13) 0.0131(12)
N2 0.0479(17) 0.0383(15) 0.0389(15) -0.0161(12) -0.0045(12) -0.0112(12)
N3 0.0461(16) 0.0415(15) 0.0352(15) 0.0156(12) -0.0023(12) 0.0082(12)
N4 0.0477(17) 0.0443(16) 0.0433(17) -0.0172(13) -0.0074(13) -0.0107(13)
N5 0.0438(17) 0.049(2) 0.0370(16) 0.0071(13) 0.0094(13) 0.0006(14)
O1 0.0459(13) 0.0491(14) 0.0421(14) 0.0148(11) 0.0125(11) 0.0155(11)
O2 0.0403(12) 0.0456(13) 0.0462(14) -0.0151(11) -0.0140(10) 0.0146(10)
O3 0.0491(15) 0.0508(15) 0.0512(15) -0.0187(12) 0.0106(11) -0.0140(12)
O4 0.0473(15) 0.0400(13) 0.0468(14) 0.0147(10) -0.0170(10) -0.0029(11)
O5 0.0429(14) 0.0485(14) 0.0476(14) 0.0126(11) -0.0029(10) 0.0148(11)
O6 0.0478(15) 0.0481(14) 0.0501(16) 0.0071(12) 0.0094(12) 0.0006(11)
O7 0.0508(15) 0.0470(15) 0.0505(15) 0.0071(12) 0.0094(12) 0.0006(12)
O8 0.0462(14) 0.0395(14) 0.0489(14) 0.0000(11) 0.0000(11) 0.0136(10)
C1A 0.051 0.0399 0.042 -0.0137 -0.0133 0.0118
C2A 0.047 0.0464 0.041 -0.0146 -0.0113 0.0165
C3A 0.0445 0.0445 0.044 -0.0187 -0.0059 0.0138
C4A 0.0475 0.0397 0.052 -0.0184 -0.0152 0.0173
C5A 0.0454 0.0392 0.0393 -0.0155 -0.0132 0.0163
C6A 0.0399 0.0443 0.047 -0.0055 0.0004 0.0149
C7A 0.0406 0.0367 0.0393 0.0017 0.0167 0.0028
C8A 0.0465 0.0461 0.0376 0.0146 0.0183 0.0119
C9A 0.0436 0.047 0.042 0.0179 0.0124 0.0017
C10A 0.046 0.05 0.044 0.013 0.0021 0.0013
C11A 0.047 0.0456 0.042 0.0137 0.0008 -0.0098
C12A 0.044 0.0445 0.0424 0.0135 -0.0069 -0.0172
C13A 0.044 0.0404 0.045 0.0132 0.014 0.0021
C14A 0.0424 0.0463 0.0383 0.01 0.0083 -0.008
C15A 0.0455 0.0393 0.0409 0.0129 -0.0022 -0.0127
C16A 0.047 0.0427 0.047 0.0163 0.0071 -0.0098
C17A 0.041 0.0459 0.045 0.0172 -0.0044 -0.0086
C18A 0.05 0.049 0.046 0.0149 -0.0047 -0.0155
C19A 0.0414 0.0428 0.051 0.0207 -0.0098 -0.0125
C20A 0.045 0.0421 0.0396 -0.0114 0.0098 0.0049
C21A 0.0371 0.0462 0.0354 -0.0043 0.0164 0.0065
C22A 0.0428 0.052 0.049 -0.0184 0.0072 -0.0024
C23A 0.0424 0.044 0.045 -0.0153 0.0043 0.0018
C24A 0.0414 0.0414 0.0398 -0.0025 0.0032 0.003
C25A 0.0458 0.047 0.044 -0.0051 0.0153 -0.0038
C26A 0.047 0.049 0.05 -0.0109 -0.0116 0.0139
N1A 0.0449 0.0413 0.0474 -0.0119 -0.0078 0.0131
N2A 0.0479 0.0383 0.0389 0.0161 0.0045 -0.0112
N3A 0.0461 0.0415 0.0352 -0.0156 0.0023 0.0082
N4A 0.0477 0.0443 0.0433 0.0172 0.0074 -0.0107
O1A 0.0459 0.0491 0.0421 -0.0148 -0.0125 0.0155
O2A 0.0403 0.0456 0.0462 0.0151 0.014 0.0146
O3A 0.0491 0.0508 0.0512 0.0187 -0.0106 -0.014
O4A 0.0473 0.04 0.0468 -0.0147 0.017 -0.0029
O5A 0.0429 0.0485 0.0476 -0.0126 0.0029 0.0148
N5E 0.0438 0.049 0.037 -0.0071 -0.0094 0.0006
O6E 0.0478 0.0481 0.0501 -0.0071 -0.0094 0.0006
O7E 0.0508 0.047 0.0505 -0.0071 -0.0094 0.0006
O8E 0.0462 0.0395 0.0489 0 0 0.0136
Cd1A 0.0454 0.0519 0.0278 0 0 0.01355
Cd1J 0.0454 0.0519 0.0278 0 0 -0.01355
Cd1K 0.0454 0.0519 0.0278 0 0 -0.01355
Cd2J 0.0434 0.0358 0.037 0 0 -0.01802
N2K 0.0479 0.0383 0.0389 -0.0161 0.0045 0.0112
N2N 0.0479 0.0383 0.0389 0.0161 -0.0045 0.0112
N3E 0.0461 0.0415 0.0352 -0.0156 0.0023 0.0082
N4J 0.0477 0.0443 0.0433 0.0172 -0.0074 0.0107
N4K 0.0477 0.0443 0.0433 -0.0172 0.0074 0.0107
loop_
_geom_bond_atom_site_label_1
_geom_bond_atom_site_label_2
_geom_bond_site_symmetry_1
_geom_bond_site_symmetry_2
C1 H1 1_555 1_555
C2 C1 1_555 1_555
H2 C2 1_555 1_555
C3 C2 1_555 1_555
C4 C3 1_555 1_555
H3 C4 1_555 1_555
C5 C4 1_555 1_555
H4 C5 1_555 1_555
C6 H5 1_555 1_555
H6 C6 1_555 1_555
C7 C6 1_555 1_555
C8 C7 1_555 1_555
H7 C8 1_555 1_555
H8 C8 1_555 1_555
C9 C10 1_555 1_555
C10 H9 1_555 1_555
C11 C10 1_555 1_555
H10 C11 1_555 1_555
C12 H11 1_555 1_555
C13 C9 1_555 1_555
H12 C13 1_555 1_555
C14 C7 1_555 1_555
H13 C14 1_555 1_555
H14 C14 1_555 1_555
C15 C16 1_555 1_555
C16 H15 1_555 1_555
C17 C16 1_555 1_555
H16 C17 1_555 1_555
C18 H17 1_555 1_555
C19 C15 1_555 1_555
H18 C19 1_555 1_555
C20 C7 1_555 1_555
H19 C20 1_555 1_555
H20 C20 1_555 1_555
C21 C22 1_555 1_555
C22 H21 1_555 1_555
C23 C22 1_555 1_555
H22 C23 1_555 1_555
C24 H23 1_555 1_555
C25 C21 1_555 1_555
H24 C25 1_555 1_555
C26 H25 1_555 1_555
H26 C26 1_555 1_555
H27 C26 1_555 1_555
Cd1 N3 1_555 1_555
Cd2 N1 1_555 1_555
N1 C1 1_555 1_555
N2 C11 1_555 1_555
N3 C23 1_555 1_555
N4 C17 1_555 1_555
N5 O6 1_555 1_555
O1 C3 1_555 1_555
O2 C8 1_555 1_555
O3 C14 1_555 1_555
O4 C20 1_555 1_555
O5 C26 1_555 1_555
O7 N5 1_555 1_555
O8 Cd1 1_555 1_555
C1A H1A 1_555 1_555
C2A C1A 1_555 1_555
H2A C2A 1_555 1_555
C3A C2A 1_555 1_555
C4A C3A 1_555 1_555
H3A C4A 1_555 1_555
C5A C4A 1_555 1_555
H4A C5A 1_555 1_555
C6A H5A 1_555 1_555
H6A C6A 1_555 1_555
C7A C6A 1_555 1_555
C8A C7A 1_555 1_555
H7A C8A 1_555 1_555
H8A C8A 1_555 1_555
C9A C10A 1_555 1_555
C10A H9A 1_555 1_555
C11A C10A 1_555 1_555
H10A C11A 1_555 1_555
C12A H11A 1_555 1_555
C13A C9A 1_555 1_555
H12A C13A 1_555 1_555
C14A C7A 1_555 1_555
H13A C14A 1_555 1_555
H14A C14A 1_555 1_555
C15A C16A 1_555 1_555
C16A H15A 1_555 1_555
C17A C16A 1_555 1_555
H16A C17A 1_555 1_555
C18A H17A 1_555 1_555
C19A C15A 1_555 1_555
H18A C19A 1_555 1_555
C20A C7A 1_555 1_555
H19A C20A 1_555 1_555
H20A C20A 1_555 1_555
C21A C22A 1_555 1_555
C22A H21A 1_555 1_555
C23A C22A 1_555 1_555
H22A C23A 1_555 1_555
C24A H23A 1_555 1_555
C25A C21A 1_555 1_555
H24A C25A 1_555 1_555
C26A H25A 1_555 1_555
H26A C26A 1_555 1_555
H27A C26A 1_555 1_555
N1A Cd2 1_555 1_555
N2A C11A 1_555 1_555
N3A C23A 1_555 1_555
N4A C17A 1_555 1_555
O1A C3A 1_555 1_555
O2A C8A 1_555 1_555
O3A C14A 1_555 1_555
O4A C20A 1_555 1_555
O5A Cd2 1_555 1_555
N5E O6E 1_555 1_555
O7E N5E 1_555 1_555
O8E Cd1 1_555 1_555
Cd1A N3A 1_555 1_555
Cd1J N2A 1_555 1_555
Cd1K N2 1_555 1_555
Cd2J N4 1_555 1_555
N2K Cd1 1_555 1_555
N2N Cd1 1_555 1_555
N3E Cd1 1_555 1_555
N4J Cd2 1_555 1_555
N4K Cd2 1_555 1_555
C5 N1 1_555 1_555
C6 O1 1_555 1_555
C9 O2 1_555 1_555
C12 C13 1_555 1_555
C12 N2 1_555 1_555
C15 O3 1_555 1_555
C18 C19 1_555 1_555
C18 N4 1_555 1_555
C21 O4 1_555 1_555
C24 C25 1_555 1_555
C24 N3 1_555 1_555
Cd2 O5 1_555 1_555
N5 O8 1_555 1_555
C1A N1A 1_555 1_555
C5A N1A 1_555 1_555
C6A O1A 1_555 1_555
C9A O2A 1_555 1_555
C12A C13A 1_555 1_555
C12A N2A 1_555 1_555
C15A O3A 1_555 1_555
C18A C19A 1_555 1_555
C18A N4A 1_555 1_555
C21A O4A 1_555 1_555
C24A C25A 1_555 1_555
C24A N3A 1_555 1_555
C26A O5A 1_555 1_555
N4A Cd2J 1_555 1_555
N5E O8E 1_555 1_555

#END
