
#######################################################################
#
#                 Cambridge Crystallographic Data Centre
#                                CCDC 
#
#######################################################################
#
# If this CIF has been generated from an entry in the Cambridge 
# Structural Database, then it will include bibliographic, chemical, 
# crystal, experimental, refinement or atomic coordinate data resulting 
# from the CCDC's data processing and validation procedures.
#
#######################################################################

data_VODPOU
_chemical_formula_moiety         '(C13 H17 Mn3 N22 O3)n'
_symmetry_cell_setting           orthorhombic
_symmetry_space_group_name_H-M   'P b c a'
_symmetry_Int_Tables_number      61
_space_group_name_Hall           '-P 2ac 2ab'
loop_
_symmetry_equiv_pos_site_id
_symmetry_equiv_pos_as_xyz
1 x,y,z
2 1/2-x,-y,1/2+z
3 -x,1/2+y,1/2-z
4 1/2+x,1/2-y,-z
5 -x,-y,-z
6 1/2+x,y,1/2-z
7 x,1/2-y,1/2+z
8 1/2-x,1/2+y,z
_cell_length_a                   15.2396(3)
_cell_length_b                   13.4770(3)
_cell_length_c                   26.2200(5)
_cell_angle_alpha                90
_cell_angle_beta                 90
_cell_angle_gamma                90
_cell_volume                     5385.17
loop_
_atom_site_label
_atom_site_type_symbol
_atom_site_fract_x
_atom_site_fract_y
_atom_site_fract_z
_atom_site_U_iso_or_equiv
_atom_site_thermal_displace_type
Mn1 Mn 0.04072(6) 0.69633(8) 0.36018(4) 0.0321 Uani
Mn2 Mn -0.25026(7) 0.68906(7) 0.69257(3) 0.0290 Uani
Mn3 Mn 0.53024(6) 0.42180(7) 0.17424(4) 0.0316 Uani
N1 N -0.1773(4) 0.6925(4) 0.61673(19) 0.0350 Uani
N2 N 0.1295(5) 0.9416(6) 0.4200(3) 0.0770 Uani
N3 N 0.1254(4) 0.8270(4) 0.3494(2) 0.0357 Uani
N4 N -0.2019(4) 0.7418(5) 0.5744(2) 0.0413 Uani
N5 N 0.4963(4) 0.4940(4) 0.2509(2) 0.0330 Uani
C1 C 0.4403(4) 0.5959(5) 0.3367(3) 0.0400 Uani
H1 H 0.4213 0.6313 0.3651 0.0480 Uiso
N6 N -0.0740(4) 0.7709(4) 0.2564(2) 0.0343 Uani
C2 C 0.5534(5) 0.5263(5) 0.2855(3) 0.0427 Uani
H2 H 0.6126 0.5120 0.2810 0.0510 Uiso
C3 C 0.4117(5) 0.5103(5) 0.2601(3) 0.0343 Uani
H3 H 0.3711 0.4879 0.2362 0.0410 Uiso
C4 C 0.3808(4) 0.5578(5) 0.3024(2) 0.0293 Uani
C5 C -0.0689(4) 0.6774(5) 0.5633(2) 0.0260 Uani
C6 C -0.0692(5) 0.7366(6) 0.4567(3) 0.0440 Uani
H4 H -0.0294 0.6892 0.4681 0.0530 Uiso
C7 C 0.2836(4) 0.5625(5) 0.3100(2) 0.0280 Uani
C8 C 0.5277(5) 0.5807(6) 0.3282(3) 0.0457 Uani
H5 H 0.5694 0.6062 0.3506 0.0550 Uiso
N7 N -0.0979(4) 0.6551(4) 0.6094(2) 0.0407 Uani
C9 C -0.1314(5) 0.7703(7) 0.4906(3) 0.0617 Uani
N8 N 0.1267(4) 0.8854(5) 0.3857(3) 0.0507 Uani
C10 C -0.1849(11) 0.8453(13) 0.4738(5) 0.0863 Uani
H6 H -0.2229 0.8766 0.4964 0.1040 Uiso
C11 C -0.1822(12) 0.8742(15) 0.4234(5) 0.1090 Uani
H7 H -0.2233 0.9186 0.4105 0.1300 Uiso
N9 N -0.1017(7) 0.5522(6) 0.3725(4) 0.1077 Uani
N10 N -0.2987(5) 0.7083(5) 0.7683(2) 0.0557 Uani
N11 N -0.3586(4) 0.6875(4) 0.7967(3) 0.0463 Uani
N12 N -0.0350(4) 0.7312(5) 0.2894(2) 0.0557 Uani
N13 N 0.2368(3) 0.6448(4) 0.31722(19) 0.0303 Uani
O1 O 0.1241(3) 0.6684(4) 0.42881(17) 0.0503 Uani
N14 N -0.4167(4) 0.6688(5) 0.8274(2) 0.0493 Uani
N15 N 0.2349(3) 0.4807(4) 0.31058(18) 0.0287 Uani
N16 N 0.1525(3) 0.5151(4) 0.31906(19) 0.0333 Uani
N17 N -0.1119(4) 0.8116(4) 0.2224(2) 0.0357 Uani
N18 N -0.0242(4) 0.5499(4) 0.3653(2) 0.0390 Uani
N19 N -0.1322(5) 0.7292(6) 0.5432(3) 0.0787 Uani
C12 C -0.1187(7) 0.8366(8) 0.3931(4) 0.1167 Uani
H8 H -0.1142 0.8603 0.3599 0.1400 Uiso
N20 N -0.1803(7) 0.5556(9) 0.3748(7) 0.2480 Uani
N21 N -0.0626(4) 0.7680(4) 0.4082(2) 0.0423 Uani
N22 N 0.1541(3) 0.6115(4) 0.32296(19) 0.0307 Uani
Mn2C Mn 0.24974(7) 0.81094(7) 0.30743(3) 0.0290 Uani
Mn2D Mn 0.25026(7) 0.31094(7) 0.30743(3) 0.0290 Uani
Mn2F Mn -0.25026(7) 0.81094(7) 0.19257(3) 0.0290 Uani
Mn3A Mn -0.03024(6) 0.57820(7) 0.67424(4) 0.0316 Uani
Mn3D Mn -0.53024(6) 0.57820(7) 0.82576(4) 0.0316 Uani
Mn3E Mn 0.03024(6) 0.42180(7) 0.32576(4) 0.0316 Uani
Mn3G Mn -0.03024(6) 0.92180(7) 0.17424(4) 0.0316 Uani
N3C N -0.3746(4) 0.6730(4) 0.6506(2) 0.0357 Uani
N7A N 0.5979(4) 0.3449(4) 0.1094(2) 0.0407 Uani
N13C N -0.2632(3) 0.8552(4) 0.68278(19) 0.0303 Uani
N14D N 0.4167(4) 0.3312(5) 0.1726(2) 0.0493 Uani
N15D N -0.2349(3) 0.5193(4) 0.68942(18) 0.0287 Uani
N16E N 0.6525(3) 0.5151(4) 0.18094(19) 0.0333 Uani
N17F N -0.1119(4) 0.6884(4) 0.7224(2) 0.0357 Uani
N17G N 0.6119(4) 0.3116(4) 0.2224(2) 0.0357 Uani
N18E N 0.4758(4) 0.5499(4) 0.1347(2) 0.0390 Uani
O2 O 0.5832(9) 0.9218(13) 0.4834(5) 0.3033 Uani
C13 C 0.526(8) 1.004(7) 0.454(3) 0.9600 Uiso
O3 O 0.687(3) 0.008(3) 0.5209(15) 0.7100 Uiso
loop_
_atom_site_aniso_label
_atom_site_aniso_U_11
_atom_site_aniso_U_22
_atom_site_aniso_U_33
_atom_site_aniso_U_23
_atom_site_aniso_U_13
_atom_site_aniso_U_12
Mn1 0.0312(6) 0.0305(6) 0.0346(6) 0.0011(5) 0.0033(5) 0.0009(5)
Mn2 0.0297 0.0232 0.0341 -0.0004 0.0007 0.0008
Mn3 0.03 0.0279 0.0368 -0.0012 0.0026 -0.0004
N1 0.04 0.034 0.031 0.005 -0.001 0.003
N2 0.100(7) 0.069(6) 0.062(5) -0.027(4) 0.007(5) 0.007(5)
N3 0.040(4) 0.033(4) 0.034(3) -0.011(3) 0.006(3) -0.003(3)
N4 0.044 0.047 0.033 0.004 0.006 0.02
N5 0.028 0.034 0.037 0.003 0.002 0.004
C1 0.034 0.037 0.049 -0.009 0 0.007
N6 0.039 0.023 0.041 -0.009 0.01 -0.006
C2 0.031 0.055 0.042 -0.001 -0.004 0
C3 0.033 0.031 0.039 0.006 -0.006 -0.004
C4 0.033 0.019 0.036 0.001 0.003 -0.001
C5 0.019 0.035 0.024 0.015 0.008 0.022
C6 0.038(5) 0.055(5) 0.039(5) 0.009(4) 0.006(4) 0.008(4)
C7 0.032 0.026 0.026 -0.001 -0.001 0.005
C8 0.039 0.055 0.043 0 -0.011 -0.005
N7 0.036 0.036 0.05 -0.002 0 0.008
C9 0.064(6) 0.089(7) 0.032(4) 0.023(4) 0.023(4) 0.030(5)
N8 0.047(4) 0.048(5) 0.057(5) 0.013(4) 0.003(4) 0.002(4)
C10 0.099(13) 0.115(15) 0.045(9) 0.072(10) 0.076(9) 0.134(13)
C11 0.123(16) 0.17(2) 0.034(9) 0.075(11) 0.075(10) 0.155(16)
N9 0.108(8) 0.044(6) 0.171(9) -0.032(5) 0.077(7) -0.024(6)
N10 0.063 0.064 0.04 -0.003 0.021 -0.013
N11 0.059 0.025 0.055 -0.01 -0.017 0.006
N12 0.07 0.053 0.044 0.014 -0.012 -0.003
N13 0.019 0.032 0.04 0.001 0.003 -0.005
O1 0.049(3) 0.055(4) 0.047(3) 0.008(3) -0.004(2) 0.002(3)
N14 0.047 0.044 0.057 -0.007 0.02 -0.016
N15 0.026 0.021 0.039 -0.003 0.001 -0.004
N16 0.03 0.026 0.044 -0.002 -0.003 -0.002
N17 0.037 0.034 0.036 0.01 -0.009 -0.003
N18 0.029(4) 0.041(4) 0.047(4) -0.002(3) 0.012(3) 0.001(3)
N19 0.084 0.093 0.059 0.005 0.026 -0.001
C12 0.153(11) 0.128(10) 0.069(7) 0.058(7) 0.035(7) 0.098(9)
N20 0.083(8) 0.131(11) 0.53(3) -0.112(13) 0.176(13) -0.053(7)
N21 0.048(4) 0.043(4) 0.036(4) 0.011(3) 0.013(3) 0.012(3)
N22 0.035 0.022 0.035 -0.002 -0.002 0.003
Mn2C 0.0297(5) 0.0232(6) 0.0341(5) -0.0004(5) -0.0007(5) -0.0008(5)
Mn2D 0.0297 0.0232 0.0341 -0.0004 0.0007 0.0008
Mn2F 0.0297 0.0232 0.0341 0.0004 0.0007 -0.0008
Mn3A 0.03 0.0279 0.0368 0.0012 -0.0026 -0.0004
Mn3D 0.03 0.0279 0.0368 -0.0012 0.0026 -0.0004
Mn3E 0.03 0.0279 0.0368 0.0012 -0.0026 -0.0004
Mn3G 0.03 0.0279 0.0368 -0.0012 -0.0026 0.0004
N3C 0.04 0.033 0.034 -0.011 -0.006 0.003
N7A 0.036 0.036 0.05 0.002 0 0.008
N13C 0.019 0.032 0.04 0.001 -0.003 0.005
N14D 0.047 0.044 0.057 -0.007 0.02 -0.016
N15D 0.026 0.021 0.039 -0.003 0.001 -0.004
N16E 0.03 0.026 0.044 0.002 0.003 -0.002
N17F 0.037 0.034 0.036 -0.01 -0.009 0.003
N17G 0.037 0.034 0.036 0.01 0.009 0.003
N18E 0.029 0.041 0.047 0.002 -0.012 0.001
O2 0.188(11) 0.49(2) 0.232(12) 0.256(15) -0.109(10) -0.175(14)
loop_
_geom_bond_atom_site_label_1
_geom_bond_atom_site_label_2
_geom_bond_site_symmetry_1
_geom_bond_site_symmetry_2
Mn1 N3 1_555 1_555
Mn2 N1 1_555 1_555
Mn3 N5 1_555 1_555
N1 N4 1_555 1_555
N2 N8 1_555 1_555
N3 N8 1_555 1_555
N4 N19 1_555 1_555
N5 C2 1_555 1_555
C1 H1 1_555 1_555
N6 N12 1_555 1_555
C2 H2 1_555 1_555
C3 N5 1_555 1_555
H3 C3 1_555 1_555
C4 C1 1_555 1_555
C5 N7 1_555 1_555
C6 H4 1_555 1_555
C7 C4 1_555 1_555
C8 C1 1_555 1_555
H5 C8 1_555 1_555
N7 N1 1_555 1_555
C9 C6 1_555 1_555
C10 C9 1_555 1_555
H6 C10 1_555 1_555
C11 C10 1_555 1_555
H7 C11 1_555 1_555
N9 N18 1_555 1_555
N10 Mn2 1_555 1_555
N11 N10 1_555 1_555
N12 Mn1 1_555 1_555
N13 C7 1_555 1_555
O1 Mn1 1_555 1_555
N14 N11 1_555 1_555
N15 C7 1_555 1_555
N16 N15 1_555 1_555
N17 N6 1_555 1_555
N18 Mn1 1_555 1_555
N19 C5 1_555 1_555
C12 C11 1_555 1_555
H8 C12 1_555 1_555
N20 N9 1_555 1_555
N21 Mn1 1_555 1_555
N22 Mn1 1_555 1_555
O2 C13 1_555 1_555
Mn2C N3 1_555 1_555
Mn2D N15 1_555 1_555
Mn2F N17 1_555 1_555
Mn3A N7 1_555 1_555
Mn3D N14 1_555 1_555
Mn3E N16 1_555 1_555
Mn3G N17 1_555 1_555
N3C Mn2 1_555 1_555
N7A Mn3 1_555 1_555
N13C Mn2 1_555 1_555
N14D Mn3 1_555 1_555
N15D Mn2 1_555 1_555
N16E Mn3 1_555 1_555
N17F Mn2 1_555 1_555
N17G Mn3 1_555 1_555
N18E Mn3 1_555 1_555
C2 C8 1_555 1_555
C3 C4 1_555 1_555
C6 N21 1_555 1_555
C9 N19 1_555 1_555
N13 N22 1_555 1_555
N13 Mn2C 1_555 1_555
N16 N22 1_555 1_555
N18 Mn3E 1_555 1_555
C12 N21 1_555 1_555
Mn3A N17F 1_555 1_555

#END
