
#######################################################################
#
#                 Cambridge Crystallographic Data Centre
#                                CCDC 
#
#######################################################################
#
# If this CIF has been generated from an entry in the Cambridge 
# Structural Database, then it will include bibliographic, chemical, 
# crystal, experimental, refinement or atomic coordinate data resulting 
# from the CCDC's data processing and validation procedures.
#
#######################################################################

data_WEFXEM
_chemical_formula_moiety         '(C27 H25 N9 Ni1 O7 S2)n'
_symmetry_cell_setting           monoclinic
_symmetry_space_group_name_H-M   'P 21/c'
_symmetry_Int_Tables_number      14
_space_group_name_Hall           '-P 2ybc'
loop_
_symmetry_equiv_pos_site_id
_symmetry_equiv_pos_as_xyz
1 x,y,z
2 -x,1/2+y,1/2-z
3 -x,-y,-z
4 x,1/2-y,1/2+z
_cell_length_a                   7.45297(44)
_cell_length_b                   15.0032(13)
_cell_length_c                   17.6120(26)
_cell_angle_alpha                90
_cell_angle_beta                 91.2922(55)
_cell_angle_gamma                90
_cell_volume                     1968.84
loop_
_atom_site_label
_atom_site_type_symbol
_atom_site_fract_x
_atom_site_fract_y
_atom_site_fract_z
Ni1 Ni 0.00000 0.00000 0.00000
C1 C -0.462770 0.16283 -0.181040
C2 C -0.305890 0.123150 -0.205640
S1 S -0.224610 0.024960 -0.161040
O1 O -0.178710 0.044410 -0.078160
O2 O -0.057430 -0.006870 -0.200810
O3 O -0.367940 -0.047010 -0.165960
C3 C -0.212850 0.160580 -0.265280
H1 H -0.105630 0.133460 -0.282090
C4 C -0.276690 0.237690 -0.300300
C5 C -0.433570 0.277370 -0.275700
H2 H -0.477190 0.330070 -0.299640
C6 C -0.526610 0.23994 -0.216060
H3 H -0.633830 0.267060 -0.199250
C7 C -0.559830 0.123780 -0.118830
C8 C -0.513440 0.129510 -0.043860
H4 H -0.411750 0.159790 -0.023060
N1 N -0.638170 0.084270 -0.003910
H5 H -0.638920 0.077400 0.049710
N2 N -0.761660 0.050590 -0.054180
C9 C -0.713240 0.075010 -0.125210
H6 H -0.77563 0.060540 -0.171200
C10 C -0.179630 0.276740 -0.362510
C11 C -0.186740 0.363480 -0.384790
H7 H -0.256160 0.409130 -0.362330
N3 N -0.077000 0.373400 -0.444870
N4 N -0.002080 0.292790 -0.459720
H8 H 0.080130 0.280380 -0.498790
C12 C -0.065500 0.233040 -0.408820
H9 H -0.035380 0.171580 -0.406090
Ni1_2 Ni -1.00000 0.00000 0.00000
Ni1A Ni -0.00000 0.50000 -0.50000
Ni1_3 Ni 1.00000 0.00000 0.00000
Ni1A_2 Ni 0.00000 -0.50000 0.50000
C1B C 0.462770 -0.16283 0.181040
C2B C 0.305890 -0.123150 0.205640
S1B S 0.224610 -0.024960 0.161040
O1B O 0.178710 -0.044410 0.078160
O2B O 0.057430 0.006870 0.200810
O3B O 0.367940 0.047010 0.165960
C3B C 0.212850 -0.160580 0.265280
H1B H 0.105630 -0.133460 0.282090
C4B C 0.276690 -0.237690 0.300300
C5B C 0.433570 -0.277370 0.275700
H2B H 0.477190 -0.330070 0.299640
C6B C 0.526610 -0.23994 0.216060
H3B H 0.633830 -0.267060 0.199250
C7B C 0.559830 -0.123780 0.118830
C8B C 0.513440 -0.129510 0.043860
H4B H 0.411750 -0.159790 0.023060
N1B N 0.638170 -0.084270 0.003910
H5B H 0.638920 -0.077400 -0.049710
N2_2 N 0.238340 0.050590 -0.054180
N2B N -0.238340 -0.050590 0.054180
N2B_2 N 0.761660 -0.050590 0.054180
C9B C 0.713240 -0.075010 0.125210
H6B H 0.77563 -0.060540 0.171200
C10B C 0.179630 -0.276740 0.362510
C11B C 0.186740 -0.363480 0.384790
H7B H 0.256160 -0.409130 0.362330
N3A N 0.077000 -0.126600 -0.055130
N3C N -0.077000 0.126600 0.055130
N3B N 0.077000 -0.373400 0.444870
N4B N 0.002080 -0.292790 0.459720
H8B H -0.080130 -0.280380 0.498790
C12B C 0.065500 -0.233040 0.408820
H9B H 0.035380 -0.171580 0.406090
O4 O 0.073619 0.914269 0.585380
H10 H 0.116255 1.011071 0.653977
N5 N 0.360305 0.974262 0.606456
C13 C 0.169043 0.970624 0.619500
C14 C 0.443655 0.910399 0.552019
H11 H 0.353609 0.872291 0.531049
H12 H 0.498311 0.942782 0.512367
H13 H 0.531908 0.875621 0.578115
C15 C 0.474813 1.041889 0.647400
H14 H 0.402095 1.076901 0.679470
H15 H 0.564284 1.012248 0.677222
H16 H 0.530686 1.079408 0.611474
loop_
_geom_bond_atom_site_label_1
_geom_bond_atom_site_label_2
_geom_bond_site_symmetry_1
_geom_bond_site_symmetry_2
Ni1 O1 1_555 1_555
C1 C2 1_555 1_555
C2 S1 1_555 1_555
S1 O1 1_555 1_555
O2 S1 1_555 1_555
O3 S1 1_555 1_555
C3 C2 1_555 1_555
H1 C3 1_555 1_555
C4 C3 1_555 1_555
C5 C4 1_555 1_555
H2 C5 1_555 1_555
C6 C1 1_555 1_555
H3 C6 1_555 1_555
C7 C1 1_555 1_555
C8 C7 1_555 1_555
H4 C8 1_555 1_555
N1 C8 1_555 1_555
H5 N1 1_555 1_555
N2 N1 1_555 1_555
C9 C7 1_555 1_555
H6 C9 1_555 1_555
C10 C4 1_555 1_555
C11 C10 1_555 1_555
H7 C11 1_555 1_555
N3 C11 1_555 1_555
N4 N3 1_555 1_555
H8 N4 1_555 1_555
C12 C10 1_555 1_555
H9 C12 1_555 1_555
O4 C13 1_555 1_555
H10 C13 1_555 1_555
N5 C13 1_555 1_555
C14 N5 1_555 1_555
H11 C14 1_555 1_555
H12 C14 1_555 1_555
H13 C14 1_555 1_555
C15 N5 1_555 1_555
H14 C15 1_555 1_555
H15 C15 1_555 1_555
H16 C15 1_555 1_555
Ni1_2 N2 1_555 1_555
Ni1A N3 1_555 1_555
Ni1_3 N2B_2 1_555 1_555
Ni1A_2 N3B 1_555 1_555
C1B C2B 1_555 1_555
C2B S1B 1_555 1_555
S1B O1B 1_555 1_555
O1B Ni1 1_555 1_555
O2B S1B 1_555 1_555
O3B S1B 1_555 1_555
C3B C2B 1_555 1_555
H1B C3B 1_555 1_555
C4B C3B 1_555 1_555
C5B C4B 1_555 1_555
H2B C5B 1_555 1_555
C6B C1B 1_555 1_555
H3B C6B 1_555 1_555
C7B C1B 1_555 1_555
C8B C7B 1_555 1_555
H4B C8B 1_555 1_555
N1B C8B 1_555 1_555
H5B N1B 1_555 1_555
N2_2 Ni1 1_555 1_555
N2B Ni1 1_555 1_555
N2B_2 N1B 1_555 1_555
C9B C7B 1_555 1_555
H6B C9B 1_555 1_555
C10B C4B 1_555 1_555
C11B C10B 1_555 1_555
H7B C11B 1_555 1_555
N3A Ni1 1_555 1_555
N3C Ni1 1_555 1_555
N3B C11B 1_555 1_555
N4B N3B 1_555 1_555
H8B N4B 1_555 1_555
C12B C10B 1_555 1_555
H9B C12B 1_555 1_555
C5 C6 1_555 1_555
N2 C9 1_555 1_555
N4 C12 1_555 1_555
C5B C6B 1_555 1_555
N2B_2 C9B 1_555 1_555
N4B C12B 1_555 1_555

#END
