
#######################################################################
#
#                 Cambridge Crystallographic Data Centre
#                                CCDC 
#
#######################################################################
#
# If this CIF has been generated from an entry in the Cambridge 
# Structural Database, then it will include bibliographic, chemical, 
# crystal, experimental, refinement or atomic coordinate data resulting 
# from the CCDC's data processing and validation procedures.
#
#######################################################################

data_WIQRUL
_chemical_formula_moiety         '(C24 H18 Cu2 N4 O9)n'
_symmetry_cell_setting           monoclinic
_symmetry_space_group_name_H-M   'P 21/c'
_symmetry_Int_Tables_number      14
_space_group_name_Hall           '-P 2ybc'
loop_
_symmetry_equiv_pos_site_id
_symmetry_equiv_pos_as_xyz
1 x,y,z
2 -x,1/2+y,1/2-z
3 -x,-y,-z
4 x,1/2-y,1/2+z
_cell_length_a                   10.7156(3)
_cell_length_b                   19.5879(6)
_cell_length_c                   13.7950(3)
_cell_angle_alpha                90
_cell_angle_beta                 104.498(2)
_cell_angle_gamma                90
_cell_volume                     2803.31
loop_
_atom_site_label
_atom_site_type_symbol
_atom_site_fract_x
_atom_site_fract_y
_atom_site_fract_z
Cu1 Cu 0.09451(4) 0.11825(2) 0.86047(3)
Cu2 Cu 0.25407(4) 0.47412(2) 1.20494(3)
O1 O 0.7915(2) 0.59787(14) 1.49704(17)
O2 O 0.0214(2) 0.63012(12) 0.77854(17)
O3 O 0.2593(2) 0.10930(14) 0.80209(19)
O4 O 0.5929(3) 0.59425(18) 1.5188(2)
O5 O -0.0649(3) -0.01248(13) 1.14463(18)
O6 O -0.2294(2) 0.03999(13) 1.18784(18)
O7 O 0.2759(3) 0.41110(14) 1.09065(18)
N1 N -0.0633(3) 0.12398(15) 0.9226(2)
O8 O -0.0575(3) 0.54544(14) 0.85494(18)
N2 N 0.2426(3) 0.55463(17) 1.1031(2)
C1 C -0.0619(4) 0.08553(19) 1.0029(3)
H1 H 0.0111 0.0592 1.0288
N3 N 0.4553(3) 0.48820(16) 1.2574(2)
N4 N 0.1251(3) 0.22457(16) 0.8746(2)
O9 O 0.2635(4) 0.30779(15) 1.1556(2)
C2 C 0.6313(4) 0.54216(19) 1.3747(2)
C3 C 0.0224(4) 0.59048(19) 0.8498(2)
C4 C 0.1737(3) 0.25206(19) 0.9648(3)
H2 H 0.1920 0.2232 1.0201
C5 C -0.1604(4) 0.08217(19) 1.0498(3)
C6 C 0.1324(4) 0.59826(19) 0.9412(3)
C7 C 0.1980(4) 0.3202(2) 0.9802(3)
C8 C 0.1529(3) 0.5502(2) 1.0164(2)
H3 H 0.1003 0.5117 1.0060
C9 C -0.1497(4) 0.03277(19) 1.1354(3)
C10 C 0.5038(4) 0.52252(19) 1.3419(2)
H4 H 0.4481 0.5340 1.3813
C11 C 0.1668(5) 0.3634(3) 0.8978(4)
H5 H 0.1807 0.4102 0.9055
C12 C 0.2514(4) 0.3486(2) 1.0847(3)
C13 C -0.2757(5) 0.1577(3) 0.9245(4)
H6 H -0.3501 0.1817 0.8943
C14 C -0.1711(4) 0.1597(2) 0.8844(3)
H7 H -0.1749 0.1870 0.8286
C15 C 0.0978(5) 0.2655(2) 0.7963(3)
H8 H 0.0658 0.2465 0.7331
C16 C 0.1150(6) 0.3357(3) 0.8043(4)
H9 H 0.0921 0.3635 0.7480
C17 C 0.3214(5) 0.6078(2) 1.1143(4)
H10 H 0.3854 0.6119 1.1736
C18 C 0.6747(4) 0.5815(2) 1.4713(2)
C19 C 0.6663(4) 0.4851(3) 1.2317(3)
H11 H 0.7206 0.4710 1.1925
C20 C 0.7154(4) 0.5215(2) 1.3186(3)
H12 H 0.8028 0.5320 1.3390
C21 C 0.3127(5) 0.6571(3) 1.0423(4)
H13 H 0.3702 0.6935 1.0535
C22 C 0.2186(5) 0.6529(3) 0.9529(4)
H14 H 0.2131 0.6853 0.9027
C23 C -0.2705(5) 0.1198(2) 1.0098(3)
H15 H -0.3394 0.1196 1.0396
C24 C 0.5374(4) 0.4696(2) 1.2034(3)
H16 H 0.5059 0.4453 1.1444
H17 H 0.268(4) 0.136(3) 0.762(3)
H18 H 0.314(3) 0.100(3) 0.852(3)
Cu1A Cu -0.09451(4) 0.61825(2) 0.63953(3)
Cu1A_2 Cu 0.90549(4) 0.61825(2) 1.63953(3)
Cu1B Cu -0.09451(4) -0.11825(2) 1.13953(3)
Cu2A Cu -0.25407(4) -0.02588(2) 1.29506(3)
Cu2B Cu -0.25407(4) 0.52588(2) 0.79506(3)
Cu2C Cu 0.25407(4) 0.02588(2) 0.70494(3)
O1A O 0.2085(2) 0.09787(14) 1.00296(17)
O2A O -0.0214(2) 0.13012(12) 0.72146(17)
O3C O 0.2593(2) 0.39070(14) 1.30209(19)
O5B O 0.0649(3) 0.01248(13) 0.85537(18)
O6A O 0.2294(2) 0.53999(13) 1.31216(18)
O8B O 0.0575(3) 0.45456(14) 1.14506(18)
loop_
_geom_bond_atom_site_label_1
_geom_bond_atom_site_label_2
_geom_bond_site_symmetry_1
_geom_bond_site_symmetry_2
Cu1 O3 1_555 1_555
Cu2 O7 1_555 1_555
O1 C18 1_555 1_555
O2 C3 1_555 1_555
O3 H17 1_555 1_555
O4 C18 1_555 1_555
O5 C9 1_555 1_555
O6 C9 1_555 1_555
O7 C12 1_555 1_555
N1 Cu1 1_555 1_555
O8 C3 1_555 1_555
N2 Cu2 1_555 1_555
C1 N1 1_555 1_555
H1 C1 1_555 1_555
N3 Cu2 1_555 1_555
N4 Cu1 1_555 1_555
O9 C12 1_555 1_555
C2 C10 1_555 1_555
C3 C6 1_555 1_555
C4 N4 1_555 1_555
H2 C4 1_555 1_555
C5 C1 1_555 1_555
C6 C8 1_555 1_555
C7 C4 1_555 1_555
C8 N2 1_555 1_555
H3 C8 1_555 1_555
C9 C5 1_555 1_555
C10 N3 1_555 1_555
H4 C10 1_555 1_555
C11 C7 1_555 1_555
H5 C11 1_555 1_555
C12 C7 1_555 1_555
C13 H6 1_555 1_555
C14 N1 1_555 1_555
H7 C14 1_555 1_555
C15 N4 1_555 1_555
H8 C15 1_555 1_555
C16 C11 1_555 1_555
H9 C16 1_555 1_555
C17 N2 1_555 1_555
H10 C17 1_555 1_555
C18 C2 1_555 1_555
C19 H11 1_555 1_555
C20 C2 1_555 1_555
H12 C20 1_555 1_555
C21 C17 1_555 1_555
H13 C21 1_555 1_555
C22 C6 1_555 1_555
H14 C22 1_555 1_555
C23 C5 1_555 1_555
H15 C23 1_555 1_555
C24 N3 1_555 1_555
H16 C24 1_555 1_555
H18 O3 1_555 1_555
Cu1A O2 1_555 1_555
Cu1A_2 O1 1_555 1_555
Cu1B O5 1_555 1_555
Cu2A O6 1_555 1_555
Cu2B O8 1_555 1_555
Cu2C O3 1_555 1_555
O1A Cu1 1_555 1_555
O2A Cu1 1_555 1_555
O3C Cu2 1_555 1_555
O5B Cu1 1_555 1_555
O6A Cu2 1_555 1_555
O8B Cu2 1_555 1_555
C13 C14 1_555 1_555
C13 C23 1_555 1_555
C15 C16 1_555 1_555
C19 C20 1_555 1_555
C19 C24 1_555 1_555
C21 C22 1_555 1_555

#END
