
#######################################################################
#
#                 Cambridge Crystallographic Data Centre
#                                CCDC 
#
#######################################################################
#
# If this CIF has been generated from an entry in the Cambridge 
# Structural Database, then it will include bibliographic, chemical, 
# crystal, experimental, refinement or atomic coordinate data resulting 
# from the CCDC's data processing and validation procedures.
#
#######################################################################

data_WOWNED
_chemical_formula_moiety         '(C17 H11 N5 Ni1 O4 S1)n'
_symmetry_cell_setting           monoclinic
_symmetry_space_group_name_H-M   'C 2/c'
_symmetry_Int_Tables_number      15
_space_group_name_Hall           '-C 2yc'
loop_
_symmetry_equiv_pos_site_id
_symmetry_equiv_pos_as_xyz
1 x,y,z
2 -x,y,1/2-z
3 1/2+x,1/2+y,z
4 1/2-x,1/2+y,1/2-z
5 -x,-y,-z
6 x,-y,1/2+z
7 1/2-x,1/2-y,-z
8 1/2+x,1/2-y,1/2+z
_cell_length_a                   24.6326(16)
_cell_length_b                   13.8299(6)
_cell_length_c                   12.7662(8)
_cell_angle_alpha                90
_cell_angle_beta                 107.784(4)
_cell_angle_gamma                90
_cell_volume                     4141.2
loop_
_atom_site_label
_atom_site_type_symbol
_atom_site_fract_x
_atom_site_fract_y
_atom_site_fract_z
_atom_site_U_iso_or_equiv
_atom_site_thermal_displace_type
Ni1 Ni -0.234223(11) 0.115491(18) -0.60489(2) 0.0168 Uani
S1 S 0.01152(3) 0.18302(4) -0.38485(5) 0.0314 Uani
O1 O -0.31019(7) -0.37186(11) -0.77932(13) 0.0269 Uani
O2 O -0.39332(8) -0.29586(14) -0.80701(19) 0.0496 Uani
O3 O -0.30040(6) -0.25166(10) -0.95758(11) 0.0203 Uani
O4 O -0.26934(7) -0.10302(10) -0.97492(12) 0.0227 Uani
N1 N -0.26358(8) -0.02239(13) -0.66321(14) 0.0208 Uani
N2 N -0.15908(8) 0.05368(13) -0.49948(15) 0.0218 Uani
N3 N -0.06611(7) 0.03790(13) -0.42501(14) 0.0214 Uani
N4 N 0.12485(8) 0.22357(15) -0.30946(15) 0.0286 Uani
N5 N 0.19506(8) 0.32060(14) -0.22122(15) 0.0261 Uani
C1 C -0.28455(9) -0.16836(14) -0.92176(16) 0.0170 Uani
C2 C -0.28540(9) -0.14297(15) -0.80692(16) 0.0186 Uani
C3 C -0.26140(9) -0.05569(15) -0.76034(17) 0.0197 Uani
H1 H -0.2427 -0.0183 -0.7992 0.0240 Uiso
C4 C -0.28905(12) -0.07892(17) -0.60686(19) 0.0308 Uani
H2 H -0.2916 -0.0568 -0.5397 0.0370 Uiso
C5 C -0.31144(12) -0.16739(18) -0.6436(2) 0.0357 Uani
H3 H -0.3273 -0.2050 -0.6001 0.0430 Uiso
C6 C -0.31079(10) -0.20181(15) -0.74579(18) 0.0229 Uani
C7 C -0.34053(10) -0.29795(16) -0.78249(18) 0.0258 Uani
C8 C -0.14699(10) -0.03867(17) -0.45896(19) 0.0282 Uani
H4 H -0.1740 -0.0866 -0.4627 0.0340 Uiso
C9 C -0.09006(10) -0.04974(17) -0.41285(19) 0.0291 Uani
H5 H -0.0710 -0.1052 -0.3797 0.0350 Uiso
C10 C -0.00772(9) 0.06274(16) -0.38723(17) 0.0220 Uani
C11 C 0.03738(9) 0.00310(17) -0.34911(18) 0.0254 Uani
H6 H 0.0344 -0.0637 -0.3449 0.0300 Uiso
C12 C 0.08988(10) 0.05418(18) -0.31617(18) 0.0266 Uani
H7 H 0.1253 0.0246 -0.2883 0.0320 Uiso
C13 C 0.08253(10) 0.15031(18) -0.32996(17) 0.0257 Uani
C14 C 0.16100(10) 0.25072(17) -0.21077(17) 0.0251 Uani
H8 H 0.1616 0.2233 -0.1439 0.0300 Uiso
C15 C 0.17989(14) 0.3390(2) -0.3323(2) 0.0532 Uani
H9 H 0.1970 0.3851 -0.3650 0.0640 Uiso
C16 C 0.13650(14) 0.2804(3) -0.3873(2) 0.0557 Uani
H10 H 0.1183 0.2791 -0.4628 0.0670 Uiso
C17 C -0.10938(10) 0.09748(16) -0.47719(18) 0.0243 Uani
H11 H -0.1047 0.1614 -0.4951 0.0290 Uiso
Ni1C Ni -0.265777(11) -0.384509(18) -0.89511(2) 0.0168 Uani
Ni1E Ni -0.234223(11) -0.115491(18) -1.10489(2) 0.0168 Uani
Ni1G Ni 0.265777(11) 0.384509(18) -0.10489(2) 0.0168 Uani
O1C O -0.18981(7) 0.12814(11) -0.72068(13) 0.0269 Uani
O3C O -0.19960(6) 0.24834(10) -0.54242(11) 0.0203 Uani
O4E O -0.26934(7) 0.10302(10) -0.47492(12) 0.0227 Uani
N5G N -0.30494(8) 0.17940(14) -0.72122(15) 0.0261 Uani
loop_
_atom_site_aniso_label
_atom_site_aniso_U_11
_atom_site_aniso_U_22
_atom_site_aniso_U_33
_atom_site_aniso_U_23
_atom_site_aniso_U_13
_atom_site_aniso_U_12
Ni1 0.02042(17) 0.01373(15) 0.01610(14) -0.00058(9) 0.00521(11) 0.00108(9)
S1 0.0251(3) 0.0233(3) 0.0407(3) -0.0012(2) 0.0025(3) -0.0006(2)
O1 0.0392(10) 0.0185(8) 0.0287(8) -0.0009(6) 0.0190(7) -0.0030(6)
O2 0.0333(11) 0.0371(11) 0.0839(16) -0.0215(10) 0.0262(11) -0.0099(8)
O3 0.0284(8) 0.0136(7) 0.0181(7) -0.0009(5) 0.0059(6) -0.0014(6)
O4 0.0338(9) 0.0167(7) 0.0208(7) 0.0013(5) 0.0133(7) -0.0016(6)
N1 0.0258(10) 0.0178(9) 0.0189(8) -0.0030(7) 0.0071(7) -0.0017(7)
N2 0.0202(9) 0.0207(9) 0.0234(9) 0.0011(7) 0.0052(7) 0.0007(7)
N3 0.0187(9) 0.0228(9) 0.0207(8) -0.0001(7) 0.0032(7) 0.0002(7)
N4 0.0274(10) 0.0347(11) 0.0214(9) -0.0018(8) 0.0041(8) -0.0092(8)
N5 0.0282(10) 0.0273(10) 0.0207(9) -0.0008(7) 0.0043(8) -0.0049(8)
C1 0.0174(10) 0.0157(9) 0.0175(9) 0.0002(7) 0.0047(8) 0.0010(8)
C2 0.0218(11) 0.0152(9) 0.0195(9) -0.0007(8) 0.0073(8) 0.0004(8)
C3 0.0234(11) 0.0159(10) 0.0211(9) -0.0003(8) 0.0088(8) -0.0004(8)
C4 0.0502(15) 0.0241(11) 0.0240(11) -0.0065(9) 0.0200(11) -0.0088(11)
C5 0.0608(18) 0.0246(12) 0.0322(12) -0.0064(10) 0.0299(13) -0.0156(11)
C6 0.0304(12) 0.0158(10) 0.0257(10) -0.0026(8) 0.0134(9) -0.0033(8)
C7 0.0355(13) 0.0208(11) 0.0266(11) -0.0041(8) 0.0177(10) -0.0070(9)
C8 0.0267(12) 0.0210(11) 0.0339(12) 0.0042(9) 0.0047(10) -0.0020(9)
C9 0.0291(13) 0.0195(11) 0.0334(12) 0.0044(9) 0.0017(10) 0.0014(9)
C10 0.0237(11) 0.0236(11) 0.0175(9) -0.0032(8) 0.0046(8) -0.0015(9)
C11 0.0244(12) 0.0250(11) 0.0248(10) 0.0021(9) 0.0044(9) 0.0031(9)
C12 0.0186(11) 0.0352(13) 0.0237(10) 0.0001(9) 0.0029(9) 0.0009(9)
C13 0.0221(11) 0.0332(12) 0.0202(10) -0.0008(9) 0.0043(9) -0.0028(9)
C14 0.0244(11) 0.0308(12) 0.0182(10) 0.0003(8) 0.0036(9) -0.0024(9)
C15 0.064(2) 0.063(2) 0.0247(12) 0.0087(13) 0.0020(13) -0.0390(17)
C16 0.066(2) 0.075(2) 0.0183(12) 0.0037(12) 0.0011(12) -0.0403(18)
C17 0.0237(11) 0.0210(11) 0.0261(11) 0.0031(8) 0.0045(9) 0.0003(9)
Ni1C 0.02042 0.01373 0.0161 0.00058 0.00521 -0.00108
Ni1E 0.02042 0.01373 0.0161 0.00058 0.00521 -0.00108
Ni1G 0.02042 0.01373 0.0161 0.00058 0.00521 -0.00108
O1C 0.0392 0.0185 0.0287 0.0009 0.019 0.003
O3C 0.0284 0.0136 0.0181 0.0009 0.0059 0.0014
O4E 0.0338 0.0167 0.0208 -0.0013 0.0133 0.0016
N5G 0.0282 0.0273 0.0207 0.0008 0.0043 0.0049
loop_
_geom_bond_atom_site_label_1
_geom_bond_atom_site_label_2
_geom_bond_site_symmetry_1
_geom_bond_site_symmetry_2
Ni1 N1 1_555 1_555
S1 C10 1_555 1_555
O1 C7 1_555 1_555
O2 C7 1_555 1_555
O3 C1 1_555 1_555
O4 C1 1_555 1_555
N1 C3 1_555 1_555
N2 Ni1 1_555 1_555
N3 C9 1_555 1_555
N4 C13 1_555 1_555
N5 C14 1_555 1_555
C1 C2 1_555 1_555
C2 C3 1_555 1_555
C3 H1 1_555 1_555
C4 N1 1_555 1_555
H2 C4 1_555 1_555
C5 C4 1_555 1_555
H3 C5 1_555 1_555
C6 C2 1_555 1_555
C7 C6 1_555 1_555
C8 N2 1_555 1_555
H4 C8 1_555 1_555
C9 C8 1_555 1_555
H5 C9 1_555 1_555
C10 N3 1_555 1_555
C11 C10 1_555 1_555
H6 C11 1_555 1_555
C12 C11 1_555 1_555
H7 C12 1_555 1_555
C13 S1 1_555 1_555
C14 N4 1_555 1_555
H8 C14 1_555 1_555
C15 N5 1_555 1_555
H9 C15 1_555 1_555
C16 N4 1_555 1_555
H10 C16 1_555 1_555
C17 N2 1_555 1_555
H11 C17 1_555 1_555
Ni1C O1 1_555 1_555
Ni1E O4 1_555 1_555
Ni1G N5 1_555 1_555
O1C Ni1 1_555 1_555
O3C Ni1 1_555 1_555
O4E Ni1 1_555 1_555
N5G Ni1 1_555 1_555
O3 Ni1C 1_555 1_555
N3 C17 1_555 1_555
C5 C6 1_555 1_555
C12 C13 1_555 1_555
C15 C16 1_555 1_555

#END
